# Generated by pormake.
# Topology pyr, (3,6)-cn, num edge types: 1
# Building blocks:
#     Node 0, Type 0, BuildingBlock: OLANEW_clean_sbu_2, # of connection points: 3
#     Node 1, Type 0, BuildingBlock: OLANEW_clean_sbu_2, # of connection points: 3
#     Node 2, Type 0, BuildingBlock: OLANEW_clean_sbu_2, # of connection points: 3
#     Node 3, Type 0, BuildingBlock: OLANEW_clean_sbu_2, # of connection points: 3
#     Node 4, Type 0, BuildingBlock: OLANEW_clean_sbu_2, # of connection points: 3
#     Node 5, Type 0, BuildingBlock: OLANEW_clean_sbu_2, # of connection points: 3
#     Node 6, Type 0, BuildingBlock: OLANEW_clean_sbu_2, # of connection points: 3
#     Node 7, Type 0, BuildingBlock: OLANEW_clean_sbu_2, # of connection points: 3
#     Node 8, Type 1, BuildingBlock: LEVNOQ01_clean_sbu_1, # of connection points: 6
#     Node 9, Type 1, BuildingBlock: LEVNOQ01_clean_sbu_1, # of connection points: 6
#     Node 10, Type 1, BuildingBlock: LEVNOQ01_clean_sbu_1, # of connection points: 6
#     Node 11, Type 1, BuildingBlock: LEVNOQ01_clean_sbu_1, # of connection points: 6
#     Edge 12, Type (0, 1), BuildingBlock: AJUNOK_clean_linker_0, # of connection points: 2
#     Edge 13, Type (0, 1), BuildingBlock: AJUNOK_clean_linker_0, # of connection points: 2
#     Edge 14, Type (0, 1), BuildingBlock: AJUNOK_clean_linker_0, # of connection points: 2
#     Edge 15, Type (0, 1), BuildingBlock: AJUNOK_clean_linker_0, # of connection points: 2
#     Edge 16, Type (0, 1), BuildingBlock: AJUNOK_clean_linker_0, # of connection points: 2
#     Edge 17, Type (0, 1), BuildingBlock: AJUNOK_clean_linker_0, # of connection points: 2
#     Edge 18, Type (0, 1), BuildingBlock: AJUNOK_clean_linker_0, # of connection points: 2
#     Edge 19, Type (0, 1), BuildingBlock: AJUNOK_clean_linker_0, # of connection points: 2
#     Edge 20, Type (0, 1), BuildingBlock: AJUNOK_clean_linker_0, # of connection points: 2
#     Edge 21, Type (0, 1), BuildingBlock: AJUNOK_clean_linker_0, # of connection points: 2
#     Edge 22, Type (0, 1), BuildingBlock: AJUNOK_clean_linker_0, # of connection points: 2
#     Edge 23, Type (0, 1), BuildingBlock: AJUNOK_clean_linker_0, # of connection points: 2
#     Edge 24, Type (0, 1), BuildingBlock: AJUNOK_clean_linker_0, # of connection points: 2
#     Edge 25, Type (0, 1), BuildingBlock: AJUNOK_clean_linker_0, # of connection points: 2
#     Edge 26, Type (0, 1), BuildingBlock: AJUNOK_clean_linker_0, # of connection points: 2
#     Edge 27, Type (0, 1), BuildingBlock: AJUNOK_clean_linker_0, # of connection points: 2
#     Edge 28, Type (0, 1), BuildingBlock: AJUNOK_clean_linker_0, # of connection points: 2
#     Edge 29, Type (0, 1), BuildingBlock: AJUNOK_clean_linker_0, # of connection points: 2
#     Edge 30, Type (0, 1), BuildingBlock: AJUNOK_clean_linker_0, # of connection points: 2
#     Edge 31, Type (0, 1), BuildingBlock: AJUNOK_clean_linker_0, # of connection points: 2
#     Edge 32, Type (0, 1), BuildingBlock: AJUNOK_clean_linker_0, # of connection points: 2
#     Edge 33, Type (0, 1), BuildingBlock: AJUNOK_clean_linker_0, # of connection points: 2
#     Edge 34, Type (0, 1), BuildingBlock: AJUNOK_clean_linker_0, # of connection points: 2
#     Edge 35, Type (0, 1), BuildingBlock: AJUNOK_clean_linker_0, # of connection points: 2
# Relax obj value: 0.073
# Max RMSD: 0.148
# Mean RMSD: 0.117
data_MOF--net-pry--node1-OLANEW_clean_sbu_2--node2-LEVNOQ01_clean_sbu_1--edge1-AJUNOK_clean_linker_0
_symmetry_space_group_name_H-M    P1
_symmetry_Int_Tables_number       1
_symmetry_cell_setting            triclinic
loop_
_symmetry_equiv_pos_as_xyz
'x, y, z'
_cell_length_a     29.723171
_cell_length_b     28.819038
_cell_length_c     27.85271
_cell_angle_alpha  96.869173
_cell_angle_beta   90.333131
_cell_angle_gamma 100.35411
loop_
_atom_site_label
_atom_site_type_symbol
_atom_site_fract_x
_atom_site_fract_y
_atom_site_fract_z
_atom_type_partial_charge
O0 O 0.19362 0.12299 0.09138 0.0
Cd1 Cd 0.11279 0.13214 0.08737 0.0
O2 O 0.18749 0.07609 0.14941 0.0
Cd3 Cd 0.11902 0.08091 0.17371 0.0
O4 O 0.08127 0.0718 0.23989 0.0
C5 C 0.1043 0.07686 0.27947 0.0
O6 O 0.14902 0.08919 0.27861 0.0
C7 C 0.21076 0.0968 0.11749 0.0
C8 C 0.09201 0.22057 0.07068 0.0
O9 O 0.09144 0.20776 0.11324 0.0
O10 O 0.1041 0.1926 0.03585 0.0
O11 O 0.46921 0.96731 0.71948 0.0
Cd12 Cd 0.45441 0.9304 0.63546 0.0
O13 O 0.39795 0.93776 0.72909 0.0
Cd14 Cd 0.32628 0.9117 0.74397 0.0
O15 O 0.2578 0.9073 0.71331 0.0
C16 C 0.25501 0.90627 0.66757 0.0
O17 O 0.29218 0.9044 0.64268 0.0
C18 C 0.43565 0.9615 0.74762 0.0
C19 C 0.47772 0.84043 0.62353 0.0
O20 O 0.50479 0.87583 0.60969 0.0
O21 O 0.43983 0.84731 0.64217 0.0
O22 O 0.71489 0.48258 0.96175 0.0
Cd23 Cd 0.64374 0.50107 0.93433 0.0
O24 O 0.69427 0.41657 0.91353 0.0
Cd25 Cd 0.69545 0.34467 0.87944 0.0
O26 O 0.65648 0.27525 0.88813 0.0
C27 C 0.66852 0.25686 0.92416 0.0
O28 O 0.70654 0.27746 0.94805 0.0
C29 C 0.72369 0.44309 0.94283 0.0
C30 C 0.6345 0.484 0.8336 0.0
O31 O 0.65681 0.52336 0.85483 0.0
O32 O 0.61696 0.45232 0.86008 0.0
O33 O 0.01049 0.68588 0.45469 0.0
Cd34 Cd 0.00525 0.60846 0.40822 0.0
O35 O 0.97467 0.65001 0.51202 0.0
Cd36 Cd 0.9282 0.64356 0.57182 0.0
O37 O 0.8559 0.62153 0.58458 0.0
C38 C 0.83139 0.64923 0.5703 0.0
O39 O 0.85192 0.68857 0.55454 0.0
C40 C 0.99129 0.68831 0.49516 0.0
C41 C 0.97186 0.60879 0.31414 0.0
O42 O 0.01385 0.62447 0.32689 0.0
O43 O 0.94455 0.5931 0.34637 0.0
O44 O 0.92997 0.89569 0.88375 0.0
Cd45 Cd 0.90891 0.87204 0.96399 0.0
O46 O 0.87689 0.93904 0.87601 0.0
Cd47 Cd 0.85064 0.93794 0.94827 0.0
O48 O 0.79329 0.95232 0.99164 0.0
C49 C 0.78113 0.99271 0.9955 0.0
O50 O 0.80628 0.02774 0.97632 0.0
C51 C 0.90953 0.92008 0.85853 0.0
C52 C 0.93725 0.78621 0.97556 0.0
O53 O 0.90081 0.78746 0.95135 0.0
O54 O 0.9606 0.82562 0.99548 0.0
O55 O 0.61593 0.04339 0.3904 0.0
Cd56 Cd 0.63566 0.07684 0.47496 0.0
O57 O 0.63366 0.11991 0.39245 0.0
Cd58 Cd 0.63186 0.18906 0.37037 0.0
O59 O 0.61032 0.2569 0.38521 0.0
C60 C 0.59676 0.26757 0.42761 0.0
O61 O 0.5979 0.23796 0.4598 0.0
C62 C 0.61897 0.07974 0.36827 0.0
C63 C 0.72445 0.07418 0.50489 0.0
O64 O 0.69025 0.04362 0.5156 0.0
O65 O 0.71693 0.10639 0.47949 0.0
O66 O 0.46434 0.74806 0.16981 0.0
Cd67 Cd 0.46199 0.66544 0.18148 0.0
O68 O 0.39511 0.74281 0.197 0.0
Cd69 Cd 0.32816 0.76103 0.19116 0.0
O70 O 0.27215 0.70812 0.15884 0.0
C71 C 0.26818 0.69682 0.11333 0.0
O72 O 0.29521 0.72112 0.08446 0.0
C73 C 0.4289 0.76618 0.17775 0.0
C74 C 0.44561 0.64395 0.27462 0.0
O75 O 0.48467 0.66529 0.26239 0.0
O76 O 0.4129 0.63321 0.24281 0.0
O77 O 0.12859 0.50165 0.69543 0.0
Cd78 Cd 0.1343 0.49242 0.60695 0.0
O79 O 0.14522 0.43102 0.68346 0.0
Cd80 Cd 0.15156 0.36026 0.69503 0.0
O81 O 0.11904 0.29983 0.64608 0.0
C82 C 0.0811 0.3006 0.62507 0.0
O83 O 0.06047 0.33704 0.63554 0.0
C84 C 0.13405 0.46408 0.71248 0.0
C85 C 0.22278 0.48472 0.57902 0.0
O86 O 0.20894 0.5246 0.58289 0.0
O87 O 0.19437 0.44785 0.58772 0.0
O88 O 0.0204 0.01924 0.69621 0.0
Mg89 Mg 0.06258 0.05677 0.64844 0.0
O90 O 0.97091 0.97625 0.64066 0.0
Mg91 Mg -0.00137 0.99558 0.56546 0.0
O92 O 0.02536 0.07328 0.59396 0.0
O93 O 0.06648 0.12786 0.64849 0.0
O94 O 0.02834 0.01607 0.49123 0.0
O95 O 0.93133 0.02764 0.55343 0.0
Mg96 Mg 0.93701 0.94738 0.49326 0.0
O97 O 0.97272 0.91396 0.53711 0.0
O98 O 0.97247 0.98299 0.43924 0.0
O99 O 0.87868 0.96966 0.51936 0.0
O100 O 0.92394 0.87684 0.47667 0.0
C101 C 0.10665 0.98377 0.5998 0.0
C102 C 0.985 0.98805 0.68468 0.0
C103 C 0.04046 0.11737 0.61002 0.0
C104 C 0.01134 0.00903 0.44822 0.0
C105 C 0.88977 0.01132 0.54021 0.0
C106 C 0.9515 0.87491 0.51202 0.0
O107 O 0.11668 0.02528 0.62204 0.0
O108 O 0.06645 0.96744 0.58179 0.0
O109 O 0.42938 0.13585 0.12059 0.0
Mg110 Mg 0.50102 0.15147 0.1185 0.0
O111 O 0.42247 0.06029 0.08895 0.0
Mg112 Mg 0.49536 0.04414 0.06725 0.0
O113 O 0.52284 0.12103 0.0552 0.0
O114 O 0.5335 0.19944 0.07501 0.0
O115 O 0.57347 0.03453 0.0462 0.0
O116 O 0.46591 0.03428 0.98656 0.0
Mg117 Mg 0.50852 0.9697 0.03162 0.0
O118 O 0.46141 0.96523 0.08431 0.0
O119 O 0.57052 0.96074 0.0578 0.0
O120 O 0.50734 0.98243 0.95906 0.0
O121 O 0.46844 0.90557 0.02716 0.0
C122 C 0.5405 0.08958 0.18011 0.0
C123 C 0.40484 0.09556 0.1074 0.0
C124 C 0.53989 0.16332 0.04554 0.0
C125 C 0.59419 -7e-05 0.05098 0.0
C126 C 0.48078 0.01005 0.95094 0.0
C127 C 0.45132 0.92046 0.06706 0.0
O128 O 0.53833 0.13223 0.1749 0.0
O129 O 0.52419 0.05514 0.14777 0.0
O130 O 0.49454 0.6254 0.6506 0.0
Mg131 Mg 0.49006 0.55135 0.64045 0.0
O132 O 0.52199 0.6246 0.57777 0.0
Mg133 Mg 0.52719 0.5455 0.55015 0.0
O134 O 0.54722 0.52163 0.62559 0.0
O135 O 0.51478 0.52996 0.69847 0.0
O136 O 0.53386 0.4684 0.51819 0.0
O137 O 0.60774 0.57075 0.5538 0.0
Mg138 Mg 0.57051 0.55633 0.4681 0.0
O139 O 0.50517 0.56813 0.47533 0.0
O140 O 0.58026 0.48582 0.45891 0.0
O141 O 0.62489 0.61061 0.49236 0.0
O142 O 0.5443 0.56911 0.40613 0.0
C143 C 0.41671 0.50415 0.57875 0.0
C144 C 0.50938 0.64746 0.61578 0.0
C145 C 0.54559 0.51538 0.67127 0.0
C146 C 0.55809 0.45548 0.48318 0.0
C147 C 0.63644 0.59874 0.53198 0.0
C148 C 0.5081 0.57435 0.42984 0.0
O149 O 0.42695 0.50859 0.62313 0.0
O150 O 0.44674 0.51887 0.54881 0.0
O151 O 0.01456 0.41409 0.09251 0.0
Mg152 Mg 0.03549 0.48657 0.09425 0.0
O153 O 0.03926 0.4265 0.02103 0.0
Mg154 Mg 0.01687 0.50278 0.01094 0.0
O155 O 0.9878 0.52892 0.08786 0.0
O156 O 0.01401 0.51136 0.15819 0.0
O157 O 0.99617 0.57877 0.00092 0.0
O158 O 0.94167 0.45966 0.99716 0.0
Mg159 Mg 0.99385 0.514 0.92688 0.0
O160 O 0.04874 0.48122 0.93295 0.0
O161 O 0.00641 0.58647 0.92466 0.0
O162 O 0.92609 0.48163 0.92744 0.0
O163 O 0.0118 0.48551 0.86318 0.0
C164 C 0.1179 0.54373 0.0609 0.0
C165 C 0.03009 0.39833 0.05336 0.0
C166 C 0.98767 0.53221 0.13486 0.0
C167 C -0.00183 0.60445 0.96629 0.0
C168 C 0.91365 0.45884 0.96225 0.0
C169 C 0.04501 0.47381 0.88581 0.0
O170 O 0.10606 0.51657 0.09283 0.0
O171 O 0.08924 0.54629 0.02776 0.0
C172 C 0.03441 0.04512 0.3229 0.0
C173 C 0.08139 0.06433 0.32469 0.0
C174 C 0.01233 0.02858 0.36336 0.0
C175 C 0.03608 0.03055 0.40771 0.0
H176 H 0.01445 0.04163 0.28957 0.0
H177 H 0.97623 0.01341 0.35938 0.0
S178 S 0.15883 0.08185 0.43323 0.0
N179 N 0.1506 0.08755 0.3757 0.0
N180 N 0.10883 0.05639 0.45196 0.0
C181 C 0.08271 0.05164 0.41085 0.0
C182 C 0.1054 0.06847 0.36933 0.0
C183 C 0.48689 0.00484 0.81618 0.0
C184 C 0.44271 0.98106 0.79992 0.0
C185 C 0.49788 0.01813 0.86542 0.0
C186 C 0.46501 0.00932 0.90063 0.0
H187 H 0.5142 0.0113 0.7909 0.0
H188 H 0.53307 0.03323 0.8762 0.0
S189 S 0.34344 0.95291 0.87883 0.0
N190 N 0.36495 0.95282 0.82428 0.0
N191 N 0.38598 0.97852 0.91686 0.0
C192 C 0.42008 0.98869 0.88538 0.0
C193 C 0.40882 0.97442 0.83502 0.0
C194 C 0.5816 0.44854 0.76411 0.0
C195 C 0.6224 0.47886 0.78133 0.0
C196 C 0.55982 0.45532 0.72154 0.0
C197 C 0.57834 0.49222 0.69474 0.0
H198 H 0.56357 0.42314 0.78625 0.0
H199 H 0.52554 0.43557 0.71295 0.0
S200 S 0.69213 0.5694 0.71503 0.0
N201 N 0.68646 0.53832 0.76152 0.0
N202 N 0.64493 0.55099 0.68126 0.0
C203 C 0.62268 0.51704 0.70691 0.0
C204 C 0.64489 0.51043 0.75054 0.0
C205 C 0.98722 0.62733 0.23032 0.0
C206 C 0.95833 0.60233 0.26215 0.0
C207 C 0.98911 0.60888 0.18169 0.0
C208 C 0.96295 0.5645 0.16411 0.0
H209 H 0.01238 0.65818 0.24419 0.0
H210 H 0.01654 0.62532 0.16037 0.0
S211 S 0.8695 0.49536 0.22714 0.0
N212 N 0.89287 0.53919 0.26851 0.0
N213 N 0.89802 0.50378 0.17722 0.0
C214 C 0.9277 0.54454 0.19268 0.0
C215 C 0.92515 0.56359 0.24209 0.0
C216 C 0.27728 0.06763 0.07708 0.0
C217 C 0.25972 0.09468 0.11546 0.0
C218 C 0.32424 0.06558 0.0758 0.0
C219 C 0.35482 0.09123 0.11248 0.0
H220 H 0.25468 0.0482 0.04793 0.0
H221 H 0.3369 0.04544 0.04509 0.0
S222 S 0.32431 0.16412 0.22241 0.0
N223 N 0.27526 0.14465 0.19222 0.0
N224 N 0.36333 0.14197 0.18961 0.0
C225 C 0.33702 0.11711 0.15168 0.0
C226 C 0.28945 0.11854 0.15322 0.0
C227 C 0.17361 0.91734 0.67179 0.0
C228 C 0.21292 0.91539 0.64425 0.0
C229 C 0.1367 0.93511 0.65434 0.0
C230 C 0.13771 0.95148 0.60878 0.0
H231 H 0.17229 0.90767 0.70823 0.0
H232 H 0.10857 0.93932 0.67812 0.0
S233 S 0.22896 0.94832 0.51959 0.0
N234 N 0.24784 0.92631 0.56634 0.0
N235 N 0.17844 0.96091 0.53461 0.0
C236 C 0.17489 0.9466 0.57937 0.0
C237 C 0.21249 0.92805 0.59681 0.0
C238 C 0.79164 0.44751 0.99713 0.0
C239 C 0.76909 0.4315 0.95192 0.0
C240 C 0.83901 0.45008 0.0028 0.0
C241 C 0.86505 0.43715 0.9632 0.0
H242 H 0.77318 0.46159 0.02727 0.0
H243 H 0.85579 0.46697 0.0367 0.0
S244 S 0.82198 0.38745 0.83928 0.0
N245 N 0.77611 0.39845 0.86841 0.0
N246 N 0.86466 0.40212 0.87953 0.0
C247 C 0.84223 0.41641 0.91947 0.0
C248 C 0.79424 0.41396 0.9136 0.0
C249 C 0.75535 0.6701 0.55501 0.0
C250 C 0.78089 0.63604 0.56652 0.0
C251 C 0.70817 0.65809 0.54573 0.0
C252 C 0.68458 0.61182 0.54845 0.0
H253 H 0.77205 0.70619 0.55179 0.0
H254 H 0.69011 0.68503 0.53542 0.0
S255 S 0.73479 0.5088 0.57564 0.0
N256 N 0.77868 0.55341 0.57922 0.0
N257 N 0.68954 0.53135 0.56264 0.0
C258 C 0.70913 0.57753 0.56105 0.0
C259 C 0.75744 0.58952 0.56991 0.0
C260 C 0.03814 0.27689 0.08763 0.0
C261 C 0.07559 0.26458 0.06192 0.0
C262 C 0.02198 0.31861 0.08167 0.0
C263 C 0.04299 0.35049 0.0503 0.0
H264 H 0.02116 0.25413 0.11287 0.0
H265 H 0.99347 0.32668 0.10318 0.0
S266 S 0.14266 0.33465 0.97456 0.0
N267 N 0.13293 0.28678 0.00295 0.0
N268 N 0.10336 0.3663 0.99273 0.0
C269 C 0.07987 0.33805 0.0233 0.0
C270 C 0.09603 0.29491 0.02896 0.0
C271 C 0.64989 0.20196 0.98666 0.0
C272 C 0.63561 0.22093 0.9461 0.0
C273 C 0.61806 0.17817 0.01624 0.0
C274 C 0.57104 0.17175 0.00586 0.0
H275 H 0.68567 0.20865 0.99785 0.0
H276 H 0.63005 0.16852 0.04981 0.0
S277 S 0.51548 0.20901 0.90146 0.0
N278 N 0.57077 0.22719 0.89462 0.0
N279 N 0.51129 0.1823 0.95092 0.0
C280 C 0.55624 0.1869 0.9636 0.0
C281 C 0.58853 0.2113 0.9333 0.0
C282 C 0.93537 0.74161 0.50161 0.0
C283 C 0.97882 0.73379 0.51416 0.0
C284 C 0.92586 0.7876 0.5051 0.0
C285 C 0.95967 0.82752 0.52087 0.0
H286 H 0.90971 0.71235 0.4852 0.0
H287 H 0.89254 0.79202 0.49239 0.0
S288 S 0.07755 0.82496 0.56337 0.0
N289 N 0.05486 0.76853 0.54691 0.0
N290 N 0.03701 0.8556 0.55406 0.0
C291 C 0.00225 0.81985 0.53725 0.0
C292 C 0.01196 0.77275 0.53337 0.0
C293 C 0.49561 0.76644 0.57696 0.0
C294 C 0.49089 0.79347 0.62147 0.0
C295 C 0.50384 0.7197 0.57521 0.0
C296 C 0.50782 0.69885 0.618 0.0
H297 H 0.49116 0.78082 0.5434 0.0
H298 H 0.50516 0.69921 0.54017 0.0
S299 S 0.50531 0.75862 0.74346 0.0
N300 N 0.49526 0.79853 0.70886 0.0
N301 N 0.51176 0.71145 0.70605 0.0
C302 C 0.50586 0.72696 0.66264 0.0
C303 C 0.49705 0.77409 0.66425 0.0
C304 C 0.97255 0.93231 0.8004 0.0
C305 C 0.92599 0.93008 0.81017 0.0
C306 C 0.99068 0.94911 0.75825 0.0
C307 C 0.96279 0.96325 0.72382 0.0
H308 H 0.99571 0.92353 0.82667 0.0
H309 H 0.02721 0.95247 0.75323 0.0
S310 S 0.83769 0.95835 0.72893 0.0
N311 N 0.85143 0.93936 0.77979 0.0
N312 N 0.88589 0.97005 0.69979 0.0
C313 C 0.9157 0.95809 0.73127 0.0
C314 C 0.89721 0.94177 0.77474 0.0
C315 C 0.62131 0.11146 0.28874 0.0
C316 C 0.6021 0.07656 0.31758 0.0
C317 C 0.60209 0.11398 0.2434 0.0
C318 C 0.56344 0.08107 0.22457 0.0
H319 H 0.651 0.13772 0.30164 0.0
H320 H 0.61711 0.14259 0.22328 0.0
S321 S 0.50262 0.97993 0.28329 0.0
N322 N 0.5439 0.00629 0.3226 0.0
N323 N 0.50843 0.01046 0.23643 0.0
C324 C 0.54561 0.04404 0.2514 0.0
C325 C 0.56487 0.04183 0.29811 0.0
C326 C 0.46122 0.65757 0.36282 0.0
C327 C 0.44163 0.62677 0.32219 0.0
C328 C 0.47582 0.63961 0.40355 0.0
C329 C 0.472 0.59046 0.40411 0.0
H330 H 0.46961 0.69551 0.36111 0.0
H331 H 0.49555 0.6642 0.43175 0.0
S332 S 0.41594 0.4953 0.31054 0.0
N333 N 0.41238 0.54518 0.28821 0.0
N334 N 0.44147 0.51143 0.36433 0.0
C335 C 0.44737 0.55951 0.36642 0.0
C336 C 0.4317 0.57776 0.32533 0.0
C337 C 0.13611 0.49683 0.79938 0.0
C338 C 0.12287 0.45816 0.76332 0.0
C339 C 0.1163 0.49772 0.84497 0.0
C340 C 0.08182 0.46044 0.85546 0.0
H341 H 0.15936 0.52817 0.79107 0.0
H342 H 0.12373 0.53035 0.86967 0.0
S343 S 0.03942 0.3483 0.77638 0.0
N344 N 0.07719 0.37905 0.74355 0.0
N345 N 0.03946 0.38147 0.82902 0.0
C346 C 0.07189 0.41951 0.82177 0.0
C347 C 0.0924 0.41825 0.77551 0.0
C348 C 0.70315 0.95561 0.01689 0.0
C349 C 0.73532 0.9972 0.01401 0.0
C350 C 0.65831 0.95757 0.02986 0.0
C351 C 0.64327 0.00121 0.04073 0.0
H352 H 0.7121 0.92088 0.00764 0.0
H353 H 0.63497 0.92407 0.03004 0.0
S354 S 0.71535 0.12072 0.04375 0.0
N355 N 0.75023 0.08368 0.0264 0.0
N356 N 0.66518 0.08725 0.05122 0.0
C357 C 0.67533 0.04329 0.03958 0.0
C358 C 0.72148 0.0413 0.02617 0.0
C359 C 0.77801 0.05021 0.56217 0.0
C360 C 0.77124 0.07006 0.51951 0.0
C361 C 0.81951 0.03626 0.57214 0.0
C362 C 0.85555 0.042 0.5399 0.0
H363 H 0.75013 0.04283 0.58663 0.0
H364 H 0.82215 0.01754 0.60326 0.0
S365 S 0.85659 0.09489 0.42501 0.0
N366 N 0.80531 0.09774 0.44648 0.0
N367 N 0.88327 0.07104 0.46528 0.0
C368 C 0.85054 0.06493 0.499 0.0
C369 C 0.80832 0.07925 0.4888 0.0
C370 C 0.20357 0.65729 0.05705 0.0
C371 C 0.23505 0.65466 0.09385 0.0
C372 C 0.16723 0.61948 0.04388 0.0
C373 C 0.16167 0.57788 0.06691 0.0
H374 H 0.20544 0.6897 0.04045 0.0
H375 H 0.14193 0.62415 0.01758 0.0
S376 S 0.24205 0.55029 0.15738 0.0
N377 N 0.26323 0.60522 0.14751 0.0
N378 N 0.19554 0.53367 0.12234 0.0
C379 C 0.19572 0.57341 0.10046 0.0
C380 C 0.23228 0.61203 0.11412 0.0
C381 C 0.29848 0.521 0.54923 0.0
C382 C 0.27121 0.48267 0.56837 0.0
C383 C 0.34607 0.52487 0.54717 0.0
C384 C 0.36799 0.49088 0.56483 0.0
H385 H 0.28325 0.54958 0.53805 0.0
H386 H 0.36606 0.55671 0.53565 0.0
S387 S 0.31247 0.38052 0.61208 0.0
N388 N 0.26961 0.40696 0.59968 0.0
N389 N 0.35937 0.41543 0.59724 0.0
C390 C 0.34112 0.45067 0.58062 0.0
C391 C 0.29257 0.44619 0.58195 0.0
C392 C 0.9515 0.71035 0.93244 0.0
C393 C 0.95378 0.74083 0.97588 0.0
C394 C 0.96689 0.66716 0.93016 0.0
C395 C 0.98427 0.65179 0.97152 0.0
H396 H 0.93816 0.72023 0.89958 0.0
H397 H 0.96424 0.64521 0.8955 0.0
S398 S 0.99637 0.71832 0.09482 0.0
N399 N 0.97483 0.75333 0.06155 0.0
N400 N 0.00229 0.67064 0.05775 0.0
C401 C 0.98637 0.68175 0.01558 0.0
C402 C 0.97163 0.72669 0.0176 0.0
C403 C 0.43519 0.85339 0.1751 0.0
C404 C 0.42299 0.8065 0.15257 0.0
C405 C 0.43865 0.89183 0.14783 0.0
C406 C 0.43042 0.88406 0.09735 0.0
H407 H 0.44495 0.86019 0.21319 0.0
H408 H 0.45194 0.92722 0.16562 0.0
S409 S 0.39131 0.76746 0.02356 0.0
N410 N 0.39827 0.75427 0.07887 0.0
N411 N 0.40362 0.82602 0.02761 0.0
C412 C 0.41391 0.83732 0.07571 0.0
C413 C 0.41078 0.79854 0.10333 0.0
C414 C 0.015 0.23458 0.61635 0.0
C415 C 0.05664 0.25626 0.59855 0.0
C416 C 0.00217 0.18497 0.60977 0.0
C417 C 0.03091 0.15667 0.58556 0.0
H418 H 0.99594 0.25503 0.64121 0.0
H419 H 0.97422 0.16883 0.63061 0.0
S420 S 0.13361 0.19817 0.51746 0.0
N421 N 0.11927 0.24733 0.54479 0.0
N422 N 0.09436 0.154 0.5317 0.0
C423 C 0.06672 0.17865 0.55902 0.0
C424 C 0.08029 0.22887 0.5663 0.0
C425 C 0.57822 0.33066 0.49039 0.0
C426 C 0.58176 0.31349 0.44121 0.0
C427 C 0.56783 0.37591 0.5042 0.0
C428 C 0.56086 0.40529 0.46922 0.0
H429 H 0.58509 0.30978 0.51852 0.0
H430 H 0.56747 0.38881 0.54234 0.0
S431 S 0.55899 0.37458 0.33598 0.0
N432 N 0.57214 0.32769 0.35762 0.0
N433 N 0.55298 0.41257 0.38371 0.0
C434 C 0.56165 0.38756 0.42007 0.0
C435 C 0.57204 0.34168 0.406 0.0
loop_
_geom_bond_atom_site_label_1
_geom_bond_atom_site_label_2
_geom_bond_distance
_geom_bond_site_symmetry_2
_ccdc_geom_bond_type
O0 Cd1 2.300 . S
O0 C7 1.275 . S
Cd1 O0 2.300 . S
Cd1 O9 2.381 . S
Cd1 O10 2.378 . S
O2 Cd3 2.385 . S
O2 C7 1.255 . S
Cd3 O2 2.385 . S
Cd3 O4 2.317 . S
O4 Cd3 2.317 . S
O4 C5 1.232 . S
C5 O4 1.232 . S
C5 O6 1.218 . S
O6 C5 1.218 . S
C7 O0 1.275 . S
C7 O2 1.255 . S
C8 O9 1.258 . S
C8 O10 1.256 . S
O9 Cd1 2.381 . S
O9 C8 1.258 . S
O10 Cd1 2.378 . S
O10 C8 1.256 . S
O11 Cd12 2.300 . S
O11 C18 1.275 . S
Cd12 O11 2.300 . S
Cd12 O20 2.381 . S
Cd12 O21 2.378 . S
O13 Cd14 2.385 . S
O13 C18 1.255 . S
Cd14 O13 2.385 . S
Cd14 O15 2.317 . S
O15 Cd14 2.317 . S
O15 C16 1.232 . S
C16 O15 1.232 . S
C16 O17 1.218 . S
O17 C16 1.218 . S
C18 O11 1.275 . S
C18 O13 1.255 . S
C19 O20 1.258 . S
C19 O21 1.256 . S
O20 Cd12 2.381 . S
O20 C19 1.258 . S
O21 Cd12 2.378 . S
O21 C19 1.256 . S
O22 Cd23 2.300 . S
O22 C29 1.275 . S
Cd23 O22 2.300 . S
Cd23 O31 2.381 . S
Cd23 O32 2.378 . S
O24 Cd25 2.385 . S
O24 C29 1.255 . S
Cd25 O24 2.385 . S
Cd25 O26 2.317 . S
O26 Cd25 2.317 . S
O26 C27 1.232 . S
C27 O26 1.232 . S
C27 O28 1.218 . S
O28 C27 1.218 . S
C29 O22 1.275 . S
C29 O24 1.255 . S
C30 O31 1.258 . S
C30 O32 1.256 . S
O31 Cd23 2.381 . S
O31 C30 1.258 . S
O32 Cd23 2.378 . S
O32 C30 1.256 . S
O33 Cd34 2.300 . S
O33 C40 1.275 . S
Cd34 O33 2.300 . S
Cd34 O42 2.381 . S
Cd34 O43 2.378 . S
O35 Cd36 2.385 . S
O35 C40 1.255 . S
Cd36 O35 2.385 . S
Cd36 O37 2.317 . S
O37 Cd36 2.317 . S
O37 C38 1.232 . S
C38 O37 1.232 . S
C38 O39 1.218 . S
O39 C38 1.218 . S
C40 O33 1.275 . S
C40 O35 1.255 . S
C41 O42 1.258 . S
C41 O43 1.256 . S
O42 Cd34 2.381 . S
O42 C41 1.258 . S
O43 Cd34 2.378 . S
O43 C41 1.256 . S
O44 Cd45 2.300 . S
O44 C51 1.275 . S
Cd45 O44 2.300 . S
Cd45 O53 2.381 . S
Cd45 O54 2.378 . S
O46 Cd47 2.385 1_565 S
O46 C51 1.255 . S
Cd47 O46 2.385 1_545 S
Cd47 O48 2.317 1_545 S
O48 Cd47 2.317 1_565 S
O48 C49 1.232 . S
C49 O48 1.232 . S
C49 O50 1.218 1_565 S
O50 C49 1.218 1_545 S
C51 O44 1.275 . S
C51 O46 1.255 . S
C52 O53 1.258 . S
C52 O54 1.256 . S
O53 Cd45 2.381 . S
O53 C52 1.258 . S
O54 Cd45 2.378 . S
O54 C52 1.256 . S
O55 Cd56 2.300 . S
O55 C62 1.275 . S
Cd56 O55 2.300 . S
Cd56 O64 2.381 . S
Cd56 O65 2.378 . S
O57 Cd58 2.385 . S
O57 C62 1.255 . S
Cd58 O57 2.385 . S
Cd58 O59 2.317 . S
O59 Cd58 2.317 . S
O59 C60 1.232 . S
C60 O59 1.232 . S
C60 O61 1.218 . S
O61 C60 1.218 . S
C62 O55 1.275 . S
C62 O57 1.255 . S
C63 O64 1.258 . S
C63 O65 1.256 . S
O64 Cd56 2.381 . S
O64 C63 1.258 . S
O65 Cd56 2.378 . S
O65 C63 1.256 . S
O66 Cd67 2.300 . S
O66 C73 1.275 . S
Cd67 O66 2.300 . S
Cd67 O75 2.381 . S
Cd67 O76 2.378 . S
O68 Cd69 2.385 . S
O68 C73 1.255 . S
Cd69 O68 2.385 . S
Cd69 O70 2.317 . S
O70 Cd69 2.317 . S
O70 C71 1.232 . S
C71 O70 1.232 . S
C71 O72 1.218 . S
O72 C71 1.218 . S
C73 O66 1.275 . S
C73 O68 1.255 . S
C74 O75 1.258 . S
C74 O76 1.256 . S
O75 Cd67 2.381 . S
O75 C74 1.258 . S
O76 Cd67 2.378 . S
O76 C74 1.256 . S
O77 Cd78 2.300 . S
O77 C84 1.275 . S
Cd78 O77 2.300 . S
Cd78 O86 2.381 . S
Cd78 O87 2.378 . S
O79 Cd80 2.385 . S
O79 C84 1.255 . S
Cd80 O79 2.385 . S
Cd80 O81 2.317 . S
O81 Cd80 2.317 . S
O81 C82 1.232 . S
C82 O81 1.232 . S
C82 O83 1.218 . S
O83 C82 1.218 . S
C84 O77 1.275 . S
C84 O79 1.255 . S
C85 O86 1.258 . S
C85 O87 1.256 . S
O86 Cd78 2.381 . S
O86 C85 1.258 . S
O87 Cd78 2.378 . S
O87 C85 1.256 . S
O88 Mg89 1.990 . S
O88 C102 1.253 1_445 S
Mg89 O88 1.990 . S
Mg89 O92 2.180 . S
Mg89 O93 2.117 . S
Mg89 O107 2.030 . S
O90 Mg91 2.072 1_665 S
O90 C102 1.260 . S
Mg91 O90 2.072 1_445 S
Mg91 O92 2.099 . S
Mg91 O94 2.079 . S
Mg91 O95 2.072 1_455 S
Mg91 O97 2.099 1_445 S
Mg91 O108 2.079 1_545 S
O92 Mg89 2.180 . S
O92 Mg91 2.099 . S
O92 C103 1.279 . S
O93 Mg89 2.117 . S
O93 C103 1.250 . S
O94 Mg91 2.079 . S
O94 C104 1.264 . S
O95 Mg91 2.072 1_655 S
O95 C105 1.260 . S
Mg96 O97 2.180 . S
Mg96 O98 2.030 1_565 S
Mg96 O99 1.990 . S
Mg96 O100 2.117 . S
O97 Mg91 2.099 1_665 S
O97 Mg96 2.180 . S
O97 C106 1.279 . S
O98 Mg96 2.030 1_545 S
O98 C104 1.248 1_655 S
O99 Mg96 1.990 . S
O99 C105 1.253 1_565 S
O100 Mg96 2.117 . S
O100 C106 1.250 . S
C101 O107 1.248 1_565 S
C101 O108 1.264 . S
C102 O88 1.253 1_665 S
C102 O90 1.260 . S
C103 O92 1.279 . S
C103 O93 1.250 . S
C104 O94 1.264 . S
C104 O98 1.248 1_455 S
C105 O95 1.260 . S
C105 O99 1.253 1_545 S
C106 O97 1.279 . S
C106 O100 1.250 . S
O107 Mg89 2.030 . S
O107 C101 1.248 1_545 S
O108 Mg91 2.079 1_565 S
O108 C101 1.264 . S
O109 Mg110 1.990 . S
O109 C123 1.253 . S
Mg110 O109 1.990 . S
Mg110 O113 2.180 . S
Mg110 O114 2.117 . S
Mg110 O128 2.030 . S
O111 Mg112 2.072 . S
O111 C123 1.260 . S
Mg112 O111 2.072 . S
Mg112 O113 2.099 . S
Mg112 O115 2.079 . S
Mg112 O116 2.072 1_554 S
Mg112 O118 2.099 1_545 S
Mg112 O129 2.079 . S
O113 Mg110 2.180 . S
O113 Mg112 2.099 . S
O113 C124 1.279 . S
O114 Mg110 2.117 . S
O114 C124 1.250 . S
O115 Mg112 2.079 . S
O115 C125 1.264 1_545 S
O116 Mg112 2.072 1_556 S
O116 C126 1.260 1_545 S
Mg117 O118 2.180 . S
Mg117 O119 2.030 1_554 S
Mg117 O120 1.990 1_554 S
Mg117 O121 2.117 . S
O118 Mg112 2.099 1_565 S
O118 Mg117 2.180 . S
O118 C127 1.279 . S
O119 Mg117 2.030 1_556 S
O119 C125 1.248 1_556 S
O120 Mg117 1.990 1_556 S
O120 C126 1.253 . S
O121 Mg117 2.117 . S
O121 C127 1.250 . S
C122 O128 1.248 . S
C122 O129 1.264 . S
C123 O109 1.253 . S
C123 O111 1.260 . S
C124 O113 1.279 . S
C124 O114 1.250 . S
C125 O115 1.264 1_565 S
C125 O119 1.248 1_554 S
C126 O116 1.260 1_565 S
C126 O120 1.253 . S
C127 O118 1.279 . S
C127 O121 1.250 . S
O128 Mg110 2.030 . S
O128 C122 1.248 . S
O129 Mg112 2.079 . S
O129 C122 1.264 . S
O130 Mg131 1.990 . S
O130 C144 1.253 . S
Mg131 O130 1.990 . S
Mg131 O134 2.180 . S
Mg131 O135 2.117 . S
Mg131 O149 2.030 . S
O132 Mg133 2.072 . S
O132 C144 1.260 . S
Mg133 O132 2.072 . S
Mg133 O134 2.099 . S
Mg133 O136 2.079 . S
Mg133 O137 2.072 . S
Mg133 O139 2.099 . S
Mg133 O150 2.079 . S
O134 Mg131 2.180 . S
O134 Mg133 2.099 . S
O134 C145 1.279 . S
O135 Mg131 2.117 . S
O135 C145 1.250 . S
O136 Mg133 2.079 . S
O136 C146 1.264 . S
O137 Mg133 2.072 . S
O137 C147 1.260 . S
Mg138 O139 2.180 . S
Mg138 O140 2.030 . S
Mg138 O141 1.990 . S
Mg138 O142 2.117 . S
O139 Mg133 2.099 . S
O139 Mg138 2.180 . S
O139 C148 1.279 . S
O140 Mg138 2.030 . S
O140 C146 1.248 . S
O141 Mg138 1.990 . S
O141 C147 1.253 . S
O142 Mg138 2.117 . S
O142 C148 1.250 . S
C143 O149 1.248 . S
C143 O150 1.264 . S
C144 O130 1.253 . S
C144 O132 1.260 . S
C145 O134 1.279 . S
C145 O135 1.250 . S
C146 O136 1.264 . S
C146 O140 1.248 . S
C147 O137 1.260 . S
C147 O141 1.253 . S
C148 O139 1.279 . S
C148 O142 1.250 . S
O149 Mg131 2.030 . S
O149 C143 1.248 . S
O150 Mg133 2.079 . S
O150 C143 1.264 . S
O151 Mg152 1.990 . S
O151 C165 1.253 . S
Mg152 O151 1.990 . S
Mg152 O155 2.180 . S
Mg152 O156 2.117 . S
Mg152 O170 2.030 . S
O153 Mg154 2.072 . S
O153 C165 1.260 . S
Mg154 O153 2.072 . S
Mg154 O155 2.099 . S
Mg154 O157 2.079 . S
Mg154 O158 2.072 1_455 S
Mg154 O160 2.099 1_554 S
Mg154 O171 2.079 . S
O155 Mg152 2.180 . S
O155 Mg154 2.099 . S
O155 C166 1.279 1_455 S
O156 Mg152 2.117 . S
O156 C166 1.250 1_455 S
O157 Mg154 2.079 . S
O157 C167 1.264 1_454 S
O158 Mg154 2.072 1_655 S
O158 C168 1.260 1_554 S
Mg159 O160 2.180 1_655 S
Mg159 O161 2.030 . S
Mg159 O162 1.990 . S
Mg159 O163 2.117 1_655 S
O160 Mg154 2.099 1_556 S
O160 Mg159 2.180 1_455 S
O160 C169 1.279 . S
O161 Mg159 2.030 . S
O161 C167 1.248 . S
O162 Mg159 1.990 . S
O162 C168 1.253 . S
O163 Mg159 2.117 1_455 S
O163 C169 1.250 . S
C164 O170 1.248 . S
C164 O171 1.264 . S
C165 O151 1.253 . S
C165 O153 1.260 . S
C166 O155 1.279 1_655 S
C166 O156 1.250 1_655 S
C167 O157 1.264 1_656 S
C167 O161 1.248 . S
C168 O158 1.260 1_556 S
C168 O162 1.253 . S
C169 O160 1.279 . S
C169 O163 1.250 . S
O170 Mg152 2.030 . S
O170 C164 1.248 . S
O171 Mg154 2.079 . S
O171 C164 1.264 . S
C172 C173 1.369 . S
C172 C174 1.419 . S
C172 H176 0.930 . S
C173 C172 1.369 . S
C173 C182 1.429 . S
C174 C172 1.419 . S
C174 C175 1.363 . S
C174 H177 0.929 . S
C175 C174 1.363 . S
C175 C181 1.428 . S
H176 C172 0.930 . S
H177 C174 0.929 . S
S178 N179 1.613 . S
S178 N180 1.610 . S
N179 S178 1.613 . S
N179 C182 1.350 . S
N180 S178 1.610 . S
N180 C181 1.351 . S
C181 C175 1.428 . S
C181 N180 1.351 . S
C181 C182 1.434 . S
C182 C173 1.429 . S
C182 N179 1.350 . S
C182 C181 1.434 . S
C183 C184 1.369 . S
C183 C185 1.419 1_565 S
C183 H187 0.930 1_565 S
C184 C183 1.369 . S
C184 C193 1.429 . S
C185 C183 1.419 1_545 S
C185 C186 1.363 1_545 S
C185 H188 0.929 . S
C186 C185 1.363 1_565 S
C186 C192 1.428 . S
H187 C183 0.930 1_545 S
H188 C185 0.929 . S
S189 N190 1.613 . S
S189 N191 1.610 . S
N190 S189 1.613 . S
N190 C193 1.350 . S
N191 S189 1.610 . S
N191 C192 1.351 . S
C192 C186 1.428 . S
C192 N191 1.351 . S
C192 C193 1.434 . S
C193 C184 1.429 . S
C193 N190 1.350 . S
C193 C192 1.434 . S
C194 C195 1.369 . S
C194 C196 1.419 . S
C194 H198 0.930 . S
C195 C194 1.369 . S
C195 C204 1.429 . S
C196 C194 1.419 . S
C196 C197 1.363 . S
C196 H199 0.929 . S
C197 C196 1.363 . S
C197 C203 1.428 . S
H198 C194 0.930 . S
H199 C196 0.929 . S
S200 N201 1.613 . S
S200 N202 1.610 . S
N201 S200 1.613 . S
N201 C204 1.350 . S
N202 S200 1.610 . S
N202 C203 1.351 . S
C203 C197 1.428 . S
C203 N202 1.351 . S
C203 C204 1.434 . S
C204 C195 1.429 . S
C204 N201 1.350 . S
C204 C203 1.434 . S
C205 C206 1.369 1_455 S
C205 C207 1.419 . S
C205 H209 0.930 . S
C206 C205 1.369 1_655 S
C206 C215 1.429 . S
C207 C205 1.419 . S
C207 C208 1.363 1_455 S
C207 H210 0.929 . S
C208 C207 1.363 1_655 S
C208 C214 1.428 . S
H209 C205 0.930 . S
H210 C207 0.929 . S
S211 N212 1.613 . S
S211 N213 1.610 . S
N212 S211 1.613 . S
N212 C215 1.350 . S
N213 S211 1.610 . S
N213 C214 1.351 . S
C214 C208 1.428 . S
C214 N213 1.351 . S
C214 C215 1.434 . S
C215 C206 1.429 . S
C215 N212 1.350 . S
C215 C214 1.434 . S
C216 C217 1.369 . S
C216 C218 1.419 . S
C216 H220 0.930 . S
C217 C216 1.369 . S
C217 C226 1.429 . S
C218 C216 1.419 . S
C218 C219 1.363 . S
C218 H221 0.929 . S
C219 C218 1.363 . S
C219 C225 1.428 . S
H220 C216 0.930 . S
H221 C218 0.929 . S
S222 N223 1.613 . S
S222 N224 1.610 . S
N223 S222 1.613 . S
N223 C226 1.350 . S
N224 S222 1.610 . S
N224 C225 1.351 . S
C225 C219 1.428 . S
C225 N224 1.351 . S
C225 C226 1.434 . S
C226 C217 1.429 . S
C226 N223 1.350 . S
C226 C225 1.434 . S
C227 C228 1.369 . S
C227 C229 1.419 . S
C227 H231 0.930 . S
C228 C227 1.369 . S
C228 C237 1.429 . S
C229 C227 1.419 . S
C229 C230 1.363 . S
C229 H232 0.929 . S
C230 C229 1.363 . S
C230 C236 1.428 . S
H231 C227 0.930 . S
H232 C229 0.929 . S
S233 N234 1.613 . S
S233 N235 1.610 . S
N234 S233 1.613 . S
N234 C237 1.350 . S
N235 S233 1.610 . S
N235 C236 1.351 . S
C236 C230 1.428 . S
C236 N235 1.351 . S
C236 C237 1.434 . S
C237 C228 1.429 . S
C237 N234 1.350 . S
C237 C236 1.434 . S
C238 C239 1.369 1_554 S
C238 C240 1.419 . S
C238 H242 0.930 . S
C239 C238 1.369 1_556 S
C239 C248 1.429 . S
C240 C238 1.419 . S
C240 C241 1.363 1_554 S
C240 H243 0.929 . S
C241 C240 1.363 1_556 S
C241 C247 1.428 . S
H242 C238 0.930 . S
H243 C240 0.929 . S
S244 N245 1.613 . S
S244 N246 1.610 . S
N245 S244 1.613 . S
N245 C248 1.350 . S
N246 S244 1.610 . S
N246 C247 1.351 . S
C247 C241 1.428 . S
C247 N246 1.351 . S
C247 C248 1.434 . S
C248 C239 1.429 . S
C248 N245 1.350 . S
C248 C247 1.434 . S
C249 C250 1.369 . S
C249 C251 1.419 . S
C249 H253 0.930 . S
C250 C249 1.369 . S
C250 C259 1.429 . S
C251 C249 1.419 . S
C251 C252 1.363 . S
C251 H254 0.929 . S
C252 C251 1.363 . S
C252 C258 1.428 . S
H253 C249 0.930 . S
H254 C251 0.929 . S
S255 N256 1.613 . S
S255 N257 1.610 . S
N256 S255 1.613 . S
N256 C259 1.350 . S
N257 S255 1.610 . S
N257 C258 1.351 . S
C258 C252 1.428 . S
C258 N257 1.351 . S
C258 C259 1.434 . S
C259 C250 1.429 . S
C259 N256 1.350 . S
C259 C258 1.434 . S
C260 C261 1.369 . S
C260 C262 1.419 . S
C260 H264 0.930 . S
C261 C260 1.369 . S
C261 C270 1.429 . S
C262 C260 1.419 . S
C262 C263 1.363 . S
C262 H265 0.929 . S
C263 C262 1.363 . S
C263 C269 1.428 . S
H264 C260 0.930 . S
H265 C262 0.929 . S
S266 N267 1.613 1_556 S
S266 N268 1.610 . S
N267 S266 1.613 1_554 S
N267 C270 1.350 . S
N268 S266 1.610 . S
N268 C269 1.351 1_556 S
C269 C263 1.428 . S
C269 N268 1.351 1_554 S
C269 C270 1.434 . S
C270 C261 1.429 . S
C270 N267 1.350 . S
C270 C269 1.434 . S
C271 C272 1.369 1_554 S
C271 C273 1.419 . S
C271 H275 0.930 . S
C272 C271 1.369 1_556 S
C272 C281 1.429 . S
C273 C271 1.419 . S
C273 C274 1.363 . S
C273 H276 0.929 . S
C274 C273 1.363 . S
C274 C280 1.428 1_554 S
H275 C271 0.930 . S
H276 C273 0.929 . S
S277 N278 1.613 . S
S277 N279 1.610 . S
N278 S277 1.613 . S
N278 C281 1.350 . S
N279 S277 1.610 . S
N279 C280 1.351 . S
C280 C274 1.428 1_556 S
C280 N279 1.351 . S
C280 C281 1.434 . S
C281 C272 1.429 . S
C281 N278 1.350 . S
C281 C280 1.434 . S
C282 C283 1.369 . S
C282 C284 1.419 . S
C282 H286 0.930 . S
C283 C282 1.369 . S
C283 C292 1.429 . S
C284 C282 1.419 . S
C284 C285 1.363 . S
C284 H287 0.929 . S
C285 C284 1.363 . S
C285 C291 1.428 . S
H286 C282 0.930 . S
H287 C284 0.929 . S
S288 N289 1.613 . S
S288 N290 1.610 . S
N289 S288 1.613 . S
N289 C292 1.350 1_455 S
N290 S288 1.610 . S
N290 C291 1.351 1_455 S
C291 C285 1.428 . S
C291 N290 1.351 1_655 S
C291 C292 1.434 . S
C292 C283 1.429 . S
C292 N289 1.350 1_655 S
C292 C291 1.434 . S
C293 C294 1.369 . S
C293 C295 1.419 . S
C293 H297 0.930 . S
C294 C293 1.369 . S
C294 C303 1.429 . S
C295 C293 1.419 . S
C295 C296 1.363 . S
C295 H298 0.929 . S
C296 C295 1.363 . S
C296 C302 1.428 . S
H297 C293 0.930 . S
H298 C295 0.929 . S
S299 N300 1.613 . S
S299 N301 1.610 . S
N300 S299 1.613 . S
N300 C303 1.350 . S
N301 S299 1.610 . S
N301 C302 1.351 . S
C302 C296 1.428 . S
C302 N301 1.351 . S
C302 C303 1.434 . S
C303 C294 1.429 . S
C303 N300 1.350 . S
C303 C302 1.434 . S
C304 C305 1.369 . S
C304 C306 1.419 . S
C304 H308 0.930 . S
C305 C304 1.369 . S
C305 C314 1.429 . S
C306 C304 1.419 . S
C306 C307 1.363 . S
C306 H309 0.929 1_655 S
C307 C306 1.363 . S
C307 C313 1.428 . S
H308 C304 0.930 . S
H309 C306 0.929 1_455 S
S310 N311 1.613 . S
S310 N312 1.610 . S
N311 S310 1.613 . S
N311 C314 1.350 . S
N312 S310 1.610 . S
N312 C313 1.351 . S
C313 C307 1.428 . S
C313 N312 1.351 . S
C313 C314 1.434 . S
C314 C305 1.429 . S
C314 N311 1.350 . S
C314 C313 1.434 . S
C315 C316 1.369 . S
C315 C317 1.419 . S
C315 H319 0.930 . S
C316 C315 1.369 . S
C316 C325 1.429 . S
C317 C315 1.419 . S
C317 C318 1.363 . S
C317 H320 0.929 . S
C318 C317 1.363 . S
C318 C324 1.428 . S
H319 C315 0.930 . S
H320 C317 0.929 . S
S321 N322 1.613 . S
S321 N323 1.610 . S
N322 S321 1.613 . S
N322 C325 1.350 . S
N323 S321 1.610 . S
N323 C324 1.351 . S
C324 C318 1.428 . S
C324 N323 1.351 . S
C324 C325 1.434 . S
C325 C316 1.429 . S
C325 N322 1.350 . S
C325 C324 1.434 . S
C326 C327 1.369 . S
C326 C328 1.419 . S
C326 H330 0.930 . S
C327 C326 1.369 . S
C327 C336 1.429 . S
C328 C326 1.419 . S
C328 C329 1.363 . S
C328 H331 0.929 . S
C329 C328 1.363 . S
C329 C335 1.428 . S
H330 C326 0.930 . S
H331 C328 0.929 . S
S332 N333 1.613 . S
S332 N334 1.610 . S
N333 S332 1.613 . S
N333 C336 1.350 . S
N334 S332 1.610 . S
N334 C335 1.351 . S
C335 C329 1.428 . S
C335 N334 1.351 . S
C335 C336 1.434 . S
C336 C327 1.429 . S
C336 N333 1.350 . S
C336 C335 1.434 . S
C337 C338 1.369 . S
C337 C339 1.419 . S
C337 H341 0.930 . S
C338 C337 1.369 . S
C338 C347 1.429 . S
C339 C337 1.419 . S
C339 C340 1.363 . S
C339 H342 0.929 . S
C340 C339 1.363 . S
C340 C346 1.428 . S
H341 C337 0.930 . S
H342 C339 0.929 . S
S343 N344 1.613 . S
S343 N345 1.610 . S
N344 S343 1.613 . S
N344 C347 1.350 . S
N345 S343 1.610 . S
N345 C346 1.351 . S
C346 C340 1.428 . S
C346 N345 1.351 . S
C346 C347 1.434 . S
C347 C338 1.429 . S
C347 N344 1.350 . S
C347 C346 1.434 . S
C348 C349 1.369 . S
C348 C350 1.419 . S
C348 H352 0.930 . S
C349 C348 1.369 . S
C349 C358 1.429 1_565 S
C350 C348 1.419 . S
C350 C351 1.359 1_556 S
C350 H353 0.929 . S
C351 C350 1.359 1_554 S
C351 C357 1.430 1_565 S
H352 C348 0.930 . S
H353 C350 0.929 . S
S354 N355 1.613 . S
S354 N356 1.610 . S
N355 S354 1.613 . S
N355 C358 1.350 1_554 S
N356 S354 1.610 . S
N356 C357 1.351 . S
C357 C351 1.430 1_545 S
C357 N356 1.351 . S
C357 C358 1.434 1_554 S
C358 C349 1.429 1_545 S
C358 N355 1.350 1_556 S
C358 C357 1.434 1_556 S
C359 C360 1.369 . S
C359 C361 1.419 . S
C359 H363 0.930 . S
C360 C359 1.369 . S
C360 C369 1.429 . S
C361 C359 1.419 . S
C361 C362 1.363 . S
C361 H364 0.929 . S
C362 C361 1.363 . S
C362 C368 1.428 . S
H363 C359 0.930 . S
H364 C361 0.929 . S
S365 N366 1.613 . S
S365 N367 1.610 . S
N366 S365 1.613 . S
N366 C369 1.350 . S
N367 S365 1.610 . S
N367 C368 1.351 . S
C368 C362 1.428 . S
C368 N367 1.351 . S
C368 C369 1.434 . S
C369 C360 1.429 . S
C369 N366 1.350 . S
C369 C368 1.434 . S
C370 C371 1.369 . S
C370 C372 1.419 . S
C370 H374 0.930 . S
C371 C370 1.369 . S
C371 C380 1.429 . S
C372 C370 1.419 . S
C372 C373 1.363 . S
C372 H375 0.929 . S
C373 C372 1.363 . S
C373 C379 1.428 . S
H374 C370 0.930 . S
H375 C372 0.929 . S
S376 N377 1.613 . S
S376 N378 1.610 . S
N377 S376 1.613 . S
N377 C380 1.350 . S
N378 S376 1.610 . S
N378 C379 1.351 . S
C379 C373 1.428 . S
C379 N378 1.351 . S
C379 C380 1.434 . S
C380 C371 1.429 . S
C380 N377 1.350 . S
C380 C379 1.434 . S
C381 C382 1.369 . S
C381 C383 1.419 . S
C381 H385 0.930 . S
C382 C381 1.369 . S
C382 C391 1.429 . S
C383 C381 1.419 . S
C383 C384 1.363 . S
C383 H386 0.929 . S
C384 C383 1.363 . S
C384 C390 1.428 . S
H385 C381 0.930 . S
H386 C383 0.929 . S
S387 N388 1.613 . S
S387 N389 1.610 . S
N388 S387 1.613 . S
N388 C391 1.350 . S
N389 S387 1.610 . S
N389 C390 1.351 . S
C390 C384 1.428 . S
C390 N389 1.351 . S
C390 C391 1.434 . S
C391 C382 1.429 . S
C391 N388 1.350 . S
C391 C390 1.434 . S
C392 C393 1.369 . S
C392 C394 1.419 . S
C392 H396 0.930 . S
C393 C392 1.369 . S
C393 C402 1.429 1_556 S
C394 C392 1.419 . S
C394 C395 1.363 . S
C394 H397 0.929 . S
C395 C394 1.363 . S
C395 C401 1.428 1_556 S
H396 C392 0.930 . S
H397 C394 0.929 . S
S398 N399 1.613 . S
S398 N400 1.610 . S
N399 S398 1.613 . S
N399 C402 1.350 . S
N400 S398 1.610 . S
N400 C401 1.351 . S
C401 C395 1.428 1_554 S
C401 N400 1.351 . S
C401 C402 1.434 . S
C402 C393 1.429 1_554 S
C402 N399 1.350 . S
C402 C401 1.434 . S
C403 C404 1.369 . S
C403 C405 1.419 . S
C403 H407 0.930 . S
C404 C403 1.369 . S
C404 C413 1.429 . S
C405 C403 1.419 . S
C405 C406 1.363 . S
C405 H408 0.929 . S
C406 C405 1.363 . S
C406 C412 1.428 . S
H407 C403 0.930 . S
H408 C405 0.929 . S
S409 N410 1.613 1_556 S
S409 N411 1.610 1_556 S
N410 S409 1.613 1_554 S
N410 C413 1.350 . S
N411 S409 1.610 1_554 S
N411 C412 1.351 . S
C412 C406 1.428 . S
C412 N411 1.351 . S
C412 C413 1.434 . S
C413 C404 1.429 . S
C413 N410 1.350 . S
C413 C412 1.434 . S
C414 C415 1.369 . S
C414 C416 1.419 . S
C414 H418 0.930 1_455 S
C415 C414 1.369 . S
C415 C424 1.429 . S
C416 C414 1.419 . S
C416 C417 1.363 . S
C416 H419 0.929 1_455 S
C417 C416 1.363 . S
C417 C423 1.428 . S
H418 C414 0.930 1_655 S
H419 C416 0.929 1_655 S
S420 N421 1.613 . S
S420 N422 1.610 . S
N421 S420 1.613 . S
N421 C424 1.350 . S
N422 S420 1.610 . S
N422 C423 1.351 . S
C423 C417 1.428 . S
C423 N422 1.351 . S
C423 C424 1.434 . S
C424 C415 1.429 . S
C424 N421 1.350 . S
C424 C423 1.434 . S
C425 C426 1.369 . S
C425 C427 1.419 . S
C425 H429 0.930 . S
C426 C425 1.369 . S
C426 C435 1.429 . S
C427 C425 1.419 . S
C427 C428 1.363 . S
C427 H430 0.929 . S
C428 C427 1.363 . S
C428 C434 1.428 . S
H429 C425 0.930 . S
H430 C427 0.929 . S
S431 N432 1.613 . S
S431 N433 1.610 . S
N432 S431 1.613 . S
N432 C435 1.350 . S
N433 S431 1.610 . S
N433 C434 1.351 . S
C434 C428 1.428 . S
C434 N433 1.351 . S
C434 C435 1.434 . S
C435 C426 1.429 . S
C435 N432 1.350 . S
C435 C434 1.434 . S
C173 C5 1.729 . S
C175 C104 1.786 . S
C184 C18 1.482 . S
C186 C126 1.561 . S
C197 C145 1.152 . S
C195 C30 1.346 . S
C206 C41 1.605 . S
C208 C166 1.214 . S
C219 C123 1.938 . S
C217 C7 1.969 . S
C230 C101 1.763 . S
C228 C16 1.517 . S
C241 C168 1.432 . S
C239 C29 1.372 . S
C252 C147 1.173 . S
C250 C38 1.167 . S
C261 C8 1.767 . S
C263 C165 1.694 . S
C274 C124 1.432 . S
C272 C27 1.437 . S
C283 C40 1.640 . S
C285 C106 1.462 . S
C294 C19 1.248 . S
C296 C144 1.265 . S
C307 C102 1.610 . S
C305 C51 1.620 . S
C316 C62 1.450 . S
C318 C122 1.489 . S
C327 C74 1.472 . S
C329 C148 1.255 . S
C338 C84 1.442 . S
C340 C169 1.252 . S
C349 C49 1.791 . S
C351 C125 1.886 . S
C362 C105 1.608 . S
C360 C63 1.632 . S
C373 C164 1.271 . S
C371 C71 1.144 . S
C384 C143 1.345 . S
C382 C85 1.326 . S
C393 C52 1.568 . S
C395 C167 1.544 . S
C406 C127 1.397 . S
C404 C73 1.671 . S
C417 C103 1.330 . S
C415 C82 1.079 . S
C426 C60 1.245 . S
C428 C146 1.566 . S
