# Generated by pormake.
# Topology pth, (4,4)-cn, num edge types: 1
# Building blocks:
#     Node 0, Type 0, BuildingBlock: CEKHIL_clean_sbu_0, # of connection points: 4
#     Node 1, Type 0, BuildingBlock: CEKHIL_clean_sbu_0, # of connection points: 4
#     Node 2, Type 0, BuildingBlock: CEKHIL_clean_sbu_0, # of connection points: 4
#     Node 3, Type 1, BuildingBlock: KOZSID_clean_sbu_0, # of connection points: 4
#     Node 4, Type 1, BuildingBlock: KOZSID_clean_sbu_0, # of connection points: 4
#     Node 5, Type 1, BuildingBlock: KOZSID_clean_sbu_0, # of connection points: 4
#     Edge 6, Type (0, 1), BuildingBlock: FUNLAD_clean_linker_0, # of connection points: 2
#     Edge 7, Type (0, 1), BuildingBlock: FUNLAD_clean_linker_0, # of connection points: 2
#     Edge 8, Type (0, 1), BuildingBlock: FUNLAD_clean_linker_0, # of connection points: 2
#     Edge 9, Type (0, 1), BuildingBlock: FUNLAD_clean_linker_0, # of connection points: 2
#     Edge 10, Type (0, 1), BuildingBlock: FUNLAD_clean_linker_0, # of connection points: 2
#     Edge 11, Type (0, 1), BuildingBlock: FUNLAD_clean_linker_0, # of connection points: 2
#     Edge 12, Type (0, 1), BuildingBlock: FUNLAD_clean_linker_0, # of connection points: 2
#     Edge 13, Type (0, 1), BuildingBlock: FUNLAD_clean_linker_0, # of connection points: 2
#     Edge 14, Type (0, 1), BuildingBlock: FUNLAD_clean_linker_0, # of connection points: 2
#     Edge 15, Type (0, 1), BuildingBlock: FUNLAD_clean_linker_0, # of connection points: 2
#     Edge 16, Type (0, 1), BuildingBlock: FUNLAD_clean_linker_0, # of connection points: 2
#     Edge 17, Type (0, 1), BuildingBlock: FUNLAD_clean_linker_0, # of connection points: 2
# Relax obj value: 0.006
# Max RMSD: 0.054
# Mean RMSD: 0.039
data_MOF--net-pth--node1-CEKHIL_clean_sbu_0--node2-KOZSID_clean_sbu_0--edge1-FUNLAD_clean_linker_0
_symmetry_space_group_name_H-M    P1
_symmetry_Int_Tables_number       1
_symmetry_cell_setting            triclinic
loop_
_symmetry_equiv_pos_as_xyz
'x, y, z'
_cell_length_a     30.100067
_cell_length_b     30.225526
_cell_length_c     70.258434
_cell_angle_alpha  88.600256
_cell_angle_beta   87.567706
_cell_angle_gamma 120.40331
loop_
_atom_site_label
_atom_site_type_symbol
_atom_site_fract_x
_atom_site_fract_y
_atom_site_fract_z
_atom_type_partial_charge
Co0 Co 0.05202 0.05022 0.05837 0.0
O1 O 0.01512 0.99738 0.07828 0.0
O2 O 0.08374 0.00843 0.0612 0.0
C3 C 0.05601 0.11528 0.0749 0.0
O4 O 0.10173 0.102 0.03736 0.0
Co5 Co 1.00173 0.10765 0.04044 0.0
O6 O 0.07196 0.15377 0.02849 0.0
C7 C 0.96708 1.0013 0.03042 0.0
C8 C 0.0484 0.98288 0.07486 0.0
C9 C 0.10688 0.14169 0.02793 0.0
O10 O 0.00484 0.00299 0.03903 0.0
O11 O 0.95687 0.0376 0.03072 0.0
O12 O 0.08907 0.10034 0.07729 0.0
O13 O 0.01927 0.08764 0.06405 0.0
Co14 Co 0.03171 0.07802 0.37623 0.0
O15 O 0.99749 0.09683 0.35801 0.0
O16 O 0.06191 0.15222 0.3744 0.0
C17 C 0.04165 0.02324 0.35766 0.0
O18 O 0.07814 0.07231 0.3955 0.0
Co19 Co 0.97997 0.96535 0.39243 0.0
O20 O 0.05067 0.98819 0.40019 0.0
C21 C 0.93947 0.031 0.40536 0.0
C22 C 0.02901 0.14428 0.36157 0.0
C23 C 0.08423 0.03536 0.4018 0.0
O24 O 0.97936 0.07052 0.39709 0.0
O25 O 0.93059 0.9851 0.4039 0.0
O26 O 0.07402 0.07235 0.35567 0.0
O27 O 1.00213 0.00955 0.36942 0.0
Co28 Co 0.04869 0.05636 0.7078 0.0
O29 O 0.10731 0.09474 0.6898 0.0
O30 O 0.08969 0.02364 0.70618 0.0
C31 C 0.98929 0.05606 0.68902 0.0
O32 O 0.99137 0.0046 0.72688 0.0
Co33 Co 0.98522 0.10283 0.72435 0.0
O34 O 0.93633 0.03187 0.73458 0.0
C35 C 0.08709 0.13364 0.73896 0.0
C36 C 0.11942 0.06 0.69351 0.0
C37 C 0.9492 0.9977 0.73525 0.0
O38 O 0.09018 0.09991 0.72903 0.0
O39 O 0.05005 0.14279 0.73806 0.0
O40 O 0.00435 0.02296 0.687 0.0
O41 O 0.01344 0.09065 0.70112 0.0
C42 C 0.11775 0.66524 0.1868 0.0
C43 C 0.16571 0.70528 0.17988 0.0
C44 C 0.20154 0.70223 0.19017 0.0
C45 C 0.1736 0.66086 0.2028 0.0
N46 N 0.122 0.63695 0.20115 0.0
Co47 Co 0.06716 0.57634 0.21724 0.0
N48 N 0.11999 0.57317 0.23286 0.0
C49 C 0.17186 0.60423 0.23065 0.0
C50 C 0.19835 0.59207 0.24309 0.0
C51 C 0.1613 0.55056 0.25388 0.0
C52 C 0.11406 0.53991 0.24743 0.0
N53 N 0.01229 0.51598 0.23341 0.0
C54 C 0.01649 0.48841 0.24804 0.0
C55 C 0.96843 0.44975 0.25551 0.0
C56 C 0.93261 0.45246 0.24508 0.0
C57 C 0.96063 0.4926 0.23196 0.0
N58 N 0.01435 0.57931 0.20156 0.0
C59 C 0.96256 0.54735 0.20338 0.0
C60 C 0.93622 0.5589 0.19064 0.0
C61 C 0.97328 0.60098 0.18009 0.0
C62 C 0.0203 0.61286 0.1871 0.0
N63 N 0.07163 0.52865 0.19925 0.0
C64 C 0.07768 0.45851 0.17493 0.0
C65 C 0.03002 0.45139 0.18165 0.0
C66 C 0.02791 0.48657 0.19364 0.0
C67 C 0.12228 0.50187 0.18038 0.0
C68 C 0.11841 0.53616 0.1924 0.0
N69 N 0.06261 0.62387 0.23525 0.0
C70 C 0.01149 0.65054 0.25382 0.0
C71 C 0.05577 0.69172 0.26054 0.0
C72 C 0.1036 0.69826 0.25438 0.0
C73 C 0.10611 0.6642 0.24186 0.0
C74 C 0.01575 0.61745 0.24133 0.0
H75 H 0.14369 0.6713 0.23773 0.0
H76 H 0.9805 0.58712 0.23672 0.0
H77 H 0.99039 0.47848 0.19834 0.0
H78 H 0.15384 0.56829 0.19601 0.0
C79 C 0.19461 0.64418 0.21661 0.0
C80 C 0.06933 0.65675 0.17967 0.0
C81 C 0.06486 0.49694 0.25526 0.0
C82 C 0.93965 0.50823 0.21776 0.0
H83 H 0.174 0.73418 0.1687 0.0
H84 H 0.24299 0.72758 0.1888 0.0
H85 H 0.23973 0.61082 0.24407 0.0
H86 H 0.16838 0.53015 0.26509 0.0
H87 H 0.96012 0.4222 0.26722 0.0
H88 H 0.89109 0.4278 0.24675 0.0
H89 H 0.89491 0.53949 0.18936 0.0
H90 H 0.96646 0.621 0.16864 0.0
H91 H 0.99427 0.41813 0.17805 0.0
H92 H 0.16018 0.5096 0.17534 0.0
H93 H 0.97351 0.64419 0.2579 0.0
H94 H 0.13908 0.72922 0.25933 0.0
C95 C 0.46549 0.04458 0.57907 0.0
C96 C 0.4284 0.99698 0.58732 0.0
C97 C 0.43209 0.96085 0.57727 0.0
C98 C 0.47139 0.98821 0.56365 0.0
N99 N 0.49337 0.03976 0.56442 0.0
Co100 Co 0.55355 0.09362 0.54782 0.0
N101 N 0.5584 0.04018 0.53289 0.0
C102 C 0.52687 0.98864 0.53513 0.0
C103 C 0.54064 0.96159 0.52332 0.0
C104 C 0.58383 0.99789 0.513 0.0
C105 C 0.59388 0.04532 0.51906 0.0
N106 N 0.61441 0.14742 0.53146 0.0
C107 C 0.64487 0.14245 0.51791 0.0
C108 C 0.6839 0.18991 0.51028 0.0
C109 C 0.67867 0.22619 0.51962 0.0
C110 C 0.63682 0.19897 0.5323 0.0
N111 N 0.54826 0.14708 0.56256 0.0
C112 C 0.57785 0.19866 0.55951 0.0
C113 C 0.56355 0.22573 0.57106 0.0
C114 C 0.52217 0.18938 0.58215 0.0
C115 C 0.51383 0.14189 0.57685 0.0
N116 N 0.6017 0.09261 0.56612 0.0
C117 C 0.67229 0.09133 0.59107 0.0
C118 C 0.67639 0.13758 0.58477 0.0
C119 C 0.64099 0.13734 0.57243 0.0
C120 C 0.63175 0.04574 0.58482 0.0
C121 C 0.59725 0.04724 0.57249 0.0
N122 N 0.50523 0.09466 0.52948 0.0
C123 C 0.47798 0.14155 0.50924 0.0
C124 C 0.4342 0.09609 0.50467 0.0
C125 C 0.42704 0.04985 0.51258 0.0
C126 C 0.46267 0.05001 0.52477 0.0
C127 C 0.51264 0.13997 0.52151 0.0
H128 H 0.45457 0.01347 0.53033 0.0
H129 H 0.54499 0.17602 0.52436 0.0
H130 H 0.64649 0.17385 0.56804 0.0
H131 H 0.56744 0.01115 0.56824 0.0
C132 C 0.48776 0.96662 0.54969 0.0
C133 C 0.47201 0.09306 0.58549 0.0
C134 C 0.63903 0.0939 0.512 0.0
C135 C 0.61839 0.22062 0.54547 0.0
H136 H 0.4012 0.98905 0.59932 0.0
H137 H 0.40872 0.91953 0.57956 0.0
H138 H 0.52259 0.92029 0.52281 0.0
H139 H 0.60615 0.99003 0.50261 0.0
H140 H 0.71345 0.19753 0.49925 0.0
H141 H 0.70293 0.2675 0.5176 0.0
H142 H 0.58071 0.267 0.57121 0.0
H143 H 0.50029 0.19722 0.59275 0.0
H144 H 0.70739 0.17405 0.58901 0.0
H145 H 0.62628 0.00881 0.58952 0.0
H146 H 0.48589 0.17839 0.50327 0.0
H147 H 0.39349 0.01349 0.50971 0.0
C148 C 0.64947 0.59042 0.85257 0.0
C149 C 0.69014 0.58438 0.84601 0.0
C150 C 0.6852 0.54264 0.85596 0.0
C151 C 0.64213 0.52574 0.86804 0.0
N152 N 0.6188 0.55376 0.86628 0.0
Co153 Co 0.55681 0.54422 0.8819 0.0
N154 N 0.5517 0.48495 0.89746 0.0
C155 C 0.58323 0.46535 0.89571 0.0
C156 C 0.56881 0.42324 0.90771 0.0
C157 C 0.52501 0.41492 0.91758 0.0
C158 C 0.51533 0.45277 0.91105 0.0
N159 N 0.49502 0.53497 0.89754 0.0
C160 C 0.46457 0.49856 0.91131 0.0
C161 C 0.42538 0.50609 0.91855 0.0
C162 C 0.43041 0.54795 0.90869 0.0
C163 C 0.47237 0.56375 0.89613 0.0
N164 N 0.56157 0.60323 0.86632 0.0
C165 C 0.52958 0.62239 0.86786 0.0
C166 C 0.54261 0.66301 0.85525 0.0
C167 C 0.58596 0.67084 0.8452 0.0
C168 C 0.5971 0.63457 0.85239 0.0
N169 N 0.51032 0.49537 0.86352 0.0
C170 C 0.4407 0.42327 0.83893 0.0
C171 C 0.43459 0.46344 0.84527 0.0
C172 C 0.46933 0.49854 0.85743 0.0
C173 C 0.48318 0.42061 0.84477 0.0
C174 C 0.51726 0.45679 0.85693 0.0
N175 N 0.60335 0.5932 0.90027 0.0
C176 C 0.6313 0.67001 0.91773 0.0
C177 C 0.67335 0.66754 0.9241 0.0
C178 C 0.67882 0.62617 0.91884 0.0
C179 C 0.64371 0.58976 0.90699 0.0
C180 C 0.59709 0.6328 0.90603 0.0
H181 H 0.65049 0.55968 0.90322 0.0
H182 H 0.56624 0.63736 0.90165 0.0
H183 H 0.46185 0.52765 0.86183 0.0
H184 H 0.54856 0.4524 0.861 0.0
C185 C 0.62427 0.48549 0.88187 0.0
C186 C 0.64305 0.63296 0.84604 0.0
C187 C 0.46975 0.45498 0.91744 0.0
C188 C 0.48934 0.60327 0.88202 0.0
H189 H 0.72092 0.6083 0.83543 0.0
H190 H 0.71077 0.52729 0.85488 0.0
H191 H 0.5871 0.40038 0.90876 0.0
H192 H 0.50215 0.38375 0.92806 0.0
H193 H 0.39554 0.48299 0.92956 0.0
H194 H 0.4056 0.56411 0.91014 0.0
H195 H 0.52357 0.68508 0.85384 0.0
H196 H 0.60756 0.70057 0.83408 0.0
H197 H 0.40308 0.46808 0.84085 0.0
H198 H 0.4896 0.39012 0.84034 0.0
H199 H 0.62466 0.70067 0.92175 0.0
H200 H 0.71083 0.62258 0.92341 0.0
C201 C 0.09909 0.18827 0.09647 0.0
C202 C 0.05967 0.16034 0.08419 0.0
C203 C 0.10137 0.22964 0.10585 0.0
C204 C 0.06398 0.2438 0.10321 0.0
C205 C 0.02548 0.21665 0.09051 0.0
C206 C 0.02316 0.17526 0.08117 0.0
C207 C 0.06391 0.28674 0.1132 0.0
C208 C 0.08605 0.30381 0.12983 0.0
C209 C 0.08416 0.34503 0.14046 0.0
C210 C 0.11924 0.36867 0.15461 0.0
C211 C 0.1177 0.40597 0.16555 0.0
C212 C 0.08069 0.42038 0.16272 0.0
H213 H 0.01848 0.34174 0.1272 0.0
C214 C 0.04565 0.39693 0.14851 0.0
C215 C 0.04719 0.35964 0.13755 0.0
H216 H 0.01683 0.40733 0.14586 0.0
H217 H 0.12813 0.17804 0.09893 0.0
H218 H 0.13281 0.25052 0.11495 0.0
H219 H 0.99648 0.22694 0.08803 0.0
H220 H 0.99247 0.1547 0.0717 0.0
H221 H 0.04334 0.30349 0.10675 0.0
H222 H 0.10637 0.2867 0.13626 0.0
H223 H 0.14783 0.35798 0.15734 0.0
H224 H 0.14477 0.42259 0.17656 0.0
C225 C 0.91357 0.08718 0.42292 0.0
C226 C 0.90154 0.03836 0.41702 0.0
C227 C 0.87729 0.09338 0.43392 0.0
C228 C 0.82804 0.05089 0.43911 0.0
C229 C 0.8159 0.00244 0.43297 0.0
C230 C 0.85224 0.99612 0.42223 0.0
C231 C 0.78768 0.05553 0.45035 0.0
C232 C 0.79816 0.09104 0.46336 0.0
C233 C 0.75701 0.09254 0.47538 0.0
C234 C 0.76737 0.11036 0.49387 0.0
C235 C 0.72905 0.11076 0.50574 0.0
C236 C 0.67987 0.09406 0.49922 0.0
H237 H 0.69905 0.06452 0.45436 0.0
C238 C 0.66985 0.0779 0.48054 0.0
C239 C 0.70796 0.07694 0.46873 0.0
H240 H 0.63239 0.06575 0.47514 0.0
H241 H 0.95106 0.12059 0.41908 0.0
H242 H 0.88759 0.13155 0.43802 0.0
H243 H 0.77817 0.96913 0.43661 0.0
H244 H 0.84133 0.95801 0.41783 0.0
H245 H 0.74778 0.0261 0.44877 0.0
H246 H 0.838 0.11737 0.46637 0.0
H247 H 0.80492 0.12307 0.49929 0.0
H248 H 0.73765 0.1238 0.52006 0.0
C249 C 0.87265 0.94392 0.75809 0.0
C250 C 0.91491 0.94912 0.74677 0.0
C251 C 0.84097 0.89917 0.76943 0.0
C252 C 0.85065 0.85826 0.76978 0.0
C253 C 0.89198 0.86275 0.75813 0.0
C254 C 0.92407 0.90784 0.74686 0.0
C255 C 0.81719 0.81014 0.78173 0.0
C256 C 0.79329 0.80973 0.79848 0.0
C257 C 0.75776 0.76253 0.81056 0.0
C258 C 0.74852 0.76766 0.82993 0.0
C259 C 0.7125 0.72521 0.84153 0.0
C260 C 0.68457 0.67674 0.83396 0.0
H261 H 0.73521 0.70819 0.78812 0.0
C262 C 0.6939 0.6711 0.81469 0.0
C263 C 0.73026 0.71358 0.80306 0.0
H264 H 0.67211 0.63407 0.80854 0.0
H265 H 0.86402 0.97462 0.75833 0.0
H266 H 0.80846 0.89655 0.77769 0.0
H267 H 0.89991 0.83156 0.75794 0.0
H268 H 0.95601 0.91029 0.73823 0.0
H269 H 0.81395 0.77481 0.77693 0.0
H270 H 0.80098 0.84608 0.80398 0.0
H271 H 0.76876 0.80486 0.83607 0.0
H272 H 0.70556 0.73037 0.85635 0.0
C273 C 0.0863 0.9289 0.08482 0.0
C274 C 0.04671 0.94057 0.08662 0.0
C275 C 0.08573 0.89098 0.09694 0.0
C276 C 0.04517 0.86366 0.11105 0.0
C277 C 0.00536 0.875 0.11254 0.0
C278 C 0.00604 0.91282 0.10051 0.0
C279 C 0.04361 0.82503 0.12515 0.0
C280 C 0.07304 0.80315 0.12361 0.0
C281 C 0.07091 0.76537 0.13825 0.0
C282 C 0.08725 0.73109 0.13287 0.0
C283 C 0.08645 0.69557 0.14626 0.0
C284 C 0.06976 0.69403 0.16534 0.0
H285 H 0.04341 0.79063 0.16247 0.0
C286 C 0.05386 0.72836 0.17086 0.0
C287 C 0.05462 0.76388 0.15751 0.0
H288 H 0.04133 0.72799 0.18558 0.0
H289 H 0.11836 0.94986 0.07433 0.0
H290 H 0.11781 0.88445 0.09546 0.0
H291 H 0.97368 0.85488 0.12324 0.0
H292 H 0.97485 0.92075 0.1023 0.0
H293 H 0.0155 0.81317 0.1372 0.0
H294 H 0.09826 0.81135 0.1109 0.0
H295 H 0.10044 0.73159 0.11824 0.0
H296 H 0.099 0.66938 0.14177 0.0
C297 C 0.16086 0.09262 0.42064 0.0
C298 C 0.13177 0.04683 0.4113 0.0
C299 C 0.20408 0.10093 0.43037 0.0
C300 C 0.21929 0.06381 0.43066 0.0
C301 C 0.19115 0.01908 0.42076 0.0
C302 C 0.14776 0.01044 0.41139 0.0
C303 C 0.2642 0.06971 0.44087 0.0
C304 C 0.28077 0.09601 0.45678 0.0
C305 C 0.32173 0.09637 0.46823 0.0
C306 C 0.34571 0.13455 0.4814 0.0
C307 C 0.38256 0.13491 0.49303 0.0
C308 C 0.39615 0.09678 0.49189 0.0
H309 H 0.31706 0.02698 0.45768 0.0
C310 C 0.37223 0.05862 0.4787 0.0
C311 C 0.33539 0.05819 0.4671 0.0
H312 H 0.38195 0.02885 0.4773 0.0
H313 H 0.14965 0.12149 0.42073 0.0
H314 H 0.22563 0.13648 0.43745 0.0
H315 H 0.20217 0.99006 0.42058 0.0
H316 H 0.1267 0.97503 0.40414 0.0
H317 H 0.28207 0.0487 0.4355 0.0
H318 H 0.2629 0.11722 0.46202 0.0
H319 H 0.33566 0.16409 0.48282 0.0
H320 H 0.39952 0.16447 0.50323 0.0
C321 C 0.17622 0.16754 0.75074 0.0
C322 C 0.12721 0.16278 0.75253 0.0
C323 C 0.21382 0.19619 0.76355 0.0
C324 C 0.20274 0.22003 0.77851 0.0
C325 C 0.15346 0.21419 0.78046 0.0
C326 C 0.11639 0.18643 0.76757 0.0
C327 C 0.24055 0.25054 0.79266 0.0
C328 C 0.29216 0.27759 0.78888 0.0
C329 C 0.32919 0.31296 0.80251 0.0
C330 C 0.38198 0.32978 0.79948 0.0
C331 C 0.4182 0.36489 0.81139 0.0
C332 C 0.40247 0.38436 0.82659 0.0
H333 H 0.27383 0.32217 0.8205 0.0
C334 C 0.34964 0.3672 0.82971 0.0
C335 C 0.31358 0.33239 0.8178 0.0
H336 H 0.33595 0.38083 0.84139 0.0
H337 H 0.18569 0.14961 0.73936 0.0
H338 H 0.25102 0.19887 0.76186 0.0
H339 H 0.14371 0.23179 0.7919 0.0
H340 H 0.07894 0.18318 0.76953 0.0
H341 H 0.22426 0.25259 0.80644 0.0
H342 H 0.30815 0.27502 0.77508 0.0
H343 H 0.39538 0.31605 0.78773 0.0
H344 H 0.45863 0.37769 0.80841 0.0
C345 C 0.93231 0.09098 0.68062 0.0
C346 C 0.94757 0.05449 0.67808 0.0
C347 C 0.89403 0.09048 0.66981 0.0
C348 C 0.87032 0.05353 0.65611 0.0
C349 C 0.88495 0.01644 0.65395 0.0
C350 C 0.92318 0.01697 0.66474 0.0
C351 C 0.82992 0.05157 0.64396 0.0
C352 C 0.8221 0.09128 0.64074 0.0
C353 C 0.78275 0.08941 0.62805 0.0
C354 C 0.76534 0.12426 0.63052 0.0
C355 C 0.72939 0.12474 0.61866 0.0
C356 C 0.7102 0.09058 0.60387 0.0
H357 H 0.77751 0.02923 0.61023 0.0
C358 C 0.72796 0.05598 0.60127 0.0
C359 C 0.76386 0.05545 0.61315 0.0
H360 H 0.71496 0.02995 0.58976 0.0
H361 H 0.95005 0.12011 0.69093 0.0
H362 H 0.88303 0.11882 0.67248 0.0
H363 H 0.86716 0.98722 0.64366 0.0
H364 H 0.9339 0.98817 0.6625 0.0
H365 H 0.8064 0.01587 0.63712 0.0
H366 H 0.8451 0.12695 0.64764 0.0
H367 H 0.77941 0.15111 0.64177 0.0
H368 H 0.71626 0.15159 0.62121 0.0
C369 C 0.89084 0.952 0.01081 0.0
C370 C 0.9342 0.95601 0.01927 0.0
C371 C 0.86034 0.91048 0.99987 0.0
C372 C 0.87262 0.87193 0.99686 0.0
C373 C 0.91507 0.87507 0.00572 0.0
C374 C 0.94567 0.91671 0.01674 0.0
C375 C 0.84112 0.8276 0.98498 0.0
C376 C 0.81402 0.8306 0.97067 0.0
C377 C 0.78049 0.7875 0.95862 0.0
C378 C 0.7618 0.79911 0.9424 0.0
C379 C 0.72786 0.76032 0.93113 0.0
C380 C 0.71144 0.70861 0.93577 0.0
H381 H 0.77724 0.72465 0.97568 0.0
C382 C 0.73075 0.69675 0.95178 0.0
C383 C 0.76472 0.7357 0.96316 0.0
H384 H 0.71844 0.6572 0.95583 0.0
H385 H 0.88017 0.98097 0.01265 0.0
H386 H 0.82677 0.90859 0.99403 0.0
H387 H 0.92504 0.84559 0.00388 0.0
H388 H 0.97852 0.91828 0.02313 0.0
H389 H 0.84215 0.79269 0.98773 0.0
H390 H 0.81717 0.86731 0.96717 0.0
H391 H 0.77314 0.8385 0.93848 0.0
H392 H 0.71442 0.77093 0.91872 0.0
C393 C 0.01414 0.93281 0.34978 0.0
C394 C 0.04965 0.98573 0.34717 0.0
C395 C 0.02094 0.89754 0.33937 0.0
C396 C 0.06336 0.91456 0.326 0.0
C397 C 0.09943 0.96742 0.32381 0.0
C398 C 0.09263 0.00262 0.33421 0.0
C399 C 0.0719 0.8789 0.31416 0.0
C400 C 0.03441 0.83097 0.31061 0.0
C401 C 0.04251 0.79628 0.29806 0.0
C402 C 0.00743 0.7432 0.30018 0.0
C403 C 0.01216 0.7093 0.28823 0.0
C404 C 0.05192 0.7277 0.27371 0.0
H405 H 0.10937 0.85546 0.28096 0.0
C406 C 0.08716 0.78084 0.27158 0.0
C407 C 0.08248 0.81479 0.28356 0.0
H408 H 0.11761 0.79645 0.26031 0.0
H409 H 0.98093 0.91858 0.35984 0.0
H410 H 0.99306 0.85716 0.34207 0.0
H411 H 0.13273 0.98172 0.31378 0.0
H412 H 0.12086 0.04315 0.33195 0.0
H413 H 0.11058 0.89367 0.30775 0.0
H414 H 0.99573 0.81589 0.31705 0.0
H415 H 0.97614 0.72781 0.31114 0.0
H416 H 0.98468 0.66857 0.29044 0.0
C417 C 0.20173 0.10527 0.67292 0.0
C418 C 0.16298 0.06022 0.68282 0.0
C419 C 0.24059 0.1046 0.66149 0.0
C420 C 0.24098 0.0586 0.6595 0.0
C421 C 0.20254 0.01373 0.66954 0.0
C422 C 0.16432 0.01465 0.6813 0.0
C423 C 0.27846 0.0556 0.64591 0.0
C424 C 0.32745 0.09436 0.64242 0.0
C425 C 0.36365 0.09196 0.62803 0.0
C426 C 0.41615 0.11469 0.63151 0.0
C427 C 0.45119 0.11422 0.61788 0.0
C428 C 0.43461 0.0925 0.60026 0.0
H429 H 0.30693 0.05284 0.60719 0.0
C430 C 0.38222 0.07028 0.59667 0.0
C431 C 0.34696 0.06961 0.61047 0.0
H432 H 0.36866 0.05362 0.58313 0.0
H433 H 0.20157 0.14093 0.67377 0.0
H434 H 0.26902 0.13964 0.65364 0.0
H435 H 0.20177 0.97773 0.66813 0.0
H436 H 0.13473 0.97924 0.68863 0.0
H437 H 0.26556 0.01977 0.63891 0.0
H438 H 0.34211 0.1282 0.65079 0.0
H439 H 0.42999 0.13245 0.64487 0.0
H440 H 0.49139 0.13133 0.62098 0.0
C441 C 0.15762 0.21384 0.00339 0.0
C442 C 0.15473 0.1748 0.01565 0.0
C443 C 0.20226 0.24569 0.99186 0.0
C444 C 0.24544 0.23941 0.9922 0.0
C445 C 0.24301 0.20094 0.00461 0.0
C446 C 0.19801 0.16866 0.0161 0.0
C447 C 0.29394 0.27407 0.9804 0.0
C448 C 0.29406 0.29618 0.96345 0.0
C449 C 0.34144 0.33401 0.95176 0.0
C450 C 0.3371 0.34258 0.93235 0.0
C451 C 0.37927 0.38077 0.92113 0.0
C452 C 0.42666 0.41151 0.92912 0.0
H453 H 0.39409 0.36001 0.97466 0.0
C454 C 0.43159 0.40286 0.94843 0.0
C455 C 0.3894 0.36438 0.95968 0.0
H456 H 0.46772 0.42676 0.95489 0.0
H457 H 0.12533 0.22011 0.00268 0.0
H458 H 0.20308 0.27595 0.98302 0.0
H459 H 0.27593 0.19565 0.00533 0.0
H460 H 0.19734 0.13928 0.02545 0.0
H461 H 0.32999 0.28031 0.98563 0.0
H462 H 0.25737 0.28559 0.95757 0.0
H463 H 0.30064 0.32017 0.92589 0.0
H464 H 0.37464 0.38712 0.90629 0.0
C465 C 0.06841 0.23788 0.35129 0.0
C466 C 0.02856 0.18652 0.35056 0.0
C467 C 0.06968 0.27647 0.33932 0.0
C468 C 0.03077 0.26432 0.32647 0.0
C469 C 0.9904 0.21314 0.32623 0.0
C470 C 0.98924 0.17483 0.33808 0.0
C471 C 0.03175 0.30236 0.31225 0.0
C472 C 0.06179 0.35383 0.31269 0.0
C473 C 0.062 0.38988 0.29774 0.0
C474 C 0.07569 0.44 0.30242 0.0
C475 C 0.07638 0.47475 0.28868 0.0
C476 C 0.06404 0.4602 0.26995 0.0
H477 H 0.04131 0.33822 0.27441 0.0
C478 C 0.05111 0.41055 0.26511 0.0
C479 C 0.05026 0.37575 0.27882 0.0
H480 H 0.04201 0.39886 0.25066 0.0
H481 H 0.09945 0.24803 0.36067 0.0
H482 H 0.10202 0.31514 0.33981 0.0
H483 H 0.95989 0.20243 0.31654 0.0
H484 H 0.95785 0.1357 0.33716 0.0
H485 H 0.00511 0.2867 0.301 0.0
H486 H 0.08545 0.37053 0.32466 0.0
H487 H 0.08541 0.45215 0.31679 0.0
H488 H 0.08661 0.51303 0.29265 0.0
loop_
_geom_bond_atom_site_label_1
_geom_bond_atom_site_label_2
_geom_bond_distance
_geom_bond_site_symmetry_2
_ccdc_geom_bond_type
Co0 O1 2.216 1_545 S
Co0 O2 2.091 . S
Co0 O4 2.004 . S
Co0 O10 2.021 . S
Co0 O12 2.137 . S
Co0 O13 2.244 . S
O1 Co0 2.216 1_565 S
O1 C8 1.247 . S
O2 Co0 2.091 . S
O2 C8 1.261 1_545 S
C3 O12 1.247 . S
C3 O13 1.272 . S
O4 Co0 2.004 . S
O4 C9 1.259 . S
Co5 O6 2.061 . S
Co5 O11 2.052 1_455 S
Co5 O13 2.135 . S
O6 Co5 2.061 . S
O6 C9 1.235 . S
C7 O10 1.238 1_655 S
C7 O11 1.241 . S
C8 O1 1.247 . S
C8 O2 1.261 1_565 S
C9 O4 1.259 . S
C9 O6 1.235 . S
O10 Co0 2.021 . S
O10 C7 1.238 1_455 S
O11 Co5 2.052 1_655 S
O11 C7 1.241 . S
O12 Co0 2.137 . S
O12 C3 1.247 . S
O13 Co0 2.244 . S
O13 C3 1.272 . S
O13 Co5 2.135 . S
Co14 O15 2.216 . S
Co14 O16 2.091 . S
Co14 O18 2.004 . S
Co14 O24 2.021 . S
Co14 O26 2.137 . S
Co14 O27 2.244 . S
O15 Co14 2.216 . S
O15 C22 1.247 . S
O16 Co14 2.091 . S
O16 C22 1.261 . S
C17 O26 1.247 . S
C17 O27 1.272 . S
O18 Co14 2.004 . S
O18 C23 1.259 . S
Co19 O20 2.061 1_665 S
Co19 O25 2.052 1_565 S
Co19 O27 2.135 1_665 S
O20 Co19 2.061 1_445 S
O20 C23 1.235 . S
C21 O24 1.238 1_655 S
C21 O25 1.241 . S
C22 O15 1.247 . S
C22 O16 1.261 . S
C23 O18 1.259 . S
C23 O20 1.235 . S
O24 Co14 2.021 . S
O24 C21 1.238 1_455 S
O25 Co19 2.052 1_545 S
O25 C21 1.241 . S
O26 Co14 2.137 . S
O26 C17 1.247 . S
O27 Co14 2.244 . S
O27 C17 1.272 . S
O27 Co19 2.135 1_445 S
Co28 O29 2.216 . S
Co28 O30 2.091 . S
Co28 O32 2.004 1_545 S
Co28 O38 2.021 . S
Co28 O40 2.137 . S
Co28 O41 2.244 . S
O29 Co28 2.216 . S
O29 C36 1.247 . S
O30 Co28 2.091 . S
O30 C36 1.261 . S
C31 O40 1.247 1_655 S
C31 O41 1.272 1_655 S
O32 Co28 2.004 1_565 S
O32 C37 1.259 1_455 S
Co33 O34 2.061 . S
Co33 O39 2.052 1_655 S
Co33 O41 2.135 1_655 S
O34 Co33 2.061 . S
O34 C37 1.235 1_545 S
C35 O38 1.238 . S
C35 O39 1.241 . S
C36 O29 1.247 . S
C36 O30 1.261 . S
C37 O32 1.259 1_655 S
C37 O34 1.235 1_565 S
O38 Co28 2.021 . S
O38 C35 1.238 . S
O39 Co33 2.052 1_455 S
O39 C35 1.241 . S
O40 Co28 2.137 . S
O40 C31 1.247 1_455 S
O41 Co28 2.244 . S
O41 C31 1.272 1_455 S
O41 Co33 2.135 1_455 S
C42 C43 1.443 . S
C42 N46 1.376 . S
C42 C80 1.389 . S
C43 C42 1.443 . S
C43 C44 1.340 . S
C43 H83 0.951 . S
C44 C43 1.340 . S
C44 C45 1.439 . S
C44 H84 0.950 . S
C45 C44 1.439 . S
C45 N46 1.374 . S
C45 C79 1.395 . S
N46 C42 1.376 . S
N46 C45 1.374 . S
N46 Co47 2.008 . S
Co47 N46 2.008 . S
Co47 N48 1.995 . S
Co47 N53 2.008 1_455 S
Co47 N58 1.995 1_455 S
Co47 N63 2.282 . S
Co47 N69 2.282 . S
N48 Co47 1.995 . S
N48 C49 1.376 . S
N48 C52 1.383 . S
C49 N48 1.376 . S
C49 C50 1.446 . S
C49 C79 1.391 . S
C50 C49 1.446 . S
C50 C51 1.339 . S
C50 H85 0.949 . S
C51 C50 1.339 . S
C51 C52 1.439 . S
C51 H86 0.950 . S
C52 N48 1.383 . S
C52 C51 1.439 . S
C52 C81 1.392 . S
N53 Co47 2.008 1_655 S
N53 C54 1.376 . S
N53 C57 1.374 . S
C54 N53 1.376 . S
C54 C55 1.443 . S
C54 C81 1.389 1_655 S
C55 C54 1.443 . S
C55 C56 1.340 . S
C55 H87 0.951 . S
C56 C55 1.340 . S
C56 C57 1.439 . S
C56 H88 0.950 . S
C57 N53 1.374 . S
C57 C56 1.439 . S
C57 C82 1.395 . S
N58 Co47 1.995 1_655 S
N58 C59 1.376 . S
N58 C62 1.383 . S
C59 N58 1.376 . S
C59 C60 1.446 . S
C59 C82 1.391 . S
C60 C59 1.446 . S
C60 C61 1.339 . S
C60 H89 0.949 . S
C61 C60 1.339 . S
C61 C62 1.439 . S
C61 H90 0.950 . S
C62 N58 1.383 . S
C62 C61 1.439 . S
C62 C80 1.392 1_655 S
N63 Co47 2.282 . S
N63 C66 1.332 1_455 S
N63 C68 1.332 . S
C64 C65 1.386 1_455 S
C64 C67 1.388 . S
C65 C64 1.386 1_655 S
C65 C66 1.382 . S
C65 H91 0.950 . S
C66 N63 1.332 1_655 S
C66 C65 1.382 . S
C66 H77 0.952 . S
C67 C64 1.388 . S
C67 C68 1.382 . S
C67 H92 0.950 . S
C68 N63 1.332 . S
C68 C67 1.382 . S
C68 H78 0.948 . S
N69 Co47 2.282 . S
N69 C73 1.332 . S
N69 C74 1.332 1_455 S
C70 C71 1.388 1_655 S
C70 C74 1.382 . S
C70 H93 0.950 . S
C71 C70 1.388 1_455 S
C71 C72 1.386 . S
C72 C71 1.386 . S
C72 C73 1.382 . S
C72 H94 0.950 . S
C73 N69 1.332 . S
C73 C72 1.382 . S
C73 H75 0.952 . S
C74 N69 1.332 1_655 S
C74 C70 1.382 . S
C74 H76 0.948 . S
H75 C73 0.952 . S
H76 C74 0.948 . S
H77 C66 0.952 . S
H78 C68 0.948 . S
C79 C45 1.395 . S
C79 C49 1.391 . S
C80 C42 1.389 . S
C80 C62 1.392 1_455 S
C81 C52 1.392 . S
C81 C54 1.389 1_455 S
C82 C57 1.395 . S
C82 C59 1.391 . S
H83 C43 0.951 . S
H84 C44 0.950 . S
H85 C50 0.949 . S
H86 C51 0.950 . S
H87 C55 0.951 . S
H88 C56 0.950 . S
H89 C60 0.949 . S
H90 C61 0.950 . S
H91 C65 0.950 . S
H92 C67 0.950 . S
H93 C70 0.950 . S
H94 C72 0.950 . S
C95 C96 1.443 1_545 S
C95 N99 1.376 . S
C95 C133 1.389 . S
C96 C95 1.443 1_565 S
C96 C97 1.340 . S
C96 H136 0.951 . S
C97 C96 1.340 . S
C97 C98 1.439 . S
C97 H137 0.950 . S
C98 C97 1.439 . S
C98 N99 1.374 1_565 S
C98 C132 1.395 . S
N99 C95 1.376 . S
N99 C98 1.374 1_545 S
N99 Co100 2.008 . S
Co100 N99 2.008 . S
Co100 N101 1.995 . S
Co100 N106 2.008 . S
Co100 N111 1.995 . S
Co100 N116 2.282 . S
Co100 N122 2.282 . S
N101 Co100 1.995 . S
N101 C102 1.376 1_545 S
N101 C105 1.383 . S
C102 N101 1.376 1_565 S
C102 C103 1.446 . S
C102 C132 1.391 . S
C103 C102 1.446 . S
C103 C104 1.339 . S
C103 H138 0.949 . S
C104 C103 1.339 . S
C104 C105 1.439 1_565 S
C104 H139 0.950 . S
C105 N101 1.383 . S
C105 C104 1.439 1_545 S
C105 C134 1.392 . S
N106 Co100 2.008 . S
N106 C107 1.376 . S
N106 C110 1.374 . S
C107 N106 1.376 . S
C107 C108 1.443 . S
C107 C134 1.389 . S
C108 C107 1.443 . S
C108 C109 1.340 . S
C108 H140 0.951 . S
C109 C108 1.340 . S
C109 C110 1.439 . S
C109 H141 0.950 . S
C110 N106 1.374 . S
C110 C109 1.439 . S
C110 C135 1.395 . S
N111 Co100 1.995 . S
N111 C112 1.376 . S
N111 C115 1.383 . S
C112 N111 1.376 . S
C112 C113 1.446 . S
C112 C135 1.391 . S
C113 C112 1.446 . S
C113 C114 1.339 . S
C113 H142 0.949 . S
C114 C113 1.339 . S
C114 C115 1.439 . S
C114 H143 0.950 . S
C115 N111 1.383 . S
C115 C114 1.439 . S
C115 C133 1.392 . S
N116 Co100 2.282 . S
N116 C119 1.332 . S
N116 C121 1.332 . S
C117 C118 1.386 . S
C117 C120 1.388 . S
C118 C117 1.386 . S
C118 C119 1.382 . S
C118 H144 0.950 . S
C119 N116 1.332 . S
C119 C118 1.382 . S
C119 H130 0.952 . S
C120 C117 1.388 . S
C120 C121 1.382 . S
C120 H145 0.950 1_545 S
C121 N116 1.332 . S
C121 C120 1.382 . S
C121 H131 0.948 1_545 S
N122 Co100 2.282 . S
N122 C126 1.332 . S
N122 C127 1.332 . S
C123 C124 1.388 . S
C123 C127 1.382 . S
C123 H146 0.950 . S
C124 C123 1.388 . S
C124 C125 1.386 . S
C125 C124 1.386 . S
C125 C126 1.382 . S
C125 H147 0.950 . S
C126 N122 1.332 . S
C126 C125 1.382 . S
C126 H128 0.952 . S
C127 N122 1.332 . S
C127 C123 1.382 . S
C127 H129 0.948 . S
H128 C126 0.952 . S
H129 C127 0.948 . S
H130 C119 0.952 . S
H131 C121 0.948 1_565 S
C132 C98 1.395 . S
C132 C102 1.391 . S
C133 C95 1.389 . S
C133 C115 1.392 . S
C134 C105 1.392 . S
C134 C107 1.389 . S
C135 C110 1.395 . S
C135 C112 1.391 . S
H136 C96 0.951 . S
H137 C97 0.950 . S
H138 C103 0.949 . S
H139 C104 0.950 . S
H140 C108 0.951 . S
H141 C109 0.950 . S
H142 C113 0.949 . S
H143 C114 0.950 . S
H144 C118 0.950 . S
H145 C120 0.950 1_565 S
H146 C123 0.950 . S
H147 C125 0.950 . S
C148 C149 1.443 . S
C148 N152 1.376 . S
C148 C186 1.389 . S
C149 C148 1.443 . S
C149 C150 1.340 . S
C149 H189 0.951 . S
C150 C149 1.340 . S
C150 C151 1.439 . S
C150 H190 0.950 . S
C151 C150 1.439 . S
C151 N152 1.374 . S
C151 C185 1.395 . S
N152 C148 1.376 . S
N152 C151 1.374 . S
N152 Co153 2.008 . S
Co153 N152 2.008 . S
Co153 N154 1.995 . S
Co153 N159 2.008 . S
Co153 N164 1.995 . S
Co153 N169 2.282 . S
Co153 N175 2.282 . S
N154 Co153 1.995 . S
N154 C155 1.376 . S
N154 C158 1.383 . S
C155 N154 1.376 . S
C155 C156 1.446 . S
C155 C185 1.391 . S
C156 C155 1.446 . S
C156 C157 1.339 . S
C156 H191 0.949 . S
C157 C156 1.339 . S
C157 C158 1.439 . S
C157 H192 0.950 . S
C158 N154 1.383 . S
C158 C157 1.439 . S
C158 C187 1.392 . S
N159 Co153 2.008 . S
N159 C160 1.376 . S
N159 C163 1.374 . S
C160 N159 1.376 . S
C160 C161 1.443 . S
C160 C187 1.389 . S
C161 C160 1.443 . S
C161 C162 1.340 . S
C161 H193 0.951 . S
C162 C161 1.340 . S
C162 C163 1.439 . S
C162 H194 0.950 . S
C163 N159 1.374 . S
C163 C162 1.439 . S
C163 C188 1.395 . S
N164 Co153 1.995 . S
N164 C165 1.376 . S
N164 C168 1.383 . S
C165 N164 1.376 . S
C165 C166 1.446 . S
C165 C188 1.391 . S
C166 C165 1.446 . S
C166 C167 1.339 . S
C166 H195 0.949 . S
C167 C166 1.339 . S
C167 C168 1.439 . S
C167 H196 0.950 . S
C168 N164 1.383 . S
C168 C167 1.439 . S
C168 C186 1.392 . S
N169 Co153 2.282 . S
N169 C172 1.332 . S
N169 C174 1.332 . S
C170 C171 1.386 . S
C170 C173 1.388 . S
C171 C170 1.386 . S
C171 C172 1.382 . S
C171 H197 0.950 . S
C172 N169 1.332 . S
C172 C171 1.382 . S
C172 H183 0.952 . S
C173 C170 1.388 . S
C173 C174 1.382 . S
C173 H198 0.950 . S
C174 N169 1.332 . S
C174 C173 1.382 . S
C174 H184 0.948 . S
N175 Co153 2.282 . S
N175 C179 1.332 . S
N175 C180 1.332 . S
C176 C177 1.388 . S
C176 C180 1.382 . S
C176 H199 0.950 . S
C177 C176 1.388 . S
C177 C178 1.386 . S
C178 C177 1.386 . S
C178 C179 1.382 . S
C178 H200 0.950 . S
C179 N175 1.332 . S
C179 C178 1.382 . S
C179 H181 0.952 . S
C180 N175 1.332 . S
C180 C176 1.382 . S
C180 H182 0.948 . S
H181 C179 0.952 . S
H182 C180 0.948 . S
H183 C172 0.952 . S
H184 C174 0.948 . S
C185 C151 1.395 . S
C185 C155 1.391 . S
C186 C148 1.389 . S
C186 C168 1.392 . S
C187 C158 1.392 . S
C187 C160 1.389 . S
C188 C163 1.395 . S
C188 C165 1.391 . S
H189 C149 0.951 . S
H190 C150 0.950 . S
H191 C156 0.949 . S
H192 C157 0.950 . S
H193 C161 0.951 . S
H194 C162 0.950 . S
H195 C166 0.949 . S
H196 C167 0.950 . S
H197 C171 0.950 . S
H198 C173 0.950 . S
H199 C176 0.950 . S
H200 C178 0.950 . S
C201 C202 1.386 . S
C201 C203 1.383 . S
C201 H217 0.951 . S
C202 C201 1.386 . S
C202 C206 1.383 . S
C203 C201 1.383 . S
C203 C204 1.402 . S
C203 H218 0.951 . S
C204 C203 1.402 . S
C204 C205 1.375 . S
C204 C207 1.481 . S
C205 C204 1.375 . S
C205 C206 1.367 . S
C205 H219 0.951 . S
C206 C202 1.383 . S
C206 C205 1.367 . S
C206 H220 0.950 . S
C207 C204 1.481 . S
C207 C208 1.297 . S
C207 H221 0.950 . S
C208 C207 1.297 . S
C208 C209 1.479 . S
C208 H222 0.950 . S
C209 C208 1.479 . S
C209 C210 1.375 . S
C209 C215 1.404 . S
C210 C209 1.375 . S
C210 C211 1.369 . S
C210 H223 0.950 . S
C211 C210 1.369 . S
C211 C212 1.392 . S
C211 H224 0.951 . S
C212 C211 1.392 . S
C212 C214 1.384 . S
H213 C215 0.949 . S
C214 C212 1.384 . S
C214 C215 1.385 . S
C214 H216 0.950 . S
C215 C209 1.404 . S
C215 H213 0.949 . S
C215 C214 1.385 . S
H216 C214 0.950 . S
H217 C201 0.951 . S
H218 C203 0.951 . S
H219 C205 0.951 . S
H220 C206 0.950 . S
H221 C207 0.950 . S
H222 C208 0.950 . S
H223 C210 0.950 . S
H224 C211 0.951 . S
C225 C226 1.386 . S
C225 C227 1.383 . S
C225 H241 0.951 . S
C226 C225 1.386 . S
C226 C230 1.383 . S
C227 C225 1.383 . S
C227 C228 1.402 . S
C227 H242 0.951 . S
C228 C227 1.402 . S
C228 C229 1.375 . S
C228 C231 1.481 . S
C229 C228 1.375 . S
C229 C230 1.367 . S
C229 H243 0.951 . S
C230 C226 1.383 . S
C230 C229 1.367 . S
C230 H244 0.950 . S
C231 C228 1.481 . S
C231 C232 1.297 . S
C231 H245 0.950 . S
C232 C231 1.297 . S
C232 C233 1.479 . S
C232 H246 0.950 . S
C233 C232 1.479 . S
C233 C234 1.375 . S
C233 C239 1.404 . S
C234 C233 1.375 . S
C234 C235 1.369 . S
C234 H247 0.950 . S
C235 C234 1.369 . S
C235 C236 1.392 . S
C235 H248 0.951 . S
C236 C235 1.392 . S
C236 C238 1.384 . S
H237 C239 0.949 . S
C238 C236 1.384 . S
C238 C239 1.385 . S
C238 H240 0.950 . S
C239 C233 1.404 . S
C239 H237 0.949 . S
C239 C238 1.385 . S
H240 C238 0.950 . S
H241 C225 0.951 . S
H242 C227 0.951 . S
H243 C229 0.951 . S
H244 C230 0.950 . S
H245 C231 0.950 . S
H246 C232 0.950 . S
H247 C234 0.950 . S
H248 C235 0.951 . S
C249 C250 1.386 . S
C249 C251 1.383 . S
C249 H265 0.951 . S
C250 C249 1.386 . S
C250 C254 1.383 . S
C251 C249 1.383 . S
C251 C252 1.402 . S
C251 H266 0.951 . S
C252 C251 1.402 . S
C252 C253 1.375 . S
C252 C255 1.481 . S
C253 C252 1.375 . S
C253 C254 1.367 . S
C253 H267 0.951 . S
C254 C250 1.383 . S
C254 C253 1.367 . S
C254 H268 0.950 . S
C255 C252 1.481 . S
C255 C256 1.297 . S
C255 H269 0.950 . S
C256 C255 1.297 . S
C256 C257 1.479 . S
C256 H270 0.950 . S
C257 C256 1.479 . S
C257 C258 1.375 . S
C257 C263 1.404 . S
C258 C257 1.375 . S
C258 C259 1.369 . S
C258 H271 0.950 . S
C259 C258 1.369 . S
C259 C260 1.392 . S
C259 H272 0.951 . S
C260 C259 1.392 . S
C260 C262 1.384 . S
H261 C263 0.949 . S
C262 C260 1.384 . S
C262 C263 1.385 . S
C262 H264 0.950 . S
C263 C257 1.404 . S
C263 H261 0.949 . S
C263 C262 1.385 . S
H264 C262 0.950 . S
H265 C249 0.951 . S
H266 C251 0.951 . S
H267 C253 0.951 . S
H268 C254 0.950 . S
H269 C255 0.950 . S
H270 C256 0.950 . S
H271 C258 0.950 . S
H272 C259 0.951 . S
C273 C274 1.386 . S
C273 C275 1.383 . S
C273 H289 0.951 . S
C274 C273 1.386 . S
C274 C278 1.383 . S
C275 C273 1.383 . S
C275 C276 1.402 . S
C275 H290 0.951 . S
C276 C275 1.402 . S
C276 C277 1.375 1_455 S
C276 C279 1.481 . S
C277 C276 1.375 1_655 S
C277 C278 1.367 1_655 S
C277 H291 0.951 . S
C278 C274 1.383 . S
C278 C277 1.367 1_455 S
C278 H292 0.950 1_455 S
C279 C276 1.481 . S
C279 C280 1.297 . S
C279 H293 0.950 1_455 S
C280 C279 1.297 . S
C280 C281 1.479 . S
C280 H294 0.950 . S
C281 C280 1.479 . S
C281 C282 1.375 . S
C281 C287 1.404 . S
C282 C281 1.375 . S
C282 C283 1.369 . S
C282 H295 0.950 . S
C283 C282 1.369 . S
C283 C284 1.392 . S
C283 H296 0.951 . S
C284 C283 1.392 . S
C284 C286 1.384 1_455 S
H285 C287 0.949 1_655 S
C286 C284 1.384 1_655 S
C286 C287 1.385 1_655 S
C286 H288 0.950 . S
C287 C281 1.404 . S
C287 H285 0.949 1_455 S
C287 C286 1.385 1_455 S
H288 C286 0.950 . S
H289 C273 0.951 . S
H290 C275 0.951 . S
H291 C277 0.951 . S
H292 C278 0.950 1_655 S
H293 C279 0.950 1_655 S
H294 C280 0.950 . S
H295 C282 0.950 . S
H296 C283 0.951 . S
C297 C298 1.386 . S
C297 C299 1.383 . S
C297 H313 0.951 . S
C298 C297 1.386 . S
C298 C302 1.383 . S
C299 C297 1.383 . S
C299 C300 1.402 . S
C299 H314 0.951 . S
C300 C299 1.402 . S
C300 C301 1.375 . S
C300 C303 1.481 . S
C301 C300 1.375 . S
C301 C302 1.367 . S
C301 H315 0.951 . S
C302 C298 1.383 . S
C302 C301 1.367 . S
C302 H316 0.950 . S
C303 C300 1.481 . S
C303 C304 1.297 . S
C303 H317 0.950 . S
C304 C303 1.297 . S
C304 C305 1.479 . S
C304 H318 0.950 . S
C305 C304 1.479 . S
C305 C306 1.375 . S
C305 C311 1.404 . S
C306 C305 1.375 . S
C306 C307 1.369 . S
C306 H319 0.950 . S
C307 C306 1.369 . S
C307 C308 1.392 . S
C307 H320 0.951 . S
C308 C307 1.392 . S
C308 C310 1.384 . S
H309 C311 0.949 . S
C310 C308 1.384 . S
C310 C311 1.385 . S
C310 H312 0.950 . S
C311 C305 1.404 . S
C311 H309 0.949 . S
C311 C310 1.385 . S
H312 C310 0.950 . S
H313 C297 0.951 . S
H314 C299 0.951 . S
H315 C301 0.951 . S
H316 C302 0.950 . S
H317 C303 0.950 . S
H318 C304 0.950 . S
H319 C306 0.950 . S
H320 C307 0.951 . S
C321 C322 1.386 . S
C321 C323 1.383 . S
C321 H337 0.951 . S
C322 C321 1.386 . S
C322 C326 1.383 . S
C323 C321 1.383 . S
C323 C324 1.402 . S
C323 H338 0.951 . S
C324 C323 1.402 . S
C324 C325 1.375 . S
C324 C327 1.481 . S
C325 C324 1.375 . S
C325 C326 1.367 . S
C325 H339 0.951 . S
C326 C322 1.383 . S
C326 C325 1.367 . S
C326 H340 0.950 . S
C327 C324 1.481 . S
C327 C328 1.297 . S
C327 H341 0.950 . S
C328 C327 1.297 . S
C328 C329 1.479 . S
C328 H342 0.950 . S
C329 C328 1.479 . S
C329 C330 1.375 . S
C329 C335 1.404 . S
C330 C329 1.375 . S
C330 C331 1.369 . S
C330 H343 0.950 . S
C331 C330 1.369 . S
C331 C332 1.392 . S
C331 H344 0.951 . S
C332 C331 1.392 . S
C332 C334 1.384 . S
H333 C335 0.949 . S
C334 C332 1.384 . S
C334 C335 1.385 . S
C334 H336 0.950 . S
C335 C329 1.404 . S
C335 H333 0.949 . S
C335 C334 1.385 . S
H336 C334 0.950 . S
H337 C321 0.951 . S
H338 C323 0.951 . S
H339 C325 0.951 . S
H340 C326 0.950 . S
H341 C327 0.950 . S
H342 C328 0.950 . S
H343 C330 0.950 . S
H344 C331 0.951 . S
C345 C346 1.386 . S
C345 C347 1.383 . S
C345 H361 0.951 . S
C346 C345 1.386 . S
C346 C350 1.383 . S
C347 C345 1.383 . S
C347 C348 1.402 . S
C347 H362 0.951 . S
C348 C347 1.402 . S
C348 C349 1.375 . S
C348 C351 1.481 . S
C349 C348 1.375 . S
C349 C350 1.367 . S
C349 H363 0.951 . S
C350 C346 1.383 . S
C350 C349 1.367 . S
C350 H364 0.950 1_655 S
C351 C348 1.481 . S
C351 C352 1.297 . S
C351 H365 0.950 . S
C352 C351 1.297 . S
C352 C353 1.479 . S
C352 H366 0.950 . S
C353 C352 1.479 . S
C353 C354 1.375 . S
C353 C359 1.404 . S
C354 C353 1.375 . S
C354 C355 1.369 . S
C354 H367 0.950 . S
C355 C354 1.369 . S
C355 C356 1.392 . S
C355 H368 0.951 . S
C356 C355 1.392 . S
C356 C358 1.384 . S
H357 C359 0.949 . S
C358 C356 1.384 . S
C358 C359 1.385 . S
C358 H360 0.950 . S
C359 C353 1.404 . S
C359 H357 0.949 . S
C359 C358 1.385 . S
H360 C358 0.950 . S
H361 C345 0.951 . S
H362 C347 0.951 . S
H363 C349 0.951 . S
H364 C350 0.950 1_455 S
H365 C351 0.950 . S
H366 C352 0.950 . S
H367 C354 0.950 . S
H368 C355 0.951 . S
C369 C370 1.386 1_556 S
C369 C371 1.383 . S
C369 H385 0.951 1_565 S
C370 C369 1.386 1_554 S
C370 C374 1.383 . S
C371 C369 1.383 . S
C371 C372 1.402 . S
C371 H386 0.951 . S
C372 C371 1.402 . S
C372 C373 1.375 1_556 S
C372 C375 1.481 . S
C373 C372 1.375 1_554 S
C373 C374 1.367 . S
C373 H387 0.951 . S
C374 C370 1.383 . S
C374 C373 1.367 . S
C374 H388 0.950 . S
C375 C372 1.481 . S
C375 C376 1.297 . S
C375 H389 0.950 . S
C376 C375 1.297 . S
C376 C377 1.479 . S
C376 H390 0.950 . S
C377 C376 1.479 . S
C377 C378 1.375 . S
C377 C383 1.404 . S
C378 C377 1.375 . S
C378 C379 1.369 . S
C378 H391 0.950 . S
C379 C378 1.369 . S
C379 C380 1.392 . S
C379 H392 0.951 . S
C380 C379 1.392 . S
C380 C382 1.384 . S
H381 C383 0.949 . S
C382 C380 1.384 . S
C382 C383 1.385 . S
C382 H384 0.950 . S
C383 C377 1.404 . S
C383 H381 0.949 . S
C383 C382 1.385 . S
H384 C382 0.950 . S
H385 C369 0.951 1_545 S
H386 C371 0.951 . S
H387 C373 0.951 . S
H388 C374 0.950 . S
H389 C375 0.950 . S
H390 C376 0.950 . S
H391 C378 0.950 . S
H392 C379 0.951 . S
C393 C394 1.386 . S
C393 C395 1.383 . S
C393 H409 0.951 . S
C394 C393 1.386 . S
C394 C398 1.383 . S
C395 C393 1.383 . S
C395 C396 1.402 . S
C395 H410 0.951 1_455 S
C396 C395 1.402 . S
C396 C397 1.375 . S
C396 C399 1.481 . S
C397 C396 1.375 . S
C397 C398 1.367 . S
C397 H411 0.951 . S
C398 C394 1.383 . S
C398 C397 1.367 . S
C398 H412 0.950 1_565 S
C399 C396 1.481 . S
C399 C400 1.297 . S
C399 H413 0.950 . S
C400 C399 1.297 . S
C400 C401 1.479 . S
C400 H414 0.950 1_455 S
C401 C400 1.479 . S
C401 C402 1.375 1_455 S
C401 C407 1.404 . S
C402 C401 1.375 1_655 S
C402 C403 1.366 1_655 S
C402 H415 0.950 . S
C403 C402 1.366 1_455 S
C403 C404 1.393 . S
C403 H416 0.952 1_455 S
C404 C403 1.393 . S
C404 C406 1.384 . S
H405 C407 0.949 . S
C406 C404 1.384 . S
C406 C407 1.385 . S
C406 H408 0.950 . S
C407 C401 1.404 . S
C407 H405 0.949 . S
C407 C406 1.385 . S
H408 C406 0.950 . S
H409 C393 0.951 . S
H410 C395 0.951 1_655 S
H411 C397 0.951 . S
H412 C398 0.950 1_545 S
H413 C399 0.950 . S
H414 C400 0.950 1_655 S
H415 C402 0.950 . S
H416 C403 0.952 1_655 S
C417 C418 1.386 . S
C417 C419 1.383 . S
C417 H433 0.951 . S
C418 C417 1.386 . S
C418 C422 1.383 . S
C419 C417 1.383 . S
C419 C420 1.402 . S
C419 H434 0.951 . S
C420 C419 1.402 . S
C420 C421 1.375 1_545 S
C420 C423 1.481 . S
C421 C420 1.375 1_565 S
C421 C422 1.367 1_565 S
C421 H435 0.951 . S
C422 C418 1.383 . S
C422 C421 1.367 1_545 S
C422 H436 0.950 1_545 S
C423 C420 1.481 . S
C423 C424 1.297 . S
C423 H437 0.949 1_545 S
C424 C423 1.297 . S
C424 C425 1.479 . S
C424 H438 0.950 . S
C425 C424 1.479 . S
C425 C426 1.375 . S
C425 C431 1.404 . S
C426 C425 1.375 . S
C426 C427 1.369 . S
C426 H439 0.950 . S
C427 C426 1.369 . S
C427 C428 1.392 . S
C427 H440 0.951 . S
C428 C427 1.392 . S
C428 C430 1.384 . S
H429 C431 0.949 1_565 S
C430 C428 1.384 . S
C430 C431 1.385 . S
C430 H432 0.950 1_545 S
C431 C425 1.404 . S
C431 H429 0.949 1_545 S
C431 C430 1.385 . S
H432 C430 0.950 1_565 S
H433 C417 0.951 . S
H434 C419 0.951 . S
H435 C421 0.951 . S
H436 C422 0.950 1_565 S
H437 C423 0.949 1_565 S
H438 C424 0.950 . S
H439 C426 0.950 . S
H440 C427 0.951 . S
C441 C442 1.386 1_556 S
C441 C443 1.383 . S
C441 H457 0.951 . S
C442 C441 1.386 1_554 S
C442 C446 1.383 . S
C443 C441 1.383 . S
C443 C444 1.402 . S
C443 H458 0.951 . S
C444 C443 1.402 . S
C444 C445 1.405 . S
C444 C447 1.481 . S
C445 C444 1.405 . S
C445 C446 1.342 1_556 S
C445 H459 0.950 . S
C446 C442 1.383 . S
C446 C445 1.342 1_554 S
C446 H460 0.950 . S
C447 C444 1.481 . S
C447 C448 1.297 . S
C447 H461 0.950 . S
C448 C447 1.297 . S
C448 C449 1.479 . S
C448 H462 0.950 . S
C449 C448 1.479 . S
C449 C450 1.375 . S
C449 C455 1.404 . S
C450 C449 1.375 . S
C450 C451 1.369 . S
C450 H463 0.950 . S
C451 C450 1.369 . S
C451 C452 1.392 . S
C451 H464 0.951 . S
C452 C451 1.392 . S
C452 C454 1.384 . S
H453 C455 0.949 . S
C454 C452 1.384 . S
C454 C455 1.385 . S
C454 H456 0.950 . S
C455 C449 1.404 . S
C455 H453 0.949 . S
C455 C454 1.385 . S
H456 C454 0.950 . S
H457 C441 0.951 . S
H458 C443 0.951 . S
H459 C445 0.950 . S
H460 C446 0.950 . S
H461 C447 0.950 . S
H462 C448 0.950 . S
H463 C450 0.950 . S
H464 C451 0.951 . S
C465 C466 1.386 . S
C465 C467 1.383 . S
C465 H481 0.951 . S
C466 C465 1.386 . S
C466 C470 1.383 . S
C467 C465 1.383 . S
C467 C468 1.402 . S
C467 H482 0.951 . S
C468 C467 1.402 . S
C468 C469 1.375 . S
C468 C471 1.481 . S
C469 C468 1.375 . S
C469 C470 1.367 . S
C469 H483 0.951 . S
C470 C466 1.383 . S
C470 C469 1.367 . S
C470 H484 0.950 . S
C471 C468 1.481 . S
C471 C472 1.297 . S
C471 H485 0.950 . S
C472 C471 1.297 . S
C472 C473 1.479 . S
C472 H486 0.950 . S
C473 C472 1.479 . S
C473 C474 1.375 . S
C473 C479 1.404 . S
C474 C473 1.375 . S
C474 C475 1.369 . S
C474 H487 0.950 . S
C475 C474 1.369 . S
C475 C476 1.392 . S
C475 H488 0.951 . S
C476 C475 1.392 . S
C476 C478 1.384 . S
H477 C479 0.949 . S
C478 C476 1.384 . S
C478 C479 1.385 . S
C478 H480 0.950 . S
C479 C473 1.404 . S
C479 H477 0.949 . S
C479 C478 1.385 . S
H480 C478 0.950 . S
H481 C465 0.951 . S
H482 C467 0.951 . S
H483 C469 0.951 . S
H484 C470 0.950 . S
H485 C471 0.950 . S
H486 C472 0.950 . S
H487 C474 0.950 . S
H488 C475 0.951 . S
C212 C64 1.477 . S
C202 C3 1.490 . S
C226 C21 1.518 . S
C236 C134 1.513 . S
C250 C37 1.477 . S
C260 C186 1.497 . S
C274 C8 1.497 . S
C284 C80 1.493 . S
C308 C124 1.501 . S
C298 C23 1.469 . S
C322 C35 1.462 . S
C332 C170 1.483 . S
C356 C117 1.475 . S
C346 C31 1.479 . S
C370 C7 1.491 1_565 S
C380 C177 1.495 . S
C404 C71 1.487 . S
C394 C17 1.487 1_565 S
C428 C133 1.452 . S
C418 C36 1.468 . S
C452 C187 1.488 . S
C442 C9 1.492 . S
C466 C22 1.497 . S
C476 C81 1.484 . S
