# Generated by pormake.
# Topology scu, (8,4)-cn, num edge types: 1
# Building blocks:
#     Node 0, Type 0, BuildingBlock: VETTIZ_charged_sbu_0, # of connection points: 8
#     Node 1, Type 1, BuildingBlock: KOZSID_clean_sbu_0, # of connection points: 4
#     Node 2, Type 1, BuildingBlock: KOZSID_clean_sbu_0, # of connection points: 4
#     Edge 3, Type (0, 1), BuildingBlock: CIFDUS_clean_linker_0, # of connection points: 2
#     Edge 4, Type (0, 1), BuildingBlock: CIFDUS_clean_linker_0, # of connection points: 2
#     Edge 5, Type (0, 1), BuildingBlock: CIFDUS_clean_linker_0, # of connection points: 2
#     Edge 6, Type (0, 1), BuildingBlock: CIFDUS_clean_linker_0, # of connection points: 2
#     Edge 7, Type (0, 1), BuildingBlock: CIFDUS_clean_linker_0, # of connection points: 2
#     Edge 8, Type (0, 1), BuildingBlock: CIFDUS_clean_linker_0, # of connection points: 2
#     Edge 9, Type (0, 1), BuildingBlock: CIFDUS_clean_linker_0, # of connection points: 2
#     Edge 10, Type (0, 1), BuildingBlock: CIFDUS_clean_linker_0, # of connection points: 2
# Relax obj value: 0.002
# Max RMSD: 0.031
# Mean RMSD: 0.016
data_MOF--net-scu--node1-VETTIZ_charged_sbu_0--node2-KOZSID_clean_sbu_0--edge1-CIFDUS_clean_linker_0
_symmetry_space_group_name_H-M    P1
_symmetry_Int_Tables_number       1
_symmetry_cell_setting            triclinic
loop_
_symmetry_equiv_pos_as_xyz
'x, y, z'
_cell_length_a     25.798759
_cell_length_b     25.077573
_cell_length_c     18.589664
_cell_angle_alpha  85.133559
_cell_angle_beta   84.98705
_cell_angle_gamma 90.880738
loop_
_atom_site_label
_atom_site_type_symbol
_atom_site_fract_x
_atom_site_fract_y
_atom_site_fract_z
_atom_type_partial_charge
Fe0 Fe 0.99914 0.0183 0.08872 0.0
O1 O 0.95332 0.0282 0.00753 0.0
Fe2 Fe 0.10807 0.96002 0.00771 0.0
Fe3 Fe 0.90169 0.08489 1.00163 0.0
O4 O 0.05528 1.01555 0.00782 0.0
O5 O 0.05594 1.0162 0.99957 0.0
O6 O 0.95395 0.02876 0.99971 0.0
Fe7 Fe 0.00953 0.02323 0.91849 0.0
C8 C 0.8827 0.02161 0.14913 0.0
O9 O 0.0119 0.09964 0.08827 0.0
O10 O 0.9317 0.12877 0.07863 0.0
O11 O 0.07691 0.01778 0.84467 0.0
O12 O 0.14301 1.0062 0.92045 0.0
O13 O 0.13302 1.00255 0.08821 0.0
O14 O 0.05714 1.01007 0.16255 0.0
O15 O 0.94167 0.13503 0.92102 0.0
O16 O 0.02258 0.10499 0.90558 0.0
C17 C 0.10769 1.01276 0.1487 0.0
O18 O 0.99675 0.94128 0.9248 0.0
O19 O 0.07815 0.91462 0.93221 0.0
O20 O 0.93169 0.02128 0.16241 0.0
O21 O 0.86579 0.03725 0.08726 0.0
C22 C 0.97736 0.13453 0.09833 0.0
C23 C 0.98914 0.1412 0.89622 0.0
C24 C 0.90015 0.03118 0.85959 0.0
O25 O 0.87621 0.044 0.91984 0.0
O26 O 0.9507 0.03016 0.84544 0.0
C27 C 0.12602 0.01869 0.8577 0.0
O28 O 0.06918 0.91116 0.09074 0.0
O29 O 0.98661 0.93613 0.09495 0.0
C30 C 0.03212 0.9072 0.91463 0.0
C31 C 0.02104 0.90184 0.10883 0.0
C32 C 0.05285 0.60437 0.38699 0.0
C33 C 0.10085 0.61993 0.35104 0.0
C34 C 0.13677 0.58718 0.38001 0.0
C35 C 0.1088 0.55332 0.43135 0.0
N36 N 0.05699 0.56161 0.43599 0.0
Co37 Co 1.00246 0.52179 0.50454 0.0
N38 N 0.0558 0.47575 0.55066 0.0
C39 C 0.10768 0.47707 0.5316 0.0
C40 C 0.13488 0.44193 0.57348 0.0
C41 C 0.09823 0.41599 0.62177 0.0
C42 C 0.05035 0.43645 0.60605 0.0
N43 N 0.94804 0.48305 0.5746 0.0
C44 C 0.95225 0.44212 0.62654 0.0
C45 C 0.90368 0.42545 0.65992 0.0
C46 C 0.86795 0.45759 0.62952 0.0
C47 C 0.89626 0.49158 0.57884 0.0
N48 N 0.94905 0.56691 0.45695 0.0
C49 C 0.89687 0.56317 0.47257 0.0
C50 C 0.87007 0.60093 0.43425 0.0
C51 C 0.9073 0.6311 0.39197 0.0
C52 C 0.95499 0.60968 0.40655 0.0
N53 N 0.99457 0.467 0.43379 0.0
C54 C 0.98332 0.38756 0.33573 0.0
C55 C 0.94015 0.40704 0.37551 0.0
C56 C 0.94655 0.44637 0.42332 0.0
C57 C 0.03228 0.40884 0.34609 0.0
C58 C 0.03697 0.44797 0.39485 0.0
N59 N 0.01042 0.57661 0.57482 0.0
C60 C 0.97492 0.64774 0.64373 0.0
C61 C 0.0241 0.66102 0.66458 0.0
C62 C 0.06569 0.6293 0.64186 0.0
C63 C 0.05825 0.58841 0.59688 0.0
C64 C 0.96891 0.60536 0.60023 0.0
H65 H 0.09207 0.56737 0.57989 0.0
H66 H 0.93039 0.59724 0.58674 0.0
H67 H 0.91191 0.45915 0.45146 0.0
H68 H 0.07542 0.4621 0.39996 0.0
C69 C 0.13005 0.51387 0.47669 0.0
C70 C 0.00497 0.63306 0.37464 0.0
C71 C 1.00095 0.41703 0.64512 0.0
C72 C 0.87485 0.52851 0.53011 0.0
H73 H 0.10917 0.6523 0.30907 0.0
H74 H 0.17842 0.58843 0.36608 0.0
H75 H 0.17652 0.43637 0.57 0.0
H76 H 0.10615 0.38563 0.66402 0.0
H77 H 0.89451 0.39273 0.70098 0.0
H78 H 0.8261 0.45531 0.64136 0.0
H79 H 0.82858 0.60748 0.43919 0.0
H80 H 0.89986 0.66606 0.35659 0.0
H81 H 0.9013 0.39153 0.3708 0.0
H82 H 0.06706 0.39593 0.31611 0.0
H83 H 0.94111 0.6706 0.65911 0.0
H84 H 0.10439 0.6359 0.65808 0.0
C85 C 0.41749 0.97463 0.62107 0.0
C86 C 0.39169 0.92967 0.65677 0.0
C87 C 0.41539 0.88626 0.63025 0.0
C88 C 0.45419 0.90708 0.58025 0.0
N89 N 0.45789 0.96117 0.57488 0.0
Co90 Co 0.50414 1.00789 0.5024 0.0
N91 N 0.53598 0.94421 0.4585 0.0
C92 C 0.52518 0.89203 0.48002 0.0
C93 C 0.55732 0.8574 0.4455 0.0
C94 C 0.59179 0.88936 0.4007 0.0
C95 C 0.57831 0.94184 0.41019 0.0
N96 N 0.54817 0.0546 0.42755 0.0
C97 C 0.58765 0.04164 0.37973 0.0
C98 C 0.6089 0.08652 0.33804 0.0
C99 C 0.583 0.12953 0.36217 0.0
C100 C 0.54733 0.10852 0.4166 0.0
N101 N 0.47471 0.07155 0.54884 0.0
C102 C 0.48849 0.1235 0.53048 0.0
C103 C 0.45965 0.15849 0.56927 0.0
C104 C 0.42464 0.12713 0.61396 0.0
C105 C 0.43426 0.07448 0.59998 0.0
N106 N 0.56132 1.00637 0.56742 0.0
C107 C 0.64906 0.99945 0.64799 0.0
C108 C 0.63865 0.04677 0.60699 0.0
C109 C 0.59462 0.04951 0.5679 0.0
C110 C 0.61421 0.95615 0.64905 0.0
C111 C 0.57095 0.96048 0.60905 0.0
N112 N 0.44651 1.00902 0.43779 0.0
C113 C 0.37275 0.05512 0.39218 0.0
C114 C 0.3498 1.00674 0.37746 0.0
C115 C 0.37859 0.96029 0.38763 0.0
C116 C 0.42631 0.96229 0.4175 0.0
C117 C 0.42121 0.05545 0.42055 0.0
H118 H 0.44526 0.92512 0.42551 0.0
H119 H 0.43647 0.09364 0.43046 0.0
H120 H 0.58852 0.08678 0.53797 0.0
H121 H 0.54628 0.92583 0.61188 0.0
C122 C 0.4864 0.87714 0.53557 0.0
C123 C 0.40076 0.02919 0.63052 0.0
C124 C 0.60864 0.98819 0.37579 0.0
C125 C 0.5205 0.13836 0.46724 0.0
H126 H 0.35825 0.92839 0.69637 0.0
H127 H 0.40453 0.84453 0.64403 0.0
H128 H 0.55706 0.81416 0.45407 0.0
H129 H 0.62424 0.87557 0.36683 0.0
H130 H 0.6414 0.08823 0.29687 0.0
H131 H 0.59166 0.17136 0.34551 0.0
H132 H 0.46109 0.20179 0.56186 0.0
H133 H 0.39361 0.1418 0.64947 0.0
H134 H 0.66387 0.08182 0.60591 0.0
H135 H 0.62054 0.91862 0.68003 0.0
H136 H 0.35292 0.0926 0.38428 0.0
H137 H 0.36421 0.92209 0.37356 0.0
H138 H 0.91851 0.22259 0.11738 0.0
H139 H 0.06222 0.15092 0.17378 0.0
H140 H 0.07739 0.22306 0.2504 0.0
H141 H 0.04753 0.30401 0.3068 0.0
H142 H 0.90492 0.37658 0.24714 0.0
H143 H 0.89152 0.3062 0.16768 0.0
C144 C 0.95336 0.22279 0.14603 0.0
C145 C 0.98896 0.18098 0.13981 0.0
C146 C 0.96184 0.26435 0.19033 0.0
C147 C 0.03408 0.18243 0.17718 0.0
C148 C 0.04272 0.22364 0.2214 0.0
C149 C 0.01386 0.30501 0.27573 0.0
C150 C 0.97702 0.34561 0.28412 0.0
C151 C 0.00655 0.26452 0.2291 0.0
C152 C 0.9334 0.34544 0.24356 0.0
C153 C 0.92584 0.30532 0.19745 0.0
H154 H 0.7924 0.97075 0.13512 0.0
H155 H 0.87951 0.03912 0.29373 0.0
H156 H 0.80219 0.03066 0.3815 0.0
H157 H 0.70662 1.01372 0.40689 0.0
H158 H 0.62079 0.94871 0.24453 0.0
H159 H 0.70073 0.94616 0.16382 0.0
C160 C 0.79475 0.98304 0.18936 0.0
C161 C 0.84137 1.00603 0.20781 0.0
C162 C 0.75012 0.97929 0.23826 0.0
C163 C 0.84412 0.0211 0.27843 0.0
C164 C 0.79976 1.0168 0.32822 0.0
C165 C 0.70596 0.99828 0.35419 0.0
C166 C 0.65833 0.98124 0.33121 0.0
C167 C 0.75211 0.99754 0.30785 0.0
C168 C 0.65727 0.96161 0.263 0.0
C169 C 0.70284 0.96031 0.21701 0.0
H170 H 0.0547 0.87003 0.23788 0.0
H171 H 0.95639 0.82088 0.07875 0.0
H172 H 0.94236 0.73258 0.14676 0.0
H173 H 0.96301 0.66767 0.2484 0.0
H174 H 0.05549 0.7207 0.41208 0.0
H175 H 0.06759 0.80898 0.34526 0.0
C176 C 0.0296 0.8401 0.21883 0.0
C177 C 0.0065 0.85157 0.15373 0.0
C178 C 0.02126 0.79007 0.25868 0.0
C179 C 0.97407 0.81285 0.12921 0.0
C180 C 0.96642 0.76236 0.16781 0.0
C181 C 0.98492 0.69898 0.26996 0.0
C182 C 0.00834 0.68777 0.33514 0.0
C183 C 0.99042 0.75025 0.23218 0.0
C184 C 0.03729 0.7284 0.36197 0.0
C185 C 0.04412 0.77884 0.32387 0.0
H186 H 0.13259 0.9504 0.26575 0.0
H187 H 0.16029 0.10582 0.15037 0.0
H188 H 0.23708 0.11985 0.21543 0.0
H189 H 0.30323 0.08185 0.28994 0.0
H190 H 0.27546 0.92645 0.40746 0.0
H191 H 0.19256 0.91801 0.35562 0.0
C192 C 0.15433 0.98814 0.2574 0.0
C193 C 0.1407 0.02745 0.20455 0.0
C194 C 0.19946 0.99509 0.29328 0.0
C195 C 0.16981 0.07558 0.19205 0.0
C196 C 0.21407 0.08322 0.22842 0.0
C197 C 0.27871 0.04662 0.30591 0.0
C198 C 0.29668 1.00435 0.35137 0.0
C199 C 0.23046 0.04231 0.2769 0.0
C200 C 0.26391 0.95893 0.37054 0.0
C201 C 0.216 0.95425 0.3416 0.0
H202 H 0.09888 0.86075 0.8201 0.0
H203 H 0.94105 0.84851 0.91825 0.0
H204 H 0.92465 0.77043 0.85148 0.0
H205 H 0.956 0.70515 0.76594 0.0
H206 H 0.11167 0.72559 0.65889 0.0
H207 H 0.12809 0.79988 0.72955 0.0
C208 C 0.06093 0.84078 0.82726 0.0
C209 C 0.02142 0.85997 0.87472 0.0
C210 C 0.05147 0.79701 0.78736 0.0
C211 C 0.97214 0.83441 0.88215 0.0
C212 C 0.96283 0.78975 0.84402 0.0
C213 C 0.99337 0.72603 0.75708 0.0
C214 C 0.03274 0.70816 0.70746 0.0
C215 C 1.00225 0.77066 0.79629 0.0
C216 C 0.08094 0.73633 0.69805 0.0
C217 C 0.09036 0.7796 0.73801 0.0
H218 H 0.21953 0.06369 0.86907 0.0
H219 H 0.12704 0.99866 0.71358 0.0
H220 H 0.20441 0.99986 0.62607 0.0
H221 H 0.30092 1.00972 0.60025 0.0
H222 H 0.3918 0.06745 0.76262 0.0
H223 H 0.31259 0.07806 0.84183 0.0
C224 C 0.21598 0.05036 0.81564 0.0
C225 C 0.1677 0.03059 0.79809 0.0
C226 C 0.26066 0.04903 0.76751 0.0
C227 C 0.16366 1.01433 0.72829 0.0
C228 C 0.20805 1.01437 0.67871 0.0
C229 C 0.30293 0.02506 0.65279 0.0
C230 C 0.35179 0.03818 0.67587 0.0
C231 C 0.2571 0.02998 0.69871 0.0
C232 C 0.35448 0.05762 0.74394 0.0
C233 C 0.30929 0.06361 0.78906 0.0
H234 H 0.96409 0.24425 0.91521 0.0
H235 H 0.04508 0.14574 0.76505 0.0
H236 H 0.05596 0.22223 0.67349 0.0
H237 H 0.03609 0.31564 0.63306 0.0
H238 H 0.96458 0.41684 0.78771 0.0
H239 H 0.95577 0.34098 0.88038 0.0
C240 C 0.98489 0.23993 0.8628 0.0
C241 C 0.00359 0.1895 0.84666 0.0
C242 C 0.99192 0.28437 0.81096 0.0
C243 C 0.03073 0.1843 0.77884 0.0
C244 C 0.03655 0.22791 0.72629 0.0
C245 C 0.01931 0.32117 0.6874 0.0
C246 C 0.99999 0.37151 0.70313 0.0
C247 C 0.01638 0.27789 0.74124 0.0
C248 C 0.97875 0.37822 0.77394 0.0
C249 C 0.97391 0.33493 0.82697 0.0
H250 H 0.80975 0.97657 0.88383 0.0
H251 H 0.91117 0.05917 0.71225 0.0
H252 H 0.84233 0.05469 0.62909 0.0
H253 H 0.7498 0.03497 0.61005 0.0
H254 H 0.64956 0.9557 0.78653 0.0
H255 H 0.72138 0.9515 0.86309 0.0
C256 C 0.81712 0.99291 0.82782 0.0
C257 C 0.86519 0.0185 0.80419 0.0
C258 C 0.77722 0.99149 0.78166 0.0
C259 C 0.87454 0.03893 0.73145 0.0
C260 C 0.83496 0.03695 0.68433 0.0
C261 C 0.74384 1.01679 0.66526 0.0
C262 C 0.69423 0.9958 0.69255 0.0
C263 C 0.78554 1.01477 0.70958 0.0
C264 C 0.6873 0.97166 0.76386 0.0
C265 C 0.72833 0.96939 0.80785 0.0
loop_
_geom_bond_atom_site_label_1
_geom_bond_atom_site_label_2
_geom_bond_distance
_geom_bond_site_symmetry_2
_ccdc_geom_bond_type
Fe0 O1 1.886 1_565 S
Fe0 O4 1.715 1_655 S
Fe0 O9 2.077 1_565 S
Fe0 O14 1.935 1_665 S
Fe0 O20 2.077 . S
Fe0 O29 1.935 . S
O1 Fe0 1.886 1_545 S
O1 Fe3 1.715 1_554 S
Fe2 O4 1.886 . S
Fe2 O5 1.715 1_554 S
Fe2 O12 1.935 1_554 S
Fe2 O13 2.077 . S
Fe2 O19 1.935 1_554 S
Fe2 O28 2.077 . S
Fe3 O1 1.715 1_556 S
Fe3 O6 1.886 . S
Fe3 O10 1.935 1_556 S
Fe3 O15 2.077 . S
Fe3 O21 1.935 1_556 S
Fe3 O25 2.077 . S
O4 Fe0 1.715 1_455 S
O4 Fe2 1.886 . S
O5 Fe2 1.715 1_556 S
O5 Fe7 1.886 1_565 S
O6 Fe3 1.886 . S
O6 Fe7 1.715 1_655 S
Fe7 O5 1.886 1_545 S
Fe7 O6 1.715 1_455 S
Fe7 O11 2.077 . S
Fe7 O16 1.935 . S
Fe7 O18 2.077 1_545 S
Fe7 O26 1.935 1_445 S
C8 O20 1.381 1_545 S
C8 O21 1.421 . S
O9 Fe0 2.077 1_545 S
O9 C22 1.381 . S
O10 Fe3 1.935 1_554 S
O10 C22 1.421 . S
O11 Fe7 2.077 . S
O11 C27 1.381 1_545 S
O12 Fe2 1.935 1_556 S
O12 C27 1.421 . S
O13 Fe2 2.077 . S
O13 C17 1.381 . S
O14 Fe0 1.935 1_445 S
O14 C17 1.421 1_545 S
O15 Fe3 2.077 . S
O15 C23 1.381 . S
O16 Fe7 1.935 . S
O16 C23 1.421 1_455 S
C17 O13 1.381 . S
C17 O14 1.421 1_565 S
O18 Fe7 2.077 1_565 S
O18 C30 1.381 . S
O19 Fe2 1.935 1_556 S
O19 C30 1.421 . S
O20 Fe0 2.077 . S
O20 C8 1.381 1_565 S
O21 Fe3 1.935 1_554 S
O21 C8 1.421 . S
C22 O9 1.381 . S
C22 O10 1.421 . S
C23 O15 1.381 . S
C23 O16 1.421 1_655 S
C24 O25 1.381 . S
C24 O26 1.421 1_545 S
O25 Fe3 2.077 . S
O25 C24 1.381 . S
O26 Fe7 1.935 1_665 S
O26 C24 1.421 1_565 S
C27 O11 1.381 1_565 S
C27 O12 1.421 . S
O28 Fe2 2.077 . S
O28 C31 1.381 . S
O29 Fe0 1.935 . S
O29 C31 1.421 1_655 S
C30 O18 1.381 . S
C30 O19 1.421 . S
C31 O28 1.381 . S
C31 O29 1.421 1_455 S
C32 C33 1.443 . S
C32 N36 1.376 . S
C32 C70 1.404 . S
C33 C32 1.443 . S
C33 C34 1.340 . S
C33 H73 0.951 . S
C34 C33 1.340 . S
C34 C35 1.439 . S
C34 H74 0.950 . S
C35 C34 1.439 . S
C35 N36 1.374 . S
C35 C69 1.395 . S
N36 C32 1.376 . S
N36 C35 1.374 . S
N36 Co37 2.008 . S
Co37 N36 2.008 . S
Co37 N38 1.995 . S
Co37 N43 2.008 1_455 S
Co37 N48 1.995 1_455 S
Co37 N53 2.282 . S
Co37 N59 2.282 1_455 S
N38 Co37 1.995 . S
N38 C39 1.376 . S
N38 C42 1.383 . S
C39 N38 1.376 . S
C39 C40 1.446 . S
C39 C69 1.391 . S
C40 C39 1.446 . S
C40 C41 1.339 . S
C40 H75 0.949 . S
C41 C40 1.339 . S
C41 C42 1.439 . S
C41 H76 0.950 . S
C42 N38 1.383 . S
C42 C41 1.439 . S
C42 C71 1.382 1_455 S
N43 Co37 2.008 1_655 S
N43 C44 1.376 . S
N43 C47 1.374 . S
C44 N43 1.376 . S
C44 C45 1.443 . S
C44 C71 1.399 . S
C45 C44 1.443 . S
C45 C46 1.340 . S
C45 H77 0.951 . S
C46 C45 1.340 . S
C46 C47 1.439 . S
C46 H78 0.950 . S
C47 N43 1.374 . S
C47 C46 1.439 . S
C47 C72 1.395 . S
N48 Co37 1.995 1_655 S
N48 C49 1.376 . S
N48 C52 1.383 . S
C49 N48 1.376 . S
C49 C50 1.446 . S
C49 C72 1.391 . S
C50 C49 1.446 . S
C50 C51 1.339 . S
C50 H79 0.949 . S
C51 C50 1.339 . S
C51 C52 1.439 . S
C51 H80 0.950 . S
C52 N48 1.383 . S
C52 C51 1.439 . S
C52 C70 1.378 1_655 S
N53 Co37 2.282 . S
N53 C56 1.332 1_455 S
N53 C58 1.332 . S
C54 C55 1.375 1_455 S
C54 C57 1.400 . S
C55 C54 1.375 1_655 S
C55 C56 1.382 . S
C55 H81 0.950 . S
C56 N53 1.332 1_655 S
C56 C55 1.382 . S
C56 H67 0.952 . S
C57 C54 1.400 . S
C57 C58 1.382 . S
C57 H82 0.950 . S
C58 N53 1.332 . S
C58 C57 1.382 . S
C58 H68 0.948 . S
N59 Co37 2.282 1_655 S
N59 C63 1.332 1_655 S
N59 C64 1.332 . S
C60 C61 1.395 . S
C60 C64 1.382 . S
C60 H83 0.950 . S
C61 C60 1.395 . S
C61 C62 1.379 1_655 S
C62 C61 1.379 1_455 S
C62 C63 1.382 . S
C62 H84 0.950 . S
C63 N59 1.332 1_455 S
C63 C62 1.382 . S
C63 H65 0.952 . S
C64 N59 1.332 . S
C64 C60 1.382 . S
C64 H66 0.948 . S
H65 C63 0.952 . S
H66 C64 0.948 . S
H67 C56 0.952 . S
H68 C58 0.948 . S
C69 C35 1.395 . S
C69 C39 1.391 . S
C70 C32 1.404 . S
C70 C52 1.378 1_455 S
C71 C42 1.382 1_655 S
C71 C44 1.399 . S
C72 C47 1.395 . S
C72 C49 1.391 . S
H73 C33 0.951 . S
H74 C34 0.950 . S
H75 C40 0.949 . S
H76 C41 0.950 . S
H77 C45 0.951 . S
H78 C46 0.950 . S
H79 C50 0.949 . S
H80 C51 0.950 . S
H81 C55 0.950 . S
H82 C57 0.950 . S
H83 C60 0.950 . S
H84 C62 0.950 . S
C85 C86 1.443 . S
C85 N89 1.376 . S
C85 C123 1.399 . S
C86 C85 1.443 . S
C86 C87 1.340 . S
C86 H126 0.951 . S
C87 C86 1.340 . S
C87 C88 1.439 . S
C87 H127 0.950 . S
C88 C87 1.439 . S
C88 N89 1.374 . S
C88 C122 1.395 . S
N89 C85 1.376 . S
N89 C88 1.374 . S
N89 Co90 2.008 1_565 S
Co90 N89 2.008 1_545 S
Co90 N91 1.995 1_545 S
Co90 N96 2.008 . S
Co90 N101 1.995 . S
Co90 N106 2.282 1_545 S
Co90 N112 2.282 . S
N91 Co90 1.995 1_565 S
N91 C92 1.376 . S
N91 C95 1.383 . S
C92 N91 1.376 . S
C92 C93 1.446 . S
C92 C122 1.391 . S
C93 C92 1.446 . S
C93 C94 1.339 . S
C93 H128 0.949 . S
C94 C93 1.339 . S
C94 C95 1.439 . S
C94 H129 0.950 . S
C95 N91 1.383 . S
C95 C94 1.439 . S
C95 C124 1.378 1_565 S
N96 Co90 2.008 . S
N96 C97 1.376 . S
N96 C100 1.374 . S
C97 N96 1.376 . S
C97 C98 1.443 . S
C97 C124 1.404 . S
C98 C97 1.443 . S
C98 C99 1.340 . S
C98 H130 0.951 . S
C99 C98 1.340 . S
C99 C100 1.439 . S
C99 H131 0.950 . S
C100 N96 1.374 . S
C100 C99 1.439 . S
C100 C125 1.395 . S
N101 Co90 1.995 . S
N101 C102 1.376 . S
N101 C105 1.383 . S
C102 N101 1.376 . S
C102 C103 1.446 . S
C102 C125 1.391 . S
C103 C102 1.446 . S
C103 C104 1.339 . S
C103 H132 0.949 . S
C104 C103 1.339 . S
C104 C105 1.439 . S
C104 H133 0.950 . S
C105 N101 1.383 . S
C105 C104 1.439 . S
C105 C123 1.382 1_545 S
N106 Co90 2.282 1_565 S
N106 C109 1.332 1_565 S
N106 C111 1.332 . S
C107 C108 1.379 1_565 S
C107 C110 1.395 . S
C108 C107 1.379 1_545 S
C108 C109 1.382 . S
C108 H134 0.950 . S
C109 N106 1.332 1_545 S
C109 C108 1.382 . S
C109 H120 0.952 . S
C110 C107 1.395 . S
C110 C111 1.382 . S
C110 H135 0.950 . S
C111 N106 1.332 . S
C111 C110 1.382 . S
C111 H121 0.948 . S
N112 Co90 2.282 . S
N112 C116 1.332 1_545 S
N112 C117 1.332 . S
C113 C114 1.400 . S
C113 C117 1.382 . S
C113 H136 0.950 . S
C114 C113 1.400 . S
C114 C115 1.375 1_545 S
C115 C114 1.375 1_565 S
C115 C116 1.382 . S
C115 H137 0.950 . S
C116 N112 1.332 1_565 S
C116 C115 1.382 . S
C116 H118 0.952 . S
C117 N112 1.332 . S
C117 C113 1.382 . S
C117 H119 0.948 . S
H118 C116 0.952 . S
H119 C117 0.948 . S
H120 C109 0.952 . S
H121 C111 0.948 . S
C122 C88 1.395 . S
C122 C92 1.391 . S
C123 C85 1.399 . S
C123 C105 1.382 1_565 S
C124 C95 1.378 1_545 S
C124 C97 1.404 . S
C125 C100 1.395 . S
C125 C102 1.391 . S
H126 C86 0.951 . S
H127 C87 0.950 . S
H128 C93 0.949 . S
H129 C94 0.950 . S
H130 C98 0.951 . S
H131 C99 0.950 . S
H132 C103 0.949 . S
H133 C104 0.950 . S
H134 C108 0.950 . S
H135 C110 0.950 . S
H136 C113 0.950 . S
H137 C115 0.950 . S
H138 C144 0.930 . S
H139 C147 0.930 . S
H140 C148 0.930 . S
H141 C149 0.928 1_455 S
H142 C152 0.930 . S
H143 C153 0.930 . S
C144 H138 0.930 . S
C144 C145 1.355 . S
C144 C146 1.415 . S
C145 C144 1.355 . S
C145 C147 1.419 1_655 S
C146 C144 1.415 . S
C146 C151 1.427 . S
C146 C153 1.409 . S
C147 H139 0.930 . S
C147 C145 1.419 1_455 S
C147 C148 1.362 . S
C148 H140 0.930 . S
C148 C147 1.362 . S
C148 C151 1.408 1_455 S
C149 H141 0.928 1_655 S
C149 C150 1.356 . S
C149 C151 1.415 . S
C150 C149 1.356 . S
C150 C152 1.419 . S
C151 C146 1.427 . S
C151 C148 1.408 1_655 S
C151 C149 1.415 . S
C152 H142 0.930 . S
C152 C150 1.419 . S
C152 C153 1.362 . S
C153 H143 0.930 . S
C153 C146 1.409 . S
C153 C152 1.362 . S
H154 C160 0.930 . S
H155 C163 0.930 . S
H156 C164 0.930 . S
H157 C165 0.930 . S
H158 C168 0.930 . S
H159 C169 0.930 . S
C160 H154 0.930 . S
C160 C161 1.355 . S
C160 C162 1.415 . S
C161 C160 1.355 . S
C161 C163 1.419 1_565 S
C162 C160 1.415 . S
C162 C167 1.421 1_565 S
C162 C169 1.409 . S
C163 H155 0.930 . S
C163 C161 1.419 1_545 S
C163 C164 1.362 . S
C164 H156 0.930 . S
C164 C163 1.362 . S
C164 C167 1.411 . S
C165 H157 0.930 . S
C165 C166 1.355 1_545 S
C165 C167 1.417 . S
C166 C165 1.355 1_565 S
C166 C168 1.419 . S
C167 C162 1.421 1_545 S
C167 C164 1.411 . S
C167 C165 1.417 . S
C168 H158 0.930 . S
C168 C166 1.419 . S
C168 C169 1.362 . S
C169 H159 0.930 . S
C169 C162 1.409 . S
C169 C168 1.362 . S
H170 C176 0.930 . S
H171 C179 0.930 . S
H172 C180 0.930 . S
H173 C181 0.930 . S
H174 C184 0.930 . S
H175 C185 0.930 . S
C176 H170 0.930 . S
C176 C177 1.355 1_455 S
C176 C178 1.414 . S
C177 C176 1.355 1_655 S
C177 C179 1.419 . S
C178 C176 1.414 . S
C178 C183 1.424 1_455 S
C178 C185 1.411 . S
C179 H171 0.930 . S
C179 C177 1.419 . S
C179 C180 1.362 . S
C180 H172 0.930 . S
C180 C179 1.362 . S
C180 C183 1.409 . S
C181 H173 0.930 . S
C181 C182 1.355 . S
C181 C183 1.415 . S
C182 C181 1.355 . S
C182 C184 1.419 1_655 S
C183 C178 1.424 1_655 S
C183 C180 1.409 . S
C183 C181 1.415 . S
C184 H174 0.930 . S
C184 C182 1.419 1_455 S
C184 C185 1.362 . S
C185 H175 0.930 . S
C185 C178 1.411 . S
C185 C184 1.362 . S
H186 C192 0.930 . S
H187 C195 0.930 . S
H188 C196 0.930 . S
H189 C197 0.930 . S
H190 C200 0.930 . S
H191 C201 0.930 . S
C192 H186 0.930 . S
C192 C193 1.356 . S
C192 C194 1.415 . S
C193 C192 1.356 . S
C193 C195 1.416 1_565 S
C194 C192 1.415 . S
C194 C199 1.425 1_565 S
C194 C201 1.409 . S
C195 H187 0.930 . S
C195 C193 1.416 1_545 S
C195 C196 1.362 . S
C196 H188 0.930 . S
C196 C195 1.362 . S
C196 C199 1.409 . S
C197 H189 0.930 . S
C197 C198 1.355 1_545 S
C197 C199 1.415 . S
C198 C197 1.355 1_565 S
C198 C200 1.419 . S
C199 C194 1.425 1_545 S
C199 C196 1.409 . S
C199 C197 1.415 . S
C200 H190 0.930 . S
C200 C198 1.419 . S
C200 C201 1.362 . S
C201 H191 0.930 . S
C201 C194 1.409 . S
C201 C200 1.362 . S
H202 C208 0.930 . S
H203 C211 0.930 . S
H204 C212 0.930 . S
H205 C213 0.930 . S
H206 C216 0.930 . S
H207 C217 0.930 . S
C208 H202 0.930 . S
C208 C209 1.345 1_455 S
C208 C210 1.415 . S
C209 C208 1.345 1_655 S
C209 C211 1.432 . S
C210 C208 1.415 . S
C210 C215 1.425 1_455 S
C210 C217 1.409 . S
C211 H203 0.930 . S
C211 C209 1.432 . S
C211 C212 1.362 . S
C212 H204 0.930 . S
C212 C211 1.362 . S
C212 C215 1.409 . S
C213 H205 0.930 . S
C213 C214 1.355 1_655 S
C213 C215 1.415 . S
C214 C213 1.355 1_455 S
C214 C216 1.419 . S
C215 C210 1.425 1_655 S
C215 C212 1.409 . S
C215 C213 1.415 . S
C216 H206 0.930 . S
C216 C214 1.419 . S
C216 C217 1.362 . S
C217 H207 0.930 . S
C217 C210 1.409 . S
C217 C216 1.362 . S
H218 C224 0.930 1_565 S
H219 C227 0.930 . S
H220 C228 0.930 . S
H221 C229 0.930 . S
H222 C232 0.930 . S
H223 C233 0.930 . S
C224 H218 0.930 1_545 S
C224 C225 1.355 . S
C224 C226 1.414 1_545 S
C225 C224 1.355 . S
C225 C227 1.419 . S
C226 C224 1.414 1_565 S
C226 C231 1.425 1_565 S
C226 C233 1.410 . S
C227 H219 0.930 . S
C227 C225 1.419 . S
C227 C228 1.362 . S
C228 H220 0.930 . S
C228 C227 1.362 . S
C228 C231 1.409 . S
C229 H221 0.930 . S
C229 C230 1.355 1_545 S
C229 C231 1.415 . S
C230 C229 1.355 1_565 S
C230 C232 1.419 . S
C231 C226 1.425 1_545 S
C231 C228 1.409 . S
C231 C229 1.415 . S
C232 H222 0.930 . S
C232 C230 1.419 . S
C232 C233 1.362 . S
C233 H223 0.930 . S
C233 C226 1.410 . S
C233 C232 1.362 . S
H234 C240 0.930 . S
H235 C243 0.930 . S
H236 C244 0.930 . S
H237 C245 0.930 . S
H238 C248 0.930 . S
H239 C249 0.930 . S
C240 H234 0.930 . S
C240 C241 1.348 1_455 S
C240 C242 1.415 . S
C241 C240 1.348 1_655 S
C241 C243 1.429 . S
C242 C240 1.415 . S
C242 C247 1.425 1_455 S
C242 C249 1.409 . S
C243 H235 0.930 . S
C243 C241 1.429 . S
C243 C244 1.362 . S
C244 H236 0.930 . S
C244 C243 1.362 . S
C244 C247 1.409 . S
C245 H237 0.930 . S
C245 C246 1.355 1_655 S
C245 C247 1.415 . S
C246 C245 1.355 1_455 S
C246 C248 1.419 . S
C247 C242 1.425 1_655 S
C247 C244 1.409 . S
C247 C245 1.415 . S
C248 H238 0.930 . S
C248 C246 1.419 . S
C248 C249 1.362 . S
C249 H239 0.930 . S
C249 C242 1.409 . S
C249 C248 1.362 . S
H250 C256 0.930 . S
H251 C259 0.930 . S
H252 C260 0.930 . S
H253 C261 0.930 . S
H254 C264 0.930 . S
H255 C265 0.930 . S
C256 H250 0.930 . S
C256 C257 1.355 1_565 S
C256 C258 1.415 . S
C257 C256 1.355 1_545 S
C257 C259 1.419 . S
C258 C256 1.415 . S
C258 C263 1.425 1_565 S
C258 C265 1.409 . S
C259 H251 0.930 . S
C259 C257 1.419 . S
C259 C260 1.362 . S
C260 H252 0.930 . S
C260 C259 1.362 . S
C260 C263 1.409 . S
C261 H253 0.930 . S
C261 C262 1.357 . S
C261 C263 1.415 . S
C262 C261 1.357 . S
C262 C264 1.417 1_545 S
C263 C258 1.425 1_545 S
C263 C260 1.409 . S
C263 C261 1.415 . S
C264 H254 0.930 . S
C264 C262 1.417 1_565 S
C264 C265 1.362 . S
C265 H255 0.930 . S
C265 C258 1.409 . S
C265 C264 1.362 . S
C145 C22 1.381 . S
C150 C54 1.414 1_655 S
C161 C8 1.476 1_565 S
C166 C124 1.556 1_565 S
C177 C31 1.519 1_655 S
C182 C70 1.562 1_655 S
C193 C17 1.415 . S
C198 C114 1.421 1_565 S
C209 C30 1.406 1_655 S
C214 C61 1.423 1_455 S
C225 C27 1.507 1_545 S
C230 C123 1.558 . S
C246 C71 1.558 1_455 S
C241 C23 1.471 . S
C257 C24 1.351 . S
C262 C107 1.418 1_545 S
