# Generated by pormake.
# Topology csq, (4,8)-cn, num edge types: 1
# Building blocks:
#     Node 0, Type 0, BuildingBlock: NAWXER_clean_sbu_0, # of connection points: 4
#     Node 1, Type 0, BuildingBlock: NAWXER_clean_sbu_0, # of connection points: 4
#     Node 2, Type 0, BuildingBlock: NAWXER_clean_sbu_0, # of connection points: 4
#     Node 3, Type 0, BuildingBlock: NAWXER_clean_sbu_0, # of connection points: 4
#     Node 4, Type 0, BuildingBlock: NAWXER_clean_sbu_0, # of connection points: 4
#     Node 5, Type 0, BuildingBlock: NAWXER_clean_sbu_0, # of connection points: 4
#     Node 6, Type 1, BuildingBlock: TAGTUT_clean_sbu_3, # of connection points: 8
#     Node 7, Type 1, BuildingBlock: TAGTUT_clean_sbu_3, # of connection points: 8
#     Node 8, Type 1, BuildingBlock: TAGTUT_clean_sbu_3, # of connection points: 8
#     Edge 9, Type (0, 1), BuildingBlock: EZIPEK_clean_linker_0, # of connection points: 2
#     Edge 10, Type (0, 1), BuildingBlock: EZIPEK_clean_linker_0, # of connection points: 2
#     Edge 11, Type (0, 1), BuildingBlock: EZIPEK_clean_linker_0, # of connection points: 2
#     Edge 12, Type (0, 1), BuildingBlock: EZIPEK_clean_linker_0, # of connection points: 2
#     Edge 13, Type (0, 1), BuildingBlock: EZIPEK_clean_linker_0, # of connection points: 2
#     Edge 14, Type (0, 1), BuildingBlock: EZIPEK_clean_linker_0, # of connection points: 2
#     Edge 15, Type (0, 1), BuildingBlock: EZIPEK_clean_linker_0, # of connection points: 2
#     Edge 16, Type (0, 1), BuildingBlock: EZIPEK_clean_linker_0, # of connection points: 2
#     Edge 17, Type (0, 1), BuildingBlock: EZIPEK_clean_linker_0, # of connection points: 2
#     Edge 18, Type (0, 1), BuildingBlock: EZIPEK_clean_linker_0, # of connection points: 2
#     Edge 19, Type (0, 1), BuildingBlock: EZIPEK_clean_linker_0, # of connection points: 2
#     Edge 20, Type (0, 1), BuildingBlock: EZIPEK_clean_linker_0, # of connection points: 2
#     Edge 21, Type (0, 1), BuildingBlock: EZIPEK_clean_linker_0, # of connection points: 2
#     Edge 22, Type (0, 1), BuildingBlock: EZIPEK_clean_linker_0, # of connection points: 2
#     Edge 23, Type (0, 1), BuildingBlock: EZIPEK_clean_linker_0, # of connection points: 2
#     Edge 24, Type (0, 1), BuildingBlock: EZIPEK_clean_linker_0, # of connection points: 2
#     Edge 25, Type (0, 1), BuildingBlock: EZIPEK_clean_linker_0, # of connection points: 2
#     Edge 26, Type (0, 1), BuildingBlock: EZIPEK_clean_linker_0, # of connection points: 2
#     Edge 27, Type (0, 1), BuildingBlock: EZIPEK_clean_linker_0, # of connection points: 2
#     Edge 28, Type (0, 1), BuildingBlock: EZIPEK_clean_linker_0, # of connection points: 2
#     Edge 29, Type (0, 1), BuildingBlock: EZIPEK_clean_linker_0, # of connection points: 2
#     Edge 30, Type (0, 1), BuildingBlock: EZIPEK_clean_linker_0, # of connection points: 2
#     Edge 31, Type (0, 1), BuildingBlock: EZIPEK_clean_linker_0, # of connection points: 2
#     Edge 32, Type (0, 1), BuildingBlock: EZIPEK_clean_linker_0, # of connection points: 2
# Relax obj value: 0.043
# Max RMSD: 0.113
# Mean RMSD: 0.074
data_MOF--net-csq--node1-NAWXER_clean_sbu_0--node2-TAGTUT_clean_sbu_3--edge1-EZIPEK_clean_linker_0
_symmetry_space_group_name_H-M    P1
_symmetry_Int_Tables_number       1
_symmetry_cell_setting            triclinic
loop_
_symmetry_equiv_pos_as_xyz
'x, y, z'
_cell_length_a     37.678763
_cell_length_b     36.815278
_cell_length_c     14.441228
_cell_angle_alpha  93.118114
_cell_angle_beta   93.148562
_cell_angle_gamma 119.35696
loop_
_atom_site_label
_atom_site_type_symbol
_atom_site_fract_x
_atom_site_fract_y
_atom_site_fract_z
_atom_type_partial_charge
C0 C 0.28435 0.43772 0.12598 0.0
C1 C 0.1819 0.44852 0.3102 0.0
O2 O 0.28362 0.47195 0.13233 0.0
Zn3 Zn 0.25487 0.50185 0.18999 0.0
O4 O 0.25762 0.40582 0.16249 0.0
Zn5 Zn 0.22925 0.434 0.21869 0.0
O6 O 0.20041 0.44315 0.10165 0.0
O7 O 0.22797 0.50993 0.07653 0.0
O8 O 0.18471 0.41523 0.30298 0.0
O9 O 0.20641 0.48019 0.2705 0.0
O10 O 0.30017 0.54175 0.28354 0.0
O11 O 0.2776 0.476 0.31043 0.0
C12 C 0.20126 0.47156 0.05346 0.0
C13 C 0.30269 0.51466 0.33124 0.0
C14 C 0.68432 0.19645 0.04585 0.0
C15 C 0.79993 0.28718 0.27776 0.0
O16 O 0.71543 0.19132 0.04188 0.0
Zn17 Zn 0.77548 0.21662 0.1086 0.0
O18 O 0.68606 0.22567 0.10082 0.0
Zn19 Zn 0.74185 0.24637 0.15656 0.0
O20 O 0.77936 0.27591 0.04815 0.0
O21 O 0.81191 0.24148 0.01586 0.0
O22 O 0.76745 0.28948 0.26331 0.0
O23 O 0.80496 0.26216 0.22263 0.0
O24 O 0.77126 0.16769 0.16111 0.0
O25 O 0.73321 0.19228 0.22047 0.0
C26 C 0.80585 0.27198 0.00331 0.0
C27 C 0.74515 0.16518 0.21643 0.0
C28 C 0.57615 0.82926 0.21373 0.0
C29 C 0.58833 0.75097 0.93837 0.0
O30 O 0.60917 0.83296 0.18553 0.0
Zn31 Zn 0.58556 0.79383 0.0731 0.0
O32 O 0.54211 0.8035 0.16721 0.0
Zn33 Zn 0.52033 0.75714 0.05072 0.0
O34 O 0.49222 0.70622 0.11349 0.0
O35 O 0.55943 0.73727 0.1392 0.0
O36 O 0.55182 0.73977 0.95719 0.0
O37 O 0.61808 0.78271 0.98501 0.0
O38 O 0.55719 0.82157 0.99159 0.0
O39 O 0.49155 0.77533 0.96684 0.0
C40 C 0.52406 0.7073 0.15176 0.0
C41 C 0.52134 0.81105 0.95459 0.0
C42 C 0.82551 0.51282 0.9527 0.0
C43 C 0.74283 0.52716 0.18855 0.0
O44 O 0.82672 0.54822 0.95784 0.0
Zn45 Zn 0.80149 0.57978 0.03485 0.0
O46 O 0.80194 0.48415 0.00109 0.0
Zn47 Zn 0.78174 0.51668 0.0687 0.0
O48 O 0.74104 0.52232 0.97156 0.0
O49 O 0.76825 0.58897 0.94434 0.0
O50 O 0.74726 0.49543 0.17021 0.0
O51 O 0.76181 0.55969 0.14467 0.0
O52 O 0.85153 0.62667 0.09603 0.0
O53 O 0.83683 0.56428 0.13986 0.0
C54 C 0.73899 0.55142 0.93141 0.0
C55 C 0.86059 0.60386 0.14396 0.0
C56 C 0.19728 0.75814 0.27541 0.0
C57 C 0.24743 0.83645 0.00068 0.0
O58 O 0.18967 0.78534 0.24344 0.0
Zn59 Zn 0.22068 0.79692 0.1362 0.0
O60 O 0.21981 0.74765 0.23031 0.0
Zn61 Zn 0.25405 0.76576 0.10935 0.0
O62 O 0.30945 0.78729 0.16011 0.0
O63 O 0.28265 0.8271 0.19935 0.0
O64 O 0.26128 0.81149 0.01518 0.0
O65 O 0.2215 0.83715 0.05247 0.0
O66 O 0.18717 0.73904 0.05134 0.0
O67 O 0.23002 0.71542 0.02857 0.0
C68 C 0.31282 0.82006 0.20285 0.0
C69 C 0.1948 0.71165 0.01376 0.0
C70 C 0.41357 0.26336 0.32848 0.0
C71 C 0.42227 0.17337 0.08136 0.0
O72 O 0.44991 0.27431 0.30874 0.0
Zn73 Zn 0.48089 0.25431 0.22086 0.0
O74 O 0.38355 0.23009 0.28769 0.0
Zn75 Zn 0.41505 0.21513 0.20538 0.0
O76 O 0.44569 0.19215 0.29353 0.0
O77 O 0.51132 0.238 0.3095 0.0
O78 O 0.38904 0.16831 0.11123 0.0
O79 O 0.45687 0.20335 0.11669 0.0
O80 O 0.50578 0.30102 0.14148 0.0
O81 O 0.43849 0.26471 0.11592 0.0
C82 C 0.48194 0.20301 0.32787 0.0
C83 C 0.47278 0.29473 0.09673 0.0
C84 C 0.05714 0.46619 0.48809 0.0
C85 C 0.05754 0.42115 0.8184 0.0
C86 C 0.93138 0.39671 0.80606 0.0
Mg87 Mg 0.01601 0.52487 0.41203 0.0
Mg88 Mg 0.0047 0.58579 0.57235 0.0
O89 O 0.99377 0.53218 0.52903 0.0
Mg90 Mg 0.0091 0.50085 0.6147 0.0
O91 O 0.02359 0.46865 0.69661 0.0
Mg92 Mg 0.99323 0.41172 0.63317 0.0
Mg93 Mg 0.0149 0.47382 0.8218 0.0
C94 C 0.95701 0.53512 0.73628 0.0
O95 O 0.06214 0.55897 0.70211 0.0
O96 O 0.97861 0.55416 0.34261 0.0
O97 O 0.04709 0.54055 0.84689 0.0
O98 O 0.07171 0.59304 0.42908 0.0
O99 O 0.97302 0.5939 0.45928 0.0
O100 O 0.06538 0.63141 0.54599 0.0
O101 O 0.95867 0.43857 0.54048 0.0
O102 O 0.95932 0.45879 0.39702 0.0
C103 C 0.9442 0.43091 0.45469 0.0
C104 C 0.96639 0.57932 0.37408 0.0
O105 O 0.96525 0.50599 0.71394 0.0
O106 O 0.03787 0.40105 0.73931 0.0
O107 O 0.97245 0.56992 0.69864 0.0
O108 O 0.94193 0.3875 0.72999 0.0
O109 O 0.05131 0.44842 0.86132 0.0
O110 O 0.95419 0.43162 0.85384 0.0
O111 O 0.04996 0.49677 0.50374 0.0
O112 O 0.0419 0.43489 0.53606 0.0
C113 C 0.08453 0.62779 0.47891 0.0
C114 C 0.06944 0.56667 0.79131 0.0
C115 C 0.4921 0.06567 0.48586 0.0
C116 C 0.62663 0.05638 0.43304 0.0
C117 C 0.56101 0.93485 0.49548 0.0
Mg118 Mg 0.41927 0.00872 0.62291 0.0
Mg119 Mg 0.44859 0.98401 0.81551 0.0
O120 O 0.44534 0.9795 0.68608 0.0
Mg121 Mg 0.4981 0.00264 0.63004 0.0
O122 O 0.54925 0.02523 0.56501 0.0
Mg123 Mg 0.52503 0.99943 0.43504 0.0
Mg124 Mg 0.59144 0.01665 0.61471 0.0
C125 C 0.50034 0.93966 0.78538 0.0
O126 O 0.53742 0.04847 0.75593 0.0
O127 O 0.35967 0.96304 0.69178 0.0
O128 O 0.59786 0.04936 0.75189 0.0
O129 O 0.43276 0.05544 0.75046 0.0
O130 O 0.38428 0.94905 0.82329 0.0
O131 O 0.46792 0.04657 0.86792 0.0
O132 O 0.46432 0.95996 0.49941 0.0
O133 O 0.40545 0.96077 0.49871 0.0
C134 C 0.42816 0.94785 0.46342 0.0
C135 C 0.35462 0.94515 0.76816 0.0
O136 O 0.50707 0.95136 0.70237 0.0
O137 O 0.59038 0.04163 0.39204 0.0
O138 O 0.48386 0.95357 0.84224 0.0
O139 O 0.54282 0.94852 0.44282 0.0
O140 O 0.63358 0.05054 0.51716 0.0
O141 O 0.57801 0.95296 0.57639 0.0
O142 O 0.48378 0.05163 0.56638 0.0
O143 O 0.5081 0.05127 0.42884 0.0
C144 C 0.45101 0.06592 0.83263 0.0
C145 C 0.57442 0.0612 0.78892 0.0
C146 C 0.55047 0.59884 0.75558 0.0
C147 C 0.42123 0.47397 0.92137 0.0
C148 C 0.46832 0.40235 0.82331 0.0
Mg149 Mg 0.58695 0.57916 0.56284 0.0
Mg150 Mg 0.52661 0.50148 0.40524 0.0
O151 O 0.54479 0.51928 0.53143 0.0
Mg152 Mg 0.50818 0.50917 0.63294 0.0
O153 O 0.47409 0.49937 0.73935 0.0
Mg154 Mg 0.51404 0.50776 0.84589 0.0
Mg155 Mg 0.42845 0.44506 0.71931 0.0
C156 C 0.46533 0.41957 0.49574 0.0
O157 O 0.45731 0.51366 0.54968 0.0
O158 O 0.62657 0.56564 0.4587 0.0
O159 O 0.40162 0.45981 0.59671 0.0
O160 O 0.55725 0.60003 0.44612 0.0
O161 O 0.58329 0.50956 0.36278 0.0
O162 O 0.51221 0.54582 0.35016 0.0
O163 O 0.55665 0.5076 0.73326 0.0
O164 O 0.61264 0.55671 0.67619 0.0
C165 C 0.5956 0.53016 0.73519 0.0
C166 C 0.61976 0.53585 0.39675 0.0
O167 O 0.47435 0.43855 0.57835 0.0
O168 O 0.46026 0.49914 0.9385 0.0
O169 O 0.4791 0.43855 0.42291 0.0
O170 O 0.4921 0.43912 0.8614 0.0
O171 O 0.40491 0.45176 0.84384 0.0
O172 O 0.44311 0.39577 0.75255 0.0
O173 O 0.54299 0.58012 0.67317 0.0
O174 O 0.53897 0.57817 0.82729 0.0
C175 C 0.52937 0.58459 0.37759 0.0
C176 C 0.41847 0.49318 0.55325 0.0
C177 C 0.10719 0.42137 0.33173 0.0
C178 C 0.14881 0.45181 0.35555 0.0
C179 C 0.12703 0.49876 0.42999 0.0
C180 C 0.08614 0.46561 0.42204 0.0
N181 N 0.0374 0.39338 0.36743 0.0
N182 N 0.19824 0.51787 0.44054 0.0
C183 C 0.07632 0.42647 0.3729 0.0
C184 C 0.15863 0.4901 0.40813 0.0
N185 N 0.0966 0.38864 0.26608 0.0
N186 N 0.13606 0.53866 0.45767 0.0
H187 H 0.22254 0.51308 0.4275 0.0
H188 H 0.20651 0.54363 0.48818 0.0
H189 H 0.11387 0.54684 0.47006 0.0
H190 H 0.16506 0.56452 0.45629 0.0
H191 H 0.0666 0.36853 0.23824 0.0
H192 H 0.11765 0.38401 0.23101 0.0
H193 H 0.02977 0.36279 0.34534 0.0
H194 H 0.01308 0.39589 0.39086 0.0
C195 C 0.69519 0.09101 0.23616 0.0
C196 C 0.72613 0.1309 0.27607 0.0
C197 C 0.69389 0.12068 0.42095 0.0
C198 C 0.66224 0.08088 0.38119 0.0
N199 N 0.63959 0.02295 0.26302 0.0
N200 N 0.76303 0.17721 0.41273 0.0
C201 C 0.6651 0.06424 0.29255 0.0
C202 C 0.72841 0.143 0.37146 0.0
N203 N 0.69301 0.07987 0.14337 0.0
N204 N 0.68958 0.13883 0.50159 0.0
H205 H 0.78843 0.19407 0.376 0.0
H206 H 0.76792 0.18596 0.48414 0.0
H207 H 0.66342 0.12514 0.53716 0.0
H208 H 0.71017 0.1695 0.52812 0.0
H209 H 0.66803 0.05363 0.10775 0.0
H210 H 0.71547 0.09809 0.10097 0.0
H211 H 0.64265 0.00848 0.20237 0.0
H212 H 0.61786 0.00213 0.30358 0.0
C213 C 0.50102 0.63199 0.1763 0.0
C214 C 0.52109 0.67471 0.2123 0.0
C215 C 0.5343 0.65513 0.36481 0.0
C216 C 0.51906 0.61332 0.32603 0.0
N217 N 0.46842 0.55983 0.21087 0.0
N218 N 0.56264 0.72773 0.33874 0.0
C219 C 0.49681 0.60084 0.23607 0.0
C220 C 0.53926 0.6865 0.30589 0.0
N221 N 0.4882 0.6213 0.08345 0.0
N222 N 0.54014 0.66422 0.45938 0.0
H223 H 0.56705 0.75248 0.30061 0.0
H224 H 0.58089 0.73762 0.40185 0.0
H225 H 0.5316 0.6412 0.50552 0.0
H226 H 0.54717 0.6932 0.49202 0.0
H227 H 0.47825 0.59152 0.05088 0.0
H228 H 0.49132 0.64307 0.03668 0.0
H229 H 0.44954 0.54958 0.14869 0.0
H230 H 0.45792 0.53721 0.25803 0.0
C231 C 0.93152 0.61796 0.16691 0.0
C232 C 0.89875 0.62047 0.20394 0.0
C233 C 0.91007 0.59577 0.3478 0.0
C234 C 0.94322 0.59279 0.31252 0.0
N235 N 0.99347 0.6144 0.19966 0.0
N236 N 0.86972 0.63044 0.33897 0.0
C237 C 0.95667 0.60812 0.22535 0.0
C238 C 0.89336 0.6167 0.29868 0.0
N239 N 0.93703 0.62286 0.07491 0.0
N240 N 0.89231 0.57586 0.42359 0.0
H241 H 0.85717 0.64556 0.30125 0.0
H242 H 0.86634 0.63049 0.41016 0.0
H243 H 0.90032 0.55592 0.45599 0.0
H244 H 0.86619 0.57498 0.44672 0.0
H245 H 0.95747 0.61682 0.04068 0.0
H246 H 0.9196 0.63155 0.03256 0.0
H247 H 0.00579 0.62854 0.13998 0.0
H248 H 0.01353 0.60935 0.24238 0.0
C249 C 0.37039 0.89297 0.23158 0.0
C250 C 0.3515 0.8512 0.25593 0.0
C251 C 0.39786 0.87357 0.39851 0.0
C252 C 0.41015 0.91573 0.38354 0.0
N253 N 0.41144 0.96681 0.28457 0.0
N254 N 0.34655 0.80068 0.36179 0.0
C255 C 0.39788 0.92583 0.29881 0.0
C256 C 0.36577 0.84095 0.33794 0.0
N257 N 0.36189 0.90088 0.14408 0.0
N258 N 0.41598 0.86471 0.4718 0.0
H259 H 0.32321 0.77572 0.31907 0.0
H260 H 0.35189 0.79224 0.42654 0.0
H261 H 0.43875 0.88769 0.5194 0.0
H262 H 0.4112 0.83481 0.4807 0.0
H263 H 0.37678 0.93024 0.11911 0.0
H264 H 0.34233 0.87703 0.09319 0.0
H265 H 0.39997 0.97639 0.22961 0.0
H266 H 0.4335 0.9915 0.33044 0.0
C267 C 0.39193 0.31669 0.36432 0.0
C268 C 0.40865 0.292 0.39597 0.0
C269 C 0.45247 0.34687 0.51872 0.0
C270 C 0.43914 0.37343 0.48098 0.0
N271 N 0.3867 0.37955 0.39237 0.0
N272 N 0.44045 0.2759 0.52305 0.0
C273 C 0.40527 0.35666 0.41237 0.0
C274 C 0.43361 0.3045 0.4811 0.0
N275 N 0.36591 0.30343 0.28484 0.0
N276 N 0.48547 0.36271 0.58359 0.0
H277 H 0.42647 0.24476 0.49508 0.0
H278 H 0.45599 0.28188 0.58892 0.0
H279 H 0.50073 0.39369 0.61228 0.0
H280 H 0.49942 0.34574 0.60467 0.0
H281 H 0.3569 0.32233 0.25128 0.0
H282 H 0.35431 0.27365 0.25059 0.0
H283 H 0.35997 0.36806 0.34812 0.0
H284 H 0.39615 0.40884 0.42744 0.0
C285 C 0.47914 0.84504 0.91096 0.0
C286 C 0.51479 0.8416 0.90213 0.0
C287 C 0.54244 0.90359 0.81313 0.0
C288 C 0.50505 0.90392 0.8146 0.0
N289 N 0.43304 0.86474 0.83648 0.0
N290 N 0.575 0.86107 0.81955 0.0
C291 C 0.47182 0.8712 0.85397 0.0
C292 C 0.54491 0.86889 0.84548 0.0
N293 N 0.45361 0.82617 0.97809 0.0
N294 N 0.5761 0.93697 0.78528 0.0
H295 H 0.57646 0.83463 0.83626 0.0
H296 H 0.59546 0.87813 0.77219 0.0
H297 H 0.57568 0.96335 0.76384 0.0
H298 H 0.60511 0.93993 0.79167 0.0
H299 H 0.42924 0.83108 0.99087 0.0
H300 H 0.45964 0.81045 0.029 0.0
H301 H 0.40751 0.83915 0.85817 0.0
H302 H 0.42599 0.88191 0.79114 0.0
C303 C 0.67405 0.55353 0.93337 0.0
C304 C 0.69934 0.54188 0.88504 0.0
C305 C 0.64519 0.50567 0.75801 0.0
C306 C 0.62326 0.52352 0.79863 0.0
N307 N 0.6144 0.5623 0.92561 0.0
N308 N 0.71009 0.50704 0.75241 0.0
C309 C 0.63662 0.54616 0.88746 0.0
C310 C 0.68498 0.51738 0.79813 0.0
N311 N 0.68545 0.57089 0.02365 0.0
N312 N 0.62771 0.47789 0.68044 0.0
H313 H 0.73956 0.51547 0.78006 0.0
H314 H 0.70304 0.49269 0.68473 0.0
H315 H 0.59826 0.4688 0.65112 0.0
H316 H 0.64047 0.46117 0.65037 0.0
H317 H 0.66617 0.57524 0.06619 0.0
H318 H 0.71346 0.57859 0.05872 0.0
H319 H 0.62494 0.58414 0.98365 0.0
H320 H 0.58554 0.55469 0.89619 0.0
C321 C 0.15333 0.63425 0.97957 0.0
C322 C 0.16239 0.67465 0.9562 0.0
C323 C 0.12066 0.64434 0.80787 0.0
C324 C 0.10744 0.60392 0.83582 0.0
N325 N 0.12491 0.56096 0.92647 0.0
N326 N 0.1471 0.71718 0.85665 0.0
C327 C 0.12777 0.59897 0.9158 0.0
C328 C 0.14376 0.6795 0.87315 0.0
N329 N 0.16685 0.62938 0.0654 0.0
N330 N 0.1157 0.64955 0.71658 0.0
H331 H 0.16233 0.74376 0.90345 0.0
H332 H 0.13069 0.72074 0.80078 0.0
H333 H 0.10764 0.62512 0.66572 0.0
H334 H 0.12745 0.67877 0.69079 0.0
H335 H 0.1576 0.60036 0.09042 0.0
H336 H 0.18405 0.65437 0.11587 0.0
H337 H 0.14183 0.55591 0.97847 0.0
H338 H 0.10938 0.53557 0.87603 0.0
C339 C 0.41428 0.10348 0.03645 0.0
C340 C 0.42292 0.1434 0.01125 0.0
C341 C 0.4537 0.13434 0.87293 0.0
C342 C 0.44279 0.09338 0.89525 0.0
N343 N 0.40276 0.035 0.9846 0.0
N344 N 0.44414 0.19456 0.89926 0.0
C345 C 0.4202 0.07674 0.97305 0.0
C346 C 0.44049 0.15808 0.92717 0.0
N347 N 0.40237 0.09177 0.12281 0.0
N348 N 0.47794 0.15102 0.80237 0.0
H349 H 0.43431 0.21232 0.93749 0.0
H350 H 0.45341 0.20531 0.83486 0.0
H351 H 0.48859 0.13457 0.76227 0.0
H352 H 0.4903 0.18216 0.78843 0.0
H353 H 0.40109 0.06539 0.14912 0.0
H354 H 0.39685 0.10998 0.1714 0.0
H355 H 0.38244 0.02079 0.0344 0.0
H356 H 0.40485 0.0135 0.93878 0.0
C357 C 0.31969 0.45343 0.98409 0.0
C358 C 0.31709 0.43832 0.07284 0.0
C359 C 0.38769 0.4514 0.07099 0.0
C360 C 0.39116 0.47081 0.98699 0.0
N361 N 0.36405 0.50073 0.87926 0.0
N362 N 0.35111 0.42933 0.20889 0.0
C363 C 0.35821 0.47524 0.94899 0.0
C364 C 0.35179 0.43894 0.11881 0.0
N365 N 0.28504 0.44697 0.93346 0.0
N366 N 0.41784 0.44369 0.10346 0.0
H367 H 0.32502 0.41891 0.24465 0.0
H368 H 0.37706 0.4341 0.24936 0.0
H369 H 0.44482 0.45341 0.07149 0.0
H370 H 0.41497 0.42571 0.15881 0.0
H371 H 0.28467 0.45438 0.8649 0.0
H372 H 0.25608 0.43016 0.95706 0.0
H373 H 0.34194 0.5078 0.85381 0.0
H374 H 0.3926 0.51823 0.85423 0.0
C375 C 0.84573 0.29126 0.86458 0.0
C376 C 0.83145 0.30404 0.94148 0.0
C377 C 0.8719 0.3763 0.90263 0.0
C378 C 0.8942 0.36421 0.84455 0.0
N379 N 0.9068 0.30764 0.79215 0.0
N380 N 0.83891 0.36271 0.04443 0.0
C381 C 0.88221 0.32091 0.83014 0.0
C382 C 0.84618 0.34766 0.96334 0.0
N383 N 0.82499 0.25093 0.82502 0.0
N384 N 0.8749 0.4147 0.89989 0.0
H385 H 0.82407 0.34434 0.09707 0.0
H386 H 0.85235 0.39469 0.06439 0.0
H387 H 0.89136 0.43537 0.85179 0.0
H388 H 0.85683 0.42339 0.93698 0.0
H389 H 0.83347 0.24133 0.76489 0.0
H390 H 0.79677 0.22887 0.84532 0.0
H391 H 0.89932 0.27627 0.78714 0.0
H392 H 0.93684 0.32758 0.77883 0.0
C393 C 0.84941 0.50239 0.80044 0.0
C394 C 0.85591 0.5087 0.89885 0.0
C395 C 0.92877 0.53121 0.89201 0.0
C396 C 0.9223 0.52487 0.79348 0.0
N397 N 0.87579 0.49749 0.65349 0.0
N398 N 0.89879 0.52051 0.03986 0.0
C399 C 0.8823 0.50814 0.74761 0.0
C400 C 0.89468 0.52011 0.94509 0.0
N401 N 0.81203 0.49228 0.75768 0.0
N402 N 0.9677 0.54957 0.93439 0.0
H403 H 0.87453 0.51307 0.08058 0.0
H404 H 0.92513 0.52489 0.07766 0.0
H405 H 0.99316 0.55872 0.89701 0.0
H406 H 0.97526 0.55864 0.00542 0.0
H407 H 0.80633 0.49246 0.68641 0.0
H408 H 0.78676 0.48524 0.79474 0.0
H409 H 0.8469 0.48095 0.61724 0.0
H410 H 0.89928 0.50273 0.61174 0.0
C411 C 0.28114 0.90903 0.94392 0.0
C412 C 0.26351 0.86487 0.92511 0.0
C413 C 0.29419 0.8751 0.77594 0.0
C414 C 0.3135 0.91877 0.79824 0.0
N415 N 0.3142 0.97697 0.88211 0.0
N416 N 0.24351 0.80604 0.81128 0.0
C417 C 0.30252 0.93542 0.87461 0.0
C418 C 0.26662 0.848 0.83665 0.0
N419 N 0.28123 0.92623 0.03029 0.0
N420 N 0.30443 0.85971 0.69998 0.0
H421 H 0.22357 0.78538 0.85471 0.0
H422 H 0.24148 0.79228 0.74484 0.0
H423 H 0.32312 0.87918 0.65254 0.0
H424 H 0.29581 0.82829 0.68591 0.0
H425 H 0.29795 0.95826 0.05026 0.0
H426 H 0.26758 0.90875 0.08513 0.0
H427 H 0.30455 0.99082 0.93218 0.0
H428 H 0.33042 0.99649 0.83184 0.0
C429 C 0.44497 0.33798 0.02771 0.0
C430 C 0.47236 0.32191 0.02361 0.0
C431 C 0.49519 0.35564 0.87909 0.0
C432 C 0.4648 0.36786 0.87855 0.0
N433 N 0.40543 0.36349 0.94378 0.0
N434 N 0.51721 0.30798 0.93337 0.0
C435 C 0.43773 0.35627 0.94971 0.0
C436 C 0.49572 0.32857 0.9458 0.0
N437 N 0.42772 0.3382 0.10848 0.0
N438 N 0.52446 0.37102 0.81802 0.0
H439 H 0.51776 0.28734 0.97929 0.0
H440 H 0.53132 0.30842 0.87305 0.0
H441 H 0.52467 0.39046 0.76793 0.0
H442 H 0.54997 0.36695 0.82169 0.0
H443 H 0.41074 0.35321 0.11871 0.0
H444 H 0.43426 0.32764 0.16918 0.0
H445 H 0.38257 0.35237 0.9892 0.0
H446 H 0.39926 0.37701 0.88801 0.0
C447 C 0.12632 0.43991 0.02005 0.0
C448 C 0.1652 0.45838 0.98501 0.0
C449 C 0.13098 0.43852 0.82582 0.0
C450 C 0.09231 0.41814 0.8629 0.0
N451 N 0.05471 0.38774 0.99268 0.0
N452 N 0.20492 0.4692 0.8539 0.0
C453 C 0.09091 0.41411 0.95925 0.0
C454 C 0.16773 0.45564 0.88742 0.0
N455 N 0.12288 0.44968 0.11033 0.0
N456 N 0.13257 0.44357 0.73295 0.0
H457 H 0.23216 0.48354 0.89741 0.0
H458 H 0.20843 0.46419 0.78414 0.0
H459 H 0.10642 0.42971 0.68598 0.0
H460 H 0.1595 0.46251 0.70337 0.0
H461 H 0.09474 0.44058 0.13635 0.0
H462 H 0.14799 0.47153 0.15477 0.0
H463 H 0.05232 0.3817 0.06246 0.0
H464 H 0.02821 0.36913 0.94803 0.0
C465 C 0.62597 0.12384 0.02179 0.0
C466 C 0.64585 0.16473 0.99205 0.0
C467 C 0.60701 0.13772 0.83909 0.0
C468 C 0.59335 0.09624 0.8634 0.0
N469 N 0.58741 0.04885 0.97761 0.0
N470 N 0.65491 0.21202 0.87584 0.0
C471 C 0.60164 0.08898 0.95528 0.0
C472 C 0.6355 0.17221 0.90226 0.0
N473 N 0.63073 0.11873 0.11381 0.0
N474 N 0.59337 0.14404 0.75504 0.0
H475 H 0.67453 0.2379 0.92226 0.0
H476 H 0.65297 0.21935 0.80784 0.0
H477 H 0.5738 0.1197 0.70531 0.0
H478 H 0.59893 0.17323 0.73688 0.0
H479 H 0.61489 0.0903 0.14233 0.0
H480 H 0.64811 0.14407 0.16346 0.0
H481 H 0.59587 0.0412 0.04022 0.0
H482 H 0.56808 0.02282 0.93121 0.0
C483 C 0.56478 0.70832 0.78586 0.0
C484 C 0.59341 0.72378 0.86588 0.0
C485 C 0.60725 0.66604 0.83341 0.0
C486 C 0.57099 0.64522 0.77194 0.0
N487 N 0.51465 0.64675 0.6882 0.0
N488 N 0.64511 0.7187 0.96227 0.0
C489 C 0.55019 0.66684 0.7454 0.0
C490 C 0.61653 0.70376 0.88721 0.0
N491 N 0.55066 0.73308 0.75108 0.0
N492 N 0.63241 0.64926 0.84057 0.0
H493 H 0.65469 0.74724 0.00038 0.0
H494 H 0.65848 0.70201 0.98867 0.0
H495 H 0.62626 0.62217 0.79987 0.0
H496 H 0.66097 0.66426 0.87865 0.0
H497 H 0.53206 0.72499 0.68879 0.0
H498 H 0.56131 0.76362 0.78024 0.0
H499 H 0.4957 0.65945 0.6752 0.0
H500 H 0.5028 0.61625 0.65799 0.0
C501 C 0.52274 0.16679 0.37478 0.0
C502 C 0.48837 0.17273 0.38325 0.0
C503 C 0.45588 0.10838 0.46438 0.0
C504 C 0.4915 0.10464 0.46233 0.0
N505 N 0.56398 0.14006 0.44524 0.0
N506 N 0.4289 0.15592 0.46642 0.0
C507 C 0.52664 0.13715 0.42751 0.0
C508 C 0.45707 0.14569 0.43788 0.0
N509 N 0.55023 0.18651 0.31175 0.0
N510 N 0.42013 0.07562 0.48585 0.0
H511 H 0.43027 0.18416 0.45388 0.0
H512 H 0.40753 0.13886 0.51218 0.0
H513 H 0.41744 0.04695 0.49932 0.0
H514 H 0.39239 0.07555 0.47991 0.0
H515 H 0.57331 0.17965 0.29819 0.0
H516 H 0.54744 0.20561 0.2649 0.0
H517 H 0.59099 0.16518 0.42752 0.0
H518 H 0.56846 0.12022 0.48734 0.0
C519 C 0.32338 0.50145 0.48762 0.0
C520 C 0.33513 0.5243 0.4076 0.0
C521 C 0.40607 0.54269 0.45232 0.0
C522 C 0.39212 0.5103 0.51359 0.0
N523 N 0.34508 0.4845 0.63184 0.0
N524 N 0.38953 0.56938 0.31728 0.0
C525 C 0.35279 0.49695 0.54417 0.0
C526 C 0.37708 0.54641 0.39197 0.0
N527 N 0.28354 0.48246 0.50741 0.0
N528 N 0.44594 0.57352 0.46008 0.0
H529 H 0.37029 0.57476 0.27286 0.0
H530 H 0.41914 0.58201 0.29756 0.0
H531 H 0.46743 0.57638 0.51235 0.0
H532 H 0.45545 0.60071 0.42664 0.0
H533 H 0.27168 0.46017 0.55519 0.0
H534 H 0.26184 0.4877 0.47244 0.0
H535 H 0.31814 0.47768 0.66134 0.0
H536 H 0.36794 0.48735 0.68063 0.0
C537 C 0.83178 0.34448 0.41484 0.0
C538 C 0.83501 0.31687 0.34735 0.0
C539 C 0.90851 0.36285 0.3546 0.0
C540 C 0.90654 0.39092 0.42208 0.0
N541 N 0.8668 0.40562 0.52834 0.0
N542 N 0.87991 0.28977 0.30785 0.0
C543 C 0.8683 0.38064 0.45686 0.0
C544 C 0.87441 0.32267 0.33444 0.0
N545 N 0.7942 0.33575 0.43991 0.0
N546 N 0.94204 0.37445 0.3066 0.0
H547 H 0.85672 0.25876 0.30759 0.0
H548 H 0.90888 0.29326 0.3019 0.0
H549 H 0.96672 0.40481 0.31297 0.0
H550 H 0.94284 0.35496 0.25247 0.0
H551 H 0.78874 0.35698 0.47824 0.0
H552 H 0.76831 0.30645 0.42334 0.0
H553 H 0.84087 0.39799 0.56291 0.0
H554 H 0.89226 0.43346 0.55664 0.0
C555 C 0.60666 0.89714 0.3196 0.0
C556 C 0.57604 0.85432 0.29935 0.0
C557 C 0.539 0.86211 0.42811 0.0
C558 C 0.57038 0.90398 0.44936 0.0
N559 N 0.63961 0.95732 0.43435 0.0
N560 N 0.51849 0.79364 0.35329 0.0
C561 C 0.60632 0.91976 0.40228 0.0
C562 C 0.5439 0.83598 0.35954 0.0
N563 N 0.63372 0.91772 0.25629 0.0
N564 N 0.50383 0.8477 0.47144 0.0
H565 H 0.52045 0.77273 0.3055 0.0
H566 H 0.49773 0.77869 0.40178 0.0
H567 H 0.50058 0.86539 0.5259 0.0
H568 H 0.47744 0.81936 0.45028 0.0
H569 H 0.65413 0.9498 0.26463 0.0
H570 H 0.63274 0.90439 0.19014 0.0
H571 H 0.66791 0.96871 0.40762 0.0
H572 H 0.64011 0.97494 0.49393 0.0
C573 C 0.726 0.559 0.3272 0.0
C574 C 0.71337 0.52618 0.25457 0.0
C575 C 0.64437 0.49325 0.30458 0.0
C576 C 0.65425 0.53016 0.36236 0.0
N577 N 0.70897 0.58667 0.46373 0.0
N578 N 0.65786 0.46533 0.16491 0.0
C579 C 0.69648 0.56027 0.38379 0.0
C580 C 0.67195 0.494 0.24118 0.0
N581 N 0.76637 0.58884 0.34202 0.0
N582 N 0.61045 0.45613 0.31636 0.0
H583 H 0.67615 0.46539 0.11332 0.0
H584 H 0.62683 0.44417 0.14812 0.0
H585 H 0.59315 0.45238 0.37271 0.0
H586 H 0.6037 0.42787 0.2801 0.0
H587 H 0.77748 0.61687 0.38357 0.0
H588 H 0.78901 0.58592 0.30981 0.0
H589 H 0.73925 0.60851 0.48539 0.0
H590 H 0.69011 0.58264 0.51671 0.0
C591 C 0.18702 0.70613 0.39563 0.0
C592 C 0.17594 0.73419 0.35565 0.0
C593 C 0.1086 0.69706 0.41338 0.0
C594 C 0.11776 0.66654 0.44596 0.0
N595 N 0.16809 0.64688 0.48878 0.0
N596 N 0.13674 0.76907 0.38063 0.0
C597 C 0.15789 0.67259 0.44349 0.0
C598 C 0.14006 0.73381 0.38144 0.0
N599 N 0.22577 0.71266 0.39057 0.0
N600 N 0.06943 0.69022 0.40746 0.0
H601 H 0.16147 0.79816 0.37101 0.0
H602 H 0.11199 0.77081 0.40476 0.0
H603 H 0.0447 0.66328 0.4269 0.0
H604 H 0.06094 0.70967 0.37443 0.0
H605 H 0.23512 0.69138 0.4076 0.0
H606 H 0.24935 0.74082 0.37206 0.0
H607 H 0.19711 0.65005 0.49417 0.0
H608 H 0.14755 0.62326 0.52642 0.0
loop_
_geom_bond_atom_site_label_1
_geom_bond_atom_site_label_2
_geom_bond_distance
_geom_bond_site_symmetry_2
_ccdc_geom_bond_type
C0 O2 1.247 . S
C0 O4 1.258 . S
C1 O8 1.247 . S
C1 O9 1.258 . S
O2 C0 1.247 . S
O2 Zn3 2.028 . S
Zn3 O2 2.028 . S
Zn3 O7 2.035 . S
Zn3 O9 2.035 . S
Zn3 O10 2.028 . S
O4 C0 1.258 . S
O4 Zn5 2.035 . S
Zn5 O4 2.035 . S
Zn5 O6 2.028 . S
Zn5 O8 2.028 . S
Zn5 O11 2.035 . S
O6 Zn5 2.028 . S
O6 C12 1.247 . S
O7 Zn3 2.035 . S
O7 C12 1.258 . S
O8 C1 1.247 . S
O8 Zn5 2.028 . S
O9 C1 1.258 . S
O9 Zn3 2.035 . S
O10 Zn3 2.028 . S
O10 C13 1.247 . S
O11 Zn5 2.035 . S
O11 C13 1.258 . S
C12 O6 1.247 . S
C12 O7 1.258 . S
C13 O10 1.247 . S
C13 O11 1.258 . S
C14 O16 1.247 1_556 S
C14 O18 1.258 1_556 S
C15 O22 1.247 . S
C15 O23 1.258 . S
O16 C14 1.247 1_554 S
O16 Zn17 2.028 . S
Zn17 O16 2.028 . S
Zn17 O21 2.035 . S
Zn17 O23 2.035 . S
Zn17 O24 2.028 . S
O18 C14 1.258 1_554 S
O18 Zn19 2.035 . S
Zn19 O18 2.035 . S
Zn19 O20 2.028 . S
Zn19 O22 2.028 . S
Zn19 O25 2.035 . S
O20 Zn19 2.028 . S
O20 C26 1.247 . S
O21 Zn17 2.035 . S
O21 C26 1.258 . S
O22 C15 1.247 . S
O22 Zn19 2.028 . S
O23 C15 1.258 . S
O23 Zn17 2.035 . S
O24 Zn17 2.028 . S
O24 C27 1.247 . S
O25 Zn19 2.035 . S
O25 C27 1.258 . S
C26 O20 1.247 . S
C26 O21 1.258 . S
C27 O24 1.247 . S
C27 O25 1.258 . S
C28 O30 1.247 . S
C28 O32 1.258 . S
C29 O36 1.247 . S
C29 O37 1.258 . S
O30 C28 1.247 . S
O30 Zn31 2.028 . S
Zn31 O30 2.028 . S
Zn31 O35 2.035 . S
Zn31 O37 2.035 1_554 S
Zn31 O38 2.028 1_554 S
O32 C28 1.258 . S
O32 Zn33 2.035 . S
Zn33 O32 2.035 . S
Zn33 O34 2.028 . S
Zn33 O36 2.028 1_554 S
Zn33 O39 2.035 1_554 S
O34 Zn33 2.028 . S
O34 C40 1.247 . S
O35 Zn31 2.035 . S
O35 C40 1.258 . S
O36 C29 1.247 . S
O36 Zn33 2.028 1_556 S
O37 C29 1.258 . S
O37 Zn31 2.035 1_556 S
O38 Zn31 2.028 1_556 S
O38 C41 1.247 . S
O39 Zn33 2.035 1_556 S
O39 C41 1.258 . S
C40 O34 1.247 . S
C40 O35 1.258 . S
C41 O38 1.247 . S
C41 O39 1.258 . S
C42 O44 1.247 . S
C42 O46 1.258 . S
C43 O50 1.247 . S
C43 O51 1.258 . S
O44 C42 1.247 . S
O44 Zn45 2.028 1_556 S
Zn45 O44 2.028 1_554 S
Zn45 O49 2.035 1_554 S
Zn45 O51 2.035 . S
Zn45 O52 2.028 . S
O46 C42 1.258 . S
O46 Zn47 2.035 1_556 S
Zn47 O46 2.035 1_554 S
Zn47 O48 2.028 1_554 S
Zn47 O50 2.028 . S
Zn47 O53 2.035 . S
O48 Zn47 2.028 1_556 S
O48 C54 1.247 . S
O49 Zn45 2.035 1_556 S
O49 C54 1.258 . S
O50 C43 1.247 . S
O50 Zn47 2.028 . S
O51 C43 1.258 . S
O51 Zn45 2.035 . S
O52 Zn45 2.028 . S
O52 C55 1.247 . S
O53 Zn47 2.035 . S
O53 C55 1.258 . S
C54 O48 1.247 . S
C54 O49 1.258 . S
C55 O52 1.247 . S
C55 O53 1.258 . S
C56 O58 1.247 . S
C56 O60 1.258 . S
C57 O64 1.247 . S
C57 O65 1.258 . S
O58 C56 1.247 . S
O58 Zn59 2.028 . S
Zn59 O58 2.028 . S
Zn59 O63 2.035 . S
Zn59 O65 2.035 . S
Zn59 O66 2.028 . S
O60 C56 1.258 . S
O60 Zn61 2.035 . S
Zn61 O60 2.035 . S
Zn61 O62 2.028 . S
Zn61 O64 2.028 . S
Zn61 O67 2.035 . S
O62 Zn61 2.028 . S
O62 C68 1.247 . S
O63 Zn59 2.035 . S
O63 C68 1.258 . S
O64 C57 1.247 . S
O64 Zn61 2.028 . S
O65 C57 1.258 . S
O65 Zn59 2.035 . S
O66 Zn59 2.028 . S
O66 C69 1.247 . S
O67 Zn61 2.035 . S
O67 C69 1.258 . S
C68 O62 1.247 . S
C68 O63 1.258 . S
C69 O66 1.247 . S
C69 O67 1.258 . S
C70 O72 1.247 . S
C70 O74 1.258 . S
C71 O78 1.247 . S
C71 O79 1.258 . S
O72 C70 1.247 . S
O72 Zn73 2.028 . S
Zn73 O72 2.028 . S
Zn73 O77 2.035 . S
Zn73 O79 2.035 . S
Zn73 O80 2.028 . S
O74 C70 1.258 . S
O74 Zn75 2.035 . S
Zn75 O74 2.035 . S
Zn75 O76 2.028 . S
Zn75 O78 2.028 . S
Zn75 O81 2.035 . S
O76 Zn75 2.028 . S
O76 C82 1.247 . S
O77 Zn73 2.035 . S
O77 C82 1.258 . S
O78 C71 1.247 . S
O78 Zn75 2.028 . S
O79 C71 1.258 . S
O79 Zn73 2.035 . S
O80 Zn73 2.028 . S
O80 C83 1.247 . S
O81 Zn75 2.035 . S
O81 C83 1.258 . S
C82 O76 1.247 . S
C82 O77 1.258 . S
C83 O80 1.247 . S
C83 O81 1.258 . S
C84 O111 1.312 . S
C84 O112 1.208 . S
C85 O106 1.331 . S
C85 O109 1.244 . S
C86 O108 1.264 . S
C86 O110 1.273 . S
Mg87 O89 1.936 1_455 S
Mg87 O96 2.081 1_455 S
Mg87 O98 2.023 . S
Mg87 O102 2.031 1_455 S
Mg87 O111 2.291 . S
Mg88 O89 1.963 . S
Mg88 O99 1.942 . S
Mg88 O100 1.955 1_655 S
Mg88 O107 1.986 . S
O89 Mg87 1.936 1_655 S
O89 Mg88 1.963 . S
O89 Mg90 1.915 1_655 S
Mg90 O89 1.915 1_455 S
Mg90 O91 1.915 . S
Mg90 O95 2.013 . S
Mg90 O101 2.114 1_455 S
Mg90 O105 2.013 1_455 S
Mg90 O111 2.114 . S
O91 Mg90 1.915 . S
O91 Mg92 1.936 . S
O91 Mg93 1.963 . S
Mg92 O91 1.936 . S
Mg92 O101 2.291 1_455 S
Mg92 O106 2.081 . S
Mg92 O108 2.023 1_455 S
Mg92 O112 2.031 . S
Mg93 O91 1.963 . S
Mg93 O97 1.986 . S
Mg93 O109 1.942 . S
Mg93 O110 1.955 1_455 S
C94 O105 1.191 . S
C94 O107 1.307 . S
O95 Mg90 2.013 . S
O95 C114 1.191 . S
O96 Mg87 2.081 1_655 S
O96 C104 1.331 . S
O97 Mg93 1.986 . S
O97 C114 1.307 . S
O98 Mg87 2.023 . S
O98 C113 1.264 . S
O99 Mg88 1.942 . S
O99 C104 1.244 . S
O100 Mg88 1.955 1_455 S
O100 C113 1.273 . S
O101 Mg90 2.114 1_655 S
O101 Mg92 2.291 1_655 S
O101 C103 1.312 . S
O102 Mg87 2.031 1_655 S
O102 C103 1.208 . S
C103 O101 1.312 . S
C103 O102 1.208 . S
C104 O96 1.331 . S
C104 O99 1.244 . S
O105 Mg90 2.013 1_655 S
O105 C94 1.191 . S
O106 C85 1.331 . S
O106 Mg92 2.081 . S
O107 Mg88 1.986 . S
O107 C94 1.307 . S
O108 C86 1.264 . S
O108 Mg92 2.023 1_655 S
O109 C85 1.244 . S
O109 Mg93 1.942 . S
O110 C86 1.273 . S
O110 Mg93 1.955 1_655 S
O111 C84 1.312 . S
O111 Mg87 2.291 . S
O111 Mg90 2.114 . S
O112 C84 1.208 . S
O112 Mg92 2.031 . S
C113 O98 1.264 . S
C113 O100 1.273 . S
C114 O95 1.191 . S
C114 O97 1.307 . S
C115 O142 1.312 . S
C115 O143 1.208 . S
C116 O137 1.331 . S
C116 O140 1.244 . S
C117 O139 1.264 . S
C117 O141 1.273 . S
Mg118 O120 1.936 1_545 S
Mg118 O127 2.081 1_545 S
Mg118 O129 2.023 . S
Mg118 O133 2.031 1_545 S
Mg118 O142 2.291 . S
Mg119 O120 1.963 . S
Mg119 O130 1.942 . S
Mg119 O131 1.955 1_565 S
Mg119 O138 1.986 . S
O120 Mg118 1.936 1_565 S
O120 Mg119 1.963 . S
O120 Mg121 1.915 1_565 S
Mg121 O120 1.915 1_545 S
Mg121 O122 1.915 . S
Mg121 O126 2.013 . S
Mg121 O132 2.114 1_545 S
Mg121 O136 2.013 1_545 S
Mg121 O142 2.114 . S
O122 Mg121 1.915 . S
O122 Mg123 1.936 . S
O122 Mg124 1.963 . S
Mg123 O122 1.936 . S
Mg123 O132 2.291 1_545 S
Mg123 O137 2.081 . S
Mg123 O139 2.023 1_545 S
Mg123 O143 2.031 . S
Mg124 O122 1.963 . S
Mg124 O128 1.986 . S
Mg124 O140 1.942 . S
Mg124 O141 1.955 1_545 S
C125 O136 1.191 . S
C125 O138 1.307 . S
O126 Mg121 2.013 . S
O126 C145 1.191 . S
O127 Mg118 2.081 1_565 S
O127 C135 1.331 . S
O128 Mg124 1.986 . S
O128 C145 1.307 . S
O129 Mg118 2.023 . S
O129 C144 1.264 . S
O130 Mg119 1.942 . S
O130 C135 1.244 . S
O131 Mg119 1.955 1_545 S
O131 C144 1.273 . S
O132 Mg121 2.114 1_565 S
O132 Mg123 2.291 1_565 S
O132 C134 1.312 . S
O133 Mg118 2.031 1_565 S
O133 C134 1.208 . S
C134 O132 1.312 . S
C134 O133 1.208 . S
C135 O127 1.331 . S
C135 O130 1.244 . S
O136 Mg121 2.013 1_565 S
O136 C125 1.191 . S
O137 C116 1.331 . S
O137 Mg123 2.081 . S
O138 Mg119 1.986 . S
O138 C125 1.307 . S
O139 C117 1.264 . S
O139 Mg123 2.023 1_565 S
O140 C116 1.244 . S
O140 Mg124 1.942 . S
O141 C117 1.273 . S
O141 Mg124 1.955 1_565 S
O142 C115 1.312 . S
O142 Mg118 2.291 . S
O142 Mg121 2.114 . S
O143 C115 1.208 . S
O143 Mg123 2.031 . S
C144 O129 1.264 . S
C144 O131 1.273 . S
C145 O126 1.191 . S
C145 O128 1.307 . S
C146 O173 1.312 . S
C146 O174 1.208 . S
C147 O168 1.331 . S
C147 O171 1.244 . S
C148 O170 1.264 . S
C148 O172 1.273 . S
Mg149 O151 1.936 . S
Mg149 O158 2.081 . S
Mg149 O160 2.023 . S
Mg149 O164 2.031 . S
Mg149 O173 2.291 . S
Mg150 O151 1.963 . S
Mg150 O161 1.942 . S
Mg150 O162 1.955 . S
Mg150 O169 1.986 . S
O151 Mg149 1.936 . S
O151 Mg150 1.963 . S
O151 Mg152 1.915 . S
Mg152 O151 1.915 . S
Mg152 O153 1.915 . S
Mg152 O157 2.013 . S
Mg152 O163 2.114 . S
Mg152 O167 2.013 . S
Mg152 O173 2.114 . S
O153 Mg152 1.915 . S
O153 Mg154 1.936 . S
O153 Mg155 1.963 . S
Mg154 O153 1.936 . S
Mg154 O163 2.291 . S
Mg154 O168 2.081 . S
Mg154 O170 2.023 . S
Mg154 O174 2.031 . S
Mg155 O153 1.963 . S
Mg155 O159 1.986 . S
Mg155 O171 1.942 . S
Mg155 O172 1.955 . S
C156 O167 1.191 . S
C156 O169 1.307 . S
O157 Mg152 2.013 . S
O157 C176 1.191 . S
O158 Mg149 2.081 . S
O158 C166 1.331 . S
O159 Mg155 1.986 . S
O159 C176 1.307 . S
O160 Mg149 2.023 . S
O160 C175 1.264 . S
O161 Mg150 1.942 . S
O161 C166 1.244 . S
O162 Mg150 1.955 . S
O162 C175 1.273 . S
O163 Mg152 2.114 . S
O163 Mg154 2.291 . S
O163 C165 1.312 . S
O164 Mg149 2.031 . S
O164 C165 1.208 . S
C165 O163 1.312 . S
C165 O164 1.208 . S
C166 O158 1.331 . S
C166 O161 1.244 . S
O167 Mg152 2.013 . S
O167 C156 1.191 . S
O168 C147 1.331 . S
O168 Mg154 2.081 . S
O169 Mg150 1.986 . S
O169 C156 1.307 . S
O170 C148 1.264 . S
O170 Mg154 2.023 . S
O171 C147 1.244 . S
O171 Mg155 1.942 . S
O172 C148 1.273 . S
O172 Mg155 1.955 . S
O173 C146 1.312 . S
O173 Mg149 2.291 . S
O173 Mg152 2.114 . S
O174 C146 1.208 . S
O174 Mg154 2.031 . S
C175 O160 1.264 . S
C175 O162 1.273 . S
C176 O157 1.191 . S
C176 O159 1.307 . S
C177 C178 1.363 . S
C177 C183 1.379 . S
C177 N185 1.356 . S
C178 C177 1.363 . S
C178 C184 1.363 . S
C179 C180 1.363 . S
C179 C184 1.379 . S
C179 N186 1.356 . S
C180 C179 1.363 . S
C180 C183 1.363 . S
N181 C183 1.356 . S
N181 H193 0.984 . S
N181 H194 0.985 . S
N182 C184 1.356 . S
N182 H187 0.984 . S
N182 H188 0.985 . S
C183 C177 1.379 . S
C183 C180 1.363 . S
C183 N181 1.356 . S
C184 C178 1.363 . S
C184 C179 1.379 . S
C184 N182 1.356 . S
N185 C177 1.356 . S
N185 H191 0.984 . S
N185 H192 0.984 . S
N186 C179 1.356 . S
N186 H189 0.984 . S
N186 H190 0.985 . S
H187 N182 0.984 . S
H188 N182 0.985 . S
H189 N186 0.984 . S
H190 N186 0.985 . S
H191 N185 0.984 . S
H192 N185 0.984 . S
H193 N181 0.984 . S
H194 N181 0.985 . S
C195 C196 1.363 . S
C195 C201 1.379 . S
C195 N203 1.356 . S
C196 C195 1.363 . S
C196 C202 1.363 . S
C197 C198 1.363 . S
C197 C202 1.379 . S
C197 N204 1.356 . S
C198 C197 1.363 . S
C198 C201 1.363 . S
N199 C201 1.356 . S
N199 H211 0.984 . S
N199 H212 0.985 . S
N200 C202 1.356 . S
N200 H205 0.984 . S
N200 H206 0.985 . S
C201 C195 1.379 . S
C201 C198 1.363 . S
C201 N199 1.356 . S
C202 C196 1.363 . S
C202 C197 1.379 . S
C202 N200 1.356 . S
N203 C195 1.356 . S
N203 H209 0.984 . S
N203 H210 0.984 . S
N204 C197 1.356 . S
N204 H207 0.984 . S
N204 H208 0.985 . S
H205 N200 0.984 . S
H206 N200 0.985 . S
H207 N204 0.984 . S
H208 N204 0.985 . S
H209 N203 0.984 . S
H210 N203 0.984 . S
H211 N199 0.984 . S
H212 N199 0.985 . S
C213 C214 1.363 . S
C213 C219 1.379 . S
C213 N221 1.356 . S
C214 C213 1.363 . S
C214 C220 1.363 . S
C215 C216 1.363 . S
C215 C220 1.379 . S
C215 N222 1.356 . S
C216 C215 1.363 . S
C216 C219 1.363 . S
N217 C219 1.356 . S
N217 H229 0.984 . S
N217 H230 0.985 . S
N218 C220 1.356 . S
N218 H223 0.984 . S
N218 H224 0.985 . S
C219 C213 1.379 . S
C219 C216 1.363 . S
C219 N217 1.356 . S
C220 C214 1.363 . S
C220 C215 1.379 . S
C220 N218 1.356 . S
N221 C213 1.356 . S
N221 H227 0.984 . S
N221 H228 0.984 . S
N222 C215 1.356 . S
N222 H225 0.984 . S
N222 H226 0.985 . S
H223 N218 0.984 . S
H224 N218 0.985 . S
H225 N222 0.984 . S
H226 N222 0.985 . S
H227 N221 0.984 . S
H228 N221 0.984 . S
H229 N217 0.984 . S
H230 N217 0.985 . S
C231 C232 1.363 . S
C231 C237 1.379 . S
C231 N239 1.356 . S
C232 C231 1.363 . S
C232 C238 1.363 . S
C233 C234 1.363 . S
C233 C238 1.379 . S
C233 N240 1.356 . S
C234 C233 1.363 . S
C234 C237 1.363 . S
N235 C237 1.356 . S
N235 H247 0.984 . S
N235 H248 0.985 . S
N236 C238 1.356 . S
N236 H241 0.984 . S
N236 H242 0.985 . S
C237 C231 1.379 . S
C237 C234 1.363 . S
C237 N235 1.356 . S
C238 C232 1.363 . S
C238 C233 1.379 . S
C238 N236 1.356 . S
N239 C231 1.356 . S
N239 H245 0.984 . S
N239 H246 0.984 . S
N240 C233 1.356 . S
N240 H243 0.984 . S
N240 H244 0.985 . S
H241 N236 0.984 . S
H242 N236 0.985 . S
H243 N240 0.984 . S
H244 N240 0.985 . S
H245 N239 0.984 . S
H246 N239 0.984 . S
H247 N235 0.984 . S
H248 N235 0.985 . S
C249 C250 1.363 . S
C249 C255 1.379 . S
C249 N257 1.356 . S
C250 C249 1.363 . S
C250 C256 1.363 . S
C251 C252 1.363 . S
C251 C256 1.379 . S
C251 N258 1.356 . S
C252 C251 1.363 . S
C252 C255 1.363 . S
N253 C255 1.356 . S
N253 H265 0.984 . S
N253 H266 0.985 . S
N254 C256 1.356 . S
N254 H259 0.984 . S
N254 H260 0.985 . S
C255 C249 1.379 . S
C255 C252 1.363 . S
C255 N253 1.356 . S
C256 C250 1.363 . S
C256 C251 1.379 . S
C256 N254 1.356 . S
N257 C249 1.356 . S
N257 H263 0.984 . S
N257 H264 0.984 . S
N258 C251 1.356 . S
N258 H261 0.984 . S
N258 H262 0.985 . S
H259 N254 0.984 . S
H260 N254 0.985 . S
H261 N258 0.984 . S
H262 N258 0.985 . S
H263 N257 0.984 . S
H264 N257 0.984 . S
H265 N253 0.984 . S
H266 N253 0.985 . S
C267 C268 1.363 . S
C267 C273 1.379 . S
C267 N275 1.356 . S
C268 C267 1.363 . S
C268 C274 1.363 . S
C269 C270 1.363 . S
C269 C274 1.379 . S
C269 N276 1.356 . S
C270 C269 1.363 . S
C270 C273 1.363 . S
N271 C273 1.356 . S
N271 H283 0.984 . S
N271 H284 0.985 . S
N272 C274 1.356 . S
N272 H277 0.984 . S
N272 H278 0.985 . S
C273 C267 1.379 . S
C273 C270 1.363 . S
C273 N271 1.356 . S
C274 C268 1.363 . S
C274 C269 1.379 . S
C274 N272 1.356 . S
N275 C267 1.356 . S
N275 H281 0.984 . S
N275 H282 0.984 . S
N276 C269 1.356 . S
N276 H279 0.984 . S
N276 H280 0.985 . S
H277 N272 0.984 . S
H278 N272 0.985 . S
H279 N276 0.984 . S
H280 N276 0.985 . S
H281 N275 0.984 . S
H282 N275 0.984 . S
H283 N271 0.984 . S
H284 N271 0.985 . S
C285 C286 1.363 . S
C285 C291 1.379 . S
C285 N293 1.356 . S
C286 C285 1.363 . S
C286 C292 1.363 . S
C287 C288 1.363 . S
C287 C292 1.379 . S
C287 N294 1.356 . S
C288 C287 1.363 . S
C288 C291 1.363 . S
N289 C291 1.356 . S
N289 H301 0.984 . S
N289 H302 0.985 . S
N290 C292 1.356 . S
N290 H295 0.984 . S
N290 H296 0.985 . S
C291 C285 1.379 . S
C291 C288 1.363 . S
C291 N289 1.356 . S
C292 C286 1.363 . S
C292 C287 1.379 . S
C292 N290 1.356 . S
N293 C285 1.356 . S
N293 H299 0.984 1_556 S
N293 H300 0.984 1_556 S
N294 C287 1.356 . S
N294 H297 0.984 . S
N294 H298 0.985 . S
H295 N290 0.984 . S
H296 N290 0.985 . S
H297 N294 0.984 . S
H298 N294 0.985 . S
H299 N293 0.984 1_554 S
H300 N293 0.984 1_554 S
H301 N289 0.984 . S
H302 N289 0.985 . S
C303 C304 1.363 . S
C303 C309 1.379 . S
C303 N311 1.356 . S
C304 C303 1.363 . S
C304 C310 1.363 . S
C305 C306 1.363 . S
C305 C310 1.379 . S
C305 N312 1.356 . S
C306 C305 1.363 . S
C306 C309 1.363 . S
N307 C309 1.356 . S
N307 H319 0.984 . S
N307 H320 0.985 . S
N308 C310 1.356 . S
N308 H313 0.984 . S
N308 H314 0.985 . S
C309 C303 1.379 . S
C309 C306 1.363 . S
C309 N307 1.356 . S
C310 C304 1.363 . S
C310 C305 1.379 . S
C310 N308 1.356 . S
N311 C303 1.356 . S
N311 H317 0.984 . S
N311 H318 0.984 . S
N312 C305 1.356 . S
N312 H315 0.984 . S
N312 H316 0.985 . S
H313 N308 0.984 . S
H314 N308 0.985 . S
H315 N312 0.984 . S
H316 N312 0.985 . S
H317 N311 0.984 . S
H318 N311 0.984 . S
H319 N307 0.984 . S
H320 N307 0.985 . S
C321 C322 1.363 . S
C321 C327 1.379 . S
C321 N329 1.356 1_556 S
C322 C321 1.363 . S
C322 C328 1.363 . S
C323 C324 1.363 . S
C323 C328 1.379 . S
C323 N330 1.356 . S
C324 C323 1.363 . S
C324 C327 1.363 . S
N325 C327 1.356 . S
N325 H337 0.984 . S
N325 H338 0.985 . S
N326 C328 1.356 . S
N326 H331 0.984 . S
N326 H332 0.985 . S
C327 C321 1.379 . S
C327 C324 1.363 . S
C327 N325 1.356 . S
C328 C322 1.363 . S
C328 C323 1.379 . S
C328 N326 1.356 . S
N329 C321 1.356 1_554 S
N329 H335 0.984 . S
N329 H336 0.984 . S
N330 C323 1.356 . S
N330 H333 0.984 . S
N330 H334 0.985 . S
H331 N326 0.984 . S
H332 N326 0.985 . S
H333 N330 0.984 . S
H334 N330 0.985 . S
H335 N329 0.984 . S
H336 N329 0.984 . S
H337 N325 0.984 . S
H338 N325 0.985 . S
C339 C340 1.363 . S
C339 C345 1.379 1_554 S
C339 N347 1.356 . S
C340 C339 1.363 . S
C340 C346 1.363 1_554 S
C341 C342 1.363 . S
C341 C346 1.379 . S
C341 N348 1.356 . S
C342 C341 1.363 . S
C342 C345 1.363 . S
N343 C345 1.356 . S
N343 H355 0.984 1_556 S
N343 H356 0.985 . S
N344 C346 1.356 . S
N344 H349 0.984 . S
N344 H350 0.985 . S
C345 C339 1.379 1_556 S
C345 C342 1.363 . S
C345 N343 1.356 . S
C346 C340 1.363 1_556 S
C346 C341 1.379 . S
C346 N344 1.356 . S
N347 C339 1.356 . S
N347 H353 0.984 . S
N347 H354 0.984 . S
N348 C341 1.356 . S
N348 H351 0.984 . S
N348 H352 0.985 . S
H349 N344 0.984 . S
H350 N344 0.985 . S
H351 N348 0.984 . S
H352 N348 0.985 . S
H353 N347 0.984 . S
H354 N347 0.984 . S
H355 N343 0.984 1_554 S
H356 N343 0.985 . S
C357 C358 1.363 . S
C357 C363 1.379 1_554 S
C357 N365 1.356 . S
C358 C357 1.363 . S
C358 C364 1.363 1_554 S
C359 C360 1.363 . S
C359 C364 1.379 . S
C359 N366 1.356 . S
C360 C359 1.363 . S
C360 C363 1.363 . S
N361 C363 1.356 . S
N361 H373 0.984 . S
N361 H374 0.985 . S
N362 C364 1.356 1_554 S
N362 H367 0.984 . S
N362 H368 0.985 1_554 S
C363 C357 1.379 1_556 S
C363 C360 1.363 . S
C363 N361 1.356 . S
C364 C358 1.363 1_556 S
C364 C359 1.379 . S
C364 N362 1.356 1_556 S
N365 C357 1.356 . S
N365 H371 0.984 . S
N365 H372 0.984 . S
N366 C359 1.356 . S
N366 H369 0.984 . S
N366 H370 0.985 . S
H367 N362 0.984 . S
H368 N362 0.985 1_556 S
H369 N366 0.984 . S
H370 N366 0.985 . S
H371 N365 0.984 . S
H372 N365 0.984 . S
H373 N361 0.984 . S
H374 N361 0.985 . S
C375 C376 1.363 . S
C375 C381 1.379 . S
C375 N383 1.356 . S
C376 C375 1.363 . S
C376 C382 1.363 . S
C377 C378 1.363 . S
C377 C382 1.379 . S
C377 N384 1.356 . S
C378 C377 1.363 . S
C378 C381 1.363 . S
N379 C381 1.356 . S
N379 H391 0.984 . S
N379 H392 0.985 . S
N380 C382 1.356 1_554 S
N380 H385 0.984 . S
N380 H386 0.985 . S
C381 C375 1.379 . S
C381 C378 1.363 . S
C381 N379 1.356 . S
C382 C376 1.363 . S
C382 C377 1.379 . S
C382 N380 1.356 1_556 S
N383 C375 1.356 . S
N383 H389 0.984 . S
N383 H390 0.984 . S
N384 C377 1.356 . S
N384 H387 0.984 . S
N384 H388 0.985 . S
H385 N380 0.984 . S
H386 N380 0.985 . S
H387 N384 0.984 . S
H388 N384 0.985 . S
H389 N383 0.984 . S
H390 N383 0.984 . S
H391 N379 0.984 . S
H392 N379 0.985 . S
C393 C394 1.363 . S
C393 C399 1.379 . S
C393 N401 1.356 . S
C394 C393 1.363 . S
C394 C400 1.363 . S
C395 C396 1.363 . S
C395 C400 1.379 . S
C395 N402 1.356 . S
C396 C395 1.363 . S
C396 C399 1.363 . S
N397 C399 1.356 . S
N397 H409 0.984 . S
N397 H410 0.985 . S
N398 C400 1.356 . S
N398 H403 0.984 . S
N398 H404 0.985 1_556 S
C399 C393 1.379 . S
C399 C396 1.363 . S
C399 N397 1.356 . S
C400 C394 1.363 . S
C400 C395 1.379 . S
C400 N398 1.356 . S
N401 C393 1.356 . S
N401 H407 0.984 . S
N401 H408 0.984 . S
N402 C395 1.356 . S
N402 H405 0.984 . S
N402 H406 0.985 . S
H403 N398 0.984 . S
H404 N398 0.985 1_554 S
H405 N402 0.984 . S
H406 N402 0.985 . S
H407 N401 0.984 . S
H408 N401 0.984 . S
H409 N397 0.984 . S
H410 N397 0.985 . S
C411 C412 1.363 . S
C411 C417 1.379 . S
C411 N419 1.356 1_556 S
C412 C411 1.363 . S
C412 C418 1.363 . S
C413 C414 1.363 . S
C413 C418 1.379 . S
C413 N420 1.356 . S
C414 C413 1.363 . S
C414 C417 1.363 . S
N415 C417 1.356 . S
N415 H427 0.984 . S
N415 H428 0.985 . S
N416 C418 1.356 . S
N416 H421 0.984 . S
N416 H422 0.985 . S
C417 C411 1.379 . S
C417 C414 1.363 . S
C417 N415 1.356 . S
C418 C412 1.363 . S
C418 C413 1.379 . S
C418 N416 1.356 . S
N419 C411 1.356 1_554 S
N419 H425 0.984 . S
N419 H426 0.984 . S
N420 C413 1.356 . S
N420 H423 0.984 . S
N420 H424 0.985 . S
H421 N416 0.984 . S
H422 N416 0.985 . S
H423 N420 0.984 . S
H424 N420 0.985 . S
H425 N419 0.984 . S
H426 N419 0.984 . S
H427 N415 0.984 . S
H428 N415 0.985 . S
C429 C430 1.363 . S
C429 C435 1.379 1_554 S
C429 N437 1.356 . S
C430 C429 1.363 . S
C430 C436 1.363 1_554 S
C431 C432 1.363 . S
C431 C436 1.379 . S
C431 N438 1.356 . S
C432 C431 1.363 . S
C432 C435 1.363 . S
N433 C435 1.356 . S
N433 H445 0.984 . S
N433 H446 0.985 . S
N434 C436 1.356 . S
N434 H439 0.984 1_556 S
N434 H440 0.985 . S
C435 C429 1.379 1_556 S
C435 C432 1.363 . S
C435 N433 1.356 . S
C436 C430 1.363 1_556 S
C436 C431 1.379 . S
C436 N434 1.356 . S
N437 C429 1.356 . S
N437 H443 0.984 . S
N437 H444 0.984 . S
N438 C431 1.356 . S
N438 H441 0.984 . S
N438 H442 0.985 . S
H439 N434 0.984 1_554 S
H440 N434 0.985 . S
H441 N438 0.984 . S
H442 N438 0.985 . S
H443 N437 0.984 . S
H444 N437 0.984 . S
H445 N433 0.984 . S
H446 N433 0.985 . S
C447 C448 1.363 . S
C447 C453 1.379 1_554 S
C447 N455 1.356 . S
C448 C447 1.363 . S
C448 C454 1.363 1_554 S
C449 C450 1.363 . S
C449 C454 1.379 . S
C449 N456 1.356 . S
C450 C449 1.363 . S
C450 C453 1.363 . S
N451 C453 1.356 . S
N451 H463 0.984 . S
N451 H464 0.985 . S
N452 C454 1.356 1_554 S
N452 H457 0.984 . S
N452 H458 0.985 1_554 S
C453 C447 1.379 1_556 S
C453 C450 1.363 . S
C453 N451 1.356 . S
C454 C448 1.363 1_556 S
C454 C449 1.379 . S
C454 N452 1.356 1_556 S
N455 C447 1.356 . S
N455 H461 0.984 . S
N455 H462 0.984 . S
N456 C449 1.356 . S
N456 H459 0.984 . S
N456 H460 0.985 . S
H457 N452 0.984 . S
H458 N452 0.985 1_556 S
H459 N456 0.984 . S
H460 N456 0.985 . S
H461 N455 0.984 . S
H462 N455 0.984 . S
H463 N451 0.984 . S
H464 N451 0.985 . S
C465 C466 1.363 . S
C465 C471 1.379 . S
C465 N473 1.356 . S
C466 C465 1.363 . S
C466 C472 1.363 . S
C467 C468 1.363 . S
C467 C472 1.379 . S
C467 N474 1.356 . S
C468 C467 1.363 . S
C468 C471 1.363 . S
N469 C471 1.356 . S
N469 H481 0.984 . S
N469 H482 0.985 . S
N470 C472 1.356 . S
N470 H475 0.984 . S
N470 H476 0.985 . S
C471 C465 1.379 . S
C471 C468 1.363 . S
C471 N469 1.356 . S
C472 C466 1.363 . S
C472 C467 1.379 . S
C472 N470 1.356 . S
N473 C465 1.356 . S
N473 H479 0.986 . S
N473 H480 0.984 1_556 S
N474 C467 1.356 . S
N474 H477 0.984 . S
N474 H478 0.985 . S
H475 N470 0.984 . S
H476 N470 0.985 . S
H477 N474 0.984 . S
H478 N474 0.985 . S
H479 N473 0.986 . S
H480 N473 0.984 1_554 S
H481 N469 0.984 . S
H482 N469 0.985 . S
C483 C484 1.363 . S
C483 C489 1.379 . S
C483 N491 1.356 . S
C484 C483 1.363 . S
C484 C490 1.363 . S
C485 C486 1.363 . S
C485 C490 1.379 . S
C485 N492 1.356 . S
C486 C485 1.363 . S
C486 C489 1.363 . S
N487 C489 1.356 . S
N487 H499 0.984 . S
N487 H500 0.985 . S
N488 C490 1.356 . S
N488 H493 0.984 1_556 S
N488 H494 0.985 1_556 S
C489 C483 1.379 . S
C489 C486 1.363 . S
C489 N487 1.356 . S
C490 C484 1.363 . S
C490 C485 1.379 . S
C490 N488 1.356 . S
N491 C483 1.356 . S
N491 H497 0.984 . S
N491 H498 0.984 . S
N492 C485 1.356 . S
N492 H495 0.984 . S
N492 H496 0.985 . S
H493 N488 0.984 1_554 S
H494 N488 0.985 1_554 S
H495 N492 0.984 . S
H496 N492 0.985 . S
H497 N491 0.984 . S
H498 N491 0.984 . S
H499 N487 0.984 . S
H500 N487 0.985 . S
C501 C502 1.363 . S
C501 C507 1.379 . S
C501 N509 1.356 . S
C502 C501 1.363 . S
C502 C508 1.363 . S
C503 C504 1.363 . S
C503 C508 1.379 . S
C503 N510 1.356 . S
C504 C503 1.363 . S
C504 C507 1.363 . S
N505 C507 1.356 . S
N505 H517 0.984 . S
N505 H518 0.985 . S
N506 C508 1.356 . S
N506 H511 0.984 . S
N506 H512 0.985 . S
C507 C501 1.379 . S
C507 C504 1.363 . S
C507 N505 1.356 . S
C508 C502 1.363 . S
C508 C503 1.379 . S
C508 N506 1.356 . S
N509 C501 1.356 . S
N509 H515 0.984 . S
N509 H516 0.984 . S
N510 C503 1.356 . S
N510 H513 0.984 . S
N510 H514 0.985 . S
H511 N506 0.984 . S
H512 N506 0.985 . S
H513 N510 0.984 . S
H514 N510 0.985 . S
H515 N509 0.984 . S
H516 N509 0.984 . S
H517 N505 0.984 . S
H518 N505 0.985 . S
C519 C520 1.363 . S
C519 C525 1.379 . S
C519 N527 1.356 . S
C520 C519 1.363 . S
C520 C526 1.363 . S
C521 C522 1.363 . S
C521 C526 1.379 . S
C521 N528 1.356 . S
C522 C521 1.363 . S
C522 C525 1.363 . S
N523 C525 1.356 . S
N523 H535 0.984 . S
N523 H536 0.985 . S
N524 C526 1.356 . S
N524 H529 0.984 . S
N524 H530 0.985 . S
C525 C519 1.379 . S
C525 C522 1.363 . S
C525 N523 1.356 . S
C526 C520 1.363 . S
C526 C521 1.379 . S
C526 N524 1.356 . S
N527 C519 1.356 . S
N527 H533 0.984 . S
N527 H534 0.984 . S
N528 C521 1.356 . S
N528 H531 0.984 . S
N528 H532 0.985 . S
H529 N524 0.984 . S
H530 N524 0.985 . S
H531 N528 0.984 . S
H532 N528 0.985 . S
H533 N527 0.984 . S
H534 N527 0.984 . S
H535 N523 0.984 . S
H536 N523 0.985 . S
C537 C538 1.363 . S
C537 C543 1.379 . S
C537 N545 1.356 . S
C538 C537 1.363 . S
C538 C544 1.363 . S
C539 C540 1.363 . S
C539 C544 1.379 . S
C539 N546 1.356 . S
C540 C539 1.363 . S
C540 C543 1.363 . S
N541 C543 1.356 . S
N541 H553 0.984 . S
N541 H554 0.985 . S
N542 C544 1.356 . S
N542 H547 0.984 . S
N542 H548 0.985 . S
C543 C537 1.379 . S
C543 C540 1.363 . S
C543 N541 1.356 . S
C544 C538 1.363 . S
C544 C539 1.379 . S
C544 N542 1.356 . S
N545 C537 1.356 . S
N545 H551 0.984 . S
N545 H552 0.984 . S
N546 C539 1.356 . S
N546 H549 0.984 . S
N546 H550 0.985 . S
H547 N542 0.984 . S
H548 N542 0.985 . S
H549 N546 0.984 . S
H550 N546 0.985 . S
H551 N545 0.984 . S
H552 N545 0.984 . S
H553 N541 0.984 . S
H554 N541 0.985 . S
C555 C556 1.363 . S
C555 C561 1.379 . S
C555 N563 1.356 . S
C556 C555 1.363 . S
C556 C562 1.363 . S
C557 C558 1.363 . S
C557 C562 1.379 . S
C557 N564 1.356 . S
C558 C557 1.363 . S
C558 C561 1.363 . S
N559 C561 1.356 . S
N559 H571 0.984 . S
N559 H572 0.985 . S
N560 C562 1.356 . S
N560 H565 0.984 . S
N560 H566 0.985 . S
C561 C555 1.379 . S
C561 C558 1.363 . S
C561 N559 1.356 . S
C562 C556 1.363 . S
C562 C557 1.379 . S
C562 N560 1.356 . S
N563 C555 1.356 . S
N563 H569 0.984 . S
N563 H570 0.984 . S
N564 C557 1.356 . S
N564 H567 0.984 . S
N564 H568 0.985 . S
H565 N560 0.984 . S
H566 N560 0.985 . S
H567 N564 0.984 . S
H568 N564 0.985 . S
H569 N563 0.984 . S
H570 N563 0.984 . S
H571 N559 0.984 . S
H572 N559 0.985 . S
C573 C574 1.363 . S
C573 C579 1.379 . S
C573 N581 1.356 . S
C574 C573 1.363 . S
C574 C580 1.363 . S
C575 C576 1.363 . S
C575 C580 1.379 . S
C575 N582 1.356 . S
C576 C575 1.363 . S
C576 C579 1.363 . S
N577 C579 1.356 . S
N577 H589 0.984 . S
N577 H590 0.985 . S
N578 C580 1.356 . S
N578 H583 0.984 . S
N578 H584 0.985 . S
C579 C573 1.379 . S
C579 C576 1.363 . S
C579 N577 1.356 . S
C580 C574 1.363 . S
C580 C575 1.379 . S
C580 N578 1.356 . S
N581 C573 1.356 . S
N581 H587 0.984 . S
N581 H588 0.984 . S
N582 C575 1.356 . S
N582 H585 0.984 . S
N582 H586 0.985 . S
H583 N578 0.984 . S
H584 N578 0.985 . S
H585 N582 0.984 . S
H586 N582 0.985 . S
H587 N581 0.984 . S
H588 N581 0.984 . S
H589 N577 0.984 . S
H590 N577 0.985 . S
C591 C592 1.363 . S
C591 C597 1.379 . S
C591 N599 1.356 . S
C592 C591 1.363 . S
C592 C598 1.363 . S
C593 C594 1.363 . S
C593 C598 1.379 . S
C593 N600 1.356 . S
C594 C593 1.363 . S
C594 C597 1.363 . S
N595 C597 1.356 . S
N595 H607 0.984 . S
N595 H608 0.985 . S
N596 C598 1.356 . S
N596 H601 0.984 . S
N596 H602 0.985 . S
C597 C591 1.379 . S
C597 C594 1.363 . S
C597 N595 1.356 . S
C598 C592 1.363 . S
C598 C593 1.379 . S
C598 N596 1.356 . S
N599 C591 1.356 . S
N599 H605 0.984 . S
N599 H606 0.984 . S
N600 C593 1.356 . S
N600 H603 0.984 . S
N600 H604 0.985 . S
H601 N596 0.984 . S
H602 N596 0.985 . S
H603 N600 0.984 . S
H604 N600 0.985 . S
H605 N599 0.984 . S
H606 N599 0.984 . S
H607 N595 0.984 . S
H608 N595 0.985 . S
C178 C1 1.749 . S
C180 C84 1.656 . S
C196 C27 1.450 . S
C198 C116 1.425 . S
C216 C175 1.702 . S
C214 C40 1.752 . S
C234 C104 1.331 . S
C232 C55 1.362 . S
C250 C68 1.672 . S
C252 C134 1.573 . S
C270 C156 1.284 . S
C268 C70 1.294 . S
C288 C125 1.656 . S
C286 C41 1.689 . S
C304 C54 1.360 . S
C306 C165 1.297 . S
C324 C114 1.586 . S
C322 C69 1.622 1_556 S
C340 C71 1.423 . S
C342 C144 1.386 . S
C358 C0 1.678 . S
C360 C147 1.635 . S
C378 C86 1.484 . S
C376 C26 1.509 1_556 S
C396 C94 1.626 . S
C394 C42 1.678 . S
C414 C135 1.406 . S
C412 C57 1.436 1_556 S
C432 C148 1.720 . S
C430 C83 1.772 . S
C450 C85 1.350 . S
C448 C12 1.384 . S
C468 C145 1.556 . S
C466 C14 1.608 . S
C484 C29 1.314 . S
C486 C146 1.273 . S
C504 C115 1.613 . S
C502 C82 1.689 . S
C522 C176 1.284 . S
C520 C13 1.316 . S
C540 C103 1.553 . S
C538 C15 1.633 . S
C558 C117 1.420 . S
C556 C28 1.458 . S
C574 C43 1.689 . S
C576 C166 1.639 . S
C592 C56 1.523 . S
C594 C113 1.492 . S
