# Generated by pormake.
# Topology gar, (4,6)-cn, num edge types: 1
# Building blocks:
#     Node 0, Type 0, BuildingBlock: GALJAG_clean_sbu_0, # of connection points: 4
#     Node 1, Type 0, BuildingBlock: GALJAG_clean_sbu_0, # of connection points: 4
#     Node 2, Type 0, BuildingBlock: GALJAG_clean_sbu_0, # of connection points: 4
#     Node 3, Type 0, BuildingBlock: GALJAG_clean_sbu_0, # of connection points: 4
#     Node 4, Type 0, BuildingBlock: GALJAG_clean_sbu_0, # of connection points: 4
#     Node 5, Type 0, BuildingBlock: GALJAG_clean_sbu_0, # of connection points: 4
#     Node 6, Type 0, BuildingBlock: GALJAG_clean_sbu_0, # of connection points: 4
#     Node 7, Type 0, BuildingBlock: GALJAG_clean_sbu_0, # of connection points: 4
#     Node 8, Type 0, BuildingBlock: GALJAG_clean_sbu_0, # of connection points: 4
#     Node 9, Type 0, BuildingBlock: GALJAG_clean_sbu_0, # of connection points: 4
#     Node 10, Type 0, BuildingBlock: GALJAG_clean_sbu_0, # of connection points: 4
#     Node 11, Type 0, BuildingBlock: GALJAG_clean_sbu_0, # of connection points: 4
#     Node 12, Type 0, BuildingBlock: GALJAG_clean_sbu_0, # of connection points: 4
#     Node 13, Type 0, BuildingBlock: GALJAG_clean_sbu_0, # of connection points: 4
#     Node 14, Type 0, BuildingBlock: GALJAG_clean_sbu_0, # of connection points: 4
#     Node 15, Type 0, BuildingBlock: GALJAG_clean_sbu_0, # of connection points: 4
#     Node 16, Type 0, BuildingBlock: GALJAG_clean_sbu_0, # of connection points: 4
#     Node 17, Type 0, BuildingBlock: GALJAG_clean_sbu_0, # of connection points: 4
#     Node 18, Type 0, BuildingBlock: GALJAG_clean_sbu_0, # of connection points: 4
#     Node 19, Type 0, BuildingBlock: GALJAG_clean_sbu_0, # of connection points: 4
#     Node 20, Type 0, BuildingBlock: GALJAG_clean_sbu_0, # of connection points: 4
#     Node 21, Type 0, BuildingBlock: GALJAG_clean_sbu_0, # of connection points: 4
#     Node 22, Type 0, BuildingBlock: GALJAG_clean_sbu_0, # of connection points: 4
#     Node 23, Type 0, BuildingBlock: GALJAG_clean_sbu_0, # of connection points: 4
#     Node 24, Type 1, BuildingBlock: GEDQOX_clean_sbu_0, # of connection points: 6
#     Node 25, Type 1, BuildingBlock: GEDQOX_clean_sbu_0, # of connection points: 6
#     Node 26, Type 1, BuildingBlock: GEDQOX_clean_sbu_0, # of connection points: 6
#     Node 27, Type 1, BuildingBlock: GEDQOX_clean_sbu_0, # of connection points: 6
#     Node 28, Type 1, BuildingBlock: GEDQOX_clean_sbu_0, # of connection points: 6
#     Node 29, Type 1, BuildingBlock: GEDQOX_clean_sbu_0, # of connection points: 6
#     Node 30, Type 1, BuildingBlock: GEDQOX_clean_sbu_0, # of connection points: 6
#     Node 31, Type 1, BuildingBlock: GEDQOX_clean_sbu_0, # of connection points: 6
#     Node 32, Type 1, BuildingBlock: GEDQOX_clean_sbu_0, # of connection points: 6
#     Node 33, Type 1, BuildingBlock: GEDQOX_clean_sbu_0, # of connection points: 6
#     Node 34, Type 1, BuildingBlock: GEDQOX_clean_sbu_0, # of connection points: 6
#     Node 35, Type 1, BuildingBlock: GEDQOX_clean_sbu_0, # of connection points: 6
#     Node 36, Type 1, BuildingBlock: GEDQOX_clean_sbu_0, # of connection points: 6
#     Node 37, Type 1, BuildingBlock: GEDQOX_clean_sbu_0, # of connection points: 6
#     Node 38, Type 1, BuildingBlock: GEDQOX_clean_sbu_0, # of connection points: 6
#     Node 39, Type 1, BuildingBlock: GEDQOX_clean_sbu_0, # of connection points: 6
#     Edge 40, Type (0, 1), BuildingBlock: OJICUG_clean_linker_0, # of connection points: 2
#     Edge 41, Type (0, 1), BuildingBlock: OJICUG_clean_linker_0, # of connection points: 2
#     Edge 42, Type (0, 1), BuildingBlock: OJICUG_clean_linker_0, # of connection points: 2
#     Edge 43, Type (0, 1), BuildingBlock: OJICUG_clean_linker_0, # of connection points: 2
#     Edge 44, Type (0, 1), BuildingBlock: OJICUG_clean_linker_0, # of connection points: 2
#     Edge 45, Type (0, 1), BuildingBlock: OJICUG_clean_linker_0, # of connection points: 2
#     Edge 46, Type (0, 1), BuildingBlock: OJICUG_clean_linker_0, # of connection points: 2
#     Edge 47, Type (0, 1), BuildingBlock: OJICUG_clean_linker_0, # of connection points: 2
#     Edge 48, Type (0, 1), BuildingBlock: OJICUG_clean_linker_0, # of connection points: 2
#     Edge 49, Type (0, 1), BuildingBlock: OJICUG_clean_linker_0, # of connection points: 2
#     Edge 50, Type (0, 1), BuildingBlock: OJICUG_clean_linker_0, # of connection points: 2
#     Edge 51, Type (0, 1), BuildingBlock: OJICUG_clean_linker_0, # of connection points: 2
#     Edge 52, Type (0, 1), BuildingBlock: OJICUG_clean_linker_0, # of connection points: 2
#     Edge 53, Type (0, 1), BuildingBlock: OJICUG_clean_linker_0, # of connection points: 2
#     Edge 54, Type (0, 1), BuildingBlock: OJICUG_clean_linker_0, # of connection points: 2
#     Edge 55, Type (0, 1), BuildingBlock: OJICUG_clean_linker_0, # of connection points: 2
#     Edge 56, Type (0, 1), BuildingBlock: OJICUG_clean_linker_0, # of connection points: 2
#     Edge 57, Type (0, 1), BuildingBlock: OJICUG_clean_linker_0, # of connection points: 2
#     Edge 58, Type (0, 1), BuildingBlock: OJICUG_clean_linker_0, # of connection points: 2
#     Edge 59, Type (0, 1), BuildingBlock: OJICUG_clean_linker_0, # of connection points: 2
#     Edge 60, Type (0, 1), BuildingBlock: OJICUG_clean_linker_0, # of connection points: 2
#     Edge 61, Type (0, 1), BuildingBlock: OJICUG_clean_linker_0, # of connection points: 2
#     Edge 62, Type (0, 1), BuildingBlock: OJICUG_clean_linker_0, # of connection points: 2
#     Edge 63, Type (0, 1), BuildingBlock: OJICUG_clean_linker_0, # of connection points: 2
#     Edge 64, Type (0, 1), BuildingBlock: OJICUG_clean_linker_0, # of connection points: 2
#     Edge 65, Type (0, 1), BuildingBlock: OJICUG_clean_linker_0, # of connection points: 2
#     Edge 66, Type (0, 1), BuildingBlock: OJICUG_clean_linker_0, # of connection points: 2
#     Edge 67, Type (0, 1), BuildingBlock: OJICUG_clean_linker_0, # of connection points: 2
#     Edge 68, Type (0, 1), BuildingBlock: OJICUG_clean_linker_0, # of connection points: 2
#     Edge 69, Type (0, 1), BuildingBlock: OJICUG_clean_linker_0, # of connection points: 2
#     Edge 70, Type (0, 1), BuildingBlock: OJICUG_clean_linker_0, # of connection points: 2
#     Edge 71, Type (0, 1), BuildingBlock: OJICUG_clean_linker_0, # of connection points: 2
#     Edge 72, Type (0, 1), BuildingBlock: OJICUG_clean_linker_0, # of connection points: 2
#     Edge 73, Type (0, 1), BuildingBlock: OJICUG_clean_linker_0, # of connection points: 2
#     Edge 74, Type (0, 1), BuildingBlock: OJICUG_clean_linker_0, # of connection points: 2
#     Edge 75, Type (0, 1), BuildingBlock: OJICUG_clean_linker_0, # of connection points: 2
#     Edge 76, Type (0, 1), BuildingBlock: OJICUG_clean_linker_0, # of connection points: 2
#     Edge 77, Type (0, 1), BuildingBlock: OJICUG_clean_linker_0, # of connection points: 2
#     Edge 78, Type (0, 1), BuildingBlock: OJICUG_clean_linker_0, # of connection points: 2
#     Edge 79, Type (0, 1), BuildingBlock: OJICUG_clean_linker_0, # of connection points: 2
#     Edge 80, Type (0, 1), BuildingBlock: OJICUG_clean_linker_0, # of connection points: 2
#     Edge 81, Type (0, 1), BuildingBlock: OJICUG_clean_linker_0, # of connection points: 2
#     Edge 82, Type (0, 1), BuildingBlock: OJICUG_clean_linker_0, # of connection points: 2
#     Edge 83, Type (0, 1), BuildingBlock: OJICUG_clean_linker_0, # of connection points: 2
#     Edge 84, Type (0, 1), BuildingBlock: OJICUG_clean_linker_0, # of connection points: 2
#     Edge 85, Type (0, 1), BuildingBlock: OJICUG_clean_linker_0, # of connection points: 2
#     Edge 86, Type (0, 1), BuildingBlock: OJICUG_clean_linker_0, # of connection points: 2
#     Edge 87, Type (0, 1), BuildingBlock: OJICUG_clean_linker_0, # of connection points: 2
#     Edge 88, Type (0, 1), BuildingBlock: OJICUG_clean_linker_0, # of connection points: 2
#     Edge 89, Type (0, 1), BuildingBlock: OJICUG_clean_linker_0, # of connection points: 2
#     Edge 90, Type (0, 1), BuildingBlock: OJICUG_clean_linker_0, # of connection points: 2
#     Edge 91, Type (0, 1), BuildingBlock: OJICUG_clean_linker_0, # of connection points: 2
#     Edge 92, Type (0, 1), BuildingBlock: OJICUG_clean_linker_0, # of connection points: 2
#     Edge 93, Type (0, 1), BuildingBlock: OJICUG_clean_linker_0, # of connection points: 2
#     Edge 94, Type (0, 1), BuildingBlock: OJICUG_clean_linker_0, # of connection points: 2
#     Edge 95, Type (0, 1), BuildingBlock: OJICUG_clean_linker_0, # of connection points: 2
#     Edge 96, Type (0, 1), BuildingBlock: OJICUG_clean_linker_0, # of connection points: 2
#     Edge 97, Type (0, 1), BuildingBlock: OJICUG_clean_linker_0, # of connection points: 2
#     Edge 98, Type (0, 1), BuildingBlock: OJICUG_clean_linker_0, # of connection points: 2
#     Edge 99, Type (0, 1), BuildingBlock: OJICUG_clean_linker_0, # of connection points: 2
#     Edge 100, Type (0, 1), BuildingBlock: OJICUG_clean_linker_0, # of connection points: 2
#     Edge 101, Type (0, 1), BuildingBlock: OJICUG_clean_linker_0, # of connection points: 2
#     Edge 102, Type (0, 1), BuildingBlock: OJICUG_clean_linker_0, # of connection points: 2
#     Edge 103, Type (0, 1), BuildingBlock: OJICUG_clean_linker_0, # of connection points: 2
#     Edge 104, Type (0, 1), BuildingBlock: OJICUG_clean_linker_0, # of connection points: 2
#     Edge 105, Type (0, 1), BuildingBlock: OJICUG_clean_linker_0, # of connection points: 2
#     Edge 106, Type (0, 1), BuildingBlock: OJICUG_clean_linker_0, # of connection points: 2
#     Edge 107, Type (0, 1), BuildingBlock: OJICUG_clean_linker_0, # of connection points: 2
#     Edge 108, Type (0, 1), BuildingBlock: OJICUG_clean_linker_0, # of connection points: 2
#     Edge 109, Type (0, 1), BuildingBlock: OJICUG_clean_linker_0, # of connection points: 2
#     Edge 110, Type (0, 1), BuildingBlock: OJICUG_clean_linker_0, # of connection points: 2
#     Edge 111, Type (0, 1), BuildingBlock: OJICUG_clean_linker_0, # of connection points: 2
#     Edge 112, Type (0, 1), BuildingBlock: OJICUG_clean_linker_0, # of connection points: 2
#     Edge 113, Type (0, 1), BuildingBlock: OJICUG_clean_linker_0, # of connection points: 2
#     Edge 114, Type (0, 1), BuildingBlock: OJICUG_clean_linker_0, # of connection points: 2
#     Edge 115, Type (0, 1), BuildingBlock: OJICUG_clean_linker_0, # of connection points: 2
#     Edge 116, Type (0, 1), BuildingBlock: OJICUG_clean_linker_0, # of connection points: 2
#     Edge 117, Type (0, 1), BuildingBlock: OJICUG_clean_linker_0, # of connection points: 2
#     Edge 118, Type (0, 1), BuildingBlock: OJICUG_clean_linker_0, # of connection points: 2
#     Edge 119, Type (0, 1), BuildingBlock: OJICUG_clean_linker_0, # of connection points: 2
#     Edge 120, Type (0, 1), BuildingBlock: OJICUG_clean_linker_0, # of connection points: 2
#     Edge 121, Type (0, 1), BuildingBlock: OJICUG_clean_linker_0, # of connection points: 2
#     Edge 122, Type (0, 1), BuildingBlock: OJICUG_clean_linker_0, # of connection points: 2
#     Edge 123, Type (0, 1), BuildingBlock: OJICUG_clean_linker_0, # of connection points: 2
#     Edge 124, Type (0, 1), BuildingBlock: OJICUG_clean_linker_0, # of connection points: 2
#     Edge 125, Type (0, 1), BuildingBlock: OJICUG_clean_linker_0, # of connection points: 2
#     Edge 126, Type (0, 1), BuildingBlock: OJICUG_clean_linker_0, # of connection points: 2
#     Edge 127, Type (0, 1), BuildingBlock: OJICUG_clean_linker_0, # of connection points: 2
#     Edge 128, Type (0, 1), BuildingBlock: OJICUG_clean_linker_0, # of connection points: 2
#     Edge 129, Type (0, 1), BuildingBlock: OJICUG_clean_linker_0, # of connection points: 2
#     Edge 130, Type (0, 1), BuildingBlock: OJICUG_clean_linker_0, # of connection points: 2
#     Edge 131, Type (0, 1), BuildingBlock: OJICUG_clean_linker_0, # of connection points: 2
#     Edge 132, Type (0, 1), BuildingBlock: OJICUG_clean_linker_0, # of connection points: 2
#     Edge 133, Type (0, 1), BuildingBlock: OJICUG_clean_linker_0, # of connection points: 2
#     Edge 134, Type (0, 1), BuildingBlock: OJICUG_clean_linker_0, # of connection points: 2
#     Edge 135, Type (0, 1), BuildingBlock: OJICUG_clean_linker_0, # of connection points: 2
# Relax obj value: 0.367
# Max RMSD: 0.509
# Mean RMSD: 0.202
data_MOF--net-gar--node1-GALJAG_clean_sbu_0--node2-GEDQOX_clean_sbu_0--edge1-OJICUG_clean_linker_0
_symmetry_space_group_name_H-M    P1
_symmetry_Int_Tables_number       1
_symmetry_cell_setting            triclinic
loop_
_symmetry_equiv_pos_as_xyz
'x, y, z'
_cell_length_a     44.923255
_cell_length_b     43.497592
_cell_length_c     38.603685
_cell_angle_alpha  98.974861
_cell_angle_beta   96.981836
_cell_angle_gamma 96.940791
loop_
_atom_site_label
_atom_site_type_symbol
_atom_site_fract_x
_atom_site_fract_y
_atom_site_fract_z
_atom_type_partial_charge
In0 In 0.18983 0.42583 0.51106 0.0
O1 O 0.19753 0.4248 0.45416 0.0
O2 O 0.22266 0.39666 0.48325 0.0
C3 C 0.13433 0.42751 0.47791 0.0
C4 C 0.177 0.38336 0.55234 0.0
C5 C 0.20999 0.48198 0.55403 0.0
O6 O 0.14457 0.40221 0.48093 0.0
O7 O 0.15176 0.45218 0.49269 0.0
O8 O 0.20276 0.45705 0.56553 0.0
O9 O 0.21218 0.47733 0.52143 0.0
C10 C 0.21473 0.40407 0.45339 0.0
O11 O 0.15926 0.40222 0.54386 0.0
O12 O 0.20205 0.38602 0.54025 0.0
In13 In 1.01897 0.78314 0.69191 0.0
O14 O 1.01224 0.8243 0.66304 0.0
O15 O 0.05732 0.81824 0.6823 0.0
C16 C 0.99142 0.73596 0.63963 0.0
C17 C 0.06206 0.74949 0.71169 0.0
C18 C 1.00105 0.81107 0.75188 0.0
O19 O 0.98873 0.7358 0.67181 0.0
O20 O 1.00302 0.7622 0.63399 0.0
O21 O 1.02748 0.80503 0.74979 0.0
O22 O 0.9827 0.80276 0.72331 0.0
C23 C 1.04032 0.83387 0.66578 0.0
O24 O 1.03815 0.74986 0.72574 0.0
O25 O 0.06404 0.76599 0.68768 0.0
In26 In 0.67421 0.91533 0.98425 0.0
O27 O 0.7012 0.9212 0.93942 0.0
O28 O 0.70677 0.88184 0.96422 0.0
C29 C 0.62681 0.91805 0.93615 0.0
C30 C 0.65256 0.87335 0.02167 0.0
C31 C 0.6837 0.97049 0.03037 0.0
O32 O 0.63565 0.89248 0.94106 0.0
O33 O 0.64101 0.9421 0.9566 0.0
O34 O 0.67438 0.94469 0.03888 0.0
O35 O 0.69325 0.9675 1.00079 0.0
C36 C 0.71101 0.89528 0.93816 0.0
O37 O 0.6359 0.8854 1.00024 0.0
O38 O 0.68086 0.88226 0.02409 0.0
In39 In 0.52896 0.29919 0.18434 0.0
O40 O 0.5176 0.27161 0.12828 0.0
O41 O 0.49891 0.25169 0.16847 0.0
C42 C 0.55312 0.34442 0.15246 0.0
C43 C 0.50979 0.33404 0.23882 0.0
C44 C 0.56828 0.26702 0.2152 0.0
O45 O 0.52473 0.33622 0.1491 0.0
O46 O 0.56889 0.33001 0.17209 0.0
O47 O 0.54335 0.27049 0.22607 0.0
O48 O 0.57343 0.28008 0.1891 0.0
C49 C 0.50617 0.24688 0.13764 0.0
O50 O 0.53672 0.32912 0.23811 0.0
O51 O 0.49144 0.32153 0.21111 0.0
In52 In 0.09252 0.83945 0.27449 0.0
O53 O 0.09799 0.80937 0.22269 0.0
O54 O 0.08511 0.78493 0.26322 0.0
C55 C 0.08467 0.88217 0.23094 0.0
C56 C 1.03561 0.83871 0.29924 0.0
C57 C 0.15365 0.84858 0.30799 0.0
O58 O 0.08871 0.85426 0.22047 0.0
O59 O 0.08573 0.88944 0.2642 0.0
O60 O 0.13378 0.8266 0.31192 0.0
O61 O 0.14221 0.86747 0.29036 0.0
C62 C 0.09111 0.78315 0.23182 0.0
O63 O 0.06034 0.85076 0.31898 0.0
O64 O 1.04001 0.82641 0.2689 0.0
In65 In 0.60246 0.87884 0.41449 0.0
O66 O 0.63438 0.86797 0.36943 0.0
O67 O 0.65498 0.89017 0.42027 0.0
C68 C 0.54118 0.87189 0.3819 0.0
C69 C 0.60932 0.83562 0.45771 0.0
C70 C 0.60576 0.93527 0.45738 0.0
O71 O 0.5615 0.89357 0.37836 0.0
O72 O 0.55218 0.85212 0.39856 0.0
O73 O 0.59884 0.9092 0.4668 0.0
O74 O 0.61081 0.93326 0.42561 0.0
C75 C 0.65923 0.87884 0.38954 0.0
O76 O 0.60555 0.8636 0.46829 0.0
O77 O 0.60832 0.82847 0.42442 0.0
In78 In 0.5902 0.33918 0.77375 0.0
O79 O 0.59232 0.30994 0.71996 0.0
O80 O 0.58277 0.28473 0.76102 0.0
C81 C 0.58261 0.3844 0.73336 0.0
C82 C 0.53353 0.33756 0.79896 0.0
C83 C 0.65125 0.34755 0.80762 0.0
O84 O 0.59265 0.35928 0.72272 0.0
O85 O 0.57776 0.38775 0.76527 0.0
O86 O 0.63128 0.32533 0.81063 0.0
O87 O 0.63993 0.36707 0.79086 0.0
C88 C 0.58664 0.28347 0.72894 0.0
O89 O 0.55835 0.34908 0.81885 0.0
O90 O 0.53776 0.32611 0.7682 0.0
In91 In 0.10013 0.37905 0.91031 0.0
O92 O 0.10395 0.36417 0.9642 0.0
O93 O 0.1061 0.32877 0.92033 0.0
C94 C 0.10249 0.43522 0.95336 0.0
C95 C 0.1569 0.37946 0.88535 0.0
C96 C 1.0388 0.3711 0.87797 0.0
O97 O 0.09522 0.409 0.96228 0.0
O98 O 0.10843 0.43353 0.92194 0.0
O99 O 0.05872 0.39318 0.87442 0.0
O100 O 1.05027 0.35145 0.8944 0.0
C101 C 0.1075 0.33612 0.95365 0.0
O102 O 0.13204 0.36899 0.86508 0.0
O103 O 0.15265 0.39021 0.91626 0.0
In104 In 0.49002 0.16328 0.33558 0.0
O105 O 0.53196 0.16151 0.30559 0.0
O106 O 0.48891 0.1402 0.27831 0.0
C107 C 0.52298 0.15052 0.39511 0.0
C108 C 0.47058 0.21949 0.32888 0.0
C109 C 0.4374 0.12777 0.33936 0.0
O110 O 0.5237 0.17817 0.38848 0.0
O111 O 0.50697 0.12992 0.37135 0.0
O112 O 0.44528 0.15473 0.35799 0.0
O113 O 0.45614 0.11894 0.31953 0.0
C114 C 0.51679 0.14606 0.27708 0.0
O115 O 0.46392 0.19525 0.30542 0.0
O116 O 0.48849 0.2161 0.35544 0.0
In117 In 0.30589 0.17533 0.4894 0.0
O118 O 0.34489 0.21429 0.51255 0.0
O119 O 0.33343 0.17991 0.54384 0.0
C120 C 0.29456 0.21794 0.44774 0.0
C121 C 0.33527 0.12634 0.47046 0.0
C122 C 0.25337 0.16156 0.51445 0.0
O123 O 0.29439 0.22286 0.48073 0.0
O124 O 0.29842 0.19031 0.43488 0.0
O125 O 0.25633 0.15138 0.48264 0.0
O126 O 0.27644 0.17862 0.5325 0.0
C127 C 0.35025 0.20462 0.54143 0.0
O128 O 0.3116 0.12358 0.48487 0.0
O129 O 0.34155 0.15274 0.46146 0.0
In130 In 0.23737 0.10229 0.86121 0.0
O131 O 0.19115 0.09865 0.82545 0.0
O132 O 0.22877 0.09064 0.79917 0.0
C133 C 0.20164 0.10606 0.91889 0.0
C134 C 0.26267 0.04291 0.85472 0.0
C135 C 0.2694 0.16466 0.85837 0.0
O136 O 0.19442 0.1137 0.88916 0.0
O137 O 0.22755 0.09719 0.92076 0.0
O138 O 0.27923 0.14689 0.87909 0.0
O139 O 0.24481 0.15116 0.84021 0.0
C140 C 0.20082 0.09313 0.79603 0.0
O141 O 0.27825 0.06997 0.86509 0.0
O142 O 0.23494 0.0457 0.84782 0.0
In143 In 0.28424 0.96291 0.0968 0.0
O144 O 0.28016 0.92313 0.1302 0.0
O145 O 0.30978 0.96541 0.15173 0.0
C146 C 0.29081 0.92181 0.03739 0.0
C147 C 0.23585 0.99266 0.11161 0.0
C148 C 0.32459 1.01005 0.08658 0.0
O149 O 0.30854 0.92632 0.06619 0.0
O150 O 0.26855 0.93701 0.03863 0.0
O151 O 0.29953 1.00171 0.06668 0.0
O152 O 0.32937 0.99408 0.11075 0.0
C153 C 0.29929 0.93827 0.15581 0.0
O154 O 0.26303 1.00506 0.11976 0.0
O155 O 0.2324 0.96432 0.09597 0.0
In156 In 0.39085 0.53932 0.19186 0.0
O157 O 0.40047 0.49123 0.20065 0.0
O158 O 0.39806 0.52447 0.24655 0.0
C159 C 0.34579 0.51073 0.14051 0.0
C160 C 0.36291 0.59001 0.20812 0.0
C161 C 0.44428 0.55103 0.16811 0.0
O162 O 0.36548 0.53247 0.13619 0.0
O163 O 0.34877 0.50349 0.17093 0.0
O164 O 0.44065 0.56256 0.1993 0.0
O165 O 0.42138 0.5337 0.14999 0.0
C166 C 0.40087 0.49649 0.23372 0.0
O167 O 0.38609 0.59101 0.19274 0.0
O168 O 0.35647 0.56471 0.21945 0.0
In169 In 0.90967 0.25781 0.09279 0.0
O170 O 0.93116 0.21701 0.06698 0.0
O171 O 0.96164 0.25618 0.0954 0.0
C172 C 0.87398 0.20809 0.10547 0.0
C173 C 0.90104 0.29887 0.15101 0.0
C174 C 0.892 0.28433 0.03599 0.0
O175 O 0.87194 0.21695 0.07581 0.0
O176 O 0.89373 0.2247 0.12922 0.0
O177 O 0.91547 0.29618 0.05781 0.0
O178 O 0.87807 0.25964 0.04292 0.0
C179 C 0.9583 0.22869 0.0774 0.0
O180 O 0.88291 0.29239 0.1224 0.0
O181 O 0.92467 0.28573 0.15008 0.0
In182 In 0.2 0.54622 0.34241 0.0
O183 O 0.22845 0.51656 0.37361 0.0
O184 O 0.2026 0.49353 0.32502 0.0
C185 C 0.251 0.5789 0.32946 0.0
C186 C 0.16397 0.56018 0.28661 0.0
C187 C 0.17149 0.5661 0.39802 0.0
O188 O 0.24336 0.58119 0.36001 0.0
O189 O 0.23353 0.55946 0.3059 0.0
O190 O 0.16022 0.54224 0.37491 0.0
O191 O 0.19678 0.57925 0.39305 0.0
C192 C 0.22173 0.49163 0.35118 0.0
O193 O 0.17787 0.58035 0.31233 0.0
O194 O 0.16663 0.53202 0.28969 0.0
In195 In 0.88766 0.03643 0.69766 0.0
O196 O 0.91601 1.00947 0.73176 0.0
O197 O 0.87894 1.02787 0.75241 0.0
C198 C 0.85261 0.98841 0.65274 0.0
C199 C 0.85423 0.08393 0.70347 0.0
C200 C 0.93788 0.0521 0.66916 0.0
O201 O 0.86888 0.98477 0.68023 0.0
O202 O 0.85454 1.01633 0.64721 0.0
O203 O 0.93559 0.0629 0.70101 0.0
O204 O 0.91498 1.03382 0.65227 0.0
C205 C 0.89909 1.01021 0.75552 0.0
O206 O 0.88127 0.08796 0.6974 0.0
O207 O 0.84536 0.05694 0.70945 0.0
In208 In 0.95409 0.11557 0.32537 0.0
O209 O 0.99514 0.13409 0.29608 0.0
O210 O 0.96512 0.09619 0.26687 0.0
C211 C 0.98991 0.11923 0.39037 0.0
C212 C 0.92606 0.17343 0.33088 0.0
C213 C 0.92377 0.05281 0.32807 0.0
O214 O 0.99944 0.11393 0.36086 0.0
O215 O 0.96248 0.12375 0.38748 0.0
O216 O 0.91005 0.07398 0.31654 0.0
O217 O 0.9516 0.06305 0.33712 0.0
C218 C 0.9893 0.11469 0.2674 0.0
O219 O 0.9129 0.14674 0.3141 0.0
O220 O 0.95246 0.17085 0.34461 0.0
In221 In 0.41363 0.76042 0.59262 0.0
O222 O 0.43484 0.72006 0.56601 0.0
O223 O 0.46551 0.75846 0.59604 0.0
C224 C 0.37838 0.71097 0.60597 0.0
C225 C 0.40231 0.80098 0.64975 0.0
C226 C 0.39625 0.78632 0.53553 0.0
O227 O 0.37592 0.71993 0.57636 0.0
O228 O 0.39882 0.72712 0.62927 0.0
O229 O 0.41917 0.7989 0.55789 0.0
O230 O 0.38278 0.76124 0.5421 0.0
C231 C 0.46198 0.7313 0.57715 0.0
O232 O 0.42682 0.78926 0.64976 0.0
O233 O 0.38483 0.79358 0.6207 0.0
In234 In 0.45271 0.61643 0.82584 0.0
O235 O 0.41067 0.64654 0.81419 0.0
O236 O 0.45012 0.67155 0.84411 0.0
C237 C 0.42149 0.55422 0.8295 0.0
C238 C 0.48845 0.61463 0.76804 0.0
C239 C 0.48982 0.62207 0.89056 0.0
O240 O 0.44811 0.566 0.84352 0.0
O241 O 0.40931 0.57372 0.81288 0.0
O242 O 0.46234 0.62633 0.88799 0.0
O243 O 0.49878 0.61584 0.8608 0.0
C244 C 0.42355 0.67353 0.83044 0.0
O245 O 0.49028 0.63756 0.79297 0.0
O246 O 0.46796 0.59293 0.77102 0.0
In247 In 0.70411 0.0475 0.8424 0.0
O248 O 0.70553 0.99452 0.82399 0.0
O249 O 0.72851 1.0154 0.87473 0.0
C250 C 0.75709 0.07723 0.83066 0.0
C251 C 0.66989 0.06333 0.78591 0.0
C252 C 0.67704 0.06976 0.89866 0.0
O253 O 0.74782 0.08176 0.8603 0.0
O254 O 0.74005 0.0572 0.80729 0.0
O255 O 0.66322 0.04864 0.87359 0.0
O256 O 0.70398 0.07913 0.89524 0.0
C257 C 0.72253 0.99113 0.8513 0.0
O258 O 0.68638 0.08298 0.81031 0.0
O259 O 0.66907 0.03507 0.79069 0.0
In260 In 0.80938 0.67165 0.993 0.0
O261 O 0.813 0.61937 0.98738 0.0
O262 O 0.8435 0.6474 0.96351 0.0
C263 C 0.75453 0.66619 0.01504 0.0
C264 C 0.85012 0.69131 0.0515 0.0
C265 C 0.80607 0.71759 0.95378 0.0
O266 O 0.75886 0.65079 0.98589 0.0
O267 O 0.77735 0.6845 0.0318 0.0
O268 O 0.81857 0.7219 0.98543 0.0
O269 O 0.79453 0.68944 0.94103 0.0
C270 C 0.83641 0.62113 0.97245 0.0
O271 O 0.85201 0.7021 0.02325 0.0
O272 O 0.82797 0.67007 0.04981 0.0
In273 In 0.99437 0.66732 0.83929 0.0
O274 O 0.97226 0.70143 0.80757 0.0
O275 O 0.98879 0.71808 0.86169 0.0
C276 C 0.94094 0.63197 0.84077 0.0
C277 C 1.02364 0.65007 0.78334 0.0
C278 C 1.02757 0.65306 0.89757 0.0
O279 O 0.9503 0.65702 0.86262 0.0
O280 O 0.95831 0.62523 0.81836 0.0
O281 O 1.02908 0.68085 0.89134 0.0
O282 O 1.01059 0.63309 0.87408 0.0
C283 C 0.97491 0.72362 0.83341 0.0
O284 O 1.03648 0.67029 0.80982 0.0
O285 O 0.99669 0.63956 0.7853 0.0
In286 In 0.77814 0.45605 0.59454 0.0
O287 O 0.77344 0.41819 0.63018 0.0
O288 O 0.80787 0.45765 0.6466 0.0
C289 C 0.78522 0.41351 0.53694 0.0
C290 C 0.73091 0.48714 0.61 0.0
C291 C 0.81733 0.5017 0.5796 0.0
O292 O 0.80255 0.41848 0.56609 0.0
O293 O 0.76281 0.4286 0.53721 0.0
O294 O 0.79484 0.48808 0.55742 0.0
O295 O 0.81971 0.49231 0.60896 0.0
C296 C 0.79539 0.43215 0.65321 0.0
O297 O 0.75827 0.49899 0.61725 0.0
O298 O 0.72663 0.45867 0.59466 0.0
In299 In 0.73846 0.60186 0.36252 0.0
O300 O 0.7388 0.5461 0.34497 0.0
O301 O 0.77949 0.57019 0.37272 0.0
C302 C 0.76953 0.66449 0.36021 0.0
C303 C 0.70345 0.59793 0.29679 0.0
C304 C 0.70312 0.60355 0.42054 0.0
O305 O 0.78272 0.64341 0.37274 0.0
O306 O 0.74185 0.65418 0.34988 0.0
O307 O 0.69686 0.58439 0.3917 0.0
O308 O 0.72768 0.62147 0.42114 0.0
C309 C 0.76552 0.54336 0.35737 0.0
O310 O 0.69364 0.60392 0.32607 0.0
O311 O 0.73076 0.59302 0.3003 0.0
Nd312 Nd 0.1171 0.13476 0.10428 0.0
Nd313 Nd 0.07605 0.08486 0.08355 0.0
C314 C 0.15489 0.18758 0.12306 0.0
C315 C 0.15343 0.2147 0.10384 0.0
C316 C 0.13141 0.23475 0.10915 0.0
C317 C 0.12493 0.25525 0.08556 0.0
C318 C 0.14033 0.25643 0.05603 0.0
C319 C 0.16352 0.23769 0.05183 0.0
C320 C 0.17005 0.21719 0.07547 0.0
C321 C 0.12048 0.11377 0.03219 0.0
C322 C 0.0534 0.15026 0.07225 0.0
C323 C 1.03844 1.03207 0.06306 0.0
C324 C 1.03967 1.0045 0.08156 0.0
C325 C 0.06222 0.98501 0.07673 0.0
C326 C 0.0684 0.96418 0.10002 0.0
C327 C 0.05218 0.96214 0.12877 0.0
C328 C 1.02848 0.98027 0.1324 0.0
C329 C 1.02222 1.00106 0.10902 0.0
C330 C 0.07202 0.10467 0.15562 0.0
C331 C 0.13983 0.06988 0.11695 0.0
O332 O 0.13237 0.18076 0.14024 0.0
O333 O 0.16241 0.16235 0.10538 0.0
O334 O 0.11496 0.14137 0.04533 0.0
O335 O 0.11823 0.09653 0.05587 0.0
O336 O 0.07736 0.16133 0.09544 0.0
O337 O 1.04949 0.12027 0.05765 0.0
O338 O 0.06122 0.0394 0.04645 0.0
O339 O 1.03067 0.05697 0.08115 0.0
O340 O 0.07643 0.07694 0.14148 0.0
O341 O 0.07535 0.12272 0.13275 0.0
O342 O 0.11583 0.05845 0.09387 0.0
O343 O 0.14372 0.09999 0.13098 0.0
H344 H 0.11798 0.23347 0.13049 0.0
H345 H 0.10681 0.26915 0.08963 0.0
H346 H 0.1763 0.23844 0.02986 0.0
H347 H 0.18715 0.20215 0.07047 0.0
H348 H 0.07629 0.98702 0.05609 0.0
H349 H 0.08692 0.95075 0.09642 0.0
H350 H 1.0151 0.97886 0.15377 0.0
H351 H 1.00468 1.01563 0.11359 0.0
Nd352 Nd 0.35181 0.8925 0.36532 0.0
Nd353 Nd 0.34334 0.83302 0.32673 0.0
C354 C 0.34852 0.94638 0.40636 0.0
C355 C 0.34356 0.97728 0.39821 0.0
C356 C 0.33046 0.9799 0.36405 0.0
C357 C 0.33479 1.00859 0.35217 0.0
C358 C 0.35229 0.03489 0.37433 0.0
C359 C 0.36227 1.03293 0.40978 0.0
C360 C 0.35798 1.00425 0.42164 0.0
C361 C 0.40839 0.87662 0.35073 0.0
C362 C 0.34061 0.89053 0.28223 0.0
C363 C 0.34513 0.77877 0.2854 0.0
C364 C 0.34326 0.74652 0.29221 0.0
C365 C 0.34075 0.72136 0.26414 0.0
C366 C 0.33318 0.69061 0.26977 0.0
C367 C 0.32766 0.68478 0.30347 0.0
C368 C 0.33246 0.71004 0.332 0.0
C369 C 0.34018 0.74065 0.32637 0.0
C370 C 0.28693 0.8485 0.3418 0.0
C371 C 0.35476 0.83521 0.41026 0.0
O372 O 0.3257 0.92375 0.3971 0.0
O373 O 0.37386 0.93766 0.39801 0.0
O374 O 0.39846 0.90274 0.34603 0.0
O375 O 0.3875 0.8588 0.36053 0.0
O376 O 0.33884 0.90792 0.3126 0.0
O377 O 0.34675 0.86163 0.2813 0.0
O378 O 0.36936 0.79789 0.30084 0.0
O379 O 0.32045 0.79132 0.28824 0.0
O380 O 0.29724 0.82267 0.34694 0.0
O381 O 0.30756 0.86644 0.33164 0.0
O382 O 0.35432 0.81707 0.37969 0.0
O383 O 0.35095 0.86481 0.41155 0.0
H384 H 0.31922 0.95928 0.34556 0.0
H385 H 0.32683 1.00952 0.32476 0.0
H386 H 0.37637 0.05257 0.42718 0.0
H387 H 0.36844 1.00257 0.44797 0.0
H388 H 0.3431 0.72556 0.2376 0.0
H389 H 0.33002 0.67159 0.24741 0.0
H390 H 0.32802 0.70655 0.35817 0.0
H391 H 0.34186 0.75985 0.3483 0.0
Nd392 Nd 0.62458 0.1245 0.58908 0.0
Nd393 Nd 0.57019 0.09494 0.59462 0.0
C394 C 0.67927 0.14703 0.57723 0.0
C395 C 0.70881 0.15209 0.59991 0.0
C396 C 0.73487 0.14605 0.58497 0.0
C397 C 0.76153 0.14388 0.60674 0.0
C398 C 0.76228 0.14737 0.64368 0.0
C399 C 0.73685 0.15579 0.65867 0.0
C400 C 0.71035 0.15823 0.63696 0.0
C401 C 0.6264 0.10465 0.65478 0.0
C402 C 0.60859 0.0521 0.55402 0.0
C403 C 0.51521 0.07213 0.60424 0.0
C404 C 0.48651 0.07549 0.58329 0.0
C405 C 0.48325 0.10407 0.5717 0.0
C406 C 0.45825 0.10653 0.54779 0.0
C407 C 0.43604 0.08035 0.5343 0.0
C408 C 0.439 0.05178 0.54631 0.0
C409 C 0.46416 0.04936 0.57057 0.0
C410 C 0.56799 0.11426 0.52876 0.0
C411 C 0.58623 0.16788 0.63073 0.0
O412 O 0.6673 0.11768 0.56725 0.0
O413 O 0.65949 0.16481 0.58736 0.0
O414 O 0.63712 0.13213 0.64971 0.0
O415 O 0.61423 0.08797 0.62563 0.0
O416 O 0.61884 0.07955 0.54656 0.0
O417 O 0.59342 0.05184 0.58092 0.0
O418 O 0.53048 0.09786 0.62349 0.0
O419 O 0.53246 0.05536 0.58685 0.0
O420 O 0.55714 0.08703 0.53428 0.0
O421 O 0.58037 0.13122 0.55776 0.0
O422 O 0.57395 0.14036 0.63619 0.0
O423 O 0.60349 0.16857 0.60577 0.0
H424 H 0.73405 0.14106 0.55645 0.0
H425 H 0.78073 0.13701 0.59451 0.0
H426 H 0.73692 0.15868 0.68708 0.0
H427 H 0.69059 0.16311 0.64915 0.0
H428 H 0.50039 0.12449 0.58049 0.0
H429 H 0.45634 0.12915 0.54 0.0
H430 H 0.42224 1.03122 0.53645 0.0
H431 H 0.46659 1.02692 0.57863 0.0
Nd432 Nd 0.35527 0.36528 0.87422 0.0
Nd433 Nd 0.33577 0.3532 0.81246 0.0
C434 C 0.36101 0.37164 0.94415 0.0
C435 C 0.34349 0.38614 0.97001 0.0
C436 C 0.34771 0.38064 1.00482 0.0
C437 C 0.33382 0.39747 0.03051 0.0
C438 C 0.31545 0.41996 0.02155 0.0
C439 C 0.30909 0.42311 0.98586 0.0
C440 C 0.32337 0.40664 0.96036 0.0
C441 C 0.37248 0.42157 0.84776 0.0
C442 C 0.28268 0.3727 0.85306 0.0
C443 C 0.33105 0.34614 0.74277 0.0
C444 C 0.34445 0.32548 0.71686 0.0
C445 C 0.36892 0.33773 0.70124 0.0
C446 C 0.38195 0.31809 0.67703 0.0
C447 C 0.37058 0.28592 0.66793 0.0
C448 C 0.34665 0.27366 0.68442 0.0
C449 C 0.33376 0.29318 0.70859 0.0
C450 C 0.31873 0.29669 0.83869 0.0
C451 C 0.40823 0.34512 0.83273 0.0
O452 O 0.34694 0.34654 0.92298 0.0
O453 O 0.37583 0.39088 0.92754 0.0
O454 O 0.39013 0.40665 0.86601 0.0
O455 O 0.34594 0.40511 0.84129 0.0
O456 O 0.3037 0.3688 0.87831 0.0
O457 O 0.29063 0.37181 0.82143 0.0
O458 O 0.35001 0.36809 0.76391 0.0
O459 O 0.31085 0.33267 0.75921 0.0
O460 O 0.3013 0.31106 0.81951 0.0
O461 O 0.34513 0.31341 0.84547 0.0
O462 O 0.38656 0.34695 0.80716 0.0
O463 O 0.40114 0.34836 0.86491 0.0
H464 H 0.363 0.36464 1.01251 0.0
H465 H 0.33962 0.39471 0.0578 0.0
H466 H 0.29484 0.43998 0.9781 0.0
H467 H 0.3199 0.41119 0.9335 0.0
H468 H 0.37778 0.36256 0.70747 0.0
H469 H 0.40031 0.3282 0.66471 0.0
H470 H 0.3367 0.24918 0.67736 0.0
H471 H 0.31506 0.28291 0.72028 0.0
Nd472 Nd 0.09258 0.13504 0.6076 0.0
Nd473 Nd 0.09944 0.07419 0.57636 0.0
C474 C 0.07998 0.19212 0.62929 0.0
C475 C 0.09569 0.2232 0.62658 0.0
C476 C 0.07917 0.24522 0.61338 0.0
C477 C 0.09418 0.27307 0.60621 0.0
C478 C 0.12607 0.27946 0.61223 0.0
C479 C 0.1425 0.25782 0.62669 0.0
C480 C 0.12748 0.22991 0.63364 0.0
C481 C 0.14664 0.13431 0.58011 0.0
C482 C 0.06263 0.11059 0.52516 0.0
C483 C 0.1139 1.0178 0.55562 0.0
C484 C 0.10865 0.9885 0.57019 0.0
C485 C 0.09075 0.96193 0.54905 0.0
C486 C 0.081 0.93587 0.56397 0.0
C487 C 0.08926 0.93582 0.60026 0.0
C488 C 0.1084 0.96178 0.62104 0.0
C489 C 0.11788 0.98797 0.60622 0.0
C490 C 1.04534 0.07517 0.60362 0.0
C491 C 0.12778 0.09789 0.66025 0.0
O492 O 0.06712 0.1747 0.59937 0.0
O493 O 0.09439 0.17616 0.65005 0.0
O494 O 0.14371 0.14975 0.61052 0.0
O495 O 0.12151 0.11983 0.56459 0.0
O496 O 0.05711 0.1251 0.55599 0.0
O497 O 0.08444 0.09284 0.52523 0.0
O498 O 0.13323 0.04087 0.57479 0.0
O499 O 0.08944 1.02737 0.54188 0.0
O500 O 1.04825 0.05934 0.57339 0.0
O501 O 0.07052 0.0895 0.61921 0.0
O502 O 0.13211 0.0813 0.63001 0.0
O503 O 0.10771 0.11759 0.65947 0.0
H504 H 0.05469 0.24034 0.60738 0.0
H505 H 0.0808 0.28894 0.59454 0.0
H506 H 0.167 0.26218 0.63207 0.0
H507 H 0.14087 0.21322 0.6436 0.0
H508 H 0.08324 0.96186 0.52128 0.0
H509 H 0.06656 0.91599 0.54728 0.0
H510 H 0.11495 0.96245 0.64912 0.0
H511 H 0.13139 1.00822 0.62335 0.0
Nd512 Nd 0.36763 0.87347 0.85815 0.0
Nd513 Nd 0.31474 0.8409 0.8243 0.0
C514 C 0.41642 0.91589 0.87443 0.0
C515 C 0.44809 0.92029 0.86965 0.0
C516 C 0.45947 0.89911 0.84517 0.0
C517 C 0.49059 0.90167 0.84427 0.0
C518 C 0.51048 0.92517 0.86816 0.0
C519 C 0.49849 0.94761 0.89077 0.0
C520 C 0.46747 0.94514 0.89145 0.0
C521 C 0.33068 0.86305 0.90863 0.0
C522 C 0.37073 0.79736 0.8427 0.0
C523 C 0.26788 0.79669 0.80395 0.0
C524 C 0.23731 0.77954 0.798 0.0
C525 C 0.21343 0.79275 0.81168 0.0
C526 C 0.18388 0.77702 0.80199 0.0
C527 C 0.17806 0.74809 0.77839 0.0
C528 C 0.20242 0.73416 0.76661 0.0
C529 C 0.23189 0.74983 0.77642 0.0
C530 C 0.35282 0.85226 0.77497 0.0
C531 C 0.31186 0.91713 0.84034 0.0
O532 O 0.39688 0.91358 0.84586 0.0
O533 O 0.4088 0.89592 0.89499 0.0
O534 O 0.35879 0.85841 0.91078 0.0
O535 O 0.32225 0.87081 0.87912 0.0
O536 O 0.38804 0.82525 0.85129 0.0
O537 O 0.34115 0.79776 0.83464 0.0
O538 O 0.2839 0.801 0.83537 0.0
O539 O 0.27495 0.81818 0.78497 0.0
O540 O 0.32476 0.85711 0.77224 0.0
O541 O 0.36024 0.84344 0.80403 0.0
O542 O 0.29437 0.88928 0.83181 0.0
O543 O 0.34141 0.91658 0.84812 0.0
H544 H 0.44447 0.87992 0.82794 0.0
H545 H 0.49921 0.88427 0.82635 0.0
H546 H 0.5131 0.96569 0.90996 0.0
H547 H 0.45877 0.96171 0.9103 0.0
H548 H 0.21745 0.81568 0.82846 0.0
H549 H 0.16545 0.78857 0.81095 0.0
H550 H 0.19851 0.71197 0.74839 0.0
H551 H 0.25035 0.73934 0.76592 0.0
Nd552 Nd 0.5646 0.10182 0.06185 0.0
Nd553 Nd 0.62648 0.11638 0.11076 0.0
C554 C 0.51016 0.10068 0.02705 0.0
C555 C 0.47961 0.10335 0.03502 0.0
C556 C 0.45512 0.0888 1.00955 0.0
C557 C 0.4263 0.08356 0.01915 0.0
C558 C 0.42173 0.09277 0.05446 0.0
C559 C 0.44582 0.11051 0.07895 0.0
C560 C 0.47474 0.11556 0.06934 0.0
C561 C 0.59807 0.05292 0.06132 0.0
C562 C 0.56725 0.10567 0.14891 0.0
C563 C 0.68102 0.11726 0.14522 0.0
C564 C 0.7116 0.11585 0.13665 0.0
C565 C 0.73483 0.11265 0.1629 0.0
C566 C 0.76497 0.11752 0.15705 0.0
C567 C 0.77209 0.12616 0.12505 0.0
C568 C 0.74835 0.12648 0.09774 0.0
C569 C 0.71833 0.12124 0.1035 0.0
C570 C 0.59266 0.16511 0.11084 0.0
C571 C 0.62409 0.11281 0.02381 0.0
O572 O 0.53006 0.12619 0.03572 0.0
O573 O 0.52077 0.0755 0.03493 0.0
O574 O 0.5805 0.0576 0.03398 0.0
O575 O 0.5952 0.0721 0.08843 0.0
O576 O 0.55082 0.107 0.11832 0.0
O577 O 0.59642 0.10336 0.15128 0.0
O578 O 0.66166 0.0915 0.13497 0.0
O579 O 0.66969 0.14267 0.13941 0.0
O580 O 0.61004 0.16057 0.13844 0.0
O581 O 0.59598 0.14594 0.08398 0.0
O582 O 0.64052 0.11201 0.05453 0.0
O583 O 0.59473 0.11424 0.02106 0.0
H584 H 0.45868 0.07925 0.98296 0.0
H585 H 0.40839 0.06962 0.99968 0.0
H586 H 0.44283 0.11834 0.10618 0.0
H587 H 0.49356 0.12699 0.08927 0.0
H588 H 0.72979 0.10811 0.18854 0.0
H589 H 0.78269 0.11641 0.17831 0.0
H590 H 0.75277 0.13335 0.07287 0.0
H591 H 0.70052 0.1236 0.08293 0.0
Nd592 Nd 0.32896 0.33801 0.31183 0.0
Nd593 Nd 0.36727 0.37639 0.37046 0.0
C594 C 0.28973 0.30468 0.2605 0.0
C595 C 0.25747 0.30302 0.26644 0.0
C596 C 0.24299 0.3295 0.26279 0.0
C597 C 0.22688 0.34173 0.28927 0.0
C598 C 0.22436 0.32708 0.31907 0.0
C599 C 0.23146 0.29623 0.31698 0.0
C600 C 0.24756 0.28404 0.29041 0.0
C601 C 0.31575 0.32286 0.37608 0.0
C602 C 0.3018 0.39692 0.34959 0.0
C603 C 0.40521 0.41108 0.42212 0.0
C604 C 0.4372 0.41673 0.41556 0.0
C605 C 0.45523 0.39275 0.41898 0.0
C606 C 0.47425 0.38505 0.39383 0.0
C607 C 0.47606 0.40179 0.36565 0.0
C608 C 0.46317 0.4297 0.36687 0.0
C609 C 0.44442 0.43757 0.39227 0.0
C610 C 0.38033 0.39204 0.30645 0.0
C611 C 0.39487 0.31791 0.33173 0.0
O612 O 0.30301 0.33253 0.25769 0.0
O613 O 0.30684 0.29127 0.28182 0.0
O614 O 0.29621 0.3282 0.35126 0.0
O615 O 0.34178 0.32813 0.3676 0.0
O616 O 0.30292 0.37982 0.3187 0.0
O617 O 0.32182 0.39545 0.37714 0.0
O618 O 0.39488 0.3819 0.42362 0.0
O619 O 0.38596 0.42348 0.40217 0.0
O620 O 0.40004 0.38712 0.33136 0.0
O621 O 0.35432 0.38645 0.31491 0.0
O622 O 0.39454 0.33542 0.36267 0.0
O623 O 0.37402 0.31869 0.30473 0.0
H624 H 0.24859 0.34388 0.24331 0.0
H625 H 0.2199 0.36449 0.28821 0.0
H626 H 0.22773 0.28293 0.33792 0.0
H627 H 0.25676 0.26242 0.29276 0.0
H628 H 0.45107 0.37679 0.43735 0.0
H629 H 0.48452 0.36379 0.3941 0.0
H630 H 0.4651 0.44369 0.34615 0.0
H631 H 0.43186 0.45705 0.3897 0.0
Nd632 Nd 0.59312 0.64156 0.10963 0.0
Nd633 Nd 0.6057 0.58236 0.07548 0.0
C634 C 0.57427 0.69492 0.13368 0.0
C635 C 0.57897 0.72573 0.12216 0.0
C636 C 0.56747 0.72918 0.08768 0.0
C637 C 0.5775 0.75596 0.07429 0.0
C638 C 0.59933 0.77971 0.095 0.0
C639 C 0.60941 0.77718 0.13018 0.0
C640 C 0.59915 0.7505 0.14372 0.0
C641 C 0.64623 0.64675 0.08009 0.0
C642 C 0.56493 0.61784 0.02555 0.0
C643 C 0.62647 0.53024 0.0509 0.0
C644 C 0.62463 0.49963 0.06276 0.0
C645 C 0.60989 0.47271 0.03923 0.0
C646 C 0.60119 0.44508 0.05183 0.0
C647 C 0.60744 0.44392 0.08809 0.0
C648 C 0.62417 0.47013 0.11118 0.0
C649 C 0.63255 0.49785 0.09868 0.0
C650 C 0.55227 0.57685 0.10411 0.0
C651 C 0.63233 0.60527 0.1603 0.0
O652 O 0.55682 0.67198 0.11175 0.0
O653 O 0.59886 0.68597 0.14804 0.0
O654 O 0.64315 0.66172 0.11073 0.0
O655 O 0.62174 0.63038 0.06547 0.0
O656 O 0.55947 0.63254 0.05636 0.0
O657 O 0.58729 0.60076 0.02531 0.0
O658 O 0.64357 0.5541 0.07179 0.0
O659 O 0.60039 0.53733 0.03824 0.0
O660 O 0.55588 0.56175 0.07371 0.0
O661 O 0.5766 0.59337 0.11927 0.0
O662 O 0.63807 0.59045 0.12968 0.0
O663 O 0.61038 0.62288 0.16005 0.0
H664 H 0.55198 0.71052 0.07029 0.0
H665 H 0.56944 0.7572 0.047 0.0
H666 H 0.6259 0.79538 0.14686 0.0
H667 H 0.60831 0.74844 0.17042 0.0
H668 H 0.60344 0.47365 1.01148 0.0
H669 H 0.58856 0.42503 0.03349 0.0
H670 H 0.62908 0.46987 0.1393 0.0
H671 H 0.64361 0.51833 0.11754 0.0
Nd672 Nd 0.87036 0.37359 0.3628 0.0
Nd673 Nd 0.81831 0.34165 0.32651 0.0
C674 C 0.91859 0.41601 0.38633 0.0
C675 C 0.95146 0.4215 0.39084 0.0
C676 C 0.96787 0.40086 0.37213 0.0
C677 C 0.99928 0.40432 0.38066 0.0
C678 C 1.01438 0.42817 0.40826 0.0
C679 C 0.99781 0.44976 0.42549 0.0
C680 C 0.96652 0.44642 0.41676 0.0
C681 C 0.83103 0.36048 0.41016 0.0
C682 C 0.87421 0.29783 0.34503 0.0
C683 C 0.77166 0.29697 0.30646 0.0
C684 C 0.74011 0.28387 0.30499 0.0
C685 C 0.71846 0.30279 0.31478 0.0
C686 C 0.68784 0.29024 0.30793 0.0
C687 C 0.67879 0.2588 0.291 0.0
C688 C 0.70084 0.23939 0.28396 0.0
C689 C 0.73139 0.25191 0.29099 0.0
C690 C 0.85688 0.35406 0.2783 0.0
C691 C 0.81541 0.41781 0.3436 0.0
O692 O 0.90425 0.4119 0.35403 0.0
O693 O 0.90668 0.39712 0.40572 0.0
O694 O 0.85889 0.35495 0.41295 0.0
O695 O 0.82414 0.37019 0.38148 0.0
O696 O 0.89131 0.32567 0.3558 0.0
O697 O 0.84487 0.29832 0.33533 0.0
O698 O 0.78933 0.30015 0.33663 0.0
O699 O 0.77801 0.31921 0.28811 0.0
O700 O 0.82874 0.35867 0.27536 0.0
O701 O 0.86437 0.34516 0.30741 0.0
O702 O 0.79792 0.39001 0.33414 0.0
O703 O 0.84487 0.4171 0.35216 0.0
H704 H 0.95633 0.3815 0.352 0.0
H705 H 1.01161 0.38762 0.36669 0.0
H706 H 1.0087 0.46807 0.44719 0.0
H707 H 0.95392 0.46241 0.43145 0.0
H708 H 0.72507 0.32749 0.32585 0.0
H709 H 0.67121 0.30582 0.31311 0.0
H710 H 0.69436 0.21517 0.27085 0.0
H711 H 0.74812 0.23704 0.28365 0.0
Nd712 Nd 0.07345 0.58336 0.57302 0.0
Nd713 Nd 0.12084 0.63419 0.60689 0.0
C714 C 1.02356 0.5444 0.54614 0.0
C715 C 0.9915 0.54612 0.54637 0.0
C716 C 0.97007 0.52192 0.52647 0.0
C717 C 0.93934 0.52331 0.52706 0.0
C718 C 0.92979 0.549 0.54757 0.0
C719 C 0.95147 0.57395 0.56616 0.0
C720 C 0.98221 0.57249 0.56555 0.0
C721 C 0.12907 0.56317 0.58327 0.0
C722 C 0.07736 0.60986 0.6579 0.0
C723 C 0.17147 0.67204 0.63253 0.0
C724 C 0.20347 0.66954 0.63001 0.0
C725 C 0.22165 0.66036 0.65781 0.0
C726 C 0.25164 0.65647 0.65504 0.0
C727 C 0.26405 0.66208 0.6246 0.0
C728 C 0.24574 0.67108 0.59675 0.0
C729 C 0.21575 0.67472 0.59939 0.0
C730 C 0.06525 0.65429 0.59676 0.0
C731 C 0.11716 0.60808 0.5223 0.0
O732 O 1.03691 0.56417 0.52883 0.0
O733 O 1.03932 0.54312 0.57658 0.0
O734 O 0.1088 0.55267 0.55605 0.0
O735 O 0.11925 0.58213 0.60582 0.0
O736 O 0.05898 0.59782 0.62822 0.0
O737 O 0.10591 0.61992 0.65691 0.0
O738 O 0.15835 0.65238 0.65021 0.0
O739 O 0.15425 0.67513 0.60371 0.0
O740 O 0.08565 0.66503 0.62383 0.0
O741 O 0.07499 0.63534 0.57412 0.0
O742 O 0.13559 0.61969 0.55199 0.0
O743 O 0.08852 0.59833 0.52328 0.0
H744 H 0.9771 0.50167 0.51116 0.0
H745 H 0.92317 0.50346 0.51302 0.0
H746 H 0.94469 0.594 0.58209 0.0
H747 H 0.99875 0.5916 0.58052 0.0
H748 H 0.21267 0.65618 0.68173 0.0
H749 H 0.26527 0.64965 0.67693 0.0
H750 H 0.25486 0.67659 0.57338 0.0
H751 H 0.20236 0.68186 0.57754 0.0
Nd752 Nd 0.85777 0.86554 0.37632 0.0
Nd753 Nd 0.83706 0.85261 0.31469 0.0
C754 C 0.86959 0.87213 0.44623 0.0
C755 C 0.85351 0.87209 0.47687 0.0
C756 C 0.82352 0.87832 0.47491 0.0
C757 C 0.81125 0.88696 0.50587 0.0
C758 C 0.82908 0.88967 0.53901 0.0
C759 C 0.8576 0.87919 0.54059 0.0
C760 C 0.86979 0.8706 0.50961 0.0
C761 C 0.87533 0.92058 0.34767 0.0
C762 C 0.78508 0.87204 0.35728 0.0
C763 C 0.82987 0.84392 0.24483 0.0
C764 C 0.84121 0.82111 0.21914 0.0
C765 C 0.87171 0.825 0.21335 0.0
C766 C 0.88273 0.80163 0.19141 0.0
C767 C 0.86349 0.77398 0.1753 0.0
C768 C 0.83299 0.77036 0.18077 0.0
C769 C 0.82194 0.79373 0.20229 0.0
C770 C 0.81928 0.79692 0.34199 0.0
C771 C 0.91028 0.84604 0.33308 0.0
O772 O 0.86825 0.84539 0.42519 0.0
O773 O 0.86674 0.89544 0.42919 0.0
O774 O 0.89313 0.90544 0.36543 0.0
O775 O 0.84861 0.90473 0.3425 0.0
O776 O 0.80598 0.86647 0.38175 0.0
O777 O 0.79311 0.87284 0.32588 0.0
O778 O 0.85004 0.86557 0.26473 0.0
O779 O 0.80983 0.83216 0.26268 0.0
O780 O 0.80199 0.8114 0.32284 0.0
O781 O 0.84587 0.81324 0.34833 0.0
O782 O 0.88735 0.84446 0.30772 0.0
O783 O 0.90464 0.85255 0.36566 0.0
H784 H 0.81063 0.87916 0.4497 0.0
H785 H 0.78908 0.89452 0.50389 0.0
H786 H 0.87205 0.88109 0.56564 0.0
H787 H 0.89291 0.86553 0.51145 0.0
H788 H 0.88715 0.84592 0.22597 0.0
H789 H 0.90617 0.80511 0.187 0.0
H790 H 0.81738 0.74973 0.16762 0.0
H791 H 0.79833 0.7902 0.20605 0.0
Nd792 Nd 0.84946 0.39022 0.86403 0.0
Nd793 Nd 0.84079 0.33016 0.82655 0.0
C794 C 0.84739 0.44517 0.90368 0.0
C795 C 0.8459 0.47664 0.89509 0.0
C796 C 0.83439 0.48025 0.86069 0.0
C797 C 0.84048 0.50914 0.84959 0.0
C798 C 0.85823 0.53471 0.87274 0.0
C799 C 0.86743 0.5316 0.90801 0.0
C800 C 0.86128 0.50278 0.91913 0.0
C801 C 0.90568 0.37412 0.84871 0.0
C802 C 0.83775 0.38672 0.78056 0.0
C803 C 0.84353 0.27581 0.78598 0.0
C804 C 0.84463 0.24405 0.79357 0.0
C805 C 0.84568 0.2191 0.76629 0.0
C806 C 0.84085 0.18816 0.77234 0.0
C807 C 0.83443 0.18192 0.80561 0.0
C808 C 0.83601 0.20727 0.83356 0.0
C809 C 0.8411 0.23806 0.82756 0.0
C810 C 0.78442 0.34615 0.84125 0.0
C811 C 0.85218 0.33353 0.91014 0.0
O812 O 0.82353 0.4241 0.89231 0.0
O813 O 0.87252 0.43427 0.89831 0.0
O814 O 0.89548 0.39994 0.84334 0.0
O815 O 0.88514 0.35656 0.85944 0.0
O816 O 0.83721 0.40503 0.81074 0.0
O817 O 0.84273 0.35751 0.78006 0.0
O818 O 0.86733 0.29647 0.79905 0.0
O819 O 0.81829 0.28672 0.79079 0.0
O820 O 0.79455 0.32029 0.84663 0.0
O821 O 0.80512 0.36381 0.83086 0.0
O822 O 0.85219 0.31512 0.87987 0.0
O823 O 0.84801 0.36302 0.91083 0.0
H824 H 0.82254 0.46027 0.84166 0.0
H825 H 0.8331 0.5109 0.82228 0.0
H826 H 0.88186 0.55052 0.92608 0.0
H827 H 0.87066 0.50032 0.94561 0.0
H828 H 0.84858 0.22343 0.73993 0.0
H829 H 0.84028 0.16913 0.75044 0.0
H830 H 0.83082 0.20351 0.85938 0.0
H831 H 0.84017 0.25709 0.84889 0.0
Nd832 Nd 0.83117 0.83824 0.81149 0.0
Nd833 Nd 0.86619 0.87567 0.87616 0.0
C834 C 0.79689 0.80807 0.7539 0.0
C835 C 0.76357 0.80437 0.75426 0.0
C836 C 0.74889 0.83069 0.75059 0.0
C837 C 0.73018 0.84068 0.77521 0.0
C838 C 0.72527 0.82379 0.80283 0.0
C839 C 0.73252 0.79296 0.7992 0.0
C840 C 0.75124 0.78304 0.7745 0.0
C841 C 0.81662 0.8171 0.872 0.0
C842 C 0.79986 0.8938 0.85285 0.0
C843 C 0.90334 0.90456 0.93173 0.0
C844 C 0.93607 0.90581 0.92793 0.0
C845 C 0.95038 0.87946 0.93316 0.0
C846 C 0.9696 0.86827 0.90959 0.0
C847 C 0.97455 0.88332 0.88072 0.0
C848 C 0.96603 0.91333 0.88075 0.0
C849 C 0.94763 0.92498 0.90496 0.0
C850 C 0.87934 0.89819 0.81593 0.0
C851 C 0.89713 0.82032 0.83465 0.0
O852 O 0.81012 0.83699 0.7559 0.0
O853 O 0.81191 0.79324 0.77564 0.0
O854 O 0.79702 0.81982 0.84572 0.0
O855 O 0.84293 0.82597 0.86613 0.0
O856 O 0.80186 0.87724 0.82178 0.0
O857 O 0.81971 0.89297 0.88092 0.0
O858 O 0.88881 0.87642 0.93107 0.0
O859 O 0.88791 0.92028 0.91138 0.0
O860 O 0.89937 0.89243 0.84001 0.0
O861 O 0.85335 0.88865 0.82227 0.0
O862 O 0.89436 0.83575 0.86595 0.0
O863 O 0.878 0.82226 0.80655 0.0
H864 H 0.75628 0.84674 0.73349 0.0
H865 H 0.72318 0.86354 0.77501 0.0
H866 H 0.72688 0.77794 0.81802 0.0
H867 H 0.76042 0.76132 0.77623 0.0
H868 H 0.94305 0.86472 0.95159 0.0
H869 H 0.97727 0.84584 0.91137 0.0
H870 H 0.97075 0.92621 0.8597 0.0
H871 H 0.93832 0.94627 0.90123 0.0
Nd872 Nd 0.61733 0.6335 0.60586 0.0
Nd873 Nd 0.57531 0.58466 0.58384 0.0
C874 C 0.65548 0.68586 0.62635 0.0
C875 C 0.65448 0.71328 0.60747 0.0
C876 C 0.63261 0.7335 0.61284 0.0
C877 C 0.62634 0.75419 0.58938 0.0
C878 C 0.64181 0.75541 0.5599 0.0
C879 C 0.6649 0.73652 0.5557 0.0
C880 C 0.67123 0.71586 0.57923 0.0
C881 C 0.62134 0.61461 0.53343 0.0
C882 C 0.55485 0.65065 0.57255 0.0
C883 C 0.53628 0.53275 0.56355 0.0
C884 C 0.53424 0.50677 0.58461 0.0
C885 C 0.5451 0.4785 0.57312 0.0
C886 C 0.55058 0.45741 0.59646 0.0
C887 C 0.54588 0.46426 0.63222 0.0
C888 C 0.53313 0.49165 0.64285 0.0
C889 C 0.52707 0.51231 0.61932 0.0
C890 C 0.57136 0.60406 0.65624 0.0
C891 C 0.63815 0.56768 0.61689 0.0
O892 O 0.63258 0.67892 0.64292 0.0
O893 O 0.66315 0.66069 0.60866 0.0
O894 O 0.61762 0.64236 0.54826 0.0
O895 O 0.61733 0.59613 0.55571 0.0
O896 O 0.57823 0.6608 0.59684 0.0
O897 O 0.55063 0.62086 0.55723 0.0
O898 O 0.56129 0.5374 0.55 0.0
O899 O 0.5283 0.55925 0.57753 0.0
O900 O 0.57561 0.57638 0.64182 0.0
O901 O 0.57494 0.62219 0.63355 0.0
O902 O 0.61444 0.55731 0.59308 0.0
O903 O 0.6426 0.59754 0.63187 0.0
H904 H 0.61909 0.7322 0.6341 0.0
H905 H 0.60829 0.76818 0.59349 0.0
H906 H 0.67776 0.73727 0.53379 0.0
H907 H 0.68826 0.70073 0.57422 0.0
H908 H 0.55078 0.47341 0.54654 0.0
H909 H 0.55928 0.43612 0.58652 0.0
H910 H 0.52915 0.49824 0.6699 0.0
H911 H 0.51844 0.53369 0.62915 0.0
Nd912 Nd 0.12583 0.62248 0.09073 0.0
Nd913 Nd 0.06861 0.59534 0.09555 0.0
C914 C 0.18165 0.64269 0.08033 0.0
C915 C 0.21095 0.64755 0.10355 0.0
C916 C 0.23739 0.64261 0.08894 0.0
C917 C 0.26423 0.64145 0.11094 0.0
C918 C 0.2649 0.64486 0.1479 0.0
C919 C 0.23882 0.65166 0.16255 0.0
C920 C 0.2121 0.6531 0.14057 0.0
C921 C 0.12447 0.6024 0.15576 0.0
C922 C 0.10515 0.55082 0.05206 0.0
C923 C 1.01306 0.57437 0.10596 0.0
C924 C 0.98444 0.56624 0.08145 0.0
C925 C 0.95707 0.57088 0.09396 0.0
C926 C 0.9308 0.56988 0.07006 0.0
C927 C 0.93173 0.56467 0.03333 0.0
C928 C 0.95869 0.55785 0.0209 0.0
C929 C 0.9848 0.55841 0.04479 0.0
C930 C 0.06979 0.61426 0.02997 0.0
C931 C 0.08934 0.66709 0.13381 0.0
O932 O 0.16899 0.61348 0.07118 0.0
O933 O 0.16224 0.66147 0.08913 0.0
O934 O 0.13766 0.62914 0.15128 0.0
O935 O 0.11199 0.58653 0.12634 0.0
O936 O 0.11883 0.57803 0.04732 0.0
O937 O 0.08772 0.55046 0.07694 0.0
O938 O 1.02428 0.60409 0.1119 0.0
O939 O 1.0337 0.55617 0.10075 0.0
O940 O 0.05675 0.58774 0.03519 0.0
O941 O 0.08238 0.63074 0.05915 0.0
O942 O 0.07602 0.63986 0.13898 0.0
O943 O 0.10636 0.66736 0.10852 0.0
H944 H 0.2369 0.63807 0.06045 0.0
H945 H 0.28388 0.63579 0.09887 0.0
H946 H 0.23876 0.65456 0.19094 0.0
H947 H 0.19204 0.65714 0.15249 0.0
H948 H 0.95639 0.57713 0.12212 0.0
H949 H 0.91039 0.57561 0.08035 0.0
H950 H 0.95995 0.55373 0.99273 0.0
H951 H 1.00561 0.55441 0.03453 0.0
C952 C 0.11567 0.32541 0.01567 0.0
C953 C 0.11466 0.3148 0.97914 0.0
H954 H 0.12499 0.31584 0.06831 0.0
C955 C 0.12206 0.28472 0.96792 0.0
H956 H 0.1103 0.34855 0.02532 0.0
C957 C 0.13052 0.26581 0.99278 0.0
C958 C 0.13171 0.27656 0.02941 0.0
H959 H 0.12161 0.2759 0.94 0.0
H960 H 0.13582 0.24263 0.98325 0.0
C961 C 0.12404 0.30658 0.04042 0.0
C962 C 0.19984 0.82662 0.3357 0.0
C963 C 0.18779 0.85029 0.31953 0.0
H964 H 0.23943 0.80757 0.35535 0.0
C965 C 0.2091 0.87438 0.31222 0.0
H966 H 0.18466 0.80749 0.3417 0.0
C967 C 0.24091 0.87447 0.32014 0.0
C968 C 0.2529 0.85038 0.33563 0.0
H969 H 0.20117 0.89303 0.29961 0.0
H970 H 0.25617 0.89315 0.31338 0.0
C971 C 0.23157 0.82666 0.34353 0.0
C972 C 0.61766 0.99437 0.47249 0.0
C973 C 0.60773 0.96541 0.48214 0.0
H974 H 0.62616 0.04459 0.48787 0.0
C975 C 0.59957 0.96524 0.51615 0.0
H976 H 0.62423 0.99524 0.44654 0.0
C977 C 0.60064 0.99334 0.53971 0.0
C978 C 0.6101 1.02236 0.52999 0.0
H979 H 0.59194 0.94333 0.52451 0.0
H980 H 0.59367 0.99229 0.56545 0.0
C981 C 0.61893 1.02259 0.49625 0.0
C982 C 0.47609 0.33109 0.78227 0.0
C983 C 0.50167 0.33858 0.80892 0.0
H984 H 0.42771 0.32736 0.76839 0.0
C985 C 0.49592 0.34742 0.84404 0.0
H986 H 0.4791 0.32427 0.75485 0.0
C987 C 0.46588 0.34868 0.85198 0.0
C988 C 0.4404 0.34167 0.82508 0.0
H989 H 0.51467 0.35345 0.86547 0.0
H990 H 0.46269 0.35584 0.87927 0.0
C991 C 0.44629 0.33286 0.79008 0.0
C992 C 0.0837 0.87203 0.65671 0.0
C993 C 0.05261 0.86037 0.6496 0.0
H994 H 0.11969 0.90496 0.64651 0.0
C995 C 1.03368 0.87355 0.62603 0.0
H996 H 0.09885 0.86225 0.67469 0.0
C997 C 1.04569 0.89777 0.60966 0.0
C998 C 0.07678 0.90948 0.61682 0.0
H999 H 1.00965 0.86496 0.61998 0.0
H1000 H 1.03056 0.90767 0.59178 0.0
C1001 C 0.09564 0.89646 0.64063 0.0
C1002 C 0.59264 0.94852 0.90432 0.0
C1003 C 0.6002 0.91941 0.91086 0.0
H1004 H 0.55816 0.97312 0.88335 0.0
C1005 C 0.58059 0.89176 0.89577 0.0
H1006 H 0.60784 0.97012 0.91501 0.0
C1007 C 0.55213 0.89347 0.8781 0.0
C1008 C 0.54309 0.92287 0.87503 0.0
H1009 H 0.5862 0.86897 0.90004 0.0
H1010 H 0.53635 0.87193 0.86997 0.0
C1011 C 0.56431 0.95022 0.88616 0.0
C1012 C 0.52912 0.21305 0.09239 0.0
C1013 C 0.51886 0.21778 0.12565 0.0
H1014 H 0.5606 0.19222 0.06134 0.0
C1015 C 0.53002 0.2011 0.15163 0.0
H1016 H 0.52122 0.22586 0.07199 0.0
C1017 C 0.55377 0.18388 0.14637 0.0
C1018 C 0.56562 0.18104 0.1142 0.0
H1019 H 0.52301 0.20426 0.17768 0.0
H1020 H 0.56376 0.17396 0.16825 0.0
C1021 C 0.55204 0.19435 0.08652 0.0
C1022 C 0.20426 0.39171 0.38732 0.0
C1023 C 0.21922 0.38568 0.41923 0.0
H1024 H 0.19235 0.37736 0.33144 0.0
C1025 C 0.23472 0.35954 0.41819 0.0
H1026 H 0.19162 0.4114 0.38721 0.0
C1027 C 0.23524 0.33991 0.38595 0.0
C1028 C 0.22027 0.34581 0.3538 0.0
H1029 H 0.24608 0.35396 0.44234 0.0
H1030 H 0.24797 0.32041 0.38642 0.0
C1031 C 0.20457 0.37198 0.35516 0.0
C1032 C 1.01016 0.08459 0.2146 0.0
C1033 C 1.00993 0.11291 0.2381 0.0
H1034 H 1.02952 0.05969 0.17203 0.0
C1035 C 1.03056 0.13904 0.23379 0.0
H1036 H 0.99511 0.06374 0.21663 0.0
C1037 C 1.05009 0.13696 0.20708 0.0
C1038 C 0.05074 0.10835 0.18416 0.0
H1039 H 1.03149 0.16139 0.25105 0.0
H1040 H 0.06515 0.15774 0.20487 0.0
C1041 C 1.03028 0.08226 0.1888 0.0
C1042 C 0.39153 0.8316 0.50298 0.0
C1043 C 0.38546 0.79934 0.5039 0.0
H1044 H 0.38559 0.86845 0.47284 0.0
C1045 C 0.36804 0.77926 0.47443 0.0
H1046 H 0.4047 0.84759 0.52544 0.0
C1047 C 0.35753 0.79102 0.44425 0.0
C1048 C 0.36347 0.82326 0.44329 0.0
H1049 H 0.363 0.75426 0.47443 0.0
H1050 H 0.34483 0.77485 0.42161 0.0
C1051 C 0.38029 0.84353 0.47308 0.0
C1052 C 0.64089 0.05113 0.7233 0.0
C1053 C 0.65557 0.07311 0.75306 0.0
H1054 H 0.6199 0.04365 0.66874 0.0
C1055 C 0.65876 0.10519 0.75039 0.0
H1056 H 0.63816 1.02623 0.72434 0.0
C1057 C 0.64854 0.11504 0.71878 0.0
C1058 C 0.63471 0.09319 0.68868 0.0
H1059 H 0.6699 0.12286 0.7726 0.0
H1060 H 0.65204 0.13995 0.71777 0.0
C1061 C 0.63048 0.06109 0.69143 0.0
C1062 C 0.32514 0.49934 0.0768 0.0
C1063 C 0.32575 0.4909 0.11041 0.0
H1064 H 0.32072 0.48294 0.02141 0.0
C1065 C 0.31306 0.46049 0.11346 0.0
H1066 H 0.33415 0.52289 0.07382 0.0
C1067 C 0.305 0.4374 0.08322 0.0
C1068 C 0.30972 0.44465 0.04992 0.0
H1069 H 0.31264 0.4536 0.1392 0.0
H1070 H 0.29841 0.4133 0.08633 0.0
C1071 C 0.31714 0.47634 0.04665 0.0
C1072 C 0.99915 0.12823 0.45787 0.0
C1073 C 1.00886 0.11824 0.42509 0.0
H1074 H 1.00835 0.13413 0.51477 0.0
C1075 C 1.03666 0.10623 0.42577 0.0
H1076 H 0.97791 0.13757 0.45855 0.0
C1077 C 0.05392 0.10379 0.45801 0.0
C1078 C 1.04425 0.11374 0.49081 0.0
H1079 H 1.04494 0.09816 0.40122 0.0
H1080 H 0.07498 0.09411 0.45717 0.0
C1081 C 1.01668 0.12627 0.49021 0.0
C1082 C 0.40793 0.81909 0.71612 0.0
C1083 C 0.39261 0.81857 0.68195 0.0
H1084 H 0.40751 0.83029 0.77232 0.0
C1085 C 0.36577 0.83228 0.67891 0.0
H1086 H 0.42856 0.80865 0.71951 0.0
C1087 C 0.35378 0.84479 0.7091 0.0
C1088 C 0.36814 0.84374 0.74326 0.0
H1089 H 0.35336 0.83239 0.65306 0.0
H1090 H 0.33252 0.8541 0.70559 0.0
C1091 C 0.3958 0.83146 0.74641 0.0
C1092 C 0.68194 0.09768 0.96146 0.0
C1093 C 0.66332 0.08263 0.92993 0.0
H1094 H 0.68429 0.11916 0.01585 0.0
C1095 C 0.63177 0.08023 0.92872 0.0
H1096 H 0.70638 0.09995 0.9632 0.0
C1097 C 0.61911 0.09216 0.95858 0.0
C1098 C 0.63771 0.10604 0.99066 0.0
H1099 H 0.61686 0.06896 0.90475 0.0
H1100 H 0.59467 0.08905 0.95698 0.0
C1101 C 0.66931 0.1089 0.9916 0.0
C1102 C 0.39263 0.47503 0.28884 0.0
C1103 C 0.39976 0.47044 0.25418 0.0
H1104 H 0.38057 0.45325 0.33233 0.0
C1105 C 0.4021 0.43976 0.23749 0.0
H1106 H 0.39051 0.49828 0.30229 0.0
C1107 C 0.39621 0.41406 0.25459 0.0
C1108 C 0.38783 0.41868 0.28851 0.0
H1109 H 0.40756 0.43548 0.21074 0.0
H1110 H 0.3976 0.3906 0.2411 0.0
C1111 C 0.38667 0.44931 0.30584 0.0
C1112 C 0.21698 0.04324 0.13363 0.0
C1113 C 0.21063 1.01121 0.11778 0.0
H1114 H 0.19968 0.08695 0.14638 0.0
C1115 C 0.18034 0.99806 0.10598 0.0
H1116 H 0.2401 0.05412 0.14324 0.0
C1117 C 0.15719 1.01689 0.10808 0.0
C1118 C 0.16371 0.04937 0.12195 0.0
H1119 H 0.17462 0.97351 0.0939 0.0
H1120 H 0.13422 1.00615 0.09738 0.0
C1121 C 0.1938 0.06211 0.13571 0.0
C1122 C 0.72403 0.67918 0.0637 0.0
C1123 C 0.72591 0.66202 0.03019 0.0
H1124 H 0.69748 0.68762 0.10568 0.0
C1125 C 0.70099 0.64012 1.01271 0.0
H1126 H 0.74285 0.6962 0.07792 0.0
C1127 C 0.67484 0.63524 0.02875 0.0
C1128 C 0.67331 0.65212 0.06252 0.0
H1129 H 0.70185 0.62649 0.98695 0.0
H1130 H 0.656 0.61803 0.01495 0.0
C1131 C 0.69806 0.67423 0.0797 0.0
C1132 C 0.76017 0.48209 0.33906 0.0
C1133 C 0.77858 0.51129 0.35389 0.0
H1134 H 0.75613 0.43131 0.32436 0.0
C1135 C 0.8094 0.50882 0.36497 0.0
H1136 H 0.73638 0.48199 0.33 0.0
C1137 C 0.82098 0.47923 0.36133 0.0
C1138 C 0.80253 0.44999 0.34662 0.0
H1139 H 0.82489 0.52998 0.37654 0.0
H1140 H 0.84476 0.47936 0.37045 0.0
C1141 C 0.77168 0.45248 0.33572 0.0
C1142 C 0.84622 0.52173 0.53489 0.0
C1143 C 0.84183 0.5229 0.57041 0.0
H1144 H 0.87828 0.52998 0.49945 0.0
C1145 C 0.86419 0.53979 0.59744 0.0
H1146 H 0.82911 0.50904 0.51359 0.0
C1147 C 0.89215 0.55173 0.5894 0.0
C1148 C 0.89807 0.54675 0.55423 0.0
H1149 H 0.86105 0.54136 0.62502 0.0
H1150 H 0.90998 0.56184 0.6111 0.0
C1151 C 0.87433 0.53354 0.52683 0.0
C1152 C 0.45854 0.27189 0.35673 0.0
C1153 C 0.45503 0.24763 0.32729 0.0
H1154 H 0.44248 0.31315 0.38113 0.0
C1155 C 0.43382 0.24874 0.29764 0.0
H1156 H 0.4747 0.2718 0.37994 0.0
C1157 C 0.41526 0.27247 0.29825 0.0
C1158 C 0.41742 0.29559 0.3286 0.0
H1159 H 0.43062 0.23048 0.27443 0.0
H1160 H 0.39834 0.27185 0.27554 0.0
C1161 C 0.43995 0.29556 0.35739 0.0
C1162 C 0.35482 0.08268 0.49708 0.0
C1163 C 0.35885 0.10602 0.47594 0.0
H1164 H 0.37638 0.05637 0.53277 0.0
C1165 C 0.38798 0.11515 0.46807 0.0
H1166 H 0.33261 0.07509 0.50355 0.0
C1167 C 0.41294 0.10393 0.4842 0.0
C1168 C 0.40938 0.08408 0.50933 0.0
H1169 H 0.39189 0.13299 0.45181 0.0
H1170 H 0.43529 0.11281 0.47911 0.0
C1171 C 0.37994 0.07192 0.51386 0.0
C1172 C 0.81498 0.71142 0.36807 0.0
C1173 C 0.78398 0.69833 0.35685 0.0
H1174 H 0.85067 0.75133 0.37292 0.0
C1175 C 0.76592 0.71858 0.34141 0.0
H1176 H 0.8302 0.69735 0.38012 0.0
C1177 C 0.77769 0.74952 0.33725 0.0
C1178 C 0.80849 0.76285 0.34818 0.0
H1179 H 0.74211 0.71042 0.33218 0.0
H1180 H 0.76214 0.76324 0.32509 0.0
C1181 C 0.8269 0.74284 0.36391 0.0
C1182 C 0.89709 0.61623 0.87166 0.0
C1183 C 0.91422 0.60989 0.84395 0.0
H1184 H 0.86406 0.59727 0.90128 0.0
C1185 C 0.90795 0.58044 0.82161 0.0
H1186 H 0.90109 0.63891 0.88893 0.0
C1187 C 0.8873 0.55666 0.82913 0.0
C1188 C 0.87239 0.56198 0.85898 0.0
H1189 H 0.92055 0.57499 0.79977 0.0
H1190 H 0.88499 0.53342 0.81326 0.0
C1191 C 0.87612 0.59244 0.87892 0.0
C1192 C 0.06938 0.93326 0.21666 0.0
C1193 C 0.07746 0.90347 0.20546 0.0
H1194 H 0.05516 0.97517 0.20137 0.0
C1195 C 0.07719 0.89322 0.16899 0.0
H1196 H 0.06926 0.9418 0.24453 0.0
C1197 C 0.06891 0.91213 0.14428 0.0
C1198 C 0.06059 0.94185 0.15528 0.0
H1199 H 0.0831 0.87032 0.15937 0.0
H1200 H 0.06859 0.90318 0.11642 0.0
C1201 C 0.061 0.95222 0.19185 0.0
C1202 C 0.9927 0.39442 0.85236 0.0
C1203 C 1.00462 0.37017 0.86755 0.0
H1204 H 0.95326 0.41458 0.83452 0.0
C1205 C 0.98322 0.3463 0.87511 0.0
H1206 H 1.00796 0.41342 0.84625 0.0
C1207 C 0.95144 0.34698 0.86836 0.0
C1208 C 0.93961 0.37161 0.85382 0.0
H1209 H 0.99105 0.32725 0.88702 0.0
H1210 H 0.93612 0.32842 0.87524 0.0
C1211 C 0.96101 0.3951 0.84566 0.0
C1212 C 0.59408 0.25449 0.67003 0.0
C1213 C 0.58511 0.25369 0.70359 0.0
H1214 H 0.60136 0.2282 0.62084 0.0
C1215 C 0.575 0.2244 0.71235 0.0
H1216 H 0.60192 0.27665 0.66237 0.0
C1217 C 0.57429 0.1965 0.68821 0.0
C1218 C 0.58402 0.19733 0.655 0.0
H1219 H 0.56783 0.22301 0.73792 0.0
H1220 H 0.56688 0.17425 0.69595 0.0
C1221 C 0.59371 0.22668 0.64615 0.0
C1222 C 0.69736 0.86991 0.34479 0.0
C1223 C 0.69115 0.87757 0.3799 0.0
H1224 H 0.73116 0.86276 0.30999 0.0
C1225 C 0.71641 0.88405 0.40697 0.0
H1226 H 0.67887 0.86474 0.32303 0.0
C1227 C 0.74633 0.88249 0.39956 0.0
C1228 C 0.75273 0.8749 0.36463 0.0
H1229 H 0.71307 0.89004 0.43439 0.0
H1230 H 0.76456 0.88749 0.42151 0.0
C1231 C 0.72757 0.8689 0.3373 0.0
C1232 C 0.14239 0.36121 0.59064 0.0
C1233 C 0.1674 0.35861 0.57234 0.0
H1234 H 0.11033 0.33868 0.61857 0.0
C1235 C 0.18076 0.33099 0.57041 0.0
H1236 H 0.13184 0.38242 0.59286 0.0
C1237 C 0.16806 0.30561 0.58463 0.0
C1238 C 0.14197 0.3076 0.60132 0.0
H1239 H 0.19997 0.32836 0.5563 0.0
H1240 H 0.1778 0.28395 0.58093 0.0
C1241 C 0.12993 0.33607 0.60515 0.0
C1242 C 0.61468 0.24192 0.21732 0.0
C1243 C 0.59191 0.25373 0.2349 0.0
H1244 H 0.66054 0.23329 0.22216 0.0
C1245 C 0.5953 0.25888 0.27205 0.0
H1246 H 0.61219 0.2374 0.18861 0.0
C1247 C 0.62313 0.25693 0.29135 0.0
C1248 C 0.64734 0.24919 0.27352 0.0
H1249 H 0.57779 0.26782 0.28605 0.0
H1250 H 0.62659 0.26431 0.31986 0.0
C1251 C 0.64223 0.23937 0.23658 0.0
C1252 C 0.65943 1.01645 0.01857 0.0
C1253 C 0.67017 0.99864 0.0435 0.0
H1254 H 0.62665 0.04518 1.00379 0.0
C1255 C 0.65985 1.00218 0.07676 0.0
H1256 H 0.66641 1.014 0.99249 0.0
C1257 C 0.63764 1.02153 0.08385 0.0
C1258 C 0.62468 0.03646 0.05723 0.0
H1259 H 0.66743 0.98836 0.09628 0.0
H1260 H 0.6291 1.02298 0.10903 0.0
C1261 C 0.63634 0.03428 0.02496 0.0
C1262 C 0.96959 0.84619 0.78416 0.0
C1263 C 0.99345 0.82831 0.78499 0.0
H1264 H 0.94556 0.87788 0.81364 0.0
C1265 C 1.01154 0.82872 0.81759 0.0
H1266 H 0.95533 0.84636 0.75948 0.0
C1267 C 1.00586 0.8468 0.84881 0.0
C1268 C 0.98244 0.8654 0.84783 0.0
H1269 H 1.0301 0.815 0.81897 0.0
H1270 H 1.01989 0.84644 0.87359 0.0
C1271 C 0.96434 0.86469 0.81517 0.0
C1272 C 0.18382 0.08966 0.97608 0.0
C1273 C 0.18097 0.10727 0.94815 0.0
H1274 H 0.16721 0.07679 0.02312 0.0
C1275 C 0.15715 0.12584 0.94795 0.0
H1276 H 0.2015 0.07487 0.97761 0.0
C1277 C 0.13773 0.12736 0.97453 0.0
C1278 C 0.1403 0.10963 1.00226 0.0
H1279 H 0.15374 0.13984 0.92732 0.0
H1280 H 0.12048 0.14269 0.97332 0.0
C1281 C 0.16377 0.09054 1.00226 0.0
C1282 C 0.82227 0.44108 0.71512 0.0
C1283 C 0.80631 0.42005 0.68545 0.0
H1284 H 0.84457 0.44702 0.76855 0.0
C1285 C 0.80197 0.38777 0.68669 0.0
H1286 H 0.82598 0.46612 0.71487 0.0
C1287 C 0.81349 0.37673 0.71711 0.0
C1288 C 0.82885 0.39789 0.74707 0.0
H1289 H 0.78997 0.37107 0.66408 0.0
H1290 H 0.80953 0.35174 0.71758 0.0
C1291 C 0.83304 0.43016 0.74578 0.0
C1292 C 0.55137 0.1654 0.45808 0.0
C1293 C 0.53755 0.14236 0.42881 0.0
H1294 H 0.5721 0.1749 0.5129 0.0
C1295 C 0.53582 0.1106 0.43256 0.0
H1296 H 0.55302 0.19011 0.45617 0.0
C1297 C 0.54657 0.10203 0.4647 0.0
C1298 C 0.55948 0.12486 0.49436 0.0
H1299 H 0.52548 0.09214 0.41075 0.0
H1300 H 0.54421 0.07725 0.46645 0.0
C1301 C 0.56229 0.15672 0.49058 0.0
C1302 C 0.88164 0.73866 0.08798 0.0
C1303 C 0.86666 0.70798 0.08569 0.0
H1304 H 0.89258 0.7845 0.11963 0.0
C1305 C 0.86049 0.69713 0.1168 0.0
H1306 H 0.88718 0.74742 0.06443 0.0
C1307 C 0.86384 0.71833 0.14847 0.0
C1308 C 0.8733 0.7504 0.14907 0.0
H1309 H 0.84961 0.67333 0.11585 0.0
H1310 H 0.85556 0.71041 0.17126 0.0
C1311 C 0.88483 0.75993 0.11965 0.0
C1312 C 0.19094 0.0812 0.72854 0.0
C1313 C 0.18147 0.09243 0.76109 0.0
H1314 H 0.18145 0.07347 0.67155 0.0
C1315 C 0.1537 0.10455 0.75995 0.0
H1316 H 0.21216 0.07176 0.72823 0.0
C1317 C 0.13637 0.10612 0.72745 0.0
C1318 C 0.14586 0.09505 0.69487 0.0
H1319 H 0.14563 0.11359 0.78432 0.0
H1320 H 0.11546 0.11612 0.7279 0.0
C1321 C 0.17326 0.08216 0.69595 0.0
C1322 C 0.77856 0.39676 0.4704 0.0
C1323 C 0.79336 0.39519 0.50424 0.0
H1324 H 0.77867 0.38683 0.4141 0.0
C1325 C 0.81853 0.37881 0.50645 0.0
H1326 H 0.75921 0.40926 0.46767 0.0
C1327 C 0.82964 0.36588 0.4758 0.0
C1328 C 0.81599 0.3691 0.44204 0.0
H1329 H 0.83048 0.37705 0.53202 0.0
H1330 H 0.84979 0.35459 0.47868 0.0
C1331 C 0.78977 0.38391 0.43967 0.0
C1332 C 0.5108 0.12339 0.2124 0.0
C1333 C 0.52994 0.13482 0.24471 0.0
H1334 H 0.50737 0.10502 0.15696 0.0
C1335 C 0.56123 0.13453 0.24566 0.0
H1336 H 0.48654 0.12325 0.21075 0.0
C1337 C 0.57311 0.12331 0.21492 0.0
C1338 C 0.55403 0.11258 0.18235 0.0
H1339 H 0.57653 0.143 0.27014 0.0
H1340 H 0.59744 0.12415 0.21649 0.0
C1341 C 0.5227 0.11267 0.18156 0.0
C1342 C 0.82794 0.77095 0.94595 0.0
C1343 C 0.80673 0.74372 0.93352 0.0
H1344 H 0.84764 0.81551 0.93593 0.0
C1345 C 0.78703 0.74191 0.90191 0.0
H1346 H 0.84346 0.77302 0.97025 0.0
C1347 C 0.78896 0.76674 0.88275 0.0
C1348 C 0.81102 0.79338 0.89463 0.0
H1349 H 0.77041 0.72126 0.89187 0.0
H1350 H 0.77414 0.76447 0.8579 0.0
C1351 C 0.8303 0.79535 0.92647 0.0
C1352 C 0.97695 0.17824 0.05431 0.0
C1353 C 0.98341 0.20997 0.07132 0.0
H1354 H 0.99388 0.1344 0.0408 0.0
C1355 C 1.01361 0.22253 0.08445 0.0
H1356 H 0.95387 0.1678 0.04369 0.0
C1357 C 1.03652 0.20341 0.08242 0.0
C1358 C 1.02983 0.17116 0.06741 0.0
H1359 H 1.01943 0.24684 0.09743 0.0
H1360 H 0.0594 0.21372 0.09405 0.0
C1361 C 0.99988 0.15903 0.05241 0.0
C1362 C 0.47415 0.54319 0.118 0.0
C1363 C 0.47253 0.5576 0.15281 0.0
H1364 H 0.50049 0.53812 0.07548 0.0
C1365 C 0.49756 0.57854 0.17181 0.0
H1366 H 0.45526 0.52698 0.10258 0.0
C1367 C 0.52366 0.58499 0.15608 0.0
C1368 C 0.52506 0.57053 0.1212 0.0
H1369 H 0.4969 0.59005 0.19863 0.0
H1370 H 0.54267 0.60126 0.17115 0.0
C1371 C 0.50008 0.54959 0.10239 0.0
C1372 C 0.42731 0.7346 0.84847 0.0
C1373 C 0.40958 0.70506 0.83348 0.0
H1374 H 0.43018 0.78525 0.86288 0.0
C1375 C 0.37867 0.70675 0.82184 0.0
H1376 H 0.45112 0.73529 0.85793 0.0
C1377 C 0.36636 0.73594 0.82517 0.0
C1378 C 0.38416 0.76551 0.84 0.0
H1379 H 0.36369 0.68528 0.81013 0.0
H1380 H 0.34256 0.73526 0.81568 0.0
C1381 C 0.4151 0.76379 0.8514 0.0
C1382 C 0.34653 0.69195 0.6482 0.0
C1383 C 0.35497 0.68799 0.6142 0.0
H1384 H 0.31005 0.68667 0.67827 0.0
C1385 C 0.3363 0.66733 0.58635 0.0
H1386 H 0.3608 0.70761 0.67014 0.0
C1387 C 0.30742 0.65475 0.59113 0.0
C1388 C 0.29688 0.6634 0.62355 0.0
H1389 H 0.34277 0.66348 0.56004 0.0
H1390 H 0.29229 0.64117 0.56846 0.0
C1391 C 0.31742 0.67985 0.65285 0.0
C1392 C 0.75515 0.9593 0.88529 0.0
C1393 C 0.73845 0.96325 0.85331 0.0
H1394 H 0.78723 0.93392 0.91064 0.0
C1395 C 0.74037 0.94259 0.82219 0.0
H1396 H 0.75422 0.97495 0.90976 0.0
C1397 C 0.75974 0.91976 0.82257 0.0
C1398 C 0.77716 0.91619 0.85424 0.0
H1399 H 0.72819 0.94517 0.79705 0.0
H1400 H 0.76192 0.90572 0.79755 0.0
C1401 C 0.77417 0.93588 0.8858 0.0
C1402 C 0.80215 0.0978 0.70041 0.0
C1403 C 0.83248 0.10563 0.69583 0.0
H1404 H 0.75631 0.1054 0.68793 0.0
C1405 C 0.8402 0.13057 0.67791 0.0
H1406 H 0.79546 0.07857 0.71389 0.0
C1407 C 0.81756 0.14576 0.66253 0.0
C1408 C 0.78702 0.13653 0.66542 0.0
H1409 H 0.86338 0.1369 0.67369 0.0
H1410 H 0.82371 0.16367 0.64705 0.0
C1411 C 0.77969 0.11322 0.68557 0.0
C1412 C 0.42471 0.50124 0.85116 0.0
C1413 C 0.40719 0.52036 0.83302 0.0
H1414 H 0.4283 0.45739 0.86951 0.0
C1415 C 0.37689 0.50614 0.81925 0.0
H1416 H 0.44798 0.51029 0.8624 0.0
C1417 C 0.36511 0.47475 0.82362 0.0
C1418 C 0.38303 0.4558 0.84189 0.0
H1419 H 0.3621 0.51931 0.80505 0.0
H1420 H 0.3419 0.46534 0.81254 0.0
C1421 C 0.41314 0.47024 0.85533 0.0
C1422 C 0.29919 0.61627 0.34603 0.0
C1423 C 0.27454 0.60157 0.32062 0.0
H1424 H 0.33672 0.65342 0.35975 0.0
C1425 C 0.26988 0.61194 0.28806 0.0
H1426 H 0.30308 0.60861 0.37139 0.0
C1427 C 0.28811 0.63823 0.28209 0.0
C1428 C 0.31223 0.65382 0.3078 0.0
H1429 H 0.25063 0.60136 0.26832 0.0
H1430 H 0.28191 0.64766 0.25833 0.0
C1431 C 0.31824 0.64195 0.33943 0.0
C1432 C 0.61717 0.82458 0.51969 0.0
C1433 C 0.6164 0.81418 0.48315 0.0
H1434 H 0.62624 0.81479 0.57227 0.0
C1435 C 0.62399 0.78417 0.4719 0.0
H1436 H 0.61167 0.84765 0.52939 0.0
C1437 C 0.63238 0.76517 0.49669 0.0
C1438 C 0.63332 0.7757 0.53333 0.0
H1439 H 0.62374 0.77549 0.44398 0.0
H1440 H 0.63781 0.74205 0.48709 0.0
C1441 C 0.62548 0.80565 0.54438 0.0
C1442 C 0.70688 0.37297 0.81217 0.0
C1443 C 0.68536 0.34888 0.81911 0.0
H1444 H 0.75407 0.39142 0.81353 0.0
C1445 C 0.69718 0.32485 0.83483 0.0
H1446 H 0.69915 0.39189 0.79991 0.0
C1447 C 0.72888 0.32458 0.84262 0.0
C1448 C 0.75041 0.34829 0.83508 0.0
H1449 H 0.68185 0.3057 0.84053 0.0
H1450 H 0.73655 0.30524 0.85411 0.0
C1451 C 0.73866 0.37271 0.82 0.0
C1452 C 0.09372 0.46451 1.0113 0.0
C1453 C 0.104 0.4651 0.9784 0.0
H1454 H 0.08618 0.49089 0.06022 0.0
C1455 C 0.11578 0.49414 0.97031 0.0
H1456 H 0.08458 0.44253 0.01844 0.0
C1457 C 0.11703 0.52204 0.99463 0.0
C1458 C 0.10623 0.52138 0.02729 0.0
H1459 H 0.124 0.49532 0.94524 0.0
H1460 H 0.12586 0.54414 0.98753 0.0
C1461 C 0.09469 0.49227 0.03534 0.0
C1462 C 0.99808 0.85068 0.3437 0.0
C1463 C 1.00371 0.8398 0.30901 0.0
H1464 H 0.96503 0.86073 0.37857 0.0
C1465 C 0.97799 0.83029 0.28268 0.0
H1466 H 1.01691 0.8583 0.36485 0.0
C1467 C 0.94812 0.832 0.29044 0.0
C1468 C 0.94241 0.84288 0.32505 0.0
H1469 H 0.98092 0.82184 0.25558 0.0
H1470 H 0.92941 0.82478 0.26908 0.0
C1471 C 0.96807 0.85198 0.35158 0.0
C1472 C 0.54964 0.38165 0.10944 0.0
C1473 C 0.56713 0.36894 0.13481 0.0
H1474 H 0.54895 0.41527 0.07444 0.0
C1475 C 0.59831 0.3799 0.14338 0.0
H1476 H 0.52559 0.37352 0.10227 0.0
C1477 C 0.61164 0.40374 0.12753 0.0
C1478 C 0.59409 0.41676 0.10253 0.0
H1479 H 0.61235 0.37042 0.16278 0.0
H1480 H 0.63561 0.41217 0.135 0.0
C1481 C 0.56305 0.40528 0.09331 0.0
C1482 C 0.0948 0.45646 0.4525 0.0
C1483 C 0.10448 0.42794 0.45818 0.0
H1484 H 0.05872 0.47887 0.43096 0.0
C1485 C 0.0854 0.39954 0.44479 0.0
H1486 H 0.10933 0.47865 0.46224 0.0
C1487 C 0.05658 0.39965 0.42713 0.0
C1488 C 1.04639 0.42817 0.42233 0.0
H1489 H 0.09242 0.37721 0.44872 0.0
H1490 H 1.04184 0.37744 0.41861 0.0
C1491 C 0.06594 0.45657 0.43459 0.0
C1492 C 1.00998 0.70977 0.58589 0.0
C1493 C 0.99594 0.70693 0.61623 0.0
H1494 H 1.04383 0.69417 0.55522 0.0
C1495 C 0.99704 0.67927 0.63059 0.0
H1496 H 1.00923 0.73058 0.57381 0.0
C1497 C 1.01695 0.65856 0.61989 0.0
C1498 C 1.03524 0.66469 0.59406 0.0
H1499 H 0.98621 0.67601 0.6536 0.0
H1500 H 1.02065 0.63998 0.63486 0.0
C1501 C 1.02985 0.68888 0.5751 0.0
C1502 C 0.73048 0.85069 0.90255 0.0
C1503 C 0.71649 0.87782 0.90408 0.0
H1504 H 0.74403 0.81229 0.86992 0.0
C1505 C 0.70323 0.8857 0.87231 0.0
H1506 H 0.74024 0.84365 0.92665 0.0
C1507 C 0.70417 0.86705 0.83969 0.0
C1508 C 0.71916 0.8404 0.83772 0.0
H1509 H 0.69129 0.90592 0.87263 0.0
H1510 H 0.69327 0.87387 0.81607 0.0
C1511 C 0.73202 0.83235 0.86981 0.0
C1512 C 0.52355 0.63957 0.72765 0.0
C1513 C 0.50965 0.61265 0.73931 0.0
H1514 H 0.55263 0.65856 0.69268 0.0
C1515 C 0.51719 0.58352 0.72376 0.0
H1516 H 0.51879 0.6626 0.7387 0.0
C1517 C 0.53765 0.58136 0.69835 0.0
C1518 C 0.55096 0.60801 0.68578 0.0
H1519 H 0.5077 0.56212 0.73184 0.0
H1520 H 0.54288 0.55833 0.68825 0.0
C1521 C 0.54327 0.63727 0.70108 0.0
C1522 C 0.8883 0.32972 1.0032 0.0
C1523 C 0.88136 0.29757 1.00439 0.0
H1524 H 0.8835 0.36658 0.97269 0.0
C1525 C 0.86346 0.27777 0.97506 0.0
H1526 H 0.90188 0.34552 0.02553 0.0
C1527 C 0.85344 0.28962 0.94475 0.0
C1528 C 0.8603 0.32174 0.94348 0.0
H1529 H 0.85775 0.25287 0.97522 0.0
H1530 H 0.84041 0.2736 0.92219 0.0
C1531 C 0.8775 0.34178 0.97317 0.0
C1532 C 0.13768 0.54785 0.22295 0.0
C1533 C 0.14951 0.56979 0.25389 0.0
H1534 H 0.12 0.54081 0.16734 0.0
C1535 C 0.15034 0.60199 0.2525 0.0
H1536 H 0.13682 0.52289 0.22308 0.0
C1537 C 0.14114 0.61212 0.22081 0.0
C1538 C 0.13052 0.59041 0.18955 0.0
H1539 H 0.15922 0.61961 0.27569 0.0
H1540 H 0.14306 0.63717 0.22062 0.0
C1541 C 0.12808 0.55809 0.19105 0.0
C1542 C 0.83845 0.93076 0.63261 0.0
C1543 C 0.83649 0.96155 0.62667 0.0
H1544 H 0.83606 0.88253 0.60878 0.0
C1545 C 0.82315 0.96631 0.59356 0.0
H1546 H 0.84796 0.9264 0.65826 0.0
C1547 C 0.81622 0.94122 0.56536 0.0
C1548 C 0.82271 0.91114 0.56999 0.0
H1549 H 0.8208 0.98978 0.58854 0.0
H1550 H 0.80936 0.94633 0.53923 0.0
C1551 C 0.83148 0.90562 0.60439 0.0
C1552 C 0.53753 0.61098 0.926 0.0
C1553 C 0.50944 0.6224 0.9253 0.0
H1554 H 0.5766 0.60037 0.95742 0.0
C1555 C 0.5001 0.63307 0.95813 0.0
H1556 H 0.54558 0.60245 0.90145 0.0
C1557 C 0.51821 0.63225 0.99052 0.0
C1558 C 0.54604 0.62024 0.99116 0.0
H1559 H 0.47866 0.64201 0.95883 0.0
H1560 H 0.51009 0.64053 0.0151 0.0
C1561 C 0.55538 0.60971 0.95829 0.0
C1562 C 0.86758 0.33326 0.18165 0.0
C1563 C 0.89306 0.31736 0.18375 0.0
H1564 H 0.83667 0.35784 0.20957 0.0
C1565 C 0.90864 0.31683 0.21753 0.0
H1566 H 0.85506 0.33427 0.15613 0.0
C1567 C 0.89792 0.33028 0.24839 0.0
C1568 C 0.87147 0.34474 0.24619 0.0
H1569 H 0.92828 0.30473 0.22017 0.0
H1570 H 0.90962 0.32817 0.27397 0.0
C1571 C 0.85702 0.34686 0.21238 0.0
C1572 C 0.12686 0.5659 0.4315 0.0
C1573 C 0.15672 0.57801 0.42876 0.0
H1574 H 0.09067 0.56645 0.46279 0.0
C1575 C 0.17269 0.60178 0.45591 0.0
H1576 H 0.11395 0.54767 0.41099 0.0
C1577 C 0.15945 0.61252 0.48567 0.0
C1578 C 0.12977 0.60003 0.48878 0.0
H1579 H 0.19575 0.61166 0.45456 0.0
H1580 H 0.1727 0.63013 0.5066 0.0
C1581 C 0.11346 0.57692 0.46108 0.0
C1582 C 0.86793 0.9751 0.7863 0.0
C1583 C 0.89619 0.98462 0.77635 0.0
H1584 H 0.84008 0.93969 0.805 0.0
C1585 C 0.91916 0.9656 0.7799 0.0
H1586 H 0.84958 0.98895 0.78331 0.0
C1587 C 0.91372 0.93726 0.7925 0.0
C1588 C 0.885 0.92711 0.80085 0.0
H1589 H 0.94102 0.97217 0.77192 0.0
H1590 H 0.93178 0.92309 0.79505 0.0
C1591 C 0.86228 0.9465 0.798 0.0
C1592 C 0.6759 0.49419 0.60539 0.0
C1593 C 0.70643 0.50642 0.61687 0.0
H1594 H 0.63027 0.50391 0.59736 0.0
C1595 C 0.71382 0.53832 0.63302 0.0
H1596 H 0.66942 0.46975 0.59316 0.0
C1597 C 0.69139 0.55803 0.63551 0.0
C1598 C 0.6611 0.54625 0.62186 0.0
H1599 H 0.73717 0.54845 0.64245 0.0
H1600 H 0.69804 0.58277 0.64629 0.0
C1601 C 0.65349 0.51387 0.60789 0.0
C1602 C 0.20005 0.13418 0.51101 0.0
C1603 C 0.22566 0.15401 0.53038 0.0
H1604 H 0.15469 0.11212 0.51172 0.0
C1605 C 0.22505 0.16662 0.56605 0.0
H1606 H 0.19995 0.12406 0.48352 0.0
C1607 C 0.19947 0.15978 0.58205 0.0
C1608 C 0.17379 0.14018 0.5628 0.0
H1609 H 0.24442 0.1819 0.58179 0.0
H1610 H 0.19978 0.17004 0.60956 0.0
C1611 C 0.17427 0.12729 0.52715 0.0
C1612 C 0.25622 0.9813 0.8397 0.0
C1613 C 0.27534 1.01067 0.85081 0.0
H1614 H 0.25158 0.9303 0.82772 0.0
C1615 C 0.30666 1.00832 0.858 0.0
H1616 H 0.23201 0.98113 0.83373 0.0
C1617 C 0.31806 0.97868 0.85436 0.0
C1618 C 0.29897 0.94927 0.84331 0.0
H1619 H 0.32268 1.02963 0.8666 0.0
H1620 H 0.34226 0.97893 0.86048 0.0
C1621 C 0.26762 0.95162 0.83613 0.0
C1622 C 0.34272 0.05106 0.05231 0.0
C1623 C 0.34725 0.0356 0.08142 0.0
H1624 H 0.36272 0.08266 0.02148 0.0
C1625 C 0.37455 0.04344 0.10474 0.0
H1626 H 0.32163 0.04576 0.03425 0.0
C1627 C 0.39793 0.06441 0.09751 0.0
C1628 C 0.39445 0.07802 0.0668 0.0
H1629 H 0.37848 1.03217 0.12768 0.0
H1630 H 0.41947 0.068 0.11462 0.0
C1631 C 0.36617 0.0722 0.04508 0.0
C1632 C 0.94302 0.75667 0.80035 0.0
C1633 C 0.95888 0.75146 0.83222 0.0
H1634 H 0.91128 0.78286 0.77579 0.0
C1635 C 0.95625 0.77091 0.86395 0.0
H1636 H 0.94461 0.74206 0.77541 0.0
C1637 C 0.93684 0.79365 0.86422 0.0
C1638 C 0.91999 0.79824 0.8327 0.0
H1639 H 0.96794 0.76746 0.88898 0.0
H1640 H 0.93408 0.8067 0.88959 0.0
C1641 C 0.92382 0.77995 0.80057 0.0
C1642 C 0.85268 0.57422 0.99519 0.0
C1643 C 0.85899 0.59957 0.97735 0.0
H1644 H 0.87114 0.54301 0.02724 0.0
C1645 C 0.88906 0.60876 0.97245 0.0
H1646 H 0.82975 0.56665 0.99949 0.0
C1647 C 0.91258 0.59495 0.9879 0.0
C1648 C 0.90653 0.57207 1.00904 0.0
H1649 H 0.89476 0.62837 0.95912 0.0
H1650 H 0.93569 0.60422 0.98593 0.0
C1651 C 0.87632 0.56078 1.01123 0.0
C1652 C 0.31297 0.21394 0.8716 0.0
C1653 C 0.28385 0.19839 0.8547 0.0
H1654 H 0.34716 0.25564 0.88033 0.0
C1655 C 0.26767 0.21596 0.83288 0.0
H1656 H 0.32671 0.20198 0.88868 0.0
C1657 C 0.27932 0.24679 0.82829 0.0
C1658 C 0.30828 0.26254 0.8448 0.0
H1659 H 0.24535 0.20583 0.81909 0.0
H1660 H 0.26516 0.25844 0.81129 0.0
C1661 C 0.32492 0.24512 0.86667 0.0
C1662 C 0.39212 0.11484 0.36919 0.0
C1663 C 0.4102 0.1066 0.34293 0.0
H1664 H 0.35766 0.09829 0.39855 0.0
C1665 C 0.40403 0.07641 0.32226 0.0
H1666 H 0.39602 0.13818 0.38503 0.0
C1667 C 0.38247 0.05379 0.33023 0.0
C1668 C 0.36666 0.061 0.35898 0.0
H1669 H 0.41727 0.06955 0.30143 0.0
H1670 H 0.38022 1.02996 0.31586 0.0
C1671 C 0.37034 0.09213 0.37703 0.0
C1672 C 0.55063 0.42385 0.71392 0.0
C1673 C 0.57453 0.40634 0.70904 0.0
H1674 H 0.52169 0.45411 0.69309 0.0
C1675 C 0.58901 0.40796 0.67899 0.0
H1676 H 0.53866 0.4226 0.7365 0.0
C1677 C 0.57995 0.4268 0.65444 0.0
C1678 C 0.55547 0.44392 0.65861 0.0
H1679 H 0.60752 0.3947 0.67451 0.0
H1680 H 0.59249 0.42806 0.63237 0.0
C1681 C 0.54097 0.44204 0.68886 0.0
C1682 C 0.49572 0.89612 0.35608 0.0
C1683 C 0.5071 0.87149 0.37107 0.0
H1684 H 0.45679 0.91698 0.33798 0.0
C1685 C 0.48524 0.84771 0.37795 0.0
H1686 H 0.51134 0.91508 0.35048 0.0
C1687 C 0.45356 0.84879 0.3707 0.0
C1688 C 0.44226 0.87378 0.35636 0.0
H1689 H 0.49263 0.82837 0.38967 0.0
H1690 H 0.43789 0.83024 0.37705 0.0
C1691 C 0.46411 0.89723 0.34893 0.0
C1692 C 0.1003 0.75362 0.17409 0.0
C1693 C 0.09 0.75316 0.207 0.0
H1694 H 0.10806 0.72706 0.12534 0.0
C1695 C 0.07847 0.7241 0.2153 0.0
H1696 H 0.10925 0.7756 0.16678 0.0
C1697 C 0.07747 0.69612 0.19118 0.0
C1698 C 0.08823 0.69665 0.15847 0.0
H1699 H 0.07024 0.72299 0.24037 0.0
H1700 H 0.06878 0.67404 0.19845 0.0
C1701 C 0.09957 0.72576 0.15023 0.0
C1702 C 0.19507 0.37147 0.84048 0.0
C1703 C 0.18881 0.3783 0.87566 0.0
H1704 H 0.2289 0.36499 0.80558 0.0
C1705 C 0.214 0.38397 0.90278 0.0
H1706 H 0.17662 0.36693 0.81869 0.0
C1707 C 0.2439 0.38241 0.89533 0.0
C1708 C 0.25035 0.37572 0.86031 0.0
H1709 H 0.21061 0.38922 0.93026 0.0
H1710 H 0.2621 0.38643 0.91735 0.0
C1711 C 0.22527 0.37049 0.83294 0.0
C1712 C 0.60767 0.84285 0.03851 0.0
C1713 C 0.63932 0.85071 0.04224 0.0
H1714 H 0.57022 0.81472 0.05284 0.0
C1715 C 0.65772 0.83653 0.06527 0.0
H1716 H 0.59285 0.85362 0.0212 0.0
C1717 C 0.64466 0.81421 0.08347 0.0
C1718 C 0.61301 0.80571 0.07886 0.0
H1719 H 0.68216 0.84224 0.06871 0.0
H1720 H 0.65937 0.80282 0.10018 0.0
C1721 C 0.59466 0.82059 0.0566 0.0
C1722 C 0.09328 0.73683 0.76359 0.0
C1723 C 0.08839 0.73678 0.72697 0.0
H1724 H 0.12654 0.74026 0.80926 0.0
C1725 C 0.11181 0.73162 0.70685 0.0
H1726 H 0.07536 0.74043 0.77956 0.0
C1727 C 0.14089 0.73114 0.72374 0.0
C1728 C 0.14683 0.73626 0.76094 0.0
H1729 H 0.10831 0.73103 0.67846 0.0
H1730 H 0.15919 0.73043 0.70787 0.0
C1731 C 0.12252 0.73686 0.78059 0.0
C1732 C 0.19751 0.53572 0.55109 0.0
C1733 C 0.2017 0.51204 0.57139 0.0
H1734 H 0.17039 0.57089 0.5393 0.0
C1735 C 0.18833 0.51281 0.60271 0.0
H1736 H 0.20763 0.53609 0.52704 0.0
C1737 C 0.16703 0.53316 0.60991 0.0
C1738 C 0.1592 0.553 0.58603 0.0
H1739 H 0.19127 0.49505 0.61914 0.0
H1740 H 0.1542 0.53061 0.63156 0.0
C1741 C 0.17604 0.55568 0.55805 0.0
C1742 C 0.51997 0.35551 0.3034 0.0
C1743 C 0.50122 0.35233 0.27068 0.0
H1744 H 0.5269 0.37381 0.35907 0.0
C1745 C 0.47522 0.36715 0.26904 0.0
H1746 H 0.54023 0.3443 0.30545 0.0
C1747 C 0.46809 0.38475 0.2997 0.0
C1748 C 0.48637 0.38718 0.33266 0.0
H1749 H 0.46054 0.36528 0.24415 0.0
H1750 H 0.44771 0.39563 0.29779 0.0
C1751 C 0.51247 0.37247 0.33411 0.0
C1752 C 0.6618 0.57973 0.45448 0.0
C1753 C 0.68264 0.60563 0.45003 0.0
H1754 H 0.62729 0.56141 0.48377 0.0
C1755 C 0.68284 0.634 0.47364 0.0
H1756 H 0.66053 0.55735 0.43717 0.0
C1757 C 0.66294 0.63658 0.49969 0.0
C1758 C 0.6423 0.61071 0.50452 0.0
H1759 H 0.69806 0.6547 0.47152 0.0
H1760 H 0.66402 0.65918 0.51651 0.0
C1761 C 0.64251 0.58205 0.48145 0.0
C1762 C 0.30764 0.89302 0.18752 0.0
C1763 C 0.30974 0.92555 0.18785 0.0
H1764 H 0.31673 0.85634 0.21694 0.0
C1765 C 0.32332 0.94631 0.21892 0.0
H1766 H 0.29755 0.8765 0.16384 0.0
C1767 C 0.33397 0.93488 0.24927 0.0
C1768 C 0.33199 0.90238 0.24903 0.0
H1769 H 0.32534 0.97153 0.21995 0.0
H1770 H 0.34365 0.95153 0.27303 0.0
C1771 C 0.31898 0.88153 0.21774 0.0
C1772 C 0.05614 0.66671 0.96031 0.0
C1773 C 1.04213 0.64416 0.93071 0.0
H1774 H 0.07622 0.67516 0.01529 0.0
C1775 C 1.03986 0.61221 0.93372 0.0
H1776 H 0.05819 0.69153 0.9589 0.0
C1777 C 1.05001 0.603 0.96563 0.0
C1778 C 0.06281 0.62536 0.9957 0.0
H1779 H 1.0294 0.59415 0.91155 0.0
H1780 H 1.04708 0.57813 0.96696 0.0
C1781 C 0.06646 0.65737 0.99258 0.0
C1782 C 0.3752 0.25698 0.57315 0.0
C1783 C 0.36872 0.22453 0.57268 0.0
H1784 H 0.381 0.3026 0.60475 0.0
C1785 C 0.37322 0.21285 0.60449 0.0
H1786 H 0.37246 0.26655 0.54885 0.0
C1787 C 0.37885 0.23359 0.63668 0.0
C1788 C 0.37932 0.26603 0.63718 0.0
H1789 H 0.36913 0.18781 0.60468 0.0
H1790 H 0.37919 0.22405 0.66101 0.0
C1791 C 0.38029 0.27771 0.60533 0.0
C1792 C 0.69487 0.58783 0.22915 0.0
C1793 C 0.6849 0.59849 0.26161 0.0
H1794 H 0.68625 0.58106 0.17211 0.0
C1795 C 0.65719 0.61069 0.26015 0.0
H1796 H 0.71604 0.57829 0.22903 0.0
C1797 C 0.64031 0.61271 0.22752 0.0
C1798 C 0.65024 0.60218 0.19502 0.0
H1799 H 0.64869 0.61924 0.2844 0.0
H1800 H 0.61933 0.62262 0.22784 0.0
C1801 C 0.6777 0.5894 0.19639 0.0
C1802 C 0.3224 0.8857 1.00586 0.0
C1803 C 0.29775 0.90283 1.00434 0.0
H1804 H 0.35166 0.85928 0.97714 0.0
C1805 C 0.28189 0.90376 0.97082 0.0
H1806 H 0.33511 0.88432 0.03115 0.0
C1807 C 0.2915 0.88936 0.93963 0.0
C1808 C 0.31715 0.8736 0.94123 0.0
H1809 H 0.26286 0.91677 0.96861 0.0
H1810 H 0.27961 0.89173 0.91426 0.0
C1811 C 0.3319 0.87124 0.9748 0.0
C1812 C 0.06866 0.64987 0.75025 0.0
C1813 C 1.03833 0.6389 0.75225 0.0
H1814 H 0.10496 0.64899 0.71908 0.0
C1815 C 1.02164 0.61675 0.72393 0.0
H1816 H 0.08212 0.66683 0.77165 0.0
C1817 C 1.03467 0.60633 0.69395 0.0
C1818 C 0.06479 0.61771 0.69152 0.0
H1819 H 0.99821 0.60771 0.72465 0.0
H1820 H 1.0209 0.58986 0.67232 0.0
C1821 C 0.08177 0.63936 0.72021 0.0
C1822 C 0.30219 0.2397 0.39269 0.0
C1823 C 0.29556 0.24417 0.42756 0.0
H1824 H 0.31404 0.26166 0.34926 0.0
C1825 C 0.29383 0.27487 0.44472 0.0
H1826 H 0.30382 0.21642 0.37887 0.0
C1827 C 0.29995 0.30069 0.42787 0.0
C1828 C 0.30786 0.29614 0.39372 0.0
H1829 H 0.28882 0.27908 0.47166 0.0
H1830 H 0.29916 0.32417 0.44175 0.0
C1831 C 0.30831 0.26552 0.37592 0.0
C1832 C 0.51693 0.72402 0.58506 0.0
C1833 C 0.48676 0.71225 0.57095 0.0
H1834 H 0.56217 0.71395 0.59561 0.0
C1835 C 0.47988 0.68083 0.55297 0.0
H1836 H 0.52304 0.74808 0.59878 0.0
C1837 C 0.5023 0.66105 0.55121 0.0
C1838 C 0.53212 0.6723 0.56732 0.0
H1839 H 0.45681 0.67103 0.54157 0.0
H1840 H 0.49594 0.63661 0.53892 0.0
C1841 C 0.53934 0.70432 0.58315 0.0
C1842 C 0.99128 0.07864 0.6719 0.0
C1843 C 0.96526 0.05945 0.65259 0.0
H1844 H 1.03727 0.09884 0.67142 0.0
C1845 C 0.96564 0.04651 0.61697 0.0
H1846 H 0.9916 0.08896 0.69938 0.0
C1847 C 0.99157 0.05212 0.60111 0.0
C1848 C 1.01774 0.07078 0.62048 0.0
H1849 H 0.94593 1.03172 0.60132 0.0
H1850 H 0.99118 0.04154 0.5737 0.0
C1851 C 1.01735 0.08429 0.65593 0.0
C1852 C 0.88185 0.20734 0.32196 0.0
C1853 C 0.91248 0.20518 0.33445 0.0
H1854 H 0.84619 0.2363 0.31546 0.0
C1855 C 0.93019 0.23441 0.35074 0.0
H1856 H 0.8669 0.18613 0.30923 0.0
C1857 C 0.9182 0.26375 0.35414 0.0
C1858 C 0.88754 0.26591 0.34184 0.0
H1859 H 0.95379 0.23474 0.36092 0.0
H1860 H 0.93324 0.28496 0.36667 0.0
C1861 C 0.86978 0.23665 0.32567 0.0
C1862 C 0.8379 0.15904 0.08401 0.0
C1863 C 0.85295 0.18202 0.11229 0.0
H1864 H 0.80136 0.12148 0.06639 0.0
C1865 C 0.84519 0.18191 0.14633 0.0
H1866 H 0.84404 0.15831 0.05763 0.0
C1867 C 0.8203 0.16144 0.15123 0.0
C1868 C 0.80319 0.14041 0.1222 0.0
H1869 H 0.85669 0.19937 0.16857 0.0
H1870 H 0.81306 0.16414 0.17714 0.0
C1871 C 0.81347 0.13805 0.08904 0.0
C1872 C 0.23947 0.44332 0.32157 0.0
C1873 C 0.2387 0.46451 0.35267 0.0
H1874 H 0.26066 0.40657 0.29599 0.0
C1875 C 0.25733 0.46183 0.38386 0.0
H1876 H 0.2257 0.44493 0.29702 0.0
C1877 C 0.27708 0.43909 0.38354 0.0
C1878 C 0.27892 0.41897 0.35187 0.0
H1879 H 0.25726 0.47789 0.40829 0.0
H1880 H 0.29156 0.438 0.40776 0.0
C1881 C 0.25959 0.42121 0.32106 0.0
C1882 C 0.31034 0.60232 0.20879 0.0
C1883 C 0.33993 0.61092 0.20199 0.0
H1884 H 0.26339 0.6061 0.19655 0.0
C1885 C 0.34522 0.63469 0.18167 0.0
H1886 H 0.30544 0.58395 0.22413 0.0
C1887 C 0.32098 0.64746 0.16581 0.0
C1888 C 0.29112 0.63681 0.17021 0.0
H1889 H 0.36777 0.64174 0.17582 0.0
H1890 H 0.32542 0.66444 0.14864 0.0
C1891 C 0.28617 0.61497 0.19287 0.0
C1892 C 0.87853 1.00614 0.3223 0.0
C1893 C 0.90974 1.01896 0.33179 0.0
H1894 H 0.84298 0.96647 0.31921 0.0
C1895 C 0.92839 0.9985 0.34584 0.0
H1896 H 0.86288 1.0204 0.31141 0.0
C1897 C 0.91695 0.96756 0.35034 0.0
C1898 C 0.88593 0.95453 0.34115 0.0
H1899 H 0.95239 1.00649 0.3537 0.0
H1900 H 0.93289 0.95364 0.36138 0.0
C1901 C 0.86694 0.97476 0.32682 0.0
C1902 C 0.80542 0.11412 0.84855 0.0
C1903 C 0.78202 0.09839 0.82204 0.0
H1904 H 0.84203 0.15213 0.86345 0.0
C1905 C 0.77956 0.10696 0.78842 0.0
H1906 H 0.8077 0.10776 0.87468 0.0
C1907 C 0.7982 0.13301 0.78249 0.0
C1908 C 0.82046 0.15021 0.80954 0.0
H1909 H 0.76136 0.09549 0.76771 0.0
H1910 H 0.79326 0.14133 0.75776 0.0
C1911 C 0.82488 0.13956 0.84214 0.0
loop_
_geom_bond_atom_site_label_1
_geom_bond_atom_site_label_2
_geom_bond_distance
_geom_bond_site_symmetry_2
_ccdc_geom_bond_type
In0 O1 2.294 . S
In0 O2 2.326 . S
In0 O6 2.266 . S
In0 O7 2.326 . S
In0 O8 2.266 . S
In0 O9 2.326 . S
In0 O11 2.294 . S
In0 O12 2.326 . S
O1 In0 2.294 . S
O1 C10 1.240 . S
O2 In0 2.326 . S
O2 C10 1.252 . S
C3 O6 1.252 . S
C3 O7 1.260 . S
C4 O11 1.240 . S
C4 O12 1.252 . S
C5 O8 1.252 . S
C5 O9 1.260 . S
O6 In0 2.266 . S
O6 C3 1.252 . S
O7 In0 2.326 . S
O7 C3 1.260 . S
O8 In0 2.266 . S
O8 C5 1.252 . S
O9 In0 2.326 . S
O9 C5 1.260 . S
C10 O1 1.240 . S
C10 O2 1.252 . S
O11 In0 2.294 . S
O11 C4 1.240 . S
O12 In0 2.326 . S
O12 C4 1.252 . S
In13 O14 2.294 . S
In13 O15 2.326 . S
In13 O19 2.266 1_455 S
In13 O20 2.326 1_455 S
In13 O21 2.264 1_455 S
In13 O22 2.322 1_455 S
In13 O24 2.296 . S
In13 O25 2.330 . S
O14 In13 2.294 . S
O14 C23 1.240 . S
O15 In13 2.326 . S
O15 C23 1.252 . S
C16 O19 1.252 . S
C16 O20 1.260 . S
C17 O24 1.240 . S
C17 O25 1.252 . S
C18 O21 1.252 . S
C18 O22 1.260 . S
O19 In13 2.266 1_655 S
O19 C16 1.252 . S
O20 In13 2.326 1_655 S
O20 C16 1.260 . S
O21 In13 2.264 1_655 S
O21 C18 1.252 . S
O22 In13 2.322 1_655 S
O22 C18 1.260 . S
C23 O14 1.240 . S
C23 O15 1.252 . S
O24 In13 2.296 . S
O24 C17 1.240 . S
O25 In13 2.330 . S
O25 C17 1.252 . S
In26 O27 2.294 . S
In26 O28 2.326 1_556 S
In26 O32 2.266 . S
In26 O33 2.326 1_556 S
In26 O34 2.266 1_556 S
In26 O35 2.326 . S
In26 O37 2.294 1_556 S
In26 O38 2.326 . S
O27 In26 2.294 . S
O27 C36 1.240 . S
O28 In26 2.326 1_554 S
O28 C36 1.252 1_554 S
C29 O32 1.252 . S
C29 O33 1.260 1_556 S
C30 O37 1.240 . S
C30 O38 1.252 1_554 S
C31 O34 1.252 . S
C31 O35 1.260 1_554 S
O32 In26 2.266 . S
O32 C29 1.252 . S
O33 In26 2.326 1_554 S
O33 C29 1.260 1_554 S
O34 In26 2.266 1_554 S
O34 C31 1.252 . S
O35 In26 2.326 . S
O35 C31 1.260 1_556 S
C36 O27 1.240 . S
C36 O28 1.252 1_556 S
O37 In26 2.294 1_554 S
O37 C30 1.240 . S
O38 In26 2.326 . S
O38 C30 1.252 1_556 S
In39 O40 2.294 . S
In39 O41 2.326 . S
In39 O45 2.266 . S
In39 O46 2.326 . S
In39 O47 2.266 . S
In39 O48 2.326 . S
In39 O50 2.294 . S
In39 O51 2.326 . S
O40 In39 2.294 . S
O40 C49 1.240 . S
O41 In39 2.326 . S
O41 C49 1.252 . S
C42 O45 1.252 . S
C42 O46 1.260 . S
C43 O50 1.240 . S
C43 O51 1.252 . S
C44 O47 1.252 . S
C44 O48 1.260 . S
O45 In39 2.266 . S
O45 C42 1.252 . S
O46 In39 2.326 . S
O46 C42 1.260 . S
O47 In39 2.266 . S
O47 C44 1.252 . S
O48 In39 2.326 . S
O48 C44 1.260 . S
C49 O40 1.240 . S
C49 O41 1.252 . S
O50 In39 2.294 . S
O50 C43 1.240 . S
O51 In39 2.326 . S
O51 C43 1.252 . S
In52 O53 2.294 . S
In52 O54 2.326 . S
In52 O58 2.266 . S
In52 O59 2.326 . S
In52 O60 2.266 . S
In52 O61 2.326 . S
In52 O63 2.294 . S
In52 O64 2.326 1_455 S
O53 In52 2.294 . S
O53 C62 1.240 . S
O54 In52 2.326 . S
O54 C62 1.252 . S
C55 O58 1.252 . S
C55 O59 1.260 . S
C56 O63 1.240 1_655 S
C56 O64 1.252 . S
C57 O60 1.252 . S
C57 O61 1.260 . S
O58 In52 2.266 . S
O58 C55 1.252 . S
O59 In52 2.326 . S
O59 C55 1.260 . S
O60 In52 2.266 . S
O60 C57 1.252 . S
O61 In52 2.326 . S
O61 C57 1.260 . S
C62 O53 1.240 . S
C62 O54 1.252 . S
O63 In52 2.294 . S
O63 C56 1.240 1_455 S
O64 In52 2.326 1_655 S
O64 C56 1.252 . S
In65 O66 2.294 . S
In65 O67 2.326 . S
In65 O71 2.266 . S
In65 O72 2.326 . S
In65 O73 2.266 . S
In65 O74 2.326 . S
In65 O76 2.294 . S
In65 O77 2.326 . S
O66 In65 2.294 . S
O66 C75 1.240 . S
O67 In65 2.326 . S
O67 C75 1.252 . S
C68 O71 1.252 . S
C68 O72 1.260 . S
C69 O76 1.240 . S
C69 O77 1.252 . S
C70 O73 1.252 . S
C70 O74 1.260 . S
O71 In65 2.266 . S
O71 C68 1.252 . S
O72 In65 2.326 . S
O72 C68 1.260 . S
O73 In65 2.266 . S
O73 C70 1.252 . S
O74 In65 2.326 . S
O74 C70 1.260 . S
C75 O66 1.240 . S
C75 O67 1.252 . S
O76 In65 2.294 . S
O76 C69 1.240 . S
O77 In65 2.326 . S
O77 C69 1.252 . S
In78 O79 2.294 . S
In78 O80 2.326 . S
In78 O84 2.266 . S
In78 O85 2.326 . S
In78 O86 2.266 . S
In78 O87 2.326 . S
In78 O89 2.294 . S
In78 O90 2.326 . S
O79 In78 2.294 . S
O79 C88 1.240 . S
O80 In78 2.326 . S
O80 C88 1.252 . S
C81 O84 1.252 . S
C81 O85 1.260 . S
C82 O89 1.240 . S
C82 O90 1.252 . S
C83 O86 1.252 . S
C83 O87 1.260 . S
O84 In78 2.266 . S
O84 C81 1.252 . S
O85 In78 2.326 . S
O85 C81 1.260 . S
O86 In78 2.266 . S
O86 C83 1.252 . S
O87 In78 2.326 . S
O87 C83 1.260 . S
C88 O79 1.240 . S
C88 O80 1.252 . S
O89 In78 2.294 . S
O89 C82 1.240 . S
O90 In78 2.326 . S
O90 C82 1.252 . S
In91 O92 2.294 . S
In91 O93 2.326 . S
In91 O97 2.266 . S
In91 O98 2.326 . S
In91 O99 2.266 . S
In91 O100 2.326 . S
In91 O102 2.294 . S
In91 O103 2.326 . S
O92 In91 2.294 . S
O92 C101 1.240 . S
O93 In91 2.326 . S
O93 C101 1.252 . S
C94 O97 1.252 . S
C94 O98 1.260 . S
C95 O102 1.240 . S
C95 O103 1.252 . S
C96 O99 1.268 . S
C96 O100 1.262 . S
O97 In91 2.266 . S
O97 C94 1.252 . S
O98 In91 2.326 . S
O98 C94 1.260 . S
O99 In91 2.266 . S
O99 C96 1.268 . S
O100 In91 2.326 . S
O100 C96 1.262 . S
C101 O92 1.240 . S
C101 O93 1.252 . S
O102 In91 2.294 . S
O102 C95 1.240 . S
O103 In91 2.326 . S
O103 C95 1.252 . S
In104 O105 2.294 . S
In104 O106 2.326 . S
In104 O110 2.266 . S
In104 O111 2.326 . S
In104 O112 2.266 . S
In104 O113 2.326 . S
In104 O115 2.294 . S
In104 O116 2.326 . S
O105 In104 2.294 . S
O105 C114 1.240 . S
O106 In104 2.326 . S
O106 C114 1.252 . S
C107 O110 1.252 . S
C107 O111 1.260 . S
C108 O115 1.240 . S
C108 O116 1.252 . S
C109 O112 1.252 . S
C109 O113 1.260 . S
O110 In104 2.266 . S
O110 C107 1.252 . S
O111 In104 2.326 . S
O111 C107 1.260 . S
O112 In104 2.266 . S
O112 C109 1.252 . S
O113 In104 2.326 . S
O113 C109 1.260 . S
C114 O105 1.240 . S
C114 O106 1.252 . S
O115 In104 2.294 . S
O115 C108 1.240 . S
O116 In104 2.326 . S
O116 C108 1.252 . S
In117 O118 2.294 . S
In117 O119 2.326 . S
In117 O123 2.266 . S
In117 O124 2.326 . S
In117 O125 2.266 . S
In117 O126 2.326 . S
In117 O128 2.294 . S
In117 O129 2.326 . S
O118 In117 2.294 . S
O118 C127 1.240 . S
O119 In117 2.326 . S
O119 C127 1.252 . S
C120 O123 1.252 . S
C120 O124 1.260 . S
C121 O128 1.240 . S
C121 O129 1.252 . S
C122 O125 1.252 . S
C122 O126 1.260 . S
O123 In117 2.266 . S
O123 C120 1.252 . S
O124 In117 2.326 . S
O124 C120 1.260 . S
O125 In117 2.266 . S
O125 C122 1.252 . S
O126 In117 2.326 . S
O126 C122 1.260 . S
C127 O118 1.240 . S
C127 O119 1.252 . S
O128 In117 2.294 . S
O128 C121 1.240 . S
O129 In117 2.326 . S
O129 C121 1.252 . S
In130 O131 2.294 . S
In130 O132 2.326 . S
In130 O136 2.266 . S
In130 O137 2.326 . S
In130 O138 2.266 . S
In130 O139 2.326 . S
In130 O141 2.294 . S
In130 O142 2.322 . S
O131 In130 2.294 . S
O131 C140 1.240 . S
O132 In130 2.326 . S
O132 C140 1.252 . S
C133 O136 1.252 . S
C133 O137 1.260 . S
C134 O141 1.241 1_565 S
C134 O142 1.254 1_565 S
C135 O138 1.252 . S
C135 O139 1.260 . S
O136 In130 2.266 . S
O136 C133 1.252 . S
O137 In130 2.326 . S
O137 C133 1.260 . S
O138 In130 2.266 . S
O138 C135 1.252 . S
O139 In130 2.326 . S
O139 C135 1.260 . S
C140 O131 1.240 . S
C140 O132 1.252 . S
O141 In130 2.294 . S
O141 C134 1.241 1_545 S
O142 In130 2.322 . S
O142 C134 1.254 1_545 S
In143 O144 2.294 . S
In143 O145 2.326 . S
In143 O149 2.266 . S
In143 O150 2.326 . S
In143 O151 2.266 . S
In143 O152 2.326 . S
In143 O154 2.294 . S
In143 O155 2.326 . S
O144 In143 2.294 . S
O144 C153 1.240 . S
O145 In143 2.326 . S
O145 C153 1.252 . S
C146 O149 1.252 . S
C146 O150 1.260 . S
C147 O154 1.240 . S
C147 O155 1.252 . S
C148 O151 1.252 . S
C148 O152 1.260 . S
O149 In143 2.266 . S
O149 C146 1.252 . S
O150 In143 2.326 . S
O150 C146 1.260 . S
O151 In143 2.266 . S
O151 C148 1.252 . S
O152 In143 2.326 . S
O152 C148 1.260 . S
C153 O144 1.240 . S
C153 O145 1.252 . S
O154 In143 2.294 . S
O154 C147 1.240 . S
O155 In143 2.326 . S
O155 C147 1.252 . S
In156 O157 2.294 . S
In156 O158 2.326 . S
In156 O162 2.266 . S
In156 O163 2.326 . S
In156 O164 2.266 . S
In156 O165 2.326 . S
In156 O167 2.294 . S
In156 O168 2.326 . S
O157 In156 2.294 . S
O157 C166 1.240 . S
O158 In156 2.326 . S
O158 C166 1.252 . S
C159 O162 1.252 . S
C159 O163 1.260 . S
C160 O167 1.240 . S
C160 O168 1.252 . S
C161 O164 1.252 . S
C161 O165 1.260 . S
O162 In156 2.266 . S
O162 C159 1.252 . S
O163 In156 2.326 . S
O163 C159 1.260 . S
O164 In156 2.266 . S
O164 C161 1.252 . S
O165 In156 2.326 . S
O165 C161 1.260 . S
C166 O157 1.240 . S
C166 O158 1.252 . S
O167 In156 2.294 . S
O167 C160 1.240 . S
O168 In156 2.326 . S
O168 C160 1.252 . S
In169 O170 2.294 . S
In169 O171 2.326 . S
In169 O175 2.266 . S
In169 O176 2.326 . S
In169 O177 2.266 . S
In169 O178 2.326 . S
In169 O180 2.294 . S
In169 O181 2.326 . S
O170 In169 2.294 . S
O170 C179 1.240 . S
O171 In169 2.326 . S
O171 C179 1.252 . S
C172 O175 1.252 . S
C172 O176 1.260 . S
C173 O180 1.240 . S
C173 O181 1.252 . S
C174 O177 1.252 . S
C174 O178 1.260 . S
O175 In169 2.266 . S
O175 C172 1.252 . S
O176 In169 2.326 . S
O176 C172 1.260 . S
O177 In169 2.266 . S
O177 C174 1.252 . S
O178 In169 2.326 . S
O178 C174 1.260 . S
C179 O170 1.240 . S
C179 O171 1.252 . S
O180 In169 2.294 . S
O180 C173 1.240 . S
O181 In169 2.326 . S
O181 C173 1.252 . S
In182 O183 2.294 . S
In182 O184 2.326 . S
In182 O188 2.266 . S
In182 O189 2.326 . S
In182 O190 2.266 . S
In182 O191 2.326 . S
In182 O193 2.294 . S
In182 O194 2.326 . S
O183 In182 2.294 . S
O183 C192 1.240 . S
O184 In182 2.326 . S
O184 C192 1.252 . S
C185 O188 1.252 . S
C185 O189 1.260 . S
C186 O193 1.240 . S
C186 O194 1.252 . S
C187 O190 1.252 . S
C187 O191 1.260 . S
O188 In182 2.266 . S
O188 C185 1.252 . S
O189 In182 2.326 . S
O189 C185 1.260 . S
O190 In182 2.266 . S
O190 C187 1.252 . S
O191 In182 2.326 . S
O191 C187 1.260 . S
C192 O183 1.240 . S
C192 O184 1.252 . S
O193 In182 2.294 . S
O193 C186 1.240 . S
O194 In182 2.326 . S
O194 C186 1.252 . S
In195 O196 2.294 . S
In195 O197 2.326 1_565 S
In195 O201 2.266 . S
In195 O202 2.326 1_565 S
In195 O203 2.266 1_565 S
In195 O204 2.326 . S
In195 O206 2.294 1_565 S
In195 O207 2.326 . S
O196 In195 2.294 . S
O196 C205 1.240 . S
O197 In195 2.326 1_545 S
O197 C205 1.252 1_545 S
C198 O201 1.252 . S
C198 O202 1.260 1_565 S
C199 O206 1.240 . S
C199 O207 1.252 1_545 S
C200 O203 1.252 . S
C200 O204 1.260 1_545 S
O201 In195 2.266 . S
O201 C198 1.252 . S
O202 In195 2.326 1_545 S
O202 C198 1.260 1_545 S
O203 In195 2.266 1_545 S
O203 C200 1.252 . S
O204 In195 2.326 . S
O204 C200 1.260 1_565 S
C205 O196 1.240 . S
C205 O197 1.252 1_565 S
O206 In195 2.294 1_545 S
O206 C199 1.240 . S
O207 In195 2.326 . S
O207 C199 1.252 1_565 S
In208 O209 2.294 . S
In208 O210 2.326 . S
In208 O214 2.266 . S
In208 O215 2.326 . S
In208 O216 2.266 . S
In208 O217 2.326 . S
In208 O219 2.294 . S
In208 O220 2.326 . S
O209 In208 2.294 . S
O209 C218 1.240 . S
O210 In208 2.326 . S
O210 C218 1.252 . S
C211 O214 1.252 . S
C211 O215 1.260 . S
C212 O219 1.240 . S
C212 O220 1.252 . S
C213 O216 1.252 . S
C213 O217 1.260 . S
O214 In208 2.266 . S
O214 C211 1.252 . S
O215 In208 2.326 . S
O215 C211 1.260 . S
O216 In208 2.266 . S
O216 C213 1.252 . S
O217 In208 2.326 . S
O217 C213 1.260 . S
C218 O209 1.240 . S
C218 O210 1.252 . S
O219 In208 2.294 . S
O219 C212 1.240 . S
O220 In208 2.326 . S
O220 C212 1.252 . S
In221 O222 2.294 . S
In221 O223 2.326 . S
In221 O227 2.266 . S
In221 O228 2.326 . S
In221 O229 2.266 . S
In221 O230 2.326 . S
In221 O232 2.294 . S
In221 O233 2.326 . S
O222 In221 2.294 . S
O222 C231 1.240 . S
O223 In221 2.326 . S
O223 C231 1.252 . S
C224 O227 1.252 . S
C224 O228 1.260 . S
C225 O232 1.240 . S
C225 O233 1.252 . S
C226 O229 1.252 . S
C226 O230 1.260 . S
O227 In221 2.266 . S
O227 C224 1.252 . S
O228 In221 2.326 . S
O228 C224 1.260 . S
O229 In221 2.266 . S
O229 C226 1.252 . S
O230 In221 2.326 . S
O230 C226 1.260 . S
C231 O222 1.240 . S
C231 O223 1.252 . S
O232 In221 2.294 . S
O232 C225 1.240 . S
O233 In221 2.326 . S
O233 C225 1.252 . S
In234 O235 2.294 . S
In234 O236 2.326 . S
In234 O240 2.266 . S
In234 O241 2.326 . S
In234 O242 2.266 . S
In234 O243 2.326 . S
In234 O245 2.294 . S
In234 O246 2.326 . S
O235 In234 2.294 . S
O235 C244 1.240 . S
O236 In234 2.326 . S
O236 C244 1.252 . S
C237 O240 1.252 . S
C237 O241 1.260 . S
C238 O245 1.240 . S
C238 O246 1.252 . S
C239 O242 1.252 . S
C239 O243 1.260 . S
O240 In234 2.266 . S
O240 C237 1.252 . S
O241 In234 2.326 . S
O241 C237 1.260 . S
O242 In234 2.266 . S
O242 C239 1.252 . S
O243 In234 2.326 . S
O243 C239 1.260 . S
C244 O235 1.240 . S
C244 O236 1.252 . S
O245 In234 2.294 . S
O245 C238 1.240 . S
O246 In234 2.326 . S
O246 C238 1.252 . S
In247 O248 2.296 1_545 S
In247 O249 2.330 1_545 S
In247 O253 2.264 . S
In247 O254 2.322 . S
In247 O255 2.266 . S
In247 O256 2.326 . S
In247 O258 2.294 1_545 S
In247 O259 2.326 1_545 S
O248 In247 2.296 1_565 S
O248 C257 1.240 . S
O249 In247 2.330 1_565 S
O249 C257 1.252 . S
C250 O253 1.252 . S
C250 O254 1.260 . S
C251 O258 1.240 . S
C251 O259 1.252 . S
C252 O255 1.252 . S
C252 O256 1.260 . S
O253 In247 2.264 . S
O253 C250 1.252 . S
O254 In247 2.322 . S
O254 C250 1.260 . S
O255 In247 2.266 . S
O255 C252 1.252 . S
O256 In247 2.326 . S
O256 C252 1.260 . S
C257 O248 1.240 . S
C257 O249 1.252 . S
O258 In247 2.294 1_565 S
O258 C251 1.240 . S
O259 In247 2.326 1_565 S
O259 C251 1.252 . S
In260 O261 2.294 . S
In260 O262 2.326 . S
In260 O266 2.266 1_554 S
In260 O267 2.326 1_554 S
In260 O268 2.264 1_554 S
In260 O269 2.322 1_554 S
In260 O271 2.296 . S
In260 O272 2.330 . S
O261 In260 2.294 . S
O261 C270 1.240 . S
O262 In260 2.326 . S
O262 C270 1.252 . S
C263 O266 1.252 . S
C263 O267 1.260 . S
C264 O271 1.240 . S
C264 O272 1.252 . S
C265 O268 1.252 . S
C265 O269 1.260 . S
O266 In260 2.266 1_556 S
O266 C263 1.252 . S
O267 In260 2.326 1_556 S
O267 C263 1.260 . S
O268 In260 2.264 1_556 S
O268 C265 1.252 . S
O269 In260 2.322 1_556 S
O269 C265 1.260 . S
C270 O261 1.240 . S
C270 O262 1.252 . S
O271 In260 2.296 . S
O271 C264 1.240 . S
O272 In260 2.330 . S
O272 C264 1.252 . S
In273 O274 2.294 . S
In273 O275 2.326 . S
In273 O279 2.266 . S
In273 O280 2.326 . S
In273 O281 2.266 . S
In273 O282 2.326 . S
In273 O284 2.294 . S
In273 O285 2.326 . S
O274 In273 2.294 . S
O274 C283 1.240 . S
O275 In273 2.326 . S
O275 C283 1.252 . S
C276 O279 1.252 . S
C276 O280 1.260 . S
C277 O284 1.240 . S
C277 O285 1.252 . S
C278 O281 1.252 . S
C278 O282 1.260 . S
O279 In273 2.266 . S
O279 C276 1.252 . S
O280 In273 2.326 . S
O280 C276 1.260 . S
O281 In273 2.266 . S
O281 C278 1.252 . S
O282 In273 2.326 . S
O282 C278 1.260 . S
C283 O274 1.240 . S
C283 O275 1.252 . S
O284 In273 2.294 . S
O284 C277 1.240 . S
O285 In273 2.326 . S
O285 C277 1.252 . S
In286 O287 2.294 . S
In286 O288 2.326 . S
In286 O292 2.266 . S
In286 O293 2.326 . S
In286 O294 2.266 . S
In286 O295 2.326 . S
In286 O297 2.294 . S
In286 O298 2.326 . S
O287 In286 2.294 . S
O287 C296 1.240 . S
O288 In286 2.326 . S
O288 C296 1.252 . S
C289 O292 1.252 . S
C289 O293 1.260 . S
C290 O297 1.240 . S
C290 O298 1.252 . S
C291 O294 1.252 . S
C291 O295 1.260 . S
O292 In286 2.266 . S
O292 C289 1.252 . S
O293 In286 2.326 . S
O293 C289 1.260 . S
O294 In286 2.266 . S
O294 C291 1.252 . S
O295 In286 2.326 . S
O295 C291 1.260 . S
C296 O287 1.240 . S
C296 O288 1.252 . S
O297 In286 2.294 . S
O297 C290 1.240 . S
O298 In286 2.326 . S
O298 C290 1.252 . S
In299 O300 2.294 . S
In299 O301 2.326 . S
In299 O305 2.266 . S
In299 O306 2.326 . S
In299 O307 2.266 . S
In299 O308 2.326 . S
In299 O310 2.294 . S
In299 O311 2.326 . S
O300 In299 2.294 . S
O300 C309 1.240 . S
O301 In299 2.326 . S
O301 C309 1.252 . S
C302 O305 1.252 . S
C302 O306 1.260 . S
C303 O310 1.240 . S
C303 O311 1.252 . S
C304 O307 1.252 . S
C304 O308 1.260 . S
O305 In299 2.266 . S
O305 C302 1.252 . S
O306 In299 2.326 . S
O306 C302 1.260 . S
O307 In299 2.266 . S
O307 C304 1.252 . S
O308 In299 2.326 . S
O308 C304 1.260 . S
C309 O300 1.240 . S
C309 O301 1.252 . S
O310 In299 2.294 . S
O310 C303 1.240 . S
O311 In299 2.326 . S
O311 C303 1.252 . S
Nd312 C314 2.836 . S
Nd312 O332 2.500 . S
Nd312 O333 2.492 . S
Nd312 O334 2.487 . S
Nd312 O335 2.682 . S
Nd312 O336 2.410 . S
Nd312 O341 2.414 . S
Nd312 O343 2.424 . S
Nd313 C323 2.836 1_545 S
Nd313 O335 2.414 . S
Nd313 O337 2.424 . S
Nd313 O338 2.500 . S
Nd313 O339 2.492 . S
Nd313 O340 2.487 . S
Nd313 O341 2.682 . S
Nd313 O342 2.410 . S
C314 Nd312 2.836 . S
C314 C315 1.498 . S
C314 O332 1.258 . S
C314 O333 1.239 . S
C315 C314 1.498 . S
C315 C316 1.366 . S
C315 C320 1.407 . S
C316 C315 1.366 . S
C316 C317 1.392 . S
C316 H344 0.930 . S
C317 C316 1.392 . S
C317 C318 1.398 . S
C317 H345 0.929 . S
C318 C317 1.398 . S
C318 C319 1.352 . S
C319 C318 1.352 . S
C319 C320 1.384 . S
C319 H346 0.930 . S
C320 C315 1.407 . S
C320 C319 1.384 . S
C320 H347 0.929 . S
C321 O334 1.241 . S
C321 O335 1.273 . S
C322 O336 1.251 . S
C322 O337 1.268 . S
C323 Nd313 2.836 1_565 S
C323 C324 1.498 . S
C323 O338 1.258 1_565 S
C323 O339 1.239 1_565 S
C324 C323 1.498 . S
C324 C325 1.366 . S
C324 C329 1.407 . S
C325 C324 1.366 . S
C325 C326 1.392 . S
C325 H348 0.930 . S
C326 C325 1.392 . S
C326 C327 1.398 . S
C326 H349 0.929 . S
C327 C326 1.398 . S
C327 C328 1.352 . S
C328 C327 1.352 . S
C328 C329 1.384 . S
C328 H350 0.930 . S
C329 C324 1.407 . S
C329 C328 1.384 . S
C329 H351 0.929 . S
C330 O340 1.241 . S
C330 O341 1.273 . S
C331 O342 1.251 . S
C331 O343 1.268 . S
O332 Nd312 2.500 . S
O332 C314 1.258 . S
O333 Nd312 2.492 . S
O333 C314 1.239 . S
O334 Nd312 2.487 . S
O334 C321 1.241 . S
O335 Nd312 2.682 . S
O335 Nd313 2.414 . S
O335 C321 1.273 . S
O336 Nd312 2.410 . S
O336 C322 1.251 . S
O337 Nd313 2.424 . S
O337 C322 1.268 . S
O338 Nd313 2.500 . S
O338 C323 1.258 1_545 S
O339 Nd313 2.492 . S
O339 C323 1.239 1_545 S
O340 Nd313 2.487 . S
O340 C330 1.241 . S
O341 Nd312 2.414 . S
O341 Nd313 2.682 . S
O341 C330 1.273 . S
O342 Nd313 2.410 . S
O342 C331 1.251 . S
O343 Nd312 2.424 . S
O343 C331 1.268 . S
H344 C316 0.930 . S
H345 C317 0.929 . S
H346 C319 0.930 . S
H347 C320 0.929 . S
H348 C325 0.930 . S
H349 C326 0.929 . S
H350 C328 0.930 . S
H351 C329 0.929 . S
Nd352 C354 2.836 . S
Nd352 O372 2.500 . S
Nd352 O373 2.492 . S
Nd352 O374 2.487 . S
Nd352 O375 2.682 . S
Nd352 O376 2.410 . S
Nd352 O381 2.414 . S
Nd352 O383 2.424 . S
Nd353 C363 2.836 . S
Nd353 O375 2.414 . S
Nd353 O377 2.424 . S
Nd353 O378 2.500 . S
Nd353 O379 2.492 . S
Nd353 O380 2.487 . S
Nd353 O381 2.682 . S
Nd353 O382 2.410 . S
C354 Nd352 2.836 . S
C354 C355 1.498 . S
C354 O372 1.258 . S
C354 O373 1.239 . S
C355 C354 1.498 . S
C355 C356 1.366 . S
C355 C360 1.407 . S
C356 C355 1.366 . S
C356 C357 1.392 . S
C356 H384 0.930 . S
C357 C356 1.392 . S
C357 C358 1.398 1_565 S
C357 H385 0.929 1_565 S
C358 C357 1.398 1_545 S
C358 C359 1.352 . S
C359 C358 1.352 . S
C359 C360 1.384 1_545 S
C359 H386 0.930 . S
C360 C355 1.407 . S
C360 C359 1.384 1_565 S
C360 H387 0.929 . S
C361 O374 1.241 . S
C361 O375 1.273 . S
C362 O376 1.251 . S
C362 O377 1.268 . S
C363 Nd353 2.836 . S
C363 C364 1.498 . S
C363 O378 1.258 . S
C363 O379 1.239 . S
C364 C363 1.498 . S
C364 C365 1.366 . S
C364 C369 1.407 . S
C365 C364 1.366 . S
C365 C366 1.392 . S
C365 H388 0.930 . S
C366 C365 1.392 . S
C366 C367 1.398 . S
C366 H389 0.929 . S
C367 C366 1.398 . S
C367 C368 1.352 . S
C368 C367 1.352 . S
C368 C369 1.384 . S
C368 H390 0.930 . S
C369 C364 1.407 . S
C369 C368 1.384 . S
C369 H391 0.929 . S
C370 O380 1.241 . S
C370 O381 1.273 . S
C371 O382 1.251 . S
C371 O383 1.268 . S
O372 Nd352 2.500 . S
O372 C354 1.258 . S
O373 Nd352 2.492 . S
O373 C354 1.239 . S
O374 Nd352 2.487 . S
O374 C361 1.241 . S
O375 Nd352 2.682 . S
O375 Nd353 2.414 . S
O375 C361 1.273 . S
O376 Nd352 2.410 . S
O376 C362 1.251 . S
O377 Nd353 2.424 . S
O377 C362 1.268 . S
O378 Nd353 2.500 . S
O378 C363 1.258 . S
O379 Nd353 2.492 . S
O379 C363 1.239 . S
O380 Nd353 2.487 . S
O380 C370 1.241 . S
O381 Nd352 2.414 . S
O381 Nd353 2.682 . S
O381 C370 1.273 . S
O382 Nd353 2.410 . S
O382 C371 1.251 . S
O383 Nd352 2.424 . S
O383 C371 1.268 . S
H384 C356 0.930 . S
H385 C357 0.929 1_545 S
H386 C359 0.930 . S
H387 C360 0.929 . S
H388 C365 0.930 . S
H389 C366 0.929 . S
H390 C368 0.930 . S
H391 C369 0.929 . S
Nd392 C394 2.836 . S
Nd392 O412 2.500 . S
Nd392 O413 2.492 . S
Nd392 O414 2.487 . S
Nd392 O415 2.682 . S
Nd392 O416 2.410 . S
Nd392 O421 2.414 . S
Nd392 O423 2.424 . S
Nd393 C403 2.836 . S
Nd393 O415 2.414 . S
Nd393 O417 2.424 . S
Nd393 O418 2.500 . S
Nd393 O419 2.492 . S
Nd393 O420 2.487 . S
Nd393 O421 2.682 . S
Nd393 O422 2.410 . S
C394 Nd392 2.836 . S
C394 C395 1.498 . S
C394 O412 1.258 . S
C394 O413 1.239 . S
C395 C394 1.498 . S
C395 C396 1.366 . S
C395 C400 1.407 . S
C396 C395 1.366 . S
C396 C397 1.392 . S
C396 H424 0.930 . S
C397 C396 1.392 . S
C397 C398 1.398 . S
C397 H425 0.929 . S
C398 C397 1.398 . S
C398 C399 1.352 . S
C399 C398 1.352 . S
C399 C400 1.384 . S
C399 H426 0.930 . S
C400 C395 1.407 . S
C400 C399 1.384 . S
C400 H427 0.929 . S
C401 O414 1.241 . S
C401 O415 1.273 . S
C402 O416 1.251 . S
C402 O417 1.268 . S
C403 Nd393 2.836 . S
C403 C404 1.498 . S
C403 O418 1.258 . S
C403 O419 1.239 . S
C404 C403 1.498 . S
C404 C405 1.366 . S
C404 C409 1.407 . S
C405 C404 1.366 . S
C405 C406 1.392 . S
C405 H428 0.930 . S
C406 C405 1.392 . S
C406 C407 1.398 . S
C406 H429 0.929 . S
C407 C406 1.398 . S
C407 C408 1.352 . S
C408 C407 1.352 . S
C408 C409 1.384 . S
C408 H430 0.930 . S
C409 C404 1.407 . S
C409 C408 1.384 . S
C409 H431 0.929 . S
C410 O420 1.241 . S
C410 O421 1.273 . S
C411 O422 1.251 . S
C411 O423 1.268 . S
O412 Nd392 2.500 . S
O412 C394 1.258 . S
O413 Nd392 2.492 . S
O413 C394 1.239 . S
O414 Nd392 2.487 . S
O414 C401 1.241 . S
O415 Nd392 2.682 . S
O415 Nd393 2.414 . S
O415 C401 1.273 . S
O416 Nd392 2.410 . S
O416 C402 1.251 . S
O417 Nd393 2.424 . S
O417 C402 1.268 . S
O418 Nd393 2.500 . S
O418 C403 1.258 . S
O419 Nd393 2.492 . S
O419 C403 1.239 . S
O420 Nd393 2.487 . S
O420 C410 1.241 . S
O421 Nd392 2.414 . S
O421 Nd393 2.682 . S
O421 C410 1.273 . S
O422 Nd393 2.410 . S
O422 C411 1.251 . S
O423 Nd392 2.424 . S
O423 C411 1.268 . S
H424 C396 0.930 . S
H425 C397 0.929 . S
H426 C399 0.930 . S
H427 C400 0.929 . S
H428 C405 0.930 . S
H429 C406 0.929 . S
H430 C408 0.930 . S
H431 C409 0.929 . S
Nd432 C434 2.836 . S
Nd432 O452 2.500 . S
Nd432 O453 2.492 . S
Nd432 O454 2.487 . S
Nd432 O455 2.682 . S
Nd432 O456 2.410 . S
Nd432 O461 2.414 . S
Nd432 O463 2.424 . S
Nd433 C443 2.836 . S
Nd433 O455 2.414 . S
Nd433 O457 2.424 . S
Nd433 O458 2.500 . S
Nd433 O459 2.492 . S
Nd433 O460 2.487 . S
Nd433 O461 2.682 . S
Nd433 O462 2.410 . S
C434 Nd432 2.836 . S
C434 C435 1.498 . S
C434 O452 1.258 . S
C434 O453 1.239 . S
C435 C434 1.498 . S
C435 C436 1.366 . S
C435 C440 1.406 1_556 S
C436 C435 1.366 . S
C436 C437 1.392 1_556 S
C436 H464 0.930 . S
C437 C436 1.392 1_554 S
C437 C438 1.398 . S
C437 H465 0.929 . S
C438 C437 1.398 . S
C438 C439 1.352 . S
C439 C438 1.352 . S
C439 C440 1.389 . S
C439 H466 0.930 . S
C440 C435 1.406 1_554 S
C440 C439 1.389 . S
C440 H467 0.925 1_554 S
C441 O454 1.241 . S
C441 O455 1.273 . S
C442 O456 1.251 . S
C442 O457 1.268 . S
C443 Nd433 2.836 . S
C443 C444 1.498 . S
C443 O458 1.258 . S
C443 O459 1.239 . S
C444 C443 1.498 . S
C444 C445 1.366 . S
C444 C449 1.407 . S
C445 C444 1.366 . S
C445 C446 1.392 . S
C445 H468 0.930 . S
C446 C445 1.392 . S
C446 C447 1.398 . S
C446 H469 0.929 . S
C447 C446 1.398 . S
C447 C448 1.352 . S
C448 C447 1.352 . S
C448 C449 1.384 . S
C448 H470 0.930 . S
C449 C444 1.407 . S
C449 C448 1.384 . S
C449 H471 0.929 . S
C450 O460 1.241 . S
C450 O461 1.273 . S
C451 O462 1.251 . S
C451 O463 1.268 . S
O452 Nd432 2.500 . S
O452 C434 1.258 . S
O453 Nd432 2.492 . S
O453 C434 1.239 . S
O454 Nd432 2.487 . S
O454 C441 1.241 . S
O455 Nd432 2.682 . S
O455 Nd433 2.414 . S
O455 C441 1.273 . S
O456 Nd432 2.410 . S
O456 C442 1.251 . S
O457 Nd433 2.424 . S
O457 C442 1.268 . S
O458 Nd433 2.500 . S
O458 C443 1.258 . S
O459 Nd433 2.492 . S
O459 C443 1.239 . S
O460 Nd433 2.487 . S
O460 C450 1.241 . S
O461 Nd432 2.414 . S
O461 Nd433 2.682 . S
O461 C450 1.273 . S
O462 Nd433 2.410 . S
O462 C451 1.251 . S
O463 Nd432 2.424 . S
O463 C451 1.268 . S
H464 C436 0.930 . S
H465 C437 0.929 . S
H466 C439 0.930 . S
H467 C440 0.925 1_556 S
H468 C445 0.930 . S
H469 C446 0.929 . S
H470 C448 0.930 . S
H471 C449 0.929 . S
Nd472 C474 2.836 . S
Nd472 O492 2.500 . S
Nd472 O493 2.492 . S
Nd472 O494 2.487 . S
Nd472 O495 2.682 . S
Nd472 O496 2.410 . S
Nd472 O501 2.414 . S
Nd472 O503 2.424 . S
Nd473 C483 2.836 1_545 S
Nd473 O495 2.414 . S
Nd473 O497 2.424 . S
Nd473 O498 2.500 1_545 S
Nd473 O499 2.492 1_545 S
Nd473 O500 2.449 1_455 S
Nd473 O501 2.682 . S
Nd473 O502 2.410 . S
C474 Nd472 2.836 . S
C474 C475 1.498 . S
C474 O492 1.258 . S
C474 O493 1.239 . S
C475 C474 1.498 . S
C475 C476 1.366 . S
C475 C480 1.407 . S
C476 C475 1.366 . S
C476 C477 1.392 . S
C476 H504 0.930 . S
C477 C476 1.392 . S
C477 C478 1.398 . S
C477 H505 0.929 1_455 S
C478 C477 1.398 . S
C478 C479 1.352 . S
C479 C478 1.352 . S
C479 C480 1.384 . S
C479 H506 0.930 . S
C480 C475 1.407 . S
C480 C479 1.384 . S
C480 H507 0.929 . S
C481 O494 1.241 . S
C481 O495 1.273 . S
C482 O496 1.251 . S
C482 O497 1.268 . S
C483 Nd473 2.836 1_565 S
C483 C484 1.498 . S
C483 O498 1.258 . S
C483 O499 1.239 . S
C484 C483 1.498 . S
C484 C485 1.366 . S
C484 C489 1.407 . S
C485 C484 1.366 . S
C485 C486 1.392 . S
C485 H508 0.930 . S
C486 C485 1.392 . S
C486 C487 1.398 . S
C486 H509 0.929 . S
C487 C486 1.398 . S
C487 C488 1.352 . S
C488 C487 1.352 . S
C488 C489 1.384 . S
C488 H510 0.930 . S
C489 C484 1.407 . S
C489 C488 1.384 . S
C489 H511 0.929 . S
C490 O500 1.245 1_455 S
C490 O501 1.273 . S
C491 O502 1.251 . S
C491 O503 1.268 . S
O492 Nd472 2.500 . S
O492 C474 1.258 . S
O493 Nd472 2.492 . S
O493 C474 1.239 . S
O494 Nd472 2.487 . S
O494 C481 1.241 . S
O495 Nd472 2.682 . S
O495 Nd473 2.414 . S
O495 C481 1.273 . S
O496 Nd472 2.410 . S
O496 C482 1.251 . S
O497 Nd473 2.424 . S
O497 C482 1.268 . S
O498 Nd473 2.500 1_565 S
O498 C483 1.258 . S
O499 Nd473 2.492 1_565 S
O499 C483 1.239 . S
O500 Nd473 2.449 1_655 S
O500 C490 1.245 1_655 S
O501 Nd472 2.414 . S
O501 Nd473 2.682 . S
O501 C490 1.273 . S
O502 Nd473 2.410 . S
O502 C491 1.251 . S
O503 Nd472 2.424 . S
O503 C491 1.268 . S
H504 C476 0.930 . S
H505 C477 0.929 1_655 S
H506 C479 0.930 . S
H507 C480 0.929 . S
H508 C485 0.930 . S
H509 C486 0.929 . S
H510 C488 0.930 . S
H511 C489 0.929 . S
Nd512 C514 2.836 . S
Nd512 O532 2.500 . S
Nd512 O533 2.492 . S
Nd512 O534 2.487 . S
Nd512 O535 2.682 . S
Nd512 O536 2.410 . S
Nd512 O541 2.414 . S
Nd512 O543 2.424 . S
Nd513 C523 2.836 . S
Nd513 O535 2.414 . S
Nd513 O537 2.424 . S
Nd513 O538 2.500 . S
Nd513 O539 2.492 . S
Nd513 O540 2.487 . S
Nd513 O541 2.682 . S
Nd513 O542 2.410 . S
C514 Nd512 2.836 . S
C514 C515 1.498 . S
C514 O532 1.258 . S
C514 O533 1.239 . S
C515 C514 1.498 . S
C515 C516 1.366 . S
C515 C520 1.407 . S
C516 C515 1.366 . S
C516 C517 1.392 . S
C516 H544 0.930 . S
C517 C516 1.392 . S
C517 C518 1.398 . S
C517 H545 0.929 . S
C518 C517 1.398 . S
C518 C519 1.352 . S
C519 C518 1.352 . S
C519 C520 1.384 . S
C519 H546 0.930 . S
C520 C515 1.407 . S
C520 C519 1.384 . S
C520 H547 0.929 . S
C521 O534 1.241 . S
C521 O535 1.273 . S
C522 O536 1.251 . S
C522 O537 1.268 . S
C523 Nd513 2.836 . S
C523 C524 1.498 . S
C523 O538 1.258 . S
C523 O539 1.239 . S
C524 C523 1.498 . S
C524 C525 1.366 . S
C524 C529 1.407 . S
C525 C524 1.366 . S
C525 C526 1.392 . S
C525 H548 0.930 . S
C526 C525 1.392 . S
C526 C527 1.398 . S
C526 H549 0.929 . S
C527 C526 1.398 . S
C527 C528 1.352 . S
C528 C527 1.352 . S
C528 C529 1.384 . S
C528 H550 0.930 . S
C529 C524 1.407 . S
C529 C528 1.384 . S
C529 H551 0.929 . S
C530 O540 1.241 . S
C530 O541 1.273 . S
C531 O542 1.251 . S
C531 O543 1.268 . S
O532 Nd512 2.500 . S
O532 C514 1.258 . S
O533 Nd512 2.492 . S
O533 C514 1.239 . S
O534 Nd512 2.487 . S
O534 C521 1.241 . S
O535 Nd512 2.682 . S
O535 Nd513 2.414 . S
O535 C521 1.273 . S
O536 Nd512 2.410 . S
O536 C522 1.251 . S
O537 Nd513 2.424 . S
O537 C522 1.268 . S
O538 Nd513 2.500 . S
O538 C523 1.258 . S
O539 Nd513 2.492 . S
O539 C523 1.239 . S
O540 Nd513 2.487 . S
O540 C530 1.241 . S
O541 Nd512 2.414 . S
O541 Nd513 2.682 . S
O541 C530 1.273 . S
O542 Nd513 2.410 . S
O542 C531 1.251 . S
O543 Nd512 2.424 . S
O543 C531 1.268 . S
H544 C516 0.930 . S
H545 C517 0.929 . S
H546 C519 0.930 . S
H547 C520 0.929 . S
H548 C525 0.930 . S
H549 C526 0.929 . S
H550 C528 0.930 . S
H551 C529 0.929 . S
Nd552 C554 2.836 . S
Nd552 O572 2.500 . S
Nd552 O573 2.492 . S
Nd552 O574 2.487 . S
Nd552 O575 2.682 . S
Nd552 O576 2.410 . S
Nd552 O581 2.414 . S
Nd552 O583 2.424 1_554 S
Nd553 C563 2.836 . S
Nd553 O575 2.414 . S
Nd553 O577 2.424 . S
Nd553 O578 2.500 . S
Nd553 O579 2.492 . S
Nd553 O580 2.487 . S
Nd553 O581 2.682 . S
Nd553 O582 2.410 . S
C554 Nd552 2.836 . S
C554 C555 1.498 . S
C554 O572 1.258 . S
C554 O573 1.239 . S
C555 C554 1.498 . S
C555 C556 1.366 . S
C555 C560 1.407 . S
C556 C555 1.366 . S
C556 C557 1.392 . S
C556 H584 0.930 . S
C557 C556 1.392 . S
C557 C558 1.398 . S
C557 H585 0.929 . S
C558 C557 1.398 . S
C558 C559 1.352 1_545 S
C559 C558 1.352 1_565 S
C559 C560 1.384 1_565 S
C559 H586 0.930 . S
C560 C555 1.407 . S
C560 C559 1.384 1_545 S
C560 H587 0.929 1_545 S
C561 O574 1.241 . S
C561 O575 1.273 . S
C562 O576 1.251 . S
C562 O577 1.268 . S
C563 Nd553 2.836 . S
C563 C564 1.498 . S
C563 O578 1.258 . S
C563 O579 1.239 . S
C564 C563 1.498 . S
C564 C565 1.366 . S
C564 C569 1.407 . S
C565 C564 1.366 . S
C565 C566 1.392 . S
C565 H588 0.930 . S
C566 C565 1.392 . S
C566 C567 1.398 . S
C566 H589 0.929 . S
C567 C566 1.398 . S
C567 C568 1.352 . S
C568 C567 1.352 . S
C568 C569 1.384 . S
C568 H590 0.930 . S
C569 C564 1.407 . S
C569 C568 1.384 . S
C569 H591 0.929 . S
C570 O580 1.241 . S
C570 O581 1.273 . S
C571 O582 1.251 1_556 S
C571 O583 1.268 . S
O572 Nd552 2.500 . S
O572 C554 1.258 . S
O573 Nd552 2.492 . S
O573 C554 1.239 . S
O574 Nd552 2.487 . S
O574 C561 1.241 . S
O575 Nd552 2.682 . S
O575 Nd553 2.414 . S
O575 C561 1.273 . S
O576 Nd552 2.410 . S
O576 C562 1.251 . S
O577 Nd553 2.424 . S
O577 C562 1.268 . S
O578 Nd553 2.500 . S
O578 C563 1.258 . S
O579 Nd553 2.492 . S
O579 C563 1.239 . S
O580 Nd553 2.487 . S
O580 C570 1.241 . S
O581 Nd552 2.414 . S
O581 Nd553 2.682 . S
O581 C570 1.273 . S
O582 Nd553 2.410 . S
O582 C571 1.251 1_554 S
O583 Nd552 2.424 1_556 S
O583 C571 1.268 . S
H584 C556 0.930 . S
H585 C557 0.929 . S
H586 C559 0.930 . S
H587 C560 0.929 1_565 S
H588 C565 0.930 . S
H589 C566 0.929 . S
H590 C568 0.930 . S
H591 C569 0.929 . S
Nd592 C594 2.836 . S
Nd592 O612 2.500 . S
Nd592 O613 2.492 . S
Nd592 O614 2.487 . S
Nd592 O615 2.682 . S
Nd592 O616 2.410 . S
Nd592 O621 2.414 . S
Nd592 O623 2.424 . S
Nd593 C603 2.836 . S
Nd593 O615 2.414 . S
Nd593 O617 2.424 . S
Nd593 O618 2.500 . S
Nd593 O619 2.492 . S
Nd593 O620 2.487 . S
Nd593 O621 2.682 . S
Nd593 O622 2.410 . S
C594 Nd592 2.836 . S
C594 C595 1.498 . S
C594 O612 1.258 . S
C594 O613 1.239 . S
C595 C594 1.498 . S
C595 C596 1.366 . S
C595 C600 1.407 . S
C596 C595 1.366 . S
C596 C597 1.392 . S
C596 H624 0.930 . S
C597 C596 1.392 . S
C597 C598 1.398 . S
C597 H625 0.929 . S
C598 C597 1.398 . S
C598 C599 1.352 . S
C599 C598 1.352 . S
C599 C600 1.384 . S
C599 H626 0.930 . S
C600 C595 1.407 . S
C600 C599 1.384 . S
C600 H627 0.929 . S
C601 O614 1.241 . S
C601 O615 1.273 . S
C602 O616 1.251 . S
C602 O617 1.268 . S
C603 Nd593 2.836 . S
C603 C604 1.498 . S
C603 O618 1.258 . S
C603 O619 1.239 . S
C604 C603 1.498 . S
C604 C605 1.366 . S
C604 C609 1.407 . S
C605 C604 1.366 . S
C605 C606 1.392 . S
C605 H628 0.930 . S
C606 C605 1.392 . S
C606 C607 1.398 . S
C606 H629 0.929 . S
C607 C606 1.398 . S
C607 C608 1.352 . S
C608 C607 1.352 . S
C608 C609 1.384 . S
C608 H630 0.930 . S
C609 C604 1.407 . S
C609 C608 1.384 . S
C609 H631 0.929 . S
C610 O620 1.241 . S
C610 O621 1.273 . S
C611 O622 1.251 . S
C611 O623 1.268 . S
O612 Nd592 2.500 . S
O612 C594 1.258 . S
O613 Nd592 2.492 . S
O613 C594 1.239 . S
O614 Nd592 2.487 . S
O614 C601 1.241 . S
O615 Nd592 2.682 . S
O615 Nd593 2.414 . S
O615 C601 1.273 . S
O616 Nd592 2.410 . S
O616 C602 1.251 . S
O617 Nd593 2.424 . S
O617 C602 1.268 . S
O618 Nd593 2.500 . S
O618 C603 1.258 . S
O619 Nd593 2.492 . S
O619 C603 1.239 . S
O620 Nd593 2.487 . S
O620 C610 1.241 . S
O621 Nd592 2.414 . S
O621 Nd593 2.682 . S
O621 C610 1.273 . S
O622 Nd593 2.410 . S
O622 C611 1.251 . S
O623 Nd592 2.424 . S
O623 C611 1.268 . S
H624 C596 0.930 . S
H625 C597 0.929 . S
H626 C599 0.930 . S
H627 C600 0.929 . S
H628 C605 0.930 . S
H629 C606 0.929 . S
H630 C608 0.930 . S
H631 C609 0.929 . S
Nd632 C634 2.836 . S
Nd632 O652 2.500 . S
Nd632 O653 2.492 . S
Nd632 O654 2.487 . S
Nd632 O655 2.682 . S
Nd632 O656 2.410 . S
Nd632 O661 2.414 . S
Nd632 O663 2.424 . S
Nd633 C643 2.836 . S
Nd633 O655 2.414 . S
Nd633 O657 2.424 . S
Nd633 O658 2.500 . S
Nd633 O659 2.492 . S
Nd633 O660 2.487 . S
Nd633 O661 2.682 . S
Nd633 O662 2.410 . S
C634 Nd632 2.836 . S
C634 C635 1.498 . S
C634 O652 1.258 . S
C634 O653 1.239 . S
C635 C634 1.498 . S
C635 C636 1.366 . S
C635 C640 1.407 . S
C636 C635 1.366 . S
C636 C637 1.392 . S
C636 H664 0.930 . S
C637 C636 1.392 . S
C637 C638 1.398 . S
C637 H665 0.929 . S
C638 C637 1.398 . S
C638 C639 1.352 . S
C639 C638 1.352 . S
C639 C640 1.384 . S
C639 H666 0.930 . S
C640 C635 1.407 . S
C640 C639 1.384 . S
C640 H667 0.929 . S
C641 O654 1.241 . S
C641 O655 1.273 . S
C642 O656 1.251 . S
C642 O657 1.268 . S
C643 Nd633 2.836 . S
C643 C644 1.498 . S
C643 O658 1.258 . S
C643 O659 1.239 . S
C644 C643 1.498 . S
C644 C645 1.366 . S
C644 C649 1.407 . S
C645 C644 1.366 . S
C645 C646 1.392 . S
C645 H668 0.930 . S
C646 C645 1.392 . S
C646 C647 1.398 . S
C646 H669 0.929 . S
C647 C646 1.398 . S
C647 C648 1.352 . S
C648 C647 1.352 . S
C648 C649 1.384 . S
C648 H670 0.930 . S
C649 C644 1.407 . S
C649 C648 1.384 . S
C649 H671 0.929 . S
C650 O660 1.241 . S
C650 O661 1.273 . S
C651 O662 1.251 . S
C651 O663 1.268 . S
O652 Nd632 2.500 . S
O652 C634 1.258 . S
O653 Nd632 2.492 . S
O653 C634 1.239 . S
O654 Nd632 2.487 . S
O654 C641 1.241 . S
O655 Nd632 2.682 . S
O655 Nd633 2.414 . S
O655 C641 1.273 . S
O656 Nd632 2.410 . S
O656 C642 1.251 . S
O657 Nd633 2.424 . S
O657 C642 1.268 . S
O658 Nd633 2.500 . S
O658 C643 1.258 . S
O659 Nd633 2.492 . S
O659 C643 1.239 . S
O660 Nd633 2.487 . S
O660 C650 1.241 . S
O661 Nd632 2.414 . S
O661 Nd633 2.682 . S
O661 C650 1.273 . S
O662 Nd633 2.410 . S
O662 C651 1.251 . S
O663 Nd632 2.424 . S
O663 C651 1.268 . S
H664 C636 0.930 . S
H665 C637 0.929 . S
H666 C639 0.930 . S
H667 C640 0.929 . S
H668 C645 0.930 . S
H669 C646 0.929 . S
H670 C648 0.930 . S
H671 C649 0.929 . S
Nd672 C674 2.836 . S
Nd672 O692 2.500 . S
Nd672 O693 2.492 . S
Nd672 O694 2.487 . S
Nd672 O695 2.682 . S
Nd672 O696 2.410 . S
Nd672 O701 2.414 . S
Nd672 O703 2.424 . S
Nd673 C683 2.836 . S
Nd673 O695 2.414 . S
Nd673 O697 2.424 . S
Nd673 O698 2.500 . S
Nd673 O699 2.492 . S
Nd673 O700 2.487 . S
Nd673 O701 2.682 . S
Nd673 O702 2.410 . S
C674 Nd672 2.836 . S
C674 C675 1.498 . S
C674 O692 1.258 . S
C674 O693 1.239 . S
C675 C674 1.498 . S
C675 C676 1.366 . S
C675 C680 1.407 . S
C676 C675 1.366 . S
C676 C677 1.392 . S
C676 H704 0.930 . S
C677 C676 1.392 . S
C677 C678 1.398 . S
C677 H705 0.929 . S
C678 C677 1.398 . S
C678 C679 1.352 . S
C679 C678 1.352 . S
C679 C680 1.384 . S
C679 H706 0.930 . S
C680 C675 1.407 . S
C680 C679 1.384 . S
C680 H707 0.929 . S
C681 O694 1.241 . S
C681 O695 1.273 . S
C682 O696 1.251 . S
C682 O697 1.268 . S
C683 Nd673 2.836 . S
C683 C684 1.498 . S
C683 O698 1.258 . S
C683 O699 1.239 . S
C684 C683 1.498 . S
C684 C685 1.366 . S
C684 C689 1.407 . S
C685 C684 1.366 . S
C685 C686 1.392 . S
C685 H708 0.930 . S
C686 C685 1.392 . S
C686 C687 1.398 . S
C686 H709 0.929 . S
C687 C686 1.398 . S
C687 C688 1.352 . S
C688 C687 1.352 . S
C688 C689 1.384 . S
C688 H710 0.930 . S
C689 C684 1.407 . S
C689 C688 1.384 . S
C689 H711 0.929 . S
C690 O700 1.241 . S
C690 O701 1.273 . S
C691 O702 1.251 . S
C691 O703 1.268 . S
O692 Nd672 2.500 . S
O692 C674 1.258 . S
O693 Nd672 2.492 . S
O693 C674 1.239 . S
O694 Nd672 2.487 . S
O694 C681 1.241 . S
O695 Nd672 2.682 . S
O695 Nd673 2.414 . S
O695 C681 1.273 . S
O696 Nd672 2.410 . S
O696 C682 1.251 . S
O697 Nd673 2.424 . S
O697 C682 1.268 . S
O698 Nd673 2.500 . S
O698 C683 1.258 . S
O699 Nd673 2.492 . S
O699 C683 1.239 . S
O700 Nd673 2.487 . S
O700 C690 1.241 . S
O701 Nd672 2.414 . S
O701 Nd673 2.682 . S
O701 C690 1.273 . S
O702 Nd673 2.410 . S
O702 C691 1.251 . S
O703 Nd672 2.424 . S
O703 C691 1.268 . S
H704 C676 0.930 . S
H705 C677 0.929 . S
H706 C679 0.930 . S
H707 C680 0.929 . S
H708 C685 0.930 . S
H709 C686 0.929 . S
H710 C688 0.930 . S
H711 C689 0.929 . S
Nd712 C714 2.836 . S
Nd712 O732 2.500 . S
Nd712 O733 2.492 . S
Nd712 O734 2.487 1_655 S
Nd712 O735 2.682 1_655 S
Nd712 O736 2.410 1_655 S
Nd712 O741 2.414 1_655 S
Nd712 O743 2.424 1_655 S
Nd713 C723 2.836 . S
Nd713 O735 2.414 . S
Nd713 O737 2.424 . S
Nd713 O738 2.500 . S
Nd713 O739 2.492 . S
Nd713 O740 2.487 . S
Nd713 O741 2.682 . S
Nd713 O742 2.410 . S
C714 Nd712 2.836 . S
C714 C715 1.498 . S
C714 O732 1.258 . S
C714 O733 1.239 . S
C715 C714 1.498 . S
C715 C716 1.366 . S
C715 C720 1.407 . S
C716 C715 1.366 . S
C716 C717 1.392 . S
C716 H744 0.930 . S
C717 C716 1.392 . S
C717 C718 1.398 . S
C717 H745 0.929 . S
C718 C717 1.398 . S
C718 C719 1.352 . S
C719 C718 1.352 . S
C719 C720 1.384 . S
C719 H746 0.930 . S
C720 C715 1.407 . S
C720 C719 1.384 . S
C720 H747 0.929 . S
C721 O734 1.241 . S
C721 O735 1.273 . S
C722 O736 1.251 . S
C722 O737 1.268 . S
C723 Nd713 2.836 . S
C723 C724 1.498 . S
C723 O738 1.258 . S
C723 O739 1.239 . S
C724 C723 1.498 . S
C724 C725 1.366 . S
C724 C729 1.407 . S
C725 C724 1.366 . S
C725 C726 1.392 . S
C725 H748 0.930 . S
C726 C725 1.392 . S
C726 C727 1.398 . S
C726 H749 0.929 . S
C727 C726 1.398 . S
C727 C728 1.352 . S
C728 C727 1.352 . S
C728 C729 1.384 . S
C728 H750 0.930 . S
C729 C724 1.407 . S
C729 C728 1.384 . S
C729 H751 0.929 . S
C730 O740 1.241 . S
C730 O741 1.273 . S
C731 O742 1.251 . S
C731 O743 1.268 . S
O732 Nd712 2.500 . S
O732 C714 1.258 . S
O733 Nd712 2.492 . S
O733 C714 1.239 . S
O734 Nd712 2.487 1_455 S
O734 C721 1.241 . S
O735 Nd712 2.682 1_455 S
O735 Nd713 2.414 . S
O735 C721 1.273 . S
O736 Nd712 2.410 1_455 S
O736 C722 1.251 . S
O737 Nd713 2.424 . S
O737 C722 1.268 . S
O738 Nd713 2.500 . S
O738 C723 1.258 . S
O739 Nd713 2.492 . S
O739 C723 1.239 . S
O740 Nd713 2.487 . S
O740 C730 1.241 . S
O741 Nd712 2.414 1_455 S
O741 Nd713 2.682 . S
O741 C730 1.273 . S
O742 Nd713 2.410 . S
O742 C731 1.251 . S
O743 Nd712 2.424 1_455 S
O743 C731 1.268 . S
H744 C716 0.930 . S
H745 C717 0.929 . S
H746 C719 0.930 . S
H747 C720 0.929 . S
H748 C725 0.930 . S
H749 C726 0.929 . S
H750 C728 0.930 . S
H751 C729 0.929 . S
Nd752 C754 2.836 . S
Nd752 O772 2.500 . S
Nd752 O773 2.492 . S
Nd752 O774 2.487 . S
Nd752 O775 2.682 . S
Nd752 O776 2.410 . S
Nd752 O781 2.414 . S
Nd752 O783 2.424 . S
Nd753 C763 2.836 . S
Nd753 O775 2.414 . S
Nd753 O777 2.424 . S
Nd753 O778 2.500 . S
Nd753 O779 2.492 . S
Nd753 O780 2.487 . S
Nd753 O781 2.682 . S
Nd753 O782 2.410 . S
C754 Nd752 2.836 . S
C754 C755 1.498 . S
C754 O772 1.258 . S
C754 O773 1.239 . S
C755 C754 1.498 . S
C755 C756 1.366 . S
C755 C760 1.407 . S
C756 C755 1.366 . S
C756 C757 1.392 . S
C756 H784 0.930 . S
C757 C756 1.392 . S
C757 C758 1.398 . S
C757 H785 0.929 . S
C758 C757 1.398 . S
C758 C759 1.352 . S
C759 C758 1.352 . S
C759 C760 1.384 . S
C759 H786 0.930 . S
C760 C755 1.407 . S
C760 C759 1.384 . S
C760 H787 0.929 . S
C761 O774 1.241 . S
C761 O775 1.273 . S
C762 O776 1.251 . S
C762 O777 1.268 . S
C763 Nd753 2.836 . S
C763 C764 1.498 . S
C763 O778 1.258 . S
C763 O779 1.239 . S
C764 C763 1.498 . S
C764 C765 1.366 . S
C764 C769 1.407 . S
C765 C764 1.366 . S
C765 C766 1.392 . S
C765 H788 0.930 . S
C766 C765 1.392 . S
C766 C767 1.398 . S
C766 H789 0.929 . S
C767 C766 1.398 . S
C767 C768 1.352 . S
C768 C767 1.352 . S
C768 C769 1.384 . S
C768 H790 0.930 . S
C769 C764 1.407 . S
C769 C768 1.384 . S
C769 H791 0.929 . S
C770 O780 1.241 . S
C770 O781 1.273 . S
C771 O782 1.251 . S
C771 O783 1.268 . S
O772 Nd752 2.500 . S
O772 C754 1.258 . S
O773 Nd752 2.492 . S
O773 C754 1.239 . S
O774 Nd752 2.487 . S
O774 C761 1.241 . S
O775 Nd752 2.682 . S
O775 Nd753 2.414 . S
O775 C761 1.273 . S
O776 Nd752 2.410 . S
O776 C762 1.251 . S
O777 Nd753 2.424 . S
O777 C762 1.268 . S
O778 Nd753 2.500 . S
O778 C763 1.258 . S
O779 Nd753 2.492 . S
O779 C763 1.239 . S
O780 Nd753 2.487 . S
O780 C770 1.241 . S
O781 Nd752 2.414 . S
O781 Nd753 2.682 . S
O781 C770 1.273 . S
O782 Nd753 2.410 . S
O782 C771 1.251 . S
O783 Nd752 2.424 . S
O783 C771 1.268 . S
H784 C756 0.930 . S
H785 C757 0.929 . S
H786 C759 0.930 . S
H787 C760 0.929 . S
H788 C765 0.930 . S
H789 C766 0.929 . S
H790 C768 0.930 . S
H791 C769 0.929 . S
Nd792 C794 2.836 . S
Nd792 O812 2.500 . S
Nd792 O813 2.492 . S
Nd792 O814 2.487 . S
Nd792 O815 2.682 . S
Nd792 O816 2.410 . S
Nd792 O821 2.414 . S
Nd792 O823 2.424 . S
Nd793 C803 2.836 . S
Nd793 O815 2.414 . S
Nd793 O817 2.424 . S
Nd793 O818 2.500 . S
Nd793 O819 2.492 . S
Nd793 O820 2.487 . S
Nd793 O821 2.682 . S
Nd793 O822 2.410 . S
C794 Nd792 2.836 . S
C794 C795 1.498 . S
C794 O812 1.258 . S
C794 O813 1.239 . S
C795 C794 1.498 . S
C795 C796 1.366 . S
C795 C800 1.407 . S
C796 C795 1.366 . S
C796 C797 1.392 . S
C796 H824 0.930 . S
C797 C796 1.392 . S
C797 C798 1.398 . S
C797 H825 0.929 . S
C798 C797 1.398 . S
C798 C799 1.352 . S
C799 C798 1.352 . S
C799 C800 1.384 . S
C799 H826 0.930 . S
C800 C795 1.407 . S
C800 C799 1.384 . S
C800 H827 0.929 . S
C801 O814 1.241 . S
C801 O815 1.273 . S
C802 O816 1.251 . S
C802 O817 1.268 . S
C803 Nd793 2.836 . S
C803 C804 1.498 . S
C803 O818 1.258 . S
C803 O819 1.239 . S
C804 C803 1.498 . S
C804 C805 1.366 . S
C804 C809 1.407 . S
C805 C804 1.366 . S
C805 C806 1.392 . S
C805 H828 0.930 . S
C806 C805 1.392 . S
C806 C807 1.398 . S
C806 H829 0.929 . S
C807 C806 1.398 . S
C807 C808 1.352 . S
C808 C807 1.352 . S
C808 C809 1.384 . S
C808 H830 0.930 . S
C809 C804 1.407 . S
C809 C808 1.384 . S
C809 H831 0.929 . S
C810 O820 1.241 . S
C810 O821 1.273 . S
C811 O822 1.251 . S
C811 O823 1.268 . S
O812 Nd792 2.500 . S
O812 C794 1.258 . S
O813 Nd792 2.492 . S
O813 C794 1.239 . S
O814 Nd792 2.487 . S
O814 C801 1.241 . S
O815 Nd792 2.682 . S
O815 Nd793 2.414 . S
O815 C801 1.273 . S
O816 Nd792 2.410 . S
O816 C802 1.251 . S
O817 Nd793 2.424 . S
O817 C802 1.268 . S
O818 Nd793 2.500 . S
O818 C803 1.258 . S
O819 Nd793 2.492 . S
O819 C803 1.239 . S
O820 Nd793 2.487 . S
O820 C810 1.241 . S
O821 Nd792 2.414 . S
O821 Nd793 2.682 . S
O821 C810 1.273 . S
O822 Nd793 2.410 . S
O822 C811 1.251 . S
O823 Nd792 2.424 . S
O823 C811 1.268 . S
H824 C796 0.930 . S
H825 C797 0.929 . S
H826 C799 0.930 . S
H827 C800 0.929 . S
H828 C805 0.930 . S
H829 C806 0.929 . S
H830 C808 0.930 . S
H831 C809 0.929 . S
Nd832 C834 2.836 . S
Nd832 O852 2.500 . S
Nd832 O853 2.492 . S
Nd832 O854 2.487 . S
Nd832 O855 2.682 . S
Nd832 O856 2.410 . S
Nd832 O861 2.414 . S
Nd832 O863 2.424 . S
Nd833 C843 2.836 . S
Nd833 O855 2.414 . S
Nd833 O857 2.424 . S
Nd833 O858 2.500 . S
Nd833 O859 2.492 . S
Nd833 O860 2.487 . S
Nd833 O861 2.682 . S
Nd833 O862 2.410 . S
C834 Nd832 2.836 . S
C834 C835 1.498 . S
C834 O852 1.258 . S
C834 O853 1.239 . S
C835 C834 1.498 . S
C835 C836 1.366 . S
C835 C840 1.407 . S
C836 C835 1.366 . S
C836 C837 1.392 . S
C836 H864 0.930 . S
C837 C836 1.392 . S
C837 C838 1.398 . S
C837 H865 0.929 . S
C838 C837 1.398 . S
C838 C839 1.352 . S
C839 C838 1.352 . S
C839 C840 1.384 . S
C839 H866 0.930 . S
C840 C835 1.407 . S
C840 C839 1.384 . S
C840 H867 0.929 . S
C841 O854 1.241 . S
C841 O855 1.273 . S
C842 O856 1.251 . S
C842 O857 1.268 . S
C843 Nd833 2.836 . S
C843 C844 1.498 . S
C843 O858 1.258 . S
C843 O859 1.239 . S
C844 C843 1.498 . S
C844 C845 1.366 . S
C844 C849 1.407 . S
C845 C844 1.366 . S
C845 C846 1.392 . S
C845 H868 0.930 . S
C846 C845 1.392 . S
C846 C847 1.398 . S
C846 H869 0.929 . S
C847 C846 1.398 . S
C847 C848 1.352 . S
C848 C847 1.352 . S
C848 C849 1.384 . S
C848 H870 0.930 . S
C849 C844 1.407 . S
C849 C848 1.384 . S
C849 H871 0.929 . S
C850 O860 1.241 . S
C850 O861 1.273 . S
C851 O862 1.251 . S
C851 O863 1.268 . S
O852 Nd832 2.500 . S
O852 C834 1.258 . S
O853 Nd832 2.492 . S
O853 C834 1.239 . S
O854 Nd832 2.487 . S
O854 C841 1.241 . S
O855 Nd832 2.682 . S
O855 Nd833 2.414 . S
O855 C841 1.273 . S
O856 Nd832 2.410 . S
O856 C842 1.251 . S
O857 Nd833 2.424 . S
O857 C842 1.268 . S
O858 Nd833 2.500 . S
O858 C843 1.258 . S
O859 Nd833 2.492 . S
O859 C843 1.239 . S
O860 Nd833 2.487 . S
O860 C850 1.241 . S
O861 Nd832 2.414 . S
O861 Nd833 2.682 . S
O861 C850 1.273 . S
O862 Nd833 2.410 . S
O862 C851 1.251 . S
O863 Nd832 2.424 . S
O863 C851 1.268 . S
H864 C836 0.930 . S
H865 C837 0.929 . S
H866 C839 0.930 . S
H867 C840 0.929 . S
H868 C845 0.930 . S
H869 C846 0.929 . S
H870 C848 0.930 . S
H871 C849 0.929 . S
Nd872 C874 2.836 . S
Nd872 O892 2.500 . S
Nd872 O893 2.492 . S
Nd872 O894 2.487 . S
Nd872 O895 2.682 . S
Nd872 O896 2.410 . S
Nd872 O901 2.414 . S
Nd872 O903 2.424 . S
Nd873 C883 2.836 . S
Nd873 O895 2.414 . S
Nd873 O897 2.424 . S
Nd873 O898 2.500 . S
Nd873 O899 2.492 . S
Nd873 O900 2.487 . S
Nd873 O901 2.682 . S
Nd873 O902 2.410 . S
C874 Nd872 2.836 . S
C874 C875 1.498 . S
C874 O892 1.258 . S
C874 O893 1.239 . S
C875 C874 1.498 . S
C875 C876 1.366 . S
C875 C880 1.407 . S
C876 C875 1.366 . S
C876 C877 1.392 . S
C876 H904 0.930 . S
C877 C876 1.392 . S
C877 C878 1.398 . S
C877 H905 0.929 . S
C878 C877 1.398 . S
C878 C879 1.352 . S
C879 C878 1.352 . S
C879 C880 1.384 . S
C879 H906 0.930 . S
C880 C875 1.407 . S
C880 C879 1.384 . S
C880 H907 0.929 . S
C881 O894 1.241 . S
C881 O895 1.273 . S
C882 O896 1.251 . S
C882 O897 1.268 . S
C883 Nd873 2.836 . S
C883 C884 1.498 . S
C883 O898 1.258 . S
C883 O899 1.239 . S
C884 C883 1.498 . S
C884 C885 1.366 . S
C884 C889 1.407 . S
C885 C884 1.366 . S
C885 C886 1.392 . S
C885 H908 0.930 . S
C886 C885 1.392 . S
C886 C887 1.398 . S
C886 H909 0.929 . S
C887 C886 1.398 . S
C887 C888 1.352 . S
C888 C887 1.352 . S
C888 C889 1.384 . S
C888 H910 0.930 . S
C889 C884 1.407 . S
C889 C888 1.384 . S
C889 H911 0.929 . S
C890 O900 1.241 . S
C890 O901 1.273 . S
C891 O902 1.251 . S
C891 O903 1.268 . S
O892 Nd872 2.500 . S
O892 C874 1.258 . S
O893 Nd872 2.492 . S
O893 C874 1.239 . S
O894 Nd872 2.487 . S
O894 C881 1.241 . S
O895 Nd872 2.682 . S
O895 Nd873 2.414 . S
O895 C881 1.273 . S
O896 Nd872 2.410 . S
O896 C882 1.251 . S
O897 Nd873 2.424 . S
O897 C882 1.268 . S
O898 Nd873 2.500 . S
O898 C883 1.258 . S
O899 Nd873 2.492 . S
O899 C883 1.239 . S
O900 Nd873 2.487 . S
O900 C890 1.241 . S
O901 Nd872 2.414 . S
O901 Nd873 2.682 . S
O901 C890 1.273 . S
O902 Nd873 2.410 . S
O902 C891 1.251 . S
O903 Nd872 2.424 . S
O903 C891 1.268 . S
H904 C876 0.930 . S
H905 C877 0.929 . S
H906 C879 0.930 . S
H907 C880 0.929 . S
H908 C885 0.930 . S
H909 C886 0.929 . S
H910 C888 0.930 . S
H911 C889 0.929 . S
Nd912 C914 2.836 . S
Nd912 O932 2.500 . S
Nd912 O933 2.492 . S
Nd912 O934 2.487 . S
Nd912 O935 2.682 . S
Nd912 O936 2.410 . S
Nd912 O941 2.414 . S
Nd912 O943 2.424 . S
Nd913 C923 2.836 . S
Nd913 O935 2.414 1_655 S
Nd913 O937 2.424 1_655 S
Nd913 O938 2.500 . S
Nd913 O939 2.492 . S
Nd913 O940 2.487 1_655 S
Nd913 O941 2.682 1_655 S
Nd913 O942 2.410 1_655 S
C914 Nd912 2.836 . S
C914 C915 1.498 . S
C914 O932 1.258 . S
C914 O933 1.239 . S
C915 C914 1.498 . S
C915 C916 1.366 . S
C915 C920 1.407 . S
C916 C915 1.366 . S
C916 C917 1.392 . S
C916 H944 0.930 . S
C917 C916 1.392 . S
C917 C918 1.398 . S
C917 H945 0.929 . S
C918 C917 1.398 . S
C918 C919 1.352 . S
C919 C918 1.352 . S
C919 C920 1.384 . S
C919 H946 0.930 . S
C920 C915 1.407 . S
C920 C919 1.384 . S
C920 H947 0.929 . S
C921 O934 1.241 . S
C921 O935 1.273 . S
C922 O936 1.251 . S
C922 O937 1.268 . S
C923 Nd913 2.836 . S
C923 C924 1.498 . S
C923 O938 1.258 . S
C923 O939 1.239 . S
C924 C923 1.498 . S
C924 C925 1.366 . S
C924 C929 1.407 . S
C925 C924 1.366 . S
C925 C926 1.392 . S
C925 H948 0.930 . S
C926 C925 1.392 . S
C926 C927 1.398 . S
C926 H949 0.929 . S
C927 C926 1.398 . S
C927 C928 1.352 . S
C928 C927 1.352 . S
C928 C929 1.384 . S
C928 H950 0.930 . S
C929 C924 1.407 . S
C929 C928 1.384 . S
C929 H951 0.929 . S
C930 O940 1.241 . S
C930 O941 1.273 . S
C931 O942 1.251 . S
C931 O943 1.268 . S
O932 Nd912 2.500 . S
O932 C914 1.258 . S
O933 Nd912 2.492 . S
O933 C914 1.239 . S
O934 Nd912 2.487 . S
O934 C921 1.241 . S
O935 Nd912 2.682 . S
O935 Nd913 2.414 1_455 S
O935 C921 1.273 . S
O936 Nd912 2.410 . S
O936 C922 1.251 . S
O937 Nd913 2.424 1_455 S
O937 C922 1.268 . S
O938 Nd913 2.500 . S
O938 C923 1.258 . S
O939 Nd913 2.492 . S
O939 C923 1.239 . S
O940 Nd913 2.487 1_455 S
O940 C930 1.241 . S
O941 Nd912 2.414 . S
O941 Nd913 2.682 1_455 S
O941 C930 1.273 . S
O942 Nd913 2.410 1_455 S
O942 C931 1.251 . S
O943 Nd912 2.424 . S
O943 C931 1.268 . S
H944 C916 0.930 . S
H945 C917 0.929 . S
H946 C919 0.930 . S
H947 C920 0.929 . S
H948 C925 0.930 . S
H949 C926 0.929 . S
H950 C928 0.930 . S
H951 C929 0.929 . S
C952 C953 1.387 1_554 S
C952 H956 0.950 1_554 S
C952 C961 1.390 . S
C953 C952 1.387 1_556 S
C953 C955 1.384 1_556 S
H954 C961 0.950 . S
C955 C953 1.384 1_554 S
C955 C957 1.395 . S
C955 H959 0.948 1_554 S
H956 C952 0.950 1_556 S
C957 C955 1.395 . S
C957 C958 1.387 . S
C957 H960 0.950 . S
C958 C957 1.387 . S
C958 C961 1.387 . S
H959 C955 0.948 1_556 S
H960 C957 0.950 . S
C961 C952 1.390 . S
C961 H954 0.950 . S
C961 C958 1.387 . S
C962 C963 1.387 . S
C962 H966 0.950 . S
C962 C971 1.390 . S
C963 C962 1.387 . S
C963 C965 1.387 . S
H964 C971 0.950 . S
C965 C963 1.387 . S
C965 C967 1.390 . S
C965 H969 0.950 . S
H966 C962 0.950 . S
C967 C965 1.390 . S
C967 C968 1.387 . S
C967 H970 0.950 . S
C968 C967 1.387 . S
C968 C971 1.387 . S
H969 C965 0.950 . S
H970 C967 0.950 . S
C971 C962 1.390 . S
C971 H964 0.950 . S
C971 C968 1.387 . S
C972 C973 1.387 . S
C972 H976 0.950 . S
C972 C981 1.390 . S
C973 C972 1.387 . S
C973 C975 1.387 . S
H974 C981 0.950 1_545 S
C975 C973 1.387 . S
C975 C977 1.390 . S
C975 H979 0.950 . S
H976 C972 0.950 . S
C977 C975 1.390 . S
C977 C978 1.387 . S
C977 H980 0.950 . S
C978 C977 1.387 . S
C978 C981 1.387 . S
H979 C975 0.950 . S
H980 C977 0.950 . S
C981 C972 1.390 . S
C981 H974 0.950 1_565 S
C981 C978 1.387 . S
C982 C983 1.387 . S
C982 H986 0.950 . S
C982 C991 1.390 . S
C983 C982 1.387 . S
C983 C985 1.387 . S
H984 C991 0.950 . S
C985 C983 1.387 . S
C985 C987 1.390 . S
C985 H989 0.950 . S
H986 C982 0.950 . S
C987 C985 1.390 . S
C987 C988 1.387 . S
C987 H990 0.950 . S
C988 C987 1.387 . S
C988 C991 1.387 . S
H989 C985 0.950 . S
H990 C987 0.950 . S
C991 C982 1.390 . S
C991 H984 0.950 . S
C991 C988 1.387 . S
C992 C993 1.387 . S
C992 H996 0.950 . S
C992 C1001 1.390 . S
C993 C992 1.387 . S
C993 C995 1.387 . S
H994 C1001 0.950 . S
C995 C993 1.387 . S
C995 C997 1.390 . S
C995 H999 0.950 . S
H996 C992 0.950 . S
C997 C995 1.390 . S
C997 C998 1.387 . S
C997 H1000 0.950 . S
C998 C997 1.387 . S
C998 C1001 1.387 . S
H999 C995 0.950 . S
H1000 C997 0.950 . S
C1001 C992 1.390 . S
C1001 H994 0.950 . S
C1001 C998 1.387 . S
C1002 C1003 1.387 . S
C1002 H1006 0.950 . S
C1002 C1011 1.390 . S
C1003 C1002 1.387 . S
C1003 C1005 1.387 . S
H1004 C1011 0.950 . S
C1005 C1003 1.387 . S
C1005 C1007 1.390 . S
C1005 H1009 0.950 . S
H1006 C1002 0.950 . S
C1007 C1005 1.390 . S
C1007 C1008 1.387 . S
C1007 H1010 0.950 . S
C1008 C1007 1.387 . S
C1008 C1011 1.387 . S
H1009 C1005 0.950 . S
H1010 C1007 0.950 . S
C1011 C1002 1.390 . S
C1011 H1004 0.950 . S
C1011 C1008 1.387 . S
C1012 C1013 1.387 . S
C1012 H1016 0.950 . S
C1012 C1021 1.390 . S
C1013 C1012 1.387 . S
C1013 C1015 1.387 . S
H1014 C1021 0.950 . S
C1015 C1013 1.387 . S
C1015 C1017 1.390 . S
C1015 H1019 0.950 . S
H1016 C1012 0.950 . S
C1017 C1015 1.390 . S
C1017 C1018 1.387 . S
C1017 H1020 0.950 . S
C1018 C1017 1.387 . S
C1018 C1021 1.387 . S
H1019 C1015 0.950 . S
H1020 C1017 0.950 . S
C1021 C1012 1.390 . S
C1021 H1014 0.950 . S
C1021 C1018 1.387 . S
C1022 C1023 1.387 . S
C1022 H1026 0.950 . S
C1022 C1031 1.390 . S
C1023 C1022 1.387 . S
C1023 C1025 1.387 . S
H1024 C1031 0.950 . S
C1025 C1023 1.387 . S
C1025 C1027 1.390 . S
C1025 H1029 0.950 . S
H1026 C1022 0.950 . S
C1027 C1025 1.390 . S
C1027 C1028 1.387 . S
C1027 H1030 0.950 . S
C1028 C1027 1.387 . S
C1028 C1031 1.387 . S
H1029 C1025 0.950 . S
H1030 C1027 0.950 . S
C1031 C1022 1.390 . S
C1031 H1024 0.950 . S
C1031 C1028 1.387 . S
C1032 C1033 1.387 . S
C1032 H1036 0.950 . S
C1032 C1041 1.390 1_655 S
C1033 C1032 1.387 . S
C1033 C1035 1.387 . S
H1034 C1041 0.950 . S
C1035 C1033 1.387 . S
C1035 C1037 1.390 1_655 S
C1035 H1039 0.950 . S
H1036 C1032 0.950 . S
C1037 C1035 1.390 1_455 S
C1037 C1038 1.387 . S
C1037 H1040 0.950 . S
C1038 C1037 1.387 . S
C1038 C1041 1.387 . S
H1039 C1035 0.950 . S
H1040 C1037 0.950 . S
C1041 C1032 1.390 1_455 S
C1041 H1034 0.950 . S
C1041 C1038 1.387 . S
C1042 C1043 1.387 . S
C1042 H1046 0.950 . S
C1042 C1051 1.390 . S
C1043 C1042 1.387 . S
C1043 C1045 1.387 . S
H1044 C1051 0.950 . S
C1045 C1043 1.387 . S
C1045 C1047 1.390 . S
C1045 H1049 0.950 . S
H1046 C1042 0.950 . S
C1047 C1045 1.390 . S
C1047 C1048 1.387 . S
C1047 H1050 0.950 . S
C1048 C1047 1.387 . S
C1048 C1051 1.387 . S
H1049 C1045 0.950 . S
H1050 C1047 0.950 . S
C1051 C1042 1.390 . S
C1051 H1044 0.950 . S
C1051 C1048 1.387 . S
C1052 C1053 1.388 1_545 S
C1052 H1056 0.950 1_545 S
C1052 C1061 1.390 . S
C1053 C1052 1.388 1_565 S
C1053 C1055 1.389 1_565 S
H1054 C1061 0.950 . S
C1055 C1053 1.389 1_545 S
C1055 C1057 1.390 . S
C1055 H1059 0.950 . S
H1056 C1052 0.950 1_565 S
C1057 C1055 1.390 . S
C1057 C1058 1.387 . S
C1057 H1060 0.950 . S
C1058 C1057 1.387 . S
C1058 C1061 1.387 . S
H1059 C1055 0.950 . S
H1060 C1057 0.950 . S
C1061 C1052 1.390 . S
C1061 H1054 0.950 . S
C1061 C1058 1.387 . S
C1062 C1063 1.387 . S
C1062 H1066 0.950 . S
C1062 C1071 1.390 . S
C1063 C1062 1.387 . S
C1063 C1065 1.387 . S
H1064 C1071 0.950 . S
C1065 C1063 1.387 . S
C1065 C1067 1.390 . S
C1065 H1069 0.950 . S
H1066 C1062 0.950 . S
C1067 C1065 1.390 . S
C1067 C1068 1.387 . S
C1067 H1070 0.950 . S
C1068 C1067 1.387 . S
C1068 C1071 1.387 . S
H1069 C1065 0.950 . S
H1070 C1067 0.950 . S
C1071 C1062 1.390 . S
C1071 H1064 0.950 . S
C1071 C1068 1.387 . S
C1072 C1073 1.387 . S
C1072 H1076 0.950 . S
C1072 C1081 1.390 . S
C1073 C1072 1.387 . S
C1073 C1075 1.387 . S
H1074 C1081 0.950 . S
C1075 C1073 1.387 . S
C1075 C1077 1.390 . S
C1075 H1079 0.950 . S
H1076 C1072 0.950 . S
C1077 C1075 1.390 . S
C1077 C1078 1.387 1_655 S
C1077 H1080 0.950 1_655 S
C1078 C1077 1.387 1_455 S
C1078 C1081 1.387 1_455 S
H1079 C1075 0.950 . S
H1080 C1077 0.950 1_455 S
C1081 C1072 1.390 . S
C1081 H1074 0.950 . S
C1081 C1078 1.387 1_655 S
C1082 C1083 1.387 . S
C1082 H1086 0.950 . S
C1082 C1091 1.390 . S
C1083 C1082 1.387 . S
C1083 C1085 1.387 . S
H1084 C1091 0.950 . S
C1085 C1083 1.387 . S
C1085 C1087 1.390 . S
C1085 H1089 0.950 . S
H1086 C1082 0.950 . S
C1087 C1085 1.390 . S
C1087 C1088 1.387 . S
C1087 H1090 0.950 . S
C1088 C1087 1.387 . S
C1088 C1091 1.387 . S
H1089 C1085 0.950 . S
H1090 C1087 0.950 . S
C1091 C1082 1.390 . S
C1091 H1084 0.950 . S
C1091 C1088 1.387 . S
C1092 C1093 1.387 . S
C1092 H1096 0.950 . S
C1092 C1101 1.390 . S
C1093 C1092 1.387 . S
C1093 C1095 1.387 . S
H1094 C1101 0.950 . S
C1095 C1093 1.387 . S
C1095 C1097 1.390 . S
C1095 H1099 0.950 1_545 S
H1096 C1092 0.950 . S
C1097 C1095 1.390 . S
C1097 C1098 1.387 . S
C1097 H1100 0.950 . S
C1098 C1097 1.387 . S
C1098 C1101 1.387 . S
H1099 C1095 0.950 1_565 S
H1100 C1097 0.950 . S
C1101 C1092 1.390 . S
C1101 H1094 0.950 . S
C1101 C1098 1.387 . S
C1102 C1103 1.387 . S
C1102 H1106 0.950 . S
C1102 C1111 1.390 . S
C1103 C1102 1.387 . S
C1103 C1105 1.387 . S
H1104 C1111 0.950 . S
C1105 C1103 1.387 . S
C1105 C1107 1.390 . S
C1105 H1109 0.950 . S
H1106 C1102 0.950 . S
C1107 C1105 1.390 . S
C1107 C1108 1.387 . S
C1107 H1110 0.950 . S
C1108 C1107 1.387 . S
C1108 C1111 1.387 . S
H1109 C1105 0.950 . S
H1110 C1107 0.950 . S
C1111 C1102 1.390 . S
C1111 H1104 0.950 . S
C1111 C1108 1.387 . S
C1112 C1113 1.374 1_545 S
C1112 H1116 0.939 1_545 S
C1112 C1121 1.411 . S
C1113 C1112 1.374 1_565 S
C1113 C1115 1.387 . S
H1114 C1121 0.950 . S
C1115 C1113 1.387 . S
C1115 C1117 1.390 1_565 S
C1115 H1119 0.950 . S
H1116 C1112 0.939 1_565 S
C1117 C1115 1.390 1_545 S
C1117 C1118 1.387 . S
C1117 H1120 0.950 . S
C1118 C1117 1.387 . S
C1118 C1121 1.387 . S
H1119 C1115 0.950 . S
H1120 C1117 0.950 . S
C1121 C1112 1.411 . S
C1121 H1114 0.950 . S
C1121 C1118 1.387 . S
C1122 C1123 1.387 1_554 S
C1122 H1126 0.950 . S
C1122 C1131 1.390 . S
C1123 C1122 1.387 1_556 S
C1123 C1125 1.387 . S
H1124 C1131 0.950 . S
C1125 C1123 1.387 . S
C1125 C1127 1.390 1_556 S
C1125 H1129 0.950 . S
H1126 C1122 0.950 . S
C1127 C1125 1.390 1_554 S
C1127 C1128 1.387 . S
C1127 H1130 0.950 . S
C1128 C1127 1.387 . S
C1128 C1131 1.387 . S
H1129 C1125 0.950 . S
H1130 C1127 0.950 . S
C1131 C1122 1.390 . S
C1131 H1124 0.950 . S
C1131 C1128 1.387 . S
C1132 C1133 1.387 . S
C1132 H1136 0.950 . S
C1132 C1141 1.390 . S
C1133 C1132 1.387 . S
C1133 C1135 1.387 . S
H1134 C1141 0.950 . S
C1135 C1133 1.387 . S
C1135 C1137 1.390 . S
C1135 H1139 0.950 . S
H1136 C1132 0.950 . S
C1137 C1135 1.390 . S
C1137 C1138 1.387 . S
C1137 H1140 0.950 . S
C1138 C1137 1.387 . S
C1138 C1141 1.387 . S
H1139 C1135 0.950 . S
H1140 C1137 0.950 . S
C1141 C1132 1.390 . S
C1141 H1134 0.950 . S
C1141 C1138 1.387 . S
C1142 C1143 1.387 . S
C1142 H1146 0.950 . S
C1142 C1151 1.390 . S
C1143 C1142 1.387 . S
C1143 C1145 1.387 . S
H1144 C1151 0.950 . S
C1145 C1143 1.387 . S
C1145 C1147 1.390 . S
C1145 H1149 0.950 . S
H1146 C1142 0.950 . S
C1147 C1145 1.390 . S
C1147 C1148 1.387 . S
C1147 H1150 0.950 . S
C1148 C1147 1.387 . S
C1148 C1151 1.387 . S
H1149 C1145 0.950 . S
H1150 C1147 0.950 . S
C1151 C1142 1.390 . S
C1151 H1144 0.950 . S
C1151 C1148 1.387 . S
C1152 C1153 1.387 . S
C1152 H1156 0.950 . S
C1152 C1161 1.390 . S
C1153 C1152 1.387 . S
C1153 C1155 1.387 . S
H1154 C1161 0.950 . S
C1155 C1153 1.387 . S
C1155 C1157 1.390 . S
C1155 H1159 0.950 . S
H1156 C1152 0.950 . S
C1157 C1155 1.390 . S
C1157 C1158 1.387 . S
C1157 H1160 0.950 . S
C1158 C1157 1.387 . S
C1158 C1161 1.387 . S
H1159 C1155 0.950 . S
H1160 C1157 0.950 . S
C1161 C1152 1.390 . S
C1161 H1154 0.950 . S
C1161 C1158 1.387 . S
C1162 C1163 1.387 . S
C1162 H1166 0.950 . S
C1162 C1171 1.390 . S
C1163 C1162 1.387 . S
C1163 C1165 1.387 . S
H1164 C1171 0.950 . S
C1165 C1163 1.387 . S
C1165 C1167 1.390 . S
C1165 H1169 0.950 . S
H1166 C1162 0.950 . S
C1167 C1165 1.390 . S
C1167 C1168 1.387 . S
C1167 H1170 0.950 . S
C1168 C1167 1.387 . S
C1168 C1171 1.387 . S
H1169 C1165 0.950 . S
H1170 C1167 0.950 . S
C1171 C1162 1.390 . S
C1171 H1164 0.950 . S
C1171 C1168 1.387 . S
C1172 C1173 1.387 . S
C1172 H1176 0.950 . S
C1172 C1181 1.390 . S
C1173 C1172 1.387 . S
C1173 C1175 1.387 . S
H1174 C1181 0.950 . S
C1175 C1173 1.387 . S
C1175 C1177 1.390 . S
C1175 H1179 0.950 . S
H1176 C1172 0.950 . S
C1177 C1175 1.390 . S
C1177 C1178 1.387 . S
C1177 H1180 0.950 . S
C1178 C1177 1.387 . S
C1178 C1181 1.387 . S
H1179 C1175 0.950 . S
H1180 C1177 0.950 . S
C1181 C1172 1.390 . S
C1181 H1174 0.950 . S
C1181 C1178 1.387 . S
C1182 C1183 1.387 . S
C1182 H1186 0.950 . S
C1182 C1191 1.390 . S
C1183 C1182 1.387 . S
C1183 C1185 1.387 . S
H1184 C1191 0.950 . S
C1185 C1183 1.387 . S
C1185 C1187 1.390 . S
C1185 H1189 0.950 . S
H1186 C1182 0.950 . S
C1187 C1185 1.390 . S
C1187 C1188 1.387 . S
C1187 H1190 0.950 . S
C1188 C1187 1.387 . S
C1188 C1191 1.387 . S
H1189 C1185 0.950 . S
H1190 C1187 0.950 . S
C1191 C1182 1.390 . S
C1191 H1184 0.950 . S
C1191 C1188 1.387 . S
C1192 C1193 1.387 . S
C1192 H1196 0.950 . S
C1192 C1201 1.390 . S
C1193 C1192 1.387 . S
C1193 C1195 1.387 . S
H1194 C1201 0.950 . S
C1195 C1193 1.387 . S
C1195 C1197 1.390 . S
C1195 H1199 0.950 . S
H1196 C1192 0.950 . S
C1197 C1195 1.390 . S
C1197 C1198 1.387 . S
C1197 H1200 0.950 . S
C1198 C1197 1.387 . S
C1198 C1201 1.387 . S
H1199 C1195 0.950 . S
H1200 C1197 0.950 . S
C1201 C1192 1.390 . S
C1201 H1194 0.950 . S
C1201 C1198 1.387 . S
C1202 C1203 1.387 . S
C1202 H1206 0.950 . S
C1202 C1211 1.390 . S
C1203 C1202 1.387 . S
C1203 C1205 1.387 . S
H1204 C1211 0.950 . S
C1205 C1203 1.387 . S
C1205 C1207 1.390 . S
C1205 H1209 0.950 . S
H1206 C1202 0.950 . S
C1207 C1205 1.390 . S
C1207 C1208 1.387 . S
C1207 H1210 0.950 . S
C1208 C1207 1.387 . S
C1208 C1211 1.387 . S
H1209 C1205 0.950 . S
H1210 C1207 0.950 . S
C1211 C1202 1.390 . S
C1211 H1204 0.950 . S
C1211 C1208 1.387 . S
C1212 C1213 1.387 . S
C1212 H1216 0.950 . S
C1212 C1221 1.390 . S
C1213 C1212 1.387 . S
C1213 C1215 1.387 . S
H1214 C1221 0.950 . S
C1215 C1213 1.387 . S
C1215 C1217 1.390 . S
C1215 H1219 0.950 . S
H1216 C1212 0.950 . S
C1217 C1215 1.390 . S
C1217 C1218 1.387 . S
C1217 H1220 0.950 . S
C1218 C1217 1.387 . S
C1218 C1221 1.387 . S
H1219 C1215 0.950 . S
H1220 C1217 0.950 . S
C1221 C1212 1.390 . S
C1221 H1214 0.950 . S
C1221 C1218 1.387 . S
C1222 C1223 1.387 . S
C1222 H1226 0.950 . S
C1222 C1231 1.390 . S
C1223 C1222 1.387 . S
C1223 C1225 1.387 . S
H1224 C1231 0.950 . S
C1225 C1223 1.387 . S
C1225 C1227 1.390 . S
C1225 H1229 0.950 . S
H1226 C1222 0.950 . S
C1227 C1225 1.390 . S
C1227 C1228 1.387 . S
C1227 H1230 0.950 . S
C1228 C1227 1.387 . S
C1228 C1231 1.387 . S
H1229 C1225 0.950 . S
H1230 C1227 0.950 . S
C1231 C1222 1.390 . S
C1231 H1224 0.950 . S
C1231 C1228 1.387 . S
C1232 C1233 1.387 . S
C1232 H1236 0.950 . S
C1232 C1241 1.390 . S
C1233 C1232 1.387 . S
C1233 C1235 1.387 . S
H1234 C1241 0.950 . S
C1235 C1233 1.387 . S
C1235 C1237 1.390 . S
C1235 H1239 0.950 . S
H1236 C1232 0.950 . S
C1237 C1235 1.390 . S
C1237 C1238 1.387 . S
C1237 H1240 0.950 . S
C1238 C1237 1.387 . S
C1238 C1241 1.387 . S
H1239 C1235 0.950 . S
H1240 C1237 0.950 . S
C1241 C1232 1.390 . S
C1241 H1234 0.950 . S
C1241 C1238 1.387 . S
C1242 C1243 1.387 . S
C1242 H1246 0.950 . S
C1242 C1251 1.390 . S
C1243 C1242 1.387 . S
C1243 C1245 1.387 . S
H1244 C1251 0.950 . S
C1245 C1243 1.387 . S
C1245 C1247 1.390 . S
C1245 H1249 0.950 . S
H1246 C1242 0.950 . S
C1247 C1245 1.390 . S
C1247 C1248 1.387 . S
C1247 H1250 0.950 . S
C1248 C1247 1.387 . S
C1248 C1251 1.387 . S
H1249 C1245 0.950 . S
H1250 C1247 0.950 . S
C1251 C1242 1.390 . S
C1251 H1244 0.950 . S
C1251 C1248 1.387 . S
C1252 C1253 1.387 . S
C1252 H1256 0.950 1_554 S
C1252 C1261 1.390 . S
C1253 C1252 1.387 . S
C1253 C1255 1.387 . S
H1254 C1261 0.950 . S
C1255 C1253 1.387 . S
C1255 C1257 1.390 1_565 S
C1255 H1259 0.950 . S
H1256 C1252 0.950 1_556 S
C1257 C1255 1.390 1_545 S
C1257 C1258 1.387 . S
C1257 H1260 0.950 . S
C1258 C1257 1.387 . S
C1258 C1261 1.387 1_545 S
H1259 C1255 0.950 . S
H1260 C1257 0.950 . S
C1261 C1252 1.390 . S
C1261 H1254 0.950 . S
C1261 C1258 1.387 1_565 S
C1262 C1263 1.387 . S
C1262 H1266 0.950 . S
C1262 C1271 1.390 . S
C1263 C1262 1.387 . S
C1263 C1265 1.387 . S
H1264 C1271 0.950 . S
C1265 C1263 1.387 . S
C1265 C1267 1.390 . S
C1265 H1269 0.950 . S
H1266 C1262 0.950 . S
C1267 C1265 1.390 . S
C1267 C1268 1.387 . S
C1267 H1270 0.950 . S
C1268 C1267 1.387 . S
C1268 C1271 1.387 . S
H1269 C1265 0.950 . S
H1270 C1267 0.950 . S
C1271 C1262 1.390 . S
C1271 H1264 0.950 . S
C1271 C1268 1.387 . S
C1272 C1273 1.387 . S
C1272 H1276 0.950 . S
C1272 C1281 1.390 . S
C1273 C1272 1.387 . S
C1273 C1275 1.387 . S
H1274 C1281 0.950 1_554 S
C1275 C1273 1.387 . S
C1275 C1277 1.390 . S
C1275 H1279 0.950 . S
H1276 C1272 0.950 . S
C1277 C1275 1.390 . S
C1277 C1278 1.387 1_556 S
C1277 H1280 0.950 . S
C1278 C1277 1.387 1_554 S
C1278 C1281 1.387 1_554 S
H1279 C1275 0.950 . S
H1280 C1277 0.950 . S
C1281 C1272 1.390 . S
C1281 H1274 0.950 1_556 S
C1281 C1278 1.387 1_556 S
C1282 C1283 1.387 . S
C1282 H1286 0.950 . S
C1282 C1291 1.390 . S
C1283 C1282 1.387 . S
C1283 C1285 1.387 . S
H1284 C1291 0.950 . S
C1285 C1283 1.387 . S
C1285 C1287 1.390 . S
C1285 H1289 0.950 . S
H1286 C1282 0.950 . S
C1287 C1285 1.390 . S
C1287 C1288 1.387 . S
C1287 H1290 0.950 . S
C1288 C1287 1.387 . S
C1288 C1291 1.387 . S
H1289 C1285 0.950 . S
H1290 C1287 0.950 . S
C1291 C1282 1.390 . S
C1291 H1284 0.950 . S
C1291 C1288 1.387 . S
C1292 C1293 1.387 . S
C1292 H1296 0.950 . S
C1292 C1301 1.390 . S
C1293 C1292 1.387 . S
C1293 C1295 1.387 . S
H1294 C1301 0.950 . S
C1295 C1293 1.387 . S
C1295 C1297 1.390 . S
C1295 H1299 0.950 . S
H1296 C1292 0.950 . S
C1297 C1295 1.390 . S
C1297 C1298 1.387 . S
C1297 H1300 0.950 . S
C1298 C1297 1.387 . S
C1298 C1301 1.387 . S
H1299 C1295 0.950 . S
H1300 C1297 0.950 . S
C1301 C1292 1.390 . S
C1301 H1294 0.950 . S
C1301 C1298 1.387 . S
C1302 C1303 1.387 . S
C1302 H1306 0.950 . S
C1302 C1311 1.390 . S
C1303 C1302 1.387 . S
C1303 C1305 1.387 . S
H1304 C1311 0.950 . S
C1305 C1303 1.387 . S
C1305 C1307 1.390 . S
C1305 H1309 0.950 . S
H1306 C1302 0.950 . S
C1307 C1305 1.390 . S
C1307 C1308 1.387 . S
C1307 H1310 0.950 . S
C1308 C1307 1.387 . S
C1308 C1311 1.387 . S
H1309 C1305 0.950 . S
H1310 C1307 0.950 . S
C1311 C1302 1.390 . S
C1311 H1304 0.950 . S
C1311 C1308 1.387 . S
C1312 C1313 1.387 . S
C1312 H1316 0.950 1_545 S
C1312 C1321 1.390 . S
C1313 C1312 1.387 . S
C1313 C1315 1.387 . S
H1314 C1321 0.947 . S
C1315 C1313 1.387 . S
C1315 C1317 1.390 . S
C1315 H1319 0.950 . S
H1316 C1312 0.950 1_565 S
C1317 C1315 1.390 . S
C1317 C1318 1.387 . S
C1317 H1320 0.950 . S
C1318 C1317 1.387 . S
C1318 C1321 1.387 . S
H1319 C1315 0.950 . S
H1320 C1317 0.950 . S
C1321 C1312 1.390 . S
C1321 H1314 0.947 . S
C1321 C1318 1.387 . S
C1322 C1323 1.387 . S
C1322 H1326 0.950 . S
C1322 C1331 1.390 . S
C1323 C1322 1.387 . S
C1323 C1325 1.387 . S
H1324 C1331 0.950 . S
C1325 C1323 1.387 . S
C1325 C1327 1.390 . S
C1325 H1329 0.950 . S
H1326 C1322 0.950 . S
C1327 C1325 1.390 . S
C1327 C1328 1.387 . S
C1327 H1330 0.950 . S
C1328 C1327 1.387 . S
C1328 C1331 1.387 . S
H1329 C1325 0.950 . S
H1330 C1327 0.950 . S
C1331 C1322 1.390 . S
C1331 H1324 0.950 . S
C1331 C1328 1.387 . S
C1332 C1333 1.387 . S
C1332 H1336 0.950 . S
C1332 C1341 1.390 . S
C1333 C1332 1.387 . S
C1333 C1335 1.387 . S
H1334 C1341 0.950 . S
C1335 C1333 1.387 . S
C1335 C1337 1.390 . S
C1335 H1339 0.950 . S
H1336 C1332 0.950 . S
C1337 C1335 1.390 . S
C1337 C1338 1.387 . S
C1337 H1340 0.950 . S
C1338 C1337 1.387 . S
C1338 C1341 1.387 . S
H1339 C1335 0.950 . S
H1340 C1337 0.950 . S
C1341 C1332 1.390 . S
C1341 H1334 0.950 . S
C1341 C1338 1.387 . S
C1342 C1343 1.387 . S
C1342 H1346 0.950 . S
C1342 C1351 1.390 . S
C1343 C1342 1.387 . S
C1343 C1345 1.387 . S
H1344 C1351 0.950 . S
C1345 C1343 1.387 . S
C1345 C1347 1.390 . S
C1345 H1349 0.950 . S
H1346 C1342 0.950 . S
C1347 C1345 1.390 . S
C1347 C1348 1.387 . S
C1347 H1350 0.950 . S
C1348 C1347 1.387 . S
C1348 C1351 1.387 . S
H1349 C1345 0.950 . S
H1350 C1347 0.950 . S
C1351 C1342 1.390 . S
C1351 H1344 0.950 . S
C1351 C1348 1.387 . S
C1352 C1353 1.387 . S
C1352 H1356 0.950 . S
C1352 C1361 1.390 . S
C1353 C1352 1.387 . S
C1353 C1355 1.387 . S
H1354 C1361 0.950 . S
C1355 C1353 1.387 . S
C1355 C1357 1.390 . S
C1355 H1359 0.950 . S
H1356 C1352 0.950 . S
C1357 C1355 1.390 . S
C1357 C1358 1.387 . S
C1357 H1360 0.950 . S
C1358 C1357 1.387 . S
C1358 C1361 1.387 . S
H1359 C1355 0.950 . S
H1360 C1357 0.950 . S
C1361 C1352 1.390 . S
C1361 H1354 0.950 . S
C1361 C1358 1.387 . S
C1362 C1363 1.387 . S
C1362 H1366 0.950 . S
C1362 C1371 1.390 . S
C1363 C1362 1.387 . S
C1363 C1365 1.387 . S
H1364 C1371 0.950 . S
C1365 C1363 1.387 . S
C1365 C1367 1.390 . S
C1365 H1369 0.950 . S
H1366 C1362 0.950 . S
C1367 C1365 1.390 . S
C1367 C1368 1.387 . S
C1367 H1370 0.950 . S
C1368 C1367 1.387 . S
C1368 C1371 1.387 . S
H1369 C1365 0.950 . S
H1370 C1367 0.950 . S
C1371 C1362 1.390 . S
C1371 H1364 0.950 . S
C1371 C1368 1.387 . S
C1372 C1373 1.387 . S
C1372 H1376 0.950 . S
C1372 C1381 1.390 . S
C1373 C1372 1.387 . S
C1373 C1375 1.387 . S
H1374 C1381 0.950 . S
C1375 C1373 1.387 . S
C1375 C1377 1.390 . S
C1375 H1379 0.950 . S
H1376 C1372 0.950 . S
C1377 C1375 1.390 . S
C1377 C1378 1.387 . S
C1377 H1380 0.950 . S
C1378 C1377 1.387 . S
C1378 C1381 1.387 . S
H1379 C1375 0.950 . S
H1380 C1377 0.950 . S
C1381 C1372 1.390 . S
C1381 H1374 0.950 . S
C1381 C1378 1.387 . S
C1382 C1383 1.387 . S
C1382 H1386 0.950 . S
C1382 C1391 1.390 . S
C1383 C1382 1.387 . S
C1383 C1385 1.387 . S
H1384 C1391 0.950 . S
C1385 C1383 1.387 . S
C1385 C1387 1.390 . S
C1385 H1389 0.950 . S
H1386 C1382 0.950 . S
C1387 C1385 1.390 . S
C1387 C1388 1.387 . S
C1387 H1390 0.950 . S
C1388 C1387 1.387 . S
C1388 C1391 1.387 . S
H1389 C1385 0.950 . S
H1390 C1387 0.950 . S
C1391 C1382 1.390 . S
C1391 H1384 0.950 . S
C1391 C1388 1.387 . S
C1392 C1393 1.387 . S
C1392 H1396 0.950 . S
C1392 C1401 1.390 . S
C1393 C1392 1.387 . S
C1393 C1395 1.387 . S
H1394 C1401 0.950 . S
C1395 C1393 1.387 . S
C1395 C1397 1.390 . S
C1395 H1399 0.950 . S
H1396 C1392 0.950 . S
C1397 C1395 1.390 . S
C1397 C1398 1.387 . S
C1397 H1400 0.950 . S
C1398 C1397 1.387 . S
C1398 C1401 1.387 . S
H1399 C1395 0.950 . S
H1400 C1397 0.950 . S
C1401 C1392 1.390 . S
C1401 H1394 0.950 . S
C1401 C1398 1.387 . S
C1402 C1403 1.387 1_565 S
C1402 H1406 0.950 . S
C1402 C1411 1.390 . S
C1403 C1402 1.387 1_545 S
C1403 C1405 1.387 . S
H1404 C1411 0.950 . S
C1405 C1403 1.387 . S
C1405 C1407 1.390 . S
C1405 H1409 0.950 . S
H1406 C1402 0.950 . S
C1407 C1405 1.390 . S
C1407 C1408 1.387 . S
C1407 H1410 0.950 . S
C1408 C1407 1.387 . S
C1408 C1411 1.387 1_545 S
H1409 C1405 0.950 . S
H1410 C1407 0.950 . S
C1411 C1402 1.390 . S
C1411 H1404 0.950 . S
C1411 C1408 1.387 1_565 S
C1412 C1413 1.387 . S
C1412 H1416 0.950 . S
C1412 C1421 1.390 . S
C1413 C1412 1.387 . S
C1413 C1415 1.387 . S
H1414 C1421 0.950 . S
C1415 C1413 1.387 . S
C1415 C1417 1.390 . S
C1415 H1419 0.950 . S
H1416 C1412 0.950 . S
C1417 C1415 1.390 . S
C1417 C1418 1.387 . S
C1417 H1420 0.950 . S
C1418 C1417 1.387 . S
C1418 C1421 1.387 . S
H1419 C1415 0.950 . S
H1420 C1417 0.950 . S
C1421 C1412 1.390 . S
C1421 H1414 0.950 . S
C1421 C1418 1.387 . S
C1422 C1423 1.387 . S
C1422 H1426 0.950 . S
C1422 C1431 1.390 . S
C1423 C1422 1.387 . S
C1423 C1425 1.387 . S
H1424 C1431 0.950 . S
C1425 C1423 1.387 . S
C1425 C1427 1.390 . S
C1425 H1429 0.950 . S
H1426 C1422 0.950 . S
C1427 C1425 1.390 . S
C1427 C1428 1.387 . S
C1427 H1430 0.950 . S
C1428 C1427 1.387 . S
C1428 C1431 1.387 . S
H1429 C1425 0.950 . S
H1430 C1427 0.950 . S
C1431 C1422 1.390 . S
C1431 H1424 0.950 . S
C1431 C1428 1.387 . S
C1432 C1433 1.387 . S
C1432 H1436 0.950 . S
C1432 C1441 1.390 . S
C1433 C1432 1.387 . S
C1433 C1435 1.387 . S
H1434 C1441 0.950 . S
C1435 C1433 1.387 . S
C1435 C1437 1.390 . S
C1435 H1439 0.950 . S
H1436 C1432 0.950 . S
C1437 C1435 1.390 . S
C1437 C1438 1.387 . S
C1437 H1440 0.950 . S
C1438 C1437 1.387 . S
C1438 C1441 1.387 . S
H1439 C1435 0.950 . S
H1440 C1437 0.950 . S
C1441 C1432 1.390 . S
C1441 H1434 0.950 . S
C1441 C1438 1.387 . S
C1442 C1443 1.387 . S
C1442 H1446 0.950 . S
C1442 C1451 1.390 . S
C1443 C1442 1.387 . S
C1443 C1445 1.387 . S
H1444 C1451 0.950 . S
C1445 C1443 1.387 . S
C1445 C1447 1.390 . S
C1445 H1449 0.950 . S
H1446 C1442 0.950 . S
C1447 C1445 1.390 . S
C1447 C1448 1.387 . S
C1447 H1450 0.950 . S
C1448 C1447 1.387 . S
C1448 C1451 1.387 . S
H1449 C1445 0.950 . S
H1450 C1447 0.950 . S
C1451 C1442 1.390 . S
C1451 H1444 0.950 . S
C1451 C1448 1.387 . S
C1452 C1453 1.387 . S
C1452 H1456 0.950 . S
C1452 C1461 1.390 1_556 S
C1453 C1452 1.387 . S
C1453 C1455 1.387 . S
H1454 C1461 0.950 . S
C1455 C1453 1.387 . S
C1455 C1457 1.390 1_556 S
C1455 H1459 0.950 . S
H1456 C1452 0.950 . S
C1457 C1455 1.390 1_554 S
C1457 C1458 1.387 . S
C1457 H1460 0.950 . S
C1458 C1457 1.387 . S
C1458 C1461 1.387 . S
H1459 C1455 0.950 . S
H1460 C1457 0.950 . S
C1461 C1452 1.390 1_554 S
C1461 H1454 0.950 . S
C1461 C1458 1.387 . S
C1462 C1463 1.387 . S
C1462 H1466 0.950 . S
C1462 C1471 1.390 . S
C1463 C1462 1.387 . S
C1463 C1465 1.387 . S
H1464 C1471 0.950 . S
C1465 C1463 1.387 . S
C1465 C1467 1.390 . S
C1465 H1469 0.950 . S
H1466 C1462 0.950 . S
C1467 C1465 1.390 . S
C1467 C1468 1.387 . S
C1467 H1470 0.950 . S
C1468 C1467 1.387 . S
C1468 C1471 1.387 . S
H1469 C1465 0.950 . S
H1470 C1467 0.950 . S
C1471 C1462 1.390 . S
C1471 H1464 0.950 . S
C1471 C1468 1.387 . S
C1472 C1473 1.387 . S
C1472 H1476 0.950 . S
C1472 C1481 1.390 . S
C1473 C1472 1.387 . S
C1473 C1475 1.387 . S
H1474 C1481 0.950 . S
C1475 C1473 1.387 . S
C1475 C1477 1.390 . S
C1475 H1479 0.950 . S
H1476 C1472 0.950 . S
C1477 C1475 1.390 . S
C1477 C1478 1.387 . S
C1477 H1480 0.950 . S
C1478 C1477 1.387 . S
C1478 C1481 1.387 . S
H1479 C1475 0.950 . S
H1480 C1477 0.950 . S
C1481 C1472 1.390 . S
C1481 H1474 0.950 . S
C1481 C1478 1.387 . S
C1482 C1483 1.387 . S
C1482 H1486 0.950 . S
C1482 C1491 1.390 . S
C1483 C1482 1.387 . S
C1483 C1485 1.387 1_455 S
H1484 C1491 0.950 . S
C1485 C1483 1.387 1_655 S
C1485 C1487 1.390 . S
C1485 H1489 0.950 . S
H1486 C1482 0.950 . S
C1487 C1485 1.390 . S
C1487 C1488 1.387 1_655 S
C1487 H1490 0.950 . S
C1488 C1487 1.387 1_455 S
C1488 C1491 1.387 . S
H1489 C1485 0.950 . S
H1490 C1487 0.950 . S
C1491 C1482 1.390 . S
C1491 H1484 0.950 . S
C1491 C1488 1.387 . S
C1492 C1493 1.387 . S
C1492 H1496 0.950 . S
C1492 C1501 1.390 1_655 S
C1493 C1492 1.387 . S
C1493 C1495 1.387 . S
H1494 C1501 0.950 . S
C1495 C1493 1.387 . S
C1495 C1497 1.390 1_655 S
C1495 H1499 0.950 . S
H1496 C1492 0.950 . S
C1497 C1495 1.390 1_455 S
C1497 C1498 1.387 . S
C1497 H1500 0.950 . S
C1498 C1497 1.387 . S
C1498 C1501 1.387 . S
H1499 C1495 0.950 . S
H1500 C1497 0.950 . S
C1501 C1492 1.390 1_455 S
C1501 H1494 0.950 . S
C1501 C1498 1.387 . S
C1502 C1503 1.387 . S
C1502 H1506 0.950 . S
C1502 C1511 1.390 . S
C1503 C1502 1.387 . S
C1503 C1505 1.387 . S
H1504 C1511 0.950 . S
C1505 C1503 1.387 . S
C1505 C1507 1.390 . S
C1505 H1509 0.950 . S
H1506 C1502 0.950 . S
C1507 C1505 1.390 . S
C1507 C1508 1.387 . S
C1507 H1510 0.950 . S
C1508 C1507 1.387 . S
C1508 C1511 1.387 . S
H1509 C1505 0.950 . S
H1510 C1507 0.950 . S
C1511 C1502 1.390 . S
C1511 H1504 0.950 . S
C1511 C1508 1.387 . S
C1512 C1513 1.387 . S
C1512 H1516 0.950 . S
C1512 C1521 1.390 . S
C1513 C1512 1.387 . S
C1513 C1515 1.387 . S
H1514 C1521 0.950 . S
C1515 C1513 1.387 . S
C1515 C1517 1.390 . S
C1515 H1519 0.950 . S
H1516 C1512 0.950 . S
C1517 C1515 1.390 . S
C1517 C1518 1.387 . S
C1517 H1520 0.950 . S
C1518 C1517 1.387 . S
C1518 C1521 1.387 . S
H1519 C1515 0.950 . S
H1520 C1517 0.950 . S
C1521 C1512 1.390 . S
C1521 H1514 0.950 . S
C1521 C1518 1.387 . S
C1522 C1523 1.387 . S
C1522 H1526 0.950 1_556 S
C1522 C1531 1.390 . S
C1523 C1522 1.387 . S
C1523 C1525 1.387 . S
H1524 C1531 0.950 . S
C1525 C1523 1.387 . S
C1525 C1527 1.390 . S
C1525 H1529 0.950 . S
H1526 C1522 0.950 1_554 S
C1527 C1525 1.390 . S
C1527 C1528 1.387 . S
C1527 H1530 0.950 . S
C1528 C1527 1.387 . S
C1528 C1531 1.387 . S
H1529 C1525 0.950 . S
H1530 C1527 0.950 . S
C1531 C1522 1.390 . S
C1531 H1524 0.950 . S
C1531 C1528 1.387 . S
C1532 C1533 1.387 . S
C1532 H1536 0.950 . S
C1532 C1541 1.390 . S
C1533 C1532 1.387 . S
C1533 C1535 1.387 . S
H1534 C1541 0.950 . S
C1535 C1533 1.387 . S
C1535 C1537 1.390 . S
C1535 H1539 0.950 . S
H1536 C1532 0.950 . S
C1537 C1535 1.390 . S
C1537 C1538 1.387 . S
C1537 H1540 0.950 . S
C1538 C1537 1.387 . S
C1538 C1541 1.387 . S
H1539 C1535 0.950 . S
H1540 C1537 0.950 . S
C1541 C1532 1.390 . S
C1541 H1534 0.950 . S
C1541 C1538 1.387 . S
C1542 C1543 1.387 . S
C1542 H1546 0.950 . S
C1542 C1551 1.390 . S
C1543 C1542 1.387 . S
C1543 C1545 1.387 . S
H1544 C1551 0.950 . S
C1545 C1543 1.387 . S
C1545 C1547 1.390 . S
C1545 H1549 0.950 . S
H1546 C1542 0.950 . S
C1547 C1545 1.390 . S
C1547 C1548 1.387 . S
C1547 H1550 0.950 . S
C1548 C1547 1.387 . S
C1548 C1551 1.387 . S
H1549 C1545 0.950 . S
H1550 C1547 0.950 . S
C1551 C1542 1.390 . S
C1551 H1544 0.950 . S
C1551 C1548 1.387 . S
C1552 C1553 1.387 . S
C1552 H1556 0.950 . S
C1552 C1561 1.390 . S
C1553 C1552 1.387 . S
C1553 C1555 1.387 . S
H1554 C1561 0.950 . S
C1555 C1553 1.387 . S
C1555 C1557 1.390 . S
C1555 H1559 0.950 . S
H1556 C1552 0.950 . S
C1557 C1555 1.390 . S
C1557 C1558 1.387 . S
C1557 H1560 0.950 . S
C1558 C1557 1.387 . S
C1558 C1561 1.387 . S
H1559 C1555 0.950 . S
H1560 C1557 0.950 . S
C1561 C1552 1.390 . S
C1561 H1554 0.950 . S
C1561 C1558 1.387 . S
C1562 C1563 1.387 . S
C1562 H1566 0.950 . S
C1562 C1571 1.390 . S
C1563 C1562 1.387 . S
C1563 C1565 1.387 . S
H1564 C1571 0.950 . S
C1565 C1563 1.387 . S
C1565 C1567 1.390 . S
C1565 H1569 0.950 . S
H1566 C1562 0.950 . S
C1567 C1565 1.390 . S
C1567 C1568 1.387 . S
C1567 H1570 0.950 . S
C1568 C1567 1.387 . S
C1568 C1571 1.387 . S
H1569 C1565 0.950 . S
H1570 C1567 0.950 . S
C1571 C1562 1.390 . S
C1571 H1564 0.950 . S
C1571 C1568 1.387 . S
C1572 C1573 1.387 . S
C1572 H1576 0.950 . S
C1572 C1581 1.390 . S
C1573 C1572 1.387 . S
C1573 C1575 1.387 . S
H1574 C1581 0.950 . S
C1575 C1573 1.387 . S
C1575 C1577 1.390 . S
C1575 H1579 0.950 . S
H1576 C1572 0.950 . S
C1577 C1575 1.390 . S
C1577 C1578 1.387 . S
C1577 H1580 0.950 . S
C1578 C1577 1.387 . S
C1578 C1581 1.387 . S
H1579 C1575 0.950 . S
H1580 C1577 0.950 . S
C1581 C1572 1.390 . S
C1581 H1574 0.950 . S
C1581 C1578 1.387 . S
C1582 C1583 1.387 . S
C1582 H1586 0.950 . S
C1582 C1591 1.390 . S
C1583 C1582 1.387 . S
C1583 C1585 1.387 . S
H1584 C1591 0.950 . S
C1585 C1583 1.387 . S
C1585 C1587 1.390 . S
C1585 H1589 0.950 . S
H1586 C1582 0.950 . S
C1587 C1585 1.390 . S
C1587 C1588 1.387 . S
C1587 H1590 0.950 . S
C1588 C1587 1.387 . S
C1588 C1591 1.387 . S
H1589 C1585 0.950 . S
H1590 C1587 0.950 . S
C1591 C1582 1.390 . S
C1591 H1584 0.950 . S
C1591 C1588 1.387 . S
C1592 C1593 1.387 . S
C1592 H1596 0.950 . S
C1592 C1601 1.390 . S
C1593 C1592 1.387 . S
C1593 C1595 1.387 . S
H1594 C1601 0.950 . S
C1595 C1593 1.387 . S
C1595 C1597 1.390 . S
C1595 H1599 0.950 . S
H1596 C1592 0.950 . S
C1597 C1595 1.390 . S
C1597 C1598 1.387 . S
C1597 H1600 0.950 . S
C1598 C1597 1.387 . S
C1598 C1601 1.387 . S
H1599 C1595 0.950 . S
H1600 C1597 0.950 . S
C1601 C1592 1.390 . S
C1601 H1594 0.950 . S
C1601 C1598 1.387 . S
C1602 C1603 1.387 . S
C1602 H1606 0.950 . S
C1602 C1611 1.390 . S
C1603 C1602 1.387 . S
C1603 C1605 1.387 . S
H1604 C1611 0.950 . S
C1605 C1603 1.387 . S
C1605 C1607 1.390 . S
C1605 H1609 0.950 . S
H1606 C1602 0.950 . S
C1607 C1605 1.390 . S
C1607 C1608 1.387 . S
C1607 H1610 0.950 . S
C1608 C1607 1.387 . S
C1608 C1611 1.387 . S
H1609 C1605 0.950 . S
H1610 C1607 0.950 . S
C1611 C1602 1.390 . S
C1611 H1604 0.950 . S
C1611 C1608 1.387 . S
C1612 C1613 1.387 . S
C1612 H1616 0.950 . S
C1612 C1621 1.390 . S
C1613 C1612 1.387 . S
C1613 C1615 1.387 . S
H1614 C1621 0.950 . S
C1615 C1613 1.387 . S
C1615 C1617 1.390 . S
C1615 H1619 0.950 . S
H1616 C1612 0.950 . S
C1617 C1615 1.390 . S
C1617 C1618 1.387 . S
C1617 H1620 0.950 . S
C1618 C1617 1.387 . S
C1618 C1621 1.387 . S
H1619 C1615 0.950 . S
H1620 C1617 0.950 . S
C1621 C1612 1.390 . S
C1621 H1614 0.950 . S
C1621 C1618 1.387 . S
C1622 C1623 1.387 . S
C1622 H1626 0.950 . S
C1622 C1631 1.390 1_565 S
C1623 C1622 1.387 . S
C1623 C1625 1.387 . S
H1624 C1631 0.950 . S
C1625 C1623 1.387 . S
C1625 C1627 1.390 . S
C1625 H1629 0.950 . S
H1626 C1622 0.950 . S
C1627 C1625 1.390 . S
C1627 C1628 1.387 1_565 S
C1627 H1630 0.950 . S
C1628 C1627 1.387 1_545 S
C1628 C1631 1.387 . S
H1629 C1625 0.950 . S
H1630 C1627 0.950 . S
C1631 C1622 1.390 1_545 S
C1631 H1624 0.950 . S
C1631 C1628 1.387 . S
C1632 C1633 1.387 . S
C1632 H1636 0.950 . S
C1632 C1641 1.390 . S
C1633 C1632 1.387 . S
C1633 C1635 1.387 . S
H1634 C1641 0.950 . S
C1635 C1633 1.387 . S
C1635 C1637 1.390 . S
C1635 H1639 0.950 . S
H1636 C1632 0.950 . S
C1637 C1635 1.390 . S
C1637 C1638 1.387 . S
C1637 H1640 0.950 . S
C1638 C1637 1.387 . S
C1638 C1641 1.387 . S
H1639 C1635 0.950 . S
H1640 C1637 0.950 . S
C1641 C1632 1.390 . S
C1641 H1634 0.950 . S
C1641 C1638 1.387 . S
C1642 C1643 1.387 . S
C1642 H1646 0.950 . S
C1642 C1651 1.390 . S
C1643 C1642 1.387 . S
C1643 C1645 1.387 . S
H1644 C1651 0.950 . S
C1645 C1643 1.387 . S
C1645 C1647 1.390 . S
C1645 H1649 0.950 . S
H1646 C1642 0.950 . S
C1647 C1645 1.390 . S
C1647 C1648 1.387 . S
C1647 H1650 0.950 . S
C1648 C1647 1.387 . S
C1648 C1651 1.387 . S
H1649 C1645 0.950 . S
H1650 C1647 0.950 . S
C1651 C1642 1.390 . S
C1651 H1644 0.950 . S
C1651 C1648 1.387 . S
C1652 C1653 1.387 . S
C1652 H1656 0.950 . S
C1652 C1661 1.390 . S
C1653 C1652 1.387 . S
C1653 C1655 1.387 . S
H1654 C1661 0.950 . S
C1655 C1653 1.387 . S
C1655 C1657 1.390 . S
C1655 H1659 0.950 . S
H1656 C1652 0.950 . S
C1657 C1655 1.390 . S
C1657 C1658 1.387 . S
C1657 H1660 0.950 . S
C1658 C1657 1.387 . S
C1658 C1661 1.387 . S
H1659 C1655 0.950 . S
H1660 C1657 0.950 . S
C1661 C1652 1.390 . S
C1661 H1654 0.950 . S
C1661 C1658 1.387 . S
C1662 C1663 1.387 . S
C1662 H1666 0.950 . S
C1662 C1671 1.390 . S
C1663 C1662 1.387 . S
C1663 C1665 1.387 . S
H1664 C1671 0.950 . S
C1665 C1663 1.387 . S
C1665 C1667 1.390 . S
C1665 H1669 0.950 . S
H1666 C1662 0.950 . S
C1667 C1665 1.390 . S
C1667 C1668 1.387 . S
C1667 H1670 0.950 . S
C1668 C1667 1.387 . S
C1668 C1671 1.387 . S
H1669 C1665 0.950 . S
H1670 C1667 0.950 . S
C1671 C1662 1.390 . S
C1671 H1664 0.950 . S
C1671 C1668 1.387 . S
C1672 C1673 1.387 . S
C1672 H1676 0.950 . S
C1672 C1681 1.390 . S
C1673 C1672 1.387 . S
C1673 C1675 1.387 . S
H1674 C1681 0.950 . S
C1675 C1673 1.387 . S
C1675 C1677 1.390 . S
C1675 H1679 0.950 . S
H1676 C1672 0.950 . S
C1677 C1675 1.390 . S
C1677 C1678 1.387 . S
C1677 H1680 0.950 . S
C1678 C1677 1.387 . S
C1678 C1681 1.387 . S
H1679 C1675 0.950 . S
H1680 C1677 0.950 . S
C1681 C1672 1.390 . S
C1681 H1674 0.950 . S
C1681 C1678 1.387 . S
C1682 C1683 1.387 . S
C1682 H1686 0.950 . S
C1682 C1691 1.390 . S
C1683 C1682 1.387 . S
C1683 C1685 1.387 . S
H1684 C1691 0.950 . S
C1685 C1683 1.387 . S
C1685 C1687 1.390 . S
C1685 H1689 0.950 . S
H1686 C1682 0.950 . S
C1687 C1685 1.390 . S
C1687 C1688 1.387 . S
C1687 H1690 0.950 . S
C1688 C1687 1.387 . S
C1688 C1691 1.387 . S
H1689 C1685 0.950 . S
H1690 C1687 0.950 . S
C1691 C1682 1.390 . S
C1691 H1684 0.950 . S
C1691 C1688 1.387 . S
C1692 C1693 1.387 . S
C1692 H1696 0.950 . S
C1692 C1701 1.390 . S
C1693 C1692 1.387 . S
C1693 C1695 1.387 . S
H1694 C1701 0.950 . S
C1695 C1693 1.387 . S
C1695 C1697 1.390 . S
C1695 H1699 0.950 1_455 S
H1696 C1692 0.950 . S
C1697 C1695 1.390 . S
C1697 C1698 1.387 . S
C1697 H1700 0.950 1_455 S
C1698 C1697 1.387 . S
C1698 C1701 1.387 . S
H1699 C1695 0.950 1_655 S
H1700 C1697 0.950 1_655 S
C1701 C1692 1.390 . S
C1701 H1694 0.950 . S
C1701 C1698 1.387 . S
C1702 C1703 1.387 . S
C1702 H1706 0.950 . S
C1702 C1711 1.390 . S
C1703 C1702 1.387 . S
C1703 C1705 1.387 . S
H1704 C1711 0.950 . S
C1705 C1703 1.387 . S
C1705 C1707 1.390 . S
C1705 H1709 0.950 . S
H1706 C1702 0.950 . S
C1707 C1705 1.390 . S
C1707 C1708 1.387 . S
C1707 H1710 0.950 . S
C1708 C1707 1.387 . S
C1708 C1711 1.387 . S
H1709 C1705 0.950 . S
H1710 C1707 0.950 . S
C1711 C1702 1.390 . S
C1711 H1704 0.950 . S
C1711 C1708 1.387 . S
C1712 C1713 1.387 . S
C1712 H1716 0.950 . S
C1712 C1721 1.390 . S
C1713 C1712 1.387 . S
C1713 C1715 1.387 . S
H1714 C1721 0.950 . S
C1715 C1713 1.387 . S
C1715 C1717 1.390 . S
C1715 H1719 0.950 1_554 S
H1716 C1712 0.950 . S
C1717 C1715 1.390 . S
C1717 C1718 1.387 . S
C1717 H1720 0.950 1_554 S
C1718 C1717 1.387 . S
C1718 C1721 1.387 . S
H1719 C1715 0.950 1_556 S
H1720 C1717 0.950 1_556 S
C1721 C1712 1.390 . S
C1721 H1714 0.950 . S
C1721 C1718 1.387 . S
C1722 C1723 1.387 . S
C1722 H1726 0.950 . S
C1722 C1731 1.390 . S
C1723 C1722 1.387 . S
C1723 C1725 1.387 . S
H1724 C1731 0.950 . S
C1725 C1723 1.387 . S
C1725 C1727 1.390 . S
C1725 H1729 0.950 . S
H1726 C1722 0.950 . S
C1727 C1725 1.390 . S
C1727 C1728 1.387 . S
C1727 H1730 0.950 . S
C1728 C1727 1.387 . S
C1728 C1731 1.387 . S
H1729 C1725 0.950 . S
H1730 C1727 0.950 . S
C1731 C1722 1.390 . S
C1731 H1724 0.950 . S
C1731 C1728 1.387 . S
C1732 C1733 1.387 . S
C1732 H1736 0.950 . S
C1732 C1741 1.390 . S
C1733 C1732 1.387 . S
C1733 C1735 1.387 . S
H1734 C1741 0.950 . S
C1735 C1733 1.387 . S
C1735 C1737 1.390 . S
C1735 H1739 0.950 . S
H1736 C1732 0.950 . S
C1737 C1735 1.390 . S
C1737 C1738 1.387 . S
C1737 H1740 0.950 . S
C1738 C1737 1.387 . S
C1738 C1741 1.387 . S
H1739 C1735 0.950 . S
H1740 C1737 0.950 . S
C1741 C1732 1.390 . S
C1741 H1734 0.950 . S
C1741 C1738 1.387 . S
C1742 C1743 1.387 . S
C1742 H1746 0.950 . S
C1742 C1751 1.390 . S
C1743 C1742 1.387 . S
C1743 C1745 1.387 . S
H1744 C1751 0.950 . S
C1745 C1743 1.387 . S
C1745 C1747 1.390 . S
C1745 H1749 0.950 . S
H1746 C1742 0.950 . S
C1747 C1745 1.390 . S
C1747 C1748 1.387 . S
C1747 H1750 0.950 . S
C1748 C1747 1.387 . S
C1748 C1751 1.387 . S
H1749 C1745 0.950 . S
H1750 C1747 0.950 . S
C1751 C1742 1.390 . S
C1751 H1744 0.950 . S
C1751 C1748 1.387 . S
C1752 C1753 1.387 . S
C1752 H1756 0.950 . S
C1752 C1761 1.390 . S
C1753 C1752 1.387 . S
C1753 C1755 1.387 . S
H1754 C1761 0.950 . S
C1755 C1753 1.387 . S
C1755 C1757 1.390 . S
C1755 H1759 0.950 . S
H1756 C1752 0.950 . S
C1757 C1755 1.390 . S
C1757 C1758 1.387 . S
C1757 H1760 0.950 . S
C1758 C1757 1.387 . S
C1758 C1761 1.387 . S
H1759 C1755 0.950 . S
H1760 C1757 0.950 . S
C1761 C1752 1.390 . S
C1761 H1754 0.950 . S
C1761 C1758 1.387 . S
C1762 C1763 1.387 . S
C1762 H1766 0.950 . S
C1762 C1771 1.390 . S
C1763 C1762 1.387 . S
C1763 C1765 1.387 . S
H1764 C1771 0.950 . S
C1765 C1763 1.387 . S
C1765 C1767 1.390 . S
C1765 H1769 0.950 . S
H1766 C1762 0.950 . S
C1767 C1765 1.390 . S
C1767 C1768 1.387 . S
C1767 H1770 0.950 . S
C1768 C1767 1.387 . S
C1768 C1771 1.387 . S
H1769 C1765 0.950 . S
H1770 C1767 0.950 . S
C1771 C1762 1.390 . S
C1771 H1764 0.950 . S
C1771 C1768 1.387 . S
C1772 C1773 1.387 . S
C1772 H1776 0.950 . S
C1772 C1781 1.390 . S
C1773 C1772 1.387 . S
C1773 C1775 1.387 1_455 S
H1774 C1781 0.950 . S
C1775 C1773 1.387 1_655 S
C1775 C1777 1.390 . S
C1775 H1779 0.950 . S
H1776 C1772 0.950 . S
C1777 C1775 1.390 . S
C1777 C1778 1.387 1_655 S
C1777 H1780 0.950 . S
C1778 C1777 1.387 1_455 S
C1778 C1781 1.387 . S
H1779 C1775 0.950 . S
H1780 C1777 0.950 . S
C1781 C1772 1.390 . S
C1781 H1774 0.950 . S
C1781 C1778 1.387 . S
C1782 C1783 1.387 . S
C1782 H1786 0.950 . S
C1782 C1791 1.390 . S
C1783 C1782 1.387 . S
C1783 C1785 1.387 . S
H1784 C1791 0.950 . S
C1785 C1783 1.387 . S
C1785 C1787 1.390 . S
C1785 H1789 0.950 . S
H1786 C1782 0.950 . S
C1787 C1785 1.390 . S
C1787 C1788 1.387 . S
C1787 H1790 0.950 . S
C1788 C1787 1.387 . S
C1788 C1791 1.387 . S
H1789 C1785 0.950 . S
H1790 C1787 0.950 . S
C1791 C1782 1.390 . S
C1791 H1784 0.950 . S
C1791 C1788 1.387 . S
C1792 C1793 1.387 . S
C1792 H1796 0.950 . S
C1792 C1801 1.390 . S
C1793 C1792 1.387 . S
C1793 C1795 1.387 . S
H1794 C1801 0.950 . S
C1795 C1793 1.387 . S
C1795 C1797 1.390 . S
C1795 H1799 0.950 . S
H1796 C1792 0.950 . S
C1797 C1795 1.390 . S
C1797 C1798 1.387 . S
C1797 H1800 0.950 . S
C1798 C1797 1.387 . S
C1798 C1801 1.387 . S
H1799 C1795 0.950 . S
H1800 C1797 0.950 . S
C1801 C1792 1.390 . S
C1801 H1794 0.950 . S
C1801 C1798 1.387 . S
C1802 C1803 1.387 . S
C1802 H1806 0.950 . S
C1802 C1811 1.390 . S
C1803 C1802 1.387 . S
C1803 C1805 1.387 . S
H1804 C1811 0.950 . S
C1805 C1803 1.387 . S
C1805 C1807 1.390 . S
C1805 H1809 0.950 . S
H1806 C1802 0.950 . S
C1807 C1805 1.390 . S
C1807 C1808 1.387 . S
C1807 H1810 0.950 . S
C1808 C1807 1.387 . S
C1808 C1811 1.387 . S
H1809 C1805 0.950 . S
H1810 C1807 0.950 . S
C1811 C1802 1.390 . S
C1811 H1804 0.950 . S
C1811 C1808 1.387 . S
C1812 C1813 1.387 1_455 S
C1812 H1816 0.950 . S
C1812 C1821 1.390 . S
C1813 C1812 1.387 1_655 S
C1813 C1815 1.387 . S
H1814 C1821 0.950 . S
C1815 C1813 1.387 . S
C1815 C1817 1.390 . S
C1815 H1819 0.950 . S
H1816 C1812 0.950 . S
C1817 C1815 1.390 . S
C1817 C1818 1.387 1_655 S
C1817 H1820 0.950 . S
C1818 C1817 1.387 1_455 S
C1818 C1821 1.387 . S
H1819 C1815 0.950 . S
H1820 C1817 0.950 . S
C1821 C1812 1.390 . S
C1821 H1814 0.950 . S
C1821 C1818 1.387 . S
C1822 C1823 1.387 . S
C1822 H1826 0.950 . S
C1822 C1831 1.390 . S
C1823 C1822 1.387 . S
C1823 C1825 1.387 . S
H1824 C1831 0.950 . S
C1825 C1823 1.387 . S
C1825 C1827 1.390 . S
C1825 H1829 0.950 . S
H1826 C1822 0.950 . S
C1827 C1825 1.390 . S
C1827 C1828 1.387 . S
C1827 H1830 0.950 . S
C1828 C1827 1.387 . S
C1828 C1831 1.387 . S
H1829 C1825 0.950 . S
H1830 C1827 0.950 . S
C1831 C1822 1.390 . S
C1831 H1824 0.950 . S
C1831 C1828 1.387 . S
C1832 C1833 1.387 . S
C1832 H1836 0.950 . S
C1832 C1841 1.390 . S
C1833 C1832 1.387 . S
C1833 C1835 1.387 . S
H1834 C1841 0.950 . S
C1835 C1833 1.387 . S
C1835 C1837 1.390 . S
C1835 H1839 0.950 . S
H1836 C1832 0.950 . S
C1837 C1835 1.390 . S
C1837 C1838 1.387 . S
C1837 H1840 0.950 . S
C1838 C1837 1.387 . S
C1838 C1841 1.387 . S
H1839 C1835 0.950 . S
H1840 C1837 0.950 . S
C1841 C1832 1.390 . S
C1841 H1834 0.950 . S
C1841 C1838 1.387 . S
C1842 C1843 1.387 . S
C1842 H1846 0.950 . S
C1842 C1851 1.390 . S
C1843 C1842 1.387 . S
C1843 C1845 1.387 . S
H1844 C1851 0.950 . S
C1845 C1843 1.387 . S
C1845 C1847 1.390 . S
C1845 H1849 0.950 1_545 S
H1846 C1842 0.950 . S
C1847 C1845 1.390 . S
C1847 C1848 1.387 . S
C1847 H1850 0.950 . S
C1848 C1847 1.387 . S
C1848 C1851 1.387 . S
H1849 C1845 0.950 1_565 S
H1850 C1847 0.950 . S
C1851 C1842 1.390 . S
C1851 H1844 0.950 . S
C1851 C1848 1.387 . S
C1852 C1853 1.387 . S
C1852 H1856 0.950 . S
C1852 C1861 1.390 . S
C1853 C1852 1.387 . S
C1853 C1855 1.387 . S
H1854 C1861 0.950 . S
C1855 C1853 1.387 . S
C1855 C1857 1.390 . S
C1855 H1859 0.950 . S
H1856 C1852 0.950 . S
C1857 C1855 1.390 . S
C1857 C1858 1.387 . S
C1857 H1860 0.950 . S
C1858 C1857 1.387 . S
C1858 C1861 1.387 . S
H1859 C1855 0.950 . S
H1860 C1857 0.950 . S
C1861 C1852 1.390 . S
C1861 H1854 0.950 . S
C1861 C1858 1.387 . S
C1862 C1863 1.387 . S
C1862 H1866 0.952 . S
C1862 C1871 1.390 . S
C1863 C1862 1.387 . S
C1863 C1865 1.387 . S
H1864 C1871 0.950 1_556 S
C1865 C1863 1.387 . S
C1865 C1867 1.390 . S
C1865 H1869 0.950 . S
H1866 C1862 0.952 . S
C1867 C1865 1.390 . S
C1867 C1868 1.387 . S
C1867 H1870 0.950 . S
C1868 C1867 1.387 . S
C1868 C1871 1.387 . S
H1869 C1865 0.950 . S
H1870 C1867 0.950 . S
C1871 C1862 1.390 . S
C1871 H1864 0.950 1_554 S
C1871 C1868 1.387 . S
C1872 C1873 1.387 . S
C1872 H1876 0.950 . S
C1872 C1881 1.390 . S
C1873 C1872 1.387 . S
C1873 C1875 1.387 . S
H1874 C1881 0.950 . S
C1875 C1873 1.387 . S
C1875 C1877 1.390 . S
C1875 H1879 0.950 . S
H1876 C1872 0.950 . S
C1877 C1875 1.390 . S
C1877 C1878 1.387 . S
C1877 H1880 0.950 . S
C1878 C1877 1.387 . S
C1878 C1881 1.387 . S
H1879 C1875 0.950 . S
H1880 C1877 0.950 . S
C1881 C1872 1.390 . S
C1881 H1874 0.950 . S
C1881 C1878 1.387 . S
C1882 C1883 1.387 . S
C1882 H1886 0.950 . S
C1882 C1891 1.390 . S
C1883 C1882 1.387 . S
C1883 C1885 1.387 . S
H1884 C1891 0.950 . S
C1885 C1883 1.387 . S
C1885 C1887 1.390 . S
C1885 H1889 0.950 . S
H1886 C1882 0.950 . S
C1887 C1885 1.390 . S
C1887 C1888 1.387 . S
C1887 H1890 0.950 . S
C1888 C1887 1.387 . S
C1888 C1891 1.387 . S
H1889 C1885 0.950 . S
H1890 C1887 0.950 . S
C1891 C1882 1.390 . S
C1891 H1884 0.950 . S
C1891 C1888 1.387 . S
C1892 C1893 1.387 . S
C1892 H1896 0.929 1_565 S
C1892 C1901 1.390 . S
C1893 C1892 1.387 . S
C1893 C1895 1.387 . S
H1894 C1901 0.950 . S
C1895 C1893 1.387 . S
C1895 C1897 1.390 . S
C1895 H1899 0.950 . S
H1896 C1892 0.929 1_545 S
C1897 C1895 1.390 . S
C1897 C1898 1.387 . S
C1897 H1900 0.950 . S
C1898 C1897 1.387 . S
C1898 C1901 1.387 . S
H1899 C1895 0.950 . S
H1900 C1897 0.950 . S
C1901 C1892 1.390 . S
C1901 H1894 0.950 . S
C1901 C1898 1.387 . S
C1902 C1903 1.387 . S
C1902 H1906 0.950 . S
C1902 C1911 1.390 . S
C1903 C1902 1.387 . S
C1903 C1905 1.387 . S
H1904 C1911 0.950 . S
C1905 C1903 1.387 . S
C1905 C1907 1.390 . S
C1905 H1909 0.950 . S
H1906 C1902 0.950 . S
C1907 C1905 1.390 . S
C1907 C1908 1.387 . S
C1907 H1910 0.950 . S
C1908 C1907 1.387 . S
C1908 C1911 1.387 . S
H1909 C1905 0.950 . S
H1910 C1907 0.950 . S
C1911 C1902 1.390 . S
C1911 H1904 0.950 . S
C1911 C1908 1.387 . S
C953 C101 1.857 . S
C958 C318 1.715 . S
C963 C57 2.136 . S
C968 C370 1.952 . S
C973 C70 1.342 . S
C978 C402 1.374 1_565 S
C988 C451 2.429 . S
C983 C82 2.429 . S
C993 C23 1.323 . S
C998 C487 1.261 . S
C1008 C518 0.702 . S
C1003 C29 0.690 . S
C1018 C570 0.415 . S
C1013 C49 0.573 . S
C1023 C10 3.183 . S
C1028 C598 2.996 . S
C1038 C330 2.122 . S
C1033 C218 2.315 . S
C1043 C226 1.778 . S
C1048 C371 1.818 . S
C1058 C401 1.820 . S
C1053 C251 1.968 . S
C1068 C438 0.950 . S
C1063 C159 0.985 . S
C1073 C211 1.808 . S
C1078 C482 1.829 . S
C1088 C530 2.037 . S
C1083 C225 1.999 . S
C1098 C571 1.807 . S
C1093 C252 1.778 . S
C1108 C610 2.249 . S
C1103 C166 2.424 . S
C1118 C331 2.430 . S
C1113 C147 2.399 . S
C1123 C263 1.562 . S
C1128 C641 1.535 . S
C1138 C691 2.399 . S
C1133 C309 2.397 . S
C1148 C718 1.002 . S
C1143 C291 1.011 . S
C1153 C108 2.983 . S
C1158 C611 2.923 . S
C1163 C121 1.882 . S
C1168 C407 1.735 . S
C1173 C302 2.550 . S
C1178 C770 2.436 . S
C1188 C798 1.499 . S
C1183 C276 1.613 . S
C1198 C327 1.467 . S
C1193 C55 1.568 . S
C1208 C801 2.139 . S
C1203 C96 2.261 1_655 S
C1213 C88 1.612 . S
C1218 C411 1.625 . S
C1223 C75 2.789 . S
C1228 C762 2.771 . S
C1238 C478 1.428 . S
C1233 C4 1.456 . S
C1243 C44 1.164 . S
C1248 C687 1.105 . S
C1258 C561 0.725 . S
C1253 C31 0.732 . S
C1268 C847 2.144 . S
C1263 C18 2.274 . S
C1278 C321 2.160 . S
C1273 C133 2.317 . S
C1288 C802 2.125 . S
C1283 C296 2.074 . S
C1293 C107 2.245 . S
C1298 C410 2.136 . S
C1303 C264 1.014 . S
C1308 C767 0.934 . S
C1313 C140 2.054 . S
C1318 C491 2.054 . S
C1328 C681 2.147 . S
C1323 C289 2.094 . S
C1333 C114 2.163 . S
C1338 C562 2.194 . S
C1343 C265 2.138 . S
C1348 C841 2.037 . S
C1353 C179 2.460 . S
C1358 C322 2.480 1_655 S
C1363 C161 2.191 . S
C1368 C650 2.184 . S
C1373 C244 2.729 . S
C1378 C522 2.721 . S
C1383 C224 1.230 . S
C1388 C727 1.207 . S
C1398 C842 2.666 . S
C1393 C257 2.677 . S
C1403 C199 2.055 . S
C1408 C398 1.930 . S
C1418 C441 2.602 . S
C1413 C237 2.715 . S
C1428 C367 1.569 . S
C1423 C185 1.687 . S
C1433 C69 1.839 . S
C1438 C878 1.687 . S
C1448 C810 2.012 . S
C1443 C83 2.215 . S
C1453 C94 1.469 . S
C1458 C922 1.508 . S
C1463 C56 2.433 . S
C1468 C771 2.437 . S
C1473 C42 1.354 . S
C1478 C647 1.267 . S
C1488 C678 0.919 1_455 S
C1483 C3 0.924 . S
C1498 C730 0.399 . S
C1493 C16 0.663 . S
C1508 C838 2.280 . S
C1503 C36 2.450 . S
C1518 C890 2.043 . S
C1513 C238 2.239 . S
C1523 C174 1.857 1_556 S
C1528 C811 1.896 . S
C1538 C921 1.852 . S
C1533 C186 1.978 . S
C1548 C758 0.824 . S
C1543 C198 0.840 . S
C1558 C642 1.940 1_556 S
C1553 C239 1.918 . S
C1563 C173 2.120 . S
C1568 C690 2.113 . S
C1578 C731 1.818 . S
C1573 C187 1.781 . S
C1583 C205 2.442 . S
C1588 C850 2.241 . S
C1598 C891 2.407 . S
C1593 C290 2.376 . S
C1603 C122 1.804 . S
C1608 C481 1.854 . S
C1618 C531 2.366 . S
C1613 C134 2.366 . S
C1628 C558 1.112 . S
C1623 C148 1.131 . S
C1638 C851 2.891 . S
C1633 C283 2.946 . S
C1643 C270 1.618 . S
C1648 C927 1.470 . S
C1658 C450 2.492 . S
C1653 C135 2.587 . S
C1668 C358 1.498 . S
C1663 C109 1.609 . S
C1673 C81 1.552 . S
C1678 C887 1.448 . S
C1688 C361 2.166 . S
C1683 C68 2.320 . S
C1693 C62 1.649 . S
C1698 C931 1.668 . S
C1703 C95 2.792 . S
C1708 C442 2.780 . S
C1713 C30 1.434 . S
C1718 C638 1.379 . S
C1728 C527 1.087 . S
C1723 C17 1.134 . S
C1733 C5 0.832 . S
C1738 C721 0.896 . S
C1743 C43 2.069 . S
C1748 C607 1.964 . S
C1758 C881 2.120 . S
C1753 C304 2.279 . S
C1763 C153 2.114 . S
C1768 C362 2.159 . S
C1778 C930 2.209 1_556 S
C1773 C278 2.310 1_455 S
C1783 C127 1.171 . S
C1788 C447 1.090 . S
C1793 C303 2.134 . S
C1798 C651 2.151 . S
C1808 C521 2.217 . S
C1803 C146 2.192 1_556 S
C1813 C277 2.102 . S
C1818 C722 2.138 . S
C1828 C601 1.886 . S
C1823 C120 1.988 . S
C1838 C882 2.483 . S
C1833 C231 2.464 . S
C1848 C490 2.258 1_655 S
C1843 C200 2.244 . S
C1853 C212 2.722 . S
C1858 C682 2.708 . S
C1868 C567 1.274 . S
C1863 C172 1.312 . S
C1873 C192 2.631 . S
C1878 C602 2.612 . S
C1883 C160 1.974 . S
C1888 C918 1.841 . S
C1898 C761 2.626 . S
C1893 C213 2.723 1_565 S
C1908 C807 1.513 . S
C1903 C250 1.634 . S
