# Generated by pormake.
# Topology ibd, (4,6)-cn, num edge types: 1
# Building blocks:
#     Node 0, Type 0, BuildingBlock: QUQFOY_clean_sbu_3, # of connection points: 4
#     Node 1, Type 0, BuildingBlock: QUQFOY_clean_sbu_3, # of connection points: 4
#     Node 2, Type 0, BuildingBlock: QUQFOY_clean_sbu_3, # of connection points: 4
#     Node 3, Type 0, BuildingBlock: QUQFOY_clean_sbu_3, # of connection points: 4
#     Node 4, Type 0, BuildingBlock: QUQFOY_clean_sbu_3, # of connection points: 4
#     Node 5, Type 0, BuildingBlock: QUQFOY_clean_sbu_3, # of connection points: 4
#     Node 6, Type 0, BuildingBlock: QUQFOY_clean_sbu_3, # of connection points: 4
#     Node 7, Type 0, BuildingBlock: QUQFOY_clean_sbu_3, # of connection points: 4
#     Node 8, Type 0, BuildingBlock: QUQFOY_clean_sbu_3, # of connection points: 4
#     Node 9, Type 0, BuildingBlock: QUQFOY_clean_sbu_3, # of connection points: 4
#     Node 10, Type 0, BuildingBlock: QUQFOY_clean_sbu_3, # of connection points: 4
#     Node 11, Type 0, BuildingBlock: QUQFOY_clean_sbu_3, # of connection points: 4
#     Node 12, Type 0, BuildingBlock: QUQFOY_clean_sbu_3, # of connection points: 4
#     Node 13, Type 0, BuildingBlock: QUQFOY_clean_sbu_3, # of connection points: 4
#     Node 14, Type 0, BuildingBlock: QUQFOY_clean_sbu_3, # of connection points: 4
#     Node 15, Type 0, BuildingBlock: QUQFOY_clean_sbu_3, # of connection points: 4
#     Node 16, Type 0, BuildingBlock: QUQFOY_clean_sbu_3, # of connection points: 4
#     Node 17, Type 0, BuildingBlock: QUQFOY_clean_sbu_3, # of connection points: 4
#     Node 18, Type 0, BuildingBlock: QUQFOY_clean_sbu_3, # of connection points: 4
#     Node 19, Type 0, BuildingBlock: QUQFOY_clean_sbu_3, # of connection points: 4
#     Node 20, Type 0, BuildingBlock: QUQFOY_clean_sbu_3, # of connection points: 4
#     Node 21, Type 0, BuildingBlock: QUQFOY_clean_sbu_3, # of connection points: 4
#     Node 22, Type 0, BuildingBlock: QUQFOY_clean_sbu_3, # of connection points: 4
#     Node 23, Type 0, BuildingBlock: QUQFOY_clean_sbu_3, # of connection points: 4
#     Node 24, Type 1, BuildingBlock: OJICUG_clean_sbu_0, # of connection points: 6
#     Node 25, Type 1, BuildingBlock: OJICUG_clean_sbu_0, # of connection points: 6
#     Node 26, Type 1, BuildingBlock: OJICUG_clean_sbu_0, # of connection points: 6
#     Node 27, Type 1, BuildingBlock: OJICUG_clean_sbu_0, # of connection points: 6
#     Node 28, Type 1, BuildingBlock: OJICUG_clean_sbu_0, # of connection points: 6
#     Node 29, Type 1, BuildingBlock: OJICUG_clean_sbu_0, # of connection points: 6
#     Node 30, Type 1, BuildingBlock: OJICUG_clean_sbu_0, # of connection points: 6
#     Node 31, Type 1, BuildingBlock: OJICUG_clean_sbu_0, # of connection points: 6
#     Node 32, Type 1, BuildingBlock: OJICUG_clean_sbu_0, # of connection points: 6
#     Node 33, Type 1, BuildingBlock: OJICUG_clean_sbu_0, # of connection points: 6
#     Node 34, Type 1, BuildingBlock: OJICUG_clean_sbu_0, # of connection points: 6
#     Node 35, Type 1, BuildingBlock: OJICUG_clean_sbu_0, # of connection points: 6
#     Node 36, Type 1, BuildingBlock: OJICUG_clean_sbu_0, # of connection points: 6
#     Node 37, Type 1, BuildingBlock: OJICUG_clean_sbu_0, # of connection points: 6
#     Node 38, Type 1, BuildingBlock: OJICUG_clean_sbu_0, # of connection points: 6
#     Node 39, Type 1, BuildingBlock: OJICUG_clean_sbu_0, # of connection points: 6
#     Edge 40, Type (0, 1), BuildingBlock: AJUNOK_clean_linker_0, # of connection points: 2
#     Edge 41, Type (0, 1), BuildingBlock: AJUNOK_clean_linker_0, # of connection points: 2
#     Edge 42, Type (0, 1), BuildingBlock: AJUNOK_clean_linker_0, # of connection points: 2
#     Edge 43, Type (0, 1), BuildingBlock: AJUNOK_clean_linker_0, # of connection points: 2
#     Edge 44, Type (0, 1), BuildingBlock: AJUNOK_clean_linker_0, # of connection points: 2
#     Edge 45, Type (0, 1), BuildingBlock: AJUNOK_clean_linker_0, # of connection points: 2
#     Edge 46, Type (0, 1), BuildingBlock: AJUNOK_clean_linker_0, # of connection points: 2
#     Edge 47, Type (0, 1), BuildingBlock: AJUNOK_clean_linker_0, # of connection points: 2
#     Edge 48, Type (0, 1), BuildingBlock: AJUNOK_clean_linker_0, # of connection points: 2
#     Edge 49, Type (0, 1), BuildingBlock: AJUNOK_clean_linker_0, # of connection points: 2
#     Edge 50, Type (0, 1), BuildingBlock: AJUNOK_clean_linker_0, # of connection points: 2
#     Edge 51, Type (0, 1), BuildingBlock: AJUNOK_clean_linker_0, # of connection points: 2
#     Edge 52, Type (0, 1), BuildingBlock: AJUNOK_clean_linker_0, # of connection points: 2
#     Edge 53, Type (0, 1), BuildingBlock: AJUNOK_clean_linker_0, # of connection points: 2
#     Edge 54, Type (0, 1), BuildingBlock: AJUNOK_clean_linker_0, # of connection points: 2
#     Edge 55, Type (0, 1), BuildingBlock: AJUNOK_clean_linker_0, # of connection points: 2
#     Edge 56, Type (0, 1), BuildingBlock: AJUNOK_clean_linker_0, # of connection points: 2
#     Edge 57, Type (0, 1), BuildingBlock: AJUNOK_clean_linker_0, # of connection points: 2
#     Edge 58, Type (0, 1), BuildingBlock: AJUNOK_clean_linker_0, # of connection points: 2
#     Edge 59, Type (0, 1), BuildingBlock: AJUNOK_clean_linker_0, # of connection points: 2
#     Edge 60, Type (0, 1), BuildingBlock: AJUNOK_clean_linker_0, # of connection points: 2
#     Edge 61, Type (0, 1), BuildingBlock: AJUNOK_clean_linker_0, # of connection points: 2
#     Edge 62, Type (0, 1), BuildingBlock: AJUNOK_clean_linker_0, # of connection points: 2
#     Edge 63, Type (0, 1), BuildingBlock: AJUNOK_clean_linker_0, # of connection points: 2
#     Edge 64, Type (0, 1), BuildingBlock: AJUNOK_clean_linker_0, # of connection points: 2
#     Edge 65, Type (0, 1), BuildingBlock: AJUNOK_clean_linker_0, # of connection points: 2
#     Edge 66, Type (0, 1), BuildingBlock: AJUNOK_clean_linker_0, # of connection points: 2
#     Edge 67, Type (0, 1), BuildingBlock: AJUNOK_clean_linker_0, # of connection points: 2
#     Edge 68, Type (0, 1), BuildingBlock: AJUNOK_clean_linker_0, # of connection points: 2
#     Edge 69, Type (0, 1), BuildingBlock: AJUNOK_clean_linker_0, # of connection points: 2
#     Edge 70, Type (0, 1), BuildingBlock: AJUNOK_clean_linker_0, # of connection points: 2
#     Edge 71, Type (0, 1), BuildingBlock: AJUNOK_clean_linker_0, # of connection points: 2
#     Edge 72, Type (0, 1), BuildingBlock: AJUNOK_clean_linker_0, # of connection points: 2
#     Edge 73, Type (0, 1), BuildingBlock: AJUNOK_clean_linker_0, # of connection points: 2
#     Edge 74, Type (0, 1), BuildingBlock: AJUNOK_clean_linker_0, # of connection points: 2
#     Edge 75, Type (0, 1), BuildingBlock: AJUNOK_clean_linker_0, # of connection points: 2
#     Edge 76, Type (0, 1), BuildingBlock: AJUNOK_clean_linker_0, # of connection points: 2
#     Edge 77, Type (0, 1), BuildingBlock: AJUNOK_clean_linker_0, # of connection points: 2
#     Edge 78, Type (0, 1), BuildingBlock: AJUNOK_clean_linker_0, # of connection points: 2
#     Edge 79, Type (0, 1), BuildingBlock: AJUNOK_clean_linker_0, # of connection points: 2
#     Edge 80, Type (0, 1), BuildingBlock: AJUNOK_clean_linker_0, # of connection points: 2
#     Edge 81, Type (0, 1), BuildingBlock: AJUNOK_clean_linker_0, # of connection points: 2
#     Edge 82, Type (0, 1), BuildingBlock: AJUNOK_clean_linker_0, # of connection points: 2
#     Edge 83, Type (0, 1), BuildingBlock: AJUNOK_clean_linker_0, # of connection points: 2
#     Edge 84, Type (0, 1), BuildingBlock: AJUNOK_clean_linker_0, # of connection points: 2
#     Edge 85, Type (0, 1), BuildingBlock: AJUNOK_clean_linker_0, # of connection points: 2
#     Edge 86, Type (0, 1), BuildingBlock: AJUNOK_clean_linker_0, # of connection points: 2
#     Edge 87, Type (0, 1), BuildingBlock: AJUNOK_clean_linker_0, # of connection points: 2
#     Edge 88, Type (0, 1), BuildingBlock: AJUNOK_clean_linker_0, # of connection points: 2
#     Edge 89, Type (0, 1), BuildingBlock: AJUNOK_clean_linker_0, # of connection points: 2
#     Edge 90, Type (0, 1), BuildingBlock: AJUNOK_clean_linker_0, # of connection points: 2
#     Edge 91, Type (0, 1), BuildingBlock: AJUNOK_clean_linker_0, # of connection points: 2
#     Edge 92, Type (0, 1), BuildingBlock: AJUNOK_clean_linker_0, # of connection points: 2
#     Edge 93, Type (0, 1), BuildingBlock: AJUNOK_clean_linker_0, # of connection points: 2
#     Edge 94, Type (0, 1), BuildingBlock: AJUNOK_clean_linker_0, # of connection points: 2
#     Edge 95, Type (0, 1), BuildingBlock: AJUNOK_clean_linker_0, # of connection points: 2
#     Edge 96, Type (0, 1), BuildingBlock: AJUNOK_clean_linker_0, # of connection points: 2
#     Edge 97, Type (0, 1), BuildingBlock: AJUNOK_clean_linker_0, # of connection points: 2
#     Edge 98, Type (0, 1), BuildingBlock: AJUNOK_clean_linker_0, # of connection points: 2
#     Edge 99, Type (0, 1), BuildingBlock: AJUNOK_clean_linker_0, # of connection points: 2
#     Edge 100, Type (0, 1), BuildingBlock: AJUNOK_clean_linker_0, # of connection points: 2
#     Edge 101, Type (0, 1), BuildingBlock: AJUNOK_clean_linker_0, # of connection points: 2
#     Edge 102, Type (0, 1), BuildingBlock: AJUNOK_clean_linker_0, # of connection points: 2
#     Edge 103, Type (0, 1), BuildingBlock: AJUNOK_clean_linker_0, # of connection points: 2
#     Edge 104, Type (0, 1), BuildingBlock: AJUNOK_clean_linker_0, # of connection points: 2
#     Edge 105, Type (0, 1), BuildingBlock: AJUNOK_clean_linker_0, # of connection points: 2
#     Edge 106, Type (0, 1), BuildingBlock: AJUNOK_clean_linker_0, # of connection points: 2
#     Edge 107, Type (0, 1), BuildingBlock: AJUNOK_clean_linker_0, # of connection points: 2
#     Edge 108, Type (0, 1), BuildingBlock: AJUNOK_clean_linker_0, # of connection points: 2
#     Edge 109, Type (0, 1), BuildingBlock: AJUNOK_clean_linker_0, # of connection points: 2
#     Edge 110, Type (0, 1), BuildingBlock: AJUNOK_clean_linker_0, # of connection points: 2
#     Edge 111, Type (0, 1), BuildingBlock: AJUNOK_clean_linker_0, # of connection points: 2
#     Edge 112, Type (0, 1), BuildingBlock: AJUNOK_clean_linker_0, # of connection points: 2
#     Edge 113, Type (0, 1), BuildingBlock: AJUNOK_clean_linker_0, # of connection points: 2
#     Edge 114, Type (0, 1), BuildingBlock: AJUNOK_clean_linker_0, # of connection points: 2
#     Edge 115, Type (0, 1), BuildingBlock: AJUNOK_clean_linker_0, # of connection points: 2
#     Edge 116, Type (0, 1), BuildingBlock: AJUNOK_clean_linker_0, # of connection points: 2
#     Edge 117, Type (0, 1), BuildingBlock: AJUNOK_clean_linker_0, # of connection points: 2
#     Edge 118, Type (0, 1), BuildingBlock: AJUNOK_clean_linker_0, # of connection points: 2
#     Edge 119, Type (0, 1), BuildingBlock: AJUNOK_clean_linker_0, # of connection points: 2
#     Edge 120, Type (0, 1), BuildingBlock: AJUNOK_clean_linker_0, # of connection points: 2
#     Edge 121, Type (0, 1), BuildingBlock: AJUNOK_clean_linker_0, # of connection points: 2
#     Edge 122, Type (0, 1), BuildingBlock: AJUNOK_clean_linker_0, # of connection points: 2
#     Edge 123, Type (0, 1), BuildingBlock: AJUNOK_clean_linker_0, # of connection points: 2
#     Edge 124, Type (0, 1), BuildingBlock: AJUNOK_clean_linker_0, # of connection points: 2
#     Edge 125, Type (0, 1), BuildingBlock: AJUNOK_clean_linker_0, # of connection points: 2
#     Edge 126, Type (0, 1), BuildingBlock: AJUNOK_clean_linker_0, # of connection points: 2
#     Edge 127, Type (0, 1), BuildingBlock: AJUNOK_clean_linker_0, # of connection points: 2
#     Edge 128, Type (0, 1), BuildingBlock: AJUNOK_clean_linker_0, # of connection points: 2
#     Edge 129, Type (0, 1), BuildingBlock: AJUNOK_clean_linker_0, # of connection points: 2
#     Edge 130, Type (0, 1), BuildingBlock: AJUNOK_clean_linker_0, # of connection points: 2
#     Edge 131, Type (0, 1), BuildingBlock: AJUNOK_clean_linker_0, # of connection points: 2
#     Edge 132, Type (0, 1), BuildingBlock: AJUNOK_clean_linker_0, # of connection points: 2
#     Edge 133, Type (0, 1), BuildingBlock: AJUNOK_clean_linker_0, # of connection points: 2
#     Edge 134, Type (0, 1), BuildingBlock: AJUNOK_clean_linker_0, # of connection points: 2
#     Edge 135, Type (0, 1), BuildingBlock: AJUNOK_clean_linker_0, # of connection points: 2
# Relax obj value: 0.375
# Max RMSD: 0.287
# Mean RMSD: 0.282
data_MOF--net-ibd--node1-QUQFOY_clean_sbu_3--node2-OJICUG_clean_sbu_0--edge1-AJUNOK_clean_linker_0
_symmetry_space_group_name_H-M    P1
_symmetry_Int_Tables_number       1
_symmetry_cell_setting            triclinic
loop_
_symmetry_equiv_pos_as_xyz
'x, y, z'
_cell_length_a     37.236619
_cell_length_b     37.189905
_cell_length_c     37.263933
_cell_angle_alpha  90.242679
_cell_angle_beta   89.876067
_cell_angle_gamma 91.667031
loop_
_atom_site_label
_atom_site_type_symbol
_atom_site_fract_x
_atom_site_fract_y
_atom_site_fract_z
_atom_type_partial_charge
C0 C 0.9448 0.20913 0.43844 0.0
O1 O 0.92136 0.23211 0.44563 0.0
Cd2 Cd 0.91693 0.28602 0.41243 0.0
O3 O 0.96503 0.21266 0.41112 0.0
Cd4 Cd 0.96705 0.25698 0.36152 0.0
C5 C 0.00466 0.31497 0.41665 0.0
O6 O 0.90414 0.27092 0.35102 0.0
O7 O 0.94349 0.3127 0.33874 0.0
O8 O 0.9765 0.20742 0.32012 0.0
C9 C 0.91178 0.29998 0.33481 0.0
O10 O 0.97243 0.32103 0.42582 0.0
C11 C 7e-05 0.2244 0.30166 0.0
O12 O 0.01109 0.29023 0.39433 0.0
O13 O 0.0082 0.25639 0.31103 0.0
C14 C 0.0835 0.78907 0.56994 0.0
O15 O 0.05957 0.81165 0.57727 0.0
Cd16 Cd 0.00445 0.79763 0.60765 0.0
O17 O 0.08189 0.75779 0.58352 0.0
Cd18 Cd 0.04497 0.72369 0.62637 0.0
C19 C 0.98557 0.71825 0.56107 0.0
O20 O 0.01712 0.76947 0.66202 0.0
O21 O 0.98899 0.71814 0.66073 0.0
O22 O 0.09543 0.70949 0.66292 0.0
C23 C -0.0099 0.75041 0.67183 0.0
O24 O 0.97752 0.75026 0.56973 0.0
C25 C 0.08968 0.67566 0.6618 0.0
O26 O 0.01167 0.70251 0.57552 0.0
O27 O 0.06373 0.66415 0.64241 0.0
C28 C 0.45975 0.71382 0.8853 0.0
O29 O 0.43488 0.73226 0.87208 0.0
Cd30 Cd 0.45127 0.78589 0.84195 0.0
O31 O 0.49245 0.72038 0.87691 0.0
Cd32 Cd 0.53169 0.75608 0.83637 0.0
C33 C 0.51869 0.81443 0.90143 0.0
O34 O 0.48572 0.7631 0.79363 0.0
O35 O 0.52973 0.80152 0.78843 0.0
O36 O 0.554 0.69789 0.82401 0.0
C37 C 0.50037 0.7885 0.77615 0.0
O38 O 0.48616 0.81509 0.89092 0.0
C39 C 0.58629 0.7081 0.81839 0.0
O40 O 0.54168 0.79596 0.88494 0.0
O41 O 0.5938 0.74153 0.82152 0.0
C42 C 0.57223 0.32582 0.08052 0.0
O43 O 0.55786 0.35632 0.08129 0.0
Cd44 Cd 0.49562 0.35463 0.09719 0.0
O45 O 0.55692 0.29938 0.09637 0.0
Cd46 Cd 0.50648 0.28446 0.13641 0.0
C47 C 0.46816 0.27499 0.05637 0.0
O48 O 0.48772 0.34261 0.16022 0.0
O49 O 0.44774 0.29935 0.15986 0.0
O50 O 0.54708 0.26598 0.18354 0.0
C51 C 0.45669 0.33106 0.16968 0.0
O52 O 0.47006 0.30924 0.05509 0.0
C53 C 0.53478 0.23379 0.18519 0.0
O54 O 0.47951 0.25838 0.08359 0.0
O55 O 0.50872 0.22545 0.16454 0.0
C56 C 0.87967 0.77463 0.16085 0.0
O57 O 0.87104 0.80732 0.16369 0.0
Cd58 Cd 0.89614 0.85372 0.12647 0.0
O59 O 0.90215 0.765 0.13715 0.0
Cd60 Cd 0.93955 0.79407 0.09129 0.0
C61 C 0.97982 0.8423 0.15719 0.0
O62 O 0.89203 0.82883 0.06675 0.0
O63 O 0.94534 0.84316 0.04817 0.0
O64 O 0.93963 0.74009 0.05279 0.0
C65 C 0.91169 0.84357 0.04298 0.0
O66 O 0.95461 0.86456 0.15532 0.0
C67 C 0.97365 0.74066 0.0495 0.0
O68 O 0.97921 0.81421 0.1379 0.0
O69 O -0.00898 0.76515 0.06643 0.0
C70 C 0.54545 0.77355 0.35281 0.0
O71 O 0.54699 0.80235 0.37113 0.0
Cd72 Cd 0.48682 0.82217 0.37411 0.0
O73 O 0.51945 0.75131 0.35821 0.0
Cd74 Cd 0.47105 0.74344 0.40341 0.0
C75 C 0.4445 0.75549 0.32069 0.0
O76 O 0.4643 0.80199 0.42923 0.0
O77 O 0.41483 0.77139 0.42048 0.0
O78 O 0.51229 0.71487 0.44283 0.0
C79 C 0.43026 0.80076 0.43016 0.0
O80 O 0.45688 0.78753 0.32545 0.0
C81 C 0.49215 0.68763 0.44995 0.0
O82 O 0.44535 0.73227 0.34573 0.0
O83 O 0.46101 0.68616 0.43582 0.0
C84 C 0.37133 0.2179 0.64156 0.0
O85 O 0.36646 0.24865 0.62814 0.0
Cd86 Cd 0.41434 0.28156 0.60068 0.0
O87 O 0.40031 0.20135 0.63555 0.0
Cd88 Cd 0.45756 0.20754 0.60232 0.0
C89 C 0.47724 0.26602 0.66713 0.0
O90 O 0.43877 0.24525 0.55507 0.0
O91 O 0.49541 0.24972 0.56666 0.0
O92 O 0.45648 0.14978 0.57197 0.0
C93 C 0.46951 0.25783 0.5466 0.0
O94 O 0.45687 0.28754 0.6508 0.0
C95 C 0.48877 0.14281 0.57991 0.0
O96 O 0.48107 0.23406 0.6559 0.0
O97 O 0.50455 0.16405 0.60192 0.0
C98 C 0.06667 0.29403 0.82922 0.0
O99 O 0.04305 0.31436 0.84238 0.0
Cd100 Cd 0.00044 0.30902 0.88974 0.0
O101 O 0.0718 0.26264 0.84164 0.0
Cd102 Cd 0.04271 0.22817 0.89077 0.0
C103 C 0.95962 0.237 0.8505 0.0
O104 O 0.03823 0.27906 0.92978 0.0
O105 O 0.02049 0.22937 0.95333 0.0
O106 O 0.09074 0.18784 0.90526 0.0
C107 C 0.02505 0.26303 0.95664 0.0
O108 O 0.95594 0.26962 0.85992 0.0
C109 C 0.07026 0.15977 0.90336 0.0
O110 O 0.98762 0.22012 0.85851 0.0
O111 O 0.03874 0.16387 0.89143 0.0
C112 C 0.40299 0.95677 0.18598 0.0
O113 O 0.38625 0.93675 0.20832 0.0
Cd114 Cd 0.34049 0.95152 0.24917 0.0
O115 O 0.39534 0.98983 0.1822 0.0
Cd116 Cd 0.34843 0.02746 0.21074 0.0
C117 C 0.38642 0.01971 0.29209 0.0
O118 O 0.30112 0.9819 0.21024 0.0
O119 O 0.29304 0.02582 0.24626 0.0
O120 O 0.33212 0.06389 0.16007 0.0
C121 C 0.28013 -0.00217 0.23106 0.0
O122 O 0.37197 0.98841 0.2952 0.0
C123 C 0.33033 0.09253 0.17875 0.0
O124 O 0.38315 0.0375 0.26338 0.0
O125 O 0.34332 0.09172 0.21014 0.0
C126 C 0.34475 0.09515 0.48498 0.0
O127 O 0.35965 0.08941 0.45491 0.0
Cd128 Cd 0.32458 0.10263 0.40292 0.0
O129 O 0.31458 0.11004 0.48622 0.0
Cd130 Cd 0.26822 0.13883 0.45334 0.0
C131 C 0.24543 0.05663 0.42441 0.0
O132 O 0.30995 0.16478 0.41096 0.0
O133 O 0.25379 0.17477 0.40132 0.0
O134 O 0.27468 0.18096 0.50266 0.0
C135 C 0.28652 0.18215 0.39418 0.0
O136 O 0.27535 0.05778 0.40779 0.0
C137 C 0.24133 0.18194 0.50932 0.0
O138 O 0.2353 0.08333 0.4427 0.0
O139 O 0.2205 0.16273 0.48965 0.0
C140 C 0.19436 0.92761 0.77048 0.0
O141 O 0.19881 0.91829 0.80286 0.0
Cd142 Cd 0.15362 0.92555 0.84843 0.0
O143 O 0.16548 0.94221 0.76091 0.0
Cd144 Cd 0.11296 0.96327 0.79296 0.0
C145 C 0.15875 0.01509 0.85139 0.0
O146 O 0.09506 0.9088 0.82421 0.0
O147 O 0.07272 0.95781 0.84402 0.0
O148 O 0.06851 0.96008 0.74371 0.0
C149 C 0.06957 0.92393 0.84035 0.0
O150 O 0.16249 0.98729 0.87067 0.0
C151 C 0.06508 -0.00603 0.74297 0.0
O152 O 0.14431 0.01213 0.82082 0.0
O153 O 0.08446 0.0126 0.76433 0.0
C154 C 0.28785 0.82533 0.98456 0.0
O155 O 0.30501 0.83398 0.95619 0.0
Cd156 Cd 0.28539 0.87837 0.91556 0.0
O157 O 0.25963 0.84135 -0.00608 0.0
Cd158 Cd 0.22394 0.89127 0.97463 0.0
C159 C 0.20104 0.84106 0.90164 0.0
O160 O 0.27842 0.92391 0.95999 0.0
O161 O 0.22989 0.95322 0.95189 0.0
O162 O 0.22315 0.89986 0.03866 0.0
C163 C 0.26392 0.95335 0.95342 0.0
O164 O 0.23298 0.84689 0.89051 0.0
C165 C 0.19122 0.9107 0.04007 0.0
O166 O 0.19046 0.85485 0.93097 0.0
O167 O 0.17325 0.90955 0.01108 0.0
C168 C 0.20558 0.31093 0.08915 0.0
O169 O 0.23877 0.30851 0.09609 0.0
Cd170 Cd 0.28497 0.35386 0.08395 0.0
O171 O 0.19392 0.33908 0.0748 0.0
Cd172 Cd 0.22368 0.39162 0.04912 0.0
C173 C 0.27571 0.34523 -0.00556 0.0
O174 O 0.2708 0.41591 0.08934 0.0
O175 O 0.27537 0.42709 0.03249 0.0
O176 O 0.17983 0.43755 0.06284 0.0
C177 C 0.28653 0.43322 0.06408 0.0
O178 O 0.29723 0.34427 0.0209 0.0
C179 C 0.16873 0.43864 0.03067 0.0
O180 O 0.24421 0.357 -0.00178 0.0
O181 O 0.18259 0.41732 0.00827 0.0
C182 C 0.73389 0.03644 0.04205 0.0
O183 O 0.7651 0.043 0.05484 0.0
Cd184 Cd 0.81631 0.07994 0.03384 0.0
O185 O 0.7234 0.05255 0.01409 0.0
Cd186 Cd 0.7531 0.1016 0.98191 0.0
C187 C 0.82464 0.04914 0.95278 0.0
O188 O 0.79877 0.13757 0.01255 0.0
O189 O 0.74365 0.14853 0.02646 0.0
O190 O 0.69984 0.11651 0.94783 0.0
C191 C 0.7768 0.15658 0.02975 0.0
O192 O 0.84121 0.0494 0.98253 0.0
C193 C 0.71745 0.13173 0.92257 0.0
O194 O 0.79507 0.06495 0.94982 0.0
O195 O 0.7514 0.13204 0.92502 0.0
C196 C 0.20265 0.52724 0.2 0.0
O197 O 0.20664 0.4942 0.19297 0.0
Cd198 Cd 0.16313 0.44745 0.20635 0.0
O199 O 0.17519 0.53771 0.21683 0.0
Cd200 Cd 0.1263 0.50371 0.24618 0.0
C201 C 0.17912 0.451 0.29375 0.0
O202 O 0.10321 0.46756 0.19669 0.0
O203 O 0.08628 0.45092 0.24978 0.0
O204 O 0.08598 0.55246 0.23741 0.0
C205 C 0.08115 0.44986 0.21616 0.0
O206 O 0.17764 0.42961 0.26707 0.0
C207 C 0.07739 0.55513 0.27024 0.0
O208 O 0.16527 0.48171 0.2918 0.0
O209 O 0.09354 0.53536 0.2923 0.0
C210 C 0.69898 0.80851 0.58106 0.0
O211 O 0.72836 0.81176 0.59817 0.0
Cd212 Cd 0.77522 0.85378 0.5798 0.0
O213 O 0.69239 0.82909 0.555 0.0
Cd214 Cd 0.71941 0.87827 0.52172 0.0
C215 C 0.7834 0.82213 0.49458 0.0
O216 O 0.74717 0.91085 0.5718 0.0
O217 O 0.76223 0.92894 0.51883 0.0
O218 O 0.66045 0.90273 0.5107 0.0
C219 C 0.76418 0.93359 0.5525 0.0
O220 O 0.79908 0.82598 0.52476 0.0
C221 C 0.66381 0.90135 0.47673 0.0
O222 O 0.7541 0.83733 0.48845 0.0
O223 O 0.69321 0.88992 0.46453 0.0
C224 C 0.92621 0.96314 0.20272 0.0
O225 O 0.93076 0.9299 0.19715 0.0
Cd226 Cd 0.89658 0.88241 0.22494 0.0
O227 O 0.9021 0.9737 0.22436 0.0
Cd228 Cd 0.85479 0.94451 0.2616 0.0
C229 C 0.91162 0.90151 0.31369 0.0
O230 O 0.83693 0.90049 0.2167 0.0
O231 O 0.8157 0.89062 0.26959 0.0
O232 O 0.8109 -0.00866 0.24984 0.0
C233 C 0.81501 0.88312 0.23639 0.0
O234 O 0.91368 0.87888 0.28808 0.0
C235 C 0.80423 -0.00311 0.28281 0.0
O236 O 0.89489 0.93045 0.30988 0.0
O237 O 0.82226 0.97933 0.30524 0.0
C238 C 0.19627 0.59212 0.52629 0.0
O239 O 0.21126 0.60708 0.55327 0.0
Cd240 Cd 0.26216 0.64665 0.55177 0.0
O241 O 0.20633 0.5997 0.49438 0.0
Cd242 Cd 0.24839 0.64366 0.46519 0.0
C243 C 0.3171 0.5964 0.49816 0.0
O244 O 0.24336 0.69025 0.50996 0.0
O245 O 0.28702 0.69694 0.47263 0.0
O246 O 0.20199 0.65558 0.42188 0.0
C247 C 0.26961 0.70936 0.49886 0.0
O248 O 0.31028 0.60803 0.52957 0.0
C249 C 0.2231 0.65905 0.39522 0.0
O250 O 0.29803 0.60453 0.47127 0.0
O251 O 0.25599 0.65283 0.40059 0.0
C252 C 0.43469 0.47038 0.74443 0.0
O253 O 0.42717 0.439 0.73264 0.0
Cd254 Cd 0.37739 0.40233 0.7495 0.0
O255 O 0.41495 0.48585 0.76767 0.0
Cd256 Cd 0.35776 0.46862 0.80018 0.0
C257 C 0.39774 0.3979 0.83863 0.0
O258 O 0.33395 0.44709 0.74461 0.0
O259 O 0.30073 0.43291 0.78962 0.0
O260 O 0.33524 0.53015 0.80131 0.0
C261 C 0.30417 0.43507 0.75583 0.0
O262 O 0.39328 0.38139 0.80894 0.0
C263 C 0.32275 0.52808 0.83304 0.0
O264 O 0.38872 0.43044 0.84197 0.0
O265 O 0.32978 0.49986 0.8504 0.0
C266 C 0.65943 0.10831 0.68471 0.0
O267 O 0.65609 0.10079 0.65166 0.0
Cd268 Cd 0.63825 0.04113 0.63479 0.0
O269 O 0.64405 0.08852 0.70813 0.0
Cd270 Cd 0.59649 0.04203 0.70653 0.0
C271 C 0.66623 0.98894 0.70635 0.0
O272 O 0.57635 0.03355 0.64445 0.0
O273 O 0.57542 0.98713 0.67945 0.0
O274 O 0.55244 0.08514 0.72421 0.0
C275 C 0.56892 0.00035 0.64893 0.0
O276 O 0.66932 -0.00153 0.6736 0.0
C277 C 0.54203 0.06887 0.75243 0.0
O278 O 0.64239 0.0023 0.72663 0.0
O279 O 0.55699 0.0394 0.75955 0.0
C280 C 0.81641 0.56781 0.98754 0.0
O281 O 0.82523 0.57395 0.95514 0.0
Cd282 Cd 0.79016 0.60558 0.91246 0.0
O283 O 0.78709 0.57935 0.00053 0.0
Cd284 Cd 0.73403 0.61418 0.98123 0.0
C285 C 0.71539 0.54965 0.92032 0.0
O286 O 0.7664 0.65546 0.94322 0.0
O287 O 0.70885 0.65754 0.93841 0.0
O288 O 0.7281 0.64403 0.03888 0.0
C289 C 0.73951 0.66947 0.92873 0.0
O290 O 0.74176 0.56164 0.9016 0.0
C291 C 0.69451 0.63741 0.04189 0.0
O292 O 0.70823 0.56292 0.95088 0.0
O293 O 0.6799 0.61801 0.01757 0.0
C294 C 0.9052 0.41395 0.68189 0.0
O295 O 0.90149 0.39485 0.71005 0.0
Cd296 Cd 0.87111 0.40595 0.76626 0.0
O297 O 0.89175 0.44497 0.67959 0.0
Cd298 Cd 0.85392 0.48362 0.71538 0.0
C299 C 0.9109 0.48708 0.79029 0.0
O300 O 0.82208 0.43577 0.74309 0.0
O301 O 0.78704 0.47213 0.71794 0.0
O302 O 0.84675 0.51392 0.65887 0.0
C303 C 0.7904 0.44306 0.73488 0.0
O304 O 0.90743 0.45335 0.79601 0.0
C305 C 0.83745 0.54343 0.67309 0.0
O306 O 0.89442 0.50186 0.76453 0.0
O307 O 0.83936 0.54571 0.70715 0.0
C308 C 0.84245 0.31339 0.51229 0.0
O309 O 0.8561 0.30733 0.48164 0.0
Cd310 Cd 0.83102 0.32777 0.4267 0.0
O311 O 0.81331 0.33036 0.51498 0.0
Cd312 Cd 0.77156 0.35953 0.47343 0.0
C313 C 0.7495 0.28454 0.42572 0.0
O314 O 0.82162 0.3898 0.44194 0.0
O315 O 0.76847 0.40161 0.42363 0.0
O316 O 0.75507 0.39533 0.52608 0.0
C317 C 0.8018 0.40917 0.42312 0.0
O318 O 0.78026 0.28692 0.41088 0.0
C319 C 0.72228 0.39741 0.51715 0.0
O320 O 0.74108 0.30675 0.44996 0.0
O321 O 0.71256 0.38102 0.48877 0.0
C322 C 0.66403 0.43237 0.17407 0.0
O323 O 0.65721 0.41806 0.20437 0.0
Cd324 Cd 0.62561 0.44453 0.25343 0.0
O325 O 0.65483 0.46427 0.1674 0.0
Cd326 Cd 0.62281 0.51258 0.19534 0.0
C327 C 0.67605 0.52248 0.26771 0.0
O328 O 0.58001 0.47341 0.2221 0.0
O329 O 0.57416 0.5287 0.23706 0.0
O330 O 0.59846 0.52775 0.13829 0.0
C331 C 0.56384 0.49621 0.24079 0.0
O332 O 0.6636 0.4928 0.28028 0.0
C333 C 0.60591 0.56121 0.14117 0.0
O334 O 0.66762 0.53288 0.23649 0.0
O335 O 0.62426 0.57123 0.16827 0.0
Sc336 Sc 0.06016 0.12741 0.10322 0.0
Sc337 Sc 0.11444 0.08763 0.16582 0.0
Sc338 Sc 0.14609 0.10521 0.08071 0.0
O339 O 0.10669 0.10625 0.11674 0.0
C340 C 0.08553 0.08902 0.0302 0.0
C341 C 0.03377 0.06206 0.14633 0.0
C342 C 0.15207 0.03048 0.12046 0.0
C343 C 0.06936 0.15253 0.18457 0.0
C344 C 0.11658 0.1817 0.07424 0.0
C345 C 0.19059 0.12622 0.14612 0.0
O346 O 0.06609 0.11124 0.04713 0.0
O347 O 0.05917 0.06764 0.16887 0.0
O348 O 0.16601 0.05485 0.10046 0.0
O349 O 0.04985 0.14694 0.15696 0.0
O350 O 0.13015 0.15547 0.05749 0.0
O351 O 0.17107 0.10586 0.16636 0.0
O352 O 0.08895 0.17727 0.09393 0.0
O353 O 0.09906 0.13731 0.1895 0.0
O354 O 0.1805 0.13552 0.11527 0.0
O355 O 0.03241 0.07756 0.1159 0.0
O356 O 0.11249 0.07516 0.0447 0.0
O357 O 0.1282 0.03665 0.1438 0.0
Sc358 Sc 0.17565 0.84988 0.36759 0.0
Sc359 Sc 0.08993 0.81227 0.35512 0.0
Sc360 Sc 0.10374 0.90328 0.34256 0.0
O361 O 0.12363 0.8553 0.35481 0.0
C362 C 0.16222 0.92649 0.40117 0.0
C363 C 0.13167 0.80737 0.4278 0.0
C364 C 0.03711 0.87318 0.38099 0.0
C365 C 0.16251 0.77438 0.33278 0.0
C366 C 0.17791 0.90508 0.30218 0.0
C367 C 0.06749 0.84947 0.28505 0.0
O368 O 0.17726 0.8963 0.40197 0.0
O369 O 0.10189 0.80626 0.4109 0.0
O370 O 0.06122 0.89796 0.38155 0.0
O371 O 0.18194 0.80296 0.33413 0.0
O372 O 0.14495 0.91288 0.30335 0.0
O373 O 0.078 0.8203 0.29912 0.0
O374 O 0.19278 0.88371 0.32384 0.0
O375 O 0.12984 0.77407 0.34218 0.0
O376 O 0.07042 0.87975 0.30101 0.0
O377 O 0.16158 0.81766 0.41404 0.0
O378 O 0.1357 0.93271 0.38104 0.0
O379 O 0.04352 0.8423 0.36846 0.0
Sc380 Sc 0.40028 0.86323 0.58834 0.0
Sc381 Sc 0.32426 0.91499 0.58065 0.0
Sc382 Sc 0.39046 0.93693 0.64463 0.0
O383 O 0.37172 0.90518 0.60465 0.0
C384 C 0.41734 0.86326 0.67188 0.0
C385 C 0.32509 0.82909 0.58218 0.0
C386 C 0.3068 0.92576 0.66267 0.0
C387 C 0.36822 0.89247 0.51495 0.0
C388 C 0.45928 0.92358 0.59528 0.0
C389 C 0.35779 -0.0066 0.59316 0.0
O390 O 0.41992 0.85073 0.64038 0.0
O391 O 0.31134 0.85849 0.57277 0.0
O392 O 0.33822 0.93817 0.67015 0.0
O393 O 0.38473 0.87023 0.5341 0.0
O394 O 0.44326 0.93777 0.62177 0.0
O395 O 0.33211 0.97252 0.58317 0.0
O396 O 0.44698 0.8966 0.57782 0.0
O397 O 0.34762 0.91598 0.52764 0.0
O398 O 0.38265 0.98391 0.61367 0.0
O399 O 0.35529 0.82777 0.5977 0.0
O400 O 0.40331 0.89312 0.67901 0.0
O401 O 0.29794 0.91397 0.63173 0.0
Sc402 Sc 0.33956 0.1168 0.84191 0.0
Sc403 Sc 0.38216 0.20021 0.85542 0.0
Sc404 Sc 0.32314 0.16429 0.92008 0.0
O405 O 0.34889 0.16023 0.87281 0.0
C406 C 0.26281 0.12648 0.87164 0.0
C407 C 0.34297 0.17881 0.78378 0.0
C408 C 0.31927 0.24298 0.89345 0.0
C409 C 0.42189 0.12864 0.8299 0.0
C410 C 0.33855 0.08356 0.92125 0.0
C411 C 0.40058 0.20057 0.93695 0.0
O412 O 0.28257 0.12407 0.84396 0.0
O413 O 0.35363 0.20352 0.80529 0.0
O414 O 0.30239 0.21501 0.90462 0.0
O415 O 0.39591 0.10708 0.83762 0.0
O416 O 0.341 0.11314 0.93843 0.0
O417 O 0.41235 0.2012 0.90482 0.0
O418 O 0.33587 0.0819 0.88731 0.0
O419 O 0.41949 0.16276 0.83199 0.0
O420 O 0.36866 0.19065 0.94512 0.0
O421 O 0.34103 0.14593 0.79259 0.0
O422 O 0.27471 0.13746 0.90173 0.0
O423 O 0.34948 0.24185 0.87756 0.0
Sc424 Sc 0.66618 0.33071 0.87206 0.0
Sc425 Sc 0.58094 0.28917 0.87439 0.0
Sc426 Sc 0.59488 0.37345 0.83455 0.0
O427 O 0.61364 0.3308 0.86034 0.0
C428 C 0.64842 0.41345 0.88221 0.0
C429 C 0.63013 0.30604 0.94373 0.0
C430 C 0.52776 0.35196 0.88484 0.0
C431 C 0.65017 0.24705 0.8583 0.0
C432 C 0.67207 0.36298 0.79757 0.0
C433 C 0.55575 0.3093 0.79484 0.0
O434 O 0.6704 0.38826 0.87814 0.0
O435 O 0.60509 0.28808 0.92758 0.0
O436 O 0.54404 0.37161 0.86187 0.0
O437 O 0.67033 0.27349 0.86766 0.0
O438 O 0.64392 0.38087 0.80347 0.0
O439 O 0.5548 0.28882 0.82231 0.0
O440 O 0.68 0.33617 0.81669 0.0
O441 O 0.61659 0.24959 0.85446 0.0
O442 O 0.57281 0.33939 0.79379 0.0
O443 O 0.6532 0.32613 0.9277 0.0
O444 O 0.61541 0.40981 0.8745 0.0
O445 O 0.53984 0.32246 0.89581 0.0
Sc446 Sc 0.89817 0.32693 0.13622 0.0
Sc447 Sc 0.86687 0.41223 0.14523 0.0
Sc448 Sc 0.85663 0.36814 0.06334 0.0
O449 O 0.87445 0.36908 0.11419 0.0
C450 C 0.93298 0.33066 0.05895 0.0
C451 C 0.945 0.3962 0.16179 0.0
C452 C 0.87163 0.45042 0.06866 0.0
C453 C 0.86029 0.3513 0.20406 0.0
C454 C 0.83919 0.28761 0.0874 0.0
C455 C 0.79211 0.39466 0.11146 0.0
O456 O 0.93445 0.32355 0.09221 0.0
O457 O 0.92373 0.4198 0.15025 0.0
O458 O 0.87703 0.42167 0.05124 0.0
O459 O 0.86238 0.32621 0.18125 0.0
O460 O 0.83315 0.3151 0.06859 0.0
O461 O 0.81092 0.40166 0.1393 0.0
O462 O 0.86296 0.28728 0.11172 0.0
O463 O 0.86666 0.38374 0.19539 0.0
O464 O 0.80508 0.38822 0.0804 0.0
O465 O 0.93685 0.36262 0.16299 0.0
O466 O 0.90672 0.34641 0.04431 0.0
O467 O 0.86495 0.44993 0.10195 0.0
Sc468 Sc 0.86481 0.60525 0.31905 0.0
Sc469 Sc 0.90549 0.67868 0.36188 0.0
Sc470 Sc 0.83609 0.63089 0.4035 0.0
O471 O 0.86918 0.63795 0.36155 0.0
C472 C 0.78502 0.60834 0.33846 0.0
C473 C 0.87629 0.68237 0.28363 0.0
C474 C 0.83765 0.71313 0.40018 0.0
C475 C 0.94754 0.61655 0.32203 0.0
C476 C 0.8522 0.55227 0.38621 0.0
C477 C 0.90981 0.65692 0.4404 0.0
O478 O 0.8089 0.61469 0.31492 0.0
O479 O 0.88426 0.69871 0.31272 0.0
O480 O 0.81778 0.68475 0.39845 0.0
O481 O 0.92081 0.5947 0.31967 0.0
O482 O 0.8532 0.57705 0.40984 0.0
O483 O 0.92739 0.66048 0.41133 0.0
O484 O 0.85387 0.55855 0.35259 0.0
O485 O 0.94537 0.64869 0.33334 0.0
O486 O 0.87619 0.64995 0.44117 0.0
O487 O 0.87356 0.64828 0.28125 0.0
O488 O 0.79154 0.60991 0.37187 0.0
O489 O 0.87072 0.71366 0.39147 0.0
Sc490 Sc 0.8657 0.81328 0.82116 0.0
Sc491 Sc 0.79466 0.86475 0.84733 0.0
Sc492 Sc 0.85327 0.89479 0.78026 0.0
O493 O 0.83679 0.85709 0.81532 0.0
C494 C 0.92571 0.87288 0.81261 0.0
C495 C 0.85388 0.83758 0.90002 0.0
C496 C 0.83193 0.94109 0.84699 0.0
C497 C 0.78546 0.78319 0.83749 0.0
C498 C 0.87149 0.81951 0.74136 0.0
C499 C 0.77079 0.89677 0.77064 0.0
O500 O 0.91648 0.83995 0.80906 0.0
O501 O 0.82082 0.84328 0.89419 0.0
O502 O 0.83889 0.94017 0.81361 0.0
O503 O 0.81941 0.78071 0.83564 0.0
O504 O 0.87316 0.85386 0.7436 0.0
O505 O 0.7657 0.88927 0.80374 0.0
O506 O 0.8575 0.80035 0.76609 0.0
O507 O 0.77015 0.81317 0.83491 0.0
O508 O 0.80131 0.89428 0.75529 0.0
O509 O 0.87525 0.82766 0.87561 0.0
O510 O 0.90429 0.89796 0.80629 0.0
O511 O 0.81772 0.91487 0.86379 0.0
Sc512 Sc 0.85215 0.13959 0.60843 0.0
Sc513 Sc 0.93579 0.15428 0.64621 0.0
Sc514 Sc 0.87275 0.09529 0.68728 0.0
O515 O 0.88717 0.12893 0.64704 0.0
C516 C 0.80131 0.13703 0.67684 0.0
C517 C 0.88613 0.2156 0.61675 0.0
C518 C 0.91128 0.16202 0.72655 0.0
C519 C 0.92731 0.13646 0.5658 0.0
C520 C 0.83951 0.05631 0.61726 0.0
C521 C 0.95362 0.07669 0.67844 0.0
O522 O 0.80702 0.14069 0.64353 0.0
O523 O 0.91713 0.20324 0.6219 0.0
O524 O 0.89682 0.13055 0.72732 0.0
O525 O 0.89365 0.141 0.56832 0.0
O526 O 0.84637 0.057 0.65082 0.0
O527 O 0.96211 0.10877 0.66926 0.0
O528 O 0.84323 0.08377 0.5973 0.0
O529 O 0.94771 0.13478 0.5931 0.0
O530 O 0.92117 0.06571 0.68179 0.0
O531 O 0.85789 0.19594 0.61814 0.0
O532 O 0.82344 0.12225 0.69755 0.0
O533 O 0.92481 0.1761 0.69832 0.0
Sc534 Sc 0.59336 0.06087 0.33193 0.0
Sc535 Sc 0.63593 0.0822 0.41228 0.0
Sc536 Sc 0.56898 0.13664 0.38098 0.0
O537 O 0.5998 0.09378 0.3746 0.0
C538 C 0.57976 0.13885 0.29817 0.0
C539 C 0.67611 0.06196 0.33846 0.0
C540 C 0.64799 0.16515 0.40391 0.0
C541 C 0.60384 0.0063 0.39586 0.0
C542 C 0.51391 0.07475 0.3544 0.0
C543 C 0.57105 0.10751 0.45999 0.0
O544 O 0.58131 0.10472 0.29563 0.0
O545 O 0.67353 0.06297 0.37259 0.0
O546 O 0.61454 0.17028 0.39914 0.0
O547 O 0.60348 0.01233 0.36227 0.0
O548 O 0.5208 0.10741 0.3632 0.0
O549 O 0.60357 0.09845 0.45759 0.0
O550 O 0.53792 0.05314 0.34478 0.0
O551 O 0.61126 0.03058 0.41879 0.0
O552 O 0.55403 0.12013 0.43374 0.0
O553 O 0.64925 0.06638 0.31808 0.0
O554 O 0.58028 0.15532 0.32804 0.0
O555 O 0.6609 0.13411 0.40709 0.0
Sc556 Sc 0.64468 0.83468 0.09017 0.0
Sc557 Sc 0.5618 0.80587 0.12602 0.0
Sc558 Sc 0.61067 0.87667 0.16572 0.0
O559 O 0.60566 0.83915 0.12696 0.0
C560 C 0.68711 0.84415 0.16416 0.0
C561 C 0.62354 0.75295 0.10359 0.0
C562 C 0.57756 0.80959 0.20803 0.0
C563 C 0.57192 0.82674 0.04466 0.0
C564 C 0.64856 0.91792 0.10012 0.0
C565 C 0.53031 0.88314 0.14602 0.0
O566 O 0.68654 0.83944 0.13024 0.0
O567 O 0.59065 0.7584 0.11019 0.0
O568 O 0.58553 0.84293 0.20566 0.0
O569 O 0.60601 0.82978 0.04733 0.0
O570 O 0.63847 0.91599 0.13262 0.0
O571 O 0.52699 0.84915 0.14152 0.0
O572 O 0.64771 0.8911 0.07907 0.0
O573 O 0.55154 0.81949 0.07124 0.0
O574 O 0.56055 0.89899 0.1511 0.0
O575 O 0.6464 0.77811 0.09774 0.0
O576 O 0.66047 0.85542 0.18181 0.0
O577 O 0.57042 0.79016 0.18074 0.0
Sc578 Sc 0.3537 0.63517 0.07373 0.0
Sc579 Sc 0.42674 0.6903 0.09911 0.0
Sc580 Sc 0.40457 0.61418 0.14813 0.0
O581 O 0.39429 0.64691 0.10729 0.0
C582 C 0.32133 0.61524 0.15142 0.0
C583 C 0.35078 0.71814 0.07353 0.0
C584 C 0.41941 0.69265 0.18122 0.0
C585 C 0.41759 0.65992 0.02135 0.0
C586 C 0.37671 0.55732 0.08973 0.0
C587 C 0.4813 0.63205 0.11913 0.0
O588 O 0.31899 0.61878 0.1175 0.0
O589 O 0.38435 0.7215 0.07863 0.0
O590 O 0.42119 0.65853 0.18232 0.0
O591 O 0.38515 0.64969 0.02708 0.0
O592 O 0.38733 0.56559 0.12107 0.0
O593 O 0.47446 0.66511 0.11709 0.0
O594 O 0.36992 0.58082 0.06633 0.0
O595 O 0.4383 0.67208 0.04594 0.0
O596 O 0.45768 0.60802 0.12709 0.0
O597 O 0.33355 0.68845 0.07725 0.0
O598 O 0.35091 0.61788 0.16852 0.0
O599 O 0.41641 0.70993 0.1521 0.0
Sc600 Sc 0.11197 0.56631 0.86312 0.0
Sc601 Sc 0.13541 0.63314 0.92627 0.0
Sc602 Sc 0.06785 0.64788 0.86376 0.0
O603 O 0.1049 0.61551 0.88467 0.0
C604 C 0.10565 0.61661 0.79534 0.0
C605 C 0.19257 0.59127 0.87896 0.0
C606 C 0.13075 0.70461 0.88266 0.0
C607 C 0.11853 0.5526 0.94781 0.0
C608 C 0.02857 0.57019 0.85447 0.0
C609 C 0.05615 0.6611 0.94542 0.0
O610 O 0.10934 0.58556 0.80869 0.0
O611 O 0.18494 0.6109 0.90581 0.0
O612 O 0.09895 0.69719 0.87226 0.0
O613 O 0.11568 0.54228 0.91529 0.0
O614 O 0.03021 0.6042 0.85126 0.0
O615 O 0.08956 0.6576 0.95179 0.0
O616 O 0.05567 0.55235 0.86335 0.0
O617 O 0.12382 0.58534 0.9567 0.0
O618 O 0.04227 0.65437 0.91487 0.0
O619 O 0.16895 0.57515 0.85986 0.0
O620 O 0.09305 0.64308 0.81248 0.0
O621 O 0.14985 0.68219 0.89898 0.0
Sc622 Sc 0.16891 0.37795 0.57347 0.0
Sc623 Sc 0.09677 0.32381 0.60513 0.0
Sc624 Sc 0.10867 0.41045 0.63715 0.0
O625 O 0.12527 0.37069 0.6051 0.0
C626 C 0.19269 0.40668 0.65083 0.0
C627 C 0.1738 0.29418 0.58638 0.0
C628 C 0.10016 0.34028 0.68619 0.0
C629 C 0.10635 0.34614 0.52357 0.0
C630 C 0.13906 0.45741 0.57271 0.0
C631 C 0.03455 0.38 0.61416 0.0
O632 O 0.20062 0.39403 0.61992 0.0
O633 O 0.14105 0.29017 0.59479 0.0
O634 O 0.0952 0.37325 0.67941 0.0
O635 O 0.13696 0.36222 0.52705 0.0
O636 O 0.11974 0.45342 0.60041 0.0
O637 O 0.04607 0.34829 0.6153 0.0
O638 O 0.15803 0.43251 0.56041 0.0
O639 O 0.08862 0.3312 0.54905 0.0
O640 O 0.05559 0.40737 0.61557 0.0
O641 O 0.18815 0.32469 0.57989 0.0
O642 O 0.1611 0.41511 0.66005 0.0
O643 O 0.1052 0.3171 0.66163 0.0
Sc644 Sc 0.57688 0.61634 0.64084 0.0
Sc645 Sc 0.63968 0.55172 0.66142 0.0
Sc646 Sc 0.63966 0.59232 0.57621 0.0
O647 O 0.61866 0.58637 0.62597 0.0
C648 C 0.55937 0.60322 0.55733 0.0
C649 C 0.55447 0.54273 0.67455 0.0
C650 C 0.64501 0.50742 0.58937 0.0
C651 C 0.62307 0.61496 0.71282 0.0
C652 C 0.62522 0.67289 0.60123 0.0
C653 C 0.70947 0.58611 0.62298 0.0
O654 O 0.55275 0.61656 0.58802 0.0
O655 O 0.5869 0.53463 0.68103 0.0
O656 O 0.64679 0.53539 0.5698 0.0
O657 O 0.59541 0.62292 0.69506 0.0
O658 O 0.63547 0.65006 0.57809 0.0
O659 O 0.6937 0.56678 0.6466 0.0
O660 O 0.60652 0.66469 0.62862 0.0
O661 O 0.64477 0.59137 0.70296 0.0
O662 O 0.69372 0.59907 0.59601 0.0
O663 O 0.54594 0.56919 0.6551 0.0
O664 O 0.58812 0.58684 0.55069 0.0
O665 O 0.63922 0.50834 0.62302 0.0
Sc666 Sc 0.3591 0.39565 0.42603 0.0
Sc667 Sc 0.3849 0.45135 0.35511 0.0
Sc668 Sc 0.42074 0.36756 0.36297 0.0
O669 O 0.38869 0.40523 0.38205 0.0
C670 C 0.43526 0.36075 0.44375 0.0
C671 C 0.37903 0.47643 0.43742 0.0
C672 C 0.46481 0.44131 0.34675 0.0
C673 C 0.30492 0.43347 0.3739 0.0
C674 C 0.35296 0.32098 0.38723 0.0
C675 C 0.39204 0.39404 0.29161 0.0
O676 O 0.40282 0.36817 0.45123 0.0
O677 O 0.37759 0.48192 0.40375 0.0
O678 O 0.45945 0.40741 0.34394 0.0
O679 O 0.31239 0.42101 0.40462 0.0
O680 O 0.38569 0.32323 0.37777 0.0
O681 O 0.39352 0.4266 0.30246 0.0
O682 O 0.33759 0.34653 0.40319 0.0
O683 O 0.3283 0.4422 0.35033 0.0
O684 O 0.39299 0.36788 0.31314 0.0
O685 O 0.37746 0.44508 0.45092 0.0
O686 O 0.44877 0.36452 0.41263 0.0
O687 O 0.44119 0.46176 0.35934 0.0
C688 C 0.03012 0.17192 0.27532 0.0
C689 C 0.01833 0.20721 0.27156 0.0
C690 C 0.04815 0.155 0.2473 0.0
C691 C 0.05396 0.17253 0.21442 0.0
H692 H 0.02568 0.15746 0.3002 0.0
H693 H 0.05664 0.12762 0.25097 0.0
S694 S 0.02747 0.26464 0.19079 0.0
N695 N 0.01386 0.2593 0.23273 0.0
N696 N 0.04631 0.22657 0.17923 0.0
C697 C 0.04204 0.20765 0.21014 0.0
C698 C 0.02461 0.2253 0.23903 0.0
C699 C 0.10541 0.82969 0.52155 0.0
C700 C 0.10745 0.79628 0.53893 0.0
C701 C 0.11605 0.83357 0.48586 0.0
C702 C 0.12971 0.80449 0.46671 0.0
H703 H 0.09254 0.85212 0.5344 0.0
H704 H 0.11129 0.85879 0.47242 0.0
S705 S 0.14996 0.71468 0.50208 0.0
N706 N 0.13115 0.73572 0.53612 0.0
N707 N 0.15123 0.74367 0.46859 0.0
C708 C 0.13633 0.7725 0.48471 0.0
C709 C 0.1254 0.76833 0.52118 0.0
C710 C 0.48121 0.84488 0.74717 0.0
C711 C 0.4796 0.80715 0.749 0.0
C712 C 0.45922 0.86312 0.72339 0.0
C713 C 0.43562 0.84406 0.70035 0.0
H714 H 0.49911 0.86039 0.76457 0.0
H715 H 0.4616 0.8922 0.72216 0.0
S716 S 0.42172 0.74518 0.69469 0.0
N717 N 0.45238 0.75139 0.72625 0.0
N718 N 0.41184 0.78577 0.68064 0.0
C719 C 0.43386 0.8064 0.70189 0.0
C720 C 0.45569 0.78789 0.72649 0.0
C721 C 0.45613 0.26796 -0.00938 0.0
C722 C 0.45325 0.25419 0.02569 0.0
C723 C 0.44143 0.24896 0.96128 0.0
C724 C 0.42279 0.21593 0.96618 0.0
H725 H 0.4695 0.29376 0.98583 0.0
H726 H 0.44296 0.26113 0.93496 0.0
S727 S 0.40894 0.1676 0.05216 0.0
N728 N 0.43175 0.2047 0.06329 0.0
N729 N 0.40346 0.16953 0.00827 0.0
C730 C 0.42063 0.20142 0.00089 0.0
C731 C 0.43603 0.22042 0.03062 0.0
C732 C 0.01811 0.8138 0.20287 0.0
C733 C 0.00642 0.84535 0.18632 0.0
C734 C 0.03886 0.81532 0.2341 0.0
C735 C 0.04892 0.84849 0.24985 0.0
H736 H 0.00972 0.78757 0.19264 0.0
H737 H 0.04593 0.79026 0.24658 0.0
S738 S 0.03002 0.93901 0.21309 0.0
N739 N 0.00955 0.91052 0.18529 0.0
N740 N 0.04907 0.91394 0.2437 0.0
C741 C 0.03926 0.88036 0.2321 0.0
C742 C 0.01784 0.87865 0.20045 0.0
C743 C 0.37235 0.82923 0.44575 0.0
C744 C 0.4096 0.83272 0.43977 0.0
C745 C 0.35391 0.85657 0.4632 0.0
C746 C 0.37271 0.88708 0.47654 0.0
H747 H 0.35801 0.80408 0.44011 0.0
H748 H 0.32668 0.85062 0.47221 0.0
S749 S 0.4664 0.91499 0.45547 0.0
N750 N 0.46174 0.87401 0.43851 0.0
N751 N 0.4268 0.92452 0.4725 0.0
C752 C 0.40761 0.89407 0.46384 0.0
C753 C 0.42658 0.8665 0.44603 0.0
C754 C 0.35083 0.17032 0.68362 0.0
C755 C 0.34947 0.2063 0.67264 0.0
C756 C 0.34505 0.161 0.71947 0.0
C757 C 0.33816 0.18748 0.74553 0.0
H758 H 0.35993 0.14983 0.66522 0.0
H759 H 0.34945 0.13342 0.7272 0.0
S760 S 0.32154 0.28366 0.7285 0.0
N761 N 0.33259 0.26712 0.68893 0.0
N762 N 0.32246 0.24952 0.75664 0.0
C763 C 0.33179 0.22258 0.734 0.0
C764 C 0.33706 0.23199 0.69731 0.0
C765 C 0.04863 0.10816 0.93992 0.0
C766 C 0.078 0.12755 0.92473 0.0
C767 C 0.05196 0.09092 0.97299 0.0
C768 C 0.08504 0.09113 -0.00918 0.0
H769 H 0.02184 0.11046 0.92903 0.0
H770 H 0.02789 0.08072 0.98634 0.0
S771 S 0.17213 0.12788 0.95648 0.0
N772 N 0.14257 0.13874 0.92569 0.0
N773 N 0.14929 0.10472 0.98706 0.0
C774 C 0.11578 0.10452 0.97262 0.0
C775 C 0.11218 0.12304 0.93949 0.0
C776 C 0.27641 0.12367 0.19856 0.0
C777 C 0.30153 0.11749 0.17102 0.0
C778 C 0.24051 0.13019 0.19051 0.0
C779 C 0.22905 0.13206 0.15476 0.0
H780 H 0.28318 0.1187 0.22634 0.0
H781 H 0.22115 0.13067 0.21225 0.0
S782 S 0.28741 0.12903 0.07366 0.0
N783 N 0.31461 0.12108 0.10745 0.0
N784 N 0.24766 0.13562 0.09188 0.0
C785 C 0.25535 0.13203 0.12732 0.0
C786 C 0.29162 0.12426 0.13559 0.0
C787 C 0.23998 0.99011 0.41918 0.0
C788 C 0.22322 0.02317 0.42378 0.0
C789 C 0.21978 0.95804 0.41596 0.0
C790 C 0.18197 0.95793 0.41639 0.0
H791 H 0.26897 0.98904 0.41716 0.0
H792 H 0.23398 0.93362 0.41034 0.0
S793 S 0.12526 0.03677 0.4323 0.0
N794 N 0.16684 0.05351 0.43262 0.0
N795 N 0.12866 -0.0069 0.42542 0.0
C796 C 0.16493 -0.00952 0.42332 0.0
C797 C 0.1856 0.02315 0.42725 0.0
C798 C 0.21538 0.92453 0.70718 0.0
C799 C 0.2236 0.92427 0.74398 0.0
C800 C 0.24248 0.92468 0.68122 0.0
C801 C 0.27896 0.92507 0.69099 0.0
H802 H 0.18771 0.92495 0.69827 0.0
H803 H 0.23469 0.9252 0.65323 0.0
S804 S 0.31488 0.9235 0.78382 0.0
N805 N 0.27083 0.92351 0.78902 0.0
N806 N 0.32195 0.92401 0.74007 0.0
C807 C 0.28764 0.9243 0.72771 0.0
C808 C 0.25993 0.92373 0.75423 0.0
C809 C 0.31839 0.98586 0.93111 0.0
C810 C 0.2861 0.98638 0.95057 0.0
C811 C 0.33875 0.01752 0.92559 0.0
C812 C 0.32786 0.05042 0.94012 0.0
H813 H 0.32681 0.9613 0.91826 0.0
H814 H 0.36153 0.01682 0.90747 0.0
S815 S 0.24967 0.06384 0.00012 0.0
N816 N 0.24696 0.02079 0.98904 0.0
N817 N 0.28598 0.08036 0.97976 0.0
C818 C 0.29787 0.05033 0.96314 0.0
C819 C 0.27655 0.01827 0.96786 0.0
C820 C 0.24592 0.97868 0.28475 0.0
C821 C 0.25012 0.97752 0.24731 0.0
C822 C 0.22226 0.95472 0.30193 0.0
C823 C 0.20166 0.92943 0.28225 0.0
H824 H 0.2622 -0.00316 0.30098 0.0
H825 H 0.22032 0.95573 0.33098 0.0
S826 S 0.19969 0.91819 0.18369 0.0
N827 N 0.23019 0.95063 0.19083 0.0
N828 N 0.18424 0.90629 0.22367 0.0
C829 C 0.20394 0.92918 0.24479 0.0
C830 C 0.22868 0.95312 0.22719 0.0
C831 C 0.33558 0.07941 0.54899 0.0
C832 C 0.35754 0.07809 0.51806 0.0
C833 C 0.33783 0.05347 0.57575 0.0
C834 C 0.36311 0.0266 0.57309 0.0
H835 H 0.31396 0.09821 0.55093 0.0
H836 H 0.31802 0.05281 0.59712 0.0
S837 S 0.43288 0.01676 0.50298 0.0
N838 N 0.4098 0.05167 0.49009 0.0
N839 N 0.41444 0.0033 0.54117 0.0
C840 C 0.38851 0.02797 0.5452 0.0
C841 C 0.38583 0.05393 0.51752 0.0
C842 C 0.19733 0.05181 0.89289 0.0
C843 C 0.17672 0.04964 0.86139 0.0
C844 C 0.22281 0.07965 0.89777 0.0
C845 C 0.22859 0.10606 0.87138 0.0
H846 H 0.19592 0.03047 0.9126 0.0
H847 H 0.24026 0.07863 0.92082 0.0
S848 S 0.17573 0.11786 0.78866 0.0
N849 N 0.15876 0.08068 0.80687 0.0
N850 N 0.20796 0.13222 0.81599 0.0
C851 C 0.20558 0.10661 0.84186 0.0
C852 C 0.17912 0.07863 0.837 0.0
C853 C 0.20551 0.95289 0.08975 0.0
C854 C 0.17936 0.93239 0.07077 0.0
C855 C 0.19607 0.98337 0.10924 0.0
C856 C 0.16014 -0.00671 0.11152 0.0
H857 H 0.23383 0.9478 0.08643 0.0
H858 H 0.2172 0.00071 0.12033 0.0
S859 S 0.08097 0.94427 0.07348 0.0
N860 N 0.11568 0.92105 0.05993 0.0
N861 N 0.09778 0.97766 0.09819 0.0
C862 C 0.13335 0.9705 0.09668 0.0
C863 C 0.14301 0.94005 0.0759 0.0
C864 C 0.19715 0.24529 0.0802 0.0
C865 C 0.18214 0.27832 0.08932 0.0
C866 C 0.17541 0.21478 0.07368 0.0
C867 C 0.13779 0.21575 0.07697 0.0
H868 H 0.22591 0.2432 0.07668 0.0
H869 H 0.18843 0.19006 0.06659 0.0
S870 S 0.08514 0.29554 0.10097 0.0
N871 N 0.12737 0.31049 0.10116 0.0
N872 N 0.0864 0.25238 0.09054 0.0
C873 C 0.12237 0.24845 0.08672 0.0
C874 C 0.14456 0.27989 0.09252 0.0
C875 C 0.66178 0.15575 0.89611 0.0
C876 C 0.69939 0.15328 0.89513 0.0
C877 C 0.64482 0.18412 0.87923 0.0
C878 C 0.66507 0.21101 0.86123 0.0
H879 H 0.64562 0.13767 0.91268 0.0
H880 H 0.61632 0.18712 0.88388 0.0
S881 S 0.76252 0.21052 0.84137 0.0
N882 N 0.75513 0.17506 0.86717 0.0
N883 N 0.72307 0.22896 0.83622 0.0
C884 C 0.7018 0.20585 0.85556 0.0
C885 C 0.71907 0.17675 0.87237 0.0
C886 C 0.0329 0.44844 0.17042 0.0
C887 C 0.04825 0.43326 0.20106 0.0
C888 C -0.00069 0.43634 0.15791 0.0
C889 C 0.98044 0.40811 0.17515 0.0
H890 H 0.04628 0.47075 0.15675 0.0
H891 H 0.98805 0.44914 0.13459 0.0
S892 S 0.00985 0.3581 0.25534 0.0
N893 N 0.04267 0.38797 0.2478 0.0
N894 N 0.97978 0.36446 0.22366 0.0
C895 C -0.004 0.39186 0.20512 0.0
C896 C 0.02988 0.40467 0.21827 0.0
C897 C 0.83418 0.79034 0.46588 0.0
C898 C 0.79739 0.79738 0.46724 0.0
C899 C 0.84733 0.76464 0.44209 0.0
C900 C 0.82397 0.74451 0.41949 0.0
H901 H 0.85285 0.80423 0.48379 0.0
H902 H 0.87574 0.75916 0.44289 0.0
S903 S 0.72568 0.75439 0.41098 0.0
N904 N 0.73801 0.78378 0.44224 0.0
N905 N 0.76287 0.73485 0.39822 0.0
C906 C 0.78737 0.75223 0.41959 0.0
C907 C 0.77403 0.77884 0.4433 0.0
C908 C 0.96191 0.02047 0.20535 0.0
C909 C 0.95081 0.98975 0.18583 0.0
C910 C 0.98828 0.04423 0.19176 0.0
C911 C 0.00369 0.03855 0.15784 0.0
H912 H 0.95128 0.02541 0.23195 0.0
H913 H -0.00291 0.06696 0.20813 0.0
S914 S 0.98218 0.96358 0.09511 0.0
N915 N 0.95612 0.95561 0.1303 0.0
N916 N 0.00515 0.00118 0.10431 0.0
C917 C -0.00821 0.00889 0.13733 0.0
C918 C 0.96547 0.98419 0.15149 0.0
C919 C 0.26098 0.75963 0.54205 0.0
C920 C 0.28414 0.73931 0.52066 0.0
C921 C 0.27439 0.78817 0.56324 0.0
C922 C 0.31141 0.79624 0.56454 0.0
H923 H 0.23227 0.75396 0.54177 0.0
H924 H 0.25576 0.80422 0.57835 0.0
S925 S 0.38322 0.75105 0.51363 0.0
N926 N 0.34575 0.72932 0.50196 0.0
N927 N 0.37098 0.78227 0.54238 0.0
C928 C 0.33486 0.77571 0.54374 0.0
C929 C 0.3212 0.74738 0.52159 0.0
C930 C 0.04337 0.58701 0.31781 0.0
C931 C 0.04654 0.57616 0.28172 0.0
C932 C 0.01156 0.60169 0.33063 0.0
C933 C 0.9819 0.60498 0.30788 0.0
H934 H 0.06522 0.5832 0.33644 0.0
H935 H 0.0096 0.60903 0.35872 0.0
S936 S 0.97696 0.58304 0.21103 0.0
N937 N 0.01788 0.57212 0.22303 0.0
N938 N 0.95785 0.59874 0.24768 0.0
C939 C 0.98507 0.59559 0.27163 0.0
C940 C 0.01756 0.58145 0.25835 0.0
C941 C 0.44579 0.40605 0.88426 0.0
C942 C 0.42241 0.38251 0.86513 0.0
C943 C 0.47922 0.39459 0.8961 0.0
C944 C 0.48955 0.35903 0.89033 0.0
H945 H 0.44055 0.43451 0.88593 0.0
H946 H 0.49856 0.41451 0.90611 0.0
S947 S 0.43366 0.28469 0.85131 0.0
N948 N 0.40871 0.3205 0.84783 0.0
N949 N 0.47094 0.29868 0.87157 0.0
C950 C 0.4639 0.33395 0.87702 0.0
C951 C 0.43033 0.34579 0.864 0.0
C952 C 0.95663 0.80494 0.68922 0.0
C953 C 0.95778 0.76724 0.68687 0.0
C954 C 0.92683 0.82186 0.70368 0.0
C955 C 0.89702 0.80177 0.71689 0.0
H956 H 0.97924 0.82168 0.68043 0.0
H957 H 0.92829 0.85087 0.70645 0.0
S958 S 0.8848 0.70235 0.71317 0.0
N959 N 0.92513 0.71032 0.69596 0.0
N960 N 0.86909 0.74216 0.72347 0.0
C961 C 0.89691 0.76409 0.71279 0.0
C962 C 0.92731 0.74683 0.69786 0.0
C963 C 0.92487 0.15267 0.4678 0.0
C964 C 0.9506 0.1807 0.46459 0.0
C965 C 0.92137 0.13339 0.49984 0.0
C966 C 0.94287 0.14237 0.52982 0.0
H967 H 0.9052 0.14793 0.44678 0.0
H968 H 0.8989 0.11439 0.50254 0.0
S969 S 0.01814 0.20984 0.53217 0.0
N970 N 0.00133 0.21307 0.49136 0.0
N971 N -0.00559 0.17741 0.5521 0.0
C972 C 0.97164 0.16728 0.52521 0.0
C973 C 0.97537 0.18663 0.49241 0.0
C974 C 0.57189 0.22041 0.23889 0.0
C975 C 0.54931 0.20783 0.21107 0.0
C976 C 0.58332 0.19733 0.26584 0.0
C977 C 0.57305 0.16062 0.26584 0.0
H978 H 0.57976 0.24863 0.24074 0.0
H979 H 0.59945 0.20864 0.28751 0.0
S980 S 0.51716 0.11334 0.197 0.0
N981 N 0.51927 0.15562 0.18361 0.0
N982 N 0.54102 0.11216 0.23426 0.0
C983 C 0.55219 0.14718 0.23707 0.0
C984 C 0.54019 0.17082 0.20974 0.0
C985 C 0.56492 0.83709 0.94403 0.0
C986 C 0.52872 0.82802 0.93724 0.0
C987 C 0.57816 0.83852 0.97903 0.0
C988 C 0.55574 0.8306 0.00862 0.0
H989 H 0.58371 0.84078 0.922 0.0
H990 H 0.60666 0.84406 0.9826 0.0
S991 S 0.45737 0.81058 0.00513 0.0
N992 N 0.46959 0.81513 0.96275 0.0
N993 N 0.49431 0.81782 0.02881 0.0
C994 C 0.5187 0.82461 0.0023 0.0
C995 C 0.5052 0.82342 0.96651 0.0
C996 C 0.93157 0.18225 0.8236 0.0
C997 C 0.93564 0.21997 0.82374 0.0
C998 C 0.92105 0.16364 0.79252 0.0
C999 C 0.91488 0.1822 0.76048 0.0
H1000 H 0.9393 0.16687 0.84684 0.0
H1001 H 0.92051 0.1345 0.79293 0.0
S1002 S 0.91455 0.28121 0.74893 0.0
N1003 N 0.92706 0.27547 0.79097 0.0
N1004 N 0.90759 0.24039 0.73222 0.0
C1005 C 0.91524 0.22001 0.76127 0.0
C1006 C 0.9254 0.23898 0.79312 0.0
C1007 C 0.49363 0.10598 0.52476 0.0
C1008 C 0.50987 0.11917 0.55639 0.0
C1009 C 0.51425 0.09933 0.49424 0.0
C1010 C 0.55179 0.10482 0.49457 0.0
H1011 H 0.46465 0.10473 0.52212 0.0
H1012 H 0.5004 0.09239 0.46949 0.0
S1013 S 0.6079 0.12624 0.57424 0.0
N1014 N 0.56612 0.12809 0.58899 0.0
N1015 N 0.60496 0.11513 0.53136 0.0
C1016 C 0.56873 0.11187 0.52756 0.0
C1017 C 0.54766 0.11896 0.55871 0.0
C1018 C 0.58637 0.80308 0.30855 0.0
C1019 C 0.56311 0.77392 0.31712 0.0
C1020 C 0.59242 0.81302 0.27296 0.0
C1021 C 0.57585 0.79395 0.24445 0.0
H1022 H 0.59754 0.82034 0.32947 0.0
H1023 H 0.60878 0.83706 0.26795 0.0
S1024 S 0.52214 0.70873 0.25206 0.0
N1025 N 0.53032 0.72101 0.29396 0.0
N1026 N 0.54191 0.73986 0.22679 0.0
C1027 C 0.55675 0.7618 0.25235 0.0
C1028 C 0.55048 0.75163 0.28879 0.0
C1029 C 0.85981 0.84336 0.0011 0.0
C1030 C 0.89684 0.84978 0.00693 0.0
C1031 C 0.84586 0.8403 0.9664 0.0
C1032 C 0.86845 0.84341 0.93635 0.0
H1033 H 0.84163 0.83884 0.02346 0.0
H1034 H 0.81745 0.83397 0.9632 0.0
S1035 S 0.96591 0.86795 0.93681 0.0
N1036 N 0.95482 0.86467 0.97962 0.0
N1037 N 0.92857 0.85897 0.91432 0.0
C1038 C 0.90499 0.85278 0.94169 0.0
C1039 C 0.91917 0.85611 0.97703 0.0
C1040 C 0.72482 0.95784 0.70501 0.0
C1041 C 0.69089 0.96216 0.72087 0.0
C1042 C 0.74973 0.93468 0.71988 0.0
C1043 C 0.74162 0.91478 0.75112 0.0
H1044 H 0.73281 0.97356 0.68176 0.0
H1045 H 0.77612 0.93382 0.70768 0.0
S1046 S 0.65386 0.91161 0.79891 0.0
N1047 N 0.6487 0.9413 0.76667 0.0
N1048 N 0.69525 0.89749 0.7945 0.0
C1049 C 0.70675 0.91695 0.76565 0.0
C1050 C 0.68151 0.94075 0.75063 0.0
C1051 C 0.78543 0.96897 0.60607 0.0
C1052 C 0.78586 0.96349 0.56864 0.0
C1053 C 0.80416 -0.00182 0.62187 0.0
C1054 C 0.82392 0.02307 0.60081 0.0
H1055 H 0.76988 0.95103 0.62332 0.0
H1056 H 0.80201 0.00195 0.65064 0.0
S1057 S 0.83697 0.0187 0.50202 0.0
N1058 N 0.81005 0.98393 0.51126 0.0
N1059 N 0.84528 0.03862 0.54089 0.0
C1060 C 0.82582 0.01703 0.56352 0.0
C1061 C 0.80678 0.98733 0.54746 0.0
C1062 C 0.76991 0.02566 0.33203 0.0
C1063 C 0.77446 0.01957 0.29506 0.0
C1064 C 0.73895 0.04129 0.34547 0.0
C1065 C 0.71096 0.05137 0.32257 0.0
H1066 H 0.7898 0.01696 0.35106 0.0
H1067 H 0.73643 0.04394 0.37432 0.0
S1068 S 0.71212 0.04639 0.22297 0.0
N1069 N 0.75033 0.02869 0.23526 0.0
N1070 N 0.69188 0.05807 0.26052 0.0
C1071 C 0.71629 0.04786 0.28526 0.0
C1072 C 0.74808 0.03199 0.27152 0.0
C1073 C 0.68164 -0.00729 0.03903 0.0
C1074 C 0.71015 0.00862 0.05887 0.0
C1075 C 0.66077 0.96408 0.05301 0.0
C1076 C 0.66706 0.95104 0.08765 0.0
H1077 H 0.67619 0.00148 0.01195 0.0
H1078 H 0.64003 0.95161 0.03638 0.0
S1079 S 0.73763 0.98341 0.15096 0.0
N1080 N 0.74301 0.00929 0.11535 0.0
N1081 N 0.70325 0.95596 0.14169 0.0
C1082 C 0.69454 0.96738 0.10828 0.0
C1083 C 0.71625 -0.00395 0.09387 0.0
C1084 C 0.71348 0.11817 0.72159 0.0
C1085 C 0.6903 0.13133 0.69523 0.0
C1086 C 0.75058 0.12445 0.71881 0.0
C1087 C 0.76492 0.14448 0.68999 0.0
H1088 H 0.70383 0.0985 0.74098 0.0
H1089 H 0.76795 0.1097 0.73639 0.0
S1090 S 0.71364 0.19813 0.6251 0.0
N1091 N 0.68274 0.17455 0.64743 0.0
N1092 N 0.75254 0.18771 0.64293 0.0
C1093 C 0.74132 0.16429 0.66884 0.0
C1094 C 0.70371 0.15745 0.67138 0.0
C1095 C 0.64635 0.92074 0.41562 0.0
C1096 C 0.63766 0.91746 0.45234 0.0
C1097 C 0.6301 0.94647 0.39431 0.0
C1098 C 0.60487 0.96942 0.40931 0.0
H1099 H 0.66847 0.90623 0.40419 0.0
H1100 H 0.64089 0.95154 0.36772 0.0
S1101 S 0.56337 0.96236 0.49953 0.0
N1102 N 0.59503 0.93214 0.49951 0.0
N1103 N 0.56466 0.98073 0.45924 0.0
C1104 C 0.5913 0.96181 0.44373 0.0
C1105 C 0.60781 0.93571 0.46547 0.0
C1106 C 0.78545 0.85695 0.18243 0.0
C1107 C 0.78572 0.86136 0.21997 0.0
C1108 C 0.75379 0.84745 0.16436 0.0
C1109 C 0.72149 0.84199 0.18334 0.0
H1110 H 0.80904 0.86387 0.16654 0.0
H1111 H 0.75409 0.84769 0.13529 0.0
S1112 S 0.71087 0.83841 0.28235 0.0
N1113 N 0.75326 0.85109 0.27594 0.0
N1114 N 0.69357 0.83272 0.24189 0.0
C1115 C 0.72269 0.84092 0.22108 0.0
C1116 C 0.75497 0.85069 0.2395 0.0
C1117 C 0.8204 0.03157 0.88834 0.0
C1118 C 0.83641 0.02687 0.92228 0.0
C1119 C 0.82232 0.0051 0.86165 0.0
C1120 C 0.84032 0.97333 0.86825 0.0
H1121 H 0.80398 0.05457 0.88326 0.0
H1122 H 0.80698 0.00807 0.83721 0.0
S1123 S 0.89328 0.95123 0.94885 0.0
N1124 N 0.87601 -0.00941 0.95826 0.0
N1125 N 0.87936 0.94079 0.90797 0.0
C1126 C 0.85988 0.97012 0.9002 0.0
C1127 C 0.8581 -0.00296 0.9273 0.0
C1128 C 0.7727 0.69085 0.87506 0.0
C1129 C 0.74427 0.69525 0.89924 0.0
C1130 C 0.78266 0.71807 0.85111 0.0
C1131 C 0.76532 0.75124 0.85132 0.0
H1132 H 0.78856 0.66689 0.87585 0.0
H1133 H 0.80623 0.71422 0.83456 0.0
S1134 S 0.68455 0.77297 0.90497 0.0
N1135 N 0.69488 0.73218 0.9181 0.0
N1136 N 0.71443 0.78445 0.87392 0.0
C1137 C 0.73425 0.75437 0.87267 0.0
C1138 C 0.72365 0.72611 0.89665 0.0
C1139 C 0.33989 0.79654 0.01182 0.0
C1140 C 0.30255 0.79863 0.00874 0.0
C1141 C 0.35501 0.7719 0.03485 0.0
C1142 C 0.33333 0.74785 0.05516 0.0
H1143 H 0.35767 0.81412 -0.00368 0.0
H1144 H 0.38404 0.77077 0.03541 0.0
S1145 S 0.23375 0.74378 0.05768 0.0
N1146 N 0.24389 0.77616 0.02885 0.0
N1147 N 0.27252 0.72871 0.0718 0.0
C1148 C 0.29582 0.75025 0.053 0.0
C1149 C 0.28037 0.77593 0.02986 0.0
C1150 C 0.96549 0.49204 0.82926 0.0
C1151 C 0.93727 0.50894 0.81157 0.0
C1152 C -0.00613 0.51213 0.8448 0.0
C1153 C -0.00483 0.55004 0.8435 0.0
H1154 H 0.9667 0.46297 0.82962 0.0
H1155 H 0.01567 0.49763 0.85662 0.0
S1156 S 0.92459 0.6074 0.80549 0.0
N1157 N 0.91008 0.56582 0.79737 0.0
N1158 N 0.96316 0.60368 0.8267 0.0
C1159 C 0.9657 0.56732 0.82818 0.0
C1160 C 0.93688 0.54678 0.81216 0.0
C1161 C 0.19031 0.20382 0.54551 0.0
C1162 C 0.22691 0.2066 0.5365 0.0
C1163 C 0.174 0.23081 0.56529 0.0
C1164 C 0.19362 0.26184 0.5763 0.0
H1165 H 0.1736 0.18163 0.53556 0.0
H1166 H 0.14519 0.22854 0.5693 0.0
S1167 S 0.29195 0.27795 0.56676 0.0
N1168 N 0.28375 0.2395 0.54558 0.0
N1169 N 0.25278 0.29071 0.5824 0.0
C1170 C 0.231 0.26309 0.57081 0.0
C1171 C 0.24775 0.23533 0.55094 0.0
C1172 C 0.00384 0.92793 0.84952 0.0
C1173 C 0.03346 0.90661 0.84173 0.0
C1174 C 0.96903 0.91625 0.84078 0.0
C1175 C 0.96244 0.8826 0.82443 0.0
H1176 H 0.00762 0.95487 0.86031 0.0
H1177 H 0.94722 0.93424 0.84602 0.0
S1178 S 0.02988 0.8135 0.80527 0.0
N1179 N 0.05346 0.84803 0.82172 0.0
N1180 N 0.98766 0.82587 0.80553 0.0
C1181 C -0.00867 0.8595 0.81975 0.0
C1182 C 0.02695 0.87151 0.82849 0.0
C1183 C 0.68732 0.25732 0.42734 0.0
C1184 C 0.72349 0.25505 0.41639 0.0
C1185 C 0.66263 0.22864 0.42209 0.0
C1186 C 0.67332 0.19639 0.4062 0.0
H1187 H 0.67802 0.28127 0.44068 0.0
H1188 H 0.63535 0.23131 0.4317 0.0
S1189 S 0.76377 0.17761 0.36963 0.0
N1190 N 0.76791 0.21866 0.38645 0.0
N1191 N 0.72162 0.16463 0.37692 0.0
C1192 C 0.70898 0.19416 0.39386 0.0
C1193 C 0.73402 0.22353 0.39881 0.0
C1194 C 0.95099 0.42926 0.63568 0.0
C1195 C 0.93077 0.40274 0.65416 0.0
C1196 C 0.98307 0.42081 0.61862 0.0
C1197 C -0.00422 0.38558 0.61943 0.0
H1198 H 0.94404 0.45732 0.63735 0.0
H1199 H -0.00051 0.44265 0.60763 0.0
S1200 S 0.94561 0.30465 0.65304 0.0
N1201 N 0.92042 0.33875 0.66429 0.0
N1202 N 0.98067 0.3225 0.63171 0.0
C1203 C 0.97269 0.35793 0.6326 0.0
C1204 C 0.94016 0.36666 0.65029 0.0
C1205 C 0.55786 0.57293 0.09806 0.0
C1206 C 0.58443 0.58708 0.12134 0.0
C1207 C 0.52483 0.58934 0.09527 0.0
C1208 C 0.51833 0.62112 0.11424 0.0
H1209 H 0.56049 0.54656 0.08601 0.0
H1210 H 0.50339 0.57567 0.08049 0.0
S1211 S 0.58404 0.67594 0.16697 0.0
N1212 N 0.60587 0.63969 0.15516 0.0
N1213 N 0.54373 0.67119 0.14886 0.0
C1214 C 0.54697 0.63916 0.13161 0.0
C1215 C 0.58048 0.62211 0.13501 0.0
C1216 C 0.63033 0.69558 0.77087 0.0
C1217 C 0.61082 0.68328 0.80093 0.0
C1218 C 0.63916 0.67165 0.7434 0.0
C1219 C 0.62955 0.63498 0.74598 0.0
H1220 H 0.63438 0.72414 0.76615 0.0
H1221 H 0.64985 0.68245 0.71847 0.0
S1222 S 0.58852 0.58846 0.82403 0.0
N1223 N 0.58964 0.63148 0.83539 0.0
N1224 N 0.60695 0.58639 0.78372 0.0
C1225 C 0.61553 0.62171 0.77831 0.0
C1226 C 0.60612 0.64604 0.80606 0.0
C1227 C 0.61515 0.34795 0.03367 0.0
C1228 C 0.59998 0.31884 0.05302 0.0
C1229 C 0.62908 0.3429 -0.00083 0.0
C1230 C 0.62794 0.30867 0.983 0.0
H1231 H 0.61305 0.37522 0.04364 0.0
H1232 H 0.63721 0.36645 0.98379 0.0
S1233 S 0.60192 0.22247 0.0263 0.0
N1234 N 0.59332 0.25343 0.05678 0.0
N1235 N 0.61837 0.24451 -0.00871 0.0
C1236 C 0.61778 0.27886 0.00383 0.0
C1237 C 0.60428 0.2838 0.03923 0.0
C1238 C 0.8939 0.35178 0.29835 0.0
C1239 C 0.88779 0.31576 0.30831 0.0
C1240 C 0.88061 0.36471 0.26606 0.0
C1241 C 0.86139 0.34174 0.24239 0.0
H1242 H 0.91151 0.3693 0.31415 0.0
H1243 H 0.88877 0.39172 0.25811 0.0
S1244 S 0.83015 0.24807 0.26082 0.0
N1245 N 0.85494 0.25956 0.29597 0.0
N1246 N 0.83042 0.28375 0.23458 0.0
C1247 C 0.85104 0.30716 0.25433 0.0
C1248 C 0.86417 0.29414 0.28758 0.0
C1249 C 0.98268 0.67752 0.50811 0.0
C1250 C 0.96501 0.69961 0.53278 0.0
C1251 C 0.96429 0.66241 0.47877 0.0
C1252 C 0.92752 0.66817 0.4739 0.0
H1253 H 0.01122 0.67318 0.51059 0.0
H1254 H 0.97907 0.64683 0.45937 0.0
S1255 S 0.86862 0.72171 0.53286 0.0
N1256 N 0.90865 0.72509 0.55172 0.0
N1257 N 0.87369 0.696 0.4971 0.0
C1258 C 0.9092 0.68878 0.49946 0.0
C1259 C 0.9281 0.70475 0.5288 0.0
C1260 C 0.51194 0.25206 0.7223 0.0
C1261 C 0.49641 0.27784 0.69995 0.0
C1262 C 0.53064 0.2623 0.75337 0.0
C1263 C 0.53491 0.2987 0.76286 0.0
H1264 H 0.50962 0.22365 0.71587 0.0
H1265 H 0.54239 0.24165 0.76966 0.0
S1266 S 0.49766 0.37666 0.71501 0.0
N1267 N 0.48529 0.34134 0.69056 0.0
N1268 N 0.52055 0.36055 0.74891 0.0
C1269 C 0.519 0.32474 0.74123 0.0
C1270 C 0.49969 0.31433 0.70978 0.0
C1271 C -0.00734 0.31654 0.97836 0.0
C1272 C 0.00706 0.28274 0.98545 0.0
C1273 C 0.96967 0.33274 0.00293 0.0
C1274 C 0.96124 0.31615 0.03577 0.0
H1275 H -0.00247 0.32974 0.95293 0.0
H1276 H 0.95767 0.3579 -0.00425 0.0
S1277 S -0.00339 0.22997 0.06908 0.0
N1278 N 0.01438 0.23491 0.02872 0.0
N1279 N 0.97202 0.26565 0.07558 0.0
C1280 C 0.9778 0.28364 0.0443 0.0
C1281 C 0.00055 0.26685 0.01894 0.0
C1282 C 0.86249 0.7628 0.22418 0.0
C1283 C 0.87001 0.74924 0.18977 0.0
C1284 C 0.86332 0.74059 0.25428 0.0
C1285 C 0.87116 0.70396 0.251 0.0
H1286 H 0.85844 0.79125 0.22836 0.0
H1287 H 0.85901 0.75258 0.28043 0.0
S1288 S 0.88622 0.65409 0.16595 0.0
N1289 N 0.88073 0.69609 0.15344 0.0
N1290 N 0.88203 0.65413 0.21005 0.0
C1291 C 0.8755 0.68938 0.21638 0.0
C1292 C 0.87493 0.7121 0.18573 0.0
C1293 C 0.54087 0.64839 0.46963 0.0
C1294 C 0.5053 0.65926 0.47365 0.0
C1295 C 0.55685 0.62664 0.49523 0.0
C1296 C 0.5382 0.61586 0.52648 0.0
H1297 H 0.55703 0.65807 0.44725 0.0
H1298 H 0.58501 0.62084 0.49185 0.0
S1299 S 0.44291 0.6338 0.54742 0.0
N1300 N 0.45041 0.65446 0.50883 0.0
N1301 N 0.48101 0.61484 0.55818 0.0
C1302 C 0.50181 0.62467 0.52967 0.0
C1303 C 0.48519 0.64606 0.50292 0.0
C1304 C 0.80368 0.55832 0.61801 0.0
C1305 C 0.81553 0.56871 0.65256 0.0
C1306 C 0.77029 0.56893 0.60523 0.0
C1307 C 0.74843 0.59055 0.62645 0.0
H1308 H 0.81771 0.53811 0.60287 0.0
H1309 H 0.7597 0.55646 0.58097 0.0
S1310 S 0.77312 0.6357 0.71189 0.0
N1311 N 0.80758 0.61028 0.70247 0.0
N1312 N 0.74441 0.62948 0.67855 0.0
C1313 C 0.76284 0.6063 0.65764 0.0
C1314 C 0.79686 0.59578 0.67057 0.0
C1315 C 0.71293 0.49287 0.88549 0.0
C1316 C 0.69563 0.51703 0.90833 0.0
C1317 C 0.69715 0.45947 0.87725 0.0
C1318 C 0.66327 0.44925 0.89109 0.0
H1319 H 0.73949 0.49915 0.8749 0.0
H1320 H 0.71172 0.44145 0.85994 0.0
S1321 S 0.60534 0.50387 0.94947 0.0
N1322 N 0.64182 0.52939 0.94306 0.0
N1323 N 0.61178 0.46635 0.92676 0.0
C1324 C 0.64483 0.47364 0.91259 0.0
C1325 C 0.66116 0.50761 0.92149 0.0
C1326 C 0.70654 0.38406 0.16081 0.0
C1327 C 0.68849 0.41449 0.14899 0.0
C1328 C 0.73881 0.37459 0.14493 0.0
C1329 C 0.75341 0.39482 0.11649 0.0
H1330 H 0.69799 0.36981 0.18478 0.0
H1331 H 0.75419 0.35364 0.15725 0.0
S1332 S 0.71099 0.46902 0.06825 0.0
N1333 N 0.68299 0.45899 0.10142 0.0
N1334 N 0.74428 0.44086 0.07183 0.0
C1335 C 0.73295 0.42132 0.10066 0.0
C1336 C 0.70006 0.43122 0.11689 0.0
C1337 C 0.84039 0.45072 0.38641 0.0
C1338 C 0.81452 0.44536 0.41342 0.0
C1339 C 0.85342 0.48551 0.37819 0.0
C1340 C 0.84187 0.51556 0.3977 0.0
H1341 H 0.85013 0.42804 0.37128 0.0
H1342 H 0.8725 0.48895 0.35639 0.0
S1343 S 0.7754 0.51454 0.47227 0.0
N1344 N 0.77827 0.47199 0.46013 0.0
N1345 N 0.80338 0.5372 0.44573 0.0
C1346 C 0.81669 0.51007 0.42555 0.0
C1347 C 0.80284 0.47494 0.43315 0.0
C1348 C 0.72493 0.43413 0.74646 0.0
C1349 C 0.75938 0.41984 0.74516 0.0
C1350 C 0.69587 0.41417 0.7606 0.0
C1351 C 0.70019 0.37913 0.77392 0.0
H1352 H 0.7207 0.4616 0.73826 0.0
H1353 H 0.67038 0.4273 0.76307 0.0
S1354 S 0.78356 0.32678 0.76868 0.0
N1355 N 0.79524 0.36678 0.75271 0.0
N1356 N 0.74056 0.32896 0.77906 0.0
C1357 C 0.73386 0.36334 0.76942 0.0
C1358 C 0.76351 0.38382 0.75522 0.0
C1359 C 0.85354 0.5132 -0.00865 0.0
C1360 C 0.83765 0.54246 0.00867 0.0
C1361 C 0.86729 0.48465 0.01102 0.0
C1362 C 0.86603 0.48449 0.04879 0.0
H1363 H 0.85315 0.51105 0.96234 0.0
H1364 H 0.87694 0.46164 -0.00363 0.0
S1365 S 0.83449 0.55916 0.10667 0.0
N1366 N 0.82633 0.57242 0.06534 0.0
N1367 N 0.85306 0.51957 0.10263 0.0
C1368 C 0.85357 0.51555 0.06634 0.0
C1369 C 0.83904 0.54427 0.04622 0.0
C1370 C 0.71263 0.57911 0.27457 0.0
C1371 C 0.70021 0.54619 0.28933 0.0
C1372 C 0.73791 0.60096 0.29238 0.0
C1373 C 0.75148 0.59101 0.32583 0.0
H1374 H 0.7039 0.58764 0.24831 0.0
H1375 H 0.7483 0.62494 0.27903 0.0
S1376 S 0.7251 0.5098 0.37822 0.0
N1377 N 0.70118 0.50635 0.34104 0.0
N1378 N 0.74888 0.54778 0.37466 0.0
C1379 C 0.73754 0.55959 0.34224 0.0
C1380 C 0.71191 0.53702 0.3239 0.0
C1381 C 0.70387 0.42857 0.57341 0.0
C1382 C 0.69742 0.42044 0.53709 0.0
C1383 C 0.68396 0.4545 0.59139 0.0
C1384 C 0.65754 0.47375 0.57336 0.0
H1385 H 0.72535 0.41579 0.58768 0.0
H1386 H 0.69122 0.4614 0.61876 0.0
S1387 S 0.62796 0.46024 0.47933 0.0
N1388 N 0.66036 0.43136 0.48469 0.0
N1389 N 0.6239 0.48103 0.51831 0.0
C1390 C 0.64943 0.46447 0.53772 0.0
C1391 C 0.66914 0.43753 0.51961 0.0
C1392 C 0.67374 0.76067 0.62131 0.0
C1393 C 0.67482 0.77719 0.58746 0.0
C1394 C 0.6553 0.72773 0.62625 0.0
C1395 C 0.63825 0.71009 0.59726 0.0
H1396 H 0.68818 0.77268 0.64378 0.0
H1397 H 0.6562 0.71501 0.65233 0.0
S1398 S 0.6307 0.74302 0.5041 0.0
N1399 N 0.65481 0.77451 0.52513 0.0
N1400 N 0.62113 0.71209 0.53457 0.0
C1401 C 0.63768 0.72695 0.5638 0.0
C1402 C 0.65571 0.76074 0.55886 0.0
C1403 C 0.23317 0.70824 0.35172 0.0
C1404 C 0.21152 0.67897 0.36345 0.0
C1405 C 0.21772 0.73804 0.3356 0.0
C1406 C 0.18025 0.73914 0.33071 0.0
H1407 H 0.2612 0.71043 0.35939 0.0
H1408 H 0.2346 0.76187 0.33141 0.0
S1409 S 0.11526 0.66245 0.34297 0.0
N1410 N 0.15337 0.64816 0.35954 0.0
N1411 N 0.12433 0.70338 0.32775 0.0
C1412 C 0.15995 0.70685 0.3354 0.0
C1413 C 0.1756 0.67689 0.35242 0.0
C1414 C 0.52738 -0.00543 0.59737 0.0
C1415 C 0.55103 0.97834 0.62121 0.0
C1416 C 0.4998 0.97406 0.58128 0.0
C1417 C 0.49566 0.93717 0.58865 0.0
H1418 H 0.52714 0.02359 0.59482 0.0
H1419 H 0.47874 0.98801 0.56768 0.0
S1420 S 0.55878 0.88068 0.63785 0.0
N1421 N 0.57504 0.92221 0.64286 0.0
N1422 N 0.52278 0.88383 0.61237 0.0
C1423 C 0.52337 0.91983 0.60618 0.0
C1424 C 0.55122 0.94059 0.62292 0.0
C1425 C 0.26049 0.30761 0.94106 0.0
C1426 C 0.28615 0.32805 0.96057 0.0
C1427 C 0.27125 0.28244 0.91547 0.0
C1428 C 0.30788 0.27753 0.90831 0.0
H1429 H 0.23225 0.30849 0.94797 0.0
H1430 H 0.25102 0.26461 0.90354 0.0
S1431 S 0.38476 0.3303 0.94697 0.0
N1432 N 0.34898 0.34633 0.96694 0.0
N1433 N 0.36937 0.29911 0.91886 0.0
C1434 C 0.33339 0.3011 0.92443 0.0
C1435 C 0.32244 0.32636 0.95071 0.0
C1436 C 0.46321 0.49934 0.69177 0.0
C1437 C 0.46517 0.48981 0.72809 0.0
C1438 C 0.49255 0.51595 0.67442 0.0
C1439 C 0.52511 0.52253 0.6926 0.0
H1440 H 0.43871 0.49406 0.67674 0.0
H1441 H 0.48979 0.52357 0.64654 0.0
S1442 S 0.54386 0.50132 0.78788 0.0
N1443 N 0.50175 0.48745 0.78174 0.0
N1444 N 0.55762 0.51796 0.74898 0.0
C1445 C 0.52755 0.51244 0.72888 0.0
C1446 C 0.49732 0.49625 0.74671 0.0
C1447 C 0.82429 0.18975 0.06397 0.0
C1448 C 0.78955 0.18889 0.04929 0.0
C1449 C 0.83931 0.22148 0.07841 0.0
C1450 C 0.82037 0.2536 0.07787 0.0
H1451 H 0.84039 0.16594 0.06341 0.0
H1452 H 0.86668 0.22127 0.08822 0.0
S1453 S 0.72733 0.26489 0.04528 0.0
N1454 N 0.73547 0.2221 0.03761 0.0
N1455 N 0.76416 0.28219 0.06398 0.0
C1456 C 0.78499 0.25278 0.06475 0.0
C1457 C 0.76941 0.22025 0.05069 0.0
C1458 C 0.50452 0.12015 0.77132 0.0
C1459 C 0.51339 0.08384 0.77525 0.0
C1460 C 0.47602 0.13479 0.79048 0.0
C1461 C 0.45484 0.1136 0.81402 0.0
H1462 H 0.51937 0.13741 0.75283 0.0
H1463 H 0.46974 0.16261 0.78563 0.0
S1464 S 0.46838 0.01759 0.83585 0.0
N1465 N 0.50002 0.02751 0.80609 0.0
N1466 N 0.44607 0.05488 0.84184 0.0
C1467 C 0.46413 0.07752 0.81914 0.0
C1468 C 0.49351 0.0627 0.79988 0.0
C1469 C 0.95837 0.92543 0.35511 0.0
C1470 C 0.93479 0.89699 0.34502 0.0
C1471 C -0.00989 0.91855 0.3736 0.0
C1472 C -0.00108 0.88303 0.38219 0.0
H1473 H 0.95465 0.95228 0.34484 0.0
H1474 H 0.00978 0.9404 0.37656 0.0
S1475 S 0.93842 0.80228 0.37443 0.0
N1476 N 0.91687 0.8344 0.35376 0.0
N1477 N 0.97595 0.82147 0.38976 0.0
C1478 C 0.97188 0.85592 0.37874 0.0
C1479 C 0.93999 0.86282 0.35936 0.0
C1480 C 0.44662 0.38532 0.20805 0.0
C1481 C 0.43399 0.3518 0.19463 0.0
C1482 C 0.42966 0.40187 0.23715 0.0
C1483 C 0.39966 0.38531 0.25385 0.0
H1484 H 0.47119 0.39772 0.1977 0.0
H1485 H 0.44227 0.42583 0.24878 0.0
S1486 S 0.35158 0.30171 0.22459 0.0
N1487 N 0.38593 0.30592 0.19666 0.0
N1488 N 0.35474 0.33681 0.25179 0.0
C1489 C 0.38457 0.35393 0.23837 0.0
C1490 C 0.40159 0.33718 0.20864 0.0
C1491 C 0.41486 0.68072 0.92297 0.0
C1492 C 0.45106 0.68957 0.9155 0.0
C1493 C 0.40446 0.66764 0.95658 0.0
C1494 C 0.42992 0.66325 0.9839 0.0
H1495 H 0.39405 0.68642 0.9037 0.0
H1496 H 0.37599 0.66392 0.96196 0.0
S1497 S 0.52892 0.67357 0.97497 0.0
N1498 N 0.51311 0.68624 0.9358 0.0
N1499 N 0.49335 0.66175 -0.00083 0.0
C1500 C 0.46656 0.6677 0.97537 0.0
C1501 C 0.47721 0.68079 0.94102 0.0
C1502 C 0.08836 0.61946 0.69742 0.0
C1503 C 0.1061 0.65225 0.68858 0.0
C1504 C 0.09194 0.60468 0.73163 0.0
C1505 C 0.11348 0.62228 0.75742 0.0
H1506 H 0.06837 0.60749 0.6796 0.0
H1507 H 0.07469 0.58195 0.73912 0.0
S1508 S 0.17474 0.70106 0.74361 0.0
N1509 N 0.15323 0.696 0.7051 0.0
N1510 N 0.15924 0.66836 0.76975 0.0
C1511 C 0.13571 0.65139 0.74705 0.0
C1512 C 0.13236 0.66628 0.71225 0.0
C1513 C 0.06866 0.31536 0.43603 0.0
C1514 C 0.03493 0.3318 0.43671 0.0
C1515 C 0.09447 0.32315 0.46238 0.0
C1516 C 0.08744 0.34805 0.48952 0.0
H1517 H 0.074 0.29394 0.41715 0.0
H1518 H 0.11845 0.30736 0.46339 0.0
S1519 S 0.00761 0.40441 0.49869 0.0
N1520 N -0.00103 0.37869 0.46332 0.0
N1521 N 0.04781 0.39329 0.51272 0.0
C1522 C 0.05598 0.36777 0.48801 0.0
C1523 C 0.02959 0.35974 0.46147 0.0
C1524 C 0.41485 0.71021 0.28064 0.0
C1525 C 0.4331 0.74359 0.28452 0.0
C1526 C 0.4093 0.69481 0.24687 0.0
C1527 C 0.42161 0.71222 0.21559 0.0
H1528 H 0.40591 0.6951 0.30396 0.0
H1529 H 0.39607 0.6685 0.24537 0.0
S1530 S 0.4689 0.80118 0.21061 0.0
N1531 N 0.46182 0.79467 0.25388 0.0
N1532 N 0.45106 0.76549 0.19015 0.0
C1533 C 0.43805 0.74655 0.21872 0.0
C1534 C 0.44386 0.76232 0.25327 0.0
C1535 C 0.03008 0.71293 0.02878 0.0
C1536 C -0.00732 0.71585 0.02539 0.0
C1537 C 0.04998 0.69371 0.00375 0.0
C1538 C 0.03341 0.67684 0.97394 0.0
H1539 H 0.04438 0.72646 0.05049 0.0
H1540 H 0.07886 0.69341 0.00715 0.0
S1541 S 0.93548 0.67358 0.95456 0.0
N1542 N 0.93929 0.6981 -0.00852 0.0
N1543 N 0.97668 0.66197 0.94411 0.0
C1544 C -0.00431 0.67806 0.97115 0.0
C1545 C 0.97534 0.6975 -0.00305 0.0
C1546 C 0.09023 0.28059 0.76818 0.0
C1547 C 0.08407 0.30571 0.79563 0.0
C1548 C 0.09707 0.29196 0.73295 0.0
C1549 C 0.0979 0.32877 0.72414 0.0
H1550 H 0.08724 0.25202 0.77335 0.0
H1551 H 0.09988 0.27167 0.71227 0.0
S1552 S 0.0896 0.40509 0.78834 0.0
N1553 N 0.08414 0.36869 0.81309 0.0
N1554 N 0.09654 0.39034 0.74717 0.0
C1555 C 0.09473 0.35411 0.75219 0.0
C1556 C 0.08799 0.34249 0.78789 0.0
C1557 C 0.45603 0.32053 0.53273 0.0
C1558 C 0.47219 0.28847 0.52244 0.0
C1559 C 0.44761 0.34627 0.5072 0.0
C1560 C 0.45517 0.34062 0.4707 0.0
H1561 H 0.44744 0.32452 0.5602 0.0
H1562 H 0.43257 0.36935 0.51568 0.0
S1563 S 0.50237 0.26304 0.43153 0.0
N1564 N 0.49938 0.25399 0.47482 0.0
N1565 N 0.48394 0.30255 0.4263 0.0
C1566 C 0.47486 0.31033 0.46077 0.0
C1567 C 0.48321 0.28403 0.48688 0.0
C1568 C 0.22026 0.47323 0.34167 0.0
C1569 C 0.20397 0.44378 0.32339 0.0
C1570 C 0.25192 0.46921 0.36105 0.0
C1571 C 0.26742 0.43551 0.36361 0.0
H1572 H 0.2106 0.5002 0.33823 0.0
H1573 H 0.26566 0.49292 0.37192 0.0
S1574 S 0.23152 0.34883 0.32783 0.0
N1575 N 0.20281 0.37888 0.31404 0.0
N1576 N 0.26219 0.37146 0.35144 0.0
C1577 C 0.24939 0.40524 0.34921 0.0
C1578 C 0.21748 0.40932 0.32893 0.0
C1579 C 0.32374 0.47146 0.10576 0.0
C1580 C 0.31602 0.45986 0.07063 0.0
C1581 C 0.34688 0.50113 0.11202 0.0
C1582 C 0.36285 0.52033 0.08332 0.0
H1583 H 0.31018 0.459 0.12847 0.0
H1584 H 0.34978 0.51078 0.13937 0.0
S1585 S 0.3576 0.49604 0.98693 0.0
N1586 N 0.33108 0.46606 0.00715 0.0
N1587 N 0.374 0.52228 0.01914 0.0
C1588 C 0.35815 0.50687 0.0484 0.0
C1589 C 0.33482 0.47652 0.04198 0.0
C1590 C 0.2842 0.55109 0.88284 0.0
C1591 C 0.29557 0.55327 0.84673 0.0
C1592 C 0.25221 0.56674 0.8943 0.0
C1593 C 0.23039 0.58469 0.86992 0.0
H1594 H 0.29883 0.53518 0.90186 0.0
H1595 H 0.2431 0.56222 0.92159 0.0
S1596 S 0.25036 0.60306 0.77424 0.0
N1597 N 0.28445 0.5793 0.78803 0.0
N1598 N 0.22403 0.60765 0.80956 0.0
C1599 C 0.24283 0.58971 0.83469 0.0
C1600 C 0.2756 0.57437 0.82311 0.0
C1601 C 0.17402 0.53048 0.51104 0.0
C1602 C 0.17164 0.5612 0.53283 0.0
C1603 C 0.1604 0.49714 0.52285 0.0
C1604 C 0.14368 0.49356 0.55665 0.0
H1605 H 0.18934 0.53143 0.48629 0.0
H1606 H 0.16525 0.47364 0.50644 0.0
S1607 S 0.12292 0.56814 0.6193 0.0
N1608 N 0.14574 0.58764 0.58632 0.0
N1609 N 0.11961 0.52506 0.60854 0.0
C1610 C 0.13715 0.52502 0.5765 0.0
C1611 C 0.15135 0.55888 0.56458 0.0
C1612 C 0.26681 0.54589 0.20164 0.0
C1613 C 0.23162 0.55314 0.19111 0.0
C1614 C 0.29557 0.56859 0.19154 0.0
C1615 C 0.2901 0.59869 0.16973 0.0
H1616 H 0.27221 0.52208 0.21716 0.0
H1617 H 0.32249 0.561 0.19873 0.0
S1618 S 0.2026 0.63021 0.13692 0.0
N1619 N 0.19222 0.59357 0.16013 0.0
N1620 N 0.24673 0.63561 0.1395 0.0
C1621 C 0.25481 0.60697 0.1602 0.0
C1622 C 0.22538 0.58431 0.17133 0.0
C1623 C 0.12522 0.46012 0.98645 0.0
C1624 C 0.14521 0.46678 0.01775 0.0
C1625 C 0.11295 0.48843 0.96584 0.0
C1626 C 0.12077 0.52442 0.97558 0.0
H1627 H 0.12156 0.43293 0.97623 0.0
H1628 H 0.09991 0.48193 0.94057 0.0
S1629 S 0.16473 0.55554 0.06008 0.0
N1630 N 0.16639 0.51125 0.0614 0.0
N1631 N 0.14364 0.56493 0.02247 0.0
C1632 C 0.13656 0.53129 0.00939 0.0
C1633 C 0.14878 0.50225 0.03058 0.0
C1634 C 0.28355 0.42503 0.69307 0.0
C1635 C 0.27581 0.42422 0.73013 0.0
C1636 C 0.25673 0.41846 0.66751 0.0
C1637 C 0.22113 0.41117 0.67808 0.0
H1638 H 0.31046 0.43154 0.68354 0.0
H1639 H 0.26376 0.42019 0.63933 0.0
S1640 S 0.18762 0.40167 0.77171 0.0
N1641 N 0.23065 0.4126 0.77609 0.0
N1642 N 0.18001 0.4001 0.7281 0.0
C1643 C 0.21327 0.40872 0.71506 0.0
C1644 C 0.24068 0.41524 0.74109 0.0
C1645 C 0.33865 0.53507 0.50794 0.0
C1646 C 0.34422 0.5692 0.49262 0.0
C1647 C 0.35404 0.50473 0.49244 0.0
C1648 C 0.37525 0.50795 0.46121 0.0
H1649 H 0.31923 0.5312 0.52938 0.0
H1650 H 0.34603 0.47846 0.50263 0.0
S1651 S 0.40616 0.59313 0.41814 0.0
N1652 N 0.37814 0.60572 0.44993 0.0
N1653 N 0.40775 0.54888 0.42103 0.0
C1654 C 0.38514 0.54264 0.44916 0.0
C1655 C 0.36931 0.57333 0.4648 0.0
C1656 C 0.28027 0.24809 0.39512 0.0
C1657 C 0.29736 0.21791 0.38107 0.0
C1658 C 0.29772 0.28191 0.3953 0.0
C1659 C 0.33272 0.2866 0.38132 0.0
H1660 H 0.25482 0.24501 0.40909 0.0
H1661 H 0.28446 0.30393 0.40845 0.0
S1662 S 0.38469 0.21707 0.33357 0.0
N1663 N 0.34792 0.19551 0.34756 0.0
N1664 N 0.38066 0.25919 0.34678 0.0
C1665 C 0.34814 0.25728 0.36343 0.0
C1666 C 0.3304 0.22288 0.36355 0.0
C1667 C 0.89197 0.28032 0.54133 0.0
C1668 C 0.85878 0.29736 0.54449 0.0
C1669 C 0.90381 0.25725 0.5681 0.0
C1670 C 0.88264 0.25028 0.59865 0.0
H1671 H 0.90767 0.2826 0.51689 0.0
H1672 H 0.92757 0.24186 0.5629 0.0
S1673 S 0.79886 0.29509 0.62435 0.0
N1674 N 0.80891 0.31133 0.58427 0.0
N1675 N 0.83107 0.26718 0.63411 0.0
C1676 C 0.85201 0.27063 0.60433 0.0
C1677 C 0.84005 0.2944 0.57729 0.0
C1678 C 0.41964 0.0715 0.31973 0.0
C1679 C 0.4118 0.0342 0.31919 0.0
C1680 C 0.4514 0.08533 0.33502 0.0
C1681 C 0.47635 0.06218 0.34998 0.0
H1682 H 0.40263 0.08983 0.30554 0.0
H1683 H 0.45796 0.11373 0.33192 0.0
S1684 S 0.46397 0.96392 0.36404 0.0
N1685 N 0.42796 0.97544 0.34149 0.0
N1686 N 0.48791 0.00151 0.37022 0.0
C1687 C 0.46658 0.02558 0.35393 0.0
C1688 C 0.43408 0.01152 0.33859 0.0
C1689 C 0.63608 0.66343 0.05973 0.0
C1690 C 0.67251 0.65768 0.06763 0.0
C1691 C 0.61817 0.69246 0.07498 0.0
C1692 C 0.63621 0.71619 0.09864 0.0
H1693 H 0.62243 0.64784 0.03897 0.0
H1694 H 0.59151 0.69835 0.06546 0.0
S1695 S 0.72727 0.70604 0.13647 0.0
N1696 N 0.72277 0.67296 0.10695 0.0
N1697 N 0.68905 0.72744 0.13555 0.0
C1698 C 0.67057 0.7075 0.1107 0.0
C1699 C 0.68877 0.67811 0.09523 0.0
C1700 C 0.54 0.44763 0.28004 0.0
C1701 C 0.54114 0.48429 0.27105 0.0
C1702 C 0.51778 0.4346 0.30734 0.0
C1703 C 0.49514 0.45756 0.32636 0.0
H1704 H 0.55579 0.42845 0.26536 0.0
H1705 H 0.51694 0.40585 0.31199 0.0
S1706 S 0.49202 0.55687 0.31662 0.0
N1707 N 0.5211 0.54422 0.28587 0.0
N1708 N 0.47851 0.51966 0.33725 0.0
C1709 C 0.49794 0.49481 0.31947 0.0
C1710 C 0.52098 0.50816 0.29165 0.0
C1711 C 0.19885 0.78069 0.87316 0.0
C1712 C 0.18006 0.81036 0.88628 0.0
C1713 C 0.18198 0.74678 0.86982 0.0
C1714 C 0.1455 0.74154 0.87841 0.0
H1715 H 0.22758 0.78273 0.8686 0.0
H1716 H 0.19805 0.7241 0.8623 0.0
S1717 S 0.08257 0.81192 0.90642 0.0
N1718 N 0.12187 0.83341 0.90288 0.0
N1719 N 0.08972 0.76967 0.89527 0.0
C1720 C 0.12541 0.7717 0.88755 0.0
C1721 C 0.14282 0.80617 0.89179 0.0
C1722 C 0.43255 0.90418 0.15941 0.0
C1723 C 0.43373 0.9412 0.1672 0.0
C1724 C 0.46361 0.88614 0.15019 0.0
C1725 C 0.49726 0.90433 0.14893 0.0
H1726 H 0.40766 0.8886 0.16227 0.0
H1727 H 0.46132 0.85733 0.14599 0.0
S1728 S 0.51357 0.00271 0.1616 0.0
N1729 N 0.47008 -0.00356 0.16887 0.0
N1730 N 0.52894 0.96267 0.15161 0.0
C1731 C 0.49827 0.94204 0.15371 0.0
C1732 C 0.46637 0.96046 0.1628 0.0
C1733 C 0.04467 0.04748 0.71023 0.0
C1734 C 0.03824 0.0116 0.72056 0.0
C1735 C 0.01769 0.06749 0.69463 0.0
C1736 C 0.98287 0.05264 0.68926 0.0
H1737 H 0.07048 0.06067 0.7154 0.0
H1738 H 0.02389 0.09541 0.68842 0.0
S1739 S 0.95332 0.95836 0.70886 0.0
N1740 N -0.00433 0.96087 0.72195 0.0
N1741 N 0.94445 -0.00149 0.6929 0.0
C1742 C 0.97665 0.01601 0.69768 0.0
C1743 C 0.00447 -0.00453 0.71323 0.0
loop_
_geom_bond_atom_site_label_1
_geom_bond_atom_site_label_2
_geom_bond_distance
_geom_bond_site_symmetry_2
_ccdc_geom_bond_type
C0 O1 1.306 . S
C0 O3 1.160 . S
O1 C0 1.306 . S
O1 Cd2 2.228 . S
Cd2 O1 2.228 . S
Cd2 O6 2.273 . S
Cd2 O10 2.277 . S
O3 C0 1.160 . S
O3 Cd4 2.203 1_655 S
Cd4 O3 2.203 1_455 S
Cd4 O6 2.411 1_455 S
Cd4 O7 2.333 . S
Cd4 O8 2.352 . S
Cd4 O12 2.277 . S
Cd4 O13 2.356 . S
C5 O10 1.209 1_455 S
C5 O12 1.226 . S
O6 Cd2 2.273 . S
O6 Cd4 2.411 1_655 S
O6 C9 1.320 . S
O7 Cd4 2.333 . S
O7 C9 1.214 1_455 S
O8 Cd4 2.352 . S
O8 C11 1.258 . S
C9 O6 1.320 . S
C9 O7 1.214 1_655 S
O10 Cd2 2.277 . S
O10 C5 1.209 1_655 S
C11 O8 1.258 . S
C11 O13 1.282 . S
O12 Cd4 2.277 . S
O12 C5 1.226 . S
O13 Cd4 2.356 . S
O13 C11 1.282 . S
C14 O15 1.306 . S
C14 O17 1.160 . S
O15 C14 1.306 . S
O15 Cd16 2.228 1_455 S
Cd16 O15 2.228 1_655 S
Cd16 O20 2.273 . S
Cd16 O24 2.277 . S
O17 C14 1.160 . S
O17 Cd18 2.203 . S
Cd18 O17 2.203 . S
Cd18 O20 2.411 1_455 S
Cd18 O21 2.333 1_455 S
Cd18 O22 2.352 . S
Cd18 O26 2.277 1_455 S
Cd18 O27 2.356 . S
C19 O24 1.209 . S
C19 O26 1.226 . S
O20 Cd16 2.273 . S
O20 Cd18 2.411 1_655 S
O20 C23 1.320 . S
O21 Cd18 2.333 1_655 S
O21 C23 1.214 . S
O22 Cd18 2.352 . S
O22 C25 1.258 . S
C23 O20 1.320 . S
C23 O21 1.214 . S
O24 Cd16 2.277 . S
O24 C19 1.209 . S
C25 O22 1.258 . S
C25 O27 1.282 . S
O26 Cd18 2.277 1_655 S
O26 C19 1.226 . S
O27 Cd18 2.356 . S
O27 C25 1.282 . S
C28 O29 1.306 . S
C28 O31 1.160 . S
O29 C28 1.306 . S
O29 Cd30 2.228 . S
Cd30 O29 2.228 . S
Cd30 O34 2.273 . S
Cd30 O38 2.277 . S
O31 C28 1.160 . S
O31 Cd32 2.203 . S
Cd32 O31 2.203 . S
Cd32 O34 2.411 . S
Cd32 O35 2.333 . S
Cd32 O36 2.352 . S
Cd32 O40 2.277 . S
Cd32 O41 2.356 . S
C33 O38 1.209 . S
C33 O40 1.226 . S
O34 Cd30 2.273 . S
O34 Cd32 2.411 . S
O34 C37 1.320 . S
O35 Cd32 2.333 . S
O35 C37 1.214 . S
O36 Cd32 2.352 . S
O36 C39 1.258 . S
C37 O34 1.320 . S
C37 O35 1.214 . S
O38 Cd30 2.277 . S
O38 C33 1.209 . S
C39 O36 1.258 . S
C39 O41 1.282 . S
O40 Cd32 2.277 . S
O40 C33 1.226 . S
O41 Cd32 2.356 . S
O41 C39 1.282 . S
C42 O43 1.306 . S
C42 O45 1.160 . S
O43 C42 1.306 . S
O43 Cd44 2.228 . S
Cd44 O43 2.228 . S
Cd44 O48 2.273 . S
Cd44 O52 2.277 . S
O45 C42 1.160 . S
O45 Cd46 2.203 . S
Cd46 O45 2.203 . S
Cd46 O48 2.411 . S
Cd46 O49 2.333 . S
Cd46 O50 2.352 . S
Cd46 O54 2.277 . S
Cd46 O55 2.356 . S
C47 O52 1.209 . S
C47 O54 1.226 . S
O48 Cd44 2.273 . S
O48 Cd46 2.411 . S
O48 C51 1.320 . S
O49 Cd46 2.333 . S
O49 C51 1.214 . S
O50 Cd46 2.352 . S
O50 C53 1.258 . S
C51 O48 1.320 . S
C51 O49 1.214 . S
O52 Cd44 2.277 . S
O52 C47 1.209 . S
C53 O50 1.258 . S
C53 O55 1.282 . S
O54 Cd46 2.277 . S
O54 C47 1.226 . S
O55 Cd46 2.356 . S
O55 C53 1.282 . S
C56 O57 1.306 . S
C56 O59 1.160 . S
O57 C56 1.306 . S
O57 Cd58 2.228 . S
Cd58 O57 2.228 . S
Cd58 O62 2.273 . S
Cd58 O66 2.277 . S
O59 C56 1.160 . S
O59 Cd60 2.203 1_655 S
Cd60 O59 2.203 1_455 S
Cd60 O62 2.411 1_455 S
Cd60 O63 2.333 . S
Cd60 O64 2.352 . S
Cd60 O68 2.277 . S
Cd60 O69 2.356 . S
C61 O66 1.209 1_455 S
C61 O68 1.226 . S
O62 Cd58 2.273 . S
O62 Cd60 2.411 1_655 S
O62 C65 1.320 . S
O63 Cd60 2.333 . S
O63 C65 1.214 1_455 S
O64 Cd60 2.352 . S
O64 C67 1.258 . S
C65 O62 1.320 . S
C65 O63 1.214 1_655 S
O66 Cd58 2.277 . S
O66 C61 1.209 1_655 S
C67 O64 1.258 . S
C67 O69 1.282 . S
O68 Cd60 2.277 . S
O68 C61 1.226 . S
O69 Cd60 2.356 . S
O69 C67 1.282 . S
C70 O71 1.306 . S
C70 O73 1.160 . S
O71 C70 1.306 . S
O71 Cd72 2.228 . S
Cd72 O71 2.228 . S
Cd72 O76 2.273 . S
Cd72 O80 2.277 . S
O73 C70 1.160 . S
O73 Cd74 2.203 . S
Cd74 O73 2.203 . S
Cd74 O76 2.411 . S
Cd74 O77 2.333 . S
Cd74 O78 2.352 . S
Cd74 O82 2.277 . S
Cd74 O83 2.356 . S
C75 O80 1.209 . S
C75 O82 1.226 . S
O76 Cd72 2.273 . S
O76 Cd74 2.411 . S
O76 C79 1.320 . S
O77 Cd74 2.333 . S
O77 C79 1.214 . S
O78 Cd74 2.352 . S
O78 C81 1.258 . S
C79 O76 1.320 . S
C79 O77 1.214 . S
O80 Cd72 2.277 . S
O80 C75 1.209 . S
C81 O78 1.258 . S
C81 O83 1.282 . S
O82 Cd74 2.277 . S
O82 C75 1.226 . S
O83 Cd74 2.356 . S
O83 C81 1.282 . S
C84 O85 1.306 . S
C84 O87 1.160 . S
O85 C84 1.306 . S
O85 Cd86 2.228 . S
Cd86 O85 2.228 . S
Cd86 O90 2.273 . S
Cd86 O94 2.277 . S
O87 C84 1.160 . S
O87 Cd88 2.203 . S
Cd88 O87 2.203 . S
Cd88 O90 2.411 . S
Cd88 O91 2.333 . S
Cd88 O92 2.352 . S
Cd88 O96 2.277 . S
Cd88 O97 2.356 . S
C89 O94 1.209 . S
C89 O96 1.226 . S
O90 Cd86 2.273 . S
O90 Cd88 2.411 . S
O90 C93 1.320 . S
O91 Cd88 2.333 . S
O91 C93 1.214 . S
O92 Cd88 2.352 . S
O92 C95 1.258 . S
C93 O90 1.320 . S
C93 O91 1.214 . S
O94 Cd86 2.277 . S
O94 C89 1.209 . S
C95 O92 1.258 . S
C95 O97 1.282 . S
O96 Cd88 2.277 . S
O96 C89 1.226 . S
O97 Cd88 2.356 . S
O97 C95 1.282 . S
C98 O99 1.306 . S
C98 O101 1.160 . S
O99 C98 1.306 . S
O99 Cd100 2.228 1_455 S
Cd100 O99 2.228 1_655 S
Cd100 O104 2.273 . S
Cd100 O108 2.277 . S
O101 C98 1.160 . S
O101 Cd102 2.203 . S
Cd102 O101 2.203 . S
Cd102 O104 2.411 1_455 S
Cd102 O105 2.333 1_455 S
Cd102 O106 2.352 . S
Cd102 O110 2.277 1_455 S
Cd102 O111 2.356 . S
C103 O108 1.209 . S
C103 O110 1.226 . S
O104 Cd100 2.273 . S
O104 Cd102 2.411 1_655 S
O104 C107 1.320 . S
O105 Cd102 2.333 1_655 S
O105 C107 1.214 . S
O106 Cd102 2.352 . S
O106 C109 1.258 . S
C107 O104 1.320 . S
C107 O105 1.214 . S
O108 Cd100 2.277 . S
O108 C103 1.209 . S
C109 O106 1.258 . S
C109 O111 1.282 . S
O110 Cd102 2.277 1_655 S
O110 C103 1.226 . S
O111 Cd102 2.356 . S
O111 C109 1.282 . S
C112 O113 1.306 . S
C112 O115 1.173 . S
O113 C112 1.306 . S
O113 Cd114 2.228 . S
Cd114 O113 2.228 . S
Cd114 O118 2.273 . S
Cd114 O122 2.276 1_565 S
O115 C112 1.173 . S
O115 Cd116 2.199 1_565 S
Cd116 O115 2.199 1_545 S
Cd116 O118 2.411 1_545 S
Cd116 O119 2.333 . S
Cd116 O120 2.352 . S
Cd116 O124 2.277 . S
Cd116 O125 2.356 . S
C117 O122 1.210 . S
C117 O124 1.226 . S
O118 Cd114 2.273 . S
O118 Cd116 2.411 1_565 S
O118 C121 1.320 . S
O119 Cd116 2.333 . S
O119 C121 1.214 1_545 S
O120 Cd116 2.352 . S
O120 C123 1.258 . S
C121 O118 1.320 . S
C121 O119 1.214 1_565 S
O122 Cd114 2.276 1_545 S
O122 C117 1.210 . S
C123 O120 1.258 . S
C123 O125 1.282 . S
O124 Cd116 2.277 . S
O124 C117 1.226 . S
O125 Cd116 2.356 . S
O125 C123 1.282 . S
C126 O127 1.306 . S
C126 O129 1.160 . S
O127 C126 1.306 . S
O127 Cd128 2.228 . S
Cd128 O127 2.228 . S
Cd128 O132 2.273 . S
Cd128 O136 2.277 . S
O129 C126 1.160 . S
O129 Cd130 2.203 . S
Cd130 O129 2.203 . S
Cd130 O132 2.411 . S
Cd130 O133 2.333 . S
Cd130 O134 2.352 . S
Cd130 O138 2.277 . S
Cd130 O139 2.356 . S
C131 O136 1.209 . S
C131 O138 1.226 . S
O132 Cd128 2.273 . S
O132 Cd130 2.411 . S
O132 C135 1.320 . S
O133 Cd130 2.333 . S
O133 C135 1.214 . S
O134 Cd130 2.352 . S
O134 C137 1.258 . S
C135 O132 1.320 . S
C135 O133 1.214 . S
O136 Cd128 2.277 . S
O136 C131 1.209 . S
C137 O134 1.258 . S
C137 O139 1.282 . S
O138 Cd130 2.277 . S
O138 C131 1.226 . S
O139 Cd130 2.356 . S
O139 C137 1.282 . S
C140 O141 1.306 . S
C140 O143 1.160 . S
O141 C140 1.306 . S
O141 Cd142 2.228 . S
Cd142 O141 2.228 . S
Cd142 O146 2.273 . S
Cd142 O150 2.277 . S
O143 C140 1.160 . S
O143 Cd144 2.203 1_565 S
Cd144 O143 2.203 1_545 S
Cd144 O146 2.411 1_545 S
Cd144 O147 2.333 . S
Cd144 O148 2.352 . S
Cd144 O152 2.277 . S
Cd144 O153 2.356 . S
C145 O150 1.209 1_545 S
C145 O152 1.226 . S
O146 Cd142 2.273 . S
O146 Cd144 2.411 1_565 S
O146 C149 1.320 . S
O147 Cd144 2.333 . S
O147 C149 1.214 1_545 S
O148 Cd144 2.352 . S
O148 C151 1.258 . S
C149 O146 1.320 . S
C149 O147 1.214 1_565 S
O150 Cd142 2.277 . S
O150 C145 1.209 1_565 S
C151 O148 1.258 . S
C151 O153 1.282 . S
O152 Cd144 2.277 . S
O152 C145 1.226 . S
O153 Cd144 2.356 . S
O153 C151 1.282 . S
C154 O155 1.306 . S
C154 O157 1.160 . S
O155 C154 1.306 . S
O155 Cd156 2.228 1_554 S
Cd156 O155 2.228 1_556 S
Cd156 O160 2.273 . S
Cd156 O164 2.277 . S
O157 C154 1.160 . S
O157 Cd158 2.203 . S
Cd158 O157 2.203 . S
Cd158 O160 2.411 1_554 S
Cd158 O161 2.333 1_554 S
Cd158 O162 2.352 . S
Cd158 O166 2.277 1_554 S
Cd158 O167 2.356 . S
C159 O164 1.209 . S
C159 O166 1.226 . S
O160 Cd156 2.273 . S
O160 Cd158 2.411 1_556 S
O160 C163 1.320 . S
O161 Cd158 2.333 1_556 S
O161 C163 1.214 . S
O162 Cd158 2.352 . S
O162 C165 1.258 . S
C163 O160 1.320 . S
C163 O161 1.214 . S
O164 Cd156 2.277 . S
O164 C159 1.209 . S
C165 O162 1.258 . S
C165 O167 1.282 . S
O166 Cd158 2.277 1_556 S
O166 C159 1.226 . S
O167 Cd158 2.356 . S
O167 C165 1.282 . S
C168 O169 1.306 . S
C168 O171 1.160 . S
O169 C168 1.306 . S
O169 Cd170 2.228 . S
Cd170 O169 2.228 . S
Cd170 O174 2.273 . S
Cd170 O178 2.277 . S
O171 C168 1.160 . S
O171 Cd172 2.203 1_554 S
Cd172 O171 2.203 1_556 S
Cd172 O174 2.411 1_556 S
Cd172 O175 2.333 . S
Cd172 O176 2.350 1_556 S
Cd172 O180 2.277 . S
Cd172 O181 2.356 . S
C173 O178 1.209 1_556 S
C173 O180 1.226 . S
O174 Cd170 2.273 . S
O174 Cd172 2.411 1_554 S
O174 C177 1.320 . S
O175 Cd172 2.333 . S
O175 C177 1.214 1_556 S
O176 Cd172 2.350 1_554 S
O176 C179 1.250 1_554 S
C177 O174 1.320 . S
C177 O175 1.214 1_554 S
O178 Cd170 2.277 . S
O178 C173 1.209 1_554 S
C179 O176 1.250 1_556 S
C179 O181 1.282 . S
O180 Cd172 2.277 . S
O180 C173 1.226 . S
O181 Cd172 2.356 . S
O181 C179 1.282 . S
C182 O183 1.306 . S
C182 O185 1.160 . S
O183 C182 1.306 . S
O183 Cd184 2.228 . S
Cd184 O183 2.228 . S
Cd184 O188 2.273 . S
Cd184 O192 2.277 . S
O185 C182 1.160 . S
O185 Cd186 2.203 1_554 S
Cd186 O185 2.203 1_556 S
Cd186 O188 2.411 1_556 S
Cd186 O189 2.333 . S
Cd186 O190 2.352 . S
Cd186 O194 2.277 . S
Cd186 O195 2.356 . S
C187 O192 1.209 1_556 S
C187 O194 1.226 . S
O188 Cd184 2.273 . S
O188 Cd186 2.411 1_554 S
O188 C191 1.320 . S
O189 Cd186 2.333 . S
O189 C191 1.214 1_556 S
O190 Cd186 2.352 . S
O190 C193 1.258 . S
C191 O188 1.320 . S
C191 O189 1.214 1_554 S
O192 Cd184 2.277 . S
O192 C187 1.209 1_554 S
C193 O190 1.258 . S
C193 O195 1.282 . S
O194 Cd186 2.277 . S
O194 C187 1.226 . S
O195 Cd186 2.356 . S
O195 C193 1.282 . S
C196 O197 1.306 . S
C196 O199 1.160 . S
O197 C196 1.306 . S
O197 Cd198 2.228 . S
Cd198 O197 2.228 . S
Cd198 O202 2.273 . S
Cd198 O206 2.277 . S
O199 C196 1.160 . S
O199 Cd200 2.203 . S
Cd200 O199 2.203 . S
Cd200 O202 2.411 . S
Cd200 O203 2.333 . S
Cd200 O204 2.352 . S
Cd200 O208 2.277 . S
Cd200 O209 2.356 . S
C201 O206 1.209 . S
C201 O208 1.226 . S
O202 Cd198 2.273 . S
O202 Cd200 2.411 . S
O202 C205 1.320 . S
O203 Cd200 2.333 . S
O203 C205 1.214 . S
O204 Cd200 2.352 . S
O204 C207 1.258 . S
C205 O202 1.320 . S
C205 O203 1.214 . S
O206 Cd198 2.277 . S
O206 C201 1.209 . S
C207 O204 1.258 . S
C207 O209 1.282 . S
O208 Cd200 2.277 . S
O208 C201 1.226 . S
O209 Cd200 2.356 . S
O209 C207 1.282 . S
C210 O211 1.306 . S
C210 O213 1.160 . S
O211 C210 1.306 . S
O211 Cd212 2.228 . S
Cd212 O211 2.228 . S
Cd212 O216 2.273 . S
Cd212 O220 2.277 . S
O213 C210 1.160 . S
O213 Cd214 2.203 . S
Cd214 O213 2.203 . S
Cd214 O216 2.411 . S
Cd214 O217 2.333 . S
Cd214 O218 2.352 . S
Cd214 O222 2.277 . S
Cd214 O223 2.356 . S
C215 O220 1.209 . S
C215 O222 1.226 . S
O216 Cd212 2.273 . S
O216 Cd214 2.411 . S
O216 C219 1.320 . S
O217 Cd214 2.333 . S
O217 C219 1.214 . S
O218 Cd214 2.352 . S
O218 C221 1.258 . S
C219 O216 1.320 . S
C219 O217 1.214 . S
O220 Cd212 2.277 . S
O220 C215 1.209 . S
C221 O218 1.258 . S
C221 O223 1.282 . S
O222 Cd214 2.277 . S
O222 C215 1.226 . S
O223 Cd214 2.356 . S
O223 C221 1.282 . S
C224 O225 1.306 . S
C224 O227 1.160 . S
O225 C224 1.306 . S
O225 Cd226 2.228 1_545 S
Cd226 O225 2.228 1_565 S
Cd226 O230 2.273 . S
Cd226 O234 2.277 . S
O227 C224 1.160 . S
O227 Cd228 2.203 . S
Cd228 O227 2.203 . S
Cd228 O230 2.411 1_545 S
Cd228 O231 2.333 1_545 S
Cd228 O232 2.352 . S
Cd228 O236 2.277 1_545 S
Cd228 O237 2.356 . S
C229 O234 1.209 . S
C229 O236 1.226 . S
O230 Cd226 2.273 . S
O230 Cd228 2.411 1_565 S
O230 C233 1.320 . S
O231 Cd228 2.333 1_565 S
O231 C233 1.214 . S
O232 Cd228 2.352 . S
O232 C235 1.258 . S
C233 O230 1.320 . S
C233 O231 1.214 . S
O234 Cd226 2.277 . S
O234 C229 1.209 . S
C235 O232 1.258 . S
C235 O237 1.282 . S
O236 Cd228 2.277 1_565 S
O236 C229 1.226 . S
O237 Cd228 2.356 . S
O237 C235 1.282 . S
C238 O239 1.306 . S
C238 O241 1.160 . S
O239 C238 1.306 . S
O239 Cd240 2.228 . S
Cd240 O239 2.228 . S
Cd240 O244 2.273 . S
Cd240 O248 2.277 . S
O241 C238 1.160 . S
O241 Cd242 2.203 . S
Cd242 O241 2.203 . S
Cd242 O244 2.411 . S
Cd242 O245 2.333 . S
Cd242 O246 2.352 . S
Cd242 O250 2.277 . S
Cd242 O251 2.356 . S
C243 O248 1.209 . S
C243 O250 1.226 . S
O244 Cd240 2.273 . S
O244 Cd242 2.411 . S
O244 C247 1.320 . S
O245 Cd242 2.333 . S
O245 C247 1.214 . S
O246 Cd242 2.352 . S
O246 C249 1.258 . S
C247 O244 1.320 . S
C247 O245 1.214 . S
O248 Cd240 2.277 . S
O248 C243 1.209 . S
C249 O246 1.258 . S
C249 O251 1.282 . S
O250 Cd242 2.277 . S
O250 C243 1.226 . S
O251 Cd242 2.356 . S
O251 C249 1.282 . S
C252 O253 1.306 . S
C252 O255 1.160 . S
O253 C252 1.306 . S
O253 Cd254 2.228 . S
Cd254 O253 2.228 . S
Cd254 O258 2.273 . S
Cd254 O262 2.277 . S
O255 C252 1.160 . S
O255 Cd256 2.203 . S
Cd256 O255 2.203 . S
Cd256 O258 2.411 . S
Cd256 O259 2.333 . S
Cd256 O260 2.352 . S
Cd256 O264 2.277 . S
Cd256 O265 2.356 . S
C257 O262 1.209 . S
C257 O264 1.226 . S
O258 Cd254 2.273 . S
O258 Cd256 2.411 . S
O258 C261 1.320 . S
O259 Cd256 2.333 . S
O259 C261 1.214 . S
O260 Cd256 2.352 . S
O260 C263 1.258 . S
C261 O258 1.320 . S
C261 O259 1.214 . S
O262 Cd254 2.277 . S
O262 C257 1.209 . S
C263 O260 1.258 . S
C263 O265 1.282 . S
O264 Cd256 2.277 . S
O264 C257 1.226 . S
O265 Cd256 2.356 . S
O265 C263 1.282 . S
C266 O267 1.306 . S
C266 O269 1.160 . S
O267 C266 1.306 . S
O267 Cd268 2.228 1_545 S
Cd268 O267 2.228 1_565 S
Cd268 O272 2.273 . S
Cd268 O276 2.277 . S
O269 C266 1.160 . S
O269 Cd270 2.203 . S
Cd270 O269 2.203 . S
Cd270 O272 2.411 1_545 S
Cd270 O273 2.333 1_545 S
Cd270 O274 2.352 . S
Cd270 O278 2.277 1_545 S
Cd270 O279 2.356 . S
C271 O276 1.209 . S
C271 O278 1.226 . S
O272 Cd268 2.273 . S
O272 Cd270 2.411 1_565 S
O272 C275 1.320 . S
O273 Cd270 2.333 1_565 S
O273 C275 1.214 . S
O274 Cd270 2.352 . S
O274 C277 1.258 . S
C275 O272 1.320 . S
C275 O273 1.214 . S
O276 Cd268 2.277 . S
O276 C271 1.209 . S
C277 O274 1.258 . S
C277 O279 1.282 . S
O278 Cd270 2.277 1_565 S
O278 C271 1.226 . S
O279 Cd270 2.356 . S
O279 C277 1.282 . S
C280 O281 1.306 . S
C280 O283 1.160 . S
O281 C280 1.306 . S
O281 Cd282 2.228 1_554 S
Cd282 O281 2.228 1_556 S
Cd282 O286 2.273 . S
Cd282 O290 2.277 . S
O283 C280 1.160 . S
O283 Cd284 2.203 . S
Cd284 O283 2.203 . S
Cd284 O286 2.411 1_554 S
Cd284 O287 2.333 1_554 S
Cd284 O288 2.352 . S
Cd284 O292 2.277 1_554 S
Cd284 O293 2.356 . S
C285 O290 1.209 . S
C285 O292 1.226 . S
O286 Cd282 2.273 . S
O286 Cd284 2.411 1_556 S
O286 C289 1.320 . S
O287 Cd284 2.333 1_556 S
O287 C289 1.214 . S
O288 Cd284 2.352 . S
O288 C291 1.258 . S
C289 O286 1.320 . S
C289 O287 1.214 . S
O290 Cd282 2.277 . S
O290 C285 1.209 . S
C291 O288 1.258 . S
C291 O293 1.282 . S
O292 Cd284 2.277 1_556 S
O292 C285 1.226 . S
O293 Cd284 2.356 . S
O293 C291 1.282 . S
C294 O295 1.306 . S
C294 O297 1.160 . S
O295 C294 1.306 . S
O295 Cd296 2.228 . S
Cd296 O295 2.228 . S
Cd296 O300 2.273 . S
Cd296 O304 2.277 . S
O297 C294 1.160 . S
O297 Cd298 2.203 . S
Cd298 O297 2.203 . S
Cd298 O300 2.411 . S
Cd298 O301 2.333 . S
Cd298 O302 2.352 . S
Cd298 O306 2.277 . S
Cd298 O307 2.356 . S
C299 O304 1.209 . S
C299 O306 1.226 . S
O300 Cd296 2.273 . S
O300 Cd298 2.411 . S
O300 C303 1.320 . S
O301 Cd298 2.333 . S
O301 C303 1.214 . S
O302 Cd298 2.352 . S
O302 C305 1.258 . S
C303 O300 1.320 . S
C303 O301 1.214 . S
O304 Cd296 2.277 . S
O304 C299 1.209 . S
C305 O302 1.258 . S
C305 O307 1.282 . S
O306 Cd298 2.277 . S
O306 C299 1.226 . S
O307 Cd298 2.356 . S
O307 C305 1.282 . S
C308 O309 1.306 . S
C308 O311 1.160 . S
O309 C308 1.306 . S
O309 Cd310 2.228 . S
Cd310 O309 2.228 . S
Cd310 O314 2.273 . S
Cd310 O318 2.277 . S
O311 C308 1.160 . S
O311 Cd312 2.203 . S
Cd312 O311 2.203 . S
Cd312 O314 2.411 . S
Cd312 O315 2.333 . S
Cd312 O316 2.352 . S
Cd312 O320 2.277 . S
Cd312 O321 2.356 . S
C313 O318 1.209 . S
C313 O320 1.226 . S
O314 Cd310 2.273 . S
O314 Cd312 2.411 . S
O314 C317 1.320 . S
O315 Cd312 2.333 . S
O315 C317 1.214 . S
O316 Cd312 2.352 . S
O316 C319 1.258 . S
C317 O314 1.320 . S
C317 O315 1.214 . S
O318 Cd310 2.277 . S
O318 C313 1.209 . S
C319 O316 1.258 . S
C319 O321 1.282 . S
O320 Cd312 2.277 . S
O320 C313 1.226 . S
O321 Cd312 2.356 . S
O321 C319 1.282 . S
C322 O323 1.306 . S
C322 O325 1.160 . S
O323 C322 1.306 . S
O323 Cd324 2.228 . S
Cd324 O323 2.228 . S
Cd324 O328 2.273 . S
Cd324 O332 2.277 . S
O325 C322 1.160 . S
O325 Cd326 2.203 . S
Cd326 O325 2.203 . S
Cd326 O328 2.411 . S
Cd326 O329 2.333 . S
Cd326 O330 2.352 . S
Cd326 O334 2.277 . S
Cd326 O335 2.356 . S
C327 O332 1.209 . S
C327 O334 1.226 . S
O328 Cd324 2.273 . S
O328 Cd326 2.411 . S
O328 C331 1.320 . S
O329 Cd326 2.333 . S
O329 C331 1.214 . S
O330 Cd326 2.352 . S
O330 C333 1.258 . S
C331 O328 1.320 . S
C331 O329 1.214 . S
O332 Cd324 2.277 . S
O332 C327 1.209 . S
C333 O330 1.258 . S
C333 O335 1.282 . S
O334 Cd326 2.277 . S
O334 C327 1.226 . S
O335 Cd326 2.356 . S
O335 C333 1.282 . S
Sc336 O339 2.025 . S
Sc336 O346 2.105 . S
Sc336 O349 2.105 . S
Sc336 O352 2.105 . S
Sc336 O355 2.105 . S
Sc337 O339 2.025 . S
Sc337 O347 2.105 . S
Sc337 O351 2.105 . S
Sc337 O353 2.105 . S
Sc337 O357 2.105 . S
Sc338 O339 2.025 . S
Sc338 O348 2.105 . S
Sc338 O350 2.105 . S
Sc338 O354 2.105 . S
Sc338 O356 2.105 . S
O339 Sc336 2.025 . S
O339 Sc337 2.025 . S
O339 Sc338 2.025 . S
C340 O346 1.268 . S
C340 O356 1.268 . S
C341 O347 1.268 . S
C341 O355 1.268 . S
C342 O348 1.268 . S
C342 O357 1.268 . S
C343 O349 1.268 . S
C343 O353 1.268 . S
C344 O350 1.268 . S
C344 O352 1.268 . S
C345 O351 1.268 . S
C345 O354 1.268 . S
O346 Sc336 2.105 . S
O346 C340 1.268 . S
O347 Sc337 2.105 . S
O347 C341 1.268 . S
O348 Sc338 2.105 . S
O348 C342 1.268 . S
O349 Sc336 2.105 . S
O349 C343 1.268 . S
O350 Sc338 2.105 . S
O350 C344 1.268 . S
O351 Sc337 2.105 . S
O351 C345 1.268 . S
O352 Sc336 2.105 . S
O352 C344 1.268 . S
O353 Sc337 2.105 . S
O353 C343 1.268 . S
O354 Sc338 2.105 . S
O354 C345 1.268 . S
O355 Sc336 2.105 . S
O355 C341 1.268 . S
O356 Sc338 2.105 . S
O356 C340 1.268 . S
O357 Sc337 2.105 . S
O357 C342 1.268 . S
Sc358 O361 2.025 . S
Sc358 O368 2.105 . S
Sc358 O371 2.105 . S
Sc358 O374 2.105 . S
Sc358 O377 2.105 . S
Sc359 O361 2.025 . S
Sc359 O369 2.105 . S
Sc359 O373 2.105 . S
Sc359 O375 2.105 . S
Sc359 O379 2.105 . S
Sc360 O361 2.025 . S
Sc360 O370 2.105 . S
Sc360 O372 2.105 . S
Sc360 O376 2.105 . S
Sc360 O378 2.105 . S
O361 Sc358 2.025 . S
O361 Sc359 2.025 . S
O361 Sc360 2.025 . S
C362 O368 1.268 . S
C362 O378 1.268 . S
C363 O369 1.268 . S
C363 O377 1.268 . S
C364 O370 1.268 . S
C364 O379 1.268 . S
C365 O371 1.268 . S
C365 O375 1.268 . S
C366 O372 1.268 . S
C366 O374 1.268 . S
C367 O373 1.268 . S
C367 O376 1.268 . S
O368 Sc358 2.105 . S
O368 C362 1.268 . S
O369 Sc359 2.105 . S
O369 C363 1.268 . S
O370 Sc360 2.105 . S
O370 C364 1.268 . S
O371 Sc358 2.105 . S
O371 C365 1.268 . S
O372 Sc360 2.105 . S
O372 C366 1.268 . S
O373 Sc359 2.105 . S
O373 C367 1.268 . S
O374 Sc358 2.105 . S
O374 C366 1.268 . S
O375 Sc359 2.105 . S
O375 C365 1.268 . S
O376 Sc360 2.105 . S
O376 C367 1.268 . S
O377 Sc358 2.105 . S
O377 C363 1.268 . S
O378 Sc360 2.105 . S
O378 C362 1.268 . S
O379 Sc359 2.105 . S
O379 C364 1.268 . S
Sc380 O383 2.025 . S
Sc380 O390 2.105 . S
Sc380 O393 2.105 . S
Sc380 O396 2.105 . S
Sc380 O399 2.105 . S
Sc381 O383 2.025 . S
Sc381 O391 2.105 . S
Sc381 O395 2.105 . S
Sc381 O397 2.105 . S
Sc381 O401 2.105 . S
Sc382 O383 2.025 . S
Sc382 O392 2.105 . S
Sc382 O394 2.105 . S
Sc382 O398 2.105 . S
Sc382 O400 2.105 . S
O383 Sc380 2.025 . S
O383 Sc381 2.025 . S
O383 Sc382 2.025 . S
C384 O390 1.268 . S
C384 O400 1.268 . S
C385 O391 1.268 . S
C385 O399 1.268 . S
C386 O392 1.268 . S
C386 O401 1.268 . S
C387 O393 1.268 . S
C387 O397 1.268 . S
C388 O394 1.268 . S
C388 O396 1.268 . S
C389 O395 1.268 . S
C389 O398 1.268 . S
O390 Sc380 2.105 . S
O390 C384 1.268 . S
O391 Sc381 2.105 . S
O391 C385 1.268 . S
O392 Sc382 2.105 . S
O392 C386 1.268 . S
O393 Sc380 2.105 . S
O393 C387 1.268 . S
O394 Sc382 2.105 . S
O394 C388 1.268 . S
O395 Sc381 2.105 . S
O395 C389 1.268 . S
O396 Sc380 2.105 . S
O396 C388 1.268 . S
O397 Sc381 2.105 . S
O397 C387 1.268 . S
O398 Sc382 2.105 . S
O398 C389 1.268 . S
O399 Sc380 2.105 . S
O399 C385 1.268 . S
O400 Sc382 2.105 . S
O400 C384 1.268 . S
O401 Sc381 2.105 . S
O401 C386 1.268 . S
Sc402 O405 2.025 . S
Sc402 O412 2.105 . S
Sc402 O415 2.105 . S
Sc402 O418 2.105 . S
Sc402 O421 2.105 . S
Sc403 O405 2.025 . S
Sc403 O413 2.105 . S
Sc403 O417 2.105 . S
Sc403 O419 2.105 . S
Sc403 O423 2.105 . S
Sc404 O405 2.025 . S
Sc404 O414 2.105 . S
Sc404 O416 2.105 . S
Sc404 O420 2.105 . S
Sc404 O422 2.105 . S
O405 Sc402 2.025 . S
O405 Sc403 2.025 . S
O405 Sc404 2.025 . S
C406 O412 1.268 . S
C406 O422 1.268 . S
C407 O413 1.268 . S
C407 O421 1.268 . S
C408 O414 1.268 . S
C408 O423 1.268 . S
C409 O415 1.268 . S
C409 O419 1.268 . S
C410 O416 1.268 . S
C410 O418 1.268 . S
C411 O417 1.268 . S
C411 O420 1.268 . S
O412 Sc402 2.105 . S
O412 C406 1.268 . S
O413 Sc403 2.105 . S
O413 C407 1.268 . S
O414 Sc404 2.105 . S
O414 C408 1.268 . S
O415 Sc402 2.105 . S
O415 C409 1.268 . S
O416 Sc404 2.105 . S
O416 C410 1.268 . S
O417 Sc403 2.105 . S
O417 C411 1.268 . S
O418 Sc402 2.105 . S
O418 C410 1.268 . S
O419 Sc403 2.105 . S
O419 C409 1.268 . S
O420 Sc404 2.105 . S
O420 C411 1.268 . S
O421 Sc402 2.105 . S
O421 C407 1.268 . S
O422 Sc404 2.105 . S
O422 C406 1.268 . S
O423 Sc403 2.105 . S
O423 C408 1.268 . S
Sc424 O427 2.025 . S
Sc424 O434 2.105 . S
Sc424 O437 2.105 . S
Sc424 O440 2.105 . S
Sc424 O443 2.105 . S
Sc425 O427 2.025 . S
Sc425 O435 2.105 . S
Sc425 O439 2.105 . S
Sc425 O441 2.105 . S
Sc425 O445 2.105 . S
Sc426 O427 2.025 . S
Sc426 O436 2.105 . S
Sc426 O438 2.105 . S
Sc426 O442 2.105 . S
Sc426 O444 2.105 . S
O427 Sc424 2.025 . S
O427 Sc425 2.025 . S
O427 Sc426 2.025 . S
C428 O434 1.268 . S
C428 O444 1.268 . S
C429 O435 1.268 . S
C429 O443 1.268 . S
C430 O436 1.268 . S
C430 O445 1.268 . S
C431 O437 1.268 . S
C431 O441 1.268 . S
C432 O438 1.268 . S
C432 O440 1.268 . S
C433 O439 1.268 . S
C433 O442 1.268 . S
O434 Sc424 2.105 . S
O434 C428 1.268 . S
O435 Sc425 2.105 . S
O435 C429 1.268 . S
O436 Sc426 2.105 . S
O436 C430 1.268 . S
O437 Sc424 2.105 . S
O437 C431 1.268 . S
O438 Sc426 2.105 . S
O438 C432 1.268 . S
O439 Sc425 2.105 . S
O439 C433 1.268 . S
O440 Sc424 2.105 . S
O440 C432 1.268 . S
O441 Sc425 2.105 . S
O441 C431 1.268 . S
O442 Sc426 2.105 . S
O442 C433 1.268 . S
O443 Sc424 2.105 . S
O443 C429 1.268 . S
O444 Sc426 2.105 . S
O444 C428 1.268 . S
O445 Sc425 2.105 . S
O445 C430 1.268 . S
Sc446 O449 2.025 . S
Sc446 O456 2.105 . S
Sc446 O459 2.105 . S
Sc446 O462 2.105 . S
Sc446 O465 2.105 . S
Sc447 O449 2.025 . S
Sc447 O457 2.105 . S
Sc447 O461 2.105 . S
Sc447 O463 2.105 . S
Sc447 O467 2.105 . S
Sc448 O449 2.025 . S
Sc448 O458 2.105 . S
Sc448 O460 2.105 . S
Sc448 O464 2.105 . S
Sc448 O466 2.105 . S
O449 Sc446 2.025 . S
O449 Sc447 2.025 . S
O449 Sc448 2.025 . S
C450 O456 1.268 . S
C450 O466 1.268 . S
C451 O457 1.268 . S
C451 O465 1.268 . S
C452 O458 1.268 . S
C452 O467 1.268 . S
C453 O459 1.268 . S
C453 O463 1.268 . S
C454 O460 1.268 . S
C454 O462 1.268 . S
C455 O461 1.268 . S
C455 O464 1.268 . S
O456 Sc446 2.105 . S
O456 C450 1.268 . S
O457 Sc447 2.105 . S
O457 C451 1.268 . S
O458 Sc448 2.105 . S
O458 C452 1.268 . S
O459 Sc446 2.105 . S
O459 C453 1.268 . S
O460 Sc448 2.105 . S
O460 C454 1.268 . S
O461 Sc447 2.105 . S
O461 C455 1.268 . S
O462 Sc446 2.105 . S
O462 C454 1.268 . S
O463 Sc447 2.105 . S
O463 C453 1.268 . S
O464 Sc448 2.105 . S
O464 C455 1.268 . S
O465 Sc446 2.105 . S
O465 C451 1.268 . S
O466 Sc448 2.105 . S
O466 C450 1.268 . S
O467 Sc447 2.105 . S
O467 C452 1.268 . S
Sc468 O471 2.025 . S
Sc468 O478 2.105 . S
Sc468 O481 2.105 . S
Sc468 O484 2.105 . S
Sc468 O487 2.105 . S
Sc469 O471 2.025 . S
Sc469 O479 2.105 . S
Sc469 O483 2.105 . S
Sc469 O485 2.105 . S
Sc469 O489 2.105 . S
Sc470 O471 2.025 . S
Sc470 O480 2.105 . S
Sc470 O482 2.105 . S
Sc470 O486 2.105 . S
Sc470 O488 2.105 . S
O471 Sc468 2.025 . S
O471 Sc469 2.025 . S
O471 Sc470 2.025 . S
C472 O478 1.268 . S
C472 O488 1.268 . S
C473 O479 1.268 . S
C473 O487 1.268 . S
C474 O480 1.268 . S
C474 O489 1.268 . S
C475 O481 1.268 . S
C475 O485 1.268 . S
C476 O482 1.268 . S
C476 O484 1.268 . S
C477 O483 1.268 . S
C477 O486 1.268 . S
O478 Sc468 2.105 . S
O478 C472 1.268 . S
O479 Sc469 2.105 . S
O479 C473 1.268 . S
O480 Sc470 2.105 . S
O480 C474 1.268 . S
O481 Sc468 2.105 . S
O481 C475 1.268 . S
O482 Sc470 2.105 . S
O482 C476 1.268 . S
O483 Sc469 2.105 . S
O483 C477 1.268 . S
O484 Sc468 2.105 . S
O484 C476 1.268 . S
O485 Sc469 2.105 . S
O485 C475 1.268 . S
O486 Sc470 2.105 . S
O486 C477 1.268 . S
O487 Sc468 2.105 . S
O487 C473 1.268 . S
O488 Sc470 2.105 . S
O488 C472 1.268 . S
O489 Sc469 2.105 . S
O489 C474 1.268 . S
Sc490 O493 2.025 . S
Sc490 O500 2.105 . S
Sc490 O503 2.105 . S
Sc490 O506 2.105 . S
Sc490 O509 2.105 . S
Sc491 O493 2.025 . S
Sc491 O501 2.105 . S
Sc491 O505 2.105 . S
Sc491 O507 2.105 . S
Sc491 O511 2.105 . S
Sc492 O493 2.025 . S
Sc492 O502 2.105 . S
Sc492 O504 2.105 . S
Sc492 O508 2.105 . S
Sc492 O510 2.105 . S
O493 Sc490 2.025 . S
O493 Sc491 2.025 . S
O493 Sc492 2.025 . S
C494 O500 1.268 . S
C494 O510 1.268 . S
C495 O501 1.268 . S
C495 O509 1.268 . S
C496 O502 1.268 . S
C496 O511 1.268 . S
C497 O503 1.268 . S
C497 O507 1.268 . S
C498 O504 1.268 . S
C498 O506 1.268 . S
C499 O505 1.268 . S
C499 O508 1.268 . S
O500 Sc490 2.105 . S
O500 C494 1.268 . S
O501 Sc491 2.105 . S
O501 C495 1.268 . S
O502 Sc492 2.105 . S
O502 C496 1.268 . S
O503 Sc490 2.105 . S
O503 C497 1.268 . S
O504 Sc492 2.105 . S
O504 C498 1.268 . S
O505 Sc491 2.105 . S
O505 C499 1.268 . S
O506 Sc490 2.105 . S
O506 C498 1.268 . S
O507 Sc491 2.105 . S
O507 C497 1.268 . S
O508 Sc492 2.105 . S
O508 C499 1.268 . S
O509 Sc490 2.105 . S
O509 C495 1.268 . S
O510 Sc492 2.105 . S
O510 C494 1.268 . S
O511 Sc491 2.105 . S
O511 C496 1.268 . S
Sc512 O515 2.025 . S
Sc512 O522 2.105 . S
Sc512 O525 2.105 . S
Sc512 O528 2.105 . S
Sc512 O531 2.105 . S
Sc513 O515 2.025 . S
Sc513 O523 2.105 . S
Sc513 O527 2.105 . S
Sc513 O529 2.105 . S
Sc513 O533 2.105 . S
Sc514 O515 2.025 . S
Sc514 O524 2.105 . S
Sc514 O526 2.105 . S
Sc514 O530 2.105 . S
Sc514 O532 2.105 . S
O515 Sc512 2.025 . S
O515 Sc513 2.025 . S
O515 Sc514 2.025 . S
C516 O522 1.268 . S
C516 O532 1.268 . S
C517 O523 1.268 . S
C517 O531 1.268 . S
C518 O524 1.268 . S
C518 O533 1.268 . S
C519 O525 1.268 . S
C519 O529 1.268 . S
C520 O526 1.268 . S
C520 O528 1.268 . S
C521 O527 1.268 . S
C521 O530 1.268 . S
O522 Sc512 2.105 . S
O522 C516 1.268 . S
O523 Sc513 2.105 . S
O523 C517 1.268 . S
O524 Sc514 2.105 . S
O524 C518 1.268 . S
O525 Sc512 2.105 . S
O525 C519 1.268 . S
O526 Sc514 2.105 . S
O526 C520 1.268 . S
O527 Sc513 2.105 . S
O527 C521 1.268 . S
O528 Sc512 2.105 . S
O528 C520 1.268 . S
O529 Sc513 2.105 . S
O529 C519 1.268 . S
O530 Sc514 2.105 . S
O530 C521 1.268 . S
O531 Sc512 2.105 . S
O531 C517 1.268 . S
O532 Sc514 2.105 . S
O532 C516 1.268 . S
O533 Sc513 2.105 . S
O533 C518 1.268 . S
Sc534 O537 2.025 . S
Sc534 O544 2.105 . S
Sc534 O547 2.105 . S
Sc534 O550 2.105 . S
Sc534 O553 2.105 . S
Sc535 O537 2.025 . S
Sc535 O545 2.105 . S
Sc535 O549 2.105 . S
Sc535 O551 2.105 . S
Sc535 O555 2.105 . S
Sc536 O537 2.025 . S
Sc536 O546 2.105 . S
Sc536 O548 2.105 . S
Sc536 O552 2.105 . S
Sc536 O554 2.105 . S
O537 Sc534 2.025 . S
O537 Sc535 2.025 . S
O537 Sc536 2.025 . S
C538 O544 1.268 . S
C538 O554 1.268 . S
C539 O545 1.268 . S
C539 O553 1.268 . S
C540 O546 1.268 . S
C540 O555 1.268 . S
C541 O547 1.268 . S
C541 O551 1.268 . S
C542 O548 1.268 . S
C542 O550 1.268 . S
C543 O549 1.268 . S
C543 O552 1.268 . S
O544 Sc534 2.105 . S
O544 C538 1.268 . S
O545 Sc535 2.105 . S
O545 C539 1.268 . S
O546 Sc536 2.105 . S
O546 C540 1.268 . S
O547 Sc534 2.105 . S
O547 C541 1.268 . S
O548 Sc536 2.105 . S
O548 C542 1.268 . S
O549 Sc535 2.105 . S
O549 C543 1.268 . S
O550 Sc534 2.105 . S
O550 C542 1.268 . S
O551 Sc535 2.105 . S
O551 C541 1.268 . S
O552 Sc536 2.105 . S
O552 C543 1.268 . S
O553 Sc534 2.105 . S
O553 C539 1.268 . S
O554 Sc536 2.105 . S
O554 C538 1.268 . S
O555 Sc535 2.105 . S
O555 C540 1.268 . S
Sc556 O559 2.025 . S
Sc556 O566 2.105 . S
Sc556 O569 2.105 . S
Sc556 O572 2.105 . S
Sc556 O575 2.105 . S
Sc557 O559 2.025 . S
Sc557 O567 2.105 . S
Sc557 O571 2.105 . S
Sc557 O573 2.105 . S
Sc557 O577 2.105 . S
Sc558 O559 2.025 . S
Sc558 O568 2.105 . S
Sc558 O570 2.105 . S
Sc558 O574 2.105 . S
Sc558 O576 2.105 . S
O559 Sc556 2.025 . S
O559 Sc557 2.025 . S
O559 Sc558 2.025 . S
C560 O566 1.268 . S
C560 O576 1.268 . S
C561 O567 1.268 . S
C561 O575 1.268 . S
C562 O568 1.268 . S
C562 O577 1.268 . S
C563 O569 1.268 . S
C563 O573 1.268 . S
C564 O570 1.268 . S
C564 O572 1.268 . S
C565 O571 1.268 . S
C565 O574 1.268 . S
O566 Sc556 2.105 . S
O566 C560 1.268 . S
O567 Sc557 2.105 . S
O567 C561 1.268 . S
O568 Sc558 2.105 . S
O568 C562 1.268 . S
O569 Sc556 2.105 . S
O569 C563 1.268 . S
O570 Sc558 2.105 . S
O570 C564 1.268 . S
O571 Sc557 2.105 . S
O571 C565 1.268 . S
O572 Sc556 2.105 . S
O572 C564 1.268 . S
O573 Sc557 2.105 . S
O573 C563 1.268 . S
O574 Sc558 2.105 . S
O574 C565 1.268 . S
O575 Sc556 2.105 . S
O575 C561 1.268 . S
O576 Sc558 2.105 . S
O576 C560 1.268 . S
O577 Sc557 2.105 . S
O577 C562 1.268 . S
Sc578 O581 2.025 . S
Sc578 O588 2.105 . S
Sc578 O591 2.105 . S
Sc578 O594 2.105 . S
Sc578 O597 2.105 . S
Sc579 O581 2.025 . S
Sc579 O589 2.105 . S
Sc579 O593 2.105 . S
Sc579 O595 2.105 . S
Sc579 O599 2.105 . S
Sc580 O581 2.025 . S
Sc580 O590 2.105 . S
Sc580 O592 2.105 . S
Sc580 O596 2.105 . S
Sc580 O598 2.105 . S
O581 Sc578 2.025 . S
O581 Sc579 2.025 . S
O581 Sc580 2.025 . S
C582 O588 1.268 . S
C582 O598 1.268 . S
C583 O589 1.268 . S
C583 O597 1.268 . S
C584 O590 1.268 . S
C584 O599 1.268 . S
C585 O591 1.268 . S
C585 O595 1.268 . S
C586 O592 1.268 . S
C586 O594 1.268 . S
C587 O593 1.268 . S
C587 O596 1.268 . S
O588 Sc578 2.105 . S
O588 C582 1.268 . S
O589 Sc579 2.105 . S
O589 C583 1.268 . S
O590 Sc580 2.105 . S
O590 C584 1.268 . S
O591 Sc578 2.105 . S
O591 C585 1.268 . S
O592 Sc580 2.105 . S
O592 C586 1.268 . S
O593 Sc579 2.105 . S
O593 C587 1.268 . S
O594 Sc578 2.105 . S
O594 C586 1.268 . S
O595 Sc579 2.105 . S
O595 C585 1.268 . S
O596 Sc580 2.105 . S
O596 C587 1.268 . S
O597 Sc578 2.105 . S
O597 C583 1.268 . S
O598 Sc580 2.105 . S
O598 C582 1.268 . S
O599 Sc579 2.105 . S
O599 C584 1.268 . S
Sc600 O603 2.025 . S
Sc600 O610 2.105 . S
Sc600 O613 2.105 . S
Sc600 O616 2.105 . S
Sc600 O619 2.105 . S
Sc601 O603 2.025 . S
Sc601 O611 2.105 . S
Sc601 O615 2.105 . S
Sc601 O617 2.105 . S
Sc601 O621 2.105 . S
Sc602 O603 2.025 . S
Sc602 O612 2.105 . S
Sc602 O614 2.105 . S
Sc602 O618 2.105 . S
Sc602 O620 2.105 . S
O603 Sc600 2.025 . S
O603 Sc601 2.025 . S
O603 Sc602 2.025 . S
C604 O610 1.268 . S
C604 O620 1.268 . S
C605 O611 1.268 . S
C605 O619 1.268 . S
C606 O612 1.268 . S
C606 O621 1.268 . S
C607 O613 1.268 . S
C607 O617 1.268 . S
C608 O614 1.268 . S
C608 O616 1.268 . S
C609 O615 1.268 . S
C609 O618 1.268 . S
O610 Sc600 2.105 . S
O610 C604 1.268 . S
O611 Sc601 2.105 . S
O611 C605 1.268 . S
O612 Sc602 2.105 . S
O612 C606 1.268 . S
O613 Sc600 2.105 . S
O613 C607 1.268 . S
O614 Sc602 2.105 . S
O614 C608 1.268 . S
O615 Sc601 2.105 . S
O615 C609 1.268 . S
O616 Sc600 2.105 . S
O616 C608 1.268 . S
O617 Sc601 2.105 . S
O617 C607 1.268 . S
O618 Sc602 2.105 . S
O618 C609 1.268 . S
O619 Sc600 2.105 . S
O619 C605 1.268 . S
O620 Sc602 2.105 . S
O620 C604 1.268 . S
O621 Sc601 2.105 . S
O621 C606 1.268 . S
Sc622 O625 2.025 . S
Sc622 O632 2.105 . S
Sc622 O635 2.105 . S
Sc622 O638 2.105 . S
Sc622 O641 2.105 . S
Sc623 O625 2.025 . S
Sc623 O633 2.105 . S
Sc623 O637 2.105 . S
Sc623 O639 2.105 . S
Sc623 O643 2.105 . S
Sc624 O625 2.025 . S
Sc624 O634 2.105 . S
Sc624 O636 2.105 . S
Sc624 O640 2.105 . S
Sc624 O642 2.105 . S
O625 Sc622 2.025 . S
O625 Sc623 2.025 . S
O625 Sc624 2.025 . S
C626 O632 1.268 . S
C626 O642 1.268 . S
C627 O633 1.268 . S
C627 O641 1.268 . S
C628 O634 1.268 . S
C628 O643 1.268 . S
C629 O635 1.268 . S
C629 O639 1.268 . S
C630 O636 1.268 . S
C630 O638 1.268 . S
C631 O637 1.268 . S
C631 O640 1.268 . S
O632 Sc622 2.105 . S
O632 C626 1.268 . S
O633 Sc623 2.105 . S
O633 C627 1.268 . S
O634 Sc624 2.105 . S
O634 C628 1.268 . S
O635 Sc622 2.105 . S
O635 C629 1.268 . S
O636 Sc624 2.105 . S
O636 C630 1.268 . S
O637 Sc623 2.105 . S
O637 C631 1.268 . S
O638 Sc622 2.105 . S
O638 C630 1.268 . S
O639 Sc623 2.105 . S
O639 C629 1.268 . S
O640 Sc624 2.105 . S
O640 C631 1.268 . S
O641 Sc622 2.105 . S
O641 C627 1.268 . S
O642 Sc624 2.105 . S
O642 C626 1.268 . S
O643 Sc623 2.105 . S
O643 C628 1.268 . S
Sc644 O647 2.025 . S
Sc644 O654 2.105 . S
Sc644 O657 2.105 . S
Sc644 O660 2.105 . S
Sc644 O663 2.105 . S
Sc645 O647 2.025 . S
Sc645 O655 2.105 . S
Sc645 O659 2.105 . S
Sc645 O661 2.105 . S
Sc645 O665 2.105 . S
Sc646 O647 2.025 . S
Sc646 O656 2.105 . S
Sc646 O658 2.105 . S
Sc646 O662 2.105 . S
Sc646 O664 2.105 . S
O647 Sc644 2.025 . S
O647 Sc645 2.025 . S
O647 Sc646 2.025 . S
C648 O654 1.268 . S
C648 O664 1.268 . S
C649 O655 1.268 . S
C649 O663 1.268 . S
C650 O656 1.268 . S
C650 O665 1.268 . S
C651 O657 1.268 . S
C651 O661 1.268 . S
C652 O658 1.268 . S
C652 O660 1.268 . S
C653 O659 1.268 . S
C653 O662 1.268 . S
O654 Sc644 2.105 . S
O654 C648 1.268 . S
O655 Sc645 2.105 . S
O655 C649 1.268 . S
O656 Sc646 2.105 . S
O656 C650 1.268 . S
O657 Sc644 2.105 . S
O657 C651 1.268 . S
O658 Sc646 2.105 . S
O658 C652 1.268 . S
O659 Sc645 2.105 . S
O659 C653 1.268 . S
O660 Sc644 2.105 . S
O660 C652 1.268 . S
O661 Sc645 2.105 . S
O661 C651 1.268 . S
O662 Sc646 2.105 . S
O662 C653 1.268 . S
O663 Sc644 2.105 . S
O663 C649 1.268 . S
O664 Sc646 2.105 . S
O664 C648 1.268 . S
O665 Sc645 2.105 . S
O665 C650 1.268 . S
Sc666 O669 2.025 . S
Sc666 O676 2.105 . S
Sc666 O679 2.105 . S
Sc666 O682 2.105 . S
Sc666 O685 2.105 . S
Sc667 O669 2.025 . S
Sc667 O677 2.105 . S
Sc667 O681 2.105 . S
Sc667 O683 2.105 . S
Sc667 O687 2.105 . S
Sc668 O669 2.025 . S
Sc668 O678 2.105 . S
Sc668 O680 2.105 . S
Sc668 O684 2.105 . S
Sc668 O686 2.105 . S
O669 Sc666 2.025 . S
O669 Sc667 2.025 . S
O669 Sc668 2.025 . S
C670 O676 1.268 . S
C670 O686 1.268 . S
C671 O677 1.268 . S
C671 O685 1.268 . S
C672 O678 1.268 . S
C672 O687 1.268 . S
C673 O679 1.268 . S
C673 O683 1.268 . S
C674 O680 1.268 . S
C674 O682 1.268 . S
C675 O681 1.268 . S
C675 O684 1.268 . S
O676 Sc666 2.105 . S
O676 C670 1.268 . S
O677 Sc667 2.105 . S
O677 C671 1.268 . S
O678 Sc668 2.105 . S
O678 C672 1.268 . S
O679 Sc666 2.105 . S
O679 C673 1.268 . S
O680 Sc668 2.105 . S
O680 C674 1.268 . S
O681 Sc667 2.105 . S
O681 C675 1.268 . S
O682 Sc666 2.105 . S
O682 C674 1.268 . S
O683 Sc667 2.105 . S
O683 C673 1.268 . S
O684 Sc668 2.105 . S
O684 C675 1.268 . S
O685 Sc666 2.105 . S
O685 C671 1.268 . S
O686 Sc668 2.105 . S
O686 C670 1.268 . S
O687 Sc667 2.105 . S
O687 C672 1.268 . S
C688 C689 1.369 . S
C688 C690 1.419 . S
C688 H692 0.930 . S
C689 C688 1.369 . S
C689 C698 1.429 . S
C690 C688 1.419 . S
C690 C691 1.363 . S
C690 H693 0.929 . S
C691 C690 1.363 . S
C691 C697 1.428 . S
H692 C688 0.930 . S
H693 C690 0.929 . S
S694 N695 1.613 . S
S694 N696 1.610 . S
N695 S694 1.613 . S
N695 C698 1.350 . S
N696 S694 1.610 . S
N696 C697 1.351 . S
C697 C691 1.428 . S
C697 N696 1.351 . S
C697 C698 1.434 . S
C698 C689 1.429 . S
C698 N695 1.350 . S
C698 C697 1.434 . S
C699 C700 1.369 . S
C699 C701 1.419 . S
C699 H703 0.930 . S
C700 C699 1.369 . S
C700 C709 1.429 . S
C701 C699 1.419 . S
C701 C702 1.363 . S
C701 H704 0.929 . S
C702 C701 1.363 . S
C702 C708 1.428 . S
H703 C699 0.930 . S
H704 C701 0.929 . S
S705 N706 1.613 . S
S705 N707 1.610 . S
N706 S705 1.613 . S
N706 C709 1.350 . S
N707 S705 1.610 . S
N707 C708 1.351 . S
C708 C702 1.428 . S
C708 N707 1.351 . S
C708 C709 1.434 . S
C709 C700 1.429 . S
C709 N706 1.350 . S
C709 C708 1.434 . S
C710 C711 1.369 . S
C710 C712 1.419 . S
C710 H714 0.930 . S
C711 C710 1.369 . S
C711 C720 1.429 . S
C712 C710 1.419 . S
C712 C713 1.363 . S
C712 H715 0.929 . S
C713 C712 1.363 . S
C713 C719 1.428 . S
H714 C710 0.930 . S
H715 C712 0.929 . S
S716 N717 1.613 . S
S716 N718 1.610 . S
N717 S716 1.613 . S
N717 C720 1.350 . S
N718 S716 1.610 . S
N718 C719 1.351 . S
C719 C713 1.428 . S
C719 N718 1.351 . S
C719 C720 1.434 . S
C720 C711 1.429 . S
C720 N717 1.350 . S
C720 C719 1.434 . S
C721 C722 1.369 . S
C721 C723 1.419 1_554 S
C721 H725 0.930 . S
C722 C721 1.369 . S
C722 C731 1.429 . S
C723 C721 1.419 1_556 S
C723 C724 1.363 . S
C723 H726 0.929 . S
C724 C723 1.363 . S
C724 C730 1.428 1_556 S
H725 C721 0.930 . S
H726 C723 0.929 . S
S727 N728 1.613 . S
S727 N729 1.610 . S
N728 S727 1.613 . S
N728 C731 1.350 . S
N729 S727 1.610 . S
N729 C730 1.351 . S
C730 C724 1.428 1_554 S
C730 N729 1.351 . S
C730 C731 1.434 . S
C731 C722 1.429 . S
C731 N728 1.350 . S
C731 C730 1.434 . S
C732 C733 1.369 . S
C732 C734 1.419 . S
C732 H736 0.930 . S
C733 C732 1.369 . S
C733 C742 1.429 . S
C734 C732 1.419 . S
C734 C735 1.363 . S
C734 H737 0.929 . S
C735 C734 1.363 . S
C735 C741 1.428 . S
H736 C732 0.930 . S
H737 C734 0.929 . S
S738 N739 1.613 . S
S738 N740 1.610 . S
N739 S738 1.613 . S
N739 C742 1.350 . S
N740 S738 1.610 . S
N740 C741 1.351 . S
C741 C735 1.428 . S
C741 N740 1.351 . S
C741 C742 1.434 . S
C742 C733 1.429 . S
C742 N739 1.350 . S
C742 C741 1.434 . S
C743 C744 1.369 . S
C743 C745 1.419 . S
C743 H747 0.930 . S
C744 C743 1.369 . S
C744 C753 1.429 . S
C745 C743 1.419 . S
C745 C746 1.363 . S
C745 H748 0.929 . S
C746 C745 1.363 . S
C746 C752 1.428 . S
H747 C743 0.930 . S
H748 C745 0.929 . S
S749 N750 1.613 . S
S749 N751 1.610 . S
N750 S749 1.613 . S
N750 C753 1.350 . S
N751 S749 1.610 . S
N751 C752 1.351 . S
C752 C746 1.428 . S
C752 N751 1.351 . S
C752 C753 1.434 . S
C753 C744 1.429 . S
C753 N750 1.350 . S
C753 C752 1.434 . S
C754 C755 1.369 . S
C754 C756 1.419 . S
C754 H758 0.930 . S
C755 C754 1.369 . S
C755 C764 1.429 . S
C756 C754 1.419 . S
C756 C757 1.363 . S
C756 H759 0.929 . S
C757 C756 1.363 . S
C757 C763 1.428 . S
H758 C754 0.930 . S
H759 C756 0.929 . S
S760 N761 1.613 . S
S760 N762 1.610 . S
N761 S760 1.613 . S
N761 C764 1.350 . S
N762 S760 1.610 . S
N762 C763 1.351 . S
C763 C757 1.428 . S
C763 N762 1.351 . S
C763 C764 1.434 . S
C764 C755 1.429 . S
C764 N761 1.350 . S
C764 C763 1.434 . S
C765 C766 1.369 . S
C765 C767 1.419 1_556 S
C765 H769 0.930 . S
C766 C765 1.369 . S
C766 C775 1.429 . S
C767 C765 1.419 1_554 S
C767 C768 1.363 . S
C767 H770 0.929 . S
C768 C767 1.363 . S
C768 C774 1.428 1_554 S
H769 C765 0.930 . S
H770 C767 0.929 . S
S771 N772 1.613 . S
S771 N773 1.610 . S
N772 S771 1.613 . S
N772 C775 1.350 . S
N773 S771 1.610 . S
N773 C774 1.351 . S
C774 C768 1.428 1_556 S
C774 N773 1.351 . S
C774 C775 1.434 . S
C775 C766 1.429 . S
C775 N772 1.350 . S
C775 C774 1.434 . S
C776 C777 1.369 . S
C776 C778 1.419 . S
C776 H780 0.930 . S
C777 C776 1.369 . S
C777 C786 1.429 . S
C778 C776 1.419 . S
C778 C779 1.363 . S
C778 H781 0.929 . S
C779 C778 1.363 . S
C779 C785 1.428 . S
H780 C776 0.930 . S
H781 C778 0.929 . S
S782 N783 1.613 . S
S782 N784 1.610 . S
N783 S782 1.613 . S
N783 C786 1.350 . S
N784 S782 1.610 . S
N784 C785 1.351 . S
C785 C779 1.428 . S
C785 N784 1.351 . S
C785 C786 1.434 . S
C786 C777 1.429 . S
C786 N783 1.350 . S
C786 C785 1.434 . S
C787 C788 1.369 . S
C787 C789 1.419 1_545 S
C787 H791 0.930 . S
C788 C787 1.369 . S
C788 C797 1.429 . S
C789 C787 1.419 1_565 S
C789 C790 1.363 . S
C789 H792 0.929 . S
C790 C789 1.363 . S
C790 C796 1.428 1_565 S
H791 C787 0.930 . S
H792 C789 0.929 . S
S793 N794 1.613 . S
S793 N795 1.610 . S
N794 S793 1.613 . S
N794 C797 1.350 . S
N795 S793 1.610 . S
N795 C796 1.351 . S
C796 C790 1.428 1_545 S
C796 N795 1.351 . S
C796 C797 1.434 . S
C797 C788 1.429 . S
C797 N794 1.350 . S
C797 C796 1.434 . S
C798 C799 1.369 . S
C798 C800 1.419 . S
C798 H802 0.930 . S
C799 C798 1.369 . S
C799 C808 1.429 . S
C800 C798 1.419 . S
C800 C801 1.363 . S
C800 H803 0.929 . S
C801 C800 1.363 . S
C801 C807 1.428 . S
H802 C798 0.930 . S
H803 C800 0.929 . S
S804 N805 1.613 1_545 S
S804 N806 1.595 1_545 S
N805 S804 1.613 1_565 S
N805 C808 1.350 . S
N806 S804 1.595 1_565 S
N806 C807 1.351 . S
C807 C801 1.428 . S
C807 N806 1.351 . S
C807 C808 1.434 . S
C808 C799 1.429 . S
C808 N805 1.350 . S
C808 C807 1.434 . S
C809 C810 1.369 . S
C809 C811 1.419 . S
C809 H813 0.930 . S
C810 C809 1.369 . S
C810 C819 1.429 . S
C811 C809 1.419 . S
C811 C812 1.363 1_565 S
C811 H814 0.929 . S
C812 C811 1.363 1_545 S
C812 C818 1.428 . S
H813 C809 0.930 . S
H814 C811 0.929 . S
S815 N816 1.613 1_545 S
S815 N817 1.610 . S
N816 S815 1.613 1_565 S
N816 C819 1.350 . S
N817 S815 1.610 . S
N817 C818 1.351 . S
C818 C812 1.428 . S
C818 N817 1.351 . S
C818 C819 1.434 1_545 S
C819 C810 1.429 . S
C819 N816 1.350 . S
C819 C818 1.434 1_565 S
C820 C821 1.369 . S
C820 C822 1.419 . S
C820 H824 0.930 . S
C821 C820 1.369 . S
C821 C830 1.429 . S
C822 C820 1.419 . S
C822 C823 1.363 . S
C822 H825 0.929 . S
C823 C822 1.363 . S
C823 C829 1.428 . S
H824 C820 0.930 . S
H825 C822 0.929 . S
S826 N827 1.613 . S
S826 N828 1.610 . S
N827 S826 1.613 . S
N827 C830 1.350 . S
N828 S826 1.610 . S
N828 C829 1.351 . S
C829 C823 1.428 . S
C829 N828 1.351 . S
C829 C830 1.434 . S
C830 C821 1.429 . S
C830 N827 1.350 . S
C830 C829 1.434 . S
C831 C832 1.369 . S
C831 C833 1.419 1_545 S
C831 H835 0.930 . S
C832 C831 1.369 . S
C832 C841 1.429 . S
C833 C831 1.419 1_565 S
C833 C834 1.363 . S
C833 H836 0.929 . S
C834 C833 1.363 . S
C834 C840 1.428 1_565 S
H835 C831 0.930 . S
H836 C833 0.929 . S
S837 N838 1.613 . S
S837 N839 1.610 . S
N838 S837 1.613 . S
N838 C841 1.350 . S
N839 S837 1.610 . S
N839 C840 1.351 . S
C840 C834 1.428 1_545 S
C840 N839 1.351 . S
C840 C841 1.434 . S
C841 C832 1.429 . S
C841 N838 1.350 . S
C841 C840 1.434 . S
C842 C843 1.369 . S
C842 C844 1.419 . S
C842 H846 0.930 . S
C843 C842 1.369 . S
C843 C852 1.429 . S
C844 C842 1.419 . S
C844 C845 1.363 . S
C844 H847 0.929 . S
C845 C844 1.363 . S
C845 C851 1.428 . S
H846 C842 0.930 . S
H847 C844 0.929 . S
S848 N849 1.613 . S
S848 N850 1.610 . S
N849 S848 1.613 . S
N849 C852 1.350 . S
N850 S848 1.610 . S
N850 C851 1.351 . S
C851 C845 1.428 . S
C851 N850 1.351 . S
C851 C852 1.434 . S
C852 C843 1.429 . S
C852 N849 1.350 . S
C852 C851 1.434 . S
C853 C854 1.369 . S
C853 C855 1.419 1_565 S
C853 H857 0.930 . S
C854 C853 1.369 . S
C854 C863 1.429 . S
C855 C853 1.419 1_545 S
C855 C856 1.363 . S
C855 H858 0.929 . S
C856 C855 1.363 . S
C856 C862 1.428 1_545 S
H857 C853 0.930 . S
H858 C855 0.929 . S
S859 N860 1.613 . S
S859 N861 1.610 . S
N860 S859 1.613 . S
N860 C863 1.350 . S
N861 S859 1.610 . S
N861 C862 1.351 . S
C862 C856 1.428 1_565 S
C862 N861 1.351 . S
C862 C863 1.434 . S
C863 C854 1.429 . S
C863 N860 1.350 . S
C863 C862 1.434 . S
C864 C865 1.369 . S
C864 C866 1.419 . S
C864 H868 0.930 . S
C865 C864 1.369 . S
C865 C874 1.429 . S
C866 C864 1.419 . S
C866 C867 1.363 . S
C866 H869 0.929 . S
C867 C866 1.363 . S
C867 C873 1.428 . S
H868 C864 0.930 . S
H869 C866 0.929 . S
S870 N871 1.613 . S
S870 N872 1.610 . S
N871 S870 1.613 . S
N871 C874 1.350 . S
N872 S870 1.610 . S
N872 C873 1.351 . S
C873 C867 1.428 . S
C873 N872 1.351 . S
C873 C874 1.434 . S
C874 C865 1.429 . S
C874 N871 1.350 . S
C874 C873 1.434 . S
C875 C876 1.369 . S
C875 C877 1.419 . S
C875 H879 0.930 . S
C876 C875 1.369 . S
C876 C885 1.429 . S
C877 C875 1.419 . S
C877 C878 1.363 . S
C877 H880 0.929 . S
C878 C877 1.363 . S
C878 C884 1.428 . S
H879 C875 0.930 . S
H880 C877 0.929 . S
S881 N882 1.613 . S
S881 N883 1.610 . S
N882 S881 1.613 . S
N882 C885 1.350 . S
N883 S881 1.610 . S
N883 C884 1.351 . S
C884 C878 1.428 . S
C884 N883 1.351 . S
C884 C885 1.434 . S
C885 C876 1.429 . S
C885 N882 1.350 . S
C885 C884 1.434 . S
C886 C887 1.369 . S
C886 C888 1.419 . S
C886 H890 0.930 . S
C887 C886 1.369 . S
C887 C896 1.429 . S
C888 C886 1.419 . S
C888 C889 1.363 1_455 S
C888 H891 0.929 . S
C889 C888 1.363 1_655 S
C889 C895 1.428 1_655 S
H890 C886 0.930 . S
H891 C888 0.929 . S
S892 N893 1.613 . S
S892 N894 1.611 . S
N893 S892 1.613 . S
N893 C896 1.350 . S
N894 S892 1.611 . S
N894 C895 1.351 . S
C895 C889 1.428 1_455 S
C895 N894 1.351 . S
C895 C896 1.434 . S
C896 C887 1.429 . S
C896 N893 1.350 . S
C896 C895 1.434 . S
C897 C898 1.369 . S
C897 C899 1.419 . S
C897 H901 0.930 . S
C898 C897 1.369 . S
C898 C907 1.429 . S
C899 C897 1.419 . S
C899 C900 1.363 . S
C899 H902 0.929 . S
C900 C899 1.363 . S
C900 C906 1.428 . S
H901 C897 0.930 . S
H902 C899 0.929 . S
S903 N904 1.613 . S
S903 N905 1.610 . S
N904 S903 1.613 . S
N904 C907 1.350 . S
N905 S903 1.610 . S
N905 C906 1.351 . S
C906 C900 1.428 . S
C906 N905 1.351 . S
C906 C907 1.434 . S
C907 C898 1.429 . S
C907 N904 1.350 . S
C907 C906 1.434 . S
C908 C909 1.369 . S
C908 C910 1.419 . S
C908 H912 0.930 . S
C909 C908 1.369 . S
C909 C918 1.429 . S
C910 C908 1.419 . S
C910 C911 1.363 1_655 S
C910 H913 0.929 . S
C911 C910 1.363 1_455 S
C911 C917 1.428 . S
H912 C908 0.930 . S
H913 C910 0.929 . S
S914 N915 1.613 1_455 S
S914 N916 1.610 . S
N915 S914 1.613 1_655 S
N915 C918 1.350 . S
N916 S914 1.610 . S
N916 C917 1.351 . S
C917 C911 1.428 . S
C917 N916 1.351 . S
C917 C918 1.434 1_455 S
C918 C909 1.429 . S
C918 N915 1.350 . S
C918 C917 1.434 1_655 S
C919 C920 1.369 . S
C919 C921 1.419 . S
C919 H923 0.930 . S
C920 C919 1.369 . S
C920 C929 1.429 . S
C921 C919 1.419 . S
C921 C922 1.363 . S
C921 H924 0.929 . S
C922 C921 1.363 . S
C922 C928 1.428 . S
H923 C919 0.930 . S
H924 C921 0.929 . S
S925 N926 1.613 . S
S925 N927 1.610 . S
N926 S925 1.613 . S
N926 C929 1.350 . S
N927 S925 1.610 . S
N927 C928 1.351 . S
C928 C922 1.428 . S
C928 N927 1.351 . S
C928 C929 1.434 . S
C929 C920 1.429 . S
C929 N926 1.350 . S
C929 C928 1.434 . S
C930 C931 1.369 . S
C930 C932 1.419 . S
C930 H934 0.930 . S
C931 C930 1.369 . S
C931 C940 1.429 . S
C932 C930 1.419 . S
C932 C933 1.363 1_455 S
C932 H935 0.929 . S
C933 C932 1.363 1_655 S
C933 C939 1.428 . S
H934 C930 0.930 . S
H935 C932 0.929 . S
S936 N937 1.613 1_655 S
S936 N938 1.610 . S
N937 S936 1.613 1_455 S
N937 C940 1.350 . S
N938 S936 1.610 . S
N938 C939 1.351 . S
C939 C933 1.428 . S
C939 N938 1.351 . S
C939 C940 1.434 1_655 S
C940 C931 1.429 . S
C940 N937 1.350 . S
C940 C939 1.434 1_455 S
C941 C942 1.369 . S
C941 C943 1.419 . S
C941 H945 0.930 . S
C942 C941 1.369 . S
C942 C951 1.429 . S
C943 C941 1.419 . S
C943 C944 1.363 . S
C943 H946 0.929 . S
C944 C943 1.363 . S
C944 C950 1.428 . S
H945 C941 0.930 . S
H946 C943 0.929 . S
S947 N948 1.613 . S
S947 N949 1.610 . S
N948 S947 1.613 . S
N948 C951 1.350 . S
N949 S947 1.610 . S
N949 C950 1.351 . S
C950 C944 1.428 . S
C950 N949 1.351 . S
C950 C951 1.434 . S
C951 C942 1.429 . S
C951 N948 1.350 . S
C951 C950 1.434 . S
C952 C953 1.369 . S
C952 C954 1.419 . S
C952 H956 0.930 . S
C953 C952 1.369 . S
C953 C962 1.429 . S
C954 C952 1.419 . S
C954 C955 1.363 . S
C954 H957 0.929 . S
C955 C954 1.363 . S
C955 C961 1.428 . S
H956 C952 0.930 . S
H957 C954 0.929 . S
S958 N959 1.613 1_455 S
S958 N960 1.610 1_455 S
N959 S958 1.613 1_655 S
N959 C962 1.350 . S
N960 S958 1.610 1_655 S
N960 C961 1.351 . S
C961 C955 1.428 . S
C961 N960 1.351 . S
C961 C962 1.434 . S
C962 C953 1.429 . S
C962 N959 1.350 . S
C962 C961 1.434 . S
C963 C964 1.369 . S
C963 C965 1.419 . S
C963 H967 0.930 . S
C964 C963 1.369 . S
C964 C973 1.429 . S
C965 C963 1.419 . S
C965 C966 1.363 . S
C965 H968 0.929 . S
C966 C965 1.363 . S
C966 C972 1.428 . S
H967 C963 0.930 . S
H968 C965 0.929 . S
S969 N970 1.613 . S
S969 N971 1.610 . S
N970 S969 1.613 . S
N970 C973 1.350 . S
N971 S969 1.610 . S
N971 C972 1.351 . S
C972 C966 1.428 . S
C972 N971 1.351 . S
C972 C973 1.434 . S
C973 C964 1.429 . S
C973 N970 1.350 . S
C973 C972 1.434 . S
C974 C975 1.369 . S
C974 C976 1.419 . S
C974 H978 0.930 . S
C975 C974 1.369 . S
C975 C984 1.429 . S
C976 C974 1.419 . S
C976 C977 1.363 . S
C976 H979 0.929 . S
C977 C976 1.363 . S
C977 C983 1.428 . S
H978 C974 0.930 . S
H979 C976 0.929 . S
S980 N981 1.613 . S
S980 N982 1.610 . S
N981 S980 1.613 . S
N981 C984 1.350 . S
N982 S980 1.610 . S
N982 C983 1.351 . S
C983 C977 1.428 . S
C983 N982 1.351 . S
C983 C984 1.434 . S
C984 C975 1.429 . S
C984 N981 1.350 . S
C984 C983 1.434 . S
C985 C986 1.369 . S
C985 C987 1.419 . S
C985 H989 0.930 . S
C986 C985 1.369 . S
C986 C995 1.429 . S
C987 C985 1.419 . S
C987 C988 1.363 1_556 S
C987 H990 0.929 . S
C988 C987 1.363 1_554 S
C988 C994 1.428 . S
H989 C985 0.930 . S
H990 C987 0.929 . S
S991 N992 1.613 1_554 S
S991 N993 1.610 . S
N992 S991 1.613 1_556 S
N992 C995 1.350 . S
N993 S991 1.610 . S
N993 C994 1.351 . S
C994 C988 1.428 . S
C994 N993 1.351 . S
C994 C995 1.434 1_554 S
C995 C986 1.429 . S
C995 N992 1.350 . S
C995 C994 1.434 1_556 S
C996 C997 1.369 . S
C996 C998 1.419 . S
C996 H1000 0.930 . S
C997 C996 1.369 . S
C997 C1006 1.429 . S
C998 C996 1.419 . S
C998 C999 1.363 . S
C998 H1001 0.929 . S
C999 C998 1.363 . S
C999 C1005 1.428 . S
H1000 C996 0.930 . S
H1001 C998 0.929 . S
S1002 N1003 1.613 . S
S1002 N1004 1.610 . S
N1003 S1002 1.613 . S
N1003 C1006 1.350 . S
N1004 S1002 1.610 . S
N1004 C1005 1.351 . S
C1005 C999 1.428 . S
C1005 N1004 1.351 . S
C1005 C1006 1.434 . S
C1006 C997 1.429 . S
C1006 N1003 1.350 . S
C1006 C1005 1.434 . S
C1007 C1008 1.369 . S
C1007 C1009 1.419 . S
C1007 H1011 0.930 . S
C1008 C1007 1.369 . S
C1008 C1017 1.429 . S
C1009 C1007 1.419 . S
C1009 C1010 1.363 . S
C1009 H1012 0.929 . S
C1010 C1009 1.363 . S
C1010 C1016 1.428 . S
H1011 C1007 0.930 . S
H1012 C1009 0.929 . S
S1013 N1014 1.613 . S
S1013 N1015 1.610 . S
N1014 S1013 1.613 . S
N1014 C1017 1.350 . S
N1015 S1013 1.610 . S
N1015 C1016 1.351 . S
C1016 C1010 1.428 . S
C1016 N1015 1.351 . S
C1016 C1017 1.434 . S
C1017 C1008 1.429 . S
C1017 N1014 1.350 . S
C1017 C1016 1.434 . S
C1018 C1019 1.369 . S
C1018 C1020 1.419 . S
C1018 H1022 0.930 . S
C1019 C1018 1.369 . S
C1019 C1028 1.429 . S
C1020 C1018 1.419 . S
C1020 C1021 1.363 . S
C1020 H1023 0.929 . S
C1021 C1020 1.363 . S
C1021 C1027 1.428 . S
H1022 C1018 0.930 . S
H1023 C1020 0.929 . S
S1024 N1025 1.613 . S
S1024 N1026 1.610 . S
N1025 S1024 1.613 . S
N1025 C1028 1.350 . S
N1026 S1024 1.610 . S
N1026 C1027 1.351 . S
C1027 C1021 1.428 . S
C1027 N1026 1.351 . S
C1027 C1028 1.434 . S
C1028 C1019 1.429 . S
C1028 N1025 1.350 . S
C1028 C1027 1.434 . S
C1029 C1030 1.369 . S
C1029 C1031 1.419 . S
C1029 H1033 0.930 . S
C1030 C1029 1.369 . S
C1030 C1039 1.429 . S
C1031 C1029 1.419 . S
C1031 C1032 1.363 1_554 S
C1031 H1034 0.929 . S
C1032 C1031 1.363 1_556 S
C1032 C1038 1.428 . S
H1033 C1029 0.930 . S
H1034 C1031 0.929 . S
S1035 N1036 1.613 1_556 S
S1035 N1037 1.610 . S
N1036 S1035 1.613 1_554 S
N1036 C1039 1.350 . S
N1037 S1035 1.610 . S
N1037 C1038 1.351 . S
C1038 C1032 1.428 . S
C1038 N1037 1.351 . S
C1038 C1039 1.434 1_556 S
C1039 C1030 1.429 . S
C1039 N1036 1.350 . S
C1039 C1038 1.434 1_554 S
C1040 C1041 1.369 . S
C1040 C1042 1.419 . S
C1040 H1044 0.930 . S
C1041 C1040 1.369 . S
C1041 C1050 1.429 . S
C1042 C1040 1.419 . S
C1042 C1043 1.363 . S
C1042 H1045 0.929 . S
C1043 C1042 1.363 . S
C1043 C1049 1.428 . S
H1044 C1040 0.930 . S
H1045 C1042 0.929 . S
S1046 N1047 1.613 . S
S1046 N1048 1.610 . S
N1047 S1046 1.613 . S
N1047 C1050 1.350 . S
N1048 S1046 1.610 . S
N1048 C1049 1.351 . S
C1049 C1043 1.428 . S
C1049 N1048 1.351 . S
C1049 C1050 1.434 . S
C1050 C1041 1.429 . S
C1050 N1047 1.350 . S
C1050 C1049 1.434 . S
C1051 C1052 1.369 . S
C1051 C1053 1.419 . S
C1051 H1055 0.930 . S
C1052 C1051 1.369 . S
C1052 C1061 1.429 . S
C1053 C1051 1.419 . S
C1053 C1054 1.363 1_565 S
C1053 H1056 0.929 . S
C1054 C1053 1.363 1_545 S
C1054 C1060 1.428 . S
H1055 C1051 0.930 . S
H1056 C1053 0.929 . S
S1057 N1058 1.613 1_545 S
S1057 N1059 1.610 . S
N1058 S1057 1.613 1_565 S
N1058 C1061 1.350 . S
N1059 S1057 1.610 . S
N1059 C1060 1.351 . S
C1060 C1054 1.428 . S
C1060 N1059 1.351 . S
C1060 C1061 1.434 1_545 S
C1061 C1052 1.429 . S
C1061 N1058 1.350 . S
C1061 C1060 1.434 1_565 S
C1062 C1063 1.369 . S
C1062 C1064 1.419 . S
C1062 H1066 0.930 . S
C1063 C1062 1.369 . S
C1063 C1072 1.429 . S
C1064 C1062 1.419 . S
C1064 C1065 1.363 . S
C1064 H1067 0.929 . S
C1065 C1064 1.363 . S
C1065 C1071 1.428 . S
H1066 C1062 0.930 . S
H1067 C1064 0.929 . S
S1068 N1069 1.613 . S
S1068 N1070 1.610 . S
N1069 S1068 1.613 . S
N1069 C1072 1.350 . S
N1070 S1068 1.610 . S
N1070 C1071 1.351 . S
C1071 C1065 1.428 . S
C1071 N1070 1.351 . S
C1071 C1072 1.434 . S
C1072 C1063 1.429 . S
C1072 N1069 1.350 . S
C1072 C1071 1.434 . S
C1073 C1074 1.369 . S
C1073 C1075 1.419 1_545 S
C1073 H1077 0.930 . S
C1074 C1073 1.369 . S
C1074 C1083 1.429 . S
C1075 C1073 1.419 1_565 S
C1075 C1076 1.363 . S
C1075 H1078 0.929 . S
C1076 C1075 1.363 . S
C1076 C1082 1.428 1_565 S
H1077 C1073 0.930 . S
H1078 C1075 0.929 . S
S1079 N1080 1.613 . S
S1079 N1081 1.610 . S
N1080 S1079 1.613 . S
N1080 C1083 1.350 . S
N1081 S1079 1.610 . S
N1081 C1082 1.351 . S
C1082 C1076 1.428 1_545 S
C1082 N1081 1.351 . S
C1082 C1083 1.434 . S
C1083 C1074 1.429 . S
C1083 N1080 1.350 . S
C1083 C1082 1.434 . S
C1084 C1085 1.369 . S
C1084 C1086 1.419 . S
C1084 H1088 0.930 . S
C1085 C1084 1.369 . S
C1085 C1094 1.429 . S
C1086 C1084 1.419 . S
C1086 C1087 1.363 . S
C1086 H1089 0.929 . S
C1087 C1086 1.363 . S
C1087 C1093 1.428 . S
H1088 C1084 0.930 . S
H1089 C1086 0.929 . S
S1090 N1091 1.613 . S
S1090 N1092 1.610 . S
N1091 S1090 1.613 . S
N1091 C1094 1.350 . S
N1092 S1090 1.610 . S
N1092 C1093 1.351 . S
C1093 C1087 1.428 . S
C1093 N1092 1.351 . S
C1093 C1094 1.434 . S
C1094 C1085 1.429 . S
C1094 N1091 1.350 . S
C1094 C1093 1.434 . S
C1095 C1096 1.369 . S
C1095 C1097 1.419 . S
C1095 H1099 0.930 . S
C1096 C1095 1.369 . S
C1096 C1105 1.429 . S
C1097 C1095 1.419 . S
C1097 C1098 1.363 1_565 S
C1097 H1100 0.929 . S
C1098 C1097 1.363 1_545 S
C1098 C1104 1.428 . S
H1099 C1095 0.930 . S
H1100 C1097 0.929 . S
S1101 N1102 1.613 1_545 S
S1101 N1103 1.610 . S
N1102 S1101 1.613 1_565 S
N1102 C1105 1.350 . S
N1103 S1101 1.610 . S
N1103 C1104 1.351 . S
C1104 C1098 1.428 . S
C1104 N1103 1.351 . S
C1104 C1105 1.434 1_545 S
C1105 C1096 1.429 . S
C1105 N1102 1.350 . S
C1105 C1104 1.434 1_565 S
C1106 C1107 1.369 . S
C1106 C1108 1.419 . S
C1106 H1110 0.930 . S
C1107 C1106 1.369 . S
C1107 C1116 1.429 . S
C1108 C1106 1.419 . S
C1108 C1109 1.363 . S
C1108 H1111 0.929 . S
C1109 C1108 1.363 . S
C1109 C1115 1.428 . S
H1110 C1106 0.930 . S
H1111 C1108 0.929 . S
S1112 N1113 1.613 . S
S1112 N1114 1.610 . S
N1113 S1112 1.613 . S
N1113 C1116 1.350 . S
N1114 S1112 1.610 . S
N1114 C1115 1.351 . S
C1115 C1109 1.428 . S
C1115 N1114 1.351 . S
C1115 C1116 1.434 . S
C1116 C1107 1.429 . S
C1116 N1113 1.350 . S
C1116 C1115 1.434 . S
C1117 C1118 1.369 . S
C1117 C1119 1.419 . S
C1117 H1121 0.930 . S
C1118 C1117 1.369 . S
C1118 C1127 1.429 . S
C1119 C1117 1.419 . S
C1119 C1120 1.363 1_545 S
C1119 H1122 0.929 1_545 S
C1120 C1119 1.363 1_565 S
C1120 C1126 1.428 1_565 S
H1121 C1117 0.930 . S
H1122 C1119 0.929 1_565 S
S1123 N1124 1.613 . S
S1123 N1125 1.610 . S
N1124 S1123 1.613 . S
N1124 C1127 1.350 . S
N1125 S1123 1.610 . S
N1125 C1126 1.351 . S
C1126 C1120 1.428 1_545 S
C1126 N1125 1.351 . S
C1126 C1127 1.434 . S
C1127 C1118 1.429 . S
C1127 N1124 1.350 . S
C1127 C1126 1.434 . S
C1128 C1129 1.369 . S
C1128 C1130 1.419 . S
C1128 H1132 0.930 . S
C1129 C1128 1.369 . S
C1129 C1138 1.429 . S
C1130 C1128 1.419 . S
C1130 C1131 1.363 . S
C1130 H1133 0.929 . S
C1131 C1130 1.363 . S
C1131 C1137 1.428 . S
H1132 C1128 0.930 . S
H1133 C1130 0.929 . S
S1134 N1135 1.613 . S
S1134 N1136 1.610 . S
N1135 S1134 1.613 . S
N1135 C1138 1.350 . S
N1136 S1134 1.610 . S
N1136 C1137 1.351 . S
C1137 C1131 1.428 . S
C1137 N1136 1.351 . S
C1137 C1138 1.434 . S
C1138 C1129 1.429 . S
C1138 N1135 1.350 . S
C1138 C1137 1.434 . S
C1139 C1140 1.369 . S
C1139 C1141 1.419 . S
C1139 H1143 0.930 . S
C1140 C1139 1.369 . S
C1140 C1149 1.429 . S
C1141 C1139 1.419 . S
C1141 C1142 1.363 . S
C1141 H1144 0.929 . S
C1142 C1141 1.363 . S
C1142 C1148 1.428 . S
H1143 C1139 0.930 . S
H1144 C1141 0.929 . S
S1145 N1146 1.613 . S
S1145 N1147 1.610 . S
N1146 S1145 1.613 . S
N1146 C1149 1.350 . S
N1147 S1145 1.610 . S
N1147 C1148 1.351 . S
C1148 C1142 1.428 . S
C1148 N1147 1.351 . S
C1148 C1149 1.434 . S
C1149 C1140 1.429 . S
C1149 N1146 1.350 . S
C1149 C1148 1.434 . S
C1150 C1151 1.369 . S
C1150 C1152 1.419 1_655 S
C1150 H1154 0.930 . S
C1151 C1150 1.369 . S
C1151 C1160 1.429 . S
C1152 C1150 1.419 1_455 S
C1152 C1153 1.363 . S
C1152 H1155 0.929 . S
C1153 C1152 1.363 . S
C1153 C1159 1.428 1_455 S
H1154 C1150 0.930 . S
H1155 C1152 0.929 . S
S1156 N1157 1.613 . S
S1156 N1158 1.610 . S
N1157 S1156 1.613 . S
N1157 C1160 1.350 . S
N1158 S1156 1.610 . S
N1158 C1159 1.351 . S
C1159 C1153 1.428 1_655 S
C1159 N1158 1.351 . S
C1159 C1160 1.434 . S
C1160 C1151 1.429 . S
C1160 N1157 1.350 . S
C1160 C1159 1.434 . S
C1161 C1162 1.369 . S
C1161 C1163 1.419 . S
C1161 H1165 0.930 . S
C1162 C1161 1.369 . S
C1162 C1171 1.429 . S
C1163 C1161 1.419 . S
C1163 C1164 1.363 . S
C1163 H1166 0.929 . S
C1164 C1163 1.363 . S
C1164 C1170 1.428 . S
H1165 C1161 0.930 . S
H1166 C1163 0.929 . S
S1167 N1168 1.613 . S
S1167 N1169 1.610 . S
N1168 S1167 1.613 . S
N1168 C1171 1.350 . S
N1169 S1167 1.610 . S
N1169 C1170 1.351 . S
C1170 C1164 1.428 . S
C1170 N1169 1.351 . S
C1170 C1171 1.434 . S
C1171 C1162 1.429 . S
C1171 N1168 1.350 . S
C1171 C1170 1.434 . S
C1172 C1173 1.369 . S
C1172 C1174 1.419 . S
C1172 H1176 0.930 . S
C1173 C1172 1.369 . S
C1173 C1182 1.429 . S
C1174 C1172 1.419 . S
C1174 C1175 1.363 1_455 S
C1174 H1177 0.929 . S
C1175 C1174 1.363 1_655 S
C1175 C1181 1.428 . S
H1176 C1172 0.930 . S
H1177 C1174 0.929 . S
S1178 N1179 1.613 1_655 S
S1178 N1180 1.610 . S
N1179 S1178 1.613 1_455 S
N1179 C1182 1.350 . S
N1180 S1178 1.610 . S
N1180 C1181 1.351 . S
C1181 C1175 1.428 . S
C1181 N1180 1.351 . S
C1181 C1182 1.434 1_655 S
C1182 C1173 1.429 . S
C1182 N1179 1.350 . S
C1182 C1181 1.434 1_455 S
C1183 C1184 1.369 . S
C1183 C1185 1.419 . S
C1183 H1187 0.930 . S
C1184 C1183 1.369 . S
C1184 C1193 1.429 . S
C1185 C1183 1.419 . S
C1185 C1186 1.363 . S
C1185 H1188 0.929 . S
C1186 C1185 1.363 . S
C1186 C1192 1.428 . S
H1187 C1183 0.930 . S
H1188 C1185 0.929 . S
S1189 N1190 1.613 . S
S1189 N1191 1.610 . S
N1190 S1189 1.613 . S
N1190 C1193 1.350 . S
N1191 S1189 1.610 . S
N1191 C1192 1.351 . S
C1192 C1186 1.428 . S
C1192 N1191 1.351 . S
C1192 C1193 1.434 . S
C1193 C1184 1.429 . S
C1193 N1190 1.350 . S
C1193 C1192 1.434 . S
C1194 C1195 1.369 . S
C1194 C1196 1.419 1_655 S
C1194 H1198 0.930 . S
C1195 C1194 1.369 . S
C1195 C1204 1.429 . S
C1196 C1194 1.419 1_455 S
C1196 C1197 1.363 . S
C1196 H1199 0.929 . S
C1197 C1196 1.363 . S
C1197 C1203 1.428 1_455 S
H1198 C1194 0.930 . S
H1199 C1196 0.929 . S
S1200 N1201 1.613 . S
S1200 N1202 1.610 . S
N1201 S1200 1.613 . S
N1201 C1204 1.350 . S
N1202 S1200 1.610 . S
N1202 C1203 1.351 . S
C1203 C1197 1.428 1_655 S
C1203 N1202 1.351 . S
C1203 C1204 1.434 . S
C1204 C1195 1.429 . S
C1204 N1201 1.350 . S
C1204 C1203 1.434 . S
C1205 C1206 1.369 . S
C1205 C1207 1.419 . S
C1205 H1209 0.930 . S
C1206 C1205 1.369 . S
C1206 C1215 1.429 . S
C1207 C1205 1.419 . S
C1207 C1208 1.363 . S
C1207 H1210 0.929 . S
C1208 C1207 1.363 . S
C1208 C1214 1.428 . S
H1209 C1205 0.930 . S
H1210 C1207 0.929 . S
S1211 N1212 1.613 . S
S1211 N1213 1.610 . S
N1212 S1211 1.613 . S
N1212 C1215 1.350 . S
N1213 S1211 1.610 . S
N1213 C1214 1.351 . S
C1214 C1208 1.428 . S
C1214 N1213 1.351 . S
C1214 C1215 1.434 . S
C1215 C1206 1.429 . S
C1215 N1212 1.350 . S
C1215 C1214 1.434 . S
C1216 C1217 1.369 . S
C1216 C1218 1.419 . S
C1216 H1220 0.930 . S
C1217 C1216 1.369 . S
C1217 C1226 1.429 . S
C1218 C1216 1.419 . S
C1218 C1219 1.363 . S
C1218 H1221 0.929 . S
C1219 C1218 1.363 . S
C1219 C1225 1.428 . S
H1220 C1216 0.930 . S
H1221 C1218 0.929 . S
S1222 N1223 1.613 . S
S1222 N1224 1.610 . S
N1223 S1222 1.613 . S
N1223 C1226 1.350 . S
N1224 S1222 1.610 . S
N1224 C1225 1.351 . S
C1225 C1219 1.428 . S
C1225 N1224 1.351 . S
C1225 C1226 1.434 . S
C1226 C1217 1.429 . S
C1226 N1223 1.350 . S
C1226 C1225 1.434 . S
C1227 C1228 1.369 . S
C1227 C1229 1.419 . S
C1227 H1231 0.930 . S
C1228 C1227 1.369 . S
C1228 C1237 1.429 . S
C1229 C1227 1.419 . S
C1229 C1230 1.363 1_554 S
C1229 H1232 0.929 . S
C1230 C1229 1.363 1_556 S
C1230 C1236 1.428 . S
H1231 C1227 0.930 . S
H1232 C1229 0.929 . S
S1233 N1234 1.613 1_556 S
S1233 N1235 1.610 . S
N1234 S1233 1.613 1_554 S
N1234 C1237 1.350 . S
N1235 S1233 1.610 . S
N1235 C1236 1.351 . S
C1236 C1230 1.428 . S
C1236 N1235 1.351 . S
C1236 C1237 1.434 1_556 S
C1237 C1228 1.429 . S
C1237 N1234 1.350 . S
C1237 C1236 1.434 1_554 S
C1238 C1239 1.369 . S
C1238 C1240 1.419 . S
C1238 H1242 0.930 . S
C1239 C1238 1.369 . S
C1239 C1248 1.429 . S
C1240 C1238 1.419 . S
C1240 C1241 1.363 . S
C1240 H1243 0.929 . S
C1241 C1240 1.363 . S
C1241 C1247 1.428 . S
H1242 C1238 0.930 . S
H1243 C1240 0.929 . S
S1244 N1245 1.613 . S
S1244 N1246 1.610 . S
N1245 S1244 1.613 . S
N1245 C1248 1.350 . S
N1246 S1244 1.610 . S
N1246 C1247 1.351 . S
C1247 C1241 1.428 . S
C1247 N1246 1.351 . S
C1247 C1248 1.434 . S
C1248 C1239 1.429 . S
C1248 N1245 1.350 . S
C1248 C1247 1.434 . S
C1249 C1250 1.369 . S
C1249 C1251 1.419 . S
C1249 H1253 0.930 . S
C1250 C1249 1.369 . S
C1250 C1259 1.429 . S
C1251 C1249 1.419 . S
C1251 C1252 1.363 . S
C1251 H1254 0.929 . S
C1252 C1251 1.363 . S
C1252 C1258 1.428 . S
H1253 C1249 0.930 . S
H1254 C1251 0.929 . S
S1255 N1256 1.613 . S
S1255 N1257 1.610 . S
N1256 S1255 1.613 . S
N1256 C1259 1.350 . S
N1257 S1255 1.610 . S
N1257 C1258 1.351 . S
C1258 C1252 1.428 . S
C1258 N1257 1.351 . S
C1258 C1259 1.434 . S
C1259 C1250 1.429 . S
C1259 N1256 1.350 . S
C1259 C1258 1.434 . S
C1260 C1261 1.369 . S
C1260 C1262 1.419 . S
C1260 H1264 0.930 . S
C1261 C1260 1.369 . S
C1261 C1270 1.429 . S
C1262 C1260 1.419 . S
C1262 C1263 1.363 . S
C1262 H1265 0.929 . S
C1263 C1262 1.363 . S
C1263 C1269 1.428 . S
H1264 C1260 0.930 . S
H1265 C1262 0.929 . S
S1266 N1267 1.613 . S
S1266 N1268 1.610 . S
N1267 S1266 1.613 . S
N1267 C1270 1.350 . S
N1268 S1266 1.610 . S
N1268 C1269 1.351 . S
C1269 C1263 1.428 . S
C1269 N1268 1.351 . S
C1269 C1270 1.434 . S
C1270 C1261 1.429 . S
C1270 N1267 1.350 . S
C1270 C1269 1.434 . S
C1271 C1272 1.369 . S
C1271 C1273 1.419 . S
C1271 H1275 0.930 . S
C1272 C1271 1.369 . S
C1272 C1281 1.429 . S
C1273 C1271 1.419 . S
C1273 C1274 1.363 1_556 S
C1273 H1276 0.929 . S
C1274 C1273 1.363 1_554 S
C1274 C1280 1.428 . S
H1275 C1271 0.930 . S
H1276 C1273 0.929 . S
S1277 N1278 1.613 1_454 S
S1277 N1279 1.610 1_455 S
N1278 S1277 1.613 1_656 S
N1278 C1281 1.350 . S
N1279 S1277 1.610 1_655 S
N1279 C1280 1.351 . S
C1280 C1274 1.428 . S
C1280 N1279 1.351 . S
C1280 C1281 1.434 1_554 S
C1281 C1272 1.429 . S
C1281 N1278 1.350 . S
C1281 C1280 1.434 1_556 S
C1282 C1283 1.369 . S
C1282 C1284 1.419 . S
C1282 H1286 0.930 . S
C1283 C1282 1.369 . S
C1283 C1292 1.429 . S
C1284 C1282 1.419 . S
C1284 C1285 1.363 . S
C1284 H1287 0.929 . S
C1285 C1284 1.363 . S
C1285 C1291 1.428 . S
H1286 C1282 0.930 . S
H1287 C1284 0.929 . S
S1288 N1289 1.613 . S
S1288 N1290 1.610 . S
N1289 S1288 1.613 . S
N1289 C1292 1.350 . S
N1290 S1288 1.610 . S
N1290 C1291 1.351 . S
C1291 C1285 1.428 . S
C1291 N1290 1.351 . S
C1291 C1292 1.434 . S
C1292 C1283 1.429 . S
C1292 N1289 1.350 . S
C1292 C1291 1.434 . S
C1293 C1294 1.369 . S
C1293 C1295 1.419 . S
C1293 H1297 0.930 . S
C1294 C1293 1.369 . S
C1294 C1303 1.429 . S
C1295 C1293 1.419 . S
C1295 C1296 1.363 . S
C1295 H1298 0.929 . S
C1296 C1295 1.363 . S
C1296 C1302 1.428 . S
H1297 C1293 0.930 . S
H1298 C1295 0.929 . S
S1299 N1300 1.613 . S
S1299 N1301 1.610 . S
N1300 S1299 1.613 . S
N1300 C1303 1.350 . S
N1301 S1299 1.610 . S
N1301 C1302 1.351 . S
C1302 C1296 1.428 . S
C1302 N1301 1.351 . S
C1302 C1303 1.434 . S
C1303 C1294 1.429 . S
C1303 N1300 1.350 . S
C1303 C1302 1.434 . S
C1304 C1305 1.369 . S
C1304 C1306 1.419 . S
C1304 H1308 0.930 . S
C1305 C1304 1.369 . S
C1305 C1314 1.429 . S
C1306 C1304 1.419 . S
C1306 C1307 1.363 . S
C1306 H1309 0.929 . S
C1307 C1306 1.363 . S
C1307 C1313 1.428 . S
H1308 C1304 0.930 . S
H1309 C1306 0.929 . S
S1310 N1311 1.613 . S
S1310 N1312 1.610 . S
N1311 S1310 1.613 . S
N1311 C1314 1.350 . S
N1312 S1310 1.610 . S
N1312 C1313 1.351 . S
C1313 C1307 1.428 . S
C1313 N1312 1.351 . S
C1313 C1314 1.434 . S
C1314 C1305 1.429 . S
C1314 N1311 1.350 . S
C1314 C1313 1.434 . S
C1315 C1316 1.369 . S
C1315 C1317 1.419 . S
C1315 H1319 0.930 . S
C1316 C1315 1.369 . S
C1316 C1325 1.429 . S
C1317 C1315 1.419 . S
C1317 C1318 1.363 . S
C1317 H1320 0.929 . S
C1318 C1317 1.363 . S
C1318 C1324 1.428 . S
H1319 C1315 0.930 . S
H1320 C1317 0.929 . S
S1321 N1322 1.613 1_554 S
S1321 N1323 1.610 1_554 S
N1322 S1321 1.613 1_556 S
N1322 C1325 1.350 . S
N1323 S1321 1.610 1_556 S
N1323 C1324 1.351 . S
C1324 C1318 1.428 . S
C1324 N1323 1.351 . S
C1324 C1325 1.434 . S
C1325 C1316 1.429 . S
C1325 N1322 1.350 . S
C1325 C1324 1.434 . S
C1326 C1327 1.369 . S
C1326 C1328 1.419 . S
C1326 H1330 0.930 . S
C1327 C1326 1.369 . S
C1327 C1336 1.429 . S
C1328 C1326 1.419 . S
C1328 C1329 1.363 . S
C1328 H1331 0.929 . S
C1329 C1328 1.363 . S
C1329 C1335 1.428 . S
H1330 C1326 0.930 . S
H1331 C1328 0.929 . S
S1332 N1333 1.613 . S
S1332 N1334 1.610 . S
N1333 S1332 1.613 . S
N1333 C1336 1.350 . S
N1334 S1332 1.610 . S
N1334 C1335 1.351 . S
C1335 C1329 1.428 . S
C1335 N1334 1.351 . S
C1335 C1336 1.434 . S
C1336 C1327 1.429 . S
C1336 N1333 1.350 . S
C1336 C1335 1.434 . S
C1337 C1338 1.369 . S
C1337 C1339 1.419 . S
C1337 H1341 0.930 . S
C1338 C1337 1.369 . S
C1338 C1347 1.429 . S
C1339 C1337 1.419 . S
C1339 C1340 1.363 . S
C1339 H1342 0.929 . S
C1340 C1339 1.363 . S
C1340 C1346 1.428 . S
H1341 C1337 0.930 . S
H1342 C1339 0.929 . S
S1343 N1344 1.613 . S
S1343 N1345 1.610 . S
N1344 S1343 1.613 . S
N1344 C1347 1.350 . S
N1345 S1343 1.610 . S
N1345 C1346 1.351 . S
C1346 C1340 1.428 . S
C1346 N1345 1.351 . S
C1346 C1347 1.434 . S
C1347 C1338 1.429 . S
C1347 N1344 1.350 . S
C1347 C1346 1.434 . S
C1348 C1349 1.369 . S
C1348 C1350 1.419 . S
C1348 H1352 0.930 . S
C1349 C1348 1.369 . S
C1349 C1358 1.429 . S
C1350 C1348 1.419 . S
C1350 C1351 1.363 . S
C1350 H1353 0.929 . S
C1351 C1350 1.363 . S
C1351 C1357 1.428 . S
H1352 C1348 0.930 . S
H1353 C1350 0.929 . S
S1354 N1355 1.613 . S
S1354 N1356 1.610 . S
N1355 S1354 1.613 . S
N1355 C1358 1.350 . S
N1356 S1354 1.610 . S
N1356 C1357 1.351 . S
C1357 C1351 1.428 . S
C1357 N1356 1.351 . S
C1357 C1358 1.434 . S
C1358 C1349 1.429 . S
C1358 N1355 1.350 . S
C1358 C1357 1.434 . S
C1359 C1360 1.369 . S
C1359 C1361 1.419 . S
C1359 H1363 0.930 . S
C1360 C1359 1.369 . S
C1360 C1369 1.429 . S
C1361 C1359 1.419 . S
C1361 C1362 1.363 . S
C1361 H1364 0.929 . S
C1362 C1361 1.363 . S
C1362 C1368 1.428 . S
H1363 C1359 0.930 . S
H1364 C1361 0.929 . S
S1365 N1366 1.613 . S
S1365 N1367 1.610 . S
N1366 S1365 1.613 . S
N1366 C1369 1.350 . S
N1367 S1365 1.610 . S
N1367 C1368 1.351 . S
C1368 C1362 1.428 . S
C1368 N1367 1.351 . S
C1368 C1369 1.434 . S
C1369 C1360 1.429 . S
C1369 N1366 1.350 . S
C1369 C1368 1.434 . S
C1370 C1371 1.369 . S
C1370 C1372 1.419 . S
C1370 H1374 0.930 . S
C1371 C1370 1.369 . S
C1371 C1380 1.429 . S
C1372 C1370 1.419 . S
C1372 C1373 1.363 . S
C1372 H1375 0.929 . S
C1373 C1372 1.363 . S
C1373 C1379 1.428 . S
H1374 C1370 0.930 . S
H1375 C1372 0.929 . S
S1376 N1377 1.613 . S
S1376 N1378 1.610 . S
N1377 S1376 1.613 . S
N1377 C1380 1.350 . S
N1378 S1376 1.610 . S
N1378 C1379 1.351 . S
C1379 C1373 1.428 . S
C1379 N1378 1.351 . S
C1379 C1380 1.434 . S
C1380 C1371 1.429 . S
C1380 N1377 1.350 . S
C1380 C1379 1.434 . S
C1381 C1382 1.369 . S
C1381 C1383 1.419 . S
C1381 H1385 0.930 . S
C1382 C1381 1.369 . S
C1382 C1391 1.429 . S
C1383 C1381 1.419 . S
C1383 C1384 1.363 . S
C1383 H1386 0.929 . S
C1384 C1383 1.363 . S
C1384 C1390 1.428 . S
H1385 C1381 0.930 . S
H1386 C1383 0.929 . S
S1387 N1388 1.613 . S
S1387 N1389 1.610 . S
N1388 S1387 1.613 . S
N1388 C1391 1.350 . S
N1389 S1387 1.610 . S
N1389 C1390 1.351 . S
C1390 C1384 1.428 . S
C1390 N1389 1.351 . S
C1390 C1391 1.434 . S
C1391 C1382 1.429 . S
C1391 N1388 1.350 . S
C1391 C1390 1.434 . S
C1392 C1393 1.369 . S
C1392 C1394 1.419 . S
C1392 H1396 0.930 . S
C1393 C1392 1.369 . S
C1393 C1402 1.429 . S
C1394 C1392 1.419 . S
C1394 C1395 1.363 . S
C1394 H1397 0.929 . S
C1395 C1394 1.363 . S
C1395 C1401 1.428 . S
H1396 C1392 0.930 . S
H1397 C1394 0.929 . S
S1398 N1399 1.613 . S
S1398 N1400 1.610 . S
N1399 S1398 1.613 . S
N1399 C1402 1.350 . S
N1400 S1398 1.610 . S
N1400 C1401 1.351 . S
C1401 C1395 1.428 . S
C1401 N1400 1.351 . S
C1401 C1402 1.434 . S
C1402 C1393 1.429 . S
C1402 N1399 1.350 . S
C1402 C1401 1.434 . S
C1403 C1404 1.369 . S
C1403 C1405 1.419 . S
C1403 H1407 0.930 . S
C1404 C1403 1.369 . S
C1404 C1413 1.429 . S
C1405 C1403 1.419 . S
C1405 C1406 1.363 . S
C1405 H1408 0.929 . S
C1406 C1405 1.363 . S
C1406 C1412 1.428 . S
H1407 C1403 0.930 . S
H1408 C1405 0.929 . S
S1409 N1410 1.613 . S
S1409 N1411 1.610 . S
N1410 S1409 1.613 . S
N1410 C1413 1.350 . S
N1411 S1409 1.610 . S
N1411 C1412 1.351 . S
C1412 C1406 1.428 . S
C1412 N1411 1.351 . S
C1412 C1413 1.434 . S
C1413 C1404 1.429 . S
C1413 N1410 1.350 . S
C1413 C1412 1.434 . S
C1414 C1415 1.369 . S
C1414 C1416 1.419 . S
C1414 H1418 0.930 . S
C1415 C1414 1.369 . S
C1415 C1424 1.429 . S
C1416 C1414 1.419 . S
C1416 C1417 1.363 . S
C1416 H1419 0.929 . S
C1417 C1416 1.363 . S
C1417 C1423 1.428 . S
H1418 C1414 0.930 . S
H1419 C1416 0.929 . S
S1420 N1421 1.613 . S
S1420 N1422 1.610 . S
N1421 S1420 1.613 . S
N1421 C1424 1.350 . S
N1422 S1420 1.610 . S
N1422 C1423 1.351 . S
C1423 C1417 1.428 . S
C1423 N1422 1.351 . S
C1423 C1424 1.434 . S
C1424 C1415 1.429 . S
C1424 N1421 1.350 . S
C1424 C1423 1.434 . S
C1425 C1426 1.369 . S
C1425 C1427 1.419 . S
C1425 H1429 0.930 . S
C1426 C1425 1.369 . S
C1426 C1435 1.429 . S
C1427 C1425 1.419 . S
C1427 C1428 1.363 . S
C1427 H1430 0.929 . S
C1428 C1427 1.363 . S
C1428 C1434 1.428 . S
H1429 C1425 0.930 . S
H1430 C1427 0.929 . S
S1431 N1432 1.613 . S
S1431 N1433 1.610 . S
N1432 S1431 1.613 . S
N1432 C1435 1.350 . S
N1433 S1431 1.610 . S
N1433 C1434 1.351 . S
C1434 C1428 1.428 . S
C1434 N1433 1.351 . S
C1434 C1435 1.434 . S
C1435 C1426 1.429 . S
C1435 N1432 1.350 . S
C1435 C1434 1.434 . S
C1436 C1437 1.369 . S
C1436 C1438 1.419 . S
C1436 H1440 0.930 . S
C1437 C1436 1.369 . S
C1437 C1446 1.429 . S
C1438 C1436 1.419 . S
C1438 C1439 1.363 . S
C1438 H1441 0.929 . S
C1439 C1438 1.363 . S
C1439 C1445 1.428 . S
H1440 C1436 0.930 . S
H1441 C1438 0.929 . S
S1442 N1443 1.613 . S
S1442 N1444 1.610 . S
N1443 S1442 1.613 . S
N1443 C1446 1.350 . S
N1444 S1442 1.610 . S
N1444 C1445 1.351 . S
C1445 C1439 1.428 . S
C1445 N1444 1.351 . S
C1445 C1446 1.434 . S
C1446 C1437 1.429 . S
C1446 N1443 1.350 . S
C1446 C1445 1.434 . S
C1447 C1448 1.369 . S
C1447 C1449 1.419 . S
C1447 H1451 0.930 . S
C1448 C1447 1.369 . S
C1448 C1457 1.429 . S
C1449 C1447 1.419 . S
C1449 C1450 1.363 . S
C1449 H1452 0.929 . S
C1450 C1449 1.363 . S
C1450 C1456 1.428 . S
H1451 C1447 0.930 . S
H1452 C1449 0.929 . S
S1453 N1454 1.613 . S
S1453 N1455 1.610 . S
N1454 S1453 1.613 . S
N1454 C1457 1.350 . S
N1455 S1453 1.610 . S
N1455 C1456 1.351 . S
C1456 C1450 1.428 . S
C1456 N1455 1.351 . S
C1456 C1457 1.434 . S
C1457 C1448 1.429 . S
C1457 N1454 1.350 . S
C1457 C1456 1.434 . S
C1458 C1459 1.369 . S
C1458 C1460 1.419 . S
C1458 H1462 0.930 . S
C1459 C1458 1.369 . S
C1459 C1468 1.429 . S
C1460 C1458 1.419 . S
C1460 C1461 1.363 . S
C1460 H1463 0.929 . S
C1461 C1460 1.363 . S
C1461 C1467 1.428 . S
H1462 C1458 0.930 . S
H1463 C1460 0.929 . S
S1464 N1465 1.613 1_565 S
S1464 N1466 1.610 1_565 S
N1465 S1464 1.613 1_545 S
N1465 C1468 1.350 . S
N1466 S1464 1.610 1_545 S
N1466 C1467 1.351 . S
C1467 C1461 1.428 . S
C1467 N1466 1.351 . S
C1467 C1468 1.434 . S
C1468 C1459 1.429 . S
C1468 N1465 1.350 . S
C1468 C1467 1.434 . S
C1469 C1470 1.369 . S
C1469 C1471 1.419 . S
C1469 H1473 0.930 . S
C1470 C1469 1.369 . S
C1470 C1479 1.429 . S
C1471 C1469 1.419 . S
C1471 C1472 1.363 1_655 S
C1471 H1474 0.929 . S
C1472 C1471 1.363 1_455 S
C1472 C1478 1.428 . S
H1473 C1469 0.930 . S
H1474 C1471 0.929 . S
S1475 N1476 1.613 1_455 S
S1475 N1477 1.610 . S
N1476 S1475 1.613 1_655 S
N1476 C1479 1.350 . S
N1477 S1475 1.610 . S
N1477 C1478 1.351 . S
C1478 C1472 1.428 . S
C1478 N1477 1.351 . S
C1478 C1479 1.434 1_455 S
C1479 C1470 1.429 . S
C1479 N1476 1.350 . S
C1479 C1478 1.434 1_655 S
C1480 C1481 1.369 . S
C1480 C1482 1.419 . S
C1480 H1484 0.930 . S
C1481 C1480 1.369 . S
C1481 C1490 1.429 . S
C1482 C1480 1.419 . S
C1482 C1483 1.363 . S
C1482 H1485 0.929 . S
C1483 C1482 1.363 . S
C1483 C1489 1.428 . S
H1484 C1480 0.930 . S
H1485 C1482 0.929 . S
S1486 N1487 1.613 . S
S1486 N1488 1.610 . S
N1487 S1486 1.613 . S
N1487 C1490 1.350 . S
N1488 S1486 1.610 . S
N1488 C1489 1.351 . S
C1489 C1483 1.428 . S
C1489 N1488 1.351 . S
C1489 C1490 1.434 . S
C1490 C1481 1.429 . S
C1490 N1487 1.350 . S
C1490 C1489 1.434 . S
C1491 C1492 1.369 . S
C1491 C1493 1.419 . S
C1491 H1495 0.930 . S
C1492 C1491 1.369 . S
C1492 C1501 1.429 . S
C1493 C1491 1.419 . S
C1493 C1494 1.363 1_556 S
C1493 H1496 0.929 . S
C1494 C1493 1.363 1_554 S
C1494 C1500 1.428 . S
H1495 C1491 0.930 . S
H1496 C1493 0.929 . S
S1497 N1498 1.613 1_554 S
S1497 N1499 1.610 . S
N1498 S1497 1.613 1_556 S
N1498 C1501 1.350 . S
N1499 S1497 1.610 . S
N1499 C1500 1.351 . S
C1500 C1494 1.428 . S
C1500 N1499 1.351 . S
C1500 C1501 1.434 1_554 S
C1501 C1492 1.429 . S
C1501 N1498 1.350 . S
C1501 C1500 1.434 1_556 S
C1502 C1503 1.369 . S
C1502 C1504 1.419 . S
C1502 H1506 0.930 . S
C1503 C1502 1.369 . S
C1503 C1512 1.429 . S
C1504 C1502 1.419 . S
C1504 C1505 1.363 . S
C1504 H1507 0.929 . S
C1505 C1504 1.363 . S
C1505 C1511 1.428 . S
H1506 C1502 0.930 . S
H1507 C1504 0.929 . S
S1508 N1509 1.613 . S
S1508 N1510 1.610 . S
N1509 S1508 1.613 . S
N1509 C1512 1.350 . S
N1510 S1508 1.610 . S
N1510 C1511 1.351 . S
C1511 C1505 1.428 . S
C1511 N1510 1.351 . S
C1511 C1512 1.434 . S
C1512 C1503 1.429 . S
C1512 N1509 1.350 . S
C1512 C1511 1.434 . S
C1513 C1514 1.369 . S
C1513 C1515 1.419 . S
C1513 H1517 0.930 . S
C1514 C1513 1.369 . S
C1514 C1523 1.429 . S
C1515 C1513 1.419 . S
C1515 C1516 1.363 . S
C1515 H1518 0.929 . S
C1516 C1515 1.363 . S
C1516 C1522 1.428 . S
H1517 C1513 0.930 . S
H1518 C1515 0.929 . S
S1519 N1520 1.613 . S
S1519 N1521 1.610 . S
N1520 S1519 1.613 . S
N1520 C1523 1.350 . S
N1521 S1519 1.610 . S
N1521 C1522 1.351 . S
C1522 C1516 1.428 . S
C1522 N1521 1.351 . S
C1522 C1523 1.434 . S
C1523 C1514 1.429 . S
C1523 N1520 1.350 . S
C1523 C1522 1.434 . S
C1524 C1525 1.369 . S
C1524 C1526 1.419 . S
C1524 H1528 0.930 . S
C1525 C1524 1.369 . S
C1525 C1534 1.429 . S
C1526 C1524 1.419 . S
C1526 C1527 1.363 . S
C1526 H1529 0.929 . S
C1527 C1526 1.363 . S
C1527 C1533 1.428 . S
H1528 C1524 0.930 . S
H1529 C1526 0.929 . S
S1530 N1531 1.613 . S
S1530 N1532 1.610 . S
N1531 S1530 1.613 . S
N1531 C1534 1.350 . S
N1532 S1530 1.610 . S
N1532 C1533 1.351 . S
C1533 C1527 1.428 . S
C1533 N1532 1.351 . S
C1533 C1534 1.434 . S
C1534 C1525 1.429 . S
C1534 N1531 1.350 . S
C1534 C1533 1.434 . S
C1535 C1536 1.369 . S
C1535 C1537 1.419 . S
C1535 H1539 0.930 . S
C1536 C1535 1.369 . S
C1536 C1545 1.429 . S
C1537 C1535 1.419 . S
C1537 C1538 1.363 1_554 S
C1537 H1540 0.929 . S
C1538 C1537 1.363 1_556 S
C1538 C1544 1.428 . S
H1539 C1535 0.930 . S
H1540 C1537 0.929 . S
S1541 N1542 1.615 1_556 S
S1541 N1543 1.610 1_655 S
N1542 S1541 1.615 1_554 S
N1542 C1545 1.342 1_655 S
N1543 S1541 1.610 1_455 S
N1543 C1544 1.351 . S
C1544 C1538 1.428 . S
C1544 N1543 1.351 . S
C1544 C1545 1.434 1_556 S
C1545 C1536 1.429 . S
C1545 N1542 1.342 1_455 S
C1545 C1544 1.434 1_554 S
C1546 C1547 1.369 . S
C1546 C1548 1.419 . S
C1546 H1550 0.930 . S
C1547 C1546 1.369 . S
C1547 C1556 1.429 . S
C1548 C1546 1.419 . S
C1548 C1549 1.363 . S
C1548 H1551 0.929 . S
C1549 C1548 1.363 . S
C1549 C1555 1.428 . S
H1550 C1546 0.930 . S
H1551 C1548 0.929 . S
S1552 N1553 1.613 . S
S1552 N1554 1.610 . S
N1553 S1552 1.613 . S
N1553 C1556 1.350 . S
N1554 S1552 1.610 . S
N1554 C1555 1.351 . S
C1555 C1549 1.428 . S
C1555 N1554 1.351 . S
C1555 C1556 1.434 . S
C1556 C1547 1.429 . S
C1556 N1553 1.350 . S
C1556 C1555 1.434 . S
C1557 C1558 1.369 . S
C1557 C1559 1.419 . S
C1557 H1561 0.930 . S
C1558 C1557 1.369 . S
C1558 C1567 1.429 . S
C1559 C1557 1.419 . S
C1559 C1560 1.363 . S
C1559 H1562 0.929 . S
C1560 C1559 1.363 . S
C1560 C1566 1.428 . S
H1561 C1557 0.930 . S
H1562 C1559 0.929 . S
S1563 N1564 1.613 . S
S1563 N1565 1.610 . S
N1564 S1563 1.613 . S
N1564 C1567 1.350 . S
N1565 S1563 1.610 . S
N1565 C1566 1.351 . S
C1566 C1560 1.428 . S
C1566 N1565 1.351 . S
C1566 C1567 1.434 . S
C1567 C1558 1.429 . S
C1567 N1564 1.350 . S
C1567 C1566 1.434 . S
C1568 C1569 1.369 . S
C1568 C1570 1.419 . S
C1568 H1572 0.930 . S
C1569 C1568 1.369 . S
C1569 C1578 1.429 . S
C1570 C1568 1.419 . S
C1570 C1571 1.363 . S
C1570 H1573 0.929 . S
C1571 C1570 1.363 . S
C1571 C1577 1.428 . S
H1572 C1568 0.930 . S
H1573 C1570 0.929 . S
S1574 N1575 1.613 . S
S1574 N1576 1.610 . S
N1575 S1574 1.613 . S
N1575 C1578 1.350 . S
N1576 S1574 1.610 . S
N1576 C1577 1.351 . S
C1577 C1571 1.428 . S
C1577 N1576 1.351 . S
C1577 C1578 1.434 . S
C1578 C1569 1.429 . S
C1578 N1575 1.350 . S
C1578 C1577 1.434 . S
C1579 C1580 1.369 . S
C1579 C1581 1.419 . S
C1579 H1583 0.930 . S
C1580 C1579 1.369 . S
C1580 C1589 1.429 . S
C1581 C1579 1.419 . S
C1581 C1582 1.363 . S
C1581 H1584 0.929 . S
C1582 C1581 1.363 . S
C1582 C1588 1.428 . S
H1583 C1579 0.930 . S
H1584 C1581 0.929 . S
S1585 N1586 1.613 . S
S1585 N1587 1.610 1_556 S
N1586 S1585 1.613 . S
N1586 C1589 1.350 1_556 S
N1587 S1585 1.610 1_554 S
N1587 C1588 1.351 . S
C1588 C1582 1.428 . S
C1588 N1587 1.351 . S
C1588 C1589 1.434 . S
C1589 C1580 1.429 . S
C1589 N1586 1.350 1_554 S
C1589 C1588 1.434 . S
C1590 C1591 1.369 . S
C1590 C1592 1.419 . S
C1590 H1594 0.930 . S
C1591 C1590 1.369 . S
C1591 C1600 1.429 . S
C1592 C1590 1.419 . S
C1592 C1593 1.363 . S
C1592 H1595 0.929 . S
C1593 C1592 1.363 . S
C1593 C1599 1.428 . S
H1594 C1590 0.930 . S
H1595 C1592 0.929 . S
S1596 N1597 1.613 . S
S1596 N1598 1.610 . S
N1597 S1596 1.613 . S
N1597 C1600 1.350 . S
N1598 S1596 1.610 . S
N1598 C1599 1.351 . S
C1599 C1593 1.428 . S
C1599 N1598 1.351 . S
C1599 C1600 1.434 . S
C1600 C1591 1.429 . S
C1600 N1597 1.350 . S
C1600 C1599 1.434 . S
C1601 C1602 1.369 . S
C1601 C1603 1.419 . S
C1601 H1605 0.930 . S
C1602 C1601 1.369 . S
C1602 C1611 1.429 . S
C1603 C1601 1.419 . S
C1603 C1604 1.363 . S
C1603 H1606 0.929 . S
C1604 C1603 1.363 . S
C1604 C1610 1.428 . S
H1605 C1601 0.930 . S
H1606 C1603 0.929 . S
S1607 N1608 1.613 . S
S1607 N1609 1.610 . S
N1608 S1607 1.613 . S
N1608 C1611 1.350 . S
N1609 S1607 1.610 . S
N1609 C1610 1.351 . S
C1610 C1604 1.428 . S
C1610 N1609 1.351 . S
C1610 C1611 1.434 . S
C1611 C1602 1.429 . S
C1611 N1608 1.350 . S
C1611 C1610 1.434 . S
C1612 C1613 1.369 . S
C1612 C1614 1.419 . S
C1612 H1616 0.930 . S
C1613 C1612 1.369 . S
C1613 C1622 1.429 . S
C1614 C1612 1.419 . S
C1614 C1615 1.363 . S
C1614 H1617 0.929 . S
C1615 C1614 1.363 . S
C1615 C1621 1.428 . S
H1616 C1612 0.930 . S
H1617 C1614 0.929 . S
S1618 N1619 1.613 . S
S1618 N1620 1.610 . S
N1619 S1618 1.613 . S
N1619 C1622 1.350 . S
N1620 S1618 1.610 . S
N1620 C1621 1.351 . S
C1621 C1615 1.428 . S
C1621 N1620 1.351 . S
C1621 C1622 1.434 . S
C1622 C1613 1.429 . S
C1622 N1619 1.350 . S
C1622 C1621 1.434 . S
C1623 C1624 1.369 . S
C1623 C1625 1.419 . S
C1623 H1627 0.930 . S
C1624 C1623 1.369 . S
C1624 C1633 1.429 . S
C1625 C1623 1.419 . S
C1625 C1626 1.363 . S
C1625 H1628 0.929 . S
C1626 C1625 1.363 . S
C1626 C1632 1.428 . S
H1627 C1623 0.930 . S
H1628 C1625 0.929 . S
S1629 N1630 1.613 . S
S1629 N1631 1.610 1_554 S
N1630 S1629 1.613 . S
N1630 C1633 1.350 1_554 S
N1631 S1629 1.610 1_556 S
N1631 C1632 1.351 . S
C1632 C1626 1.428 . S
C1632 N1631 1.351 . S
C1632 C1633 1.434 . S
C1633 C1624 1.429 . S
C1633 N1630 1.350 1_556 S
C1633 C1632 1.434 . S
C1634 C1635 1.369 . S
C1634 C1636 1.419 . S
C1634 H1638 0.930 . S
C1635 C1634 1.369 . S
C1635 C1644 1.429 . S
C1636 C1634 1.419 . S
C1636 C1637 1.363 . S
C1636 H1639 0.929 . S
C1637 C1636 1.363 . S
C1637 C1643 1.428 . S
H1638 C1634 0.930 . S
H1639 C1636 0.929 . S
S1640 N1641 1.613 . S
S1640 N1642 1.610 . S
N1641 S1640 1.613 . S
N1641 C1644 1.350 . S
N1642 S1640 1.610 . S
N1642 C1643 1.351 . S
C1643 C1637 1.428 . S
C1643 N1642 1.351 . S
C1643 C1644 1.434 . S
C1644 C1635 1.429 . S
C1644 N1641 1.350 . S
C1644 C1643 1.434 . S
C1645 C1646 1.369 . S
C1645 C1647 1.419 . S
C1645 H1649 0.930 . S
C1646 C1645 1.369 . S
C1646 C1655 1.429 . S
C1647 C1645 1.419 . S
C1647 C1648 1.363 . S
C1647 H1650 0.929 . S
C1648 C1647 1.363 . S
C1648 C1654 1.428 . S
H1649 C1645 0.930 . S
H1650 C1647 0.929 . S
S1651 N1652 1.613 . S
S1651 N1653 1.610 . S
N1652 S1651 1.613 . S
N1652 C1655 1.350 . S
N1653 S1651 1.610 . S
N1653 C1654 1.351 . S
C1654 C1648 1.428 . S
C1654 N1653 1.351 . S
C1654 C1655 1.434 . S
C1655 C1646 1.429 . S
C1655 N1652 1.350 . S
C1655 C1654 1.434 . S
C1656 C1657 1.369 . S
C1656 C1658 1.419 . S
C1656 H1660 0.930 . S
C1657 C1656 1.369 . S
C1657 C1666 1.429 . S
C1658 C1656 1.419 . S
C1658 C1659 1.363 . S
C1658 H1661 0.929 . S
C1659 C1658 1.363 . S
C1659 C1665 1.428 . S
H1660 C1656 0.930 . S
H1661 C1658 0.929 . S
S1662 N1663 1.613 . S
S1662 N1664 1.610 . S
N1663 S1662 1.613 . S
N1663 C1666 1.350 . S
N1664 S1662 1.610 . S
N1664 C1665 1.351 . S
C1665 C1659 1.428 . S
C1665 N1664 1.351 . S
C1665 C1666 1.434 . S
C1666 C1657 1.429 . S
C1666 N1663 1.350 . S
C1666 C1665 1.434 . S
C1667 C1668 1.369 . S
C1667 C1669 1.419 . S
C1667 H1671 0.930 . S
C1668 C1667 1.369 . S
C1668 C1677 1.429 . S
C1669 C1667 1.419 . S
C1669 C1670 1.363 . S
C1669 H1672 0.929 . S
C1670 C1669 1.363 . S
C1670 C1676 1.428 . S
H1671 C1667 0.930 . S
H1672 C1669 0.929 . S
S1673 N1674 1.613 . S
S1673 N1675 1.610 . S
N1674 S1673 1.613 . S
N1674 C1677 1.350 . S
N1675 S1673 1.610 . S
N1675 C1676 1.351 . S
C1676 C1670 1.428 . S
C1676 N1675 1.351 . S
C1676 C1677 1.434 . S
C1677 C1668 1.429 . S
C1677 N1674 1.350 . S
C1677 C1676 1.434 . S
C1678 C1679 1.369 . S
C1678 C1680 1.419 . S
C1678 H1682 0.930 . S
C1679 C1678 1.369 . S
C1679 C1688 1.429 . S
C1680 C1678 1.419 . S
C1680 C1681 1.363 . S
C1680 H1683 0.929 . S
C1681 C1680 1.363 . S
C1681 C1687 1.428 . S
H1682 C1678 0.930 . S
H1683 C1680 0.929 . S
S1684 N1685 1.613 . S
S1684 N1686 1.610 . S
N1685 S1684 1.613 . S
N1685 C1688 1.350 . S
N1686 S1684 1.610 . S
N1686 C1687 1.351 . S
C1687 C1681 1.428 . S
C1687 N1686 1.351 . S
C1687 C1688 1.434 . S
C1688 C1679 1.429 . S
C1688 N1685 1.350 . S
C1688 C1687 1.434 . S
C1689 C1690 1.369 . S
C1689 C1691 1.419 . S
C1689 H1693 0.930 . S
C1690 C1689 1.369 . S
C1690 C1699 1.429 . S
C1691 C1689 1.419 . S
C1691 C1692 1.363 . S
C1691 H1694 0.929 . S
C1692 C1691 1.363 . S
C1692 C1698 1.428 . S
H1693 C1689 0.930 . S
H1694 C1691 0.929 . S
S1695 N1696 1.613 . S
S1695 N1697 1.610 . S
N1696 S1695 1.613 . S
N1696 C1699 1.350 . S
N1697 S1695 1.610 . S
N1697 C1698 1.351 . S
C1698 C1692 1.428 . S
C1698 N1697 1.351 . S
C1698 C1699 1.434 . S
C1699 C1690 1.429 . S
C1699 N1696 1.350 . S
C1699 C1698 1.434 . S
C1700 C1701 1.369 . S
C1700 C1702 1.419 . S
C1700 H1704 0.930 . S
C1701 C1700 1.369 . S
C1701 C1710 1.429 . S
C1702 C1700 1.419 . S
C1702 C1703 1.363 . S
C1702 H1705 0.929 . S
C1703 C1702 1.363 . S
C1703 C1709 1.428 . S
H1704 C1700 0.930 . S
H1705 C1702 0.929 . S
S1706 N1707 1.613 . S
S1706 N1708 1.610 . S
N1707 S1706 1.613 . S
N1707 C1710 1.350 . S
N1708 S1706 1.610 . S
N1708 C1709 1.351 . S
C1709 C1703 1.428 . S
C1709 N1708 1.351 . S
C1709 C1710 1.434 . S
C1710 C1701 1.429 . S
C1710 N1707 1.350 . S
C1710 C1709 1.434 . S
C1711 C1712 1.369 . S
C1711 C1713 1.419 . S
C1711 H1715 0.930 . S
C1712 C1711 1.369 . S
C1712 C1721 1.429 . S
C1713 C1711 1.419 . S
C1713 C1714 1.363 . S
C1713 H1716 0.929 . S
C1714 C1713 1.363 . S
C1714 C1720 1.428 . S
H1715 C1711 0.930 . S
H1716 C1713 0.929 . S
S1717 N1718 1.613 . S
S1717 N1719 1.610 . S
N1718 S1717 1.613 . S
N1718 C1721 1.350 . S
N1719 S1717 1.610 . S
N1719 C1720 1.351 . S
C1720 C1714 1.428 . S
C1720 N1719 1.351 . S
C1720 C1721 1.434 . S
C1721 C1712 1.429 . S
C1721 N1718 1.350 . S
C1721 C1720 1.434 . S
C1722 C1723 1.369 . S
C1722 C1724 1.419 . S
C1722 H1726 0.930 . S
C1723 C1722 1.369 . S
C1723 C1732 1.429 . S
C1724 C1722 1.419 . S
C1724 C1725 1.363 . S
C1724 H1727 0.929 . S
C1725 C1724 1.363 . S
C1725 C1731 1.428 . S
H1726 C1722 0.930 . S
H1727 C1724 0.929 . S
S1728 N1729 1.613 . S
S1728 N1730 1.610 . S
N1729 S1728 1.613 . S
N1729 C1732 1.350 . S
N1730 S1728 1.610 . S
N1730 C1731 1.351 . S
C1731 C1725 1.428 . S
C1731 N1730 1.351 . S
C1731 C1732 1.434 . S
C1732 C1723 1.429 . S
C1732 N1729 1.350 . S
C1732 C1731 1.434 . S
C1733 C1734 1.369 . S
C1733 C1735 1.419 . S
C1733 H1737 0.930 . S
C1734 C1733 1.369 . S
C1734 C1743 1.429 . S
C1735 C1733 1.419 . S
C1735 C1736 1.363 1_455 S
C1735 H1738 0.929 . S
C1736 C1735 1.363 1_655 S
C1736 C1742 1.428 . S
H1737 C1733 0.930 . S
H1738 C1735 0.929 . S
S1739 N1740 1.613 1_655 S
S1739 N1741 1.610 1_565 S
N1740 S1739 1.613 1_455 S
N1740 C1743 1.350 1_565 S
N1741 S1739 1.610 1_545 S
N1741 C1742 1.351 . S
C1742 C1736 1.428 . S
C1742 N1741 1.351 . S
C1742 C1743 1.434 1_655 S
C1743 C1734 1.429 . S
C1743 N1740 1.350 1_545 S
C1743 C1742 1.434 1_455 S
C691 C343 1.161 . S
C689 C11 1.219 . S
C700 C14 1.295 . S
C702 C363 1.246 . S
C713 C384 1.313 . S
C711 C37 1.369 . S
C724 C411 1.249 . S
C722 C47 1.328 . S
C735 C367 1.243 . S
C733 C61 1.330 . S
C744 C79 1.368 . S
C746 C387 1.307 . S
C757 C407 1.246 . S
C755 C84 1.286 . S
C766 C109 1.223 . S
C768 C340 1.165 . S
C777 C123 1.245 . S
C779 C345 1.183 . S
C790 C362 1.231 . S
C788 C131 1.305 . S
C801 C386 1.297 . S
C799 C140 1.355 . S
C812 C410 1.243 . S
C810 C163 1.305 . S
C823 C366 1.251 . S
C821 C121 1.300 . S
C834 C389 1.308 . S
C832 C126 1.347 . S
C843 C145 1.304 . S
C845 C406 1.225 . S
C856 C342 1.190 . S
C854 C165 1.236 . S
C865 C168 1.241 . S
C867 C344 1.191 . S
C876 C193 1.258 . S
C878 C431 1.213 . S
C889 C451 1.275 . S
C887 C205 1.351 . S
C900 C474 1.284 . S
C898 C215 1.358 . S
C909 C224 1.234 . S
C911 C341 1.188 . S
C920 C247 1.351 . S
C922 C385 1.274 . S
C933 C475 1.202 . S
C931 C207 1.269 . S
C944 C430 1.272 . S
C942 C257 1.365 . S
C955 C498 1.270 . S
C953 C23 1.304 . S
C966 C519 1.188 . S
C964 C0 1.230 . S
C975 C53 1.165 . S
C977 C538 1.129 . S
C986 C33 1.299 . S
C988 C563 1.257 . S
C997 C103 1.297 . S
C999 C518 1.255 . S
C1008 C95 1.165 . S
C1010 C543 1.129 . S
C1021 C562 1.191 . S
C1019 C70 1.232 . S
C1030 C65 1.304 . S
C1032 C495 1.274 . S
C1041 C271 1.338 . S
C1043 C499 1.285 . S
C1054 C520 1.243 . S
C1052 C219 1.264 . S
C1065 C539 1.141 . S
C1063 C235 1.175 . S
C1076 C564 1.182 . S
C1074 C182 1.224 . S
C1087 C516 1.190 . S
C1085 C266 1.231 . S
C1098 C541 1.141 . S
C1096 C221 1.176 . S
C1109 C560 1.241 . S
C1107 C233 1.262 . S
C1118 C187 1.337 . S
C1120 C496 1.288 . S
C1131 C497 1.224 . S
C1129 C289 1.261 . S
C1140 C154 1.285 . S
C1142 C583 1.247 . S
C1153 C608 1.183 . S
C1151 C299 1.225 . S
C1162 C137 1.237 . S
C1164 C627 1.205 . S
C1175 C494 1.219 . S
C1173 C149 1.263 . S
C1186 C540 1.184 . S
C1184 C313 1.226 . S
C1197 C631 1.241 . S
C1195 C294 1.281 . S
C1206 C333 1.231 . S
C1208 C587 1.198 . S
C1217 C39 1.223 . S
C1219 C651 1.165 . S
C1228 C42 1.296 . S
C1230 C429 1.241 . S
C1241 C453 1.313 . S
C1239 C9 1.369 . S
C1250 C19 1.327 . S
C1252 C477 1.250 . S
C1261 C89 1.333 . S
C1263 C433 1.242 . S
C1272 C107 1.369 . S
C1274 C450 1.305 . S
C1285 C473 1.241 . S
C1283 C56 1.297 . S
C1296 C648 1.157 . S
C1294 C81 1.223 . S
C1307 C653 1.190 . S
C1305 C305 1.235 . S
C1318 C428 1.229 . S
C1316 C285 1.304 . S
C1329 C455 1.298 . S
C1327 C322 1.357 . S
C1338 C317 1.306 . S
C1340 C476 1.243 . S
C1351 C432 1.252 . S
C1349 C303 1.308 . S
C1360 C280 1.349 . S
C1362 C452 1.308 . S
C1373 C472 1.218 . S
C1371 C327 1.311 . S
C1382 C319 1.236 . S
C1384 C650 1.185 . S
C1395 C652 1.184 . S
C1393 C210 1.240 . S
C1404 C249 1.264 . S
C1406 C365 1.212 . S
C1417 C388 1.274 . S
C1415 C275 1.351 . S
C1426 C173 1.365 . S
C1428 C408 1.279 . S
C1439 C649 1.185 . S
C1437 C252 1.238 . S
C1450 C454 1.277 . S
C1448 C191 1.339 . S
C1461 C409 1.210 . S
C1459 C277 1.259 . S
C1472 C364 1.272 . S
C1470 C229 1.365 . S
C1481 C51 1.308 . S
C1483 C675 1.278 . S
C1492 C28 1.231 . S
C1494 C585 1.188 . S
C1503 C25 1.170 . S
C1505 C604 1.136 . S
C1516 C629 1.258 . S
C1514 C5 1.300 . S
C1527 C584 1.251 . S
C1525 C75 1.295 . S
C1536 C67 1.169 . S
C1538 C609 1.132 . S
C1549 C628 1.190 . S
C1547 C98 1.233 . S
C1558 C93 1.305 . S
C1560 C670 1.275 . S
C1571 C673 1.286 . S
C1569 C201 1.337 . S
C1580 C177 1.264 . S
C1582 C586 1.244 . S
C1591 C263 1.180 . S
C1593 C605 1.146 . S
C1604 C630 1.186 . S
C1602 C238 1.228 . S
C1615 C582 1.190 . S
C1613 C196 1.231 . S
C1624 C179 1.175 . S
C1626 C607 1.141 . S
C1637 C626 1.240 . S
C1635 C261 1.262 . S
C1648 C671 1.279 . S
C1646 C243 1.336 . S
C1659 C674 1.226 . S
C1657 C135 1.268 . S
C1670 C517 1.246 . S
C1668 C308 1.283 . S
C1679 C117 1.220 . S
C1681 C542 1.175 . S
C1690 C291 1.237 . S
C1692 C561 1.205 . S
C1703 C672 1.228 . S
C1701 C331 1.268 . S
C1714 C606 1.183 . S
C1712 C159 1.226 . S
C1725 C565 1.247 . S
C1723 C112 1.285 . S
C1736 C521 1.205 . S
C1734 C151 1.235 . S
