# Generated by pormake.
# Topology pyr, (3,6)-cn, num edge types: 1
# Building blocks:
#     Node 0, Type 0, BuildingBlock: OLANEW_clean_sbu_2, # of connection points: 3
#     Node 1, Type 0, BuildingBlock: OLANEW_clean_sbu_2, # of connection points: 3
#     Node 2, Type 0, BuildingBlock: OLANEW_clean_sbu_2, # of connection points: 3
#     Node 3, Type 0, BuildingBlock: OLANEW_clean_sbu_2, # of connection points: 3
#     Node 4, Type 0, BuildingBlock: OLANEW_clean_sbu_2, # of connection points: 3
#     Node 5, Type 0, BuildingBlock: OLANEW_clean_sbu_2, # of connection points: 3
#     Node 6, Type 0, BuildingBlock: OLANEW_clean_sbu_2, # of connection points: 3
#     Node 7, Type 0, BuildingBlock: OLANEW_clean_sbu_2, # of connection points: 3
#     Node 8, Type 1, BuildingBlock: CIFDUS_clean_sbu_1, # of connection points: 6
#     Node 9, Type 1, BuildingBlock: CIFDUS_clean_sbu_1, # of connection points: 6
#     Node 10, Type 1, BuildingBlock: CIFDUS_clean_sbu_1, # of connection points: 6
#     Node 11, Type 1, BuildingBlock: CIFDUS_clean_sbu_1, # of connection points: 6
#     Edge 12, Type (0, 1), BuildingBlock: XIVTED_clean_linker_0, # of connection points: 2
#     Edge 13, Type (0, 1), BuildingBlock: XIVTED_clean_linker_0, # of connection points: 2
#     Edge 14, Type (0, 1), BuildingBlock: XIVTED_clean_linker_0, # of connection points: 2
#     Edge 15, Type (0, 1), BuildingBlock: XIVTED_clean_linker_0, # of connection points: 2
#     Edge 16, Type (0, 1), BuildingBlock: XIVTED_clean_linker_0, # of connection points: 2
#     Edge 17, Type (0, 1), BuildingBlock: XIVTED_clean_linker_0, # of connection points: 2
#     Edge 18, Type (0, 1), BuildingBlock: XIVTED_clean_linker_0, # of connection points: 2
#     Edge 19, Type (0, 1), BuildingBlock: XIVTED_clean_linker_0, # of connection points: 2
#     Edge 20, Type (0, 1), BuildingBlock: XIVTED_clean_linker_0, # of connection points: 2
#     Edge 21, Type (0, 1), BuildingBlock: XIVTED_clean_linker_0, # of connection points: 2
#     Edge 22, Type (0, 1), BuildingBlock: XIVTED_clean_linker_0, # of connection points: 2
#     Edge 23, Type (0, 1), BuildingBlock: XIVTED_clean_linker_0, # of connection points: 2
#     Edge 24, Type (0, 1), BuildingBlock: XIVTED_clean_linker_0, # of connection points: 2
#     Edge 25, Type (0, 1), BuildingBlock: XIVTED_clean_linker_0, # of connection points: 2
#     Edge 26, Type (0, 1), BuildingBlock: XIVTED_clean_linker_0, # of connection points: 2
#     Edge 27, Type (0, 1), BuildingBlock: XIVTED_clean_linker_0, # of connection points: 2
#     Edge 28, Type (0, 1), BuildingBlock: XIVTED_clean_linker_0, # of connection points: 2
#     Edge 29, Type (0, 1), BuildingBlock: XIVTED_clean_linker_0, # of connection points: 2
#     Edge 30, Type (0, 1), BuildingBlock: XIVTED_clean_linker_0, # of connection points: 2
#     Edge 31, Type (0, 1), BuildingBlock: XIVTED_clean_linker_0, # of connection points: 2
#     Edge 32, Type (0, 1), BuildingBlock: XIVTED_clean_linker_0, # of connection points: 2
#     Edge 33, Type (0, 1), BuildingBlock: XIVTED_clean_linker_0, # of connection points: 2
#     Edge 34, Type (0, 1), BuildingBlock: XIVTED_clean_linker_0, # of connection points: 2
#     Edge 35, Type (0, 1), BuildingBlock: XIVTED_clean_linker_0, # of connection points: 2
# Relax obj value: 0.071
# Max RMSD: 0.149
# Mean RMSD: 0.121
data_MOF--net-pry--node1-OLANEW_clean_sbu_2--node2-CIFDUS_clean_sbu_1--edge1-XIVTED_clean_linker_0
_symmetry_space_group_name_H-M    P1
_symmetry_Int_Tables_number       1
_symmetry_cell_setting            triclinic
loop_
_symmetry_equiv_pos_as_xyz
'x, y, z'
_cell_length_a     39.817197
_cell_length_b     38.780378
_cell_length_c     37.548135
_cell_angle_alpha  96.384095
_cell_angle_beta   89.718061
_cell_angle_gamma 98.679659
loop_
_atom_site_label
_atom_site_type_symbol
_atom_site_fract_x
_atom_site_fract_y
_atom_site_fract_z
_atom_type_partial_charge
O0 O 0.18709 0.13619 0.11285 0.0
Cd1 Cd 0.13718 0.16502 0.13202 0.0
O2 O 0.18548 0.10771 0.16077 0.0
Cd3 Cd 0.14192 0.12434 0.1902 0.0
O4 O 0.11602 0.11454 0.24074 0.0
C5 C 0.11683 0.0838 0.24915 0.0
O6 O 0.13063 0.06171 0.22661 0.0
C7 C 0.19915 0.11501 0.13127 0.0
C8 C 0.11899 0.2193 0.09494 0.0
O9 O 0.14162 0.22566 0.11996 0.0
O10 O 0.10579 0.1872 0.08639 0.0
O11 O 0.41562 0.92409 0.70722 0.0
Cd12 Cd 0.39232 0.89373 0.64975 0.0
O13 O 0.36574 0.91825 0.73336 0.0
Cd14 Cd 0.33615 0.89108 0.68722 0.0
O15 O 0.2912 0.89002 0.6541 0.0
C16 C 0.28856 0.91965 0.64394 0.0
O17 O 0.31306 0.94601 0.65245 0.0
C18 C 0.39743 0.92954 0.73465 0.0
C19 C 0.41988 0.83311 0.62593 0.0
O20 O 0.43366 0.86325 0.61783 0.0
O21 O 0.39344 0.83175 0.64566 0.0
O22 O 0.68401 0.45575 0.91828 0.0
Cd23 Cd 0.62864 0.43411 0.89011 0.0
O24 O 0.68544 0.40009 0.90524 0.0
Cd25 Cd 0.69764 0.34685 0.89968 0.0
O26 O 0.67377 0.29459 0.90938 0.0
C27 C 0.65078 0.29554 0.93288 0.0
O28 O 0.645 0.32626 0.94809 0.0
C29 C 0.69983 0.42985 0.9197 0.0
C30 C 0.6219 0.44684 0.81926 0.0
O31 O 0.6089 0.46497 0.84488 0.0
O32 O 0.63895 0.42314 0.82701 0.0
O33 O 0.92493 0.67076 0.43533 0.0
Cd34 Cd 0.90195 0.61352 0.40172 0.0
O35 O 0.95063 0.65173 0.47947 0.0
Cd36 Cd 0.92067 0.6004 0.46522 0.0
O37 O 0.86721 0.58134 0.47434 0.0
C38 C 0.84975 0.60489 0.48646 0.0
O39 O 0.86473 0.63766 0.49189 0.0
C40 C 0.94365 0.67696 0.46345 0.0
C41 C 0.91979 0.59995 0.32933 0.0
O42 O 0.89879 0.62116 0.33875 0.0
O43 O 0.93327 0.58597 0.35399 0.0
O44 O 0.91026 0.88397 0.88321 0.0
Cd45 Cd 0.89751 0.86474 0.94313 0.0
O46 O 0.88455 0.93112 0.89011 0.0
Cd47 Cd 0.85807 0.9292 0.94157 0.0
O48 O 0.8143 0.94697 0.97074 0.0
C49 C 0.79019 0.95175 0.95058 0.0
O50 O 0.79325 0.94495 0.91574 0.0
C51 C 0.90231 0.91128 0.87137 0.0
C52 C 0.9203 0.80163 0.95585 0.0
O53 O 0.89177 0.80182 0.94024 0.0
O54 O 0.93868 0.83134 0.96516 0.0
O55 O 0.63815 0.09726 0.39394 0.0
Cd56 Cd 0.65394 0.11451 0.45766 0.0
O57 O 0.64289 0.15219 0.38257 0.0
Cd58 Cd 0.65508 0.17815 0.43664 0.0
O59 O 0.63766 0.22359 0.46687 0.0
C60 C 0.61089 0.23056 0.45273 0.0
O61 O 0.59787 0.21018 0.42429 0.0
C62 C 0.63612 0.11957 0.37195 0.0
C63 C 0.71759 0.10057 0.47806 0.0
O64 O 0.69196 0.0762 0.47311 0.0
O65 O 0.7135 0.13184 0.47305 0.0
O66 O 0.44671 0.72586 0.18538 0.0
Cd67 Cd 0.42446 0.66443 0.1924 0.0
O68 O 0.39235 0.72215 0.17744 0.0
Cd69 Cd 0.34459 0.73421 0.15922 0.0
O70 O 0.29977 0.70106 0.13731 0.0
C71 C 0.30047 0.68446 0.10627 0.0
O72 O 0.32747 0.69029 0.08632 0.0
C73 C 0.42157 0.74051 0.17799 0.0
C74 C 0.4325 0.64378 0.26007 0.0
O75 O 0.45242 0.63624 0.2344 0.0
O76 O 0.409 0.66166 0.25402 0.0
O77 O 0.13215 0.46131 0.68811 0.0
Cd78 Cd 0.13771 0.44812 0.6229 0.0
O79 O 0.13227 0.40529 0.68612 0.0
Cd80 Cd 0.12841 0.3515 0.69803 0.0
O81 O 0.10715 0.30396 0.66496 0.0
C82 C 0.07703 0.30271 0.6533 0.0
O83 O 0.06001 0.32844 0.66387 0.0
C84 C 0.12985 0.43425 0.70464 0.0
C85 C 0.20506 0.46078 0.60129 0.0
O86 O 0.18639 0.48509 0.60531 0.0
O87 O 0.19179 0.42971 0.6071 0.0
O88 O 0.95366 0.01673 0.54592 0.0
Mn89 Mn -0.00166 -0.00368 0.55541 0.0
O90 O 0.93708 0.99147 0.49105 0.0
Mn91 Mn 0.96498 0.95737 0.48588 0.0
O92 O 0.04379 0.97686 0.56454 0.0
O93 O 0.01602 0.04289 0.58208 0.0
Mn94 Mn 0.03842 0.03863 0.62101 0.0
O95 O 0.97747 0.97845 0.60339 0.0
O96 O 0.0744 0.01677 0.60466 0.0
O97 O 0.02031 0.0146 0.50789 0.0
O98 O 0.00494 0.9712 0.46334 0.0
O99 O 0.03944 0.08617 0.61963 0.0
O100 O 0.0068 0.01394 0.64838 0.0
C101 C 0.96019 0.92054 0.52528 0.0
C102 C 0.93444 0.01368 0.51805 0.0
C103 C 0.07146 0.98947 0.58203 0.0
C104 C 0.02201 0.07631 0.59032 0.0
C105 C 0.9833 0.98908 0.63701 0.0
C106 C 0.02347 -0.00029 0.47571 0.0
O107 O 0.98122 0.94951 0.52747 0.0
O108 O 0.94439 0.91354 0.49473 0.0
O109 O 0.48238 0.02207 0.00356 0.0
Mn110 Mn 0.49729 0.03057 0.05746 0.0
O111 O 0.50594 0.97584 0.98131 0.0
Mn112 Mn 0.51475 0.96017 0.02451 0.0
O113 O 0.51265 0.04182 0.11194 0.0
O114 O 0.50206 0.08214 0.05255 0.0
Mn115 Mn 0.47978 0.10332 0.08669 0.0
O116 O 0.44483 0.02862 0.0707 0.0
O117 O 0.50011 0.09604 0.12873 0.0
O118 O 0.54959 0.03122 0.04353 0.0
O119 O 0.5587 0.9749 0.03965 0.0
O120 O 0.4996 0.13812 0.06052 0.0
O121 O 0.43495 0.08457 0.08002 0.0
C122 C 0.47302 0.94939 0.06071 0.0
C123 C 0.49053 0.00138 0.97714 0.0
C124 C 0.51275 0.06901 0.13526 0.0
C125 C 0.51176 0.11266 0.04216 0.0
C126 C 0.42457 0.05179 0.07583 0.0
C127 C 0.5697 0.00767 0.04174 0.0
O128 O 0.49379 0.97862 0.06243 0.0
O129 O 0.48161 0.92567 0.03693 0.0
O130 O 0.57772 0.55336 0.52923 0.0
Mn131 Mn 0.52601 0.53677 0.53604 0.0
O132 O 0.59006 0.52827 0.47477 0.0
Mn133 Mn 0.54618 0.5111 0.45861 0.0
O134 O 0.47416 0.5206 0.54488 0.0
O135 O 0.53604 0.53871 0.58853 0.0
Mn136 Mn 0.51032 0.56518 0.61334 0.0
O137 O 0.51649 0.58919 0.54102 0.0
O138 O 0.46642 0.54323 0.60207 0.0
O139 O 0.53404 0.48352 0.5295 0.0
O140 O 0.53075 0.46664 0.46995 0.0
O141 O 0.53633 0.5493 0.64656 0.0
O142 O 0.52087 0.60945 0.59928 0.0
C143 C 0.51211 0.54881 0.45485 0.0
C144 C 0.59886 0.54604 0.50469 0.0
C145 C 0.45525 0.52606 0.57234 0.0
C146 C 0.54841 0.53295 0.61861 0.0
C147 C 0.51754 0.61426 0.56668 0.0
C148 C 0.53153 0.45959 0.5023 0.0
O149 O 0.51778 0.53474 0.48327 0.0
O150 O 0.52687 0.53581 0.42685 0.0
O151 O 0.96399 0.47722 0.00373 0.0
Mn152 Mn 0.01421 0.50145 0.01041 0.0
O153 O 0.94676 0.49529 0.95347 0.0
Mn154 Mn 0.98907 0.51211 0.93677 0.0
O155 O 0.06432 0.526 0.01976 0.0
O156 O 0.00369 0.50771 0.06493 0.0
Mn157 Mn 0.03442 0.48383 0.08024 0.0
O158 O 0.03004 0.45108 0.00988 0.0
O159 O 0.07718 0.50617 0.0712 0.0
O160 O -0.00077 0.55209 0.0072 0.0
O161 O 0.00018 0.55944 0.94844 0.0
O162 O 0.01525 0.49805 0.12111 0.0
O163 O 0.02503 0.43699 0.06524 0.0
C164 C 0.02445 0.4758 0.92785 0.0
C165 C 0.94078 0.48008 0.98141 0.0
C166 C 0.0851 0.52427 0.04532 0.0
C167 C -0.00292 0.51165 0.09944 0.0
C168 C 0.02922 0.42833 0.03244 0.0
C169 C -0.00197 0.57148 0.98123 0.0
O170 O 0.02403 0.49751 0.9568 0.0
O171 O 0.00432 0.48116 0.90279 0.0
H172 H 0.11802 0.02084 0.27429 0.0
H173 H 0.03098 0.06871 0.46233 0.0
H174 H 0.08889 0.12275 0.30469 0.0
H175 H 0.06466 0.96985 0.42838 0.0
H176 H 0.05621 0.09191 0.40812 0.0
H177 H 0.10105 0.00383 0.33274 0.0
C178 C 0.10797 0.03972 0.29326 0.0
C179 C 0.10494 0.07333 0.28445 0.0
C180 C 0.05864 0.06538 0.41295 0.0
C181 C 0.08539 0.05391 0.35215 0.0
C182 C 0.04466 0.05233 0.44406 0.0
C183 C 0.04584 0.01736 0.44968 0.0
C184 C 0.07387 0.0432 0.38762 0.0
C185 C 0.06318 -0.00306 0.42493 0.0
C186 C 0.09838 0.03 0.32686 0.0
C187 C 0.09167 0.09655 0.31033 0.0
N188 N 0.07622 0.01004 0.39495 0.0
N189 N 0.0823 0.08639 0.34304 0.0
H190 H 0.36456 0.95834 0.79188 0.0
H191 H 0.52774 0.99161 0.91745 0.0
H192 H 0.46498 0.94598 0.75379 0.0
H193 H 0.43073 0.01814 0.95277 0.0
H194 H 0.50711 0.98324 0.85562 0.0
H195 H 0.38939 0.98717 0.84878 0.0
C196 C 0.39189 0.96177 0.79544 0.0
C197 C 0.41269 0.94912 0.76823 0.0
C198 C 0.49042 0.9915 0.87669 0.0
C199 C 0.44129 0.98221 0.83349 0.0
C200 C 0.50222 -0.00364 0.91199 0.0
C201 C 0.48066 0.00504 0.94015 0.0
C202 C 0.45654 0.99463 0.86951 0.0
C203 C 0.44804 0.01128 0.93174 0.0
C204 C 0.40606 0.97848 0.8279 0.0
C205 C 0.44795 0.95496 0.77414 0.0
N206 N 0.43667 0.00521 0.89713 0.0
N207 N 0.4611 0.97065 0.80631 0.0
H208 H 0.5622 0.45543 0.79035 0.0
H209 H 0.61606 0.54453 0.63291 0.0
H210 H 0.66662 0.44901 0.76337 0.0
H211 H 0.52877 0.46379 0.62086 0.0
H212 H 0.63999 0.51274 0.67711 0.0
H213 H 0.55079 0.46389 0.72818 0.0
C214 C 0.58268 0.45577 0.77121 0.0
C215 C 0.61535 0.45165 0.78176 0.0
C216 C 0.61643 0.50107 0.66341 0.0
C217 C 0.60261 0.46156 0.71099 0.0
C218 C 0.603 0.51892 0.63781 0.0
C219 C 0.57034 0.50677 0.62353 0.0
C220 C 0.59643 0.47165 0.67517 0.0
C221 C 0.55404 0.47394 0.63138 0.0
C222 C 0.5761 0.46013 0.73577 0.0
C223 C 0.64107 0.45207 0.756 0.0
N224 N 0.56651 0.45822 0.65794 0.0
N225 N 0.63437 0.45781 0.72175 0.0
H226 H 0.9249 0.64197 0.27476 0.0
H227 H 0.93717 0.48315 0.12409 0.0
H228 H 0.93002 0.5361 0.2967 0.0
H229 H 0.00093 0.58222 0.11778 0.0
H230 H 0.91333 0.50758 0.17978 0.0
H231 H 0.93549 0.62458 0.2109 0.0
C232 C 0.92808 0.61508 0.26608 0.0
C233 C 0.92684 0.59045 0.29099 0.0
C234 C 0.93155 0.52441 0.16543 0.0
C235 C 0.93738 0.57027 0.21827 0.0
C236 C 0.94456 0.51077 0.13318 0.0
C237 C 0.97081 0.53078 0.11608 0.0
C238 C 0.94449 0.55855 0.1804 0.0
C239 C 0.9803 0.56611 0.12981 0.0
C240 C 0.93402 0.60525 0.22979 0.0
C241 C 0.93113 0.55597 0.27844 0.0
N242 N 0.96759 0.57879 0.16161 0.0
N243 N 0.93587 0.54683 0.24294 0.0
H244 H 0.23487 0.12004 0.06828 0.0
H245 H 0.38791 0.03116 0.13326 0.0
H246 H 0.23316 0.07288 0.16727 0.0
H247 H 0.37783 0.05626 0.02541 0.0
H248 H 0.32923 0.0412 0.1448 0.0
H249 H 0.28598 0.0943 0.05106 0.0
C250 C 0.24507 0.10418 0.08632 0.0
C251 C 0.22961 0.09885 0.11935 0.0
C252 C 0.33941 0.04341 0.11822 0.0
C253 C 0.28828 0.06918 0.09979 0.0
C254 C 0.37271 0.03699 0.11146 0.0
C255 C 0.38743 0.04209 0.07808 0.0
C256 C 0.321 0.05571 0.09157 0.0
C257 C 0.36713 0.05131 0.05126 0.0
C258 C 0.2742 0.08931 0.0764 0.0
C259 C 0.24411 0.0779 0.14156 0.0
N260 N 0.33522 0.05839 0.05873 0.0
N261 N 0.27266 0.06415 0.13154 0.0
H262 H 0.27842 0.97792 0.61383 0.0
H263 H 0.07834 0.92134 0.58972 0.0
H264 H 0.22776 0.87525 0.63296 0.0
H265 H 0.13379 0.01998 0.56528 0.0
H266 H 0.13269 0.89982 0.59752 0.0
H267 H 0.22591 0.99023 0.5889 0.0
C268 C 0.25628 0.95778 0.61247 0.0
C269 C 0.25746 0.92559 0.6257 0.0
C270 C 0.13291 0.92585 0.58958 0.0
C271 C 0.19678 0.93963 0.59728 0.0
C272 C 0.10196 0.93792 0.58479 0.0
C273 C 0.10188 0.97239 0.57693 0.0
C274 C 0.16363 0.94857 0.58643 0.0
C275 C 0.13296 0.99323 0.57145 0.0
C276 C 0.22621 0.9648 0.59813 0.0
C277 C 0.22793 0.90047 0.6231 0.0
N278 N 0.16254 0.98114 0.57665 0.0
N279 N 0.19862 0.90817 0.60954 0.0
H280 H 0.73659 0.37971 0.9396 0.0
H281 H 0.89627 0.52265 0.00451 0.0
H282 H 0.7399 0.49171 0.94228 0.0
H283 H 0.9042 0.4141 0.9724 0.0
H284 H 0.8345 0.50884 -0.00174 0.0
H285 H 0.79375 0.38963 0.96558 0.0
C286 C 0.74925 0.40633 0.94527 0.0
C287 C 0.73363 0.43483 0.93757 0.0
C288 C 0.84958 0.4878 0.99345 0.0
C289 C 0.79873 0.44638 0.9686 0.0
C290 C 0.88472 0.4956 0.99747 0.0
C291 C 0.90497 0.46933 0.98924 0.0
C292 C 0.83471 0.45355 0.98064 0.0
C293 C 0.88917 0.43486 0.97939 0.0
C294 C 0.78182 0.41197 0.96055 0.0
C295 C 0.75101 0.46885 0.94722 0.0
N296 N 0.85481 0.42797 0.97485 0.0
N297 N 0.78266 0.47365 0.96196 0.0
H298 H 0.81145 0.53968 0.48267 0.0
H299 H 0.63523 0.61157 0.52381 0.0
H300 H 0.80472 0.64976 0.50798 0.0
H301 H 0.64536 0.50241 0.49967 0.0
H302 H 0.69766 0.62657 0.52421 0.0
H303 H 0.75084 0.52572 0.49401 0.0
C304 C 0.79724 0.56092 0.49068 0.0
C305 C 0.81317 0.59593 0.49413 0.0
C306 C 0.68619 0.59929 0.51939 0.0
C307 C 0.74357 0.58018 0.50719 0.0
C308 C 0.6507 0.59081 0.51942 0.0
C309 C 0.63551 0.55582 0.51147 0.0
C310 C 0.70621 0.57245 0.51157 0.0
C311 C 0.65633 0.52976 0.50556 0.0
C312 C 0.76259 0.55296 0.49726 0.0
C313 C 0.79345 0.62238 0.50484 0.0
N314 N 0.69057 0.5386 0.50554 0.0
N315 N 0.75963 0.61398 0.51077 0.0
H316 H 0.06406 0.21617 0.0499 0.0
H317 H 0.09557 0.42209 0.03 0.0
H318 H 0.14712 0.28886 0.10104 0.0
H319 H -0.00424 0.36088 0.02202 0.0
H320 H 0.11959 0.36936 0.04014 0.0
H321 H 0.04334 0.26526 0.02528 0.0
C322 C 0.07817 0.24234 0.05566 0.0
C323 C 0.10741 0.24832 0.07768 0.0
C324 C 0.09256 0.36718 0.03505 0.0
C325 C 0.08394 0.30452 0.04919 0.0
C326 C 0.07893 0.39711 0.02856 0.0
C327 C 0.04374 0.39559 0.02419 0.0
C328 C 0.07088 0.33534 0.03694 0.0
C329 C 0.0231 0.36292 0.02434 0.0
C330 C 0.06625 0.27032 0.04165 0.0
C331 C 0.1245 0.28291 0.08427 0.0
N332 N 0.03694 0.33406 0.03076 0.0
N333 N 0.11255 0.30961 0.07011 0.0
H334 H 0.61396 0.28882 0.99347 0.0
H335 H 0.50574 0.11394 0.97004 0.0
H336 H 0.64363 0.22852 0.89795 0.0
H337 H 0.57701 0.13536 0.05846 0.0
H338 H 0.5435 0.15537 0.93693 0.0
H339 H 0.58419 0.23474 0.01368 0.0
C340 C 0.61412 0.26426 0.97667 0.0
C341 C 0.63166 0.26303 0.94421 0.0
C342 C 0.55144 0.14966 0.96292 0.0
C343 C 0.59737 0.2015 0.96704 0.0
C344 C 0.53024 0.12578 0.98155 0.0
C345 C 0.53877 0.12097 0.01666 0.0
C346 C 0.58046 0.16917 0.98027 0.0
C347 C 0.57003 0.13795 0.03114 0.0
C348 C 0.59726 0.23354 0.98829 0.0
C349 C 0.63076 0.23041 0.92339 0.0
N350 N 0.58928 0.16224 0.01336 0.0
N351 N 0.61365 0.2007 0.93509 0.0
H352 H 0.00468 0.71537 0.48833 0.0
H353 H 0.91173 0.87863 0.55701 0.0
H354 H 0.89735 0.71929 0.48152 0.0
H355 H 0.01777 0.89143 0.53024 0.0
H356 H 0.91031 0.81516 0.55093 0.0
H357 H 0.01308 0.77558 0.51986 0.0
C358 C 0.98299 0.72892 0.4936 0.0
C359 C 0.95041 0.71296 0.48173 0.0
C360 C 0.93425 0.83182 0.54759 0.0
C361 C 0.95946 0.78038 0.51894 0.0
C362 C 0.93525 0.86813 0.55197 0.0
C363 C 0.9648 0.89019 0.54379 0.0
C364 C 0.96302 0.81758 0.5348 0.0
C365 C 0.99446 0.8752 0.53677 0.0
C366 C 0.98772 0.763 0.51173 0.0
C367 C 0.92298 0.73115 0.48952 0.0
N368 N 0.99262 0.83963 0.53123 0.0
N369 N 0.9281 0.76378 0.50766 0.0
H370 H 0.39403 0.76525 0.63508 0.0
H371 H 0.55195 0.68009 0.56022 0.0
H372 H 0.47737 0.82716 0.58635 0.0
H373 H 0.45175 0.62091 0.56508 0.0
H374 H 0.5271 0.73481 0.57016 0.0
H375 H 0.41706 0.71215 0.61277 0.0
C376 C 0.41713 0.76771 0.6196 0.0
C377 C 0.43378 0.80076 0.61259 0.0
C378 C 0.5105 0.70982 0.56815 0.0
C379 C 0.4603 0.73993 0.58689 0.0
C380 C 0.52463 0.67874 0.56207 0.0
C381 C 0.50368 0.64622 0.56103 0.0
C382 C 0.47546 0.70805 0.57453 0.0
C383 C 0.46856 0.64562 0.56486 0.0
C384 C 0.43015 0.73733 0.60667 0.0
C385 C 0.46372 0.80224 0.59243 0.0
N386 N 0.4556 0.67604 0.57208 0.0
N387 N 0.47618 0.77226 0.5805 0.0
H388 H 0.92317 0.86858 0.81416 0.0
H389 H 0.95182 0.02463 0.68905 0.0
H390 H 0.90498 0.97457 0.84552 0.0
H391 H 0.96924 0.9199 0.65119 0.0
H392 H 0.93011 0.00419 0.74481 0.0
H393 H 0.93753 0.88457 0.75367 0.0
C394 C 0.9224 0.89521 0.80844 0.0
C395 C 0.91282 0.92025 0.83503 0.0
C396 C 0.93804 0.98532 0.72426 0.0
C397 C 0.92898 0.9386 0.76594 0.0
C398 C 0.95011 -0.00303 0.69219 0.0
C399 C 0.96197 0.97384 0.66535 0.0
C400 C 0.93814 0.95019 0.73008 0.0
C401 C 0.9598 0.93841 0.67104 0.0
C402 C 0.93037 0.90424 0.77386 0.0
C403 C 0.91197 0.95427 0.82596 0.0
N404 N 0.94849 0.92768 0.70305 0.0
N405 N 0.91999 0.96237 0.79239 0.0
H406 H 0.61846 0.05224 0.33711 0.0
H407 H 0.51436 0.12206 0.1892 0.0
H408 H 0.62151 0.16157 0.32253 0.0
H409 H 0.5505 0.02267 0.16337 0.0
H410 H 0.54642 0.13133 0.24447 0.0
H411 H 0.589 0.03609 0.27855 0.0
C412 C 0.61337 0.07281 0.32154 0.0
C413 C 0.62235 0.10838 0.33501 0.0
C414 C 0.54745 0.10742 0.22685 0.0
C415 C 0.58828 0.09002 0.26875 0.0
C416 C 0.52889 0.10187 0.19507 0.0
C417 C 0.52983 0.07157 0.17094 0.0
C418 C 0.56716 0.08249 0.23547 0.0
C419 C 0.54908 0.04648 0.18096 0.0
C420 C 0.5966 0.06352 0.2882 0.0
C421 C 0.61509 0.13384 0.31359 0.0
N422 N 0.5671 0.05249 0.2126 0.0
N423 N 0.59821 0.12416 0.28195 0.0
H424 H 0.45745 0.58531 0.27451 0.0
H425 H 0.51834 0.62024 0.45823 0.0
H426 H 0.41645 0.67478 0.32593 0.0
H427 H 0.44828 0.52458 0.43421 0.0
H428 H 0.48878 0.6473 0.41383 0.0
H429 H 0.46514 0.56599 0.33351 0.0
C430 C 0.45005 0.60084 0.29822 0.0
C431 C 0.4364 0.6317 0.29549 0.0
C432 C 0.47893 0.62095 0.41965 0.0
C433 C 0.44549 0.61001 0.36264 0.0
C434 C 0.4954 0.6057 0.44537 0.0
C435 C 0.48557 0.57016 0.44985 0.0
C436 C 0.45347 0.59997 0.39792 0.0
C437 C 0.45633 0.55216 0.4317 0.0
C438 C 0.45416 0.58968 0.3317 0.0
C439 C 0.42703 0.65079 0.32707 0.0
N440 N 0.44227 0.56664 0.40522 0.0
N441 N 0.43238 0.64001 0.35963 0.0
H442 H 0.14047 0.49295 0.75275 0.0
H443 H 0.02823 0.40861 0.90185 0.0
H444 H 0.10305 0.38206 0.74571 0.0
H445 H 0.08723 0.51164 0.91906 0.0
H446 H 0.06273 0.39476 0.84974 0.0
H447 H 0.12602 0.49846 0.81616 0.0
C448 C 0.12971 0.4696 0.76463 0.0
C449 C 0.12336 0.43689 0.74377 0.0
C450 C 0.06908 0.41998 0.86561 0.0
C451 C 0.10662 0.44302 0.81671 0.0
C452 C 0.04982 0.4276 0.89592 0.0
C453 C 0.05485 0.46133 0.91477 0.0
C454 C 0.09311 0.44656 0.85381 0.0
C455 C 0.08266 0.48523 0.90539 0.0
C456 C 0.12166 0.47273 0.80099 0.0
C457 C 0.10915 0.40764 0.76069 0.0
N458 N 0.10001 0.47786 0.87484 0.0
N459 N 0.10092 0.41146 0.79601 0.0
H460 H 0.73342 0.95937 0.91381 0.0
H461 H 0.62555 0.01189 0.08479 0.0
H462 H 0.77638 0.97497 0.02074 0.0
H463 H 0.59435 0.01704 0.97618 0.0
H464 H 0.68235 0.00286 0.0633 0.0
H465 H 0.6829 0.98185 0.9371 0.0
C466 C 0.73235 0.96769 0.94225 0.0
C467 C 0.75933 0.96524 0.9653 0.0
C468 C 0.66339 0.00692 0.04426 0.0
C469 C 0.70113 0.99142 0.99234 0.0
C470 C 0.6312 0.01266 0.05661 0.0
C471 C 0.60565 0.01619 0.0323 0.0
C472 C 0.66958 0.00357 0.00722 0.0
C473 C 0.61372 0.01552 0.99588 0.0
C474 C 0.70343 0.98072 0.95554 0.0
C475 C 0.75618 0.97627 0.00197 0.0
N476 N 0.64473 0.00871 0.98439 0.0
N477 N 0.72755 0.98875 0.01438 0.0
H478 H 0.7681 0.14183 0.52007 0.0
H479 H 0.90685 0.02927 0.45738 0.0
H480 H 0.74312 0.04049 0.45845 0.0
H481 H 0.90007 0.04836 0.57256 0.0
H482 H 0.8555 0.05495 0.45127 0.0
H483 H 0.82419 0.12647 0.53467 0.0
C484 C 0.77443 0.11645 0.50967 0.0
C485 C 0.75109 0.09232 0.48798 0.0
C486 C 0.86556 0.05395 0.47785 0.0
C487 C 0.81459 0.07523 0.50396 0.0
C488 C 0.89481 0.03923 0.48151 0.0
C489 C 0.9073 0.03567 0.51564 0.0
C490 C 0.84866 0.06578 0.5084 0.0
C491 C 0.89102 0.05015 0.54579 0.0
C492 C 0.80614 0.10772 0.51823 0.0
C493 C 0.7603 0.05975 0.47535 0.0
N494 N 0.86203 0.06428 0.54151 0.0
N495 N 0.79153 0.05239 0.48303 0.0
H496 H 0.25955 0.6448 0.14826 0.0
H497 H 0.13274 0.54304 0.99355 0.0
H498 H 0.27789 0.66077 0.03751 0.0
H499 H 0.1117 0.55821 0.10664 0.0
H500 H 0.18946 0.57882 0.00577 0.0
H501 H 0.20992 0.60235 0.1301 0.0
C502 C 0.2529 0.63945 0.12002 0.0
C503 C 0.27209 0.65695 0.09438 0.0
C504 C 0.17218 0.57414 0.02766 0.0
C505 C 0.21478 0.60878 0.07326 0.0
C506 C 0.13996 0.55407 0.02069 0.0
C507 C 0.11791 0.54744 0.04923 0.0
C508 C 0.18169 0.58732 0.06323 0.0
C509 C 0.12819 0.56208 0.08394 0.0
C510 C 0.22457 0.61516 0.10959 0.0
C511 C 0.26315 0.64811 0.05803 0.0
N512 N 0.15921 0.58114 0.08987 0.0
N513 N 0.23461 0.62489 0.04843 0.0
H514 H 0.24305 0.52516 0.60634 0.0
H515 H 0.41817 0.46514 0.53749 0.0
H516 H 0.24955 0.41579 0.5755 0.0
H517 H 0.40788 0.56178 0.60269 0.0
H518 H 0.35587 0.44728 0.54076 0.0
H519 H 0.30303 0.53988 0.59426 0.0
C520 C 0.25708 0.5042 0.59667 0.0
C521 C 0.24128 0.4692 0.59205 0.0
C522 C 0.36749 0.4724 0.55413 0.0
C523 C 0.31051 0.48595 0.57809 0.0
C524 C 0.40282 0.48266 0.55205 0.0
C525 C 0.41811 0.51487 0.57004 0.0
C526 C 0.34773 0.49495 0.57371 0.0
C527 C 0.39725 0.53657 0.58873 0.0
C528 C 0.29147 0.51261 0.58989 0.0
C529 C 0.26091 0.44312 0.57966 0.0
N530 N 0.36335 0.52623 0.59003 0.0
N531 N 0.29468 0.45201 0.57307 0.0
H532 H 0.89074 0.73529 0.93126 0.0
H533 H 0.02443 0.63426 0.02205 0.0
H534 H 0.97478 0.7911 0.99661 0.0
H535 H 0.942 0.58568 0.95084 0.0
H536 H 0.00506 0.6917 0.01894 0.0
H537 H 0.90811 0.68009 0.94267 0.0
C538 C 0.91287 0.73597 0.94814 0.0
C539 C 0.93131 0.76799 0.96289 0.0
C540 C 0.99109 0.6683 0.00438 0.0
C541 C 0.95155 0.70425 0.97642 0.0
C542 C 0.00191 0.63559 0.0065 0.0
C543 C 0.98468 0.60528 0.98676 0.0
C544 C 0.96296 0.67034 0.98239 0.0
C545 C 0.956 0.60842 0.96651 0.0
C546 C 0.92284 0.7043 0.95473 0.0
C547 C 0.95989 0.76701 0.98452 0.0
N548 N 0.94627 0.64017 0.9647 0.0
N549 N 0.96917 0.73565 0.99064 0.0
H550 H 0.3757 0.7873 0.18176 0.0
H551 H 0.50624 0.94408 0.12137 0.0
H552 H 0.47898 0.77708 0.1526 0.0
H553 H 0.40789 0.91842 0.06974 0.0
H554 H 0.49181 0.89451 0.15648 0.0
H555 H 0.38357 0.84555 0.16068 0.0
C556 C 0.39982 0.79695 0.17046 0.0
C557 C 0.42641 0.77674 0.16789 0.0
C558 C 0.47288 0.90074 0.13858 0.0
C559 C 0.4361 0.84418 0.14629 0.0
C560 C 0.48074 0.92946 0.11916 0.0
C561 C 0.45805 0.93547 0.09289 0.0
C562 C 0.44173 0.87867 0.13244 0.0
C563 C 0.42584 0.91484 0.0901 0.0
C564 C 0.40438 0.83041 0.15906 0.0
C565 C 0.45779 0.79166 0.15504 0.0
N566 N 0.41869 0.88693 0.10934 0.0
N567 N 0.46179 0.82453 0.14473 0.0
H568 H 0.00939 0.27848 0.64203 0.0
H569 H 0.05566 0.10528 0.53581 0.0
H570 H 0.10899 0.25912 0.60743 0.0
H571 H 0.96741 0.10974 0.60164 0.0
H572 H 0.06268 0.16896 0.53592 0.0
H573 H 0.98437 0.2245 0.60524 0.0
C574 C 0.02591 0.2632 0.62619 0.0
C575 C 0.06132 0.27264 0.6284 0.0
C576 C 0.04082 0.15588 0.549 0.0
C577 C 0.03294 0.21174 0.58577 0.0
C578 C 0.0364 0.11943 0.54831 0.0
C579 C 0.01155 0.10267 0.56966 0.0
C580 C 0.02013 0.17514 0.57124 0.0
C581 C 0.98731 0.12205 0.5854 0.0
C582 C 0.01162 0.2326 0.60508 0.0
C583 C 0.0816 0.25222 0.60714 0.0
N584 N 0.99291 0.15762 0.58714 0.0
N585 N 0.06714 0.22253 0.58698 0.0
H586 H 0.55307 0.24978 0.4283 0.0
H587 H 0.57288 0.43513 0.54903 0.0
H588 H 0.63265 0.2822 0.50802 0.0
H589 H 0.49934 0.40112 0.46361 0.0
H590 H 0.58949 0.37612 0.54241 0.0
H591 H 0.52847 0.30215 0.44777 0.0
C592 C 0.56532 0.26783 0.45013 0.0
C593 C 0.59512 0.2616 0.4664 0.0
C594 C 0.56923 0.38144 0.52567 0.0
C595 C 0.5669 0.32219 0.48898 0.0
C596 C 0.55945 0.41492 0.52979 0.0
C597 C 0.53479 0.42292 0.50675 0.0
C598 C 0.55406 0.35606 0.49845 0.0
C599 C 0.51856 0.39604 0.48182 0.0
C600 C 0.55117 0.29784 0.46132 0.0
C601 C 0.6097 0.28603 0.49466 0.0
N602 N 0.52873 0.36404 0.47809 0.0
N603 N 0.59558 0.31544 0.5049 0.0
loop_
_geom_bond_atom_site_label_1
_geom_bond_atom_site_label_2
_geom_bond_distance
_geom_bond_site_symmetry_2
_ccdc_geom_bond_type
O0 Cd1 2.300 . S
O0 C7 1.275 . S
Cd1 O0 2.300 . S
Cd1 O9 2.381 . S
Cd1 O10 2.378 . S
O2 Cd3 2.385 . S
O2 C7 1.255 . S
Cd3 O2 2.385 . S
Cd3 O4 2.317 . S
O4 Cd3 2.317 . S
O4 C5 1.232 . S
C5 O4 1.232 . S
C5 O6 1.218 . S
O6 C5 1.218 . S
C7 O0 1.275 . S
C7 O2 1.255 . S
C8 O9 1.258 . S
C8 O10 1.256 . S
O9 Cd1 2.381 . S
O9 C8 1.258 . S
O10 Cd1 2.378 . S
O10 C8 1.256 . S
O11 Cd12 2.300 . S
O11 C18 1.275 . S
Cd12 O11 2.300 . S
Cd12 O20 2.381 . S
Cd12 O21 2.378 . S
O13 Cd14 2.385 . S
O13 C18 1.255 . S
Cd14 O13 2.385 . S
Cd14 O15 2.317 . S
O15 Cd14 2.317 . S
O15 C16 1.232 . S
C16 O15 1.232 . S
C16 O17 1.218 . S
O17 C16 1.218 . S
C18 O11 1.275 . S
C18 O13 1.255 . S
C19 O20 1.258 . S
C19 O21 1.256 . S
O20 Cd12 2.381 . S
O20 C19 1.258 . S
O21 Cd12 2.378 . S
O21 C19 1.256 . S
O22 Cd23 2.300 . S
O22 C29 1.275 . S
Cd23 O22 2.300 . S
Cd23 O31 2.381 . S
Cd23 O32 2.378 . S
O24 Cd25 2.385 . S
O24 C29 1.255 . S
Cd25 O24 2.385 . S
Cd25 O26 2.317 . S
O26 Cd25 2.317 . S
O26 C27 1.232 . S
C27 O26 1.232 . S
C27 O28 1.218 . S
O28 C27 1.218 . S
C29 O22 1.275 . S
C29 O24 1.255 . S
C30 O31 1.258 . S
C30 O32 1.256 . S
O31 Cd23 2.381 . S
O31 C30 1.258 . S
O32 Cd23 2.378 . S
O32 C30 1.256 . S
O33 Cd34 2.300 . S
O33 C40 1.275 . S
Cd34 O33 2.300 . S
Cd34 O42 2.381 . S
Cd34 O43 2.378 . S
O35 Cd36 2.385 . S
O35 C40 1.255 . S
Cd36 O35 2.385 . S
Cd36 O37 2.317 . S
O37 Cd36 2.317 . S
O37 C38 1.232 . S
C38 O37 1.232 . S
C38 O39 1.218 . S
O39 C38 1.218 . S
C40 O33 1.275 . S
C40 O35 1.255 . S
C41 O42 1.258 . S
C41 O43 1.256 . S
O42 Cd34 2.381 . S
O42 C41 1.258 . S
O43 Cd34 2.378 . S
O43 C41 1.256 . S
O44 Cd45 2.300 . S
O44 C51 1.275 . S
Cd45 O44 2.300 . S
Cd45 O53 2.381 . S
Cd45 O54 2.378 . S
O46 Cd47 2.385 . S
O46 C51 1.255 . S
Cd47 O46 2.385 . S
Cd47 O48 2.317 . S
O48 Cd47 2.317 . S
O48 C49 1.232 . S
C49 O48 1.232 . S
C49 O50 1.218 . S
O50 C49 1.218 . S
C51 O44 1.275 . S
C51 O46 1.255 . S
C52 O53 1.258 . S
C52 O54 1.256 . S
O53 Cd45 2.381 . S
O53 C52 1.258 . S
O54 Cd45 2.378 . S
O54 C52 1.256 . S
O55 Cd56 2.300 . S
O55 C62 1.275 . S
Cd56 O55 2.300 . S
Cd56 O64 2.381 . S
Cd56 O65 2.378 . S
O57 Cd58 2.385 . S
O57 C62 1.255 . S
Cd58 O57 2.385 . S
Cd58 O59 2.317 . S
O59 Cd58 2.317 . S
O59 C60 1.232 . S
C60 O59 1.232 . S
C60 O61 1.218 . S
O61 C60 1.218 . S
C62 O55 1.275 . S
C62 O57 1.255 . S
C63 O64 1.258 . S
C63 O65 1.256 . S
O64 Cd56 2.381 . S
O64 C63 1.258 . S
O65 Cd56 2.378 . S
O65 C63 1.256 . S
O66 Cd67 2.300 . S
O66 C73 1.275 . S
Cd67 O66 2.300 . S
Cd67 O75 2.381 . S
Cd67 O76 2.378 . S
O68 Cd69 2.385 . S
O68 C73 1.255 . S
Cd69 O68 2.385 . S
Cd69 O70 2.317 . S
O70 Cd69 2.317 . S
O70 C71 1.232 . S
C71 O70 1.232 . S
C71 O72 1.218 . S
O72 C71 1.218 . S
C73 O66 1.275 . S
C73 O68 1.255 . S
C74 O75 1.258 . S
C74 O76 1.256 . S
O75 Cd67 2.381 . S
O75 C74 1.258 . S
O76 Cd67 2.378 . S
O76 C74 1.256 . S
O77 Cd78 2.300 . S
O77 C84 1.275 . S
Cd78 O77 2.300 . S
Cd78 O86 2.381 . S
Cd78 O87 2.378 . S
O79 Cd80 2.385 . S
O79 C84 1.255 . S
Cd80 O79 2.385 . S
Cd80 O81 2.317 . S
O81 Cd80 2.317 . S
O81 C82 1.232 . S
C82 O81 1.232 . S
C82 O83 1.218 . S
O83 C82 1.218 . S
C84 O77 1.275 . S
C84 O79 1.255 . S
C85 O86 1.258 . S
C85 O87 1.256 . S
O86 Cd78 2.381 . S
O86 C85 1.258 . S
O87 Cd78 2.378 . S
O87 C85 1.256 . S
O88 Mn89 2.163 1_655 S
O88 C102 1.244 . S
Mn89 O88 2.163 1_455 S
Mn89 O92 2.160 1_545 S
Mn89 O93 2.221 . S
Mn89 O95 2.163 1_445 S
Mn89 O97 2.160 . S
Mn89 O107 2.221 1_445 S
O90 Mn91 2.087 . S
O90 C102 1.256 1_565 S
Mn91 O90 2.087 . S
Mn91 O98 2.089 1_565 S
Mn91 O107 2.290 . S
Mn91 O108 2.251 . S
O92 Mn89 2.160 1_565 S
O92 C103 1.239 . S
O93 Mn89 2.221 . S
O93 Mn94 2.290 . S
O93 C104 1.278 . S
Mn94 O93 2.290 . S
Mn94 O96 2.089 . S
Mn94 O99 2.251 . S
Mn94 O100 2.087 . S
O95 Mn89 2.163 1_665 S
O95 C105 1.244 . S
O96 Mn94 2.089 . S
O96 C103 1.256 1_545 S
O97 Mn89 2.160 . S
O97 C106 1.239 . S
O98 Mn91 2.089 1_545 S
O98 C106 1.256 1_655 S
O99 Mn94 2.251 . S
O99 C104 1.241 . S
O100 Mn94 2.087 . S
O100 C105 1.256 1_445 S
C101 O107 1.278 . S
C101 O108 1.241 . S
C102 O88 1.244 . S
C102 O90 1.256 1_545 S
C103 O92 1.239 . S
C103 O96 1.256 1_565 S
C104 O93 1.278 . S
C104 O99 1.241 . S
C105 O95 1.244 . S
C105 O100 1.256 1_665 S
C106 O97 1.239 . S
C106 O98 1.256 1_455 S
O107 Mn89 2.221 1_665 S
O107 Mn91 2.290 . S
O107 C101 1.278 . S
O108 Mn91 2.251 . S
O108 C101 1.241 . S
O109 Mn110 2.163 . S
O109 C123 1.244 1_554 S
Mn110 O109 2.163 . S
Mn110 O113 2.160 . S
Mn110 O114 2.221 . S
Mn110 O116 2.163 . S
Mn110 O118 2.160 . S
Mn110 O128 2.221 1_545 S
O111 Mn112 2.087 1_556 S
O111 C123 1.256 1_565 S
Mn112 O111 2.087 1_554 S
Mn112 O119 2.089 . S
Mn112 O128 2.290 . S
Mn112 O129 2.251 . S
O113 Mn110 2.160 . S
O113 C124 1.239 . S
O114 Mn110 2.221 . S
O114 Mn115 2.290 . S
O114 C125 1.278 . S
Mn115 O114 2.290 . S
Mn115 O117 2.089 . S
Mn115 O120 2.251 . S
Mn115 O121 2.087 . S
O116 Mn110 2.163 . S
O116 C126 1.244 . S
O117 Mn115 2.089 . S
O117 C124 1.256 . S
O118 Mn110 2.160 . S
O118 C127 1.239 . S
O119 Mn112 2.089 . S
O119 C127 1.256 1_565 S
O120 Mn115 2.251 . S
O120 C125 1.241 . S
O121 Mn115 2.087 . S
O121 C126 1.256 . S
C122 O128 1.278 . S
C122 O129 1.241 . S
C123 O109 1.244 1_556 S
C123 O111 1.256 1_545 S
C124 O113 1.239 . S
C124 O117 1.256 . S
C125 O114 1.278 . S
C125 O120 1.241 . S
C126 O116 1.244 . S
C126 O121 1.256 . S
C127 O118 1.239 . S
C127 O119 1.256 1_545 S
O128 Mn110 2.221 1_565 S
O128 Mn112 2.290 . S
O128 C122 1.278 . S
O129 Mn112 2.251 . S
O129 C122 1.241 . S
O130 Mn131 2.163 . S
O130 C144 1.244 . S
Mn131 O130 2.163 . S
Mn131 O134 2.160 . S
Mn131 O135 2.221 . S
Mn131 O137 2.163 . S
Mn131 O139 2.160 . S
Mn131 O149 2.221 . S
O132 Mn133 2.087 . S
O132 C144 1.256 . S
Mn133 O132 2.087 . S
Mn133 O140 2.089 . S
Mn133 O149 2.290 . S
Mn133 O150 2.251 . S
O134 Mn131 2.160 . S
O134 C145 1.239 . S
O135 Mn131 2.221 . S
O135 Mn136 2.290 . S
O135 C146 1.278 . S
Mn136 O135 2.290 . S
Mn136 O138 2.089 . S
Mn136 O141 2.251 . S
Mn136 O142 2.087 . S
O137 Mn131 2.163 . S
O137 C147 1.244 . S
O138 Mn136 2.089 . S
O138 C145 1.256 . S
O139 Mn131 2.160 . S
O139 C148 1.239 . S
O140 Mn133 2.089 . S
O140 C148 1.256 . S
O141 Mn136 2.251 . S
O141 C146 1.241 . S
O142 Mn136 2.087 . S
O142 C147 1.256 . S
C143 O149 1.278 . S
C143 O150 1.241 . S
C144 O130 1.244 . S
C144 O132 1.256 . S
C145 O134 1.239 . S
C145 O138 1.256 . S
C146 O135 1.278 . S
C146 O141 1.241 . S
C147 O137 1.244 . S
C147 O142 1.256 . S
C148 O139 1.239 . S
C148 O140 1.256 . S
O149 Mn131 2.221 . S
O149 Mn133 2.290 . S
O149 C143 1.278 . S
O150 Mn133 2.251 . S
O150 C143 1.241 . S
O151 Mn152 2.163 1_655 S
O151 C165 1.244 1_554 S
Mn152 O151 2.163 1_455 S
Mn152 O155 2.160 . S
Mn152 O156 2.221 . S
Mn152 O158 2.163 . S
Mn152 O160 2.160 . S
Mn152 O170 2.221 1_554 S
O153 Mn154 2.087 . S
O153 C165 1.256 . S
Mn154 O153 2.087 . S
Mn154 O161 2.089 . S
Mn154 O170 2.290 1_655 S
Mn154 O171 2.251 1_655 S
O155 Mn152 2.160 . S
O155 C166 1.239 . S
O156 Mn152 2.221 . S
O156 Mn157 2.290 . S
O156 C167 1.278 1_455 S
Mn157 O156 2.290 . S
Mn157 O159 2.089 . S
Mn157 O162 2.251 . S
Mn157 O163 2.087 . S
O158 Mn152 2.163 . S
O158 C168 1.244 . S
O159 Mn157 2.089 . S
O159 C166 1.256 . S
O160 Mn152 2.160 . S
O160 C169 1.239 1_454 S
O161 Mn154 2.089 . S
O161 C169 1.256 . S
O162 Mn157 2.251 . S
O162 C167 1.241 1_455 S
O163 Mn157 2.087 . S
O163 C168 1.256 . S
C164 O170 1.278 . S
C164 O171 1.241 . S
C165 O151 1.244 1_556 S
C165 O153 1.256 . S
C166 O155 1.239 . S
C166 O159 1.256 . S
C167 O156 1.278 1_655 S
C167 O162 1.241 1_655 S
C168 O158 1.244 . S
C168 O163 1.256 . S
C169 O160 1.239 1_656 S
C169 O161 1.256 . S
O170 Mn152 2.221 1_556 S
O170 Mn154 2.290 1_455 S
O170 C164 1.278 . S
O171 Mn154 2.251 1_455 S
O171 C164 1.241 . S
H172 C178 0.930 . S
H173 C182 0.930 . S
H174 C187 0.929 . S
H175 C185 0.929 1_565 S
H176 C180 0.929 . S
H177 C186 0.929 . S
C178 H172 0.930 . S
C178 C179 1.367 . S
C178 C186 1.378 . S
C179 C178 1.367 . S
C179 C187 1.433 . S
C180 H176 0.929 . S
C180 C182 1.378 . S
C180 C184 1.350 . S
C181 C184 1.463 . S
C181 C186 1.350 . S
C181 N189 1.427 . S
C182 H173 0.930 . S
C182 C180 1.378 . S
C182 C183 1.367 . S
C183 C182 1.367 . S
C183 C185 1.433 . S
C184 C180 1.350 . S
C184 C181 1.463 . S
C184 N188 1.427 . S
C185 H175 0.929 1_545 S
C185 C183 1.433 . S
C185 N188 1.384 . S
C186 H177 0.929 . S
C186 C178 1.378 . S
C186 C181 1.350 . S
C187 H174 0.929 . S
C187 C179 1.433 . S
C187 N189 1.384 . S
N188 C184 1.427 . S
N188 C185 1.384 . S
N189 C181 1.427 . S
N189 C187 1.384 . S
H190 C196 0.930 . S
H191 C200 0.930 . S
H192 C205 0.929 . S
H193 C203 0.929 . S
H194 C198 0.929 . S
H195 C204 0.929 1_545 S
C196 H190 0.930 . S
C196 C197 1.367 . S
C196 C204 1.378 . S
C197 C196 1.367 . S
C197 C205 1.433 . S
C198 H194 0.929 . S
C198 C200 1.378 . S
C198 C202 1.350 . S
C199 C202 1.463 . S
C199 C204 1.350 . S
C199 N207 1.427 . S
C200 H191 0.930 . S
C200 C198 1.378 . S
C200 C201 1.367 1_565 S
C201 C200 1.367 1_545 S
C201 C203 1.433 . S
C202 C198 1.350 . S
C202 C199 1.463 . S
C202 N206 1.427 1_565 S
C203 H193 0.929 . S
C203 C201 1.433 . S
C203 N206 1.384 . S
C204 H195 0.929 1_565 S
C204 C196 1.378 . S
C204 C199 1.350 . S
C205 H192 0.929 . S
C205 C197 1.433 . S
C205 N207 1.384 . S
N206 C202 1.427 1_545 S
N206 C203 1.384 . S
N207 C199 1.427 . S
N207 C205 1.384 . S
H208 C214 0.930 . S
H209 C218 0.930 . S
H210 C223 0.929 . S
H211 C221 0.929 . S
H212 C216 0.929 . S
H213 C222 0.929 . S
C214 H208 0.930 . S
C214 C215 1.367 . S
C214 C222 1.378 . S
C215 C214 1.367 . S
C215 C223 1.433 . S
C216 H212 0.929 . S
C216 C218 1.378 . S
C216 C220 1.350 . S
C217 C220 1.463 . S
C217 C222 1.350 . S
C217 N225 1.427 . S
C218 H209 0.930 . S
C218 C216 1.378 . S
C218 C219 1.367 . S
C219 C218 1.367 . S
C219 C221 1.433 . S
C220 C216 1.350 . S
C220 C217 1.463 . S
C220 N224 1.427 . S
C221 H211 0.929 . S
C221 C219 1.433 . S
C221 N224 1.384 . S
C222 H213 0.929 . S
C222 C214 1.378 . S
C222 C217 1.350 . S
C223 H210 0.929 . S
C223 C215 1.433 . S
C223 N225 1.384 . S
N224 C220 1.427 . S
N224 C221 1.384 . S
N225 C217 1.427 . S
N225 C223 1.384 . S
H226 C232 0.930 . S
H227 C236 0.930 . S
H228 C241 0.929 . S
H229 C239 0.929 . S
H230 C234 0.929 . S
H231 C240 0.929 . S
C232 H226 0.930 . S
C232 C233 1.367 . S
C232 C240 1.378 . S
C233 C232 1.367 . S
C233 C241 1.433 . S
C234 H230 0.929 . S
C234 C236 1.378 . S
C234 C238 1.350 . S
C235 C238 1.463 . S
C235 C240 1.350 . S
C235 N243 1.427 . S
C236 H227 0.930 . S
C236 C234 1.378 . S
C236 C237 1.367 . S
C237 C236 1.367 . S
C237 C239 1.433 . S
C238 C234 1.350 . S
C238 C235 1.463 . S
C238 N242 1.427 . S
C239 H229 0.929 . S
C239 C237 1.433 . S
C239 N242 1.384 . S
C240 H231 0.929 . S
C240 C232 1.378 . S
C240 C235 1.350 . S
C241 H228 0.929 . S
C241 C233 1.433 . S
C241 N243 1.384 . S
N242 C238 1.427 . S
N242 C239 1.384 . S
N243 C235 1.427 . S
N243 C241 1.384 . S
H244 C250 0.930 . S
H245 C254 0.930 . S
H246 C259 0.929 . S
H247 C257 0.929 . S
H248 C252 0.929 . S
H249 C258 0.929 . S
C250 H244 0.930 . S
C250 C251 1.367 . S
C250 C258 1.378 . S
C251 C250 1.367 . S
C251 C259 1.433 . S
C252 H248 0.929 . S
C252 C254 1.378 . S
C252 C256 1.350 . S
C253 C256 1.463 . S
C253 C258 1.350 . S
C253 N261 1.427 . S
C254 H245 0.930 . S
C254 C252 1.378 . S
C254 C255 1.367 . S
C255 C254 1.367 . S
C255 C257 1.433 . S
C256 C252 1.350 . S
C256 C253 1.463 . S
C256 N260 1.427 . S
C257 H247 0.929 . S
C257 C255 1.433 . S
C257 N260 1.384 . S
C258 H249 0.929 . S
C258 C250 1.378 . S
C258 C253 1.350 . S
C259 H246 0.929 . S
C259 C251 1.433 . S
C259 N261 1.384 . S
N260 C256 1.427 . S
N260 C257 1.384 . S
N261 C253 1.427 . S
N261 C259 1.384 . S
H262 C268 0.930 . S
H263 C272 0.930 . S
H264 C277 0.929 . S
H265 C275 0.929 1_545 S
H266 C270 0.929 . S
H267 C276 0.929 1_545 S
C268 H262 0.930 . S
C268 C269 1.367 . S
C268 C276 1.378 . S
C269 C268 1.367 . S
C269 C277 1.433 . S
C270 H266 0.929 . S
C270 C272 1.378 . S
C270 C274 1.350 . S
C271 C274 1.463 . S
C271 C276 1.350 . S
C271 N279 1.427 . S
C272 H263 0.930 . S
C272 C270 1.378 . S
C272 C273 1.367 . S
C273 C272 1.367 . S
C273 C275 1.433 . S
C274 C270 1.350 . S
C274 C271 1.463 . S
C274 N278 1.427 . S
C275 H265 0.929 1_565 S
C275 C273 1.433 . S
C275 N278 1.384 . S
C276 H267 0.929 1_565 S
C276 C268 1.378 . S
C276 C271 1.350 . S
C277 H264 0.929 . S
C277 C269 1.433 . S
C277 N279 1.384 . S
N278 C274 1.427 . S
N278 C275 1.384 . S
N279 C271 1.427 . S
N279 C277 1.384 . S
H280 C286 0.930 . S
H281 C290 0.930 . S
H282 C295 0.929 . S
H283 C293 0.929 1_554 S
H284 C288 0.929 . S
H285 C294 0.929 . S
C286 H280 0.930 . S
C286 C287 1.367 . S
C286 C294 1.378 . S
C287 C286 1.367 . S
C287 C295 1.433 . S
C288 H284 0.929 . S
C288 C290 1.378 . S
C288 C292 1.350 . S
C289 C292 1.463 . S
C289 C294 1.350 . S
C289 N297 1.427 . S
C290 H281 0.930 . S
C290 C288 1.378 . S
C290 C291 1.367 . S
C291 C290 1.367 . S
C291 C293 1.433 . S
C292 C288 1.350 . S
C292 C289 1.463 . S
C292 N296 1.427 . S
C293 H283 0.929 1_556 S
C293 C291 1.433 . S
C293 N296 1.384 . S
C294 H285 0.929 . S
C294 C286 1.378 . S
C294 C289 1.350 . S
C295 H282 0.929 . S
C295 C287 1.433 . S
C295 N297 1.384 . S
N296 C292 1.427 . S
N296 C293 1.384 . S
N297 C289 1.427 . S
N297 C295 1.384 . S
H298 C304 0.930 . S
H299 C308 0.930 . S
H300 C313 0.929 . S
H301 C311 0.929 . S
H302 C306 0.929 . S
H303 C312 0.929 . S
C304 H298 0.930 . S
C304 C305 1.367 . S
C304 C312 1.378 . S
C305 C304 1.367 . S
C305 C313 1.433 . S
C306 H302 0.929 . S
C306 C308 1.378 . S
C306 C310 1.350 . S
C307 C310 1.463 . S
C307 C312 1.350 . S
C307 N315 1.427 . S
C308 H299 0.930 . S
C308 C306 1.378 . S
C308 C309 1.367 . S
C309 C308 1.367 . S
C309 C311 1.433 . S
C310 C306 1.350 . S
C310 C307 1.463 . S
C310 N314 1.427 . S
C311 H301 0.929 . S
C311 C309 1.433 . S
C311 N314 1.384 . S
C312 H303 0.929 . S
C312 C304 1.378 . S
C312 C307 1.350 . S
C313 H300 0.929 . S
C313 C305 1.433 . S
C313 N315 1.384 . S
N314 C310 1.427 . S
N314 C311 1.384 . S
N315 C307 1.427 . S
N315 C313 1.384 . S
H316 C322 0.930 . S
H317 C326 0.930 . S
H318 C331 0.929 . S
H319 C329 0.929 . S
H320 C324 0.929 . S
H321 C330 0.929 . S
C322 H316 0.930 . S
C322 C323 1.367 . S
C322 C330 1.378 . S
C323 C322 1.367 . S
C323 C331 1.433 . S
C324 H320 0.929 . S
C324 C326 1.378 . S
C324 C328 1.350 . S
C325 C328 1.463 . S
C325 C330 1.350 . S
C325 N333 1.427 . S
C326 H317 0.930 . S
C326 C324 1.378 . S
C326 C327 1.367 . S
C327 C326 1.367 . S
C327 C329 1.433 . S
C328 C324 1.350 . S
C328 C325 1.463 . S
C328 N332 1.427 . S
C329 H319 0.929 . S
C329 C327 1.433 . S
C329 N332 1.384 . S
C330 H321 0.929 . S
C330 C322 1.378 . S
C330 C325 1.350 . S
C331 H318 0.929 . S
C331 C323 1.433 . S
C331 N333 1.384 . S
N332 C328 1.427 . S
N332 C329 1.384 . S
N333 C325 1.427 . S
N333 C331 1.384 . S
H334 C340 0.930 1_554 S
H335 C344 0.930 . S
H336 C349 0.929 . S
H337 C347 0.929 . S
H338 C342 0.929 . S
H339 C348 0.929 . S
C340 H334 0.930 1_556 S
C340 C341 1.367 . S
C340 C348 1.378 1_556 S
C341 C340 1.367 . S
C341 C349 1.433 . S
C342 H338 0.929 . S
C342 C344 1.378 . S
C342 C346 1.350 . S
C343 C346 1.463 . S
C343 C348 1.350 1_556 S
C343 N351 1.427 . S
C344 H335 0.930 . S
C344 C342 1.378 . S
C344 C345 1.367 1_556 S
C345 C344 1.367 1_554 S
C345 C347 1.433 . S
C346 C342 1.350 . S
C346 C343 1.463 . S
C346 N350 1.427 1_556 S
C347 H337 0.929 . S
C347 C345 1.433 . S
C347 N350 1.384 . S
C348 H339 0.929 . S
C348 C340 1.378 1_554 S
C348 C343 1.350 1_554 S
C349 H336 0.929 . S
C349 C341 1.433 . S
C349 N351 1.384 . S
N350 C346 1.427 1_554 S
N350 C347 1.384 . S
N351 C343 1.427 . S
N351 C349 1.384 . S
H352 C358 0.930 . S
H353 C362 0.930 . S
H354 C367 0.929 . S
H355 C365 0.929 1_455 S
H356 C360 0.929 . S
H357 C366 0.929 . S
C358 H352 0.930 . S
C358 C359 1.367 . S
C358 C366 1.378 . S
C359 C358 1.367 . S
C359 C367 1.433 . S
C360 H356 0.929 . S
C360 C362 1.378 . S
C360 C364 1.350 . S
C361 C364 1.463 . S
C361 C366 1.350 . S
C361 N369 1.427 . S
C362 H353 0.930 . S
C362 C360 1.378 . S
C362 C363 1.367 . S
C363 C362 1.367 . S
C363 C365 1.433 . S
C364 C360 1.350 . S
C364 C361 1.463 . S
C364 N368 1.427 . S
C365 H355 0.929 1_655 S
C365 C363 1.433 . S
C365 N368 1.384 . S
C366 H357 0.929 . S
C366 C358 1.378 . S
C366 C361 1.350 . S
C367 H354 0.929 . S
C367 C359 1.433 . S
C367 N369 1.384 . S
N368 C364 1.427 . S
N368 C365 1.384 . S
N369 C361 1.427 . S
N369 C367 1.384 . S
H370 C376 0.930 . S
H371 C380 0.930 . S
H372 C385 0.929 . S
H373 C383 0.929 . S
H374 C378 0.929 . S
H375 C384 0.929 . S
C376 H370 0.930 . S
C376 C377 1.367 . S
C376 C384 1.378 . S
C377 C376 1.367 . S
C377 C385 1.433 . S
C378 H374 0.929 . S
C378 C380 1.378 . S
C378 C382 1.350 . S
C379 C382 1.463 . S
C379 C384 1.350 . S
C379 N387 1.427 . S
C380 H371 0.930 . S
C380 C378 1.378 . S
C380 C381 1.367 . S
C381 C380 1.367 . S
C381 C383 1.433 . S
C382 C378 1.350 . S
C382 C379 1.463 . S
C382 N386 1.427 . S
C383 H373 0.929 . S
C383 C381 1.433 . S
C383 N386 1.384 . S
C384 H375 0.929 . S
C384 C376 1.378 . S
C384 C379 1.350 . S
C385 H372 0.929 . S
C385 C377 1.433 . S
C385 N387 1.384 . S
N386 C382 1.427 . S
N386 C383 1.384 . S
N387 C379 1.427 . S
N387 C385 1.384 . S
H388 C394 0.930 . S
H389 C398 0.930 1_445 S
H390 C403 0.929 . S
H391 C401 0.929 . S
H392 C396 0.929 1_545 S
H393 C402 0.929 . S
C394 H388 0.930 . S
C394 C395 1.367 . S
C394 C402 1.378 . S
C395 C394 1.367 . S
C395 C403 1.433 . S
C396 H392 0.929 1_565 S
C396 C398 1.378 . S
C396 C400 1.350 . S
C397 C400 1.463 . S
C397 C402 1.350 . S
C397 N405 1.427 . S
C398 H389 0.930 1_665 S
C398 C396 1.378 . S
C398 C399 1.367 . S
C399 C398 1.367 . S
C399 C401 1.433 . S
C400 C396 1.350 . S
C400 C397 1.463 . S
C400 N404 1.427 . S
C401 H391 0.929 . S
C401 C399 1.433 . S
C401 N404 1.384 . S
C402 H393 0.929 . S
C402 C394 1.378 . S
C402 C397 1.350 . S
C403 H390 0.929 . S
C403 C395 1.433 . S
C403 N405 1.384 . S
N404 C400 1.427 . S
N404 C401 1.384 . S
N405 C397 1.427 . S
N405 C403 1.384 . S
H406 C412 0.930 . S
H407 C416 0.930 . S
H408 C421 0.929 . S
H409 C419 0.929 . S
H410 C414 0.929 . S
H411 C420 0.929 . S
C412 H406 0.930 . S
C412 C413 1.367 . S
C412 C420 1.378 . S
C413 C412 1.367 . S
C413 C421 1.433 . S
C414 H410 0.929 . S
C414 C416 1.378 . S
C414 C418 1.350 . S
C415 C418 1.463 . S
C415 C420 1.350 . S
C415 N423 1.427 . S
C416 H407 0.930 . S
C416 C414 1.378 . S
C416 C417 1.367 . S
C417 C416 1.367 . S
C417 C419 1.433 . S
C418 C414 1.350 . S
C418 C415 1.463 . S
C418 N422 1.427 . S
C419 H409 0.929 . S
C419 C417 1.433 . S
C419 N422 1.384 . S
C420 H411 0.929 . S
C420 C412 1.378 . S
C420 C415 1.350 . S
C421 H408 0.929 . S
C421 C413 1.433 . S
C421 N423 1.384 . S
N422 C418 1.427 . S
N422 C419 1.384 . S
N423 C415 1.427 . S
N423 C421 1.384 . S
H424 C430 0.930 . S
H425 C434 0.930 . S
H426 C439 0.929 . S
H427 C437 0.929 . S
H428 C432 0.929 . S
H429 C438 0.929 . S
C430 H424 0.930 . S
C430 C431 1.367 . S
C430 C438 1.378 . S
C431 C430 1.367 . S
C431 C439 1.433 . S
C432 H428 0.929 . S
C432 C434 1.378 . S
C432 C436 1.350 . S
C433 C436 1.463 . S
C433 C438 1.350 . S
C433 N441 1.427 . S
C434 H425 0.930 . S
C434 C432 1.378 . S
C434 C435 1.367 . S
C435 C434 1.367 . S
C435 C437 1.433 . S
C436 C432 1.350 . S
C436 C433 1.463 . S
C436 N440 1.427 . S
C437 H427 0.929 . S
C437 C435 1.433 . S
C437 N440 1.384 . S
C438 H429 0.929 . S
C438 C430 1.378 . S
C438 C433 1.350 . S
C439 H426 0.929 . S
C439 C431 1.433 . S
C439 N441 1.384 . S
N440 C436 1.427 . S
N440 C437 1.384 . S
N441 C433 1.427 . S
N441 C439 1.384 . S
H442 C448 0.930 . S
H443 C452 0.930 . S
H444 C457 0.929 . S
H445 C455 0.929 . S
H446 C450 0.929 . S
H447 C456 0.929 . S
C448 H442 0.930 . S
C448 C449 1.367 . S
C448 C456 1.378 . S
C449 C448 1.367 . S
C449 C457 1.433 . S
C450 H446 0.929 . S
C450 C452 1.378 . S
C450 C454 1.350 . S
C451 C454 1.463 . S
C451 C456 1.350 . S
C451 N459 1.427 . S
C452 H443 0.930 . S
C452 C450 1.378 . S
C452 C453 1.367 . S
C453 C452 1.367 . S
C453 C455 1.433 . S
C454 C450 1.350 . S
C454 C451 1.463 . S
C454 N458 1.427 . S
C455 H445 0.929 . S
C455 C453 1.433 . S
C455 N458 1.384 . S
C456 H447 0.929 . S
C456 C448 1.378 . S
C456 C451 1.350 . S
C457 H444 0.929 . S
C457 C449 1.433 . S
C457 N459 1.384 . S
N458 C454 1.427 . S
N458 C455 1.384 . S
N459 C451 1.427 . S
N459 C457 1.384 . S
H460 C466 0.930 . S
H461 C470 0.930 . S
H462 C475 0.929 1_554 S
H463 C473 0.929 . S
H464 C468 0.929 . S
H465 C474 0.929 . S
C466 H460 0.930 . S
C466 C467 1.367 . S
C466 C474 1.378 . S
C467 C466 1.367 . S
C467 C475 1.433 . S
C468 H464 0.929 . S
C468 C470 1.378 . S
C468 C472 1.350 1_544 S
C469 C472 1.463 . S
C469 C474 1.350 . S
C469 N477 1.427 1_556 S
C470 H461 0.930 . S
C470 C468 1.378 . S
C470 C471 1.367 . S
C471 C470 1.367 . S
C471 C473 1.433 1_544 S
C472 C468 1.350 1_566 S
C472 C469 1.463 . S
C472 N476 1.427 . S
C473 H463 0.929 . S
C473 C471 1.433 1_566 S
C473 N476 1.384 . S
C474 H465 0.929 . S
C474 C466 1.378 . S
C474 C469 1.350 . S
C475 H462 0.929 1_556 S
C475 C467 1.433 . S
C475 N477 1.384 1_556 S
N476 C472 1.427 . S
N476 C473 1.384 . S
N477 C469 1.427 1_554 S
N477 C475 1.384 1_554 S
H478 C484 0.930 . S
H479 C488 0.930 . S
H480 C493 0.929 . S
H481 C491 0.929 . S
H482 C486 0.929 . S
H483 C492 0.929 . S
C484 H478 0.930 . S
C484 C485 1.367 . S
C484 C492 1.378 . S
C485 C484 1.367 . S
C485 C493 1.433 . S
C486 H482 0.929 . S
C486 C488 1.378 . S
C486 C490 1.350 . S
C487 C490 1.463 . S
C487 C492 1.350 . S
C487 N495 1.427 . S
C488 H479 0.930 . S
C488 C486 1.378 . S
C488 C489 1.367 . S
C489 C488 1.367 . S
C489 C491 1.433 . S
C490 C486 1.350 . S
C490 C487 1.463 . S
C490 N494 1.427 . S
C491 H481 0.929 . S
C491 C489 1.433 . S
C491 N494 1.384 . S
C492 H483 0.929 . S
C492 C484 1.378 . S
C492 C487 1.350 . S
C493 H480 0.929 . S
C493 C485 1.433 . S
C493 N495 1.384 . S
N494 C490 1.427 . S
N494 C491 1.384 . S
N495 C487 1.427 . S
N495 C493 1.384 . S
H496 C502 0.930 . S
H497 C506 0.930 1_556 S
H498 C511 0.929 . S
H499 C509 0.929 . S
H500 C504 0.929 . S
H501 C510 0.929 . S
C502 H496 0.930 . S
C502 C503 1.367 . S
C502 C510 1.378 . S
C503 C502 1.367 . S
C503 C511 1.433 . S
C504 H500 0.929 . S
C504 C506 1.378 . S
C504 C508 1.350 . S
C505 C508 1.463 . S
C505 C510 1.350 . S
C505 N513 1.427 . S
C506 H497 0.930 1_554 S
C506 C504 1.378 . S
C506 C507 1.367 . S
C507 C506 1.367 . S
C507 C509 1.433 . S
C508 C504 1.350 . S
C508 C505 1.463 . S
C508 N512 1.427 . S
C509 H499 0.929 . S
C509 C507 1.433 . S
C509 N512 1.384 . S
C510 H501 0.929 . S
C510 C502 1.378 . S
C510 C505 1.350 . S
C511 H498 0.929 . S
C511 C503 1.433 . S
C511 N513 1.384 . S
N512 C508 1.427 . S
N512 C509 1.384 . S
N513 C505 1.427 . S
N513 C511 1.384 . S
H514 C520 0.930 . S
H515 C524 0.930 . S
H516 C529 0.929 . S
H517 C527 0.929 . S
H518 C522 0.929 . S
H519 C528 0.929 . S
C520 H514 0.930 . S
C520 C521 1.367 . S
C520 C528 1.378 . S
C521 C520 1.367 . S
C521 C529 1.433 . S
C522 H518 0.929 . S
C522 C524 1.378 . S
C522 C526 1.350 . S
C523 C526 1.463 . S
C523 C528 1.350 . S
C523 N531 1.427 . S
C524 H515 0.930 . S
C524 C522 1.378 . S
C524 C525 1.367 . S
C525 C524 1.367 . S
C525 C527 1.433 . S
C526 C522 1.350 . S
C526 C523 1.463 . S
C526 N530 1.427 . S
C527 H517 0.929 . S
C527 C525 1.433 . S
C527 N530 1.384 . S
C528 H519 0.929 . S
C528 C520 1.378 . S
C528 C523 1.350 . S
C529 H516 0.929 . S
C529 C521 1.433 . S
C529 N531 1.384 . S
N530 C526 1.427 . S
N530 C527 1.384 . S
N531 C523 1.427 . S
N531 C529 1.384 . S
H532 C538 0.930 . S
H533 C542 0.917 1_455 S
H534 C547 0.929 1_554 S
H535 C545 0.929 . S
H536 C540 0.929 . S
H537 C546 0.929 . S
C538 H532 0.930 . S
C538 C539 1.367 . S
C538 C546 1.378 . S
C539 C538 1.367 . S
C539 C547 1.433 . S
C540 H536 0.929 . S
C540 C542 1.387 . S
C540 C544 1.350 1_554 S
C541 C544 1.463 . S
C541 C546 1.350 . S
C541 N549 1.427 . S
C542 H533 0.917 1_655 S
C542 C540 1.387 . S
C542 C543 1.371 1_554 S
C543 C542 1.371 1_556 S
C543 C545 1.433 . S
C544 C540 1.350 1_556 S
C544 C541 1.463 . S
C544 N548 1.427 . S
C545 H535 0.929 . S
C545 C543 1.433 . S
C545 N548 1.384 . S
C546 H537 0.929 . S
C546 C538 1.378 . S
C546 C541 1.350 . S
C547 H534 0.929 1_556 S
C547 C539 1.433 . S
C547 N549 1.384 . S
N548 C544 1.427 . S
N548 C545 1.384 . S
N549 C541 1.427 . S
N549 C547 1.384 . S
H550 C556 0.930 . S
H551 C560 0.930 . S
H552 C565 0.929 . S
H553 C563 0.929 . S
H554 C558 0.929 . S
H555 C564 0.929 . S
C556 H550 0.930 . S
C556 C557 1.367 . S
C556 C564 1.378 . S
C557 C556 1.367 . S
C557 C565 1.433 . S
C558 H554 0.929 . S
C558 C560 1.378 . S
C558 C562 1.350 . S
C559 C562 1.463 . S
C559 C564 1.350 . S
C559 N567 1.427 . S
C560 H551 0.930 . S
C560 C558 1.378 . S
C560 C561 1.367 . S
C561 C560 1.367 . S
C561 C563 1.433 . S
C562 C558 1.350 . S
C562 C559 1.463 . S
C562 N566 1.427 . S
C563 H553 0.929 . S
C563 C561 1.433 . S
C563 N566 1.384 . S
C564 H555 0.929 . S
C564 C556 1.378 . S
C564 C559 1.350 . S
C565 H552 0.929 . S
C565 C557 1.433 . S
C565 N567 1.384 . S
N566 C562 1.427 . S
N566 C563 1.384 . S
N567 C559 1.427 . S
N567 C565 1.384 . S
H568 C574 0.930 . S
H569 C578 0.930 . S
H570 C583 0.929 . S
H571 C581 0.929 1_655 S
H572 C576 0.929 . S
H573 C582 0.929 . S
C574 H568 0.930 . S
C574 C575 1.367 . S
C574 C582 1.378 . S
C575 C574 1.367 . S
C575 C583 1.433 . S
C576 H572 0.929 . S
C576 C578 1.378 . S
C576 C580 1.350 . S
C577 C580 1.463 . S
C577 C582 1.350 . S
C577 N585 1.427 . S
C578 H569 0.930 . S
C578 C576 1.378 . S
C578 C579 1.367 . S
C579 C578 1.367 . S
C579 C581 1.433 . S
C580 C576 1.350 . S
C580 C577 1.463 . S
C580 N584 1.427 . S
C581 H571 0.929 1_455 S
C581 C579 1.433 . S
C581 N584 1.384 . S
C582 H573 0.929 . S
C582 C574 1.378 . S
C582 C577 1.350 . S
C583 H570 0.929 . S
C583 C575 1.433 . S
C583 N585 1.384 . S
N584 C580 1.427 . S
N584 C581 1.384 . S
N585 C577 1.427 . S
N585 C583 1.384 . S
H586 C592 0.930 . S
H587 C596 0.930 . S
H588 C601 0.929 . S
H589 C599 0.929 . S
H590 C594 0.929 . S
H591 C600 0.929 . S
C592 H586 0.930 . S
C592 C593 1.367 . S
C592 C600 1.378 . S
C593 C592 1.367 . S
C593 C601 1.433 . S
C594 H590 0.929 . S
C594 C596 1.378 . S
C594 C598 1.350 . S
C595 C598 1.463 . S
C595 C600 1.350 . S
C595 N603 1.427 . S
C596 H587 0.930 . S
C596 C594 1.378 . S
C596 C597 1.367 . S
C597 C596 1.367 . S
C597 C599 1.433 . S
C598 C594 1.350 . S
C598 C595 1.463 . S
C598 N602 1.427 . S
C599 H589 0.929 . S
C599 C597 1.433 . S
C599 N602 1.384 . S
C600 H591 0.929 . S
C600 C592 1.378 . S
C600 C595 1.350 . S
C601 H588 0.929 . S
C601 C593 1.433 . S
C601 N603 1.384 . S
N602 C598 1.427 . S
N602 C599 1.384 . S
N603 C595 1.427 . S
N603 C601 1.384 . S
C179 C5 1.763 . S
C183 C106 1.858 . S
C197 C18 1.525 . S
C201 C123 1.577 . S
C219 C146 1.113 . S
C215 C30 1.275 . S
C233 C41 1.534 . S
C237 C167 1.208 . S
C255 C126 2.014 . S
C251 C7 2.025 . S
C273 C103 1.835 . S
C269 C16 1.591 . S
C291 C165 1.369 . S
C287 C29 1.341 . S
C309 C144 1.049 . S
C305 C38 1.027 . S
C323 C8 1.838 . S
C327 C168 1.756 . S
C345 C125 1.475 . S
C341 C27 1.460 . S
C359 C40 1.637 . S
C363 C101 1.442 . S
C377 C19 1.176 . S
C381 C147 1.199 . S
C399 C105 1.648 . S
C395 C51 1.661 . S
C413 C62 1.437 . S
C417 C124 1.470 . S
C431 C74 1.430 . S
C435 C143 1.252 . S
C449 C84 1.437 . S
C453 C164 1.276 . S
C467 C49 1.920 . S
C471 C127 2.008 . S
C489 C102 1.665 . S
C485 C63 1.691 . S
C507 C166 1.183 . S
C503 C71 1.042 . S
C525 C145 1.278 . S
C521 C85 1.270 . S
C539 C52 1.609 . S
C543 C169 1.581 . S
C561 C122 1.420 . S
C557 C73 1.656 . S
C579 C104 1.187 . S
C575 C82 1.024 . S
C593 C60 1.272 . S
C597 C148 1.560 . S
