# Generated by pormake.
# Topology anh, (6,3)-cn, num edge types: 1
# Building blocks:
#     Node 0, Type 0, BuildingBlock: CUWYAW_clean_sbu_0, # of connection points: 6
#     Node 1, Type 0, BuildingBlock: CUWYAW_clean_sbu_0, # of connection points: 6
#     Node 2, Type 0, BuildingBlock: CUWYAW_clean_sbu_0, # of connection points: 6
#     Node 3, Type 1, BuildingBlock: OLANEW_clean_sbu_2, # of connection points: 3
#     Node 4, Type 1, BuildingBlock: OLANEW_clean_sbu_2, # of connection points: 3
#     Node 5, Type 1, BuildingBlock: OLANEW_clean_sbu_2, # of connection points: 3
#     Node 6, Type 1, BuildingBlock: OLANEW_clean_sbu_2, # of connection points: 3
#     Node 7, Type 1, BuildingBlock: OLANEW_clean_sbu_2, # of connection points: 3
#     Node 8, Type 1, BuildingBlock: OLANEW_clean_sbu_2, # of connection points: 3
#     Edge 9, Type (0, 1), BuildingBlock: MIFKUJ_clean_linker_0, # of connection points: 2
#     Edge 10, Type (0, 1), BuildingBlock: MIFKUJ_clean_linker_0, # of connection points: 2
#     Edge 11, Type (0, 1), BuildingBlock: MIFKUJ_clean_linker_0, # of connection points: 2
#     Edge 12, Type (0, 1), BuildingBlock: MIFKUJ_clean_linker_0, # of connection points: 2
#     Edge 13, Type (0, 1), BuildingBlock: MIFKUJ_clean_linker_0, # of connection points: 2
#     Edge 14, Type (0, 1), BuildingBlock: MIFKUJ_clean_linker_0, # of connection points: 2
#     Edge 15, Type (0, 1), BuildingBlock: MIFKUJ_clean_linker_0, # of connection points: 2
#     Edge 16, Type (0, 1), BuildingBlock: MIFKUJ_clean_linker_0, # of connection points: 2
#     Edge 17, Type (0, 1), BuildingBlock: MIFKUJ_clean_linker_0, # of connection points: 2
#     Edge 18, Type (0, 1), BuildingBlock: MIFKUJ_clean_linker_0, # of connection points: 2
#     Edge 19, Type (0, 1), BuildingBlock: MIFKUJ_clean_linker_0, # of connection points: 2
#     Edge 20, Type (0, 1), BuildingBlock: MIFKUJ_clean_linker_0, # of connection points: 2
#     Edge 21, Type (0, 1), BuildingBlock: MIFKUJ_clean_linker_0, # of connection points: 2
#     Edge 22, Type (0, 1), BuildingBlock: MIFKUJ_clean_linker_0, # of connection points: 2
#     Edge 23, Type (0, 1), BuildingBlock: MIFKUJ_clean_linker_0, # of connection points: 2
#     Edge 24, Type (0, 1), BuildingBlock: MIFKUJ_clean_linker_0, # of connection points: 2
#     Edge 25, Type (0, 1), BuildingBlock: MIFKUJ_clean_linker_0, # of connection points: 2
#     Edge 26, Type (0, 1), BuildingBlock: MIFKUJ_clean_linker_0, # of connection points: 2
# Relax obj value: 0.169
# Max RMSD: 0.122
# Mean RMSD: 0.109
data_MOF--net-anh--node1-CUWYAW_clean_sbu_0--node2-OLANEW_clean_sbu_2--edge1-MIFKUJ_clean_linker_0
_symmetry_space_group_name_H-M    P1
_symmetry_Int_Tables_number       1
_symmetry_cell_setting            triclinic
loop_
_symmetry_equiv_pos_as_xyz
'x, y, z'
_cell_length_a     45.232421
_cell_length_b     45.446747
_cell_length_c     64.794441
_cell_angle_alpha  89.550697
_cell_angle_beta   89.500191
_cell_angle_gamma 120.07469
loop_
_atom_site_label
_atom_site_type_symbol
_atom_site_fract_x
_atom_site_fract_y
_atom_site_fract_z
_atom_type_partial_charge
C0 C 1.00623 0.43491 0.14717 0.0
Eu1 Eu 0.0403 0.49064 0.16748 0.0
C2 C 0.97168 0.40554 0.15056 0.0
C3 C 0.96097 0.3909 0.17034 0.0
C4 C 0.92664 0.36758 0.1744 0.0
C5 C 0.90226 0.35864 0.15884 0.0
C6 C 0.91328 0.37172 0.13875 0.0
C7 C 0.94776 0.39505 0.13465 0.0
C8 C 0.03378 0.4973 0.20924 0.0
C9 C 0.99922 0.53246 0.17256 0.0
C10 C 0.11673 0.62489 0.20107 0.0
Eu11 Eu 0.07945 0.56913 0.18115 0.0
C12 C 0.15293 0.65143 0.20096 0.0
C13 C 0.17243 0.66134 0.18259 0.0
C14 C 0.20667 0.68708 0.18274 0.0
C15 C 0.22204 0.70292 0.2013 0.0
C16 C 0.20267 0.69226 0.21974 0.0
C17 C 0.16835 0.66677 0.21954 0.0
C18 C 0.0708 0.55742 0.1403 0.0
C19 C 0.12345 0.53016 0.17124 0.0
O20 O 1.00702 0.46329 0.14202 0.0
O21 O 0.02936 0.43932 0.16085 0.0
O22 O 1.02125 0.4681 0.20029 0.0
O23 O 0.04855 0.51958 0.19552 0.0
O24 O 1.00245 0.50885 0.16255 0.0
O25 O 0.02387 0.55526 0.18433 0.0
O26 O 0.10995 0.59494 0.20795 0.0
O27 O 0.0993 0.62333 0.18464 0.0
O28 O 0.07305 0.58436 0.14872 0.0
O29 O 0.07664 0.54045 0.15339 0.0
O30 O 0.12326 0.55769 0.17798 0.0
O31 O 0.09519 0.50232 0.16555 0.0
H32 H 0.97877 0.39859 0.18296 0.0
H33 H 0.91896 0.35748 0.18996 0.0
H34 H 0.89503 0.36545 0.12648 0.0
H35 H 0.95545 0.40624 0.11933 0.0
H36 H 0.16112 0.6494 0.16811 0.0
H37 H 0.22115 0.69465 0.16836 0.0
H38 H 0.21379 0.70429 0.23422 0.0
H39 H 0.15373 0.65924 0.23387 0.0
C40 C 0.49632 0.10222 0.47946 0.0
Eu41 Eu 0.51555 0.06486 0.4992 0.0
C42 C 0.51244 0.13924 0.47754 0.0
C43 C 0.53692 0.15994 0.49191 0.0
C44 C 0.55446 0.19516 0.48938 0.0
C45 C 0.54793 0.21034 0.47238 0.0
C46 C 0.52329 0.18949 0.45801 0.0
C47 C 0.50574 0.15412 0.46055 0.0
C48 C 0.52149 0.06226 0.5407 0.0
C49 C 0.59929 0.10929 0.50182 0.0
C50 C 0.57488 0.99432 0.53348 0.0
Eu51 Eu 0.55441 0.03014 0.51318 0.0
C52 C 0.56644 0.95871 0.53257 0.0
C53 C 0.55691 0.94122 0.51385 0.0
C54 C 0.55075 0.90797 0.51276 0.0
C55 C 0.55352 0.89142 0.53044 0.0
C56 C 0.56159 0.90864 0.54937 0.0
C57 C 0.56819 0.94209 0.55038 0.0
C58 C 0.54728 0.03105 0.47181 0.0
C59 C 0.47088 0.98446 0.50632 0.0
O60 O 0.5136 0.08955 0.47076 0.0
O61 O 0.48468 0.08929 0.49789 0.0
O62 O 0.49471 0.05959 0.53176 0.0
O63 O 0.54465 0.06831 0.52755 0.0
O64 O 0.57099 0.10652 0.49422 0.0
O65 O 0.5989 0.08416 0.51249 0.0
O66 O 0.55056 0.9995 0.54029 0.0
O67 O 0.59107 1.01315 0.5173 0.0
O68 O 0.57357 0.03188 0.48024 0.0
O69 O 0.52547 0.02666 0.48536 0.0
O70 O 0.4982 0.98701 0.51554 0.0
O71 O 0.47239 1.01079 0.49647 0.0
H72 H 0.54271 0.14882 0.50502 0.0
H73 H 0.57287 0.21052 0.5009 0.0
H74 H 0.51793 0.2005 0.44468 0.0
H75 H 0.4873 0.13838 0.44915 0.0
H76 H 0.55499 0.95353 0.49994 0.0
H77 H 0.54495 0.89573 0.4979 0.0
H78 H 0.5632 0.89642 0.56339 0.0
H79 H 0.57508 0.95513 0.565 0.0
C80 C 0.63646 0.57509 0.81929 0.0
Eu81 Eu 0.57545 0.55254 0.83452 0.0
C82 C 0.65754 0.55892 0.81865 0.0
C83 C 0.6543 0.53613 0.83444 0.0
C84 C 0.67291 0.51935 0.83348 0.0
C85 C 0.69487 0.52476 0.81663 0.0
C86 C 0.69744 0.54689 0.80054 0.0
C87 C 0.67889 0.56393 0.80157 0.0
C88 C 0.56002 0.54784 0.87539 0.0
C89 C 0.54166 0.46961 0.83868 0.0
C90 C 0.44014 0.48478 0.86077 0.0
Eu91 Eu 0.50112 0.50909 0.84499 0.0
C92 C 0.41284 0.4934 0.85853 0.0
C93 C 0.38405 0.4724 0.84675 0.0
C94 C 0.35892 0.48105 0.84333 0.0
C95 C 0.36179 0.51065 0.85187 0.0
C96 C 0.39017 0.53137 0.86403 0.0
C97 C 0.41559 0.52292 0.86726 0.0
C98 C 0.51615 0.5132 0.80433 0.0
C99 C 0.53414 0.59185 0.83541 0.0
O100 O 0.60896 0.56031 0.80816 0.0
O101 O 0.63066 0.58325 0.8376 0.0
O102 O 0.58228 0.57573 0.8661 0.0
O103 O 0.5475 0.52338 0.863 0.0
O104 O 0.56595 0.49874 0.83076 0.0
O105 O 0.5151 0.46791 0.84855 0.0
O106 O 0.46787 0.50649 0.8704 0.0
O107 O 0.44676 0.47236 0.84437 0.0
O108 O 0.49219 0.48585 0.81322 0.0
O109 O 0.52894 0.53726 0.81687 0.0
O110 O 0.50897 0.56346 0.84394 0.0
O111 O 0.56195 0.59289 0.82805 0.0
H112 H 0.63716 0.53109 0.84747 0.0
H113 H 0.66997 0.50192 0.84589 0.0
H114 H 0.71421 0.55144 0.78738 0.0
H115 H 0.68109 0.58087 0.78904 0.0
H116 H 0.38111 0.44938 0.83997 0.0
H117 H 0.33697 0.46431 0.83421 0.0
H118 H 0.39293 0.55432 0.87079 0.0
H119 H 0.43746 0.53969 0.87641 0.0
O120 O 0.49865 0.16625 0.27814 0.0
Cd121 Cd 0.49474 0.19498 0.24724 0.0
O122 O 0.51473 0.13863 0.2576 0.0
Cd123 Cd 0.52419 0.09699 0.25085 0.0
O124 O 0.50878 0.04488 0.24259 0.0
C125 C 0.49173 0.03414 0.22615 0.0
O126 O 0.48659 0.05535 0.21494 0.0
C127 C 0.50861 0.14484 0.27575 0.0
C128 C 0.55625 0.21952 0.22575 0.0
O129 O 0.55238 0.23717 0.23972 0.0
O130 O 0.53049 0.1906 0.22136 0.0
O131 O 0.6258 0.56044 0.58567 0.0
Cd132 Cd 0.63345 0.58279 0.55012 0.0
O133 O 0.57797 0.51116 0.58335 0.0
Cd134 Cd 0.56617 0.52525 0.55381 0.0
O135 O 0.55646 0.56221 0.53844 0.0
C136 C 0.56519 0.58812 0.54954 0.0
O137 O 0.57822 0.58915 0.56776 0.0
C138 C 0.60351 0.53216 0.59375 0.0
C139 C 0.63925 0.53951 0.52229 0.0
O140 O 0.66519 0.56094 0.53251 0.0
O141 O 0.61108 0.53935 0.52482 0.0
O142 O 0.98256 0.48206 0.9165 0.0
Cd143 Cd 0.97826 0.47521 0.87905 0.0
O144 O 0.979 0.43269 0.92293 0.0
Cd145 Cd 0.96214 0.41525 0.89168 0.0
O146 O 0.92974 0.40755 0.86524 0.0
C147 C 0.89793 0.38694 0.86753 0.0
O148 O 0.8869 0.3691 0.88479 0.0
C149 C 0.98376 0.4612 0.92922 0.0
C150 C 0.04176 0.48891 0.86361 0.0
O151 O 0.03412 0.5125 0.86439 0.0
O152 O 1.01911 0.45893 0.86954 0.0
O153 O 0.08333 0.57383 0.43315 0.0
Cd154 Cd 0.11071 0.59101 0.46748 0.0
O155 O 0.03609 0.52702 0.44269 0.0
Cd156 Cd 0.98456 0.48019 0.44172 0.0
O157 O 0.93267 0.43605 0.44884 0.0
C158 C 0.92679 0.40552 0.44962 0.0
O159 O 0.95203 0.39986 0.44563 0.0
C160 C 0.05494 0.5477 0.42842 0.0
C161 C 0.16931 0.65628 0.47208 0.0
O162 O 0.17182 0.63145 0.4648 0.0
O163 O 0.13924 0.65077 0.47647 0.0
O164 O 0.53753 0.99838 0.76525 0.0
Cd165 Cd 0.53528 0.97081 0.79922 0.0
O166 O 0.53397 0.04311 0.77506 0.0
Cd167 Cd 0.53391 0.09251 0.77355 0.0
O168 O 0.5314 0.13935 0.78137 0.0
C169 C 0.55573 0.16962 0.77776 0.0
O170 O 0.5836 0.17388 0.7685 0.0
C171 C 0.53676 0.02546 0.7607 0.0
C172 C 0.52926 0.90534 0.80095 0.0
O173 O 0.50291 0.90884 0.80257 0.0
O174 O 0.55817 0.93237 0.79771 0.0
O175 O 0.59727 0.53426 0.09937 0.0
Cd176 Cd 0.62573 0.5421 0.13323 0.0
O177 O 0.55588 0.54324 0.10985 0.0
Cd178 Cd 0.50877 0.5474 0.10898 0.0
O179 O 0.46352 0.55238 0.11754 0.0
C180 C 0.43311 0.53002 0.11289 0.0
O181 O 0.4284 0.50354 0.10227 0.0
C182 C 0.57094 0.5367 0.09534 0.0
C183 C 0.68697 0.53937 0.13559 0.0
O184 O 0.65762 0.51267 0.13837 0.0
O185 O 0.6875 0.56711 0.13094 0.0
H186 H 0.18773 0.57968 0.18314 0.0
H187 H 0.24238 0.58253 0.17591 0.0
H188 H 0.18963 0.4876 0.14358 0.0
H189 H 0.13516 0.484 0.15131 0.0
H190 H 0.23649 0.48705 0.16557 0.0
H191 H 0.23498 0.57033 0.11892 0.0
H192 H 0.23134 0.62144 0.11049 0.0
H193 H 0.31962 0.68229 0.14716 0.0
H194 H 0.32354 0.63142 0.15601 0.0
H195 H 0.36568 0.48712 0.10455 0.0
H196 H 0.31614 0.49031 0.11656 0.0
H197 H 0.38219 0.58219 0.14924 0.0
H198 H 0.43224 0.57944 0.13694 0.0
H199 H 0.33213 0.58769 0.1306 0.0
H200 H 0.33641 0.50585 0.17516 0.0
H201 H 0.34012 0.45503 0.18426 0.0
H202 H 0.24676 0.39185 0.15238 0.0
H203 H 0.24273 0.44237 0.14283 0.0
C204 C 0.18774 0.55929 0.1746 0.0
C205 C 0.15685 0.53161 0.16783 0.0
C206 C 0.21912 0.56109 0.17032 0.0
C207 C 0.22044 0.53555 0.15886 0.0
C208 C 0.18955 0.50768 0.15243 0.0
C209 C 0.15825 0.50568 0.15688 0.0
C210 C 0.25365 0.53741 0.15345 0.0
C211 C 0.2572 0.50897 0.15771 0.0
C212 C 0.28141 0.5664 0.14384 0.0
C213 C 0.27934 0.59702 0.13829 0.0
C214 C 0.2535 0.59458 0.12528 0.0
C215 C 0.2514 0.6235 0.12041 0.0
C216 C 0.27517 0.65507 0.12834 0.0
C217 C 0.30119 0.65781 0.14107 0.0
C218 C 0.30338 0.62895 0.14599 0.0
C219 C 0.36983 0.5081 0.11426 0.0
C220 C 0.4031 0.53291 0.11985 0.0
C221 C 0.34134 0.50981 0.12122 0.0
C222 C 0.3452 0.53618 0.13414 0.0
C223 C 0.37842 0.56149 0.13937 0.0
C224 C 0.40705 0.55983 0.13236 0.0
C225 C 0.31444 0.53693 0.14219 0.0
C226 C 0.31144 0.56586 0.13852 0.0
C227 C 0.28713 0.50842 0.15239 0.0
C228 C 0.28943 0.47795 0.15814 0.0
C229 C 0.3168 0.48115 0.16996 0.0
C230 C 0.31894 0.45239 0.17522 0.0
C231 C 0.29373 0.42024 0.16886 0.0
C232 C 0.26629 0.41678 0.15727 0.0
C233 C 0.26404 0.44546 0.15195 0.0
H234 H 0.29544 0.39801 0.17295 0.0
H235 H 0.27348 0.67742 0.12458 0.0
H236 H 0.6104 0.17424 0.49862 0.0
H237 H 0.66425 0.22665 0.49122 0.0
H238 H 0.71576 0.16854 0.48654 0.0
H239 H 0.66243 0.11669 0.49556 0.0
H240 H 0.75516 0.2206 0.50461 0.0
H241 H 0.6864 0.20678 0.44376 0.0
H242 H 0.63966 0.20485 0.42316 0.0
H243 H 0.66515 0.30382 0.44418 0.0
H244 H 0.71118 0.30613 0.46537 0.0
H245 H 0.90598 0.33764 0.45086 0.0
H246 H 0.85004 0.2901 0.46074 0.0
H247 H 0.81316 0.35968 0.47177 0.0
H248 H 0.86914 0.40754 0.46146 0.0
H249 H 0.7663 0.30596 0.45242 0.0
H250 H 0.83316 0.32172 0.51211 0.0
H251 H 0.8825 0.32849 0.53185 0.0
H252 H 0.86164 0.22952 0.51316 0.0
H253 H 0.81242 0.22234 0.49307 0.0
C254 C 0.63332 0.17276 0.49612 0.0
C255 C 0.63218 0.14131 0.49779 0.0
C256 C 0.66417 0.2028 0.49161 0.0
C257 C 0.69446 0.20197 0.48776 0.0
C258 C 0.6931 0.17034 0.48943 0.0
C259 C 0.66252 0.14054 0.49461 0.0
C260 C 0.72784 0.23371 0.48269 0.0
C261 C 0.7574 0.23882 0.4929 0.0
C262 C 0.7312 0.25894 0.46818 0.0
C263 C 0.70199 0.25637 0.4564 0.0
C264 C 0.68162 0.22784 0.4443 0.0
C265 C 0.65521 0.22664 0.43256 0.0
C266 C 0.64914 0.25388 0.43263 0.0
C267 C 0.66955 0.28251 0.44437 0.0
C268 C 0.6957 0.28374 0.4563 0.0
C269 C 0.88605 0.34297 0.45538 0.0
C270 C 0.89227 0.37659 0.45541 0.0
C271 C 0.85399 0.31564 0.46117 0.0
C272 C 0.8273 0.32114 0.46739 0.0
C273 C 0.83325 0.35465 0.46714 0.0
C274 C 0.86535 0.38205 0.46126 0.0
C275 C 0.7932 0.29185 0.47382 0.0
C276 C 0.76372 0.28746 0.46403 0.0
C277 C 0.78974 0.26744 0.48882 0.0
C278 C 0.81927 0.27163 0.50094 0.0
C279 C 0.83924 0.3015 0.51208 0.0
C280 C 0.86716 0.30539 0.52336 0.0
C281 C 0.87525 0.27948 0.52372 0.0
C282 C 0.85537 0.24959 0.51285 0.0
C283 C 0.82743 0.24558 0.50153 0.0
H284 H 0.89688 0.28254 0.53245 0.0
H285 H 0.62879 0.25292 0.42347 0.0
H286 H 0.48165 0.60201 0.84871 0.0
H287 H 0.47721 0.65336 0.84428 0.0
H288 H 0.57415 0.70268 0.81178 0.0
H289 H 0.57909 0.65217 0.8165 0.0
H290 H 0.57196 0.74508 0.83825 0.0
H291 H 0.49345 0.66835 0.78696 0.0
H292 H 0.44334 0.61449 0.77643 0.0
H293 H 0.37866 0.63341 0.81641 0.0
H294 H 0.42847 0.68728 0.82733 0.0
H295 H 0.5773 0.88747 0.7914 0.0
H296 H 0.57449 0.83306 0.79776 0.0
H297 H 0.47332 0.7923 0.82413 0.0
H298 H 0.47548 0.84635 0.81693 0.0
H299 H 0.47399 0.74431 0.80397 0.0
H300 H 0.54817 0.82031 0.85442 0.0
H301 H 0.59654 0.87274 0.86801 0.0
H302 H 0.66704 0.85399 0.83379 0.0
H303 H 0.61905 0.80165 0.81978 0.0
C304 C 0.50203 0.6238 0.84063 0.0
C305 C 0.53073 0.62276 0.83297 0.0
C306 C 0.49937 0.65317 0.838 0.0
C307 C 0.52519 0.68203 0.82747 0.0
C308 C 0.55385 0.68095 0.81997 0.0
C309 C 0.55659 0.65183 0.82266 0.0
C310 C 0.52309 0.71368 0.82433 0.0
C311 C 0.55068 0.74489 0.83053 0.0
C312 C 0.49475 0.71358 0.81505 0.0
C313 C 0.46472 0.68168 0.80808 0.0
C314 C 0.46856 0.66096 0.79355 0.0
C315 C 0.44021 0.63045 0.78751 0.0
C316 C 0.40785 0.6205 0.79579 0.0
C317 C 0.40374 0.64115 0.81004 0.0
C318 C 0.43201 0.67169 0.81613 0.0
C319 C 0.55434 0.86688 0.79843 0.0
C320 C 0.52671 0.87147 0.80374 0.0
C321 C 0.55283 0.83572 0.80224 0.0
C322 C 0.524 0.80848 0.81196 0.0
C323 C 0.49596 0.81273 0.81673 0.0
C324 C 0.49725 0.84377 0.81261 0.0
C325 C 0.52343 0.77595 0.81735 0.0
C326 C 0.49528 0.74458 0.81171 0.0
C327 C 0.55102 0.77577 0.82751 0.0
C328 C 0.57998 0.80722 0.83591 0.0
C329 C 0.57398 0.82749 0.84968 0.0
C330 C 0.60133 0.85717 0.85747 0.0
C331 C 0.63484 0.86673 0.85173 0.0
C332 C 0.64107 0.84658 0.83821 0.0
C333 C 0.6138 0.81688 0.83035 0.0
H334 H 0.65598 0.88972 0.85778 0.0
H335 H 0.38595 0.59682 0.79114 0.0
H336 H 0.97597 0.56977 0.19364 0.0
H337 H 0.92324 0.5714 0.1876 0.0
H338 H 0.89764 0.4999 0.13823 0.0
H339 H 0.94979 0.49807 0.14412 0.0
H340 H 0.88734 0.55088 0.12675 0.0
H341 H 0.85791 0.47428 0.18461 0.0
H342 H 0.86397 0.45629 0.21957 0.0
H343 H 0.85197 0.53624 0.24578 0.0
H344 H 0.84635 0.55504 0.21093 0.0
H345 H 0.69417 0.48618 0.14954 0.0
H346 H 0.74713 0.48548 0.15575 0.0
H347 H 0.80589 0.58987 0.13495 0.0
H348 H 0.75302 0.59074 0.12865 0.0
H349 H 0.79929 0.52169 0.18153 0.0
H350 H 0.87977 0.6014 0.11094 0.0
H351 H 0.87146 0.61379 0.075 0.0
H352 H 0.77742 0.51846 0.07272 0.0
H353 H 0.78541 0.50529 0.10852 0.0
C354 C 0.95908 0.55437 0.18153 0.0
C355 C 0.9672 0.53369 0.16946 0.0
C356 C 0.92887 0.55525 0.17812 0.0
C357 C 0.90627 0.53565 0.16249 0.0
C358 C 0.91456 0.5153 0.15034 0.0
C359 C 0.94445 0.51417 0.15385 0.0
C360 C 0.87397 0.53613 0.15865 0.0
C361 C 0.86822 0.54473 0.13879 0.0
C362 C 0.84858 0.52746 0.17418 0.0
C363 C 0.85207 0.51629 0.19514 0.0
C364 C 0.85688 0.48822 0.19781 0.0
C365 C 0.86018 0.47784 0.21761 0.0
C366 C 0.85842 0.49516 0.23488 0.0
C367 C 0.85337 0.52289 0.23238 0.0
C368 C 0.85011 0.5334 0.21261 0.0
C369 C 0.71833 0.50896 0.14615 0.0
C370 C 0.71922 0.53848 0.1385 0.0
C371 C 0.74866 0.50858 0.14984 0.0
C372 C 0.78064 0.53756 0.14577 0.0
C373 C 0.78161 0.56704 0.13804 0.0
C374 C 0.75129 0.56751 0.13446 0.0
C375 C 0.81288 0.53694 0.1497 0.0
C376 C 0.81859 0.52824 0.16956 0.0
C377 C 0.83803 0.545 0.13407 0.0
C378 C 0.833 0.55259 0.11251 0.0
C379 C 0.85736 0.58306 0.10275 0.0
C380 C 0.85271 0.59022 0.0824 0.0
C381 C 0.82386 0.56699 0.07161 0.0
C382 C 0.79967 0.5365 0.08112 0.0
C383 C 0.80422 0.52921 0.10146 0.0
H384 H 0.8203 0.57258 0.05587 0.0
H385 H 0.86085 0.48701 0.2502 0.0
H386 H 0.423 0.96379 0.47632 0.0
H387 H 0.37288 0.90792 0.47189 0.0
H388 H 0.39658 0.87231 0.52784 0.0
H389 H 0.44829 0.92805 0.53162 0.0
H390 H 0.37495 0.82419 0.50294 0.0
H391 H 0.3292 0.89339 0.52375 0.0
H392 H 0.32071 0.94293 0.52332 0.0
H393 H 0.28209 0.91917 0.46174 0.0
H394 H 0.29075 0.86972 0.46169 0.0
H395 H 0.1739 0.70765 0.49605 0.0
H396 H 0.2248 0.76152 0.50411 0.0
H397 H 0.28558 0.73563 0.46471 0.0
H398 H 0.23486 0.68089 0.45744 0.0
H399 H 0.26401 0.81404 0.48473 0.0
H400 H 0.36948 0.77594 0.47897 0.0
H401 H 0.37668 0.72654 0.48625 0.0
H402 H 0.2915 0.68625 0.52872 0.0
H403 H 0.28417 0.73568 0.522 0.0
C404 C 0.41747 0.94419 0.4878 0.0
C405 C 0.43948 0.95058 0.50449 0.0
C406 C 0.38856 0.91212 0.4853 0.0
C407 C 0.38009 0.88575 0.49978 0.0
C408 C 0.40223 0.89205 0.51644 0.0
C409 C 0.43174 0.92402 0.51868 0.0
C410 C 0.34846 0.85171 0.49729 0.0
C411 C 0.35069 0.82202 0.49899 0.0
C412 C 0.31632 0.8484 0.49268 0.0
C413 C 0.31089 0.87801 0.49266 0.0
C414 C 0.31908 0.89885 0.51007 0.0
C415 C 0.31422 0.9269 0.50992 0.0
C416 C 0.30094 0.93424 0.4925 0.0
C417 C 0.29241 0.91348 0.47521 0.0
C418 C 0.29725 0.88541 0.47528 0.0
C419 C 0.1981 0.71338 0.48911 0.0
C420 C 0.20022 0.68984 0.47611 0.0
C421 C 0.22733 0.74433 0.49372 0.0
C422 C 0.25949 0.75285 0.4853 0.0
C423 C 0.26147 0.7296 0.47192 0.0
C424 C 0.23231 0.69833 0.4676 0.0
C425 C 0.29049 0.78638 0.49008 0.0
C426 C 0.28818 0.81607 0.48874 0.0
C427 C 0.32214 0.78948 0.49586 0.0
C428 C 0.326 0.75934 0.49975 0.0
C429 C 0.35229 0.75655 0.48987 0.0
C430 C 0.35642 0.72856 0.49392 0.0
C431 C 0.33446 0.7032 0.50786 0.0
C432 C 0.30838 0.70583 0.51784 0.0
C433 C 0.3042 0.73381 0.5139 0.0
H434 H 0.33772 0.68157 0.51099 0.0
H435 H 0.29721 0.95597 0.49241 0.0
H436 H 0.49462 0.40277 0.84868 0.0
H437 H 0.49688 0.35169 0.83944 0.0
H438 H 0.59579 0.41433 0.8107 0.0
H439 H 0.5935 0.46519 0.8195 0.0
H440 H 0.55718 0.36426 0.78596 0.0
H441 H 0.5861 0.37185 0.85717 0.0
H442 H 0.57908 0.37657 0.89457 0.0
H443 H 0.48378 0.28224 0.89455 0.0
H444 H 0.49001 0.27718 0.85708 0.0
H445 H 0.60311 0.23703 0.77171 0.0
H446 H 0.60026 0.28676 0.78273 0.0
H447 H 0.50041 0.22145 0.80963 0.0
H448 H 0.50328 0.17132 0.79881 0.0
H449 H 0.53849 0.27237 0.83532 0.0
H450 H 0.51286 0.26541 0.76284 0.0
H451 H 0.52295 0.26268 0.72562 0.0
H452 H 0.61635 0.35854 0.72835 0.0
H453 H 0.60711 0.36161 0.76564 0.0
C454 C 0.51702 0.40572 0.84059 0.0
C455 C 0.54385 0.43829 0.83493 0.0
C456 C 0.51833 0.3764 0.83532 0.0
C457 C 0.54657 0.37893 0.82436 0.0
C458 C 0.57359 0.41147 0.81902 0.0
C459 C 0.57229 0.44068 0.82422 0.0
C460 C 0.5476 0.34783 0.81778 0.0
C461 C 0.55353 0.34441 0.79684 0.0
C462 C 0.54219 0.3214 0.83177 0.0
C463 C 0.53834 0.32433 0.85429 0.0
C464 C 0.5635 0.35226 0.86511 0.0
C465 C 0.55969 0.35497 0.88633 0.0
C466 C 0.53095 0.32978 0.89692 0.0
C467 C 0.506 0.30177 0.88632 0.0
C468 C 0.50967 0.29895 0.8651 0.0
C469 C 0.58042 0.23309 0.77992 0.0
C470 C 0.55336 0.19994 0.78426 0.0
C471 C 0.57878 0.26173 0.78618 0.0
C472 C 0.54993 0.25815 0.79686 0.0
C473 C 0.52296 0.22508 0.80138 0.0
C474 C 0.52457 0.19635 0.7951 0.0
C475 C 0.54812 0.28882 0.80348 0.0
C476 C 0.54206 0.29218 0.82443 0.0
C477 C 0.55381 0.31543 0.78951 0.0
C478 C 0.55945 0.31353 0.76709 0.0
C479 C 0.5357 0.28575 0.75554 0.0
C480 C 0.54125 0.28417 0.73442 0.0
C481 C 0.57032 0.31036 0.72464 0.0
C482 C 0.59389 0.33822 0.73595 0.0
C483 C 0.58851 0.33989 0.75708 0.0
H484 H 0.57455 0.30911 0.70828 0.0
H485 H 0.52805 0.33192 0.91334 0.0
H486 H 0.50903 0.83757 0.50667 0.0
H487 H 0.50711 0.78321 0.50234 0.0
H488 H 0.58738 0.81323 0.54681 0.0
H489 H 0.59095 0.86811 0.55024 0.0
H490 H 0.60002 0.78682 0.51418 0.0
H491 H 0.49901 0.75642 0.55795 0.0
H492 H 0.44314 0.7521 0.56458 0.0
H493 H 0.40258 0.69108 0.51063 0.0
H494 H 0.45832 0.6953 0.5036 0.0
H495 H 0.59323 0.65078 0.56627 0.0
H496 H 0.58672 0.69848 0.55518 0.0
H497 H 0.52145 0.63863 0.50581 0.0
H498 H 0.52809 0.59032 0.51678 0.0
H499 H 0.49651 0.6757 0.53007 0.0
H500 H 0.59385 0.69603 0.49084 0.0
H501 H 0.64945 0.70004 0.484 0.0
H502 H 0.69686 0.78 0.52811 0.0
H503 H 0.64143 0.77613 0.53547 0.0
C504 C 0.52644 0.83268 0.51541 0.0
C505 C 0.55012 0.85726 0.52885 0.0
C506 C 0.52507 0.80145 0.51306 0.0
C507 C 0.54698 0.79408 0.52433 0.0
C508 C 0.57026 0.81839 0.53791 0.0
C509 C 0.57193 0.84964 0.54009 0.0
C510 C 0.5464 0.76138 0.52213 0.0
C511 C 0.57739 0.76253 0.51767 0.0
C512 C 0.51648 0.7295 0.52564 0.0
C513 C 0.48288 0.72647 0.53014 0.0
C514 C 0.4782 0.74221 0.54746 0.0
C515 C 0.44656 0.73976 0.55129 0.0
C516 C 0.41935 0.72142 0.53799 0.0
C517 C 0.42368 0.70533 0.52089 0.0
C518 C 0.45527 0.7077 0.517 0.0
C519 C 0.57751 0.64764 0.55302 0.0
C520 C 0.56122 0.61682 0.54237 0.0
C521 C 0.57391 0.67498 0.54667 0.0
C522 C 0.55383 0.67207 0.5296 0.0
C523 C 0.53713 0.64127 0.51899 0.0
C524 C 0.54106 0.61385 0.52522 0.0
C525 C 0.55056 0.70163 0.52337 0.0
C526 C 0.51892 0.69989 0.52608 0.0
C527 C 0.57984 0.73304 0.51818 0.0
C528 C 0.61339 0.73567 0.51376 0.0
C529 C 0.61607 0.71431 0.49919 0.0
C530 C 0.64758 0.71658 0.4952 0.0
C531 C 0.67666 0.74024 0.50562 0.0
C532 C 0.67431 0.7617 0.52004 0.0
C533 C 0.64285 0.75952 0.5241 0.0
H534 H 0.70104 0.74196 0.50252 0.0
H535 H 0.3949 0.71962 0.54095 0.0
H536 H 0.7039 0.49003 0.78507 0.0
H537 H 0.73779 0.46132 0.78574 0.0
H538 H 0.76619 0.49336 0.84851 0.0
H539 H 0.73296 0.52215 0.84784 0.0
H540 H 0.8205 0.5039 0.82519 0.0
H541 H 0.7049 0.41491 0.8396 0.0
H542 H 0.64352 0.37959 0.83212 0.0
H543 H 0.66774 0.34391 0.77691 0.0
H544 H 0.72938 0.37946 0.78391 0.0
H545 H 0.8292 0.35957 0.87332 0.0
H546 H 0.79268 0.3761 0.85523 0.0
H547 H 0.87417 0.43487 0.81142 0.0
H548 H 0.91139 0.41936 0.82991 0.0
H549 H 0.76638 0.37869 0.81865 0.0
H550 H 0.88266 0.51266 0.80748 0.0
H551 H 0.94123 0.54758 0.82055 0.0
H552 H 0.91064 0.49239 0.8782 0.0
H553 H 0.85182 0.45758 0.86558 0.0
C554 C 0.71769 0.49111 0.7989 0.0
C555 C 0.7158 0.50815 0.81644 0.0
C556 C 0.7368 0.4746 0.7993 0.0
C557 C 0.75438 0.47521 0.81719 0.0
C558 C 0.75287 0.49269 0.83454 0.0
C559 C 0.7337 0.5089 0.83419 0.0
C560 C 0.77422 0.45747 0.81831 0.0
C561 C 0.80882 0.4766 0.82338 0.0
C562 C 0.75875 0.4218 0.81629 0.0
C563 C 0.72176 0.40015 0.81214 0.0
C564 C 0.69716 0.39975 0.82577 0.0
C565 C 0.66235 0.37967 0.82165 0.0
C566 C 0.6518 0.35961 0.80404 0.0
C567 C 0.67601 0.35952 0.79053 0.0
C568 C 0.71089 0.37962 0.79457 0.0
C569 C 0.83913 0.37525 0.85951 0.0
C570 C 0.87351 0.389 0.8534 0.0
C571 C 0.81807 0.38449 0.84907 0.0
C572 C 0.83098 0.40739 0.83229 0.0
C573 C 0.86392 0.41766 0.82459 0.0
C574 C 0.88518 0.40882 0.8352 0.0
C575 C 0.81264 0.42518 0.82568 0.0
C576 C 0.77835 0.40612 0.81969 0.0
C577 C 0.82798 0.46091 0.82755 0.0
C578 C 0.86304 0.48227 0.83547 0.0
C579 C 0.88845 0.5081 0.82297 0.0
C580 C 0.92167 0.52786 0.8303 0.0
C581 C 0.92968 0.52211 0.85016 0.0
C582 C 0.90443 0.49675 0.8628 0.0
C583 C 0.87116 0.47702 0.85557 0.0
H584 H 0.95543 0.53734 0.85577 0.0
H585 H 0.62487 0.34407 0.80092 0.0
H586 H 0.25039 0.75812 0.17554 0.0
H587 H 0.30644 0.80905 0.17811 0.0
H588 H 0.33001 0.76407 0.22973 0.0
H589 H 0.27332 0.71327 0.22752 0.0
H590 H 0.34324 0.82403 0.23921 0.0
H591 H 0.3727 0.78001 0.18178 0.0
H592 H 0.36589 0.75397 0.14764 0.0
H593 H 0.36933 0.84101 0.11879 0.0
H594 H 0.37554 0.86736 0.15278 0.0
H595 H 0.49588 0.98289 0.24614 0.0
H596 H 0.46102 0.92174 0.24016 0.0
H597 H 0.41239 0.94169 0.18925 0.0
H598 H 0.44767 1.00259 0.19472 0.0
H599 H 0.42097 0.88905 0.1808 0.0
H600 H 0.37862 0.92501 0.23993 0.0
H601 H 0.38279 0.94872 0.27463 0.0
H602 H 0.40398 0.87399 0.3004 0.0
H603 H 0.40028 0.85008 0.26581 0.0
C604 C 0.26782 0.75881 0.18714 0.0
C605 C 0.25754 0.73184 0.20137 0.0
C606 C 0.29996 0.78789 0.18855 0.0
C607 C 0.32272 0.7903 0.20396 0.0
C608 C 0.31292 0.76279 0.2177 0.0
C609 C 0.28057 0.73385 0.21646 0.0
C610 C 0.35496 0.8229 0.20701 0.0
C611 C 0.36073 0.83781 0.22653 0.0
C612 C 0.37767 0.84112 0.19046 0.0
C613 C 0.37445 0.82562 0.16989 0.0
C614 C 0.37181 0.79355 0.16818 0.0
C615 C 0.36807 0.77872 0.14884 0.0
C616 C 0.36715 0.79581 0.13106 0.0
C617 C 0.37006 0.82781 0.13258 0.0
C618 C 0.37375 0.84273 0.15188 0.0
C619 C 0.47817 0.97425 0.23346 0.0
C620 C 0.4742 0.99758 0.22108 0.0
C621 C 0.4582 0.9393 0.23009 0.0
C622 C 0.43363 0.92712 0.2145 0.0
C623 C 0.43112 0.95047 0.2014 0.0
C624 C 0.45123 0.98534 0.20463 0.0
C625 C 0.40837 0.89035 0.21279 0.0
C626 C 0.40393 0.87474 0.19354 0.0
C627 C 0.38693 0.87129 0.22961 0.0
C628 C 0.38959 0.88605 0.25029 0.0
C629 C 0.38445 0.91384 0.25298 0.0
C630 C 0.38667 0.92727 0.27263 0.0
C631 C 0.39372 0.9129 0.28969 0.0
C632 C 0.39859 0.88512 0.28716 0.0
C633 C 0.39643 0.87163 0.26755 0.0
H634 H 0.39528 0.92316 0.30491 0.0
H635 H 0.36423 0.78428 0.11611 0.0
H636 H 0.61566 0.25514 0.47849 0.0
H637 H 0.64381 0.31717 0.47935 0.0
H638 H 0.54931 0.31222 0.46264 0.0
H639 H 0.52109 0.25027 0.46162 0.0
H640 H 0.60303 0.36669 0.44469 0.0
H641 H 0.57215 0.31502 0.51335 0.0
H642 H 0.57334 0.27935 0.54187 0.0
H643 H 0.68255 0.34147 0.54442 0.0
H644 H 0.682 0.37725 0.51572 0.0
H645 H 0.58961 0.49367 0.49737 0.0
H646 H 0.5878 0.4448 0.48098 0.0
H647 H 0.68996 0.47737 0.50163 0.0
H648 H 0.69184 0.52638 0.51836 0.0
H649 H 0.6462 0.41394 0.51386 0.0
H650 H 0.67363 0.47382 0.45 0.0
H651 H 0.67031 0.5093 0.42217 0.0
H652 H 0.56642 0.43273 0.41092 0.0
H653 H 0.5689 0.39697 0.43888 0.0
C654 C 0.60099 0.26734 0.47479 0.0
C655 C 0.56607 0.24787 0.47023 0.0
C656 C 0.61713 0.30274 0.47522 0.0
C657 C 0.59852 0.31925 0.47134 0.0
C658 C 0.56418 0.29999 0.46561 0.0
C659 C 0.54807 0.26459 0.46505 0.0
C660 C 0.6135 0.356 0.47533 0.0
C661 C 0.6125 0.37715 0.45978 0.0
C662 C 0.62678 0.36977 0.49486 0.0
C663 C 0.62707 0.34854 0.51226 0.0
C664 C 0.59642 0.32093 0.51993 0.0
C665 C 0.59698 0.30071 0.53612 0.0
C666 C 0.62801 0.30808 0.54491 0.0
C667 C 0.65854 0.33576 0.53757 0.0
C668 C 0.65812 0.35601 0.52135 0.0
C669 C 0.61202 0.49091 0.49805 0.0
C670 C 0.64073 0.51367 0.50935 0.0
C671 C 0.61105 0.46306 0.48851 0.0
C672 C 0.63883 0.45753 0.48998 0.0
C673 C 0.66831 0.48126 0.50026 0.0
C674 C 0.66933 0.50924 0.5098 0.0
C675 C 0.63483 0.42461 0.4834 0.0
C676 C 0.63775 0.404 0.49853 0.0
C677 C 0.62309 0.41139 0.46355 0.0
C678 C 0.62143 0.43275 0.44663 0.0
C679 C 0.64999 0.46463 0.44169 0.0
C680 C 0.64826 0.48478 0.42587 0.0
C681 C 0.61816 0.47329 0.4148 0.0
C682 C 0.58973 0.44159 0.4195 0.0
C683 C 0.5913 0.42134 0.43532 0.0
H684 H 0.61688 0.48894 0.40256 0.0
H685 H 0.6284 0.2924 0.55744 0.0
H686 H 0.33257 0.51191 0.81546 0.0
H687 H 0.28319 0.51953 0.81054 0.0
H688 H 0.27933 0.53429 0.87605 0.0
H689 H 0.32914 0.52759 0.88086 0.0
H690 H 0.22238 0.48102 0.82327 0.0
H691 H 0.24268 0.57978 0.88745 0.0
H692 H 0.29024 0.63252 0.90131 0.0
H693 H 0.34705 0.64964 0.84474 0.0
H694 H 0.29966 0.59731 0.83039 0.0
H695 H 0.06843 0.44719 0.8672 0.0
H696 H 0.12615 0.45993 0.85865 0.0
H697 H 0.15099 0.55955 0.83628 0.0
H698 H 0.0932 0.54729 0.84558 0.0
H699 H 0.20099 0.56556 0.85807 0.0
H700 H 0.14118 0.49595 0.80239 0.0
H701 H 0.09538 0.44707 0.78425 0.0
H702 H 0.12117 0.37964 0.81572 0.0
H703 H 0.16682 0.42804 0.83427 0.0
C704 C 0.3214 0.51729 0.82873 0.0
C705 C 0.33449 0.51902 0.84855 0.0
C706 C 0.29326 0.52167 0.82591 0.0
C707 C 0.27758 0.52768 0.84289 0.0
C708 C 0.29137 0.53045 0.86262 0.0
C709 C 0.31975 0.52648 0.8654 0.0
C710 C 0.24488 0.52754 0.84046 0.0
C711 C 0.21784 0.49974 0.83069 0.0
C712 C 0.23915 0.55259 0.84943 0.0
C713 C 0.2676 0.58443 0.85789 0.0
C714 C 0.2652 0.59489 0.8779 0.0
C715 C 0.29217 0.62471 0.88586 0.0
C716 C 0.32167 0.64437 0.87393 0.0
C717 C 0.32423 0.63432 0.85398 0.0
C718 C 0.29733 0.60456 0.84594 0.0
C719 C 0.08601 0.47171 0.86028 0.0
C720 C 0.07619 0.49618 0.85699 0.0
C721 C 0.11903 0.47892 0.85528 0.0
C722 C 0.14284 0.5105 0.84645 0.0
C723 C 0.13305 0.53496 0.84299 0.0
C724 C 0.10001 0.52789 0.84825 0.0
C725 C 0.17825 0.51808 0.84187 0.0
C726 C 0.20575 0.54727 0.85029 0.0
C727 C 0.18472 0.49497 0.83097 0.0
C728 C 0.15737 0.46567 0.81979 0.0
C729 C 0.13696 0.47068 0.80553 0.0
C730 C 0.11104 0.44305 0.79517 0.0
C731 C 0.10535 0.41027 0.79884 0.0
C732 C 0.12562 0.40505 0.81287 0.0
C733 C 0.15157 0.43259 0.8233 0.0
H734 H 0.08526 0.38891 0.79081 0.0
H735 H 0.34253 0.66742 0.88013 0.0
H736 H 0.87002 0.3668 0.19194 0.0
H737 H 0.80938 0.33569 0.20061 0.0
H738 H 0.78976 0.27457 0.1463 0.0
H739 H 0.85102 0.30609 0.13739 0.0
H740 H 0.74401 0.29531 0.15039 0.0
H741 H 0.78518 0.23987 0.19382 0.0
H742 H 0.8233 0.2347 0.2187 0.0
H743 H 0.79664 0.28568 0.2644 0.0
H744 H 0.75873 0.29163 0.2397 0.0
H745 H 0.57184 0.19182 0.19291 0.0
H746 H 0.62882 0.20938 0.17863 0.0
H747 H 0.67371 0.29063 0.22252 0.0
H748 H 0.61714 0.27362 0.23671 0.0
H749 H 0.70375 0.2487 0.22109 0.0
H750 H 0.66832 0.30982 0.17487 0.0
H751 H 0.63003 0.31378 0.14955 0.0
H752 H 0.64509 0.24835 0.10868 0.0
H753 H 0.68314 0.24365 0.13392 0.0
C754 C 0.85295 0.34635 0.182 0.0
C755 C 0.86535 0.33852 0.16415 0.0
C756 C 0.81825 0.3286 0.18696 0.0
C757 C 0.79512 0.30234 0.17433 0.0
C758 C 0.80725 0.2946 0.15633 0.0
C759 C 0.84215 0.31258 0.15127 0.0
C760 C 0.75824 0.28409 0.17983 0.0
C761 C 0.73504 0.2844 0.16569 0.0
C762 C 0.74657 0.27 0.19983 0.0
C763 C 0.76922 0.26634 0.21484 0.0
C764 C 0.7876 0.25018 0.20913 0.0
C765 C 0.80916 0.24708 0.22321 0.0
C766 C 0.81242 0.25989 0.24311 0.0
C767 C 0.79408 0.27577 0.24898 0.0
C768 C 0.77251 0.27896 0.23495 0.0
C769 C 0.59385 0.21363 0.19937 0.0
C770 C 0.59003 0.23135 0.21594 0.0
C771 C 0.6263 0.22359 0.19119 0.0
C772 C 0.65535 0.2512 0.19959 0.0
C773 C 0.65154 0.26917 0.2159 0.0
C774 C 0.61918 0.2595 0.22391 0.0
C775 C 0.69001 0.2611 0.19192 0.0
C776 C 0.71268 0.25904 0.20567 0.0
C777 C 0.70103 0.27317 0.17153 0.0
C778 C 0.6782 0.27603 0.15638 0.0
C779 C 0.66319 0.29601 0.16058 0.0
C780 C 0.6416 0.29845 0.14622 0.0
C781 C 0.63503 0.28122 0.12755 0.0
C782 C 0.65014 0.26161 0.12317 0.0
C783 C 0.67173 0.25906 0.13749 0.0
H784 H 0.61832 0.28316 0.11645 0.0
H785 H 0.82913 0.25747 0.25399 0.0
H786 H 0.05243 0.5888 0.1114 0.0
H787 H 0.0363 0.57166 0.07565 0.0
H788 H 0.05152 0.48606 0.0851 0.0
H789 H 0.06873 0.50379 0.12062 0.0
H790 H 0.0787 0.51664 0.04941 0.0
H791 H 0.97096 0.47603 0.08408 0.0
H792 H 0.92908 0.48075 0.10633 0.0
H793 H 0.92963 0.55494 0.06465 0.0
H794 H 0.97183 0.55093 0.04222 0.0
H795 H 0.99465 0.42596 0.95978 0.0
H796 H 1.00786 0.44176 0.99592 0.0
H797 H 1.00233 0.53252 0.9847 0.0
H798 H 0.98901 0.51694 0.94852 0.0
H799 H 0.96927 0.49877 0.02129 0.0
H800 H 0.07812 0.53903 0.98704 0.0
H801 H 0.12021 0.53369 0.96534 0.0
H802 H 0.1167 0.4582 0.00716 0.0
H803 H 0.07421 0.46276 0.02897 0.0
C804 C 0.05239 0.56639 0.10579 0.0
C805 C 0.06155 0.54744 0.11874 0.0
C806 C 0.04296 0.55649 0.08544 0.0
C807 C 0.04219 0.52727 0.0778 0.0
C808 C 0.05181 0.50861 0.09069 0.0
C809 C 0.06147 0.51865 0.11098 0.0
C810 C 0.03191 0.51645 0.05628 0.0
C811 C 0.05454 0.51224 0.04337 0.0
C812 C 1.00067 0.51138 0.04829 0.0
C813 C 0.97481 0.5134 0.06155 0.0
C814 C 0.96231 0.49351 0.07971 0.0
C815 C 0.9385 0.49605 0.09236 0.0
C816 C 0.92681 0.51824 0.08696 0.0
C817 C 0.93876 0.5378 0.06883 0.0
C818 C 0.96258 0.53536 0.05612 0.0
C819 C 0.99612 0.44921 0.96499 0.0
C820 C 0.99096 0.47027 0.95123 0.0
C821 C 1.00373 0.45824 0.98563 0.0
C822 C 1.00631 0.48843 0.99291 0.0
C823 C 1.00044 0.50912 0.97937 0.0
C824 C 0.993 0.50022 0.95869 0.0
C825 C 1.01604 0.49887 0.01453 0.0
C826 C 0.99335 0.50306 0.02742 0.0
C827 C 0.04711 0.50369 0.02258 0.0
C828 C 0.07273 0.50099 0.00951 0.0
C829 C 0.08611 0.52109 0.99151 0.0
C830 C 0.11008 0.51824 0.97922 0.0
C831 C 0.12105 0.49555 0.98484 0.0
C832 C 0.10814 0.47572 1.00281 0.0
C833 C 0.08414 0.47845 0.01515 0.0
H834 H 0.13962 0.49339 0.9753 0.0
H835 H 0.90842 0.52022 0.09679 0.0
H836 H 0.58992 0.03621 0.44004 0.0
H837 H 0.58327 0.04463 0.40329 0.0
H838 H 0.48716 0.03941 0.41705 0.0
H839 H 0.49263 0.02873 0.45332 0.0
H840 H 0.48381 1.01262 0.38095 0.0
H841 H 0.56697 0.11422 0.41634 0.0
H842 H 0.61957 0.14485 0.43655 0.0
H843 H 0.6785 0.13986 0.38579 0.0
H844 H 0.62596 0.10753 0.36568 0.0
H845 H 0.47031 0.12523 0.31113 0.0
H846 H 0.4781 0.09789 0.34169 0.0
H847 H 0.56428 0.09872 0.31205 0.0
H848 H 0.55678 0.12637 0.28152 0.0
H849 H 0.5768 0.12242 0.35266 0.0
H850 H 0.4939 0.0264 0.3158 0.0
H851 H 0.44081 0.9935 0.29637 0.0
H852 H 0.3816 0.98947 0.3496 0.0
H853 H 0.43442 0.02304 0.36923 0.0
C854 C 0.56715 0.03629 0.43509 0.0
C855 C 0.54223 0.0328 0.44952 0.0
C856 C 0.56336 0.04111 0.41414 0.0
C857 C 0.53515 0.04358 0.40749 0.0
C858 C 0.50928 0.03788 0.42179 0.0
C859 C 0.51265 0.03224 0.44258 0.0
C860 C 0.53385 0.05549 0.3863 0.0
C861 C 0.50412 0.03664 0.37479 0.0
C862 C 0.56068 0.08655 0.37804 0.0
C863 C 0.59247 0.10806 0.38959 0.0
C864 C 0.59112 0.11952 0.40951 0.0
C865 C 0.62089 0.13696 0.42101 0.0
C866 C 0.65236 0.14429 0.41245 0.0
C867 C 0.6541 0.13411 0.3924 0.0
C868 C 0.62429 0.11601 0.381 0.0
C869 C 0.49074 0.11934 0.3111 0.0
C870 C 0.51247 0.12719 0.29382 0.0
C871 C 0.49511 0.10367 0.3285 0.0
C872 C 0.52152 0.09595 0.32899 0.0
C873 C 0.54358 0.10421 0.31187 0.0
C874 C 0.53899 0.11958 0.29437 0.0
C875 C 0.52639 0.07996 0.34766 0.0
C876 C 0.55676 0.09812 0.35868 0.0
C877 C 0.50009 0.04842 0.35553 0.0
C878 C 0.46818 0.02749 0.34394 0.0
C879 C 0.46958 0.01871 0.32333 0.0
C880 C 0.43952 0.99994 0.31227 0.0
C881 C 0.40784 0.98948 0.32173 0.0
C882 C 0.40616 0.99764 0.34229 0.0
C883 C 0.43616 0.01653 0.35339 0.0
H884 H 0.38459 0.97499 0.31314 0.0
H885 H 0.6754 0.15786 0.42135 0.0
H886 H 0.49941 0.46036 0.77855 0.0
H887 H 0.52298 0.46268 0.74405 0.0
H888 H 0.58767 0.57145 0.74887 0.0
H889 H 0.56341 0.56932 0.78313 0.0
H890 H 0.55745 0.5561 0.71325 0.0
H891 H 0.62048 0.51821 0.75234 0.0
H892 H 0.62983 0.4826 0.77733 0.0
H893 H 0.57268 0.39515 0.73955 0.0
H894 H 0.56251 0.43012 0.71445 0.0
H895 H 0.64791 0.57601 0.62199 0.0
H896 H 0.642 0.5703 0.65949 0.0
H897 H 0.5565 0.46868 0.65378 0.0
H898 H 0.56193 0.47412 0.61614 0.0
H899 H 0.60312 0.48228 0.69054 0.0
H900 H 0.53469 0.52234 0.65457 0.0
H901 H 0.52831 0.56031 0.62989 0.0
H902 H 0.60088 0.64737 0.6636 0.0
H903 H 0.60811 0.60985 0.68828 0.0
C904 C 0.51859 0.48474 0.77219 0.0
C905 C 0.52968 0.51467 0.78342 0.0
C906 C 0.53231 0.48599 0.7526 0.0
C907 C 0.5575 0.51716 0.74404 0.0
C908 C 0.56841 0.5471 0.75525 0.0
C909 C 0.55457 0.54587 0.77478 0.0
C910 C 0.57087 0.51881 0.72287 0.0
C911 C 0.568 0.54038 0.70846 0.0
C912 C 0.58428 0.49798 0.71654 0.0
C913 C 0.59049 0.47679 0.73155 0.0
C914 C 0.60966 0.49133 0.74941 0.0
C915 C 0.61516 0.47127 0.76359 0.0
C916 C 0.60185 0.43664 0.76002 0.0
C917 C 0.583 0.422 0.74227 0.0
C918 C 0.57739 0.44195 0.72805 0.0
C919 C 0.62844 0.55205 0.62864 0.0
C920 C 0.60494 0.52576 0.61606 0.0
C921 C 0.62522 0.54881 0.6501 0.0
C922 C 0.59865 0.5192 0.6593 0.0
C923 C 0.57722 0.49167 0.6469 0.0
C924 C 0.58023 0.49497 0.6254 0.0
C925 C 0.58944 0.5194 0.6812 0.0
C926 C 0.59293 0.49816 0.6956 0.0
C927 C 0.577 0.54085 0.68773 0.0
C928 C 0.57223 0.56334 0.67311 0.0
C929 C 0.54949 0.54959 0.65661 0.0
C930 C 0.54569 0.57102 0.64264 0.0
C931 C 0.56426 0.60624 0.64514 0.0
C932 C 0.58657 0.62009 0.66166 0.0
C933 C 0.59053 0.59876 0.67564 0.0
H934 H 0.56129 0.6228 0.6343 0.0
H935 H 0.60625 0.42117 0.77097 0.0
H936 H 0.57361 0.06248 0.56196 0.0
H937 H 0.57894 0.06034 0.59955 0.0
H938 H 0.48424 0.06022 0.60809 0.0
H939 H 0.47846 0.06173 0.57058 0.0
H940 H 0.53887 0.10559 0.63504 0.0
H941 H 0.481 0.98841 0.61246 0.0
H942 H 0.47602 0.94197 0.59062 0.0
H943 H 0.57044 0.95569 0.61426 0.0
H944 H 0.57622 1.00258 0.63604 0.0
H945 H 0.50291 0.05314 0.74078 0.0
H946 H 0.50235 0.06278 0.70356 0.0
H947 H 0.57684 0.03109 0.69391 0.0
H948 H 0.57559 0.0194 0.73082 0.0
H949 H 0.53371 1.00341 0.66675 0.0
H950 H 0.59358 0.11846 0.68959 0.0
H951 H 0.60332 0.16761 0.71045 0.0
H952 H 0.51299 0.16237 0.68586 0.0
H953 H 0.50242 0.11285 0.66506 0.0
C954 C 0.55398 0.06205 0.57187 0.0
C955 C 0.52551 0.06205 0.56335 0.0
C956 C 0.55707 0.06089 0.59332 0.0
C957 C 0.53195 0.06009 0.60662 0.0
C958 C 0.50396 0.06095 0.59813 0.0
C959 C 0.50062 0.06163 0.5767 0.0
C960 C 0.53401 0.0568 0.62935 0.0
C961 C 0.53745 0.08317 0.64207 0.0
C962 C 0.53311 0.02797 0.63841 0.0
C963 C 0.52918 0.99918 0.62575 0.0
C964 C 0.50079 0.98164 0.61292 0.0
C965 C 0.49781 0.95523 0.60056 0.0
C966 C 0.52292 0.94592 0.60103 0.0
C967 C 0.55101 0.96294 0.61391 0.0
C968 C 0.55413 0.98941 0.62628 0.0
C969 C 0.51948 0.04874 0.73069 0.0
C970 C 0.53936 0.03564 0.73868 0.0
C971 C 0.51928 0.05435 0.70937 0.0
C972 C 0.53987 0.04808 0.6957 0.0
C973 C 0.56052 0.03598 0.70392 0.0
C974 C 0.55997 0.02949 0.72508 0.0
C975 C 0.53887 0.05244 0.67282 0.0
C976 C 0.53544 0.02611 0.65994 0.0
C977 C 0.54055 0.0817 0.66362 0.0
C978 C 0.54704 0.11173 0.67591 0.0
C979 C 0.57568 0.12766 0.68872 0.0
C980 C 0.58136 0.15559 0.70053 0.0
C981 C 0.55874 0.16804 0.69953 0.0
C982 C 0.53046 0.15266 0.68665 0.0
C983 C 0.52463 0.12468 0.67483 0.0
H984 H 0.56315 0.18965 0.7087 0.0
H985 H 0.52058 0.92547 0.59145 0.0
H986 H 0.53557 0.49065 0.8997 0.0
H987 H 0.53025 0.48695 0.93739 0.0
H988 H 0.5638 0.59414 0.9395 0.0
H989 H 0.57121 0.59814 0.90197 0.0
H990 H 0.5942 0.58326 0.96733 0.0
H991 H 0.47694 0.5258 0.94967 0.0
H992 H 0.42456 0.48423 0.93208 0.0
H993 H 0.43029 0.40213 0.96127 0.0
H994 H 0.48306 0.4432 0.97879 0.0
H995 H 0.54594 0.57243 0.07488 0.0
H996 H 0.5358 0.57199 0.03762 0.0
H997 H 0.55979 0.49213 0.02984 0.0
H998 H 0.57108 0.49325 0.06684 0.0
H999 H 0.49616 0.49056 0.00604 0.0
H1000 H 0.62052 0.55427 0.0192 0.0
H1001 H 0.67025 0.5989 0.03748 0.0
H1002 H 0.64497 0.6736 0.01696 0.0
H1003 H 0.59476 0.62922 0.99882 0.0
C1004 C 0.54156 0.51331 0.90826 0.0
C1005 C 0.55391 0.5447 0.89797 0.0
C1006 C 0.53826 0.51118 0.92983 0.0
C1007 C 0.54614 0.54018 0.9415 0.0
C1008 C 0.55766 0.57136 0.93103 0.0
C1009 C 0.56179 0.57365 0.90954 0.0
C1010 C 0.54431 0.53856 0.96459 0.0
C1011 C 0.57236 0.56321 0.97563 0.0
C1012 C 0.51605 0.51244 0.97579 0.0
C1013 C 0.48415 0.48761 0.96542 0.0
C1014 C 0.46717 0.49888 0.95224 0.0
C1015 C 0.43739 0.4754 0.94228 0.0
C1016 C 0.42414 0.44056 0.94552 0.0
C1017 C 0.44061 0.42913 0.95877 0.0
C1018 C 0.47044 0.4525 0.96873 0.0
C1019 C 0.54823 0.55424 0.06529 0.0
C1020 C 0.55926 0.53284 0.07374 0.0
C1021 C 0.54252 0.55407 0.04404 0.0
C1022 C 0.54696 0.53195 0.03103 0.0
C1023 C 0.55601 0.50921 0.03965 0.0
C1024 C 0.56257 0.50998 0.06075 0.0
C1025 C 0.54595 0.53497 0.00826 0.0
C1026 C 0.51756 0.51064 0.99745 0.0
C1027 C 0.5734 0.56178 0.99723 0.0
C1028 C 0.60374 0.58842 0.0079 0.0
C1029 C 0.62541 0.58015 0.01877 0.0
C1030 C 0.6537 0.6054 0.02906 0.0
C1031 C 0.66071 0.63905 0.02844 0.0
C1032 C 0.63948 0.64752 0.01747 0.0
C1033 C 0.61112 0.62234 0.00717 0.0
H1034 H 0.68263 0.65856 0.03641 0.0
H1035 H 0.40109 0.42242 0.9378 0.0
H1036 H 1.00546 0.44898 0.23961 0.0
H1037 H 1.00395 0.45753 0.27684 0.0
H1038 H 0.05671 0.56609 0.26665 0.0
H1039 H 0.05712 0.55751 0.22935 0.0
H1040 H 0.08579 0.54439 0.29764 0.0
H1041 H 0.97731 0.52967 0.27904 0.0
H1042 H 0.92078 0.5009 0.26284 0.0
H1043 H 0.88985 0.41344 0.30213 0.0
H1044 H 0.94653 0.4415 0.31832 0.0
H1045 H 0.0752 0.59525 0.39772 0.0
H1046 H 0.06648 0.58611 0.3607 0.0
H1047 H 1.0058 0.47793 0.37162 0.0
H1048 H 1.01437 0.48695 0.40886 0.0
H1049 H 0.97963 0.49885 0.34014 0.0
H1050 H 0.08856 0.51275 0.35793 0.0
H1051 H 0.14558 0.54099 0.37361 0.0
H1052 H 0.17583 0.62936 0.3353 0.0
H1053 H 0.11879 0.6018 0.31959 0.0
C1054 C 1.01659 0.47467 0.24531 0.0
C1055 C 0.03208 0.50268 0.23162 0.0
C1056 C 1.01563 0.4795 0.26657 0.0
C1057 C 0.03031 0.51245 0.27454 0.0
C1058 C 0.04545 0.54045 0.26085 0.0
C1059 C 0.04595 0.53557 0.23956 0.0
C1060 C 0.03085 0.51769 0.29719 0.0
C1061 C 0.06259 0.53488 0.30689 0.0
C1062 C 1.00054 0.50445 0.30931 0.0
C1063 C 0.96633 0.48755 0.29974 0.0
C1064 C 0.95858 0.50417 0.2841 0.0
C1065 C 0.92647 0.48802 0.27494 0.0
C1066 C 0.90174 0.45532 0.28142 0.0
C1067 C 0.90906 0.43876 0.29711 0.0
C1068 C 0.94118 0.45478 0.30629 0.0
C1069 C 0.05959 0.5695 0.39231 0.0
C1070 C 0.04542 0.54184 0.40631 0.0
C1071 C 0.05469 0.56432 0.3711 0.0
C1072 C 0.03596 0.53129 0.3633 0.0
C1073 C 1.02035 0.50365 0.37726 0.0
C1074 C 0.0251 0.50886 0.39859 0.0
C1075 C 0.03465 0.52576 0.34059 0.0
C1076 C 1.00282 0.50841 0.33089 0.0
C1077 C 0.0649 0.53875 0.32839 0.0
C1078 C 0.09929 0.55534 0.33773 0.0
C1079 C 0.10729 0.5383 0.35296 0.0
C1080 C 0.13962 0.55417 0.36183 0.0
C1081 C 0.16429 0.58698 0.35549 0.0
C1082 C 0.15669 0.60396 0.34022 0.0
C1083 C 0.12436 0.58822 0.33131 0.0
H1084 H 0.18931 0.59922 0.36238 0.0
H1085 H 0.87689 0.44286 0.2743 0.0
loop_
_geom_bond_atom_site_label_1
_geom_bond_atom_site_label_2
_geom_bond_distance
_geom_bond_site_symmetry_2
_ccdc_geom_bond_type
C0 Eu1 2.835 . S
C0 C2 1.500 . S
C0 O20 1.257 . S
C0 O21 1.260 . S
Eu1 C0 2.835 . S
Eu1 O20 2.473 . S
Eu1 O21 2.480 . S
Eu1 O22 2.430 . S
Eu1 O23 2.670 1_655 S
Eu1 O24 2.394 . S
Eu1 O29 2.355 1_655 S
Eu1 O31 2.374 1_655 S
C2 C0 1.500 . S
C2 C3 1.377 . S
C2 C7 1.377 . S
C3 C2 1.377 . S
C3 C4 1.395 . S
C3 H32 0.931 . S
C4 C3 1.395 . S
C4 C5 1.383 . S
C4 H33 0.931 . S
C5 C4 1.383 . S
C5 C6 1.394 . S
C6 C5 1.394 . S
C6 C7 1.378 . S
C6 H34 0.931 . S
C7 C2 1.377 . S
C7 C6 1.378 . S
C7 H35 0.931 . S
C8 O22 1.259 1_455 S
C8 O23 1.270 . S
C9 O24 1.251 . S
C9 O25 1.251 . S
C10 Eu11 2.835 . S
C10 C12 1.500 . S
C10 O26 1.257 . S
C10 O27 1.260 . S
Eu11 C10 2.835 . S
Eu11 O23 2.355 . S
Eu11 O25 2.374 1_455 S
Eu11 O26 2.473 . S
Eu11 O27 2.480 . S
Eu11 O28 2.430 . S
Eu11 O29 2.670 . S
Eu11 O30 2.394 . S
C12 C10 1.500 . S
C12 C13 1.377 . S
C12 C17 1.377 . S
C13 C12 1.377 . S
C13 C14 1.395 . S
C13 H36 0.931 . S
C14 C13 1.395 . S
C14 C15 1.383 . S
C14 H37 0.931 . S
C15 C14 1.383 . S
C15 C16 1.394 . S
C16 C15 1.394 . S
C16 C17 1.378 . S
C16 H38 0.931 . S
C17 C12 1.377 . S
C17 C16 1.378 . S
C17 H39 0.931 . S
C18 O28 1.259 . S
C18 O29 1.270 . S
C19 O30 1.251 . S
C19 O31 1.251 . S
O20 C0 1.257 . S
O20 Eu1 2.473 . S
O21 C0 1.260 . S
O21 Eu1 2.480 . S
O22 Eu1 2.430 . S
O22 C8 1.259 1_655 S
O23 Eu1 2.670 1_455 S
O23 C8 1.270 . S
O23 Eu11 2.355 . S
O24 Eu1 2.394 . S
O24 C9 1.251 . S
O25 C9 1.251 . S
O25 Eu11 2.374 1_655 S
O26 C10 1.257 . S
O26 Eu11 2.473 . S
O27 C10 1.260 . S
O27 Eu11 2.480 . S
O28 Eu11 2.430 . S
O28 C18 1.259 . S
O29 Eu1 2.355 1_455 S
O29 Eu11 2.670 . S
O29 C18 1.270 . S
O30 Eu11 2.394 . S
O30 C19 1.251 . S
O31 Eu1 2.374 1_455 S
O31 C19 1.251 . S
H32 C3 0.931 . S
H33 C4 0.931 . S
H34 C6 0.931 . S
H35 C7 0.931 . S
H36 C13 0.931 . S
H37 C14 0.931 . S
H38 C16 0.931 . S
H39 C17 0.931 . S
C40 Eu41 2.835 . S
C40 C42 1.500 . S
C40 O60 1.257 . S
C40 O61 1.260 . S
Eu41 C40 2.835 . S
Eu41 O60 2.473 . S
Eu41 O61 2.480 . S
Eu41 O62 2.430 . S
Eu41 O63 2.670 . S
Eu41 O64 2.394 . S
Eu41 O69 2.355 . S
Eu41 O71 2.374 1_545 S
C42 C40 1.500 . S
C42 C43 1.377 . S
C42 C47 1.377 . S
C43 C42 1.377 . S
C43 C44 1.395 . S
C43 H72 0.931 . S
C44 C43 1.395 . S
C44 C45 1.383 . S
C44 H73 0.931 . S
C45 C44 1.383 . S
C45 C46 1.394 . S
C46 C45 1.394 . S
C46 C47 1.378 . S
C46 H74 0.931 . S
C47 C42 1.377 . S
C47 C46 1.378 . S
C47 H75 0.931 . S
C48 O62 1.259 . S
C48 O63 1.270 . S
C49 O64 1.251 . S
C49 O65 1.251 . S
C50 Eu51 2.835 1_565 S
C50 C52 1.500 . S
C50 O66 1.257 . S
C50 O67 1.260 . S
Eu51 C50 2.835 1_545 S
Eu51 O63 2.355 . S
Eu51 O65 2.374 . S
Eu51 O66 2.473 1_545 S
Eu51 O67 2.480 1_545 S
Eu51 O68 2.430 . S
Eu51 O69 2.670 . S
Eu51 O70 2.394 1_545 S
C52 C50 1.500 . S
C52 C53 1.377 . S
C52 C57 1.377 . S
C53 C52 1.377 . S
C53 C54 1.395 . S
C53 H76 0.931 . S
C54 C53 1.395 . S
C54 C55 1.383 . S
C54 H77 0.931 . S
C55 C54 1.383 . S
C55 C56 1.394 . S
C56 C55 1.394 . S
C56 C57 1.378 . S
C56 H78 0.931 . S
C57 C52 1.377 . S
C57 C56 1.378 . S
C57 H79 0.931 . S
C58 O68 1.259 . S
C58 O69 1.270 . S
C59 O70 1.251 . S
C59 O71 1.251 . S
O60 C40 1.257 . S
O60 Eu41 2.473 . S
O61 C40 1.260 . S
O61 Eu41 2.480 . S
O62 Eu41 2.430 . S
O62 C48 1.259 . S
O63 Eu41 2.670 . S
O63 C48 1.270 . S
O63 Eu51 2.355 . S
O64 Eu41 2.394 . S
O64 C49 1.251 . S
O65 C49 1.251 . S
O65 Eu51 2.374 . S
O66 C50 1.257 . S
O66 Eu51 2.473 1_565 S
O67 C50 1.260 . S
O67 Eu51 2.480 1_565 S
O68 Eu51 2.430 . S
O68 C58 1.259 . S
O69 Eu41 2.355 . S
O69 Eu51 2.670 . S
O69 C58 1.270 . S
O70 Eu51 2.394 1_565 S
O70 C59 1.251 . S
O71 Eu41 2.374 1_565 S
O71 C59 1.251 . S
H72 C43 0.931 . S
H73 C44 0.931 . S
H74 C46 0.931 . S
H75 C47 0.931 . S
H76 C53 0.931 . S
H77 C54 0.931 . S
H78 C56 0.931 . S
H79 C57 0.931 . S
C80 Eu81 2.835 . S
C80 C82 1.500 . S
C80 O100 1.257 . S
C80 O101 1.260 . S
Eu81 C80 2.835 . S
Eu81 O100 2.473 . S
Eu81 O101 2.480 . S
Eu81 O102 2.430 . S
Eu81 O103 2.670 . S
Eu81 O104 2.394 . S
Eu81 O109 2.355 . S
Eu81 O111 2.374 . S
C82 C80 1.500 . S
C82 C83 1.377 . S
C82 C87 1.377 . S
C83 C82 1.377 . S
C83 C84 1.395 . S
C83 H112 0.931 . S
C84 C83 1.395 . S
C84 C85 1.383 . S
C84 H113 0.931 . S
C85 C84 1.383 . S
C85 C86 1.394 . S
C86 C85 1.394 . S
C86 C87 1.378 . S
C86 H114 0.931 . S
C87 C82 1.377 . S
C87 C86 1.378 . S
C87 H115 0.931 . S
C88 O102 1.259 . S
C88 O103 1.270 . S
C89 O104 1.251 . S
C89 O105 1.251 . S
C90 Eu91 2.835 . S
C90 C92 1.500 . S
C90 O106 1.257 . S
C90 O107 1.260 . S
Eu91 C90 2.835 . S
Eu91 O103 2.355 . S
Eu91 O105 2.374 . S
Eu91 O106 2.473 . S
Eu91 O107 2.480 . S
Eu91 O108 2.430 . S
Eu91 O109 2.670 . S
Eu91 O110 2.394 . S
C92 C90 1.500 . S
C92 C93 1.377 . S
C92 C97 1.377 . S
C93 C92 1.377 . S
C93 C94 1.395 . S
C93 H116 0.931 . S
C94 C93 1.395 . S
C94 C95 1.383 . S
C94 H117 0.931 . S
C95 C94 1.383 . S
C95 C96 1.394 . S
C96 C95 1.394 . S
C96 C97 1.378 . S
C96 H118 0.931 . S
C97 C92 1.377 . S
C97 C96 1.378 . S
C97 H119 0.931 . S
C98 O108 1.259 . S
C98 O109 1.270 . S
C99 O110 1.251 . S
C99 O111 1.251 . S
O100 C80 1.257 . S
O100 Eu81 2.473 . S
O101 C80 1.260 . S
O101 Eu81 2.480 . S
O102 Eu81 2.430 . S
O102 C88 1.259 . S
O103 Eu81 2.670 . S
O103 C88 1.270 . S
O103 Eu91 2.355 . S
O104 Eu81 2.394 . S
O104 C89 1.251 . S
O105 C89 1.251 . S
O105 Eu91 2.374 . S
O106 C90 1.257 . S
O106 Eu91 2.473 . S
O107 C90 1.260 . S
O107 Eu91 2.480 . S
O108 Eu91 2.430 . S
O108 C98 1.259 . S
O109 Eu81 2.355 . S
O109 Eu91 2.670 . S
O109 C98 1.270 . S
O110 Eu91 2.394 . S
O110 C99 1.251 . S
O111 Eu81 2.374 . S
O111 C99 1.251 . S
H112 C83 0.931 . S
H113 C84 0.931 . S
H114 C86 0.931 . S
H115 C87 0.931 . S
H116 C93 0.931 . S
H117 C94 0.931 . S
H118 C96 0.931 . S
H119 C97 0.931 . S
O120 Cd121 2.300 . S
O120 C127 1.275 . S
Cd121 O120 2.300 . S
Cd121 O129 2.381 . S
Cd121 O130 2.378 . S
O122 Cd123 2.385 1_545 S
O122 C127 1.255 . S
Cd123 O122 2.385 1_565 S
Cd123 O124 2.317 . S
O124 Cd123 2.317 . S
O124 C125 1.232 . S
C125 O124 1.232 . S
C125 O126 1.218 . S
O126 C125 1.218 . S
C127 O120 1.275 . S
C127 O122 1.255 . S
C128 O129 1.258 . S
C128 O130 1.256 . S
O129 Cd121 2.381 . S
O129 C128 1.258 . S
O130 Cd121 2.378 . S
O130 C128 1.256 . S
O131 Cd132 2.300 . S
O131 C138 1.275 . S
Cd132 O131 2.300 . S
Cd132 O140 2.381 . S
Cd132 O141 2.378 . S
O133 Cd134 2.385 . S
O133 C138 1.255 . S
Cd134 O133 2.385 . S
Cd134 O135 2.317 . S
O135 Cd134 2.317 . S
O135 C136 1.232 . S
C136 O135 1.232 . S
C136 O137 1.218 . S
O137 C136 1.218 . S
C138 O131 1.275 . S
C138 O133 1.255 . S
C139 O140 1.258 . S
C139 O141 1.256 . S
O140 Cd132 2.381 . S
O140 C139 1.258 . S
O141 Cd132 2.378 . S
O141 C139 1.256 . S
O142 Cd143 2.300 . S
O142 C149 1.277 1_455 S
Cd143 O142 2.300 . S
Cd143 O151 2.381 . S
Cd143 O152 2.378 . S
O144 Cd145 2.385 . S
O144 C149 1.255 . S
Cd145 O144 2.385 . S
Cd145 O146 2.317 . S
O146 Cd145 2.317 . S
O146 C147 1.232 . S
C147 O146 1.232 . S
C147 O148 1.218 . S
O148 C147 1.218 . S
C149 O142 1.277 1_655 S
C149 O144 1.255 . S
C150 O151 1.258 . S
C150 O152 1.256 . S
O151 Cd143 2.381 . S
O151 C150 1.258 . S
O152 Cd143 2.378 . S
O152 C150 1.256 . S
O153 Cd154 2.300 . S
O153 C160 1.275 . S
Cd154 O153 2.300 . S
Cd154 O162 2.381 . S
Cd154 O163 2.378 . S
O155 Cd156 2.385 1_455 S
O155 C160 1.255 . S
Cd156 O155 2.385 1_655 S
Cd156 O157 2.317 . S
O157 Cd156 2.317 . S
O157 C158 1.232 . S
C158 O157 1.232 . S
C158 O159 1.218 . S
O159 C158 1.218 . S
C160 O153 1.275 . S
C160 O155 1.255 . S
C161 O162 1.258 . S
C161 O163 1.256 . S
O162 Cd154 2.381 . S
O162 C161 1.258 . S
O163 Cd154 2.378 . S
O163 C161 1.256 . S
O164 Cd165 2.300 . S
O164 C171 1.275 1_565 S
Cd165 O164 2.300 . S
Cd165 O173 2.381 . S
Cd165 O174 2.378 . S
O166 Cd167 2.385 . S
O166 C171 1.255 . S
Cd167 O166 2.385 . S
Cd167 O168 2.317 . S
O168 Cd167 2.317 . S
O168 C169 1.232 . S
C169 O168 1.232 . S
C169 O170 1.218 . S
O170 C169 1.218 . S
C171 O164 1.275 1_545 S
C171 O166 1.255 . S
C172 O173 1.258 . S
C172 O174 1.256 . S
O173 Cd165 2.381 . S
O173 C172 1.258 . S
O174 Cd165 2.378 . S
O174 C172 1.256 . S
O175 Cd176 2.300 . S
O175 C182 1.275 . S
Cd176 O175 2.300 . S
Cd176 O184 2.381 . S
Cd176 O185 2.378 . S
O177 Cd178 2.385 . S
O177 C182 1.255 . S
Cd178 O177 2.385 . S
Cd178 O179 2.317 . S
O179 Cd178 2.317 . S
O179 C180 1.232 . S
C180 O179 1.232 . S
C180 O181 1.218 . S
O181 C180 1.218 . S
C182 O175 1.275 . S
C182 O177 1.255 . S
C183 O184 1.258 . S
C183 O185 1.256 . S
O184 Cd176 2.381 . S
O184 C183 1.258 . S
O185 Cd176 2.378 . S
O185 C183 1.256 . S
H186 C204 0.951 . S
H187 C206 0.951 . S
H188 C208 0.950 . S
H189 C209 0.950 . S
H190 C211 0.950 . S
H191 C214 0.950 . S
H192 C215 0.950 . S
H193 C217 0.950 . S
H194 C218 0.950 . S
H195 C219 0.951 . S
H196 C221 0.951 . S
H197 C223 0.950 . S
H198 C224 0.950 . S
H199 C226 0.950 . S
H200 C229 0.950 . S
H201 C230 0.950 . S
H202 C232 0.950 . S
H203 C233 0.950 . S
C204 H186 0.951 . S
C204 C205 1.366 . S
C204 C206 1.388 . S
C205 C204 1.366 . S
C205 C209 1.385 . S
C206 H187 0.951 . S
C206 C204 1.388 . S
C206 C207 1.366 . S
C207 C206 1.366 . S
C207 C208 1.414 . S
C207 C210 1.499 . S
C208 H188 0.950 . S
C208 C207 1.414 . S
C208 C209 1.374 . S
C209 H189 0.950 . S
C209 C205 1.385 . S
C209 C208 1.374 . S
C210 C207 1.499 . S
C210 C211 1.373 . S
C210 C212 1.389 . S
C211 H190 0.950 . S
C211 C210 1.373 . S
C211 C227 1.377 . S
C212 C210 1.389 . S
C212 C213 1.524 . S
C212 C226 1.377 . S
C213 C212 1.524 . S
C213 C214 1.397 . S
C213 C218 1.363 . S
C214 H191 0.950 . S
C214 C213 1.397 . S
C214 C215 1.334 . S
C215 H192 0.950 . S
C215 C214 1.334 . S
C215 C216 1.287 . S
C216 C215 1.287 . S
C216 C217 1.524 . S
C216 H235 0.913 . S
C217 H193 0.950 . S
C217 C216 1.524 . S
C217 C218 1.415 . S
C218 H194 0.950 . S
C218 C213 1.363 . S
C218 C217 1.415 . S
C219 H195 0.951 . S
C219 C220 1.366 . S
C219 C221 1.388 . S
C220 C219 1.366 . S
C220 C224 1.385 . S
C221 H196 0.951 . S
C221 C219 1.388 . S
C221 C222 1.366 . S
C222 C221 1.366 . S
C222 C223 1.414 . S
C222 C225 1.499 . S
C223 H197 0.950 . S
C223 C222 1.414 . S
C223 C224 1.374 . S
C224 H198 0.950 . S
C224 C220 1.385 . S
C224 C223 1.374 . S
C225 C222 1.499 . S
C225 C226 1.373 . S
C225 C227 1.389 . S
C226 H199 0.950 . S
C226 C212 1.377 . S
C226 C225 1.373 . S
C227 C211 1.377 . S
C227 C225 1.389 . S
C227 C228 1.524 . S
C228 C227 1.524 . S
C228 C229 1.397 . S
C228 C233 1.363 . S
C229 H200 0.950 . S
C229 C228 1.397 . S
C229 C230 1.334 . S
C230 H201 0.950 . S
C230 C229 1.334 . S
C230 C231 1.287 . S
C231 C230 1.287 . S
C231 C232 1.524 . S
C231 H234 0.999 . S
C232 H202 0.950 . S
C232 C231 1.524 . S
C232 C233 1.415 . S
C233 H203 0.950 . S
C233 C228 1.363 . S
C233 C232 1.415 . S
H234 C231 0.999 . S
H235 C216 0.913 . S
H236 C254 0.951 . S
H237 C256 0.951 . S
H238 C258 0.950 . S
H239 C259 0.950 . S
H240 C261 0.950 . S
H241 C264 0.950 . S
H242 C265 0.950 . S
H243 C267 0.950 . S
H244 C268 0.950 . S
H245 C269 0.951 . S
H246 C271 0.951 . S
H247 C273 0.950 . S
H248 C274 0.950 . S
H249 C276 0.950 . S
H250 C279 0.950 . S
H251 C280 0.950 . S
H252 C282 0.950 . S
H253 C283 0.950 . S
C254 H236 0.951 . S
C254 C255 1.366 . S
C254 C256 1.388 . S
C255 C254 1.366 . S
C255 C259 1.385 . S
C256 H237 0.951 . S
C256 C254 1.388 . S
C256 C257 1.366 . S
C257 C256 1.366 . S
C257 C258 1.414 . S
C257 C260 1.499 . S
C258 H238 0.950 . S
C258 C257 1.414 . S
C258 C259 1.374 . S
C259 H239 0.950 . S
C259 C255 1.385 . S
C259 C258 1.374 . S
C260 C257 1.499 . S
C260 C261 1.373 . S
C260 C262 1.389 . S
C261 H240 0.950 . S
C261 C260 1.373 . S
C261 C277 1.377 . S
C262 C260 1.389 . S
C262 C263 1.524 . S
C262 C276 1.377 . S
C263 C262 1.524 . S
C263 C264 1.397 . S
C263 C268 1.363 . S
C264 H241 0.950 . S
C264 C263 1.397 . S
C264 C265 1.334 . S
C265 H242 0.950 . S
C265 C264 1.334 . S
C265 C266 1.287 . S
C266 C265 1.287 . S
C266 C267 1.524 . S
C266 H285 0.913 . S
C267 H243 0.950 . S
C267 C266 1.524 . S
C267 C268 1.415 . S
C268 H244 0.950 . S
C268 C263 1.363 . S
C268 C267 1.415 . S
C269 H245 0.951 . S
C269 C270 1.366 . S
C269 C271 1.388 . S
C270 C269 1.366 . S
C270 C274 1.385 . S
C271 H246 0.951 . S
C271 C269 1.388 . S
C271 C272 1.366 . S
C272 C271 1.366 . S
C272 C273 1.414 . S
C272 C275 1.499 . S
C273 H247 0.950 . S
C273 C272 1.414 . S
C273 C274 1.374 . S
C274 H248 0.950 . S
C274 C270 1.385 . S
C274 C273 1.374 . S
C275 C272 1.499 . S
C275 C276 1.373 . S
C275 C277 1.389 . S
C276 H249 0.950 . S
C276 C262 1.377 . S
C276 C275 1.373 . S
C277 C261 1.377 . S
C277 C275 1.389 . S
C277 C278 1.524 . S
C278 C277 1.524 . S
C278 C279 1.397 . S
C278 C283 1.363 . S
C279 H250 0.950 . S
C279 C278 1.397 . S
C279 C280 1.334 . S
C280 H251 0.950 . S
C280 C279 1.334 . S
C280 C281 1.287 . S
C281 C280 1.287 . S
C281 C282 1.524 . S
C281 H284 0.999 . S
C282 H252 0.950 . S
C282 C281 1.524 . S
C282 C283 1.415 . S
C283 H253 0.950 . S
C283 C278 1.363 . S
C283 C282 1.415 . S
H284 C281 0.999 . S
H285 C266 0.913 . S
H286 C304 0.951 . S
H287 C306 0.951 . S
H288 C308 0.950 . S
H289 C309 0.950 . S
H290 C311 0.950 . S
H291 C314 0.950 . S
H292 C315 0.950 . S
H293 C317 0.950 . S
H294 C318 0.950 . S
H295 C319 0.951 . S
H296 C321 0.951 . S
H297 C323 0.950 . S
H298 C324 0.950 . S
H299 C326 0.950 . S
H300 C329 0.950 . S
H301 C330 0.950 . S
H302 C332 0.950 . S
H303 C333 0.950 . S
C304 H286 0.951 . S
C304 C305 1.366 . S
C304 C306 1.388 . S
C305 C304 1.366 . S
C305 C309 1.385 . S
C306 H287 0.951 . S
C306 C304 1.388 . S
C306 C307 1.366 . S
C307 C306 1.366 . S
C307 C308 1.414 . S
C307 C310 1.499 . S
C308 H288 0.950 . S
C308 C307 1.414 . S
C308 C309 1.374 . S
C309 H289 0.950 . S
C309 C305 1.385 . S
C309 C308 1.374 . S
C310 C307 1.499 . S
C310 C311 1.373 . S
C310 C312 1.389 . S
C311 H290 0.950 . S
C311 C310 1.373 . S
C311 C327 1.377 . S
C312 C310 1.389 . S
C312 C313 1.524 . S
C312 C326 1.377 . S
C313 C312 1.524 . S
C313 C314 1.397 . S
C313 C318 1.363 . S
C314 H291 0.950 . S
C314 C313 1.397 . S
C314 C315 1.334 . S
C315 H292 0.950 . S
C315 C314 1.334 . S
C315 C316 1.287 . S
C316 C315 1.287 . S
C316 C317 1.524 . S
C316 H335 0.913 . S
C317 H293 0.950 . S
C317 C316 1.524 . S
C317 C318 1.415 . S
C318 H294 0.950 . S
C318 C313 1.363 . S
C318 C317 1.415 . S
C319 H295 0.951 . S
C319 C320 1.366 . S
C319 C321 1.388 . S
C320 C319 1.366 . S
C320 C324 1.385 . S
C321 H296 0.951 . S
C321 C319 1.388 . S
C321 C322 1.366 . S
C322 C321 1.366 . S
C322 C323 1.414 . S
C322 C325 1.499 . S
C323 H297 0.950 . S
C323 C322 1.414 . S
C323 C324 1.374 . S
C324 H298 0.950 . S
C324 C320 1.385 . S
C324 C323 1.374 . S
C325 C322 1.499 . S
C325 C326 1.373 . S
C325 C327 1.389 . S
C326 H299 0.950 . S
C326 C312 1.377 . S
C326 C325 1.373 . S
C327 C311 1.377 . S
C327 C325 1.389 . S
C327 C328 1.524 . S
C328 C327 1.524 . S
C328 C329 1.397 . S
C328 C333 1.363 . S
C329 H300 0.950 . S
C329 C328 1.397 . S
C329 C330 1.334 . S
C330 H301 0.950 . S
C330 C329 1.334 . S
C330 C331 1.287 . S
C331 C330 1.287 . S
C331 C332 1.524 . S
C331 H334 0.999 . S
C332 H302 0.950 . S
C332 C331 1.524 . S
C332 C333 1.415 . S
C333 H303 0.950 . S
C333 C328 1.363 . S
C333 C332 1.415 . S
H334 C331 0.999 . S
H335 C316 0.913 . S
H336 C354 0.951 . S
H337 C356 0.951 . S
H338 C358 0.950 . S
H339 C359 0.950 . S
H340 C361 0.950 . S
H341 C364 0.950 . S
H342 C365 0.950 . S
H343 C367 0.950 . S
H344 C368 0.950 . S
H345 C369 0.951 . S
H346 C371 0.951 . S
H347 C373 0.950 . S
H348 C374 0.950 . S
H349 C376 0.950 . S
H350 C379 0.950 . S
H351 C380 0.950 . S
H352 C382 0.950 . S
H353 C383 0.950 . S
C354 H336 0.951 . S
C354 C355 1.366 . S
C354 C356 1.388 . S
C355 C354 1.366 . S
C355 C359 1.385 . S
C356 H337 0.951 . S
C356 C354 1.388 . S
C356 C357 1.366 . S
C357 C356 1.366 . S
C357 C358 1.414 . S
C357 C360 1.499 . S
C358 H338 0.950 . S
C358 C357 1.414 . S
C358 C359 1.374 . S
C359 H339 0.950 . S
C359 C355 1.385 . S
C359 C358 1.374 . S
C360 C357 1.499 . S
C360 C361 1.373 . S
C360 C362 1.389 . S
C361 H340 0.950 . S
C361 C360 1.373 . S
C361 C377 1.377 . S
C362 C360 1.389 . S
C362 C363 1.524 . S
C362 C376 1.377 . S
C363 C362 1.524 . S
C363 C364 1.397 . S
C363 C368 1.363 . S
C364 H341 0.950 . S
C364 C363 1.397 . S
C364 C365 1.334 . S
C365 H342 0.950 . S
C365 C364 1.334 . S
C365 C366 1.287 . S
C366 C365 1.287 . S
C366 C367 1.524 . S
C366 H385 0.913 . S
C367 H343 0.950 . S
C367 C366 1.524 . S
C367 C368 1.415 . S
C368 H344 0.950 . S
C368 C363 1.363 . S
C368 C367 1.415 . S
C369 H345 0.951 . S
C369 C370 1.366 . S
C369 C371 1.388 . S
C370 C369 1.366 . S
C370 C374 1.385 . S
C371 H346 0.951 . S
C371 C369 1.388 . S
C371 C372 1.366 . S
C372 C371 1.366 . S
C372 C373 1.414 . S
C372 C375 1.499 . S
C373 H347 0.950 . S
C373 C372 1.414 . S
C373 C374 1.374 . S
C374 H348 0.950 . S
C374 C370 1.385 . S
C374 C373 1.374 . S
C375 C372 1.499 . S
C375 C376 1.373 . S
C375 C377 1.389 . S
C376 H349 0.950 . S
C376 C362 1.377 . S
C376 C375 1.373 . S
C377 C361 1.377 . S
C377 C375 1.389 . S
C377 C378 1.524 . S
C378 C377 1.524 . S
C378 C379 1.397 . S
C378 C383 1.363 . S
C379 H350 0.950 . S
C379 C378 1.397 . S
C379 C380 1.334 . S
C380 H351 0.950 . S
C380 C379 1.334 . S
C380 C381 1.287 . S
C381 C380 1.287 . S
C381 C382 1.524 . S
C381 H384 0.999 . S
C382 H352 0.950 . S
C382 C381 1.524 . S
C382 C383 1.415 . S
C383 H353 0.950 . S
C383 C378 1.363 . S
C383 C382 1.415 . S
H384 C381 0.999 . S
H385 C366 0.913 . S
H386 C404 0.951 . S
H387 C406 0.951 . S
H388 C408 0.950 . S
H389 C409 0.950 . S
H390 C411 0.950 . S
H391 C414 0.950 . S
H392 C415 0.950 . S
H393 C417 0.950 . S
H394 C418 0.950 . S
H395 C419 0.951 . S
H396 C421 0.951 . S
H397 C423 0.950 . S
H398 C424 0.950 . S
H399 C426 0.950 . S
H400 C429 0.950 . S
H401 C430 0.950 . S
H402 C432 0.950 . S
H403 C433 0.950 . S
C404 H386 0.951 . S
C404 C405 1.366 . S
C404 C406 1.388 . S
C405 C404 1.366 . S
C405 C409 1.385 . S
C406 H387 0.951 . S
C406 C404 1.388 . S
C406 C407 1.366 . S
C407 C406 1.366 . S
C407 C408 1.414 . S
C407 C410 1.499 . S
C408 H388 0.950 . S
C408 C407 1.414 . S
C408 C409 1.374 . S
C409 H389 0.950 . S
C409 C405 1.385 . S
C409 C408 1.374 . S
C410 C407 1.499 . S
C410 C411 1.373 . S
C410 C412 1.389 . S
C411 H390 0.950 . S
C411 C410 1.373 . S
C411 C427 1.377 . S
C412 C410 1.389 . S
C412 C413 1.524 . S
C412 C426 1.377 . S
C413 C412 1.524 . S
C413 C414 1.397 . S
C413 C418 1.363 . S
C414 H391 0.950 . S
C414 C413 1.397 . S
C414 C415 1.334 . S
C415 H392 0.950 . S
C415 C414 1.334 . S
C415 C416 1.287 . S
C416 C415 1.287 . S
C416 C417 1.524 . S
C416 H435 0.913 . S
C417 H393 0.950 . S
C417 C416 1.524 . S
C417 C418 1.415 . S
C418 H394 0.950 . S
C418 C413 1.363 . S
C418 C417 1.415 . S
C419 H395 0.951 . S
C419 C420 1.366 . S
C419 C421 1.388 . S
C420 C419 1.366 . S
C420 C424 1.385 . S
C421 H396 0.951 . S
C421 C419 1.388 . S
C421 C422 1.366 . S
C422 C421 1.366 . S
C422 C423 1.414 . S
C422 C425 1.499 . S
C423 H397 0.950 . S
C423 C422 1.414 . S
C423 C424 1.374 . S
C424 H398 0.950 . S
C424 C420 1.385 . S
C424 C423 1.374 . S
C425 C422 1.499 . S
C425 C426 1.373 . S
C425 C427 1.389 . S
C426 H399 0.950 . S
C426 C412 1.377 . S
C426 C425 1.373 . S
C427 C411 1.377 . S
C427 C425 1.389 . S
C427 C428 1.524 . S
C428 C427 1.524 . S
C428 C429 1.397 . S
C428 C433 1.363 . S
C429 H400 0.950 . S
C429 C428 1.397 . S
C429 C430 1.334 . S
C430 H401 0.950 . S
C430 C429 1.334 . S
C430 C431 1.287 . S
C431 C430 1.287 . S
C431 C432 1.524 . S
C431 H434 0.999 . S
C432 H402 0.950 . S
C432 C431 1.524 . S
C432 C433 1.415 . S
C433 H403 0.950 . S
C433 C428 1.363 . S
C433 C432 1.415 . S
H434 C431 0.999 . S
H435 C416 0.913 . S
H436 C454 0.951 . S
H437 C456 0.951 . S
H438 C458 0.950 . S
H439 C459 0.950 . S
H440 C461 0.950 . S
H441 C464 0.950 . S
H442 C465 0.950 . S
H443 C467 0.950 . S
H444 C468 0.950 . S
H445 C469 0.951 . S
H446 C471 0.951 . S
H447 C473 0.950 . S
H448 C474 0.950 . S
H449 C476 0.950 . S
H450 C479 0.950 . S
H451 C480 0.950 . S
H452 C482 0.950 . S
H453 C483 0.950 . S
C454 H436 0.951 . S
C454 C455 1.366 . S
C454 C456 1.388 . S
C455 C454 1.366 . S
C455 C459 1.385 . S
C456 H437 0.951 . S
C456 C454 1.388 . S
C456 C457 1.366 . S
C457 C456 1.366 . S
C457 C458 1.414 . S
C457 C460 1.499 . S
C458 H438 0.950 . S
C458 C457 1.414 . S
C458 C459 1.374 . S
C459 H439 0.950 . S
C459 C455 1.385 . S
C459 C458 1.374 . S
C460 C457 1.499 . S
C460 C461 1.373 . S
C460 C462 1.389 . S
C461 H440 0.950 . S
C461 C460 1.373 . S
C461 C477 1.377 . S
C462 C460 1.389 . S
C462 C463 1.524 . S
C462 C476 1.377 . S
C463 C462 1.524 . S
C463 C464 1.397 . S
C463 C468 1.363 . S
C464 H441 0.950 . S
C464 C463 1.397 . S
C464 C465 1.334 . S
C465 H442 0.950 . S
C465 C464 1.334 . S
C465 C466 1.287 . S
C466 C465 1.287 . S
C466 C467 1.524 . S
C466 H485 0.913 . S
C467 H443 0.950 . S
C467 C466 1.524 . S
C467 C468 1.415 . S
C468 H444 0.950 . S
C468 C463 1.363 . S
C468 C467 1.415 . S
C469 H445 0.951 . S
C469 C470 1.366 . S
C469 C471 1.388 . S
C470 C469 1.366 . S
C470 C474 1.385 . S
C471 H446 0.951 . S
C471 C469 1.388 . S
C471 C472 1.366 . S
C472 C471 1.366 . S
C472 C473 1.414 . S
C472 C475 1.499 . S
C473 H447 0.950 . S
C473 C472 1.414 . S
C473 C474 1.374 . S
C474 H448 0.950 . S
C474 C470 1.385 . S
C474 C473 1.374 . S
C475 C472 1.499 . S
C475 C476 1.373 . S
C475 C477 1.389 . S
C476 H449 0.950 . S
C476 C462 1.377 . S
C476 C475 1.373 . S
C477 C461 1.377 . S
C477 C475 1.389 . S
C477 C478 1.524 . S
C478 C477 1.524 . S
C478 C479 1.397 . S
C478 C483 1.363 . S
C479 H450 0.950 . S
C479 C478 1.397 . S
C479 C480 1.334 . S
C480 H451 0.950 . S
C480 C479 1.334 . S
C480 C481 1.287 . S
C481 C480 1.287 . S
C481 C482 1.524 . S
C481 H484 0.999 . S
C482 H452 0.950 . S
C482 C481 1.524 . S
C482 C483 1.415 . S
C483 H453 0.950 . S
C483 C478 1.363 . S
C483 C482 1.415 . S
H484 C481 0.999 . S
H485 C466 0.913 . S
H486 C504 0.951 . S
H487 C506 0.951 . S
H488 C508 0.950 . S
H489 C509 0.950 . S
H490 C511 0.950 . S
H491 C514 0.950 . S
H492 C515 0.950 . S
H493 C517 0.950 . S
H494 C518 0.950 . S
H495 C519 0.951 . S
H496 C521 0.951 . S
H497 C523 0.950 . S
H498 C524 0.950 . S
H499 C526 0.950 . S
H500 C529 0.950 . S
H501 C530 0.950 . S
H502 C532 0.950 . S
H503 C533 0.950 . S
C504 H486 0.951 . S
C504 C505 1.366 . S
C504 C506 1.388 . S
C505 C504 1.366 . S
C505 C509 1.385 . S
C506 H487 0.951 . S
C506 C504 1.388 . S
C506 C507 1.366 . S
C507 C506 1.366 . S
C507 C508 1.414 . S
C507 C510 1.499 . S
C508 H488 0.950 . S
C508 C507 1.414 . S
C508 C509 1.374 . S
C509 H489 0.950 . S
C509 C505 1.385 . S
C509 C508 1.374 . S
C510 C507 1.499 . S
C510 C511 1.373 . S
C510 C512 1.389 . S
C511 H490 0.950 . S
C511 C510 1.373 . S
C511 C527 1.377 . S
C512 C510 1.389 . S
C512 C513 1.524 . S
C512 C526 1.377 . S
C513 C512 1.524 . S
C513 C514 1.397 . S
C513 C518 1.363 . S
C514 H491 0.950 . S
C514 C513 1.397 . S
C514 C515 1.334 . S
C515 H492 0.950 . S
C515 C514 1.334 . S
C515 C516 1.287 . S
C516 C515 1.287 . S
C516 C517 1.524 . S
C516 H535 0.913 . S
C517 H493 0.950 . S
C517 C516 1.524 . S
C517 C518 1.415 . S
C518 H494 0.950 . S
C518 C513 1.363 . S
C518 C517 1.415 . S
C519 H495 0.951 . S
C519 C520 1.366 . S
C519 C521 1.388 . S
C520 C519 1.366 . S
C520 C524 1.385 . S
C521 H496 0.951 . S
C521 C519 1.388 . S
C521 C522 1.366 . S
C522 C521 1.366 . S
C522 C523 1.414 . S
C522 C525 1.499 . S
C523 H497 0.950 . S
C523 C522 1.414 . S
C523 C524 1.374 . S
C524 H498 0.950 . S
C524 C520 1.385 . S
C524 C523 1.374 . S
C525 C522 1.499 . S
C525 C526 1.373 . S
C525 C527 1.389 . S
C526 H499 0.950 . S
C526 C512 1.377 . S
C526 C525 1.373 . S
C527 C511 1.377 . S
C527 C525 1.389 . S
C527 C528 1.524 . S
C528 C527 1.524 . S
C528 C529 1.397 . S
C528 C533 1.363 . S
C529 H500 0.950 . S
C529 C528 1.397 . S
C529 C530 1.334 . S
C530 H501 0.950 . S
C530 C529 1.334 . S
C530 C531 1.287 . S
C531 C530 1.287 . S
C531 C532 1.524 . S
C531 H534 0.999 . S
C532 H502 0.950 . S
C532 C531 1.524 . S
C532 C533 1.415 . S
C533 H503 0.950 . S
C533 C528 1.363 . S
C533 C532 1.415 . S
H534 C531 0.999 . S
H535 C516 0.913 . S
H536 C554 0.951 . S
H537 C556 0.951 . S
H538 C558 0.950 . S
H539 C559 0.950 . S
H540 C561 0.950 . S
H541 C564 0.950 . S
H542 C565 0.950 . S
H543 C567 0.950 . S
H544 C568 0.950 . S
H545 C569 0.951 . S
H546 C571 0.951 . S
H547 C573 0.950 . S
H548 C574 0.950 . S
H549 C576 0.950 . S
H550 C579 0.950 . S
H551 C580 0.950 . S
H552 C582 0.950 . S
H553 C583 0.950 . S
C554 H536 0.951 . S
C554 C555 1.366 . S
C554 C556 1.388 . S
C555 C554 1.366 . S
C555 C559 1.385 . S
C556 H537 0.951 . S
C556 C554 1.388 . S
C556 C557 1.366 . S
C557 C556 1.366 . S
C557 C558 1.414 . S
C557 C560 1.499 . S
C558 H538 0.950 . S
C558 C557 1.414 . S
C558 C559 1.374 . S
C559 H539 0.950 . S
C559 C555 1.385 . S
C559 C558 1.374 . S
C560 C557 1.499 . S
C560 C561 1.373 . S
C560 C562 1.389 . S
C561 H540 0.950 . S
C561 C560 1.373 . S
C561 C577 1.377 . S
C562 C560 1.389 . S
C562 C563 1.524 . S
C562 C576 1.377 . S
C563 C562 1.524 . S
C563 C564 1.397 . S
C563 C568 1.363 . S
C564 H541 0.950 . S
C564 C563 1.397 . S
C564 C565 1.334 . S
C565 H542 0.950 . S
C565 C564 1.334 . S
C565 C566 1.287 . S
C566 C565 1.287 . S
C566 C567 1.524 . S
C566 H585 0.913 . S
C567 H543 0.950 . S
C567 C566 1.524 . S
C567 C568 1.415 . S
C568 H544 0.950 . S
C568 C563 1.363 . S
C568 C567 1.415 . S
C569 H545 0.951 . S
C569 C570 1.366 . S
C569 C571 1.388 . S
C570 C569 1.366 . S
C570 C574 1.385 . S
C571 H546 0.951 . S
C571 C569 1.388 . S
C571 C572 1.366 . S
C572 C571 1.366 . S
C572 C573 1.414 . S
C572 C575 1.499 . S
C573 H547 0.950 . S
C573 C572 1.414 . S
C573 C574 1.374 . S
C574 H548 0.950 . S
C574 C570 1.385 . S
C574 C573 1.374 . S
C575 C572 1.499 . S
C575 C576 1.373 . S
C575 C577 1.389 . S
C576 H549 0.950 . S
C576 C562 1.377 . S
C576 C575 1.373 . S
C577 C561 1.377 . S
C577 C575 1.389 . S
C577 C578 1.524 . S
C578 C577 1.524 . S
C578 C579 1.397 . S
C578 C583 1.363 . S
C579 H550 0.950 . S
C579 C578 1.397 . S
C579 C580 1.334 . S
C580 H551 0.950 . S
C580 C579 1.334 . S
C580 C581 1.287 . S
C581 C580 1.287 . S
C581 C582 1.524 . S
C581 H584 0.999 . S
C582 H552 0.950 . S
C582 C581 1.524 . S
C582 C583 1.415 . S
C583 H553 0.950 . S
C583 C578 1.363 . S
C583 C582 1.415 . S
H584 C581 0.999 . S
H585 C566 0.913 . S
H586 C604 0.951 . S
H587 C606 0.951 . S
H588 C608 0.950 . S
H589 C609 0.950 . S
H590 C611 0.950 . S
H591 C614 0.950 . S
H592 C615 0.950 . S
H593 C617 0.950 . S
H594 C618 0.950 . S
H595 C619 0.951 . S
H596 C621 0.951 . S
H597 C623 0.950 . S
H598 C624 0.950 . S
H599 C626 0.950 . S
H600 C629 0.950 . S
H601 C630 0.950 . S
H602 C632 0.950 . S
H603 C633 0.950 . S
C604 H586 0.951 . S
C604 C605 1.366 . S
C604 C606 1.388 . S
C605 C604 1.366 . S
C605 C609 1.385 . S
C606 H587 0.951 . S
C606 C604 1.388 . S
C606 C607 1.366 . S
C607 C606 1.366 . S
C607 C608 1.414 . S
C607 C610 1.499 . S
C608 H588 0.950 . S
C608 C607 1.414 . S
C608 C609 1.374 . S
C609 H589 0.950 . S
C609 C605 1.385 . S
C609 C608 1.374 . S
C610 C607 1.499 . S
C610 C611 1.373 . S
C610 C612 1.389 . S
C611 H590 0.950 . S
C611 C610 1.373 . S
C611 C627 1.377 . S
C612 C610 1.389 . S
C612 C613 1.524 . S
C612 C626 1.377 . S
C613 C612 1.524 . S
C613 C614 1.397 . S
C613 C618 1.363 . S
C614 H591 0.950 . S
C614 C613 1.397 . S
C614 C615 1.334 . S
C615 H592 0.950 . S
C615 C614 1.334 . S
C615 C616 1.287 . S
C616 C615 1.287 . S
C616 C617 1.524 . S
C616 H635 0.913 . S
C617 H593 0.950 . S
C617 C616 1.524 . S
C617 C618 1.415 . S
C618 H594 0.950 . S
C618 C613 1.363 . S
C618 C617 1.415 . S
C619 H595 0.951 . S
C619 C620 1.366 . S
C619 C621 1.388 . S
C620 C619 1.366 . S
C620 C624 1.385 . S
C621 H596 0.951 . S
C621 C619 1.388 . S
C621 C622 1.366 . S
C622 C621 1.366 . S
C622 C623 1.414 . S
C622 C625 1.499 . S
C623 H597 0.950 . S
C623 C622 1.414 . S
C623 C624 1.374 . S
C624 H598 0.950 . S
C624 C620 1.385 . S
C624 C623 1.374 . S
C625 C622 1.499 . S
C625 C626 1.373 . S
C625 C627 1.389 . S
C626 H599 0.950 . S
C626 C612 1.377 . S
C626 C625 1.373 . S
C627 C611 1.377 . S
C627 C625 1.389 . S
C627 C628 1.524 . S
C628 C627 1.524 . S
C628 C629 1.397 . S
C628 C633 1.363 . S
C629 H600 0.950 . S
C629 C628 1.397 . S
C629 C630 1.334 . S
C630 H601 0.950 . S
C630 C629 1.334 . S
C630 C631 1.287 . S
C631 C630 1.287 . S
C631 C632 1.524 . S
C631 H634 0.999 . S
C632 H602 0.950 . S
C632 C631 1.524 . S
C632 C633 1.415 . S
C633 H603 0.950 . S
C633 C628 1.363 . S
C633 C632 1.415 . S
H634 C631 0.999 . S
H635 C616 0.913 . S
H636 C654 0.951 . S
H637 C656 0.951 . S
H638 C658 0.950 . S
H639 C659 0.950 . S
H640 C661 0.950 . S
H641 C664 0.950 . S
H642 C665 0.950 . S
H643 C667 0.950 . S
H644 C668 0.950 . S
H645 C669 0.951 . S
H646 C671 0.951 . S
H647 C673 0.950 . S
H648 C674 0.950 . S
H649 C676 0.950 . S
H650 C679 0.950 . S
H651 C680 0.950 . S
H652 C682 0.950 . S
H653 C683 0.950 . S
C654 H636 0.951 . S
C654 C655 1.366 . S
C654 C656 1.388 . S
C655 C654 1.366 . S
C655 C659 1.385 . S
C656 H637 0.951 . S
C656 C654 1.388 . S
C656 C657 1.366 . S
C657 C656 1.366 . S
C657 C658 1.414 . S
C657 C660 1.499 . S
C658 H638 0.950 . S
C658 C657 1.414 . S
C658 C659 1.374 . S
C659 H639 0.950 . S
C659 C655 1.385 . S
C659 C658 1.374 . S
C660 C657 1.499 . S
C660 C661 1.373 . S
C660 C662 1.389 . S
C661 H640 0.950 . S
C661 C660 1.373 . S
C661 C677 1.377 . S
C662 C660 1.389 . S
C662 C663 1.524 . S
C662 C676 1.377 . S
C663 C662 1.524 . S
C663 C664 1.397 . S
C663 C668 1.363 . S
C664 H641 0.950 . S
C664 C663 1.397 . S
C664 C665 1.334 . S
C665 H642 0.950 . S
C665 C664 1.334 . S
C665 C666 1.287 . S
C666 C665 1.287 . S
C666 C667 1.524 . S
C666 H685 0.913 . S
C667 H643 0.950 . S
C667 C666 1.524 . S
C667 C668 1.415 . S
C668 H644 0.950 . S
C668 C663 1.363 . S
C668 C667 1.415 . S
C669 H645 0.951 . S
C669 C670 1.366 . S
C669 C671 1.388 . S
C670 C669 1.366 . S
C670 C674 1.385 . S
C671 H646 0.951 . S
C671 C669 1.388 . S
C671 C672 1.366 . S
C672 C671 1.366 . S
C672 C673 1.414 . S
C672 C675 1.499 . S
C673 H647 0.950 . S
C673 C672 1.414 . S
C673 C674 1.374 . S
C674 H648 0.950 . S
C674 C670 1.385 . S
C674 C673 1.374 . S
C675 C672 1.499 . S
C675 C676 1.373 . S
C675 C677 1.389 . S
C676 H649 0.950 . S
C676 C662 1.377 . S
C676 C675 1.373 . S
C677 C661 1.377 . S
C677 C675 1.389 . S
C677 C678 1.524 . S
C678 C677 1.524 . S
C678 C679 1.397 . S
C678 C683 1.363 . S
C679 H650 0.950 . S
C679 C678 1.397 . S
C679 C680 1.334 . S
C680 H651 0.950 . S
C680 C679 1.334 . S
C680 C681 1.287 . S
C681 C680 1.287 . S
C681 C682 1.524 . S
C681 H684 0.999 . S
C682 H652 0.950 . S
C682 C681 1.524 . S
C682 C683 1.415 . S
C683 H653 0.950 . S
C683 C678 1.363 . S
C683 C682 1.415 . S
H684 C681 0.999 . S
H685 C666 0.913 . S
H686 C704 0.951 . S
H687 C706 0.951 . S
H688 C708 0.950 . S
H689 C709 0.950 . S
H690 C711 0.950 . S
H691 C714 0.950 . S
H692 C715 0.950 . S
H693 C717 0.950 . S
H694 C718 0.950 . S
H695 C719 0.951 . S
H696 C721 0.951 . S
H697 C723 0.950 . S
H698 C724 0.950 . S
H699 C726 0.950 . S
H700 C729 0.950 . S
H701 C730 0.950 . S
H702 C732 0.950 . S
H703 C733 0.950 . S
C704 H686 0.951 . S
C704 C705 1.366 . S
C704 C706 1.388 . S
C705 C704 1.366 . S
C705 C709 1.385 . S
C706 H687 0.951 . S
C706 C704 1.388 . S
C706 C707 1.366 . S
C707 C706 1.366 . S
C707 C708 1.414 . S
C707 C710 1.499 . S
C708 H688 0.950 . S
C708 C707 1.414 . S
C708 C709 1.374 . S
C709 H689 0.950 . S
C709 C705 1.385 . S
C709 C708 1.374 . S
C710 C707 1.499 . S
C710 C711 1.373 . S
C710 C712 1.389 . S
C711 H690 0.950 . S
C711 C710 1.373 . S
C711 C727 1.377 . S
C712 C710 1.389 . S
C712 C713 1.524 . S
C712 C726 1.377 . S
C713 C712 1.524 . S
C713 C714 1.397 . S
C713 C718 1.363 . S
C714 H691 0.950 . S
C714 C713 1.397 . S
C714 C715 1.334 . S
C715 H692 0.950 . S
C715 C714 1.334 . S
C715 C716 1.287 . S
C716 C715 1.287 . S
C716 C717 1.524 . S
C716 H735 0.913 . S
C717 H693 0.950 . S
C717 C716 1.524 . S
C717 C718 1.415 . S
C718 H694 0.950 . S
C718 C713 1.363 . S
C718 C717 1.415 . S
C719 H695 0.951 . S
C719 C720 1.366 . S
C719 C721 1.388 . S
C720 C719 1.366 . S
C720 C724 1.385 . S
C721 H696 0.951 . S
C721 C719 1.388 . S
C721 C722 1.366 . S
C722 C721 1.366 . S
C722 C723 1.414 . S
C722 C725 1.499 . S
C723 H697 0.950 . S
C723 C722 1.414 . S
C723 C724 1.374 . S
C724 H698 0.950 . S
C724 C720 1.385 . S
C724 C723 1.374 . S
C725 C722 1.499 . S
C725 C726 1.373 . S
C725 C727 1.389 . S
C726 H699 0.950 . S
C726 C712 1.377 . S
C726 C725 1.373 . S
C727 C711 1.377 . S
C727 C725 1.389 . S
C727 C728 1.524 . S
C728 C727 1.524 . S
C728 C729 1.397 . S
C728 C733 1.363 . S
C729 H700 0.950 . S
C729 C728 1.397 . S
C729 C730 1.334 . S
C730 H701 0.950 . S
C730 C729 1.334 . S
C730 C731 1.287 . S
C731 C730 1.287 . S
C731 C732 1.524 . S
C731 H734 0.999 . S
C732 H702 0.950 . S
C732 C731 1.524 . S
C732 C733 1.415 . S
C733 H703 0.950 . S
C733 C728 1.363 . S
C733 C732 1.415 . S
H734 C731 0.999 . S
H735 C716 0.913 . S
H736 C754 0.951 . S
H737 C756 0.951 . S
H738 C758 0.950 . S
H739 C759 0.950 . S
H740 C761 0.950 . S
H741 C764 0.950 . S
H742 C765 0.950 . S
H743 C767 0.950 . S
H744 C768 0.950 . S
H745 C769 0.951 . S
H746 C771 0.951 . S
H747 C773 0.950 . S
H748 C774 0.950 . S
H749 C776 0.950 . S
H750 C779 0.950 . S
H751 C780 0.950 . S
H752 C782 0.950 . S
H753 C783 0.950 . S
C754 H736 0.951 . S
C754 C755 1.366 . S
C754 C756 1.388 . S
C755 C754 1.366 . S
C755 C759 1.385 . S
C756 H737 0.951 . S
C756 C754 1.388 . S
C756 C757 1.366 . S
C757 C756 1.366 . S
C757 C758 1.414 . S
C757 C760 1.499 . S
C758 H738 0.950 . S
C758 C757 1.414 . S
C758 C759 1.374 . S
C759 H739 0.950 . S
C759 C755 1.385 . S
C759 C758 1.374 . S
C760 C757 1.499 . S
C760 C761 1.373 . S
C760 C762 1.389 . S
C761 H740 0.950 . S
C761 C760 1.373 . S
C761 C777 1.377 . S
C762 C760 1.389 . S
C762 C763 1.524 . S
C762 C776 1.377 . S
C763 C762 1.524 . S
C763 C764 1.397 . S
C763 C768 1.363 . S
C764 H741 0.950 . S
C764 C763 1.397 . S
C764 C765 1.334 . S
C765 H742 0.950 . S
C765 C764 1.334 . S
C765 C766 1.287 . S
C766 C765 1.287 . S
C766 C767 1.524 . S
C766 H785 0.913 . S
C767 H743 0.950 . S
C767 C766 1.524 . S
C767 C768 1.415 . S
C768 H744 0.950 . S
C768 C763 1.363 . S
C768 C767 1.415 . S
C769 H745 0.951 . S
C769 C770 1.366 . S
C769 C771 1.388 . S
C770 C769 1.366 . S
C770 C774 1.385 . S
C771 H746 0.951 . S
C771 C769 1.388 . S
C771 C772 1.366 . S
C772 C771 1.366 . S
C772 C773 1.414 . S
C772 C775 1.499 . S
C773 H747 0.950 . S
C773 C772 1.414 . S
C773 C774 1.374 . S
C774 H748 0.950 . S
C774 C770 1.385 . S
C774 C773 1.374 . S
C775 C772 1.499 . S
C775 C776 1.373 . S
C775 C777 1.389 . S
C776 H749 0.950 . S
C776 C762 1.377 . S
C776 C775 1.373 . S
C777 C761 1.377 . S
C777 C775 1.389 . S
C777 C778 1.524 . S
C778 C777 1.524 . S
C778 C779 1.397 . S
C778 C783 1.363 . S
C779 H750 0.950 . S
C779 C778 1.397 . S
C779 C780 1.334 . S
C780 H751 0.950 . S
C780 C779 1.334 . S
C780 C781 1.287 . S
C781 C780 1.287 . S
C781 C782 1.524 . S
C781 H784 0.999 . S
C782 H752 0.950 . S
C782 C781 1.524 . S
C782 C783 1.415 . S
C783 H753 0.950 . S
C783 C778 1.363 . S
C783 C782 1.415 . S
H784 C781 0.999 . S
H785 C766 0.913 . S
H786 C804 0.951 . S
H787 C806 0.951 . S
H788 C808 0.950 . S
H789 C809 0.950 . S
H790 C811 0.950 . S
H791 C814 0.950 . S
H792 C815 0.950 . S
H793 C817 0.950 . S
H794 C818 0.950 . S
H795 C819 0.951 . S
H796 C821 0.951 . S
H797 C823 0.950 . S
H798 C824 0.950 . S
H799 C826 0.950 1_556 S
H800 C829 0.950 . S
H801 C830 0.950 . S
H802 C832 0.950 . S
H803 C833 0.950 . S
C804 H786 0.951 . S
C804 C805 1.366 . S
C804 C806 1.388 . S
C805 C804 1.366 . S
C805 C809 1.385 1_455 S
C806 H787 0.951 . S
C806 C804 1.388 . S
C806 C807 1.366 . S
C807 C806 1.366 . S
C807 C808 1.414 1_455 S
C807 C810 1.499 . S
C808 H788 0.950 . S
C808 C807 1.414 1_655 S
C808 C809 1.374 . S
C809 H789 0.950 . S
C809 C805 1.385 1_655 S
C809 C808 1.374 . S
C810 C807 1.499 . S
C810 C811 1.373 1_455 S
C810 C812 1.389 . S
C811 H790 0.950 . S
C811 C810 1.373 1_655 S
C811 C827 1.377 . S
C812 C810 1.389 . S
C812 C813 1.524 . S
C812 C826 1.377 . S
C813 C812 1.524 . S
C813 C814 1.397 1_455 S
C813 C818 1.363 . S
C814 H791 0.950 . S
C814 C813 1.397 1_655 S
C814 C815 1.334 . S
C815 H792 0.950 . S
C815 C814 1.334 . S
C815 C816 1.287 1_655 S
C816 C815 1.287 1_455 S
C816 C817 1.524 . S
C816 H835 0.913 . S
C817 H793 0.950 . S
C817 C816 1.524 . S
C817 C818 1.415 . S
C818 H794 0.950 . S
C818 C813 1.363 . S
C818 C817 1.415 . S
C819 H795 0.951 . S
C819 C820 1.366 . S
C819 C821 1.388 . S
C820 C819 1.366 . S
C820 C824 1.385 1_655 S
C821 H796 0.951 . S
C821 C819 1.388 . S
C821 C822 1.366 1_655 S
C822 C821 1.366 1_455 S
C822 C823 1.414 . S
C822 C825 1.499 . S
C823 H797 0.950 . S
C823 C822 1.414 . S
C823 C824 1.374 . S
C824 H798 0.950 . S
C824 C820 1.385 1_455 S
C824 C823 1.374 . S
C825 C822 1.499 . S
C825 C826 1.373 1_556 S
C825 C827 1.389 1_456 S
C826 H799 0.950 1_554 S
C826 C812 1.377 . S
C826 C825 1.373 1_554 S
C827 C811 1.377 . S
C827 C825 1.389 1_654 S
C827 C828 1.524 . S
C828 C827 1.524 . S
C828 C829 1.397 1_654 S
C828 C833 1.363 . S
C829 H800 0.950 . S
C829 C828 1.397 1_456 S
C829 C830 1.334 . S
C830 H801 0.950 . S
C830 C829 1.334 . S
C830 C831 1.287 1_455 S
C831 C830 1.287 1_655 S
C831 C832 1.524 1_556 S
C831 H834 0.999 . S
C832 H802 0.950 . S
C832 C831 1.524 1_554 S
C832 C833 1.415 . S
C833 H803 0.950 . S
C833 C828 1.363 . S
C833 C832 1.415 . S
H834 C831 0.999 . S
H835 C816 0.913 . S
H836 C854 0.951 . S
H837 C856 0.951 . S
H838 C858 0.950 . S
H839 C859 0.950 . S
H840 C861 0.950 . S
H841 C864 0.950 . S
H842 C865 0.950 . S
H843 C867 0.950 . S
H844 C868 0.950 . S
H845 C869 0.951 . S
H846 C871 0.951 . S
H847 C873 0.950 . S
H848 C874 0.950 . S
H849 C876 0.950 . S
H850 C879 0.950 . S
H851 C880 0.950 . S
H852 C882 0.950 . S
H853 C883 0.950 1_545 S
C854 H836 0.951 . S
C854 C855 1.366 . S
C854 C856 1.388 . S
C855 C854 1.366 . S
C855 C859 1.385 . S
C856 H837 0.951 . S
C856 C854 1.388 . S
C856 C857 1.366 . S
C857 C856 1.366 . S
C857 C858 1.414 . S
C857 C860 1.499 . S
C858 H838 0.950 . S
C858 C857 1.414 . S
C858 C859 1.374 . S
C859 H839 0.950 . S
C859 C855 1.385 . S
C859 C858 1.374 . S
C860 C857 1.499 . S
C860 C861 1.373 . S
C860 C862 1.389 . S
C861 H840 0.950 . S
C861 C860 1.373 . S
C861 C877 1.377 . S
C862 C860 1.389 . S
C862 C863 1.524 . S
C862 C876 1.377 . S
C863 C862 1.524 . S
C863 C864 1.397 . S
C863 C868 1.363 . S
C864 H841 0.950 . S
C864 C863 1.397 . S
C864 C865 1.334 . S
C865 H842 0.950 . S
C865 C864 1.334 . S
C865 C866 1.287 . S
C866 C865 1.287 . S
C866 C867 1.524 . S
C866 H885 0.913 . S
C867 H843 0.950 . S
C867 C866 1.524 . S
C867 C868 1.415 . S
C868 H844 0.950 . S
C868 C863 1.363 . S
C868 C867 1.415 . S
C869 H845 0.951 . S
C869 C870 1.366 . S
C869 C871 1.388 . S
C870 C869 1.366 . S
C870 C874 1.385 . S
C871 H846 0.951 . S
C871 C869 1.388 . S
C871 C872 1.366 . S
C872 C871 1.366 . S
C872 C873 1.414 . S
C872 C875 1.499 . S
C873 H847 0.950 . S
C873 C872 1.414 . S
C873 C874 1.374 . S
C874 H848 0.950 . S
C874 C870 1.385 . S
C874 C873 1.374 . S
C875 C872 1.499 . S
C875 C876 1.373 . S
C875 C877 1.389 . S
C876 H849 0.950 . S
C876 C862 1.377 . S
C876 C875 1.373 . S
C877 C861 1.377 . S
C877 C875 1.389 . S
C877 C878 1.524 1_545 S
C878 C877 1.524 1_565 S
C878 C879 1.397 . S
C878 C883 1.363 . S
C879 H850 0.950 . S
C879 C878 1.397 . S
C879 C880 1.334 . S
C880 H851 0.950 . S
C880 C879 1.334 . S
C880 C881 1.287 . S
C881 C880 1.287 . S
C881 C882 1.524 . S
C881 H884 0.999 . S
C882 H852 0.950 . S
C882 C881 1.524 . S
C882 C883 1.415 . S
C883 H853 0.950 1_565 S
C883 C878 1.363 . S
C883 C882 1.415 . S
H884 C881 0.999 . S
H885 C866 0.913 . S
H886 C904 0.951 . S
H887 C906 0.951 . S
H888 C908 0.950 . S
H889 C909 0.950 . S
H890 C911 0.950 . S
H891 C914 0.950 . S
H892 C915 0.950 . S
H893 C917 0.950 . S
H894 C918 0.950 . S
H895 C919 0.951 . S
H896 C921 0.951 . S
H897 C923 0.950 . S
H898 C924 0.950 . S
H899 C926 0.950 . S
H900 C929 0.950 . S
H901 C930 0.950 . S
H902 C932 0.950 . S
H903 C933 0.950 . S
C904 H886 0.951 . S
C904 C905 1.366 . S
C904 C906 1.388 . S
C905 C904 1.366 . S
C905 C909 1.385 . S
C906 H887 0.951 . S
C906 C904 1.388 . S
C906 C907 1.366 . S
C907 C906 1.366 . S
C907 C908 1.414 . S
C907 C910 1.499 . S
C908 H888 0.950 . S
C908 C907 1.414 . S
C908 C909 1.374 . S
C909 H889 0.950 . S
C909 C905 1.385 . S
C909 C908 1.374 . S
C910 C907 1.499 . S
C910 C911 1.373 . S
C910 C912 1.389 . S
C911 H890 0.950 . S
C911 C910 1.373 . S
C911 C927 1.377 . S
C912 C910 1.389 . S
C912 C913 1.524 . S
C912 C926 1.377 . S
C913 C912 1.524 . S
C913 C914 1.397 . S
C913 C918 1.363 . S
C914 H891 0.950 . S
C914 C913 1.397 . S
C914 C915 1.334 . S
C915 H892 0.950 . S
C915 C914 1.334 . S
C915 C916 1.287 . S
C916 C915 1.287 . S
C916 C917 1.524 . S
C916 H935 0.913 . S
C917 H893 0.950 . S
C917 C916 1.524 . S
C917 C918 1.415 . S
C918 H894 0.950 . S
C918 C913 1.363 . S
C918 C917 1.415 . S
C919 H895 0.951 . S
C919 C920 1.366 . S
C919 C921 1.388 . S
C920 C919 1.366 . S
C920 C924 1.385 . S
C921 H896 0.951 . S
C921 C919 1.388 . S
C921 C922 1.366 . S
C922 C921 1.366 . S
C922 C923 1.414 . S
C922 C925 1.499 . S
C923 H897 0.950 . S
C923 C922 1.414 . S
C923 C924 1.374 . S
C924 H898 0.950 . S
C924 C920 1.385 . S
C924 C923 1.374 . S
C925 C922 1.499 . S
C925 C926 1.373 . S
C925 C927 1.389 . S
C926 H899 0.950 . S
C926 C912 1.377 . S
C926 C925 1.373 . S
C927 C911 1.377 . S
C927 C925 1.389 . S
C927 C928 1.524 . S
C928 C927 1.524 . S
C928 C929 1.397 . S
C928 C933 1.363 . S
C929 H900 0.950 . S
C929 C928 1.397 . S
C929 C930 1.334 . S
C930 H901 0.950 . S
C930 C929 1.334 . S
C930 C931 1.287 . S
C931 C930 1.287 . S
C931 C932 1.524 . S
C931 H934 0.999 . S
C932 H902 0.950 . S
C932 C931 1.524 . S
C932 C933 1.415 . S
C933 H903 0.950 . S
C933 C928 1.363 . S
C933 C932 1.415 . S
H934 C931 0.999 . S
H935 C916 0.913 . S
H936 C954 0.951 . S
H937 C956 0.951 . S
H938 C958 0.950 . S
H939 C959 0.950 . S
H940 C961 0.950 . S
H941 C964 0.950 . S
H942 C965 0.950 . S
H943 C967 0.950 . S
H944 C968 0.950 . S
H945 C969 0.951 . S
H946 C971 0.951 . S
H947 C973 0.950 . S
H948 C974 0.950 . S
H949 C976 0.980 . S
H950 C979 0.950 . S
H951 C980 0.950 . S
H952 C982 0.950 . S
H953 C983 0.950 . S
C954 H936 0.951 . S
C954 C955 1.366 . S
C954 C956 1.388 . S
C955 C954 1.366 . S
C955 C959 1.385 . S
C956 H937 0.951 . S
C956 C954 1.388 . S
C956 C957 1.366 . S
C957 C956 1.366 . S
C957 C958 1.414 . S
C957 C960 1.499 . S
C958 H938 0.950 . S
C958 C957 1.414 . S
C958 C959 1.374 . S
C959 H939 0.950 . S
C959 C955 1.385 . S
C959 C958 1.374 . S
C960 C957 1.499 . S
C960 C961 1.373 . S
C960 C962 1.389 1_545 S
C961 H940 0.950 . S
C961 C960 1.373 . S
C961 C977 1.377 . S
C962 C960 1.389 1_565 S
C962 C963 1.524 . S
C962 C976 1.379 . S
C963 C962 1.524 . S
C963 C964 1.397 . S
C963 C968 1.363 . S
C964 H941 0.950 . S
C964 C963 1.397 . S
C964 C965 1.334 . S
C965 H942 0.950 . S
C965 C964 1.334 . S
C965 C966 1.287 . S
C966 C965 1.287 . S
C966 C967 1.524 . S
C966 H985 0.913 . S
C967 H943 0.950 . S
C967 C966 1.524 . S
C967 C968 1.415 . S
C968 H944 0.950 . S
C968 C963 1.363 . S
C968 C967 1.415 . S
C969 H945 0.951 . S
C969 C970 1.366 . S
C969 C971 1.388 . S
C970 C969 1.366 . S
C970 C974 1.385 . S
C971 H946 0.951 . S
C971 C969 1.388 . S
C971 C972 1.366 . S
C972 C971 1.366 . S
C972 C973 1.414 . S
C972 C975 1.499 . S
C973 H947 0.950 . S
C973 C972 1.414 . S
C973 C974 1.374 . S
C974 H948 0.950 . S
C974 C970 1.385 . S
C974 C973 1.374 . S
C975 C972 1.499 . S
C975 C976 1.342 1_545 S
C975 C977 1.389 . S
C976 H949 0.980 . S
C976 C962 1.379 . S
C976 C975 1.342 1_565 S
C977 C961 1.377 . S
C977 C975 1.389 . S
C977 C978 1.524 . S
C978 C977 1.524 . S
C978 C979 1.397 . S
C978 C983 1.363 . S
C979 H950 0.950 . S
C979 C978 1.397 . S
C979 C980 1.334 . S
C980 H951 0.950 . S
C980 C979 1.334 . S
C980 C981 1.287 . S
C981 C980 1.287 . S
C981 C982 1.524 . S
C981 H984 0.999 . S
C982 H952 0.950 . S
C982 C981 1.524 . S
C982 C983 1.415 . S
C983 H953 0.950 . S
C983 C978 1.363 . S
C983 C982 1.415 . S
H984 C981 0.999 . S
H985 C966 0.913 . S
H986 C1004 0.951 . S
H987 C1006 0.951 . S
H988 C1008 0.950 . S
H989 C1009 0.950 . S
H990 C1011 0.950 . S
H991 C1014 0.950 . S
H992 C1015 0.950 . S
H993 C1017 0.950 . S
H994 C1018 0.950 . S
H995 C1019 0.951 . S
H996 C1021 0.951 . S
H997 C1023 0.950 . S
H998 C1024 0.950 . S
H999 C1026 0.950 . S
H1000 C1029 0.950 . S
H1001 C1030 0.950 . S
H1002 C1032 0.950 . S
H1003 C1033 0.950 . S
C1004 H986 0.951 . S
C1004 C1005 1.366 . S
C1004 C1006 1.388 . S
C1005 C1004 1.366 . S
C1005 C1009 1.385 . S
C1006 H987 0.951 . S
C1006 C1004 1.388 . S
C1006 C1007 1.366 . S
C1007 C1006 1.366 . S
C1007 C1008 1.414 . S
C1007 C1010 1.499 . S
C1008 H988 0.950 . S
C1008 C1007 1.414 . S
C1008 C1009 1.374 . S
C1009 H989 0.950 . S
C1009 C1005 1.385 . S
C1009 C1008 1.374 . S
C1010 C1007 1.499 . S
C1010 C1011 1.373 . S
C1010 C1012 1.389 . S
C1011 H990 0.950 . S
C1011 C1010 1.373 . S
C1011 C1027 1.377 . S
C1012 C1010 1.389 . S
C1012 C1013 1.524 . S
C1012 C1026 1.377 . S
C1013 C1012 1.524 . S
C1013 C1014 1.397 . S
C1013 C1018 1.363 . S
C1014 H991 0.950 . S
C1014 C1013 1.397 . S
C1014 C1015 1.334 . S
C1015 H992 0.950 . S
C1015 C1014 1.334 . S
C1015 C1016 1.287 . S
C1016 C1015 1.287 . S
C1016 C1017 1.524 . S
C1016 H1035 0.913 . S
C1017 H993 0.950 . S
C1017 C1016 1.524 . S
C1017 C1018 1.415 . S
C1018 H994 0.950 . S
C1018 C1013 1.363 . S
C1018 C1017 1.415 . S
C1019 H995 0.951 . S
C1019 C1020 1.366 . S
C1019 C1021 1.388 . S
C1020 C1019 1.366 . S
C1020 C1024 1.385 . S
C1021 H996 0.951 . S
C1021 C1019 1.388 . S
C1021 C1022 1.366 . S
C1022 C1021 1.366 . S
C1022 C1023 1.414 . S
C1022 C1025 1.494 . S
C1023 H997 0.950 . S
C1023 C1022 1.414 . S
C1023 C1024 1.374 . S
C1024 H998 0.950 . S
C1024 C1020 1.385 . S
C1024 C1023 1.374 . S
C1025 C1022 1.494 . S
C1025 C1026 1.375 1_554 S
C1025 C1027 1.392 1_554 S
C1026 H999 0.950 . S
C1026 C1012 1.377 . S
C1026 C1025 1.375 1_556 S
C1027 C1011 1.377 . S
C1027 C1025 1.392 1_556 S
C1027 C1028 1.524 . S
C1028 C1027 1.524 . S
C1028 C1029 1.397 1_556 S
C1028 C1033 1.363 . S
C1029 H1000 0.950 . S
C1029 C1028 1.397 1_554 S
C1029 C1030 1.334 . S
C1030 H1001 0.950 . S
C1030 C1029 1.334 . S
C1030 C1031 1.287 . S
C1031 C1030 1.287 . S
C1031 C1032 1.524 1_554 S
C1031 H1034 0.999 . S
C1032 H1002 0.950 . S
C1032 C1031 1.524 1_556 S
C1032 C1033 1.415 . S
C1033 H1003 0.950 . S
C1033 C1028 1.363 . S
C1033 C1032 1.415 . S
H1034 C1031 0.999 . S
H1035 C1016 0.913 . S
H1036 C1054 0.951 . S
H1037 C1056 0.951 . S
H1038 C1058 0.950 . S
H1039 C1059 0.950 . S
H1040 C1061 0.950 . S
H1041 C1064 0.950 1_455 S
H1042 C1065 0.950 . S
H1043 C1067 0.950 . S
H1044 C1068 0.950 . S
H1045 C1069 0.951 . S
H1046 C1071 0.951 . S
H1047 C1073 0.950 . S
H1048 C1074 0.950 . S
H1049 C1076 0.950 1_655 S
H1050 C1079 0.950 . S
H1051 C1080 0.950 . S
H1052 C1082 0.950 . S
H1053 C1083 0.950 . S
C1054 H1036 0.951 . S
C1054 C1055 1.366 1_655 S
C1054 C1056 1.388 . S
C1055 C1054 1.366 1_455 S
C1055 C1059 1.385 . S
C1056 H1037 0.951 . S
C1056 C1054 1.388 . S
C1056 C1057 1.366 1_655 S
C1057 C1056 1.366 1_455 S
C1057 C1058 1.414 . S
C1057 C1060 1.499 . S
C1058 H1038 0.950 . S
C1058 C1057 1.414 . S
C1058 C1059 1.374 . S
C1059 H1039 0.950 . S
C1059 C1055 1.385 . S
C1059 C1058 1.374 . S
C1060 C1057 1.499 . S
C1060 C1061 1.373 . S
C1060 C1062 1.389 . S
C1061 H1040 0.950 . S
C1061 C1060 1.373 . S
C1061 C1077 1.377 . S
C1062 C1060 1.389 . S
C1062 C1063 1.524 1_455 S
C1062 C1076 1.377 . S
C1063 C1062 1.524 1_655 S
C1063 C1064 1.397 . S
C1063 C1068 1.363 . S
C1064 H1041 0.950 1_655 S
C1064 C1063 1.397 . S
C1064 C1065 1.334 . S
C1065 H1042 0.950 . S
C1065 C1064 1.334 . S
C1065 C1066 1.287 . S
C1066 C1065 1.287 . S
C1066 C1067 1.524 . S
C1066 H1085 0.913 . S
C1067 H1043 0.950 . S
C1067 C1066 1.524 . S
C1067 C1068 1.415 . S
C1068 H1044 0.950 . S
C1068 C1063 1.363 . S
C1068 C1067 1.415 . S
C1069 H1045 0.951 . S
C1069 C1070 1.366 . S
C1069 C1071 1.388 . S
C1070 C1069 1.366 . S
C1070 C1074 1.385 1_455 S
C1071 H1046 0.951 . S
C1071 C1069 1.388 . S
C1071 C1072 1.366 . S
C1072 C1071 1.366 . S
C1072 C1073 1.414 1_455 S
C1072 C1075 1.499 . S
C1073 H1047 0.950 . S
C1073 C1072 1.414 1_655 S
C1073 C1074 1.374 . S
C1074 H1048 0.950 . S
C1074 C1070 1.385 1_655 S
C1074 C1073 1.374 . S
C1075 C1072 1.499 . S
C1075 C1076 1.373 . S
C1075 C1077 1.389 . S
C1076 H1049 0.950 1_455 S
C1076 C1062 1.377 . S
C1076 C1075 1.373 . S
C1077 C1061 1.377 . S
C1077 C1075 1.389 . S
C1077 C1078 1.524 . S
C1078 C1077 1.524 . S
C1078 C1079 1.397 . S
C1078 C1083 1.363 . S
C1079 H1050 0.950 . S
C1079 C1078 1.397 . S
C1079 C1080 1.334 . S
C1080 H1051 0.950 . S
C1080 C1079 1.334 . S
C1080 C1081 1.287 . S
C1081 C1080 1.287 . S
C1081 C1082 1.524 . S
C1081 H1084 0.999 . S
C1082 H1052 0.950 . S
C1082 C1081 1.524 . S
C1082 C1083 1.415 . S
C1083 H1053 0.950 . S
C1083 C1078 1.363 . S
C1083 C1082 1.415 . S
H1084 C1081 0.999 . S
H1085 C1066 0.913 . S
C205 C19 3.158 . S
C220 C180 2.828 . S
C255 C49 3.248 . S
C270 C158 2.908 . S
C305 C99 2.788 . S
C320 C172 2.741 . S
C355 C9 2.876 . S
C370 C183 2.812 . S
C420 C161 2.738 . S
C405 C59 2.784 . S
C470 C169 2.906 . S
C455 C89 3.246 . S
C505 C55 0.458 . S
C520 C136 0.706 . S
C555 C85 0.365 . S
C570 C147 0.633 . S
C605 C15 0.443 . S
C620 C125 0.707 . S
C670 C139 0.338 . S
C655 C45 0.255 . S
C720 C150 0.267 . S
C705 C95 0.126 . S
C755 C5 0.253 . S
C770 C128 0.333 . S
C820 C149 1.221 . S
C805 C18 1.231 . S
C855 C58 1.247 . S
C870 C127 1.216 . S
C905 C98 1.248 . S
C920 C138 1.216 . S
C970 C171 1.650 . S
C955 C48 1.639 . S
C1020 C182 1.660 . S
C1005 C88 1.666 . S
C1055 C8 1.642 . S
C1070 C160 1.655 . S
