# Generated by pormake.
# Topology gar, (4,6)-cn, num edge types: 1
# Building blocks:
#     Node 0, Type 0, BuildingBlock: GALJAG_clean_sbu_0, # of connection points: 4
#     Node 1, Type 0, BuildingBlock: GALJAG_clean_sbu_0, # of connection points: 4
#     Node 2, Type 0, BuildingBlock: GALJAG_clean_sbu_0, # of connection points: 4
#     Node 3, Type 0, BuildingBlock: GALJAG_clean_sbu_0, # of connection points: 4
#     Node 4, Type 0, BuildingBlock: GALJAG_clean_sbu_0, # of connection points: 4
#     Node 5, Type 0, BuildingBlock: GALJAG_clean_sbu_0, # of connection points: 4
#     Node 6, Type 0, BuildingBlock: GALJAG_clean_sbu_0, # of connection points: 4
#     Node 7, Type 0, BuildingBlock: GALJAG_clean_sbu_0, # of connection points: 4
#     Node 8, Type 0, BuildingBlock: GALJAG_clean_sbu_0, # of connection points: 4
#     Node 9, Type 0, BuildingBlock: GALJAG_clean_sbu_0, # of connection points: 4
#     Node 10, Type 0, BuildingBlock: GALJAG_clean_sbu_0, # of connection points: 4
#     Node 11, Type 0, BuildingBlock: GALJAG_clean_sbu_0, # of connection points: 4
#     Node 12, Type 0, BuildingBlock: GALJAG_clean_sbu_0, # of connection points: 4
#     Node 13, Type 0, BuildingBlock: GALJAG_clean_sbu_0, # of connection points: 4
#     Node 14, Type 0, BuildingBlock: GALJAG_clean_sbu_0, # of connection points: 4
#     Node 15, Type 0, BuildingBlock: GALJAG_clean_sbu_0, # of connection points: 4
#     Node 16, Type 0, BuildingBlock: GALJAG_clean_sbu_0, # of connection points: 4
#     Node 17, Type 0, BuildingBlock: GALJAG_clean_sbu_0, # of connection points: 4
#     Node 18, Type 0, BuildingBlock: GALJAG_clean_sbu_0, # of connection points: 4
#     Node 19, Type 0, BuildingBlock: GALJAG_clean_sbu_0, # of connection points: 4
#     Node 20, Type 0, BuildingBlock: GALJAG_clean_sbu_0, # of connection points: 4
#     Node 21, Type 0, BuildingBlock: GALJAG_clean_sbu_0, # of connection points: 4
#     Node 22, Type 0, BuildingBlock: GALJAG_clean_sbu_0, # of connection points: 4
#     Node 23, Type 0, BuildingBlock: GALJAG_clean_sbu_0, # of connection points: 4
#     Node 24, Type 1, BuildingBlock: PAMTOO_clean_sbu_0, # of connection points: 6
#     Node 25, Type 1, BuildingBlock: PAMTOO_clean_sbu_0, # of connection points: 6
#     Node 26, Type 1, BuildingBlock: PAMTOO_clean_sbu_0, # of connection points: 6
#     Node 27, Type 1, BuildingBlock: PAMTOO_clean_sbu_0, # of connection points: 6
#     Node 28, Type 1, BuildingBlock: PAMTOO_clean_sbu_0, # of connection points: 6
#     Node 29, Type 1, BuildingBlock: PAMTOO_clean_sbu_0, # of connection points: 6
#     Node 30, Type 1, BuildingBlock: PAMTOO_clean_sbu_0, # of connection points: 6
#     Node 31, Type 1, BuildingBlock: PAMTOO_clean_sbu_0, # of connection points: 6
#     Node 32, Type 1, BuildingBlock: PAMTOO_clean_sbu_0, # of connection points: 6
#     Node 33, Type 1, BuildingBlock: PAMTOO_clean_sbu_0, # of connection points: 6
#     Node 34, Type 1, BuildingBlock: PAMTOO_clean_sbu_0, # of connection points: 6
#     Node 35, Type 1, BuildingBlock: PAMTOO_clean_sbu_0, # of connection points: 6
#     Node 36, Type 1, BuildingBlock: PAMTOO_clean_sbu_0, # of connection points: 6
#     Node 37, Type 1, BuildingBlock: PAMTOO_clean_sbu_0, # of connection points: 6
#     Node 38, Type 1, BuildingBlock: PAMTOO_clean_sbu_0, # of connection points: 6
#     Node 39, Type 1, BuildingBlock: PAMTOO_clean_sbu_0, # of connection points: 6
#     Edge 40, Type (0, 1), BuildingBlock: KIFKEQ_clean_linker_1, # of connection points: 2
#     Edge 41, Type (0, 1), BuildingBlock: KIFKEQ_clean_linker_1, # of connection points: 2
#     Edge 42, Type (0, 1), BuildingBlock: KIFKEQ_clean_linker_1, # of connection points: 2
#     Edge 43, Type (0, 1), BuildingBlock: KIFKEQ_clean_linker_1, # of connection points: 2
#     Edge 44, Type (0, 1), BuildingBlock: KIFKEQ_clean_linker_1, # of connection points: 2
#     Edge 45, Type (0, 1), BuildingBlock: KIFKEQ_clean_linker_1, # of connection points: 2
#     Edge 46, Type (0, 1), BuildingBlock: KIFKEQ_clean_linker_1, # of connection points: 2
#     Edge 47, Type (0, 1), BuildingBlock: KIFKEQ_clean_linker_1, # of connection points: 2
#     Edge 48, Type (0, 1), BuildingBlock: KIFKEQ_clean_linker_1, # of connection points: 2
#     Edge 49, Type (0, 1), BuildingBlock: KIFKEQ_clean_linker_1, # of connection points: 2
#     Edge 50, Type (0, 1), BuildingBlock: KIFKEQ_clean_linker_1, # of connection points: 2
#     Edge 51, Type (0, 1), BuildingBlock: KIFKEQ_clean_linker_1, # of connection points: 2
#     Edge 52, Type (0, 1), BuildingBlock: KIFKEQ_clean_linker_1, # of connection points: 2
#     Edge 53, Type (0, 1), BuildingBlock: KIFKEQ_clean_linker_1, # of connection points: 2
#     Edge 54, Type (0, 1), BuildingBlock: KIFKEQ_clean_linker_1, # of connection points: 2
#     Edge 55, Type (0, 1), BuildingBlock: KIFKEQ_clean_linker_1, # of connection points: 2
#     Edge 56, Type (0, 1), BuildingBlock: KIFKEQ_clean_linker_1, # of connection points: 2
#     Edge 57, Type (0, 1), BuildingBlock: KIFKEQ_clean_linker_1, # of connection points: 2
#     Edge 58, Type (0, 1), BuildingBlock: KIFKEQ_clean_linker_1, # of connection points: 2
#     Edge 59, Type (0, 1), BuildingBlock: KIFKEQ_clean_linker_1, # of connection points: 2
#     Edge 60, Type (0, 1), BuildingBlock: KIFKEQ_clean_linker_1, # of connection points: 2
#     Edge 61, Type (0, 1), BuildingBlock: KIFKEQ_clean_linker_1, # of connection points: 2
#     Edge 62, Type (0, 1), BuildingBlock: KIFKEQ_clean_linker_1, # of connection points: 2
#     Edge 63, Type (0, 1), BuildingBlock: KIFKEQ_clean_linker_1, # of connection points: 2
#     Edge 64, Type (0, 1), BuildingBlock: KIFKEQ_clean_linker_1, # of connection points: 2
#     Edge 65, Type (0, 1), BuildingBlock: KIFKEQ_clean_linker_1, # of connection points: 2
#     Edge 66, Type (0, 1), BuildingBlock: KIFKEQ_clean_linker_1, # of connection points: 2
#     Edge 67, Type (0, 1), BuildingBlock: KIFKEQ_clean_linker_1, # of connection points: 2
#     Edge 68, Type (0, 1), BuildingBlock: KIFKEQ_clean_linker_1, # of connection points: 2
#     Edge 69, Type (0, 1), BuildingBlock: KIFKEQ_clean_linker_1, # of connection points: 2
#     Edge 70, Type (0, 1), BuildingBlock: KIFKEQ_clean_linker_1, # of connection points: 2
#     Edge 71, Type (0, 1), BuildingBlock: KIFKEQ_clean_linker_1, # of connection points: 2
#     Edge 72, Type (0, 1), BuildingBlock: KIFKEQ_clean_linker_1, # of connection points: 2
#     Edge 73, Type (0, 1), BuildingBlock: KIFKEQ_clean_linker_1, # of connection points: 2
#     Edge 74, Type (0, 1), BuildingBlock: KIFKEQ_clean_linker_1, # of connection points: 2
#     Edge 75, Type (0, 1), BuildingBlock: KIFKEQ_clean_linker_1, # of connection points: 2
#     Edge 76, Type (0, 1), BuildingBlock: KIFKEQ_clean_linker_1, # of connection points: 2
#     Edge 77, Type (0, 1), BuildingBlock: KIFKEQ_clean_linker_1, # of connection points: 2
#     Edge 78, Type (0, 1), BuildingBlock: KIFKEQ_clean_linker_1, # of connection points: 2
#     Edge 79, Type (0, 1), BuildingBlock: KIFKEQ_clean_linker_1, # of connection points: 2
#     Edge 80, Type (0, 1), BuildingBlock: KIFKEQ_clean_linker_1, # of connection points: 2
#     Edge 81, Type (0, 1), BuildingBlock: KIFKEQ_clean_linker_1, # of connection points: 2
#     Edge 82, Type (0, 1), BuildingBlock: KIFKEQ_clean_linker_1, # of connection points: 2
#     Edge 83, Type (0, 1), BuildingBlock: KIFKEQ_clean_linker_1, # of connection points: 2
#     Edge 84, Type (0, 1), BuildingBlock: KIFKEQ_clean_linker_1, # of connection points: 2
#     Edge 85, Type (0, 1), BuildingBlock: KIFKEQ_clean_linker_1, # of connection points: 2
#     Edge 86, Type (0, 1), BuildingBlock: KIFKEQ_clean_linker_1, # of connection points: 2
#     Edge 87, Type (0, 1), BuildingBlock: KIFKEQ_clean_linker_1, # of connection points: 2
#     Edge 88, Type (0, 1), BuildingBlock: KIFKEQ_clean_linker_1, # of connection points: 2
#     Edge 89, Type (0, 1), BuildingBlock: KIFKEQ_clean_linker_1, # of connection points: 2
#     Edge 90, Type (0, 1), BuildingBlock: KIFKEQ_clean_linker_1, # of connection points: 2
#     Edge 91, Type (0, 1), BuildingBlock: KIFKEQ_clean_linker_1, # of connection points: 2
#     Edge 92, Type (0, 1), BuildingBlock: KIFKEQ_clean_linker_1, # of connection points: 2
#     Edge 93, Type (0, 1), BuildingBlock: KIFKEQ_clean_linker_1, # of connection points: 2
#     Edge 94, Type (0, 1), BuildingBlock: KIFKEQ_clean_linker_1, # of connection points: 2
#     Edge 95, Type (0, 1), BuildingBlock: KIFKEQ_clean_linker_1, # of connection points: 2
#     Edge 96, Type (0, 1), BuildingBlock: KIFKEQ_clean_linker_1, # of connection points: 2
#     Edge 97, Type (0, 1), BuildingBlock: KIFKEQ_clean_linker_1, # of connection points: 2
#     Edge 98, Type (0, 1), BuildingBlock: KIFKEQ_clean_linker_1, # of connection points: 2
#     Edge 99, Type (0, 1), BuildingBlock: KIFKEQ_clean_linker_1, # of connection points: 2
#     Edge 100, Type (0, 1), BuildingBlock: KIFKEQ_clean_linker_1, # of connection points: 2
#     Edge 101, Type (0, 1), BuildingBlock: KIFKEQ_clean_linker_1, # of connection points: 2
#     Edge 102, Type (0, 1), BuildingBlock: KIFKEQ_clean_linker_1, # of connection points: 2
#     Edge 103, Type (0, 1), BuildingBlock: KIFKEQ_clean_linker_1, # of connection points: 2
#     Edge 104, Type (0, 1), BuildingBlock: KIFKEQ_clean_linker_1, # of connection points: 2
#     Edge 105, Type (0, 1), BuildingBlock: KIFKEQ_clean_linker_1, # of connection points: 2
#     Edge 106, Type (0, 1), BuildingBlock: KIFKEQ_clean_linker_1, # of connection points: 2
#     Edge 107, Type (0, 1), BuildingBlock: KIFKEQ_clean_linker_1, # of connection points: 2
#     Edge 108, Type (0, 1), BuildingBlock: KIFKEQ_clean_linker_1, # of connection points: 2
#     Edge 109, Type (0, 1), BuildingBlock: KIFKEQ_clean_linker_1, # of connection points: 2
#     Edge 110, Type (0, 1), BuildingBlock: KIFKEQ_clean_linker_1, # of connection points: 2
#     Edge 111, Type (0, 1), BuildingBlock: KIFKEQ_clean_linker_1, # of connection points: 2
#     Edge 112, Type (0, 1), BuildingBlock: KIFKEQ_clean_linker_1, # of connection points: 2
#     Edge 113, Type (0, 1), BuildingBlock: KIFKEQ_clean_linker_1, # of connection points: 2
#     Edge 114, Type (0, 1), BuildingBlock: KIFKEQ_clean_linker_1, # of connection points: 2
#     Edge 115, Type (0, 1), BuildingBlock: KIFKEQ_clean_linker_1, # of connection points: 2
#     Edge 116, Type (0, 1), BuildingBlock: KIFKEQ_clean_linker_1, # of connection points: 2
#     Edge 117, Type (0, 1), BuildingBlock: KIFKEQ_clean_linker_1, # of connection points: 2
#     Edge 118, Type (0, 1), BuildingBlock: KIFKEQ_clean_linker_1, # of connection points: 2
#     Edge 119, Type (0, 1), BuildingBlock: KIFKEQ_clean_linker_1, # of connection points: 2
#     Edge 120, Type (0, 1), BuildingBlock: KIFKEQ_clean_linker_1, # of connection points: 2
#     Edge 121, Type (0, 1), BuildingBlock: KIFKEQ_clean_linker_1, # of connection points: 2
#     Edge 122, Type (0, 1), BuildingBlock: KIFKEQ_clean_linker_1, # of connection points: 2
#     Edge 123, Type (0, 1), BuildingBlock: KIFKEQ_clean_linker_1, # of connection points: 2
#     Edge 124, Type (0, 1), BuildingBlock: KIFKEQ_clean_linker_1, # of connection points: 2
#     Edge 125, Type (0, 1), BuildingBlock: KIFKEQ_clean_linker_1, # of connection points: 2
#     Edge 126, Type (0, 1), BuildingBlock: KIFKEQ_clean_linker_1, # of connection points: 2
#     Edge 127, Type (0, 1), BuildingBlock: KIFKEQ_clean_linker_1, # of connection points: 2
#     Edge 128, Type (0, 1), BuildingBlock: KIFKEQ_clean_linker_1, # of connection points: 2
#     Edge 129, Type (0, 1), BuildingBlock: KIFKEQ_clean_linker_1, # of connection points: 2
#     Edge 130, Type (0, 1), BuildingBlock: KIFKEQ_clean_linker_1, # of connection points: 2
#     Edge 131, Type (0, 1), BuildingBlock: KIFKEQ_clean_linker_1, # of connection points: 2
#     Edge 132, Type (0, 1), BuildingBlock: KIFKEQ_clean_linker_1, # of connection points: 2
#     Edge 133, Type (0, 1), BuildingBlock: KIFKEQ_clean_linker_1, # of connection points: 2
#     Edge 134, Type (0, 1), BuildingBlock: KIFKEQ_clean_linker_1, # of connection points: 2
#     Edge 135, Type (0, 1), BuildingBlock: KIFKEQ_clean_linker_1, # of connection points: 2
# Relax obj value: 0.158
# Max RMSD: 0.268
# Mean RMSD: 0.173
data_MOF--net-gar--node1-GALJAG_clean_sbu_0--node2-PAMTOO_clean_sbu_0--edge1-KIFKEQ_clean_linker_1
_symmetry_space_group_name_H-M    P1
_symmetry_Int_Tables_number       1
_symmetry_cell_setting            triclinic
loop_
_symmetry_equiv_pos_as_xyz
'x, y, z'
_cell_length_a     60.604537
_cell_length_b     60.550962
_cell_length_c     58.315489
_cell_angle_alpha  96.691306
_cell_angle_beta   95.842101
_cell_angle_gamma 104.60498
loop_
_atom_site_label
_atom_site_type_symbol
_atom_site_fract_x
_atom_site_fract_y
_atom_site_fract_z
_atom_type_partial_charge
In0 In 0.05779 0.33048 0.36952 0.0
O1 O 0.07838 0.31901 0.33973 0.0
O2 O 0.09766 0.34275 0.36817 0.0
C3 C 0.01224 0.32299 0.34901 0.0
C4 C 0.05545 0.29477 0.39473 0.0
C5 C 0.06058 0.3721 0.3959 0.0
O6 O 0.02925 0.33303 0.3396 0.0
O7 O 0.01831 0.31608 0.3676 0.0
O8 O 0.06384 0.35473 0.40435 0.0
O9 O 0.057 0.36903 0.37385 0.0
C10 C 0.0983 0.33049 0.34935 0.0
O11 O 0.06139 0.31571 0.40381 0.0
O12 O 0.05093 0.29167 0.37276 0.0
In13 In 0.02234 0.76451 0.70076 0.0
O14 O 0.01721 0.7787 0.66624 0.0
O15 O 0.03084 0.80309 0.69671 0.0
C16 C 0.02008 0.72364 0.67304 0.0
C17 C 0.06728 0.77172 0.72308 0.0
C18 C 0.98203 0.76514 0.72111 0.0
O19 O 0.0215 0.74255 0.66542 0.0
O20 O 0.01918 0.725 0.69473 0.0
O21 O 1.00213 0.77508 0.73136 0.0
O22 O 0.98233 0.75419 0.70146 0.0
C23 C 0.02478 0.79973 0.67492 0.0
O24 O 0.06122 0.78422 0.70918 0.0
O25 O 0.05047 0.75604 0.72704 0.0
In26 In 0.55327 0.82933 0.86867 0.0
O27 O 0.5738 0.81944 0.83801 0.0
O28 O 0.59329 0.83942 0.86856 0.0
C29 C 0.50801 0.8213 0.84714 0.0
C30 C 0.55149 0.79431 0.89462 0.0
C31 C 0.55496 0.87067 0.89518 0.0
O32 O 0.52494 0.83488 0.84053 0.0
O33 O 0.51408 0.81109 0.86333 0.0
O34 O 0.55639 0.85275 0.90363 0.0
O35 O 0.55361 0.86823 0.8732 0.0
C36 C 0.59381 0.82893 0.84874 0.0
O37 O 0.55811 0.8154 0.90324 0.0
O38 O 0.5458 0.79072 0.87275 0.0
In39 In 0.52661 0.26609 0.20147 0.0
O40 O 0.51949 0.24267 0.16608 0.0
O41 O 0.52371 0.22666 0.19608 0.0
C42 C 0.52951 0.302 0.17633 0.0
C43 C 0.48766 0.2678 0.2239 0.0
C44 C 0.57197 0.27052 0.22091 0.0
O45 O 0.51736 0.28176 0.16878 0.0
O46 O 0.53994 0.30428 0.19667 0.0
O47 O 0.55578 0.26953 0.23331 0.0
O48 O 0.56524 0.26946 0.19958 0.0
C49 C 0.52064 0.22437 0.174 0.0
O50 O 0.48856 0.25115 0.20915 0.0
O51 O 0.50676 0.28294 0.22865 0.0
In52 In 0.08082 0.81956 0.12702 0.0
O53 O 0.07542 0.78949 0.09503 0.0
O54 O 0.07794 0.78106 0.12899 0.0
C55 C 0.07849 0.85793 0.10416 0.0
C56 C 0.0453 0.81624 0.15297 0.0
C57 C 0.12241 0.8267 0.15444 0.0
O58 O 0.09718 0.8545 0.1126 0.0
O59 O 0.06142 0.84156 0.10585 0.0
O60 O 0.10467 0.8303 0.1622 0.0
O61 O 0.11965 0.82082 0.13255 0.0
C62 C 0.0754 0.77369 0.10756 0.0
O63 O 0.06567 0.82783 0.16078 0.0
O64 O 0.04285 0.80657 0.13215 0.0
In65 In 0.5112 0.7882 0.45742 0.0
O66 O 0.52636 0.78334 0.42328 0.0
O67 O 0.55007 0.7982 0.45363 0.0
C68 C 0.46785 0.78276 0.43414 0.0
C69 C 0.51261 0.74833 0.47784 0.0
C70 C 0.51768 0.83437 0.47596 0.0
O71 O 0.48435 0.77853 0.42452 0.0
O72 O 0.4726 0.78849 0.45603 0.0
O73 O 0.51637 0.81857 0.48873 0.0
O74 O 0.5162 0.82692 0.4546 0.0
C75 C 0.54715 0.79163 0.43192 0.0
O76 O 0.52038 0.76862 0.48884 0.0
O77 O 0.50323 0.74822 0.4575 0.0
In78 In 0.58385 0.32369 0.62687 0.0
O79 O 0.58783 0.29462 0.59755 0.0
O80 O 0.56881 0.28421 0.62443 0.0
C81 C 0.5827 0.36366 0.60651 0.0
C82 C 0.54767 0.32214 0.65157 0.0
C83 C 0.625 0.32733 0.65406 0.0
O84 O 0.57287 0.34335 0.59642 0.0
O85 O 0.59395 0.36375 0.62599 0.0
O86 O 0.60601 0.32532 0.66177 0.0
O87 O 0.62374 0.32847 0.63243 0.0
C88 C 0.57677 0.27777 0.60648 0.0
O89 O 0.56845 0.3293 0.66077 0.0
O90 O 0.54502 0.31619 0.62975 0.0
In91 In 0.01354 0.28586 0.95762 0.0
O92 O 0.02438 0.26609 0.98809 0.0
O93 O 1.00363 0.24585 0.95828 0.0
C94 C 0.02031 0.33138 0.97851 0.0
C95 C 0.04941 0.28763 0.93253 0.0
C96 C 0.97285 0.28374 0.93043 0.0
O97 O 1.00921 0.31433 0.98713 0.0
O98 O 0.02864 0.32534 0.96064 0.0
O99 O 0.99146 0.28372 0.92255 0.0
O100 O 0.97418 0.28365 0.95223 0.0
C101 C 0.01478 0.24582 0.97775 0.0
O102 O 0.02864 0.27867 0.92395 0.0
O103 O 0.05228 0.29548 0.95401 0.0
In104 In 0.41771 0.06386 0.31933 0.0
O105 O 0.4422 0.07459 0.29308 0.0
O106 O 0.4358 0.04015 0.30065 0.0
C107 C 0.4443 0.08735 0.35867 0.0
C108 C 0.38787 0.08623 0.30294 0.0
C109 C 0.39238 0.0222 0.32559 0.0
O110 O 0.45131 0.08742 0.33906 0.0
O111 O 0.42358 0.07633 0.35821 0.0
O112 O 0.38503 0.03437 0.31213 0.0
O113 O 0.41246 0.03116 0.33612 0.0
C114 C 0.44626 0.0551 0.28938 0.0
O115 O 0.39626 0.07343 0.28978 0.0
O116 O 0.39519 0.08843 0.32434 0.0
In117 In 0.28374 0.20316 0.52587 0.0
O118 O 0.29689 0.23529 0.55483 0.0
O119 O 0.27196 0.20641 0.5618 0.0
C120 C 0.28808 0.22039 0.48456 0.0
C121 C 0.31794 0.18257 0.53488 0.0
C122 C 0.24058 0.17491 0.51631 0.0
O123 O 0.28328 0.23149 0.50224 0.0
O124 O 0.29094 0.20108 0.48788 0.0
O125 O 0.25836 0.16764 0.51685 0.0
O126 O 0.24451 0.19664 0.51983 0.0
C127 C 0.28451 0.22641 0.56934 0.0
O128 O 0.29687 0.17205 0.5319 0.0
O129 O 0.32207 0.20384 0.53343 0.0
In130 In 0.13819 0.0578 0.79578 0.0
O131 O 0.11285 0.06913 0.77004 0.0
O132 O 0.12402 0.04004 0.75823 0.0
C133 C 0.12054 0.05349 0.83708 0.0
C134 C 0.16129 0.02512 0.78989 0.0
C135 C 0.16721 0.10071 0.8001 0.0
O136 O 0.10811 0.04667 0.81754 0.0
O137 O 0.14138 0.06242 0.83565 0.0
O138 O 0.17412 0.08288 0.80145 0.0
O139 O 0.1456 0.09701 0.79692 0.0
C140 C 0.1125 0.05387 0.75324 0.0
O141 O 0.16937 0.04579 0.78697 0.0
O142 O 0.14127 0.02069 0.79573 0.0
In143 In 0.27794 0.91159 0.0268 0.0
O144 O 0.26715 0.87466 0.03497 0.0
O145 O 0.29664 0.89815 0.05527 0.0
C146 C 0.26388 0.89433 0.98155 0.0
C147 C 0.2513 0.93404 0.04935 0.0
C148 C 0.32035 0.93757 0.02423 0.0
O149 O 0.25868 0.88279 0.99779 0.0
O150 O 0.27548 0.91494 0.98816 0.0
O151 O 0.30316 0.94584 0.02387 0.0
O152 O 0.31591 0.91622 0.02517 0.0
C153 C 0.28371 0.87788 0.05103 0.0
O154 O 0.27118 0.93414 0.05798 0.0
O155 O 0.24461 0.92236 0.02941 0.0
In156 In 0.30187 0.39463 0.04923 0.0
O157 O 0.28886 0.36447 0.07018 0.0
O158 O 0.30773 0.39682 0.08897 0.0
C159 C 0.2986 0.3716 0.00513 0.0
C160 C 0.26867 0.4174 0.04632 0.0
C161 C 0.34549 0.42211 0.05375 0.0
O162 O 0.30632 0.36446 0.02298 0.0
O163 O 0.29184 0.38945 0.00971 0.0
O164 O 0.3283 0.4297 0.05666 0.0
O165 O 0.34088 0.40042 0.04903 0.0
C166 C 0.2971 0.37629 0.08993 0.0
O167 O 0.28981 0.42692 0.04692 0.0
O168 O 0.26391 0.39594 0.04718 0.0
In169 In 0.78766 0.15857 0.05192 0.0
O170 O 0.80277 0.13772 0.02596 0.0
O171 O 0.81124 0.1364 0.06198 0.0
C172 C 0.74543 0.12952 0.04118 0.0
C173 C 0.79703 0.18192 0.09521 0.0
C174 C 0.79047 0.19584 0.03049 0.0
O175 O 0.75783 0.13095 0.06033 0.0
O176 O 0.75455 0.14243 0.02733 0.0
O177 O 0.77375 0.18744 0.04083 0.0
O178 O 0.80592 0.1852 0.03058 0.0
C179 C 0.81317 0.12946 0.04122 0.0
O180 O 0.77736 0.16921 0.08667 0.0
O181 O 0.81254 0.18199 0.08227 0.0
In182 In 0.18084 0.54989 0.26529 0.0
O183 O 0.19999 0.53151 0.28905 0.0
O184 O 0.20372 0.52776 0.2531 0.0
C185 C 0.20837 0.59203 0.26446 0.0
C186 C 0.15048 0.53026 0.22704 0.0
C187 C 0.15453 0.55924 0.29736 0.0
O188 O 0.21239 0.57952 0.27935 0.0
O189 O 0.19067 0.58308 0.24975 0.0
O190 O 0.1579 0.53949 0.29297 0.0
O191 O 0.16447 0.57405 0.28564 0.0
C192 C 0.20936 0.52323 0.27303 0.0
O193 O 0.14537 0.52866 0.2473 0.0
O194 O 0.17097 0.54116 0.22616 0.0
In195 In 0.80139 0.89571 0.54947 0.0
O196 O 0.80431 0.86734 0.57253 0.0
O197 O 0.78828 0.89261 0.58492 0.0
C198 C 0.79926 0.87434 0.50493 0.0
C199 C 0.7698 0.91976 0.54256 0.0
C200 C 0.84533 0.92238 0.55943 0.0
O201 O 0.78809 0.86437 0.51974 0.0
O202 O 0.81102 0.89465 0.51259 0.0
O203 O 0.82819 0.93016 0.56202 0.0
O204 O 0.8404 0.90092 0.55266 0.0
C205 C 0.79487 0.87514 0.58881 0.0
O206 O 0.79064 0.92903 0.5505 0.0
O207 O 0.76458 0.89799 0.53791 0.0
In208 In 0.95242 0.04335 0.27685 0.0
O209 O 0.98168 0.05716 0.25511 0.0
O210 O 0.95057 0.03489 0.23717 0.0
C211 C 0.97873 0.0471 0.31901 0.0
C212 C 0.92823 0.07522 0.28192 0.0
C213 C 0.92299 1.00086 0.27301 0.0
O214 O 0.97761 0.03155 0.30223 0.0
O215 O 0.9677 0.06139 0.31416 0.0
O216 O 0.91634 0.01863 0.27032 0.0
O217 O 0.94455 1.00441 0.27721 0.0
C218 C 0.97044 0.04695 0.23571 0.0
O219 O 0.92131 0.05501 0.28662 0.0
O220 O 0.94767 0.07964 0.27481 0.0
In221 In 0.29265 0.65837 0.56089 0.0
O222 O 0.31336 0.63194 0.56257 0.0
O223 O 0.3116 0.64722 0.53173 0.0
C224 C 0.24921 0.63479 0.56345 0.0
C225 C 0.31375 0.68039 0.60309 0.0
C226 C 0.28395 0.68892 0.53382 0.0
O227 O 0.26341 0.62542 0.55474 0.0
O228 O 0.25719 0.65585 0.57164 0.0
O229 O 0.29831 0.69479 0.55212 0.0
O230 O 0.27451 0.66756 0.52881 0.0
C231 C 0.31867 0.63281 0.54231 0.0
O232 O 0.31902 0.68778 0.58449 0.0
O233 O 0.29857 0.66134 0.60032 0.0
In234 In 0.448 0.54446 0.77856 0.0
O235 O 0.41659 0.55715 0.76783 0.0
O236 O 0.44332 0.5801 0.79199 0.0
C237 C 0.41974 0.50138 0.77314 0.0
C238 C 0.46966 0.54881 0.73945 0.0
C239 C 0.47003 0.54572 0.82234 0.0
O240 O 0.41255 0.51875 0.76982 0.0
O241 O 0.44127 0.50568 0.77877 0.0
O242 O 0.48098 0.54995 0.80529 0.0
O243 O 0.44853 0.54144 0.8173 0.0
C244 C 0.42366 0.57655 0.78045 0.0
O245 O 0.47269 0.56527 0.75586 0.0
O246 O 0.45679 0.53018 0.74329 0.0
In247 In 0.6817 0.05643 0.76787 0.0
O248 O 0.70097 0.04209 0.7956 0.0
O249 O 0.70395 0.03212 0.76016 0.0
C250 C 0.70893 0.09869 0.76663 0.0
C251 C 0.65609 0.03602 0.72699 0.0
C252 C 0.65153 0.06453 0.79625 0.0
O253 O 0.71324 0.08631 0.78153 0.0
O254 O 0.69109 0.08958 0.75216 0.0
O255 O 0.65518 0.0449 0.79211 0.0
O256 O 0.66309 0.07987 0.78612 0.0
C257 C 0.70978 0.0309 0.78124 0.0
O258 O 0.64863 0.03359 0.74621 0.0
O259 O 0.6766 0.04808 0.72855 0.0
In260 In 0.78417 0.70894 0.02658 0.0
O261 O 0.79954 0.67978 0.0134 0.0
O262 O 0.81699 0.70216 0.04423 0.0
C263 C 0.74382 0.67547 0.01869 0.0
C264 C 0.78377 0.73475 0.06853 0.0
C265 C 0.78928 0.73184 0.98858 0.0
O266 O 0.76192 0.67296 0.02954 0.0
O267 O 0.74617 0.69469 0.01147 0.0
O268 O 0.77152 0.72874 0.9986 0.0
O269 O 0.80492 0.72443 0.9983 0.0
C270 C 0.81627 0.6848 0.02959 0.0
O271 O 0.7997 0.74014 0.05617 0.0
O272 O 0.76815 0.71704 0.05952 0.0
In273 In 0.92189 0.57302 0.82326 0.0
O274 O 0.88734 0.58117 0.82222 0.0
O275 O 0.91188 0.59983 0.80308 0.0
C276 C 0.89725 0.52947 0.8234 0.0
C277 C 0.9493 0.56314 0.79253 0.0
C278 C 0.94776 0.59657 0.86325 0.0
O279 O 0.89389 0.54089 0.80724 0.0
O280 O 0.91296 0.54012 0.83976 0.0
O281 O 0.95574 0.59445 0.8443 0.0
O282 O 0.92641 0.58769 0.86185 0.0
C283 C 0.89178 0.59583 0.80853 0.0
O284 O 0.94032 0.57977 0.79169 0.0
O285 O 0.94448 0.55163 0.80886 0.0
In286 In 0.77675 0.41291 0.51577 0.0
O287 O 0.79309 0.3842 0.52263 0.0
O288 O 0.7687 0.39091 0.5445 0.0
C289 C 0.75459 0.39265 0.47313 0.0
C290 C 0.75469 0.44381 0.53128 0.0
C291 C 0.82119 0.43663 0.5207 0.0
O292 O 0.75216 0.38293 0.49098 0.0
O293 O 0.76744 0.41295 0.47696 0.0
O294 O 0.80954 0.43574 0.5375 0.0
O295 O 0.81046 0.42529 0.5015 0.0
C296 C 0.78227 0.37886 0.5394 0.0
O297 O 0.77134 0.44863 0.51986 0.0
O298 O 0.74865 0.42305 0.53463 0.0
In299 In 0.63722 0.55894 0.29927 0.0
O300 O 0.66971 0.54686 0.30112 0.0
O301 O 0.63802 0.52075 0.29566 0.0
C302 C 0.66537 0.60206 0.30213 0.0
C303 C 0.6139 0.55517 0.25541 0.0
C304 C 0.61994 0.55517 0.34082 0.0
O305 O 0.67217 0.58406 0.29928 0.0
O306 O 0.64414 0.59848 0.30364 0.0
O307 O 0.60771 0.54646 0.32144 0.0
O308 O 0.64028 0.56576 0.33905 0.0
C309 C 0.65978 0.52557 0.29799 0.0
O310 O 0.60764 0.56432 0.27334 0.0
O311 O 0.63093 0.54727 0.25982 0.0
Dy312 Dy 0.07394 0.0657 0.05055 0.0
Dy313 Dy 0.02317 0.03699 0.02498 0.0
C314 C 0.06473 0.04742 0.99571 0.0
O315 O 0.05715 0.09458 0.04525 0.0
O316 O 0.02595 0.07404 0.01869 0.0
O317 O 0.10896 0.08391 0.04801 0.0
O318 O 0.09848 0.07966 0.08179 0.0
O319 O 0.01654 0.05196 0.05984 0.0
O320 O 0.05276 0.05819 0.07934 0.0
O321 O 0.03643 0.01028 0.04209 0.0
O322 O 0.07502 0.02813 0.04885 0.0
O323 O 0.99245 0.00926 0.0232 0.0
O324 O 0.99637 0.03031 0.99557 0.0
C325 C 0.03952 0.09401 0.02961 0.0
O326 O 0.07478 0.06474 0.01216 0.0
O327 O 0.04711 0.03123 0.99942 0.0
C328 C 0.13312 0.0717 0.07471 0.0
C329 C 0.16147 0.04328 0.08605 0.0
C330 C 0.14529 0.03689 0.06588 0.0
C331 C 0.13134 0.05095 0.06024 0.0
C332 C 0.14967 0.07855 0.09465 0.0
C333 C 0.16403 0.06446 0.10018 0.0
C334 C 0.11576 0.08425 0.06998 0.0
C335 C 0.03065 0.0558 0.07941 0.0
C336 C 0.05774 0.00962 0.04831 0.0
C337 C 0.95946 0.01817 0.00632 0.0
C338 C 0.91764 0.02977 0.0087 0.0
C339 C 0.93276 0.03142 0.02912 0.0
C340 C 0.95355 0.02581 0.02794 0.0
C341 C 0.944 0.01555 0.98599 0.0
C342 C 0.92322 0.02139 0.98715 0.0
C343 C 0.98238 0.01472 1.00469 0.0
H344 H 0.14335 0.02086 0.05447 0.0
H345 H 0.11874 0.04526 0.04474 0.0
H346 H 0.15111 0.0944 0.10612 0.0
H347 H 0.17661 0.06974 0.11572 0.0
H348 H 0.92909 0.03823 0.04591 0.0
H349 H 0.96533 0.02822 0.04386 0.0
H350 H 0.94835 0.00974 0.96917 0.0
H351 H 0.9118 0.01994 0.97117 0.0
Dy352 Dy 0.31019 0.8058 0.27584 0.0
Dy353 Dy 0.27977 0.8109 0.31818 0.0
C354 C 0.31464 0.85364 0.30525 0.0
O355 O 0.33008 0.79627 0.30606 0.0
O356 O 0.31419 0.81041 0.33685 0.0
O357 O 0.33018 0.81962 0.24981 0.0
O358 O 0.32526 0.78369 0.25429 0.0
O359 O 0.27997 0.77402 0.31109 0.0
O360 O 0.28139 0.77413 0.27239 0.0
O361 O 0.25508 0.80757 0.28563 0.0
O362 O 0.28055 0.81772 0.25961 0.0
O363 O 0.24954 0.79862 0.3346 0.0
O364 O 0.27454 0.83095 0.34916 0.0
C365 C 0.33031 0.80191 0.3286 0.0
O366 O 0.32659 0.83976 0.29769 0.0
O367 O 0.29308 0.84548 0.3079 0.0
C368 C 0.32517 0.79258 0.21631 0.0
C369 C 0.31321 0.78493 0.16764 0.0
C370 C 0.29792 0.79085 0.1824 0.0
C371 C 0.3038 0.79448 0.20648 0.0
C372 C 0.33979 0.78504 0.20197 0.0
C373 C 0.33377 0.78105 0.17776 0.0
C374 C 0.33247 0.79949 0.24136 0.0
C375 C 0.27675 0.76289 0.28988 0.0
C376 C 0.25954 0.81389 0.26534 0.0
C377 C 0.25772 0.80747 0.37514 0.0
C378 C 0.26 0.79111 0.41815 0.0
C379 C 0.27757 0.79122 0.40417 0.0
C380 C 0.27639 0.79925 0.38283 0.0
C381 C 0.24021 0.80765 0.38903 0.0
C382 C 0.24129 0.79943 0.41045 0.0
C383 C 0.25648 0.81513 0.35233 0.0
H384 H 0.28209 0.79436 0.17548 0.0
H385 H 0.29215 0.79995 0.21739 0.0
H386 H 0.35618 0.78308 0.20941 0.0
H387 H 0.34573 0.77603 0.16698 0.0
H388 H 0.29192 0.78441 0.40937 0.0
H389 H 0.28989 0.79873 0.37213 0.0
H390 H 0.22564 0.81389 0.38321 0.0
H391 H 0.22752 0.79946 0.42092 0.0
Dy392 Dy 0.52226 0.05179 0.54907 0.0
Dy393 Dy 0.5736 0.05963 0.53163 0.0
C394 C 0.53247 0.07085 0.50187 0.0
O395 O 0.52205 0.01765 0.52776 0.0
O396 O 0.56081 0.02127 0.5315 0.0
O397 O 0.48549 0.03995 0.5388 0.0
O398 O 0.49937 0.05429 0.57476 0.0
O399 O 0.57889 0.05348 0.56834 0.0
O400 O 0.54185 0.03832 0.576 0.0
O401 O 0.57105 0.09615 0.54238 0.0
O402 O 0.5409 0.08884 0.564 0.0
O403 O 0.61043 0.0745 0.53629 0.0
O404 O 0.59346 0.05156 0.50465 0.0
C405 C 0.53948 1.00829 0.52667 0.0
O406 O 0.52306 0.07332 0.52082 0.0
O407 O 0.54874 0.06021 0.50085 0.0
C408 C 0.46562 0.06286 0.55898 0.0
C409 C 0.43554 0.09165 0.55661 0.0
C410 C 0.42731 0.06831 0.55938 0.0
C411 C 0.44222 0.05408 0.56056 0.0
C412 C 0.474 0.0861 0.55625 0.0
C413 C 0.45912 0.10038 0.55514 0.0
C414 C 0.481 0.04756 0.55921 0.0
C415 C 0.56424 0.04261 0.58106 0.0
C416 C 0.5579 0.1035 0.55666 0.0
C417 C 0.62955 0.04823 0.52001 0.0
C418 C 0.65946 0.01934 0.52353 0.0
C419 C 0.64319 0.01958 0.53909 0.0
C420 C 0.62834 0.0338 0.53727 0.0
C421 C 0.64574 0.04817 0.50451 0.0
C422 C 0.66057 0.03387 0.50623 0.0
C423 C 0.61307 0.06223 0.51732 0.0
H424 H 0.40922 0.06087 0.56017 0.0
H425 H 0.43542 0.03612 0.56243 0.0
H426 H 0.49203 0.09315 0.55485 0.0
H427 H 0.46613 0.11828 0.55325 0.0
H428 H 0.64201 0.00892 0.55283 0.0
H429 H 0.61577 0.03345 0.54924 0.0
H430 H 0.64671 0.05896 0.49087 0.0
H431 H 0.6726 0.03391 0.49372 0.0
Dy432 Dy 0.31983 0.29344 0.78983 0.0
Dy433 Dy 0.2697 0.30751 0.78466 0.0
C434 C 0.31659 0.34366 0.77873 0.0
O435 O 0.31167 0.29868 0.82674 0.0
O436 O 0.28714 0.32161 0.82084 0.0
O437 O 0.35616 0.30113 0.80321 0.0
O438 O 0.33959 0.26975 0.77948 0.0
O439 O 0.26489 0.27615 0.80207 0.0
O440 O 0.29167 0.26063 0.78649 0.0
O441 O 0.27215 0.28932 0.7494 0.0
O442 O 0.31141 0.29625 0.75224 0.0
O443 O 0.23293 0.29662 0.77395 0.0
O444 O 0.24896 0.3313 0.7916 0.0
C445 C 0.29989 0.31279 0.83484 0.0
O446 O 0.32821 0.3313 0.78936 0.0
O447 O 0.2942 0.33653 0.77224 0.0
C448 C 0.3782 0.28853 0.77539 0.0
C449 C 0.41511 0.29744 0.7483 0.0
C450 C 0.41935 0.2994 0.77279 0.0
C451 C 0.40113 0.29496 0.78612 0.0
C452 C 0.37383 0.28685 0.751 0.0
C453 C 0.39202 0.29117 0.73764 0.0
C454 C 0.35911 0.28361 0.78976 0.0
C455 C 0.27257 0.25829 0.79589 0.0
C456 C 0.29099 0.29 0.7397 0.0
C457 C 0.21195 0.31297 0.80013 0.0
C458 C 0.17746 0.30758 0.83012 0.0
C459 C 0.19476 0.29583 0.83213 0.0
C460 C 0.21183 0.29855 0.81735 0.0
C461 C 0.19496 0.32489 0.79818 0.0
C462 C 0.17795 0.32228 0.813 0.0
C463 C 0.22962 0.31565 0.78414 0.0
H464 H 0.4368 0.30458 0.78177 0.0
H465 H 0.40498 0.29653 0.80489 0.0
H466 H 0.35632 0.28202 0.74219 0.0
H467 H 0.38792 0.28917 0.71888 0.0
H468 H 0.1949 0.28418 0.84485 0.0
H469 H 0.22485 0.28924 0.81926 0.0
H470 H 0.19483 0.33624 0.78514 0.0
H471 H 0.16527 0.33198 0.81113 0.0
Dy472 Dy 0.05056 0.02309 0.53338 0.0
Dy473 Dy 0.03562 0.07284 0.53902 0.0
C474 C 1.00047 0.02571 0.54607 0.0
O475 O 0.04486 0.03112 0.49674 0.0
O476 O 0.02038 0.05391 0.50346 0.0
O477 O 0.04424 0.98695 0.51941 0.0
O478 O 0.07448 1.00393 0.54421 0.0
O479 O 0.06638 0.07753 0.52041 0.0
O480 O 0.08284 0.05176 0.53613 0.0
O481 O 0.05382 0.07084 0.57422 0.0
O482 O 0.04718 0.03153 0.57084 0.0
O483 O 0.04655 0.10989 0.54963 0.0
O484 O 0.01186 0.0935 0.53261 0.0
C485 C 0.02955 0.04161 0.48904 0.0
O486 O 0.01283 0.01412 0.53499 0.0
O487 O 1.00722 0.04826 0.55226 0.0
C488 C 0.05651 0.96511 0.54703 0.0
C489 C 0.04823 0.92902 0.57481 0.0
C490 C 0.03632 0.94626 0.57658 0.0
C491 C 0.04048 0.96412 0.56292 0.0
C492 C 0.06838 0.94803 0.54513 0.0
C493 C 0.06434 0.93023 0.55884 0.0
C494 C 0.06154 0.98428 0.53306 0.0
C495 C 0.08455 0.07041 0.52623 0.0
C496 C 0.05313 0.05194 0.58363 0.0
C497 C 0.02993 0.13084 0.52414 0.0
C498 C 0.03539 0.16573 0.49485 0.0
C499 C 0.03762 0.1714 0.51927 0.0
C500 C 0.03489 0.15419 0.53369 0.0
C501 C 0.02789 0.125 0.49982 0.0
C502 C 0.03052 0.14222 0.48535 0.0
C503 C 0.02746 0.113 0.53983 0.0
H504 H 0.02359 0.94589 0.58838 0.0
H505 H 0.03125 0.97725 0.56484 0.0
H506 H 0.08101 0.94859 0.53317 0.0
H507 H 0.0742 0.91764 0.55718 0.0
H508 H 0.04181 0.18923 0.52738 0.0
H509 H 0.03678 0.15915 0.55239 0.0
H510 H 0.02423 0.10711 0.49199 0.0
H511 H 0.02843 0.13705 0.46668 0.0
Dy512 Dy 0.29261 0.82182 0.7753 0.0
Dy513 Dy 0.28291 0.77189 0.79452 0.0
C514 C 0.27788 0.81647 0.82582 0.0
O515 O 0.32715 0.82198 0.79479 0.0
O516 O 0.32127 0.78295 0.79369 0.0
O517 O 0.30632 0.85885 0.78179 0.0
O518 O 0.28834 0.842 0.74774 0.0
O519 O 0.28129 0.76593 0.75603 0.0
O520 O 0.30638 0.79929 0.75067 0.0
O521 O 0.24743 0.77778 0.78874 0.0
O522 O 0.25519 0.803 0.76225 0.0
O523 O 0.2673 0.73505 0.78869 0.0
O524 O 0.28995 0.75103 0.82056 0.0
C525 C 0.33527 0.80394 0.79722 0.0
O526 O 0.27574 0.82601 0.807 0.0
O527 O 0.28473 0.79759 0.82569 0.0
C528 C 0.28201 0.87751 0.7626 0.0
C529 C 0.25473 0.90891 0.76756 0.0
C530 C 0.24632 0.88593 0.77134 0.0
C531 C 0.25986 0.87041 0.76895 0.0
C532 C 0.29039 0.90026 0.75852 0.0
C533 C 0.27688 0.91583 0.76096 0.0
C534 C 0.29679 0.86158 0.76159 0.0
C535 C 0.29636 0.77729 0.74415 0.0
C536 C 0.24024 0.78897 0.77261 0.0
C537 C 0.29318 0.71523 0.80336 0.0
C538 C 0.32163 0.68506 0.79764 0.0
C539 C 0.32446 0.70444 0.78594 0.0
C540 C 0.31038 0.71936 0.78878 0.0
C541 C 0.29011 0.69588 0.81492 0.0
C542 C 0.30418 0.68088 0.81206 0.0
C543 C 0.27926 0.7317 0.80722 0.0
H544 H 0.2295 0.88007 0.77673 0.0
H545 H 0.25318 0.85294 0.77243 0.0
H546 H 0.30749 0.90607 0.75372 0.0
H547 H 0.28378 0.93331 0.75764 0.0
H548 H 0.33748 0.70802 0.77446 0.0
H549 H 0.31302 0.73425 0.7797 0.0
H550 H 0.27704 0.69253 0.82638 0.0
H551 H 0.30169 0.66628 0.82153 0.0
Dy552 Dy 0.52474 0.05953 0.01062 0.0
Dy553 Dy 0.53658 0.03239 0.05337 0.0
C554 C 0.5334 0.00916 1.00022 0.0
O555 O 0.49177 0.03478 0.01416 0.0
O556 O 0.49936 0.03071 0.05248 0.0
O557 O 0.50804 0.05952 0.97611 0.0
O558 O 0.52744 0.09172 0.99726 0.0
O559 O 0.54011 0.06903 0.06972 0.0
O560 O 0.51559 0.07828 0.04233 0.0
O561 O 0.56806 0.04085 0.03625 0.0
O562 O 0.56247 0.07297 0.02239 0.0
O563 O 0.56099 0.02984 0.08179 0.0
O564 O 0.52789 1.0044 0.07352 0.0
C565 C 0.48484 0.0285 0.03355 0.0
O566 O 0.53677 0.02984 0.9939 0.0
O567 O 0.52851 1.00577 0.02125 0.0
C568 C 0.52985 0.08745 0.95709 0.0
C569 C 0.55329 0.09214 0.91808 0.0
C570 C 0.5654 0.09303 0.94018 0.0
C571 C 0.55376 0.09057 0.95951 0.0
C572 C 0.51783 0.08754 0.93529 0.0
C573 C 0.52948 0.08983 0.91586 0.0
C574 C 0.51719 0.08152 0.97658 0.0
C575 C 0.52708 0.08232 0.06345 0.0
C576 C 0.57607 0.06031 0.02852 0.0
C577 C 0.54285 0.01619 0.11291 0.0
C578 C 0.53197 0.02207 0.15849 0.0
C579 C 0.53557 0.0406 0.14565 0.0
C580 C 0.54085 0.03766 0.12302 0.0
C581 C 0.53987 0.99779 0.1258 0.0
C582 C 0.5344 1.00068 0.14848 0.0
C583 C 0.54653 0.01271 0.08849 0.0
H584 H 0.58369 0.09439 0.94233 0.0
H585 H 0.56331 0.09017 0.97614 0.0
H586 H 0.49935 0.08497 0.93315 0.0
H587 H 0.51979 0.08916 0.899 0.0
H588 H 0.53335 0.05714 0.15272 0.0
H589 H 0.54278 0.052 0.11321 0.0
H590 H 0.54124 0.98108 0.11815 0.0
H591 H 0.53172 0.98614 0.15805 0.0
Dy592 Dy 0.27827 0.27354 0.27325 0.0
Dy593 Dy 0.30777 0.32339 0.30103 0.0
C594 C 0.29681 0.2792 0.3281 0.0
O595 O 0.25171 0.28748 0.29023 0.0
O596 O 0.27059 0.3259 0.29914 0.0
O597 O 0.2497 0.24323 0.26996 0.0
O598 O 0.27218 0.24693 0.24339 0.0
O599 O 0.30475 0.32789 0.26336 0.0
O600 O 0.27306 0.29819 0.24864 0.0
O601 O 0.33472 0.30383 0.29578 0.0
O602 O 0.3148 0.2771 0.26491 0.0
O603 O 0.33822 0.35195 0.30514 0.0
O604 O 0.31302 0.35191 0.32878 0.0
C605 C 0.25155 0.30888 0.2974 0.0
O606 O 0.29149 0.26539 0.308 0.0
O607 O 0.30115 0.30165 0.32913 0.0
C608 C 0.25899 0.20998 0.25336 0.0
C609 C 0.27275 0.16932 0.2563 0.0
C610 C 0.2713 0.18351 0.27664 0.0
C611 C 0.26459 0.2037 0.27519 0.0
C612 C 0.259 0.19516 0.23302 0.0
C613 C 0.26589 0.17495 0.23446 0.0
C614 C 0.25588 0.23303 0.25174 0.0
C615 C 0.2883 0.31723 0.24633 0.0
C616 C 0.33454 0.28853 0.27764 0.0
C617 C 0.32992 0.38728 0.31702 0.0
C618 C 0.3174 0.42698 0.30661 0.0
C619 C 0.3251 0.41344 0.28958 0.0
C620 C 0.33116 0.39366 0.29467 0.0
C621 C 0.32437 0.40196 0.33462 0.0
C622 C 0.31809 0.42164 0.32946 0.0
C623 C 0.33104 0.36409 0.32125 0.0
H624 H 0.27686 0.17988 0.29371 0.0
H625 H 0.26494 0.21494 0.29118 0.0
H626 H 0.25478 0.19978 0.21603 0.0
H627 H 0.26677 0.16424 0.21853 0.0
H628 H 0.32517 0.41741 0.27194 0.0
H629 H 0.33551 0.38275 0.28073 0.0
H630 H 0.32337 0.39736 0.35197 0.0
H631 H 0.31213 0.43165 0.34294 0.0
Dy632 Dy 0.5519 0.52455 0.03417 0.0
Dy633 Dy 0.53739 0.57435 0.04033 0.0
C634 C 0.50275 0.52656 0.04637 0.0
O635 O 0.53292 0.52696 0.99956 0.0
O636 O 0.54167 0.56631 1.00291 0.0
O637 O 0.54162 0.48781 0.02224 0.0
O638 O 0.57587 0.50401 0.04039 0.0
O639 O 0.57551 0.58305 0.04173 0.0
O640 O 0.58068 0.54986 0.02215 0.0
O641 O 0.54238 0.56655 0.07719 0.0
O642 O 0.56465 0.5412 0.07101 0.0
O643 O 0.54405 0.61077 0.05332 0.0
O644 O 0.51307 0.59321 0.02979 0.0
C645 C 0.53447 0.54592 0.99009 0.0
O646 O 0.52065 0.51893 0.05193 0.0
O647 O 0.5049 0.54574 0.03731 0.0
C648 C 0.55761 0.46653 0.04772 0.0
C649 C 0.55137 0.43127 0.0765 0.0
C650 C 0.5421 0.45026 0.08091 0.0
C651 C 0.54522 0.46769 0.06672 0.0
C652 C 0.56704 0.44782 0.04333 0.0
C653 C 0.564 0.43041 0.05754 0.0
C654 C 0.56054 0.48456 0.03232 0.0
C655 C 0.58805 0.57207 0.0302 0.0
C656 C 0.55604 0.55442 0.08512 0.0
C657 C 0.53021 0.63192 0.02583 0.0
C658 C 0.53613 0.66723 0.99708 0.0
C659 C 0.55003 0.65171 0.99658 0.0
C660 C 0.54706 0.63423 0.01076 0.0
C661 C 0.51636 0.6473 0.02642 0.0
C662 C 0.51925 0.66472 0.01224 0.0
C663 C 0.5262 0.61306 0.04024 0.0
H664 H 0.53205 0.45149 0.09511 0.0
H665 H 0.53779 0.482 0.07045 0.0
H666 H 0.57676 0.44663 0.02885 0.0
H667 H 0.57176 0.41637 0.05376 0.0
H668 H 0.56337 0.65316 0.9854 0.0
H669 H 0.55787 0.62245 0.00989 0.0
H670 H 0.50308 0.64569 0.03771 0.0
H671 H 0.50791 0.67596 0.01289 0.0
Dy672 Dy 0.7963 0.32448 0.2784 0.0
Dy673 Dy 0.78762 0.27225 0.29199 0.0
C674 C 0.78121 0.31314 0.32691 0.0
O675 O 0.83241 0.31991 0.28444 0.0
O676 O 0.82459 0.29078 0.30687 0.0
O677 O 0.80972 0.36154 0.28785 0.0
O678 O 0.79032 0.34715 0.25389 0.0
O679 O 0.80703 0.27319 0.26174 0.0
O680 O 0.79422 0.30086 0.2454 0.0
O681 O 0.75385 0.27294 0.27142 0.0
O682 O 0.75791 0.31181 0.27883 0.0
O683 O 0.77566 0.23543 0.28121 0.0
O684 O 0.79047 0.24917 0.31707 0.0
C685 C 0.83956 0.30684 0.29865 0.0
O686 O 0.79632 0.32667 0.31668 0.0
O687 O 0.77229 0.2914 0.31818 0.0
C688 C 0.78413 0.3814 0.27247 0.0
C689 C 0.75578 0.41146 0.27987 0.0
C690 C 0.74642 0.3874 0.27673 0.0
C691 C 0.76047 0.37253 0.27316 0.0
C692 C 0.79356 0.40536 0.27562 0.0
C693 C 0.77954 0.42027 0.27932 0.0
C694 C 0.79905 0.36577 0.26899 0.0
C695 C 0.80323 0.28331 0.24373 0.0
C696 C 0.74474 0.29065 0.27207 0.0
C697 C 0.79907 0.21562 0.30009 0.0
C698 C 0.8282 0.18592 0.29632 0.0
C699 C 0.83557 0.20883 0.29193 0.0
C700 C 0.82113 0.22352 0.29378 0.0
C701 C 0.79167 0.19292 0.30466 0.0
C702 C 0.80609 0.1782 0.30282 0.0
C703 C 0.78361 0.23083 0.30125 0.0
H704 H 0.72828 0.38004 0.27735 0.0
H705 H 0.75282 0.35409 0.27099 0.0
H706 H 0.81177 0.41255 0.27523 0.0
H707 H 0.78725 0.43871 0.28145 0.0
H708 H 0.85234 0.21529 0.28662 0.0
H709 H 0.82709 0.241 0.29005 0.0
H710 H 0.7747 0.18655 0.30956 0.0
H711 H 0.79997 0.16079 0.30665 0.0
Dy712 Dy 0.02805 0.55831 0.51309 0.0
Dy713 Dy 0.0381 0.53068 0.55587 0.0
C714 C 0.03802 0.50865 0.50295 0.0
O715 O 0.99492 0.53283 0.51505 0.0
O716 O 1.00087 0.5291 0.55357 0.0
O717 O 0.01237 0.55852 0.47822 0.0
O718 O 0.03149 0.59059 0.49972 0.0
O719 O 0.04083 0.56719 0.5722 0.0
O720 O 0.01717 0.57645 0.544 0.0
O721 O 0.07081 0.54072 0.5411 0.0
O722 O 0.06508 0.57302 0.52787 0.0
O723 O 0.06136 0.52758 0.58504 0.0
O724 O 0.02815 0.50253 0.5756 0.0
C725 C 0.98709 0.52647 0.53406 0.0
O726 O 0.04181 0.52958 0.49717 0.0
O727 O 0.03188 0.50467 0.52344 0.0
C728 C 0.03491 0.58643 0.45978 0.0
C729 C 0.05923 0.59053 0.42135 0.0
C730 C 0.07086 0.59141 0.44367 0.0
C731 C 0.05877 0.58924 0.46272 0.0
C732 C 0.02341 0.58667 0.43777 0.0
C733 C 0.03549 0.58867 0.41862 0.0
C734 C 0.02169 0.58051 0.47888 0.0
C735 C 0.028 0.58048 0.5654 0.0
C736 C 0.07893 0.56104 0.53514 0.0
C737 C 0.04139 0.51494 0.61521 0.0
C738 C 0.03075 0.52341 0.66055 0.0
C739 C 0.03042 0.53958 0.64519 0.0
C740 C 0.0356 0.53533 0.62272 0.0
C741 C 0.04187 0.49872 0.6304 0.0
C742 C 0.03647 0.50289 0.653 0.0
C743 C 0.04624 0.51069 0.5913 0.0
H744 H 0.08907 0.59245 0.44621 0.0
H745 H 0.06791 0.58874 0.47955 0.0
H746 H 1.00496 0.58436 0.43522 0.0
H747 H 0.02618 0.58804 0.40158 0.0
H748 H 0.02554 0.55527 0.65034 0.0
H749 H 0.03484 0.54789 0.61108 0.0
H750 H 0.0462 0.48284 0.62474 0.0
H751 H 0.03675 0.49015 0.66453 0.0
Dy752 Dy 0.81702 0.7949 0.28989 0.0
Dy753 Dy 0.7679 0.81057 0.28498 0.0
C754 C 0.81601 0.84481 0.27933 0.0
O755 O 0.81451 0.81334 0.32506 0.0
O756 O 0.7753 0.80499 0.32184 0.0
O757 O 0.85359 0.80457 0.30226 0.0
O758 O 0.83717 0.77059 0.28298 0.0
O759 O 0.75863 0.77225 0.28082 0.0
O760 O 0.79074 0.76596 0.30059 0.0
O761 O 0.7759 0.8063 0.24804 0.0
O762 O 0.80122 0.78378 0.25261 0.0
O763 O 0.73172 0.80468 0.27226 0.0
O764 O 0.74946 0.83506 0.29682 0.0
C765 C 0.79553 0.81183 0.33466 0.0
O766 O 0.82353 0.82679 0.27341 0.0
O767 O 0.7968 0.84283 0.28847 0.0
C768 C 0.87564 0.78861 0.27686 0.0
C769 C 0.91256 0.79513 0.24964 0.0
C770 C 0.91658 0.80231 0.27393 0.0
C771 C 0.89838 0.79904 0.28732 0.0
C772 C 0.87146 0.78151 0.25261 0.0
C773 C 0.88968 0.78467 0.2392 0.0
C774 C 0.85666 0.78567 0.2915 0.0
C775 C 0.7688 0.759 0.29181 0.0
C776 C 0.78793 0.79273 0.23929 0.0
C777 C 0.71075 0.81796 0.30066 0.0
C778 C 0.67537 0.81123 0.32961 0.0
C779 C 0.69186 0.79844 0.33054 0.0
C780 C 0.70936 0.8018 0.31625 0.0
C781 C 0.69442 0.83072 0.29962 0.0
C782 C 0.67695 0.82742 0.3139 0.0
C783 C 0.7296 0.82233 0.28613 0.0
H784 H 0.9338 0.81079 0.28264 0.0
H785 H 0.90209 0.80481 0.30594 0.0
H786 H 0.85412 0.77347 0.24397 0.0
H787 H 0.8858 0.77862 0.22065 0.0
H788 H 0.69113 0.78564 0.34215 0.0
H789 H 0.72188 0.79183 0.31744 0.0
H790 H 0.6953 0.84345 0.2879 0.0
H791 H 0.66491 0.83791 0.3129 0.0
Dy792 Dy 0.81741 0.31048 0.7716 0.0
Dy793 Dy 0.78872 0.31797 0.81472 0.0
C794 C 0.82198 0.35938 0.79881 0.0
O795 O 0.83581 0.2988 0.80135 0.0
O796 O 0.82405 0.31834 0.83174 0.0
O797 O 0.83793 0.32463 0.74608 0.0
O798 O 0.83196 0.28837 0.74943 0.0
O799 O 0.78668 0.28048 0.80761 0.0
O800 O 0.78823 0.27921 0.76869 0.0
O801 O 0.76293 0.31527 0.78328 0.0
O802 O 0.78665 0.32034 0.75472 0.0
O803 O 0.7601 0.30711 0.83377 0.0
O804 O 0.78584 0.33962 0.84568 0.0
C805 C 0.838 0.3067 0.82369 0.0
O806 O 0.834 0.34509 0.79251 0.0
O807 O 0.80054 0.3514 0.8018 0.0
C808 C 0.83298 0.29866 0.71198 0.0
C809 C 0.82106 0.29492 0.66361 0.0
C810 C 0.80438 0.29522 0.67869 0.0
C811 C 0.8103 0.29697 0.70266 0.0
C812 C 0.84932 0.29678 0.69708 0.0
C813 C 0.84336 0.29475 0.67299 0.0
C814 C 0.8399 0.30454 0.73713 0.0
C815 C 0.78283 0.2688 0.78657 0.0
C816 C 0.76639 0.31884 0.76189 0.0
C817 C 0.77188 0.31755 0.87385 0.0
C818 C 0.77849 0.30332 0.91754 0.0
C819 C 0.79348 0.30098 0.90112 0.0
C820 C 0.79014 0.30796 0.87945 0.0
C821 C 0.75705 0.32032 0.89021 0.0
C822 C 0.76029 0.31317 0.91197 0.0
C823 C 0.76843 0.32422 0.85075 0.0
H824 H 0.78715 0.29573 0.67225 0.0
H825 H 0.79747 0.29829 0.71402 0.0
H826 H 0.86688 0.29788 0.70411 0.0
H827 H 0.85649 0.29415 0.66183 0.0
H828 H 0.80732 0.293 0.90469 0.0
H829 H 0.80162 0.30552 0.86689 0.0
H830 H 0.74289 0.32772 0.88607 0.0
H831 H 0.74851 0.31513 0.92435 0.0
Dy832 Dy 0.77433 0.77283 0.77388 0.0
Dy833 Dy 0.80352 0.82354 0.79914 0.0
C834 C 0.79269 0.78273 0.82845 0.0
O835 O 0.7464 0.79088 0.77932 0.0
O836 O 0.76689 0.82123 0.80688 0.0
O837 O 0.75807 0.73763 0.77709 0.0
O838 O 0.75533 0.74906 0.74344 0.0
O839 O 0.78873 0.82926 0.76412 0.0
O840 O 0.78459 0.79303 0.74509 0.0
O841 O 0.83005 0.80914 0.78246 0.0
O842 O 0.8114 0.77054 0.77436 0.0
O843 O 0.83082 0.85443 0.79999 0.0
O844 O 0.81117 0.85044 0.82893 0.0
C845 C 0.74696 0.80811 0.79567 0.0
O846 O 0.77487 0.77327 0.8125 0.0
O847 O 0.80935 0.79953 0.82409 0.0
C848 C 0.75897 0.71138 0.74532 0.0
C849 C 0.77872 0.67418 0.74235 0.0
C850 C 0.79101 0.69579 0.73764 0.0
C851 C 0.78122 0.71433 0.73923 0.0
C852 C 0.74579 0.68932 0.74748 0.0
C853 C 0.75559 0.67077 0.74596 0.0
C854 C 0.75175 0.73145 0.75478 0.0
C855 C 0.78634 0.81502 0.74467 0.0
C856 C 0.83027 0.78765 0.77562 0.0
C857 C 0.8225 0.88753 0.81848 0.0
C858 C 0.81038 0.92928 0.81766 0.0
C859 C 0.81058 0.91529 0.79675 0.0
C860 C 0.81646 0.89454 0.79714 0.0
C861 C 0.82332 0.90194 0.83938 0.0
C862 C 0.8172 0.92266 0.83899 0.0
C863 C 0.82611 0.86452 0.81916 0.0
H864 H 0.80892 0.69899 0.73503 0.0
H865 H 0.79173 0.73133 0.73774 0.0
H866 H 0.72864 0.68684 0.75234 0.0
H867 H 0.74571 0.65421 0.74943 0.0
H868 H 0.805 0.91976 0.78007 0.0
H869 H 0.81546 0.88365 0.78075 0.0
H870 H 0.82791 0.89677 0.856 0.0
H871 H 0.81721 0.9332 0.85533 0.0
Dy872 Dy 0.57248 0.57085 0.55488 0.0
Dy873 Dy 0.52286 0.54067 0.52761 0.0
C874 C 0.56629 0.5502 0.50072 0.0
O875 O 0.55409 0.59847 0.54931 0.0
O876 O 0.52561 0.57745 0.52035 0.0
O877 O 0.60347 0.59838 0.55622 0.0
O878 O 0.59958 0.57753 0.58391 0.0
O879 O 0.51435 0.55255 0.5629 0.0
O880 O 0.55059 0.56763 0.5834 0.0
O881 O 0.53593 0.51396 0.54473 0.0
O882 O 0.57418 0.53333 0.55368 0.0
O883 O 0.48849 0.51839 0.52585 0.0
O884 O 0.50137 0.52866 0.49443 0.0
C885 C 0.53766 0.59757 0.53224 0.0
O886 O 0.57583 0.56799 0.51682 0.0
O887 O 0.54862 0.53411 0.50449 0.0
C888 C 0.63527 0.58595 0.57067 0.0
C889 C 0.66879 0.56191 0.56543 0.0
C890 C 0.65487 0.56463 0.5458 0.0
C891 C 0.63819 0.57649 0.54839 0.0
C892 C 0.65053 0.58503 0.59009 0.0
C893 C 0.66731 0.5731 0.58748 0.0
C894 C 0.61384 0.59217 0.57408 0.0
C895 C 0.52816 0.56082 0.58265 0.0
C896 C 0.55728 0.51418 0.55215 0.0
C897 C 0.46278 0.52643 0.49745 0.0
C898 C 0.42288 0.5416 0.4899 0.0
C899 C 0.44458 0.55759 0.49592 0.0
C900 C 0.4643 0.55006 0.49972 0.0
C901 C 0.44135 0.51031 0.49065 0.0
C902 C 0.42145 0.51786 0.48689 0.0
C903 C 0.48341 0.51892 0.50371 0.0
H904 H 0.65595 0.55636 0.5286 0.0
H905 H 0.62654 0.57677 0.53311 0.0
H906 H 0.64837 0.59204 0.60743 0.0
H907 H 0.67787 0.57115 0.60285 0.0
H908 H 0.44628 0.57597 0.49894 0.0
H909 H 0.48069 0.56273 0.50522 0.0
H910 H 0.43995 0.49198 0.48889 0.0
H911 H 0.40494 0.50518 0.48224 0.0
Dy912 Dy 0.01669 0.54777 0.05012 0.0
Dy913 Dy 0.06942 0.55609 0.03682 0.0
C914 C 0.02944 0.56419 1.00255 0.0
O915 O 0.02084 0.51146 0.04275 0.0
O916 O 0.0506 0.51938 0.02083 0.0
O917 O 0.97993 0.53333 0.04071 0.0
O918 O 0.99339 0.55526 0.07372 0.0
O919 O 0.06738 0.53569 0.06607 0.0
O920 O 0.03854 0.54656 0.08293 0.0
O921 O 0.06894 0.58986 0.05812 0.0
O922 O 0.03024 0.58635 0.05118 0.0
O923 O 0.10605 0.5675 0.0481 0.0
O924 O 0.09302 0.55315 0.01196 0.0
C925 C 0.03421 0.50437 0.02859 0.0
O926 O 0.01551 0.54878 0.0121 0.0
O927 O 0.05119 0.57234 0.01124 0.0
C928 C 0.95874 0.55875 0.05434 0.0
C929 C 0.92792 0.5862 0.0471 0.0
C930 C 0.94985 0.59204 0.03984 0.0
C931 C 0.96509 0.57843 0.04339 0.0
C932 C 0.93688 0.55272 0.06143 0.0
C933 C 0.92159 0.56628 0.05782 0.0
C934 C 0.97506 0.54488 0.05893 0.0
C935 C 0.05598 0.5374 0.08377 0.0
C936 C 0.05147 0.59927 0.05781 0.0
C937 C 0.12605 0.54398 0.02894 0.0
C938 C 0.15547 0.51468 0.0331 0.0
C939 C 0.13169 0.50627 0.03365 0.0
C940 C 0.11713 0.52082 0.0317 0.0
C941 C 0.14966 0.55239 0.02812 0.0
C942 C 0.16425 0.5379 0.03018 0.0
C943 C 0.11101 0.55964 0.028 0.0
H944 H 0.95519 0.60707 0.03126 0.0
H945 H 0.9819 0.58332 0.03771 0.0
H946 H 0.93172 0.53764 0.06999 0.0
H947 H 0.90497 0.56141 0.06388 0.0
H948 H 0.1244 0.48858 0.03613 0.0
H949 H 0.09896 0.51407 0.03265 0.0
H950 H 0.15686 0.57023 0.02608 0.0
H951 H 0.18241 0.54487 0.02938 0.0
H952 H 0.99871 0.2009 0.95561 0.0
H953 H 0.0374 0.24022 0.01988 0.0
H954 H 1.00446 0.16556 0.96816 0.0
H955 H 0.04259 0.20468 0.03307 0.0
H956 H 0.06625 0.13919 0.04362 0.0
H957 H 0.06023 0.17491 0.03198 0.0
H958 H 0.99638 0.13616 0.98993 0.0
H959 H 1.00294 0.10052 1.00098 0.0
C960 C 1.00824 0.20206 0.97264 0.0
C961 C 0.01746 0.22379 0.98662 0.0
C962 C 1.0115 0.1815 0.98005 0.0
C963 C 0.02405 0.18154 1.00192 0.0
C964 C 0.03311 0.20338 0.01599 0.0
C965 C 0.02994 0.22401 0.00849 0.0
C966 C 0.05085 0.13821 0.03193 0.0
C967 C 0.03518 0.11651 0.02336 0.0
C968 C 0.04726 0.15897 0.02524 0.0
C969 C 0.02774 0.15912 0.0097 0.0
C970 C 0.01193 0.13735 1.00145 0.0
C971 C 0.0156 0.11661 0.00803 0.0
H972 H 0.16125 0.81472 0.14275 0.0
H973 H 0.1321 0.83939 0.20184 0.0
H974 H 0.19448 0.81216 0.16886 0.0
H975 H 0.16545 0.83746 0.22789 0.0
H976 H 0.21398 0.80688 0.27105 0.0
H977 H 0.18226 0.81088 0.24428 0.0
H978 H 0.22888 0.83152 0.19465 0.0
H979 H 0.26069 0.82691 0.22139 0.0
C980 C 0.16206 0.81993 0.16129 0.0
C981 C 0.14386 0.82724 0.17009 0.0
C982 C 0.18124 0.81853 0.17635 0.0
C983 C 0.18284 0.82438 0.20073 0.0
C984 C 0.16484 0.83228 0.20938 0.0
C985 C 0.14569 0.83363 0.19435 0.0
C986 C 0.2176 0.8123 0.25446 0.0
C987 C 0.24013 0.8166 0.24859 0.0
C988 C 0.19928 0.81479 0.23905 0.0
C989 C 0.20273 0.82174 0.21713 0.0
C990 C 0.22529 0.82594 0.21118 0.0
C991 C 0.24367 0.82342 0.22665 0.0
H992 H 0.53346 0.85923 0.5204 0.0
H993 H 0.5075 0.86701 0.45105 0.0
H994 H 0.53826 0.9006 0.5332 0.0
H995 H 0.51169 0.90794 0.4639 0.0
H996 H 0.50088 0.97608 0.50198 0.0
H997 H 0.49519 0.93445 0.49063 0.0
H998 H 0.56288 0.9399 0.52573 0.0
H999 H 0.5688 0.9815 0.53655 0.0
C1000 C 0.52862 0.86965 0.5079 0.0
C1001 C 0.52012 0.85954 0.48461 0.0
C1002 C 0.53146 0.89348 0.51522 0.0
C1003 C 0.52533 0.90789 0.49966 0.0
C1004 C 0.51644 0.89759 0.47652 0.0
C1005 C 0.51414 0.874 0.4691 0.0
C1006 C 0.51457 0.96845 0.50733 0.0
C1007 C 0.53536 0.98247 0.52017 0.0
C1008 C 0.51133 0.94448 0.50073 0.0
C1009 C 0.52854 0.93351 0.50722 0.0
C1010 C 0.54912 0.94748 0.52049 0.0
C1011 C 0.55256 0.97149 0.5266 0.0
H1012 H 0.50134 0.30852 0.6358 0.0
H1013 H 0.54975 0.33029 0.69896 0.0
H1014 H 0.46942 0.30301 0.65895 0.0
H1015 H 0.51792 0.32497 0.72208 0.0
H1016 H 0.45659 0.28674 0.75557 0.0
H1017 H 0.48821 0.29357 0.73239 0.0
H1018 H 0.44962 0.32414 0.6849 0.0
H1019 H 0.41806 0.31772 0.7083 0.0
C1020 C 0.50518 0.31228 0.65462 0.0
C1021 C 0.52813 0.31983 0.6655 0.0
C1022 C 0.48686 0.30921 0.66791 0.0
C1023 C 0.49102 0.31344 0.69245 0.0
C1024 C 0.51401 0.32122 0.70327 0.0
C1025 C 0.53229 0.32443 0.68999 0.0
C1026 C 0.45487 0.29522 0.74039 0.0
C1027 C 0.4346 0.30169 0.73398 0.0
C1028 C 0.47307 0.29909 0.72702 0.0
C1029 C 0.47156 0.30945 0.70673 0.0
C1030 C 0.45131 0.31585 0.70023 0.0
C1031 C 0.43314 0.31211 0.71368 0.0
H1032 H 0.04493 0.84593 0.68883 0.0
H1033 H 1.01017 0.79673 0.62839 0.0
H1034 H 0.05033 0.87689 0.66492 0.0
H1035 H 0.01483 0.82769 0.60455 0.0
H1036 H 0.04783 0.88348 0.56301 0.0
H1037 H 0.04228 0.85298 0.58722 0.0
H1038 H 0.03221 0.90027 0.64412 0.0
H1039 H 0.0391 0.93115 0.62031 0.0
C1040 C 0.03822 0.84175 0.67046 0.0
C1041 C 0.02715 0.81881 0.66055 0.0
C1042 C 0.0412 0.85956 0.6567 0.0
C1043 C 0.03309 0.85498 0.63263 0.0
C1044 C 0.02172 0.83199 0.62286 0.0
C1045 C 0.01887 0.81418 0.63659 0.0
C1046 C 0.04472 0.88754 0.58077 0.0
C1047 C 0.04404 0.91 0.58958 0.0
C1048 C 0.04118 0.86984 0.59463 0.0
C1049 C 0.0367 0.87394 0.61777 0.0
C1050 C 0.03587 0.89637 0.62654 0.0
C1051 C 0.03952 0.9141 0.6127 0.0
H1052 H 0.4699 0.79103 0.85795 0.0
H1053 H 0.48889 0.84543 0.81638 0.0
H1054 H 0.42933 0.78741 0.84583 0.0
H1055 H 0.448 0.84166 0.80385 0.0
H1056 H 0.37147 0.84398 0.80458 0.0
H1057 H 0.41264 0.84815 0.81546 0.0
H1058 H 0.39857 0.77458 0.81493 0.0
H1059 H 0.35769 0.77051 0.80446 0.0
C1060 C 0.46546 0.80213 0.84599 0.0
C1061 C 0.48298 0.81845 0.83813 0.0
C1062 C 0.44197 0.79998 0.83888 0.0
C1063 C 0.43488 0.81415 0.82366 0.0
C1064 C 0.45245 0.8305 0.81573 0.0
C1065 C 0.47605 0.83255 0.82277 0.0
C1066 C 0.37712 0.82866 0.80679 0.0
C1067 C 0.36086 0.8069 0.80366 0.0
C1068 C 0.40092 0.83104 0.81293 0.0
C1069 C 0.4094 0.81176 0.81632 0.0
C1070 C 0.39306 0.79002 0.81298 0.0
C1071 C 0.36938 0.78764 0.80678 0.0
H1072 H 0.52422 0.18245 0.18605 0.0
H1073 H 0.51621 0.21705 0.12639 0.0
H1074 H 0.52497 0.1478 0.16018 0.0
H1075 H 0.51759 0.18294 0.10066 0.0
H1076 H 0.50049 0.11234 0.05708 0.0
H1077 H 0.49772 0.1451 0.08395 0.0
H1078 H 0.54718 0.13119 0.13517 0.0
H1079 H 0.54943 0.09788 0.10838 0.0
C1080 C 0.52254 0.18267 0.16742 0.0
C1081 C 0.52001 0.20261 0.1584 0.0
C1082 C 0.52318 0.16281 0.15251 0.0
C1083 C 0.52133 0.16226 0.12809 0.0
C1084 C 0.51866 0.18226 0.1192 0.0
C1085 C 0.51798 0.20202 0.13405 0.0
C1086 C 0.51078 0.11616 0.07408 0.0
C1087 C 0.52527 0.10233 0.08036 0.0
C1088 C 0.50931 0.13519 0.08956 0.0
C1089 C 0.52234 0.14121 0.11191 0.0
C1090 C 0.53664 0.12716 0.11831 0.0
C1091 C 0.53806 0.10804 0.10281 0.0
H1092 H 0.1048 0.30251 0.31076 0.0
H1093 H 0.14309 0.35415 0.3677 0.0
H1094 H 0.14087 0.2984 0.29767 0.0
H1095 H 0.1792 0.34989 0.35495 0.0
H1096 H 0.24276 0.34976 0.31693 0.0
H1097 H 0.20658 0.35577 0.32829 0.0
H1098 H 0.1729 0.28376 0.30475 0.0
H1099 H 0.2087 0.27795 0.29318 0.0
C1100 C 0.12089 0.3131 0.32051 0.0
C1101 C 0.12066 0.32873 0.34037 0.0
C1102 C 0.14183 0.31061 0.31308 0.0
C1103 C 0.16356 0.32368 0.32513 0.0
C1104 C 0.16321 0.33958 0.3448 0.0
C1105 C 0.14228 0.34199 0.35227 0.0
C1106 C 0.22764 0.3352 0.31403 0.0
C1107 C 0.2291 0.31332 0.30395 0.0
C1108 C 0.20669 0.33861 0.32076 0.0
C1109 C 0.18622 0.32033 0.31759 0.0
C1110 C 0.18778 0.29855 0.30732 0.0
C1111 C 0.20865 0.29514 0.30073 0.0
H1112 H 1.01099 0.07514 0.22703 0.0
H1113 H 0.94993 0.0237 0.19278 0.0
H1114 H 0.02498 0.07895 0.18945 0.0
H1115 H 0.96413 0.02689 0.15536 0.0
H1116 H 0.98591 0.05131 0.08809 0.0
H1117 H 0.9714 0.05046 0.12566 0.0
H1118 H 0.04035 0.05958 0.16008 0.0
H1119 H 0.05485 0.06114 0.12286 0.0
C1120 C 1.00062 0.06453 0.21149 0.0
C1121 C 0.97937 0.04909 0.21296 0.0
C1122 C 1.00868 0.06662 0.18989 0.0
C1123 C 0.99575 0.05323 0.16915 0.0
C1124 C 0.97445 0.0378 0.17074 0.0
C1125 C 0.96637 0.03582 0.1923 0.0
C1126 C 0.998 0.05333 0.1037 0.0
C1127 C 0.02158 0.05631 0.1023 0.0
C1128 C 0.98965 0.05266 0.1253 0.0
C1129 C 1.00464 0.05488 0.14611 0.0
C1130 C 0.02825 0.05816 0.14464 0.0
C1131 C 0.03658 0.05891 0.12313 0.0
H1132 H 0.25589 0.67992 0.4925 0.0
H1133 H 0.29893 0.73581 0.5433 0.0
H1134 H 0.24749 0.70763 0.4682 0.0
H1135 H 0.29001 0.76366 0.51926 0.0
H1136 H 0.29676 0.79786 0.45164 0.0
H1137 H 0.30036 0.77476 0.48254 0.0
H1138 H 0.22839 0.73806 0.46483 0.0
H1139 H 0.22508 0.76061 0.4332 0.0
C1140 C 0.26335 0.69816 0.49856 0.0
C1141 C 0.27827 0.70575 0.5196 0.0
C1142 C 0.25833 0.71405 0.48479 0.0
C1143 C 0.26804 0.73784 0.49186 0.0
C1144 C 0.28246 0.74543 0.51326 0.0
C1145 C 0.28757 0.72951 0.527 0.0
C1146 C 0.28165 0.78507 0.45458 0.0
C1147 C 0.26075 0.78073 0.43982 0.0
C1148 C 0.28364 0.77199 0.47242 0.0
C1149 C 0.26473 0.75437 0.47589 0.0
C1150 C 0.24336 0.75125 0.46226 0.0
C1151 C 0.24138 0.76433 0.44435 0.0
H1152 H 0.66875 0.04001 0.68411 0.0
H1153 H 0.60982 0.01522 0.71909 0.0
H1154 H 0.64364 0.03516 0.64784 0.0
H1155 H 0.58442 0.00959 0.68231 0.0
H1156 H 0.55174 0.04484 0.62471 0.0
H1157 H 0.57212 0.03602 0.65943 0.0
H1158 H 0.61759 0.01092 0.61676 0.0
H1159 H 0.59789 0.02085 0.58255 0.0
C1160 C 0.65043 0.03289 0.68387 0.0
C1161 C 0.6412 0.0283 0.70444 0.0
C1162 C 0.63597 0.02993 0.66299 0.0
C1163 C 0.61194 0.02215 0.66218 0.0
C1164 C 0.60282 0.01597 0.68247 0.0
C1165 C 0.61736 0.01902 0.70346 0.0
C1166 C 0.56589 0.03714 0.62288 0.0
C1167 C 0.57378 0.0341 0.60128 0.0
C1168 C 0.57746 0.03188 0.64265 0.0
C1169 C 0.59678 0.02313 0.64092 0.0
C1170 C 0.60322 0.01825 0.61881 0.0
C1171 C 0.592 0.02394 0.59924 0.0
H1172 H 0.2851 0.3868 0.9654 0.0
H1173 H 0.31264 0.33313 0.98939 0.0
H1174 H 0.28629 0.37157 0.92537 0.0
H1175 H 0.31321 0.3172 0.94878 0.0
H1176 H 0.33159 0.31079 0.87198 0.0
H1177 H 0.33145 0.32364 0.91356 0.0
H1178 H 0.26698 0.34017 0.89664 0.0
H1179 H 0.2675 0.32821 0.85573 0.0
C1180 C 0.29118 0.37152 0.96212 0.0
C1181 C 0.29859 0.36111 0.98069 0.0
C1182 C 0.29177 0.36265 0.93902 0.0
C1183 C 0.2996 0.3429 0.9336 0.0
C1184 C 0.30718 0.33249 0.9522 0.0
C1185 C 0.30667 0.34149 0.97549 0.0
C1186 C 0.31741 0.31714 0.87725 0.0
C1187 C 0.29982 0.31887 0.86039 0.0
C1188 C 0.31726 0.32442 0.9011 0.0
C1189 C 0.29941 0.33341 0.90858 0.0
C1190 C 0.28141 0.33409 0.89167 0.0
C1191 C 0.28168 0.3271 0.86805 0.0
H1192 H 0.99681 0.01389 0.33577 0.0
H1193 H 0.98501 0.0802 0.35686 0.0
H1194 H 1.01005 0.01188 0.37636 0.0
H1195 H 0.9988 0.07858 0.39717 0.0
H1196 H 0.99492 0.05674 0.46822 0.0
H1197 H 0.98482 0.05813 0.42729 0.0
H1198 H 0.03894 0.02687 0.41046 0.0
H1199 H 0.04885 0.02498 0.45191 0.0
C1200 C 0.99745 0.02824 0.34901 0.0
C1201 C 0.9897 0.04715 0.34306 0.0
C1202 C 1.00509 0.02711 0.37232 0.0
C1203 C 1.00521 0.04489 0.39025 0.0
C1204 C 0.99843 0.06426 0.38402 0.0
C1205 C 0.99071 0.06532 0.36081 0.0
C1206 C 1.00472 0.05004 0.4559 0.0
C1207 C 0.02281 0.04079 0.46354 0.0
C1208 C 0.99901 0.05105 0.43229 0.0
C1209 C 1.01126 0.04298 0.41541 0.0
C1210 C 0.02905 0.0332 0.4229 0.0
C1211 C 0.03476 0.03213 0.44669 0.0
H1212 H 0.31152 0.66665 0.64574 0.0
H1213 H 0.33139 0.72699 0.61187 0.0
H1214 H 0.31288 0.6913 0.6823 0.0
H1215 H 0.33169 0.75163 0.64809 0.0
H1216 H 0.33332 0.79083 0.72051 0.0
H1217 H 0.3447 0.76755 0.68889 0.0
H1218 H 0.28484 0.71146 0.69107 0.0
H1219 H 0.27392 0.7342 0.72259 0.0
C1220 C 0.31671 0.68521 0.64629 0.0
C1221 C 0.32092 0.69494 0.62597 0.0
C1222 C 0.31731 0.69933 0.66713 0.0
C1223 C 0.32163 0.72337 0.66786 0.0
C1224 C 0.32822 0.7332 0.64811 0.0
C1225 C 0.32801 0.71906 0.62733 0.0
C1226 C 0.32262 0.77354 0.7141 0.0
C1227 C 0.30271 0.76436 0.72399 0.0
C1228 C 0.32919 0.76019 0.69611 0.0
C1229 C 0.31593 0.73749 0.68777 0.0
C1230 C 0.29589 0.72858 0.69754 0.0
C1231 C 0.28943 0.74178 0.71545 0.0
H1232 H 0.64429 0.10621 0.81049 0.0
H1233 H 0.62218 0.03391 0.81734 0.0
H1234 H 0.61833 0.11468 0.83759 0.0
H1235 H 0.59632 0.04243 0.84454 0.0
H1236 H 0.53878 0.06214 0.87768 0.0
H1237 H 0.56089 0.05655 0.8458 0.0
H1238 H 0.61726 0.11355 0.88027 0.0
H1239 H 0.59496 0.11943 0.91195 0.0
C1240 C 0.63379 0.09213 0.81771 0.0
C1241 C 0.63528 0.06941 0.81194 0.0
C1242 C 0.61901 0.097 0.83323 0.0
C1243 C 0.60534 0.07922 0.84309 0.0
C1244 C 0.60648 0.05643 0.83694 0.0
C1245 C 0.62138 0.05157 0.82154 0.0
C1246 C 0.55565 0.07384 0.87813 0.0
C1247 C 0.56523 0.09117 0.89728 0.0
C1248 C 0.56838 0.07047 0.86004 0.0
C1249 C 0.59083 0.08447 0.86073 0.0
C1250 C 0.59994 0.10258 0.87926 0.0
C1251 C 0.58726 0.10586 0.89743 0.0
H1252 H 0.3083 0.40091 0.13357 0.0
H1253 H 0.27986 0.33145 0.09761 0.0
H1254 H 0.30453 0.38706 0.1708 0.0
H1255 H 0.27686 0.31724 0.13512 0.0
H1256 H 0.25683 0.30106 0.20646 0.0
H1257 H 0.2578 0.31511 0.16884 0.0
H1258 H 0.32089 0.36723 0.19669 0.0
H1259 H 0.31942 0.35381 0.23424 0.0
C1260 C 0.30137 0.38259 0.13361 0.0
C1261 C 0.29449 0.3673 0.11254 0.0
C1262 C 0.29933 0.37456 0.15508 0.0
C1263 C 0.29058 0.35091 0.15626 0.0
C1264 C 0.28345 0.3356 0.13508 0.0
C1265 C 0.28531 0.34371 0.11351 0.0
C1266 C 0.27078 0.31567 0.2046 0.0
C1267 C 0.28798 0.32631 0.22355 0.0
C1268 C 0.27147 0.32362 0.18289 0.0
C1269 C 0.28943 0.3424 0.17947 0.0
C1270 C 0.30651 0.35305 0.19854 0.0
C1271 C 0.30574 0.34522 0.2202 0.0
H1272 H 0.26535 0.96621 0.0884 0.0
H1273 H 0.20673 0.93321 0.03624 0.0
H1274 H 0.24399 0.99203 0.10506 0.0
H1275 H 0.18549 0.95891 0.0528 0.0
H1276 H 0.14627 0.99824 0.09072 0.0
H1277 H 0.16842 0.96972 0.08809 0.0
H1278 H 0.23049 0.02423 0.08941 0.0
H1279 H 0.20823 0.05278 0.09228 0.0
C1280 C 0.24779 0.96424 0.08074 0.0
C1281 C 0.23768 0.94783 0.06095 0.0
C1282 C 0.23564 0.97904 0.09024 0.0
C1283 C 0.21311 0.97742 0.08028 0.0
C1284 C 0.20272 0.96032 0.06109 0.0
C1285 C 0.21492 0.94572 0.05147 0.0
C1286 C 0.16478 1.00411 0.09123 0.0
C1287 C 0.17562 0.02755 0.0914 0.0
C1288 C 0.1774 0.98783 0.08961 0.0
C1289 C 0.20105 0.99475 0.08808 0.0
C1290 C 0.21227 0.01844 0.09063 0.0
C1291 C 0.1996 0.03478 0.0923 0.0
H1292 H 0.73458 0.63288 0.03271 0.0
H1293 H 0.7021 0.67897 0.99957 0.0
H1294 H 0.69679 0.60631 0.03284 0.0
H1295 H 0.66443 0.65237 0.99951 0.0
H1296 H 0.60445 0.61881 0.03692 0.0
H1297 H 0.64187 0.64186 0.03124 0.0
H1298 H 0.66133 0.57992 0.00814 0.0
H1299 H 0.62349 0.55648 0.01406 0.0
C1300 C 0.7194 0.63717 0.02514 0.0
C1301 C 0.72129 0.65812 0.01633 0.0
C1302 C 0.69777 0.62188 0.02511 0.0
C1303 C 0.67761 0.62734 0.0164 0.0
C1304 C 0.67962 0.64784 0.00667 0.0
C1305 C 0.70121 0.66304 0.00661 0.0
C1306 C 0.6166 0.60996 0.03062 0.0
C1307 C 0.61094 0.58572 0.02607 0.0
C1308 C 0.63805 0.62326 0.02714 0.0
C1309 C 0.65454 0.61275 0.01909 0.0
C1310 C 0.64898 0.5885 0.01445 0.0
C1311 C 0.62731 0.5751 0.01776 0.0
H1312 H 0.70615 0.53334 0.30064 0.0
H1313 H 0.64342 0.47827 0.29176 0.0
H1314 H 0.72843 0.50527 0.29695 0.0
H1315 H 0.66592 0.44988 0.28866 0.0
H1316 H 0.71272 0.40768 0.25731 0.0
H1317 H 0.68884 0.43436 0.26271 0.0
H1318 H 0.74101 0.47752 0.31685 0.0
H1319 H 0.76494 0.45103 0.31119 0.0
C1320 C 0.69711 0.51518 0.29811 0.0
C1321 C 0.67299 0.50803 0.29651 0.0
C1322 C 0.70994 0.49903 0.29615 0.0
C1323 C 0.69905 0.47524 0.29263 0.0
C1324 C 0.67488 0.46805 0.29114 0.0
C1325 C 0.66198 0.48429 0.29305 0.0
C1326 C 0.71899 0.42277 0.27051 0.0
C1327 C 0.74084 0.42731 0.28369 0.0
C1328 C 0.70526 0.43805 0.27366 0.0
C1329 C 0.713 0.45821 0.29013 0.0
C1330 C 0.73465 0.46244 0.30366 0.0
C1331 C 0.74841 0.44724 0.30043 0.0
H1332 H 0.85024 0.4388 0.4879 0.0
H1333 H 0.84656 0.46527 0.55908 0.0
H1334 H 0.89014 0.46156 0.49182 0.0
H1335 H 0.88633 0.48858 0.56285 0.0
H1336 H 0.96537 0.50532 0.56767 0.0
H1337 H 0.92505 0.48408 0.56476 0.0
H1338 H 0.91247 0.50125 0.4956 0.0
H1339 H 0.95285 0.52196 0.49823 0.0
C1340 C 0.85796 0.44958 0.50435 0.0
C1341 C 0.84536 0.45026 0.5232 0.0
C1342 C 0.88075 0.46275 0.50655 0.0
C1343 C 0.89136 0.47697 0.52762 0.0
C1344 C 0.87872 0.4776 0.54648 0.0
C1345 C 0.85594 0.46434 0.5443 0.0
C1346 C 0.95397 0.5047 0.55191 0.0
C1347 C 0.96234 0.51518 0.53311 0.0
C1348 C 0.93084 0.4926 0.55028 0.0
C1349 C 0.91562 0.49084 0.52988 0.0
C1350 C 0.92387 0.50191 0.51137 0.0
C1351 C 0.94699 0.5139 0.51295 0.0
H1352 H 0.36887 0.08296 0.25783 0.0
H1353 H 0.36533 0.11177 0.32831 0.0
H1354 H 0.33723 0.09823 0.24355 0.0
H1355 H 0.334 0.12723 0.31403 0.0
H1356 H 0.26711 0.13745 0.28629 0.0
H1357 H 0.29325 0.11402 0.29575 0.0
H1358 H 0.33177 0.13702 0.2406 0.0
H1359 H 0.30578 0.1604 0.2312 0.0
C1360 C 0.36139 0.09264 0.27024 0.0
C1361 C 0.36958 0.09631 0.29416 0.0
C1362 C 0.34329 0.1013 0.26206 0.0
C1363 C 0.33303 0.11368 0.2777 0.0
C1364 C 0.34127 0.11733 0.30162 0.0
C1365 C 0.35939 0.10875 0.30978 0.0
C1366 C 0.28088 0.13707 0.2759 0.0
C1367 C 0.28459 0.15093 0.25821 0.0
C1368 C 0.29587 0.12377 0.28136 0.0
C1369 C 0.31475 0.12408 0.26918 0.0
C1370 C 0.3173 0.13639 0.25022 0.0
C1371 C 0.30234 0.14971 0.24478 0.0
H1372 H 0.36482 0.19995 0.53828 0.0
H1373 H 0.31191 0.13782 0.54133 0.0
H1374 H 0.39428 0.17921 0.54479 0.0
H1375 H 0.34112 0.11718 0.54757 0.0
H1376 H 0.39964 0.09277 0.58137 0.0
H1377 H 0.37221 0.11582 0.57723 0.0
H1378 H 0.4077 0.1478 0.52407 0.0
H1379 H 0.43505 0.12454 0.52798 0.0
C1380 C 0.3595 0.18191 0.54039 0.0
C1381 C 0.33606 0.17053 0.53931 0.0
C1382 C 0.37634 0.17001 0.54399 0.0
C1383 C 0.37005 0.14655 0.54677 0.0
C1384 C 0.34659 0.13531 0.54585 0.0
C1385 C 0.32983 0.14712 0.54212 0.0
C1386 C 0.40155 0.1046 0.56869 0.0
C1387 C 0.4195 0.10663 0.5549 0.0
C1388 C 0.38584 0.11787 0.56636 0.0
C1389 C 0.38768 0.13357 0.55023 0.0
C1390 C 0.40594 0.13605 0.53684 0.0
C1391 C 0.42163 0.12271 0.5391 0.0
H1392 H 0.65522 0.64372 0.30821 0.0
H1393 H 0.71109 0.61289 0.29791 0.0
H1394 H 0.68096 0.68182 0.30777 0.0
H1395 H 0.73668 0.65085 0.29691 0.0
H1396 H 0.78129 0.72587 0.31499 0.0
H1397 H 0.75667 0.68828 0.31971 0.0
H1398 H 0.69949 0.70235 0.27897 0.0
H1399 H 0.72363 0.73968 0.27466 0.0
C1400 C 0.673 0.64509 0.30589 0.0
C1401 C 0.68108 0.62531 0.30295 0.0
C1402 C 0.68774 0.6669 0.30553 0.0
C1403 C 0.71088 0.66939 0.30214 0.0
C1404 C 0.71906 0.64961 0.29979 0.0
C1405 C 0.70433 0.62783 0.30019 0.0
C1406 C 0.76347 0.7209 0.30706 0.0
C1407 C 0.75451 0.73585 0.29446 0.0
C1408 C 0.74937 0.69935 0.30971 0.0
C1409 C 0.72603 0.69236 0.29986 0.0
C1410 C 0.71722 0.70731 0.2872 0.0
C1411 C 0.73122 0.72872 0.28456 0.0
H1412 H 0.85849 0.50567 0.7944 0.0
H1413 H 0.90831 0.49823 0.84944 0.0
H1414 H 0.83979 0.4644 0.78981 0.0
H1415 H 0.8896 0.4568 0.84472 0.0
H1416 H 0.86771 0.3818 0.80335 0.0
H1417 H 0.88521 0.42343 0.81145 0.0
H1418 H 0.81792 0.43505 0.81303 0.0
H1419 H 0.80035 0.39353 0.80498 0.0
C1420 C 0.86529 0.49522 0.80565 0.0
C1421 C 0.88485 0.50505 0.82222 0.0
C1422 C 0.85456 0.47167 0.80308 0.0
C1423 C 0.86337 0.4575 0.81684 0.0
C1424 C 0.88264 0.46739 0.83377 0.0
C1425 C 0.89321 0.49105 0.83656 0.0
C1426 C 0.85666 0.39324 0.80541 0.0
C1427 C 0.83267 0.38444 0.80344 0.0
C1428 C 0.86669 0.41701 0.81024 0.0
C1429 C 0.85287 0.43234 0.8129 0.0
C1430 C 0.82891 0.42355 0.81093 0.0
C1431 C 0.8189 0.39981 0.80637 0.0
H1432 H 0.11272 0.89506 0.09507 0.0
H1433 H 0.03918 0.87131 0.09224 0.0
H1434 H 0.10868 0.93056 0.08094 0.0
H1435 H 0.03498 0.90691 0.07937 0.0
H1436 H 0.0279 0.96594 0.04095 0.0
H1437 H 0.03346 0.93036 0.05264 0.0
H1438 H 0.10261 0.96655 0.08462 0.0
H1439 H 0.09718 1.00206 0.07169 0.0
C1440 C 0.09562 0.89735 0.09145 0.0
C1441 C 0.0763 0.87985 0.09471 0.0
C1442 C 0.09322 0.91805 0.08347 0.0
C1443 C 0.07139 0.92236 0.07861 0.0
C1444 C 0.05216 0.90472 0.08208 0.0
C1445 C 0.05456 0.88401 0.08975 0.0
C1446 C 0.0444 0.96643 0.0504 0.0
C1447 C 0.062 0.98732 0.05524 0.0
C1448 C 0.0476 0.94575 0.05746 0.0
C1449 C 0.06849 0.94483 0.07017 0.0
C1450 C 0.08626 0.96581 0.07479 0.0
C1451 C 0.08312 0.98651 0.06739 0.0
H1452 H 0.93018 0.28528 0.94251 0.0
H1453 H 0.96831 0.28663 0.88392 0.0
H1454 H 0.89705 0.28985 0.91748 0.0
H1455 H 0.93584 0.29189 0.85922 0.0
H1456 H 0.8682 0.2811 0.81365 0.0
H1457 H 0.89899 0.27418 0.83951 0.0
H1458 H 0.88199 0.31584 0.89686 0.0
H1459 H 0.85053 0.32216 0.87094 0.0
C1460 C 0.9315 0.28647 0.92429 0.0
C1461 C 0.95196 0.28541 0.91529 0.0
C1462 C 0.91253 0.28932 0.90991 0.0
C1463 C 0.91346 0.29123 0.88608 0.0
C1464 C 0.934 0.29005 0.87722 0.0
C1465 C 0.95283 0.28714 0.89152 0.0
C1466 C 0.87093 0.28882 0.83177 0.0
C1467 C 0.8568 0.30238 0.84001 0.0
C1468 C 0.88882 0.28495 0.8467 0.0
C1469 C 0.89343 0.2946 0.87046 0.0
C1470 C 0.87904 0.30788 0.87882 0.0
C1471 C 0.861 0.31168 0.86384 0.0
H1472 H 0.55624 0.24053 0.62642 0.0
H1473 H 0.59134 0.25712 0.56749 0.0
H1474 H 0.55261 0.19986 0.6148 0.0
H1475 H 0.58698 0.21589 0.55509 0.0
H1476 H 0.59296 0.1405 0.54911 0.0
H1477 H 0.59766 0.18184 0.56023 0.0
H1478 H 0.53428 0.16641 0.5903 0.0
H1479 H 0.53017 0.12541 0.57999 0.0
C1480 C 0.563 0.23551 0.61072 0.0
C1481 C 0.57402 0.25247 0.59794 0.0
C1482 C 0.56075 0.21186 0.60386 0.0
C1483 C 0.56926 0.20389 0.58371 0.0
C1484 C 0.58032 0.22092 0.57083 0.0
C1485 C 0.58269 0.24475 0.57784 0.0
C1486 C 0.58009 0.14591 0.55825 0.0
C1487 C 0.56129 0.12921 0.56378 0.0
C1488 C 0.58268 0.16984 0.56451 0.0
C1489 C 0.56649 0.17811 0.57646 0.0
C1490 C 0.54759 0.16127 0.58171 0.0
C1491 C 0.54511 0.13744 0.57562 0.0
H1492 H 0.59328 0.8123 0.44542 0.0
H1493 H 0.54434 0.77583 0.38565 0.0
H1494 H 0.62424 0.81688 0.42108 0.0
H1495 H 0.57519 0.77975 0.3615 0.0
H1496 H 0.63028 0.81179 0.31885 0.0
H1497 H 0.60018 0.80739 0.34383 0.0
H1498 H 0.64733 0.79735 0.39989 0.0
H1499 H 0.67785 0.80294 0.3752 0.0
C1500 C 0.58916 0.8051 0.42713 0.0
C1501 C 0.5663 0.79378 0.41749 0.0
C1502 C 0.60694 0.80761 0.41315 0.0
C1503 C 0.60234 0.7988 0.38917 0.0
C1504 C 0.57946 0.78718 0.37971 0.0
C1505 C 0.56172 0.78478 0.39364 0.0
C1506 C 0.63439 0.80891 0.33658 0.0
C1507 C 0.65667 0.80782 0.3449 0.0
C1508 C 0.61695 0.80606 0.35088 0.0
C1509 C 0.62114 0.8019 0.37399 0.0
C1510 C 0.64341 0.80075 0.38232 0.0
C1511 C 0.6609 0.80366 0.36801 0.0
H1512 H 0.04382 0.24808 0.37949 0.0
H1513 H 0.06188 0.29794 0.44218 0.0
H1514 H 0.03891 0.21673 0.40311 0.0
H1515 H 0.05722 0.26676 0.46573 0.0
H1516 H 0.0217 0.20584 0.50035 0.0
H1517 H 0.02694 0.2364 0.47615 0.0
H1518 H 0.06016 0.19842 0.42985 0.0
H1519 H 0.05524 0.16788 0.45428 0.0
C1520 C 0.04686 0.25236 0.3983 0.0
C1521 C 0.05321 0.27555 0.40891 0.0
C1522 C 0.04414 0.23438 0.41187 0.0
C1523 C 0.04755 0.23912 0.4364 0.0
C1524 C 0.05409 0.26236 0.44693 0.0
C1525 C 0.05692 0.2803 0.4334 0.0
C1526 C 0.03038 0.20402 0.48518 0.0
C1527 C 0.03815 0.18427 0.47949 0.0
C1528 C 0.03335 0.22162 0.47122 0.0
C1529 C 0.04409 0.22003 0.45102 0.0
C1530 C 0.05159 0.20017 0.4451 0.0
C1531 C 0.04872 0.18259 0.45915 0.0
H1532 H 0.59595 0.28576 0.26573 0.0
H1533 H 0.60489 0.26006 0.19617 0.0
H1534 H 0.63705 0.29031 0.27871 0.0
H1535 H 0.6455 0.26404 0.20914 0.0
H1536 H 0.71271 0.25272 0.24608 0.0
H1537 H 0.67136 0.24739 0.23484 0.0
H1538 H 0.6767 0.3146 0.2724 0.0
H1539 H 0.71808 0.32014 0.28322 0.0
C1540 C 0.60655 0.28089 0.25323 0.0
C1541 C 0.59685 0.27252 0.22983 0.0
C1542 C 0.63024 0.28361 0.26064 0.0
C1543 C 0.64489 0.27752 0.24505 0.0
C1544 C 0.63498 0.26876 0.2218 0.0
C1545 C 0.61155 0.26655 0.21432 0.0
C1546 C 0.70513 0.26639 0.25201 0.0
C1547 C 0.71907 0.28692 0.26557 0.0
C1548 C 0.68131 0.26336 0.24546 0.0
C1549 C 0.67037 0.28053 0.25266 0.0
C1550 C 0.68424 0.30086 0.26661 0.0
C1551 C 0.70814 0.3041 0.27272 0.0
H1552 H 0.56116 0.88028 0.94274 0.0
H1553 H 0.54501 0.90951 0.88123 0.0
H1554 H 0.5566 0.9138 0.96721 0.0
H1555 H 0.53962 0.94292 0.90572 0.0
H1556 H 0.55003 0.0096 0.9578 0.0
H1557 H 0.55628 0.97728 0.9324 0.0
H1558 H 0.52884 0.93113 0.97994 0.0
H1559 H 0.52335 0.9634 0.0055 0.0
C1560 C 0.55662 0.8939 0.9344 0.0
C1561 C 0.55346 0.89208 0.90994 0.0
C1562 C 0.55376 0.91315 0.94849 0.0
C1563 C 0.5474 0.93124 0.93866 0.0
C1564 C 0.54469 0.92961 0.91412 0.0
C1565 C 0.54771 0.91034 0.89999 0.0
C1566 C 0.54528 0.99254 0.96281 0.0
C1567 C 0.53624 0.98929 0.98387 0.0
C1568 C 0.54879 0.97388 0.94813 0.0
C1569 C 0.5433 0.95134 0.95399 0.0
C1570 C 0.53387 0.94815 0.97489 0.0
C1571 C 0.5305 0.96676 0.98957 0.0
H1572 H 0.97629 0.79178 0.76106 0.0
H1573 H 0.93704 0.74324 0.70219 0.0
H1574 H 0.94052 0.79618 0.77476 0.0
H1575 H 0.90126 0.74771 0.71563 0.0
H1576 H 0.83839 0.74692 0.755 0.0
H1577 H 0.87426 0.74072 0.74298 0.0
H1578 H 0.90893 0.81221 0.76809 0.0
H1579 H 0.87335 0.81826 0.78021 0.0
C1580 C 0.96006 0.78192 0.75102 0.0
C1581 C 0.95991 0.76709 0.73043 0.0
C1582 C 0.93932 0.78458 0.75882 0.0
C1583 C 0.91746 0.77242 0.74644 0.0
C1584 C 0.9174 0.75729 0.72602 0.0
C1585 C 0.93813 0.75477 0.71816 0.0
C1586 C 0.85366 0.76133 0.75811 0.0
C1587 C 0.85255 0.78314 0.76876 0.0
C1588 C 0.87441 0.75781 0.75101 0.0
C1589 C 0.89504 0.7759 0.75441 0.0
C1590 C 0.89387 0.7976 0.7653 0.0
C1591 C 0.87316 0.80114 0.7722 0.0
H1592 H 0.14563 0.06454 0.88025 0.0
H1593 H 0.07584 0.03747 0.8458 0.0
H1594 H 0.13217 0.0617 0.91793 0.0
H1595 H 0.06211 0.03517 0.8838 0.0
H1596 H 0.04792 0.01523 0.95617 0.0
H1597 H 0.06096 0.01569 0.91782 0.0
H1598 H 0.11232 0.07987 0.94383 0.0
H1599 H 0.09978 0.07909 0.98202 0.0
C1600 C 0.12734 0.05807 0.88071 0.0
C1601 C 0.11182 0.05135 0.85994 0.0
C1602 C 0.11956 0.05655 0.90242 0.0
C1603 C 0.09596 0.04839 0.90412 0.0
C1604 C 0.08042 0.04135 0.88327 0.0
C1605 C 0.08826 0.0428 0.86146 0.0
C1606 C 0.06209 0.02936 0.95373 0.0
C1607 C 0.07283 0.04705 0.97234 0.0
C1608 C 0.06947 0.02972 0.93163 0.0
C1609 C 0.0878 0.04778 0.92757 0.0
C1610 C 0.09846 0.06543 0.94625 0.0
C1611 C 0.09114 0.06505 0.96824 0.0
H1612 H 0.81482 0.35534 0.53547 0.0
H1613 H 0.75802 0.36098 0.57288 0.0
H1614 H 0.82353 0.32776 0.56004 0.0
H1615 H 0.76671 0.33341 0.59737 0.0
H1616 H 0.78085 0.27708 0.63336 0.0
H1617 H 0.7698 0.29207 0.59806 0.0
H1618 H 0.83889 0.33597 0.60314 0.0
H1619 H 0.84976 0.32183 0.63859 0.0
C1620 C 0.80398 0.3504 0.54869 0.0
C1621 C 0.78594 0.36049 0.55254 0.0
C1622 C 0.80895 0.33461 0.56267 0.0
C1623 C 0.79577 0.32847 0.58053 0.0
C1624 C 0.77694 0.33761 0.5835 0.0
C1625 C 0.77212 0.35357 0.56968 0.0
C1626 C 0.79379 0.28963 0.6267 0.0
C1627 C 0.81606 0.2986 0.63911 0.0
C1628 C 0.78746 0.2981 0.60648 0.0
C1629 C 0.80343 0.31536 0.59813 0.0
C1630 C 0.82628 0.32254 0.60912 0.0
C1631 C 0.83252 0.31432 0.62947 0.0
H1632 H 0.43289 0.09027 0.40253 0.0
H1633 H 0.4912 0.10165 0.3643 0.0
H1634 H 0.45837 0.09292 0.43825 0.0
H1635 H 0.51691 0.10464 0.40029 0.0
H1636 H 0.53914 0.0612 0.45646 0.0
H1637 H 0.52116 0.07341 0.42256 0.0
H1638 H 0.4899 0.1148 0.46773 0.0
H1639 H 0.50736 0.1022 0.50149 0.0
C1640 C 0.45126 0.09411 0.40192 0.0
C1641 C 0.46005 0.09537 0.38065 0.0
C1642 C 0.46591 0.09573 0.42242 0.0
C1643 C 0.48962 0.09863 0.42198 0.0
C1644 C 0.49865 0.10201 0.40103 0.0
C1645 C 0.48397 0.10049 0.3805 0.0
C1646 C 0.52872 0.07316 0.45913 0.0
C1647 C 0.52421 0.0803 0.48152 0.0
C1648 C 0.51859 0.08035 0.43975 0.0
C1649 C 0.50395 0.09492 0.44251 0.0
C1650 C 0.50079 0.10328 0.46506 0.0
C1651 C 0.51075 0.09599 0.48437 0.0
H1652 H 0.81931 0.76729 0.09637 0.0
H1653 H 0.74846 0.72929 0.09472 0.0
H1654 H 0.82017 0.78399 0.13692 0.0
H1655 H 0.74928 0.74599 0.13509 0.0
H1656 H 0.75435 0.79412 0.20407 0.0
H1657 H 0.75309 0.7829 0.16198 0.0
H1658 H 0.8189 0.76799 0.17445 0.0
H1659 H 0.82011 0.77897 0.21612 0.0
C1660 C 0.80384 0.76275 0.10453 0.0
C1661 C 0.78386 0.74689 0.0923 0.0
C1662 C 0.80435 0.77221 0.12782 0.0
C1663 C 0.78481 0.76628 0.13935 0.0
C1664 C 0.76458 0.75112 0.12676 0.0
C1665 C 0.76415 0.74145 0.10362 0.0
C1666 C 0.7686 0.78861 0.19777 0.0
C1667 C 0.78723 0.7873 0.21355 0.0
C1668 C 0.76785 0.78208 0.17367 0.0
C1669 C 0.78592 0.77456 0.16478 0.0
C1670 C 0.8048 0.77391 0.18057 0.0
C1671 C 0.80537 0.78004 0.20456 0.0
H1672 H 0.11041 0.02261 0.71492 0.0
H1673 H 0.08996 0.08422 0.73679 0.0
H1674 H 0.0951 0.02299 0.67482 0.0
H1675 H 0.07409 0.0844 0.69645 0.0
H1676 H 0.0729 0.09026 0.6169 0.0
H1677 H 0.0857 0.0909 0.65829 0.0
H1678 H 0.0599 0.0167 0.64964 0.0
H1679 H 0.04768 0.016 0.60862 0.0
C1680 C 0.10235 0.03609 0.71121 0.0
C1681 C 0.10133 0.05331 0.72914 0.0
C1682 C 0.09345 0.03628 0.68815 0.0
C1683 C 0.08322 0.05369 0.68225 0.0
C1684 C 0.08202 0.07085 0.70024 0.0
C1685 C 0.09092 0.07063 0.72342 0.0
C1686 C 0.06984 0.07412 0.6239 0.0
C1687 C 0.05944 0.05309 0.60926 0.0
C1688 C 0.0771 0.07448 0.64768 0.0
C1689 C 0.07412 0.05381 0.65738 0.0
C1690 C 0.06302 0.03293 0.64281 0.0
C1691 C 0.05586 0.03256 0.61918 0.0
H1692 H 0.74066 0.34606 0.46062 0.0
H1693 H 0.75352 0.41023 0.43231 0.0
H1694 H 0.74198 0.32542 0.42264 0.0
H1695 H 0.75386 0.38945 0.39401 0.0
H1696 H 0.79935 0.35595 0.35149 0.0
H1697 H 0.78524 0.37409 0.38395 0.0
H1698 H 0.7298 0.31236 0.38102 0.0
H1699 H 0.74434 0.2938 0.34842 0.0
C1700 C 0.74279 0.35561 0.44603 0.0
C1701 C 0.7476 0.37979 0.44944 0.0
C1702 C 0.74349 0.34376 0.42423 0.0
C1703 C 0.74875 0.35594 0.40554 0.0
C1704 C 0.75051 0.37973 0.40833 0.0
C1705 C 0.75013 0.39161 0.43018 0.0
C1706 C 0.78414 0.34616 0.35769 0.0
C1707 C 0.77304 0.32338 0.34747 0.0
C1708 C 0.77583 0.35671 0.37613 0.0
C1709 C 0.75611 0.34482 0.38477 0.0
C1710 C 0.745 0.32195 0.37467 0.0
C1711 C 0.75339 0.31131 0.35613 0.0
H1712 H 0.45777 0.01477 0.2794 0.0
H1713 H 0.46978 0.084 0.26234 0.0
H1714 H 0.48218 1.00566 0.25093 0.0
H1715 H 0.4938 0.07477 0.23355 0.0
H1716 H 0.54819 0.05783 0.19421 0.0
H1717 H 0.5302 0.06533 0.22885 0.0
H1718 H 0.47861 1.00019 0.20839 0.0
H1719 H 0.49667 0.99268 0.17394 0.0
C1720 C 0.46569 0.02802 0.26963 0.0
C1721 C 0.4618 0.05002 0.27293 0.0
C1722 C 0.47962 0.02283 0.2533 0.0
C1723 C 0.48989 0.0395 0.24002 0.0
C1724 C 0.48641 0.06168 0.24378 0.0
C1725 C 0.4725 0.06687 0.2601 0.0
C1726 C 0.5332 0.045 0.19736 0.0
C1727 C 0.52369 0.02477 0.18134 0.0
C1728 C 0.52289 0.04931 0.2171 0.0
C1729 C 0.50285 0.03348 0.22115 0.0
C1730 C 0.49416 0.01262 0.20586 0.0
C1731 C 0.50451 1.00829 0.18613 0.0
H1732 H 0.7553 0.74289 0.96134 0.0
H1733 H 0.82651 0.74192 0.96478 0.0
H1734 H 0.75672 0.75553 0.92312 0.0
H1735 H 0.82793 0.75446 0.92643 0.0
H1736 H 0.8268 0.79802 0.86609 0.0
H1737 H 0.82654 0.78698 0.90511 0.0
H1738 H 0.75932 0.73965 0.88332 0.0
H1739 H 0.75946 0.75077 0.84449 0.0
C1740 C 0.77133 0.74556 0.95403 0.0
C1741 C 0.79079 0.74139 0.96618 0.0
C1742 C 0.7721 0.75262 0.93198 0.0
C1743 C 0.7924 0.75588 0.9215 0.0
C1744 C 0.81205 0.7523 0.93396 0.0
C1745 C 0.81122 0.74504 0.95595 0.0
C1746 C 0.81199 0.78519 0.86958 0.0
C1747 C 0.79314 0.77535 0.85204 0.0
C1748 C 0.81188 0.7788 0.89198 0.0
C1749 C 0.79285 0.7625 0.89752 0.0
C1750 C 0.77412 0.75252 0.87988 0.0
C1751 C 0.77429 0.7588 0.85749 0.0
H1752 H 0.81548 0.10857 0.99793 0.0
H1753 H 0.83949 0.11183 0.07091 0.0
H1754 H 0.83666 0.08031 0.98786 0.0
H1755 H 0.86121 0.08413 0.06086 0.0
H1756 H 0.88609 0.02283 0.03921 0.0
H1757 H 0.85757 0.04429 0.04561 0.0
H1758 H 0.87647 0.08053 0.98789 0.0
H1759 H 0.90456 0.05885 0.98134 0.0
C1760 C 0.82536 0.10329 0.01179 0.0
C1761 C 0.82601 0.11247 0.03518 0.0
C1762 C 0.83748 0.08713 0.00604 0.0
C1763 C 0.85056 0.07996 0.02355 0.0
C1764 C 0.85095 0.08898 0.04698 0.0
C1765 C 0.83873 0.10503 0.05273 0.0
C1766 C 0.88378 0.0351 0.02767 0.0
C1767 C 0.89758 0.03932 0.00988 0.0
C1768 C 0.86759 0.04745 0.03139 0.0
C1769 C 0.86502 0.06433 0.01747 0.0
C1770 C 0.87786 0.0675 0.99879 0.0
C1771 C 0.89395 0.05506 0.995 0.0
H1772 H 0.35867 0.46906 0.06364 0.0
H1773 H 0.38499 0.41028 0.04564 0.0
H1774 H 0.39665 0.49494 0.06341 0.0
H1775 H 0.42293 0.43618 0.04494 0.0
H1776 H 0.4928 0.48748 0.06677 0.0
H1777 H 0.45517 0.46283 0.07005 0.0
H1778 H 0.42268 0.5084 0.03595 0.0
H1779 H 0.46048 0.53345 0.03306 0.0
C1780 C 0.3726 0.46166 0.05968 0.0
C1781 C 0.36885 0.43762 0.05468 0.0
C1782 C 0.39434 0.47652 0.05939 0.0
C1783 C 0.41285 0.46768 0.05408 0.0
C1784 C 0.40914 0.44358 0.04938 0.0
C1785 C 0.38738 0.42872 0.04969 0.0
C1786 C 0.47767 0.49239 0.06008 0.0
C1787 C 0.47971 0.51247 0.04958 0.0
C1788 C 0.45605 0.47812 0.06183 0.0
C1789 C 0.43586 0.4835 0.05311 0.0
C1790 C 0.43787 0.50384 0.04305 0.0
C1791 C 0.45955 0.51818 0.04132 0.0
H1792 H 0.43407 0.61872 0.8079 0.0
H1793 H 0.38112 0.57195 0.757 0.0
H1794 H 0.40966 0.64512 0.812 0.0
H1795 H 0.35694 0.59844 0.76074 0.0
H1796 H 0.30976 0.63781 0.79289 0.0
H1797 H 0.33484 0.61222 0.7888 0.0
H1798 H 0.39315 0.67116 0.79133 0.0
H1799 H 0.3682 0.69682 0.79628 0.0
C1800 C 0.4173 0.61418 0.79745 0.0
C1801 C 0.4095 0.59323 0.78218 0.0
C1802 C 0.40334 0.62934 0.79972 0.0
C1803 C 0.38125 0.62387 0.78679 0.0
C1804 C 0.37366 0.60304 0.77126 0.0
C1805 C 0.38761 0.58792 0.76899 0.0
C1806 C 0.32797 0.64534 0.7928 0.0
C1807 C 0.33693 0.66939 0.79492 0.0
C1808 C 0.34232 0.63064 0.79017 0.0
C1809 C 0.36603 0.63961 0.78965 0.0
C1810 C 0.37502 0.66367 0.79186 0.0
C1811 C 0.36066 0.67837 0.79443 0.0
H1812 H 0.21502 0.65266 0.57755 0.0
H1813 H 0.22791 0.59017 0.54483 0.0
H1814 H 0.17373 0.63424 0.5705 0.0
H1815 H 0.18661 0.57188 0.53748 0.0
H1816 H 0.11217 0.5408 0.54985 0.0
H1817 H 0.15347 0.55819 0.55807 0.0
H1818 H 0.14404 0.62116 0.53574 0.0
H1819 H 0.10255 0.60392 0.5278 0.0
C1820 C 0.20903 0.63492 0.56906 0.0
C1821 C 0.22462 0.62284 0.56169 0.0
C1822 C 0.18541 0.62447 0.56482 0.0
C1823 C 0.17699 0.60174 0.55321 0.0
C1824 C 0.19264 0.58939 0.54657 0.0
C1825 C 0.21626 0.59986 0.55076 0.0
C1826 C 0.11887 0.55832 0.54655 0.0
C1827 C 0.10407 0.57103 0.53826 0.0
C1828 C 0.14255 0.56823 0.55122 0.0
C1829 C 0.15192 0.59106 0.54771 0.0
C1830 C 0.13721 0.60364 0.53897 0.0
C1831 C 0.11349 0.5937 0.53424 0.0
H1832 H 0.7301 1.00527 0.75322 0.0
H1833 H 0.72716 0.02825 0.82556 0.0
H1834 H 0.75784 0.98447 0.76497 0.0
H1835 H 0.7554 1.00777 0.83738 0.0
H1836 H 0.77856 0.94005 0.84338 0.0
H1837 H 0.75637 0.96759 0.83652 0.0
H1838 H 0.79738 0.99061 0.78307 0.0
H1839 H 0.81943 0.96278 0.78979 0.0
C1840 C 0.7355 1.00596 0.77164 0.0
C1841 C 0.72641 0.01823 0.78849 0.0
C1842 C 0.75158 0.99427 0.77838 0.0
C1843 C 0.75895 0.99468 0.8021 0.0
C1844 C 0.74994 1.00708 0.81897 0.0
C1845 C 0.7338 0.01877 0.81222 0.0
C1846 C 0.78327 0.95148 0.83066 0.0
C1847 C 0.80052 0.94917 0.81693 0.0
C1848 C 0.77054 0.96724 0.8267 0.0
C1849 C 0.77491 0.98097 0.80899 0.0
C1850 C 0.79331 0.97985 0.79647 0.0
C1851 C 0.80598 0.96404 0.80037 0.0
H1852 H 0.72441 0.90494 0.52301 0.0
H1853 H 0.77747 0.96601 0.55483 0.0
H1854 H 0.69741 0.9285 0.5174 0.0
H1855 H 0.75055 0.98934 0.5499 0.0
H1856 H 0.70498 0.02894 0.51735 0.0
H1857 H 0.73079 1.0042 0.52054 0.0
H1858 H 0.67592 0.95072 0.53831 0.0
H1859 H 0.64972 0.97504 0.53388 0.0
C1860 C 0.73026 0.92336 0.52889 0.0
C1861 C 0.75308 0.93362 0.53927 0.0
C1862 C 0.71478 0.93686 0.5258 0.0
C1863 C 0.7218 0.96089 0.53308 0.0
C1864 C 0.74461 0.971 0.54364 0.0
C1865 C 0.76004 0.95757 0.54662 0.0
C1866 C 0.69828 0.01179 0.5216 0.0
C1867 C 0.67523 1.00407 0.52539 0.0
C1868 C 0.7132 0.99767 0.52374 0.0
C1869 C 0.70553 0.97547 0.52987 0.0
C1870 C 0.68241 0.96762 0.53339 0.0
C1871 C 0.66744 0.98173 0.53116 0.0
H1872 H 0.37421 0.48639 0.75491 0.0
H1873 H 0.42985 0.46378 0.78822 0.0
H1874 H 0.34824 0.44798 0.75333 0.0
H1875 H 0.40389 0.42589 0.78772 0.0
H1876 H 0.35984 0.35433 0.76773 0.0
H1877 H 0.38386 0.39193 0.7636 0.0
H1878 H 0.32793 0.42216 0.77633 0.0
H1879 H 0.30344 0.38391 0.77921 0.0
C1880 C 0.38086 0.47319 0.76193 0.0
C1881 C 0.40408 0.47802 0.77156 0.0
C1882 C 0.36594 0.45122 0.76119 0.0
C1883 C 0.37388 0.43366 0.7703 0.0
C1884 C 0.39718 0.43868 0.78 0.0
C1885 C 0.4121 0.4605 0.78044 0.0
C1886 C 0.35261 0.369 0.76942 0.0
C1887 C 0.32987 0.3663 0.77402 0.0
C1888 C 0.36645 0.39063 0.76724 0.0
C1889 C 0.3581 0.4103 0.77013 0.0
C1890 C 0.33497 0.40743 0.77386 0.0
C1891 C 0.32091 0.38556 0.77558 0.0
H1892 H 0.24522 0.61577 0.2963 0.0
H1893 H 0.20119 0.62279 0.23599 0.0
H1894 H 0.26392 0.65708 0.30166 0.0
H1895 H 0.21958 0.66409 0.24159 0.0
H1896 H 0.26952 0.73489 0.24819 0.0
H1897 H 0.25587 0.693 0.2408 0.0
H1898 H 0.25118 0.69168 0.31409 0.0
H1899 H 0.26524 0.73362 0.32164 0.0
C1900 C 0.23975 0.6261 0.28405 0.0
C1901 C 0.22168 0.61617 0.26583 0.0
C1902 C 0.25032 0.64973 0.28722 0.0
C1903 C 0.24301 0.66379 0.2722 0.0
C1904 C 0.22567 0.65364 0.25334 0.0
C1905 C 0.2151 0.63002 0.25018 0.0
C1906 C 0.2656 0.72569 0.26276 0.0
C1907 C 0.26832 0.73755 0.2855 0.0
C1908 C 0.25776 0.7017 0.25849 0.0
C1909 C 0.25251 0.68911 0.27686 0.0
C1910 C 0.25543 0.70094 0.29964 0.0
C1911 C 0.26327 0.72496 0.30393 0.0
H1912 H 0.53187 0.74273 0.52164 0.0
H1913 H 0.49995 0.70372 0.4548 0.0
H1914 H 0.53702 0.70739 0.53538 0.0
H1915 H 0.50571 0.66865 0.46796 0.0
H1916 H 0.50302 0.60323 0.50029 0.0
H1917 H 0.49629 0.63857 0.48865 0.0
H1918 H 0.55592 0.67862 0.53634 0.0
H1919 H 0.56203 0.64314 0.54855 0.0
C1920 C 0.5259 0.72664 0.5098 0.0
C1921 C 0.51531 0.72643 0.48703 0.0
C1922 C 0.52906 0.70613 0.51764 0.0
C1923 C 0.52187 0.68445 0.50303 0.0
C1924 C 0.51122 0.68444 0.48026 0.0
C1925 C 0.50799 0.70485 0.47251 0.0
C1926 C 0.51469 0.61953 0.50848 0.0
C1927 C 0.53312 0.61986 0.52555 0.0
C1928 C 0.51094 0.64011 0.50156 0.0
C1929 C 0.52555 0.66217 0.51119 0.0
C1930 C 0.54389 0.66244 0.52846 0.0
C1931 C 0.54754 0.64181 0.53549 0.0
H1932 H 0.62838 0.31542 0.69766 0.0
H1933 H 0.67019 0.33804 0.6449 0.0
H1934 H 0.66216 0.31326 0.72241 0.0
H1935 H 0.70465 0.33717 0.67032 0.0
H1936 H 0.76072 0.31407 0.71368 0.0
H1937 H 0.72744 0.31625 0.68746 0.0
H1938 H 0.69443 0.33268 0.74707 0.0
H1939 H 0.72696 0.32922 0.77289 0.0
C1940 C 0.64492 0.3203 0.69144 0.0
C1941 C 0.64644 0.32703 0.66924 0.0
C1942 C 0.66455 0.31924 0.70583 0.0
C1943 C 0.68664 0.32529 0.69883 0.0
C1944 C 0.68813 0.33208 0.6765 0.0
C1945 C 0.66832 0.33279 0.66189 0.0
C1946 C 0.74631 0.31813 0.72115 0.0
C1947 C 0.74659 0.32124 0.74552 0.0
C1948 C 0.72714 0.31953 0.70605 0.0
C1949 C 0.70771 0.32444 0.71481 0.0
C1950 C 0.70845 0.32816 0.73927 0.0
C1951 C 0.72737 0.32637 0.75427 0.0
H1952 H 0.04025 0.36911 0.95897 0.0
H1953 H 1.00495 0.35104 0.01742 0.0
H1954 H 0.04271 0.40949 0.97079 0.0
H1955 H 1.00816 0.39199 0.03005 0.0
H1956 H 0.99995 0.46663 0.03608 0.0
H1957 H 0.99645 0.4255 0.02493 0.0
H1958 H 0.06015 0.4429 0.99559 0.0
H1959 H 0.06301 0.48362 0.00585 0.0
C1960 C 0.03323 0.37376 0.97462 0.0
C1961 C 0.0225 0.3565 0.98722 0.0
C1962 C 0.03479 0.39723 0.9816 0.0
C1963 C 0.02586 0.40468 1.00168 0.0
C1964 C 0.01511 0.38734 0.01437 0.0
C1965 C 0.01341 0.36369 0.00724 0.0
C1966 C 0.01314 0.46168 0.02711 0.0
C1967 C 0.03164 0.47881 0.02173 0.0
C1968 C 1.01125 0.43789 0.02082 0.0
C1969 C 0.02789 0.43026 0.00904 0.0
C1970 C 0.04653 0.44754 1.00402 0.0
C1971 C 0.04829 0.47121 0.0101 0.0
H1972 H 0.04685 0.83229 0.19925 0.0
H1973 H 0.99974 0.79461 0.13866 0.0
H1974 H 0.01499 0.82764 0.22245 0.0
H1975 H 0.96794 0.7898 0.16183 0.0
H1976 H 0.91307 0.80622 0.20509 0.0
H1977 H 0.94481 0.8116 0.18194 0.0
H1978 H 0.98847 0.79759 0.23856 0.0
H1979 H 0.95668 0.7918 0.26159 0.0
C1980 C 0.0297 0.82303 0.19087 0.0
C1981 C 0.02589 0.81383 0.16708 0.0
C1982 C 1.01142 0.82024 0.20421 0.0
C1983 C 0.98881 0.80831 0.19407 0.0
C1984 C 0.98502 0.7993 0.1702 0.0
C1985 C 1.00331 0.80196 0.15692 0.0
C1986 C 0.92932 0.804 0.21258 0.0
C1987 C 0.93212 0.79854 0.23535 0.0
C1988 C 0.9476 0.80716 0.19926 0.0
C1989 C 0.96931 0.80508 0.20833 0.0
C1990 C 0.97215 0.7997 0.23109 0.0
C1991 C 0.95384 0.79641 0.24436 0.0
H1992 H 0.50767 0.30124 0.13266 0.0
H1993 H 0.55692 0.34629 0.1879 0.0
H1994 H 0.51225 0.3324 0.10905 0.0
H1995 H 0.56205 0.37735 0.1641 0.0
H1996 H 0.55069 0.43495 0.12399 0.0
H1997 H 0.5444 0.40419 0.14804 0.0
H1998 H 0.53866 0.35402 0.08717 0.0
H1999 H 0.54379 0.38459 0.06299 0.0
C2000 C 0.51952 0.31781 0.13976 0.0
C2001 C 0.53191 0.32124 0.1622 0.0
C2002 C 0.5223 0.33569 0.12613 0.0
C2003 C 0.53762 0.35752 0.13451 0.0
C2004 C 0.54986 0.36095 0.15709 0.0
C2005 C 0.54702 0.34307 0.17074 0.0
C2006 C 0.5478 0.41734 0.11564 0.0
C2007 C 0.54777 0.41241 0.09142 0.0
C2008 C 0.54448 0.39966 0.12954 0.0
C2009 C 0.54102 0.37647 0.11967 0.0
C2010 C 0.54096 0.37155 0.09545 0.0
C2011 C 0.54425 0.38921 0.08156 0.0
H2012 H 0.9927 0.33626 0.3092 0.0
H2013 H 0.97447 0.3042 0.36929 0.0
H2014 H 0.95185 0.33246 0.29645 0.0
H2015 H 0.93414 0.30108 0.35724 0.0
H2016 H 0.86035 0.27889 0.32208 0.0
H2017 H 0.90101 0.28228 0.3325 0.0
H2018 H 0.91825 0.34459 0.30127 0.0
H2019 H 0.87721 0.34064 0.2901 0.0
C2020 C 0.98004 0.32838 0.31972 0.0
C2021 C 0.98717 0.32039 0.34026 0.0
C2022 C 0.95644 0.32635 0.3125 0.0
C2023 C 0.93908 0.3163 0.32558 0.0
C2024 C 0.94645 0.30845 0.34616 0.0
C2025 C 0.96988 0.31038 0.35326 0.0
C2026 C 0.8727 0.29343 0.31744 0.0
C2027 C 0.86508 0.30957 0.3053 0.0
C2028 C 0.89633 0.29549 0.3236 0.0
C2029 C 0.91355 0.3139 0.31811 0.0
C2030 C 0.90591 0.32998 0.30577 0.0
C2031 C 0.88216 0.32782 0.29945 0.0
H2032 H 0.02177 0.71754 0.62608 0.0
H2033 H 0.01924 0.68074 0.6852 0.0
H2034 H 0.02346 0.68307 0.601 0.0
H2035 H 0.0205 0.64589 0.65995 0.0
H2036 H 0.04713 0.59464 0.61154 0.0
H2037 H 0.04476 0.6284 0.63764 0.0
H2038 H 1.0015 0.64573 0.58286 0.0
H2039 H 1.00423 0.61239 0.55677 0.0
C2040 C 0.02139 0.70201 0.63374 0.0
C2041 C 0.0203 0.70202 0.65774 0.0
C2042 C 0.02224 0.68208 0.61926 0.0
C2043 C 0.02204 0.6614 0.62824 0.0
C2044 C 0.02094 0.66142 0.65231 0.0
C2045 C 0.02004 0.68141 0.66682 0.0
C2046 C 0.03708 0.60562 0.60504 0.0
C2047 C 0.02598 0.60067 0.58187 0.0
C2048 C 0.03559 0.625 0.62012 0.0
C2049 C 0.02303 0.64012 0.6125 0.0
C2050 C 1.0117 0.63491 0.58941 0.0
C2051 C 0.01314 0.61556 0.57439 0.0
H2052 H 0.63816 0.84467 0.87162 0.0
H2053 H 0.60055 0.80828 0.8057 0.0
H2054 H 0.67395 0.84003 0.85882 0.0
H2055 H 0.63653 0.80428 0.79231 0.0
H2056 H 0.7022 0.78162 0.78052 0.0
H2057 H 0.66624 0.78681 0.79251 0.0
H2058 H 0.70396 0.84952 0.83767 0.0
H2059 H 0.73994 0.84373 0.82623 0.0
C2060 C 0.63748 0.83588 0.85419 0.0
C2061 C 0.61611 0.82694 0.83981 0.0
C2062 C 0.6583 0.83329 0.84666 0.0
C2063 C 0.65885 0.82174 0.82426 0.0
C2064 C 0.63736 0.81298 0.80978 0.0
C2065 C 0.61648 0.81546 0.81742 0.0
C2066 C 0.70292 0.79661 0.79297 0.0
C2067 C 0.72442 0.81219 0.80227 0.0
C2068 C 0.68201 0.79972 0.79986 0.0
C2069 C 0.68149 0.81865 0.81633 0.0
C2070 C 0.70307 0.8344 0.82536 0.0
C2071 C 0.72399 0.83119 0.81857 0.0
H2072 H 0.49768 0.58728 0.72642 0.0
H2073 H 0.46199 0.51608 0.70097 0.0
H2074 H 0.51078 0.5916 0.68843 0.0
H2075 H 0.47519 0.52027 0.66317 0.0
H2076 H 0.4841 0.54077 0.59102 0.0
H2077 H 0.46991 0.53872 0.62873 0.0
H2078 H 0.53657 0.57941 0.66343 0.0
H2079 H 0.55062 0.58171 0.62593 0.0
C2080 C 0.49277 0.5725 0.71279 0.0
C2081 C 0.47885 0.55132 0.71683 0.0
C2082 C 0.5003 0.57495 0.69098 0.0
C2083 C 0.49397 0.55632 0.67255 0.0
C2084 C 0.48013 0.53512 0.67672 0.0
C2085 C 0.47273 0.53265 0.69853 0.0
C2086 C 0.49565 0.54953 0.60666 0.0
C2087 C 0.51855 0.56137 0.60528 0.0
C2088 C 0.48757 0.54818 0.62835 0.0
C2089 C 0.50211 0.55877 0.64928 0.0
C2090 C 0.52477 0.57119 0.64779 0.0
C2091 C 0.53287 0.57241 0.62617 0.0
H2092 H 0.82089 0.21363 1.00163 0.0
H2093 H 0.76157 0.22352 0.03248 0.0
H2094 H 0.81913 0.2444 0.97855 0.0
H2095 H 0.76014 0.25465 0.00989 0.0
H2096 H 0.74454 0.27656 0.93714 0.0
H2097 H 0.7492 0.25449 0.96869 0.0
H2098 H 0.82266 0.28553 0.97867 0.0
H2099 H 0.81794 0.30758 0.94686 0.0
C2100 C 0.80776 0.22268 1.00377 0.0
C2101 C 0.79117 0.21601 0.01852 0.0
C2102 C 0.80684 0.24042 0.99072 0.0
C2103 C 0.78938 0.25183 0.99233 0.0
C2104 C 0.77355 0.24592 0.00804 0.0
C2105 C 0.77441 0.22813 0.02097 0.0
C2106 C 0.76159 0.27919 0.94652 0.0
C2107 C 0.7809 0.29358 0.93943 0.0
C2108 C 0.76429 0.26654 0.9646 0.0
C2109 C 0.78635 0.2681 0.97598 0.0
C2110 C 0.80551 0.28368 0.96991 0.0
C2111 C 0.8028 0.29631 0.95179 0.0
H2112 H 0.15863 0.52607 0.18216 0.0
H2113 H 0.10366 0.51826 0.22478 0.0
H2114 H 0.13095 0.52122 0.14758 0.0
H2115 H 0.07569 0.51322 0.18989 0.0
H2116 H 0.07921 0.50483 0.08662 0.0
H2117 H 0.09791 0.49545 0.12169 0.0
H2118 H 0.06923 0.54175 0.16394 0.0
H2119 H 0.04998 0.55077 0.12868 0.0
C2120 C 0.14052 0.52274 0.18403 0.0
C2121 C 0.13328 0.52276 0.20609 0.0
C2122 C 0.12462 0.5198 0.16421 0.0
C2123 C 0.10115 0.51695 0.16607 0.0
C2124 C 0.09371 0.51558 0.18802 0.0
C2125 C 0.10967 0.51832 0.20791 0.0
C2126 C 0.07656 0.51271 0.10341 0.0
C2127 C 0.06363 0.52896 0.10501 0.0
C2128 C 0.08723 0.50728 0.12346 0.0
C2129 C 0.08536 0.51818 0.14549 0.0
C2130 C 0.07088 0.533 0.14717 0.0
C2131 C 0.05998 0.53829 0.12702 0.0
H2132 H 0.82524 0.89223 0.47265 0.0
H2133 H 0.77273 0.83213 0.48187 0.0
H2134 H 0.8248 0.87568 0.43247 0.0
H2135 H 0.77241 0.81531 0.44143 0.0
H2136 H 0.75966 0.80774 0.3604 0.0
H2137 H 0.76092 0.82131 0.40163 0.0
H2138 H 0.83503 0.84506 0.40862 0.0
H2139 H 0.83379 0.83168 0.36719 0.0
C2140 C 0.81364 0.87538 0.46613 0.0
C2141 C 0.79897 0.86355 0.48054 0.0
C2142 C 0.81352 0.86579 0.44306 0.0
C2143 C 0.79864 0.84407 0.43358 0.0
C2144 C 0.78398 0.83215 0.44803 0.0
C2145 C 0.78421 0.84173 0.47125 0.0
C2146 C 0.7763 0.8157 0.3707 0.0
C2147 C 0.79665 0.81866 0.36031 0.0
C2148 C 0.777 0.82338 0.39447 0.0
C2149 C 0.79805 0.8344 0.40857 0.0
C2150 C 0.81846 0.83693 0.39829 0.0
C2151 C 0.81777 0.82912 0.37451 0.0
H2152 H 0.51571 0.56237 0.84138 0.0
H2153 H 0.44901 0.52743 0.85753 0.0
H2154 H 0.53283 0.56152 0.88123 0.0
H2155 H 0.46605 0.52633 0.89696 0.0
H2156 H 0.50783 0.50873 0.95906 0.0
H2157 H 0.49361 0.50794 0.91804 0.0
H2158 H 0.53052 0.57956 0.92233 0.0
H2159 H 0.54455 0.58047 0.96329 0.0
C2160 C 0.50473 0.55443 0.85336 0.0
C2161 C 0.48098 0.54505 0.84626 0.0
C2162 C 0.51451 0.55399 0.8762 0.0
C2163 C 0.50083 0.54376 0.89231 0.0
C2164 C 0.47716 0.5341 0.885 0.0
C2165 C 0.46736 0.53489 0.86239 0.0
C2166 C 0.51311 0.52424 0.95121 0.0
C2167 C 0.5273 0.54466 0.96459 0.0
C2168 C 0.50485 0.52383 0.92771 0.0
C2169 C 0.51087 0.54371 0.91686 0.0
C2170 C 0.52568 0.5639 0.93003 0.0
C2171 C 0.53363 0.56442 0.9536 0.0
H2172 H 0.83791 0.2084 0.11986 0.0
H2173 H 0.76422 0.19109 0.12005 0.0
H2174 H 0.84298 0.23669 0.15511 0.0
H2175 H 0.76933 0.21939 0.15471 0.0
H2176 H 0.78374 0.28745 0.20073 0.0
H2177 H 0.78514 0.26463 0.1637 0.0
H2178 H 0.83311 0.23325 0.19836 0.0
H2179 H 0.83165 0.25584 0.23543 0.0
C2180 C 0.82288 0.21056 0.12749 0.0
C2181 C 0.80069 0.19754 0.11734 0.0
C2182 C 0.82578 0.22675 0.14748 0.0
C2183 C 0.8065 0.23038 0.15722 0.0
C2184 C 0.78441 0.21717 0.1472 0.0
C2185 C 0.78154 0.20081 0.12755 0.0
C2186 C 0.79499 0.2761 0.20034 0.0
C2187 C 0.80731 0.27312 0.22094 0.0
C2188 C 0.79571 0.26302 0.17923 0.0
C2189 C 0.80905 0.24711 0.1784 0.0
C2190 C 0.82276 0.24547 0.19864 0.0
C2191 C 0.82179 0.25828 0.2198 0.0
H2192 H 0.12689 0.52942 0.3207 0.0
H2193 H 0.14909 0.60143 0.3127 0.0
H2194 H 0.10245 0.53874 0.34915 0.0
H2195 H 0.1246 0.61069 0.34108 0.0
H2196 H 0.10149 0.61683 0.4155 0.0
H2197 H 0.12396 0.60998 0.38417 0.0
H2198 H 0.06706 0.55342 0.34992 0.0
H2199 H 0.04477 0.55999 0.38137 0.0
C2200 C 0.1265 0.5472 0.32501 0.0
C2201 C 0.13986 0.56471 0.31457 0.0
C2202 C 0.11241 0.55251 0.34112 0.0
C2203 C 0.1116 0.57542 0.34716 0.0
C2204 C 0.12502 0.59292 0.33677 0.0
C2205 C 0.13895 0.58759 0.32052 0.0
C2206 C 0.09374 0.60314 0.4011 0.0
C2207 C 0.07146 0.58891 0.40084 0.0
C2208 C 0.10651 0.59929 0.38317 0.0
C2209 C 0.09727 0.58103 0.36481 0.0
C2210 C 0.07465 0.56743 0.36405 0.0
C2211 C 0.06182 0.57138 0.38188 0.0
H2212 H 0.77521 0.89 0.62569 0.0
H2213 H 0.80964 0.8388 0.60274 0.0
H2214 H 0.77249 0.87552 0.66287 0.0
H2215 H 0.80738 0.82453 0.6402 0.0
H2216 H 0.78009 0.79005 0.70107 0.0
H2217 H 0.78146 0.80406 0.66366 0.0
H2218 H 0.79506 0.87402 0.69856 0.0
H2219 H 0.79319 0.8599 0.73607 0.0
C2220 C 0.78221 0.87561 0.62857 0.0
C2221 C 0.7926 0.86553 0.61114 0.0
C2222 C 0.78081 0.8674 0.65004 0.0
C2223 C 0.78977 0.84885 0.65478 0.0
C2224 C 0.80001 0.83864 0.6372 0.0
C2225 C 0.8014 0.84688 0.61569 0.0
C2226 C 0.78329 0.80844 0.70085 0.0
C2227 C 0.78649 0.8238 0.72174 0.0
C2228 C 0.78425 0.81652 0.67929 0.0
C2229 C 0.78848 0.84024 0.67789 0.0
C2230 C 0.79149 0.85561 0.6988 0.0
C2231 C 0.79051 0.84751 0.7204 0.0
H2232 H 0.71509 0.43708 0.55115 0.0
H2233 H 0.76874 0.48995 0.53066 0.0
H2234 H 0.69517 0.46615 0.56295 0.0
H2235 H 0.74883 0.51886 0.54234 0.0
H2236 H 0.71403 0.56743 0.58228 0.0
H2237 H 0.73596 0.53854 0.57752 0.0
H2238 H 0.67534 0.48931 0.53898 0.0
H2239 H 0.65361 0.51788 0.54387 0.0
C2240 C 0.72269 0.45491 0.54937 0.0
C2241 C 0.74328 0.46127 0.53979 0.0
C2242 C 0.71132 0.47149 0.55607 0.0
C2243 C 0.7205 0.49468 0.55348 0.0
C2244 C 0.74153 0.50114 0.54473 0.0
C2245 C 0.75278 0.48456 0.53786 0.0
C2246 C 0.70551 0.55037 0.57292 0.0
C2247 C 0.68233 0.54489 0.56312 0.0
C2248 C 0.71798 0.53393 0.57017 0.0
C2249 C 0.70726 0.51174 0.55795 0.0
C2250 C 0.68394 0.50619 0.5487 0.0
C2251 C 0.67161 0.52262 0.55122 0.0
H2252 H 0.20004 0.18619 0.51991 0.0
H2253 H 0.22844 0.12786 0.50815 0.0
H2254 H 0.16228 0.16004 0.52052 0.0
H2255 H 0.19058 0.10164 0.50818 0.0
H2256 H 0.12725 0.06515 0.54058 0.0
H2257 H 0.1646 0.08992 0.53593 0.0
H2258 H 0.1306 0.13149 0.49721 0.0
H2259 H 0.09339 0.10717 0.50233 0.0
C2260 C 0.19812 0.16777 0.51706 0.0
C2261 C 0.21721 0.1591 0.51405 0.0
C2262 C 0.17646 0.15274 0.51733 0.0
C2263 C 0.17338 0.12869 0.51452 0.0
C2264 C 0.19239 0.12005 0.51079 0.0
C2265 C 0.21405 0.13508 0.51058 0.0
C2266 C 0.12775 0.07947 0.53093 0.0
C2267 C 0.10731 0.08422 0.52197 0.0
C2268 C 0.14917 0.09363 0.52815 0.0
C2269 C 0.15063 0.1128 0.51628 0.0
C2270 C 0.13015 0.11714 0.5068 0.0
C2271 C 0.10878 0.10307 0.50964 0.0
H2272 H 0.2042 0.03148 0.77722 0.0
H2273 H 0.14822 0.97938 0.79515 0.0
H2274 H 0.22623 1.00323 0.77177 0.0
H2275 H 0.17054 0.95105 0.79013 0.0
H2276 H 0.20832 0.90183 0.75469 0.0
H2277 H 0.18543 0.92944 0.7603 0.0
H2278 H 0.24638 0.9815 0.79407 0.0
H2279 H 0.26922 0.95397 0.7884 0.0
C2280 C 0.19662 0.01397 0.78009 0.0
C2281 C 0.17446 1.00767 0.78664 0.0
C2282 C 0.20933 0.99779 0.77711 0.0
C2283 C 0.20025 0.97485 0.78061 0.0
C2284 C 0.17799 0.9685 0.78705 0.0
C2285 C 0.16524 0.98475 0.79006 0.0
C2286 C 0.2168 0.91913 0.76346 0.0
C2287 C 0.24066 0.9257 0.77096 0.0
C2288 C 0.20366 0.93495 0.76671 0.0
C2289 C 0.21404 0.95775 0.77757 0.0
C2290 C 0.23786 0.96423 0.78525 0.0
C2291 C 0.25099 0.94844 0.78197 0.0
H2292 H 0.3344 0.98283 0.01815 0.0
H2293 H 0.35973 0.9245 0.03242 0.0
H2294 H 0.3741 1.00676 0.02152 0.0
H2295 H 0.39917 0.94836 0.03586 0.0
H2296 H 0.46488 1.00392 0.06593 0.0
H2297 H 0.42445 0.98306 0.06396 0.0
H2298 H 0.4087 1.0076 0.99926 0.0
H2299 H 0.44907 0.02848 1.00112 0.0
C2300 C 0.34843 0.97514 0.02191 0.0
C2301 C 0.34405 0.95185 0.02501 0.0
C2302 C 0.37107 0.98879 0.02382 0.0
C2303 C 0.38959 0.9794 0.02917 0.0
C2304 C 0.38516 0.95608 0.03208 0.0
C2305 C 0.36261 0.94241 0.0299 0.0
C2306 C 0.45276 1.00509 0.05143 0.0
C2307 C 0.46017 0.01768 0.03359 0.0
C2308 C 0.42968 0.99306 0.05025 0.0
C2309 C 0.41358 0.99364 0.03137 0.0
C2310 C 0.42079 1.00698 0.01403 0.0
C2311 C 0.4439 0.0188 0.01507 0.0
H2312 H 0.84586 0.5831 0.81087 0.0
H2313 H 0.8979 0.63062 0.78211 0.0
H2314 H 0.81618 0.59779 0.79157 0.0
H2315 H 0.86834 0.64606 0.76355 0.0
H2316 H 0.81018 0.65905 0.71858 0.0
H2317 H 0.83642 0.63749 0.7331 0.0
H2318 H 0.80298 0.63145 0.79502 0.0
H2319 H 0.77665 0.65227 0.78029 0.0
C2320 C 0.85096 0.5969 0.80063 0.0
C2321 C 0.87416 0.60586 0.79808 0.0
C2322 C 0.83396 0.60531 0.78956 0.0
C2323 C 0.83986 0.62305 0.77593 0.0
C2324 C 0.86314 0.63206 0.77351 0.0
C2325 C 0.88012 0.62345 0.78438 0.0
C2326 C 0.80819 0.65259 0.73502 0.0
C2327 C 0.79137 0.65726 0.74826 0.0
C2328 C 0.8233 0.64046 0.74344 0.0
C2329 C 0.82199 0.63302 0.76537 0.0
C2330 C 0.80433 0.63663 0.77795 0.0
C2331 C 0.78914 0.64854 0.76945 0.0
H2332 H 0.85354 0.69192 0.06296 0.0
H2333 H 0.81731 0.64635 1.0006 0.0
H2334 H 0.88065 0.66835 0.06677 0.0
H2335 H 0.84459 0.62299 1.00416 0.0
H2336 H 0.8813 0.57238 0.03319 0.0
H2337 H 0.85482 0.59646 0.02888 0.0
H2338 H 0.91165 0.65759 0.04856 0.0
H2339 H 0.93803 0.63348 0.0536 0.0
C2340 C 0.85146 0.67696 0.04998 0.0
C2341 C 0.83325 0.67099 0.03151 0.0
C2342 C 0.86707 0.66349 0.05209 0.0
C2343 C 0.86481 0.64371 0.0358 0.0
C2344 C 0.84668 0.6379 0.01721 0.0
C2345 C 0.83112 0.65139 0.01508 0.0
C2346 C 0.88814 0.59095 0.03676 0.0
C2347 C 0.91182 0.60095 0.0438 0.0
C2348 C 0.87298 0.60479 0.03403 0.0
C2349 C 0.88107 0.629 0.03835 0.0
C2350 C 0.90477 0.63901 0.0453 0.0
C2351 C 0.91995 0.62517 0.04794 0.0
H2352 H 0.15633 0.14119 0.79543 0.0
H2353 H 0.21421 0.11254 0.80724 0.0
H2354 H 0.18264 0.17904 0.79562 0.0
H2355 H 0.24061 0.15053 0.80798 0.0
H2356 H 0.27871 0.21607 0.77986 0.0
H2357 H 0.2537 0.17805 0.78202 0.0
H2358 H 0.21017 0.21007 0.82104 0.0
H2359 H 0.23475 0.24793 0.81843 0.0
C2360 C 0.17469 0.14304 0.79829 0.0
C2361 C 0.18319 0.12389 0.8013 0.0
C2362 C 0.1898 0.16477 0.79853 0.0
C2363 C 0.21379 0.16788 0.80185 0.0
C2364 C 0.22226 0.14872 0.80509 0.0
C2365 C 0.20713 0.12697 0.80482 0.0
C2366 C 0.26391 0.21498 0.78905 0.0
C2367 C 0.25869 0.23508 0.79883 0.0
C2368 C 0.2496 0.19317 0.79037 0.0
C2369 C 0.22979 0.19097 0.80155 0.0
C2370 C 0.22501 0.21109 0.8119 0.0
C2371 C 0.23923 0.23285 0.81052 0.0
H2372 H 0.3487 1.00006 0.30542 0.0
H2373 H 0.40697 0.99086 0.3488 0.0
H2374 H 0.32919 0.95927 0.30339 0.0
H2375 H 0.38731 0.95005 0.34693 0.0
H2376 H 0.29416 0.88762 0.3181 0.0
H2377 H 0.31215 0.92904 0.32691 0.0
H2378 H 0.37756 0.91746 0.31399 0.0
H2379 H 0.35974 0.87608 0.30541 0.0
C2380 C 0.35715 0.98938 0.31484 0.0
C2381 C 0.37941 0.9985 0.32707 0.0
C2382 C 0.34594 0.96609 0.31377 0.0
C2383 C 0.35686 0.95152 0.32484 0.0
C2384 C 0.37867 0.96089 0.33799 0.0
C2385 C 0.38985 0.98422 0.33916 0.0
C2386 C 0.3124 0.8939 0.31724 0.0
C2387 C 0.32552 0.87862 0.31091 0.0
C2388 C 0.32265 0.91759 0.32225 0.0
C2389 C 0.34621 0.92639 0.32118 0.0
C2390 C 0.35941 0.91109 0.31526 0.0
C2391 C 0.34915 0.88742 0.31014 0.0
H2392 H 0.55537 0.36852 0.56712 0.0
H2393 H 0.60411 0.40918 0.62499 0.0
H2394 H 0.55016 0.4039 0.55353 0.0
H2395 H 0.59883 0.44457 0.61165 0.0
H2396 H 0.59815 0.50679 0.57239 0.0
H2397 H 0.60494 0.47129 0.58436 0.0
H2398 H 0.53386 0.43541 0.56009 0.0
H2399 H 0.52723 0.47066 0.54799 0.0
C2400 C 0.56511 0.38498 0.57697 0.0
C2401 C 0.58026 0.38561 0.59725 0.0
C2402 C 0.56198 0.40551 0.56923 0.0
C2403 C 0.57394 0.42768 0.58134 0.0
C2404 C 0.58937 0.42821 0.60145 0.0
C2405 C 0.59236 0.40769 0.60925 0.0
C2406 C 0.58394 0.49134 0.56947 0.0
C2407 C 0.56207 0.49204 0.55905 0.0
C2408 C 0.5878 0.47078 0.57656 0.0
C2409 C 0.57003 0.4499 0.57338 0.0
C2410 C 0.54826 0.45066 0.56272 0.0
C2411 C 0.54437 0.47119 0.55582 0.0
H2412 H 0.43507 0.80433 0.44716 0.0
H2413 H 0.45083 0.76255 0.38934 0.0
H2414 H 0.40175 0.80883 0.42258 0.0
H2415 H 0.41706 0.76584 0.3651 0.0
H2416 H 0.37144 0.79524 0.31829 0.0
H2417 H 0.40309 0.79012 0.34416 0.0
H2418 H 0.36472 0.79492 0.40226 0.0
H2419 H 0.33335 0.80124 0.37624 0.0
C2420 C 0.43114 0.79568 0.42932 0.0
C2421 C 0.44575 0.78313 0.42027 0.0
C2422 C 0.4119 0.79821 0.41512 0.0
C2423 C 0.40651 0.78802 0.39146 0.0
C2424 C 0.42073 0.77465 0.38286 0.0
C2425 C 0.44009 0.77246 0.39692 0.0
C2426 C 0.36965 0.79519 0.33658 0.0
C2427 C 0.34963 0.79862 0.34501 0.0
C2428 C 0.38789 0.79202 0.35156 0.0
C2429 C 0.38675 0.79175 0.37559 0.0
C2430 C 0.36666 0.79523 0.38405 0.0
C2431 C 0.34847 0.79875 0.36904 0.0
H2432 H 0.08675 0.74131 0.13191 0.0
H2433 H 0.05793 0.74853 0.0634 0.0
H2434 H 0.08174 0.70027 0.11931 0.0
H2435 H 0.05246 0.707 0.05077 0.0
H2436 H 0.0223 0.62632 0.04781 0.0
H2437 H 0.0287 0.66803 0.05821 0.0
H2438 H 0.09635 0.67301 0.09314 0.0
H2439 H 0.09012 0.63131 0.08239 0.0
C2440 C 0.07937 0.73418 0.11406 0.0
C2441 C 0.07282 0.74853 0.09874 0.0
C2442 C 0.07658 0.7105 0.10677 0.0
C2443 C 0.06667 0.69997 0.08394 0.0
C2444 C 0.06003 0.71428 0.06853 0.0
C2445 C 0.06329 0.73821 0.07573 0.0
C2446 C 0.03861 0.63624 0.05768 0.0
C2447 C 0.05563 0.6251 0.06426 0.0
C2448 C 0.04234 0.66034 0.06353 0.0
C2449 C 0.06307 0.67423 0.07661 0.0
C2450 C 0.08008 0.66308 0.08322 0.0
C2451 C 0.07653 0.63903 0.07696 0.0
H2452 H 0.04711 0.26951 0.88695 0.0
H2453 H 0.0951 0.31026 0.94556 0.0
H2454 H 0.07801 0.27361 0.86283 0.0
H2455 H 0.12604 0.31502 0.92124 0.0
H2456 H 0.18081 0.3022 0.87658 0.0
H2457 H 0.15037 0.29631 0.90132 0.0
H2458 H 0.10168 0.301 0.84382 0.0
H2459 H 0.13175 0.30559 0.81882 0.0
C2460 C 0.06429 0.2794 0.8947 0.0
C2461 C 0.0686 0.28956 0.91821 0.0
C2462 C 0.08205 0.28192 0.88078 0.0
C2463 C 0.10465 0.29482 0.88991 0.0
C2464 C 0.10899 0.30475 0.91358 0.0
C2465 C 0.09121 0.30211 0.92754 0.0
C2466 C 0.16356 0.30169 0.86909 0.0
C2467 C 0.15889 0.30438 0.84556 0.0
C2468 C 0.1461 0.2986 0.88343 0.0
C2469 C 0.12342 0.29814 0.8747 0.0
C2470 C 0.11879 0.3009 0.8512 0.0
C2471 C 0.1362 0.3039 0.83686 0.0
H2472 H 0.53423 0.74756 0.88103 0.0
H2473 H 0.56548 0.79843 0.94133 0.0
H2474 H 0.53075 0.71699 0.90544 0.0
H2475 H 0.5627 0.76798 0.96561 0.0
H2476 H 0.53244 0.71157 0.00747 0.0
H2477 H 0.53591 0.74142 0.98255 0.0
H2478 H 0.55118 0.69577 0.92743 0.0
H2479 H 0.54649 0.66541 0.952 0.0
C2480 C 0.54053 0.75221 0.89947 0.0
C2481 C 0.55006 0.77548 0.90921 0.0
C2482 C 0.53867 0.73464 0.9135 0.0
C2483 C 0.54636 0.73986 0.93765 0.0
C2484 C 0.55617 0.76318 0.94724 0.0
C2485 C 0.55793 0.78071 0.93325 0.0
C2486 C 0.53627 0.70772 0.98996 0.0
C2487 C 0.53907 0.68588 0.98186 0.0
C2488 C 0.5386 0.72505 0.97569 0.0
C2489 C 0.54392 0.72121 0.95285 0.0
C2490 C 0.54683 0.6994 0.94477 0.0
C2491 C 0.54444 0.68202 0.95904 0.0
H2492 H 0.0869 0.7422 0.74606 0.0
H2493 H 0.10474 0.80754 0.72067 0.0
H2494 H 0.12774 0.74576 0.75786 0.0
H2495 H 0.1453 0.81174 0.73323 0.0
H2496 H 0.2187 0.80561 0.73707 0.0
H2497 H 0.17788 0.80117 0.72601 0.0
H2498 H 0.16229 0.76183 0.78229 0.0
H2499 H 0.2033 0.76557 0.7927 0.0
C2500 C 0.09949 0.75753 0.74329 0.0
C2501 C 0.09225 0.77454 0.73233 0.0
C2502 C 0.12314 0.75967 0.75017 0.0
C2503 C 0.14049 0.77902 0.7465 0.0
C2504 C 0.13299 0.79624 0.736 0.0
C2505 C 0.10945 0.79397 0.72895 0.0
C2506 C 0.20663 0.79592 0.74712 0.0
C2507 C 0.21469 0.78595 0.76585 0.0
C2508 C 0.18293 0.79352 0.74086 0.0
C2509 C 0.16611 0.78122 0.7532 0.0
C2510 C 0.17424 0.77119 0.77195 0.0
C2511 C 0.198 0.77345 0.77809 0.0
H2512 H 0.04835 0.41014 0.38259 0.0
H2513 H 0.06946 0.38234 0.4434 0.0
H2514 H 0.04305 0.44324 0.4077 0.0
H2515 H 0.06481 0.4155 0.46843 0.0
H2516 H 0.03003 0.46298 0.50827 0.0
H2517 H 0.03604 0.43129 0.48224 0.0
H2518 H 0.0605 0.47811 0.43423 0.0
H2519 H 0.05388 0.50988 0.46017 0.0
C2520 C 0.05217 0.41123 0.40131 0.0
C2521 C 0.05929 0.39346 0.4109 0.0
C2522 C 0.04918 0.4303 0.41578 0.0
C2523 C 0.05324 0.43218 0.44029 0.0
C2524 C 0.06096 0.41462 0.44975 0.0
C2525 C 0.06387 0.39559 0.43532 0.0
C2526 C 0.03666 0.46663 0.49217 0.0
C2527 C 0.04147 0.48918 0.4865 0.0
C2528 C 0.04032 0.44835 0.47721 0.0
C2529 C 0.04901 0.45192 0.45602 0.0
C2530 C 0.0536 0.47447 0.4502 0.0
C2531 C 0.0499 0.4928 0.4652 0.0
H2532 H 0.48011 0.30458 0.25222 0.0
H2533 H 0.44463 0.23649 0.21677 0.0
H2534 H 0.44423 0.30927 0.26516 0.0
H2535 H 0.40886 0.24067 0.23026 0.0
H2536 H 0.34168 0.26084 0.23925 0.0
H2537 H 0.37769 0.2559 0.22718 0.0
H2538 H 0.41539 0.30207 0.28857 0.0
H2539 H 0.37928 0.30753 0.30014 0.0
C2540 C 0.46472 0.2904 0.24739 0.0
C2541 C 0.46566 0.2701 0.23336 0.0
C2542 C 0.44388 0.29304 0.25496 0.0
C2543 C 0.42292 0.27545 0.24895 0.0
C2544 C 0.42407 0.255 0.23515 0.0
C2545 C 0.44489 0.25243 0.2275 0.0
C2546 C 0.3576 0.26993 0.25031 0.0
C2547 C 0.35711 0.28462 0.27084 0.0
C2548 C 0.37856 0.26697 0.24339 0.0
C2549 C 0.40016 0.27847 0.25668 0.0
C2550 C 0.39958 0.29303 0.27736 0.0
C2551 C 0.37859 0.29606 0.28422 0.0
H2552 H 0.6455 0.56858 0.38368 0.0
H2553 H 0.57587 0.53702 0.3505 0.0
H2554 H 0.63296 0.5658 0.42173 0.0
H2555 H 0.56297 0.5349 0.38888 0.0
H2556 H 0.55039 0.51691 0.46192 0.0
H2557 H 0.56307 0.51702 0.42342 0.0
H2558 H 0.61301 0.58246 0.44806 0.0
H2559 H 0.60093 0.58193 0.48645 0.0
C2560 C 0.62741 0.56116 0.38451 0.0
C2561 C 0.61169 0.55314 0.36395 0.0
C2562 C 0.62014 0.55968 0.40645 0.0
C2563 C 0.59683 0.55032 0.40866 0.0
C2564 C 0.58109 0.54202 0.38803 0.0
C2565 C 0.58844 0.54337 0.36596 0.0
C2566 C 0.56424 0.5312 0.45917 0.0
C2567 C 0.57467 0.54935 0.47746 0.0
C2568 C 0.57139 0.53139 0.43696 0.0
C2569 C 0.58914 0.54975 0.43238 0.0
C2570 C 0.5996 0.56778 0.4508 0.0
C2571 C 0.59255 0.56754 0.47295 0.0
H2572 H 0.3182 0.88195 0.08582 0.0
H2573 H 0.26015 0.83208 0.04376 0.0
H2574 H 0.3262 0.85219 0.10696 0.0
H2575 H 0.26853 0.80174 0.0648 0.0
H2576 H 0.27233 0.77394 0.13799 0.0
H2577 H 0.26578 0.79217 0.10388 0.0
H2578 H 0.33922 0.8179 0.105 0.0
H2579 H 0.34579 0.80153 0.14013 0.0
C2580 C 0.30727 0.8645 0.08093 0.0
C2581 C 0.28843 0.85935 0.06333 0.0
C2582 C 0.31207 0.8473 0.09282 0.0
C2583 C 0.29821 0.82446 0.08734 0.0
C2584 C 0.27953 0.81917 0.0694 0.0
C2585 C 0.27469 0.83651 0.05744 0.0
C2586 C 0.28711 0.78316 0.13073 0.0
C2587 C 0.30953 0.78722 0.14253 0.0
C2588 C 0.28334 0.79336 0.11094 0.0
C2589 C 0.302 0.80729 0.10238 0.0
C2590 C 0.32448 0.80795 0.11179 0.0
C2591 C 0.32823 0.79822 0.13184 0.0
H2592 H 0.93502 0.60421 0.90632 0.0
H2593 H 0.99429 0.60428 0.87093 0.0
H2594 H 0.95755 0.60323 0.9431 0.0
H2595 H 0.01651 0.60239 0.90745 0.0
H2596 H 0.05139 0.59851 0.97927 0.0
H2597 H 0.0338 0.61539 0.94841 0.0
H2598 H 0.96774 0.56846 0.95166 0.0
H2599 H 0.98494 0.55201 0.98226 0.0
C2600 C 0.95304 0.60472 0.90654 0.0
C2601 C 0.96276 0.60369 0.88576 0.0
C2602 C 0.9659 0.60401 0.92754 0.0
C2603 C 0.98853 0.60192 0.92796 0.0
C2604 C 0.99909 0.60386 0.90767 0.0
C2605 C 0.9863 0.60487 0.88671 0.0
C2606 C 0.03312 0.59184 0.97331 0.0
C2607 C 0.0196 0.5738 0.98307 0.0
C2608 C 0.02306 0.60159 0.95579 0.0
C2609 C 0.99933 0.59354 0.94791 0.0
C2610 C 0.98594 0.57554 0.95777 0.0
C2611 C 0.99592 0.56581 0.97511 0.0
H2612 H 0.25702 0.21041 0.60124 0.0
H2613 H 0.31261 0.26796 0.5923 0.0
H2614 H 0.25812 0.22731 0.64141 0.0
H2615 H 0.31353 0.28522 0.6327 0.0
H2616 H 0.32638 0.29249 0.71347 0.0
H2617 H 0.3243 0.27886 0.67216 0.0
H2618 H 0.25009 0.25845 0.66593 0.0
H2619 H 0.25217 0.27171 0.7075 0.0
C2620 C 0.26939 0.22682 0.6078 0.0
C2621 C 0.28477 0.23779 0.5935 0.0
C2622 C 0.2699 0.23663 0.63088 0.0
C2623 C 0.28588 0.25771 0.64046 0.0
C2624 C 0.30113 0.26886 0.62605 0.0
C2625 C 0.30054 0.25905 0.60283 0.0
C2626 C 0.30956 0.28519 0.70334 0.0
C2627 C 0.28943 0.28309 0.71401 0.0
C2628 C 0.30838 0.27751 0.6795 0.0
C2629 C 0.28703 0.26742 0.66556 0.0
C2630 C 0.26687 0.2658 0.67612 0.0
C2631 C 0.26805 0.27356 0.69999 0.0
H2632 H 0.57681 0.57102 0.2399 0.0
H2633 H 0.62781 0.53901 0.21546 0.0
H2634 H 0.56105 0.57098 0.19936 0.0
H2635 H 0.61283 0.53963 0.17548 0.0
H2636 H 0.56991 0.52151 0.10604 0.0
H2637 H 0.58153 0.5214 0.14694 0.0
H2638 H 0.5677 0.58756 0.16378 0.0
H2639 H 0.55513 0.58725 0.12227 0.0
C2640 C 0.58463 0.56394 0.22592 0.0
C2641 C 0.60345 0.5548 0.231 0.0
C2642 C 0.57572 0.5641 0.20265 0.0
C2643 C 0.58545 0.55511 0.18391 0.0
C2644 C 0.60439 0.54619 0.18921 0.0
C2645 C 0.61314 0.54594 0.21229 0.0
C2646 C 0.56931 0.53613 0.11836 0.0
C2647 C 0.56189 0.55459 0.11068 0.0
C2648 C 0.57613 0.53611 0.14198 0.0
C2649 C 0.57612 0.5547 0.15888 0.0
C2650 C 0.56795 0.5729 0.15137 0.0
C2651 C 0.56082 0.57279 0.12754 0.0
H2652 H 0.24163 0.84972 0.96382 0.0
H2653 H 0.2772 0.91452 0.94401 0.0
H2654 H 0.24103 0.83025 0.92463 0.0
H2655 H 0.27695 0.895 0.90497 0.0
H2656 H 0.26213 0.85493 0.83227 0.0
H2657 H 0.25372 0.87346 0.86848 0.0
H2658 H 0.27223 0.82112 0.90483 0.0
H2659 H 0.28028 0.80233 0.86862 0.0
C2660 C 0.24894 0.85986 0.95096 0.0
C2661 C 0.25968 0.88357 0.95698 0.0
C2662 C 0.24874 0.84869 0.9286 0.0
C2663 C 0.25925 0.86104 0.91187 0.0
C2664 C 0.26861 0.88504 0.91746 0.0
C2665 C 0.26882 0.89621 0.93983 0.0
C2666 C 0.26428 0.84727 0.84795 0.0
C2667 C 0.27204 0.82723 0.84761 0.0
C2668 C 0.25948 0.85793 0.86868 0.0
C2669 C 0.2623 0.84874 0.88945 0.0
C2670 C 0.26956 0.82842 0.88901 0.0
C2671 C 0.27438 0.81776 0.86829 0.0
H2672 H 0.96463 0.58709 0.75803 0.0
H2673 H 0.96704 0.52599 0.78874 0.0
H2674 H 0.98786 0.57668 0.72896 0.0
H2675 H 0.99048 0.51565 0.75968 0.0
H2676 H 1.00065 0.4935 0.68168 0.0
H2677 H 0.98353 0.50299 0.71642 0.0
H2678 H 0.02744 0.57264 0.7261 0.0
H2679 H 0.04456 0.56315 0.69143 0.0
C2680 C 0.97029 0.57154 0.75865 0.0
C2681 C 0.96403 0.55732 0.77555 0.0
C2682 C 0.98372 0.56567 0.74215 0.0
C2683 C 0.99105 0.54543 0.7422 0.0
C2684 C 0.98497 0.5313 0.75924 0.0
C2685 C 0.97163 0.53725 0.77586 0.0
C2686 C 1.00708 0.51063 0.69163 0.0
C2687 C 0.02368 0.5277 0.68377 0.0
C2688 C 0.99727 0.51607 0.71146 0.0
C2689 C 1.00395 0.53864 0.72367 0.0
C2690 C 0.02168 0.55523 0.7167 0.0
C2691 C 0.03148 0.5498 0.69694 0.0
H2692 H 0.28102 0.26071 0.4721 0.0
H2693 H 0.29895 0.19912 0.44491 0.0
H2694 H 0.28331 0.27403 0.43423 0.0
H2695 H 0.30179 0.21261 0.4072 0.0
H2696 H 0.28224 0.23382 0.33565 0.0
H2697 H 0.28006 0.21943 0.37312 0.0
H2698 H 0.31016 0.28876 0.40907 0.0
H2699 H 0.31186 0.30308 0.37197 0.0
C2700 C 0.2856 0.25007 0.45808 0.0
C2701 C 0.28985 0.22888 0.46162 0.0
C2702 C 0.28704 0.25775 0.43633 0.0
C2703 C 0.29283 0.24448 0.41747 0.0
C2704 C 0.29701 0.22322 0.42108 0.0
C2705 C 0.29555 0.21555 0.44282 0.0
C2706 C 0.28854 0.24595 0.35155 0.0
C2707 C 0.29712 0.26966 0.35063 0.0
C2708 C 0.28733 0.2377 0.37311 0.0
C2709 C 0.2947 0.25293 0.39432 0.0
C2710 C 0.3038 0.27651 0.39327 0.0
C2711 C 0.30496 0.28473 0.37183 0.0
H2712 H 0.32704 0.62765 0.4972 0.0
H2713 H 0.33786 0.6028 0.56282 0.0
H2714 H 0.34706 0.60136 0.47909 0.0
H2715 H 0.35842 0.57715 0.54505 0.0
H2716 H 0.38407 0.52389 0.50887 0.0
H2717 H 0.35452 0.54317 0.51748 0.0
H2718 H 0.38603 0.5986 0.48102 0.0
H2719 H 0.41476 0.57867 0.4713 0.0
C2720 C 0.33379 0.61662 0.50775 0.0
C2721 C 0.33109 0.61734 0.53143 0.0
C2722 C 0.3452 0.60157 0.49738 0.0
C2723 C 0.35419 0.58705 0.51058 0.0
C2724 C 0.35124 0.58769 0.53424 0.0
C2725 C 0.33974 0.60262 0.54453 0.0
C2726 C 0.38414 0.53972 0.50189 0.0
C2727 C 0.40198 0.55002 0.48981 0.0
C2728 C 0.36741 0.55094 0.50712 0.0
C2729 C 0.36834 0.57271 0.5005 0.0
C2730 C 0.38485 0.58188 0.48645 0.0
C2731 C 0.40145 0.57057 0.48105 0.0
H2732 H 0.86093 0.96784 0.57855 0.0
H2733 H 0.88285 0.91141 0.54451 0.0
H2734 H 0.89906 0.99375 0.57876 0.0
H2735 H 0.92042 0.93728 0.54357 0.0
H2736 H 0.99149 0.98274 0.5577 0.0
H2737 H 0.95511 0.95857 0.56484 0.0
H2738 H 0.92289 0.01335 0.55394 0.0
H2739 H 0.96003 0.03807 0.54814 0.0
C2740 C 0.87397 0.96097 0.57123 0.0
C2741 C 0.86896 0.93758 0.5616 0.0
C2742 C 0.89577 0.97586 0.57112 0.0
C2743 C 0.91296 0.96775 0.56113 0.0
C2744 C 0.90792 0.94419 0.55188 0.0
C2745 C 0.88627 0.92928 0.5523 0.0
C2746 C 0.97667 0.98969 0.55703 0.0
C2747 C 0.97849 0.01218 0.55211 0.0
C2748 C 0.9557 0.97575 0.56097 0.0
C2749 C 0.9358 0.98372 0.55953 0.0
C2750 C 0.93783 1.00661 0.55539 0.0
C2751 C 0.95906 0.02078 0.55194 0.0
H2752 H 0.93916 0.12015 0.27368 0.0
H2753 H 0.88563 0.0682 0.29543 0.0
H2754 H 0.91532 0.14726 0.27678 0.0
H2755 H 0.86205 0.09524 0.29884 0.0
H2756 H 0.8159 0.14026 0.27741 0.0
H2757 H 0.84043 0.11412 0.27383 0.0
H2758 H 0.89946 0.16947 0.30583 0.0
H2759 H 0.87487 0.19568 0.30951 0.0
C2760 C 0.92237 0.11456 0.27922 0.0
C2761 C 0.91426 0.09203 0.28426 0.0
C2762 C 0.90875 0.13011 0.2811 0.0
C2763 C 0.88671 0.1234 0.28796 0.0
C2764 C 0.87876 0.10089 0.29315 0.0
C2765 C 0.89236 0.08542 0.29135 0.0
C2766 C 0.83407 0.14684 0.28389 0.0
C2767 C 0.84335 0.17007 0.29388 0.0
C2768 C 0.84815 0.13184 0.28181 0.0
C2769 C 0.87192 0.13965 0.28964 0.0
C2770 C 0.88128 0.16295 0.29937 0.0
C2771 C 0.86717 0.17797 0.30149 0.0
H2772 H 0.7216 0.10213 0.06916 0.0
H2773 H 0.71495 0.12576 1.00231 0.0
H2774 H 0.68052 0.08315 0.06333 0.0
H2775 H 0.67383 0.1064 0.99629 0.0
H2776 H 0.59949 0.09995 0.01408 0.0
H2777 H 0.64094 0.11388 0.01446 0.0
H2778 H 0.65012 0.05195 0.03953 0.0
H2779 H 0.60881 0.03818 0.0396 0.0
C2780 C 0.71142 0.1029 0.05304 0.0
C2781 C 0.72137 0.11554 0.03627 0.0
C2782 C 0.68792 0.09195 0.04964 0.0
C2783 C 0.67398 0.09345 0.02941 0.0
C2784 C 0.68414 0.10526 0.01218 0.0
C2785 C 0.70766 0.1162 0.01557 0.0
C2786 C 0.61033 0.08924 0.01953 0.0
C2787 C 0.6009 0.06811 0.02708 0.0
C2788 C 0.63404 0.09713 0.01956 0.0
C2789 C 0.64874 0.08402 0.02713 0.0
C2790 C 0.63922 0.06254 0.03392 0.0
C2791 C 0.61554 0.05466 0.03389 0.0
H2792 H 0.23301 0.50592 0.24144 0.0
H2793 H 0.22491 0.51208 0.3145 0.0
H2794 H 0.26241 0.48562 0.24871 0.0
H2795 H 0.25401 0.49133 0.3217 0.0
H2796 H 0.3201 0.46962 0.33053 0.0
H2797 H 0.29557 0.49489 0.32183 0.0
H2798 H 0.26272 0.44786 0.25914 0.0
H2799 H 0.28693 0.42275 0.26778 0.0
C2800 C 0.23745 0.50283 0.25904 0.0
C2801 C 0.2266 0.5104 0.2774 0.0
C2802 C 0.25427 0.49123 0.26318 0.0
C2803 C 0.26053 0.48696 0.28577 0.0
C2804 C 0.24979 0.49471 0.30417 0.0
C2805 C 0.23296 0.50634 0.30002 0.0
C2806 C 0.30781 0.46489 0.31477 0.0
C2807 C 0.30547 0.44423 0.29984 0.0
C2808 C 0.29376 0.47928 0.30984 0.0
C2809 C 0.27717 0.47325 0.28989 0.0
C2810 C 0.27557 0.45313 0.27447 0.0
C2811 C 0.28954 0.43878 0.2794 0.0
H2812 H 0.22181 0.4021 0.04604 0.0
H2813 H 0.2762 0.4629 0.04264 0.0
H2814 H 0.1937 0.42491 0.04369 0.0
H2815 H 0.24834 0.4854 0.03976 0.0
H2816 H 0.19789 0.52542 0.05918 0.0
H2817 H 0.22421 0.50124 0.06305 0.0
H2818 H 0.17509 0.44524 0.01728 0.0
H2819 H 0.14857 0.46949 0.01361 0.0
C2820 C 0.22774 0.42028 0.04471 0.0
C2821 C 0.25124 0.4307 0.04462 0.0
C2822 C 0.21164 0.43334 0.04325 0.0
C2823 C 0.21874 0.45708 0.04169 0.0
C2824 C 0.24225 0.46732 0.04141 0.0
C2825 C 0.25825 0.45434 0.0429 0.0
C2826 C 0.19273 0.508 0.04982 0.0
C2827 C 0.17119 0.4995 0.0359 0.0
C2828 C 0.20784 0.49409 0.05203 0.0
C2829 C 0.20191 0.4713 0.0403 0.0
C2830 C 0.18016 0.46261 0.02675 0.0
C2831 C 0.16497 0.47653 0.0246 0.0
H2832 H 0.87602 0.9894 0.26473 0.0
H2833 H 0.93329 0.96058 0.2798 0.0
H2834 H 0.8492 0.95176 0.26468 0.0
H2835 H 0.90655 0.92312 0.28024 0.0
H2836 H 0.85431 0.85437 0.25748 0.0
H2837 H 0.87925 0.89191 0.25446 0.0
H2838 H 0.83539 0.92512 0.29164 0.0
H2839 H 0.81001 0.88738 0.29428 0.0
C2840 C 0.88287 0.97501 0.268 0.0
C2841 C 0.90676 0.97791 0.27221 0.0
C2842 C 0.8675 0.95348 0.26813 0.0
C2843 C 0.8757 0.9344 0.27245 0.0
C2844 C 0.89963 0.93735 0.2765 0.0
C2845 C 0.91498 0.95885 0.27636 0.0
C2846 C 0.84984 0.86964 0.26492 0.0
C2847 C 0.83019 0.86783 0.27625 0.0
C2848 C 0.86426 0.8912 0.2633 0.0
C2849 C 0.85948 0.91154 0.27301 0.0
C2850 C 0.83949 0.90979 0.28381 0.0
C2851 C 0.82498 0.88815 0.2854 0.0
H2852 H 0.70137 0.12904 0.73779 0.0
H2853 H 0.74648 0.1226 0.79754 0.0
H2854 H 0.72061 0.1701 0.74202 0.0
H2855 H 0.766 0.16364 0.80152 0.0
H2856 H 0.77089 0.24105 0.8195 0.0
H2857 H 0.75492 0.19932 0.81338 0.0
H2858 H 0.75733 0.19774 0.73942 0.0
H2859 H 0.77293 0.2395 0.74541 0.0
C2860 C 0.71564 0.13635 0.75159 0.0
C2861 C 0.72235 0.12273 0.76745 0.0
C2862 C 0.7267 0.15982 0.75396 0.0
C2863 C 0.74466 0.17008 0.77222 0.0
C2864 C 0.75195 0.15624 0.78751 0.0
C2865 C 0.7409 0.13275 0.78514 0.0
C2866 C 0.768 0.23181 0.80194 0.0
C2867 C 0.77307 0.24357 0.78294 0.0
C2868 C 0.75905 0.2079 0.79846 0.0
C2869 C 0.75498 0.1953 0.77593 0.0
C2870 C 0.76012 0.20705 0.75695 0.0
C2871 C 0.76909 0.23095 0.76042 0.0
loop_
_geom_bond_atom_site_label_1
_geom_bond_atom_site_label_2
_geom_bond_distance
_geom_bond_site_symmetry_2
_ccdc_geom_bond_type
In0 O1 2.294 . S
In0 O2 2.326 . S
In0 O6 2.266 . S
In0 O7 2.312 1_455 S
In0 O8 2.266 . S
In0 O9 2.326 . S
In0 O11 2.294 . S
In0 O12 2.326 . S
O1 In0 2.294 . S
O1 C10 1.240 . S
O2 In0 2.326 . S
O2 C10 1.252 . S
C3 O6 1.252 1_655 S
C3 O7 1.261 . S
C4 O11 1.240 . S
C4 O12 1.252 . S
C5 O8 1.252 . S
C5 O9 1.260 . S
O6 In0 2.266 . S
O6 C3 1.252 1_455 S
O7 In0 2.312 1_655 S
O7 C3 1.261 . S
O8 In0 2.266 . S
O8 C5 1.252 . S
O9 In0 2.326 . S
O9 C5 1.260 . S
C10 O1 1.240 . S
C10 O2 1.252 . S
O11 In0 2.294 . S
O11 C4 1.240 . S
O12 In0 2.326 . S
O12 C4 1.252 . S
In13 O14 2.294 . S
In13 O15 2.326 . S
In13 O19 2.266 . S
In13 O20 2.326 . S
In13 O21 2.266 . S
In13 O22 2.326 1_455 S
In13 O24 2.294 . S
In13 O25 2.326 . S
O14 In13 2.294 . S
O14 C23 1.240 . S
O15 In13 2.326 . S
O15 C23 1.252 . S
C16 O19 1.252 . S
C16 O20 1.260 . S
C17 O24 1.240 . S
C17 O25 1.252 . S
C18 O21 1.252 1_655 S
C18 O22 1.260 . S
O19 In13 2.266 . S
O19 C16 1.252 . S
O20 In13 2.326 . S
O20 C16 1.260 . S
O21 In13 2.266 . S
O21 C18 1.252 1_455 S
O22 In13 2.326 1_655 S
O22 C18 1.260 . S
C23 O14 1.240 . S
C23 O15 1.252 . S
O24 In13 2.294 . S
O24 C17 1.240 . S
O25 In13 2.326 . S
O25 C17 1.252 . S
In26 O27 2.294 . S
In26 O28 2.326 . S
In26 O32 2.266 . S
In26 O33 2.326 . S
In26 O34 2.266 . S
In26 O35 2.326 . S
In26 O37 2.294 . S
In26 O38 2.326 . S
O27 In26 2.294 . S
O27 C36 1.240 . S
O28 In26 2.326 . S
O28 C36 1.252 . S
C29 O32 1.252 . S
C29 O33 1.260 . S
C30 O37 1.240 . S
C30 O38 1.252 . S
C31 O34 1.252 . S
C31 O35 1.260 . S
O32 In26 2.266 . S
O32 C29 1.252 . S
O33 In26 2.326 . S
O33 C29 1.260 . S
O34 In26 2.266 . S
O34 C31 1.252 . S
O35 In26 2.326 . S
O35 C31 1.260 . S
C36 O27 1.240 . S
C36 O28 1.252 . S
O37 In26 2.294 . S
O37 C30 1.240 . S
O38 In26 2.326 . S
O38 C30 1.252 . S
In39 O40 2.294 . S
In39 O41 2.326 . S
In39 O45 2.266 . S
In39 O46 2.326 . S
In39 O47 2.266 . S
In39 O48 2.326 . S
In39 O50 2.294 . S
In39 O51 2.326 . S
O40 In39 2.294 . S
O40 C49 1.240 . S
O41 In39 2.326 . S
O41 C49 1.252 . S
C42 O45 1.252 . S
C42 O46 1.260 . S
C43 O50 1.240 . S
C43 O51 1.252 . S
C44 O47 1.252 . S
C44 O48 1.260 . S
O45 In39 2.266 . S
O45 C42 1.252 . S
O46 In39 2.326 . S
O46 C42 1.260 . S
O47 In39 2.266 . S
O47 C44 1.252 . S
O48 In39 2.326 . S
O48 C44 1.260 . S
C49 O40 1.240 . S
C49 O41 1.252 . S
O50 In39 2.294 . S
O50 C43 1.240 . S
O51 In39 2.326 . S
O51 C43 1.252 . S
In52 O53 2.294 . S
In52 O54 2.326 . S
In52 O58 2.266 . S
In52 O59 2.326 . S
In52 O60 2.266 . S
In52 O61 2.326 . S
In52 O63 2.294 . S
In52 O64 2.326 . S
O53 In52 2.294 . S
O53 C62 1.240 . S
O54 In52 2.326 . S
O54 C62 1.252 . S
C55 O58 1.252 . S
C55 O59 1.260 . S
C56 O63 1.240 . S
C56 O64 1.252 . S
C57 O60 1.252 . S
C57 O61 1.260 . S
O58 In52 2.266 . S
O58 C55 1.252 . S
O59 In52 2.326 . S
O59 C55 1.260 . S
O60 In52 2.266 . S
O60 C57 1.252 . S
O61 In52 2.326 . S
O61 C57 1.260 . S
C62 O53 1.240 . S
C62 O54 1.252 . S
O63 In52 2.294 . S
O63 C56 1.240 . S
O64 In52 2.326 . S
O64 C56 1.252 . S
In65 O66 2.294 . S
In65 O67 2.326 . S
In65 O71 2.266 . S
In65 O72 2.326 . S
In65 O73 2.266 . S
In65 O74 2.326 . S
In65 O76 2.294 . S
In65 O77 2.326 . S
O66 In65 2.294 . S
O66 C75 1.240 . S
O67 In65 2.326 . S
O67 C75 1.252 . S
C68 O71 1.252 . S
C68 O72 1.260 . S
C69 O76 1.240 . S
C69 O77 1.252 . S
C70 O73 1.252 . S
C70 O74 1.260 . S
O71 In65 2.266 . S
O71 C68 1.252 . S
O72 In65 2.326 . S
O72 C68 1.260 . S
O73 In65 2.266 . S
O73 C70 1.252 . S
O74 In65 2.326 . S
O74 C70 1.260 . S
C75 O66 1.240 . S
C75 O67 1.252 . S
O76 In65 2.294 . S
O76 C69 1.240 . S
O77 In65 2.326 . S
O77 C69 1.252 . S
In78 O79 2.294 . S
In78 O80 2.326 . S
In78 O84 2.266 . S
In78 O85 2.326 . S
In78 O86 2.266 . S
In78 O87 2.326 . S
In78 O89 2.294 . S
In78 O90 2.326 . S
O79 In78 2.294 . S
O79 C88 1.240 . S
O80 In78 2.326 . S
O80 C88 1.252 . S
C81 O84 1.252 . S
C81 O85 1.260 . S
C82 O89 1.240 . S
C82 O90 1.252 . S
C83 O86 1.252 . S
C83 O87 1.260 . S
O84 In78 2.266 . S
O84 C81 1.252 . S
O85 In78 2.326 . S
O85 C81 1.260 . S
O86 In78 2.266 . S
O86 C83 1.252 . S
O87 In78 2.326 . S
O87 C83 1.260 . S
C88 O79 1.240 . S
C88 O80 1.252 . S
O89 In78 2.294 . S
O89 C82 1.240 . S
O90 In78 2.326 . S
O90 C82 1.252 . S
In91 O92 2.295 . S
In91 O93 2.328 1_455 S
In91 O97 2.265 . S
In91 O98 2.324 . S
In91 O99 2.263 1_455 S
In91 O100 2.320 1_455 S
In91 O102 2.298 . S
In91 O103 2.332 . S
O92 In91 2.295 . S
O92 C101 1.235 . S
O93 In91 2.328 1_655 S
O93 C101 1.251 1_655 S
C94 O97 1.252 . S
C94 O98 1.260 . S
C95 O102 1.240 . S
C95 O103 1.252 . S
C96 O99 1.252 . S
C96 O100 1.260 . S
O97 In91 2.265 . S
O97 C94 1.252 . S
O98 In91 2.324 . S
O98 C94 1.260 . S
O99 In91 2.263 1_655 S
O99 C96 1.252 . S
O100 In91 2.320 1_655 S
O100 C96 1.260 . S
C101 O92 1.235 . S
C101 O93 1.251 1_455 S
O102 In91 2.298 . S
O102 C95 1.240 . S
O103 In91 2.332 . S
O103 C95 1.252 . S
In104 O105 2.294 . S
In104 O106 2.326 . S
In104 O110 2.266 . S
In104 O111 2.326 . S
In104 O112 2.266 1_545 S
In104 O113 2.326 1_545 S
In104 O115 2.294 . S
In104 O116 2.326 . S
O105 In104 2.294 . S
O105 C114 1.240 . S
O106 In104 2.326 . S
O106 C114 1.252 . S
C107 O110 1.252 . S
C107 O111 1.260 . S
C108 O115 1.240 . S
C108 O116 1.252 . S
C109 O112 1.252 . S
C109 O113 1.260 . S
O110 In104 2.266 . S
O110 C107 1.252 . S
O111 In104 2.326 . S
O111 C107 1.260 . S
O112 In104 2.266 1_565 S
O112 C109 1.252 . S
O113 In104 2.326 1_565 S
O113 C109 1.260 . S
C114 O105 1.240 . S
C114 O106 1.252 . S
O115 In104 2.294 . S
O115 C108 1.240 . S
O116 In104 2.326 . S
O116 C108 1.252 . S
In117 O118 2.294 . S
In117 O119 2.326 . S
In117 O123 2.266 . S
In117 O124 2.326 . S
In117 O125 2.266 . S
In117 O126 2.326 . S
In117 O128 2.294 . S
In117 O129 2.326 . S
O118 In117 2.294 . S
O118 C127 1.240 . S
O119 In117 2.326 . S
O119 C127 1.252 . S
C120 O123 1.252 . S
C120 O124 1.260 . S
C121 O128 1.240 . S
C121 O129 1.252 . S
C122 O125 1.252 . S
C122 O126 1.260 . S
O123 In117 2.266 . S
O123 C120 1.252 . S
O124 In117 2.326 . S
O124 C120 1.260 . S
O125 In117 2.266 . S
O125 C122 1.252 . S
O126 In117 2.326 . S
O126 C122 1.260 . S
C127 O118 1.240 . S
C127 O119 1.252 . S
O128 In117 2.294 . S
O128 C121 1.240 . S
O129 In117 2.326 . S
O129 C121 1.252 . S
In130 O131 2.294 . S
In130 O132 2.326 . S
In130 O136 2.266 . S
In130 O137 2.326 . S
In130 O138 2.266 . S
In130 O139 2.326 . S
In130 O141 2.294 . S
In130 O142 2.326 . S
O131 In130 2.294 . S
O131 C140 1.240 . S
O132 In130 2.326 . S
O132 C140 1.252 . S
C133 O136 1.252 . S
C133 O137 1.260 . S
C134 O141 1.240 . S
C134 O142 1.252 . S
C135 O138 1.252 . S
C135 O139 1.260 . S
O136 In130 2.266 . S
O136 C133 1.252 . S
O137 In130 2.326 . S
O137 C133 1.260 . S
O138 In130 2.266 . S
O138 C135 1.252 . S
O139 In130 2.326 . S
O139 C135 1.260 . S
C140 O131 1.240 . S
C140 O132 1.252 . S
O141 In130 2.294 . S
O141 C134 1.240 . S
O142 In130 2.326 . S
O142 C134 1.252 . S
In143 O144 2.296 . S
In143 O145 2.329 . S
In143 O149 2.264 1_554 S
In143 O150 2.322 1_554 S
In143 O151 2.257 1_554 S
In143 O152 2.324 1_554 S
In143 O154 2.294 . S
In143 O155 2.320 . S
O144 In143 2.296 . S
O144 C153 1.240 . S
O145 In143 2.329 . S
O145 C153 1.252 . S
C146 O149 1.252 . S
C146 O150 1.260 . S
C147 O154 1.240 . S
C147 O155 1.254 . S
C148 O151 1.252 . S
C148 O152 1.258 . S
O149 In143 2.264 1_556 S
O149 C146 1.252 . S
O150 In143 2.322 1_556 S
O150 C146 1.260 . S
O151 In143 2.257 1_556 S
O151 C148 1.252 . S
O152 In143 2.324 1_556 S
O152 C148 1.258 . S
C153 O144 1.240 . S
C153 O145 1.252 . S
O154 In143 2.294 . S
O154 C147 1.240 . S
O155 In143 2.320 . S
O155 C147 1.254 . S
In156 O157 2.294 . S
In156 O158 2.326 . S
In156 O162 2.266 . S
In156 O163 2.326 1_554 S
In156 O164 2.266 . S
In156 O165 2.326 . S
In156 O167 2.294 . S
In156 O168 2.326 . S
O157 In156 2.294 . S
O157 C166 1.240 . S
O158 In156 2.326 . S
O158 C166 1.252 . S
C159 O162 1.252 1_556 S
C159 O163 1.260 . S
C160 O167 1.240 . S
C160 O168 1.252 . S
C161 O164 1.252 . S
C161 O165 1.260 . S
O162 In156 2.266 . S
O162 C159 1.252 1_554 S
O163 In156 2.326 1_556 S
O163 C159 1.260 . S
O164 In156 2.266 . S
O164 C161 1.252 . S
O165 In156 2.326 . S
O165 C161 1.260 . S
C166 O157 1.240 . S
C166 O158 1.252 . S
O167 In156 2.294 . S
O167 C160 1.240 . S
O168 In156 2.326 . S
O168 C160 1.252 . S
In169 O170 2.294 . S
In169 O171 2.326 . S
In169 O175 2.266 . S
In169 O176 2.326 . S
In169 O177 2.266 . S
In169 O178 2.326 . S
In169 O180 2.294 . S
In169 O181 2.326 . S
O170 In169 2.294 . S
O170 C179 1.240 . S
O171 In169 2.326 . S
O171 C179 1.252 . S
C172 O175 1.252 . S
C172 O176 1.260 . S
C173 O180 1.240 . S
C173 O181 1.252 . S
C174 O177 1.252 . S
C174 O178 1.260 . S
O175 In169 2.266 . S
O175 C172 1.252 . S
O176 In169 2.326 . S
O176 C172 1.260 . S
O177 In169 2.266 . S
O177 C174 1.252 . S
O178 In169 2.326 . S
O178 C174 1.260 . S
C179 O170 1.240 . S
C179 O171 1.252 . S
O180 In169 2.294 . S
O180 C173 1.240 . S
O181 In169 2.326 . S
O181 C173 1.252 . S
In182 O183 2.294 . S
In182 O184 2.326 . S
In182 O188 2.266 . S
In182 O189 2.326 . S
In182 O190 2.266 . S
In182 O191 2.326 . S
In182 O193 2.294 . S
In182 O194 2.326 . S
O183 In182 2.294 . S
O183 C192 1.240 . S
O184 In182 2.326 . S
O184 C192 1.252 . S
C185 O188 1.252 . S
C185 O189 1.260 . S
C186 O193 1.240 . S
C186 O194 1.252 . S
C187 O190 1.252 . S
C187 O191 1.260 . S
O188 In182 2.266 . S
O188 C185 1.252 . S
O189 In182 2.326 . S
O189 C185 1.260 . S
O190 In182 2.266 . S
O190 C187 1.252 . S
O191 In182 2.326 . S
O191 C187 1.260 . S
C192 O183 1.240 . S
C192 O184 1.252 . S
O193 In182 2.294 . S
O193 C186 1.240 . S
O194 In182 2.326 . S
O194 C186 1.252 . S
In195 O196 2.294 . S
In195 O197 2.326 . S
In195 O201 2.266 . S
In195 O202 2.326 . S
In195 O203 2.266 . S
In195 O204 2.326 . S
In195 O206 2.294 . S
In195 O207 2.326 . S
O196 In195 2.294 . S
O196 C205 1.240 . S
O197 In195 2.326 . S
O197 C205 1.252 . S
C198 O201 1.252 . S
C198 O202 1.260 . S
C199 O206 1.240 . S
C199 O207 1.252 . S
C200 O203 1.252 . S
C200 O204 1.260 . S
O201 In195 2.266 . S
O201 C198 1.252 . S
O202 In195 2.326 . S
O202 C198 1.260 . S
O203 In195 2.266 . S
O203 C200 1.252 . S
O204 In195 2.326 . S
O204 C200 1.260 . S
C205 O196 1.240 . S
C205 O197 1.252 . S
O206 In195 2.294 . S
O206 C199 1.240 . S
O207 In195 2.326 . S
O207 C199 1.252 . S
In208 O209 2.294 . S
In208 O210 2.326 . S
In208 O214 2.266 . S
In208 O215 2.326 . S
In208 O216 2.269 1_545 S
In208 O217 2.326 1_545 S
In208 O219 2.294 . S
In208 O220 2.326 . S
O209 In208 2.294 . S
O209 C218 1.240 . S
O210 In208 2.326 . S
O210 C218 1.252 . S
C211 O214 1.252 . S
C211 O215 1.260 . S
C212 O219 1.240 . S
C212 O220 1.252 . S
C213 O216 1.248 . S
C213 O217 1.260 . S
O214 In208 2.266 . S
O214 C211 1.252 . S
O215 In208 2.326 . S
O215 C211 1.260 . S
O216 In208 2.269 1_565 S
O216 C213 1.248 . S
O217 In208 2.326 1_565 S
O217 C213 1.260 . S
C218 O209 1.240 . S
C218 O210 1.252 . S
O219 In208 2.294 . S
O219 C212 1.240 . S
O220 In208 2.326 . S
O220 C212 1.252 . S
In221 O222 2.294 . S
In221 O223 2.326 . S
In221 O227 2.266 . S
In221 O228 2.326 . S
In221 O229 2.266 . S
In221 O230 2.326 . S
In221 O232 2.294 . S
In221 O233 2.326 . S
O222 In221 2.294 . S
O222 C231 1.240 . S
O223 In221 2.326 . S
O223 C231 1.252 . S
C224 O227 1.252 . S
C224 O228 1.260 . S
C225 O232 1.240 . S
C225 O233 1.252 . S
C226 O229 1.252 . S
C226 O230 1.260 . S
O227 In221 2.266 . S
O227 C224 1.252 . S
O228 In221 2.326 . S
O228 C224 1.260 . S
O229 In221 2.266 . S
O229 C226 1.252 . S
O230 In221 2.326 . S
O230 C226 1.260 . S
C231 O222 1.240 . S
C231 O223 1.252 . S
O232 In221 2.294 . S
O232 C225 1.240 . S
O233 In221 2.326 . S
O233 C225 1.252 . S
In234 O235 2.294 . S
In234 O236 2.326 . S
In234 O240 2.266 . S
In234 O241 2.326 . S
In234 O242 2.266 . S
In234 O243 2.326 . S
In234 O245 2.294 . S
In234 O246 2.326 . S
O235 In234 2.294 . S
O235 C244 1.240 . S
O236 In234 2.326 . S
O236 C244 1.252 . S
C237 O240 1.252 . S
C237 O241 1.260 . S
C238 O245 1.240 . S
C238 O246 1.252 . S
C239 O242 1.252 . S
C239 O243 1.260 . S
O240 In234 2.266 . S
O240 C237 1.252 . S
O241 In234 2.326 . S
O241 C237 1.260 . S
O242 In234 2.266 . S
O242 C239 1.252 . S
O243 In234 2.326 . S
O243 C239 1.260 . S
C244 O235 1.240 . S
C244 O236 1.252 . S
O245 In234 2.294 . S
O245 C238 1.240 . S
O246 In234 2.326 . S
O246 C238 1.252 . S
In247 O248 2.294 . S
In247 O249 2.326 . S
In247 O253 2.266 . S
In247 O254 2.326 . S
In247 O255 2.266 . S
In247 O256 2.326 . S
In247 O258 2.294 . S
In247 O259 2.326 . S
O248 In247 2.294 . S
O248 C257 1.240 . S
O249 In247 2.326 . S
O249 C257 1.252 . S
C250 O253 1.252 . S
C250 O254 1.260 . S
C251 O258 1.240 . S
C251 O259 1.252 . S
C252 O255 1.252 . S
C252 O256 1.260 . S
O253 In247 2.266 . S
O253 C250 1.252 . S
O254 In247 2.326 . S
O254 C250 1.260 . S
O255 In247 2.266 . S
O255 C252 1.252 . S
O256 In247 2.326 . S
O256 C252 1.260 . S
C257 O248 1.240 . S
C257 O249 1.252 . S
O258 In247 2.294 . S
O258 C251 1.240 . S
O259 In247 2.326 . S
O259 C251 1.252 . S
In260 O261 2.294 . S
In260 O262 2.326 . S
In260 O266 2.266 . S
In260 O267 2.326 . S
In260 O268 2.266 . S
In260 O269 2.326 1_554 S
In260 O271 2.294 . S
In260 O272 2.326 . S
O261 In260 2.294 . S
O261 C270 1.240 . S
O262 In260 2.326 . S
O262 C270 1.252 . S
C263 O266 1.252 . S
C263 O267 1.260 . S
C264 O271 1.240 . S
C264 O272 1.252 . S
C265 O268 1.252 1_556 S
C265 O269 1.260 . S
O266 In260 2.266 . S
O266 C263 1.252 . S
O267 In260 2.326 . S
O267 C263 1.260 . S
O268 In260 2.266 . S
O268 C265 1.252 1_554 S
O269 In260 2.326 1_556 S
O269 C265 1.260 . S
C270 O261 1.240 . S
C270 O262 1.252 . S
O271 In260 2.294 . S
O271 C264 1.240 . S
O272 In260 2.326 . S
O272 C264 1.252 . S
In273 O274 2.294 . S
In273 O275 2.326 . S
In273 O279 2.266 . S
In273 O280 2.326 . S
In273 O281 2.266 . S
In273 O282 2.326 . S
In273 O284 2.294 . S
In273 O285 2.326 . S
O274 In273 2.294 . S
O274 C283 1.240 . S
O275 In273 2.326 . S
O275 C283 1.252 . S
C276 O279 1.252 . S
C276 O280 1.260 . S
C277 O284 1.240 . S
C277 O285 1.252 . S
C278 O281 1.252 . S
C278 O282 1.260 . S
O279 In273 2.266 . S
O279 C276 1.252 . S
O280 In273 2.326 . S
O280 C276 1.260 . S
O281 In273 2.266 . S
O281 C278 1.252 . S
O282 In273 2.326 . S
O282 C278 1.260 . S
C283 O274 1.240 . S
C283 O275 1.252 . S
O284 In273 2.294 . S
O284 C277 1.240 . S
O285 In273 2.326 . S
O285 C277 1.252 . S
In286 O287 2.294 . S
In286 O288 2.326 . S
In286 O292 2.266 . S
In286 O293 2.326 . S
In286 O294 2.266 . S
In286 O295 2.326 . S
In286 O297 2.294 . S
In286 O298 2.326 . S
O287 In286 2.294 . S
O287 C296 1.240 . S
O288 In286 2.326 . S
O288 C296 1.252 . S
C289 O292 1.252 . S
C289 O293 1.260 . S
C290 O297 1.240 . S
C290 O298 1.252 . S
C291 O294 1.252 . S
C291 O295 1.260 . S
O292 In286 2.266 . S
O292 C289 1.252 . S
O293 In286 2.326 . S
O293 C289 1.260 . S
O294 In286 2.266 . S
O294 C291 1.252 . S
O295 In286 2.326 . S
O295 C291 1.260 . S
C296 O287 1.240 . S
C296 O288 1.252 . S
O297 In286 2.294 . S
O297 C290 1.240 . S
O298 In286 2.326 . S
O298 C290 1.252 . S
In299 O300 2.294 . S
In299 O301 2.326 . S
In299 O305 2.266 . S
In299 O306 2.326 . S
In299 O307 2.266 . S
In299 O308 2.326 . S
In299 O310 2.294 . S
In299 O311 2.326 . S
O300 In299 2.294 . S
O300 C309 1.240 . S
O301 In299 2.326 . S
O301 C309 1.252 . S
C302 O305 1.252 . S
C302 O306 1.260 . S
C303 O310 1.240 . S
C303 O311 1.252 . S
C304 O307 1.252 . S
C304 O308 1.260 . S
O305 In299 2.266 . S
O305 C302 1.252 . S
O306 In299 2.326 . S
O306 C302 1.260 . S
O307 In299 2.266 . S
O307 C304 1.252 . S
O308 In299 2.326 . S
O308 C304 1.260 . S
C309 O300 1.240 . S
C309 O301 1.252 . S
O310 In299 2.294 . S
O310 C303 1.240 . S
O311 In299 2.326 . S
O311 C303 1.252 . S
Dy312 O315 2.307 . S
Dy312 O317 2.395 . S
Dy312 O318 2.379 . S
Dy312 O320 2.339 . S
Dy312 O322 2.298 . S
Dy312 O326 2.275 . S
Dy312 C334 2.738 . S
Dy313 O316 2.298 . S
Dy313 O319 2.275 . S
Dy313 O321 2.307 . S
Dy313 O323 2.395 1_455 S
Dy313 O324 2.379 1_455 S
Dy313 O327 2.339 1_554 S
Dy313 C343 2.738 1_455 S
C314 O326 1.254 . S
C314 O327 1.257 1_554 S
O315 Dy312 2.307 . S
O315 C325 1.266 . S
O316 Dy313 2.298 . S
O316 C325 1.236 . S
O317 Dy312 2.395 . S
O317 C334 1.255 . S
O318 Dy312 2.379 . S
O318 C334 1.249 . S
O319 Dy313 2.275 . S
O319 C335 1.254 . S
O320 Dy312 2.339 . S
O320 C335 1.257 . S
O321 Dy313 2.307 . S
O321 C336 1.266 . S
O322 Dy312 2.298 . S
O322 C336 1.236 . S
O323 Dy313 2.395 1_655 S
O323 C343 1.255 . S
O324 Dy313 2.379 1_655 S
O324 C343 1.249 . S
C325 O315 1.266 . S
C325 O316 1.236 . S
O326 Dy312 2.275 . S
O326 C314 1.254 . S
O327 Dy313 2.339 1_556 S
O327 C314 1.257 1_556 S
C328 C331 1.344 . S
C328 C332 1.328 . S
C328 C334 1.516 . S
C329 C330 1.304 . S
C329 C333 1.323 . S
C330 C329 1.304 . S
C330 C331 1.371 . S
C330 H344 0.930 . S
C331 C328 1.344 . S
C331 C330 1.371 . S
C331 H345 0.931 . S
C332 C328 1.328 . S
C332 C333 1.433 . S
C332 H346 0.931 . S
C333 C329 1.323 . S
C333 C332 1.433 . S
C333 H347 0.933 . S
C334 Dy312 2.738 . S
C334 O317 1.255 . S
C334 O318 1.249 . S
C334 C328 1.516 . S
C335 O319 1.254 . S
C335 O320 1.257 . S
C336 O321 1.266 . S
C336 O322 1.236 . S
C337 C340 1.344 . S
C337 C341 1.328 . S
C337 C343 1.516 . S
C338 C339 1.304 . S
C338 C342 1.323 . S
C339 C338 1.304 . S
C339 C340 1.371 . S
C339 H348 0.930 . S
C340 C337 1.344 . S
C340 C339 1.371 . S
C340 H349 0.931 . S
C341 C337 1.328 . S
C341 C342 1.433 . S
C341 H350 0.931 1_554 S
C342 C338 1.323 . S
C342 C341 1.433 . S
C342 H351 0.933 1_554 S
C343 Dy313 2.738 1_655 S
C343 O323 1.255 . S
C343 O324 1.249 . S
C343 C337 1.516 . S
H344 C330 0.930 . S
H345 C331 0.931 . S
H346 C332 0.931 . S
H347 C333 0.933 . S
H348 C339 0.930 . S
H349 C340 0.931 . S
H350 C341 0.931 1_556 S
H351 C342 0.933 1_556 S
Dy352 O355 2.307 . S
Dy352 O357 2.395 . S
Dy352 O358 2.379 . S
Dy352 O360 2.339 . S
Dy352 O362 2.298 . S
Dy352 O366 2.275 . S
Dy352 C374 2.738 . S
Dy353 O356 2.298 . S
Dy353 O359 2.275 . S
Dy353 O361 2.307 . S
Dy353 O363 2.395 . S
Dy353 O364 2.379 . S
Dy353 O367 2.339 . S
Dy353 C383 2.738 . S
C354 O366 1.254 . S
C354 O367 1.257 . S
O355 Dy352 2.307 . S
O355 C365 1.266 . S
O356 Dy353 2.298 . S
O356 C365 1.236 . S
O357 Dy352 2.395 . S
O357 C374 1.255 . S
O358 Dy352 2.379 . S
O358 C374 1.249 . S
O359 Dy353 2.275 . S
O359 C375 1.254 . S
O360 Dy352 2.339 . S
O360 C375 1.257 . S
O361 Dy353 2.307 . S
O361 C376 1.266 . S
O362 Dy352 2.298 . S
O362 C376 1.236 . S
O363 Dy353 2.395 . S
O363 C383 1.255 . S
O364 Dy353 2.379 . S
O364 C383 1.249 . S
C365 O355 1.266 . S
C365 O356 1.236 . S
O366 Dy352 2.275 . S
O366 C354 1.254 . S
O367 Dy353 2.339 . S
O367 C354 1.257 . S
C368 C371 1.344 . S
C368 C372 1.328 . S
C368 C374 1.516 . S
C369 C370 1.304 . S
C369 C373 1.323 . S
C370 C369 1.304 . S
C370 C371 1.371 . S
C370 H384 0.930 . S
C371 C368 1.344 . S
C371 C370 1.371 . S
C371 H385 0.931 . S
C372 C368 1.328 . S
C372 C373 1.433 . S
C372 H386 0.931 . S
C373 C369 1.323 . S
C373 C372 1.433 . S
C373 H387 0.933 . S
C374 Dy352 2.738 . S
C374 O357 1.255 . S
C374 O358 1.249 . S
C374 C368 1.516 . S
C375 O359 1.254 . S
C375 O360 1.257 . S
C376 O361 1.266 . S
C376 O362 1.236 . S
C377 C380 1.344 . S
C377 C381 1.328 . S
C377 C383 1.516 . S
C378 C379 1.304 . S
C378 C382 1.323 . S
C379 C378 1.304 . S
C379 C380 1.371 . S
C379 H388 0.930 . S
C380 C377 1.344 . S
C380 C379 1.371 . S
C380 H389 0.931 . S
C381 C377 1.328 . S
C381 C382 1.433 . S
C381 H390 0.931 . S
C382 C378 1.323 . S
C382 C381 1.433 . S
C382 H391 0.933 . S
C383 Dy353 2.738 . S
C383 O363 1.255 . S
C383 O364 1.249 . S
C383 C377 1.516 . S
H384 C370 0.930 . S
H385 C371 0.931 . S
H386 C372 0.931 . S
H387 C373 0.933 . S
H388 C379 0.930 . S
H389 C380 0.931 . S
H390 C381 0.931 . S
H391 C382 0.933 . S
Dy392 O395 2.307 1_545 S
Dy392 O397 2.395 . S
Dy392 O398 2.379 . S
Dy392 O400 2.339 . S
Dy392 O402 2.298 . S
Dy392 O406 2.275 . S
Dy392 C414 2.738 . S
Dy393 O396 2.298 1_545 S
Dy393 O399 2.275 . S
Dy393 O401 2.307 . S
Dy393 O403 2.395 . S
Dy393 O404 2.379 . S
Dy393 O407 2.339 . S
Dy393 C423 2.738 . S
C394 O406 1.254 . S
C394 O407 1.257 . S
O395 Dy392 2.307 1_565 S
O395 C405 1.266 . S
O396 Dy393 2.298 1_565 S
O396 C405 1.236 . S
O397 Dy392 2.395 . S
O397 C414 1.255 . S
O398 Dy392 2.379 . S
O398 C414 1.249 . S
O399 Dy393 2.275 . S
O399 C415 1.254 . S
O400 Dy392 2.339 . S
O400 C415 1.257 . S
O401 Dy393 2.307 . S
O401 C416 1.266 . S
O402 Dy392 2.298 . S
O402 C416 1.236 . S
O403 Dy393 2.395 . S
O403 C423 1.255 . S
O404 Dy393 2.379 . S
O404 C423 1.249 . S
C405 O395 1.266 . S
C405 O396 1.236 . S
O406 Dy392 2.275 . S
O406 C394 1.254 . S
O407 Dy393 2.339 . S
O407 C394 1.257 . S
C408 C411 1.344 . S
C408 C412 1.328 . S
C408 C414 1.516 . S
C409 C410 1.304 . S
C409 C413 1.323 . S
C410 C409 1.304 . S
C410 C411 1.371 . S
C410 H424 0.930 . S
C411 C408 1.344 . S
C411 C410 1.371 . S
C411 H425 0.931 . S
C412 C408 1.328 . S
C412 C413 1.433 . S
C412 H426 0.931 . S
C413 C409 1.323 . S
C413 C412 1.433 . S
C413 H427 0.933 . S
C414 Dy392 2.738 . S
C414 O397 1.255 . S
C414 O398 1.249 . S
C414 C408 1.516 . S
C415 O399 1.254 . S
C415 O400 1.257 . S
C416 O401 1.266 . S
C416 O402 1.236 . S
C417 C420 1.344 . S
C417 C421 1.328 . S
C417 C423 1.516 1_565 S
C418 C419 1.304 . S
C418 C422 1.323 . S
C419 C418 1.304 . S
C419 C420 1.371 . S
C419 H428 0.930 . S
C420 C417 1.344 . S
C420 C419 1.371 . S
C420 H429 0.931 . S
C421 C417 1.328 . S
C421 C422 1.433 . S
C421 H430 0.951 . S
C422 C418 1.323 . S
C422 C421 1.433 . S
C422 H431 0.933 . S
C423 Dy393 2.738 . S
C423 O403 1.255 . S
C423 O404 1.249 . S
C423 C417 1.516 1_545 S
H424 C410 0.930 . S
H425 C411 0.931 . S
H426 C412 0.931 . S
H427 C413 0.933 . S
H428 C419 0.930 . S
H429 C420 0.931 . S
H430 C421 0.951 . S
H431 C422 0.933 . S
Dy432 O435 2.307 . S
Dy432 O437 2.395 . S
Dy432 O438 2.379 . S
Dy432 O440 2.339 . S
Dy432 O442 2.298 . S
Dy432 O446 2.275 . S
Dy432 C454 2.738 . S
Dy433 O436 2.298 . S
Dy433 O439 2.275 . S
Dy433 O441 2.307 . S
Dy433 O443 2.395 . S
Dy433 O444 2.379 . S
Dy433 O447 2.339 . S
Dy433 C463 2.738 . S
C434 O446 1.254 . S
C434 O447 1.257 . S
O435 Dy432 2.307 . S
O435 C445 1.266 . S
O436 Dy433 2.298 . S
O436 C445 1.236 . S
O437 Dy432 2.395 . S
O437 C454 1.255 . S
O438 Dy432 2.379 . S
O438 C454 1.249 . S
O439 Dy433 2.275 . S
O439 C455 1.254 . S
O440 Dy432 2.339 . S
O440 C455 1.257 . S
O441 Dy433 2.307 . S
O441 C456 1.266 . S
O442 Dy432 2.298 . S
O442 C456 1.236 . S
O443 Dy433 2.395 . S
O443 C463 1.255 . S
O444 Dy433 2.379 . S
O444 C463 1.249 . S
C445 O435 1.266 . S
C445 O436 1.236 . S
O446 Dy432 2.275 . S
O446 C434 1.254 . S
O447 Dy433 2.339 . S
O447 C434 1.257 . S
C448 C451 1.344 . S
C448 C452 1.328 . S
C448 C454 1.516 . S
C449 C450 1.304 . S
C449 C453 1.323 . S
C450 C449 1.304 . S
C450 C451 1.371 . S
C450 H464 0.930 . S
C451 C448 1.344 . S
C451 C450 1.371 . S
C451 H465 0.931 . S
C452 C448 1.328 . S
C452 C453 1.433 . S
C452 H466 0.931 . S
C453 C449 1.323 . S
C453 C452 1.433 . S
C453 H467 0.933 . S
C454 Dy432 2.738 . S
C454 O437 1.255 . S
C454 O438 1.249 . S
C454 C448 1.516 . S
C455 O439 1.254 . S
C455 O440 1.257 . S
C456 O441 1.266 . S
C456 O442 1.236 . S
C457 C460 1.344 . S
C457 C461 1.328 . S
C457 C463 1.516 . S
C458 C459 1.304 . S
C458 C462 1.323 . S
C459 C458 1.304 . S
C459 C460 1.371 . S
C459 H468 0.930 . S
C460 C457 1.344 . S
C460 C459 1.371 . S
C460 H469 0.931 . S
C461 C457 1.328 . S
C461 C462 1.433 . S
C461 H470 0.931 . S
C462 C458 1.323 . S
C462 C461 1.433 . S
C462 H471 0.933 . S
C463 Dy433 2.738 . S
C463 O443 1.255 . S
C463 O444 1.249 . S
C463 C457 1.516 . S
H464 C450 0.930 . S
H465 C451 0.931 . S
H466 C452 0.931 . S
H467 C453 0.933 . S
H468 C459 0.930 . S
H469 C460 0.931 . S
H470 C461 0.931 . S
H471 C462 0.933 . S
Dy472 O475 2.307 . S
Dy472 O477 2.395 1_545 S
Dy472 O478 2.379 1_545 S
Dy472 O480 2.339 . S
Dy472 O482 2.298 . S
Dy472 O486 2.275 . S
Dy472 C494 2.738 1_545 S
Dy473 O476 2.298 . S
Dy473 O479 2.275 . S
Dy473 O481 2.307 . S
Dy473 O483 2.395 . S
Dy473 O484 2.379 . S
Dy473 O487 2.339 1_455 S
Dy473 C503 2.738 . S
C474 O486 1.219 1_655 S
C474 O487 1.271 . S
O475 Dy472 2.307 . S
O475 C485 1.266 . S
O476 Dy473 2.298 . S
O476 C485 1.236 . S
O477 Dy472 2.395 1_565 S
O477 C494 1.255 . S
O478 Dy472 2.379 1_565 S
O478 C494 1.249 . S
O479 Dy473 2.275 . S
O479 C495 1.254 . S
O480 Dy472 2.339 . S
O480 C495 1.257 . S
O481 Dy473 2.307 . S
O481 C496 1.266 . S
O482 Dy472 2.298 . S
O482 C496 1.236 . S
O483 Dy473 2.395 . S
O483 C503 1.255 . S
O484 Dy473 2.379 . S
O484 C503 1.249 . S
C485 O475 1.266 . S
C485 O476 1.236 . S
O486 Dy472 2.275 . S
O486 C474 1.219 1_455 S
O487 Dy473 2.339 1_655 S
O487 C474 1.271 . S
C488 C491 1.344 . S
C488 C492 1.328 . S
C488 C494 1.516 . S
C489 C490 1.304 . S
C489 C493 1.323 . S
C490 C489 1.304 . S
C490 C491 1.371 . S
C490 H504 0.930 . S
C491 C488 1.344 . S
C491 C490 1.371 . S
C491 H505 0.931 . S
C492 C488 1.328 . S
C492 C493 1.433 . S
C492 H506 0.931 . S
C493 C489 1.323 . S
C493 C492 1.433 . S
C493 H507 0.933 . S
C494 Dy472 2.738 1_565 S
C494 O477 1.255 . S
C494 O478 1.249 . S
C494 C488 1.516 . S
C495 O479 1.254 . S
C495 O480 1.257 . S
C496 O481 1.266 . S
C496 O482 1.236 . S
C497 C500 1.344 . S
C497 C501 1.328 . S
C497 C503 1.516 . S
C498 C499 1.304 . S
C498 C502 1.323 . S
C499 C498 1.304 . S
C499 C500 1.371 . S
C499 H508 0.930 . S
C500 C497 1.344 . S
C500 C499 1.371 . S
C500 H509 0.931 . S
C501 C497 1.328 . S
C501 C502 1.433 . S
C501 H510 0.931 1_455 S
C502 C498 1.323 . S
C502 C501 1.433 . S
C502 H511 0.933 1_455 S
C503 Dy473 2.738 . S
C503 O483 1.255 . S
C503 O484 1.249 . S
C503 C497 1.516 . S
H504 C490 0.930 . S
H505 C491 0.931 . S
H506 C492 0.931 . S
H507 C493 0.933 . S
H508 C499 0.930 . S
H509 C500 0.931 . S
H510 C501 0.931 1_655 S
H511 C502 0.933 1_655 S
Dy512 O515 2.307 . S
Dy512 O517 2.395 . S
Dy512 O518 2.379 . S
Dy512 O520 2.339 . S
Dy512 O522 2.298 . S
Dy512 O526 2.275 . S
Dy512 C534 2.738 . S
Dy513 O516 2.298 . S
Dy513 O519 2.275 . S
Dy513 O521 2.307 . S
Dy513 O523 2.395 . S
Dy513 O524 2.379 . S
Dy513 O527 2.339 . S
Dy513 C543 2.738 . S
C514 O526 1.254 . S
C514 O527 1.257 . S
O515 Dy512 2.307 . S
O515 C525 1.266 . S
O516 Dy513 2.298 . S
O516 C525 1.236 . S
O517 Dy512 2.395 . S
O517 C534 1.255 . S
O518 Dy512 2.379 . S
O518 C534 1.249 . S
O519 Dy513 2.275 . S
O519 C535 1.254 . S
O520 Dy512 2.339 . S
O520 C535 1.257 . S
O521 Dy513 2.307 . S
O521 C536 1.266 . S
O522 Dy512 2.298 . S
O522 C536 1.236 . S
O523 Dy513 2.395 . S
O523 C543 1.255 . S
O524 Dy513 2.379 . S
O524 C543 1.249 . S
C525 O515 1.266 . S
C525 O516 1.236 . S
O526 Dy512 2.275 . S
O526 C514 1.254 . S
O527 Dy513 2.339 . S
O527 C514 1.257 . S
C528 C531 1.344 . S
C528 C532 1.328 . S
C528 C534 1.516 . S
C529 C530 1.304 . S
C529 C533 1.323 . S
C530 C529 1.304 . S
C530 C531 1.371 . S
C530 H544 0.930 . S
C531 C528 1.344 . S
C531 C530 1.371 . S
C531 H545 0.931 . S
C532 C528 1.328 . S
C532 C533 1.433 . S
C532 H546 0.931 . S
C533 C529 1.323 . S
C533 C532 1.433 . S
C533 H547 0.933 . S
C534 Dy512 2.738 . S
C534 O517 1.255 . S
C534 O518 1.249 . S
C534 C528 1.516 . S
C535 O519 1.254 . S
C535 O520 1.257 . S
C536 O521 1.266 . S
C536 O522 1.236 . S
C537 C540 1.344 . S
C537 C541 1.328 . S
C537 C543 1.516 . S
C538 C539 1.304 . S
C538 C542 1.323 . S
C539 C538 1.304 . S
C539 C540 1.371 . S
C539 H548 0.930 . S
C540 C537 1.344 . S
C540 C539 1.371 . S
C540 H549 0.931 . S
C541 C537 1.328 . S
C541 C542 1.433 . S
C541 H550 0.931 . S
C542 C538 1.323 . S
C542 C541 1.433 . S
C542 H551 0.933 . S
C543 Dy513 2.738 . S
C543 O523 1.255 . S
C543 O524 1.249 . S
C543 C537 1.516 . S
H544 C530 0.930 . S
H545 C531 0.931 . S
H546 C532 0.931 . S
H547 C533 0.933 . S
H548 C539 0.930 . S
H549 C540 0.931 . S
H550 C541 0.931 . S
H551 C542 0.933 . S
Dy552 O555 2.307 1_556 S
Dy552 O557 2.395 . S
Dy552 O558 2.379 . S
Dy552 O560 2.339 1_556 S
Dy552 O562 2.298 1_556 S
Dy552 O566 2.275 1_556 S
Dy552 C574 2.738 . S
Dy553 O556 2.298 . S
Dy553 O559 2.275 . S
Dy553 O561 2.307 . S
Dy553 O563 2.395 . S
Dy553 O564 2.379 . S
Dy553 O567 2.339 . S
Dy553 C583 2.738 . S
C554 O566 1.254 . S
C554 O567 1.257 . S
O555 Dy552 2.307 1_554 S
O555 C565 1.266 . S
O556 Dy553 2.298 . S
O556 C565 1.236 . S
O557 Dy552 2.395 . S
O557 C574 1.255 . S
O558 Dy552 2.379 . S
O558 C574 1.249 . S
O559 Dy553 2.275 . S
O559 C575 1.254 . S
O560 Dy552 2.339 1_554 S
O560 C575 1.257 . S
O561 Dy553 2.307 . S
O561 C576 1.266 . S
O562 Dy552 2.298 1_554 S
O562 C576 1.236 . S
O563 Dy553 2.395 . S
O563 C583 1.255 . S
O564 Dy553 2.379 . S
O564 C583 1.249 . S
C565 O555 1.266 . S
C565 O556 1.236 . S
O566 Dy552 2.275 1_554 S
O566 C554 1.254 . S
O567 Dy553 2.339 . S
O567 C554 1.257 . S
C568 C571 1.344 . S
C568 C572 1.328 . S
C568 C574 1.516 . S
C569 C570 1.304 . S
C569 C573 1.323 . S
C570 C569 1.304 . S
C570 C571 1.371 . S
C570 H584 0.930 . S
C571 C568 1.344 . S
C571 C570 1.371 . S
C571 H585 0.931 . S
C572 C568 1.328 . S
C572 C573 1.433 . S
C572 H586 0.931 . S
C573 C569 1.323 . S
C573 C572 1.433 . S
C573 H587 0.933 . S
C574 Dy552 2.738 . S
C574 O557 1.255 . S
C574 O558 1.249 . S
C574 C568 1.516 . S
C575 O559 1.254 . S
C575 O560 1.257 . S
C576 O561 1.266 . S
C576 O562 1.236 . S
C577 C580 1.344 . S
C577 C581 1.328 1_545 S
C577 C583 1.516 . S
C578 C579 1.304 . S
C578 C582 1.323 1_545 S
C579 C578 1.304 . S
C579 C580 1.371 . S
C579 H588 0.930 . S
C580 C577 1.344 . S
C580 C579 1.371 . S
C580 H589 0.931 . S
C581 C577 1.328 1_565 S
C581 C582 1.433 . S
C581 H590 0.931 . S
C582 C578 1.323 1_565 S
C582 C581 1.433 . S
C582 H591 0.933 . S
C583 Dy553 2.738 . S
C583 O563 1.255 . S
C583 O564 1.249 . S
C583 C577 1.516 . S
H584 C570 0.930 . S
H585 C571 0.931 . S
H586 C572 0.931 . S
H587 C573 0.933 . S
H588 C579 0.930 . S
H589 C580 0.931 . S
H590 C581 0.931 . S
H591 C582 0.933 . S
Dy592 O595 2.307 . S
Dy592 O597 2.395 . S
Dy592 O598 2.379 . S
Dy592 O600 2.339 . S
Dy592 O602 2.298 . S
Dy592 O606 2.275 . S
Dy592 C614 2.738 . S
Dy593 O596 2.298 . S
Dy593 O599 2.275 . S
Dy593 O601 2.307 . S
Dy593 O603 2.395 . S
Dy593 O604 2.379 . S
Dy593 O607 2.339 . S
Dy593 C623 2.738 . S
C594 O606 1.254 . S
C594 O607 1.257 . S
O595 Dy592 2.307 . S
O595 C605 1.266 . S
O596 Dy593 2.298 . S
O596 C605 1.236 . S
O597 Dy592 2.395 . S
O597 C614 1.255 . S
O598 Dy592 2.379 . S
O598 C614 1.249 . S
O599 Dy593 2.275 . S
O599 C615 1.254 . S
O600 Dy592 2.339 . S
O600 C615 1.257 . S
O601 Dy593 2.307 . S
O601 C616 1.266 . S
O602 Dy592 2.298 . S
O602 C616 1.236 . S
O603 Dy593 2.395 . S
O603 C623 1.255 . S
O604 Dy593 2.379 . S
O604 C623 1.249 . S
C605 O595 1.266 . S
C605 O596 1.236 . S
O606 Dy592 2.275 . S
O606 C594 1.254 . S
O607 Dy593 2.339 . S
O607 C594 1.257 . S
C608 C611 1.344 . S
C608 C612 1.328 . S
C608 C614 1.516 . S
C609 C610 1.304 . S
C609 C613 1.323 . S
C610 C609 1.304 . S
C610 C611 1.371 . S
C610 H624 0.930 . S
C611 C608 1.344 . S
C611 C610 1.371 . S
C611 H625 0.931 . S
C612 C608 1.328 . S
C612 C613 1.433 . S
C612 H626 0.931 . S
C613 C609 1.323 . S
C613 C612 1.433 . S
C613 H627 0.933 . S
C614 Dy592 2.738 . S
C614 O597 1.255 . S
C614 O598 1.249 . S
C614 C608 1.516 . S
C615 O599 1.254 . S
C615 O600 1.257 . S
C616 O601 1.266 . S
C616 O602 1.236 . S
C617 C620 1.344 . S
C617 C621 1.328 . S
C617 C623 1.516 . S
C618 C619 1.304 . S
C618 C622 1.323 . S
C619 C618 1.304 . S
C619 C620 1.371 . S
C619 H628 0.930 . S
C620 C617 1.344 . S
C620 C619 1.371 . S
C620 H629 0.931 . S
C621 C617 1.328 . S
C621 C622 1.433 . S
C621 H630 0.931 . S
C622 C618 1.323 . S
C622 C621 1.433 . S
C622 H631 0.933 . S
C623 Dy593 2.738 . S
C623 O603 1.255 . S
C623 O604 1.249 . S
C623 C617 1.516 . S
H624 C610 0.930 . S
H625 C611 0.931 . S
H626 C612 0.931 . S
H627 C613 0.933 . S
H628 C619 0.930 . S
H629 C620 0.931 . S
H630 C621 0.931 . S
H631 C622 0.933 . S
Dy632 O635 2.307 1_554 S
Dy632 O637 2.395 . S
Dy632 O638 2.379 . S
Dy632 O640 2.339 . S
Dy632 O642 2.298 . S
Dy632 O646 2.275 . S
Dy632 C654 2.738 . S
Dy633 O636 2.298 1_554 S
Dy633 O639 2.275 . S
Dy633 O641 2.307 . S
Dy633 O643 2.395 . S
Dy633 O644 2.379 . S
Dy633 O647 2.339 . S
Dy633 C663 2.738 . S
C634 O646 1.254 . S
C634 O647 1.257 . S
O635 Dy632 2.307 1_556 S
O635 C645 1.266 . S
O636 Dy633 2.298 1_556 S
O636 C645 1.236 . S
O637 Dy632 2.395 . S
O637 C654 1.255 . S
O638 Dy632 2.379 . S
O638 C654 1.249 . S
O639 Dy633 2.275 . S
O639 C655 1.254 . S
O640 Dy632 2.339 . S
O640 C655 1.257 . S
O641 Dy633 2.307 . S
O641 C656 1.266 . S
O642 Dy632 2.298 . S
O642 C656 1.236 . S
O643 Dy633 2.395 . S
O643 C663 1.255 . S
O644 Dy633 2.379 . S
O644 C663 1.249 . S
C645 O635 1.266 . S
C645 O636 1.236 . S
O646 Dy632 2.275 . S
O646 C634 1.254 . S
O647 Dy633 2.339 . S
O647 C634 1.257 . S
C648 C651 1.344 . S
C648 C652 1.328 . S
C648 C654 1.516 . S
C649 C650 1.304 . S
C649 C653 1.323 . S
C650 C649 1.304 . S
C650 C651 1.371 . S
C650 H664 0.930 . S
C651 C648 1.344 . S
C651 C650 1.371 . S
C651 H665 0.931 . S
C652 C648 1.328 . S
C652 C653 1.433 . S
C652 H666 0.931 . S
C653 C649 1.323 . S
C653 C652 1.433 . S
C653 H667 0.933 . S
C654 Dy632 2.738 . S
C654 O637 1.255 . S
C654 O638 1.249 . S
C654 C648 1.516 . S
C655 O639 1.254 . S
C655 O640 1.257 . S
C656 O641 1.266 . S
C656 O642 1.236 . S
C657 C660 1.344 . S
C657 C661 1.328 . S
C657 C663 1.516 1_556 S
C658 C659 1.304 . S
C658 C662 1.323 . S
C659 C658 1.304 . S
C659 C660 1.371 . S
C659 H668 0.930 . S
C660 C657 1.344 . S
C660 C659 1.371 . S
C660 H669 0.931 . S
C661 C657 1.328 . S
C661 C662 1.433 . S
C661 H670 0.931 . S
C662 C658 1.323 . S
C662 C661 1.433 . S
C662 H671 0.933 . S
C663 Dy633 2.738 . S
C663 O643 1.255 . S
C663 O644 1.249 . S
C663 C657 1.516 1_554 S
H664 C650 0.930 . S
H665 C651 0.931 . S
H666 C652 0.931 . S
H667 C653 0.933 . S
H668 C659 0.930 . S
H669 C660 0.931 . S
H670 C661 0.931 . S
H671 C662 0.933 . S
Dy672 O675 2.307 . S
Dy672 O677 2.395 . S
Dy672 O678 2.379 . S
Dy672 O680 2.339 . S
Dy672 O682 2.298 . S
Dy672 O686 2.275 . S
Dy672 C694 2.738 . S
Dy673 O676 2.298 . S
Dy673 O679 2.275 . S
Dy673 O681 2.307 . S
Dy673 O683 2.395 . S
Dy673 O684 2.379 . S
Dy673 O687 2.339 . S
Dy673 C703 2.738 . S
C674 O686 1.254 . S
C674 O687 1.257 . S
O675 Dy672 2.307 . S
O675 C685 1.266 . S
O676 Dy673 2.298 . S
O676 C685 1.236 . S
O677 Dy672 2.395 . S
O677 C694 1.255 . S
O678 Dy672 2.379 . S
O678 C694 1.249 . S
O679 Dy673 2.275 . S
O679 C695 1.254 . S
O680 Dy672 2.339 . S
O680 C695 1.257 . S
O681 Dy673 2.307 . S
O681 C696 1.266 . S
O682 Dy672 2.298 . S
O682 C696 1.236 . S
O683 Dy673 2.395 . S
O683 C703 1.255 . S
O684 Dy673 2.379 . S
O684 C703 1.249 . S
C685 O675 1.266 . S
C685 O676 1.236 . S
O686 Dy672 2.275 . S
O686 C674 1.254 . S
O687 Dy673 2.339 . S
O687 C674 1.257 . S
C688 C691 1.344 . S
C688 C692 1.328 . S
C688 C694 1.516 . S
C689 C690 1.304 . S
C689 C693 1.323 . S
C690 C689 1.304 . S
C690 C691 1.371 . S
C690 H704 0.930 . S
C691 C688 1.344 . S
C691 C690 1.371 . S
C691 H705 0.931 . S
C692 C688 1.328 . S
C692 C693 1.433 . S
C692 H706 0.931 . S
C693 C689 1.323 . S
C693 C692 1.433 . S
C693 H707 0.933 . S
C694 Dy672 2.738 . S
C694 O677 1.255 . S
C694 O678 1.249 . S
C694 C688 1.516 . S
C695 O679 1.254 . S
C695 O680 1.257 . S
C696 O681 1.266 . S
C696 O682 1.236 . S
C697 C700 1.344 . S
C697 C701 1.328 . S
C697 C703 1.516 . S
C698 C699 1.304 . S
C698 C702 1.323 . S
C699 C698 1.304 . S
C699 C700 1.371 . S
C699 H708 0.930 . S
C700 C697 1.344 . S
C700 C699 1.371 . S
C700 H709 0.931 . S
C701 C697 1.328 . S
C701 C702 1.433 . S
C701 H710 0.931 . S
C702 C698 1.323 . S
C702 C701 1.433 . S
C702 H711 0.933 . S
C703 Dy673 2.738 . S
C703 O683 1.255 . S
C703 O684 1.249 . S
C703 C697 1.516 . S
H704 C690 0.930 . S
H705 C691 0.931 . S
H706 C692 0.931 . S
H707 C693 0.933 . S
H708 C699 0.930 . S
H709 C700 0.931 . S
H710 C701 0.931 . S
H711 C702 0.933 . S
Dy712 O715 2.307 1_455 S
Dy712 O717 2.395 . S
Dy712 O718 2.379 . S
Dy712 O720 2.339 . S
Dy712 O722 2.298 . S
Dy712 O726 2.275 . S
Dy712 C734 2.738 . S
Dy713 O716 2.298 1_455 S
Dy713 O719 2.275 . S
Dy713 O721 2.307 . S
Dy713 O723 2.395 1_455 S
Dy713 O724 2.379 . S
Dy713 O727 2.339 . S
Dy713 C743 2.738 1_455 S
C714 O726 1.254 . S
C714 O727 1.257 . S
O715 Dy712 2.307 1_655 S
O715 C725 1.266 . S
O716 Dy713 2.298 1_655 S
O716 C725 1.236 . S
O717 Dy712 2.395 . S
O717 C734 1.255 . S
O718 Dy712 2.379 . S
O718 C734 1.249 . S
O719 Dy713 2.275 . S
O719 C735 1.254 . S
O720 Dy712 2.339 . S
O720 C735 1.257 . S
O721 Dy713 2.307 . S
O721 C736 1.266 . S
O722 Dy712 2.298 . S
O722 C736 1.236 . S
O723 Dy713 2.395 1_655 S
O723 C743 1.255 . S
O724 Dy713 2.379 . S
O724 C743 1.249 1_455 S
C725 O715 1.266 . S
C725 O716 1.236 . S
O726 Dy712 2.275 . S
O726 C714 1.254 . S
O727 Dy713 2.339 . S
O727 C714 1.257 . S
C728 C731 1.344 . S
C728 C732 1.328 . S
C728 C734 1.516 . S
C729 C730 1.304 . S
C729 C733 1.323 . S
C730 C729 1.304 . S
C730 C731 1.371 . S
C730 H744 0.930 . S
C731 C728 1.344 . S
C731 C730 1.371 . S
C731 H745 0.931 . S
C732 C728 1.328 . S
C732 C733 1.433 . S
C732 H746 0.931 . S
C733 C729 1.323 . S
C733 C732 1.433 . S
C733 H747 0.933 . S
C734 Dy712 2.738 . S
C734 O717 1.255 . S
C734 O718 1.249 . S
C734 C728 1.516 . S
C735 O719 1.254 . S
C735 O720 1.257 . S
C736 O721 1.266 . S
C736 O722 1.236 . S
C737 C740 1.344 . S
C737 C741 1.328 . S
C737 C743 1.516 . S
C738 C739 1.304 . S
C738 C742 1.323 . S
C739 C738 1.304 . S
C739 C740 1.371 . S
C739 H748 0.930 . S
C740 C737 1.344 . S
C740 C739 1.371 . S
C740 H749 0.931 . S
C741 C737 1.328 . S
C741 C742 1.433 . S
C741 H750 0.931 . S
C742 C738 1.323 . S
C742 C741 1.433 . S
C742 H751 0.933 . S
C743 Dy713 2.738 1_655 S
C743 O723 1.255 . S
C743 O724 1.249 1_655 S
C743 C737 1.516 . S
H744 C730 0.930 . S
H745 C731 0.931 . S
H746 C732 0.931 . S
H747 C733 0.933 . S
H748 C739 0.930 . S
H749 C740 0.931 . S
H750 C741 0.931 . S
H751 C742 0.933 . S
Dy752 O755 2.307 . S
Dy752 O757 2.395 . S
Dy752 O758 2.379 . S
Dy752 O760 2.339 . S
Dy752 O762 2.298 . S
Dy752 O766 2.275 . S
Dy752 C774 2.738 . S
Dy753 O756 2.298 . S
Dy753 O759 2.275 . S
Dy753 O761 2.307 . S
Dy753 O763 2.395 . S
Dy753 O764 2.379 . S
Dy753 O767 2.339 . S
Dy753 C783 2.738 . S
C754 O766 1.254 . S
C754 O767 1.257 . S
O755 Dy752 2.307 . S
O755 C765 1.266 . S
O756 Dy753 2.298 . S
O756 C765 1.236 . S
O757 Dy752 2.395 . S
O757 C774 1.255 . S
O758 Dy752 2.379 . S
O758 C774 1.249 . S
O759 Dy753 2.275 . S
O759 C775 1.254 . S
O760 Dy752 2.339 . S
O760 C775 1.257 . S
O761 Dy753 2.307 . S
O761 C776 1.266 . S
O762 Dy752 2.298 . S
O762 C776 1.236 . S
O763 Dy753 2.395 . S
O763 C783 1.255 . S
O764 Dy753 2.379 . S
O764 C783 1.249 . S
C765 O755 1.266 . S
C765 O756 1.236 . S
O766 Dy752 2.275 . S
O766 C754 1.254 . S
O767 Dy753 2.339 . S
O767 C754 1.257 . S
C768 C771 1.344 . S
C768 C772 1.328 . S
C768 C774 1.516 . S
C769 C770 1.304 . S
C769 C773 1.323 . S
C770 C769 1.304 . S
C770 C771 1.371 . S
C770 H784 0.930 . S
C771 C768 1.344 . S
C771 C770 1.371 . S
C771 H785 0.931 . S
C772 C768 1.328 . S
C772 C773 1.433 . S
C772 H786 0.931 . S
C773 C769 1.323 . S
C773 C772 1.433 . S
C773 H787 0.933 . S
C774 Dy752 2.738 . S
C774 O757 1.255 . S
C774 O758 1.249 . S
C774 C768 1.516 . S
C775 O759 1.254 . S
C775 O760 1.257 . S
C776 O761 1.266 . S
C776 O762 1.236 . S
C777 C780 1.344 . S
C777 C781 1.328 . S
C777 C783 1.516 . S
C778 C779 1.304 . S
C778 C782 1.323 . S
C779 C778 1.304 . S
C779 C780 1.371 . S
C779 H788 0.930 . S
C780 C777 1.344 . S
C780 C779 1.371 . S
C780 H789 0.931 . S
C781 C777 1.328 . S
C781 C782 1.433 . S
C781 H790 0.931 . S
C782 C778 1.323 . S
C782 C781 1.433 . S
C782 H791 0.933 . S
C783 Dy753 2.738 . S
C783 O763 1.255 . S
C783 O764 1.249 . S
C783 C777 1.516 . S
H784 C770 0.930 . S
H785 C771 0.931 . S
H786 C772 0.931 . S
H787 C773 0.933 . S
H788 C779 0.930 . S
H789 C780 0.931 . S
H790 C781 0.931 . S
H791 C782 0.933 . S
Dy792 O795 2.307 . S
Dy792 O797 2.395 . S
Dy792 O798 2.379 . S
Dy792 O800 2.339 . S
Dy792 O802 2.298 . S
Dy792 O806 2.275 . S
Dy792 C814 2.738 . S
Dy793 O796 2.298 . S
Dy793 O799 2.275 . S
Dy793 O801 2.307 . S
Dy793 O803 2.395 . S
Dy793 O804 2.379 . S
Dy793 O807 2.339 . S
Dy793 C823 2.738 . S
C794 O806 1.254 . S
C794 O807 1.257 . S
O795 Dy792 2.307 . S
O795 C805 1.266 . S
O796 Dy793 2.298 . S
O796 C805 1.236 . S
O797 Dy792 2.395 . S
O797 C814 1.255 . S
O798 Dy792 2.379 . S
O798 C814 1.249 . S
O799 Dy793 2.275 . S
O799 C815 1.254 . S
O800 Dy792 2.339 . S
O800 C815 1.257 . S
O801 Dy793 2.307 . S
O801 C816 1.266 . S
O802 Dy792 2.298 . S
O802 C816 1.236 . S
O803 Dy793 2.395 . S
O803 C823 1.255 . S
O804 Dy793 2.379 . S
O804 C823 1.249 . S
C805 O795 1.266 . S
C805 O796 1.236 . S
O806 Dy792 2.275 . S
O806 C794 1.254 . S
O807 Dy793 2.339 . S
O807 C794 1.257 . S
C808 C811 1.344 . S
C808 C812 1.328 . S
C808 C814 1.516 . S
C809 C810 1.304 . S
C809 C813 1.323 . S
C810 C809 1.304 . S
C810 C811 1.371 . S
C810 H824 0.930 . S
C811 C808 1.344 . S
C811 C810 1.371 . S
C811 H825 0.931 . S
C812 C808 1.328 . S
C812 C813 1.433 . S
C812 H826 0.931 . S
C813 C809 1.323 . S
C813 C812 1.433 . S
C813 H827 0.933 . S
C814 Dy792 2.738 . S
C814 O797 1.255 . S
C814 O798 1.249 . S
C814 C808 1.516 . S
C815 O799 1.254 . S
C815 O800 1.257 . S
C816 O801 1.266 . S
C816 O802 1.236 . S
C817 C820 1.344 . S
C817 C821 1.328 . S
C817 C823 1.516 . S
C818 C819 1.304 . S
C818 C822 1.323 . S
C819 C818 1.304 . S
C819 C820 1.371 . S
C819 H828 0.930 . S
C820 C817 1.344 . S
C820 C819 1.371 . S
C820 H829 0.931 . S
C821 C817 1.328 . S
C821 C822 1.433 . S
C821 H830 0.931 . S
C822 C818 1.323 . S
C822 C821 1.433 . S
C822 H831 0.933 . S
C823 Dy793 2.738 . S
C823 O803 1.255 . S
C823 O804 1.249 . S
C823 C817 1.516 . S
H824 C810 0.930 . S
H825 C811 0.931 . S
H826 C812 0.931 . S
H827 C813 0.933 . S
H828 C819 0.930 . S
H829 C820 0.931 . S
H830 C821 0.931 . S
H831 C822 0.933 . S
Dy832 O835 2.307 . S
Dy832 O837 2.395 . S
Dy832 O838 2.379 . S
Dy832 O840 2.339 . S
Dy832 O842 2.298 . S
Dy832 O846 2.275 . S
Dy832 C854 2.738 . S
Dy833 O836 2.298 . S
Dy833 O839 2.275 . S
Dy833 O841 2.307 . S
Dy833 O843 2.395 . S
Dy833 O844 2.379 . S
Dy833 O847 2.339 . S
Dy833 C863 2.738 . S
C834 O846 1.254 . S
C834 O847 1.257 . S
O835 Dy832 2.307 . S
O835 C845 1.266 . S
O836 Dy833 2.298 . S
O836 C845 1.236 . S
O837 Dy832 2.395 . S
O837 C854 1.255 . S
O838 Dy832 2.379 . S
O838 C854 1.249 . S
O839 Dy833 2.275 . S
O839 C855 1.254 . S
O840 Dy832 2.339 . S
O840 C855 1.257 . S
O841 Dy833 2.307 . S
O841 C856 1.266 . S
O842 Dy832 2.298 . S
O842 C856 1.236 . S
O843 Dy833 2.395 . S
O843 C863 1.255 . S
O844 Dy833 2.379 . S
O844 C863 1.249 . S
C845 O835 1.266 . S
C845 O836 1.236 . S
O846 Dy832 2.275 . S
O846 C834 1.254 . S
O847 Dy833 2.339 . S
O847 C834 1.257 . S
C848 C851 1.344 . S
C848 C852 1.328 . S
C848 C854 1.516 . S
C849 C850 1.304 . S
C849 C853 1.323 . S
C850 C849 1.304 . S
C850 C851 1.371 . S
C850 H864 0.930 . S
C851 C848 1.344 . S
C851 C850 1.371 . S
C851 H865 0.931 . S
C852 C848 1.328 . S
C852 C853 1.433 . S
C852 H866 0.931 . S
C853 C849 1.323 . S
C853 C852 1.433 . S
C853 H867 0.933 . S
C854 Dy832 2.738 . S
C854 O837 1.255 . S
C854 O838 1.249 . S
C854 C848 1.516 . S
C855 O839 1.254 . S
C855 O840 1.257 . S
C856 O841 1.266 . S
C856 O842 1.236 . S
C857 C860 1.344 . S
C857 C861 1.328 . S
C857 C863 1.516 . S
C858 C859 1.304 . S
C858 C862 1.323 . S
C859 C858 1.304 . S
C859 C860 1.371 . S
C859 H868 0.930 . S
C860 C857 1.344 . S
C860 C859 1.371 . S
C860 H869 0.931 . S
C861 C857 1.328 . S
C861 C862 1.433 . S
C861 H870 0.931 . S
C862 C858 1.323 . S
C862 C861 1.433 . S
C862 H871 0.933 . S
C863 Dy833 2.738 . S
C863 O843 1.255 . S
C863 O844 1.249 . S
C863 C857 1.516 . S
H864 C850 0.930 . S
H865 C851 0.931 . S
H866 C852 0.931 . S
H867 C853 0.933 . S
H868 C859 0.930 . S
H869 C860 0.931 . S
H870 C861 0.931 . S
H871 C862 0.933 . S
Dy872 O875 2.307 . S
Dy872 O877 2.395 . S
Dy872 O878 2.379 . S
Dy872 O880 2.339 . S
Dy872 O882 2.298 . S
Dy872 O886 2.275 . S
Dy872 C894 2.738 . S
Dy873 O876 2.298 . S
Dy873 O879 2.275 . S
Dy873 O881 2.307 . S
Dy873 O883 2.395 . S
Dy873 O884 2.379 . S
Dy873 O887 2.339 . S
Dy873 C903 2.738 . S
C874 O886 1.254 . S
C874 O887 1.257 . S
O875 Dy872 2.307 . S
O875 C885 1.266 . S
O876 Dy873 2.298 . S
O876 C885 1.236 . S
O877 Dy872 2.395 . S
O877 C894 1.255 . S
O878 Dy872 2.379 . S
O878 C894 1.249 . S
O879 Dy873 2.275 . S
O879 C895 1.254 . S
O880 Dy872 2.339 . S
O880 C895 1.257 . S
O881 Dy873 2.307 . S
O881 C896 1.266 . S
O882 Dy872 2.298 . S
O882 C896 1.236 . S
O883 Dy873 2.395 . S
O883 C903 1.255 . S
O884 Dy873 2.379 . S
O884 C903 1.249 . S
C885 O875 1.266 . S
C885 O876 1.236 . S
O886 Dy872 2.275 . S
O886 C874 1.254 . S
O887 Dy873 2.339 . S
O887 C874 1.257 . S
C888 C891 1.344 . S
C888 C892 1.328 . S
C888 C894 1.516 . S
C889 C890 1.304 . S
C889 C893 1.323 . S
C890 C889 1.304 . S
C890 C891 1.371 . S
C890 H904 0.930 . S
C891 C888 1.344 . S
C891 C890 1.371 . S
C891 H905 0.931 . S
C892 C888 1.328 . S
C892 C893 1.433 . S
C892 H906 0.931 . S
C893 C889 1.323 . S
C893 C892 1.433 . S
C893 H907 0.933 . S
C894 Dy872 2.738 . S
C894 O877 1.255 . S
C894 O878 1.249 . S
C894 C888 1.516 . S
C895 O879 1.254 . S
C895 O880 1.257 . S
C896 O881 1.266 . S
C896 O882 1.236 . S
C897 C900 1.344 . S
C897 C901 1.328 . S
C897 C903 1.516 . S
C898 C899 1.304 . S
C898 C902 1.323 . S
C899 C898 1.304 . S
C899 C900 1.371 . S
C899 H908 0.930 . S
C900 C897 1.344 . S
C900 C899 1.371 . S
C900 H909 0.931 . S
C901 C897 1.328 . S
C901 C902 1.433 . S
C901 H910 0.931 . S
C902 C898 1.323 . S
C902 C901 1.433 . S
C902 H911 0.933 . S
C903 Dy873 2.738 . S
C903 O883 1.255 . S
C903 O884 1.249 . S
C903 C897 1.516 . S
H904 C890 0.930 . S
H905 C891 0.931 . S
H906 C892 0.931 . S
H907 C893 0.933 . S
H908 C899 0.930 . S
H909 C900 0.931 . S
H910 C901 0.931 . S
H911 C902 0.933 . S
Dy912 O915 2.307 1_655 S
Dy912 O917 2.395 . S
Dy912 O918 2.379 . S
Dy912 O920 2.339 1_655 S
Dy912 O922 2.298 1_655 S
Dy912 O926 2.275 1_655 S
Dy912 C934 2.738 . S
Dy913 O916 2.298 . S
Dy913 O919 2.275 . S
Dy913 O921 2.307 . S
Dy913 O923 2.395 . S
Dy913 O924 2.379 . S
Dy913 O927 2.339 1_554 S
Dy913 C943 2.738 . S
C914 O926 1.254 . S
C914 O927 1.257 1_554 S
O915 Dy912 2.307 1_455 S
O915 C925 1.266 . S
O916 Dy913 2.298 . S
O916 C925 1.236 . S
O917 Dy912 2.395 . S
O917 C934 1.255 . S
O918 Dy912 2.379 . S
O918 C934 1.249 . S
O919 Dy913 2.275 . S
O919 C935 1.254 . S
O920 Dy912 2.339 1_455 S
O920 C935 1.257 . S
O921 Dy913 2.307 . S
O921 C936 1.266 . S
O922 Dy912 2.298 1_455 S
O922 C936 1.236 . S
O923 Dy913 2.395 . S
O923 C943 1.255 . S
O924 Dy913 2.379 . S
O924 C943 1.249 . S
C925 O915 1.266 . S
C925 O916 1.236 . S
O926 Dy912 2.275 1_455 S
O926 C914 1.254 . S
O927 Dy913 2.339 1_556 S
O927 C914 1.257 1_556 S
C928 C931 1.344 . S
C928 C932 1.328 . S
C928 C934 1.516 . S
C929 C930 1.304 . S
C929 C933 1.323 . S
C930 C929 1.304 . S
C930 C931 1.371 . S
C930 H944 0.930 . S
C931 C928 1.344 . S
C931 C930 1.371 . S
C931 H945 0.931 . S
C932 C928 1.328 . S
C932 C933 1.433 . S
C932 H946 0.931 . S
C933 C929 1.323 . S
C933 C932 1.433 . S
C933 H947 0.933 . S
C934 Dy912 2.738 . S
C934 O917 1.255 . S
C934 O918 1.249 . S
C934 C928 1.516 . S
C935 O919 1.254 . S
C935 O920 1.257 . S
C936 O921 1.266 . S
C936 O922 1.236 . S
C937 C940 1.344 . S
C937 C941 1.328 . S
C937 C943 1.516 . S
C938 C939 1.304 . S
C938 C942 1.338 . S
C939 C938 1.304 . S
C939 C940 1.371 . S
C939 H948 0.930 . S
C940 C937 1.344 . S
C940 C939 1.371 . S
C940 H949 0.931 . S
C941 C937 1.328 . S
C941 C942 1.435 . S
C941 H950 0.931 1_554 S
C942 C938 1.338 . S
C942 C941 1.435 . S
C942 H951 0.916 1_554 S
C943 Dy913 2.738 . S
C943 O923 1.255 . S
C943 O924 1.249 . S
C943 C937 1.516 . S
H944 C930 0.930 . S
H945 C931 0.931 . S
H946 C932 0.931 . S
H947 C933 0.933 . S
H948 C939 0.930 . S
H949 C940 0.931 . S
H950 C941 0.931 1_556 S
H951 C942 0.916 1_556 S
H952 C960 0.950 . S
H953 C965 0.950 . S
H954 C962 0.950 1_655 S
H955 C964 0.950 . S
H956 C966 0.950 . S
H957 C968 0.950 . S
H958 C970 0.950 1_556 S
H959 C971 0.950 . S
C960 H952 0.950 . S
C960 C961 1.386 1_655 S
C960 C962 1.391 1_655 S
C961 C960 1.386 1_455 S
C961 C965 1.393 1_556 S
C962 H954 0.950 1_455 S
C962 C960 1.391 1_455 S
C962 C963 1.400 1_556 S
C963 C962 1.400 1_554 S
C963 C964 1.398 . S
C963 C969 1.491 . S
C964 H955 0.950 . S
C964 C963 1.398 . S
C964 C965 1.391 . S
C965 H953 0.950 . S
C965 C961 1.393 1_554 S
C965 C964 1.391 . S
C966 H956 0.950 . S
C966 C967 1.386 . S
C966 C968 1.391 . S
C967 C966 1.386 . S
C967 C971 1.393 . S
C968 H957 0.950 . S
C968 C966 1.391 . S
C968 C969 1.400 . S
C969 C963 1.491 . S
C969 C968 1.400 . S
C969 C970 1.398 . S
C970 H958 0.950 1_554 S
C970 C969 1.398 . S
C970 C971 1.391 . S
C971 H959 0.950 . S
C971 C967 1.393 . S
C971 C970 1.391 . S
H972 C980 0.950 . S
H973 C985 0.950 . S
H974 C982 0.950 . S
H975 C984 0.950 . S
H976 C986 0.950 . S
H977 C988 0.950 . S
H978 C990 0.950 . S
H979 C991 0.950 . S
C980 H972 0.950 . S
C980 C981 1.386 . S
C980 C982 1.391 . S
C981 C980 1.386 . S
C981 C985 1.393 . S
C982 H974 0.950 . S
C982 C980 1.391 . S
C982 C983 1.400 . S
C983 C982 1.400 . S
C983 C984 1.398 . S
C983 C989 1.491 . S
C984 H975 0.950 . S
C984 C983 1.398 . S
C984 C985 1.391 . S
C985 H973 0.950 . S
C985 C981 1.393 . S
C985 C984 1.391 . S
C986 H976 0.950 . S
C986 C987 1.386 . S
C986 C988 1.391 . S
C987 C986 1.386 . S
C987 C991 1.393 . S
C988 H977 0.950 . S
C988 C986 1.391 . S
C988 C989 1.400 . S
C989 C983 1.491 . S
C989 C988 1.400 . S
C989 C990 1.398 . S
C990 H978 0.950 . S
C990 C989 1.398 . S
C990 C991 1.391 . S
C991 H979 0.950 . S
C991 C987 1.393 . S
C991 C990 1.391 . S
H992 C1000 0.950 . S
H993 C1005 0.950 . S
H994 C1002 0.950 . S
H995 C1004 0.950 . S
H996 C1006 0.950 . S
H997 C1008 0.950 . S
H998 C1010 0.950 . S
H999 C1011 0.950 . S
C1000 H992 0.950 . S
C1000 C1001 1.386 . S
C1000 C1002 1.391 . S
C1001 C1000 1.386 . S
C1001 C1005 1.393 . S
C1002 H994 0.950 . S
C1002 C1000 1.391 . S
C1002 C1003 1.400 . S
C1003 C1002 1.400 . S
C1003 C1004 1.398 . S
C1003 C1009 1.491 . S
C1004 H995 0.950 . S
C1004 C1003 1.398 . S
C1004 C1005 1.391 . S
C1005 H993 0.950 . S
C1005 C1001 1.393 . S
C1005 C1004 1.391 . S
C1006 H996 0.950 . S
C1006 C1007 1.386 . S
C1006 C1008 1.391 . S
C1007 C1006 1.386 . S
C1007 C1011 1.393 . S
C1008 H997 0.950 . S
C1008 C1006 1.391 . S
C1008 C1009 1.400 . S
C1009 C1003 1.491 . S
C1009 C1008 1.400 . S
C1009 C1010 1.398 . S
C1010 H998 0.950 . S
C1010 C1009 1.398 . S
C1010 C1011 1.391 . S
C1011 H999 0.950 . S
C1011 C1007 1.393 . S
C1011 C1010 1.391 . S
H1012 C1020 0.950 . S
H1013 C1025 0.950 . S
H1014 C1022 0.950 . S
H1015 C1024 0.950 . S
H1016 C1026 0.950 . S
H1017 C1028 0.950 . S
H1018 C1030 0.950 . S
H1019 C1031 0.950 . S
C1020 H1012 0.950 . S
C1020 C1021 1.386 . S
C1020 C1022 1.391 . S
C1021 C1020 1.386 . S
C1021 C1025 1.393 . S
C1022 H1014 0.950 . S
C1022 C1020 1.391 . S
C1022 C1023 1.400 . S
C1023 C1022 1.400 . S
C1023 C1024 1.398 . S
C1023 C1029 1.491 . S
C1024 H1015 0.950 . S
C1024 C1023 1.398 . S
C1024 C1025 1.391 . S
C1025 H1013 0.950 . S
C1025 C1021 1.393 . S
C1025 C1024 1.391 . S
C1026 H1016 0.950 . S
C1026 C1027 1.386 . S
C1026 C1028 1.391 . S
C1027 C1026 1.386 . S
C1027 C1031 1.393 . S
C1028 H1017 0.950 . S
C1028 C1026 1.391 . S
C1028 C1029 1.400 . S
C1029 C1023 1.491 . S
C1029 C1028 1.400 . S
C1029 C1030 1.398 . S
C1030 H1018 0.950 . S
C1030 C1029 1.398 . S
C1030 C1031 1.391 . S
C1031 H1019 0.950 . S
C1031 C1027 1.393 . S
C1031 C1030 1.391 . S
H1032 C1040 0.950 . S
H1033 C1045 0.950 . S
H1034 C1042 0.950 . S
H1035 C1044 0.950 . S
H1036 C1046 0.950 . S
H1037 C1048 0.950 . S
H1038 C1050 0.950 . S
H1039 C1051 0.950 . S
C1040 H1032 0.950 . S
C1040 C1041 1.386 . S
C1040 C1042 1.391 . S
C1041 C1040 1.386 . S
C1041 C1045 1.393 . S
C1042 H1034 0.950 . S
C1042 C1040 1.391 . S
C1042 C1043 1.400 . S
C1043 C1042 1.400 . S
C1043 C1044 1.398 . S
C1043 C1049 1.491 . S
C1044 H1035 0.950 . S
C1044 C1043 1.398 . S
C1044 C1045 1.391 . S
C1045 H1033 0.950 . S
C1045 C1041 1.393 . S
C1045 C1044 1.391 . S
C1046 H1036 0.950 . S
C1046 C1047 1.386 . S
C1046 C1048 1.391 . S
C1047 C1046 1.386 . S
C1047 C1051 1.393 . S
C1048 H1037 0.950 . S
C1048 C1046 1.391 . S
C1048 C1049 1.400 . S
C1049 C1043 1.491 . S
C1049 C1048 1.400 . S
C1049 C1050 1.398 . S
C1050 H1038 0.950 . S
C1050 C1049 1.398 . S
C1050 C1051 1.391 . S
C1051 H1039 0.950 . S
C1051 C1047 1.393 . S
C1051 C1050 1.391 . S
H1052 C1060 0.950 . S
H1053 C1065 0.950 . S
H1054 C1062 0.950 . S
H1055 C1064 0.950 . S
H1056 C1066 0.950 . S
H1057 C1068 0.950 . S
H1058 C1070 0.950 . S
H1059 C1071 0.950 . S
C1060 H1052 0.950 . S
C1060 C1061 1.386 . S
C1060 C1062 1.391 . S
C1061 C1060 1.386 . S
C1061 C1065 1.393 . S
C1062 H1054 0.950 . S
C1062 C1060 1.391 . S
C1062 C1063 1.400 . S
C1063 C1062 1.400 . S
C1063 C1064 1.398 . S
C1063 C1069 1.491 . S
C1064 H1055 0.950 . S
C1064 C1063 1.398 . S
C1064 C1065 1.391 . S
C1065 H1053 0.950 . S
C1065 C1061 1.393 . S
C1065 C1064 1.391 . S
C1066 H1056 0.950 . S
C1066 C1067 1.386 . S
C1066 C1068 1.391 . S
C1067 C1066 1.386 . S
C1067 C1071 1.393 . S
C1068 H1057 0.950 . S
C1068 C1066 1.391 . S
C1068 C1069 1.400 . S
C1069 C1063 1.491 . S
C1069 C1068 1.400 . S
C1069 C1070 1.398 . S
C1070 H1058 0.950 . S
C1070 C1069 1.398 . S
C1070 C1071 1.391 . S
C1071 H1059 0.950 . S
C1071 C1067 1.393 . S
C1071 C1070 1.391 . S
H1072 C1080 0.950 . S
H1073 C1085 0.950 . S
H1074 C1082 0.950 . S
H1075 C1084 0.950 . S
H1076 C1086 0.950 . S
H1077 C1088 0.950 . S
H1078 C1090 0.950 . S
H1079 C1091 0.950 . S
C1080 H1072 0.950 . S
C1080 C1081 1.386 . S
C1080 C1082 1.391 . S
C1081 C1080 1.386 . S
C1081 C1085 1.393 . S
C1082 H1074 0.950 . S
C1082 C1080 1.391 . S
C1082 C1083 1.400 . S
C1083 C1082 1.400 . S
C1083 C1084 1.398 . S
C1083 C1089 1.491 . S
C1084 H1075 0.950 . S
C1084 C1083 1.398 . S
C1084 C1085 1.391 . S
C1085 H1073 0.950 . S
C1085 C1081 1.393 . S
C1085 C1084 1.391 . S
C1086 H1076 0.950 . S
C1086 C1087 1.386 . S
C1086 C1088 1.391 . S
C1087 C1086 1.386 . S
C1087 C1091 1.393 . S
C1088 H1077 0.950 . S
C1088 C1086 1.391 . S
C1088 C1089 1.400 . S
C1089 C1083 1.491 . S
C1089 C1088 1.400 . S
C1089 C1090 1.398 . S
C1090 H1078 0.950 . S
C1090 C1089 1.398 . S
C1090 C1091 1.391 . S
C1091 H1079 0.950 . S
C1091 C1087 1.393 . S
C1091 C1090 1.391 . S
H1092 C1100 0.950 . S
H1093 C1105 0.950 . S
H1094 C1102 0.950 . S
H1095 C1104 0.950 . S
H1096 C1106 0.950 . S
H1097 C1108 0.950 . S
H1098 C1110 0.950 . S
H1099 C1111 0.950 . S
C1100 H1092 0.950 . S
C1100 C1101 1.386 . S
C1100 C1102 1.391 . S
C1101 C1100 1.386 . S
C1101 C1105 1.393 . S
C1102 H1094 0.950 . S
C1102 C1100 1.391 . S
C1102 C1103 1.400 . S
C1103 C1102 1.400 . S
C1103 C1104 1.398 . S
C1103 C1109 1.491 . S
C1104 H1095 0.950 . S
C1104 C1103 1.398 . S
C1104 C1105 1.391 . S
C1105 H1093 0.950 . S
C1105 C1101 1.393 . S
C1105 C1104 1.391 . S
C1106 H1096 0.950 . S
C1106 C1107 1.386 . S
C1106 C1108 1.391 . S
C1107 C1106 1.386 . S
C1107 C1111 1.393 . S
C1108 H1097 0.950 . S
C1108 C1106 1.391 . S
C1108 C1109 1.400 . S
C1109 C1103 1.491 . S
C1109 C1108 1.400 . S
C1109 C1110 1.398 . S
C1110 H1098 0.950 . S
C1110 C1109 1.398 . S
C1110 C1111 1.391 . S
C1111 H1099 0.950 . S
C1111 C1107 1.393 . S
C1111 C1110 1.391 . S
H1112 C1120 0.950 . S
H1113 C1125 0.950 . S
H1114 C1122 0.981 . S
H1115 C1124 0.950 . S
H1116 C1126 0.950 1_655 S
H1117 C1128 0.950 . S
H1118 C1130 0.950 . S
H1119 C1131 0.950 . S
C1120 H1112 0.950 . S
C1120 C1121 1.386 . S
C1120 C1122 1.369 1_655 S
C1121 C1120 1.386 . S
C1121 C1125 1.393 . S
C1122 H1114 0.981 . S
C1122 C1120 1.369 1_455 S
C1122 C1123 1.394 1_455 S
C1123 C1122 1.394 1_655 S
C1123 C1124 1.398 . S
C1123 C1129 1.491 1_655 S
C1124 H1115 0.950 . S
C1124 C1123 1.398 . S
C1124 C1125 1.391 . S
C1125 H1113 0.950 . S
C1125 C1121 1.393 . S
C1125 C1124 1.391 . S
C1126 H1116 0.950 1_455 S
C1126 C1127 1.386 . S
C1126 C1128 1.391 1_455 S
C1127 C1126 1.386 . S
C1127 C1131 1.393 . S
C1128 H1117 0.950 . S
C1128 C1126 1.391 1_655 S
C1128 C1129 1.400 1_655 S
C1129 C1123 1.491 1_455 S
C1129 C1128 1.400 1_455 S
C1129 C1130 1.398 . S
C1130 H1118 0.950 . S
C1130 C1129 1.398 . S
C1130 C1131 1.391 . S
C1131 H1119 0.950 . S
C1131 C1127 1.393 . S
C1131 C1130 1.391 . S
H1132 C1140 0.950 . S
H1133 C1145 0.950 . S
H1134 C1142 0.950 . S
H1135 C1144 0.950 . S
H1136 C1146 0.950 . S
H1137 C1148 0.950 . S
H1138 C1150 0.950 . S
H1139 C1151 0.950 . S
C1140 H1132 0.950 . S
C1140 C1141 1.386 . S
C1140 C1142 1.391 . S
C1141 C1140 1.386 . S
C1141 C1145 1.393 . S
C1142 H1134 0.950 . S
C1142 C1140 1.391 . S
C1142 C1143 1.400 . S
C1143 C1142 1.400 . S
C1143 C1144 1.398 . S
C1143 C1149 1.491 . S
C1144 H1135 0.950 . S
C1144 C1143 1.398 . S
C1144 C1145 1.391 . S
C1145 H1133 0.950 . S
C1145 C1141 1.393 . S
C1145 C1144 1.391 . S
C1146 H1136 0.950 . S
C1146 C1147 1.386 . S
C1146 C1148 1.391 . S
C1147 C1146 1.386 . S
C1147 C1151 1.393 . S
C1148 H1137 0.950 . S
C1148 C1146 1.391 . S
C1148 C1149 1.400 . S
C1149 C1143 1.491 . S
C1149 C1148 1.400 . S
C1149 C1150 1.398 . S
C1150 H1138 0.950 . S
C1150 C1149 1.398 . S
C1150 C1151 1.391 . S
C1151 H1139 0.950 . S
C1151 C1147 1.393 . S
C1151 C1150 1.391 . S
H1152 C1160 0.950 . S
H1153 C1165 0.950 . S
H1154 C1162 0.950 . S
H1155 C1164 0.950 . S
H1156 C1166 0.950 . S
H1157 C1168 0.950 . S
H1158 C1170 0.950 . S
H1159 C1171 0.950 . S
C1160 H1152 0.950 . S
C1160 C1161 1.386 . S
C1160 C1162 1.391 . S
C1161 C1160 1.386 . S
C1161 C1165 1.393 . S
C1162 H1154 0.950 . S
C1162 C1160 1.391 . S
C1162 C1163 1.400 . S
C1163 C1162 1.400 . S
C1163 C1164 1.398 . S
C1163 C1169 1.491 . S
C1164 H1155 0.950 . S
C1164 C1163 1.398 . S
C1164 C1165 1.391 . S
C1165 H1153 0.950 . S
C1165 C1161 1.393 . S
C1165 C1164 1.391 . S
C1166 H1156 0.950 . S
C1166 C1167 1.386 . S
C1166 C1168 1.391 . S
C1167 C1166 1.386 . S
C1167 C1171 1.393 . S
C1168 H1157 0.950 . S
C1168 C1166 1.391 . S
C1168 C1169 1.400 . S
C1169 C1163 1.491 . S
C1169 C1168 1.400 . S
C1169 C1170 1.398 . S
C1170 H1158 0.950 . S
C1170 C1169 1.398 . S
C1170 C1171 1.391 . S
C1171 H1159 0.950 . S
C1171 C1167 1.393 . S
C1171 C1170 1.391 . S
H1172 C1180 0.950 . S
H1173 C1185 0.950 . S
H1174 C1182 0.950 . S
H1175 C1184 0.950 . S
H1176 C1186 0.950 . S
H1177 C1188 0.950 . S
H1178 C1190 0.950 . S
H1179 C1191 0.950 . S
C1180 H1172 0.950 . S
C1180 C1181 1.386 . S
C1180 C1182 1.391 . S
C1181 C1180 1.386 . S
C1181 C1185 1.393 . S
C1182 H1174 0.950 . S
C1182 C1180 1.391 . S
C1182 C1183 1.400 . S
C1183 C1182 1.400 . S
C1183 C1184 1.398 . S
C1183 C1189 1.491 . S
C1184 H1175 0.950 . S
C1184 C1183 1.398 . S
C1184 C1185 1.391 . S
C1185 H1173 0.950 . S
C1185 C1181 1.393 . S
C1185 C1184 1.391 . S
C1186 H1176 0.950 . S
C1186 C1187 1.386 . S
C1186 C1188 1.391 . S
C1187 C1186 1.386 . S
C1187 C1191 1.393 . S
C1188 H1177 0.950 . S
C1188 C1186 1.391 . S
C1188 C1189 1.400 . S
C1189 C1183 1.491 . S
C1189 C1188 1.400 . S
C1189 C1190 1.398 . S
C1190 H1178 0.950 . S
C1190 C1189 1.398 . S
C1190 C1191 1.391 . S
C1191 H1179 0.950 . S
C1191 C1187 1.393 . S
C1191 C1190 1.391 . S
H1192 C1200 0.963 . S
H1193 C1205 0.950 . S
H1194 C1202 0.950 . S
H1195 C1204 0.950 . S
H1196 C1206 0.950 1_655 S
H1197 C1208 0.950 . S
H1198 C1210 0.950 . S
H1199 C1211 0.950 . S
C1200 H1192 0.963 . S
C1200 C1201 1.386 . S
C1200 C1202 1.391 1_655 S
C1201 C1200 1.386 . S
C1201 C1205 1.393 . S
C1202 H1194 0.950 . S
C1202 C1200 1.391 1_455 S
C1202 C1203 1.400 1_455 S
C1203 C1202 1.400 1_655 S
C1203 C1204 1.398 . S
C1203 C1209 1.491 1_655 S
C1204 H1195 0.950 . S
C1204 C1203 1.398 . S
C1204 C1205 1.391 . S
C1205 H1193 0.950 . S
C1205 C1201 1.393 . S
C1205 C1204 1.391 . S
C1206 H1196 0.950 1_455 S
C1206 C1207 1.386 . S
C1206 C1208 1.391 1_455 S
C1207 C1206 1.386 . S
C1207 C1211 1.393 . S
C1208 H1197 0.950 . S
C1208 C1206 1.391 1_655 S
C1208 C1209 1.400 1_655 S
C1209 C1203 1.491 1_455 S
C1209 C1208 1.400 1_455 S
C1209 C1210 1.398 . S
C1210 H1198 0.950 . S
C1210 C1209 1.398 . S
C1210 C1211 1.391 . S
C1211 H1199 0.950 . S
C1211 C1207 1.393 . S
C1211 C1210 1.391 . S
H1212 C1220 0.950 . S
H1213 C1225 0.950 . S
H1214 C1222 0.950 . S
H1215 C1224 0.950 . S
H1216 C1226 0.950 . S
H1217 C1228 0.950 . S
H1218 C1230 0.950 . S
H1219 C1231 0.950 . S
C1220 H1212 0.950 . S
C1220 C1221 1.386 . S
C1220 C1222 1.391 . S
C1221 C1220 1.386 . S
C1221 C1225 1.393 . S
C1222 H1214 0.950 . S
C1222 C1220 1.391 . S
C1222 C1223 1.400 . S
C1223 C1222 1.400 . S
C1223 C1224 1.398 . S
C1223 C1229 1.491 . S
C1224 H1215 0.950 . S
C1224 C1223 1.398 . S
C1224 C1225 1.391 . S
C1225 H1213 0.950 . S
C1225 C1221 1.393 . S
C1225 C1224 1.391 . S
C1226 H1216 0.950 . S
C1226 C1227 1.386 . S
C1226 C1228 1.391 . S
C1227 C1226 1.386 . S
C1227 C1231 1.393 . S
C1228 H1217 0.950 . S
C1228 C1226 1.391 . S
C1228 C1229 1.400 . S
C1229 C1223 1.491 . S
C1229 C1228 1.400 . S
C1229 C1230 1.398 . S
C1230 H1218 0.950 . S
C1230 C1229 1.398 . S
C1230 C1231 1.391 . S
C1231 H1219 0.950 . S
C1231 C1227 1.393 . S
C1231 C1230 1.391 . S
H1232 C1240 0.950 . S
H1233 C1245 0.950 . S
H1234 C1242 0.950 . S
H1235 C1244 0.950 . S
H1236 C1246 0.950 . S
H1237 C1248 0.950 . S
H1238 C1250 0.950 . S
H1239 C1251 0.950 . S
C1240 H1232 0.950 . S
C1240 C1241 1.386 . S
C1240 C1242 1.391 . S
C1241 C1240 1.386 . S
C1241 C1245 1.393 . S
C1242 H1234 0.950 . S
C1242 C1240 1.391 . S
C1242 C1243 1.400 . S
C1243 C1242 1.400 . S
C1243 C1244 1.398 . S
C1243 C1249 1.491 . S
C1244 H1235 0.950 . S
C1244 C1243 1.398 . S
C1244 C1245 1.391 . S
C1245 H1233 0.950 . S
C1245 C1241 1.393 . S
C1245 C1244 1.391 . S
C1246 H1236 0.950 . S
C1246 C1247 1.386 . S
C1246 C1248 1.391 . S
C1247 C1246 1.386 . S
C1247 C1251 1.393 . S
C1248 H1237 0.950 . S
C1248 C1246 1.391 . S
C1248 C1249 1.400 . S
C1249 C1243 1.491 . S
C1249 C1248 1.400 . S
C1249 C1250 1.398 . S
C1250 H1238 0.950 . S
C1250 C1249 1.398 . S
C1250 C1251 1.391 . S
C1251 H1239 0.950 . S
C1251 C1247 1.393 . S
C1251 C1250 1.391 . S
H1252 C1260 0.950 . S
H1253 C1265 0.950 . S
H1254 C1262 0.950 . S
H1255 C1264 0.950 . S
H1256 C1266 0.950 . S
H1257 C1268 0.950 . S
H1258 C1270 0.950 . S
H1259 C1271 0.950 . S
C1260 H1252 0.950 . S
C1260 C1261 1.386 . S
C1260 C1262 1.391 . S
C1261 C1260 1.386 . S
C1261 C1265 1.393 . S
C1262 H1254 0.950 . S
C1262 C1260 1.391 . S
C1262 C1263 1.400 . S
C1263 C1262 1.400 . S
C1263 C1264 1.398 . S
C1263 C1269 1.491 . S
C1264 H1255 0.950 . S
C1264 C1263 1.398 . S
C1264 C1265 1.391 . S
C1265 H1253 0.950 . S
C1265 C1261 1.393 . S
C1265 C1264 1.391 . S
C1266 H1256 0.950 . S
C1266 C1267 1.386 . S
C1266 C1268 1.391 . S
C1267 C1266 1.386 . S
C1267 C1271 1.393 . S
C1268 H1257 0.950 . S
C1268 C1266 1.391 . S
C1268 C1269 1.400 . S
C1269 C1263 1.491 . S
C1269 C1268 1.400 . S
C1269 C1270 1.398 . S
C1270 H1258 0.950 . S
C1270 C1269 1.398 . S
C1270 C1271 1.391 . S
C1271 H1259 0.950 . S
C1271 C1267 1.393 . S
C1271 C1270 1.391 . S
H1272 C1280 0.950 . S
H1273 C1285 0.950 1_556 S
H1274 C1282 0.950 . S
H1275 C1284 0.950 . S
H1276 C1286 0.950 . S
H1277 C1288 0.950 . S
H1278 C1290 0.950 . S
H1279 C1291 0.950 . S
C1280 H1272 0.950 . S
C1280 C1281 1.386 . S
C1280 C1282 1.391 . S
C1281 C1280 1.386 . S
C1281 C1285 1.393 . S
C1282 H1274 0.950 . S
C1282 C1280 1.391 . S
C1282 C1283 1.400 . S
C1283 C1282 1.400 . S
C1283 C1284 1.398 . S
C1283 C1289 1.491 . S
C1284 H1275 0.950 . S
C1284 C1283 1.398 . S
C1284 C1285 1.391 . S
C1285 H1273 0.950 1_554 S
C1285 C1281 1.393 . S
C1285 C1284 1.391 . S
C1286 H1276 0.950 . S
C1286 C1287 1.386 1_565 S
C1286 C1288 1.391 . S
C1287 C1286 1.386 1_545 S
C1287 C1291 1.393 . S
C1288 H1277 0.950 . S
C1288 C1286 1.391 . S
C1288 C1289 1.400 . S
C1289 C1283 1.491 . S
C1289 C1288 1.400 . S
C1289 C1290 1.398 1_565 S
C1290 H1278 0.950 . S
C1290 C1289 1.398 1_545 S
C1290 C1291 1.391 . S
C1291 H1279 0.950 . S
C1291 C1287 1.393 . S
C1291 C1290 1.391 . S
H1292 C1300 0.950 1_556 S
H1293 C1305 0.950 . S
H1294 C1302 0.950 1_556 S
H1295 C1304 0.950 . S
H1296 C1306 0.950 . S
H1297 C1308 0.950 . S
H1298 C1310 0.950 1_556 S
H1299 C1311 0.950 1_556 S
C1300 H1292 0.950 1_554 S
C1300 C1301 1.386 . S
C1300 C1302 1.391 . S
C1301 C1300 1.386 . S
C1301 C1305 1.393 . S
C1302 H1294 0.950 1_554 S
C1302 C1300 1.391 . S
C1302 C1303 1.400 . S
C1303 C1302 1.400 . S
C1303 C1304 1.398 . S
C1303 C1309 1.491 . S
C1304 H1295 0.950 . S
C1304 C1303 1.398 . S
C1304 C1305 1.391 . S
C1305 H1293 0.950 . S
C1305 C1301 1.393 . S
C1305 C1304 1.391 . S
C1306 H1296 0.950 . S
C1306 C1307 1.386 . S
C1306 C1308 1.391 . S
C1307 C1306 1.386 . S
C1307 C1311 1.393 . S
C1308 H1297 0.950 . S
C1308 C1306 1.391 . S
C1308 C1309 1.400 . S
C1309 C1303 1.491 . S
C1309 C1308 1.400 . S
C1309 C1310 1.398 . S
C1310 H1298 0.950 1_554 S
C1310 C1309 1.398 . S
C1310 C1311 1.391 . S
C1311 H1299 0.950 1_554 S
C1311 C1307 1.393 . S
C1311 C1310 1.391 . S
H1312 C1320 0.950 . S
H1313 C1325 0.950 . S
H1314 C1322 0.950 . S
H1315 C1324 0.950 . S
H1316 C1326 0.950 . S
H1317 C1328 0.950 . S
H1318 C1330 0.950 . S
H1319 C1331 0.950 . S
C1320 H1312 0.950 . S
C1320 C1321 1.386 . S
C1320 C1322 1.391 . S
C1321 C1320 1.386 . S
C1321 C1325 1.393 . S
C1322 H1314 0.950 . S
C1322 C1320 1.391 . S
C1322 C1323 1.400 . S
C1323 C1322 1.400 . S
C1323 C1324 1.398 . S
C1323 C1329 1.491 . S
C1324 H1315 0.950 . S
C1324 C1323 1.398 . S
C1324 C1325 1.391 . S
C1325 H1313 0.950 . S
C1325 C1321 1.393 . S
C1325 C1324 1.391 . S
C1326 H1316 0.950 . S
C1326 C1327 1.386 . S
C1326 C1328 1.391 . S
C1327 C1326 1.386 . S
C1327 C1331 1.393 . S
C1328 H1317 0.950 . S
C1328 C1326 1.391 . S
C1328 C1329 1.400 . S
C1329 C1323 1.491 . S
C1329 C1328 1.400 . S
C1329 C1330 1.398 . S
C1330 H1318 0.950 . S
C1330 C1329 1.398 . S
C1330 C1331 1.391 . S
C1331 H1319 0.950 . S
C1331 C1327 1.393 . S
C1331 C1330 1.391 . S
H1332 C1340 0.950 . S
H1333 C1345 0.950 . S
H1334 C1342 0.950 . S
H1335 C1344 0.950 . S
H1336 C1346 0.950 . S
H1337 C1348 0.950 . S
H1338 C1350 0.950 . S
H1339 C1351 0.950 . S
C1340 H1332 0.950 . S
C1340 C1341 1.386 . S
C1340 C1342 1.391 . S
C1341 C1340 1.386 . S
C1341 C1345 1.393 . S
C1342 H1334 0.950 . S
C1342 C1340 1.391 . S
C1342 C1343 1.400 . S
C1343 C1342 1.400 . S
C1343 C1344 1.398 . S
C1343 C1349 1.491 . S
C1344 H1335 0.950 . S
C1344 C1343 1.398 . S
C1344 C1345 1.391 . S
C1345 H1333 0.950 . S
C1345 C1341 1.393 . S
C1345 C1344 1.391 . S
C1346 H1336 0.950 . S
C1346 C1347 1.386 . S
C1346 C1348 1.391 . S
C1347 C1346 1.386 . S
C1347 C1351 1.393 . S
C1348 H1337 0.950 . S
C1348 C1346 1.391 . S
C1348 C1349 1.400 . S
C1349 C1343 1.491 . S
C1349 C1348 1.400 . S
C1349 C1350 1.398 . S
C1350 H1338 0.950 . S
C1350 C1349 1.398 . S
C1350 C1351 1.391 . S
C1351 H1339 0.950 . S
C1351 C1347 1.393 . S
C1351 C1350 1.391 . S
H1352 C1360 0.950 . S
H1353 C1365 0.950 . S
H1354 C1362 0.950 . S
H1355 C1364 0.950 . S
H1356 C1366 0.950 . S
H1357 C1368 0.950 . S
H1358 C1370 0.950 . S
H1359 C1371 0.950 . S
C1360 H1352 0.950 . S
C1360 C1361 1.386 . S
C1360 C1362 1.391 . S
C1361 C1360 1.386 . S
C1361 C1365 1.393 . S
C1362 H1354 0.950 . S
C1362 C1360 1.391 . S
C1362 C1363 1.400 . S
C1363 C1362 1.400 . S
C1363 C1364 1.398 . S
C1363 C1369 1.491 . S
C1364 H1355 0.950 . S
C1364 C1363 1.398 . S
C1364 C1365 1.391 . S
C1365 H1353 0.950 . S
C1365 C1361 1.393 . S
C1365 C1364 1.391 . S
C1366 H1356 0.950 . S
C1366 C1367 1.386 . S
C1366 C1368 1.391 . S
C1367 C1366 1.386 . S
C1367 C1371 1.393 . S
C1368 H1357 0.950 . S
C1368 C1366 1.391 . S
C1368 C1369 1.400 . S
C1369 C1363 1.491 . S
C1369 C1368 1.400 . S
C1369 C1370 1.398 . S
C1370 H1358 0.950 . S
C1370 C1369 1.398 . S
C1370 C1371 1.391 . S
C1371 H1359 0.950 . S
C1371 C1367 1.393 . S
C1371 C1370 1.391 . S
H1372 C1380 0.950 . S
H1373 C1385 0.950 . S
H1374 C1382 0.950 . S
H1375 C1384 0.950 . S
H1376 C1386 0.950 . S
H1377 C1388 0.950 . S
H1378 C1390 0.950 . S
H1379 C1391 0.950 . S
C1380 H1372 0.950 . S
C1380 C1381 1.386 . S
C1380 C1382 1.391 . S
C1381 C1380 1.386 . S
C1381 C1385 1.393 . S
C1382 H1374 0.950 . S
C1382 C1380 1.391 . S
C1382 C1383 1.400 . S
C1383 C1382 1.400 . S
C1383 C1384 1.398 . S
C1383 C1389 1.491 . S
C1384 H1375 0.950 . S
C1384 C1383 1.398 . S
C1384 C1385 1.391 . S
C1385 H1373 0.950 . S
C1385 C1381 1.393 . S
C1385 C1384 1.391 . S
C1386 H1376 0.950 . S
C1386 C1387 1.386 . S
C1386 C1388 1.391 . S
C1387 C1386 1.386 . S
C1387 C1391 1.393 . S
C1388 H1377 0.950 . S
C1388 C1386 1.391 . S
C1388 C1389 1.400 . S
C1389 C1383 1.491 . S
C1389 C1388 1.400 . S
C1389 C1390 1.398 . S
C1390 H1378 0.950 . S
C1390 C1389 1.398 . S
C1390 C1391 1.391 . S
C1391 H1379 0.950 . S
C1391 C1387 1.393 . S
C1391 C1390 1.391 . S
H1392 C1400 0.950 . S
H1393 C1405 0.950 . S
H1394 C1402 0.950 . S
H1395 C1404 0.950 . S
H1396 C1406 0.950 . S
H1397 C1408 0.950 . S
H1398 C1410 0.950 . S
H1399 C1411 0.950 . S
C1400 H1392 0.950 . S
C1400 C1401 1.386 . S
C1400 C1402 1.391 . S
C1401 C1400 1.386 . S
C1401 C1405 1.393 . S
C1402 H1394 0.950 . S
C1402 C1400 1.391 . S
C1402 C1403 1.400 . S
C1403 C1402 1.400 . S
C1403 C1404 1.398 . S
C1403 C1409 1.491 . S
C1404 H1395 0.950 . S
C1404 C1403 1.398 . S
C1404 C1405 1.391 . S
C1405 H1393 0.950 . S
C1405 C1401 1.393 . S
C1405 C1404 1.391 . S
C1406 H1396 0.950 . S
C1406 C1407 1.386 . S
C1406 C1408 1.391 . S
C1407 C1406 1.386 . S
C1407 C1411 1.393 . S
C1408 H1397 0.950 . S
C1408 C1406 1.391 . S
C1408 C1409 1.400 . S
C1409 C1403 1.491 . S
C1409 C1408 1.400 . S
C1409 C1410 1.398 . S
C1410 H1398 0.950 . S
C1410 C1409 1.398 . S
C1410 C1411 1.391 . S
C1411 H1399 0.950 . S
C1411 C1407 1.393 . S
C1411 C1410 1.391 . S
H1412 C1420 0.950 . S
H1413 C1425 0.950 . S
H1414 C1422 0.950 . S
H1415 C1424 0.950 . S
H1416 C1426 0.950 . S
H1417 C1428 0.950 . S
H1418 C1430 0.950 . S
H1419 C1431 0.950 . S
C1420 H1412 0.950 . S
C1420 C1421 1.386 . S
C1420 C1422 1.391 . S
C1421 C1420 1.386 . S
C1421 C1425 1.393 . S
C1422 H1414 0.950 . S
C1422 C1420 1.391 . S
C1422 C1423 1.400 . S
C1423 C1422 1.400 . S
C1423 C1424 1.398 . S
C1423 C1429 1.491 . S
C1424 H1415 0.950 . S
C1424 C1423 1.398 . S
C1424 C1425 1.391 . S
C1425 H1413 0.950 . S
C1425 C1421 1.393 . S
C1425 C1424 1.391 . S
C1426 H1416 0.950 . S
C1426 C1427 1.386 . S
C1426 C1428 1.391 . S
C1427 C1426 1.386 . S
C1427 C1431 1.393 . S
C1428 H1417 0.950 . S
C1428 C1426 1.391 . S
C1428 C1429 1.400 . S
C1429 C1423 1.491 . S
C1429 C1428 1.400 . S
C1429 C1430 1.398 . S
C1430 H1418 0.950 . S
C1430 C1429 1.398 . S
C1430 C1431 1.391 . S
C1431 H1419 0.950 . S
C1431 C1427 1.393 . S
C1431 C1430 1.391 . S
H1432 C1440 0.950 . S
H1433 C1445 0.950 . S
H1434 C1442 0.950 . S
H1435 C1444 0.950 . S
H1436 C1446 0.950 . S
H1437 C1448 0.950 . S
H1438 C1450 0.950 . S
H1439 C1451 0.950 . S
C1440 H1432 0.950 . S
C1440 C1441 1.386 . S
C1440 C1442 1.391 . S
C1441 C1440 1.386 . S
C1441 C1445 1.393 . S
C1442 H1434 0.950 . S
C1442 C1440 1.391 . S
C1442 C1443 1.400 . S
C1443 C1442 1.400 . S
C1443 C1444 1.398 . S
C1443 C1449 1.491 . S
C1444 H1435 0.950 . S
C1444 C1443 1.398 . S
C1444 C1445 1.391 . S
C1445 H1433 0.950 . S
C1445 C1441 1.393 . S
C1445 C1444 1.391 . S
C1446 H1436 0.950 . S
C1446 C1447 1.386 . S
C1446 C1448 1.391 . S
C1447 C1446 1.386 . S
C1447 C1451 1.393 . S
C1448 H1437 0.950 . S
C1448 C1446 1.391 . S
C1448 C1449 1.400 . S
C1449 C1443 1.491 . S
C1449 C1448 1.400 . S
C1449 C1450 1.398 . S
C1450 H1438 0.950 . S
C1450 C1449 1.398 . S
C1450 C1451 1.391 . S
C1451 H1439 0.950 . S
C1451 C1447 1.393 . S
C1451 C1450 1.391 . S
H1452 C1460 0.950 . S
H1453 C1465 0.950 . S
H1454 C1462 0.950 . S
H1455 C1464 0.950 . S
H1456 C1466 0.950 . S
H1457 C1468 0.950 . S
H1458 C1470 0.950 . S
H1459 C1471 0.950 . S
C1460 H1452 0.950 . S
C1460 C1461 1.386 . S
C1460 C1462 1.391 . S
C1461 C1460 1.386 . S
C1461 C1465 1.393 . S
C1462 H1454 0.950 . S
C1462 C1460 1.391 . S
C1462 C1463 1.400 . S
C1463 C1462 1.400 . S
C1463 C1464 1.398 . S
C1463 C1469 1.491 . S
C1464 H1455 0.950 . S
C1464 C1463 1.398 . S
C1464 C1465 1.391 . S
C1465 H1453 0.950 . S
C1465 C1461 1.393 . S
C1465 C1464 1.391 . S
C1466 H1456 0.950 . S
C1466 C1467 1.386 . S
C1466 C1468 1.391 . S
C1467 C1466 1.386 . S
C1467 C1471 1.393 . S
C1468 H1457 0.950 . S
C1468 C1466 1.391 . S
C1468 C1469 1.400 . S
C1469 C1463 1.491 . S
C1469 C1468 1.400 . S
C1469 C1470 1.398 . S
C1470 H1458 0.950 . S
C1470 C1469 1.398 . S
C1470 C1471 1.391 . S
C1471 H1459 0.950 . S
C1471 C1467 1.393 . S
C1471 C1470 1.391 . S
H1472 C1480 0.950 . S
H1473 C1485 0.950 . S
H1474 C1482 0.950 . S
H1475 C1484 0.950 . S
H1476 C1486 0.950 . S
H1477 C1488 0.950 . S
H1478 C1490 0.950 . S
H1479 C1491 0.950 . S
C1480 H1472 0.950 . S
C1480 C1481 1.386 . S
C1480 C1482 1.391 . S
C1481 C1480 1.386 . S
C1481 C1485 1.393 . S
C1482 H1474 0.950 . S
C1482 C1480 1.391 . S
C1482 C1483 1.400 . S
C1483 C1482 1.400 . S
C1483 C1484 1.398 . S
C1483 C1489 1.491 . S
C1484 H1475 0.950 . S
C1484 C1483 1.398 . S
C1484 C1485 1.391 . S
C1485 H1473 0.950 . S
C1485 C1481 1.393 . S
C1485 C1484 1.391 . S
C1486 H1476 0.950 . S
C1486 C1487 1.386 . S
C1486 C1488 1.391 . S
C1487 C1486 1.386 . S
C1487 C1491 1.393 . S
C1488 H1477 0.950 . S
C1488 C1486 1.391 . S
C1488 C1489 1.400 . S
C1489 C1483 1.491 . S
C1489 C1488 1.400 . S
C1489 C1490 1.398 . S
C1490 H1478 0.950 . S
C1490 C1489 1.398 . S
C1490 C1491 1.391 . S
C1491 H1479 0.950 . S
C1491 C1487 1.393 . S
C1491 C1490 1.391 . S
H1492 C1500 0.950 . S
H1493 C1505 0.950 . S
H1494 C1502 0.950 . S
H1495 C1504 0.950 . S
H1496 C1506 0.950 . S
H1497 C1508 0.950 . S
H1498 C1510 0.950 . S
H1499 C1511 0.950 . S
C1500 H1492 0.950 . S
C1500 C1501 1.386 . S
C1500 C1502 1.391 . S
C1501 C1500 1.386 . S
C1501 C1505 1.393 . S
C1502 H1494 0.950 . S
C1502 C1500 1.391 . S
C1502 C1503 1.400 . S
C1503 C1502 1.400 . S
C1503 C1504 1.398 . S
C1503 C1509 1.491 . S
C1504 H1495 0.950 . S
C1504 C1503 1.398 . S
C1504 C1505 1.391 . S
C1505 H1493 0.950 . S
C1505 C1501 1.393 . S
C1505 C1504 1.391 . S
C1506 H1496 0.950 . S
C1506 C1507 1.386 . S
C1506 C1508 1.391 . S
C1507 C1506 1.386 . S
C1507 C1511 1.393 . S
C1508 H1497 0.950 . S
C1508 C1506 1.391 . S
C1508 C1509 1.400 . S
C1509 C1503 1.491 . S
C1509 C1508 1.400 . S
C1509 C1510 1.398 . S
C1510 H1498 0.950 . S
C1510 C1509 1.398 . S
C1510 C1511 1.391 . S
C1511 H1499 0.950 . S
C1511 C1507 1.393 . S
C1511 C1510 1.391 . S
H1512 C1520 0.950 . S
H1513 C1525 0.950 . S
H1514 C1522 0.950 1_655 S
H1515 C1524 0.950 . S
H1516 C1526 0.950 . S
H1517 C1528 0.950 . S
H1518 C1530 0.950 1_655 S
H1519 C1531 0.952 1_655 S
C1520 H1512 0.950 . S
C1520 C1521 1.386 . S
C1520 C1522 1.391 . S
C1521 C1520 1.386 . S
C1521 C1525 1.393 . S
C1522 H1514 0.950 1_455 S
C1522 C1520 1.391 . S
C1522 C1523 1.400 . S
C1523 C1522 1.400 . S
C1523 C1524 1.398 . S
C1523 C1529 1.491 . S
C1524 H1515 0.950 . S
C1524 C1523 1.398 . S
C1524 C1525 1.391 . S
C1525 H1513 0.950 . S
C1525 C1521 1.393 . S
C1525 C1524 1.391 . S
C1526 H1516 0.950 . S
C1526 C1527 1.386 . S
C1526 C1528 1.391 . S
C1527 C1526 1.386 . S
C1527 C1531 1.391 . S
C1528 H1517 0.950 . S
C1528 C1526 1.391 . S
C1528 C1529 1.400 . S
C1529 C1523 1.491 . S
C1529 C1528 1.400 . S
C1529 C1530 1.398 . S
C1530 H1518 0.950 1_455 S
C1530 C1529 1.398 . S
C1530 C1531 1.391 . S
C1531 H1519 0.952 1_455 S
C1531 C1527 1.391 . S
C1531 C1530 1.391 . S
H1532 C1540 0.950 . S
H1533 C1545 0.950 . S
H1534 C1542 0.950 . S
H1535 C1544 0.950 . S
H1536 C1546 0.950 . S
H1537 C1548 0.950 . S
H1538 C1550 0.950 . S
H1539 C1551 0.950 . S
C1540 H1532 0.950 . S
C1540 C1541 1.386 . S
C1540 C1542 1.391 . S
C1541 C1540 1.386 . S
C1541 C1545 1.393 . S
C1542 H1534 0.950 . S
C1542 C1540 1.391 . S
C1542 C1543 1.400 . S
C1543 C1542 1.400 . S
C1543 C1544 1.398 . S
C1543 C1549 1.491 . S
C1544 H1535 0.950 . S
C1544 C1543 1.398 . S
C1544 C1545 1.391 . S
C1545 H1533 0.950 . S
C1545 C1541 1.393 . S
C1545 C1544 1.391 . S
C1546 H1536 0.950 . S
C1546 C1547 1.386 . S
C1546 C1548 1.391 . S
C1547 C1546 1.386 . S
C1547 C1551 1.393 . S
C1548 H1537 0.950 . S
C1548 C1546 1.391 . S
C1548 C1549 1.400 . S
C1549 C1543 1.491 . S
C1549 C1548 1.400 . S
C1549 C1550 1.398 . S
C1550 H1538 0.950 . S
C1550 C1549 1.398 . S
C1550 C1551 1.391 . S
C1551 H1539 0.950 . S
C1551 C1547 1.393 . S
C1551 C1550 1.391 . S
H1552 C1560 0.950 . S
H1553 C1565 0.950 . S
H1554 C1562 0.950 . S
H1555 C1564 0.950 . S
H1556 C1566 0.950 1_545 S
H1557 C1568 0.950 . S
H1558 C1570 0.950 . S
H1559 C1571 0.950 . S
C1560 H1552 0.950 . S
C1560 C1561 1.386 . S
C1560 C1562 1.391 . S
C1561 C1560 1.386 . S
C1561 C1565 1.393 . S
C1562 H1554 0.950 . S
C1562 C1560 1.391 . S
C1562 C1563 1.400 . S
C1563 C1562 1.400 . S
C1563 C1564 1.398 . S
C1563 C1569 1.491 . S
C1564 H1555 0.950 . S
C1564 C1563 1.398 . S
C1564 C1565 1.391 . S
C1565 H1553 0.950 . S
C1565 C1561 1.393 . S
C1565 C1564 1.391 . S
C1566 H1556 0.950 1_565 S
C1566 C1567 1.386 . S
C1566 C1568 1.391 . S
C1567 C1566 1.386 . S
C1567 C1571 1.393 . S
C1568 H1557 0.950 . S
C1568 C1566 1.391 . S
C1568 C1569 1.400 . S
C1569 C1563 1.491 . S
C1569 C1568 1.400 . S
C1569 C1570 1.398 . S
C1570 H1558 0.950 . S
C1570 C1569 1.398 . S
C1570 C1571 1.391 . S
C1571 H1559 0.950 . S
C1571 C1567 1.393 . S
C1571 C1570 1.391 . S
H1572 C1580 0.950 . S
H1573 C1585 0.950 . S
H1574 C1582 0.950 . S
H1575 C1584 0.950 . S
H1576 C1586 0.950 . S
H1577 C1588 0.950 . S
H1578 C1590 0.950 . S
H1579 C1591 0.950 . S
C1580 H1572 0.950 . S
C1580 C1581 1.386 . S
C1580 C1582 1.391 . S
C1581 C1580 1.386 . S
C1581 C1585 1.393 . S
C1582 H1574 0.950 . S
C1582 C1580 1.391 . S
C1582 C1583 1.400 . S
C1583 C1582 1.400 . S
C1583 C1584 1.398 . S
C1583 C1589 1.491 . S
C1584 H1575 0.950 . S
C1584 C1583 1.398 . S
C1584 C1585 1.391 . S
C1585 H1573 0.950 . S
C1585 C1581 1.393 . S
C1585 C1584 1.391 . S
C1586 H1576 0.950 . S
C1586 C1587 1.386 . S
C1586 C1588 1.391 . S
C1587 C1586 1.386 . S
C1587 C1591 1.393 . S
C1588 H1577 0.950 . S
C1588 C1586 1.391 . S
C1588 C1589 1.400 . S
C1589 C1583 1.491 . S
C1589 C1588 1.400 . S
C1589 C1590 1.398 . S
C1590 H1578 0.950 . S
C1590 C1589 1.398 . S
C1590 C1591 1.391 . S
C1591 H1579 0.950 . S
C1591 C1587 1.393 . S
C1591 C1590 1.391 . S
H1592 C1600 0.950 . S
H1593 C1605 0.950 . S
H1594 C1602 0.950 . S
H1595 C1604 0.950 . S
H1596 C1606 0.950 . S
H1597 C1608 0.950 . S
H1598 C1610 0.950 . S
H1599 C1611 0.950 . S
C1600 H1592 0.950 . S
C1600 C1601 1.386 . S
C1600 C1602 1.391 . S
C1601 C1600 1.386 . S
C1601 C1605 1.393 . S
C1602 H1594 0.950 . S
C1602 C1600 1.391 . S
C1602 C1603 1.400 . S
C1603 C1602 1.400 . S
C1603 C1604 1.398 . S
C1603 C1609 1.491 . S
C1604 H1595 0.950 . S
C1604 C1603 1.398 . S
C1604 C1605 1.391 . S
C1605 H1593 0.950 . S
C1605 C1601 1.393 . S
C1605 C1604 1.391 . S
C1606 H1596 0.950 . S
C1606 C1607 1.386 . S
C1606 C1608 1.391 . S
C1607 C1606 1.386 . S
C1607 C1611 1.393 . S
C1608 H1597 0.950 . S
C1608 C1606 1.391 . S
C1608 C1609 1.400 . S
C1609 C1603 1.491 . S
C1609 C1608 1.400 . S
C1609 C1610 1.398 . S
C1610 H1598 0.950 . S
C1610 C1609 1.398 . S
C1610 C1611 1.391 . S
C1611 H1599 0.950 . S
C1611 C1607 1.393 . S
C1611 C1610 1.391 . S
H1612 C1620 0.950 . S
H1613 C1625 0.950 . S
H1614 C1622 0.950 . S
H1615 C1624 0.950 . S
H1616 C1626 0.950 . S
H1617 C1628 0.950 . S
H1618 C1630 0.950 . S
H1619 C1631 0.950 . S
C1620 H1612 0.950 . S
C1620 C1621 1.386 . S
C1620 C1622 1.391 . S
C1621 C1620 1.386 . S
C1621 C1625 1.393 . S
C1622 H1614 0.950 . S
C1622 C1620 1.391 . S
C1622 C1623 1.400 . S
C1623 C1622 1.400 . S
C1623 C1624 1.398 . S
C1623 C1629 1.491 . S
C1624 H1615 0.950 . S
C1624 C1623 1.398 . S
C1624 C1625 1.391 . S
C1625 H1613 0.950 . S
C1625 C1621 1.393 . S
C1625 C1624 1.391 . S
C1626 H1616 0.950 . S
C1626 C1627 1.386 . S
C1626 C1628 1.391 . S
C1627 C1626 1.386 . S
C1627 C1631 1.393 . S
C1628 H1617 0.950 . S
C1628 C1626 1.391 . S
C1628 C1629 1.400 . S
C1629 C1623 1.491 . S
C1629 C1628 1.400 . S
C1629 C1630 1.398 . S
C1630 H1618 0.950 . S
C1630 C1629 1.398 . S
C1630 C1631 1.391 . S
C1631 H1619 0.950 . S
C1631 C1627 1.393 . S
C1631 C1630 1.391 . S
H1632 C1640 0.950 . S
H1633 C1645 0.950 . S
H1634 C1642 0.950 . S
H1635 C1644 0.950 . S
H1636 C1646 0.950 . S
H1637 C1648 0.950 1_565 S
H1638 C1650 0.950 . S
H1639 C1651 0.950 . S
C1640 H1632 0.950 . S
C1640 C1641 1.386 . S
C1640 C1642 1.391 . S
C1641 C1640 1.386 . S
C1641 C1645 1.393 1_545 S
C1642 H1634 0.950 . S
C1642 C1640 1.391 . S
C1642 C1643 1.400 . S
C1643 C1642 1.400 . S
C1643 C1644 1.398 1_545 S
C1643 C1649 1.491 . S
C1644 H1635 0.950 . S
C1644 C1643 1.398 1_565 S
C1644 C1645 1.391 . S
C1645 H1633 0.950 . S
C1645 C1641 1.393 1_565 S
C1645 C1644 1.391 . S
C1646 H1636 0.950 . S
C1646 C1647 1.386 . S
C1646 C1648 1.391 . S
C1647 C1646 1.386 . S
C1647 C1651 1.393 . S
C1648 H1637 0.950 1_545 S
C1648 C1646 1.391 . S
C1648 C1649 1.400 . S
C1649 C1643 1.491 . S
C1649 C1648 1.400 . S
C1649 C1650 1.398 . S
C1650 H1638 0.950 . S
C1650 C1649 1.398 . S
C1650 C1651 1.391 . S
C1651 H1639 0.950 . S
C1651 C1647 1.393 . S
C1651 C1650 1.391 . S
H1652 C1660 0.950 . S
H1653 C1665 0.950 . S
H1654 C1662 0.950 . S
H1655 C1664 0.950 . S
H1656 C1666 0.950 . S
H1657 C1668 0.950 . S
H1658 C1670 0.950 . S
H1659 C1671 0.950 . S
C1660 H1652 0.950 . S
C1660 C1661 1.386 . S
C1660 C1662 1.391 . S
C1661 C1660 1.386 . S
C1661 C1665 1.393 . S
C1662 H1654 0.950 . S
C1662 C1660 1.391 . S
C1662 C1663 1.400 . S
C1663 C1662 1.400 . S
C1663 C1664 1.398 . S
C1663 C1669 1.491 . S
C1664 H1655 0.950 . S
C1664 C1663 1.398 . S
C1664 C1665 1.391 . S
C1665 H1653 0.950 . S
C1665 C1661 1.393 . S
C1665 C1664 1.391 . S
C1666 H1656 0.950 . S
C1666 C1667 1.386 . S
C1666 C1668 1.391 . S
C1667 C1666 1.386 . S
C1667 C1671 1.393 . S
C1668 H1657 0.950 . S
C1668 C1666 1.391 . S
C1668 C1669 1.400 . S
C1669 C1663 1.491 . S
C1669 C1668 1.400 . S
C1669 C1670 1.398 . S
C1670 H1658 0.950 . S
C1670 C1669 1.398 . S
C1670 C1671 1.391 . S
C1671 H1659 0.950 . S
C1671 C1667 1.393 . S
C1671 C1670 1.391 . S
H1672 C1680 0.950 . S
H1673 C1685 0.950 . S
H1674 C1682 0.950 . S
H1675 C1684 0.950 . S
H1676 C1686 0.950 . S
H1677 C1688 0.950 . S
H1678 C1690 0.950 . S
H1679 C1691 0.950 . S
C1680 H1672 0.950 . S
C1680 C1681 1.386 . S
C1680 C1682 1.391 . S
C1681 C1680 1.386 . S
C1681 C1685 1.393 . S
C1682 H1674 0.950 . S
C1682 C1680 1.391 . S
C1682 C1683 1.400 . S
C1683 C1682 1.400 . S
C1683 C1684 1.398 . S
C1683 C1689 1.491 . S
C1684 H1675 0.950 . S
C1684 C1683 1.398 . S
C1684 C1685 1.391 . S
C1685 H1673 0.950 . S
C1685 C1681 1.393 . S
C1685 C1684 1.391 . S
C1686 H1676 0.950 . S
C1686 C1687 1.386 . S
C1686 C1688 1.391 . S
C1687 C1686 1.386 . S
C1687 C1691 1.393 . S
C1688 H1677 0.950 . S
C1688 C1686 1.391 . S
C1688 C1689 1.400 . S
C1689 C1683 1.491 . S
C1689 C1688 1.400 . S
C1689 C1690 1.398 . S
C1690 H1678 0.950 . S
C1690 C1689 1.398 . S
C1690 C1691 1.391 . S
C1691 H1679 0.950 . S
C1691 C1687 1.393 . S
C1691 C1690 1.391 . S
H1692 C1700 0.950 . S
H1693 C1705 0.950 . S
H1694 C1702 0.950 . S
H1695 C1704 0.950 . S
H1696 C1706 0.950 . S
H1697 C1708 0.950 . S
H1698 C1710 0.950 . S
H1699 C1711 0.950 . S
C1700 H1692 0.950 . S
C1700 C1701 1.386 . S
C1700 C1702 1.391 . S
C1701 C1700 1.386 . S
C1701 C1705 1.393 . S
C1702 H1694 0.950 . S
C1702 C1700 1.391 . S
C1702 C1703 1.400 . S
C1703 C1702 1.400 . S
C1703 C1704 1.398 . S
C1703 C1709 1.491 . S
C1704 H1695 0.950 . S
C1704 C1703 1.398 . S
C1704 C1705 1.391 . S
C1705 H1693 0.950 . S
C1705 C1701 1.393 . S
C1705 C1704 1.391 . S
C1706 H1696 0.950 . S
C1706 C1707 1.386 . S
C1706 C1708 1.391 . S
C1707 C1706 1.386 . S
C1707 C1711 1.393 . S
C1708 H1697 0.950 . S
C1708 C1706 1.391 . S
C1708 C1709 1.400 . S
C1709 C1703 1.491 . S
C1709 C1708 1.400 . S
C1709 C1710 1.398 . S
C1710 H1698 0.950 . S
C1710 C1709 1.398 . S
C1710 C1711 1.391 . S
C1711 H1699 0.950 . S
C1711 C1707 1.393 . S
C1711 C1710 1.391 . S
H1712 C1720 0.950 . S
H1713 C1725 0.950 . S
H1714 C1722 0.950 . S
H1715 C1724 0.950 . S
H1716 C1726 0.950 . S
H1717 C1728 0.950 . S
H1718 C1730 0.950 . S
H1719 C1731 0.950 . S
C1720 H1712 0.950 . S
C1720 C1721 1.386 1_565 S
C1720 C1722 1.391 . S
C1721 C1720 1.386 1_545 S
C1721 C1725 1.393 . S
C1722 H1714 0.950 . S
C1722 C1720 1.391 . S
C1722 C1723 1.400 1_565 S
C1723 C1722 1.400 1_545 S
C1723 C1724 1.398 . S
C1723 C1729 1.491 . S
C1724 H1715 0.950 . S
C1724 C1723 1.398 . S
C1724 C1725 1.391 . S
C1725 H1713 0.950 . S
C1725 C1721 1.393 . S
C1725 C1724 1.391 . S
C1726 H1716 0.950 . S
C1726 C1727 1.419 . S
C1726 C1728 1.391 . S
C1727 C1726 1.419 . S
C1727 C1731 1.362 1_545 S
C1728 H1717 0.950 . S
C1728 C1726 1.391 . S
C1728 C1729 1.400 . S
C1729 C1723 1.491 . S
C1729 C1728 1.400 . S
C1729 C1730 1.398 1_545 S
C1730 H1718 0.950 . S
C1730 C1729 1.398 1_565 S
C1730 C1731 1.391 . S
C1731 H1719 0.950 . S
C1731 C1727 1.362 1_565 S
C1731 C1730 1.391 . S
H1732 C1740 0.950 . S
H1733 C1745 0.950 . S
H1734 C1742 0.950 . S
H1735 C1744 0.950 . S
H1736 C1746 0.950 . S
H1737 C1748 0.950 . S
H1738 C1750 0.950 . S
H1739 C1751 0.950 . S
C1740 H1732 0.950 . S
C1740 C1741 1.386 . S
C1740 C1742 1.391 . S
C1741 C1740 1.386 . S
C1741 C1745 1.393 . S
C1742 H1734 0.950 . S
C1742 C1740 1.391 . S
C1742 C1743 1.400 . S
C1743 C1742 1.400 . S
C1743 C1744 1.398 . S
C1743 C1749 1.491 . S
C1744 H1735 0.950 . S
C1744 C1743 1.398 . S
C1744 C1745 1.391 . S
C1745 H1733 0.950 . S
C1745 C1741 1.393 . S
C1745 C1744 1.391 . S
C1746 H1736 0.950 . S
C1746 C1747 1.386 . S
C1746 C1748 1.391 . S
C1747 C1746 1.386 . S
C1747 C1751 1.393 . S
C1748 H1737 0.950 . S
C1748 C1746 1.391 . S
C1748 C1749 1.400 . S
C1749 C1743 1.491 . S
C1749 C1748 1.400 . S
C1749 C1750 1.398 . S
C1750 H1738 0.950 . S
C1750 C1749 1.398 . S
C1750 C1751 1.391 . S
C1751 H1739 0.950 . S
C1751 C1747 1.393 . S
C1751 C1750 1.391 . S
H1752 C1760 0.950 . S
H1753 C1765 0.950 . S
H1754 C1762 0.950 . S
H1755 C1764 0.950 . S
H1756 C1766 0.950 . S
H1757 C1768 0.950 . S
H1758 C1770 0.950 . S
H1759 C1771 0.950 1_556 S
C1760 H1752 0.950 . S
C1760 C1761 1.386 . S
C1760 C1762 1.391 . S
C1761 C1760 1.386 . S
C1761 C1765 1.393 . S
C1762 H1754 0.950 . S
C1762 C1760 1.391 . S
C1762 C1763 1.400 . S
C1763 C1762 1.400 . S
C1763 C1764 1.398 . S
C1763 C1769 1.491 . S
C1764 H1755 0.950 . S
C1764 C1763 1.398 . S
C1764 C1765 1.391 . S
C1765 H1753 0.950 . S
C1765 C1761 1.393 . S
C1765 C1764 1.391 . S
C1766 H1756 0.950 . S
C1766 C1767 1.386 . S
C1766 C1768 1.391 . S
C1767 C1766 1.386 . S
C1767 C1771 1.393 . S
C1768 H1757 0.950 . S
C1768 C1766 1.391 . S
C1768 C1769 1.400 . S
C1769 C1763 1.491 . S
C1769 C1768 1.400 . S
C1769 C1770 1.398 . S
C1770 H1758 0.950 . S
C1770 C1769 1.398 . S
C1770 C1771 1.391 . S
C1771 H1759 0.950 1_554 S
C1771 C1767 1.393 . S
C1771 C1770 1.391 . S
H1772 C1780 0.950 . S
H1773 C1785 0.950 . S
H1774 C1782 0.950 . S
H1775 C1784 0.950 . S
H1776 C1786 0.950 . S
H1777 C1788 0.950 . S
H1778 C1790 0.950 . S
H1779 C1791 0.950 . S
C1780 H1772 0.950 . S
C1780 C1781 1.386 . S
C1780 C1782 1.391 . S
C1781 C1780 1.386 . S
C1781 C1785 1.393 . S
C1782 H1774 0.950 . S
C1782 C1780 1.391 . S
C1782 C1783 1.400 . S
C1783 C1782 1.400 . S
C1783 C1784 1.398 . S
C1783 C1789 1.491 . S
C1784 H1775 0.950 . S
C1784 C1783 1.398 . S
C1784 C1785 1.391 . S
C1785 H1773 0.950 . S
C1785 C1781 1.393 . S
C1785 C1784 1.391 . S
C1786 H1776 0.950 . S
C1786 C1787 1.386 . S
C1786 C1788 1.391 . S
C1787 C1786 1.386 . S
C1787 C1791 1.393 . S
C1788 H1777 0.950 . S
C1788 C1786 1.391 . S
C1788 C1789 1.400 . S
C1789 C1783 1.491 . S
C1789 C1788 1.400 . S
C1789 C1790 1.398 . S
C1790 H1778 0.950 . S
C1790 C1789 1.398 . S
C1790 C1791 1.391 . S
C1791 H1779 0.950 . S
C1791 C1787 1.393 . S
C1791 C1790 1.391 . S
H1792 C1800 0.950 . S
H1793 C1805 0.950 . S
H1794 C1802 0.950 . S
H1795 C1804 0.950 . S
H1796 C1806 0.950 . S
H1797 C1808 0.950 . S
H1798 C1810 0.950 . S
H1799 C1811 0.950 . S
C1800 H1792 0.950 . S
C1800 C1801 1.386 . S
C1800 C1802 1.391 . S
C1801 C1800 1.386 . S
C1801 C1805 1.393 . S
C1802 H1794 0.950 . S
C1802 C1800 1.391 . S
C1802 C1803 1.400 . S
C1803 C1802 1.400 . S
C1803 C1804 1.398 . S
C1803 C1809 1.491 . S
C1804 H1795 0.950 . S
C1804 C1803 1.398 . S
C1804 C1805 1.391 . S
C1805 H1793 0.950 . S
C1805 C1801 1.393 . S
C1805 C1804 1.391 . S
C1806 H1796 0.950 . S
C1806 C1807 1.386 . S
C1806 C1808 1.391 . S
C1807 C1806 1.386 . S
C1807 C1811 1.393 . S
C1808 H1797 0.950 . S
C1808 C1806 1.391 . S
C1808 C1809 1.400 . S
C1809 C1803 1.491 . S
C1809 C1808 1.400 . S
C1809 C1810 1.398 . S
C1810 H1798 0.950 . S
C1810 C1809 1.398 . S
C1810 C1811 1.391 . S
C1811 H1799 0.950 . S
C1811 C1807 1.393 . S
C1811 C1810 1.391 . S
H1812 C1820 0.950 . S
H1813 C1825 0.950 . S
H1814 C1822 0.950 . S
H1815 C1824 0.950 . S
H1816 C1826 0.950 . S
H1817 C1828 0.950 . S
H1818 C1830 0.950 . S
H1819 C1831 0.950 . S
C1820 H1812 0.950 . S
C1820 C1821 1.386 . S
C1820 C1822 1.391 . S
C1821 C1820 1.386 . S
C1821 C1825 1.393 . S
C1822 H1814 0.950 . S
C1822 C1820 1.391 . S
C1822 C1823 1.400 . S
C1823 C1822 1.400 . S
C1823 C1824 1.398 . S
C1823 C1829 1.491 . S
C1824 H1815 0.950 . S
C1824 C1823 1.398 . S
C1824 C1825 1.391 . S
C1825 H1813 0.950 . S
C1825 C1821 1.393 . S
C1825 C1824 1.391 . S
C1826 H1816 0.950 . S
C1826 C1827 1.386 . S
C1826 C1828 1.391 . S
C1827 C1826 1.386 . S
C1827 C1831 1.393 . S
C1828 H1817 0.950 . S
C1828 C1826 1.391 . S
C1828 C1829 1.400 . S
C1829 C1823 1.491 . S
C1829 C1828 1.400 . S
C1829 C1830 1.398 . S
C1830 H1818 0.950 . S
C1830 C1829 1.398 . S
C1830 C1831 1.391 . S
C1831 H1819 0.950 . S
C1831 C1827 1.393 . S
C1831 C1830 1.391 . S
H1832 C1840 0.950 . S
H1833 C1845 0.950 . S
H1834 C1842 0.950 . S
H1835 C1844 0.950 . S
H1836 C1846 0.950 . S
H1837 C1848 0.950 . S
H1838 C1850 0.950 . S
H1839 C1851 0.950 . S
C1840 H1832 0.950 . S
C1840 C1841 1.386 . S
C1840 C1842 1.391 1_545 S
C1841 C1840 1.386 . S
C1841 C1845 1.393 . S
C1842 H1834 0.950 . S
C1842 C1840 1.391 1_565 S
C1842 C1843 1.400 . S
C1843 C1842 1.400 . S
C1843 C1844 1.398 1_565 S
C1843 C1849 1.491 . S
C1844 H1835 0.950 . S
C1844 C1843 1.398 1_545 S
C1844 C1845 1.391 . S
C1845 H1833 0.950 . S
C1845 C1841 1.393 . S
C1845 C1844 1.391 . S
C1846 H1836 0.950 . S
C1846 C1847 1.386 . S
C1846 C1848 1.391 . S
C1847 C1846 1.386 . S
C1847 C1851 1.393 . S
C1848 H1837 0.950 . S
C1848 C1846 1.391 . S
C1848 C1849 1.400 . S
C1849 C1843 1.491 . S
C1849 C1848 1.400 . S
C1849 C1850 1.398 . S
C1850 H1838 0.950 . S
C1850 C1849 1.398 . S
C1850 C1851 1.391 . S
C1851 H1839 0.950 . S
C1851 C1847 1.393 . S
C1851 C1850 1.391 . S
H1852 C1860 0.950 . S
H1853 C1865 0.950 . S
H1854 C1862 0.950 . S
H1855 C1864 0.950 . S
H1856 C1866 0.950 . S
H1857 C1868 0.950 . S
H1858 C1870 0.950 . S
H1859 C1871 0.950 . S
C1860 H1852 0.950 . S
C1860 C1861 1.386 . S
C1860 C1862 1.391 . S
C1861 C1860 1.386 . S
C1861 C1865 1.393 . S
C1862 H1854 0.950 . S
C1862 C1860 1.391 . S
C1862 C1863 1.400 . S
C1863 C1862 1.400 . S
C1863 C1864 1.398 . S
C1863 C1869 1.491 . S
C1864 H1855 0.950 . S
C1864 C1863 1.398 . S
C1864 C1865 1.391 . S
C1865 H1853 0.950 . S
C1865 C1861 1.393 . S
C1865 C1864 1.391 . S
C1866 H1856 0.950 . S
C1866 C1867 1.386 . S
C1866 C1868 1.391 . S
C1867 C1866 1.386 . S
C1867 C1871 1.393 . S
C1868 H1857 0.950 . S
C1868 C1866 1.391 . S
C1868 C1869 1.400 . S
C1869 C1863 1.491 . S
C1869 C1868 1.400 . S
C1869 C1870 1.398 . S
C1870 H1858 0.950 . S
C1870 C1869 1.398 . S
C1870 C1871 1.391 . S
C1871 H1859 0.950 . S
C1871 C1867 1.393 . S
C1871 C1870 1.391 . S
H1872 C1880 0.950 . S
H1873 C1885 0.950 . S
H1874 C1882 0.950 . S
H1875 C1884 0.950 . S
H1876 C1886 0.950 . S
H1877 C1888 0.950 . S
H1878 C1890 0.950 . S
H1879 C1891 0.950 . S
C1880 H1872 0.950 . S
C1880 C1881 1.386 . S
C1880 C1882 1.391 . S
C1881 C1880 1.386 . S
C1881 C1885 1.393 . S
C1882 H1874 0.950 . S
C1882 C1880 1.391 . S
C1882 C1883 1.400 . S
C1883 C1882 1.400 . S
C1883 C1884 1.398 . S
C1883 C1889 1.491 . S
C1884 H1875 0.950 . S
C1884 C1883 1.398 . S
C1884 C1885 1.391 . S
C1885 H1873 0.950 . S
C1885 C1881 1.393 . S
C1885 C1884 1.391 . S
C1886 H1876 0.950 . S
C1886 C1887 1.386 . S
C1886 C1888 1.391 . S
C1887 C1886 1.386 . S
C1887 C1891 1.393 . S
C1888 H1877 0.950 . S
C1888 C1886 1.391 . S
C1888 C1889 1.400 . S
C1889 C1883 1.491 . S
C1889 C1888 1.400 . S
C1889 C1890 1.398 . S
C1890 H1878 0.950 . S
C1890 C1889 1.398 . S
C1890 C1891 1.391 . S
C1891 H1879 0.950 . S
C1891 C1887 1.393 . S
C1891 C1890 1.391 . S
H1892 C1900 0.950 . S
H1893 C1905 0.950 . S
H1894 C1902 0.950 . S
H1895 C1904 0.950 . S
H1896 C1906 0.950 . S
H1897 C1908 0.950 . S
H1898 C1910 0.950 . S
H1899 C1911 0.950 . S
C1900 H1892 0.950 . S
C1900 C1901 1.386 . S
C1900 C1902 1.391 . S
C1901 C1900 1.386 . S
C1901 C1905 1.393 . S
C1902 H1894 0.950 . S
C1902 C1900 1.391 . S
C1902 C1903 1.400 . S
C1903 C1902 1.400 . S
C1903 C1904 1.398 . S
C1903 C1909 1.491 . S
C1904 H1895 0.950 . S
C1904 C1903 1.398 . S
C1904 C1905 1.391 . S
C1905 H1893 0.950 . S
C1905 C1901 1.393 . S
C1905 C1904 1.391 . S
C1906 H1896 0.950 . S
C1906 C1907 1.386 . S
C1906 C1908 1.391 . S
C1907 C1906 1.386 . S
C1907 C1911 1.393 . S
C1908 H1897 0.950 . S
C1908 C1906 1.391 . S
C1908 C1909 1.400 . S
C1909 C1903 1.491 . S
C1909 C1908 1.400 . S
C1909 C1910 1.398 . S
C1910 H1898 0.950 . S
C1910 C1909 1.398 . S
C1910 C1911 1.391 . S
C1911 H1899 0.950 . S
C1911 C1907 1.393 . S
C1911 C1910 1.391 . S
H1912 C1920 0.950 . S
H1913 C1925 0.950 . S
H1914 C1922 0.950 . S
H1915 C1924 0.950 . S
H1916 C1926 0.950 . S
H1917 C1928 0.950 . S
H1918 C1930 0.950 . S
H1919 C1931 0.950 . S
C1920 H1912 0.950 . S
C1920 C1921 1.386 . S
C1920 C1922 1.391 . S
C1921 C1920 1.386 . S
C1921 C1925 1.393 . S
C1922 H1914 0.950 . S
C1922 C1920 1.391 . S
C1922 C1923 1.400 . S
C1923 C1922 1.400 . S
C1923 C1924 1.398 . S
C1923 C1929 1.491 . S
C1924 H1915 0.950 . S
C1924 C1923 1.398 . S
C1924 C1925 1.391 . S
C1925 H1913 0.950 . S
C1925 C1921 1.393 . S
C1925 C1924 1.391 . S
C1926 H1916 0.950 . S
C1926 C1927 1.386 . S
C1926 C1928 1.391 . S
C1927 C1926 1.386 . S
C1927 C1931 1.393 . S
C1928 H1917 0.950 . S
C1928 C1926 1.391 . S
C1928 C1929 1.400 . S
C1929 C1923 1.491 . S
C1929 C1928 1.400 . S
C1929 C1930 1.398 . S
C1930 H1918 0.950 . S
C1930 C1929 1.398 . S
C1930 C1931 1.391 . S
C1931 H1919 0.950 . S
C1931 C1927 1.393 . S
C1931 C1930 1.391 . S
H1932 C1940 0.950 . S
H1933 C1945 0.950 . S
H1934 C1942 0.950 . S
H1935 C1944 0.950 . S
H1936 C1946 0.950 . S
H1937 C1948 0.950 . S
H1938 C1950 0.950 . S
H1939 C1951 0.950 . S
C1940 H1932 0.950 . S
C1940 C1941 1.386 . S
C1940 C1942 1.391 . S
C1941 C1940 1.386 . S
C1941 C1945 1.393 . S
C1942 H1934 0.950 . S
C1942 C1940 1.391 . S
C1942 C1943 1.400 . S
C1943 C1942 1.400 . S
C1943 C1944 1.398 . S
C1943 C1949 1.491 . S
C1944 H1935 0.950 . S
C1944 C1943 1.398 . S
C1944 C1945 1.391 . S
C1945 H1933 0.950 . S
C1945 C1941 1.393 . S
C1945 C1944 1.391 . S
C1946 H1936 0.950 . S
C1946 C1947 1.386 . S
C1946 C1948 1.391 . S
C1947 C1946 1.386 . S
C1947 C1951 1.393 . S
C1948 H1937 0.950 . S
C1948 C1946 1.391 . S
C1948 C1949 1.400 . S
C1949 C1943 1.491 . S
C1949 C1948 1.400 . S
C1949 C1950 1.398 . S
C1950 H1938 0.950 . S
C1950 C1949 1.398 . S
C1950 C1951 1.391 . S
C1951 H1939 0.950 . S
C1951 C1947 1.393 . S
C1951 C1950 1.391 . S
H1952 C1960 0.950 . S
H1953 C1965 0.950 . S
H1954 C1962 0.950 . S
H1955 C1964 0.950 . S
H1956 C1966 0.950 . S
H1957 C1968 0.950 . S
H1958 C1970 0.950 . S
H1959 C1971 0.950 . S
C1960 H1952 0.950 . S
C1960 C1961 1.386 . S
C1960 C1962 1.391 1_556 S
C1961 C1960 1.386 . S
C1961 C1965 1.393 1_455 S
C1962 H1954 0.950 . S
C1962 C1960 1.391 1_554 S
C1962 C1963 1.400 . S
C1963 C1962 1.400 . S
C1963 C1964 1.398 1_455 S
C1963 C1969 1.491 . S
C1964 H1955 0.950 . S
C1964 C1963 1.398 1_655 S
C1964 C1965 1.391 1_554 S
C1965 H1953 0.950 . S
C1965 C1961 1.393 1_655 S
C1965 C1964 1.391 1_556 S
C1966 H1956 0.950 . S
C1966 C1967 1.386 1_655 S
C1966 C1968 1.391 . S
C1967 C1966 1.386 1_455 S
C1967 C1971 1.393 . S
C1968 H1957 0.950 . S
C1968 C1966 1.391 . S
C1968 C1969 1.400 1_655 S
C1969 C1963 1.491 . S
C1969 C1968 1.400 1_455 S
C1969 C1970 1.398 . S
C1970 H1958 0.950 . S
C1970 C1969 1.398 . S
C1970 C1971 1.391 . S
C1971 H1959 0.950 . S
C1971 C1967 1.393 . S
C1971 C1970 1.391 . S
H1972 C1980 0.974 . S
H1973 C1985 0.950 . S
H1974 C1982 0.950 . S
H1975 C1984 0.950 . S
H1976 C1986 0.950 . S
H1977 C1988 0.950 . S
H1978 C1990 0.950 . S
H1979 C1991 0.950 . S
C1980 H1972 0.974 . S
C1980 C1981 1.406 1_455 S
C1980 C1982 1.358 1_455 S
C1981 C1980 1.406 1_655 S
C1981 C1985 1.414 . S
C1982 H1974 0.950 . S
C1982 C1980 1.358 1_655 S
C1982 C1983 1.400 . S
C1983 C1982 1.400 . S
C1983 C1984 1.398 . S
C1983 C1989 1.491 . S
C1984 H1975 0.950 . S
C1984 C1983 1.398 . S
C1984 C1985 1.391 . S
C1985 H1973 0.950 . S
C1985 C1981 1.414 . S
C1985 C1984 1.391 . S
C1986 H1976 0.950 . S
C1986 C1987 1.386 . S
C1986 C1988 1.391 . S
C1987 C1986 1.386 . S
C1987 C1991 1.393 . S
C1988 H1977 0.950 . S
C1988 C1986 1.391 . S
C1988 C1989 1.400 . S
C1989 C1983 1.491 . S
C1989 C1988 1.400 . S
C1989 C1990 1.398 . S
C1990 H1978 0.950 . S
C1990 C1989 1.398 . S
C1990 C1991 1.391 . S
C1991 H1979 0.950 . S
C1991 C1987 1.393 . S
C1991 C1990 1.391 . S
H1992 C2000 0.950 . S
H1993 C2005 0.950 . S
H1994 C2002 0.950 . S
H1995 C2004 0.950 . S
H1996 C2006 0.950 . S
H1997 C2008 0.950 . S
H1998 C2010 0.950 . S
H1999 C2011 0.950 . S
C2000 H1992 0.950 . S
C2000 C2001 1.386 . S
C2000 C2002 1.391 . S
C2001 C2000 1.386 . S
C2001 C2005 1.393 . S
C2002 H1994 0.950 . S
C2002 C2000 1.391 . S
C2002 C2003 1.400 . S
C2003 C2002 1.400 . S
C2003 C2004 1.398 . S
C2003 C2009 1.491 . S
C2004 H1995 0.950 . S
C2004 C2003 1.398 . S
C2004 C2005 1.391 . S
C2005 H1993 0.950 . S
C2005 C2001 1.393 . S
C2005 C2004 1.391 . S
C2006 H1996 0.950 . S
C2006 C2007 1.386 . S
C2006 C2008 1.391 . S
C2007 C2006 1.386 . S
C2007 C2011 1.393 . S
C2008 H1997 0.950 . S
C2008 C2006 1.391 . S
C2008 C2009 1.400 . S
C2009 C2003 1.491 . S
C2009 C2008 1.400 . S
C2009 C2010 1.398 . S
C2010 H1998 0.950 . S
C2010 C2009 1.398 . S
C2010 C2011 1.391 . S
C2011 H1999 0.950 . S
C2011 C2007 1.393 . S
C2011 C2010 1.391 . S
H2012 C2020 0.950 . S
H2013 C2025 0.950 . S
H2014 C2022 0.950 . S
H2015 C2024 0.950 . S
H2016 C2026 0.950 . S
H2017 C2028 0.950 . S
H2018 C2030 0.950 . S
H2019 C2031 0.950 . S
C2020 H2012 0.950 . S
C2020 C2021 1.386 . S
C2020 C2022 1.391 . S
C2021 C2020 1.386 . S
C2021 C2025 1.393 . S
C2022 H2014 0.950 . S
C2022 C2020 1.391 . S
C2022 C2023 1.400 . S
C2023 C2022 1.400 . S
C2023 C2024 1.398 . S
C2023 C2029 1.491 . S
C2024 H2015 0.950 . S
C2024 C2023 1.398 . S
C2024 C2025 1.391 . S
C2025 H2013 0.950 . S
C2025 C2021 1.393 . S
C2025 C2024 1.391 . S
C2026 H2016 0.950 . S
C2026 C2027 1.386 . S
C2026 C2028 1.391 . S
C2027 C2026 1.386 . S
C2027 C2031 1.393 . S
C2028 H2017 0.950 . S
C2028 C2026 1.391 . S
C2028 C2029 1.400 . S
C2029 C2023 1.491 . S
C2029 C2028 1.400 . S
C2029 C2030 1.398 . S
C2030 H2018 0.950 . S
C2030 C2029 1.398 . S
C2030 C2031 1.391 . S
C2031 H2019 0.950 . S
C2031 C2027 1.393 . S
C2031 C2030 1.391 . S
H2032 C2040 0.977 . S
H2033 C2045 0.950 . S
H2034 C2042 0.972 . S
H2035 C2044 0.950 . S
H2036 C2046 0.950 . S
H2037 C2048 0.950 . S
H2038 C2050 0.950 . S
H2039 C2051 0.950 . S
C2040 H2032 0.977 . S
C2040 C2041 1.369 1_655 S
C2040 C2042 1.393 . S
C2041 C2040 1.369 1_455 S
C2041 C2045 1.393 . S
C2042 H2034 0.972 . S
C2042 C2040 1.393 . S
C2042 C2043 1.368 1_655 S
C2043 C2042 1.368 1_455 S
C2043 C2044 1.398 . S
C2043 C2049 1.491 . S
C2044 H2035 0.950 . S
C2044 C2043 1.398 . S
C2044 C2045 1.391 . S
C2045 H2033 0.950 . S
C2045 C2041 1.393 . S
C2045 C2044 1.391 . S
C2046 H2036 0.950 . S
C2046 C2047 1.386 . S
C2046 C2048 1.391 . S
C2047 C2046 1.386 . S
C2047 C2051 1.393 1_455 S
C2048 H2037 0.950 . S
C2048 C2046 1.391 . S
C2048 C2049 1.400 . S
C2049 C2043 1.491 . S
C2049 C2048 1.400 . S
C2049 C2050 1.398 1_455 S
C2050 H2038 0.950 . S
C2050 C2049 1.398 1_655 S
C2050 C2051 1.391 . S
C2051 H2039 0.950 . S
C2051 C2047 1.393 1_655 S
C2051 C2050 1.391 . S
H2052 C2060 0.950 . S
H2053 C2065 0.950 . S
H2054 C2062 0.950 . S
H2055 C2064 0.950 . S
H2056 C2066 0.950 . S
H2057 C2068 0.950 . S
H2058 C2070 0.950 . S
H2059 C2071 0.950 . S
C2060 H2052 0.950 . S
C2060 C2061 1.386 . S
C2060 C2062 1.391 . S
C2061 C2060 1.386 . S
C2061 C2065 1.393 . S
C2062 H2054 0.950 . S
C2062 C2060 1.391 . S
C2062 C2063 1.400 . S
C2063 C2062 1.400 . S
C2063 C2064 1.398 . S
C2063 C2069 1.491 . S
C2064 H2055 0.950 . S
C2064 C2063 1.398 . S
C2064 C2065 1.391 . S
C2065 H2053 0.950 . S
C2065 C2061 1.393 . S
C2065 C2064 1.391 . S
C2066 H2056 0.950 . S
C2066 C2067 1.386 . S
C2066 C2068 1.391 . S
C2067 C2066 1.386 . S
C2067 C2071 1.393 . S
C2068 H2057 0.950 . S
C2068 C2066 1.391 . S
C2068 C2069 1.400 . S
C2069 C2063 1.491 . S
C2069 C2068 1.400 . S
C2069 C2070 1.398 . S
C2070 H2058 0.950 . S
C2070 C2069 1.398 . S
C2070 C2071 1.391 . S
C2071 H2059 0.950 . S
C2071 C2067 1.393 . S
C2071 C2070 1.391 . S
H2072 C2080 0.950 . S
H2073 C2085 0.950 . S
H2074 C2082 0.950 . S
H2075 C2084 0.950 . S
H2076 C2086 0.950 . S
H2077 C2088 0.950 . S
H2078 C2090 0.950 . S
H2079 C2091 0.950 . S
C2080 H2072 0.950 . S
C2080 C2081 1.386 . S
C2080 C2082 1.391 . S
C2081 C2080 1.386 . S
C2081 C2085 1.393 . S
C2082 H2074 0.950 . S
C2082 C2080 1.391 . S
C2082 C2083 1.400 . S
C2083 C2082 1.400 . S
C2083 C2084 1.398 . S
C2083 C2089 1.491 . S
C2084 H2075 0.950 . S
C2084 C2083 1.398 . S
C2084 C2085 1.391 . S
C2085 H2073 0.950 . S
C2085 C2081 1.393 . S
C2085 C2084 1.391 . S
C2086 H2076 0.950 . S
C2086 C2087 1.386 . S
C2086 C2088 1.391 . S
C2087 C2086 1.386 . S
C2087 C2091 1.393 . S
C2088 H2077 0.950 . S
C2088 C2086 1.391 . S
C2088 C2089 1.400 . S
C2089 C2083 1.491 . S
C2089 C2088 1.400 . S
C2089 C2090 1.398 . S
C2090 H2078 0.950 . S
C2090 C2089 1.398 . S
C2090 C2091 1.391 . S
C2091 H2079 0.950 . S
C2091 C2087 1.393 . S
C2091 C2090 1.391 . S
H2092 C2100 0.950 . S
H2093 C2105 0.950 . S
H2094 C2102 0.950 . S
H2095 C2104 0.950 . S
H2096 C2106 0.950 . S
H2097 C2108 0.950 . S
H2098 C2110 0.950 . S
H2099 C2111 0.950 . S
C2100 H2092 0.950 . S
C2100 C2101 1.386 1_556 S
C2100 C2102 1.391 . S
C2101 C2100 1.386 1_554 S
C2101 C2105 1.393 . S
C2102 H2094 0.950 . S
C2102 C2100 1.391 . S
C2102 C2103 1.400 . S
C2103 C2102 1.400 . S
C2103 C2104 1.398 1_556 S
C2103 C2109 1.491 . S
C2104 H2095 0.950 . S
C2104 C2103 1.398 1_554 S
C2104 C2105 1.391 . S
C2105 H2093 0.950 . S
C2105 C2101 1.393 . S
C2105 C2104 1.391 . S
C2106 H2096 0.950 . S
C2106 C2107 1.386 . S
C2106 C2108 1.391 . S
C2107 C2106 1.386 . S
C2107 C2111 1.393 . S
C2108 H2097 0.950 . S
C2108 C2106 1.391 . S
C2108 C2109 1.400 . S
C2109 C2103 1.491 . S
C2109 C2108 1.400 . S
C2109 C2110 1.398 . S
C2110 H2098 0.950 . S
C2110 C2109 1.398 . S
C2110 C2111 1.391 . S
C2111 H2099 0.950 . S
C2111 C2107 1.393 . S
C2111 C2110 1.391 . S
H2112 C2120 0.950 . S
H2113 C2125 0.950 . S
H2114 C2122 0.950 . S
H2115 C2124 0.950 . S
H2116 C2126 0.950 . S
H2117 C2128 0.950 . S
H2118 C2130 0.950 . S
H2119 C2131 0.950 . S
C2120 H2112 0.950 . S
C2120 C2121 1.386 . S
C2120 C2122 1.391 . S
C2121 C2120 1.386 . S
C2121 C2125 1.393 . S
C2122 H2114 0.950 . S
C2122 C2120 1.391 . S
C2122 C2123 1.400 . S
C2123 C2122 1.400 . S
C2123 C2124 1.398 . S
C2123 C2129 1.491 . S
C2124 H2115 0.950 . S
C2124 C2123 1.398 . S
C2124 C2125 1.391 . S
C2125 H2113 0.950 . S
C2125 C2121 1.393 . S
C2125 C2124 1.391 . S
C2126 H2116 0.950 . S
C2126 C2127 1.386 . S
C2126 C2128 1.391 . S
C2127 C2126 1.386 . S
C2127 C2131 1.393 . S
C2128 H2117 0.950 . S
C2128 C2126 1.391 . S
C2128 C2129 1.400 . S
C2129 C2123 1.491 . S
C2129 C2128 1.400 . S
C2129 C2130 1.398 . S
C2130 H2118 0.950 . S
C2130 C2129 1.398 . S
C2130 C2131 1.391 . S
C2131 H2119 0.950 . S
C2131 C2127 1.393 . S
C2131 C2130 1.391 . S
H2132 C2140 0.950 . S
H2133 C2145 0.950 . S
H2134 C2142 0.950 . S
H2135 C2144 0.950 . S
H2136 C2146 0.950 . S
H2137 C2148 0.950 . S
H2138 C2150 0.950 . S
H2139 C2151 0.950 . S
C2140 H2132 0.950 . S
C2140 C2141 1.386 . S
C2140 C2142 1.391 . S
C2141 C2140 1.386 . S
C2141 C2145 1.393 . S
C2142 H2134 0.950 . S
C2142 C2140 1.391 . S
C2142 C2143 1.400 . S
C2143 C2142 1.400 . S
C2143 C2144 1.398 . S
C2143 C2149 1.491 . S
C2144 H2135 0.950 . S
C2144 C2143 1.398 . S
C2144 C2145 1.391 . S
C2145 H2133 0.950 . S
C2145 C2141 1.393 . S
C2145 C2144 1.391 . S
C2146 H2136 0.950 . S
C2146 C2147 1.386 . S
C2146 C2148 1.391 . S
C2147 C2146 1.386 . S
C2147 C2151 1.393 . S
C2148 H2137 0.950 . S
C2148 C2146 1.391 . S
C2148 C2149 1.400 . S
C2149 C2143 1.491 . S
C2149 C2148 1.400 . S
C2149 C2150 1.398 . S
C2150 H2138 0.950 . S
C2150 C2149 1.398 . S
C2150 C2151 1.391 . S
C2151 H2139 0.950 . S
C2151 C2147 1.393 . S
C2151 C2150 1.391 . S
H2152 C2160 0.950 . S
H2153 C2165 0.950 . S
H2154 C2162 0.950 . S
H2155 C2164 0.950 . S
H2156 C2166 0.950 . S
H2157 C2168 0.950 . S
H2158 C2170 0.950 . S
H2159 C2171 0.950 . S
C2160 H2152 0.950 . S
C2160 C2161 1.386 . S
C2160 C2162 1.391 . S
C2161 C2160 1.386 . S
C2161 C2165 1.393 . S
C2162 H2154 0.950 . S
C2162 C2160 1.391 . S
C2162 C2163 1.400 . S
C2163 C2162 1.400 . S
C2163 C2164 1.398 . S
C2163 C2169 1.491 . S
C2164 H2155 0.950 . S
C2164 C2163 1.398 . S
C2164 C2165 1.391 . S
C2165 H2153 0.950 . S
C2165 C2161 1.393 . S
C2165 C2164 1.391 . S
C2166 H2156 0.950 . S
C2166 C2167 1.386 . S
C2166 C2168 1.391 . S
C2167 C2166 1.386 . S
C2167 C2171 1.393 . S
C2168 H2157 0.950 . S
C2168 C2166 1.391 . S
C2168 C2169 1.400 . S
C2169 C2163 1.491 . S
C2169 C2168 1.400 . S
C2169 C2170 1.398 . S
C2170 H2158 0.950 . S
C2170 C2169 1.398 . S
C2170 C2171 1.391 . S
C2171 H2159 0.950 . S
C2171 C2167 1.393 . S
C2171 C2170 1.391 . S
H2172 C2180 0.950 . S
H2173 C2185 0.950 . S
H2174 C2182 0.950 . S
H2175 C2184 0.950 . S
H2176 C2186 0.950 . S
H2177 C2188 0.950 . S
H2178 C2190 0.950 . S
H2179 C2191 0.950 . S
C2180 H2172 0.950 . S
C2180 C2181 1.386 . S
C2180 C2182 1.391 . S
C2181 C2180 1.386 . S
C2181 C2185 1.393 . S
C2182 H2174 0.950 . S
C2182 C2180 1.391 . S
C2182 C2183 1.400 . S
C2183 C2182 1.400 . S
C2183 C2184 1.398 . S
C2183 C2189 1.491 . S
C2184 H2175 0.950 . S
C2184 C2183 1.398 . S
C2184 C2185 1.391 . S
C2185 H2173 0.950 . S
C2185 C2181 1.393 . S
C2185 C2184 1.391 . S
C2186 H2176 0.950 . S
C2186 C2187 1.386 . S
C2186 C2188 1.391 . S
C2187 C2186 1.386 . S
C2187 C2191 1.393 . S
C2188 H2177 0.950 . S
C2188 C2186 1.391 . S
C2188 C2189 1.400 . S
C2189 C2183 1.491 . S
C2189 C2188 1.400 . S
C2189 C2190 1.398 . S
C2190 H2178 0.950 . S
C2190 C2189 1.398 . S
C2190 C2191 1.391 . S
C2191 H2179 0.950 . S
C2191 C2187 1.393 . S
C2191 C2190 1.391 . S
H2192 C2200 0.950 . S
H2193 C2205 0.950 . S
H2194 C2202 0.950 . S
H2195 C2204 0.950 . S
H2196 C2206 0.950 . S
H2197 C2208 0.950 . S
H2198 C2210 0.950 . S
H2199 C2211 0.950 . S
C2200 H2192 0.950 . S
C2200 C2201 1.386 . S
C2200 C2202 1.391 . S
C2201 C2200 1.386 . S
C2201 C2205 1.393 . S
C2202 H2194 0.950 . S
C2202 C2200 1.391 . S
C2202 C2203 1.400 . S
C2203 C2202 1.400 . S
C2203 C2204 1.398 . S
C2203 C2209 1.491 . S
C2204 H2195 0.950 . S
C2204 C2203 1.398 . S
C2204 C2205 1.391 . S
C2205 H2193 0.950 . S
C2205 C2201 1.393 . S
C2205 C2204 1.391 . S
C2206 H2196 0.950 . S
C2206 C2207 1.386 . S
C2206 C2208 1.391 . S
C2207 C2206 1.386 . S
C2207 C2211 1.393 . S
C2208 H2197 0.950 . S
C2208 C2206 1.391 . S
C2208 C2209 1.400 . S
C2209 C2203 1.491 . S
C2209 C2208 1.400 . S
C2209 C2210 1.398 . S
C2210 H2198 0.950 . S
C2210 C2209 1.398 . S
C2210 C2211 1.391 . S
C2211 H2199 0.950 . S
C2211 C2207 1.393 . S
C2211 C2210 1.391 . S
H2212 C2220 0.950 . S
H2213 C2225 0.950 . S
H2214 C2222 0.950 . S
H2215 C2224 0.950 . S
H2216 C2226 0.950 . S
H2217 C2228 0.950 . S
H2218 C2230 0.950 . S
H2219 C2231 0.950 . S
C2220 H2212 0.950 . S
C2220 C2221 1.386 . S
C2220 C2222 1.391 . S
C2221 C2220 1.386 . S
C2221 C2225 1.393 . S
C2222 H2214 0.950 . S
C2222 C2220 1.391 . S
C2222 C2223 1.400 . S
C2223 C2222 1.400 . S
C2223 C2224 1.398 . S
C2223 C2229 1.491 . S
C2224 H2215 0.950 . S
C2224 C2223 1.398 . S
C2224 C2225 1.391 . S
C2225 H2213 0.950 . S
C2225 C2221 1.393 . S
C2225 C2224 1.391 . S
C2226 H2216 0.950 . S
C2226 C2227 1.386 . S
C2226 C2228 1.391 . S
C2227 C2226 1.386 . S
C2227 C2231 1.393 . S
C2228 H2217 0.950 . S
C2228 C2226 1.391 . S
C2228 C2229 1.400 . S
C2229 C2223 1.491 . S
C2229 C2228 1.400 . S
C2229 C2230 1.398 . S
C2230 H2218 0.950 . S
C2230 C2229 1.398 . S
C2230 C2231 1.391 . S
C2231 H2219 0.950 . S
C2231 C2227 1.393 . S
C2231 C2230 1.391 . S
H2232 C2240 0.950 . S
H2233 C2245 0.950 . S
H2234 C2242 0.950 . S
H2235 C2244 0.950 . S
H2236 C2246 0.950 . S
H2237 C2248 0.950 . S
H2238 C2250 0.950 . S
H2239 C2251 0.950 . S
C2240 H2232 0.950 . S
C2240 C2241 1.386 . S
C2240 C2242 1.391 . S
C2241 C2240 1.386 . S
C2241 C2245 1.393 . S
C2242 H2234 0.950 . S
C2242 C2240 1.391 . S
C2242 C2243 1.400 . S
C2243 C2242 1.400 . S
C2243 C2244 1.398 . S
C2243 C2249 1.491 . S
C2244 H2235 0.950 . S
C2244 C2243 1.398 . S
C2244 C2245 1.391 . S
C2245 H2233 0.950 . S
C2245 C2241 1.393 . S
C2245 C2244 1.391 . S
C2246 H2236 0.950 . S
C2246 C2247 1.386 . S
C2246 C2248 1.391 . S
C2247 C2246 1.386 . S
C2247 C2251 1.393 . S
C2248 H2237 0.950 . S
C2248 C2246 1.391 . S
C2248 C2249 1.400 . S
C2249 C2243 1.491 . S
C2249 C2248 1.400 . S
C2249 C2250 1.398 . S
C2250 H2238 0.950 . S
C2250 C2249 1.398 . S
C2250 C2251 1.391 . S
C2251 H2239 0.950 . S
C2251 C2247 1.393 . S
C2251 C2250 1.391 . S
H2252 C2260 0.950 . S
H2253 C2265 0.950 . S
H2254 C2262 0.950 . S
H2255 C2264 0.950 . S
H2256 C2266 0.950 . S
H2257 C2268 0.950 . S
H2258 C2270 0.950 . S
H2259 C2271 0.950 . S
C2260 H2252 0.950 . S
C2260 C2261 1.386 . S
C2260 C2262 1.391 . S
C2261 C2260 1.386 . S
C2261 C2265 1.393 . S
C2262 H2254 0.950 . S
C2262 C2260 1.391 . S
C2262 C2263 1.400 . S
C2263 C2262 1.400 . S
C2263 C2264 1.398 . S
C2263 C2269 1.491 . S
C2264 H2255 0.950 . S
C2264 C2263 1.398 . S
C2264 C2265 1.391 . S
C2265 H2253 0.950 . S
C2265 C2261 1.393 . S
C2265 C2264 1.391 . S
C2266 H2256 0.950 . S
C2266 C2267 1.386 . S
C2266 C2268 1.391 . S
C2267 C2266 1.386 . S
C2267 C2271 1.393 . S
C2268 H2257 0.950 . S
C2268 C2266 1.391 . S
C2268 C2269 1.400 . S
C2269 C2263 1.491 . S
C2269 C2268 1.400 . S
C2269 C2270 1.398 . S
C2270 H2258 0.950 . S
C2270 C2269 1.398 . S
C2270 C2271 1.391 . S
C2271 H2259 0.950 . S
C2271 C2267 1.393 . S
C2271 C2270 1.391 . S
H2272 C2280 0.950 . S
H2273 C2285 0.950 . S
H2274 C2282 0.950 . S
H2275 C2284 0.950 . S
H2276 C2286 0.950 . S
H2277 C2288 0.950 . S
H2278 C2290 0.950 . S
H2279 C2291 0.950 . S
C2280 H2272 0.950 . S
C2280 C2281 1.386 1_545 S
C2280 C2282 1.391 1_545 S
C2281 C2280 1.386 1_565 S
C2281 C2285 1.393 . S
C2282 H2274 0.950 . S
C2282 C2280 1.391 1_565 S
C2282 C2283 1.400 . S
C2283 C2282 1.400 . S
C2283 C2284 1.398 . S
C2283 C2289 1.491 . S
C2284 H2275 0.950 . S
C2284 C2283 1.398 . S
C2284 C2285 1.391 . S
C2285 H2273 0.950 . S
C2285 C2281 1.393 . S
C2285 C2284 1.391 . S
C2286 H2276 0.950 . S
C2286 C2287 1.386 . S
C2286 C2288 1.391 . S
C2287 C2286 1.386 . S
C2287 C2291 1.393 . S
C2288 H2277 0.950 . S
C2288 C2286 1.391 . S
C2288 C2289 1.400 . S
C2289 C2283 1.491 . S
C2289 C2288 1.400 . S
C2289 C2290 1.398 . S
C2290 H2278 0.950 . S
C2290 C2289 1.398 . S
C2290 C2291 1.391 . S
C2291 H2279 0.950 . S
C2291 C2287 1.393 . S
C2291 C2290 1.391 . S
H2292 C2300 0.950 . S
H2293 C2305 0.950 . S
H2294 C2302 0.950 . S
H2295 C2304 0.950 . S
H2296 C2306 0.950 . S
H2297 C2308 0.950 . S
H2298 C2310 0.950 1_565 S
H2299 C2311 0.950 . S
C2300 H2292 0.950 . S
C2300 C2301 1.389 . S
C2300 C2302 1.391 . S
C2301 C2300 1.389 . S
C2301 C2305 1.389 1_556 S
C2302 H2294 0.950 . S
C2302 C2300 1.391 . S
C2302 C2303 1.400 1_556 S
C2303 C2302 1.400 1_554 S
C2303 C2304 1.398 . S
C2303 C2309 1.491 . S
C2304 H2295 0.950 . S
C2304 C2303 1.398 . S
C2304 C2305 1.391 . S
C2305 H2293 0.950 . S
C2305 C2301 1.389 1_554 S
C2305 C2304 1.391 . S
C2306 H2296 0.950 . S
C2306 C2307 1.386 . S
C2306 C2308 1.391 . S
C2307 C2306 1.386 . S
C2307 C2311 1.393 1_554 S
C2308 H2297 0.950 . S
C2308 C2306 1.391 . S
C2308 C2309 1.400 1_545 S
C2309 C2303 1.491 . S
C2309 C2308 1.400 1_565 S
C2309 C2310 1.398 1_564 S
C2310 H2298 0.950 1_545 S
C2310 C2309 1.398 1_546 S
C2310 C2311 1.391 . S
C2311 H2299 0.950 . S
C2311 C2307 1.393 1_556 S
C2311 C2310 1.391 . S
H2312 C2320 0.950 . S
H2313 C2325 0.950 . S
H2314 C2322 0.950 . S
H2315 C2324 0.950 . S
H2316 C2326 0.950 . S
H2317 C2328 0.950 . S
H2318 C2330 0.950 . S
H2319 C2331 0.950 . S
C2320 H2312 0.950 . S
C2320 C2321 1.386 . S
C2320 C2322 1.391 . S
C2321 C2320 1.386 . S
C2321 C2325 1.393 . S
C2322 H2314 0.950 . S
C2322 C2320 1.391 . S
C2322 C2323 1.400 . S
C2323 C2322 1.400 . S
C2323 C2324 1.398 . S
C2323 C2329 1.491 . S
C2324 H2315 0.950 . S
C2324 C2323 1.398 . S
C2324 C2325 1.391 . S
C2325 H2313 0.950 . S
C2325 C2321 1.393 . S
C2325 C2324 1.391 . S
C2326 H2316 0.950 . S
C2326 C2327 1.386 . S
C2326 C2328 1.391 . S
C2327 C2326 1.386 . S
C2327 C2331 1.393 . S
C2328 H2317 0.950 . S
C2328 C2326 1.391 . S
C2328 C2329 1.400 . S
C2329 C2323 1.491 . S
C2329 C2328 1.400 . S
C2329 C2330 1.398 . S
C2330 H2318 0.950 . S
C2330 C2329 1.398 . S
C2330 C2331 1.391 . S
C2331 H2319 0.950 . S
C2331 C2327 1.393 . S
C2331 C2330 1.391 . S
H2332 C2340 0.950 . S
H2333 C2345 0.950 . S
H2334 C2342 0.950 . S
H2335 C2344 0.950 . S
H2336 C2346 0.950 . S
H2337 C2348 0.950 . S
H2338 C2350 0.950 . S
H2339 C2351 0.950 . S
C2340 H2332 0.950 . S
C2340 C2341 1.386 . S
C2340 C2342 1.391 . S
C2341 C2340 1.386 . S
C2341 C2345 1.393 . S
C2342 H2334 0.950 . S
C2342 C2340 1.391 . S
C2342 C2343 1.400 . S
C2343 C2342 1.400 . S
C2343 C2344 1.398 . S
C2343 C2349 1.491 . S
C2344 H2335 0.950 . S
C2344 C2343 1.398 . S
C2344 C2345 1.391 . S
C2345 H2333 0.950 . S
C2345 C2341 1.393 . S
C2345 C2344 1.391 . S
C2346 H2336 0.950 . S
C2346 C2347 1.386 . S
C2346 C2348 1.391 . S
C2347 C2346 1.386 . S
C2347 C2351 1.393 . S
C2348 H2337 0.950 . S
C2348 C2346 1.391 . S
C2348 C2349 1.400 . S
C2349 C2343 1.491 . S
C2349 C2348 1.400 . S
C2349 C2350 1.398 . S
C2350 H2338 0.950 . S
C2350 C2349 1.398 . S
C2350 C2351 1.391 . S
C2351 H2339 0.950 . S
C2351 C2347 1.393 . S
C2351 C2350 1.391 . S
H2352 C2360 0.950 . S
H2353 C2365 0.950 . S
H2354 C2362 0.950 . S
H2355 C2364 0.950 . S
H2356 C2366 0.950 . S
H2357 C2368 0.950 . S
H2358 C2370 0.950 . S
H2359 C2371 0.950 . S
C2360 H2352 0.950 . S
C2360 C2361 1.386 . S
C2360 C2362 1.391 . S
C2361 C2360 1.386 . S
C2361 C2365 1.393 . S
C2362 H2354 0.950 . S
C2362 C2360 1.391 . S
C2362 C2363 1.400 . S
C2363 C2362 1.400 . S
C2363 C2364 1.398 . S
C2363 C2369 1.491 . S
C2364 H2355 0.950 . S
C2364 C2363 1.398 . S
C2364 C2365 1.391 . S
C2365 H2353 0.950 . S
C2365 C2361 1.393 . S
C2365 C2364 1.391 . S
C2366 H2356 0.950 . S
C2366 C2367 1.386 . S
C2366 C2368 1.391 . S
C2367 C2366 1.386 . S
C2367 C2371 1.393 . S
C2368 H2357 0.950 . S
C2368 C2366 1.391 . S
C2368 C2369 1.400 . S
C2369 C2363 1.491 . S
C2369 C2368 1.400 . S
C2369 C2370 1.398 . S
C2370 H2358 0.950 . S
C2370 C2369 1.398 . S
C2370 C2371 1.391 . S
C2371 H2359 0.950 . S
C2371 C2367 1.393 . S
C2371 C2370 1.391 . S
H2372 C2380 0.950 . S
H2373 C2385 0.950 . S
H2374 C2382 0.950 . S
H2375 C2384 0.950 . S
H2376 C2386 0.950 . S
H2377 C2388 0.950 . S
H2378 C2390 0.950 . S
H2379 C2391 0.950 . S
C2380 H2372 0.950 . S
C2380 C2381 1.386 . S
C2380 C2382 1.391 . S
C2381 C2380 1.386 . S
C2381 C2385 1.393 . S
C2382 H2374 0.950 . S
C2382 C2380 1.391 . S
C2382 C2383 1.400 . S
C2383 C2382 1.400 . S
C2383 C2384 1.398 . S
C2383 C2389 1.491 . S
C2384 H2375 0.950 . S
C2384 C2383 1.398 . S
C2384 C2385 1.391 . S
C2385 H2373 0.950 . S
C2385 C2381 1.393 . S
C2385 C2384 1.391 . S
C2386 H2376 0.950 . S
C2386 C2387 1.386 . S
C2386 C2388 1.391 . S
C2387 C2386 1.386 . S
C2387 C2391 1.393 . S
C2388 H2377 0.950 . S
C2388 C2386 1.391 . S
C2388 C2389 1.400 . S
C2389 C2383 1.491 . S
C2389 C2388 1.400 . S
C2389 C2390 1.398 . S
C2390 H2378 0.950 . S
C2390 C2389 1.398 . S
C2390 C2391 1.391 . S
C2391 H2379 0.950 . S
C2391 C2387 1.393 . S
C2391 C2390 1.391 . S
H2392 C2400 0.950 . S
H2393 C2405 0.950 . S
H2394 C2402 0.950 . S
H2395 C2404 0.950 . S
H2396 C2406 0.950 . S
H2397 C2408 0.950 . S
H2398 C2410 0.950 . S
H2399 C2411 0.950 . S
C2400 H2392 0.950 . S
C2400 C2401 1.386 . S
C2400 C2402 1.391 . S
C2401 C2400 1.386 . S
C2401 C2405 1.393 . S
C2402 H2394 0.950 . S
C2402 C2400 1.391 . S
C2402 C2403 1.400 . S
C2403 C2402 1.400 . S
C2403 C2404 1.398 . S
C2403 C2409 1.491 . S
C2404 H2395 0.950 . S
C2404 C2403 1.398 . S
C2404 C2405 1.391 . S
C2405 H2393 0.950 . S
C2405 C2401 1.393 . S
C2405 C2404 1.391 . S
C2406 H2396 0.950 . S
C2406 C2407 1.386 . S
C2406 C2408 1.391 . S
C2407 C2406 1.386 . S
C2407 C2411 1.393 . S
C2408 H2397 0.950 . S
C2408 C2406 1.391 . S
C2408 C2409 1.400 . S
C2409 C2403 1.491 . S
C2409 C2408 1.400 . S
C2409 C2410 1.398 . S
C2410 H2398 0.950 . S
C2410 C2409 1.398 . S
C2410 C2411 1.391 . S
C2411 H2399 0.950 . S
C2411 C2407 1.393 . S
C2411 C2410 1.391 . S
H2412 C2420 0.950 . S
H2413 C2425 0.950 . S
H2414 C2422 0.950 . S
H2415 C2424 0.950 . S
H2416 C2426 0.950 . S
H2417 C2428 0.950 . S
H2418 C2430 0.950 . S
H2419 C2431 0.950 . S
C2420 H2412 0.950 . S
C2420 C2421 1.386 . S
C2420 C2422 1.391 . S
C2421 C2420 1.386 . S
C2421 C2425 1.393 . S
C2422 H2414 0.950 . S
C2422 C2420 1.391 . S
C2422 C2423 1.400 . S
C2423 C2422 1.400 . S
C2423 C2424 1.398 . S
C2423 C2429 1.491 . S
C2424 H2415 0.950 . S
C2424 C2423 1.398 . S
C2424 C2425 1.391 . S
C2425 H2413 0.950 . S
C2425 C2421 1.393 . S
C2425 C2424 1.391 . S
C2426 H2416 0.950 . S
C2426 C2427 1.386 . S
C2426 C2428 1.391 . S
C2427 C2426 1.386 . S
C2427 C2431 1.393 . S
C2428 H2417 0.950 . S
C2428 C2426 1.391 . S
C2428 C2429 1.400 . S
C2429 C2423 1.491 . S
C2429 C2428 1.400 . S
C2429 C2430 1.398 . S
C2430 H2418 0.950 . S
C2430 C2429 1.398 . S
C2430 C2431 1.391 . S
C2431 H2419 0.950 . S
C2431 C2427 1.393 . S
C2431 C2430 1.391 . S
H2432 C2440 0.950 . S
H2433 C2445 0.950 . S
H2434 C2442 0.950 . S
H2435 C2444 0.950 . S
H2436 C2446 0.950 . S
H2437 C2448 0.950 . S
H2438 C2450 0.950 . S
H2439 C2451 0.950 . S
C2440 H2432 0.950 . S
C2440 C2441 1.386 . S
C2440 C2442 1.391 . S
C2441 C2440 1.386 . S
C2441 C2445 1.393 . S
C2442 H2434 0.950 . S
C2442 C2440 1.391 . S
C2442 C2443 1.400 . S
C2443 C2442 1.400 . S
C2443 C2444 1.398 . S
C2443 C2449 1.491 . S
C2444 H2435 0.950 . S
C2444 C2443 1.398 . S
C2444 C2445 1.391 . S
C2445 H2433 0.950 . S
C2445 C2441 1.393 . S
C2445 C2444 1.391 . S
C2446 H2436 0.950 . S
C2446 C2447 1.386 . S
C2446 C2448 1.391 . S
C2447 C2446 1.386 . S
C2447 C2451 1.393 . S
C2448 H2437 0.950 . S
C2448 C2446 1.391 . S
C2448 C2449 1.400 . S
C2449 C2443 1.491 . S
C2449 C2448 1.400 . S
C2449 C2450 1.398 . S
C2450 H2438 0.950 . S
C2450 C2449 1.398 . S
C2450 C2451 1.391 . S
C2451 H2439 0.950 . S
C2451 C2447 1.393 . S
C2451 C2450 1.391 . S
H2452 C2460 0.950 . S
H2453 C2465 0.950 . S
H2454 C2462 0.950 . S
H2455 C2464 0.950 . S
H2456 C2466 0.950 . S
H2457 C2468 0.950 . S
H2458 C2470 0.950 . S
H2459 C2471 0.950 . S
C2460 H2452 0.950 . S
C2460 C2461 1.386 . S
C2460 C2462 1.391 . S
C2461 C2460 1.386 . S
C2461 C2465 1.393 . S
C2462 H2454 0.950 . S
C2462 C2460 1.391 . S
C2462 C2463 1.400 . S
C2463 C2462 1.400 . S
C2463 C2464 1.398 . S
C2463 C2469 1.491 . S
C2464 H2455 0.950 . S
C2464 C2463 1.398 . S
C2464 C2465 1.391 . S
C2465 H2453 0.950 . S
C2465 C2461 1.393 . S
C2465 C2464 1.391 . S
C2466 H2456 0.950 . S
C2466 C2467 1.386 . S
C2466 C2468 1.391 . S
C2467 C2466 1.386 . S
C2467 C2471 1.393 . S
C2468 H2457 0.950 . S
C2468 C2466 1.391 . S
C2468 C2469 1.400 . S
C2469 C2463 1.491 . S
C2469 C2468 1.400 . S
C2469 C2470 1.398 . S
C2470 H2458 0.950 . S
C2470 C2469 1.398 . S
C2470 C2471 1.391 . S
C2471 H2459 0.950 . S
C2471 C2467 1.393 . S
C2471 C2470 1.391 . S
H2472 C2480 0.950 . S
H2473 C2485 0.950 . S
H2474 C2482 0.950 . S
H2475 C2484 0.950 . S
H2476 C2486 0.950 . S
H2477 C2488 0.950 . S
H2478 C2490 0.950 . S
H2479 C2491 0.950 . S
C2480 H2472 0.950 . S
C2480 C2481 1.386 . S
C2480 C2482 1.391 . S
C2481 C2480 1.386 . S
C2481 C2485 1.393 . S
C2482 H2474 0.950 . S
C2482 C2480 1.391 . S
C2482 C2483 1.400 . S
C2483 C2482 1.400 . S
C2483 C2484 1.398 . S
C2483 C2489 1.491 . S
C2484 H2475 0.950 . S
C2484 C2483 1.398 . S
C2484 C2485 1.391 . S
C2485 H2473 0.950 . S
C2485 C2481 1.393 . S
C2485 C2484 1.391 . S
C2486 H2476 0.950 . S
C2486 C2487 1.386 . S
C2486 C2488 1.391 . S
C2487 C2486 1.386 . S
C2487 C2491 1.393 . S
C2488 H2477 0.950 . S
C2488 C2486 1.391 . S
C2488 C2489 1.400 . S
C2489 C2483 1.491 . S
C2489 C2488 1.400 . S
C2489 C2490 1.398 . S
C2490 H2478 0.950 . S
C2490 C2489 1.398 . S
C2490 C2491 1.391 . S
C2491 H2479 0.950 . S
C2491 C2487 1.393 . S
C2491 C2490 1.391 . S
H2492 C2500 0.950 . S
H2493 C2505 0.950 . S
H2494 C2502 0.950 . S
H2495 C2504 0.950 . S
H2496 C2506 0.950 . S
H2497 C2508 0.950 . S
H2498 C2510 0.950 . S
H2499 C2511 0.950 . S
C2500 H2492 0.950 . S
C2500 C2501 1.386 . S
C2500 C2502 1.391 . S
C2501 C2500 1.386 . S
C2501 C2505 1.393 . S
C2502 H2494 0.950 . S
C2502 C2500 1.391 . S
C2502 C2503 1.400 . S
C2503 C2502 1.400 . S
C2503 C2504 1.398 . S
C2503 C2509 1.491 . S
C2504 H2495 0.950 . S
C2504 C2503 1.398 . S
C2504 C2505 1.391 . S
C2505 H2493 0.950 . S
C2505 C2501 1.393 . S
C2505 C2504 1.391 . S
C2506 H2496 0.950 . S
C2506 C2507 1.386 . S
C2506 C2508 1.391 . S
C2507 C2506 1.386 . S
C2507 C2511 1.393 . S
C2508 H2497 0.950 . S
C2508 C2506 1.391 . S
C2508 C2509 1.400 . S
C2509 C2503 1.491 . S
C2509 C2508 1.400 . S
C2509 C2510 1.398 . S
C2510 H2498 0.950 . S
C2510 C2509 1.398 . S
C2510 C2511 1.391 . S
C2511 H2499 0.950 . S
C2511 C2507 1.393 . S
C2511 C2510 1.391 . S
H2512 C2520 0.950 . S
H2513 C2525 0.950 . S
H2514 C2522 0.950 . S
H2515 C2524 0.950 . S
H2516 C2526 0.950 1_655 S
H2517 C2528 0.946 . S
H2518 C2530 0.950 . S
H2519 C2531 0.950 . S
C2520 H2512 0.950 . S
C2520 C2521 1.386 . S
C2520 C2522 1.391 . S
C2521 C2520 1.386 . S
C2521 C2525 1.393 . S
C2522 H2514 0.950 . S
C2522 C2520 1.391 . S
C2522 C2523 1.400 . S
C2523 C2522 1.400 . S
C2523 C2524 1.398 . S
C2523 C2529 1.491 . S
C2524 H2515 0.950 . S
C2524 C2523 1.398 . S
C2524 C2525 1.391 . S
C2525 H2513 0.950 . S
C2525 C2521 1.393 . S
C2525 C2524 1.391 . S
C2526 H2516 0.950 1_455 S
C2526 C2527 1.386 . S
C2526 C2528 1.391 . S
C2527 C2526 1.386 . S
C2527 C2531 1.393 . S
C2528 H2517 0.946 . S
C2528 C2526 1.391 . S
C2528 C2529 1.400 . S
C2529 C2523 1.491 . S
C2529 C2528 1.400 . S
C2529 C2530 1.398 . S
C2530 H2518 0.950 . S
C2530 C2529 1.398 . S
C2530 C2531 1.391 . S
C2531 H2519 0.950 . S
C2531 C2527 1.393 . S
C2531 C2530 1.391 . S
H2532 C2540 0.950 . S
H2533 C2545 0.950 . S
H2534 C2542 0.950 . S
H2535 C2544 0.950 . S
H2536 C2546 0.950 . S
H2537 C2548 0.950 . S
H2538 C2550 0.950 . S
H2539 C2551 0.950 . S
C2540 H2532 0.950 . S
C2540 C2541 1.386 . S
C2540 C2542 1.391 . S
C2541 C2540 1.386 . S
C2541 C2545 1.393 . S
C2542 H2534 0.950 . S
C2542 C2540 1.391 . S
C2542 C2543 1.400 . S
C2543 C2542 1.400 . S
C2543 C2544 1.398 . S
C2543 C2549 1.491 . S
C2544 H2535 0.950 . S
C2544 C2543 1.398 . S
C2544 C2545 1.391 . S
C2545 H2533 0.950 . S
C2545 C2541 1.393 . S
C2545 C2544 1.391 . S
C2546 H2536 0.950 . S
C2546 C2547 1.386 . S
C2546 C2548 1.391 . S
C2547 C2546 1.386 . S
C2547 C2551 1.393 . S
C2548 H2537 0.950 . S
C2548 C2546 1.391 . S
C2548 C2549 1.400 . S
C2549 C2543 1.491 . S
C2549 C2548 1.400 . S
C2549 C2550 1.398 . S
C2550 H2538 0.950 . S
C2550 C2549 1.398 . S
C2550 C2551 1.391 . S
C2551 H2539 0.950 . S
C2551 C2547 1.393 . S
C2551 C2550 1.391 . S
H2552 C2560 0.950 . S
H2553 C2565 0.950 . S
H2554 C2562 0.950 . S
H2555 C2564 0.950 . S
H2556 C2566 0.950 . S
H2557 C2568 0.950 . S
H2558 C2570 0.950 . S
H2559 C2571 0.950 . S
C2560 H2552 0.950 . S
C2560 C2561 1.386 . S
C2560 C2562 1.391 . S
C2561 C2560 1.386 . S
C2561 C2565 1.393 . S
C2562 H2554 0.950 . S
C2562 C2560 1.391 . S
C2562 C2563 1.400 . S
C2563 C2562 1.400 . S
C2563 C2564 1.398 . S
C2563 C2569 1.491 . S
C2564 H2555 0.950 . S
C2564 C2563 1.398 . S
C2564 C2565 1.391 . S
C2565 H2553 0.950 . S
C2565 C2561 1.393 . S
C2565 C2564 1.391 . S
C2566 H2556 0.950 . S
C2566 C2567 1.386 . S
C2566 C2568 1.391 . S
C2567 C2566 1.386 . S
C2567 C2571 1.393 . S
C2568 H2557 0.950 . S
C2568 C2566 1.391 . S
C2568 C2569 1.400 . S
C2569 C2563 1.491 . S
C2569 C2568 1.400 . S
C2569 C2570 1.398 . S
C2570 H2558 0.950 . S
C2570 C2569 1.398 . S
C2570 C2571 1.391 . S
C2571 H2559 0.950 . S
C2571 C2567 1.393 . S
C2571 C2570 1.391 . S
H2572 C2580 0.950 . S
H2573 C2585 0.950 . S
H2574 C2582 0.950 . S
H2575 C2584 0.950 . S
H2576 C2586 0.950 . S
H2577 C2588 0.950 . S
H2578 C2590 0.950 . S
H2579 C2591 0.950 . S
C2580 H2572 0.950 . S
C2580 C2581 1.386 . S
C2580 C2582 1.391 . S
C2581 C2580 1.386 . S
C2581 C2585 1.393 . S
C2582 H2574 0.950 . S
C2582 C2580 1.391 . S
C2582 C2583 1.400 . S
C2583 C2582 1.400 . S
C2583 C2584 1.398 . S
C2583 C2589 1.491 . S
C2584 H2575 0.950 . S
C2584 C2583 1.398 . S
C2584 C2585 1.391 . S
C2585 H2573 0.950 . S
C2585 C2581 1.393 . S
C2585 C2584 1.391 . S
C2586 H2576 0.950 . S
C2586 C2587 1.386 . S
C2586 C2588 1.391 . S
C2587 C2586 1.386 . S
C2587 C2591 1.393 . S
C2588 H2577 0.950 . S
C2588 C2586 1.391 . S
C2588 C2589 1.400 . S
C2589 C2583 1.491 . S
C2589 C2588 1.400 . S
C2589 C2590 1.398 . S
C2590 H2578 0.950 . S
C2590 C2589 1.398 . S
C2590 C2591 1.391 . S
C2591 H2579 0.950 . S
C2591 C2587 1.393 . S
C2591 C2590 1.391 . S
H2592 C2600 0.950 . S
H2593 C2605 0.950 . S
H2594 C2602 0.950 . S
H2595 C2604 0.950 . S
H2596 C2606 0.912 1_455 S
H2597 C2608 0.950 . S
H2598 C2610 0.950 . S
H2599 C2611 0.950 . S
C2600 H2592 0.950 . S
C2600 C2601 1.386 . S
C2600 C2602 1.391 . S
C2601 C2600 1.386 . S
C2601 C2605 1.393 . S
C2602 H2594 0.950 . S
C2602 C2600 1.391 . S
C2602 C2603 1.400 . S
C2603 C2602 1.400 . S
C2603 C2604 1.398 . S
C2603 C2609 1.491 . S
C2604 H2595 0.950 . S
C2604 C2603 1.398 . S
C2604 C2605 1.391 . S
C2605 H2593 0.950 . S
C2605 C2601 1.393 . S
C2605 C2604 1.391 . S
C2606 H2596 0.912 1_655 S
C2606 C2607 1.402 . S
C2606 C2608 1.414 . S
C2607 C2606 1.402 . S
C2607 C2611 1.393 . S
C2608 H2597 0.950 . S
C2608 C2606 1.414 . S
C2608 C2609 1.400 . S
C2609 C2603 1.491 . S
C2609 C2608 1.400 . S
C2609 C2610 1.398 . S
C2610 H2598 0.950 . S
C2610 C2609 1.398 . S
C2610 C2611 1.391 . S
C2611 H2599 0.950 . S
C2611 C2607 1.393 . S
C2611 C2610 1.391 . S
H2612 C2620 0.950 . S
H2613 C2625 0.950 . S
H2614 C2622 0.950 . S
H2615 C2624 0.950 . S
H2616 C2626 0.950 . S
H2617 C2628 0.950 . S
H2618 C2630 0.950 . S
H2619 C2631 0.950 . S
C2620 H2612 0.950 . S
C2620 C2621 1.386 . S
C2620 C2622 1.391 . S
C2621 C2620 1.386 . S
C2621 C2625 1.393 . S
C2622 H2614 0.950 . S
C2622 C2620 1.391 . S
C2622 C2623 1.400 . S
C2623 C2622 1.400 . S
C2623 C2624 1.398 . S
C2623 C2629 1.491 . S
C2624 H2615 0.950 . S
C2624 C2623 1.398 . S
C2624 C2625 1.391 . S
C2625 H2613 0.950 . S
C2625 C2621 1.393 . S
C2625 C2624 1.391 . S
C2626 H2616 0.950 . S
C2626 C2627 1.386 . S
C2626 C2628 1.391 . S
C2627 C2626 1.386 . S
C2627 C2631 1.393 . S
C2628 H2617 0.950 . S
C2628 C2626 1.391 . S
C2628 C2629 1.400 . S
C2629 C2623 1.491 . S
C2629 C2628 1.400 . S
C2629 C2630 1.398 . S
C2630 H2618 0.950 . S
C2630 C2629 1.398 . S
C2630 C2631 1.391 . S
C2631 H2619 0.950 . S
C2631 C2627 1.393 . S
C2631 C2630 1.391 . S
H2632 C2640 0.950 . S
H2633 C2645 0.950 . S
H2634 C2642 0.950 . S
H2635 C2644 0.950 . S
H2636 C2646 0.950 . S
H2637 C2648 0.950 . S
H2638 C2650 0.950 . S
H2639 C2651 0.950 . S
C2640 H2632 0.950 . S
C2640 C2641 1.386 . S
C2640 C2642 1.391 . S
C2641 C2640 1.386 . S
C2641 C2645 1.393 . S
C2642 H2634 0.950 . S
C2642 C2640 1.391 . S
C2642 C2643 1.400 . S
C2643 C2642 1.400 . S
C2643 C2644 1.398 . S
C2643 C2649 1.491 . S
C2644 H2635 0.950 . S
C2644 C2643 1.398 . S
C2644 C2645 1.391 . S
C2645 H2633 0.950 . S
C2645 C2641 1.393 . S
C2645 C2644 1.391 . S
C2646 H2636 0.950 . S
C2646 C2647 1.386 . S
C2646 C2648 1.391 . S
C2647 C2646 1.386 . S
C2647 C2651 1.393 . S
C2648 H2637 0.950 . S
C2648 C2646 1.391 . S
C2648 C2649 1.400 . S
C2649 C2643 1.491 . S
C2649 C2648 1.400 . S
C2649 C2650 1.398 . S
C2650 H2638 0.950 . S
C2650 C2649 1.398 . S
C2650 C2651 1.391 . S
C2651 H2639 0.950 . S
C2651 C2647 1.393 . S
C2651 C2650 1.391 . S
H2652 C2660 0.950 . S
H2653 C2665 0.950 . S
H2654 C2662 0.950 . S
H2655 C2664 0.950 . S
H2656 C2666 0.950 . S
H2657 C2668 0.950 . S
H2658 C2670 0.950 . S
H2659 C2671 0.950 . S
C2660 H2652 0.950 . S
C2660 C2661 1.386 . S
C2660 C2662 1.391 . S
C2661 C2660 1.386 . S
C2661 C2665 1.393 . S
C2662 H2654 0.950 . S
C2662 C2660 1.391 . S
C2662 C2663 1.400 . S
C2663 C2662 1.400 . S
C2663 C2664 1.398 . S
C2663 C2669 1.491 . S
C2664 H2655 0.950 . S
C2664 C2663 1.398 . S
C2664 C2665 1.391 . S
C2665 H2653 0.950 . S
C2665 C2661 1.393 . S
C2665 C2664 1.391 . S
C2666 H2656 0.950 . S
C2666 C2667 1.386 . S
C2666 C2668 1.391 . S
C2667 C2666 1.386 . S
C2667 C2671 1.393 . S
C2668 H2657 0.950 . S
C2668 C2666 1.391 . S
C2668 C2669 1.400 . S
C2669 C2663 1.491 . S
C2669 C2668 1.400 . S
C2669 C2670 1.398 . S
C2670 H2658 0.950 . S
C2670 C2669 1.398 . S
C2670 C2671 1.391 . S
C2671 H2659 0.950 . S
C2671 C2667 1.393 . S
C2671 C2670 1.391 . S
H2672 C2680 0.950 . S
H2673 C2685 0.950 . S
H2674 C2682 0.950 . S
H2675 C2684 0.950 . S
H2676 C2686 0.950 . S
H2677 C2688 0.950 . S
H2678 C2690 0.950 . S
H2679 C2691 0.950 . S
C2680 H2672 0.950 . S
C2680 C2681 1.386 . S
C2680 C2682 1.391 . S
C2681 C2680 1.386 . S
C2681 C2685 1.393 . S
C2682 H2674 0.950 . S
C2682 C2680 1.391 . S
C2682 C2683 1.400 . S
C2683 C2682 1.400 . S
C2683 C2684 1.398 . S
C2683 C2689 1.491 . S
C2684 H2675 0.950 . S
C2684 C2683 1.398 . S
C2684 C2685 1.391 . S
C2685 H2673 0.950 . S
C2685 C2681 1.393 . S
C2685 C2684 1.391 . S
C2686 H2676 0.950 . S
C2686 C2687 1.386 . S
C2686 C2688 1.391 . S
C2687 C2686 1.386 . S
C2687 C2691 1.393 . S
C2688 H2677 0.950 . S
C2688 C2686 1.391 . S
C2688 C2689 1.400 . S
C2689 C2683 1.491 . S
C2689 C2688 1.400 . S
C2689 C2690 1.398 . S
C2690 H2678 0.950 . S
C2690 C2689 1.398 . S
C2690 C2691 1.391 . S
C2691 H2679 0.950 . S
C2691 C2687 1.393 . S
C2691 C2690 1.391 . S
H2692 C2700 0.950 . S
H2693 C2705 0.950 . S
H2694 C2702 0.950 . S
H2695 C2704 0.950 . S
H2696 C2706 0.950 . S
H2697 C2708 0.950 . S
H2698 C2710 0.950 . S
H2699 C2711 0.950 . S
C2700 H2692 0.950 . S
C2700 C2701 1.386 . S
C2700 C2702 1.391 . S
C2701 C2700 1.386 . S
C2701 C2705 1.393 . S
C2702 H2694 0.950 . S
C2702 C2700 1.391 . S
C2702 C2703 1.400 . S
C2703 C2702 1.400 . S
C2703 C2704 1.398 . S
C2703 C2709 1.491 . S
C2704 H2695 0.950 . S
C2704 C2703 1.398 . S
C2704 C2705 1.391 . S
C2705 H2693 0.950 . S
C2705 C2701 1.393 . S
C2705 C2704 1.391 . S
C2706 H2696 0.950 . S
C2706 C2707 1.386 . S
C2706 C2708 1.391 . S
C2707 C2706 1.386 . S
C2707 C2711 1.393 . S
C2708 H2697 0.950 . S
C2708 C2706 1.391 . S
C2708 C2709 1.400 . S
C2709 C2703 1.491 . S
C2709 C2708 1.400 . S
C2709 C2710 1.398 . S
C2710 H2698 0.950 . S
C2710 C2709 1.398 . S
C2710 C2711 1.391 . S
C2711 H2699 0.950 . S
C2711 C2707 1.393 . S
C2711 C2710 1.391 . S
H2712 C2720 0.950 . S
H2713 C2725 0.950 . S
H2714 C2722 0.950 . S
H2715 C2724 0.950 . S
H2716 C2726 0.950 . S
H2717 C2728 0.950 . S
H2718 C2730 0.950 . S
H2719 C2731 0.950 . S
C2720 H2712 0.950 . S
C2720 C2721 1.386 . S
C2720 C2722 1.391 . S
C2721 C2720 1.386 . S
C2721 C2725 1.393 . S
C2722 H2714 0.950 . S
C2722 C2720 1.391 . S
C2722 C2723 1.400 . S
C2723 C2722 1.400 . S
C2723 C2724 1.398 . S
C2723 C2729 1.491 . S
C2724 H2715 0.950 . S
C2724 C2723 1.398 . S
C2724 C2725 1.391 . S
C2725 H2713 0.950 . S
C2725 C2721 1.393 . S
C2725 C2724 1.391 . S
C2726 H2716 0.950 . S
C2726 C2727 1.386 . S
C2726 C2728 1.391 . S
C2727 C2726 1.386 . S
C2727 C2731 1.393 . S
C2728 H2717 0.950 . S
C2728 C2726 1.391 . S
C2728 C2729 1.400 . S
C2729 C2723 1.491 . S
C2729 C2728 1.400 . S
C2729 C2730 1.398 . S
C2730 H2718 0.950 . S
C2730 C2729 1.398 . S
C2730 C2731 1.391 . S
C2731 H2719 0.950 . S
C2731 C2727 1.393 . S
C2731 C2730 1.391 . S
H2732 C2740 0.950 . S
H2733 C2745 0.950 . S
H2734 C2742 0.950 . S
H2735 C2744 0.950 . S
H2736 C2746 0.950 . S
H2737 C2748 0.950 . S
H2738 C2750 0.950 . S
H2739 C2751 0.950 1_545 S
C2740 H2732 0.950 . S
C2740 C2741 1.386 . S
C2740 C2742 1.391 . S
C2741 C2740 1.386 . S
C2741 C2745 1.393 . S
C2742 H2734 0.950 . S
C2742 C2740 1.391 . S
C2742 C2743 1.400 . S
C2743 C2742 1.400 . S
C2743 C2744 1.398 . S
C2743 C2749 1.491 . S
C2744 H2735 0.950 . S
C2744 C2743 1.398 . S
C2744 C2745 1.391 . S
C2745 H2733 0.950 . S
C2745 C2741 1.393 . S
C2745 C2744 1.391 . S
C2746 H2736 0.950 . S
C2746 C2747 1.386 . S
C2746 C2748 1.391 . S
C2747 C2746 1.386 . S
C2747 C2751 1.393 . S
C2748 H2737 0.950 . S
C2748 C2746 1.391 . S
C2748 C2749 1.400 . S
C2749 C2743 1.491 . S
C2749 C2748 1.400 . S
C2749 C2750 1.398 . S
C2750 H2738 0.950 . S
C2750 C2749 1.398 . S
C2750 C2751 1.391 . S
C2751 H2739 0.950 1_565 S
C2751 C2747 1.393 . S
C2751 C2750 1.391 . S
H2752 C2760 0.950 . S
H2753 C2765 0.950 . S
H2754 C2762 0.950 . S
H2755 C2764 0.950 . S
H2756 C2766 0.950 . S
H2757 C2768 0.950 . S
H2758 C2770 0.950 . S
H2759 C2771 0.950 . S
C2760 H2752 0.950 . S
C2760 C2761 1.386 . S
C2760 C2762 1.391 . S
C2761 C2760 1.386 . S
C2761 C2765 1.393 . S
C2762 H2754 0.950 . S
C2762 C2760 1.391 . S
C2762 C2763 1.400 . S
C2763 C2762 1.400 . S
C2763 C2764 1.398 . S
C2763 C2769 1.491 . S
C2764 H2755 0.950 . S
C2764 C2763 1.398 . S
C2764 C2765 1.391 . S
C2765 H2753 0.950 . S
C2765 C2761 1.393 . S
C2765 C2764 1.391 . S
C2766 H2756 0.950 . S
C2766 C2767 1.386 . S
C2766 C2768 1.391 . S
C2767 C2766 1.386 . S
C2767 C2771 1.393 . S
C2768 H2757 0.950 . S
C2768 C2766 1.391 . S
C2768 C2769 1.400 . S
C2769 C2763 1.491 . S
C2769 C2768 1.400 . S
C2769 C2770 1.398 . S
C2770 H2758 0.950 . S
C2770 C2769 1.398 . S
C2770 C2771 1.391 . S
C2771 H2759 0.950 . S
C2771 C2767 1.393 . S
C2771 C2770 1.391 . S
H2772 C2780 0.950 . S
H2773 C2785 0.950 . S
H2774 C2782 0.950 . S
H2775 C2784 0.950 . S
H2776 C2786 0.950 . S
H2777 C2788 0.950 . S
H2778 C2790 0.950 . S
H2779 C2791 0.950 . S
C2780 H2772 0.950 . S
C2780 C2781 1.386 . S
C2780 C2782 1.391 . S
C2781 C2780 1.386 . S
C2781 C2785 1.393 . S
C2782 H2774 0.950 . S
C2782 C2780 1.391 . S
C2782 C2783 1.400 . S
C2783 C2782 1.400 . S
C2783 C2784 1.398 . S
C2783 C2789 1.491 . S
C2784 H2775 0.950 . S
C2784 C2783 1.398 . S
C2784 C2785 1.391 . S
C2785 H2773 0.950 . S
C2785 C2781 1.393 . S
C2785 C2784 1.391 . S
C2786 H2776 0.950 . S
C2786 C2787 1.386 . S
C2786 C2788 1.391 . S
C2787 C2786 1.386 . S
C2787 C2791 1.393 . S
C2788 H2777 0.950 . S
C2788 C2786 1.391 . S
C2788 C2789 1.400 . S
C2789 C2783 1.491 . S
C2789 C2788 1.400 . S
C2789 C2790 1.398 . S
C2790 H2778 0.950 . S
C2790 C2789 1.398 . S
C2790 C2791 1.391 . S
C2791 H2779 0.950 . S
C2791 C2787 1.393 . S
C2791 C2790 1.391 . S
H2792 C2800 0.950 . S
H2793 C2805 0.950 . S
H2794 C2802 0.950 . S
H2795 C2804 0.950 . S
H2796 C2806 0.950 . S
H2797 C2808 0.950 . S
H2798 C2810 0.950 . S
H2799 C2811 0.950 . S
C2800 H2792 0.950 . S
C2800 C2801 1.386 . S
C2800 C2802 1.391 . S
C2801 C2800 1.386 . S
C2801 C2805 1.393 . S
C2802 H2794 0.950 . S
C2802 C2800 1.391 . S
C2802 C2803 1.400 . S
C2803 C2802 1.400 . S
C2803 C2804 1.398 . S
C2803 C2809 1.491 . S
C2804 H2795 0.950 . S
C2804 C2803 1.398 . S
C2804 C2805 1.391 . S
C2805 H2793 0.950 . S
C2805 C2801 1.393 . S
C2805 C2804 1.391 . S
C2806 H2796 0.950 . S
C2806 C2807 1.386 . S
C2806 C2808 1.391 . S
C2807 C2806 1.386 . S
C2807 C2811 1.393 . S
C2808 H2797 0.950 . S
C2808 C2806 1.391 . S
C2808 C2809 1.400 . S
C2809 C2803 1.491 . S
C2809 C2808 1.400 . S
C2809 C2810 1.398 . S
C2810 H2798 0.950 . S
C2810 C2809 1.398 . S
C2810 C2811 1.391 . S
C2811 H2799 0.950 . S
C2811 C2807 1.393 . S
C2811 C2810 1.391 . S
H2812 C2820 0.950 . S
H2813 C2825 0.950 . S
H2814 C2822 0.950 . S
H2815 C2824 0.950 . S
H2816 C2826 0.950 1_556 S
H2817 C2828 0.932 1_556 S
H2818 C2830 0.950 . S
H2819 C2831 0.950 . S
C2820 H2812 0.950 . S
C2820 C2821 1.386 . S
C2820 C2822 1.391 . S
C2821 C2820 1.386 . S
C2821 C2825 1.393 . S
C2822 H2814 0.950 . S
C2822 C2820 1.391 . S
C2822 C2823 1.400 . S
C2823 C2822 1.400 . S
C2823 C2824 1.398 . S
C2823 C2829 1.491 . S
C2824 H2815 0.950 . S
C2824 C2823 1.398 . S
C2824 C2825 1.391 . S
C2825 H2813 0.950 . S
C2825 C2821 1.393 . S
C2825 C2824 1.391 . S
C2826 H2816 0.950 1_554 S
C2826 C2827 1.386 . S
C2826 C2828 1.391 . S
C2827 C2826 1.386 . S
C2827 C2831 1.393 . S
C2828 H2817 0.932 1_554 S
C2828 C2826 1.391 . S
C2828 C2829 1.400 . S
C2829 C2823 1.491 . S
C2829 C2828 1.400 . S
C2829 C2830 1.398 . S
C2830 H2818 0.950 . S
C2830 C2829 1.398 . S
C2830 C2831 1.391 . S
C2831 H2819 0.950 . S
C2831 C2827 1.393 . S
C2831 C2830 1.391 . S
H2832 C2840 0.950 . S
H2833 C2845 0.950 . S
H2834 C2842 0.950 . S
H2835 C2844 0.950 . S
H2836 C2846 0.950 . S
H2837 C2848 0.950 . S
H2838 C2850 0.950 . S
H2839 C2851 0.950 . S
C2840 H2832 0.950 . S
C2840 C2841 1.386 . S
C2840 C2842 1.391 . S
C2841 C2840 1.386 . S
C2841 C2845 1.393 . S
C2842 H2834 0.950 . S
C2842 C2840 1.391 . S
C2842 C2843 1.400 . S
C2843 C2842 1.400 . S
C2843 C2844 1.398 . S
C2843 C2849 1.491 . S
C2844 H2835 0.950 . S
C2844 C2843 1.398 . S
C2844 C2845 1.391 . S
C2845 H2833 0.950 . S
C2845 C2841 1.393 . S
C2845 C2844 1.391 . S
C2846 H2836 0.950 . S
C2846 C2847 1.386 . S
C2846 C2848 1.391 . S
C2847 C2846 1.386 . S
C2847 C2851 1.393 . S
C2848 H2837 0.950 . S
C2848 C2846 1.391 . S
C2848 C2849 1.400 . S
C2849 C2843 1.491 . S
C2849 C2848 1.400 . S
C2849 C2850 1.398 . S
C2850 H2838 0.950 . S
C2850 C2849 1.398 . S
C2850 C2851 1.391 . S
C2851 H2839 0.950 . S
C2851 C2847 1.393 . S
C2851 C2850 1.391 . S
H2852 C2860 0.950 . S
H2853 C2865 0.950 . S
H2854 C2862 0.950 . S
H2855 C2864 0.950 . S
H2856 C2866 0.950 . S
H2857 C2868 0.950 . S
H2858 C2870 0.950 . S
H2859 C2871 0.950 . S
C2860 H2852 0.950 . S
C2860 C2861 1.386 . S
C2860 C2862 1.391 . S
C2861 C2860 1.386 . S
C2861 C2865 1.393 . S
C2862 H2854 0.950 . S
C2862 C2860 1.391 . S
C2862 C2863 1.400 . S
C2863 C2862 1.400 . S
C2863 C2864 1.398 . S
C2863 C2869 1.491 . S
C2864 H2855 0.950 . S
C2864 C2863 1.398 . S
C2864 C2865 1.391 . S
C2865 H2853 0.950 . S
C2865 C2861 1.393 . S
C2865 C2864 1.391 . S
C2866 H2856 0.950 . S
C2866 C2867 1.386 . S
C2866 C2868 1.391 . S
C2867 C2866 1.386 . S
C2867 C2871 1.393 . S
C2868 H2857 0.950 . S
C2868 C2866 1.391 . S
C2868 C2869 1.400 . S
C2869 C2863 1.491 . S
C2869 C2868 1.400 . S
C2869 C2870 1.398 . S
C2870 H2858 0.950 . S
C2870 C2869 1.398 . S
C2870 C2871 1.391 . S
C2871 H2859 0.950 . S
C2871 C2867 1.393 . S
C2871 C2870 1.391 . S
C961 C101 2.114 . S
C967 C325 2.057 . S
C981 C57 1.973 . S
C987 C376 1.987 . S
C1001 C70 1.422 . S
C1007 C405 1.397 . S
C1027 C449 1.450 . S
C1021 C82 1.501 . S
C1041 C23 1.390 . S
C1047 C489 1.334 . S
C1067 C525 1.438 . S
C1061 C29 1.474 . S
C1087 C575 1.793 . S
C1081 C49 1.756 . S
C1101 C10 2.265 . S
C1107 C605 2.208 . S
C1127 C335 1.842 . S
C1121 C218 1.858 . S
C1141 C226 0.699 . S
C1147 C378 0.691 . S
C1167 C415 1.238 . S
C1161 C251 1.232 . S
C1187 C445 1.288 . S
C1181 C159 1.307 . S
C1201 C211 1.364 . S
C1207 C485 1.337 . S
C1227 C535 0.874 . S
C1221 C225 0.879 . S
C1247 C569 0.829 . S
C1241 C252 0.865 . S
C1267 C615 1.819 . S
C1261 C166 1.847 . S
C1287 C329 1.254 . S
C1281 C147 1.312 . S
C1301 C263 1.616 . S
C1307 C655 1.658 . S
C1327 C689 1.504 . S
C1321 C309 1.555 . S
C1347 C725 0.809 . S
C1341 C291 0.828 . S
C1361 C108 1.474 . S
C1367 C609 1.405 . S
C1381 C121 1.611 . S
C1387 C409 1.546 . S
C1401 C302 1.556 . S
C1407 C775 1.573 . S
C1427 C794 0.327 . S
C1421 C276 0.261 . S
C1447 C336 2.288 1_565 S
C1441 C55 2.297 . S
C1467 C805 2.317 . S
C1461 C96 2.304 . S
C1481 C88 1.814 . S
C1487 C416 1.798 . S
C1501 C75 1.630 . S
C1507 C778 1.600 . S
C1527 C498 1.476 . S
C1521 C4 1.510 . S
C1541 C44 1.836 . S
C1547 C696 1.830 . S
C1567 C554 2.071 1_566 S
C1561 C31 2.054 . S
C1587 C856 2.430 . S
C1581 C18 2.433 . S
C1607 C314 2.099 1_556 S
C1601 C133 2.129 . S
C1627 C809 0.750 . S
C1621 C296 0.737 . S
C1641 C107 1.462 . S
C1647 C394 1.449 . S
C1661 C264 1.658 . S
C1667 C776 1.646 . S
C1681 C140 1.715 . S
C1687 C496 1.701 . S
C1707 C674 1.106 . S
C1701 C289 1.129 . S
C1721 C114 0.990 . S
C1727 C578 0.984 . S
C1741 C265 2.121 . S
C1747 C834 2.095 . S
C1761 C179 1.211 . S
C1767 C338 1.182 . S
C1781 C161 1.896 . S
C1787 C634 1.883 . S
C1801 C244 1.542 . S
C1807 C538 1.518 . S
C1821 C224 1.086 . S
C1827 C736 1.068 . S
C1847 C858 1.429 . S
C1841 C257 1.472 . S
C1861 C199 1.607 . S
C1867 C418 1.577 . S
C1887 C434 1.812 . S
C1881 C237 1.812 . S
C1907 C375 0.554 . S
C1901 C185 0.509 . S
C1921 C69 2.108 . S
C1927 C885 2.057 . S
C1947 C816 2.002 . S
C1941 C83 1.983 . S
C1961 C94 1.423 . S
C1967 C925 1.401 . S
C1981 C56 1.487 1_655 S
C1987 C769 1.478 . S
C2001 C42 1.409 . S
C2007 C649 1.369 . S
C2027 C685 1.425 . S
C2021 C3 1.475 . S
C2047 C735 1.808 . S
C2041 C16 1.745 . S
C2067 C845 2.217 . S
C2061 C36 2.260 . S
C2087 C895 1.840 . S
C2081 C238 1.861 . S
C2101 C174 0.726 . S
C2107 C818 0.730 . S
C2127 C935 1.246 . S
C2121 C186 1.230 . S
C2147 C765 1.266 . S
C2141 C198 1.305 . S
C2167 C645 1.335 . S
C2161 C239 1.365 . S
C2181 C173 0.871 . S
C2187 C695 0.876 . S
C2207 C729 0.886 . S
C2201 C187 0.892 . S
C2221 C205 1.846 . S
C2227 C855 1.817 . S
C2247 C889 1.221 . S
C2241 C290 1.290 . S
C2261 C122 1.622 . S
C2267 C495 1.654 . S
C2287 C529 1.517 . S
C2281 C134 1.564 1_565 S
C2307 C565 0.799 . S
C2301 C148 0.825 . S
C2327 C849 1.425 . S
C2321 C283 1.486 . S
C2341 C270 1.609 . S
C2347 C929 1.545 . S
C2367 C455 1.572 . S
C2361 C135 1.545 . S
C2387 C354 0.352 . S
C2381 C109 0.271 . S
C2401 C81 2.293 . S
C2407 C896 2.295 . S
C2427 C365 2.315 . S
C2421 C68 2.301 . S
C2441 C62 1.807 . S
C2447 C936 1.807 . S
C2461 C95 1.631 . S
C2467 C458 1.591 . S
C2481 C30 1.508 . S
C2487 C658 1.482 . S
C2507 C536 1.825 . S
C2501 C17 1.830 . S
C2521 C5 2.062 . S
C2527 C714 2.068 . S
C2541 C43 2.434 . S
C2547 C616 2.421 . S
C2567 C874 2.098 . S
C2561 C304 2.128 . S
C2581 C153 0.736 . S
C2587 C369 0.743 . S
C2607 C914 1.457 1_656 S
C2601 C278 1.457 . S
C2621 C127 1.656 . S
C2627 C456 1.656 . S
C2641 C303 1.703 . S
C2647 C656 1.703 . S
C2667 C514 1.109 . S
C2661 C146 1.129 . S
C2681 C277 0.980 . S
C2687 C738 0.955 . S
C2707 C594 2.084 . S
C2701 C120 2.116 . S
C2727 C898 1.191 . S
C2721 C231 1.220 . S
C2747 C474 1.910 1_565 S
C2741 C200 1.896 . S
C2761 C212 1.537 . S
C2767 C698 1.511 . S
C2787 C576 1.083 . S
C2781 C172 1.088 . S
C2801 C192 1.475 . S
C2807 C618 1.434 . S
C2821 C160 1.600 . S
C2827 C938 1.568 . S
C2847 C754 1.813 . S
C2841 C213 1.814 . S
C2867 C815 0.509 . S
C2861 C250 0.513 . S
