# Generated by pormake.
# Topology pyr, (3,6)-cn, num edge types: 1
# Building blocks:
#     Node 0, Type 0, BuildingBlock: OLANEW_clean_sbu_2, # of connection points: 3
#     Node 1, Type 0, BuildingBlock: OLANEW_clean_sbu_2, # of connection points: 3
#     Node 2, Type 0, BuildingBlock: OLANEW_clean_sbu_2, # of connection points: 3
#     Node 3, Type 0, BuildingBlock: OLANEW_clean_sbu_2, # of connection points: 3
#     Node 4, Type 0, BuildingBlock: OLANEW_clean_sbu_2, # of connection points: 3
#     Node 5, Type 0, BuildingBlock: OLANEW_clean_sbu_2, # of connection points: 3
#     Node 6, Type 0, BuildingBlock: OLANEW_clean_sbu_2, # of connection points: 3
#     Node 7, Type 0, BuildingBlock: OLANEW_clean_sbu_2, # of connection points: 3
#     Node 8, Type 1, BuildingBlock: MIFKUJ_clean_sbu_0, # of connection points: 6
#     Node 9, Type 1, BuildingBlock: MIFKUJ_clean_sbu_0, # of connection points: 6
#     Node 10, Type 1, BuildingBlock: MIFKUJ_clean_sbu_0, # of connection points: 6
#     Node 11, Type 1, BuildingBlock: MIFKUJ_clean_sbu_0, # of connection points: 6
#     Edge 12, Type (0, 1), BuildingBlock: ZUJKAS_clean_linker_0, # of connection points: 2
#     Edge 13, Type (0, 1), BuildingBlock: ZUJKAS_clean_linker_0, # of connection points: 2
#     Edge 14, Type (0, 1), BuildingBlock: ZUJKAS_clean_linker_0, # of connection points: 2
#     Edge 15, Type (0, 1), BuildingBlock: ZUJKAS_clean_linker_0, # of connection points: 2
#     Edge 16, Type (0, 1), BuildingBlock: ZUJKAS_clean_linker_0, # of connection points: 2
#     Edge 17, Type (0, 1), BuildingBlock: ZUJKAS_clean_linker_0, # of connection points: 2
#     Edge 18, Type (0, 1), BuildingBlock: ZUJKAS_clean_linker_0, # of connection points: 2
#     Edge 19, Type (0, 1), BuildingBlock: ZUJKAS_clean_linker_0, # of connection points: 2
#     Edge 20, Type (0, 1), BuildingBlock: ZUJKAS_clean_linker_0, # of connection points: 2
#     Edge 21, Type (0, 1), BuildingBlock: ZUJKAS_clean_linker_0, # of connection points: 2
#     Edge 22, Type (0, 1), BuildingBlock: ZUJKAS_clean_linker_0, # of connection points: 2
#     Edge 23, Type (0, 1), BuildingBlock: ZUJKAS_clean_linker_0, # of connection points: 2
#     Edge 24, Type (0, 1), BuildingBlock: ZUJKAS_clean_linker_0, # of connection points: 2
#     Edge 25, Type (0, 1), BuildingBlock: ZUJKAS_clean_linker_0, # of connection points: 2
#     Edge 26, Type (0, 1), BuildingBlock: ZUJKAS_clean_linker_0, # of connection points: 2
#     Edge 27, Type (0, 1), BuildingBlock: ZUJKAS_clean_linker_0, # of connection points: 2
#     Edge 28, Type (0, 1), BuildingBlock: ZUJKAS_clean_linker_0, # of connection points: 2
#     Edge 29, Type (0, 1), BuildingBlock: ZUJKAS_clean_linker_0, # of connection points: 2
#     Edge 30, Type (0, 1), BuildingBlock: ZUJKAS_clean_linker_0, # of connection points: 2
#     Edge 31, Type (0, 1), BuildingBlock: ZUJKAS_clean_linker_0, # of connection points: 2
#     Edge 32, Type (0, 1), BuildingBlock: ZUJKAS_clean_linker_0, # of connection points: 2
#     Edge 33, Type (0, 1), BuildingBlock: ZUJKAS_clean_linker_0, # of connection points: 2
#     Edge 34, Type (0, 1), BuildingBlock: ZUJKAS_clean_linker_0, # of connection points: 2
#     Edge 35, Type (0, 1), BuildingBlock: ZUJKAS_clean_linker_0, # of connection points: 2
# Relax obj value: 0.068
# Max RMSD: 0.170
# Mean RMSD: 0.123
data_MOF--net-pyr--node1-OLANEW_clean_sbu_2--node2-MIFKUJ_clean_sbu_0--edge1-ZUJKAS_clean_linker_0
_symmetry_space_group_name_H-M    P1
_symmetry_Int_Tables_number       1
_symmetry_cell_setting            triclinic
loop_
_symmetry_equiv_pos_as_xyz
'x, y, z'
_cell_length_a     53.04703
_cell_length_b     47.959146
_cell_length_c     50.824914
_cell_angle_alpha  90.316726
_cell_angle_beta   87.648865
_cell_angle_gamma 100.74658
loop_
_atom_site_label
_atom_site_type_symbol
_atom_site_fract_x
_atom_site_fract_y
_atom_site_fract_z
_atom_type_partial_charge
O0 O 0.23188 0.19011 0.18841 0.0
Cd1 Cd 0.19215 0.19841 0.21093 0.0
O2 O 0.25685 0.20931 0.21974 0.0
Cd3 Cd 0.22446 0.21465 0.24584 0.0
O4 O 0.19707 0.19988 0.27824 0.0
C5 C 0.19678 0.17448 0.28545 0.0
O6 O 0.21213 0.15986 0.27289 0.0
C7 C 0.25421 0.19736 0.19736 0.0
C8 C 0.16862 0.23754 0.18532 0.0
O9 O 0.18468 0.24548 0.2033 0.0
O10 O 0.16388 0.21115 0.1793 0.0
O11 O 0.37144 0.89588 0.76149 0.0
Cd12 Cd 0.35272 0.87929 0.71979 0.0
O13 O 0.33457 0.8862 0.78406 0.0
Cd14 Cd 0.31184 0.87746 0.74897 0.0
O15 O 0.28385 0.88038 0.71911 0.0
C16 C 0.27333 0.90212 0.72043 0.0
O17 O 0.28008 0.92091 0.73898 0.0
C18 C 0.3588 0.89456 0.7834 0.0
C19 C 0.37692 0.83669 0.69886 0.0
O20 O 0.38456 0.86269 0.6921 0.0
O21 O 0.35766 0.83081 0.71526 0.0
O22 O 0.73307 0.42173 0.87506 0.0
Cd23 Cd 0.68808 0.40311 0.86569 0.0
O24 O 0.74501 0.38057 0.86874 0.0
Cd25 Cd 0.70619 0.35651 0.8645 0.0
O26 O 0.67502 0.32229 0.87748 0.0
C27 C 0.67332 0.31748 0.90212 0.0
O28 O 0.68924 0.3338 0.91738 0.0
C29 C 0.75062 0.40688 0.87409 0.0
C30 C 0.67029 0.42831 0.82233 0.0
O31 O 0.6695 0.4392 0.84536 0.0
O32 O 0.67984 0.40573 0.81971 0.0
O33 O 0.88275 0.77853 0.2805 0.0
Cd34 Cd 0.85645 0.74686 0.25019 0.0
O35 O 0.85398 0.75631 0.30875 0.0
Cd36 Cd 0.83493 0.74406 0.34699 0.0
O37 O 0.80699 0.72422 0.37709 0.0
C38 C 0.78758 0.70764 0.36845 0.0
O39 O 0.786 0.70396 0.34288 0.0
C40 C 0.87382 0.77529 0.30408 0.0
C41 C 0.8823 0.71063 0.22135 0.0
O42 O 0.87831 0.73378 0.21127 0.0
O43 O 0.87448 0.70484 0.24524 0.0
O44 O 0.86067 0.83719 0.81661 0.0
Cd45 Cd 0.83997 0.8157 0.85731 0.0
O46 O 0.84078 0.87358 0.81862 0.0
Cd47 Cd 0.81718 0.86072 0.85426 0.0
O48 O 0.78571 0.86544 0.88203 0.0
C49 C 0.76792 0.87604 0.87225 0.0
O50 O 0.76954 0.88207 0.84698 0.0
C51 C 0.85672 0.86036 0.80706 0.0
C52 C 0.87091 0.78259 0.88079 0.0
O53 O 0.85464 0.772 0.86379 0.0
O54 O 0.87243 0.80882 0.88683 0.0
O55 O 0.69494 0.1638 0.33814 0.0
Cd56 Cd 0.71039 0.18461 0.38001 0.0
O57 O 0.68737 0.20478 0.32442 0.0
Cd58 Cd 0.69425 0.22754 0.36147 0.0
O59 O 0.68212 0.25591 0.39117 0.0
C60 C 0.65926 0.26002 0.38936 0.0
O61 O 0.64521 0.24685 0.37072 0.0
C62 C 0.68782 0.17871 0.32023 0.0
C63 C 0.75139 0.16255 0.39891 0.0
O64 O 0.72814 0.15197 0.40608 0.0
O65 O 0.75523 0.18336 0.38262 0.0
O66 O 0.38836 0.72602 0.24703 0.0
Cd67 Cd 0.36696 0.67938 0.26388 0.0
O68 O 0.38918 0.70935 0.20662 0.0
Cd69 Cd 0.36282 0.66935 0.21443 0.0
O70 O 0.32718 0.64286 0.20213 0.0
C71 C 0.32267 0.64497 0.17792 0.0
O72 O 0.33978 0.66142 0.16269 0.0
C73 C 0.39526 0.72956 0.22282 0.0
C74 C 0.39041 0.66036 0.30691 0.0
O75 O 0.3985 0.65673 0.28325 0.0
O76 O 0.37144 0.67327 0.31027 0.0
O77 O 0.1803 0.37528 0.75544 0.0
Cd78 Cd 0.19258 0.3442 0.72075 0.0
O79 O 0.19792 0.35549 0.78715 0.0
Cd80 Cd 0.20554 0.32171 0.76097 0.0
O81 O 0.19441 0.28541 0.73522 0.0
C82 C 0.1706 0.27469 0.73613 0.0
O83 O 0.15517 0.28573 0.7523 0.0
C84 C 0.18603 0.37449 0.77946 0.0
C85 C 0.24006 0.368 0.69723 0.0
O86 O 0.23854 0.35163 0.71731 0.0
O87 O 0.2191 0.37282 0.68812 0.0
Zn88 Zn 0.03814 0.9966 0.54506 0.0
Zn89 Zn 0.99329 0.02303 0.5281 0.0
C90 C 0.06943 0.04536 0.5648 0.0
O91 O 0.08537 0.03622 0.54781 0.0
C92 C 0.96514 0.97267 0.50558 0.0
O93 O 0.94695 0.9794 0.52133 0.0
O94 O 0.06535 0.97424 0.55408 0.0
O95 O 0.00436 0.97351 0.55836 0.0
O96 O 0.98781 0.01153 0.56623 0.0
C97 C 0.06558 0.96772 0.57828 0.0
O98 O 0.04775 0.97442 0.59455 0.0
O99 O 0.04643 0.03185 0.56719 0.0
C100 C 0.96589 0.05597 0.49676 0.0
O101 O 0.98557 0.05525 0.48038 0.0
O102 O 0.96516 0.04411 0.51917 0.0
O103 O 0.02691 0.04695 0.51588 0.0
O104 O 0.04357 0.0091 0.50704 0.0
O105 O 0.98742 0.98799 0.50553 0.0
C106 C 0.98953 0.98627 0.57214 0.0
C107 C 0.04222 0.03476 0.50212 0.0
Zn108 Zn 0.53693 0.01098 0.04664 0.0
Zn109 Zn 0.4993 0.0453 0.07126 0.0
C110 C 0.49912 0.9749 0.01666 0.0
O111 O 0.5063 0.95517 0.03087 0.0
C112 C 0.53743 0.08182 0.10121 0.0
O113 O 0.52975 0.10194 0.08797 0.0
O114 O 0.56514 0.99077 0.03386 0.0
O115 O 0.55123 0.05273 0.04306 0.0
O116 O 0.5128 0.06065 0.03543 0.0
C117 C 0.57175 0.99299 0.00953 0.0
O118 O 0.56043 0.00866 0.99442 0.0
O119 O 0.50899 0.00076 0.02059 0.0
C120 C 0.46082 0.06424 0.10493 0.0
O121 O 0.46904 0.04805 0.12217 0.0
O122 O 0.47091 0.06624 0.08174 0.0
O123 O 0.48527 0.00356 0.07679 0.0
O124 O 0.52391 0.99458 0.08204 0.0
O125 O 0.52724 0.0561 0.09716 0.0
C126 C 0.53703 0.06738 0.032 0.0
C127 C 0.49983 0.9887 0.08702 0.0
Zn128 Zn 0.53657 0.51944 0.55018 0.0
Zn129 Zn 0.52118 0.56839 0.58018 0.0
C130 C 0.5725 0.54938 0.51375 0.0
O131 O 0.55662 0.5332 0.49836 0.0
C132 C 0.48235 0.53434 0.61218 0.0
O133 O 0.49504 0.55005 0.63035 0.0
O134 O 0.54258 0.4829 0.53345 0.0
O135 O 0.5373 0.5132 0.58933 0.0
O136 O 0.55117 0.5581 0.59869 0.0
C137 C 0.56329 0.47515 0.53944 0.0
O138 O 0.57804 0.49041 0.55641 0.0
O139 O 0.56793 0.54798 0.53851 0.0
C140 C 0.49456 0.61411 0.58618 0.0
O141 O 0.48421 0.60199 0.56495 0.0
O142 O 0.51208 0.60375 0.5968 0.0
O143 O 0.52403 0.57546 0.54099 0.0
O144 O 0.50598 0.53127 0.53369 0.0
O145 O 0.49025 0.53784 0.58827 0.0
C146 C 0.55002 0.53196 0.60385 0.0
C147 C 0.50965 0.55735 0.52723 0.0
Zn148 Zn 0.03476 0.54801 0.0086 0.0
Zn149 Zn 0.04282 0.49544 0.03825 0.0
C150 C 0.99829 0.51978 0.97441 0.0
O151 O 0.01626 0.53295 0.9579 0.0
C152 C 0.07922 0.52047 0.07449 0.0
O153 O 0.06142 0.50599 0.0904 0.0
O154 O 0.03011 0.58548 0.99335 0.0
O155 O 0.03632 0.55322 0.04778 0.0
O156 O 0.01271 0.51108 0.05453 0.0
C157 C 0.01259 0.59652 0.00483 0.0
O158 O 0.00077 0.58426 0.02613 0.0
O159 O 0.00191 0.52188 0.999 0.0
C160 C 0.06221 0.44544 0.04613 0.0
O161 O 0.07674 0.45684 0.02598 0.0
O162 O 0.04426 0.45762 0.05495 0.0
O163 O 0.04594 0.49021 0.99882 0.0
O164 O 0.06426 0.53439 0.9899 0.0
O165 O 0.07551 0.52022 0.04992 0.0
C166 C 0.01885 0.53699 0.06109 0.0
C167 C 0.06113 0.5081 0.98445 0.0
H168 H 0.19263 0.12106 0.30528 0.0
H169 H 0.16576 0.09977 0.34275 0.0
H170 H 0.13666 0.17728 0.3544 0.0
H171 H 0.16336 0.19879 0.31664 0.0
H172 H 0.16661 0.11922 0.39525 0.0
H173 H 0.07123 0.11564 0.35243 0.0
H174 H 0.10072 0.12107 0.33253 0.0
H175 H 0.09221 0.14973 0.35172 0.0
C176 C 0.18043 0.13359 0.31568 0.0
C177 C 0.18007 0.16161 0.30791 0.0
C178 C 0.16513 0.12138 0.33713 0.0
C179 C 0.14905 0.13684 0.35115 0.0
C180 C 0.14863 0.16484 0.34354 0.0
H181 H 0.04303 0.08917 0.48581 0.0
H182 H 0.0696 0.11503 0.45012 0.0
C183 C 0.16398 0.17712 0.32204 0.0
C184 C 0.13324 0.12367 0.37408 0.0
H185 H 0.07137 0.10071 0.39662 0.0
C186 C 0.14578 0.11518 0.39559 0.0
C187 C 0.1061 0.11856 0.37444 0.0
C188 C 0.09167 0.12649 0.3515 0.0
C189 C 0.13189 0.10169 0.41753 0.0
C190 C 0.10475 0.09609 0.41768 0.0
C191 C 0.09219 0.105 0.39637 0.0
C192 C 0.08903 0.08048 0.43955 0.0
C193 C 0.14637 0.09382 0.44046 0.0
C194 C 0.09099 0.05238 0.44523 0.0
C195 C 0.07586 0.03752 0.46562 0.0
C196 C 0.05838 0.05047 0.48061 0.0
C197 C 0.05636 0.07859 0.47472 0.0
C198 C 0.07149 0.09341 0.45432 0.0
H199 H 0.16627 0.10623 0.44042 0.0
H200 H 0.13639 0.09733 0.45949 0.0
H201 H 0.14755 0.07099 0.43911 0.0
H202 H 0.10405 0.04184 0.4337 0.0
H203 H 0.07781 0.01587 0.46955 0.0
H204 H 0.33864 0.8895 0.83401 0.0
H205 H 0.36091 0.90324 0.87458 0.0
H206 H 0.43132 0.93263 0.8293 0.0
H207 H 0.40939 0.91837 0.78866 0.0
H208 H 0.43869 0.90071 0.8711 0.0
H209 H 0.38288 0.98265 0.90331 0.0
H210 H 0.36331 0.94853 0.89777 0.0
H211 H 0.38128 0.96771 0.87063 0.0
C212 C 0.35885 0.89897 0.83265 0.0
C213 C 0.37221 0.90292 0.80805 0.0
C214 C 0.37151 0.90699 0.85587 0.0
C215 C 0.39766 0.91944 0.85495 0.0
C216 C 0.41109 0.9232 0.83046 0.0
H217 H 0.48671 0.00959 0.97863 0.0
H218 H 0.46135 0.99561 0.94001 0.0
C219 C 0.39851 0.91503 0.80724 0.0
C220 C 0.41129 0.92783 0.8795 0.0
H221 H 0.4113 0.96974 0.93407 0.0
C222 C 0.43273 0.91584 0.88485 0.0
C223 C 0.40368 0.94785 0.89726 0.0
C224 C 0.38169 0.96266 0.89189 0.0
C225 C 0.44668 0.92313 0.90754 0.0
C226 C 0.43858 0.94245 0.92573 0.0
C227 C 0.41728 0.95466 0.92028 0.0
C228 C 0.45252 0.95097 0.95006 0.0
C229 C 0.47033 0.9106 0.91147 0.0
C230 C 0.45538 0.93062 0.96891 0.0
C231 C 0.47 0.93851 0.99093 0.0
C232 C 0.48178 0.96696 0.99465 0.0
C233 C 0.47795 0.98748 0.97632 0.0
C234 C 0.46346 0.97954 0.95423 0.0
H235 H 0.4777 0.90246 0.89273 0.0
H236 H 0.4859 0.92653 0.91976 0.0
H237 H 0.46548 0.89254 0.92547 0.0
H238 H 0.44656 0.90856 0.96642 0.0
H239 H 0.47237 0.92223 0.00481 0.0
H240 H 0.6528 0.47847 0.82058 0.0
H241 H 0.63359 0.49808 0.78348 0.0
H242 H 0.6444 0.42634 0.73582 0.0
H243 H 0.66382 0.40661 0.77265 0.0
H244 H 0.65842 0.50531 0.72384 0.0
H245 H 0.56291 0.4352 0.74098 0.0
H246 H 0.58461 0.44536 0.76733 0.0
H247 H 0.59139 0.42004 0.74326 0.0
C248 C 0.65125 0.46693 0.80216 0.0
C249 C 0.65978 0.44093 0.79959 0.0
C250 C 0.64031 0.4782 0.78101 0.0
C251 C 0.63754 0.46356 0.75705 0.0
C252 C 0.64637 0.43787 0.75424 0.0
H253 H 0.55792 0.47876 0.61497 0.0
H254 H 0.58 0.46376 0.65204 0.0
C255 C 0.65747 0.42667 0.77529 0.0
C256 C 0.62476 0.47469 0.73515 0.0
H257 H 0.56813 0.46514 0.70386 0.0
C258 C 0.63866 0.4967 0.71945 0.0
C259 C 0.59907 0.46321 0.72954 0.0
C260 C 0.58342 0.43971 0.74614 0.0
C261 C 0.62761 0.5072 0.6978 0.0
C262 C 0.60177 0.49581 0.6922 0.0
C263 C 0.58789 0.47391 0.70816 0.0
C264 C 0.58893 0.50555 0.66944 0.0
C265 C 0.64396 0.52972 0.68066 0.0
C266 C 0.58641 0.53405 0.66692 0.0
C267 C 0.57392 0.54279 0.64555 0.0
C268 C 0.56339 0.52308 0.62652 0.0
C269 C 0.56573 0.49451 0.62929 0.0
C270 C 0.57837 0.48587 0.65049 0.0
H271 H 0.66478 0.53049 0.68323 0.0
H272 H 0.63993 0.52598 0.65953 0.0
H273 H 0.63959 0.55078 0.68617 0.0
H274 H 0.59383 0.5495 0.68164 0.0
H275 H 0.57227 0.5649 0.6441 0.0
H276 H 0.88492 0.70556 0.16799 0.0
H277 H 0.90507 0.67208 0.14196 0.0
H278 H 0.92994 0.63884 0.21322 0.0
H279 H 0.90847 0.67117 0.23937 0.0
H280 H 0.95173 0.66757 0.13503 0.0
H281 H 0.90143 0.56626 0.17902 0.0
H282 H 0.89142 0.5995 0.1862 0.0
H283 H 0.91721 0.58926 0.20363 0.0
C284 C 0.89454 0.69095 0.17808 0.0
C285 C 0.89505 0.69085 0.20568 0.0
C286 C 0.90602 0.67179 0.16321 0.0
C287 C 0.91862 0.65244 0.1756 0.0
C288 C 0.91959 0.65277 0.20319 0.0
H289 H 0.03688 0.58018 0.09373 0.0
H290 H 0.01185 0.6063 0.12289 0.0
C291 C 0.90756 0.67148 0.21812 0.0
C292 C 0.9319 0.63313 0.15949 0.0
H293 H 0.93991 0.56431 0.15302 0.0
C294 C 0.9489 0.64495 0.13887 0.0
C295 C 0.92793 0.60347 0.16405 0.0
C296 C 0.90828 0.58886 0.18423 0.0
C297 C 0.96239 0.62817 0.12309 0.0
C298 C 0.95979 0.59889 0.12886 0.0
C299 C 0.94231 0.58685 0.14899 0.0
C300 C 0.97509 0.5806 0.11408 0.0
C301 C 0.97886 0.64199 0.10005 0.0
C302 C 0.96294 0.55618 0.10098 0.0
C303 C 0.97736 0.54067 0.08489 0.0
C304 C 0.00404 0.54963 0.08151 0.0
C305 C 0.01627 0.57308 0.09579 0.0
C306 C 0.00197 0.58815 0.11224 0.0
H307 H 0.97221 0.66129 0.09327 0.0
H308 H 0.99893 0.64861 0.10618 0.0
H309 H 0.97875 0.62718 0.08316 0.0
H310 H 0.94223 0.5498 0.10233 0.0
H311 H 0.9675 0.52271 0.07397 0.0
H312 H 0.304 0.20657 0.21247 0.0
H313 H 0.33969 0.18745 0.1923 0.0
H314 H 0.29141 0.15062 0.13008 0.0
H315 H 0.25539 0.16932 0.15033 0.0
H316 H 0.31518 0.1121 0.15394 0.0
H317 H 0.3864 0.20866 0.12717 0.0
H318 H 0.37476 0.2085 0.16084 0.0
H319 H 0.353 0.20951 0.13478 0.0
C320 C 0.30105 0.19488 0.19421 0.0
C321 C 0.27676 0.1894 0.18308 0.0
C322 C 0.32156 0.18408 0.18263 0.0
C323 C 0.3183 0.16784 0.15955 0.0
C324 C 0.29437 0.1632 0.14785 0.0
H325 H 0.44052 0.10082 0.07449 0.0
H326 H 0.40563 0.12595 0.08666 0.0
C327 C 0.27381 0.17396 0.15943 0.0
C328 C 0.33906 0.15345 0.14914 0.0
H329 H 0.40214 0.16499 0.12813 0.0
C330 C 0.33412 0.12368 0.14805 0.0
C331 C 0.3637 0.16859 0.14128 0.0
C332 C 0.36976 0.20059 0.1408 0.0
C333 C 0.35335 0.1086 0.14003 0.0
C334 C 0.37829 0.12369 0.13332 0.0
C335 C 0.38306 0.15348 0.13361 0.0
C336 C 0.39971 0.10882 0.12617 0.0
C337 C 0.34678 0.07664 0.13874 0.0
C338 C 0.40816 0.09119 0.14451 0.0
C339 C 0.42807 0.07678 0.13765 0.0
C340 C 0.43997 0.07983 0.11232 0.0
C341 C 0.43169 0.09788 0.09412 0.0
C342 C 0.4118 0.11232 0.10104 0.0
H343 H 0.32575 0.06891 0.13777 0.0
H344 H 0.35651 0.06852 0.12135 0.0
H345 H 0.35336 0.06756 0.1567 0.0
H346 H 0.39937 0.0886 0.16417 0.0
H347 H 0.43406 0.0632 0.15218 0.0
H348 H 0.24656 0.9454 0.71984 0.0
H349 H 0.21274 0.95159 0.69056 0.0
H350 H 0.22112 0.87464 0.64963 0.0
H351 H 0.25488 0.86796 0.67924 0.0
H352 H 0.21423 0.9573 0.63622 0.0
H353 H 0.14414 0.86164 0.66958 0.0
H354 H 0.17238 0.87566 0.68751 0.0
H355 H 0.1751 0.85551 0.65799 0.0
C356 C 0.24127 0.92973 0.70464 0.0
C357 C 0.25334 0.90607 0.702 0.0
C358 C 0.22194 0.93335 0.68787 0.0
C359 C 0.21419 0.91342 0.66812 0.0
C360 C 0.22649 0.89001 0.66505 0.0
H361 H 0.10829 0.9557 0.55141 0.0
H362 H 0.14493 0.93936 0.57006 0.0
C363 C 0.24585 0.88631 0.6819 0.0
C364 C 0.19313 0.9174 0.65104 0.0
H365 H 0.13104 0.88987 0.63694 0.0
C366 C 0.19612 0.94243 0.63611 0.0
C367 C 0.16948 0.89803 0.65115 0.0
C368 C 0.16486 0.87128 0.66754 0.0
C369 C 0.17586 0.94905 0.62189 0.0
C370 C 0.15211 0.92983 0.62223 0.0
C371 C 0.14935 0.90442 0.63656 0.0
C372 C 0.12919 0.93709 0.61012 0.0
C373 C 0.17967 0.9772 0.60772 0.0
C374 C 0.10781 0.94015 0.62627 0.0
C375 C 0.08685 0.94924 0.6157 0.0
C376 C 0.0868 0.95543 0.58869 0.0
C377 C 0.1078 0.95126 0.57231 0.0
C378 C 0.12881 0.94209 0.58295 0.0
H379 H 0.19729 0.99182 0.61369 0.0
H380 H 0.18148 0.9736 0.5862 0.0
H381 H 0.16293 0.98772 0.61158 0.0
H382 H 0.10766 0.93632 0.64728 0.0
H383 H 0.07095 0.95206 0.62888 0.0
H384 H 0.76788 0.45929 0.89529 0.0
H385 H 0.81064 0.47775 0.9112 0.0
H386 H 0.83616 0.40155 0.88503 0.0
H387 H 0.79334 0.38263 0.86963 0.0
H388 H 0.84931 0.41496 0.935 0.0
H389 H 0.87699 0.51 0.87122 0.0
H390 H 0.84699 0.509 0.88915 0.0
H391 H 0.84992 0.4823 0.86479 0.0
C392 C 0.78268 0.44662 0.89256 0.0
C393 C 0.77717 0.41948 0.88115 0.0
C394 C 0.80717 0.45726 0.90159 0.0
C395 C 0.8267 0.44117 0.89906 0.0
C396 C 0.82139 0.41435 0.88718 0.0
H397 H 0.98778 0.50538 0.92361 0.0
H398 H 0.94638 0.48452 0.90601 0.0
C399 C 0.7969 0.40361 0.87831 0.0
C400 C 0.85229 0.45161 0.90994 0.0
H401 H 0.90337 0.50672 0.90743 0.0
C402 C 0.86121 0.43496 0.92888 0.0
C403 C 0.86791 0.47755 0.90175 0.0
C404 C 0.86012 0.49562 0.88042 0.0
C405 C 0.88517 0.44369 0.94007 0.0
C406 C 0.90039 0.47011 0.93254 0.0
C407 C 0.89159 0.48659 0.91338 0.0
C408 C 0.92573 0.48091 0.94382 0.0
C409 C 0.89416 0.42427 0.95943 0.0
C410 C 0.92799 0.4856 0.97102 0.0
C411 C 0.95177 0.4973 0.98121 0.0
C412 C 0.97361 0.50491 0.96431 0.0
C413 C 0.97132 0.49982 0.93716 0.0
C414 C 0.94765 0.48794 0.92705 0.0
H415 H 0.88394 0.40198 0.9574 0.0
H416 H 0.91512 0.42481 0.95677 0.0
H417 H 0.89018 0.43132 0.97976 0.0
H418 H 0.91125 0.48091 0.98429 0.0
H419 H 0.95287 0.5012 0.00218 0.0
H420 H 0.78409 0.71096 0.42238 0.0
H421 H 0.75017 0.68505 0.45206 0.0
H422 H 0.71106 0.64462 0.38527 0.0
H423 H 0.74473 0.67009 0.35559 0.0
H424 H 0.69597 0.68489 0.45259 0.0
H425 H 0.71813 0.57795 0.43366 0.0
H426 H 0.74058 0.61018 0.42542 0.0
H427 H 0.71477 0.59706 0.40412 0.0
C428 C 0.76829 0.69648 0.41404 0.0
C429 C 0.76718 0.69244 0.38663 0.0
C430 C 0.74896 0.68175 0.43101 0.0
C431 C 0.72838 0.66263 0.42084 0.0
C432 C 0.72706 0.65889 0.39352 0.0
H433 H 0.58654 0.55683 0.46182 0.0
H434 H 0.62551 0.58572 0.44246 0.0
C435 C 0.74628 0.67358 0.37658 0.0
C436 C 0.70788 0.64677 0.4385 0.0
H437 H 0.67681 0.5796 0.45369 0.0
C438 C 0.69196 0.66188 0.45324 0.0
C439 C 0.70288 0.61678 0.43934 0.0
C440 C 0.72014 0.59951 0.425 0.0
C441 C 0.67021 0.64767 0.46765 0.0
C442 C 0.66457 0.61768 0.46745 0.0
C443 C 0.68114 0.60262 0.45363 0.0
C444 C 0.64061 0.6014 0.47973 0.0
C445 C 0.65275 0.66475 0.48191 0.0
C446 C 0.63618 0.60075 0.50715 0.0
C447 C 0.61382 0.5842 0.51835 0.0
C448 C 0.59566 0.56799 0.50225 0.0
C449 C 0.60012 0.56901 0.47479 0.0
C450 C 0.6224 0.58549 0.46367 0.0
H451 H 0.65766 0.68765 0.47673 0.0
H452 H 0.63243 0.65661 0.47727 0.0
H453 H 0.65444 0.66262 0.50347 0.0
H454 H 0.6502 0.61263 0.51986 0.0
H455 H 0.61095 0.58377 0.53958 0.0
H456 H 0.1706 0.29355 0.19737 0.0
H457 H 0.14933 0.32755 0.17546 0.0
H458 H 0.11711 0.26265 0.12091 0.0
H459 H 0.13777 0.22835 0.14311 0.0
H460 H 0.1557 0.34642 0.12578 0.0
H461 H 0.05428 0.29413 0.14391 0.0
H462 H 0.08034 0.2837 0.1608 0.0
H463 H 0.07328 0.2712 0.12797 0.0
C464 C 0.15886 0.28645 0.18081 0.0
C465 C 0.1558 0.2582 0.17204 0.0
C466 C 0.14669 0.30591 0.16832 0.0
C467 C 0.13124 0.29755 0.14683 0.0
C468 C 0.12835 0.26942 0.13789 0.0
H469 H 0.09463 0.4109 0.0286 0.0
H470 H 0.10997 0.37432 0.05332 0.0
C471 C 0.14036 0.24989 0.15048 0.0
C472 C 0.11924 0.31863 0.13298 0.0
H473 H 0.06208 0.33158 0.11205 0.0
C474 C 0.13521 0.34324 0.12293 0.0
C475 C 0.09243 0.3147 0.1296 0.0
C476 C 0.07404 0.28965 0.14138 0.0
C477 C 0.12524 0.36369 0.10909 0.0
C478 C 0.09863 0.35908 0.10457 0.0
C479 C 0.08252 0.33486 0.11519 0.0
C480 C 0.08731 0.37926 0.08883 0.0
C481 C 0.14331 0.39023 0.09976 0.0
C482 C 0.06842 0.39313 0.10011 0.0
C483 C 0.05931 0.41386 0.08586 0.0
C484 C 0.069 0.42104 0.06012 0.0
C485 C 0.087 0.40611 0.04849 0.0
C486 C 0.09591 0.3853 0.06265 0.0
H487 H 0.16107 0.39428 0.11114 0.0
H488 H 0.14904 0.38769 0.07876 0.0
H489 H 0.13398 0.40909 0.10146 0.0
H490 H 0.06136 0.38861 0.12023 0.0
H491 H 0.04544 0.42498 0.09536 0.0
H492 H 0.63944 0.27744 0.87615 0.0
H493 H 0.61143 0.23523 0.89506 0.0
H494 H 0.63872 0.25925 0.97222 0.0
H495 H 0.66634 0.3015 0.95369 0.0
H496 H 0.62629 0.19138 0.92128 0.0
H497 H 0.56141 0.24186 0.98599 0.0
H498 H 0.58176 0.26105 0.96017 0.0
H499 H 0.59464 0.25542 0.99152 0.0
C500 C 0.63922 0.27391 0.8972 0.0
C501 C 0.65509 0.29288 0.91342 0.0
C502 C 0.62324 0.24978 0.90795 0.0
C503 C 0.62271 0.24433 0.9351 0.0
C504 C 0.63836 0.26336 0.95132 0.0
H505 H 0.58804 0.08877 0.02236 0.0
H506 H 0.6071 0.13087 0.99667 0.0
C507 C 0.65429 0.28744 0.94063 0.0
C508 C 0.60714 0.2179 0.94641 0.0
H509 H 0.56286 0.19318 0.99547 0.0
C510 C 0.61217 0.19174 0.93727 0.0
C511 C 0.58846 0.21837 0.96701 0.0
C512 C 0.58103 0.24568 0.97657 0.0
C513 C 0.59986 0.16608 0.94897 0.0
C514 C 0.58242 0.1667 0.9707 0.0
C515 C 0.57651 0.19276 0.97905 0.0
C516 C 0.57075 0.14068 0.98561 0.0
C517 C 0.60571 0.13859 0.938 0.0
C518 C 0.54396 0.13258 0.98847 0.0
C519 C 0.53298 0.10864 0.00336 0.0
C520 C 0.54861 0.09243 0.0158 0.0
C521 C 0.57544 0.10065 0.01292 0.0
C522 C 0.58639 0.12462 0.99808 0.0
H523 H 0.61288 0.14101 0.91714 0.0
H524 H 0.6209 0.13197 0.94957 0.0
H525 H 0.58846 0.12144 0.93924 0.0
H526 H 0.53155 0.14481 0.97916 0.0
H527 H 0.51224 0.10294 0.00522 0.0
H528 H 0.92445 0.79948 0.30716 0.0
H529 H 0.94463 0.82996 0.34239 0.0
H530 H 0.87097 0.82314 0.38346 0.0
H531 H 0.85075 0.79339 0.34826 0.0
H532 H 0.93279 0.88201 0.35954 0.0
H533 H 0.91722 0.80323 0.44074 0.0
H534 H 0.91487 0.79313 0.4065 0.0
H535 H 0.88858 0.80512 0.42372 0.0
C536 C 0.91264 0.80434 0.32383 0.0
C537 C 0.88614 0.79328 0.3254 0.0
C538 C 0.92418 0.82165 0.34392 0.0
C539 C 0.90939 0.82814 0.36585 0.0
C540 C 0.88287 0.81757 0.36716 0.0
H541 H 0.91894 0.93772 0.499 0.0
H542 H 0.9082 0.90162 0.46512 0.0
C543 C 0.87136 0.80034 0.34712 0.0
C544 C 0.9212 0.84731 0.38673 0.0
H545 H 0.92799 0.85207 0.45319 0.0
C546 C 0.93213 0.87541 0.37997 0.0
C547 C 0.92026 0.83857 0.41333 0.0
C548 C 0.90983 0.80829 0.42153 0.0
C549 C 0.94104 0.89542 0.39933 0.0
C550 C 0.93938 0.88688 0.42605 0.0
C551 C 0.92918 0.85855 0.43269 0.0
C552 C 0.94665 0.90744 0.44751 0.0
C553 C 0.95108 0.9258 0.39115 0.0
C554 C 0.972 0.92216 0.44922 0.0
C555 C 0.97821 0.9429 0.46854 0.0
C556 C 0.95918 0.94913 0.48656 0.0
C557 C 0.93403 0.93355 0.48537 0.0
C558 C 0.92785 0.91287 0.46604 0.0
H559 H 0.94609 0.93004 0.37072 0.0
H560 H 0.94329 0.94069 0.40467 0.0
H561 H 0.97231 0.93035 0.39208 0.0
H562 H 0.98689 0.91788 0.4354 0.0
H563 H 0.99781 0.95438 0.46904 0.0
H564 H 0.36987 0.78133 0.71472 0.0
H565 H 0.39189 0.7442 0.69749 0.0
H566 H 0.43499 0.8035 0.64126 0.0
H567 H 0.4136 0.84096 0.65891 0.0
H568 H 0.39188 0.72149 0.64967 0.0
H569 H 0.49168 0.77044 0.67203 0.0
H570 H 0.46423 0.78381 0.6854 0.0
H571 H 0.47655 0.7931 0.65245 0.0
C572 C 0.38414 0.78652 0.69878 0.0
C573 C 0.39007 0.81413 0.68825 0.0
C574 C 0.39673 0.76527 0.68896 0.0
C575 C 0.41545 0.77117 0.6684 0.0
C576 C 0.42115 0.79863 0.65762 0.0
H577 H 0.46325 0.64583 0.56429 0.0
H578 H 0.44485 0.68406 0.58472 0.0
C579 C 0.40875 0.81997 0.66759 0.0
C580 C 0.42812 0.74824 0.65752 0.0
H581 H 0.48663 0.73065 0.64291 0.0
C582 C 0.4126 0.72344 0.64836 0.0
C583 C 0.45516 0.75056 0.65619 0.0
C584 C 0.47287 0.77579 0.66729 0.0
C585 C 0.42332 0.70118 0.63738 0.0
C586 C 0.45036 0.70412 0.63481 0.0
C587 C 0.46591 0.7286 0.64455 0.0
C588 C 0.4628 0.68201 0.62197 0.0
C589 C 0.40552 0.67456 0.62903 0.0
C590 C 0.47997 0.66903 0.63569 0.0
C591 C 0.49087 0.64739 0.62389 0.0
C592 C 0.48472 0.63836 0.59818 0.0
C593 C 0.46814 0.65203 0.58424 0.0
C594 C 0.45746 0.67379 0.59595 0.0
H595 H 0.3864 0.67221 0.63944 0.0
H596 H 0.40256 0.67568 0.6076 0.0
H597 H 0.41369 0.65535 0.63289 0.0
H598 H 0.48452 0.67522 0.65573 0.0
H599 H 0.50361 0.6373 0.63512 0.0
H600 H 0.85372 0.91009 0.78248 0.0
H601 H 0.87639 0.9296 0.74197 0.0
H602 H 0.91385 0.85729 0.73545 0.0
H603 H 0.89108 0.83737 0.77596 0.0
H604 H 0.93039 0.94319 0.7322 0.0
H605 H 0.88302 0.86209 0.6625 0.0
H606 H 0.86991 0.86639 0.69531 0.0
H607 H 0.89661 0.84851 0.69045 0.0
C608 C 0.86669 0.89821 0.77243 0.0
C609 C 0.87052 0.8721 0.78246 0.0
C610 C 0.87964 0.90944 0.74928 0.0
C611 C 0.89653 0.89472 0.73559 0.0
C612 C 0.90054 0.86873 0.74552 0.0
H613 H 0.99188 0.93414 0.59246 0.0
H614 H 0.96965 0.91186 0.63227 0.0
C615 C 0.88762 0.85747 0.76875 0.0
C616 C 0.91043 0.90711 0.7113 0.0
H617 H 0.917 0.89695 0.64502 0.0
C618 C 0.92746 0.93313 0.71312 0.0
C619 C 0.90659 0.89382 0.68651 0.0
C620 C 0.8879 0.86626 0.68338 0.0
C621 C 0.94095 0.94619 0.69078 0.0
C622 C 0.93686 0.93312 0.66591 0.0
C623 C 0.92002 0.90693 0.66413 0.0
C624 C 0.94978 0.94642 0.64149 0.0
C625 C 0.95977 0.97363 0.69408 0.0
C626 C 0.94558 0.97299 0.63325 0.0
C627 C 0.95827 0.98582 0.61055 0.0
C628 C 0.97526 0.97219 0.59557 0.0
C629 C 0.97895 0.94524 0.60356 0.0
C630 C 0.96628 0.93246 0.6263 0.0
H631 H 0.96572 0.97676 0.71476 0.0
H632 H 0.9772 0.97424 0.68106 0.0
H633 H 0.95058 0.99166 0.68869 0.0
H634 H 0.93249 0.98383 0.6444 0.0
H635 H 0.95485 0.00648 0.60485 0.0
H636 H 0.67395 0.20554 0.27745 0.0
H637 H 0.65347 0.18398 0.23832 0.0
H638 H 0.65949 0.10097 0.2666 0.0
H639 H 0.67982 0.12238 0.30622 0.0
H640 H 0.66884 0.14799 0.19884 0.0
H641 H 0.58192 0.09575 0.25729 0.0
H642 H 0.60589 0.12313 0.27086 0.0
H643 H 0.61203 0.08774 0.26686 0.0
C644 C 0.67116 0.1827 0.27533 0.0
C645 C 0.67827 0.16566 0.29516 0.0
C646 C 0.6595 0.17043 0.25288 0.0
C647 C 0.6546 0.14088 0.24978 0.0
C648 C 0.66273 0.12381 0.26887 0.0
H649 H 0.55631 0.04537 0.13302 0.0
H650 H 0.58731 0.0575 0.16753 0.0
C651 C 0.67446 0.1361 0.29141 0.0
C652 C 0.63978 0.12823 0.22717 0.0
H653 H 0.58131 0.09029 0.2114 0.0
C654 C 0.6498 0.13514 0.20155 0.0
C655 C 0.61494 0.11148 0.23079 0.0
C656 C 0.60287 0.10418 0.25789 0.0
C657 C 0.63546 0.12613 0.17943 0.0
C658 C 0.61028 0.11024 0.1831 0.0
C659 C 0.60061 0.1025 0.20867 0.0
C660 C 0.59303 0.1028 0.16089 0.0
C661 C 0.64733 0.13381 0.15234 0.0
C662 C 0.5859 0.12426 0.14578 0.0
C663 C 0.56818 0.11743 0.12607 0.0
C664 C 0.5571 0.08898 0.12123 0.0
C665 C 0.56449 0.0675 0.13623 0.0
C666 C 0.58221 0.07437 0.15595 0.0
H667 H 0.66865 0.13816 0.1525 0.0
H668 H 0.64111 0.11659 0.13801 0.0
H669 H 0.64117 0.15332 0.14546 0.0
H670 H 0.59357 0.14638 0.14966 0.0
H671 H 0.56285 0.13449 0.11495 0.0
H672 H 0.43661 0.64294 0.30756 0.0
H673 H 0.45609 0.62471 0.34503 0.0
H674 H 0.39033 0.63399 0.39483 0.0
H675 H 0.37125 0.65336 0.35767 0.0
H676 H 0.43241 0.65205 0.41959 0.0
H677 H 0.43914 0.5473 0.37673 0.0
H678 H 0.45586 0.57582 0.35641 0.0
H679 H 0.42153 0.57128 0.36164 0.0
C680 C 0.42628 0.64105 0.32649 0.0
C681 C 0.40234 0.64948 0.32962 0.0
C682 C 0.43734 0.63038 0.34786 0.0
C683 C 0.42442 0.62728 0.37267 0.0
C684 C 0.40062 0.63599 0.37588 0.0
H685 H 0.46882 0.52823 0.50101 0.0
H686 H 0.44731 0.54516 0.46417 0.0
C687 C 0.38973 0.64707 0.35461 0.0
C688 C 0.43602 0.61581 0.39547 0.0
H689 H 0.46268 0.56027 0.41542 0.0
C690 C 0.43886 0.63187 0.41871 0.0
C691 C 0.44403 0.58922 0.39459 0.0
C692 C 0.43973 0.56978 0.3711 0.0
C693 C 0.44991 0.62243 0.44084 0.0
C694 C 0.45924 0.59662 0.43943 0.0
C695 C 0.45589 0.58024 0.41641 0.0
C696 C 0.47249 0.58624 0.4616 0.0
C697 C 0.45094 0.63999 0.46564 0.0
C698 C 0.49411 0.60341 0.4721 0.0
C699 C 0.50617 0.59395 0.49335 0.0
C700 C 0.49724 0.56682 0.50419 0.0
C701 C 0.47614 0.54924 0.49311 0.0
C702 C 0.46383 0.5589 0.47206 0.0
H703 H 0.43594 0.65339 0.46631 0.0
H704 H 0.44834 0.6264 0.48352 0.0
H705 H 0.46988 0.6544 0.46615 0.0
H706 H 0.50171 0.62419 0.46385 0.0
H707 H 0.52261 0.60787 0.5012 0.0
H708 H 0.16081 0.41798 0.76972 0.0
H709 H 0.1428 0.44761 0.80201 0.0
H710 H 0.17275 0.40506 0.86489 0.0
H711 H 0.19119 0.3757 0.83281 0.0
H712 H 0.10633 0.42781 0.83972 0.0
H713 H 0.19241 0.48761 0.88638 0.0
H714 H 0.19422 0.46914 0.85549 0.0
H715 H 0.19175 0.45007 0.88617 0.0
C716 C 0.16396 0.41524 0.7904 0.0
C717 C 0.1774 0.39441 0.79869 0.0
C718 C 0.15364 0.4322 0.80881 0.0
C719 C 0.15669 0.42877 0.83582 0.0
C720 C 0.17066 0.40852 0.84412 0.0
H721 H 0.05902 0.45351 0.96789 0.0
H722 H 0.08215 0.43687 0.93031 0.0
C723 C 0.18105 0.3916 0.82573 0.0
C724 C 0.14324 0.44437 0.85544 0.0
H725 H 0.15214 0.48545 0.91056 0.0
C726 C 0.11639 0.44074 0.855 0.0
C727 C 0.15639 0.46151 0.87516 0.0
C728 C 0.18531 0.46758 0.87571 0.0
C729 C 0.10223 0.45276 0.87442 0.0
C730 C 0.11526 0.46839 0.89507 0.0
C731 C 0.14219 0.47314 0.89487 0.0
C732 C 0.10118 0.47881 0.91766 0.0
C733 C 0.07342 0.44843 0.87276 0.0
C734 C 0.10467 0.5079 0.92335 0.0
C735 C 0.09154 0.51753 0.94496 0.0
C736 C 0.07484 0.49818 0.96132 0.0
C737 C 0.07158 0.46903 0.95561 0.0
C738 C 0.08469 0.45946 0.93405 0.0
H739 H 0.06734 0.44355 0.85232 0.0
H740 H 0.06443 0.43023 0.88546 0.0
H741 H 0.06603 0.46751 0.87967 0.0
H742 H 0.11747 0.52314 0.911 0.0
H743 H 0.09454 0.54011 0.94887 0.0
H744 H 0.72843 0.90042 0.85691 0.0
H745 H 0.69464 0.91512 0.88461 0.0
H746 H 0.72469 0.88236 0.95316 0.0
H747 H 0.75902 0.86793 0.92555 0.0
H748 H 0.65675 0.88371 0.91771 0.0
H749 H 0.72267 0.96471 0.97354 0.0
H750 H 0.73296 0.9487 0.94374 0.0
H751 H 0.72916 0.92927 0.9742 0.0
C752 C 0.72789 0.89624 0.87787 0.0
C753 C 0.74657 0.88321 0.88905 0.0
C754 C 0.7085 0.90463 0.89366 0.0
C755 C 0.70738 0.90022 0.92097 0.0
C756 C 0.72552 0.88646 0.93218 0.0
H757 H 0.60126 0.96146 0.03533 0.0
H758 H 0.63352 0.93607 0.01583 0.0
C759 C 0.74502 0.87809 0.91636 0.0
C760 C 0.68735 0.91056 0.93745 0.0
H761 H 0.67844 0.95991 0.98393 0.0
C762 C 0.66148 0.90021 0.93235 0.0
C763 C 0.69359 0.93203 0.95659 0.0
C764 C 0.72108 0.94456 0.9623 0.0
C765 C 0.64169 0.91118 0.94545 0.0
C766 C 0.64798 0.93333 0.96387 0.0
C767 C 0.67375 0.94294 0.96976 0.0
C768 C 0.62824 0.94817 0.97578 0.0
C769 C 0.61421 0.89922 0.93929 0.0
C770 C 0.61494 0.96367 0.95973 0.0
C771 C 0.59668 0.97827 0.97076 0.0
C772 C 0.59137 0.97769 0.9981 0.0
C773 C 0.60486 0.96227 0.01419 0.0
C774 C 0.62327 0.94775 0.00311 0.0
H775 H 0.61222 0.87763 0.93063 0.0
H776 H 0.60142 0.8982 0.95725 0.0
H777 H 0.6076 0.9132 0.92476 0.0
H778 H 0.61887 0.96469 0.93863 0.0
H779 H 0.5867 0.98999 0.95779 0.0
H780 H 0.80211 0.176 0.38313 0.0
H781 H 0.83808 0.1577 0.4007 0.0
H782 H 0.7862 0.10644 0.45662 0.0
H783 H 0.75004 0.12402 0.43867 0.0
H784 H 0.85659 0.16188 0.44955 0.0
H785 H 0.82431 0.04836 0.42497 0.0
H786 H 0.80965 0.07607 0.41184 0.0
H787 H 0.80104 0.06281 0.44467 0.0
C788 C 0.79832 0.16068 0.39905 0.0
C789 C 0.77318 0.15131 0.40938 0.0
C790 C 0.81891 0.15027 0.4091 0.0
C791 C 0.81481 0.13034 0.42969 0.0
C792 C 0.78977 0.12124 0.44028 0.0
H793 H 0.91839 0.05206 0.52128 0.0
H794 H 0.88181 0.07119 0.50598 0.0
C795 C 0.76912 0.13144 0.43009 0.0
C796 C 0.83685 0.11969 0.44049 0.0
H797 H 0.86001 0.05927 0.45245 0.0
C798 C 0.85737 0.13945 0.45007 0.0
C799 C 0.83788 0.0904 0.44116 0.0
C800 C 0.81717 0.06819 0.42988 0.0
C801 C 0.87874 0.13071 0.46052 0.0
C802 C 0.87963 0.10148 0.46133 0.0
C803 C 0.85912 0.08168 0.45193 0.0
C804 C 0.90206 0.09105 0.47116 0.0
C805 C 0.90015 0.1527 0.47088 0.0
C806 C 0.92549 0.0959 0.45658 0.0
C807 C 0.94635 0.08487 0.46514 0.0
C808 C 0.94418 0.06887 0.48851 0.0
C809 C 0.92074 0.06441 0.50327 0.0
C810 C 0.89981 0.07525 0.49455 0.0
H811 H 0.89444 0.17373 0.47336 0.0
H812 H 0.90621 0.14586 0.4901 0.0
H813 H 0.91699 0.15513 0.45682 0.0
H814 H 0.92749 0.10781 0.43832 0.0
H815 H 0.96411 0.08868 0.4533 0.0
H816 H 0.28104 0.6135 0.2046 0.0
H817 H 0.2397 0.59201 0.18668 0.0
H818 H 0.26716 0.62319 0.10935 0.0
H819 H 0.30847 0.64448 0.12692 0.0
H820 H 0.20596 0.62113 0.15999 0.0
H821 H 0.23829 0.53848 0.097 0.0
H822 H 0.25726 0.5562 0.12302 0.0
H823 H 0.25648 0.5737 0.09197 0.0
C824 C 0.27837 0.61554 0.18373 0.0
C825 C 0.29808 0.63064 0.16717 0.0
C826 C 0.25474 0.60331 0.17356 0.0
C827 C 0.25052 0.60575 0.14665 0.0
C828 C 0.27019 0.62064 0.13008 0.0
H829 H 0.12109 0.55057 0.04716 0.0
H830 H 0.16231 0.57283 0.06481 0.0
C831 C 0.29376 0.63291 0.14021 0.0
C832 C 0.22522 0.59374 0.13603 0.0
H833 H 0.1958 0.54589 0.09179 0.0
C834 C 0.20367 0.60457 0.14519 0.0
C835 C 0.22239 0.5723 0.11659 0.0
C836 C 0.24477 0.55927 0.10668 0.0
C837 C 0.17936 0.59481 0.13512 0.0
C838 C 0.1765 0.57328 0.11575 0.0
C839 C 0.19808 0.56248 0.10656 0.0
C840 C 0.15117 0.56105 0.10526 0.0
C841 C 0.15707 0.60805 0.14492 0.0
C842 C 0.13132 0.54701 0.12214 0.0
C843 C 0.10779 0.53438 0.11216 0.0
C844 C 0.10371 0.53532 0.08503 0.0
C845 C 0.12359 0.54955 0.06815 0.0
C846 C 0.14715 0.56222 0.07818 0.0
H847 H 0.16368 0.62922 0.15384 0.0
H848 H 0.1442 0.61042 0.12871 0.0
H849 H 0.14574 0.59417 0.16027 0.0
H850 H 0.13419 0.54534 0.14301 0.0
H851 H 0.09295 0.52346 0.1257 0.0
H852 H 0.24941 0.40317 0.65439 0.0
H853 H 0.29103 0.42794 0.63652 0.0
H854 H 0.32928 0.38923 0.69577 0.0
H855 H 0.28778 0.36406 0.71356 0.0
H856 H 0.32563 0.46649 0.66338 0.0
H857 H 0.37054 0.3767 0.62845 0.0
H858 H 0.33652 0.3729 0.63611 0.0
H859 H 0.3586 0.37324 0.66207 0.0
C860 C 0.26668 0.39965 0.66344 0.0
C861 C 0.26528 0.38165 0.68541 0.0
C862 C 0.29044 0.41381 0.65319 0.0
C863 C 0.31325 0.41015 0.6646 0.0
C864 C 0.31195 0.39189 0.6863 0.0
H865 H 0.4591 0.52459 0.661 0.0
H866 H 0.41822 0.49354 0.6726 0.0
C867 C 0.2882 0.37768 0.69656 0.0
C868 C 0.3382 0.42705 0.65506 0.0
H869 H 0.39828 0.42194 0.63108 0.0
C870 C 0.34145 0.45674 0.65614 0.0
C871 C 0.35872 0.41428 0.6454 0.0
C872 C 0.35592 0.38253 0.64267 0.0
C873 C 0.36489 0.47403 0.64846 0.0
C874 C 0.3857 0.46126 0.6398 0.0
C875 C 0.38231 0.4316 0.638 0.0
C876 C 0.41121 0.47854 0.63288 0.0
C877 C 0.3672 0.50586 0.6496 0.0
C878 C 0.4211 0.47971 0.60681 0.0
C879 C 0.4445 0.49747 0.60007 0.0
C880 C 0.45843 0.51416 0.61938 0.0
C881 C 0.4488 0.51216 0.64563 0.0
C882 C 0.42541 0.4945 0.6523 0.0
H883 H 0.34809 0.51223 0.65072 0.0
H884 H 0.37759 0.51403 0.66739 0.0
H885 H 0.37827 0.5161 0.63208 0.0
H886 H 0.41041 0.46742 0.59158 0.0
H887 H 0.45145 0.49844 0.57969 0.0
H888 H 0.87421 0.72748 0.8698 0.0
H889 H 0.90103 0.69833 0.89058 0.0
H890 H 0.93155 0.76848 0.94054 0.0
H891 H 0.90511 0.798 0.91953 0.0
H892 H 0.96916 0.7404 0.9195 0.0
H893 H 0.88709 0.66437 0.9643 0.0
H894 H 0.88571 0.66812 0.9293 0.0
H895 H 0.88344 0.69785 0.9504 0.0
C896 C 0.88661 0.73673 0.88521 0.0
C897 C 0.88738 0.76501 0.89315 0.0
C898 C 0.90186 0.72 0.89714 0.0
C899 C 0.91797 0.73111 0.91739 0.0
C900 C 0.91916 0.75947 0.92501 0.0
H901 H 0.98114 0.6291 0.02797 0.0
H902 H 0.96055 0.66413 0.00695 0.0
C903 C 0.90399 0.77627 0.91303 0.0
C904 C 0.9334 0.71307 0.93078 0.0
H905 H 0.92828 0.65232 0.96682 0.0
C906 C 0.96027 0.72118 0.92994 0.0
C907 C 0.92171 0.68822 0.94466 0.0
C908 C 0.8929 0.67921 0.94749 0.0
C909 C 0.97579 0.70484 0.9423 0.0
C910 C 0.96411 0.67954 0.95549 0.0
C911 C 0.93723 0.67165 0.95657 0.0
C912 C 0.97916 0.66089 0.96866 0.0
C913 C 0.00448 0.71507 0.94153 0.0
C914 C 0.99689 0.64781 0.95424 0.0
C915 C 0.0089 0.62787 0.96629 0.0
C916 C 0.00307 0.62043 0.99286 0.0
C917 C 0.98597 0.63428 0.00743 0.0
C918 C 0.97416 0.65429 0.99545 0.0
H919 H 0.00969 0.73814 0.9371 0.0
H920 H 0.01271 0.71092 0.96054 0.0
H921 H 0.01346 0.70355 0.92582 0.0
H922 H 0.00068 0.65215 0.93342 0.0
H923 H 0.02181 0.61738 0.9545 0.0
H924 H 0.40131 0.78112 0.24794 0.0
H925 H 0.41854 0.82792 0.22861 0.0
H926 H 0.43666 0.78805 0.15578 0.0
H927 H 0.41915 0.7415 0.17463 0.0
H928 H 0.46601 0.85267 0.20609 0.0
H929 H 0.39077 0.8418 0.13244 0.0
H930 H 0.38878 0.81816 0.16026 0.0
H931 H 0.40793 0.8129 0.13123 0.0
C932 C 0.40921 0.78234 0.2279 0.0
C933 C 0.40856 0.75761 0.21272 0.0
C934 C 0.41898 0.80907 0.21688 0.0
C935 C 0.42825 0.81146 0.19055 0.0
C936 C 0.42893 0.78673 0.17589 0.0
H937 H 0.52415 0.94755 0.10492 0.0
H938 H 0.50595 0.90657 0.13234 0.0
C939 C 0.41904 0.76011 0.18678 0.0
C940 C 0.43681 0.83967 0.17802 0.0
H941 H 0.42724 0.87884 0.12473 0.0
C942 C 0.4574 0.85856 0.18846 0.0
C943 C 0.42516 0.8476 0.15536 0.0
C944 C 0.40176 0.82918 0.14432 0.0
C945 C 0.46741 0.88465 0.17611 0.0
C946 C 0.45688 0.89168 0.15242 0.0
C947 C 0.43555 0.87332 0.14269 0.0
C948 C 0.46816 0.91737 0.13679 0.0
C949 C 0.48911 0.90442 0.18865 0.0
C950 C 0.4528 0.93671 0.12948 0.0
C951 C 0.46306 0.95998 0.11338 0.0
C952 C 0.4889 0.96433 0.10431 0.0
C953 C 0.50424 0.94497 0.11175 0.0
C954 C 0.49392 0.92163 0.12765 0.0
H955 H 0.48906 0.90065 0.2102 0.0
H956 H 0.50768 0.90055 0.17996 0.0
H957 H 0.48794 0.92699 0.18525 0.0
H958 H 0.43281 0.93373 0.13613 0.0
H959 H 0.45075 0.97452 0.10805 0.0
H960 H 0.12107 0.24615 0.73511 0.0
H961 H 0.10358 0.20683 0.70645 0.0
H962 H 0.17862 0.20981 0.66933 0.0
H963 H 0.19643 0.24892 0.69822 0.0
H964 H 0.10314 0.20611 0.65195 0.0
H965 H 0.15649 0.12606 0.68874 0.0
H966 H 0.15447 0.15843 0.70632 0.0
H967 H 0.17665 0.15887 0.67854 0.0
C968 C 0.13393 0.23836 0.72096 0.0
C969 C 0.16018 0.25058 0.71902 0.0
C970 C 0.12387 0.2159 0.70459 0.0
C971 C 0.13986 0.20517 0.68603 0.0
C972 C 0.16605 0.2174 0.68391 0.0
H973 H 0.11765 0.0773 0.56492 0.0
H974 H 0.13367 0.11664 0.59414 0.0
C975 C 0.17616 0.23984 0.70034 0.0
C976 C 0.12893 0.18173 0.6684 0.0
H977 H 0.13328 0.11419 0.64998 0.0
C978 C 0.1096 0.18594 0.6516 0.0
C979 C 0.13739 0.15545 0.66806 0.0
C980 C 0.15722 0.14924 0.68654 0.0
C981 C 0.0989 0.16476 0.63401 0.0
C982 C 0.10756 0.13862 0.63351 0.0
C983 C 0.12676 0.13433 0.65041 0.0
C984 C 0.09727 0.11551 0.61529 0.0
C985 C 0.07887 0.17074 0.61568 0.0
C986 C 0.07147 0.10187 0.61754 0.0
C987 C 0.06219 0.07933 0.60085 0.0
C988 C 0.07865 0.07003 0.58171 0.0
C989 C 0.10444 0.08394 0.57942 0.0
C990 C 0.11367 0.1064 0.59612 0.0
H991 H 0.07851 0.19378 0.61444 0.0
H992 H 0.08238 0.16273 0.59558 0.0
H993 H 0.05965 0.15967 0.62306 0.0
H994 H 0.05862 0.10833 0.63252 0.0
H995 H 0.04227 0.06896 0.60318 0.0
H996 H 0.68303 0.29146 0.42965 0.0
H997 H 0.66578 0.32573 0.45773 0.0
H998 H 0.59496 0.30867 0.41675 0.0
H999 H 0.6118 0.27419 0.38895 0.0
H1000 H 0.6496 0.37437 0.44155 0.0
H1001 H 0.5696 0.30193 0.49359 0.0
H1002 H 0.59524 0.28926 0.47556 0.0
H1003 H 0.56916 0.29894 0.45839 0.0
C1004 C 0.6637 0.2948 0.42679 0.0
C1005 C 0.64877 0.28003 0.40711 0.0
C1006 C 0.65388 0.31439 0.44284 0.0
C1007 C 0.62895 0.3194 0.43959 0.0
C1008 C 0.61402 0.30465 0.42001 0.0
H1009 H 0.53913 0.44064 0.50123 0.0
H1010 H 0.55511 0.40233 0.47758 0.0
C1011 C 0.62377 0.28507 0.40401 0.0
C1012 C 0.61901 0.34118 0.45566 0.0
H1013 H 0.56973 0.35151 0.49778 0.0
C1014 C 0.63227 0.36935 0.45403 0.0
C1015 C 0.59631 0.33456 0.4718 0.0
C1016 C 0.58186 0.30449 0.47519 0.0
C1017 C 0.62315 0.39121 0.46768 0.0
C1018 C 0.60038 0.38462 0.48368 0.0
C1019 C 0.58715 0.35646 0.48542 0.0
C1020 C 0.59013 0.40676 0.49885 0.0
C1021 C 0.63763 0.4213 0.4644 0.0
C1022 C 0.60427 0.42142 0.51901 0.0
C1023 C 0.59523 0.44322 0.53254 0.0
C1024 C 0.57179 0.45073 0.52622 0.0
C1025 C 0.55728 0.43542 0.50652 0.0
C1026 C 0.56636 0.41355 0.493 0.0
H1027 H 0.65106 0.42365 0.44686 0.0
H1028 H 0.62416 0.43628 0.46252 0.0
H1029 H 0.64904 0.42742 0.48204 0.0
H1030 H 0.62245 0.41614 0.52412 0.0
H1031 H 0.60682 0.45444 0.54771 0.0
loop_
_geom_bond_atom_site_label_1
_geom_bond_atom_site_label_2
_geom_bond_distance
_geom_bond_site_symmetry_2
_ccdc_geom_bond_type
O0 Cd1 2.300 . S
O0 C7 1.275 . S
Cd1 O0 2.300 . S
Cd1 O9 2.381 . S
Cd1 O10 2.378 . S
O2 Cd3 2.385 . S
O2 C7 1.255 . S
Cd3 O2 2.385 . S
Cd3 O4 2.317 . S
O4 Cd3 2.317 . S
O4 C5 1.232 . S
C5 O4 1.232 . S
C5 O6 1.218 . S
O6 C5 1.218 . S
C7 O0 1.275 . S
C7 O2 1.255 . S
C8 O9 1.258 . S
C8 O10 1.256 . S
O9 Cd1 2.381 . S
O9 C8 1.258 . S
O10 Cd1 2.378 . S
O10 C8 1.256 . S
O11 Cd12 2.300 . S
O11 C18 1.275 . S
Cd12 O11 2.300 . S
Cd12 O20 2.381 . S
Cd12 O21 2.378 . S
O13 Cd14 2.385 . S
O13 C18 1.255 . S
Cd14 O13 2.385 . S
Cd14 O15 2.317 . S
O15 Cd14 2.317 . S
O15 C16 1.232 . S
C16 O15 1.232 . S
C16 O17 1.218 . S
O17 C16 1.218 . S
C18 O11 1.275 . S
C18 O13 1.255 . S
C19 O20 1.258 . S
C19 O21 1.256 . S
O20 Cd12 2.381 . S
O20 C19 1.258 . S
O21 Cd12 2.378 . S
O21 C19 1.256 . S
O22 Cd23 2.300 . S
O22 C29 1.275 . S
Cd23 O22 2.300 . S
Cd23 O31 2.381 . S
Cd23 O32 2.378 . S
O24 Cd25 2.385 . S
O24 C29 1.255 . S
Cd25 O24 2.385 . S
Cd25 O26 2.317 . S
O26 Cd25 2.317 . S
O26 C27 1.232 . S
C27 O26 1.232 . S
C27 O28 1.218 . S
O28 C27 1.218 . S
C29 O22 1.275 . S
C29 O24 1.255 . S
C30 O31 1.258 . S
C30 O32 1.256 . S
O31 Cd23 2.381 . S
O31 C30 1.258 . S
O32 Cd23 2.378 . S
O32 C30 1.256 . S
O33 Cd34 2.300 . S
O33 C40 1.275 . S
Cd34 O33 2.300 . S
Cd34 O42 2.381 . S
Cd34 O43 2.378 . S
O35 Cd36 2.385 . S
O35 C40 1.255 . S
Cd36 O35 2.385 . S
Cd36 O37 2.317 . S
O37 Cd36 2.317 . S
O37 C38 1.232 . S
C38 O37 1.232 . S
C38 O39 1.218 . S
O39 C38 1.218 . S
C40 O33 1.275 . S
C40 O35 1.255 . S
C41 O42 1.258 . S
C41 O43 1.256 . S
O42 Cd34 2.381 . S
O42 C41 1.258 . S
O43 Cd34 2.378 . S
O43 C41 1.256 . S
O44 Cd45 2.300 . S
O44 C51 1.275 . S
Cd45 O44 2.300 . S
Cd45 O53 2.381 . S
Cd45 O54 2.378 . S
O46 Cd47 2.385 . S
O46 C51 1.255 . S
Cd47 O46 2.385 . S
Cd47 O48 2.317 . S
O48 Cd47 2.317 . S
O48 C49 1.232 . S
C49 O48 1.232 . S
C49 O50 1.218 . S
O50 C49 1.218 . S
C51 O44 1.275 . S
C51 O46 1.255 . S
C52 O53 1.258 . S
C52 O54 1.256 . S
O53 Cd45 2.381 . S
O53 C52 1.258 . S
O54 Cd45 2.378 . S
O54 C52 1.256 . S
O55 Cd56 2.300 . S
O55 C62 1.275 . S
Cd56 O55 2.300 . S
Cd56 O64 2.381 . S
Cd56 O65 2.378 . S
O57 Cd58 2.385 . S
O57 C62 1.255 . S
Cd58 O57 2.385 . S
Cd58 O59 2.317 . S
O59 Cd58 2.317 . S
O59 C60 1.232 . S
C60 O59 1.232 . S
C60 O61 1.218 . S
O61 C60 1.218 . S
C62 O55 1.275 . S
C62 O57 1.255 . S
C63 O64 1.258 . S
C63 O65 1.256 . S
O64 Cd56 2.381 . S
O64 C63 1.258 . S
O65 Cd56 2.378 . S
O65 C63 1.256 . S
O66 Cd67 2.300 . S
O66 C73 1.275 . S
Cd67 O66 2.300 . S
Cd67 O75 2.381 . S
Cd67 O76 2.378 . S
O68 Cd69 2.385 . S
O68 C73 1.255 . S
Cd69 O68 2.385 . S
Cd69 O70 2.317 . S
O70 Cd69 2.317 . S
O70 C71 1.232 . S
C71 O70 1.232 . S
C71 O72 1.218 . S
O72 C71 1.218 . S
C73 O66 1.275 . S
C73 O68 1.255 . S
C74 O75 1.258 . S
C74 O76 1.256 . S
O75 Cd67 2.381 . S
O75 C74 1.258 . S
O76 Cd67 2.378 . S
O76 C74 1.256 . S
O77 Cd78 2.300 . S
O77 C84 1.275 . S
Cd78 O77 2.300 . S
Cd78 O86 2.381 . S
Cd78 O87 2.378 . S
O79 Cd80 2.385 . S
O79 C84 1.255 . S
Cd80 O79 2.385 . S
Cd80 O81 2.317 . S
O81 Cd80 2.317 . S
O81 C82 1.232 . S
C82 O81 1.232 . S
C82 O83 1.218 . S
O83 C82 1.218 . S
C84 O77 1.275 . S
C84 O79 1.255 . S
C85 O86 1.258 . S
C85 O87 1.256 . S
O86 Cd78 2.381 . S
O86 C85 1.258 . S
O87 Cd78 2.378 . S
O87 C85 1.256 . S
Zn88 O94 1.969 1_545 S
Zn88 O95 1.965 1_545 S
Zn88 O99 2.024 . S
Zn88 O104 1.969 . S
Zn89 O96 1.969 1_545 S
Zn89 O102 1.969 . S
Zn89 O103 1.965 1_655 S
Zn89 O105 2.024 1_545 S
C90 O91 1.229 . S
C90 O99 1.058 . S
O91 C90 1.229 . S
C92 O93 1.229 . S
C92 O105 1.058 . S
O93 C92 1.229 . S
O94 Zn88 1.969 1_565 S
O94 C97 1.267 . S
O95 Zn88 1.965 1_565 S
O95 C106 1.260 1_455 S
O96 Zn89 1.969 1_565 S
O96 C106 1.258 . S
C97 O94 1.267 . S
C97 O98 1.228 . S
O98 C97 1.228 . S
O99 Zn88 2.024 . S
O99 C90 1.058 . S
C100 O101 1.228 . S
C100 O102 1.267 . S
O101 C100 1.228 . S
O102 Zn89 1.969 . S
O102 C100 1.267 . S
O103 Zn89 1.965 1_455 S
O103 C107 1.260 . S
O104 Zn88 1.969 . S
O104 C107 1.258 . S
O105 Zn89 2.024 1_565 S
O105 C92 1.058 . S
C106 O95 1.260 1_655 S
C106 O96 1.258 . S
C107 O103 1.260 . S
C107 O104 1.258 . S
Zn108 O114 1.969 1_545 S
Zn108 O115 1.965 . S
Zn108 O119 2.024 1_554 S
Zn108 O124 1.969 1_545 S
Zn109 O116 1.969 . S
Zn109 O122 1.969 . S
Zn109 O123 1.965 . S
Zn109 O125 2.024 . S
C110 O111 1.229 . S
C110 O119 1.058 1_565 S
O111 C110 1.229 . S
C112 O113 1.229 . S
C112 O125 1.058 . S
O113 C112 1.229 . S
O114 Zn108 1.969 1_565 S
O114 C117 1.267 1_554 S
O115 Zn108 1.965 . S
O115 C126 1.260 . S
O116 Zn109 1.969 . S
O116 C126 1.258 . S
C117 O114 1.267 1_556 S
C117 O118 1.228 1_565 S
O118 C117 1.228 1_545 S
O119 Zn108 2.024 1_556 S
O119 C110 1.058 1_545 S
C120 O121 1.228 . S
C120 O122 1.267 . S
O121 C120 1.228 . S
O122 Zn109 1.969 . S
O122 C120 1.267 . S
O123 Zn109 1.965 . S
O123 C127 1.256 1_545 S
O124 Zn108 1.969 1_565 S
O124 C127 1.260 . S
O125 Zn109 2.024 . S
O125 C112 1.058 . S
C126 O115 1.260 . S
C126 O116 1.258 . S
C127 O123 1.256 1_565 S
C127 O124 1.260 . S
Zn128 O134 1.969 . S
Zn128 O135 1.965 . S
Zn128 O139 2.024 . S
Zn128 O144 1.969 . S
Zn129 O136 1.969 . S
Zn129 O142 1.969 . S
Zn129 O143 1.965 . S
Zn129 O145 2.024 . S
C130 O131 1.229 . S
C130 O139 1.058 . S
O131 C130 1.229 . S
C132 O133 1.229 . S
C132 O145 1.058 . S
O133 C132 1.229 . S
O134 Zn128 1.969 . S
O134 C137 1.267 . S
O135 Zn128 1.965 . S
O135 C146 1.260 . S
O136 Zn129 1.969 . S
O136 C146 1.258 . S
C137 O134 1.267 . S
C137 O138 1.228 . S
O138 C137 1.228 . S
O139 Zn128 2.024 . S
O139 C130 1.058 . S
C140 O141 1.228 . S
C140 O142 1.267 . S
O141 C140 1.228 . S
O142 Zn129 1.969 . S
O142 C140 1.267 . S
O143 Zn129 1.965 . S
O143 C147 1.260 . S
O144 Zn128 1.969 . S
O144 C147 1.258 . S
O145 Zn129 2.024 . S
O145 C132 1.058 . S
C146 O135 1.260 . S
C146 O136 1.258 . S
C147 O143 1.260 . S
C147 O144 1.258 . S
Zn148 O154 1.969 . S
Zn148 O155 1.965 1_556 S
Zn148 O159 2.024 1_455 S
Zn148 O164 1.969 . S
Zn149 O156 1.969 . S
Zn149 O162 1.969 . S
Zn149 O163 1.965 . S
Zn149 O165 2.024 . S
C150 O151 1.229 . S
C150 O159 1.058 . S
O151 C150 1.229 . S
C152 O153 1.229 . S
C152 O165 1.058 . S
O153 C152 1.229 . S
O154 Zn148 1.969 . S
O154 C157 1.267 1_455 S
O155 Zn148 1.965 1_554 S
O155 C166 1.260 . S
O156 Zn149 1.969 . S
O156 C166 1.258 . S
C157 O154 1.267 1_655 S
C157 O158 1.228 . S
O158 C157 1.228 . S
O159 Zn148 2.024 1_655 S
O159 C150 1.058 . S
C160 O161 1.228 . S
C160 O162 1.267 . S
O161 C160 1.228 . S
O162 Zn149 1.969 . S
O162 C160 1.267 . S
O163 Zn149 1.965 . S
O163 C167 1.260 1_554 S
O164 Zn148 1.969 . S
O164 C167 1.258 . S
O165 Zn149 2.024 . S
O165 C152 1.058 . S
C166 O155 1.260 . S
C166 O156 1.258 . S
C167 O163 1.260 1_556 S
C167 O164 1.258 . S
H168 C176 0.929 . S
H169 C178 0.930 . S
H170 C180 0.930 . S
H171 C183 0.929 . S
H172 C186 0.930 . S
H173 C188 0.960 . S
H174 C188 0.960 . S
H175 C188 0.960 . S
C176 H168 0.929 . S
C176 C177 1.377 . S
C176 C178 1.384 . S
C177 C176 1.377 . S
C177 C183 1.390 . S
C178 H169 0.930 . S
C178 C176 1.384 . S
C178 C179 1.372 . S
C179 C178 1.372 . S
C179 C180 1.400 . S
C179 C184 1.490 . S
C180 H170 0.930 . S
C180 C179 1.400 . S
C180 C183 1.386 . S
H181 C197 0.930 . S
H182 C198 0.931 . S
C183 H171 0.929 . S
C183 C177 1.390 . S
C183 C180 1.386 . S
C184 C179 1.490 . S
C184 C186 1.395 . S
C184 C187 1.403 . S
H185 C191 0.930 . S
C186 H172 0.930 . S
C186 C184 1.395 . S
C186 C189 1.403 . S
C187 C184 1.403 . S
C187 C188 1.524 . S
C187 C191 1.400 . S
C188 H173 0.960 . S
C188 H174 0.960 . S
C188 H175 0.960 . S
C188 C187 1.524 . S
C189 C186 1.403 . S
C189 C190 1.392 . S
C189 C193 1.495 . S
C190 C189 1.392 . S
C190 C191 1.385 . S
C190 C192 1.478 . S
C191 H185 0.930 . S
C191 C187 1.400 . S
C191 C190 1.385 . S
C192 C190 1.478 . S
C192 C194 1.381 . S
C192 C198 1.383 . S
C193 C189 1.495 . S
C193 H199 0.959 . S
C193 H200 0.961 . S
C193 H201 0.960 . S
C194 C192 1.381 . S
C194 C195 1.394 . S
C194 H202 0.930 . S
C195 C194 1.394 . S
C195 C196 1.383 . S
C195 H203 0.929 . S
C196 C195 1.383 . S
C196 C197 1.377 . S
C197 H181 0.930 . S
C197 C196 1.377 . S
C197 C198 1.379 . S
C198 H182 0.931 . S
C198 C192 1.383 . S
C198 C197 1.379 . S
H199 C193 0.959 . S
H200 C193 0.961 . S
H201 C193 0.960 . S
H202 C194 0.930 . S
H203 C195 0.929 . S
H204 C212 0.929 . S
H205 C214 0.930 . S
H206 C216 0.930 . S
H207 C219 0.929 . S
H208 C222 0.930 . S
H209 C224 0.960 . S
H210 C224 0.960 . S
H211 C224 0.960 . S
C212 H204 0.929 . S
C212 C213 1.377 . S
C212 C214 1.384 . S
C213 C212 1.377 . S
C213 C219 1.390 . S
C214 H205 0.930 . S
C214 C212 1.384 . S
C214 C215 1.372 . S
C215 C214 1.372 . S
C215 C216 1.400 . S
C215 C220 1.490 . S
C216 H206 0.930 . S
C216 C215 1.400 . S
C216 C219 1.386 . S
H217 C233 0.930 . S
H218 C234 0.931 . S
C219 H207 0.929 . S
C219 C213 1.390 . S
C219 C216 1.386 . S
C220 C215 1.490 . S
C220 C222 1.395 . S
C220 C223 1.403 . S
H221 C227 0.930 . S
C222 H208 0.930 . S
C222 C220 1.395 . S
C222 C225 1.403 . S
C223 C220 1.403 . S
C223 C224 1.524 . S
C223 C227 1.400 . S
C224 H209 0.960 . S
C224 H210 0.960 . S
C224 H211 0.960 . S
C224 C223 1.524 . S
C225 C222 1.403 . S
C225 C226 1.392 . S
C225 C229 1.495 . S
C226 C225 1.392 . S
C226 C227 1.385 . S
C226 C228 1.478 . S
C227 H221 0.930 . S
C227 C223 1.400 . S
C227 C226 1.385 . S
C228 C226 1.478 . S
C228 C230 1.381 . S
C228 C234 1.383 . S
C229 C225 1.495 . S
C229 H235 0.959 . S
C229 H236 0.961 . S
C229 H237 0.960 . S
C230 C228 1.381 . S
C230 C231 1.394 . S
C230 H238 0.930 . S
C231 C230 1.394 . S
C231 C232 1.383 . S
C231 H239 0.929 . S
C232 C231 1.383 . S
C232 C233 1.377 . S
C233 H217 0.930 . S
C233 C232 1.377 . S
C233 C234 1.379 . S
C234 H218 0.931 . S
C234 C228 1.383 . S
C234 C233 1.379 . S
H235 C229 0.959 . S
H236 C229 0.961 . S
H237 C229 0.960 . S
H238 C230 0.930 . S
H239 C231 0.929 . S
H240 C248 0.929 . S
H241 C250 0.930 . S
H242 C252 0.930 . S
H243 C255 0.929 . S
H244 C258 0.930 . S
H245 C260 0.960 . S
H246 C260 0.960 . S
H247 C260 0.960 . S
C248 H240 0.929 . S
C248 C249 1.377 . S
C248 C250 1.384 . S
C249 C248 1.377 . S
C249 C255 1.390 . S
C250 H241 0.930 . S
C250 C248 1.384 . S
C250 C251 1.372 . S
C251 C250 1.372 . S
C251 C252 1.400 . S
C251 C256 1.490 . S
C252 H242 0.930 . S
C252 C251 1.400 . S
C252 C255 1.386 . S
H253 C269 0.930 . S
H254 C270 0.931 . S
C255 H243 0.929 . S
C255 C249 1.390 . S
C255 C252 1.386 . S
C256 C251 1.490 . S
C256 C258 1.395 . S
C256 C259 1.403 . S
H257 C263 0.930 . S
C258 H244 0.930 . S
C258 C256 1.395 . S
C258 C261 1.403 . S
C259 C256 1.403 . S
C259 C260 1.524 . S
C259 C263 1.400 . S
C260 H245 0.960 . S
C260 H246 0.960 . S
C260 H247 0.960 . S
C260 C259 1.524 . S
C261 C258 1.403 . S
C261 C262 1.392 . S
C261 C265 1.495 . S
C262 C261 1.392 . S
C262 C263 1.385 . S
C262 C264 1.478 . S
C263 H257 0.930 . S
C263 C259 1.400 . S
C263 C262 1.385 . S
C264 C262 1.478 . S
C264 C266 1.381 . S
C264 C270 1.383 . S
C265 C261 1.495 . S
C265 H271 0.959 . S
C265 H272 0.961 . S
C265 H273 0.960 . S
C266 C264 1.381 . S
C266 C267 1.394 . S
C266 H274 0.930 . S
C267 C266 1.394 . S
C267 C268 1.383 . S
C267 H275 0.929 . S
C268 C267 1.383 . S
C268 C269 1.377 . S
C269 H253 0.930 . S
C269 C268 1.377 . S
C269 C270 1.379 . S
C270 H254 0.931 . S
C270 C264 1.383 . S
C270 C269 1.379 . S
H271 C265 0.959 . S
H272 C265 0.961 . S
H273 C265 0.960 . S
H274 C266 0.930 . S
H275 C267 0.929 . S
H276 C284 0.929 . S
H277 C286 0.930 . S
H278 C288 0.930 . S
H279 C291 0.929 . S
H280 C294 0.930 . S
H281 C296 0.960 . S
H282 C296 0.960 . S
H283 C296 0.960 . S
C284 H276 0.929 . S
C284 C285 1.377 . S
C284 C286 1.384 . S
C285 C284 1.377 . S
C285 C291 1.390 . S
C286 H277 0.930 . S
C286 C284 1.384 . S
C286 C287 1.372 . S
C287 C286 1.372 . S
C287 C288 1.400 . S
C287 C292 1.490 . S
C288 H278 0.930 . S
C288 C287 1.400 . S
C288 C291 1.386 . S
H289 C305 0.930 . S
H290 C306 0.931 . S
C291 H279 0.929 . S
C291 C285 1.390 . S
C291 C288 1.386 . S
C292 C287 1.490 . S
C292 C294 1.395 . S
C292 C295 1.403 . S
H293 C299 0.930 . S
C294 H280 0.930 . S
C294 C292 1.395 . S
C294 C297 1.403 . S
C295 C292 1.403 . S
C295 C296 1.524 . S
C295 C299 1.400 . S
C296 H281 0.960 . S
C296 H282 0.960 . S
C296 H283 0.960 . S
C296 C295 1.524 . S
C297 C294 1.403 . S
C297 C298 1.392 . S
C297 C301 1.495 . S
C298 C297 1.392 . S
C298 C299 1.385 . S
C298 C300 1.478 . S
C299 H293 0.930 . S
C299 C295 1.400 . S
C299 C298 1.385 . S
C300 C298 1.478 . S
C300 C302 1.381 . S
C300 C306 1.383 1_655 S
C301 C297 1.495 . S
C301 H307 0.959 . S
C301 H308 0.961 . S
C301 H309 0.960 . S
C302 C300 1.381 . S
C302 C303 1.394 . S
C302 H310 0.930 . S
C303 C302 1.394 . S
C303 C304 1.383 1_655 S
C303 H311 0.929 . S
C304 C303 1.383 1_455 S
C304 C305 1.377 . S
C305 H289 0.930 . S
C305 C304 1.377 . S
C305 C306 1.379 . S
C306 H290 0.931 . S
C306 C300 1.383 1_455 S
C306 C305 1.379 . S
H307 C301 0.959 . S
H308 C301 0.961 . S
H309 C301 0.960 . S
H310 C302 0.930 . S
H311 C303 0.929 . S
H312 C320 0.929 . S
H313 C322 0.930 . S
H314 C324 0.930 . S
H315 C327 0.929 . S
H316 C330 0.930 . S
H317 C332 0.960 . S
H318 C332 0.960 . S
H319 C332 0.960 . S
C320 H312 0.929 . S
C320 C321 1.377 . S
C320 C322 1.384 . S
C321 C320 1.377 . S
C321 C327 1.390 . S
C322 H313 0.930 . S
C322 C320 1.384 . S
C322 C323 1.372 . S
C323 C322 1.372 . S
C323 C324 1.400 . S
C323 C328 1.490 . S
C324 H314 0.930 . S
C324 C323 1.400 . S
C324 C327 1.386 . S
H325 C341 0.930 . S
H326 C342 0.931 . S
C327 H315 0.929 . S
C327 C321 1.390 . S
C327 C324 1.386 . S
C328 C323 1.490 . S
C328 C330 1.395 . S
C328 C331 1.403 . S
H329 C335 0.930 . S
C330 H316 0.930 . S
C330 C328 1.395 . S
C330 C333 1.403 . S
C331 C328 1.403 . S
C331 C332 1.524 . S
C331 C335 1.400 . S
C332 H317 0.960 . S
C332 H318 0.960 . S
C332 H319 0.960 . S
C332 C331 1.524 . S
C333 C330 1.403 . S
C333 C334 1.392 . S
C333 C337 1.495 . S
C334 C333 1.392 . S
C334 C335 1.385 . S
C334 C336 1.478 . S
C335 H329 0.930 . S
C335 C331 1.400 . S
C335 C334 1.385 . S
C336 C334 1.478 . S
C336 C338 1.381 . S
C336 C342 1.383 . S
C337 C333 1.495 . S
C337 H343 0.959 . S
C337 H344 0.961 . S
C337 H345 0.960 . S
C338 C336 1.381 . S
C338 C339 1.394 . S
C338 H346 0.930 . S
C339 C338 1.394 . S
C339 C340 1.383 . S
C339 H347 0.929 . S
C340 C339 1.383 . S
C340 C341 1.377 . S
C341 H325 0.930 . S
C341 C340 1.377 . S
C341 C342 1.379 . S
C342 H326 0.931 . S
C342 C336 1.383 . S
C342 C341 1.379 . S
H343 C337 0.959 . S
H344 C337 0.961 . S
H345 C337 0.960 . S
H346 C338 0.930 . S
H347 C339 0.929 . S
H348 C356 0.929 . S
H349 C358 0.930 . S
H350 C360 0.930 . S
H351 C363 0.929 . S
H352 C366 0.930 . S
H353 C368 0.960 . S
H354 C368 0.960 . S
H355 C368 0.960 . S
C356 H348 0.929 . S
C356 C357 1.377 . S
C356 C358 1.384 . S
C357 C356 1.377 . S
C357 C363 1.390 . S
C358 H349 0.930 . S
C358 C356 1.384 . S
C358 C359 1.372 . S
C359 C358 1.372 . S
C359 C360 1.400 . S
C359 C364 1.490 . S
C360 H350 0.930 . S
C360 C359 1.400 . S
C360 C363 1.386 . S
H361 C377 0.930 . S
H362 C378 0.931 . S
C363 H351 0.929 . S
C363 C357 1.390 . S
C363 C360 1.386 . S
C364 C359 1.490 . S
C364 C366 1.395 . S
C364 C367 1.403 . S
H365 C371 0.930 . S
C366 H352 0.930 . S
C366 C364 1.395 . S
C366 C369 1.403 . S
C367 C364 1.403 . S
C367 C368 1.524 . S
C367 C371 1.400 . S
C368 H353 0.960 . S
C368 H354 0.960 . S
C368 H355 0.960 . S
C368 C367 1.524 . S
C369 C366 1.403 . S
C369 C370 1.392 . S
C369 C373 1.495 . S
C370 C369 1.392 . S
C370 C371 1.385 . S
C370 C372 1.478 . S
C371 H365 0.930 . S
C371 C367 1.400 . S
C371 C370 1.385 . S
C372 C370 1.478 . S
C372 C374 1.381 . S
C372 C378 1.383 . S
C373 C369 1.495 . S
C373 H379 0.959 . S
C373 H380 0.961 . S
C373 H381 0.960 1_565 S
C374 C372 1.381 . S
C374 C375 1.394 . S
C374 H382 0.930 . S
C375 C374 1.394 . S
C375 C376 1.383 . S
C375 H383 0.929 1_565 S
C376 C375 1.383 . S
C376 C377 1.377 . S
C377 H361 0.930 . S
C377 C376 1.377 . S
C377 C378 1.379 . S
C378 H362 0.931 . S
C378 C372 1.383 . S
C378 C377 1.379 . S
H379 C373 0.959 . S
H380 C373 0.961 . S
H381 C373 0.960 1_545 S
H382 C374 0.930 . S
H383 C375 0.929 1_545 S
H384 C392 0.929 . S
H385 C394 0.930 . S
H386 C396 0.930 . S
H387 C399 0.929 . S
H388 C402 0.930 . S
H389 C404 0.960 . S
H390 C404 0.960 . S
H391 C404 0.960 . S
C392 H384 0.929 . S
C392 C393 1.377 . S
C392 C394 1.384 . S
C393 C392 1.377 . S
C393 C399 1.390 . S
C394 H385 0.930 . S
C394 C392 1.384 . S
C394 C395 1.372 . S
C395 C394 1.372 . S
C395 C396 1.400 . S
C395 C400 1.490 . S
C396 H386 0.930 . S
C396 C395 1.400 . S
C396 C399 1.386 . S
H397 C413 0.930 . S
H398 C414 0.931 . S
C399 H387 0.929 . S
C399 C393 1.390 . S
C399 C396 1.386 . S
C400 C395 1.490 . S
C400 C402 1.395 . S
C400 C403 1.403 . S
H401 C407 0.930 . S
C402 H388 0.930 . S
C402 C400 1.395 . S
C402 C405 1.403 . S
C403 C400 1.403 . S
C403 C404 1.524 . S
C403 C407 1.400 . S
C404 H389 0.960 . S
C404 H390 0.960 . S
C404 H391 0.960 . S
C404 C403 1.524 . S
C405 C402 1.403 . S
C405 C406 1.392 . S
C405 C409 1.495 . S
C406 C405 1.392 . S
C406 C407 1.385 . S
C406 C408 1.478 . S
C407 H401 0.930 . S
C407 C403 1.400 . S
C407 C406 1.385 . S
C408 C406 1.478 . S
C408 C410 1.381 . S
C408 C414 1.383 . S
C409 C405 1.495 . S
C409 H415 0.959 . S
C409 H416 0.961 . S
C409 H417 0.960 . S
C410 C408 1.381 . S
C410 C411 1.394 . S
C410 H418 0.930 . S
C411 C410 1.394 . S
C411 C412 1.383 . S
C411 H419 0.929 . S
C412 C411 1.383 . S
C412 C413 1.377 . S
C413 H397 0.930 . S
C413 C412 1.377 . S
C413 C414 1.379 . S
C414 H398 0.931 . S
C414 C408 1.383 . S
C414 C413 1.379 . S
H415 C409 0.959 . S
H416 C409 0.961 . S
H417 C409 0.960 . S
H418 C410 0.930 . S
H419 C411 0.929 . S
H420 C428 0.929 . S
H421 C430 0.930 . S
H422 C432 0.930 . S
H423 C435 0.929 . S
H424 C438 0.930 . S
H425 C440 0.960 . S
H426 C440 0.960 . S
H427 C440 0.960 . S
C428 H420 0.929 . S
C428 C429 1.377 . S
C428 C430 1.384 . S
C429 C428 1.377 . S
C429 C435 1.390 . S
C430 H421 0.930 . S
C430 C428 1.384 . S
C430 C431 1.372 . S
C431 C430 1.372 . S
C431 C432 1.400 . S
C431 C436 1.490 . S
C432 H422 0.930 . S
C432 C431 1.400 . S
C432 C435 1.386 . S
H433 C449 0.930 . S
H434 C450 0.931 . S
C435 H423 0.929 . S
C435 C429 1.390 . S
C435 C432 1.386 . S
C436 C431 1.490 . S
C436 C438 1.395 . S
C436 C439 1.403 . S
H437 C443 0.930 . S
C438 H424 0.930 . S
C438 C436 1.395 . S
C438 C441 1.403 . S
C439 C436 1.403 . S
C439 C440 1.524 . S
C439 C443 1.400 . S
C440 H425 0.960 . S
C440 H426 0.960 . S
C440 H427 0.960 . S
C440 C439 1.524 . S
C441 C438 1.403 . S
C441 C442 1.392 . S
C441 C445 1.495 . S
C442 C441 1.392 . S
C442 C443 1.385 . S
C442 C444 1.478 . S
C443 H437 0.930 . S
C443 C439 1.400 . S
C443 C442 1.385 . S
C444 C442 1.478 . S
C444 C446 1.381 . S
C444 C450 1.383 . S
C445 C441 1.495 . S
C445 H451 0.959 . S
C445 H452 0.961 . S
C445 H453 0.960 . S
C446 C444 1.381 . S
C446 C447 1.394 . S
C446 H454 0.930 . S
C447 C446 1.394 . S
C447 C448 1.383 . S
C447 H455 0.929 . S
C448 C447 1.383 . S
C448 C449 1.377 . S
C449 H433 0.930 . S
C449 C448 1.377 . S
C449 C450 1.379 . S
C450 H434 0.931 . S
C450 C444 1.383 . S
C450 C449 1.379 . S
H451 C445 0.959 . S
H452 C445 0.961 . S
H453 C445 0.960 . S
H454 C446 0.930 . S
H455 C447 0.929 . S
H456 C464 0.929 . S
H457 C466 0.930 . S
H458 C468 0.930 . S
H459 C471 0.929 . S
H460 C474 0.930 . S
H461 C476 0.960 . S
H462 C476 0.960 . S
H463 C476 0.960 . S
C464 H456 0.929 . S
C464 C465 1.377 . S
C464 C466 1.384 . S
C465 C464 1.377 . S
C465 C471 1.390 . S
C466 H457 0.930 . S
C466 C464 1.384 . S
C466 C467 1.372 . S
C467 C466 1.372 . S
C467 C468 1.400 . S
C467 C472 1.490 . S
C468 H458 0.930 . S
C468 C467 1.400 . S
C468 C471 1.386 . S
H469 C485 0.930 . S
H470 C486 0.931 . S
C471 H459 0.929 . S
C471 C465 1.390 . S
C471 C468 1.386 . S
C472 C467 1.490 . S
C472 C474 1.395 . S
C472 C475 1.403 . S
H473 C479 0.930 . S
C474 H460 0.930 . S
C474 C472 1.395 . S
C474 C477 1.403 . S
C475 C472 1.403 . S
C475 C476 1.524 . S
C475 C479 1.400 . S
C476 H461 0.960 . S
C476 H462 0.960 . S
C476 H463 0.960 . S
C476 C475 1.524 . S
C477 C474 1.403 . S
C477 C478 1.392 . S
C477 C481 1.495 . S
C478 C477 1.392 . S
C478 C479 1.385 . S
C478 C480 1.478 . S
C479 H473 0.930 . S
C479 C475 1.400 . S
C479 C478 1.385 . S
C480 C478 1.478 . S
C480 C482 1.381 . S
C480 C486 1.383 . S
C481 C477 1.495 . S
C481 H487 0.959 . S
C481 H488 0.961 . S
C481 H489 0.960 . S
C482 C480 1.381 . S
C482 C483 1.394 . S
C482 H490 0.930 . S
C483 C482 1.394 . S
C483 C484 1.383 . S
C483 H491 0.929 . S
C484 C483 1.383 . S
C484 C485 1.377 . S
C485 H469 0.930 . S
C485 C484 1.377 . S
C485 C486 1.379 . S
C486 H470 0.931 . S
C486 C480 1.383 . S
C486 C485 1.379 . S
H487 C481 0.959 . S
H488 C481 0.961 . S
H489 C481 0.960 . S
H490 C482 0.930 . S
H491 C483 0.929 . S
H492 C500 0.929 . S
H493 C502 0.930 . S
H494 C504 0.930 . S
H495 C507 0.929 . S
H496 C510 0.930 . S
H497 C512 0.960 . S
H498 C512 0.960 . S
H499 C512 0.960 . S
C500 H492 0.929 . S
C500 C501 1.377 . S
C500 C502 1.384 . S
C501 C500 1.377 . S
C501 C507 1.390 . S
C502 H493 0.930 . S
C502 C500 1.384 . S
C502 C503 1.372 . S
C503 C502 1.372 . S
C503 C504 1.400 . S
C503 C508 1.490 . S
C504 H494 0.930 . S
C504 C503 1.400 . S
C504 C507 1.386 . S
H505 C521 0.930 . S
H506 C522 0.931 . S
C507 H495 0.929 . S
C507 C501 1.390 . S
C507 C504 1.386 . S
C508 C503 1.490 . S
C508 C510 1.395 . S
C508 C511 1.403 . S
H509 C515 0.930 . S
C510 H496 0.930 . S
C510 C508 1.395 . S
C510 C513 1.403 . S
C511 C508 1.403 . S
C511 C512 1.524 . S
C511 C515 1.400 . S
C512 H497 0.960 . S
C512 H498 0.960 . S
C512 H499 0.960 . S
C512 C511 1.524 . S
C513 C510 1.403 . S
C513 C514 1.392 . S
C513 C517 1.495 . S
C514 C513 1.392 . S
C514 C515 1.385 . S
C514 C516 1.478 . S
C515 H509 0.930 . S
C515 C511 1.400 . S
C515 C514 1.385 . S
C516 C514 1.478 . S
C516 C518 1.381 . S
C516 C522 1.383 . S
C517 C513 1.495 . S
C517 H523 0.959 . S
C517 H524 0.961 . S
C517 H525 0.960 . S
C518 C516 1.381 . S
C518 C519 1.394 . S
C518 H526 0.930 . S
C519 C518 1.394 . S
C519 C520 1.383 1_556 S
C519 H527 0.929 . S
C520 C519 1.383 1_554 S
C520 C521 1.377 . S
C521 H505 0.930 . S
C521 C520 1.377 . S
C521 C522 1.379 1_554 S
C522 H506 0.931 . S
C522 C516 1.383 . S
C522 C521 1.379 1_556 S
H523 C517 0.959 . S
H524 C517 0.961 . S
H525 C517 0.960 . S
H526 C518 0.930 . S
H527 C519 0.929 . S
H528 C536 0.929 . S
H529 C538 0.930 . S
H530 C540 0.930 . S
H531 C543 0.929 . S
H532 C546 0.930 . S
H533 C548 0.960 . S
H534 C548 0.960 . S
H535 C548 0.960 . S
C536 H528 0.929 . S
C536 C537 1.377 . S
C536 C538 1.384 . S
C537 C536 1.377 . S
C537 C543 1.390 . S
C538 H529 0.930 . S
C538 C536 1.384 . S
C538 C539 1.372 . S
C539 C538 1.372 . S
C539 C540 1.400 . S
C539 C544 1.490 . S
C540 H530 0.930 . S
C540 C539 1.400 . S
C540 C543 1.386 . S
H541 C557 0.930 . S
H542 C558 0.931 . S
C543 H531 0.929 . S
C543 C537 1.390 . S
C543 C540 1.386 . S
C544 C539 1.490 . S
C544 C546 1.395 . S
C544 C547 1.403 . S
H545 C551 0.930 . S
C546 H532 0.930 . S
C546 C544 1.395 . S
C546 C549 1.403 . S
C547 C544 1.403 . S
C547 C548 1.524 . S
C547 C551 1.400 . S
C548 H533 0.960 . S
C548 H534 0.960 . S
C548 H535 0.960 . S
C548 C547 1.524 . S
C549 C546 1.403 . S
C549 C550 1.392 . S
C549 C553 1.495 . S
C550 C549 1.392 . S
C550 C551 1.385 . S
C550 C552 1.478 . S
C551 H545 0.930 . S
C551 C547 1.400 . S
C551 C550 1.385 . S
C552 C550 1.478 . S
C552 C554 1.381 . S
C552 C558 1.383 . S
C553 C549 1.495 . S
C553 H559 0.959 . S
C553 H560 0.961 . S
C553 H561 0.960 . S
C554 C552 1.381 . S
C554 C555 1.394 . S
C554 H562 0.930 . S
C555 C554 1.394 . S
C555 C556 1.383 . S
C555 H563 0.929 . S
C556 C555 1.383 . S
C556 C557 1.377 . S
C557 H541 0.930 . S
C557 C556 1.377 . S
C557 C558 1.379 . S
C558 H542 0.931 . S
C558 C552 1.383 . S
C558 C557 1.379 . S
H559 C553 0.959 . S
H560 C553 0.961 . S
H561 C553 0.960 . S
H562 C554 0.930 . S
H563 C555 0.929 . S
H564 C572 0.929 . S
H565 C574 0.930 . S
H566 C576 0.930 . S
H567 C579 0.929 . S
H568 C582 0.930 . S
H569 C584 0.960 . S
H570 C584 0.960 . S
H571 C584 0.960 . S
C572 H564 0.929 . S
C572 C573 1.377 . S
C572 C574 1.384 . S
C573 C572 1.377 . S
C573 C579 1.390 . S
C574 H565 0.930 . S
C574 C572 1.384 . S
C574 C575 1.372 . S
C575 C574 1.372 . S
C575 C576 1.400 . S
C575 C580 1.490 . S
C576 H566 0.930 . S
C576 C575 1.400 . S
C576 C579 1.386 . S
H577 C593 0.930 . S
H578 C594 0.931 . S
C579 H567 0.929 . S
C579 C573 1.390 . S
C579 C576 1.386 . S
C580 C575 1.490 . S
C580 C582 1.395 . S
C580 C583 1.403 . S
H581 C587 0.930 . S
C582 H568 0.930 . S
C582 C580 1.395 . S
C582 C585 1.403 . S
C583 C580 1.403 . S
C583 C584 1.524 . S
C583 C587 1.400 . S
C584 H569 0.960 . S
C584 H570 0.960 . S
C584 H571 0.960 . S
C584 C583 1.524 . S
C585 C582 1.403 . S
C585 C586 1.392 . S
C585 C589 1.495 . S
C586 C585 1.392 . S
C586 C587 1.385 . S
C586 C588 1.478 . S
C587 H581 0.930 . S
C587 C583 1.400 . S
C587 C586 1.385 . S
C588 C586 1.478 . S
C588 C590 1.381 . S
C588 C594 1.383 . S
C589 C585 1.495 . S
C589 H595 0.959 . S
C589 H596 0.961 . S
C589 H597 0.960 . S
C590 C588 1.381 . S
C590 C591 1.394 . S
C590 H598 0.930 . S
C591 C590 1.394 . S
C591 C592 1.383 . S
C591 H599 0.929 . S
C592 C591 1.383 . S
C592 C593 1.377 . S
C593 H577 0.930 . S
C593 C592 1.377 . S
C593 C594 1.379 . S
C594 H578 0.931 . S
C594 C588 1.383 . S
C594 C593 1.379 . S
H595 C589 0.959 . S
H596 C589 0.961 . S
H597 C589 0.960 . S
H598 C590 0.930 . S
H599 C591 0.929 . S
H600 C608 0.929 . S
H601 C610 0.930 . S
H602 C612 0.930 . S
H603 C615 0.929 . S
H604 C618 0.930 . S
H605 C620 0.960 . S
H606 C620 0.960 . S
H607 C620 0.960 . S
C608 H600 0.929 . S
C608 C609 1.377 . S
C608 C610 1.384 . S
C609 C608 1.377 . S
C609 C615 1.390 . S
C610 H601 0.930 . S
C610 C608 1.384 . S
C610 C611 1.372 . S
C611 C610 1.372 . S
C611 C612 1.400 . S
C611 C616 1.490 . S
C612 H602 0.930 . S
C612 C611 1.400 . S
C612 C615 1.386 . S
H613 C629 0.930 . S
H614 C630 0.931 . S
C615 H603 0.929 . S
C615 C609 1.390 . S
C615 C612 1.386 . S
C616 C611 1.490 . S
C616 C618 1.395 . S
C616 C619 1.403 . S
H617 C623 0.930 . S
C618 H604 0.930 . S
C618 C616 1.395 . S
C618 C621 1.403 . S
C619 C616 1.403 . S
C619 C620 1.524 . S
C619 C623 1.400 . S
C620 H605 0.960 . S
C620 H606 0.960 . S
C620 H607 0.960 . S
C620 C619 1.524 . S
C621 C618 1.403 . S
C621 C622 1.392 . S
C621 C625 1.495 . S
C622 C621 1.392 . S
C622 C623 1.385 . S
C622 C624 1.478 . S
C623 H617 0.930 . S
C623 C619 1.400 . S
C623 C622 1.385 . S
C624 C622 1.478 . S
C624 C626 1.381 . S
C624 C630 1.383 . S
C625 C621 1.495 . S
C625 H631 0.959 . S
C625 H632 0.961 . S
C625 H633 0.960 . S
C626 C624 1.381 . S
C626 C627 1.394 . S
C626 H634 0.930 . S
C627 C626 1.394 . S
C627 C628 1.383 . S
C627 H635 0.929 1_565 S
C628 C627 1.383 . S
C628 C629 1.377 . S
C629 H613 0.930 . S
C629 C628 1.377 . S
C629 C630 1.379 . S
C630 H614 0.931 . S
C630 C624 1.383 . S
C630 C629 1.379 . S
H631 C625 0.959 . S
H632 C625 0.961 . S
H633 C625 0.960 . S
H634 C626 0.930 . S
H635 C627 0.929 1_545 S
H636 C644 0.929 . S
H637 C646 0.930 . S
H638 C648 0.930 . S
H639 C651 0.929 . S
H640 C654 0.930 . S
H641 C656 0.960 . S
H642 C656 0.960 . S
H643 C656 0.960 . S
C644 H636 0.929 . S
C644 C645 1.377 . S
C644 C646 1.384 . S
C645 C644 1.377 . S
C645 C651 1.390 . S
C646 H637 0.930 . S
C646 C644 1.384 . S
C646 C647 1.372 . S
C647 C646 1.372 . S
C647 C648 1.400 . S
C647 C652 1.490 . S
C648 H638 0.930 . S
C648 C647 1.400 . S
C648 C651 1.386 . S
H649 C665 0.930 . S
H650 C666 0.931 . S
C651 H639 0.929 . S
C651 C645 1.390 . S
C651 C648 1.386 . S
C652 C647 1.490 . S
C652 C654 1.395 . S
C652 C655 1.403 . S
H653 C659 0.930 . S
C654 H640 0.930 . S
C654 C652 1.395 . S
C654 C657 1.403 . S
C655 C652 1.403 . S
C655 C656 1.524 . S
C655 C659 1.400 . S
C656 H641 0.960 . S
C656 H642 0.960 . S
C656 H643 0.960 . S
C656 C655 1.524 . S
C657 C654 1.403 . S
C657 C658 1.392 . S
C657 C661 1.495 . S
C658 C657 1.392 . S
C658 C659 1.385 . S
C658 C660 1.478 . S
C659 H653 0.930 . S
C659 C655 1.400 . S
C659 C658 1.385 . S
C660 C658 1.478 . S
C660 C662 1.381 . S
C660 C666 1.383 . S
C661 C657 1.495 . S
C661 H667 0.959 . S
C661 H668 0.961 . S
C661 H669 0.960 . S
C662 C660 1.381 . S
C662 C663 1.394 . S
C662 H670 0.930 . S
C663 C662 1.394 . S
C663 C664 1.383 . S
C663 H671 0.929 . S
C664 C663 1.383 . S
C664 C665 1.377 . S
C665 H649 0.930 . S
C665 C664 1.377 . S
C665 C666 1.379 . S
C666 H650 0.931 . S
C666 C660 1.383 . S
C666 C665 1.379 . S
H667 C661 0.959 . S
H668 C661 0.961 . S
H669 C661 0.960 . S
H670 C662 0.930 . S
H671 C663 0.929 . S
H672 C680 0.929 . S
H673 C682 0.930 . S
H674 C684 0.930 . S
H675 C687 0.929 . S
H676 C690 0.930 . S
H677 C692 0.960 . S
H678 C692 0.960 . S
H679 C692 0.960 . S
C680 H672 0.929 . S
C680 C681 1.377 . S
C680 C682 1.384 . S
C681 C680 1.377 . S
C681 C687 1.390 . S
C682 H673 0.930 . S
C682 C680 1.384 . S
C682 C683 1.372 . S
C683 C682 1.372 . S
C683 C684 1.400 . S
C683 C688 1.490 . S
C684 H674 0.930 . S
C684 C683 1.400 . S
C684 C687 1.386 . S
H685 C701 0.930 . S
H686 C702 0.931 . S
C687 H675 0.929 . S
C687 C681 1.390 . S
C687 C684 1.386 . S
C688 C683 1.490 . S
C688 C690 1.395 . S
C688 C691 1.403 . S
H689 C695 0.930 . S
C690 H676 0.930 . S
C690 C688 1.395 . S
C690 C693 1.403 . S
C691 C688 1.403 . S
C691 C692 1.524 . S
C691 C695 1.400 . S
C692 H677 0.960 . S
C692 H678 0.960 . S
C692 H679 0.960 . S
C692 C691 1.524 . S
C693 C690 1.403 . S
C693 C694 1.392 . S
C693 C697 1.495 . S
C694 C693 1.392 . S
C694 C695 1.385 . S
C694 C696 1.478 . S
C695 H689 0.930 . S
C695 C691 1.400 . S
C695 C694 1.385 . S
C696 C694 1.478 . S
C696 C698 1.381 . S
C696 C702 1.383 . S
C697 C693 1.495 . S
C697 H703 0.959 . S
C697 H704 0.961 . S
C697 H705 0.960 . S
C698 C696 1.381 . S
C698 C699 1.394 . S
C698 H706 0.930 . S
C699 C698 1.394 . S
C699 C700 1.383 . S
C699 H707 0.929 . S
C700 C699 1.383 . S
C700 C701 1.377 . S
C701 H685 0.930 . S
C701 C700 1.377 . S
C701 C702 1.379 . S
C702 H686 0.931 . S
C702 C696 1.383 . S
C702 C701 1.379 . S
H703 C697 0.959 . S
H704 C697 0.961 . S
H705 C697 0.960 . S
H706 C698 0.930 . S
H707 C699 0.929 . S
H708 C716 0.929 . S
H709 C718 0.930 . S
H710 C720 0.930 . S
H711 C723 0.929 . S
H712 C726 0.930 . S
H713 C728 0.960 . S
H714 C728 0.960 . S
H715 C728 0.960 . S
C716 H708 0.929 . S
C716 C717 1.377 . S
C716 C718 1.384 . S
C717 C716 1.377 . S
C717 C723 1.390 . S
C718 H709 0.930 . S
C718 C716 1.384 . S
C718 C719 1.372 . S
C719 C718 1.372 . S
C719 C720 1.400 . S
C719 C724 1.490 . S
C720 H710 0.930 . S
C720 C719 1.400 . S
C720 C723 1.386 . S
H721 C737 0.930 . S
H722 C738 0.931 . S
C723 H711 0.929 . S
C723 C717 1.390 . S
C723 C720 1.386 . S
C724 C719 1.490 . S
C724 C726 1.395 . S
C724 C727 1.403 . S
H725 C731 0.930 . S
C726 H712 0.930 . S
C726 C724 1.395 . S
C726 C729 1.403 . S
C727 C724 1.403 . S
C727 C728 1.524 . S
C727 C731 1.400 . S
C728 H713 0.960 . S
C728 H714 0.960 . S
C728 H715 0.960 . S
C728 C727 1.524 . S
C729 C726 1.403 . S
C729 C730 1.392 . S
C729 C733 1.495 . S
C730 C729 1.392 . S
C730 C731 1.385 . S
C730 C732 1.478 . S
C731 H725 0.930 . S
C731 C727 1.400 . S
C731 C730 1.385 . S
C732 C730 1.478 . S
C732 C734 1.381 . S
C732 C738 1.383 . S
C733 C729 1.495 . S
C733 H739 0.959 . S
C733 H740 0.961 . S
C733 H741 0.960 . S
C734 C732 1.381 . S
C734 C735 1.394 . S
C734 H742 0.930 . S
C735 C734 1.394 . S
C735 C736 1.383 . S
C735 H743 0.929 . S
C736 C735 1.383 . S
C736 C737 1.377 . S
C737 H721 0.930 . S
C737 C736 1.377 . S
C737 C738 1.379 . S
C738 H722 0.931 . S
C738 C732 1.383 . S
C738 C737 1.379 . S
H739 C733 0.959 . S
H740 C733 0.961 . S
H741 C733 0.960 . S
H742 C734 0.930 . S
H743 C735 0.929 . S
H744 C752 0.929 . S
H745 C754 0.930 . S
H746 C756 0.930 . S
H747 C759 0.929 . S
H748 C762 0.930 . S
H749 C764 0.960 . S
H750 C764 0.960 . S
H751 C764 0.960 . S
C752 H744 0.929 . S
C752 C753 1.377 . S
C752 C754 1.384 . S
C753 C752 1.377 . S
C753 C759 1.390 . S
C754 H745 0.930 . S
C754 C752 1.384 . S
C754 C755 1.372 . S
C755 C754 1.372 . S
C755 C756 1.400 . S
C755 C760 1.490 . S
C756 H746 0.930 . S
C756 C755 1.400 . S
C756 C759 1.386 . S
H757 C773 0.930 1_554 S
H758 C774 0.931 . S
C759 H747 0.929 . S
C759 C753 1.390 . S
C759 C756 1.386 . S
C760 C755 1.490 . S
C760 C762 1.395 . S
C760 C763 1.403 . S
H761 C767 0.930 . S
C762 H748 0.930 . S
C762 C760 1.395 . S
C762 C765 1.403 . S
C763 C760 1.403 . S
C763 C764 1.524 . S
C763 C767 1.400 . S
C764 H749 0.960 . S
C764 H750 0.960 . S
C764 H751 0.960 . S
C764 C763 1.524 . S
C765 C762 1.403 . S
C765 C766 1.392 . S
C765 C769 1.495 . S
C766 C765 1.392 . S
C766 C767 1.385 . S
C766 C768 1.478 . S
C767 H761 0.930 . S
C767 C763 1.400 . S
C767 C766 1.385 . S
C768 C766 1.478 . S
C768 C770 1.381 . S
C768 C774 1.383 . S
C769 C765 1.495 . S
C769 H775 0.959 . S
C769 H776 0.961 . S
C769 H777 0.960 . S
C770 C768 1.381 . S
C770 C771 1.394 . S
C770 H778 0.930 . S
C771 C770 1.394 . S
C771 C772 1.383 . S
C771 H779 0.929 . S
C772 C771 1.383 . S
C772 C773 1.377 . S
C773 H757 0.930 1_556 S
C773 C772 1.377 . S
C773 C774 1.379 . S
C774 H758 0.931 . S
C774 C768 1.383 . S
C774 C773 1.379 . S
H775 C769 0.959 . S
H776 C769 0.961 . S
H777 C769 0.960 . S
H778 C770 0.930 . S
H779 C771 0.929 . S
H780 C788 0.929 . S
H781 C790 0.930 . S
H782 C792 0.930 . S
H783 C795 0.929 . S
H784 C798 0.930 . S
H785 C800 0.960 . S
H786 C800 0.960 . S
H787 C800 0.960 . S
C788 H780 0.929 . S
C788 C789 1.377 . S
C788 C790 1.384 . S
C789 C788 1.377 . S
C789 C795 1.390 . S
C790 H781 0.930 . S
C790 C788 1.384 . S
C790 C791 1.372 . S
C791 C790 1.372 . S
C791 C792 1.400 . S
C791 C796 1.490 . S
C792 H782 0.930 . S
C792 C791 1.400 . S
C792 C795 1.386 . S
H793 C809 0.930 . S
H794 C810 0.931 . S
C795 H783 0.929 . S
C795 C789 1.390 . S
C795 C792 1.386 . S
C796 C791 1.490 . S
C796 C798 1.395 . S
C796 C799 1.403 . S
H797 C803 0.930 . S
C798 H784 0.930 . S
C798 C796 1.395 . S
C798 C801 1.403 . S
C799 C796 1.403 . S
C799 C800 1.524 . S
C799 C803 1.400 . S
C800 H785 0.960 . S
C800 H786 0.960 . S
C800 H787 0.960 . S
C800 C799 1.524 . S
C801 C798 1.403 . S
C801 C802 1.392 . S
C801 C805 1.495 . S
C802 C801 1.392 . S
C802 C803 1.385 . S
C802 C804 1.478 . S
C803 H797 0.930 . S
C803 C799 1.400 . S
C803 C802 1.385 . S
C804 C802 1.478 . S
C804 C806 1.381 . S
C804 C810 1.383 . S
C805 C801 1.495 . S
C805 H811 0.959 . S
C805 H812 0.961 . S
C805 H813 0.960 . S
C806 C804 1.381 . S
C806 C807 1.394 . S
C806 H814 0.930 . S
C807 C806 1.394 . S
C807 C808 1.383 . S
C807 H815 0.929 . S
C808 C807 1.383 . S
C808 C809 1.377 . S
C809 H793 0.930 . S
C809 C808 1.377 . S
C809 C810 1.379 . S
C810 H794 0.931 . S
C810 C804 1.383 . S
C810 C809 1.379 . S
H811 C805 0.959 . S
H812 C805 0.961 . S
H813 C805 0.960 . S
H814 C806 0.930 . S
H815 C807 0.929 . S
H816 C824 0.929 . S
H817 C826 0.930 . S
H818 C828 0.930 . S
H819 C831 0.929 . S
H820 C834 0.930 . S
H821 C836 0.960 . S
H822 C836 0.960 . S
H823 C836 0.960 . S
C824 H816 0.929 . S
C824 C825 1.377 . S
C824 C826 1.384 . S
C825 C824 1.377 . S
C825 C831 1.390 . S
C826 H817 0.930 . S
C826 C824 1.384 . S
C826 C827 1.372 . S
C827 C826 1.372 . S
C827 C828 1.400 . S
C827 C832 1.490 . S
C828 H818 0.930 . S
C828 C827 1.400 . S
C828 C831 1.386 . S
H829 C845 0.930 . S
H830 C846 0.931 . S
C831 H819 0.929 . S
C831 C825 1.390 . S
C831 C828 1.386 . S
C832 C827 1.490 . S
C832 C834 1.395 . S
C832 C835 1.403 . S
H833 C839 0.930 . S
C834 H820 0.930 . S
C834 C832 1.395 . S
C834 C837 1.403 . S
C835 C832 1.403 . S
C835 C836 1.524 . S
C835 C839 1.400 . S
C836 H821 0.960 . S
C836 H822 0.960 . S
C836 H823 0.960 . S
C836 C835 1.524 . S
C837 C834 1.403 . S
C837 C838 1.392 . S
C837 C841 1.495 . S
C838 C837 1.392 . S
C838 C839 1.385 . S
C838 C840 1.478 . S
C839 H833 0.930 . S
C839 C835 1.400 . S
C839 C838 1.385 . S
C840 C838 1.478 . S
C840 C842 1.381 . S
C840 C846 1.383 . S
C841 C837 1.495 . S
C841 H847 0.959 . S
C841 H848 0.961 . S
C841 H849 0.960 . S
C842 C840 1.381 . S
C842 C843 1.394 . S
C842 H850 0.930 . S
C843 C842 1.394 . S
C843 C844 1.383 . S
C843 H851 0.929 . S
C844 C843 1.383 . S
C844 C845 1.377 . S
C845 H829 0.930 . S
C845 C844 1.377 . S
C845 C846 1.379 . S
C846 H830 0.931 . S
C846 C840 1.383 . S
C846 C845 1.379 . S
H847 C841 0.959 . S
H848 C841 0.961 . S
H849 C841 0.960 . S
H850 C842 0.930 . S
H851 C843 0.929 . S
H852 C860 0.929 . S
H853 C862 0.930 . S
H854 C864 0.930 . S
H855 C867 0.929 . S
H856 C870 0.930 . S
H857 C872 0.960 . S
H858 C872 0.960 . S
H859 C872 0.960 . S
C860 H852 0.929 . S
C860 C861 1.377 . S
C860 C862 1.384 . S
C861 C860 1.377 . S
C861 C867 1.390 . S
C862 H853 0.930 . S
C862 C860 1.384 . S
C862 C863 1.372 . S
C863 C862 1.372 . S
C863 C864 1.400 . S
C863 C868 1.490 . S
C864 H854 0.930 . S
C864 C863 1.400 . S
C864 C867 1.386 . S
H865 C881 0.930 . S
H866 C882 0.931 . S
C867 H855 0.929 . S
C867 C861 1.390 . S
C867 C864 1.386 . S
C868 C863 1.490 . S
C868 C870 1.395 . S
C868 C871 1.403 . S
H869 C875 0.930 . S
C870 H856 0.930 . S
C870 C868 1.395 . S
C870 C873 1.403 . S
C871 C868 1.403 . S
C871 C872 1.524 . S
C871 C875 1.400 . S
C872 H857 0.960 . S
C872 H858 0.960 . S
C872 H859 0.960 . S
C872 C871 1.524 . S
C873 C870 1.403 . S
C873 C874 1.392 . S
C873 C877 1.495 . S
C874 C873 1.392 . S
C874 C875 1.385 . S
C874 C876 1.478 . S
C875 H869 0.930 . S
C875 C871 1.400 . S
C875 C874 1.385 . S
C876 C874 1.478 . S
C876 C878 1.381 . S
C876 C882 1.383 . S
C877 C873 1.495 . S
C877 H883 0.959 . S
C877 H884 0.961 . S
C877 H885 0.960 . S
C878 C876 1.381 . S
C878 C879 1.394 . S
C878 H886 0.930 . S
C879 C878 1.394 . S
C879 C880 1.383 . S
C879 H887 0.929 . S
C880 C879 1.383 . S
C880 C881 1.377 . S
C881 H865 0.930 . S
C881 C880 1.377 . S
C881 C882 1.379 . S
C882 H866 0.931 . S
C882 C876 1.383 . S
C882 C881 1.379 . S
H883 C877 0.959 . S
H884 C877 0.961 . S
H885 C877 0.960 . S
H886 C878 0.930 . S
H887 C879 0.929 . S
H888 C896 0.929 . S
H889 C898 0.930 . S
H890 C900 0.930 . S
H891 C903 0.929 . S
H892 C906 0.930 . S
H893 C908 0.960 . S
H894 C908 0.960 . S
H895 C908 0.960 . S
C896 H888 0.929 . S
C896 C897 1.377 . S
C896 C898 1.384 . S
C897 C896 1.377 . S
C897 C903 1.390 . S
C898 H889 0.930 . S
C898 C896 1.384 . S
C898 C899 1.372 . S
C899 C898 1.372 . S
C899 C900 1.400 . S
C899 C904 1.490 . S
C900 H890 0.930 . S
C900 C899 1.400 . S
C900 C903 1.386 . S
H901 C917 0.930 . S
H902 C918 0.931 . S
C903 H891 0.929 . S
C903 C897 1.390 . S
C903 C900 1.386 . S
C904 C899 1.490 . S
C904 C906 1.395 . S
C904 C907 1.403 . S
H905 C911 0.930 . S
C906 H892 0.930 . S
C906 C904 1.395 . S
C906 C909 1.403 . S
C907 C904 1.403 . S
C907 C908 1.524 . S
C907 C911 1.400 . S
C908 H893 0.960 . S
C908 H894 0.960 . S
C908 H895 0.960 . S
C908 C907 1.524 . S
C909 C906 1.403 . S
C909 C910 1.392 . S
C909 C913 1.495 . S
C910 C909 1.392 . S
C910 C911 1.385 . S
C910 C912 1.478 . S
C911 H905 0.930 . S
C911 C907 1.400 . S
C911 C910 1.385 . S
C912 C910 1.478 . S
C912 C914 1.381 . S
C912 C918 1.383 . S
C913 C909 1.495 . S
C913 H919 0.959 . S
C913 H920 0.961 . S
C913 H921 0.960 . S
C914 C912 1.381 . S
C914 C915 1.394 . S
C914 H922 0.930 . S
C915 C914 1.394 . S
C915 C916 1.383 . S
C915 H923 0.929 1_655 S
C916 C915 1.383 . S
C916 C917 1.377 . S
C917 H901 0.930 . S
C917 C916 1.377 . S
C917 C918 1.379 . S
C918 H902 0.931 . S
C918 C912 1.383 . S
C918 C917 1.379 . S
H919 C913 0.959 . S
H920 C913 0.961 . S
H921 C913 0.960 . S
H922 C914 0.930 . S
H923 C915 0.929 1_455 S
H924 C932 0.929 . S
H925 C934 0.930 . S
H926 C936 0.930 . S
H927 C939 0.929 . S
H928 C942 0.930 . S
H929 C944 0.960 . S
H930 C944 0.960 . S
H931 C944 0.960 . S
C932 H924 0.929 . S
C932 C933 1.377 . S
C932 C934 1.384 . S
C933 C932 1.377 . S
C933 C939 1.390 . S
C934 H925 0.930 . S
C934 C932 1.384 . S
C934 C935 1.372 . S
C935 C934 1.372 . S
C935 C936 1.400 . S
C935 C940 1.490 . S
C936 H926 0.930 . S
C936 C935 1.400 . S
C936 C939 1.386 . S
H937 C953 0.930 . S
H938 C954 0.931 . S
C939 H927 0.929 . S
C939 C933 1.390 . S
C939 C936 1.386 . S
C940 C935 1.490 . S
C940 C942 1.395 . S
C940 C943 1.403 . S
H941 C947 0.930 . S
C942 H928 0.930 . S
C942 C940 1.395 . S
C942 C945 1.403 . S
C943 C940 1.403 . S
C943 C944 1.524 . S
C943 C947 1.400 . S
C944 H929 0.960 . S
C944 H930 0.960 . S
C944 H931 0.960 . S
C944 C943 1.524 . S
C945 C942 1.403 . S
C945 C946 1.392 . S
C945 C949 1.495 . S
C946 C945 1.392 . S
C946 C947 1.385 . S
C946 C948 1.478 . S
C947 H941 0.930 . S
C947 C943 1.400 . S
C947 C946 1.385 . S
C948 C946 1.478 . S
C948 C950 1.381 . S
C948 C954 1.383 . S
C949 C945 1.495 . S
C949 H955 0.959 . S
C949 H956 0.961 . S
C949 H957 0.960 . S
C950 C948 1.381 . S
C950 C951 1.394 . S
C950 H958 0.930 . S
C951 C950 1.394 . S
C951 C952 1.383 . S
C951 H959 0.929 . S
C952 C951 1.383 . S
C952 C953 1.377 . S
C953 H937 0.930 . S
C953 C952 1.377 . S
C953 C954 1.379 . S
C954 H938 0.931 . S
C954 C948 1.383 . S
C954 C953 1.379 . S
H955 C949 0.959 . S
H956 C949 0.961 . S
H957 C949 0.960 . S
H958 C950 0.930 . S
H959 C951 0.929 . S
H960 C968 0.929 . S
H961 C970 0.930 . S
H962 C972 0.930 . S
H963 C975 0.929 . S
H964 C978 0.930 . S
H965 C980 0.960 . S
H966 C980 0.960 . S
H967 C980 0.960 . S
C968 H960 0.929 . S
C968 C969 1.377 . S
C968 C970 1.384 . S
C969 C968 1.377 . S
C969 C975 1.390 . S
C970 H961 0.930 . S
C970 C968 1.384 . S
C970 C971 1.372 . S
C971 C970 1.372 . S
C971 C972 1.400 . S
C971 C976 1.490 . S
C972 H962 0.930 . S
C972 C971 1.400 . S
C972 C975 1.386 . S
H973 C989 0.930 . S
H974 C990 0.931 . S
C975 H963 0.929 . S
C975 C969 1.390 . S
C975 C972 1.386 . S
C976 C971 1.490 . S
C976 C978 1.395 . S
C976 C979 1.403 . S
H977 C983 0.930 . S
C978 H964 0.930 . S
C978 C976 1.395 . S
C978 C981 1.403 . S
C979 C976 1.403 . S
C979 C980 1.524 . S
C979 C983 1.400 . S
C980 H965 0.960 . S
C980 H966 0.960 . S
C980 H967 0.960 . S
C980 C979 1.524 . S
C981 C978 1.403 . S
C981 C982 1.392 . S
C981 C985 1.495 . S
C982 C981 1.392 . S
C982 C983 1.385 . S
C982 C984 1.478 . S
C983 H977 0.930 . S
C983 C979 1.400 . S
C983 C982 1.385 . S
C984 C982 1.478 . S
C984 C986 1.381 . S
C984 C990 1.383 . S
C985 C981 1.495 . S
C985 H991 0.959 . S
C985 H992 0.961 . S
C985 H993 0.960 . S
C986 C984 1.381 . S
C986 C987 1.394 . S
C986 H994 0.930 . S
C987 C986 1.394 . S
C987 C988 1.383 . S
C987 H995 0.929 . S
C988 C987 1.383 . S
C988 C989 1.377 . S
C989 H973 0.930 . S
C989 C988 1.377 . S
C989 C990 1.379 . S
C990 H974 0.931 . S
C990 C984 1.383 . S
C990 C989 1.379 . S
H991 C985 0.959 . S
H992 C985 0.961 . S
H993 C985 0.960 . S
H994 C986 0.930 . S
H995 C987 0.929 . S
H996 C1004 0.929 . S
H997 C1006 0.930 . S
H998 C1008 0.930 . S
H999 C1011 0.929 . S
H1000 C1014 0.930 . S
H1001 C1016 0.960 . S
H1002 C1016 0.960 . S
H1003 C1016 0.960 . S
C1004 H996 0.929 . S
C1004 C1005 1.377 . S
C1004 C1006 1.384 . S
C1005 C1004 1.377 . S
C1005 C1011 1.390 . S
C1006 H997 0.930 . S
C1006 C1004 1.384 . S
C1006 C1007 1.372 . S
C1007 C1006 1.372 . S
C1007 C1008 1.400 . S
C1007 C1012 1.490 . S
C1008 H998 0.930 . S
C1008 C1007 1.400 . S
C1008 C1011 1.386 . S
H1009 C1025 0.930 . S
H1010 C1026 0.931 . S
C1011 H999 0.929 . S
C1011 C1005 1.390 . S
C1011 C1008 1.386 . S
C1012 C1007 1.490 . S
C1012 C1014 1.395 . S
C1012 C1015 1.403 . S
H1013 C1019 0.930 . S
C1014 H1000 0.930 . S
C1014 C1012 1.395 . S
C1014 C1017 1.403 . S
C1015 C1012 1.403 . S
C1015 C1016 1.524 . S
C1015 C1019 1.400 . S
C1016 H1001 0.960 . S
C1016 H1002 0.960 . S
C1016 H1003 0.960 . S
C1016 C1015 1.524 . S
C1017 C1014 1.403 . S
C1017 C1018 1.392 . S
C1017 C1021 1.495 . S
C1018 C1017 1.392 . S
C1018 C1019 1.385 . S
C1018 C1020 1.478 . S
C1019 H1013 0.930 . S
C1019 C1015 1.400 . S
C1019 C1018 1.385 . S
C1020 C1018 1.478 . S
C1020 C1022 1.381 . S
C1020 C1026 1.383 . S
C1021 C1017 1.495 . S
C1021 H1027 0.959 . S
C1021 H1028 0.961 . S
C1021 H1029 0.960 . S
C1022 C1020 1.381 . S
C1022 C1023 1.394 . S
C1022 H1030 0.930 . S
C1023 C1022 1.394 . S
C1023 C1024 1.383 . S
C1023 H1031 0.929 . S
C1024 C1023 1.383 . S
C1024 C1025 1.377 . S
C1025 H1009 0.930 . S
C1025 C1024 1.377 . S
C1025 C1026 1.379 . S
C1026 H1010 0.931 . S
C1026 C1020 1.383 . S
C1026 C1025 1.379 . S
H1027 C1021 0.959 . S
H1028 C1021 0.961 . S
H1029 C1021 0.960 . S
H1030 C1022 0.930 . S
H1031 C1023 0.929 . S
C177 C5 1.562 . S
C196 C107 1.814 . S
C213 C18 1.379 . S
C232 C110 1.362 . S
C268 C146 1.477 . S
C249 C30 1.503 . S
C285 C41 1.278 . S
C304 C166 1.262 . S
C340 C120 2.038 . S
C321 C7 1.969 . S
C376 C97 1.841 . S
C357 C16 1.682 . S
C412 C150 1.555 . S
C393 C29 1.594 . S
C448 C130 0.975 . S
C429 C38 0.843 . S
C465 C8 1.468 . S
C484 C160 1.412 . S
C520 C126 1.820 . S
C501 C27 1.663 . S
C537 C40 1.693 . S
C556 C92 1.678 . S
C573 C19 1.001 . S
C592 C140 0.928 . S
C628 C106 1.577 . S
C609 C51 1.481 . S
C645 C62 1.525 . S
C664 C112 1.536 . S
C681 C74 1.646 . S
C700 C147 1.618 . S
C717 C84 1.381 . S
C736 C167 1.373 . S
C753 C49 1.881 . S
C772 C117 2.136 . S
C808 C100 1.555 . S
C789 C63 1.569 . S
C844 C152 1.414 . S
C825 C71 1.387 . S
C880 C132 1.082 . S
C861 C85 1.127 . S
C897 C52 1.364 . S
C916 C157 1.344 . S
C952 C127 1.871 . S
C933 C73 1.851 . S
C988 C90 1.369 . S
C969 C82 1.272 . S
C1005 C60 1.280 . S
C1024 C137 1.392 . S
