# Generated by pormake.
# Topology gar, (4,6)-cn, num edge types: 1
# Building blocks:
#     Node 0, Type 0, BuildingBlock: TATPOV_clean_sbu_0, # of connection points: 4
#     Node 1, Type 0, BuildingBlock: TATPOV_clean_sbu_0, # of connection points: 4
#     Node 2, Type 0, BuildingBlock: TATPOV_clean_sbu_0, # of connection points: 4
#     Node 3, Type 0, BuildingBlock: TATPOV_clean_sbu_0, # of connection points: 4
#     Node 4, Type 0, BuildingBlock: TATPOV_clean_sbu_0, # of connection points: 4
#     Node 5, Type 0, BuildingBlock: TATPOV_clean_sbu_0, # of connection points: 4
#     Node 6, Type 0, BuildingBlock: TATPOV_clean_sbu_0, # of connection points: 4
#     Node 7, Type 0, BuildingBlock: TATPOV_clean_sbu_0, # of connection points: 4
#     Node 8, Type 0, BuildingBlock: TATPOV_clean_sbu_0, # of connection points: 4
#     Node 9, Type 0, BuildingBlock: TATPOV_clean_sbu_0, # of connection points: 4
#     Node 10, Type 0, BuildingBlock: TATPOV_clean_sbu_0, # of connection points: 4
#     Node 11, Type 0, BuildingBlock: TATPOV_clean_sbu_0, # of connection points: 4
#     Node 12, Type 0, BuildingBlock: TATPOV_clean_sbu_0, # of connection points: 4
#     Node 13, Type 0, BuildingBlock: TATPOV_clean_sbu_0, # of connection points: 4
#     Node 14, Type 0, BuildingBlock: TATPOV_clean_sbu_0, # of connection points: 4
#     Node 15, Type 0, BuildingBlock: TATPOV_clean_sbu_0, # of connection points: 4
#     Node 16, Type 0, BuildingBlock: TATPOV_clean_sbu_0, # of connection points: 4
#     Node 17, Type 0, BuildingBlock: TATPOV_clean_sbu_0, # of connection points: 4
#     Node 18, Type 0, BuildingBlock: TATPOV_clean_sbu_0, # of connection points: 4
#     Node 19, Type 0, BuildingBlock: TATPOV_clean_sbu_0, # of connection points: 4
#     Node 20, Type 0, BuildingBlock: TATPOV_clean_sbu_0, # of connection points: 4
#     Node 21, Type 0, BuildingBlock: TATPOV_clean_sbu_0, # of connection points: 4
#     Node 22, Type 0, BuildingBlock: TATPOV_clean_sbu_0, # of connection points: 4
#     Node 23, Type 0, BuildingBlock: TATPOV_clean_sbu_0, # of connection points: 4
#     Node 24, Type 1, BuildingBlock: BETFAJ_clean_sbu_0, # of connection points: 6
#     Node 25, Type 1, BuildingBlock: BETFAJ_clean_sbu_0, # of connection points: 6
#     Node 26, Type 1, BuildingBlock: BETFAJ_clean_sbu_0, # of connection points: 6
#     Node 27, Type 1, BuildingBlock: BETFAJ_clean_sbu_0, # of connection points: 6
#     Node 28, Type 1, BuildingBlock: BETFAJ_clean_sbu_0, # of connection points: 6
#     Node 29, Type 1, BuildingBlock: BETFAJ_clean_sbu_0, # of connection points: 6
#     Node 30, Type 1, BuildingBlock: BETFAJ_clean_sbu_0, # of connection points: 6
#     Node 31, Type 1, BuildingBlock: BETFAJ_clean_sbu_0, # of connection points: 6
#     Node 32, Type 1, BuildingBlock: BETFAJ_clean_sbu_0, # of connection points: 6
#     Node 33, Type 1, BuildingBlock: BETFAJ_clean_sbu_0, # of connection points: 6
#     Node 34, Type 1, BuildingBlock: BETFAJ_clean_sbu_0, # of connection points: 6
#     Node 35, Type 1, BuildingBlock: BETFAJ_clean_sbu_0, # of connection points: 6
#     Node 36, Type 1, BuildingBlock: BETFAJ_clean_sbu_0, # of connection points: 6
#     Node 37, Type 1, BuildingBlock: BETFAJ_clean_sbu_0, # of connection points: 6
#     Node 38, Type 1, BuildingBlock: BETFAJ_clean_sbu_0, # of connection points: 6
#     Node 39, Type 1, BuildingBlock: BETFAJ_clean_sbu_0, # of connection points: 6
#     Edge 40, Type (0, 1), BuildingBlock: ZUJKAS_clean_linker_0, # of connection points: 2
#     Edge 41, Type (0, 1), BuildingBlock: ZUJKAS_clean_linker_0, # of connection points: 2
#     Edge 42, Type (0, 1), BuildingBlock: ZUJKAS_clean_linker_0, # of connection points: 2
#     Edge 43, Type (0, 1), BuildingBlock: ZUJKAS_clean_linker_0, # of connection points: 2
#     Edge 44, Type (0, 1), BuildingBlock: ZUJKAS_clean_linker_0, # of connection points: 2
#     Edge 45, Type (0, 1), BuildingBlock: ZUJKAS_clean_linker_0, # of connection points: 2
#     Edge 46, Type (0, 1), BuildingBlock: ZUJKAS_clean_linker_0, # of connection points: 2
#     Edge 47, Type (0, 1), BuildingBlock: ZUJKAS_clean_linker_0, # of connection points: 2
#     Edge 48, Type (0, 1), BuildingBlock: ZUJKAS_clean_linker_0, # of connection points: 2
#     Edge 49, Type (0, 1), BuildingBlock: ZUJKAS_clean_linker_0, # of connection points: 2
#     Edge 50, Type (0, 1), BuildingBlock: ZUJKAS_clean_linker_0, # of connection points: 2
#     Edge 51, Type (0, 1), BuildingBlock: ZUJKAS_clean_linker_0, # of connection points: 2
#     Edge 52, Type (0, 1), BuildingBlock: ZUJKAS_clean_linker_0, # of connection points: 2
#     Edge 53, Type (0, 1), BuildingBlock: ZUJKAS_clean_linker_0, # of connection points: 2
#     Edge 54, Type (0, 1), BuildingBlock: ZUJKAS_clean_linker_0, # of connection points: 2
#     Edge 55, Type (0, 1), BuildingBlock: ZUJKAS_clean_linker_0, # of connection points: 2
#     Edge 56, Type (0, 1), BuildingBlock: ZUJKAS_clean_linker_0, # of connection points: 2
#     Edge 57, Type (0, 1), BuildingBlock: ZUJKAS_clean_linker_0, # of connection points: 2
#     Edge 58, Type (0, 1), BuildingBlock: ZUJKAS_clean_linker_0, # of connection points: 2
#     Edge 59, Type (0, 1), BuildingBlock: ZUJKAS_clean_linker_0, # of connection points: 2
#     Edge 60, Type (0, 1), BuildingBlock: ZUJKAS_clean_linker_0, # of connection points: 2
#     Edge 61, Type (0, 1), BuildingBlock: ZUJKAS_clean_linker_0, # of connection points: 2
#     Edge 62, Type (0, 1), BuildingBlock: ZUJKAS_clean_linker_0, # of connection points: 2
#     Edge 63, Type (0, 1), BuildingBlock: ZUJKAS_clean_linker_0, # of connection points: 2
#     Edge 64, Type (0, 1), BuildingBlock: ZUJKAS_clean_linker_0, # of connection points: 2
#     Edge 65, Type (0, 1), BuildingBlock: ZUJKAS_clean_linker_0, # of connection points: 2
#     Edge 66, Type (0, 1), BuildingBlock: ZUJKAS_clean_linker_0, # of connection points: 2
#     Edge 67, Type (0, 1), BuildingBlock: ZUJKAS_clean_linker_0, # of connection points: 2
#     Edge 68, Type (0, 1), BuildingBlock: ZUJKAS_clean_linker_0, # of connection points: 2
#     Edge 69, Type (0, 1), BuildingBlock: ZUJKAS_clean_linker_0, # of connection points: 2
#     Edge 70, Type (0, 1), BuildingBlock: ZUJKAS_clean_linker_0, # of connection points: 2
#     Edge 71, Type (0, 1), BuildingBlock: ZUJKAS_clean_linker_0, # of connection points: 2
#     Edge 72, Type (0, 1), BuildingBlock: ZUJKAS_clean_linker_0, # of connection points: 2
#     Edge 73, Type (0, 1), BuildingBlock: ZUJKAS_clean_linker_0, # of connection points: 2
#     Edge 74, Type (0, 1), BuildingBlock: ZUJKAS_clean_linker_0, # of connection points: 2
#     Edge 75, Type (0, 1), BuildingBlock: ZUJKAS_clean_linker_0, # of connection points: 2
#     Edge 76, Type (0, 1), BuildingBlock: ZUJKAS_clean_linker_0, # of connection points: 2
#     Edge 77, Type (0, 1), BuildingBlock: ZUJKAS_clean_linker_0, # of connection points: 2
#     Edge 78, Type (0, 1), BuildingBlock: ZUJKAS_clean_linker_0, # of connection points: 2
#     Edge 79, Type (0, 1), BuildingBlock: ZUJKAS_clean_linker_0, # of connection points: 2
#     Edge 80, Type (0, 1), BuildingBlock: ZUJKAS_clean_linker_0, # of connection points: 2
#     Edge 81, Type (0, 1), BuildingBlock: ZUJKAS_clean_linker_0, # of connection points: 2
#     Edge 82, Type (0, 1), BuildingBlock: ZUJKAS_clean_linker_0, # of connection points: 2
#     Edge 83, Type (0, 1), BuildingBlock: ZUJKAS_clean_linker_0, # of connection points: 2
#     Edge 84, Type (0, 1), BuildingBlock: ZUJKAS_clean_linker_0, # of connection points: 2
#     Edge 85, Type (0, 1), BuildingBlock: ZUJKAS_clean_linker_0, # of connection points: 2
#     Edge 86, Type (0, 1), BuildingBlock: ZUJKAS_clean_linker_0, # of connection points: 2
#     Edge 87, Type (0, 1), BuildingBlock: ZUJKAS_clean_linker_0, # of connection points: 2
#     Edge 88, Type (0, 1), BuildingBlock: ZUJKAS_clean_linker_0, # of connection points: 2
#     Edge 89, Type (0, 1), BuildingBlock: ZUJKAS_clean_linker_0, # of connection points: 2
#     Edge 90, Type (0, 1), BuildingBlock: ZUJKAS_clean_linker_0, # of connection points: 2
#     Edge 91, Type (0, 1), BuildingBlock: ZUJKAS_clean_linker_0, # of connection points: 2
#     Edge 92, Type (0, 1), BuildingBlock: ZUJKAS_clean_linker_0, # of connection points: 2
#     Edge 93, Type (0, 1), BuildingBlock: ZUJKAS_clean_linker_0, # of connection points: 2
#     Edge 94, Type (0, 1), BuildingBlock: ZUJKAS_clean_linker_0, # of connection points: 2
#     Edge 95, Type (0, 1), BuildingBlock: ZUJKAS_clean_linker_0, # of connection points: 2
#     Edge 96, Type (0, 1), BuildingBlock: ZUJKAS_clean_linker_0, # of connection points: 2
#     Edge 97, Type (0, 1), BuildingBlock: ZUJKAS_clean_linker_0, # of connection points: 2
#     Edge 98, Type (0, 1), BuildingBlock: ZUJKAS_clean_linker_0, # of connection points: 2
#     Edge 99, Type (0, 1), BuildingBlock: ZUJKAS_clean_linker_0, # of connection points: 2
#     Edge 100, Type (0, 1), BuildingBlock: ZUJKAS_clean_linker_0, # of connection points: 2
#     Edge 101, Type (0, 1), BuildingBlock: ZUJKAS_clean_linker_0, # of connection points: 2
#     Edge 102, Type (0, 1), BuildingBlock: ZUJKAS_clean_linker_0, # of connection points: 2
#     Edge 103, Type (0, 1), BuildingBlock: ZUJKAS_clean_linker_0, # of connection points: 2
#     Edge 104, Type (0, 1), BuildingBlock: ZUJKAS_clean_linker_0, # of connection points: 2
#     Edge 105, Type (0, 1), BuildingBlock: ZUJKAS_clean_linker_0, # of connection points: 2
#     Edge 106, Type (0, 1), BuildingBlock: ZUJKAS_clean_linker_0, # of connection points: 2
#     Edge 107, Type (0, 1), BuildingBlock: ZUJKAS_clean_linker_0, # of connection points: 2
#     Edge 108, Type (0, 1), BuildingBlock: ZUJKAS_clean_linker_0, # of connection points: 2
#     Edge 109, Type (0, 1), BuildingBlock: ZUJKAS_clean_linker_0, # of connection points: 2
#     Edge 110, Type (0, 1), BuildingBlock: ZUJKAS_clean_linker_0, # of connection points: 2
#     Edge 111, Type (0, 1), BuildingBlock: ZUJKAS_clean_linker_0, # of connection points: 2
#     Edge 112, Type (0, 1), BuildingBlock: ZUJKAS_clean_linker_0, # of connection points: 2
#     Edge 113, Type (0, 1), BuildingBlock: ZUJKAS_clean_linker_0, # of connection points: 2
#     Edge 114, Type (0, 1), BuildingBlock: ZUJKAS_clean_linker_0, # of connection points: 2
#     Edge 115, Type (0, 1), BuildingBlock: ZUJKAS_clean_linker_0, # of connection points: 2
#     Edge 116, Type (0, 1), BuildingBlock: ZUJKAS_clean_linker_0, # of connection points: 2
#     Edge 117, Type (0, 1), BuildingBlock: ZUJKAS_clean_linker_0, # of connection points: 2
#     Edge 118, Type (0, 1), BuildingBlock: ZUJKAS_clean_linker_0, # of connection points: 2
#     Edge 119, Type (0, 1), BuildingBlock: ZUJKAS_clean_linker_0, # of connection points: 2
#     Edge 120, Type (0, 1), BuildingBlock: ZUJKAS_clean_linker_0, # of connection points: 2
#     Edge 121, Type (0, 1), BuildingBlock: ZUJKAS_clean_linker_0, # of connection points: 2
#     Edge 122, Type (0, 1), BuildingBlock: ZUJKAS_clean_linker_0, # of connection points: 2
#     Edge 123, Type (0, 1), BuildingBlock: ZUJKAS_clean_linker_0, # of connection points: 2
#     Edge 124, Type (0, 1), BuildingBlock: ZUJKAS_clean_linker_0, # of connection points: 2
#     Edge 125, Type (0, 1), BuildingBlock: ZUJKAS_clean_linker_0, # of connection points: 2
#     Edge 126, Type (0, 1), BuildingBlock: ZUJKAS_clean_linker_0, # of connection points: 2
#     Edge 127, Type (0, 1), BuildingBlock: ZUJKAS_clean_linker_0, # of connection points: 2
#     Edge 128, Type (0, 1), BuildingBlock: ZUJKAS_clean_linker_0, # of connection points: 2
#     Edge 129, Type (0, 1), BuildingBlock: ZUJKAS_clean_linker_0, # of connection points: 2
#     Edge 130, Type (0, 1), BuildingBlock: ZUJKAS_clean_linker_0, # of connection points: 2
#     Edge 131, Type (0, 1), BuildingBlock: ZUJKAS_clean_linker_0, # of connection points: 2
#     Edge 132, Type (0, 1), BuildingBlock: ZUJKAS_clean_linker_0, # of connection points: 2
#     Edge 133, Type (0, 1), BuildingBlock: ZUJKAS_clean_linker_0, # of connection points: 2
#     Edge 134, Type (0, 1), BuildingBlock: ZUJKAS_clean_linker_0, # of connection points: 2
#     Edge 135, Type (0, 1), BuildingBlock: ZUJKAS_clean_linker_0, # of connection points: 2
# Relax obj value: 0.180
# Max RMSD: 0.290
# Mean RMSD: 0.171
data_MOF--net-gar--node1-TATPOV_clean_sbu_0--node2-BETFAJ_clean_sbu_0--edge1-ZUJKAS_clean_linker_0
_symmetry_space_group_name_H-M    P1
_symmetry_Int_Tables_number       1
_symmetry_cell_setting            triclinic
loop_
_symmetry_equiv_pos_as_xyz
'x, y, z'
_cell_length_a     78.173756
_cell_length_b     73.248758
_cell_length_c     73.95559
_cell_angle_alpha  98.536337
_cell_angle_beta   95.64957
_cell_angle_gamma 104.37865
loop_
_atom_site_label
_atom_site_type_symbol
_atom_site_fract_x
_atom_site_fract_y
_atom_site_fract_z
_atom_type_partial_charge
Zn0 Zn 0.06588 0.31368 0.3922 0.0
Zn1 Zn 0.09309 0.3192 0.3843 0.0
O2 O 0.09473 0.34501 0.4004 0.0
O3 O 0.06633 0.34044 0.39079 0.0
O4 O 0.11573 0.31994 0.37459 0.0
O5 O 0.07202 0.30732 0.41657 0.0
O6 O 0.08825 0.29593 0.39779 0.0
C7 C 0.08105 0.35144 0.39891 0.0
C8 C 0.06094 0.30153 0.35732 0.0
O9 O 0.07511 0.31523 0.36088 0.0
O10 O 0.05597 0.29277 0.37014 0.0
C11 C 0.12001 0.32985 0.36226 0.0
O12 O 0.11073 0.34173 0.35812 0.0
C13 C 0.07995 0.29475 0.41175 0.0
Zn14 Zn 0.98795 0.7198 0.66091 0.0
Zn15 Zn 0.99331 0.75184 0.64788 0.0
O16 O 0.96955 0.74991 0.65603 0.0
O17 O 0.97149 0.73013 0.67543 0.0
O18 O 1.00051 0.77511 0.6369 0.0
O19 O 0.01465 0.72841 0.66776 0.0
O20 O 0.01299 0.75797 0.66863 0.0
C21 C 0.96371 0.74139 0.66882 0.0
C22 C 0.98606 0.71335 0.62369 0.0
O23 O 0.99436 0.73099 0.62747 0.0
O24 O 0.97818 0.70524 0.63563 0.0
C25 C 0.99192 0.77905 0.62326 0.0
O26 O 0.976 0.76797 0.61617 0.0
C27 C 0.02177 0.74624 0.67194 0.0
Zn28 Zn 0.56743 0.81521 0.89245 0.0
Zn29 Zn 0.59486 0.8214 0.88419 0.0
O30 O 0.5971 0.84663 0.90143 0.0
O31 O 0.56851 0.8426 0.89326 0.0
O32 O 0.61738 0.82338 0.87344 0.0
O33 O 0.57336 0.80672 0.91574 0.0
O34 O 0.59065 0.79742 0.89692 0.0
C35 C 0.58354 0.85328 0.90094 0.0
C36 C 0.56173 0.80535 0.85737 0.0
O37 O 0.57618 0.8186 0.86159 0.0
O38 O 0.55631 0.79575 0.86948 0.0
C39 C 0.61931 0.83192 0.85975 0.0
O40 O 0.60729 0.84036 0.85418 0.0
C41 C 0.58226 0.79515 0.91075 0.0
Zn42 Zn 0.48765 0.21982 0.16201 0.0
Zn43 Zn 0.49335 0.25194 0.14574 0.0
O44 O 0.4715 0.25272 0.15759 0.0
O45 O 0.46841 0.22849 0.17267 0.0
O46 O 0.50032 0.27517 0.13462 0.0
O47 O 0.51288 0.22903 0.17471 0.0
O48 O 0.51573 0.25515 0.16266 0.0
C49 C 0.46333 0.24247 0.16815 0.0
C50 C 0.4847 0.2127 0.12265 0.0
O51 O 0.48972 0.23077 0.12431 0.0
O52 O 0.48209 0.20472 0.13653 0.0
C53 C 0.49156 0.27904 0.12104 0.0
O54 O 0.47559 0.26796 0.11413 0.0
C55 C 0.52214 0.24524 0.17276 0.0
Zn56 Zn 0.09128 0.80306 0.09056 0.0
Zn57 Zn 0.06557 0.79905 0.112 0.0
O58 O 0.06408 0.82309 0.1002 0.0
O59 O 0.08694 0.82751 0.08465 0.0
O60 O 0.04312 0.79253 0.12444 0.0
O61 O 0.07926 0.77826 0.07344 0.0
O62 O 0.06032 0.77398 0.09348 0.0
C63 C 0.07364 0.83262 0.08989 0.0
C64 C 0.1039 0.80158 0.12857 0.0
O65 O 0.088 0.80157 0.13144 0.0
O66 O 0.10823 0.80201 0.11255 0.0
C67 C 0.03968 0.8008 0.13948 0.0
O68 O 0.05173 0.81578 0.14919 0.0
C69 C 0.06613 0.76773 0.07898 0.0
Zn70 Zn 0.48352 0.75846 0.42709 0.0
Zn71 Zn 0.50833 0.76084 0.40348 0.0
O72 O 0.51438 0.78672 0.42057 0.0
O73 O 0.49563 0.78515 0.44097 0.0
O74 O 0.52965 0.76402 0.38812 0.0
O75 O 0.48997 0.73639 0.43638 0.0
O76 O 0.5101 0.73771 0.41742 0.0
C77 C 0.50892 0.79436 0.43462 0.0
C78 C 0.46853 0.75736 0.38912 0.0
O79 O 0.48467 0.75927 0.38594 0.0
O80 O 0.46462 0.75543 0.4051 0.0
C81 C 0.54358 0.77816 0.39307 0.0
O82 O 0.54392 0.7913 0.40734 0.0
C83 C 0.50236 0.73023 0.43012 0.0
Zn84 Zn 0.59233 0.30307 0.59129 0.0
Zn85 Zn 0.56719 0.29894 0.61372 0.0
O86 O 0.56444 0.32234 0.60098 0.0
O87 O 0.58643 0.32654 0.58423 0.0
O88 O 0.54548 0.29254 0.62721 0.0
O89 O 0.58011 0.27685 0.57561 0.0
O90 O 0.56178 0.27334 0.59634 0.0
C91 C 0.57323 0.33154 0.58991 0.0
C92 C 0.60661 0.3041 0.62972 0.0
O93 O 0.59035 0.30211 0.63246 0.0
O94 O 0.61072 0.30521 0.61366 0.0
C95 C 0.54001 0.30348 0.63894 0.0
O96 O 0.54939 0.32139 0.64429 0.0
C97 C 0.5673 0.26663 0.58188 0.0
Zn98 Zn 0.9837 0.25554 0.92549 0.0
Zn99 Zn 0.00826 0.26178 0.90412 0.0
O100 O 0.01477 0.28716 0.92227 0.0
O101 O 0.99455 0.28155 0.9409 0.0
O102 O 0.02958 0.26509 0.88895 0.0
O103 O 0.98843 0.23218 0.93344 0.0
O104 O 0.01096 0.23865 0.91762 0.0
C105 C 0.00771 0.29277 0.93606 0.0
C106 C 0.96783 0.25826 0.89013 0.0
O107 O 0.984 0.26074 0.8867 0.0
O108 O 0.96415 0.25441 0.90565 0.0
C109 C 0.04067 0.28131 0.88931 0.0
O110 O 0.03755 0.29683 0.89809 0.0
C111 C 0.0024 0.22866 0.92832 0.0
Zn112 Zn 0.44599 0.99438 0.27029 0.0
Zn113 Zn 0.43077 0.03232 0.2727 0.0
O114 O 0.43538 0.03196 0.2989 0.0
O115 O 0.4416 0.0038 0.29639 0.0
O116 O 0.4184 0.05187 0.26879 0.0
O117 O 0.45372 0.0102 0.2507 0.0
O118 O 0.45244 0.03955 0.2611 0.0
C119 C 0.43828 0.01807 0.30593 0.0
C120 C 0.41378 0.99442 0.24924 0.0
O121 O 0.41267 0.00859 0.26065 0.0
O122 O 0.42898 0.99234 0.24662 0.0
C123 C 0.40446 0.05245 0.27596 0.0
O124 O 0.39925 0.04135 0.28789 0.0
C125 C 0.45712 0.02783 0.24966 0.0
Zn126 Zn 0.26346 0.20896 0.49664 0.0
Zn127 Zn 0.28332 0.18453 0.49667 0.0
O128 O 0.28813 0.19681 0.47266 0.0
O129 O 0.27056 0.21621 0.47299 0.0
O130 O 0.30077 0.168 0.50003 0.0
O131 O 0.27585 0.22462 0.52133 0.0
O132 O 0.29023 0.20247 0.52223 0.0
C133 C 0.28162 0.20885 0.4653 0.0
C134 C 0.24249 0.16985 0.49458 0.0
O135 O 0.25764 0.16609 0.49478 0.0
O136 O 0.2416 0.18698 0.49534 0.0
C137 C 0.31448 0.16833 0.49194 0.0
O138 O 0.3174 0.17883 0.47905 0.0
C139 C 0.28664 0.21754 0.52999 0.0
Zn140 Zn 0.13502 0.0263 0.7664 0.0
Zn141 Zn 0.15503 0.00343 0.76601 0.0
O142 O 0.14034 0.00249 0.79227 0.0
O143 O 0.12422 0.02283 0.78958 0.0
O144 O 0.1704 0.97999 0.76268 0.0
O145 O 0.12016 0.0176 0.74151 0.0
O146 O 0.13898 0.9999 0.73771 0.0
C147 C 0.12911 0.01144 0.79894 0.0
C148 C 0.17124 0.04865 0.76746 0.0
O149 O 0.17445 0.03217 0.76809 0.0
O150 O 0.15529 0.04967 0.76691 0.0
C151 C 0.17279 0.96732 0.77269 0.0
O152 O 0.16564 0.96754 0.78804 0.0
C153 C 0.12626 0.00649 0.73078 0.0
Zn154 Zn 0.32579 0.88587 0.0093 0.0
Zn155 Zn 0.29457 0.90384 0.00862 0.0
O156 O 0.29576 0.8999 0.98156 0.0
O157 O 0.3149 0.88179 0.98238 0.0
O158 O 0.27352 0.9129 0.0141 0.0
O159 O 0.31506 0.86868 0.02706 0.0
O160 O 0.29373 0.87866 0.0153 0.0
C161 C 0.30441 0.88924 0.97356 0.0
C162 C 0.33149 0.92757 0.0244 0.0
O163 O 0.3149 0.92544 0.02085 0.0
O164 O 0.33846 0.91383 0.02034 0.0
C165 C 0.27355 0.92872 0.00901 0.0
O166 O 0.28583 0.93616 -0.00071 0.0
C167 C 0.30191 0.87541 0.02954 0.0
Zn168 Zn 0.31314 0.35726 0.02456 0.0
Zn169 Zn 0.29356 0.38122 0.02548 0.0
O170 O 0.28617 0.36352 -0.0004 0.0
O171 O 0.30135 0.342 -9e-05 0.0
O172 O 0.27419 0.39606 0.0246 0.0
O173 O 0.30593 0.34728 0.04697 0.0
O174 O 0.28971 0.36792 0.0493 0.0
C175 C 0.29009 0.34873 0.99159 0.0
C176 C 0.33423 0.39639 0.02597 0.0
O177 O 0.31913 0.40034 0.02615 0.0
O178 O 0.33495 0.37927 0.02583 0.0
C179 C 0.26918 0.40188 0.01003 0.0
O180 O 0.27778 0.40002 0.99576 0.0
C181 C 0.29532 0.35464 0.05543 0.0
Zn182 Zn 0.74647 0.17259 0.01074 0.0
Zn183 Zn 0.7843 0.14465 0.02109 0.0
O184 O 0.79047 0.15417 0.99694 0.0
O185 O 0.76839 0.16375 0.00561 0.0
O186 O 0.80425 0.13408 0.02821 0.0
O187 O 0.75933 0.18249 0.03706 0.0
O188 O 0.78018 0.16609 0.04151 0.0
C189 C 0.77862 0.16256 0.99358 0.0
C190 C 0.74956 0.13079 0.01157 0.0
O191 O 0.76148 0.12248 0.01503 0.0
O192 O 0.75464 0.14876 0.01321 0.0
C193 C 0.80288 0.11787 0.0184 0.0
O194 O 0.78798 0.10895 0.00743 0.0
C195 C 0.77198 0.17873 0.04707 0.0
Zn196 Zn 0.12523 0.56173 0.24589 0.0
Zn197 Zn 0.15239 0.53005 0.24254 0.0
O198 O 0.14239 0.52086 0.26568 0.0
O199 O 0.1304 0.54037 0.25485 0.0
O200 O 0.16978 0.5154 0.23724 0.0
O201 O 0.11948 0.54847 0.21973 0.0
O202 O 0.13536 0.52663 0.21921 0.0
C203 C 0.13292 0.53232 0.2682 0.0
C204 C 0.16466 0.57545 0.25054 0.0
O205 O 0.16602 0.5583 0.2486 0.0
O206 O 0.14982 0.57977 0.24957 0.0
C207 C 0.18295 0.5205 0.24999 0.0
O208 O 0.1845 0.53573 0.26255 0.0
C209 C 0.12427 0.53434 0.21164 0.0
Zn210 Zn 0.81658 0.86061 0.52681 0.0
Zn211 Zn 0.79397 0.88128 0.52564 0.0
O212 O 0.78718 0.86279 0.50037 0.0
O213 O 0.80883 0.84855 0.50021 0.0
O214 O 0.77422 0.89559 0.52415 0.0
O215 O 0.80659 0.84757 0.54687 0.0
O216 O 0.79062 0.86846 0.54967 0.0
C217 C 0.79514 0.85163 0.49201 0.0
C218 C 0.83484 0.8999 0.52914 0.0
O219 O 0.81887 0.90134 0.52572 0.0
O220 O 0.8374 0.88417 0.53224 0.0
C221 C 0.76673 0.89732 0.50856 0.0
O222 O 0.77277 0.89127 0.49347 0.0
C223 C 0.7959 0.8548 0.55537 0.0
Zn224 Zn 0.94279 0.03621 0.24843 0.0
Zn225 Zn 0.92353 0.06003 0.2528 0.0
O226 O 0.94081 0.06461 0.28008 0.0
O227 O 0.95725 0.04477 0.27359 0.0
O228 O 0.90781 0.08311 0.25413 0.0
O229 O 0.95421 0.04125 0.22593 0.0
O230 O 0.93777 0.06174 0.22656 0.0
C231 C 0.95311 0.05671 0.2854 0.0
C232 C 0.90728 0.01378 0.249 0.0
O233 O 0.90466 0.03078 0.2518 0.0
O234 O 0.92262 0.01238 0.24605 0.0
C235 C 0.91053 0.09952 0.26522 0.0
O236 O 0.92421 0.10408 0.2784 0.0
C237 C 0.94893 0.0537 0.21852 0.0
Zn238 Zn 0.24685 0.6789 0.5256 0.0
Zn239 Zn 0.28776 0.64521 0.52626 0.0
O240 O 0.29113 0.6613 0.5057 0.0
O241 O 0.27002 0.67078 0.51797 0.0
O242 O 0.30501 0.63026 0.52495 0.0
O243 O 0.269 0.66993 0.53776 0.0
O244 O 0.29051 0.66114 0.5519 0.0
C245 C 0.27935 0.67041 0.50472 0.0
C246 C 0.25097 0.63566 0.51873 0.0
O247 O 0.26287 0.6267 0.51949 0.0
O248 O 0.25604 0.6538 0.52399 0.0
C249 C 0.30141 0.61688 0.51107 0.0
O250 O 0.28662 0.61365 0.49961 0.0
C251 C 0.27925 0.67096 0.55275 0.0
Zn252 Zn 0.44418 0.53788 0.75216 0.0
Zn253 Zn 0.42366 0.56016 0.75296 0.0
O254 O 0.43984 0.56537 0.78106 0.0
O255 O 0.45884 0.5479 0.7771 0.0
O256 O 0.40779 0.58303 0.75363 0.0
O257 O 0.45574 0.54208 0.72971 0.0
O258 O 0.43874 0.56155 0.72698 0.0
C259 C 0.45293 0.55926 0.78776 0.0
C260 C 0.40836 0.51429 0.75089 0.0
O261 O 0.40488 0.53083 0.75164 0.0
O262 O 0.42435 0.5137 0.75035 0.0
C263 C 0.41023 0.59923 0.76497 0.0
O264 O 0.42356 0.60352 0.77852 0.0
C265 C 0.45056 0.5534 0.72049 0.0
Zn266 Zn 0.62732 0.07381 0.73933 0.0
Zn267 Zn 0.65886 0.02992 0.73667 0.0
O268 O 0.64467 0.02757 0.75841 0.0
O269 O 0.63526 0.04945 0.74679 0.0
O270 O 0.67388 0.01272 0.73704 0.0
O271 O 0.63541 0.04913 0.72714 0.0
O272 O 0.64418 0.02605 0.71194 0.0
C273 C 0.63658 0.04058 0.76033 0.0
C274 C 0.66792 0.06979 0.74404 0.0
O275 O 0.67579 0.0566 0.74245 0.0
O276 O 0.65102 0.06492 0.73977 0.0
C277 C 0.68407 0.01748 0.75233 0.0
O278 O 0.68307 0.03218 0.76435 0.0
C279 C 0.63523 0.03828 0.71179 0.0
Zn280 Zn 0.76197 0.70685 0.99489 0.0
Zn281 Zn 0.78424 0.68455 0.99645 0.0
O282 O 0.78837 0.69637 0.97212 0.0
O283 O 0.76914 0.71388 0.97107 0.0
O284 O 0.80226 0.66857 -0.00034 0.0
O285 O 0.77387 0.72313 0.01952 0.0
O286 O 0.79079 0.7034 0.02151 0.0
C287 C 0.78108 0.70747 0.96411 0.0
C288 C 0.74348 0.66763 0.99481 0.0
O289 O 0.75919 0.66528 0.99554 0.0
O290 O 0.74105 0.68399 0.9942 0.0
C291 C 0.81708 0.6712 0.99326 0.0
O292 O 0.82095 0.68411 0.98265 0.0
C293 C 0.78572 0.71777 0.02864 0.0
Zn294 Zn 0.96096 0.50601 0.77026 0.0
Zn295 Zn 0.9341 0.52975 0.76718 0.0
O296 O 0.93597 0.53036 0.79413 0.0
O297 O 0.95844 0.51663 0.79653 0.0
O298 O 0.9197 0.54703 0.75991 0.0
O299 O 0.97688 0.52164 0.75405 0.0
O300 O 0.95908 0.53791 0.76285 0.0
C301 C 0.94736 0.52463 0.80363 0.0
C302 C 0.92279 0.4868 0.75426 0.0
O303 O 0.91995 0.50325 0.75566 0.0
O304 O 0.93823 0.48485 0.75903 0.0
C305 C 0.90763 0.54974 0.76946 0.0
O306 O 0.90568 0.54227 0.78445 0.0
C307 C 0.96483 0.5295 0.74959 0.0
Zn308 Zn 0.82623 0.38733 0.51441 0.0
Zn309 Zn 0.79502 0.40426 0.50855 0.0
O310 O 0.79759 0.39891 0.48192 0.0
O311 O 0.8171 0.38196 0.48692 0.0
O312 O 0.77364 0.41335 0.51252 0.0
O313 O 0.8135 0.37146 0.53184 0.0
O314 O 0.79252 0.37921 0.5164 0.0
C315 C 0.80695 0.38793 0.47604 0.0
C316 C 0.83165 0.42899 0.52643 0.0
O317 O 0.81526 0.4263 0.52071 0.0
O318 O 0.83894 0.41526 0.52519 0.0
C319 C 0.77365 0.42932 0.50782 0.0
O320 O 0.78635 0.43745 0.49892 0.0
C321 C 0.79865 0.37543 0.5314 0.0
Zn322 Zn 0.63394 0.52626 0.26637 0.0
Zn323 Zn 0.65463 0.50351 0.26546 0.0
O324 O 0.64019 0.50238 0.29173 0.0
O325 O 0.62346 0.52233 0.28971 0.0
O326 O 0.67021 0.48023 0.26215 0.0
O327 O 0.6184 0.51601 0.24198 0.0
O328 O 0.63808 0.49955 0.23738 0.0
C329 C 0.62873 0.51082 0.29864 0.0
C330 C 0.67027 0.54877 0.26675 0.0
O331 O 0.67361 0.53236 0.26743 0.0
O332 O 0.65427 0.54971 0.26622 0.0
C333 C 0.67225 0.46731 0.27199 0.0
O334 O 0.66458 0.46715 0.28701 0.0
C335 C 0.62467 0.50536 0.23093 0.0
Sm336 Sm 0.02334 0.02433 0.00129 0.0
Sm337 Sm 0.06134 0.04292 0.02189 0.0
C338 C 0.98823 0.01553 0.9935 0.0
C339 C 0.97542 0.02662 0.98966 0.0
C340 C 0.97663 0.04437 0.00074 0.0
C341 C 0.96396 0.05433 0.9972 0.0
C342 C 0.94998 0.04677 0.98246 0.0
C343 C 0.94932 0.02949 0.9709 0.0
C344 C 0.96192 0.01949 0.97451 0.0
C345 C 0.04662 0.0224 0.97435 0.0
C346 C 0.0407 0.07084 0.00366 0.0
C347 C 0.0964 0.05161 0.03082 0.0
C348 C 0.10961 0.04044 0.03216 0.0
C349 C 0.10914 0.02487 0.01834 0.0
C350 C 0.12194 0.01464 0.01987 0.0
C351 C 0.1353 0.01969 0.03531 0.0
C352 C 0.13521 0.03467 0.04952 0.0
C353 C 0.12249 0.045 0.04791 0.0
C354 C 0.03828 0.04549 0.0488 0.0
C355 C 0.04351 0.99636 0.01917 0.0
O356 O 0.99661 0.01906 0.01034 0.0
O357 O 0.99857 0.01343 0.98099 0.0
O358 O 0.05107 0.02952 0.99164 0.0
O359 O 0.02941 0.01583 0.97135 0.0
O360 O 0.02645 0.05606 0.0 0.0
O361 O 0.05624 0.06959 0.01147 0.0
O362 O 0.08867 0.05171 0.01432 0.0
O363 O 0.08535 0.04991 0.04294 0.0
O364 O 0.0336 0.03807 0.03159 0.0
O365 O 0.05538 0.05284 0.05134 0.0
O366 O 0.05812 0.01073 0.02206 0.0
O367 O 0.02794 0.9981 0.01225 0.0
H368 H 0.98714 0.05036 0.01234 0.0
H369 H 0.96471 0.06754 0.00644 0.0
H370 H 0.93884 0.02352 0.95928 0.0
H371 H 0.96099 0.00602 0.96562 0.0
H372 H 0.09903 0.02071 0.00629 0.0
H373 H 0.12155 0.00292 0.00888 0.0
H374 H 0.14536 0.03885 0.06154 0.0
H375 H 0.12285 0.05672 0.05888 0.0
Sm376 Sm 0.2916 0.78719 0.25023 0.0
Sm377 Sm 0.27579 0.78946 0.28424 0.0
C378 C 0.2971 0.78977 0.21623 0.0
C379 C 0.30975 0.80337 0.20802 0.0
C380 C 0.30986 0.82283 0.21038 0.0
C381 C 0.31942 0.83472 0.19973 0.0
C382 C 0.32891 0.82728 0.18671 0.0
C383 C 0.33052 0.80857 0.18592 0.0
C384 C 0.32096 0.79664 0.19658 0.0
C385 C 0.32014 0.7915 0.27731 0.0
C386 C 0.29581 0.82813 0.27553 0.0
C387 C 0.25897 0.78586 0.31327 0.0
C388 C 0.25265 0.77114 0.32394 0.0
C389 C 0.25765 0.75394 0.32122 0.0
C390 C 0.25202 0.74032 0.33214 0.0
C391 C 0.24139 0.7439 0.34571 0.0
C392 C 0.23544 0.7605 0.34754 0.0
C393 C 0.24103 0.7741 0.3366 0.0
C394 C 0.25429 0.79295 0.25397 0.0
C395 C 0.28061 0.74883 0.26482 0.0
O396 O 0.28493 0.79631 0.22397 0.0
O397 O 0.30371 0.7786 0.2255 0.0
O398 O 0.30438 0.79073 0.28066 0.0
O399 O 0.32127 0.7913 0.26 0.0
O400 O 0.29278 0.81866 0.25854 0.0
O401 O 0.2932 0.81962 0.2897 0.0
O402 O 0.27625 0.79287 0.31465 0.0
O403 O 0.25091 0.7822 0.29638 0.0
O404 O 0.26259 0.78014 0.2543 0.0
O405 O 0.25869 0.8053 0.2692 0.0
O406 O 0.27997 0.75965 0.28042 0.0
O407 O 0.28168 0.75545 0.24938 0.0
H408 H 0.30161 0.82854 0.21941 0.0
H409 H 0.31776 0.84904 0.20016 0.0
H410 H 0.33761 0.80263 0.1757 0.0
H411 H 0.3213 0.78179 0.19486 0.0
H412 H 0.26639 0.75141 0.3112 0.0
H413 H 0.25699 0.72769 0.33093 0.0
H414 H 0.2275 0.76351 0.35826 0.0
H415 H 0.23684 0.78721 0.33848 0.0
Sm416 Sm 0.55573 0.02937 0.50798 0.0
Sm417 Sm 0.51505 0.02791 0.51193 0.0
C418 C 0.58745 0.02352 0.5036 0.0
C419 C 0.59736 0.00867 0.50159 0.0
C420 C 0.59762 0.99618 0.51424 0.0
C421 C 0.60844 0.98348 0.5127 0.0
C422 C 0.61921 0.98301 0.4985 0.0
C423 C 0.61823 0.99494 0.4854 0.0
C424 C 0.60746 0.00761 0.48696 0.0
C425 C 0.53445 0.03261 0.47814 0.0
C426 C 0.52535 0.98845 0.50409 0.0
C427 C 0.48253 0.03311 0.51004 0.0
C428 C 0.47279 0.04774 0.51518 0.0
C429 C 0.47511 0.06432 0.50726 0.0
C430 C 0.46419 0.07667 0.51052 0.0
C431 C 0.4506 0.07272 0.5217 0.0
C432 C 0.44897 0.05666 0.53042 0.0
C433 C 0.45991 0.04432 0.52716 0.0
C434 C 0.53495 0.02424 0.54244 0.0
C435 C 0.54649 0.06934 0.51822 0.0
O436 O 0.58306 0.02903 0.51977 0.0
O437 O 0.57522 0.02265 0.4899 0.0
O438 O 0.53004 0.02113 0.48887 0.0
O439 O 0.55077 0.04304 0.48268 0.0
O440 O 0.54197 0.99842 0.51057 0.0
O441 O 0.51255 0.99668 0.49997 0.0
O442 O 0.49239 0.03521 0.49674 0.0
O443 O 0.48957 0.02629 0.52345 0.0
O444 O 0.54051 0.03523 0.53148 0.0
O445 O 0.51789 0.0165 0.53887 0.0
O446 O 0.52949 0.05974 0.51346 0.0
O447 O 0.55957 0.06094 0.51998 0.0
H448 H 0.58978 0.99648 0.52551 0.0
H449 H 0.60858 0.97424 0.52283 0.0
H450 H 0.62639 0.99514 0.47438 0.0
H451 H 0.60742 0.01705 0.47698 0.0
H452 H 0.48503 0.06753 0.49812 0.0
H453 H 0.46616 0.08913 0.50391 0.0
H454 H 0.43866 0.05306 0.53905 0.0
H455 H 0.45783 0.03167 0.5335 0.0
Sm456 Sm 0.27087 0.28602 0.76095 0.0
Sm457 Sm 0.30972 0.27696 0.76345 0.0
C458 C 0.23694 0.28247 0.76537 0.0
C459 C 0.22603 0.28667 0.78014 0.0
C460 C 0.22322 0.2753 0.7939 0.0
C461 C 0.21116 0.27767 0.8063 0.0
C462 C 0.20153 0.29146 0.80531 0.0
C463 C 0.20505 0.30354 0.79221 0.0
C464 C 0.21708 0.3011 0.77972 0.0
C465 C 0.29765 0.32022 0.76169 0.0
C466 C 0.29587 0.29205 0.8015 0.0
C467 C 0.34367 0.27972 0.75981 0.0
C468 C 0.35482 0.27604 0.7452 0.0
C469 C 0.36081 0.29 0.73442 0.0
C470 C 0.37305 0.28773 0.72229 0.0
C471 C 0.37968 0.27148 0.7206 0.0
C472 C 0.37301 0.25699 0.73057 0.0
C473 C 0.36078 0.25931 0.74285 0.0
C474 C 0.28289 0.24327 0.76402 0.0
C475 C 0.28486 0.27062 0.72281 0.0
O476 O 0.24496 0.26893 0.76664 0.0
O477 O 0.24653 0.29688 0.75906 0.0
O478 O 0.29973 0.30348 0.76213 0.0
O479 O 0.28065 0.31873 0.76076 0.0
O480 O 0.28041 0.29122 0.79199 0.0
O481 O 0.30958 0.28819 0.79407 0.0
O482 O 0.33633 0.29391 0.75933 0.0
O483 O 0.33329 0.26494 0.76485 0.0
O484 O 0.28105 0.25988 0.76264 0.0
O485 O 0.2999 0.24469 0.76582 0.0
O486 O 0.30026 0.27128 0.73237 0.0
O487 O 0.27127 0.27491 0.73022 0.0
H488 H 0.22991 0.2641 0.7948 0.0
H489 H 0.20905 0.26835 0.81641 0.0
H490 H 0.19785 0.31426 0.79097 0.0
H491 H 0.21891 0.3101 0.7693 0.0
H492 H 0.35652 0.30305 0.73576 0.0
H493 H 0.37775 0.29901 0.71458 0.0
H494 H 0.37791 0.24434 0.7296 0.0
H495 H 0.35647 0.24829 0.75096 0.0
Sm496 Sm 0.03684 0.05228 0.51624 0.0
Sm497 Sm 0.04169 0.00963 0.4992 0.0
C498 C 0.0408 0.08939 0.52043 0.0
C499 C 0.03774 0.10092 0.50641 0.0
C500 C 0.04161 0.09615 0.48844 0.0
C501 C 0.03858 0.10693 0.47506 0.0
C502 C 0.03181 0.12285 0.47943 0.0
C503 C 0.02716 0.12707 0.49719 0.0
C504 C 0.03005 0.11611 0.51055 0.0
C505 C 0.00595 0.02308 0.51458 0.0
C506 C 0.02647 0.03427 0.46997 0.0
C507 C 0.03748 0.97243 0.4936 0.0
C508 C 0.0391 0.95954 0.50676 0.0
C509 C 0.03133 0.96097 0.52307 0.0
C510 C 0.03295 0.94875 0.5355 0.0
C511 C 0.04244 0.93496 0.53192 0.0
C512 C 0.05104 0.93423 0.51612 0.0
C513 C 0.04935 0.94644 0.50361 0.0
C514 C 0.07259 0.0386 0.50053 0.0
C515 C 0.05212 0.02779 0.54549 0.0
O516 O 0.05424 0.08176 0.5191 0.0
O517 O 0.02646 0.07756 0.52389 0.0
O518 O 0.02073 0.02202 0.50978 0.0
O519 O 0.00733 0.04084 0.52153 0.0
O520 O 0.02902 0.04867 0.48418 0.0
O521 O 0.02968 0.01755 0.47204 0.0
O522 O 0.02398 0.98008 0.4941 0.0
O523 O 0.05242 0.98457 0.49201 0.0
O524 O 0.0578 0.04 0.50514 0.0
O525 O 0.07121 0.02066 0.49442 0.0
O526 O 0.04837 0.01285 0.53156 0.0
O527 O 0.05 0.04486 0.54304 0.0
H528 H 0.04723 0.08424 0.48475 0.0
H529 H 0.04198 0.1031 0.46141 0.0
H530 H 0.02205 0.13933 0.50104 0.0
H531 H 0.02661 0.11972 0.52422 0.0
H532 H 0.02387 0.97141 0.52618 0.0
H533 H 0.02652 0.94987 0.54779 0.0
H534 H 0.05846 0.92375 0.51307 0.0
H535 H 0.05584 0.94551 0.49135 0.0
Sm536 Sm 0.30869 0.79878 0.76189 0.0
Sm537 Sm 0.2758 0.76853 0.7633 0.0
C538 C 0.34124 0.82139 0.76862 0.0
C539 C 0.35839 0.81744 0.7738 0.0
C540 C 0.36208 0.81167 0.79075 0.0
C541 C 0.37826 0.80768 0.79538 0.0
C542 C 0.39083 0.80917 0.78307 0.0
C543 C 0.38695 0.81415 0.76587 0.0
C544 C 0.37084 0.81841 0.7613 0.0
C545 C 0.29091 0.78022 0.72832 0.0
C546 C 0.31192 0.75327 0.76506 0.0
C547 C 0.24354 0.74552 0.75593 0.0
C548 C 0.22683 0.74992 0.75015 0.0
C549 C 0.22533 0.75906 0.73485 0.0
C550 C 0.20987 0.76421 0.72995 0.0
C551 C 0.19585 0.76055 0.74037 0.0
C552 C 0.19741 0.75206 0.75599 0.0
C553 C 0.21288 0.74666 0.76083 0.0
C554 C 0.29386 0.78696 0.79691 0.0
C555 C 0.27219 0.81387 0.75949 0.0
O556 O 0.33032 0.82026 0.78097 0.0
O557 O 0.33331 0.81357 0.75186 0.0
O558 O 0.29386 0.77253 0.74195 0.0
O559 O 0.29789 0.79864 0.73185 0.0
O560 O 0.3202 0.77203 0.76739 0.0
O561 O 0.29424 0.7478 0.76186 0.0
O562 O 0.25484 0.74658 0.74394 0.0
O563 O 0.25102 0.75336 0.77284 0.0
O564 O 0.29082 0.79468 0.78332 0.0
O565 O 0.28649 0.76858 0.79343 0.0
O566 O 0.26404 0.79528 0.75872 0.0
O567 O 0.28992 0.8194 0.76148 0.0
H568 H 0.3526 0.81039 0.80054 0.0
H569 H 0.38113 0.80376 0.8087 0.0
H570 H 0.39665 0.81547 0.7563 0.0
H571 H 0.36814 0.82257 0.74808 0.0
H572 H 0.23607 0.76226 0.72664 0.0
H573 H 0.20873 0.77085 0.71788 0.0
H574 H 0.18652 0.74913 0.76406 0.0
H575 H 0.214 0.74002 0.77289 0.0
Sm576 Sm 0.53573 0.03783 0.02267 0.0
Sm577 Sm 0.52991 0.03868 0.98289 0.0
C578 C 0.53182 0.03741 0.05732 0.0
C579 C 0.5187 0.02372 0.06511 0.0
C580 C 0.50248 0.02753 0.06859 0.0
C581 C 0.49005 0.0146 0.07593 0.0
C582 C 0.49372 0.99776 0.08011 0.0
C583 C 0.50942 0.99338 0.07563 0.0
C584 C 0.52184 0.00626 0.0682 0.0
C585 C 0.5362 0.00443 0.0006 0.0
C586 C 0.49574 0.02392 -5e-05 0.0
C587 C 0.53244 0.04072 0.94835 0.0
C588 C 0.54576 0.05447 0.94106 0.0
C589 C 0.56406 0.05625 0.94561 0.0
C590 C 0.57643 0.06812 0.93727 0.0
C591 C 0.57058 0.07818 0.92433 0.0
C592 C 0.55266 0.07844 0.92173 0.0
C593 C 0.54024 0.0665 0.93001 0.0
C594 C 0.52934 0.07151 0.0054 0.0
C595 C 0.57018 0.05138 0.00615 0.0
O596 O 0.52541 0.04855 0.04781 0.0
O597 O 0.54393 0.03072 0.04966 0.0
O598 O 0.52527 0.01395 0.99793 0.0
O599 O 0.54758 0.01241 0.01526 0.0
O600 O 0.50587 0.03445 0.015 0.0
O601 O 0.50267 0.02005 0.98486 0.0
O602 O 0.53817 0.02817 0.95642 0.0
O603 O 0.5214 0.04812 0.95722 0.0
O604 O 0.54062 0.06232 0.00747 0.0
O605 O 0.51735 0.0633 0.99129 0.0
O606 O 0.56006 0.04242 0.99045 0.0
O607 O 0.56326 0.05563 0.02113 0.0
H608 H 0.49956 0.04072 0.06609 0.0
H609 H 0.47818 0.01851 0.0796 0.0
H610 H 0.51254 0.98052 0.07887 0.0
H611 H 0.53407 0.00273 0.06535 0.0
H612 H 0.56879 0.04769 0.95471 0.0
H613 H 0.59024 0.06763 0.93921 0.0
H614 H 0.54798 0.08603 0.91161 0.0
H615 H 0.52623 0.06584 0.92694 0.0
Sm616 Sm 0.29089 0.29871 0.26723 0.0
Sm617 Sm 0.27745 0.25547 0.25157 0.0
C618 C 0.29633 0.33561 0.27919 0.0
C619 C 0.28492 0.34847 0.27883 0.0
C620 C 0.2699 0.34401 0.26534 0.0
C621 C 0.25853 0.35588 0.26556 0.0
C622 C 0.26206 0.37227 0.27931 0.0
C623 C 0.27683 0.37636 0.29312 0.0
C624 C 0.28821 0.36446 0.29288 0.0
C625 C 0.2948 0.2751 0.29205 0.0
C626 C 0.24801 0.27743 0.25997 0.0
C627 C 0.27354 0.2184 0.24905 0.0
C628 C 0.28489 0.2059 0.24342 0.0
C629 C 0.30318 0.21126 0.25032 0.0
C630 C 0.3135 0.19855 0.24666 0.0
C631 C 0.30577 0.1803 0.23596 0.0
C632 C 0.28783 0.17546 0.22791 0.0
C633 C 0.27743 0.1882 0.23168 0.0
C634 C 0.27818 0.27459 0.22173 0.0
C635 C 0.31898 0.27885 0.25224 0.0
O636 O 0.30025 0.32875 0.2632 0.0
O637 O 0.2919 0.32273 0.28956 0.0
O638 O 0.28112 0.27278 0.28039 0.0
O639 O 0.30726 0.28986 0.29027 0.0
O640 O 0.26065 0.29338 0.26069 0.0
O641 O 0.2512 0.26049 0.25848 0.0
O642 O 0.27971 0.23073 0.26443 0.0
O643 O 0.2663 0.2256 0.23607 0.0
O644 O 0.28252 0.28219 0.23857 0.0
O645 O 0.27296 0.25614 0.22026 0.0
O646 O 0.30793 0.26267 0.25419 0.0
O647 O 0.31463 0.2951 0.25389 0.0
H648 H 0.26699 0.33141 0.25464 0.0
H649 H 0.24709 0.35239 0.2549 0.0
H650 H 0.27987 0.38905 0.30375 0.0
H651 H 0.2996 0.36776 0.30357 0.0
H652 H 0.3094 0.225 0.25913 0.0
H653 H 0.3274 0.2027 0.25277 0.0
H654 H 0.28161 0.16145 0.2196 0.0
H655 H 0.26342 0.18396 0.226 0.0
Sm656 Sm 0.5372 0.55256 0.01626 0.0
Sm657 Sm 0.542 0.51268 0.00066 0.0
C658 C 0.54294 0.59003 0.0207 0.0
C659 C 0.53972 0.60251 0.00742 0.0
C660 C 0.55134 0.60659 0.99431 0.0
C661 C 0.54822 0.61794 0.98151 0.0
C662 C 0.53339 0.62554 0.98141 0.0
C663 C 0.52161 0.62132 0.99434 0.0
C664 C 0.52475 0.6099 0.00722 0.0
C665 C 0.50464 0.52561 0.01375 0.0
C666 C 0.52634 0.53511 0.97064 0.0
C667 C 0.5423 0.47639 0.9956 0.0
C668 C 0.54312 0.46301 0.00839 0.0
C669 C 0.53452 0.46392 0.02417 0.0
C670 C 0.53516 0.45102 0.03612 0.0
C671 C 0.54452 0.43708 0.03258 0.0
C672 C 0.55377 0.43674 0.01723 0.0
C673 C 0.55303 0.44962 0.00519 0.0
C674 C 0.56999 0.54336 -0.00096 0.0
C675 C 0.55119 0.52937 0.04695 0.0
O676 O 0.55539 0.58131 0.01774 0.0
O677 O 0.52889 0.57901 0.02562 0.0
O678 O 0.51902 0.52254 0.00944 0.0
O679 O 0.50731 0.54373 0.02008 0.0
O680 O 0.53135 0.55033 0.98409 0.0
O681 O 0.52733 0.51799 0.97375 0.0
O682 O 0.52759 0.48187 0.99378 0.0
O683 O 0.55672 0.49039 0.99686 0.0
O684 O 0.56128 0.54129 0.01248 0.0
O685 O 0.56399 0.52869 0.98568 0.0
O686 O 0.54949 0.51521 0.03277 0.0
O687 O 0.54746 0.54568 0.04453 0.0
H688 H 0.563 0.60114 0.99397 0.0
H689 H 0.55781 0.62126 0.97205 0.0
H690 H 0.51005 0.62694 0.99457 0.0
H691 H 0.51548 0.6069 0.01705 0.0
H692 H 0.52714 0.47447 0.02716 0.0
H693 H 0.52816 0.45176 0.04803 0.0
H694 H 0.56102 0.42609 0.01417 0.0
H695 H 0.56 0.44897 0.99325 0.0
Sm696 Sm 0.80863 0.29945 0.26418 0.0
Sm697 Sm 0.77498 0.26765 0.26065 0.0
C698 C 0.84056 0.32208 0.27641 0.0
C699 C 0.85778 0.31765 0.27982 0.0
C700 C 0.86125 0.30789 0.2942 0.0
C701 C 0.87745 0.30333 0.297 0.0
C702 C 0.8904 0.30853 0.28554 0.0
C703 C 0.8867 0.31761 0.27077 0.0
C704 C 0.87052 0.32218 0.26796 0.0
C705 C 0.79579 0.28086 0.22924 0.0
C706 C 0.81173 0.25331 0.26536 0.0
C707 C 0.74325 0.24463 0.24839 0.0
C708 C 0.72592 0.24905 0.24656 0.0
C709 C 0.71897 0.25232 0.22949 0.0
C710 C 0.70445 0.25999 0.2282 0.0
C711 C 0.69645 0.26421 0.24388 0.0
C712 C 0.70277 0.26011 0.26079 0.0
C713 C 0.71749 0.25263 0.26216 0.0
C714 C 0.78841 0.2859 0.29561 0.0
C715 C 0.77169 0.31375 0.25896 0.0
O716 O 0.82894 0.31645 0.28743 0.0
O717 O 0.8335 0.31905 0.25905 0.0
O718 O 0.79663 0.27333 0.24331 0.0
O719 O 0.80268 0.29932 0.23302 0.0
O720 O 0.81981 0.27221 0.26908 0.0
O721 O 0.79418 0.24763 0.26029 0.0
O722 O 0.75417 0.25202 0.23739 0.0
O723 O 0.75111 0.24619 0.26528 0.0
O724 O 0.78719 0.2936 0.28168 0.0
O725 O 0.7813 0.26746 0.29174 0.0
O726 O 0.76353 0.29498 0.25724 0.0
O727 O 0.78942 0.31952 0.26227 0.0
H728 H 0.85158 0.3039 0.30342 0.0
H729 H 0.88012 0.29644 0.30856 0.0
H730 H 0.89651 0.32153 0.26165 0.0
H731 H 0.868 0.32937 0.25658 0.0
H732 H 0.72512 0.24958 0.21722 0.0
H733 H 0.69937 0.26247 0.21486 0.0
H734 H 0.6965 0.26297 0.27295 0.0
H735 H 0.72252 0.25022 0.27552 0.0
Sm736 Sm 0.03661 0.53754 0.52146 0.0
Sm737 Sm 0.02948 0.53821 0.48077 0.0
C738 C 0.03577 0.53706 0.55666 0.0
C739 C 0.02201 0.52586 0.56564 0.0
C740 C 0.00398 0.52486 0.56052 0.0
C741 C 0.99104 0.51505 0.56972 0.0
C742 C 0.99598 0.50625 0.58423 0.0
C743 C 0.0137 0.50549 0.58803 0.0
C744 C 0.02671 0.51531 0.57874 0.0
C745 C 0.03829 0.50542 0.49876 0.0
C746 C 0.99587 0.52366 0.49912 0.0
C747 C 0.03025 0.53838 0.44548 0.0
C748 C 0.04324 0.55081 0.43657 0.0
C749 C 0.05301 0.54238 0.42462 0.0
C750 C 0.06767 0.55372 0.41872 0.0
C751 C 0.07271 0.57369 0.4246 0.0
C752 C 0.06243 0.58232 0.43576 0.0
C753 C 0.04785 0.57091 0.44193 0.0
C754 C 0.02885 0.57068 0.50393 0.0
C755 C 0.0704 0.55108 0.50269 0.0
O756 O 0.03152 0.5505 0.54871 0.0
O757 O 0.0442 0.52692 0.54673 0.0
O758 O 0.02652 0.51408 0.49648 0.0
O759 O 0.04947 0.51336 0.51357 0.0
O760 O 0.0062 0.5327 0.51471 0.0
O761 O 0.00253 0.52004 0.4838 0.0
O762 O 0.03658 0.52652 0.45404 0.0
O763 O 0.02003 0.54663 0.45486 0.0
O764 O 0.04027 0.56157 0.50565 0.0
O765 O 0.01712 0.56293 0.48948 0.0
O766 O 0.0598 0.54279 0.48709 0.0
O767 O 0.06411 0.55466 0.51829 0.0
H768 H 0.99994 0.53234 0.54999 0.0
H769 H 0.97737 0.51567 0.56658 0.0
H770 H 0.01773 0.49874 0.59921 0.0
H771 H 0.0405 0.51536 0.58232 0.0
H772 H 0.04973 0.52695 0.42043 0.0
H773 H 0.07516 0.54685 0.40959 0.0
H774 H 0.06597 0.59774 0.44007 0.0
H775 H 0.0406 0.57778 0.45133 0.0
Sm776 Sm 0.77034 0.7861 0.25964 0.0
Sm777 Sm 0.80932 0.77672 0.26268 0.0
C778 C 0.73652 0.78362 0.26365 0.0
C779 C 0.7257 0.78814 0.27833 0.0
C780 C 0.72442 0.77867 0.29361 0.0
C781 C 0.71231 0.78129 0.30593 0.0
C782 C 0.70115 0.7933 0.30315 0.0
C783 C 0.70317 0.80356 0.28851 0.0
C784 C 0.71532 0.80104 0.27628 0.0
C785 C 0.79793 0.82016 0.26181 0.0
C786 C 0.79402 0.7897 0.30038 0.0
C787 C 0.84323 0.77984 0.25867 0.0
C788 C 0.85446 0.7748 0.24457 0.0
C789 C 0.86235 0.78867 0.23446 0.0
C790 C 0.87468 0.78527 0.22282 0.0
C791 C 0.87945 0.76791 0.22092 0.0
C792 C 0.871 0.75358 0.23024 0.0
C793 C 0.85867 0.75703 0.24208 0.0
C794 C 0.78194 0.74318 0.26237 0.0
C795 C 0.78433 0.77021 0.2218 0.0
O796 O 0.74393 0.76957 0.26474 0.0
O797 O 0.74665 0.79795 0.25771 0.0
O798 O 0.79937 0.80317 0.26186 0.0
O799 O 0.78104 0.81918 0.26092 0.0
O800 O 0.77849 0.78763 0.29039 0.0
O801 O 0.80868 0.78849 0.29321 0.0
O802 O 0.83502 0.79295 0.25587 0.0
O803 O 0.83372 0.76617 0.26599 0.0
O804 O 0.78052 0.75992 0.26098 0.0
O805 O 0.79892 0.74431 0.26466 0.0
O806 O 0.79953 0.77046 0.23156 0.0
O807 O 0.7709 0.77511 0.22901 0.0
H808 H 0.73229 0.76871 0.2957 0.0
H809 H 0.71101 0.77315 0.31705 0.0
H810 H 0.6949 0.8131 0.28618 0.0
H811 H 0.7161 0.80864 0.26476 0.0
H812 H 0.85951 0.80252 0.23603 0.0
H813 H 0.88097 0.79652 0.21573 0.0
H814 H 0.87456 0.74011 0.22908 0.0
H815 H 0.85291 0.74605 0.2497 0.0
Sm816 Sm 0.79223 0.28899 0.74749 0.0
Sm817 Sm 0.77855 0.28788 0.78755 0.0
C818 C 0.79584 0.29258 0.71336 0.0
C819 C 0.80922 0.30553 0.70524 0.0
C820 C 0.80886 0.32467 0.70559 0.0
C821 C 0.82025 0.33624 0.6961 0.0
C822 C 0.83199 0.32877 0.68597 0.0
C823 C 0.83354 0.31029 0.68701 0.0
C824 C 0.8222 0.29871 0.69661 0.0
C825 C 0.82077 0.29165 0.77463 0.0
C826 C 0.79541 0.32851 0.7761 0.0
C827 C 0.77374 0.28432 0.82146 0.0
C828 C 0.75991 0.27192 0.82958 0.0
C829 C 0.75875 0.2523 0.82824 0.0
C830 C 0.74739 0.24125 0.83815 0.0
C831 C 0.73708 0.24966 0.8496 0.0
C832 C 0.73687 0.26872 0.84945 0.0
C833 C 0.74828 0.27983 0.83952 0.0
C834 C 0.75028 0.28469 0.75954 0.0
C835 C 0.77824 0.24854 0.76039 0.0
O836 O 0.78537 0.30051 0.72275 0.0
O837 O 0.8012 0.27956 0.72104 0.0
O838 O 0.80472 0.29061 0.7767 0.0
O839 O 0.82217 0.29208 0.75736 0.0
O840 O 0.7932 0.32003 0.75867 0.0
O841 O 0.79351 0.31924 0.79005 0.0
O842 O 0.78403 0.27583 0.81233 0.0
O843 O 0.76905 0.29761 0.81362 0.0
O844 O 0.76646 0.28612 0.75839 0.0
O845 O 0.74826 0.28404 0.77663 0.0
O846 O 0.77996 0.25755 0.77755 0.0
O847 O 0.77893 0.25722 0.74598 0.0
H848 H 0.79917 0.33047 0.71233 0.0
H849 H 0.81859 0.35034 0.69515 0.0
H850 H 0.84242 0.3043 0.67908 0.0
H851 H 0.82293 0.28411 0.69643 0.0
H852 H 0.76731 0.24566 0.82042 0.0
H853 H 0.74801 0.22664 0.83821 0.0
H854 H 0.72897 0.27541 0.85818 0.0
H855 H 0.74871 0.29483 0.84044 0.0
Sm856 Sm 0.79295 0.79911 0.76616 0.0
Sm857 Sm 0.77879 0.75515 0.75181 0.0
C858 C 0.79875 0.83635 0.77522 0.0
C859 C 0.78662 0.84844 0.7758 0.0
C860 C 0.77053 0.8429 0.76368 0.0
C861 C 0.75844 0.8539 0.76507 0.0
C862 C 0.76233 0.87043 0.77864 0.0
C863 C 0.77821 0.87563 0.79108 0.0
C864 C 0.79032 0.86464 0.78965 0.0
C865 C 0.79635 0.77647 0.79209 0.0
C866 C 0.7502 0.77814 0.76242 0.0
C867 C 0.77504 0.71819 0.75018 0.0
C868 C 0.78613 0.70548 0.7442 0.0
C869 C 0.80467 0.71115 0.74983 0.0
C870 C 0.81488 0.69832 0.74606 0.0
C871 C 0.80679 0.6796 0.73654 0.0
C872 C 0.78849 0.67439 0.72969 0.0
C873 C 0.77822 0.68726 0.73356 0.0
C874 C 0.77968 0.77354 0.7214 0.0
C875 C 0.82067 0.77821 0.75259 0.0
O876 O 0.80027 0.82795 0.75877 0.0
O877 O 0.79708 0.825 0.78736 0.0
O878 O 0.78288 0.77378 0.78005 0.0
O879 O 0.80879 0.79132 0.79036 0.0
O880 O 0.76274 0.79389 0.76214 0.0
O881 O 0.75298 0.76095 0.75989 0.0
O882 O 0.7819 0.73096 0.76514 0.0
O883 O 0.76707 0.72494 0.73731 0.0
O884 O 0.78414 0.78124 0.73818 0.0
O885 O 0.77398 0.75516 0.72027 0.0
O886 O 0.80938 0.7622 0.75461 0.0
O887 O 0.81647 0.79447 0.7534 0.0
H888 H 0.76731 0.83011 0.75317 0.0
H889 H 0.7462 0.84968 0.75541 0.0
H890 H 0.78152 0.88851 0.80149 0.0
H891 H 0.80256 0.86876 0.79931 0.0
H892 H 0.81121 0.72524 0.75778 0.0
H893 H 0.82903 0.70281 0.75119 0.0
H894 H 0.78195 0.66004 0.7223 0.0
H895 H 0.764 0.68274 0.72886 0.0
Sm896 Sm 0.52345 0.52475 0.5011 0.0
Sm897 Sm 0.56062 0.54192 0.52181 0.0
C898 C 0.4885 0.51593 0.49235 0.0
C899 C 0.47602 0.5277 0.49068 0.0
C900 C 0.47837 0.54499 0.50303 0.0
C901 C 0.46642 0.55611 0.50096 0.0
C902 C 0.45215 0.55003 0.48652 0.0
C903 C 0.45026 0.53323 0.47379 0.0
C904 C 0.46218 0.52215 0.47582 0.0
C905 C 0.54603 0.52253 0.47365 0.0
C906 C 0.54098 0.57114 0.505 0.0
C907 C 0.59569 0.55075 0.53096 0.0
C908 C 0.60898 0.5397 0.5324 0.0
C909 C 0.60922 0.52478 0.51818 0.0
C910 C 0.62222 0.51482 0.51973 0.0
C911 C 0.63505 0.51946 0.53558 0.0
C912 C 0.63425 0.53372 0.55016 0.0
C913 C 0.62135 0.54381 0.54853 0.0
C914 C 0.53751 0.54475 0.54879 0.0
C915 C 0.54277 0.49554 0.51846 0.0
O916 O 0.49627 0.5164 0.50896 0.0
O917 O 0.49938 0.51672 0.48007 0.0
O918 O 0.55125 0.52949 0.49094 0.0
O919 O 0.52885 0.51609 0.47127 0.0
O920 O 0.52631 0.55692 0.50168 0.0
O921 O 0.55649 0.56898 0.51165 0.0
O922 O 0.58801 0.55076 0.51443 0.0
O923 O 0.58457 0.54907 0.543 0.0
O924 O 0.53286 0.53767 0.53154 0.0
O925 O 0.55472 0.55095 0.55164 0.0
O926 O 0.55742 0.50981 0.52172 0.0
O927 O 0.52742 0.49768 0.51128 0.0
H928 H 0.48925 0.54974 0.51437 0.0
H929 H 0.46786 0.56897 0.51101 0.0
H930 H 0.43921 0.5284 0.46261 0.0
H931 H 0.46047 0.50911 0.46595 0.0
H932 H 0.59954 0.52097 0.50579 0.0
H933 H 0.62243 0.50365 0.50843 0.0
H934 H 0.64401 0.53756 0.56249 0.0
H935 H 0.62118 0.55505 0.55978 0.0
Sm936 Sm 0.05582 0.53069 0.00661 0.0
Sm937 Sm 0.01427 0.52774 0.00908 0.0
C938 C 0.0882 0.52499 0.00795 0.0
C939 C 0.09764 0.50976 0.00387 0.0
C940 C 0.10198 0.49963 0.0176 0.0
C941 C 0.11273 0.48704 0.01456 0.0
C942 C 0.11953 0.48419 0.99771 0.0
C943 C 0.11463 0.49382 0.98372 0.0
C944 C 0.10392 0.50647 0.98679 0.0
C945 C 0.03465 0.53048 0.97521 0.0
C946 C 0.02588 0.4888 0.00306 0.0
C947 C 0.98193 0.53322 0.0059 0.0
C948 C 0.97282 0.54823 0.01199 0.0
C949 C 0.9703 0.56133 0.00055 0.0
C950 C 0.96025 0.57424 0.00529 0.0
C951 C 0.95231 0.57439 0.02158 0.0
C952 C 0.95533 0.56174 0.03337 0.0
C953 C 0.96542 0.54881 0.02862 0.0
C954 C 0.0348 0.52789 0.04059 0.0
C955 C 0.04519 0.57013 0.01649 0.0
O956 O 0.07928 0.52488 0.02208 0.0
O957 O 0.08038 0.53031 0.99393 0.0
O958 O 0.03035 0.52038 0.98711 0.0
O959 O 0.05114 0.54066 0.97892 0.0
O960 O 0.04244 0.49946 0.00854 0.0
O961 O 0.01246 0.4962 -0.00099 0.0
O962 O 0.99269 0.53639 0.99347 0.0
O963 O 0.98775 0.52454 0.01852 0.0
O964 O 0.03945 0.5376 0.02851 0.0
O965 O 0.018 0.51862 0.03729 0.0
O966 O 0.02825 0.56008 0.01203 0.0
O967 O 0.05867 0.56224 0.01757 0.0
H968 H 0.09756 0.50189 0.03098 0.0
H969 H 0.11632 0.4802 0.02582 0.0
H970 H 0.1193 0.49183 0.97045 0.0
H971 H 0.10095 0.51406 0.97589 0.0
H972 H 0.97566 0.56123 0.98758 0.0
H973 H 0.95804 0.58352 0.9957 0.0
H974 H 0.94963 0.56158 0.04613 0.0
H975 H 0.96705 0.53894 0.0378 0.0
H976 H 0.98383 0.1918 0.92686 0.0
H977 H 0.99317 0.16732 0.94169 0.0
H978 H 0.04419 0.20739 0.96298 0.0
H979 H 0.03504 0.23181 0.9476 0.0
H980 H 0.02688 0.15471 0.93604 0.0
H981 H 0.02171 0.18388 0.00865 0.0
H982 H 0.0096 0.18961 0.98913 0.0
H983 H 0.03314 0.20021 0.99501 0.0
C984 C 0.99714 0.19526 0.93447 0.0
C985 C 0.00887 0.2135 0.93572 0.0
C986 C 0.0024 0.18135 0.94305 0.0
C987 C 0.01932 0.18556 0.95355 0.0
C988 C 0.03106 0.20385 0.95497 0.0
H989 H 0.06486 0.10678 0.01114 0.0
H990 H 0.06131 0.13592 3e-05 0.0
C991 C 0.02593 0.21768 0.94601 0.0
C992 C 0.02476 0.17046 0.9623 0.0
H993 H 0.03066 0.15527 0.00351 0.0
C994 C 0.02786 0.15492 0.95081 0.0
C995 C 0.02603 0.17076 0.98157 0.0
C996 C 0.02238 0.18692 0.99442 0.0
C997 C 0.03201 0.13959 0.95801 0.0
C998 C 0.03281 0.13959 0.97721 0.0
C999 C 0.03013 0.15534 0.98882 0.0
C1000 C 0.03489 0.12253 0.98502 0.0
C1001 C 0.03531 0.12334 0.94497 0.0
C1002 C 0.02112 0.10551 0.98057 0.0
C1003 C 0.02304 0.08901 0.98693 0.0
C1004 C 0.03883 0.08901 0.99791 0.0
C1005 C 0.05255 0.10622 0.00268 0.0
C1006 C 0.05053 0.12288 0.99638 0.0
H1007 H 0.03845 0.12754 0.93159 0.0
H1008 H 0.04648 0.11839 0.9512 0.0
H1009 H 0.02316 0.11111 0.94213 0.0
H1010 H 0.00889 0.10493 0.97195 0.0
H1011 H 0.01213 0.07613 0.98291 0.0
H1012 H 0.12366 0.77632 0.12485 0.0
H1013 H 0.14766 0.77302 0.14675 0.0
H1014 H 0.13947 0.81865 0.18621 0.0
H1015 H 0.11455 0.82115 0.16448 0.0
H1016 H 0.17799 0.79648 0.1593 0.0
H1017 H 0.144 0.78267 0.22007 0.0
H1018 H 0.13183 0.78221 0.19791 0.0
H1019 H 0.14229 0.80467 0.21318 0.0
C1020 C 0.12676 0.78542 0.13836 0.0
C1021 C 0.11717 0.79892 0.14302 0.0
C1022 C 0.14056 0.78357 0.15087 0.0
C1023 C 0.14544 0.79542 0.16833 0.0
C1024 C 0.13575 0.8089 0.1731 0.0
H1025 H 0.23467 0.81862 0.25474 0.0
H1026 H 0.20849 0.81801 0.23365 0.0
C1027 C 0.12154 0.81043 0.16065 0.0
C1028 C 0.16128 0.79422 0.18083 0.0
H1029 H 0.17575 0.78985 0.2248 0.0
C1030 C 0.17738 0.79484 0.17357 0.0
C1031 C 0.16067 0.79206 0.19952 0.0
C1032 C 0.14372 0.79017 0.20808 0.0
C1033 C 0.1928 0.79373 0.18444 0.0
C1034 C 0.19224 0.79189 0.20315 0.0
C1035 C 0.17619 0.79121 0.21044 0.0
C1036 C 0.2084 0.79185 0.2157 0.0
C1037 C 0.20974 0.79509 0.17593 0.0
C1038 C 0.21721 0.77728 0.21271 0.0
C1039 C 0.23236 0.77757 0.22487 0.0
C1040 C 0.2389 0.79245 0.24021 0.0
C1041 C 0.23005 0.80696 0.24304 0.0
C1042 C 0.21499 0.80662 0.23101 0.0
H1043 H 0.209 0.80042 0.16265 0.0
H1044 H 0.22138 0.80474 0.1855 0.0
H1045 H 0.21208 0.78066 0.17319 0.0
H1046 H 0.21224 0.76557 0.20112 0.0
H1047 H 0.23879 0.76611 0.2224 0.0
H1048 H 0.50042 0.82076 0.41696 0.0
H1049 H 0.50639 0.85509 0.42895 0.0
H1050 H 0.53752 0.84858 0.47789 0.0
H1051 H 0.5312 0.81393 0.46602 0.0
H1052 H 0.49596 0.86323 0.46948 0.0
H1053 H 0.56335 0.90161 0.45614 0.0
H1054 H 0.55 0.88009 0.4409 0.0
H1055 H 0.56015 0.87858 0.46323 0.0
C1056 C 0.50892 0.82682 0.43005 0.0
C1057 C 0.51532 0.81501 0.44072 0.0
C1058 C 0.51236 0.84632 0.4368 0.0
C1059 C 0.52245 0.85417 0.45416 0.0
C1060 C 0.52984 0.84261 0.46437 0.0
H1061 H 0.54338 0.96652 0.52 0.0
H1062 H 0.54154 0.93291 0.50887 0.0
C1063 C 0.52617 0.82296 0.4577 0.0
C1064 C 0.52247 0.87349 0.46284 0.0
H1065 H 0.54695 0.92005 0.47222 0.0
C1066 C 0.50709 0.87571 0.47016 0.0
C1067 C 0.53706 0.88948 0.46356 0.0
C1068 C 0.55363 0.88752 0.45552 0.0
C1069 C 0.50591 0.89373 0.47834 0.0
C1070 C 0.52042 0.9098 0.47894 0.0
C1071 C 0.53588 0.90756 0.47171 0.0
C1072 C 0.51986 0.92917 0.48692 0.0
C1073 C 0.48927 0.89541 0.48644 0.0
C1074 C 0.50788 0.93785 0.4785 0.0
C1075 C 0.50878 0.95699 0.48492 0.0
C1076 C 0.52187 0.96762 0.49962 0.0
C1077 C 0.53326 0.95861 0.50855 0.0
C1078 C 0.53226 0.93949 0.50222 0.0
H1079 H 0.48114 0.88131 0.48853 0.0
H1080 H 0.4927 0.90545 0.49987 0.0
H1081 H 0.48095 0.90112 0.47686 0.0
H1082 H 0.49839 0.93008 0.46649 0.0
H1083 H 0.49999 0.96373 0.47771 0.0
H1084 H 0.52555 0.32208 0.66577 0.0
H1085 H 0.49654 0.31111 0.67595 0.0
H1086 H 0.48582 0.25795 0.63747 0.0
H1087 H 0.51503 0.26872 0.62734 0.0
H1088 H 0.4633 0.30113 0.65305 0.0
H1089 H 0.47273 0.23988 0.68576 0.0
H1090 H 0.49137 0.25775 0.68087 0.0
H1091 H 0.47739 0.24 0.66243 0.0
C1092 C 0.51713 0.30799 0.65955 0.0
C1093 C 0.52269 0.29632 0.64574 0.0
C1094 C 0.50052 0.30172 0.66539 0.0
C1095 C 0.48903 0.28363 0.65761 0.0
C1096 C 0.49456 0.27181 0.64393 0.0
H1097 H 0.38356 0.24174 0.69494 0.0
H1098 H 0.40856 0.24193 0.67695 0.0
C1099 C 0.51126 0.27806 0.6381 0.0
C1100 C 0.47099 0.27792 0.66333 0.0
H1101 H 0.44569 0.2482 0.68795 0.0
C1102 C 0.4594 0.28943 0.66051 0.0
C1103 C 0.46565 0.26234 0.67266 0.0
C1104 C 0.47741 0.24927 0.67575 0.0
C1105 C 0.44312 0.28645 0.66758 0.0
C1106 C 0.43843 0.27189 0.67823 0.0
C1107 C 0.4494 0.25951 0.68 0.0
C1108 C 0.42339 0.27096 0.68926 0.0
C1109 C 0.43122 0.29924 0.66386 0.0
C1110 C 0.42364 0.28695 0.70243 0.0
C1111 C 0.40946 0.28692 0.71249 0.0
C1112 C 0.39472 0.27079 0.70986 0.0
C1113 C 0.39471 0.25442 0.69717 0.0
C1114 C 0.40896 0.25452 0.68691 0.0
H1115 H 0.43336 0.30473 0.65082 0.0
H1116 H 0.41692 0.29156 0.66297 0.0
H1117 H 0.43446 0.31177 0.67527 0.0
H1118 H 0.43485 0.29958 0.70492 0.0
H1119 H 0.4101 0.29957 0.72249 0.0
H1120 H 0.976 0.79866 0.60128 0.0
H1121 H 0.9908 0.82594 0.58767 0.0
H1122 H 0.04211 0.8229 0.61229 0.0
H1123 H 0.02751 0.79582 0.62614 0.0
H1124 H 0.0213 0.86238 0.61405 0.0
H1125 H 0.0386 0.82285 0.551 0.0
H1126 H 0.01919 0.8123 0.56107 0.0
H1127 H 0.04103 0.81514 0.57298 0.0
C1128 C 0.99042 0.80376 0.60371 0.0
C1129 C 1.00059 0.79525 0.61481 0.0
C1130 C 0.99882 0.81927 0.59596 0.0
C1131 C 0.01747 0.8262 0.59899 0.0
C1132 C 0.0277 0.81761 0.60984 0.0
H1133 H 0.06997 0.92143 0.54567 0.0
H1134 H 0.06784 0.8958 0.56417 0.0
C1135 C 0.01932 0.80226 0.61777 0.0
C1136 C 0.02606 0.84302 0.59142 0.0
H1137 H 0.04272 0.85618 0.55301 0.0
C1138 C 0.02629 0.86113 0.60087 0.0
C1139 C 0.03277 0.84117 0.57441 0.0
C1140 C 0.03298 0.82186 0.56415 0.0
C1141 C 0.03216 0.87749 0.59315 0.0
C1142 C 0.03762 0.87551 0.57548 0.0
C1143 C 0.03851 0.85755 0.56658 0.0
C1144 C 0.03952 0.89122 0.56491 0.0
C1145 C 0.03176 0.89669 0.60355 0.0
C1146 C 0.02427 0.89678 0.55918 0.0
C1147 C 0.02542 0.91119 0.54873 0.0
C1148 C 0.04184 0.92027 0.54371 0.0
C1149 C 0.05716 0.91461 0.54937 0.0
C1150 C 0.05599 0.90009 0.55991 0.0
H1151 H 0.03197 0.89665 0.61859 0.0
H1152 H 0.04328 0.90819 0.60144 0.0
H1153 H 0.01933 0.9001 0.59833 0.0
H1154 H 0.01139 0.88975 0.56261 0.0
H1155 H 0.01332 0.91491 0.54419 0.0
H1156 H 0.55209 0.83685 0.85158 0.0
H1157 H 0.52321 0.83712 0.836 0.0
H1158 H 0.51198 0.77649 0.81497 0.0
H1159 H 0.5404 0.77596 0.83189 0.0
H1160 H 0.50511 0.82922 0.80325 0.0
H1161 H 0.47228 0.77718 0.84473 0.0
H1162 H 0.49598 0.78803 0.84855 0.0
H1163 H 0.48634 0.76754 0.83048 0.0
C1164 C 0.54372 0.82374 0.84305 0.0
C1165 C 0.54832 0.80637 0.84274 0.0
C1166 C 0.52717 0.82387 0.83432 0.0
C1167 C 0.51528 0.80669 0.82486 0.0
C1168 C 0.52077 0.78974 0.82279 0.0
H1169 H 0.40802 0.78416 0.76732 0.0
H1170 H 0.43881 0.78329 0.77717 0.0
C1171 C 0.53708 0.78948 0.83207 0.0
C1172 C 0.49676 0.80632 0.81838 0.0
H1173 H 0.45341 0.78433 0.82117 0.0
C1174 C 0.49382 0.81937 0.80712 0.0
C1175 C 0.48207 0.79386 0.824 0.0
C1176 C 0.48431 0.78104 0.83778 0.0
C1177 C 0.47651 0.81992 0.80091 0.0
C1178 C 0.46197 0.80681 0.80577 0.0
C1179 C 0.46479 0.79395 0.81717 0.0
C1180 C 0.44363 0.80701 0.79998 0.0
C1181 C 0.47377 0.8346 0.78942 0.0
C1182 C 0.43643 0.82037 0.80989 0.0
C1183 C 0.41901 0.82071 0.8045 0.0
C1184 C 0.40873 0.80776 0.78909 0.0
C1185 C 0.41589 0.79425 0.77922 0.0
C1186 C 0.43331 0.79377 0.78478 0.0
H1187 H 0.48646 0.84265 0.78547 0.0
H1188 H 0.46424 0.82754 0.77671 0.0
H1189 H 0.46787 0.84497 0.79742 0.0
H1190 H 0.44434 0.83058 0.8217 0.0
H1191 H 0.41366 0.83132 0.81211 0.0
H1192 H 0.50995 0.22157 0.10082 0.0
H1193 H 0.51965 0.19809 0.08011 0.0
H1194 H 0.47389 0.15378 0.08671 0.0
H1195 H 0.46427 0.1771 0.10779 0.0
H1196 H 0.52289 0.16068 0.09689 0.0
H1197 H 0.4817 0.1516 0.02856 0.0
H1198 H 0.48745 0.17372 0.04514 0.0
H1199 H 0.47083 0.15338 0.04888 0.0
C1200 C 0.50154 0.207 0.09716 0.0
C1201 C 0.4864 0.20093 0.10574 0.0
C1202 C 0.50723 0.19367 0.08562 0.0
C1203 C 0.4975 0.17446 0.08231 0.0
C1204 C 0.48146 0.1687 0.08937 0.0
H1205 H 0.49875 0.07063 0.01917 0.0
H1206 H 0.49353 0.0948 0.04286 0.0
C1207 C 0.47591 0.18194 0.10115 0.0
C1208 C 0.50472 0.16 0.07273 0.0
H1209 H 0.49822 0.12923 0.03225 0.0
C1210 C 0.51772 0.15378 0.0827 0.0
C1211 C 0.4977 0.15134 0.05441 0.0
C1212 C 0.4837 0.15785 0.0435 0.0
C1213 C 0.52347 0.13823 0.07476 0.0
C1214 C 0.51609 0.12927 0.05648 0.0
C1215 C 0.50359 0.13609 0.04641 0.0
C1216 C 0.52074 0.11263 0.04708 0.0
C1217 C 0.53683 0.13119 0.08604 0.0
C1218 C 0.53797 0.11443 0.04249 0.0
C1219 C 0.54101 0.10043 0.02928 0.0
C1220 C 0.52669 0.08514 0.0203 0.0
C1221 C 0.50978 0.08273 0.02572 0.0
C1222 C 0.50689 0.0963 0.03934 0.0
H1223 H 0.53778 0.1366 0.10106 0.0
H1224 H 0.53327 0.11529 0.0836 0.0
H1225 H 0.55019 0.13635 0.08187 0.0
H1226 H 0.54868 0.12716 0.04814 0.0
H1227 H 0.55421 0.10211 0.02528 0.0
H1228 H 0.13716 0.35092 0.33855 0.0
H1229 H 0.15668 0.34108 0.31709 0.0
H1230 H 0.1501 0.28769 0.33702 0.0
H1231 H 0.13099 0.29736 0.35855 0.0
H1232 H 0.18948 0.32723 0.32996 0.0
H1233 H 0.13704 0.27503 0.27779 0.0
H1234 H 0.13252 0.29469 0.29268 0.0
H1235 H 0.13528 0.27404 0.30174 0.0
C1236 C 0.14 0.33716 0.3384 0.0
C1237 C 0.13272 0.32498 0.35029 0.0
C1238 C 0.151 0.33155 0.32613 0.0
C1239 C 0.15445 0.3136 0.32544 0.0
C1240 C 0.14731 0.3015 0.33732 0.0
H1241 H 0.22334 0.25316 0.27498 0.0
H1242 H 0.19863 0.26127 0.28933 0.0
C1243 C 0.13659 0.30717 0.34972 0.0
C1244 C 0.16631 0.3077 0.31303 0.0
H1245 H 0.16709 0.27544 0.27504 0.0
C1246 C 0.18465 0.3161 0.31781 0.0
C1247 C 0.15976 0.29293 0.29749 0.0
C1248 C 0.14006 0.28366 0.29197 0.0
C1249 C 0.19679 0.30985 0.30747 0.0
C1250 C 0.19023 0.29518 0.29182 0.0
C1251 C 0.1719 0.28677 0.28703 0.0
C1252 C 0.20244 0.2886 0.2803 0.0
C1253 C 0.21653 0.31861 0.31357 0.0
C1254 C 0.21192 0.30093 0.26982 0.0
C1255 C 0.22592 0.29638 0.26164 0.0
C1256 C 0.23053 0.27942 0.26387 0.0
C1257 C 0.21995 0.26626 0.27297 0.0
C1258 C 0.20595 0.27089 0.28124 0.0
H1259 H 0.21936 0.32713 0.32779 0.0
H1260 H 0.22373 0.30728 0.31311 0.0
H1261 H 0.22193 0.32824 0.30404 0.0
H1262 H 0.20915 0.31457 0.26889 0.0
H1263 H 0.23382 0.30668 0.25456 0.0
H1264 H 0.97771 0.08126 0.21054 0.0
H1265 H 0.99186 0.0807 0.18212 0.0
H1266 H 0.9508 0.02997 0.15638 0.0
H1267 H 0.93666 0.03081 0.18449 0.0
H1268 H 0.00745 0.05645 0.16362 0.0
H1269 H 0.95033 0.05705 0.11389 0.0
H1270 H 0.9503 0.06218 0.13849 0.0
H1271 H 0.94492 0.03775 0.12646 0.0
C1272 C 0.97119 0.07047 0.19856 0.0
C1273 C 0.95521 0.05674 0.19985 0.0
C1274 C 0.97956 0.06992 0.18218 0.0
C1275 C 0.97246 0.05554 0.16626 0.0
C1276 C 0.95656 0.04179 0.1677 0.0
H1277 H 0.00365 0.02394 0.05342 0.0
H1278 H 0.98862 0.026 0.08129 0.0
C1279 C 0.94826 0.04234 0.184 0.0
C1280 C 0.98183 0.05433 0.14865 0.0
H1281 H 0.97459 0.04874 0.10097 0.0
C1282 C 1.00015 0.05491 0.14999 0.0
C1283 C 0.97283 0.05214 0.13037 0.0
C1284 C 0.95357 0.05243 0.12716 0.0
C1285 C 0.00925 0.05288 0.13419 0.0
C1286 C 1.00022 0.05073 0.11584 0.0
C1287 C 0.98192 0.05023 0.11457 0.0
C1288 C 0.00941 0.04939 0.09808 0.0
C1289 C 0.02844 0.0523 0.13756 0.0
C1290 C 0.02613 0.06195 0.09712 0.0
C1291 C 0.0348 0.06061 0.08117 0.0
C1292 C 0.02717 0.047 0.06486 0.0
C1293 C 0.01014 0.03477 0.06537 0.0
C1294 C 1.00149 0.03595 0.08159 0.0
H1295 H 0.03131 0.04708 0.15059 0.0
H1296 H 0.03186 0.04288 0.12607 0.0
H1297 H 0.03728 0.067 0.13898 0.0
H1298 H 0.03264 0.07313 0.10877 0.0
H1299 H 0.04777 0.07049 0.08169 0.0
H1300 H 0.29993 0.68635 0.48054 0.0
H1301 H 0.28923 0.69493 0.45141 0.0
H1302 H 0.23478 0.67227 0.46021 0.0
H1303 H 0.24536 0.6648 0.48962 0.0
H1304 H 0.2683 0.67408 0.42017 0.0
H1305 H 0.23542 0.72607 0.45471 0.0
H1306 H 0.2502 0.71558 0.46739 0.0
H1307 H 0.2274 0.7023 0.45928 0.0
C1308 C 0.28572 0.68348 0.47625 0.0
C1309 C 0.27343 0.6756 0.4874 0.0
C1310 C 0.27963 0.68819 0.45966 0.0
C1311 C 0.26124 0.6846 0.45402 0.0
C1312 C 0.249 0.67571 0.46471 0.0
H1313 H 0.21795 0.71022 0.34866 0.0
H1314 H 0.21954 0.69272 0.37469 0.0
C1315 C 0.25506 0.67153 0.48146 0.0
C1316 C 0.25482 0.69078 0.43727 0.0
H1317 H 0.23152 0.72052 0.42215 0.0
C1318 C 0.26007 0.68403 0.42052 0.0
C1319 C 0.24424 0.70393 0.43797 0.0
C1320 C 0.23913 0.71254 0.45582 0.0
C1321 C 0.25531 0.69051 0.40441 0.0
C1322 C 0.24486 0.70367 0.40521 0.0
C1323 C 0.23915 0.70998 0.42175 0.0
C1324 C 0.24286 0.7139 0.39006 0.0
C1325 C 0.26233 0.68428 0.38689 0.0
C1326 C 0.25532 0.73141 0.39063 0.0
C1327 C 0.25439 0.74121 0.37612 0.0
C1328 C 0.24101 0.73356 0.36097 0.0
C1329 C 0.2283 0.71616 0.36041 0.0
C1330 C 0.2292 0.70629 0.37509 0.0
H1331 H 0.26925 0.6729 0.38822 0.0
H1332 H 0.25121 0.67892 0.37526 0.0
H1333 H 0.27187 0.69679 0.38337 0.0
H1334 H 0.26593 0.7373 0.40216 0.0
H1335 H 0.26432 0.75462 0.37654 0.0
H1336 H 0.64905 0.03591 0.68009 0.0
H1337 H 0.63524 0.03905 0.65008 0.0
H1338 H 0.59103 0.05222 0.67498 0.0
H1339 H 0.60515 0.04967 0.70533 0.0
H1340 H 0.60049 0.01193 0.63968 0.0
H1341 H 0.60088 0.08713 0.63441 0.0
H1342 H 0.6177 0.08121 0.64932 0.0
H1343 H 0.59593 0.07951 0.65582 0.0
C1344 C 0.63652 0.03978 0.67914 0.0
C1345 C 0.62772 0.04202 0.69458 0.0
C1346 C 0.62887 0.04186 0.66218 0.0
C1347 C 0.6123 0.04589 0.6606 0.0
C1348 C 0.60403 0.04943 0.67623 0.0
H1349 H 0.52479 0.02361 0.5762 0.0
H1350 H 0.54465 0.02746 0.60518 0.0
C1351 C 0.61189 0.0477 0.69335 0.0
C1352 C 0.60201 0.04207 0.64243 0.0
H1353 H 0.58163 0.06238 0.61136 0.0
C1354 C 0.5965 0.02294 0.63332 0.0
C1355 C 0.597 0.05661 0.63454 0.0
C1356 C 0.60325 0.07733 0.64391 0.0
C1357 C 0.58553 0.01784 0.61642 0.0
C1358 C 0.58008 0.03228 0.60881 0.0
C1359 C 0.5859 0.05148 0.61765 0.0
C1360 C 0.56803 0.02767 0.5917 0.0
C1361 C 0.57947 0.99714 0.60693 0.0
C1362 C 0.57486 0.02597 0.57499 0.0
C1363 C 0.56365 0.02387 0.5587 0.0
C1364 C 0.54575 0.02347 0.55912 0.0
C1365 C 0.53867 0.02395 0.57577 0.0
C1366 C 0.5499 0.02621 0.59216 0.0
H1367 H 0.58435 0.98752 0.61524 0.0
H1368 H 0.56467 0.99238 0.60424 0.0
H1369 H 0.58442 0.99567 0.59337 0.0
H1370 H 0.58888 0.02689 0.57465 0.0
H1371 H 0.56896 0.02286 0.54585 0.0
H1372 H 0.28581 0.31232 0.9737 0.0
H1373 H 0.28331 0.30178 0.94034 0.0
H1374 H 0.27892 0.35734 0.93132 0.0
H1375 H 0.28116 0.36796 0.96474 0.0
H1376 H 0.25772 0.30468 0.90607 0.0
H1377 H 0.32862 0.3479 0.91588 0.0
H1378 H 0.31773 0.33999 0.93484 0.0
H1379 H 0.31266 0.35936 0.92511 0.0
C1380 C 0.28373 0.3221 0.96458 0.0
C1381 C 0.28384 0.34101 0.97179 0.0
C1382 C 0.28228 0.31604 0.94555 0.0
C1383 C 0.28114 0.32887 0.9335 0.0
C1384 C 0.2798 0.34727 0.9405 0.0
H1385 H 0.29544 0.32662 0.81929 0.0
H1386 H 0.29217 0.33526 0.85186 0.0
C1387 C 0.28101 0.35328 0.95956 0.0
C1388 C 0.28401 0.32389 0.91415 0.0
H1389 H 0.31595 0.33182 0.88577 0.0
C1390 C 0.2704 0.3106 0.90157 0.0
C1391 C 0.30066 0.33155 0.90849 0.0
C1392 C 0.31586 0.34541 0.92174 0.0
C1393 C 0.27301 0.30498 0.88326 0.0
C1394 C 0.28969 0.31265 0.87766 0.0
C1395 C 0.30324 0.32593 0.89024 0.0
C1396 C 0.29306 0.30771 0.85852 0.0
C1397 C 0.2579 0.29116 0.86989 0.0
C1398 C 0.29527 0.2896 0.8518 0.0
C1399 C 0.29754 0.28481 0.83332 0.0
C1400 C 0.29748 0.29808 0.82148 0.0
C1401 C 0.29579 0.31634 0.82837 0.0
C1402 C 0.29379 0.32121 0.84684 0.0
H1403 H 0.24513 0.28845 0.87574 0.0
H1404 H 0.25602 0.29679 0.8569 0.0
H1405 H 0.26123 0.27731 0.86631 0.0
H1406 H 0.29482 0.27907 0.86073 0.0
H1407 H 0.29844 0.27051 0.82807 0.0
H1408 H 0.98158 0.04412 0.29746 0.0
H1409 H 0.99348 0.04237 0.32844 0.0
H1410 H 0.95784 0.07334 0.35072 0.0
H1411 H 0.94496 0.0742 0.31913 0.0
H1412 H 0.01116 0.06338 0.35724 0.0
H1413 H 0.94615 0.03182 0.37895 0.0
H1414 H 0.94805 0.03535 0.35557 0.0
H1415 H 0.94772 0.05505 0.37322 0.0
C1416 C 0.9761 0.05066 0.30882 0.0
C1417 C 0.96193 0.05912 0.30532 0.0
C1418 C 0.9831 0.04965 0.32683 0.0
C1419 C 0.97645 0.05714 0.34247 0.0
C1420 C 0.96296 0.06665 0.33919 0.0
H1421 H 0.01141 0.06282 0.46158 0.0
H1422 H 0.99992 0.06838 0.43147 0.0
C1423 C 0.95572 0.06748 0.32095 0.0
C1424 C 0.98371 0.0546 0.36174 0.0
H1425 H 0.97152 0.03941 0.40174 0.0
C1426 C 0.00233 0.05806 0.36681 0.0
C1427 C 0.97258 0.04752 0.37472 0.0
C1428 C 0.95253 0.04203 0.37031 0.0
C1429 C 0.00988 0.0548 0.38395 0.0
C1430 C 0.99875 0.04792 0.39686 0.0
C1431 C 0.98021 0.04469 0.39202 0.0
C1432 C 0.00609 0.04428 0.41547 0.0
C1433 C 0.02987 0.05892 0.3883 0.0
C1434 C 0.0135 0.02873 0.41698 0.0
C1435 C 0.01995 0.02529 0.43444 0.0
C1436 C 0.01947 0.03744 0.45102 0.0
C1437 C 0.01217 0.05306 0.44935 0.0
C1438 C 0.00549 0.05629 0.43198 0.0
H1439 H 0.03689 0.06658 0.37814 0.0
H1440 H 0.03459 0.06767 0.40233 0.0
H1441 H 0.03355 0.04522 0.38818 0.0
H1442 H 0.01415 0.01909 0.40462 0.0
H1443 H 0.02546 0.01315 0.43491 0.0
H1444 H 0.26185 0.69881 0.55738 0.0
H1445 H 0.25969 0.71811 0.5867 0.0
H1446 H 0.28937 0.68667 0.61626 0.0
H1447 H 0.29184 0.66755 0.58712 0.0
H1448 H 0.24683 0.70523 0.62119 0.0
H1449 H 0.3186 0.74469 0.62849 0.0
H1450 H 0.30603 0.73145 0.60664 0.0
H1451 H 0.31378 0.71901 0.62356 0.0
C1452 C 0.26781 0.69599 0.57016 0.0
C1453 C 0.27727 0.682 0.57012 0.0
C1454 C 0.2665 0.70691 0.58679 0.0
C1455 C 0.27456 0.7038 0.60337 0.0
C1456 C 0.28331 0.68929 0.60341 0.0
H1457 H 0.28757 0.74243 0.71778 0.0
H1458 H 0.28094 0.72437 0.68627 0.0
C1459 C 0.28477 0.67852 0.58684 0.0
C1460 C 0.27496 0.71647 0.62067 0.0
H1461 H 0.30374 0.74934 0.65462 0.0
C1462 C 0.25916 0.71509 0.62845 0.0
C1463 C 0.29116 0.72921 0.62986 0.0
C1464 C 0.30836 0.73135 0.62168 0.0
C1465 C 0.25935 0.72579 0.64581 0.0
C1466 C 0.27563 0.73808 0.65516 0.0
C1467 C 0.2913 0.73987 0.64714 0.0
C1468 C 0.27709 0.74829 0.67392 0.0
C1469 C 0.24241 0.72362 0.65439 0.0
C1470 C 0.27702 0.76758 0.67705 0.0
C1471 C 0.28096 0.77801 0.69498 0.0
C1472 C 0.28496 0.7691 0.70975 0.0
C1473 C 0.28438 0.74955 0.70656 0.0
C1474 C 0.28057 0.73923 0.68868 0.0
H1475 H 0.23062 0.7142 0.64486 0.0
H1476 H 0.24384 0.71746 0.66712 0.0
H1477 H 0.24006 0.73791 0.65849 0.0
H1478 H 0.27448 0.77466 0.66559 0.0
H1479 H 0.28131 0.79306 0.69725 0.0
H1480 H 0.63522 0.07679 0.77218 0.0
H1481 H 0.62958 0.09026 0.80239 0.0
H1482 H 0.62539 0.03595 0.82003 0.0
H1483 H 0.63118 0.02222 0.78959 0.0
H1484 H 0.59565 0.07005 0.81446 0.0
H1485 H 0.65723 0.08014 0.86398 0.0
H1486 H 0.6578 0.08072 0.83967 0.0
H1487 H 0.64977 0.05833 0.84714 0.0
C1488 C 0.63296 0.06763 0.7824 0.0
C1489 C 0.63299 0.04829 0.77846 0.0
C1490 C 0.63011 0.07547 0.79971 0.0
C1491 C 0.62729 0.06409 0.81325 0.0
C1492 C 0.62787 0.04493 0.80966 0.0
H1493 H 0.5702 0.05007 0.89755 0.0
H1494 H 0.58513 0.05177 0.87028 0.0
C1495 C 0.63088 0.03708 0.79231 0.0
C1496 C 0.62091 0.07143 0.82996 0.0
H1497 H 0.63121 0.08362 0.87666 0.0
C1498 C 0.60353 0.07348 0.82805 0.0
C1499 C 0.63135 0.07574 0.84745 0.0
C1500 C 0.65014 0.07375 0.84982 0.0
C1501 C 0.59588 0.07885 0.8435 0.0
C1502 C 0.60603 0.08236 0.86111 0.0
C1503 C 0.62374 0.08131 0.86297 0.0
C1504 C 0.59718 0.08234 0.87751 0.0
C1505 C 0.57662 0.07935 0.84104 0.0
C1506 C 0.59935 0.09907 0.8905 0.0
C1507 C 0.59075 0.09812 0.90619 0.0
C1508 C 0.58033 0.0804 0.90874 0.0
C1509 C 0.57836 0.06381 0.89571 0.0
C1510 C 0.58675 0.06477 0.88021 0.0
H1511 H 0.57213 0.081 0.82679 0.0
H1512 H 0.56812 0.06568 0.84365 0.0
H1513 H 0.57453 0.09123 0.85103 0.0
H1514 H 0.60752 0.11267 0.88843 0.0
H1515 H 0.59221 0.11099 0.9162 0.0
H1516 H 0.28653 0.37374 0.08699 0.0
H1517 H 0.28229 0.36183 0.11619 0.0
H1518 H 0.28705 0.30675 0.09073 0.0
H1519 H 0.29183 0.31864 0.06209 0.0
H1520 H 0.25896 0.33209 0.12756 0.0
H1521 H 0.32633 0.32013 0.13355 0.0
H1522 H 0.31901 0.33309 0.11675 0.0
H1523 H 0.31274 0.30728 0.11235 0.0
C1524 C 0.28646 0.35905 0.08762 0.0
C1525 C 0.28983 0.34727 0.07231 0.0
C1526 C 0.28409 0.35225 0.10432 0.0
C1527 C 0.28495 0.33354 0.10592 0.0
C1528 C 0.28699 0.32143 0.09017 0.0
H1529 H 0.27432 0.25834 0.18564 0.0
H1530 H 0.27567 0.27389 0.15857 0.0
C1531 C 0.2896 0.32824 0.07371 0.0
C1532 C 0.28439 0.3267 0.12403 0.0
H1533 H 0.30697 0.30621 0.15377 0.0
C1534 C 0.26958 0.32668 0.13341 0.0
C1535 C 0.29823 0.31961 0.13179 0.0
C1536 C 0.31505 0.32019 0.12319 0.0
C1537 C 0.26801 0.31921 0.1499 0.0
C1538 C 0.28163 0.31169 0.15731 0.0
C1539 C 0.29653 0.31198 0.14811 0.0
C1540 C 0.28032 0.30253 0.17405 0.0
C1541 C 0.25155 0.31876 0.15903 0.0
C1542 C 0.28265 0.31347 0.19189 0.0
C1543 C 0.2821 0.30459 0.20754 0.0
C1544 C 0.27904 0.28459 0.20557 0.0
C1545 C 0.27664 0.27376 0.18767 0.0
C1546 C 0.2774 0.28262 0.17214 0.0
H1547 H 0.24136 0.32339 0.15063 0.0
H1548 H 0.24555 0.30406 0.16144 0.0
H1549 H 0.25527 0.3284 0.17269 0.0
H1550 H 0.2851 0.32889 0.19371 0.0
H1551 H 0.28399 0.31331 0.22113 0.0
H1552 H 0.25553 0.92534 0.03853 0.0
H1553 H 0.23362 0.94239 0.0479 0.0
H1554 H 0.24114 0.97295 0.00251 0.0
H1555 H 0.26322 0.95618 0.99315 0.0
H1556 H 0.23704 0.98917 0.05153 0.0
H1557 H 0.18591 0.93505 -0.00048 0.0
H1558 H 0.20563 0.92987 0.00998 0.0
H1559 H 0.20735 0.94481 0.99275 0.0
C1560 C 0.25253 0.93574 0.03059 0.0
C1561 C 0.26077 0.93925 0.01494 0.0
C1562 C 0.24023 0.94558 0.03609 0.0
C1563 C 0.23593 0.95884 0.02587 0.0
C1564 C 0.2445 0.96281 0.01058 0.0
H1565 H 0.15457 0.01318 0.00776 0.0
H1566 H 0.17939 0.99857 0.00821 0.0
C1567 C 0.25696 0.95316 0.0052 0.0
C1568 C 0.221 0.96688 0.0298 0.0
H1569 H 0.17733 0.96152 0.01414 0.0
C1570 C 0.2239 0.98312 0.04356 0.0
C1571 C 0.20399 0.95872 0.01936 0.0
C1572 C 0.20037 0.94108 0.00461 0.0
C1573 C 0.21017 0.99198 0.04661 0.0
C1574 C 0.19327 0.98413 0.03571 0.0
C1575 C 0.19032 0.96746 0.02245 0.0
C1576 C 0.17886 0.99383 0.03636 0.0
C1577 C 0.21403 0.01004 0.06084 0.0
C1578 C 0.17034 0.99592 0.05208 0.0
C1579 C 0.15608 0.0043 0.05185 0.0
C1580 C 0.15008 0.01043 0.03582 0.0
C1581 C 0.1587 0.00828 0.02018 0.0
C1582 C 0.17296 1.00009 0.02047 0.0
H1583 H 0.2285 0.01585 0.06598 0.0
H1584 H 0.2091 0.02121 0.05499 0.0
H1585 H 0.20695 0.00692 0.07278 0.0
H1586 H 0.17451 0.99081 0.06435 0.0
H1587 H 0.14958 0.00574 0.06406 0.0
H1588 H 0.73454 0.65154 0.0246 0.0
H1589 H 0.70579 0.62957 0.0273 0.0
H1590 H 0.68793 0.62725 0.96974 0.0
H1591 H 0.71647 0.64944 0.96718 0.0
H1592 H 0.67096 0.63709 0.01881 0.0
H1593 H 0.67616 0.57003 0.97651 0.0
H1594 H 0.69543 0.58968 0.98628 0.0
H1595 H 0.68159 0.59085 0.96584 0.0
C1596 C 0.72462 0.64587 0.01244 0.0
C1597 C 0.72781 0.65175 0.99556 0.0
C1598 C 0.70816 0.63349 0.01403 0.0
C1599 C 0.69474 0.62659 -0.00132 0.0
C1600 C 0.69815 0.63213 0.9817 0.0
H1601 H 0.5871 0.554 0.9705 0.0
H1602 H 0.61702 0.57509 0.97185 0.0
C1603 C 0.71446 0.64473 0.98021 0.0
C1604 C 0.6768 0.61446 0.00049 0.0
H1605 H 0.64753 0.57061 0.98414 0.0
C1606 C 0.66584 0.62248 0.01137 0.0
C1607 C 0.67012 0.59545 0.99075 0.0
C1608 C 0.68146 0.58587 0.97929 0.0
C1609 C 0.64814 0.61229 0.01217 0.0
C1610 C 0.6413 0.5933 0.00217 0.0
C1611 C 0.65255 0.58517 0.99171 0.0
C1612 C 0.62247 0.58169 0.00172 0.0
C1613 C 0.63678 0.62237 0.02311 0.0
C1614 C 0.61522 0.57842 0.01803 0.0
C1615 C 0.59786 0.56665 0.01724 0.0
C1616 C 0.58755 0.55749 0.00013 0.0
C1617 C 0.59472 0.56085 0.98388 0.0
C1618 C 0.61189 0.57287 0.98466 0.0
H1619 H 0.64204 0.63819 0.02515 0.0
H1620 H 0.62278 0.61834 0.01619 0.0
H1621 H 0.63686 0.61828 0.03697 0.0
H1622 H 0.62314 0.5845 0.0314 0.0
H1623 H 0.59278 0.56414 0.03002 0.0
H1624 H 0.67546 0.43825 0.29085 0.0
H1625 H 0.69134 0.41371 0.28589 0.0
H1626 H 0.70936 0.43496 0.238 0.0
H1627 H 0.69328 0.46005 0.24303 0.0
H1628 H 0.68901 0.38328 0.26027 0.0
H1629 H 0.75653 0.43015 0.26022 0.0
H1630 H 0.73855 0.43979 0.26712 0.0
H1631 H 0.73945 0.43205 0.24308 0.0
C1632 C 0.68278 0.43804 0.27917 0.0
C1633 C 0.68276 0.4519 0.26755 0.0
C1634 C 0.69203 0.4236 0.27629 0.0
C1635 C 0.70225 0.42194 0.2617 0.0
C1636 C 0.70222 0.43562 0.24979 0.0
H1637 H 0.77684 0.34546 0.24099 0.0
H1638 H 0.76001 0.3696 0.2401 0.0
C1639 C 0.69274 0.45016 0.25261 0.0
C1640 C 0.71229 0.40581 0.25929 0.0
H1641 H 0.75367 0.39712 0.25653 0.0
C1642 C 0.70319 0.38652 0.25947 0.0
C1643 C 0.73086 0.40904 0.25773 0.0
C1644 C 0.74204 0.42886 0.25714 0.0
C1645 C 0.71158 0.37106 0.2581 0.0
C1646 C 0.73044 0.37441 0.25771 0.0
C1647 C 0.73947 0.39372 0.25713 0.0
C1648 C 0.74086 0.35848 0.25779 0.0
C1649 C 0.69955 0.35108 0.25613 0.0
C1650 C 0.73663 0.34324 0.26795 0.0
C1651 C 0.74597 0.32869 0.26775 0.0
C1652 C 0.7608 0.32885 0.25814 0.0
C1653 C 0.76556 0.34436 0.24854 0.0
C1654 C 0.75578 0.35853 0.24816 0.0
H1655 H 0.68589 0.35011 0.2495 0.0
H1656 H 0.7047 0.34034 0.2477 0.0
H1657 H 0.69831 0.34736 0.27004 0.0
H1658 H 0.72621 0.34262 0.27657 0.0
H1659 H 0.74188 0.31755 0.27578 0.0
H1660 H 0.83068 0.45362 0.50348 0.0
H1661 H 0.85735 0.47583 0.4978 0.0
H1662 H 0.88498 0.47158 0.54989 0.0
H1663 H 0.85872 0.44721 0.55445 0.0
H1664 H 0.88323 0.50517 0.50724 0.0
H1665 H 0.90833 0.44199 0.51569 0.0
H1666 H 0.88565 0.44219 0.51782 0.0
H1667 H 0.90316 0.45283 0.53704 0.0
C1668 C 0.8422 0.45805 0.51412 0.0
C1669 C 0.8431 0.44835 0.52902 0.0
C1670 C 0.85747 0.47075 0.51084 0.0
C1671 C 0.87335 0.47431 0.52292 0.0
C1672 C 0.87299 0.46802 0.53995 0.0
H1673 H 0.977 0.53467 0.52546 0.0
H1674 H 0.94532 0.52187 0.52651 0.0
C1675 C 0.858 0.4544 0.54272 0.0
C1676 C 0.89036 0.48085 0.51597 0.0
H1677 H 0.92941 0.46942 0.51026 0.0
C1678 C 0.89326 0.49729 0.50783 0.0
C1679 C 0.90299 0.46985 0.5157 0.0
C1680 C 0.89978 0.45062 0.52181 0.0
C1681 C 0.90907 0.50376 0.50065 0.0
C1682 C 0.92229 0.49393 0.50235 0.0
C1683 C 0.91908 0.47691 0.50932 0.0
C1684 C 0.94053 0.50281 0.50013 0.0
C1685 C 0.91189 0.52123 0.49166 0.0
C1686 C 0.94793 0.4961 0.4849 0.0
C1687 C 0.96603 0.50332 0.48427 0.0
C1688 C 0.97673 0.517 0.49905 0.0
C1689 C 0.96907 0.52395 0.51405 0.0
C1690 C 0.95102 0.51685 0.51458 0.0
H1691 H 0.89917 0.52493 0.48808 0.0
H1692 H 0.92118 0.53358 0.50125 0.0
H1693 H 0.91806 0.51883 0.47891 0.0
H1694 H 0.93983 0.48506 0.47381 0.0
H1695 H 0.9717 0.4978 0.47254 0.0
H1696 H 0.39538 0.05272 0.23997 0.0
H1697 H 0.37704 0.07154 0.22679 0.0
H1698 H 0.36953 0.09492 0.28159 0.0
H1699 H 0.38757 0.0757 0.29487 0.0
H1700 H 0.33721 0.07612 0.24198 0.0
H1701 H 0.39717 0.13724 0.24524 0.0
H1702 H 0.39827 0.11264 0.24149 0.0
H1703 H 0.39574 0.12389 0.26393 0.0
C1704 C 0.38969 0.06182 0.24915 0.0
C1705 C 0.39284 0.06304 0.26838 0.0
C1706 C 0.37921 0.07238 0.24162 0.0
C1707 C 0.37208 0.08445 0.2533 0.0
C1708 C 0.37493 0.08546 0.27249 0.0
H1709 H 0.32436 0.17189 0.26484 0.0
H1710 H 0.34023 0.14715 0.26459 0.0
C1711 C 0.38516 0.0746 0.28002 0.0
C1712 C 0.36262 0.09705 0.24561 0.0
H1713 H 0.36893 0.14315 0.23921 0.0
C1714 C 0.34407 0.09066 0.24094 0.0
C1715 C 0.37186 0.11582 0.24422 0.0
C1716 C 0.39188 0.12292 0.24889 0.0
C1717 C 0.33427 0.10319 0.23592 0.0
C1718 C 0.34342 0.12235 0.23567 0.0
C1719 C 0.36208 0.12835 0.23931 0.0
C1720 C 0.33384 0.13713 0.23508 0.0
C1721 C 0.3142 0.09636 0.23215 0.0
C1722 C 0.32513 0.13955 0.21848 0.0
C1723 C 0.31604 0.15377 0.21856 0.0
C1724 C 0.3158 0.16569 0.23524 0.0
C1725 C 0.32466 0.16315 0.25175 0.0
C1726 C 0.33361 0.14899 0.25166 0.0
H1727 H 0.30918 0.08081 0.23233 0.0
H1728 H 0.30841 0.10447 0.24271 0.0
H1729 H 0.30941 0.09915 0.21846 0.0
H1730 H 0.32535 0.13047 0.20558 0.0
H1731 H 0.3093 0.15552 0.20568 0.0
H1732 H 0.31687 0.15179 0.52288 0.0
H1733 H 0.34025 0.13734 0.5337 0.0
H1734 H 0.36566 0.14769 0.48567 0.0
H1735 H 0.34263 0.16236 0.47494 0.0
H1736 H 0.35095 0.10616 0.51771 0.0
H1737 H 0.40677 0.1716 0.5274 0.0
H1738 H 0.38371 0.17218 0.52479 0.0
H1739 H 0.39417 0.16669 0.50479 0.0
C1740 C 0.3274 0.15093 0.51458 0.0
C1741 C 0.32789 0.15835 0.49805 0.0
C1742 C 0.3408 0.14271 0.52083 0.0
C1743 C 0.35498 0.14182 0.51074 0.0
C1744 C 0.35517 0.14871 0.49399 0.0
H1745 H 0.43598 0.08779 0.49426 0.0
H1746 H 0.41334 0.10539 0.49548 0.0
C1747 C 0.34188 0.15697 0.48779 0.0
C1748 C 0.3694 0.13328 0.51722 0.0
H1749 H 0.41479 0.14166 0.52403 0.0
C1750 C 0.3649 0.11403 0.51947 0.0
C1751 C 0.38763 0.14361 0.51987 0.0
C1752 C 0.39337 0.16473 0.5193 0.0
C1753 C 0.37816 0.1045 0.5229 0.0
C1754 C 0.39632 0.11446 0.52404 0.0
C1755 C 0.40084 0.13399 0.52293 0.0
C1756 C 0.41063 0.10438 0.52413 0.0
C1757 C 0.37271 0.08358 0.52429 0.0
C1758 C 0.41687 0.09819 0.53998 0.0
C1759 C 0.4301 0.08826 0.53943 0.0
C1760 C 0.43733 0.08433 0.52299 0.0
C1761 C 0.4311 0.09084 0.50727 0.0
C1762 C 0.418 0.10079 0.50788 0.0
H1763 H 0.35799 0.07775 0.52266 0.0
H1764 H 0.37803 0.07518 0.51352 0.0
H1765 H 0.37851 0.08159 0.53794 0.0
H1766 H 0.41146 0.10099 0.55273 0.0
H1767 H 0.43466 0.08367 0.55186 0.0
H1768 H 0.66873 0.57111 0.24067 0.0
H1769 H 0.68713 0.60315 0.23972 0.0
H1770 H 0.72013 0.60181 0.28947 0.0
H1771 H 0.70202 0.56918 0.28988 0.0
H1772 H 0.69244 0.63585 0.25959 0.0
H1773 H 0.75957 0.62389 0.26376 0.0
H1774 H 0.73967 0.60428 0.26 0.0
H1775 H 0.74871 0.6174 0.28299 0.0
C1776 C 0.68024 0.57736 0.25116 0.0
C1777 C 0.68402 0.56702 0.26506 0.0
C1778 C 0.69077 0.59599 0.25072 0.0
C1779 C 0.70553 0.60545 0.26433 0.0
C1780 C 0.70938 0.59508 0.27828 0.0
H1781 H 0.78311 0.71994 0.28769 0.0
H1782 H 0.76403 0.68811 0.28812 0.0
C1783 C 0.69894 0.57619 0.27856 0.0
C1784 C 0.7161 0.62621 0.26415 0.0
H1785 H 0.75842 0.65621 0.26792 0.0
C1786 C 0.70689 0.64015 0.26134 0.0
C1787 C 0.73508 0.63248 0.26635 0.0
C1788 C 0.74634 0.6187 0.26825 0.0
C1789 C 0.71579 0.65966 0.26119 0.0
C1790 C 0.73479 0.66597 0.26357 0.0
C1791 C 0.74397 0.65197 0.26622 0.0
C1792 C 0.74554 0.6868 0.26387 0.0
C1793 C 0.70449 0.67336 0.25907 0.0
C1794 C 0.74184 0.69777 0.25038 0.0
C1795 C 0.75266 0.71662 0.2505 0.0
C1796 C 0.76786 0.7251 0.26387 0.0
C1797 C 0.77144 0.71421 0.27731 0.0
C1798 C 0.76051 0.69568 0.27743 0.0
H1799 H 0.69115 0.66809 0.26331 0.0
H1800 H 0.71101 0.68777 0.26739 0.0
H1801 H 0.70235 0.67468 0.24432 0.0
H1802 H 0.73097 0.69155 0.23923 0.0
H1803 H 0.74968 0.72409 0.23952 0.0
H1804 H 0.92161 0.4533 0.76604 0.0
H1805 H 0.89492 0.43013 0.77083 0.0
H1806 H 0.86186 0.45982 0.74344 0.0
H1807 H 0.88864 0.48351 0.73877 0.0
H1808 H 0.86524 0.44484 0.79047 0.0
H1809 H 0.8464 0.39772 0.72106 0.0
H1810 H 0.86901 0.41195 0.72917 0.0
H1811 H 0.85218 0.42339 0.72261 0.0
C1812 C 0.90872 0.45461 0.76044 0.0
C1813 C 0.90721 0.47017 0.75195 0.0
C1814 C 0.89352 0.44153 0.76346 0.0
C1815 C 0.87663 0.44358 0.75768 0.0
C1816 C 0.87492 0.45826 0.74807 0.0
H1817 H 0.78267 0.35395 0.75998 0.0
H1818 H 0.79968 0.38653 0.7588 0.0
C1819 C 0.89017 0.47156 0.74525 0.0
C1820 C 0.86092 0.43036 0.76216 0.0
H1821 H 0.83029 0.38808 0.74465 0.0
C1822 C 0.85729 0.43258 0.78045 0.0
C1823 C 0.85085 0.4145 0.74898 0.0
C1824 C 0.85473 0.41155 0.72933 0.0
C1825 C 0.84399 0.4188 0.78605 0.0
C1826 C 0.83434 0.40254 0.773 0.0
C1827 C 0.83759 0.40076 0.75456 0.0
C1828 C 0.8221 0.38609 0.77824 0.0
C1829 C 0.8407 0.4215 0.80591 0.0
C1830 C 0.82877 0.37561 0.79034 0.0
C1831 C 0.81889 0.35724 0.79133 0.0
C1832 C 0.80257 0.34916 0.77987 0.0
C1833 C 0.79526 0.36015 0.76896 0.0
C1834 C 0.80493 0.37865 0.76827 0.0
H1835 H 0.84476 0.43689 0.81241 0.0
H1836 H 0.82643 0.41542 0.80707 0.0
H1837 H 0.84876 0.41404 0.81383 0.0
H1838 H 0.8422 0.38089 0.79772 0.0
H1839 H 0.82482 0.3487 0.79954 0.0
H1840 H 0.04301 0.84464 0.09224 0.0
H1841 H 0.03506 0.87058 0.07864 0.0
H1842 H 0.08582 0.88372 0.05846 0.0
H1843 H 0.09366 0.85781 0.07152 0.0
H1844 H 0.05044 0.90869 0.0849 0.0
H1845 H 0.05275 0.87957 0.01208 0.0
H1846 H 0.053 0.86546 0.03009 0.0
H1847 H 0.07326 0.88177 0.02645 0.0
C1848 C 0.05248 0.85309 0.08494 0.0
C1849 C 0.06895 0.84906 0.08295 0.0
C1850 C 0.04789 0.86787 0.0771 0.0
C1851 C 0.05966 0.87882 0.06711 0.0
C1852 C 0.07627 0.87512 0.06558 0.0
H1853 H 0.07322 0.98339 0.02432 0.0
H1854 H 0.07554 0.95404 0.0353 0.0
C1855 C 0.0808 0.86037 0.07326 0.0
C1856 C 0.05502 0.89462 0.05884 0.0
H1857 H 0.05375 0.91297 0.01894 0.0
C1858 C 0.05089 0.90947 0.07042 0.0
C1859 C 0.05555 0.89566 0.0399 0.0
C1860 C 0.0587 0.87965 0.02638 0.0
C1861 C 0.04804 0.92565 0.06377 0.0
C1862 C 0.04927 0.92698 0.04504 0.0
C1863 C 0.05294 0.91196 0.03333 0.0
C1864 C 0.04749 0.94424 0.03757 0.0
C1865 C 0.04431 0.94154 0.07692 0.0
C1866 C 0.03088 0.94825 0.03485 0.0
C1867 C 0.02946 0.96491 0.02834 0.0
C1868 C 0.04468 0.97795 0.02462 0.0
C1869 C 0.06125 0.9737 0.02711 0.0
C1870 C 0.06261 0.95693 0.03337 0.0
H1871 H 0.04614 0.93949 0.0915 0.0
H1872 H 0.05322 0.95558 0.07575 0.0
H1873 H 0.03035 0.94204 0.07323 0.0
H1874 H 0.01904 0.93856 0.03791 0.0
H1875 H 0.01652 0.9678 0.02668 0.0
H1876 H 0.93522 0.26114 0.89811 0.0
H1877 H 0.91142 0.26818 0.87907 0.0
H1878 H 0.94289 0.27148 0.8344 0.0
H1879 H 0.96724 0.26444 0.85368 0.0
H1880 H 0.91052 0.29966 0.86254 0.0
H1881 H 0.89521 0.23317 0.81002 0.0
H1882 H 0.90889 0.23613 0.83193 0.0
H1883 H 0.91805 0.24724 0.81366 0.0
C1884 C 0.9372 0.26314 0.88417 0.0
C1885 C 0.95324 0.26183 0.87741 0.0
C1886 C 0.92348 0.26734 0.8733 0.0
C1887 C 0.9251 0.27015 0.85515 0.0
C1888 C 0.94111 0.26905 0.84827 0.0
H1889 H 0.85406 0.29146 0.76795 0.0
H1890 H 0.87859 0.287 0.7882 0.0
C1891 C 0.95507 0.26502 0.8593 0.0
C1892 C 0.90984 0.27402 0.84367 0.0
H1893 H 0.87907 0.25563 0.80484 0.0
C1894 C 0.90366 0.29002 0.84991 0.0
C1895 C 0.90064 0.26139 0.8273 0.0
C1896 C 0.90587 0.24341 0.82034 0.0
C1897 C 0.88892 0.29392 0.84005 0.0
C1898 C 0.87979 0.28133 0.8236 0.0
C1899 C 0.88595 0.26531 0.81744 0.0
C1900 C 0.86457 0.285 0.81189 0.0
C1901 C 0.88351 0.31177 0.84707 0.0
C1902 C 0.84822 0.28545 0.81832 0.0
C1903 C 0.83389 0.28796 0.80657 0.0
C1904 C 0.83567 0.29011 0.78818 0.0
C1905 C 0.85212 0.2899 0.782 0.0
C1906 C 0.86626 0.2873 0.7936 0.0
H1907 H 0.89399 0.32193 0.85764 0.0
H1908 H 0.88067 0.31919 0.83553 0.0
H1909 H 0.87116 0.30775 0.85344 0.0
H1910 H 0.8464 0.28343 0.83228 0.0
H1911 H 0.82142 0.28795 0.81176 0.0
H1912 H 0.55654 0.24978 0.54567 0.0
H1913 H 0.5485 0.21534 0.53305 0.0
H1914 H 0.55692 0.2035 0.58826 0.0
H1915 H 0.56341 0.23756 0.60081 0.0
H1916 H 0.56974 0.1946 0.53363 0.0
H1917 H 0.51488 0.16071 0.56938 0.0
H1918 H 0.52163 0.18627 0.57033 0.0
H1919 H 0.53314 0.17519 0.58608 0.0
C1920 C 0.55614 0.23967 0.55503 0.0
C1921 C 0.56051 0.24614 0.57414 0.0
C1922 C 0.55157 0.22006 0.54788 0.0
C1923 C 0.55188 0.20672 0.5597 0.0
C1924 C 0.5559 0.2133 0.57885 0.0
H1925 H 0.56924 0.094 0.54683 0.0
H1926 H 0.57102 0.12819 0.55622 0.0
C1927 C 0.55982 0.2328 0.58602 0.0
C1928 C 0.55048 0.18644 0.552 0.0
H1929 H 0.53279 0.14031 0.55735 0.0
C1930 C 0.5614 0.18277 0.53864 0.0
C1931 C 0.53963 0.17089 0.55849 0.0
C1932 C 0.52654 0.1735 0.57171 0.0
C1933 C 0.56219 0.16411 0.53207 0.0
C1934 C 0.55205 0.14885 0.53925 0.0
C1935 C 0.54082 0.15228 0.55224 0.0
C1936 C 0.55242 0.12903 0.53286 0.0
C1937 C 0.574 0.16073 0.51768 0.0
C1938 C 0.54168 0.11862 0.51652 0.0
C1939 C 0.54057 0.09929 0.51127 0.0
C1940 C 0.55034 0.09021 0.52222 0.0
C1941 C 0.56181 0.10086 0.53811 0.0
C1942 C 0.56271 0.12022 0.54352 0.0
H1943 H 0.58217 0.17433 0.51457 0.0
H1944 H 0.58303 0.15231 0.52243 0.0
H1945 H 0.5656 0.15221 0.50474 0.0
H1946 H 0.53371 0.12532 0.50819 0.0
H1947 H 0.53167 0.09125 0.49894 0.0
H1948 H 0.57743 0.79746 0.40834 0.0
H1949 H 0.60476 0.80099 0.3943 0.0
H1950 H 0.57469 0.76647 0.34342 0.0
H1951 H 0.54701 0.76248 0.35759 0.0
H1952 H 0.61769 0.767 0.3744 0.0
H1953 H 0.60644 0.8221 0.33374 0.0
H1954 H 0.59629 0.81832 0.35428 0.0
H1955 H 0.58801 0.80146 0.33318 0.0
C1956 C 0.57653 0.79055 0.39415 0.0
C1957 C 0.55998 0.77965 0.38408 0.0
C1958 C 0.59223 0.79258 0.38618 0.0
C1959 C 0.59176 0.78406 0.36783 0.0
C1960 C 0.57531 0.77318 0.35763 0.0
H1961 H 0.66629 0.78744 0.28984 0.0
H1962 H 0.64102 0.78598 0.30695 0.0
C1963 C 0.55953 0.77085 0.36574 0.0
C1964 C 0.60857 0.78665 0.35951 0.0
H1965 H 0.63179 0.8109 0.32971 0.0
C1966 C 0.62083 0.77655 0.36458 0.0
C1967 C 0.61273 0.79938 0.34702 0.0
C1968 C 0.60029 0.81109 0.34173 0.0
C1969 C 0.63679 0.77818 0.35684 0.0
C1970 C 0.64085 0.79067 0.34399 0.0
C1971 C 0.62875 0.80122 0.33943 0.0
C1972 C 0.65674 0.79201 0.33399 0.0
C1973 C 0.64874 0.76591 0.36203 0.0
C1974 C 0.67423 0.79611 0.34337 0.0
C1975 C 0.68876 0.79658 0.33349 0.0
C1976 C 0.68614 0.79354 0.31407 0.0
C1977 C 0.66877 0.79003 0.30479 0.0
C1978 C 0.65428 0.78918 0.3146 0.0
H1979 H 0.64152 0.75366 0.368 0.0
H1980 H 0.65435 0.7602 0.34988 0.0
H1981 H 0.65995 0.77471 0.37262 0.0
H1982 H 0.67667 0.79898 0.35831 0.0
H1983 H 0.70204 0.79949 0.34101 0.0
H1984 H 0.05103 0.28256 0.42847 0.0
H1985 H 0.0392 0.25077 0.43526 0.0
H1986 H 0.08393 0.23331 0.41583 0.0
H1987 H 0.09586 0.26529 0.40842 0.0
H1988 H 0.03396 0.21057 0.40734 0.0
H1989 H 0.0789 0.22874 0.47456 0.0
H1990 H 0.07243 0.24678 0.46339 0.0
H1991 H 0.08841 0.23539 0.45446 0.0
C1992 C 0.05856 0.27211 0.42584 0.0
C1993 C 0.07459 0.27648 0.41821 0.0
C1994 C 0.05157 0.25388 0.42943 0.0
C1995 C 0.06062 0.23987 0.42578 0.0
C1996 C 0.07674 0.2441 0.41845 0.0
H1997 H 0.05739 0.1345 0.45815 0.0
H1998 H 0.06081 0.16106 0.44152 0.0
C1999 C 0.08364 0.26233 0.41451 0.0
C2000 C 0.05397 0.22137 0.43134 0.0
H2001 H 0.06056 0.19718 0.46603 0.0
C2002 C 0.03972 0.20748 0.42011 0.0
C2003 C 0.06131 0.21792 0.44823 0.0
C2004 C 0.07605 0.23297 0.461 0.0
C2005 C 0.03306 0.18963 0.42518 0.0
C2006 C 0.04092 0.18595 0.44177 0.0
C2007 C 0.05475 0.20014 0.45321 0.0
C2008 C 0.03604 0.16715 0.44732 0.0
C2009 C 0.01803 0.17469 0.41277 0.0
C2010 C 0.02059 0.16146 0.45546 0.0
C2011 C 0.01847 0.14607 0.46493 0.0
C2012 C 0.03187 0.13639 0.46643 0.0
C2013 C 0.04668 0.1414 0.45707 0.0
C2014 C 0.04871 0.15663 0.44759 0.0
H2015 H 0.01439 0.17927 0.39958 0.0
H2016 H 0.02182 0.16103 0.40964 0.0
H2017 H 0.00611 0.17183 0.42 0.0
H2018 H 0.01078 0.16963 0.45549 0.0
H2019 H 0.00681 0.14234 0.47181 0.0
H2020 H 0.54667 0.27658 0.1668 0.0
H2021 H 0.57867 0.28607 0.17774 0.0
H2022 H 0.57213 0.23875 0.20722 0.0
H2023 H 0.54017 0.22895 0.19626 0.0
H2024 H 0.59592 0.2949 0.21567 0.0
H2025 H 0.61101 0.23293 0.17388 0.0
H2026 H 0.59102 0.24038 0.16836 0.0
H2027 H 0.59229 0.22612 0.18601 0.0
C2028 C 0.55202 0.26827 0.17574 0.0
C2029 C 0.54098 0.25199 0.1807 0.0
C2030 C 0.57025 0.27369 0.18187 0.0
C2031 C 0.57756 0.26288 0.19295 0.0
C2032 C 0.56657 0.24698 0.19835 0.0
H2033 H 0.66474 0.24932 0.25476 0.0
H2034 H 0.63628 0.25446 0.24325 0.0
C2035 C 0.54837 0.24151 0.19221 0.0
C2036 C 0.5967 0.26825 0.19934 0.0
H2037 H 0.63222 0.24936 0.20074 0.0
C2038 C 0.60407 0.28522 0.21219 0.0
C2039 C 0.60713 0.25563 0.19437 0.0
C2040 C 0.60002 0.23784 0.17975 0.0
C2041 C 0.62139 0.28909 0.22148 0.0
C2042 C 0.63121 0.27562 0.21765 0.0
C2043 C 0.62433 0.25942 0.20377 0.0
C2044 C 0.64809 0.27698 0.22876 0.0
C2045 C 0.6288 0.30682 0.23604 0.0
C2046 C 0.66392 0.28876 0.22512 0.0
C2047 C 0.68017 0.28592 0.23176 0.0
C2048 C 0.68051 0.27119 0.24186 0.0
C2049 C 0.66474 0.26082 0.24707 0.0
C2050 C 0.64854 0.26368 0.24047 0.0
H2051 H 0.61917 0.31564 0.23774 0.0
H2052 H 0.63238 0.30273 0.24949 0.0
H2053 H 0.64119 0.31567 0.23225 0.0
H2054 H 0.66364 0.299 0.21601 0.0
H2055 H 0.69231 0.29418 0.22781 0.0
H2056 H 0.60584 0.88951 0.90362 0.0
H2057 H 0.60104 0.9192 0.92053 0.0
H2058 H 0.55559 0.88534 0.9404 0.0
H2059 H 0.56067 0.85635 0.92449 0.0
H2060 H 0.57035 0.93066 0.91379 0.0
H2061 H 0.57984 0.92154 0.98648 0.0
H2062 H 0.58796 0.90781 0.96855 0.0
H2063 H 0.56516 0.90017 0.97281 0.0
C2064 C 0.59527 0.88862 0.91215 0.0
C2065 C 0.58354 0.87092 0.91285 0.0
C2066 C 0.59248 0.90542 0.92163 0.0
C2067 C 0.57816 0.9043 0.93191 0.0
C2068 C 0.56701 0.88648 0.93302 0.0
H2069 H 0.51432 0.96982 0.98391 0.0
H2070 H 0.52271 0.94555 0.9623 0.0
C2071 C 0.56981 0.86995 0.92376 0.0
C2072 C 0.57321 0.92138 0.94002 0.0
H2073 H 0.55888 0.93971 0.9789 0.0
C2074 C 0.5682 0.93298 0.92812 0.0
C2075 C 0.57027 0.92412 0.95866 0.0
C2076 C 0.57629 0.91282 0.97235 0.0
C2077 C 0.55959 0.94686 0.93432 0.0
C2078 C 0.55587 0.94878 0.95263 0.0
C2079 C 0.56132 0.9376 0.96463 0.0
C2080 C 0.54865 0.96408 0.96074 0.0
C2081 C 0.55429 0.95919 0.92135 0.0
C2082 C 0.56047 0.98221 0.96665 0.0
C2083 C 0.55604 0.99544 0.97944 0.0
C2084 C 0.53965 0.99092 0.98597 0.0
C2085 C 0.52711 0.97338 0.97895 0.0
C2086 C 0.53176 0.95974 0.96653 0.0
H2087 H 0.55539 0.95375 0.90679 0.0
H2088 H 0.54038 0.95994 0.9223 0.0
H2089 H 0.56313 0.97397 0.92545 0.0
H2090 H 0.57368 0.98554 0.96256 0.0
H2091 H 0.56566 0.00891 0.98482 0.0
H2092 H 0.94826 0.72536 0.69592 0.0
H2093 H 0.9231 0.73228 0.70974 0.0
H2094 H 0.91815 0.77098 0.67208 0.0
H2095 H 0.9434 0.76415 0.65792 0.0
H2096 H 0.92618 0.77397 0.72449 0.0
H2097 H 0.86615 0.73398 0.67355 0.0
H2098 H 0.88653 0.72651 0.67498 0.0
H2099 H 0.88551 0.74721 0.66515 0.0
C2100 C 0.94173 0.73518 0.69041 0.0
C2101 C 0.94787 0.74449 0.67608 0.0
C2102 C 0.92738 0.73899 0.69824 0.0
C2103 C 0.91907 0.75201 0.69174 0.0
C2104 C 0.92457 0.76076 0.67698 0.0
H2105 H 0.84142 0.80262 0.73465 0.0
H2106 H 0.86813 0.79845 0.72204 0.0
C2107 C 0.93897 0.75696 0.66909 0.0
C2108 C 0.90594 0.75796 0.70186 0.0
H2109 H 0.8615 0.75264 0.70059 0.0
C2110 C 0.91202 0.76944 0.71933 0.0
C2111 C 0.88769 0.75178 0.69478 0.0
C2112 C 0.88095 0.7391 0.67611 0.0
C2113 C 0.89999 0.77488 0.73021 0.0
C2114 C 0.88177 0.76856 0.72321 0.0
C2115 C 0.87568 0.75729 0.70565 0.0
C2116 C 0.86856 0.77331 0.73393 0.0
C2117 C 0.9066 0.78709 0.74909 0.0
C2118 C 0.86065 0.76066 0.745 0.0
C2119 C 0.84537 0.76284 0.75207 0.0
C2120 C 0.83811 0.77766 0.748 0.0
C2121 C 0.84688 0.7911 0.73798 0.0
C2122 C 0.86205 0.78881 0.73082 0.0
H2123 H 0.92139 0.79136 0.75219 0.0
H2124 H 0.90179 0.80021 0.75007 0.0
H2125 H 0.90104 0.77907 0.75974 0.0
H2126 H 0.86574 0.74858 0.74729 0.0
H2127 H 0.83888 0.75255 0.76004 0.0
H2128 H 0.1328 0.98864 0.82712 0.0
H2129 H 0.11965 0.9889 0.85634 0.0
H2130 H 0.09524 0.03264 0.84295 0.0
H2131 H 0.10758 0.03211 0.81427 0.0
H2132 H 0.12189 0.01379 0.88786 0.0
H2133 H 0.05214 1.00049 0.85649 0.0
H2134 H 0.06945 0.99823 0.84263 0.0
H2135 H 0.06582 0.02137 0.85017 0.0
C2136 C 0.12451 0.9982 0.83024 0.0
C2137 C 0.12145 0.0102 0.81756 0.0
C2138 C 0.11688 0.99841 0.84722 0.0
C2139 C 0.10571 0.01048 0.85233 0.0
C2140 C 0.10301 0.02255 0.83975 0.0
H2141 H 0.04491 0.04009 0.94406 0.0
H2142 H 0.05934 0.03708 0.9162 0.0
C2143 C 0.11045 0.02231 0.823 0.0
C2144 C 0.09732 0.0112 0.87067 0.0
H2145 H 0.0584 0.01269 0.88886 0.0
C2146 C 0.10793 0.01333 0.8879 0.0
C2147 C 0.07901 0.0108 0.87157 0.0
C2148 C 0.06591 0.0074 0.85422 0.0
C2149 C 0.10129 0.01574 0.90531 0.0
C2150 C 0.08302 0.01555 0.90624 0.0
C2151 C 0.07236 0.0131 0.88893 0.0
C2152 C 0.07476 0.01816 0.9246 0.0
C2153 C 0.11443 0.01936 0.92262 0.0
C2154 C 0.07808 0.00885 0.93966 0.0
C2155 C 0.07012 0.01118 0.9562 0.0
C2156 C 0.05808 0.02265 0.9585 0.0
C2157 C 0.05445 0.03161 0.94339 0.0
C2158 C 0.06267 0.02962 0.92707 0.0
H2159 H 0.12832 0.02536 0.92008 0.0
H2160 H 0.1114 0.02946 0.93381 0.0
H2161 H 0.11389 0.00559 0.92738 0.0
H2162 H 0.08644 0.99911 0.93852 0.0
H2163 H 0.0728 0.00323 0.96688 0.0
H2164 H 0.77248 0.36261 0.55107 0.0
H2165 H 0.77872 0.3669 0.58461 0.0
H2166 H 0.82495 0.41345 0.58473 0.0
H2167 H 0.81889 0.409 0.55151 0.0
H2168 H 0.82072 0.36482 0.58076 0.0
H2169 H 0.80695 0.41044 0.64196 0.0
H2170 H 0.79048 0.40174 0.62151 0.0
H2171 H 0.81078 0.41935 0.62078 0.0
C2172 C 0.78309 0.37474 0.55842 0.0
C2173 C 0.79548 0.38519 0.54886 0.0
C2174 C 0.78661 0.37727 0.5776 0.0
C2175 C 0.80255 0.39016 0.58691 0.0
C2176 C 0.81257 0.40349 0.57772 0.0
H2177 H 0.85242 0.36513 0.6865 0.0
H2178 H 0.85154 0.38232 0.6605 0.0
C2179 C 0.80909 0.40091 0.5586 0.0
C2180 C 0.81246 0.38368 0.60134 0.0
H2181 H 0.82227 0.38737 0.6476 0.0
C2182 C 0.82126 0.36983 0.59544 0.0
C2183 C 0.81354 0.39084 0.62019 0.0
C2184 C 0.80499 0.40646 0.62667 0.0
C2185 C 0.8305 0.36215 0.60809 0.0
C2186 C 0.8304 0.36811 0.62714 0.0
C2187 C 0.82239 0.3828 0.633 0.0
C2188 C 0.83583 0.35733 0.64096 0.0
C2189 C 0.83992 0.34752 0.60076 0.0
C2190 C 0.82826 0.33748 0.63823 0.0
C2191 C 0.82951 0.32764 0.65269 0.0
C2192 C 0.83762 0.33762 0.67033 0.0
C2193 C 0.84638 0.35719 0.67286 0.0
C2194 C 0.84568 0.36698 0.65812 0.0
H2195 H 0.84566 0.35108 0.58816 0.0
H2196 H 0.85078 0.34654 0.61112 0.0
H2197 H 0.8301 0.33327 0.59668 0.0
H2198 H 0.81994 0.3298 0.62546 0.0
H2199 H 0.82221 0.31265 0.65058 0.0
H2200 H 0.45129 0.05106 0.33022 0.0
H2201 H 0.46528 0.05398 0.36174 0.0
H2202 H 0.44681 0.9927 0.35808 0.0
H2203 H 0.43332 0.98955 0.32606 0.0
H2204 H 0.45436 0.04397 0.3933 0.0
H2205 H 0.50092 0.00319 0.36702 0.0
H2206 H 0.486 0.0113 0.35187 0.0
H2207 H 0.47778 0.99028 0.36163 0.0
C2208 C 0.44971 0.03828 0.33633 0.0
C2209 C 0.44152 0.02008 0.32585 0.0
C2210 C 0.45778 0.03996 0.35423 0.0
C2211 C 0.45736 0.02349 0.36182 0.0
C2212 C 0.44757 0.00544 0.35207 0.0
H2213 H 0.50242 0.00794 0.46503 0.0
H2214 H 0.48316 0.00764 0.43694 0.0
C2215 C 0.43977 0.0037 0.33399 0.0
C2216 C 0.46829 0.02533 0.37941 0.0
H2217 H 0.50387 0.013 0.39939 0.0
C2218 C 0.46518 0.03721 0.39469 0.0
C2219 C 0.48258 0.01673 0.3808 0.0
C2220 C 0.48717 0.00481 0.36443 0.0
C2221 C 0.47592 0.04051 0.41164 0.0
C2222 C 0.48979 0.03154 0.41307 0.0
C2223 C 0.49306 0.01977 0.39787 0.0
C2224 C 0.50044 0.0332 0.43063 0.0
C2225 C 0.47243 0.05336 0.42797 0.0
C2226 C 0.51621 0.04789 0.43605 0.0
C2227 C 0.52728 0.04808 0.452 0.0
C2228 C 0.52247 0.03356 0.46236 0.0
C2229 C 0.50632 0.01927 0.45716 0.0
C2230 C 0.49535 0.01906 0.44125 0.0
H2231 H 0.46117 0.05951 0.42439 0.0
H2232 H 0.46937 0.04513 0.43924 0.0
H2233 H 0.48461 0.06526 0.43332 0.0
H2234 H 0.5201 0.05881 0.42772 0.0
H2235 H 0.53966 0.05927 0.456 0.0
H2236 H 0.78247 0.7519 0.04642 0.0
H2237 H 0.78523 0.76252 0.07972 0.0
H2238 H 0.80344 0.71334 0.08918 0.0
H2239 H 0.80106 0.70279 0.05583 0.0
H2240 H 0.7644 0.73997 0.10019 0.0
H2241 H 0.83585 0.75563 0.12916 0.0
H2242 H 0.82861 0.7543 0.10492 0.0
H2243 H 0.82698 0.73275 0.11428 0.0
C2244 C 0.78755 0.74362 0.05557 0.0
C2245 C 0.79139 0.72641 0.04845 0.0
C2246 C 0.7891 0.7497 0.07461 0.0
C2247 C 0.79452 0.73873 0.08695 0.0
C2248 C 0.79951 0.72221 0.07995 0.0
H2249 H 0.79419 0.7403 0.20418 0.0
H2250 H 0.79545 0.73214 0.17114 0.0
C2251 C 0.79809 0.71617 0.06084 0.0
C2252 C 0.79257 0.7432 0.10676 0.0
H2253 H 0.81505 0.75387 0.15058 0.0
C2254 C 0.77551 0.74316 0.11122 0.0
C2255 C 0.80702 0.74707 0.12112 0.0
C2256 C 0.82569 0.74761 0.11718 0.0
C2257 C 0.77241 0.74667 0.12961 0.0
C2258 C 0.78688 0.7508 0.14398 0.0
C2259 C 0.80397 0.75077 0.13955 0.0
C2260 C 0.78461 0.75493 0.16373 0.0
C2261 C 0.75357 0.74535 0.13345 0.0
C2262 C 0.77776 0.77023 0.17053 0.0
C2263 C 0.77662 0.77462 0.18939 0.0
C2264 C 0.78278 0.76407 0.20172 0.0
C2265 C 0.78937 0.74863 0.19488 0.0
C2266 C 0.79017 0.74402 0.17605 0.0
H2267 H 0.7436 0.73683 0.12153 0.0
H2268 H 0.75089 0.73876 0.14582 0.0
H2269 H 0.75164 0.75997 0.13603 0.0
H2270 H 0.7738 0.77914 0.16137 0.0
H2271 H 0.77181 0.7868 0.19444 0.0
H2272 H 0.13358 0.03555 0.71157 0.0
H2273 H 0.12079 0.0375 0.68064 0.0
H2274 H 0.09254 0.97771 0.67207 0.0
H2275 H 0.10516 0.97593 0.70353 0.0
H2276 H 0.12193 0.02377 0.64689 0.0
H2277 H 0.05135 0.99696 0.65632 0.0
H2278 H 0.06929 0.00212 0.67517 0.0
H2279 H 0.06387 0.97985 0.65902 0.0
C2280 C 0.12492 0.02264 0.70301 0.0
C2281 C 0.12089 0.00547 0.7102 0.0
C2282 C 0.11742 0.0238 0.68516 0.0
C2283 C 0.10519 0.00792 0.67358 0.0
C2284 C 0.10148 0.99049 0.68051 0.0
H2285 H 0.05052 0.99398 0.55863 0.0
H2286 H 0.0627 0.98922 0.58892 0.0
C2287 C 0.10906 0.98932 0.69853 0.0
C2288 C 0.09669 0.00998 0.65455 0.0
H2289 H 0.05674 0.00228 0.62629 0.0
C2290 C 0.10764 0.01906 0.64258 0.0
C2291 C 0.07795 0.00406 0.64834 0.0
C2292 C 0.06489 0.99538 0.66043 0.0
C2293 C 0.10067 0.02212 0.62508 0.0
C2294 C 0.08201 0.01616 0.61891 0.0
C2295 C 0.07102 0.00693 0.63071 0.0
C2296 C 0.07382 0.01931 0.60031 0.0
C2297 C 0.1135 0.03145 0.6131 0.0
C2298 C 0.07543 0.03785 0.59619 0.0
C2299 C 0.06818 0.04066 0.57877 0.0
C2300 C 0.05918 0.02502 0.56462 0.0
C2301 C 0.05739 0.00649 0.56889 0.0
C2302 C 0.06438 0.00371 0.58639 0.0
H2303 H 0.12741 0.03124 0.61767 0.0
H2304 H 0.10959 0.02418 0.59845 0.0
H2305 H 0.11322 0.04661 0.61384 0.0
H2306 H 0.08233 0.05029 0.60652 0.0
H2307 H 0.06993 0.05517 0.57628 0.0
H2308 H 0.80815 0.35279 0.46134 0.0
H2309 H 0.80656 0.33956 0.42892 0.0
H2310 H 0.80078 0.39266 0.4139 0.0
H2311 H 0.8023 0.40624 0.44687 0.0
H2312 H 0.77459 0.34194 0.39941 0.0
H2313 H 0.84566 0.37187 0.39069 0.0
H2314 H 0.83972 0.36819 0.41311 0.0
H2315 H 0.83348 0.38663 0.40279 0.0
C2316 C 0.8066 0.36171 0.45117 0.0
C2317 C 0.80533 0.38047 0.45641 0.0
C2318 C 0.8057 0.35415 0.43275 0.0
C2319 C 0.80367 0.36527 0.41934 0.0
C2320 C 0.80239 0.38405 0.42434 0.0
H2321 H 0.79985 0.32435 0.30414 0.0
H2322 H 0.80491 0.34412 0.3346 0.0
C2323 C 0.80313 0.39166 0.44296 0.0
C2324 C 0.80228 0.35637 0.40013 0.0
H2325 H 0.82803 0.3468 0.3674 0.0
C2326 C 0.78612 0.3432 0.39214 0.0
C2327 C 0.81754 0.35803 0.39119 0.0
C2328 C 0.83516 0.37192 0.39977 0.0
C2329 C 0.78489 0.3311 0.37536 0.0
C2330 C 0.80033 0.33221 0.3667 0.0
C2331 C 0.81636 0.34589 0.37439 0.0
C2332 C 0.79969 0.3201 0.34896 0.0
C2333 C 0.76715 0.31718 0.3671 0.0
C2334 C 0.79568 0.3001 0.34725 0.0
C2335 C 0.79264 0.28867 0.3298 0.0
C2336 C 0.79373 0.29729 0.31412 0.0
C2337 C 0.79884 0.31735 0.31607 0.0
C2338 C 0.80179 0.32868 0.3334 0.0
H2339 H 0.75594 0.32092 0.37357 0.0
H2340 H 0.76455 0.31678 0.352 0.0
H2341 H 0.76738 0.30259 0.36933 0.0
H2342 H 0.7943 0.29338 0.35932 0.0
H2343 H 0.78887 0.27322 0.32854 0.0
H2344 H 0.48677 0.03606 0.2332 0.0
H2345 H 0.48628 0.02899 0.19969 0.0
H2346 H 0.42898 0.01849 0.19181 0.0
H2347 H 0.42962 0.0266 0.22509 0.0
H2348 H 0.46494 0.98983 0.18718 0.0
H2349 H 0.44404 0.04004 0.14539 0.0
H2350 H 0.45477 0.04802 0.16904 0.0
H2351 H 0.4321 0.03369 0.16413 0.0
C2352 C 0.47433 0.03355 0.22415 0.0
C2353 C 0.45831 0.03201 0.23132 0.0
C2354 C 0.47399 0.02939 0.20514 0.0
C2355 C 0.45757 0.02317 0.19347 0.0
C2356 C 0.44175 0.02365 0.2006 0.0
H2357 H 0.45744 0.98463 0.07844 0.0
H2358 H 0.44223 0.98157 0.10571 0.0
C2359 C 0.44215 0.02829 0.21955 0.0
C2360 C 0.45669 0.01193 0.1752 0.0
H2361 H 0.4502 0.01278 0.12939 0.0
C2362 C 0.46156 0.99469 0.17446 0.0
C2363 C 0.45141 0.01793 0.15885 0.0
C2364 C 0.44531 0.03596 0.15924 0.0
C2365 C 0.46279 0.98401 0.15764 0.0
C2366 C 0.45938 0.99103 0.14126 0.0
C2367 C 0.45286 0.00737 0.14196 0.0
C2368 C 0.46637 0.98476 0.12432 0.0
C2369 C 0.46856 0.96585 0.15778 0.0
C2370 C 0.48466 0.98597 0.12558 0.0
C2371 C 0.4932 0.98724 0.11008 0.0
C2372 C 0.48366 0.9879 0.09322 0.0
C2373 C 0.46501 0.98423 0.09139 0.0
C2374 C 0.45636 0.98254 0.10693 0.0
H2375 H 0.46234 0.95793 0.16821 0.0
H2376 H 0.46501 0.95628 0.14408 0.0
H2377 H 0.48323 0.96956 0.16188 0.0
H2378 H 0.49283 0.9883 0.13885 0.0
H2379 H 0.50762 0.99033 0.11194 0.0
H2380 H 0.81222 0.72894 0.95512 0.0
H2381 H 0.81605 0.7411 0.926 0.0
H2382 H 0.76234 0.70846 0.90319 0.0
H2383 H 0.75833 0.69715 0.93235 0.0
H2384 H 0.81481 0.72558 0.89073 0.0
H2385 H 0.75955 0.75998 0.89458 0.0
H2386 H 0.76802 0.75043 0.91362 0.0
H2387 H 0.75197 0.7349 0.895 0.0
C2388 C 0.80141 0.72416 0.94372 0.0
C2389 C 0.78504 0.71198 0.94586 0.0
C2390 C 0.80352 0.73121 0.92714 0.0
C2391 C 0.7893 0.72615 0.91247 0.0
C2392 C 0.77331 0.71315 0.91441 0.0
H2393 H 0.77027 0.7475 0.80044 0.0
H2394 H 0.76921 0.73536 0.82967 0.0
C2395 C 0.77112 0.70642 0.93099 0.0
C2396 C 0.791 0.73434 0.89515 0.0
H2397 H 0.77016 0.75626 0.86535 0.0
C2398 C 0.80512 0.73243 0.88529 0.0
C2399 C 0.77846 0.74348 0.88801 0.0
C2400 C 0.76378 0.74751 0.89847 0.0
C2401 C 0.80667 0.73871 0.86827 0.0
C2402 C 0.7938 0.74724 0.86088 0.0
C2403 C 0.77987 0.74947 0.87086 0.0
C2404 C 0.7947 0.75421 0.84294 0.0
C2405 C 0.82182 0.7357 0.85808 0.0
C2406 C 0.80931 0.7689 0.84066 0.0
C2407 C 0.81 0.77571 0.82396 0.0
C2408 C 0.79599 0.76815 0.80921 0.0
C2409 C 0.78133 0.7535 0.8115 0.0
C2410 C 0.78068 0.74661 0.82822 0.0
H2411 H 0.82791 0.72493 0.86324 0.0
H2412 H 0.8172 0.73096 0.84303 0.0
H2413 H 0.83234 0.74943 0.8601 0.0
H2414 H 0.82007 0.77533 0.85193 0.0
H2415 H 0.82138 0.78719 0.82276 0.0
H2416 H 0.80494 0.08153 0.00818 0.0
H2417 H 0.83087 0.07166 0.99851 0.0
H2418 H 0.86173 0.13084 0.0094 0.0
H2419 H 0.83622 0.14062 0.01993 0.0
H2420 H 0.84952 0.08107 0.97051 0.0
H2421 H 0.89338 0.10659 0.03806 0.0
H2422 H 0.86983 0.10484 0.03565 0.0
H2423 H 0.88516 0.12488 0.02943 0.0
C2424 C 0.81744 0.0923 0.00896 0.0
C2425 C 0.81886 0.11171 0.01525 0.0
C2426 C 0.83211 0.08672 0.00325 0.0
C2427 C 0.84822 0.10053 0.00355 0.0
C2428 C 0.84955 0.11995 0.00962 0.0
H2429 H 0.95198 0.08498 0.98486 0.0
H2430 H 0.92713 0.09977 0.98602 0.0
C2431 C 0.83503 0.1255 0.01572 0.0
C2432 C 0.86369 0.09461 0.99759 0.0
H2433 H 0.90634 0.09514 0.0128 0.0
C2434 C 0.862 0.08417 0.97969 0.0
C2435 C 0.87988 0.09881 0.00964 0.0
C2436 C 0.88216 0.10923 0.02932 0.0
C2437 C 0.87614 0.07759 0.97355 0.0
C2438 C 0.89223 0.08151 0.98574 0.0
C2439 C 0.89403 0.09239 0.00343 0.0
C2440 C 0.90674 0.07281 0.98141 0.0
C2441 C 0.87366 0.06642 0.95419 0.0
C2442 C 0.90339 0.05282 0.97819 0.0
C2443 C 0.91748 0.0444 0.97754 0.0
C2444 C 0.93517 0.05583 0.98033 0.0
C2445 C 0.93847 0.07586 0.98279 0.0
C2446 C 0.92432 0.08429 0.98334 0.0
H2447 H 0.86363 0.07035 0.94491 0.0
H2448 H 0.8864 0.06883 0.94831 0.0
H2449 H 0.8687 0.05091 0.95447 0.0
H2450 H 0.88998 0.04374 0.97727 0.0
H2451 H 0.91454 0.02895 0.97598 0.0
H2452 H 0.3391 0.43325 0.0182 0.0
H2453 H 0.36729 0.45524 0.01381 0.0
H2454 H 0.39572 0.41431 0.02663 0.0
H2455 H 0.36804 0.39252 0.03091 0.0
H2456 H 0.39949 0.47167 0.03823 0.0
H2457 H 0.41187 0.42502 0.97764 0.0
H2458 H 0.39041 0.42118 0.9857 0.0
H2459 H 0.40792 0.41313 0.99696 0.0
C2460 C 0.35138 0.42902 0.02021 0.0
C2461 C 0.35116 0.411 0.02485 0.0
C2462 C 0.3675 0.44156 0.01759 0.0
C2463 C 0.38366 0.43627 0.01942 0.0
C2464 C 0.38346 0.41858 0.02459 0.0
H2465 H 0.49726 0.4871 0.01588 0.0
H2466 H 0.46774 0.46528 0.01648 0.0
C2467 C 0.36751 0.40614 0.0272 0.0
C2468 C 0.40093 0.44927 0.01657 0.0
H2469 H 0.43649 0.45114 0.99254 0.0
C2470 C 0.40747 0.46726 0.02809 0.0
C2471 C 0.41153 0.44352 0.00346 0.0
C2472 C 0.40503 0.42473 0.99011 0.0
C2473 C 0.42442 0.47933 0.0273 0.0
C2474 C 0.4351 0.47357 0.01426 0.0
C2475 C 0.42847 0.45563 0.00259 0.0
C2476 C 0.45299 0.48615 0.01245 0.0
C2477 C 0.43095 0.4979 0.04098 0.0
C2478 C 0.45463 0.50492 0.00931 0.0
C2479 C 0.47141 0.5174 0.00935 0.0
C2480 C 0.48703 0.51133 0.01193 0.0
C2481 C 0.48545 0.49219 0.01388 0.0
C2482 C 0.46857 0.47973 0.01423 0.0
H2483 H 0.42391 0.49747 0.05332 0.0
H2484 H 0.4455 0.50122 0.04565 0.0
H2485 H 0.42831 0.50974 0.03434 0.0
H2486 H 0.44289 0.51009 0.00717 0.0
H2487 H 0.47217 0.53196 0.00749 0.0
H2488 H 0.41639 0.6353 0.78607 0.0
H2489 H 0.40006 0.6596 0.78582 0.0
H2490 H 0.36168 0.62283 0.74135 0.0
H2491 H 0.37822 0.59809 0.74152 0.0
H2492 H 0.39258 0.68158 0.762 0.0
H2493 H 0.3271 0.63859 0.77357 0.0
H2494 H 0.34705 0.63053 0.77654 0.0
H2495 H 0.33536 0.6283 0.75379 0.0
C2496 C 0.40446 0.63204 0.7761 0.0
C2497 C 0.39902 0.61409 0.76381 0.0
C2498 C 0.39497 0.64632 0.77599 0.0
C2499 C 0.37911 0.64365 0.76378 0.0
C2500 C 0.37351 0.62572 0.75137 0.0
H2501 H 0.30112 0.71455 0.74921 0.0
H2502 H 0.31717 0.68979 0.74893 0.0
C2503 C 0.3832 0.61136 0.75134 0.0
C2504 C 0.36912 0.65974 0.76401 0.0
H2505 H 0.32834 0.66957 0.76756 0.0
C2506 C 0.37849 0.67877 0.7632 0.0
C2507 C 0.35063 0.65692 0.76566 0.0
C2508 C 0.33941 0.63756 0.76763 0.0
C2509 C 0.37022 0.69426 0.76332 0.0
C2510 C 0.35168 0.69153 0.76509 0.0
C2511 C 0.34237 0.67246 0.7661 0.0
C2512 C 0.34166 0.70772 0.76546 0.0
C2513 C 0.38165 0.71328 0.7607 0.0
C2514 C 0.34918 0.72693 0.77497 0.0
C2515 C 0.33998 0.74157 0.77464 0.0
C2516 C 0.32236 0.73778 0.76541 0.0
C2517 C 0.31458 0.71851 0.75651 0.0
C2518 C 0.32393 0.70403 0.75642 0.0
H2519 H 0.39307 0.71151 0.75343 0.0
H2520 H 0.37387 0.72086 0.75261 0.0
H2521 H 0.38727 0.72234 0.77442 0.0
H2522 H 0.36225 0.7308 0.78305 0.0
H2523 H 0.34663 0.75589 0.78203 0.0
H2524 H 0.23883 0.60132 0.49562 0.0
H2525 H 0.20767 0.58447 0.48379 0.0
H2526 H 0.19103 0.63172 0.51203 0.0
H2527 H 0.22201 0.64875 0.5234 0.0
H2528 H 0.18612 0.57456 0.50888 0.0
H2529 H 0.15647 0.61662 0.46477 0.0
H2530 H 0.1803 0.61999 0.46946 0.0
H2531 H 0.16887 0.63162 0.48569 0.0
C2532 C 0.22848 0.60817 0.49901 0.0
C2533 C 0.23261 0.62609 0.51064 0.0
C2534 C 0.21081 0.59869 0.49207 0.0
C2535 C 0.19721 0.60703 0.49685 0.0
C2536 C 0.20143 0.62534 0.50774 0.0
H2537 H 0.09553 0.57793 0.5275 0.0
H2538 H 0.12736 0.58887 0.52503 0.0
C2539 C 0.21907 0.63491 0.51448 0.0
C2540 C 0.17876 0.59532 0.49397 0.0
H2541 H 0.13623 0.59728 0.48202 0.0
C2542 C 0.17518 0.57916 0.50252 0.0
C2543 C 0.16466 0.60157 0.48581 0.0
C2544 C 0.16781 0.61831 0.47576 0.0
C2545 C 0.15774 0.56983 0.50423 0.0
C2546 C 0.14384 0.57688 0.49712 0.0
C2547 C 0.14722 0.59225 0.48761 0.0
C2548 C 0.12558 0.56883 0.49983 0.0
C2549 C 0.15423 0.55318 0.5144 0.0
C2550 C 0.1146 0.55391 0.48655 0.0
C2551 C 0.09658 0.54783 0.48778 0.0
C2552 C 0.08952 0.55661 0.50237 0.0
C2553 C 0.10076 0.57101 0.51614 0.0
C2554 C 0.1188 0.57721 0.51479 0.0
H2555 H 0.16661 0.54918 0.51876 0.0
H2556 H 0.14805 0.55693 0.52684 0.0
H2557 H 0.14462 0.54056 0.50544 0.0
H2558 H 0.11989 0.54744 0.47498 0.0
H2559 H 0.08815 0.53652 0.47714 0.0
H2560 H 0.6952 0.01413 0.7871 0.0
H2561 H 0.70906 0.98977 0.79608 0.0
H2562 H 0.71009 0.96821 0.73875 0.0
H2563 H 0.69599 0.99239 0.72954 0.0
H2564 H 0.69092 0.9456 0.77604 0.0
H2565 H 0.76267 0.97966 0.77361 0.0
H2566 H 0.74691 0.9935 0.77842 0.0
H2567 H 0.74645 0.98149 0.75535 0.0
C2568 C 0.69872 0.00444 0.77645 0.0
C2569 C 0.69459 0.00494 0.75768 0.0
C2570 C 0.70649 0.99059 0.7816 0.0
C2571 C 0.71041 0.97751 0.76799 0.0
C2572 C 0.70703 0.97842 0.74928 0.0
H2573 H 0.75007 0.88329 0.74904 0.0
H2574 H 0.73546 0.90908 0.74922 0.0
C2575 C 0.69906 0.99212 0.74409 0.0
C2576 C 0.71717 0.96208 0.7732 0.0
H2577 H 0.75466 0.94672 0.77602 0.0
C2578 C 0.70488 0.94583 0.77643 0.0
C2579 C 0.73534 0.96285 0.77353 0.0
C2580 C 0.74871 0.98033 0.77015 0.0
C2581 C 0.71034 0.9296 0.77916 0.0
C2582 C 0.7284 0.9301 0.77876 0.0
C2583 C 0.74081 0.94669 0.77636 0.0
C2584 C 0.73444 0.91291 0.77864 0.0
C2585 C 0.6968 0.91175 0.78147 0.0
C2586 C 0.73812 0.90655 0.79512 0.0
C2587 C 0.74639 0.89179 0.79506 0.0
C2588 C 0.75095 0.88348 0.7785 0.0
C2589 C 0.74639 0.88932 0.7619 0.0
C2590 C 0.73819 0.90404 0.76198 0.0
H2591 H 0.68306 0.91355 0.78061 0.0
H2592 H 0.69699 0.89957 0.77066 0.0
H2593 H 0.70037 0.90799 0.79508 0.0
H2594 H 0.73528 0.91351 0.80803 0.0
H2595 H 0.74981 0.88736 0.80797 0.0
H2596 H 0.74562 0.89797 0.47704 0.0
H2597 H 0.71964 0.91075 0.47403 0.0
H2598 H 0.72541 0.92681 0.53323 0.0
H2599 H 0.75155 0.91405 0.53641 0.0
H2600 H 0.68684 0.90143 0.48858 0.0
H2601 H 0.72529 0.977 0.5142 0.0
H2602 H 0.73577 0.95832 0.50695 0.0
H2603 H 0.72874 0.96086 0.5294 0.0
C2604 C 0.74146 0.90428 0.48948 0.0
C2605 C 0.75087 0.90516 0.507 0.0
C2606 C 0.7265 0.91149 0.4877 0.0
C2607 C 0.72067 0.91995 0.50336 0.0
C2608 C 0.72982 0.9206 0.52091 0.0
H2609 H 0.64015 0.97743 0.52791 0.0
H2610 H 0.66351 0.96074 0.52763 0.0
C2611 C 0.74475 0.91327 0.52272 0.0
C2612 C 0.70526 0.92843 0.50133 0.0
H2613 H 0.69377 0.97058 0.51046 0.0
C2614 C 0.68834 0.91656 0.49329 0.0
C2615 C 0.70726 0.94822 0.50718 0.0
C2616 C 0.72526 0.96192 0.51475 0.0
C2617 C 0.67327 0.92384 0.4917 0.0
C2618 C 0.67522 0.94354 0.49814 0.0
C2619 C 0.69222 0.95545 0.5057 0.0
C2620 C 0.65981 0.95213 0.49794 0.0
C2621 C 0.65531 0.91032 0.48366 0.0
C2622 C 0.64975 0.95274 0.48132 0.0
C2623 C 0.63619 0.96223 0.48143 0.0
C2624 C 0.63245 0.97134 0.49819 0.0
C2625 C 0.64236 0.97033 0.51478 0.0
C2626 C 0.65588 0.96091 0.51464 0.0
H2627 H 0.65537 0.89509 0.48305 0.0
H2628 H 0.64482 0.91322 0.49189 0.0
H2629 H 0.65169 0.91247 0.46939 0.0
H2630 H 0.65268 0.94633 0.46822 0.0
H2631 H 0.62879 0.96261 0.46839 0.0
H2632 H 0.37664 0.50551 0.76737 0.0
H2633 H 0.35866 0.47343 0.77051 0.0
H2634 H 0.39179 0.44719 0.73796 0.0
H2635 H 0.40967 0.47866 0.73514 0.0
H2636 H 0.338 0.44106 0.74788 0.0
H2637 H 0.39502 0.41991 0.78012 0.0
H2638 H 0.3967 0.44417 0.77684 0.0
H2639 H 0.39882 0.42641 0.75815 0.0
C2640 C 0.37995 0.49292 0.76065 0.0
C2641 C 0.39483 0.49511 0.75093 0.0
C2642 C 0.36967 0.47438 0.76258 0.0
C2643 C 0.37393 0.45732 0.75499 0.0
C2644 C 0.38829 0.45966 0.74467 0.0
H2645 H 0.33078 0.3301 0.74786 0.0
H2646 H 0.349 0.36266 0.74651 0.0
C2647 C 0.3985 0.47796 0.74284 0.0
C2648 C 0.36349 0.43718 0.7574 0.0
H2649 H 0.36851 0.3946 0.76902 0.0
C2650 C 0.34478 0.43106 0.75268 0.0
C2651 C 0.3719 0.42354 0.76357 0.0
C2652 C 0.39168 0.42888 0.77014 0.0
C2653 C 0.33458 0.41211 0.75331 0.0
C2654 C 0.34298 0.39838 0.75936 0.0
C2655 C 0.36171 0.40458 0.76423 0.0
C2656 C 0.33254 0.37796 0.76108 0.0
C2657 C 0.31482 0.4069 0.7467 0.0
C2658 C 0.31742 0.37494 0.77034 0.0
C2659 C 0.30693 0.35634 0.77093 0.0
C2660 C 0.31122 0.3396 0.76283 0.0
C2661 C 0.32694 0.3424 0.75444 0.0
C2662 C 0.33738 0.36123 0.75358 0.0
H2663 H 0.31154 0.41602 0.73686 0.0
H2664 H 0.30976 0.39168 0.7398 0.0
H2665 H 0.30765 0.40927 0.7587 0.0
H2666 H 0.31346 0.38708 0.77709 0.0
H2667 H 0.29512 0.35507 0.77769 0.0
H2668 H 0.18844 0.58363 0.28137 0.0
H2669 H 0.2125 0.61336 0.2916 0.0
H2670 H 0.20096 0.63089 0.2395 0.0
H2671 H 0.17646 0.60175 0.22973 0.0
H2672 H 0.24244 0.62893 0.27699 0.0
H2673 H 0.19687 0.67557 0.27694 0.0
H2674 H 0.189 0.65003 0.27609 0.0
H2675 H 0.19263 0.65956 0.25524 0.0
C2676 C 0.19131 0.59386 0.27216 0.0
C2677 C 0.18076 0.59094 0.25501 0.0
C2678 C 0.20484 0.61072 0.278 0.0
C2679 C 0.20788 0.62441 0.26652 0.0
C2680 C 0.1982 0.62069 0.24876 0.0
H2681 H 0.26412 0.71981 0.23665 0.0
H2682 H 0.24954 0.68746 0.24083 0.0
C2683 C 0.18446 0.6041 0.24312 0.0
C2684 C 0.22132 0.64263 0.27267 0.0
H2685 H 0.22712 0.68968 0.27059 0.0
C2686 C 0.2392 0.64236 0.27611 0.0
C2687 C 0.21681 0.66006 0.27211 0.0
C2688 C 0.19774 0.66132 0.27011 0.0
C2689 C 0.25286 0.65888 0.27649 0.0
C2690 C 0.24819 0.6756 0.27339 0.0
C2691 C 0.23042 0.67643 0.2723 0.0
C2692 C 0.26115 0.692 0.26951 0.0
C2693 C 0.27203 0.65812 0.2788 0.0
C2694 C 0.27334 0.70432 0.28392 0.0
C2695 C 0.28181 0.72259 0.28148 0.0
C2696 C 0.27774 0.72855 0.26478 0.0
C2697 C 0.26736 0.7154 0.24962 0.0
C2698 C 0.25898 0.69706 0.25204 0.0
H2699 H 0.27325 0.64339 0.27918 0.0
H2700 H 0.27875 0.66352 0.26735 0.0
H2701 H 0.27917 0.66756 0.29191 0.0
H2702 H 0.27501 0.7005 0.29746 0.0
H2703 H 0.29009 0.73262 0.2932 0.0
H2704 H 0.49415 0.71857 0.4623 0.0
H2705 H 0.50288 0.69375 0.47653 0.0
H2706 H 0.53182 0.68184 0.43145 0.0
H2707 H 0.52356 0.70732 0.41732 0.0
H2708 H 0.49503 0.65673 0.46494 0.0
H2709 H 0.56853 0.68441 0.47416 0.0
H2710 H 0.55383 0.6987 0.46808 0.0
H2711 H 0.55859 0.68146 0.45063 0.0
C2712 C 0.50245 0.71077 0.45535 0.0
C2713 C 0.50808 0.71497 0.43853 0.0
C2714 C 0.50746 0.69653 0.46359 0.0
C2715 C 0.51823 0.68595 0.45528 0.0
C2716 C 0.52389 0.69006 0.43846 0.0
H2717 H 0.55398 0.58676 0.47643 0.0
H2718 H 0.54859 0.6151 0.46535 0.0
C2719 C 0.51903 0.70454 0.43027 0.0
C2720 C 0.52266 0.67009 0.46386 0.0
H2721 H 0.55709 0.65239 0.47876 0.0
C2722 C 0.50863 0.65587 0.46805 0.0
C2723 C 0.54039 0.66893 0.46812 0.0
C2724 C 0.55621 0.68429 0.4652 0.0
C2725 C 0.51172 0.64029 0.47571 0.0
C2726 C 0.52945 0.63892 0.47964 0.0
C2727 C 0.5435 0.65328 0.4757 0.0
C2728 C 0.53364 0.6224 0.48721 0.0
C2729 C 0.49582 0.62516 0.47891 0.0
C2730 C 0.5275 0.61721 0.50349 0.0
C2731 C 0.53028 0.60079 0.5096 0.0
C2732 C 0.53985 0.58964 0.49995 0.0
C2733 C 0.54676 0.59529 0.48423 0.0
C2734 C 0.54363 0.61146 0.47788 0.0
H2735 H 0.48333 0.6255 0.47055 0.0
H2736 H 0.49776 0.61059 0.47551 0.0
H2737 H 0.49398 0.62782 0.49367 0.0
H2738 H 0.52029 0.62568 0.51136 0.0
H2739 H 0.52482 0.59667 0.52175 0.0
H2740 H 0.64228 0.32126 0.63317 0.0
H2741 H 0.66631 0.31797 0.65527 0.0
H2742 H 0.62765 0.2821 0.68159 0.0
H2743 H 0.6034 0.28562 0.65961 0.0
H2744 H 0.6722 0.32651 0.69576 0.0
H2745 H 0.66347 0.24973 0.66701 0.0
H2746 H 0.65451 0.26541 0.65443 0.0
H2747 H 0.64362 0.25618 0.67271 0.0
C2748 C 0.63883 0.31287 0.64381 0.0
C2749 C 0.62085 0.3038 0.64465 0.0
C2750 C 0.65263 0.31098 0.65645 0.0
C2751 C 0.6489 0.29964 0.67004 0.0
C2752 C 0.63093 0.29083 0.67117 0.0
H2753 H 0.71445 0.27024 0.75787 0.0
H2754 H 0.69039 0.27375 0.73584 0.0
C2755 C 0.61705 0.293 0.6587 0.0
C2756 C 0.66388 0.29684 0.68273 0.0
H2757 H 0.68475 0.26315 0.69376 0.0
C2758 C 0.67495 0.31266 0.69529 0.0
C2759 C 0.66764 0.27882 0.68208 0.0
C2760 C 0.65683 0.26154 0.66826 0.0
C2761 C 0.68935 0.31085 0.70739 0.0
C2762 C 0.69304 0.2928 0.70683 0.0
C2763 C 0.682 0.27699 0.69423 0.0
C2764 C 0.70793 0.28999 0.71964 0.0
C2765 C 0.70034 0.32816 0.72103 0.0
C2766 C 0.72594 0.29764 0.71778 0.0
C2767 C 0.7398 0.29533 0.73022 0.0
C2768 C 0.73595 0.28552 0.74494 0.0
C2769 C 0.71791 0.27777 0.74664 0.0
C2770 C 0.70411 0.2798 0.73406 0.0
H2771 H 0.6943 0.34042 0.72156 0.0
H2772 H 0.70187 0.32458 0.73507 0.0
H2773 H 0.71387 0.33269 0.71705 0.0
H2774 H 0.7293 0.30557 0.70678 0.0
H2775 H 0.75347 0.30182 0.72873 0.0
H2776 H 0.98513 0.31253 0.9479 0.0
H2777 H 0.99154 0.34658 0.95984 0.0
H2778 H 0.0472 0.35346 0.95462 0.0
H2779 H 0.0406 0.31902 0.94166 0.0
H2780 H 0.01433 0.36526 0.99176 0.0
H2781 H 0.03486 0.39667 0.9304 0.0
H2782 H 0.023 0.37175 0.92835 0.0
H2783 H 0.0461 0.37996 0.9381 0.0
C2784 C 0.99878 0.32122 0.94943 0.0
C2785 C 0.01246 0.31316 0.94427 0.0
C2786 C 0.00239 0.34068 0.95611 0.0
C2787 C 0.0198 0.35245 0.9581 0.0
C2788 C 0.03362 0.34457 0.95294 0.0
H2789 H 0.04823 0.46951 0.01641 0.0
H2790 H 0.0471 0.43597 0.00652 0.0
C2791 C 0.02991 0.32497 0.94578 0.0
C2792 C 0.02305 0.37273 0.96642 0.0
H2793 H 0.03168 0.41778 0.95633 0.0
C2794 C 0.01833 0.3768 0.98412 0.0
C2795 C 0.02821 0.38762 0.95629 0.0
C2796 C 0.03327 0.38391 0.93719 0.0
C2797 C 0.01791 0.39528 0.99168 0.0
C2798 C 0.02251 0.40997 0.98134 0.0
C2799 C 0.02794 0.4062 0.96398 0.0
C2800 C 0.02206 0.42952 0.98853 0.0
C2801 C 0.01194 0.39897 0.01035 0.0
C2802 C 0.00799 0.43659 0.98197 0.0
C2803 C 0.00852 0.45579 0.98761 0.0
C2804 C 0.02325 0.468 -0.00033 0.0
C2805 C 0.0368 0.46048 0.00693 0.0
C2806 C 0.03622 0.44137 0.00133 0.0
H2807 H 0.00768 0.38564 0.0161 0.0
H2808 H 0.02304 0.4092 0.02016 0.0
H2809 H 1.00067 0.40564 0.00928 0.0
H2810 H 0.99692 0.42739 0.97213 0.0
H2811 H 0.99793 0.46125 0.98183 0.0
H2812 H 0.01125 0.7707 0.12228 0.0
H2813 H 0.9819 0.76022 0.13229 0.0
H2814 H 0.9989 0.80427 0.18086 0.0
H2815 H 0.0281 0.81491 0.17099 0.0
H2816 H 0.97163 0.74808 0.1666 0.0
H2817 H 0.95332 0.8142 0.15522 0.0
H2818 H 0.97127 0.80688 0.14524 0.0
H2819 H 0.97475 0.81889 0.16889 0.0
C2820 C 0.00877 0.77814 0.13513 0.0
C2821 C 0.02205 0.79381 0.14575 0.0
C2822 C 0.99199 0.77207 0.14084 0.0
C2823 C 0.98812 0.7816 0.15721 0.0
C2824 C 1.00149 0.79687 0.16804 0.0
H2825 H 0.91314 0.79039 0.22889 0.0
H2826 H 0.93794 0.79022 0.21131 0.0
C2827 C 0.01822 0.80293 0.16238 0.0
C2828 C 0.97005 0.77625 0.16293 0.0
H2829 H 0.9364 0.79572 0.17465 0.0
C2830 C 0.96375 0.75833 0.16812 0.0
C2831 C 0.95958 0.78947 0.16453 0.0
C2832 C 0.96496 0.80836 0.158 0.0
C2833 C 0.94795 0.75396 0.17623 0.0
C2834 C 0.93824 0.76784 0.17909 0.0
C2835 C 0.94396 0.78517 0.17272 0.0
C2836 C 0.92337 0.76591 0.19044 0.0
C2837 C 0.94224 0.735 0.18255 0.0
C2838 C 0.90692 0.75199 0.18481 0.0
C2839 C 0.89267 0.75197 0.19507 0.0
C2840 C 0.89465 0.76603 0.21088 0.0
C2841 C 0.91124 0.7795 0.21668 0.0
C2842 C 0.92541 0.7794 0.20664 0.0
H2843 H 0.95244 0.72684 0.1815 0.0
H2844 H 0.93957 0.73722 0.19708 0.0
H2845 H 0.92968 0.7262 0.17386 0.0
H2846 H 0.90492 0.74161 0.17222 0.0
H2847 H 0.87995 0.7415 0.19027 0.0
H2848 H 0.47546 0.29872 0.09917 0.0
H2849 H 0.49021 0.32615 0.08567 0.0
H2850 H 0.54159 0.32269 0.10966 0.0
H2851 H 0.52708 0.29552 0.12337 0.0
H2852 H 0.52007 0.36209 0.11217 0.0
H2853 H 0.5393 0.32418 0.0494 0.0
H2854 H 0.51974 0.31311 0.05898 0.0
H2855 H 0.54147 0.31608 0.0712 0.0
C2856 C 0.48989 0.30376 0.10146 0.0
C2857 C 0.50012 0.29515 0.11241 0.0
C2858 C 0.49826 0.31933 0.09377 0.0
C2859 C 0.51691 0.32621 0.09669 0.0
C2860 C 0.52718 0.31744 0.10728 0.0
H2861 H 0.57152 0.42324 0.0469 0.0
H2862 H 0.56865 0.3971 0.0648 0.0
C2863 C 0.51884 0.30204 0.11515 0.0
C2864 C 0.52553 0.3433 0.08952 0.0
H2865 H 0.54373 0.35761 0.05226 0.0
C2866 C 0.52549 0.36121 0.09922 0.0
C2867 C 0.53289 0.34192 0.07287 0.0
C2868 C 0.53345 0.32283 0.06239 0.0
C2869 C 0.53176 0.37786 0.09206 0.0
C2870 C 0.53786 0.37637 0.0747 0.0
C2871 C 0.539 0.35859 0.06558 0.0
C2872 C 0.54019 0.39241 0.06455 0.0
C2873 C 0.53119 0.39686 0.10275 0.0
C2874 C 0.52511 0.3981 0.05847 0.0
C2875 C 0.52667 0.4128 0.04834 0.0
C2876 C 0.54336 0.42204 0.04401 0.0
C2877 C 0.55851 0.41628 0.05005 0.0
C2878 C 0.55692 0.40147 0.06026 0.0
H2879 H 0.53092 0.3964 0.11767 0.0
H2880 H 0.54288 0.40846 0.1012 0.0
H2881 H 0.51893 0.40046 0.0973 0.0
H2882 H 0.51204 0.39093 0.06137 0.0
H2883 H 0.51473 0.41664 0.04351 0.0
H2884 H 0.03484 0.27036 0.34016 0.0
H2885 H 0.00627 0.27131 0.32419 0.0
H2886 H 0.02669 0.33208 0.32615 0.0
H2887 H 0.05542 0.33113 0.34166 0.0
H2888 H 0.98737 0.29456 0.34328 0.0
H2889 H 0.99843 0.31299 0.27423 0.0
H2890 H 0.01379 0.30359 0.28755 0.0
H2891 H 0.01353 0.32818 0.29362 0.0
C2892 C 0.03349 0.28369 0.33631 0.0
C2893 C 0.04727 0.30062 0.34199 0.0
C2894 C 0.01716 0.28427 0.32743 0.0
C2895 C 0.01447 0.30175 0.32413 0.0
C2896 C 0.02867 0.31841 0.32836 0.0
H2897 H 0.92115 0.33617 0.28911 0.0
H2898 H 0.95117 0.33426 0.29927 0.0
C2899 C 0.04511 0.3178 0.33706 0.0
C2900 C 0.99631 0.30284 0.31829 0.0
H2901 H 0.97017 0.3124 0.28333 0.0
C2902 C 0.98351 0.29833 0.33013 0.0
C2903 C 0.99161 0.3082 0.30136 0.0
C2904 C 0.00501 0.31341 0.28836 0.0
C2905 C 0.96593 0.29895 0.32536 0.0
C2906 C 0.96108 0.30369 0.3081 0.0
C2907 C 0.97397 0.3085 0.29644 0.0
C2908 C 0.94285 0.30447 0.30207 0.0
C2909 C 0.9529 0.29503 0.339 0.0
C2910 C 0.92834 0.28821 0.3001 0.0
C2911 C 0.91114 0.2893 0.29439 0.0
C2912 C 0.90842 0.30657 0.2903 0.0
C2913 C 0.92302 0.32263 0.29192 0.0
C2914 C 0.9401 0.3216 0.29781 0.0
H2915 H 0.95986 0.29701 0.35328 0.0
H2916 H 0.94384 0.30455 0.33893 0.0
H2917 H 0.94464 0.27997 0.33516 0.0
H2918 H 0.93033 0.27474 0.30296 0.0
H2919 H 0.9 0.27674 0.29314 0.0
H2920 H 0.01528 0.72051 0.60642 0.0
H2921 H 0.02468 0.69681 0.58568 0.0
H2922 H 0.97447 0.65541 0.58506 0.0
H2923 H 0.96499 0.67891 0.60602 0.0
H2924 H 0.02293 0.6572 0.59821 0.0
H2925 H 0.98652 0.65644 0.52932 0.0
H2926 H 0.99262 0.6773 0.54748 0.0
H2927 H 0.97435 0.65733 0.54873 0.0
C2928 C 0.006 0.70658 0.60132 0.0
C2929 C 0.98942 0.70139 0.60767 0.0
C2930 C 0.01147 0.6931 0.58971 0.0
C2931 C 1.00022 0.67461 0.58415 0.0
C2932 C 0.98318 0.66978 0.58937 0.0
H2933 H 0.99748 0.57157 0.5154 0.0
H2934 H 0.99222 0.59569 0.53916 0.0
C2935 C 0.97778 0.68315 0.60116 0.0
C2936 C 0.00662 0.65976 0.57396 0.0
H2937 H 1.00015 0.63146 0.53197 0.0
C2938 C 0.01817 0.65155 0.58367 0.0
C2939 C 1.00015 0.65271 0.55518 0.0
C2940 C 0.98779 0.66143 0.54445 0.0
C2941 C 0.02294 0.63562 0.57501 0.0
C2942 C 0.01614 0.6283 0.55624 0.0
C2943 C 0.00509 0.63705 0.54648 0.0
C2944 C 0.02007 0.61154 0.54601 0.0
C2945 C 0.03462 0.62645 0.58609 0.0
C2946 C 0.03755 0.61218 0.54277 0.0
C2947 C 0.04057 0.59823 0.52946 0.0
C2948 C 0.02605 0.58409 0.51903 0.0
C2949 C 0.00873 0.5828 0.52305 0.0
C2950 C 0.00578 0.59635 0.53669 0.0
H2951 H 0.03464 0.63056 0.60117 0.0
H2952 H 0.03019 0.61059 0.58224 0.0
H2953 H 0.04854 0.63131 0.58321 0.0
H2954 H 0.04865 0.62403 0.54964 0.0
H2955 H 0.05404 0.5991 0.52656 0.0
H2956 H 0.65537 0.84483 0.86391 0.0
H2957 H 0.67518 0.83302 0.84405 0.0
H2958 H 0.62926 0.79422 0.80874 0.0
H2959 H 0.6096 0.80685 0.82793 0.0
H2960 H 0.67845 0.79772 0.83845 0.0
H2961 H 0.65718 0.8155 0.77088 0.0
H2962 H 0.65048 0.8252 0.79206 0.0
H2963 H 0.63908 0.80134 0.7801 0.0
C2964 C 0.64965 0.83417 0.8516 0.0
C2965 C 0.63117 0.82686 0.8471 0.0
C2966 C 0.66087 0.82737 0.84037 0.0
C2967 C 0.65363 0.81293 0.82481 0.0
C2968 C 0.63508 0.80576 0.82033 0.0
H2969 H 0.71808 0.75122 0.76004 0.0
H2970 H 0.69214 0.75597 0.77472 0.0
C2971 C 0.6239 0.81288 0.83129 0.0
C2972 C 0.66552 0.80441 0.8141 0.0
H2973 H 0.67687 0.79564 0.77093 0.0
C2974 C 0.67802 0.79716 0.82367 0.0
C2975 C 0.66483 0.80362 0.7948 0.0
C2976 C 0.65228 0.812 0.78389 0.0
C2977 C 0.69026 0.78969 0.81451 0.0
C2978 C 0.6897 0.78923 0.79535 0.0
C2979 C 0.67683 0.79572 0.78561 0.0
C2980 C 0.70452 0.78587 0.78602 0.0
C2981 C 0.70432 0.7833 0.82545 0.0
C2982 C 0.71954 0.80127 0.78735 0.0
C2983 C 0.73398 0.79877 0.77885 0.0
C2984 C 0.73373 0.78072 0.76899 0.0
C2985 C 0.71851 0.76527 0.76745 0.0
C2986 C 0.70383 0.7679 0.77585 0.0
H2987 H 0.70101 0.78131 0.83942 0.0
H2988 H 0.70602 0.76967 0.81802 0.0
H2989 H 0.71728 0.79431 0.82708 0.0
H2990 H 0.72015 0.8152 0.79521 0.0
H2991 H 0.7456 0.81092 0.78064 0.0
H2992 H 0.44267 0.57197 0.69004 0.0
H2993 H 0.45583 0.57182 0.66079 0.0
H2994 H 0.49069 0.53965 0.68026 0.0
H2995 H 0.47797 0.53969 0.70879 0.0
H2996 H 0.49099 0.58397 0.6498 0.0
H2997 H 0.46865 0.50507 0.63162 0.0
H2998 H 0.46043 0.51821 0.64986 0.0
H2999 H 0.48176 0.51323 0.654 0.0
C3000 C 0.45317 0.56492 0.6882 0.0
C3001 C 0.45877 0.55563 0.70233 0.0
C3002 C 0.4608 0.5648 0.67124 0.0
C3003 C 0.47421 0.55522 0.66751 0.0
C3004 C 0.48014 0.54669 0.68192 0.0
H3005 H 0.54527 0.53709 0.5834 0.0
H3006 H 0.52981 0.53981 0.61059 0.0
C3007 C 0.4727 0.54686 0.69864 0.0
C3008 C 0.48196 0.55357 0.6489 0.0
H3009 H 0.49022 0.52069 0.61437 0.0
C3010 C 0.49047 0.57005 0.64201 0.0
C3011 C 0.48189 0.53558 0.63823 0.0
C3012 C 0.47256 0.517 0.64367 0.0
C3013 C 0.49891 0.569 0.6256 0.0
C3014 C 0.4989 0.55101 0.6151 0.0
C3015 C 0.49038 0.5346 0.62194 0.0
C3016 C 0.50819 0.54896 0.59757 0.0
C3017 C 0.50844 0.5873 0.61987 0.0
C3018 C 0.50141 0.55264 0.58033 0.0
C3019 C 0.51011 0.55046 0.56425 0.0
C3020 C 0.52621 0.54486 0.56478 0.0
C3021 C 0.5329 0.54125 0.58205 0.0
C3022 C 0.52401 0.54292 0.59787 0.0
H3023 H 0.50904 0.60014 0.63026 0.0
H3024 H 0.52225 0.58699 0.61777 0.0
H3025 H 0.50145 0.58859 0.60651 0.0
H3026 H 0.48929 0.55726 0.57924 0.0
H3027 H 0.5045 0.55379 0.55156 0.0
H3028 H 0.74677 0.14951 0.97289 0.0
H3029 H 0.73629 0.16194 0.94631 0.0
H3030 H 0.78909 0.1992 0.94845 0.0
H3031 H 0.79978 0.18625 0.97495 0.0
H3032 H 0.73847 0.2014 0.95094 0.0
H3033 H 0.77257 0.17714 0.89288 0.0
H3034 H 0.77013 0.16537 0.91265 0.0
H3035 H 0.78645 0.1879 0.9146 0.0
C3036 C 0.75623 0.15991 0.96726 0.0
C3037 C 0.77402 0.16705 0.97565 0.0
C3038 C 0.75025 0.16699 0.95221 0.0
C3039 C 0.76196 0.18139 0.94558 0.0
C3040 C 0.78001 0.18783 0.95333 0.0
H3041 H 0.74453 0.26534 0.88568 0.0
H3042 H 0.74628 0.24754 0.91063 0.0
C3043 C 0.78609 0.1805 0.96833 0.0
C3044 C 0.75465 0.19102 0.93199 0.0
H3045 H 0.75569 0.19917 0.88805 0.0
C3046 C 0.74209 0.20084 0.93711 0.0
C3047 C 0.75953 0.19013 0.91413 0.0
C3048 C 0.77282 0.17947 0.90811 0.0
C3049 C 0.73424 0.21 0.92468 0.0
C3050 C 0.73919 0.20921 0.90685 0.0
C3051 C 0.75173 0.19935 0.90172 0.0
C3052 C 0.73289 0.21998 0.89369 0.0
C3053 C 0.72081 0.22046 0.93064 0.0
C3054 C 0.724 0.21035 0.8762 0.0
C3055 C 0.72301 0.22051 0.86182 0.0
C3056 C 0.73102 0.24031 0.86493 0.0
C3057 C 0.73796 0.25013 0.88299 0.0
C3058 C 0.73904 0.23997 0.89728 0.0
H3059 H 0.71565 0.21625 0.94332 0.0
H3060 H 0.72724 0.2361 0.93364 0.0
H3061 H 0.70942 0.21765 0.91946 0.0
H3062 H 0.71927 0.19486 0.87332 0.0
H3063 H 0.71764 0.2127 0.84798 0.0
H3064 H 0.09987 0.50454 0.18971 0.0
H3065 H 0.09029 0.50305 0.15672 0.0
H3066 H 0.1312 0.55514 0.15735 0.0
H3067 H 0.14082 0.55658 0.19014 0.0
H3068 H 0.08316 0.54363 0.15197 0.0
H3069 H 0.12546 0.51377 0.10539 0.0
H3070 H 0.12165 0.50526 0.12677 0.0
H3071 H 0.13511 0.52906 0.12738 0.0
C3072 C 0.10714 0.51512 0.18248 0.0
C3073 C 0.12087 0.53064 0.19191 0.0
C3074 C 0.10182 0.51426 0.16385 0.0
C3075 C 0.11032 0.52889 0.15497 0.0
C3076 C 0.1249 0.54363 0.16414 0.0
H3077 H 0.06853 0.55002 0.04997 0.0
H3078 H 0.08858 0.55206 0.07802 0.0
C3079 C 0.13021 0.54448 0.1827 0.0
C3080 C 0.10147 0.53114 0.13774 0.0
H3081 H 0.10001 0.52099 0.09132 0.0
C3082 C 0.08682 0.53882 0.13865 0.0
C3083 C 0.10692 0.52538 0.12079 0.0
C3084 C 0.12317 0.5179 0.11984 0.0
C3085 C 0.07663 0.53986 0.12259 0.0
C3086 C 0.08123 0.53265 0.10555 0.0
C3087 C 0.09656 0.52612 0.10464 0.0
C3088 C 0.06963 0.5308 0.08858 0.0
C3089 C 0.06087 0.54821 0.1239 0.0
C3090 C 0.05267 0.51786 0.08551 0.0
C3091 C 0.0412 0.51666 0.06961 0.0
C3092 C 0.0468 0.52833 0.05683 0.0
C3093 C 0.064 0.5409 0.05976 0.0
C3094 C 0.07542 0.5421 0.07564 0.0
H3095 H 0.06203 0.55753 0.13752 0.0
H3096 H 0.05955 0.5567 0.11283 0.0
H3097 H 0.04848 0.53639 0.12222 0.0
H3098 H 0.04831 0.50891 0.09551 0.0
H3099 H 0.028 0.50681 0.06741 0.0
H3100 H 0.76394 0.82949 0.47037 0.0
H3101 H 0.76024 0.81765 0.43669 0.0
H3102 H 0.81413 0.85012 0.43518 0.0
H3103 H 0.81797 0.86134 0.46843 0.0
H3104 H 0.76798 0.83868 0.40384 0.0
H3105 H 0.81161 0.79178 0.41846 0.0
H3106 H 0.79992 0.80169 0.43566 0.0
H3107 H 0.82017 0.81623 0.43008 0.0
C3108 C 0.77483 0.83416 0.46268 0.0
C3109 C 0.79136 0.84592 0.47184 0.0
C3110 C 0.77271 0.8275 0.44356 0.0
C3111 C 0.78705 0.83283 0.43363 0.0
C3112 C 0.80304 0.84565 0.44269 0.0
H3113 H 0.82092 0.81265 0.32696 0.0
H3114 H 0.81839 0.82261 0.35971 0.0
C3115 C 0.80523 0.85197 0.46164 0.0
C3116 C 0.78638 0.82392 0.41423 0.0
H3117 H 0.80746 0.79691 0.38744 0.0
C3118 C 0.77634 0.8293 0.40018 0.0
C3119 C 0.79736 0.81171 0.40961 0.0
C3120 C 0.80777 0.80484 0.42423 0.0
C3121 C 0.77762 0.82334 0.38152 0.0
C3122 C 0.78922 0.8118 0.37701 0.0
C3123 C 0.79881 0.806 0.39104 0.0
C3124 C 0.79125 0.80519 0.35772 0.0
C3125 C 0.76707 0.82986 0.36674 0.0
C3126 C 0.7771 0.79165 0.34619 0.0
C3127 C 0.77855 0.78594 0.32774 0.0
C3128 C 0.79422 0.7936 0.3205 0.0
C3129 C 0.80878 0.80645 0.33227 0.0
C3130 C 0.80728 0.81224 0.35085 0.0
H3131 H 0.76092 0.84115 0.3726 0.0
H3132 H 0.77575 0.83545 0.35669 0.0
H3133 H 0.75625 0.81748 0.35907 0.0
H3134 H 0.76481 0.78575 0.35139 0.0
H3135 H 0.76719 0.77583 0.31898 0.0
H3136 H 0.48803 0.5684 0.80303 0.0
H3137 H 0.50049 0.56615 0.83413 0.0
H3138 H 0.44776 0.55375 0.84968 0.0
H3139 H 0.43524 0.55632 0.81851 0.0
H3140 H 0.50004 0.58419 0.87143 0.0
H3141 H 0.46551 0.50671 0.8595 0.0
H3142 H 0.46778 0.52033 0.84103 0.0
H3143 H 0.45119 0.52201 0.85589 0.0
C3144 C 0.47907 0.5658 0.81321 0.0
C3145 C 0.46054 0.56295 0.80809 0.0
C3146 C 0.48627 0.56435 0.8311 0.0
C3147 C 0.47521 0.55944 0.84453 0.0
C3148 C 0.45676 0.55733 0.83973 0.0
H3149 H 0.49147 0.52813 0.95491 0.0
H3150 H 0.47982 0.53423 0.92489 0.0
C3151 C 0.44956 0.55914 0.82187 0.0
C3152 C 0.48289 0.55561 0.86299 0.0
H3153 H 0.48126 0.52037 0.88934 0.0
C3154 C 0.49589 0.57021 0.87528 0.0
C3155 C 0.47786 0.53735 0.86829 0.0
C3156 C 0.46496 0.5206 0.85548 0.0
C3157 C 0.5034 0.56728 0.89262 0.0
C3158 C 0.49822 0.54903 0.89801 0.0
C3159 C 0.48534 0.53441 0.8856 0.0
C3160 C 0.50564 0.54492 0.91645 0.0
C3161 C 0.51647 0.58405 0.90529 0.0
C3162 C 0.52416 0.54842 0.9221 0.0
C3163 C 0.53085 0.54497 0.93943 0.0
C3164 C 0.51927 0.5376 0.95164 0.0
C3165 C 0.5008 0.53366 0.94588 0.0
C3166 C 0.49412 0.53721 0.92861 0.0
H3167 H 0.51539 0.59794 0.90166 0.0
H3168 H 0.51435 0.58406 0.91992 0.0
H3169 H 0.53026 0.58305 0.90405 0.0
H3170 H 0.53356 0.55379 0.91307 0.0
H3171 H 0.54514 0.54814 0.94333 0.0
H3172 H 0.78827 0.16738 0.07619 0.0
H3173 H 0.79158 0.18179 0.10889 0.0
H3174 H 0.76788 0.22571 0.09396 0.0
H3175 H 0.76447 0.21157 0.06148 0.0
H3176 H 0.80993 0.22052 0.12583 0.0
H3177 H 0.73777 0.20227 0.13212 0.0
H3178 H 0.74679 0.19032 0.11366 0.0
H3179 H 0.74292 0.21336 0.11252 0.0
C3180 C 0.78398 0.18024 0.0799 0.0
C3181 C 0.77604 0.18834 0.06638 0.0
C3182 C 0.78573 0.18829 0.0985 0.0
C3183 C 0.77954 0.20442 0.1036 0.0
C3184 C 0.77226 0.21293 0.09013 0.0
H3185 H 0.79063 0.29258 0.1963 0.0
H3186 H 0.7862 0.27261 0.16545 0.0
C3187 C 0.77047 0.20492 0.07163 0.0
C3188 C 0.78123 0.21309 0.12297 0.0
H3189 H 0.75695 0.22737 0.15539 0.0
C3190 C 0.7984 0.22181 0.13246 0.0
C3191 C 0.76604 0.21451 0.13138 0.0
C3192 C 0.74733 0.20445 0.12196 0.0
C3193 C 0.80079 0.2329 0.15002 0.0
C3194 C 0.78562 0.23516 0.15794 0.0
C3195 C 0.76845 0.22577 0.14885 0.0
C3196 C 0.78742 0.24688 0.17603 0.0
C3197 C 0.81941 0.24248 0.15993 0.0
C3198 C 0.78923 0.23863 0.19167 0.0
C3199 C 0.79156 0.24978 0.20902 0.0
C3200 C 0.79226 0.26934 0.21083 0.0
C3201 C 0.7902 0.27755 0.19509 0.0
C3202 C 0.78767 0.26625 0.17764 0.0
H3203 H 0.82982 0.23992 0.15143 0.0
H3204 H 0.8212 0.25816 0.16366 0.0
H3205 H 0.82136 0.23697 0.17296 0.0
H3206 H 0.78907 0.22365 0.19044 0.0
H3207 H 0.79321 0.24314 0.22099 0.0
H3208 H 0.14025 0.52054 0.30088 0.0
H3209 H 0.13571 0.53512 0.33162 0.0
H3210 H 0.11477 0.57651 0.30731 0.0
H3211 H 0.11868 0.56196 0.27691 0.0
H3212 H 0.14922 0.57672 0.35005 0.0
H3213 H 0.07541 0.54867 0.33535 0.0
H3214 H 0.09021 0.53864 0.32216 0.0
H3215 H 0.08542 0.5605 0.31789 0.0
C3216 C 0.13454 0.53264 0.30217 0.0
C3217 C 0.12963 0.54 0.28656 0.0
C3218 C 0.13214 0.54101 0.31964 0.0
C3219 C 0.1249 0.55677 0.32149 0.0
C3220 C 0.12026 0.56424 0.30598 0.0
H3221 H 0.07327 0.60163 0.40419 0.0
H3222 H 0.0931 0.60715 0.3809 0.0
C3223 C 0.12246 0.55584 0.28864 0.0
C3224 C 0.12132 0.5652 0.33943 0.0
H3225 H 0.08712 0.5722 0.36198 0.0
C3226 C 0.13569 0.5758 0.35281 0.0
C3227 C 0.10364 0.56396 0.34268 0.0
C3228 C 0.08776 0.5522 0.32884 0.0
C3229 C 0.13276 0.58551 0.36955 0.0
C3230 C 0.11505 0.58432 0.37282 0.0
C3231 C 0.10074 0.57365 0.35928 0.0
C3232 C 0.1105 0.59094 0.39107 0.0
C3233 C 0.14862 0.59687 0.38349 0.0
C3234 C 0.11513 0.58216 0.40573 0.0
C3235 C 0.10403 0.57937 0.4192 0.0
C3236 C 0.08816 0.58503 0.41781 0.0
C3237 C 0.08542 0.59703 0.40535 0.0
C3238 C 0.09675 0.60016 0.39205 0.0
H3239 H 0.16013 0.60291 0.37651 0.0
H3240 H 0.14547 0.60874 0.39256 0.0
H3241 H 0.15276 0.5872 0.39222 0.0
H3242 H 0.1256 0.57487 0.40529 0.0
H3243 H 0.10642 0.57031 0.42898 0.0
H3244 H 0.78843 0.81786 0.56029 0.0
H3245 H 0.7835 0.8054 0.58872 0.0
H3246 H 0.78778 0.86248 0.6174 0.0
H3247 H 0.79171 0.87478 0.58852 0.0
H3248 H 0.8051 0.81147 0.61824 0.0
H3249 H 0.74674 0.83504 0.63874 0.0
H3250 H 0.75358 0.83649 0.6163 0.0
H3251 H 0.76453 0.85477 0.63597 0.0
C3252 C 0.78786 0.82769 0.57256 0.0
C3253 C 0.79031 0.84729 0.57211 0.0
C3254 C 0.78514 0.82056 0.5889 0.0
C3255 C 0.78509 0.83287 0.6054 0.0
C3256 C 0.7872 0.85247 0.60489 0.0
H3257 H 0.79123 0.81222 0.72035 0.0
H3258 H 0.79271 0.82737 0.69268 0.0
C3259 C 0.78952 0.85956 0.58835 0.0
C3260 C 0.7842 0.82524 0.62317 0.0
H3261 H 0.76287 0.8234 0.66151 0.0
C3262 C 0.79576 0.81406 0.62759 0.0
C3263 C 0.77207 0.82849 0.63558 0.0
C3264 C 0.75841 0.83918 0.63133 0.0
C3265 C 0.79559 0.8062 0.64384 0.0
C3266 C 0.78364 0.80964 0.65629 0.0
C3267 C 0.77219 0.82095 0.65208 0.0
C3268 C 0.7823 0.80076 0.67322 0.0
C3269 C 0.80827 0.79425 0.64762 0.0
C3270 C 0.77577 0.78084 0.67153 0.0
C3271 C 0.77489 0.77223 0.68723 0.0
C3272 C 0.78048 0.7833 0.70507 0.0
C3273 C 0.78683 0.8033 0.70682 0.0
C3274 C 0.78765 0.81196 0.69102 0.0
H3275 H 0.81913 0.79629 0.63888 0.0
H3276 H 0.81431 0.79781 0.66237 0.0
H3277 H 0.8008 0.77888 0.64459 0.0
H3278 H 0.77137 0.7719 0.65801 0.0
H3279 H 0.76987 0.7568 0.68534 0.0
H3280 H 0.75394 0.42357 0.53586 0.0
H3281 H 0.73181 0.44016 0.54547 0.0
H3282 H 0.74185 0.47444 0.50308 0.0
H3283 H 0.76416 0.4581 0.49347 0.0
H3284 H 0.73602 0.48688 0.55258 0.0
H3285 H 0.68609 0.43752 0.49609 0.0
H3286 H 0.7052 0.43104 0.50631 0.0
H3287 H 0.70803 0.44775 0.4907 0.0
C3288 C 0.75144 0.43467 0.52861 0.0
C3289 C 0.76051 0.43939 0.51373 0.0
C3290 C 0.739 0.44424 0.53426 0.0
C3291 C 0.73538 0.45846 0.52498 0.0
C3292 C 0.74468 0.46354 0.51044 0.0
H3293 H 0.6561 0.51593 0.50912 0.0
H3294 H 0.68097 0.50141 0.50943 0.0
C3295 C 0.75728 0.45414 0.5049 0.0
C3296 C 0.7205 0.46654 0.52908 0.0
H3297 H 0.67758 0.4633 0.51221 0.0
C3298 C 0.72315 0.48172 0.54394 0.0
C3299 C 0.70384 0.45951 0.51778 0.0
C3300 C 0.70045 0.44298 0.50185 0.0
C3301 C 0.70955 0.49069 0.54728 0.0
C3302 C 0.69303 0.48403 0.53553 0.0
C3303 C 0.69029 0.46836 0.52115 0.0
C3304 C 0.67887 0.49405 0.53656 0.0
C3305 C 0.71316 0.50765 0.56277 0.0
C3306 C 0.66952 0.49476 0.55179 0.0
C3307 C 0.65525 0.50313 0.55165 0.0
C3308 C 0.65008 0.5106 0.53616 0.0
C3309 C 0.65961 0.50998 0.52108 0.0
C3310 C 0.67389 0.50183 0.5213 0.0
H3311 H 0.7275 0.51282 0.56867 0.0
H3312 H 0.70886 0.51963 0.55783 0.0
H3313 H 0.70537 0.50349 0.57397 0.0
H3314 H 0.67299 0.48849 0.56354 0.0
H3315 H 0.64804 0.50343 0.56342 0.0
H3316 H 0.20907 0.17017 0.48087 0.0
H3317 H 0.18079 0.14746 0.48251 0.0
H3318 H 0.20904 0.11273 0.50892 0.0
H3319 H 0.23766 0.13553 0.50719 0.0
H3320 H 0.16775 0.10706 0.46849 0.0
H3321 H 0.1737 0.12476 0.54503 0.0
H3322 H 0.18732 0.13983 0.53174 0.0
H3323 H 0.19218 0.118 0.53587 0.0
C3324 C 0.20933 0.15762 0.48691 0.0
C3325 C 0.22565 0.1547 0.49397 0.0
C3326 C 0.19311 0.14463 0.48782 0.0
C3327 C 0.19271 0.12852 0.49606 0.0
C3328 C 0.20899 0.1252 0.50269 0.0
H3329 H 0.10543 0.03551 0.51153 0.0
H3330 H 0.13425 0.05813 0.51123 0.0
C3331 C 0.22534 0.13813 0.50156 0.0
C3332 C 0.17516 0.11558 0.49792 0.0
H3333 H 0.14808 0.10084 0.52959 0.0
C3334 C 0.16345 0.10571 0.48185 0.0
C3335 C 0.16949 0.11391 0.51535 0.0
C3336 C 0.18121 0.12476 0.53303 0.0
C3337 C 0.14636 0.09408 0.48276 0.0
C3338 C 0.14065 0.09248 0.50016 0.0
C3339 C 0.15239 0.10224 0.51624 0.0
C3340 C 0.12296 0.07976 0.50187 0.0
C3341 C 0.13457 0.08322 0.46512 0.0
C3342 C 0.10694 0.0846 0.49718 0.0
C3343 C 0.09033 0.07177 0.49774 0.0
C3344 C 0.08957 0.05381 0.50267 0.0
C3345 C 0.10563 0.04928 0.50773 0.0
C3346 C 0.12212 0.06218 0.50754 0.0
H3347 H 0.14172 0.08414 0.45289 0.0
H3348 H 0.12939 0.0679 0.46612 0.0
H3349 H 0.12293 0.08917 0.46296 0.0
H3350 H 0.10728 0.09811 0.49274 0.0
H3351 H 0.07817 0.07549 0.49346 0.0
H3352 H 0.17628 0.93841 0.79165 0.0
H3353 H 0.19211 0.91385 0.78654 0.0
H3354 H 0.2093 0.93464 0.73815 0.0
H3355 H 0.19325 0.95975 0.74331 0.0
H3356 H 0.18944 0.88324 0.76084 0.0
H3357 H 0.25679 0.93011 0.75997 0.0
H3358 H 0.2389 0.93976 0.7671 0.0
H3359 H 0.23948 0.9319 0.74302 0.0
C3360 C 0.18339 0.9381 0.77982 0.0
C3361 C 0.18317 0.95183 0.7681 0.0
C3362 C 0.19263 0.92365 0.77686 0.0
C3363 C 0.20261 0.92186 0.76208 0.0
C3364 C 0.20235 0.9354 0.75007 0.0
H3365 H 0.27719 0.8454 0.74123 0.0
H3366 H 0.2603 0.86949 0.74025 0.0
C3367 C 0.19288 0.94995 0.75297 0.0
C3368 C 0.21265 0.90575 0.7596 0.0
H3369 H 0.25401 0.89711 0.75656 0.0
C3370 C 0.2036 0.88648 0.75992 0.0
C3371 C 0.23118 0.909 0.75788 0.0
C3372 C 0.24228 0.92879 0.75708 0.0
C3373 C 0.21202 0.87105 0.75854 0.0
C3374 C 0.23086 0.87442 0.75803 0.0
C3375 C 0.23983 0.8937 0.75729 0.0
C3376 C 0.24132 0.85854 0.75816 0.0
C3377 C 0.20003 0.85107 0.7567 0.0
C3378 C 0.23719 0.84343 0.76847 0.0
C3379 C 0.24657 0.82891 0.76834 0.0
C3380 C 0.26134 0.82899 0.75867 0.0
C3381 C 0.26598 0.84438 0.74888 0.0
C3382 C 0.25616 0.85851 0.74843 0.0
H3383 H 0.18635 0.85006 0.75009 0.0
H3384 H 0.20518 0.84031 0.74829 0.0
H3385 H 0.19885 0.84744 0.77065 0.0
H3386 H 0.22683 0.84287 0.77717 0.0
H3387 H 0.24254 0.81785 0.77648 0.0
H3388 H 0.35456 0.94818 0.05492 0.0
H3389 H 0.38157 0.97295 0.05301 0.0
H3390 H 0.36218 0.97098 0.99571 0.0
H3391 H 0.33463 0.94885 -0.0014 0.0
H3392 H 0.40006 0.95787 0.03407 0.0
H3393 H 0.39527 0.02007 0.00238 0.0
H3394 H 0.37672 0.00712 0.01213 0.0
H3395 H 0.37964 0.9996 0.98845 0.0
C3396 C 0.35568 0.95434 0.0425 0.0
C3397 C 0.34295 0.94677 0.02682 0.0
C3398 C 0.37105 0.96833 0.04131 0.0
C3399 C 0.37412 0.9735 0.02409 0.0
C3400 C 0.36018 0.96773 0.00927 0.0
H3401 H 0.47145 0.99776 0.97345 0.0
H3402 H 0.44163 0.9795 0.97764 0.0
C3403 C 0.34443 0.95479 0.01085 0.0
C3404 C 0.39251 0.97926 0.01997 0.0
H3405 H 0.41881 0.00545 0.99385 0.0
C3406 C 0.40419 0.96864 0.02563 0.0
C3407 C 0.39782 0.99274 0.00838 0.0
C3408 C 0.38666 0.00559 0.00269 0.0
C3409 C 0.4211 0.97148 0.02034 0.0
C3410 C 0.4261 0.98472 0.00864 0.0
C3411 C 0.41442 0.99484 0.00241 0.0
C3412 C 0.44459 0.99202 0.00655 0.0
C3413 C 0.43376 0.96088 0.0277 0.0
C3414 C 0.45552 0.00497 0.02144 0.0
C3415 C 0.47198 0.01575 0.019 0.0
C3416 C 0.4778 0.01345 0.00168 0.0
C3417 C 0.46704 0.99995 0.98684 0.0
C3418 C 0.4503 0.98933 0.98926 0.0
H3419 H 0.42663 0.94807 0.03298 0.0
H3420 H 0.44147 0.95636 0.01683 0.0
H3421 H 0.44342 0.97058 0.03927 0.0
H3422 H 0.45094 0.00739 0.03474 0.0
H3423 H 0.48005 0.02593 0.03074 0.0
H3424 H 0.89219 0.54761 0.73453 0.0
H3425 H 0.87272 0.5668 0.72412 0.0
H3426 H 0.87673 0.5956 0.78026 0.0
H3427 H 0.89577 0.57606 0.79082 0.0
H3428 H 0.83805 0.57538 0.74413 0.0
H3429 H 0.89778 0.63414 0.74034 0.0
H3430 H 0.89825 0.60935 0.73782 0.0
H3431 H 0.89802 0.62255 0.7602 0.0
C3432 C 0.88879 0.55799 0.7446 0.0
C3433 C 0.8955 0.56064 0.76339 0.0
C3434 C 0.87763 0.56876 0.73868 0.0
C3435 C 0.87343 0.58249 0.75147 0.0
C3436 C 0.87982 0.58489 0.7703 0.0
H3437 H 0.8284 0.67378 0.76475 0.0
H3438 H 0.84415 0.64896 0.76471 0.0
C3439 C 0.89067 0.57385 0.77627 0.0
C3440 C 0.86356 0.59546 0.74509 0.0
H3441 H 0.86978 0.64128 0.73768 0.0
C3442 C 0.84488 0.58967 0.74235 0.0
C3443 C 0.8727 0.61396 0.74276 0.0
C3444 C 0.89281 0.62046 0.74531 0.0
C3445 C 0.83502 0.60247 0.73818 0.0
C3446 C 0.8442 0.62129 0.73673 0.0
C3447 C 0.86287 0.62674 0.73869 0.0
C3448 C 0.83488 0.63632 0.73599 0.0
C3449 C 0.81494 0.59626 0.73638 0.0
C3450 C 0.82464 0.63741 0.71972 0.0
C3451 C 0.81564 0.65171 0.71965 0.0
C3452 C 0.81695 0.66506 0.73584 0.0
C3453 C 0.82744 0.66394 0.75198 0.0
C3454 C 0.83633 0.64972 0.75204 0.0
H3455 H 0.80986 0.58116 0.7382 0.0
H3456 H 0.81026 0.60568 0.74686 0.0
H3457 H 0.8091 0.59774 0.72256 0.0
H3458 H 0.82357 0.62719 0.70719 0.0
H3459 H 0.8077 0.65234 0.70703 0.0
H3460 H 0.85088 0.67595 0.98432 0.0
H3461 H 0.8734 0.66022 0.99434 0.0
H3462 H 0.83658 0.62769 0.02494 0.0
H3463 H 0.81387 0.64345 0.01507 0.0
H3464 H 0.88711 0.65848 0.03378 0.0
H3465 H 0.85436 0.58778 0.98882 0.0
H3466 H 0.84968 0.60967 0.98405 0.0
H3467 H 0.84085 0.59907 0.00267 0.0
C3468 C 0.84748 0.66543 0.99315 0.0
C3469 C 0.83048 0.66096 -0.00118 0.0
C3470 C 0.86044 0.65652 -0.00105 0.0
C3471 C 0.85669 0.64281 0.01039 0.0
C3472 C 0.83974 0.63821 0.01606 0.0
H3473 H 0.92063 0.56504 0.03559 0.0
H3474 H 0.89806 0.58285 0.03706 0.0
C3475 C 0.82677 0.64721 0.01036 0.0
C3476 C 0.87045 0.63306 0.01591 0.0
H3477 H 0.88168 0.59081 0.00673 0.0
C3478 C 0.8859 0.64364 0.028 0.0
C3479 C 0.86878 0.61369 0.00847 0.0
C3480 C 0.8526 0.6018 0.9952 0.0
C3481 C 0.89984 0.63538 0.03262 0.0
C3482 C 0.89848 0.61619 0.02457 0.0
C3483 C 0.88277 0.6055 0.01293 0.0
C3484 C 0.91346 0.60711 0.02694 0.0
C3485 C 0.91582 0.64723 0.04618 0.0
C3486 C 0.92993 0.61502 0.02129 0.0
C3487 C 0.94297 0.60491 0.02056 0.0
C3488 C 0.93979 0.58655 0.02529 0.0
C3489 C 0.92367 0.57915 0.03194 0.0
C3490 C 0.91065 0.58929 0.03268 0.0
H3491 H 0.91239 0.6588 0.05544 0.0
H3492 H 0.9213 0.63823 0.05478 0.0
H3493 H 0.92639 0.65409 0.03849 0.0
H3494 H 0.93239 0.6286 0.01653 0.0
H3495 H 0.95532 0.61123 0.01568 0.0
H3496 H 0.20492 0.06766 0.78828 0.0
H3497 H 0.22314 0.10037 0.78764 0.0
H3498 H 0.18641 0.10398 0.74178 0.0
H3499 H 0.16815 0.072 0.74281 0.0
H3500 H 0.24163 0.11939 0.76431 0.0
H3501 H 0.18588 0.15216 0.77333 0.0
H3502 H 0.18409 0.12761 0.77555 0.0
H3503 H 0.18104 0.13399 0.75306 0.0
C3504 C 0.2009 0.0753 0.77787 0.0
C3505 C 0.18493 0.06687 0.76557 0.0
C3506 C 0.21129 0.09423 0.77758 0.0
C3507 C 0.20608 0.10545 0.76506 0.0
C3508 C 0.19066 0.09646 0.75217 0.0
H3509 H 0.2487 0.22515 0.74396 0.0
H3510 H 0.23035 0.1923 0.74387 0.0
C3511 C 0.18027 0.07781 0.75259 0.0
C3512 C 0.21655 0.12628 0.76529 0.0
H3513 H 0.21213 0.17209 0.76565 0.0
C3514 C 0.23509 0.13085 0.76475 0.0
C3515 C 0.20838 0.14172 0.76564 0.0
C3516 C 0.1888 0.13869 0.7671 0.0
C3517 C 0.24537 0.14974 0.76419 0.0
C3518 C 0.23727 0.16525 0.76478 0.0
C3519 C 0.21869 0.16065 0.76521 0.0
C3520 C 0.24787 0.18616 0.76539 0.0
C3521 C 0.26484 0.15256 0.76225 0.0
C3522 C 0.26367 0.19462 0.77792 0.0
C3523 C 0.27422 0.2133 0.7778 0.0
C3524 C 0.26928 0.22487 0.76565 0.0
C3525 C 0.25296 0.217 0.75377 0.0
C3526 C 0.24246 0.19798 0.75364 0.0
H3527 H 0.26743 0.13912 0.75546 0.0
H3528 H 0.26953 0.16391 0.75407 0.0
H3529 H 0.27285 0.15671 0.77618 0.0
H3530 H 0.2681 0.18668 0.7878 0.0
H3531 H 0.2866 0.21866 0.78722 0.0
H3532 H 0.37844 0.99243 0.24595 0.0
H3533 H 0.35501 0.96554 0.25175 0.0
H3534 H 0.39307 0.93209 0.25567 0.0
H3535 H 0.41633 0.95842 0.24957 0.0
H3536 H 0.34762 0.92193 0.23069 0.0
H3537 H 0.36917 0.93891 0.30683 0.0
H3538 H 0.3736 0.95691 0.29236 0.0
H3539 H 0.38635 0.93963 0.29224 0.0
C3540 C 0.38157 0.97906 0.24738 0.0
C3541 C 0.39903 0.97731 0.24705 0.0
C3542 C 0.36835 0.96397 0.25092 0.0
C3543 C 0.37268 0.94729 0.25433 0.0
C3544 C 0.38977 0.94509 0.2531 0.0
H3545 H 0.33054 0.84163 0.28589 0.0
H3546 H 0.34857 0.87189 0.27978 0.0
C3547 C 0.40289 0.95998 0.24929 0.0
C3548 C 0.35939 0.93185 0.25912 0.0
H3549 H 0.34851 0.90904 0.29479 0.0
C3550 C 0.34745 0.91916 0.2447 0.0
C3551 C 0.35985 0.92847 0.27741 0.0
C3552 C 0.37286 0.94173 0.29318 0.0
C3553 C 0.33612 0.90246 0.24805 0.0
C3554 C 0.33655 0.89912 0.26637 0.0
C3555 C 0.34824 0.91205 0.28084 0.0
C3556 C 0.32571 0.88172 0.27083 0.0
C3557 C 0.3246 0.88809 0.23195 0.0
C3558 C 0.30711 0.8779 0.26825 0.0
C3559 C 0.2969 0.86073 0.2717 0.0
C3560 C 0.30541 0.8478 0.27814 0.0
C3561 C 0.32397 0.85205 0.28166 0.0
C3562 C 0.33416 0.869 0.27788 0.0
H3563 H 0.32846 0.89132 0.21846 0.0
H3564 H 0.32552 0.87339 0.23304 0.0
H3565 H 0.31047 0.88828 0.23208 0.0
H3566 H 0.30057 0.88786 0.26302 0.0
H3567 H 0.2825 0.85707 0.26838 0.0
H3568 H 0.54005 0.33853 0.58537 0.0
H3569 H 0.53202 0.36418 0.57121 0.0
H3570 H 0.5872 0.38736 0.56547 0.0
H3571 H 0.59503 0.36147 0.57862 0.0
H3572 H 0.54024 0.40148 0.57999 0.0
H3573 H 0.56607 0.38543 0.51437 0.0
H3574 H 0.56418 0.36948 0.53088 0.0
H3575 H 0.58339 0.38981 0.53346 0.0
C3576 C 0.55043 0.34915 0.5811 0.0
C3577 C 0.56817 0.34787 0.58304 0.0
C3578 C 0.54584 0.36377 0.57293 0.0
C3579 C 0.5589 0.37749 0.56668 0.0
C3580 C 0.57669 0.37662 0.56939 0.0
H3581 H 0.57268 0.48482 0.52945 0.0
H3582 H 0.5746 0.45546 0.54035 0.0
C3583 C 0.58121 0.36187 0.57717 0.0
C3584 C 0.5542 0.39308 0.55785 0.0
H3585 H 0.56148 0.41681 0.52159 0.0
C3586 C 0.54465 0.40462 0.56707 0.0
C3587 C 0.55978 0.39723 0.54086 0.0
C3588 C 0.56874 0.38468 0.52925 0.0
C3589 C 0.54136 0.42063 0.56031 0.0
C3590 C 0.54771 0.42525 0.54383 0.0
C3591 C 0.55675 0.4134 0.53431 0.0
C3592 C 0.5461 0.4429 0.53677 0.0
C3593 C 0.5317 0.43291 0.57124 0.0
C3594 C 0.5294 0.44556 0.53076 0.0
C3595 C 0.52822 0.46241 0.52436 0.0
C3596 C 0.54374 0.47695 0.52388 0.0
C3597 C 0.56042 0.47402 0.52962 0.0
C3598 C 0.56157 0.45719 0.53589 0.0
H3599 H 0.53057 0.4295 0.58529 0.0
H3600 H 0.53864 0.44833 0.57254 0.0
H3601 H 0.51802 0.43045 0.56389 0.0
H3602 H 0.51727 0.43461 0.53101 0.0
H3603 H 0.51516 0.46416 0.52009 0.0
H3604 H 0.47162 0.78197 0.36413 0.0
H3605 H 0.44724 0.78973 0.34579 0.0
H3606 H 0.40896 0.74583 0.36459 0.0
H3607 H 0.43312 0.73876 0.38351 0.0
H3608 H 0.42166 0.77127 0.31812 0.0
H3609 H 0.38811 0.78922 0.37802 0.0
H3610 H 0.40999 0.78523 0.38068 0.0
H3611 H 0.39032 0.76527 0.37576 0.0
C3612 C 0.45801 0.77376 0.36408 0.0
C3613 C 0.45435 0.75964 0.37522 0.0
C3614 C 0.44402 0.77832 0.3537 0.0
C3615 C 0.42605 0.7688 0.35413 0.0
C3616 C 0.42254 0.75397 0.36446 0.0
H3617 H 0.3201 0.77003 0.30475 0.0
H3618 H 0.34617 0.76532 0.323 0.0
C3619 C 0.43643 0.74969 0.37508 0.0
C3620 C 0.41098 0.77416 0.34377 0.0
H3621 H 0.37134 0.78526 0.34836 0.0
C3622 C 0.41073 0.77446 0.32478 0.0
C3623 C 0.39662 0.77847 0.35233 0.0
C3624 C 0.39634 0.77974 0.37285 0.0
C3625 C 0.39634 0.77807 0.31405 0.0
C3626 C 0.38176 0.782 0.32255 0.0
C3627 C 0.38225 0.7821 0.34163 0.0
C3628 C 0.36577 0.78566 0.31198 0.0
C3629 C 0.39676 0.77686 0.29355 0.0
C3630 C 0.36774 0.79913 0.30006 0.0
C3631 C 0.35284 0.80145 0.28931 0.0
C3632 C 0.33546 0.79102 0.29076 0.0
C3633 C 0.3333 0.77846 0.3035 0.0
C3634 C 0.34827 0.7757 0.31386 0.0
H3635 H 0.40552 0.76793 0.28852 0.0
H3636 H 0.38322 0.77073 0.28559 0.0
H3637 H 0.40225 0.79144 0.29063 0.0
H3638 H 0.38085 0.80773 0.29882 0.0
H3639 H 0.35493 0.81132 0.27968 0.0
H3640 H 0.07364 0.75036 0.0466 0.0
H3641 H 0.06731 0.71597 0.03544 0.0
H3642 H 0.03752 0.70471 0.0805 0.0
H3643 H 0.04353 0.7391 0.09167 0.0
H3644 H 0.0798 0.69354 0.05925 0.0
H3645 H 0.00674 0.66589 0.03564 0.0
H3646 H 0.01846 0.69085 0.03759 0.0
H3647 H 0.01339 0.68113 0.05794 0.0
C3648 C 0.06534 0.7406 0.05388 0.0
C3649 C 0.05925 0.74743 0.07013 0.0
C3650 C 0.06174 0.72099 0.04748 0.0
C3651 C 0.05196 0.70792 0.05717 0.0
C3652 C 0.04488 0.71463 0.07271 0.0
H3653 H 0.0316 0.58489 0.04522 0.0
H3654 H 0.03451 0.61877 0.05676 0.0
C3655 C 0.04839 0.73429 0.07909 0.0
C3656 C 0.05128 0.68751 0.05239 0.0
H3657 H 0.02331 0.64305 0.03647 0.0
C3658 C 0.06747 0.68247 0.05418 0.0
C3659 C 0.03512 0.6732 0.0462 0.0
C3660 C 0.01741 0.67796 0.04408 0.0
C3661 C 0.06797 0.6634 0.04973 0.0
C3662 C 0.05188 0.64917 0.04294 0.0
C3663 C 0.03563 0.65412 0.04154 0.0
C3664 C 0.05157 0.62901 0.037 0.0
C3665 C 0.08563 0.65863 0.05264 0.0
C3666 C 0.06044 0.6237 0.02228 0.0
C3667 C 0.05903 0.6044 0.0159 0.0
C3668 C 0.0484 0.59038 0.02395 0.0
C3669 C 0.03977 0.59567 0.03881 0.0
C3670 C 0.04141 0.6149 0.04538 0.0
H3671 H 0.09571 0.67021 0.06238 0.0
H3672 H 0.08409 0.64505 0.05807 0.0
H3673 H 0.09081 0.65682 0.03924 0.0
H3674 H 0.06801 0.63443 0.01541 0.0
H3675 H 0.06561 0.6004 0.00429 0.0
H3676 H 0.06696 0.31388 0.88908 0.0
H3677 H 0.0951 0.31685 0.87656 0.0
H3678 H 0.08163 0.2556 0.85914 0.0
H3679 H 0.05326 0.25246 0.87152 0.0
H3680 H 0.12392 0.30172 0.88462 0.0
H3681 H 0.09276 0.27557 0.81167 0.0
H3682 H 0.0805 0.28267 0.82968 0.0
H3683 H 0.08474 0.25945 0.8269 0.0
C3684 C 0.06986 0.30098 0.88249 0.0
C3685 C 0.05763 0.2829 0.88114 0.0
C3686 C 0.08607 0.30274 0.87542 0.0
C3687 C 0.09047 0.28651 0.86668 0.0
C3688 C 0.07843 0.2684 0.86551 0.0
H3689 H 0.17663 0.26108 0.81269 0.0
H3690 H 0.1511 0.26139 0.82911 0.0
C3691 C 0.06218 0.26661 0.87262 0.0
C3692 C 0.10749 0.28856 0.85855 0.0
H3693 H 0.12386 0.2791 0.81799 0.0
C3694 C 0.12391 0.29686 0.87003 0.0
C3695 C 0.10755 0.2825 0.83947 0.0
C3696 C 0.09046 0.27473 0.82615 0.0
C3697 C 0.14031 0.29857 0.86305 0.0
C3698 C 0.14029 0.29194 0.84406 0.0
C3699 C 0.12389 0.28404 0.83257 0.0
C3700 C 0.157 0.29225 0.83579 0.0
C3701 C 0.15753 0.30693 0.87606 0.0
C3702 C 0.16903 0.30955 0.83417 0.0
C3703 C 0.18374 0.30943 0.82467 0.0
C3704 C 0.18679 0.292 0.81671 0.0
C3705 C 0.17493 0.27477 0.81884 0.0
C3706 C 0.16022 0.27491 0.82816 0.0
H3707 H 0.15534 0.30835 0.89076 0.0
H3708 H 0.16687 0.29788 0.87374 0.0
H3709 H 0.164 0.32137 0.87336 0.0
H3710 H 0.16674 0.32313 0.83976 0.0
H3711 H 0.19264 0.32296 0.82341 0.0
H3712 H 0.59267 0.76301 0.8983 0.0
H3713 H 0.58071 0.73093 0.90522 0.0
H3714 H 0.55058 0.75379 0.94436 0.0
H3715 H 0.56256 0.78574 0.93791 0.0
H3716 H 0.5826 0.72007 0.94156 0.0
H3717 H 0.51304 0.70861 0.90813 0.0
H3718 H 0.53178 0.72588 0.90255 0.0
H3719 H 0.52242 0.73129 0.92328 0.0
C3720 C 0.5838 0.76125 0.90865 0.0
C3721 C 0.57854 0.77688 0.91751 0.0
C3722 C 0.5768 0.74293 0.91237 0.0
C3723 C 0.56436 0.74007 0.9248 0.0
C3724 C 0.55979 0.75574 0.93432 0.0
H3725 H 0.52403 0.65902 0.98975 0.0
H3726 H 0.52812 0.68506 0.9721 0.0
C3727 C 0.56688 0.774 0.9308 0.0
C3728 C 0.55693 0.7209 0.92887 0.0
H3729 H 0.5178 0.68721 0.92845 0.0
C3730 C 0.5685 0.71268 0.93842 0.0
C3731 C 0.53849 0.71153 0.92477 0.0
C3732 C 0.52569 0.71967 0.91398 0.0
C3733 C 0.56202 0.69557 0.94472 0.0
C3734 C 0.54354 0.68642 0.94111 0.0
C3735 C 0.53196 0.69434 0.93109 0.0
C3736 C 0.53623 0.66929 0.9489 0.0
C3737 C 0.57484 0.68774 0.95587 0.0
C3738 C 0.53855 0.65161 0.94111 0.0
C3739 C 0.5361 0.63664 0.95107 0.0
C3740 C 0.53149 0.63929 0.96902 0.0
C3741 C 0.52753 0.65648 0.97597 0.0
C3742 C 0.52989 0.67139 0.96593 0.0
H3743 H 0.58858 0.69744 0.95863 0.0
H3744 H 0.5702 0.68548 0.96928 0.0
H3745 H 0.5753 0.67365 0.94829 0.0
H3746 H 0.54344 0.64983 0.92792 0.0
H3747 H 0.53885 0.62339 0.94519 0.0
H3748 H 0.04679 0.72982 0.66016 0.0
H3749 H 0.07901 0.74144 0.66966 0.0
H3750 H 0.0718 0.79074 0.7048 0.0
H3751 H 0.03944 0.77937 0.69503 0.0
H3752 H 0.10745 0.78306 0.67533 0.0
H3753 H 0.0874 0.74817 0.73504 0.0
H3754 H 0.07348 0.74218 0.71294 0.0
H3755 H 0.07545 0.76453 0.72772 0.0
C3756 C 0.05214 0.74317 0.66987 0.0
C3757 C 0.04087 0.75343 0.67752 0.0
C3758 C 0.07044 0.74997 0.67489 0.0
C3759 C 0.07747 0.76687 0.6878 0.0
C3760 C 0.06637 0.77777 0.69462 0.0
H3761 H 0.17937 0.78577 0.7569 0.0
H3762 H 0.15108 0.79139 0.7444 0.0
C3763 C 0.04803 0.77112 0.68935 0.0
C3764 C 0.09551 0.77043 0.69714 0.0
H3765 H 0.11796 0.75947 0.73396 0.0
C3766 C 0.1099 0.77835 0.68835 0.0
C3767 C 0.09828 0.76373 0.71383 0.0
C3768 C 0.0829 0.75407 0.72298 0.0
C3769 C 0.12731 0.77947 0.69589 0.0
C3770 C 0.13001 0.77252 0.71244 0.0
C3771 C 0.11564 0.76512 0.72145 0.0
C3772 C 0.14733 0.7704 0.71942 0.0
C3773 C 0.14263 0.78741 0.68589 0.0
C3774 C 0.15396 0.7565 0.70954 0.0
C3775 C 0.16982 0.75331 0.71658 0.0
C3776 C 0.179 0.76384 0.73363 0.0
C3777 C 0.17227 0.77757 0.74372 0.0
C3778 C 0.15637 0.78085 0.73659 0.0
H3779 H 0.13882 0.79589 0.67566 0.0
H3780 H 0.15422 0.79657 0.69585 0.0
H3781 H 0.14689 0.77538 0.6784 0.0
H3782 H 0.14672 0.74797 0.69653 0.0
H3783 H 0.17488 0.74253 0.70882 0.0
H3784 H 0.10658 0.38616 0.40591 0.0
H3785 H 0.10303 0.41654 0.42271 0.0
H3786 H 0.05081 0.38668 0.43275 0.0
H3787 H 0.05424 0.35695 0.41656 0.0
H3788 H 0.07325 0.4322 0.41212 0.0
H3789 H 0.075 0.41734 0.48348 0.0
H3790 H 0.08426 0.40451 0.46585 0.0
H3791 H 0.06066 0.39773 0.46702 0.0
C3792 C 0.09454 0.38624 0.412 0.0
C3793 C 0.08057 0.36949 0.40981 0.0
C3794 C 0.09253 0.40342 0.42148 0.0
C3795 C 0.07677 0.40355 0.42904 0.0
C3796 C 0.06317 0.38669 0.42725 0.0
H3797 H 0.01564 0.47548 0.475 0.0
H3798 H 0.02457 0.45163 0.45346 0.0
C3799 C 0.06508 0.3698 0.41781 0.0
C3800 C 0.07333 0.42126 0.43764 0.0
H3801 H 0.05876 0.43991 0.4762 0.0
C3802 C 0.07049 0.43424 0.42626 0.0
C3803 C 0.06942 0.42343 0.45594 0.0
C3804 C 0.07265 0.41007 0.46881 0.0
C3805 C 0.0632 0.44916 0.43268 0.0
C3806 C 0.05874 0.4508 0.45069 0.0
C3807 C 0.06196 0.43814 0.46219 0.0
C3808 C 0.05262 0.46682 0.45894 0.0
C3809 C 0.05996 0.46289 0.42029 0.0
C3810 C 0.06552 0.48299 0.46865 0.0
C3811 C 0.06061 0.49596 0.48127 0.0
C3812 C 0.04271 0.49303 0.48391 0.0
C3813 C 0.02952 0.47774 0.47304 0.0
C3814 C 0.03454 0.46437 0.46072 0.0
H3815 H 0.06294 0.45878 0.40611 0.0
H3816 H 0.04585 0.46348 0.41951 0.0
H3817 H 0.06848 0.47751 0.42628 0.0
H3818 H 0.07954 0.48476 0.46751 0.0
H3819 H 0.07088 0.50786 0.48949 0.0
H3820 H 0.44914 0.27207 0.16295 0.0
H3821 H 0.42403 0.27978 0.17678 0.0
H3822 H 0.41724 0.22982 0.20257 0.0
H3823 H 0.44219 0.22197 0.18905 0.0
H3824 H 0.38645 0.25332 0.17601 0.0
H3825 H 0.42912 0.2797 0.24448 0.0
H3826 H 0.43831 0.27734 0.22305 0.0
H3827 H 0.42931 0.25647 0.23265 0.0
C3828 C 0.44222 0.26269 0.17147 0.0
C3829 C 0.44774 0.24665 0.17524 0.0
C3830 C 0.42793 0.26705 0.17922 0.0
C3831 C 0.41924 0.2554 0.1907 0.0
C3832 C 0.42412 0.23894 0.19379 0.0
H3833 H 0.33679 0.25215 0.25674 0.0
H3834 H 0.36249 0.24797 0.24193 0.0
C3835 C 0.43836 0.23458 0.18613 0.0
C3836 C 0.40578 0.26106 0.20058 0.0
H3837 H 0.39822 0.27712 0.24377 0.0
C3838 C 0.38895 0.25874 0.19077 0.0
C3839 C 0.40944 0.26791 0.21979 0.0
C3840 C 0.42756 0.27065 0.23065 0.0
C3841 C 0.37526 0.2628 0.19998 0.0
C3842 C 0.37892 0.26956 0.2192 0.0
C3843 C 0.39579 0.27205 0.22896 0.0
C3844 C 0.36506 0.27334 0.22958 0.0
C3845 C 0.35693 0.25937 0.18931 0.0
C3846 C 0.35884 0.28939 0.22789 0.0
C3847 C 0.34434 0.29189 0.23636 0.0
C3848 C 0.336 0.2782 0.24638 0.0
C3849 C 0.34296 0.26272 0.24889 0.0
C3850 C 0.35754 0.26033 0.24052 0.0
H3851 H 0.35577 0.25143 0.17503 0.0
H3852 H 0.34662 0.25115 0.19651 0.0
H3853 H 0.35405 0.27334 0.18849 0.0
H3854 H 0.36481 0.29954 0.21952 0.0
H3855 H 0.3391 0.30389 0.23421 0.0
H3856 H 0.59607 0.51431 0.30687 0.0
H3857 H 0.58385 0.51547 0.33598 0.0
H3858 H 0.63059 0.50383 0.36227 0.0
H3859 H 0.64307 0.50272 0.33277 0.0
H3860 H 0.57307 0.49196 0.35925 0.0
H3861 H 0.62949 0.54944 0.39957 0.0
H3862 H 0.62728 0.54301 0.37477 0.0
H3863 H 0.63579 0.52871 0.38931 0.0
C3864 C 0.60389 0.51178 0.31871 0.0
C3865 C 0.62081 0.50834 0.31685 0.0
C3866 C 0.59673 0.51252 0.33567 0.0
C3867 C 0.60614 0.51024 0.35212 0.0
C3868 C 0.62288 0.50621 0.35031 0.0
H3869 H 0.58212 0.52196 0.47056 0.0
H3870 H 0.59613 0.51846 0.44209 0.0
C3871 C 0.63003 0.50524 0.33311 0.0
C3872 C 0.59824 0.51204 0.37067 0.0
H3873 H 0.60672 0.5358 0.41609 0.0
C3874 C 0.58059 0.50159 0.37161 0.0
C3875 C 0.6075 0.52455 0.38733 0.0
C3876 C 0.62599 0.53723 0.38778 0.0
C3877 C 0.5724 0.5028 0.38811 0.0
C3878 C 0.58159 0.5155 0.40481 0.0
C3879 C 0.59927 0.52595 0.40384 0.0
C3880 C 0.57314 0.51831 0.42301 0.0
C3881 C 0.554 0.48969 0.38736 0.0
C3882 C 0.55555 0.52019 0.42286 0.0
C3883 C 0.54744 0.52184 0.43919 0.0
C3884 C 0.55651 0.52246 0.45695 0.0
C3885 C 0.57445 0.52161 0.45745 0.0
C3886 C 0.58252 0.51953 0.44088 0.0
H3887 H 0.55166 0.47658 0.37672 0.0
H3888 H 0.55189 0.48522 0.40085 0.0
H3889 H 0.54387 0.4972 0.38346 0.0
H3890 H 0.54783 0.52044 0.40999 0.0
H3891 H 0.53375 0.5227 0.43782 0.0
H3892 H 0.27557 0.87611 0.05037 0.0
H3893 H 0.28117 0.88266 0.08406 0.0
H3894 H 0.33658 0.90918 0.08243 0.0
H3895 H 0.33145 0.90131 0.04921 0.0
H3896 H 0.3115 0.86043 0.08051 0.0
H3897 H 0.3254 0.92141 0.13959 0.0
H3898 H 0.30827 0.91869 0.12027 0.0
H3899 H 0.33131 0.92555 0.11727 0.0
C3900 C 0.28868 0.88442 0.05723 0.0
C3901 C 0.30317 0.88772 0.04735 0.0
C3902 C 0.29182 0.88849 0.07649 0.0
C3903 C 0.30942 0.89581 0.08556 0.0
C3904 C 0.32295 0.90339 0.07561 0.0
H3905 H 0.35552 0.85739 0.18095 0.0
H3906 H 0.35458 0.87419 0.15442 0.0
C3907 C 0.32 0.89873 0.05648 0.0
C3908 C 0.31488 0.88631 0.10032 0.0
H3909 H 0.33086 0.89245 0.14583 0.0
C3910 C 0.31563 0.86738 0.09485 0.0
C3911 C 0.32117 0.89584 0.11859 0.0
C3912 C 0.32156 0.91652 0.12445 0.0
C3913 C 0.32195 0.85739 0.10741 0.0
C3914 C 0.32691 0.86635 0.12612 0.0
C3915 C 0.32695 0.88561 0.13146 0.0
C3916 C 0.32934 0.85514 0.14059 0.0
C3917 C 0.32313 0.83734 0.10039 0.0
C3918 C 0.31564 0.83889 0.14129 0.0
C3919 C 0.31648 0.82917 0.15584 0.0
C3920 C 0.33073 0.83587 0.17025 0.0
C3921 C 0.34463 0.85196 0.16966 0.0
C3922 C 0.34401 0.86152 0.1547 0.0
H3923 H 0.32653 0.83605 0.0861 0.0
H3924 H 0.33325 0.83319 0.10933 0.0
H3925 H 0.30993 0.82705 0.09988 0.0
H3926 H 0.30384 0.8342 0.13101 0.0
H3927 H 0.30543 0.81703 0.15643 0.0
H3928 H 0.95907 0.55644 0.82957 0.0
H3929 H 0.96806 0.5567 0.8623 0.0
H3930 H 0.94499 0.49551 0.85389 0.0
H3931 H 0.93665 0.4952 0.82102 0.0
H3932 H 0.95325 0.54477 0.89232 0.0
H3933 H 0.99822 0.50166 0.8663 0.0
H3934 H 0.98532 0.51204 0.85125 0.0
H3935 H 0.97488 0.49048 0.85918 0.0
C3936 C 0.95535 0.54327 0.83499 0.0
C3937 C 0.94728 0.52584 0.82322 0.0
C3938 C 0.96047 0.54337 0.85353 0.0
C3939 C 0.95741 0.52606 0.8602 0.0
C3940 C 0.94763 0.50891 0.84877 0.0
H3941 H 0.0019 0.50644 0.9641 0.0
H3942 H 0.98103 0.50639 0.93727 0.0
C3943 C 0.94278 0.50877 0.83018 0.0
C3944 C 0.9667 0.52577 0.87821 0.0
H3945 H 1.00031 0.51047 0.89846 0.0
C3946 C 0.96341 0.53714 0.89376 0.0
C3947 C 0.98018 0.51602 0.87972 0.0
C3948 C 0.98501 0.50451 0.86322 0.0
C3949 C 0.97346 0.53917 0.91096 0.0
C3950 C 0.9868 0.52946 0.91236 0.0
C3951 C 0.9899 0.5178 0.89699 0.0
C3952 C 0.99805 0.53134 0.92967 0.0
C3953 C 0.97015 0.5519 0.92748 0.0
C3954 C 0.01429 0.54551 0.93393 0.0
C3955 C 0.0263 0.5455 0.94908 0.0
C3956 C 0.022 0.53129 0.95987 0.0
C3957 C 0.00544 0.51751 0.95586 0.0
C3958 C 0.99351 0.5175 0.94072 0.0
H3959 H 0.95875 0.55794 0.92417 0.0
H3960 H 0.96743 0.54366 0.93881 0.0
H3961 H 0.9823 0.56388 0.93261 0.0
H3962 H 0.01785 0.55614 0.92522 0.0
H3963 H 0.03898 0.55631 0.95215 0.0
H3964 H 0.29603 0.19821 0.55659 0.0
H3965 H 0.29855 0.20831 0.59005 0.0
H3966 H 0.29367 0.264 0.58198 0.0
H3967 H 0.29042 0.25375 0.54851 0.0
H3968 H 0.31908 0.23752 0.61796 0.0
H3969 H 0.24973 0.24358 0.60552 0.0
H3970 H 0.26023 0.23298 0.58765 0.0
H3971 H 0.26488 0.25862 0.59374 0.0
C3972 C 0.29592 0.21276 0.56196 0.0
C3973 C 0.29268 0.22508 0.54992 0.0
C3974 C 0.29733 0.2185 0.5811 0.0
C3975 C 0.29572 0.2367 0.58845 0.0
C3976 C 0.29438 0.24968 0.57654 0.0
H3977 H 0.28196 0.29207 0.69625 0.0
H3978 H 0.28529 0.2837 0.66356 0.0
C3979 C 0.29263 0.24385 0.55743 0.0
C3980 C 0.2936 0.24144 0.60819 0.0
H3981 H 0.26455 0.254 0.63614 0.0
C3982 C 0.30717 0.2411 0.62197 0.0
C3983 C 0.27791 0.24584 0.61339 0.0
C3984 C 0.26227 0.2451 0.59932 0.0
C3985 C 0.30566 0.2456 0.64081 0.0
C3986 C 0.2901 0.25035 0.64593 0.0
C3987 C 0.27652 0.25053 0.63216 0.0
C3988 C 0.2875 0.25513 0.66549 0.0
C3989 C 0.32086 0.24557 0.65507 0.0
C3990 C 0.28705 0.24164 0.67719 0.0
C3991 C 0.28521 0.24644 0.69575 0.0
C3992 C 0.28332 0.2646 0.70277 0.0
C3993 C 0.28299 0.27783 0.69096 0.0
C3994 C 0.28508 0.27312 0.67241 0.0
H3995 H 0.3334 0.24616 0.64901 0.0
H3996 H 0.3233 0.25788 0.66662 0.0
H3997 H 0.3174 0.23219 0.66084 0.0
H3998 H 0.28839 0.2275 0.67203 0.0
H3999 H 0.28565 0.23612 0.70476 0.0
H4000 H 0.59001 0.50069 0.21623 0.0
H4001 H 0.57789 0.50283 0.18515 0.0
H4002 H 0.6297 0.50758 0.1681 0.0
H4003 H 0.64177 0.5048 0.1993 0.0
H4004 H 0.58325 0.53035 0.16725 0.0
H4005 H 0.60196 0.47289 0.12303 0.0
H4006 H 0.60394 0.47488 0.14779 0.0
H4007 H 0.621 0.4894 0.13734 0.0
C4008 C 0.59881 0.50158 0.20577 0.0
C4009 C 0.61694 0.50215 0.21056 0.0
C4010 C 0.59182 0.50304 0.18783 0.0
C4011 C 0.60259 0.50531 0.17366 0.0
C4012 C 0.62067 0.50536 0.17823 0.0
H4013 H 0.58552 0.53015 0.06006 0.0
H4014 H 0.59748 0.52492 0.09032 0.0
C4015 C 0.62767 0.50368 0.19627 0.0
C4016 C 0.59504 0.50883 0.15486 0.0
H4017 H 0.5918 0.49533 0.10767 0.0
C4018 C 0.5851 0.5225 0.1543 0.0
C4019 C 0.59715 0.49884 0.13751 0.0
C4020 C 0.60642 0.48305 0.13638 0.0
C4021 C 0.57779 0.52667 0.13747 0.0
C4022 C 0.58004 0.5168 0.12015 0.0
C4023 C 0.58995 0.50312 0.12066 0.0
C4024 C 0.5725 0.52052 0.10149 0.0
C4025 C 0.56815 0.54218 0.13856 0.0
C4026 C 0.55429 0.51987 0.09704 0.0
C4027 C 0.54747 0.52321 0.07968 0.0
C4028 C 0.5585 0.52697 0.06595 0.0
C4029 C 0.57659 0.52739 0.07024 0.0
C4030 C 0.58346 0.5243 0.08765 0.0
H4031 H 0.57205 0.55207 0.15209 0.0
H4032 H 0.57086 0.55069 0.12743 0.0
H4033 H 0.55358 0.5355 0.13703 0.0
H4034 H 0.54516 0.51641 0.10687 0.0
H4035 H 0.53342 0.5224 0.07684 0.0
H4036 H 0.31841 0.90931 0.94803 0.0
H4037 H 0.31831 0.89566 0.91545 0.0
H4038 H 0.28471 0.84179 0.92337 0.0
H4039 H 0.28462 0.85542 0.95548 0.0
H4040 H 0.33127 0.86331 0.90539 0.0
H4041 H 0.2607 0.8498 0.87495 0.0
H4042 H 0.27046 0.86681 0.89594 0.0
H4043 H 0.26278 0.84164 0.89654 0.0
C4044 C 0.31044 0.89484 0.94241 0.0
C4045 C 0.30108 0.8834 0.95373 0.0
C4046 C 0.31053 0.88705 0.92403 0.0
C4047 C 0.30122 0.8679 0.91709 0.0
C4048 C 0.29151 0.85677 0.9284 0.0
H4049 H 0.29116 0.77485 0.82993 0.0
H4050 H 0.29636 0.79563 0.86032 0.0
C4051 C 0.29141 0.86451 0.94663 0.0
C4052 C 0.30283 0.85855 0.89867 0.0
H4053 H 0.27744 0.8299 0.85999 0.0
C4054 C 0.3196 0.85631 0.89523 0.0
C4055 C 0.28752 0.84945 0.88566 0.0
C4056 C 0.26938 0.8522 0.88838 0.0
C4057 C 0.32126 0.8443 0.87931 0.0
C4058 C 0.30578 0.83443 0.86689 0.0
C4059 C 0.28917 0.83727 0.86995 0.0
C4060 C 0.30644 0.82177 0.84994 0.0
C4061 C 0.3393 0.8417 0.87599 0.0
C4062 C 0.31071 0.82982 0.83447 0.0
C4063 C 0.30749 0.81816 0.81725 0.0
C4064 C 0.30015 0.79831 0.81539 0.0
C4065 C 0.29697 0.79011 0.83111 0.0
C4066 C 0.29995 0.80188 0.84838 0.0
H4067 H 0.34986 0.84925 0.88777 0.0
H4068 H 0.33874 0.82622 0.87356 0.0
H4069 H 0.34302 0.84732 0.86337 0.0
H4070 H 0.31542 0.84521 0.83554 0.0
H4071 H 0.30977 0.82485 0.80529 0.0
H4072 H 0.94348 0.54515 0.72927 0.0
H4073 H 0.93119 0.53292 0.69676 0.0
H4074 H 0.94383 0.47956 0.70082 0.0
H4075 H 0.95755 0.49216 0.73246 0.0
H4076 H 0.96883 0.52322 0.69078 0.0
H4077 H 0.90721 0.47431 0.6481 0.0
H4078 H 0.90637 0.49129 0.66824 0.0
H4079 H 0.91364 0.4704 0.67104 0.0
C4080 C 0.94296 0.53053 0.72337 0.0
C4081 C 0.95214 0.51991 0.73296 0.0
C4082 C 0.93548 0.52337 0.70497 0.0
C4083 C 0.93713 0.50557 0.6964 0.0
C4084 C 0.94262 0.4934 0.70723 0.0
H4085 H 0.98488 0.4737 0.59901 0.0
H4086 H 0.96866 0.47126 0.62597 0.0
C4087 C 0.95088 0.50083 0.72523 0.0
C4088 C 0.94311 0.50459 0.67826 0.0
H4089 H 0.93324 0.48165 0.63349 0.0
C4090 C 0.96098 0.5143 0.67817 0.0
C4091 C 0.93297 0.49238 0.66225 0.0
C4092 C 0.91393 0.48146 0.66223 0.0
C4093 C 0.9691 0.51203 0.66243 0.0
C4094 C 0.95882 0.50036 0.64617 0.0
C4095 C 0.94096 0.49052 0.64615 0.0
C4096 C 0.96607 0.50025 0.62873 0.0
C4097 C 0.98863 0.52213 0.66337 0.0
C4098 C 0.96944 0.51716 0.62152 0.0
C4099 C 0.97844 0.51852 0.6064 0.0
C4100 C 0.98416 0.50295 0.59823 0.0
C4101 C 0.98034 0.48574 0.60508 0.0
C4102 C 0.97114 0.48434 0.62031 0.0
H4103 H 0.99564 0.52566 0.67778 0.0
H4104 H 0.99547 0.51322 0.65476 0.0
H4105 H 0.98987 0.53575 0.6581 0.0
H4106 H 0.96576 0.52959 0.6281 0.0
H4107 H 0.98173 0.53211 0.60165 0.0
H4108 H 0.31382 0.22353 0.45342 0.0
H4109 H 0.31798 0.23544 0.42419 0.0
H4110 H 0.26117 0.21566 0.40667 0.0
H4111 H 0.25701 0.20477 0.43593 0.0
H4112 H 0.31126 0.21993 0.38848 0.0
H4113 H 0.26906 0.26965 0.39988 0.0
H4114 H 0.27586 0.25758 0.41774 0.0
H4115 H 0.25676 0.24569 0.40056 0.0
C4116 C 0.30232 0.22156 0.44317 0.0
C4117 C 0.2851 0.21322 0.44687 0.0
C4118 C 0.30465 0.22847 0.42654 0.0
C4119 C 0.28982 0.22701 0.41338 0.0
C4120 C 0.27278 0.21767 0.41679 0.0
H4121 H 0.2672 0.2499 0.30301 0.0
H4122 H 0.26693 0.23827 0.33252 0.0
C4123 C 0.27043 0.21118 0.43342 0.0
C4124 C 0.29189 0.23501 0.396 0.0
H4125 H 0.27496 0.26214 0.36877 0.0
C4126 C 0.30347 0.22933 0.38429 0.0
C4127 C 0.28187 0.24748 0.39049 0.0
C4128 C 0.27036 0.25561 0.40294 0.0
C4129 C 0.30469 0.23504 0.36699 0.0
C4130 C 0.29407 0.24677 0.3612 0.0
C4131 C 0.28285 0.25286 0.37306 0.0
C4132 C 0.29452 0.25307 0.34296 0.0
C4133 C 0.31698 0.22808 0.35479 0.0
C4134 C 0.31009 0.26523 0.33901 0.0
C4135 C 0.31027 0.27185 0.3222 0.0
C4136 C 0.29485 0.26652 0.309 0.0
C4137 C 0.27931 0.25414 0.31285 0.0
C4138 C 0.27913 0.24757 0.32972 0.0
H4139 H 0.32122 0.21591 0.35938 0.0
H4140 H 0.31043 0.22354 0.34023 0.0
H4141 H 0.32911 0.23995 0.35526 0.0
H4142 H 0.32202 0.26995 0.34911 0.0
H4143 H 0.32241 0.28148 0.31972 0.0
H4144 H 0.32699 0.63633 0.49469 0.0
H4145 H 0.35351 0.62693 0.48617 0.0
H4146 H 0.33526 0.57367 0.5057 0.0
H4147 H 0.30854 0.58306 0.51407 0.0
H4148 H 0.37843 0.61768 0.51252 0.0
H4149 H 0.348 0.55882 0.45285 0.0
H4150 H 0.3371 0.57693 0.46093 0.0
H4151 H 0.33723 0.55756 0.47319 0.0
C4152 C 0.32863 0.62251 0.49685 0.0
C4153 C 0.31602 0.61021 0.50478 0.0
C4154 C 0.34365 0.61723 0.49206 0.0
C4155 C 0.34606 0.59962 0.49519 0.0
C4156 C 0.3333 0.58718 0.50295 0.0
H4157 H 0.41919 0.53481 0.49315 0.0
H4158 H 0.39444 0.54952 0.49354 0.0
C4159 C 0.3182 0.59248 0.50771 0.0
C4160 C 0.36247 0.59473 0.49129 0.0
H4161 H 0.378 0.56173 0.46541 0.0
C4162 C 0.37851 0.60562 0.50209 0.0
C4163 C 0.36223 0.57913 0.47755 0.0
C4164 C 0.34525 0.56749 0.46533 0.0
C4165 C 0.39439 0.60048 0.50026 0.0
C4166 C 0.39405 0.58434 0.48699 0.0
C4167 C 0.37812 0.57413 0.47553 0.0
C4168 C 0.4093 0.57607 0.48653 0.0
C4169 C 0.41108 0.61163 0.51322 0.0
C4170 C 0.4258 0.58627 0.48255 0.0
C4171 C 0.44008 0.57796 0.48267 0.0
C4172 C 0.43767 0.55933 0.48637 0.0
C4173 C 0.42114 0.54917 0.49014 0.0
C4174 C 0.40707 0.55751 0.49032 0.0
H4175 H 0.40822 0.62151 0.52474 0.0
H4176 H 0.41787 0.60178 0.51915 0.0
H4177 H 0.42043 0.62033 0.50545 0.0
H4178 H 0.4276 0.60052 0.47934 0.0
H4179 H 0.45283 0.58589 0.47969 0.0
H4180 H 0.83936 0.92348 0.50322 0.0
H4181 H 0.86782 0.94372 0.49738 0.0
H4182 H 0.89481 0.93124 0.54587 0.0
H4183 H 0.86676 0.91053 0.5512 0.0
H4184 H 0.89307 0.97513 0.51527 0.0
H4185 H 0.92376 0.91476 0.50825 0.0
H4186 H 0.90024 0.91135 0.50923 0.0
H4187 H 0.91597 0.91798 0.53018 0.0
C4188 C 0.85133 0.92542 0.51282 0.0
C4189 C 0.85079 0.91545 0.52772 0.0
C4190 C 0.86764 0.93686 0.50939 0.0
C4191 C 0.88371 0.9386 0.52084 0.0
C4192 C 0.88285 0.92965 0.5364 0.0
H4193 H 0.99505 0.99991 0.53912 0.0
H4194 H 0.96504 0.97886 0.5385 0.0
C4195 C 0.86671 0.91801 0.53962 0.0
C4196 C 0.90143 0.94946 0.51664 0.0
H4197 H 0.94406 0.94619 0.51341 0.0
C4198 C 0.90415 0.96872 0.51464 0.0
C4199 C 0.91596 0.94113 0.51546 0.0
C4200 C 0.91379 0.92011 0.51568 0.0
C4201 C 0.92109 0.98007 0.51261 0.0
C4202 C 0.93582 0.97198 0.51249 0.0
C4203 C 0.93293 0.95255 0.51377 0.0
C4204 C 0.95444 0.9836 0.51195 0.0
C4205 C 0.92323 1.00086 0.51132 0.0
C4206 C 0.9588 0.99281 0.49697 0.0
C4207 C 0.97602 0.00473 0.49729 0.0
C4208 C 0.98929 0.00747 0.51247 0.0
C4209 C 0.98517 0.99772 0.5271 0.0
C4210 C 0.96797 0.98581 0.52679 0.0
H4211 H 0.91166 0.00588 0.51549 0.0
H4212 H 0.93556 0.01007 0.52015 0.0
H4213 H 0.92433 0.00272 0.49683 0.0
H4214 H 0.94879 0.9911 0.48518 0.0
H4215 H 0.97878 0.01235 0.48597 0.0
H4216 H 0.91698 0.13584 0.28596 0.0
H4217 H 0.90067 0.16015 0.28572 0.0
H4218 H 0.86163 0.12291 0.24209 0.0
H4219 H 0.87814 0.09815 0.24226 0.0
H4220 H 0.89275 0.1819 0.26201 0.0
H4221 H 0.82759 0.13913 0.27457 0.0
H4222 H 0.84754 0.13104 0.27729 0.0
H4223 H 0.83552 0.12864 0.25466 0.0
C4224 C 0.90491 0.13247 0.27619 0.0
C4225 C 0.89927 0.11437 0.26413 0.0
C4226 C 0.89542 0.14677 0.27608 0.0
C4227 C 0.87939 0.14398 0.2641 0.0
C4228 C 0.8736 0.12591 0.25193 0.0
H4229 H 0.80127 0.21464 0.24929 0.0
H4230 H 0.81745 0.19003 0.24906 0.0
C4231 C 0.88327 0.11153 0.25191 0.0
C4232 C 0.86938 0.16009 0.26435 0.0
H4233 H 0.82864 0.16994 0.26817 0.0
C4234 C 0.87869 0.17909 0.26335 0.0
C4235 C 0.85093 0.1573 0.2662 0.0
C4236 C 0.83978 0.13801 0.26843 0.0
C4237 C 0.87039 0.19457 0.26348 0.0
C4238 C 0.85188 0.19185 0.26541 0.0
C4239 C 0.84264 0.17281 0.26659 0.0
C4240 C 0.84181 0.20801 0.26576 0.0
C4241 C 0.88173 0.21358 0.26073 0.0
C4242 C 0.84924 0.22721 0.27533 0.0
C4243 C 0.83991 0.24177 0.27507 0.0
C4244 C 0.82231 0.23792 0.26577 0.0
C4245 C 0.81469 0.21867 0.2567 0.0
C4246 C 0.82412 0.20426 0.25662 0.0
H4247 H 0.89313 0.21182 0.25342 0.0
H4248 H 0.87386 0.22108 0.25263 0.0
H4249 H 0.88737 0.22273 0.27441 0.0
H4250 H 0.86231 0.23114 0.28339 0.0
H4251 H 0.84648 0.25609 0.28253 0.0
H4252 H 0.73674 0.09378 0.99409 0.0
H4253 H 0.70525 0.07666 0.98402 0.0
H4254 H 0.69017 0.1281 0.00396 0.0
H4255 H 0.72127 0.1452 0.01354 0.0
H4256 H 0.68532 0.07359 0.01153 0.0
H4257 H 0.65356 0.10559 0.9589 0.0
H4258 H 0.67738 0.10854 0.96261 0.0
H4259 H 0.66736 0.12397 0.97687 0.0
C4260 C 0.72662 0.10139 0.99597 0.0
C4261 C 0.73116 0.12059 0.00475 0.0
C4262 C 0.70882 0.09177 0.98994 0.0
C4263 C 0.6956 0.10132 0.99291 0.0
C4264 C 0.70027 0.12074 0.00093 0.0
H4265 H 0.59323 0.08389 0.02558 0.0
H4266 H 0.62515 0.09494 0.02309 0.0
C4267 C 0.71799 0.13037 0.00672 0.0
C4268 C 0.67723 0.0904 0.99229 0.0
H4269 H 0.63475 0.09284 0.98118 0.0
C4270 C 0.67419 0.07734 0.00448 0.0
C4271 C 0.66293 0.09568 0.98328 0.0
C4272 C 0.66551 0.10909 0.96955 0.0
C4273 C 0.65719 0.07037 0.00886 0.0
C4274 C 0.64318 0.07652 0.00063 0.0
C4275 C 0.64592 0.08869 0.9877 0.0
C4276 C 0.62518 0.06933 0.00423 0.0
C4277 C 0.65431 0.05711 0.02273 0.0
C4278 C 0.6153 0.05145 0.99452 0.0
C4279 C 0.59731 0.04546 0.99551 0.0
C4280 C 0.58925 0.05713 0.00657 0.0
C4281 C 0.59939 0.07469 0.0171 0.0
C4282 C 0.61741 0.08095 0.01571 0.0
H4283 H 0.66706 0.05552 0.02948 0.0
H4284 H 0.64699 0.06255 0.03353 0.0
H4285 H 0.64599 0.04275 0.01566 0.0
H4286 H 0.62135 0.04255 0.98556 0.0
H4287 H 0.58975 0.03197 0.98724 0.0
H4288 H 0.19472 0.51517 0.28369 0.0
H4289 H 0.20698 0.4892 0.29103 0.0
H4290 H 0.20429 0.46787 0.23294 0.0
H4291 H 0.1915 0.49375 0.22535 0.0
H4292 H 0.18832 0.4445 0.27147 0.0
H4293 H 0.25892 0.48072 0.26623 0.0
H4294 H 0.24284 0.49393 0.27161 0.0
H4295 H 0.24172 0.48165 0.24851 0.0
C4296 C 0.19705 0.50518 0.27247 0.0
C4297 C 0.1925 0.50652 0.25397 0.0
C4298 C 0.20381 0.4903 0.2767 0.0
C4299 C 0.20637 0.47687 0.26249 0.0
C4300 C 0.20222 0.47827 0.24397 0.0
H4301 H 0.25231 0.38559 0.2489 0.0
H4302 H 0.23719 0.41074 0.24716 0.0
C4303 C 0.19512 0.49302 0.23969 0.0
C4304 C 0.2138 0.46156 0.26715 0.0
H4305 H 0.25264 0.4487 0.27106 0.0
C4306 C 0.20237 0.44532 0.27152 0.0
C4307 C 0.23214 0.4632 0.26745 0.0
C4308 C 0.24474 0.48083 0.26331 0.0
C4309 C 0.20888 0.43 0.27544 0.0
C4310 C 0.22712 0.43133 0.27499 0.0
C4311 C 0.23862 0.44793 0.27133 0.0
C4312 C 0.2343 0.41493 0.27616 0.0
C4313 C 0.19625 0.41228 0.27935 0.0
C4314 C 0.23731 0.40902 0.29306 0.0
C4315 C 0.24586 0.39456 0.29409 0.0
C4316 C 0.2514 0.38603 0.2782 0.0
C4317 C 0.24787 0.39172 0.26125 0.0
C4318 C 0.23938 0.4061 0.26025 0.0
H4319 H 0.18215 0.41294 0.27755 0.0
H4320 H 0.19739 0.39938 0.27007 0.0
H4321 H 0.19992 0.41059 0.29378 0.0
H4322 H 0.23354 0.41595 0.30545 0.0
H4323 H 0.24845 0.39028 0.30728 0.0
H4324 H 0.25912 0.42158 0.98403 0.0
H4325 H 0.23243 0.43316 0.98057 0.0
H4326 H 0.21529 0.40954 0.02788 0.0
H4327 H 0.24239 0.39865 0.03188 0.0
H4328 H 0.19806 0.4164 0.97344 0.0
H4329 H 0.21074 0.46219 0.04264 0.0
H4330 H 0.22719 0.45131 0.03372 0.0
H4331 H 0.20938 0.43765 0.04392 0.0
C4332 C 0.24978 0.41903 0.99386 0.0
C4333 C 0.25312 0.40944 0.00844 0.0
C4334 C 0.23442 0.42559 0.99179 0.0
C4335 C 0.22187 0.42264 0.00416 0.0
C4336 C 0.22495 0.41263 0.01847 0.0
H4337 H 0.12029 0.45118 0.01122 0.0
H4338 H 0.1439 0.43465 0.01104 0.0
C4339 C 0.24048 0.40632 0.02073 0.0
C4340 C 0.20567 0.43006 0.00202 0.0
H4341 H 0.18247 0.45773 0.02515 0.0
C4342 C 0.19473 0.42549 0.98476 0.0
C4343 C 0.20121 0.44205 0.0167 0.0
C4344 C 0.21284 0.44876 0.03521 0.0
C4345 C 0.17953 0.43239 0.98191 0.0
C4346 C 0.17505 0.44411 0.99668 0.0
C4347 C 0.18584 0.44858 0.01389 0.0
C4348 C 0.15959 0.45251 0.99458 0.0
C4349 C 0.16823 0.42703 0.96321 0.0
C4350 C 0.1604 0.46792 0.98516 0.0
C4351 C 0.14707 0.4777 0.98553 0.0
C4352 C 0.13256 0.47227 0.99532 0.0
C4353 C 0.1314 0.45615 0.00393 0.0
C4354 C 0.14482 0.44652 0.0037 0.0
H4355 H 0.17198 0.41571 0.95395 0.0
H4356 H 0.15391 0.42195 0.9647 0.0
H4357 H 0.16987 0.43989 0.95659 0.0
H4358 H 0.17176 0.47294 0.9782 0.0
H4359 H 0.14865 0.4901 0.97887 0.0
H4360 H 0.90418 0.97842 0.22897 0.0
H4361 H 0.88663 0.94699 0.23254 0.0
H4362 H 0.8628 0.97364 0.27559 0.0
H4363 H 0.88025 0.0055 0.27163 0.0
H4364 H 0.88639 0.927 0.25847 0.0
H4365 H 0.81835 0.93677 0.24929 0.0
H4366 H 0.83735 0.95409 0.24444 0.0
H4367 H 0.83301 0.95367 0.26787 0.0
C4368 C 0.8949 0.97779 0.23896 0.0
C4369 C 0.89356 0.99497 0.24966 0.0
C4370 C 0.88486 0.95952 0.24113 0.0
C4371 C 0.87289 0.95726 0.25421 0.0
C4372 C 0.87135 0.97444 0.26493 0.0
H4373 H 0.79903 0.85486 0.28177 0.0
H4374 H 0.81789 0.88666 0.28093 0.0
C4375 C 0.88139 0.99291 0.26263 0.0
C4376 C 0.86274 0.93702 0.25666 0.0
H4377 H 0.821 0.90784 0.25795 0.0
C4378 C 0.87205 0.92292 0.25831 0.0
C4379 C 0.84395 0.93106 0.25664 0.0
C4380 C 0.83252 0.9446 0.2543 0.0
C4381 C 0.86348 0.90377 0.26012 0.0
C4382 C 0.84461 0.8977 0.25979 0.0
C4383 C 0.83535 0.91187 0.25826 0.0
C4384 C 0.83415 0.8772 0.26139 0.0
C4385 C 0.87507 0.8905 0.26303 0.0
C4386 C 0.8367 0.86028 0.25113 0.0
C4387 C 0.82604 0.84162 0.25211 0.0
C4388 C 0.81208 0.83911 0.26305 0.0
C4389 C 0.80968 0.85594 0.27333 0.0
C4390 C 0.8205 0.8744 0.27268 0.0
H4391 H 0.88893 0.89862 0.26912 0.0
H4392 H 0.8697 0.88048 0.27225 0.0
H4393 H 0.87573 0.88206 0.24948 0.0
H4394 H 0.8465 0.86139 0.24173 0.0
H4395 H 0.82812 0.82926 0.24351 0.0
H4396 H 0.69338 0.07992 0.77356 0.0
H4397 H 0.71309 0.11193 0.78542 0.0
H4398 H 0.68437 0.13462 0.74516 0.0
H4399 H 0.66405 0.10275 0.73401 0.0
H4400 H 0.73373 0.12655 0.7627 0.0
H4401 H 0.69754 0.17882 0.7874 0.0
H4402 H 0.68815 0.15332 0.78541 0.0
H4403 H 0.68598 0.16485 0.7657 0.0
C4404 C 0.69105 0.09194 0.76767 0.0
C4405 C 0.67763 0.08916 0.75272 0.0
C4406 C 0.70214 0.11013 0.77454 0.0
C4407 C 0.70013 0.12557 0.7662 0.0
C4408 C 0.68585 0.12297 0.75209 0.0
H4409 H 0.75424 0.22407 0.733 0.0
H4410 H 0.73784 0.19162 0.7355 0.0
C4411 C 0.67444 0.10479 0.74554 0.0
C4412 C 0.71494 0.14296 0.76909 0.0
H4413 H 0.72343 0.19117 0.77201 0.0
C4414 C 0.73164 0.14075 0.76525 0.0
C4415 C 0.71218 0.16139 0.77256 0.0
C4416 C 0.69501 0.1647 0.7782 0.0
C4417 C 0.74519 0.15641 0.76312 0.0
C4418 C 0.74175 0.17448 0.76484 0.0
C4419 C 0.72565 0.177 0.77017 0.0
C4420 C 0.75437 0.19102 0.76056 0.0
C4421 C 0.76265 0.15347 0.758 0.0
C4422 C 0.7696 0.2005 0.77318 0.0
C4423 C 0.77897 0.21885 0.77171 0.0
C4424 C 0.77301 0.22775 0.75771 0.0
C4425 C 0.75905 0.21736 0.74382 0.0
C4426 C 0.74964 0.19899 0.74534 0.0
H4427 H 0.76247 0.13809 0.75536 0.0
H4428 H 0.76579 0.15965 0.7455 0.0
H4429 H 0.77353 0.16108 0.76943 0.0
H4430 H 0.77331 0.19444 0.785 0.0
H4431 H 0.78985 0.22672 0.78246 0.0
loop_
_geom_bond_atom_site_label_1
_geom_bond_atom_site_label_2
_geom_bond_distance
_geom_bond_site_symmetry_2
_ccdc_geom_bond_type
Zn0 O3 2.031 . S
Zn0 O5 2.049 . S
Zn0 O10 2.067 . S
Zn1 O2 1.962 . S
Zn1 O4 1.986 . S
Zn1 O6 1.996 . S
Zn1 O9 1.943 . S
O2 Zn1 1.962 . S
O2 C7 1.254 . S
O3 Zn0 2.031 . S
O3 C7 1.269 . S
O4 Zn1 1.986 . S
O4 C11 1.262 . S
O5 Zn0 2.049 . S
O5 C13 1.260 . S
O6 Zn1 1.996 . S
O6 C13 1.257 . S
C7 O2 1.254 . S
C7 O3 1.269 . S
C8 O9 1.249 . S
C8 O10 1.270 . S
O9 Zn1 1.943 . S
O9 C8 1.249 . S
O10 Zn0 2.067 . S
O10 C8 1.270 . S
C11 O4 1.262 . S
C11 O12 1.232 . S
O12 C11 1.232 . S
C13 O5 1.260 . S
C13 O6 1.257 . S
Zn14 O17 2.031 1_455 S
Zn14 O19 2.049 . S
Zn14 O24 2.067 . S
Zn15 O16 1.949 1_455 S
Zn15 O18 1.991 . S
Zn15 O20 2.006 . S
Zn15 O23 1.946 1_455 S
O16 Zn15 1.949 1_655 S
O16 C21 1.254 . S
O17 Zn14 2.031 1_655 S
O17 C21 1.269 . S
O18 Zn15 1.991 . S
O18 C25 1.262 . S
O19 Zn14 2.049 . S
O19 C27 1.260 . S
O20 Zn15 2.006 . S
O20 C27 1.257 . S
C21 O16 1.254 . S
C21 O17 1.269 . S
C22 O23 1.249 . S
C22 O24 1.270 1_655 S
O23 Zn15 1.946 1_655 S
O23 C22 1.249 . S
O24 Zn14 2.067 . S
O24 C22 1.270 1_455 S
C25 O18 1.262 . S
C25 O26 1.232 1_455 S
O26 C25 1.232 1_655 S
C27 O19 1.260 . S
C27 O20 1.257 . S
Zn28 O31 2.031 . S
Zn28 O33 2.049 . S
Zn28 O38 2.067 . S
Zn29 O30 1.962 . S
Zn29 O32 1.986 . S
Zn29 O34 1.996 . S
Zn29 O37 1.943 . S
O30 Zn29 1.962 . S
O30 C35 1.254 . S
O31 Zn28 2.031 . S
O31 C35 1.269 . S
O32 Zn29 1.986 . S
O32 C39 1.262 . S
O33 Zn28 2.049 . S
O33 C41 1.260 . S
O34 Zn29 1.996 . S
O34 C41 1.257 . S
C35 O30 1.254 . S
C35 O31 1.269 . S
C36 O37 1.249 . S
C36 O38 1.270 . S
O37 Zn29 1.943 . S
O37 C36 1.249 . S
O38 Zn28 2.067 . S
O38 C36 1.270 . S
C39 O32 1.262 . S
C39 O40 1.232 . S
O40 C39 1.232 . S
C41 O33 1.260 . S
C41 O34 1.257 . S
Zn42 O45 2.031 . S
Zn42 O47 2.049 . S
Zn42 O52 2.067 . S
Zn43 O44 1.962 . S
Zn43 O46 1.986 . S
Zn43 O48 1.996 . S
Zn43 O51 1.943 . S
O44 Zn43 1.962 . S
O44 C49 1.254 . S
O45 Zn42 2.031 . S
O45 C49 1.269 . S
O46 Zn43 1.986 . S
O46 C53 1.262 . S
O47 Zn42 2.049 . S
O47 C55 1.260 . S
O48 Zn43 1.996 . S
O48 C55 1.257 . S
C49 O44 1.254 . S
C49 O45 1.269 . S
C50 O51 1.249 . S
C50 O52 1.270 . S
O51 Zn43 1.943 . S
O51 C50 1.249 . S
O52 Zn42 2.067 . S
O52 C50 1.270 . S
C53 O46 1.262 . S
C53 O54 1.232 . S
O54 C53 1.232 . S
C55 O47 1.260 . S
C55 O48 1.257 . S
Zn56 O59 2.031 . S
Zn56 O61 2.049 . S
Zn56 O66 2.067 . S
Zn57 O58 1.962 . S
Zn57 O60 1.986 . S
Zn57 O62 1.996 . S
Zn57 O65 1.943 . S
O58 Zn57 1.962 . S
O58 C63 1.254 . S
O59 Zn56 2.031 . S
O59 C63 1.269 . S
O60 Zn57 1.986 . S
O60 C67 1.262 . S
O61 Zn56 2.049 . S
O61 C69 1.260 . S
O62 Zn57 1.996 . S
O62 C69 1.257 . S
C63 O58 1.254 . S
C63 O59 1.269 . S
C64 O65 1.249 . S
C64 O66 1.270 . S
O65 Zn57 1.943 . S
O65 C64 1.249 . S
O66 Zn56 2.067 . S
O66 C64 1.270 . S
C67 O60 1.262 . S
C67 O68 1.232 . S
O68 C67 1.232 . S
C69 O61 1.260 . S
C69 O62 1.257 . S
Zn70 O73 2.031 . S
Zn70 O75 2.049 . S
Zn70 O80 2.067 . S
Zn71 O72 1.962 . S
Zn71 O74 1.986 . S
Zn71 O76 1.996 . S
Zn71 O79 1.943 . S
O72 Zn71 1.962 . S
O72 C77 1.254 . S
O73 Zn70 2.031 . S
O73 C77 1.269 . S
O74 Zn71 1.986 . S
O74 C81 1.262 . S
O75 Zn70 2.049 . S
O75 C83 1.260 . S
O76 Zn71 1.996 . S
O76 C83 1.257 . S
C77 O72 1.254 . S
C77 O73 1.269 . S
C78 O79 1.249 . S
C78 O80 1.270 . S
O79 Zn71 1.943 . S
O79 C78 1.249 . S
O80 Zn70 2.067 . S
O80 C78 1.270 . S
C81 O74 1.262 . S
C81 O82 1.232 . S
O82 C81 1.232 . S
C83 O75 1.260 . S
C83 O76 1.257 . S
Zn84 O87 2.031 . S
Zn84 O89 2.049 . S
Zn84 O94 2.067 . S
Zn85 O86 1.962 . S
Zn85 O88 1.986 . S
Zn85 O90 1.996 . S
Zn85 O93 1.943 . S
O86 Zn85 1.962 . S
O86 C91 1.254 . S
O87 Zn84 2.031 . S
O87 C91 1.269 . S
O88 Zn85 1.986 . S
O88 C95 1.262 . S
O89 Zn84 2.049 . S
O89 C97 1.260 . S
O90 Zn85 1.996 . S
O90 C97 1.257 . S
C91 O86 1.254 . S
C91 O87 1.269 . S
C92 O93 1.249 . S
C92 O94 1.270 . S
O93 Zn85 1.943 . S
O93 C92 1.249 . S
O94 Zn84 2.067 . S
O94 C92 1.270 . S
C95 O88 1.262 . S
C95 O96 1.232 . S
O96 C95 1.232 . S
C97 O89 1.260 . S
C97 O90 1.257 . S
Zn98 O101 2.031 . S
Zn98 O103 2.049 . S
Zn98 O108 2.067 . S
Zn99 O100 1.962 . S
Zn99 O102 1.986 . S
Zn99 O104 1.996 . S
Zn99 O107 1.913 1_455 S
O100 Zn99 1.962 . S
O100 C105 1.254 . S
O101 Zn98 2.031 . S
O101 C105 1.269 1_655 S
O102 Zn99 1.986 . S
O102 C109 1.262 . S
O103 Zn98 2.049 . S
O103 C111 1.260 1_655 S
O104 Zn99 1.996 . S
O104 C111 1.257 . S
C105 O100 1.254 . S
C105 O101 1.269 1_455 S
C106 O107 1.288 . S
C106 O108 1.270 . S
O107 Zn99 1.913 1_655 S
O107 C106 1.288 . S
O108 Zn98 2.067 . S
O108 C106 1.270 . S
C109 O102 1.262 . S
C109 O110 1.232 . S
O110 C109 1.232 . S
C111 O103 1.260 1_455 S
C111 O104 1.257 . S
Zn112 O115 2.031 . S
Zn112 O117 2.049 . S
Zn112 O122 2.067 . S
Zn113 O114 1.962 . S
Zn113 O116 1.986 . S
Zn113 O118 1.996 . S
Zn113 O121 1.943 1_545 S
O114 Zn113 1.962 . S
O114 C119 1.254 . S
O115 Zn112 2.031 . S
O115 C119 1.269 1_565 S
O116 Zn113 1.986 . S
O116 C123 1.262 . S
O117 Zn112 2.049 . S
O117 C125 1.260 1_565 S
O118 Zn113 1.996 . S
O118 C125 1.257 . S
C119 O114 1.254 . S
C119 O115 1.269 1_545 S
C120 O121 1.249 . S
C120 O122 1.270 . S
O121 Zn113 1.943 1_565 S
O121 C120 1.249 . S
O122 Zn112 2.067 . S
O122 C120 1.270 . S
C123 O116 1.262 . S
C123 O124 1.232 . S
O124 C123 1.232 . S
C125 O117 1.260 1_545 S
C125 O118 1.257 . S
Zn126 O129 2.031 . S
Zn126 O131 2.049 . S
Zn126 O136 2.067 . S
Zn127 O128 1.962 . S
Zn127 O130 1.986 . S
Zn127 O132 1.996 . S
Zn127 O135 1.943 . S
O128 Zn127 1.962 . S
O128 C133 1.254 . S
O129 Zn126 2.031 . S
O129 C133 1.269 . S
O130 Zn127 1.986 . S
O130 C137 1.262 . S
O131 Zn126 2.049 . S
O131 C139 1.260 . S
O132 Zn127 1.996 . S
O132 C139 1.257 . S
C133 O128 1.254 . S
C133 O129 1.269 . S
C134 O135 1.249 . S
C134 O136 1.270 . S
O135 Zn127 1.943 . S
O135 C134 1.249 . S
O136 Zn126 2.067 . S
O136 C134 1.270 . S
C137 O130 1.262 . S
C137 O138 1.232 . S
O138 C137 1.232 . S
C139 O131 1.260 . S
C139 O132 1.257 . S
Zn140 O143 2.031 . S
Zn140 O145 2.049 . S
Zn140 O150 2.067 . S
Zn141 O142 1.962 . S
Zn141 O144 1.986 . S
Zn141 O146 1.996 . S
Zn141 O149 1.943 1_565 S
O142 Zn141 1.962 . S
O142 C147 1.254 1_565 S
O143 Zn140 2.031 . S
O143 C147 1.269 . S
O144 Zn141 1.986 . S
O144 C151 1.262 . S
O145 Zn140 2.049 . S
O145 C153 1.203 1_545 S
O146 Zn141 1.996 . S
O146 C153 1.292 . S
C147 O142 1.254 1_545 S
C147 O143 1.269 . S
C148 O149 1.249 . S
C148 O150 1.270 . S
O149 Zn141 1.943 1_545 S
O149 C148 1.249 . S
O150 Zn140 2.067 . S
O150 C148 1.270 . S
C151 O144 1.262 . S
C151 O152 1.232 . S
O152 C151 1.232 . S
C153 O145 1.203 1_565 S
C153 O146 1.292 . S
Zn154 O157 2.031 1_554 S
Zn154 O159 2.049 . S
Zn154 O164 2.067 . S
Zn155 O156 1.962 1_554 S
Zn155 O158 1.986 . S
Zn155 O160 1.996 . S
Zn155 O163 1.943 . S
O156 Zn155 1.962 1_556 S
O156 C161 1.254 . S
O157 Zn154 2.031 1_556 S
O157 C161 1.269 . S
O158 Zn155 1.986 . S
O158 C165 1.262 . S
O159 Zn154 2.049 . S
O159 C167 1.260 . S
O160 Zn155 1.996 . S
O160 C167 1.257 . S
C161 O156 1.254 . S
C161 O157 1.269 . S
C162 O163 1.249 . S
C162 O164 1.270 . S
O163 Zn155 1.943 . S
O163 C162 1.249 . S
O164 Zn154 2.067 . S
O164 C162 1.270 . S
C165 O158 1.262 . S
C165 O166 1.185 1_554 S
O166 C165 1.185 1_556 S
C167 O159 1.260 . S
C167 O160 1.257 . S
Zn168 O171 2.031 1_554 S
Zn168 O173 2.049 . S
Zn168 O178 2.067 . S
Zn169 O170 1.962 1_554 S
Zn169 O172 1.986 . S
Zn169 O174 1.996 . S
Zn169 O177 1.943 . S
O170 Zn169 1.962 1_556 S
O170 C175 1.254 . S
O171 Zn168 2.031 1_556 S
O171 C175 1.269 . S
O172 Zn169 1.986 . S
O172 C179 1.262 . S
O173 Zn168 2.049 . S
O173 C181 1.260 . S
O174 Zn169 1.996 . S
O174 C181 1.257 . S
C175 O170 1.254 . S
C175 O171 1.269 . S
C176 O177 1.249 . S
C176 O178 1.270 . S
O177 Zn169 1.943 . S
O177 C176 1.249 . S
O178 Zn168 2.067 . S
O178 C176 1.270 . S
C179 O172 1.262 . S
C179 O180 1.256 . S
O180 C179 1.256 . S
C181 O173 1.260 . S
C181 O174 1.257 . S
Zn182 O185 2.031 1_554 S
Zn182 O187 2.049 . S
Zn182 O192 2.067 . S
Zn183 O184 1.962 1_554 S
Zn183 O186 1.986 . S
Zn183 O188 1.996 . S
Zn183 O191 1.943 . S
O184 Zn183 1.962 1_556 S
O184 C189 1.254 . S
O185 Zn182 2.031 1_556 S
O185 C189 1.269 . S
O186 Zn183 1.986 . S
O186 C193 1.262 . S
O187 Zn182 2.049 . S
O187 C195 1.260 . S
O188 Zn183 1.996 . S
O188 C195 1.257 . S
C189 O184 1.254 . S
C189 O185 1.269 . S
C190 O191 1.249 . S
C190 O192 1.270 . S
O191 Zn183 1.943 . S
O191 C190 1.249 . S
O192 Zn182 2.067 . S
O192 C190 1.270 . S
C193 O186 1.262 . S
C193 O194 1.232 1_554 S
O194 C193 1.232 1_556 S
C195 O187 1.260 . S
C195 O188 1.257 . S
Zn196 O199 2.031 . S
Zn196 O201 2.049 . S
Zn196 O206 2.067 . S
Zn197 O198 1.962 . S
Zn197 O200 1.986 . S
Zn197 O202 1.996 . S
Zn197 O205 1.943 . S
O198 Zn197 1.962 . S
O198 C203 1.254 . S
O199 Zn196 2.031 . S
O199 C203 1.269 . S
O200 Zn197 1.986 . S
O200 C207 1.262 . S
O201 Zn196 2.049 . S
O201 C209 1.260 . S
O202 Zn197 1.996 . S
O202 C209 1.257 . S
C203 O198 1.254 . S
C203 O199 1.269 . S
C204 O205 1.249 . S
C204 O206 1.270 . S
O205 Zn197 1.943 . S
O205 C204 1.249 . S
O206 Zn196 2.067 . S
O206 C204 1.270 . S
C207 O200 1.262 . S
C207 O208 1.232 . S
O208 C207 1.232 . S
C209 O201 1.260 . S
C209 O202 1.257 . S
Zn210 O213 2.031 . S
Zn210 O215 2.049 . S
Zn210 O220 2.067 . S
Zn211 O212 1.962 . S
Zn211 O214 1.986 . S
Zn211 O216 1.996 . S
Zn211 O219 1.943 . S
O212 Zn211 1.962 . S
O212 C217 1.254 . S
O213 Zn210 2.031 . S
O213 C217 1.269 . S
O214 Zn211 1.986 . S
O214 C221 1.262 . S
O215 Zn210 2.049 . S
O215 C223 1.260 . S
O216 Zn211 1.996 . S
O216 C223 1.257 . S
C217 O212 1.254 . S
C217 O213 1.269 . S
C218 O219 1.249 . S
C218 O220 1.270 . S
O219 Zn211 1.943 . S
O219 C218 1.249 . S
O220 Zn210 2.067 . S
O220 C218 1.270 . S
C221 O214 1.262 . S
C221 O222 1.232 . S
O222 C221 1.232 . S
C223 O215 1.260 . S
C223 O216 1.257 . S
Zn224 O227 2.031 . S
Zn224 O229 2.049 . S
Zn224 O234 2.067 . S
Zn225 O226 1.962 . S
Zn225 O228 1.986 . S
Zn225 O230 1.996 . S
Zn225 O233 1.943 . S
O226 Zn225 1.962 . S
O226 C231 1.254 . S
O227 Zn224 2.031 . S
O227 C231 1.269 . S
O228 Zn225 1.986 . S
O228 C235 1.262 . S
O229 Zn224 2.049 . S
O229 C237 1.260 . S
O230 Zn225 1.996 . S
O230 C237 1.257 . S
C231 O226 1.254 . S
C231 O227 1.269 . S
C232 O233 1.249 . S
C232 O234 1.270 . S
O233 Zn225 1.943 . S
O233 C232 1.249 . S
O234 Zn224 2.067 . S
O234 C232 1.270 . S
C235 O228 1.262 . S
C235 O236 1.232 . S
O236 C235 1.232 . S
C237 O229 1.260 . S
C237 O230 1.257 . S
Zn238 O241 2.031 . S
Zn238 O243 2.049 . S
Zn238 O248 2.067 . S
Zn239 O240 1.962 . S
Zn239 O242 1.986 . S
Zn239 O244 1.996 . S
Zn239 O247 1.943 . S
O240 Zn239 1.962 . S
O240 C245 1.254 . S
O241 Zn238 2.031 . S
O241 C245 1.269 . S
O242 Zn239 1.986 . S
O242 C249 1.262 . S
O243 Zn238 2.049 . S
O243 C251 1.260 . S
O244 Zn239 1.996 . S
O244 C251 1.257 . S
C245 O240 1.254 . S
C245 O241 1.269 . S
C246 O247 1.249 . S
C246 O248 1.270 . S
O247 Zn239 1.943 . S
O247 C246 1.249 . S
O248 Zn238 2.067 . S
O248 C246 1.270 . S
C249 O242 1.262 . S
C249 O250 1.232 . S
O250 C249 1.232 . S
C251 O243 1.260 . S
C251 O244 1.257 . S
Zn252 O255 2.031 . S
Zn252 O257 2.049 . S
Zn252 O262 2.067 . S
Zn253 O254 1.962 . S
Zn253 O256 1.986 . S
Zn253 O258 1.996 . S
Zn253 O261 1.943 . S
O254 Zn253 1.962 . S
O254 C259 1.254 . S
O255 Zn252 2.031 . S
O255 C259 1.269 . S
O256 Zn253 1.986 . S
O256 C263 1.262 . S
O257 Zn252 2.049 . S
O257 C265 1.260 . S
O258 Zn253 1.996 . S
O258 C265 1.257 . S
C259 O254 1.254 . S
C259 O255 1.269 . S
C260 O261 1.249 . S
C260 O262 1.270 . S
O261 Zn253 1.943 . S
O261 C260 1.249 . S
O262 Zn252 2.067 . S
O262 C260 1.270 . S
C263 O256 1.262 . S
C263 O264 1.232 . S
O264 C263 1.232 . S
C265 O257 1.260 . S
C265 O258 1.257 . S
Zn266 O269 2.031 . S
Zn266 O271 2.049 . S
Zn266 O276 2.067 . S
Zn267 O268 1.962 . S
Zn267 O270 1.986 . S
Zn267 O272 1.996 . S
Zn267 O275 1.943 . S
O268 Zn267 1.962 . S
O268 C273 1.254 . S
O269 Zn266 2.031 . S
O269 C273 1.269 . S
O270 Zn267 1.986 . S
O270 C277 1.262 . S
O271 Zn266 2.049 . S
O271 C279 1.260 . S
O272 Zn267 1.996 . S
O272 C279 1.257 . S
C273 O268 1.254 . S
C273 O269 1.269 . S
C274 O275 1.249 . S
C274 O276 1.270 . S
O275 Zn267 1.943 . S
O275 C274 1.249 . S
O276 Zn266 2.067 . S
O276 C274 1.270 . S
C277 O270 1.262 . S
C277 O278 1.232 . S
O278 C277 1.232 . S
C279 O271 1.260 . S
C279 O272 1.257 . S
Zn280 O283 2.031 1_554 S
Zn280 O285 2.049 . S
Zn280 O290 2.067 . S
Zn281 O282 1.962 1_554 S
Zn281 O284 1.986 . S
Zn281 O286 1.996 . S
Zn281 O289 1.943 . S
O282 Zn281 1.962 1_556 S
O282 C287 1.254 . S
O283 Zn280 2.031 1_556 S
O283 C287 1.269 . S
O284 Zn281 1.986 . S
O284 C291 1.262 . S
O285 Zn280 2.049 . S
O285 C293 1.260 . S
O286 Zn281 1.996 . S
O286 C293 1.257 . S
C287 O282 1.254 . S
C287 O283 1.269 . S
C288 O289 1.249 . S
C288 O290 1.270 . S
O289 Zn281 1.943 . S
O289 C288 1.249 . S
O290 Zn280 2.067 . S
O290 C288 1.270 . S
C291 O284 1.262 . S
C291 O292 1.232 1_554 S
O292 C291 1.232 1_556 S
C293 O285 1.260 . S
C293 O286 1.257 . S
Zn294 O297 2.031 . S
Zn294 O299 2.049 . S
Zn294 O304 2.067 . S
Zn295 O296 1.962 . S
Zn295 O298 1.986 . S
Zn295 O300 1.996 . S
Zn295 O303 1.943 . S
O296 Zn295 1.962 . S
O296 C301 1.254 . S
O297 Zn294 2.031 . S
O297 C301 1.269 . S
O298 Zn295 1.986 . S
O298 C305 1.262 . S
O299 Zn294 2.049 . S
O299 C307 1.260 . S
O300 Zn295 1.996 . S
O300 C307 1.257 . S
C301 O296 1.254 . S
C301 O297 1.269 . S
C302 O303 1.249 . S
C302 O304 1.270 . S
O303 Zn295 1.943 . S
O303 C302 1.249 . S
O304 Zn294 2.067 . S
O304 C302 1.270 . S
C305 O298 1.262 . S
C305 O306 1.232 . S
O306 C305 1.232 . S
C307 O299 1.260 . S
C307 O300 1.257 . S
Zn308 O311 2.031 . S
Zn308 O313 2.049 . S
Zn308 O318 2.067 . S
Zn309 O310 1.962 . S
Zn309 O312 1.986 . S
Zn309 O314 1.996 . S
Zn309 O317 1.943 . S
O310 Zn309 1.962 . S
O310 C315 1.254 . S
O311 Zn308 2.031 . S
O311 C315 1.269 . S
O312 Zn309 1.986 . S
O312 C319 1.262 . S
O313 Zn308 2.049 . S
O313 C321 1.260 . S
O314 Zn309 1.996 . S
O314 C321 1.257 . S
C315 O310 1.254 . S
C315 O311 1.269 . S
C316 O317 1.249 . S
C316 O318 1.270 . S
O317 Zn309 1.943 . S
O317 C316 1.249 . S
O318 Zn308 2.067 . S
O318 C316 1.270 . S
C319 O312 1.262 . S
C319 O320 1.232 . S
O320 C319 1.232 . S
C321 O313 1.260 . S
C321 O314 1.257 . S
Zn322 O325 2.031 . S
Zn322 O327 2.049 . S
Zn322 O332 2.067 . S
Zn323 O324 1.962 . S
Zn323 O326 1.986 . S
Zn323 O328 1.996 . S
Zn323 O331 1.943 . S
O324 Zn323 1.962 . S
O324 C329 1.254 . S
O325 Zn322 2.031 . S
O325 C329 1.269 . S
O326 Zn323 1.986 . S
O326 C333 1.262 . S
O327 Zn322 2.049 . S
O327 C335 1.260 . S
O328 Zn323 1.996 . S
O328 C335 1.257 . S
C329 O324 1.254 . S
C329 O325 1.269 . S
C330 O331 1.249 . S
C330 O332 1.270 . S
O331 Zn323 1.943 . S
O331 C330 1.249 . S
O332 Zn322 2.067 . S
O332 C330 1.270 . S
C333 O326 1.262 . S
C333 O334 1.232 . S
O334 C333 1.232 . S
C335 O327 1.260 . S
C335 O328 1.257 . S
Sm336 C338 2.846 1_454 S
Sm336 O356 2.543 1_455 S
Sm336 O357 2.450 1_454 S
Sm336 O358 2.681 1_554 S
Sm336 O359 2.464 1_554 S
Sm336 O360 2.396 1_554 S
Sm336 O364 2.386 . S
Sm336 O367 2.408 1_545 S
Sm337 C347 2.846 . S
Sm337 O358 2.386 1_554 S
Sm337 O361 2.408 . S
Sm337 O362 2.543 . S
Sm337 O363 2.450 . S
Sm337 O364 2.681 . S
Sm337 O365 2.464 . S
Sm337 O366 2.396 . S
C338 Sm336 2.846 1_656 S
C338 C339 1.506 . S
C338 O356 1.261 1_556 S
C338 O357 1.242 . S
C339 C338 1.506 . S
C339 C340 1.358 1_556 S
C339 C344 1.382 . S
C340 C339 1.358 1_554 S
C340 C341 1.376 1_554 S
C340 H368 0.930 . S
C341 C340 1.376 1_556 S
C341 C342 1.439 . S
C341 H369 0.897 1_556 S
C342 C341 1.439 . S
C342 C343 1.335 . S
C343 C342 1.335 . S
C343 C344 1.398 . S
C343 H370 0.930 . S
C344 C339 1.382 . S
C344 C343 1.398 . S
C344 H371 0.929 . S
C345 O358 1.271 . S
C345 O359 1.251 . S
C346 O360 1.252 1_554 S
C346 O361 1.272 . S
C347 Sm337 2.846 . S
C347 C348 1.506 . S
C347 O362 1.261 . S
C347 O363 1.242 . S
C348 C347 1.506 . S
C348 C349 1.358 . S
C348 C353 1.382 . S
C349 C348 1.358 . S
C349 C350 1.389 . S
C349 H372 0.930 . S
C350 C349 1.389 . S
C350 C351 1.395 . S
C350 H373 0.926 1_545 S
C351 C350 1.395 . S
C351 C352 1.335 . S
C352 C351 1.335 . S
C352 C353 1.398 . S
C352 H374 0.930 . S
C353 C348 1.382 . S
C353 C352 1.398 . S
C353 H375 0.929 . S
C354 O364 1.271 . S
C354 O365 1.251 . S
C355 O366 1.252 1_565 S
C355 O367 1.272 . S
O356 Sm336 2.543 1_655 S
O356 C338 1.261 1_554 S
O357 Sm336 2.450 1_656 S
O357 C338 1.242 . S
O358 Sm336 2.681 1_556 S
O358 Sm337 2.386 1_556 S
O358 C345 1.271 . S
O359 Sm336 2.464 1_556 S
O359 C345 1.251 . S
O360 Sm336 2.396 1_556 S
O360 C346 1.252 1_556 S
O361 Sm337 2.408 . S
O361 C346 1.272 . S
O362 Sm337 2.543 . S
O362 C347 1.261 . S
O363 Sm337 2.450 . S
O363 C347 1.242 . S
O364 Sm336 2.386 . S
O364 Sm337 2.681 . S
O364 C354 1.271 . S
O365 Sm337 2.464 . S
O365 C354 1.251 . S
O366 Sm337 2.396 . S
O366 C355 1.252 1_545 S
O367 Sm336 2.408 1_565 S
O367 C355 1.272 . S
H368 C340 0.930 . S
H369 C341 0.897 1_554 S
H370 C343 0.930 . S
H371 C344 0.929 . S
H372 C349 0.930 . S
H373 C350 0.926 1_565 S
H374 C352 0.930 . S
H375 C353 0.929 . S
Sm376 C378 2.846 . S
Sm376 O396 2.543 . S
Sm376 O397 2.450 . S
Sm376 O398 2.681 . S
Sm376 O399 2.464 . S
Sm376 O400 2.396 . S
Sm376 O404 2.386 . S
Sm376 O407 2.408 . S
Sm377 C387 2.846 . S
Sm377 O398 2.386 . S
Sm377 O401 2.408 . S
Sm377 O402 2.543 . S
Sm377 O403 2.450 . S
Sm377 O404 2.681 . S
Sm377 O405 2.464 . S
Sm377 O406 2.396 . S
C378 Sm376 2.846 . S
C378 C379 1.506 . S
C378 O396 1.261 . S
C378 O397 1.242 . S
C379 C378 1.506 . S
C379 C380 1.358 . S
C379 C384 1.382 . S
C380 C379 1.358 . S
C380 C381 1.385 . S
C380 H408 0.930 . S
C381 C380 1.385 . S
C381 C382 1.395 . S
C381 H409 0.929 . S
C382 C381 1.395 . S
C382 C383 1.335 . S
C383 C382 1.335 . S
C383 C384 1.398 . S
C383 H410 0.930 . S
C384 C379 1.382 . S
C384 C383 1.398 . S
C384 H411 0.929 . S
C385 O398 1.271 . S
C385 O399 1.251 . S
C386 O400 1.252 . S
C386 O401 1.272 . S
C387 Sm377 2.846 . S
C387 C388 1.506 . S
C387 O402 1.261 . S
C387 O403 1.242 . S
C388 C387 1.506 . S
C388 C389 1.358 . S
C388 C393 1.382 . S
C389 C388 1.358 . S
C389 C390 1.385 . S
C389 H412 0.930 . S
C390 C389 1.385 . S
C390 C391 1.395 . S
C390 H413 0.929 . S
C391 C390 1.395 . S
C391 C392 1.335 . S
C392 C391 1.335 . S
C392 C393 1.398 . S
C392 H414 0.930 . S
C393 C388 1.382 . S
C393 C392 1.398 . S
C393 H415 0.929 . S
C394 O404 1.271 . S
C394 O405 1.251 . S
C395 O406 1.252 . S
C395 O407 1.272 . S
O396 Sm376 2.543 . S
O396 C378 1.261 . S
O397 Sm376 2.450 . S
O397 C378 1.242 . S
O398 Sm376 2.681 . S
O398 Sm377 2.386 . S
O398 C385 1.271 . S
O399 Sm376 2.464 . S
O399 C385 1.251 . S
O400 Sm376 2.396 . S
O400 C386 1.252 . S
O401 Sm377 2.408 . S
O401 C386 1.272 . S
O402 Sm377 2.543 . S
O402 C387 1.261 . S
O403 Sm377 2.450 . S
O403 C387 1.242 . S
O404 Sm376 2.386 . S
O404 Sm377 2.681 . S
O404 C394 1.271 . S
O405 Sm377 2.464 . S
O405 C394 1.251 . S
O406 Sm377 2.396 . S
O406 C395 1.252 . S
O407 Sm376 2.408 . S
O407 C395 1.272 . S
H408 C380 0.930 . S
H409 C381 0.929 . S
H410 C383 0.930 . S
H411 C384 0.929 . S
H412 C389 0.930 . S
H413 C390 0.929 . S
H414 C392 0.930 . S
H415 C393 0.929 . S
Sm416 C418 2.846 . S
Sm416 O436 2.543 . S
Sm416 O437 2.450 . S
Sm416 O438 2.681 . S
Sm416 O439 2.464 . S
Sm416 O440 2.358 1_545 S
Sm416 O444 2.386 . S
Sm416 O447 2.408 . S
Sm417 C427 2.846 . S
Sm417 O438 2.386 . S
Sm417 O441 2.408 1_545 S
Sm417 O442 2.543 . S
Sm417 O443 2.450 . S
Sm417 O444 2.681 . S
Sm417 O445 2.464 . S
Sm417 O446 2.396 . S
C418 Sm416 2.846 . S
C418 C419 1.506 1_545 S
C418 O436 1.261 . S
C418 O437 1.242 . S
C419 C418 1.506 1_565 S
C419 C420 1.358 . S
C419 C424 1.382 . S
C420 C419 1.358 . S
C420 C421 1.385 . S
C420 H448 0.930 . S
C421 C420 1.385 . S
C421 C422 1.395 . S
C421 H449 0.929 . S
C422 C421 1.395 . S
C422 C423 1.335 . S
C423 C422 1.335 . S
C423 C424 1.398 . S
C423 H450 0.930 . S
C424 C419 1.382 . S
C424 C423 1.398 . S
C424 H451 0.929 1_565 S
C425 O438 1.271 . S
C425 O439 1.251 . S
C426 O440 1.276 . S
C426 O441 1.272 . S
C427 Sm417 2.846 . S
C427 C428 1.506 . S
C427 O442 1.261 . S
C427 O443 1.242 . S
C428 C427 1.506 . S
C428 C429 1.358 . S
C428 C433 1.382 . S
C429 C428 1.358 . S
C429 C430 1.385 . S
C429 H452 0.930 . S
C430 C429 1.385 . S
C430 C431 1.395 . S
C430 H453 0.929 . S
C431 C430 1.395 . S
C431 C432 1.335 . S
C432 C431 1.335 . S
C432 C433 1.398 . S
C432 H454 0.930 . S
C433 C428 1.382 . S
C433 C432 1.398 . S
C433 H455 0.929 . S
C434 O444 1.271 . S
C434 O445 1.251 . S
C435 O446 1.252 . S
C435 O447 1.272 . S
O436 Sm416 2.543 . S
O436 C418 1.261 . S
O437 Sm416 2.450 . S
O437 C418 1.242 . S
O438 Sm416 2.681 . S
O438 Sm417 2.386 . S
O438 C425 1.271 . S
O439 Sm416 2.464 . S
O439 C425 1.251 . S
O440 Sm416 2.358 1_565 S
O440 C426 1.276 . S
O441 Sm417 2.408 1_565 S
O441 C426 1.272 . S
O442 Sm417 2.543 . S
O442 C427 1.261 . S
O443 Sm417 2.450 . S
O443 C427 1.242 . S
O444 Sm416 2.386 . S
O444 Sm417 2.681 . S
O444 C434 1.271 . S
O445 Sm417 2.464 . S
O445 C434 1.251 . S
O446 Sm417 2.396 . S
O446 C435 1.252 . S
O447 Sm416 2.408 . S
O447 C435 1.272 . S
H448 C420 0.930 . S
H449 C421 0.929 . S
H450 C423 0.930 . S
H451 C424 0.929 1_545 S
H452 C429 0.930 . S
H453 C430 0.929 . S
H454 C432 0.930 . S
H455 C433 0.929 . S
Sm456 C458 2.846 . S
Sm456 O476 2.543 . S
Sm456 O477 2.450 . S
Sm456 O478 2.681 . S
Sm456 O479 2.464 . S
Sm456 O480 2.396 . S
Sm456 O484 2.386 . S
Sm456 O487 2.408 . S
Sm457 C467 2.846 . S
Sm457 O478 2.386 . S
Sm457 O481 2.408 . S
Sm457 O482 2.543 . S
Sm457 O483 2.450 . S
Sm457 O484 2.681 . S
Sm457 O485 2.464 . S
Sm457 O486 2.396 . S
C458 Sm456 2.846 . S
C458 C459 1.506 . S
C458 O476 1.261 . S
C458 O477 1.242 . S
C459 C458 1.506 . S
C459 C460 1.358 . S
C459 C464 1.382 . S
C460 C459 1.358 . S
C460 C461 1.385 . S
C460 H488 0.930 . S
C461 C460 1.385 . S
C461 C462 1.395 . S
C461 H489 0.929 . S
C462 C461 1.395 . S
C462 C463 1.335 . S
C463 C462 1.335 . S
C463 C464 1.398 . S
C463 H490 0.930 . S
C464 C459 1.382 . S
C464 C463 1.398 . S
C464 H491 0.929 . S
C465 O478 1.271 . S
C465 O479 1.251 . S
C466 O480 1.252 . S
C466 O481 1.272 . S
C467 Sm457 2.846 . S
C467 C468 1.506 . S
C467 O482 1.261 . S
C467 O483 1.242 . S
C468 C467 1.506 . S
C468 C469 1.358 . S
C468 C473 1.382 . S
C469 C468 1.358 . S
C469 C470 1.385 . S
C469 H492 0.930 . S
C470 C469 1.385 . S
C470 C471 1.395 . S
C470 H493 0.929 . S
C471 C470 1.395 . S
C471 C472 1.335 . S
C472 C471 1.335 . S
C472 C473 1.398 . S
C472 H494 0.930 . S
C473 C468 1.382 . S
C473 C472 1.398 . S
C473 H495 0.929 . S
C474 O484 1.271 . S
C474 O485 1.251 . S
C475 O486 1.252 . S
C475 O487 1.272 . S
O476 Sm456 2.543 . S
O476 C458 1.261 . S
O477 Sm456 2.450 . S
O477 C458 1.242 . S
O478 Sm456 2.681 . S
O478 Sm457 2.386 . S
O478 C465 1.271 . S
O479 Sm456 2.464 . S
O479 C465 1.251 . S
O480 Sm456 2.396 . S
O480 C466 1.252 . S
O481 Sm457 2.408 . S
O481 C466 1.272 . S
O482 Sm457 2.543 . S
O482 C467 1.261 . S
O483 Sm457 2.450 . S
O483 C467 1.242 . S
O484 Sm456 2.386 . S
O484 Sm457 2.681 . S
O484 C474 1.271 . S
O485 Sm457 2.464 . S
O485 C474 1.251 . S
O486 Sm457 2.396 . S
O486 C475 1.252 . S
O487 Sm456 2.408 . S
O487 C475 1.272 . S
H488 C460 0.930 . S
H489 C461 0.929 . S
H490 C463 0.930 . S
H491 C464 0.929 . S
H492 C469 0.930 . S
H493 C470 0.929 . S
H494 C472 0.930 . S
H495 C473 0.929 . S
Sm496 C498 2.846 . S
Sm496 O516 2.543 . S
Sm496 O517 2.450 . S
Sm496 O518 2.681 . S
Sm496 O519 2.464 . S
Sm496 O520 2.396 . S
Sm496 O524 2.386 . S
Sm496 O527 2.408 . S
Sm497 C507 2.846 1_545 S
Sm497 O518 2.386 . S
Sm497 O521 2.408 . S
Sm497 O522 2.543 1_545 S
Sm497 O523 2.450 1_545 S
Sm497 O524 2.681 . S
Sm497 O525 2.464 . S
Sm497 O526 2.396 . S
C498 Sm496 2.846 . S
C498 C499 1.506 . S
C498 O516 1.261 . S
C498 O517 1.242 . S
C499 C498 1.506 . S
C499 C500 1.358 . S
C499 C504 1.382 . S
C500 C499 1.358 . S
C500 C501 1.385 . S
C500 H528 0.930 . S
C501 C500 1.385 . S
C501 C502 1.395 . S
C501 H529 0.929 . S
C502 C501 1.395 . S
C502 C503 1.335 . S
C503 C502 1.335 . S
C503 C504 1.398 . S
C503 H530 0.930 . S
C504 C499 1.382 . S
C504 C503 1.398 . S
C504 H531 0.929 . S
C505 O518 1.271 . S
C505 O519 1.251 . S
C506 O520 1.252 . S
C506 O521 1.272 . S
C507 Sm497 2.846 1_565 S
C507 C508 1.506 . S
C507 O522 1.261 . S
C507 O523 1.242 . S
C508 C507 1.506 . S
C508 C509 1.358 . S
C508 C513 1.382 . S
C509 C508 1.358 . S
C509 C510 1.385 . S
C509 H532 0.930 . S
C510 C509 1.385 . S
C510 C511 1.395 . S
C510 H533 0.929 . S
C511 C510 1.395 . S
C511 C512 1.335 . S
C512 C511 1.335 . S
C512 C513 1.398 . S
C512 H534 0.930 . S
C513 C508 1.382 . S
C513 C512 1.398 . S
C513 H535 0.929 . S
C514 O524 1.271 . S
C514 O525 1.251 . S
C515 O526 1.252 . S
C515 O527 1.272 . S
O516 Sm496 2.543 . S
O516 C498 1.261 . S
O517 Sm496 2.450 . S
O517 C498 1.242 . S
O518 Sm496 2.681 . S
O518 Sm497 2.386 . S
O518 C505 1.271 . S
O519 Sm496 2.464 . S
O519 C505 1.251 . S
O520 Sm496 2.396 . S
O520 C506 1.252 . S
O521 Sm497 2.408 . S
O521 C506 1.272 . S
O522 Sm497 2.543 1_565 S
O522 C507 1.261 . S
O523 Sm497 2.450 1_565 S
O523 C507 1.242 . S
O524 Sm496 2.386 . S
O524 Sm497 2.681 . S
O524 C514 1.271 . S
O525 Sm497 2.464 . S
O525 C514 1.251 . S
O526 Sm497 2.396 . S
O526 C515 1.252 . S
O527 Sm496 2.408 . S
O527 C515 1.272 . S
H528 C500 0.930 . S
H529 C501 0.929 . S
H530 C503 0.930 . S
H531 C504 0.929 . S
H532 C509 0.930 . S
H533 C510 0.929 . S
H534 C512 0.930 . S
H535 C513 0.929 . S
Sm536 C538 2.846 . S
Sm536 O556 2.543 . S
Sm536 O557 2.450 . S
Sm536 O558 2.681 . S
Sm536 O559 2.464 . S
Sm536 O560 2.396 . S
Sm536 O564 2.386 . S
Sm536 O567 2.408 . S
Sm537 C547 2.846 . S
Sm537 O558 2.386 . S
Sm537 O561 2.408 . S
Sm537 O562 2.543 . S
Sm537 O563 2.450 . S
Sm537 O564 2.681 . S
Sm537 O565 2.464 . S
Sm537 O566 2.396 . S
C538 Sm536 2.846 . S
C538 C539 1.506 . S
C538 O556 1.261 . S
C538 O557 1.242 . S
C539 C538 1.506 . S
C539 C540 1.358 . S
C539 C544 1.382 . S
C540 C539 1.358 . S
C540 C541 1.385 . S
C540 H568 0.930 . S
C541 C540 1.385 . S
C541 C542 1.395 . S
C541 H569 0.929 . S
C542 C541 1.395 . S
C542 C543 1.335 . S
C543 C542 1.335 . S
C543 C544 1.398 . S
C543 H570 0.930 . S
C544 C539 1.382 . S
C544 C543 1.398 . S
C544 H571 0.929 . S
C545 O558 1.271 . S
C545 O559 1.251 . S
C546 O560 1.252 . S
C546 O561 1.272 . S
C547 Sm537 2.846 . S
C547 C548 1.506 . S
C547 O562 1.261 . S
C547 O563 1.242 . S
C548 C547 1.506 . S
C548 C549 1.358 . S
C548 C553 1.382 . S
C549 C548 1.358 . S
C549 C550 1.385 . S
C549 H572 0.930 . S
C550 C549 1.385 . S
C550 C551 1.395 . S
C550 H573 0.929 . S
C551 C550 1.395 . S
C551 C552 1.335 . S
C552 C551 1.335 . S
C552 C553 1.398 . S
C552 H574 0.930 . S
C553 C548 1.382 . S
C553 C552 1.398 . S
C553 H575 0.929 . S
C554 O564 1.271 . S
C554 O565 1.251 . S
C555 O566 1.252 . S
C555 O567 1.272 . S
O556 Sm536 2.543 . S
O556 C538 1.261 . S
O557 Sm536 2.450 . S
O557 C538 1.242 . S
O558 Sm536 2.681 . S
O558 Sm537 2.386 . S
O558 C545 1.271 . S
O559 Sm536 2.464 . S
O559 C545 1.251 . S
O560 Sm536 2.396 . S
O560 C546 1.252 . S
O561 Sm537 2.408 . S
O561 C546 1.272 . S
O562 Sm537 2.543 . S
O562 C547 1.261 . S
O563 Sm537 2.450 . S
O563 C547 1.242 . S
O564 Sm536 2.386 . S
O564 Sm537 2.681 . S
O564 C554 1.271 . S
O565 Sm537 2.464 . S
O565 C554 1.251 . S
O566 Sm537 2.396 . S
O566 C555 1.252 . S
O567 Sm536 2.408 . S
O567 C555 1.272 . S
H568 C540 0.930 . S
H569 C541 0.929 . S
H570 C543 0.930 . S
H571 C544 0.929 . S
H572 C549 0.930 . S
H573 C550 0.929 . S
H574 C552 0.930 . S
H575 C553 0.929 . S
Sm576 C578 2.846 . S
Sm576 O596 2.543 . S
Sm576 O597 2.450 . S
Sm576 O598 2.681 1_554 S
Sm576 O599 2.450 1_545 S
Sm576 O600 2.396 . S
Sm576 O604 2.386 . S
Sm576 O607 2.408 . S
Sm577 C587 2.846 . S
Sm577 O598 2.386 . S
Sm577 O601 2.408 . S
Sm577 O602 2.543 . S
Sm577 O603 2.450 . S
Sm577 O604 2.681 1_556 S
Sm577 O605 2.464 . S
Sm577 O606 2.396 . S
C578 Sm576 2.846 . S
C578 C579 1.506 . S
C578 O596 1.261 . S
C578 O597 1.242 . S
C579 C578 1.506 . S
C579 C580 1.358 . S
C579 C584 1.382 1_545 S
C580 C579 1.358 . S
C580 C581 1.385 . S
C580 H608 0.930 . S
C581 C580 1.385 . S
C581 C582 1.395 . S
C581 H609 0.929 . S
C582 C581 1.395 . S
C582 C583 1.335 1_545 S
C583 C582 1.335 1_565 S
C583 C584 1.398 . S
C583 H610 0.930 . S
C584 C579 1.382 1_565 S
C584 C583 1.398 . S
C584 H611 0.929 . S
C585 O598 1.271 . S
C585 O599 1.246 1_546 S
C586 O600 1.252 . S
C586 O601 1.272 1_554 S
C587 Sm577 2.846 . S
C587 C588 1.506 . S
C587 O602 1.261 . S
C587 O603 1.242 . S
C588 C587 1.506 . S
C588 C589 1.358 . S
C588 C593 1.382 . S
C589 C588 1.358 . S
C589 C590 1.385 . S
C589 H612 0.930 . S
C590 C589 1.385 . S
C590 C591 1.395 . S
C590 H613 0.929 . S
C591 C590 1.395 . S
C591 C592 1.335 . S
C592 C591 1.335 . S
C592 C593 1.398 . S
C592 H614 0.930 . S
C593 C588 1.382 . S
C593 C592 1.398 . S
C593 H615 0.929 . S
C594 O604 1.271 . S
C594 O605 1.251 1_554 S
C595 O606 1.252 1_554 S
C595 O607 1.272 . S
O596 Sm576 2.543 . S
O596 C578 1.261 . S
O597 Sm576 2.450 . S
O597 C578 1.242 . S
O598 Sm576 2.681 1_556 S
O598 Sm577 2.386 . S
O598 C585 1.271 . S
O599 Sm576 2.450 1_565 S
O599 C585 1.246 1_564 S
O600 Sm576 2.396 . S
O600 C586 1.252 . S
O601 Sm577 2.408 . S
O601 C586 1.272 1_556 S
O602 Sm577 2.543 . S
O602 C587 1.261 . S
O603 Sm577 2.450 . S
O603 C587 1.242 . S
O604 Sm576 2.386 . S
O604 Sm577 2.681 1_554 S
O604 C594 1.271 . S
O605 Sm577 2.464 . S
O605 C594 1.251 1_556 S
O606 Sm577 2.396 . S
O606 C595 1.252 1_556 S
O607 Sm576 2.408 . S
O607 C595 1.272 . S
H608 C580 0.930 . S
H609 C581 0.929 . S
H610 C583 0.930 . S
H611 C584 0.929 . S
H612 C589 0.930 . S
H613 C590 0.929 . S
H614 C592 0.930 . S
H615 C593 0.929 . S
Sm616 C618 2.846 . S
Sm616 O636 2.543 . S
Sm616 O637 2.450 . S
Sm616 O638 2.681 . S
Sm616 O639 2.464 . S
Sm616 O640 2.396 . S
Sm616 O644 2.386 . S
Sm616 O647 2.408 . S
Sm617 C627 2.846 . S
Sm617 O638 2.386 . S
Sm617 O641 2.408 . S
Sm617 O642 2.543 . S
Sm617 O643 2.450 . S
Sm617 O644 2.681 . S
Sm617 O645 2.464 . S
Sm617 O646 2.396 . S
C618 Sm616 2.846 . S
C618 C619 1.506 . S
C618 O636 1.261 . S
C618 O637 1.242 . S
C619 C618 1.506 . S
C619 C620 1.358 . S
C619 C624 1.382 . S
C620 C619 1.358 . S
C620 C621 1.385 . S
C620 H648 0.930 . S
C621 C620 1.385 . S
C621 C622 1.395 . S
C621 H649 0.929 . S
C622 C621 1.395 . S
C622 C623 1.335 . S
C623 C622 1.335 . S
C623 C624 1.398 . S
C623 H650 0.930 . S
C624 C619 1.382 . S
C624 C623 1.398 . S
C624 H651 0.929 . S
C625 O638 1.271 . S
C625 O639 1.251 . S
C626 O640 1.252 . S
C626 O641 1.272 . S
C627 Sm617 2.846 . S
C627 C628 1.506 . S
C627 O642 1.261 . S
C627 O643 1.242 . S
C628 C627 1.506 . S
C628 C629 1.358 . S
C628 C633 1.382 . S
C629 C628 1.358 . S
C629 C630 1.385 . S
C629 H652 0.930 . S
C630 C629 1.385 . S
C630 C631 1.395 . S
C630 H653 0.929 . S
C631 C630 1.395 . S
C631 C632 1.335 . S
C632 C631 1.335 . S
C632 C633 1.398 . S
C632 H654 0.930 . S
C633 C628 1.382 . S
C633 C632 1.398 . S
C633 H655 0.929 . S
C634 O644 1.271 . S
C634 O645 1.251 . S
C635 O646 1.252 . S
C635 O647 1.272 . S
O636 Sm616 2.543 . S
O636 C618 1.261 . S
O637 Sm616 2.450 . S
O637 C618 1.242 . S
O638 Sm616 2.681 . S
O638 Sm617 2.386 . S
O638 C625 1.271 . S
O639 Sm616 2.464 . S
O639 C625 1.251 . S
O640 Sm616 2.396 . S
O640 C626 1.252 . S
O641 Sm617 2.408 . S
O641 C626 1.272 . S
O642 Sm617 2.543 . S
O642 C627 1.261 . S
O643 Sm617 2.450 . S
O643 C627 1.242 . S
O644 Sm616 2.386 . S
O644 Sm617 2.681 . S
O644 C634 1.271 . S
O645 Sm617 2.464 . S
O645 C634 1.251 . S
O646 Sm617 2.396 . S
O646 C635 1.252 . S
O647 Sm616 2.408 . S
O647 C635 1.272 . S
H648 C620 0.930 . S
H649 C621 0.929 . S
H650 C623 0.930 . S
H651 C624 0.929 . S
H652 C629 0.930 . S
H653 C630 0.929 . S
H654 C632 0.930 . S
H655 C633 0.929 . S
Sm656 C658 2.846 1_554 S
Sm656 O676 2.543 1_554 S
Sm656 O677 2.450 . S
Sm656 O678 2.681 . S
Sm656 O679 2.464 . S
Sm656 O680 2.396 1_554 S
Sm656 O684 2.386 . S
Sm656 O687 2.408 . S
Sm657 C667 2.846 1_556 S
Sm657 O678 2.386 1_556 S
Sm657 O681 2.408 . S
Sm657 O682 2.543 1_556 S
Sm657 O683 2.450 1_556 S
Sm657 O684 2.681 1_556 S
Sm657 O685 2.454 . S
Sm657 O686 2.396 1_556 S
C658 Sm656 2.846 1_556 S
C658 C659 1.506 . S
C658 O676 1.261 . S
C658 O677 1.242 1_556 S
C659 C658 1.506 . S
C659 C660 1.358 . S
C659 C664 1.382 . S
C660 C659 1.358 . S
C660 C661 1.385 . S
C660 H688 0.930 . S
C661 C660 1.385 . S
C661 C662 1.395 . S
C661 H689 0.929 . S
C662 C661 1.395 . S
C662 C663 1.335 . S
C663 C662 1.335 . S
C663 C664 1.398 . S
C663 H690 0.930 . S
C664 C659 1.382 . S
C664 C663 1.398 . S
C664 H691 0.929 . S
C665 O678 1.271 . S
C665 O679 1.251 . S
C666 O680 1.252 . S
C666 O681 1.272 . S
C667 Sm657 2.846 1_554 S
C667 C668 1.506 . S
C667 O682 1.261 . S
C667 O683 1.242 . S
C668 C667 1.506 . S
C668 C669 1.358 . S
C668 C673 1.382 . S
C669 C668 1.358 . S
C669 C670 1.385 . S
C669 H692 0.930 . S
C670 C669 1.385 . S
C670 C671 1.395 . S
C670 H693 0.929 . S
C671 C670 1.395 . S
C671 C672 1.335 . S
C672 C671 1.335 . S
C672 C673 1.398 . S
C672 H694 0.930 . S
C673 C668 1.382 . S
C673 C672 1.398 . S
C673 H695 0.929 . S
C674 O684 1.271 . S
C674 O685 1.252 1_554 S
C675 O686 1.252 . S
C675 O687 1.272 . S
O676 Sm656 2.543 1_556 S
O676 C658 1.261 . S
O677 Sm656 2.450 . S
O677 C658 1.242 1_554 S
O678 Sm656 2.681 . S
O678 Sm657 2.386 1_554 S
O678 C665 1.271 . S
O679 Sm656 2.464 . S
O679 C665 1.251 . S
O680 Sm656 2.396 1_556 S
O680 C666 1.252 . S
O681 Sm657 2.408 . S
O681 C666 1.272 . S
O682 Sm657 2.543 1_554 S
O682 C667 1.261 . S
O683 Sm657 2.450 1_554 S
O683 C667 1.242 . S
O684 Sm656 2.386 . S
O684 Sm657 2.681 1_554 S
O684 C674 1.271 . S
O685 Sm657 2.454 . S
O685 C674 1.252 1_556 S
O686 Sm657 2.396 1_554 S
O686 C675 1.252 . S
O687 Sm656 2.408 . S
O687 C675 1.272 . S
H688 C660 0.930 . S
H689 C661 0.929 . S
H690 C663 0.930 . S
H691 C664 0.929 . S
H692 C669 0.930 . S
H693 C670 0.929 . S
H694 C672 0.930 . S
H695 C673 0.929 . S
Sm696 C698 2.846 . S
Sm696 O716 2.543 . S
Sm696 O717 2.450 . S
Sm696 O718 2.681 . S
Sm696 O719 2.464 . S
Sm696 O720 2.396 . S
Sm696 O724 2.386 . S
Sm696 O727 2.408 . S
Sm697 C707 2.846 . S
Sm697 O718 2.386 . S
Sm697 O721 2.408 . S
Sm697 O722 2.543 . S
Sm697 O723 2.450 . S
Sm697 O724 2.681 . S
Sm697 O725 2.464 . S
Sm697 O726 2.396 . S
C698 Sm696 2.846 . S
C698 C699 1.506 . S
C698 O716 1.261 . S
C698 O717 1.242 . S
C699 C698 1.506 . S
C699 C700 1.358 . S
C699 C704 1.382 . S
C700 C699 1.358 . S
C700 C701 1.385 . S
C700 H728 0.930 . S
C701 C700 1.385 . S
C701 C702 1.395 . S
C701 H729 0.929 . S
C702 C701 1.395 . S
C702 C703 1.335 . S
C703 C702 1.335 . S
C703 C704 1.398 . S
C703 H730 0.930 . S
C704 C699 1.382 . S
C704 C703 1.398 . S
C704 H731 0.929 . S
C705 O718 1.271 . S
C705 O719 1.251 . S
C706 O720 1.252 . S
C706 O721 1.272 . S
C707 Sm697 2.846 . S
C707 C708 1.506 . S
C707 O722 1.261 . S
C707 O723 1.242 . S
C708 C707 1.506 . S
C708 C709 1.358 . S
C708 C713 1.382 . S
C709 C708 1.358 . S
C709 C710 1.385 . S
C709 H732 0.930 . S
C710 C709 1.385 . S
C710 C711 1.395 . S
C710 H733 0.929 . S
C711 C710 1.395 . S
C711 C712 1.335 . S
C712 C711 1.335 . S
C712 C713 1.398 . S
C712 H734 0.930 . S
C713 C708 1.382 . S
C713 C712 1.398 . S
C713 H735 0.929 . S
C714 O724 1.271 . S
C714 O725 1.251 . S
C715 O726 1.252 . S
C715 O727 1.272 . S
O716 Sm696 2.543 . S
O716 C698 1.261 . S
O717 Sm696 2.450 . S
O717 C698 1.242 . S
O718 Sm696 2.681 . S
O718 Sm697 2.386 . S
O718 C705 1.271 . S
O719 Sm696 2.464 . S
O719 C705 1.251 . S
O720 Sm696 2.396 . S
O720 C706 1.252 . S
O721 Sm697 2.408 . S
O721 C706 1.272 . S
O722 Sm697 2.543 . S
O722 C707 1.261 . S
O723 Sm697 2.450 . S
O723 C707 1.242 . S
O724 Sm696 2.386 . S
O724 Sm697 2.681 . S
O724 C714 1.271 . S
O725 Sm697 2.464 . S
O725 C714 1.251 . S
O726 Sm697 2.396 . S
O726 C715 1.252 . S
O727 Sm696 2.408 . S
O727 C715 1.272 . S
H728 C700 0.930 . S
H729 C701 0.929 . S
H730 C703 0.930 . S
H731 C704 0.929 . S
H732 C709 0.930 . S
H733 C710 0.929 . S
H734 C712 0.930 . S
H735 C713 0.929 . S
Sm736 C738 2.846 . S
Sm736 O756 2.543 . S
Sm736 O757 2.450 . S
Sm736 O758 2.681 . S
Sm736 O759 2.464 . S
Sm736 O760 2.396 . S
Sm736 O764 2.386 . S
Sm736 O767 2.408 . S
Sm737 C747 2.846 . S
Sm737 O758 2.386 . S
Sm737 O761 2.408 1_455 S
Sm737 O762 2.543 . S
Sm737 O763 2.450 . S
Sm737 O764 2.681 . S
Sm737 O765 2.464 . S
Sm737 O766 2.396 . S
C738 Sm736 2.846 . S
C738 C739 1.506 . S
C738 O756 1.261 . S
C738 O757 1.242 . S
C739 C738 1.506 . S
C739 C740 1.358 1_455 S
C739 C744 1.382 . S
C740 C739 1.358 1_655 S
C740 C741 1.385 . S
C740 H768 0.930 . S
C741 C740 1.385 . S
C741 C742 1.395 . S
C741 H769 0.929 . S
C742 C741 1.395 . S
C742 C743 1.335 . S
C743 C742 1.335 . S
C743 C744 1.398 1_655 S
C743 H770 0.930 . S
C744 C739 1.382 . S
C744 C743 1.398 1_455 S
C744 H771 0.929 . S
C745 O758 1.271 . S
C745 O759 1.251 . S
C746 O760 1.252 1_655 S
C746 O761 1.272 . S
C747 Sm737 2.846 . S
C747 C748 1.506 . S
C747 O762 1.261 . S
C747 O763 1.242 . S
C748 C747 1.506 . S
C748 C749 1.358 . S
C748 C753 1.382 . S
C749 C748 1.358 . S
C749 C750 1.385 . S
C749 H772 0.930 . S
C750 C749 1.385 . S
C750 C751 1.395 . S
C750 H773 0.929 . S
C751 C750 1.395 . S
C751 C752 1.335 . S
C752 C751 1.335 . S
C752 C753 1.398 . S
C752 H774 0.930 . S
C753 C748 1.382 . S
C753 C752 1.398 . S
C753 H775 0.929 . S
C754 O764 1.271 . S
C754 O765 1.251 . S
C755 O766 1.252 . S
C755 O767 1.272 . S
O756 Sm736 2.543 . S
O756 C738 1.261 . S
O757 Sm736 2.450 . S
O757 C738 1.242 . S
O758 Sm736 2.681 . S
O758 Sm737 2.386 . S
O758 C745 1.271 . S
O759 Sm736 2.464 . S
O759 C745 1.251 . S
O760 Sm736 2.396 . S
O760 C746 1.252 1_455 S
O761 Sm737 2.408 1_655 S
O761 C746 1.272 . S
O762 Sm737 2.543 . S
O762 C747 1.261 . S
O763 Sm737 2.450 . S
O763 C747 1.242 . S
O764 Sm736 2.386 . S
O764 Sm737 2.681 . S
O764 C754 1.271 . S
O765 Sm737 2.464 . S
O765 C754 1.251 . S
O766 Sm737 2.396 . S
O766 C755 1.252 . S
O767 Sm736 2.408 . S
O767 C755 1.272 . S
H768 C740 0.930 . S
H769 C741 0.929 . S
H770 C743 0.930 . S
H771 C744 0.929 . S
H772 C749 0.930 . S
H773 C750 0.929 . S
H774 C752 0.930 . S
H775 C753 0.929 . S
Sm776 C778 2.846 . S
Sm776 O796 2.543 . S
Sm776 O797 2.450 . S
Sm776 O798 2.681 . S
Sm776 O799 2.464 . S
Sm776 O800 2.396 . S
Sm776 O804 2.386 . S
Sm776 O807 2.408 . S
Sm777 C787 2.846 . S
Sm777 O798 2.386 . S
Sm777 O801 2.408 . S
Sm777 O802 2.543 . S
Sm777 O803 2.450 . S
Sm777 O804 2.681 . S
Sm777 O805 2.464 . S
Sm777 O806 2.396 . S
C778 Sm776 2.846 . S
C778 C779 1.506 . S
C778 O796 1.261 . S
C778 O797 1.242 . S
C779 C778 1.506 . S
C779 C780 1.358 . S
C779 C784 1.382 . S
C780 C779 1.358 . S
C780 C781 1.385 . S
C780 H808 0.930 . S
C781 C780 1.385 . S
C781 C782 1.395 . S
C781 H809 0.929 . S
C782 C781 1.395 . S
C782 C783 1.335 . S
C783 C782 1.335 . S
C783 C784 1.398 . S
C783 H810 0.930 . S
C784 C779 1.382 . S
C784 C783 1.398 . S
C784 H811 0.929 . S
C785 O798 1.271 . S
C785 O799 1.251 . S
C786 O800 1.252 . S
C786 O801 1.272 . S
C787 Sm777 2.846 . S
C787 C788 1.506 . S
C787 O802 1.261 . S
C787 O803 1.242 . S
C788 C787 1.506 . S
C788 C789 1.358 . S
C788 C793 1.382 . S
C789 C788 1.358 . S
C789 C790 1.385 . S
C789 H812 0.930 . S
C790 C789 1.385 . S
C790 C791 1.395 . S
C790 H813 0.929 . S
C791 C790 1.395 . S
C791 C792 1.335 . S
C792 C791 1.335 . S
C792 C793 1.398 . S
C792 H814 0.930 . S
C793 C788 1.382 . S
C793 C792 1.398 . S
C793 H815 0.929 . S
C794 O804 1.271 . S
C794 O805 1.251 . S
C795 O806 1.252 . S
C795 O807 1.272 . S
O796 Sm776 2.543 . S
O796 C778 1.261 . S
O797 Sm776 2.450 . S
O797 C778 1.242 . S
O798 Sm776 2.681 . S
O798 Sm777 2.386 . S
O798 C785 1.271 . S
O799 Sm776 2.464 . S
O799 C785 1.251 . S
O800 Sm776 2.396 . S
O800 C786 1.252 . S
O801 Sm777 2.408 . S
O801 C786 1.272 . S
O802 Sm777 2.543 . S
O802 C787 1.261 . S
O803 Sm777 2.450 . S
O803 C787 1.242 . S
O804 Sm776 2.386 . S
O804 Sm777 2.681 . S
O804 C794 1.271 . S
O805 Sm777 2.464 . S
O805 C794 1.251 . S
O806 Sm777 2.396 . S
O806 C795 1.252 . S
O807 Sm776 2.408 . S
O807 C795 1.272 . S
H808 C780 0.930 . S
H809 C781 0.929 . S
H810 C783 0.930 . S
H811 C784 0.929 . S
H812 C789 0.930 . S
H813 C790 0.929 . S
H814 C792 0.930 . S
H815 C793 0.929 . S
Sm816 C818 2.846 . S
Sm816 O836 2.543 . S
Sm816 O837 2.450 . S
Sm816 O838 2.681 . S
Sm816 O839 2.464 . S
Sm816 O840 2.396 . S
Sm816 O844 2.386 . S
Sm816 O847 2.408 . S
Sm817 C827 2.846 . S
Sm817 O838 2.386 . S
Sm817 O841 2.408 . S
Sm817 O842 2.543 . S
Sm817 O843 2.450 . S
Sm817 O844 2.681 . S
Sm817 O845 2.464 . S
Sm817 O846 2.396 . S
C818 Sm816 2.846 . S
C818 C819 1.506 . S
C818 O836 1.261 . S
C818 O837 1.242 . S
C819 C818 1.506 . S
C819 C820 1.358 . S
C819 C824 1.382 . S
C820 C819 1.358 . S
C820 C821 1.385 . S
C820 H848 0.930 . S
C821 C820 1.385 . S
C821 C822 1.395 . S
C821 H849 0.929 . S
C822 C821 1.395 . S
C822 C823 1.335 . S
C823 C822 1.335 . S
C823 C824 1.398 . S
C823 H850 0.930 . S
C824 C819 1.382 . S
C824 C823 1.398 . S
C824 H851 0.929 . S
C825 O838 1.271 . S
C825 O839 1.251 . S
C826 O840 1.252 . S
C826 O841 1.272 . S
C827 Sm817 2.846 . S
C827 C828 1.506 . S
C827 O842 1.261 . S
C827 O843 1.242 . S
C828 C827 1.506 . S
C828 C829 1.358 . S
C828 C833 1.382 . S
C829 C828 1.358 . S
C829 C830 1.385 . S
C829 H852 0.930 . S
C830 C829 1.385 . S
C830 C831 1.395 . S
C830 H853 0.929 . S
C831 C830 1.395 . S
C831 C832 1.335 . S
C832 C831 1.335 . S
C832 C833 1.398 . S
C832 H854 0.930 . S
C833 C828 1.382 . S
C833 C832 1.398 . S
C833 H855 0.929 . S
C834 O844 1.271 . S
C834 O845 1.251 . S
C835 O846 1.252 . S
C835 O847 1.272 . S
O836 Sm816 2.543 . S
O836 C818 1.261 . S
O837 Sm816 2.450 . S
O837 C818 1.242 . S
O838 Sm816 2.681 . S
O838 Sm817 2.386 . S
O838 C825 1.271 . S
O839 Sm816 2.464 . S
O839 C825 1.251 . S
O840 Sm816 2.396 . S
O840 C826 1.252 . S
O841 Sm817 2.408 . S
O841 C826 1.272 . S
O842 Sm817 2.543 . S
O842 C827 1.261 . S
O843 Sm817 2.450 . S
O843 C827 1.242 . S
O844 Sm816 2.386 . S
O844 Sm817 2.681 . S
O844 C834 1.271 . S
O845 Sm817 2.464 . S
O845 C834 1.251 . S
O846 Sm817 2.396 . S
O846 C835 1.252 . S
O847 Sm816 2.408 . S
O847 C835 1.272 . S
H848 C820 0.930 . S
H849 C821 0.929 . S
H850 C823 0.930 . S
H851 C824 0.929 . S
H852 C829 0.930 . S
H853 C830 0.929 . S
H854 C832 0.930 . S
H855 C833 0.929 . S
Sm856 C858 2.846 . S
Sm856 O876 2.543 . S
Sm856 O877 2.450 . S
Sm856 O878 2.681 . S
Sm856 O879 2.464 . S
Sm856 O880 2.396 . S
Sm856 O884 2.386 . S
Sm856 O887 2.408 . S
Sm857 C867 2.846 . S
Sm857 O878 2.386 . S
Sm857 O881 2.408 . S
Sm857 O882 2.543 . S
Sm857 O883 2.450 . S
Sm857 O884 2.681 . S
Sm857 O885 2.464 . S
Sm857 O886 2.396 . S
C858 Sm856 2.846 . S
C858 C859 1.506 . S
C858 O876 1.261 . S
C858 O877 1.242 . S
C859 C858 1.506 . S
C859 C860 1.358 . S
C859 C864 1.382 . S
C860 C859 1.358 . S
C860 C861 1.385 . S
C860 H888 0.930 . S
C861 C860 1.385 . S
C861 C862 1.395 . S
C861 H889 0.929 . S
C862 C861 1.395 . S
C862 C863 1.335 . S
C863 C862 1.335 . S
C863 C864 1.398 . S
C863 H890 0.930 . S
C864 C859 1.382 . S
C864 C863 1.398 . S
C864 H891 0.929 . S
C865 O878 1.271 . S
C865 O879 1.251 . S
C866 O880 1.252 . S
C866 O881 1.272 . S
C867 Sm857 2.846 . S
C867 C868 1.506 . S
C867 O882 1.261 . S
C867 O883 1.242 . S
C868 C867 1.506 . S
C868 C869 1.358 . S
C868 C873 1.382 . S
C869 C868 1.358 . S
C869 C870 1.385 . S
C869 H892 0.930 . S
C870 C869 1.385 . S
C870 C871 1.395 . S
C870 H893 0.929 . S
C871 C870 1.395 . S
C871 C872 1.335 . S
C872 C871 1.335 . S
C872 C873 1.398 . S
C872 H894 0.930 . S
C873 C868 1.382 . S
C873 C872 1.398 . S
C873 H895 0.929 . S
C874 O884 1.271 . S
C874 O885 1.251 . S
C875 O886 1.252 . S
C875 O887 1.272 . S
O876 Sm856 2.543 . S
O876 C858 1.261 . S
O877 Sm856 2.450 . S
O877 C858 1.242 . S
O878 Sm856 2.681 . S
O878 Sm857 2.386 . S
O878 C865 1.271 . S
O879 Sm856 2.464 . S
O879 C865 1.251 . S
O880 Sm856 2.396 . S
O880 C866 1.252 . S
O881 Sm857 2.408 . S
O881 C866 1.272 . S
O882 Sm857 2.543 . S
O882 C867 1.261 . S
O883 Sm857 2.450 . S
O883 C867 1.242 . S
O884 Sm856 2.386 . S
O884 Sm857 2.681 . S
O884 C874 1.271 . S
O885 Sm857 2.464 . S
O885 C874 1.251 . S
O886 Sm857 2.396 . S
O886 C875 1.252 . S
O887 Sm856 2.408 . S
O887 C875 1.272 . S
H888 C860 0.930 . S
H889 C861 0.929 . S
H890 C863 0.930 . S
H891 C864 0.929 . S
H892 C869 0.930 . S
H893 C870 0.929 . S
H894 C872 0.930 . S
H895 C873 0.929 . S
Sm896 C898 2.846 . S
Sm896 O916 2.543 . S
Sm896 O917 2.450 . S
Sm896 O918 2.681 . S
Sm896 O919 2.464 . S
Sm896 O920 2.396 . S
Sm896 O924 2.386 . S
Sm896 O927 2.408 . S
Sm897 C907 2.846 . S
Sm897 O918 2.386 . S
Sm897 O921 2.408 . S
Sm897 O922 2.543 . S
Sm897 O923 2.450 . S
Sm897 O924 2.681 . S
Sm897 O925 2.464 . S
Sm897 O926 2.396 . S
C898 Sm896 2.846 . S
C898 C899 1.506 . S
C898 O916 1.261 . S
C898 O917 1.242 . S
C899 C898 1.506 . S
C899 C900 1.358 . S
C899 C904 1.382 . S
C900 C899 1.358 . S
C900 C901 1.385 . S
C900 H928 0.930 . S
C901 C900 1.385 . S
C901 C902 1.395 . S
C901 H929 0.929 . S
C902 C901 1.395 . S
C902 C903 1.335 . S
C903 C902 1.335 . S
C903 C904 1.398 . S
C903 H930 0.930 . S
C904 C899 1.382 . S
C904 C903 1.398 . S
C904 H931 0.929 . S
C905 O918 1.271 . S
C905 O919 1.251 . S
C906 O920 1.252 . S
C906 O921 1.272 . S
C907 Sm897 2.846 . S
C907 C908 1.506 . S
C907 O922 1.261 . S
C907 O923 1.242 . S
C908 C907 1.506 . S
C908 C909 1.358 . S
C908 C913 1.382 . S
C909 C908 1.358 . S
C909 C910 1.385 . S
C909 H932 0.930 . S
C910 C909 1.385 . S
C910 C911 1.395 . S
C910 H933 0.929 . S
C911 C910 1.395 . S
C911 C912 1.335 . S
C912 C911 1.335 . S
C912 C913 1.398 . S
C912 H934 0.930 . S
C913 C908 1.382 . S
C913 C912 1.398 . S
C913 H935 0.929 . S
C914 O924 1.271 . S
C914 O925 1.251 . S
C915 O926 1.252 . S
C915 O927 1.272 . S
O916 Sm896 2.543 . S
O916 C898 1.261 . S
O917 Sm896 2.450 . S
O917 C898 1.242 . S
O918 Sm896 2.681 . S
O918 Sm897 2.386 . S
O918 C905 1.271 . S
O919 Sm896 2.464 . S
O919 C905 1.251 . S
O920 Sm896 2.396 . S
O920 C906 1.252 . S
O921 Sm897 2.408 . S
O921 C906 1.272 . S
O922 Sm897 2.543 . S
O922 C907 1.261 . S
O923 Sm897 2.450 . S
O923 C907 1.242 . S
O924 Sm896 2.386 . S
O924 Sm897 2.681 . S
O924 C914 1.271 . S
O925 Sm897 2.464 . S
O925 C914 1.251 . S
O926 Sm897 2.396 . S
O926 C915 1.252 . S
O927 Sm896 2.408 . S
O927 C915 1.272 . S
H928 C900 0.930 . S
H929 C901 0.929 . S
H930 C903 0.930 . S
H931 C904 0.929 . S
H932 C909 0.930 . S
H933 C910 0.929 . S
H934 C912 0.930 . S
H935 C913 0.929 . S
Sm936 C938 2.846 1_554 S
Sm936 O956 2.543 . S
Sm936 O957 2.450 1_554 S
Sm936 O958 2.681 1_554 S
Sm936 O959 2.464 1_554 S
Sm936 O960 2.396 1_554 S
Sm936 O964 2.386 . S
Sm936 O967 2.408 . S
Sm937 C947 2.846 1_455 S
Sm937 O958 2.386 1_554 S
Sm937 O961 2.408 . S
Sm937 O962 2.543 1_455 S
Sm937 O963 2.450 1_455 S
Sm937 O964 2.681 . S
Sm937 O965 2.464 . S
Sm937 O966 2.396 . S
C938 Sm936 2.846 1_556 S
C938 C939 1.506 . S
C938 O956 1.261 1_556 S
C938 O957 1.242 . S
C939 C938 1.506 . S
C939 C940 1.358 1_556 S
C939 C944 1.382 . S
C940 C939 1.358 1_554 S
C940 C941 1.385 . S
C940 H968 0.930 . S
C941 C940 1.385 . S
C941 C942 1.395 1_554 S
C941 H969 0.929 . S
C942 C941 1.395 1_556 S
C942 C943 1.335 . S
C943 C942 1.335 . S
C943 C944 1.398 . S
C943 H970 0.930 . S
C944 C939 1.382 . S
C944 C943 1.398 . S
C944 H971 0.929 . S
C945 O958 1.271 . S
C945 O959 1.251 . S
C946 O960 1.252 1_554 S
C946 O961 1.272 . S
C947 Sm937 2.846 1_655 S
C947 C948 1.506 . S
C947 O962 1.261 . S
C947 O963 1.242 . S
C948 C947 1.506 . S
C948 C949 1.358 . S
C948 C953 1.382 . S
C949 C948 1.358 . S
C949 C950 1.385 . S
C949 H972 0.930 . S
C950 C949 1.385 . S
C950 C951 1.395 . S
C950 H973 0.929 . S
C951 C950 1.395 . S
C951 C952 1.335 . S
C952 C951 1.335 . S
C952 C953 1.398 . S
C952 H974 0.930 . S
C953 C948 1.382 . S
C953 C952 1.398 . S
C953 H975 0.929 . S
C954 O964 1.271 . S
C954 O965 1.251 . S
C955 O966 1.252 . S
C955 O967 1.272 . S
O956 Sm936 2.543 . S
O956 C938 1.261 1_554 S
O957 Sm936 2.450 1_556 S
O957 C938 1.242 . S
O958 Sm936 2.681 1_556 S
O958 Sm937 2.386 1_556 S
O958 C945 1.271 . S
O959 Sm936 2.464 1_556 S
O959 C945 1.251 . S
O960 Sm936 2.396 1_556 S
O960 C946 1.252 1_556 S
O961 Sm937 2.408 . S
O961 C946 1.272 . S
O962 Sm937 2.543 1_655 S
O962 C947 1.261 . S
O963 Sm937 2.450 1_655 S
O963 C947 1.242 . S
O964 Sm936 2.386 . S
O964 Sm937 2.681 . S
O964 C954 1.271 . S
O965 Sm937 2.464 . S
O965 C954 1.251 . S
O966 Sm937 2.396 . S
O966 C955 1.252 . S
O967 Sm936 2.408 . S
O967 C955 1.272 . S
H968 C940 0.930 . S
H969 C941 0.929 . S
H970 C943 0.930 . S
H971 C944 0.929 . S
H972 C949 0.930 . S
H973 C950 0.929 . S
H974 C952 0.930 . S
H975 C953 0.929 . S
H976 C984 0.946 . S
H977 C986 0.930 1_655 S
H978 C988 0.930 . S
H979 C991 0.929 . S
H980 C994 0.930 . S
H981 C996 0.960 1_554 S
H982 C996 0.960 . S
H983 C996 0.956 . S
C984 H976 0.946 . S
C984 C985 1.369 1_655 S
C984 C986 1.376 1_655 S
C985 C984 1.369 1_455 S
C985 C991 1.390 . S
C986 H977 0.930 1_455 S
C986 C984 1.376 1_455 S
C986 C987 1.372 . S
C987 C986 1.372 . S
C987 C988 1.400 . S
C987 C992 1.490 . S
C988 H978 0.930 . S
C988 C987 1.400 . S
C988 C991 1.386 . S
H989 C1005 0.930 . S
H990 C1006 0.931 1_554 S
C991 H979 0.929 . S
C991 C985 1.390 . S
C991 C988 1.386 . S
C992 C987 1.490 . S
C992 C994 1.395 . S
C992 C995 1.403 . S
H993 C999 0.930 1_554 S
C994 H980 0.930 . S
C994 C992 1.395 . S
C994 C997 1.403 . S
C995 C992 1.403 . S
C995 C996 1.524 . S
C995 C999 1.400 . S
C996 H981 0.960 1_556 S
C996 H982 0.960 . S
C996 H983 0.956 . S
C996 C995 1.524 . S
C997 C994 1.403 . S
C997 C998 1.392 . S
C997 C1001 1.495 . S
C998 C997 1.392 . S
C998 C999 1.385 . S
C998 C1000 1.478 . S
C999 H993 0.930 1_556 S
C999 C995 1.400 . S
C999 C998 1.385 . S
C1000 C998 1.478 . S
C1000 C1002 1.381 . S
C1000 C1006 1.383 . S
C1001 C997 1.495 . S
C1001 H1007 0.959 . S
C1001 H1008 0.961 . S
C1001 H1009 0.960 . S
C1002 C1000 1.381 . S
C1002 C1003 1.394 . S
C1002 H1010 0.930 . S
C1003 C1002 1.394 . S
C1003 C1004 1.400 . S
C1003 H1011 0.929 . S
C1004 C1003 1.400 . S
C1004 C1005 1.376 1_556 S
C1005 H989 0.930 . S
C1005 C1004 1.376 1_554 S
C1005 C1006 1.379 1_554 S
C1006 H990 0.931 1_556 S
C1006 C1000 1.383 . S
C1006 C1005 1.379 1_556 S
H1007 C1001 0.959 . S
H1008 C1001 0.961 . S
H1009 C1001 0.960 . S
H1010 C1002 0.930 . S
H1011 C1003 0.929 . S
H1012 C1020 0.929 . S
H1013 C1022 0.930 . S
H1014 C1024 0.930 . S
H1015 C1027 0.929 . S
H1016 C1030 0.930 . S
H1017 C1032 0.960 . S
H1018 C1032 0.960 . S
H1019 C1032 0.960 . S
C1020 H1012 0.929 . S
C1020 C1021 1.377 . S
C1020 C1022 1.384 . S
C1021 C1020 1.377 . S
C1021 C1027 1.390 . S
C1022 H1013 0.930 . S
C1022 C1020 1.384 . S
C1022 C1023 1.372 . S
C1023 C1022 1.372 . S
C1023 C1024 1.400 . S
C1023 C1028 1.490 . S
C1024 H1014 0.930 . S
C1024 C1023 1.400 . S
C1024 C1027 1.386 . S
H1025 C1041 0.930 . S
H1026 C1042 0.931 . S
C1027 H1015 0.929 . S
C1027 C1021 1.390 . S
C1027 C1024 1.386 . S
C1028 C1023 1.490 . S
C1028 C1030 1.395 . S
C1028 C1031 1.403 . S
H1029 C1035 0.930 . S
C1030 H1016 0.930 . S
C1030 C1028 1.395 . S
C1030 C1033 1.403 . S
C1031 C1028 1.403 . S
C1031 C1032 1.524 . S
C1031 C1035 1.400 . S
C1032 H1017 0.960 . S
C1032 H1018 0.960 . S
C1032 H1019 0.960 . S
C1032 C1031 1.524 . S
C1033 C1030 1.403 . S
C1033 C1034 1.392 . S
C1033 C1037 1.495 . S
C1034 C1033 1.392 . S
C1034 C1035 1.385 . S
C1034 C1036 1.478 . S
C1035 H1029 0.930 . S
C1035 C1031 1.400 . S
C1035 C1034 1.385 . S
C1036 C1034 1.478 . S
C1036 C1038 1.381 . S
C1036 C1042 1.383 . S
C1037 C1033 1.495 . S
C1037 H1043 0.959 . S
C1037 H1044 0.961 . S
C1037 H1045 0.960 . S
C1038 C1036 1.381 . S
C1038 C1039 1.394 . S
C1038 H1046 0.930 . S
C1039 C1038 1.394 . S
C1039 C1040 1.383 . S
C1039 H1047 0.929 . S
C1040 C1039 1.383 . S
C1040 C1041 1.377 . S
C1041 H1025 0.930 . S
C1041 C1040 1.377 . S
C1041 C1042 1.379 . S
C1042 H1026 0.931 . S
C1042 C1036 1.383 . S
C1042 C1041 1.379 . S
H1043 C1037 0.959 . S
H1044 C1037 0.961 . S
H1045 C1037 0.960 . S
H1046 C1038 0.930 . S
H1047 C1039 0.929 . S
H1048 C1056 0.929 . S
H1049 C1058 0.930 . S
H1050 C1060 0.930 . S
H1051 C1063 0.929 . S
H1052 C1066 0.930 . S
H1053 C1068 0.960 . S
H1054 C1068 0.960 . S
H1055 C1068 0.960 . S
C1056 H1048 0.929 . S
C1056 C1057 1.377 . S
C1056 C1058 1.384 . S
C1057 C1056 1.377 . S
C1057 C1063 1.390 . S
C1058 H1049 0.930 . S
C1058 C1056 1.384 . S
C1058 C1059 1.372 . S
C1059 C1058 1.372 . S
C1059 C1060 1.400 . S
C1059 C1064 1.490 . S
C1060 H1050 0.930 . S
C1060 C1059 1.400 . S
C1060 C1063 1.386 . S
H1061 C1077 0.930 . S
H1062 C1078 0.931 . S
C1063 H1051 0.929 . S
C1063 C1057 1.390 . S
C1063 C1060 1.386 . S
C1064 C1059 1.490 . S
C1064 C1066 1.395 . S
C1064 C1067 1.403 . S
H1065 C1071 0.930 . S
C1066 H1052 0.930 . S
C1066 C1064 1.395 . S
C1066 C1069 1.403 . S
C1067 C1064 1.403 . S
C1067 C1068 1.524 . S
C1067 C1071 1.400 . S
C1068 H1053 0.960 . S
C1068 H1054 0.960 . S
C1068 H1055 0.960 . S
C1068 C1067 1.524 . S
C1069 C1066 1.403 . S
C1069 C1070 1.392 . S
C1069 C1073 1.495 . S
C1070 C1069 1.392 . S
C1070 C1071 1.385 . S
C1070 C1072 1.478 . S
C1071 H1065 0.930 . S
C1071 C1067 1.400 . S
C1071 C1070 1.385 . S
C1072 C1070 1.478 . S
C1072 C1074 1.381 . S
C1072 C1078 1.383 . S
C1073 C1069 1.495 . S
C1073 H1079 0.959 . S
C1073 H1080 0.961 . S
C1073 H1081 0.960 . S
C1074 C1072 1.381 . S
C1074 C1075 1.394 . S
C1074 H1082 0.930 . S
C1075 C1074 1.394 . S
C1075 C1076 1.383 . S
C1075 H1083 0.929 . S
C1076 C1075 1.383 . S
C1076 C1077 1.377 . S
C1077 H1061 0.930 . S
C1077 C1076 1.377 . S
C1077 C1078 1.379 . S
C1078 H1062 0.931 . S
C1078 C1072 1.383 . S
C1078 C1077 1.379 . S
H1079 C1073 0.959 . S
H1080 C1073 0.961 . S
H1081 C1073 0.960 . S
H1082 C1074 0.930 . S
H1083 C1075 0.929 . S
H1084 C1092 0.929 . S
H1085 C1094 0.930 . S
H1086 C1096 0.930 . S
H1087 C1099 0.929 . S
H1088 C1102 0.930 . S
H1089 C1104 0.960 . S
H1090 C1104 0.960 . S
H1091 C1104 0.960 . S
C1092 H1084 0.929 . S
C1092 C1093 1.377 . S
C1092 C1094 1.384 . S
C1093 C1092 1.377 . S
C1093 C1099 1.390 . S
C1094 H1085 0.930 . S
C1094 C1092 1.384 . S
C1094 C1095 1.372 . S
C1095 C1094 1.372 . S
C1095 C1096 1.400 . S
C1095 C1100 1.490 . S
C1096 H1086 0.930 . S
C1096 C1095 1.400 . S
C1096 C1099 1.386 . S
H1097 C1113 0.930 . S
H1098 C1114 0.931 . S
C1099 H1087 0.929 . S
C1099 C1093 1.390 . S
C1099 C1096 1.386 . S
C1100 C1095 1.490 . S
C1100 C1102 1.395 . S
C1100 C1103 1.403 . S
H1101 C1107 0.930 . S
C1102 H1088 0.930 . S
C1102 C1100 1.395 . S
C1102 C1105 1.403 . S
C1103 C1100 1.403 . S
C1103 C1104 1.524 . S
C1103 C1107 1.400 . S
C1104 H1089 0.960 . S
C1104 H1090 0.960 . S
C1104 H1091 0.960 . S
C1104 C1103 1.524 . S
C1105 C1102 1.403 . S
C1105 C1106 1.392 . S
C1105 C1109 1.495 . S
C1106 C1105 1.392 . S
C1106 C1107 1.385 . S
C1106 C1108 1.478 . S
C1107 H1101 0.930 . S
C1107 C1103 1.400 . S
C1107 C1106 1.385 . S
C1108 C1106 1.478 . S
C1108 C1110 1.381 . S
C1108 C1114 1.383 . S
C1109 C1105 1.495 . S
C1109 H1115 0.959 . S
C1109 H1116 0.961 . S
C1109 H1117 0.960 . S
C1110 C1108 1.381 . S
C1110 C1111 1.394 . S
C1110 H1118 0.930 . S
C1111 C1110 1.394 . S
C1111 C1112 1.383 . S
C1111 H1119 0.929 . S
C1112 C1111 1.383 . S
C1112 C1113 1.377 . S
C1113 H1097 0.930 . S
C1113 C1112 1.377 . S
C1113 C1114 1.379 . S
C1114 H1098 0.931 . S
C1114 C1108 1.383 . S
C1114 C1113 1.379 . S
H1115 C1109 0.959 . S
H1116 C1109 0.961 . S
H1117 C1109 0.960 . S
H1118 C1110 0.930 . S
H1119 C1111 0.929 . S
H1120 C1128 0.929 . S
H1121 C1130 0.930 . S
H1122 C1132 0.930 . S
H1123 C1135 0.929 . S
H1124 C1138 0.930 . S
H1125 C1140 0.960 . S
H1126 C1140 0.960 . S
H1127 C1140 0.960 . S
C1128 H1120 0.929 . S
C1128 C1129 1.377 1_655 S
C1128 C1130 1.384 . S
C1129 C1128 1.377 1_455 S
C1129 C1135 1.390 . S
C1130 H1121 0.930 . S
C1130 C1128 1.384 . S
C1130 C1131 1.372 1_655 S
C1131 C1130 1.372 1_455 S
C1131 C1132 1.400 . S
C1131 C1136 1.490 . S
C1132 H1122 0.930 . S
C1132 C1131 1.400 . S
C1132 C1135 1.386 . S
H1133 C1149 0.930 . S
H1134 C1150 0.931 . S
C1135 H1123 0.929 . S
C1135 C1129 1.390 . S
C1135 C1132 1.386 . S
C1136 C1131 1.490 . S
C1136 C1138 1.395 . S
C1136 C1139 1.403 . S
H1137 C1143 0.930 . S
C1138 H1124 0.930 . S
C1138 C1136 1.395 . S
C1138 C1141 1.403 . S
C1139 C1136 1.403 . S
C1139 C1140 1.524 . S
C1139 C1143 1.400 . S
C1140 H1125 0.960 . S
C1140 H1126 0.960 . S
C1140 H1127 0.960 . S
C1140 C1139 1.524 . S
C1141 C1138 1.403 . S
C1141 C1142 1.392 . S
C1141 C1145 1.495 . S
C1142 C1141 1.392 . S
C1142 C1143 1.385 . S
C1142 C1144 1.478 . S
C1143 H1137 0.930 . S
C1143 C1139 1.400 . S
C1143 C1142 1.385 . S
C1144 C1142 1.478 . S
C1144 C1146 1.381 . S
C1144 C1150 1.383 . S
C1145 C1141 1.495 . S
C1145 H1151 0.959 . S
C1145 H1152 0.961 . S
C1145 H1153 0.960 . S
C1146 C1144 1.381 . S
C1146 C1147 1.394 . S
C1146 H1154 0.930 . S
C1147 C1146 1.394 . S
C1147 C1148 1.383 . S
C1147 H1155 0.929 . S
C1148 C1147 1.383 . S
C1148 C1149 1.377 . S
C1149 H1133 0.930 . S
C1149 C1148 1.377 . S
C1149 C1150 1.379 . S
C1150 H1134 0.931 . S
C1150 C1144 1.383 . S
C1150 C1149 1.379 . S
H1151 C1145 0.959 . S
H1152 C1145 0.961 . S
H1153 C1145 0.960 . S
H1154 C1146 0.930 . S
H1155 C1147 0.929 . S
H1156 C1164 0.929 . S
H1157 C1166 0.930 . S
H1158 C1168 0.930 . S
H1159 C1171 0.929 . S
H1160 C1174 0.930 . S
H1161 C1176 0.960 . S
H1162 C1176 0.960 . S
H1163 C1176 0.960 . S
C1164 H1156 0.929 . S
C1164 C1165 1.377 . S
C1164 C1166 1.384 . S
C1165 C1164 1.377 . S
C1165 C1171 1.390 . S
C1166 H1157 0.930 . S
C1166 C1164 1.384 . S
C1166 C1167 1.372 . S
C1167 C1166 1.372 . S
C1167 C1168 1.400 . S
C1167 C1172 1.490 . S
C1168 H1158 0.930 . S
C1168 C1167 1.400 . S
C1168 C1171 1.386 . S
H1169 C1185 0.930 . S
H1170 C1186 0.931 . S
C1171 H1159 0.929 . S
C1171 C1165 1.390 . S
C1171 C1168 1.386 . S
C1172 C1167 1.490 . S
C1172 C1174 1.395 . S
C1172 C1175 1.403 . S
H1173 C1179 0.930 . S
C1174 H1160 0.930 . S
C1174 C1172 1.395 . S
C1174 C1177 1.403 . S
C1175 C1172 1.403 . S
C1175 C1176 1.524 . S
C1175 C1179 1.400 . S
C1176 H1161 0.960 . S
C1176 H1162 0.960 . S
C1176 H1163 0.960 . S
C1176 C1175 1.524 . S
C1177 C1174 1.403 . S
C1177 C1178 1.392 . S
C1177 C1181 1.495 . S
C1178 C1177 1.392 . S
C1178 C1179 1.385 . S
C1178 C1180 1.478 . S
C1179 H1173 0.930 . S
C1179 C1175 1.400 . S
C1179 C1178 1.385 . S
C1180 C1178 1.478 . S
C1180 C1182 1.381 . S
C1180 C1186 1.383 . S
C1181 C1177 1.495 . S
C1181 H1187 0.959 . S
C1181 H1188 0.961 . S
C1181 H1189 0.960 . S
C1182 C1180 1.381 . S
C1182 C1183 1.394 . S
C1182 H1190 0.930 . S
C1183 C1182 1.394 . S
C1183 C1184 1.383 . S
C1183 H1191 0.929 . S
C1184 C1183 1.383 . S
C1184 C1185 1.377 . S
C1185 H1169 0.930 . S
C1185 C1184 1.377 . S
C1185 C1186 1.379 . S
C1186 H1170 0.931 . S
C1186 C1180 1.383 . S
C1186 C1185 1.379 . S
H1187 C1181 0.959 . S
H1188 C1181 0.961 . S
H1189 C1181 0.960 . S
H1190 C1182 0.930 . S
H1191 C1183 0.929 . S
H1192 C1200 0.929 . S
H1193 C1202 0.930 . S
H1194 C1204 0.930 . S
H1195 C1207 0.929 . S
H1196 C1210 0.930 . S
H1197 C1212 0.960 . S
H1198 C1212 0.960 . S
H1199 C1212 0.960 . S
C1200 H1192 0.929 . S
C1200 C1201 1.377 . S
C1200 C1202 1.384 . S
C1201 C1200 1.377 . S
C1201 C1207 1.390 . S
C1202 H1193 0.930 . S
C1202 C1200 1.384 . S
C1202 C1203 1.372 . S
C1203 C1202 1.372 . S
C1203 C1204 1.400 . S
C1203 C1208 1.490 . S
C1204 H1194 0.930 . S
C1204 C1203 1.400 . S
C1204 C1207 1.386 . S
H1205 C1221 0.930 . S
H1206 C1222 0.931 . S
C1207 H1195 0.929 . S
C1207 C1201 1.390 . S
C1207 C1204 1.386 . S
C1208 C1203 1.490 . S
C1208 C1210 1.395 . S
C1208 C1211 1.403 . S
H1209 C1215 0.930 . S
C1210 H1196 0.930 . S
C1210 C1208 1.395 . S
C1210 C1213 1.403 . S
C1211 C1208 1.403 . S
C1211 C1212 1.524 . S
C1211 C1215 1.400 . S
C1212 H1197 0.960 . S
C1212 H1198 0.960 . S
C1212 H1199 0.960 . S
C1212 C1211 1.524 . S
C1213 C1210 1.403 . S
C1213 C1214 1.392 . S
C1213 C1217 1.495 . S
C1214 C1213 1.392 . S
C1214 C1215 1.385 . S
C1214 C1216 1.478 . S
C1215 H1209 0.930 . S
C1215 C1211 1.400 . S
C1215 C1214 1.385 . S
C1216 C1214 1.478 . S
C1216 C1218 1.381 . S
C1216 C1222 1.383 . S
C1217 C1213 1.495 . S
C1217 H1223 0.959 . S
C1217 H1224 0.961 . S
C1217 H1225 0.960 . S
C1218 C1216 1.381 . S
C1218 C1219 1.394 . S
C1218 H1226 0.930 . S
C1219 C1218 1.394 . S
C1219 C1220 1.383 . S
C1219 H1227 0.929 . S
C1220 C1219 1.383 . S
C1220 C1221 1.377 . S
C1221 H1205 0.930 . S
C1221 C1220 1.377 . S
C1221 C1222 1.379 . S
C1222 H1206 0.931 . S
C1222 C1216 1.383 . S
C1222 C1221 1.379 . S
H1223 C1217 0.959 . S
H1224 C1217 0.961 . S
H1225 C1217 0.960 . S
H1226 C1218 0.930 . S
H1227 C1219 0.929 . S
H1228 C1236 0.929 . S
H1229 C1238 0.930 . S
H1230 C1240 0.930 . S
H1231 C1243 0.929 . S
H1232 C1246 0.930 . S
H1233 C1248 0.960 . S
H1234 C1248 0.960 . S
H1235 C1248 0.960 . S
C1236 H1228 0.929 . S
C1236 C1237 1.377 . S
C1236 C1238 1.384 . S
C1237 C1236 1.377 . S
C1237 C1243 1.390 . S
C1238 H1229 0.930 . S
C1238 C1236 1.384 . S
C1238 C1239 1.372 . S
C1239 C1238 1.372 . S
C1239 C1240 1.400 . S
C1239 C1244 1.490 . S
C1240 H1230 0.930 . S
C1240 C1239 1.400 . S
C1240 C1243 1.386 . S
H1241 C1257 0.930 . S
H1242 C1258 0.931 . S
C1243 H1231 0.929 . S
C1243 C1237 1.390 . S
C1243 C1240 1.386 . S
C1244 C1239 1.490 . S
C1244 C1246 1.395 . S
C1244 C1247 1.403 . S
H1245 C1251 0.930 . S
C1246 H1232 0.930 . S
C1246 C1244 1.395 . S
C1246 C1249 1.403 . S
C1247 C1244 1.403 . S
C1247 C1248 1.524 . S
C1247 C1251 1.400 . S
C1248 H1233 0.960 . S
C1248 H1234 0.960 . S
C1248 H1235 0.960 . S
C1248 C1247 1.524 . S
C1249 C1246 1.403 . S
C1249 C1250 1.392 . S
C1249 C1253 1.495 . S
C1250 C1249 1.392 . S
C1250 C1251 1.385 . S
C1250 C1252 1.478 . S
C1251 H1245 0.930 . S
C1251 C1247 1.400 . S
C1251 C1250 1.385 . S
C1252 C1250 1.478 . S
C1252 C1254 1.381 . S
C1252 C1258 1.383 . S
C1253 C1249 1.495 . S
C1253 H1259 0.959 . S
C1253 H1260 0.961 . S
C1253 H1261 0.960 . S
C1254 C1252 1.381 . S
C1254 C1255 1.394 . S
C1254 H1262 0.930 . S
C1255 C1254 1.394 . S
C1255 C1256 1.383 . S
C1255 H1263 0.929 . S
C1256 C1255 1.383 . S
C1256 C1257 1.377 . S
C1257 H1241 0.930 . S
C1257 C1256 1.377 . S
C1257 C1258 1.379 . S
C1258 H1242 0.931 . S
C1258 C1252 1.383 . S
C1258 C1257 1.379 . S
H1259 C1253 0.959 . S
H1260 C1253 0.961 . S
H1261 C1253 0.960 . S
H1262 C1254 0.930 . S
H1263 C1255 0.929 . S
H1264 C1272 0.929 . S
H1265 C1274 0.930 . S
H1266 C1276 0.930 . S
H1267 C1279 0.929 . S
H1268 C1282 0.930 . S
H1269 C1284 0.960 . S
H1270 C1284 0.960 . S
H1271 C1284 0.960 . S
C1272 H1264 0.929 . S
C1272 C1273 1.377 . S
C1272 C1274 1.384 . S
C1273 C1272 1.377 . S
C1273 C1279 1.390 . S
C1274 H1265 0.930 . S
C1274 C1272 1.384 . S
C1274 C1275 1.372 . S
C1275 C1274 1.372 . S
C1275 C1276 1.400 . S
C1275 C1280 1.490 . S
C1276 H1266 0.930 . S
C1276 C1275 1.400 . S
C1276 C1279 1.386 . S
H1277 C1293 0.930 . S
H1278 C1294 0.931 1_655 S
C1279 H1267 0.929 . S
C1279 C1273 1.390 . S
C1279 C1276 1.386 . S
C1280 C1275 1.490 . S
C1280 C1282 1.395 1_655 S
C1280 C1283 1.403 . S
H1281 C1287 0.930 . S
C1282 H1268 0.930 . S
C1282 C1280 1.395 1_455 S
C1282 C1285 1.403 . S
C1283 C1280 1.403 . S
C1283 C1284 1.524 . S
C1283 C1287 1.400 . S
C1284 H1269 0.960 . S
C1284 H1270 0.960 . S
C1284 H1271 0.960 . S
C1284 C1283 1.524 . S
C1285 C1282 1.403 . S
C1285 C1286 1.392 . S
C1285 C1289 1.495 . S
C1286 C1285 1.392 . S
C1286 C1287 1.385 1_455 S
C1286 C1288 1.478 . S
C1287 H1281 0.930 . S
C1287 C1283 1.400 . S
C1287 C1286 1.385 1_655 S
C1288 C1286 1.478 . S
C1288 C1290 1.381 . S
C1288 C1294 1.383 . S
C1289 C1285 1.495 . S
C1289 H1295 0.959 . S
C1289 H1296 0.961 . S
C1289 H1297 0.960 . S
C1290 C1288 1.381 . S
C1290 C1291 1.394 . S
C1290 H1298 0.930 . S
C1291 C1290 1.394 . S
C1291 C1292 1.383 . S
C1291 H1299 0.929 . S
C1292 C1291 1.383 . S
C1292 C1293 1.377 . S
C1293 H1277 0.930 . S
C1293 C1292 1.377 . S
C1293 C1294 1.379 . S
C1294 H1278 0.931 1_455 S
C1294 C1288 1.383 . S
C1294 C1293 1.379 . S
H1295 C1289 0.959 . S
H1296 C1289 0.961 . S
H1297 C1289 0.960 . S
H1298 C1290 0.930 . S
H1299 C1291 0.929 . S
H1300 C1308 0.929 . S
H1301 C1310 0.930 . S
H1302 C1312 0.930 . S
H1303 C1315 0.929 . S
H1304 C1318 0.930 . S
H1305 C1320 0.960 . S
H1306 C1320 0.960 . S
H1307 C1320 0.960 . S
C1308 H1300 0.929 . S
C1308 C1309 1.377 . S
C1308 C1310 1.384 . S
C1309 C1308 1.377 . S
C1309 C1315 1.390 . S
C1310 H1301 0.930 . S
C1310 C1308 1.384 . S
C1310 C1311 1.372 . S
C1311 C1310 1.372 . S
C1311 C1312 1.400 . S
C1311 C1316 1.490 . S
C1312 H1302 0.930 . S
C1312 C1311 1.400 . S
C1312 C1315 1.386 . S
H1313 C1329 0.930 . S
H1314 C1330 0.931 . S
C1315 H1303 0.929 . S
C1315 C1309 1.390 . S
C1315 C1312 1.386 . S
C1316 C1311 1.490 . S
C1316 C1318 1.395 . S
C1316 C1319 1.403 . S
H1317 C1323 0.930 . S
C1318 H1304 0.930 . S
C1318 C1316 1.395 . S
C1318 C1321 1.403 . S
C1319 C1316 1.403 . S
C1319 C1320 1.524 . S
C1319 C1323 1.400 . S
C1320 H1305 0.960 . S
C1320 H1306 0.960 . S
C1320 H1307 0.960 . S
C1320 C1319 1.524 . S
C1321 C1318 1.403 . S
C1321 C1322 1.392 . S
C1321 C1325 1.495 . S
C1322 C1321 1.392 . S
C1322 C1323 1.385 . S
C1322 C1324 1.478 . S
C1323 H1317 0.930 . S
C1323 C1319 1.400 . S
C1323 C1322 1.385 . S
C1324 C1322 1.478 . S
C1324 C1326 1.381 . S
C1324 C1330 1.383 . S
C1325 C1321 1.495 . S
C1325 H1331 0.959 . S
C1325 H1332 0.961 . S
C1325 H1333 0.960 . S
C1326 C1324 1.381 . S
C1326 C1327 1.394 . S
C1326 H1334 0.930 . S
C1327 C1326 1.394 . S
C1327 C1328 1.383 . S
C1327 H1335 0.929 . S
C1328 C1327 1.383 . S
C1328 C1329 1.377 . S
C1329 H1313 0.930 . S
C1329 C1328 1.377 . S
C1329 C1330 1.379 . S
C1330 H1314 0.931 . S
C1330 C1324 1.383 . S
C1330 C1329 1.379 . S
H1331 C1325 0.959 . S
H1332 C1325 0.961 . S
H1333 C1325 0.960 . S
H1334 C1326 0.930 . S
H1335 C1327 0.929 . S
H1336 C1344 0.929 . S
H1337 C1346 0.930 . S
H1338 C1348 0.930 . S
H1339 C1351 0.929 . S
H1340 C1354 0.930 . S
H1341 C1356 0.960 . S
H1342 C1356 0.960 . S
H1343 C1356 0.960 . S
C1344 H1336 0.929 . S
C1344 C1345 1.377 . S
C1344 C1346 1.384 . S
C1345 C1344 1.377 . S
C1345 C1351 1.390 . S
C1346 H1337 0.930 . S
C1346 C1344 1.384 . S
C1346 C1347 1.372 . S
C1347 C1346 1.372 . S
C1347 C1348 1.400 . S
C1347 C1352 1.490 . S
C1348 H1338 0.930 . S
C1348 C1347 1.400 . S
C1348 C1351 1.386 . S
H1349 C1365 0.930 . S
H1350 C1366 0.931 . S
C1351 H1339 0.929 . S
C1351 C1345 1.390 . S
C1351 C1348 1.386 . S
C1352 C1347 1.490 . S
C1352 C1354 1.395 . S
C1352 C1355 1.403 . S
H1353 C1359 0.930 . S
C1354 H1340 0.930 . S
C1354 C1352 1.395 . S
C1354 C1357 1.403 . S
C1355 C1352 1.403 . S
C1355 C1356 1.524 . S
C1355 C1359 1.400 . S
C1356 H1341 0.960 . S
C1356 H1342 0.960 . S
C1356 H1343 0.960 . S
C1356 C1355 1.524 . S
C1357 C1354 1.403 . S
C1357 C1358 1.392 . S
C1357 C1361 1.495 1_545 S
C1358 C1357 1.392 . S
C1358 C1359 1.385 . S
C1358 C1360 1.478 . S
C1359 H1353 0.930 . S
C1359 C1355 1.400 . S
C1359 C1358 1.385 . S
C1360 C1358 1.478 . S
C1360 C1362 1.381 . S
C1360 C1366 1.383 . S
C1361 C1357 1.495 1_565 S
C1361 H1367 0.959 . S
C1361 H1368 0.961 . S
C1361 H1369 0.960 . S
C1362 C1360 1.381 . S
C1362 C1363 1.394 . S
C1362 H1370 0.930 . S
C1363 C1362 1.394 . S
C1363 C1364 1.383 . S
C1363 H1371 0.929 . S
C1364 C1363 1.383 . S
C1364 C1365 1.377 . S
C1365 H1349 0.930 . S
C1365 C1364 1.377 . S
C1365 C1366 1.379 . S
C1366 H1350 0.931 . S
C1366 C1360 1.383 . S
C1366 C1365 1.379 . S
H1367 C1361 0.959 . S
H1368 C1361 0.961 . S
H1369 C1361 0.960 . S
H1370 C1362 0.930 . S
H1371 C1363 0.929 . S
H1372 C1380 0.929 . S
H1373 C1382 0.930 . S
H1374 C1384 0.930 . S
H1375 C1387 0.929 . S
H1376 C1390 0.930 . S
H1377 C1392 0.960 . S
H1378 C1392 0.960 . S
H1379 C1392 0.960 . S
C1380 H1372 0.929 . S
C1380 C1381 1.377 . S
C1380 C1382 1.384 . S
C1381 C1380 1.377 . S
C1381 C1387 1.390 . S
C1382 H1373 0.930 . S
C1382 C1380 1.384 . S
C1382 C1383 1.372 . S
C1383 C1382 1.372 . S
C1383 C1384 1.400 . S
C1383 C1388 1.490 . S
C1384 H1374 0.930 . S
C1384 C1383 1.400 . S
C1384 C1387 1.386 . S
H1385 C1401 0.930 . S
H1386 C1402 0.931 . S
C1387 H1375 0.929 . S
C1387 C1381 1.390 . S
C1387 C1384 1.386 . S
C1388 C1383 1.490 . S
C1388 C1390 1.395 . S
C1388 C1391 1.403 . S
H1389 C1395 0.930 . S
C1390 H1376 0.930 . S
C1390 C1388 1.395 . S
C1390 C1393 1.403 . S
C1391 C1388 1.403 . S
C1391 C1392 1.524 . S
C1391 C1395 1.400 . S
C1392 H1377 0.960 . S
C1392 H1378 0.960 . S
C1392 H1379 0.960 . S
C1392 C1391 1.524 . S
C1393 C1390 1.403 . S
C1393 C1394 1.392 . S
C1393 C1397 1.495 . S
C1394 C1393 1.392 . S
C1394 C1395 1.385 . S
C1394 C1396 1.478 . S
C1395 H1389 0.930 . S
C1395 C1391 1.400 . S
C1395 C1394 1.385 . S
C1396 C1394 1.478 . S
C1396 C1398 1.381 . S
C1396 C1402 1.383 . S
C1397 C1393 1.495 . S
C1397 H1403 0.959 . S
C1397 H1404 0.961 . S
C1397 H1405 0.960 . S
C1398 C1396 1.381 . S
C1398 C1399 1.394 . S
C1398 H1406 0.930 . S
C1399 C1398 1.394 . S
C1399 C1400 1.383 . S
C1399 H1407 0.929 . S
C1400 C1399 1.383 . S
C1400 C1401 1.377 . S
C1401 H1385 0.930 . S
C1401 C1400 1.377 . S
C1401 C1402 1.379 . S
C1402 H1386 0.931 . S
C1402 C1396 1.383 . S
C1402 C1401 1.379 . S
H1403 C1397 0.959 . S
H1404 C1397 0.961 . S
H1405 C1397 0.960 . S
H1406 C1398 0.930 . S
H1407 C1399 0.929 . S
H1408 C1416 0.929 . S
H1409 C1418 0.930 . S
H1410 C1420 0.930 . S
H1411 C1423 0.929 . S
H1412 C1426 0.930 . S
H1413 C1428 0.960 . S
H1414 C1428 0.960 . S
H1415 C1428 0.960 . S
C1416 H1408 0.929 . S
C1416 C1417 1.377 . S
C1416 C1418 1.384 . S
C1417 C1416 1.377 . S
C1417 C1423 1.390 . S
C1418 H1409 0.930 . S
C1418 C1416 1.384 . S
C1418 C1419 1.372 . S
C1419 C1418 1.372 . S
C1419 C1420 1.400 . S
C1419 C1424 1.490 . S
C1420 H1410 0.930 . S
C1420 C1419 1.400 . S
C1420 C1423 1.386 . S
H1421 C1437 0.930 . S
H1422 C1438 0.931 . S
C1423 H1411 0.929 . S
C1423 C1417 1.390 . S
C1423 C1420 1.386 . S
C1424 C1419 1.490 . S
C1424 C1426 1.395 1_655 S
C1424 C1427 1.403 . S
H1425 C1431 0.930 . S
C1426 H1412 0.930 . S
C1426 C1424 1.395 1_455 S
C1426 C1429 1.403 . S
C1427 C1424 1.403 . S
C1427 C1428 1.524 . S
C1427 C1431 1.400 . S
C1428 H1413 0.960 . S
C1428 H1414 0.960 . S
C1428 H1415 0.960 . S
C1428 C1427 1.524 . S
C1429 C1426 1.403 . S
C1429 C1430 1.392 . S
C1429 C1433 1.495 . S
C1430 C1429 1.392 . S
C1430 C1431 1.385 1_455 S
C1430 C1432 1.478 . S
C1431 H1425 0.930 . S
C1431 C1427 1.400 . S
C1431 C1430 1.385 1_655 S
C1432 C1430 1.478 . S
C1432 C1434 1.381 . S
C1432 C1438 1.383 . S
C1433 C1429 1.495 . S
C1433 H1439 0.959 . S
C1433 H1440 0.961 . S
C1433 H1441 0.960 . S
C1434 C1432 1.381 . S
C1434 C1435 1.394 . S
C1434 H1442 0.930 . S
C1435 C1434 1.394 . S
C1435 C1436 1.383 . S
C1435 H1443 0.929 . S
C1436 C1435 1.383 . S
C1436 C1437 1.377 . S
C1437 H1421 0.930 . S
C1437 C1436 1.377 . S
C1437 C1438 1.379 . S
C1438 H1422 0.931 . S
C1438 C1432 1.383 . S
C1438 C1437 1.379 . S
H1439 C1433 0.959 . S
H1440 C1433 0.961 . S
H1441 C1433 0.960 . S
H1442 C1434 0.930 . S
H1443 C1435 0.929 . S
H1444 C1452 0.929 . S
H1445 C1454 0.930 . S
H1446 C1456 0.930 . S
H1447 C1459 0.929 . S
H1448 C1462 0.930 . S
H1449 C1464 0.960 . S
H1450 C1464 0.960 . S
H1451 C1464 0.960 . S
C1452 H1444 0.929 . S
C1452 C1453 1.377 . S
C1452 C1454 1.384 . S
C1453 C1452 1.377 . S
C1453 C1459 1.390 . S
C1454 H1445 0.930 . S
C1454 C1452 1.384 . S
C1454 C1455 1.372 . S
C1455 C1454 1.372 . S
C1455 C1456 1.400 . S
C1455 C1460 1.490 . S
C1456 H1446 0.930 . S
C1456 C1455 1.400 . S
C1456 C1459 1.386 . S
H1457 C1473 0.930 . S
H1458 C1474 0.931 . S
C1459 H1447 0.929 . S
C1459 C1453 1.390 . S
C1459 C1456 1.386 . S
C1460 C1455 1.490 . S
C1460 C1462 1.395 . S
C1460 C1463 1.403 . S
H1461 C1467 0.930 . S
C1462 H1448 0.930 . S
C1462 C1460 1.395 . S
C1462 C1465 1.403 . S
C1463 C1460 1.403 . S
C1463 C1464 1.524 . S
C1463 C1467 1.400 . S
C1464 H1449 0.960 . S
C1464 H1450 0.960 . S
C1464 H1451 0.960 . S
C1464 C1463 1.524 . S
C1465 C1462 1.403 . S
C1465 C1466 1.392 . S
C1465 C1469 1.495 . S
C1466 C1465 1.392 . S
C1466 C1467 1.385 . S
C1466 C1468 1.478 . S
C1467 H1461 0.930 . S
C1467 C1463 1.400 . S
C1467 C1466 1.385 . S
C1468 C1466 1.478 . S
C1468 C1470 1.381 . S
C1468 C1474 1.383 . S
C1469 C1465 1.495 . S
C1469 H1475 0.959 . S
C1469 H1476 0.961 . S
C1469 H1477 0.960 . S
C1470 C1468 1.381 . S
C1470 C1471 1.394 . S
C1470 H1478 0.930 . S
C1471 C1470 1.394 . S
C1471 C1472 1.383 . S
C1471 H1479 0.929 . S
C1472 C1471 1.383 . S
C1472 C1473 1.377 . S
C1473 H1457 0.930 . S
C1473 C1472 1.377 . S
C1473 C1474 1.379 . S
C1474 H1458 0.931 . S
C1474 C1468 1.383 . S
C1474 C1473 1.379 . S
H1475 C1469 0.959 . S
H1476 C1469 0.961 . S
H1477 C1469 0.960 . S
H1478 C1470 0.930 . S
H1479 C1471 0.929 . S
H1480 C1488 0.929 . S
H1481 C1490 0.930 . S
H1482 C1492 0.930 . S
H1483 C1495 0.929 . S
H1484 C1498 0.930 . S
H1485 C1500 0.960 . S
H1486 C1500 0.960 . S
H1487 C1500 0.960 . S
C1488 H1480 0.929 . S
C1488 C1489 1.377 . S
C1488 C1490 1.384 . S
C1489 C1488 1.377 . S
C1489 C1495 1.390 . S
C1490 H1481 0.930 . S
C1490 C1488 1.384 . S
C1490 C1491 1.372 . S
C1491 C1490 1.372 . S
C1491 C1492 1.400 . S
C1491 C1496 1.490 . S
C1492 H1482 0.930 . S
C1492 C1491 1.400 . S
C1492 C1495 1.386 . S
H1493 C1509 0.930 . S
H1494 C1510 0.931 . S
C1495 H1483 0.929 . S
C1495 C1489 1.390 . S
C1495 C1492 1.386 . S
C1496 C1491 1.490 . S
C1496 C1498 1.395 . S
C1496 C1499 1.403 . S
H1497 C1503 0.930 . S
C1498 H1484 0.930 . S
C1498 C1496 1.395 . S
C1498 C1501 1.403 . S
C1499 C1496 1.403 . S
C1499 C1500 1.524 . S
C1499 C1503 1.400 . S
C1500 H1485 0.960 . S
C1500 H1486 0.960 . S
C1500 H1487 0.960 . S
C1500 C1499 1.524 . S
C1501 C1498 1.403 . S
C1501 C1502 1.392 . S
C1501 C1505 1.495 . S
C1502 C1501 1.392 . S
C1502 C1503 1.385 . S
C1502 C1504 1.478 . S
C1503 H1497 0.930 . S
C1503 C1499 1.400 . S
C1503 C1502 1.385 . S
C1504 C1502 1.478 . S
C1504 C1506 1.381 . S
C1504 C1510 1.383 . S
C1505 C1501 1.495 . S
C1505 H1511 0.959 . S
C1505 H1512 0.961 . S
C1505 H1513 0.960 . S
C1506 C1504 1.381 . S
C1506 C1507 1.394 . S
C1506 H1514 0.930 . S
C1507 C1506 1.394 . S
C1507 C1508 1.383 . S
C1507 H1515 0.929 . S
C1508 C1507 1.383 . S
C1508 C1509 1.377 . S
C1509 H1493 0.930 . S
C1509 C1508 1.377 . S
C1509 C1510 1.379 . S
C1510 H1494 0.931 . S
C1510 C1504 1.383 . S
C1510 C1509 1.379 . S
H1511 C1505 0.959 . S
H1512 C1505 0.961 . S
H1513 C1505 0.960 . S
H1514 C1506 0.930 . S
H1515 C1507 0.929 . S
H1516 C1524 0.929 . S
H1517 C1526 0.930 . S
H1518 C1528 0.930 . S
H1519 C1531 0.929 . S
H1520 C1534 0.930 . S
H1521 C1536 0.960 . S
H1522 C1536 0.960 . S
H1523 C1536 0.960 . S
C1524 H1516 0.929 . S
C1524 C1525 1.377 . S
C1524 C1526 1.384 . S
C1525 C1524 1.377 . S
C1525 C1531 1.390 . S
C1526 H1517 0.930 . S
C1526 C1524 1.384 . S
C1526 C1527 1.372 . S
C1527 C1526 1.372 . S
C1527 C1528 1.400 . S
C1527 C1532 1.490 . S
C1528 H1518 0.930 . S
C1528 C1527 1.400 . S
C1528 C1531 1.386 . S
H1529 C1545 0.930 . S
H1530 C1546 0.931 . S
C1531 H1519 0.929 . S
C1531 C1525 1.390 . S
C1531 C1528 1.386 . S
C1532 C1527 1.490 . S
C1532 C1534 1.395 . S
C1532 C1535 1.403 . S
H1533 C1539 0.930 . S
C1534 H1520 0.930 . S
C1534 C1532 1.395 . S
C1534 C1537 1.403 . S
C1535 C1532 1.403 . S
C1535 C1536 1.524 . S
C1535 C1539 1.400 . S
C1536 H1521 0.960 . S
C1536 H1522 0.960 . S
C1536 H1523 0.960 . S
C1536 C1535 1.524 . S
C1537 C1534 1.403 . S
C1537 C1538 1.392 . S
C1537 C1541 1.495 . S
C1538 C1537 1.392 . S
C1538 C1539 1.385 . S
C1538 C1540 1.478 . S
C1539 H1533 0.930 . S
C1539 C1535 1.400 . S
C1539 C1538 1.385 . S
C1540 C1538 1.478 . S
C1540 C1542 1.381 . S
C1540 C1546 1.383 . S
C1541 C1537 1.495 . S
C1541 H1547 0.959 . S
C1541 H1548 0.961 . S
C1541 H1549 0.960 . S
C1542 C1540 1.381 . S
C1542 C1543 1.394 . S
C1542 H1550 0.930 . S
C1543 C1542 1.394 . S
C1543 C1544 1.383 . S
C1543 H1551 0.929 . S
C1544 C1543 1.383 . S
C1544 C1545 1.377 . S
C1545 H1529 0.930 . S
C1545 C1544 1.377 . S
C1545 C1546 1.379 . S
C1546 H1530 0.931 . S
C1546 C1540 1.383 . S
C1546 C1545 1.379 . S
H1547 C1541 0.959 . S
H1548 C1541 0.961 . S
H1549 C1541 0.960 . S
H1550 C1542 0.930 . S
H1551 C1543 0.929 . S
H1552 C1560 0.929 . S
H1553 C1562 0.930 . S
H1554 C1564 0.930 1_556 S
H1555 C1567 0.929 1_556 S
H1556 C1570 0.930 . S
H1557 C1572 0.953 1_556 S
H1558 C1572 0.960 . S
H1559 C1572 0.960 1_556 S
C1560 H1552 0.929 . S
C1560 C1561 1.377 . S
C1560 C1562 1.384 . S
C1561 C1560 1.377 . S
C1561 C1567 1.390 . S
C1562 H1553 0.930 . S
C1562 C1560 1.384 . S
C1562 C1563 1.372 . S
C1563 C1562 1.372 . S
C1563 C1564 1.400 . S
C1563 C1568 1.490 . S
C1564 H1554 0.930 1_554 S
C1564 C1563 1.400 . S
C1564 C1567 1.386 . S
H1565 C1581 0.930 . S
H1566 C1582 0.931 . S
C1567 H1555 0.929 1_554 S
C1567 C1561 1.390 . S
C1567 C1564 1.386 . S
C1568 C1563 1.490 . S
C1568 C1570 1.395 . S
C1568 C1571 1.403 . S
H1569 C1575 0.930 . S
C1570 H1556 0.930 . S
C1570 C1568 1.395 . S
C1570 C1573 1.403 . S
C1571 C1568 1.403 . S
C1571 C1572 1.524 . S
C1571 C1575 1.400 . S
C1572 H1557 0.953 1_554 S
C1572 H1558 0.960 . S
C1572 H1559 0.960 1_554 S
C1572 C1571 1.524 . S
C1573 C1570 1.403 . S
C1573 C1574 1.392 . S
C1573 C1577 1.495 1_565 S
C1574 C1573 1.392 . S
C1574 C1575 1.385 . S
C1574 C1576 1.478 . S
C1575 H1569 0.930 . S
C1575 C1571 1.400 . S
C1575 C1574 1.385 . S
C1576 C1574 1.478 . S
C1576 C1578 1.381 . S
C1576 C1582 1.383 . S
C1577 C1573 1.495 1_545 S
C1577 H1583 0.959 . S
C1577 H1584 0.961 . S
C1577 H1585 0.960 . S
C1578 C1576 1.381 . S
C1578 C1579 1.394 . S
C1578 H1586 0.930 . S
C1579 C1578 1.394 . S
C1579 C1580 1.383 1_565 S
C1579 H1587 0.929 . S
C1580 C1579 1.383 1_545 S
C1580 C1581 1.377 . S
C1581 H1565 0.930 . S
C1581 C1580 1.377 . S
C1581 C1582 1.379 1_545 S
C1582 H1566 0.931 . S
C1582 C1576 1.383 . S
C1582 C1581 1.379 1_565 S
H1583 C1577 0.959 . S
H1584 C1577 0.961 . S
H1585 C1577 0.960 . S
H1586 C1578 0.930 . S
H1587 C1579 0.929 . S
H1588 C1596 0.929 . S
H1589 C1598 0.930 . S
H1590 C1600 0.930 . S
H1591 C1603 0.929 . S
H1592 C1606 0.930 . S
H1593 C1608 0.960 . S
H1594 C1608 0.960 . S
H1595 C1608 0.960 . S
C1596 H1588 0.929 . S
C1596 C1597 1.371 . S
C1596 C1598 1.384 . S
C1597 C1596 1.371 . S
C1597 C1603 1.395 1_554 S
C1598 H1589 0.930 . S
C1598 C1596 1.384 . S
C1598 C1599 1.372 . S
C1599 C1598 1.372 . S
C1599 C1600 1.400 1_554 S
C1599 C1604 1.490 . S
C1600 H1590 0.930 . S
C1600 C1599 1.400 1_556 S
C1600 C1603 1.386 . S
H1601 C1617 0.930 . S
H1602 C1618 0.931 . S
C1603 H1591 0.929 . S
C1603 C1597 1.395 1_556 S
C1603 C1600 1.386 . S
C1604 C1599 1.490 . S
C1604 C1606 1.395 . S
C1604 C1607 1.403 1_554 S
H1605 C1611 0.930 . S
C1606 H1592 0.930 . S
C1606 C1604 1.395 . S
C1606 C1609 1.403 . S
C1607 C1604 1.403 1_556 S
C1607 C1608 1.524 . S
C1607 C1611 1.400 . S
C1608 H1593 0.960 . S
C1608 H1594 0.960 . S
C1608 H1595 0.960 . S
C1608 C1607 1.524 . S
C1609 C1606 1.403 . S
C1609 C1610 1.392 . S
C1609 C1613 1.495 . S
C1610 C1609 1.392 . S
C1610 C1611 1.385 1_554 S
C1610 C1612 1.478 . S
C1611 H1605 0.930 . S
C1611 C1607 1.400 . S
C1611 C1610 1.385 1_556 S
C1612 C1610 1.478 . S
C1612 C1614 1.381 . S
C1612 C1618 1.383 1_554 S
C1613 C1609 1.495 . S
C1613 H1619 0.959 . S
C1613 H1620 0.961 . S
C1613 H1621 0.960 . S
C1614 C1612 1.381 . S
C1614 C1615 1.394 . S
C1614 H1622 0.930 . S
C1615 C1614 1.394 . S
C1615 C1616 1.383 . S
C1615 H1623 0.929 . S
C1616 C1615 1.383 . S
C1616 C1617 1.377 1_554 S
C1617 H1601 0.930 . S
C1617 C1616 1.377 1_556 S
C1617 C1618 1.379 . S
C1618 H1602 0.931 . S
C1618 C1612 1.383 1_556 S
C1618 C1617 1.379 . S
H1619 C1613 0.959 . S
H1620 C1613 0.961 . S
H1621 C1613 0.960 . S
H1622 C1614 0.930 . S
H1623 C1615 0.929 . S
H1624 C1632 0.929 . S
H1625 C1634 0.930 . S
H1626 C1636 0.930 . S
H1627 C1639 0.929 . S
H1628 C1642 0.930 . S
H1629 C1644 0.960 . S
H1630 C1644 0.960 . S
H1631 C1644 0.960 . S
C1632 H1624 0.929 . S
C1632 C1633 1.377 . S
C1632 C1634 1.384 . S
C1633 C1632 1.377 . S
C1633 C1639 1.390 . S
C1634 H1625 0.930 . S
C1634 C1632 1.384 . S
C1634 C1635 1.372 . S
C1635 C1634 1.372 . S
C1635 C1636 1.400 . S
C1635 C1640 1.490 . S
C1636 H1626 0.930 . S
C1636 C1635 1.400 . S
C1636 C1639 1.386 . S
H1637 C1653 0.930 . S
H1638 C1654 0.931 . S
C1639 H1627 0.929 . S
C1639 C1633 1.390 . S
C1639 C1636 1.386 . S
C1640 C1635 1.490 . S
C1640 C1642 1.395 . S
C1640 C1643 1.403 . S
H1641 C1647 0.930 . S
C1642 H1628 0.930 . S
C1642 C1640 1.395 . S
C1642 C1645 1.403 . S
C1643 C1640 1.403 . S
C1643 C1644 1.524 . S
C1643 C1647 1.400 . S
C1644 H1629 0.960 . S
C1644 H1630 0.960 . S
C1644 H1631 0.960 . S
C1644 C1643 1.524 . S
C1645 C1642 1.403 . S
C1645 C1646 1.392 . S
C1645 C1649 1.495 . S
C1646 C1645 1.392 . S
C1646 C1647 1.385 . S
C1646 C1648 1.478 . S
C1647 H1641 0.930 . S
C1647 C1643 1.400 . S
C1647 C1646 1.385 . S
C1648 C1646 1.478 . S
C1648 C1650 1.381 . S
C1648 C1654 1.383 . S
C1649 C1645 1.495 . S
C1649 H1655 0.959 . S
C1649 H1656 0.961 . S
C1649 H1657 0.960 . S
C1650 C1648 1.381 . S
C1650 C1651 1.394 . S
C1650 H1658 0.930 . S
C1651 C1650 1.394 . S
C1651 C1652 1.383 . S
C1651 H1659 0.929 . S
C1652 C1651 1.383 . S
C1652 C1653 1.377 . S
C1653 H1637 0.930 . S
C1653 C1652 1.377 . S
C1653 C1654 1.379 . S
C1654 H1638 0.931 . S
C1654 C1648 1.383 . S
C1654 C1653 1.379 . S
H1655 C1649 0.959 . S
H1656 C1649 0.961 . S
H1657 C1649 0.960 . S
H1658 C1650 0.930 . S
H1659 C1651 0.929 . S
H1660 C1668 0.929 . S
H1661 C1670 0.930 . S
H1662 C1672 0.930 . S
H1663 C1675 0.929 . S
H1664 C1678 0.930 . S
H1665 C1680 0.960 . S
H1666 C1680 0.960 . S
H1667 C1680 0.960 . S
C1668 H1660 0.929 . S
C1668 C1669 1.377 . S
C1668 C1670 1.384 . S
C1669 C1668 1.377 . S
C1669 C1675 1.390 . S
C1670 H1661 0.930 . S
C1670 C1668 1.384 . S
C1670 C1671 1.372 . S
C1671 C1670 1.372 . S
C1671 C1672 1.400 . S
C1671 C1676 1.490 . S
C1672 H1662 0.930 . S
C1672 C1671 1.400 . S
C1672 C1675 1.386 . S
H1673 C1689 0.930 . S
H1674 C1690 0.931 . S
C1675 H1663 0.929 . S
C1675 C1669 1.390 . S
C1675 C1672 1.386 . S
C1676 C1671 1.490 . S
C1676 C1678 1.395 . S
C1676 C1679 1.403 . S
H1677 C1683 0.930 . S
C1678 H1664 0.930 . S
C1678 C1676 1.395 . S
C1678 C1681 1.403 . S
C1679 C1676 1.403 . S
C1679 C1680 1.524 . S
C1679 C1683 1.400 . S
C1680 H1665 0.960 . S
C1680 H1666 0.960 . S
C1680 H1667 0.960 . S
C1680 C1679 1.524 . S
C1681 C1678 1.403 . S
C1681 C1682 1.392 . S
C1681 C1685 1.495 . S
C1682 C1681 1.392 . S
C1682 C1683 1.385 . S
C1682 C1684 1.478 . S
C1683 H1677 0.930 . S
C1683 C1679 1.400 . S
C1683 C1682 1.385 . S
C1684 C1682 1.478 . S
C1684 C1686 1.381 . S
C1684 C1690 1.383 . S
C1685 C1681 1.495 . S
C1685 H1691 0.959 . S
C1685 H1692 0.961 . S
C1685 H1693 0.960 . S
C1686 C1684 1.381 . S
C1686 C1687 1.394 . S
C1686 H1694 0.930 . S
C1687 C1686 1.394 . S
C1687 C1688 1.383 . S
C1687 H1695 0.929 . S
C1688 C1687 1.383 . S
C1688 C1689 1.377 . S
C1689 H1673 0.930 . S
C1689 C1688 1.377 . S
C1689 C1690 1.379 . S
C1690 H1674 0.931 . S
C1690 C1684 1.383 . S
C1690 C1689 1.379 . S
H1691 C1685 0.959 . S
H1692 C1685 0.961 . S
H1693 C1685 0.960 . S
H1694 C1686 0.930 . S
H1695 C1687 0.929 . S
H1696 C1704 0.929 . S
H1697 C1706 0.930 . S
H1698 C1708 0.930 . S
H1699 C1711 0.929 . S
H1700 C1714 0.930 . S
H1701 C1716 0.960 . S
H1702 C1716 0.960 . S
H1703 C1716 0.960 . S
C1704 H1696 0.929 . S
C1704 C1705 1.377 . S
C1704 C1706 1.384 . S
C1705 C1704 1.377 . S
C1705 C1711 1.390 . S
C1706 H1697 0.930 . S
C1706 C1704 1.384 . S
C1706 C1707 1.372 . S
C1707 C1706 1.372 . S
C1707 C1708 1.400 . S
C1707 C1712 1.490 . S
C1708 H1698 0.930 . S
C1708 C1707 1.400 . S
C1708 C1711 1.386 . S
H1709 C1725 0.930 . S
H1710 C1726 0.931 . S
C1711 H1699 0.929 . S
C1711 C1705 1.390 . S
C1711 C1708 1.386 . S
C1712 C1707 1.490 . S
C1712 C1714 1.395 . S
C1712 C1715 1.403 . S
H1713 C1719 0.930 . S
C1714 H1700 0.930 . S
C1714 C1712 1.395 . S
C1714 C1717 1.403 . S
C1715 C1712 1.403 . S
C1715 C1716 1.524 . S
C1715 C1719 1.400 . S
C1716 H1701 0.960 . S
C1716 H1702 0.960 . S
C1716 H1703 0.960 . S
C1716 C1715 1.524 . S
C1717 C1714 1.403 . S
C1717 C1718 1.392 . S
C1717 C1721 1.495 . S
C1718 C1717 1.392 . S
C1718 C1719 1.385 . S
C1718 C1720 1.478 . S
C1719 H1713 0.930 . S
C1719 C1715 1.400 . S
C1719 C1718 1.385 . S
C1720 C1718 1.478 . S
C1720 C1722 1.381 . S
C1720 C1726 1.383 . S
C1721 C1717 1.495 . S
C1721 H1727 0.959 . S
C1721 H1728 0.961 . S
C1721 H1729 0.960 . S
C1722 C1720 1.381 . S
C1722 C1723 1.394 . S
C1722 H1730 0.930 . S
C1723 C1722 1.394 . S
C1723 C1724 1.383 . S
C1723 H1731 0.929 . S
C1724 C1723 1.383 . S
C1724 C1725 1.377 . S
C1725 H1709 0.930 . S
C1725 C1724 1.377 . S
C1725 C1726 1.379 . S
C1726 H1710 0.931 . S
C1726 C1720 1.383 . S
C1726 C1725 1.379 . S
H1727 C1721 0.959 . S
H1728 C1721 0.961 . S
H1729 C1721 0.960 . S
H1730 C1722 0.930 . S
H1731 C1723 0.929 . S
H1732 C1740 0.929 . S
H1733 C1742 0.930 . S
H1734 C1744 0.930 . S
H1735 C1747 0.929 . S
H1736 C1750 0.930 . S
H1737 C1752 0.960 . S
H1738 C1752 0.960 . S
H1739 C1752 0.960 . S
C1740 H1732 0.929 . S
C1740 C1741 1.377 . S
C1740 C1742 1.384 . S
C1741 C1740 1.377 . S
C1741 C1747 1.390 . S
C1742 H1733 0.930 . S
C1742 C1740 1.384 . S
C1742 C1743 1.372 . S
C1743 C1742 1.372 . S
C1743 C1744 1.400 . S
C1743 C1748 1.490 . S
C1744 H1734 0.930 . S
C1744 C1743 1.400 . S
C1744 C1747 1.386 . S
H1745 C1761 0.930 . S
H1746 C1762 0.931 . S
C1747 H1735 0.929 . S
C1747 C1741 1.390 . S
C1747 C1744 1.386 . S
C1748 C1743 1.490 . S
C1748 C1750 1.395 . S
C1748 C1751 1.403 . S
H1749 C1755 0.930 . S
C1750 H1736 0.930 . S
C1750 C1748 1.395 . S
C1750 C1753 1.403 . S
C1751 C1748 1.403 . S
C1751 C1752 1.524 . S
C1751 C1755 1.400 . S
C1752 H1737 0.960 . S
C1752 H1738 0.960 . S
C1752 H1739 0.960 . S
C1752 C1751 1.524 . S
C1753 C1750 1.403 . S
C1753 C1754 1.392 . S
C1753 C1757 1.495 . S
C1754 C1753 1.392 . S
C1754 C1755 1.385 . S
C1754 C1756 1.478 . S
C1755 H1749 0.930 . S
C1755 C1751 1.400 . S
C1755 C1754 1.385 . S
C1756 C1754 1.478 . S
C1756 C1758 1.381 . S
C1756 C1762 1.383 . S
C1757 C1753 1.495 . S
C1757 H1763 0.959 . S
C1757 H1764 0.961 . S
C1757 H1765 0.960 . S
C1758 C1756 1.381 . S
C1758 C1759 1.394 . S
C1758 H1766 0.930 . S
C1759 C1758 1.394 . S
C1759 C1760 1.383 . S
C1759 H1767 0.929 . S
C1760 C1759 1.383 . S
C1760 C1761 1.377 . S
C1761 H1745 0.930 . S
C1761 C1760 1.377 . S
C1761 C1762 1.379 . S
C1762 H1746 0.931 . S
C1762 C1756 1.383 . S
C1762 C1761 1.379 . S
H1763 C1757 0.959 . S
H1764 C1757 0.961 . S
H1765 C1757 0.960 . S
H1766 C1758 0.930 . S
H1767 C1759 0.929 . S
H1768 C1776 0.929 . S
H1769 C1778 0.930 . S
H1770 C1780 0.930 . S
H1771 C1783 0.929 . S
H1772 C1786 0.930 . S
H1773 C1788 0.960 . S
H1774 C1788 0.960 . S
H1775 C1788 0.960 . S
C1776 H1768 0.929 . S
C1776 C1777 1.377 . S
C1776 C1778 1.384 . S
C1777 C1776 1.377 . S
C1777 C1783 1.390 . S
C1778 H1769 0.930 . S
C1778 C1776 1.384 . S
C1778 C1779 1.372 . S
C1779 C1778 1.372 . S
C1779 C1780 1.400 . S
C1779 C1784 1.490 . S
C1780 H1770 0.930 . S
C1780 C1779 1.400 . S
C1780 C1783 1.386 . S
H1781 C1797 0.930 . S
H1782 C1798 0.931 . S
C1783 H1771 0.929 . S
C1783 C1777 1.390 . S
C1783 C1780 1.386 . S
C1784 C1779 1.490 . S
C1784 C1786 1.395 . S
C1784 C1787 1.403 . S
H1785 C1791 0.930 . S
C1786 H1772 0.930 . S
C1786 C1784 1.395 . S
C1786 C1789 1.403 . S
C1787 C1784 1.403 . S
C1787 C1788 1.524 . S
C1787 C1791 1.400 . S
C1788 H1773 0.960 . S
C1788 H1774 0.960 . S
C1788 H1775 0.960 . S
C1788 C1787 1.524 . S
C1789 C1786 1.403 . S
C1789 C1790 1.392 . S
C1789 C1793 1.495 . S
C1790 C1789 1.392 . S
C1790 C1791 1.385 . S
C1790 C1792 1.478 . S
C1791 H1785 0.930 . S
C1791 C1787 1.400 . S
C1791 C1790 1.385 . S
C1792 C1790 1.478 . S
C1792 C1794 1.381 . S
C1792 C1798 1.383 . S
C1793 C1789 1.495 . S
C1793 H1799 0.959 . S
C1793 H1800 0.961 . S
C1793 H1801 0.960 . S
C1794 C1792 1.381 . S
C1794 C1795 1.394 . S
C1794 H1802 0.930 . S
C1795 C1794 1.394 . S
C1795 C1796 1.383 . S
C1795 H1803 0.929 . S
C1796 C1795 1.383 . S
C1796 C1797 1.377 . S
C1797 H1781 0.930 . S
C1797 C1796 1.377 . S
C1797 C1798 1.379 . S
C1798 H1782 0.931 . S
C1798 C1792 1.383 . S
C1798 C1797 1.379 . S
H1799 C1793 0.959 . S
H1800 C1793 0.961 . S
H1801 C1793 0.960 . S
H1802 C1794 0.930 . S
H1803 C1795 0.929 . S
H1804 C1812 0.929 . S
H1805 C1814 0.930 . S
H1806 C1816 0.930 . S
H1807 C1819 0.929 . S
H1808 C1822 0.930 . S
H1809 C1824 0.960 . S
H1810 C1824 0.960 . S
H1811 C1824 0.960 . S
C1812 H1804 0.929 . S
C1812 C1813 1.377 . S
C1812 C1814 1.384 . S
C1813 C1812 1.377 . S
C1813 C1819 1.390 . S
C1814 H1805 0.930 . S
C1814 C1812 1.384 . S
C1814 C1815 1.372 . S
C1815 C1814 1.372 . S
C1815 C1816 1.400 . S
C1815 C1820 1.490 . S
C1816 H1806 0.930 . S
C1816 C1815 1.400 . S
C1816 C1819 1.386 . S
H1817 C1833 0.930 . S
H1818 C1834 0.931 . S
C1819 H1807 0.929 . S
C1819 C1813 1.390 . S
C1819 C1816 1.386 . S
C1820 C1815 1.490 . S
C1820 C1822 1.395 . S
C1820 C1823 1.403 . S
H1821 C1827 0.930 . S
C1822 H1808 0.930 . S
C1822 C1820 1.395 . S
C1822 C1825 1.403 . S
C1823 C1820 1.403 . S
C1823 C1824 1.524 . S
C1823 C1827 1.400 . S
C1824 H1809 0.960 . S
C1824 H1810 0.960 . S
C1824 H1811 0.960 . S
C1824 C1823 1.524 . S
C1825 C1822 1.403 . S
C1825 C1826 1.392 . S
C1825 C1829 1.495 . S
C1826 C1825 1.392 . S
C1826 C1827 1.385 . S
C1826 C1828 1.478 . S
C1827 H1821 0.930 . S
C1827 C1823 1.400 . S
C1827 C1826 1.385 . S
C1828 C1826 1.478 . S
C1828 C1830 1.381 . S
C1828 C1834 1.383 . S
C1829 C1825 1.495 . S
C1829 H1835 0.959 . S
C1829 H1836 0.961 . S
C1829 H1837 0.960 . S
C1830 C1828 1.381 . S
C1830 C1831 1.394 . S
C1830 H1838 0.930 . S
C1831 C1830 1.394 . S
C1831 C1832 1.383 . S
C1831 H1839 0.929 . S
C1832 C1831 1.383 . S
C1832 C1833 1.377 . S
C1833 H1817 0.930 . S
C1833 C1832 1.377 . S
C1833 C1834 1.379 . S
C1834 H1818 0.931 . S
C1834 C1828 1.383 . S
C1834 C1833 1.379 . S
H1835 C1829 0.959 . S
H1836 C1829 0.961 . S
H1837 C1829 0.960 . S
H1838 C1830 0.930 . S
H1839 C1831 0.929 . S
H1840 C1848 0.929 . S
H1841 C1850 0.930 . S
H1842 C1852 0.930 . S
H1843 C1855 0.929 . S
H1844 C1858 0.930 . S
H1845 C1860 0.960 . S
H1846 C1860 0.960 . S
H1847 C1860 0.960 . S
C1848 H1840 0.929 . S
C1848 C1849 1.377 . S
C1848 C1850 1.384 . S
C1849 C1848 1.377 . S
C1849 C1855 1.390 . S
C1850 H1841 0.930 . S
C1850 C1848 1.384 . S
C1850 C1851 1.372 . S
C1851 C1850 1.372 . S
C1851 C1852 1.400 . S
C1851 C1856 1.490 . S
C1852 H1842 0.930 . S
C1852 C1851 1.400 . S
C1852 C1855 1.386 . S
H1853 C1869 0.930 . S
H1854 C1870 0.931 . S
C1855 H1843 0.929 . S
C1855 C1849 1.390 . S
C1855 C1852 1.386 . S
C1856 C1851 1.490 . S
C1856 C1858 1.395 . S
C1856 C1859 1.403 . S
H1857 C1863 0.930 . S
C1858 H1844 0.930 . S
C1858 C1856 1.395 . S
C1858 C1861 1.403 . S
C1859 C1856 1.403 . S
C1859 C1860 1.524 . S
C1859 C1863 1.400 . S
C1860 H1845 0.960 . S
C1860 H1846 0.960 . S
C1860 H1847 0.960 . S
C1860 C1859 1.524 . S
C1861 C1858 1.403 . S
C1861 C1862 1.392 . S
C1861 C1865 1.495 . S
C1862 C1861 1.392 . S
C1862 C1863 1.385 . S
C1862 C1864 1.478 . S
C1863 H1857 0.930 . S
C1863 C1859 1.400 . S
C1863 C1862 1.385 . S
C1864 C1862 1.478 . S
C1864 C1866 1.381 . S
C1864 C1870 1.383 . S
C1865 C1861 1.495 . S
C1865 H1871 0.959 . S
C1865 H1872 0.961 . S
C1865 H1873 0.960 . S
C1866 C1864 1.381 . S
C1866 C1867 1.394 . S
C1866 H1874 0.930 . S
C1867 C1866 1.394 . S
C1867 C1868 1.383 . S
C1867 H1875 0.929 . S
C1868 C1867 1.383 . S
C1868 C1869 1.377 . S
C1869 H1853 0.930 . S
C1869 C1868 1.377 . S
C1869 C1870 1.379 . S
C1870 H1854 0.931 . S
C1870 C1864 1.383 . S
C1870 C1869 1.379 . S
H1871 C1865 0.959 . S
H1872 C1865 0.961 . S
H1873 C1865 0.960 . S
H1874 C1866 0.930 . S
H1875 C1867 0.929 . S
H1876 C1884 0.929 . S
H1877 C1886 0.930 . S
H1878 C1888 0.930 . S
H1879 C1891 0.929 . S
H1880 C1894 0.930 . S
H1881 C1896 0.960 . S
H1882 C1896 0.960 . S
H1883 C1896 0.960 . S
C1884 H1876 0.929 . S
C1884 C1885 1.377 . S
C1884 C1886 1.384 . S
C1885 C1884 1.377 . S
C1885 C1891 1.390 . S
C1886 H1877 0.930 . S
C1886 C1884 1.384 . S
C1886 C1887 1.372 . S
C1887 C1886 1.372 . S
C1887 C1888 1.400 . S
C1887 C1892 1.490 . S
C1888 H1878 0.930 . S
C1888 C1887 1.400 . S
C1888 C1891 1.386 . S
H1889 C1905 0.930 . S
H1890 C1906 0.931 . S
C1891 H1879 0.929 . S
C1891 C1885 1.390 . S
C1891 C1888 1.386 . S
C1892 C1887 1.490 . S
C1892 C1894 1.395 . S
C1892 C1895 1.403 . S
H1893 C1899 0.930 . S
C1894 H1880 0.930 . S
C1894 C1892 1.395 . S
C1894 C1897 1.403 . S
C1895 C1892 1.403 . S
C1895 C1896 1.524 . S
C1895 C1899 1.400 . S
C1896 H1881 0.960 . S
C1896 H1882 0.960 . S
C1896 H1883 0.960 . S
C1896 C1895 1.524 . S
C1897 C1894 1.403 . S
C1897 C1898 1.392 . S
C1897 C1901 1.495 . S
C1898 C1897 1.392 . S
C1898 C1899 1.385 . S
C1898 C1900 1.478 . S
C1899 H1893 0.930 . S
C1899 C1895 1.400 . S
C1899 C1898 1.385 . S
C1900 C1898 1.478 . S
C1900 C1902 1.381 . S
C1900 C1906 1.383 . S
C1901 C1897 1.495 . S
C1901 H1907 0.959 . S
C1901 H1908 0.961 . S
C1901 H1909 0.960 . S
C1902 C1900 1.381 . S
C1902 C1903 1.394 . S
C1902 H1910 0.930 . S
C1903 C1902 1.394 . S
C1903 C1904 1.383 . S
C1903 H1911 0.929 . S
C1904 C1903 1.383 . S
C1904 C1905 1.377 . S
C1905 H1889 0.930 . S
C1905 C1904 1.377 . S
C1905 C1906 1.379 . S
C1906 H1890 0.931 . S
C1906 C1900 1.383 . S
C1906 C1905 1.379 . S
H1907 C1901 0.959 . S
H1908 C1901 0.961 . S
H1909 C1901 0.960 . S
H1910 C1902 0.930 . S
H1911 C1903 0.929 . S
H1912 C1920 0.929 . S
H1913 C1922 0.930 . S
H1914 C1924 0.930 . S
H1915 C1927 0.929 . S
H1916 C1930 0.930 . S
H1917 C1932 0.960 . S
H1918 C1932 0.960 . S
H1919 C1932 0.960 . S
C1920 H1912 0.929 . S
C1920 C1921 1.377 . S
C1920 C1922 1.384 . S
C1921 C1920 1.377 . S
C1921 C1927 1.390 . S
C1922 H1913 0.930 . S
C1922 C1920 1.384 . S
C1922 C1923 1.372 . S
C1923 C1922 1.372 . S
C1923 C1924 1.400 . S
C1923 C1928 1.490 . S
C1924 H1914 0.930 . S
C1924 C1923 1.400 . S
C1924 C1927 1.386 . S
H1925 C1941 0.930 . S
H1926 C1942 0.931 . S
C1927 H1915 0.929 . S
C1927 C1921 1.390 . S
C1927 C1924 1.386 . S
C1928 C1923 1.490 . S
C1928 C1930 1.395 . S
C1928 C1931 1.403 . S
H1929 C1935 0.930 . S
C1930 H1916 0.930 . S
C1930 C1928 1.395 . S
C1930 C1933 1.403 . S
C1931 C1928 1.403 . S
C1931 C1932 1.524 . S
C1931 C1935 1.400 . S
C1932 H1917 0.960 . S
C1932 H1918 0.960 . S
C1932 H1919 0.960 . S
C1932 C1931 1.524 . S
C1933 C1930 1.403 . S
C1933 C1934 1.392 . S
C1933 C1937 1.495 . S
C1934 C1933 1.392 . S
C1934 C1935 1.385 . S
C1934 C1936 1.478 . S
C1935 H1929 0.930 . S
C1935 C1931 1.400 . S
C1935 C1934 1.385 . S
C1936 C1934 1.478 . S
C1936 C1938 1.381 . S
C1936 C1942 1.383 . S
C1937 C1933 1.495 . S
C1937 H1943 0.959 . S
C1937 H1944 0.961 . S
C1937 H1945 0.960 . S
C1938 C1936 1.381 . S
C1938 C1939 1.394 . S
C1938 H1946 0.930 . S
C1939 C1938 1.394 . S
C1939 C1940 1.383 . S
C1939 H1947 0.929 . S
C1940 C1939 1.383 . S
C1940 C1941 1.377 . S
C1941 H1925 0.930 . S
C1941 C1940 1.377 . S
C1941 C1942 1.379 . S
C1942 H1926 0.931 . S
C1942 C1936 1.383 . S
C1942 C1941 1.379 . S
H1943 C1937 0.959 . S
H1944 C1937 0.961 . S
H1945 C1937 0.960 . S
H1946 C1938 0.930 . S
H1947 C1939 0.929 . S
H1948 C1956 0.929 . S
H1949 C1958 0.930 . S
H1950 C1960 0.930 . S
H1951 C1963 0.929 . S
H1952 C1966 0.930 . S
H1953 C1968 0.960 . S
H1954 C1968 0.960 . S
H1955 C1968 0.960 . S
C1956 H1948 0.929 . S
C1956 C1957 1.377 . S
C1956 C1958 1.384 . S
C1957 C1956 1.377 . S
C1957 C1963 1.390 . S
C1958 H1949 0.930 . S
C1958 C1956 1.384 . S
C1958 C1959 1.372 . S
C1959 C1958 1.372 . S
C1959 C1960 1.400 . S
C1959 C1964 1.490 . S
C1960 H1950 0.930 . S
C1960 C1959 1.400 . S
C1960 C1963 1.386 . S
H1961 C1977 0.930 . S
H1962 C1978 0.931 . S
C1963 H1951 0.929 . S
C1963 C1957 1.390 . S
C1963 C1960 1.386 . S
C1964 C1959 1.490 . S
C1964 C1966 1.395 . S
C1964 C1967 1.403 . S
H1965 C1971 0.930 . S
C1966 H1952 0.930 . S
C1966 C1964 1.395 . S
C1966 C1969 1.403 . S
C1967 C1964 1.403 . S
C1967 C1968 1.524 . S
C1967 C1971 1.400 . S
C1968 H1953 0.960 . S
C1968 H1954 0.960 . S
C1968 H1955 0.960 . S
C1968 C1967 1.524 . S
C1969 C1966 1.403 . S
C1969 C1970 1.392 . S
C1969 C1973 1.495 . S
C1970 C1969 1.392 . S
C1970 C1971 1.385 . S
C1970 C1972 1.478 . S
C1971 H1965 0.930 . S
C1971 C1967 1.400 . S
C1971 C1970 1.385 . S
C1972 C1970 1.478 . S
C1972 C1974 1.381 . S
C1972 C1978 1.383 . S
C1973 C1969 1.495 . S
C1973 H1979 0.959 . S
C1973 H1980 0.961 . S
C1973 H1981 0.960 . S
C1974 C1972 1.381 . S
C1974 C1975 1.394 . S
C1974 H1982 0.930 . S
C1975 C1974 1.394 . S
C1975 C1976 1.383 . S
C1975 H1983 0.929 . S
C1976 C1975 1.383 . S
C1976 C1977 1.377 . S
C1977 H1961 0.930 . S
C1977 C1976 1.377 . S
C1977 C1978 1.379 . S
C1978 H1962 0.931 . S
C1978 C1972 1.383 . S
C1978 C1977 1.379 . S
H1979 C1973 0.959 . S
H1980 C1973 0.961 . S
H1981 C1973 0.960 . S
H1982 C1974 0.930 . S
H1983 C1975 0.929 . S
H1984 C1992 0.929 . S
H1985 C1994 0.930 . S
H1986 C1996 0.930 . S
H1987 C1999 0.929 . S
H1988 C2002 0.930 . S
H1989 C2004 0.960 . S
H1990 C2004 0.960 . S
H1991 C2004 0.960 . S
C1992 H1984 0.929 . S
C1992 C1993 1.377 . S
C1992 C1994 1.384 . S
C1993 C1992 1.377 . S
C1993 C1999 1.390 . S
C1994 H1985 0.930 . S
C1994 C1992 1.384 . S
C1994 C1995 1.372 . S
C1995 C1994 1.372 . S
C1995 C1996 1.400 . S
C1995 C2000 1.490 . S
C1996 H1986 0.930 . S
C1996 C1995 1.400 . S
C1996 C1999 1.386 . S
H1997 C2013 0.930 . S
H1998 C2014 0.931 . S
C1999 H1987 0.929 . S
C1999 C1993 1.390 . S
C1999 C1996 1.386 . S
C2000 C1995 1.490 . S
C2000 C2002 1.395 . S
C2000 C2003 1.403 . S
H2001 C2007 0.930 . S
C2002 H1988 0.930 . S
C2002 C2000 1.395 . S
C2002 C2005 1.403 . S
C2003 C2000 1.403 . S
C2003 C2004 1.524 . S
C2003 C2007 1.400 . S
C2004 H1989 0.960 . S
C2004 H1990 0.960 . S
C2004 H1991 0.960 . S
C2004 C2003 1.524 . S
C2005 C2002 1.403 . S
C2005 C2006 1.392 . S
C2005 C2009 1.495 . S
C2006 C2005 1.392 . S
C2006 C2007 1.385 . S
C2006 C2008 1.478 . S
C2007 H2001 0.930 . S
C2007 C2003 1.400 . S
C2007 C2006 1.385 . S
C2008 C2006 1.478 . S
C2008 C2010 1.381 . S
C2008 C2014 1.383 . S
C2009 C2005 1.495 . S
C2009 H2015 0.959 . S
C2009 H2016 0.961 . S
C2009 H2017 0.960 . S
C2010 C2008 1.381 . S
C2010 C2011 1.394 . S
C2010 H2018 0.930 . S
C2011 C2010 1.394 . S
C2011 C2012 1.383 . S
C2011 H2019 0.929 . S
C2012 C2011 1.383 . S
C2012 C2013 1.377 . S
C2013 H1997 0.930 . S
C2013 C2012 1.377 . S
C2013 C2014 1.379 . S
C2014 H1998 0.931 . S
C2014 C2008 1.383 . S
C2014 C2013 1.379 . S
H2015 C2009 0.959 . S
H2016 C2009 0.961 . S
H2017 C2009 0.960 . S
H2018 C2010 0.930 . S
H2019 C2011 0.929 . S
H2020 C2028 0.929 . S
H2021 C2030 0.930 . S
H2022 C2032 0.930 . S
H2023 C2035 0.929 . S
H2024 C2038 0.930 . S
H2025 C2040 0.960 . S
H2026 C2040 0.960 . S
H2027 C2040 0.960 . S
C2028 H2020 0.929 . S
C2028 C2029 1.377 . S
C2028 C2030 1.384 . S
C2029 C2028 1.377 . S
C2029 C2035 1.390 . S
C2030 H2021 0.930 . S
C2030 C2028 1.384 . S
C2030 C2031 1.372 . S
C2031 C2030 1.372 . S
C2031 C2032 1.400 . S
C2031 C2036 1.490 . S
C2032 H2022 0.930 . S
C2032 C2031 1.400 . S
C2032 C2035 1.386 . S
H2033 C2049 0.930 . S
H2034 C2050 0.931 . S
C2035 H2023 0.929 . S
C2035 C2029 1.390 . S
C2035 C2032 1.386 . S
C2036 C2031 1.490 . S
C2036 C2038 1.395 . S
C2036 C2039 1.403 . S
H2037 C2043 0.930 . S
C2038 H2024 0.930 . S
C2038 C2036 1.395 . S
C2038 C2041 1.403 . S
C2039 C2036 1.403 . S
C2039 C2040 1.524 . S
C2039 C2043 1.400 . S
C2040 H2025 0.960 . S
C2040 H2026 0.960 . S
C2040 H2027 0.960 . S
C2040 C2039 1.524 . S
C2041 C2038 1.403 . S
C2041 C2042 1.392 . S
C2041 C2045 1.495 . S
C2042 C2041 1.392 . S
C2042 C2043 1.385 . S
C2042 C2044 1.478 . S
C2043 H2037 0.930 . S
C2043 C2039 1.400 . S
C2043 C2042 1.385 . S
C2044 C2042 1.478 . S
C2044 C2046 1.381 . S
C2044 C2050 1.383 . S
C2045 C2041 1.495 . S
C2045 H2051 0.959 . S
C2045 H2052 0.961 . S
C2045 H2053 0.960 . S
C2046 C2044 1.381 . S
C2046 C2047 1.394 . S
C2046 H2054 0.930 . S
C2047 C2046 1.394 . S
C2047 C2048 1.383 . S
C2047 H2055 0.929 . S
C2048 C2047 1.383 . S
C2048 C2049 1.377 . S
C2049 H2033 0.930 . S
C2049 C2048 1.377 . S
C2049 C2050 1.379 . S
C2050 H2034 0.931 . S
C2050 C2044 1.383 . S
C2050 C2049 1.379 . S
H2051 C2045 0.959 . S
H2052 C2045 0.961 . S
H2053 C2045 0.960 . S
H2054 C2046 0.930 . S
H2055 C2047 0.929 . S
H2056 C2064 0.929 . S
H2057 C2066 0.930 . S
H2058 C2068 0.930 . S
H2059 C2071 0.929 . S
H2060 C2074 0.930 . S
H2061 C2076 0.960 . S
H2062 C2076 0.960 . S
H2063 C2076 0.960 . S
C2064 H2056 0.929 . S
C2064 C2065 1.377 . S
C2064 C2066 1.384 . S
C2065 C2064 1.377 . S
C2065 C2071 1.390 . S
C2066 H2057 0.930 . S
C2066 C2064 1.384 . S
C2066 C2067 1.372 . S
C2067 C2066 1.372 . S
C2067 C2068 1.400 . S
C2067 C2072 1.490 . S
C2068 H2058 0.930 . S
C2068 C2067 1.400 . S
C2068 C2071 1.386 . S
H2069 C2085 0.930 . S
H2070 C2086 0.931 . S
C2071 H2059 0.929 . S
C2071 C2065 1.390 . S
C2071 C2068 1.386 . S
C2072 C2067 1.490 . S
C2072 C2074 1.395 . S
C2072 C2075 1.403 . S
H2073 C2079 0.930 . S
C2074 H2060 0.930 . S
C2074 C2072 1.395 . S
C2074 C2077 1.403 . S
C2075 C2072 1.403 . S
C2075 C2076 1.524 . S
C2075 C2079 1.400 . S
C2076 H2061 0.960 . S
C2076 H2062 0.960 . S
C2076 H2063 0.960 . S
C2076 C2075 1.524 . S
C2077 C2074 1.403 . S
C2077 C2078 1.392 . S
C2077 C2081 1.495 . S
C2078 C2077 1.392 . S
C2078 C2079 1.385 . S
C2078 C2080 1.478 . S
C2079 H2073 0.930 . S
C2079 C2075 1.400 . S
C2079 C2078 1.385 . S
C2080 C2078 1.478 . S
C2080 C2082 1.381 . S
C2080 C2086 1.383 . S
C2081 C2077 1.495 . S
C2081 H2087 0.959 . S
C2081 H2088 0.961 . S
C2081 H2089 0.960 . S
C2082 C2080 1.381 . S
C2082 C2083 1.394 . S
C2082 H2090 0.930 . S
C2083 C2082 1.394 . S
C2083 C2084 1.383 . S
C2083 H2091 0.929 1_565 S
C2084 C2083 1.383 . S
C2084 C2085 1.377 . S
C2085 H2069 0.930 . S
C2085 C2084 1.377 . S
C2085 C2086 1.379 . S
C2086 H2070 0.931 . S
C2086 C2080 1.383 . S
C2086 C2085 1.379 . S
H2087 C2081 0.959 . S
H2088 C2081 0.961 . S
H2089 C2081 0.960 . S
H2090 C2082 0.930 . S
H2091 C2083 0.929 1_545 S
H2092 C2100 0.929 . S
H2093 C2102 0.930 . S
H2094 C2104 0.930 . S
H2095 C2107 0.929 . S
H2096 C2110 0.930 . S
H2097 C2112 0.960 . S
H2098 C2112 0.960 . S
H2099 C2112 0.960 . S
C2100 H2092 0.929 . S
C2100 C2101 1.377 . S
C2100 C2102 1.384 . S
C2101 C2100 1.377 . S
C2101 C2107 1.390 . S
C2102 H2093 0.930 . S
C2102 C2100 1.384 . S
C2102 C2103 1.372 . S
C2103 C2102 1.372 . S
C2103 C2104 1.400 . S
C2103 C2108 1.490 . S
C2104 H2094 0.930 . S
C2104 C2103 1.400 . S
C2104 C2107 1.386 . S
H2105 C2121 0.930 . S
H2106 C2122 0.931 . S
C2107 H2095 0.929 . S
C2107 C2101 1.390 . S
C2107 C2104 1.386 . S
C2108 C2103 1.490 . S
C2108 C2110 1.395 . S
C2108 C2111 1.403 . S
H2109 C2115 0.930 . S
C2110 H2096 0.930 . S
C2110 C2108 1.395 . S
C2110 C2113 1.403 . S
C2111 C2108 1.403 . S
C2111 C2112 1.524 . S
C2111 C2115 1.400 . S
C2112 H2097 0.960 . S
C2112 H2098 0.960 . S
C2112 H2099 0.960 . S
C2112 C2111 1.524 . S
C2113 C2110 1.403 . S
C2113 C2114 1.392 . S
C2113 C2117 1.495 . S
C2114 C2113 1.392 . S
C2114 C2115 1.385 . S
C2114 C2116 1.478 . S
C2115 H2109 0.930 . S
C2115 C2111 1.400 . S
C2115 C2114 1.385 . S
C2116 C2114 1.478 . S
C2116 C2118 1.381 . S
C2116 C2122 1.383 . S
C2117 C2113 1.495 . S
C2117 H2123 0.959 . S
C2117 H2124 0.961 . S
C2117 H2125 0.960 . S
C2118 C2116 1.381 . S
C2118 C2119 1.394 . S
C2118 H2126 0.930 . S
C2119 C2118 1.394 . S
C2119 C2120 1.383 . S
C2119 H2127 0.929 . S
C2120 C2119 1.383 . S
C2120 C2121 1.377 . S
C2121 H2105 0.930 . S
C2121 C2120 1.377 . S
C2121 C2122 1.379 . S
C2122 H2106 0.931 . S
C2122 C2116 1.383 . S
C2122 C2121 1.379 . S
H2123 C2117 0.959 . S
H2124 C2117 0.961 . S
H2125 C2117 0.960 . S
H2126 C2118 0.930 . S
H2127 C2119 0.929 . S
H2128 C2136 0.929 . S
H2129 C2138 0.930 . S
H2130 C2140 0.930 . S
H2131 C2143 0.929 . S
H2132 C2146 0.930 . S
H2133 C2148 0.960 . S
H2134 C2148 0.960 1_565 S
H2135 C2148 0.960 . S
C2136 H2128 0.929 . S
C2136 C2137 1.377 1_565 S
C2136 C2138 1.384 . S
C2137 C2136 1.377 1_545 S
C2137 C2143 1.390 . S
C2138 H2129 0.930 . S
C2138 C2136 1.384 . S
C2138 C2139 1.372 1_565 S
C2139 C2138 1.372 1_545 S
C2139 C2140 1.400 . S
C2139 C2144 1.490 . S
C2140 H2130 0.930 . S
C2140 C2139 1.400 . S
C2140 C2143 1.386 . S
H2141 C2157 0.930 . S
H2142 C2158 0.931 . S
C2143 H2131 0.929 . S
C2143 C2137 1.390 . S
C2143 C2140 1.386 . S
C2144 C2139 1.490 . S
C2144 C2146 1.395 . S
C2144 C2147 1.403 . S
H2145 C2151 0.930 . S
C2146 H2132 0.930 . S
C2146 C2144 1.395 . S
C2146 C2149 1.403 . S
C2147 C2144 1.403 . S
C2147 C2148 1.524 . S
C2147 C2151 1.400 . S
C2148 H2133 0.960 . S
C2148 H2134 0.960 1_545 S
C2148 H2135 0.960 . S
C2148 C2147 1.524 . S
C2149 C2146 1.403 . S
C2149 C2150 1.392 . S
C2149 C2153 1.495 . S
C2150 C2149 1.392 . S
C2150 C2151 1.385 . S
C2150 C2152 1.478 . S
C2151 H2145 0.930 . S
C2151 C2147 1.400 . S
C2151 C2150 1.385 . S
C2152 C2150 1.478 . S
C2152 C2154 1.381 . S
C2152 C2158 1.383 . S
C2153 C2149 1.495 . S
C2153 H2159 0.959 . S
C2153 H2160 0.961 . S
C2153 H2161 0.960 . S
C2154 C2152 1.381 . S
C2154 C2155 1.394 . S
C2154 H2162 0.930 1_545 S
C2155 C2154 1.394 . S
C2155 C2156 1.383 . S
C2155 H2163 0.929 1_545 S
C2156 C2155 1.383 . S
C2156 C2157 1.377 . S
C2157 H2141 0.930 . S
C2157 C2156 1.377 . S
C2157 C2158 1.379 . S
C2158 H2142 0.931 . S
C2158 C2152 1.383 . S
C2158 C2157 1.379 . S
H2159 C2153 0.959 . S
H2160 C2153 0.961 . S
H2161 C2153 0.960 . S
H2162 C2154 0.930 1_565 S
H2163 C2155 0.929 1_565 S
H2164 C2172 0.929 . S
H2165 C2174 0.930 . S
H2166 C2176 0.930 . S
H2167 C2179 0.929 . S
H2168 C2182 0.930 . S
H2169 C2184 0.960 . S
H2170 C2184 0.960 . S
H2171 C2184 0.960 . S
C2172 H2164 0.929 . S
C2172 C2173 1.377 . S
C2172 C2174 1.384 . S
C2173 C2172 1.377 . S
C2173 C2179 1.390 . S
C2174 H2165 0.930 . S
C2174 C2172 1.384 . S
C2174 C2175 1.372 . S
C2175 C2174 1.372 . S
C2175 C2176 1.400 . S
C2175 C2180 1.490 . S
C2176 H2166 0.930 . S
C2176 C2175 1.400 . S
C2176 C2179 1.386 . S
H2177 C2193 0.930 . S
H2178 C2194 0.931 . S
C2179 H2167 0.929 . S
C2179 C2173 1.390 . S
C2179 C2176 1.386 . S
C2180 C2175 1.490 . S
C2180 C2182 1.395 . S
C2180 C2183 1.403 . S
H2181 C2187 0.930 . S
C2182 H2168 0.930 . S
C2182 C2180 1.395 . S
C2182 C2185 1.403 . S
C2183 C2180 1.403 . S
C2183 C2184 1.524 . S
C2183 C2187 1.400 . S
C2184 H2169 0.960 . S
C2184 H2170 0.960 . S
C2184 H2171 0.960 . S
C2184 C2183 1.524 . S
C2185 C2182 1.403 . S
C2185 C2186 1.392 . S
C2185 C2189 1.495 . S
C2186 C2185 1.392 . S
C2186 C2187 1.385 . S
C2186 C2188 1.478 . S
C2187 H2181 0.930 . S
C2187 C2183 1.400 . S
C2187 C2186 1.385 . S
C2188 C2186 1.478 . S
C2188 C2190 1.381 . S
C2188 C2194 1.383 . S
C2189 C2185 1.495 . S
C2189 H2195 0.959 . S
C2189 H2196 0.961 . S
C2189 H2197 0.960 . S
C2190 C2188 1.381 . S
C2190 C2191 1.394 . S
C2190 H2198 0.930 . S
C2191 C2190 1.394 . S
C2191 C2192 1.383 . S
C2191 H2199 0.929 . S
C2192 C2191 1.383 . S
C2192 C2193 1.377 . S
C2193 H2177 0.930 . S
C2193 C2192 1.377 . S
C2193 C2194 1.379 . S
C2194 H2178 0.931 . S
C2194 C2188 1.383 . S
C2194 C2193 1.379 . S
H2195 C2189 0.959 . S
H2196 C2189 0.961 . S
H2197 C2189 0.960 . S
H2198 C2190 0.930 . S
H2199 C2191 0.929 . S
H2200 C2208 0.929 . S
H2201 C2210 0.930 . S
H2202 C2212 0.930 1_565 S
H2203 C2215 0.929 . S
H2204 C2218 0.930 . S
H2205 C2220 0.960 . S
H2206 C2220 0.960 1_545 S
H2207 C2220 0.960 . S
C2208 H2200 0.929 . S
C2208 C2209 1.377 . S
C2208 C2210 1.384 . S
C2209 C2208 1.377 . S
C2209 C2215 1.390 1_545 S
C2210 H2201 0.930 . S
C2210 C2208 1.384 . S
C2210 C2211 1.372 . S
C2211 C2210 1.372 . S
C2211 C2212 1.399 . S
C2211 C2216 1.490 . S
C2212 H2202 0.930 1_545 S
C2212 C2211 1.399 . S
C2212 C2215 1.386 1_545 S
H2213 C2229 0.977 . S
H2214 C2230 0.915 1_565 S
C2215 H2203 0.929 . S
C2215 C2209 1.390 1_565 S
C2215 C2212 1.386 1_565 S
C2216 C2211 1.490 . S
C2216 C2218 1.395 . S
C2216 C2219 1.403 . S
H2217 C2223 0.930 . S
C2218 H2204 0.930 . S
C2218 C2216 1.395 . S
C2218 C2221 1.403 . S
C2219 C2216 1.403 . S
C2219 C2220 1.524 1_545 S
C2219 C2223 1.400 . S
C2220 H2205 0.960 . S
C2220 H2206 0.960 1_565 S
C2220 H2207 0.960 . S
C2220 C2219 1.524 1_565 S
C2221 C2218 1.403 . S
C2221 C2222 1.392 . S
C2221 C2225 1.495 . S
C2222 C2221 1.392 . S
C2222 C2223 1.385 . S
C2222 C2224 1.478 . S
C2223 H2217 0.930 . S
C2223 C2219 1.400 . S
C2223 C2222 1.385 . S
C2224 C2222 1.478 . S
C2224 C2226 1.381 . S
C2224 C2230 1.383 . S
C2225 C2221 1.495 . S
C2225 H2231 0.959 . S
C2225 H2232 0.961 . S
C2225 H2233 0.960 . S
C2226 C2224 1.381 . S
C2226 C2227 1.394 . S
C2226 H2234 0.930 . S
C2227 C2226 1.394 . S
C2227 C2228 1.383 . S
C2227 H2235 0.929 . S
C2228 C2227 1.383 . S
C2228 C2229 1.377 . S
C2229 H2213 0.977 . S
C2229 C2228 1.377 . S
C2229 C2230 1.379 . S
C2230 H2214 0.915 1_545 S
C2230 C2224 1.383 . S
C2230 C2229 1.379 . S
H2231 C2225 0.959 . S
H2232 C2225 0.961 . S
H2233 C2225 0.960 . S
H2234 C2226 0.930 . S
H2235 C2227 0.929 . S
H2236 C2244 0.929 . S
H2237 C2246 0.930 . S
H2238 C2248 0.930 . S
H2239 C2251 0.929 . S
H2240 C2254 0.930 . S
H2241 C2256 0.960 . S
H2242 C2256 0.960 . S
H2243 C2256 0.960 . S
C2244 H2236 0.929 . S
C2244 C2245 1.377 . S
C2244 C2246 1.384 . S
C2245 C2244 1.377 . S
C2245 C2251 1.390 . S
C2246 H2237 0.930 . S
C2246 C2244 1.384 . S
C2246 C2247 1.372 . S
C2247 C2246 1.372 . S
C2247 C2248 1.400 . S
C2247 C2252 1.490 . S
C2248 H2238 0.930 . S
C2248 C2247 1.400 . S
C2248 C2251 1.386 . S
H2249 C2265 0.930 . S
H2250 C2266 0.931 . S
C2251 H2239 0.929 . S
C2251 C2245 1.390 . S
C2251 C2248 1.386 . S
C2252 C2247 1.490 . S
C2252 C2254 1.395 . S
C2252 C2255 1.403 . S
H2253 C2259 0.930 . S
C2254 H2240 0.930 . S
C2254 C2252 1.395 . S
C2254 C2257 1.403 . S
C2255 C2252 1.403 . S
C2255 C2256 1.524 . S
C2255 C2259 1.400 . S
C2256 H2241 0.960 . S
C2256 H2242 0.960 . S
C2256 H2243 0.960 . S
C2256 C2255 1.524 . S
C2257 C2254 1.403 . S
C2257 C2258 1.392 . S
C2257 C2261 1.495 . S
C2258 C2257 1.392 . S
C2258 C2259 1.385 . S
C2258 C2260 1.478 . S
C2259 H2253 0.930 . S
C2259 C2255 1.400 . S
C2259 C2258 1.385 . S
C2260 C2258 1.478 . S
C2260 C2262 1.381 . S
C2260 C2266 1.383 . S
C2261 C2257 1.495 . S
C2261 H2267 0.959 . S
C2261 H2268 0.961 . S
C2261 H2269 0.960 . S
C2262 C2260 1.381 . S
C2262 C2263 1.394 . S
C2262 H2270 0.930 . S
C2263 C2262 1.394 . S
C2263 C2264 1.383 . S
C2263 H2271 0.929 . S
C2264 C2263 1.383 . S
C2264 C2265 1.377 . S
C2265 H2249 0.930 . S
C2265 C2264 1.377 . S
C2265 C2266 1.379 . S
C2266 H2250 0.931 . S
C2266 C2260 1.383 . S
C2266 C2265 1.379 . S
H2267 C2261 0.959 . S
H2268 C2261 0.961 . S
H2269 C2261 0.960 . S
H2270 C2262 0.930 . S
H2271 C2263 0.929 . S
H2272 C2280 0.929 . S
H2273 C2282 0.930 . S
H2274 C2284 0.930 . S
H2275 C2287 0.929 . S
H2276 C2290 0.930 . S
H2277 C2292 0.960 . S
H2278 C2292 0.960 1_545 S
H2279 C2292 0.960 . S
C2280 H2272 0.929 . S
C2280 C2281 1.377 1_545 S
C2280 C2282 1.384 . S
C2281 C2280 1.377 1_565 S
C2281 C2287 1.390 . S
C2282 H2273 0.930 . S
C2282 C2280 1.384 . S
C2282 C2283 1.372 . S
C2283 C2282 1.372 . S
C2283 C2284 1.400 1_545 S
C2283 C2288 1.490 . S
C2284 H2274 0.930 . S
C2284 C2283 1.400 1_565 S
C2284 C2287 1.386 . S
H2285 C2301 0.930 1_565 S
H2286 C2302 0.931 1_565 S
C2287 H2275 0.929 . S
C2287 C2281 1.390 . S
C2287 C2284 1.386 . S
C2288 C2283 1.490 . S
C2288 C2290 1.395 . S
C2288 C2291 1.403 . S
H2289 C2295 0.930 . S
C2290 H2276 0.930 . S
C2290 C2288 1.395 . S
C2290 C2293 1.403 . S
C2291 C2288 1.403 . S
C2291 C2292 1.524 1_545 S
C2291 C2295 1.400 . S
C2292 H2277 0.960 . S
C2292 H2278 0.960 1_565 S
C2292 H2279 0.960 . S
C2292 C2291 1.524 1_565 S
C2293 C2290 1.403 . S
C2293 C2294 1.392 . S
C2293 C2297 1.495 . S
C2294 C2293 1.392 . S
C2294 C2295 1.385 . S
C2294 C2296 1.478 . S
C2295 H2289 0.930 . S
C2295 C2291 1.400 . S
C2295 C2294 1.385 . S
C2296 C2294 1.478 . S
C2296 C2298 1.381 . S
C2296 C2302 1.383 . S
C2297 C2293 1.495 . S
C2297 H2303 0.959 . S
C2297 H2304 0.961 . S
C2297 H2305 0.960 . S
C2298 C2296 1.381 . S
C2298 C2299 1.394 . S
C2298 H2306 0.930 . S
C2299 C2298 1.394 . S
C2299 C2300 1.383 . S
C2299 H2307 0.929 . S
C2300 C2299 1.383 . S
C2300 C2301 1.377 . S
C2301 H2285 0.930 1_545 S
C2301 C2300 1.377 . S
C2301 C2302 1.379 . S
C2302 H2286 0.931 1_545 S
C2302 C2296 1.383 . S
C2302 C2301 1.379 . S
H2303 C2297 0.959 . S
H2304 C2297 0.961 . S
H2305 C2297 0.960 . S
H2306 C2298 0.930 . S
H2307 C2299 0.929 . S
H2308 C2316 0.929 . S
H2309 C2318 0.930 . S
H2310 C2320 0.930 . S
H2311 C2323 0.929 . S
H2312 C2326 0.930 . S
H2313 C2328 0.960 . S
H2314 C2328 0.960 . S
H2315 C2328 0.960 . S
C2316 H2308 0.929 . S
C2316 C2317 1.377 . S
C2316 C2318 1.384 . S
C2317 C2316 1.377 . S
C2317 C2323 1.390 . S
C2318 H2309 0.930 . S
C2318 C2316 1.384 . S
C2318 C2319 1.372 . S
C2319 C2318 1.372 . S
C2319 C2320 1.400 . S
C2319 C2324 1.490 . S
C2320 H2310 0.930 . S
C2320 C2319 1.400 . S
C2320 C2323 1.386 . S
H2321 C2337 0.930 . S
H2322 C2338 0.931 . S
C2323 H2311 0.929 . S
C2323 C2317 1.390 . S
C2323 C2320 1.386 . S
C2324 C2319 1.490 . S
C2324 C2326 1.395 . S
C2324 C2327 1.403 . S
H2325 C2331 0.930 . S
C2326 H2312 0.930 . S
C2326 C2324 1.395 . S
C2326 C2329 1.403 . S
C2327 C2324 1.403 . S
C2327 C2328 1.524 . S
C2327 C2331 1.400 . S
C2328 H2313 0.960 . S
C2328 H2314 0.960 . S
C2328 H2315 0.960 . S
C2328 C2327 1.524 . S
C2329 C2326 1.403 . S
C2329 C2330 1.392 . S
C2329 C2333 1.495 . S
C2330 C2329 1.392 . S
C2330 C2331 1.385 . S
C2330 C2332 1.478 . S
C2331 H2325 0.930 . S
C2331 C2327 1.400 . S
C2331 C2330 1.385 . S
C2332 C2330 1.478 . S
C2332 C2334 1.381 . S
C2332 C2338 1.383 . S
C2333 C2329 1.495 . S
C2333 H2339 0.959 . S
C2333 H2340 0.961 . S
C2333 H2341 0.960 . S
C2334 C2332 1.381 . S
C2334 C2335 1.394 . S
C2334 H2342 0.930 . S
C2335 C2334 1.394 . S
C2335 C2336 1.383 . S
C2335 H2343 0.929 . S
C2336 C2335 1.383 . S
C2336 C2337 1.377 . S
C2337 H2321 0.930 . S
C2337 C2336 1.377 . S
C2337 C2338 1.379 . S
C2338 H2322 0.931 . S
C2338 C2332 1.383 . S
C2338 C2337 1.379 . S
H2339 C2333 0.959 . S
H2340 C2333 0.961 . S
H2341 C2333 0.960 . S
H2342 C2334 0.930 . S
H2343 C2335 0.929 . S
H2344 C2352 0.929 . S
H2345 C2354 0.930 . S
H2346 C2356 0.927 . S
H2347 C2359 0.929 . S
H2348 C2362 0.930 . S
H2349 C2364 0.960 . S
H2350 C2364 0.960 . S
H2351 C2364 0.960 . S
C2352 H2344 0.929 . S
C2352 C2353 1.377 . S
C2352 C2354 1.384 . S
C2353 C2352 1.377 . S
C2353 C2359 1.390 . S
C2354 H2345 0.930 . S
C2354 C2352 1.384 . S
C2354 C2355 1.372 . S
C2355 C2354 1.372 . S
C2355 C2356 1.400 . S
C2355 C2360 1.490 . S
C2356 H2346 0.927 . S
C2356 C2355 1.400 . S
C2356 C2359 1.386 . S
H2357 C2373 0.930 . S
H2358 C2374 0.931 . S
C2359 H2347 0.929 . S
C2359 C2353 1.390 . S
C2359 C2356 1.386 . S
C2360 C2355 1.490 . S
C2360 C2362 1.395 1_545 S
C2360 C2363 1.403 . S
H2361 C2367 0.930 . S
C2362 H2348 0.930 . S
C2362 C2360 1.395 1_565 S
C2362 C2365 1.403 . S
C2363 C2360 1.403 . S
C2363 C2364 1.524 . S
C2363 C2367 1.400 . S
C2364 H2349 0.960 . S
C2364 H2350 0.960 . S
C2364 H2351 0.960 . S
C2364 C2363 1.524 . S
C2365 C2362 1.403 . S
C2365 C2366 1.418 . S
C2365 C2369 1.495 . S
C2366 C2365 1.418 . S
C2366 C2367 1.357 1_565 S
C2366 C2368 1.479 . S
C2367 H2361 0.930 . S
C2367 C2363 1.400 . S
C2367 C2366 1.357 1_545 S
C2368 C2366 1.479 . S
C2368 C2370 1.381 1_565 S
C2368 C2374 1.383 . S
C2369 C2365 1.495 . S
C2369 H2375 0.959 . S
C2369 H2376 0.961 . S
C2369 H2377 0.960 . S
C2370 C2368 1.381 1_545 S
C2370 C2371 1.394 . S
C2370 H2378 0.930 . S
C2371 C2370 1.394 . S
C2371 C2372 1.383 1_545 S
C2371 H2379 0.929 . S
C2372 C2371 1.383 1_565 S
C2372 C2373 1.377 . S
C2373 H2357 0.930 . S
C2373 C2372 1.377 . S
C2373 C2374 1.379 . S
C2374 H2358 0.931 . S
C2374 C2368 1.383 . S
C2374 C2373 1.379 . S
H2375 C2369 0.959 . S
H2376 C2369 0.961 . S
H2377 C2369 0.960 . S
H2378 C2370 0.930 . S
H2379 C2371 0.929 . S
H2380 C2388 0.929 . S
H2381 C2390 0.930 . S
H2382 C2392 0.930 . S
H2383 C2395 0.929 . S
H2384 C2398 0.930 . S
H2385 C2400 0.960 . S
H2386 C2400 0.960 . S
H2387 C2400 0.960 . S
C2388 H2380 0.929 . S
C2388 C2389 1.377 . S
C2388 C2390 1.384 . S
C2389 C2388 1.377 . S
C2389 C2395 1.390 . S
C2390 H2381 0.930 . S
C2390 C2388 1.384 . S
C2390 C2391 1.372 . S
C2391 C2390 1.372 . S
C2391 C2392 1.400 . S
C2391 C2396 1.490 . S
C2392 H2382 0.930 . S
C2392 C2391 1.400 . S
C2392 C2395 1.386 . S
H2393 C2409 0.930 . S
H2394 C2410 0.931 . S
C2395 H2383 0.929 . S
C2395 C2389 1.390 . S
C2395 C2392 1.386 . S
C2396 C2391 1.490 . S
C2396 C2398 1.395 . S
C2396 C2399 1.403 . S
H2397 C2403 0.930 . S
C2398 H2384 0.930 . S
C2398 C2396 1.395 . S
C2398 C2401 1.403 . S
C2399 C2396 1.403 . S
C2399 C2400 1.524 . S
C2399 C2403 1.400 . S
C2400 H2385 0.960 . S
C2400 H2386 0.960 . S
C2400 H2387 0.960 . S
C2400 C2399 1.524 . S
C2401 C2398 1.403 . S
C2401 C2402 1.392 . S
C2401 C2405 1.495 . S
C2402 C2401 1.392 . S
C2402 C2403 1.385 . S
C2402 C2404 1.478 . S
C2403 H2397 0.930 . S
C2403 C2399 1.400 . S
C2403 C2402 1.385 . S
C2404 C2402 1.478 . S
C2404 C2406 1.381 . S
C2404 C2410 1.383 . S
C2405 C2401 1.495 . S
C2405 H2411 0.959 . S
C2405 H2412 0.961 . S
C2405 H2413 0.960 . S
C2406 C2404 1.381 . S
C2406 C2407 1.394 . S
C2406 H2414 0.930 . S
C2407 C2406 1.394 . S
C2407 C2408 1.383 . S
C2407 H2415 0.929 . S
C2408 C2407 1.383 . S
C2408 C2409 1.377 . S
C2409 H2393 0.930 . S
C2409 C2408 1.377 . S
C2409 C2410 1.379 . S
C2410 H2394 0.931 . S
C2410 C2404 1.383 . S
C2410 C2409 1.379 . S
H2411 C2405 0.959 . S
H2412 C2405 0.961 . S
H2413 C2405 0.960 . S
H2414 C2406 0.930 . S
H2415 C2407 0.929 . S
H2416 C2424 0.929 . S
H2417 C2426 0.930 . S
H2418 C2428 0.930 . S
H2419 C2431 0.929 . S
H2420 C2434 0.930 . S
H2421 C2436 0.960 . S
H2422 C2436 0.960 . S
H2423 C2436 0.960 . S
C2424 H2416 0.929 . S
C2424 C2425 1.377 . S
C2424 C2426 1.384 . S
C2425 C2424 1.377 . S
C2425 C2431 1.390 . S
C2426 H2417 0.930 . S
C2426 C2424 1.384 . S
C2426 C2427 1.372 . S
C2427 C2426 1.372 . S
C2427 C2428 1.400 . S
C2427 C2432 1.490 1_554 S
C2428 H2418 0.930 . S
C2428 C2427 1.400 . S
C2428 C2431 1.386 . S
H2429 C2445 0.930 . S
H2430 C2446 0.931 . S
C2431 H2419 0.929 . S
C2431 C2425 1.390 . S
C2431 C2428 1.386 . S
C2432 C2427 1.490 1_556 S
C2432 C2434 1.395 . S
C2432 C2435 1.403 1_556 S
H2433 C2439 0.930 . S
C2434 H2420 0.930 . S
C2434 C2432 1.395 . S
C2434 C2437 1.403 . S
C2435 C2432 1.403 1_554 S
C2435 C2436 1.524 . S
C2435 C2439 1.400 . S
C2436 H2421 0.960 . S
C2436 H2422 0.960 . S
C2436 H2423 0.960 . S
C2436 C2435 1.524 . S
C2437 C2434 1.403 . S
C2437 C2438 1.392 . S
C2437 C2441 1.495 . S
C2438 C2437 1.392 . S
C2438 C2439 1.385 1_556 S
C2438 C2440 1.478 . S
C2439 H2433 0.930 . S
C2439 C2435 1.400 . S
C2439 C2438 1.385 1_554 S
C2440 C2438 1.478 . S
C2440 C2442 1.381 . S
C2440 C2446 1.383 . S
C2441 C2437 1.495 . S
C2441 H2447 0.959 . S
C2441 H2448 0.961 . S
C2441 H2449 0.960 . S
C2442 C2440 1.381 . S
C2442 C2443 1.394 . S
C2442 H2450 0.930 . S
C2443 C2442 1.394 . S
C2443 C2444 1.383 . S
C2443 H2451 0.929 . S
C2444 C2443 1.383 . S
C2444 C2445 1.377 . S
C2445 H2429 0.930 . S
C2445 C2444 1.377 . S
C2445 C2446 1.379 . S
C2446 H2430 0.931 . S
C2446 C2440 1.383 . S
C2446 C2445 1.379 . S
H2447 C2441 0.959 . S
H2448 C2441 0.961 . S
H2449 C2441 0.960 . S
H2450 C2442 0.930 . S
H2451 C2443 0.929 . S
H2452 C2460 0.929 . S
H2453 C2462 0.930 . S
H2454 C2464 0.930 . S
H2455 C2467 0.929 . S
H2456 C2470 0.930 . S
H2457 C2472 0.960 . S
H2458 C2472 0.960 . S
H2459 C2472 0.960 . S
C2460 H2452 0.929 . S
C2460 C2461 1.377 . S
C2460 C2462 1.384 . S
C2461 C2460 1.377 . S
C2461 C2467 1.390 . S
C2462 H2453 0.930 . S
C2462 C2460 1.384 . S
C2462 C2463 1.372 . S
C2463 C2462 1.372 . S
C2463 C2464 1.400 . S
C2463 C2468 1.490 . S
C2464 H2454 0.930 . S
C2464 C2463 1.400 . S
C2464 C2467 1.386 . S
H2465 C2481 0.930 . S
H2466 C2482 0.931 . S
C2467 H2455 0.929 . S
C2467 C2461 1.390 . S
C2467 C2464 1.386 . S
C2468 C2463 1.490 . S
C2468 C2470 1.395 . S
C2468 C2471 1.403 . S
H2469 C2475 0.930 1_556 S
C2470 H2456 0.930 . S
C2470 C2468 1.395 . S
C2470 C2473 1.403 . S
C2471 C2468 1.403 . S
C2471 C2472 1.524 1_554 S
C2471 C2475 1.400 . S
C2472 H2457 0.960 . S
C2472 H2458 0.960 . S
C2472 H2459 0.960 . S
C2472 C2471 1.524 1_556 S
C2473 C2470 1.403 . S
C2473 C2474 1.392 . S
C2473 C2477 1.495 . S
C2474 C2473 1.392 . S
C2474 C2475 1.385 . S
C2474 C2476 1.478 . S
C2475 H2469 0.930 1_554 S
C2475 C2471 1.400 . S
C2475 C2474 1.385 . S
C2476 C2474 1.478 . S
C2476 C2478 1.381 . S
C2476 C2482 1.383 . S
C2477 C2473 1.495 . S
C2477 H2483 0.959 . S
C2477 H2484 0.961 . S
C2477 H2485 0.960 . S
C2478 C2476 1.381 . S
C2478 C2479 1.394 . S
C2478 H2486 0.930 . S
C2479 C2478 1.394 . S
C2479 C2480 1.383 . S
C2479 H2487 0.929 . S
C2480 C2479 1.383 . S
C2480 C2481 1.377 . S
C2481 H2465 0.930 . S
C2481 C2480 1.377 . S
C2481 C2482 1.379 . S
C2482 H2466 0.931 . S
C2482 C2476 1.383 . S
C2482 C2481 1.379 . S
H2483 C2477 0.959 . S
H2484 C2477 0.961 . S
H2485 C2477 0.960 . S
H2486 C2478 0.930 . S
H2487 C2479 0.929 . S
H2488 C2496 0.929 . S
H2489 C2498 0.930 . S
H2490 C2500 0.930 . S
H2491 C2503 0.929 . S
H2492 C2506 0.930 . S
H2493 C2508 0.960 . S
H2494 C2508 0.960 . S
H2495 C2508 0.960 . S
C2496 H2488 0.929 . S
C2496 C2497 1.377 . S
C2496 C2498 1.384 . S
C2497 C2496 1.377 . S
C2497 C2503 1.390 . S
C2498 H2489 0.930 . S
C2498 C2496 1.384 . S
C2498 C2499 1.372 . S
C2499 C2498 1.372 . S
C2499 C2500 1.400 . S
C2499 C2504 1.490 . S
C2500 H2490 0.930 . S
C2500 C2499 1.400 . S
C2500 C2503 1.386 . S
H2501 C2517 0.930 . S
H2502 C2518 0.931 . S
C2503 H2491 0.929 . S
C2503 C2497 1.390 . S
C2503 C2500 1.386 . S
C2504 C2499 1.490 . S
C2504 C2506 1.395 . S
C2504 C2507 1.403 . S
H2505 C2511 0.930 . S
C2506 H2492 0.930 . S
C2506 C2504 1.395 . S
C2506 C2509 1.403 . S
C2507 C2504 1.403 . S
C2507 C2508 1.524 . S
C2507 C2511 1.400 . S
C2508 H2493 0.960 . S
C2508 H2494 0.960 . S
C2508 H2495 0.960 . S
C2508 C2507 1.524 . S
C2509 C2506 1.403 . S
C2509 C2510 1.392 . S
C2509 C2513 1.495 . S
C2510 C2509 1.392 . S
C2510 C2511 1.385 . S
C2510 C2512 1.478 . S
C2511 H2505 0.930 . S
C2511 C2507 1.400 . S
C2511 C2510 1.385 . S
C2512 C2510 1.478 . S
C2512 C2514 1.381 . S
C2512 C2518 1.383 . S
C2513 C2509 1.495 . S
C2513 H2519 0.959 . S
C2513 H2520 0.961 . S
C2513 H2521 0.960 . S
C2514 C2512 1.381 . S
C2514 C2515 1.394 . S
C2514 H2522 0.930 . S
C2515 C2514 1.394 . S
C2515 C2516 1.383 . S
C2515 H2523 0.929 . S
C2516 C2515 1.383 . S
C2516 C2517 1.377 . S
C2517 H2501 0.930 . S
C2517 C2516 1.377 . S
C2517 C2518 1.379 . S
C2518 H2502 0.931 . S
C2518 C2512 1.383 . S
C2518 C2517 1.379 . S
H2519 C2513 0.959 . S
H2520 C2513 0.961 . S
H2521 C2513 0.960 . S
H2522 C2514 0.930 . S
H2523 C2515 0.929 . S
H2524 C2532 0.929 . S
H2525 C2534 0.930 . S
H2526 C2536 0.930 . S
H2527 C2539 0.929 . S
H2528 C2542 0.930 . S
H2529 C2544 0.960 . S
H2530 C2544 0.960 . S
H2531 C2544 0.960 . S
C2532 H2524 0.929 . S
C2532 C2533 1.377 . S
C2532 C2534 1.384 . S
C2533 C2532 1.377 . S
C2533 C2539 1.390 . S
C2534 H2525 0.930 . S
C2534 C2532 1.384 . S
C2534 C2535 1.372 . S
C2535 C2534 1.372 . S
C2535 C2536 1.400 . S
C2535 C2540 1.490 . S
C2536 H2526 0.930 . S
C2536 C2535 1.400 . S
C2536 C2539 1.386 . S
H2537 C2553 0.930 . S
H2538 C2554 0.931 . S
C2539 H2527 0.929 . S
C2539 C2533 1.390 . S
C2539 C2536 1.386 . S
C2540 C2535 1.490 . S
C2540 C2542 1.395 . S
C2540 C2543 1.403 . S
H2541 C2547 0.930 . S
C2542 H2528 0.930 . S
C2542 C2540 1.395 . S
C2542 C2545 1.403 . S
C2543 C2540 1.403 . S
C2543 C2544 1.524 . S
C2543 C2547 1.400 . S
C2544 H2529 0.960 . S
C2544 H2530 0.960 . S
C2544 H2531 0.960 . S
C2544 C2543 1.524 . S
C2545 C2542 1.403 . S
C2545 C2546 1.392 . S
C2545 C2549 1.495 . S
C2546 C2545 1.392 . S
C2546 C2547 1.385 . S
C2546 C2548 1.478 . S
C2547 H2541 0.930 . S
C2547 C2543 1.400 . S
C2547 C2546 1.385 . S
C2548 C2546 1.478 . S
C2548 C2550 1.381 . S
C2548 C2554 1.383 . S
C2549 C2545 1.495 . S
C2549 H2555 0.959 . S
C2549 H2556 0.961 . S
C2549 H2557 0.960 . S
C2550 C2548 1.381 . S
C2550 C2551 1.394 . S
C2550 H2558 0.930 . S
C2551 C2550 1.394 . S
C2551 C2552 1.383 . S
C2551 H2559 0.929 . S
C2552 C2551 1.383 . S
C2552 C2553 1.377 . S
C2553 H2537 0.930 . S
C2553 C2552 1.377 . S
C2553 C2554 1.379 . S
C2554 H2538 0.931 . S
C2554 C2548 1.383 . S
C2554 C2553 1.379 . S
H2555 C2549 0.959 . S
H2556 C2549 0.961 . S
H2557 C2549 0.960 . S
H2558 C2550 0.930 . S
H2559 C2551 0.929 . S
H2560 C2568 0.929 . S
H2561 C2570 0.930 . S
H2562 C2572 0.930 . S
H2563 C2575 0.912 1_545 S
H2564 C2578 0.930 . S
H2565 C2580 0.960 . S
H2566 C2580 0.960 . S
H2567 C2580 0.960 . S
C2568 H2560 0.929 . S
C2568 C2569 1.377 . S
C2568 C2570 1.384 1_545 S
C2569 C2568 1.377 . S
C2569 C2575 1.367 1_545 S
C2570 H2561 0.930 . S
C2570 C2568 1.384 1_565 S
C2570 C2571 1.372 . S
C2571 C2570 1.372 . S
C2571 C2572 1.400 . S
C2571 C2576 1.490 . S
C2572 H2562 0.930 . S
C2572 C2571 1.400 . S
C2572 C2575 1.428 . S
H2573 C2589 0.930 . S
H2574 C2590 0.931 . S
C2575 H2563 0.912 1_565 S
C2575 C2569 1.367 1_565 S
C2575 C2572 1.428 . S
C2576 C2571 1.490 . S
C2576 C2578 1.395 . S
C2576 C2579 1.403 . S
H2577 C2583 0.930 . S
C2578 H2564 0.930 . S
C2578 C2576 1.395 . S
C2578 C2581 1.403 . S
C2579 C2576 1.403 . S
C2579 C2580 1.524 . S
C2579 C2583 1.400 . S
C2580 H2565 0.960 . S
C2580 H2566 0.960 . S
C2580 H2567 0.960 . S
C2580 C2579 1.524 . S
C2581 C2578 1.403 . S
C2581 C2582 1.392 . S
C2581 C2585 1.495 . S
C2582 C2581 1.392 . S
C2582 C2583 1.385 . S
C2582 C2584 1.478 . S
C2583 H2577 0.930 . S
C2583 C2579 1.400 . S
C2583 C2582 1.385 . S
C2584 C2582 1.478 . S
C2584 C2586 1.381 . S
C2584 C2590 1.383 . S
C2585 C2581 1.495 . S
C2585 H2591 0.959 . S
C2585 H2592 0.961 . S
C2585 H2593 0.960 . S
C2586 C2584 1.381 . S
C2586 C2587 1.394 . S
C2586 H2594 0.930 . S
C2587 C2586 1.394 . S
C2587 C2588 1.383 . S
C2587 H2595 0.929 . S
C2588 C2587 1.383 . S
C2588 C2589 1.377 . S
C2589 H2573 0.930 . S
C2589 C2588 1.377 . S
C2589 C2590 1.379 . S
C2590 H2574 0.931 . S
C2590 C2584 1.383 . S
C2590 C2589 1.379 . S
H2591 C2585 0.959 . S
H2592 C2585 0.961 . S
H2593 C2585 0.960 . S
H2594 C2586 0.930 . S
H2595 C2587 0.929 . S
H2596 C2604 0.929 . S
H2597 C2606 0.930 . S
H2598 C2608 0.930 . S
H2599 C2611 0.929 . S
H2600 C2614 0.930 . S
H2601 C2616 0.960 . S
H2602 C2616 0.960 . S
H2603 C2616 0.960 . S
C2604 H2596 0.929 . S
C2604 C2605 1.377 . S
C2604 C2606 1.384 . S
C2605 C2604 1.377 . S
C2605 C2611 1.390 . S
C2606 H2597 0.930 . S
C2606 C2604 1.384 . S
C2606 C2607 1.372 . S
C2607 C2606 1.372 . S
C2607 C2608 1.400 . S
C2607 C2612 1.490 . S
C2608 H2598 0.930 . S
C2608 C2607 1.400 . S
C2608 C2611 1.386 . S
H2609 C2625 0.930 . S
H2610 C2626 0.931 . S
C2611 H2599 0.929 . S
C2611 C2605 1.390 . S
C2611 C2608 1.386 . S
C2612 C2607 1.490 . S
C2612 C2614 1.395 . S
C2612 C2615 1.403 . S
H2613 C2619 0.930 . S
C2614 H2600 0.930 . S
C2614 C2612 1.395 . S
C2614 C2617 1.403 . S
C2615 C2612 1.403 . S
C2615 C2616 1.524 . S
C2615 C2619 1.400 . S
C2616 H2601 0.960 . S
C2616 H2602 0.960 . S
C2616 H2603 0.960 . S
C2616 C2615 1.524 . S
C2617 C2614 1.403 . S
C2617 C2618 1.392 . S
C2617 C2621 1.495 . S
C2618 C2617 1.392 . S
C2618 C2619 1.385 . S
C2618 C2620 1.478 . S
C2619 H2613 0.930 . S
C2619 C2615 1.400 . S
C2619 C2618 1.385 . S
C2620 C2618 1.478 . S
C2620 C2622 1.381 . S
C2620 C2626 1.383 . S
C2621 C2617 1.495 . S
C2621 H2627 0.959 . S
C2621 H2628 0.961 . S
C2621 H2629 0.960 . S
C2622 C2620 1.381 . S
C2622 C2623 1.394 . S
C2622 H2630 0.930 . S
C2623 C2622 1.394 . S
C2623 C2624 1.383 . S
C2623 H2631 0.929 . S
C2624 C2623 1.383 . S
C2624 C2625 1.377 . S
C2625 H2609 0.930 . S
C2625 C2624 1.377 . S
C2625 C2626 1.379 . S
C2626 H2610 0.931 . S
C2626 C2620 1.383 . S
C2626 C2625 1.379 . S
H2627 C2621 0.959 . S
H2628 C2621 0.961 . S
H2629 C2621 0.960 . S
H2630 C2622 0.930 . S
H2631 C2623 0.929 . S
H2632 C2640 0.929 . S
H2633 C2642 0.930 . S
H2634 C2644 0.930 . S
H2635 C2647 0.929 . S
H2636 C2650 0.930 . S
H2637 C2652 0.960 . S
H2638 C2652 0.960 . S
H2639 C2652 0.960 . S
C2640 H2632 0.929 . S
C2640 C2641 1.377 . S
C2640 C2642 1.384 . S
C2641 C2640 1.377 . S
C2641 C2647 1.390 . S
C2642 H2633 0.930 . S
C2642 C2640 1.384 . S
C2642 C2643 1.372 . S
C2643 C2642 1.372 . S
C2643 C2644 1.400 . S
C2643 C2648 1.490 . S
C2644 H2634 0.930 . S
C2644 C2643 1.400 . S
C2644 C2647 1.386 . S
H2645 C2661 0.930 . S
H2646 C2662 0.931 . S
C2647 H2635 0.929 . S
C2647 C2641 1.390 . S
C2647 C2644 1.386 . S
C2648 C2643 1.490 . S
C2648 C2650 1.395 . S
C2648 C2651 1.403 . S
H2649 C2655 0.930 . S
C2650 H2636 0.930 . S
C2650 C2648 1.395 . S
C2650 C2653 1.403 . S
C2651 C2648 1.403 . S
C2651 C2652 1.524 . S
C2651 C2655 1.400 . S
C2652 H2637 0.960 . S
C2652 H2638 0.960 . S
C2652 H2639 0.960 . S
C2652 C2651 1.524 . S
C2653 C2650 1.403 . S
C2653 C2654 1.392 . S
C2653 C2657 1.495 . S
C2654 C2653 1.392 . S
C2654 C2655 1.385 . S
C2654 C2656 1.478 . S
C2655 H2649 0.930 . S
C2655 C2651 1.400 . S
C2655 C2654 1.385 . S
C2656 C2654 1.478 . S
C2656 C2658 1.381 . S
C2656 C2662 1.383 . S
C2657 C2653 1.495 . S
C2657 H2663 0.959 . S
C2657 H2664 0.961 . S
C2657 H2665 0.960 . S
C2658 C2656 1.381 . S
C2658 C2659 1.394 . S
C2658 H2666 0.930 . S
C2659 C2658 1.394 . S
C2659 C2660 1.383 . S
C2659 H2667 0.929 . S
C2660 C2659 1.383 . S
C2660 C2661 1.377 . S
C2661 H2645 0.930 . S
C2661 C2660 1.377 . S
C2661 C2662 1.379 . S
C2662 H2646 0.931 . S
C2662 C2656 1.383 . S
C2662 C2661 1.379 . S
H2663 C2657 0.959 . S
H2664 C2657 0.961 . S
H2665 C2657 0.960 . S
H2666 C2658 0.930 . S
H2667 C2659 0.929 . S
H2668 C2676 0.929 . S
H2669 C2678 0.930 . S
H2670 C2680 0.930 . S
H2671 C2683 0.929 . S
H2672 C2686 0.930 . S
H2673 C2688 0.960 . S
H2674 C2688 0.960 . S
H2675 C2688 0.960 . S
C2676 H2668 0.929 . S
C2676 C2677 1.377 . S
C2676 C2678 1.384 . S
C2677 C2676 1.377 . S
C2677 C2683 1.390 . S
C2678 H2669 0.930 . S
C2678 C2676 1.384 . S
C2678 C2679 1.372 . S
C2679 C2678 1.372 . S
C2679 C2680 1.400 . S
C2679 C2684 1.490 . S
C2680 H2670 0.930 . S
C2680 C2679 1.400 . S
C2680 C2683 1.386 . S
H2681 C2697 0.930 . S
H2682 C2698 0.931 . S
C2683 H2671 0.929 . S
C2683 C2677 1.390 . S
C2683 C2680 1.386 . S
C2684 C2679 1.490 . S
C2684 C2686 1.395 . S
C2684 C2687 1.403 . S
H2685 C2691 0.930 . S
C2686 H2672 0.930 . S
C2686 C2684 1.395 . S
C2686 C2689 1.403 . S
C2687 C2684 1.403 . S
C2687 C2688 1.524 . S
C2687 C2691 1.400 . S
C2688 H2673 0.960 . S
C2688 H2674 0.960 . S
C2688 H2675 0.960 . S
C2688 C2687 1.524 . S
C2689 C2686 1.403 . S
C2689 C2690 1.392 . S
C2689 C2693 1.495 . S
C2690 C2689 1.392 . S
C2690 C2691 1.385 . S
C2690 C2692 1.478 . S
C2691 H2685 0.930 . S
C2691 C2687 1.400 . S
C2691 C2690 1.385 . S
C2692 C2690 1.478 . S
C2692 C2694 1.381 . S
C2692 C2698 1.383 . S
C2693 C2689 1.495 . S
C2693 H2699 0.959 . S
C2693 H2700 0.961 . S
C2693 H2701 0.960 . S
C2694 C2692 1.381 . S
C2694 C2695 1.394 . S
C2694 H2702 0.930 . S
C2695 C2694 1.394 . S
C2695 C2696 1.383 . S
C2695 H2703 0.929 . S
C2696 C2695 1.383 . S
C2696 C2697 1.377 . S
C2697 H2681 0.930 . S
C2697 C2696 1.377 . S
C2697 C2698 1.379 . S
C2698 H2682 0.931 . S
C2698 C2692 1.383 . S
C2698 C2697 1.379 . S
H2699 C2693 0.959 . S
H2700 C2693 0.961 . S
H2701 C2693 0.960 . S
H2702 C2694 0.930 . S
H2703 C2695 0.929 . S
H2704 C2712 0.929 . S
H2705 C2714 0.930 . S
H2706 C2716 0.930 . S
H2707 C2719 0.929 . S
H2708 C2722 0.930 . S
H2709 C2724 0.960 . S
H2710 C2724 0.960 . S
H2711 C2724 0.960 . S
C2712 H2704 0.929 . S
C2712 C2713 1.377 . S
C2712 C2714 1.384 . S
C2713 C2712 1.377 . S
C2713 C2719 1.390 . S
C2714 H2705 0.930 . S
C2714 C2712 1.384 . S
C2714 C2715 1.372 . S
C2715 C2714 1.372 . S
C2715 C2716 1.400 . S
C2715 C2720 1.490 . S
C2716 H2706 0.930 . S
C2716 C2715 1.400 . S
C2716 C2719 1.386 . S
H2717 C2733 0.930 . S
H2718 C2734 0.931 . S
C2719 H2707 0.929 . S
C2719 C2713 1.390 . S
C2719 C2716 1.386 . S
C2720 C2715 1.490 . S
C2720 C2722 1.395 . S
C2720 C2723 1.403 . S
H2721 C2727 0.930 . S
C2722 H2708 0.930 . S
C2722 C2720 1.395 . S
C2722 C2725 1.403 . S
C2723 C2720 1.403 . S
C2723 C2724 1.524 . S
C2723 C2727 1.400 . S
C2724 H2709 0.960 . S
C2724 H2710 0.960 . S
C2724 H2711 0.960 . S
C2724 C2723 1.524 . S
C2725 C2722 1.403 . S
C2725 C2726 1.392 . S
C2725 C2729 1.495 . S
C2726 C2725 1.392 . S
C2726 C2727 1.385 . S
C2726 C2728 1.478 . S
C2727 H2721 0.930 . S
C2727 C2723 1.400 . S
C2727 C2726 1.385 . S
C2728 C2726 1.478 . S
C2728 C2730 1.381 . S
C2728 C2734 1.383 . S
C2729 C2725 1.495 . S
C2729 H2735 0.959 . S
C2729 H2736 0.961 . S
C2729 H2737 0.960 . S
C2730 C2728 1.381 . S
C2730 C2731 1.394 . S
C2730 H2738 0.930 . S
C2731 C2730 1.394 . S
C2731 C2732 1.383 . S
C2731 H2739 0.929 . S
C2732 C2731 1.383 . S
C2732 C2733 1.377 . S
C2733 H2717 0.930 . S
C2733 C2732 1.377 . S
C2733 C2734 1.379 . S
C2734 H2718 0.931 . S
C2734 C2728 1.383 . S
C2734 C2733 1.379 . S
H2735 C2729 0.959 . S
H2736 C2729 0.961 . S
H2737 C2729 0.960 . S
H2738 C2730 0.930 . S
H2739 C2731 0.929 . S
H2740 C2748 0.929 . S
H2741 C2750 0.930 . S
H2742 C2752 0.930 . S
H2743 C2755 0.929 . S
H2744 C2758 0.930 . S
H2745 C2760 0.960 . S
H2746 C2760 0.960 . S
H2747 C2760 0.960 . S
C2748 H2740 0.929 . S
C2748 C2749 1.377 . S
C2748 C2750 1.384 . S
C2749 C2748 1.377 . S
C2749 C2755 1.390 . S
C2750 H2741 0.930 . S
C2750 C2748 1.384 . S
C2750 C2751 1.372 . S
C2751 C2750 1.372 . S
C2751 C2752 1.400 . S
C2751 C2756 1.490 . S
C2752 H2742 0.930 . S
C2752 C2751 1.400 . S
C2752 C2755 1.386 . S
H2753 C2769 0.930 . S
H2754 C2770 0.931 . S
C2755 H2743 0.929 . S
C2755 C2749 1.390 . S
C2755 C2752 1.386 . S
C2756 C2751 1.490 . S
C2756 C2758 1.395 . S
C2756 C2759 1.403 . S
H2757 C2763 0.930 . S
C2758 H2744 0.930 . S
C2758 C2756 1.395 . S
C2758 C2761 1.403 . S
C2759 C2756 1.403 . S
C2759 C2760 1.524 . S
C2759 C2763 1.400 . S
C2760 H2745 0.960 . S
C2760 H2746 0.960 . S
C2760 H2747 0.960 . S
C2760 C2759 1.524 . S
C2761 C2758 1.403 . S
C2761 C2762 1.392 . S
C2761 C2765 1.495 . S
C2762 C2761 1.392 . S
C2762 C2763 1.385 . S
C2762 C2764 1.478 . S
C2763 H2757 0.930 . S
C2763 C2759 1.400 . S
C2763 C2762 1.385 . S
C2764 C2762 1.478 . S
C2764 C2766 1.381 . S
C2764 C2770 1.383 . S
C2765 C2761 1.495 . S
C2765 H2771 0.959 . S
C2765 H2772 0.961 . S
C2765 H2773 0.960 . S
C2766 C2764 1.381 . S
C2766 C2767 1.394 . S
C2766 H2774 0.930 . S
C2767 C2766 1.394 . S
C2767 C2768 1.383 . S
C2767 H2775 0.929 . S
C2768 C2767 1.383 . S
C2768 C2769 1.377 . S
C2769 H2753 0.930 . S
C2769 C2768 1.377 . S
C2769 C2770 1.379 . S
C2770 H2754 0.931 . S
C2770 C2764 1.383 . S
C2770 C2769 1.379 . S
H2771 C2765 0.959 . S
H2772 C2765 0.961 . S
H2773 C2765 0.960 . S
H2774 C2766 0.930 . S
H2775 C2767 0.929 . S
H2776 C2784 0.929 1_655 S
H2777 C2786 0.930 1_655 S
H2778 C2788 0.930 . S
H2779 C2791 0.929 . S
H2780 C2794 0.930 . S
H2781 C2796 0.960 . S
H2782 C2796 0.960 . S
H2783 C2796 0.960 . S
C2784 H2776 0.929 1_455 S
C2784 C2785 1.377 . S
C2784 C2786 1.384 . S
C2785 C2784 1.377 . S
C2785 C2791 1.390 . S
C2786 H2777 0.930 1_455 S
C2786 C2784 1.384 . S
C2786 C2787 1.372 . S
C2787 C2786 1.372 . S
C2787 C2788 1.400 . S
C2787 C2792 1.490 . S
C2788 H2778 0.930 . S
C2788 C2787 1.400 . S
C2788 C2791 1.386 . S
H2789 C2805 0.930 . S
H2790 C2806 0.931 . S
C2791 H2779 0.929 . S
C2791 C2785 1.390 . S
C2791 C2788 1.386 . S
C2792 C2787 1.490 . S
C2792 C2794 1.395 . S
C2792 C2795 1.403 . S
H2793 C2799 0.930 . S
C2794 H2780 0.930 . S
C2794 C2792 1.395 . S
C2794 C2797 1.403 . S
C2795 C2792 1.403 . S
C2795 C2796 1.524 . S
C2795 C2799 1.400 . S
C2796 H2781 0.960 . S
C2796 H2782 0.960 . S
C2796 H2783 0.960 . S
C2796 C2795 1.524 . S
C2797 C2794 1.403 . S
C2797 C2798 1.392 . S
C2797 C2801 1.495 1_556 S
C2798 C2797 1.392 . S
C2798 C2799 1.385 . S
C2798 C2800 1.478 . S
C2799 H2793 0.930 . S
C2799 C2795 1.400 . S
C2799 C2798 1.385 . S
C2800 C2798 1.478 . S
C2800 C2802 1.381 . S
C2800 C2806 1.383 . S
C2801 C2797 1.495 1_554 S
C2801 H2807 0.959 . S
C2801 H2808 0.961 . S
C2801 H2809 0.933 1_455 S
C2802 C2800 1.381 . S
C2802 C2803 1.394 . S
C2802 H2810 0.887 1_455 S
C2803 C2802 1.394 . S
C2803 C2804 1.383 1_556 S
C2803 H2811 0.929 . S
C2804 C2803 1.383 1_554 S
C2804 C2805 1.377 . S
C2805 H2789 0.930 . S
C2805 C2804 1.377 . S
C2805 C2806 1.379 1_554 S
C2806 H2790 0.931 . S
C2806 C2800 1.383 . S
C2806 C2805 1.379 1_556 S
H2807 C2801 0.959 . S
H2808 C2801 0.961 . S
H2809 C2801 0.933 1_655 S
H2810 C2802 0.887 1_655 S
H2811 C2803 0.929 . S
H2812 C2820 0.929 . S
H2813 C2822 0.930 . S
H2814 C2824 0.950 . S
H2815 C2827 0.929 . S
H2816 C2830 0.930 . S
H2817 C2832 0.960 . S
H2818 C2832 0.960 . S
H2819 C2832 0.960 . S
C2820 H2812 0.929 . S
C2820 C2821 1.377 . S
C2820 C2822 1.384 1_455 S
C2821 C2820 1.377 . S
C2821 C2827 1.390 . S
C2822 H2813 0.930 . S
C2822 C2820 1.384 1_655 S
C2822 C2823 1.372 . S
C2823 C2822 1.372 . S
C2823 C2824 1.400 1_655 S
C2823 C2828 1.490 . S
C2824 H2814 0.950 . S
C2824 C2823 1.400 1_455 S
C2824 C2827 1.386 . S
H2825 C2841 0.930 . S
H2826 C2842 0.931 . S
C2827 H2815 0.929 . S
C2827 C2821 1.390 . S
C2827 C2824 1.386 . S
C2828 C2823 1.490 . S
C2828 C2830 1.395 . S
C2828 C2831 1.403 . S
H2829 C2835 0.930 . S
C2830 H2816 0.930 . S
C2830 C2828 1.395 . S
C2830 C2833 1.403 . S
C2831 C2828 1.403 . S
C2831 C2832 1.524 . S
C2831 C2835 1.400 . S
C2832 H2817 0.960 . S
C2832 H2818 0.960 . S
C2832 H2819 0.960 . S
C2832 C2831 1.524 . S
C2833 C2830 1.403 . S
C2833 C2834 1.392 . S
C2833 C2837 1.495 . S
C2834 C2833 1.392 . S
C2834 C2835 1.385 . S
C2834 C2836 1.478 . S
C2835 H2829 0.930 . S
C2835 C2831 1.400 . S
C2835 C2834 1.385 . S
C2836 C2834 1.478 . S
C2836 C2838 1.381 . S
C2836 C2842 1.383 . S
C2837 C2833 1.495 . S
C2837 H2843 0.959 . S
C2837 H2844 0.961 . S
C2837 H2845 0.960 . S
C2838 C2836 1.381 . S
C2838 C2839 1.394 . S
C2838 H2846 0.930 . S
C2839 C2838 1.394 . S
C2839 C2840 1.383 . S
C2839 H2847 0.929 . S
C2840 C2839 1.383 . S
C2840 C2841 1.377 . S
C2841 H2825 0.930 . S
C2841 C2840 1.377 . S
C2841 C2842 1.379 . S
C2842 H2826 0.931 . S
C2842 C2836 1.383 . S
C2842 C2841 1.379 . S
H2843 C2837 0.959 . S
H2844 C2837 0.961 . S
H2845 C2837 0.960 . S
H2846 C2838 0.930 . S
H2847 C2839 0.929 . S
H2848 C2856 0.929 . S
H2849 C2858 0.930 . S
H2850 C2860 0.930 . S
H2851 C2863 0.929 . S
H2852 C2866 0.930 . S
H2853 C2868 0.960 . S
H2854 C2868 0.960 . S
H2855 C2868 0.960 . S
C2856 H2848 0.929 . S
C2856 C2857 1.377 . S
C2856 C2858 1.384 . S
C2857 C2856 1.377 . S
C2857 C2863 1.390 . S
C2858 H2849 0.930 . S
C2858 C2856 1.384 . S
C2858 C2859 1.372 . S
C2859 C2858 1.372 . S
C2859 C2860 1.400 . S
C2859 C2864 1.490 . S
C2860 H2850 0.930 . S
C2860 C2859 1.400 . S
C2860 C2863 1.386 . S
H2861 C2877 0.930 . S
H2862 C2878 0.931 . S
C2863 H2851 0.929 . S
C2863 C2857 1.390 . S
C2863 C2860 1.386 . S
C2864 C2859 1.490 . S
C2864 C2866 1.395 . S
C2864 C2867 1.403 . S
H2865 C2871 0.930 . S
C2866 H2852 0.930 . S
C2866 C2864 1.395 . S
C2866 C2869 1.403 . S
C2867 C2864 1.403 . S
C2867 C2868 1.524 . S
C2867 C2871 1.400 . S
C2868 H2853 0.960 . S
C2868 H2854 0.960 . S
C2868 H2855 0.960 . S
C2868 C2867 1.524 . S
C2869 C2866 1.403 . S
C2869 C2870 1.392 . S
C2869 C2873 1.495 . S
C2870 C2869 1.392 . S
C2870 C2871 1.385 . S
C2870 C2872 1.478 . S
C2871 H2865 0.930 . S
C2871 C2867 1.400 . S
C2871 C2870 1.385 . S
C2872 C2870 1.478 . S
C2872 C2874 1.381 . S
C2872 C2878 1.383 . S
C2873 C2869 1.495 . S
C2873 H2879 0.959 . S
C2873 H2880 0.961 . S
C2873 H2881 0.960 . S
C2874 C2872 1.381 . S
C2874 C2875 1.394 . S
C2874 H2882 0.930 . S
C2875 C2874 1.394 . S
C2875 C2876 1.383 . S
C2875 H2883 0.929 . S
C2876 C2875 1.383 . S
C2876 C2877 1.377 . S
C2877 H2861 0.930 . S
C2877 C2876 1.377 . S
C2877 C2878 1.379 . S
C2878 H2862 0.931 . S
C2878 C2872 1.383 . S
C2878 C2877 1.379 . S
H2879 C2873 0.959 . S
H2880 C2873 0.961 . S
H2881 C2873 0.960 . S
H2882 C2874 0.930 . S
H2883 C2875 0.929 . S
H2884 C2892 0.929 . S
H2885 C2894 0.930 . S
H2886 C2896 0.930 . S
H2887 C2899 0.929 . S
H2888 C2902 0.930 . S
H2889 C2904 0.962 . S
H2890 C2904 0.960 . S
H2891 C2904 0.960 . S
C2892 H2884 0.929 . S
C2892 C2893 1.377 . S
C2892 C2894 1.384 . S
C2893 C2892 1.377 . S
C2893 C2899 1.390 . S
C2894 H2885 0.930 . S
C2894 C2892 1.384 . S
C2894 C2895 1.372 . S
C2895 C2894 1.372 . S
C2895 C2896 1.400 . S
C2895 C2900 1.490 1_455 S
C2896 H2886 0.930 . S
C2896 C2895 1.400 . S
C2896 C2899 1.386 . S
H2897 C2913 0.930 . S
H2898 C2914 0.931 . S
C2899 H2887 0.929 . S
C2899 C2893 1.390 . S
C2899 C2896 1.386 . S
C2900 C2895 1.490 1_655 S
C2900 C2902 1.395 . S
C2900 C2903 1.403 . S
H2901 C2907 0.930 . S
C2902 H2888 0.930 . S
C2902 C2900 1.395 . S
C2902 C2905 1.403 . S
C2903 C2900 1.403 . S
C2903 C2904 1.524 1_655 S
C2903 C2907 1.400 . S
C2904 H2889 0.962 . S
C2904 H2890 0.960 . S
C2904 H2891 0.960 . S
C2904 C2903 1.524 1_455 S
C2905 C2902 1.403 . S
C2905 C2906 1.392 . S
C2905 C2909 1.495 . S
C2906 C2905 1.392 . S
C2906 C2907 1.385 . S
C2906 C2908 1.478 . S
C2907 H2901 0.930 . S
C2907 C2903 1.400 . S
C2907 C2906 1.385 . S
C2908 C2906 1.478 . S
C2908 C2910 1.381 . S
C2908 C2914 1.383 . S
C2909 C2905 1.495 . S
C2909 H2915 0.959 . S
C2909 H2916 0.961 . S
C2909 H2917 0.960 . S
C2910 C2908 1.381 . S
C2910 C2911 1.394 . S
C2910 H2918 0.930 . S
C2911 C2910 1.394 . S
C2911 C2912 1.383 . S
C2911 H2919 0.929 . S
C2912 C2911 1.383 . S
C2912 C2913 1.377 . S
C2913 H2897 0.930 . S
C2913 C2912 1.377 . S
C2913 C2914 1.379 . S
C2914 H2898 0.931 . S
C2914 C2908 1.383 . S
C2914 C2913 1.379 . S
H2915 C2909 0.959 . S
H2916 C2909 0.961 . S
H2917 C2909 0.960 . S
H2918 C2910 0.930 . S
H2919 C2911 0.929 . S
H2920 C2928 0.929 . S
H2921 C2930 0.930 . S
H2922 C2932 0.930 . S
H2923 C2935 0.929 . S
H2924 C2938 0.930 . S
H2925 C2940 0.960 . S
H2926 C2940 0.960 . S
H2927 C2940 0.960 . S
C2928 H2920 0.929 . S
C2928 C2929 1.377 1_455 S
C2928 C2930 1.384 . S
C2929 C2928 1.377 1_655 S
C2929 C2935 1.390 . S
C2930 H2921 0.930 . S
C2930 C2928 1.384 . S
C2930 C2931 1.372 . S
C2931 C2930 1.372 . S
C2931 C2932 1.400 1_455 S
C2931 C2936 1.490 . S
C2932 H2922 0.930 . S
C2932 C2931 1.400 1_655 S
C2932 C2935 1.386 . S
H2933 C2949 0.914 1_655 S
H2934 C2950 0.931 1_655 S
C2935 H2923 0.929 . S
C2935 C2929 1.390 . S
C2935 C2932 1.386 . S
C2936 C2931 1.490 . S
C2936 C2938 1.395 . S
C2936 C2939 1.403 1_455 S
H2937 C2943 0.930 1_655 S
C2938 H2924 0.930 . S
C2938 C2936 1.395 . S
C2938 C2941 1.403 . S
C2939 C2936 1.403 1_655 S
C2939 C2940 1.524 . S
C2939 C2943 1.400 1_655 S
C2940 H2925 0.960 . S
C2940 H2926 0.960 . S
C2940 H2927 0.960 . S
C2940 C2939 1.524 . S
C2941 C2938 1.403 . S
C2941 C2942 1.392 . S
C2941 C2945 1.495 . S
C2942 C2941 1.392 . S
C2942 C2943 1.385 . S
C2942 C2944 1.478 . S
C2943 H2937 0.930 1_455 S
C2943 C2939 1.400 1_455 S
C2943 C2942 1.385 . S
C2944 C2942 1.478 . S
C2944 C2946 1.381 . S
C2944 C2950 1.383 . S
C2945 C2941 1.495 . S
C2945 H2951 0.959 . S
C2945 H2952 0.961 . S
C2945 H2953 0.960 . S
C2946 C2944 1.381 . S
C2946 C2947 1.394 . S
C2946 H2954 0.930 . S
C2947 C2946 1.394 . S
C2947 C2948 1.383 . S
C2947 H2955 0.929 . S
C2948 C2947 1.383 . S
C2948 C2949 1.377 . S
C2949 H2933 0.914 1_455 S
C2949 C2948 1.377 . S
C2949 C2950 1.379 . S
C2950 H2934 0.931 1_455 S
C2950 C2944 1.383 . S
C2950 C2949 1.379 . S
H2951 C2945 0.959 . S
H2952 C2945 0.961 . S
H2953 C2945 0.960 . S
H2954 C2946 0.930 . S
H2955 C2947 0.929 . S
H2956 C2964 0.929 . S
H2957 C2966 0.930 . S
H2958 C2968 0.930 . S
H2959 C2971 0.929 . S
H2960 C2974 0.930 . S
H2961 C2976 0.960 . S
H2962 C2976 0.960 . S
H2963 C2976 0.960 . S
C2964 H2956 0.929 . S
C2964 C2965 1.377 . S
C2964 C2966 1.384 . S
C2965 C2964 1.377 . S
C2965 C2971 1.390 . S
C2966 H2957 0.930 . S
C2966 C2964 1.384 . S
C2966 C2967 1.372 . S
C2967 C2966 1.372 . S
C2967 C2968 1.400 . S
C2967 C2972 1.490 . S
C2968 H2958 0.930 . S
C2968 C2967 1.400 . S
C2968 C2971 1.386 . S
H2969 C2985 0.930 . S
H2970 C2986 0.931 . S
C2971 H2959 0.929 . S
C2971 C2965 1.390 . S
C2971 C2968 1.386 . S
C2972 C2967 1.490 . S
C2972 C2974 1.395 . S
C2972 C2975 1.403 . S
H2973 C2979 0.930 . S
C2974 H2960 0.930 . S
C2974 C2972 1.395 . S
C2974 C2977 1.403 . S
C2975 C2972 1.403 . S
C2975 C2976 1.524 . S
C2975 C2979 1.400 . S
C2976 H2961 0.960 . S
C2976 H2962 0.960 . S
C2976 H2963 0.960 . S
C2976 C2975 1.524 . S
C2977 C2974 1.403 . S
C2977 C2978 1.392 . S
C2977 C2981 1.495 . S
C2978 C2977 1.392 . S
C2978 C2979 1.385 . S
C2978 C2980 1.478 . S
C2979 H2973 0.930 . S
C2979 C2975 1.400 . S
C2979 C2978 1.385 . S
C2980 C2978 1.478 . S
C2980 C2982 1.381 . S
C2980 C2986 1.383 . S
C2981 C2977 1.495 . S
C2981 H2987 0.959 . S
C2981 H2988 0.961 . S
C2981 H2989 0.960 . S
C2982 C2980 1.381 . S
C2982 C2983 1.394 . S
C2982 H2990 0.930 . S
C2983 C2982 1.394 . S
C2983 C2984 1.383 . S
C2983 H2991 0.929 . S
C2984 C2983 1.383 . S
C2984 C2985 1.377 . S
C2985 H2969 0.930 . S
C2985 C2984 1.377 . S
C2985 C2986 1.379 . S
C2986 H2970 0.931 . S
C2986 C2980 1.383 . S
C2986 C2985 1.379 . S
H2987 C2981 0.959 . S
H2988 C2981 0.961 . S
H2989 C2981 0.960 . S
H2990 C2982 0.930 . S
H2991 C2983 0.929 . S
H2992 C3000 0.929 . S
H2993 C3002 0.930 . S
H2994 C3004 0.930 . S
H2995 C3007 0.929 . S
H2996 C3010 0.930 . S
H2997 C3012 0.960 . S
H2998 C3012 0.960 . S
H2999 C3012 0.960 . S
C3000 H2992 0.929 . S
C3000 C3001 1.377 . S
C3000 C3002 1.384 . S
C3001 C3000 1.377 . S
C3001 C3007 1.390 . S
C3002 H2993 0.930 . S
C3002 C3000 1.384 . S
C3002 C3003 1.372 . S
C3003 C3002 1.372 . S
C3003 C3004 1.400 . S
C3003 C3008 1.490 . S
C3004 H2994 0.930 . S
C3004 C3003 1.400 . S
C3004 C3007 1.386 . S
H3005 C3021 0.930 . S
H3006 C3022 0.931 . S
C3007 H2995 0.929 . S
C3007 C3001 1.390 . S
C3007 C3004 1.386 . S
C3008 C3003 1.490 . S
C3008 C3010 1.395 . S
C3008 C3011 1.403 . S
H3009 C3015 0.930 . S
C3010 H2996 0.930 . S
C3010 C3008 1.395 . S
C3010 C3013 1.403 . S
C3011 C3008 1.403 . S
C3011 C3012 1.524 . S
C3011 C3015 1.400 . S
C3012 H2997 0.960 . S
C3012 H2998 0.960 . S
C3012 H2999 0.960 . S
C3012 C3011 1.524 . S
C3013 C3010 1.403 . S
C3013 C3014 1.392 . S
C3013 C3017 1.495 . S
C3014 C3013 1.392 . S
C3014 C3015 1.385 . S
C3014 C3016 1.478 . S
C3015 H3009 0.930 . S
C3015 C3011 1.400 . S
C3015 C3014 1.385 . S
C3016 C3014 1.478 . S
C3016 C3018 1.381 . S
C3016 C3022 1.383 . S
C3017 C3013 1.495 . S
C3017 H3023 0.959 . S
C3017 H3024 0.961 . S
C3017 H3025 0.960 . S
C3018 C3016 1.381 . S
C3018 C3019 1.394 . S
C3018 H3026 0.930 . S
C3019 C3018 1.394 . S
C3019 C3020 1.383 . S
C3019 H3027 0.929 . S
C3020 C3019 1.383 . S
C3020 C3021 1.377 . S
C3021 H3005 0.930 . S
C3021 C3020 1.377 . S
C3021 C3022 1.379 . S
C3022 H3006 0.931 . S
C3022 C3016 1.383 . S
C3022 C3021 1.379 . S
H3023 C3017 0.959 . S
H3024 C3017 0.961 . S
H3025 C3017 0.960 . S
H3026 C3018 0.930 . S
H3027 C3019 0.929 . S
H3028 C3036 0.929 . S
H3029 C3038 0.930 . S
H3030 C3040 0.930 . S
H3031 C3043 0.929 . S
H3032 C3046 0.930 . S
H3033 C3048 0.960 . S
H3034 C3048 0.960 . S
H3035 C3048 0.960 . S
C3036 H3028 0.929 . S
C3036 C3037 1.377 . S
C3036 C3038 1.384 . S
C3037 C3036 1.377 . S
C3037 C3043 1.390 . S
C3038 H3029 0.930 . S
C3038 C3036 1.384 . S
C3038 C3039 1.372 . S
C3039 C3038 1.372 . S
C3039 C3040 1.400 . S
C3039 C3044 1.490 . S
C3040 H3030 0.930 . S
C3040 C3039 1.400 . S
C3040 C3043 1.386 . S
H3041 C3057 0.930 . S
H3042 C3058 0.931 . S
C3043 H3031 0.929 . S
C3043 C3037 1.390 . S
C3043 C3040 1.386 . S
C3044 C3039 1.490 . S
C3044 C3046 1.395 . S
C3044 C3047 1.403 . S
H3045 C3051 0.930 . S
C3046 H3032 0.930 . S
C3046 C3044 1.395 . S
C3046 C3049 1.403 . S
C3047 C3044 1.403 . S
C3047 C3048 1.524 . S
C3047 C3051 1.400 . S
C3048 H3033 0.960 . S
C3048 H3034 0.960 . S
C3048 H3035 0.960 . S
C3048 C3047 1.524 . S
C3049 C3046 1.403 . S
C3049 C3050 1.392 . S
C3049 C3053 1.495 . S
C3050 C3049 1.392 . S
C3050 C3051 1.385 . S
C3050 C3052 1.478 . S
C3051 H3045 0.930 . S
C3051 C3047 1.400 . S
C3051 C3050 1.385 . S
C3052 C3050 1.478 . S
C3052 C3054 1.381 . S
C3052 C3058 1.383 . S
C3053 C3049 1.495 . S
C3053 H3059 0.959 . S
C3053 H3060 0.961 . S
C3053 H3061 0.960 . S
C3054 C3052 1.381 . S
C3054 C3055 1.394 . S
C3054 H3062 0.930 . S
C3055 C3054 1.394 . S
C3055 C3056 1.383 . S
C3055 H3063 0.929 . S
C3056 C3055 1.383 . S
C3056 C3057 1.377 . S
C3057 H3041 0.930 . S
C3057 C3056 1.377 . S
C3057 C3058 1.379 . S
C3058 H3042 0.931 . S
C3058 C3052 1.383 . S
C3058 C3057 1.379 . S
H3059 C3053 0.959 . S
H3060 C3053 0.961 . S
H3061 C3053 0.960 . S
H3062 C3054 0.930 . S
H3063 C3055 0.929 . S
H3064 C3072 0.929 . S
H3065 C3074 0.930 . S
H3066 C3076 0.930 . S
H3067 C3079 0.929 . S
H3068 C3082 0.930 . S
H3069 C3084 0.960 . S
H3070 C3084 0.960 . S
H3071 C3084 0.960 . S
C3072 H3064 0.929 . S
C3072 C3073 1.377 . S
C3072 C3074 1.384 . S
C3073 C3072 1.377 . S
C3073 C3079 1.390 . S
C3074 H3065 0.930 . S
C3074 C3072 1.384 . S
C3074 C3075 1.372 . S
C3075 C3074 1.372 . S
C3075 C3076 1.400 . S
C3075 C3080 1.490 . S
C3076 H3066 0.930 . S
C3076 C3075 1.400 . S
C3076 C3079 1.386 . S
H3077 C3093 0.930 . S
H3078 C3094 0.931 . S
C3079 H3067 0.929 . S
C3079 C3073 1.390 . S
C3079 C3076 1.386 . S
C3080 C3075 1.490 . S
C3080 C3082 1.395 . S
C3080 C3083 1.403 . S
H3081 C3087 0.930 . S
C3082 H3068 0.930 . S
C3082 C3080 1.395 . S
C3082 C3085 1.403 . S
C3083 C3080 1.403 . S
C3083 C3084 1.524 . S
C3083 C3087 1.400 . S
C3084 H3069 0.960 . S
C3084 H3070 0.960 . S
C3084 H3071 0.960 . S
C3084 C3083 1.524 . S
C3085 C3082 1.403 . S
C3085 C3086 1.392 . S
C3085 C3089 1.495 . S
C3086 C3085 1.392 . S
C3086 C3087 1.385 . S
C3086 C3088 1.478 . S
C3087 H3081 0.930 . S
C3087 C3083 1.400 . S
C3087 C3086 1.385 . S
C3088 C3086 1.478 . S
C3088 C3090 1.381 . S
C3088 C3094 1.383 . S
C3089 C3085 1.495 . S
C3089 H3095 0.959 . S
C3089 H3096 0.961 . S
C3089 H3097 0.960 . S
C3090 C3088 1.381 . S
C3090 C3091 1.394 . S
C3090 H3098 0.930 . S
C3091 C3090 1.394 . S
C3091 C3092 1.383 . S
C3091 H3099 0.929 . S
C3092 C3091 1.383 . S
C3092 C3093 1.377 . S
C3093 H3077 0.930 . S
C3093 C3092 1.377 . S
C3093 C3094 1.379 . S
C3094 H3078 0.931 . S
C3094 C3088 1.383 . S
C3094 C3093 1.379 . S
H3095 C3089 0.959 . S
H3096 C3089 0.961 . S
H3097 C3089 0.960 . S
H3098 C3090 0.930 . S
H3099 C3091 0.929 . S
H3100 C3108 0.929 . S
H3101 C3110 0.930 . S
H3102 C3112 0.930 . S
H3103 C3115 0.929 . S
H3104 C3118 0.930 . S
H3105 C3120 0.960 . S
H3106 C3120 0.960 . S
H3107 C3120 0.960 . S
C3108 H3100 0.929 . S
C3108 C3109 1.377 . S
C3108 C3110 1.384 . S
C3109 C3108 1.377 . S
C3109 C3115 1.390 . S
C3110 H3101 0.930 . S
C3110 C3108 1.384 . S
C3110 C3111 1.372 . S
C3111 C3110 1.372 . S
C3111 C3112 1.400 . S
C3111 C3116 1.490 . S
C3112 H3102 0.930 . S
C3112 C3111 1.400 . S
C3112 C3115 1.386 . S
H3113 C3129 0.930 . S
H3114 C3130 0.931 . S
C3115 H3103 0.929 . S
C3115 C3109 1.390 . S
C3115 C3112 1.386 . S
C3116 C3111 1.490 . S
C3116 C3118 1.395 . S
C3116 C3119 1.403 . S
H3117 C3123 0.930 . S
C3118 H3104 0.930 . S
C3118 C3116 1.395 . S
C3118 C3121 1.403 . S
C3119 C3116 1.403 . S
C3119 C3120 1.524 . S
C3119 C3123 1.400 . S
C3120 H3105 0.960 . S
C3120 H3106 0.960 . S
C3120 H3107 0.960 . S
C3120 C3119 1.524 . S
C3121 C3118 1.403 . S
C3121 C3122 1.392 . S
C3121 C3125 1.495 . S
C3122 C3121 1.392 . S
C3122 C3123 1.385 . S
C3122 C3124 1.478 . S
C3123 H3117 0.930 . S
C3123 C3119 1.400 . S
C3123 C3122 1.385 . S
C3124 C3122 1.478 . S
C3124 C3126 1.381 . S
C3124 C3130 1.383 . S
C3125 C3121 1.495 . S
C3125 H3131 0.959 . S
C3125 H3132 0.961 . S
C3125 H3133 0.960 . S
C3126 C3124 1.381 . S
C3126 C3127 1.394 . S
C3126 H3134 0.930 . S
C3127 C3126 1.394 . S
C3127 C3128 1.383 . S
C3127 H3135 0.929 . S
C3128 C3127 1.383 . S
C3128 C3129 1.377 . S
C3129 H3113 0.930 . S
C3129 C3128 1.377 . S
C3129 C3130 1.379 . S
C3130 H3114 0.931 . S
C3130 C3124 1.383 . S
C3130 C3129 1.379 . S
H3131 C3125 0.959 . S
H3132 C3125 0.961 . S
H3133 C3125 0.960 . S
H3134 C3126 0.930 . S
H3135 C3127 0.929 . S
H3136 C3144 0.929 . S
H3137 C3146 0.930 . S
H3138 C3148 0.930 . S
H3139 C3151 0.929 . S
H3140 C3154 0.930 . S
H3141 C3156 0.960 . S
H3142 C3156 0.960 . S
H3143 C3156 0.960 . S
C3144 H3136 0.929 . S
C3144 C3145 1.377 . S
C3144 C3146 1.384 . S
C3145 C3144 1.377 . S
C3145 C3151 1.390 . S
C3146 H3137 0.930 . S
C3146 C3144 1.384 . S
C3146 C3147 1.372 . S
C3147 C3146 1.372 . S
C3147 C3148 1.400 . S
C3147 C3152 1.490 . S
C3148 H3138 0.930 . S
C3148 C3147 1.400 . S
C3148 C3151 1.386 . S
H3149 C3165 0.930 . S
H3150 C3166 0.931 . S
C3151 H3139 0.929 . S
C3151 C3145 1.390 . S
C3151 C3148 1.386 . S
C3152 C3147 1.490 . S
C3152 C3154 1.395 . S
C3152 C3155 1.403 . S
H3153 C3159 0.930 . S
C3154 H3140 0.930 . S
C3154 C3152 1.395 . S
C3154 C3157 1.403 . S
C3155 C3152 1.403 . S
C3155 C3156 1.524 . S
C3155 C3159 1.400 . S
C3156 H3141 0.960 . S
C3156 H3142 0.960 . S
C3156 H3143 0.960 . S
C3156 C3155 1.524 . S
C3157 C3154 1.403 . S
C3157 C3158 1.392 . S
C3157 C3161 1.495 . S
C3158 C3157 1.392 . S
C3158 C3159 1.385 . S
C3158 C3160 1.478 . S
C3159 H3153 0.930 . S
C3159 C3155 1.400 . S
C3159 C3158 1.385 . S
C3160 C3158 1.478 . S
C3160 C3162 1.381 . S
C3160 C3166 1.383 . S
C3161 C3157 1.495 . S
C3161 H3167 0.959 . S
C3161 H3168 0.961 . S
C3161 H3169 0.960 . S
C3162 C3160 1.381 . S
C3162 C3163 1.394 . S
C3162 H3170 0.930 . S
C3163 C3162 1.394 . S
C3163 C3164 1.383 . S
C3163 H3171 0.929 . S
C3164 C3163 1.383 . S
C3164 C3165 1.377 . S
C3165 H3149 0.930 . S
C3165 C3164 1.377 . S
C3165 C3166 1.379 . S
C3166 H3150 0.931 . S
C3166 C3160 1.383 . S
C3166 C3165 1.379 . S
H3167 C3161 0.959 . S
H3168 C3161 0.961 . S
H3169 C3161 0.960 . S
H3170 C3162 0.930 . S
H3171 C3163 0.929 . S
H3172 C3180 0.929 . S
H3173 C3182 0.930 . S
H3174 C3184 0.930 . S
H3175 C3187 0.929 . S
H3176 C3190 0.930 . S
H3177 C3192 0.960 . S
H3178 C3192 0.960 . S
H3179 C3192 0.960 . S
C3180 H3172 0.929 . S
C3180 C3181 1.377 . S
C3180 C3182 1.384 . S
C3181 C3180 1.377 . S
C3181 C3187 1.390 . S
C3182 H3173 0.930 . S
C3182 C3180 1.384 . S
C3182 C3183 1.372 . S
C3183 C3182 1.372 . S
C3183 C3184 1.400 . S
C3183 C3188 1.490 . S
C3184 H3174 0.930 . S
C3184 C3183 1.400 . S
C3184 C3187 1.386 . S
H3185 C3201 0.930 . S
H3186 C3202 0.931 . S
C3187 H3175 0.929 . S
C3187 C3181 1.390 . S
C3187 C3184 1.386 . S
C3188 C3183 1.490 . S
C3188 C3190 1.395 . S
C3188 C3191 1.403 . S
H3189 C3195 0.930 . S
C3190 H3176 0.930 . S
C3190 C3188 1.395 . S
C3190 C3193 1.403 . S
C3191 C3188 1.403 . S
C3191 C3192 1.524 . S
C3191 C3195 1.400 . S
C3192 H3177 0.960 . S
C3192 H3178 0.960 . S
C3192 H3179 0.960 . S
C3192 C3191 1.524 . S
C3193 C3190 1.403 . S
C3193 C3194 1.392 . S
C3193 C3197 1.495 . S
C3194 C3193 1.392 . S
C3194 C3195 1.385 . S
C3194 C3196 1.478 . S
C3195 H3189 0.930 . S
C3195 C3191 1.400 . S
C3195 C3194 1.385 . S
C3196 C3194 1.478 . S
C3196 C3198 1.381 . S
C3196 C3202 1.383 . S
C3197 C3193 1.495 . S
C3197 H3203 0.959 . S
C3197 H3204 0.961 . S
C3197 H3205 0.960 . S
C3198 C3196 1.381 . S
C3198 C3199 1.394 . S
C3198 H3206 0.930 . S
C3199 C3198 1.394 . S
C3199 C3200 1.383 . S
C3199 H3207 0.929 . S
C3200 C3199 1.383 . S
C3200 C3201 1.377 . S
C3201 H3185 0.930 . S
C3201 C3200 1.377 . S
C3201 C3202 1.379 . S
C3202 H3186 0.931 . S
C3202 C3196 1.383 . S
C3202 C3201 1.379 . S
H3203 C3197 0.959 . S
H3204 C3197 0.961 . S
H3205 C3197 0.960 . S
H3206 C3198 0.930 . S
H3207 C3199 0.929 . S
H3208 C3216 0.929 . S
H3209 C3218 0.930 . S
H3210 C3220 0.930 . S
H3211 C3223 0.929 . S
H3212 C3226 0.930 . S
H3213 C3228 0.960 . S
H3214 C3228 0.960 . S
H3215 C3228 0.960 . S
C3216 H3208 0.929 . S
C3216 C3217 1.377 . S
C3216 C3218 1.384 . S
C3217 C3216 1.377 . S
C3217 C3223 1.390 . S
C3218 H3209 0.930 . S
C3218 C3216 1.384 . S
C3218 C3219 1.372 . S
C3219 C3218 1.372 . S
C3219 C3220 1.400 . S
C3219 C3224 1.490 . S
C3220 H3210 0.930 . S
C3220 C3219 1.400 . S
C3220 C3223 1.386 . S
H3221 C3237 0.930 . S
H3222 C3238 0.931 . S
C3223 H3211 0.929 . S
C3223 C3217 1.390 . S
C3223 C3220 1.386 . S
C3224 C3219 1.490 . S
C3224 C3226 1.395 . S
C3224 C3227 1.403 . S
H3225 C3231 0.930 . S
C3226 H3212 0.930 . S
C3226 C3224 1.395 . S
C3226 C3229 1.403 . S
C3227 C3224 1.403 . S
C3227 C3228 1.524 . S
C3227 C3231 1.400 . S
C3228 H3213 0.960 . S
C3228 H3214 0.960 . S
C3228 H3215 0.960 . S
C3228 C3227 1.524 . S
C3229 C3226 1.403 . S
C3229 C3230 1.392 . S
C3229 C3233 1.495 . S
C3230 C3229 1.392 . S
C3230 C3231 1.385 . S
C3230 C3232 1.478 . S
C3231 H3225 0.930 . S
C3231 C3227 1.400 . S
C3231 C3230 1.385 . S
C3232 C3230 1.478 . S
C3232 C3234 1.381 . S
C3232 C3238 1.383 . S
C3233 C3229 1.495 . S
C3233 H3239 0.959 . S
C3233 H3240 0.961 . S
C3233 H3241 0.960 . S
C3234 C3232 1.381 . S
C3234 C3235 1.394 . S
C3234 H3242 0.930 . S
C3235 C3234 1.394 . S
C3235 C3236 1.383 . S
C3235 H3243 0.929 . S
C3236 C3235 1.383 . S
C3236 C3237 1.377 . S
C3237 H3221 0.930 . S
C3237 C3236 1.377 . S
C3237 C3238 1.379 . S
C3238 H3222 0.931 . S
C3238 C3232 1.383 . S
C3238 C3237 1.379 . S
H3239 C3233 0.959 . S
H3240 C3233 0.961 . S
H3241 C3233 0.960 . S
H3242 C3234 0.930 . S
H3243 C3235 0.929 . S
H3244 C3252 0.929 . S
H3245 C3254 0.930 . S
H3246 C3256 0.930 . S
H3247 C3259 0.929 . S
H3248 C3262 0.930 . S
H3249 C3264 0.960 . S
H3250 C3264 0.960 . S
H3251 C3264 0.960 . S
C3252 H3244 0.929 . S
C3252 C3253 1.377 . S
C3252 C3254 1.384 . S
C3253 C3252 1.377 . S
C3253 C3259 1.390 . S
C3254 H3245 0.930 . S
C3254 C3252 1.384 . S
C3254 C3255 1.372 . S
C3255 C3254 1.372 . S
C3255 C3256 1.400 . S
C3255 C3260 1.490 . S
C3256 H3246 0.930 . S
C3256 C3255 1.400 . S
C3256 C3259 1.386 . S
H3257 C3273 0.930 . S
H3258 C3274 0.931 . S
C3259 H3247 0.929 . S
C3259 C3253 1.390 . S
C3259 C3256 1.386 . S
C3260 C3255 1.490 . S
C3260 C3262 1.395 . S
C3260 C3263 1.403 . S
H3261 C3267 0.930 . S
C3262 H3248 0.930 . S
C3262 C3260 1.395 . S
C3262 C3265 1.403 . S
C3263 C3260 1.403 . S
C3263 C3264 1.524 . S
C3263 C3267 1.400 . S
C3264 H3249 0.960 . S
C3264 H3250 0.960 . S
C3264 H3251 0.960 . S
C3264 C3263 1.524 . S
C3265 C3262 1.403 . S
C3265 C3266 1.392 . S
C3265 C3269 1.495 . S
C3266 C3265 1.392 . S
C3266 C3267 1.385 . S
C3266 C3268 1.478 . S
C3267 H3261 0.930 . S
C3267 C3263 1.400 . S
C3267 C3266 1.385 . S
C3268 C3266 1.478 . S
C3268 C3270 1.381 . S
C3268 C3274 1.383 . S
C3269 C3265 1.495 . S
C3269 H3275 0.959 . S
C3269 H3276 0.961 . S
C3269 H3277 0.960 . S
C3270 C3268 1.381 . S
C3270 C3271 1.394 . S
C3270 H3278 0.930 . S
C3271 C3270 1.394 . S
C3271 C3272 1.383 . S
C3271 H3279 0.929 . S
C3272 C3271 1.383 . S
C3272 C3273 1.377 . S
C3273 H3257 0.930 . S
C3273 C3272 1.377 . S
C3273 C3274 1.379 . S
C3274 H3258 0.931 . S
C3274 C3268 1.383 . S
C3274 C3273 1.379 . S
H3275 C3269 0.959 . S
H3276 C3269 0.961 . S
H3277 C3269 0.960 . S
H3278 C3270 0.930 . S
H3279 C3271 0.929 . S
H3280 C3288 0.929 . S
H3281 C3290 0.930 . S
H3282 C3292 0.930 . S
H3283 C3295 0.929 . S
H3284 C3298 0.930 . S
H3285 C3300 0.960 . S
H3286 C3300 0.960 . S
H3287 C3300 0.960 . S
C3288 H3280 0.929 . S
C3288 C3289 1.377 . S
C3288 C3290 1.384 . S
C3289 C3288 1.377 . S
C3289 C3295 1.390 . S
C3290 H3281 0.930 . S
C3290 C3288 1.384 . S
C3290 C3291 1.372 . S
C3291 C3290 1.372 . S
C3291 C3292 1.400 . S
C3291 C3296 1.490 . S
C3292 H3282 0.930 . S
C3292 C3291 1.400 . S
C3292 C3295 1.386 . S
H3293 C3309 0.930 . S
H3294 C3310 0.931 . S
C3295 H3283 0.929 . S
C3295 C3289 1.390 . S
C3295 C3292 1.386 . S
C3296 C3291 1.490 . S
C3296 C3298 1.395 . S
C3296 C3299 1.403 . S
H3297 C3303 0.930 . S
C3298 H3284 0.930 . S
C3298 C3296 1.395 . S
C3298 C3301 1.403 . S
C3299 C3296 1.403 . S
C3299 C3300 1.524 . S
C3299 C3303 1.400 . S
C3300 H3285 0.960 . S
C3300 H3286 0.960 . S
C3300 H3287 0.960 . S
C3300 C3299 1.524 . S
C3301 C3298 1.403 . S
C3301 C3302 1.392 . S
C3301 C3305 1.495 . S
C3302 C3301 1.392 . S
C3302 C3303 1.385 . S
C3302 C3304 1.478 . S
C3303 H3297 0.930 . S
C3303 C3299 1.400 . S
C3303 C3302 1.385 . S
C3304 C3302 1.478 . S
C3304 C3306 1.381 . S
C3304 C3310 1.383 . S
C3305 C3301 1.495 . S
C3305 H3311 0.959 . S
C3305 H3312 0.961 . S
C3305 H3313 0.960 . S
C3306 C3304 1.381 . S
C3306 C3307 1.394 . S
C3306 H3314 0.930 . S
C3307 C3306 1.394 . S
C3307 C3308 1.383 . S
C3307 H3315 0.929 . S
C3308 C3307 1.383 . S
C3308 C3309 1.377 . S
C3309 H3293 0.930 . S
C3309 C3308 1.377 . S
C3309 C3310 1.379 . S
C3310 H3294 0.931 . S
C3310 C3304 1.383 . S
C3310 C3309 1.379 . S
H3311 C3305 0.959 . S
H3312 C3305 0.961 . S
H3313 C3305 0.960 . S
H3314 C3306 0.930 . S
H3315 C3307 0.929 . S
H3316 C3324 0.929 . S
H3317 C3326 0.930 . S
H3318 C3328 0.930 . S
H3319 C3331 0.929 . S
H3320 C3334 0.930 . S
H3321 C3336 0.960 . S
H3322 C3336 0.960 . S
H3323 C3336 0.960 . S
C3324 H3316 0.929 . S
C3324 C3325 1.377 . S
C3324 C3326 1.384 . S
C3325 C3324 1.377 . S
C3325 C3331 1.390 . S
C3326 H3317 0.930 . S
C3326 C3324 1.384 . S
C3326 C3327 1.372 . S
C3327 C3326 1.372 . S
C3327 C3328 1.400 . S
C3327 C3332 1.490 . S
C3328 H3318 0.930 . S
C3328 C3327 1.400 . S
C3328 C3331 1.386 . S
H3329 C3345 0.930 . S
H3330 C3346 0.931 . S
C3331 H3319 0.929 . S
C3331 C3325 1.390 . S
C3331 C3328 1.386 . S
C3332 C3327 1.490 . S
C3332 C3334 1.395 . S
C3332 C3335 1.403 . S
H3333 C3339 0.930 . S
C3334 H3320 0.930 . S
C3334 C3332 1.395 . S
C3334 C3337 1.403 . S
C3335 C3332 1.403 . S
C3335 C3336 1.524 . S
C3335 C3339 1.400 . S
C3336 H3321 0.960 . S
C3336 H3322 0.960 . S
C3336 H3323 0.960 . S
C3336 C3335 1.524 . S
C3337 C3334 1.403 . S
C3337 C3338 1.392 . S
C3337 C3341 1.495 . S
C3338 C3337 1.392 . S
C3338 C3339 1.385 . S
C3338 C3340 1.478 . S
C3339 H3333 0.930 . S
C3339 C3335 1.400 . S
C3339 C3338 1.385 . S
C3340 C3338 1.478 . S
C3340 C3342 1.381 . S
C3340 C3346 1.383 . S
C3341 C3337 1.495 . S
C3341 H3347 0.959 . S
C3341 H3348 0.961 . S
C3341 H3349 0.960 . S
C3342 C3340 1.381 . S
C3342 C3343 1.394 . S
C3342 H3350 0.930 . S
C3343 C3342 1.394 . S
C3343 C3344 1.383 . S
C3343 H3351 0.929 . S
C3344 C3343 1.383 . S
C3344 C3345 1.377 . S
C3345 H3329 0.930 . S
C3345 C3344 1.377 . S
C3345 C3346 1.379 . S
C3346 H3330 0.931 . S
C3346 C3340 1.383 . S
C3346 C3345 1.379 . S
H3347 C3341 0.959 . S
H3348 C3341 0.961 . S
H3349 C3341 0.960 . S
H3350 C3342 0.930 . S
H3351 C3343 0.929 . S
H3352 C3360 0.929 . S
H3353 C3362 0.930 . S
H3354 C3364 0.930 . S
H3355 C3367 0.929 . S
H3356 C3370 0.930 . S
H3357 C3372 0.960 . S
H3358 C3372 0.960 . S
H3359 C3372 0.960 . S
C3360 H3352 0.929 . S
C3360 C3361 1.377 . S
C3360 C3362 1.384 . S
C3361 C3360 1.377 . S
C3361 C3367 1.390 . S
C3362 H3353 0.930 . S
C3362 C3360 1.384 . S
C3362 C3363 1.372 . S
C3363 C3362 1.372 . S
C3363 C3364 1.400 . S
C3363 C3368 1.490 . S
C3364 H3354 0.930 . S
C3364 C3363 1.400 . S
C3364 C3367 1.386 . S
H3365 C3381 0.930 . S
H3366 C3382 0.931 . S
C3367 H3355 0.929 . S
C3367 C3361 1.390 . S
C3367 C3364 1.386 . S
C3368 C3363 1.490 . S
C3368 C3370 1.395 . S
C3368 C3371 1.403 . S
H3369 C3375 0.930 . S
C3370 H3356 0.930 . S
C3370 C3368 1.395 . S
C3370 C3373 1.403 . S
C3371 C3368 1.403 . S
C3371 C3372 1.524 . S
C3371 C3375 1.400 . S
C3372 H3357 0.960 . S
C3372 H3358 0.960 . S
C3372 H3359 0.960 . S
C3372 C3371 1.524 . S
C3373 C3370 1.403 . S
C3373 C3374 1.392 . S
C3373 C3377 1.495 . S
C3374 C3373 1.392 . S
C3374 C3375 1.385 . S
C3374 C3376 1.478 . S
C3375 H3369 0.930 . S
C3375 C3371 1.400 . S
C3375 C3374 1.385 . S
C3376 C3374 1.478 . S
C3376 C3378 1.381 . S
C3376 C3382 1.383 . S
C3377 C3373 1.495 . S
C3377 H3383 0.959 . S
C3377 H3384 0.961 . S
C3377 H3385 0.960 . S
C3378 C3376 1.381 . S
C3378 C3379 1.394 . S
C3378 H3386 0.930 . S
C3379 C3378 1.394 . S
C3379 C3380 1.383 . S
C3379 H3387 0.929 . S
C3380 C3379 1.383 . S
C3380 C3381 1.377 . S
C3381 H3365 0.930 . S
C3381 C3380 1.377 . S
C3381 C3382 1.379 . S
C3382 H3366 0.931 . S
C3382 C3376 1.383 . S
C3382 C3381 1.379 . S
H3383 C3377 0.959 . S
H3384 C3377 0.961 . S
H3385 C3377 0.960 . S
H3386 C3378 0.930 . S
H3387 C3379 0.929 . S
H3388 C3396 0.929 . S
H3389 C3398 0.930 . S
H3390 C3400 0.985 . S
H3391 C3403 0.928 . S
H3392 C3406 0.930 . S
H3393 C3408 0.960 1_545 S
H3394 C3408 0.987 1_554 S
H3395 C3408 0.960 . S
C3396 H3388 0.929 . S
C3396 C3397 1.377 . S
C3396 C3398 1.384 . S
C3397 C3396 1.377 . S
C3397 C3403 1.392 1_554 S
C3398 H3389 0.930 . S
C3398 C3396 1.384 . S
C3398 C3399 1.372 . S
C3399 C3398 1.372 . S
C3399 C3400 1.359 1_554 S
C3399 C3404 1.490 . S
C3400 H3390 0.985 . S
C3400 C3399 1.359 1_556 S
C3400 C3403 1.373 . S
H3401 C3417 0.930 . S
H3402 C3418 0.931 . S
C3403 H3391 0.928 . S
C3403 C3397 1.392 1_556 S
C3403 C3400 1.373 . S
C3404 C3399 1.490 . S
C3404 C3406 1.395 . S
C3404 C3407 1.403 . S
H3405 C3411 0.930 1_546 S
C3406 H3392 0.930 . S
C3406 C3404 1.395 . S
C3406 C3409 1.403 . S
C3407 C3404 1.403 . S
C3407 C3408 1.524 1_554 S
C3407 C3411 1.400 . S
C3408 H3393 0.960 1_565 S
C3408 H3394 0.987 1_556 S
C3408 H3395 0.960 . S
C3408 C3407 1.524 1_556 S
C3409 C3406 1.403 . S
C3409 C3410 1.392 . S
C3409 C3413 1.495 . S
C3410 C3409 1.392 . S
C3410 C3411 1.385 . S
C3410 C3412 1.478 . S
C3411 H3405 0.930 1_564 S
C3411 C3407 1.400 . S
C3411 C3410 1.385 . S
C3412 C3410 1.478 . S
C3412 C3414 1.381 1_565 S
C3412 C3418 1.383 1_554 S
C3413 C3409 1.495 . S
C3413 H3419 0.959 . S
C3413 H3420 0.961 . S
C3413 H3421 0.960 . S
C3414 C3412 1.381 1_545 S
C3414 C3415 1.394 . S
C3414 H3422 0.930 . S
C3415 C3414 1.394 . S
C3415 C3416 1.383 . S
C3415 H3423 0.929 . S
C3416 C3415 1.383 . S
C3416 C3417 1.377 1_554 S
C3417 H3401 0.930 . S
C3417 C3416 1.377 1_556 S
C3417 C3418 1.379 1_545 S
C3418 H3402 0.931 . S
C3418 C3412 1.383 1_556 S
C3418 C3417 1.379 1_565 S
H3419 C3413 0.959 . S
H3420 C3413 0.961 . S
H3421 C3413 0.960 . S
H3422 C3414 0.930 . S
H3423 C3415 0.929 . S
H3424 C3432 0.929 . S
H3425 C3434 0.930 . S
H3426 C3436 0.930 . S
H3427 C3439 0.929 . S
H3428 C3442 0.930 . S
H3429 C3444 0.960 . S
H3430 C3444 0.960 . S
H3431 C3444 0.960 . S
C3432 H3424 0.929 . S
C3432 C3433 1.377 . S
C3432 C3434 1.384 . S
C3433 C3432 1.377 . S
C3433 C3439 1.390 . S
C3434 H3425 0.930 . S
C3434 C3432 1.384 . S
C3434 C3435 1.372 . S
C3435 C3434 1.372 . S
C3435 C3436 1.400 . S
C3435 C3440 1.490 . S
C3436 H3426 0.930 . S
C3436 C3435 1.400 . S
C3436 C3439 1.386 . S
H3437 C3453 0.930 . S
H3438 C3454 0.931 . S
C3439 H3427 0.929 . S
C3439 C3433 1.390 . S
C3439 C3436 1.386 . S
C3440 C3435 1.490 . S
C3440 C3442 1.395 . S
C3440 C3443 1.403 . S
H3441 C3447 0.930 . S
C3442 H3428 0.930 . S
C3442 C3440 1.395 . S
C3442 C3445 1.403 . S
C3443 C3440 1.403 . S
C3443 C3444 1.524 . S
C3443 C3447 1.400 . S
C3444 H3429 0.960 . S
C3444 H3430 0.960 . S
C3444 H3431 0.960 . S
C3444 C3443 1.524 . S
C3445 C3442 1.403 . S
C3445 C3446 1.392 . S
C3445 C3449 1.495 . S
C3446 C3445 1.392 . S
C3446 C3447 1.385 . S
C3446 C3448 1.478 . S
C3447 H3441 0.930 . S
C3447 C3443 1.400 . S
C3447 C3446 1.385 . S
C3448 C3446 1.478 . S
C3448 C3450 1.381 . S
C3448 C3454 1.383 . S
C3449 C3445 1.495 . S
C3449 H3455 0.959 . S
C3449 H3456 0.961 . S
C3449 H3457 0.960 . S
C3450 C3448 1.381 . S
C3450 C3451 1.394 . S
C3450 H3458 0.930 . S
C3451 C3450 1.394 . S
C3451 C3452 1.383 . S
C3451 H3459 0.929 . S
C3452 C3451 1.383 . S
C3452 C3453 1.377 . S
C3453 H3437 0.930 . S
C3453 C3452 1.377 . S
C3453 C3454 1.379 . S
C3454 H3438 0.931 . S
C3454 C3448 1.383 . S
C3454 C3453 1.379 . S
H3455 C3449 0.959 . S
H3456 C3449 0.961 . S
H3457 C3449 0.960 . S
H3458 C3450 0.930 . S
H3459 C3451 0.929 . S
H3460 C3468 0.929 1_556 S
H3461 C3470 0.930 . S
H3462 C3472 0.930 . S
H3463 C3475 0.929 . S
H3464 C3478 0.930 . S
H3465 C3480 0.960 . S
H3466 C3480 0.960 . S
H3467 C3480 0.948 1_554 S
C3468 H3460 0.929 1_554 S
C3468 C3469 1.377 . S
C3468 C3470 1.384 . S
C3469 C3468 1.377 . S
C3469 C3475 1.390 . S
C3470 H3461 0.930 . S
C3470 C3468 1.384 . S
C3470 C3471 1.372 . S
C3471 C3470 1.372 . S
C3471 C3472 1.400 . S
C3471 C3476 1.490 . S
C3472 H3462 0.930 . S
C3472 C3471 1.400 . S
C3472 C3475 1.386 . S
H3473 C3489 0.930 . S
H3474 C3490 0.931 . S
C3475 H3463 0.929 . S
C3475 C3469 1.390 . S
C3475 C3472 1.386 . S
C3476 C3471 1.490 . S
C3476 C3478 1.395 . S
C3476 C3479 1.403 . S
H3477 C3483 0.930 . S
C3478 H3464 0.930 . S
C3478 C3476 1.395 . S
C3478 C3481 1.403 . S
C3479 C3476 1.403 . S
C3479 C3480 1.524 1_554 S
C3479 C3483 1.400 . S
C3480 H3465 0.960 . S
C3480 H3466 0.960 . S
C3480 H3467 0.948 1_556 S
C3480 C3479 1.524 1_556 S
C3481 C3478 1.403 . S
C3481 C3482 1.392 . S
C3481 C3485 1.495 . S
C3482 C3481 1.392 . S
C3482 C3483 1.385 . S
C3482 C3484 1.478 . S
C3483 H3477 0.930 . S
C3483 C3479 1.400 . S
C3483 C3482 1.385 . S
C3484 C3482 1.478 . S
C3484 C3486 1.381 . S
C3484 C3490 1.383 . S
C3485 C3481 1.495 . S
C3485 H3491 0.959 . S
C3485 H3492 0.961 . S
C3485 H3493 0.960 . S
C3486 C3484 1.381 . S
C3486 C3487 1.394 . S
C3486 H3494 0.930 . S
C3487 C3486 1.394 . S
C3487 C3488 1.383 . S
C3487 H3495 0.929 . S
C3488 C3487 1.383 . S
C3488 C3489 1.377 . S
C3489 H3473 0.930 . S
C3489 C3488 1.377 . S
C3489 C3490 1.379 . S
C3490 H3474 0.931 . S
C3490 C3484 1.383 . S
C3490 C3489 1.379 . S
H3491 C3485 0.959 . S
H3492 C3485 0.961 . S
H3493 C3485 0.960 . S
H3494 C3486 0.930 . S
H3495 C3487 0.929 . S
H3496 C3504 0.929 . S
H3497 C3506 0.930 . S
H3498 C3508 0.930 . S
H3499 C3511 0.929 . S
H3500 C3514 0.930 . S
H3501 C3516 0.960 . S
H3502 C3516 0.960 . S
H3503 C3516 0.960 . S
C3504 H3496 0.929 . S
C3504 C3505 1.377 . S
C3504 C3506 1.384 . S
C3505 C3504 1.377 . S
C3505 C3511 1.390 . S
C3506 H3497 0.930 . S
C3506 C3504 1.384 . S
C3506 C3507 1.372 . S
C3507 C3506 1.372 . S
C3507 C3508 1.400 . S
C3507 C3512 1.490 . S
C3508 H3498 0.930 . S
C3508 C3507 1.400 . S
C3508 C3511 1.386 . S
H3509 C3525 0.930 . S
H3510 C3526 0.931 . S
C3511 H3499 0.929 . S
C3511 C3505 1.390 . S
C3511 C3508 1.386 . S
C3512 C3507 1.490 . S
C3512 C3514 1.395 . S
C3512 C3515 1.403 . S
H3513 C3519 0.930 . S
C3514 H3500 0.930 . S
C3514 C3512 1.395 . S
C3514 C3517 1.403 . S
C3515 C3512 1.403 . S
C3515 C3516 1.524 . S
C3515 C3519 1.400 . S
C3516 H3501 0.960 . S
C3516 H3502 0.960 . S
C3516 H3503 0.960 . S
C3516 C3515 1.524 . S
C3517 C3514 1.403 . S
C3517 C3518 1.392 . S
C3517 C3521 1.495 . S
C3518 C3517 1.392 . S
C3518 C3519 1.385 . S
C3518 C3520 1.478 . S
C3519 H3513 0.930 . S
C3519 C3515 1.400 . S
C3519 C3518 1.385 . S
C3520 C3518 1.478 . S
C3520 C3522 1.381 . S
C3520 C3526 1.383 . S
C3521 C3517 1.495 . S
C3521 H3527 0.959 . S
C3521 H3528 0.961 . S
C3521 H3529 0.960 . S
C3522 C3520 1.381 . S
C3522 C3523 1.394 . S
C3522 H3530 0.930 . S
C3523 C3522 1.394 . S
C3523 C3524 1.383 . S
C3523 H3531 0.929 . S
C3524 C3523 1.383 . S
C3524 C3525 1.377 . S
C3525 H3509 0.930 . S
C3525 C3524 1.377 . S
C3525 C3526 1.379 . S
C3526 H3510 0.931 . S
C3526 C3520 1.383 . S
C3526 C3525 1.379 . S
H3527 C3521 0.959 . S
H3528 C3521 0.961 . S
H3529 C3521 0.960 . S
H3530 C3522 0.930 . S
H3531 C3523 0.929 . S
H3532 C3540 0.929 . S
H3533 C3542 0.930 . S
H3534 C3544 0.930 . S
H3535 C3547 0.929 . S
H3536 C3550 0.930 . S
H3537 C3552 0.960 . S
H3538 C3552 0.960 . S
H3539 C3552 0.960 . S
C3540 H3532 0.929 . S
C3540 C3541 1.377 . S
C3540 C3542 1.384 . S
C3541 C3540 1.377 . S
C3541 C3547 1.390 . S
C3542 H3533 0.930 . S
C3542 C3540 1.384 . S
C3542 C3543 1.372 . S
C3543 C3542 1.372 . S
C3543 C3544 1.400 . S
C3543 C3548 1.490 . S
C3544 H3534 0.930 . S
C3544 C3543 1.400 . S
C3544 C3547 1.386 . S
H3545 C3561 0.930 . S
H3546 C3562 0.931 . S
C3547 H3535 0.929 . S
C3547 C3541 1.390 . S
C3547 C3544 1.386 . S
C3548 C3543 1.490 . S
C3548 C3550 1.395 . S
C3548 C3551 1.403 . S
H3549 C3555 0.930 . S
C3550 H3536 0.930 . S
C3550 C3548 1.395 . S
C3550 C3553 1.403 . S
C3551 C3548 1.403 . S
C3551 C3552 1.524 . S
C3551 C3555 1.400 . S
C3552 H3537 0.960 . S
C3552 H3538 0.960 . S
C3552 H3539 0.960 . S
C3552 C3551 1.524 . S
C3553 C3550 1.403 . S
C3553 C3554 1.392 . S
C3553 C3557 1.495 . S
C3554 C3553 1.392 . S
C3554 C3555 1.385 . S
C3554 C3556 1.478 . S
C3555 H3549 0.930 . S
C3555 C3551 1.400 . S
C3555 C3554 1.385 . S
C3556 C3554 1.478 . S
C3556 C3558 1.381 . S
C3556 C3562 1.383 . S
C3557 C3553 1.495 . S
C3557 H3563 0.959 . S
C3557 H3564 0.961 . S
C3557 H3565 0.960 . S
C3558 C3556 1.381 . S
C3558 C3559 1.394 . S
C3558 H3566 0.930 . S
C3559 C3558 1.394 . S
C3559 C3560 1.383 . S
C3559 H3567 0.929 . S
C3560 C3559 1.383 . S
C3560 C3561 1.377 . S
C3561 H3545 0.930 . S
C3561 C3560 1.377 . S
C3561 C3562 1.379 . S
C3562 H3546 0.931 . S
C3562 C3556 1.383 . S
C3562 C3561 1.379 . S
H3563 C3557 0.959 . S
H3564 C3557 0.961 . S
H3565 C3557 0.960 . S
H3566 C3558 0.930 . S
H3567 C3559 0.929 . S
H3568 C3576 0.929 . S
H3569 C3578 0.930 . S
H3570 C3580 0.930 . S
H3571 C3583 0.929 . S
H3572 C3586 0.930 . S
H3573 C3588 0.960 . S
H3574 C3588 0.960 . S
H3575 C3588 0.960 . S
C3576 H3568 0.929 . S
C3576 C3577 1.377 . S
C3576 C3578 1.384 . S
C3577 C3576 1.377 . S
C3577 C3583 1.390 . S
C3578 H3569 0.930 . S
C3578 C3576 1.384 . S
C3578 C3579 1.372 . S
C3579 C3578 1.372 . S
C3579 C3580 1.400 . S
C3579 C3584 1.490 . S
C3580 H3570 0.930 . S
C3580 C3579 1.400 . S
C3580 C3583 1.386 . S
H3581 C3597 0.930 . S
H3582 C3598 0.931 . S
C3583 H3571 0.929 . S
C3583 C3577 1.390 . S
C3583 C3580 1.386 . S
C3584 C3579 1.490 . S
C3584 C3586 1.395 . S
C3584 C3587 1.403 . S
H3585 C3591 0.930 . S
C3586 H3572 0.930 . S
C3586 C3584 1.395 . S
C3586 C3589 1.403 . S
C3587 C3584 1.403 . S
C3587 C3588 1.524 . S
C3587 C3591 1.400 . S
C3588 H3573 0.960 . S
C3588 H3574 0.960 . S
C3588 H3575 0.960 . S
C3588 C3587 1.524 . S
C3589 C3586 1.403 . S
C3589 C3590 1.392 . S
C3589 C3593 1.495 . S
C3590 C3589 1.392 . S
C3590 C3591 1.385 . S
C3590 C3592 1.478 . S
C3591 H3585 0.930 . S
C3591 C3587 1.400 . S
C3591 C3590 1.385 . S
C3592 C3590 1.478 . S
C3592 C3594 1.381 . S
C3592 C3598 1.383 . S
C3593 C3589 1.495 . S
C3593 H3599 0.959 . S
C3593 H3600 0.961 . S
C3593 H3601 0.960 . S
C3594 C3592 1.381 . S
C3594 C3595 1.394 . S
C3594 H3602 0.930 . S
C3595 C3594 1.394 . S
C3595 C3596 1.383 . S
C3595 H3603 0.929 . S
C3596 C3595 1.383 . S
C3596 C3597 1.377 . S
C3597 H3581 0.930 . S
C3597 C3596 1.377 . S
C3597 C3598 1.379 . S
C3598 H3582 0.931 . S
C3598 C3592 1.383 . S
C3598 C3597 1.379 . S
H3599 C3593 0.959 . S
H3600 C3593 0.961 . S
H3601 C3593 0.960 . S
H3602 C3594 0.930 . S
H3603 C3595 0.929 . S
H3604 C3612 0.929 . S
H3605 C3614 0.930 . S
H3606 C3616 0.930 . S
H3607 C3619 0.929 . S
H3608 C3622 0.930 . S
H3609 C3624 0.960 . S
H3610 C3624 0.960 . S
H3611 C3624 0.960 . S
C3612 H3604 0.929 . S
C3612 C3613 1.377 . S
C3612 C3614 1.384 . S
C3613 C3612 1.377 . S
C3613 C3619 1.390 . S
C3614 H3605 0.930 . S
C3614 C3612 1.384 . S
C3614 C3615 1.372 . S
C3615 C3614 1.372 . S
C3615 C3616 1.400 . S
C3615 C3620 1.490 . S
C3616 H3606 0.930 . S
C3616 C3615 1.400 . S
C3616 C3619 1.386 . S
H3617 C3633 0.930 . S
H3618 C3634 0.931 . S
C3619 H3607 0.929 . S
C3619 C3613 1.390 . S
C3619 C3616 1.386 . S
C3620 C3615 1.490 . S
C3620 C3622 1.395 . S
C3620 C3623 1.403 . S
H3621 C3627 0.930 . S
C3622 H3608 0.930 . S
C3622 C3620 1.395 . S
C3622 C3625 1.403 . S
C3623 C3620 1.403 . S
C3623 C3624 1.524 . S
C3623 C3627 1.400 . S
C3624 H3609 0.960 . S
C3624 H3610 0.960 . S
C3624 H3611 0.960 . S
C3624 C3623 1.524 . S
C3625 C3622 1.403 . S
C3625 C3626 1.392 . S
C3625 C3629 1.495 . S
C3626 C3625 1.392 . S
C3626 C3627 1.385 . S
C3626 C3628 1.478 . S
C3627 H3621 0.930 . S
C3627 C3623 1.400 . S
C3627 C3626 1.385 . S
C3628 C3626 1.478 . S
C3628 C3630 1.381 . S
C3628 C3634 1.383 . S
C3629 C3625 1.495 . S
C3629 H3635 0.959 . S
C3629 H3636 0.961 . S
C3629 H3637 0.960 . S
C3630 C3628 1.381 . S
C3630 C3631 1.394 . S
C3630 H3638 0.930 . S
C3631 C3630 1.394 . S
C3631 C3632 1.383 . S
C3631 H3639 0.929 . S
C3632 C3631 1.383 . S
C3632 C3633 1.377 . S
C3633 H3617 0.930 . S
C3633 C3632 1.377 . S
C3633 C3634 1.379 . S
C3634 H3618 0.931 . S
C3634 C3628 1.383 . S
C3634 C3633 1.379 . S
H3635 C3629 0.959 . S
H3636 C3629 0.961 . S
H3637 C3629 0.960 . S
H3638 C3630 0.930 . S
H3639 C3631 0.929 . S
H3640 C3648 0.929 . S
H3641 C3650 0.930 . S
H3642 C3652 0.930 . S
H3643 C3655 0.929 . S
H3644 C3658 0.930 . S
H3645 C3660 0.960 . S
H3646 C3660 0.960 . S
H3647 C3660 0.960 . S
C3648 H3640 0.929 . S
C3648 C3649 1.377 . S
C3648 C3650 1.384 . S
C3649 C3648 1.377 . S
C3649 C3655 1.390 . S
C3650 H3641 0.930 . S
C3650 C3648 1.384 . S
C3650 C3651 1.372 . S
C3651 C3650 1.372 . S
C3651 C3652 1.400 . S
C3651 C3656 1.490 . S
C3652 H3642 0.930 . S
C3652 C3651 1.400 . S
C3652 C3655 1.386 . S
H3653 C3669 0.930 . S
H3654 C3670 0.931 . S
C3655 H3643 0.929 . S
C3655 C3649 1.390 . S
C3655 C3652 1.386 . S
C3656 C3651 1.490 . S
C3656 C3658 1.395 . S
C3656 C3659 1.403 . S
H3657 C3663 0.930 . S
C3658 H3644 0.930 . S
C3658 C3656 1.395 . S
C3658 C3661 1.403 . S
C3659 C3656 1.403 . S
C3659 C3660 1.524 . S
C3659 C3663 1.400 . S
C3660 H3645 0.960 . S
C3660 H3646 0.960 . S
C3660 H3647 0.960 . S
C3660 C3659 1.524 . S
C3661 C3658 1.403 . S
C3661 C3662 1.392 . S
C3661 C3665 1.495 . S
C3662 C3661 1.392 . S
C3662 C3663 1.385 . S
C3662 C3664 1.478 . S
C3663 H3657 0.930 . S
C3663 C3659 1.400 . S
C3663 C3662 1.385 . S
C3664 C3662 1.478 . S
C3664 C3666 1.381 . S
C3664 C3670 1.383 . S
C3665 C3661 1.495 . S
C3665 H3671 0.959 . S
C3665 H3672 0.961 . S
C3665 H3673 0.960 . S
C3666 C3664 1.381 . S
C3666 C3667 1.394 . S
C3666 H3674 0.930 . S
C3667 C3666 1.394 . S
C3667 C3668 1.383 . S
C3667 H3675 0.929 . S
C3668 C3667 1.383 . S
C3668 C3669 1.377 . S
C3669 H3653 0.930 . S
C3669 C3668 1.377 . S
C3669 C3670 1.379 . S
C3670 H3654 0.931 . S
C3670 C3664 1.383 . S
C3670 C3669 1.379 . S
H3671 C3665 0.959 . S
H3672 C3665 0.961 . S
H3673 C3665 0.960 . S
H3674 C3666 0.930 . S
H3675 C3667 0.929 . S
H3676 C3684 0.929 . S
H3677 C3686 0.930 . S
H3678 C3688 0.930 . S
H3679 C3691 0.929 . S
H3680 C3694 0.930 . S
H3681 C3696 0.960 . S
H3682 C3696 0.960 . S
H3683 C3696 0.960 . S
C3684 H3676 0.929 . S
C3684 C3685 1.377 . S
C3684 C3686 1.384 . S
C3685 C3684 1.377 . S
C3685 C3691 1.390 . S
C3686 H3677 0.930 . S
C3686 C3684 1.384 . S
C3686 C3687 1.372 . S
C3687 C3686 1.372 . S
C3687 C3688 1.400 . S
C3687 C3692 1.490 . S
C3688 H3678 0.930 . S
C3688 C3687 1.400 . S
C3688 C3691 1.386 . S
H3689 C3705 0.930 . S
H3690 C3706 0.931 . S
C3691 H3679 0.929 . S
C3691 C3685 1.390 . S
C3691 C3688 1.386 . S
C3692 C3687 1.490 . S
C3692 C3694 1.395 . S
C3692 C3695 1.403 . S
H3693 C3699 0.930 . S
C3694 H3680 0.930 . S
C3694 C3692 1.395 . S
C3694 C3697 1.403 . S
C3695 C3692 1.403 . S
C3695 C3696 1.524 . S
C3695 C3699 1.400 . S
C3696 H3681 0.960 . S
C3696 H3682 0.960 . S
C3696 H3683 0.960 . S
C3696 C3695 1.524 . S
C3697 C3694 1.403 . S
C3697 C3698 1.392 . S
C3697 C3701 1.495 . S
C3698 C3697 1.392 . S
C3698 C3699 1.385 . S
C3698 C3700 1.478 . S
C3699 H3693 0.930 . S
C3699 C3695 1.400 . S
C3699 C3698 1.385 . S
C3700 C3698 1.478 . S
C3700 C3702 1.381 . S
C3700 C3706 1.383 . S
C3701 C3697 1.495 . S
C3701 H3707 0.959 . S
C3701 H3708 0.961 . S
C3701 H3709 0.960 . S
C3702 C3700 1.381 . S
C3702 C3703 1.394 . S
C3702 H3710 0.930 . S
C3703 C3702 1.394 . S
C3703 C3704 1.383 . S
C3703 H3711 0.929 . S
C3704 C3703 1.383 . S
C3704 C3705 1.377 . S
C3705 H3689 0.930 . S
C3705 C3704 1.377 . S
C3705 C3706 1.379 . S
C3706 H3690 0.931 . S
C3706 C3700 1.383 . S
C3706 C3705 1.379 . S
H3707 C3701 0.959 . S
H3708 C3701 0.961 . S
H3709 C3701 0.960 . S
H3710 C3702 0.930 . S
H3711 C3703 0.929 . S
H3712 C3720 0.929 . S
H3713 C3722 0.930 . S
H3714 C3724 0.930 . S
H3715 C3727 0.929 . S
H3716 C3730 0.930 . S
H3717 C3732 0.960 . S
H3718 C3732 0.960 . S
H3719 C3732 0.960 . S
C3720 H3712 0.929 . S
C3720 C3721 1.377 . S
C3720 C3722 1.384 . S
C3721 C3720 1.377 . S
C3721 C3727 1.390 . S
C3722 H3713 0.930 . S
C3722 C3720 1.384 . S
C3722 C3723 1.372 . S
C3723 C3722 1.372 . S
C3723 C3724 1.400 . S
C3723 C3728 1.490 . S
C3724 H3714 0.930 . S
C3724 C3723 1.400 . S
C3724 C3727 1.386 . S
H3725 C3741 0.930 . S
H3726 C3742 0.931 . S
C3727 H3715 0.929 . S
C3727 C3721 1.390 . S
C3727 C3724 1.386 . S
C3728 C3723 1.490 . S
C3728 C3730 1.395 . S
C3728 C3731 1.403 . S
H3729 C3735 0.930 . S
C3730 H3716 0.930 . S
C3730 C3728 1.395 . S
C3730 C3733 1.403 . S
C3731 C3728 1.403 . S
C3731 C3732 1.524 . S
C3731 C3735 1.400 . S
C3732 H3717 0.960 . S
C3732 H3718 0.960 . S
C3732 H3719 0.960 . S
C3732 C3731 1.524 . S
C3733 C3730 1.403 . S
C3733 C3734 1.392 . S
C3733 C3737 1.495 . S
C3734 C3733 1.392 . S
C3734 C3735 1.385 . S
C3734 C3736 1.478 . S
C3735 H3729 0.930 . S
C3735 C3731 1.400 . S
C3735 C3734 1.385 . S
C3736 C3734 1.478 . S
C3736 C3738 1.381 . S
C3736 C3742 1.383 . S
C3737 C3733 1.495 . S
C3737 H3743 0.959 . S
C3737 H3744 0.961 . S
C3737 H3745 0.960 . S
C3738 C3736 1.381 . S
C3738 C3739 1.394 . S
C3738 H3746 0.930 . S
C3739 C3738 1.394 . S
C3739 C3740 1.383 . S
C3739 H3747 0.929 . S
C3740 C3739 1.383 . S
C3740 C3741 1.377 . S
C3741 H3725 0.930 . S
C3741 C3740 1.377 . S
C3741 C3742 1.379 . S
C3742 H3726 0.931 . S
C3742 C3736 1.383 . S
C3742 C3741 1.379 . S
H3743 C3737 0.959 . S
H3744 C3737 0.961 . S
H3745 C3737 0.960 . S
H3746 C3738 0.930 . S
H3747 C3739 0.929 . S
H3748 C3756 0.929 . S
H3749 C3758 0.930 . S
H3750 C3760 0.930 . S
H3751 C3763 0.929 . S
H3752 C3766 0.930 . S
H3753 C3768 0.960 . S
H3754 C3768 0.960 . S
H3755 C3768 0.960 . S
C3756 H3748 0.929 . S
C3756 C3757 1.377 . S
C3756 C3758 1.384 . S
C3757 C3756 1.377 . S
C3757 C3763 1.390 . S
C3758 H3749 0.930 . S
C3758 C3756 1.384 . S
C3758 C3759 1.372 . S
C3759 C3758 1.372 . S
C3759 C3760 1.400 . S
C3759 C3764 1.490 . S
C3760 H3750 0.930 . S
C3760 C3759 1.400 . S
C3760 C3763 1.386 . S
H3761 C3777 0.930 . S
H3762 C3778 0.931 . S
C3763 H3751 0.929 . S
C3763 C3757 1.390 . S
C3763 C3760 1.386 . S
C3764 C3759 1.490 . S
C3764 C3766 1.395 . S
C3764 C3767 1.403 . S
H3765 C3771 0.930 . S
C3766 H3752 0.930 . S
C3766 C3764 1.395 . S
C3766 C3769 1.403 . S
C3767 C3764 1.403 . S
C3767 C3768 1.524 . S
C3767 C3771 1.400 . S
C3768 H3753 0.960 . S
C3768 H3754 0.960 . S
C3768 H3755 0.960 . S
C3768 C3767 1.524 . S
C3769 C3766 1.403 . S
C3769 C3770 1.392 . S
C3769 C3773 1.495 . S
C3770 C3769 1.392 . S
C3770 C3771 1.385 . S
C3770 C3772 1.478 . S
C3771 H3765 0.930 . S
C3771 C3767 1.400 . S
C3771 C3770 1.385 . S
C3772 C3770 1.478 . S
C3772 C3774 1.381 . S
C3772 C3778 1.383 . S
C3773 C3769 1.495 . S
C3773 H3779 0.959 . S
C3773 H3780 0.961 . S
C3773 H3781 0.960 . S
C3774 C3772 1.381 . S
C3774 C3775 1.394 . S
C3774 H3782 0.930 . S
C3775 C3774 1.394 . S
C3775 C3776 1.383 . S
C3775 H3783 0.929 . S
C3776 C3775 1.383 . S
C3776 C3777 1.377 . S
C3777 H3761 0.930 . S
C3777 C3776 1.377 . S
C3777 C3778 1.379 . S
C3778 H3762 0.931 . S
C3778 C3772 1.383 . S
C3778 C3777 1.379 . S
H3779 C3773 0.959 . S
H3780 C3773 0.961 . S
H3781 C3773 0.960 . S
H3782 C3774 0.930 . S
H3783 C3775 0.929 . S
H3784 C3792 0.929 . S
H3785 C3794 0.930 . S
H3786 C3796 0.930 . S
H3787 C3799 0.929 . S
H3788 C3802 0.930 . S
H3789 C3804 0.960 . S
H3790 C3804 0.960 . S
H3791 C3804 0.960 . S
C3792 H3784 0.929 . S
C3792 C3793 1.377 . S
C3792 C3794 1.384 . S
C3793 C3792 1.377 . S
C3793 C3799 1.390 . S
C3794 H3785 0.930 . S
C3794 C3792 1.384 . S
C3794 C3795 1.372 . S
C3795 C3794 1.372 . S
C3795 C3796 1.400 . S
C3795 C3800 1.490 . S
C3796 H3786 0.930 . S
C3796 C3795 1.400 . S
C3796 C3799 1.386 . S
H3797 C3813 0.930 . S
H3798 C3814 0.931 . S
C3799 H3787 0.929 . S
C3799 C3793 1.390 . S
C3799 C3796 1.386 . S
C3800 C3795 1.490 . S
C3800 C3802 1.395 . S
C3800 C3803 1.403 . S
H3801 C3807 0.930 . S
C3802 H3788 0.930 . S
C3802 C3800 1.395 . S
C3802 C3805 1.403 . S
C3803 C3800 1.403 . S
C3803 C3804 1.524 . S
C3803 C3807 1.400 . S
C3804 H3789 0.960 . S
C3804 H3790 0.960 . S
C3804 H3791 0.960 . S
C3804 C3803 1.524 . S
C3805 C3802 1.403 . S
C3805 C3806 1.392 . S
C3805 C3809 1.495 . S
C3806 C3805 1.392 . S
C3806 C3807 1.385 . S
C3806 C3808 1.478 . S
C3807 H3801 0.930 . S
C3807 C3803 1.400 . S
C3807 C3806 1.385 . S
C3808 C3806 1.478 . S
C3808 C3810 1.381 . S
C3808 C3814 1.383 . S
C3809 C3805 1.495 . S
C3809 H3815 0.959 . S
C3809 H3816 0.961 . S
C3809 H3817 0.960 . S
C3810 C3808 1.381 . S
C3810 C3811 1.394 . S
C3810 H3818 0.930 . S
C3811 C3810 1.394 . S
C3811 C3812 1.383 . S
C3811 H3819 0.929 . S
C3812 C3811 1.383 . S
C3812 C3813 1.377 . S
C3813 H3797 0.930 . S
C3813 C3812 1.377 . S
C3813 C3814 1.379 . S
C3814 H3798 0.931 . S
C3814 C3808 1.383 . S
C3814 C3813 1.379 . S
H3815 C3809 0.959 . S
H3816 C3809 0.961 . S
H3817 C3809 0.960 . S
H3818 C3810 0.930 . S
H3819 C3811 0.929 . S
H3820 C3828 0.929 . S
H3821 C3830 0.930 . S
H3822 C3832 0.930 . S
H3823 C3835 0.929 . S
H3824 C3838 0.930 . S
H3825 C3840 0.960 . S
H3826 C3840 0.960 . S
H3827 C3840 0.960 . S
C3828 H3820 0.929 . S
C3828 C3829 1.377 . S
C3828 C3830 1.384 . S
C3829 C3828 1.377 . S
C3829 C3835 1.390 . S
C3830 H3821 0.930 . S
C3830 C3828 1.384 . S
C3830 C3831 1.372 . S
C3831 C3830 1.372 . S
C3831 C3832 1.400 . S
C3831 C3836 1.490 . S
C3832 H3822 0.930 . S
C3832 C3831 1.400 . S
C3832 C3835 1.386 . S
H3833 C3849 0.930 . S
H3834 C3850 0.931 . S
C3835 H3823 0.929 . S
C3835 C3829 1.390 . S
C3835 C3832 1.386 . S
C3836 C3831 1.490 . S
C3836 C3838 1.395 . S
C3836 C3839 1.403 . S
H3837 C3843 0.930 . S
C3838 H3824 0.930 . S
C3838 C3836 1.395 . S
C3838 C3841 1.403 . S
C3839 C3836 1.403 . S
C3839 C3840 1.524 . S
C3839 C3843 1.400 . S
C3840 H3825 0.960 . S
C3840 H3826 0.960 . S
C3840 H3827 0.960 . S
C3840 C3839 1.524 . S
C3841 C3838 1.403 . S
C3841 C3842 1.392 . S
C3841 C3845 1.495 . S
C3842 C3841 1.392 . S
C3842 C3843 1.385 . S
C3842 C3844 1.478 . S
C3843 H3837 0.930 . S
C3843 C3839 1.400 . S
C3843 C3842 1.385 . S
C3844 C3842 1.478 . S
C3844 C3846 1.381 . S
C3844 C3850 1.383 . S
C3845 C3841 1.495 . S
C3845 H3851 0.959 . S
C3845 H3852 0.961 . S
C3845 H3853 0.960 . S
C3846 C3844 1.381 . S
C3846 C3847 1.394 . S
C3846 H3854 0.930 . S
C3847 C3846 1.394 . S
C3847 C3848 1.383 . S
C3847 H3855 0.929 . S
C3848 C3847 1.383 . S
C3848 C3849 1.377 . S
C3849 H3833 0.930 . S
C3849 C3848 1.377 . S
C3849 C3850 1.379 . S
C3850 H3834 0.931 . S
C3850 C3844 1.383 . S
C3850 C3849 1.379 . S
H3851 C3845 0.959 . S
H3852 C3845 0.961 . S
H3853 C3845 0.960 . S
H3854 C3846 0.930 . S
H3855 C3847 0.929 . S
H3856 C3864 0.929 . S
H3857 C3866 0.930 . S
H3858 C3868 0.930 . S
H3859 C3871 0.929 . S
H3860 C3874 0.930 . S
H3861 C3876 0.960 . S
H3862 C3876 0.960 . S
H3863 C3876 0.960 . S
C3864 H3856 0.929 . S
C3864 C3865 1.377 . S
C3864 C3866 1.384 . S
C3865 C3864 1.377 . S
C3865 C3871 1.390 . S
C3866 H3857 0.930 . S
C3866 C3864 1.384 . S
C3866 C3867 1.372 . S
C3867 C3866 1.372 . S
C3867 C3868 1.400 . S
C3867 C3872 1.490 . S
C3868 H3858 0.930 . S
C3868 C3867 1.400 . S
C3868 C3871 1.386 . S
H3869 C3885 0.930 . S
H3870 C3886 0.931 . S
C3871 H3859 0.929 . S
C3871 C3865 1.390 . S
C3871 C3868 1.386 . S
C3872 C3867 1.490 . S
C3872 C3874 1.395 . S
C3872 C3875 1.403 . S
H3873 C3879 0.930 . S
C3874 H3860 0.930 . S
C3874 C3872 1.395 . S
C3874 C3877 1.403 . S
C3875 C3872 1.403 . S
C3875 C3876 1.524 . S
C3875 C3879 1.400 . S
C3876 H3861 0.960 . S
C3876 H3862 0.960 . S
C3876 H3863 0.960 . S
C3876 C3875 1.524 . S
C3877 C3874 1.403 . S
C3877 C3878 1.392 . S
C3877 C3881 1.495 . S
C3878 C3877 1.392 . S
C3878 C3879 1.385 . S
C3878 C3880 1.478 . S
C3879 H3873 0.930 . S
C3879 C3875 1.400 . S
C3879 C3878 1.385 . S
C3880 C3878 1.478 . S
C3880 C3882 1.381 . S
C3880 C3886 1.383 . S
C3881 C3877 1.495 . S
C3881 H3887 0.959 . S
C3881 H3888 0.961 . S
C3881 H3889 0.960 . S
C3882 C3880 1.381 . S
C3882 C3883 1.394 . S
C3882 H3890 0.930 . S
C3883 C3882 1.394 . S
C3883 C3884 1.383 . S
C3883 H3891 0.929 . S
C3884 C3883 1.383 . S
C3884 C3885 1.377 . S
C3885 H3869 0.930 . S
C3885 C3884 1.377 . S
C3885 C3886 1.379 . S
C3886 H3870 0.931 . S
C3886 C3880 1.383 . S
C3886 C3885 1.379 . S
H3887 C3881 0.959 . S
H3888 C3881 0.961 . S
H3889 C3881 0.960 . S
H3890 C3882 0.930 . S
H3891 C3883 0.929 . S
H3892 C3900 0.929 . S
H3893 C3902 0.930 . S
H3894 C3904 0.930 . S
H3895 C3907 0.929 . S
H3896 C3910 0.930 . S
H3897 C3912 0.960 . S
H3898 C3912 0.960 . S
H3899 C3912 0.960 . S
C3900 H3892 0.929 . S
C3900 C3901 1.377 . S
C3900 C3902 1.384 . S
C3901 C3900 1.377 . S
C3901 C3907 1.390 . S
C3902 H3893 0.930 . S
C3902 C3900 1.384 . S
C3902 C3903 1.372 . S
C3903 C3902 1.372 . S
C3903 C3904 1.400 . S
C3903 C3908 1.490 . S
C3904 H3894 0.930 . S
C3904 C3903 1.400 . S
C3904 C3907 1.386 . S
H3905 C3921 0.930 . S
H3906 C3922 0.931 . S
C3907 H3895 0.929 . S
C3907 C3901 1.390 . S
C3907 C3904 1.386 . S
C3908 C3903 1.490 . S
C3908 C3910 1.395 . S
C3908 C3911 1.403 . S
H3909 C3915 0.930 . S
C3910 H3896 0.930 . S
C3910 C3908 1.395 . S
C3910 C3913 1.403 . S
C3911 C3908 1.403 . S
C3911 C3912 1.524 . S
C3911 C3915 1.400 . S
C3912 H3897 0.960 . S
C3912 H3898 0.960 . S
C3912 H3899 0.960 . S
C3912 C3911 1.524 . S
C3913 C3910 1.403 . S
C3913 C3914 1.392 . S
C3913 C3917 1.495 . S
C3914 C3913 1.392 . S
C3914 C3915 1.385 . S
C3914 C3916 1.478 . S
C3915 H3909 0.930 . S
C3915 C3911 1.400 . S
C3915 C3914 1.385 . S
C3916 C3914 1.478 . S
C3916 C3918 1.381 . S
C3916 C3922 1.383 . S
C3917 C3913 1.495 . S
C3917 H3923 0.959 . S
C3917 H3924 0.961 . S
C3917 H3925 0.960 . S
C3918 C3916 1.381 . S
C3918 C3919 1.394 . S
C3918 H3926 0.930 . S
C3919 C3918 1.394 . S
C3919 C3920 1.383 . S
C3919 H3927 0.929 . S
C3920 C3919 1.383 . S
C3920 C3921 1.377 . S
C3921 H3905 0.930 . S
C3921 C3920 1.377 . S
C3921 C3922 1.379 . S
C3922 H3906 0.931 . S
C3922 C3916 1.383 . S
C3922 C3921 1.379 . S
H3923 C3917 0.959 . S
H3924 C3917 0.961 . S
H3925 C3917 0.960 . S
H3926 C3918 0.930 . S
H3927 C3919 0.929 . S
H3928 C3936 0.929 . S
H3929 C3938 0.930 . S
H3930 C3940 0.930 . S
H3931 C3943 0.929 . S
H3932 C3946 0.930 . S
H3933 C3948 0.960 . S
H3934 C3948 0.960 . S
H3935 C3948 0.960 . S
C3936 H3928 0.929 . S
C3936 C3937 1.377 . S
C3936 C3938 1.384 . S
C3937 C3936 1.377 . S
C3937 C3943 1.390 . S
C3938 H3929 0.930 . S
C3938 C3936 1.384 . S
C3938 C3939 1.372 . S
C3939 C3938 1.372 . S
C3939 C3940 1.400 . S
C3939 C3944 1.490 . S
C3940 H3930 0.930 . S
C3940 C3939 1.400 . S
C3940 C3943 1.386 . S
H3941 C3957 0.933 . S
H3942 C3958 0.931 . S
C3943 H3931 0.929 . S
C3943 C3937 1.390 . S
C3943 C3940 1.386 . S
C3944 C3939 1.490 . S
C3944 C3946 1.395 . S
C3944 C3947 1.403 . S
H3945 C3951 0.932 1_455 S
C3946 H3932 0.930 . S
C3946 C3944 1.395 . S
C3946 C3949 1.403 . S
C3947 C3944 1.403 . S
C3947 C3948 1.524 . S
C3947 C3951 1.400 . S
C3948 H3933 0.960 . S
C3948 H3934 0.960 . S
C3948 H3935 0.960 . S
C3948 C3947 1.524 . S
C3949 C3946 1.403 . S
C3949 C3950 1.392 . S
C3949 C3953 1.495 . S
C3950 C3949 1.392 . S
C3950 C3951 1.385 . S
C3950 C3952 1.478 . S
C3951 H3945 0.932 1_655 S
C3951 C3947 1.400 . S
C3951 C3950 1.385 . S
C3952 C3950 1.478 . S
C3952 C3954 1.381 1_655 S
C3952 C3958 1.383 . S
C3953 C3949 1.495 . S
C3953 H3959 0.959 . S
C3953 H3960 0.961 . S
C3953 H3961 0.960 . S
C3954 C3952 1.381 1_455 S
C3954 C3955 1.394 . S
C3954 H3962 0.930 . S
C3955 C3954 1.394 . S
C3955 C3956 1.383 . S
C3955 H3963 0.929 . S
C3956 C3955 1.383 . S
C3956 C3957 1.377 . S
C3957 H3941 0.933 . S
C3957 C3956 1.377 . S
C3957 C3958 1.379 1_455 S
C3958 H3942 0.931 . S
C3958 C3952 1.383 . S
C3958 C3957 1.379 1_655 S
H3959 C3953 0.959 . S
H3960 C3953 0.961 . S
H3961 C3953 0.960 . S
H3962 C3954 0.930 . S
H3963 C3955 0.929 . S
H3964 C3972 0.929 . S
H3965 C3974 0.930 . S
H3966 C3976 0.930 . S
H3967 C3979 0.929 . S
H3968 C3982 0.930 . S
H3969 C3984 0.960 . S
H3970 C3984 0.960 . S
H3971 C3984 0.960 . S
C3972 H3964 0.929 . S
C3972 C3973 1.377 . S
C3972 C3974 1.384 . S
C3973 C3972 1.377 . S
C3973 C3979 1.390 . S
C3974 H3965 0.930 . S
C3974 C3972 1.384 . S
C3974 C3975 1.372 . S
C3975 C3974 1.372 . S
C3975 C3976 1.400 . S
C3975 C3980 1.490 . S
C3976 H3966 0.930 . S
C3976 C3975 1.400 . S
C3976 C3979 1.386 . S
H3977 C3993 0.930 . S
H3978 C3994 0.931 . S
C3979 H3967 0.929 . S
C3979 C3973 1.390 . S
C3979 C3976 1.386 . S
C3980 C3975 1.490 . S
C3980 C3982 1.395 . S
C3980 C3983 1.403 . S
H3981 C3987 0.930 . S
C3982 H3968 0.930 . S
C3982 C3980 1.395 . S
C3982 C3985 1.403 . S
C3983 C3980 1.403 . S
C3983 C3984 1.524 . S
C3983 C3987 1.400 . S
C3984 H3969 0.960 . S
C3984 H3970 0.960 . S
C3984 H3971 0.960 . S
C3984 C3983 1.524 . S
C3985 C3982 1.403 . S
C3985 C3986 1.392 . S
C3985 C3989 1.495 . S
C3986 C3985 1.392 . S
C3986 C3987 1.385 . S
C3986 C3988 1.478 . S
C3987 H3981 0.930 . S
C3987 C3983 1.400 . S
C3987 C3986 1.385 . S
C3988 C3986 1.478 . S
C3988 C3990 1.381 . S
C3988 C3994 1.383 . S
C3989 C3985 1.495 . S
C3989 H3995 0.959 . S
C3989 H3996 0.961 . S
C3989 H3997 0.960 . S
C3990 C3988 1.381 . S
C3990 C3991 1.394 . S
C3990 H3998 0.930 . S
C3991 C3990 1.394 . S
C3991 C3992 1.383 . S
C3991 H3999 0.929 . S
C3992 C3991 1.383 . S
C3992 C3993 1.377 . S
C3993 H3977 0.930 . S
C3993 C3992 1.377 . S
C3993 C3994 1.379 . S
C3994 H3978 0.931 . S
C3994 C3988 1.383 . S
C3994 C3993 1.379 . S
H3995 C3989 0.959 . S
H3996 C3989 0.961 . S
H3997 C3989 0.960 . S
H3998 C3990 0.930 . S
H3999 C3991 0.929 . S
H4000 C4008 0.929 . S
H4001 C4010 0.930 . S
H4002 C4012 0.930 . S
H4003 C4015 0.929 . S
H4004 C4018 0.930 . S
H4005 C4020 0.960 . S
H4006 C4020 0.960 . S
H4007 C4020 0.960 . S
C4008 H4000 0.929 . S
C4008 C4009 1.377 . S
C4008 C4010 1.384 . S
C4009 C4008 1.377 . S
C4009 C4015 1.390 . S
C4010 H4001 0.930 . S
C4010 C4008 1.384 . S
C4010 C4011 1.372 . S
C4011 C4010 1.372 . S
C4011 C4012 1.400 . S
C4011 C4016 1.490 . S
C4012 H4002 0.930 . S
C4012 C4011 1.400 . S
C4012 C4015 1.386 . S
H4013 C4029 0.930 . S
H4014 C4030 0.931 . S
C4015 H4003 0.929 . S
C4015 C4009 1.390 . S
C4015 C4012 1.386 . S
C4016 C4011 1.490 . S
C4016 C4018 1.395 . S
C4016 C4019 1.403 . S
H4017 C4023 0.930 . S
C4018 H4004 0.930 . S
C4018 C4016 1.395 . S
C4018 C4021 1.403 . S
C4019 C4016 1.403 . S
C4019 C4020 1.524 . S
C4019 C4023 1.400 . S
C4020 H4005 0.960 . S
C4020 H4006 0.960 . S
C4020 H4007 0.960 . S
C4020 C4019 1.524 . S
C4021 C4018 1.403 . S
C4021 C4022 1.392 . S
C4021 C4025 1.495 . S
C4022 C4021 1.392 . S
C4022 C4023 1.385 . S
C4022 C4024 1.478 . S
C4023 H4017 0.930 . S
C4023 C4019 1.400 . S
C4023 C4022 1.385 . S
C4024 C4022 1.478 . S
C4024 C4026 1.381 . S
C4024 C4030 1.383 . S
C4025 C4021 1.495 . S
C4025 H4031 0.959 . S
C4025 H4032 0.961 . S
C4025 H4033 0.960 . S
C4026 C4024 1.381 . S
C4026 C4027 1.394 . S
C4026 H4034 0.930 . S
C4027 C4026 1.394 . S
C4027 C4028 1.383 . S
C4027 H4035 0.929 . S
C4028 C4027 1.383 . S
C4028 C4029 1.377 . S
C4029 H4013 0.930 . S
C4029 C4028 1.377 . S
C4029 C4030 1.379 . S
C4030 H4014 0.931 . S
C4030 C4024 1.383 . S
C4030 C4029 1.379 . S
H4031 C4025 0.959 . S
H4032 C4025 0.961 . S
H4033 C4025 0.960 . S
H4034 C4026 0.930 . S
H4035 C4027 0.929 . S
H4036 C4044 0.929 . S
H4037 C4046 0.930 . S
H4038 C4048 0.930 . S
H4039 C4051 0.929 . S
H4040 C4054 0.930 . S
H4041 C4056 0.960 . S
H4042 C4056 0.960 . S
H4043 C4056 0.960 . S
C4044 H4036 0.929 . S
C4044 C4045 1.377 . S
C4044 C4046 1.384 . S
C4045 C4044 1.377 . S
C4045 C4051 1.390 . S
C4046 H4037 0.930 . S
C4046 C4044 1.384 . S
C4046 C4047 1.372 . S
C4047 C4046 1.372 . S
C4047 C4048 1.400 . S
C4047 C4052 1.490 . S
C4048 H4038 0.930 . S
C4048 C4047 1.400 . S
C4048 C4051 1.386 . S
H4049 C4065 0.930 . S
H4050 C4066 0.931 . S
C4051 H4039 0.929 . S
C4051 C4045 1.390 . S
C4051 C4048 1.386 . S
C4052 C4047 1.490 . S
C4052 C4054 1.395 . S
C4052 C4055 1.403 . S
H4053 C4059 0.930 . S
C4054 H4040 0.930 . S
C4054 C4052 1.395 . S
C4054 C4057 1.403 . S
C4055 C4052 1.403 . S
C4055 C4056 1.524 . S
C4055 C4059 1.400 . S
C4056 H4041 0.960 . S
C4056 H4042 0.960 . S
C4056 H4043 0.960 . S
C4056 C4055 1.524 . S
C4057 C4054 1.403 . S
C4057 C4058 1.392 . S
C4057 C4061 1.495 . S
C4058 C4057 1.392 . S
C4058 C4059 1.385 . S
C4058 C4060 1.478 . S
C4059 H4053 0.930 . S
C4059 C4055 1.400 . S
C4059 C4058 1.385 . S
C4060 C4058 1.478 . S
C4060 C4062 1.381 . S
C4060 C4066 1.383 . S
C4061 C4057 1.495 . S
C4061 H4067 0.959 . S
C4061 H4068 0.961 . S
C4061 H4069 0.960 . S
C4062 C4060 1.381 . S
C4062 C4063 1.394 . S
C4062 H4070 0.930 . S
C4063 C4062 1.394 . S
C4063 C4064 1.383 . S
C4063 H4071 0.929 . S
C4064 C4063 1.383 . S
C4064 C4065 1.377 . S
C4065 H4049 0.930 . S
C4065 C4064 1.377 . S
C4065 C4066 1.379 . S
C4066 H4050 0.931 . S
C4066 C4060 1.383 . S
C4066 C4065 1.379 . S
H4067 C4061 0.959 . S
H4068 C4061 0.961 . S
H4069 C4061 0.960 . S
H4070 C4062 0.930 . S
H4071 C4063 0.929 . S
H4072 C4080 0.929 . S
H4073 C4082 0.930 . S
H4074 C4084 0.930 . S
H4075 C4087 0.929 . S
H4076 C4090 0.930 . S
H4077 C4092 0.960 . S
H4078 C4092 0.960 . S
H4079 C4092 0.960 . S
C4080 H4072 0.929 . S
C4080 C4081 1.377 . S
C4080 C4082 1.384 . S
C4081 C4080 1.377 . S
C4081 C4087 1.390 . S
C4082 H4073 0.930 . S
C4082 C4080 1.384 . S
C4082 C4083 1.372 . S
C4083 C4082 1.372 . S
C4083 C4084 1.400 . S
C4083 C4088 1.490 . S
C4084 H4074 0.930 . S
C4084 C4083 1.400 . S
C4084 C4087 1.386 . S
H4085 C4101 0.930 . S
H4086 C4102 0.931 . S
C4087 H4075 0.929 . S
C4087 C4081 1.390 . S
C4087 C4084 1.386 . S
C4088 C4083 1.490 . S
C4088 C4090 1.395 . S
C4088 C4091 1.403 . S
H4089 C4095 0.930 . S
C4090 H4076 0.930 . S
C4090 C4088 1.395 . S
C4090 C4093 1.403 . S
C4091 C4088 1.403 . S
C4091 C4092 1.524 . S
C4091 C4095 1.400 . S
C4092 H4077 0.960 . S
C4092 H4078 0.960 . S
C4092 H4079 0.960 . S
C4092 C4091 1.524 . S
C4093 C4090 1.403 . S
C4093 C4094 1.392 . S
C4093 C4097 1.495 . S
C4094 C4093 1.392 . S
C4094 C4095 1.385 . S
C4094 C4096 1.478 . S
C4095 H4089 0.930 . S
C4095 C4091 1.400 . S
C4095 C4094 1.385 . S
C4096 C4094 1.478 . S
C4096 C4098 1.381 . S
C4096 C4102 1.383 . S
C4097 C4093 1.495 . S
C4097 H4103 0.959 1_655 S
C4097 H4104 0.961 1_655 S
C4097 H4105 0.960 . S
C4098 C4096 1.381 . S
C4098 C4099 1.394 . S
C4098 H4106 0.930 . S
C4099 C4098 1.394 . S
C4099 C4100 1.383 . S
C4099 H4107 0.929 . S
C4100 C4099 1.383 . S
C4100 C4101 1.377 . S
C4101 H4085 0.930 . S
C4101 C4100 1.377 . S
C4101 C4102 1.379 . S
C4102 H4086 0.931 . S
C4102 C4096 1.383 . S
C4102 C4101 1.379 . S
H4103 C4097 0.959 1_455 S
H4104 C4097 0.961 1_455 S
H4105 C4097 0.960 . S
H4106 C4098 0.930 . S
H4107 C4099 0.929 . S
H4108 C4116 0.929 . S
H4109 C4118 0.930 . S
H4110 C4120 0.930 . S
H4111 C4123 0.929 . S
H4112 C4126 0.930 . S
H4113 C4128 0.960 . S
H4114 C4128 0.960 . S
H4115 C4128 0.960 . S
C4116 H4108 0.929 . S
C4116 C4117 1.377 . S
C4116 C4118 1.384 . S
C4117 C4116 1.377 . S
C4117 C4123 1.390 . S
C4118 H4109 0.930 . S
C4118 C4116 1.384 . S
C4118 C4119 1.372 . S
C4119 C4118 1.372 . S
C4119 C4120 1.400 . S
C4119 C4124 1.490 . S
C4120 H4110 0.930 . S
C4120 C4119 1.400 . S
C4120 C4123 1.386 . S
H4121 C4137 0.930 . S
H4122 C4138 0.931 . S
C4123 H4111 0.929 . S
C4123 C4117 1.390 . S
C4123 C4120 1.386 . S
C4124 C4119 1.490 . S
C4124 C4126 1.395 . S
C4124 C4127 1.403 . S
H4125 C4131 0.930 . S
C4126 H4112 0.930 . S
C4126 C4124 1.395 . S
C4126 C4129 1.403 . S
C4127 C4124 1.403 . S
C4127 C4128 1.524 . S
C4127 C4131 1.400 . S
C4128 H4113 0.960 . S
C4128 H4114 0.960 . S
C4128 H4115 0.960 . S
C4128 C4127 1.524 . S
C4129 C4126 1.403 . S
C4129 C4130 1.392 . S
C4129 C4133 1.495 . S
C4130 C4129 1.392 . S
C4130 C4131 1.385 . S
C4130 C4132 1.478 . S
C4131 H4125 0.930 . S
C4131 C4127 1.400 . S
C4131 C4130 1.385 . S
C4132 C4130 1.478 . S
C4132 C4134 1.381 . S
C4132 C4138 1.383 . S
C4133 C4129 1.495 . S
C4133 H4139 0.959 . S
C4133 H4140 0.961 . S
C4133 H4141 0.960 . S
C4134 C4132 1.381 . S
C4134 C4135 1.394 . S
C4134 H4142 0.930 . S
C4135 C4134 1.394 . S
C4135 C4136 1.383 . S
C4135 H4143 0.929 . S
C4136 C4135 1.383 . S
C4136 C4137 1.377 . S
C4137 H4121 0.930 . S
C4137 C4136 1.377 . S
C4137 C4138 1.379 . S
C4138 H4122 0.931 . S
C4138 C4132 1.383 . S
C4138 C4137 1.379 . S
H4139 C4133 0.959 . S
H4140 C4133 0.961 . S
H4141 C4133 0.960 . S
H4142 C4134 0.930 . S
H4143 C4135 0.929 . S
H4144 C4152 0.929 . S
H4145 C4154 0.930 . S
H4146 C4156 0.930 . S
H4147 C4159 0.929 . S
H4148 C4162 0.930 . S
H4149 C4164 0.960 . S
H4150 C4164 0.960 . S
H4151 C4164 0.960 . S
C4152 H4144 0.929 . S
C4152 C4153 1.377 . S
C4152 C4154 1.384 . S
C4153 C4152 1.377 . S
C4153 C4159 1.390 . S
C4154 H4145 0.930 . S
C4154 C4152 1.384 . S
C4154 C4155 1.372 . S
C4155 C4154 1.372 . S
C4155 C4156 1.400 . S
C4155 C4160 1.490 . S
C4156 H4146 0.930 . S
C4156 C4155 1.400 . S
C4156 C4159 1.386 . S
H4157 C4173 0.930 . S
H4158 C4174 0.931 . S
C4159 H4147 0.929 . S
C4159 C4153 1.390 . S
C4159 C4156 1.386 . S
C4160 C4155 1.490 . S
C4160 C4162 1.395 . S
C4160 C4163 1.403 . S
H4161 C4167 0.930 . S
C4162 H4148 0.930 . S
C4162 C4160 1.395 . S
C4162 C4165 1.403 . S
C4163 C4160 1.403 . S
C4163 C4164 1.524 . S
C4163 C4167 1.400 . S
C4164 H4149 0.960 . S
C4164 H4150 0.960 . S
C4164 H4151 0.960 . S
C4164 C4163 1.524 . S
C4165 C4162 1.403 . S
C4165 C4166 1.392 . S
C4165 C4169 1.495 . S
C4166 C4165 1.392 . S
C4166 C4167 1.385 . S
C4166 C4168 1.478 . S
C4167 H4161 0.930 . S
C4167 C4163 1.400 . S
C4167 C4166 1.385 . S
C4168 C4166 1.478 . S
C4168 C4170 1.381 . S
C4168 C4174 1.383 . S
C4169 C4165 1.495 . S
C4169 H4175 0.959 . S
C4169 H4176 0.961 . S
C4169 H4177 0.960 . S
C4170 C4168 1.381 . S
C4170 C4171 1.394 . S
C4170 H4178 0.930 . S
C4171 C4170 1.394 . S
C4171 C4172 1.383 . S
C4171 H4179 0.929 . S
C4172 C4171 1.383 . S
C4172 C4173 1.377 . S
C4173 H4157 0.930 . S
C4173 C4172 1.377 . S
C4173 C4174 1.379 . S
C4174 H4158 0.931 . S
C4174 C4168 1.383 . S
C4174 C4173 1.379 . S
H4175 C4169 0.959 . S
H4176 C4169 0.961 . S
H4177 C4169 0.960 . S
H4178 C4170 0.930 . S
H4179 C4171 0.929 . S
H4180 C4188 0.929 . S
H4181 C4190 0.930 . S
H4182 C4192 0.930 . S
H4183 C4195 0.929 . S
H4184 C4198 0.930 . S
H4185 C4200 0.960 . S
H4186 C4200 0.960 . S
H4187 C4200 0.960 . S
C4188 H4180 0.929 . S
C4188 C4189 1.377 . S
C4188 C4190 1.384 . S
C4189 C4188 1.377 . S
C4189 C4195 1.390 . S
C4190 H4181 0.930 . S
C4190 C4188 1.384 . S
C4190 C4191 1.372 . S
C4191 C4190 1.372 . S
C4191 C4192 1.400 . S
C4191 C4196 1.490 . S
C4192 H4182 0.930 . S
C4192 C4191 1.400 . S
C4192 C4195 1.386 . S
H4193 C4209 0.930 . S
H4194 C4210 0.931 . S
C4195 H4183 0.929 . S
C4195 C4189 1.390 . S
C4195 C4192 1.386 . S
C4196 C4191 1.490 . S
C4196 C4198 1.395 . S
C4196 C4199 1.403 . S
H4197 C4203 0.930 . S
C4198 H4184 0.930 . S
C4198 C4196 1.395 . S
C4198 C4201 1.403 . S
C4199 C4196 1.403 . S
C4199 C4200 1.524 . S
C4199 C4203 1.400 . S
C4200 H4185 0.960 . S
C4200 H4186 0.960 . S
C4200 H4187 0.960 . S
C4200 C4199 1.524 . S
C4201 C4198 1.403 . S
C4201 C4202 1.392 . S
C4201 C4205 1.495 . S
C4202 C4201 1.392 . S
C4202 C4203 1.385 . S
C4202 C4204 1.478 . S
C4203 H4197 0.930 . S
C4203 C4199 1.400 . S
C4203 C4202 1.385 . S
C4204 C4202 1.478 . S
C4204 C4206 1.381 . S
C4204 C4210 1.383 . S
C4205 C4201 1.495 . S
C4205 H4211 0.959 . S
C4205 H4212 0.961 1_565 S
C4205 H4213 0.967 . S
C4206 C4204 1.381 . S
C4206 C4207 1.406 . S
C4206 H4214 0.930 . S
C4207 C4206 1.406 . S
C4207 C4208 1.388 1_565 S
C4207 H4215 0.915 1_565 S
C4208 C4207 1.388 1_545 S
C4208 C4209 1.377 1_545 S
C4209 H4193 0.930 . S
C4209 C4208 1.377 1_565 S
C4209 C4210 1.379 . S
C4210 H4194 0.931 . S
C4210 C4204 1.383 . S
C4210 C4209 1.379 . S
H4211 C4205 0.959 . S
H4212 C4205 0.961 1_545 S
H4213 C4205 0.967 . S
H4214 C4206 0.930 . S
H4215 C4207 0.915 1_545 S
H4216 C4224 0.929 . S
H4217 C4226 0.930 . S
H4218 C4228 0.930 . S
H4219 C4231 0.929 . S
H4220 C4234 0.930 . S
H4221 C4236 0.960 . S
H4222 C4236 0.960 . S
H4223 C4236 0.960 . S
C4224 H4216 0.929 . S
C4224 C4225 1.377 . S
C4224 C4226 1.384 . S
C4225 C4224 1.377 . S
C4225 C4231 1.390 . S
C4226 H4217 0.930 . S
C4226 C4224 1.384 . S
C4226 C4227 1.372 . S
C4227 C4226 1.372 . S
C4227 C4228 1.400 . S
C4227 C4232 1.490 . S
C4228 H4218 0.930 . S
C4228 C4227 1.400 . S
C4228 C4231 1.386 . S
H4229 C4245 0.930 . S
H4230 C4246 0.931 . S
C4231 H4219 0.929 . S
C4231 C4225 1.390 . S
C4231 C4228 1.386 . S
C4232 C4227 1.490 . S
C4232 C4234 1.395 . S
C4232 C4235 1.403 . S
H4233 C4239 0.930 . S
C4234 H4220 0.930 . S
C4234 C4232 1.395 . S
C4234 C4237 1.403 . S
C4235 C4232 1.403 . S
C4235 C4236 1.524 . S
C4235 C4239 1.400 . S
C4236 H4221 0.960 . S
C4236 H4222 0.960 . S
C4236 H4223 0.960 . S
C4236 C4235 1.524 . S
C4237 C4234 1.403 . S
C4237 C4238 1.392 . S
C4237 C4241 1.495 . S
C4238 C4237 1.392 . S
C4238 C4239 1.385 . S
C4238 C4240 1.478 . S
C4239 H4233 0.930 . S
C4239 C4235 1.400 . S
C4239 C4238 1.385 . S
C4240 C4238 1.478 . S
C4240 C4242 1.381 . S
C4240 C4246 1.383 . S
C4241 C4237 1.495 . S
C4241 H4247 0.959 . S
C4241 H4248 0.961 . S
C4241 H4249 0.960 . S
C4242 C4240 1.381 . S
C4242 C4243 1.394 . S
C4242 H4250 0.930 . S
C4243 C4242 1.394 . S
C4243 C4244 1.383 . S
C4243 H4251 0.929 . S
C4244 C4243 1.383 . S
C4244 C4245 1.377 . S
C4245 H4229 0.930 . S
C4245 C4244 1.377 . S
C4245 C4246 1.379 . S
C4246 H4230 0.931 . S
C4246 C4240 1.383 . S
C4246 C4245 1.379 . S
H4247 C4241 0.959 . S
H4248 C4241 0.961 . S
H4249 C4241 0.960 . S
H4250 C4242 0.930 . S
H4251 C4243 0.929 . S
H4252 C4260 0.929 . S
H4253 C4262 0.930 . S
H4254 C4264 0.930 . S
H4255 C4267 0.929 . S
H4256 C4270 0.930 . S
H4257 C4272 0.960 . S
H4258 C4272 0.960 . S
H4259 C4272 0.960 . S
C4260 H4252 0.929 . S
C4260 C4261 1.377 1_556 S
C4260 C4262 1.384 . S
C4261 C4260 1.377 1_554 S
C4261 C4267 1.390 . S
C4262 H4253 0.930 . S
C4262 C4260 1.384 . S
C4262 C4263 1.372 1_556 S
C4263 C4262 1.372 1_554 S
C4263 C4264 1.400 . S
C4263 C4268 1.490 . S
C4264 H4254 0.930 . S
C4264 C4263 1.400 . S
C4264 C4267 1.386 . S
H4265 C4281 0.930 . S
H4266 C4282 0.931 . S
C4267 H4255 0.929 . S
C4267 C4261 1.390 . S
C4267 C4264 1.386 . S
C4268 C4263 1.490 . S
C4268 C4270 1.395 . S
C4268 C4271 1.403 1_554 S
H4269 C4275 0.930 . S
C4270 H4256 0.930 . S
C4270 C4268 1.395 . S
C4270 C4273 1.403 . S
C4271 C4268 1.403 1_556 S
C4271 C4272 1.524 . S
C4271 C4275 1.400 . S
C4272 H4257 0.960 . S
C4272 H4258 0.960 . S
C4272 H4259 0.960 . S
C4272 C4271 1.524 . S
C4273 C4270 1.403 . S
C4273 C4274 1.392 . S
C4273 C4277 1.495 . S
C4274 C4273 1.392 . S
C4274 C4275 1.385 1_554 S
C4274 C4276 1.478 . S
C4275 H4269 0.930 . S
C4275 C4271 1.400 . S
C4275 C4274 1.385 1_556 S
C4276 C4274 1.478 . S
C4276 C4278 1.381 1_554 S
C4276 C4282 1.383 . S
C4277 C4273 1.495 . S
C4277 H4283 0.959 . S
C4277 H4284 0.961 . S
C4277 H4285 0.960 . S
C4278 C4276 1.381 1_556 S
C4278 C4279 1.394 . S
C4278 H4286 0.930 . S
C4279 C4278 1.394 . S
C4279 C4280 1.383 1_556 S
C4279 H4287 0.929 . S
C4280 C4279 1.383 1_554 S
C4280 C4281 1.377 . S
C4281 H4265 0.930 . S
C4281 C4280 1.377 . S
C4281 C4282 1.379 . S
C4282 H4266 0.931 . S
C4282 C4276 1.383 . S
C4282 C4281 1.379 . S
H4283 C4277 0.959 . S
H4284 C4277 0.961 . S
H4285 C4277 0.960 . S
H4286 C4278 0.930 . S
H4287 C4279 0.929 . S
H4288 C4296 0.929 . S
H4289 C4298 0.930 . S
H4290 C4300 0.930 . S
H4291 C4303 0.929 . S
H4292 C4306 0.930 . S
H4293 C4308 0.960 . S
H4294 C4308 0.960 . S
H4295 C4308 0.960 . S
C4296 H4288 0.929 . S
C4296 C4297 1.377 . S
C4296 C4298 1.384 . S
C4297 C4296 1.377 . S
C4297 C4303 1.390 . S
C4298 H4289 0.930 . S
C4298 C4296 1.384 . S
C4298 C4299 1.372 . S
C4299 C4298 1.372 . S
C4299 C4300 1.400 . S
C4299 C4304 1.490 . S
C4300 H4290 0.930 . S
C4300 C4299 1.400 . S
C4300 C4303 1.386 . S
H4301 C4317 0.930 . S
H4302 C4318 0.931 . S
C4303 H4291 0.929 . S
C4303 C4297 1.390 . S
C4303 C4300 1.386 . S
C4304 C4299 1.490 . S
C4304 C4306 1.395 . S
C4304 C4307 1.403 . S
H4305 C4311 0.930 . S
C4306 H4292 0.930 . S
C4306 C4304 1.395 . S
C4306 C4309 1.403 . S
C4307 C4304 1.403 . S
C4307 C4308 1.524 . S
C4307 C4311 1.400 . S
C4308 H4293 0.960 . S
C4308 H4294 0.960 . S
C4308 H4295 0.960 . S
C4308 C4307 1.524 . S
C4309 C4306 1.403 . S
C4309 C4310 1.392 . S
C4309 C4313 1.495 . S
C4310 C4309 1.392 . S
C4310 C4311 1.385 . S
C4310 C4312 1.478 . S
C4311 H4305 0.930 . S
C4311 C4307 1.400 . S
C4311 C4310 1.385 . S
C4312 C4310 1.478 . S
C4312 C4314 1.381 . S
C4312 C4318 1.383 . S
C4313 C4309 1.495 . S
C4313 H4319 0.959 . S
C4313 H4320 0.961 . S
C4313 H4321 0.960 . S
C4314 C4312 1.381 . S
C4314 C4315 1.394 . S
C4314 H4322 0.930 . S
C4315 C4314 1.394 . S
C4315 C4316 1.383 . S
C4315 H4323 0.929 . S
C4316 C4315 1.383 . S
C4316 C4317 1.377 . S
C4317 H4301 0.930 . S
C4317 C4316 1.377 . S
C4317 C4318 1.379 . S
C4318 H4302 0.931 . S
C4318 C4312 1.383 . S
C4318 C4317 1.379 . S
H4319 C4313 0.959 . S
H4320 C4313 0.961 . S
H4321 C4313 0.960 . S
H4322 C4314 0.930 . S
H4323 C4315 0.929 . S
H4324 C4332 0.929 1_556 S
H4325 C4334 0.930 . S
H4326 C4336 0.930 . S
H4327 C4339 0.929 . S
H4328 C4342 0.930 . S
H4329 C4344 0.960 . S
H4330 C4344 0.960 . S
H4331 C4344 0.960 . S
C4332 H4324 0.929 1_554 S
C4332 C4333 1.377 . S
C4332 C4334 1.384 1_554 S
C4333 C4332 1.377 . S
C4333 C4339 1.390 . S
C4334 H4325 0.930 . S
C4334 C4332 1.384 1_556 S
C4334 C4335 1.372 1_556 S
C4335 C4334 1.372 1_554 S
C4335 C4336 1.400 . S
C4335 C4340 1.490 . S
C4336 H4326 0.930 . S
C4336 C4335 1.400 . S
C4336 C4339 1.386 . S
H4337 C4353 0.930 1_554 S
H4338 C4354 0.910 1_554 S
C4339 H4327 0.929 . S
C4339 C4333 1.390 . S
C4339 C4336 1.386 . S
C4340 C4335 1.490 . S
C4340 C4342 1.395 1_554 S
C4340 C4343 1.403 . S
H4341 C4347 0.930 . S
C4342 H4328 0.930 . S
C4342 C4340 1.395 1_556 S
C4342 C4345 1.403 . S
C4343 C4340 1.403 . S
C4343 C4344 1.524 . S
C4343 C4347 1.400 . S
C4344 H4329 0.960 . S
C4344 H4330 0.960 . S
C4344 H4331 0.960 . S
C4344 C4343 1.524 . S
C4345 C4342 1.403 . S
C4345 C4346 1.392 . S
C4345 C4349 1.495 . S
C4346 C4345 1.392 . S
C4346 C4347 1.385 1_556 S
C4346 C4348 1.478 . S
C4347 H4341 0.930 . S
C4347 C4343 1.400 . S
C4347 C4346 1.385 1_554 S
C4348 C4346 1.478 . S
C4348 C4350 1.381 . S
C4348 C4354 1.400 . S
C4349 C4345 1.495 . S
C4349 H4355 0.959 . S
C4349 H4356 0.961 . S
C4349 H4357 0.960 . S
C4350 C4348 1.381 . S
C4350 C4351 1.394 . S
C4350 H4358 0.930 . S
C4351 C4350 1.394 . S
C4351 C4352 1.383 . S
C4351 H4359 0.929 . S
C4352 C4351 1.383 . S
C4352 C4353 1.377 . S
C4353 H4337 0.930 1_556 S
C4353 C4352 1.377 . S
C4353 C4354 1.383 . S
C4354 H4338 0.910 1_556 S
C4354 C4348 1.400 . S
C4354 C4353 1.383 . S
H4355 C4349 0.959 . S
H4356 C4349 0.961 . S
H4357 C4349 0.960 . S
H4358 C4350 0.930 . S
H4359 C4351 0.929 . S
H4360 C4368 0.929 . S
H4361 C4370 0.930 . S
H4362 C4372 0.930 . S
H4363 C4375 0.929 1_545 S
H4364 C4378 0.930 . S
H4365 C4380 0.960 . S
H4366 C4380 0.960 . S
H4367 C4380 0.960 . S
C4368 H4360 0.929 . S
C4368 C4369 1.377 . S
C4368 C4370 1.384 . S
C4369 C4368 1.377 . S
C4369 C4375 1.390 . S
C4370 H4361 0.930 . S
C4370 C4368 1.384 . S
C4370 C4371 1.372 . S
C4371 C4370 1.372 . S
C4371 C4372 1.400 . S
C4371 C4376 1.490 . S
C4372 H4362 0.930 . S
C4372 C4371 1.400 . S
C4372 C4375 1.386 . S
H4373 C4389 0.930 . S
H4374 C4390 0.931 . S
C4375 H4363 0.929 1_565 S
C4375 C4369 1.390 . S
C4375 C4372 1.386 . S
C4376 C4371 1.490 . S
C4376 C4378 1.395 . S
C4376 C4379 1.403 . S
H4377 C4383 0.930 . S
C4378 H4364 0.930 . S
C4378 C4376 1.395 . S
C4378 C4381 1.403 . S
C4379 C4376 1.403 . S
C4379 C4380 1.524 . S
C4379 C4383 1.400 . S
C4380 H4365 0.960 . S
C4380 H4366 0.960 . S
C4380 H4367 0.960 . S
C4380 C4379 1.524 . S
C4381 C4378 1.403 . S
C4381 C4382 1.392 . S
C4381 C4385 1.495 . S
C4382 C4381 1.392 . S
C4382 C4383 1.385 . S
C4382 C4384 1.478 . S
C4383 H4377 0.930 . S
C4383 C4379 1.400 . S
C4383 C4382 1.385 . S
C4384 C4382 1.478 . S
C4384 C4386 1.381 . S
C4384 C4390 1.383 . S
C4385 C4381 1.495 . S
C4385 H4391 0.959 . S
C4385 H4392 0.961 . S
C4385 H4393 0.960 . S
C4386 C4384 1.381 . S
C4386 C4387 1.394 . S
C4386 H4394 0.930 . S
C4387 C4386 1.394 . S
C4387 C4388 1.383 . S
C4387 H4395 0.929 . S
C4388 C4387 1.383 . S
C4388 C4389 1.377 . S
C4389 H4373 0.930 . S
C4389 C4388 1.377 . S
C4389 C4390 1.379 . S
C4390 H4374 0.931 . S
C4390 C4384 1.383 . S
C4390 C4389 1.379 . S
H4391 C4385 0.959 . S
H4392 C4385 0.961 . S
H4393 C4385 0.960 . S
H4394 C4386 0.930 . S
H4395 C4387 0.929 . S
H4396 C4404 0.929 . S
H4397 C4406 0.930 . S
H4398 C4408 0.930 . S
H4399 C4411 0.929 . S
H4400 C4414 0.930 . S
H4401 C4416 0.960 . S
H4402 C4416 0.960 . S
H4403 C4416 0.960 . S
C4404 H4396 0.929 . S
C4404 C4405 1.377 . S
C4404 C4406 1.384 . S
C4405 C4404 1.377 . S
C4405 C4411 1.390 . S
C4406 H4397 0.930 . S
C4406 C4404 1.384 . S
C4406 C4407 1.372 . S
C4407 C4406 1.372 . S
C4407 C4408 1.400 . S
C4407 C4412 1.490 . S
C4408 H4398 0.930 . S
C4408 C4407 1.400 . S
C4408 C4411 1.386 . S
H4409 C4425 0.930 . S
H4410 C4426 0.931 . S
C4411 H4399 0.929 . S
C4411 C4405 1.390 . S
C4411 C4408 1.386 . S
C4412 C4407 1.490 . S
C4412 C4414 1.395 . S
C4412 C4415 1.403 . S
H4413 C4419 0.930 . S
C4414 H4400 0.930 . S
C4414 C4412 1.395 . S
C4414 C4417 1.403 . S
C4415 C4412 1.403 . S
C4415 C4416 1.524 . S
C4415 C4419 1.400 . S
C4416 H4401 0.960 . S
C4416 H4402 0.960 . S
C4416 H4403 0.960 . S
C4416 C4415 1.524 . S
C4417 C4414 1.403 . S
C4417 C4418 1.392 . S
C4417 C4421 1.495 . S
C4418 C4417 1.392 . S
C4418 C4419 1.385 . S
C4418 C4420 1.478 . S
C4419 H4413 0.930 . S
C4419 C4415 1.400 . S
C4419 C4418 1.385 . S
C4420 C4418 1.478 . S
C4420 C4422 1.381 . S
C4420 C4426 1.383 . S
C4421 C4417 1.495 . S
C4421 H4427 0.959 . S
C4421 H4428 0.961 . S
C4421 H4429 0.960 . S
C4422 C4420 1.381 . S
C4422 C4423 1.394 . S
C4422 H4430 0.930 . S
C4423 C4422 1.394 . S
C4423 C4424 1.383 . S
C4423 H4431 0.929 . S
C4424 C4423 1.383 . S
C4424 C4425 1.377 . S
C4425 H4409 0.930 . S
C4425 C4424 1.377 . S
C4425 C4426 1.379 . S
C4426 H4410 0.931 . S
C4426 C4420 1.383 . S
C4426 C4425 1.379 . S
H4427 C4421 0.959 . S
H4428 C4421 0.961 . S
H4429 C4421 0.960 . S
H4430 C4422 0.930 . S
H4431 C4423 0.929 . S
C985 C111 2.100 . S
C1004 C346 2.074 1_556 S
C1021 C64 2.014 . S
C1040 C394 2.086 . S
C1057 C77 0.887 . S
C1076 C426 0.882 . S
C1112 C471 1.163 . S
C1093 C95 1.184 . S
C1129 C25 0.967 . S
C1148 C511 0.930 . S
C1184 C542 0.314 . S
C1165 C36 0.370 . S
C1220 C594 1.170 . S
C1201 C50 1.094 . S
C1237 C11 1.622 . S
C1256 C626 1.532 . S
C1292 C354 2.346 . S
C1273 C237 2.253 . S
C1309 C245 0.243 . S
C1328 C391 0.287 . S
C1364 C434 1.221 . S
C1345 C279 1.161 . S
C1400 C466 1.077 . S
C1381 C175 1.070 . S
C1417 C231 1.563 . S
C1436 C506 1.575 . S
C1472 C545 1.393 . S
C1453 C251 1.315 . S
C1508 C591 0.337 . S
C1489 C273 0.166 . S
C1544 C634 1.928 . S
C1525 C181 1.876 . S
C1580 C351 1.315 . S
C1561 C165 1.323 . S
C1597 C288 1.918 . S
C1616 C674 1.979 . S
C1652 C715 2.514 . S
C1633 C333 2.572 . S
C1688 C746 0.486 . S
C1669 C316 0.476 . S
C1705 C123 1.211 . S
C1724 C631 1.187 . S
C1741 C137 1.393 . S
C1760 C431 1.369 . S
C1777 C330 2.212 . S
C1796 C794 2.277 . S
C1832 C826 0.436 . S
C1813 C302 0.373 . S
C1868 C355 2.222 . S
C1849 C63 2.275 . S
C1904 C825 2.132 . S
C1885 C106 2.125 . S
C1921 C97 1.001 . S
C1940 C435 1.023 . S
C1957 C81 1.259 . S
C1976 C782 1.254 . S
C2012 C502 1.096 . S
C1993 C13 1.011 . S
C2029 C55 0.496 . S
C2048 C711 0.298 . S
C2084 C585 1.210 1_565 S
C2065 C35 1.181 . S
C2120 C875 1.776 . S
C2101 C21 1.820 . S
C2156 C345 2.494 . S
C2137 C147 2.506 . S
C2192 C822 0.367 . S
C2173 C321 0.531 . S
C2209 C119 1.319 . S
C2228 C425 1.318 . S
C2245 C293 1.192 . S
C2264 C795 1.226 . S
C2281 C153 1.637 . S
C2300 C515 1.766 . S
C2336 C714 1.397 . S
C2317 C315 1.445 . S
C2353 C125 0.476 . S
C2372 C582 0.332 1_565 S
C2389 C287 2.080 . S
C2408 C865 2.056 . S
C2425 C193 1.373 . S
C2444 C342 1.388 . S
C2461 C176 1.998 . S
C2480 C665 2.002 . S
C2497 C263 2.528 . S
C2516 C546 2.462 . S
C2533 C246 0.723 . S
C2552 C755 0.708 . S
C2588 C862 1.238 . S
C2569 C277 1.239 . S
C2605 C221 1.402 . S
C2624 C422 1.409 . S
C2660 C465 2.324 . S
C2641 C260 2.319 . S
C2696 C395 0.616 . S
C2677 C204 0.578 . S
C2713 C83 2.101 . S
C2732 C906 2.103 . S
C2768 C834 2.075 . S
C2749 C92 2.015 . S
C2785 C105 0.885 . S
C2804 C946 0.903 . S
C2821 C67 1.180 . S
C2840 C791 1.189 . S
C2857 C53 0.967 . S
C2876 C671 0.929 . S
C2912 C702 0.217 . S
C2893 C8 0.392 . S
C2948 C754 1.169 . S
C2929 C22 1.092 . S
C2984 C866 1.528 . S
C2965 C39 1.621 . S
C3020 C914 2.352 . S
C3001 C265 2.251 . S
C3037 C189 0.257 . S
C3056 C831 0.431 . S
C3092 C954 1.201 . S
C3073 C209 1.165 . S
C3128 C786 1.053 . S
C3109 C217 1.073 . S
C3164 C666 1.563 . S
C3145 C259 1.564 . S
C3181 C195 1.321 . S
C3200 C705 1.351 . S
C3236 C751 0.342 . S
C3217 C203 0.185 . S
C3253 C223 1.878 . S
C3272 C874 1.910 . S
C3308 C911 1.317 . S
C3289 C319 1.323 . S
C3325 C134 1.914 . S
C3344 C514 1.966 . S
C3380 C555 2.515 . S
C3361 C151 2.579 . S
C3416 C586 0.425 . S
C3397 C162 0.496 . S
C3452 C871 1.184 . S
C3433 C305 1.211 . S
C3469 C291 1.393 . S
C3488 C951 1.379 . S
C3524 C474 2.253 . S
C3505 C148 2.208 . S
C3560 C386 0.482 . S
C3541 C120 0.399 . S
C3577 C91 2.275 . S
C3596 C915 2.222 . S
C3632 C385 2.116 . S
C3613 C78 2.126 . S
C3649 C69 0.992 . S
C3668 C955 0.995 . S
C3685 C109 1.261 . S
C3704 C462 1.269 . S
C3721 C41 1.026 . S
C3740 C662 1.057 . S
C3776 C551 0.216 . S
C3757 C27 0.465 . S
C3793 C7 1.180 . S
C3812 C745 1.208 . S
C3829 C49 1.812 . S
C3848 C635 1.738 . S
C3884 C905 2.480 . S
C3865 C329 2.505 . S
C3901 C167 0.535 . S
C3920 C382 0.329 . S
C3956 C945 1.318 . S
C3937 C301 1.319 . S
C3973 C139 1.188 . S
C3992 C475 1.239 . S
C4009 C335 1.654 . S
C4028 C675 1.791 . S
C4064 C554 1.437 . S
C4045 C161 1.447 . S
C4081 C307 0.487 . S
C4100 C742 0.200 . S
C4136 C625 2.057 . S
C4117 C133 2.080 . S
C4172 C902 1.353 . S
C4153 C249 1.363 . S
C4208 C505 2.002 1_655 S
C4189 C218 1.997 . S
C4225 C235 2.527 . S
C4244 C706 2.461 . S
C4280 C595 0.702 . S
C4261 C190 0.725 . S
C4297 C207 1.239 . S
C4316 C622 1.239 . S
C4333 C179 1.405 . S
C4352 C942 1.421 . S
C4388 C785 2.347 . S
C4369 C232 2.318 1_565 S
C4424 C835 0.604 . S
C4405 C274 0.582 . S
