# Generated by pormake.
# Topology gar, (4,6)-cn, num edge types: 1
# Building blocks:
#     Node 0, Type 0, BuildingBlock: GALJAG_clean_sbu_0, # of connection points: 4
#     Node 1, Type 0, BuildingBlock: GALJAG_clean_sbu_0, # of connection points: 4
#     Node 2, Type 0, BuildingBlock: GALJAG_clean_sbu_0, # of connection points: 4
#     Node 3, Type 0, BuildingBlock: GALJAG_clean_sbu_0, # of connection points: 4
#     Node 4, Type 0, BuildingBlock: GALJAG_clean_sbu_0, # of connection points: 4
#     Node 5, Type 0, BuildingBlock: GALJAG_clean_sbu_0, # of connection points: 4
#     Node 6, Type 0, BuildingBlock: GALJAG_clean_sbu_0, # of connection points: 4
#     Node 7, Type 0, BuildingBlock: GALJAG_clean_sbu_0, # of connection points: 4
#     Node 8, Type 0, BuildingBlock: GALJAG_clean_sbu_0, # of connection points: 4
#     Node 9, Type 0, BuildingBlock: GALJAG_clean_sbu_0, # of connection points: 4
#     Node 10, Type 0, BuildingBlock: GALJAG_clean_sbu_0, # of connection points: 4
#     Node 11, Type 0, BuildingBlock: GALJAG_clean_sbu_0, # of connection points: 4
#     Node 12, Type 0, BuildingBlock: GALJAG_clean_sbu_0, # of connection points: 4
#     Node 13, Type 0, BuildingBlock: GALJAG_clean_sbu_0, # of connection points: 4
#     Node 14, Type 0, BuildingBlock: GALJAG_clean_sbu_0, # of connection points: 4
#     Node 15, Type 0, BuildingBlock: GALJAG_clean_sbu_0, # of connection points: 4
#     Node 16, Type 0, BuildingBlock: GALJAG_clean_sbu_0, # of connection points: 4
#     Node 17, Type 0, BuildingBlock: GALJAG_clean_sbu_0, # of connection points: 4
#     Node 18, Type 0, BuildingBlock: GALJAG_clean_sbu_0, # of connection points: 4
#     Node 19, Type 0, BuildingBlock: GALJAG_clean_sbu_0, # of connection points: 4
#     Node 20, Type 0, BuildingBlock: GALJAG_clean_sbu_0, # of connection points: 4
#     Node 21, Type 0, BuildingBlock: GALJAG_clean_sbu_0, # of connection points: 4
#     Node 22, Type 0, BuildingBlock: GALJAG_clean_sbu_0, # of connection points: 4
#     Node 23, Type 0, BuildingBlock: GALJAG_clean_sbu_0, # of connection points: 4
#     Node 24, Type 1, BuildingBlock: PAMTOO_clean_sbu_0, # of connection points: 6
#     Node 25, Type 1, BuildingBlock: PAMTOO_clean_sbu_0, # of connection points: 6
#     Node 26, Type 1, BuildingBlock: PAMTOO_clean_sbu_0, # of connection points: 6
#     Node 27, Type 1, BuildingBlock: PAMTOO_clean_sbu_0, # of connection points: 6
#     Node 28, Type 1, BuildingBlock: PAMTOO_clean_sbu_0, # of connection points: 6
#     Node 29, Type 1, BuildingBlock: PAMTOO_clean_sbu_0, # of connection points: 6
#     Node 30, Type 1, BuildingBlock: PAMTOO_clean_sbu_0, # of connection points: 6
#     Node 31, Type 1, BuildingBlock: PAMTOO_clean_sbu_0, # of connection points: 6
#     Node 32, Type 1, BuildingBlock: PAMTOO_clean_sbu_0, # of connection points: 6
#     Node 33, Type 1, BuildingBlock: PAMTOO_clean_sbu_0, # of connection points: 6
#     Node 34, Type 1, BuildingBlock: PAMTOO_clean_sbu_0, # of connection points: 6
#     Node 35, Type 1, BuildingBlock: PAMTOO_clean_sbu_0, # of connection points: 6
#     Node 36, Type 1, BuildingBlock: PAMTOO_clean_sbu_0, # of connection points: 6
#     Node 37, Type 1, BuildingBlock: PAMTOO_clean_sbu_0, # of connection points: 6
#     Node 38, Type 1, BuildingBlock: PAMTOO_clean_sbu_0, # of connection points: 6
#     Node 39, Type 1, BuildingBlock: PAMTOO_clean_sbu_0, # of connection points: 6
#     Edge 40, Type (0, 1), BuildingBlock: OJICUG_clean_linker_0, # of connection points: 2
#     Edge 41, Type (0, 1), BuildingBlock: OJICUG_clean_linker_0, # of connection points: 2
#     Edge 42, Type (0, 1), BuildingBlock: OJICUG_clean_linker_0, # of connection points: 2
#     Edge 43, Type (0, 1), BuildingBlock: OJICUG_clean_linker_0, # of connection points: 2
#     Edge 44, Type (0, 1), BuildingBlock: OJICUG_clean_linker_0, # of connection points: 2
#     Edge 45, Type (0, 1), BuildingBlock: OJICUG_clean_linker_0, # of connection points: 2
#     Edge 46, Type (0, 1), BuildingBlock: OJICUG_clean_linker_0, # of connection points: 2
#     Edge 47, Type (0, 1), BuildingBlock: OJICUG_clean_linker_0, # of connection points: 2
#     Edge 48, Type (0, 1), BuildingBlock: OJICUG_clean_linker_0, # of connection points: 2
#     Edge 49, Type (0, 1), BuildingBlock: OJICUG_clean_linker_0, # of connection points: 2
#     Edge 50, Type (0, 1), BuildingBlock: OJICUG_clean_linker_0, # of connection points: 2
#     Edge 51, Type (0, 1), BuildingBlock: OJICUG_clean_linker_0, # of connection points: 2
#     Edge 52, Type (0, 1), BuildingBlock: OJICUG_clean_linker_0, # of connection points: 2
#     Edge 53, Type (0, 1), BuildingBlock: OJICUG_clean_linker_0, # of connection points: 2
#     Edge 54, Type (0, 1), BuildingBlock: OJICUG_clean_linker_0, # of connection points: 2
#     Edge 55, Type (0, 1), BuildingBlock: OJICUG_clean_linker_0, # of connection points: 2
#     Edge 56, Type (0, 1), BuildingBlock: OJICUG_clean_linker_0, # of connection points: 2
#     Edge 57, Type (0, 1), BuildingBlock: OJICUG_clean_linker_0, # of connection points: 2
#     Edge 58, Type (0, 1), BuildingBlock: OJICUG_clean_linker_0, # of connection points: 2
#     Edge 59, Type (0, 1), BuildingBlock: OJICUG_clean_linker_0, # of connection points: 2
#     Edge 60, Type (0, 1), BuildingBlock: OJICUG_clean_linker_0, # of connection points: 2
#     Edge 61, Type (0, 1), BuildingBlock: OJICUG_clean_linker_0, # of connection points: 2
#     Edge 62, Type (0, 1), BuildingBlock: OJICUG_clean_linker_0, # of connection points: 2
#     Edge 63, Type (0, 1), BuildingBlock: OJICUG_clean_linker_0, # of connection points: 2
#     Edge 64, Type (0, 1), BuildingBlock: OJICUG_clean_linker_0, # of connection points: 2
#     Edge 65, Type (0, 1), BuildingBlock: OJICUG_clean_linker_0, # of connection points: 2
#     Edge 66, Type (0, 1), BuildingBlock: OJICUG_clean_linker_0, # of connection points: 2
#     Edge 67, Type (0, 1), BuildingBlock: OJICUG_clean_linker_0, # of connection points: 2
#     Edge 68, Type (0, 1), BuildingBlock: OJICUG_clean_linker_0, # of connection points: 2
#     Edge 69, Type (0, 1), BuildingBlock: OJICUG_clean_linker_0, # of connection points: 2
#     Edge 70, Type (0, 1), BuildingBlock: OJICUG_clean_linker_0, # of connection points: 2
#     Edge 71, Type (0, 1), BuildingBlock: OJICUG_clean_linker_0, # of connection points: 2
#     Edge 72, Type (0, 1), BuildingBlock: OJICUG_clean_linker_0, # of connection points: 2
#     Edge 73, Type (0, 1), BuildingBlock: OJICUG_clean_linker_0, # of connection points: 2
#     Edge 74, Type (0, 1), BuildingBlock: OJICUG_clean_linker_0, # of connection points: 2
#     Edge 75, Type (0, 1), BuildingBlock: OJICUG_clean_linker_0, # of connection points: 2
#     Edge 76, Type (0, 1), BuildingBlock: OJICUG_clean_linker_0, # of connection points: 2
#     Edge 77, Type (0, 1), BuildingBlock: OJICUG_clean_linker_0, # of connection points: 2
#     Edge 78, Type (0, 1), BuildingBlock: OJICUG_clean_linker_0, # of connection points: 2
#     Edge 79, Type (0, 1), BuildingBlock: OJICUG_clean_linker_0, # of connection points: 2
#     Edge 80, Type (0, 1), BuildingBlock: OJICUG_clean_linker_0, # of connection points: 2
#     Edge 81, Type (0, 1), BuildingBlock: OJICUG_clean_linker_0, # of connection points: 2
#     Edge 82, Type (0, 1), BuildingBlock: OJICUG_clean_linker_0, # of connection points: 2
#     Edge 83, Type (0, 1), BuildingBlock: OJICUG_clean_linker_0, # of connection points: 2
#     Edge 84, Type (0, 1), BuildingBlock: OJICUG_clean_linker_0, # of connection points: 2
#     Edge 85, Type (0, 1), BuildingBlock: OJICUG_clean_linker_0, # of connection points: 2
#     Edge 86, Type (0, 1), BuildingBlock: OJICUG_clean_linker_0, # of connection points: 2
#     Edge 87, Type (0, 1), BuildingBlock: OJICUG_clean_linker_0, # of connection points: 2
#     Edge 88, Type (0, 1), BuildingBlock: OJICUG_clean_linker_0, # of connection points: 2
#     Edge 89, Type (0, 1), BuildingBlock: OJICUG_clean_linker_0, # of connection points: 2
#     Edge 90, Type (0, 1), BuildingBlock: OJICUG_clean_linker_0, # of connection points: 2
#     Edge 91, Type (0, 1), BuildingBlock: OJICUG_clean_linker_0, # of connection points: 2
#     Edge 92, Type (0, 1), BuildingBlock: OJICUG_clean_linker_0, # of connection points: 2
#     Edge 93, Type (0, 1), BuildingBlock: OJICUG_clean_linker_0, # of connection points: 2
#     Edge 94, Type (0, 1), BuildingBlock: OJICUG_clean_linker_0, # of connection points: 2
#     Edge 95, Type (0, 1), BuildingBlock: OJICUG_clean_linker_0, # of connection points: 2
#     Edge 96, Type (0, 1), BuildingBlock: OJICUG_clean_linker_0, # of connection points: 2
#     Edge 97, Type (0, 1), BuildingBlock: OJICUG_clean_linker_0, # of connection points: 2
#     Edge 98, Type (0, 1), BuildingBlock: OJICUG_clean_linker_0, # of connection points: 2
#     Edge 99, Type (0, 1), BuildingBlock: OJICUG_clean_linker_0, # of connection points: 2
#     Edge 100, Type (0, 1), BuildingBlock: OJICUG_clean_linker_0, # of connection points: 2
#     Edge 101, Type (0, 1), BuildingBlock: OJICUG_clean_linker_0, # of connection points: 2
#     Edge 102, Type (0, 1), BuildingBlock: OJICUG_clean_linker_0, # of connection points: 2
#     Edge 103, Type (0, 1), BuildingBlock: OJICUG_clean_linker_0, # of connection points: 2
#     Edge 104, Type (0, 1), BuildingBlock: OJICUG_clean_linker_0, # of connection points: 2
#     Edge 105, Type (0, 1), BuildingBlock: OJICUG_clean_linker_0, # of connection points: 2
#     Edge 106, Type (0, 1), BuildingBlock: OJICUG_clean_linker_0, # of connection points: 2
#     Edge 107, Type (0, 1), BuildingBlock: OJICUG_clean_linker_0, # of connection points: 2
#     Edge 108, Type (0, 1), BuildingBlock: OJICUG_clean_linker_0, # of connection points: 2
#     Edge 109, Type (0, 1), BuildingBlock: OJICUG_clean_linker_0, # of connection points: 2
#     Edge 110, Type (0, 1), BuildingBlock: OJICUG_clean_linker_0, # of connection points: 2
#     Edge 111, Type (0, 1), BuildingBlock: OJICUG_clean_linker_0, # of connection points: 2
#     Edge 112, Type (0, 1), BuildingBlock: OJICUG_clean_linker_0, # of connection points: 2
#     Edge 113, Type (0, 1), BuildingBlock: OJICUG_clean_linker_0, # of connection points: 2
#     Edge 114, Type (0, 1), BuildingBlock: OJICUG_clean_linker_0, # of connection points: 2
#     Edge 115, Type (0, 1), BuildingBlock: OJICUG_clean_linker_0, # of connection points: 2
#     Edge 116, Type (0, 1), BuildingBlock: OJICUG_clean_linker_0, # of connection points: 2
#     Edge 117, Type (0, 1), BuildingBlock: OJICUG_clean_linker_0, # of connection points: 2
#     Edge 118, Type (0, 1), BuildingBlock: OJICUG_clean_linker_0, # of connection points: 2
#     Edge 119, Type (0, 1), BuildingBlock: OJICUG_clean_linker_0, # of connection points: 2
#     Edge 120, Type (0, 1), BuildingBlock: OJICUG_clean_linker_0, # of connection points: 2
#     Edge 121, Type (0, 1), BuildingBlock: OJICUG_clean_linker_0, # of connection points: 2
#     Edge 122, Type (0, 1), BuildingBlock: OJICUG_clean_linker_0, # of connection points: 2
#     Edge 123, Type (0, 1), BuildingBlock: OJICUG_clean_linker_0, # of connection points: 2
#     Edge 124, Type (0, 1), BuildingBlock: OJICUG_clean_linker_0, # of connection points: 2
#     Edge 125, Type (0, 1), BuildingBlock: OJICUG_clean_linker_0, # of connection points: 2
#     Edge 126, Type (0, 1), BuildingBlock: OJICUG_clean_linker_0, # of connection points: 2
#     Edge 127, Type (0, 1), BuildingBlock: OJICUG_clean_linker_0, # of connection points: 2
#     Edge 128, Type (0, 1), BuildingBlock: OJICUG_clean_linker_0, # of connection points: 2
#     Edge 129, Type (0, 1), BuildingBlock: OJICUG_clean_linker_0, # of connection points: 2
#     Edge 130, Type (0, 1), BuildingBlock: OJICUG_clean_linker_0, # of connection points: 2
#     Edge 131, Type (0, 1), BuildingBlock: OJICUG_clean_linker_0, # of connection points: 2
#     Edge 132, Type (0, 1), BuildingBlock: OJICUG_clean_linker_0, # of connection points: 2
#     Edge 133, Type (0, 1), BuildingBlock: OJICUG_clean_linker_0, # of connection points: 2
#     Edge 134, Type (0, 1), BuildingBlock: OJICUG_clean_linker_0, # of connection points: 2
#     Edge 135, Type (0, 1), BuildingBlock: OJICUG_clean_linker_0, # of connection points: 2
# Relax obj value: 0.197
# Max RMSD: 0.282
# Mean RMSD: 0.181
data_MOF--net-gar--node1-GALJAG_clean_sbu_0--node2-PAMTOO_clean_sbu_0--edge1-OJICUG_clean_linker_0
_symmetry_space_group_name_H-M    P1
_symmetry_Int_Tables_number       1
_symmetry_cell_setting            triclinic
loop_
_symmetry_equiv_pos_as_xyz
'x, y, z'
_cell_length_a     44.374757
_cell_length_b     44.367984
_cell_length_c     42.473217
_cell_angle_alpha  98.07959
_cell_angle_beta   97.266638
_cell_angle_gamma 105.3449
loop_
_atom_site_label
_atom_site_type_symbol
_atom_site_fract_x
_atom_site_fract_y
_atom_site_fract_z
_atom_type_partial_charge
In0 In 0.07491 0.34671 0.3758 0.0
O1 O 0.10231 0.32745 0.33558 0.0
O2 O 0.12961 0.3644 0.37229 0.0
C3 C 1.01122 0.33448 0.34731 0.0
C4 C 0.07304 0.30423 0.41609 0.0
C5 C 0.07444 0.40105 0.41543 0.0
O6 O 1.03275 0.35901 0.34509 0.0
O7 O 1.02228 0.31496 0.36041 0.0
O8 O 0.07728 0.37625 0.42531 0.0
O9 O 0.07392 0.39956 0.38533 0.0
C10 C 0.13006 0.34476 0.34795 0.0
O11 O 0.08801 0.33333 0.42455 0.0
O12 O 0.05968 0.29619 0.38686 0.0
In13 In 1.03344 0.76596 0.7202 0.0
O14 O 1.02778 0.78453 0.67259 0.0
O15 O 0.0473 0.81835 0.71582 0.0
C16 C 1.02611 0.70928 0.6799 0.0
C17 C 0.09766 0.7763 0.74631 0.0
C18 C 0.98011 0.77039 0.74997 0.0
O19 O 1.01858 0.73251 0.6705 0.0
O20 O 0.03584 0.71385 0.71001 0.0
O21 O 0.97921 0.74945 0.7262 0.0
O22 O 1.00821 0.7876 0.76073 0.0
C23 C 0.0396 0.81346 0.68549 0.0
O24 O 0.08742 0.79144 0.72657 0.0
O25 O 0.07535 0.75661 0.75522 0.0
In26 In 0.57252 0.85089 0.8691 0.0
O27 O 0.627 0.86897 0.86512 0.0
O28 O 0.60006 0.83004 0.83021 0.0
C29 C 0.50868 0.83664 0.83974 0.0
C30 C 0.57222 0.80779 0.90868 0.0
C31 C 0.57355 0.90657 0.90804 0.0
O32 O 0.53087 0.85642 0.83082 0.0
O33 O 0.51899 0.82307 0.86107 0.0
O34 O 0.57664 0.882 0.91817 0.0
O35 O 0.57149 0.90411 0.8777 0.0
C36 C 0.62763 0.84818 0.84188 0.0
O37 O 0.58616 0.83708 0.91761 0.0
O38 O 0.55898 0.79992 0.87939 0.0
In39 In 0.53944 0.27008 0.22336 0.0
O40 O 0.52331 0.23591 0.17386 0.0
O41 O 0.54239 0.21793 0.21285 0.0
C42 C 0.54698 0.3172 0.18767 0.0
C43 C 0.48615 0.27597 0.25256 0.0
C44 C 0.60253 0.28008 0.25293 0.0
O45 O 0.53492 0.28818 0.17526 0.0
O46 O 0.55432 0.32248 0.21803 0.0
O47 O 0.59387 0.29176 0.22923 0.0
O48 O 0.57915 0.2637 0.26349 0.0
C49 C 0.53165 0.21294 0.18291 0.0
O50 O 0.48586 0.2525 0.2318 0.0
O51 O 0.51362 0.29524 0.2606 0.0
In52 In 0.14286 0.87188 0.15185 0.0
O53 O 0.1526 0.82904 0.11778 0.0
O54 O 0.11511 0.81817 0.14374 0.0
C55 C 0.13772 0.92541 0.12333 0.0
C56 C 0.09655 0.86569 0.18858 0.0
C57 C 0.20067 0.88015 0.1898 0.0
O58 O 0.12369 0.89684 0.11005 0.0
O59 O 0.15594 0.92685 0.14917 0.0
O60 O 0.17758 0.88724 0.20039 0.0
O61 O 0.19544 0.87056 0.15954 0.0
C62 C 0.13141 0.80722 0.12547 0.0
O63 O 0.12562 0.87293 0.20053 0.0
O64 O 0.09091 0.86246 0.1582 0.0
In65 In 0.55596 0.82794 0.49523 0.0
O66 O 0.57045 0.81342 0.44699 0.0
O67 O 0.60673 0.84278 0.48483 0.0
C68 C 0.50186 0.82818 0.45575 0.0
C69 C 0.5587 0.77353 0.52331 0.0
C70 C 0.56845 0.89205 0.52343 0.0
O71 O 0.5263 0.82402 0.44578 0.0
O72 O 0.50337 0.82988 0.48597 0.0
O73 O 0.54712 0.87008 0.53074 0.0
O74 O 0.5848 0.88135 0.50497 0.0
C75 C 0.59939 0.82866 0.45573 0.0
O76 O 0.57657 0.80137 0.53464 0.0
O77 O 0.53805 0.77357 0.49997 0.0
In78 In 0.63723 0.36635 0.64617 0.0
O79 O 0.6492 0.32498 0.61212 0.0
O80 O 0.6086 0.31287 0.63358 0.0
C81 C 0.63216 0.4203 0.61842 0.0
C82 C 0.58972 0.36025 0.68147 0.0
C83 C 0.69286 0.37177 0.68727 0.0
O84 O 0.61833 0.39184 0.60479 0.0
O85 O 0.65022 0.4215 0.64429 0.0
O86 O 0.66711 0.37273 0.69646 0.0
O87 O 0.69137 0.36943 0.65697 0.0
C88 C 0.62633 0.30272 0.61657 0.0
O89 O 0.61846 0.37354 0.69384 0.0
O90 O 0.58495 0.35088 0.65131 0.0
In91 In 0.0514 0.33052 1.00265 0.0
O92 O 0.07463 0.30374 0.03988 0.0
O93 O 1.03246 0.27671 1.00993 0.0
C94 C 0.06559 0.39471 0.03194 0.0
C95 C 0.09508 0.33202 0.96313 0.0
C96 C 0.99602 0.32881 0.96333 0.0
O97 O 0.04749 0.37248 0.04255 0.0
O98 O 0.07735 0.38429 1.00873 0.0
O99 O 1.01874 0.32054 0.95336 0.0
O100 O 0.99991 0.33601 0.99382 0.0
C101 C 0.05519 0.27633 0.03088 0.0
O102 O 0.06596 0.31776 0.95394 0.0
O103 O 0.10245 0.34485 0.99261 0.0
In104 In 0.4827 0.12124 0.33049 0.0
O105 O 0.52437 0.14404 0.3069 0.0
O106 O 0.52394 0.10161 0.32511 0.0
C107 C 0.50184 0.13904 0.39462 0.0
C108 C 0.44381 0.14701 0.29612 0.0
C109 C 0.44892 0.06013 0.32259 0.0
O110 O 0.51794 0.15135 0.37479 0.0
O111 O 0.47483 0.12065 0.38205 0.0
O112 O 0.46933 0.06949 0.30524 0.0
O113 O 0.44525 0.08166 0.3432 0.0
C114 C 0.53809 0.12287 0.31094 0.0
O115 O 0.45684 0.15913 0.32497 0.0
O116 O 0.45171 0.12318 0.28446 0.0
In117 In 0.30489 0.2407 0.54534 0.0
O118 O 0.28827 0.27172 0.58425 0.0
O119 O 0.33519 0.26873 0.59357 0.0
C120 C 0.30575 0.26114 0.48724 0.0
C121 C 0.34875 0.20869 0.54756 0.0
C122 C 0.24956 0.19994 0.55067 0.0
O123 O 0.32062 0.27893 0.5135 0.0
O124 O 0.29014 0.23405 0.49057 0.0
O125 O 0.27589 0.19431 0.5569 0.0
O126 O 0.25109 0.22623 0.54169 0.0
C127 C 0.31376 0.27878 0.60423 0.0
O128 O 0.31994 0.19546 0.53562 0.0
O129 O 0.35563 0.23825 0.55753 0.0
In130 In 0.17018 0.09708 0.83077 0.0
O131 O 0.14084 0.06678 0.78278 0.0
O132 O 0.13964 0.11434 0.79281 0.0
C133 C 0.15151 0.09533 0.88991 0.0
C134 C 0.20122 0.0526 0.82325 0.0
C135 C 0.21033 0.15392 0.82885 0.0
O136 O 0.17981 0.10601 0.88627 0.0
O137 O 0.1321 0.08573 0.86368 0.0
O138 O 0.2164 0.12796 0.82093 0.0
O139 O 0.18394 0.15134 0.83819 0.0
C140 C 0.13148 0.08866 0.77269 0.0
O141 O 0.21515 0.08201 0.8294 0.0
O142 O 0.1715 0.04543 0.82188 0.0
In143 In 0.29636 0.92907 0.02055 0.0
O144 O 0.30718 0.8836 0.0284 0.0
O145 O 0.27837 0.90093 0.05856 0.0
C146 C 0.27197 0.90656 0.95786 0.0
C147 C 0.27565 0.97847 0.04231 0.0
C148 C 0.35988 0.95055 0.03453 0.0
O149 O 0.2614 0.8928 0.97989 0.0
O150 O 0.29238 0.93311 0.96779 0.0
O151 O 0.34482 0.93779 1.00654 0.0
O152 O 0.34283 0.9526 0.0559 0.0
C153 C 0.29248 0.88018 0.05174 0.0
O154 O 0.30051 0.98141 0.03024 0.0
O155 O 0.25996 0.95013 0.04205 0.0
In156 In 0.34222 0.40808 0.07066 0.0
O157 O 0.32615 0.36597 0.09773 0.0
O158 O 0.34319 0.41235 0.12535 0.0
C159 C 0.33567 0.37137 1.01155 0.0
C160 C 0.30281 0.44344 0.05742 0.0
C161 C 0.40073 0.44988 0.0816 0.0
O162 O 0.36083 0.37896 0.03207 0.0
O163 O 0.31319 0.37976 0.02194 0.0
O164 O 0.37569 0.45817 0.08113 0.0
O165 O 0.39659 0.42022 0.07823 0.0
C166 C 0.33193 0.38318 0.1254 0.0
O167 O 0.329 0.44689 0.04778 0.0
O168 O 0.29586 0.42148 0.07361 0.0
In169 In 0.79664 0.18839 0.06765 0.0
O170 O 0.81877 0.15018 0.07973 0.0
O171 O 0.82334 0.16479 0.03436 0.0
C172 C 0.73497 0.15815 0.04569 0.0
C173 C 0.81347 0.21 0.1313 0.0
C174 C 0.80671 0.24182 0.04295 0.0
O175 O 0.75659 0.14829 0.03518 0.0
O176 O 0.74447 0.18287 0.06699 0.0
O177 O 0.82565 0.22501 0.04196 0.0
O178 O 0.78265 0.231 0.0552 0.0
C179 C 0.8292 0.14688 0.05353 0.0
O180 O 0.79077 0.1855 0.11939 0.0
O181 O 0.82882 0.2226 0.11115 0.0
In182 In 0.23 0.61777 0.32877 0.0
O183 O 0.27203 0.60577 0.35574 0.0
O184 O 0.22966 0.5685 0.33811 0.0
C185 C 0.26729 0.67715 0.33482 0.0
C186 C 0.20456 0.59562 0.26617 0.0
C187 C 0.18241 0.62886 0.35677 0.0
O188 O 0.24691 0.66958 0.35263 0.0
O189 O 0.26964 0.65449 0.3146 0.0
O190 O 0.18398 0.63038 0.32761 0.0
O191 O 0.20513 0.6218 0.37216 0.0
C192 C 0.2578 0.57671 0.35288 0.0
O193 O 0.19088 0.58655 0.28886 0.0
O194 O 0.23208 0.6146 0.27501 0.0
In195 In 0.83678 0.9091 0.5678 0.0
O196 O 0.82246 0.86659 0.59498 0.0
O197 O 0.83139 0.9129 0.6212 0.0
C198 C 0.83331 0.87526 0.50779 0.0
C199 C 0.79959 0.94574 0.55163 0.0
C200 C 0.89667 0.94798 0.58203 0.0
O201 O 0.80955 0.88116 0.51786 0.0
O202 O 0.85822 0.88428 0.52872 0.0
O203 O 0.87274 0.95764 0.58511 0.0
O204 O 0.89057 0.91826 0.57319 0.0
C205 C 0.82361 0.88366 0.62178 0.0
O206 O 0.82935 0.95452 0.55443 0.0
O207 O 0.78809 0.91804 0.557 0.0
In208 In 0.9995 0.07179 0.30916 0.0
O209 O 0.04062 0.09614 0.28336 0.0
O210 O 0.99931 0.06382 0.25489 0.0
C211 C 1.03333 0.07734 0.36906 0.0
C212 C 0.96029 0.10905 0.31051 0.0
C213 C 0.96047 1.01314 0.30684 0.0
O214 O 1.03181 0.05515 0.34619 0.0
O215 O 1.02015 0.09763 0.36089 0.0
O216 O 0.95402 0.03832 0.3172 0.0
O217 O 0.98713 1.01733 0.29781 0.0
C218 C 1.02595 0.0829 0.25528 0.0
O219 O 0.95283 0.08169 0.29345 0.0
O220 O 0.98824 0.11838 0.32622 0.0
In221 In 0.28688 0.6761 0.54242 0.0
O222 O 0.30066 0.63477 0.5155 0.0
O223 O 0.33744 0.67625 0.53802 0.0
C224 C 0.22787 0.63726 0.53427 0.0
C225 C 0.30558 0.70322 0.60515 0.0
C226 C 0.27687 0.72182 0.51126 0.0
O227 O 0.24984 0.63595 0.55556 0.0
O228 O 0.23596 0.65745 0.51655 0.0
O229 O 0.27126 0.72021 0.53942 0.0
O230 O 0.28769 0.70024 0.49864 0.0
C231 C 0.32997 0.64862 0.52163 0.0
O232 O 0.31422 0.71723 0.58258 0.0
O233 O 0.28852 0.67483 0.59619 0.0
In234 In 0.49611 0.56551 0.80045 0.0
O235 O 0.45407 0.57537 0.82045 0.0
O236 O 0.48425 0.61327 0.80375 0.0
C237 C 0.45615 0.5061 0.78787 0.0
C238 C 0.5217 0.57597 0.74584 0.0
C239 C 0.53138 0.57012 0.85945 0.0
O240 O 0.44701 0.53026 0.7847 0.0
O241 O 0.48583 0.51168 0.79554 0.0
O242 O 0.52219 0.54494 0.83861 0.0
O243 O 0.52507 0.5937 0.84964 0.0
C244 C 0.45961 0.60359 0.81584 0.0
O245 O 0.53866 0.58071 0.77329 0.0
O246 O 0.49247 0.56585 0.74607 0.0
In247 In 0.71744 0.10817 0.80454 0.0
O248 O 0.75713 0.08626 0.79714 0.0
O249 O 0.73859 0.08207 0.84045 0.0
C250 C 0.74954 0.16963 0.81299 0.0
C251 C 0.68867 0.08442 0.74314 0.0
C252 C 0.66735 0.10949 0.83309 0.0
O253 O 0.74993 0.15425 0.83584 0.0
O254 O 0.73319 0.15392 0.78647 0.0
O255 O 0.67529 0.08427 0.82647 0.0
O256 O 0.68531 0.13399 0.82627 0.0
C257 C 0.75845 0.07639 0.82346 0.0
O258 O 0.67523 0.078 0.76677 0.0
O259 O 0.71713 0.10122 0.75056 0.0
In260 In 0.81169 0.73585 0.04234 0.0
O261 O 0.82664 0.69144 0.04769 0.0
O262 O 0.86301 0.73336 0.04656 0.0
C263 C 0.75389 0.69643 0.04291 0.0
C264 C 0.82231 0.77288 0.10236 0.0
C265 C 0.81278 0.75557 0.98368 0.0
O266 O 0.77682 0.6866 0.0359 0.0
O267 O 0.75984 0.72633 0.049 0.0
O268 O 0.82754 0.77355 1.0099 0.0
O269 O 0.79736 0.72848 0.98724 0.0
C270 C 0.85589 0.70442 0.04939 0.0
O271 O 0.80088 0.77354 0.08006 0.0
O272 O 0.83897 0.7553 0.09372 0.0
In273 In 0.96508 0.61679 0.86773 0.0
O274 O 0.94465 0.6556 0.85326 0.0
O275 O 0.91501 0.61761 0.87079 0.0
C276 C 0.94208 0.55342 0.84967 0.0
C277 C 1.00295 0.62118 0.82344 0.0
C278 C 0.99313 0.63759 0.9292 0.0
O279 O 0.92935 0.57251 0.83801 0.0
O280 O 0.9663 0.5662 0.87103 0.0
O281 O 1.00433 0.65011 0.90669 0.0
O282 O 0.96673 0.61672 0.92066 0.0
C283 C 0.91728 0.64225 0.85855 0.0
O284 O 1.0099 0.61222 0.84956 0.0
O285 O 0.97836 0.63046 0.8211 0.0
In286 In 0.78536 0.42159 0.54803 0.0
O287 O 0.76549 0.38281 0.57632 0.0
O288 O 0.80497 0.38037 0.55331 0.0
C289 C 0.76347 0.39866 0.48486 0.0
C290 C 0.76191 0.4628 0.58326 0.0
C291 C 0.84583 0.4546 0.5501 0.0
O292 O 0.75531 0.3829 0.50646 0.0
O293 O 0.77946 0.42716 0.4954 0.0
O294 O 0.82346 0.45553 0.52913 0.0
O295 O 0.83771 0.43715 0.57039 0.0
C296 C 0.78552 0.36804 0.57035 0.0
O297 O 0.78788 0.45772 0.59234 0.0
O298 O 0.7466 0.44592 0.55665 0.0
In299 In 0.66802 0.59997 0.32578 0.0
O300 O 0.71248 0.58374 0.32978 0.0
O301 O 0.66805 0.54796 0.31871 0.0
C302 C 0.70884 0.65659 0.32437 0.0
C303 C 0.6345 0.58979 0.26482 0.0
C304 C 0.64562 0.59965 0.38311 0.0
O305 O 0.71782 0.63346 0.33189 0.0
O306 O 0.6791 0.65147 0.31831 0.0
O307 O 0.63098 0.58037 0.35762 0.0
O308 O 0.67028 0.61952 0.37922 0.0
C309 C 0.69795 0.55446 0.32301 0.0
O310 O 0.65569 0.57696 0.27282 0.0
O311 O 0.62865 0.60726 0.28809 0.0
Dy312 Dy 0.1284 0.12049 0.0944 0.0
Dy313 Dy 0.05809 0.07725 0.05652 0.0
C314 C 0.11495 0.09223 0.01672 0.0
O315 O 0.10544 0.15919 0.08522 0.0
O316 O 0.05881 0.12876 0.05265 0.0
O317 O 0.1742 0.15285 0.0936 0.0
O318 O 0.16455 0.13553 0.13719 0.0
O319 O 0.05091 0.08722 0.1076 0.0
O320 O 0.10003 0.11817 0.13446 0.0
O321 O 0.08068 0.03906 0.06969 0.0
O322 O 0.13029 0.06962 0.09555 0.0
O323 O 1.01523 0.0391 0.05297 0.0
O324 O 1.02023 0.06788 0.01585 0.0
C325 C 0.07878 0.15706 0.06603 0.0
O326 O 0.13239 0.11343 0.04162 0.0
O327 O 0.0879 0.07253 0.01895 0.0
C328 C 0.2128 0.13346 0.12055 0.0
C329 C 0.24448 0.08816 0.10331 0.0
C330 C 0.24559 0.1133 0.0863 0.0
C331 C 0.23004 0.1359 0.09499 0.0
C332 C 0.21545 0.11092 0.14018 0.0
C333 C 0.23102 0.08833 0.13149 0.0
C334 C 0.18649 0.14806 0.12132 0.0
C335 C 0.07037 0.10268 0.13432 0.0
C336 C 0.10911 0.04145 0.08556 0.0
C337 C 0.97046 0.05287 0.03117 0.0
C338 C 0.91595 0.07297 0.03561 0.0
C339 C 0.93911 0.07781 0.0631 0.0
C340 C 0.96618 0.06799 0.06086 0.0
C341 C 0.94686 0.04677 1.00393 0.0
C342 C 0.91974 0.0568 1.00611 0.0
C343 C 1.00091 0.04679 0.02793 0.0
H344 H 0.25602 0.11398 0.0646 0.0
H345 H 0.22888 0.1533 0.0797 0.0
H346 H 0.20305 0.10879 0.16051 0.0
H347 H 0.23069 0.06976 0.14562 0.0
H348 H 0.93716 0.0907 0.08602 0.0
H349 H 0.98433 0.07339 0.08211 0.0
H350 H 0.94995 0.03531 0.98079 0.0
H351 H 0.90215 0.05266 0.98461 0.0
Dy352 Dy 0.37456 0.85443 0.29509 0.0
Dy353 Dy 0.34121 0.88031 0.35304 0.0
C354 C 0.38912 0.92828 0.32201 0.0
O355 O 0.41041 0.86203 0.33991 0.0
O356 O 0.37724 0.85935 0.37743 0.0
O357 O 0.41179 0.8596 0.26618 0.0
O358 O 0.37317 0.81599 0.25735 0.0
O359 O 0.31558 0.82887 0.33747 0.0
O360 O 0.35602 0.81337 0.31841 0.0
O361 O 0.31792 0.89202 0.30796 0.0
O362 O 0.32578 0.85343 0.27114 0.0
O363 O 0.30017 0.89228 0.36707 0.0
O364 O 0.34188 0.89975 0.40285 0.0
C365 C 0.40455 0.85802 0.36894 0.0
O366 O 0.38353 0.90654 0.29595 0.0
O367 O 0.38087 0.92112 0.34913 0.0
C368 C 0.38668 0.83691 0.21258 0.0
C369 C 0.34969 0.83798 0.15444 0.0
C370 C 0.36114 0.86539 0.17839 0.0
C371 C 0.37941 0.86488 0.2072 0.0
C372 C 0.37723 0.81011 0.18776 0.0
C373 C 0.35893 0.8107 0.15861 0.0
C374 C 0.39619 0.83348 0.24585 0.0
C375 C 0.32909 0.80677 0.32905 0.0
C376 C 0.31032 0.87412 0.27908 0.0
C377 C 0.29266 0.87705 0.41703 0.0
C378 C 0.27084 0.82784 0.45059 0.0
C379 C 0.25745 0.82523 0.41827 0.0
C380 C 0.26828 0.84964 0.40156 0.0
C381 C 0.30314 0.88127 0.45034 0.0
C382 C 0.2923 0.85675 0.46708 0.0
C383 C 0.31162 0.89721 0.39774 0.0
H384 H 0.35498 0.88698 0.17528 0.0
H385 H 0.38593 0.88575 0.22606 0.0
H386 H 0.38213 0.78816 0.19175 0.0
H387 H 0.35061 0.78947 0.14016 0.0
H388 H 0.2405 0.8033 0.40524 0.0
H389 H 0.25946 0.8457 0.37591 0.0
H390 H 0.32184 0.90224 0.46274 0.0
H391 H 0.303 0.85931 0.49205 0.0
Dy392 Dy 0.55863 0.09124 0.57749 0.0
Dy393 Dy 0.62474 0.10163 0.54806 0.0
C394 C 0.56334 0.11129 0.50907 0.0
O395 O 0.56581 0.04216 0.57124 0.0
O396 O 0.59836 0.04894 0.53357 0.0
O397 O 0.50904 0.06595 0.57254 0.0
O398 O 0.53116 0.10501 0.61249 0.0
O399 O 0.63581 0.08678 0.59488 0.0
O400 O 0.59406 0.09257 0.61987 0.0
O401 O 0.62866 0.15189 0.57231 0.0
O402 O 0.57723 0.14474 0.58098 0.0
O403 O 0.67565 0.11775 0.55228 0.0
O404 O 0.64655 0.09169 0.50665 0.0
C405 C 0.5805 0.03016 0.54977 0.0
O406 O 0.5467 0.0916 0.52498 0.0
O407 O 0.59423 0.1218 0.51668 0.0
C408 C 0.47932 0.10114 0.58801 0.0
C409 C 0.43587 0.13545 0.57321 0.0
C410 C 0.44285 0.11499 0.54866 0.0
C411 C 0.46449 0.09811 0.55595 0.0
C412 C 0.47161 0.12087 0.61264 0.0
C413 C 0.4502 0.138 0.6053 0.0
C414 C 0.50454 0.08601 0.59581 0.0
C415 C 0.62179 0.0873 0.6202 0.0
C416 C 0.60574 0.16367 0.58063 0.0
C417 C 0.69227 0.07768 0.52405 0.0
C418 C 0.72539 0.03175 0.52688 0.0
C419 C 0.69897 0.03007 0.54236 0.0
C420 C 0.68257 0.05275 0.54088 0.0
C421 C 0.71816 0.0793 0.50801 0.0
C422 C 0.73462 0.05645 0.50937 0.0
C423 C 0.67503 0.10168 0.52384 0.0
H424 H 0.43227 0.11276 0.5237 0.0
H425 H 0.47009 0.08327 0.53635 0.0
H426 H 0.48273 0.12361 0.6375 0.0
H427 H 0.44491 0.15331 0.62472 0.0
H428 H 0.69146 1.01178 0.55646 0.0
H429 H 0.66253 0.05109 0.55336 0.0
H430 H 0.72577 0.09828 0.49471 0.0
H431 H 0.75461 0.05819 0.49682 0.0
Dy432 Dy 0.36254 0.31793 0.8114 0.0
Dy433 Dy 0.29973 0.34534 0.80518 0.0
C434 C 0.36827 0.38913 0.80191 0.0
O435 O 0.35029 0.32123 0.86127 0.0
O436 O 0.32278 0.35813 0.85712 0.0
O437 O 0.41033 0.32181 0.83367 0.0
O438 O 0.38668 0.28482 0.79234 0.0
O439 O 0.2848 0.29962 0.82258 0.0
O440 O 0.3205 0.27512 0.80457 0.0
O441 O 0.29947 0.32072 0.75515 0.0
O442 O 0.35248 0.32477 0.76031 0.0
O443 O 0.25033 0.33856 0.78687 0.0
O444 O 0.27768 0.38207 0.8194 0.0
C445 C 0.33669 0.34168 0.87445 0.0
O446 O 0.37997 0.37066 0.81829 0.0
O447 O 0.33787 0.38176 0.79012 0.0
C448 C 0.44119 0.30982 0.79417 0.0
C449 C 0.49056 0.32779 0.75823 0.0
C450 C 0.4856 0.35009 0.78252 0.0
C451 C 0.46114 0.34125 0.80023 0.0
C452 C 0.44664 0.28738 0.77044 0.0
C453 C 0.47095 0.29626 0.7526 0.0
C454 C 0.41365 0.30048 0.81089 0.0
C455 C 0.29366 0.27399 0.81504 0.0
C456 C 0.32467 0.31961 0.74223 0.0
C457 C 0.22536 0.35895 0.82786 0.0
C458 C 0.18283 0.34958 0.87244 0.0
C459 C 0.18499 0.32373 0.85046 0.0
C460 C 0.20603 0.32832 0.82852 0.0
C461 C 0.22289 0.38487 0.84951 0.0
C462 C 0.20196 0.38024 0.87164 0.0
C463 C 0.24935 0.36377 0.80623 0.0
H464 H 0.50013 0.3746 0.7873 0.0
H465 H 0.45759 0.35921 0.81826 0.0
H466 H 0.43172 0.263 0.76531 0.0
H467 H 0.47442 0.27839 0.7344 0.0
H468 H 0.17086 0.29979 0.85066 0.0
H469 H 0.20744 0.3077 0.81244 0.0
H470 H 0.23748 0.40871 0.84959 0.0
H471 H 0.20059 0.40069 0.888 0.0
Dy472 Dy 0.08802 0.04323 0.56512 0.0
Dy473 Dy 0.05989 0.10521 0.57527 0.0
C474 C 1.01672 0.03597 0.57636 0.0
O475 O 0.08448 0.0575 0.51631 0.0
O476 O 0.04618 0.0827 0.52307 0.0
O477 O 0.08465 0.99627 0.53998 0.0
O478 O 0.1211 1.01847 0.58186 0.0
O479 O 0.10522 0.12137 0.55717 0.0
O480 O 0.1305 0.08581 0.57312 0.0
O481 O 0.08509 0.10467 0.62435 0.0
O482 O 0.082 0.05172 0.61692 0.0
O483 O 0.06619 0.1544 0.59524 0.0
O484 O 1.02272 0.12699 0.56307 0.0
C485 C 0.06316 0.07053 0.50449 0.0
O486 O 0.03542 0.02491 0.55931 0.0
O487 O 1.02398 0.06615 0.58958 0.0
C488 C 0.09568 0.96362 0.57732 0.0
C489 C 0.07595 0.91327 0.61123 0.0
C490 C 0.0547 0.91839 0.58647 0.0
C491 C 0.06441 0.94335 0.56977 0.0
C492 C 0.11715 0.95786 0.60137 0.0
C493 C 0.10738 0.93308 0.61822 0.0
C494 C 0.10558 0.99202 0.56214 0.0
C495 C 0.13115 0.11304 0.56396 0.0
C496 C 0.08702 0.07919 0.63604 0.0
C497 C 0.0456 0.17934 0.55504 0.0
C498 C 0.05489 0.2204 0.50953 0.0
C499 C 0.08078 0.21834 0.53102 0.0
C500 C 0.07623 0.19803 0.55343 0.0
C501 C 1.01963 0.18185 0.53401 0.0
C502 C 1.02422 0.20207 0.51141 0.0
C503 C 0.04092 0.15538 0.57644 0.0
H504 H 1.03029 0.90368 0.58064 0.0
H505 H 0.04716 0.94712 0.55146 0.0
H506 H 0.14139 0.97301 0.60765 0.0
H507 H 0.12445 0.92946 0.63684 0.0
H508 H 0.10474 0.23187 0.52999 0.0
H509 H 0.09689 0.19653 0.56899 0.0
H510 H 0.9958 0.16768 0.53463 0.0
H511 H 1.00374 0.20342 0.49545 0.0
Dy512 Dy 0.30919 0.83731 0.77447 0.0
Dy513 Dy 0.29787 0.77226 0.80538 0.0
C514 C 0.29013 0.83538 0.8433 0.0
O515 O 0.35834 0.83059 0.7815 0.0
O516 O 0.35063 0.79863 0.81938 0.0
O517 O 0.33412 0.8871 0.77967 0.0
O518 O 0.29568 0.86455 0.73969 0.0
O519 O 0.308 0.75767 0.75635 0.0
O520 O 0.30864 0.80136 0.73243 0.0
O521 O 0.24724 0.76946 0.7845 0.0
O522 O 0.25566 0.81959 0.77198 0.0
O523 O 0.28355 0.72119 0.80188 0.0
O524 O 0.30516 0.75202 0.848 0.0
C525 C 0.36992 0.81677 0.80375 0.0
O526 O 0.31076 0.85025 0.8272 0.0
O527 O 0.27826 0.80451 0.8363 0.0
C528 C 0.29802 0.91513 0.76644 0.0
C529 C 0.26683 0.96022 0.78641 0.0
C530 C 0.26062 0.93111 0.79736 0.0
C531 C 0.27609 0.90879 0.78747 0.0
C532 C 0.30443 0.94409 0.75545 0.0
C533 C 0.28894 0.96653 0.76538 0.0
C534 C 0.31416 0.89138 0.75664 0.0
C535 C 0.30977 0.77201 0.73136 0.0
C536 C 0.23616 0.79219 0.7749 0.0
C537 C 0.32123 0.70567 0.83501 0.0
C538 C 0.36797 0.67318 0.83383 0.0
C539 C 0.33561 0.65657 0.8238 0.0
C540 C 0.31247 0.6727 0.82434 0.0
C541 C 0.35344 0.72211 0.84601 0.0
C542 C 0.37657 0.70606 0.84538 0.0
C543 C 0.29728 0.72312 0.83146 0.0
H544 H 0.2441 0.92572 0.81391 0.0
H545 H 0.27102 0.88657 0.79635 0.0
H546 H 0.32132 0.9493 0.73922 0.0
H547 H 0.29397 0.98864 0.7563 0.0
H548 H 0.32822 0.63126 0.81445 0.0
H549 H 0.28782 0.65957 0.81548 0.0
H550 H 0.36088 0.74754 0.85445 0.0
H551 H 0.40121 0.71946 0.8537 0.0
Dy552 Dy 0.53075 0.07296 0.01518 0.0
Dy553 Dy 0.56377 0.04438 0.07187 0.0
C554 C 0.55495 1.01075 0.99771 0.0
O555 O 0.49475 0.03005 0.02106 0.0
O556 O 0.51187 0.02919 0.07391 0.0
O557 O 0.49998 0.06661 0.96963 0.0
O558 O 0.52204 0.11371 0.99749 0.0
O559 O 0.56181 0.09269 0.09491 0.0
O560 O 0.51874 0.09539 0.06124 0.0
O561 O 0.6007 0.06207 0.04278 0.0
O562 O 0.58153 0.10142 0.0273 0.0
O563 O 0.60605 0.05044 0.10614 0.0
O564 O 0.56474 1.01053 0.10374 0.0
C565 C 0.48994 1.02006 0.04799 0.0
O566 O 0.55177 0.03733 0.98881 0.0
O567 O 0.55454 1.00663 0.02784 0.0
C568 C 0.52104 0.10671 0.94115 0.0
C569 C 0.55977 0.11376 0.89379 0.0
C570 C 0.56674 0.13702 0.92182 0.0
C571 C 0.54748 0.13358 0.9453 0.0
C572 C 0.51181 0.0858 0.91129 0.0
C573 C 0.53114 0.08922 0.8878 0.0
C574 C 0.5074 0.09701 0.96933 0.0
C575 C 0.53844 0.10526 0.08896 0.0
C576 C 0.60495 0.08905 0.03256 0.0
C577 C 0.59088 0.0405 0.15448 0.0
C578 C 0.59398 0.07698 0.21486 0.0
C579 C 0.56754 0.07114 0.1906 0.0
C580 C 0.566 0.05313 0.16074 0.0
C581 C 0.61698 0.04528 0.17898 0.0
C582 C 0.61834 0.06319 0.20936 0.0
C583 C 0.59174 0.02841 0.1209 0.0
H584 H 0.5886 0.15627 0.92706 0.0
H585 H 0.55497 0.1505 0.96781 0.0
H586 H 0.49118 0.06523 0.90721 0.0
H587 H 0.5249 0.07139 0.86599 0.0
H588 H 0.54808 0.08088 0.19465 0.0
H589 H 0.54593 0.0503 0.14202 0.0
H590 H 0.63667 0.0362 0.17425 0.0
H591 H 0.63863 0.06705 0.22811 0.0
Dy592 Dy 0.29019 0.27839 0.28338 0.0
Dy593 Dy 0.33001 0.34858 0.32118 0.0
C594 C 0.31213 0.29318 0.35947 0.0
O595 O 0.25056 0.30144 0.28975 0.0
O596 O 0.27877 0.34477 0.32842 0.0
O597 O 0.27349 0.22883 0.28599 0.0
O598 O 0.26266 0.2444 0.24097 0.0
O599 O 0.31346 0.35553 0.27129 0.0
O600 O 0.30629 0.3051 0.24462 0.0
O601 O 0.3685 0.33064 0.30097 0.0
O602 O 0.34193 0.27748 0.28698 0.0
O603 O 0.3577 0.3972 0.3233 0.0
O604 O 0.34852 0.37976 0.36721 0.0
C605 C 0.25119 0.32588 0.31198 0.0
O606 O 0.288 0.27987 0.33607 0.0
O607 O 0.33627 0.31512 0.3544 0.0
C608 C 0.28034 0.1982 0.2401 0.0
C609 C 0.33067 0.17134 0.23881 0.0
C610 C 0.30439 0.15714 0.25227 0.0
C611 C 0.27909 0.1703 0.25257 0.0
C612 C 0.30441 0.20936 0.22237 0.0
C613 C 0.32938 0.19575 0.22153 0.0
C614 C 0.26429 0.22026 0.25487 0.0
C615 C 0.3108 0.33551 0.24446 0.0
C616 C 0.36846 0.30107 0.29073 0.0
C617 C 0.34805 0.43238 0.36495 0.0
C618 C 0.32204 0.48344 0.37578 0.0
C619 C 0.35061 0.48744 0.3636 0.0
C620 C 0.36353 0.46207 0.35828 0.0
C621 C 0.32059 0.4289 0.379 0.0
C622 C 0.30785 0.45429 0.38457 0.0
C623 C 0.35888 0.40466 0.35432 0.0
H624 H 0.30505 0.13824 0.26572 0.0
H625 H 0.26083 0.16131 0.26638 0.0
H626 H 0.30607 0.23086 0.21251 0.0
H627 H 0.34944 0.20679 0.21081 0.0
H628 H 0.36194 0.5095 0.35628 0.0
H629 H 0.38472 0.46519 0.34744 0.0
H630 H 0.30815 0.40624 0.38444 0.0
H631 H 0.28609 0.45066 0.39446 0.0
Dy632 Dy 0.58907 0.54218 0.05691 0.0
Dy633 Dy 0.56283 0.60571 0.06665 0.0
C634 C 0.51996 0.53706 0.07167 0.0
O635 O 0.56537 0.54476 1.00753 0.0
O636 O 0.57141 0.59819 0.01595 0.0
O637 O 0.57853 0.49235 0.03657 0.0
O638 O 0.62344 0.51677 0.06773 0.0
O639 O 0.61547 0.62344 0.07154 0.0
O640 O 0.62736 0.58043 0.04449 0.0
O641 O 0.57036 0.59534 0.11688 0.0
O642 O 0.60546 0.56614 0.1086 0.0
O643 O 0.56709 0.65467 0.08648 0.0
O644 O 0.52639 0.62692 0.05071 0.0
C645 C 0.5658 0.57105 0.99631 0.0
O646 O 0.54594 0.52921 0.07908 0.0
O647 O 0.52046 0.56307 0.06009 0.0
C648 C 0.59722 0.46477 0.07428 0.0
C649 C 0.58048 0.41661 0.11154 0.0
C650 C 0.57722 0.44708 0.1214 0.0
C651 C 0.58546 0.47085 0.10297 0.0
C652 C 0.60076 0.43459 0.06438 0.0
C653 C 0.59252 0.41074 0.08284 0.0
C654 C 0.60366 0.48927 0.05383 0.0
C655 C 0.63472 0.61098 0.05654 0.0
C656 C 0.59147 0.58166 0.12802 0.0
C657 C 0.54822 0.68001 0.04531 0.0
C658 C 0.55737 0.72207 1.00069 0.0
C659 C 0.5835 0.71796 0.02026 0.0
C660 C 0.579 0.697 0.04217 0.0
C661 C 0.52213 0.68468 0.0263 0.0
C662 C 0.52663 0.70535 1.00414 0.0
C663 C 0.54289 0.65531 0.06582 0.0
H664 H 0.56763 0.45242 0.14304 0.0
H665 H 0.58217 0.4939 0.11087 0.0
H666 H 0.6096 0.42936 0.04222 0.0
H667 H 0.59574 0.38774 0.07468 0.0
H668 H 0.60747 0.7303 0.01799 0.0
H669 H 0.59965 0.69363 0.0561 0.0
H670 H 0.49818 0.67175 0.02809 0.0
H671 H 0.50602 0.70829 0.9897 0.0
Dy672 Dy 0.81265 0.34297 0.29792 0.0
Dy673 Dy 0.80005 0.27723 0.32721 0.0
C674 C 0.7912 0.33987 0.36763 0.0
O675 O 0.86208 0.34452 0.32113 0.0
O676 O 0.85276 0.29194 0.32456 0.0
O677 O 0.83432 0.39344 0.30384 0.0
O678 O 0.80413 0.36751 0.25873 0.0
O679 O 0.79473 0.26342 0.2742 0.0
O680 O 0.82648 0.30887 0.26298 0.0
O681 O 0.75023 0.28206 0.31648 0.0
O682 O 0.76 0.31775 0.28198 0.0
O683 O 0.77812 0.22688 0.32341 0.0
O684 O 0.81371 0.25303 0.3649 0.0
C685 C 0.8728 0.32009 0.32542 0.0
O686 O 0.79301 0.35385 0.34249 0.0
O687 O 0.79791 0.31292 0.36846 0.0
C688 C 0.79891 0.41735 0.27982 0.0
C689 C 0.76452 0.46131 0.29285 0.0
C690 C 0.75399 0.43041 0.29937 0.0
C691 C 0.77104 0.40865 0.29292 0.0
C692 C 0.80923 0.44783 0.27261 0.0
C693 C 0.7921 0.46966 0.27898 0.0
C694 C 0.81833 0.39539 0.27661 0.0
C695 C 0.81256 0.27821 0.25562 0.0
C696 C 0.73983 0.29767 0.29518 0.0
C697 C 0.81798 0.20371 0.34142 0.0
C698 C 0.86413 0.17212 0.33043 0.0
C699 C 0.84611 0.1794 0.30448 0.0
C700 C 0.82342 0.19521 0.30992 0.0
C701 C 0.83524 0.19556 0.36727 0.0
C702 C 0.85821 0.17998 0.36185 0.0
C703 C 0.79822 0.22511 0.34788 0.0
H704 H 0.73314 0.42332 0.31042 0.0
H705 H 0.76292 0.38525 0.29896 0.0
H706 H 0.8308 0.45493 0.26267 0.0
H707 H 0.80057 0.49314 0.27324 0.0
H708 H 0.85037 0.1739 0.28006 0.0
H709 H 0.811 0.20178 0.28953 0.0
H710 H 0.83176 0.20228 0.39178 0.0
H711 H 0.87154 0.17434 0.38225 0.0
Dy712 Dy 1.02376 0.56538 0.51507 0.0
Dy713 Dy 0.04915 0.535 0.57483 0.0
C714 C 0.04642 0.50155 0.50151 0.0
O715 O 0.98302 0.52583 0.51927 0.0
O716 O 0.99711 0.52732 0.57304 0.0
O717 O 1.00184 0.56264 0.46591 0.0
O718 O 1.0143 0.6068 0.49997 0.0
O719 O 0.05376 0.58616 0.59444 0.0
O720 O 1.0124 0.59057 0.56 0.0
O721 O 0.09106 0.55052 0.55165 0.0
O722 O 0.07596 0.58881 0.52791 0.0
O723 O 0.08452 0.5383 0.61609 0.0
O724 O 0.04109 0.49957 0.60546 0.0
C725 C 0.97571 0.51907 0.54678 0.0
O726 O 0.04382 0.5278 0.49154 0.0
O727 O 0.04387 0.49749 0.53138 0.0
C728 C 1.02437 0.60968 0.4472 0.0
C729 C 0.07176 0.6313 0.41124 0.0
C730 C 0.04616 0.60431 0.39791 0.0
C731 C 1.02253 0.59358 0.41579 0.0
C732 C 0.0477 0.63898 0.45862 0.0
C733 C 0.07134 0.64962 0.44079 0.0
C734 C 1.00617 0.59328 0.46966 0.0
C735 C 1.03202 0.60044 0.58766 0.0
C736 C 0.09776 0.57563 0.53806 0.0
C737 C 0.05593 0.52978 0.65743 0.0
C738 C 0.04249 0.56324 0.71273 0.0
C739 C 1.03003 0.56638 0.68172 0.0
C740 C 0.036 0.54931 0.65465 0.0
C741 C 0.06903 0.5265 0.68807 0.0
C742 C 0.06195 0.54283 0.71569 0.0
C743 C 0.06493 0.51685 0.6276 0.0
H744 H 0.04598 0.5898 0.37508 0.0
H745 H 1.00448 0.57122 0.40623 0.0
H746 H 0.04936 0.65241 0.48244 0.0
H747 H 0.09063 0.67082 0.45121 0.0
H748 H 1.01595 0.5825 0.67797 0.0
H749 H 1.02572 0.55228 0.63128 0.0
H750 H 0.08476 0.51171 0.69062 0.0
H751 H 0.07164 0.53938 0.73915 0.0
Dy752 Dy 0.86607 0.81938 0.31099 0.0
Dy753 Dy 0.80292 0.84521 0.3002 0.0
C754 C 0.87244 0.88981 0.30191 0.0
O755 O 0.8613 0.84237 0.36016 0.0
O756 O 0.80791 0.83585 0.35062 0.0
O757 O 0.91489 0.82965 0.33379 0.0
O758 O 0.89201 0.78514 0.30082 0.0
O759 O 0.7852 0.79252 0.29385 0.0
O760 O 0.82712 0.78082 0.32207 0.0
O761 O 0.81597 0.8392 0.25065 0.0
O762 O 0.84519 0.8042 0.25847 0.0
O763 O 0.75473 0.84077 0.27852 0.0
O764 O 0.78074 0.88141 0.31537 0.0
C765 C 0.83453 0.84152 0.37078 0.0
O766 O 0.88048 0.86427 0.29203 0.0
O767 O 0.84556 0.88776 0.31239 0.0
C768 C 0.94578 0.81164 0.29819 0.0
C769 C 0.99586 0.82974 0.26303 0.0
C770 C 0.99958 0.84246 0.29605 0.0
C771 C 0.97492 0.8334 0.3134 0.0
C772 C 0.94217 0.7984 0.26536 0.0
C773 C 0.96694 0.80726 0.24805 0.0
C774 C 0.91892 0.8049 0.31622 0.0
C775 C 0.79694 0.77333 0.30916 0.0
C776 C 0.83008 0.81833 0.23927 0.0
C777 C 0.72742 0.85838 0.31892 0.0
C778 C 0.6848 0.8474 0.3631 0.0
C779 C 0.69037 0.82177 0.34358 0.0
C780 C 0.71161 0.82719 0.32188 0.0
C781 C 0.72118 0.88395 0.33774 0.0
C782 C 0.70019 0.87854 0.3597 0.0
C783 C 0.75295 0.86464 0.29931 0.0
H784 H 1.02128 0.86008 0.30839 0.0
H785 H 0.97836 0.84407 0.33864 0.0
H786 H 0.92007 0.78156 0.25281 0.0
H787 H 0.96335 0.79643 0.22287 0.0
H788 H 0.67907 0.79752 0.34584 0.0
H789 H 0.71625 0.80694 0.30811 0.0
H790 H 0.73325 0.90819 0.33611 0.0
H791 H 0.6961 0.89876 0.37414 0.0
Dy792 Dy 0.8675 0.34806 0.79648 0.0
Dy793 Dy 0.8339 0.37341 0.85402 0.0
C794 C 0.88292 0.41963 0.82408 0.0
O795 O 0.89293 0.33668 0.84052 0.0
O796 O 0.87989 0.36917 0.88026 0.0
O797 O 0.89197 0.35538 0.75621 0.0
O798 O 0.88168 0.3096 0.77151 0.0
O799 O 0.82409 0.32124 0.8516 0.0
O800 O 0.82304 0.31123 0.79751 0.0
O801 O 0.79697 0.36517 0.80971 0.0
O802 O 0.82786 0.36356 0.77024 0.0
O803 O 0.79452 0.37099 0.87946 0.0
O804 O 0.83746 0.41051 0.89425 0.0
C805 C 0.89686 0.35029 0.87096 0.0
O806 O 0.89678 0.39726 0.81909 0.0
O807 O 0.8536 0.41263 0.82878 0.0
C808 C 0.8731 0.31036 0.71584 0.0
C809 C 0.83488 0.30103 0.65536 0.0
C810 C 0.86794 0.31487 0.65948 0.0
C811 C 0.88689 0.31951 0.68956 0.0
C812 C 0.84087 0.29302 0.71087 0.0
C813 C 0.82195 0.28815 0.68073 0.0
C814 C 0.8899 0.32524 0.74863 0.0
C815 C 0.81558 0.30159 0.82394 0.0
C816 C 0.80093 0.36547 0.77946 0.0
C817 C 0.81347 0.38691 0.93476 0.0
C818 C 0.81665 0.35226 0.98484 0.0
C819 C 0.78723 0.35449 0.97022 0.0
C820 C 0.78569 0.37183 0.94543 0.0
C821 C 0.84306 0.38774 0.95186 0.0
C822 C 0.84461 0.37064 0.97682 0.0
C823 C 0.81108 0.39472 0.90223 0.0
H824 H 0.8788 0.3253 0.64062 0.0
H825 H 0.91165 0.33304 0.69301 0.0
H826 H 0.82964 0.28572 0.73086 0.0
H827 H 0.79671 0.27688 0.67814 0.0
H828 H 0.7652 0.34055 0.97576 0.0
H829 H 0.76266 0.37089 0.93256 0.0
H830 H 0.86497 0.39937 0.94434 0.0
H831 H 0.86763 0.36997 0.98822 0.0
Dy832 Dy 0.78505 0.77803 0.77998 0.0
Dy833 Dy 0.82695 0.84786 0.81738 0.0
C834 C 0.81349 0.79135 0.85665 0.0
O835 O 0.74777 0.8043 0.78433 0.0
O836 O 0.77612 0.84467 0.82554 0.0
O837 O 0.74477 0.73701 0.77709 0.0
O838 O 0.77512 0.73769 0.7413 0.0
O839 O 0.81002 0.85589 0.76803 0.0
O840 O 0.79565 0.80481 0.73993 0.0
O841 O 0.86404 0.82678 0.79814 0.0
O842 O 0.83576 0.77413 0.78367 0.0
O843 O 0.86455 0.89104 0.82064 0.0
O844 O 0.83733 0.88507 0.85929 0.0
C845 C 0.74854 0.82758 0.80777 0.0
O846 O 0.79051 0.77515 0.83284 0.0
O847 O 0.8344 0.81709 0.85307 0.0
C848 C 0.76299 0.6921 0.76462 0.0
C849 C 0.80494 0.66281 0.79369 0.0
C850 C 0.78295 0.6721 0.81088 0.0
C851 C 0.76193 0.68655 0.79637 0.0
C852 C 0.78114 0.67777 0.74594 0.0
C853 C 0.8023 0.66351 0.76052 0.0
C854 C 0.75439 0.71991 0.75517 0.0
C855 C 0.8032 0.83559 0.74062 0.0
C856 C 0.86292 0.79691 0.78783 0.0
C857 C 0.85174 0.93567 0.84584 0.0
C858 C 0.83179 0.99057 0.84446 0.0
C859 C 0.83122 0.97045 0.81559 0.0
C860 C 0.84096 0.9432 0.81626 0.0
C861 C 0.85356 0.95632 0.87469 0.0
C862 C 0.84354 0.98359 0.87403 0.0
C863 C 0.85772 0.90483 0.84687 0.0
H864 H 0.78425 0.67139 0.8364 0.0
H865 H 0.7477 0.69665 0.81131 0.0
H866 H 0.78195 0.68112 0.72124 0.0
H867 H 0.81854 0.65562 0.74661 0.0
H868 H 0.82171 0.97487 0.79247 0.0
H869 H 0.83887 0.92743 0.79367 0.0
H870 H 0.86162 0.95073 0.89773 0.0
H871 H 0.84428 0.9988 0.8966 0.0
Dy872 Dy 0.62751 0.61536 0.58724 0.0
Dy873 Dy 0.55776 0.57442 0.54933 0.0
C874 C 0.61325 0.59288 0.51107 0.0
O875 O 0.60419 0.65469 0.58094 0.0
O876 O 0.56114 0.62565 0.54262 0.0
O877 O 0.67707 0.63046 0.58406 0.0
O878 O 0.66152 0.64483 0.62861 0.0
O879 O 0.55032 0.59071 0.5995 0.0
O880 O 0.60084 0.60036 0.62644 0.0
O881 O 0.57585 0.53563 0.568 0.0
O882 O 0.62827 0.56368 0.58545 0.0
O883 O 0.50929 0.5463 0.5471 0.0
O884 O 0.5268 0.55638 0.50333 0.0
C885 C 0.57968 0.65353 0.55896 0.0
O886 O 0.62586 0.61728 0.53454 0.0
O887 O 0.59174 0.5684 0.51614 0.0
C888 C 0.7072 0.62624 0.631 0.0
C889 C 0.73468 0.57675 0.63624 0.0
C890 C 0.74932 0.60226 0.62207 0.0
C891 C 0.73573 0.62706 0.61965 0.0
C892 C 0.69538 0.60312 0.64937 0.0
C893 C 0.70926 0.57859 0.65213 0.0
C894 C 0.68557 0.64165 0.61492 0.0
C895 C 0.5703 0.59476 0.62644 0.0
C896 C 0.60514 0.53659 0.58001 0.0
C897 C 0.47463 0.55753 0.50693 0.0
C898 C 0.42439 0.58483 0.49901 0.0
C899 C 0.4195 0.55485 0.50813 0.0
C900 C 0.44448 0.54131 0.51205 0.0
C901 C 0.47905 0.58658 0.49597 0.0
C902 C 0.4541 0.6 0.49187 0.0
C903 C 0.50189 0.54587 0.51632 0.0
H904 H 0.76901 0.60119 0.60966 0.0
H905 H 0.74519 0.64456 0.60532 0.0
H906 H 0.6734 0.60181 0.65841 0.0
H907 H 0.69813 0.55931 0.66371 0.0
H908 H 0.39694 0.54273 0.5141 0.0
H909 H 0.44066 0.51893 0.5206 0.0
H910 H 0.5021 0.59965 0.49184 0.0
H911 H 0.45844 0.62289 0.48435 0.0
Dy912 Dy 0.0696 0.59571 0.10208 0.0
Dy913 Dy 0.13363 0.60537 0.06878 0.0
C914 C 0.07085 0.6136 0.03352 0.0
O915 O 0.07543 0.54609 0.09436 0.0
O916 O 0.10521 0.55306 0.05428 0.0
O917 O 1.01967 0.57184 0.0977 0.0
O918 O 0.04292 0.61082 0.13727 0.0
O919 O 0.14815 0.59426 0.11695 0.0
O920 O 0.10572 0.59542 0.14299 0.0
O921 O 0.13747 0.65651 0.08991 0.0
O922 O 0.08782 0.64912 0.10378 0.0
O923 O 0.18448 0.61932 0.071 0.0
O924 O 0.15318 0.59625 0.02562 0.0
C925 C 0.08781 0.53402 0.0707 0.0
O926 O 0.057 0.59219 0.04929 0.0
O927 O 0.10162 0.62565 0.03937 0.0
C928 C 0.99276 0.60936 0.11075 0.0
C929 C 0.94825 0.64037 0.0893 0.0
C930 C 0.97789 0.6464 0.07916 0.0
C931 C 0.99992 0.63112 0.08987 0.0
C932 C 0.96337 0.60325 0.1211 0.0
C933 C 0.94129 0.61869 0.11051 0.0
C934 C 1.01588 0.59267 0.12062 0.0
C935 C 0.13452 0.59304 0.14261 0.0
C936 C 0.11513 0.66819 0.10004 0.0
C937 C 0.19895 0.58003 0.03858 0.0
C938 C 0.23149 0.53346 0.04045 0.0
C939 C 0.24814 0.56554 0.04167 0.0
C940 C 0.23197 0.58863 0.04076 0.0
C941 C 0.18227 0.54799 0.03672 0.0
C942 C 0.19831 0.52493 0.03747 0.0
C943 C 0.18216 0.60452 0.04158 0.0
H944 H 0.98391 0.66252 0.06249 0.0
H945 H 1.02251 0.63604 0.08153 0.0
H946 H 0.95749 0.58653 0.13722 0.0
H947 H 0.91886 0.61383 0.11916 0.0
H948 H 0.27377 0.57299 0.0444 0.0
H949 H 0.2453 0.61329 0.04271 0.0
H950 H 0.15685 0.54086 0.03544 0.0
H951 H 0.18469 0.50044 0.03601 0.0
C952 C 0.08751 0.24651 0.06293 0.0
C953 C 0.06006 0.24596 0.04162 0.0
H954 H 0.11484 0.22027 0.0872 0.0
C955 C 0.03832 0.21558 0.02925 0.0
H956 H 0.10514 0.26899 0.07301 0.0
C957 C 0.04394 0.18722 0.03744 0.0
C958 C 0.07164 0.18772 0.05841 0.0
H959 H 1.01694 0.21358 1.01268 0.0
H960 H 1.02657 0.16471 0.02686 0.0
C961 C 0.09314 0.21819 0.0711 0.0
C962 C 0.25126 0.86406 0.20119 0.0
C963 C 0.23018 0.88055 0.21173 0.0
H964 H 0.29271 0.84884 0.21383 0.0
C965 C 0.23641 0.89566 0.24429 0.0
H966 H 0.24704 0.85183 0.17642 0.0
C967 C 0.26263 0.89411 0.26572 0.0
C968 C 0.28335 0.877 0.25548 0.0
H969 H 0.22072 0.90847 0.2534 0.0
H970 H 0.26624 0.90583 0.29062 0.0
C971 C 0.27736 0.86217 0.22276 0.0
C972 C 0.59445 0.94953 0.51945 0.0
C973 C 0.57225 0.92746 0.53222 0.0
H974 H 0.61427 0.99804 0.51447 0.0
C975 C 0.5528 0.93973 0.55123 0.0
H976 H 0.60985 0.9414 0.50456 0.0
C977 C 0.55543 0.97273 0.55706 0.0
C978 C 0.57734 0.99469 0.54377 0.0
H979 H 0.53525 0.92377 0.56137 0.0
H980 H 0.53996 0.98098 0.57176 0.0
C981 C 0.59687 0.98232 0.525 0.0
C982 C 0.53339 0.33473 0.68634 0.0
C983 C 0.56402 0.35375 0.70092 0.0
H984 H 0.48628 0.31177 0.69292 0.0
C985 C 0.57013 0.36499 0.73441 0.0
H986 H 0.52791 0.32567 0.6606 0.0
C987 C 0.54621 0.35699 0.75297 0.0
C988 C 0.51577 0.33734 0.73848 0.0
H989 H 0.59351 0.37961 0.74636 0.0
H990 H 0.55179 0.36555 0.77879 0.0
C991 C 0.50959 0.32655 0.7049 0.0
C992 C 0.0649 0.87013 0.68196 0.0
C993 C 0.04682 0.83932 0.66656 0.0
H994 H 0.08818 0.91752 0.67659 0.0
C995 C 0.0375 0.83318 0.63285 0.0
H996 H 0.0725 0.87563 0.70789 0.0
C997 C 0.0465 0.85725 0.61488 0.0
C998 C 0.0653 0.88787 0.63023 0.0
H999 H 1.02365 0.80964 0.62029 0.0
H1000 H 0.03944 0.8517 0.58889 0.0
C1001 C 0.07412 0.89407 0.664 0.0
C1002 C 0.46104 0.84702 0.80595 0.0
C1003 C 0.47329 0.83105 0.82873 0.0
H1004 H 0.41963 0.85525 0.78012 0.0
C1005 C 0.45102 0.8103 0.84267 0.0
H1006 H 0.47713 0.86334 0.7947 0.0
C1007 C 0.41808 0.80591 0.83461 0.0
C1008 C 0.40563 0.82185 0.81199 0.0
H1009 H 0.45906 0.79756 0.86041 0.0
H1010 H 0.40234 0.78996 0.84643 0.0
C1011 C 0.42785 0.84241 0.79765 0.0
C1012 C 0.54924 0.16351 0.16839 0.0
C1013 C 0.53134 0.18388 0.15967 0.0
H1014 H 0.56597 0.12346 0.15323 0.0
C1015 C 0.51483 0.17734 0.12771 0.0
H1016 H 0.56245 0.16783 0.19263 0.0
C1017 C 0.51641 0.15149 0.10514 0.0
C1018 C 0.53507 0.13166 0.11357 0.0
H1019 H 0.50087 0.19247 0.11998 0.0
H1020 H 0.5036 0.14756 0.08077 0.0
C1021 C 0.55132 0.13803 0.14566 0.0
C1022 C 0.16099 0.31624 0.31206 0.0
C1023 C 0.16082 0.34097 0.33698 0.0
H1024 H 0.18838 0.29206 0.28471 0.0
C1025 C 0.19092 0.36113 0.35276 0.0
H1026 H 0.13872 0.29991 0.29925 0.0
C1027 C 0.21968 0.35664 0.34437 0.0
C1028 C 0.21995 0.33163 0.31978 0.0
H1029 H 0.19236 0.38039 0.37215 0.0
H1030 H 0.24189 0.37272 0.35764 0.0
C1031 C 0.18981 0.31168 0.30369 0.0
C1032 C 0.06819 0.10943 0.22485 0.0
C1033 C 0.03773 0.08944 0.22485 0.0
H1034 H 0.10247 0.12959 0.1964 0.0
C1035 C 1.01777 0.07553 0.19501 0.0
H1036 H 0.08408 0.12068 0.24741 0.0
C1037 C 1.02803 0.08087 0.16595 0.0
C1038 C 0.05873 0.10018 0.16567 0.0
H1039 H 0.99406 0.06019 0.194 0.0
H1040 H 1.01195 0.06917 0.14361 0.0
C1041 C 0.07863 0.11465 0.19557 0.0
C1042 C 0.26518 0.77377 0.51196 0.0
C1043 C 0.27181 0.74746 0.49483 0.0
H1044 H 0.25928 0.82009 0.51112 0.0
C1045 C 0.27481 0.74648 0.46229 0.0
H1046 H 0.26261 0.77498 0.5371 0.0
C1047 C 0.27257 0.77203 0.44747 0.0
C1048 C 0.26745 0.79904 0.46499 0.0
H1049 H 0.27975 0.72639 0.44853 0.0
H1050 H 0.27652 0.77132 0.42277 0.0
C1051 C 0.26322 0.7995 0.49718 0.0
C1052 C 0.63787 0.07254 0.70521 0.0
C1053 C 0.67098 0.07871 0.71022 0.0
H1054 H 0.59627 0.0709 0.67271 0.0
C1055 C 0.68734 0.08449 0.6845 0.0
H1056 H 0.62472 0.06813 0.72472 0.0
C1057 C 0.67107 0.08596 0.65472 0.0
C1058 C 0.63827 0.08216 0.6504 0.0
H1059 H 0.71289 0.0893 0.6878 0.0
H1060 H 0.68447 0.09157 0.63562 0.0
C1061 C 0.62165 0.0745 0.67558 0.0
C1062 C 0.3094 0.36125 0.95389 0.0
C1063 C 0.3343 0.35924 0.97674 0.0
H1064 H 0.29097 0.3577 0.90404 0.0
C1065 C 0.35932 0.34931 0.96558 0.0
H1066 H 0.28983 0.36896 0.96153 0.0
C1067 C 0.35978 0.34241 0.9323 0.0
C1068 C 0.33564 0.34611 0.90963 0.0
H1069 H 0.37894 0.34769 0.98257 0.0
H1070 H 0.37962 0.33543 0.92438 0.0
C1071 C 0.31022 0.35507 0.92086 0.0
C1072 C 0.03962 0.09939 0.42776 0.0
C1073 C 0.04492 0.07729 0.40354 0.0
H1074 H 0.04093 0.11434 0.4781 0.0
C1075 C 0.05816 0.05366 0.41288 0.0
H1076 H 1.02944 0.11789 0.42157 0.0
C1077 C 0.06509 0.05175 0.44572 0.0
C1078 C 0.05828 0.07304 0.46972 0.0
H1079 H 0.06243 0.03618 0.39481 0.0
H1080 H 0.07472 0.03301 0.45222 0.0
C1081 C 0.04597 0.09716 0.46028 0.0
C1082 C 0.32268 0.75351 0.64548 0.0
C1083 C 0.31107 0.7202 0.63868 0.0
H1084 H 0.33119 0.79602 0.68011 0.0
C1085 C 0.3016 0.70385 0.66342 0.0
H1086 H 0.33014 0.76675 0.62686 0.0
C1087 C 0.30243 0.72065 0.69408 0.0
C1088 C 0.31227 0.75407 0.70029 0.0
H1089 H 0.29258 0.67816 0.65881 0.0
H1090 H 0.29407 0.7075 0.71245 0.0
C1091 C 0.32307 0.77029 0.67592 0.0
C1092 C 0.61861 0.0823 0.85285 0.0
C1093 C 0.63864 0.11023 0.84662 0.0
H1094 H 0.57768 0.06158 0.87249 0.0
C1095 C 0.63091 0.13894 0.8532 0.0
H1096 H 0.62392 0.05982 0.84779 0.0
C1097 C 0.60418 0.13992 0.86693 0.0
C1098 C 0.58473 0.11217 0.87423 0.0
H1099 H 0.64581 0.16079 0.84827 0.0
H1100 H 0.59914 0.16247 0.87256 0.0
C1101 C 0.59188 0.08325 0.86654 0.0
C1102 C 0.31557 0.33785 0.15553 0.0
C1103 C 0.32572 0.37068 0.15554 0.0
H1104 H 0.30286 0.301 0.18331 0.0
C1105 C 0.32992 0.39179 0.18485 0.0
H1106 H 0.31203 0.32092 0.13341 0.0
C1107 C 0.32441 0.38043 0.21344 0.0
C1108 C 0.31471 0.34759 0.21362 0.0
H1109 H 0.3376 0.41724 0.18578 0.0
H1110 H 0.32825 0.39748 0.23552 0.0
C1111 C 0.31026 0.32645 0.1842 0.0
C1112 C 0.28734 0.03706 0.0589 0.0
C1113 C 0.26735 1.00634 0.05773 0.0
H1114 H 0.2963 0.08701 0.07503 0.0
C1115 C 0.24054 1.00263 0.07274 0.0
H1116 H 0.30838 0.04062 0.0478 0.0
C1117 C 0.23369 0.02924 0.08839 0.0
C1118 C 0.25357 0.06002 0.08937 0.0
H1119 H 0.22484 0.97922 0.07234 0.0
H1120 H 0.21236 0.02572 0.09899 0.0
C1121 C 0.28052 0.06363 0.07457 0.0
C1122 C 0.69954 0.68648 0.05696 0.0
C1123 C 0.72308 0.67454 0.0453 0.0
H1124 H 0.6534 0.67587 0.06982 0.0
C1125 C 0.71734 0.64145 0.03703 0.0
H1126 H 0.70329 0.71185 0.06359 0.0
C1127 C 0.68865 0.62069 0.04055 0.0
C1128 C 0.66523 0.63263 0.05264 0.0
H1129 H 0.7351 0.63157 0.028 0.0
H1130 H 0.68496 0.59533 0.03405 0.0
C1131 C 0.67098 0.66578 0.06068 0.0
C1132 C 0.6978 0.49837 0.30436 0.0
C1133 C 0.71473 0.53013 0.31738 0.0
H1134 H 0.70022 0.45186 0.28567 0.0
C1135 C 0.74803 0.53898 0.32289 0.0
H1136 H 0.67211 0.49095 0.29961 0.0
C1137 C 0.76413 0.51663 0.31504 0.0
C1138 C 0.74728 0.48495 0.30139 0.0
H1139 H 0.76171 0.5633 0.33293 0.0
H1140 H 0.78982 0.52416 0.31982 0.0
C1141 C 0.71392 0.47601 0.29638 0.0
C1142 C 0.88699 0.48581 0.52346 0.0
C1143 C 0.87898 0.47177 0.55 0.0
H1144 H 0.9239 0.5116 0.50158 0.0
C1145 C 0.90291 0.47373 0.57587 0.0
H1146 H 0.86897 0.4846 0.50318 0.0
C1147 C 0.93447 0.48946 0.57509 0.0
C1148 C 0.9425 0.50305 0.54825 0.0
H1149 H 0.89726 0.46311 0.59664 0.0
H1150 H 0.95255 0.49059 0.59527 0.0
C1151 C 0.91847 0.50116 0.52251 0.0
C1152 C 0.40178 0.13967 0.24813 0.0
C1153 C 0.41781 0.15659 0.27895 0.0
H1154 H 0.36115 0.13107 0.21095 0.0
C1155 C 0.40626 0.17999 0.29478 0.0
H1156 H 0.41014 0.1214 0.2354 0.0
C1157 C 0.37829 0.18513 0.28092 0.0
C1158 C 0.36163 0.16731 0.25086 0.0
H1159 H 0.41801 0.19333 0.3185 0.0
H1160 H 0.36907 0.20242 0.29415 0.0
C1161 C 0.37379 0.14501 0.23415 0.0
C1162 C 0.3638 0.15812 0.5384 0.0
C1163 C 0.3719 0.19052 0.55211 0.0
H1164 H 0.37779 0.11524 0.53436 0.0
C1165 C 0.40156 0.20492 0.57192 0.0
H1166 H 0.34105 0.1464 0.52309 0.0
C1167 C 0.42239 0.18704 0.57861 0.0
C1168 C 0.41409 0.15451 0.56535 0.0
H1169 H 0.4084 0.22985 0.58288 0.0
H1170 H 0.44502 0.19865 0.59419 0.0
C1171 C 0.3848 0.14031 0.5448 0.0
C1172 C 0.72043 0.70995 0.30844 0.0
C1173 C 0.73146 0.68668 0.32136 0.0
H1174 H 0.73237 0.75523 0.29414 0.0
C1175 C 0.76432 0.69195 0.33025 0.0
H1176 H 0.69527 0.70651 0.30126 0.0
C1177 C 0.78576 0.72003 0.32627 0.0
C1178 C 0.77471 0.74321 0.31304 0.0
H1179 H 0.77349 0.67434 0.34023 0.0
H1180 H 0.81092 0.72347 0.33341 0.0
C1181 C 0.7418 0.73783 0.30421 0.0
C1182 C 0.94594 0.49814 0.84873 0.0
C1183 C 0.9286 0.51889 0.84004 0.0
H1184 H 0.94502 0.44964 0.84955 0.0
C1185 C 0.89749 0.50643 0.82302 0.0
H1186 H 0.9701 0.5073 0.86164 0.0
C1187 C 0.88321 0.47381 0.81652 0.0
C1188 C 0.90002 0.45311 0.82634 0.0
H1189 H 0.88368 0.52192 0.81589 0.0
H1190 H 0.85868 0.4648 0.80458 0.0
C1191 C 0.93178 0.4653 0.8416 0.0
C1192 C 0.105 0.95275 0.08821 0.0
C1193 C 0.13156 0.95484 0.11159 0.0
H1194 H 0.07694 0.97724 0.062 0.0
C1195 C 0.15113 0.98589 0.12527 0.0
H1196 H 0.08904 0.92963 0.07706 0.0
C1197 C 0.14439 1.01344 0.11628 0.0
C1198 C 0.11738 1.01146 0.09352 0.0
H1199 H 0.17177 0.98903 0.14336 0.0
H1200 H 0.16018 0.03651 0.12788 0.0
C1201 C 0.09795 0.98036 0.07958 0.0
C1202 C 0.94748 0.3485 0.95109 0.0
C1203 C 0.9689 0.33245 0.94051 0.0
H1204 H 0.90831 0.36697 0.93786 0.0
C1205 C 0.96574 0.32182 0.90708 0.0
H1206 H 0.94922 0.35725 0.97657 0.0
C1207 C 0.94234 0.32734 0.88491 0.0
C1208 C 0.92131 0.344 0.89524 0.0
H1209 H 0.98175 0.30948 0.89786 0.0
H1210 H 0.94112 0.31888 0.85946 0.0
C1211 C 0.9241 0.35428 0.92878 0.0
C1212 C 0.59302 0.24523 0.609 0.0
C1213 C 0.62118 0.26738 0.60533 0.0
H1214 H 0.56612 0.19638 0.60434 0.0
C1215 C 0.64441 0.25494 0.59304 0.0
H1216 H 0.5745 0.25349 0.61847 0.0
C1217 C 0.6397 0.22162 0.58516 0.0
C1218 C 0.61149 0.1995 0.58906 0.0
H1219 H 0.66653 0.27096 0.59006 0.0
H1220 H 0.65826 0.21321 0.57602 0.0
C1221 C 0.58822 0.21214 0.60092 0.0
C1222 C 0.65203 0.85461 0.44139 0.0
C1223 C 0.62212 0.83193 0.43284 0.0
H1224 H 0.69523 0.87733 0.42602 0.0
C1225 C 0.61331 0.81377 0.40148 0.0
H1226 H 0.65944 0.86905 0.46534 0.0
C1227 C 0.63382 0.81847 0.379 0.0
C1228 C 0.66341 0.84169 0.38728 0.0
H1229 H 0.59038 0.79617 0.39415 0.0
H1230 H 0.62618 0.80444 0.35488 0.0
C1231 C 0.67239 0.85955 0.4188 0.0
C1232 C 0.08589 0.29235 0.47124 0.0
C1233 C 0.06953 0.28209 0.43932 0.0
H1234 H 0.09388 0.28111 0.5184 0.0
C1235 C 0.04862 0.2512 0.43044 0.0
H1236 H 0.10205 0.31608 0.47887 0.0
C1237 C 0.04382 0.23116 0.45318 0.0
C1238 C 0.06 0.24154 0.48522 0.0
H1239 H 0.0356 0.24265 0.40605 0.0
H1240 H 1.0276 0.20746 0.44564 0.0
C1241 C 0.08126 0.27229 0.49389 0.0
C1242 C 0.64813 0.26838 0.28872 0.0
C1243 C 0.63742 0.28474 0.26543 0.0
H1244 H 0.68813 0.25922 0.31627 0.0
C1245 C 0.66086 0.30533 0.2526 0.0
H1246 H 0.63108 0.2522 0.29917 0.0
C1247 C 0.69349 0.30936 0.26232 0.0
C1248 C 0.70441 0.29288 0.28531 0.0
H1249 H 0.65399 0.31845 0.23465 0.0
H1250 H 0.71023 0.32551 0.25153 0.0
C1251 C 0.68104 0.27236 0.29846 0.0
C1252 C 0.56438 0.96128 0.91933 0.0
C1253 C 0.57036 0.93454 0.93036 0.0
H1254 H 0.55484 1.00633 0.93161 0.0
C1255 C 0.57169 0.93367 0.96349 0.0
H1256 H 0.56303 0.96276 0.89398 0.0
C1257 C 0.56679 0.95831 0.98487 0.0
C1258 C 0.56044 0.98496 0.97406 0.0
H1259 H 0.57615 0.91358 0.97304 0.0
H1260 H 0.56789 0.95625 1.01007 0.0
C1261 C 0.55957 0.98624 0.94093 0.0
C1262 C 0.92024 0.75342 0.75231 0.0
C1263 C 0.95045 0.77606 0.76185 0.0
H1264 H 0.86988 0.74148 0.75314 0.0
C1265 C 0.95142 0.80511 0.78113 0.0
H1266 H 0.91803 0.73077 0.73743 0.0
C1267 C 0.92348 0.81156 0.7897 0.0
C1268 C 0.89319 0.78907 0.77993 0.0
H1269 H 0.97382 0.82343 0.78894 0.0
H1270 H 0.92569 0.83453 0.80393 0.0
C1271 C 0.89235 0.75963 0.76141 0.0
C1272 C 0.11134 0.07772 0.92549 0.0
C1273 C 0.14227 0.09402 0.92234 0.0
H1274 H 0.07865 0.06395 0.9575 0.0
C1275 C 0.16453 0.10892 0.9506 0.0
H1276 H 0.09366 0.0659 0.90428 0.0
C1277 C 0.15591 0.10803 0.98123 0.0
C1278 C 0.12491 0.09182 0.98441 0.0
H1279 H 0.18862 0.12161 0.94907 0.0
H1280 H 0.17355 0.12012 1.00241 0.0
C1281 C 0.10283 0.07646 0.9561 0.0
C1282 C 0.77651 0.33626 0.61384 0.0
C1283 C 0.78976 0.3417 0.58621 0.0
H1284 H 0.78054 0.31867 0.65784 0.0
C1285 C 0.81177 0.32585 0.57734 0.0
H1286 H 0.75908 0.34777 0.62083 0.0
C1287 C 0.82368 0.3085 0.59817 0.0
C1288 C 0.81409 0.30723 0.62833 0.0
H1289 H 0.82176 0.32905 0.55563 0.0
H1290 H 0.84253 0.29868 0.59201 0.0
C1291 C 0.78871 0.31925 0.63491 0.0
C1292 C 0.54936 0.15092 0.43748 0.0
C1293 C 0.51642 0.13839 0.4276 0.0
H1294 H 0.59011 0.15183 0.47075 0.0
C1295 C 0.49866 0.11954 0.44662 0.0
H1296 H 0.56368 0.16544 0.42326 0.0
C1297 C 0.51382 0.11134 0.47359 0.0
C1298 C 0.54703 0.1219 0.48207 0.0
H1299 H 0.47321 0.10953 0.4396 0.0
H1300 H 0.49956 0.09583 0.48705 0.0
C1301 C 0.56453 0.14273 0.46446 0.0
C1302 C 0.84931 0.7839 0.15984 0.0
C1303 C 0.82584 0.7881 0.13677 0.0
H1304 H 0.86903 0.79006 0.20965 0.0
C1305 C 0.80469 0.80436 0.14754 0.0
H1306 H 0.86609 0.77159 0.15255 0.0
C1307 C 0.80645 0.81522 0.18075 0.0
C1308 C 0.82918 0.80969 0.20382 0.0
H1309 H 0.78625 0.80792 0.13041 0.0
H1310 H 0.78939 0.82696 0.18838 0.0
C1311 C 0.85089 0.7944 0.19277 0.0
C1312 C 0.11201 0.11232 0.72634 0.0
C1313 C 0.11627 0.08561 0.73863 0.0
H1314 H 0.09955 0.13141 0.68447 0.0
C1315 C 0.10892 0.05648 0.71721 0.0
H1316 H 0.11763 0.13517 0.74215 0.0
C1317 C 0.09864 0.05431 0.68418 0.0
C1318 C 0.09552 0.08125 0.67158 0.0
H1319 H 0.112 0.03544 0.72581 0.0
H1320 H 0.09393 0.03156 0.66842 0.0
C1321 C 0.10179 0.11018 0.6932 0.0
C1322 C 0.77427 0.40125 0.42888 0.0
C1323 C 0.76334 0.38299 0.45182 0.0
H1324 H 0.79172 0.4019 0.38412 0.0
C1325 C 0.75883 0.35002 0.44533 0.0
H1326 H 0.77813 0.42674 0.43335 0.0
C1327 C 0.76749 0.33598 0.4177 0.0
C1328 C 0.78026 0.35454 0.39573 0.0
H1329 H 0.75063 0.33532 0.46262 0.0
H1330 H 0.76485 0.31069 0.41396 0.0
C1331 C 0.78239 0.38708 0.4009 0.0
C1332 C 0.57552 0.09237 0.29691 0.0
C1333 C 0.56434 0.11894 0.29441 0.0
H1334 H 0.59493 0.05808 0.27279 0.0
C1335 C 0.573 0.13699 0.27068 0.0
H1336 H 0.56969 0.0784 0.31544 0.0
C1337 C 0.58782 0.12549 0.24657 0.0
C1338 C 0.59394 0.09595 0.24609 0.0
H1339 H 0.56515 0.15786 0.26853 0.0
H1340 H 0.59091 0.13761 0.22626 0.0
C1341 C 0.59025 0.08084 0.27271 0.0
C1342 C 0.79441 0.74399 0.92355 0.0
C1343 C 0.81358 0.76478 0.95125 0.0
H1344 H 0.7794 0.73581 0.87227 0.0
C1345 C 0.83356 0.79394 0.94738 0.0
H1346 H 0.77881 0.72126 0.92556 0.0
C1347 C 0.83414 0.80218 0.91664 0.0
C1348 C 0.81456 0.78159 0.88898 0.0
H1349 H 0.84874 0.81043 0.96811 0.0
H1350 H 0.84957 0.82501 0.91468 0.0
C1351 C 0.79479 0.75232 0.8929 0.0
C1352 C 0.86194 0.12388 0.01877 0.0
C1353 C 0.84809 0.12478 0.04669 0.0
H1354 H 0.89437 0.10655 0.99332 0.0
C1355 C 0.85382 0.10558 0.06903 0.0
H1356 H 0.85776 0.13834 1.00108 0.0
C1357 C 0.87449 0.08718 0.06445 0.0
C1358 C 0.88983 0.08769 0.03748 0.0
H1359 H 0.84314 0.10552 0.09059 0.0
H1360 H 0.87928 0.07333 0.08254 0.0
C1361 C 0.88266 0.10548 0.01419 0.0
C1362 C 0.43327 0.50412 0.07759 0.0
C1363 C 0.43173 0.47296 0.08211 0.0
H1364 H 0.46226 0.54878 0.07038 0.0
C1365 C 0.45957 0.46354 0.08448 0.0
H1366 H 0.41212 0.51202 0.07552 0.0
C1367 C 0.4883 0.48466 0.08175 0.0
C1368 C 0.48969 0.51553 0.07617 0.0
H1369 H 0.45908 0.43967 0.08787 0.0
H1370 H 0.50928 0.47647 0.08325 0.0
C1371 C 0.46193 0.52514 0.07444 0.0
C1372 C 0.44271 0.65321 0.815 0.0
C1373 C 0.43767 0.62265 0.82253 0.0
H1374 H 0.42446 0.6931 0.81243 0.0
C1375 C 0.41039 0.60951 0.83523 0.0
H1376 H 0.46348 0.6639 0.80512 0.0
C1377 C 0.38814 0.62616 0.83949 0.0
C1378 C 0.39266 0.65638 0.83119 0.0
H1379 H 0.4059 0.58604 0.84143 0.0
H1380 H 0.36728 0.61528 0.84915 0.0
C1381 C 0.42041 0.66995 0.81932 0.0
C1382 C 0.18692 0.59588 0.55163 0.0
C1383 C 0.19467 0.61908 0.53243 0.0
H1384 H 0.15007 0.56384 0.56837 0.0
C1385 C 0.17032 0.62664 0.51349 0.0
H1386 H 0.20528 0.58961 0.56639 0.0
C1387 C 0.13865 0.61219 0.51489 0.0
C1388 C 0.13093 0.58972 0.53496 0.0
H1389 H 0.17573 0.64447 0.49842 0.0
H1390 H 0.12031 0.61892 0.50061 0.0
C1391 C 0.15531 0.58119 0.55276 0.0
C1392 C 0.77687 0.04134 0.85794 0.0
C1393 C 0.78044 0.0582 0.83241 0.0
H1394 H 0.79059 1.00643 0.88183 0.0
C1395 C 0.80403 0.0559 0.81385 0.0
H1396 H 0.75894 0.04286 0.87269 0.0
C1397 C 0.82235 0.03548 0.8193 0.0
C1398 C 0.81726 1.01683 0.84328 0.0
H1399 H 0.80761 0.06906 0.79432 0.0
H1400 H 0.83962 0.03331 0.80388 0.0
C1401 C 0.79514 1.02071 0.86331 0.0
C1402 C 0.79525 0.99859 0.54176 0.0
C1403 C 0.78025 0.96687 0.54344 0.0
H1404 H 0.78983 0.04394 0.53566 0.0
C1405 C 0.747 0.95602 0.53786 0.0
H1406 H 0.82089 1.00766 0.54597 0.0
C1407 C 0.7291 0.97677 0.53141 0.0
C1408 C 0.74413 1.00883 0.53066 0.0
H1409 H 0.73483 0.9316 0.53873 0.0
H1410 H 0.70348 0.96774 0.52724 0.0
C1411 C 0.77742 1.01936 0.53555 0.0
C1412 C 0.40072 0.47027 0.78027 0.0
C1413 C 0.43362 0.47487 0.7876 0.0
H1414 H 0.35411 0.43954 0.77907 0.0
C1415 C 0.44469 0.45055 0.79813 0.0
H1416 H 0.3915 0.48869 0.77219 0.0
C1417 C 0.42336 0.42271 0.8025 0.0
C1418 C 0.39045 0.41844 0.79621 0.0
H1419 H 0.46988 0.45343 0.80406 0.0
H1420 H 0.43278 0.40466 0.81117 0.0
C1421 C 0.3793 0.44222 0.78438 0.0
C1422 C 0.30916 0.71755 0.31739 0.0
C1423 C 0.28478 0.71034 0.33552 0.0
H1424 H 0.34237 0.75386 0.3012 0.0
C1425 C 0.27566 0.73508 0.35247 0.0
H1426 H 0.31657 0.69886 0.3041 0.0
C1427 C 0.2901 0.76658 0.35048 0.0
C1428 C 0.31412 0.77375 0.33185 0.0
H1429 H 0.25679 0.73008 0.36655 0.0
H1430 H 0.28237 0.78523 0.36339 0.0
C1431 C 0.32386 0.74901 0.31573 0.0
C1432 C 0.54279 0.71266 0.5192 0.0
C1433 C 0.56303 0.74307 0.53421 0.0
H1434 H 0.53164 0.6617 0.51482 0.0
C1435 C 0.58838 0.74349 0.5583 0.0
H1436 H 0.52305 0.71075 0.50047 0.0
C1437 C 0.59344 0.71496 0.56661 0.0
C1438 C 0.57342 0.6845 0.55126 0.0
H1439 H 0.6048 0.76603 0.5705 0.0
H1440 H 0.6135 0.71686 0.58494 0.0
C1441 C 0.54781 0.68417 0.5275 0.0
C1442 C 0.74971 0.36864 0.70013 0.0
C1443 C 0.72145 0.37153 0.71043 0.0
H1444 H 0.79676 0.36436 0.71331 0.0
C1445 C 0.72005 0.37289 0.74353 0.0
H1446 H 0.75176 0.36749 0.67492 0.0
C1447 C 0.74572 0.37111 0.76553 0.0
C1448 C 0.77394 0.36789 0.75538 0.0
H1449 H 0.69881 0.37504 0.75257 0.0
H1450 H 0.74325 0.37211 0.79067 0.0
C1451 C 0.77558 0.36683 0.72226 0.0
C1452 C 0.08946 0.45219 0.02695 0.0
C1453 C 0.07147 0.43021 0.04338 0.0
H1454 H 0.10792 0.50068 0.02174 0.0
C1455 C 0.05869 0.44288 0.06924 0.0
H1456 H 0.09961 0.44382 1.00676 0.0
C1457 C 0.06387 0.47622 0.07824 0.0
C1458 C 0.08182 0.49814 0.06157 0.0
H1459 H 0.04455 0.42702 0.08249 0.0
H1460 H 0.05366 0.48481 0.09828 0.0
C1461 C 0.09436 0.48524 0.03569 0.0
C1462 C 0.07817 0.85586 0.24063 0.0
C1463 C 0.07104 0.85854 0.20814 0.0
H1464 H 0.06026 0.8439 0.2831 0.0
C1465 C 0.03915 0.85246 0.19402 0.0
H1466 H 0.10251 0.86013 0.25213 0.0
C1467 C 1.01487 0.8435 0.21188 0.0
C1468 C 1.02185 0.8401 0.24424 0.0
H1469 H 1.0329 0.85439 0.16904 0.0
H1470 H 0.9906 0.83937 0.20027 0.0
C1471 C 0.05388 0.84663 0.25842 0.0
C1472 C 0.56923 0.37441 0.18332 0.0
C1473 C 0.55414 0.34273 0.16818 0.0
H1474 H 0.5898 0.42229 0.17754 0.0
C1475 C 0.54736 0.33554 0.13428 0.0
H1476 H 0.57499 0.38073 0.20939 0.0
C1477 C 0.5558 0.35942 0.11594 0.0
C1478 C 0.57121 0.39112 0.13105 0.0
H1479 H 0.53578 0.31136 0.12186 0.0
H1480 H 0.55 0.35306 0.08988 0.0
C1481 C 0.57765 0.39828 0.16501 0.0
C1482 C 0.95338 0.30187 0.34172 0.0
C1483 C 0.97578 0.33037 0.33927 0.0
H1484 H 0.90441 0.2762 0.33937 0.0
C1485 C 0.96375 0.35548 0.33187 0.0
H1486 H 0.96136 0.28196 0.3476 0.0
C1487 C 0.93074 0.35231 0.32752 0.0
C1488 C 0.90835 0.32384 0.33022 0.0
H1489 H 0.97996 0.37796 0.33009 0.0
H1490 H 0.92278 0.37237 0.3221 0.0
C1491 C 0.92044 0.29861 0.33713 0.0
C1492 C 0.04422 0.6603 0.66592 0.0
C1493 C 1.02599 0.68027 0.65694 0.0
H1494 H 0.06122 0.62039 0.65119 0.0
C1495 C 1.0093 0.67338 0.62507 0.0
H1496 H 0.05764 0.66498 0.69012 0.0
C1497 C 1.01079 0.6473 0.60283 0.0
C1498 C 1.02959 0.62771 0.61158 0.0
H1499 H 0.99512 0.68828 0.61721 0.0
H1500 H 0.99762 0.64286 0.57856 0.0
C1501 C 0.04633 0.6347 0.64348 0.0
C1502 C 0.65857 0.81933 0.80653 0.0
C1503 C 0.65843 0.84404 0.83145 0.0
H1504 H 0.6859 0.79487 0.7795 0.0
C1505 C 0.68851 0.86381 0.84771 0.0
H1506 H 0.63628 0.80331 0.79337 0.0
C1507 C 0.71726 0.85887 0.83981 0.0
C1508 C 0.71747 0.83393 0.81516 0.0
H1509 H 0.68993 0.88302 0.86714 0.0
H1510 H 0.73949 0.87457 0.85346 0.0
C1511 C 0.68735 0.81444 0.79855 0.0
C1512 C 0.51365 0.57752 0.68646 0.0
C1513 C 0.53449 0.58174 0.71567 0.0
H1514 H 0.50835 0.57852 0.63578 0.0
C1515 C 0.56731 0.59129 0.71549 0.0
H1516 H 0.48822 0.57027 0.68567 0.0
C1517 C 0.57893 0.59603 0.68672 0.0
C1518 C 0.55803 0.59149 0.65739 0.0
H1519 H 0.58404 0.59481 0.73752 0.0
H1520 H 0.60435 0.60298 0.68747 0.0
C1521 C 0.52523 0.58237 0.65777 0.0
C1522 C 0.83506 0.2806 1.01175 0.0
C1523 C 0.8119 0.27192 0.03096 0.0
H1524 H 0.8546 0.31291 0.98186 0.0
C1525 C 0.79284 0.29185 0.03804 0.0
H1526 H 0.85013 0.26567 1.0061 0.0
C1527 C 0.79579 0.31925 0.02479 0.0
C1528 C 0.81766 0.32705 1.00398 0.0
H1529 H 0.77512 0.28592 0.05329 0.0
H1530 H 0.78026 0.33378 0.03 0.0
C1531 C 0.83783 0.30787 0.99822 0.0
C1532 C 0.15416 0.57763 0.22676 0.0
C1533 C 0.18739 0.58954 0.23287 0.0
H1534 H 0.11132 0.56976 0.1934 0.0
C1535 C 0.20329 0.59964 0.208 0.0
H1536 H 0.14126 0.56972 0.24552 0.0
C1537 C 0.18611 0.59941 0.178 0.0
C1538 C 0.15277 0.58961 0.17269 0.0
H1539 H 0.22891 0.60894 0.21212 0.0
H1540 H 0.19889 0.60839 0.15957 0.0
C1541 C 0.13699 0.57793 0.19702 0.0
C1542 C 0.80507 0.85542 0.45049 0.0
C1543 C 0.83307 0.86297 0.47325 0.0
H1544 H 0.78353 0.84275 0.40067 0.0
C1545 C 0.86138 0.86172 0.46216 0.0
H1546 H 0.78288 0.85627 0.45814 0.0
C1547 C 0.86186 0.85413 0.42902 0.0
C1548 C 0.83402 0.84757 0.40616 0.0
H1549 H 0.88342 0.86757 0.47902 0.0
H1550 H 0.8842 0.85409 0.42132 0.0
C1551 C 0.80552 0.84778 0.41743 0.0
C1552 C 0.55203 0.59914 0.91646 0.0
C1553 C 0.54401 0.57078 0.89381 0.0
H1554 H 0.56515 0.62148 0.9661 0.0
C1555 C 0.54496 0.54253 0.90497 0.0
H1556 H 0.55143 0.62128 0.90879 0.0
C1557 C 0.55265 0.54251 0.93811 0.0
C1558 C 0.55962 0.57076 0.96086 0.0
H1559 H 0.53873 0.5202 0.88818 0.0
H1560 H 0.55243 0.52025 0.9459 0.0
C1561 C 0.55976 0.59915 0.94946 0.0
C1562 C 0.80019 0.21052 0.18638 0.0
C1563 C 0.81793 0.2257 0.16505 0.0
H1564 H 0.78464 0.21524 0.23181 0.0
C1565 C 0.83636 0.25751 0.17487 0.0
H1566 H 0.78588 0.18596 0.17941 0.0
C1567 C 0.83535 0.27451 0.20477 0.0
C1568 C 0.81606 0.25984 0.22532 0.0
H1569 H 0.85023 0.26977 0.15881 0.0
H1570 H 0.84889 0.29934 0.21129 0.0
C1571 C 0.79934 0.22741 0.2163 0.0
C1572 C 0.15652 0.63692 0.40458 0.0
C1573 C 0.15535 0.63371 0.37114 0.0
H1574 H 0.1307 0.63926 0.44353 0.0
C1575 C 0.12746 0.63352 0.3512 0.0
H1576 H 0.17783 0.63732 0.42043 0.0
C1577 C 0.10047 0.63456 0.36438 0.0
C1578 C 0.10123 0.63635 0.39769 0.0
H1579 H 0.12606 0.63115 0.32528 0.0
H1580 H 0.07874 0.63287 0.34849 0.0
C1581 C 0.12968 0.63839 0.41779 0.0
C1582 C 0.81984 0.892 0.6808 0.0
C1583 C 0.81685 0.871 0.65168 0.0
H1584 H 0.81772 0.89754 0.73136 0.0
C1585 C 0.80777 0.83817 0.65176 0.0
H1586 H 0.8267 0.91745 0.68166 0.0
C1587 C 0.80241 0.82668 0.68036 0.0
C1588 C 0.80607 0.84772 0.70968 0.0
H1589 H 0.80515 0.82134 0.62978 0.0
H1590 H 0.796 0.80124 0.67955 0.0
C1591 C 0.81458 0.88055 0.70938 0.0
C1592 C 0.72422 0.49543 0.58891 0.0
C1593 C 0.75271 0.48943 0.60035 0.0
H1594 H 0.69674 0.52843 0.59145 0.0
C1595 C 0.77415 0.51119 0.62612 0.0
H1596 H 0.70738 0.47925 0.56901 0.0
C1597 C 0.76795 0.53928 0.63901 0.0
C1598 C 0.74 0.54566 0.62665 0.0
H1599 H 0.79642 0.50725 0.63533 0.0
H1600 H 0.78531 0.55641 0.65782 0.0
C1601 C 0.71802 0.52339 0.6019 0.0
C1602 C 0.21895 0.14865 0.5641 0.0
C1603 C 0.21937 0.17754 0.55388 0.0
H1604 H 0.1908 0.10552 0.57533 0.0
C1605 C 0.19069 0.18492 0.54689 0.0
H1606 H 0.24075 0.14234 0.56967 0.0
C1607 C 0.16215 0.16389 0.55011 0.0
C1608 C 0.16162 0.13497 0.56041 0.0
H1609 H 0.19026 0.20699 0.53897 0.0
H1610 H 0.14049 0.17043 0.54453 0.0
C1611 C 0.19035 0.12755 0.56734 0.0
C1612 C 0.20169 0.99627 0.80731 0.0
C1613 C 0.2182 0.02874 0.81571 0.0
H1614 H 0.20406 0.94918 0.79105 0.0
C1615 C 0.25091 0.03849 0.81509 0.0
H1616 H 0.17644 0.9881 0.8074 0.0
C1617 C 0.26671 1.01626 0.8057 0.0
C1618 C 0.25016 0.9838 0.79686 0.0
H1619 H 0.26426 0.06339 0.82142 0.0
H1620 H 0.29194 0.02448 0.8055 0.0
C1621 C 0.21752 0.97401 0.79801 0.0
C1622 C 0.41143 0.96026 0.01552 0.0
C1623 C 0.39453 0.96421 0.04076 0.0
H1624 H 0.45526 0.97468 0.99853 0.0
C1625 C 0.41063 0.98336 0.07055 0.0
H1626 H 0.39978 0.94529 0.99247 0.0
C1627 C 0.44277 1.00018 0.07412 0.0
C1628 C 0.45878 0.99803 0.04783 0.0
H1629 H 0.39807 0.98659 0.09045 0.0
H1630 H 0.45442 1.01627 0.09655 0.0
C1631 C 0.4432 0.97707 0.019 0.0
C1632 C 0.8589 0.63431 0.85122 0.0
C1633 C 0.88891 0.65063 0.84549 0.0
H1634 H 0.80849 0.62502 0.83885 0.0
C1635 C 0.89103 0.67156 0.82346 0.0
H1636 H 0.85662 0.6179 0.868 0.0
C1637 C 0.8636 0.67507 0.80643 0.0
C1638 C 0.83356 0.65792 0.8113 0.0
H1639 H 0.91382 0.68432 0.81845 0.0
H1640 H 0.86587 0.69128 0.78944 0.0
C1641 C 0.83141 0.63809 0.83438 0.0
C1642 C 0.91226 0.70413 0.06441 0.0
C1643 C 0.8798 0.68768 0.05721 0.0
H1644 H 0.95928 0.70233 0.08084 0.0
C1645 C 0.87007 0.6554 0.05967 0.0
H1646 H 0.92044 0.72908 0.06296 0.0
C1647 C 0.89227 0.64001 0.06974 0.0
C1648 C 0.92473 0.65657 0.0777 0.0
H1649 H 0.8452 0.64206 0.05421 0.0
H1650 H 0.88397 0.61509 0.07125 0.0
C1651 C 0.9345 0.68875 0.07461 0.0
C1652 C 0.26075 0.18591 0.815 0.0
C1653 C 0.23206 0.1847 0.82625 0.0
H1654 H 0.30276 0.215 0.80258 0.0
C1655 C 0.22402 0.213 0.83419 0.0
H1656 H 0.26756 0.16442 0.80867 0.0
C1657 C 0.24414 0.24195 0.83068 0.0
C1658 C 0.27275 0.24322 0.81913 0.0
H1659 H 0.20206 0.21279 0.8429 0.0
H1660 H 0.23708 0.26332 0.83688 0.0
C1661 C 0.28091 0.21488 0.81147 0.0
C1662 C 0.43473 1.00297 0.29619 0.0
C1663 C 0.43228 0.02644 0.32083 0.0
H1664 H 0.42265 0.9531 0.27703 0.0
C1665 C 0.41495 1.01744 0.34507 0.0
H1666 H 0.448 1.0094 0.27721 0.0
C1667 C 0.40096 0.98552 0.34522 0.0
C1668 C 0.40369 0.9619 0.32093 0.0
H1669 H 0.41272 0.03503 0.36439 0.0
H1670 H 0.38798 0.97939 0.36449 0.0
C1671 C 0.4203 0.97086 0.2961 0.0
C1672 C 0.64465 0.48079 0.62192 0.0
C1673 C 0.62602 0.44978 0.60693 0.0
H1674 H 0.65273 0.53136 0.62548 0.0
C1675 C 0.60037 0.44775 0.58242 0.0
H1676 H 0.66443 0.48391 0.64103 0.0
C1677 C 0.59354 0.47542 0.57367 0.0
C1678 C 0.61237 0.50643 0.58861 0.0
H1679 H 0.58505 0.42463 0.57034 0.0
H1680 H 0.57341 0.47246 0.55501 0.0
C1681 C 0.63803 0.50831 0.61287 0.0
C1682 C 0.44886 0.84032 0.44487 0.0
C1683 C 0.47556 0.83398 0.43376 0.0
H1684 H 0.40552 0.8528 0.43343 0.0
C1685 C 0.47829 0.8354 0.4013 0.0
H1686 H 0.44602 0.83967 0.46974 0.0
C1687 C 0.45546 0.84333 0.38069 0.0
C1688 C 0.42884 0.84994 0.39166 0.0
H1689 H 0.49851 0.83087 0.39177 0.0
H1690 H 0.45879 0.84423 0.35598 0.0
C1691 C 0.4257 0.84802 0.42404 0.0
C1692 C 0.10066 0.74976 0.12418 0.0
C1693 C 0.12706 0.77169 0.11677 0.0
H1694 H 0.07618 0.70118 0.1249 0.0
C1695 C 0.14972 0.75905 0.10348 0.0
H1696 H 0.08265 0.75818 0.13457 0.0
C1697 C 0.14618 0.72583 0.09824 0.0
C1698 C 0.11976 0.70396 0.10591 0.0
H1699 H 0.17056 0.7749 0.09768 0.0
H1700 H 0.16426 0.71731 0.08816 0.0
C1701 C 0.09699 0.71674 0.11873 0.0
C1702 C 0.14918 0.35554 0.95044 0.0
C1703 C 0.11811 0.33531 0.94053 0.0
H1704 H 0.194 0.3759 0.93674 0.0
C1705 C 0.10867 0.31943 0.90829 0.0
H1706 H 0.15713 0.36817 0.97511 0.0
C1707 C 0.12973 0.32389 0.88633 0.0
C1708 C 0.16067 0.3445 0.89604 0.0
H1709 H 0.08484 0.3038 0.89987 0.0
H1710 H 0.12154 0.31167 0.86154 0.0
C1711 C 0.1702 0.36017 0.9284 0.0
C1712 C 0.5484 0.75445 0.92273 0.0
C1713 C 0.56979 0.78512 0.93143 0.0
H1714 H 0.52767 0.71054 0.93779 0.0
C1715 C 0.58769 0.79457 0.96277 0.0
H1716 H 0.53421 0.74649 0.8988 0.0
C1717 C 0.58404 0.77396 0.98504 0.0
C1718 C 0.56211 0.74356 0.97662 0.0
H1719 H 0.60432 0.81808 0.97023 0.0
H1720 H 0.59784 0.78213 1.00913 0.0
C1721 C 0.54448 0.73396 0.94513 0.0
C1722 C 0.14504 0.75837 0.77019 0.0
C1723 C 0.13298 0.78054 0.75574 0.0
H1724 H 0.18625 0.7441 0.78715 0.0
C1725 C 0.15536 0.8064 0.74802 0.0
H1726 H 0.12884 0.73797 0.7763 0.0
C1727 C 0.18828 0.81003 0.75434 0.0
C1728 C 0.2005 0.78772 0.7683 0.0
H1729 H 0.14739 0.82402 0.73677 0.0
H1730 H 0.20421 0.83041 0.74788 0.0
C1731 C 0.17816 0.76181 0.77621 0.0
C1732 C 0.06757 0.42613 0.46993 0.0
C1733 C 0.06906 0.42799 0.43732 0.0
H1734 H 0.05918 0.44718 0.51528 0.0
C1735 C 0.06329 0.4546 0.4259 0.0
H1736 H 0.0717 0.40599 0.47966 0.0
C1737 C 0.056 0.4785 0.44655 0.0
C1738 C 0.05408 0.47632 0.47912 0.0
H1739 H 0.06401 0.45677 0.40091 0.0
H1740 H 0.05161 0.49856 0.43688 0.0
C1741 C 0.06017 0.44981 0.49043 0.0
C1742 C 0.4568 0.31163 0.28135 0.0
C1743 C 0.45645 0.28173 0.26423 0.0
H1744 H 0.43047 0.34129 0.30271 0.0
C1745 C 0.42681 0.2581 0.25688 0.0
H1746 H 0.47877 0.33071 0.28747 0.0
C1747 C 0.39892 0.26418 0.26602 0.0
C1748 C 0.39905 0.29421 0.28252 0.0
H1749 H 0.42502 0.23476 0.24374 0.0
H1750 H 0.37692 0.24534 0.25963 0.0
C1751 C 0.42877 0.31778 0.29009 0.0
C1752 C 0.61177 0.57267 0.42038 0.0
C1753 C 0.6363 0.59812 0.41545 0.0
H1754 H 0.58545 0.55077 0.45435 0.0
C1755 C 0.65323 0.62158 0.44224 0.0
H1756 H 0.5984 0.5541 0.40031 0.0
C1757 C 0.64589 0.6197 0.47316 0.0
C1758 C 0.62153 0.59416 0.47824 0.0
H1759 H 0.67235 0.64146 0.43937 0.0
H1760 H 0.65943 0.6383 0.49312 0.0
C1761 C 0.60452 0.57066 0.45142 0.0
C1762 C 0.28763 0.86132 0.1036 0.0
C1763 C 0.29838 0.85905 0.07397 0.0
H1764 H 0.29588 0.85583 0.15282 0.0
C1765 C 0.32077 0.84231 0.06905 0.0
H1766 H 0.2701 0.8737 0.10791 0.0
C1767 C 0.33559 0.83221 0.09485 0.0
C1768 C 0.32795 0.83868 0.12559 0.0
H1769 H 0.32917 0.83988 0.04622 0.0
H1770 H 0.35503 0.82228 0.09147 0.0
C1771 C 0.30243 0.85124 0.12931 0.0
C1772 C 0.99904 0.62281 0.98305 0.0
C1773 C 1.01273 0.63964 0.96035 0.0
H1774 H 1.00676 0.60062 0.02343 0.0
C1775 C 0.04588 0.65154 0.96434 0.0
H1776 H 0.97352 0.61357 0.98067 0.0
C1777 C 0.06506 0.64397 0.98888 0.0
C1778 C 0.05123 0.62438 1.00955 0.0
H1779 H 0.05702 0.66457 0.9471 0.0
H1780 H 0.09058 0.65211 0.99061 0.0
C1781 C 1.01812 0.61503 1.00728 0.0
C1782 C 0.29047 0.29683 0.65215 0.0
C1783 C 0.31703 0.2933 0.63873 0.0
H1784 H 0.27187 0.30775 0.69527 0.0
C1785 C 0.34632 0.30045 0.65939 0.0
H1786 H 0.2675 0.29131 0.63694 0.0
C1787 C 0.34883 0.30977 0.69272 0.0
C1788 C 0.32207 0.31209 0.70644 0.0
H1789 H 0.36724 0.29793 0.64991 0.0
H1790 H 0.37173 0.31436 0.7078 0.0
C1791 C 0.29295 0.30607 0.68564 0.0
C1792 C 0.62787 0.565 0.20703 0.0
C1793 C 0.62034 0.58631 0.23034 0.0
H1794 H 0.62474 0.54683 0.15718 0.0
C1795 C 0.60167 0.60538 0.21988 0.0
H1796 H 0.64206 0.54983 0.21412 0.0
C1797 C 0.59162 0.60372 0.18667 0.0
C1798 C 0.60022 0.58308 0.1634 0.0
H1799 H 0.59557 0.62213 0.23725 0.0
H1800 H 0.5778 0.61907 0.17925 0.0
C1801 C 0.61802 0.56342 0.17417 0.0
C1802 C 0.25588 0.85612 0.91774 0.0
C1803 C 0.26874 0.88933 0.92481 0.0
H1804 H 0.25298 0.81281 0.88649 0.0
C1805 C 0.28499 0.90481 0.90263 0.0
H1806 H 0.24324 0.84355 0.93442 0.0
C1807 C 0.29098 0.88722 0.87551 0.0
C1808 C 0.2807 0.85384 0.87001 0.0
H1809 H 0.29502 0.9304 0.90737 0.0
H1810 H 0.3048 0.89982 0.85962 0.0
C1811 C 0.26183 0.83849 0.89052 0.0
C1812 C 0.99631 0.60375 0.76488 0.0
C1813 C 1.01626 0.61227 0.79492 0.0
H1814 H 0.98739 0.57932 0.71672 0.0
C1815 C 0.04583 0.60613 0.79787 0.0
H1816 H 0.97299 0.6074 0.7621 0.0
C1817 C 0.05498 0.59096 0.77108 0.0
C1818 C 0.03418 0.58082 0.74126 0.0
H1819 H 0.06142 0.61222 0.82103 0.0
H1820 H 0.07804 0.58679 0.77395 0.0
C1821 C 1.00477 0.58758 0.73866 0.0
C1822 C 0.33017 0.29724 0.45053 0.0
C1823 C 0.30723 0.27017 0.45488 0.0
H1824 H 0.35012 0.3255 0.41704 0.0
C1825 C 0.28621 0.25067 0.42757 0.0
H1826 H 0.34683 0.31264 0.47102 0.0
C1827 C 0.28794 0.25807 0.39673 0.0
C1828 C 0.31103 0.28496 0.39224 0.0
H1829 H 0.26827 0.22958 0.43001 0.0
H1830 H 0.27121 0.24257 0.37635 0.0
C1831 C 0.33219 0.30445 0.41954 0.0
C1832 C 0.34469 0.6014 0.49612 0.0
C1833 C 0.35383 0.63313 0.51233 0.0
H1834 H 0.36003 0.5612 0.47858 0.0
C1835 C 0.38617 0.6495 0.52142 0.0
H1836 H 0.31986 0.58831 0.48865 0.0
C1837 C 0.40901 0.63405 0.5158 0.0
C1838 C 0.39999 0.6019 0.50087 0.0
H1839 H 0.39388 0.67399 0.5339 0.0
H1840 H 0.43373 0.64695 0.52454 0.0
C1841 C 0.36762 0.58588 0.49046 0.0
C1842 C 0.93378 1.00311 0.5939 0.0
C1843 C 0.92853 0.97022 0.58433 0.0
H1844 H 0.9658 0.0498 0.59896 0.0
C1845 C 0.95307 0.95913 0.57391 0.0
H1846 H 0.91525 1.01235 0.60201 0.0
C1847 C 0.98182 0.98055 0.57181 0.0
C1848 C 0.98674 1.01353 0.58029 0.0
H1849 H 0.94971 0.93394 0.56633 0.0
H1850 H 1.00004 0.9712 0.56309 0.0
C1851 C 0.96268 0.02457 0.59205 0.0
C1852 C 0.90694 0.11604 0.2942 0.0
C1853 C 0.93686 0.12695 0.31412 0.0
H1854 H 0.86046 0.12164 0.28393 0.0
C1855 C 0.94309 0.1534 0.33895 0.0
H1856 H 0.90143 0.09563 0.27493 0.0
C1857 C 0.91948 0.16813 0.34428 0.0
C1858 C 0.88935 0.15684 0.32467 0.0
H1859 H 0.96591 0.16222 0.35475 0.0
H1860 H 0.92478 0.18838 0.36369 0.0
C1861 C 0.88348 0.13092 0.29933 0.0
C1862 C 0.69167 0.10768 0.02717 0.0
C1863 C 0.70123 0.14084 0.03643 0.0
H1864 H 0.65311 0.065 0.01895 0.0
C1865 C 0.67838 0.15706 0.04038 0.0
H1866 H 0.70897 0.09474 0.02405 0.0
C1867 C 0.64648 0.14018 0.03683 0.0
C1868 C 0.63722 0.10687 0.03013 0.0
H1869 H 0.68533 0.18271 0.04736 0.0
H1870 H 0.62942 0.15311 0.04134 0.0
C1871 C 0.65985 0.09074 0.02442 0.0
C1872 C 0.30576 0.56315 0.37715 0.0
C1873 C 0.27346 0.55357 0.36337 0.0
H1874 H 0.34655 0.54833 0.39267 0.0
C1875 C 0.25665 0.5212 0.35729 0.0
H1876 H 0.3192 0.58804 0.38233 0.0
C1877 C 0.27224 0.4986 0.363 0.0
C1878 C 0.30497 0.50791 0.37505 0.0
H1879 H 0.2317 0.51316 0.34678 0.0
H1880 H 0.25892 0.47372 0.35623 0.0
C1881 C 0.32142 0.54046 0.38295 0.0
C1882 C 0.25633 0.46367 0.06614 0.0
C1883 C 0.28312 0.46483 0.05148 0.0
H1884 H 0.21932 0.48481 0.07463 0.0
C1885 C 0.2921 0.48784 0.03218 0.0
H1886 H 0.24896 0.44628 0.08125 0.0
C1887 C 0.27507 0.50974 0.02816 0.0
C1888 C 0.24869 0.50918 0.04343 0.0
H1889 H 0.31259 0.48922 0.02043 0.0
H1890 H 0.28261 0.52715 0.01312 0.0
C1891 C 0.23931 0.48568 0.06221 0.0
C1892 C 0.90851 0.97899 0.3149 0.0
C1893 C 0.93806 0.9815 0.30517 0.0
H1894 H 0.86457 0.9482 0.32135 0.0
C1895 C 0.94569 0.95366 0.29376 0.0
H1896 H 0.90191 1.00006 0.32373 0.0
C1897 C 0.92421 0.92386 0.29234 0.0
C1898 C 0.89468 0.92135 0.30228 0.0
H1899 H 0.96827 0.95488 0.28605 0.0
H1900 H 0.9309 0.90282 0.28366 0.0
C1901 C 0.88705 0.94926 0.31347 0.0
C1902 C 0.76782 0.21746 0.78896 0.0
C1903 C 0.76626 0.20349 0.81656 0.0
H1904 H 0.78452 0.25943 0.76976 0.0
C1905 C 0.78031 0.22215 0.84703 0.0
H1906 H 0.75712 0.20362 0.76516 0.0
C1907 C 0.79588 0.25444 0.84974 0.0
C1908 C 0.7978 0.26821 0.82196 0.0
H1909 H 0.77923 0.21185 0.86866 0.0
H1910 H 0.80684 0.26842 0.87341 0.0
C1911 C 0.78353 0.24946 0.79161 0.0
loop_
_geom_bond_atom_site_label_1
_geom_bond_atom_site_label_2
_geom_bond_distance
_geom_bond_site_symmetry_2
_ccdc_geom_bond_type
In0 O1 2.294 . S
In0 O2 2.326 . S
In0 O6 2.266 . S
In0 O7 2.326 1_455 S
In0 O8 2.266 . S
In0 O9 2.326 . S
In0 O11 2.294 . S
In0 O12 2.326 . S
O1 In0 2.294 . S
O1 C10 1.240 . S
O2 In0 2.326 . S
O2 C10 1.252 . S
C3 O6 1.252 1_655 S
C3 O7 1.260 . S
C4 O11 1.240 . S
C4 O12 1.252 . S
C5 O8 1.252 . S
C5 O9 1.260 . S
O6 In0 2.266 . S
O6 C3 1.252 1_455 S
O7 In0 2.326 1_655 S
O7 C3 1.260 . S
O8 In0 2.266 . S
O8 C5 1.252 . S
O9 In0 2.326 . S
O9 C5 1.260 . S
C10 O1 1.240 . S
C10 O2 1.252 . S
O11 In0 2.294 . S
O11 C4 1.240 . S
O12 In0 2.326 . S
O12 C4 1.252 . S
In13 O14 2.294 . S
In13 O15 2.326 . S
In13 O19 2.266 . S
In13 O20 2.326 . S
In13 O21 2.266 . S
In13 O22 2.326 1_455 S
In13 O24 2.294 . S
In13 O25 2.326 . S
O14 In13 2.294 . S
O14 C23 1.240 . S
O15 In13 2.326 . S
O15 C23 1.252 . S
C16 O19 1.252 . S
C16 O20 1.260 . S
C17 O24 1.240 . S
C17 O25 1.252 . S
C18 O21 1.252 1_655 S
C18 O22 1.260 . S
O19 In13 2.266 . S
O19 C16 1.252 . S
O20 In13 2.326 . S
O20 C16 1.260 . S
O21 In13 2.266 . S
O21 C18 1.252 1_455 S
O22 In13 2.326 1_655 S
O22 C18 1.260 . S
C23 O14 1.240 . S
C23 O15 1.252 . S
O24 In13 2.294 . S
O24 C17 1.240 . S
O25 In13 2.326 . S
O25 C17 1.252 . S
In26 O27 2.294 . S
In26 O28 2.326 . S
In26 O32 2.266 . S
In26 O33 2.326 . S
In26 O34 2.266 . S
In26 O35 2.326 . S
In26 O37 2.294 . S
In26 O38 2.326 . S
O27 In26 2.294 . S
O27 C36 1.240 . S
O28 In26 2.326 . S
O28 C36 1.252 . S
C29 O32 1.252 . S
C29 O33 1.260 . S
C30 O37 1.240 . S
C30 O38 1.252 . S
C31 O34 1.252 . S
C31 O35 1.260 . S
O32 In26 2.266 . S
O32 C29 1.252 . S
O33 In26 2.326 . S
O33 C29 1.260 . S
O34 In26 2.266 . S
O34 C31 1.252 . S
O35 In26 2.326 . S
O35 C31 1.260 . S
C36 O27 1.240 . S
C36 O28 1.252 . S
O37 In26 2.294 . S
O37 C30 1.240 . S
O38 In26 2.326 . S
O38 C30 1.252 . S
In39 O40 2.294 . S
In39 O41 2.326 . S
In39 O45 2.266 . S
In39 O46 2.326 . S
In39 O47 2.266 . S
In39 O48 2.326 . S
In39 O50 2.294 . S
In39 O51 2.326 . S
O40 In39 2.294 . S
O40 C49 1.240 . S
O41 In39 2.326 . S
O41 C49 1.252 . S
C42 O45 1.252 . S
C42 O46 1.260 . S
C43 O50 1.240 . S
C43 O51 1.252 . S
C44 O47 1.252 . S
C44 O48 1.260 . S
O45 In39 2.266 . S
O45 C42 1.252 . S
O46 In39 2.326 . S
O46 C42 1.260 . S
O47 In39 2.266 . S
O47 C44 1.252 . S
O48 In39 2.326 . S
O48 C44 1.260 . S
C49 O40 1.240 . S
C49 O41 1.252 . S
O50 In39 2.294 . S
O50 C43 1.240 . S
O51 In39 2.326 . S
O51 C43 1.252 . S
In52 O53 2.294 . S
In52 O54 2.326 . S
In52 O58 2.266 . S
In52 O59 2.326 . S
In52 O60 2.266 . S
In52 O61 2.326 . S
In52 O63 2.294 . S
In52 O64 2.326 . S
O53 In52 2.294 . S
O53 C62 1.240 . S
O54 In52 2.326 . S
O54 C62 1.252 . S
C55 O58 1.252 . S
C55 O59 1.260 . S
C56 O63 1.240 . S
C56 O64 1.252 . S
C57 O60 1.252 . S
C57 O61 1.260 . S
O58 In52 2.266 . S
O58 C55 1.252 . S
O59 In52 2.326 . S
O59 C55 1.260 . S
O60 In52 2.266 . S
O60 C57 1.252 . S
O61 In52 2.326 . S
O61 C57 1.260 . S
C62 O53 1.240 . S
C62 O54 1.252 . S
O63 In52 2.294 . S
O63 C56 1.240 . S
O64 In52 2.326 . S
O64 C56 1.252 . S
In65 O66 2.294 . S
In65 O67 2.326 . S
In65 O71 2.266 . S
In65 O72 2.326 . S
In65 O73 2.266 . S
In65 O74 2.326 . S
In65 O76 2.294 . S
In65 O77 2.326 . S
O66 In65 2.294 . S
O66 C75 1.240 . S
O67 In65 2.326 . S
O67 C75 1.252 . S
C68 O71 1.252 . S
C68 O72 1.260 . S
C69 O76 1.240 . S
C69 O77 1.252 . S
C70 O73 1.252 . S
C70 O74 1.260 . S
O71 In65 2.266 . S
O71 C68 1.252 . S
O72 In65 2.326 . S
O72 C68 1.260 . S
O73 In65 2.266 . S
O73 C70 1.252 . S
O74 In65 2.326 . S
O74 C70 1.260 . S
C75 O66 1.240 . S
C75 O67 1.252 . S
O76 In65 2.294 . S
O76 C69 1.240 . S
O77 In65 2.326 . S
O77 C69 1.252 . S
In78 O79 2.294 . S
In78 O80 2.326 . S
In78 O84 2.266 . S
In78 O85 2.326 . S
In78 O86 2.266 . S
In78 O87 2.326 . S
In78 O89 2.294 . S
In78 O90 2.326 . S
O79 In78 2.294 . S
O79 C88 1.240 . S
O80 In78 2.326 . S
O80 C88 1.252 . S
C81 O84 1.252 . S
C81 O85 1.260 . S
C82 O89 1.240 . S
C82 O90 1.252 . S
C83 O86 1.252 . S
C83 O87 1.260 . S
O84 In78 2.266 . S
O84 C81 1.252 . S
O85 In78 2.326 . S
O85 C81 1.260 . S
O86 In78 2.266 . S
O86 C83 1.252 . S
O87 In78 2.326 . S
O87 C83 1.260 . S
C88 O79 1.240 . S
C88 O80 1.252 . S
O89 In78 2.294 . S
O89 C82 1.240 . S
O90 In78 2.326 . S
O90 C82 1.252 . S
In91 O92 2.294 1_556 S
In91 O93 2.326 1_455 S
In91 O97 2.266 1_556 S
In91 O98 2.326 . S
In91 O99 2.266 1_455 S
In91 O100 2.326 1_455 S
In91 O102 2.294 . S
In91 O103 2.326 . S
O92 In91 2.294 1_554 S
O92 C101 1.240 . S
O93 In91 2.326 1_655 S
O93 C101 1.252 1_656 S
C94 O97 1.252 . S
C94 O98 1.260 1_554 S
C95 O102 1.240 . S
C95 O103 1.252 . S
C96 O99 1.252 . S
C96 O100 1.260 . S
O97 In91 2.266 1_554 S
O97 C94 1.252 . S
O98 In91 2.326 . S
O98 C94 1.260 1_556 S
O99 In91 2.266 1_655 S
O99 C96 1.252 . S
O100 In91 2.326 1_655 S
O100 C96 1.260 . S
C101 O92 1.240 . S
C101 O93 1.252 1_454 S
O102 In91 2.294 . S
O102 C95 1.240 . S
O103 In91 2.326 . S
O103 C95 1.252 . S
In104 O105 2.295 . S
In104 O106 2.328 1_545 S
In104 O110 2.264 . S
In104 O111 2.327 . S
In104 O112 2.262 1_545 S
In104 O113 2.318 1_545 S
In104 O115 2.300 . S
In104 O116 2.334 . S
O105 In104 2.295 . S
O105 C114 1.240 . S
O106 In104 2.328 1_565 S
O106 C114 1.252 1_565 S
C107 O110 1.252 . S
C107 O111 1.255 . S
C108 O115 1.240 . S
C108 O116 1.252 . S
C109 O112 1.252 . S
C109 O113 1.260 . S
O110 In104 2.264 . S
O110 C107 1.252 . S
O111 In104 2.327 . S
O111 C107 1.255 . S
O112 In104 2.262 1_565 S
O112 C109 1.252 . S
O113 In104 2.318 1_565 S
O113 C109 1.260 . S
C114 O105 1.240 . S
C114 O106 1.252 1_545 S
O115 In104 2.300 . S
O115 C108 1.240 . S
O116 In104 2.334 . S
O116 C108 1.252 . S
In117 O118 2.294 . S
In117 O119 2.326 . S
In117 O123 2.266 . S
In117 O124 2.326 . S
In117 O125 2.266 . S
In117 O126 2.326 . S
In117 O128 2.294 . S
In117 O129 2.326 . S
O118 In117 2.294 . S
O118 C127 1.240 . S
O119 In117 2.326 . S
O119 C127 1.252 . S
C120 O123 1.252 . S
C120 O124 1.260 . S
C121 O128 1.240 . S
C121 O129 1.252 . S
C122 O125 1.252 . S
C122 O126 1.260 . S
O123 In117 2.266 . S
O123 C120 1.252 . S
O124 In117 2.326 . S
O124 C120 1.260 . S
O125 In117 2.266 . S
O125 C122 1.252 . S
O126 In117 2.326 . S
O126 C122 1.260 . S
C127 O118 1.240 . S
C127 O119 1.252 . S
O128 In117 2.294 . S
O128 C121 1.240 . S
O129 In117 2.326 . S
O129 C121 1.252 . S
In130 O131 2.294 . S
In130 O132 2.326 . S
In130 O136 2.266 . S
In130 O137 2.326 . S
In130 O138 2.266 . S
In130 O139 2.326 . S
In130 O141 2.294 . S
In130 O142 2.326 . S
O131 In130 2.294 . S
O131 C140 1.240 . S
O132 In130 2.326 . S
O132 C140 1.252 . S
C133 O136 1.252 . S
C133 O137 1.260 . S
C134 O141 1.240 . S
C134 O142 1.252 . S
C135 O138 1.252 . S
C135 O139 1.260 . S
O136 In130 2.266 . S
O136 C133 1.252 . S
O137 In130 2.326 . S
O137 C133 1.260 . S
O138 In130 2.266 . S
O138 C135 1.252 . S
O139 In130 2.326 . S
O139 C135 1.260 . S
C140 O131 1.240 . S
C140 O132 1.252 . S
O141 In130 2.294 . S
O141 C134 1.240 . S
O142 In130 2.326 . S
O142 C134 1.252 . S
In143 O144 2.296 . S
In143 O145 2.329 . S
In143 O149 2.264 1_554 S
In143 O150 2.322 1_554 S
In143 O151 2.268 . S
In143 O152 2.327 . S
In143 O154 2.294 . S
In143 O155 2.327 . S
O144 In143 2.296 . S
O144 C153 1.240 . S
O145 In143 2.329 . S
O145 C153 1.252 . S
C146 O149 1.252 . S
C146 O150 1.260 . S
C147 O154 1.240 . S
C147 O155 1.252 . S
C148 O151 1.252 . S
C148 O152 1.263 . S
O149 In143 2.264 1_556 S
O149 C146 1.252 . S
O150 In143 2.322 1_556 S
O150 C146 1.260 . S
O151 In143 2.268 . S
O151 C148 1.252 . S
O152 In143 2.327 . S
O152 C148 1.263 . S
C153 O144 1.240 . S
C153 O145 1.252 . S
O154 In143 2.294 . S
O154 C147 1.240 . S
O155 In143 2.327 . S
O155 C147 1.252 . S
In156 O157 2.294 . S
In156 O158 2.326 . S
In156 O162 2.266 . S
In156 O163 2.351 . S
In156 O164 2.266 . S
In156 O165 2.326 . S
In156 O167 2.294 . S
In156 O168 2.326 . S
O157 In156 2.294 . S
O157 C166 1.240 . S
O158 In156 2.326 . S
O158 C166 1.252 . S
C159 O162 1.252 1_556 S
C159 O163 1.259 1_556 S
C160 O167 1.240 . S
C160 O168 1.252 . S
C161 O164 1.252 . S
C161 O165 1.260 . S
O162 In156 2.266 . S
O162 C159 1.252 1_554 S
O163 In156 2.351 . S
O163 C159 1.259 1_554 S
O164 In156 2.266 . S
O164 C161 1.252 . S
O165 In156 2.326 . S
O165 C161 1.260 . S
C166 O157 1.240 . S
C166 O158 1.252 . S
O167 In156 2.294 . S
O167 C160 1.240 . S
O168 In156 2.326 . S
O168 C160 1.252 . S
In169 O170 2.294 . S
In169 O171 2.326 . S
In169 O175 2.266 . S
In169 O176 2.326 . S
In169 O177 2.266 . S
In169 O178 2.326 . S
In169 O180 2.294 . S
In169 O181 2.326 . S
O170 In169 2.294 . S
O170 C179 1.240 . S
O171 In169 2.326 . S
O171 C179 1.252 . S
C172 O175 1.252 . S
C172 O176 1.260 . S
C173 O180 1.240 . S
C173 O181 1.252 . S
C174 O177 1.252 . S
C174 O178 1.260 . S
O175 In169 2.266 . S
O175 C172 1.252 . S
O176 In169 2.326 . S
O176 C172 1.260 . S
O177 In169 2.266 . S
O177 C174 1.252 . S
O178 In169 2.326 . S
O178 C174 1.260 . S
C179 O170 1.240 . S
C179 O171 1.252 . S
O180 In169 2.294 . S
O180 C173 1.240 . S
O181 In169 2.326 . S
O181 C173 1.252 . S
In182 O183 2.294 . S
In182 O184 2.326 . S
In182 O188 2.266 . S
In182 O189 2.326 . S
In182 O190 2.266 . S
In182 O191 2.326 . S
In182 O193 2.294 . S
In182 O194 2.326 . S
O183 In182 2.294 . S
O183 C192 1.240 . S
O184 In182 2.326 . S
O184 C192 1.252 . S
C185 O188 1.252 . S
C185 O189 1.260 . S
C186 O193 1.240 . S
C186 O194 1.252 . S
C187 O190 1.252 . S
C187 O191 1.260 . S
O188 In182 2.266 . S
O188 C185 1.252 . S
O189 In182 2.326 . S
O189 C185 1.260 . S
O190 In182 2.266 . S
O190 C187 1.252 . S
O191 In182 2.326 . S
O191 C187 1.260 . S
C192 O183 1.240 . S
C192 O184 1.252 . S
O193 In182 2.294 . S
O193 C186 1.240 . S
O194 In182 2.326 . S
O194 C186 1.252 . S
In195 O196 2.294 . S
In195 O197 2.326 . S
In195 O201 2.266 . S
In195 O202 2.326 . S
In195 O203 2.266 . S
In195 O204 2.326 . S
In195 O206 2.294 . S
In195 O207 2.326 . S
O196 In195 2.294 . S
O196 C205 1.240 . S
O197 In195 2.326 . S
O197 C205 1.252 . S
C198 O201 1.252 . S
C198 O202 1.260 . S
C199 O206 1.240 . S
C199 O207 1.252 . S
C200 O203 1.252 . S
C200 O204 1.260 . S
O201 In195 2.266 . S
O201 C198 1.252 . S
O202 In195 2.326 . S
O202 C198 1.260 . S
O203 In195 2.266 . S
O203 C200 1.252 . S
O204 In195 2.326 . S
O204 C200 1.260 . S
C205 O196 1.240 . S
C205 O197 1.252 . S
O206 In195 2.294 . S
O206 C199 1.240 . S
O207 In195 2.326 . S
O207 C199 1.252 . S
In208 O209 2.294 . S
In208 O210 2.326 . S
In208 O214 2.266 . S
In208 O215 2.326 . S
In208 O216 2.266 1_545 S
In208 O217 2.326 1_545 S
In208 O219 2.294 . S
In208 O220 2.326 . S
O209 In208 2.294 . S
O209 C218 1.240 . S
O210 In208 2.326 . S
O210 C218 1.252 . S
C211 O214 1.252 . S
C211 O215 1.260 . S
C212 O219 1.240 . S
C212 O220 1.252 . S
C213 O216 1.252 . S
C213 O217 1.260 . S
O214 In208 2.266 . S
O214 C211 1.252 . S
O215 In208 2.326 . S
O215 C211 1.260 . S
O216 In208 2.266 1_565 S
O216 C213 1.252 . S
O217 In208 2.326 1_565 S
O217 C213 1.260 . S
C218 O209 1.240 . S
C218 O210 1.252 . S
O219 In208 2.294 . S
O219 C212 1.240 . S
O220 In208 2.326 . S
O220 C212 1.252 . S
In221 O222 2.294 . S
In221 O223 2.326 . S
In221 O227 2.266 . S
In221 O228 2.326 . S
In221 O229 2.266 . S
In221 O230 2.326 . S
In221 O232 2.294 . S
In221 O233 2.326 . S
O222 In221 2.294 . S
O222 C231 1.240 . S
O223 In221 2.326 . S
O223 C231 1.252 . S
C224 O227 1.252 . S
C224 O228 1.260 . S
C225 O232 1.240 . S
C225 O233 1.252 . S
C226 O229 1.252 . S
C226 O230 1.260 . S
O227 In221 2.266 . S
O227 C224 1.252 . S
O228 In221 2.326 . S
O228 C224 1.260 . S
O229 In221 2.266 . S
O229 C226 1.252 . S
O230 In221 2.326 . S
O230 C226 1.260 . S
C231 O222 1.240 . S
C231 O223 1.252 . S
O232 In221 2.294 . S
O232 C225 1.240 . S
O233 In221 2.326 . S
O233 C225 1.252 . S
In234 O235 2.294 . S
In234 O236 2.326 . S
In234 O240 2.266 . S
In234 O241 2.326 . S
In234 O242 2.266 . S
In234 O243 2.326 . S
In234 O245 2.294 . S
In234 O246 2.326 . S
O235 In234 2.294 . S
O235 C244 1.240 . S
O236 In234 2.326 . S
O236 C244 1.252 . S
C237 O240 1.252 . S
C237 O241 1.260 . S
C238 O245 1.240 . S
C238 O246 1.252 . S
C239 O242 1.252 . S
C239 O243 1.260 . S
O240 In234 2.266 . S
O240 C237 1.252 . S
O241 In234 2.326 . S
O241 C237 1.260 . S
O242 In234 2.266 . S
O242 C239 1.252 . S
O243 In234 2.326 . S
O243 C239 1.260 . S
C244 O235 1.240 . S
C244 O236 1.252 . S
O245 In234 2.294 . S
O245 C238 1.240 . S
O246 In234 2.326 . S
O246 C238 1.252 . S
In247 O248 2.294 . S
In247 O249 2.326 . S
In247 O253 2.266 . S
In247 O254 2.326 . S
In247 O255 2.266 . S
In247 O256 2.326 . S
In247 O258 2.294 . S
In247 O259 2.326 . S
O248 In247 2.294 . S
O248 C257 1.240 . S
O249 In247 2.326 . S
O249 C257 1.252 . S
C250 O253 1.252 . S
C250 O254 1.260 . S
C251 O258 1.240 . S
C251 O259 1.252 . S
C252 O255 1.252 . S
C252 O256 1.260 . S
O253 In247 2.266 . S
O253 C250 1.252 . S
O254 In247 2.326 . S
O254 C250 1.260 . S
O255 In247 2.266 . S
O255 C252 1.252 . S
O256 In247 2.326 . S
O256 C252 1.260 . S
C257 O248 1.240 . S
C257 O249 1.252 . S
O258 In247 2.294 . S
O258 C251 1.240 . S
O259 In247 2.326 . S
O259 C251 1.252 . S
In260 O261 2.294 . S
In260 O262 2.326 . S
In260 O266 2.266 . S
In260 O267 2.326 . S
In260 O268 2.266 . S
In260 O269 2.326 1_554 S
In260 O271 2.294 . S
In260 O272 2.326 . S
O261 In260 2.294 . S
O261 C270 1.240 . S
O262 In260 2.326 . S
O262 C270 1.252 . S
C263 O266 1.252 . S
C263 O267 1.260 . S
C264 O271 1.240 . S
C264 O272 1.252 . S
C265 O268 1.252 1_556 S
C265 O269 1.260 . S
O266 In260 2.266 . S
O266 C263 1.252 . S
O267 In260 2.326 . S
O267 C263 1.260 . S
O268 In260 2.266 . S
O268 C265 1.252 1_554 S
O269 In260 2.326 1_556 S
O269 C265 1.260 . S
C270 O261 1.240 . S
C270 O262 1.252 . S
O271 In260 2.294 . S
O271 C264 1.240 . S
O272 In260 2.326 . S
O272 C264 1.252 . S
In273 O274 2.294 . S
In273 O275 2.326 . S
In273 O279 2.266 . S
In273 O280 2.326 . S
In273 O281 2.266 . S
In273 O282 2.326 . S
In273 O284 2.294 . S
In273 O285 2.326 . S
O274 In273 2.294 . S
O274 C283 1.240 . S
O275 In273 2.326 . S
O275 C283 1.252 . S
C276 O279 1.252 . S
C276 O280 1.260 . S
C277 O284 1.240 . S
C277 O285 1.252 . S
C278 O281 1.252 . S
C278 O282 1.260 . S
O279 In273 2.266 . S
O279 C276 1.252 . S
O280 In273 2.326 . S
O280 C276 1.260 . S
O281 In273 2.266 . S
O281 C278 1.252 . S
O282 In273 2.326 . S
O282 C278 1.260 . S
C283 O274 1.240 . S
C283 O275 1.252 . S
O284 In273 2.294 . S
O284 C277 1.240 . S
O285 In273 2.326 . S
O285 C277 1.252 . S
In286 O287 2.294 . S
In286 O288 2.326 . S
In286 O292 2.266 . S
In286 O293 2.326 . S
In286 O294 2.266 . S
In286 O295 2.326 . S
In286 O297 2.294 . S
In286 O298 2.326 . S
O287 In286 2.294 . S
O287 C296 1.240 . S
O288 In286 2.326 . S
O288 C296 1.252 . S
C289 O292 1.252 . S
C289 O293 1.260 . S
C290 O297 1.240 . S
C290 O298 1.252 . S
C291 O294 1.252 . S
C291 O295 1.260 . S
O292 In286 2.266 . S
O292 C289 1.252 . S
O293 In286 2.326 . S
O293 C289 1.260 . S
O294 In286 2.266 . S
O294 C291 1.252 . S
O295 In286 2.326 . S
O295 C291 1.260 . S
C296 O287 1.240 . S
C296 O288 1.252 . S
O297 In286 2.294 . S
O297 C290 1.240 . S
O298 In286 2.326 . S
O298 C290 1.252 . S
In299 O300 2.294 . S
In299 O301 2.326 . S
In299 O305 2.266 . S
In299 O306 2.326 . S
In299 O307 2.266 . S
In299 O308 2.326 . S
In299 O310 2.294 . S
In299 O311 2.326 . S
O300 In299 2.294 . S
O300 C309 1.240 . S
O301 In299 2.326 . S
O301 C309 1.252 . S
C302 O305 1.252 . S
C302 O306 1.260 . S
C303 O310 1.240 . S
C303 O311 1.252 . S
C304 O307 1.252 . S
C304 O308 1.260 . S
O305 In299 2.266 . S
O305 C302 1.252 . S
O306 In299 2.326 . S
O306 C302 1.260 . S
O307 In299 2.266 . S
O307 C304 1.252 . S
O308 In299 2.326 . S
O308 C304 1.260 . S
C309 O300 1.240 . S
C309 O301 1.252 . S
O310 In299 2.294 . S
O310 C303 1.240 . S
O311 In299 2.326 . S
O311 C303 1.252 . S
Dy312 O315 2.307 . S
Dy312 O317 2.395 . S
Dy312 O318 2.379 . S
Dy312 O320 2.339 . S
Dy312 O322 2.298 . S
Dy312 O326 2.275 . S
Dy312 C334 2.738 . S
Dy313 O316 2.298 . S
Dy313 O319 2.275 . S
Dy313 O321 2.307 . S
Dy313 O323 2.395 1_455 S
Dy313 O324 2.379 1_455 S
Dy313 O327 2.339 1_554 S
Dy313 C343 2.738 1_455 S
C314 O326 1.254 . S
C314 O327 1.257 1_554 S
O315 Dy312 2.307 . S
O315 C325 1.266 . S
O316 Dy313 2.298 . S
O316 C325 1.236 . S
O317 Dy312 2.395 . S
O317 C334 1.255 . S
O318 Dy312 2.379 . S
O318 C334 1.249 . S
O319 Dy313 2.275 . S
O319 C335 1.254 . S
O320 Dy312 2.339 . S
O320 C335 1.257 . S
O321 Dy313 2.307 . S
O321 C336 1.266 . S
O322 Dy312 2.298 . S
O322 C336 1.236 . S
O323 Dy313 2.395 1_655 S
O323 C343 1.255 . S
O324 Dy313 2.379 1_655 S
O324 C343 1.249 . S
C325 O315 1.266 . S
C325 O316 1.236 . S
O326 Dy312 2.275 . S
O326 C314 1.254 . S
O327 Dy313 2.339 1_556 S
O327 C314 1.257 1_556 S
C328 C331 1.344 . S
C328 C332 1.328 . S
C328 C334 1.516 . S
C329 C330 1.304 . S
C329 C333 1.323 . S
C330 C329 1.304 . S
C330 C331 1.371 . S
C330 H344 0.930 . S
C331 C328 1.344 . S
C331 C330 1.371 . S
C331 H345 0.931 . S
C332 C328 1.328 . S
C332 C333 1.433 . S
C332 H346 0.931 . S
C333 C329 1.323 . S
C333 C332 1.433 . S
C333 H347 0.933 . S
C334 Dy312 2.738 . S
C334 O317 1.255 . S
C334 O318 1.249 . S
C334 C328 1.516 . S
C335 O319 1.254 . S
C335 O320 1.257 . S
C336 O321 1.266 . S
C336 O322 1.236 . S
C337 C340 1.344 . S
C337 C341 1.328 . S
C337 C343 1.516 . S
C338 C339 1.304 . S
C338 C342 1.323 . S
C339 C338 1.304 . S
C339 C340 1.371 . S
C339 H348 0.930 . S
C340 C337 1.344 . S
C340 C339 1.371 . S
C340 H349 0.931 . S
C341 C337 1.328 . S
C341 C342 1.433 . S
C341 H350 0.931 1_554 S
C342 C338 1.323 . S
C342 C341 1.433 . S
C342 H351 0.933 1_554 S
C343 Dy313 2.738 1_655 S
C343 O323 1.255 . S
C343 O324 1.249 . S
C343 C337 1.516 . S
H344 C330 0.930 . S
H345 C331 0.931 . S
H346 C332 0.931 . S
H347 C333 0.933 . S
H348 C339 0.930 . S
H349 C340 0.931 . S
H350 C341 0.931 1_556 S
H351 C342 0.933 1_556 S
Dy352 O355 2.307 . S
Dy352 O357 2.395 . S
Dy352 O358 2.379 . S
Dy352 O360 2.339 . S
Dy352 O362 2.298 . S
Dy352 O366 2.275 . S
Dy352 C374 2.738 . S
Dy353 O356 2.298 . S
Dy353 O359 2.275 . S
Dy353 O361 2.307 . S
Dy353 O363 2.395 . S
Dy353 O364 2.379 . S
Dy353 O367 2.339 . S
Dy353 C383 2.738 . S
C354 O366 1.254 . S
C354 O367 1.257 . S
O355 Dy352 2.307 . S
O355 C365 1.266 . S
O356 Dy353 2.298 . S
O356 C365 1.236 . S
O357 Dy352 2.395 . S
O357 C374 1.255 . S
O358 Dy352 2.379 . S
O358 C374 1.249 . S
O359 Dy353 2.275 . S
O359 C375 1.254 . S
O360 Dy352 2.339 . S
O360 C375 1.257 . S
O361 Dy353 2.307 . S
O361 C376 1.266 . S
O362 Dy352 2.298 . S
O362 C376 1.236 . S
O363 Dy353 2.395 . S
O363 C383 1.255 . S
O364 Dy353 2.379 . S
O364 C383 1.249 . S
C365 O355 1.266 . S
C365 O356 1.236 . S
O366 Dy352 2.275 . S
O366 C354 1.254 . S
O367 Dy353 2.339 . S
O367 C354 1.257 . S
C368 C371 1.344 . S
C368 C372 1.328 . S
C368 C374 1.516 . S
C369 C370 1.304 . S
C369 C373 1.323 . S
C370 C369 1.304 . S
C370 C371 1.371 . S
C370 H384 0.930 . S
C371 C368 1.344 . S
C371 C370 1.371 . S
C371 H385 0.931 . S
C372 C368 1.328 . S
C372 C373 1.433 . S
C372 H386 0.931 . S
C373 C369 1.323 . S
C373 C372 1.433 . S
C373 H387 0.933 . S
C374 Dy352 2.738 . S
C374 O357 1.255 . S
C374 O358 1.249 . S
C374 C368 1.516 . S
C375 O359 1.254 . S
C375 O360 1.257 . S
C376 O361 1.266 . S
C376 O362 1.236 . S
C377 C380 1.344 . S
C377 C381 1.328 . S
C377 C383 1.516 . S
C378 C379 1.304 . S
C378 C382 1.323 . S
C379 C378 1.304 . S
C379 C380 1.371 . S
C379 H388 0.930 . S
C380 C377 1.344 . S
C380 C379 1.371 . S
C380 H389 0.931 . S
C381 C377 1.328 . S
C381 C382 1.433 . S
C381 H390 0.931 . S
C382 C378 1.323 . S
C382 C381 1.433 . S
C382 H391 0.933 . S
C383 Dy353 2.738 . S
C383 O363 1.255 . S
C383 O364 1.249 . S
C383 C377 1.516 . S
H384 C370 0.930 . S
H385 C371 0.931 . S
H386 C372 0.931 . S
H387 C373 0.933 . S
H388 C379 0.930 . S
H389 C380 0.931 . S
H390 C381 0.931 . S
H391 C382 0.933 . S
Dy392 O395 2.303 . S
Dy392 O397 2.395 . S
Dy392 O398 2.379 . S
Dy392 O400 2.339 . S
Dy392 O402 2.298 . S
Dy392 O406 2.275 . S
Dy392 C414 2.738 . S
Dy393 O396 2.306 . S
Dy393 O399 2.275 . S
Dy393 O401 2.307 . S
Dy393 O403 2.395 . S
Dy393 O404 2.379 . S
Dy393 O407 2.339 . S
Dy393 C423 2.738 . S
C394 O406 1.254 . S
C394 O407 1.257 . S
O395 Dy392 2.303 . S
O395 C405 1.269 1_545 S
O396 Dy393 2.306 . S
O396 C405 1.232 1_545 S
O397 Dy392 2.395 . S
O397 C414 1.255 . S
O398 Dy392 2.379 . S
O398 C414 1.249 . S
O399 Dy393 2.275 . S
O399 C415 1.254 . S
O400 Dy392 2.339 . S
O400 C415 1.257 . S
O401 Dy393 2.307 . S
O401 C416 1.266 . S
O402 Dy392 2.298 . S
O402 C416 1.236 . S
O403 Dy393 2.395 . S
O403 C423 1.255 . S
O404 Dy393 2.379 . S
O404 C423 1.249 . S
C405 O395 1.269 1_565 S
C405 O396 1.232 1_565 S
O406 Dy392 2.275 . S
O406 C394 1.254 . S
O407 Dy393 2.339 . S
O407 C394 1.257 . S
C408 C411 1.344 . S
C408 C412 1.328 . S
C408 C414 1.516 . S
C409 C410 1.304 . S
C409 C413 1.323 . S
C410 C409 1.304 . S
C410 C411 1.371 . S
C410 H424 0.930 . S
C411 C408 1.344 . S
C411 C410 1.371 . S
C411 H425 0.931 . S
C412 C408 1.328 . S
C412 C413 1.433 . S
C412 H426 0.931 . S
C413 C409 1.323 . S
C413 C412 1.433 . S
C413 H427 0.933 . S
C414 Dy392 2.738 . S
C414 O397 1.255 . S
C414 O398 1.249 . S
C414 C408 1.516 . S
C415 O399 1.254 . S
C415 O400 1.257 . S
C416 O401 1.266 . S
C416 O402 1.236 . S
C417 C420 1.342 1_545 S
C417 C421 1.327 1_545 S
C417 C423 1.518 . S
C418 C419 1.304 . S
C418 C422 1.323 . S
C419 C418 1.304 . S
C419 C420 1.371 . S
C419 H428 0.930 . S
C420 C417 1.342 1_565 S
C420 C419 1.371 . S
C420 H429 0.931 . S
C421 C417 1.327 1_565 S
C421 C422 1.433 . S
C421 H430 0.935 . S
C422 C418 1.323 . S
C422 C421 1.433 . S
C422 H431 0.933 . S
C423 Dy393 2.738 . S
C423 O403 1.255 . S
C423 O404 1.249 . S
C423 C417 1.518 . S
H424 C410 0.930 . S
H425 C411 0.931 . S
H426 C412 0.931 . S
H427 C413 0.933 . S
H428 C419 0.930 . S
H429 C420 0.931 . S
H430 C421 0.935 . S
H431 C422 0.933 . S
Dy432 O435 2.307 . S
Dy432 O437 2.395 . S
Dy432 O438 2.379 . S
Dy432 O440 2.339 . S
Dy432 O442 2.298 . S
Dy432 O446 2.275 . S
Dy432 C454 2.738 . S
Dy433 O436 2.298 . S
Dy433 O439 2.275 . S
Dy433 O441 2.307 . S
Dy433 O443 2.395 . S
Dy433 O444 2.379 . S
Dy433 O447 2.339 . S
Dy433 C463 2.738 . S
C434 O446 1.254 . S
C434 O447 1.257 . S
O435 Dy432 2.307 . S
O435 C445 1.266 . S
O436 Dy433 2.298 . S
O436 C445 1.236 . S
O437 Dy432 2.395 . S
O437 C454 1.255 . S
O438 Dy432 2.379 . S
O438 C454 1.249 . S
O439 Dy433 2.275 . S
O439 C455 1.254 . S
O440 Dy432 2.339 . S
O440 C455 1.257 . S
O441 Dy433 2.307 . S
O441 C456 1.266 . S
O442 Dy432 2.298 . S
O442 C456 1.236 . S
O443 Dy433 2.395 . S
O443 C463 1.255 . S
O444 Dy433 2.379 . S
O444 C463 1.249 . S
C445 O435 1.266 . S
C445 O436 1.236 . S
O446 Dy432 2.275 . S
O446 C434 1.254 . S
O447 Dy433 2.339 . S
O447 C434 1.257 . S
C448 C451 1.344 . S
C448 C452 1.328 . S
C448 C454 1.516 . S
C449 C450 1.304 . S
C449 C453 1.323 . S
C450 C449 1.304 . S
C450 C451 1.371 . S
C450 H464 0.930 . S
C451 C448 1.344 . S
C451 C450 1.371 . S
C451 H465 0.931 . S
C452 C448 1.328 . S
C452 C453 1.433 . S
C452 H466 0.931 . S
C453 C449 1.323 . S
C453 C452 1.433 . S
C453 H467 0.933 . S
C454 Dy432 2.738 . S
C454 O437 1.255 . S
C454 O438 1.249 . S
C454 C448 1.516 . S
C455 O439 1.254 . S
C455 O440 1.257 . S
C456 O441 1.266 . S
C456 O442 1.236 . S
C457 C460 1.344 . S
C457 C461 1.328 . S
C457 C463 1.516 . S
C458 C459 1.304 . S
C458 C462 1.323 . S
C459 C458 1.304 . S
C459 C460 1.371 . S
C459 H468 0.930 . S
C460 C457 1.344 . S
C460 C459 1.371 . S
C460 H469 0.931 . S
C461 C457 1.328 . S
C461 C462 1.433 . S
C461 H470 0.931 . S
C462 C458 1.323 . S
C462 C461 1.433 . S
C462 H471 0.933 . S
C463 Dy433 2.738 . S
C463 O443 1.255 . S
C463 O444 1.249 . S
C463 C457 1.516 . S
H464 C450 0.930 . S
H465 C451 0.931 . S
H466 C452 0.931 . S
H467 C453 0.933 . S
H468 C459 0.930 . S
H469 C460 0.931 . S
H470 C461 0.931 . S
H471 C462 0.933 . S
Dy472 O475 2.307 . S
Dy472 O477 2.395 1_545 S
Dy472 O478 2.379 1_545 S
Dy472 O480 2.339 . S
Dy472 O482 2.298 . S
Dy472 O486 2.275 . S
Dy472 C494 2.738 1_545 S
Dy473 O476 2.298 . S
Dy473 O479 2.275 . S
Dy473 O481 2.307 . S
Dy473 O483 2.395 . S
Dy473 O484 2.379 . S
Dy473 O487 2.339 1_455 S
Dy473 C503 2.738 . S
C474 O486 1.254 1_655 S
C474 O487 1.257 . S
O475 Dy472 2.307 . S
O475 C485 1.266 . S
O476 Dy473 2.298 . S
O476 C485 1.236 . S
O477 Dy472 2.395 1_565 S
O477 C494 1.255 . S
O478 Dy472 2.379 1_565 S
O478 C494 1.249 . S
O479 Dy473 2.275 . S
O479 C495 1.254 . S
O480 Dy472 2.339 . S
O480 C495 1.257 . S
O481 Dy473 2.307 . S
O481 C496 1.266 . S
O482 Dy472 2.298 . S
O482 C496 1.236 . S
O483 Dy473 2.395 . S
O483 C503 1.255 . S
O484 Dy473 2.379 . S
O484 C503 1.249 . S
C485 O475 1.266 . S
C485 O476 1.236 . S
O486 Dy472 2.275 . S
O486 C474 1.254 1_455 S
O487 Dy473 2.339 1_655 S
O487 C474 1.257 . S
C488 C491 1.344 . S
C488 C492 1.328 . S
C488 C494 1.516 . S
C489 C490 1.304 . S
C489 C493 1.323 . S
C490 C489 1.304 . S
C490 C491 1.371 . S
C490 H504 0.930 . S
C491 C488 1.344 . S
C491 C490 1.371 . S
C491 H505 0.931 . S
C492 C488 1.328 . S
C492 C493 1.433 . S
C492 H506 0.931 . S
C493 C489 1.323 . S
C493 C492 1.433 . S
C493 H507 0.933 . S
C494 Dy472 2.738 1_565 S
C494 O477 1.255 . S
C494 O478 1.249 . S
C494 C488 1.516 . S
C495 O479 1.254 . S
C495 O480 1.257 . S
C496 O481 1.266 . S
C496 O482 1.236 . S
C497 C500 1.344 . S
C497 C501 1.335 . S
C497 C503 1.516 . S
C498 C499 1.304 . S
C498 C502 1.323 1_455 S
C499 C498 1.304 . S
C499 C500 1.371 . S
C499 H508 0.930 . S
C500 C497 1.344 . S
C500 C499 1.371 . S
C500 H509 0.931 . S
C501 C497 1.335 . S
C501 C502 1.431 1_455 S
C501 H510 0.926 1_455 S
C502 C498 1.323 1_655 S
C502 C501 1.431 1_655 S
C502 H511 0.933 . S
C503 Dy473 2.738 . S
C503 O483 1.255 . S
C503 O484 1.249 . S
C503 C497 1.516 . S
H504 C490 0.930 . S
H505 C491 0.931 . S
H506 C492 0.931 . S
H507 C493 0.933 . S
H508 C499 0.930 . S
H509 C500 0.931 . S
H510 C501 0.926 1_655 S
H511 C502 0.933 . S
Dy512 O515 2.307 . S
Dy512 O517 2.395 . S
Dy512 O518 2.379 . S
Dy512 O520 2.339 . S
Dy512 O522 2.298 . S
Dy512 O526 2.275 . S
Dy512 C534 2.738 . S
Dy513 O516 2.298 . S
Dy513 O519 2.275 . S
Dy513 O521 2.307 . S
Dy513 O523 2.395 . S
Dy513 O524 2.379 . S
Dy513 O527 2.339 . S
Dy513 C543 2.738 . S
C514 O526 1.254 . S
C514 O527 1.257 . S
O515 Dy512 2.307 . S
O515 C525 1.266 . S
O516 Dy513 2.298 . S
O516 C525 1.236 . S
O517 Dy512 2.395 . S
O517 C534 1.255 . S
O518 Dy512 2.379 . S
O518 C534 1.249 . S
O519 Dy513 2.275 . S
O519 C535 1.254 . S
O520 Dy512 2.339 . S
O520 C535 1.257 . S
O521 Dy513 2.307 . S
O521 C536 1.266 . S
O522 Dy512 2.298 . S
O522 C536 1.236 . S
O523 Dy513 2.395 . S
O523 C543 1.255 . S
O524 Dy513 2.379 . S
O524 C543 1.249 . S
C525 O515 1.266 . S
C525 O516 1.236 . S
O526 Dy512 2.275 . S
O526 C514 1.254 . S
O527 Dy513 2.339 . S
O527 C514 1.257 . S
C528 C531 1.344 . S
C528 C532 1.328 . S
C528 C534 1.516 . S
C529 C530 1.304 . S
C529 C533 1.323 . S
C530 C529 1.304 . S
C530 C531 1.371 . S
C530 H544 0.930 . S
C531 C528 1.344 . S
C531 C530 1.371 . S
C531 H545 0.931 . S
C532 C528 1.328 . S
C532 C533 1.433 . S
C532 H546 0.931 . S
C533 C529 1.323 . S
C533 C532 1.433 . S
C533 H547 0.933 . S
C534 Dy512 2.738 . S
C534 O517 1.255 . S
C534 O518 1.249 . S
C534 C528 1.516 . S
C535 O519 1.254 . S
C535 O520 1.257 . S
C536 O521 1.266 . S
C536 O522 1.236 . S
C537 C540 1.344 . S
C537 C541 1.328 . S
C537 C543 1.516 . S
C538 C539 1.304 . S
C538 C542 1.323 . S
C539 C538 1.304 . S
C539 C540 1.371 . S
C539 H548 0.930 . S
C540 C537 1.344 . S
C540 C539 1.371 . S
C540 H549 0.931 . S
C541 C537 1.328 . S
C541 C542 1.433 . S
C541 H550 0.931 . S
C542 C538 1.323 . S
C542 C541 1.433 . S
C542 H551 0.933 . S
C543 Dy513 2.738 . S
C543 O523 1.255 . S
C543 O524 1.249 . S
C543 C537 1.516 . S
H544 C530 0.930 . S
H545 C531 0.931 . S
H546 C532 0.931 . S
H547 C533 0.933 . S
H548 C539 0.930 . S
H549 C540 0.931 . S
H550 C541 0.931 . S
H551 C542 0.933 . S
Dy552 O555 2.307 1_556 S
Dy552 O557 2.395 . S
Dy552 O558 2.379 . S
Dy552 O560 2.339 1_556 S
Dy552 O562 2.298 1_556 S
Dy552 O566 2.275 1_556 S
Dy552 C574 2.738 . S
Dy553 O556 2.298 . S
Dy553 O559 2.275 . S
Dy553 O561 2.307 . S
Dy553 O563 2.395 . S
Dy553 O564 2.379 . S
Dy553 O567 2.339 . S
Dy553 C583 2.738 . S
C554 O566 1.254 . S
C554 O567 1.257 . S
O555 Dy552 2.307 1_554 S
O555 C565 1.266 . S
O556 Dy553 2.298 . S
O556 C565 1.236 . S
O557 Dy552 2.395 . S
O557 C574 1.255 . S
O558 Dy552 2.379 . S
O558 C574 1.249 . S
O559 Dy553 2.275 . S
O559 C575 1.254 . S
O560 Dy552 2.339 1_554 S
O560 C575 1.257 . S
O561 Dy553 2.307 . S
O561 C576 1.266 . S
O562 Dy552 2.298 1_554 S
O562 C576 1.236 . S
O563 Dy553 2.395 . S
O563 C583 1.255 . S
O564 Dy553 2.379 . S
O564 C583 1.249 . S
C565 O555 1.266 . S
C565 O556 1.236 . S
O566 Dy552 2.275 1_554 S
O566 C554 1.254 . S
O567 Dy553 2.339 . S
O567 C554 1.257 . S
C568 C571 1.344 . S
C568 C572 1.328 . S
C568 C574 1.516 . S
C569 C570 1.304 . S
C569 C573 1.323 . S
C570 C569 1.304 . S
C570 C571 1.371 . S
C570 H584 0.930 . S
C571 C568 1.344 . S
C571 C570 1.371 . S
C571 H585 0.931 . S
C572 C568 1.328 . S
C572 C573 1.433 . S
C572 H586 0.931 . S
C573 C569 1.323 . S
C573 C572 1.433 . S
C573 H587 0.933 . S
C574 Dy552 2.738 . S
C574 O557 1.255 . S
C574 O558 1.249 . S
C574 C568 1.516 . S
C575 O559 1.254 . S
C575 O560 1.257 . S
C576 O561 1.266 . S
C576 O562 1.236 . S
C577 C580 1.344 . S
C577 C581 1.328 1_545 S
C577 C583 1.516 . S
C578 C579 1.304 1_565 S
C578 C582 1.323 . S
C579 C578 1.304 1_545 S
C579 C580 1.371 . S
C579 H588 0.930 . S
C580 C577 1.344 . S
C580 C579 1.371 . S
C580 H589 0.931 . S
C581 C577 1.328 1_565 S
C581 C582 1.433 . S
C581 H590 0.931 . S
C582 C578 1.323 . S
C582 C581 1.433 . S
C582 H591 0.933 . S
C583 Dy553 2.738 . S
C583 O563 1.255 . S
C583 O564 1.249 . S
C583 C577 1.516 . S
H584 C570 0.930 . S
H585 C571 0.931 . S
H586 C572 0.931 . S
H587 C573 0.933 . S
H588 C579 0.930 . S
H589 C580 0.931 . S
H590 C581 0.931 . S
H591 C582 0.933 . S
Dy592 O595 2.307 . S
Dy592 O597 2.395 . S
Dy592 O598 2.379 . S
Dy592 O600 2.339 . S
Dy592 O602 2.298 . S
Dy592 O606 2.275 . S
Dy592 C614 2.738 . S
Dy593 O596 2.298 . S
Dy593 O599 2.275 . S
Dy593 O601 2.307 . S
Dy593 O603 2.395 . S
Dy593 O604 2.379 . S
Dy593 O607 2.339 . S
Dy593 C623 2.738 . S
C594 O606 1.254 . S
C594 O607 1.257 . S
O595 Dy592 2.307 . S
O595 C605 1.266 . S
O596 Dy593 2.298 . S
O596 C605 1.236 . S
O597 Dy592 2.395 . S
O597 C614 1.255 . S
O598 Dy592 2.379 . S
O598 C614 1.249 . S
O599 Dy593 2.275 . S
O599 C615 1.254 . S
O600 Dy592 2.339 . S
O600 C615 1.257 . S
O601 Dy593 2.307 . S
O601 C616 1.266 . S
O602 Dy592 2.298 . S
O602 C616 1.236 . S
O603 Dy593 2.395 . S
O603 C623 1.255 . S
O604 Dy593 2.379 . S
O604 C623 1.249 . S
C605 O595 1.266 . S
C605 O596 1.236 . S
O606 Dy592 2.275 . S
O606 C594 1.254 . S
O607 Dy593 2.339 . S
O607 C594 1.257 . S
C608 C611 1.344 . S
C608 C612 1.328 . S
C608 C614 1.516 . S
C609 C610 1.304 . S
C609 C613 1.323 . S
C610 C609 1.304 . S
C610 C611 1.371 . S
C610 H624 0.930 . S
C611 C608 1.344 . S
C611 C610 1.371 . S
C611 H625 0.931 . S
C612 C608 1.328 . S
C612 C613 1.433 . S
C612 H626 0.931 . S
C613 C609 1.323 . S
C613 C612 1.433 . S
C613 H627 0.933 . S
C614 Dy592 2.738 . S
C614 O597 1.255 . S
C614 O598 1.249 . S
C614 C608 1.516 . S
C615 O599 1.254 . S
C615 O600 1.257 . S
C616 O601 1.266 . S
C616 O602 1.236 . S
C617 C620 1.344 . S
C617 C621 1.328 . S
C617 C623 1.516 . S
C618 C619 1.304 . S
C618 C622 1.323 . S
C619 C618 1.304 . S
C619 C620 1.371 . S
C619 H628 0.930 . S
C620 C617 1.344 . S
C620 C619 1.371 . S
C620 H629 0.931 . S
C621 C617 1.328 . S
C621 C622 1.433 . S
C621 H630 0.931 . S
C622 C618 1.323 . S
C622 C621 1.433 . S
C622 H631 0.933 . S
C623 Dy593 2.738 . S
C623 O603 1.255 . S
C623 O604 1.249 . S
C623 C617 1.516 . S
H624 C610 0.930 . S
H625 C611 0.931 . S
H626 C612 0.931 . S
H627 C613 0.933 . S
H628 C619 0.930 . S
H629 C620 0.931 . S
H630 C621 0.931 . S
H631 C622 0.933 . S
Dy632 O635 2.307 1_554 S
Dy632 O637 2.395 . S
Dy632 O638 2.379 . S
Dy632 O640 2.339 . S
Dy632 O642 2.298 . S
Dy632 O646 2.275 . S
Dy632 C654 2.738 . S
Dy633 O636 2.298 1_554 S
Dy633 O639 2.275 . S
Dy633 O641 2.307 . S
Dy633 O643 2.395 . S
Dy633 O644 2.379 . S
Dy633 O647 2.339 . S
Dy633 C663 2.738 . S
C634 O646 1.254 . S
C634 O647 1.257 . S
O635 Dy632 2.307 1_556 S
O635 C645 1.266 . S
O636 Dy633 2.298 1_556 S
O636 C645 1.236 . S
O637 Dy632 2.395 . S
O637 C654 1.255 . S
O638 Dy632 2.379 . S
O638 C654 1.249 . S
O639 Dy633 2.275 . S
O639 C655 1.254 . S
O640 Dy632 2.339 . S
O640 C655 1.257 . S
O641 Dy633 2.307 . S
O641 C656 1.266 . S
O642 Dy632 2.298 . S
O642 C656 1.236 . S
O643 Dy633 2.395 . S
O643 C663 1.255 . S
O644 Dy633 2.379 . S
O644 C663 1.249 . S
C645 O635 1.266 . S
C645 O636 1.236 . S
O646 Dy632 2.275 . S
O646 C634 1.254 . S
O647 Dy633 2.339 . S
O647 C634 1.257 . S
C648 C651 1.344 . S
C648 C652 1.328 . S
C648 C654 1.516 . S
C649 C650 1.304 . S
C649 C653 1.323 . S
C650 C649 1.304 . S
C650 C651 1.371 . S
C650 H664 0.930 . S
C651 C648 1.344 . S
C651 C650 1.371 . S
C651 H665 0.931 . S
C652 C648 1.328 . S
C652 C653 1.433 . S
C652 H666 0.931 . S
C653 C649 1.323 . S
C653 C652 1.433 . S
C653 H667 0.933 . S
C654 Dy632 2.738 . S
C654 O637 1.255 . S
C654 O638 1.249 . S
C654 C648 1.516 . S
C655 O639 1.254 . S
C655 O640 1.257 . S
C656 O641 1.266 . S
C656 O642 1.236 . S
C657 C660 1.344 . S
C657 C661 1.328 . S
C657 C663 1.516 1_556 S
C658 C659 1.304 . S
C658 C662 1.323 . S
C659 C658 1.304 . S
C659 C660 1.371 . S
C659 H668 0.930 . S
C660 C657 1.344 . S
C660 C659 1.371 . S
C660 H669 0.931 . S
C661 C657 1.328 . S
C661 C662 1.433 . S
C661 H670 0.931 1_556 S
C662 C658 1.323 . S
C662 C661 1.433 . S
C662 H671 0.933 . S
C663 Dy633 2.738 . S
C663 O643 1.255 . S
C663 O644 1.249 . S
C663 C657 1.516 1_554 S
H664 C650 0.930 . S
H665 C651 0.931 . S
H666 C652 0.931 . S
H667 C653 0.933 . S
H668 C659 0.930 . S
H669 C660 0.931 . S
H670 C661 0.931 1_554 S
H671 C662 0.933 . S
Dy672 O675 2.307 . S
Dy672 O677 2.395 . S
Dy672 O678 2.379 . S
Dy672 O680 2.339 . S
Dy672 O682 2.298 . S
Dy672 O686 2.275 . S
Dy672 C694 2.738 . S
Dy673 O676 2.298 . S
Dy673 O679 2.275 . S
Dy673 O681 2.307 . S
Dy673 O683 2.395 . S
Dy673 O684 2.379 . S
Dy673 O687 2.339 . S
Dy673 C703 2.738 . S
C674 O686 1.254 . S
C674 O687 1.257 . S
O675 Dy672 2.307 . S
O675 C685 1.266 . S
O676 Dy673 2.298 . S
O676 C685 1.236 . S
O677 Dy672 2.395 . S
O677 C694 1.255 . S
O678 Dy672 2.379 . S
O678 C694 1.249 . S
O679 Dy673 2.275 . S
O679 C695 1.254 . S
O680 Dy672 2.339 . S
O680 C695 1.257 . S
O681 Dy673 2.307 . S
O681 C696 1.266 . S
O682 Dy672 2.298 . S
O682 C696 1.236 . S
O683 Dy673 2.395 . S
O683 C703 1.255 . S
O684 Dy673 2.379 . S
O684 C703 1.249 . S
C685 O675 1.266 . S
C685 O676 1.236 . S
O686 Dy672 2.275 . S
O686 C674 1.254 . S
O687 Dy673 2.339 . S
O687 C674 1.257 . S
C688 C691 1.344 . S
C688 C692 1.328 . S
C688 C694 1.516 . S
C689 C690 1.304 . S
C689 C693 1.323 . S
C690 C689 1.304 . S
C690 C691 1.371 . S
C690 H704 0.930 . S
C691 C688 1.344 . S
C691 C690 1.371 . S
C691 H705 0.931 . S
C692 C688 1.328 . S
C692 C693 1.433 . S
C692 H706 0.931 . S
C693 C689 1.323 . S
C693 C692 1.433 . S
C693 H707 0.933 . S
C694 Dy672 2.738 . S
C694 O677 1.255 . S
C694 O678 1.249 . S
C694 C688 1.516 . S
C695 O679 1.254 . S
C695 O680 1.257 . S
C696 O681 1.266 . S
C696 O682 1.236 . S
C697 C700 1.344 . S
C697 C701 1.328 . S
C697 C703 1.516 . S
C698 C699 1.304 . S
C698 C702 1.323 . S
C699 C698 1.304 . S
C699 C700 1.371 . S
C699 H708 0.930 . S
C700 C697 1.344 . S
C700 C699 1.371 . S
C700 H709 0.931 . S
C701 C697 1.328 . S
C701 C702 1.433 . S
C701 H710 0.931 . S
C702 C698 1.323 . S
C702 C701 1.433 . S
C702 H711 0.933 . S
C703 Dy673 2.738 . S
C703 O683 1.255 . S
C703 O684 1.249 . S
C703 C697 1.516 . S
H704 C690 0.930 . S
H705 C691 0.931 . S
H706 C692 0.931 . S
H707 C693 0.933 . S
H708 C699 0.930 . S
H709 C700 0.931 . S
H710 C701 0.931 . S
H711 C702 0.933 . S
Dy712 O715 2.307 1_455 S
Dy712 O717 2.395 . S
Dy712 O718 2.379 . S
Dy712 O720 2.339 . S
Dy712 O722 2.298 . S
Dy712 O726 2.275 . S
Dy712 C734 2.738 . S
Dy713 O716 2.298 1_455 S
Dy713 O719 2.275 . S
Dy713 O721 2.307 . S
Dy713 O723 2.393 . S
Dy713 O724 2.379 . S
Dy713 O727 2.339 . S
Dy713 C743 2.738 1_455 S
C714 O726 1.254 . S
C714 O727 1.257 . S
O715 Dy712 2.307 1_655 S
O715 C725 1.266 . S
O716 Dy713 2.298 1_655 S
O716 C725 1.236 . S
O717 Dy712 2.395 . S
O717 C734 1.255 . S
O718 Dy712 2.379 . S
O718 C734 1.249 . S
O719 Dy713 2.275 . S
O719 C735 1.254 . S
O720 Dy712 2.339 . S
O720 C735 1.257 . S
O721 Dy713 2.307 . S
O721 C736 1.266 . S
O722 Dy712 2.298 . S
O722 C736 1.236 . S
O723 Dy713 2.393 . S
O723 C743 1.255 1_455 S
O724 Dy713 2.379 . S
O724 C743 1.249 1_455 S
C725 O715 1.266 . S
C725 O716 1.236 . S
O726 Dy712 2.275 . S
O726 C714 1.254 . S
O727 Dy713 2.339 . S
O727 C714 1.257 . S
C728 C731 1.344 . S
C728 C732 1.328 . S
C728 C734 1.516 . S
C729 C730 1.304 . S
C729 C733 1.323 . S
C730 C729 1.304 . S
C730 C731 1.371 . S
C730 H744 0.930 . S
C731 C728 1.344 . S
C731 C730 1.371 . S
C731 H745 0.931 . S
C732 C728 1.328 . S
C732 C733 1.433 . S
C732 H746 0.931 . S
C733 C729 1.323 . S
C733 C732 1.433 . S
C733 H747 0.933 . S
C734 Dy712 2.738 . S
C734 O717 1.255 . S
C734 O718 1.249 . S
C734 C728 1.516 . S
C735 O719 1.254 . S
C735 O720 1.257 . S
C736 O721 1.266 . S
C736 O722 1.236 . S
C737 C740 1.344 . S
C737 C741 1.328 . S
C737 C743 1.516 . S
C738 C739 1.304 . S
C738 C742 1.323 . S
C739 C738 1.304 . S
C739 C740 1.371 . S
C739 H748 0.930 . S
C740 C737 1.344 . S
C740 C739 1.371 . S
C740 H749 0.931 . S
C741 C737 1.328 . S
C741 C742 1.433 . S
C741 H750 0.931 . S
C742 C738 1.323 . S
C742 C741 1.433 . S
C742 H751 0.933 . S
C743 Dy713 2.738 1_655 S
C743 O723 1.255 1_655 S
C743 O724 1.249 1_655 S
C743 C737 1.516 . S
H744 C730 0.930 . S
H745 C731 0.931 . S
H746 C732 0.931 . S
H747 C733 0.933 . S
H748 C739 0.930 . S
H749 C740 0.931 . S
H750 C741 0.931 . S
H751 C742 0.933 . S
Dy752 O755 2.307 . S
Dy752 O757 2.395 . S
Dy752 O758 2.379 . S
Dy752 O760 2.339 . S
Dy752 O762 2.298 . S
Dy752 O766 2.275 . S
Dy752 C774 2.738 . S
Dy753 O756 2.298 . S
Dy753 O759 2.275 . S
Dy753 O761 2.307 . S
Dy753 O763 2.395 . S
Dy753 O764 2.379 . S
Dy753 O767 2.339 . S
Dy753 C783 2.738 . S
C754 O766 1.254 . S
C754 O767 1.257 . S
O755 Dy752 2.307 . S
O755 C765 1.266 . S
O756 Dy753 2.298 . S
O756 C765 1.236 . S
O757 Dy752 2.395 . S
O757 C774 1.255 . S
O758 Dy752 2.379 . S
O758 C774 1.249 . S
O759 Dy753 2.275 . S
O759 C775 1.254 . S
O760 Dy752 2.339 . S
O760 C775 1.257 . S
O761 Dy753 2.307 . S
O761 C776 1.266 . S
O762 Dy752 2.298 . S
O762 C776 1.236 . S
O763 Dy753 2.395 . S
O763 C783 1.255 . S
O764 Dy753 2.379 . S
O764 C783 1.249 . S
C765 O755 1.266 . S
C765 O756 1.236 . S
O766 Dy752 2.275 . S
O766 C754 1.254 . S
O767 Dy753 2.339 . S
O767 C754 1.257 . S
C768 C771 1.344 . S
C768 C772 1.328 . S
C768 C774 1.516 . S
C769 C770 1.304 . S
C769 C773 1.323 . S
C770 C769 1.304 . S
C770 C771 1.371 . S
C770 H784 0.930 . S
C771 C768 1.344 . S
C771 C770 1.371 . S
C771 H785 0.931 . S
C772 C768 1.328 . S
C772 C773 1.433 . S
C772 H786 0.931 . S
C773 C769 1.323 . S
C773 C772 1.433 . S
C773 H787 0.933 . S
C774 Dy752 2.738 . S
C774 O757 1.255 . S
C774 O758 1.249 . S
C774 C768 1.516 . S
C775 O759 1.254 . S
C775 O760 1.257 . S
C776 O761 1.266 . S
C776 O762 1.236 . S
C777 C780 1.344 . S
C777 C781 1.328 . S
C777 C783 1.516 . S
C778 C779 1.304 . S
C778 C782 1.323 . S
C779 C778 1.304 . S
C779 C780 1.371 . S
C779 H788 0.930 . S
C780 C777 1.344 . S
C780 C779 1.371 . S
C780 H789 0.931 . S
C781 C777 1.328 . S
C781 C782 1.433 . S
C781 H790 0.931 . S
C782 C778 1.323 . S
C782 C781 1.433 . S
C782 H791 0.933 . S
C783 Dy753 2.738 . S
C783 O763 1.255 . S
C783 O764 1.249 . S
C783 C777 1.516 . S
H784 C770 0.930 . S
H785 C771 0.931 . S
H786 C772 0.931 . S
H787 C773 0.933 . S
H788 C779 0.930 . S
H789 C780 0.931 . S
H790 C781 0.931 . S
H791 C782 0.933 . S
Dy792 O795 2.307 . S
Dy792 O797 2.395 . S
Dy792 O798 2.379 . S
Dy792 O800 2.339 . S
Dy792 O802 2.298 . S
Dy792 O806 2.275 . S
Dy792 C814 2.738 . S
Dy793 O796 2.298 . S
Dy793 O799 2.275 . S
Dy793 O801 2.307 . S
Dy793 O803 2.395 . S
Dy793 O804 2.379 . S
Dy793 O807 2.339 . S
Dy793 C823 2.738 . S
C794 O806 1.254 . S
C794 O807 1.257 . S
O795 Dy792 2.307 . S
O795 C805 1.266 . S
O796 Dy793 2.298 . S
O796 C805 1.236 . S
O797 Dy792 2.395 . S
O797 C814 1.255 . S
O798 Dy792 2.379 . S
O798 C814 1.249 . S
O799 Dy793 2.275 . S
O799 C815 1.254 . S
O800 Dy792 2.339 . S
O800 C815 1.257 . S
O801 Dy793 2.307 . S
O801 C816 1.266 . S
O802 Dy792 2.298 . S
O802 C816 1.236 . S
O803 Dy793 2.395 . S
O803 C823 1.255 . S
O804 Dy793 2.379 . S
O804 C823 1.249 . S
C805 O795 1.266 . S
C805 O796 1.236 . S
O806 Dy792 2.275 . S
O806 C794 1.254 . S
O807 Dy793 2.339 . S
O807 C794 1.257 . S
C808 C811 1.344 . S
C808 C812 1.328 . S
C808 C814 1.516 . S
C809 C810 1.304 . S
C809 C813 1.323 . S
C810 C809 1.304 . S
C810 C811 1.371 . S
C810 H824 0.930 . S
C811 C808 1.344 . S
C811 C810 1.371 . S
C811 H825 0.931 . S
C812 C808 1.328 . S
C812 C813 1.433 . S
C812 H826 0.931 . S
C813 C809 1.323 . S
C813 C812 1.433 . S
C813 H827 0.933 . S
C814 Dy792 2.738 . S
C814 O797 1.255 . S
C814 O798 1.249 . S
C814 C808 1.516 . S
C815 O799 1.254 . S
C815 O800 1.257 . S
C816 O801 1.266 . S
C816 O802 1.236 . S
C817 C820 1.344 . S
C817 C821 1.328 . S
C817 C823 1.516 . S
C818 C819 1.304 . S
C818 C822 1.323 . S
C819 C818 1.304 . S
C819 C820 1.371 . S
C819 H828 0.930 . S
C820 C817 1.344 . S
C820 C819 1.371 . S
C820 H829 0.931 . S
C821 C817 1.328 . S
C821 C822 1.433 . S
C821 H830 0.931 . S
C822 C818 1.323 . S
C822 C821 1.433 . S
C822 H831 0.933 1_556 S
C823 Dy793 2.738 . S
C823 O803 1.255 . S
C823 O804 1.249 . S
C823 C817 1.516 . S
H824 C810 0.930 . S
H825 C811 0.931 . S
H826 C812 0.931 . S
H827 C813 0.933 . S
H828 C819 0.930 . S
H829 C820 0.931 . S
H830 C821 0.931 . S
H831 C822 0.933 1_554 S
Dy832 O835 2.307 . S
Dy832 O837 2.395 . S
Dy832 O838 2.379 . S
Dy832 O840 2.339 . S
Dy832 O842 2.298 . S
Dy832 O846 2.275 . S
Dy832 C854 2.738 . S
Dy833 O836 2.298 . S
Dy833 O839 2.275 . S
Dy833 O841 2.307 . S
Dy833 O843 2.395 . S
Dy833 O844 2.379 . S
Dy833 O847 2.339 . S
Dy833 C863 2.738 . S
C834 O846 1.254 . S
C834 O847 1.257 . S
O835 Dy832 2.307 . S
O835 C845 1.266 . S
O836 Dy833 2.298 . S
O836 C845 1.236 . S
O837 Dy832 2.395 . S
O837 C854 1.255 . S
O838 Dy832 2.379 . S
O838 C854 1.249 . S
O839 Dy833 2.275 . S
O839 C855 1.254 . S
O840 Dy832 2.339 . S
O840 C855 1.257 . S
O841 Dy833 2.307 . S
O841 C856 1.266 . S
O842 Dy832 2.298 . S
O842 C856 1.236 . S
O843 Dy833 2.395 . S
O843 C863 1.255 . S
O844 Dy833 2.379 . S
O844 C863 1.249 . S
C845 O835 1.266 . S
C845 O836 1.236 . S
O846 Dy832 2.275 . S
O846 C834 1.254 . S
O847 Dy833 2.339 . S
O847 C834 1.257 . S
C848 C851 1.344 . S
C848 C852 1.328 . S
C848 C854 1.516 . S
C849 C850 1.304 . S
C849 C853 1.323 . S
C850 C849 1.304 . S
C850 C851 1.371 . S
C850 H864 0.930 . S
C851 C848 1.344 . S
C851 C850 1.371 . S
C851 H865 0.931 . S
C852 C848 1.328 . S
C852 C853 1.433 . S
C852 H866 0.931 . S
C853 C849 1.323 . S
C853 C852 1.433 . S
C853 H867 0.933 . S
C854 Dy832 2.738 . S
C854 O837 1.255 . S
C854 O838 1.249 . S
C854 C848 1.516 . S
C855 O839 1.254 . S
C855 O840 1.257 . S
C856 O841 1.266 . S
C856 O842 1.236 . S
C857 C860 1.344 . S
C857 C861 1.328 . S
C857 C863 1.516 . S
C858 C859 1.304 . S
C858 C862 1.323 . S
C859 C858 1.304 . S
C859 C860 1.371 . S
C859 H868 0.930 . S
C860 C857 1.344 . S
C860 C859 1.371 . S
C860 H869 0.931 . S
C861 C857 1.328 . S
C861 C862 1.433 . S
C861 H870 0.931 . S
C862 C858 1.323 . S
C862 C861 1.433 . S
C862 H871 0.933 . S
C863 Dy833 2.738 . S
C863 O843 1.255 . S
C863 O844 1.249 . S
C863 C857 1.516 . S
H864 C850 0.930 . S
H865 C851 0.931 . S
H866 C852 0.931 . S
H867 C853 0.933 . S
H868 C859 0.930 . S
H869 C860 0.931 . S
H870 C861 0.931 . S
H871 C862 0.933 . S
Dy872 O875 2.307 . S
Dy872 O877 2.395 . S
Dy872 O878 2.379 . S
Dy872 O880 2.339 . S
Dy872 O882 2.298 . S
Dy872 O886 2.275 . S
Dy872 C894 2.738 . S
Dy873 O876 2.298 . S
Dy873 O879 2.275 . S
Dy873 O881 2.307 . S
Dy873 O883 2.395 . S
Dy873 O884 2.379 . S
Dy873 O887 2.339 . S
Dy873 C903 2.738 . S
C874 O886 1.254 . S
C874 O887 1.257 . S
O875 Dy872 2.307 . S
O875 C885 1.266 . S
O876 Dy873 2.298 . S
O876 C885 1.236 . S
O877 Dy872 2.395 . S
O877 C894 1.255 . S
O878 Dy872 2.379 . S
O878 C894 1.249 . S
O879 Dy873 2.275 . S
O879 C895 1.254 . S
O880 Dy872 2.339 . S
O880 C895 1.257 . S
O881 Dy873 2.307 . S
O881 C896 1.266 . S
O882 Dy872 2.298 . S
O882 C896 1.236 . S
O883 Dy873 2.395 . S
O883 C903 1.255 . S
O884 Dy873 2.379 . S
O884 C903 1.249 . S
C885 O875 1.266 . S
C885 O876 1.236 . S
O886 Dy872 2.275 . S
O886 C874 1.254 . S
O887 Dy873 2.339 . S
O887 C874 1.257 . S
C888 C891 1.344 . S
C888 C892 1.328 . S
C888 C894 1.516 . S
C889 C890 1.304 . S
C889 C893 1.323 . S
C890 C889 1.304 . S
C890 C891 1.371 . S
C890 H904 0.930 . S
C891 C888 1.344 . S
C891 C890 1.371 . S
C891 H905 0.931 . S
C892 C888 1.328 . S
C892 C893 1.433 . S
C892 H906 0.931 . S
C893 C889 1.323 . S
C893 C892 1.433 . S
C893 H907 0.933 . S
C894 Dy872 2.738 . S
C894 O877 1.255 . S
C894 O878 1.249 . S
C894 C888 1.516 . S
C895 O879 1.254 . S
C895 O880 1.257 . S
C896 O881 1.266 . S
C896 O882 1.236 . S
C897 C900 1.344 . S
C897 C901 1.328 . S
C897 C903 1.516 . S
C898 C899 1.304 . S
C898 C902 1.323 . S
C899 C898 1.304 . S
C899 C900 1.371 . S
C899 H908 0.930 . S
C900 C897 1.344 . S
C900 C899 1.371 . S
C900 H909 0.931 . S
C901 C897 1.328 . S
C901 C902 1.433 . S
C901 H910 0.931 . S
C902 C898 1.323 . S
C902 C901 1.433 . S
C902 H911 0.933 . S
C903 Dy873 2.738 . S
C903 O883 1.255 . S
C903 O884 1.249 . S
C903 C897 1.516 . S
H904 C890 0.930 . S
H905 C891 0.931 . S
H906 C892 0.931 . S
H907 C893 0.933 . S
H908 C899 0.930 . S
H909 C900 0.931 . S
H910 C901 0.931 . S
H911 C902 0.933 . S
Dy912 O915 2.307 1_655 S
Dy912 O917 2.395 . S
Dy912 O918 2.379 . S
Dy912 O920 2.339 1_655 S
Dy912 O922 2.298 1_655 S
Dy912 O926 2.275 1_655 S
Dy912 C934 2.738 . S
Dy913 O916 2.298 . S
Dy913 O919 2.275 . S
Dy913 O921 2.307 . S
Dy913 O923 2.395 . S
Dy913 O924 2.379 . S
Dy913 O927 2.339 1_554 S
Dy913 C943 2.738 . S
C914 O926 1.254 . S
C914 O927 1.257 1_554 S
O915 Dy912 2.307 1_455 S
O915 C925 1.266 . S
O916 Dy913 2.298 . S
O916 C925 1.236 . S
O917 Dy912 2.395 . S
O917 C934 1.255 . S
O918 Dy912 2.379 . S
O918 C934 1.249 . S
O919 Dy913 2.275 . S
O919 C935 1.254 . S
O920 Dy912 2.339 1_455 S
O920 C935 1.257 . S
O921 Dy913 2.307 . S
O921 C936 1.266 . S
O922 Dy912 2.298 1_455 S
O922 C936 1.236 . S
O923 Dy913 2.395 . S
O923 C943 1.255 . S
O924 Dy913 2.379 . S
O924 C943 1.249 . S
C925 O915 1.266 . S
C925 O916 1.236 . S
O926 Dy912 2.275 1_455 S
O926 C914 1.254 . S
O927 Dy913 2.339 1_556 S
O927 C914 1.257 1_556 S
C928 C931 1.344 . S
C928 C932 1.328 . S
C928 C934 1.516 . S
C929 C930 1.304 . S
C929 C933 1.323 . S
C930 C929 1.304 . S
C930 C931 1.371 . S
C930 H944 0.930 . S
C931 C928 1.344 . S
C931 C930 1.371 . S
C931 H945 0.931 . S
C932 C928 1.328 . S
C932 C933 1.433 . S
C932 H946 0.931 . S
C933 C929 1.323 . S
C933 C932 1.433 . S
C933 H947 0.933 . S
C934 Dy912 2.738 . S
C934 O917 1.255 . S
C934 O918 1.249 . S
C934 C928 1.516 . S
C935 O919 1.254 . S
C935 O920 1.257 . S
C936 O921 1.266 . S
C936 O922 1.236 . S
C937 C940 1.344 . S
C937 C941 1.328 . S
C937 C943 1.516 . S
C938 C939 1.304 . S
C938 C942 1.323 1_554 S
C939 C938 1.304 . S
C939 C940 1.371 . S
C939 H948 0.930 . S
C940 C937 1.344 . S
C940 C939 1.371 . S
C940 H949 0.931 . S
C941 C937 1.328 . S
C941 C942 1.433 1_554 S
C941 H950 0.931 1_554 S
C942 C938 1.323 1_556 S
C942 C941 1.433 1_556 S
C942 H951 0.933 . S
C943 Dy913 2.738 . S
C943 O923 1.255 . S
C943 O924 1.249 . S
C943 C937 1.516 . S
H944 C930 0.930 . S
H945 C931 0.931 . S
H946 C932 0.931 . S
H947 C933 0.933 . S
H948 C939 0.930 . S
H949 C940 0.931 . S
H950 C941 0.931 1_556 S
H951 C942 0.933 . S
C952 C953 1.387 . S
C952 H956 0.950 . S
C952 C961 1.390 . S
C953 C952 1.387 . S
C953 C955 1.387 . S
H954 C961 0.950 . S
C955 C953 1.387 . S
C955 C957 1.390 . S
C955 H959 0.950 1_554 S
H956 C952 0.950 . S
C957 C955 1.390 . S
C957 C958 1.387 . S
C957 H960 0.950 . S
C958 C957 1.387 . S
C958 C961 1.387 . S
H959 C955 0.950 1_556 S
H960 C957 0.950 . S
C961 C952 1.390 . S
C961 H954 0.950 . S
C961 C958 1.387 . S
C962 C963 1.387 . S
C962 H966 0.950 . S
C962 C971 1.390 . S
C963 C962 1.387 . S
C963 C965 1.387 . S
H964 C971 0.950 . S
C965 C963 1.387 . S
C965 C967 1.390 . S
C965 H969 0.950 . S
H966 C962 0.950 . S
C967 C965 1.390 . S
C967 C968 1.387 . S
C967 H970 0.950 . S
C968 C967 1.387 . S
C968 C971 1.387 . S
H969 C965 0.950 . S
H970 C967 0.950 . S
C971 C962 1.390 . S
C971 H964 0.950 . S
C971 C968 1.387 . S
C972 C973 1.387 . S
C972 H976 0.950 . S
C972 C981 1.390 . S
C973 C972 1.387 . S
C973 C975 1.387 . S
H974 C981 0.950 . S
C975 C973 1.387 . S
C975 C977 1.390 . S
C975 H979 0.950 . S
H976 C972 0.950 . S
C977 C975 1.390 . S
C977 C978 1.387 . S
C977 H980 0.950 . S
C978 C977 1.387 . S
C978 C981 1.387 . S
H979 C975 0.950 . S
H980 C977 0.950 . S
C981 C972 1.390 . S
C981 H974 0.950 . S
C981 C978 1.387 . S
C982 C983 1.387 . S
C982 H986 0.950 . S
C982 C991 1.390 . S
C983 C982 1.387 . S
C983 C985 1.387 . S
H984 C991 0.950 . S
C985 C983 1.387 . S
C985 C987 1.390 . S
C985 H989 0.950 . S
H986 C982 0.950 . S
C987 C985 1.390 . S
C987 C988 1.387 . S
C987 H990 0.950 . S
C988 C987 1.387 . S
C988 C991 1.387 . S
H989 C985 0.950 . S
H990 C987 0.950 . S
C991 C982 1.390 . S
C991 H984 0.950 . S
C991 C988 1.387 . S
C992 C993 1.387 . S
C992 H996 0.950 . S
C992 C1001 1.390 . S
C993 C992 1.387 . S
C993 C995 1.387 . S
H994 C1001 0.950 . S
C995 C993 1.387 . S
C995 C997 1.390 . S
C995 H999 0.950 . S
H996 C992 0.950 . S
C997 C995 1.390 . S
C997 C998 1.387 . S
C997 H1000 0.950 . S
C998 C997 1.387 . S
C998 C1001 1.387 . S
H999 C995 0.950 . S
H1000 C997 0.950 . S
C1001 C992 1.390 . S
C1001 H994 0.950 . S
C1001 C998 1.387 . S
C1002 C1003 1.387 . S
C1002 H1006 0.950 . S
C1002 C1011 1.390 . S
C1003 C1002 1.387 . S
C1003 C1005 1.387 . S
H1004 C1011 0.950 . S
C1005 C1003 1.387 . S
C1005 C1007 1.390 . S
C1005 H1009 0.950 . S
H1006 C1002 0.950 . S
C1007 C1005 1.390 . S
C1007 C1008 1.387 . S
C1007 H1010 0.950 . S
C1008 C1007 1.387 . S
C1008 C1011 1.387 . S
H1009 C1005 0.950 . S
H1010 C1007 0.950 . S
C1011 C1002 1.390 . S
C1011 H1004 0.950 . S
C1011 C1008 1.387 . S
C1012 C1013 1.387 . S
C1012 H1016 0.950 . S
C1012 C1021 1.390 . S
C1013 C1012 1.387 . S
C1013 C1015 1.387 . S
H1014 C1021 0.950 . S
C1015 C1013 1.387 . S
C1015 C1017 1.390 . S
C1015 H1019 0.950 . S
H1016 C1012 0.950 . S
C1017 C1015 1.390 . S
C1017 C1018 1.387 . S
C1017 H1020 0.950 . S
C1018 C1017 1.387 . S
C1018 C1021 1.387 . S
H1019 C1015 0.950 . S
H1020 C1017 0.950 . S
C1021 C1012 1.390 . S
C1021 H1014 0.950 . S
C1021 C1018 1.387 . S
C1022 C1023 1.387 . S
C1022 H1026 0.950 . S
C1022 C1031 1.390 . S
C1023 C1022 1.387 . S
C1023 C1025 1.387 . S
H1024 C1031 0.950 . S
C1025 C1023 1.387 . S
C1025 C1027 1.390 . S
C1025 H1029 0.950 . S
H1026 C1022 0.950 . S
C1027 C1025 1.390 . S
C1027 C1028 1.387 . S
C1027 H1030 0.950 . S
C1028 C1027 1.387 . S
C1028 C1031 1.387 . S
H1029 C1025 0.950 . S
H1030 C1027 0.950 . S
C1031 C1022 1.390 . S
C1031 H1024 0.950 . S
C1031 C1028 1.387 . S
C1032 C1033 1.387 1_455 S
C1032 H1036 0.950 . S
C1032 C1041 1.390 . S
C1033 C1032 1.387 1_655 S
C1033 C1035 1.387 . S
H1034 C1041 0.950 . S
C1035 C1033 1.387 . S
C1035 C1037 1.390 1_655 S
C1035 H1039 0.950 . S
H1036 C1032 0.950 . S
C1037 C1035 1.390 1_455 S
C1037 C1038 1.387 . S
C1037 H1040 0.951 1_455 S
C1038 C1037 1.387 . S
C1038 C1041 1.387 . S
H1039 C1035 0.950 . S
H1040 C1037 0.951 1_655 S
C1041 C1032 1.390 . S
C1041 H1034 0.950 . S
C1041 C1038 1.387 . S
C1042 C1043 1.387 . S
C1042 H1046 0.950 . S
C1042 C1051 1.390 . S
C1043 C1042 1.387 . S
C1043 C1045 1.387 . S
H1044 C1051 0.950 . S
C1045 C1043 1.387 . S
C1045 C1047 1.390 . S
C1045 H1049 0.950 . S
H1046 C1042 0.950 . S
C1047 C1045 1.390 . S
C1047 C1048 1.387 . S
C1047 H1050 0.950 . S
C1048 C1047 1.387 . S
C1048 C1051 1.387 . S
H1049 C1045 0.950 . S
H1050 C1047 0.950 . S
C1051 C1042 1.390 . S
C1051 H1044 0.950 . S
C1051 C1048 1.387 . S
C1052 C1053 1.387 . S
C1052 H1056 0.950 . S
C1052 C1061 1.390 . S
C1053 C1052 1.387 . S
C1053 C1055 1.387 . S
H1054 C1061 0.950 . S
C1055 C1053 1.387 . S
C1055 C1057 1.390 . S
C1055 H1059 0.950 . S
H1056 C1052 0.950 . S
C1057 C1055 1.390 . S
C1057 C1058 1.387 . S
C1057 H1060 0.950 . S
C1058 C1057 1.387 . S
C1058 C1061 1.387 . S
H1059 C1055 0.950 . S
H1060 C1057 0.950 . S
C1061 C1052 1.390 . S
C1061 H1054 0.950 . S
C1061 C1058 1.387 . S
C1062 C1063 1.387 . S
C1062 H1066 0.950 . S
C1062 C1071 1.390 . S
C1063 C1062 1.387 . S
C1063 C1065 1.387 . S
H1064 C1071 0.950 . S
C1065 C1063 1.387 . S
C1065 C1067 1.390 . S
C1065 H1069 0.950 . S
H1066 C1062 0.950 . S
C1067 C1065 1.390 . S
C1067 C1068 1.387 . S
C1067 H1070 0.950 . S
C1068 C1067 1.387 . S
C1068 C1071 1.387 . S
H1069 C1065 0.950 . S
H1070 C1067 0.950 . S
C1071 C1062 1.390 . S
C1071 H1064 0.950 . S
C1071 C1068 1.387 . S
C1072 C1073 1.387 1_455 S
C1072 H1076 0.950 . S
C1072 C1081 1.390 . S
C1073 C1072 1.387 1_655 S
C1073 C1075 1.387 . S
H1074 C1081 0.950 . S
C1075 C1073 1.387 . S
C1075 C1077 1.390 1_655 S
C1075 H1079 0.950 1_545 S
H1076 C1072 0.950 . S
C1077 C1075 1.390 1_455 S
C1077 C1078 1.387 . S
C1077 H1080 0.950 1_545 S
C1078 C1077 1.387 . S
C1078 C1081 1.387 . S
H1079 C1075 0.950 1_565 S
H1080 C1077 0.950 1_565 S
C1081 C1072 1.390 . S
C1081 H1074 0.950 . S
C1081 C1078 1.387 . S
C1082 C1083 1.387 . S
C1082 H1086 0.950 . S
C1082 C1091 1.390 . S
C1083 C1082 1.387 . S
C1083 C1085 1.387 . S
H1084 C1091 0.950 . S
C1085 C1083 1.387 . S
C1085 C1087 1.390 . S
C1085 H1089 0.950 . S
H1086 C1082 0.950 . S
C1087 C1085 1.390 . S
C1087 C1088 1.387 . S
C1087 H1090 0.950 . S
C1088 C1087 1.387 . S
C1088 C1091 1.387 . S
H1089 C1085 0.950 . S
H1090 C1087 0.950 . S
C1091 C1082 1.390 . S
C1091 H1084 0.950 . S
C1091 C1088 1.387 . S
C1092 C1093 1.387 . S
C1092 H1096 0.950 . S
C1092 C1101 1.390 . S
C1093 C1092 1.387 . S
C1093 C1095 1.387 . S
H1094 C1101 0.950 . S
C1095 C1093 1.387 . S
C1095 C1097 1.390 . S
C1095 H1099 0.950 . S
H1096 C1092 0.950 . S
C1097 C1095 1.390 . S
C1097 C1098 1.387 . S
C1097 H1100 0.950 . S
C1098 C1097 1.387 . S
C1098 C1101 1.387 . S
H1099 C1095 0.950 . S
H1100 C1097 0.950 . S
C1101 C1092 1.390 . S
C1101 H1094 0.950 . S
C1101 C1098 1.387 . S
C1102 C1103 1.387 . S
C1102 H1106 0.950 . S
C1102 C1111 1.390 . S
C1103 C1102 1.387 . S
C1103 C1105 1.387 . S
H1104 C1111 0.950 . S
C1105 C1103 1.387 . S
C1105 C1107 1.390 . S
C1105 H1109 0.950 . S
H1106 C1102 0.950 . S
C1107 C1105 1.390 . S
C1107 C1108 1.387 . S
C1107 H1110 0.950 . S
C1108 C1107 1.387 . S
C1108 C1111 1.387 . S
H1109 C1105 0.950 . S
H1110 C1107 0.950 . S
C1111 C1102 1.390 . S
C1111 H1104 0.950 . S
C1111 C1108 1.387 . S
C1112 C1113 1.387 . S
C1112 H1116 0.950 1_554 S
C1112 C1121 1.390 1_565 S
C1113 C1112 1.387 . S
C1113 C1115 1.387 . S
H1114 C1121 0.950 . S
C1115 C1113 1.387 . S
C1115 C1117 1.390 1_565 S
C1115 H1119 0.950 . S
H1116 C1112 0.950 1_556 S
C1117 C1115 1.390 1_545 S
C1117 C1118 1.387 . S
C1117 H1120 0.950 . S
C1118 C1117 1.387 . S
C1118 C1121 1.387 . S
H1119 C1115 0.950 . S
H1120 C1117 0.950 . S
C1121 C1112 1.390 1_545 S
C1121 H1114 0.950 . S
C1121 C1118 1.387 . S
C1122 C1123 1.387 . S
C1122 H1126 0.950 . S
C1122 C1131 1.390 . S
C1123 C1122 1.387 . S
C1123 C1125 1.387 1_554 S
H1124 C1131 0.950 . S
C1125 C1123 1.387 1_556 S
C1125 C1127 1.386 1_556 S
C1125 H1129 0.950 . S
H1126 C1122 0.950 . S
C1127 C1125 1.386 1_554 S
C1127 C1128 1.401 . S
C1127 H1130 0.940 1_554 S
C1128 C1127 1.401 . S
C1128 C1131 1.387 . S
H1129 C1125 0.950 . S
H1130 C1127 0.940 1_556 S
C1131 C1122 1.390 . S
C1131 H1124 0.950 . S
C1131 C1128 1.387 . S
C1132 C1133 1.387 . S
C1132 H1136 0.950 . S
C1132 C1141 1.390 . S
C1133 C1132 1.387 . S
C1133 C1135 1.387 . S
H1134 C1141 0.950 . S
C1135 C1133 1.387 . S
C1135 C1137 1.390 . S
C1135 H1139 0.950 . S
H1136 C1132 0.950 . S
C1137 C1135 1.390 . S
C1137 C1138 1.387 . S
C1137 H1140 0.950 . S
C1138 C1137 1.387 . S
C1138 C1141 1.387 . S
H1139 C1135 0.950 . S
H1140 C1137 0.950 . S
C1141 C1132 1.390 . S
C1141 H1134 0.950 . S
C1141 C1138 1.387 . S
C1142 C1143 1.387 . S
C1142 H1146 0.950 . S
C1142 C1151 1.390 . S
C1143 C1142 1.387 . S
C1143 C1145 1.387 . S
H1144 C1151 0.950 . S
C1145 C1143 1.387 . S
C1145 C1147 1.390 . S
C1145 H1149 0.950 . S
H1146 C1142 0.950 . S
C1147 C1145 1.390 . S
C1147 C1148 1.387 . S
C1147 H1150 0.950 . S
C1148 C1147 1.387 . S
C1148 C1151 1.387 . S
H1149 C1145 0.950 . S
H1150 C1147 0.950 . S
C1151 C1142 1.390 . S
C1151 H1144 0.950 . S
C1151 C1148 1.387 . S
C1152 C1153 1.387 . S
C1152 H1156 0.950 . S
C1152 C1161 1.390 . S
C1153 C1152 1.387 . S
C1153 C1155 1.387 . S
H1154 C1161 0.950 . S
C1155 C1153 1.387 . S
C1155 C1157 1.390 . S
C1155 H1159 0.950 . S
H1156 C1152 0.950 . S
C1157 C1155 1.390 . S
C1157 C1158 1.387 . S
C1157 H1160 0.950 . S
C1158 C1157 1.387 . S
C1158 C1161 1.387 . S
H1159 C1155 0.950 . S
H1160 C1157 0.950 . S
C1161 C1152 1.390 . S
C1161 H1154 0.950 . S
C1161 C1158 1.387 . S
C1162 C1163 1.387 . S
C1162 H1166 0.950 . S
C1162 C1171 1.390 . S
C1163 C1162 1.387 . S
C1163 C1165 1.387 . S
H1164 C1171 0.950 . S
C1165 C1163 1.387 . S
C1165 C1167 1.390 . S
C1165 H1169 0.950 . S
H1166 C1162 0.950 . S
C1167 C1165 1.390 . S
C1167 C1168 1.387 . S
C1167 H1170 0.950 . S
C1168 C1167 1.387 . S
C1168 C1171 1.387 . S
H1169 C1165 0.950 . S
H1170 C1167 0.950 . S
C1171 C1162 1.390 . S
C1171 H1164 0.950 . S
C1171 C1168 1.387 . S
C1172 C1173 1.387 . S
C1172 H1176 0.950 . S
C1172 C1181 1.390 . S
C1173 C1172 1.387 . S
C1173 C1175 1.387 . S
H1174 C1181 0.950 . S
C1175 C1173 1.387 . S
C1175 C1177 1.390 . S
C1175 H1179 0.950 . S
H1176 C1172 0.950 . S
C1177 C1175 1.390 . S
C1177 C1178 1.387 . S
C1177 H1180 0.950 . S
C1178 C1177 1.387 . S
C1178 C1181 1.387 . S
H1179 C1175 0.950 . S
H1180 C1177 0.950 . S
C1181 C1172 1.390 . S
C1181 H1174 0.950 . S
C1181 C1178 1.387 . S
C1182 C1183 1.387 . S
C1182 H1186 0.950 . S
C1182 C1191 1.390 . S
C1183 C1182 1.387 . S
C1183 C1185 1.387 . S
H1184 C1191 0.950 . S
C1185 C1183 1.387 . S
C1185 C1187 1.390 . S
C1185 H1189 0.950 . S
H1186 C1182 0.950 . S
C1187 C1185 1.390 . S
C1187 C1188 1.387 . S
C1187 H1190 0.950 . S
C1188 C1187 1.387 . S
C1188 C1191 1.387 . S
H1189 C1185 0.950 . S
H1190 C1187 0.950 . S
C1191 C1182 1.390 . S
C1191 H1184 0.950 . S
C1191 C1188 1.387 . S
C1192 C1193 1.387 . S
C1192 H1196 0.950 . S
C1192 C1201 1.390 . S
C1193 C1192 1.387 . S
C1193 C1195 1.387 . S
H1194 C1201 0.950 . S
C1195 C1193 1.387 . S
C1195 C1197 1.390 . S
C1195 H1199 0.950 . S
H1196 C1192 0.950 . S
C1197 C1195 1.390 . S
C1197 C1198 1.387 . S
C1197 H1200 0.950 . S
C1198 C1197 1.387 . S
C1198 C1201 1.387 . S
H1199 C1195 0.950 . S
H1200 C1197 0.950 . S
C1201 C1192 1.390 . S
C1201 H1194 0.950 . S
C1201 C1198 1.387 . S
C1202 C1203 1.387 . S
C1202 H1206 0.950 . S
C1202 C1211 1.390 . S
C1203 C1202 1.387 . S
C1203 C1205 1.387 . S
H1204 C1211 0.950 . S
C1205 C1203 1.387 . S
C1205 C1207 1.390 . S
C1205 H1209 0.950 . S
H1206 C1202 0.950 . S
C1207 C1205 1.390 . S
C1207 C1208 1.387 . S
C1207 H1210 0.950 . S
C1208 C1207 1.387 . S
C1208 C1211 1.387 . S
H1209 C1205 0.950 . S
H1210 C1207 0.950 . S
C1211 C1202 1.390 . S
C1211 H1204 0.950 . S
C1211 C1208 1.387 . S
C1212 C1213 1.387 . S
C1212 H1216 0.950 . S
C1212 C1221 1.390 . S
C1213 C1212 1.387 . S
C1213 C1215 1.387 . S
H1214 C1221 0.950 . S
C1215 C1213 1.387 . S
C1215 C1217 1.390 . S
C1215 H1219 0.950 . S
H1216 C1212 0.950 . S
C1217 C1215 1.390 . S
C1217 C1218 1.387 . S
C1217 H1220 0.950 . S
C1218 C1217 1.387 . S
C1218 C1221 1.387 . S
H1219 C1215 0.950 . S
H1220 C1217 0.950 . S
C1221 C1212 1.390 . S
C1221 H1214 0.950 . S
C1221 C1218 1.387 . S
C1222 C1223 1.387 . S
C1222 H1226 0.950 . S
C1222 C1231 1.390 . S
C1223 C1222 1.387 . S
C1223 C1225 1.387 . S
H1224 C1231 0.950 . S
C1225 C1223 1.387 . S
C1225 C1227 1.390 . S
C1225 H1229 0.950 . S
H1226 C1222 0.950 . S
C1227 C1225 1.390 . S
C1227 C1228 1.387 . S
C1227 H1230 0.950 . S
C1228 C1227 1.387 . S
C1228 C1231 1.387 . S
H1229 C1225 0.950 . S
H1230 C1227 0.950 . S
C1231 C1222 1.390 . S
C1231 H1224 0.950 . S
C1231 C1228 1.387 . S
C1232 C1233 1.387 . S
C1232 H1236 0.950 . S
C1232 C1241 1.390 . S
C1233 C1232 1.387 . S
C1233 C1235 1.387 . S
H1234 C1241 0.950 . S
C1235 C1233 1.387 . S
C1235 C1237 1.390 . S
C1235 H1239 0.950 1_455 S
H1236 C1232 0.950 . S
C1237 C1235 1.390 . S
C1237 C1238 1.387 . S
C1237 H1240 0.950 1_455 S
C1238 C1237 1.387 . S
C1238 C1241 1.387 . S
H1239 C1235 0.950 1_655 S
H1240 C1237 0.950 1_655 S
C1241 C1232 1.390 . S
C1241 H1234 0.950 . S
C1241 C1238 1.387 . S
C1242 C1243 1.387 . S
C1242 H1246 0.950 . S
C1242 C1251 1.390 . S
C1243 C1242 1.387 . S
C1243 C1245 1.387 . S
H1244 C1251 0.950 . S
C1245 C1243 1.387 . S
C1245 C1247 1.390 . S
C1245 H1249 0.950 . S
H1246 C1242 0.950 . S
C1247 C1245 1.390 . S
C1247 C1248 1.387 . S
C1247 H1250 0.950 . S
C1248 C1247 1.387 . S
C1248 C1251 1.387 . S
H1249 C1245 0.950 . S
H1250 C1247 0.950 . S
C1251 C1242 1.390 . S
C1251 H1244 0.950 . S
C1251 C1248 1.387 . S
C1252 C1253 1.387 . S
C1252 H1256 0.950 . S
C1252 C1261 1.390 . S
C1253 C1252 1.387 . S
C1253 C1255 1.387 . S
H1254 C1261 0.950 1_545 S
C1255 C1253 1.387 . S
C1255 C1257 1.390 . S
C1255 H1259 0.950 . S
H1256 C1252 0.950 . S
C1257 C1255 1.390 . S
C1257 C1258 1.387 . S
C1257 H1260 0.950 1_556 S
C1258 C1257 1.387 . S
C1258 C1261 1.387 . S
H1259 C1255 0.950 . S
H1260 C1257 0.950 1_554 S
C1261 C1252 1.390 . S
C1261 H1254 0.950 1_565 S
C1261 C1258 1.387 . S
C1262 C1263 1.387 . S
C1262 H1266 0.950 . S
C1262 C1271 1.390 . S
C1263 C1262 1.387 . S
C1263 C1265 1.387 . S
H1264 C1271 0.950 . S
C1265 C1263 1.387 . S
C1265 C1267 1.390 . S
C1265 H1269 0.950 . S
H1266 C1262 0.950 . S
C1267 C1265 1.390 . S
C1267 C1268 1.387 . S
C1267 H1270 0.950 . S
C1268 C1267 1.387 . S
C1268 C1271 1.387 . S
H1269 C1265 0.950 . S
H1270 C1267 0.950 . S
C1271 C1262 1.390 . S
C1271 H1264 0.950 . S
C1271 C1268 1.387 . S
C1272 C1273 1.387 . S
C1272 H1276 0.950 . S
C1272 C1281 1.390 . S
C1273 C1272 1.387 . S
C1273 C1275 1.387 . S
H1274 C1281 0.950 . S
C1275 C1273 1.387 . S
C1275 C1277 1.390 . S
C1275 H1279 0.950 . S
H1276 C1272 0.950 . S
C1277 C1275 1.390 . S
C1277 C1278 1.387 . S
C1277 H1280 0.950 . S
C1278 C1277 1.387 . S
C1278 C1281 1.387 . S
H1279 C1275 0.950 . S
H1280 C1277 0.950 . S
C1281 C1272 1.390 . S
C1281 H1274 0.950 . S
C1281 C1278 1.387 . S
C1282 C1283 1.387 . S
C1282 H1286 0.950 . S
C1282 C1291 1.390 . S
C1283 C1282 1.387 . S
C1283 C1285 1.387 . S
H1284 C1291 0.950 . S
C1285 C1283 1.387 . S
C1285 C1287 1.390 . S
C1285 H1289 0.950 . S
H1286 C1282 0.950 . S
C1287 C1285 1.390 . S
C1287 C1288 1.387 . S
C1287 H1290 0.950 . S
C1288 C1287 1.387 . S
C1288 C1291 1.387 . S
H1289 C1285 0.950 . S
H1290 C1287 0.950 . S
C1291 C1282 1.390 . S
C1291 H1284 0.950 . S
C1291 C1288 1.387 . S
C1292 C1293 1.387 1_565 S
C1292 H1296 0.950 . S
C1292 C1301 1.390 1_565 S
C1293 C1292 1.387 1_545 S
C1293 C1295 1.387 . S
H1294 C1301 0.950 1_565 S
C1295 C1293 1.387 . S
C1295 C1297 1.390 . S
C1295 H1299 0.950 . S
H1296 C1292 0.950 . S
C1297 C1295 1.390 . S
C1297 C1298 1.387 . S
C1297 H1300 0.950 . S
C1298 C1297 1.387 . S
C1298 C1301 1.387 . S
H1299 C1295 0.950 . S
H1300 C1297 0.950 . S
C1301 C1292 1.390 1_545 S
C1301 H1294 0.950 1_545 S
C1301 C1298 1.387 . S
C1302 C1303 1.387 . S
C1302 H1306 0.950 . S
C1302 C1311 1.390 . S
C1303 C1302 1.387 . S
C1303 C1305 1.387 . S
H1304 C1311 0.950 . S
C1305 C1303 1.387 . S
C1305 C1307 1.390 . S
C1305 H1309 0.950 . S
H1306 C1302 0.950 . S
C1307 C1305 1.390 . S
C1307 C1308 1.387 . S
C1307 H1310 0.950 . S
C1308 C1307 1.387 . S
C1308 C1311 1.387 . S
H1309 C1305 0.950 . S
H1310 C1307 0.950 . S
C1311 C1302 1.390 . S
C1311 H1304 0.950 . S
C1311 C1308 1.387 . S
C1312 C1313 1.387 . S
C1312 H1316 0.950 . S
C1312 C1321 1.390 . S
C1313 C1312 1.387 . S
C1313 C1315 1.387 . S
H1314 C1321 0.950 . S
C1315 C1313 1.387 . S
C1315 C1317 1.390 . S
C1315 H1319 0.950 . S
H1316 C1312 0.950 . S
C1317 C1315 1.390 . S
C1317 C1318 1.387 . S
C1317 H1320 0.950 . S
C1318 C1317 1.387 . S
C1318 C1321 1.387 . S
H1319 C1315 0.950 . S
H1320 C1317 0.950 . S
C1321 C1312 1.390 . S
C1321 H1314 0.950 . S
C1321 C1318 1.387 . S
C1322 C1323 1.387 . S
C1322 H1326 0.950 . S
C1322 C1331 1.390 . S
C1323 C1322 1.387 . S
C1323 C1325 1.387 . S
H1324 C1331 0.950 . S
C1325 C1323 1.387 . S
C1325 C1327 1.390 . S
C1325 H1329 0.950 . S
H1326 C1322 0.950 . S
C1327 C1325 1.390 . S
C1327 C1328 1.387 . S
C1327 H1330 0.950 . S
C1328 C1327 1.387 . S
C1328 C1331 1.387 . S
H1329 C1325 0.950 . S
H1330 C1327 0.950 . S
C1331 C1322 1.390 . S
C1331 H1324 0.950 . S
C1331 C1328 1.387 . S
C1332 C1333 1.387 1_565 S
C1332 H1336 0.950 . S
C1332 C1341 1.390 . S
C1333 C1332 1.387 1_545 S
C1333 C1335 1.387 . S
H1334 C1341 0.950 . S
C1335 C1333 1.387 . S
C1335 C1337 1.390 . S
C1335 H1339 0.950 . S
H1336 C1332 0.950 . S
C1337 C1335 1.390 . S
C1337 C1338 1.387 1_545 S
C1337 H1340 0.950 . S
C1338 C1337 1.387 1_565 S
C1338 C1341 1.387 . S
H1339 C1335 0.950 . S
H1340 C1337 0.950 . S
C1341 C1332 1.390 . S
C1341 H1334 0.950 . S
C1341 C1338 1.387 . S
C1342 C1343 1.387 . S
C1342 H1346 0.950 . S
C1342 C1351 1.390 . S
C1343 C1342 1.387 . S
C1343 C1345 1.387 . S
H1344 C1351 0.950 . S
C1345 C1343 1.387 . S
C1345 C1347 1.390 . S
C1345 H1349 0.950 . S
H1346 C1342 0.950 . S
C1347 C1345 1.390 . S
C1347 C1348 1.387 . S
C1347 H1350 0.950 . S
C1348 C1347 1.387 . S
C1348 C1351 1.387 . S
H1349 C1345 0.950 . S
H1350 C1347 0.950 . S
C1351 C1342 1.390 . S
C1351 H1344 0.950 . S
C1351 C1348 1.387 . S
C1352 C1353 1.387 . S
C1352 H1356 0.950 . S
C1352 C1361 1.390 . S
C1353 C1352 1.387 . S
C1353 C1355 1.387 . S
H1354 C1361 0.950 . S
C1355 C1353 1.387 . S
C1355 C1357 1.390 . S
C1355 H1359 0.950 . S
H1356 C1352 0.950 . S
C1357 C1355 1.390 . S
C1357 C1358 1.387 . S
C1357 H1360 0.950 . S
C1358 C1357 1.387 . S
C1358 C1361 1.387 . S
H1359 C1355 0.950 . S
H1360 C1357 0.950 . S
C1361 C1352 1.390 . S
C1361 H1354 0.950 . S
C1361 C1358 1.387 . S
C1362 C1363 1.387 . S
C1362 H1366 0.950 . S
C1362 C1371 1.390 . S
C1363 C1362 1.387 . S
C1363 C1365 1.387 . S
H1364 C1371 0.950 . S
C1365 C1363 1.387 . S
C1365 C1367 1.390 . S
C1365 H1369 0.950 . S
H1366 C1362 0.950 . S
C1367 C1365 1.390 . S
C1367 C1368 1.387 . S
C1367 H1370 0.950 . S
C1368 C1367 1.387 . S
C1368 C1371 1.387 . S
H1369 C1365 0.950 . S
H1370 C1367 0.950 . S
C1371 C1362 1.390 . S
C1371 H1364 0.950 . S
C1371 C1368 1.387 . S
C1372 C1373 1.387 . S
C1372 H1376 0.950 . S
C1372 C1381 1.390 . S
C1373 C1372 1.387 . S
C1373 C1375 1.387 . S
H1374 C1381 0.950 . S
C1375 C1373 1.387 . S
C1375 C1377 1.390 . S
C1375 H1379 0.950 . S
H1376 C1372 0.950 . S
C1377 C1375 1.390 . S
C1377 C1378 1.387 . S
C1377 H1380 0.950 . S
C1378 C1377 1.387 . S
C1378 C1381 1.387 . S
H1379 C1375 0.950 . S
H1380 C1377 0.950 . S
C1381 C1372 1.390 . S
C1381 H1374 0.950 . S
C1381 C1378 1.387 . S
C1382 C1383 1.387 . S
C1382 H1386 0.950 . S
C1382 C1391 1.390 . S
C1383 C1382 1.387 . S
C1383 C1385 1.387 . S
H1384 C1391 0.950 . S
C1385 C1383 1.387 . S
C1385 C1387 1.390 . S
C1385 H1389 0.950 . S
H1386 C1382 0.950 . S
C1387 C1385 1.390 . S
C1387 C1388 1.387 . S
C1387 H1390 0.950 . S
C1388 C1387 1.387 . S
C1388 C1391 1.387 . S
H1389 C1385 0.950 . S
H1390 C1387 0.950 . S
C1391 C1382 1.390 . S
C1391 H1384 0.950 . S
C1391 C1388 1.387 . S
C1392 C1393 1.387 . S
C1392 H1396 0.950 . S
C1392 C1401 1.390 . S
C1393 C1392 1.387 . S
C1393 C1395 1.387 . S
H1394 C1401 0.950 1_565 S
C1395 C1393 1.387 . S
C1395 C1397 1.390 . S
C1395 H1399 0.950 . S
H1396 C1392 0.950 . S
C1397 C1395 1.390 . S
C1397 C1398 1.387 . S
C1397 H1400 0.950 . S
C1398 C1397 1.387 . S
C1398 C1401 1.387 . S
H1399 C1395 0.950 . S
H1400 C1397 0.950 . S
C1401 C1392 1.390 . S
C1401 H1394 0.950 1_545 S
C1401 C1398 1.387 . S
C1402 C1403 1.387 . S
C1402 H1406 0.950 . S
C1402 C1411 1.390 . S
C1403 C1402 1.387 . S
C1403 C1405 1.387 . S
H1404 C1411 0.950 . S
C1405 C1403 1.387 . S
C1405 C1407 1.390 . S
C1405 H1409 0.950 . S
H1406 C1402 0.950 . S
C1407 C1405 1.390 . S
C1407 C1408 1.387 . S
C1407 H1410 0.950 . S
C1408 C1407 1.387 . S
C1408 C1411 1.387 . S
H1409 C1405 0.950 . S
H1410 C1407 0.950 . S
C1411 C1402 1.390 . S
C1411 H1404 0.950 . S
C1411 C1408 1.387 . S
C1412 C1413 1.387 . S
C1412 H1416 0.950 . S
C1412 C1421 1.390 . S
C1413 C1412 1.387 . S
C1413 C1415 1.387 . S
H1414 C1421 0.950 . S
C1415 C1413 1.387 . S
C1415 C1417 1.390 . S
C1415 H1419 0.950 . S
H1416 C1412 0.950 . S
C1417 C1415 1.390 . S
C1417 C1418 1.387 . S
C1417 H1420 0.950 . S
C1418 C1417 1.387 . S
C1418 C1421 1.387 . S
H1419 C1415 0.950 . S
H1420 C1417 0.950 . S
C1421 C1412 1.390 . S
C1421 H1414 0.950 . S
C1421 C1418 1.387 . S
C1422 C1423 1.387 . S
C1422 H1426 0.950 . S
C1422 C1431 1.390 . S
C1423 C1422 1.387 . S
C1423 C1425 1.387 . S
H1424 C1431 0.950 . S
C1425 C1423 1.387 . S
C1425 C1427 1.390 . S
C1425 H1429 0.950 . S
H1426 C1422 0.950 . S
C1427 C1425 1.390 . S
C1427 C1428 1.387 . S
C1427 H1430 0.950 . S
C1428 C1427 1.387 . S
C1428 C1431 1.387 . S
H1429 C1425 0.950 . S
H1430 C1427 0.950 . S
C1431 C1422 1.390 . S
C1431 H1424 0.950 . S
C1431 C1428 1.387 . S
C1432 C1433 1.387 . S
C1432 H1436 0.950 . S
C1432 C1441 1.390 . S
C1433 C1432 1.387 . S
C1433 C1435 1.387 . S
H1434 C1441 0.950 . S
C1435 C1433 1.387 . S
C1435 C1437 1.390 . S
C1435 H1439 0.950 . S
H1436 C1432 0.950 . S
C1437 C1435 1.390 . S
C1437 C1438 1.387 . S
C1437 H1440 0.950 . S
C1438 C1437 1.387 . S
C1438 C1441 1.387 . S
H1439 C1435 0.950 . S
H1440 C1437 0.950 . S
C1441 C1432 1.390 . S
C1441 H1434 0.950 . S
C1441 C1438 1.387 . S
C1442 C1443 1.387 . S
C1442 H1446 0.950 . S
C1442 C1451 1.390 . S
C1443 C1442 1.387 . S
C1443 C1445 1.387 . S
H1444 C1451 0.950 . S
C1445 C1443 1.387 . S
C1445 C1447 1.390 . S
C1445 H1449 0.950 . S
H1446 C1442 0.950 . S
C1447 C1445 1.390 . S
C1447 C1448 1.387 . S
C1447 H1450 0.950 . S
C1448 C1447 1.387 . S
C1448 C1451 1.387 . S
H1449 C1445 0.950 . S
H1450 C1447 0.950 . S
C1451 C1442 1.390 . S
C1451 H1444 0.950 . S
C1451 C1448 1.387 . S
C1452 C1453 1.387 . S
C1452 H1456 0.950 . S
C1452 C1461 1.390 . S
C1453 C1452 1.387 . S
C1453 C1455 1.387 1_455 S
H1454 C1461 0.950 . S
C1455 C1453 1.387 1_655 S
C1455 C1457 1.390 . S
C1455 H1459 0.950 . S
H1456 C1452 0.950 . S
C1457 C1455 1.390 . S
C1457 C1458 1.387 1_655 S
C1457 H1460 0.950 . S
C1458 C1457 1.387 1_455 S
C1458 C1461 1.387 . S
H1459 C1455 0.950 . S
H1460 C1457 0.950 . S
C1461 C1452 1.390 . S
C1461 H1454 0.950 . S
C1461 C1458 1.387 . S
C1462 C1463 1.385 . S
C1462 H1466 0.950 . S
C1462 C1471 1.390 . S
C1463 C1462 1.385 . S
C1463 C1465 1.388 . S
H1464 C1471 0.950 . S
C1465 C1463 1.388 . S
C1465 C1467 1.390 . S
C1465 H1469 0.950 1_655 S
H1466 C1462 0.950 . S
C1467 C1465 1.390 . S
C1467 C1468 1.387 . S
C1467 H1470 0.950 . S
C1468 C1467 1.387 . S
C1468 C1471 1.387 . S
H1469 C1465 0.950 1_455 S
H1470 C1467 0.950 . S
C1471 C1462 1.390 . S
C1471 H1464 0.950 . S
C1471 C1468 1.387 . S
C1472 C1473 1.387 . S
C1472 H1476 0.950 . S
C1472 C1481 1.390 . S
C1473 C1472 1.387 . S
C1473 C1475 1.387 . S
H1474 C1481 0.950 . S
C1475 C1473 1.387 . S
C1475 C1477 1.390 . S
C1475 H1479 0.950 . S
H1476 C1472 0.950 . S
C1477 C1475 1.390 . S
C1477 C1478 1.387 . S
C1477 H1480 0.950 . S
C1478 C1477 1.387 . S
C1478 C1481 1.387 . S
H1479 C1475 0.950 . S
H1480 C1477 0.950 . S
C1481 C1472 1.390 . S
C1481 H1474 0.950 . S
C1481 C1478 1.387 . S
C1482 C1483 1.387 . S
C1482 H1486 0.950 . S
C1482 C1491 1.390 . S
C1483 C1482 1.387 . S
C1483 C1485 1.387 . S
H1484 C1491 0.950 . S
C1485 C1483 1.387 . S
C1485 C1487 1.390 . S
C1485 H1489 0.950 . S
H1486 C1482 0.950 . S
C1487 C1485 1.390 . S
C1487 C1488 1.387 . S
C1487 H1490 0.950 . S
C1488 C1487 1.387 . S
C1488 C1491 1.387 . S
H1489 C1485 0.950 . S
H1490 C1487 0.950 . S
C1491 C1482 1.390 . S
C1491 H1484 0.950 . S
C1491 C1488 1.387 . S
C1492 C1493 1.387 1_655 S
C1492 H1496 0.950 . S
C1492 C1501 1.390 . S
C1493 C1492 1.387 1_455 S
C1493 C1495 1.387 . S
H1494 C1501 0.950 . S
C1495 C1493 1.387 . S
C1495 C1497 1.390 . S
C1495 H1499 0.950 . S
H1496 C1492 0.950 . S
C1497 C1495 1.390 . S
C1497 C1498 1.387 . S
C1497 H1500 0.950 . S
C1498 C1497 1.387 . S
C1498 C1501 1.387 1_455 S
H1499 C1495 0.950 . S
H1500 C1497 0.950 . S
C1501 C1492 1.390 . S
C1501 H1494 0.950 . S
C1501 C1498 1.387 1_655 S
C1502 C1503 1.387 . S
C1502 H1506 0.950 . S
C1502 C1511 1.390 . S
C1503 C1502 1.387 . S
C1503 C1505 1.387 . S
H1504 C1511 0.950 . S
C1505 C1503 1.387 . S
C1505 C1507 1.390 . S
C1505 H1509 0.950 . S
H1506 C1502 0.950 . S
C1507 C1505 1.390 . S
C1507 C1508 1.387 . S
C1507 H1510 0.950 . S
C1508 C1507 1.387 . S
C1508 C1511 1.387 . S
H1509 C1505 0.950 . S
H1510 C1507 0.950 . S
C1511 C1502 1.390 . S
C1511 H1504 0.950 . S
C1511 C1508 1.387 . S
C1512 C1513 1.387 . S
C1512 H1516 0.950 . S
C1512 C1521 1.390 . S
C1513 C1512 1.387 . S
C1513 C1515 1.387 . S
H1514 C1521 0.950 . S
C1515 C1513 1.387 . S
C1515 C1517 1.390 . S
C1515 H1519 0.950 . S
H1516 C1512 0.950 . S
C1517 C1515 1.390 . S
C1517 C1518 1.387 . S
C1517 H1520 0.950 . S
C1518 C1517 1.387 . S
C1518 C1521 1.387 . S
H1519 C1515 0.950 . S
H1520 C1517 0.950 . S
C1521 C1512 1.390 . S
C1521 H1514 0.950 . S
C1521 C1518 1.387 . S
C1522 C1523 1.387 . S
C1522 H1526 0.950 . S
C1522 C1531 1.390 . S
C1523 C1522 1.387 . S
C1523 C1525 1.387 . S
H1524 C1531 0.950 1_556 S
C1525 C1523 1.387 . S
C1525 C1527 1.390 . S
C1525 H1529 0.950 . S
H1526 C1522 0.950 . S
C1527 C1525 1.390 . S
C1527 C1528 1.387 . S
C1527 H1530 0.950 . S
C1528 C1527 1.387 . S
C1528 C1531 1.387 . S
H1529 C1525 0.950 . S
H1530 C1527 0.950 . S
C1531 C1522 1.390 . S
C1531 H1524 0.950 1_554 S
C1531 C1528 1.387 . S
C1532 C1533 1.387 . S
C1532 H1536 0.950 . S
C1532 C1541 1.390 . S
C1533 C1532 1.387 . S
C1533 C1535 1.387 . S
H1534 C1541 0.950 . S
C1535 C1533 1.387 . S
C1535 C1537 1.390 . S
C1535 H1539 0.950 . S
H1536 C1532 0.950 . S
C1537 C1535 1.390 . S
C1537 C1538 1.387 . S
C1537 H1540 0.950 . S
C1538 C1537 1.387 . S
C1538 C1541 1.387 . S
H1539 C1535 0.950 . S
H1540 C1537 0.950 . S
C1541 C1532 1.390 . S
C1541 H1534 0.950 . S
C1541 C1538 1.387 . S
C1542 C1543 1.387 . S
C1542 H1546 0.950 . S
C1542 C1551 1.390 . S
C1543 C1542 1.387 . S
C1543 C1545 1.387 . S
H1544 C1551 0.950 . S
C1545 C1543 1.387 . S
C1545 C1547 1.390 . S
C1545 H1549 0.950 . S
H1546 C1542 0.950 . S
C1547 C1545 1.390 . S
C1547 C1548 1.387 . S
C1547 H1550 0.950 . S
C1548 C1547 1.387 . S
C1548 C1551 1.387 . S
H1549 C1545 0.950 . S
H1550 C1547 0.950 . S
C1551 C1542 1.390 . S
C1551 H1544 0.950 . S
C1551 C1548 1.387 . S
C1552 C1553 1.387 . S
C1552 H1556 0.950 . S
C1552 C1561 1.390 . S
C1553 C1552 1.387 . S
C1553 C1555 1.387 . S
H1554 C1561 0.950 . S
C1555 C1553 1.387 . S
C1555 C1557 1.390 . S
C1555 H1559 0.950 . S
H1556 C1552 0.950 . S
C1557 C1555 1.390 . S
C1557 C1558 1.387 . S
C1557 H1560 0.950 . S
C1558 C1557 1.387 . S
C1558 C1561 1.387 . S
H1559 C1555 0.950 . S
H1560 C1557 0.950 . S
C1561 C1552 1.390 . S
C1561 H1554 0.950 . S
C1561 C1558 1.387 . S
C1562 C1563 1.387 . S
C1562 H1566 0.950 . S
C1562 C1571 1.390 . S
C1563 C1562 1.387 . S
C1563 C1565 1.387 . S
H1564 C1571 0.950 . S
C1565 C1563 1.387 . S
C1565 C1567 1.390 . S
C1565 H1569 0.950 . S
H1566 C1562 0.950 . S
C1567 C1565 1.390 . S
C1567 C1568 1.387 . S
C1567 H1570 0.950 . S
C1568 C1567 1.387 . S
C1568 C1571 1.387 . S
H1569 C1565 0.950 . S
H1570 C1567 0.950 . S
C1571 C1562 1.390 . S
C1571 H1564 0.950 . S
C1571 C1568 1.387 . S
C1572 C1573 1.387 . S
C1572 H1576 0.950 . S
C1572 C1581 1.390 . S
C1573 C1572 1.387 . S
C1573 C1575 1.387 . S
H1574 C1581 0.950 . S
C1575 C1573 1.387 . S
C1575 C1577 1.390 . S
C1575 H1579 0.950 . S
H1576 C1572 0.950 . S
C1577 C1575 1.390 . S
C1577 C1578 1.387 . S
C1577 H1580 0.950 . S
C1578 C1577 1.387 . S
C1578 C1581 1.387 . S
H1579 C1575 0.950 . S
H1580 C1577 0.950 . S
C1581 C1572 1.390 . S
C1581 H1574 0.950 . S
C1581 C1578 1.387 . S
C1582 C1583 1.387 . S
C1582 H1586 0.950 . S
C1582 C1591 1.390 . S
C1583 C1582 1.387 . S
C1583 C1585 1.387 . S
H1584 C1591 0.950 . S
C1585 C1583 1.387 . S
C1585 C1587 1.390 . S
C1585 H1589 0.950 . S
H1586 C1582 0.950 . S
C1587 C1585 1.390 . S
C1587 C1588 1.387 . S
C1587 H1590 0.950 . S
C1588 C1587 1.387 . S
C1588 C1591 1.387 . S
H1589 C1585 0.950 . S
H1590 C1587 0.950 . S
C1591 C1582 1.390 . S
C1591 H1584 0.950 . S
C1591 C1588 1.387 . S
C1592 C1593 1.387 . S
C1592 H1596 0.950 . S
C1592 C1601 1.390 . S
C1593 C1592 1.387 . S
C1593 C1595 1.387 . S
H1594 C1601 0.950 . S
C1595 C1593 1.387 . S
C1595 C1597 1.390 . S
C1595 H1599 0.950 . S
H1596 C1592 0.950 . S
C1597 C1595 1.390 . S
C1597 C1598 1.387 . S
C1597 H1600 0.950 . S
C1598 C1597 1.387 . S
C1598 C1601 1.387 . S
H1599 C1595 0.950 . S
H1600 C1597 0.950 . S
C1601 C1592 1.390 . S
C1601 H1594 0.950 . S
C1601 C1598 1.387 . S
C1602 C1603 1.387 . S
C1602 H1606 0.950 . S
C1602 C1611 1.390 . S
C1603 C1602 1.387 . S
C1603 C1605 1.387 . S
H1604 C1611 0.950 . S
C1605 C1603 1.387 . S
C1605 C1607 1.390 . S
C1605 H1609 0.950 . S
H1606 C1602 0.950 . S
C1607 C1605 1.390 . S
C1607 C1608 1.387 . S
C1607 H1610 0.950 . S
C1608 C1607 1.387 . S
C1608 C1611 1.387 . S
H1609 C1605 0.950 . S
H1610 C1607 0.950 . S
C1611 C1602 1.390 . S
C1611 H1604 0.950 . S
C1611 C1608 1.387 . S
C1612 C1613 1.387 1_565 S
C1612 H1616 0.950 . S
C1612 C1621 1.390 . S
C1613 C1612 1.387 1_545 S
C1613 C1615 1.387 . S
H1614 C1621 0.950 . S
C1615 C1613 1.387 . S
C1615 C1617 1.390 . S
C1615 H1619 0.950 . S
H1616 C1612 0.950 . S
C1617 C1615 1.390 . S
C1617 C1618 1.387 1_545 S
C1617 H1620 0.950 . S
C1618 C1617 1.387 1_565 S
C1618 C1621 1.387 . S
H1619 C1615 0.950 . S
H1620 C1617 0.950 . S
C1621 C1612 1.390 . S
C1621 H1614 0.950 . S
C1621 C1618 1.387 . S
C1622 C1623 1.387 1_546 S
C1622 H1626 0.950 . S
C1622 C1631 1.390 1_556 S
C1623 C1622 1.387 1_564 S
C1623 C1625 1.387 . S
H1624 C1631 0.950 1_556 S
C1625 C1623 1.387 . S
C1625 C1627 1.390 1_565 S
C1625 H1629 0.950 . S
H1626 C1622 0.950 . S
C1627 C1625 1.390 1_545 S
C1627 C1628 1.387 . S
C1627 H1630 0.950 . S
C1628 C1627 1.387 . S
C1628 C1631 1.387 . S
H1629 C1625 0.950 . S
H1630 C1627 0.950 . S
C1631 C1622 1.390 1_554 S
C1631 H1624 0.950 1_554 S
C1631 C1628 1.387 . S
C1632 C1633 1.387 . S
C1632 H1636 0.950 . S
C1632 C1641 1.390 . S
C1633 C1632 1.387 . S
C1633 C1635 1.387 . S
H1634 C1641 0.950 . S
C1635 C1633 1.387 . S
C1635 C1637 1.390 . S
C1635 H1639 0.950 . S
H1636 C1632 0.950 . S
C1637 C1635 1.390 . S
C1637 C1638 1.387 . S
C1637 H1640 0.950 . S
C1638 C1637 1.387 . S
C1638 C1641 1.387 . S
H1639 C1635 0.950 . S
H1640 C1637 0.950 . S
C1641 C1632 1.390 . S
C1641 H1634 0.950 . S
C1641 C1638 1.387 . S
C1642 C1643 1.387 . S
C1642 H1646 0.950 . S
C1642 C1651 1.390 . S
C1643 C1642 1.387 . S
C1643 C1645 1.387 . S
H1644 C1651 0.950 . S
C1645 C1643 1.387 . S
C1645 C1647 1.390 . S
C1645 H1649 0.950 . S
H1646 C1642 0.950 . S
C1647 C1645 1.390 . S
C1647 C1648 1.387 . S
C1647 H1650 0.950 . S
C1648 C1647 1.387 . S
C1648 C1651 1.387 . S
H1649 C1645 0.950 . S
H1650 C1647 0.950 . S
C1651 C1642 1.390 . S
C1651 H1644 0.950 . S
C1651 C1648 1.387 . S
C1652 C1653 1.387 . S
C1652 H1656 0.950 . S
C1652 C1661 1.390 . S
C1653 C1652 1.387 . S
C1653 C1655 1.387 . S
H1654 C1661 0.950 . S
C1655 C1653 1.387 . S
C1655 C1657 1.390 . S
C1655 H1659 0.950 . S
H1656 C1652 0.950 . S
C1657 C1655 1.390 . S
C1657 C1658 1.387 . S
C1657 H1660 0.950 . S
C1658 C1657 1.387 . S
C1658 C1661 1.387 . S
H1659 C1655 0.950 . S
H1660 C1657 0.950 . S
C1661 C1652 1.390 . S
C1661 H1654 0.950 . S
C1661 C1658 1.387 . S
C1662 C1663 1.387 . S
C1662 H1666 0.950 . S
C1662 C1671 1.390 . S
C1663 C1662 1.387 . S
C1663 C1665 1.387 . S
H1664 C1671 0.950 . S
C1665 C1663 1.387 . S
C1665 C1667 1.390 . S
C1665 H1669 0.950 . S
H1666 C1662 0.950 . S
C1667 C1665 1.390 . S
C1667 C1668 1.387 . S
C1667 H1670 0.950 . S
C1668 C1667 1.387 . S
C1668 C1671 1.387 . S
H1669 C1665 0.950 . S
H1670 C1667 0.950 . S
C1671 C1662 1.390 . S
C1671 H1664 0.950 . S
C1671 C1668 1.387 . S
C1672 C1673 1.387 . S
C1672 H1676 0.950 . S
C1672 C1681 1.390 . S
C1673 C1672 1.387 . S
C1673 C1675 1.387 . S
H1674 C1681 0.950 . S
C1675 C1673 1.387 . S
C1675 C1677 1.390 . S
C1675 H1679 0.950 . S
H1676 C1672 0.950 . S
C1677 C1675 1.390 . S
C1677 C1678 1.387 . S
C1677 H1680 0.950 . S
C1678 C1677 1.387 . S
C1678 C1681 1.387 . S
H1679 C1675 0.950 . S
H1680 C1677 0.950 . S
C1681 C1672 1.390 . S
C1681 H1674 0.950 . S
C1681 C1678 1.387 . S
C1682 C1683 1.387 . S
C1682 H1686 0.950 . S
C1682 C1691 1.390 . S
C1683 C1682 1.387 . S
C1683 C1685 1.387 . S
H1684 C1691 0.950 . S
C1685 C1683 1.387 . S
C1685 C1687 1.390 . S
C1685 H1689 0.950 . S
H1686 C1682 0.950 . S
C1687 C1685 1.390 . S
C1687 C1688 1.387 . S
C1687 H1690 0.950 . S
C1688 C1687 1.387 . S
C1688 C1691 1.387 . S
H1689 C1685 0.950 . S
H1690 C1687 0.950 . S
C1691 C1682 1.390 . S
C1691 H1684 0.950 . S
C1691 C1688 1.387 . S
C1692 C1693 1.387 . S
C1692 H1696 0.950 . S
C1692 C1701 1.390 . S
C1693 C1692 1.387 . S
C1693 C1695 1.387 . S
H1694 C1701 0.950 . S
C1695 C1693 1.387 . S
C1695 C1697 1.390 . S
C1695 H1699 0.950 . S
H1696 C1692 0.950 . S
C1697 C1695 1.390 . S
C1697 C1698 1.387 . S
C1697 H1700 0.950 . S
C1698 C1697 1.387 . S
C1698 C1701 1.387 . S
H1699 C1695 0.950 . S
H1700 C1697 0.950 . S
C1701 C1692 1.390 . S
C1701 H1694 0.950 . S
C1701 C1698 1.387 . S
C1702 C1703 1.387 . S
C1702 H1706 0.950 . S
C1702 C1711 1.390 . S
C1703 C1702 1.387 . S
C1703 C1705 1.387 . S
H1704 C1711 0.950 . S
C1705 C1703 1.387 . S
C1705 C1707 1.390 . S
C1705 H1709 0.950 . S
H1706 C1702 0.950 . S
C1707 C1705 1.390 . S
C1707 C1708 1.387 . S
C1707 H1710 0.950 . S
C1708 C1707 1.387 . S
C1708 C1711 1.387 . S
H1709 C1705 0.950 . S
H1710 C1707 0.950 . S
C1711 C1702 1.390 . S
C1711 H1704 0.950 . S
C1711 C1708 1.387 . S
C1712 C1713 1.387 . S
C1712 H1716 0.950 . S
C1712 C1721 1.390 . S
C1713 C1712 1.387 . S
C1713 C1715 1.387 . S
H1714 C1721 0.950 . S
C1715 C1713 1.387 . S
C1715 C1717 1.390 . S
C1715 H1719 0.950 . S
H1716 C1712 0.950 . S
C1717 C1715 1.390 . S
C1717 C1718 1.387 . S
C1717 H1720 0.950 . S
C1718 C1717 1.387 . S
C1718 C1721 1.387 . S
H1719 C1715 0.950 . S
H1720 C1717 0.950 . S
C1721 C1712 1.390 . S
C1721 H1714 0.950 . S
C1721 C1718 1.387 . S
C1722 C1723 1.387 . S
C1722 H1726 0.950 . S
C1722 C1731 1.390 . S
C1723 C1722 1.387 . S
C1723 C1725 1.387 . S
H1724 C1731 0.950 . S
C1725 C1723 1.387 . S
C1725 C1727 1.390 . S
C1725 H1729 0.950 . S
H1726 C1722 0.950 . S
C1727 C1725 1.390 . S
C1727 C1728 1.387 . S
C1727 H1730 0.950 . S
C1728 C1727 1.387 . S
C1728 C1731 1.387 . S
H1729 C1725 0.950 . S
H1730 C1727 0.950 . S
C1731 C1722 1.390 . S
C1731 H1724 0.950 . S
C1731 C1728 1.387 . S
C1732 C1733 1.387 . S
C1732 H1736 0.950 . S
C1732 C1741 1.390 . S
C1733 C1732 1.387 . S
C1733 C1735 1.387 . S
H1734 C1741 0.950 . S
C1735 C1733 1.387 . S
C1735 C1737 1.390 . S
C1735 H1739 0.950 . S
H1736 C1732 0.950 . S
C1737 C1735 1.390 . S
C1737 C1738 1.387 . S
C1737 H1740 0.950 . S
C1738 C1737 1.387 . S
C1738 C1741 1.387 . S
H1739 C1735 0.950 . S
H1740 C1737 0.950 . S
C1741 C1732 1.390 . S
C1741 H1734 0.950 . S
C1741 C1738 1.387 . S
C1742 C1743 1.387 . S
C1742 H1746 0.950 . S
C1742 C1751 1.390 . S
C1743 C1742 1.387 . S
C1743 C1745 1.387 . S
H1744 C1751 0.950 . S
C1745 C1743 1.387 . S
C1745 C1747 1.390 . S
C1745 H1749 0.950 . S
H1746 C1742 0.950 . S
C1747 C1745 1.390 . S
C1747 C1748 1.387 . S
C1747 H1750 0.950 . S
C1748 C1747 1.387 . S
C1748 C1751 1.387 . S
H1749 C1745 0.950 . S
H1750 C1747 0.950 . S
C1751 C1742 1.390 . S
C1751 H1744 0.950 . S
C1751 C1748 1.387 . S
C1752 C1753 1.387 . S
C1752 H1756 0.950 . S
C1752 C1761 1.390 . S
C1753 C1752 1.387 . S
C1753 C1755 1.387 . S
H1754 C1761 0.950 . S
C1755 C1753 1.387 . S
C1755 C1757 1.390 . S
C1755 H1759 0.950 . S
H1756 C1752 0.950 . S
C1757 C1755 1.390 . S
C1757 C1758 1.387 . S
C1757 H1760 0.950 . S
C1758 C1757 1.387 . S
C1758 C1761 1.387 . S
H1759 C1755 0.950 . S
H1760 C1757 0.950 . S
C1761 C1752 1.390 . S
C1761 H1754 0.950 . S
C1761 C1758 1.387 . S
C1762 C1763 1.387 . S
C1762 H1766 0.950 . S
C1762 C1771 1.390 . S
C1763 C1762 1.387 . S
C1763 C1765 1.387 . S
H1764 C1771 0.950 . S
C1765 C1763 1.387 . S
C1765 C1767 1.390 . S
C1765 H1769 0.950 . S
H1766 C1762 0.950 . S
C1767 C1765 1.390 . S
C1767 C1768 1.387 . S
C1767 H1770 0.950 . S
C1768 C1767 1.387 . S
C1768 C1771 1.387 . S
H1769 C1765 0.950 . S
H1770 C1767 0.950 . S
C1771 C1762 1.390 . S
C1771 H1764 0.950 . S
C1771 C1768 1.387 . S
C1772 C1773 1.387 . S
C1772 H1776 0.950 . S
C1772 C1781 1.390 . S
C1773 C1772 1.387 . S
C1773 C1775 1.387 . S
H1774 C1781 0.950 . S
C1775 C1773 1.387 . S
C1775 C1777 1.390 . S
C1775 H1779 0.950 . S
H1776 C1772 0.950 . S
C1777 C1775 1.390 . S
C1777 C1778 1.387 . S
C1777 H1780 0.950 . S
C1778 C1777 1.387 . S
C1778 C1781 1.387 . S
H1779 C1775 0.950 . S
H1780 C1777 0.950 . S
C1781 C1772 1.390 . S
C1781 H1774 0.950 . S
C1781 C1778 1.387 . S
C1782 C1783 1.387 . S
C1782 H1786 0.950 . S
C1782 C1791 1.390 . S
C1783 C1782 1.387 . S
C1783 C1785 1.387 . S
H1784 C1791 0.950 . S
C1785 C1783 1.387 . S
C1785 C1787 1.390 . S
C1785 H1789 0.950 . S
H1786 C1782 0.950 . S
C1787 C1785 1.390 . S
C1787 C1788 1.387 . S
C1787 H1790 0.950 . S
C1788 C1787 1.387 . S
C1788 C1791 1.387 . S
H1789 C1785 0.950 . S
H1790 C1787 0.950 . S
C1791 C1782 1.390 . S
C1791 H1784 0.950 . S
C1791 C1788 1.387 . S
C1792 C1793 1.387 . S
C1792 H1796 0.950 . S
C1792 C1801 1.390 . S
C1793 C1792 1.387 . S
C1793 C1795 1.387 . S
H1794 C1801 0.950 . S
C1795 C1793 1.387 . S
C1795 C1797 1.390 . S
C1795 H1799 0.950 . S
H1796 C1792 0.950 . S
C1797 C1795 1.390 . S
C1797 C1798 1.387 . S
C1797 H1800 0.950 . S
C1798 C1797 1.387 . S
C1798 C1801 1.387 . S
H1799 C1795 0.950 . S
H1800 C1797 0.950 . S
C1801 C1792 1.390 . S
C1801 H1794 0.950 . S
C1801 C1798 1.387 . S
C1802 C1803 1.387 . S
C1802 H1806 0.950 . S
C1802 C1811 1.390 . S
C1803 C1802 1.387 . S
C1803 C1805 1.387 . S
H1804 C1811 0.950 . S
C1805 C1803 1.387 . S
C1805 C1807 1.390 . S
C1805 H1809 0.950 . S
H1806 C1802 0.950 . S
C1807 C1805 1.390 . S
C1807 C1808 1.387 . S
C1807 H1810 0.950 . S
C1808 C1807 1.387 . S
C1808 C1811 1.387 . S
H1809 C1805 0.950 . S
H1810 C1807 0.950 . S
C1811 C1802 1.390 . S
C1811 H1804 0.950 . S
C1811 C1808 1.387 . S
C1812 C1813 1.387 . S
C1812 H1816 0.950 . S
C1812 C1821 1.390 . S
C1813 C1812 1.387 . S
C1813 C1815 1.387 . S
H1814 C1821 0.950 . S
C1815 C1813 1.387 . S
C1815 C1817 1.390 . S
C1815 H1819 0.950 . S
H1816 C1812 0.950 . S
C1817 C1815 1.390 . S
C1817 C1818 1.387 . S
C1817 H1820 0.950 . S
C1818 C1817 1.387 . S
C1818 C1821 1.387 . S
H1819 C1815 0.950 . S
H1820 C1817 0.950 . S
C1821 C1812 1.390 . S
C1821 H1814 0.950 . S
C1821 C1818 1.387 . S
C1822 C1823 1.387 . S
C1822 H1826 0.950 . S
C1822 C1831 1.390 . S
C1823 C1822 1.387 . S
C1823 C1825 1.387 . S
H1824 C1831 0.950 . S
C1825 C1823 1.387 . S
C1825 C1827 1.390 . S
C1825 H1829 0.950 . S
H1826 C1822 0.950 . S
C1827 C1825 1.390 . S
C1827 C1828 1.387 . S
C1827 H1830 0.950 . S
C1828 C1827 1.387 . S
C1828 C1831 1.387 . S
H1829 C1825 0.950 . S
H1830 C1827 0.950 . S
C1831 C1822 1.390 . S
C1831 H1824 0.950 . S
C1831 C1828 1.387 . S
C1832 C1833 1.387 . S
C1832 H1836 0.950 . S
C1832 C1841 1.390 . S
C1833 C1832 1.387 . S
C1833 C1835 1.387 . S
H1834 C1841 0.950 . S
C1835 C1833 1.387 . S
C1835 C1837 1.390 . S
C1835 H1839 0.950 . S
H1836 C1832 0.950 . S
C1837 C1835 1.390 . S
C1837 C1838 1.387 . S
C1837 H1840 0.950 . S
C1838 C1837 1.387 . S
C1838 C1841 1.387 . S
H1839 C1835 0.950 . S
H1840 C1837 0.950 . S
C1841 C1832 1.390 . S
C1841 H1834 0.950 . S
C1841 C1838 1.387 . S
C1842 C1843 1.387 . S
C1842 H1846 0.950 . S
C1842 C1851 1.390 . S
C1843 C1842 1.387 . S
C1843 C1845 1.387 . S
H1844 C1851 0.944 1_545 S
C1845 C1843 1.387 . S
C1845 C1847 1.390 . S
C1845 H1849 0.950 . S
H1846 C1842 0.950 . S
C1847 C1845 1.390 . S
C1847 C1848 1.387 . S
C1847 H1850 0.950 . S
C1848 C1847 1.387 . S
C1848 C1851 1.387 . S
H1849 C1845 0.950 . S
H1850 C1847 0.950 . S
C1851 C1842 1.390 . S
C1851 H1844 0.944 1_565 S
C1851 C1848 1.387 . S
C1852 C1853 1.387 . S
C1852 H1856 0.950 . S
C1852 C1861 1.390 . S
C1853 C1852 1.387 . S
C1853 C1855 1.387 . S
H1854 C1861 0.950 . S
C1855 C1853 1.387 . S
C1855 C1857 1.390 . S
C1855 H1859 0.950 . S
H1856 C1852 0.950 . S
C1857 C1855 1.390 . S
C1857 C1858 1.387 . S
C1857 H1860 0.950 . S
C1858 C1857 1.387 . S
C1858 C1861 1.387 . S
H1859 C1855 0.950 . S
H1860 C1857 0.950 . S
C1861 C1852 1.390 . S
C1861 H1854 0.950 . S
C1861 C1858 1.387 . S
C1862 C1863 1.387 . S
C1862 H1866 0.950 . S
C1862 C1871 1.390 . S
C1863 C1862 1.387 . S
C1863 C1865 1.387 . S
H1864 C1871 0.950 . S
C1865 C1863 1.387 . S
C1865 C1867 1.390 . S
C1865 H1869 0.950 . S
H1866 C1862 0.950 . S
C1867 C1865 1.390 . S
C1867 C1868 1.387 . S
C1867 H1870 0.950 . S
C1868 C1867 1.387 . S
C1868 C1871 1.387 . S
H1869 C1865 0.950 . S
H1870 C1867 0.950 . S
C1871 C1862 1.390 . S
C1871 H1864 0.950 . S
C1871 C1868 1.387 . S
C1872 C1873 1.387 . S
C1872 H1876 0.950 . S
C1872 C1881 1.390 . S
C1873 C1872 1.387 . S
C1873 C1875 1.387 . S
H1874 C1881 0.950 . S
C1875 C1873 1.387 . S
C1875 C1877 1.390 . S
C1875 H1879 0.950 . S
H1876 C1872 0.950 . S
C1877 C1875 1.390 . S
C1877 C1878 1.387 . S
C1877 H1880 0.950 . S
C1878 C1877 1.387 . S
C1878 C1881 1.387 . S
H1879 C1875 0.950 . S
H1880 C1877 0.950 . S
C1881 C1872 1.390 . S
C1881 H1874 0.950 . S
C1881 C1878 1.387 . S
C1882 C1883 1.387 . S
C1882 H1886 0.950 . S
C1882 C1891 1.390 . S
C1883 C1882 1.387 . S
C1883 C1885 1.387 . S
H1884 C1891 0.950 1_556 S
C1885 C1883 1.387 . S
C1885 C1887 1.390 . S
C1885 H1889 0.950 . S
H1886 C1882 0.950 . S
C1887 C1885 1.390 . S
C1887 C1888 1.387 . S
C1887 H1890 0.950 . S
C1888 C1887 1.387 . S
C1888 C1891 1.387 . S
H1889 C1885 0.950 . S
H1890 C1887 0.950 . S
C1891 C1882 1.390 . S
C1891 H1884 0.950 1_554 S
C1891 C1888 1.387 . S
C1892 C1893 1.387 . S
C1892 H1896 0.950 . S
C1892 C1901 1.390 . S
C1893 C1892 1.387 . S
C1893 C1895 1.387 . S
H1894 C1901 0.950 . S
C1895 C1893 1.387 . S
C1895 C1897 1.390 . S
C1895 H1899 0.950 . S
H1896 C1892 0.950 . S
C1897 C1895 1.390 . S
C1897 C1898 1.387 . S
C1897 H1900 0.950 . S
C1898 C1897 1.387 . S
C1898 C1901 1.387 . S
H1899 C1895 0.950 . S
H1900 C1897 0.950 . S
C1901 C1892 1.390 . S
C1901 H1894 0.950 . S
C1901 C1898 1.387 . S
C1902 C1903 1.387 . S
C1902 H1906 0.950 . S
C1902 C1911 1.390 . S
C1903 C1902 1.387 . S
C1903 C1905 1.387 . S
H1904 C1911 0.950 . S
C1905 C1903 1.387 . S
C1905 C1907 1.390 . S
C1905 H1909 0.950 . S
H1906 C1902 0.950 . S
C1907 C1905 1.390 . S
C1907 C1908 1.387 . S
C1907 H1910 0.950 . S
C1908 C1907 1.387 . S
C1908 C1911 1.387 . S
H1909 C1905 0.950 . S
H1910 C1907 0.950 . S
C1911 C1902 1.390 . S
C1911 H1904 0.950 . S
C1911 C1908 1.387 . S
C953 C101 2.354 . S
C958 C325 2.307 . S
C963 C57 2.066 . S
C968 C376 2.124 . S
C973 C70 1.664 . S
C978 C405 1.614 . S
C988 C449 1.502 . S
C983 C82 1.586 . S
C993 C23 1.485 . S
C998 C489 1.399 . S
C1008 C525 1.636 . S
C1003 C29 1.687 . S
C1018 C575 2.035 . S
C1013 C49 1.917 . S
C1023 C10 2.469 . S
C1028 C605 2.419 . S
C1038 C335 2.015 . S
C1033 C218 2.037 . S
C1043 C226 1.088 . S
C1048 C378 1.010 . S
C1058 C415 1.502 . S
C1053 C251 1.420 . S
C1068 C445 1.412 . S
C1063 C159 1.450 . S
C1073 C211 1.498 . S
C1078 C485 1.455 . S
C1088 C535 1.134 . S
C1083 C225 1.080 . S
C1098 C569 1.061 . S
C1093 C252 1.151 . S
C1108 C615 2.000 . S
C1103 C166 2.023 . S
C1118 C329 1.551 . S
C1113 C147 1.673 . S
C1123 C263 1.729 . S
C1128 C655 1.820 . S
C1138 C689 1.645 . S
C1133 C309 1.744 . S
C1148 C725 0.907 . S
C1143 C291 0.936 . S
C1153 C108 1.739 . S
C1158 C609 1.625 . S
C1163 C121 1.796 . S
C1168 C409 1.689 . S
C1173 C302 1.662 . S
C1178 C775 1.752 . S
C1188 C794 0.564 . S
C1183 C276 0.535 . S
C1198 C336 2.467 1_565 S
C1193 C55 2.458 . S
C1208 C805 2.333 . S
C1203 C96 2.302 . S
C1213 C88 1.941 . S
C1218 C416 1.945 . S
C1223 C75 1.610 . S
C1228 C778 1.547 . S
C1238 C498 1.443 . S
C1233 C4 1.505 . S
C1243 C44 1.946 . S
C1248 C696 1.946 . S
C1258 C554 2.182 1_566 S
C1253 C31 2.135 . S
C1268 C856 2.564 . S
C1263 C18 2.562 . S
C1278 C314 2.204 1_556 S
C1273 C133 2.229 . S
C1288 C809 0.882 . S
C1283 C296 0.893 . S
C1293 C107 1.528 . S
C1298 C394 1.547 . S
C1303 C264 1.706 . S
C1308 C776 1.709 . S
C1313 C140 1.751 . S
C1318 C496 1.750 . S
C1328 C674 1.173 . S
C1323 C289 1.168 . S
C1333 C114 1.116 . S
C1338 C578 1.072 . S
C1343 C265 2.223 . S
C1348 C834 2.197 . S
C1353 C179 1.508 . S
C1358 C338 1.431 . S
C1363 C161 1.893 . S
C1368 C634 1.922 . S
C1373 C244 1.598 . S
C1378 C538 1.543 . S
C1383 C224 1.045 . S
C1388 C736 1.029 . S
C1398 C858 1.596 1_545 S
C1393 C257 1.667 . S
C1403 C199 1.663 . S
C1408 C418 1.600 . S
C1418 C434 1.854 . S
C1413 C237 1.824 . S
C1428 C375 0.626 . S
C1423 C185 0.614 . S
C1433 C69 2.356 . S
C1438 C885 2.309 . S
C1448 C816 2.125 . S
C1443 C83 2.066 . S
C1453 C94 1.665 . S
C1458 C925 1.615 . S
C1463 C56 1.585 1_655 S
C1468 C769 1.498 . S
C1473 C42 1.500 . S
C1478 C649 1.405 . S
C1488 C685 1.633 . S
C1483 C3 1.688 . S
C1498 C735 2.044 . S
C1493 C16 1.927 . S
C1508 C845 2.418 . S
C1503 C36 2.469 . S
C1518 C895 2.016 . S
C1513 C238 2.037 . S
C1523 C174 1.081 . S
C1528 C818 1.003 1_554 S
C1538 C935 1.501 . S
C1533 C186 1.419 . S
C1548 C765 1.410 . S
C1543 C198 1.448 . S
C1558 C645 1.456 . S
C1553 C239 1.500 . S
C1563 C173 1.081 . S
C1568 C695 1.138 . S
C1578 C729 1.064 . S
C1573 C187 1.153 . S
C1583 C205 2.024 . S
C1588 C855 2.002 . S
C1598 C889 1.551 . S
C1593 C290 1.674 . S
C1603 C122 1.730 . S
C1608 C495 1.820 . S
C1618 C529 1.646 . S
C1613 C134 1.745 . S
C1628 C565 0.905 . S
C1623 C148 0.932 . S
C1638 C849 1.625 . S
C1633 C283 1.739 . S
C1643 C270 1.796 . S
C1648 C929 1.690 . S
C1658 C455 1.750 . S
C1653 C135 1.661 . S
C1668 C354 0.563 . S
C1663 C109 0.535 . S
C1673 C81 2.457 . S
C1678 C896 2.467 . S
C1688 C365 2.333 . S
C1683 C68 2.300 . S
C1693 C62 1.941 . S
C1698 C936 1.946 . S
C1703 C95 1.609 . S
C1708 C458 1.546 . S
C1713 C30 1.502 . S
C1718 C658 1.439 . S
C1728 C536 1.938 . S
C1723 C17 1.941 . S
C1733 C5 2.134 . S
C1738 C714 2.184 . S
C1743 C43 2.563 . S
C1748 C616 2.553 . S
C1758 C874 2.204 . S
C1753 C304 2.229 . S
C1763 C153 0.891 . S
C1768 C369 0.876 . S
C1778 C914 1.548 1_656 S
C1773 C278 1.529 . S
C1783 C127 1.707 . S
C1788 C456 1.709 . S
C1793 C303 1.747 . S
C1798 C656 1.748 . S
C1808 C514 1.173 . S
C1803 C146 1.171 . S
C1813 C277 1.113 . S
C1818 C738 1.068 . S
C1828 C594 2.197 . S
C1823 C120 2.222 . S
C1838 C898 1.435 . S
C1833 C231 1.512 . S
C1848 C474 1.922 1_565 S
C1843 C200 1.893 . S
C1853 C212 1.600 . S
C1858 C698 1.545 . S
C1868 C576 1.028 . S
C1863 C172 1.044 . S
C1873 C192 1.669 . S
C1878 C618 1.599 . S
C1883 C160 1.662 . S
C1888 C938 1.598 . S
C1898 C754 1.855 . S
C1893 C213 1.826 . S
C1908 C815 0.626 . S
C1903 C250 0.614 . S
