# Generated by pormake.
# Topology gar, (4,6)-cn, num edge types: 1
# Building blocks:
#     Node 0, Type 0, BuildingBlock: CEKHIL_clean_sbu_0, # of connection points: 4
#     Node 1, Type 0, BuildingBlock: CEKHIL_clean_sbu_0, # of connection points: 4
#     Node 2, Type 0, BuildingBlock: CEKHIL_clean_sbu_0, # of connection points: 4
#     Node 3, Type 0, BuildingBlock: CEKHIL_clean_sbu_0, # of connection points: 4
#     Node 4, Type 0, BuildingBlock: CEKHIL_clean_sbu_0, # of connection points: 4
#     Node 5, Type 0, BuildingBlock: CEKHIL_clean_sbu_0, # of connection points: 4
#     Node 6, Type 0, BuildingBlock: CEKHIL_clean_sbu_0, # of connection points: 4
#     Node 7, Type 0, BuildingBlock: CEKHIL_clean_sbu_0, # of connection points: 4
#     Node 8, Type 0, BuildingBlock: CEKHIL_clean_sbu_0, # of connection points: 4
#     Node 9, Type 0, BuildingBlock: CEKHIL_clean_sbu_0, # of connection points: 4
#     Node 10, Type 0, BuildingBlock: CEKHIL_clean_sbu_0, # of connection points: 4
#     Node 11, Type 0, BuildingBlock: CEKHIL_clean_sbu_0, # of connection points: 4
#     Node 12, Type 0, BuildingBlock: CEKHIL_clean_sbu_0, # of connection points: 4
#     Node 13, Type 0, BuildingBlock: CEKHIL_clean_sbu_0, # of connection points: 4
#     Node 14, Type 0, BuildingBlock: CEKHIL_clean_sbu_0, # of connection points: 4
#     Node 15, Type 0, BuildingBlock: CEKHIL_clean_sbu_0, # of connection points: 4
#     Node 16, Type 0, BuildingBlock: CEKHIL_clean_sbu_0, # of connection points: 4
#     Node 17, Type 0, BuildingBlock: CEKHIL_clean_sbu_0, # of connection points: 4
#     Node 18, Type 0, BuildingBlock: CEKHIL_clean_sbu_0, # of connection points: 4
#     Node 19, Type 0, BuildingBlock: CEKHIL_clean_sbu_0, # of connection points: 4
#     Node 20, Type 0, BuildingBlock: CEKHIL_clean_sbu_0, # of connection points: 4
#     Node 21, Type 0, BuildingBlock: CEKHIL_clean_sbu_0, # of connection points: 4
#     Node 22, Type 0, BuildingBlock: CEKHIL_clean_sbu_0, # of connection points: 4
#     Node 23, Type 0, BuildingBlock: CEKHIL_clean_sbu_0, # of connection points: 4
#     Node 24, Type 1, BuildingBlock: BETDEL_clean_sbu_0, # of connection points: 6
#     Node 25, Type 1, BuildingBlock: BETDEL_clean_sbu_0, # of connection points: 6
#     Node 26, Type 1, BuildingBlock: BETDEL_clean_sbu_0, # of connection points: 6
#     Node 27, Type 1, BuildingBlock: BETDEL_clean_sbu_0, # of connection points: 6
#     Node 28, Type 1, BuildingBlock: BETDEL_clean_sbu_0, # of connection points: 6
#     Node 29, Type 1, BuildingBlock: BETDEL_clean_sbu_0, # of connection points: 6
#     Node 30, Type 1, BuildingBlock: BETDEL_clean_sbu_0, # of connection points: 6
#     Node 31, Type 1, BuildingBlock: BETDEL_clean_sbu_0, # of connection points: 6
#     Node 32, Type 1, BuildingBlock: BETDEL_clean_sbu_0, # of connection points: 6
#     Node 33, Type 1, BuildingBlock: BETDEL_clean_sbu_0, # of connection points: 6
#     Node 34, Type 1, BuildingBlock: BETDEL_clean_sbu_0, # of connection points: 6
#     Node 35, Type 1, BuildingBlock: BETDEL_clean_sbu_0, # of connection points: 6
#     Node 36, Type 1, BuildingBlock: BETDEL_clean_sbu_0, # of connection points: 6
#     Node 37, Type 1, BuildingBlock: BETDEL_clean_sbu_0, # of connection points: 6
#     Node 38, Type 1, BuildingBlock: BETDEL_clean_sbu_0, # of connection points: 6
#     Node 39, Type 1, BuildingBlock: BETDEL_clean_sbu_0, # of connection points: 6
#     Edge 40, Type (0, 1), BuildingBlock: ZUJKAS_clean_linker_0, # of connection points: 2
#     Edge 41, Type (0, 1), BuildingBlock: ZUJKAS_clean_linker_0, # of connection points: 2
#     Edge 42, Type (0, 1), BuildingBlock: ZUJKAS_clean_linker_0, # of connection points: 2
#     Edge 43, Type (0, 1), BuildingBlock: ZUJKAS_clean_linker_0, # of connection points: 2
#     Edge 44, Type (0, 1), BuildingBlock: ZUJKAS_clean_linker_0, # of connection points: 2
#     Edge 45, Type (0, 1), BuildingBlock: ZUJKAS_clean_linker_0, # of connection points: 2
#     Edge 46, Type (0, 1), BuildingBlock: ZUJKAS_clean_linker_0, # of connection points: 2
#     Edge 47, Type (0, 1), BuildingBlock: ZUJKAS_clean_linker_0, # of connection points: 2
#     Edge 48, Type (0, 1), BuildingBlock: ZUJKAS_clean_linker_0, # of connection points: 2
#     Edge 49, Type (0, 1), BuildingBlock: ZUJKAS_clean_linker_0, # of connection points: 2
#     Edge 50, Type (0, 1), BuildingBlock: ZUJKAS_clean_linker_0, # of connection points: 2
#     Edge 51, Type (0, 1), BuildingBlock: ZUJKAS_clean_linker_0, # of connection points: 2
#     Edge 52, Type (0, 1), BuildingBlock: ZUJKAS_clean_linker_0, # of connection points: 2
#     Edge 53, Type (0, 1), BuildingBlock: ZUJKAS_clean_linker_0, # of connection points: 2
#     Edge 54, Type (0, 1), BuildingBlock: ZUJKAS_clean_linker_0, # of connection points: 2
#     Edge 55, Type (0, 1), BuildingBlock: ZUJKAS_clean_linker_0, # of connection points: 2
#     Edge 56, Type (0, 1), BuildingBlock: ZUJKAS_clean_linker_0, # of connection points: 2
#     Edge 57, Type (0, 1), BuildingBlock: ZUJKAS_clean_linker_0, # of connection points: 2
#     Edge 58, Type (0, 1), BuildingBlock: ZUJKAS_clean_linker_0, # of connection points: 2
#     Edge 59, Type (0, 1), BuildingBlock: ZUJKAS_clean_linker_0, # of connection points: 2
#     Edge 60, Type (0, 1), BuildingBlock: ZUJKAS_clean_linker_0, # of connection points: 2
#     Edge 61, Type (0, 1), BuildingBlock: ZUJKAS_clean_linker_0, # of connection points: 2
#     Edge 62, Type (0, 1), BuildingBlock: ZUJKAS_clean_linker_0, # of connection points: 2
#     Edge 63, Type (0, 1), BuildingBlock: ZUJKAS_clean_linker_0, # of connection points: 2
#     Edge 64, Type (0, 1), BuildingBlock: ZUJKAS_clean_linker_0, # of connection points: 2
#     Edge 65, Type (0, 1), BuildingBlock: ZUJKAS_clean_linker_0, # of connection points: 2
#     Edge 66, Type (0, 1), BuildingBlock: ZUJKAS_clean_linker_0, # of connection points: 2
#     Edge 67, Type (0, 1), BuildingBlock: ZUJKAS_clean_linker_0, # of connection points: 2
#     Edge 68, Type (0, 1), BuildingBlock: ZUJKAS_clean_linker_0, # of connection points: 2
#     Edge 69, Type (0, 1), BuildingBlock: ZUJKAS_clean_linker_0, # of connection points: 2
#     Edge 70, Type (0, 1), BuildingBlock: ZUJKAS_clean_linker_0, # of connection points: 2
#     Edge 71, Type (0, 1), BuildingBlock: ZUJKAS_clean_linker_0, # of connection points: 2
#     Edge 72, Type (0, 1), BuildingBlock: ZUJKAS_clean_linker_0, # of connection points: 2
#     Edge 73, Type (0, 1), BuildingBlock: ZUJKAS_clean_linker_0, # of connection points: 2
#     Edge 74, Type (0, 1), BuildingBlock: ZUJKAS_clean_linker_0, # of connection points: 2
#     Edge 75, Type (0, 1), BuildingBlock: ZUJKAS_clean_linker_0, # of connection points: 2
#     Edge 76, Type (0, 1), BuildingBlock: ZUJKAS_clean_linker_0, # of connection points: 2
#     Edge 77, Type (0, 1), BuildingBlock: ZUJKAS_clean_linker_0, # of connection points: 2
#     Edge 78, Type (0, 1), BuildingBlock: ZUJKAS_clean_linker_0, # of connection points: 2
#     Edge 79, Type (0, 1), BuildingBlock: ZUJKAS_clean_linker_0, # of connection points: 2
#     Edge 80, Type (0, 1), BuildingBlock: ZUJKAS_clean_linker_0, # of connection points: 2
#     Edge 81, Type (0, 1), BuildingBlock: ZUJKAS_clean_linker_0, # of connection points: 2
#     Edge 82, Type (0, 1), BuildingBlock: ZUJKAS_clean_linker_0, # of connection points: 2
#     Edge 83, Type (0, 1), BuildingBlock: ZUJKAS_clean_linker_0, # of connection points: 2
#     Edge 84, Type (0, 1), BuildingBlock: ZUJKAS_clean_linker_0, # of connection points: 2
#     Edge 85, Type (0, 1), BuildingBlock: ZUJKAS_clean_linker_0, # of connection points: 2
#     Edge 86, Type (0, 1), BuildingBlock: ZUJKAS_clean_linker_0, # of connection points: 2
#     Edge 87, Type (0, 1), BuildingBlock: ZUJKAS_clean_linker_0, # of connection points: 2
#     Edge 88, Type (0, 1), BuildingBlock: ZUJKAS_clean_linker_0, # of connection points: 2
#     Edge 89, Type (0, 1), BuildingBlock: ZUJKAS_clean_linker_0, # of connection points: 2
#     Edge 90, Type (0, 1), BuildingBlock: ZUJKAS_clean_linker_0, # of connection points: 2
#     Edge 91, Type (0, 1), BuildingBlock: ZUJKAS_clean_linker_0, # of connection points: 2
#     Edge 92, Type (0, 1), BuildingBlock: ZUJKAS_clean_linker_0, # of connection points: 2
#     Edge 93, Type (0, 1), BuildingBlock: ZUJKAS_clean_linker_0, # of connection points: 2
#     Edge 94, Type (0, 1), BuildingBlock: ZUJKAS_clean_linker_0, # of connection points: 2
#     Edge 95, Type (0, 1), BuildingBlock: ZUJKAS_clean_linker_0, # of connection points: 2
#     Edge 96, Type (0, 1), BuildingBlock: ZUJKAS_clean_linker_0, # of connection points: 2
#     Edge 97, Type (0, 1), BuildingBlock: ZUJKAS_clean_linker_0, # of connection points: 2
#     Edge 98, Type (0, 1), BuildingBlock: ZUJKAS_clean_linker_0, # of connection points: 2
#     Edge 99, Type (0, 1), BuildingBlock: ZUJKAS_clean_linker_0, # of connection points: 2
#     Edge 100, Type (0, 1), BuildingBlock: ZUJKAS_clean_linker_0, # of connection points: 2
#     Edge 101, Type (0, 1), BuildingBlock: ZUJKAS_clean_linker_0, # of connection points: 2
#     Edge 102, Type (0, 1), BuildingBlock: ZUJKAS_clean_linker_0, # of connection points: 2
#     Edge 103, Type (0, 1), BuildingBlock: ZUJKAS_clean_linker_0, # of connection points: 2
#     Edge 104, Type (0, 1), BuildingBlock: ZUJKAS_clean_linker_0, # of connection points: 2
#     Edge 105, Type (0, 1), BuildingBlock: ZUJKAS_clean_linker_0, # of connection points: 2
#     Edge 106, Type (0, 1), BuildingBlock: ZUJKAS_clean_linker_0, # of connection points: 2
#     Edge 107, Type (0, 1), BuildingBlock: ZUJKAS_clean_linker_0, # of connection points: 2
#     Edge 108, Type (0, 1), BuildingBlock: ZUJKAS_clean_linker_0, # of connection points: 2
#     Edge 109, Type (0, 1), BuildingBlock: ZUJKAS_clean_linker_0, # of connection points: 2
#     Edge 110, Type (0, 1), BuildingBlock: ZUJKAS_clean_linker_0, # of connection points: 2
#     Edge 111, Type (0, 1), BuildingBlock: ZUJKAS_clean_linker_0, # of connection points: 2
#     Edge 112, Type (0, 1), BuildingBlock: ZUJKAS_clean_linker_0, # of connection points: 2
#     Edge 113, Type (0, 1), BuildingBlock: ZUJKAS_clean_linker_0, # of connection points: 2
#     Edge 114, Type (0, 1), BuildingBlock: ZUJKAS_clean_linker_0, # of connection points: 2
#     Edge 115, Type (0, 1), BuildingBlock: ZUJKAS_clean_linker_0, # of connection points: 2
#     Edge 116, Type (0, 1), BuildingBlock: ZUJKAS_clean_linker_0, # of connection points: 2
#     Edge 117, Type (0, 1), BuildingBlock: ZUJKAS_clean_linker_0, # of connection points: 2
#     Edge 118, Type (0, 1), BuildingBlock: ZUJKAS_clean_linker_0, # of connection points: 2
#     Edge 119, Type (0, 1), BuildingBlock: ZUJKAS_clean_linker_0, # of connection points: 2
#     Edge 120, Type (0, 1), BuildingBlock: ZUJKAS_clean_linker_0, # of connection points: 2
#     Edge 121, Type (0, 1), BuildingBlock: ZUJKAS_clean_linker_0, # of connection points: 2
#     Edge 122, Type (0, 1), BuildingBlock: ZUJKAS_clean_linker_0, # of connection points: 2
#     Edge 123, Type (0, 1), BuildingBlock: ZUJKAS_clean_linker_0, # of connection points: 2
#     Edge 124, Type (0, 1), BuildingBlock: ZUJKAS_clean_linker_0, # of connection points: 2
#     Edge 125, Type (0, 1), BuildingBlock: ZUJKAS_clean_linker_0, # of connection points: 2
#     Edge 126, Type (0, 1), BuildingBlock: ZUJKAS_clean_linker_0, # of connection points: 2
#     Edge 127, Type (0, 1), BuildingBlock: ZUJKAS_clean_linker_0, # of connection points: 2
#     Edge 128, Type (0, 1), BuildingBlock: ZUJKAS_clean_linker_0, # of connection points: 2
#     Edge 129, Type (0, 1), BuildingBlock: ZUJKAS_clean_linker_0, # of connection points: 2
#     Edge 130, Type (0, 1), BuildingBlock: ZUJKAS_clean_linker_0, # of connection points: 2
#     Edge 131, Type (0, 1), BuildingBlock: ZUJKAS_clean_linker_0, # of connection points: 2
#     Edge 132, Type (0, 1), BuildingBlock: ZUJKAS_clean_linker_0, # of connection points: 2
#     Edge 133, Type (0, 1), BuildingBlock: ZUJKAS_clean_linker_0, # of connection points: 2
#     Edge 134, Type (0, 1), BuildingBlock: ZUJKAS_clean_linker_0, # of connection points: 2
#     Edge 135, Type (0, 1), BuildingBlock: ZUJKAS_clean_linker_0, # of connection points: 2
# Relax obj value: 0.138
# Max RMSD: 0.261
# Mean RMSD: 0.140
data_MOF--net-gar--node1-CEKHIL_clean_sbu_0--node2-BETDEL_clean_sbu_0--edge1-ZUJKAS_clean_linker_0
_symmetry_space_group_name_H-M    P1
_symmetry_Int_Tables_number       1
_symmetry_cell_setting            triclinic
loop_
_symmetry_equiv_pos_as_xyz
'x, y, z'
_cell_length_a     72.121874
_cell_length_b     68.606002
_cell_length_c     69.31249
_cell_angle_alpha  95.003005
_cell_angle_beta   92.634346
_cell_angle_gamma 100.0678
loop_
_atom_site_label
_atom_site_type_symbol
_atom_site_fract_x
_atom_site_fract_y
_atom_site_fract_z
_atom_type_partial_charge
Co0 Co 0.0376 0.28058 0.39231 0.0
O1 O 0.06382 0.27839 0.39111 0.0
O2 O 0.04188 0.26746 0.36741 0.0
C3 C 0.04272 0.3128 0.40444 0.0
O4 O 0.00945 0.28122 0.38771 0.0
Co5 Co 0.02043 0.29073 0.43158 0.0
O6 O 0.99884 0.29501 0.41471 0.0
C7 C 0.03061 0.25121 0.42246 0.0
C8 C 0.05955 0.27012 0.37353 0.0
C9 C 0.99662 0.28855 0.3968 0.0
O10 O 0.0323 0.25443 0.40448 0.0
O11 O 0.02782 0.26452 0.4356 0.0
O12 O 0.04333 0.30822 0.38592 0.0
O13 O 0.04067 0.29801 0.41487 0.0
Co14 Co 0.99767 0.78135 0.63451 0.0
O15 O 0.97084 0.78066 0.63447 0.0
O16 O 0.98839 0.77411 0.65924 0.0
C17 C 0.00418 0.81071 0.62149 0.0
O18 O 0.02574 0.78119 0.64029 0.0
Co19 Co 0.01836 0.78154 0.59606 0.0
O20 O 0.04164 0.78556 0.61337 0.0
C21 C 0.99448 0.74472 0.60606 0.0
C22 C 0.97185 0.77613 0.65223 0.0
C23 C 0.04122 0.78345 0.63145 0.0
O24 O 0.99345 0.75252 0.62349 0.0
O25 O 0.00192 0.75455 0.59261 0.0
O26 O 0.00205 0.8104 0.63998 0.0
O27 O 1.00107 0.7936 0.61151 0.0
Co28 Co 0.53562 0.77641 0.88995 0.0
O29 O 0.56169 0.77321 0.89026 0.0
O30 O 0.54096 0.7638 0.86524 0.0
C31 C 0.54124 0.80831 0.90314 0.0
O32 O 0.50805 0.77844 0.88342 0.0
Co33 Co 0.51579 0.78603 0.92766 0.0
O34 O 0.4962 0.79242 0.90955 0.0
C35 C 0.52201 0.74501 0.91723 0.0
C36 C 0.55825 0.76566 0.87234 0.0
C37 C 0.49505 0.78636 0.89156 0.0
O38 O 0.52828 0.74971 0.90079 0.0
O39 O 0.51743 0.75758 0.93009 0.0
O40 O 0.543 0.80421 0.88472 0.0
O41 O 0.53775 0.79316 0.91305 0.0
Co42 Co 0.49907 0.27795 0.13342 0.0
O43 O 0.47217 0.27723 0.13235 0.0
O44 O 0.48872 0.26987 0.15746 0.0
C45 C 0.50598 0.3078 0.12129 0.0
O46 O 0.52695 0.27765 0.14036 0.0
Co47 Co 0.52206 0.28016 0.09646 0.0
O48 O 0.54441 0.28519 0.11509 0.0
C49 C 0.49759 0.24242 0.10399 0.0
C50 C 0.47246 0.27212 0.14993 0.0
C51 C 0.54301 0.28154 0.13273 0.0
O52 O 0.49517 0.24944 0.12139 0.0
O53 O 0.50623 0.25294 0.09164 0.0
O54 O 0.50332 0.30697 0.13965 0.0
O55 O 0.50342 0.29091 0.111 0.0
Co56 Co 0.0228 0.79451 0.14871 0.0
O57 O 0.99565 0.78707 0.14549 0.0
O58 O 0.01283 0.78532 0.17234 0.0
C59 C 0.02409 0.82349 0.13517 0.0
O60 O 0.05047 0.80153 0.15848 0.0
Co61 Co 0.04893 0.80136 0.11476 0.0
O62 O 0.06948 0.81127 0.13508 0.0
C63 C 0.03111 0.76049 0.12184 0.0
C64 C 0.99622 0.78323 0.16352 0.0
C65 C 0.06684 0.80842 0.15273 0.0
O66 O 0.02587 0.76678 0.13844 0.0
O67 O 0.03874 0.77213 0.10981 0.0
O68 O 0.02033 0.82252 0.15326 0.0
O69 O 0.02606 0.80699 0.12579 0.0
Co70 Co 0.50433 0.76992 0.37465 0.0
O71 O 0.53139 0.77215 0.37731 0.0
O72 O 0.51346 0.75869 0.35112 0.0
C73 C 0.5035 0.80133 0.38681 0.0
O74 O 0.47636 0.7659 0.36584 0.0
Co75 Co 0.48019 0.77524 0.4102 0.0
O76 O 0.45975 0.77581 0.39036 0.0
C77 C 0.49517 0.73804 0.4024 0.0
C78 C 0.53027 0.76378 0.35965 0.0
C79 C 0.46095 0.7699 0.37259 0.0
O80 O 0.50106 0.7434 0.38604 0.0
O81 O 0.48775 0.74919 0.41442 0.0
O82 O 0.50712 0.79767 0.36879 0.0
O83 O 0.50207 0.78639 0.39706 0.0
Co84 Co 0.5244 0.29391 0.64693 0.0
O85 O 0.49735 0.28547 0.64354 0.0
O86 O 0.51461 0.28466 0.67058 0.0
C87 C 0.52465 0.32256 0.63303 0.0
O88 O 0.55191 0.3018 0.65693 0.0
Co89 Co 0.55098 0.30201 0.61358 0.0
O90 O 0.5711 0.31264 0.6341 0.0
C91 C 0.53695 0.26047 0.62232 0.0
C92 C 0.498 0.28187 0.66163 0.0
C93 C 0.56828 0.30925 0.65159 0.0
O94 O 0.52866 0.26649 0.63722 0.0
O95 O 0.54532 0.27221 0.61077 0.0
O96 O 0.521 0.32162 0.65115 0.0
O97 O 0.52734 0.30624 0.62382 0.0
Co98 Co 0.00639 0.26785 0.87447 0.0
O99 O 0.03355 0.27135 0.87707 0.0
O100 O 0.01591 0.25711 0.85094 0.0
C101 C 0.00461 0.29896 0.88683 0.0
O102 O 0.97835 0.2626 0.86563 0.0
Co103 Co 0.98179 0.27205 0.90976 0.0
O104 O 0.96171 0.2733 0.88972 0.0
C105 C 0.99863 0.23594 0.90227 0.0
C106 C 0.03266 0.26297 0.85942 0.0
C107 C 0.96294 0.26696 0.87208 0.0
O108 O 0.00431 0.24144 0.88589 0.0
O109 O 0.99054 0.2466 0.91412 0.0
O110 O 0.00811 0.29558 0.86873 0.0
O111 O 0.00361 0.28395 0.89693 0.0
Co112 Co 0.3983 0.04659 0.28624 0.0
O113 O 0.39622 0.07315 0.28033 0.0
O114 O 0.37405 0.04631 0.27351 0.0
C115 C 0.41064 0.05463 0.31687 0.0
O116 O 0.39403 0.01745 0.29075 0.0
Co117 Co 0.43594 0.03285 0.29683 0.0
O118 O 0.42004 0.00745 0.30232 0.0
C119 C 0.42653 0.04028 0.25652 0.0
C120 C 0.37931 0.06534 0.27309 0.0
C121 C 0.40243 0.00428 0.29758 0.0
O122 O 0.40945 0.04124 0.26056 0.0
O123 O 0.43948 0.03898 0.26937 0.0
O124 O 0.39255 0.05289 0.31314 0.0
O125 O 0.4206 0.05311 0.30201 0.0
Co126 Co 0.27178 0.14773 0.48973 0.0
O127 O 0.29901 0.15197 0.49407 0.0
O128 O 0.27949 0.1246 0.49934 0.0
C129 C 0.27174 0.15951 0.46009 0.0
O130 O 0.2435 0.13669 0.48635 0.0
Co131 Co 0.24896 0.18131 0.4842 0.0
O132 O 0.22685 0.15965 0.47786 0.0
C133 C 0.2648 0.17655 0.52333 0.0
C134 C 0.29676 0.13399 0.49928 0.0
C135 C 0.22782 0.14188 0.48123 0.0
O136 O 0.2691 0.15972 0.5171 0.0
O137 O 0.25837 0.18803 0.5121 0.0
O138 O 0.27425 0.14142 0.46187 0.0
O139 O 0.27054 0.17012 0.47613 0.0
Co140 Co 0.14483 0.00547 0.7845 0.0
O141 O 0.14348 0.97699 0.77937 0.0
O142 O 0.16887 0.99964 0.77682 0.0
C143 C 0.13004 0.00421 0.81277 0.0
O144 O 0.15267 0.03562 0.78916 0.0
Co145 Co 0.10985 0.02597 0.7878 0.0
O146 O 0.12823 0.05082 0.79568 0.0
C147 C 0.12044 0.01104 0.74918 0.0
C148 C 0.1612 0.98095 0.77575 0.0
C149 C 0.1458 0.05137 0.7938 0.0
O150 O 0.13621 0.00766 0.75657 0.0
O151 O 0.10757 0.0164 0.75947 0.0
O152 O 0.1479 0.00331 0.81254 0.0
O153 O 0.12162 0.00457 0.79603 0.0
Co154 Co 0.24218 0.8972 0.99505 0.0
O155 O 0.21645 0.89848 0.00072 0.0
O156 O 0.24044 0.92384 0.0048 0.0
C157 C 0.2354 0.87929 0.96606 0.0
O158 O 0.27007 0.90271 0.99025 0.0
Co159 Co 0.25838 0.85823 0.98824 0.0
O160 O 0.28085 0.87532 0.97936 0.0
C161 C 0.25136 0.87385 0.02805 0.0
C162 C 0.22255 0.91729 0.00591 0.0
C163 C 0.2831 0.89409 0.98331 0.0
O164 O 0.24758 0.89003 0.02204 0.0
O165 O 0.25464 0.85923 0.01672 0.0
O166 O 0.23605 0.89844 0.96741 0.0
O167 O 0.23768 0.87167 0.98214 0.0
Co168 Co 0.25564 0.39948 0.02143 0.0
O169 O 0.22844 0.39655 0.0191 0.0
O170 O 0.24765 0.42331 0.03278 0.0
C171 C 0.25861 0.38755 0.99036 0.0
O172 O 0.28427 0.40896 0.02546 0.0
Co173 Co 0.27654 0.36374 0.01518 0.0
O174 O 0.29918 0.38461 0.01409 0.0
C175 C 0.25608 0.3692 0.05078 0.0
C176 C 0.23049 0.4146 0.02734 0.0
C177 C 0.29938 0.40262 0.02056 0.0
O178 O 0.25436 0.38697 0.04709 0.0
O179 O 0.26287 0.35727 0.03896 0.0
O180 O 0.25688 0.40599 0.99438 0.0
O181 O 0.25725 0.37688 0.0048 0.0
Co182 Co 0.77835 0.13923 0.01659 0.0
O183 O 0.80492 0.13906 0.01983 0.0
O184 O 0.78235 0.11401 0.02488 0.0
C185 C 0.78004 0.15181 0.98769 0.0
O186 O 0.74965 0.13337 0.01419 0.0
Co187 Co 0.76215 0.17786 0.01217 0.0
O188 O 0.73763 0.1598 0.00606 0.0
C189 C 0.77424 0.16792 0.05117 0.0
C190 C 0.80027 0.12093 0.02427 0.0
C191 C 0.73561 0.14165 0.00952 0.0
O192 O 0.77805 0.15113 0.04422 0.0
O193 O 0.76902 0.18069 0.04068 0.0
O194 O 0.77896 0.13281 0.98857 0.0
O195 O 0.78092 0.16253 0.00401 0.0
Co196 Co 0.12967 0.49991 0.25312 0.0
O197 O 0.13061 0.4726 0.25706 0.0
O198 O 0.15358 0.49379 0.246 0.0
C199 C 0.11766 0.50752 0.28162 0.0
O200 O 0.13488 0.52897 0.248 0.0
Co201 Co 0.09275 0.5174 0.25172 0.0
O202 O 0.10975 0.54365 0.25261 0.0
C203 C 0.10076 0.48935 0.21966 0.0
C204 C 0.14766 0.47617 0.25124 0.0
C205 C 0.12708 0.54446 0.24925 0.0
O206 O 0.11816 0.49169 0.22593 0.0
O207 O 0.08819 0.49652 0.22905 0.0
O208 O 0.13565 0.50754 0.28093 0.0
O209 O 0.1076 0.50165 0.26566 0.0
Co210 Co 0.75598 0.90075 0.52392 0.0
O211 O 0.72878 0.89814 0.52202 0.0
O212 O 0.74845 0.9249 0.53501 0.0
C213 C 0.75874 0.88819 0.49304 0.0
O214 O 0.78467 0.90986 0.52739 0.0
Co215 Co 0.77608 0.86422 0.51855 0.0
O216 O 0.79956 0.88428 0.51966 0.0
C217 C 0.75573 0.87096 0.55379 0.0
C218 C 0.73115 0.9163 0.53005 0.0
C219 C 0.7998 0.90267 0.52454 0.0
O220 O 0.7549 0.88888 0.5499 0.0
O221 O 0.76175 0.85838 0.54203 0.0
O222 O 0.75691 0.90665 0.49669 0.0
O223 O 0.75731 0.87778 0.50768 0.0
Co224 Co 0.8836 0.04094 0.24336 0.0
O225 O 0.88662 0.06964 0.24543 0.0
O226 O 0.86106 0.04904 0.23288 0.0
C227 C 0.89485 0.03879 0.274 0.0
O228 O 0.8744 0.01073 0.23988 0.0
Co229 Co 0.91725 0.01856 0.24844 0.0
O230 O 0.89711 0.99579 0.25198 0.0
C231 C 0.91073 0.03588 0.21151 0.0
C232 C 0.86945 0.06726 0.2379 0.0
C233 C 0.88015 0.99529 0.24566 0.0
O234 O 0.89519 0.04083 0.21709 0.0
O235 O 0.92169 0.02805 0.22233 0.0
O236 O 0.87749 0.04099 0.27068 0.0
O237 O 0.90503 0.03957 0.25918 0.0
Co238 Co 0.2757 0.6364 0.51361 0.0
O239 O 0.30248 0.63757 0.51759 0.0
O240 O 0.28066 0.61113 0.52062 0.0
C241 C 0.27715 0.65097 0.48571 0.0
O242 O 0.2471 0.62898 0.51004 0.0
Co243 Co 0.25732 0.67413 0.51126 0.0
O244 O 0.23397 0.65499 0.50275 0.0
C245 C 0.26915 0.66221 0.54949 0.0
C246 C 0.29844 0.619 0.52093 0.0
C247 C 0.23272 0.63664 0.50517 0.0
O248 O 0.27393 0.64624 0.54166 0.0
O249 O 0.26353 0.67535 0.53977 0.0
O250 O 0.27766 0.63211 0.48553 0.0
O251 O 0.27708 0.66046 0.50258 0.0
Co252 Co 0.38562 0.54388 0.75112 0.0
O253 O 0.38819 0.57249 0.7549 0.0
O254 O 0.36338 0.55229 0.74019 0.0
C255 C 0.39548 0.5397 0.78175 0.0
O256 O 0.37718 0.5137 0.74562 0.0
Co257 Co 0.42018 0.52277 0.75591 0.0
O258 O 0.40052 0.49865 0.75614 0.0
C259 C 0.41555 0.54454 0.72159 0.0
C260 C 0.37142 0.57036 0.74643 0.0
C261 C 0.3835 0.49802 0.74986 0.0
O262 O 0.39848 0.54585 0.72563 0.0
O263 O 0.42685 0.53763 0.73285 0.0
O264 O 0.37817 0.54183 0.7779 0.0
O265 O 0.40638 0.54196 0.76759 0.0
Co266 Co 0.63104 0.00203 0.74574 0.0
O267 O 0.6324 0.9751 0.75073 0.0
O268 O 0.6553 0.99617 0.73942 0.0
C269 C 0.61849 0.01028 0.77375 0.0
O270 O 0.63572 0.03089 0.73976 0.0
Co271 Co 0.59338 0.01793 0.74257 0.0
O272 O 0.60963 0.04441 0.74198 0.0
C273 C 0.60256 0.98889 0.71228 0.0
C274 C 0.64954 0.97873 0.74519 0.0
C275 C 0.62723 0.04588 0.73967 0.0
O276 O 0.62 0.99256 0.71856 0.0
O277 O 0.58951 0.99574 0.7211 0.0
O278 O 0.63657 0.01072 0.77336 0.0
O279 O 0.60866 0.00361 0.7578 0.0
Co280 Co 0.77278 0.64816 0.99186 0.0
O281 O 0.79998 0.65153 0.99547 0.0
O282 O 0.78004 0.62436 0.00046 0.0
C283 C 0.77253 0.66078 0.96264 0.0
O284 O 0.74433 0.63811 0.98907 0.0
Co285 Co 0.75113 0.68297 0.98788 0.0
O286 O 0.7284 0.66203 0.98166 0.0
C287 C 0.76727 0.67653 0.02641 0.0
C288 C 0.79742 0.63334 0.00012 0.0
C289 C 0.72885 0.64403 0.98456 0.0
O290 O 0.77102 0.65963 0.0196 0.0
O291 O 0.76106 0.68859 0.0157 0.0
O292 O 0.77435 0.64239 0.96379 0.0
O293 O 0.77204 0.6711 0.97902 0.0
Co294 Co 0.89717 0.54838 0.79022 0.0
O295 O 0.89845 0.57494 0.78227 0.0
O296 O 0.87391 0.55029 0.77672 0.0
C297 C 0.90981 0.55751 0.82067 0.0
O298 O 0.88916 0.5199 0.79643 0.0
Co299 Co 0.93119 0.5296 0.80304 0.0
O300 O 0.91237 0.50723 0.81046 0.0
C301 C 0.92369 0.53443 0.76159 0.0
C302 C 0.88127 0.56863 0.77495 0.0
C303 C 0.89515 0.50597 0.80472 0.0
O304 O 0.90773 0.5395 0.76515 0.0
O305 O 0.93548 0.53136 0.77486 0.0
O306 O 0.8921 0.55797 0.8166 0.0
O307 O 0.91938 0.55296 0.8062 0.0
Co308 Co 0.73588 0.40376 0.49551 0.0
O309 O 0.71015 0.40665 0.49917 0.0
O310 O 0.73539 0.4294 0.50891 0.0
C311 C 0.73156 0.39136 0.46418 0.0
O312 O 0.76417 0.40719 0.49363 0.0
Co313 Co 0.74802 0.36311 0.48469 0.0
O314 O 0.77326 0.37915 0.4815 0.0
C315 C 0.73711 0.37332 0.52436 0.0
C316 C 0.71713 0.42433 0.50744 0.0
C317 C 0.77682 0.39763 0.48731 0.0
O318 O 0.73738 0.3915 0.52087 0.0
O319 O 0.73908 0.35955 0.51131 0.0
O320 O 0.73358 0.41044 0.46872 0.0
O321 O 0.73062 0.38056 0.47854 0.0
Co322 Co 0.64413 0.50381 0.28938 0.0
O323 O 0.64219 0.47524 0.28445 0.0
O324 O 0.66776 0.49735 0.28109 0.0
C325 C 0.63036 0.50314 0.31819 0.0
O326 O 0.65248 0.53394 0.29373 0.0
Co327 Co 0.60959 0.52493 0.29364 0.0
O328 O 0.62845 0.54949 0.30109 0.0
C329 C 0.61881 0.50936 0.25473 0.0
C330 C 0.65986 0.47877 0.28054 0.0
C331 C 0.6459 0.54981 0.29864 0.0
O332 O 0.63475 0.50593 0.26163 0.0
O333 O 0.6063 0.51491 0.26542 0.0
O334 O 0.64804 0.50175 0.31732 0.0
O335 O 0.6214 0.50352 0.30173 0.0
Dy336 Dy 0.99704 0.02417 0.00808 0.0
C337 C 0.07734 0.03038 0.01941 0.0
C338 C 0.96062 0.02892 0.01153 0.0
Dy339 Dy 0.04035 0.03395 0.01927 0.0
O340 O 0.96593 0.01629 0.99869 0.0
O341 O 0.97512 0.03876 0.02206 0.0
O342 O 0.00181 0.00558 0.98071 0.0
O343 O 0.0225 0.02941 0.99268 0.0
C344 C 0.01917 0.01482 0.97995 0.0
C345 C 0.01777 0.04376 0.04668 0.0
O346 O 0.03808 0.06127 0.0047 0.0
O347 O 0.00517 0.05651 0.00244 0.0
O348 O 0.06975 0.03913 0.03364 0.0
O349 O 0.06482 0.02406 0.00519 0.0
O350 O 0.03475 0.05373 0.04545 0.0
O351 O 0.01486 0.02864 0.03458 0.0
O352 O 0.99985 0.99702 0.02288 0.0
O353 O 0.03261 0.00129 0.02332 0.0
C354 C 0.02205 0.06756 0.00075 0.0
C355 C 0.0159 0.99043 0.02585 0.0
Dy356 Dy 0.25927 0.77931 0.241 0.0
C357 C 0.26063 0.76253 0.32291 0.0
C358 C 0.24925 0.79302 0.20737 0.0
Dy359 Dy 0.257 0.77489 0.28703 0.0
O360 O 0.25757 0.77767 0.20844 0.0
O361 O 0.24636 0.80059 0.22457 0.0
O362 O 0.28919 0.77318 0.23857 0.0
O363 O 0.27593 0.77214 0.26441 0.0
C364 C 0.29106 0.7702 0.25685 0.0
C365 C 0.22961 0.78987 0.2692 0.0
O366 O 0.27626 0.80406 0.28788 0.0
O367 O 0.27169 0.80981 0.25533 0.0
O368 O 0.2447 0.76098 0.31282 0.0
O369 O 0.27442 0.77132 0.31361 0.0
O370 O 0.23473 0.79451 0.28756 0.0
O371 O 0.23818 0.77666 0.2624 0.0
O372 O 0.2433 0.74818 0.24028 0.0
O373 O 0.24903 0.74352 0.27302 0.0
C374 C 0.27873 0.81551 0.27342 0.0
C375 C 0.24256 0.73677 0.25492 0.0
Dy376 Dy 0.5336 0.02046 0.52065 0.0
C377 C 0.45477 0.03265 0.5189 0.0
C378 C 0.5683 0.01113 0.52854 0.0
Dy379 Dy 0.48929 0.02143 0.52192 0.0
O380 O 0.5655 0.02701 0.52052 0.0
O381 O 0.55226 0.00084 0.53243 0.0
O382 O 0.53172 0.0232 0.48832 0.0
O383 O 0.51302 0.03472 0.50645 0.0
C384 C 0.51673 0.03133 0.48912 0.0
C385 C 0.50435 0.00033 0.54733 0.0
O386 O 0.48951 0.99649 0.49897 0.0
O387 O 0.51891 0.9899 0.50885 0.0
O388 O 0.46368 0.03045 0.5351 0.0
O389 O 0.46451 0.02815 0.50434 0.0
O390 O 0.48672 0.99575 0.54087 0.0
O391 O 0.51187 0.01625 0.54114 0.0
O392 O 0.53491 0.04914 0.53953 0.0
O393 O 0.50281 0.05139 0.53624 0.0
C394 C 0.50252 0.98502 0.49855 0.0
C395 C 0.52056 0.05869 0.5427 0.0
Dy396 Dy 0.24525 0.27248 0.76041 0.0
C397 C 0.32516 0.27523 0.75586 0.0
C398 C 0.20781 0.26665 0.76773 0.0
Dy399 Dy 0.28782 0.27082 0.76325 0.0
O400 O 0.21714 0.2826 0.76148 0.0
O401 O 0.21885 0.25381 0.7696 0.0
O402 O 0.25086 0.29843 0.74242 0.0
O403 O 0.27125 0.29439 0.7636 0.0
C404 C 0.26798 0.30461 0.75 0.0
C405 C 0.26488 0.23891 0.77376 0.0
O406 O 0.28627 0.28826 0.79177 0.0
O407 O 0.25364 0.28013 0.79242 0.0
O408 O 0.31635 0.26174 0.76588 0.0
O409 O 0.31367 0.28655 0.75031 0.0
O410 O 0.28191 0.24504 0.7815 0.0
O411 O 0.26186 0.24901 0.76002 0.0
O412 O 0.24686 0.25657 0.73107 0.0
O413 O 0.27966 0.26271 0.73133 0.0
C414 C 0.27052 0.28776 0.80106 0.0
C415 C 0.26279 0.2563 0.72222 0.0
Dy416 Dy 0.00741 0.01354 0.4873 0.0
C417 C 0.05238 0.03957 0.56027 0.0
C418 C 0.98383 0.00634 0.45448 0.0
Dy419 Dy 0.02577 0.03162 0.53003 0.0
O420 O 0.99999 0.00049 0.45629 0.0
O421 O 0.9805 0.01572 0.47066 0.0
O422 O 0.03635 0.00894 0.47873 0.0
O423 O 0.03369 0.0315 0.50008 0.0
C424 C 0.04536 0.0226 0.49173 0.0
C425 C 0.98827 0.01701 0.53006 0.0
O426 O 0.02401 0.06012 0.51672 0.0
O427 O 0.00705 0.04629 0.48754 0.0
O428 O 0.03712 0.04734 0.55925 0.0
O429 O 0.05331 0.02818 0.54447 0.0
O430 O 0.99834 0.0254 0.54562 0.0
O431 O 0.99905 0.01778 0.51638 0.0
O432 O 0.00479 0.98615 0.50303 0.0
O433 O 0.02861 0.99938 0.52694 0.0
C434 C 0.01496 0.06184 0.49986 0.0
C435 C 0.01684 0.98411 0.51749 0.0
Dy436 Dy 0.29143 0.78991 0.76526 0.0
C437 C 0.21616 0.76026 0.72737 0.0
C438 C 0.32223 0.80366 0.79002 0.0
Dy439 Dy 0.25086 0.76906 0.74698 0.0
O440 O 0.31954 0.80987 0.77301 0.0
O441 O 0.30772 0.79065 0.79368 0.0
O442 O 0.30575 0.779 0.73963 0.0
O443 O 0.27764 0.78248 0.73636 0.0
C444 C 0.29059 0.77538 0.72813 0.0
C445 C 0.25623 0.77258 0.78586 0.0
O446 O 0.2657 0.7431 0.74513 0.0
O447 O 0.28945 0.75712 0.76878 0.0
O448 O 0.21931 0.7655 0.74581 0.0
O449 O 0.23207 0.75925 0.71952 0.0
O450 O 0.24474 0.75787 0.7762 0.0
O451 O 0.26296 0.78466 0.77436 0.0
O452 O 0.27826 0.81712 0.76292 0.0
O453 O 0.2504 0.80158 0.74513 0.0
C454 C 0.28033 0.74172 0.75695 0.0
C455 C 0.26187 0.81775 0.75348 0.0
Dy456 Dy 0.50631 0.01835 0.03004 0.0
C457 C 0.52212 0.01997 0.94827 0.0
C458 C 0.49557 0.01925 0.06711 0.0
Dy459 Dy 0.51041 0.02534 0.98462 0.0
O460 O 0.4911 0.00404 0.05415 0.0
O461 O 0.50628 0.03377 0.05994 0.0
O462 O 0.52259 0.99319 0.02601 0.0
O463 O 0.50656 0.00062 0.00261 0.0
C464 C 0.51828 0.99005 0.00739 0.0
C465 C 0.50379 0.05777 0.00638 0.0
O466 O 0.48082 0.00894 0.98379 0.0
O467 O 0.47642 0.01379 0.01706 0.0
O468 O 0.50725 0.02756 0.95245 0.0
O469 O 0.53016 0.01508 0.96383 0.0
O470 O 0.50601 0.05773 0.98782 0.0
O471 O 0.50572 0.04107 0.01109 0.0
O472 O 0.53561 0.03602 0.03104 0.0
O473 O 0.53996 0.03167 0.9978 0.0
C474 C 0.46987 0.0082 0.99873 0.0
C475 C 0.54643 0.03718 0.01603 0.0
Dy476 Dy 0.26561 0.28895 0.26241 0.0
C477 C 0.26052 0.20486 0.2485 0.0
C478 C 0.26269 0.32811 0.26359 0.0
Dy479 Dy 0.25743 0.24391 0.24931 0.0
O480 O 0.26465 0.31861 0.27878 0.0
O481 O 0.26288 0.31633 0.24796 0.0
O482 O 0.28243 0.28327 0.28893 0.0
O483 O 0.25926 0.26204 0.2768 0.0
C484 C 0.27276 0.2654 0.28954 0.0
C485 C 0.25032 0.26762 0.22221 0.0
O486 O 0.22977 0.24591 0.26159 0.0
O487 O 0.23378 0.28043 0.26328 0.0
O488 O 0.25596 0.21349 0.23343 0.0
O489 O 0.26287 0.21746 0.26386 0.0
O490 O 0.24072 0.2497 0.22266 0.0
O491 O 0.26376 0.27083 0.23499 0.0
O492 O 0.29375 0.28677 0.25098 0.0
O493 O 0.28907 0.25216 0.24789 0.0
C494 C 0.22316 0.26271 0.26459 0.0
C495 C 0.30005 0.26982 0.24741 0.0
Dy496 Dy 0.5082 0.51305 0.99284 0.0
C497 C 0.54697 0.53984 0.06706 0.0
C498 C 0.48456 0.50359 0.9601 0.0
Dy499 Dy 0.52374 0.5319 0.03387 0.0
O500 O 0.50242 0.50256 0.96102 0.0
O501 O 0.4796 0.50922 0.97718 0.0
O502 O 0.53751 0.5099 0.98475 0.0
O503 O 0.53359 0.53328 0.00479 0.0
C504 C 0.54581 0.52467 0.997 0.0
C505 C 0.4861 0.51972 0.0294 0.0
O506 O 0.52368 0.56005 0.01976 0.0
O507 O 0.50398 0.54501 0.99309 0.0
O508 O 0.52976 0.54319 0.06558 0.0
O509 O 0.55158 0.53296 0.05026 0.0
O510 O 0.49406 0.53461 0.04167 0.0
O511 O 0.49861 0.51144 0.02189 0.0
O512 O 0.50949 0.48485 0.00655 0.0
O513 O 0.5287 0.50035 0.03333 0.0
C514 C 0.5129 0.56117 0.00395 0.0
C515 C 0.52043 0.48407 0.02232 0.0
Dy516 Dy 0.78767 0.28452 0.27337 0.0
C517 C 0.71893 0.25484 0.22223 0.0
C518 C 0.81773 0.29604 0.29986 0.0
Dy519 Dy 0.74922 0.26669 0.24836 0.0
O520 O 0.81457 0.30523 0.28469 0.0
O521 O 0.80407 0.28114 0.30089 0.0
O522 O 0.80476 0.27727 0.24845 0.0
O523 O 0.77732 0.28189 0.24305 0.0
C524 C 0.79104 0.27579 0.23537 0.0
C525 C 0.74582 0.27577 0.28641 0.0
O526 O 0.76371 0.24024 0.24698 0.0
O527 O 0.78657 0.25145 0.27237 0.0
O528 O 0.72108 0.24756 0.23874 0.0
O529 O 0.73384 0.26779 0.21961 0.0
O530 O 0.73215 0.27432 0.27328 0.0
O531 O 0.75955 0.26964 0.27876 0.0
O532 O 0.77284 0.31096 0.27422 0.0
O533 O 0.75072 0.29955 0.24821 0.0
C534 C 0.77768 0.2374 0.259 0.0
C535 C 0.75923 0.31372 0.26162 0.0
Dy536 Dy 0.0045 0.51961 0.5349 0.0
C537 C 0.01585 0.51755 0.45209 0.0
C538 C 0.99605 0.52231 0.57269 0.0
Dy539 Dy 0.00565 0.52503 0.48876 0.0
O540 O 0.99392 0.5058 0.5614 0.0
O541 O 0.00317 0.53728 0.56344 0.0
O542 O 0.02059 0.49438 0.53013 0.0
O543 O 0.00281 0.50115 0.5077 0.0
C544 C 0.01478 0.49062 0.51185 0.0
C545 C 1.00136 0.55836 0.51048 0.0
O546 O 0.9759 0.50954 0.48992 0.0
O547 O 0.97395 0.51294 0.5238 0.0
O548 O 0.00199 0.52673 0.4565 0.0
O549 O 0.02367 0.51232 0.46759 0.0
O550 O 0.00264 0.55783 0.49174 0.0
O551 O 0.00281 0.54158 0.51532 0.0
O552 O 0.03397 0.53617 0.53374 0.0
O553 O 0.03583 0.53105 0.50008 0.0
C554 C 0.96622 0.50794 0.50579 0.0
C555 C 0.04362 0.53658 0.51787 0.0
Dy556 Dy 0.74306 0.77016 0.26233 0.0
C557 C 0.82337 0.7751 0.25903 0.0
C558 C 0.70579 0.76279 0.27013 0.0
Dy559 Dy 0.78593 0.76984 0.26619 0.0
O560 O 0.71304 0.77507 0.25804 0.0
O561 O 0.71885 0.75439 0.2776 0.0
O562 O 0.74796 0.7962 0.24439 0.0
O563 O 0.76857 0.7927 0.26552 0.0
C564 C 0.76509 0.80267 0.25179 0.0
C565 C 0.76348 0.73776 0.27703 0.0
O566 O 0.7838 0.78716 0.29468 0.0
O567 O 0.75096 0.78069 0.29396 0.0
O568 O 0.81461 0.76106 0.26846 0.0
O569 O 0.81178 0.78652 0.254 0.0
O570 O 0.78036 0.74444 0.28493 0.0
O571 O 0.76039 0.7474 0.26294 0.0
O572 O 0.74567 0.75267 0.23402 0.0
O573 O 0.77833 0.76113 0.23427 0.0
C574 C 0.76772 0.78775 0.30316 0.0
C575 C 0.76171 0.75333 0.22521 0.0
Dy576 Dy 0.76374 0.28096 0.74125 0.0
C577 C 0.76673 0.25865 0.82068 0.0
C578 C 0.76069 0.29518 0.70605 0.0
Dy579 Dy 0.75913 0.27234 0.78626 0.0
O580 O 0.77568 0.29928 0.71787 0.0
O581 O 0.74758 0.28296 0.71327 0.0
O582 O 0.7881 0.2642 0.74055 0.0
O583 O 0.78167 0.27866 0.76658 0.0
C584 C 0.79189 0.26724 0.75927 0.0
C585 C 0.72764 0.28113 0.76912 0.0
O586 O 0.77362 0.30403 0.78975 0.0
O587 O 0.76841 0.31143 0.75773 0.0
O588 O 0.75591 0.27171 0.81827 0.0
O589 O 0.77349 0.25331 0.80439 0.0
O590 O 0.72846 0.2769 0.78708 0.0
O591 O 0.74326 0.2799 0.76248 0.0
O592 O 0.74624 0.25037 0.73804 0.0
O593 O 0.751 0.24224 0.76977 0.0
C594 C 0.77399 0.31684 0.77635 0.0
C595 C 0.74468 0.23746 0.75136 0.0
Dy596 Dy 0.76577 0.79115 0.76593 0.0
C597 C 0.76317 0.70746 0.74822 0.0
C598 C 0.76213 0.83009 0.76646 0.0
Dy599 Dy 0.75899 0.7463 0.75165 0.0
O600 O 0.76365 0.82077 0.78187 0.0
O601 O 0.76303 0.81824 0.75106 0.0
O602 O 0.78177 0.78555 0.793 0.0
O603 O 0.75978 0.76368 0.77947 0.0
C604 C 0.77278 0.76725 0.79278 0.0
C605 C 0.7519 0.77057 0.72514 0.0
O606 O 0.73066 0.747 0.76292 0.0
O607 O 0.73404 0.78155 0.76635 0.0
O608 O 0.76007 0.71753 0.73373 0.0
O609 O 0.76334 0.71845 0.76445 0.0
O610 O 0.74258 0.75247 0.72503 0.0
O611 O 0.76508 0.77377 0.7382 0.0
O612 O 0.79451 0.78996 0.75561 0.0
O613 O 0.79067 0.75542 0.75225 0.0
C614 C 0.72365 0.76349 0.7666 0.0
C615 C 0.80133 0.77331 0.75225 0.0
Dy616 Dy 0.49412 0.52381 0.50914 0.0
C617 C 0.57467 0.53884 0.52197 0.0
C618 C 0.45599 0.52196 0.5085 0.0
Dy619 Dy 0.53681 0.53838 0.52127 0.0
O620 O 0.46583 0.52258 0.49323 0.0
O621 O 0.46693 0.52186 0.52383 0.0
O622 O 0.50161 0.50328 0.48463 0.0
O623 O 0.51977 0.5302 0.49422 0.0
C624 C 0.51808 0.51433 0.48318 0.0
C625 C 0.51271 0.54755 0.5474 0.0
O626 O 0.53205 0.56385 0.50524 0.0
O627 O 0.49924 0.55669 0.50485 0.0
O628 O 0.56591 0.54556 0.53643 0.0
O629 O 0.56279 0.53239 0.50724 0.0
O630 O 0.52916 0.55867 0.546 0.0
O631 O 0.51116 0.53186 0.53614 0.0
O632 O 0.49919 0.49708 0.52335 0.0
O633 O 0.53193 0.50627 0.52753 0.0
C634 C 0.51526 0.56859 0.50169 0.0
C635 C 0.51605 0.49336 0.52862 0.0
Dy636 Dy 0.03517 0.52442 0.0154 0.0
C637 C 0.95605 0.53253 0.01196 0.0
C638 C 0.07031 0.51462 0.01989 0.0
Dy639 Dy 0.99087 0.52231 0.01695 0.0
O640 O 0.06338 0.5204 0.00414 0.0
O641 O 0.05825 0.51473 0.03321 0.0
O642 O 0.03534 0.54696 0.99339 0.0
O643 O 0.01159 0.52464 0.99529 0.0
C644 C 0.01786 0.53996 0.98729 0.0
C645 C 0.00805 0.50698 0.04535 0.0
O646 O 0.99064 0.49462 0.99758 0.0
O647 O 0.02222 0.49259 0.00457 0.0
O648 O 0.96135 0.52314 0.02619 0.0
O649 O 0.9696 0.53584 0.00032 0.0
O650 O 0.99043 0.50037 0.03956 0.0
O651 O 0.01443 0.52206 0.03705 0.0
O652 O 0.03553 0.55275 0.03411 0.0
O653 O 0.00349 0.55385 0.02861 0.0
C654 C 0.005 0.48487 0.9967 0.0
C655 C 0.02087 0.56205 0.03563 0.0
H656 H 0.02751 0.21604 0.8933 0.0
H657 H 0.03541 0.1872 0.90846 0.0
H658 H 0.98525 0.18401 0.94049 0.0
H659 H 0.97756 0.21282 0.92584 0.0
H660 H 0.01754 0.1857 0.96383 0.0
H661 H 0.013 0.12764 0.90158 0.0
H662 H 0.02778 0.15116 0.8991 0.0
H663 H 0.00275 0.1497 0.90004 0.0
C664 C 0.018 0.20887 0.90325 0.0
C665 C 0.002 0.21674 0.9085 0.0
C666 C 0.02251 0.19241 0.91189 0.0
C667 C 0.0109 0.18348 0.92561 0.0
C668 C 0.99446 0.19075 0.93004 0.0
H669 H 0.99392 0.08916 0.99723 0.0
H670 H 0.99403 0.11841 0.97941 0.0
C671 C 0.99007 0.20721 0.92163 0.0
C672 C 0.01629 0.16756 0.93663 0.0
H673 H 0.02145 0.11885 0.93252 0.0
C674 C 0.01855 0.17114 0.95695 0.0
C675 C 0.01774 0.14863 0.92762 0.0
C676 C 0.01508 0.14389 0.9059 0.0
C677 C 0.02152 0.15609 0.96854 0.0
C678 C 0.02223 0.137 0.95958 0.0
C679 C 0.02087 0.13358 0.93926 0.0
C680 C 0.02278 0.12002 0.97116 0.0
C681 C 0.02347 0.16054 0.99031 0.0
C682 C 0.03899 0.11144 0.97251 0.0
C683 C 0.03906 0.09483 0.98287 0.0
C684 C 0.02278 0.08641 0.99175 0.0
C685 C 0.00667 0.09529 0.99057 0.0
C686 C 0.0067 0.11198 0.9804 0.0
H687 H 0.02647 0.17679 0.99476 0.0
H688 H 0.0101 0.15407 0.9965 0.0
H689 H 0.03492 0.15367 0.99661 0.0
H690 H 0.05151 0.11747 0.96541 0.0
H691 H 0.05164 0.08823 0.98336 0.0
H692 H 0.06706 0.80526 0.1919 0.0
H693 H 0.09444 0.80728 0.21456 0.0
H694 H 0.13151 0.82035 0.1685 0.0
H695 H 0.10428 0.81872 0.14578 0.0
H696 H 0.11986 0.78282 0.21172 0.0
H697 H 0.15692 0.86067 0.21216 0.0
H698 H 0.13278 0.85256 0.20271 0.0
H699 H 0.15195 0.84832 0.1881 0.0
C700 C 0.08103 0.8089 0.18661 0.0
C701 C 0.08341 0.81176 0.16695 0.0
C702 C 0.09667 0.81006 0.19962 0.0
C703 C 0.11504 0.81419 0.19331 0.0
C704 C 0.1175 0.8176 0.17383 0.0
H705 H 0.21422 0.7749 0.23343 0.0
H706 H 0.18646 0.78259 0.2164 0.0
C707 C 0.10186 0.81652 0.16081 0.0
C708 C 0.13149 0.81289 0.20653 0.0
H709 H 0.17511 0.83758 0.22429 0.0
C710 C 0.13181 0.79491 0.21467 0.0
C711 C 0.14704 0.82871 0.21054 0.0
C712 C 0.14712 0.84873 0.20308 0.0
C713 C 0.14752 0.79203 0.22604 0.0
C714 C 0.16346 0.80745 0.22915 0.0
C715 C 0.16291 0.82573 0.22172 0.0
C716 C 0.18114 0.80423 0.2391 0.0
C717 C 0.14704 0.77238 0.23441 0.0
C718 C 0.1877 0.81435 0.2573 0.0
C719 C 0.20375 0.81005 0.26709 0.0
C720 C 0.21345 0.79571 0.25871 0.0
C721 C 0.2071 0.78608 0.24025 0.0
C722 C 0.19117 0.79037 0.23052 0.0
H723 H 0.13237 0.76425 0.23499 0.0
H724 H 0.15477 0.76293 0.22512 0.0
H725 H 0.154 0.77456 0.24926 0.0
H726 H 0.18015 0.82516 0.2641 0.0
H727 H 0.20837 0.81768 0.28129 0.0
H728 H 0.50411 0.83546 0.36869 0.0
H729 H 0.50005 0.86817 0.38354 0.0
H730 H 0.49209 0.84403 0.4386 0.0
H731 H 0.49578 0.81148 0.42392 0.0
H732 H 0.46672 0.86881 0.43027 0.0
H733 H 0.54081 0.90397 0.42004 0.0
H734 H 0.5269 0.89272 0.39845 0.0
H735 H 0.53289 0.8774 0.41667 0.0
C736 C 0.50141 0.83716 0.38393 0.0
C737 C 0.50041 0.82096 0.39518 0.0
C738 C 0.49914 0.85583 0.3924 0.0
C739 C 0.49599 0.85856 0.41223 0.0
C740 C 0.4945 0.84226 0.42328 0.0
H741 H 0.52201 0.95449 0.49936 0.0
H742 H 0.51839 0.92464 0.47676 0.0
C743 C 0.4967 0.82367 0.41486 0.0
C744 C 0.49502 0.87842 0.42196 0.0
H745 H 0.52215 0.92359 0.43695 0.0
C746 C 0.47873 0.88092 0.43154 0.0
C747 C 0.51079 0.89408 0.4237 0.0
C748 C 0.52892 0.89198 0.41432 0.0
C749 C 0.47803 0.89842 0.44341 0.0
C750 C 0.49396 0.91389 0.44546 0.0
C751 C 0.50996 0.91168 0.43528 0.0
C752 C 0.49512 0.93169 0.45949 0.0
C753 C 0.46067 0.89982 0.45442 0.0
C754 C 0.48308 0.94549 0.4574 0.0
C755 C 0.48503 0.96261 0.47045 0.0
C756 C 0.49919 0.96625 0.48564 0.0
C757 C 0.51101 0.95222 0.48778 0.0
C758 C 0.50899 0.93514 0.47486 0.0
H759 H 0.45107 0.88522 0.45399 0.0
H760 H 0.46464 0.90552 0.46982 0.0
H761 H 0.45279 0.91038 0.44788 0.0
H762 H 0.47246 0.94324 0.44546 0.0
H763 H 0.47583 0.97324 0.4683 0.0
H764 H 0.49527 0.27685 0.70015 0.0
H765 H 0.46668 0.27296 0.7182 0.0
H766 H 0.43291 0.27263 0.66516 0.0
H767 H 0.4614 0.27639 0.64698 0.0
H768 H 0.44207 0.30015 0.7204 0.0
H769 H 0.40438 0.22536 0.69056 0.0
H770 H 0.42921 0.23377 0.68786 0.0
H771 H 0.41182 0.2416 0.67233 0.0
C772 C 0.48173 0.27557 0.69226 0.0
C773 C 0.4806 0.27691 0.67212 0.0
C774 C 0.46542 0.27341 0.70261 0.0
C775 C 0.44766 0.27235 0.69301 0.0
C776 C 0.44643 0.27307 0.67282 0.0
H777 H 0.34462 0.30239 0.73445 0.0
H778 H 0.37526 0.30165 0.72087 0.0
C779 C 0.46275 0.27529 0.66245 0.0
C780 C 0.4306 0.27203 0.70426 0.0
H781 H 0.38642 0.24582 0.70869 0.0
C782 C 0.42996 0.28818 0.71798 0.0
C783 C 0.41489 0.25632 0.70121 0.0
C784 C 0.41511 0.23818 0.68733 0.0
C785 C 0.41382 0.28936 0.72828 0.0
C786 C 0.39781 0.27408 0.72461 0.0
C787 C 0.39866 0.2576 0.71137 0.0
C788 C 0.37985 0.27519 0.73389 0.0
C789 C 0.41401 0.30695 0.743 0.0
C790 C 0.37221 0.26053 0.74566 0.0
C791 C 0.35471 0.26095 0.75345 0.0
C792 C 0.34448 0.27592 0.74942 0.0
C793 C 0.35227 0.29076 0.73789 0.0
C794 C 0.36979 0.29038 0.73018 0.0
H795 H 0.42863 0.31438 0.74785 0.0
H796 H 0.40683 0.318 0.73634 0.0
H797 H 0.40639 0.30238 0.7559 0.0
H798 H 0.37971 0.24864 0.74863 0.0
H799 H 0.34896 0.24926 0.76219 0.0
H800 H 0.99661 0.84721 0.63402 0.0
H801 H 0.99885 0.87641 0.61562 0.0
H802 H 0.02332 0.84529 0.5693 0.0
H803 H 0.02017 0.81585 0.58715 0.0
H804 H 0.02584 0.90077 0.60217 0.0
H805 H 0.98091 0.86078 0.53925 0.0
H806 H 0.98379 0.8497 0.56158 0.0
H807 H 1.00117 0.84961 0.5437 0.0
C808 C 0.00259 0.84671 0.61997 0.0
C809 C 0.00802 0.82924 0.61189 0.0
C810 C 0.00382 0.86336 0.60943 0.0
C811 C 0.0107 0.86286 0.59077 0.0
C812 C 0.01726 0.8458 0.58329 0.0
H813 H 0.04619 0.96943 0.533 0.0
H814 H 0.04466 0.93941 0.54986 0.0
C815 C 0.01565 0.82905 0.59361 0.0
C816 C 0.01097 0.88009 0.57909 0.0
H817 H 0.99806 0.89289 0.53452 0.0
C818 C 0.01966 0.89906 0.58742 0.0
C819 C 0.00251 0.87799 0.55998 0.0
C820 C 0.99139 0.85846 0.55069 0.0
C821 C 0.02049 0.91587 0.57707 0.0
C822 C 0.0131 0.91355 0.55753 0.0
C823 C 0.00404 0.89465 0.54935 0.0
C824 C 0.01432 0.93057 0.54546 0.0
C825 C 0.02885 0.93598 0.58746 0.0
C826 C 0.99799 0.93483 0.53607 0.0
C827 C 0.99894 0.95164 0.52581 0.0
C828 C 0.01622 0.96456 0.52498 0.0
C829 C 0.03266 0.95978 0.53357 0.0
C830 C 0.03176 0.94277 0.54343 0.0
H831 H 0.02798 0.93599 0.60342 0.0
H832 H 0.04399 0.93972 0.58453 0.0
H833 H 0.02156 0.9478 0.5825 0.0
H834 H 0.98438 0.92554 0.53726 0.0
H835 H 0.98604 0.9551 0.51946 0.0
H836 H 0.46161 0.79359 0.90475 0.0
H837 H 0.43377 0.7986 0.88591 0.0
H838 H 0.46185 0.79025 0.833 0.0
H839 H 0.48977 0.78466 0.85182 0.0
H840 H 0.42974 0.82704 0.8623 0.0
H841 H 0.41228 0.75256 0.82057 0.0
H842 H 0.4293 0.75783 0.84109 0.0
H843 H 0.43564 0.76577 0.81786 0.0
C844 C 0.46189 0.79268 0.88909 0.0
C845 C 0.47794 0.78863 0.8798 0.0
C846 C 0.44594 0.7956 0.87833 0.0
C847 C 0.4456 0.79463 0.85802 0.0
C848 C 0.46161 0.79066 0.84864 0.0
H849 H 0.35641 0.82327 0.78027 0.0
H850 H 0.3874 0.82329 0.79663 0.0
C851 C 0.47758 0.78753 0.85942 0.0
C852 C 0.4285 0.79809 0.84694 0.0
H853 H 0.39323 0.77602 0.81332 0.0
C854 C 0.42184 0.81592 0.8515 0.0
C855 C 0.41811 0.78353 0.83291 0.0
C856 C 0.42406 0.76377 0.82789 0.0
C857 C 0.405 0.81945 0.8426 0.0
C858 C 0.39462 0.80486 0.82877 0.0
C859 C 0.40137 0.78721 0.8239 0.0
C860 C 0.37606 0.80703 0.82008 0.0
C861 C 0.39803 0.83848 0.84833 0.0
C862 C 0.35953 0.79831 0.82817 0.0
C863 C 0.3419 0.79834 0.81895 0.0
C864 C 0.34051 0.80704 0.80144 0.0
C865 C 0.35706 0.81659 0.79382 0.0
C866 C 0.37475 0.81653 0.80307 0.0
H867 H 0.40792 0.84858 0.85911 0.0
H868 H 0.39603 0.84636 0.83527 0.0
H869 H 0.38408 0.83496 0.85462 0.0
H870 H 0.36032 0.79092 0.8413 0.0
H871 H 0.32939 0.79083 0.82512 0.0
H872 H 0.49156 0.22523 0.067 0.0
H873 H 0.48588 0.19012 0.05593 0.0
H874 H 0.48337 0.17547 0.11513 0.0
H875 H 0.48955 0.21113 0.12655 0.0
H876 H 0.5076 0.15638 0.09481 0.0
H877 H 0.44038 0.14663 0.05106 0.0
H878 H 0.4562 0.16775 0.04435 0.0
H879 H 0.44818 0.16787 0.06862 0.0
C880 C 0.48951 0.21463 0.07776 0.0
C881 C 0.49113 0.22102 0.0977 0.0
C882 C 0.48603 0.19448 0.07135 0.0
C883 C 0.48385 0.18012 0.08465 0.0
C884 C 0.48481 0.18633 0.10461 0.0
H885 H 0.48929 0.0559 0.04187 0.0
H886 H 0.48277 0.08356 0.06391 0.0
C887 C 0.48827 0.20668 0.1111 0.0
C888 C 0.48279 0.15894 0.07738 0.0
H889 H 0.46235 0.12499 0.04016 0.0
C890 C 0.49737 0.1492 0.08327 0.0
C891 C 0.46937 0.14953 0.0624 0.0
C892 C 0.45255 0.15845 0.05642 0.0
C893 C 0.49983 0.13115 0.0734 0.0
C894 C 0.48741 0.12276 0.0573 0.0
C895 C 0.47202 0.13169 0.05235 0.0
C896 C 0.49122 0.10587 0.04429 0.0
C897 C 0.51637 0.12179 0.07938 0.0
C898 C 0.49793 0.10929 0.02597 0.0
C899 C 0.50194 0.0936 0.01357 0.0
C900 C 0.49929 0.07426 0.01933 0.0
C901 C 0.49215 0.07079 0.03748 0.0
C902 C 0.48823 0.08651 0.04994 0.0
H903 H 0.52534 0.13079 0.09158 0.0
H904 H 0.51114 0.10678 0.08392 0.0
H905 H 0.52518 0.11991 0.06686 0.0
H906 H 0.50024 0.12417 0.02136 0.0
H907 H 0.50729 0.09662 -0.00042 0.0
H908 H 0.05769 0.26445 0.33382 0.0
H909 H 0.08377 0.26153 0.31296 0.0
H910 H 0.12117 0.26255 0.3636 0.0
H911 H 0.09538 0.26629 0.38445 0.0
H912 H 0.13674 0.28771 0.34046 0.0
H913 H 0.10948 0.21646 0.29611 0.0
H914 H 0.09395 0.23411 0.29465 0.0
H915 H 0.09832 0.22445 0.31743 0.0
C916 C 0.0714 0.26369 0.34047 0.0
C917 C 0.07448 0.26559 0.36078 0.0
C918 C 0.08631 0.26193 0.32851 0.0
C919 C 0.10447 0.26158 0.33664 0.0
C920 C 0.10733 0.2628 0.35693 0.0
H921 H 0.20144 0.2316 0.2797 0.0
H922 H 0.17209 0.23171 0.29586 0.0
C923 C 0.09255 0.26487 0.36886 0.0
C924 C 0.12082 0.2614 0.32426 0.0
H925 H 0.13715 0.23614 0.2858 0.0
C926 C 0.13682 0.27637 0.32855 0.0
C927 C 0.12106 0.24655 0.30878 0.0
C928 C 0.10486 0.22937 0.30407 0.0
C929 C 0.15301 0.27686 0.31797 0.0
C930 C 0.15305 0.26238 0.3021 0.0
C931 C 0.13705 0.24741 0.29776 0.0
C932 C 0.16995 0.2619 0.29059 0.0
C933 C 0.17014 0.29252 0.32441 0.0
C934 C 0.17827 0.27859 0.28162 0.0
C935 C 0.19525 0.27868 0.27257 0.0
C936 C 0.20404 0.26189 0.27193 0.0
C937 C 0.19508 0.24479 0.27989 0.0
C938 C 0.17826 0.24482 0.28917 0.0
H939 H 0.16963 0.29865 0.33972 0.0
H940 H 0.18335 0.28642 0.32304 0.0
H941 H 0.17067 0.30502 0.3152 0.0
H942 H 0.17185 0.29174 0.28198 0.0
H943 H 0.20166 0.29202 0.2664 0.0
H944 H 0.93087 0.01359 0.18977 0.0
H945 H 0.94592 0.02123 0.15997 0.0
H946 H 0.92038 0.07344 0.15854 0.0
H947 H 0.90493 0.06572 0.18873 0.0
H948 H 0.92186 0.04912 0.12033 0.0
H949 H 0.9907 0.06966 0.16245 0.0
H950 H 0.97764 0.04603 0.16741 0.0
H951 H 0.96842 0.06834 0.17363 0.0
C952 C 0.92822 0.0266 0.18306 0.0
C953 C 0.91691 0.03922 0.19177 0.0
C954 C 0.93687 0.03095 0.16602 0.0
C955 C 0.93461 0.04811 0.1573 0.0
C956 C 0.92241 0.06018 0.16518 0.0
H957 H 0.02022 0.07674 0.0727 0.0
H958 H 0.99865 0.08222 0.09827 0.0
C959 C 0.91355 0.05573 0.18234 0.0
C960 C 0.94603 0.05357 0.14066 0.0
H961 H 0.9918 0.06127 0.12824 0.0
C962 C 0.93715 0.05218 0.12203 0.0
C963 C 0.96597 0.05798 0.14294 0.0
C964 C 0.97627 0.0608 0.16272 0.0
C965 C 0.94776 0.0537 0.1055 0.0
C966 C 0.96771 0.05625 0.1077 0.0
C967 C 0.97653 0.05908 0.12645 0.0
C968 C 0.97965 0.05414 0.09093 0.0
C969 C 0.93749 0.05231 0.08583 0.0
C970 C 0.97627 0.03652 0.07839 0.0
C971 C 0.98854 0.03339 0.06389 0.0
C972 C 0.00458 0.04774 0.06166 0.0
C973 C 0.00795 0.06545 0.07408 0.0
C974 C 0.9956 0.06861 0.08862 0.0
H975 H 0.92372 0.05737 0.08695 0.0
H976 H 0.94604 0.06138 0.07579 0.0
H977 H 0.93458 0.03658 0.07949 0.0
H978 H 0.96448 0.02482 0.08023 0.0
H979 H 0.98567 0.01948 0.05469 0.0
H980 H 0.28314 0.63759 0.44846 0.0
H981 H 0.28242 0.65594 0.41959 0.0
H982 H 0.26644 0.70497 0.45426 0.0
H983 H 0.26783 0.68725 0.48298 0.0
H984 H 0.25457 0.67037 0.40143 0.0
H985 H 0.31129 0.73287 0.42909 0.0
H986 H 0.30656 0.71015 0.44071 0.0
H987 H 0.29294 0.72947 0.44569 0.0
C988 C 0.27951 0.65229 0.44985 0.0
C989 C 0.27572 0.66108 0.46797 0.0
C990 C 0.27912 0.66274 0.4334 0.0
C991 C 0.27487 0.68202 0.43493 0.0
C992 C 0.27037 0.6904 0.45289 0.0
H993 H 0.23341 0.74589 0.34547 0.0
H994 H 0.2376 0.7261 0.37257 0.0
C995 C 0.27101 0.68015 0.46927 0.0
C996 C 0.27471 0.69344 0.41783 0.0
H997 H 0.29082 0.73902 0.40278 0.0
C998 C 0.26267 0.68528 0.40158 0.0
C999 C 0.28558 0.71274 0.41791 0.0
C1000 C 0.29997 0.72171 0.43421 0.0
C1001 C 0.2606 0.69626 0.38572 0.0
C1002 C 0.27039 0.71612 0.38648 0.0
C1003 C 0.28302 0.72394 0.40238 0.0
C1004 C 0.26787 0.72902 0.3709 0.0
C1005 C 0.24808 0.68638 0.36828 0.0
C1006 C 0.28361 0.73817 0.36177 0.0
C1007 C 0.28129 0.7499 0.3467 0.0
C1008 C 0.26318 0.75253 0.34045 0.0
C1009 C 0.2475 0.74397 0.35 0.0
C1010 C 0.24986 0.73247 0.36529 0.0
H1011 H 0.24668 0.66993 0.36737 0.0
H1012 H 0.23376 0.69001 0.36955 0.0
H1013 H 0.25365 0.69159 0.35459 0.0
H1014 H 0.29766 0.73585 0.366 0.0
H1015 H 0.29361 0.7563 0.33949 0.0
H1016 H 0.61418 0.9998 0.67763 0.0
H1017 H 0.59723 0.98835 0.64616 0.0
H1018 H 0.56143 0.94207 0.67242 0.0
H1019 H 0.57763 0.95443 0.70415 0.0
H1020 H 0.58641 0.95614 0.62054 0.0
H1021 H 0.52387 0.97521 0.65731 0.0
H1022 H 0.54713 0.98023 0.66923 0.0
H1023 H 0.53365 0.95535 0.66656 0.0
C1024 C 0.60312 0.98677 0.67649 0.0
C1025 C 0.59703 0.97803 0.69315 0.0
C1026 C 0.59339 0.98024 0.65855 0.0
C1027 C 0.57764 0.96475 0.65708 0.0
C1028 C 0.57312 0.95445 0.67335 0.0
H1029 H 0.49182 0.9644 0.56152 0.0
H1030 H 0.50864 0.94873 0.58602 0.0
C1031 C 0.5825 0.96134 0.69139 0.0
C1032 C 0.56461 0.96165 0.63945 0.0
H1033 H 0.52102 0.96913 0.62375 0.0
C1034 C 0.57197 0.95853 0.62126 0.0
C1035 C 0.54571 0.96479 0.64035 0.0
C1036 C 0.53711 0.96924 0.65936 0.0
C1037 C 0.56143 0.95984 0.60404 0.0
C1038 C 0.54306 0.96424 0.60508 0.0
C1039 C 0.53509 0.9656 0.62308 0.0
C1040 C 0.53357 0.97175 0.58867 0.0
C1041 C 0.57049 0.95775 0.58497 0.0
C1042 C 0.54187 0.98997 0.58249 0.0
C1043 C 0.5322 0.99906 0.56909 0.0
C1044 C 0.51415 0.98997 0.56126 0.0
C1045 C 0.50581 0.97159 0.56724 0.0
C1046 C 0.51542 0.9626 0.58105 0.0
H1047 H 0.58085 0.94755 0.58551 0.0
H1048 H 0.55981 0.95216 0.5728 0.0
H1049 H 0.57825 0.97254 0.58203 0.0
H1050 H 0.55557 0.9976 0.58865 0.0
H1051 H 0.5388 0.01347 0.56515 0.0
H1052 H 0.26449 0.40657 0.95723 0.0
H1053 H 0.26909 0.39147 0.92474 0.0
H1054 H 0.26448 0.33405 0.9468 0.0
H1055 H 0.26041 0.34902 0.97916 0.0
H1056 H 0.29289 0.33998 0.92293 0.0
H1057 H 0.22797 0.35824 0.88813 0.0
H1058 H 0.24431 0.37942 0.89933 0.0
H1059 H 0.23283 0.36119 0.91408 0.0
C1060 C 0.26452 0.39075 0.95511 0.0
C1061 C 0.26198 0.37898 0.97073 0.0
C1062 C 0.26703 0.38211 0.93653 0.0
C1063 C 0.26681 0.36154 0.93323 0.0
C1064 C 0.26466 0.34992 0.94893 0.0
H1065 H 0.24263 0.2848 0.82661 0.0
H1066 H 0.24311 0.3029 0.8586 0.0
C1067 C 0.26229 0.35853 0.96745 0.0
C1068 C 0.26861 0.35183 0.9135 0.0
H1069 H 0.24727 0.34229 0.8678 0.0
C1070 C 0.28296 0.34055 0.91084 0.0
C1071 C 0.2555 0.35235 0.8978 0.0
C1072 C 0.23917 0.36329 0.89994 0.0
C1073 C 0.28443 0.32961 0.89302 0.0
C1074 C 0.27146 0.33033 0.87725 0.0
C1075 C 0.25726 0.34181 0.87985 0.0
C1076 C 0.2718 0.31869 0.85814 0.0
C1077 C 0.29943 0.31682 0.89152 0.0
C1078 C 0.28782 0.32138 0.84721 0.0
C1079 C 0.28768 0.31083 0.82894 0.0
C1080 C 0.27138 0.29762 0.8211 0.0
C1081 C 0.25542 0.29486 0.83216 0.0
C1082 C 0.25565 0.30525 0.85046 0.0
H1083 H 0.30471 0.3137 0.90604 0.0
H1084 H 0.294 0.30245 0.88278 0.0
H1085 H 0.31157 0.32473 0.88432 0.0
H1086 H 0.30032 0.33197 0.85259 0.0
H1087 H 0.30014 0.3135 0.82072 0.0
H1088 H 0.9292 0.02933 0.28232 0.0
H1089 H 0.94185 0.02112 0.31317 0.0
H1090 H 0.89038 0.02929 0.33955 0.0
H1091 H 0.87734 0.03702 0.30835 0.0
H1092 H 0.94882 0.04437 0.34688 0.0
H1093 H 0.89762 0.97615 0.35719 0.0
H1094 H 0.89905 0.98695 0.33435 0.0
H1095 H 0.88703 0.99751 0.35371 0.0
C1096 C 0.92046 0.02923 0.29461 0.0
C1097 C 0.90223 0.03377 0.29287 0.0
C1098 C 0.92774 0.02454 0.31227 0.0
C1099 C 0.917 0.02431 0.32864 0.0
C1100 C 0.89878 0.02891 0.32701 0.0
H1101 H 0.94939 0.01686 0.44966 0.0
H1102 H 0.93224 0.01973 0.41896 0.0
C1103 C 0.8914 0.03348 0.30923 0.0
C1104 C 0.92543 0.02019 0.34749 0.0
H1105 H 0.92004 0.98892 0.38347 0.0
C1106 C 0.94254 0.0322 0.35482 0.0
C1107 C 0.91723 0.0043 0.35787 0.0
C1108 C 0.89931 0.99035 0.35033 0.0
C1109 C 0.95162 0.02881 0.37221 0.0
C1110 C 0.94346 0.01294 0.38254 0.0
C1111 C 0.92626 0.00104 0.37542 0.0
C1112 C 0.95262 0.00882 0.40092 0.0
C1113 C 0.96983 0.04236 0.37959 0.0
C1114 C 0.96946 0.00119 0.40087 0.0
C1115 C 0.97922 0.99942 0.41837 0.0
C1116 C 0.97232 0.00537 0.43614 0.0
C1117 C 0.95504 0.01219 0.43615 0.0
C1118 C 0.94522 0.01383 0.41866 0.0
H1119 H 0.97267 0.05582 0.37161 0.0
H1120 H 0.96947 0.0471 0.39529 0.0
H1121 H 0.98172 0.03417 0.37782 0.0
H1122 H 0.97532 0.99718 0.38728 0.0
H1123 H 0.99252 0.99415 0.41796 0.0
H1124 H 0.24796 0.68407 0.57033 0.0
H1125 H 0.2517 0.69481 0.60483 0.0
H1126 H 0.2953 0.65975 0.61173 0.0
H1127 H 0.29174 0.64893 0.57673 0.0
H1128 H 0.25074 0.67517 0.63974 0.0
H1129 H 0.3215 0.71833 0.62707 0.0
H1130 H 0.30479 0.70745 0.60724 0.0
H1131 H 0.31717 0.6919 0.62059 0.0
C1132 C 0.25824 0.67844 0.57917 0.0
C1133 C 0.26987 0.66601 0.57079 0.0
C1134 C 0.26022 0.68445 0.59892 0.0
C1135 C 0.27391 0.67826 0.61072 0.0
C1136 C 0.28477 0.66481 0.60274 0.0
H1137 H 0.31272 0.748 0.72075 0.0
H1138 H 0.30831 0.72106 0.69471 0.0
C1139 C 0.2827 0.65863 0.58282 0.0
C1140 C 0.27798 0.68804 0.63064 0.0
H1141 H 0.30856 0.72583 0.65643 0.0
C1142 C 0.26355 0.68595 0.64363 0.0
C1143 C 0.29467 0.70213 0.63556 0.0
C1144 C 0.31044 0.70527 0.62193 0.0
C1145 C 0.26505 0.69825 0.6611 0.0
C1146 C 0.28122 0.71318 0.66538 0.0
C1147 C 0.29611 0.71444 0.65296 0.0
C1148 C 0.28273 0.72841 0.68208 0.0
C1149 C 0.2492 0.69542 0.67462 0.0
C1150 C 0.26982 0.74156 0.68352 0.0
C1151 C 0.2723 0.75705 0.69846 0.0
C1152 C 0.28783 0.75964 0.71193 0.0
C1153 C 0.30071 0.74648 0.7104 0.0
C1154 C 0.29815 0.73097 0.69565 0.0
H1155 H 0.24089 0.68007 0.67235 0.0
H1156 H 0.25466 0.6985 0.69003 0.0
H1157 H 0.2395 0.70588 0.67173 0.0
H1158 H 0.2581 0.74014 0.67285 0.0
H1159 H 0.26236 0.76718 0.69925 0.0
H1160 H 0.63264 0.01354 0.81141 0.0
H1161 H 0.61518 0.01775 0.8406 0.0
H1162 H 0.56633 0.02404 0.80498 0.0
H1163 H 0.58342 0.01924 0.77587 0.0
H1164 H 0.59671 0.04683 0.85633 0.0
H1165 H 0.54597 0.9769 0.83401 0.0
H1166 H 0.56745 0.98385 0.82198 0.0
H1167 H 0.54714 0.9948 0.81652 0.0
C1168 C 0.61826 0.01606 0.80987 0.0
C1169 C 0.60927 0.01577 0.79142 0.0
C1170 C 0.6083 0.01844 0.82651 0.0
C1171 C 0.58932 0.02067 0.82487 0.0
C1172 C 0.58079 0.02175 0.80651 0.0
H1173 H 0.50862 0.03144 0.91428 0.0
H1174 H 0.5243 0.03252 0.88348 0.0
C1175 C 0.59061 0.01912 0.78991 0.0
C1176 C 0.57817 0.02096 0.84224 0.0
H1177 H 0.53958 0.99606 0.86218 0.0
C1178 C 0.58421 0.03576 0.8576 0.0
C1179 C 0.56189 0.00641 0.84386 0.0
C1180 C 0.5553 0.98947 0.82831 0.0
C1181 C 0.57437 0.0364 0.87456 0.0
C1182 C 0.55815 0.02189 0.87611 0.0
C1183 C 0.55194 0.00726 0.86072 0.0
C1184 C 0.54832 0.02077 0.89423 0.0
C1185 C 0.58138 0.05244 0.89083 0.0
C1186 C 0.5565 0.01335 0.91009 0.0
C1187 C 0.54756 0.01252 0.92746 0.0
C1188 C 0.53032 0.01919 0.92926 0.0
C1189 C 0.52189 0.0262 0.91321 0.0
C1190 C 0.53083 0.02689 0.89572 0.0
H1191 H 0.59226 0.06438 0.8862 0.0
H1192 H 0.56947 0.05915 0.89636 0.0
H1193 H 0.58766 0.04577 0.90302 0.0
H1194 H 0.56991 0.00837 0.90906 0.0
H1195 H 0.55436 0.00704 0.93962 0.0
H1196 H 0.24392 0.3309 0.05738 0.0
H1197 H 0.24009 0.31709 0.0884 0.0
H1198 H 0.2528 0.37615 0.11818 0.0
H1199 H 0.25653 0.39028 0.08678 0.0
H1200 H 0.27035 0.32289 0.11648 0.0
H1201 H 0.20695 0.34767 0.14609 0.0
H1202 H 0.21136 0.34723 0.12061 0.0
H1203 H 0.22458 0.3664 0.13762 0.0
C1204 C 0.24561 0.34106 0.07047 0.0
C1205 C 0.25072 0.36171 0.0696 0.0
C1206 C 0.24338 0.33311 0.08822 0.0
C1207 C 0.24618 0.34553 0.10564 0.0
C1208 C 0.25035 0.36627 0.1049 0.0
H1209 H 0.27515 0.30045 0.21486 0.0
H1210 H 0.27348 0.32102 0.18798 0.0
C1211 C 0.25249 0.37434 0.08697 0.0
C1212 C 0.24657 0.33632 0.12429 0.0
H1213 H 0.22327 0.32875 0.16565 0.0
C1214 C 0.26011 0.32428 0.12728 0.0
C1215 C 0.23314 0.33803 0.1383 0.0
C1216 C 0.21806 0.35041 0.13556 0.0
C1217 C 0.26047 0.31372 0.1437 0.0
C1218 C 0.24707 0.31539 0.15774 0.0
C1219 C 0.23357 0.32754 0.15489 0.0
C1220 C 0.24688 0.30428 0.17523 0.0
C1221 C 0.27492 0.30041 0.14567 0.0
C1222 C 0.23221 0.28832 0.1773 0.0
C1223 C 0.23309 0.27653 0.19277 0.0
C1224 C 0.24859 0.28062 0.20647 0.0
C1225 C 0.26294 0.29699 0.20465 0.0
C1226 C 0.26206 0.30873 0.18924 0.0
H1227 H 0.28163 0.29762 0.13183 0.0
H1228 H 0.28617 0.30761 0.15678 0.0
H1229 H 0.26837 0.2859 0.15048 0.0
H1230 H 0.22039 0.28461 0.16662 0.0
H1231 H 0.22182 0.26404 0.19383 0.0
H1232 H 0.18403 0.90938 0.00414 0.0
H1233 H 0.16283 0.933 0.01086 0.0
H1234 H 0.21068 0.97943 0.02819 0.0
H1235 H 0.232 0.95602 0.02105 0.0
H1236 H 0.15728 0.95667 0.04366 0.0
H1237 H 0.18391 0.00261 0.98508 0.0
H1238 H 0.18973 0.9784 0.98758 0.0
H1239 H 0.20148 0.99963 0.00327 0.0
C1240 C 0.19004 0.92457 0.00952 0.0
C1241 C 0.20967 0.93091 0.01184 0.0
C1242 C 0.17791 0.93805 0.01338 0.0
C1243 C 0.18522 0.95804 0.01967 0.0
C1244 C 0.20479 0.96417 0.02292 0.0
H1245 H 0.10311 0.0355 0.05055 0.0
H1246 H 0.13197 0.02111 0.05273 0.0
C1247 C 0.21693 0.95075 0.01892 0.0
C1248 C 0.17229 0.97251 0.022 0.0
H1249 H 0.15978 0.01291 0.00288 0.0
C1250 C 0.15791 0.96911 0.03492 0.0
C1251 C 0.17314 0.98863 0.01044 0.0
C1252 C 0.18778 0.99251 0.99569 0.0
C1253 C 0.14396 0.98101 0.03615 0.0
C1254 C 0.14469 0.99698 0.02442 0.0
C1255 C 0.15943 0.00079 0.01199 0.0
C1256 C 0.12896 0.00813 0.02289 0.0
C1257 C 0.12801 0.97572 0.04919 0.0
C1258 C 0.11834 0.00644 0.00517 0.0
C1259 C 0.10209 0.01475 0.00386 0.0
C1260 C 0.09618 0.02493 0.02025 0.0
C1261 C 0.10739 0.02768 0.03772 0.0
C1262 C 0.12374 0.01934 0.03902 0.0
H1263 H 0.12779 0.9609 0.05458 0.0
H1264 H 0.12964 0.98698 0.06194 0.0
H1265 H 0.1142 0.9757 0.04141 0.0
H1266 H 0.12217 0.99792 0.99254 0.0
H1267 H 0.09373 0.01248 0.99019 0.0
H1268 H 0.69304 0.65095 0.9768 0.0
H1269 H 0.6632 0.62819 0.97856 0.0
H1270 H 0.69345 0.58186 0.9926 0.0
H1271 H 0.72344 0.60457 0.99115 0.0
H1272 H 0.6484 0.59154 0.95836 0.0
H1273 H 0.65847 0.58467 0.03727 0.0
H1274 H 0.67294 0.60351 0.0252 0.0
H1275 H 0.67714 0.57838 0.02302 0.0
C1276 C 0.69342 0.6359 0.98018 0.0
C1277 C 0.71073 0.6297 0.98399 0.0
C1278 C 0.67631 0.62289 0.98117 0.0
C1279 C 0.67608 0.60343 0.98605 0.0
C1280 C 0.69328 0.59694 0.98921 0.0
H1281 H 0.57299 0.51239 0.97506 0.0
H1282 H 0.6053 0.53009 0.97248 0.0
C1283 C 0.71043 0.60994 0.98825 0.0
C1284 C 0.65778 0.59011 0.98804 0.0
H1285 H 0.63126 0.56498 0.02073 0.0
C1286 C 0.64468 0.58565 0.97196 0.0
C1287 C 0.65286 0.58263 0.00588 0.0
C1288 C 0.66599 0.58764 0.0239 0.0
C1289 C 0.62679 0.57397 0.97324 0.0
C1290 C 0.62195 0.56629 0.99101 0.0
C1291 C 0.63507 0.5707 0.00707 0.0
C1292 C 0.60295 0.55465 0.9935 0.0
C1293 C 0.61297 0.57051 0.95573 0.0
C1294 C 0.59116 0.56216 0.00672 0.0
C1295 C 0.57278 0.55204 0.00829 0.0
C1296 C 0.56586 0.53415 0.99673 0.0
C1297 C 0.57791 0.5262 0.98407 0.0
C1298 C 0.59632 0.53636 0.98249 0.0
H1299 H 0.61729 0.58098 0.94471 0.0
H1300 H 0.61221 0.55514 0.94885 0.0
H1301 H 0.59863 0.57214 0.95999 0.0
H1302 H 0.596 0.57618 0.01544 0.0
H1303 H 0.56385 0.5585 0.01823 0.0
H1304 H 0.64725 0.43854 0.27912 0.0
H1305 H 0.666 0.41204 0.27624 0.0
H1306 H 0.71626 0.45565 0.27243 0.0
H1307 H 0.69755 0.48217 0.27491 0.0
H1308 H 0.7151 0.42391 0.24632 0.0
H1309 H 0.70057 0.39784 0.31844 0.0
H1310 H 0.67947 0.39754 0.30357 0.0
H1311 H 0.69472 0.42085 0.31137 0.0
C1312 C 0.66228 0.44249 0.27756 0.0
C1313 C 0.67089 0.46251 0.27731 0.0
C1314 C 0.67303 0.42732 0.27611 0.0
C1315 C 0.69265 0.43183 0.27458 0.0
C1316 C 0.70118 0.45177 0.27377 0.0
H1317 H 0.76645 0.34424 0.29109 0.0
H1318 H 0.75206 0.37416 0.29444 0.0
C1319 C 0.69044 0.46693 0.27515 0.0
C1320 C 0.70425 0.41581 0.2735 0.0
H1321 H 0.71518 0.37698 0.29687 0.0
C1322 C 0.71519 0.41374 0.25745 0.0
C1323 C 0.70476 0.40274 0.2882 0.0
C1324 C 0.69441 0.40494 0.30647 0.0
C1325 C 0.72607 0.39864 0.25536 0.0
C1326 C 0.72574 0.38489 0.26951 0.0
C1327 C 0.71532 0.38736 0.2859 0.0
C1328 C 0.73538 0.36735 0.26713 0.0
C1329 C 0.73794 0.3977 0.23805 0.0
C1330 C 0.73079 0.35351 0.25075 0.0
C1331 C 0.73907 0.33655 0.24873 0.0
C1332 C 0.75207 0.33284 0.26314 0.0
C1333 C 0.75675 0.34676 0.27955 0.0
C1334 C 0.74843 0.36381 0.28155 0.0
H1335 H 0.7416 0.4125 0.23245 0.0
H1336 H 0.7512 0.39231 0.24169 0.0
H1337 H 0.72983 0.38732 0.22621 0.0
H1338 H 0.72041 0.35556 0.23967 0.0
H1339 H 0.73493 0.32613 0.23597 0.0
H1340 H 0.80983 0.3831 0.48933 0.0
H1341 H 0.842 0.40237 0.49193 0.0
H1342 H 0.81975 0.45625 0.48678 0.0
H1343 H 0.78769 0.43728 0.48499 0.0
H1344 H 0.86216 0.42549 0.4687 0.0
H1345 H 0.85226 0.47124 0.53597 0.0
H1346 H 0.83515 0.44982 0.52631 0.0
H1347 H 0.83558 0.47343 0.51667 0.0
C1348 C 0.81184 0.39905 0.48872 0.0
C1349 C 0.79628 0.40874 0.48725 0.0
C1350 C 0.8302 0.41004 0.49021 0.0
C1351 C 0.83325 0.43082 0.49007 0.0
C1352 C 0.81772 0.44034 0.48761 0.0
H1353 H 0.94238 0.50326 0.47315 0.0
H1354 H 0.90985 0.48513 0.469 0.0
C1355 C 0.79942 0.42945 0.48646 0.0
C1356 C 0.85263 0.4426 0.49257 0.0
H1357 H 0.88009 0.4819 0.51974 0.0
C1358 C 0.86613 0.43776 0.47992 0.0
C1359 C 0.85786 0.4584 0.50743 0.0
C1360 C 0.8445 0.4634 0.52249 0.0
C1361 C 0.88469 0.44845 0.48156 0.0
C1362 C 0.88966 0.46484 0.49584 0.0
C1363 C 0.87619 0.46953 0.50861 0.0
C1364 C 0.90897 0.4768 0.49842 0.0
C1365 C 0.89886 0.44168 0.46833 0.0
C1366 C 0.91892 0.47903 0.51659 0.0
C1367 C 0.93729 0.48978 0.51913 0.0
C1368 C 0.94615 0.49838 0.50348 0.0
C1369 C 0.93599 0.49662 0.48542 0.0
C1370 C 0.91748 0.48611 0.48298 0.0
H1371 H 0.89438 0.42587 0.46244 0.0
H1372 H 0.90015 0.45082 0.45586 0.0
H1373 H 0.91297 0.44337 0.47603 0.0
H1374 H 0.9126 0.47207 0.52874 0.0
H1375 H 0.94473 0.49078 0.53321 0.0
H1376 H 0.3831 0.10583 0.27719 0.0
H1377 H 0.3595 0.12562 0.26821 0.0
H1378 H 0.32235 0.07235 0.24306 0.0
H1379 H 0.34564 0.05241 0.25249 0.0
H1380 H 0.34198 0.13095 0.23376 0.0
H1381 H 0.28982 0.09496 0.28225 0.0
H1382 H 0.31403 0.09144 0.28301 0.0
H1383 H 0.29741 0.07819 0.26419 0.0
C1384 C 0.36997 0.09836 0.26961 0.0
C1385 C 0.36611 0.07757 0.26575 0.0
C1386 C 0.35651 0.10967 0.26448 0.0
C1387 C 0.33902 0.10039 0.25534 0.0
C1388 C 0.33555 0.07974 0.25055 0.0
H1389 H 0.26349 0.17939 0.21659 0.0
H1390 H 0.27979 0.15077 0.21574 0.0
C1391 C 0.34892 0.0684 0.25585 0.0
C1392 C 0.32426 0.11236 0.25154 0.0
H1393 H 0.28057 0.11953 0.26421 0.0
C1394 C 0.32846 0.12837 0.24024 0.0
C1395 C 0.30671 0.10899 0.26017 0.0
C1396 C 0.30172 0.09259 0.27323 0.0
C1397 C 0.31585 0.14152 0.23783 0.0
C1398 C 0.29835 0.13822 0.24656 0.0
C1399 C 0.29389 0.12184 0.25734 0.0
C1400 C 0.28568 0.15303 0.24685 0.0
C1401 C 0.32183 0.15942 0.22685 0.0
C1402 C 0.28255 0.16289 0.26467 0.0
C1403 C 0.27308 0.17895 0.2652 0.0
C1404 C 0.26658 0.18544 0.2479 0.0
C1405 C 0.26845 0.17468 0.23012 0.0
C1406 C 0.27789 0.15849 0.22961 0.0
H1407 H 0.33713 0.16179 0.22433 0.0
H1408 H 0.31388 0.15722 0.21252 0.0
H1409 H 0.31871 0.17309 0.23486 0.0
H1410 H 0.28834 0.15884 0.27815 0.0
H1411 H 0.27175 0.18694 0.27912 0.0
H1412 H 0.29599 0.09745 0.51244 0.0
H1413 H 0.32247 0.08013 0.51743 0.0
H1414 H 0.36067 0.13032 0.50009 0.0
H1415 H 0.33429 0.14791 0.4955 0.0
H1416 H 0.34561 0.06844 0.49119 0.0
H1417 H 0.38809 0.12006 0.54919 0.0
H1418 H 0.36399 0.12159 0.54229 0.0
H1419 H 0.38288 0.13207 0.52813 0.0
C1420 C 0.31006 0.10493 0.50994 0.0
C1421 C 0.31302 0.12412 0.50366 0.0
C1422 C 0.32519 0.09497 0.51275 0.0
C1423 C 0.34365 0.10397 0.50937 0.0
C1424 C 0.34666 0.12321 0.50324 0.0
H1425 H 0.43747 0.0425 0.48622 0.0
H1426 H 0.41016 0.05914 0.484 0.0
C1427 C 0.33153 0.13323 0.50053 0.0
C1428 C 0.35952 0.09282 0.51138 0.0
H1429 H 0.40318 0.09513 0.53381 0.0
C1430 C 0.35815 0.07424 0.5006 0.0
C1431 C 0.37582 0.10022 0.52383 0.0
C1432 C 0.37775 0.11948 0.53667 0.0
C1433 C 0.3727 0.06307 0.50165 0.0
C1434 C 0.38932 0.07083 0.51351 0.0
C1435 C 0.39054 0.08924 0.52457 0.0
C1436 C 0.40557 0.06013 0.51471 0.0
C1437 C 0.36997 0.04289 0.49028 0.0
C1438 C 0.41238 0.05542 0.53273 0.0
C1439 C 0.4281 0.04605 0.53404 0.0
C1440 C 0.43735 0.04122 0.51735 0.0
C1441 C 0.43048 0.04581 0.4993 0.0
C1442 C 0.41481 0.05526 0.49801 0.0
H1443 H 0.35478 0.03671 0.48672 0.0
H1444 H 0.37696 0.04429 0.47641 0.0
H1445 H 0.37628 0.03217 0.49844 0.0
H1446 H 0.40557 0.0591 0.54583 0.0
H1447 H 0.43316 0.04282 0.54816 0.0
H1448 H 0.63712 0.58701 0.30591 0.0
H1449 H 0.65768 0.6191 0.30436 0.0
H1450 H 0.70452 0.58934 0.29296 0.0
H1451 H 0.68405 0.55712 0.29416 0.0
H1452 H 0.69118 0.63807 0.32475 0.0
H1453 H 0.70185 0.62196 0.24655 0.0
H1454 H 0.68401 0.60692 0.25897 0.0
H1455 H 0.70823 0.60389 0.26164 0.0
C1456 C 0.65183 0.58723 0.30322 0.0
C1457 C 0.65883 0.56939 0.29994 0.0
C1458 C 0.66357 0.60563 0.30236 0.0
C1459 C 0.68254 0.6066 0.29817 0.0
C1460 C 0.68981 0.58892 0.29579 0.0
H1461 H 0.7694 0.71368 0.30522 0.0
H1462 H 0.74962 0.68217 0.31124 0.0
C1463 C 0.67809 0.5705 0.2966 0.0
C1464 C 0.69447 0.62607 0.29562 0.0
H1465 H 0.71964 0.65176 0.26241 0.0
C1466 C 0.69743 0.64108 0.31114 0.0
C1467 C 0.70235 0.63008 0.27774 0.0
C1468 C 0.69884 0.61495 0.2602 0.0
C1469 C 0.70823 0.65992 0.30932 0.0
C1470 C 0.71652 0.66374 0.2916 0.0
C1471 C 0.71341 0.64877 0.27604 0.0
C1472 C 0.72817 0.68325 0.28865 0.0
C1473 C 0.71032 0.67572 0.32623 0.0
C1474 C 0.72285 0.69419 0.27378 0.0
C1475 C 0.7342 0.71206 0.27022 0.0
C1476 C 0.75112 0.71932 0.28143 0.0
C1477 C 0.75638 0.70847 0.29642 0.0
C1478 C 0.74503 0.69054 0.29995 0.0
H1479 H 0.69931 0.67219 0.33673 0.0
H1480 H 0.7243 0.67673 0.33401 0.0
H1481 H 0.7095 0.69049 0.3212 0.0
H1482 H 0.70995 0.68881 0.26483 0.0
H1483 H 0.72983 0.72005 0.2585 0.0
H1484 H 0.90255 0.47044 0.81578 0.0
H1485 H 0.88036 0.43888 0.81454 0.0
H1486 H 0.8351 0.46769 0.79568 0.0
H1487 H 0.85697 0.49925 0.79703 0.0
H1488 H 0.82523 0.43984 0.82375 0.0
H1489 H 0.86 0.409 0.76097 0.0
H1490 H 0.87526 0.41831 0.78222 0.0
H1491 H 0.86425 0.43518 0.76917 0.0
C1492 C 0.88783 0.47014 0.81162 0.0
C1493 C 0.88161 0.48734 0.80626 0.0
C1494 C 0.8752 0.45208 0.81086 0.0
C1495 C 0.85619 0.45096 0.80474 0.0
C1496 C 0.84974 0.46827 0.80036 0.0
H1497 H 0.77819 0.3477 0.75346 0.0
H1498 H 0.79653 0.38108 0.76155 0.0
C1499 C 0.86232 0.48628 0.80108 0.0
C1500 C 0.84319 0.43159 0.80163 0.0
H1501 H 0.83485 0.38761 0.77294 0.0
C1502 C 0.82732 0.42835 0.81271 0.0
C1503 C 0.84584 0.41686 0.78695 0.0
C1504 C 0.86215 0.41998 0.774 0.0
C1505 C 0.81407 0.41058 0.80959 0.0
C1506 C 0.81693 0.39572 0.79515 0.0
C1507 C 0.83274 0.39905 0.78403 0.0
C1508 C 0.8038 0.37649 0.79124 0.0
C1509 C 0.79695 0.40802 0.82146 0.0
C1510 C 0.80153 0.36299 0.80538 0.0
C1511 C 0.79103 0.34387 0.80083 0.0
C1512 C 0.78274 0.33787 0.78198 0.0
C1513 C 0.78441 0.35175 0.76809 0.0
C1514 C 0.7949 0.37085 0.77268 0.0
H1515 H 0.79446 0.42247 0.8284 0.0
H1516 H 0.78414 0.40074 0.81233 0.0
H1517 H 0.79912 0.39838 0.83311 0.0
H1518 H 0.80855 0.36694 0.8197 0.0
H1519 H 0.79008 0.33358 0.81188 0.0
H1520 H 0.03404 0.82882 0.09843 0.0
H1521 H 0.03238 0.85757 0.08051 0.0
H1522 H 0.0133 0.88799 0.13086 0.0
H1523 H 0.01515 0.85919 0.14909 0.0
H1524 H 1.00005 0.87316 0.07263 0.0
H1525 H 0.05601 0.92957 0.11363 0.0
H1526 H 0.05395 0.90326 0.11582 0.0
H1527 H 0.03832 0.9172 0.12803 0.0
C1528 C 0.02971 0.8417 0.10582 0.0
C1529 C 0.02474 0.84176 0.1252 0.0
C1530 C 0.02872 0.8581 0.09551 0.0
C1531 C 0.0228 0.87493 0.10436 0.0
C1532 C 0.01816 0.87524 0.12384 0.0
H1533 H 0.98599 0.96764 0.04106 0.0
H1534 H 0.98679 0.93912 0.05974 0.0
C1535 C 0.0192 0.85879 0.13423 0.0
C1536 C 0.02081 0.89169 0.09277 0.0
H1537 H 0.03804 0.94067 0.0888 0.0
C1538 C 0.00832 0.88795 0.07617 0.0
C1539 C 0.03174 0.91088 0.09735 0.0
C1540 C 0.04589 0.91553 0.11457 0.0
C1541 C 0.00652 0.90288 0.06395 0.0
C1542 C 0.01731 0.92213 0.06864 0.0
C1543 C 0.02974 0.9259 0.08529 0.0
C1544 C 0.01635 0.9385 0.05622 0.0
C1545 C 0.99349 0.89777 0.04586 0.0
C1546 C 0.03269 0.9476 0.04802 0.0
C1547 C 0.03231 0.96393 0.03741 0.0
C1548 C 0.01558 0.97156 0.03484 0.0
C1549 C 0.99908 0.96205 0.04259 0.0
C1550 C 0.99949 0.94572 0.05328 0.0
H1551 H 0.98988 0.88145 0.04191 0.0
H1552 H 0.98018 0.90334 0.04841 0.0
H1553 H 0.99995 0.9049 0.0334 0.0
H1554 H 0.04584 0.94223 0.05009 0.0
H1555 H 0.04528 0.97085 0.03164 0.0
H1556 H 0.95812 0.2516 0.83371 0.0
H1557 H 0.92991 0.24897 0.81171 0.0
H1558 H 0.90105 0.27431 0.85803 0.0
H1559 H 0.92888 0.27702 0.88003 0.0
H1560 H 0.88984 0.22905 0.81741 0.0
H1561 H 0.89907 0.31043 0.81205 0.0
H1562 H 0.91818 0.29839 0.81964 0.0
H1563 H 0.90086 0.30334 0.83634 0.0
C1564 C 0.94575 0.25657 0.83923 0.0
C1565 C 0.94586 0.26462 0.85865 0.0
C1566 C 0.92966 0.255 0.82665 0.0
C1567 C 0.91351 0.26163 0.83324 0.0
C1568 C 0.91345 0.26931 0.85263 0.0
H1569 H 0.80426 0.27939 0.79667 0.0
H1570 H 0.83387 0.27577 0.81318 0.0
C1571 C 0.92942 0.2708 0.8652 0.0
C1572 C 0.89668 0.26101 0.81996 0.0
H1573 H 0.86927 0.29118 0.80076 0.0
C1574 C 0.88541 0.24257 0.81349 0.0
C1575 C 0.89103 0.27871 0.81492 0.0
C1576 C 0.90297 0.29886 0.82093 0.0
C1577 C 0.86809 0.24144 0.80285 0.0
C1578 C 0.86214 0.25921 0.79839 0.0
C1579 C 0.8738 0.27758 0.80429 0.0
C1580 C 0.84342 0.25935 0.78863 0.0
C1581 C 0.8559 0.22135 0.79723 0.0
C1582 C 0.83879 0.25104 0.76939 0.0
C1583 C 0.82167 0.25292 0.75993 0.0
C1584 C 0.80903 0.26324 0.76956 0.0
C1585 C 0.81358 0.27114 0.78893 0.0
C1586 C 0.83057 0.2692 0.79836 0.0
H1587 H 0.8608 0.20948 0.80495 0.0
H1588 H 0.841 0.22168 0.80039 0.0
H1589 H 0.85635 0.21744 0.7814 0.0
H1590 H 0.84864 0.24367 0.76151 0.0
H1591 H 0.81857 0.24682 0.74495 0.0
H1592 H 0.56144 0.24394 0.60034 0.0
H1593 H 0.5606 0.2089 0.5903 0.0
H1594 H 0.51245 0.19305 0.62405 0.0
H1595 H 0.51327 0.22842 0.63449 0.0
H1596 H 0.54197 0.16735 0.62516 0.0
H1597 H 0.51712 0.17968 0.55082 0.0
H1598 H 0.53815 0.19632 0.56059 0.0
H1599 H 0.51622 0.19713 0.57166 0.0
C1600 C 0.55069 0.23306 0.60577 0.0
C1601 C 0.53718 0.239 0.61795 0.0
C1602 C 0.5503 0.21303 0.60004 0.0
C1603 C 0.53631 0.19848 0.6062 0.0
C1604 C 0.52333 0.20415 0.61912 0.0
H1605 H 0.49457 0.08205 0.5512 0.0
H1606 H 0.49971 0.1152 0.56806 0.0
C1607 C 0.52378 0.22432 0.62502 0.0
C1608 C 0.53455 0.17761 0.59786 0.0
H1609 H 0.52493 0.14822 0.55503 0.0
C1610 C 0.53822 0.16309 0.60985 0.0
C1611 C 0.52959 0.1722 0.57789 0.0
C1612 C 0.52488 0.18708 0.56448 0.0
C1613 C 0.53718 0.14321 0.60227 0.0
C1614 C 0.53247 0.13791 0.58226 0.0
C1615 C 0.52875 0.15244 0.57034 0.0
C1616 C 0.52975 0.11711 0.57348 0.0
C1617 C 0.54071 0.12789 0.61567 0.0
C1618 C 0.54503 0.10714 0.57098 0.0
C1619 C 0.54219 0.08799 0.56117 0.0
C1620 C 0.52402 0.07863 0.55372 0.0
C1621 C 0.50879 0.08869 0.55663 0.0
C1622 C 0.51165 0.10769 0.56633 0.0
H1623 H 0.54175 0.13388 0.63117 0.0
H1624 H 0.52921 0.11469 0.61341 0.0
H1625 H 0.55411 0.12285 0.6123 0.0
H1626 H 0.55916 0.11434 0.57622 0.0
H1627 H 0.55421 0.08067 0.5592 0.0
H1628 H 0.53272 0.7504 0.32158 0.0
H1629 H 0.56141 0.74839 0.30449 0.0
H1630 H 0.59527 0.76916 0.35763 0.0
H1631 H 0.56673 0.77155 0.3747 0.0
H1632 H 0.60796 0.78941 0.3273 0.0
H1633 H 0.59659 0.70812 0.30607 0.0
H1634 H 0.57748 0.71988 0.29846 0.0
H1635 H 0.58303 0.7191 0.3239 0.0
C1636 C 0.54627 0.75433 0.32967 0.0
C1637 C 0.54744 0.76112 0.34951 0.0
C1638 C 0.56266 0.75308 0.31989 0.0
C1639 C 0.5805 0.7584 0.32982 0.0
C1640 C 0.58166 0.76493 0.34968 0.0
H1641 H 0.69016 0.73885 0.29655 0.0
H1642 H 0.65908 0.73752 0.30966 0.0
C1643 C 0.56531 0.76626 0.35943 0.0
C1644 C 0.59806 0.75814 0.31943 0.0
H1645 H 0.62248 0.72788 0.29298 0.0
C1646 C 0.61112 0.77596 0.31978 0.0
C1647 C 0.60225 0.74054 0.30976 0.0
C1648 C 0.5892 0.72077 0.30963 0.0
C1649 C 0.62825 0.77668 0.31078 0.0
C1650 C 0.63229 0.75917 0.30078 0.0
C1651 C 0.61925 0.74133 0.30044 0.0
C1652 C 0.65045 0.7589 0.29156 0.0
C1653 C 0.64211 0.79607 0.31258 0.0
C1654 C 0.65575 0.77095 0.27662 0.0
C1655 C 0.67355 0.77178 0.26914 0.0
C1656 C 0.68628 0.76046 0.27639 0.0
C1657 C 0.68065 0.74778 0.29073 0.0
C1658 C 0.66289 0.74699 0.29822 0.0
H1659 H 0.6389 0.80667 0.32448 0.0
H1660 H 0.65676 0.79354 0.31532 0.0
H1661 H 0.64143 0.80312 0.29882 0.0
H1662 H 0.64623 0.77997 0.27099 0.0
H1663 H 0.67751 0.78161 0.25803 0.0
H1664 H 0.02103 0.21455 0.40128 0.0
H1665 H 0.0184 0.18182 0.41399 0.0
H1666 H 0.03964 0.21045 0.47049 0.0
H1667 H 0.04188 0.24287 0.45815 0.0
H1668 H 0.04401 0.16223 0.43256 0.0
H1669 H 0.98934 0.17828 0.4822 0.0
H1670 H 0.9965 0.19349 0.46294 0.0
H1671 H 0.01046 0.19671 0.48557 0.0
C1672 C 0.02531 0.21379 0.41634 0.0
C1673 C 0.03135 0.23128 0.42879 0.0
C1674 C 0.02375 0.19513 0.4236 0.0
C1675 C 0.0283 0.19376 0.44334 0.0
C1676 C 0.03547 0.21117 0.45539 0.0
H1677 H 0.03288 0.09831 0.51746 0.0
H1678 H 0.03604 0.13051 0.50381 0.0
C1679 C 0.03683 0.2297 0.44826 0.0
C1680 C 0.02526 0.17432 0.45166 0.0
H1681 H 0.0031 0.14985 0.48751 0.0
C1682 C 0.03496 0.15946 0.44446 0.0
C1683 C 0.01338 0.1707 0.46719 0.0
C1684 C 1.00168 0.18556 0.47481 0.0
C1685 C 0.03346 0.14129 0.45271 0.0
C1686 C 0.02195 0.13793 0.4685 0.0
C1687 C 0.0121 0.15265 0.47557 0.0
C1688 C 0.01935 0.11882 0.47728 0.0
C1689 C 0.04435 0.12585 0.44472 0.0
C1690 C 0.00848 0.10183 0.46709 0.0
C1691 C 0.00648 0.08355 0.47487 0.0
C1692 C 0.01541 0.08182 0.49301 0.0
C1693 C 0.02582 0.09907 0.50349 0.0
C1694 C 0.0277 0.11745 0.4957 0.0
H1695 H 0.05491 0.1319 0.43459 0.0
H1696 H 0.05171 0.11991 0.45672 0.0
H1697 H 0.03439 0.11324 0.43676 0.0
H1698 H 1.00172 0.10268 0.45298 0.0
H1699 H 0.99825 0.07069 0.46636 0.0
H1700 H 0.54664 0.2645 0.16689 0.0
H1701 H 0.57589 0.2592 0.18348 0.0
H1702 H 0.60832 0.28961 0.1408 0.0
H1703 H 0.57937 0.29504 0.12423 0.0
H1704 H 0.6031 0.23816 0.16623 0.0
H1705 H 0.63494 0.31591 0.19289 0.0
H1706 H 0.61018 0.30838 0.18557 0.0
H1707 H 0.62727 0.31256 0.16761 0.0
C1708 C 0.56001 0.27037 0.16122 0.0
C1709 C 0.56061 0.2802 0.1442 0.0
C1710 C 0.57671 0.26723 0.17067 0.0
C1711 C 0.59429 0.27413 0.16345 0.0
C1712 C 0.59494 0.28439 0.14679 0.0
H1713 H 0.712 0.27149 0.18898 0.0
H1714 H 0.68118 0.2742 0.17421 0.0
C1715 C 0.57832 0.2874 0.13728 0.0
C1716 C 0.61198 0.26978 0.17259 0.0
H1717 H 0.65524 0.29205 0.19323 0.0
C1718 C 0.61445 0.2499 0.17233 0.0
C1719 C 0.62678 0.28513 0.18046 0.0
C1720 C 0.62466 0.30669 0.18185 0.0
C1721 C 0.63159 0.245 0.17911 0.0
C1722 C 0.64652 0.26039 0.18667 0.0
C1723 C 0.64387 0.28025 0.18727 0.0
C1724 C 0.66506 0.25641 0.1941 0.0
C1725 C 0.63374 0.22345 0.17752 0.0
C1726 C 0.66631 0.24509 0.2099 0.0
C1727 C 0.68394 0.24335 0.21823 0.0
C1728 C 0.70064 0.25311 0.21106 0.0
C1729 C 0.69938 0.26372 0.19475 0.0
C1730 C 0.68177 0.26538 0.18638 0.0
H1731 H 0.62319 0.21422 0.16674 0.0
H1732 H 0.64809 0.22177 0.17331 0.0
H1733 H 0.63157 0.21757 0.19181 0.0
H1734 H 0.65367 0.23834 0.21636 0.0
H1735 H 0.68447 0.23527 0.23093 0.0
H1736 H 0.54626 0.84308 0.88563 0.0
H1737 H 0.54453 0.87649 0.90063 0.0
H1738 H 0.53403 0.85263 0.95541 0.0
H1739 H 0.53573 0.81944 0.9407 0.0
H1740 H 0.50763 0.87684 0.9416 0.0
H1741 H 0.58312 0.91304 0.94225 0.0
H1742 H 0.57221 0.89968 0.91991 0.0
H1743 H 0.57586 0.88634 0.94047 0.0
C1744 C 0.54373 0.84503 0.9009 0.0
C1745 C 0.5411 0.82865 0.91198 0.0
C1746 C 0.54282 0.86409 0.90944 0.0
C1747 C 0.53928 0.86697 0.92913 0.0
C1748 C 0.53682 0.85068 0.9402 0.0
H1749 H 0.54209 0.96467 0.01576 0.0
H1750 H 0.54811 0.93597 0.99484 0.0
C1751 C 0.53779 0.83172 0.93175 0.0
C1752 C 0.5372 0.8867 0.93824 0.0
H1753 H 0.56196 0.93246 0.95548 0.0
C1754 C 0.51945 0.88909 0.94448 0.0
C1755 C 0.55272 0.9025 0.94207 0.0
C1756 C 0.57213 0.90038 0.93597 0.0
C1757 C 0.51683 0.90681 0.95477 0.0
C1758 C 0.53236 0.9226 0.95873 0.0
C1759 C 0.5501 0.92032 0.95229 0.0
C1760 C 0.53048 0.94117 0.97039 0.0
C1761 C 0.4976 0.90827 0.96189 0.0
C1762 C 0.51899 0.9538 0.96333 0.0
C1763 C 0.51547 0.97007 0.97524 0.0
C1764 C 0.5235 0.97402 0.99435 0.0
C1765 C 0.53568 0.96188 0.00111 0.0
C1766 C 0.53917 0.94557 0.98918 0.0
H1767 H 0.48814 0.89353 0.96083 0.0
H1768 H 0.49882 0.91485 0.97722 0.0
H1769 H 0.4909 0.91811 0.95297 0.0
H1770 H 0.51232 0.95074 0.94879 0.0
H1771 H 0.50604 0.97921 0.96965 0.0
H1772 H 0.93647 0.78131 0.64105 0.0
H1773 H 0.9092 0.78069 0.66068 0.0
H1774 H 0.94164 0.76652 0.70968 0.0
H1775 H 0.96926 0.76751 0.69013 0.0
H1776 H 0.88965 0.75091 0.67873 0.0
H1777 H 0.92053 0.81406 0.73285 0.0
H1778 H 0.93137 0.80866 0.71052 0.0
H1779 H 0.93393 0.79432 0.73067 0.0
C1780 C 0.93786 0.77803 0.656 0.0
C1781 C 0.9551 0.77452 0.66404 0.0
C1782 C 0.92222 0.7777 0.66722 0.0
C1783 C 0.92341 0.77389 0.68676 0.0
C1784 C 0.94048 0.76994 0.69476 0.0
H1785 H 0.82193 0.74339 0.74995 0.0
H1786 H 0.85232 0.74357 0.73578 0.0
C1787 C 0.95622 0.77033 0.68353 0.0
C1788 C 0.9066 0.77379 0.69847 0.0
H1789 H 0.89013 0.79666 0.73834 0.0
C1790 C 0.88978 0.76087 0.6918 0.0
C1791 C 0.90669 0.787 0.71538 0.0
C1792 C 0.92403 0.80194 0.72273 0.0
C1793 C 0.87309 0.76079 0.70149 0.0
C1794 C 0.87327 0.77367 0.71864 0.0
C1795 C 0.89006 0.78664 0.72532 0.0
C1796 C 0.85595 0.77427 0.7294 0.0
C1797 C 0.85528 0.7473 0.69289 0.0
C1798 C 0.84834 0.79178 0.73153 0.0
C1799 C 0.831 0.79182 0.73988 0.0
C1800 C 0.82095 0.7743 0.74623 0.0
C1801 C 0.82915 0.75709 0.74501 0.0
C1802 C 0.8465 0.75712 0.73681 0.0
H1803 H 0.85637 0.74241 0.67734 0.0
H1804 H 0.85271 0.73382 0.70084 0.0
H1805 H 0.8429 0.75483 0.69417 0.0
H1806 H 0.85544 0.80524 0.72604 0.0
H1807 H 0.82512 0.80533 0.74056 0.0
H1808 H 0.0931 0.00695 0.81592 0.0
H1809 H 0.07567 0.00802 0.84521 0.0
H1810 H 0.12595 0.00457 0.8799 0.0
H1811 H 0.14359 0.00327 0.85041 0.0
H1812 H 0.09312 0.97892 0.88986 0.0
H1813 H 0.08023 0.05585 0.88597 0.0
H1814 H 0.07299 0.0399 0.86401 0.0
H1815 H 0.09756 0.04586 0.87204 0.0
C1816 C 0.10054 0.0065 0.82976 0.0
C1817 C 0.1198 0.00516 0.83083 0.0
C1818 C 0.09053 0.00718 0.84653 0.0
C1819 C 0.09954 0.00667 0.8648 0.0
C1820 C 0.11873 0.00508 0.86596 0.0
H1821 H 0.05191 0.03887 0.97325 0.0
H1822 H 0.07204 0.03566 0.94626 0.0
C1823 C 0.1288 0.00441 0.84912 0.0
C1824 C 0.08878 0.00772 0.88256 0.0
H1825 H 0.06253 0.03667 0.90809 0.0
C1826 C 0.08652 0.99159 0.89394 0.0
C1827 C 0.08032 0.02434 0.888 0.0
C1828 C 0.08302 0.04256 0.87699 0.0
C1829 C 0.07568 0.99145 0.91034 0.0
C1830 C 0.06664 0.00777 0.91533 0.0
C1831 C 0.06926 0.02406 0.90416 0.0
C1832 C 0.05483 0.00864 0.93235 0.0
C1833 C 0.07422 0.974 0.92234 0.0
C1834 C 0.03838 0.99448 0.93363 0.0
C1835 C 0.02685 0.99619 0.94925 0.0
C1836 C 0.03154 0.01215 0.96379 0.0
C1837 C 0.04802 0.02623 0.96246 0.0
C1838 C 0.05952 0.02449 0.94695 0.0
H1839 H 0.08567 0.96535 0.91962 0.0
H1840 H 0.07483 0.97899 0.93806 0.0
H1841 H 0.06052 0.96391 0.91848 0.0
H1842 H 0.03423 0.98235 0.92234 0.0
H1843 H 0.01417 0.98521 0.94982 0.0
H1844 H 0.72527 0.3366 0.53585 0.0
H1845 H 0.72797 0.32626 0.56844 0.0
H1846 H 0.74946 0.38699 0.59106 0.0
H1847 H 0.74655 0.3976 0.5583 0.0
H1848 H 0.76307 0.3319 0.58909 0.0
H1849 H 0.71082 0.36652 0.63041 0.0
H1850 H 0.70966 0.36329 0.6042 0.0
H1851 H 0.72674 0.38277 0.61713 0.0
C1852 C 0.73026 0.34785 0.54778 0.0
C1853 C 0.73586 0.3679 0.54449 0.0
C1854 C 0.73178 0.3419 0.56639 0.0
C1855 C 0.73893 0.35584 0.58212 0.0
C1856 C 0.74368 0.37604 0.57912 0.0
H1857 H 0.78682 0.32099 0.68932 0.0
H1858 H 0.78222 0.33714 0.65968 0.0
C1859 C 0.74204 0.38207 0.56042 0.0
C1860 C 0.74302 0.34871 0.6011 0.0
H1861 H 0.73029 0.34891 0.64793 0.0
C1862 C 0.75597 0.33569 0.602 0.0
C1863 C 0.73367 0.35365 0.61782 0.0
C1864 C 0.71933 0.36721 0.61744 0.0
C1865 C 0.75963 0.32719 0.61911 0.0
C1866 C 0.75028 0.3321 0.63583 0.0
C1867 C 0.73748 0.3453 0.63505 0.0
C1868 C 0.75302 0.3229 0.65399 0.0
C1869 C 0.77302 0.31256 0.61901 0.0
C1870 C 0.73806 0.30975 0.66061 0.0
C1871 C 0.74066 0.30049 0.67743 0.0
C1872 C 0.75825 0.30436 0.68792 0.0
C1873 C 0.77318 0.31765 0.68137 0.0
C1874 C 0.77057 0.32688 0.6645 0.0
H1875 H 0.77619 0.3075 0.60405 0.0
H1876 H 0.7865 0.31973 0.62703 0.0
H1877 H 0.76706 0.29933 0.62638 0.0
H1878 H 0.72442 0.30652 0.65264 0.0
H1879 H 0.72888 0.29042 0.68228 0.0
H1880 H 0.44793 0.06231 0.32753 0.0
H1881 H 0.463 0.06 0.35921 0.0
H1882 H 0.40842 0.04589 0.38266 0.0
H1883 H 0.39307 0.04804 0.35067 0.0
H1884 H 0.45977 0.0806 0.39605 0.0
H1885 H 0.43558 0.99867 0.39354 0.0
H1886 H 0.43463 0.01198 0.37227 0.0
H1887 H 0.41774 0.01364 0.39028 0.0
C1888 C 0.43908 0.05886 0.33944 0.0
C1889 C 0.41932 0.0552 0.33662 0.0
C1890 C 0.44773 0.05759 0.35753 0.0
C1891 C 0.43682 0.05255 0.37315 0.0
C1892 C 0.41705 0.04956 0.37066 0.0
H1893 H 0.49029 0.05494 0.48936 0.0
H1894 H 0.4695 0.0601 0.46211 0.0
C1895 C 0.40833 0.05091 0.35246 0.0
C1896 C 0.44646 0.0498 0.39172 0.0
H1897 H 0.45586 0.01408 0.42016 0.0
C1898 C 0.45877 0.06613 0.40151 0.0
C1899 C 0.44527 0.03081 0.39852 0.0
C1900 C 0.43271 0.01268 0.38811 0.0
C1901 C 0.47025 0.06391 0.41775 0.0
C1902 C 0.46917 0.04489 0.42448 0.0
C1903 C 0.45659 0.02863 0.41493 0.0
C1904 C 0.48144 0.04147 0.44104 0.0
C1905 C 0.48396 0.08176 0.42713 0.0
C1906 C 0.49479 0.029 0.43824 0.0
C1907 C 0.50656 0.02587 0.45384 0.0
C1908 C 0.50498 0.03506 0.47242 0.0
C1909 C 0.49164 0.04755 0.47517 0.0
C1910 C 0.47987 0.05063 0.45962 0.0
H1911 H 0.48598 0.09414 0.41768 0.0
H1912 H 0.47846 0.08722 0.44088 0.0
H1913 H 0.49791 0.07773 0.43064 0.0
H1914 H 0.49615 0.02178 0.42397 0.0
H1915 H 0.51669 0.0161 0.45142 0.0
H1916 H 0.76636 0.65233 0.05622 0.0
H1917 H 0.76465 0.66227 0.09098 0.0
H1918 H 0.77056 0.72365 0.07917 0.0
H1919 H 0.7719 0.71391 0.0447 0.0
H1920 H 0.78818 0.68775 0.11859 0.0
H1921 H 0.72155 0.71558 0.10637 0.0
H1922 H 0.73098 0.7006 0.08787 0.0
H1923 H 0.73973 0.72696 0.09202 0.0
C1924 C 0.76751 0.66795 0.0611 0.0
C1925 C 0.76899 0.68229 0.04765 0.0
C1926 C 0.76645 0.6736 0.08094 0.0
C1927 C 0.7669 0.69365 0.08759 0.0
C1928 C 0.76956 0.70804 0.07432 0.0
H1929 H 0.79058 0.7569 0.20088 0.0
H1930 H 0.79094 0.74066 0.16824 0.0
C1931 C 0.77045 0.70243 0.0546 0.0
C1932 C 0.76434 0.69977 0.10827 0.0
H1933 H 0.73848 0.72627 0.13712 0.0
C1934 C 0.77719 0.69598 0.12268 0.0
C1935 C 0.74973 0.71012 0.11372 0.0
C1936 C 0.73459 0.71337 0.0992 0.0
C1937 C 0.77638 0.70309 0.14223 0.0
C1938 C 0.76261 0.71471 0.14743 0.0
C1939 C 0.74922 0.71765 0.13315 0.0
C1940 C 0.76225 0.72455 0.1674 0.0
C1941 C 0.79027 0.69801 0.1571 0.0
C1942 C 0.74572 0.72165 0.17758 0.0
C1943 C 0.74535 0.73124 0.19623 0.0
C1944 C 0.76152 0.74393 0.20506 0.0
C1945 C 0.77792 0.74707 0.19465 0.0
C1946 C 0.77822 0.73762 0.17601 0.0
H1947 H 0.79523 0.68404 0.15224 0.0
H1948 H 0.80279 0.71013 0.15914 0.0
H1949 H 0.78398 0.69631 0.17132 0.0
H1950 H 0.73314 0.7118 0.17116 0.0
H1951 H 0.7325 0.72846 0.20382 0.0
H1952 H 0.14652 0.01729 0.72151 0.0
H1953 H 0.13999 0.02162 0.68712 0.0
H1954 H 0.08024 0.00807 0.69458 0.0
H1955 H 0.08658 0.00371 0.72862 0.0
H1956 H 0.09187 0.9899 0.65942 0.0
H1957 H 0.11873 0.07149 0.67149 0.0
H1958 H 0.13431 0.05527 0.67878 0.0
H1959 H 0.11324 0.05644 0.69128 0.0
C1960 C 0.13202 0.01483 0.71568 0.0
C1961 C 0.11707 0.0103 0.72783 0.0
C1962 C 0.12831 0.0175 0.6961 0.0
C1963 C 0.10961 0.01549 0.6884 0.0
C1964 C 0.09476 0.00982 0.70024 0.0
H1965 H 0.04874 0.05718 0.59653 0.0
H1966 H 0.06535 0.05213 0.62689 0.0
C1967 C 0.09843 0.00734 0.71972 0.0
C1968 C 0.10515 0.02012 0.66835 0.0
H1969 H 0.10476 0.05889 0.64057 0.0
C1970 C 0.09494 0.00492 0.65516 0.0
C1971 C 0.10891 0.0398 0.66298 0.0
C1972 C 0.11929 0.05679 0.67684 0.0
C1973 C 0.08805 0.00891 0.6369 0.0
C1974 C 0.09164 0.02864 0.63159 0.0
C1975 C 0.10215 0.04379 0.64463 0.0
C1976 C 0.08352 0.03388 0.61306 0.0
C1977 C 0.07627 0.99215 0.62375 0.0
C1978 C 0.08874 0.02597 0.59518 0.0
C1979 C 0.07932 0.02887 0.57786 0.0
C1980 C 0.06453 0.0398 0.5781 0.0
C1981 C 0.0601 0.04873 0.5959 0.0
C1982 C 0.06955 0.04582 0.61325 0.0
H1983 H 0.07176 0.97876 0.63149 0.0
H1984 H 0.0635 0.99688 0.6175 0.0
H1985 H 0.08467 0.98789 0.61157 0.0
H1986 H 0.09968 0.01698 0.59468 0.0
H1987 H 0.08309 0.02185 0.56435 0.0
H1988 H 0.72091 0.35268 0.45076 0.0
H1989 H 0.72617 0.33665 0.41924 0.0
H1990 H 0.75158 0.39341 0.40137 0.0
H1991 H 0.74587 0.40977 0.43302 0.0
H1992 H 0.72835 0.37011 0.37231 0.0
H1993 H 0.77757 0.32668 0.4042 0.0
H1994 H 0.7555 0.32292 0.41545 0.0
H1995 H 0.77007 0.34729 0.41776 0.0
C1996 C 0.7275 0.3618 0.44009 0.0
C1997 C 0.73314 0.38243 0.44436 0.0
C1998 C 0.73062 0.3526 0.42214 0.0
C1999 C 0.73976 0.36377 0.40821 0.0
C2000 C 0.7447 0.38452 0.41205 0.0
H2001 H 0.77665 0.29436 0.30968 0.0
H2002 H 0.77725 0.31812 0.3382 0.0
C2003 C 0.74139 0.39383 0.43006 0.0
C2004 C 0.74412 0.35344 0.38979 0.0
H2005 H 0.76343 0.31399 0.37235 0.0
C2006 C 0.73627 0.35804 0.37223 0.0
C2007 C 0.75492 0.33808 0.38965 0.0
C2008 C 0.76518 0.33361 0.40777 0.0
C2009 C 0.73788 0.34678 0.35468 0.0
C2010 C 0.7471 0.33017 0.35489 0.0
C2011 C 0.75601 0.32644 0.37225 0.0
C2012 C 0.74691 0.3159 0.33755 0.0
C2013 C 0.72963 0.35274 0.33614 0.0
C2014 C 0.7297 0.30631 0.32806 0.0
C2015 C 0.72945 0.29276 0.31179 0.0
C2016 C 0.74638 0.28826 0.30492 0.0
C2017 C 0.7635 0.29728 0.31484 0.0
C2018 C 0.76381 0.31103 0.331 0.0
H2019 H 0.72931 0.36893 0.33726 0.0
H2020 H 0.73778 0.34905 0.32354 0.0
H2021 H 0.71488 0.3447 0.33335 0.0
H2022 H 0.71644 0.30929 0.33324 0.0
H2023 H 0.71599 0.28596 0.30445 0.0
H2024 H 0.46185 0.04724 0.24349 0.0
H2025 H 0.4709 0.0437 0.21018 0.0
H2026 H 0.4123 0.02841 0.18981 0.0
H2027 H 0.40297 0.03222 0.22335 0.0
H2028 H 0.46232 0.00857 0.18584 0.0
H2029 H 0.4347 0.07041 0.15414 0.0
H2030 H 0.43766 0.06922 0.18 0.0
H2031 H 0.41808 0.05364 0.16619 0.0
C2032 C 0.45081 0.04329 0.23197 0.0
C2033 C 0.43166 0.03987 0.2361 0.0
C2034 C 0.45604 0.0413 0.21292 0.0
C2035 C 0.44228 0.03584 0.19757 0.0
C2036 C 0.42312 0.0329 0.20148 0.0
H2037 H 0.4715 0.99076 0.083 0.0
H2038 H 0.45731 0.9939 0.11432 0.0
C2039 C 0.41782 0.03503 0.22063 0.0
C2040 C 0.44834 0.03218 0.1777 0.0
H2041 H 0.4493 0.04963 0.13307 0.0
C2042 C 0.45939 0.01745 0.17424 0.0
C2043 C 0.44456 0.04391 0.16272 0.0
C2044 C 0.43322 0.0603 0.16588 0.0
C2045 C 0.46711 0.01437 0.15629 0.0
C2046 C 0.46336 0.02611 0.14131 0.0
C2047 C 0.45205 0.04063 0.14463 0.0
C2048 C 0.47176 0.02412 0.12236 0.0
C2049 C 0.47974 0.99908 0.15374 0.0
C2050 C 0.48437 0.04016 0.11647 0.0
C2051 C 0.49245 0.03842 0.09862 0.0
C2052 C 0.48796 0.02062 0.08639 0.0
C2053 C 0.47533 0.00457 0.09229 0.0
C2054 C 0.46724 0.00633 0.11014 0.0
H2055 H 0.48455 0.99456 0.16787 0.0
H2056 H 0.47185 0.98561 0.145 0.0
H2057 H 0.49234 0.00487 0.14593 0.0
H2058 H 0.48801 0.05401 0.12572 0.0
H2059 H 0.50203 0.05107 0.09432 0.0
H2060 H 0.76759 0.69844 0.95732 0.0
H2061 H 0.76757 0.71415 0.92707 0.0
H2062 H 0.7756 0.65961 0.89542 0.0
H2063 H 0.77582 0.64373 0.92585 0.0
H2064 H 0.7998 0.69362 0.88534 0.0
H2065 H 0.72558 0.70503 0.88383 0.0
H2066 H 0.7387 0.71473 0.90627 0.0
H2067 H 0.73439 0.68838 0.89927 0.0
C2068 C 0.76921 0.68969 0.94393 0.0
C2069 C 0.77161 0.66978 0.94399 0.0
C2070 C 0.76912 0.69869 0.92661 0.0
C2071 C 0.77133 0.688 0.90893 0.0
C2072 C 0.77377 0.66812 0.90889 0.0
H2073 H 0.74963 0.7324 0.79762 0.0
H2074 H 0.75032 0.71192 0.82466 0.0
C2075 C 0.77383 0.65905 0.92627 0.0
C2076 C 0.77152 0.69786 0.89063 0.0
H2077 H 0.74556 0.72292 0.8624 0.0
C2078 C 0.78789 0.69989 0.88021 0.0
C2079 C 0.75591 0.70585 0.88382 0.0
C2080 C 0.73758 0.70324 0.89376 0.0
C2081 C 0.78926 0.7102 0.86349 0.0
C2082 C 0.77394 0.71896 0.8572 0.0
C2083 C 0.75739 0.71642 0.86732 0.0
C2084 C 0.77463 0.73074 0.8401 0.0
C2085 C 0.807 0.71145 0.85262 0.0
C2086 C 0.78813 0.74816 0.83968 0.0
C2087 C 0.78786 0.75985 0.82408 0.0
C2088 C 0.77401 0.75439 0.80871 0.0
C2089 C 0.76064 0.73688 0.80911 0.0
C2090 C 0.76095 0.7252 0.82462 0.0
H2091 H 0.81501 0.69959 0.85599 0.0
H2092 H 0.80372 0.71024 0.8367 0.0
H2093 H 0.81626 0.72603 0.85694 0.0
H2094 H 0.79857 0.75299 0.85164 0.0
H2095 H 0.79825 0.77334 0.82423 0.0
H2096 H 0.79489 0.08071 0.02709 0.0
H2097 H 0.81901 0.05951 0.02585 0.0
H2098 H 0.86225 0.1114 0.0247 0.0
H2099 H 0.83837 0.13257 0.02574 0.0
H2100 H 0.86246 0.08103 0.99428 0.0
H2101 H 0.86045 0.05206 0.06688 0.0
H2102 H 0.83829 0.04976 0.05307 0.0
H2103 H 0.85105 0.07397 0.06192 0.0
C2104 C 0.80958 0.08761 0.02695 0.0
C2105 C 0.81473 0.1083 0.02645 0.0
C2106 C 0.82332 0.07549 0.02626 0.0
C2107 C 0.84239 0.08392 0.0252 0.0
C2108 C 0.84759 0.10461 0.02546 0.0
H2109 H 0.94934 0.05304 0.03971 0.0
H2110 H 0.91845 0.06246 0.04231 0.0
C2111 C 0.83392 0.11669 0.02611 0.0
C2112 C 0.85697 0.07134 0.0225 0.0
H2113 H 0.88217 0.04161 0.04569 0.0
C2114 C 0.86665 0.0722 0.0054 0.0
C2115 C 0.86234 0.05989 0.03707 0.0
C2116 C 0.85263 0.05886 0.05586 0.0
C2117 C 0.8821 0.06256 0.00278 0.0
C2118 C 0.88777 0.05143 0.01752 0.0
C2119 C 0.87764 0.04998 0.03434 0.0
C2120 C 0.90561 0.04354 0.01686 0.0
C2121 C 0.89285 0.06532 0.98474 0.0
C2122 C 0.90853 0.02932 0.00196 0.0
C2123 C 0.92632 0.02394 0.00039 0.0
C2124 C 0.94131 0.0327 0.01374 0.0
C2125 C 0.93806 0.04618 0.02912 0.0
C2126 C 0.92038 0.05151 0.03068 0.0
H2127 H 0.88863 0.0772 0.9765 0.0
H2128 H 0.90827 0.06913 0.98851 0.0
H2129 H 0.89006 0.05123 0.97507 0.0
H2130 H 0.89719 0.02276 0.99132 0.0
H2131 H 0.92847 0.01341 0.98849 0.0
H2132 H 0.33347 0.39518 0.00913 0.0
H2133 H 0.3638 0.41758 0.01227 0.0
H2134 H 0.33809 0.46414 0.03963 0.0
H2135 H 0.30733 0.44179 0.03625 0.0
H2136 H 0.36274 0.47755 0.01192 0.0
H2137 H 0.39725 0.434 0.06166 0.0
H2138 H 0.38694 0.41919 0.03995 0.0
H2139 H 0.37202 0.42966 0.05658 0.0
C2140 C 0.33415 0.41013 0.01592 0.0
C2141 C 0.31786 0.41655 0.0226 0.0
C2142 C 0.35161 0.42293 0.01779 0.0
C2143 C 0.35336 0.44243 0.02657 0.0
C2144 C 0.33713 0.44909 0.03295 0.0
H2145 H 0.45702 0.53359 0.04709 0.0
H2146 H 0.424 0.51656 0.0469 0.0
C2147 C 0.31955 0.43627 0.03104 0.0
C2148 C 0.37217 0.45576 0.02871 0.0
H2149 H 0.4178 0.45812 0.04584 0.0
C2150 C 0.37472 0.47347 0.01958 0.0
C2151 C 0.38782 0.45051 0.0388 0.0
C2152 C 0.38586 0.43241 0.04997 0.0
C2153 C 0.39266 0.48552 0.01952 0.0
C2154 C 0.40839 0.47976 0.02889 0.0
C2155 C 0.40573 0.46243 0.03853 0.0
C2156 C 0.42792 0.4909 0.02812 0.0
C2157 C 0.39489 0.50392 0.00881 0.0
C2158 C 0.44101 0.48216 0.0176 0.0
C2159 C 0.45975 0.49184 0.01764 0.0
C2160 C 0.46587 0.51041 0.02837 0.0
C2161 C 0.4527 0.51932 0.03867 0.0
C2162 C 0.43384 0.50965 0.03853 0.0
H2163 H 0.38174 0.50507 0.00032 0.0
H2164 H 0.39872 0.5173 0.01939 0.0
H2165 H 0.4065 0.50396 0.99881 0.0
H2166 H 0.43675 0.4677 0.00951 0.0
H2167 H 0.46955 0.48455 0.00957 0.0
H2168 H 0.33658 0.57096 0.72892 0.0
H2169 H 0.32009 0.59934 0.72841 0.0
H2170 H 0.3673 0.6368 0.76127 0.0
H2171 H 0.38397 0.60878 0.76141 0.0
H2172 H 0.30851 0.62139 0.75814 0.0
H2173 H 0.3591 0.6708 0.71849 0.0
H2174 H 0.36017 0.64484 0.7196 0.0
H2175 H 0.37031 0.66295 0.73934 0.0
C2176 C 0.34354 0.58532 0.73581 0.0
C2177 C 0.36167 0.58762 0.74507 0.0
C2178 C 0.33407 0.60152 0.73555 0.0
C2179 C 0.34255 0.62036 0.74451 0.0
C2180 C 0.36063 0.62262 0.75379 0.0
H2181 H 0.31113 0.73357 0.77727 0.0
H2182 H 0.32498 0.70349 0.77357 0.0
C2183 C 0.37012 0.6065 0.75395 0.0
C2184 C 0.33225 0.63745 0.74497 0.0
H2185 H 0.33661 0.68621 0.73584 0.0
C2186 C 0.31455 0.63547 0.75303 0.0
C2187 C 0.34006 0.65587 0.73825 0.0
C2188 C 0.35836 0.6587 0.72825 0.0
C2189 C 0.30485 0.65157 0.7552 0.0
C2190 C 0.313 0.67011 0.7491 0.0
C2191 C 0.33047 0.67201 0.74066 0.0
C2192 C 0.30389 0.68792 0.75179 0.0
C2193 C 0.28621 0.64887 0.76454 0.0
C2194 C 0.28737 0.68915 0.74079 0.0
C2195 C 0.27939 0.70639 0.74282 0.0
C2196 C 0.28776 0.72274 0.75595 0.0
C2197 C 0.30418 0.72128 0.76712 0.0
C2198 C 0.31219 0.7041 0.76499 0.0
H2199 H 0.28313 0.6345 0.77104 0.0
H2200 H 0.28611 0.6612 0.77602 0.0
H2201 H 0.27473 0.64927 0.75345 0.0
H2202 H 0.28087 0.67692 0.73034 0.0
H2203 H 0.26688 0.70702 0.7338 0.0
H2204 H 0.22366 0.59687 0.50979 0.0
H2205 H 0.19217 0.57728 0.5118 0.0
H2206 H 0.16738 0.62856 0.50154 0.0
H2207 H 0.19864 0.64815 0.49913 0.0
H2208 H 0.16608 0.58435 0.53829 0.0
H2209 H 0.13677 0.58556 0.46318 0.0
H2210 H 0.16167 0.59246 0.46996 0.0
H2211 H 0.14614 0.60995 0.47474 0.0
C2212 C 0.21151 0.60392 0.50764 0.0
C2213 C 0.21371 0.6241 0.50426 0.0
C2214 C 0.19354 0.59271 0.50888 0.0
C2215 C 0.17747 0.60143 0.50667 0.0
C2216 C 0.17959 0.62144 0.50294 0.0
H2217 H 0.06455 0.56489 0.54439 0.0
H2218 H 0.09807 0.57944 0.54317 0.0
C2219 C 0.19751 0.63264 0.50161 0.0
C2220 C 0.15852 0.58995 0.50911 0.0
H2221 H 0.11468 0.5755 0.48655 0.0
C2222 C 0.15485 0.58223 0.52694 0.0
C2223 C 0.14399 0.58708 0.49421 0.0
C2224 C 0.14736 0.59402 0.47438 0.0
C2225 C 0.13686 0.57203 0.53041 0.0
C2226 C 0.12214 0.56989 0.51577 0.0
C2227 C 0.12595 0.57731 0.49783 0.0
C2228 C 0.10269 0.55972 0.51838 0.0
C2229 C 0.13384 0.56346 0.54957 0.0
C2230 C 0.09426 0.54381 0.50498 0.0
C2231 C 0.0752 0.5358 0.50547 0.0
C2232 C 0.06419 0.54344 0.51947 0.0
C2233 C 0.07279 0.55867 0.53357 0.0
C2234 C 0.09192 0.56691 0.5329 0.0
H2235 H 0.14737 0.56151 0.55683 0.0
H2236 H 0.12743 0.57377 0.55932 0.0
H2237 H 0.12416 0.54885 0.54763 0.0
H2238 H 0.10231 0.538 0.49371 0.0
H2239 H 0.06896 0.52391 0.49455 0.0
H2240 H 0.68632 0.98297 0.73589 0.0
H2241 H 0.70786 0.95946 0.73962 0.0
H2242 H 0.66337 0.91845 0.76169 0.0
H2243 H 0.64168 0.94175 0.75783 0.0
H2244 H 0.71861 0.94365 0.77406 0.0
H2245 H 0.68302 0.88467 0.71785 0.0
H2246 H 0.67831 0.90973 0.71937 0.0
H2247 H 0.66777 0.89252 0.73558 0.0
C2248 C 0.68107 0.96887 0.74137 0.0
C2249 C 0.66227 0.96414 0.74645 0.0
C2250 C 0.69341 0.95551 0.74357 0.0
C2251 C 0.68714 0.93718 0.75077 0.0
C2252 C 0.66839 0.93241 0.75583 0.0
H2253 H 0.74949 0.85235 0.79601 0.0
H2254 H 0.7333 0.88062 0.79277 0.0
C2255 C 0.65603 0.94575 0.75364 0.0
C2256 C 0.70027 0.92313 0.7532 0.0
H2257 H 0.7071 0.87636 0.73837 0.0
C2258 C 0.71619 0.92896 0.7662 0.0
C2259 C 0.69713 0.90409 0.74277 0.0
C2260 C 0.68073 0.89739 0.72797 0.0
C2261 C 0.72892 0.91604 0.76932 0.0
C2262 C 0.72546 0.89679 0.75931 0.0
C2263 C 0.70969 0.89112 0.74609 0.0
C2264 C 0.73784 0.88207 0.76222 0.0
C2265 C 0.74604 0.92316 0.78311 0.0
C2266 C 0.746 0.87377 0.74623 0.0
C2267 C 0.75508 0.85761 0.74802 0.0
C2268 C 0.75615 0.84947 0.76585 0.0
C2269 C 0.74899 0.8585 0.78216 0.0
C2270 C 0.73978 0.87465 0.78032 0.0
H2271 H 0.74927 0.93965 0.78559 0.0
H2272 H 0.74331 0.91724 0.79731 0.0
H2273 H 0.7586 0.91776 0.77753 0.0
H2274 H 0.74464 0.87927 0.73213 0.0
H2275 H 0.76047 0.85089 0.73521 0.0
H2276 H 0.6941 0.90273 0.51817 0.0
H2277 H 0.66794 0.9211 0.51954 0.0
H2278 H 0.70533 0.97257 0.54788 0.0
H2279 H 0.73166 0.95426 0.5466 0.0
H2280 H 0.66937 0.96346 0.56466 0.0
H2281 H 0.66185 0.96621 0.48494 0.0
H2282 H 0.66152 0.94174 0.49243 0.0
H2283 H 0.68259 0.96023 0.49697 0.0
C2284 C 0.69678 0.91792 0.5248 0.0
C2285 C 0.71503 0.92704 0.53221 0.0
C2286 C 0.68181 0.92845 0.52547 0.0
C2287 C 0.68472 0.94832 0.53353 0.0
C2288 C 0.70277 0.95729 0.54148 0.0
H2289 H 0.60291 0.02741 0.51648 0.0
H2290 H 0.63229 0.01391 0.51888 0.0
C2291 C 0.71781 0.94679 0.54075 0.0
C2292 C 0.66893 0.95972 0.53348 0.0
H2293 H 0.63756 0.97638 0.50328 0.0
C2294 C 0.66248 0.9664 0.55125 0.0
C2295 C 0.6601 0.96381 0.51599 0.0
C2296 C 0.66693 0.95781 0.49648 0.0
C2297 C 0.64706 0.97647 0.55198 0.0
C2298 C 0.63776 0.97985 0.53446 0.0
C2299 C 0.64461 0.97373 0.51671 0.0
C2300 C 0.62042 0.9889 0.53417 0.0
C2301 C 0.64089 0.98345 0.5715 0.0
C2302 C 0.60399 0.97937 0.54194 0.0
C2303 C 0.58728 0.98701 0.54052 0.0
C2304 C 0.58658 0.00435 0.5313 0.0
C2305 C 0.60308 0.01411 0.52378 0.0
C2306 C 0.61983 0.00637 0.52511 0.0
H2307 H 0.65241 0.98488 0.58303 0.0
H2308 H 0.63622 0.99801 0.57114 0.0
H2309 H 0.62884 0.97243 0.57549 0.0
H2310 H 0.60393 0.96568 0.54864 0.0
H2311 H 0.57474 0.97905 0.54629 0.0
H2312 H 0.347 0.48842 0.73364 0.0
H2313 H 0.32586 0.45595 0.73151 0.0
H2314 H 0.36962 0.43084 0.75932 0.0
H2315 H 0.39078 0.4629 0.76146 0.0
H2316 H 0.33433 0.41542 0.71408 0.0
H2317 H 0.32109 0.42046 0.7926 0.0
H2318 H 0.32874 0.44215 0.77999 0.0
H2319 H 0.34531 0.42685 0.78672 0.0
C2320 C 0.35215 0.47598 0.73924 0.0
C2321 C 0.37062 0.47837 0.74776 0.0
C2322 C 0.34006 0.45744 0.73797 0.0
C2323 C 0.34616 0.44108 0.74539 0.0
C2324 C 0.3646 0.44333 0.75363 0.0
H2325 H 0.30243 0.32086 0.76756 0.0
H2326 H 0.3209 0.35383 0.76477 0.0
C2327 C 0.3767 0.46172 0.75479 0.0
C2328 C 0.33334 0.42159 0.74494 0.0
H2329 H 0.31071 0.38923 0.77458 0.0
C2330 C 0.32896 0.40972 0.72724 0.0
C2331 C 0.3265 0.41421 0.76215 0.0
C2332 C 0.33048 0.42658 0.78147 0.0
C2333 C 0.31842 0.3903 0.72641 0.0
C2334 C 0.31177 0.38279 0.74371 0.0
C2335 C 0.31585 0.39492 0.76133 0.0
C2336 C 0.301 0.36223 0.74411 0.0
C2337 C 0.31517 0.37777 0.70715 0.0
C2338 C 0.28369 0.35584 0.73332 0.0
C2339 C 0.27318 0.33684 0.73474 0.0
C2340 C 0.27969 0.32401 0.74716 0.0
C2341 C 0.29709 0.33035 0.75778 0.0
C2342 C 0.30763 0.34924 0.75626 0.0
H2343 H 0.32528 0.38362 0.69653 0.0
H2344 H 0.31647 0.36212 0.70889 0.0
H2345 H 0.3007 0.37787 0.70102 0.0
H2346 H 0.27805 0.3657 0.72419 0.0
H2347 H 0.25975 0.33241 0.7265 0.0
H2348 H 0.12042 0.58178 0.26055 0.0
H2349 H 0.14101 0.61358 0.25757 0.0
H2350 H 0.18066 0.58278 0.22846 0.0
H2351 H 0.16053 0.55097 0.23198 0.0
H2352 H 0.19837 0.60918 0.25558 0.0
H2353 H 0.15044 0.64549 0.2122 0.0
H2354 H 0.14012 0.63765 0.23392 0.0
H2355 H 0.14522 0.61936 0.21561 0.0
C2356 C 0.13343 0.5818 0.25334 0.0
C2357 C 0.13884 0.56385 0.24653 0.0
C2358 C 0.14513 0.60001 0.25151 0.0
C2359 C 0.16224 0.60061 0.24247 0.0
C2360 C 0.16751 0.5827 0.23542 0.0
H2361 H 0.22878 0.71554 0.22019 0.0
H2362 H 0.21092 0.68148 0.21526 0.0
C2363 C 0.15597 0.56452 0.23747 0.0
C2364 C 0.17527 0.61976 0.24153 0.0
H2365 H 0.17749 0.667 0.22871 0.0
C2366 C 0.19385 0.62173 0.24947 0.0
C2367 C 0.16955 0.63605 0.23321 0.0
C2368 C 0.1503 0.63448 0.22306 0.0
C2369 C 0.2066 0.63975 0.25005 0.0
C2370 C 0.20044 0.65644 0.24302 0.0
C2371 C 0.18213 0.65426 0.23432 0.0
C2372 C 0.21233 0.67654 0.24567 0.0
C2373 C 0.22654 0.64066 0.25818 0.0
C2374 C 0.21902 0.68504 0.26437 0.0
C2375 C 0.22935 0.70434 0.26722 0.0
C2376 C 0.23295 0.71574 0.25144 0.0
C2377 C 0.22632 0.70717 0.23266 0.0
C2378 C 0.21607 0.68773 0.22981 0.0
H2379 H 0.23075 0.62581 0.2564 0.0
H2380 H 0.23676 0.65134 0.25104 0.0
H2381 H 0.22745 0.64549 0.27395 0.0
H2382 H 0.21586 0.67693 0.27689 0.0
H2383 H 0.23403 0.71046 0.28192 0.0
H2384 H 0.47355 0.7163 0.42667 0.0
H2385 H 0.47895 0.68588 0.43997 0.0
H2386 H 0.52694 0.68464 0.40536 0.0
H2387 H 0.52155 0.7153 0.39169 0.0
H2388 H 0.48672 0.64523 0.41556 0.0
H2389 H 0.54163 0.68878 0.46945 0.0
H2390 H 0.52274 0.69997 0.45983 0.0
H2391 H 0.54081 0.69438 0.44448 0.0
C2392 C 0.48514 0.70947 0.42166 0.0
C2393 C 0.49723 0.71828 0.40824 0.0
C2394 C 0.48814 0.69206 0.42925 0.0
C2395 C 0.50336 0.68318 0.4237 0.0
C2396 C 0.5151 0.69139 0.40975 0.0
H2397 H 0.54414 0.59258 0.48642 0.0
H2398 H 0.54196 0.61975 0.46645 0.0
C2399 C 0.51198 0.7088 0.40195 0.0
C2400 C 0.50742 0.66612 0.43368 0.0
H2401 H 0.53135 0.6551 0.47371 0.0
C2402 C 0.49666 0.64724 0.42811 0.0
C2403 C 0.52037 0.66893 0.45 0.0
C2404 C 0.53213 0.68907 0.45644 0.0
C2405 C 0.49829 0.63105 0.43875 0.0
C2406 C 0.51059 0.63406 0.4557 0.0
C2407 C 0.5218 0.65285 0.46084 0.0
C2408 C 0.51187 0.618 0.46844 0.0
C2409 C 0.48687 0.6109 0.43167 0.0
C2410 C 0.49578 0.6084 0.47674 0.0
C2411 C 0.49694 0.59275 0.48813 0.0
C2412 C 0.51429 0.58662 0.49167 0.0
C2413 C 0.53054 0.5969 0.48405 0.0
C2414 C 0.52932 0.61241 0.47254 0.0
H2415 H 0.48296 0.60979 0.41586 0.0
H2416 H 0.49475 0.59881 0.43453 0.0
H2417 H 0.47363 0.60854 0.43936 0.0
H2418 H 0.48226 0.61288 0.47427 0.0
H2419 H 0.48418 0.58527 0.49389 0.0
H2420 H 0.5682 0.30208 0.68983 0.0
H2421 H 0.59541 0.30102 0.71174 0.0
H2422 H 0.63283 0.32012 0.66759 0.0
H2423 H 0.60573 0.3214 0.64555 0.0
H2424 H 0.62132 0.27589 0.70282 0.0
H2425 H 0.65729 0.35466 0.71681 0.0
H2426 H 0.63299 0.34764 0.70754 0.0
H2427 H 0.65175 0.34604 0.69163 0.0
C2428 C 0.5822 0.30647 0.68485 0.0
C2429 C 0.58473 0.31172 0.66584 0.0
C2430 C 0.59774 0.30582 0.69742 0.0
C2431 C 0.61612 0.31059 0.69133 0.0
C2432 C 0.61877 0.31669 0.6727 0.0
H2433 H 0.72737 0.29915 0.73574 0.0
H2434 H 0.69998 0.30612 0.71714 0.0
C2435 C 0.60322 0.31733 0.66008 0.0
C2436 C 0.63234 0.30724 0.70372 0.0
H2437 H 0.67431 0.33016 0.72685 0.0
C2438 C 0.63283 0.28778 0.70823 0.0
C2439 C 0.64741 0.32274 0.71057 0.0
C2440 C 0.64734 0.34399 0.70656 0.0
C2441 C 0.64817 0.2833 0.7191 0.0
C2442 C 0.66323 0.29882 0.72603 0.0
C2443 C 0.66272 0.31831 0.72157 0.0
C2444 C 0.67983 0.29499 0.73756 0.0
C2445 C 0.64837 0.2619 0.72251 0.0
C2446 C 0.67767 0.28676 0.75536 0.0
C2447 C 0.69328 0.28241 0.76576 0.0
C2448 C 0.71129 0.28633 0.75855 0.0
C2449 C 0.71354 0.29526 0.74115 0.0
C2450 C 0.69794 0.29951 0.7307 0.0
H2451 H 0.63846 0.25142 0.71205 0.0
H2452 H 0.66273 0.25834 0.72131 0.0
H2453 H 0.64394 0.25936 0.73734 0.0
H2454 H 0.66389 0.28361 0.76117 0.0
H2455 H 0.69123 0.27577 0.7793 0.0
H2456 H 0.99826 0.30866 0.92441 0.0
H2457 H 0.99485 0.34095 0.93983 0.0
H2458 H 1.0005 0.36583 0.88489 0.0
H2459 H 0.00438 0.33334 0.86929 0.0
H2460 H 0.02277 0.38877 0.91353 0.0
H2461 H 0.95093 0.36987 0.93882 0.0
H2462 H 0.96558 0.35315 0.94672 0.0
H2463 H 0.96018 0.35377 0.92116 0.0
C2464 C 0.99859 0.32091 0.91551 0.0
C2465 C 1.00156 0.31846 0.89561 0.0
C2466 C 0.99647 0.33935 0.92434 0.0
C2467 C 0.997 0.35571 0.91346 0.0
C2468 C 0.99985 0.35333 0.89352 0.0
H2469 H 0.97547 0.46799 0.97089 0.0
H2470 H 0.97276 0.43737 0.94924 0.0
C2471 C 0.00207 0.3348 0.88464 0.0
C2472 C 0.99599 0.3755 0.92339 0.0
H2473 H 0.97087 0.39891 0.95575 0.0
C2474 C 0.01127 0.39109 0.92251 0.0
C2475 C 0.98085 0.37865 0.93487 0.0
C2476 C 0.96337 0.36301 0.93528 0.0
C2477 C 0.0123 0.4094 0.9336 0.0
C2478 C 0.99788 0.41198 0.94627 0.0
C2479 C 0.98211 0.39678 0.94634 0.0
C2480 C 0.99917 0.43015 0.95988 0.0
C2481 C 0.02887 0.42576 0.93167 0.0
C2482 C 0.01462 0.43592 0.97348 0.0
C2483 C 0.01627 0.45343 0.9858 0.0
C2484 C 0.00233 0.46539 0.98498 0.0
C2485 C 0.98645 0.45913 0.97193 0.0
C2486 C 0.9849 0.44166 0.95948 0.0
H2487 H 0.03507 0.42384 0.91739 0.0
H2488 H 0.02472 0.44063 0.93331 0.0
H2489 H 0.04001 0.42531 0.94313 0.0
H2490 H 0.0255 0.42693 0.97447 0.0
H2491 H 0.02857 0.45769 0.99583 0.0
H2492 H 0.95971 0.77956 0.1491 0.0
H2493 H 0.93128 0.77649 0.16739 0.0
H2494 H 0.96473 0.77395 0.21998 0.0
H2495 H 0.99328 0.7772 0.20185 0.0
H2496 H 0.91475 0.7475 0.19118 0.0
H2497 H 0.93796 0.82156 0.23262 0.0
H2498 H 0.94914 0.81373 0.21124 0.0
H2499 H 0.95428 0.80464 0.23405 0.0
C2500 C 0.96101 0.77812 0.16452 0.0
C2501 C 0.97878 0.77877 0.17405 0.0
C2502 C 0.94475 0.77638 0.17495 0.0
C2503 C 0.94595 0.77536 0.19509 0.0
C2504 C 0.96354 0.7751 0.2045 0.0
H2505 H 0.84761 0.74937 0.26465 0.0
H2506 H 0.87809 0.74914 0.25037 0.0
C2507 C 0.97982 0.77682 0.19409 0.0
C2508 C 0.92886 0.77525 0.20626 0.0
H2509 H 0.90925 0.80265 0.24068 0.0
C2510 C 0.91356 0.75949 0.20208 0.0
C2511 C 0.92728 0.79106 0.22029 0.0
C2512 C 0.94294 0.80882 0.22476 0.0
C2513 C 0.89671 0.7591 0.21157 0.0
C2514 C 0.89522 0.77479 0.22577 0.0
C2515 C 0.91051 0.79055 0.22994 0.0
C2516 C 0.87752 0.77562 0.23568 0.0
C2517 C 0.88043 0.74222 0.2059 0.0
C2518 C 0.86747 0.791 0.23277 0.0
C2519 C 0.85015 0.79122 0.24098 0.0
C2520 C 0.84264 0.77613 0.25236 0.0
C2521 C 0.85307 0.76118 0.25592 0.0
C2522 C 0.87039 0.76095 0.24766 0.0
H2523 H 0.88243 0.73373 0.19198 0.0
H2524 H 0.8792 0.73181 0.21735 0.0
H2525 H 0.86695 0.74786 0.2045 0.0
H2526 H 0.87277 0.80253 0.22366 0.0
H2527 H 0.84241 0.80292 0.238 0.0
H2528 H 0.51497 0.31187 0.0841 0.0
H2529 H 0.51969 0.34209 0.06759 0.0
H2530 H 0.51197 0.37652 0.12074 0.0
H2531 H 0.507 0.34604 0.1375 0.0
H2532 H 0.49009 0.38398 0.08846 0.0
H2533 H 0.56484 0.38774 0.07122 0.0
H2534 H 0.55035 0.36398 0.0638 0.0
H2535 H 0.55414 0.37258 0.08918 0.0
C2536 C 0.51451 0.32588 0.09241 0.0
C2537 C 0.51065 0.32658 0.11214 0.0
C2538 C 0.51732 0.34317 0.08293 0.0
C2539 C 0.51643 0.36158 0.09298 0.0
C2540 C 0.51283 0.36244 0.11277 0.0
H2541 H 0.54531 0.4769 0.05043 0.0
H2542 H 0.54433 0.44672 0.06671 0.0
C2543 C 0.51007 0.34507 0.12233 0.0
C2544 C 0.51816 0.37961 0.08238 0.0
H2545 H 0.54735 0.40808 0.05421 0.0
C2546 C 0.50265 0.38935 0.08108 0.0
C2547 C 0.53459 0.38662 0.07283 0.0
C2548 C 0.552 0.37732 0.07445 0.0
C2549 C 0.503 0.40573 0.07019 0.0
C2550 C 0.51919 0.4123 0.06008 0.0
C2551 C 0.53483 0.40279 0.06169 0.0
C2552 C 0.52059 0.42984 0.04878 0.0
C2553 C 0.48617 0.41607 0.0699 0.0
C2554 C 0.50799 0.43014 0.03277 0.0
C2555 C 0.5085 0.44747 0.02334 0.0
C2556 C 0.52165 0.46473 0.0298 0.0
C2557 C 0.53488 0.46394 0.04516 0.0
C2558 C 0.53437 0.44668 0.05451 0.0
H2559 H 0.47688 0.41214 0.08184 0.0
H2560 H 0.49073 0.43248 0.07114 0.0
H2561 H 0.47773 0.41152 0.05594 0.0
H2562 H 0.49749 0.41714 0.02786 0.0
H2563 H 0.49812 0.44758 0.01157 0.0
H2564 H 0.96559 0.30061 0.41177 0.0
H2565 H 0.93598 0.30317 0.39467 0.0
H2566 H 0.95672 0.28242 0.3407 0.0
H2567 H 0.98647 0.27946 0.35778 0.0
H2568 H 0.92929 0.32586 0.36522 0.0
H2569 H 0.90599 0.24545 0.34164 0.0
H2570 H 0.92519 0.25449 0.35958 0.0
H2571 H 0.92884 0.25598 0.33424 0.0
C2572 C 0.96392 0.29646 0.39627 0.0
C2573 C 0.97847 0.28969 0.3862 0.0
C2574 C 0.94694 0.29801 0.3865 0.0
C2575 C 0.94402 0.2928 0.36644 0.0
C2576 C 0.95851 0.28618 0.35625 0.0
H2577 H 0.85075 0.32081 0.29435 0.0
H2578 H 0.88178 0.32139 0.31067 0.0
C2579 C 0.97555 0.28456 0.36604 0.0
C2580 C 0.92578 0.29449 0.35637 0.0
H2581 H 0.88692 0.26738 0.3305 0.0
C2582 C 0.92004 0.31309 0.35758 0.0
C2583 C 0.91362 0.27778 0.34659 0.0
C2584 C 0.91858 0.25725 0.34553 0.0
C2585 C 0.90245 0.31541 0.34936 0.0
C2586 C 0.8904 0.29874 0.33939 0.0
C2587 C 0.89619 0.28017 0.33809 0.0
C2588 C 0.87148 0.29997 0.33061 0.0
C2589 C 0.89673 0.33556 0.3519 0.0
C2590 C 0.85534 0.28784 0.33642 0.0
C2591 C 0.83767 0.28743 0.32707 0.0
C2592 C 0.83577 0.29911 0.31168 0.0
C2593 C 0.85178 0.31182 0.30631 0.0
C2594 C 0.86951 0.31217 0.31564 0.0
H2595 H 0.90525 0.34536 0.36392 0.0
H2596 H 0.89894 0.34291 0.33834 0.0
H2597 H 0.88157 0.33415 0.35486 0.0
H2598 H 0.8565 0.27832 0.34793 0.0
H2599 H 0.8256 0.27743 0.33146 0.0
H2600 H 0.97986 0.72566 0.57134 0.0
H2601 H 0.97629 0.69021 0.56113 0.0
H2602 H 0.9929 0.67931 0.61922 0.0
H2603 H 0.99637 0.71501 0.62964 0.0
H2604 H 0.01548 0.66653 0.58924 0.0
H2605 H 0.93935 0.63907 0.57056 0.0
H2606 H 0.94807 0.66228 0.56115 0.0
H2607 H 0.94802 0.66109 0.58697 0.0
C2608 C 0.98223 0.71565 0.58209 0.0
C2609 C 0.98844 0.72307 0.60127 0.0
C2610 C 0.98008 0.69538 0.57626 0.0
C2611 C 0.9842 0.68213 0.58945 0.0
C2612 C 0.98949 0.68931 0.60888 0.0
H2613 H 0.98398 0.55787 0.54445 0.0
H2614 H 0.97982 0.5866 0.56652 0.0
C2615 C 0.99138 0.70965 0.61482 0.0
C2616 C 0.98554 0.66156 0.58205 0.0
H2617 H 0.9609 0.62054 0.5548 0.0
C2618 C 0.00348 0.65627 0.58209 0.0
C2619 C 0.96987 0.64821 0.57276 0.0
C2620 C 0.9502 0.65284 0.57298 0.0
C2621 C 0.00634 0.63851 0.57202 0.0
C2622 C 0.99089 0.62582 0.56165 0.0
C2623 C 0.97275 0.63046 0.56262 0.0
C2624 C 0.99357 0.60842 0.54865 0.0
C2625 C 0.02597 0.6337 0.57196 0.0
C2626 C 0.00247 0.61127 0.53126 0.0
C2627 C 0.00488 0.59494 0.51873 0.0
C2628 C 0.99862 0.57555 0.52355 0.0
C2629 C 0.98951 0.57271 0.54082 0.0
C2630 C 0.98693 0.58905 0.55328 0.0
H2631 H 0.03548 0.64265 0.58381 0.0
H2632 H 0.02559 0.61766 0.57351 0.0
H2633 H 0.032 0.63699 0.55791 0.0
H2634 H 0.00746 0.62616 0.52736 0.0
H2635 H 0.01182 0.59746 0.50541 0.0
H2636 H 0.55567 0.75053 0.83415 0.0
H2637 H 0.58168 0.74613 0.81357 0.0
H2638 H 0.62166 0.76723 0.86227 0.0
H2639 H 0.59584 0.77121 0.88294 0.0
H2640 H 0.60985 0.77427 0.80407 0.0
H2641 H 0.64077 0.71835 0.84134 0.0
H2642 H 0.61777 0.72385 0.84625 0.0
H2643 H 0.63874 0.73948 0.85772 0.0
C2644 C 0.56999 0.75389 0.84055 0.0
C2645 C 0.57367 0.76112 0.86022 0.0
C2646 C 0.58485 0.75143 0.82875 0.0
C2647 C 0.60365 0.75608 0.8364 0.0
C2648 C 0.6073 0.76306 0.8561 0.0
H2649 H 0.70592 0.79357 0.78047 0.0
H2650 H 0.67568 0.79057 0.7953 0.0
C2651 C 0.59248 0.76543 0.86791 0.0
C2652 C 0.61954 0.7549 0.82362 0.0
H2653 H 0.66067 0.73697 0.81997 0.0
C2654 C 0.62084 0.7659 0.80741 0.0
C2655 C 0.63377 0.74376 0.82774 0.0
C2656 C 0.63261 0.73053 0.84409 0.0
C2657 C 0.63633 0.76672 0.79571 0.0
C2658 C 0.65115 0.75661 0.80059 0.0
C2659 C 0.64946 0.74494 0.81632 0.0
C2660 C 0.66885 0.75847 0.7901 0.0
C2661 C 0.6366 0.77838 0.77822 0.0
C2662 C 0.67529 0.74143 0.78237 0.0
C2663 C 0.69276 0.74308 0.77403 0.0
C2664 C 0.7042 0.76183 0.7733 0.0
C2665 C 0.69747 0.7789 0.7806 0.0
C2666 C 0.68007 0.77722 0.78903 0.0
H2667 H 0.62209 0.77945 0.77287 0.0
H2668 H 0.64438 0.79373 0.78231 0.0
H2669 H 0.6437 0.77151 0.7662 0.0
H2670 H 0.66694 0.7268 0.78309 0.0
H2671 H 0.69747 0.7296 0.76861 0.0
H2672 H 0.3957 0.54368 0.6864 0.0
H2673 H 0.4092 0.54725 0.65459 0.0
H2674 H 0.4651 0.56163 0.68271 0.0
H2675 H 0.4519 0.55794 0.71419 0.0
H2676 H 0.43715 0.57929 0.63846 0.0
H2677 H 0.46304 0.50869 0.64668 0.0
H2678 H 0.44487 0.51645 0.66103 0.0
H2679 H 0.46925 0.52712 0.66706 0.0
C2680 C 0.41082 0.54804 0.68579 0.0
C2681 C 0.42275 0.55021 0.70277 0.0
C2682 C 0.41851 0.55004 0.66763 0.0
C2683 C 0.43818 0.55437 0.66632 0.0
C2684 C 0.44992 0.558 0.68339 0.0
H2685 H 0.51349 0.58001 0.57377 0.0
H2686 H 0.49363 0.58251 0.60144 0.0
C2687 C 0.44233 0.55586 0.70137 0.0
C2688 C 0.4468 0.55328 0.6473 0.0
H2689 H 0.47527 0.52737 0.62145 0.0
C2690 C 0.44535 0.56786 0.63459 0.0
C2691 C 0.45729 0.53821 0.6422 0.0
C2692 C 0.45861 0.5216 0.65485 0.0
C2693 C 0.45466 0.56809 0.61714 0.0
C2694 C 0.46589 0.55352 0.61251 0.0
C2695 C 0.46682 0.53865 0.62503 0.0
C2696 C 0.47676 0.5531 0.59477 0.0
C2697 C 0.45225 0.58377 0.60375 0.0
C2698 C 0.47413 0.53569 0.58198 0.0
C2699 C 0.48565 0.53413 0.56648 0.0
C2700 C 0.49997 0.55001 0.56324 0.0
C2701 C 0.50245 0.56761 0.57581 0.0
C2702 C 0.49098 0.56911 0.59151 0.0
H2703 H 0.43933 0.59007 0.60652 0.0
H2704 H 0.46456 0.5961 0.6062 0.0
H2705 H 0.45147 0.57763 0.58831 0.0
H2706 H 0.46343 0.52305 0.58428 0.0
H2707 H 0.48367 0.52019 0.55738 0.0
H2708 H 0.76014 0.1373 0.95336 0.0
H2709 H 0.75812 0.15509 0.92429 0.0
H2710 H 0.79888 0.20447 0.95194 0.0
H2711 H 0.79986 0.18735 0.98124 0.0
H2712 H 0.77151 0.21793 0.93711 0.0
H2713 H 0.79173 0.16415 0.8812 0.0
H2714 H 0.77151 0.1535 0.89331 0.0
H2715 H 0.79397 0.16121 0.90675 0.0
C2716 C 0.76879 0.15185 0.95301 0.0
C2717 C 0.78013 0.16105 0.96939 0.0
C2718 C 0.76774 0.16196 0.9364 0.0
C2719 C 0.77855 0.18105 0.93579 0.0
C2720 C 0.79035 0.18982 0.95204 0.0
H2721 H 0.79584 0.24088 0.83121 0.0
H2722 H 0.79905 0.22307 0.85995 0.0
C2723 C 0.79095 0.18002 0.96875 0.0
C2724 C 0.77685 0.19263 0.91889 0.0
H2725 H 0.77907 0.19115 0.86975 0.0
C2726 C 0.77333 0.2121 0.9224 0.0
C2727 C 0.7794 0.18514 0.89971 0.0
C2728 C 0.78456 0.16494 0.89503 0.0
C2729 C 0.77248 0.22435 0.90736 0.0
C2730 C 0.7742 0.21658 0.88807 0.0
C2731 C 0.77761 0.19707 0.88453 0.0
C2732 C 0.77273 0.22844 0.87136 0.0
C2733 C 0.77037 0.24567 0.91252 0.0
C2734 C 0.75698 0.23755 0.86829 0.0
C2735 C 0.75547 0.24827 0.85224 0.0
C2736 C 0.76934 0.2494 0.83866 0.0
C2737 C 0.78502 0.24023 0.84159 0.0
C2738 C 0.78679 0.22999 0.85792 0.0
H2739 H 0.77572 0.25094 0.9277 0.0
H2740 H 0.77805 0.25578 0.90272 0.0
H2741 H 0.75519 0.24675 0.9113 0.0
H2742 H 0.74564 0.23604 0.87805 0.0
H2743 H 0.74308 0.25494 0.85002 0.0
H2744 H 0.12065 0.49268 0.18717 0.0
H2745 H 0.10675 0.48707 0.15373 0.0
H2746 H 0.05358 0.46032 0.17419 0.0
H2747 H 0.06724 0.46609 0.20753 0.0
H2748 H 0.07368 0.44955 0.12804 0.0
H2749 H 0.05692 0.52278 0.15636 0.0
H2750 H 0.07793 0.51448 0.16492 0.0
H2751 H 0.05533 0.50306 0.17207 0.0
C2752 C 0.10628 0.48475 0.18441 0.0
C2753 C 0.09488 0.48011 0.19986 0.0
C2754 C 0.09838 0.48151 0.16533 0.0
C2755 C 0.07916 0.47338 0.16163 0.0
C2756 C 0.06847 0.46651 0.17682 0.0
H2757 H 0.99896 0.47242 0.06279 0.0
H2758 H 0.01679 0.46194 0.09001 0.0
C2759 C 0.07625 0.46994 0.19584 0.0
C2760 C 0.06922 0.47674 0.14352 0.0
H2761 H 0.04478 0.50989 0.12515 0.0
C2762 C 0.06739 0.46272 0.12727 0.0
C2763 C 0.06109 0.49398 0.14275 0.0
C2764 C 0.06287 0.50954 0.15987 0.0
C2765 C 0.05758 0.46565 0.11003 0.0
C2766 C 0.04929 0.48283 0.10937 0.0
C2767 C 0.05114 0.49672 0.12573 0.0
C2768 C 0.03935 0.48754 0.09172 0.0
C2769 C 0.0565 0.45067 0.09257 0.0
C2770 C 0.04598 0.50546 0.08397 0.0
C2771 C 0.03569 0.5116 0.06892 0.0
C2772 C 0.01869 0.49981 0.06105 0.0
C2773 C 0.0121 0.48169 0.06856 0.0
C2774 C 0.02237 0.4756 0.0839 0.0
H2775 H 0.06686 0.44059 0.09415 0.0
H2776 H 0.04215 0.44148 0.09076 0.0
H2777 H 0.05908 0.45828 0.07919 0.0
H2778 H 0.05892 0.515 0.08994 0.0
H2779 H 0.04089 0.52586 0.06372 0.0
H2780 H 0.75522 0.90347 0.45802 0.0
H2781 H 0.75822 0.887 0.42568 0.0
H2782 H 0.7736 0.83688 0.45193 0.0
H2783 H 0.77002 0.85285 0.48404 0.0
H2784 H 0.78684 0.87327 0.40757 0.0
H2785 H 0.72932 0.81015 0.41596 0.0
H2786 H 0.73392 0.83228 0.43276 0.0
H2787 H 0.74785 0.81309 0.4347 0.0
C2788 C 0.75931 0.88897 0.45685 0.0
C2789 C 0.76214 0.87935 0.47355 0.0
C2790 C 0.76103 0.87958 0.43839 0.0
C2791 C 0.76569 0.86047 0.43634 0.0
C2792 C 0.76944 0.85133 0.45308 0.0
H2793 H 0.79836 0.80127 0.32899 0.0
H2794 H 0.79862 0.81903 0.36128 0.0
C2795 C 0.7675 0.86057 0.47146 0.0
C2796 C 0.76622 0.84984 0.41678 0.0
H2797 H 0.74777 0.80674 0.38878 0.0
C2798 C 0.77826 0.85876 0.40342 0.0
C2799 C 0.75481 0.83101 0.41124 0.0
C2800 C 0.74061 0.82115 0.42434 0.0
C2801 C 0.77935 0.84926 0.38477 0.0
C2802 C 0.76844 0.83011 0.37951 0.0
C2803 C 0.75631 0.8213 0.39285 0.0
C2804 C 0.76859 0.81924 0.35998 0.0
C2805 C 0.79179 0.8601 0.37074 0.0
C2806 C 0.75159 0.8128 0.34874 0.0
C2807 C 0.75134 0.80234 0.33049 0.0
C2808 C 0.76814 0.79811 0.32295 0.0
C2809 C 0.78518 0.80438 0.33428 0.0
C2810 C 0.78538 0.81471 0.35269 0.0
H2811 H 0.79494 0.87639 0.37497 0.0
H2812 H 0.80539 0.85464 0.37067 0.0
H2813 H 0.7851 0.85743 0.35577 0.0
H2814 H 0.73843 0.81602 0.35403 0.0
H2815 H 0.73794 0.79782 0.32221 0.0
H2816 H 0.42988 0.53071 0.79096 0.0
H2817 H 0.44134 0.5209 0.82166 0.0
H2818 H 0.38794 0.52504 0.84572 0.0
H2819 H 0.37623 0.53489 0.81481 0.0
H2820 H 0.42094 0.54519 0.86922 0.0
H2821 H 0.42631 0.46728 0.84504 0.0
H2822 H 0.43721 0.48522 0.82972 0.0
H2823 H 0.41209 0.48141 0.83169 0.0
C2824 C 0.42047 0.52942 0.8027 0.0
C2825 C 0.40211 0.53353 0.80043 0.0
C2826 C 0.42703 0.52368 0.82022 0.0
C2827 C 0.41539 0.52192 0.83586 0.0
C2828 C 0.39707 0.52613 0.83374 0.0
H2829 H 0.44725 0.50593 0.95655 0.0
H2830 H 0.42855 0.50845 0.92675 0.0
C2831 C 0.39042 0.53177 0.81611 0.0
C2832 C 0.42289 0.5167 0.85465 0.0
H2833 H 0.44251 0.48104 0.87532 0.0
C2834 C 0.4254 0.53106 0.87068 0.0
C2835 C 0.4288 0.4983 0.85644 0.0
C2836 C 0.42584 0.48207 0.83986 0.0
C2837 C 0.43442 0.52787 0.88823 0.0
C2838 C 0.44068 0.50959 0.88993 0.0
C2839 C 0.43771 0.49502 0.87402 0.0
C2840 C 0.45117 0.50576 0.90776 0.0
C2841 C 0.43795 0.54447 0.90448 0.0
C2842 C 0.46977 0.50233 0.90689 0.0
C2843 C 0.48039 0.5006 0.92387 0.0
C2844 C 0.47258 0.50228 0.942 0.0
C2845 C 0.45366 0.50469 0.94276 0.0
C2846 C 0.44302 0.5063 0.92577 0.0
H2847 H 0.43645 0.55901 0.89926 0.0
H2848 H 0.42752 0.54117 0.91557 0.0
H2849 H 0.4523 0.54588 0.91159 0.0
H2850 H 0.47631 0.50173 0.89314 0.0
H2851 H 0.49494 0.49876 0.92287 0.0
H2852 H 0.79708 0.15627 0.07928 0.0
H2853 H 0.80007 0.16804 0.1141 0.0
H2854 H 0.7564 0.20257 0.10513 0.0
H2855 H 0.75339 0.19108 0.0708 0.0
H2856 H 0.80956 0.20958 0.1273 0.0
H2857 H 0.74157 0.17553 0.15426 0.0
H2858 H 0.75074 0.16562 0.13238 0.0
H2859 H 0.73862 0.1864 0.13194 0.0
C2860 C 0.78793 0.16608 0.08489 0.0
C2861 C 0.77516 0.17294 0.07235 0.0
C2862 C 0.78963 0.17276 0.1047 0.0
C2863 C 0.77824 0.18592 0.11216 0.0
C2864 C 0.76504 0.19211 0.09974 0.0
H2865 H 0.76633 0.27255 0.20362 0.0
H2866 H 0.76379 0.24848 0.17476 0.0
C2867 C 0.76351 0.1857 0.08006 0.0
C2868 C 0.78139 0.19534 0.13228 0.0
H2869 H 0.75764 0.20609 0.17216 0.0
C2870 C 0.79842 0.20849 0.13737 0.0
C2871 C 0.76673 0.19396 0.14521 0.0
C2872 C 0.74844 0.17946 0.14076 0.0
C2873 C 0.80074 0.22132 0.15453 0.0
C2874 C 0.78571 0.22061 0.16702 0.0
C2875 C 0.76904 0.20673 0.16241 0.0
C2876 C 0.78684 0.23465 0.18462 0.0
C2877 C 0.81882 0.23627 0.15858 0.0
C2878 C 0.80047 0.23463 0.19965 0.0
C2879 C 0.80201 0.2484 0.2159 0.0
C2880 C 0.7897 0.26216 0.21757 0.0
C2881 C 0.77584 0.26199 0.20268 0.0
C2882 C 0.77442 0.24829 0.18627 0.0
H2883 H 0.8271 0.23786 0.1455 0.0
H2884 H 0.81585 0.25109 0.16388 0.0
H2885 H 0.82769 0.2313 0.17002 0.0
H2886 H 0.8099 0.22395 0.19883 0.0
H2887 H 0.81264 0.24796 0.22735 0.0
H2888 H 0.0844 0.52051 0.28382 0.0
H2889 H 0.06717 0.52577 0.31266 0.0
H2890 H 0.11278 0.51169 0.34827 0.0
H2891 H 0.13048 0.50711 0.31932 0.0
H2892 H 0.05466 0.49741 0.33484 0.0
H2893 H 0.10078 0.55917 0.38025 0.0
H2894 H 0.10434 0.55322 0.35495 0.0
H2895 H 0.11277 0.53913 0.37313 0.0
C2896 C 0.09095 0.51894 0.29783 0.0
C2897 C 0.10875 0.51335 0.29938 0.0
C2898 C 0.08107 0.52194 0.3143 0.0
C2899 C 0.08869 0.51922 0.33263 0.0
C2900 C 0.10679 0.5143 0.33432 0.0
H2901 H 0.04448 0.49865 0.44255 0.0
H2902 H 0.06094 0.49939 0.41252 0.0
C2903 C 0.11686 0.5116 0.3178 0.0
C2904 C 0.07687 0.51964 0.34952 0.0
H2905 H 0.07585 0.54012 0.39604 0.0
C2906 C 0.0592 0.50695 0.34813 0.0
C2907 C 0.08281 0.53211 0.36683 0.0
C2908 C 0.10113 0.54682 0.36885 0.0
C2909 C 0.04754 0.50602 0.36376 0.0
C2910 C 0.05374 0.51803 0.38118 0.0
C2911 C 0.07123 0.53093 0.38256 0.0
C2912 C 0.04275 0.51657 0.39854 0.0
C2913 C 0.0289 0.49184 0.36186 0.0
C2914 C 0.02686 0.52568 0.40031 0.0
C2915 C 0.01739 0.52531 0.4175 0.0
C2916 C 0.02379 0.51582 0.43299 0.0
C2917 C 0.03928 0.5061 0.43082 0.0
C2918 C 0.04873 0.50655 0.41375 0.0
H2919 H 0.02667 0.48256 0.34771 0.0
H2920 H 0.02814 0.4819 0.37373 0.0
H2921 H 0.01723 0.50039 0.36329 0.0
H2922 H 0.02213 0.53349 0.38863 0.0
H2923 H 0.00554 0.53297 0.4189 0.0
H2924 H 0.74214 0.83324 0.56127 0.0
H2925 H 0.73884 0.82023 0.59273 0.0
H2926 H 0.75454 0.87963 0.6213 0.0
H2927 H 0.75783 0.89296 0.58947 0.0
H2928 H 0.7713 0.82702 0.62011 0.0
H2929 H 0.70823 0.85177 0.65071 0.0
H2930 H 0.71138 0.84972 0.62494 0.0
H2931 H 0.72523 0.86982 0.64041 0.0
C2932 C 0.74458 0.84366 0.5742 0.0
C2933 C 0.75045 0.86414 0.57287 0.0
C2934 C 0.74265 0.83617 0.59219 0.0
C2935 C 0.74648 0.84892 0.60935 0.0
C2936 C 0.75133 0.86954 0.60819 0.0
H2937 H 0.77666 0.80369 0.71831 0.0
H2938 H 0.77486 0.82472 0.6918 0.0
C2939 C 0.7532 0.87714 0.59003 0.0
C2940 C 0.74736 0.84007 0.62812 0.0
H2941 H 0.72444 0.83227 0.66963 0.0
C2942 C 0.76116 0.82832 0.63102 0.0
C2943 C 0.73402 0.84167 0.64222 0.0
C2944 C 0.71876 0.85382 0.63953 0.0
C2945 C 0.76181 0.81785 0.64747 0.0
C2946 C 0.74842 0.81931 0.66157 0.0
C2947 C 0.73471 0.83124 0.65882 0.0
C2948 C 0.74831 0.808 0.6789 0.0
C2949 C 0.77648 0.80478 0.64935 0.0
C2950 C 0.73371 0.79192 0.68075 0.0
C2951 C 0.73465 0.77989 0.696 0.0
C2952 C 0.75015 0.78387 0.70969 0.0
C2953 C 0.76444 0.80034 0.7081 0.0
C2954 C 0.76349 0.81233 0.6929 0.0
H2955 H 0.78324 0.80219 0.6355 0.0
H2956 H 0.78766 0.81205 0.6605 0.0
H2957 H 0.77011 0.79016 0.65406 0.0
H2958 H 0.72189 0.7883 0.67006 0.0
H2959 H 0.72343 0.76732 0.69689 0.0
H2960 H 0.67877 0.41902 0.503 0.0
H2961 H 0.65877 0.44364 0.51043 0.0
H2962 H 0.70761 0.48622 0.53373 0.0
H2963 H 0.72782 0.46176 0.52597 0.0
H2964 H 0.6527 0.46472 0.54482 0.0
H2965 H 0.68489 0.51528 0.49205 0.0
H2966 H 0.68909 0.49016 0.49248 0.0
H2967 H 0.70087 0.50937 0.51039 0.0
C2968 C 0.68525 0.43356 0.50983 0.0
C2969 C 0.70488 0.43852 0.51373 0.0
C2970 C 0.67381 0.44761 0.51409 0.0
C2971 C 0.68176 0.46684 0.52233 0.0
C2972 C 0.70126 0.47158 0.52701 0.0
H2973 H 0.59921 0.54321 0.55403 0.0
H2974 H 0.62846 0.5296 0.55662 0.0
C2975 C 0.71275 0.45756 0.52266 0.0
C2976 C 0.66954 0.48194 0.52532 0.0
H2977 H 0.65959 0.52455 0.50857 0.0
C2978 C 0.65432 0.47797 0.53713 0.0
C2979 C 0.6717 0.49912 0.51513 0.0
C2980 C 0.68741 0.50375 0.50167 0.0
C2981 C 0.64071 0.49026 0.53843 0.0
C2982 C 0.64265 0.50724 0.52794 0.0
C2983 C 0.6583 0.51165 0.51675 0.0
C2984 C 0.62726 0.51882 0.52621 0.0
C2985 C 0.62379 0.48429 0.55006 0.0
C2986 C 0.61764 0.51833 0.50807 0.0
C2987 C 0.60116 0.52623 0.50654 0.0
C2988 C 0.59403 0.53476 0.52313 0.0
C2989 C 0.60442 0.53664 0.54104 0.0
C2990 C 0.621 0.52875 0.54256 0.0
H2991 H 0.62285 0.46897 0.55444 0.0
H2992 H 0.62481 0.49466 0.56343 0.0
H2993 H 0.61054 0.48511 0.5416 0.0
H2994 H 0.62228 0.51083 0.49525 0.0
H2995 H 0.59345 0.52468 0.49253 0.0
H2996 H 0.22346 0.10279 0.48899 0.0
H2997 H 0.19398 0.07905 0.48967 0.0
H2998 H 0.16244 0.12344 0.47299 0.0
H2999 H 0.19174 0.14718 0.47199 0.0
H3000 H 0.16444 0.08213 0.51273 0.0
H3001 H 0.13958 0.07565 0.43528 0.0
H3002 H 0.1635 0.08653 0.44377 0.0
H3003 H 0.14499 0.10096 0.44586 0.0
C3004 C 0.21028 0.10747 0.48521 0.0
C3005 C 0.21006 0.12695 0.48037 0.0
C3006 C 0.19342 0.09386 0.48567 0.0
C3007 C 0.17599 0.09935 0.48115 0.0
C3008 C 0.17572 0.1187 0.47613 0.0
H3009 H 0.0646 0.05476 0.51448 0.0
H3010 H 0.09722 0.07122 0.51241 0.0
C3011 C 0.19254 0.13231 0.47567 0.0
C3012 C 0.15802 0.08527 0.48262 0.0
H3013 H 0.11663 0.06379 0.45741 0.0
C3014 C 0.15407 0.07794 0.50058 0.0
C3015 C 0.14459 0.07954 0.46671 0.0
C3016 C 0.14843 0.08591 0.44677 0.0
C3017 C 0.13677 0.06571 0.50323 0.0
C3018 C 0.12291 0.06092 0.4876 0.0
C3019 C 0.12717 0.06759 0.46945 0.0
C3020 C 0.1036 0.04985 0.48995 0.0
C3021 C 0.13351 0.05805 0.52278 0.0
C3022 C 0.09619 0.03239 0.47793 0.0
C3023 C 0.07744 0.02297 0.47902 0.0
C3024 C 0.06574 0.03096 0.49206 0.0
C3025 C 0.07331 0.04815 0.50439 0.0
C3026 C 0.09201 0.05754 0.50329 0.0
H3027 H 0.14705 0.05759 0.53089 0.0
H3028 H 0.12601 0.06818 0.53154 0.0
H3029 H 0.12476 0.04292 0.52128 0.0
H3030 H 0.10484 0.02624 0.46746 0.0
H3031 H 0.07196 0.00979 0.46929 0.0
H3032 H 0.14982 0.9407 0.77593 0.0
H3033 H 0.16901 0.91471 0.77134 0.0
H3034 H 0.21725 0.95899 0.76216 0.0
H3035 H 0.19814 0.98507 0.76664 0.0
H3036 H 0.21236 0.92472 0.73526 0.0
H3037 H 0.2099 0.90495 0.81116 0.0
H3038 H 0.18716 0.90435 0.79916 0.0
H3039 H 0.20333 0.92758 0.8039 0.0
C3040 C 0.16448 0.94492 0.77284 0.0
C3041 C 0.17245 0.965 0.77173 0.0
C3042 C 0.17548 0.93004 0.77035 0.0
C3043 C 0.19467 0.93492 0.76673 0.0
C3044 C 0.20251 0.95488 0.76507 0.0
H3045 H 0.27456 0.85267 0.77666 0.0
H3046 H 0.26004 0.88253 0.77925 0.0
C3047 C 0.19156 0.96977 0.76763 0.0
C3048 C 0.20654 0.91922 0.76468 0.0
H3049 H 0.22273 0.88348 0.78874 0.0
C3050 C 0.21471 0.91577 0.74698 0.0
C3051 C 0.20988 0.90775 0.78007 0.0
C3052 C 0.20227 0.91141 0.79972 0.0
C3053 C 0.22561 0.90075 0.74407 0.0
C3054 C 0.2283 0.88874 0.75921 0.0
C3055 C 0.22061 0.89261 0.7771 0.0
C3056 C 0.23822 0.87147 0.75651 0.0
C3057 C 0.23421 0.89791 0.72483 0.0
C3058 C 0.23091 0.85539 0.74279 0.0
C3059 C 0.23914 0.83836 0.74127 0.0
C3060 C 0.25491 0.83694 0.7535 0.0
C3061 C 0.26257 0.85331 0.76689 0.0
C3062 C 0.25421 0.87034 0.76847 0.0
H3063 H 0.23552 0.91155 0.71707 0.0
H3064 H 0.24838 0.89386 0.72675 0.0
H3065 H 0.22501 0.88568 0.71553 0.0
H3066 H 0.2184 0.85572 0.73364 0.0
H3067 H 0.23279 0.82608 0.73082 0.0
H3068 H 0.31532 0.88191 0.9711 0.0
H3069 H 0.3467 0.90233 0.97061 0.0
H3070 H 0.32458 0.95453 0.99035 0.0
H3071 H 0.29319 0.93445 0.99063 0.0
H3072 H 0.35027 0.96095 0.96118 0.0
H3073 H 0.37808 0.9238 0.02156 0.0
H3074 H 0.36775 0.90735 0.00077 0.0
H3075 H 0.35319 0.921 0.01499 0.0
C3076 C 0.31707 0.89776 0.97516 0.0
C3077 C 0.30176 0.90648 0.98114 0.0
C3078 C 0.33503 0.90938 0.97494 0.0
C3079 C 0.33797 0.92984 0.98077 0.0
C3080 C 0.32259 0.93873 0.98589 0.0
H3081 H 0.44235 0.00539 0.02477 0.0
H3082 H 0.40983 0.98771 0.01937 0.0
C3083 C 0.30466 0.92718 0.98609 0.0
C3084 C 0.35717 0.94193 0.98252 0.0
H3085 H 0.39981 0.94767 0.00776 0.0
C3086 C 0.36115 0.95806 0.97131 0.0
C3087 C 0.37117 0.93827 0.99602 0.0
C3088 C 0.36736 0.92179 0.00917 0.0
C3089 C 0.37888 0.97058 0.97314 0.0
C3090 C 0.39299 0.96665 0.98635 0.0
C3091 C 0.38896 0.95058 0.9976 0.0
C3092 C 0.41207 0.97903 0.98892 0.0
C3093 C 0.38223 0.98815 0.96127 0.0
C3094 C 0.42402 0.98019 0.97351 0.0
C3095 C 0.44263 0.99035 0.97651 0.0
C3096 C 0.44965 0.99935 0.99504 0.0
C3097 C 0.43745 0.99859 0.01032 0.0
C3098 C 0.41885 0.98849 0.00728 0.0
H3099 H 0.36875 0.99204 0.95578 0.0
H3100 H 0.39065 0.00139 0.96993 0.0
H3101 H 0.39021 0.98442 0.94857 0.0
H3102 H 0.41917 0.97267 0.95932 0.0
H3103 H 0.45164 0.99054 0.96443 0.0
H3104 H 0.84997 0.55739 0.75057 0.0
H3105 H 0.82858 0.57839 0.73908 0.0
H3106 H 0.86485 0.63023 0.76843 0.0
H3107 H 0.88669 0.60928 0.77941 0.0
H3108 H 0.80924 0.59869 0.76181 0.0
H3109 H 0.85216 0.65108 0.71812 0.0
H3110 H 0.8597 0.6288 0.72505 0.0
H3111 H 0.8634 0.65099 0.74171 0.0
C3112 C 0.8536 0.57333 0.75422 0.0
C3113 C 0.86995 0.58173 0.76593 0.0
C3114 C 0.84136 0.5853 0.74764 0.0
C3115 C 0.84515 0.60591 0.75275 0.0
C3116 C 0.86184 0.61444 0.76389 0.0
H3117 H 0.77163 0.68644 0.7777 0.0
H3118 H 0.78923 0.65913 0.77609 0.0
C3119 C 0.87426 0.60245 0.77026 0.0
C3120 C 0.83066 0.61804 0.74832 0.0
H3121 H 0.82428 0.6614 0.73057 0.0
C3122 C 0.81247 0.61223 0.75467 0.0
C3123 C 0.83471 0.63553 0.73873 0.0
C3124 C 0.8535 0.64184 0.73032 0.0
C3125 C 0.79854 0.62393 0.75259 0.0
C3126 C 0.80305 0.64216 0.74435 0.0
C3127 C 0.82089 0.64748 0.73706 0.0
C3128 C 0.79017 0.65677 0.74479 0.0
C3129 C 0.7792 0.61676 0.75948 0.0
C3130 C 0.78472 0.66446 0.72772 0.0
C3131 C 0.77468 0.68017 0.72862 0.0
C3132 C 0.77013 0.6885 0.74665 0.0
C3133 C 0.77483 0.68018 0.7636 0.0
C3134 C 0.78484 0.66452 0.76269 0.0
H3135 H 0.77607 0.60027 0.75894 0.0
H3136 H 0.77868 0.62281 0.77478 0.0
H3137 H 0.76804 0.62177 0.7506 0.0
H3138 H 0.7888 0.65874 0.71378 0.0
H3139 H 0.77134 0.68645 0.71536 0.0
H3140 H 0.796 0.59482 0.0083 0.0
H3141 H 0.82234 0.57691 0.01154 0.0
H3142 H 0.86141 0.62996 0.00229 0.0
H3143 H 0.83517 0.64804 0.99918 0.0
H3144 H 0.84813 0.57064 0.98351 0.0
H3145 H 0.88486 0.61155 0.05111 0.0
H3146 H 0.86085 0.61302 0.04369 0.0
H3147 H 0.88019 0.62713 0.0326 0.0
C3148 C 0.81022 0.60277 0.00719 0.0
C3149 C 0.81348 0.6229 0.00356 0.0
C3150 C 0.82526 0.59247 0.00899 0.0
C3151 C 0.84388 0.60212 0.00735 0.0
C3152 C 0.84721 0.62229 0.00395 0.0
H3153 H 0.94364 0.5519 0.98261 0.0
H3154 H 0.91571 0.5677 0.98131 0.0
C3155 C 0.83217 0.63259 0.00211 0.0
C3156 C 0.85971 0.59087 0.00837 0.0
H3157 H 0.90121 0.58925 0.03353 0.0
C3158 C 0.8597 0.57466 0.9945 0.0
C3159 C 0.87472 0.596 0.0228 0.0
C3160 C 0.87515 0.61276 0.03852 0.0
C3161 C 0.87448 0.56372 0.99444 0.0
C3162 C 0.88972 0.56919 0.00855 0.0
C3163 C 0.88956 0.58514 0.02266 0.0
C3164 C 0.90608 0.55868 0.00884 0.0
C3165 C 0.8736 0.54627 0.97938 0.0
C3166 C 0.90998 0.54838 0.02476 0.0
C3167 C 0.9259 0.53926 0.02549 0.0
C3168 C 0.9383 0.54048 0.01042 0.0
C3169 C 0.93426 0.5506 0.99439 0.0
C3170 C 0.91829 0.55961 0.9936 0.0
H3171 H 0.85916 0.54126 0.97244 0.0
H3172 H 0.88326 0.55068 0.96787 0.0
H3173 H 0.87822 0.53357 0.98593 0.0
H3174 H 0.90078 0.54754 0.0367 0.0
H3175 H 0.92873 0.53166 0.03807 0.0
H3176 H 0.13653 0.0885 0.79989 0.0
H3177 H 0.15711 0.12067 0.79866 0.0
H3178 H 0.20463 0.0912 0.79021 0.0
H3179 H 0.18419 0.05894 0.79113 0.0
H3180 H 0.18997 0.14021 0.82015 0.0
H3181 H 0.20358 0.12289 0.7429 0.0
H3182 H 0.18524 0.10803 0.75488 0.0
H3183 H 0.20939 0.10509 0.75864 0.0
C3184 C 0.15139 0.08882 0.79794 0.0
C3185 C 0.15861 0.07103 0.79539 0.0
C3186 C 0.16314 0.10725 0.79725 0.0
C3187 C 0.18232 0.10832 0.79395 0.0
C3188 C 0.18978 0.09071 0.79234 0.0
H3189 H 0.26955 0.21515 0.80259 0.0
H3190 H 0.24929 0.18383 0.80836 0.0
C3191 C 0.17806 0.07226 0.79298 0.0
C3192 C 0.19435 0.12776 0.79148 0.0
H3193 H 0.22099 0.15284 0.7589 0.0
C3194 C 0.19677 0.14299 0.80677 0.0
C3195 C 0.20296 0.13147 0.77389 0.0
C3196 C 0.20006 0.1161 0.75656 0.0
C3197 C 0.20778 0.16176 0.80504 0.0
C3198 C 0.21681 0.16526 0.78764 0.0
C3199 C 0.2142 0.15009 0.77229 0.0
C3200 C 0.22875 0.18466 0.78481 0.0
C3201 C 0.2093 0.17779 0.82167 0.0
C3202 C 0.22413 0.19538 0.76947 0.0
C3203 C 0.23576 0.21313 0.76605 0.0
C3204 C 0.25226 0.22052 0.7779 0.0
C3205 C 0.25686 0.20985 0.79331 0.0
C3206 C 0.24522 0.19204 0.7967 0.0
H3207 H 0.19784 0.17447 0.83172 0.0
H3208 H 0.22298 0.17886 0.83005 0.0
H3209 H 0.20879 0.19247 0.81628 0.0
H3210 H 0.21156 0.18992 0.76003 0.0
H3211 H 0.23197 0.22091 0.75393 0.0
H3212 H 0.366 0.99682 0.30681 0.0
H3213 H 0.34542 0.96454 0.3065 0.0
H3214 H 0.39173 0.93526 0.29105 0.0
H3215 H 0.41266 0.96768 0.29228 0.0
H3216 H 0.33531 0.93951 0.27624 0.0
H3217 H 0.36962 0.90098 0.33088 0.0
H3218 H 0.37637 0.92729 0.32891 0.0
H3219 H 0.38537 0.90953 0.31289 0.0
C3220 C 0.37187 0.98347 0.30372 0.0
C3221 C 0.39088 0.98469 0.29953 0.0
C3222 C 0.3601 0.96504 0.30353 0.0
C3223 C 0.36701 0.94743 0.29888 0.0
C3224 C 0.38616 0.94859 0.29517 0.0
H3225 H 0.29617 0.83882 0.24726 0.0
H3226 H 0.31741 0.87076 0.25396 0.0
C3227 C 0.39809 0.9671 0.29576 0.0
C3228 C 0.35369 0.92817 0.29616 0.0
H3229 H 0.34599 0.8806 0.3089 0.0
C3230 C 0.33758 0.9267 0.28355 0.0
C3231 C 0.35651 0.91149 0.30583 0.0
C3232 C 0.3728 0.91244 0.32054 0.0
C3233 C 0.32435 0.90902 0.28015 0.0
C3234 C 0.32766 0.89205 0.28904 0.0
C3235 C 0.34359 0.89356 0.30191 0.0
C3236 C 0.31484 0.87259 0.28504 0.0
C3237 C 0.30681 0.90889 0.26735 0.0
C3238 C 0.30678 0.86267 0.30034 0.0
C3239 C 0.29486 0.8442 0.29659 0.0
C3240 C 0.29071 0.83539 0.27744 0.0
C3241 C 0.29881 0.84536 0.26215 0.0
C3242 C 0.31092 0.86367 0.26595 0.0
H3243 H 0.30349 0.92408 0.26701 0.0
H3244 H 0.30912 0.90337 0.25228 0.0
H3245 H 0.2944 0.89907 0.27235 0.0
H3246 H 0.30968 0.86924 0.3152 0.0
H3247 H 0.28888 0.83686 0.30868 0.0
H3248 H 0.52529 0.32545 0.5943 0.0
H3249 H 0.52428 0.35474 0.57711 0.0
H3250 H 0.52391 0.3902 0.6316 0.0
H3251 H 0.52418 0.36053 0.64898 0.0
H3252 H 0.4987 0.39841 0.60561 0.0
H3253 H 0.56636 0.39955 0.57101 0.0
H3254 H 0.55087 0.37612 0.56524 0.0
H3255 H 0.55951 0.38391 0.59002 0.0
C3256 C 0.52515 0.3395 0.60268 0.0
C3257 C 0.52497 0.34074 0.62302 0.0
C3258 C 0.5247 0.35628 0.59281 0.0
C3259 C 0.52447 0.37478 0.60305 0.0
C3260 C 0.52423 0.37609 0.6234 0.0
H3261 H 0.54625 0.48527 0.54955 0.0
H3262 H 0.54769 0.45679 0.56777 0.0
C3263 C 0.52443 0.35918 0.63332 0.0
C3264 C 0.52384 0.39252 0.59237 0.0
H3265 H 0.54541 0.41904 0.55763 0.0
C3266 C 0.509 0.40305 0.59525 0.0
C3267 C 0.53743 0.39874 0.57903 0.0
C3268 C 0.55454 0.38911 0.5763 0.0
C3269 C 0.50718 0.41939 0.58489 0.0
C3270 C 0.52021 0.42494 0.57079 0.0
C3271 C 0.53523 0.41461 0.56819 0.0
C3272 C 0.51911 0.44196 0.55919 0.0
C3273 C 0.49156 0.43077 0.5895 0.0
C3274 C 0.50268 0.44298 0.54788 0.0
C3275 C 0.5017 0.45948 0.53758 0.0
C3276 C 0.5173 0.47504 0.53806 0.0
C3277 C 0.53397 0.47356 0.54877 0.0
C3278 C 0.53482 0.45726 0.55926 0.0
H3279 H 0.48657 0.42843 0.6042 0.0
H3280 H 0.49624 0.44697 0.58871 0.0
H3281 H 0.47939 0.42546 0.57884 0.0
H3282 H 0.49057 0.43106 0.54709 0.0
H3283 H 0.48872 0.46009 0.52934 0.0
H3284 H 0.42457 0.76808 0.38256 0.0
H3285 H 0.39638 0.76578 0.36114 0.0
H3286 H 0.43005 0.76503 0.31133 0.0
H3287 H 0.45842 0.76677 0.33272 0.0
H3288 H 0.38864 0.79203 0.33703 0.0
H3289 H 0.38751 0.71921 0.29481 0.0
H3290 H 0.4025 0.72726 0.31663 0.0
H3291 H 0.40914 0.73653 0.29399 0.0
C3292 C 0.42603 0.76725 0.36704 0.0
C3293 C 0.44379 0.7676 0.35936 0.0
C3294 C 0.40985 0.76593 0.3548 0.0
C3295 C 0.41102 0.765 0.33461 0.0
C3296 C 0.42871 0.76525 0.32684 0.0
H3297 H 0.32671 0.77815 0.24477 0.0
H3298 H 0.35621 0.7761 0.26301 0.0
C3299 C 0.44494 0.76637 0.33909 0.0
C3300 C 0.3938 0.76486 0.32196 0.0
H3301 H 0.36529 0.73851 0.28428 0.0
C3302 C 0.38353 0.78028 0.32555 0.0
C3303 C 0.38713 0.74952 0.30694 0.0
C3304 C 0.39703 0.73209 0.30294 0.0
C3305 C 0.36683 0.78079 0.31457 0.0
C3306 C 0.36022 0.76551 0.29962 0.0
C3307 C 0.3705 0.7502 0.29579 0.0
C3308 C 0.34244 0.76522 0.28803 0.0
C3309 C 0.35629 0.79766 0.31896 0.0
C3310 C 0.32503 0.75935 0.29596 0.0
C3311 C 0.30823 0.76039 0.28554 0.0
C3312 C 0.30862 0.76753 0.26718 0.0
C3313 C 0.32604 0.77271 0.25897 0.0
C3314 C 0.34286 0.77156 0.26934 0.0
H3315 H 0.36442 0.80957 0.3295 0.0
H3316 H 0.35297 0.80422 0.3054 0.0
H3317 H 0.34271 0.79185 0.32512 0.0
H3318 H 0.32447 0.75419 0.3103 0.0
H3319 H 0.29495 0.75554 0.29177 0.0
H3320 H 0.02813 0.72976 0.14532 0.0
H3321 H 0.02824 0.69449 0.13513 0.0
H3322 H 0.02902 0.70736 0.07535 0.0
H3323 H 0.02927 0.74228 0.08528 0.0
H3324 H 0.00427 0.66606 0.11049 0.0
H3325 H 0.07475 0.6808 0.08115 0.0
H3326 H 0.06587 0.69919 0.09661 0.0
H3327 H 0.05933 0.69561 0.07097 0.0
C3328 C 0.02819 0.72499 0.13001 0.0
C3329 C 0.02899 0.73886 0.11614 0.0
C3330 C 0.02833 0.70489 0.12423 0.0
C3331 C 0.02924 0.69845 0.10453 0.0
C3332 C 0.02899 0.71211 0.09067 0.0
H3333 H 0.99639 0.58818 0.03628 0.0
H3334 H 0.99958 0.62015 0.05551 0.0
C3335 C 0.02901 0.73208 0.09639 0.0
C3336 C 0.03031 0.67751 0.09808 0.0
H3337 H 0.05486 0.64967 0.06911 0.0
C3338 C 0.01548 0.66239 0.10172 0.0
C3339 C 0.04518 0.67264 0.08702 0.0
C3340 C 0.06228 0.6879 0.08389 0.0
C3341 C 0.0145 0.64275 0.09351 0.0
C3342 C 0.02848 0.63828 0.08097 0.0
C3343 C 0.04395 0.65314 0.07842 0.0
C3344 C 0.02673 0.6187 0.06943 0.0
C3345 C 0.99838 0.62705 0.0982 0.0
C3346 C 0.04135 0.60761 0.07013 0.0
C3347 C 0.03971 0.58937 0.05884 0.0
C3348 C 0.02343 0.58192 0.04665 0.0
C3349 C 0.00904 0.59332 0.04568 0.0
C3350 C 0.01074 0.61155 0.05683 0.0
H3351 H 0.99311 0.63094 0.11259 0.0
H3352 H 0.98651 0.62599 0.08715 0.0
H3353 H 0.00262 0.61225 0.09818 0.0
H3354 H 0.05393 0.61298 0.07956 0.0
H3355 H 0.05104 0.58095 0.05995 0.0
H3356 H 0.06895 0.27936 0.8716 0.0
H3357 H 0.09743 0.27808 0.85415 0.0
H3358 H 0.06427 0.24067 0.80712 0.0
H3359 H 0.03557 0.24246 0.82426 0.0
H3360 H 0.11442 0.2483 0.84235 0.0
H3361 H 0.09247 0.28347 0.77804 0.0
H3362 H 0.07959 0.28289 0.79974 0.0
H3363 H 0.07646 0.26136 0.78231 0.0
C3364 C 0.0677 0.27085 0.85754 0.0
C3365 C 0.04998 0.26112 0.84925 0.0
C3366 C 0.08401 0.27013 0.84757 0.0
C3367 C 0.083 0.2596 0.82913 0.0
C3368 C 0.06538 0.24935 0.82107 0.0
H3369 H 0.18602 0.2331 0.77817 0.0
H3370 H 0.15498 0.23009 0.79172 0.0
C3371 C 0.04899 0.25025 0.83096 0.0
C3372 C 0.10048 0.25935 0.81856 0.0
H3373 H 0.121 0.27089 0.77656 0.0
C3374 C 0.11585 0.25323 0.82795 0.0
C3375 C 0.10245 0.26605 0.79988 0.0
C3376 C 0.08695 0.274 0.78946 0.0
C3377 C 0.13312 0.2537 0.81927 0.0
C3378 C 0.13494 0.25988 0.80036 0.0
C3379 C 0.11955 0.26594 0.79094 0.0
C3380 C 0.15296 0.2611 0.79053 0.0
C3381 C 0.14943 0.24826 0.83079 0.0
C3382 C 0.16172 0.27925 0.78435 0.0
C3383 C 0.17926 0.28087 0.77621 0.0
C3384 C 0.18839 0.2644 0.77419 0.0
C3385 C 0.17934 0.24607 0.7797 0.0
C3386 C 0.16169 0.24439 0.78761 0.0
H3387 H 0.14734 0.24936 0.8466 0.0
H3388 H 0.15064 0.23265 0.82619 0.0
H3389 H 0.16293 0.25802 0.82833 0.0
H3390 H 0.15524 0.29232 0.78633 0.0
H3391 H 0.18594 0.29518 0.7721 0.0
H3392 H 0.54488 0.71767 0.90864 0.0
H3393 H 0.54384 0.68555 0.92218 0.0
H3394 H 0.49334 0.69367 0.95055 0.0
H3395 H 0.49472 0.7258 0.93771 0.0
H3396 H 0.51877 0.68497 0.97555 0.0
H3397 H 0.51157 0.63122 0.90983 0.0
H3398 H 0.53157 0.651 0.91054 0.0
H3399 H 0.50812 0.65655 0.90888 0.0
C3400 C 0.53337 0.71233 0.91742 0.0
C3401 C 0.51994 0.72424 0.9222 0.0
C3402 C 0.53275 0.69397 0.92513 0.0
C3403 C 0.51846 0.68713 0.93738 0.0
C3404 C 0.50456 0.69865 0.94128 0.0
H3405 H 0.48784 0.57045 0.97704 0.0
H3406 H 0.48972 0.6014 0.96169 0.0
C3407 C 0.50534 0.71699 0.93387 0.0
C3408 C 0.51851 0.66882 0.94742 0.0
H3409 H 0.51661 0.61861 0.94006 0.0
C3410 C 0.51828 0.67045 0.96777 0.0
C3411 C 0.51775 0.64986 0.93729 0.0
C3412 C 0.51709 0.64694 0.91542 0.0
C3413 C 0.51704 0.6537 0.97823 0.0
C3414 C 0.51661 0.63477 0.96815 0.0
C3415 C 0.51703 0.63314 0.94781 0.0
C3416 C 0.51513 0.61639 0.97833 0.0
C3417 C 0.51556 0.65643 -8e-05 0.0
C3418 C 0.52866 0.61453 0.99299 0.0
C3419 C 0.52743 0.59693 0.00205 0.0
C3420 C 0.51285 0.5807 0.99636 0.0
C3421 C 0.49923 0.58268 0.98182 0.0
C3422 C 0.50034 0.60034 0.97294 0.0
H3423 H 0.51063 0.67049 0.0045 0.0
H3424 H 0.50572 0.64385 0.00499 0.0
H3425 H 0.52969 0.6571 0.00727 0.0
H3426 H 0.54044 0.62651 0.99711 0.0
H3427 H 0.53834 0.59577 0.01295 0.0
H3428 H 0.07623 0.78558 0.61721 0.0
H3429 H 0.1052 0.78036 0.6338 0.0
H3430 H 0.07654 0.77327 0.68666 0.0
H3431 H 0.04719 0.77803 0.67003 0.0
H3432 H 0.12637 0.80046 0.66486 0.0
H3433 H 0.09914 0.72315 0.68088 0.0
H3434 H 0.08653 0.73605 0.66454 0.0
H3435 H 0.08563 0.74102 0.69036 0.0
C3436 C 0.07599 0.78297 0.63239 0.0
C3437 C 0.05923 0.78208 0.64221 0.0
C3438 C 0.09264 0.77998 0.64186 0.0
C3439 C 0.093 0.776 0.66137 0.0
C3440 C 0.0765 0.77579 0.67146 0.0
H3441 H 0.18235 0.76018 0.74303 0.0
H3442 H 0.15238 0.76289 0.72637 0.0
C3443 C 0.05976 0.77871 0.66196 0.0
C3444 C 0.11072 0.7722 0.671 0.0
H3445 H 0.12976 0.73778 0.69445 0.0
C3446 C 0.12712 0.78671 0.67124 0.0
C3447 C 0.11172 0.75422 0.67929 0.0
C3448 C 0.09488 0.73762 0.67864 0.0
C3449 C 0.14437 0.78388 0.67978 0.0
C3450 C 0.14534 0.76596 0.68812 0.0
C3451 C 0.12897 0.75146 0.68796 0.0
C3452 C 0.1631 0.76242 0.69774 0.0
C3453 C 0.16139 0.80026 0.6802 0.0
C3454 C 0.17893 0.7606 0.68707 0.0
C3455 C 0.19608 0.75889 0.69656 0.0
C3456 C 0.19763 0.75905 0.71685 0.0
C3457 C 0.18156 0.76004 0.72737 0.0
C3458 C 0.16443 0.76161 0.71789 0.0
H3459 H 0.15748 0.81452 0.67655 0.0
H3460 H 0.16902 0.80268 0.69473 0.0
H3461 H 0.17122 0.79589 0.66945 0.0
H3462 H 0.17811 0.76094 0.67147 0.0
H3463 H 0.20826 0.75819 0.68812 0.0
H3464 H 0.04276 0.34669 0.38596 0.0
H3465 H 0.03979 0.37978 0.40095 0.0
H3466 H 0.03827 0.35749 0.45723 0.0
H3467 H 0.04122 0.32469 0.44256 0.0
H3468 H 0.0075 0.37774 0.44577 0.0
H3469 H 0.07949 0.42078 0.43852 0.0
H3470 H 0.06749 0.40566 0.41753 0.0
H3471 H 0.07493 0.39398 0.43796 0.0
C3472 C 0.04198 0.34895 0.40154 0.0
C3473 C 0.04214 0.3331 0.41308 0.0
C3474 C 0.04035 0.36782 0.41006 0.0
C3475 C 0.03891 0.371 0.43018 0.0
C3476 C 0.0394 0.35529 0.44168 0.0
H3477 H 0.04152 0.4677 0.51765 0.0
H3478 H 0.04795 0.43987 0.49574 0.0
C3479 C 0.04106 0.33655 0.43325 0.0
C3480 C 0.03578 0.39028 0.43943 0.0
H3481 H 0.05798 0.43761 0.45476 0.0
C3482 C 0.01843 0.39093 0.44756 0.0
C3483 C 0.05019 0.40729 0.44183 0.0
C3484 C 0.06916 0.40705 0.43362 0.0
C3485 C 0.0152 0.40806 0.45843 0.0
C3486 C 0.02966 0.42504 0.46103 0.0
C3487 C 0.04693 0.42454 0.45263 0.0
C3488 C 0.02722 0.44308 0.47321 0.0
C3489 C 0.99658 0.40764 0.46764 0.0
C3490 C 0.01374 0.45425 0.46755 0.0
C3491 C 0.00997 0.46996 0.48004 0.0
C3492 C 0.01976 0.47487 0.49831 0.0
C3493 C 0.03375 0.46414 0.50367 0.0
C3494 C 0.03749 0.44836 0.49116 0.0
H3495 H 0.98843 0.39228 0.46733 0.0
H3496 H 0.99883 0.41429 0.48294 0.0
H3497 H 0.98794 0.41655 0.45962 0.0
H3498 H 0.00581 0.45048 0.45368 0.0
H3499 H 0.99909 0.47797 0.47555 0.0
H3500 H 0.43742 0.27757 0.13768 0.0
H3501 H 0.40947 0.27666 0.15636 0.0
H3502 H 0.44017 0.26121 0.20595 0.0
H3503 H 0.46844 0.26248 0.18738 0.0
H3504 H 0.38883 0.24683 0.17349 0.0
H3505 H 0.41921 0.3088 0.22904 0.0
H3506 H 0.43061 0.30354 0.20703 0.0
H3507 H 0.43234 0.28883 0.22705 0.0
C3508 C 0.43827 0.27393 0.15255 0.0
C3509 C 0.45522 0.27018 0.16106 0.0
C3510 C 0.42224 0.27343 0.16323 0.0
C3511 C 0.42276 0.26921 0.18269 0.0
C3512 C 0.43952 0.26495 0.19111 0.0
H3513 H 0.31953 0.239 0.24351 0.0
H3514 H 0.34981 0.23874 0.22921 0.0
C3515 C 0.45564 0.26551 0.18042 0.0
C3516 C 0.40562 0.26916 0.19391 0.0
H3517 H 0.38854 0.29154 0.23368 0.0
C3518 C 0.38879 0.25657 0.18668 0.0
C3519 C 0.40547 0.28209 0.21098 0.0
C3520 C 0.42281 0.29673 0.21893 0.0
C3521 C 0.37188 0.25652 0.19599 0.0
C3522 C 0.37182 0.2691 0.21332 0.0
C3523 C 0.38862 0.28175 0.22053 0.0
C3524 C 0.3543 0.26973 0.22375 0.0
C3525 C 0.3541 0.24341 0.18682 0.0
C3526 C 0.34714 0.2875 0.22638 0.0
C3527 C 0.32988 0.28778 0.23482 0.0
C3528 C 0.31942 0.27028 0.24078 0.0
C3529 C 0.32707 0.25272 0.2389 0.0
C3530 C 0.34436 0.2525 0.2306 0.0
H3531 H 0.35547 0.2389 0.17123 0.0
H3532 H 0.35121 0.22969 0.19437 0.0
H3533 H 0.3418 0.25106 0.18806 0.0
H3534 H 0.35462 0.30103 0.22133 0.0
H3535 H 0.32444 0.30156 0.23601 0.0
H3536 H 0.64083 0.49076 0.35298 0.0
H3537 H 0.6231 0.48958 0.3824 0.0
H3538 H 0.5811 0.51724 0.35453 0.0
H3539 H 0.59817 0.51747 0.32498 0.0
H3540 H 0.61303 0.51566 0.40734 0.0
H3541 H 0.54758 0.47074 0.37169 0.0
H3542 H 0.56927 0.47489 0.35952 0.0
H3543 H 0.55391 0.49304 0.36004 0.0
C3544 C 0.6278 0.49657 0.35319 0.0
C3545 C 0.62076 0.50398 0.3366 0.0
C3546 C 0.61766 0.49588 0.36999 0.0
C3547 C 0.6004 0.50276 0.37056 0.0
C3548 C 0.59393 0.51108 0.35428 0.0
H3549 H 0.54551 0.54179 0.47052 0.0
H3550 H 0.56627 0.53721 0.44437 0.0
C3551 C 0.60383 0.5114 0.33741 0.0
C3552 C 0.58921 0.50154 0.38814 0.0
H3553 H 0.54439 0.48858 0.40248 0.0
C3554 C 0.59806 0.50951 0.4063 0.0
C3555 C 0.56977 0.49298 0.38704 0.0
C3556 C 0.55966 0.48223 0.36855 0.0
C3557 C 0.58787 0.51002 0.42311 0.0
C3558 C 0.5681 0.50308 0.42164 0.0
C3559 C 0.55945 0.49426 0.40366 0.0
C3560 C 0.55597 0.50556 0.43823 0.0
C3561 C 0.59851 0.51779 0.44229 0.0
C3562 C 0.54265 0.48948 0.4432 0.0
C3563 C 0.53036 0.49221 0.45789 0.0
C3564 C 0.53127 0.51103 0.468 0.0
C3565 C 0.54465 0.52704 0.46315 0.0
C3566 C 0.55669 0.52439 0.4483 0.0
H3567 H 0.61332 0.51529 0.44226 0.0
H3568 H 0.59897 0.53407 0.44479 0.0
H3569 H 0.59171 0.51058 0.45453 0.0
H3570 H 0.54167 0.47482 0.43559 0.0
H3571 H 0.52015 0.47963 0.46134 0.0
H3572 H 0.2691 0.84864 0.04685 0.0
H3573 H 0.2667 0.84124 0.08039 0.0
H3574 H 0.23192 0.88582 0.09046 0.0
H3575 H 0.23412 0.89333 0.05648 0.0
H3576 H 0.27576 0.86667 0.11615 0.0
H3577 H 0.19957 0.83233 0.10399 0.0
H3578 H 0.21442 0.8371 0.08403 0.0
H3579 H 0.20699 0.85737 0.09787 0.0
C3580 C 0.26103 0.85701 0.05617 0.0
C3581 C 0.25159 0.87139 0.04897 0.0
C3582 C 0.25975 0.85282 0.07536 0.0
C3583 C 0.24896 0.86282 0.08774 0.0
C3584 C 0.24015 0.87782 0.08097 0.0
H3585 H 0.22965 0.82293 0.20343 0.0
H3586 H 0.22795 0.84198 0.17527 0.0
C3587 C 0.24151 0.88215 0.06165 0.0
C3588 C 0.2464 0.85641 0.10734 0.0
H3589 H 0.21531 0.82699 0.13293 0.0
C3590 C 0.26246 0.85836 0.12004 0.0
C3591 C 0.22902 0.84553 0.11224 0.0
C3592 C 0.21147 0.84279 0.09886 0.0
C3593 C 0.26182 0.84883 0.13711 0.0
C3594 C 0.24474 0.83696 0.14138 0.0
C3595 C 0.22838 0.83601 0.12937 0.0
C3596 C 0.24407 0.8244 0.15758 0.0
C3597 C 0.27954 0.85093 0.15013 0.0
C3598 C 0.25313 0.80786 0.15653 0.0
C3599 C 0.25401 0.79689 0.17247 0.0
C3600 C 0.24591 0.80244 0.18964 0.0
C3601 C 0.23608 0.81844 0.19033 0.0
C3602 C 0.2351 0.82932 0.17433 0.0
H3603 H 0.29024 0.86388 0.14716 0.0
H3604 H 0.27631 0.8526 0.16563 0.0
H3605 H 0.28578 0.8373 0.14764 0.0
H3606 H 0.25996 0.8038 0.14355 0.0
H3607 H 0.26166 0.78462 0.17162 0.0
H3608 H 0.94043 0.54356 0.83346 0.0
H3609 H 0.95635 0.54929 0.86551 0.0
H3610 H 0.91607 0.58525 0.88502 0.0
H3611 H 0.89929 0.57859 0.85271 0.0
H3612 H 0.97379 0.58336 0.88416 0.0
H3613 H 0.91584 0.5493 0.92781 0.0
H3614 H 0.91408 0.5461 0.90165 0.0
H3615 H 0.91146 0.56937 0.91427 0.0
C3616 C 0.93477 0.55252 0.84455 0.0
C3617 C 0.91857 0.56057 0.8406 0.0
C3618 C 0.94397 0.55589 0.8629 0.0
C3619 C 0.93745 0.5677 0.87774 0.0
C3620 C 0.9212 0.57581 0.87392 0.0
H3621 H 0.02151 0.57836 0.97761 0.0
H3622 H 1.0011 0.59101 0.95401 0.0
C3623 C 0.91166 0.57206 0.85548 0.0
C3624 C 0.94816 0.57119 0.89689 0.0
H3625 H 0.94601 0.55804 0.94319 0.0
C3626 C 0.9677 0.57813 0.89721 0.0
C3627 C 0.94011 0.5646 0.91393 0.0
C3628 C 0.91926 0.55681 0.91451 0.0
C3629 C 0.97969 0.57664 0.91331 0.0
C3630 C 0.97177 0.56882 0.92993 0.0
C3631 C 0.95204 0.56388 0.93035 0.0
C3632 C 0.98355 0.56228 0.94538 0.0
C3633 C 1.00075 0.58178 0.91165 0.0
C3634 C 0.98015 0.54214 0.94876 0.0
C3635 C 0.99147 0.53508 0.96233 0.0
C3636 C 0.00659 0.54794 0.97271 0.0
C3637 C 0.01008 0.56814 0.9695 0.0
C3638 C 0.99845 0.57534 0.95607 0.0
H3639 H 0.00448 0.58418 0.89655 0.0
H3640 H 0.00647 0.59568 0.92101 0.0
H3641 H 0.00783 0.56977 0.91652 0.0
H3642 H 0.96885 0.53173 0.94065 0.0
H3643 H 0.98848 0.51943 0.96456 0.0
H3644 H 0.26496 0.15352 0.55402 0.0
H3645 H 0.26361 0.16444 0.5886 0.0
H3646 H 0.26719 0.22503 0.57483 0.0
H3647 H 0.26807 0.21428 0.54053 0.0
H3648 H 0.28686 0.19045 0.61494 0.0
H3649 H 0.21974 0.21758 0.60397 0.0
H3650 H 0.22885 0.20251 0.58532 0.0
H3651 H 0.23735 0.22894 0.58899 0.0
C3652 C 0.26561 0.16918 0.55841 0.0
C3653 C 0.26634 0.18298 0.54447 0.0
C3654 C 0.26477 0.17539 0.57816 0.0
C3655 C 0.26471 0.19549 0.58426 0.0
C3656 C 0.26654 0.20936 0.57045 0.0
H3657 H 0.29109 0.25996 0.69722 0.0
H3658 H 0.29072 0.24386 0.66439 0.0
C3659 C 0.26718 0.20318 0.55081 0.0
C3660 C 0.26272 0.20218 0.60497 0.0
H3661 H 0.23754 0.22923 0.63412 0.0
C3662 C 0.27596 0.19874 0.61917 0.0
C3663 C 0.24823 0.21262 0.61063 0.0
C3664 C 0.23262 0.21544 0.59645 0.0
C3665 C 0.27562 0.20623 0.63869 0.0
C3666 C 0.26197 0.21794 0.64406 0.0
C3667 C 0.24822 0.22058 0.63001 0.0
C3668 C 0.26197 0.22799 0.66402 0.0
C3669 C 0.28984 0.20137 0.65333 0.0
C3670 C 0.24563 0.22528 0.67451 0.0
C3671 C 0.24567 0.23485 0.69324 0.0
C3672 C 0.26208 0.24728 0.70187 0.0
C3673 C 0.27826 0.25031 0.69114 0.0
C3674 C 0.27814 0.24093 0.67239 0.0
H3675 H 0.29468 0.18731 0.64852 0.0
H3676 H 0.30239 0.21345 0.65493 0.0
H3677 H 0.28391 0.19991 0.66774 0.0
H3678 H 0.2329 0.21554 0.66831 0.0
H3679 H 0.23297 0.23215 0.7011 0.0
H3680 H 0.64378 0.51785 0.22648 0.0
H3681 H 0.63577 0.52271 0.19251 0.0
H3682 H 0.57673 0.50457 0.20136 0.0
H3683 H 0.58454 0.49983 0.23507 0.0
H3684 H 0.59019 0.48874 0.16437 0.0
H3685 H 0.60855 0.57105 0.18072 0.0
H3686 H 0.62577 0.5564 0.18758 0.0
H3687 H 0.60413 0.55456 0.19959 0.0
C3688 C 0.62915 0.51445 0.22101 0.0
C3689 C 0.61479 0.50855 0.23346 0.0
C3690 C 0.62459 0.5174 0.20168 0.0
C3691 C 0.60563 0.51426 0.19453 0.0
C3692 C 0.59142 0.50717 0.20661 0.0
H3693 H 0.53806 0.55071 0.10395 0.0
H3694 H 0.55439 0.54546 0.13444 0.0
C3695 C 0.59593 0.50446 0.22588 0.0
C3696 C 0.60021 0.51937 0.17491 0.0
H3697 H 0.59512 0.55886 0.14948 0.0
C3698 C 0.59152 0.50404 0.16097 0.0
C3699 C 0.60169 0.53938 0.17069 0.0
C3700 C 0.61043 0.5564 0.18539 0.0
C3701 C 0.58407 0.5082 0.14299 0.0
C3702 C 0.58536 0.52821 0.13886 0.0
C3703 C 0.59425 0.54355 0.15269 0.0
C3704 C 0.57674 0.5334 0.12055 0.0
C3705 C 0.57427 0.4912 0.12878 0.0
C3706 C 0.58424 0.52894 0.10271 0.0
C3707 C 0.57503 0.53207 0.08534 0.0
C3708 C 0.55813 0.53965 0.08549 0.0
C3709 C 0.55108 0.54491 0.1034 0.0
C3710 C 0.56038 0.54188 0.12081 0.0
H3711 H 0.57194 0.47684 0.13535 0.0
H3712 H 0.56044 0.4942 0.12327 0.0
H3713 H 0.58303 0.48969 0.11617 0.0
H3714 H 0.59694 0.52255 0.10222 0.0
H3715 H 0.58079 0.52784 0.07175 0.0
H3716 H 0.23143 0.83922 0.96088 0.0
H3717 H 0.2338 0.81853 0.93103 0.0
H3718 H 0.24082 0.87041 0.89932 0.0
H3719 H 0.23841 0.89146 0.92939 0.0
H3720 H 0.2147 0.83392 0.88123 0.0
H3721 H 0.28585 0.82122 0.90557 0.0
H3722 H 0.26782 0.81665 0.92254 0.0
H3723 H 0.27552 0.84147 0.9162 0.0
C3724 C 0.23335 0.84628 0.94756 0.0
C3725 C 0.23494 0.867 0.94747 0.0
C3726 C 0.23472 0.83441 0.93054 0.0
C3727 C 0.23776 0.84303 0.91315 0.0
C3728 C 0.23855 0.86358 0.91273 0.0
H3729 H 0.278 0.80428 0.80636 0.0
H3730 H 0.27334 0.81878 0.83869 0.0
C3731 C 0.23717 0.87555 0.92985 0.0
C3732 C 0.24085 0.83053 0.89562 0.0
H3733 H 0.272 0.8033 0.87628 0.0
C3734 C 0.22717 0.82715 0.88011 0.0
C3735 C 0.25719 0.82183 0.89433 0.0
C3736 C 0.27255 0.82554 0.91046 0.0
C3737 C 0.22946 0.81527 0.86317 0.0
C3738 C 0.24575 0.80648 0.86193 0.0
C3739 C 0.25939 0.80982 0.87749 0.0
C3740 C 0.24994 0.79579 0.84372 0.0
C3741 C 0.21478 0.81273 0.84648 0.0
C3742 C 0.23878 0.7776 0.83624 0.0
C3743 C 0.24159 0.76907 0.81775 0.0
C3744 C 0.25551 0.77877 0.80662 0.0
C3745 C 0.2673 0.79637 0.81469 0.0
C3746 C 0.26459 0.80475 0.83311 0.0
H3747 H 0.20443 0.82282 0.84875 0.0
H3748 H 0.22161 0.81562 0.83272 0.0
H3749 H 0.20699 0.79717 0.84482 0.0
H3750 H 0.22752 0.77041 0.84439 0.0
H3751 H 0.23229 0.75553 0.8118 0.0
H3752 H 0.90873 0.54876 0.72968 0.0
H3753 H 0.91995 0.54739 0.69681 0.0
H3754 H 0.96199 0.51397 0.7149 0.0
H3755 H 0.95121 0.51555 0.74766 0.0
H3756 H 0.97675 0.54577 0.69577 0.0
H3757 H 0.91333 0.5009 0.65453 0.0
H3758 H 0.90922 0.52268 0.66885 0.0
H3759 H 0.91631 0.50263 0.68067 0.0
C3760 C 0.92021 0.54091 0.72657 0.0
C3761 C 0.92912 0.53234 0.7413 0.0
C3762 C 0.92656 0.5401 0.70778 0.0
C3763 C 0.94172 0.53046 0.70343 0.0
C3764 C 0.95031 0.52152 0.71799 0.0
H3765 H 0.98146 0.49224 0.59371 0.0
H3766 H 0.96857 0.49519 0.62569 0.0
C3767 C 0.9441 0.52245 0.73672 0.0
C3768 C 0.94941 0.53037 0.68401 0.0
H3769 H 0.93884 0.5137 0.63628 0.0
C3770 C 0.96846 0.5388 0.68273 0.0
C3771 C 0.93858 0.52112 0.66712 0.0
C3772 C 0.91827 0.51115 0.66778 0.0
C3773 C 0.97706 0.53805 0.66503 0.0
C3774 C 0.96618 0.52898 0.64809 0.0
C3775 C 0.94709 0.52071 0.64932 0.0
C3776 C 0.97449 0.52738 0.62904 0.0
C3777 C 0.99784 0.5464 0.66473 0.0
C3778 C 0.98212 0.54452 0.62041 0.0
C3779 C 0.98964 0.54286 0.60225 0.0
C3780 C 0.98945 0.52404 0.59241 0.0
C3781 C 0.98186 0.50692 0.60107 0.0
C3782 C 0.97442 0.50858 0.61926 0.0
H3783 H 0.00504 0.5482 0.67946 0.0
H3784 H 0.00493 0.53666 0.65504 0.0
H3785 H 0.9996 0.56126 0.65918 0.0
H3786 H 0.98198 0.55916 0.62757 0.0
H3787 H 0.99523 0.55629 0.59575 0.0
H3788 H 0.28702 0.14759 0.42653 0.0
H3789 H 0.28928 0.1643 0.3966 0.0
H3790 H 0.25696 0.20676 0.42083 0.0
H3791 H 0.25563 0.19082 0.45101 0.0
H3792 H 0.26618 0.17138 0.3696 0.0
H3793 H 0.30063 0.24437 0.4058 0.0
H3794 H 0.29699 0.22229 0.41845 0.0
H3795 H 0.27836 0.23648 0.41569 0.0
C3796 C 0.28038 0.16047 0.4254 0.0
C3797 C 0.27136 0.16805 0.44119 0.0
C3798 C 0.28169 0.17005 0.4083 0.0
C3799 C 0.27381 0.18724 0.40658 0.0
C3800 C 0.26386 0.19407 0.42199 0.0
H3801 H 0.24614 0.23556 0.29988 0.0
H3802 H 0.24771 0.21601 0.32746 0.0
C3803 C 0.26292 0.18479 0.4392 0.0
C3804 C 0.2759 0.19804 0.38876 0.0
H3805 H 0.28714 0.24449 0.37355 0.0
C3806 C 0.27095 0.18735 0.37048 0.0
C3807 C 0.28266 0.21882 0.38967 0.0
C3808 C 0.29017 0.23109 0.40845 0.0
C3809 C 0.27187 0.1969 0.35328 0.0
C3810 C 0.27716 0.2179 0.35437 0.0
C3811 C 0.28277 0.22846 0.37259 0.0
C3812 C 0.27652 0.22931 0.33701 0.0
C3813 C 0.26748 0.18424 0.33414 0.0
C3814 C 0.29192 0.24395 0.3334 0.0
C3815 C 0.29082 0.25562 0.31788 0.0
C3816 C 0.27439 0.25273 0.30555 0.0
C3817 C 0.25909 0.23797 0.309 0.0
C3818 C 0.26005 0.2266 0.3247 0.0
H3819 H 0.27074 0.16912 0.33523 0.0
H3820 H 0.25219 0.18249 0.33001 0.0
H3821 H 0.27557 0.19103 0.32241 0.0
H3822 H 0.30477 0.24648 0.34268 0.0
H3823 H 0.30281 0.26691 0.31556 0.0
H3824 H 0.29428 0.57964 0.52704 0.0
H3825 H 0.31891 0.55916 0.52746 0.0
H3826 H 0.36072 0.6105 0.51933 0.0
H3827 H 0.33635 0.63108 0.51928 0.0
H3828 H 0.34157 0.55177 0.49815 0.0
H3829 H 0.38535 0.58756 0.56361 0.0
H3830 H 0.36176 0.59193 0.55838 0.0
H3831 H 0.38139 0.60518 0.54691 0.0
C3832 C 0.30878 0.58662 0.52568 0.0
C3833 C 0.31339 0.60699 0.52321 0.0
C3834 C 0.3228 0.57489 0.52586 0.0
C3835 C 0.34167 0.58335 0.52366 0.0
C3836 C 0.34633 0.60374 0.52149 0.0
H3837 H 0.4343 0.53373 0.47996 0.0
H3838 H 0.40449 0.54566 0.48375 0.0
C3839 C 0.33235 0.61548 0.52138 0.0
C3840 C 0.35639 0.57075 0.52248 0.0
H3841 H 0.40009 0.56731 0.54127 0.0
C3842 C 0.35427 0.55497 0.50774 0.0
C3843 C 0.37281 0.57476 0.53515 0.0
C3844 C 0.3754 0.59065 0.55203 0.0
C3845 C 0.3685 0.5436 0.50485 0.0
C3846 C 0.38542 0.54843 0.51678 0.0
C3847 C 0.38719 0.5637 0.53199 0.0
C3848 C 0.40184 0.53848 0.51345 0.0
C3849 C 0.36524 0.52657 0.48906 0.0
C3850 C 0.41023 0.53037 0.5288 0.0
C3851 C 0.42737 0.52384 0.52673 0.0
C3852 C 0.43638 0.52521 0.50924 0.0
C3853 C 0.42751 0.5323 0.49352 0.0
C3854 C 0.41044 0.53904 0.49566 0.0
H3855 H 0.34994 0.52076 0.48583 0.0
H3856 H 0.37115 0.5319 0.47557 0.0
H3857 H 0.37222 0.51419 0.49312 0.0
H3858 H 0.40389 0.52983 0.54266 0.0
H3859 H 0.43396 0.51849 0.53911 0.0
H3860 H 0.80803 0.9419 0.5175 0.0
H3861 H 0.83939 0.96278 0.51777 0.0
H3862 H 0.86471 0.91498 0.53757 0.0
H3863 H 0.83364 0.89384 0.53629 0.0
H3864 H 0.86661 0.97758 0.54352 0.0
H3865 H 0.8946 0.92566 0.49203 0.0
H3866 H 0.87002 0.92216 0.49706 0.0
H3867 H 0.88685 0.9137 0.51293 0.0
C3868 C 0.82031 0.93591 0.52195 0.0
C3869 C 0.8184 0.91615 0.52661 0.0
C3870 C 0.83824 0.94783 0.52207 0.0
C3871 C 0.85457 0.9403 0.5271 0.0
C3872 C 0.8525 0.92093 0.53285 0.0
H3873 H 0.96563 0.01157 0.56022 0.0
H3874 H 0.93307 0.99376 0.55923 0.0
C3875 C 0.83468 0.9089 0.53229 0.0
C3876 C 0.87375 0.95256 0.52634 0.0
H3877 H 0.91748 0.951 0.50996 0.0
C3878 C 0.87768 0.97183 0.53602 0.0
C3879 C 0.88818 0.94535 0.51617 0.0
C3880 C 0.88463 0.92568 0.50379 0.0
C3881 C 0.89568 0.9838 0.53627 0.0
C3882 C 0.91045 0.97603 0.52724 0.0
C3883 C 0.90635 0.95696 0.51715 0.0
C3884 C 0.93022 0.98729 0.52795 0.0
C3885 C 0.89844 0.00481 0.54584 0.0
C3886 C 0.93995 0.98895 0.51086 0.0
C3887 C 0.95879 0.99858 0.51153 0.0
C3888 C 0.96824 0.0071 0.52921 0.0
C3889 C 0.95859 0.00545 0.54631 0.0
C3890 C 0.93987 0.99544 0.54572 0.0
H3891 H 0.88496 0.01055 0.54574 0.0
H3892 H 0.90352 0.00501 0.56122 0.0
H3893 H 0.90891 0.01504 0.53851 0.0
H3894 H 0.933 0.98265 0.49696 0.0
H3895 H 0.96598 0.99914 0.49823 0.0
H3896 H 0.88291 0.10642 0.24994 0.0
H3897 H 0.86551 0.13402 0.25127 0.0
H3898 H 0.81603 0.09469 0.22459 0.0
H3899 H 0.83327 0.06687 0.22354 0.0
H3900 H 0.84732 0.15128 0.22319 0.0
H3901 H 0.79616 0.11781 0.27393 0.0
H3902 H 0.81734 0.10821 0.26875 0.0
H3903 H 0.79713 0.10253 0.25173 0.0
C3904 C 0.86836 0.10363 0.24421 0.0
C3905 C 0.85945 0.08437 0.23675 0.0
C3906 C 0.85842 0.11946 0.24499 0.0
C3907 C 0.83933 0.11639 0.23838 0.0
C3908 C 0.83061 0.09735 0.2302 0.0
H3909 H 0.76668 0.20628 0.23071 0.0
H3910 H 0.78071 0.17638 0.22487 0.0
C3911 C 0.84054 0.08148 0.22946 0.0
C3912 C 0.8286 0.13309 0.2405 0.0
H3913 H 0.79149 0.14833 0.26283 0.0
C3914 C 0.83506 0.15056 0.23177 0.0
C3915 C 0.81264 0.13226 0.25182 0.0
C3916 C 0.80546 0.11429 0.26225 0.0
C3917 C 0.82604 0.16715 0.2341 0.0
C3918 C 0.81021 0.16629 0.24546 0.0
C3919 C 0.80358 0.14883 0.25402 0.0
C3920 C 0.80106 0.18385 0.24943 0.0
C3921 C 0.83358 0.18569 0.22469 0.0
C3922 C 0.80772 0.19778 0.26532 0.0
C3923 C 0.79972 0.21484 0.26878 0.0
C3924 C 0.78484 0.21831 0.2564 0.0
C3925 C 0.77797 0.20405 0.24067 0.0
C3926 C 0.78601 0.18697 0.23723 0.0
H3927 H 0.84549 0.18372 0.21554 0.0
H3928 H 0.82215 0.18994 0.21556 0.0
H3929 H 0.83849 0.19817 0.23608 0.0
H3930 H 0.81934 0.19561 0.27489 0.0
H3931 H 0.80548 0.22547 0.28097 0.0
H3932 H 0.70226 0.15531 0.0063 0.0
H3933 H 0.67061 0.13712 0.00998 0.0
H3934 H 0.69319 0.0838 0.01708 0.0
H3935 H 0.72504 0.10197 0.01387 0.0
H3936 H 0.65021 0.10539 0.98875 0.0
H3937 H 0.66209 0.08709 0.06416 0.0
H3938 H 0.67862 0.1049 0.05297 0.0
H3939 H 0.67831 0.07868 0.04786 0.0
C3940 C 0.70055 0.1397 0.00857 0.0
C3941 C 0.71625 0.13015 0.0099 0.0
C3942 C 0.68243 0.12934 0.01074 0.0
C3943 C 0.6796 0.10924 0.01427 0.0
C3944 C 0.69512 0.09946 0.01495 0.0
H3945 H 0.57434 0.02793 0.99412 0.0
H3946 H 0.60703 0.04507 0.99551 0.0
C3947 C 0.7133 0.10984 0.0129 0.0
C3948 C 0.6603 0.09843 0.0166 0.0
H3949 H 0.63319 0.07083 0.04717 0.0
C3950 C 0.64648 0.09793 0.00157 0.0
C3951 C 0.65538 0.08899 0.03349 0.0
C3952 C 0.66932 0.09008 0.05063 0.0
C3953 C 0.62798 0.08786 0.00274 0.0
C3954 C 0.62329 0.0776 0.0192 0.0
C3955 C 0.63693 0.07851 0.03448 0.0
C3956 C 0.60434 0.06552 0.02037 0.0
C3957 C 0.61359 0.08844 0.98637 0.0
C3958 C 0.59234 0.07057 0.03467 0.0
C3959 C 0.5736 0.06056 0.03408 0.0
C3960 C 0.56673 0.04552 0.01911 0.0
C3961 C 0.57917 0.03971 0.00563 0.0
C3962 C 0.59783 0.04951 0.00636 0.0
H3963 H 0.61789 0.10127 0.97783 0.0
H3964 H 0.61218 0.07463 0.9764 0.0
H3965 H 0.59954 0.08937 0.99195 0.0
H3966 H 0.59721 0.0828 0.04571 0.0
H3967 H 0.56428 0.0653 0.04464 0.0
H3968 H 0.14037 0.43942 0.26452 0.0
H3969 H 0.16222 0.41611 0.26756 0.0
H3970 H 0.20512 0.45614 0.24211 0.0
H3971 H 0.1835 0.47965 0.2393 0.0
H3972 H 0.18039 0.39729 0.23933 0.0
H3973 H 0.2322 0.4458 0.29234 0.0
H3974 H 0.2089 0.45092 0.28688 0.0
H3975 H 0.22734 0.45708 0.27068 0.0
C3976 C 0.15444 0.44322 0.25951 0.0
C3977 C 0.16026 0.4614 0.25176 0.0
C3978 C 0.1669 0.42993 0.2613 0.0
C3979 C 0.18539 0.43461 0.25543 0.0
C3980 C 0.19106 0.45248 0.24718 0.0
H3981 H 0.25854 0.349 0.23272 0.0
H3982 H 0.24142 0.37667 0.2312 0.0
C3983 C 0.17863 0.4658 0.24543 0.0
C3984 C 0.1986 0.42057 0.25754 0.0
H3985 H 0.24122 0.41608 0.27864 0.0
C3986 C 0.19367 0.40137 0.24795 0.0
C3987 C 0.2158 0.42589 0.26902 0.0
C3988 C 0.22134 0.44598 0.28048 0.0
C3989 C 0.2056 0.38741 0.24927 0.0
C3990 C 0.22311 0.39295 0.26017 0.0
C3991 C 0.22792 0.41202 0.27007 0.0
C3992 C 0.23627 0.37881 0.26175 0.0
C3993 C 0.19921 0.36671 0.23924 0.0
C3994 C 0.24005 0.37177 0.27968 0.0
C3995 C 0.25004 0.35611 0.28063 0.0
C3996 C 0.25631 0.34735 0.26365 0.0
C3997 C 0.25376 0.35545 0.24601 0.0
C3998 C 0.24388 0.37114 0.24509 0.0
H3999 H 0.18375 0.36348 0.23561 0.0
H4000 H 0.20641 0.36532 0.22551 0.0
H4001 H 0.20289 0.35532 0.24846 0.0
H4002 H 0.23438 0.37763 0.29271 0.0
H4003 H 0.25181 0.35009 0.2944 0.0
H4004 H 0.19416 0.40137 0.01287 0.0
H4005 H 0.16798 0.41965 0.01288 0.0
H4006 H 0.20344 0.46987 0.04568 0.0
H4007 H 0.22992 0.45183 0.04521 0.0
H4008 H 0.14912 0.43475 0.04082 0.0
H4009 H 0.18425 0.49634 0.00124 0.0
H4010 H 0.19387 0.47404 0.00364 0.0
H4011 H 0.19715 0.49354 0.02328 0.0
C4012 C 0.19641 0.41628 0.02016 0.0
C4013 C 0.2142 0.42517 0.02894 0.0
C4014 C 0.18139 0.42675 0.02014 0.0
C4015 C 0.18376 0.44634 0.02892 0.0
C4016 C 0.20134 0.455 0.03833 0.0
H4017 H 0.08693 0.50442 0.05274 0.0
H4018 H 0.11488 0.48886 0.05561 0.0
C4019 C 0.21644 0.44458 0.03821 0.0
C4020 C 0.16777 0.45754 0.02818 0.0
H4021 H 0.15482 0.49993 0.0137 0.0
C4022 C 0.15039 0.44901 0.03489 0.0
C4023 C 0.16925 0.47601 0.02013 0.0
C4024 C 0.18706 0.48545 0.01148 0.0
C4025 C 0.13456 0.45839 0.03387 0.0
C4026 C 0.13621 0.47718 0.02643 0.0
C4027 C 0.15356 0.48567 0.01962 0.0
C4028 C 0.11997 0.48795 0.02502 0.0
C4029 C 0.11606 0.4477 0.04023 0.0
C4030 C 0.11399 0.49361 0.00706 0.0
C4031 C 0.09822 0.50291 0.00547 0.0
C4032 C 0.08809 0.50669 0.02181 0.0
C4033 C 0.09441 0.5016 0.03987 0.0
C4034 C 0.11028 0.49251 0.04149 0.0
H4035 H 0.11578 0.43143 0.04002 0.0
H4036 H 0.11411 0.45345 0.05532 0.0
H4037 H 0.10398 0.45011 0.03077 0.0
H4038 H 0.12125 0.4904 0.99415 0.0
H4039 H 0.09365 0.50663 0.99136 0.0
H4040 H 0.84417 0.98509 0.22818 0.0
H4041 H 0.82261 0.95299 0.22747 0.0
H4042 H 0.86441 0.92998 0.26077 0.0
H4043 H 0.88594 0.96166 0.26156 0.0
H4044 H 0.83095 0.9124 0.21361 0.0
H4045 H 0.81473 0.92088 0.29114 0.0
H4046 H 0.82359 0.94183 0.27799 0.0
H4047 H 0.83934 0.92645 0.28657 0.0
C4048 C 0.84876 0.9732 0.23536 0.0
C4049 C 0.86681 0.97603 0.24493 0.0
C4050 C 0.83644 0.95488 0.2349 0.0
C4051 C 0.84188 0.9392 0.24421 0.0
C4052 C 0.85987 0.94195 0.25366 0.0
H4053 H 0.799 0.82016 0.26986 0.0
H4054 H 0.81698 0.85321 0.26639 0.0
C4055 C 0.87219 0.96011 0.25401 0.0
C4056 C 0.82898 0.91982 0.24416 0.0
H4057 H 0.80566 0.88867 0.27443 0.0
C4058 C 0.82519 0.90724 0.22682 0.0
C4059 C 0.82161 0.91315 0.26145 0.0
C4060 C 0.82485 0.9263 0.28035 0.0
C4061 C 0.8148 0.88781 0.22649 0.0
C4062 C 0.80772 0.88099 0.2439 0.0
C4063 C 0.81115 0.89383 0.26111 0.0
C4064 C 0.79722 0.86043 0.24485 0.0
C4065 C 0.8122 0.87451 0.20769 0.0
C4066 C 0.78016 0.85338 0.23381 0.0
C4067 C 0.76993 0.83436 0.23563 0.0
C4068 C 0.77649 0.82215 0.24869 0.0
C4069 C 0.79364 0.82916 0.25958 0.0
C4070 C 0.80389 0.84809 0.25768 0.0
H4071 H 0.82246 0.8801 0.19709 0.0
H4072 H 0.8138 0.85911 0.21022 0.0
H4073 H 0.79779 0.87398 0.2011 0.0
H4074 H 0.7745 0.86276 0.22413 0.0
H4075 H 0.75669 0.8294 0.22716 0.0
H4076 H 0.61475 0.08114 0.73648 0.0
H4077 H 0.6338 0.11382 0.73357 0.0
H4078 H 0.68428 0.08817 0.73462 0.0
H4079 H 0.66544 0.05547 0.73714 0.0
H4080 H 0.6606 0.13429 0.75961 0.0
H4081 H 0.69235 0.12166 0.68946 0.0
H4082 H 0.67249 0.10472 0.69692 0.0
H4083 H 0.69611 0.10359 0.70576 0.0
C4084 C 0.62989 0.08239 0.73586 0.0
C4085 C 0.63853 0.06562 0.73703 0.0
C4086 C 0.64075 0.10108 0.73417 0.0
C4087 C 0.66044 0.10338 0.73353 0.0
C4088 C 0.66908 0.08668 0.73454 0.0
H4089 H 0.74374 0.20542 0.77222 0.0
H4090 H 0.7231 0.1731 0.76605 0.0
C4091 C 0.65825 0.06798 0.73616 0.0
C4092 C 0.67211 0.12345 0.73348 0.0
H4093 H 0.70749 0.15033 0.71053 0.0
C4094 C 0.67068 0.13786 0.74873 0.0
C4095 C 0.68511 0.1282 0.71916 0.0
C4096 C 0.68649 0.11379 0.70179 0.0
C4097 C 0.68241 0.15658 0.7505 0.0
C4098 C 0.69618 0.16089 0.73686 0.0
C4099 C 0.6971 0.14685 0.72112 0.0
C4100 C 0.71008 0.17969 0.73922 0.0
C4101 C 0.68002 0.17158 0.76706 0.0
C4102 C 0.71026 0.19374 0.72565 0.0
C4103 C 0.72218 0.2123 0.72906 0.0
C4104 C 0.7341 0.21702 0.74611 0.0
C4105 C 0.73458 0.20242 0.75908 0.0
C4106 C 0.72274 0.18393 0.75562 0.0
H4107 H 0.66583 0.16816 0.77287 0.0
H4108 H 0.6907 0.17125 0.77902 0.0
H4109 H 0.6821 0.18687 0.76244 0.0
H4110 H 0.70067 0.19065 0.71282 0.0
H4111 H 0.72148 0.22319 0.71878 0.0
loop_
_geom_bond_atom_site_label_1
_geom_bond_atom_site_label_2
_geom_bond_distance
_geom_bond_site_symmetry_2
_ccdc_geom_bond_type
Co0 O1 2.216 . S
Co0 O2 2.091 . S
Co0 O4 2.004 1_455 S
Co0 O10 2.021 . S
Co0 O12 2.137 . S
Co0 O13 2.244 . S
O1 Co0 2.216 . S
O1 C8 1.247 . S
O2 Co0 2.091 . S
O2 C8 1.261 . S
C3 O12 1.247 . S
C3 O13 1.272 . S
O4 Co0 2.004 1_655 S
O4 C9 1.259 . S
Co5 O6 2.061 . S
Co5 O11 2.052 1_655 S
Co5 O13 2.135 1_655 S
O6 Co5 2.061 . S
O6 C9 1.235 . S
C7 O10 1.238 . S
C7 O11 1.241 . S
C8 O1 1.247 . S
C8 O2 1.261 . S
C9 O4 1.259 . S
C9 O6 1.235 . S
O10 Co0 2.021 . S
O10 C7 1.238 . S
O11 Co5 2.052 1_455 S
O11 C7 1.241 . S
O12 Co0 2.137 . S
O12 C3 1.247 . S
O13 Co0 2.244 . S
O13 C3 1.272 . S
O13 Co5 2.135 1_455 S
Co14 O15 2.216 1_455 S
Co14 O16 2.091 1_455 S
Co14 O18 2.004 . S
Co14 O24 2.021 . S
Co14 O26 2.137 . S
Co14 O27 2.244 . S
O15 Co14 2.216 1_655 S
O15 C22 1.247 . S
O16 Co14 2.091 1_655 S
O16 C22 1.261 . S
C17 O26 1.247 . S
C17 O27 1.272 . S
O18 Co14 2.004 . S
O18 C23 1.259 . S
Co19 O20 2.061 . S
Co19 O25 2.052 . S
Co19 O27 2.135 . S
O20 Co19 2.061 . S
O20 C23 1.235 . S
C21 O24 1.238 . S
C21 O25 1.241 . S
C22 O15 1.247 . S
C22 O16 1.261 . S
C23 O18 1.259 . S
C23 O20 1.235 . S
O24 Co14 2.021 . S
O24 C21 1.238 . S
O25 Co19 2.052 . S
O25 C21 1.241 . S
O26 Co14 2.137 . S
O26 C17 1.247 . S
O27 Co14 2.244 . S
O27 C17 1.272 . S
O27 Co19 2.135 . S
Co28 O29 2.216 . S
Co28 O30 2.091 . S
Co28 O32 2.004 . S
Co28 O38 2.021 . S
Co28 O40 2.137 . S
Co28 O41 2.244 . S
O29 Co28 2.216 . S
O29 C36 1.247 . S
O30 Co28 2.091 . S
O30 C36 1.261 . S
C31 O40 1.247 . S
C31 O41 1.272 . S
O32 Co28 2.004 . S
O32 C37 1.259 . S
Co33 O34 2.061 . S
Co33 O39 2.052 . S
Co33 O41 2.135 . S
O34 Co33 2.061 . S
O34 C37 1.235 . S
C35 O38 1.238 . S
C35 O39 1.241 . S
C36 O29 1.247 . S
C36 O30 1.261 . S
C37 O32 1.259 . S
C37 O34 1.235 . S
O38 Co28 2.021 . S
O38 C35 1.238 . S
O39 Co33 2.052 . S
O39 C35 1.241 . S
O40 Co28 2.137 . S
O40 C31 1.247 . S
O41 Co28 2.244 . S
O41 C31 1.272 . S
O41 Co33 2.135 . S
Co42 O43 2.216 . S
Co42 O44 2.091 . S
Co42 O46 2.004 . S
Co42 O52 2.021 . S
Co42 O54 2.137 . S
Co42 O55 2.244 . S
O43 Co42 2.216 . S
O43 C50 1.247 . S
O44 Co42 2.091 . S
O44 C50 1.261 . S
C45 O54 1.247 . S
C45 O55 1.272 . S
O46 Co42 2.004 . S
O46 C51 1.259 . S
Co47 O48 2.061 . S
Co47 O53 2.052 . S
Co47 O55 2.135 . S
O48 Co47 2.061 . S
O48 C51 1.235 . S
C49 O52 1.238 . S
C49 O53 1.241 . S
C50 O43 1.247 . S
C50 O44 1.261 . S
C51 O46 1.259 . S
C51 O48 1.235 . S
O52 Co42 2.021 . S
O52 C49 1.238 . S
O53 Co47 2.052 . S
O53 C49 1.241 . S
O54 Co42 2.137 . S
O54 C45 1.247 . S
O55 Co42 2.244 . S
O55 C45 1.272 . S
O55 Co47 2.135 . S
Co56 O57 2.216 1_455 S
Co56 O58 2.091 1_455 S
Co56 O60 2.004 . S
Co56 O66 2.021 . S
Co56 O68 2.137 . S
Co56 O69 2.244 . S
O57 Co56 2.216 1_655 S
O57 C64 1.247 . S
O58 Co56 2.091 1_655 S
O58 C64 1.261 . S
C59 O68 1.247 . S
C59 O69 1.272 . S
O60 Co56 2.004 . S
O60 C65 1.259 . S
Co61 O62 2.061 . S
Co61 O67 2.052 . S
Co61 O69 2.135 . S
O62 Co61 2.061 . S
O62 C65 1.235 . S
C63 O66 1.238 . S
C63 O67 1.241 . S
C64 O57 1.247 . S
C64 O58 1.261 . S
C65 O60 1.259 . S
C65 O62 1.235 . S
O66 Co56 2.021 . S
O66 C63 1.238 . S
O67 Co61 2.052 . S
O67 C63 1.241 . S
O68 Co56 2.137 . S
O68 C59 1.247 . S
O69 Co56 2.244 . S
O69 C59 1.272 . S
O69 Co61 2.135 . S
Co70 O71 2.216 . S
Co70 O72 2.091 . S
Co70 O74 2.004 . S
Co70 O80 2.021 . S
Co70 O82 2.137 . S
Co70 O83 2.244 . S
O71 Co70 2.216 . S
O71 C78 1.247 . S
O72 Co70 2.091 . S
O72 C78 1.261 . S
C73 O82 1.247 . S
C73 O83 1.272 . S
O74 Co70 2.004 . S
O74 C79 1.259 . S
Co75 O76 2.061 . S
Co75 O81 2.052 . S
Co75 O83 2.135 . S
O76 Co75 2.061 . S
O76 C79 1.235 . S
C77 O80 1.238 . S
C77 O81 1.241 . S
C78 O71 1.247 . S
C78 O72 1.261 . S
C79 O74 1.259 . S
C79 O76 1.235 . S
O80 Co70 2.021 . S
O80 C77 1.238 . S
O81 Co75 2.052 . S
O81 C77 1.241 . S
O82 Co70 2.137 . S
O82 C73 1.247 . S
O83 Co70 2.244 . S
O83 C73 1.272 . S
O83 Co75 2.135 . S
Co84 O85 2.216 . S
Co84 O86 2.091 . S
Co84 O88 2.004 . S
Co84 O94 2.021 . S
Co84 O96 2.137 . S
Co84 O97 2.244 . S
O85 Co84 2.216 . S
O85 C92 1.247 . S
O86 Co84 2.091 . S
O86 C92 1.261 . S
C87 O96 1.247 . S
C87 O97 1.272 . S
O88 Co84 2.004 . S
O88 C93 1.259 . S
Co89 O90 2.061 . S
Co89 O95 2.052 . S
Co89 O97 2.135 . S
O90 Co89 2.061 . S
O90 C93 1.235 . S
C91 O94 1.238 . S
C91 O95 1.241 . S
C92 O85 1.247 . S
C92 O86 1.261 . S
C93 O88 1.259 . S
C93 O90 1.235 . S
O94 Co84 2.021 . S
O94 C91 1.238 . S
O95 Co89 2.052 . S
O95 C91 1.241 . S
O96 Co84 2.137 . S
O96 C87 1.247 . S
O97 Co84 2.244 . S
O97 C87 1.272 . S
O97 Co89 2.135 . S
Co98 O99 2.216 . S
Co98 O100 2.091 . S
Co98 O102 2.004 1_455 S
Co98 O108 2.021 . S
Co98 O110 2.137 . S
Co98 O111 2.263 . S
O99 Co98 2.216 . S
O99 C106 1.247 . S
O100 Co98 2.091 . S
O100 C106 1.261 . S
C101 O110 1.247 . S
C101 O111 1.284 . S
O102 Co98 2.004 1_655 S
O102 C107 1.259 . S
Co103 O104 2.061 . S
Co103 O109 2.052 . S
Co103 O111 2.095 1_655 S
O104 Co103 2.061 . S
O104 C107 1.235 . S
C105 O108 1.238 1_655 S
C105 O109 1.241 . S
C106 O99 1.247 . S
C106 O100 1.261 . S
C107 O102 1.259 . S
C107 O104 1.235 . S
O108 Co98 2.021 . S
O108 C105 1.238 1_455 S
O109 Co103 2.052 . S
O109 C105 1.241 . S
O110 Co98 2.137 . S
O110 C101 1.247 . S
O111 Co98 2.263 . S
O111 C101 1.284 . S
O111 Co103 2.095 1_455 S
Co112 O113 2.216 . S
Co112 O114 2.091 . S
Co112 O116 1.983 1_545 S
Co112 O122 2.021 . S
Co112 O124 2.137 . S
Co112 O125 2.244 . S
O113 Co112 2.216 . S
O113 C120 1.247 . S
O114 Co112 2.091 . S
O114 C120 1.261 . S
C115 O124 1.247 . S
C115 O125 1.272 . S
O116 Co112 1.983 1_565 S
O116 C121 1.283 . S
Co117 O118 2.061 . S
Co117 O123 2.052 1_565 S
Co117 O125 2.135 1_565 S
O118 Co117 2.061 . S
O118 C121 1.235 . S
C119 O122 1.238 . S
C119 O123 1.241 . S
C120 O113 1.247 . S
C120 O114 1.261 . S
C121 O116 1.283 . S
C121 O118 1.235 . S
O122 Co112 2.021 . S
O122 C119 1.238 . S
O123 Co117 2.052 1_545 S
O123 C119 1.241 . S
O124 Co112 2.137 . S
O124 C115 1.247 . S
O125 Co112 2.244 . S
O125 C115 1.272 . S
O125 Co117 2.135 1_545 S
Co126 O127 2.216 . S
Co126 O128 2.091 . S
Co126 O130 2.004 . S
Co126 O136 2.021 . S
Co126 O138 2.137 . S
Co126 O139 2.244 . S
O127 Co126 2.216 . S
O127 C134 1.247 . S
O128 Co126 2.091 . S
O128 C134 1.261 . S
C129 O138 1.247 . S
C129 O139 1.272 . S
O130 Co126 2.004 . S
O130 C135 1.259 . S
Co131 O132 2.061 . S
Co131 O137 2.052 . S
Co131 O139 2.135 . S
O132 Co131 2.061 . S
O132 C135 1.235 . S
C133 O136 1.238 . S
C133 O137 1.241 . S
C134 O127 1.247 . S
C134 O128 1.261 . S
C135 O130 1.259 . S
C135 O132 1.235 . S
O136 Co126 2.021 . S
O136 C133 1.238 . S
O137 Co131 2.052 . S
O137 C133 1.241 . S
O138 Co126 2.137 . S
O138 C129 1.247 . S
O139 Co126 2.244 . S
O139 C129 1.272 . S
O139 Co131 2.135 . S
Co140 O141 2.216 . S
Co140 O142 2.091 . S
Co140 O144 2.004 1_565 S
Co140 O150 2.021 . S
Co140 O152 2.137 . S
Co140 O153 2.244 1_565 S
O141 Co140 2.216 . S
O141 C148 1.247 . S
O142 Co140 2.091 . S
O142 C148 1.261 . S
C143 O152 1.235 1_545 S
C143 O153 1.282 . S
O144 Co140 2.004 1_545 S
O144 C149 1.259 . S
Co145 O146 2.061 . S
Co145 O151 2.052 . S
Co145 O153 2.135 . S
O146 Co145 2.061 . S
O146 C149 1.235 . S
C147 O150 1.245 . S
C147 O151 1.231 1_565 S
C148 O141 1.247 . S
C148 O142 1.261 . S
C149 O144 1.259 . S
C149 O146 1.235 . S
O150 Co140 2.021 . S
O150 C147 1.245 . S
O151 Co145 2.052 . S
O151 C147 1.231 1_545 S
O152 Co140 2.137 . S
O152 C143 1.235 1_565 S
O153 Co140 2.244 1_545 S
O153 C143 1.282 . S
O153 Co145 2.135 . S
Co154 O155 2.216 . S
Co154 O156 2.091 . S
Co154 O158 2.004 . S
Co154 O164 2.021 . S
Co154 O166 2.137 1_554 S
Co154 O167 2.244 . S
O155 Co154 2.216 . S
O155 C162 1.247 . S
O156 Co154 2.091 . S
O156 C162 1.261 . S
C157 O166 1.247 . S
C157 O167 1.272 1_556 S
O158 Co154 2.004 . S
O158 C163 1.259 . S
Co159 O160 2.061 . S
Co159 O165 2.052 . S
Co159 O167 2.135 . S
O160 Co159 2.061 . S
O160 C163 1.235 . S
C161 O164 1.238 . S
C161 O165 1.241 . S
C162 O155 1.247 . S
C162 O156 1.261 . S
C163 O158 1.259 . S
C163 O160 1.235 . S
O164 Co154 2.021 . S
O164 C161 1.238 . S
O165 Co159 2.052 . S
O165 C161 1.241 . S
O166 Co154 2.137 1_556 S
O166 C157 1.247 . S
O167 Co154 2.244 . S
O167 C157 1.272 1_554 S
O167 Co159 2.135 . S
Co168 O169 2.216 . S
Co168 O170 2.091 . S
Co168 O172 2.004 . S
Co168 O178 2.021 . S
Co168 O180 2.137 1_554 S
Co168 O181 2.244 1_554 S
O169 Co168 2.216 . S
O169 C176 1.247 . S
O170 Co168 2.091 . S
O170 C176 1.261 . S
C171 O180 1.247 . S
C171 O181 1.272 . S
O172 Co168 2.004 . S
O172 C177 1.259 . S
Co173 O174 2.061 . S
Co173 O179 2.052 . S
Co173 O181 2.135 1_554 S
O174 Co173 2.061 . S
O174 C177 1.235 . S
C175 O178 1.238 . S
C175 O179 1.241 . S
C176 O169 1.247 . S
C176 O170 1.261 . S
C177 O172 1.259 . S
C177 O174 1.235 . S
O178 Co168 2.021 . S
O178 C175 1.238 . S
O179 Co173 2.052 . S
O179 C175 1.241 . S
O180 Co168 2.137 1_556 S
O180 C171 1.247 . S
O181 Co168 2.244 1_556 S
O181 C171 1.272 . S
O181 Co173 2.135 1_556 S
Co182 O183 2.217 . S
Co182 O184 2.091 . S
Co182 O186 2.004 . S
Co182 O192 2.021 1_556 S
Co182 O194 2.137 . S
Co182 O195 2.244 . S
O183 Co182 2.217 . S
O183 C190 1.243 . S
O184 Co182 2.091 . S
O184 C190 1.261 . S
C185 O194 1.247 . S
C185 O195 1.272 . S
O186 Co182 2.004 . S
O186 C191 1.259 . S
Co187 O188 2.060 . S
Co187 O193 2.052 . S
Co187 O195 2.135 1_554 S
O188 Co187 2.060 . S
O188 C191 1.234 1_554 S
C189 O192 1.238 . S
C189 O193 1.241 . S
C190 O183 1.243 . S
C190 O184 1.261 . S
C191 O186 1.259 . S
C191 O188 1.234 1_556 S
O192 Co182 2.021 1_554 S
O192 C189 1.238 . S
O193 Co187 2.052 . S
O193 C189 1.241 . S
O194 Co182 2.137 . S
O194 C185 1.247 . S
O195 Co182 2.244 . S
O195 C185 1.272 . S
O195 Co187 2.135 1_556 S
Co196 O197 2.216 . S
Co196 O198 2.091 . S
Co196 O200 2.004 . S
Co196 O206 2.021 . S
Co196 O208 2.137 . S
Co196 O209 2.244 . S
O197 Co196 2.216 . S
O197 C204 1.247 . S
O198 Co196 2.091 . S
O198 C204 1.261 . S
C199 O208 1.247 . S
C199 O209 1.272 . S
O200 Co196 2.004 . S
O200 C205 1.259 . S
Co201 O202 2.061 . S
Co201 O207 2.052 . S
Co201 O209 2.135 . S
O202 Co201 2.061 . S
O202 C205 1.235 . S
C203 O206 1.238 . S
C203 O207 1.241 . S
C204 O197 1.247 . S
C204 O198 1.261 . S
C205 O200 1.259 . S
C205 O202 1.235 . S
O206 Co196 2.021 . S
O206 C203 1.238 . S
O207 Co201 2.052 . S
O207 C203 1.241 . S
O208 Co196 2.137 . S
O208 C199 1.247 . S
O209 Co196 2.244 . S
O209 C199 1.272 . S
O209 Co201 2.135 . S
Co210 O211 2.216 . S
Co210 O212 2.091 . S
Co210 O214 2.004 . S
Co210 O220 2.021 . S
Co210 O222 2.137 . S
Co210 O223 2.244 . S
O211 Co210 2.216 . S
O211 C218 1.247 . S
O212 Co210 2.091 . S
O212 C218 1.261 . S
C213 O222 1.247 . S
C213 O223 1.272 . S
O214 Co210 2.004 . S
O214 C219 1.259 . S
Co215 O216 2.061 . S
Co215 O221 2.052 . S
Co215 O223 2.135 . S
O216 Co215 2.061 . S
O216 C219 1.235 . S
C217 O220 1.238 . S
C217 O221 1.241 . S
C218 O211 1.247 . S
C218 O212 1.261 . S
C219 O214 1.259 . S
C219 O216 1.235 . S
O220 Co210 2.021 . S
O220 C217 1.238 . S
O221 Co215 2.052 . S
O221 C217 1.241 . S
O222 Co210 2.137 . S
O222 C213 1.247 . S
O223 Co210 2.244 . S
O223 C213 1.272 . S
O223 Co215 2.135 . S
Co224 O225 2.216 . S
Co224 O226 2.091 . S
Co224 O228 2.004 . S
Co224 O234 2.021 . S
Co224 O236 2.137 . S
Co224 O237 2.244 . S
O225 Co224 2.216 . S
O225 C232 1.247 . S
O226 Co224 2.091 . S
O226 C232 1.261 . S
C227 O236 1.247 . S
C227 O237 1.272 . S
O228 Co224 2.004 . S
O228 C233 1.259 . S
Co229 O230 2.061 . S
Co229 O235 2.052 . S
Co229 O237 2.135 . S
O230 Co229 2.061 . S
O230 C233 1.235 . S
C231 O234 1.238 . S
C231 O235 1.241 . S
C232 O225 1.247 . S
C232 O226 1.261 . S
C233 O228 1.259 . S
C233 O230 1.235 . S
O234 Co224 2.021 . S
O234 C231 1.238 . S
O235 Co229 2.052 . S
O235 C231 1.241 . S
O236 Co224 2.137 . S
O236 C227 1.247 . S
O237 Co224 2.244 . S
O237 C227 1.272 . S
O237 Co229 2.135 . S
Co238 O239 2.216 . S
Co238 O240 2.091 . S
Co238 O242 2.004 . S
Co238 O248 2.021 . S
Co238 O250 2.137 . S
Co238 O251 2.244 . S
O239 Co238 2.216 . S
O239 C246 1.247 . S
O240 Co238 2.091 . S
O240 C246 1.261 . S
C241 O250 1.247 . S
C241 O251 1.272 . S
O242 Co238 2.004 . S
O242 C247 1.259 . S
Co243 O244 2.061 . S
Co243 O249 2.052 . S
Co243 O251 2.135 . S
O244 Co243 2.061 . S
O244 C247 1.235 . S
C245 O248 1.238 . S
C245 O249 1.241 . S
C246 O239 1.247 . S
C246 O240 1.261 . S
C247 O242 1.259 . S
C247 O244 1.235 . S
O248 Co238 2.021 . S
O248 C245 1.238 . S
O249 Co243 2.052 . S
O249 C245 1.241 . S
O250 Co238 2.137 . S
O250 C241 1.247 . S
O251 Co238 2.244 . S
O251 C241 1.272 . S
O251 Co243 2.135 . S
Co252 O253 2.216 . S
Co252 O254 2.091 . S
Co252 O256 2.004 . S
Co252 O262 2.021 . S
Co252 O264 2.137 . S
Co252 O265 2.244 . S
O253 Co252 2.216 . S
O253 C260 1.247 . S
O254 Co252 2.091 . S
O254 C260 1.261 . S
C255 O264 1.247 . S
C255 O265 1.272 . S
O256 Co252 2.004 . S
O256 C261 1.259 . S
Co257 O258 2.061 . S
Co257 O263 2.052 . S
Co257 O265 2.135 . S
O258 Co257 2.061 . S
O258 C261 1.235 . S
C259 O262 1.238 . S
C259 O263 1.241 . S
C260 O253 1.247 . S
C260 O254 1.261 . S
C261 O256 1.259 . S
C261 O258 1.235 . S
O262 Co252 2.021 . S
O262 C259 1.238 . S
O263 Co257 2.052 . S
O263 C259 1.241 . S
O264 Co252 2.137 . S
O264 C255 1.247 . S
O265 Co252 2.244 . S
O265 C255 1.272 . S
O265 Co257 2.135 . S
Co266 O267 2.216 1_545 S
Co266 O268 2.091 . S
Co266 O270 2.004 . S
Co266 O276 2.021 . S
Co266 O278 2.137 . S
Co266 O279 2.244 . S
O267 Co266 2.216 1_565 S
O267 C274 1.247 . S
O268 Co266 2.091 . S
O268 C274 1.261 1_545 S
C269 O278 1.247 . S
C269 O279 1.272 . S
O270 Co266 2.004 . S
O270 C275 1.259 . S
Co271 O272 2.061 . S
Co271 O277 2.052 . S
Co271 O279 2.135 . S
O272 Co271 2.061 . S
O272 C275 1.235 . S
C273 O276 1.238 . S
C273 O277 1.241 . S
C274 O267 1.247 . S
C274 O268 1.261 1_565 S
C275 O270 1.259 . S
C275 O272 1.235 . S
O276 Co266 2.021 . S
O276 C273 1.238 . S
O277 Co271 2.052 . S
O277 C273 1.241 . S
O278 Co266 2.137 . S
O278 C269 1.247 . S
O279 Co266 2.244 . S
O279 C269 1.272 . S
O279 Co271 2.135 . S
Co280 O281 2.216 . S
Co280 O282 2.091 . S
Co280 O284 2.004 . S
Co280 O290 2.021 . S
Co280 O292 2.137 1_554 S
Co280 O293 2.244 1_554 S
O281 Co280 2.216 . S
O281 C288 1.247 . S
O282 Co280 2.091 . S
O282 C288 1.261 . S
C283 O292 1.247 . S
C283 O293 1.272 . S
O284 Co280 2.004 . S
O284 C289 1.259 . S
Co285 O286 2.061 . S
Co285 O291 2.052 . S
Co285 O293 2.135 1_554 S
O286 Co285 2.061 . S
O286 C289 1.235 . S
C287 O290 1.238 . S
C287 O291 1.241 . S
C288 O281 1.247 . S
C288 O282 1.261 . S
C289 O284 1.259 . S
C289 O286 1.235 . S
O290 Co280 2.021 . S
O290 C287 1.238 . S
O291 Co285 2.052 . S
O291 C287 1.241 . S
O292 Co280 2.137 1_556 S
O292 C283 1.247 . S
O293 Co280 2.244 1_556 S
O293 C283 1.272 . S
O293 Co285 2.135 1_556 S
Co294 O295 2.216 . S
Co294 O296 2.091 . S
Co294 O298 2.004 . S
Co294 O304 2.021 . S
Co294 O306 2.137 . S
Co294 O307 2.244 . S
O295 Co294 2.216 . S
O295 C302 1.247 . S
O296 Co294 2.091 . S
O296 C302 1.261 . S
C297 O306 1.247 . S
C297 O307 1.272 . S
O298 Co294 2.004 . S
O298 C303 1.259 . S
Co299 O300 2.061 . S
Co299 O305 2.052 . S
Co299 O307 2.135 . S
O300 Co299 2.061 . S
O300 C303 1.235 . S
C301 O304 1.238 . S
C301 O305 1.241 . S
C302 O295 1.247 . S
C302 O296 1.261 . S
C303 O298 1.259 . S
C303 O300 1.235 . S
O304 Co294 2.021 . S
O304 C301 1.238 . S
O305 Co299 2.052 . S
O305 C301 1.241 . S
O306 Co294 2.137 . S
O306 C297 1.247 . S
O307 Co294 2.244 . S
O307 C297 1.272 . S
O307 Co299 2.135 . S
Co308 O309 2.216 . S
Co308 O310 2.091 . S
Co308 O312 2.004 . S
Co308 O318 2.021 . S
Co308 O320 2.137 . S
Co308 O321 2.244 . S
O309 Co308 2.216 . S
O309 C316 1.247 . S
O310 Co308 2.091 . S
O310 C316 1.261 . S
C311 O320 1.247 . S
C311 O321 1.272 . S
O312 Co308 2.004 . S
O312 C317 1.259 . S
Co313 O314 2.061 . S
Co313 O319 2.052 . S
Co313 O321 2.135 . S
O314 Co313 2.061 . S
O314 C317 1.235 . S
C315 O318 1.238 . S
C315 O319 1.241 . S
C316 O309 1.247 . S
C316 O310 1.261 . S
C317 O312 1.259 . S
C317 O314 1.235 . S
O318 Co308 2.021 . S
O318 C315 1.238 . S
O319 Co313 2.052 . S
O319 C315 1.241 . S
O320 Co308 2.137 . S
O320 C311 1.247 . S
O321 Co308 2.244 . S
O321 C311 1.272 . S
O321 Co313 2.135 . S
Co322 O323 2.216 . S
Co322 O324 2.091 . S
Co322 O326 2.004 . S
Co322 O332 2.021 . S
Co322 O334 2.137 . S
Co322 O335 2.244 . S
O323 Co322 2.216 . S
O323 C330 1.247 . S
O324 Co322 2.091 . S
O324 C330 1.261 . S
C325 O334 1.247 . S
C325 O335 1.272 . S
O326 Co322 2.004 . S
O326 C331 1.259 . S
Co327 O328 2.061 . S
Co327 O333 2.052 . S
Co327 O335 2.135 . S
O328 Co327 2.061 . S
O328 C331 1.235 . S
C329 O332 1.238 . S
C329 O333 1.241 . S
C330 O323 1.247 . S
C330 O324 1.261 . S
C331 O326 1.259 . S
C331 O328 1.235 . S
O332 Co322 2.021 . S
O332 C329 1.238 . S
O333 Co327 2.052 . S
O333 C329 1.241 . S
O334 Co322 2.137 . S
O334 C325 1.247 . S
O335 Co322 2.244 . S
O335 C325 1.272 . S
O335 Co327 2.135 . S
Dy336 O340 2.398 1_554 S
Dy336 O341 2.491 . S
Dy336 O342 2.404 1_654 S
Dy336 O343 2.664 1_654 S
Dy336 O347 2.326 1_654 S
Dy336 O351 2.310 1_655 S
Dy336 O352 2.351 1_545 S
C337 O348 1.185 . S
C337 O349 1.355 . S
C338 O340 1.185 . S
C338 O341 1.355 1_556 S
Dy339 O343 2.310 1_554 S
Dy339 O346 2.351 . S
Dy339 O348 2.398 . S
Dy339 O349 2.491 . S
Dy339 O350 2.403 . S
Dy339 O351 2.664 . S
Dy339 O353 2.326 . S
O340 Dy336 2.398 1_556 S
O340 C338 1.185 . S
O341 Dy336 2.491 . S
O341 C338 1.355 1_554 S
O342 Dy336 2.404 1_456 S
O342 C344 1.252 . S
O343 Dy336 2.664 1_456 S
O343 Dy339 2.310 1_556 S
O343 C344 1.268 . S
C344 O342 1.252 . S
C344 O343 1.268 . S
C345 O350 1.254 . S
C345 O351 1.268 . S
O346 Dy339 2.351 . S
O346 C354 1.249 . S
O347 Dy336 2.326 1_456 S
O347 C354 1.267 1_556 S
O348 C337 1.185 . S
O348 Dy339 2.398 . S
O349 C337 1.355 . S
O349 Dy339 2.491 . S
O350 Dy339 2.403 . S
O350 C345 1.254 . S
O351 Dy336 2.310 1_455 S
O351 Dy339 2.664 . S
O351 C345 1.268 . S
O352 Dy336 2.351 1_565 S
O352 C355 1.249 1_655 S
O353 Dy339 2.326 . S
O353 C355 1.267 1_545 S
C354 O346 1.249 . S
C354 O347 1.267 1_554 S
C355 O352 1.249 1_455 S
C355 O353 1.267 1_565 S
Dy356 O360 2.398 . S
Dy356 O361 2.491 . S
Dy356 O362 2.403 . S
Dy356 O363 2.664 . S
Dy356 O367 2.326 . S
Dy356 O371 2.310 . S
Dy356 O372 2.351 . S
C357 O368 1.185 . S
C357 O369 1.355 . S
C358 O360 1.185 . S
C358 O361 1.355 . S
Dy359 O363 2.310 . S
Dy359 O366 2.351 . S
Dy359 O368 2.398 . S
Dy359 O369 2.491 . S
Dy359 O370 2.403 . S
Dy359 O371 2.664 . S
Dy359 O373 2.326 . S
O360 Dy356 2.398 . S
O360 C358 1.185 . S
O361 Dy356 2.491 . S
O361 C358 1.355 . S
O362 Dy356 2.403 . S
O362 C364 1.254 . S
O363 Dy356 2.664 . S
O363 Dy359 2.310 . S
O363 C364 1.268 . S
C364 O362 1.254 . S
C364 O363 1.268 . S
C365 O370 1.254 . S
C365 O371 1.268 . S
O366 Dy359 2.351 . S
O366 C374 1.249 . S
O367 Dy356 2.326 . S
O367 C374 1.267 . S
O368 C357 1.185 . S
O368 Dy359 2.398 . S
O369 C357 1.355 . S
O369 Dy359 2.491 . S
O370 Dy359 2.403 . S
O370 C365 1.254 . S
O371 Dy356 2.310 . S
O371 Dy359 2.664 . S
O371 C365 1.268 . S
O372 Dy356 2.351 . S
O372 C375 1.249 . S
O373 Dy359 2.326 . S
O373 C375 1.267 . S
C374 O366 1.249 . S
C374 O367 1.267 . S
C375 O372 1.249 . S
C375 O373 1.267 . S
Dy376 O380 2.398 . S
Dy376 O381 2.491 . S
Dy376 O382 2.403 . S
Dy376 O383 2.664 . S
Dy376 O387 2.326 1_545 S
Dy376 O391 2.310 . S
Dy376 O392 2.351 . S
C377 O388 1.185 . S
C377 O389 1.355 . S
C378 O380 1.208 . S
C378 O381 1.357 . S
Dy379 O383 2.310 . S
Dy379 O386 2.351 1_545 S
Dy379 O388 2.398 . S
Dy379 O389 2.491 . S
Dy379 O390 2.403 . S
Dy379 O391 2.664 . S
Dy379 O393 2.326 . S
O380 Dy376 2.398 . S
O380 C378 1.208 . S
O381 Dy376 2.491 . S
O381 C378 1.357 . S
O382 Dy376 2.403 . S
O382 C384 1.254 . S
O383 Dy376 2.664 . S
O383 Dy379 2.310 . S
O383 C384 1.268 . S
C384 O382 1.254 . S
C384 O383 1.268 . S
C385 O390 1.254 . S
C385 O391 1.268 . S
O386 Dy379 2.351 1_565 S
O386 C394 1.249 . S
O387 Dy376 2.326 1_565 S
O387 C394 1.267 . S
O388 C377 1.185 . S
O388 Dy379 2.398 . S
O389 C377 1.355 . S
O389 Dy379 2.491 . S
O390 Dy379 2.403 . S
O390 C385 1.254 . S
O391 Dy376 2.310 . S
O391 Dy379 2.664 . S
O391 C385 1.268 . S
O392 Dy376 2.351 . S
O392 C395 1.249 . S
O393 Dy379 2.326 . S
O393 C395 1.267 . S
C394 O386 1.249 . S
C394 O387 1.267 . S
C395 O392 1.249 . S
C395 O393 1.267 . S
Dy396 O400 2.398 . S
Dy396 O401 2.491 . S
Dy396 O402 2.403 . S
Dy396 O403 2.664 . S
Dy396 O407 2.326 . S
Dy396 O411 2.310 . S
Dy396 O412 2.351 . S
C397 O408 1.185 . S
C397 O409 1.355 . S
C398 O400 1.185 . S
C398 O401 1.355 . S
Dy399 O403 2.310 . S
Dy399 O406 2.351 . S
Dy399 O408 2.398 . S
Dy399 O409 2.491 . S
Dy399 O410 2.403 . S
Dy399 O411 2.664 . S
Dy399 O413 2.326 . S
O400 Dy396 2.398 . S
O400 C398 1.185 . S
O401 Dy396 2.491 . S
O401 C398 1.355 . S
O402 Dy396 2.403 . S
O402 C404 1.254 . S
O403 Dy396 2.664 . S
O403 Dy399 2.310 . S
O403 C404 1.268 . S
C404 O402 1.254 . S
C404 O403 1.268 . S
C405 O410 1.254 . S
C405 O411 1.268 . S
O406 Dy399 2.351 . S
O406 C414 1.249 . S
O407 Dy396 2.326 . S
O407 C414 1.267 . S
O408 C397 1.185 . S
O408 Dy399 2.398 . S
O409 C397 1.355 . S
O409 Dy399 2.491 . S
O410 Dy399 2.403 . S
O410 C405 1.254 . S
O411 Dy396 2.310 . S
O411 Dy399 2.664 . S
O411 C405 1.268 . S
O412 Dy396 2.351 . S
O412 C415 1.249 . S
O413 Dy399 2.326 . S
O413 C415 1.267 . S
C414 O406 1.249 . S
C414 O407 1.267 . S
C415 O412 1.249 . S
C415 O413 1.267 . S
Dy416 O420 2.398 . S
Dy416 O421 2.491 1_455 S
Dy416 O422 2.403 . S
Dy416 O423 2.664 . S
Dy416 O427 2.326 . S
Dy416 O431 2.310 1_455 S
Dy416 O432 2.351 1_545 S
C417 O428 1.185 . S
C417 O429 1.355 . S
C418 O420 1.185 1_655 S
C418 O421 1.355 . S
Dy419 O423 2.310 . S
Dy419 O426 2.351 . S
Dy419 O428 2.398 . S
Dy419 O429 2.491 . S
Dy419 O430 2.403 1_455 S
Dy419 O431 2.664 1_455 S
Dy419 O433 2.328 1_545 S
O420 Dy416 2.398 . S
O420 C418 1.185 1_455 S
O421 Dy416 2.491 1_655 S
O421 C418 1.355 . S
O422 Dy416 2.403 . S
O422 C424 1.254 . S
O423 Dy416 2.664 . S
O423 Dy419 2.310 . S
O423 C424 1.268 . S
C424 O422 1.254 . S
C424 O423 1.268 . S
C425 O430 1.254 . S
C425 O431 1.268 . S
O426 Dy419 2.351 . S
O426 C434 1.249 . S
O427 Dy416 2.326 . S
O427 C434 1.267 . S
O428 C417 1.185 . S
O428 Dy419 2.398 . S
O429 C417 1.355 . S
O429 Dy419 2.491 . S
O430 Dy419 2.403 1_655 S
O430 C425 1.254 . S
O431 Dy416 2.310 1_655 S
O431 Dy419 2.664 1_655 S
O431 C425 1.268 . S
O432 Dy416 2.351 1_565 S
O432 C435 1.249 . S
O433 Dy419 2.328 1_565 S
O433 C435 1.266 . S
C434 O426 1.249 . S
C434 O427 1.267 . S
C435 O432 1.249 . S
C435 O433 1.266 . S
Dy436 O440 2.398 . S
Dy436 O441 2.491 . S
Dy436 O442 2.403 . S
Dy436 O443 2.664 . S
Dy436 O447 2.326 . S
Dy436 O451 2.310 . S
Dy436 O452 2.351 . S
C437 O448 1.185 . S
C437 O449 1.355 . S
C438 O440 1.185 . S
C438 O441 1.355 . S
Dy439 O443 2.310 . S
Dy439 O446 2.351 . S
Dy439 O448 2.398 . S
Dy439 O449 2.491 . S
Dy439 O450 2.403 . S
Dy439 O451 2.664 . S
Dy439 O453 2.326 . S
O440 Dy436 2.398 . S
O440 C438 1.185 . S
O441 Dy436 2.491 . S
O441 C438 1.355 . S
O442 Dy436 2.403 . S
O442 C444 1.254 . S
O443 Dy436 2.664 . S
O443 Dy439 2.310 . S
O443 C444 1.268 . S
C444 O442 1.254 . S
C444 O443 1.268 . S
C445 O450 1.254 . S
C445 O451 1.268 . S
O446 Dy439 2.351 . S
O446 C454 1.249 . S
O447 Dy436 2.326 . S
O447 C454 1.267 . S
O448 C437 1.185 . S
O448 Dy439 2.398 . S
O449 C437 1.355 . S
O449 Dy439 2.491 . S
O450 Dy439 2.403 . S
O450 C445 1.254 . S
O451 Dy436 2.310 . S
O451 Dy439 2.664 . S
O451 C445 1.268 . S
O452 Dy436 2.351 . S
O452 C455 1.249 . S
O453 Dy439 2.326 . S
O453 C455 1.267 . S
C454 O446 1.249 . S
C454 O447 1.267 . S
C455 O452 1.249 . S
C455 O453 1.267 . S
Dy456 O460 2.398 1_545 S
Dy456 O461 2.491 . S
Dy456 O462 2.403 1_545 S
Dy456 O463 2.708 . S
Dy456 O467 2.326 . S
Dy456 O471 2.310 . S
Dy456 O472 2.351 . S
C457 O468 1.185 . S
C457 O469 1.355 . S
C458 O460 1.185 1_545 S
C458 O461 1.355 . S
Dy459 O463 2.285 1_556 S
Dy459 O466 2.351 . S
Dy459 O468 2.398 . S
Dy459 O469 2.491 . S
Dy459 O470 2.413 . S
Dy459 O471 2.664 1_556 S
Dy459 O473 2.326 . S
O460 Dy456 2.398 1_565 S
O460 C458 1.185 1_565 S
O461 Dy456 2.491 . S
O461 C458 1.355 . S
O462 Dy456 2.403 1_565 S
O462 C464 1.254 . S
O463 Dy456 2.708 . S
O463 Dy459 2.285 1_554 S
O463 C464 1.285 1_545 S
C464 O462 1.254 . S
C464 O463 1.285 1_565 S
C465 O470 1.227 1_554 S
C465 O471 1.268 . S
O466 Dy459 2.351 . S
O466 C474 1.249 1_556 S
O467 Dy456 2.326 . S
O467 C474 1.267 . S
O468 C457 1.185 . S
O468 Dy459 2.398 . S
O469 C457 1.355 . S
O469 Dy459 2.491 . S
O470 Dy459 2.413 . S
O470 C465 1.227 1_556 S
O471 Dy456 2.310 . S
O471 Dy459 2.664 1_554 S
O471 C465 1.268 . S
O472 Dy456 2.351 . S
O472 C475 1.249 . S
O473 Dy459 2.326 . S
O473 C475 1.267 1_556 S
C474 O466 1.249 1_554 S
C474 O467 1.267 . S
C475 O472 1.249 . S
C475 O473 1.267 1_554 S
Dy476 O480 2.398 . S
Dy476 O481 2.491 . S
Dy476 O482 2.403 . S
Dy476 O483 2.664 . S
Dy476 O487 2.326 . S
Dy476 O491 2.310 . S
Dy476 O492 2.351 . S
C477 O488 1.185 . S
C477 O489 1.355 . S
C478 O480 1.185 . S
C478 O481 1.355 . S
Dy479 O483 2.310 . S
Dy479 O486 2.351 . S
Dy479 O488 2.398 . S
Dy479 O489 2.491 . S
Dy479 O490 2.403 . S
Dy479 O491 2.664 . S
Dy479 O493 2.326 . S
O480 Dy476 2.398 . S
O480 C478 1.185 . S
O481 Dy476 2.491 . S
O481 C478 1.355 . S
O482 Dy476 2.403 . S
O482 C484 1.254 . S
O483 Dy476 2.664 . S
O483 Dy479 2.310 . S
O483 C484 1.268 . S
C484 O482 1.254 . S
C484 O483 1.268 . S
C485 O490 1.254 . S
C485 O491 1.268 . S
O486 Dy479 2.351 . S
O486 C494 1.249 . S
O487 Dy476 2.326 . S
O487 C494 1.267 . S
O488 C477 1.185 . S
O488 Dy479 2.398 . S
O489 C477 1.355 . S
O489 Dy479 2.491 . S
O490 Dy479 2.403 . S
O490 C485 1.254 . S
O491 Dy476 2.310 . S
O491 Dy479 2.664 . S
O491 C485 1.268 . S
O492 Dy476 2.351 . S
O492 C495 1.249 . S
O493 Dy479 2.326 . S
O493 C495 1.267 . S
C494 O486 1.249 . S
C494 O487 1.267 . S
C495 O492 1.249 . S
C495 O493 1.267 . S
Dy496 O500 2.398 . S
Dy496 O501 2.491 . S
Dy496 O502 2.403 . S
Dy496 O503 2.664 1_556 S
Dy496 O507 2.326 . S
Dy496 O511 2.310 1_556 S
Dy496 O512 2.351 1_556 S
C497 O508 1.185 . S
C497 O509 1.355 . S
C498 O500 1.185 . S
C498 O501 1.355 . S
Dy499 O503 2.310 . S
Dy499 O506 2.351 . S
Dy499 O508 2.398 . S
Dy499 O509 2.491 . S
Dy499 O510 2.403 . S
Dy499 O511 2.664 . S
Dy499 O513 2.326 . S
O500 Dy496 2.398 . S
O500 C498 1.185 . S
O501 Dy496 2.491 . S
O501 C498 1.355 . S
O502 Dy496 2.403 . S
O502 C504 1.254 1_556 S
O503 Dy496 2.664 1_554 S
O503 Dy499 2.310 . S
O503 C504 1.268 . S
C504 O502 1.254 1_554 S
C504 O503 1.268 . S
C505 O510 1.254 . S
C505 O511 1.268 . S
O506 Dy499 2.351 . S
O506 C514 1.249 1_554 S
O507 Dy496 2.326 . S
O507 C514 1.267 . S
O508 C497 1.185 . S
O508 Dy499 2.398 . S
O509 C497 1.355 . S
O509 Dy499 2.491 . S
O510 Dy499 2.403 . S
O510 C505 1.254 . S
O511 Dy496 2.310 1_554 S
O511 Dy499 2.664 . S
O511 C505 1.268 . S
O512 Dy496 2.351 1_554 S
O512 C515 1.249 . S
O513 Dy499 2.326 . S
O513 C515 1.267 . S
C514 O506 1.249 1_556 S
C514 O507 1.267 . S
C515 O512 1.249 . S
C515 O513 1.267 . S
Dy516 O520 2.398 . S
Dy516 O521 2.491 . S
Dy516 O522 2.403 . S
Dy516 O523 2.664 . S
Dy516 O527 2.326 . S
Dy516 O531 2.310 . S
Dy516 O532 2.351 . S
C517 O528 1.185 . S
C517 O529 1.355 . S
C518 O520 1.185 . S
C518 O521 1.355 . S
Dy519 O523 2.310 . S
Dy519 O526 2.351 . S
Dy519 O528 2.398 . S
Dy519 O529 2.491 . S
Dy519 O530 2.403 . S
Dy519 O531 2.664 . S
Dy519 O533 2.326 . S
O520 Dy516 2.398 . S
O520 C518 1.185 . S
O521 Dy516 2.491 . S
O521 C518 1.355 . S
O522 Dy516 2.403 . S
O522 C524 1.254 . S
O523 Dy516 2.664 . S
O523 Dy519 2.310 . S
O523 C524 1.268 . S
C524 O522 1.254 . S
C524 O523 1.268 . S
C525 O530 1.254 . S
C525 O531 1.268 . S
O526 Dy519 2.351 . S
O526 C534 1.249 . S
O527 Dy516 2.326 . S
O527 C534 1.267 . S
O528 C517 1.185 . S
O528 Dy519 2.398 . S
O529 C517 1.355 . S
O529 Dy519 2.491 . S
O530 Dy519 2.403 . S
O530 C525 1.254 . S
O531 Dy516 2.310 . S
O531 Dy519 2.664 . S
O531 C525 1.268 . S
O532 Dy516 2.351 . S
O532 C535 1.249 . S
O533 Dy519 2.326 . S
O533 C535 1.267 . S
C534 O526 1.249 . S
C534 O527 1.267 . S
C535 O532 1.249 . S
C535 O533 1.267 . S
Dy536 O540 2.398 1_455 S
Dy536 O541 2.491 1_455 S
Dy536 O542 2.403 . S
Dy536 O543 2.664 . S
Dy536 O547 2.326 1_455 S
Dy536 O551 2.310 . S
Dy536 O552 2.351 . S
C537 O548 1.185 . S
C537 O549 1.355 . S
C538 O540 1.185 . S
C538 O541 1.355 . S
Dy539 O543 2.310 . S
Dy539 O546 2.351 1_455 S
Dy539 O548 2.398 . S
Dy539 O549 2.491 . S
Dy539 O550 2.403 . S
Dy539 O551 2.664 . S
Dy539 O553 2.326 . S
O540 Dy536 2.398 1_655 S
O540 C538 1.185 . S
O541 Dy536 2.491 1_655 S
O541 C538 1.355 . S
O542 Dy536 2.403 . S
O542 C544 1.254 . S
O543 Dy536 2.664 . S
O543 Dy539 2.310 . S
O543 C544 1.268 . S
C544 O542 1.254 . S
C544 O543 1.268 . S
C545 O550 1.254 . S
C545 O551 1.268 . S
O546 Dy539 2.351 1_655 S
O546 C554 1.249 . S
O547 Dy536 2.326 1_655 S
O547 C554 1.267 . S
O548 C537 1.185 . S
O548 Dy539 2.398 . S
O549 C537 1.355 . S
O549 Dy539 2.491 . S
O550 Dy539 2.403 . S
O550 C545 1.254 . S
O551 Dy536 2.310 . S
O551 Dy539 2.664 . S
O551 C545 1.268 . S
O552 Dy536 2.351 . S
O552 C555 1.249 . S
O553 Dy539 2.326 . S
O553 C555 1.267 . S
C554 O546 1.249 . S
C554 O547 1.267 . S
C555 O552 1.249 . S
C555 O553 1.267 . S
Dy556 O560 2.398 . S
Dy556 O561 2.491 . S
Dy556 O562 2.403 . S
Dy556 O563 2.664 . S
Dy556 O567 2.326 . S
Dy556 O571 2.310 . S
Dy556 O572 2.351 . S
C557 O568 1.185 . S
C557 O569 1.355 . S
C558 O560 1.185 . S
C558 O561 1.355 . S
Dy559 O563 2.310 . S
Dy559 O566 2.351 . S
Dy559 O568 2.398 . S
Dy559 O569 2.491 . S
Dy559 O570 2.403 . S
Dy559 O571 2.664 . S
Dy559 O573 2.326 . S
O560 Dy556 2.398 . S
O560 C558 1.185 . S
O561 Dy556 2.491 . S
O561 C558 1.355 . S
O562 Dy556 2.403 . S
O562 C564 1.254 . S
O563 Dy556 2.664 . S
O563 Dy559 2.310 . S
O563 C564 1.268 . S
C564 O562 1.254 . S
C564 O563 1.268 . S
C565 O570 1.254 . S
C565 O571 1.268 . S
O566 Dy559 2.351 . S
O566 C574 1.249 . S
O567 Dy556 2.326 . S
O567 C574 1.267 . S
O568 C557 1.185 . S
O568 Dy559 2.398 . S
O569 C557 1.355 . S
O569 Dy559 2.491 . S
O570 Dy559 2.403 . S
O570 C565 1.254 . S
O571 Dy556 2.310 . S
O571 Dy559 2.664 . S
O571 C565 1.268 . S
O572 Dy556 2.351 . S
O572 C575 1.249 . S
O573 Dy559 2.326 . S
O573 C575 1.267 . S
C574 O566 1.249 . S
C574 O567 1.267 . S
C575 O572 1.249 . S
C575 O573 1.267 . S
Dy576 O580 2.398 . S
Dy576 O581 2.491 . S
Dy576 O582 2.403 . S
Dy576 O583 2.664 . S
Dy576 O587 2.326 . S
Dy576 O591 2.310 . S
Dy576 O592 2.351 . S
C577 O588 1.185 . S
C577 O589 1.355 . S
C578 O580 1.185 . S
C578 O581 1.355 . S
Dy579 O583 2.310 . S
Dy579 O586 2.351 . S
Dy579 O588 2.398 . S
Dy579 O589 2.491 . S
Dy579 O590 2.403 . S
Dy579 O591 2.664 . S
Dy579 O593 2.326 . S
O580 Dy576 2.398 . S
O580 C578 1.185 . S
O581 Dy576 2.491 . S
O581 C578 1.355 . S
O582 Dy576 2.403 . S
O582 C584 1.254 . S
O583 Dy576 2.664 . S
O583 Dy579 2.310 . S
O583 C584 1.268 . S
C584 O582 1.254 . S
C584 O583 1.268 . S
C585 O590 1.254 . S
C585 O591 1.268 . S
O586 Dy579 2.351 . S
O586 C594 1.249 . S
O587 Dy576 2.326 . S
O587 C594 1.267 . S
O588 C577 1.185 . S
O588 Dy579 2.398 . S
O589 C577 1.355 . S
O589 Dy579 2.491 . S
O590 Dy579 2.403 . S
O590 C585 1.254 . S
O591 Dy576 2.310 . S
O591 Dy579 2.664 . S
O591 C585 1.268 . S
O592 Dy576 2.351 . S
O592 C595 1.249 . S
O593 Dy579 2.326 . S
O593 C595 1.267 . S
C594 O586 1.249 . S
C594 O587 1.267 . S
C595 O592 1.249 . S
C595 O593 1.267 . S
Dy596 O600 2.398 . S
Dy596 O601 2.491 . S
Dy596 O602 2.403 . S
Dy596 O603 2.664 . S
Dy596 O607 2.326 . S
Dy596 O611 2.310 . S
Dy596 O612 2.351 . S
C597 O608 1.185 . S
C597 O609 1.355 . S
C598 O600 1.185 . S
C598 O601 1.355 . S
Dy599 O603 2.310 . S
Dy599 O606 2.351 . S
Dy599 O608 2.398 . S
Dy599 O609 2.491 . S
Dy599 O610 2.403 . S
Dy599 O611 2.664 . S
Dy599 O613 2.326 . S
O600 Dy596 2.398 . S
O600 C598 1.185 . S
O601 Dy596 2.491 . S
O601 C598 1.355 . S
O602 Dy596 2.403 . S
O602 C604 1.254 . S
O603 Dy596 2.664 . S
O603 Dy599 2.310 . S
O603 C604 1.268 . S
C604 O602 1.254 . S
C604 O603 1.268 . S
C605 O610 1.254 . S
C605 O611 1.268 . S
O606 Dy599 2.351 . S
O606 C614 1.249 . S
O607 Dy596 2.326 . S
O607 C614 1.267 . S
O608 C597 1.185 . S
O608 Dy599 2.398 . S
O609 C597 1.355 . S
O609 Dy599 2.491 . S
O610 Dy599 2.403 . S
O610 C605 1.254 . S
O611 Dy596 2.310 . S
O611 Dy599 2.664 . S
O611 C605 1.268 . S
O612 Dy596 2.351 . S
O612 C615 1.249 . S
O613 Dy599 2.326 . S
O613 C615 1.267 . S
C614 O606 1.249 . S
C614 O607 1.267 . S
C615 O612 1.249 . S
C615 O613 1.267 . S
Dy616 O620 2.398 . S
Dy616 O621 2.491 . S
Dy616 O622 2.403 . S
Dy616 O623 2.664 . S
Dy616 O627 2.326 . S
Dy616 O631 2.310 . S
Dy616 O632 2.351 . S
C617 O628 1.185 . S
C617 O629 1.355 . S
C618 O620 1.185 . S
C618 O621 1.355 . S
Dy619 O623 2.310 . S
Dy619 O626 2.351 . S
Dy619 O628 2.398 . S
Dy619 O629 2.491 . S
Dy619 O630 2.403 . S
Dy619 O631 2.664 . S
Dy619 O633 2.326 . S
O620 Dy616 2.398 . S
O620 C618 1.185 . S
O621 Dy616 2.491 . S
O621 C618 1.355 . S
O622 Dy616 2.403 . S
O622 C624 1.254 . S
O623 Dy616 2.664 . S
O623 Dy619 2.310 . S
O623 C624 1.268 . S
C624 O622 1.254 . S
C624 O623 1.268 . S
C625 O630 1.254 . S
C625 O631 1.268 . S
O626 Dy619 2.351 . S
O626 C634 1.249 . S
O627 Dy616 2.326 . S
O627 C634 1.267 . S
O628 C617 1.185 . S
O628 Dy619 2.398 . S
O629 C617 1.355 . S
O629 Dy619 2.491 . S
O630 Dy619 2.403 . S
O630 C625 1.254 . S
O631 Dy616 2.310 . S
O631 Dy619 2.664 . S
O631 C625 1.268 . S
O632 Dy616 2.351 . S
O632 C635 1.249 . S
O633 Dy619 2.326 . S
O633 C635 1.267 . S
C634 O626 1.249 . S
C634 O627 1.267 . S
C635 O632 1.249 . S
C635 O633 1.267 . S
Dy636 O640 2.398 1_554 S
Dy636 O641 2.491 . S
Dy636 O642 2.403 1_554 S
Dy636 O643 2.664 1_554 S
Dy636 O647 2.326 1_554 S
Dy636 O651 2.310 . S
Dy636 O652 2.351 . S
C637 O648 1.185 . S
C637 O649 1.355 . S
C638 O640 1.210 . S
C638 O641 1.323 1_556 S
Dy639 O643 2.310 1_654 S
Dy639 O646 2.351 . S
Dy639 O648 2.398 . S
Dy639 O649 2.491 . S
Dy639 O650 2.403 . S
Dy639 O651 2.664 1_655 S
Dy639 O653 2.311 1_655 S
O640 Dy636 2.398 1_556 S
O640 C638 1.210 . S
O641 Dy636 2.491 . S
O641 C638 1.323 1_554 S
O642 Dy636 2.403 1_556 S
O642 C644 1.254 . S
O643 Dy636 2.664 1_556 S
O643 Dy639 2.310 1_456 S
O643 C644 1.268 . S
C644 O642 1.254 . S
C644 O643 1.268 . S
C645 O650 1.254 1_455 S
C645 O651 1.268 . S
O646 Dy639 2.351 . S
O646 C654 1.249 1_655 S
O647 Dy636 2.326 1_556 S
O647 C654 1.267 1_556 S
O648 C637 1.185 . S
O648 Dy639 2.398 . S
O649 C637 1.355 . S
O649 Dy639 2.491 . S
O650 Dy639 2.403 . S
O650 C645 1.254 1_655 S
O651 Dy636 2.310 . S
O651 Dy639 2.664 1_455 S
O651 C645 1.268 . S
O652 Dy636 2.351 . S
O652 C655 1.249 . S
O653 Dy639 2.311 1_455 S
O653 C655 1.299 . S
C654 O646 1.249 1_455 S
C654 O647 1.267 1_554 S
C655 O652 1.249 . S
C655 O653 1.299 . S
H656 C664 0.929 . S
H657 C666 0.930 . S
H658 C668 0.930 . S
H659 C671 0.929 . S
H660 C674 0.930 . S
H661 C676 0.960 . S
H662 C676 0.960 1_455 S
H663 C676 0.960 . S
C664 H656 0.929 . S
C664 C665 1.377 . S
C664 C666 1.384 . S
C665 C664 1.377 . S
C665 C671 1.390 1_455 S
C666 H657 0.930 . S
C666 C664 1.384 . S
C666 C667 1.372 . S
C667 C666 1.372 . S
C667 C668 1.400 1_455 S
C667 C672 1.490 . S
C668 H658 0.930 . S
C668 C667 1.400 1_655 S
C668 C671 1.386 . S
H669 C685 0.930 . S
H670 C686 0.931 . S
C671 H659 0.929 . S
C671 C665 1.390 1_655 S
C671 C668 1.386 . S
C672 C667 1.490 . S
C672 C674 1.395 . S
C672 C675 1.403 . S
H673 C679 0.930 . S
C674 H660 0.930 . S
C674 C672 1.395 . S
C674 C677 1.403 . S
C675 C672 1.403 . S
C675 C676 1.524 1_455 S
C675 C679 1.400 . S
C676 H661 0.960 . S
C676 H662 0.960 1_655 S
C676 H663 0.960 . S
C676 C675 1.524 1_655 S
C677 C674 1.403 . S
C677 C678 1.392 . S
C677 C681 1.495 1_556 S
C678 C677 1.392 . S
C678 C679 1.385 . S
C678 C680 1.478 . S
C679 H673 0.930 . S
C679 C675 1.400 . S
C679 C678 1.385 . S
C680 C678 1.478 . S
C680 C682 1.381 . S
C680 C686 1.383 1_455 S
C681 C677 1.495 1_554 S
C681 H687 0.959 . S
C681 H688 0.961 . S
C681 H689 0.960 . S
C682 C680 1.381 . S
C682 C683 1.384 1_556 S
C682 H690 0.930 . S
C683 C682 1.384 1_554 S
C683 C684 1.388 . S
C683 H691 0.936 . S
C684 C683 1.388 . S
C684 C685 1.377 1_454 S
C685 H669 0.930 . S
C685 C684 1.377 1_656 S
C685 C686 1.379 . S
C686 H670 0.931 . S
C686 C680 1.383 1_655 S
C686 C685 1.379 . S
H687 C681 0.959 . S
H688 C681 0.961 . S
H689 C681 0.960 . S
H690 C682 0.930 . S
H691 C683 0.936 . S
H692 C700 0.929 . S
H693 C702 0.930 . S
H694 C704 0.930 . S
H695 C707 0.929 . S
H696 C710 0.930 . S
H697 C712 0.960 . S
H698 C712 0.960 . S
H699 C712 0.960 . S
C700 H692 0.929 . S
C700 C701 1.377 . S
C700 C702 1.384 . S
C701 C700 1.377 . S
C701 C707 1.390 . S
C702 H693 0.930 . S
C702 C700 1.384 . S
C702 C703 1.372 . S
C703 C702 1.372 . S
C703 C704 1.400 . S
C703 C708 1.490 . S
C704 H694 0.930 . S
C704 C703 1.400 . S
C704 C707 1.386 . S
H705 C721 0.930 . S
H706 C722 0.931 . S
C707 H695 0.929 . S
C707 C701 1.390 . S
C707 C704 1.386 . S
C708 C703 1.490 . S
C708 C710 1.395 . S
C708 C711 1.403 . S
H709 C715 0.930 . S
C710 H696 0.930 . S
C710 C708 1.395 . S
C710 C713 1.403 . S
C711 C708 1.403 . S
C711 C712 1.524 . S
C711 C715 1.400 . S
C712 H697 0.960 . S
C712 H698 0.960 . S
C712 H699 0.960 . S
C712 C711 1.524 . S
C713 C710 1.403 . S
C713 C714 1.392 . S
C713 C717 1.495 . S
C714 C713 1.392 . S
C714 C715 1.385 . S
C714 C716 1.478 . S
C715 H709 0.930 . S
C715 C711 1.400 . S
C715 C714 1.385 . S
C716 C714 1.478 . S
C716 C718 1.381 . S
C716 C722 1.383 . S
C717 C713 1.495 . S
C717 H723 0.959 . S
C717 H724 0.961 . S
C717 H725 0.960 . S
C718 C716 1.381 . S
C718 C719 1.394 . S
C718 H726 0.930 . S
C719 C718 1.394 . S
C719 C720 1.383 . S
C719 H727 0.929 . S
C720 C719 1.383 . S
C720 C721 1.377 . S
C721 H705 0.930 . S
C721 C720 1.377 . S
C721 C722 1.379 . S
C722 H706 0.931 . S
C722 C716 1.383 . S
C722 C721 1.379 . S
H723 C717 0.959 . S
H724 C717 0.961 . S
H725 C717 0.960 . S
H726 C718 0.930 . S
H727 C719 0.929 . S
H728 C736 0.929 . S
H729 C738 0.930 . S
H730 C740 0.930 . S
H731 C743 0.929 . S
H732 C746 0.930 . S
H733 C748 0.960 . S
H734 C748 0.960 . S
H735 C748 0.960 . S
C736 H728 0.929 . S
C736 C737 1.377 . S
C736 C738 1.384 . S
C737 C736 1.377 . S
C737 C743 1.390 . S
C738 H729 0.930 . S
C738 C736 1.384 . S
C738 C739 1.372 . S
C739 C738 1.372 . S
C739 C740 1.400 . S
C739 C744 1.490 . S
C740 H730 0.930 . S
C740 C739 1.400 . S
C740 C743 1.386 . S
H741 C757 0.930 . S
H742 C758 0.931 . S
C743 H731 0.929 . S
C743 C737 1.390 . S
C743 C740 1.386 . S
C744 C739 1.490 . S
C744 C746 1.395 . S
C744 C747 1.403 . S
H745 C751 0.930 . S
C746 H732 0.930 . S
C746 C744 1.395 . S
C746 C749 1.403 . S
C747 C744 1.403 . S
C747 C748 1.524 . S
C747 C751 1.400 . S
C748 H733 0.960 . S
C748 H734 0.960 . S
C748 H735 0.960 . S
C748 C747 1.524 . S
C749 C746 1.403 . S
C749 C750 1.392 . S
C749 C753 1.495 . S
C750 C749 1.392 . S
C750 C751 1.385 . S
C750 C752 1.478 . S
C751 H745 0.930 . S
C751 C747 1.400 . S
C751 C750 1.385 . S
C752 C750 1.478 . S
C752 C754 1.381 . S
C752 C758 1.383 . S
C753 C749 1.495 . S
C753 H759 0.959 . S
C753 H760 0.961 . S
C753 H761 0.960 . S
C754 C752 1.381 . S
C754 C755 1.394 . S
C754 H762 0.930 . S
C755 C754 1.394 . S
C755 C756 1.383 . S
C755 H763 0.929 . S
C756 C755 1.383 . S
C756 C757 1.377 . S
C757 H741 0.930 . S
C757 C756 1.377 . S
C757 C758 1.379 . S
C758 H742 0.931 . S
C758 C752 1.383 . S
C758 C757 1.379 . S
H759 C753 0.959 . S
H760 C753 0.961 . S
H761 C753 0.960 . S
H762 C754 0.930 . S
H763 C755 0.929 . S
H764 C772 0.929 . S
H765 C774 0.930 . S
H766 C776 0.930 . S
H767 C779 0.929 . S
H768 C782 0.930 . S
H769 C784 0.960 . S
H770 C784 0.960 . S
H771 C784 0.960 . S
C772 H764 0.929 . S
C772 C773 1.377 . S
C772 C774 1.384 . S
C773 C772 1.377 . S
C773 C779 1.390 . S
C774 H765 0.930 . S
C774 C772 1.384 . S
C774 C775 1.372 . S
C775 C774 1.372 . S
C775 C776 1.400 . S
C775 C780 1.490 . S
C776 H766 0.930 . S
C776 C775 1.400 . S
C776 C779 1.386 . S
H777 C793 0.930 . S
H778 C794 0.931 . S
C779 H767 0.929 . S
C779 C773 1.390 . S
C779 C776 1.386 . S
C780 C775 1.490 . S
C780 C782 1.395 . S
C780 C783 1.403 . S
H781 C787 0.930 . S
C782 H768 0.930 . S
C782 C780 1.395 . S
C782 C785 1.403 . S
C783 C780 1.403 . S
C783 C784 1.524 . S
C783 C787 1.400 . S
C784 H769 0.960 . S
C784 H770 0.960 . S
C784 H771 0.960 . S
C784 C783 1.524 . S
C785 C782 1.403 . S
C785 C786 1.392 . S
C785 C789 1.495 . S
C786 C785 1.392 . S
C786 C787 1.385 . S
C786 C788 1.478 . S
C787 H781 0.930 . S
C787 C783 1.400 . S
C787 C786 1.385 . S
C788 C786 1.478 . S
C788 C790 1.381 . S
C788 C794 1.383 . S
C789 C785 1.495 . S
C789 H795 0.959 . S
C789 H796 0.961 . S
C789 H797 0.960 . S
C790 C788 1.381 . S
C790 C791 1.394 . S
C790 H798 0.930 . S
C791 C790 1.394 . S
C791 C792 1.383 . S
C791 H799 0.929 . S
C792 C791 1.383 . S
C792 C793 1.377 . S
C793 H777 0.930 . S
C793 C792 1.377 . S
C793 C794 1.379 . S
C794 H778 0.931 . S
C794 C788 1.383 . S
C794 C793 1.379 . S
H795 C789 0.959 . S
H796 C789 0.961 . S
H797 C789 0.960 . S
H798 C790 0.930 . S
H799 C791 0.929 . S
H800 C808 0.929 . S
H801 C810 0.930 . S
H802 C812 0.930 . S
H803 C815 0.929 . S
H804 C818 0.905 1_655 S
H805 C820 0.960 . S
H806 C820 0.960 . S
H807 C820 0.960 . S
C808 H800 0.929 . S
C808 C809 1.377 1_655 S
C808 C810 1.384 . S
C809 C808 1.377 1_455 S
C809 C815 1.390 . S
C810 H801 0.930 . S
C810 C808 1.384 . S
C810 C811 1.372 1_655 S
C811 C810 1.372 1_455 S
C811 C812 1.400 . S
C811 C816 1.490 . S
C812 H802 0.930 . S
C812 C811 1.400 . S
C812 C815 1.386 . S
H813 C829 0.930 . S
H814 C830 0.931 . S
C815 H803 0.929 . S
C815 C809 1.390 . S
C815 C812 1.386 . S
C816 C811 1.490 . S
C816 C818 1.395 . S
C816 C819 1.403 . S
H817 C823 0.930 . S
C818 H804 0.905 1_455 S
C818 C816 1.395 . S
C818 C821 1.403 . S
C819 C816 1.403 . S
C819 C820 1.524 . S
C819 C823 1.400 . S
C820 H805 0.960 . S
C820 H806 0.960 . S
C820 H807 0.960 . S
C820 C819 1.524 . S
C821 C818 1.403 . S
C821 C822 1.392 . S
C821 C825 1.495 1_455 S
C822 C821 1.392 . S
C822 C823 1.385 . S
C822 C824 1.478 . S
C823 H817 0.930 . S
C823 C819 1.400 . S
C823 C822 1.385 . S
C824 C822 1.478 . S
C824 C826 1.381 . S
C824 C830 1.383 . S
C825 C821 1.495 1_655 S
C825 H831 0.959 . S
C825 H832 0.961 1_655 S
C825 H833 0.960 . S
C826 C824 1.381 . S
C826 C827 1.394 . S
C826 H834 0.930 1_455 S
C827 C826 1.394 . S
C827 C828 1.383 . S
C827 H835 0.929 1_455 S
C828 C827 1.383 . S
C828 C829 1.377 . S
C829 H813 0.930 . S
C829 C828 1.377 . S
C829 C830 1.379 . S
C830 H814 0.931 . S
C830 C824 1.383 . S
C830 C829 1.379 . S
H831 C825 0.959 . S
H832 C825 0.961 1_455 S
H833 C825 0.960 . S
H834 C826 0.930 1_655 S
H835 C827 0.929 1_655 S
H836 C844 0.929 . S
H837 C846 0.930 . S
H838 C848 0.930 . S
H839 C851 0.929 . S
H840 C854 0.930 . S
H841 C856 0.960 . S
H842 C856 0.960 . S
H843 C856 0.960 . S
C844 H836 0.929 . S
C844 C845 1.377 . S
C844 C846 1.384 . S
C845 C844 1.377 . S
C845 C851 1.390 . S
C846 H837 0.930 . S
C846 C844 1.384 . S
C846 C847 1.372 . S
C847 C846 1.372 . S
C847 C848 1.400 . S
C847 C852 1.490 . S
C848 H838 0.930 . S
C848 C847 1.400 . S
C848 C851 1.386 . S
H849 C865 0.930 . S
H850 C866 0.931 . S
C851 H839 0.929 . S
C851 C845 1.390 . S
C851 C848 1.386 . S
C852 C847 1.490 . S
C852 C854 1.395 . S
C852 C855 1.403 . S
H853 C859 0.930 . S
C854 H840 0.930 . S
C854 C852 1.395 . S
C854 C857 1.403 . S
C855 C852 1.403 . S
C855 C856 1.524 . S
C855 C859 1.400 . S
C856 H841 0.960 . S
C856 H842 0.960 . S
C856 H843 0.960 . S
C856 C855 1.524 . S
C857 C854 1.403 . S
C857 C858 1.392 . S
C857 C861 1.495 . S
C858 C857 1.392 . S
C858 C859 1.385 . S
C858 C860 1.478 . S
C859 H853 0.930 . S
C859 C855 1.400 . S
C859 C858 1.385 . S
C860 C858 1.478 . S
C860 C862 1.381 . S
C860 C866 1.383 . S
C861 C857 1.495 . S
C861 H867 0.959 . S
C861 H868 0.961 . S
C861 H869 0.960 . S
C862 C860 1.381 . S
C862 C863 1.394 . S
C862 H870 0.930 . S
C863 C862 1.394 . S
C863 C864 1.383 . S
C863 H871 0.929 . S
C864 C863 1.383 . S
C864 C865 1.377 . S
C865 H849 0.930 . S
C865 C864 1.377 . S
C865 C866 1.379 . S
C866 H850 0.931 . S
C866 C860 1.383 . S
C866 C865 1.379 . S
H867 C861 0.959 . S
H868 C861 0.961 . S
H869 C861 0.960 . S
H870 C862 0.930 . S
H871 C863 0.929 . S
H872 C880 0.929 . S
H873 C882 0.930 . S
H874 C884 0.930 . S
H875 C887 0.929 . S
H876 C890 0.930 . S
H877 C892 0.960 . S
H878 C892 0.960 . S
H879 C892 0.960 . S
C880 H872 0.929 . S
C880 C881 1.377 . S
C880 C882 1.384 . S
C881 C880 1.377 . S
C881 C887 1.390 . S
C882 H873 0.930 . S
C882 C880 1.384 . S
C882 C883 1.372 . S
C883 C882 1.372 . S
C883 C884 1.400 . S
C883 C888 1.490 . S
C884 H874 0.930 . S
C884 C883 1.400 . S
C884 C887 1.386 . S
H885 C901 0.930 . S
H886 C902 0.931 . S
C887 H875 0.929 . S
C887 C881 1.390 . S
C887 C884 1.386 . S
C888 C883 1.490 . S
C888 C890 1.395 . S
C888 C891 1.403 . S
H889 C895 0.930 . S
C890 H876 0.930 . S
C890 C888 1.395 . S
C890 C893 1.403 . S
C891 C888 1.403 . S
C891 C892 1.524 . S
C891 C895 1.400 . S
C892 H877 0.960 . S
C892 H878 0.960 . S
C892 H879 0.960 . S
C892 C891 1.524 . S
C893 C890 1.403 . S
C893 C894 1.392 . S
C893 C897 1.495 . S
C894 C893 1.392 . S
C894 C895 1.385 . S
C894 C896 1.478 . S
C895 H889 0.930 . S
C895 C891 1.400 . S
C895 C894 1.385 . S
C896 C894 1.478 . S
C896 C898 1.381 . S
C896 C902 1.383 . S
C897 C893 1.495 . S
C897 H903 0.959 . S
C897 H904 0.961 . S
C897 H905 0.960 . S
C898 C896 1.381 . S
C898 C899 1.394 . S
C898 H906 0.930 . S
C899 C898 1.394 . S
C899 C900 1.383 . S
C899 H907 0.929 . S
C900 C899 1.383 . S
C900 C901 1.377 . S
C901 H885 0.930 . S
C901 C900 1.377 . S
C901 C902 1.379 . S
C902 H886 0.931 . S
C902 C896 1.383 . S
C902 C901 1.379 . S
H903 C897 0.959 . S
H904 C897 0.961 . S
H905 C897 0.960 . S
H906 C898 0.930 . S
H907 C899 0.929 . S
H908 C916 0.929 . S
H909 C918 0.930 . S
H910 C920 0.930 . S
H911 C923 0.929 . S
H912 C926 0.930 . S
H913 C928 0.960 . S
H914 C928 0.960 . S
H915 C928 0.960 . S
C916 H908 0.929 . S
C916 C917 1.377 . S
C916 C918 1.384 . S
C917 C916 1.377 . S
C917 C923 1.390 . S
C918 H909 0.930 . S
C918 C916 1.384 . S
C918 C919 1.372 . S
C919 C918 1.372 . S
C919 C920 1.400 . S
C919 C924 1.490 . S
C920 H910 0.930 . S
C920 C919 1.400 . S
C920 C923 1.386 . S
H921 C937 0.930 . S
H922 C938 0.931 . S
C923 H911 0.929 . S
C923 C917 1.390 . S
C923 C920 1.386 . S
C924 C919 1.490 . S
C924 C926 1.395 . S
C924 C927 1.403 . S
H925 C931 0.930 . S
C926 H912 0.930 . S
C926 C924 1.395 . S
C926 C929 1.403 . S
C927 C924 1.403 . S
C927 C928 1.524 . S
C927 C931 1.400 . S
C928 H913 0.960 . S
C928 H914 0.960 . S
C928 H915 0.960 . S
C928 C927 1.524 . S
C929 C926 1.403 . S
C929 C930 1.392 . S
C929 C933 1.495 . S
C930 C929 1.392 . S
C930 C931 1.385 . S
C930 C932 1.478 . S
C931 H925 0.930 . S
C931 C927 1.400 . S
C931 C930 1.385 . S
C932 C930 1.478 . S
C932 C934 1.381 . S
C932 C938 1.383 . S
C933 C929 1.495 . S
C933 H939 0.959 . S
C933 H940 0.961 . S
C933 H941 0.960 . S
C934 C932 1.381 . S
C934 C935 1.394 . S
C934 H942 0.930 . S
C935 C934 1.394 . S
C935 C936 1.383 . S
C935 H943 0.929 . S
C936 C935 1.383 . S
C936 C937 1.377 . S
C937 H921 0.930 . S
C937 C936 1.377 . S
C937 C938 1.379 . S
C938 H922 0.931 . S
C938 C932 1.383 . S
C938 C937 1.379 . S
H939 C933 0.959 . S
H940 C933 0.961 . S
H941 C933 0.960 . S
H942 C934 0.930 . S
H943 C935 0.929 . S
H944 C952 0.929 . S
H945 C954 0.930 . S
H946 C956 0.930 . S
H947 C959 0.929 . S
H948 C962 0.930 . S
H949 C964 0.960 . S
H950 C964 0.960 . S
H951 C964 0.960 . S
C952 H944 0.929 . S
C952 C953 1.377 . S
C952 C954 1.384 . S
C953 C952 1.377 . S
C953 C959 1.390 . S
C954 H945 0.930 . S
C954 C952 1.384 . S
C954 C955 1.372 . S
C955 C954 1.372 . S
C955 C956 1.400 . S
C955 C960 1.490 . S
C956 H946 0.930 . S
C956 C955 1.400 . S
C956 C959 1.386 . S
H957 C973 0.930 . S
H958 C974 0.931 . S
C959 H947 0.929 . S
C959 C953 1.390 . S
C959 C956 1.386 . S
C960 C955 1.490 . S
C960 C962 1.395 . S
C960 C963 1.403 . S
H961 C967 0.930 . S
C962 H948 0.930 . S
C962 C960 1.395 . S
C962 C965 1.403 . S
C963 C960 1.403 . S
C963 C964 1.524 . S
C963 C967 1.400 . S
C964 H949 0.960 . S
C964 H950 0.960 . S
C964 H951 0.960 . S
C964 C963 1.524 . S
C965 C962 1.403 . S
C965 C966 1.392 . S
C965 C969 1.495 . S
C966 C965 1.392 . S
C966 C967 1.385 . S
C966 C968 1.478 . S
C967 H961 0.930 . S
C967 C963 1.400 . S
C967 C966 1.385 . S
C968 C966 1.478 . S
C968 C970 1.381 . S
C968 C974 1.383 . S
C969 C965 1.495 . S
C969 H975 0.959 . S
C969 H976 0.961 . S
C969 H977 0.960 . S
C970 C968 1.381 . S
C970 C971 1.394 . S
C970 H978 0.930 . S
C971 C970 1.394 . S
C971 C972 1.383 . S
C971 H979 0.929 . S
C972 C971 1.383 . S
C972 C973 1.377 . S
C973 H957 0.930 . S
C973 C972 1.377 . S
C973 C974 1.379 . S
C974 H958 0.931 . S
C974 C968 1.383 . S
C974 C973 1.379 . S
H975 C969 0.959 . S
H976 C969 0.961 . S
H977 C969 0.960 . S
H978 C970 0.930 . S
H979 C971 0.929 . S
H980 C988 0.929 . S
H981 C990 0.930 . S
H982 C992 0.930 . S
H983 C995 0.929 . S
H984 C998 0.930 . S
H985 C1000 0.960 . S
H986 C1000 0.960 . S
H987 C1000 0.960 . S
C988 H980 0.929 . S
C988 C989 1.377 . S
C988 C990 1.384 . S
C989 C988 1.377 . S
C989 C995 1.390 . S
C990 H981 0.930 . S
C990 C988 1.384 . S
C990 C991 1.372 . S
C991 C990 1.372 . S
C991 C992 1.400 . S
C991 C996 1.490 . S
C992 H982 0.930 . S
C992 C991 1.400 . S
C992 C995 1.386 . S
H993 C1009 0.930 . S
H994 C1010 0.931 . S
C995 H983 0.929 . S
C995 C989 1.390 . S
C995 C992 1.386 . S
C996 C991 1.490 . S
C996 C998 1.395 . S
C996 C999 1.403 . S
H997 C1003 0.930 . S
C998 H984 0.930 . S
C998 C996 1.395 . S
C998 C1001 1.403 . S
C999 C996 1.403 . S
C999 C1000 1.524 . S
C999 C1003 1.400 . S
C1000 H985 0.960 . S
C1000 H986 0.960 . S
C1000 H987 0.960 . S
C1000 C999 1.524 . S
C1001 C998 1.403 . S
C1001 C1002 1.392 . S
C1001 C1005 1.495 . S
C1002 C1001 1.392 . S
C1002 C1003 1.385 . S
C1002 C1004 1.478 . S
C1003 H997 0.930 . S
C1003 C999 1.400 . S
C1003 C1002 1.385 . S
C1004 C1002 1.478 . S
C1004 C1006 1.381 . S
C1004 C1010 1.383 . S
C1005 C1001 1.495 . S
C1005 H1011 0.959 . S
C1005 H1012 0.961 . S
C1005 H1013 0.960 . S
C1006 C1004 1.381 . S
C1006 C1007 1.394 . S
C1006 H1014 0.930 . S
C1007 C1006 1.394 . S
C1007 C1008 1.383 . S
C1007 H1015 0.929 . S
C1008 C1007 1.383 . S
C1008 C1009 1.377 . S
C1009 H993 0.930 . S
C1009 C1008 1.377 . S
C1009 C1010 1.379 . S
C1010 H994 0.931 . S
C1010 C1004 1.383 . S
C1010 C1009 1.379 . S
H1011 C1005 0.959 . S
H1012 C1005 0.961 . S
H1013 C1005 0.960 . S
H1014 C1006 0.930 . S
H1015 C1007 0.929 . S
H1016 C1024 0.929 . S
H1017 C1026 0.930 . S
H1018 C1028 0.930 . S
H1019 C1031 0.929 . S
H1020 C1034 0.930 . S
H1021 C1036 0.960 . S
H1022 C1036 0.960 . S
H1023 C1036 0.960 . S
C1024 H1016 0.929 . S
C1024 C1025 1.377 . S
C1024 C1026 1.384 . S
C1025 C1024 1.377 . S
C1025 C1031 1.390 . S
C1026 H1017 0.930 . S
C1026 C1024 1.384 . S
C1026 C1027 1.372 . S
C1027 C1026 1.372 . S
C1027 C1028 1.400 . S
C1027 C1032 1.490 . S
C1028 H1018 0.930 . S
C1028 C1027 1.400 . S
C1028 C1031 1.386 . S
H1029 C1045 0.930 1_565 S
H1030 C1046 0.931 1_565 S
C1031 H1019 0.929 . S
C1031 C1025 1.390 . S
C1031 C1028 1.386 . S
C1032 C1027 1.490 . S
C1032 C1034 1.395 . S
C1032 C1035 1.403 . S
H1033 C1039 0.930 . S
C1034 H1020 0.930 . S
C1034 C1032 1.395 . S
C1034 C1037 1.403 . S
C1035 C1032 1.403 . S
C1035 C1036 1.524 . S
C1035 C1039 1.400 . S
C1036 H1021 0.960 . S
C1036 H1022 0.960 . S
C1036 H1023 0.960 . S
C1036 C1035 1.524 . S
C1037 C1034 1.403 . S
C1037 C1038 1.392 . S
C1037 C1041 1.495 . S
C1038 C1037 1.392 . S
C1038 C1039 1.385 . S
C1038 C1040 1.478 . S
C1039 H1033 0.930 . S
C1039 C1035 1.400 . S
C1039 C1038 1.385 . S
C1040 C1038 1.478 . S
C1040 C1042 1.381 . S
C1040 C1046 1.383 . S
C1041 C1037 1.495 . S
C1041 H1047 0.959 1_545 S
C1041 H1048 0.961 1_545 S
C1041 H1049 0.960 . S
C1042 C1040 1.381 . S
C1042 C1043 1.394 . S
C1042 H1050 0.930 . S
C1043 C1042 1.394 . S
C1043 C1044 1.383 . S
C1043 H1051 0.929 . S
C1044 C1043 1.383 . S
C1044 C1045 1.377 . S
C1045 H1029 0.930 1_545 S
C1045 C1044 1.377 . S
C1045 C1046 1.379 . S
C1046 H1030 0.931 1_545 S
C1046 C1040 1.383 . S
C1046 C1045 1.379 . S
H1047 C1041 0.959 1_565 S
H1048 C1041 0.961 1_565 S
H1049 C1041 0.960 . S
H1050 C1042 0.930 . S
H1051 C1043 0.929 . S
H1052 C1060 0.929 . S
H1053 C1062 0.930 . S
H1054 C1064 0.930 . S
H1055 C1067 0.929 . S
H1056 C1070 0.930 . S
H1057 C1072 0.960 . S
H1058 C1072 0.960 . S
H1059 C1072 0.960 . S
C1060 H1052 0.929 . S
C1060 C1061 1.377 . S
C1060 C1062 1.384 . S
C1061 C1060 1.377 . S
C1061 C1067 1.390 . S
C1062 H1053 0.930 . S
C1062 C1060 1.384 . S
C1062 C1063 1.372 . S
C1063 C1062 1.372 . S
C1063 C1064 1.400 . S
C1063 C1068 1.490 . S
C1064 H1054 0.930 . S
C1064 C1063 1.400 . S
C1064 C1067 1.386 . S
H1065 C1081 0.930 . S
H1066 C1082 0.931 . S
C1067 H1055 0.929 . S
C1067 C1061 1.390 . S
C1067 C1064 1.386 . S
C1068 C1063 1.490 . S
C1068 C1070 1.395 . S
C1068 C1071 1.403 . S
H1069 C1075 0.930 . S
C1070 H1056 0.930 . S
C1070 C1068 1.395 . S
C1070 C1073 1.403 . S
C1071 C1068 1.403 . S
C1071 C1072 1.524 . S
C1071 C1075 1.400 . S
C1072 H1057 0.960 . S
C1072 H1058 0.960 . S
C1072 H1059 0.960 . S
C1072 C1071 1.524 . S
C1073 C1070 1.403 . S
C1073 C1074 1.392 . S
C1073 C1077 1.495 . S
C1074 C1073 1.392 . S
C1074 C1075 1.385 . S
C1074 C1076 1.478 . S
C1075 H1069 0.930 . S
C1075 C1071 1.400 . S
C1075 C1074 1.385 . S
C1076 C1074 1.478 . S
C1076 C1078 1.381 . S
C1076 C1082 1.383 . S
C1077 C1073 1.495 . S
C1077 H1083 0.959 . S
C1077 H1084 0.961 . S
C1077 H1085 0.960 . S
C1078 C1076 1.381 . S
C1078 C1079 1.394 . S
C1078 H1086 0.930 . S
C1079 C1078 1.394 . S
C1079 C1080 1.383 . S
C1079 H1087 0.929 . S
C1080 C1079 1.383 . S
C1080 C1081 1.377 . S
C1081 H1065 0.930 . S
C1081 C1080 1.377 . S
C1081 C1082 1.379 . S
C1082 H1066 0.931 . S
C1082 C1076 1.383 . S
C1082 C1081 1.379 . S
H1083 C1077 0.959 . S
H1084 C1077 0.961 . S
H1085 C1077 0.960 . S
H1086 C1078 0.930 . S
H1087 C1079 0.929 . S
H1088 C1096 0.929 . S
H1089 C1098 0.930 . S
H1090 C1100 0.930 . S
H1091 C1103 0.929 . S
H1092 C1106 0.930 . S
H1093 C1108 0.960 . S
H1094 C1108 0.960 . S
H1095 C1108 0.960 . S
C1096 H1088 0.929 . S
C1096 C1097 1.377 . S
C1096 C1098 1.384 . S
C1097 C1096 1.377 . S
C1097 C1103 1.390 . S
C1098 H1089 0.930 . S
C1098 C1096 1.384 . S
C1098 C1099 1.372 . S
C1099 C1098 1.372 . S
C1099 C1100 1.400 . S
C1099 C1104 1.490 . S
C1100 H1090 0.930 . S
C1100 C1099 1.400 . S
C1100 C1103 1.386 . S
H1101 C1117 0.930 . S
H1102 C1118 0.931 . S
C1103 H1091 0.929 . S
C1103 C1097 1.390 . S
C1103 C1100 1.386 . S
C1104 C1099 1.490 . S
C1104 C1106 1.395 . S
C1104 C1107 1.403 . S
H1105 C1111 0.930 . S
C1106 H1092 0.930 . S
C1106 C1104 1.395 . S
C1106 C1109 1.403 . S
C1107 C1104 1.403 . S
C1107 C1108 1.524 . S
C1107 C1111 1.400 . S
C1108 H1093 0.960 . S
C1108 H1094 0.960 . S
C1108 H1095 0.960 . S
C1108 C1107 1.524 . S
C1109 C1106 1.403 . S
C1109 C1110 1.392 . S
C1109 C1113 1.495 . S
C1110 C1109 1.392 . S
C1110 C1111 1.385 . S
C1110 C1112 1.478 . S
C1111 H1105 0.930 . S
C1111 C1107 1.400 . S
C1111 C1110 1.385 . S
C1112 C1110 1.478 . S
C1112 C1114 1.381 . S
C1112 C1118 1.383 . S
C1113 C1109 1.495 . S
C1113 H1119 0.959 1_655 S
C1113 H1120 0.961 1_655 S
C1113 H1121 0.960 1_655 S
C1114 C1112 1.381 . S
C1114 C1115 1.394 . S
C1114 H1122 0.930 . S
C1115 C1114 1.394 . S
C1115 C1116 1.383 . S
C1115 H1123 0.929 1_655 S
C1116 C1115 1.383 . S
C1116 C1117 1.377 . S
C1117 H1101 0.930 . S
C1117 C1116 1.377 . S
C1117 C1118 1.379 . S
C1118 H1102 0.931 . S
C1118 C1112 1.383 . S
C1118 C1117 1.379 . S
H1119 C1113 0.959 1_455 S
H1120 C1113 0.961 1_455 S
H1121 C1113 0.960 1_455 S
H1122 C1114 0.930 . S
H1123 C1115 0.929 1_455 S
H1124 C1132 0.929 . S
H1125 C1134 0.930 . S
H1126 C1136 0.930 . S
H1127 C1139 0.929 . S
H1128 C1142 0.930 . S
H1129 C1144 0.960 . S
H1130 C1144 0.960 . S
H1131 C1144 0.960 . S
C1132 H1124 0.929 . S
C1132 C1133 1.377 . S
C1132 C1134 1.384 . S
C1133 C1132 1.377 . S
C1133 C1139 1.390 . S
C1134 H1125 0.930 . S
C1134 C1132 1.384 . S
C1134 C1135 1.372 . S
C1135 C1134 1.372 . S
C1135 C1136 1.400 . S
C1135 C1140 1.490 . S
C1136 H1126 0.930 . S
C1136 C1135 1.400 . S
C1136 C1139 1.386 . S
H1137 C1153 0.930 . S
H1138 C1154 0.931 . S
C1139 H1127 0.929 . S
C1139 C1133 1.390 . S
C1139 C1136 1.386 . S
C1140 C1135 1.490 . S
C1140 C1142 1.395 . S
C1140 C1143 1.403 . S
H1141 C1147 0.930 . S
C1142 H1128 0.930 . S
C1142 C1140 1.395 . S
C1142 C1145 1.403 . S
C1143 C1140 1.403 . S
C1143 C1144 1.524 . S
C1143 C1147 1.400 . S
C1144 H1129 0.960 . S
C1144 H1130 0.960 . S
C1144 H1131 0.960 . S
C1144 C1143 1.524 . S
C1145 C1142 1.403 . S
C1145 C1146 1.392 . S
C1145 C1149 1.495 . S
C1146 C1145 1.392 . S
C1146 C1147 1.385 . S
C1146 C1148 1.478 . S
C1147 H1141 0.930 . S
C1147 C1143 1.400 . S
C1147 C1146 1.385 . S
C1148 C1146 1.478 . S
C1148 C1150 1.381 . S
C1148 C1154 1.383 . S
C1149 C1145 1.495 . S
C1149 H1155 0.959 . S
C1149 H1156 0.961 . S
C1149 H1157 0.960 . S
C1150 C1148 1.381 . S
C1150 C1151 1.394 . S
C1150 H1158 0.930 . S
C1151 C1150 1.394 . S
C1151 C1152 1.383 . S
C1151 H1159 0.929 . S
C1152 C1151 1.383 . S
C1152 C1153 1.377 . S
C1153 H1137 0.930 . S
C1153 C1152 1.377 . S
C1153 C1154 1.379 . S
C1154 H1138 0.931 . S
C1154 C1148 1.383 . S
C1154 C1153 1.379 . S
H1155 C1149 0.959 . S
H1156 C1149 0.961 . S
H1157 C1149 0.960 . S
H1158 C1150 0.930 . S
H1159 C1151 0.929 . S
H1160 C1168 0.929 . S
H1161 C1170 0.930 . S
H1162 C1172 0.930 . S
H1163 C1175 0.929 . S
H1164 C1178 0.930 . S
H1165 C1180 0.960 1_565 S
H1166 C1180 0.960 1_565 S
H1167 C1180 0.960 . S
C1168 H1160 0.929 . S
C1168 C1169 1.377 . S
C1168 C1170 1.384 . S
C1169 C1168 1.377 . S
C1169 C1175 1.390 . S
C1170 H1161 0.930 . S
C1170 C1168 1.384 . S
C1170 C1171 1.372 . S
C1171 C1170 1.372 . S
C1171 C1172 1.400 . S
C1171 C1176 1.490 . S
C1172 H1162 0.930 . S
C1172 C1171 1.400 . S
C1172 C1175 1.386 . S
H1173 C1189 0.930 . S
H1174 C1190 0.931 . S
C1175 H1163 0.929 . S
C1175 C1169 1.390 . S
C1175 C1172 1.386 . S
C1176 C1171 1.490 . S
C1176 C1178 1.395 . S
C1176 C1179 1.403 . S
H1177 C1183 0.930 . S
C1178 H1164 0.930 . S
C1178 C1176 1.395 . S
C1178 C1181 1.403 . S
C1179 C1176 1.403 . S
C1179 C1180 1.524 . S
C1179 C1183 1.400 . S
C1180 H1165 0.960 1_545 S
C1180 H1166 0.960 1_545 S
C1180 H1167 0.960 . S
C1180 C1179 1.524 . S
C1181 C1178 1.403 . S
C1181 C1182 1.392 . S
C1181 C1185 1.495 . S
C1182 C1181 1.392 . S
C1182 C1183 1.385 . S
C1182 C1184 1.478 . S
C1183 H1177 0.930 . S
C1183 C1179 1.400 . S
C1183 C1182 1.385 . S
C1184 C1182 1.478 . S
C1184 C1186 1.381 . S
C1184 C1190 1.383 . S
C1185 C1181 1.495 . S
C1185 H1191 0.959 . S
C1185 H1192 0.961 . S
C1185 H1193 0.960 . S
C1186 C1184 1.381 . S
C1186 C1187 1.394 . S
C1186 H1194 0.930 . S
C1187 C1186 1.394 . S
C1187 C1188 1.383 . S
C1187 H1195 0.929 . S
C1188 C1187 1.383 . S
C1188 C1189 1.377 . S
C1189 H1173 0.930 . S
C1189 C1188 1.377 . S
C1189 C1190 1.379 . S
C1190 H1174 0.931 . S
C1190 C1184 1.383 . S
C1190 C1189 1.379 . S
H1191 C1185 0.959 . S
H1192 C1185 0.961 . S
H1193 C1185 0.960 . S
H1194 C1186 0.930 . S
H1195 C1187 0.929 . S
H1196 C1204 0.929 . S
H1197 C1206 0.930 . S
H1198 C1208 0.930 . S
H1199 C1211 0.929 . S
H1200 C1214 0.930 . S
H1201 C1216 0.960 . S
H1202 C1216 0.960 . S
H1203 C1216 0.960 . S
C1204 H1196 0.929 . S
C1204 C1205 1.377 . S
C1204 C1206 1.384 . S
C1205 C1204 1.377 . S
C1205 C1211 1.390 . S
C1206 H1197 0.930 . S
C1206 C1204 1.384 . S
C1206 C1207 1.372 . S
C1207 C1206 1.372 . S
C1207 C1208 1.400 . S
C1207 C1212 1.490 . S
C1208 H1198 0.930 . S
C1208 C1207 1.400 . S
C1208 C1211 1.386 . S
H1209 C1225 0.930 . S
H1210 C1226 0.931 . S
C1211 H1199 0.929 . S
C1211 C1205 1.390 . S
C1211 C1208 1.386 . S
C1212 C1207 1.490 . S
C1212 C1214 1.395 . S
C1212 C1215 1.403 . S
H1213 C1219 0.930 . S
C1214 H1200 0.930 . S
C1214 C1212 1.395 . S
C1214 C1217 1.403 . S
C1215 C1212 1.403 . S
C1215 C1216 1.524 . S
C1215 C1219 1.400 . S
C1216 H1201 0.960 . S
C1216 H1202 0.960 . S
C1216 H1203 0.960 . S
C1216 C1215 1.524 . S
C1217 C1214 1.403 . S
C1217 C1218 1.392 . S
C1217 C1221 1.495 . S
C1218 C1217 1.392 . S
C1218 C1219 1.385 . S
C1218 C1220 1.478 . S
C1219 H1213 0.930 . S
C1219 C1215 1.400 . S
C1219 C1218 1.385 . S
C1220 C1218 1.478 . S
C1220 C1222 1.381 . S
C1220 C1226 1.383 . S
C1221 C1217 1.495 . S
C1221 H1227 0.959 . S
C1221 H1228 0.961 . S
C1221 H1229 0.960 . S
C1222 C1220 1.381 . S
C1222 C1223 1.394 . S
C1222 H1230 0.930 . S
C1223 C1222 1.394 . S
C1223 C1224 1.383 . S
C1223 H1231 0.929 . S
C1224 C1223 1.383 . S
C1224 C1225 1.377 . S
C1225 H1209 0.930 . S
C1225 C1224 1.377 . S
C1225 C1226 1.379 . S
C1226 H1210 0.931 . S
C1226 C1220 1.383 . S
C1226 C1225 1.379 . S
H1227 C1221 0.959 . S
H1228 C1221 0.961 . S
H1229 C1221 0.960 . S
H1230 C1222 0.930 . S
H1231 C1223 0.929 . S
H1232 C1240 0.929 . S
H1233 C1242 0.930 . S
H1234 C1244 0.930 . S
H1235 C1247 0.929 . S
H1236 C1250 0.930 . S
H1237 C1252 0.960 . S
H1238 C1252 0.960 1_556 S
H1239 C1252 0.960 . S
C1240 H1232 0.929 . S
C1240 C1241 1.377 . S
C1240 C1242 1.384 . S
C1241 C1240 1.377 . S
C1241 C1247 1.390 . S
C1242 H1233 0.930 . S
C1242 C1240 1.384 . S
C1242 C1243 1.372 . S
C1243 C1242 1.372 . S
C1243 C1244 1.400 . S
C1243 C1248 1.490 . S
C1244 H1234 0.930 . S
C1244 C1243 1.400 . S
C1244 C1247 1.386 . S
H1245 C1261 0.930 . S
H1246 C1262 0.931 1_545 S
C1247 H1235 0.929 . S
C1247 C1241 1.390 . S
C1247 C1244 1.386 . S
C1248 C1243 1.490 . S
C1248 C1250 1.395 . S
C1248 C1251 1.403 . S
H1249 C1255 0.930 . S
C1250 H1236 0.930 . S
C1250 C1248 1.395 . S
C1250 C1253 1.403 . S
C1251 C1248 1.403 . S
C1251 C1252 1.524 . S
C1251 C1255 1.400 . S
C1252 H1237 0.960 . S
C1252 H1238 0.960 1_554 S
C1252 H1239 0.960 . S
C1252 C1251 1.524 . S
C1253 C1250 1.403 . S
C1253 C1254 1.392 . S
C1253 C1257 1.495 . S
C1254 C1253 1.392 . S
C1254 C1255 1.385 . S
C1254 C1256 1.478 . S
C1255 H1249 0.930 . S
C1255 C1251 1.400 . S
C1255 C1254 1.385 . S
C1256 C1254 1.478 . S
C1256 C1258 1.381 . S
C1256 C1262 1.383 . S
C1257 C1253 1.495 . S
C1257 H1263 0.959 . S
C1257 H1264 0.961 . S
C1257 H1265 0.960 . S
C1258 C1256 1.381 . S
C1258 C1259 1.394 . S
C1258 H1266 0.930 . S
C1259 C1258 1.394 . S
C1259 C1260 1.383 . S
C1259 H1267 0.929 . S
C1260 C1259 1.383 . S
C1260 C1261 1.377 1_565 S
C1261 H1245 0.930 . S
C1261 C1260 1.377 1_545 S
C1261 C1262 1.379 1_545 S
C1262 H1246 0.931 1_565 S
C1262 C1256 1.383 . S
C1262 C1261 1.379 1_565 S
H1263 C1257 0.959 . S
H1264 C1257 0.961 . S
H1265 C1257 0.960 . S
H1266 C1258 0.930 . S
H1267 C1259 0.929 . S
H1268 C1276 0.929 . S
H1269 C1278 0.930 . S
H1270 C1280 0.930 . S
H1271 C1283 0.929 . S
H1272 C1286 0.930 . S
H1273 C1288 0.958 1_556 S
H1274 C1288 0.982 . S
H1275 C1288 0.936 1_556 S
C1276 H1268 0.929 . S
C1276 C1277 1.377 . S
C1276 C1278 1.384 . S
C1277 C1276 1.377 . S
C1277 C1283 1.390 1_554 S
C1278 H1269 0.930 . S
C1278 C1276 1.384 . S
C1278 C1279 1.372 . S
C1279 C1278 1.372 . S
C1279 C1280 1.400 1_554 S
C1279 C1284 1.490 . S
C1280 H1270 0.930 . S
C1280 C1279 1.400 1_556 S
C1280 C1283 1.386 . S
H1281 C1297 0.930 . S
H1282 C1298 0.931 . S
C1283 H1271 0.929 . S
C1283 C1277 1.390 1_556 S
C1283 C1280 1.386 . S
C1284 C1279 1.490 . S
C1284 C1286 1.395 . S
C1284 C1287 1.403 . S
H1285 C1291 0.930 . S
C1286 H1272 0.930 . S
C1286 C1284 1.395 . S
C1286 C1289 1.403 . S
C1287 C1284 1.403 . S
C1287 C1288 1.529 . S
C1287 C1291 1.400 . S
C1288 H1273 0.958 1_554 S
C1288 H1274 0.982 . S
C1288 H1275 0.936 1_554 S
C1288 C1287 1.529 . S
C1289 C1286 1.403 . S
C1289 C1290 1.392 . S
C1289 C1293 1.495 . S
C1290 C1289 1.392 . S
C1290 C1291 1.385 . S
C1290 C1292 1.478 . S
C1291 H1285 0.930 . S
C1291 C1287 1.400 . S
C1291 C1290 1.385 . S
C1292 C1290 1.478 . S
C1292 C1294 1.381 . S
C1292 C1298 1.383 1_554 S
C1293 C1289 1.495 . S
C1293 H1299 0.959 . S
C1293 H1300 0.961 . S
C1293 H1301 0.960 . S
C1294 C1292 1.381 . S
C1294 C1295 1.394 . S
C1294 H1302 0.930 . S
C1295 C1294 1.394 . S
C1295 C1296 1.383 . S
C1295 H1303 0.929 . S
C1296 C1295 1.383 . S
C1296 C1297 1.377 1_554 S
C1297 H1281 0.930 . S
C1297 C1296 1.377 1_556 S
C1297 C1298 1.379 . S
C1298 H1282 0.931 . S
C1298 C1292 1.383 1_556 S
C1298 C1297 1.379 . S
H1299 C1293 0.959 . S
H1300 C1293 0.961 . S
H1301 C1293 0.960 . S
H1302 C1294 0.930 . S
H1303 C1295 0.929 . S
H1304 C1312 0.929 . S
H1305 C1314 0.930 . S
H1306 C1316 0.930 . S
H1307 C1319 0.929 . S
H1308 C1322 0.930 . S
H1309 C1324 0.960 . S
H1310 C1324 0.960 . S
H1311 C1324 0.960 . S
C1312 H1304 0.929 . S
C1312 C1313 1.377 . S
C1312 C1314 1.384 . S
C1313 C1312 1.377 . S
C1313 C1319 1.390 . S
C1314 H1305 0.930 . S
C1314 C1312 1.384 . S
C1314 C1315 1.372 . S
C1315 C1314 1.372 . S
C1315 C1316 1.400 . S
C1315 C1320 1.490 . S
C1316 H1306 0.930 . S
C1316 C1315 1.400 . S
C1316 C1319 1.386 . S
H1317 C1333 0.930 . S
H1318 C1334 0.931 . S
C1319 H1307 0.929 . S
C1319 C1313 1.390 . S
C1319 C1316 1.386 . S
C1320 C1315 1.490 . S
C1320 C1322 1.395 . S
C1320 C1323 1.403 . S
H1321 C1327 0.930 . S
C1322 H1308 0.930 . S
C1322 C1320 1.395 . S
C1322 C1325 1.403 . S
C1323 C1320 1.403 . S
C1323 C1324 1.524 . S
C1323 C1327 1.400 . S
C1324 H1309 0.960 . S
C1324 H1310 0.960 . S
C1324 H1311 0.960 . S
C1324 C1323 1.524 . S
C1325 C1322 1.403 . S
C1325 C1326 1.392 . S
C1325 C1329 1.495 . S
C1326 C1325 1.392 . S
C1326 C1327 1.385 . S
C1326 C1328 1.478 . S
C1327 H1321 0.930 . S
C1327 C1323 1.400 . S
C1327 C1326 1.385 . S
C1328 C1326 1.478 . S
C1328 C1330 1.381 . S
C1328 C1334 1.383 . S
C1329 C1325 1.495 . S
C1329 H1335 0.959 . S
C1329 H1336 0.961 . S
C1329 H1337 0.960 . S
C1330 C1328 1.381 . S
C1330 C1331 1.394 . S
C1330 H1338 0.930 . S
C1331 C1330 1.394 . S
C1331 C1332 1.383 . S
C1331 H1339 0.929 . S
C1332 C1331 1.383 . S
C1332 C1333 1.377 . S
C1333 H1317 0.930 . S
C1333 C1332 1.377 . S
C1333 C1334 1.379 . S
C1334 H1318 0.931 . S
C1334 C1328 1.383 . S
C1334 C1333 1.379 . S
H1335 C1329 0.959 . S
H1336 C1329 0.961 . S
H1337 C1329 0.960 . S
H1338 C1330 0.930 . S
H1339 C1331 0.929 . S
H1340 C1348 0.929 . S
H1341 C1350 0.930 . S
H1342 C1352 0.930 . S
H1343 C1355 0.929 . S
H1344 C1358 0.930 . S
H1345 C1360 0.960 . S
H1346 C1360 0.960 . S
H1347 C1360 0.960 . S
C1348 H1340 0.929 . S
C1348 C1349 1.377 . S
C1348 C1350 1.384 . S
C1349 C1348 1.377 . S
C1349 C1355 1.390 . S
C1350 H1341 0.930 . S
C1350 C1348 1.384 . S
C1350 C1351 1.372 . S
C1351 C1350 1.372 . S
C1351 C1352 1.400 . S
C1351 C1356 1.490 . S
C1352 H1342 0.930 . S
C1352 C1351 1.400 . S
C1352 C1355 1.386 . S
H1353 C1369 0.930 . S
H1354 C1370 0.931 . S
C1355 H1343 0.929 . S
C1355 C1349 1.390 . S
C1355 C1352 1.386 . S
C1356 C1351 1.490 . S
C1356 C1358 1.395 . S
C1356 C1359 1.403 . S
H1357 C1363 0.930 . S
C1358 H1344 0.930 . S
C1358 C1356 1.395 . S
C1358 C1361 1.403 . S
C1359 C1356 1.403 . S
C1359 C1360 1.524 . S
C1359 C1363 1.400 . S
C1360 H1345 0.960 . S
C1360 H1346 0.960 . S
C1360 H1347 0.960 . S
C1360 C1359 1.524 . S
C1361 C1358 1.403 . S
C1361 C1362 1.392 . S
C1361 C1365 1.495 . S
C1362 C1361 1.392 . S
C1362 C1363 1.385 . S
C1362 C1364 1.478 . S
C1363 H1357 0.930 . S
C1363 C1359 1.400 . S
C1363 C1362 1.385 . S
C1364 C1362 1.478 . S
C1364 C1366 1.381 . S
C1364 C1370 1.383 . S
C1365 C1361 1.495 . S
C1365 H1371 0.959 . S
C1365 H1372 0.961 . S
C1365 H1373 0.960 . S
C1366 C1364 1.381 . S
C1366 C1367 1.394 . S
C1366 H1374 0.930 . S
C1367 C1366 1.394 . S
C1367 C1368 1.383 . S
C1367 H1375 0.929 . S
C1368 C1367 1.383 . S
C1368 C1369 1.377 . S
C1369 H1353 0.930 . S
C1369 C1368 1.377 . S
C1369 C1370 1.379 . S
C1370 H1354 0.931 . S
C1370 C1364 1.383 . S
C1370 C1369 1.379 . S
H1371 C1365 0.959 . S
H1372 C1365 0.961 . S
H1373 C1365 0.960 . S
H1374 C1366 0.930 . S
H1375 C1367 0.929 . S
H1376 C1384 0.929 . S
H1377 C1386 0.930 . S
H1378 C1388 0.930 . S
H1379 C1391 0.929 . S
H1380 C1394 0.930 . S
H1381 C1396 0.960 . S
H1382 C1396 0.960 . S
H1383 C1396 0.960 . S
C1384 H1376 0.929 . S
C1384 C1385 1.377 . S
C1384 C1386 1.384 . S
C1385 C1384 1.377 . S
C1385 C1391 1.390 . S
C1386 H1377 0.930 . S
C1386 C1384 1.384 . S
C1386 C1387 1.372 . S
C1387 C1386 1.372 . S
C1387 C1388 1.400 . S
C1387 C1392 1.490 . S
C1388 H1378 0.930 . S
C1388 C1387 1.400 . S
C1388 C1391 1.386 . S
H1389 C1405 0.930 . S
H1390 C1406 0.931 . S
C1391 H1379 0.929 . S
C1391 C1385 1.390 . S
C1391 C1388 1.386 . S
C1392 C1387 1.490 . S
C1392 C1394 1.395 . S
C1392 C1395 1.403 . S
H1393 C1399 0.930 . S
C1394 H1380 0.930 . S
C1394 C1392 1.395 . S
C1394 C1397 1.403 . S
C1395 C1392 1.403 . S
C1395 C1396 1.524 . S
C1395 C1399 1.400 . S
C1396 H1381 0.960 . S
C1396 H1382 0.960 . S
C1396 H1383 0.960 . S
C1396 C1395 1.524 . S
C1397 C1394 1.403 . S
C1397 C1398 1.392 . S
C1397 C1401 1.495 . S
C1398 C1397 1.392 . S
C1398 C1399 1.385 . S
C1398 C1400 1.478 . S
C1399 H1393 0.930 . S
C1399 C1395 1.400 . S
C1399 C1398 1.385 . S
C1400 C1398 1.478 . S
C1400 C1402 1.381 . S
C1400 C1406 1.383 . S
C1401 C1397 1.495 . S
C1401 H1407 0.959 . S
C1401 H1408 0.961 . S
C1401 H1409 0.960 . S
C1402 C1400 1.381 . S
C1402 C1403 1.394 . S
C1402 H1410 0.930 . S
C1403 C1402 1.394 . S
C1403 C1404 1.383 . S
C1403 H1411 0.929 . S
C1404 C1403 1.383 . S
C1404 C1405 1.377 . S
C1405 H1389 0.930 . S
C1405 C1404 1.377 . S
C1405 C1406 1.379 . S
C1406 H1390 0.931 . S
C1406 C1400 1.383 . S
C1406 C1405 1.379 . S
H1407 C1401 0.959 . S
H1408 C1401 0.961 . S
H1409 C1401 0.960 . S
H1410 C1402 0.930 . S
H1411 C1403 0.929 . S
H1412 C1420 0.929 . S
H1413 C1422 0.930 . S
H1414 C1424 0.930 . S
H1415 C1427 0.929 . S
H1416 C1430 0.930 . S
H1417 C1432 0.960 . S
H1418 C1432 0.960 . S
H1419 C1432 0.960 . S
C1420 H1412 0.929 . S
C1420 C1421 1.377 . S
C1420 C1422 1.384 . S
C1421 C1420 1.377 . S
C1421 C1427 1.390 . S
C1422 H1413 0.930 . S
C1422 C1420 1.384 . S
C1422 C1423 1.372 . S
C1423 C1422 1.372 . S
C1423 C1424 1.400 . S
C1423 C1428 1.490 . S
C1424 H1414 0.930 . S
C1424 C1423 1.400 . S
C1424 C1427 1.386 . S
H1425 C1441 0.930 . S
H1426 C1442 0.931 . S
C1427 H1415 0.929 . S
C1427 C1421 1.390 . S
C1427 C1424 1.386 . S
C1428 C1423 1.490 . S
C1428 C1430 1.395 . S
C1428 C1431 1.403 . S
H1429 C1435 0.930 . S
C1430 H1416 0.930 . S
C1430 C1428 1.395 . S
C1430 C1433 1.403 . S
C1431 C1428 1.403 . S
C1431 C1432 1.524 . S
C1431 C1435 1.400 . S
C1432 H1417 0.960 . S
C1432 H1418 0.960 . S
C1432 H1419 0.960 . S
C1432 C1431 1.524 . S
C1433 C1430 1.403 . S
C1433 C1434 1.392 . S
C1433 C1437 1.495 . S
C1434 C1433 1.392 . S
C1434 C1435 1.385 . S
C1434 C1436 1.478 . S
C1435 H1429 0.930 . S
C1435 C1431 1.400 . S
C1435 C1434 1.385 . S
C1436 C1434 1.478 . S
C1436 C1438 1.381 . S
C1436 C1442 1.383 . S
C1437 C1433 1.495 . S
C1437 H1443 0.959 . S
C1437 H1444 0.961 . S
C1437 H1445 0.960 . S
C1438 C1436 1.381 . S
C1438 C1439 1.394 . S
C1438 H1446 0.930 . S
C1439 C1438 1.394 . S
C1439 C1440 1.383 . S
C1439 H1447 0.929 . S
C1440 C1439 1.383 . S
C1440 C1441 1.377 . S
C1441 H1425 0.930 . S
C1441 C1440 1.377 . S
C1441 C1442 1.379 . S
C1442 H1426 0.931 . S
C1442 C1436 1.383 . S
C1442 C1441 1.379 . S
H1443 C1437 0.959 . S
H1444 C1437 0.961 . S
H1445 C1437 0.960 . S
H1446 C1438 0.930 . S
H1447 C1439 0.929 . S
H1448 C1456 0.929 . S
H1449 C1458 0.930 . S
H1450 C1460 0.930 . S
H1451 C1463 0.929 . S
H1452 C1466 0.930 . S
H1453 C1468 0.960 . S
H1454 C1468 0.960 . S
H1455 C1468 0.960 . S
C1456 H1448 0.929 . S
C1456 C1457 1.377 . S
C1456 C1458 1.384 . S
C1457 C1456 1.377 . S
C1457 C1463 1.390 . S
C1458 H1449 0.930 . S
C1458 C1456 1.384 . S
C1458 C1459 1.372 . S
C1459 C1458 1.372 . S
C1459 C1460 1.400 . S
C1459 C1464 1.490 . S
C1460 H1450 0.930 . S
C1460 C1459 1.400 . S
C1460 C1463 1.386 . S
H1461 C1477 0.930 . S
H1462 C1478 0.931 . S
C1463 H1451 0.929 . S
C1463 C1457 1.390 . S
C1463 C1460 1.386 . S
C1464 C1459 1.490 . S
C1464 C1466 1.395 . S
C1464 C1467 1.403 . S
H1465 C1471 0.930 . S
C1466 H1452 0.930 . S
C1466 C1464 1.395 . S
C1466 C1469 1.403 . S
C1467 C1464 1.403 . S
C1467 C1468 1.524 . S
C1467 C1471 1.400 . S
C1468 H1453 0.960 . S
C1468 H1454 0.960 . S
C1468 H1455 0.960 . S
C1468 C1467 1.524 . S
C1469 C1466 1.403 . S
C1469 C1470 1.392 . S
C1469 C1473 1.495 . S
C1470 C1469 1.392 . S
C1470 C1471 1.385 . S
C1470 C1472 1.478 . S
C1471 H1465 0.930 . S
C1471 C1467 1.400 . S
C1471 C1470 1.385 . S
C1472 C1470 1.478 . S
C1472 C1474 1.381 . S
C1472 C1478 1.383 . S
C1473 C1469 1.495 . S
C1473 H1479 0.959 . S
C1473 H1480 0.961 . S
C1473 H1481 0.960 . S
C1474 C1472 1.381 . S
C1474 C1475 1.394 . S
C1474 H1482 0.930 . S
C1475 C1474 1.394 . S
C1475 C1476 1.383 . S
C1475 H1483 0.929 . S
C1476 C1475 1.383 . S
C1476 C1477 1.377 . S
C1477 H1461 0.930 . S
C1477 C1476 1.377 . S
C1477 C1478 1.379 . S
C1478 H1462 0.931 . S
C1478 C1472 1.383 . S
C1478 C1477 1.379 . S
H1479 C1473 0.959 . S
H1480 C1473 0.961 . S
H1481 C1473 0.960 . S
H1482 C1474 0.930 . S
H1483 C1475 0.929 . S
H1484 C1492 0.929 . S
H1485 C1494 0.930 . S
H1486 C1496 0.930 . S
H1487 C1499 0.929 . S
H1488 C1502 0.930 . S
H1489 C1504 0.960 . S
H1490 C1504 0.960 . S
H1491 C1504 0.960 . S
C1492 H1484 0.929 . S
C1492 C1493 1.377 . S
C1492 C1494 1.384 . S
C1493 C1492 1.377 . S
C1493 C1499 1.390 . S
C1494 H1485 0.930 . S
C1494 C1492 1.384 . S
C1494 C1495 1.372 . S
C1495 C1494 1.372 . S
C1495 C1496 1.400 . S
C1495 C1500 1.490 . S
C1496 H1486 0.930 . S
C1496 C1495 1.400 . S
C1496 C1499 1.386 . S
H1497 C1513 0.930 . S
H1498 C1514 0.931 . S
C1499 H1487 0.929 . S
C1499 C1493 1.390 . S
C1499 C1496 1.386 . S
C1500 C1495 1.490 . S
C1500 C1502 1.395 . S
C1500 C1503 1.403 . S
H1501 C1507 0.930 . S
C1502 H1488 0.930 . S
C1502 C1500 1.395 . S
C1502 C1505 1.403 . S
C1503 C1500 1.403 . S
C1503 C1504 1.524 . S
C1503 C1507 1.400 . S
C1504 H1489 0.960 . S
C1504 H1490 0.960 . S
C1504 H1491 0.960 . S
C1504 C1503 1.524 . S
C1505 C1502 1.403 . S
C1505 C1506 1.392 . S
C1505 C1509 1.495 . S
C1506 C1505 1.392 . S
C1506 C1507 1.385 . S
C1506 C1508 1.478 . S
C1507 H1501 0.930 . S
C1507 C1503 1.400 . S
C1507 C1506 1.385 . S
C1508 C1506 1.478 . S
C1508 C1510 1.381 . S
C1508 C1514 1.383 . S
C1509 C1505 1.495 . S
C1509 H1515 0.959 . S
C1509 H1516 0.961 . S
C1509 H1517 0.960 . S
C1510 C1508 1.381 . S
C1510 C1511 1.394 . S
C1510 H1518 0.930 . S
C1511 C1510 1.394 . S
C1511 C1512 1.383 . S
C1511 H1519 0.929 . S
C1512 C1511 1.383 . S
C1512 C1513 1.377 . S
C1513 H1497 0.930 . S
C1513 C1512 1.377 . S
C1513 C1514 1.379 . S
C1514 H1498 0.931 . S
C1514 C1508 1.383 . S
C1514 C1513 1.379 . S
H1515 C1509 0.959 . S
H1516 C1509 0.961 . S
H1517 C1509 0.960 . S
H1518 C1510 0.930 . S
H1519 C1511 0.929 . S
H1520 C1528 0.929 . S
H1521 C1530 0.930 . S
H1522 C1532 0.930 . S
H1523 C1535 0.929 . S
H1524 C1538 0.930 1_655 S
H1525 C1540 0.960 . S
H1526 C1540 0.960 . S
H1527 C1540 0.960 . S
C1528 H1520 0.929 . S
C1528 C1529 1.377 . S
C1528 C1530 1.384 . S
C1529 C1528 1.377 . S
C1529 C1535 1.390 . S
C1530 H1521 0.930 . S
C1530 C1528 1.384 . S
C1530 C1531 1.372 . S
C1531 C1530 1.372 . S
C1531 C1532 1.400 . S
C1531 C1536 1.490 . S
C1532 H1522 0.930 . S
C1532 C1531 1.400 . S
C1532 C1535 1.386 . S
H1533 C1549 0.930 . S
H1534 C1550 0.931 . S
C1535 H1523 0.929 . S
C1535 C1529 1.390 . S
C1535 C1532 1.386 . S
C1536 C1531 1.490 . S
C1536 C1538 1.395 . S
C1536 C1539 1.403 . S
H1537 C1543 0.930 . S
C1538 H1524 0.930 1_455 S
C1538 C1536 1.395 . S
C1538 C1541 1.404 1_455 S
C1539 C1536 1.403 . S
C1539 C1540 1.524 . S
C1539 C1543 1.400 . S
C1540 H1525 0.960 . S
C1540 H1526 0.960 . S
C1540 H1527 0.960 . S
C1540 C1539 1.524 . S
C1541 C1538 1.404 1_655 S
C1541 C1542 1.393 1_655 S
C1541 C1545 1.494 . S
C1542 C1541 1.393 1_455 S
C1542 C1543 1.385 . S
C1542 C1544 1.478 . S
C1543 H1537 0.930 . S
C1543 C1539 1.400 . S
C1543 C1542 1.385 . S
C1544 C1542 1.478 . S
C1544 C1546 1.381 . S
C1544 C1550 1.383 . S
C1545 C1541 1.494 . S
C1545 H1551 0.959 . S
C1545 H1552 0.961 . S
C1545 H1553 0.960 . S
C1546 C1544 1.381 . S
C1546 C1547 1.394 . S
C1546 H1554 0.930 . S
C1547 C1546 1.394 . S
C1547 C1548 1.383 . S
C1547 H1555 0.929 . S
C1548 C1547 1.383 . S
C1548 C1549 1.377 . S
C1549 H1533 0.930 . S
C1549 C1548 1.377 . S
C1549 C1550 1.379 . S
C1550 H1534 0.931 . S
C1550 C1544 1.383 . S
C1550 C1549 1.379 . S
H1551 C1545 0.959 . S
H1552 C1545 0.961 . S
H1553 C1545 0.960 . S
H1554 C1546 0.930 . S
H1555 C1547 0.929 . S
H1556 C1564 0.929 . S
H1557 C1566 0.930 . S
H1558 C1568 0.930 . S
H1559 C1571 0.929 . S
H1560 C1574 0.930 . S
H1561 C1576 0.960 . S
H1562 C1576 0.960 . S
H1563 C1576 0.960 . S
C1564 H1556 0.929 . S
C1564 C1565 1.377 . S
C1564 C1566 1.384 . S
C1565 C1564 1.377 . S
C1565 C1571 1.390 . S
C1566 H1557 0.930 . S
C1566 C1564 1.384 . S
C1566 C1567 1.372 . S
C1567 C1566 1.372 . S
C1567 C1568 1.400 . S
C1567 C1572 1.490 . S
C1568 H1558 0.930 . S
C1568 C1567 1.400 . S
C1568 C1571 1.386 . S
H1569 C1585 0.930 . S
H1570 C1586 0.931 . S
C1571 H1559 0.929 . S
C1571 C1565 1.390 . S
C1571 C1568 1.386 . S
C1572 C1567 1.490 . S
C1572 C1574 1.395 . S
C1572 C1575 1.403 . S
H1573 C1579 0.930 . S
C1574 H1560 0.930 . S
C1574 C1572 1.395 . S
C1574 C1577 1.403 . S
C1575 C1572 1.403 . S
C1575 C1576 1.524 . S
C1575 C1579 1.400 . S
C1576 H1561 0.960 . S
C1576 H1562 0.960 . S
C1576 H1563 0.960 . S
C1576 C1575 1.524 . S
C1577 C1574 1.403 . S
C1577 C1578 1.392 . S
C1577 C1581 1.495 . S
C1578 C1577 1.392 . S
C1578 C1579 1.385 . S
C1578 C1580 1.478 . S
C1579 H1573 0.930 . S
C1579 C1575 1.400 . S
C1579 C1578 1.385 . S
C1580 C1578 1.478 . S
C1580 C1582 1.381 . S
C1580 C1586 1.383 . S
C1581 C1577 1.495 . S
C1581 H1587 0.959 . S
C1581 H1588 0.961 . S
C1581 H1589 0.960 . S
C1582 C1580 1.381 . S
C1582 C1583 1.394 . S
C1582 H1590 0.930 . S
C1583 C1582 1.394 . S
C1583 C1584 1.383 . S
C1583 H1591 0.929 . S
C1584 C1583 1.383 . S
C1584 C1585 1.377 . S
C1585 H1569 0.930 . S
C1585 C1584 1.377 . S
C1585 C1586 1.379 . S
C1586 H1570 0.931 . S
C1586 C1580 1.383 . S
C1586 C1585 1.379 . S
H1587 C1581 0.959 . S
H1588 C1581 0.961 . S
H1589 C1581 0.960 . S
H1590 C1582 0.930 . S
H1591 C1583 0.929 . S
H1592 C1600 0.929 . S
H1593 C1602 0.930 . S
H1594 C1604 0.930 . S
H1595 C1607 0.929 . S
H1596 C1610 0.930 . S
H1597 C1612 0.960 . S
H1598 C1612 0.960 . S
H1599 C1612 0.960 . S
C1600 H1592 0.929 . S
C1600 C1601 1.377 . S
C1600 C1602 1.384 . S
C1601 C1600 1.377 . S
C1601 C1607 1.390 . S
C1602 H1593 0.930 . S
C1602 C1600 1.384 . S
C1602 C1603 1.372 . S
C1603 C1602 1.372 . S
C1603 C1604 1.400 . S
C1603 C1608 1.490 . S
C1604 H1594 0.930 . S
C1604 C1603 1.400 . S
C1604 C1607 1.386 . S
H1605 C1621 0.930 . S
H1606 C1622 0.931 . S
C1607 H1595 0.929 . S
C1607 C1601 1.390 . S
C1607 C1604 1.386 . S
C1608 C1603 1.490 . S
C1608 C1610 1.395 . S
C1608 C1611 1.403 . S
H1609 C1615 0.930 . S
C1610 H1596 0.930 . S
C1610 C1608 1.395 . S
C1610 C1613 1.403 . S
C1611 C1608 1.403 . S
C1611 C1612 1.524 . S
C1611 C1615 1.400 . S
C1612 H1597 0.960 . S
C1612 H1598 0.960 . S
C1612 H1599 0.960 . S
C1612 C1611 1.524 . S
C1613 C1610 1.403 . S
C1613 C1614 1.392 . S
C1613 C1617 1.495 . S
C1614 C1613 1.392 . S
C1614 C1615 1.385 . S
C1614 C1616 1.478 . S
C1615 H1609 0.930 . S
C1615 C1611 1.400 . S
C1615 C1614 1.385 . S
C1616 C1614 1.478 . S
C1616 C1618 1.381 . S
C1616 C1622 1.383 . S
C1617 C1613 1.495 . S
C1617 H1623 0.959 . S
C1617 H1624 0.961 . S
C1617 H1625 0.960 . S
C1618 C1616 1.381 . S
C1618 C1619 1.394 . S
C1618 H1626 0.930 . S
C1619 C1618 1.394 . S
C1619 C1620 1.383 . S
C1619 H1627 0.929 . S
C1620 C1619 1.383 . S
C1620 C1621 1.377 . S
C1621 H1605 0.930 . S
C1621 C1620 1.377 . S
C1621 C1622 1.379 . S
C1622 H1606 0.931 . S
C1622 C1616 1.383 . S
C1622 C1621 1.379 . S
H1623 C1617 0.959 . S
H1624 C1617 0.961 . S
H1625 C1617 0.960 . S
H1626 C1618 0.930 . S
H1627 C1619 0.929 . S
H1628 C1636 0.929 . S
H1629 C1638 0.930 . S
H1630 C1640 0.930 . S
H1631 C1643 0.929 . S
H1632 C1646 0.930 . S
H1633 C1648 0.960 . S
H1634 C1648 0.960 . S
H1635 C1648 0.960 . S
C1636 H1628 0.929 . S
C1636 C1637 1.377 . S
C1636 C1638 1.384 . S
C1637 C1636 1.377 . S
C1637 C1643 1.390 . S
C1638 H1629 0.930 . S
C1638 C1636 1.384 . S
C1638 C1639 1.372 . S
C1639 C1638 1.372 . S
C1639 C1640 1.400 . S
C1639 C1644 1.490 . S
C1640 H1630 0.930 . S
C1640 C1639 1.400 . S
C1640 C1643 1.386 . S
H1641 C1657 0.930 . S
H1642 C1658 0.931 . S
C1643 H1631 0.929 . S
C1643 C1637 1.390 . S
C1643 C1640 1.386 . S
C1644 C1639 1.490 . S
C1644 C1646 1.395 . S
C1644 C1647 1.403 . S
H1645 C1651 0.930 . S
C1646 H1632 0.930 . S
C1646 C1644 1.395 . S
C1646 C1649 1.403 . S
C1647 C1644 1.403 . S
C1647 C1648 1.524 . S
C1647 C1651 1.400 . S
C1648 H1633 0.960 . S
C1648 H1634 0.960 . S
C1648 H1635 0.960 . S
C1648 C1647 1.524 . S
C1649 C1646 1.403 . S
C1649 C1650 1.392 . S
C1649 C1653 1.495 . S
C1650 C1649 1.392 . S
C1650 C1651 1.385 . S
C1650 C1652 1.478 . S
C1651 H1645 0.930 . S
C1651 C1647 1.400 . S
C1651 C1650 1.385 . S
C1652 C1650 1.478 . S
C1652 C1654 1.381 . S
C1652 C1658 1.383 . S
C1653 C1649 1.495 . S
C1653 H1659 0.959 . S
C1653 H1660 0.961 . S
C1653 H1661 0.960 . S
C1654 C1652 1.381 . S
C1654 C1655 1.394 . S
C1654 H1662 0.930 . S
C1655 C1654 1.394 . S
C1655 C1656 1.383 . S
C1655 H1663 0.929 . S
C1656 C1655 1.383 . S
C1656 C1657 1.377 . S
C1657 H1641 0.930 . S
C1657 C1656 1.377 . S
C1657 C1658 1.379 . S
C1658 H1642 0.931 . S
C1658 C1652 1.383 . S
C1658 C1657 1.379 . S
H1659 C1653 0.959 . S
H1660 C1653 0.961 . S
H1661 C1653 0.960 . S
H1662 C1654 0.930 . S
H1663 C1655 0.929 . S
H1664 C1672 0.929 1_655 S
H1665 C1674 0.920 1_655 S
H1666 C1676 0.930 . S
H1667 C1679 0.929 . S
H1668 C1682 0.930 . S
H1669 C1684 0.960 . S
H1670 C1684 0.960 . S
H1671 C1684 0.960 1_455 S
C1672 H1664 0.929 1_455 S
C1672 C1673 1.377 . S
C1672 C1674 1.382 . S
C1673 C1672 1.377 . S
C1673 C1679 1.390 . S
C1674 H1665 0.920 1_455 S
C1674 C1672 1.382 . S
C1674 C1675 1.384 . S
C1675 C1674 1.384 . S
C1675 C1676 1.400 . S
C1675 C1680 1.490 . S
C1676 H1666 0.930 . S
C1676 C1675 1.400 . S
C1676 C1679 1.386 . S
H1677 C1693 0.930 . S
H1678 C1694 0.931 . S
C1679 H1667 0.929 . S
C1679 C1673 1.390 . S
C1679 C1676 1.386 . S
C1680 C1675 1.490 . S
C1680 C1682 1.395 . S
C1680 C1683 1.430 . S
H1681 C1687 0.930 1_655 S
C1682 H1668 0.930 . S
C1682 C1680 1.395 . S
C1682 C1685 1.403 . S
C1683 C1680 1.430 . S
C1683 C1684 1.489 1_455 S
C1683 C1687 1.410 . S
C1684 H1669 0.960 . S
C1684 H1670 0.960 . S
C1684 H1671 0.960 1_655 S
C1684 C1683 1.489 1_655 S
C1685 C1682 1.403 . S
C1685 C1686 1.392 . S
C1685 C1689 1.495 . S
C1686 C1685 1.392 . S
C1686 C1687 1.385 . S
C1686 C1688 1.478 . S
C1687 H1681 0.930 1_455 S
C1687 C1683 1.410 . S
C1687 C1686 1.385 . S
C1688 C1686 1.478 . S
C1688 C1690 1.381 1_455 S
C1688 C1694 1.383 . S
C1689 C1685 1.495 . S
C1689 H1695 0.959 . S
C1689 H1696 0.961 . S
C1689 H1697 0.960 . S
C1690 C1688 1.381 1_655 S
C1690 C1691 1.394 . S
C1690 H1698 0.930 . S
C1691 C1690 1.394 . S
C1691 C1692 1.383 1_655 S
C1691 H1699 0.929 . S
C1692 C1691 1.383 1_455 S
C1692 C1693 1.377 . S
C1693 H1677 0.930 . S
C1693 C1692 1.377 . S
C1693 C1694 1.379 . S
C1694 H1678 0.931 . S
C1694 C1688 1.383 . S
C1694 C1693 1.379 . S
H1695 C1689 0.959 . S
H1696 C1689 0.961 . S
H1697 C1689 0.960 . S
H1698 C1690 0.930 . S
H1699 C1691 0.929 . S
H1700 C1708 0.929 . S
H1701 C1710 0.930 . S
H1702 C1712 0.930 . S
H1703 C1715 0.929 . S
H1704 C1718 0.930 . S
H1705 C1720 0.960 . S
H1706 C1720 0.960 . S
H1707 C1720 0.960 . S
C1708 H1700 0.929 . S
C1708 C1709 1.377 . S
C1708 C1710 1.384 . S
C1709 C1708 1.377 . S
C1709 C1715 1.390 . S
C1710 H1701 0.930 . S
C1710 C1708 1.384 . S
C1710 C1711 1.372 . S
C1711 C1710 1.372 . S
C1711 C1712 1.400 . S
C1711 C1716 1.490 . S
C1712 H1702 0.930 . S
C1712 C1711 1.400 . S
C1712 C1715 1.386 . S
H1713 C1729 0.930 . S
H1714 C1730 0.931 . S
C1715 H1703 0.929 . S
C1715 C1709 1.390 . S
C1715 C1712 1.386 . S
C1716 C1711 1.490 . S
C1716 C1718 1.395 . S
C1716 C1719 1.403 . S
H1717 C1723 0.930 . S
C1718 H1704 0.930 . S
C1718 C1716 1.395 . S
C1718 C1721 1.403 . S
C1719 C1716 1.403 . S
C1719 C1720 1.524 . S
C1719 C1723 1.400 . S
C1720 H1705 0.960 . S
C1720 H1706 0.960 . S
C1720 H1707 0.960 . S
C1720 C1719 1.524 . S
C1721 C1718 1.403 . S
C1721 C1722 1.392 . S
C1721 C1725 1.495 . S
C1722 C1721 1.392 . S
C1722 C1723 1.385 . S
C1722 C1724 1.478 . S
C1723 H1717 0.930 . S
C1723 C1719 1.400 . S
C1723 C1722 1.385 . S
C1724 C1722 1.478 . S
C1724 C1726 1.381 . S
C1724 C1730 1.383 . S
C1725 C1721 1.495 . S
C1725 H1731 0.959 . S
C1725 H1732 0.961 . S
C1725 H1733 0.960 . S
C1726 C1724 1.381 . S
C1726 C1727 1.394 . S
C1726 H1734 0.930 . S
C1727 C1726 1.394 . S
C1727 C1728 1.383 . S
C1727 H1735 0.929 . S
C1728 C1727 1.383 . S
C1728 C1729 1.377 . S
C1729 H1713 0.930 . S
C1729 C1728 1.377 . S
C1729 C1730 1.379 . S
C1730 H1714 0.931 . S
C1730 C1724 1.383 . S
C1730 C1729 1.379 . S
H1731 C1725 0.959 . S
H1732 C1725 0.961 . S
H1733 C1725 0.960 . S
H1734 C1726 0.930 . S
H1735 C1727 0.929 . S
H1736 C1744 0.929 . S
H1737 C1746 0.930 . S
H1738 C1748 0.930 . S
H1739 C1751 0.929 . S
H1740 C1754 0.930 . S
H1741 C1756 0.960 . S
H1742 C1756 0.960 . S
H1743 C1756 0.960 . S
C1744 H1736 0.929 . S
C1744 C1745 1.377 . S
C1744 C1746 1.384 . S
C1745 C1744 1.377 . S
C1745 C1751 1.390 . S
C1746 H1737 0.930 . S
C1746 C1744 1.384 . S
C1746 C1747 1.372 . S
C1747 C1746 1.372 . S
C1747 C1748 1.400 . S
C1747 C1752 1.490 . S
C1748 H1738 0.930 . S
C1748 C1747 1.400 . S
C1748 C1751 1.386 . S
H1749 C1765 0.930 1_554 S
H1750 C1766 0.931 . S
C1751 H1739 0.929 . S
C1751 C1745 1.390 . S
C1751 C1748 1.386 . S
C1752 C1747 1.490 . S
C1752 C1754 1.395 . S
C1752 C1755 1.403 . S
H1753 C1759 0.930 . S
C1754 H1740 0.930 . S
C1754 C1752 1.395 . S
C1754 C1757 1.403 . S
C1755 C1752 1.403 . S
C1755 C1756 1.524 . S
C1755 C1759 1.400 . S
C1756 H1741 0.960 . S
C1756 H1742 0.960 . S
C1756 H1743 0.960 . S
C1756 C1755 1.524 . S
C1757 C1754 1.403 . S
C1757 C1758 1.392 . S
C1757 C1761 1.495 . S
C1758 C1757 1.392 . S
C1758 C1759 1.385 . S
C1758 C1760 1.478 . S
C1759 H1753 0.930 . S
C1759 C1755 1.400 . S
C1759 C1758 1.385 . S
C1760 C1758 1.478 . S
C1760 C1762 1.381 . S
C1760 C1766 1.383 . S
C1761 C1757 1.495 . S
C1761 H1767 0.959 . S
C1761 H1768 0.961 . S
C1761 H1769 0.960 . S
C1762 C1760 1.381 . S
C1762 C1763 1.394 . S
C1762 H1770 0.930 . S
C1763 C1762 1.394 . S
C1763 C1764 1.383 . S
C1763 H1771 0.929 . S
C1764 C1763 1.383 . S
C1764 C1765 1.377 . S
C1765 H1749 0.930 1_556 S
C1765 C1764 1.377 . S
C1765 C1766 1.379 . S
C1766 H1750 0.931 . S
C1766 C1760 1.383 . S
C1766 C1765 1.379 . S
H1767 C1761 0.959 . S
H1768 C1761 0.961 . S
H1769 C1761 0.960 . S
H1770 C1762 0.930 . S
H1771 C1763 0.929 . S
H1772 C1780 0.929 . S
H1773 C1782 0.930 . S
H1774 C1784 0.930 . S
H1775 C1787 0.929 . S
H1776 C1790 0.930 . S
H1777 C1792 0.960 . S
H1778 C1792 0.960 . S
H1779 C1792 0.960 . S
C1780 H1772 0.929 . S
C1780 C1781 1.377 . S
C1780 C1782 1.384 . S
C1781 C1780 1.377 . S
C1781 C1787 1.390 . S
C1782 H1773 0.930 . S
C1782 C1780 1.384 . S
C1782 C1783 1.372 . S
C1783 C1782 1.372 . S
C1783 C1784 1.400 . S
C1783 C1788 1.490 . S
C1784 H1774 0.930 . S
C1784 C1783 1.400 . S
C1784 C1787 1.386 . S
H1785 C1801 0.930 . S
H1786 C1802 0.931 . S
C1787 H1775 0.929 . S
C1787 C1781 1.390 . S
C1787 C1784 1.386 . S
C1788 C1783 1.490 . S
C1788 C1790 1.395 . S
C1788 C1791 1.403 . S
H1789 C1795 0.930 . S
C1790 H1776 0.930 . S
C1790 C1788 1.395 . S
C1790 C1793 1.403 . S
C1791 C1788 1.403 . S
C1791 C1792 1.524 . S
C1791 C1795 1.400 . S
C1792 H1777 0.960 . S
C1792 H1778 0.960 . S
C1792 H1779 0.960 . S
C1792 C1791 1.524 . S
C1793 C1790 1.403 . S
C1793 C1794 1.392 . S
C1793 C1797 1.495 . S
C1794 C1793 1.392 . S
C1794 C1795 1.385 . S
C1794 C1796 1.478 . S
C1795 H1789 0.930 . S
C1795 C1791 1.400 . S
C1795 C1794 1.385 . S
C1796 C1794 1.478 . S
C1796 C1798 1.381 . S
C1796 C1802 1.383 . S
C1797 C1793 1.495 . S
C1797 H1803 0.959 . S
C1797 H1804 0.961 . S
C1797 H1805 0.960 . S
C1798 C1796 1.381 . S
C1798 C1799 1.394 . S
C1798 H1806 0.930 . S
C1799 C1798 1.394 . S
C1799 C1800 1.383 . S
C1799 H1807 0.929 . S
C1800 C1799 1.383 . S
C1800 C1801 1.377 . S
C1801 H1785 0.930 . S
C1801 C1800 1.377 . S
C1801 C1802 1.379 . S
C1802 H1786 0.931 . S
C1802 C1796 1.383 . S
C1802 C1801 1.379 . S
H1803 C1797 0.959 . S
H1804 C1797 0.961 . S
H1805 C1797 0.960 . S
H1806 C1798 0.930 . S
H1807 C1799 0.929 . S
H1808 C1816 0.929 . S
H1809 C1818 0.930 . S
H1810 C1820 0.930 . S
H1811 C1823 0.929 . S
H1812 C1826 0.930 . S
H1813 C1828 0.960 . S
H1814 C1828 0.960 . S
H1815 C1828 0.960 . S
C1816 H1808 0.929 . S
C1816 C1817 1.377 1_565 S
C1816 C1818 1.384 . S
C1817 C1816 1.377 1_545 S
C1817 C1823 1.390 . S
C1818 H1809 0.930 . S
C1818 C1816 1.384 . S
C1818 C1819 1.372 1_565 S
C1819 C1818 1.372 1_545 S
C1819 C1820 1.400 . S
C1819 C1824 1.490 . S
C1820 H1810 0.930 . S
C1820 C1819 1.400 . S
C1820 C1823 1.386 . S
H1821 C1837 0.930 . S
H1822 C1838 0.931 . S
C1823 H1811 0.929 . S
C1823 C1817 1.390 . S
C1823 C1820 1.386 . S
C1824 C1819 1.490 . S
C1824 C1826 1.395 1_545 S
C1824 C1827 1.403 . S
H1825 C1831 0.930 . S
C1826 H1812 0.930 . S
C1826 C1824 1.395 1_565 S
C1826 C1829 1.403 . S
C1827 C1824 1.403 . S
C1827 C1828 1.524 . S
C1827 C1831 1.400 . S
C1828 H1813 0.960 . S
C1828 H1814 0.960 . S
C1828 H1815 0.960 . S
C1828 C1827 1.524 . S
C1829 C1826 1.403 . S
C1829 C1830 1.392 1_565 S
C1829 C1833 1.495 . S
C1830 C1829 1.392 1_545 S
C1830 C1831 1.385 . S
C1830 C1832 1.478 . S
C1831 H1825 0.930 . S
C1831 C1827 1.400 . S
C1831 C1830 1.385 . S
C1832 C1830 1.478 . S
C1832 C1834 1.381 1_545 S
C1832 C1838 1.383 . S
C1833 C1829 1.495 . S
C1833 H1839 0.959 . S
C1833 H1840 0.961 . S
C1833 H1841 0.960 . S
C1834 C1832 1.381 1_565 S
C1834 C1835 1.394 . S
C1834 H1842 0.930 . S
C1835 C1834 1.394 . S
C1835 C1836 1.383 1_565 S
C1835 H1843 0.929 . S
C1836 C1835 1.383 1_545 S
C1836 C1837 1.377 . S
C1837 H1821 0.930 . S
C1837 C1836 1.377 . S
C1837 C1838 1.379 . S
C1838 H1822 0.931 . S
C1838 C1832 1.383 . S
C1838 C1837 1.379 . S
H1839 C1833 0.959 . S
H1840 C1833 0.961 . S
H1841 C1833 0.960 . S
H1842 C1834 0.930 . S
H1843 C1835 0.929 . S
H1844 C1852 0.929 . S
H1845 C1854 0.930 . S
H1846 C1856 0.930 . S
H1847 C1859 0.929 . S
H1848 C1862 0.930 . S
H1849 C1864 0.960 . S
H1850 C1864 0.960 . S
H1851 C1864 0.960 . S
C1852 H1844 0.929 . S
C1852 C1853 1.377 . S
C1852 C1854 1.384 . S
C1853 C1852 1.377 . S
C1853 C1859 1.390 . S
C1854 H1845 0.930 . S
C1854 C1852 1.384 . S
C1854 C1855 1.372 . S
C1855 C1854 1.372 . S
C1855 C1856 1.400 . S
C1855 C1860 1.490 . S
C1856 H1846 0.930 . S
C1856 C1855 1.400 . S
C1856 C1859 1.386 . S
H1857 C1873 0.930 . S
H1858 C1874 0.931 . S
C1859 H1847 0.929 . S
C1859 C1853 1.390 . S
C1859 C1856 1.386 . S
C1860 C1855 1.490 . S
C1860 C1862 1.395 . S
C1860 C1863 1.403 . S
H1861 C1867 0.930 . S
C1862 H1848 0.930 . S
C1862 C1860 1.395 . S
C1862 C1865 1.403 . S
C1863 C1860 1.403 . S
C1863 C1864 1.524 . S
C1863 C1867 1.400 . S
C1864 H1849 0.960 . S
C1864 H1850 0.960 . S
C1864 H1851 0.960 . S
C1864 C1863 1.524 . S
C1865 C1862 1.403 . S
C1865 C1866 1.392 . S
C1865 C1869 1.495 . S
C1866 C1865 1.392 . S
C1866 C1867 1.385 . S
C1866 C1868 1.478 . S
C1867 H1861 0.930 . S
C1867 C1863 1.400 . S
C1867 C1866 1.385 . S
C1868 C1866 1.478 . S
C1868 C1870 1.381 . S
C1868 C1874 1.383 . S
C1869 C1865 1.495 . S
C1869 H1875 0.959 . S
C1869 H1876 0.961 . S
C1869 H1877 0.960 . S
C1870 C1868 1.381 . S
C1870 C1871 1.394 . S
C1870 H1878 0.930 . S
C1871 C1870 1.394 . S
C1871 C1872 1.383 . S
C1871 H1879 0.929 . S
C1872 C1871 1.383 . S
C1872 C1873 1.377 . S
C1873 H1857 0.930 . S
C1873 C1872 1.377 . S
C1873 C1874 1.379 . S
C1874 H1858 0.931 . S
C1874 C1868 1.383 . S
C1874 C1873 1.379 . S
H1875 C1869 0.959 . S
H1876 C1869 0.961 . S
H1877 C1869 0.960 . S
H1878 C1870 0.930 . S
H1879 C1871 0.929 . S
H1880 C1888 0.929 . S
H1881 C1890 0.930 . S
H1882 C1892 0.930 . S
H1883 C1895 0.929 . S
H1884 C1898 0.930 . S
H1885 C1900 0.958 . S
H1886 C1900 0.960 1_565 S
H1887 C1900 0.960 . S
C1888 H1880 0.929 . S
C1888 C1889 1.377 . S
C1888 C1890 1.384 . S
C1889 C1888 1.377 . S
C1889 C1895 1.390 . S
C1890 H1881 0.930 . S
C1890 C1888 1.384 . S
C1890 C1891 1.372 . S
C1891 C1890 1.372 . S
C1891 C1892 1.400 . S
C1891 C1896 1.490 . S
C1892 H1882 0.930 . S
C1892 C1891 1.400 . S
C1892 C1895 1.386 . S
H1893 C1909 0.930 . S
H1894 C1910 0.931 . S
C1895 H1883 0.929 . S
C1895 C1889 1.390 . S
C1895 C1892 1.386 . S
C1896 C1891 1.490 . S
C1896 C1898 1.395 . S
C1896 C1899 1.403 . S
H1897 C1903 0.930 . S
C1898 H1884 0.930 . S
C1898 C1896 1.395 . S
C1898 C1901 1.403 . S
C1899 C1896 1.403 . S
C1899 C1900 1.524 . S
C1899 C1903 1.400 . S
C1900 H1885 0.958 . S
C1900 H1886 0.960 1_545 S
C1900 H1887 0.960 . S
C1900 C1899 1.524 . S
C1901 C1898 1.403 . S
C1901 C1902 1.392 . S
C1901 C1905 1.495 . S
C1902 C1901 1.392 . S
C1902 C1903 1.385 . S
C1902 C1904 1.478 . S
C1903 H1897 0.930 . S
C1903 C1899 1.400 . S
C1903 C1902 1.385 . S
C1904 C1902 1.478 . S
C1904 C1906 1.381 . S
C1904 C1910 1.383 . S
C1905 C1901 1.495 . S
C1905 H1911 0.959 . S
C1905 H1912 0.961 . S
C1905 H1913 0.960 . S
C1906 C1904 1.381 . S
C1906 C1907 1.394 . S
C1906 H1914 0.930 . S
C1907 C1906 1.394 . S
C1907 C1908 1.383 . S
C1907 H1915 0.929 . S
C1908 C1907 1.383 . S
C1908 C1909 1.377 . S
C1909 H1893 0.930 . S
C1909 C1908 1.377 . S
C1909 C1910 1.379 . S
C1910 H1894 0.931 . S
C1910 C1904 1.383 . S
C1910 C1909 1.379 . S
H1911 C1905 0.959 . S
H1912 C1905 0.961 . S
H1913 C1905 0.960 . S
H1914 C1906 0.930 . S
H1915 C1907 0.929 . S
H1916 C1924 0.929 . S
H1917 C1926 0.930 . S
H1918 C1928 0.930 . S
H1919 C1931 0.929 . S
H1920 C1934 0.930 . S
H1921 C1936 0.960 . S
H1922 C1936 0.960 . S
H1923 C1936 0.960 . S
C1924 H1916 0.929 . S
C1924 C1925 1.377 . S
C1924 C1926 1.384 . S
C1925 C1924 1.377 . S
C1925 C1931 1.390 . S
C1926 H1917 0.930 . S
C1926 C1924 1.384 . S
C1926 C1927 1.372 . S
C1927 C1926 1.372 . S
C1927 C1928 1.400 . S
C1927 C1932 1.490 . S
C1928 H1918 0.930 . S
C1928 C1927 1.400 . S
C1928 C1931 1.386 . S
H1929 C1945 0.930 . S
H1930 C1946 0.931 . S
C1931 H1919 0.929 . S
C1931 C1925 1.390 . S
C1931 C1928 1.386 . S
C1932 C1927 1.490 . S
C1932 C1934 1.395 . S
C1932 C1935 1.403 . S
H1933 C1939 0.930 . S
C1934 H1920 0.930 . S
C1934 C1932 1.395 . S
C1934 C1937 1.403 . S
C1935 C1932 1.403 . S
C1935 C1936 1.524 . S
C1935 C1939 1.400 . S
C1936 H1921 0.960 . S
C1936 H1922 0.960 . S
C1936 H1923 0.960 . S
C1936 C1935 1.524 . S
C1937 C1934 1.403 . S
C1937 C1938 1.392 . S
C1937 C1941 1.495 . S
C1938 C1937 1.392 . S
C1938 C1939 1.385 . S
C1938 C1940 1.478 . S
C1939 H1933 0.930 . S
C1939 C1935 1.400 . S
C1939 C1938 1.385 . S
C1940 C1938 1.478 . S
C1940 C1942 1.381 . S
C1940 C1946 1.383 . S
C1941 C1937 1.495 . S
C1941 H1947 0.959 . S
C1941 H1948 0.961 . S
C1941 H1949 0.960 . S
C1942 C1940 1.381 . S
C1942 C1943 1.394 . S
C1942 H1950 0.930 . S
C1943 C1942 1.394 . S
C1943 C1944 1.383 . S
C1943 H1951 0.929 . S
C1944 C1943 1.383 . S
C1944 C1945 1.377 . S
C1945 H1929 0.930 . S
C1945 C1944 1.377 . S
C1945 C1946 1.379 . S
C1946 H1930 0.931 . S
C1946 C1940 1.383 . S
C1946 C1945 1.379 . S
H1947 C1941 0.959 . S
H1948 C1941 0.961 . S
H1949 C1941 0.960 . S
H1950 C1942 0.930 . S
H1951 C1943 0.929 . S
H1952 C1960 0.929 . S
H1953 C1962 0.930 . S
H1954 C1964 0.930 . S
H1955 C1967 0.929 . S
H1956 C1970 0.930 . S
H1957 C1972 0.960 . S
H1958 C1972 0.960 . S
H1959 C1972 0.960 . S
C1960 H1952 0.929 . S
C1960 C1961 1.377 . S
C1960 C1962 1.382 1_565 S
C1961 C1960 1.377 . S
C1961 C1967 1.390 . S
C1962 H1953 0.930 . S
C1962 C1960 1.382 1_545 S
C1962 C1963 1.373 . S
C1963 C1962 1.373 . S
C1963 C1964 1.400 . S
C1963 C1968 1.490 . S
C1964 H1954 0.930 . S
C1964 C1963 1.400 . S
C1964 C1967 1.386 1_545 S
H1965 C1981 0.930 . S
H1966 C1982 0.931 . S
C1967 H1955 0.929 . S
C1967 C1961 1.390 . S
C1967 C1964 1.386 1_565 S
C1968 C1963 1.490 . S
C1968 C1970 1.395 1_545 S
C1968 C1971 1.403 . S
H1969 C1975 0.930 . S
C1970 H1956 0.930 . S
C1970 C1968 1.395 1_565 S
C1970 C1973 1.403 . S
C1971 C1968 1.403 . S
C1971 C1972 1.524 . S
C1971 C1975 1.400 . S
C1972 H1957 0.960 . S
C1972 H1958 0.960 . S
C1972 H1959 0.960 . S
C1972 C1971 1.524 . S
C1973 C1970 1.403 . S
C1973 C1974 1.392 1_565 S
C1973 C1977 1.495 . S
C1974 C1973 1.392 1_545 S
C1974 C1975 1.385 . S
C1974 C1976 1.478 . S
C1975 H1969 0.930 . S
C1975 C1971 1.400 . S
C1975 C1974 1.385 . S
C1976 C1974 1.478 . S
C1976 C1978 1.381 . S
C1976 C1982 1.383 . S
C1977 C1973 1.495 . S
C1977 H1983 0.959 . S
C1977 H1984 0.961 . S
C1977 H1985 0.960 . S
C1978 C1976 1.381 . S
C1978 C1979 1.394 . S
C1978 H1986 0.930 . S
C1979 C1978 1.394 . S
C1979 C1980 1.383 . S
C1979 H1987 0.929 . S
C1980 C1979 1.383 . S
C1980 C1981 1.377 . S
C1981 H1965 0.930 . S
C1981 C1980 1.377 . S
C1981 C1982 1.379 . S
C1982 H1966 0.931 . S
C1982 C1976 1.383 . S
C1982 C1981 1.379 . S
H1983 C1977 0.959 . S
H1984 C1977 0.961 . S
H1985 C1977 0.960 . S
H1986 C1978 0.930 . S
H1987 C1979 0.929 . S
H1988 C1996 0.929 . S
H1989 C1998 0.930 . S
H1990 C2000 0.930 . S
H1991 C2003 0.929 . S
H1992 C2006 0.930 . S
H1993 C2008 0.960 . S
H1994 C2008 0.960 . S
H1995 C2008 0.960 . S
C1996 H1988 0.929 . S
C1996 C1997 1.377 . S
C1996 C1998 1.384 . S
C1997 C1996 1.377 . S
C1997 C2003 1.390 . S
C1998 H1989 0.930 . S
C1998 C1996 1.384 . S
C1998 C1999 1.372 . S
C1999 C1998 1.372 . S
C1999 C2000 1.400 . S
C1999 C2004 1.490 . S
C2000 H1990 0.930 . S
C2000 C1999 1.400 . S
C2000 C2003 1.386 . S
H2001 C2017 0.930 . S
H2002 C2018 0.931 . S
C2003 H1991 0.929 . S
C2003 C1997 1.390 . S
C2003 C2000 1.386 . S
C2004 C1999 1.490 . S
C2004 C2006 1.395 . S
C2004 C2007 1.403 . S
H2005 C2011 0.930 . S
C2006 H1992 0.930 . S
C2006 C2004 1.395 . S
C2006 C2009 1.403 . S
C2007 C2004 1.403 . S
C2007 C2008 1.524 . S
C2007 C2011 1.400 . S
C2008 H1993 0.960 . S
C2008 H1994 0.960 . S
C2008 H1995 0.960 . S
C2008 C2007 1.524 . S
C2009 C2006 1.403 . S
C2009 C2010 1.392 . S
C2009 C2013 1.495 . S
C2010 C2009 1.392 . S
C2010 C2011 1.385 . S
C2010 C2012 1.478 . S
C2011 H2005 0.930 . S
C2011 C2007 1.400 . S
C2011 C2010 1.385 . S
C2012 C2010 1.478 . S
C2012 C2014 1.381 . S
C2012 C2018 1.383 . S
C2013 C2009 1.495 . S
C2013 H2019 0.959 . S
C2013 H2020 0.961 . S
C2013 H2021 0.960 . S
C2014 C2012 1.381 . S
C2014 C2015 1.394 . S
C2014 H2022 0.930 . S
C2015 C2014 1.394 . S
C2015 C2016 1.383 . S
C2015 H2023 0.929 . S
C2016 C2015 1.383 . S
C2016 C2017 1.377 . S
C2017 H2001 0.930 . S
C2017 C2016 1.377 . S
C2017 C2018 1.379 . S
C2018 H2002 0.931 . S
C2018 C2012 1.383 . S
C2018 C2017 1.379 . S
H2019 C2013 0.959 . S
H2020 C2013 0.961 . S
H2021 C2013 0.960 . S
H2022 C2014 0.930 . S
H2023 C2015 0.929 . S
H2024 C2032 0.929 . S
H2025 C2034 0.930 . S
H2026 C2036 0.930 1_565 S
H2027 C2039 0.929 1_565 S
H2028 C2042 0.930 . S
H2029 C2044 0.960 . S
H2030 C2044 0.960 . S
H2031 C2044 0.960 . S
C2032 H2024 0.929 . S
C2032 C2033 1.377 . S
C2032 C2034 1.384 . S
C2033 C2032 1.377 . S
C2033 C2039 1.390 . S
C2034 H2025 0.930 . S
C2034 C2032 1.384 . S
C2034 C2035 1.372 . S
C2035 C2034 1.372 . S
C2035 C2036 1.400 . S
C2035 C2040 1.490 . S
C2036 H2026 0.930 1_545 S
C2036 C2035 1.400 . S
C2036 C2039 1.386 . S
H2037 C2053 0.930 . S
H2038 C2054 0.931 . S
C2039 H2027 0.929 1_545 S
C2039 C2033 1.390 . S
C2039 C2036 1.386 . S
C2040 C2035 1.490 . S
C2040 C2042 1.395 . S
C2040 C2043 1.403 . S
H2041 C2047 0.930 . S
C2042 H2028 0.930 . S
C2042 C2040 1.395 . S
C2042 C2045 1.403 . S
C2043 C2040 1.403 . S
C2043 C2044 1.524 . S
C2043 C2047 1.400 . S
C2044 H2029 0.960 . S
C2044 H2030 0.960 . S
C2044 H2031 0.960 . S
C2044 C2043 1.524 . S
C2045 C2042 1.403 . S
C2045 C2046 1.392 . S
C2045 C2049 1.495 . S
C2046 C2045 1.392 . S
C2046 C2047 1.385 . S
C2046 C2048 1.478 . S
C2047 H2041 0.930 . S
C2047 C2043 1.400 . S
C2047 C2046 1.385 . S
C2048 C2046 1.478 . S
C2048 C2050 1.381 . S
C2048 C2054 1.383 1_545 S
C2049 C2045 1.495 . S
C2049 H2055 0.959 . S
C2049 H2056 0.961 . S
C2049 H2057 0.960 . S
C2050 C2048 1.381 . S
C2050 C2051 1.394 . S
C2050 H2058 0.930 . S
C2051 C2050 1.394 . S
C2051 C2052 1.383 . S
C2051 H2059 0.929 . S
C2052 C2051 1.383 . S
C2052 C2053 1.377 1_545 S
C2053 H2037 0.930 . S
C2053 C2052 1.377 1_565 S
C2053 C2054 1.379 . S
C2054 H2038 0.931 . S
C2054 C2048 1.383 1_565 S
C2054 C2053 1.379 . S
H2055 C2049 0.959 . S
H2056 C2049 0.961 . S
H2057 C2049 0.960 . S
H2058 C2050 0.930 . S
H2059 C2051 0.929 . S
H2060 C2068 0.929 . S
H2061 C2070 0.930 . S
H2062 C2072 0.930 . S
H2063 C2075 0.929 . S
H2064 C2078 0.930 . S
H2065 C2080 0.960 . S
H2066 C2080 0.960 . S
H2067 C2080 0.960 . S
C2068 H2060 0.929 . S
C2068 C2069 1.377 . S
C2068 C2070 1.384 . S
C2069 C2068 1.377 . S
C2069 C2075 1.390 . S
C2070 H2061 0.930 . S
C2070 C2068 1.384 . S
C2070 C2071 1.372 . S
C2071 C2070 1.372 . S
C2071 C2072 1.400 . S
C2071 C2076 1.490 . S
C2072 H2062 0.930 . S
C2072 C2071 1.400 . S
C2072 C2075 1.386 . S
H2073 C2089 0.930 . S
H2074 C2090 0.931 . S
C2075 H2063 0.929 . S
C2075 C2069 1.390 . S
C2075 C2072 1.386 . S
C2076 C2071 1.490 . S
C2076 C2078 1.395 . S
C2076 C2079 1.403 . S
H2077 C2083 0.930 . S
C2078 H2064 0.930 . S
C2078 C2076 1.395 . S
C2078 C2081 1.403 . S
C2079 C2076 1.403 . S
C2079 C2080 1.524 . S
C2079 C2083 1.400 . S
C2080 H2065 0.960 . S
C2080 H2066 0.960 . S
C2080 H2067 0.960 . S
C2080 C2079 1.524 . S
C2081 C2078 1.403 . S
C2081 C2082 1.392 . S
C2081 C2085 1.495 . S
C2082 C2081 1.392 . S
C2082 C2083 1.385 . S
C2082 C2084 1.478 . S
C2083 H2077 0.930 . S
C2083 C2079 1.400 . S
C2083 C2082 1.385 . S
C2084 C2082 1.478 . S
C2084 C2086 1.381 . S
C2084 C2090 1.383 . S
C2085 C2081 1.495 . S
C2085 H2091 0.959 . S
C2085 H2092 0.961 . S
C2085 H2093 0.960 . S
C2086 C2084 1.381 . S
C2086 C2087 1.394 . S
C2086 H2094 0.930 . S
C2087 C2086 1.394 . S
C2087 C2088 1.383 . S
C2087 H2095 0.929 . S
C2088 C2087 1.383 . S
C2088 C2089 1.377 . S
C2089 H2073 0.930 . S
C2089 C2088 1.377 . S
C2089 C2090 1.379 . S
C2090 H2074 0.931 . S
C2090 C2084 1.383 . S
C2090 C2089 1.379 . S
H2091 C2085 0.959 . S
H2092 C2085 0.961 . S
H2093 C2085 0.960 . S
H2094 C2086 0.930 . S
H2095 C2087 0.929 . S
H2096 C2104 0.929 1_554 S
H2097 C2106 0.930 . S
H2098 C2108 0.931 . S
H2099 C2111 0.932 . S
H2100 C2114 0.930 . S
H2101 C2116 0.960 . S
H2102 C2116 0.960 . S
H2103 C2116 0.960 . S
C2104 H2096 0.929 1_556 S
C2104 C2105 1.380 1_556 S
C2104 C2106 1.384 . S
C2105 C2104 1.380 1_554 S
C2105 C2111 1.390 . S
C2106 H2097 0.930 . S
C2106 C2104 1.384 . S
C2106 C2107 1.372 . S
C2107 C2106 1.372 . S
C2107 C2108 1.399 . S
C2107 C2112 1.490 . S
C2108 H2098 0.931 . S
C2108 C2107 1.399 . S
C2108 C2111 1.385 1_556 S
H2109 C2125 0.930 . S
H2110 C2126 0.931 . S
C2111 H2099 0.932 . S
C2111 C2105 1.390 . S
C2111 C2108 1.385 1_554 S
C2112 C2107 1.490 . S
C2112 C2114 1.395 . S
C2112 C2115 1.403 1_556 S
H2113 C2119 0.930 . S
C2114 H2100 0.930 . S
C2114 C2112 1.395 . S
C2114 C2117 1.403 . S
C2115 C2112 1.403 1_554 S
C2115 C2116 1.524 . S
C2115 C2119 1.400 . S
C2116 H2101 0.960 . S
C2116 H2102 0.960 . S
C2116 H2103 0.960 . S
C2116 C2115 1.524 . S
C2117 C2114 1.403 . S
C2117 C2118 1.392 . S
C2117 C2121 1.495 . S
C2118 C2117 1.392 . S
C2118 C2119 1.385 1_556 S
C2118 C2120 1.478 . S
C2119 H2113 0.930 . S
C2119 C2115 1.400 . S
C2119 C2118 1.385 1_554 S
C2120 C2118 1.478 . S
C2120 C2122 1.381 . S
C2120 C2126 1.383 . S
C2121 C2117 1.495 . S
C2121 H2127 0.959 . S
C2121 H2128 0.961 . S
C2121 H2129 0.960 . S
C2122 C2120 1.381 . S
C2122 C2123 1.394 . S
C2122 H2130 0.930 . S
C2123 C2122 1.394 . S
C2123 C2124 1.383 . S
C2123 H2131 0.929 . S
C2124 C2123 1.383 . S
C2124 C2125 1.377 . S
C2125 H2109 0.930 . S
C2125 C2124 1.377 . S
C2125 C2126 1.379 . S
C2126 H2110 0.931 . S
C2126 C2120 1.383 . S
C2126 C2125 1.379 . S
H2127 C2121 0.959 . S
H2128 C2121 0.961 . S
H2129 C2121 0.960 . S
H2130 C2122 0.930 . S
H2131 C2123 0.929 . S
H2132 C2140 0.929 . S
H2133 C2142 0.930 . S
H2134 C2144 0.930 . S
H2135 C2147 0.929 . S
H2136 C2150 0.930 . S
H2137 C2152 0.960 . S
H2138 C2152 0.960 . S
H2139 C2152 0.960 . S
C2140 H2132 0.929 . S
C2140 C2141 1.377 1_556 S
C2140 C2142 1.384 . S
C2141 C2140 1.377 1_554 S
C2141 C2147 1.390 . S
C2142 H2133 0.930 . S
C2142 C2140 1.384 . S
C2142 C2143 1.372 1_556 S
C2143 C2142 1.372 1_554 S
C2143 C2144 1.400 . S
C2143 C2148 1.490 . S
C2144 H2134 0.930 . S
C2144 C2143 1.400 . S
C2144 C2147 1.386 . S
H2145 C2161 0.930 . S
H2146 C2162 0.931 . S
C2147 H2135 0.929 . S
C2147 C2141 1.390 . S
C2147 C2144 1.386 . S
C2148 C2143 1.490 . S
C2148 C2150 1.395 . S
C2148 C2151 1.403 . S
H2149 C2155 0.930 . S
C2150 H2136 0.930 . S
C2150 C2148 1.395 . S
C2150 C2153 1.403 . S
C2151 C2148 1.403 . S
C2151 C2152 1.524 . S
C2151 C2155 1.400 . S
C2152 H2137 0.960 . S
C2152 H2138 0.960 . S
C2152 H2139 0.960 . S
C2152 C2151 1.524 . S
C2153 C2150 1.403 . S
C2153 C2154 1.392 . S
C2153 C2157 1.495 . S
C2154 C2153 1.392 . S
C2154 C2155 1.385 . S
C2154 C2156 1.478 . S
C2155 H2149 0.930 . S
C2155 C2151 1.400 . S
C2155 C2154 1.385 . S
C2156 C2154 1.478 . S
C2156 C2158 1.381 1_554 S
C2156 C2162 1.383 . S
C2157 C2153 1.495 . S
C2157 H2163 0.959 . S
C2157 H2164 0.961 . S
C2157 H2165 0.960 1_554 S
C2158 C2156 1.381 1_556 S
C2158 C2159 1.394 . S
C2158 H2166 0.930 . S
C2159 C2158 1.394 . S
C2159 C2160 1.383 1_556 S
C2159 H2167 0.929 . S
C2160 C2159 1.383 1_554 S
C2160 C2161 1.377 . S
C2161 H2145 0.930 . S
C2161 C2160 1.377 . S
C2161 C2162 1.379 . S
C2162 H2146 0.931 . S
C2162 C2156 1.383 . S
C2162 C2161 1.379 . S
H2163 C2157 0.959 . S
H2164 C2157 0.961 . S
H2165 C2157 0.960 1_556 S
H2166 C2158 0.930 . S
H2167 C2159 0.929 . S
H2168 C2176 0.929 . S
H2169 C2178 0.930 . S
H2170 C2180 0.930 . S
H2171 C2183 0.929 . S
H2172 C2186 0.930 . S
H2173 C2188 0.960 . S
H2174 C2188 0.960 . S
H2175 C2188 0.960 . S
C2176 H2168 0.929 . S
C2176 C2177 1.377 . S
C2176 C2178 1.384 . S
C2177 C2176 1.377 . S
C2177 C2183 1.390 . S
C2178 H2169 0.930 . S
C2178 C2176 1.384 . S
C2178 C2179 1.372 . S
C2179 C2178 1.372 . S
C2179 C2180 1.400 . S
C2179 C2184 1.490 . S
C2180 H2170 0.930 . S
C2180 C2179 1.400 . S
C2180 C2183 1.386 . S
H2181 C2197 0.930 . S
H2182 C2198 0.931 . S
C2183 H2171 0.929 . S
C2183 C2177 1.390 . S
C2183 C2180 1.386 . S
C2184 C2179 1.490 . S
C2184 C2186 1.395 . S
C2184 C2187 1.403 . S
H2185 C2191 0.930 . S
C2186 H2172 0.930 . S
C2186 C2184 1.395 . S
C2186 C2189 1.403 . S
C2187 C2184 1.403 . S
C2187 C2188 1.524 . S
C2187 C2191 1.400 . S
C2188 H2173 0.960 . S
C2188 H2174 0.960 . S
C2188 H2175 0.960 . S
C2188 C2187 1.524 . S
C2189 C2186 1.403 . S
C2189 C2190 1.392 . S
C2189 C2193 1.495 . S
C2190 C2189 1.392 . S
C2190 C2191 1.385 . S
C2190 C2192 1.478 . S
C2191 H2185 0.930 . S
C2191 C2187 1.400 . S
C2191 C2190 1.385 . S
C2192 C2190 1.478 . S
C2192 C2194 1.381 . S
C2192 C2198 1.383 . S
C2193 C2189 1.495 . S
C2193 H2199 0.959 . S
C2193 H2200 0.961 . S
C2193 H2201 0.960 . S
C2194 C2192 1.381 . S
C2194 C2195 1.394 . S
C2194 H2202 0.930 . S
C2195 C2194 1.394 . S
C2195 C2196 1.383 . S
C2195 H2203 0.929 . S
C2196 C2195 1.383 . S
C2196 C2197 1.377 . S
C2197 H2181 0.930 . S
C2197 C2196 1.377 . S
C2197 C2198 1.379 . S
C2198 H2182 0.931 . S
C2198 C2192 1.383 . S
C2198 C2197 1.379 . S
H2199 C2193 0.959 . S
H2200 C2193 0.961 . S
H2201 C2193 0.960 . S
H2202 C2194 0.930 . S
H2203 C2195 0.929 . S
H2204 C2212 0.929 . S
H2205 C2214 0.930 . S
H2206 C2216 0.930 . S
H2207 C2219 0.929 . S
H2208 C2222 0.930 . S
H2209 C2224 0.960 . S
H2210 C2224 0.960 . S
H2211 C2224 0.960 . S
C2212 H2204 0.929 . S
C2212 C2213 1.377 . S
C2212 C2214 1.384 . S
C2213 C2212 1.377 . S
C2213 C2219 1.390 . S
C2214 H2205 0.930 . S
C2214 C2212 1.384 . S
C2214 C2215 1.372 . S
C2215 C2214 1.372 . S
C2215 C2216 1.400 . S
C2215 C2220 1.490 . S
C2216 H2206 0.930 . S
C2216 C2215 1.400 . S
C2216 C2219 1.386 . S
H2217 C2233 0.930 . S
H2218 C2234 0.931 . S
C2219 H2207 0.929 . S
C2219 C2213 1.390 . S
C2219 C2216 1.386 . S
C2220 C2215 1.490 . S
C2220 C2222 1.395 . S
C2220 C2223 1.403 . S
H2221 C2227 0.930 . S
C2222 H2208 0.930 . S
C2222 C2220 1.395 . S
C2222 C2225 1.403 . S
C2223 C2220 1.403 . S
C2223 C2224 1.524 . S
C2223 C2227 1.400 . S
C2224 H2209 0.960 . S
C2224 H2210 0.960 . S
C2224 H2211 0.960 . S
C2224 C2223 1.524 . S
C2225 C2222 1.403 . S
C2225 C2226 1.392 . S
C2225 C2229 1.495 . S
C2226 C2225 1.392 . S
C2226 C2227 1.385 . S
C2226 C2228 1.478 . S
C2227 H2221 0.930 . S
C2227 C2223 1.400 . S
C2227 C2226 1.385 . S
C2228 C2226 1.478 . S
C2228 C2230 1.381 . S
C2228 C2234 1.383 . S
C2229 C2225 1.495 . S
C2229 H2235 0.959 . S
C2229 H2236 0.961 . S
C2229 H2237 0.960 . S
C2230 C2228 1.381 . S
C2230 C2231 1.394 . S
C2230 H2238 0.930 . S
C2231 C2230 1.394 . S
C2231 C2232 1.383 . S
C2231 H2239 0.929 . S
C2232 C2231 1.383 . S
C2232 C2233 1.377 . S
C2233 H2217 0.930 . S
C2233 C2232 1.377 . S
C2233 C2234 1.379 . S
C2234 H2218 0.931 . S
C2234 C2228 1.383 . S
C2234 C2233 1.379 . S
H2235 C2229 0.959 . S
H2236 C2229 0.961 . S
H2237 C2229 0.960 . S
H2238 C2230 0.930 . S
H2239 C2231 0.929 . S
H2240 C2248 0.929 . S
H2241 C2250 0.930 . S
H2242 C2252 0.930 . S
H2243 C2255 0.929 . S
H2244 C2258 0.930 . S
H2245 C2260 0.960 . S
H2246 C2260 0.960 . S
H2247 C2260 0.960 . S
C2248 H2240 0.929 . S
C2248 C2249 1.377 . S
C2248 C2250 1.384 . S
C2249 C2248 1.377 . S
C2249 C2255 1.390 . S
C2250 H2241 0.930 . S
C2250 C2248 1.384 . S
C2250 C2251 1.372 . S
C2251 C2250 1.372 . S
C2251 C2252 1.400 . S
C2251 C2256 1.490 . S
C2252 H2242 0.930 . S
C2252 C2251 1.400 . S
C2252 C2255 1.386 . S
H2253 C2269 0.930 . S
H2254 C2270 0.931 . S
C2255 H2243 0.929 . S
C2255 C2249 1.390 . S
C2255 C2252 1.386 . S
C2256 C2251 1.490 . S
C2256 C2258 1.395 . S
C2256 C2259 1.403 . S
H2257 C2263 0.930 . S
C2258 H2244 0.930 . S
C2258 C2256 1.395 . S
C2258 C2261 1.403 . S
C2259 C2256 1.403 . S
C2259 C2260 1.524 . S
C2259 C2263 1.400 . S
C2260 H2245 0.960 . S
C2260 H2246 0.960 . S
C2260 H2247 0.960 . S
C2260 C2259 1.524 . S
C2261 C2258 1.403 . S
C2261 C2262 1.392 . S
C2261 C2265 1.495 . S
C2262 C2261 1.392 . S
C2262 C2263 1.385 . S
C2262 C2264 1.478 . S
C2263 H2257 0.930 . S
C2263 C2259 1.400 . S
C2263 C2262 1.385 . S
C2264 C2262 1.478 . S
C2264 C2266 1.381 . S
C2264 C2270 1.383 . S
C2265 C2261 1.495 . S
C2265 H2271 0.959 . S
C2265 H2272 0.961 . S
C2265 H2273 0.960 . S
C2266 C2264 1.381 . S
C2266 C2267 1.394 . S
C2266 H2274 0.930 . S
C2267 C2266 1.394 . S
C2267 C2268 1.383 . S
C2267 H2275 0.929 . S
C2268 C2267 1.383 . S
C2268 C2269 1.377 . S
C2269 H2253 0.930 . S
C2269 C2268 1.377 . S
C2269 C2270 1.379 . S
C2270 H2254 0.931 . S
C2270 C2264 1.383 . S
C2270 C2269 1.379 . S
H2271 C2265 0.959 . S
H2272 C2265 0.961 . S
H2273 C2265 0.960 . S
H2274 C2266 0.930 . S
H2275 C2267 0.929 . S
H2276 C2284 0.929 . S
H2277 C2286 0.930 . S
H2278 C2288 0.930 . S
H2279 C2291 0.929 . S
H2280 C2294 0.930 . S
H2281 C2296 0.960 . S
H2282 C2296 0.960 . S
H2283 C2296 0.960 . S
C2284 H2276 0.929 . S
C2284 C2285 1.377 . S
C2284 C2286 1.384 . S
C2285 C2284 1.377 . S
C2285 C2291 1.390 . S
C2286 H2277 0.930 . S
C2286 C2284 1.384 . S
C2286 C2287 1.372 . S
C2287 C2286 1.372 . S
C2287 C2288 1.400 . S
C2287 C2292 1.490 . S
C2288 H2278 0.930 . S
C2288 C2287 1.400 . S
C2288 C2291 1.386 . S
H2289 C2305 0.955 . S
H2290 C2306 0.931 . S
C2291 H2279 0.929 . S
C2291 C2285 1.390 . S
C2291 C2288 1.386 . S
C2292 C2287 1.490 . S
C2292 C2294 1.395 . S
C2292 C2295 1.403 . S
H2293 C2299 0.930 . S
C2294 H2280 0.930 . S
C2294 C2292 1.395 . S
C2294 C2297 1.403 . S
C2295 C2292 1.403 . S
C2295 C2296 1.524 . S
C2295 C2299 1.400 . S
C2296 H2281 0.960 . S
C2296 H2282 0.960 . S
C2296 H2283 0.960 . S
C2296 C2295 1.524 . S
C2297 C2294 1.403 . S
C2297 C2298 1.392 . S
C2297 C2301 1.495 . S
C2298 C2297 1.392 . S
C2298 C2299 1.385 . S
C2298 C2300 1.478 . S
C2299 H2293 0.930 . S
C2299 C2295 1.400 . S
C2299 C2298 1.385 . S
C2300 C2298 1.478 . S
C2300 C2302 1.381 . S
C2300 C2306 1.383 . S
C2301 C2297 1.495 . S
C2301 H2307 0.959 . S
C2301 H2308 0.961 . S
C2301 H2309 0.960 . S
C2302 C2300 1.381 . S
C2302 C2303 1.394 . S
C2302 H2310 0.930 . S
C2303 C2302 1.394 . S
C2303 C2304 1.383 . S
C2303 H2311 0.929 . S
C2304 C2303 1.383 . S
C2304 C2305 1.377 . S
C2305 H2289 0.955 . S
C2305 C2304 1.377 . S
C2305 C2306 1.379 . S
C2306 H2290 0.931 . S
C2306 C2300 1.383 . S
C2306 C2305 1.379 . S
H2307 C2301 0.959 . S
H2308 C2301 0.961 . S
H2309 C2301 0.960 . S
H2310 C2302 0.930 . S
H2311 C2303 0.929 . S
H2312 C2320 0.929 . S
H2313 C2322 0.930 . S
H2314 C2324 0.930 . S
H2315 C2327 0.929 . S
H2316 C2330 0.930 . S
H2317 C2332 0.960 . S
H2318 C2332 0.960 . S
H2319 C2332 0.960 . S
C2320 H2312 0.929 . S
C2320 C2321 1.377 . S
C2320 C2322 1.384 . S
C2321 C2320 1.377 . S
C2321 C2327 1.390 . S
C2322 H2313 0.930 . S
C2322 C2320 1.384 . S
C2322 C2323 1.372 . S
C2323 C2322 1.372 . S
C2323 C2324 1.400 . S
C2323 C2328 1.490 . S
C2324 H2314 0.930 . S
C2324 C2323 1.400 . S
C2324 C2327 1.386 . S
H2325 C2341 0.930 . S
H2326 C2342 0.931 . S
C2327 H2315 0.929 . S
C2327 C2321 1.390 . S
C2327 C2324 1.386 . S
C2328 C2323 1.490 . S
C2328 C2330 1.395 . S
C2328 C2331 1.403 . S
H2329 C2335 0.930 . S
C2330 H2316 0.930 . S
C2330 C2328 1.395 . S
C2330 C2333 1.403 . S
C2331 C2328 1.403 . S
C2331 C2332 1.524 . S
C2331 C2335 1.400 . S
C2332 H2317 0.960 . S
C2332 H2318 0.960 . S
C2332 H2319 0.960 . S
C2332 C2331 1.524 . S
C2333 C2330 1.403 . S
C2333 C2334 1.392 . S
C2333 C2337 1.495 . S
C2334 C2333 1.392 . S
C2334 C2335 1.385 . S
C2334 C2336 1.478 . S
C2335 H2329 0.930 . S
C2335 C2331 1.400 . S
C2335 C2334 1.385 . S
C2336 C2334 1.478 . S
C2336 C2338 1.381 . S
C2336 C2342 1.383 . S
C2337 C2333 1.495 . S
C2337 H2343 0.959 . S
C2337 H2344 0.961 . S
C2337 H2345 0.960 . S
C2338 C2336 1.381 . S
C2338 C2339 1.394 . S
C2338 H2346 0.930 . S
C2339 C2338 1.394 . S
C2339 C2340 1.383 . S
C2339 H2347 0.929 . S
C2340 C2339 1.383 . S
C2340 C2341 1.377 . S
C2341 H2325 0.930 . S
C2341 C2340 1.377 . S
C2341 C2342 1.379 . S
C2342 H2326 0.931 . S
C2342 C2336 1.383 . S
C2342 C2341 1.379 . S
H2343 C2337 0.959 . S
H2344 C2337 0.961 . S
H2345 C2337 0.960 . S
H2346 C2338 0.930 . S
H2347 C2339 0.929 . S
H2348 C2356 0.929 . S
H2349 C2358 0.930 . S
H2350 C2360 0.930 . S
H2351 C2363 0.929 . S
H2352 C2366 0.930 . S
H2353 C2368 0.960 . S
H2354 C2368 0.960 . S
H2355 C2368 0.960 . S
C2356 H2348 0.929 . S
C2356 C2357 1.377 . S
C2356 C2358 1.384 . S
C2357 C2356 1.377 . S
C2357 C2363 1.390 . S
C2358 H2349 0.930 . S
C2358 C2356 1.384 . S
C2358 C2359 1.372 . S
C2359 C2358 1.372 . S
C2359 C2360 1.400 . S
C2359 C2364 1.490 . S
C2360 H2350 0.930 . S
C2360 C2359 1.400 . S
C2360 C2363 1.386 . S
H2361 C2377 0.930 . S
H2362 C2378 0.931 . S
C2363 H2351 0.929 . S
C2363 C2357 1.390 . S
C2363 C2360 1.386 . S
C2364 C2359 1.490 . S
C2364 C2366 1.395 . S
C2364 C2367 1.403 . S
H2365 C2371 0.930 . S
C2366 H2352 0.930 . S
C2366 C2364 1.395 . S
C2366 C2369 1.403 . S
C2367 C2364 1.403 . S
C2367 C2368 1.524 . S
C2367 C2371 1.400 . S
C2368 H2353 0.960 . S
C2368 H2354 0.960 . S
C2368 H2355 0.960 . S
C2368 C2367 1.524 . S
C2369 C2366 1.403 . S
C2369 C2370 1.392 . S
C2369 C2373 1.495 . S
C2370 C2369 1.392 . S
C2370 C2371 1.385 . S
C2370 C2372 1.478 . S
C2371 H2365 0.930 . S
C2371 C2367 1.400 . S
C2371 C2370 1.385 . S
C2372 C2370 1.478 . S
C2372 C2374 1.381 . S
C2372 C2378 1.383 . S
C2373 C2369 1.495 . S
C2373 H2379 0.959 . S
C2373 H2380 0.961 . S
C2373 H2381 0.960 . S
C2374 C2372 1.381 . S
C2374 C2375 1.394 . S
C2374 H2382 0.930 . S
C2375 C2374 1.394 . S
C2375 C2376 1.383 . S
C2375 H2383 0.929 . S
C2376 C2375 1.383 . S
C2376 C2377 1.377 . S
C2377 H2361 0.930 . S
C2377 C2376 1.377 . S
C2377 C2378 1.379 . S
C2378 H2362 0.931 . S
C2378 C2372 1.383 . S
C2378 C2377 1.379 . S
H2379 C2373 0.959 . S
H2380 C2373 0.961 . S
H2381 C2373 0.960 . S
H2382 C2374 0.930 . S
H2383 C2375 0.929 . S
H2384 C2392 0.929 . S
H2385 C2394 0.930 . S
H2386 C2396 0.930 . S
H2387 C2399 0.929 . S
H2388 C2402 0.930 . S
H2389 C2404 0.960 . S
H2390 C2404 0.960 . S
H2391 C2404 0.960 . S
C2392 H2384 0.929 . S
C2392 C2393 1.377 . S
C2392 C2394 1.384 . S
C2393 C2392 1.377 . S
C2393 C2399 1.390 . S
C2394 H2385 0.930 . S
C2394 C2392 1.384 . S
C2394 C2395 1.372 . S
C2395 C2394 1.372 . S
C2395 C2396 1.400 . S
C2395 C2400 1.490 . S
C2396 H2386 0.930 . S
C2396 C2395 1.400 . S
C2396 C2399 1.386 . S
H2397 C2413 0.930 . S
H2398 C2414 0.931 . S
C2399 H2387 0.929 . S
C2399 C2393 1.390 . S
C2399 C2396 1.386 . S
C2400 C2395 1.490 . S
C2400 C2402 1.395 . S
C2400 C2403 1.403 . S
H2401 C2407 0.930 . S
C2402 H2388 0.930 . S
C2402 C2400 1.395 . S
C2402 C2405 1.403 . S
C2403 C2400 1.403 . S
C2403 C2404 1.524 . S
C2403 C2407 1.400 . S
C2404 H2389 0.960 . S
C2404 H2390 0.960 . S
C2404 H2391 0.960 . S
C2404 C2403 1.524 . S
C2405 C2402 1.403 . S
C2405 C2406 1.392 . S
C2405 C2409 1.495 . S
C2406 C2405 1.392 . S
C2406 C2407 1.385 . S
C2406 C2408 1.478 . S
C2407 H2401 0.930 . S
C2407 C2403 1.400 . S
C2407 C2406 1.385 . S
C2408 C2406 1.478 . S
C2408 C2410 1.381 . S
C2408 C2414 1.383 . S
C2409 C2405 1.495 . S
C2409 H2415 0.959 . S
C2409 H2416 0.961 . S
C2409 H2417 0.960 . S
C2410 C2408 1.381 . S
C2410 C2411 1.394 . S
C2410 H2418 0.930 . S
C2411 C2410 1.394 . S
C2411 C2412 1.383 . S
C2411 H2419 0.929 . S
C2412 C2411 1.383 . S
C2412 C2413 1.377 . S
C2413 H2397 0.930 . S
C2413 C2412 1.377 . S
C2413 C2414 1.379 . S
C2414 H2398 0.931 . S
C2414 C2408 1.383 . S
C2414 C2413 1.379 . S
H2415 C2409 0.959 . S
H2416 C2409 0.961 . S
H2417 C2409 0.960 . S
H2418 C2410 0.930 . S
H2419 C2411 0.929 . S
H2420 C2428 0.929 . S
H2421 C2430 0.930 . S
H2422 C2432 0.930 . S
H2423 C2435 0.929 . S
H2424 C2438 0.930 . S
H2425 C2440 0.960 . S
H2426 C2440 0.960 . S
H2427 C2440 0.960 . S
C2428 H2420 0.929 . S
C2428 C2429 1.377 . S
C2428 C2430 1.384 . S
C2429 C2428 1.377 . S
C2429 C2435 1.390 . S
C2430 H2421 0.930 . S
C2430 C2428 1.384 . S
C2430 C2431 1.372 . S
C2431 C2430 1.372 . S
C2431 C2432 1.400 . S
C2431 C2436 1.490 . S
C2432 H2422 0.930 . S
C2432 C2431 1.400 . S
C2432 C2435 1.386 . S
H2433 C2449 0.930 . S
H2434 C2450 0.931 . S
C2435 H2423 0.929 . S
C2435 C2429 1.390 . S
C2435 C2432 1.386 . S
C2436 C2431 1.490 . S
C2436 C2438 1.395 . S
C2436 C2439 1.403 . S
H2437 C2443 0.930 . S
C2438 H2424 0.930 . S
C2438 C2436 1.395 . S
C2438 C2441 1.403 . S
C2439 C2436 1.403 . S
C2439 C2440 1.524 . S
C2439 C2443 1.400 . S
C2440 H2425 0.960 . S
C2440 H2426 0.960 . S
C2440 H2427 0.960 . S
C2440 C2439 1.524 . S
C2441 C2438 1.403 . S
C2441 C2442 1.392 . S
C2441 C2445 1.495 . S
C2442 C2441 1.392 . S
C2442 C2443 1.385 . S
C2442 C2444 1.478 . S
C2443 H2437 0.930 . S
C2443 C2439 1.400 . S
C2443 C2442 1.385 . S
C2444 C2442 1.478 . S
C2444 C2446 1.381 . S
C2444 C2450 1.383 . S
C2445 C2441 1.495 . S
C2445 H2451 0.959 . S
C2445 H2452 0.961 . S
C2445 H2453 0.960 . S
C2446 C2444 1.381 . S
C2446 C2447 1.394 . S
C2446 H2454 0.930 . S
C2447 C2446 1.394 . S
C2447 C2448 1.383 . S
C2447 H2455 0.929 . S
C2448 C2447 1.383 . S
C2448 C2449 1.377 . S
C2449 H2433 0.930 . S
C2449 C2448 1.377 . S
C2449 C2450 1.379 . S
C2450 H2434 0.931 . S
C2450 C2444 1.383 . S
C2450 C2449 1.379 . S
H2451 C2445 0.959 . S
H2452 C2445 0.961 . S
H2453 C2445 0.960 . S
H2454 C2446 0.930 . S
H2455 C2447 0.929 . S
H2456 C2464 0.929 . S
H2457 C2466 0.930 . S
H2458 C2468 0.930 . S
H2459 C2471 0.929 . S
H2460 C2474 0.930 . S
H2461 C2476 0.960 . S
H2462 C2476 0.960 . S
H2463 C2476 0.960 . S
C2464 H2456 0.929 . S
C2464 C2465 1.377 . S
C2464 C2466 1.384 . S
C2465 C2464 1.377 . S
C2465 C2471 1.390 . S
C2466 H2457 0.930 . S
C2466 C2464 1.384 . S
C2466 C2467 1.372 . S
C2467 C2466 1.372 . S
C2467 C2468 1.400 . S
C2467 C2472 1.490 . S
C2468 H2458 0.930 . S
C2468 C2467 1.400 . S
C2468 C2471 1.386 . S
H2469 C2485 0.930 . S
H2470 C2486 0.931 . S
C2471 H2459 0.929 . S
C2471 C2465 1.390 . S
C2471 C2468 1.386 . S
C2472 C2467 1.490 . S
C2472 C2474 1.395 . S
C2472 C2475 1.403 1_455 S
H2473 C2479 0.930 . S
C2474 H2460 0.930 . S
C2474 C2472 1.395 . S
C2474 C2477 1.403 . S
C2475 C2472 1.403 1_655 S
C2475 C2476 1.524 . S
C2475 C2479 1.400 . S
C2476 H2461 0.960 . S
C2476 H2462 0.960 . S
C2476 H2463 0.960 . S
C2476 C2475 1.524 . S
C2477 C2474 1.403 . S
C2477 C2478 1.392 . S
C2477 C2481 1.495 . S
C2478 C2477 1.392 . S
C2478 C2479 1.385 1_455 S
C2478 C2480 1.478 . S
C2479 H2473 0.930 . S
C2479 C2475 1.400 . S
C2479 C2478 1.385 1_655 S
C2480 C2478 1.478 . S
C2480 C2482 1.381 1_556 S
C2480 C2486 1.383 . S
C2481 C2477 1.495 . S
C2481 H2487 0.959 . S
C2481 H2488 0.961 . S
C2481 H2489 0.960 1_556 S
C2482 C2480 1.381 1_554 S
C2482 C2483 1.394 . S
C2482 H2490 0.930 . S
C2483 C2482 1.394 . S
C2483 C2484 1.383 . S
C2483 H2491 0.929 . S
C2484 C2483 1.383 . S
C2484 C2485 1.377 1_554 S
C2485 H2469 0.930 . S
C2485 C2484 1.377 1_556 S
C2485 C2486 1.379 . S
C2486 H2470 0.931 . S
C2486 C2480 1.383 . S
C2486 C2485 1.379 . S
H2487 C2481 0.959 . S
H2488 C2481 0.961 . S
H2489 C2481 0.960 1_554 S
H2490 C2482 0.930 . S
H2491 C2483 0.929 . S
H2492 C2500 0.929 . S
H2493 C2502 0.930 . S
H2494 C2504 0.930 . S
H2495 C2507 0.929 . S
H2496 C2510 0.930 . S
H2497 C2512 0.960 . S
H2498 C2512 0.960 . S
H2499 C2512 0.960 . S
C2500 H2492 0.929 . S
C2500 C2501 1.377 . S
C2500 C2502 1.384 . S
C2501 C2500 1.377 . S
C2501 C2507 1.390 . S
C2502 H2493 0.930 . S
C2502 C2500 1.384 . S
C2502 C2503 1.372 . S
C2503 C2502 1.372 . S
C2503 C2504 1.400 . S
C2503 C2508 1.490 . S
C2504 H2494 0.930 . S
C2504 C2503 1.400 . S
C2504 C2507 1.386 . S
H2505 C2521 0.930 . S
H2506 C2522 0.931 . S
C2507 H2495 0.929 . S
C2507 C2501 1.390 . S
C2507 C2504 1.386 . S
C2508 C2503 1.490 . S
C2508 C2510 1.395 . S
C2508 C2511 1.403 . S
H2509 C2515 0.930 . S
C2510 H2496 0.930 . S
C2510 C2508 1.395 . S
C2510 C2513 1.403 . S
C2511 C2508 1.403 . S
C2511 C2512 1.524 . S
C2511 C2515 1.400 . S
C2512 H2497 0.960 . S
C2512 H2498 0.960 . S
C2512 H2499 0.960 . S
C2512 C2511 1.524 . S
C2513 C2510 1.403 . S
C2513 C2514 1.392 . S
C2513 C2517 1.495 . S
C2514 C2513 1.392 . S
C2514 C2515 1.385 . S
C2514 C2516 1.478 . S
C2515 H2509 0.930 . S
C2515 C2511 1.400 . S
C2515 C2514 1.385 . S
C2516 C2514 1.478 . S
C2516 C2518 1.381 . S
C2516 C2522 1.383 . S
C2517 C2513 1.495 . S
C2517 H2523 0.959 . S
C2517 H2524 0.961 . S
C2517 H2525 0.960 . S
C2518 C2516 1.381 . S
C2518 C2519 1.394 . S
C2518 H2526 0.930 . S
C2519 C2518 1.394 . S
C2519 C2520 1.383 . S
C2519 H2527 0.929 . S
C2520 C2519 1.383 . S
C2520 C2521 1.377 . S
C2521 H2505 0.930 . S
C2521 C2520 1.377 . S
C2521 C2522 1.379 . S
C2522 H2506 0.931 . S
C2522 C2516 1.383 . S
C2522 C2521 1.379 . S
H2523 C2517 0.959 . S
H2524 C2517 0.961 . S
H2525 C2517 0.960 . S
H2526 C2518 0.930 . S
H2527 C2519 0.929 . S
H2528 C2536 0.929 . S
H2529 C2538 0.930 . S
H2530 C2540 0.930 . S
H2531 C2543 0.929 . S
H2532 C2546 0.930 . S
H2533 C2548 0.960 . S
H2534 C2548 0.960 . S
H2535 C2548 0.960 . S
C2536 H2528 0.929 . S
C2536 C2537 1.377 . S
C2536 C2538 1.384 . S
C2537 C2536 1.377 . S
C2537 C2543 1.390 . S
C2538 H2529 0.930 . S
C2538 C2536 1.384 . S
C2538 C2539 1.372 . S
C2539 C2538 1.372 . S
C2539 C2540 1.400 . S
C2539 C2544 1.490 . S
C2540 H2530 0.930 . S
C2540 C2539 1.400 . S
C2540 C2543 1.386 . S
H2541 C2557 0.930 . S
H2542 C2558 0.931 . S
C2543 H2531 0.929 . S
C2543 C2537 1.390 . S
C2543 C2540 1.386 . S
C2544 C2539 1.490 . S
C2544 C2546 1.395 . S
C2544 C2547 1.403 . S
H2545 C2551 0.930 . S
C2546 H2532 0.930 . S
C2546 C2544 1.395 . S
C2546 C2549 1.403 . S
C2547 C2544 1.403 . S
C2547 C2548 1.524 . S
C2547 C2551 1.400 . S
C2548 H2533 0.960 . S
C2548 H2534 0.960 . S
C2548 H2535 0.960 . S
C2548 C2547 1.524 . S
C2549 C2546 1.403 . S
C2549 C2550 1.392 . S
C2549 C2553 1.495 . S
C2550 C2549 1.392 . S
C2550 C2551 1.385 . S
C2550 C2552 1.478 . S
C2551 H2545 0.930 . S
C2551 C2547 1.400 . S
C2551 C2550 1.385 . S
C2552 C2550 1.478 . S
C2552 C2554 1.381 . S
C2552 C2558 1.383 . S
C2553 C2549 1.495 . S
C2553 H2559 0.959 . S
C2553 H2560 0.961 . S
C2553 H2561 0.960 . S
C2554 C2552 1.381 . S
C2554 C2555 1.394 . S
C2554 H2562 0.930 . S
C2555 C2554 1.394 . S
C2555 C2556 1.383 . S
C2555 H2563 0.929 . S
C2556 C2555 1.383 . S
C2556 C2557 1.377 . S
C2557 H2541 0.930 . S
C2557 C2556 1.377 . S
C2557 C2558 1.379 . S
C2558 H2542 0.931 . S
C2558 C2552 1.383 . S
C2558 C2557 1.379 . S
H2559 C2553 0.959 . S
H2560 C2553 0.961 . S
H2561 C2553 0.960 . S
H2562 C2554 0.930 . S
H2563 C2555 0.929 . S
H2564 C2572 0.929 . S
H2565 C2574 0.930 . S
H2566 C2576 0.930 . S
H2567 C2579 0.929 . S
H2568 C2582 0.930 . S
H2569 C2584 0.960 . S
H2570 C2584 0.960 . S
H2571 C2584 0.960 . S
C2572 H2564 0.929 . S
C2572 C2573 1.377 . S
C2572 C2574 1.384 . S
C2573 C2572 1.377 . S
C2573 C2579 1.390 . S
C2574 H2565 0.930 . S
C2574 C2572 1.384 . S
C2574 C2575 1.372 . S
C2575 C2574 1.372 . S
C2575 C2576 1.400 . S
C2575 C2580 1.490 . S
C2576 H2566 0.930 . S
C2576 C2575 1.400 . S
C2576 C2579 1.386 . S
H2577 C2593 0.930 . S
H2578 C2594 0.931 . S
C2579 H2567 0.929 . S
C2579 C2573 1.390 . S
C2579 C2576 1.386 . S
C2580 C2575 1.490 . S
C2580 C2582 1.395 . S
C2580 C2583 1.403 . S
H2581 C2587 0.930 . S
C2582 H2568 0.930 . S
C2582 C2580 1.395 . S
C2582 C2585 1.403 . S
C2583 C2580 1.403 . S
C2583 C2584 1.524 . S
C2583 C2587 1.400 . S
C2584 H2569 0.960 . S
C2584 H2570 0.960 . S
C2584 H2571 0.960 . S
C2584 C2583 1.524 . S
C2585 C2582 1.403 . S
C2585 C2586 1.392 . S
C2585 C2589 1.495 . S
C2586 C2585 1.392 . S
C2586 C2587 1.385 . S
C2586 C2588 1.478 . S
C2587 H2581 0.930 . S
C2587 C2583 1.400 . S
C2587 C2586 1.385 . S
C2588 C2586 1.478 . S
C2588 C2590 1.381 . S
C2588 C2594 1.383 . S
C2589 C2585 1.495 . S
C2589 H2595 0.959 . S
C2589 H2596 0.961 . S
C2589 H2597 0.960 . S
C2590 C2588 1.381 . S
C2590 C2591 1.394 . S
C2590 H2598 0.930 . S
C2591 C2590 1.394 . S
C2591 C2592 1.383 . S
C2591 H2599 0.929 . S
C2592 C2591 1.383 . S
C2592 C2593 1.377 . S
C2593 H2577 0.930 . S
C2593 C2592 1.377 . S
C2593 C2594 1.379 . S
C2594 H2578 0.931 . S
C2594 C2588 1.383 . S
C2594 C2593 1.379 . S
H2595 C2589 0.959 . S
H2596 C2589 0.961 . S
H2597 C2589 0.960 . S
H2598 C2590 0.930 . S
H2599 C2591 0.929 . S
H2600 C2608 0.929 . S
H2601 C2610 0.930 . S
H2602 C2612 0.930 . S
H2603 C2615 0.929 . S
H2604 C2618 0.930 . S
H2605 C2620 0.960 . S
H2606 C2620 0.960 . S
H2607 C2620 0.960 . S
C2608 H2600 0.929 . S
C2608 C2609 1.377 . S
C2608 C2610 1.384 . S
C2609 C2608 1.377 . S
C2609 C2615 1.390 1_455 S
C2610 H2601 0.930 . S
C2610 C2608 1.384 . S
C2610 C2611 1.372 . S
C2611 C2610 1.372 . S
C2611 C2612 1.400 1_455 S
C2611 C2616 1.490 . S
C2612 H2602 0.930 . S
C2612 C2611 1.400 1_655 S
C2612 C2615 1.386 . S
H2613 C2629 0.925 1_655 S
H2614 C2630 0.931 1_655 S
C2615 H2603 0.929 . S
C2615 C2609 1.390 1_655 S
C2615 C2612 1.386 . S
C2616 C2611 1.490 . S
C2616 C2618 1.395 . S
C2616 C2619 1.403 1_455 S
H2617 C2623 0.930 . S
C2618 H2604 0.930 . S
C2618 C2616 1.395 . S
C2618 C2621 1.403 . S
C2619 C2616 1.403 1_655 S
C2619 C2620 1.524 . S
C2619 C2623 1.400 . S
C2620 H2605 0.960 . S
C2620 H2606 0.960 . S
C2620 H2607 0.960 . S
C2620 C2619 1.524 . S
C2621 C2618 1.403 . S
C2621 C2622 1.392 . S
C2621 C2625 1.495 . S
C2622 C2621 1.392 . S
C2622 C2623 1.385 1_455 S
C2622 C2624 1.478 . S
C2623 H2617 0.930 . S
C2623 C2619 1.400 . S
C2623 C2622 1.385 1_655 S
C2624 C2622 1.478 . S
C2624 C2626 1.381 . S
C2624 C2630 1.383 . S
C2625 C2621 1.495 . S
C2625 H2631 0.959 . S
C2625 H2632 0.961 . S
C2625 H2633 0.960 . S
C2626 C2624 1.381 . S
C2626 C2627 1.394 . S
C2626 H2634 0.930 . S
C2627 C2626 1.394 . S
C2627 C2628 1.383 . S
C2627 H2635 0.929 . S
C2628 C2627 1.383 . S
C2628 C2629 1.384 . S
C2629 H2613 0.925 1_455 S
C2629 C2628 1.384 . S
C2629 C2630 1.377 . S
C2630 H2614 0.931 1_455 S
C2630 C2624 1.383 . S
C2630 C2629 1.377 . S
H2631 C2625 0.959 . S
H2632 C2625 0.961 . S
H2633 C2625 0.960 . S
H2634 C2626 0.930 . S
H2635 C2627 0.929 . S
H2636 C2644 0.929 . S
H2637 C2646 0.930 . S
H2638 C2648 0.930 . S
H2639 C2651 0.929 . S
H2640 C2654 0.930 . S
H2641 C2656 0.960 . S
H2642 C2656 0.960 . S
H2643 C2656 0.960 . S
C2644 H2636 0.929 . S
C2644 C2645 1.377 . S
C2644 C2646 1.384 . S
C2645 C2644 1.377 . S
C2645 C2651 1.390 . S
C2646 H2637 0.930 . S
C2646 C2644 1.384 . S
C2646 C2647 1.372 . S
C2647 C2646 1.372 . S
C2647 C2648 1.400 . S
C2647 C2652 1.490 . S
C2648 H2638 0.930 . S
C2648 C2647 1.400 . S
C2648 C2651 1.386 . S
H2649 C2665 0.930 . S
H2650 C2666 0.931 . S
C2651 H2639 0.929 . S
C2651 C2645 1.390 . S
C2651 C2648 1.386 . S
C2652 C2647 1.490 . S
C2652 C2654 1.395 . S
C2652 C2655 1.403 . S
H2653 C2659 0.930 . S
C2654 H2640 0.930 . S
C2654 C2652 1.395 . S
C2654 C2657 1.403 . S
C2655 C2652 1.403 . S
C2655 C2656 1.524 . S
C2655 C2659 1.400 . S
C2656 H2641 0.960 . S
C2656 H2642 0.960 . S
C2656 H2643 0.960 . S
C2656 C2655 1.524 . S
C2657 C2654 1.403 . S
C2657 C2658 1.392 . S
C2657 C2661 1.495 . S
C2658 C2657 1.392 . S
C2658 C2659 1.385 . S
C2658 C2660 1.478 . S
C2659 H2653 0.930 . S
C2659 C2655 1.400 . S
C2659 C2658 1.385 . S
C2660 C2658 1.478 . S
C2660 C2662 1.381 . S
C2660 C2666 1.383 . S
C2661 C2657 1.495 . S
C2661 H2667 0.959 . S
C2661 H2668 0.961 . S
C2661 H2669 0.960 . S
C2662 C2660 1.381 . S
C2662 C2663 1.394 . S
C2662 H2670 0.930 . S
C2663 C2662 1.394 . S
C2663 C2664 1.383 . S
C2663 H2671 0.929 . S
C2664 C2663 1.383 . S
C2664 C2665 1.377 . S
C2665 H2649 0.930 . S
C2665 C2664 1.377 . S
C2665 C2666 1.379 . S
C2666 H2650 0.931 . S
C2666 C2660 1.383 . S
C2666 C2665 1.379 . S
H2667 C2661 0.959 . S
H2668 C2661 0.961 . S
H2669 C2661 0.960 . S
H2670 C2662 0.930 . S
H2671 C2663 0.929 . S
H2672 C2680 0.929 . S
H2673 C2682 0.930 . S
H2674 C2684 0.930 . S
H2675 C2687 0.929 . S
H2676 C2690 0.930 . S
H2677 C2692 0.960 . S
H2678 C2692 0.960 . S
H2679 C2692 0.960 . S
C2680 H2672 0.929 . S
C2680 C2681 1.377 . S
C2680 C2682 1.384 . S
C2681 C2680 1.377 . S
C2681 C2687 1.390 . S
C2682 H2673 0.930 . S
C2682 C2680 1.384 . S
C2682 C2683 1.372 . S
C2683 C2682 1.372 . S
C2683 C2684 1.400 . S
C2683 C2688 1.490 . S
C2684 H2674 0.930 . S
C2684 C2683 1.400 . S
C2684 C2687 1.386 . S
H2685 C2701 0.930 . S
H2686 C2702 0.931 . S
C2687 H2675 0.929 . S
C2687 C2681 1.390 . S
C2687 C2684 1.386 . S
C2688 C2683 1.490 . S
C2688 C2690 1.395 . S
C2688 C2691 1.403 . S
H2689 C2695 0.930 . S
C2690 H2676 0.930 . S
C2690 C2688 1.395 . S
C2690 C2693 1.403 . S
C2691 C2688 1.403 . S
C2691 C2692 1.524 . S
C2691 C2695 1.400 . S
C2692 H2677 0.960 . S
C2692 H2678 0.960 . S
C2692 H2679 0.960 . S
C2692 C2691 1.524 . S
C2693 C2690 1.403 . S
C2693 C2694 1.392 . S
C2693 C2697 1.495 . S
C2694 C2693 1.392 . S
C2694 C2695 1.385 . S
C2694 C2696 1.478 . S
C2695 H2689 0.930 . S
C2695 C2691 1.400 . S
C2695 C2694 1.385 . S
C2696 C2694 1.478 . S
C2696 C2698 1.381 . S
C2696 C2702 1.383 . S
C2697 C2693 1.495 . S
C2697 H2703 0.959 . S
C2697 H2704 0.961 . S
C2697 H2705 0.960 . S
C2698 C2696 1.381 . S
C2698 C2699 1.394 . S
C2698 H2706 0.930 . S
C2699 C2698 1.394 . S
C2699 C2700 1.383 . S
C2699 H2707 0.929 . S
C2700 C2699 1.383 . S
C2700 C2701 1.377 . S
C2701 H2685 0.930 . S
C2701 C2700 1.377 . S
C2701 C2702 1.379 . S
C2702 H2686 0.931 . S
C2702 C2696 1.383 . S
C2702 C2701 1.379 . S
H2703 C2697 0.959 . S
H2704 C2697 0.961 . S
H2705 C2697 0.960 . S
H2706 C2698 0.930 . S
H2707 C2699 0.929 . S
H2708 C2716 0.929 . S
H2709 C2718 0.930 . S
H2710 C2720 0.930 . S
H2711 C2723 0.929 . S
H2712 C2726 0.930 . S
H2713 C2728 0.960 . S
H2714 C2728 0.960 . S
H2715 C2728 0.960 . S
C2716 H2708 0.929 . S
C2716 C2717 1.377 . S
C2716 C2718 1.384 . S
C2717 C2716 1.377 . S
C2717 C2723 1.390 . S
C2718 H2709 0.930 . S
C2718 C2716 1.384 . S
C2718 C2719 1.372 . S
C2719 C2718 1.372 . S
C2719 C2720 1.400 . S
C2719 C2724 1.490 . S
C2720 H2710 0.930 . S
C2720 C2719 1.400 . S
C2720 C2723 1.386 . S
H2721 C2737 0.930 . S
H2722 C2738 0.931 . S
C2723 H2711 0.929 . S
C2723 C2717 1.390 . S
C2723 C2720 1.386 . S
C2724 C2719 1.490 . S
C2724 C2726 1.395 . S
C2724 C2727 1.403 . S
H2725 C2731 0.930 . S
C2726 H2712 0.930 . S
C2726 C2724 1.395 . S
C2726 C2729 1.403 . S
C2727 C2724 1.403 . S
C2727 C2728 1.524 . S
C2727 C2731 1.400 . S
C2728 H2713 0.960 . S
C2728 H2714 0.960 . S
C2728 H2715 0.960 . S
C2728 C2727 1.524 . S
C2729 C2726 1.403 . S
C2729 C2730 1.392 . S
C2729 C2733 1.495 . S
C2730 C2729 1.392 . S
C2730 C2731 1.385 . S
C2730 C2732 1.478 . S
C2731 H2725 0.930 . S
C2731 C2727 1.400 . S
C2731 C2730 1.385 . S
C2732 C2730 1.478 . S
C2732 C2734 1.381 . S
C2732 C2738 1.383 . S
C2733 C2729 1.495 . S
C2733 H2739 0.959 . S
C2733 H2740 0.961 . S
C2733 H2741 0.960 . S
C2734 C2732 1.381 . S
C2734 C2735 1.394 . S
C2734 H2742 0.930 . S
C2735 C2734 1.394 . S
C2735 C2736 1.383 . S
C2735 H2743 0.929 . S
C2736 C2735 1.383 . S
C2736 C2737 1.377 . S
C2737 H2721 0.930 . S
C2737 C2736 1.377 . S
C2737 C2738 1.379 . S
C2738 H2722 0.931 . S
C2738 C2732 1.383 . S
C2738 C2737 1.379 . S
H2739 C2733 0.959 . S
H2740 C2733 0.961 . S
H2741 C2733 0.960 . S
H2742 C2734 0.930 . S
H2743 C2735 0.929 . S
H2744 C2752 0.929 . S
H2745 C2754 0.930 . S
H2746 C2756 0.930 . S
H2747 C2759 0.929 . S
H2748 C2762 0.930 . S
H2749 C2764 0.960 . S
H2750 C2764 0.960 . S
H2751 C2764 0.960 . S
C2752 H2744 0.929 . S
C2752 C2753 1.377 . S
C2752 C2754 1.384 . S
C2753 C2752 1.377 . S
C2753 C2759 1.390 . S
C2754 H2745 0.930 . S
C2754 C2752 1.384 . S
C2754 C2755 1.372 . S
C2755 C2754 1.372 . S
C2755 C2756 1.400 . S
C2755 C2760 1.490 . S
C2756 H2746 0.930 . S
C2756 C2755 1.400 . S
C2756 C2759 1.386 . S
H2757 C2773 0.930 . S
H2758 C2774 0.931 . S
C2759 H2747 0.929 . S
C2759 C2753 1.390 . S
C2759 C2756 1.386 . S
C2760 C2755 1.490 . S
C2760 C2762 1.395 . S
C2760 C2763 1.403 . S
H2761 C2767 0.930 . S
C2762 H2748 0.930 . S
C2762 C2760 1.395 . S
C2762 C2765 1.403 . S
C2763 C2760 1.403 . S
C2763 C2764 1.524 . S
C2763 C2767 1.400 . S
C2764 H2749 0.960 . S
C2764 H2750 0.960 . S
C2764 H2751 0.960 . S
C2764 C2763 1.524 . S
C2765 C2762 1.403 . S
C2765 C2766 1.392 . S
C2765 C2769 1.495 . S
C2766 C2765 1.392 . S
C2766 C2767 1.385 . S
C2766 C2768 1.478 . S
C2767 H2761 0.930 . S
C2767 C2763 1.400 . S
C2767 C2766 1.385 . S
C2768 C2766 1.478 . S
C2768 C2770 1.381 . S
C2768 C2774 1.383 . S
C2769 C2765 1.495 . S
C2769 H2775 0.959 . S
C2769 H2776 0.961 . S
C2769 H2777 0.960 . S
C2770 C2768 1.381 . S
C2770 C2771 1.394 . S
C2770 H2778 0.930 . S
C2771 C2770 1.394 . S
C2771 C2772 1.383 . S
C2771 H2779 0.929 . S
C2772 C2771 1.383 . S
C2772 C2773 1.377 . S
C2773 H2757 0.930 . S
C2773 C2772 1.377 . S
C2773 C2774 1.379 . S
C2774 H2758 0.931 . S
C2774 C2768 1.383 . S
C2774 C2773 1.379 . S
H2775 C2769 0.959 . S
H2776 C2769 0.961 . S
H2777 C2769 0.960 . S
H2778 C2770 0.930 . S
H2779 C2771 0.929 . S
H2780 C2788 0.929 . S
H2781 C2790 0.930 . S
H2782 C2792 0.930 . S
H2783 C2795 0.929 . S
H2784 C2798 0.930 . S
H2785 C2800 0.960 . S
H2786 C2800 0.960 . S
H2787 C2800 0.960 . S
C2788 H2780 0.929 . S
C2788 C2789 1.377 . S
C2788 C2790 1.384 . S
C2789 C2788 1.377 . S
C2789 C2795 1.390 . S
C2790 H2781 0.930 . S
C2790 C2788 1.384 . S
C2790 C2791 1.372 . S
C2791 C2790 1.372 . S
C2791 C2792 1.400 . S
C2791 C2796 1.490 . S
C2792 H2782 0.930 . S
C2792 C2791 1.400 . S
C2792 C2795 1.386 . S
H2793 C2809 0.930 . S
H2794 C2810 0.931 . S
C2795 H2783 0.929 . S
C2795 C2789 1.390 . S
C2795 C2792 1.386 . S
C2796 C2791 1.490 . S
C2796 C2798 1.395 . S
C2796 C2799 1.403 . S
H2797 C2803 0.930 . S
C2798 H2784 0.930 . S
C2798 C2796 1.395 . S
C2798 C2801 1.403 . S
C2799 C2796 1.403 . S
C2799 C2800 1.524 . S
C2799 C2803 1.400 . S
C2800 H2785 0.960 . S
C2800 H2786 0.960 . S
C2800 H2787 0.960 . S
C2800 C2799 1.524 . S
C2801 C2798 1.403 . S
C2801 C2802 1.392 . S
C2801 C2805 1.495 . S
C2802 C2801 1.392 . S
C2802 C2803 1.385 . S
C2802 C2804 1.478 . S
C2803 H2797 0.930 . S
C2803 C2799 1.400 . S
C2803 C2802 1.385 . S
C2804 C2802 1.478 . S
C2804 C2806 1.381 . S
C2804 C2810 1.383 . S
C2805 C2801 1.495 . S
C2805 H2811 0.959 . S
C2805 H2812 0.961 . S
C2805 H2813 0.960 . S
C2806 C2804 1.381 . S
C2806 C2807 1.394 . S
C2806 H2814 0.930 . S
C2807 C2806 1.394 . S
C2807 C2808 1.383 . S
C2807 H2815 0.929 . S
C2808 C2807 1.383 . S
C2808 C2809 1.377 . S
C2809 H2793 0.930 . S
C2809 C2808 1.377 . S
C2809 C2810 1.379 . S
C2810 H2794 0.931 . S
C2810 C2804 1.383 . S
C2810 C2809 1.379 . S
H2811 C2805 0.959 . S
H2812 C2805 0.961 . S
H2813 C2805 0.960 . S
H2814 C2806 0.930 . S
H2815 C2807 0.929 . S
H2816 C2824 0.929 . S
H2817 C2826 0.930 . S
H2818 C2828 0.930 . S
H2819 C2831 0.929 . S
H2820 C2834 0.930 . S
H2821 C2836 0.960 . S
H2822 C2836 0.960 . S
H2823 C2836 0.960 . S
C2824 H2816 0.929 . S
C2824 C2825 1.377 . S
C2824 C2826 1.384 . S
C2825 C2824 1.377 . S
C2825 C2831 1.390 . S
C2826 H2817 0.930 . S
C2826 C2824 1.384 . S
C2826 C2827 1.372 . S
C2827 C2826 1.372 . S
C2827 C2828 1.400 . S
C2827 C2832 1.490 . S
C2828 H2818 0.930 . S
C2828 C2827 1.400 . S
C2828 C2831 1.386 . S
H2829 C2845 0.930 . S
H2830 C2846 0.931 . S
C2831 H2819 0.929 . S
C2831 C2825 1.390 . S
C2831 C2828 1.386 . S
C2832 C2827 1.490 . S
C2832 C2834 1.395 . S
C2832 C2835 1.403 . S
H2833 C2839 0.930 . S
C2834 H2820 0.930 . S
C2834 C2832 1.395 . S
C2834 C2837 1.403 . S
C2835 C2832 1.403 . S
C2835 C2836 1.524 . S
C2835 C2839 1.400 . S
C2836 H2821 0.960 . S
C2836 H2822 0.960 . S
C2836 H2823 0.960 . S
C2836 C2835 1.524 . S
C2837 C2834 1.403 . S
C2837 C2838 1.392 . S
C2837 C2841 1.495 . S
C2838 C2837 1.392 . S
C2838 C2839 1.385 . S
C2838 C2840 1.478 . S
C2839 H2833 0.930 . S
C2839 C2835 1.400 . S
C2839 C2838 1.385 . S
C2840 C2838 1.478 . S
C2840 C2842 1.381 . S
C2840 C2846 1.383 . S
C2841 C2837 1.495 . S
C2841 H2847 0.959 . S
C2841 H2848 0.961 . S
C2841 H2849 0.960 . S
C2842 C2840 1.381 . S
C2842 C2843 1.394 . S
C2842 H2850 0.930 . S
C2843 C2842 1.394 . S
C2843 C2844 1.383 . S
C2843 H2851 0.929 . S
C2844 C2843 1.383 . S
C2844 C2845 1.377 . S
C2845 H2829 0.930 . S
C2845 C2844 1.377 . S
C2845 C2846 1.379 . S
C2846 H2830 0.931 . S
C2846 C2840 1.383 . S
C2846 C2845 1.379 . S
H2847 C2841 0.959 . S
H2848 C2841 0.961 . S
H2849 C2841 0.960 . S
H2850 C2842 0.930 . S
H2851 C2843 0.929 . S
H2852 C2860 0.929 . S
H2853 C2862 0.930 . S
H2854 C2864 0.930 . S
H2855 C2867 0.929 . S
H2856 C2870 0.930 . S
H2857 C2872 0.960 . S
H2858 C2872 0.960 . S
H2859 C2872 0.960 . S
C2860 H2852 0.929 . S
C2860 C2861 1.377 . S
C2860 C2862 1.384 . S
C2861 C2860 1.377 . S
C2861 C2867 1.390 . S
C2862 H2853 0.930 . S
C2862 C2860 1.384 . S
C2862 C2863 1.372 . S
C2863 C2862 1.372 . S
C2863 C2864 1.400 . S
C2863 C2868 1.490 . S
C2864 H2854 0.930 . S
C2864 C2863 1.400 . S
C2864 C2867 1.386 . S
H2865 C2881 0.930 . S
H2866 C2882 0.931 . S
C2867 H2855 0.929 . S
C2867 C2861 1.390 . S
C2867 C2864 1.386 . S
C2868 C2863 1.490 . S
C2868 C2870 1.395 . S
C2868 C2871 1.403 . S
H2869 C2875 0.930 . S
C2870 H2856 0.930 . S
C2870 C2868 1.395 . S
C2870 C2873 1.403 . S
C2871 C2868 1.403 . S
C2871 C2872 1.524 . S
C2871 C2875 1.400 . S
C2872 H2857 0.960 . S
C2872 H2858 0.960 . S
C2872 H2859 0.960 . S
C2872 C2871 1.524 . S
C2873 C2870 1.403 . S
C2873 C2874 1.392 . S
C2873 C2877 1.495 . S
C2874 C2873 1.392 . S
C2874 C2875 1.385 . S
C2874 C2876 1.478 . S
C2875 H2869 0.930 . S
C2875 C2871 1.400 . S
C2875 C2874 1.385 . S
C2876 C2874 1.478 . S
C2876 C2878 1.381 . S
C2876 C2882 1.383 . S
C2877 C2873 1.495 . S
C2877 H2883 0.959 . S
C2877 H2884 0.961 . S
C2877 H2885 0.960 . S
C2878 C2876 1.381 . S
C2878 C2879 1.394 . S
C2878 H2886 0.930 . S
C2879 C2878 1.394 . S
C2879 C2880 1.383 . S
C2879 H2887 0.929 . S
C2880 C2879 1.383 . S
C2880 C2881 1.377 . S
C2881 H2865 0.930 . S
C2881 C2880 1.377 . S
C2881 C2882 1.379 . S
C2882 H2866 0.931 . S
C2882 C2876 1.383 . S
C2882 C2881 1.379 . S
H2883 C2877 0.959 . S
H2884 C2877 0.961 . S
H2885 C2877 0.960 . S
H2886 C2878 0.930 . S
H2887 C2879 0.929 . S
H2888 C2896 0.929 . S
H2889 C2898 0.930 . S
H2890 C2900 0.930 . S
H2891 C2903 0.929 . S
H2892 C2906 0.930 . S
H2893 C2908 0.960 . S
H2894 C2908 0.960 . S
H2895 C2908 0.960 . S
C2896 H2888 0.929 . S
C2896 C2897 1.377 . S
C2896 C2898 1.384 . S
C2897 C2896 1.377 . S
C2897 C2903 1.390 . S
C2898 H2889 0.930 . S
C2898 C2896 1.384 . S
C2898 C2899 1.372 . S
C2899 C2898 1.372 . S
C2899 C2900 1.400 . S
C2899 C2904 1.490 . S
C2900 H2890 0.930 . S
C2900 C2899 1.400 . S
C2900 C2903 1.386 . S
H2901 C2917 0.930 . S
H2902 C2918 0.931 . S
C2903 H2891 0.929 . S
C2903 C2897 1.390 . S
C2903 C2900 1.386 . S
C2904 C2899 1.490 . S
C2904 C2906 1.395 . S
C2904 C2907 1.403 . S
H2905 C2911 0.930 . S
C2906 H2892 0.930 . S
C2906 C2904 1.395 . S
C2906 C2909 1.403 . S
C2907 C2904 1.403 . S
C2907 C2908 1.524 . S
C2907 C2911 1.400 . S
C2908 H2893 0.960 . S
C2908 H2894 0.960 . S
C2908 H2895 0.960 . S
C2908 C2907 1.524 . S
C2909 C2906 1.403 . S
C2909 C2910 1.392 . S
C2909 C2913 1.495 . S
C2910 C2909 1.392 . S
C2910 C2911 1.385 . S
C2910 C2912 1.478 . S
C2911 H2905 0.930 . S
C2911 C2907 1.400 . S
C2911 C2910 1.385 . S
C2912 C2910 1.478 . S
C2912 C2914 1.381 . S
C2912 C2918 1.383 . S
C2913 C2909 1.495 . S
C2913 H2919 0.959 . S
C2913 H2920 0.961 . S
C2913 H2921 0.960 . S
C2914 C2912 1.381 . S
C2914 C2915 1.394 . S
C2914 H2922 0.930 . S
C2915 C2914 1.394 . S
C2915 C2916 1.383 . S
C2915 H2923 0.929 . S
C2916 C2915 1.383 . S
C2916 C2917 1.377 . S
C2917 H2901 0.930 . S
C2917 C2916 1.377 . S
C2917 C2918 1.379 . S
C2918 H2902 0.931 . S
C2918 C2912 1.383 . S
C2918 C2917 1.379 . S
H2919 C2913 0.959 . S
H2920 C2913 0.961 . S
H2921 C2913 0.960 . S
H2922 C2914 0.930 . S
H2923 C2915 0.929 . S
H2924 C2932 0.929 . S
H2925 C2934 0.930 . S
H2926 C2936 0.930 . S
H2927 C2939 0.929 . S
H2928 C2942 0.930 . S
H2929 C2944 0.960 . S
H2930 C2944 0.960 . S
H2931 C2944 0.960 . S
C2932 H2924 0.929 . S
C2932 C2933 1.377 . S
C2932 C2934 1.384 . S
C2933 C2932 1.377 . S
C2933 C2939 1.390 . S
C2934 H2925 0.930 . S
C2934 C2932 1.384 . S
C2934 C2935 1.372 . S
C2935 C2934 1.372 . S
C2935 C2936 1.400 . S
C2935 C2940 1.490 . S
C2936 H2926 0.930 . S
C2936 C2935 1.400 . S
C2936 C2939 1.386 . S
H2937 C2953 0.930 . S
H2938 C2954 0.931 . S
C2939 H2927 0.929 . S
C2939 C2933 1.390 . S
C2939 C2936 1.386 . S
C2940 C2935 1.490 . S
C2940 C2942 1.395 . S
C2940 C2943 1.403 . S
H2941 C2947 0.930 . S
C2942 H2928 0.930 . S
C2942 C2940 1.395 . S
C2942 C2945 1.403 . S
C2943 C2940 1.403 . S
C2943 C2944 1.524 . S
C2943 C2947 1.400 . S
C2944 H2929 0.960 . S
C2944 H2930 0.960 . S
C2944 H2931 0.960 . S
C2944 C2943 1.524 . S
C2945 C2942 1.403 . S
C2945 C2946 1.392 . S
C2945 C2949 1.495 . S
C2946 C2945 1.392 . S
C2946 C2947 1.385 . S
C2946 C2948 1.478 . S
C2947 H2941 0.930 . S
C2947 C2943 1.400 . S
C2947 C2946 1.385 . S
C2948 C2946 1.478 . S
C2948 C2950 1.381 . S
C2948 C2954 1.383 . S
C2949 C2945 1.495 . S
C2949 H2955 0.959 . S
C2949 H2956 0.961 . S
C2949 H2957 0.960 . S
C2950 C2948 1.381 . S
C2950 C2951 1.394 . S
C2950 H2958 0.930 . S
C2951 C2950 1.394 . S
C2951 C2952 1.383 . S
C2951 H2959 0.929 . S
C2952 C2951 1.383 . S
C2952 C2953 1.377 . S
C2953 H2937 0.930 . S
C2953 C2952 1.377 . S
C2953 C2954 1.379 . S
C2954 H2938 0.931 . S
C2954 C2948 1.383 . S
C2954 C2953 1.379 . S
H2955 C2949 0.959 . S
H2956 C2949 0.961 . S
H2957 C2949 0.960 . S
H2958 C2950 0.930 . S
H2959 C2951 0.929 . S
H2960 C2968 0.929 . S
H2961 C2970 0.930 . S
H2962 C2972 0.930 . S
H2963 C2975 0.929 . S
H2964 C2978 0.930 . S
H2965 C2980 0.960 . S
H2966 C2980 0.960 . S
H2967 C2980 0.960 . S
C2968 H2960 0.929 . S
C2968 C2969 1.377 . S
C2968 C2970 1.384 . S
C2969 C2968 1.377 . S
C2969 C2975 1.390 . S
C2970 H2961 0.930 . S
C2970 C2968 1.384 . S
C2970 C2971 1.372 . S
C2971 C2970 1.372 . S
C2971 C2972 1.400 . S
C2971 C2976 1.490 . S
C2972 H2962 0.930 . S
C2972 C2971 1.400 . S
C2972 C2975 1.386 . S
H2973 C2989 0.930 . S
H2974 C2990 0.931 . S
C2975 H2963 0.929 . S
C2975 C2969 1.390 . S
C2975 C2972 1.386 . S
C2976 C2971 1.490 . S
C2976 C2978 1.395 . S
C2976 C2979 1.403 . S
H2977 C2983 0.930 . S
C2978 H2964 0.930 . S
C2978 C2976 1.395 . S
C2978 C2981 1.403 . S
C2979 C2976 1.403 . S
C2979 C2980 1.524 . S
C2979 C2983 1.400 . S
C2980 H2965 0.960 . S
C2980 H2966 0.960 . S
C2980 H2967 0.960 . S
C2980 C2979 1.524 . S
C2981 C2978 1.403 . S
C2981 C2982 1.392 . S
C2981 C2985 1.495 . S
C2982 C2981 1.392 . S
C2982 C2983 1.385 . S
C2982 C2984 1.478 . S
C2983 H2977 0.930 . S
C2983 C2979 1.400 . S
C2983 C2982 1.385 . S
C2984 C2982 1.478 . S
C2984 C2986 1.381 . S
C2984 C2990 1.383 . S
C2985 C2981 1.495 . S
C2985 H2991 0.959 . S
C2985 H2992 0.961 . S
C2985 H2993 0.960 . S
C2986 C2984 1.381 . S
C2986 C2987 1.394 . S
C2986 H2994 0.930 . S
C2987 C2986 1.394 . S
C2987 C2988 1.383 . S
C2987 H2995 0.929 . S
C2988 C2987 1.383 . S
C2988 C2989 1.377 . S
C2989 H2973 0.930 . S
C2989 C2988 1.377 . S
C2989 C2990 1.379 . S
C2990 H2974 0.931 . S
C2990 C2984 1.383 . S
C2990 C2989 1.379 . S
H2991 C2985 0.959 . S
H2992 C2985 0.961 . S
H2993 C2985 0.960 . S
H2994 C2986 0.930 . S
H2995 C2987 0.929 . S
H2996 C3004 0.929 . S
H2997 C3006 0.930 . S
H2998 C3008 0.930 . S
H2999 C3011 0.929 . S
H3000 C3014 0.930 . S
H3001 C3016 0.960 . S
H3002 C3016 0.960 . S
H3003 C3016 0.960 . S
C3004 H2996 0.929 . S
C3004 C3005 1.377 . S
C3004 C3006 1.384 . S
C3005 C3004 1.377 . S
C3005 C3011 1.390 . S
C3006 H2997 0.930 . S
C3006 C3004 1.384 . S
C3006 C3007 1.372 . S
C3007 C3006 1.372 . S
C3007 C3008 1.400 . S
C3007 C3012 1.490 . S
C3008 H2998 0.930 . S
C3008 C3007 1.400 . S
C3008 C3011 1.386 . S
H3009 C3025 0.930 . S
H3010 C3026 0.931 . S
C3011 H2999 0.929 . S
C3011 C3005 1.390 . S
C3011 C3008 1.386 . S
C3012 C3007 1.490 . S
C3012 C3014 1.395 . S
C3012 C3015 1.403 . S
H3013 C3019 0.930 . S
C3014 H3000 0.930 . S
C3014 C3012 1.395 . S
C3014 C3017 1.403 . S
C3015 C3012 1.403 . S
C3015 C3016 1.524 . S
C3015 C3019 1.400 . S
C3016 H3001 0.960 . S
C3016 H3002 0.960 . S
C3016 H3003 0.960 . S
C3016 C3015 1.524 . S
C3017 C3014 1.403 . S
C3017 C3018 1.392 . S
C3017 C3021 1.495 . S
C3018 C3017 1.392 . S
C3018 C3019 1.385 . S
C3018 C3020 1.478 . S
C3019 H3013 0.930 . S
C3019 C3015 1.400 . S
C3019 C3018 1.385 . S
C3020 C3018 1.478 . S
C3020 C3022 1.381 . S
C3020 C3026 1.383 . S
C3021 C3017 1.495 . S
C3021 H3027 0.959 . S
C3021 H3028 0.961 . S
C3021 H3029 0.960 . S
C3022 C3020 1.381 . S
C3022 C3023 1.394 . S
C3022 H3030 0.930 . S
C3023 C3022 1.394 . S
C3023 C3024 1.383 . S
C3023 H3031 0.929 . S
C3024 C3023 1.383 . S
C3024 C3025 1.377 . S
C3025 H3009 0.930 . S
C3025 C3024 1.377 . S
C3025 C3026 1.379 . S
C3026 H3010 0.931 . S
C3026 C3020 1.383 . S
C3026 C3025 1.379 . S
H3027 C3021 0.959 . S
H3028 C3021 0.961 . S
H3029 C3021 0.960 . S
H3030 C3022 0.930 . S
H3031 C3023 0.929 . S
H3032 C3040 0.929 . S
H3033 C3042 0.930 . S
H3034 C3044 0.930 . S
H3035 C3047 0.929 . S
H3036 C3050 0.930 . S
H3037 C3052 0.960 . S
H3038 C3052 0.960 . S
H3039 C3052 0.960 . S
C3040 H3032 0.929 . S
C3040 C3041 1.377 . S
C3040 C3042 1.384 . S
C3041 C3040 1.377 . S
C3041 C3047 1.390 . S
C3042 H3033 0.930 . S
C3042 C3040 1.384 . S
C3042 C3043 1.372 . S
C3043 C3042 1.372 . S
C3043 C3044 1.400 . S
C3043 C3048 1.490 . S
C3044 H3034 0.930 . S
C3044 C3043 1.400 . S
C3044 C3047 1.386 . S
H3045 C3061 0.930 . S
H3046 C3062 0.931 . S
C3047 H3035 0.929 . S
C3047 C3041 1.390 . S
C3047 C3044 1.386 . S
C3048 C3043 1.490 . S
C3048 C3050 1.395 . S
C3048 C3051 1.403 . S
H3049 C3055 0.930 . S
C3050 H3036 0.930 . S
C3050 C3048 1.395 . S
C3050 C3053 1.403 . S
C3051 C3048 1.403 . S
C3051 C3052 1.524 . S
C3051 C3055 1.400 . S
C3052 H3037 0.960 . S
C3052 H3038 0.960 . S
C3052 H3039 0.960 . S
C3052 C3051 1.524 . S
C3053 C3050 1.403 . S
C3053 C3054 1.392 . S
C3053 C3057 1.495 . S
C3054 C3053 1.392 . S
C3054 C3055 1.385 . S
C3054 C3056 1.478 . S
C3055 H3049 0.930 . S
C3055 C3051 1.400 . S
C3055 C3054 1.385 . S
C3056 C3054 1.478 . S
C3056 C3058 1.381 . S
C3056 C3062 1.383 . S
C3057 C3053 1.495 . S
C3057 H3063 0.959 . S
C3057 H3064 0.961 . S
C3057 H3065 0.960 . S
C3058 C3056 1.381 . S
C3058 C3059 1.394 . S
C3058 H3066 0.930 . S
C3059 C3058 1.394 . S
C3059 C3060 1.383 . S
C3059 H3067 0.929 . S
C3060 C3059 1.383 . S
C3060 C3061 1.377 . S
C3061 H3045 0.930 . S
C3061 C3060 1.377 . S
C3061 C3062 1.379 . S
C3062 H3046 0.931 . S
C3062 C3056 1.383 . S
C3062 C3061 1.379 . S
H3063 C3057 0.959 . S
H3064 C3057 0.961 . S
H3065 C3057 0.960 . S
H3066 C3058 0.930 . S
H3067 C3059 0.929 . S
H3068 C3076 0.929 . S
H3069 C3078 0.930 . S
H3070 C3080 0.930 . S
H3071 C3083 0.929 . S
H3072 C3086 0.930 1_556 S
H3073 C3088 0.960 . S
H3074 C3088 0.960 . S
H3075 C3088 0.960 . S
C3076 H3068 0.929 . S
C3076 C3077 1.377 . S
C3076 C3078 1.384 . S
C3077 C3076 1.377 . S
C3077 C3083 1.390 . S
C3078 H3069 0.930 . S
C3078 C3076 1.384 . S
C3078 C3079 1.372 . S
C3079 C3078 1.372 . S
C3079 C3080 1.400 . S
C3079 C3084 1.490 . S
C3080 H3070 0.930 . S
C3080 C3079 1.400 . S
C3080 C3083 1.386 . S
H3081 C3097 0.930 . S
H3082 C3098 0.931 . S
C3083 H3071 0.929 . S
C3083 C3077 1.390 . S
C3083 C3080 1.386 . S
C3084 C3079 1.490 . S
C3084 C3086 1.395 . S
C3084 C3087 1.403 . S
H3085 C3091 0.930 . S
C3086 H3072 0.930 1_554 S
C3086 C3084 1.395 . S
C3086 C3089 1.396 1_554 S
C3087 C3084 1.403 . S
C3087 C3088 1.524 . S
C3087 C3091 1.400 . S
C3088 H3073 0.960 . S
C3088 H3074 0.960 . S
C3088 H3075 0.960 . S
C3088 C3087 1.524 . S
C3089 C3086 1.396 1_556 S
C3089 C3090 1.371 1_556 S
C3089 C3093 1.524 . S
C3090 C3089 1.371 1_554 S
C3090 C3091 1.385 . S
C3090 C3092 1.478 . S
C3091 H3085 0.930 . S
C3091 C3087 1.400 . S
C3091 C3090 1.385 . S
C3092 C3090 1.478 . S
C3092 C3094 1.381 . S
C3092 C3098 1.383 1_565 S
C3093 C3089 1.524 . S
C3093 H3099 0.959 . S
C3093 H3100 0.961 . S
C3093 H3101 0.960 . S
C3094 C3092 1.381 . S
C3094 C3095 1.394 . S
C3094 H3102 0.930 1_554 S
C3095 C3094 1.394 . S
C3095 C3096 1.383 1_565 S
C3095 H3103 0.929 1_554 S
C3096 C3095 1.383 1_545 S
C3096 C3097 1.377 . S
C3097 H3081 0.930 . S
C3097 C3096 1.377 . S
C3097 C3098 1.379 . S
C3098 H3082 0.931 . S
C3098 C3092 1.383 1_545 S
C3098 C3097 1.379 . S
H3099 C3093 0.959 . S
H3100 C3093 0.961 . S
H3101 C3093 0.960 . S
H3102 C3094 0.930 1_556 S
H3103 C3095 0.929 1_556 S
H3104 C3112 0.929 . S
H3105 C3114 0.930 . S
H3106 C3116 0.930 . S
H3107 C3119 0.929 . S
H3108 C3122 0.930 . S
H3109 C3124 0.960 . S
H3110 C3124 0.960 . S
H3111 C3124 0.960 . S
C3112 H3104 0.929 . S
C3112 C3113 1.377 . S
C3112 C3114 1.384 . S
C3113 C3112 1.377 . S
C3113 C3119 1.390 . S
C3114 H3105 0.930 . S
C3114 C3112 1.384 . S
C3114 C3115 1.372 . S
C3115 C3114 1.372 . S
C3115 C3116 1.400 . S
C3115 C3120 1.490 . S
C3116 H3106 0.930 . S
C3116 C3115 1.400 . S
C3116 C3119 1.386 . S
H3117 C3133 0.930 . S
H3118 C3134 0.931 . S
C3119 H3107 0.929 . S
C3119 C3113 1.390 . S
C3119 C3116 1.386 . S
C3120 C3115 1.490 . S
C3120 C3122 1.395 . S
C3120 C3123 1.403 . S
H3121 C3127 0.930 . S
C3122 H3108 0.930 . S
C3122 C3120 1.395 . S
C3122 C3125 1.403 . S
C3123 C3120 1.403 . S
C3123 C3124 1.524 . S
C3123 C3127 1.400 . S
C3124 H3109 0.960 . S
C3124 H3110 0.960 . S
C3124 H3111 0.960 . S
C3124 C3123 1.524 . S
C3125 C3122 1.403 . S
C3125 C3126 1.392 . S
C3125 C3129 1.495 . S
C3126 C3125 1.392 . S
C3126 C3127 1.385 . S
C3126 C3128 1.478 . S
C3127 H3121 0.930 . S
C3127 C3123 1.400 . S
C3127 C3126 1.385 . S
C3128 C3126 1.478 . S
C3128 C3130 1.381 . S
C3128 C3134 1.383 . S
C3129 C3125 1.495 . S
C3129 H3135 0.959 . S
C3129 H3136 0.961 . S
C3129 H3137 0.960 . S
C3130 C3128 1.381 . S
C3130 C3131 1.394 . S
C3130 H3138 0.930 . S
C3131 C3130 1.394 . S
C3131 C3132 1.383 . S
C3131 H3139 0.929 . S
C3132 C3131 1.383 . S
C3132 C3133 1.377 . S
C3133 H3117 0.930 . S
C3133 C3132 1.377 . S
C3133 C3134 1.379 . S
C3134 H3118 0.931 . S
C3134 C3128 1.383 . S
C3134 C3133 1.379 . S
H3135 C3129 0.959 . S
H3136 C3129 0.961 . S
H3137 C3129 0.960 . S
H3138 C3130 0.930 . S
H3139 C3131 0.929 . S
H3140 C3148 0.929 . S
H3141 C3150 0.930 . S
H3142 C3152 0.930 1_556 S
H3143 C3155 0.929 1_556 S
H3144 C3158 0.930 . S
H3145 C3160 0.960 . S
H3146 C3160 0.960 . S
H3147 C3160 0.960 . S
C3148 H3140 0.929 . S
C3148 C3149 1.377 . S
C3148 C3150 1.384 . S
C3149 C3148 1.377 . S
C3149 C3155 1.390 . S
C3150 H3141 0.930 . S
C3150 C3148 1.384 . S
C3150 C3151 1.372 . S
C3151 C3150 1.372 . S
C3151 C3152 1.400 . S
C3151 C3156 1.490 . S
C3152 H3142 0.930 1_554 S
C3152 C3151 1.400 . S
C3152 C3155 1.386 . S
H3153 C3169 0.930 . S
H3154 C3170 0.931 . S
C3155 H3143 0.929 1_554 S
C3155 C3149 1.390 . S
C3155 C3152 1.386 . S
C3156 C3151 1.490 . S
C3156 C3158 1.395 . S
C3156 C3159 1.403 . S
H3157 C3163 0.930 . S
C3158 H3144 0.930 . S
C3158 C3156 1.395 . S
C3158 C3161 1.403 . S
C3159 C3156 1.403 . S
C3159 C3160 1.524 . S
C3159 C3163 1.400 . S
C3160 H3145 0.960 . S
C3160 H3146 0.960 . S
C3160 H3147 0.960 . S
C3160 C3159 1.524 . S
C3161 C3158 1.403 . S
C3161 C3162 1.392 . S
C3161 C3165 1.495 . S
C3162 C3161 1.392 . S
C3162 C3163 1.385 . S
C3162 C3164 1.478 . S
C3163 H3157 0.930 . S
C3163 C3159 1.400 . S
C3163 C3162 1.385 . S
C3164 C3162 1.478 . S
C3164 C3166 1.381 . S
C3164 C3170 1.383 . S
C3165 C3161 1.495 . S
C3165 H3171 0.959 . S
C3165 H3172 0.961 . S
C3165 H3173 0.960 . S
C3166 C3164 1.381 . S
C3166 C3167 1.394 . S
C3166 H3174 0.930 . S
C3167 C3166 1.394 . S
C3167 C3168 1.383 . S
C3167 H3175 0.929 . S
C3168 C3167 1.383 . S
C3168 C3169 1.377 . S
C3169 H3153 0.930 . S
C3169 C3168 1.377 . S
C3169 C3170 1.379 . S
C3170 H3154 0.931 . S
C3170 C3164 1.383 . S
C3170 C3169 1.379 . S
H3171 C3165 0.959 . S
H3172 C3165 0.961 . S
H3173 C3165 0.960 . S
H3174 C3166 0.930 . S
H3175 C3167 0.929 . S
H3176 C3184 0.929 . S
H3177 C3186 0.930 . S
H3178 C3188 0.930 . S
H3179 C3191 0.929 . S
H3180 C3194 0.930 . S
H3181 C3196 0.960 . S
H3182 C3196 0.960 . S
H3183 C3196 0.960 . S
C3184 H3176 0.929 . S
C3184 C3185 1.377 . S
C3184 C3186 1.384 . S
C3185 C3184 1.377 . S
C3185 C3191 1.390 . S
C3186 H3177 0.930 . S
C3186 C3184 1.384 . S
C3186 C3187 1.372 . S
C3187 C3186 1.372 . S
C3187 C3188 1.400 . S
C3187 C3192 1.490 . S
C3188 H3178 0.930 . S
C3188 C3187 1.400 . S
C3188 C3191 1.386 . S
H3189 C3205 0.930 . S
H3190 C3206 0.931 . S
C3191 H3179 0.929 . S
C3191 C3185 1.390 . S
C3191 C3188 1.386 . S
C3192 C3187 1.490 . S
C3192 C3194 1.395 . S
C3192 C3195 1.403 . S
H3193 C3199 0.930 . S
C3194 H3180 0.930 . S
C3194 C3192 1.395 . S
C3194 C3197 1.403 . S
C3195 C3192 1.403 . S
C3195 C3196 1.524 . S
C3195 C3199 1.400 . S
C3196 H3181 0.960 . S
C3196 H3182 0.960 . S
C3196 H3183 0.960 . S
C3196 C3195 1.524 . S
C3197 C3194 1.403 . S
C3197 C3198 1.392 . S
C3197 C3201 1.495 . S
C3198 C3197 1.392 . S
C3198 C3199 1.385 . S
C3198 C3200 1.478 . S
C3199 H3193 0.930 . S
C3199 C3195 1.400 . S
C3199 C3198 1.385 . S
C3200 C3198 1.478 . S
C3200 C3202 1.381 . S
C3200 C3206 1.383 . S
C3201 C3197 1.495 . S
C3201 H3207 0.959 . S
C3201 H3208 0.961 . S
C3201 H3209 0.960 . S
C3202 C3200 1.381 . S
C3202 C3203 1.394 . S
C3202 H3210 0.930 . S
C3203 C3202 1.394 . S
C3203 C3204 1.383 . S
C3203 H3211 0.929 . S
C3204 C3203 1.383 . S
C3204 C3205 1.377 . S
C3205 H3189 0.930 . S
C3205 C3204 1.377 . S
C3205 C3206 1.379 . S
C3206 H3190 0.931 . S
C3206 C3200 1.383 . S
C3206 C3205 1.379 . S
H3207 C3201 0.959 . S
H3208 C3201 0.961 . S
H3209 C3201 0.960 . S
H3210 C3202 0.930 . S
H3211 C3203 0.929 . S
H3212 C3220 0.929 . S
H3213 C3222 0.930 . S
H3214 C3224 0.930 . S
H3215 C3227 0.929 . S
H3216 C3230 0.930 . S
H3217 C3232 0.960 . S
H3218 C3232 0.960 . S
H3219 C3232 0.960 . S
C3220 H3212 0.929 . S
C3220 C3221 1.377 . S
C3220 C3222 1.384 . S
C3221 C3220 1.377 . S
C3221 C3227 1.390 . S
C3222 H3213 0.930 . S
C3222 C3220 1.384 . S
C3222 C3223 1.372 . S
C3223 C3222 1.372 . S
C3223 C3224 1.400 . S
C3223 C3228 1.490 . S
C3224 H3214 0.930 . S
C3224 C3223 1.400 . S
C3224 C3227 1.386 . S
H3225 C3241 0.930 . S
H3226 C3242 0.931 . S
C3227 H3215 0.929 . S
C3227 C3221 1.390 . S
C3227 C3224 1.386 . S
C3228 C3223 1.490 . S
C3228 C3230 1.395 . S
C3228 C3231 1.403 . S
H3229 C3235 0.930 . S
C3230 H3216 0.930 . S
C3230 C3228 1.395 . S
C3230 C3233 1.403 . S
C3231 C3228 1.403 . S
C3231 C3232 1.524 . S
C3231 C3235 1.400 . S
C3232 H3217 0.960 . S
C3232 H3218 0.960 . S
C3232 H3219 0.960 . S
C3232 C3231 1.524 . S
C3233 C3230 1.403 . S
C3233 C3234 1.392 . S
C3233 C3237 1.495 . S
C3234 C3233 1.392 . S
C3234 C3235 1.385 . S
C3234 C3236 1.478 . S
C3235 H3229 0.930 . S
C3235 C3231 1.400 . S
C3235 C3234 1.385 . S
C3236 C3234 1.478 . S
C3236 C3238 1.381 . S
C3236 C3242 1.383 . S
C3237 C3233 1.495 . S
C3237 H3243 0.959 . S
C3237 H3244 0.961 . S
C3237 H3245 0.960 . S
C3238 C3236 1.381 . S
C3238 C3239 1.394 . S
C3238 H3246 0.930 . S
C3239 C3238 1.394 . S
C3239 C3240 1.383 . S
C3239 H3247 0.929 . S
C3240 C3239 1.383 . S
C3240 C3241 1.377 . S
C3241 H3225 0.930 . S
C3241 C3240 1.377 . S
C3241 C3242 1.379 . S
C3242 H3226 0.931 . S
C3242 C3236 1.383 . S
C3242 C3241 1.379 . S
H3243 C3237 0.959 . S
H3244 C3237 0.961 . S
H3245 C3237 0.960 . S
H3246 C3238 0.930 . S
H3247 C3239 0.929 . S
H3248 C3256 0.929 . S
H3249 C3258 0.930 . S
H3250 C3260 0.930 . S
H3251 C3263 0.929 . S
H3252 C3266 0.930 . S
H3253 C3268 0.960 . S
H3254 C3268 0.960 . S
H3255 C3268 0.960 . S
C3256 H3248 0.929 . S
C3256 C3257 1.377 . S
C3256 C3258 1.384 . S
C3257 C3256 1.377 . S
C3257 C3263 1.390 . S
C3258 H3249 0.930 . S
C3258 C3256 1.384 . S
C3258 C3259 1.372 . S
C3259 C3258 1.372 . S
C3259 C3260 1.400 . S
C3259 C3264 1.490 . S
C3260 H3250 0.930 . S
C3260 C3259 1.400 . S
C3260 C3263 1.386 . S
H3261 C3277 0.930 . S
H3262 C3278 0.931 . S
C3263 H3251 0.929 . S
C3263 C3257 1.390 . S
C3263 C3260 1.386 . S
C3264 C3259 1.490 . S
C3264 C3266 1.395 . S
C3264 C3267 1.403 . S
H3265 C3271 0.930 . S
C3266 H3252 0.930 . S
C3266 C3264 1.395 . S
C3266 C3269 1.403 . S
C3267 C3264 1.403 . S
C3267 C3268 1.524 . S
C3267 C3271 1.400 . S
C3268 H3253 0.960 . S
C3268 H3254 0.960 . S
C3268 H3255 0.960 . S
C3268 C3267 1.524 . S
C3269 C3266 1.403 . S
C3269 C3270 1.392 . S
C3269 C3273 1.495 . S
C3270 C3269 1.392 . S
C3270 C3271 1.385 . S
C3270 C3272 1.478 . S
C3271 H3265 0.930 . S
C3271 C3267 1.400 . S
C3271 C3270 1.385 . S
C3272 C3270 1.478 . S
C3272 C3274 1.381 . S
C3272 C3278 1.383 . S
C3273 C3269 1.495 . S
C3273 H3279 0.959 . S
C3273 H3280 0.961 . S
C3273 H3281 0.960 . S
C3274 C3272 1.381 . S
C3274 C3275 1.394 . S
C3274 H3282 0.930 . S
C3275 C3274 1.394 . S
C3275 C3276 1.383 . S
C3275 H3283 0.929 . S
C3276 C3275 1.383 . S
C3276 C3277 1.377 . S
C3277 H3261 0.930 . S
C3277 C3276 1.377 . S
C3277 C3278 1.379 . S
C3278 H3262 0.931 . S
C3278 C3272 1.383 . S
C3278 C3277 1.379 . S
H3279 C3273 0.959 . S
H3280 C3273 0.961 . S
H3281 C3273 0.960 . S
H3282 C3274 0.930 . S
H3283 C3275 0.929 . S
H3284 C3292 0.929 . S
H3285 C3294 0.930 . S
H3286 C3296 0.930 . S
H3287 C3299 0.929 . S
H3288 C3302 0.930 . S
H3289 C3304 0.960 . S
H3290 C3304 0.960 . S
H3291 C3304 0.960 . S
C3292 H3284 0.929 . S
C3292 C3293 1.377 . S
C3292 C3294 1.384 . S
C3293 C3292 1.377 . S
C3293 C3299 1.390 . S
C3294 H3285 0.930 . S
C3294 C3292 1.384 . S
C3294 C3295 1.372 . S
C3295 C3294 1.372 . S
C3295 C3296 1.400 . S
C3295 C3300 1.490 . S
C3296 H3286 0.930 . S
C3296 C3295 1.400 . S
C3296 C3299 1.386 . S
H3297 C3313 0.930 . S
H3298 C3314 0.931 . S
C3299 H3287 0.929 . S
C3299 C3293 1.390 . S
C3299 C3296 1.386 . S
C3300 C3295 1.490 . S
C3300 C3302 1.395 . S
C3300 C3303 1.403 . S
H3301 C3307 0.930 . S
C3302 H3288 0.930 . S
C3302 C3300 1.395 . S
C3302 C3305 1.403 . S
C3303 C3300 1.403 . S
C3303 C3304 1.524 . S
C3303 C3307 1.400 . S
C3304 H3289 0.960 . S
C3304 H3290 0.960 . S
C3304 H3291 0.960 . S
C3304 C3303 1.524 . S
C3305 C3302 1.403 . S
C3305 C3306 1.392 . S
C3305 C3309 1.495 . S
C3306 C3305 1.392 . S
C3306 C3307 1.385 . S
C3306 C3308 1.478 . S
C3307 H3301 0.930 . S
C3307 C3303 1.400 . S
C3307 C3306 1.385 . S
C3308 C3306 1.478 . S
C3308 C3310 1.381 . S
C3308 C3314 1.383 . S
C3309 C3305 1.495 . S
C3309 H3315 0.959 . S
C3309 H3316 0.961 . S
C3309 H3317 0.960 . S
C3310 C3308 1.381 . S
C3310 C3311 1.394 . S
C3310 H3318 0.930 . S
C3311 C3310 1.394 . S
C3311 C3312 1.383 . S
C3311 H3319 0.929 . S
C3312 C3311 1.383 . S
C3312 C3313 1.377 . S
C3313 H3297 0.930 . S
C3313 C3312 1.377 . S
C3313 C3314 1.379 . S
C3314 H3298 0.931 . S
C3314 C3308 1.383 . S
C3314 C3313 1.379 . S
H3315 C3309 0.959 . S
H3316 C3309 0.961 . S
H3317 C3309 0.960 . S
H3318 C3310 0.930 . S
H3319 C3311 0.929 . S
H3320 C3328 0.929 . S
H3321 C3330 0.930 . S
H3322 C3332 0.944 . S
H3323 C3335 0.963 . S
H3324 C3338 0.930 . S
H3325 C3340 0.960 . S
H3326 C3340 0.960 . S
H3327 C3340 0.960 1_655 S
C3328 H3320 0.929 . S
C3328 C3329 1.377 . S
C3328 C3330 1.384 . S
C3329 C3328 1.377 . S
C3329 C3335 1.364 1_455 S
C3330 H3321 0.930 . S
C3330 C3328 1.384 . S
C3330 C3331 1.372 . S
C3331 C3330 1.372 . S
C3331 C3332 1.382 1_455 S
C3331 C3336 1.490 . S
C3332 H3322 0.944 . S
C3332 C3331 1.382 1_655 S
C3332 C3335 1.383 . S
H3333 C3349 0.930 . S
H3334 C3350 0.931 . S
C3335 H3323 0.963 . S
C3335 C3329 1.364 1_655 S
C3335 C3332 1.383 . S
C3336 C3331 1.490 . S
C3336 C3338 1.395 . S
C3336 C3339 1.403 . S
H3337 C3343 0.930 . S
C3338 H3324 0.930 . S
C3338 C3336 1.395 . S
C3338 C3341 1.403 . S
C3339 C3336 1.403 . S
C3339 C3340 1.524 . S
C3339 C3343 1.400 . S
C3340 H3325 0.960 . S
C3340 H3326 0.960 . S
C3340 H3327 0.960 1_455 S
C3340 C3339 1.524 . S
C3341 C3338 1.403 . S
C3341 C3342 1.392 . S
C3341 C3345 1.495 . S
C3342 C3341 1.392 . S
C3342 C3343 1.385 . S
C3342 C3344 1.478 . S
C3343 H3337 0.930 . S
C3343 C3339 1.400 . S
C3343 C3342 1.385 . S
C3344 C3342 1.478 . S
C3344 C3346 1.381 . S
C3344 C3350 1.383 1_455 S
C3345 C3341 1.495 . S
C3345 H3351 0.959 . S
C3345 H3352 0.961 . S
C3345 H3353 0.960 . S
C3346 C3344 1.381 . S
C3346 C3347 1.394 . S
C3346 H3354 0.930 . S
C3347 C3346 1.394 . S
C3347 C3348 1.383 . S
C3347 H3355 0.929 . S
C3348 C3347 1.383 . S
C3348 C3349 1.377 1_455 S
C3349 H3333 0.930 . S
C3349 C3348 1.377 1_655 S
C3349 C3350 1.379 . S
C3350 H3334 0.931 . S
C3350 C3344 1.383 1_655 S
C3350 C3349 1.379 . S
H3351 C3345 0.959 . S
H3352 C3345 0.961 . S
H3353 C3345 0.960 . S
H3354 C3346 0.930 . S
H3355 C3347 0.929 . S
H3356 C3364 0.929 . S
H3357 C3366 0.930 . S
H3358 C3368 0.930 . S
H3359 C3371 0.929 . S
H3360 C3374 0.930 . S
H3361 C3376 0.960 . S
H3362 C3376 0.960 . S
H3363 C3376 0.960 . S
C3364 H3356 0.929 . S
C3364 C3365 1.377 . S
C3364 C3366 1.384 . S
C3365 C3364 1.377 . S
C3365 C3371 1.390 . S
C3366 H3357 0.930 . S
C3366 C3364 1.384 . S
C3366 C3367 1.372 . S
C3367 C3366 1.372 . S
C3367 C3368 1.400 . S
C3367 C3372 1.490 . S
C3368 H3358 0.930 . S
C3368 C3367 1.400 . S
C3368 C3371 1.386 . S
H3369 C3385 0.930 . S
H3370 C3386 0.931 . S
C3371 H3359 0.929 . S
C3371 C3365 1.390 . S
C3371 C3368 1.386 . S
C3372 C3367 1.490 . S
C3372 C3374 1.395 . S
C3372 C3375 1.403 . S
H3373 C3379 0.930 . S
C3374 H3360 0.930 . S
C3374 C3372 1.395 . S
C3374 C3377 1.403 . S
C3375 C3372 1.403 . S
C3375 C3376 1.524 . S
C3375 C3379 1.400 . S
C3376 H3361 0.960 . S
C3376 H3362 0.960 . S
C3376 H3363 0.960 . S
C3376 C3375 1.524 . S
C3377 C3374 1.403 . S
C3377 C3378 1.392 . S
C3377 C3381 1.495 . S
C3378 C3377 1.392 . S
C3378 C3379 1.385 . S
C3378 C3380 1.478 . S
C3379 H3373 0.930 . S
C3379 C3375 1.400 . S
C3379 C3378 1.385 . S
C3380 C3378 1.478 . S
C3380 C3382 1.381 . S
C3380 C3386 1.383 . S
C3381 C3377 1.495 . S
C3381 H3387 0.959 . S
C3381 H3388 0.961 . S
C3381 H3389 0.960 . S
C3382 C3380 1.381 . S
C3382 C3383 1.394 . S
C3382 H3390 0.930 . S
C3383 C3382 1.394 . S
C3383 C3384 1.383 . S
C3383 H3391 0.929 . S
C3384 C3383 1.383 . S
C3384 C3385 1.377 . S
C3385 H3369 0.930 . S
C3385 C3384 1.377 . S
C3385 C3386 1.379 . S
C3386 H3370 0.931 . S
C3386 C3380 1.383 . S
C3386 C3385 1.379 . S
H3387 C3381 0.959 . S
H3388 C3381 0.961 . S
H3389 C3381 0.960 . S
H3390 C3382 0.930 . S
H3391 C3383 0.929 . S
H3392 C3400 0.929 . S
H3393 C3402 0.930 . S
H3394 C3404 0.930 . S
H3395 C3407 0.929 . S
H3396 C3410 0.930 . S
H3397 C3412 0.960 . S
H3398 C3412 0.960 . S
H3399 C3412 0.960 . S
C3400 H3392 0.929 . S
C3400 C3401 1.377 . S
C3400 C3402 1.384 . S
C3401 C3400 1.377 . S
C3401 C3407 1.390 . S
C3402 H3393 0.930 . S
C3402 C3400 1.384 . S
C3402 C3403 1.372 . S
C3403 C3402 1.372 . S
C3403 C3404 1.400 . S
C3403 C3408 1.490 . S
C3404 H3394 0.930 . S
C3404 C3403 1.400 . S
C3404 C3407 1.386 . S
H3405 C3421 0.930 . S
H3406 C3422 0.931 . S
C3407 H3395 0.929 . S
C3407 C3401 1.390 . S
C3407 C3404 1.386 . S
C3408 C3403 1.490 . S
C3408 C3410 1.395 . S
C3408 C3411 1.403 . S
H3409 C3415 0.930 . S
C3410 H3396 0.930 . S
C3410 C3408 1.395 . S
C3410 C3413 1.403 . S
C3411 C3408 1.403 . S
C3411 C3412 1.524 . S
C3411 C3415 1.400 . S
C3412 H3397 0.960 . S
C3412 H3398 0.960 . S
C3412 H3399 0.960 . S
C3412 C3411 1.524 . S
C3413 C3410 1.403 . S
C3413 C3414 1.392 . S
C3413 C3417 1.495 . S
C3414 C3413 1.392 . S
C3414 C3415 1.385 . S
C3414 C3416 1.478 . S
C3415 H3409 0.930 . S
C3415 C3411 1.400 . S
C3415 C3414 1.385 . S
C3416 C3414 1.478 . S
C3416 C3418 1.381 . S
C3416 C3422 1.383 . S
C3417 C3413 1.495 . S
C3417 H3423 0.959 . S
C3417 H3424 0.961 . S
C3417 H3425 0.960 . S
C3418 C3416 1.381 . S
C3418 C3419 1.394 . S
C3418 H3426 0.930 . S
C3419 C3418 1.394 . S
C3419 C3420 1.383 . S
C3419 H3427 0.929 . S
C3420 C3419 1.383 . S
C3420 C3421 1.377 . S
C3421 H3405 0.930 . S
C3421 C3420 1.377 . S
C3421 C3422 1.379 . S
C3422 H3406 0.931 . S
C3422 C3416 1.383 . S
C3422 C3421 1.379 . S
H3423 C3417 0.959 . S
H3424 C3417 0.961 . S
H3425 C3417 0.960 . S
H3426 C3418 0.930 . S
H3427 C3419 0.929 . S
H3428 C3436 0.929 . S
H3429 C3438 0.930 . S
H3430 C3440 0.930 . S
H3431 C3443 0.929 . S
H3432 C3446 0.930 . S
H3433 C3448 0.960 . S
H3434 C3448 0.960 . S
H3435 C3448 0.960 . S
C3436 H3428 0.929 . S
C3436 C3437 1.377 . S
C3436 C3438 1.384 . S
C3437 C3436 1.377 . S
C3437 C3443 1.390 . S
C3438 H3429 0.930 . S
C3438 C3436 1.384 . S
C3438 C3439 1.372 . S
C3439 C3438 1.372 . S
C3439 C3440 1.400 . S
C3439 C3444 1.490 . S
C3440 H3430 0.930 . S
C3440 C3439 1.400 . S
C3440 C3443 1.386 . S
H3441 C3457 0.930 . S
H3442 C3458 0.931 . S
C3443 H3431 0.929 . S
C3443 C3437 1.390 . S
C3443 C3440 1.386 . S
C3444 C3439 1.490 . S
C3444 C3446 1.395 . S
C3444 C3447 1.403 . S
H3445 C3451 0.930 . S
C3446 H3432 0.930 . S
C3446 C3444 1.395 . S
C3446 C3449 1.403 . S
C3447 C3444 1.403 . S
C3447 C3448 1.524 . S
C3447 C3451 1.400 . S
C3448 H3433 0.960 . S
C3448 H3434 0.960 . S
C3448 H3435 0.960 . S
C3448 C3447 1.524 . S
C3449 C3446 1.403 . S
C3449 C3450 1.392 . S
C3449 C3453 1.495 . S
C3450 C3449 1.392 . S
C3450 C3451 1.385 . S
C3450 C3452 1.478 . S
C3451 H3445 0.930 . S
C3451 C3447 1.400 . S
C3451 C3450 1.385 . S
C3452 C3450 1.478 . S
C3452 C3454 1.381 . S
C3452 C3458 1.383 . S
C3453 C3449 1.495 . S
C3453 H3459 0.959 . S
C3453 H3460 0.961 . S
C3453 H3461 0.960 . S
C3454 C3452 1.381 . S
C3454 C3455 1.394 . S
C3454 H3462 0.930 . S
C3455 C3454 1.394 . S
C3455 C3456 1.383 . S
C3455 H3463 0.929 . S
C3456 C3455 1.383 . S
C3456 C3457 1.377 . S
C3457 H3441 0.930 . S
C3457 C3456 1.377 . S
C3457 C3458 1.379 . S
C3458 H3442 0.931 . S
C3458 C3452 1.383 . S
C3458 C3457 1.379 . S
H3459 C3453 0.959 . S
H3460 C3453 0.961 . S
H3461 C3453 0.960 . S
H3462 C3454 0.930 . S
H3463 C3455 0.929 . S
H3464 C3472 0.929 1_655 S
H3465 C3474 0.930 1_655 S
H3466 C3476 0.930 . S
H3467 C3479 0.929 . S
H3468 C3482 0.930 1_655 S
H3469 C3484 0.960 . S
H3470 C3484 0.960 . S
H3471 C3484 0.960 . S
C3472 H3464 0.929 1_455 S
C3472 C3473 1.377 . S
C3472 C3474 1.384 . S
C3473 C3472 1.377 . S
C3473 C3479 1.390 . S
C3474 H3465 0.930 1_455 S
C3474 C3472 1.384 . S
C3474 C3475 1.372 . S
C3475 C3474 1.372 . S
C3475 C3476 1.400 . S
C3475 C3480 1.490 . S
C3476 H3466 0.930 . S
C3476 C3475 1.400 . S
C3476 C3479 1.386 . S
H3477 C3493 0.930 . S
H3478 C3494 0.931 . S
C3479 H3467 0.929 . S
C3479 C3473 1.390 . S
C3479 C3476 1.386 . S
C3480 C3475 1.490 . S
C3480 C3482 1.395 . S
C3480 C3483 1.403 . S
H3481 C3487 0.930 . S
C3482 H3468 0.930 1_455 S
C3482 C3480 1.395 . S
C3482 C3485 1.403 . S
C3483 C3480 1.403 . S
C3483 C3484 1.524 . S
C3483 C3487 1.400 . S
C3484 H3469 0.960 . S
C3484 H3470 0.960 . S
C3484 H3471 0.960 . S
C3484 C3483 1.524 . S
C3485 C3482 1.403 . S
C3485 C3486 1.392 . S
C3485 C3489 1.495 1_455 S
C3486 C3485 1.392 . S
C3486 C3487 1.385 . S
C3486 C3488 1.478 . S
C3487 H3481 0.930 . S
C3487 C3483 1.400 . S
C3487 C3486 1.385 . S
C3488 C3486 1.478 . S
C3488 C3490 1.381 1_455 S
C3488 C3494 1.383 . S
C3489 C3485 1.495 1_655 S
C3489 H3495 0.959 . S
C3489 H3496 0.961 . S
C3489 H3497 0.960 . S
C3490 C3488 1.381 1_655 S
C3490 C3491 1.394 . S
C3490 H3498 0.930 . S
C3491 C3490 1.394 . S
C3491 C3492 1.383 1_655 S
C3491 H3499 0.929 . S
C3492 C3491 1.383 1_455 S
C3492 C3493 1.377 . S
C3493 H3477 0.930 . S
C3493 C3492 1.377 . S
C3493 C3494 1.379 . S
C3494 H3478 0.931 . S
C3494 C3488 1.383 . S
C3494 C3493 1.379 . S
H3495 C3489 0.959 . S
H3496 C3489 0.961 . S
H3497 C3489 0.960 . S
H3498 C3490 0.930 . S
H3499 C3491 0.929 . S
H3500 C3508 0.929 . S
H3501 C3510 0.930 . S
H3502 C3512 0.930 . S
H3503 C3515 0.929 . S
H3504 C3518 0.930 . S
H3505 C3520 0.960 . S
H3506 C3520 0.960 . S
H3507 C3520 0.960 . S
C3508 H3500 0.929 . S
C3508 C3509 1.377 . S
C3508 C3510 1.384 . S
C3509 C3508 1.377 . S
C3509 C3515 1.390 . S
C3510 H3501 0.930 . S
C3510 C3508 1.384 . S
C3510 C3511 1.372 . S
C3511 C3510 1.372 . S
C3511 C3512 1.400 . S
C3511 C3516 1.490 . S
C3512 H3502 0.930 . S
C3512 C3511 1.400 . S
C3512 C3515 1.386 . S
H3513 C3529 0.930 . S
H3514 C3530 0.931 . S
C3515 H3503 0.929 . S
C3515 C3509 1.390 . S
C3515 C3512 1.386 . S
C3516 C3511 1.490 . S
C3516 C3518 1.395 . S
C3516 C3519 1.403 . S
H3517 C3523 0.930 . S
C3518 H3504 0.930 . S
C3518 C3516 1.395 . S
C3518 C3521 1.403 . S
C3519 C3516 1.403 . S
C3519 C3520 1.524 . S
C3519 C3523 1.400 . S
C3520 H3505 0.960 . S
C3520 H3506 0.960 . S
C3520 H3507 0.960 . S
C3520 C3519 1.524 . S
C3521 C3518 1.403 . S
C3521 C3522 1.392 . S
C3521 C3525 1.495 . S
C3522 C3521 1.392 . S
C3522 C3523 1.385 . S
C3522 C3524 1.478 . S
C3523 H3517 0.930 . S
C3523 C3519 1.400 . S
C3523 C3522 1.385 . S
C3524 C3522 1.478 . S
C3524 C3526 1.381 . S
C3524 C3530 1.383 . S
C3525 C3521 1.495 . S
C3525 H3531 0.959 . S
C3525 H3532 0.961 . S
C3525 H3533 0.960 . S
C3526 C3524 1.381 . S
C3526 C3527 1.394 . S
C3526 H3534 0.930 . S
C3527 C3526 1.394 . S
C3527 C3528 1.383 . S
C3527 H3535 0.929 . S
C3528 C3527 1.383 . S
C3528 C3529 1.377 . S
C3529 H3513 0.930 . S
C3529 C3528 1.377 . S
C3529 C3530 1.379 . S
C3530 H3514 0.931 . S
C3530 C3524 1.383 . S
C3530 C3529 1.379 . S
H3531 C3525 0.959 . S
H3532 C3525 0.961 . S
H3533 C3525 0.960 . S
H3534 C3526 0.930 . S
H3535 C3527 0.929 . S
H3536 C3544 0.929 . S
H3537 C3546 0.930 . S
H3538 C3548 0.930 . S
H3539 C3551 0.929 . S
H3540 C3554 0.930 . S
H3541 C3556 0.960 . S
H3542 C3556 0.960 . S
H3543 C3556 0.960 . S
C3544 H3536 0.929 . S
C3544 C3545 1.377 . S
C3544 C3546 1.384 . S
C3545 C3544 1.377 . S
C3545 C3551 1.390 . S
C3546 H3537 0.930 . S
C3546 C3544 1.384 . S
C3546 C3547 1.372 . S
C3547 C3546 1.372 . S
C3547 C3548 1.400 . S
C3547 C3552 1.490 . S
C3548 H3538 0.930 . S
C3548 C3547 1.400 . S
C3548 C3551 1.386 . S
H3549 C3565 0.930 . S
H3550 C3566 0.931 . S
C3551 H3539 0.929 . S
C3551 C3545 1.390 . S
C3551 C3548 1.386 . S
C3552 C3547 1.490 . S
C3552 C3554 1.395 . S
C3552 C3555 1.403 . S
H3553 C3559 0.930 . S
C3554 H3540 0.930 . S
C3554 C3552 1.395 . S
C3554 C3557 1.403 . S
C3555 C3552 1.403 . S
C3555 C3556 1.524 . S
C3555 C3559 1.400 . S
C3556 H3541 0.960 . S
C3556 H3542 0.960 . S
C3556 H3543 0.960 . S
C3556 C3555 1.524 . S
C3557 C3554 1.403 . S
C3557 C3558 1.392 . S
C3557 C3561 1.495 . S
C3558 C3557 1.392 . S
C3558 C3559 1.385 . S
C3558 C3560 1.478 . S
C3559 H3553 0.930 . S
C3559 C3555 1.400 . S
C3559 C3558 1.385 . S
C3560 C3558 1.478 . S
C3560 C3562 1.381 . S
C3560 C3566 1.383 . S
C3561 C3557 1.495 . S
C3561 H3567 0.959 . S
C3561 H3568 0.961 . S
C3561 H3569 0.960 . S
C3562 C3560 1.381 . S
C3562 C3563 1.394 . S
C3562 H3570 0.930 . S
C3563 C3562 1.394 . S
C3563 C3564 1.383 . S
C3563 H3571 0.929 . S
C3564 C3563 1.383 . S
C3564 C3565 1.377 . S
C3565 H3549 0.930 . S
C3565 C3564 1.377 . S
C3565 C3566 1.379 . S
C3566 H3550 0.931 . S
C3566 C3560 1.383 . S
C3566 C3565 1.379 . S
H3567 C3561 0.959 . S
H3568 C3561 0.961 . S
H3569 C3561 0.960 . S
H3570 C3562 0.930 . S
H3571 C3563 0.929 . S
H3572 C3580 0.929 . S
H3573 C3582 0.930 . S
H3574 C3584 0.930 . S
H3575 C3587 0.929 . S
H3576 C3590 0.930 . S
H3577 C3592 0.960 . S
H3578 C3592 0.960 . S
H3579 C3592 0.960 . S
C3580 H3572 0.929 . S
C3580 C3581 1.377 . S
C3580 C3582 1.384 . S
C3581 C3580 1.377 . S
C3581 C3587 1.390 . S
C3582 H3573 0.930 . S
C3582 C3580 1.384 . S
C3582 C3583 1.372 . S
C3583 C3582 1.372 . S
C3583 C3584 1.400 . S
C3583 C3588 1.490 . S
C3584 H3574 0.930 . S
C3584 C3583 1.400 . S
C3584 C3587 1.386 . S
H3585 C3601 0.930 . S
H3586 C3602 0.931 . S
C3587 H3575 0.929 . S
C3587 C3581 1.390 . S
C3587 C3584 1.386 . S
C3588 C3583 1.490 . S
C3588 C3590 1.395 . S
C3588 C3591 1.403 . S
H3589 C3595 0.930 . S
C3590 H3576 0.930 . S
C3590 C3588 1.395 . S
C3590 C3593 1.403 . S
C3591 C3588 1.403 . S
C3591 C3592 1.524 . S
C3591 C3595 1.400 . S
C3592 H3577 0.960 . S
C3592 H3578 0.960 . S
C3592 H3579 0.960 . S
C3592 C3591 1.524 . S
C3593 C3590 1.403 . S
C3593 C3594 1.392 . S
C3593 C3597 1.495 . S
C3594 C3593 1.392 . S
C3594 C3595 1.385 . S
C3594 C3596 1.478 . S
C3595 H3589 0.930 . S
C3595 C3591 1.400 . S
C3595 C3594 1.385 . S
C3596 C3594 1.478 . S
C3596 C3598 1.381 . S
C3596 C3602 1.383 . S
C3597 C3593 1.495 . S
C3597 H3603 0.959 . S
C3597 H3604 0.961 . S
C3597 H3605 0.960 . S
C3598 C3596 1.381 . S
C3598 C3599 1.394 . S
C3598 H3606 0.930 . S
C3599 C3598 1.394 . S
C3599 C3600 1.383 . S
C3599 H3607 0.929 . S
C3600 C3599 1.383 . S
C3600 C3601 1.377 . S
C3601 H3585 0.930 . S
C3601 C3600 1.377 . S
C3601 C3602 1.379 . S
C3602 H3586 0.931 . S
C3602 C3596 1.383 . S
C3602 C3601 1.379 . S
H3603 C3597 0.959 . S
H3604 C3597 0.961 . S
H3605 C3597 0.960 . S
H3606 C3598 0.930 . S
H3607 C3599 0.929 . S
H3608 C3616 0.929 . S
H3609 C3618 0.930 . S
H3610 C3620 0.930 . S
H3611 C3623 0.929 . S
H3612 C3626 0.930 . S
H3613 C3628 0.960 . S
H3614 C3628 0.960 . S
H3615 C3628 0.960 . S
C3616 H3608 0.929 . S
C3616 C3617 1.377 . S
C3616 C3618 1.384 . S
C3617 C3616 1.377 . S
C3617 C3623 1.390 . S
C3618 H3609 0.930 . S
C3618 C3616 1.384 . S
C3618 C3619 1.372 . S
C3619 C3618 1.372 . S
C3619 C3620 1.400 . S
C3619 C3624 1.490 . S
C3620 H3610 0.930 . S
C3620 C3619 1.400 . S
C3620 C3623 1.386 . S
H3621 C3637 0.930 . S
H3622 C3638 0.931 . S
C3623 H3611 0.929 . S
C3623 C3617 1.390 . S
C3623 C3620 1.386 . S
C3624 C3619 1.490 . S
C3624 C3626 1.395 . S
C3624 C3627 1.403 . S
H3625 C3631 0.930 . S
C3626 H3612 0.930 . S
C3626 C3624 1.395 . S
C3626 C3629 1.403 . S
C3627 C3624 1.403 . S
C3627 C3628 1.524 . S
C3627 C3631 1.400 . S
C3628 H3613 0.960 . S
C3628 H3614 0.960 . S
C3628 H3615 0.960 . S
C3628 C3627 1.524 . S
C3629 C3626 1.403 . S
C3629 C3630 1.392 . S
C3629 C3633 1.495 . S
C3630 C3629 1.392 . S
C3630 C3631 1.385 . S
C3630 C3632 1.478 . S
C3631 H3625 0.930 . S
C3631 C3627 1.400 . S
C3631 C3630 1.385 . S
C3632 C3630 1.478 . S
C3632 C3634 1.381 . S
C3632 C3638 1.383 . S
C3633 C3629 1.495 . S
C3633 H3639 0.959 . S
C3633 H3640 0.961 1_655 S
C3633 H3641 0.960 . S
C3634 C3632 1.381 . S
C3634 C3635 1.394 . S
C3634 H3642 0.930 . S
C3635 C3634 1.394 . S
C3635 C3636 1.383 . S
C3635 H3643 0.929 . S
C3636 C3635 1.383 . S
C3636 C3637 1.377 . S
C3637 H3621 0.930 . S
C3637 C3636 1.377 . S
C3637 C3638 1.379 . S
C3638 H3622 0.931 . S
C3638 C3632 1.383 . S
C3638 C3637 1.379 . S
H3639 C3633 0.959 . S
H3640 C3633 0.961 1_455 S
H3641 C3633 0.960 . S
H3642 C3634 0.930 . S
H3643 C3635 0.929 . S
H3644 C3652 0.929 . S
H3645 C3654 0.930 . S
H3646 C3656 0.930 . S
H3647 C3659 0.929 . S
H3648 C3662 0.930 . S
H3649 C3664 0.960 . S
H3650 C3664 0.960 . S
H3651 C3664 0.960 . S
C3652 H3644 0.929 . S
C3652 C3653 1.377 . S
C3652 C3654 1.384 . S
C3653 C3652 1.377 . S
C3653 C3659 1.390 . S
C3654 H3645 0.930 . S
C3654 C3652 1.384 . S
C3654 C3655 1.372 . S
C3655 C3654 1.372 . S
C3655 C3656 1.400 . S
C3655 C3660 1.490 . S
C3656 H3646 0.930 . S
C3656 C3655 1.400 . S
C3656 C3659 1.386 . S
H3657 C3673 0.930 . S
H3658 C3674 0.931 . S
C3659 H3647 0.929 . S
C3659 C3653 1.390 . S
C3659 C3656 1.386 . S
C3660 C3655 1.490 . S
C3660 C3662 1.395 . S
C3660 C3663 1.403 . S
H3661 C3667 0.930 . S
C3662 H3648 0.930 . S
C3662 C3660 1.395 . S
C3662 C3665 1.403 . S
C3663 C3660 1.403 . S
C3663 C3664 1.524 . S
C3663 C3667 1.400 . S
C3664 H3649 0.960 . S
C3664 H3650 0.960 . S
C3664 H3651 0.960 . S
C3664 C3663 1.524 . S
C3665 C3662 1.403 . S
C3665 C3666 1.392 . S
C3665 C3669 1.495 . S
C3666 C3665 1.392 . S
C3666 C3667 1.385 . S
C3666 C3668 1.478 . S
C3667 H3661 0.930 . S
C3667 C3663 1.400 . S
C3667 C3666 1.385 . S
C3668 C3666 1.478 . S
C3668 C3670 1.381 . S
C3668 C3674 1.383 . S
C3669 C3665 1.495 . S
C3669 H3675 0.959 . S
C3669 H3676 0.961 . S
C3669 H3677 0.960 . S
C3670 C3668 1.381 . S
C3670 C3671 1.394 . S
C3670 H3678 0.930 . S
C3671 C3670 1.394 . S
C3671 C3672 1.383 . S
C3671 H3679 0.929 . S
C3672 C3671 1.383 . S
C3672 C3673 1.377 . S
C3673 H3657 0.930 . S
C3673 C3672 1.377 . S
C3673 C3674 1.379 . S
C3674 H3658 0.931 . S
C3674 C3668 1.383 . S
C3674 C3673 1.379 . S
H3675 C3669 0.959 . S
H3676 C3669 0.961 . S
H3677 C3669 0.960 . S
H3678 C3670 0.930 . S
H3679 C3671 0.929 . S
H3680 C3688 0.929 . S
H3681 C3690 0.930 . S
H3682 C3692 0.930 . S
H3683 C3695 0.929 . S
H3684 C3698 0.930 . S
H3685 C3700 0.960 . S
H3686 C3700 0.960 . S
H3687 C3700 0.960 . S
C3688 H3680 0.929 . S
C3688 C3689 1.377 . S
C3688 C3690 1.384 . S
C3689 C3688 1.377 . S
C3689 C3695 1.390 . S
C3690 H3681 0.930 . S
C3690 C3688 1.384 . S
C3690 C3691 1.372 . S
C3691 C3690 1.372 . S
C3691 C3692 1.400 . S
C3691 C3696 1.490 . S
C3692 H3682 0.930 . S
C3692 C3691 1.400 . S
C3692 C3695 1.386 . S
H3693 C3709 0.930 . S
H3694 C3710 0.931 . S
C3695 H3683 0.929 . S
C3695 C3689 1.390 . S
C3695 C3692 1.386 . S
C3696 C3691 1.490 . S
C3696 C3698 1.395 . S
C3696 C3699 1.403 . S
H3697 C3703 0.930 . S
C3698 H3684 0.930 . S
C3698 C3696 1.395 . S
C3698 C3701 1.403 . S
C3699 C3696 1.403 . S
C3699 C3700 1.524 . S
C3699 C3703 1.400 . S
C3700 H3685 0.960 . S
C3700 H3686 0.960 . S
C3700 H3687 0.960 . S
C3700 C3699 1.524 . S
C3701 C3698 1.403 . S
C3701 C3702 1.392 . S
C3701 C3705 1.495 . S
C3702 C3701 1.392 . S
C3702 C3703 1.385 . S
C3702 C3704 1.478 . S
C3703 H3697 0.930 . S
C3703 C3699 1.400 . S
C3703 C3702 1.385 . S
C3704 C3702 1.478 . S
C3704 C3706 1.381 . S
C3704 C3710 1.383 . S
C3705 C3701 1.495 . S
C3705 H3711 0.959 . S
C3705 H3712 0.961 . S
C3705 H3713 0.960 . S
C3706 C3704 1.381 . S
C3706 C3707 1.394 . S
C3706 H3714 0.930 . S
C3707 C3706 1.394 . S
C3707 C3708 1.383 . S
C3707 H3715 0.929 . S
C3708 C3707 1.383 . S
C3708 C3709 1.377 . S
C3709 H3693 0.930 . S
C3709 C3708 1.377 . S
C3709 C3710 1.379 . S
C3710 H3694 0.931 . S
C3710 C3704 1.383 . S
C3710 C3709 1.379 . S
H3711 C3705 0.959 . S
H3712 C3705 0.961 . S
H3713 C3705 0.960 . S
H3714 C3706 0.930 . S
H3715 C3707 0.929 . S
H3716 C3724 0.929 . S
H3717 C3726 0.930 . S
H3718 C3728 0.930 . S
H3719 C3731 0.929 . S
H3720 C3734 0.930 . S
H3721 C3736 0.960 . S
H3722 C3736 0.960 . S
H3723 C3736 0.960 . S
C3724 H3716 0.929 . S
C3724 C3725 1.377 . S
C3724 C3726 1.384 . S
C3725 C3724 1.377 . S
C3725 C3731 1.390 . S
C3726 H3717 0.930 . S
C3726 C3724 1.384 . S
C3726 C3727 1.372 . S
C3727 C3726 1.372 . S
C3727 C3728 1.400 . S
C3727 C3732 1.490 . S
C3728 H3718 0.930 . S
C3728 C3727 1.400 . S
C3728 C3731 1.386 . S
H3729 C3745 0.930 . S
H3730 C3746 0.931 . S
C3731 H3719 0.929 . S
C3731 C3725 1.390 . S
C3731 C3728 1.386 . S
C3732 C3727 1.490 . S
C3732 C3734 1.395 . S
C3732 C3735 1.403 . S
H3733 C3739 0.930 . S
C3734 H3720 0.930 . S
C3734 C3732 1.395 . S
C3734 C3737 1.403 . S
C3735 C3732 1.403 . S
C3735 C3736 1.524 . S
C3735 C3739 1.400 . S
C3736 H3721 0.960 . S
C3736 H3722 0.960 . S
C3736 H3723 0.960 . S
C3736 C3735 1.524 . S
C3737 C3734 1.403 . S
C3737 C3738 1.392 . S
C3737 C3741 1.495 . S
C3738 C3737 1.392 . S
C3738 C3739 1.385 . S
C3738 C3740 1.478 . S
C3739 H3733 0.930 . S
C3739 C3735 1.400 . S
C3739 C3738 1.385 . S
C3740 C3738 1.478 . S
C3740 C3742 1.381 . S
C3740 C3746 1.383 . S
C3741 C3737 1.495 . S
C3741 H3747 0.959 . S
C3741 H3748 0.961 . S
C3741 H3749 0.960 . S
C3742 C3740 1.381 . S
C3742 C3743 1.394 . S
C3742 H3750 0.930 . S
C3743 C3742 1.394 . S
C3743 C3744 1.383 . S
C3743 H3751 0.929 . S
C3744 C3743 1.383 . S
C3744 C3745 1.377 . S
C3745 H3729 0.930 . S
C3745 C3744 1.377 . S
C3745 C3746 1.379 . S
C3746 H3730 0.931 . S
C3746 C3740 1.383 . S
C3746 C3745 1.379 . S
H3747 C3741 0.959 . S
H3748 C3741 0.961 . S
H3749 C3741 0.960 . S
H3750 C3742 0.930 . S
H3751 C3743 0.929 . S
H3752 C3760 0.929 . S
H3753 C3762 0.930 . S
H3754 C3764 0.930 . S
H3755 C3767 0.929 . S
H3756 C3770 0.930 . S
H3757 C3772 0.960 . S
H3758 C3772 0.960 . S
H3759 C3772 0.960 . S
C3760 H3752 0.929 . S
C3760 C3761 1.377 . S
C3760 C3762 1.384 . S
C3761 C3760 1.377 . S
C3761 C3767 1.390 . S
C3762 H3753 0.930 . S
C3762 C3760 1.384 . S
C3762 C3763 1.372 . S
C3763 C3762 1.372 . S
C3763 C3764 1.400 . S
C3763 C3768 1.490 . S
C3764 H3754 0.930 . S
C3764 C3763 1.400 . S
C3764 C3767 1.386 . S
H3765 C3781 0.930 . S
H3766 C3782 0.931 . S
C3767 H3755 0.929 . S
C3767 C3761 1.390 . S
C3767 C3764 1.386 . S
C3768 C3763 1.490 . S
C3768 C3770 1.395 . S
C3768 C3771 1.403 . S
H3769 C3775 0.930 . S
C3770 H3756 0.930 . S
C3770 C3768 1.395 . S
C3770 C3773 1.403 . S
C3771 C3768 1.403 . S
C3771 C3772 1.524 . S
C3771 C3775 1.400 . S
C3772 H3757 0.960 . S
C3772 H3758 0.960 . S
C3772 H3759 0.960 . S
C3772 C3771 1.524 . S
C3773 C3770 1.403 . S
C3773 C3774 1.392 . S
C3773 C3777 1.495 . S
C3774 C3773 1.392 . S
C3774 C3775 1.385 . S
C3774 C3776 1.478 . S
C3775 H3769 0.930 . S
C3775 C3771 1.400 . S
C3775 C3774 1.385 . S
C3776 C3774 1.478 . S
C3776 C3778 1.381 . S
C3776 C3782 1.383 . S
C3777 C3773 1.495 . S
C3777 H3783 0.959 . S
C3777 H3784 0.961 . S
C3777 H3785 0.960 . S
C3778 C3776 1.381 . S
C3778 C3779 1.394 . S
C3778 H3786 0.930 . S
C3779 C3778 1.394 . S
C3779 C3780 1.383 . S
C3779 H3787 0.929 . S
C3780 C3779 1.383 . S
C3780 C3781 1.377 . S
C3781 H3765 0.930 . S
C3781 C3780 1.377 . S
C3781 C3782 1.379 . S
C3782 H3766 0.931 . S
C3782 C3776 1.383 . S
C3782 C3781 1.379 . S
H3783 C3777 0.959 . S
H3784 C3777 0.961 . S
H3785 C3777 0.960 . S
H3786 C3778 0.930 . S
H3787 C3779 0.929 . S
H3788 C3796 0.929 . S
H3789 C3798 0.930 . S
H3790 C3800 0.930 . S
H3791 C3803 0.929 . S
H3792 C3806 0.930 . S
H3793 C3808 0.960 . S
H3794 C3808 0.960 . S
H3795 C3808 0.960 . S
C3796 H3788 0.929 . S
C3796 C3797 1.377 . S
C3796 C3798 1.384 . S
C3797 C3796 1.377 . S
C3797 C3803 1.390 . S
C3798 H3789 0.930 . S
C3798 C3796 1.384 . S
C3798 C3799 1.372 . S
C3799 C3798 1.372 . S
C3799 C3800 1.400 . S
C3799 C3804 1.490 . S
C3800 H3790 0.930 . S
C3800 C3799 1.400 . S
C3800 C3803 1.386 . S
H3801 C3817 0.930 . S
H3802 C3818 0.931 . S
C3803 H3791 0.929 . S
C3803 C3797 1.390 . S
C3803 C3800 1.386 . S
C3804 C3799 1.490 . S
C3804 C3806 1.395 . S
C3804 C3807 1.403 . S
H3805 C3811 0.930 . S
C3806 H3792 0.930 . S
C3806 C3804 1.395 . S
C3806 C3809 1.403 . S
C3807 C3804 1.403 . S
C3807 C3808 1.524 . S
C3807 C3811 1.400 . S
C3808 H3793 0.960 . S
C3808 H3794 0.960 . S
C3808 H3795 0.960 . S
C3808 C3807 1.524 . S
C3809 C3806 1.403 . S
C3809 C3810 1.392 . S
C3809 C3813 1.495 . S
C3810 C3809 1.392 . S
C3810 C3811 1.385 . S
C3810 C3812 1.478 . S
C3811 H3805 0.930 . S
C3811 C3807 1.400 . S
C3811 C3810 1.385 . S
C3812 C3810 1.478 . S
C3812 C3814 1.381 . S
C3812 C3818 1.383 . S
C3813 C3809 1.495 . S
C3813 H3819 0.959 . S
C3813 H3820 0.961 . S
C3813 H3821 0.960 . S
C3814 C3812 1.381 . S
C3814 C3815 1.394 . S
C3814 H3822 0.930 . S
C3815 C3814 1.394 . S
C3815 C3816 1.383 . S
C3815 H3823 0.929 . S
C3816 C3815 1.383 . S
C3816 C3817 1.377 . S
C3817 H3801 0.930 . S
C3817 C3816 1.377 . S
C3817 C3818 1.379 . S
C3818 H3802 0.931 . S
C3818 C3812 1.383 . S
C3818 C3817 1.379 . S
H3819 C3813 0.959 . S
H3820 C3813 0.961 . S
H3821 C3813 0.960 . S
H3822 C3814 0.930 . S
H3823 C3815 0.929 . S
H3824 C3832 0.929 . S
H3825 C3834 0.930 . S
H3826 C3836 0.930 . S
H3827 C3839 0.929 . S
H3828 C3842 0.930 . S
H3829 C3844 0.960 . S
H3830 C3844 0.960 . S
H3831 C3844 0.960 . S
C3832 H3824 0.929 . S
C3832 C3833 1.377 . S
C3832 C3834 1.384 . S
C3833 C3832 1.377 . S
C3833 C3839 1.390 . S
C3834 H3825 0.930 . S
C3834 C3832 1.384 . S
C3834 C3835 1.372 . S
C3835 C3834 1.372 . S
C3835 C3836 1.400 . S
C3835 C3840 1.490 . S
C3836 H3826 0.930 . S
C3836 C3835 1.400 . S
C3836 C3839 1.386 . S
H3837 C3853 0.930 . S
H3838 C3854 0.931 . S
C3839 H3827 0.929 . S
C3839 C3833 1.390 . S
C3839 C3836 1.386 . S
C3840 C3835 1.490 . S
C3840 C3842 1.395 . S
C3840 C3843 1.403 . S
H3841 C3847 0.930 . S
C3842 H3828 0.930 . S
C3842 C3840 1.395 . S
C3842 C3845 1.403 . S
C3843 C3840 1.403 . S
C3843 C3844 1.524 . S
C3843 C3847 1.400 . S
C3844 H3829 0.960 . S
C3844 H3830 0.960 . S
C3844 H3831 0.960 . S
C3844 C3843 1.524 . S
C3845 C3842 1.403 . S
C3845 C3846 1.392 . S
C3845 C3849 1.495 . S
C3846 C3845 1.392 . S
C3846 C3847 1.385 . S
C3846 C3848 1.478 . S
C3847 H3841 0.930 . S
C3847 C3843 1.400 . S
C3847 C3846 1.385 . S
C3848 C3846 1.478 . S
C3848 C3850 1.381 . S
C3848 C3854 1.383 . S
C3849 C3845 1.495 . S
C3849 H3855 0.959 . S
C3849 H3856 0.961 . S
C3849 H3857 0.960 . S
C3850 C3848 1.381 . S
C3850 C3851 1.394 . S
C3850 H3858 0.930 . S
C3851 C3850 1.394 . S
C3851 C3852 1.383 . S
C3851 H3859 0.929 . S
C3852 C3851 1.383 . S
C3852 C3853 1.377 . S
C3853 H3837 0.930 . S
C3853 C3852 1.377 . S
C3853 C3854 1.379 . S
C3854 H3838 0.931 . S
C3854 C3848 1.383 . S
C3854 C3853 1.379 . S
H3855 C3849 0.959 . S
H3856 C3849 0.961 . S
H3857 C3849 0.960 . S
H3858 C3850 0.930 . S
H3859 C3851 0.929 . S
H3860 C3868 0.929 . S
H3861 C3870 0.930 . S
H3862 C3872 0.930 . S
H3863 C3875 0.929 . S
H3864 C3878 0.930 . S
H3865 C3880 0.960 . S
H3866 C3880 0.960 . S
H3867 C3880 0.960 . S
C3868 H3860 0.929 . S
C3868 C3869 1.377 . S
C3868 C3870 1.384 . S
C3869 C3868 1.377 . S
C3869 C3875 1.390 . S
C3870 H3861 0.930 . S
C3870 C3868 1.384 . S
C3870 C3871 1.372 . S
C3871 C3870 1.372 . S
C3871 C3872 1.400 . S
C3871 C3876 1.490 . S
C3872 H3862 0.930 . S
C3872 C3871 1.400 . S
C3872 C3875 1.386 . S
H3873 C3889 0.930 . S
H3874 C3890 0.931 . S
C3875 H3863 0.929 . S
C3875 C3869 1.390 . S
C3875 C3872 1.386 . S
C3876 C3871 1.490 . S
C3876 C3878 1.395 . S
C3876 C3879 1.403 . S
H3877 C3883 0.930 . S
C3878 H3864 0.930 . S
C3878 C3876 1.395 . S
C3878 C3881 1.403 . S
C3879 C3876 1.403 . S
C3879 C3880 1.524 . S
C3879 C3883 1.400 . S
C3880 H3865 0.960 . S
C3880 H3866 0.960 . S
C3880 H3867 0.960 . S
C3880 C3879 1.524 . S
C3881 C3878 1.403 . S
C3881 C3882 1.392 . S
C3881 C3885 1.495 . S
C3882 C3881 1.392 . S
C3882 C3883 1.385 . S
C3882 C3884 1.478 . S
C3883 H3877 0.930 . S
C3883 C3879 1.400 . S
C3883 C3882 1.385 . S
C3884 C3882 1.478 . S
C3884 C3886 1.381 . S
C3884 C3890 1.383 . S
C3885 C3881 1.495 . S
C3885 H3891 0.942 1_565 S
C3885 H3892 0.963 1_565 S
C3885 H3893 0.960 1_565 S
C3886 C3884 1.381 . S
C3886 C3887 1.394 1_565 S
C3886 H3894 0.935 . S
C3887 C3886 1.394 1_545 S
C3887 C3888 1.383 . S
C3887 H3895 0.929 . S
C3888 C3887 1.383 . S
C3888 C3889 1.377 1_545 S
C3889 H3873 0.930 . S
C3889 C3888 1.377 1_565 S
C3889 C3890 1.379 . S
C3890 H3874 0.931 . S
C3890 C3884 1.383 . S
C3890 C3889 1.379 . S
H3891 C3885 0.942 1_545 S
H3892 C3885 0.963 1_545 S
H3893 C3885 0.960 1_545 S
H3894 C3886 0.935 . S
H3895 C3887 0.929 . S
H3896 C3904 0.929 . S
H3897 C3906 0.930 . S
H3898 C3908 0.930 . S
H3899 C3911 0.929 . S
H3900 C3914 0.930 . S
H3901 C3916 0.960 . S
H3902 C3916 0.960 . S
H3903 C3916 0.960 . S
C3904 H3896 0.929 . S
C3904 C3905 1.377 . S
C3904 C3906 1.384 . S
C3905 C3904 1.377 . S
C3905 C3911 1.390 . S
C3906 H3897 0.930 . S
C3906 C3904 1.384 . S
C3906 C3907 1.372 . S
C3907 C3906 1.372 . S
C3907 C3908 1.400 . S
C3907 C3912 1.490 . S
C3908 H3898 0.930 . S
C3908 C3907 1.400 . S
C3908 C3911 1.386 . S
H3909 C3925 0.930 . S
H3910 C3926 0.931 . S
C3911 H3899 0.929 . S
C3911 C3905 1.390 . S
C3911 C3908 1.386 . S
C3912 C3907 1.490 . S
C3912 C3914 1.395 . S
C3912 C3915 1.403 . S
H3913 C3919 0.930 . S
C3914 H3900 0.930 . S
C3914 C3912 1.395 . S
C3914 C3917 1.403 . S
C3915 C3912 1.403 . S
C3915 C3916 1.524 . S
C3915 C3919 1.400 . S
C3916 H3901 0.960 . S
C3916 H3902 0.960 . S
C3916 H3903 0.960 . S
C3916 C3915 1.524 . S
C3917 C3914 1.403 . S
C3917 C3918 1.392 . S
C3917 C3921 1.495 . S
C3918 C3917 1.392 . S
C3918 C3919 1.385 . S
C3918 C3920 1.478 . S
C3919 H3913 0.930 . S
C3919 C3915 1.400 . S
C3919 C3918 1.385 . S
C3920 C3918 1.478 . S
C3920 C3922 1.381 . S
C3920 C3926 1.383 . S
C3921 C3917 1.495 . S
C3921 H3927 0.959 . S
C3921 H3928 0.961 . S
C3921 H3929 0.960 . S
C3922 C3920 1.381 . S
C3922 C3923 1.394 . S
C3922 H3930 0.930 . S
C3923 C3922 1.394 . S
C3923 C3924 1.383 . S
C3923 H3931 0.929 . S
C3924 C3923 1.383 . S
C3924 C3925 1.377 . S
C3925 H3909 0.930 . S
C3925 C3924 1.377 . S
C3925 C3926 1.379 . S
C3926 H3910 0.931 . S
C3926 C3920 1.383 . S
C3926 C3925 1.379 . S
H3927 C3921 0.959 . S
H3928 C3921 0.961 . S
H3929 C3921 0.960 . S
H3930 C3922 0.930 . S
H3931 C3923 0.929 . S
H3932 C3940 0.929 . S
H3933 C3942 0.930 . S
H3934 C3944 0.936 . S
H3935 C3947 0.932 . S
H3936 C3950 0.930 . S
H3937 C3952 0.960 . S
H3938 C3952 0.960 . S
H3939 C3952 0.960 . S
C3940 H3932 0.929 . S
C3940 C3941 1.377 . S
C3940 C3942 1.384 . S
C3941 C3940 1.377 . S
C3941 C3947 1.390 . S
C3942 H3933 0.930 . S
C3942 C3940 1.384 . S
C3942 C3943 1.372 1_556 S
C3943 C3942 1.372 1_554 S
C3943 C3944 1.399 . S
C3943 C3948 1.490 . S
C3944 H3934 0.936 . S
C3944 C3943 1.399 . S
C3944 C3947 1.381 1_554 S
H3945 C3961 0.930 . S
H3946 C3962 0.940 . S
C3947 H3935 0.932 . S
C3947 C3941 1.390 . S
C3947 C3944 1.381 1_556 S
C3948 C3943 1.490 . S
C3948 C3950 1.395 1_554 S
C3948 C3951 1.403 . S
H3949 C3955 0.930 . S
C3950 H3936 0.930 . S
C3950 C3948 1.395 1_556 S
C3950 C3953 1.403 . S
C3951 C3948 1.403 . S
C3951 C3952 1.524 . S
C3951 C3955 1.400 . S
C3952 H3937 0.960 . S
C3952 H3938 0.960 . S
C3952 H3939 0.960 . S
C3952 C3951 1.524 . S
C3953 C3950 1.403 . S
C3953 C3954 1.392 1_556 S
C3953 C3957 1.495 . S
C3954 C3953 1.392 1_554 S
C3954 C3955 1.385 . S
C3954 C3956 1.478 . S
C3955 H3949 0.930 . S
C3955 C3951 1.400 . S
C3955 C3954 1.385 . S
C3956 C3954 1.478 . S
C3956 C3958 1.381 . S
C3956 C3962 1.383 . S
C3957 C3953 1.495 . S
C3957 H3963 0.959 . S
C3957 H3964 0.961 . S
C3957 H3965 0.960 . S
C3958 C3956 1.381 . S
C3958 C3959 1.394 . S
C3958 H3966 0.930 . S
C3959 C3958 1.394 . S
C3959 C3960 1.383 . S
C3959 H3967 0.929 . S
C3960 C3959 1.383 . S
C3960 C3961 1.377 . S
C3961 H3945 0.930 . S
C3961 C3960 1.377 . S
C3961 C3962 1.379 . S
C3962 H3946 0.940 . S
C3962 C3956 1.383 . S
C3962 C3961 1.379 . S
H3963 C3957 0.959 . S
H3964 C3957 0.961 . S
H3965 C3957 0.960 . S
H3966 C3958 0.930 . S
H3967 C3959 0.929 . S
H3968 C3976 0.929 . S
H3969 C3978 0.930 . S
H3970 C3980 0.930 . S
H3971 C3983 0.929 . S
H3972 C3986 0.930 . S
H3973 C3988 0.960 . S
H3974 C3988 0.960 . S
H3975 C3988 0.960 . S
C3976 H3968 0.929 . S
C3976 C3977 1.377 . S
C3976 C3978 1.384 . S
C3977 C3976 1.377 . S
C3977 C3983 1.390 . S
C3978 H3969 0.930 . S
C3978 C3976 1.384 . S
C3978 C3979 1.372 . S
C3979 C3978 1.372 . S
C3979 C3980 1.400 . S
C3979 C3984 1.490 . S
C3980 H3970 0.930 . S
C3980 C3979 1.400 . S
C3980 C3983 1.386 . S
H3981 C3997 0.930 . S
H3982 C3998 0.931 . S
C3983 H3971 0.929 . S
C3983 C3977 1.390 . S
C3983 C3980 1.386 . S
C3984 C3979 1.490 . S
C3984 C3986 1.395 . S
C3984 C3987 1.403 . S
H3985 C3991 0.930 . S
C3986 H3972 0.930 . S
C3986 C3984 1.395 . S
C3986 C3989 1.403 . S
C3987 C3984 1.403 . S
C3987 C3988 1.524 . S
C3987 C3991 1.400 . S
C3988 H3973 0.960 . S
C3988 H3974 0.960 . S
C3988 H3975 0.960 . S
C3988 C3987 1.524 . S
C3989 C3986 1.403 . S
C3989 C3990 1.392 . S
C3989 C3993 1.495 . S
C3990 C3989 1.392 . S
C3990 C3991 1.385 . S
C3990 C3992 1.478 . S
C3991 H3985 0.930 . S
C3991 C3987 1.400 . S
C3991 C3990 1.385 . S
C3992 C3990 1.478 . S
C3992 C3994 1.381 . S
C3992 C3998 1.383 . S
C3993 C3989 1.495 . S
C3993 H3999 0.959 . S
C3993 H4000 0.961 . S
C3993 H4001 0.960 . S
C3994 C3992 1.381 . S
C3994 C3995 1.394 . S
C3994 H4002 0.930 . S
C3995 C3994 1.394 . S
C3995 C3996 1.383 . S
C3995 H4003 0.929 . S
C3996 C3995 1.383 . S
C3996 C3997 1.377 . S
C3997 H3981 0.930 . S
C3997 C3996 1.377 . S
C3997 C3998 1.379 . S
C3998 H3982 0.931 . S
C3998 C3992 1.383 . S
C3998 C3997 1.379 . S
H3999 C3993 0.959 . S
H4000 C3993 0.961 . S
H4001 C3993 0.960 . S
H4002 C3994 0.930 . S
H4003 C3995 0.929 . S
H4004 C4012 0.929 . S
H4005 C4014 0.930 . S
H4006 C4016 0.930 . S
H4007 C4019 0.929 . S
H4008 C4022 0.930 . S
H4009 C4024 0.960 . S
H4010 C4024 0.960 1_556 S
H4011 C4024 0.960 . S
C4012 H4004 0.929 . S
C4012 C4013 1.377 1_556 S
C4012 C4014 1.384 . S
C4013 C4012 1.377 1_554 S
C4013 C4019 1.390 . S
C4014 H4005 0.930 . S
C4014 C4012 1.384 . S
C4014 C4015 1.372 1_556 S
C4015 C4014 1.372 1_554 S
C4015 C4016 1.400 . S
C4015 C4020 1.490 . S
C4016 H4006 0.930 . S
C4016 C4015 1.400 . S
C4016 C4019 1.386 . S
H4017 C4033 0.930 . S
H4018 C4034 0.931 . S
C4019 H4007 0.929 . S
C4019 C4013 1.390 . S
C4019 C4016 1.386 . S
C4020 C4015 1.490 . S
C4020 C4022 1.395 . S
C4020 C4023 1.403 . S
H4021 C4027 0.930 . S
C4022 H4008 0.930 . S
C4022 C4020 1.395 . S
C4022 C4025 1.403 . S
C4023 C4020 1.403 . S
C4023 C4024 1.524 . S
C4023 C4027 1.400 . S
C4024 H4009 0.960 . S
C4024 H4010 0.960 1_554 S
C4024 H4011 0.960 . S
C4024 C4023 1.524 . S
C4025 C4022 1.403 . S
C4025 C4026 1.392 . S
C4025 C4029 1.495 1_554 S
C4026 C4025 1.392 . S
C4026 C4027 1.385 . S
C4026 C4028 1.478 . S
C4027 H4021 0.930 . S
C4027 C4023 1.400 . S
C4027 C4026 1.385 . S
C4028 C4026 1.478 . S
C4028 C4030 1.381 1_554 S
C4028 C4034 1.383 . S
C4029 C4025 1.495 1_556 S
C4029 H4035 0.959 . S
C4029 H4036 0.961 1_556 S
C4029 H4037 0.960 . S
C4030 C4028 1.381 1_556 S
C4030 C4031 1.394 . S
C4030 H4038 0.930 . S
C4031 C4030 1.394 . S
C4031 C4032 1.383 . S
C4031 H4039 0.929 . S
C4032 C4031 1.383 . S
C4032 C4033 1.377 1_556 S
C4033 H4017 0.930 . S
C4033 C4032 1.377 1_554 S
C4033 C4034 1.379 . S
C4034 H4018 0.931 . S
C4034 C4028 1.383 . S
C4034 C4033 1.379 . S
H4035 C4029 0.959 . S
H4036 C4029 0.961 1_554 S
H4037 C4029 0.960 . S
H4038 C4030 0.930 . S
H4039 C4031 0.929 . S
H4040 C4048 0.929 . S
H4041 C4050 0.930 . S
H4042 C4052 0.930 . S
H4043 C4055 0.929 . S
H4044 C4058 0.930 . S
H4045 C4060 0.960 . S
H4046 C4060 0.960 . S
H4047 C4060 0.960 . S
C4048 H4040 0.929 . S
C4048 C4049 1.377 . S
C4048 C4050 1.384 . S
C4049 C4048 1.377 . S
C4049 C4055 1.390 . S
C4050 H4041 0.930 . S
C4050 C4048 1.384 . S
C4050 C4051 1.372 . S
C4051 C4050 1.372 . S
C4051 C4052 1.400 . S
C4051 C4056 1.490 . S
C4052 H4042 0.930 . S
C4052 C4051 1.400 . S
C4052 C4055 1.386 . S
H4053 C4069 0.930 . S
H4054 C4070 0.931 . S
C4055 H4043 0.929 . S
C4055 C4049 1.390 . S
C4055 C4052 1.386 . S
C4056 C4051 1.490 . S
C4056 C4058 1.395 . S
C4056 C4059 1.403 . S
H4057 C4063 0.930 . S
C4058 H4044 0.930 . S
C4058 C4056 1.395 . S
C4058 C4061 1.403 . S
C4059 C4056 1.403 . S
C4059 C4060 1.524 . S
C4059 C4063 1.400 . S
C4060 H4045 0.960 . S
C4060 H4046 0.960 . S
C4060 H4047 0.960 . S
C4060 C4059 1.524 . S
C4061 C4058 1.403 . S
C4061 C4062 1.392 . S
C4061 C4065 1.495 . S
C4062 C4061 1.392 . S
C4062 C4063 1.385 . S
C4062 C4064 1.478 . S
C4063 H4057 0.930 . S
C4063 C4059 1.400 . S
C4063 C4062 1.385 . S
C4064 C4062 1.478 . S
C4064 C4066 1.381 . S
C4064 C4070 1.383 . S
C4065 C4061 1.495 . S
C4065 H4071 0.959 . S
C4065 H4072 0.961 . S
C4065 H4073 0.960 . S
C4066 C4064 1.381 . S
C4066 C4067 1.394 . S
C4066 H4074 0.930 . S
C4067 C4066 1.394 . S
C4067 C4068 1.383 . S
C4067 H4075 0.929 . S
C4068 C4067 1.383 . S
C4068 C4069 1.377 . S
C4069 H4053 0.930 . S
C4069 C4068 1.377 . S
C4069 C4070 1.379 . S
C4070 H4054 0.931 . S
C4070 C4064 1.383 . S
C4070 C4069 1.379 . S
H4071 C4065 0.959 . S
H4072 C4065 0.961 . S
H4073 C4065 0.960 . S
H4074 C4066 0.930 . S
H4075 C4067 0.929 . S
H4076 C4084 0.929 . S
H4077 C4086 0.930 . S
H4078 C4088 0.930 . S
H4079 C4091 0.929 . S
H4080 C4094 0.930 . S
H4081 C4096 0.960 . S
H4082 C4096 0.960 . S
H4083 C4096 0.960 . S
C4084 H4076 0.929 . S
C4084 C4085 1.377 . S
C4084 C4086 1.384 . S
C4085 C4084 1.377 . S
C4085 C4091 1.390 . S
C4086 H4077 0.930 . S
C4086 C4084 1.384 . S
C4086 C4087 1.372 . S
C4087 C4086 1.372 . S
C4087 C4088 1.400 . S
C4087 C4092 1.490 . S
C4088 H4078 0.930 . S
C4088 C4087 1.400 . S
C4088 C4091 1.386 . S
H4089 C4105 0.930 . S
H4090 C4106 0.931 . S
C4091 H4079 0.929 . S
C4091 C4085 1.390 . S
C4091 C4088 1.386 . S
C4092 C4087 1.490 . S
C4092 C4094 1.395 . S
C4092 C4095 1.403 . S
H4093 C4099 0.930 . S
C4094 H4080 0.930 . S
C4094 C4092 1.395 . S
C4094 C4097 1.403 . S
C4095 C4092 1.403 . S
C4095 C4096 1.524 . S
C4095 C4099 1.400 . S
C4096 H4081 0.960 . S
C4096 H4082 0.960 . S
C4096 H4083 0.960 . S
C4096 C4095 1.524 . S
C4097 C4094 1.403 . S
C4097 C4098 1.392 . S
C4097 C4101 1.495 . S
C4098 C4097 1.392 . S
C4098 C4099 1.385 . S
C4098 C4100 1.478 . S
C4099 H4093 0.930 . S
C4099 C4095 1.400 . S
C4099 C4098 1.385 . S
C4100 C4098 1.478 . S
C4100 C4102 1.381 . S
C4100 C4106 1.383 . S
C4101 C4097 1.495 . S
C4101 H4107 0.959 . S
C4101 H4108 0.961 . S
C4101 H4109 0.960 . S
C4102 C4100 1.381 . S
C4102 C4103 1.394 . S
C4102 H4110 0.930 . S
C4103 C4102 1.394 . S
C4103 C4104 1.383 . S
C4103 H4111 0.929 . S
C4104 C4103 1.383 . S
C4104 C4105 1.377 . S
C4105 H4089 0.930 . S
C4105 C4104 1.377 . S
C4105 C4106 1.379 . S
C4106 H4090 0.931 . S
C4106 C4100 1.383 . S
C4106 C4105 1.379 . S
H4107 C4101 0.959 . S
H4108 C4101 0.961 . S
H4109 C4101 0.960 . S
H4110 C4102 0.930 . S
H4111 C4103 0.929 . S
C665 C105 1.530 1_455 S
C684 C354 1.522 . S
C701 C65 1.599 . S
C720 C365 1.585 . S
C737 C73 0.859 . S
C756 C394 0.837 . S
C792 C397 1.436 . S
C773 C92 1.454 . S
C809 C17 1.661 . S
C828 C435 1.586 . S
C864 C438 0.798 . S
C845 C37 0.820 . S
C900 C465 1.436 . S
C881 C49 1.386 . S
C917 C8 1.617 . S
C936 C494 1.548 . S
C972 C345 1.503 1_655 S
C953 C231 1.454 . S
C989 C241 0.703 . S
C1008 C357 0.742 . S
C1044 C385 1.622 . S
C1025 C273 1.576 . S
C1080 C414 0.931 . S
C1061 C171 0.948 . S
C1097 C227 0.837 . S
C1116 C418 0.855 . S
C1152 C444 1.637 . S
C1133 C245 1.607 . S
C1188 C457 0.660 . S
C1169 C269 0.613 . S
C1224 C485 1.541 . S
C1205 C175 1.537 . S
C1260 C337 1.536 1_565 S
C1241 C162 1.540 . S
C1277 C289 1.762 . S
C1296 C504 1.735 . S
C1332 C535 1.488 . S
C1313 C330 1.523 . S
C1368 C554 0.770 . S
C1349 C317 0.820 . S
C1385 C120 1.292 . S
C1404 C477 1.298 . S
C1421 C134 1.441 . S
C1440 C377 1.428 . S
C1457 C331 1.555 . S
C1476 C565 1.556 . S
C1512 C594 0.793 . S
C1493 C303 0.748 . S
C1548 C355 1.532 . S
C1529 C59 1.573 . S
C1584 C584 1.632 . S
C1565 C107 1.634 . S
C1601 C91 0.895 . S
C1620 C395 0.868 . S
C1637 C78 1.488 . S
C1656 C558 1.494 . S
C1692 C434 1.633 . S
C1673 C7 1.662 . S
C1709 C51 0.853 . S
C1728 C517 0.844 . S
C1764 C464 1.463 1_556 S
C1745 C31 1.482 . S
C1800 C615 1.568 . S
C1781 C22 1.644 . S
C1836 C344 1.534 . S
C1817 C143 1.540 . S
C1872 C578 0.736 . S
C1853 C315 0.758 . S
C1889 C115 1.656 . S
C1908 C384 1.634 . S
C1925 C287 0.980 . S
C1944 C575 0.967 . S
C1961 C147 0.868 . S
C1980 C417 0.891 . S
C2016 C525 1.643 . S
C1997 C311 1.684 . S
C2033 C119 0.682 . S
C2052 C458 0.648 . S
C2069 C283 1.600 . S
C2088 C604 1.579 . S
C2105 C190 1.561 1_554 S
C2124 C338 1.550 . S
C2141 C177 1.792 . S
C2160 C505 1.775 . S
C2177 C260 1.545 . S
C2196 C454 1.503 . S
C2213 C247 0.875 . S
C2232 C555 0.894 . S
C2268 C598 1.292 . S
C2249 C274 1.316 . S
C2285 C218 1.463 . S
C2304 C378 1.421 1_565 S
C2340 C404 1.581 . S
C2321 C261 1.595 . S
C2376 C375 0.838 . S
C2357 C205 0.800 . S
C2393 C77 1.523 . S
C2412 C634 1.482 . S
C2448 C585 1.594 . S
C2429 C93 1.600 . S
C2465 C101 0.859 . S
C2484 C654 0.872 . S
C2501 C64 1.454 . S
C2520 C557 1.459 . S
C2537 C45 1.661 . S
C2556 C515 1.580 . S
C2592 C518 0.796 . S
C2573 C9 0.818 . S
C2628 C545 1.430 . S
C2609 C21 1.390 . S
C2664 C614 1.577 . S
C2645 C36 1.618 . S
C2700 C625 1.496 . S
C2681 C259 1.461 . S
C2717 C185 0.701 . S
C2736 C577 0.708 . S
C2772 C645 1.614 . S
C2753 C203 1.580 . S
C2808 C574 0.911 . S
C2789 C213 0.952 . S
C2844 C498 0.846 . S
C2825 C255 0.840 . S
C2861 C189 1.612 . S
C2880 C524 1.609 . S
C2916 C537 0.592 . S
C2897 C199 0.610 . S
C2933 C217 1.536 . S
C2952 C605 1.540 . S
C2988 C617 1.531 . S
C2969 C316 1.539 . S
C3005 C135 1.761 . S
C3024 C424 1.741 . S
C3060 C455 1.497 . S
C3041 C148 1.531 . S
C3096 C474 0.819 . S
C3077 C163 0.812 . S
C3132 C597 1.271 . S
C3113 C302 1.292 . S
C3149 C288 1.440 . S
C3168 C637 1.424 . S
C3204 C405 1.553 . S
C3185 C149 1.548 . S
C3240 C374 0.796 . S
C3221 C121 0.749 . S
C3257 C87 1.572 . S
C3276 C635 1.520 . S
C3312 C364 1.636 . S
C3293 C79 1.635 . S
C3329 C63 0.894 . S
C3348 C655 0.862 . S
C3365 C106 1.488 . S
C3384 C398 1.491 . S
C3401 C35 1.669 . S
C3420 C514 1.640 . S
C3456 C437 0.846 . S
C3437 C23 0.845 . S
C3473 C3 1.482 . S
C3492 C544 1.462 . S
C3509 C50 1.644 . S
C3528 C495 1.569 . S
C3564 C624 1.537 . S
C3545 C325 1.539 . S
C3581 C161 0.739 . S
C3600 C358 0.781 . S
C3636 C644 1.631 1_655 S
C3617 C297 1.656 . S
C3653 C133 0.986 . S
C3672 C415 0.997 . S
C3689 C329 0.871 . S
C3708 C497 0.901 . S
C3744 C445 1.639 . S
C3725 C157 1.684 . S
C3761 C301 0.683 . S
C3780 C538 0.644 . S
C3816 C484 1.596 . S
C3797 C129 1.601 . S
C3852 C618 1.531 . S
C3833 C246 1.563 . S
C3888 C425 1.766 . S
C3869 C219 1.792 . S
C3905 C232 1.540 . S
C3924 C534 1.487 . S
C3960 C475 0.863 . S
C3941 C191 0.870 . S
C3977 C204 1.312 . S
C3996 C478 1.302 . S
C4013 C176 1.457 . S
C4032 C638 1.466 . S
C4068 C564 1.598 . S
C4049 C233 1.598 1_565 S
C4104 C595 0.752 . S
C4085 C275 0.801 . S
