# Generated by pormake.
# Topology myd, (4,6)-cn, num edge types: 1
# Building blocks:
#     Node 0, Type 0, BuildingBlock: KOZSID_clean_sbu_0, # of connection points: 4
#     Node 1, Type 0, BuildingBlock: KOZSID_clean_sbu_0, # of connection points: 4
#     Node 2, Type 0, BuildingBlock: KOZSID_clean_sbu_0, # of connection points: 4
#     Node 3, Type 0, BuildingBlock: KOZSID_clean_sbu_0, # of connection points: 4
#     Node 4, Type 0, BuildingBlock: KOZSID_clean_sbu_0, # of connection points: 4
#     Node 5, Type 0, BuildingBlock: KOZSID_clean_sbu_0, # of connection points: 4
#     Node 6, Type 0, BuildingBlock: KOZSID_clean_sbu_0, # of connection points: 4
#     Node 7, Type 0, BuildingBlock: KOZSID_clean_sbu_0, # of connection points: 4
#     Node 8, Type 0, BuildingBlock: KOZSID_clean_sbu_0, # of connection points: 4
#     Node 9, Type 0, BuildingBlock: KOZSID_clean_sbu_0, # of connection points: 4
#     Node 10, Type 0, BuildingBlock: KOZSID_clean_sbu_0, # of connection points: 4
#     Node 11, Type 0, BuildingBlock: KOZSID_clean_sbu_0, # of connection points: 4
#     Node 12, Type 1, BuildingBlock: JUFBIX_clean_sbu_0, # of connection points: 6
#     Node 13, Type 1, BuildingBlock: JUFBIX_clean_sbu_0, # of connection points: 6
#     Node 14, Type 1, BuildingBlock: JUFBIX_clean_sbu_0, # of connection points: 6
#     Node 15, Type 1, BuildingBlock: JUFBIX_clean_sbu_0, # of connection points: 6
#     Node 16, Type 1, BuildingBlock: JUFBIX_clean_sbu_0, # of connection points: 6
#     Node 17, Type 1, BuildingBlock: JUFBIX_clean_sbu_0, # of connection points: 6
#     Node 18, Type 1, BuildingBlock: JUFBIX_clean_sbu_0, # of connection points: 6
#     Node 19, Type 1, BuildingBlock: JUFBIX_clean_sbu_0, # of connection points: 6
#     Edge 20, Type (0, 1), BuildingBlock: KIFKEQ_clean_linker_1, # of connection points: 2
#     Edge 21, Type (0, 1), BuildingBlock: KIFKEQ_clean_linker_1, # of connection points: 2
#     Edge 22, Type (0, 1), BuildingBlock: KIFKEQ_clean_linker_1, # of connection points: 2
#     Edge 23, Type (0, 1), BuildingBlock: KIFKEQ_clean_linker_1, # of connection points: 2
#     Edge 24, Type (0, 1), BuildingBlock: KIFKEQ_clean_linker_1, # of connection points: 2
#     Edge 25, Type (0, 1), BuildingBlock: KIFKEQ_clean_linker_1, # of connection points: 2
#     Edge 26, Type (0, 1), BuildingBlock: KIFKEQ_clean_linker_1, # of connection points: 2
#     Edge 27, Type (0, 1), BuildingBlock: KIFKEQ_clean_linker_1, # of connection points: 2
#     Edge 28, Type (0, 1), BuildingBlock: KIFKEQ_clean_linker_1, # of connection points: 2
#     Edge 29, Type (0, 1), BuildingBlock: KIFKEQ_clean_linker_1, # of connection points: 2
#     Edge 30, Type (0, 1), BuildingBlock: KIFKEQ_clean_linker_1, # of connection points: 2
#     Edge 31, Type (0, 1), BuildingBlock: KIFKEQ_clean_linker_1, # of connection points: 2
#     Edge 32, Type (0, 1), BuildingBlock: KIFKEQ_clean_linker_1, # of connection points: 2
#     Edge 33, Type (0, 1), BuildingBlock: KIFKEQ_clean_linker_1, # of connection points: 2
#     Edge 34, Type (0, 1), BuildingBlock: KIFKEQ_clean_linker_1, # of connection points: 2
#     Edge 35, Type (0, 1), BuildingBlock: KIFKEQ_clean_linker_1, # of connection points: 2
#     Edge 36, Type (0, 1), BuildingBlock: KIFKEQ_clean_linker_1, # of connection points: 2
#     Edge 37, Type (0, 1), BuildingBlock: KIFKEQ_clean_linker_1, # of connection points: 2
#     Edge 38, Type (0, 1), BuildingBlock: KIFKEQ_clean_linker_1, # of connection points: 2
#     Edge 39, Type (0, 1), BuildingBlock: KIFKEQ_clean_linker_1, # of connection points: 2
#     Edge 40, Type (0, 1), BuildingBlock: KIFKEQ_clean_linker_1, # of connection points: 2
#     Edge 41, Type (0, 1), BuildingBlock: KIFKEQ_clean_linker_1, # of connection points: 2
#     Edge 42, Type (0, 1), BuildingBlock: KIFKEQ_clean_linker_1, # of connection points: 2
#     Edge 43, Type (0, 1), BuildingBlock: KIFKEQ_clean_linker_1, # of connection points: 2
#     Edge 44, Type (0, 1), BuildingBlock: KIFKEQ_clean_linker_1, # of connection points: 2
#     Edge 45, Type (0, 1), BuildingBlock: KIFKEQ_clean_linker_1, # of connection points: 2
#     Edge 46, Type (0, 1), BuildingBlock: KIFKEQ_clean_linker_1, # of connection points: 2
#     Edge 47, Type (0, 1), BuildingBlock: KIFKEQ_clean_linker_1, # of connection points: 2
#     Edge 48, Type (0, 1), BuildingBlock: KIFKEQ_clean_linker_1, # of connection points: 2
#     Edge 49, Type (0, 1), BuildingBlock: KIFKEQ_clean_linker_1, # of connection points: 2
#     Edge 50, Type (0, 1), BuildingBlock: KIFKEQ_clean_linker_1, # of connection points: 2
#     Edge 51, Type (0, 1), BuildingBlock: KIFKEQ_clean_linker_1, # of connection points: 2
#     Edge 52, Type (0, 1), BuildingBlock: KIFKEQ_clean_linker_1, # of connection points: 2
#     Edge 53, Type (0, 1), BuildingBlock: KIFKEQ_clean_linker_1, # of connection points: 2
#     Edge 54, Type (0, 1), BuildingBlock: KIFKEQ_clean_linker_1, # of connection points: 2
#     Edge 55, Type (0, 1), BuildingBlock: KIFKEQ_clean_linker_1, # of connection points: 2
#     Edge 56, Type (0, 1), BuildingBlock: KIFKEQ_clean_linker_1, # of connection points: 2
#     Edge 57, Type (0, 1), BuildingBlock: KIFKEQ_clean_linker_1, # of connection points: 2
#     Edge 58, Type (0, 1), BuildingBlock: KIFKEQ_clean_linker_1, # of connection points: 2
#     Edge 59, Type (0, 1), BuildingBlock: KIFKEQ_clean_linker_1, # of connection points: 2
#     Edge 60, Type (0, 1), BuildingBlock: KIFKEQ_clean_linker_1, # of connection points: 2
#     Edge 61, Type (0, 1), BuildingBlock: KIFKEQ_clean_linker_1, # of connection points: 2
#     Edge 62, Type (0, 1), BuildingBlock: KIFKEQ_clean_linker_1, # of connection points: 2
#     Edge 63, Type (0, 1), BuildingBlock: KIFKEQ_clean_linker_1, # of connection points: 2
#     Edge 64, Type (0, 1), BuildingBlock: KIFKEQ_clean_linker_1, # of connection points: 2
#     Edge 65, Type (0, 1), BuildingBlock: KIFKEQ_clean_linker_1, # of connection points: 2
#     Edge 66, Type (0, 1), BuildingBlock: KIFKEQ_clean_linker_1, # of connection points: 2
#     Edge 67, Type (0, 1), BuildingBlock: KIFKEQ_clean_linker_1, # of connection points: 2
# Relax obj value: 0.224
# Max RMSD: 0.221
# Mean RMSD: 0.148
data_MOF--net-myd--node1-KOZSID_clean_sbu_0--node2-JUFBIX_clean_sbu_0--edge1-KIFKEQ_clean_linker_1
_symmetry_space_group_name_H-M    P1
_symmetry_Int_Tables_number       1
_symmetry_cell_setting            triclinic
loop_
_symmetry_equiv_pos_as_xyz
'x, y, z'
_cell_length_a     49.95001
_cell_length_b     53.135063
_cell_length_c     52.347041
_cell_angle_alpha  92.135031
_cell_angle_beta   87.571783
_cell_angle_gamma 92.930065
loop_
_atom_site_label
_atom_site_type_symbol
_atom_site_fract_x
_atom_site_fract_y
_atom_site_fract_z
_atom_type_partial_charge
C0 C 0.99267 0.26404 0.3457 0.0
C1 C 0.96626 0.2669 0.35414 0.0
C2 C 0.95162 0.24625 0.34463 0.0
C3 C 0.96977 0.23201 0.33082 0.0
N4 N 0.99483 0.24245 0.33126 0.0
Co5 Co 0.02678 0.2298 0.3122 0.0
N6 N 1.0045 0.20976 0.28766 0.0
C7 C 0.97844 0.20263 0.29167 0.0
C8 C 0.96838 0.18803 0.27176 0.0
C9 C 0.98952 0.18559 0.25436 0.0
C10 C 1.01142 0.19892 0.26463 0.0
N11 N 0.05905 0.21751 0.29329 0.0
C12 C 0.06153 0.20626 0.26969 0.0
C13 C 0.08796 0.20032 0.26414 0.0
C14 C 0.10222 0.20768 0.28524 0.0
C15 C 0.08386 0.21778 0.30246 0.0
N16 N 0.04866 0.24986 0.33691 0.0
C17 C 0.07435 0.24645 0.34197 0.0
C18 C 0.08436 0.26443 0.35911 0.0
C19 C 0.06367 0.28009 0.36492 0.0
C20 C 0.04219 0.2708 0.35089 0.0
N21 N 0.02621 0.20043 0.33392 0.0
C22 C 0.02278 0.15669 0.36278 0.0
C23 C 0.02992 0.15566 0.33664 0.0
C24 C 0.03116 0.17741 0.32267 0.0
C25 C 0.01825 0.18049 0.37443 0.0
C26 C 0.02021 0.20216 0.35966 0.0
N27 N 0.0273 0.25859 0.29029 0.0
C28 C 0.05137 0.29288 0.26943 0.0
C29 C 0.0276 0.30009 0.2592 0.0
C30 C 1.00374 0.28602 0.26473 0.0
C31 C 1.00403 0.26534 0.28024 0.0
C32 C 0.05077 0.27209 0.28498 0.0
H33 H 0.98539 0.25482 0.28415 0.0
H34 H 0.06927 0.267 0.29282 0.0
H35 H 0.03588 0.17532 0.30252 0.0
H36 H 0.0165 0.22024 0.3689 0.0
C37 C 0.96342 0.21292 0.31248 0.0
C38 C 0.01559 0.2815 0.35173 0.0
C39 C 0.03895 0.1985 0.25345 0.0
C40 C 0.08969 0.23071 0.32566 0.0
H41 H 0.95823 0.28243 0.36542 0.0
H42 H 0.93005 0.24303 0.34611 0.0
H43 H 0.94799 0.1805 0.26983 0.0
H44 H 0.98901 0.17479 0.23643 0.0
H45 H 0.09601 0.19118 0.24688 0.0
H46 H 0.12354 0.20635 0.28748 0.0
H47 H 0.10476 0.26695 0.3653 0.0
H48 H 0.0644 0.29665 0.37761 0.0
H49 H 0.03462 0.13809 0.32674 0.0
H50 H 1.01274 0.18236 0.3946 0.0
H51 H 0.0702 0.30341 0.26575 0.0
H52 H 0.98499 0.29075 0.25689 0.0
C53 C 0.99933 0.69656 0.13492 0.0
C54 C 0.97295 0.6926 0.12783 0.0
C55 C 0.95788 0.70749 0.14392 0.0
C56 C 0.97584 0.7195 0.1599 0.0
N57 N 1.00158 0.71362 0.15469 0.0
Co58 Co 0.03391 0.72525 0.17428 0.0
N59 N 1.01143 0.74523 0.19943 0.0
C60 C 0.98478 0.74848 0.19875 0.0
C61 C 0.97512 0.76404 0.21806 0.0
C62 C 0.99693 0.77142 0.23177 0.0
C63 C 0.01873 0.75979 0.22 0.0
N64 N 0.06612 0.73599 0.19438 0.0
C65 C 0.06807 0.75085 0.21585 0.0
C66 C 0.0942 0.75321 0.22398 0.0
C67 C 0.1094 0.7395 0.20683 0.0
C68 C 0.09172 0.72953 0.18939 0.0
N69 N 0.05641 0.70595 0.14862 0.0
C70 C 0.08344 0.70508 0.14742 0.0
C71 C 0.09305 0.68997 0.12766 0.0
C72 C 0.0708 0.68037 0.11571 0.0
C73 C 0.04888 0.69018 0.12901 0.0
N74 N 0.03943 0.75593 0.15329 0.0
C75 C 0.04702 0.80344 0.13068 0.0
C76 C 0.06886 0.79015 0.13752 0.0
C77 C 0.06469 0.76647 0.14828 0.0
C78 C 0.02142 0.79191 0.13394 0.0
C79 C 0.01809 0.76841 0.14525 0.0
N80 N 0.02853 0.69508 0.1957 0.0
C81 C 0.04696 0.66103 0.21784 0.0
C82 C 0.02302 0.65719 0.23234 0.0
C83 C 1.00134 0.67144 0.22675 0.0
C84 C 1.00444 0.68995 0.2084 0.0
C85 C 0.04925 0.67988 0.19971 0.0
H86 H 0.98726 0.70039 0.2053 0.0
H87 H 0.06822 0.68238 0.18971 0.0
H88 H 0.08226 0.75737 0.15289 0.0
H89 H 0.99797 0.76116 0.14786 0.0
C90 C 0.96919 0.73599 0.18027 0.0
C91 C 0.0213 0.68251 0.12349 0.0
C92 C 0.04602 0.76378 0.22864 0.0
C93 C 0.0988 0.71578 0.16708 0.0
H94 H 0.96532 0.67986 0.11294 0.0
H95 H 0.93632 0.70893 0.14432 0.0
H96 H 0.95465 0.76939 0.22172 0.0
H97 H 0.99683 0.78411 0.24843 0.0
H98 H 0.10155 0.76408 0.24036 0.0
H99 H 0.13087 0.73755 0.20675 0.0
H100 H 0.11367 0.6855 0.12323 0.0
H101 H 0.07058 0.66698 0.09961 0.0
H102 H 0.08915 0.79811 0.13481 0.0
H103 H 1.00385 0.80145 0.12882 0.0
H104 H 0.0643 0.65039 0.22129 0.0
H105 H 0.98213 0.66871 0.23692 0.0
C106 C 0.3512 0.98615 0.27289 0.0
C107 C 0.35657 0.96159 0.27827 0.0
C108 C 0.34568 0.94645 0.25934 0.0
C109 C 0.33436 0.96254 0.24351 0.0
N110 N 0.33803 0.98714 0.25075 0.0
Co111 Co 0.32219 0.01658 0.23502 0.0
N112 N 0.30134 0.99408 0.21046 0.0
C113 C 0.30273 0.96877 0.20728 0.0
C114 C 0.28692 0.95847 0.18843 0.0
C115 C 0.27479 0.97836 0.17889 0.0
C116 C 0.28379 0.99977 0.19262 0.0
N117 N 0.30554 0.04606 0.22013 0.0
C118 C 0.28706 0.0469 0.2019 0.0
C119 C 0.28025 0.07147 0.19814 0.0
C120 C 0.29518 0.08668 0.21423 0.0
C121 C 0.31003 0.07063 0.22703 0.0
N122 N 0.34346 0.03905 0.25926 0.0
C123 C 0.34519 0.06454 0.25998 0.0
C124 C 0.35964 0.07486 0.27978 0.0
C125 C 0.3671 0.05482 0.29287 0.0
C126 C 0.35685 0.03325 0.28018 0.0
N127 N 0.35237 0.01889 0.20849 0.0
C128 C 0.38894 0.02201 0.16557 0.0
C129 C 0.38111 0.0437 0.17928 0.0
C130 C 0.36296 0.04174 0.20043 0.0
C131 C 0.37933 0.99875 0.17459 0.0
C132 C 0.36167 0.99763 0.19608 0.0
N133 N 0.29217 0.01405 0.26104 0.0
C134 C 0.26594 0.03156 0.29682 0.0
C135 C 0.25176 1.00843 0.29995 0.0
C136 C 0.25799 0.98836 0.28318 0.0
C137 C 0.27811 0.9915 0.26417 0.0
C138 C 0.28574 0.03405 0.27709 0.0
H139 H 0.28219 0.97524 0.25243 0.0
H140 H 0.29577 0.05221 0.27524 0.0
H141 H 0.35739 0.05903 0.20956 0.0
H142 H 0.35559 0.97925 0.20191 0.0
C143 C 0.31798 0.95511 0.22323 0.0
C144 C 0.35826 1.00785 0.28982 0.0
C145 C 0.27546 0.02509 0.18762 0.0
C146 C 0.32883 0.07809 0.24513 0.0
H147 H 0.36664 0.95526 0.29459 0.0
H148 H 0.34503 0.92605 0.25795 0.0
H149 H 0.28437 0.9388 0.18246 0.0
H150 H 0.26094 0.97722 0.16349 0.0
H151 H 0.266 0.07782 0.18508 0.0
H152 H 0.29526 0.10703 0.21629 0.0
H153 H 0.36264 0.09463 0.28521 0.0
H154 H 0.37761 0.05616 0.31053 0.0
H155 H 0.38821 0.06222 0.1732 0.0
H156 H 0.3854 0.98137 0.16509 0.0
H157 H 0.26155 0.04769 0.30929 0.0
H158 H 0.2477 0.97002 0.28503 0.0
C159 C 0.67085 0.45778 0.26293 0.0
C160 C 0.65866 0.43409 0.25869 0.0
C161 C 0.66741 0.41909 0.27722 0.0
C162 C 0.68438 0.43451 0.29165 0.0
N163 N 0.68658 0.45815 0.28331 0.0
Co164 Co 0.71003 0.48626 0.29666 0.0
N165 N 0.73325 0.46282 0.31277 0.0
C166 C 0.72669 0.43852 0.31776 0.0
C167 C 0.74706 0.42682 0.32859 0.0
C168 C 0.76746 0.44496 0.33085 0.0
C169 C 0.75829 0.46696 0.32151 0.0
N170 N 0.73323 0.51466 0.30986 0.0
C171 C 0.75804 0.51462 0.31928 0.0
C172 C 0.76632 0.53874 0.32789 0.0
C173 C 0.7459 0.5542 0.32372 0.0
C174 C 0.72625 0.53879 0.31295 0.0
N175 N 0.68661 0.50947 0.28066 0.0
C176 C 0.68416 0.53404 0.28676 0.0
C177 C 0.6669 0.54514 0.27129 0.0
C178 C 0.65813 0.52627 0.25447 0.0
C179 C 0.67059 0.50475 0.26075 0.0
N180 N 0.68761 0.48798 0.32859 0.0
C181 C 0.65666 0.49233 0.37475 0.0
C182 C 0.64434 0.48835 0.3512 0.0
C183 C 0.66016 0.48637 0.32835 0.0
C184 C 0.68474 0.4934 0.3746 0.0
C185 C 0.69971 0.49107 0.35156 0.0
N186 N 0.73261 0.48445 0.26497 0.0
C187 C 0.75747 0.50471 0.23015 0.0
C188 C 0.76635 0.48142 0.22051 0.0
C189 C 0.75726 0.45969 0.23335 0.0
C190 C 0.74053 0.4616 0.25538 0.0
C191 C 0.74072 0.50582 0.25238 0.0
H192 H 0.73418 0.44449 0.26479 0.0
H193 H 0.7346 0.52402 0.25958 0.0
H194 H 0.65021 0.48386 0.31045 0.0
H195 H 0.72122 0.49207 0.35245 0.0
C196 C 0.70323 0.42646 0.30831 0.0
C197 C 0.6668 0.47993 0.24808 0.0
C198 C 0.77272 0.49183 0.32321 0.0
C199 C 0.70275 0.54674 0.3026 0.0
H200 H 0.64526 0.42827 0.24362 0.0
H201 H 0.6633 0.39901 0.27884 0.0
H202 H 0.74745 0.40722 0.33343 0.0
H203 H 0.78676 0.44228 0.3387 0.0
H204 H 0.78485 0.54454 0.33688 0.0
H205 H 0.74563 0.57432 0.32769 0.0
H206 H 0.66252 0.56487 0.27114 0.0
H207 H 0.64453 0.52818 0.2392 0.0
H208 H 0.62269 0.48752 0.35034 0.0
H209 H 0.69521 0.49609 0.39228 0.0
H210 H 0.76406 0.52206 0.22108 0.0
H211 H 0.76313 0.44121 0.22651 0.0
C212 C 0.31676 0.41158 0.99133 0.0
C213 C 0.31861 0.42579 0.96952 0.0
C214 C 0.29968 0.41542 0.95321 0.0
C215 C 0.28657 0.39618 0.96631 0.0
N216 N 0.29599 0.39426 0.98971 0.0
Co217 Co 0.28076 0.37173 0.01617 0.0
N218 N 0.26575 0.34769 0.99042 0.0
C219 C 0.26059 0.35323 0.96626 0.0
C220 C 0.24912 0.33297 0.95296 0.0
C221 C 0.24665 0.3138 0.97 0.0
C222 C 0.25674 0.32344 0.9929 0.0
N223 N 0.266 0.34952 0.04321 0.0
C224 C 0.25758 0.32497 0.04152 0.0
C225 C 0.2484 0.3167 0.06537 0.0
C226 C 0.25072 0.33705 0.08224 0.0
C227 C 0.26125 0.35658 0.06792 0.0
N228 N 0.29567 0.39614 0.0416 0.0
C229 C 0.28652 0.3996 0.06586 0.0
C230 C 0.30004 0.41938 0.07823 0.0
C231 C 0.3189 0.42857 0.06051 0.0
C232 C 0.31623 0.41339 0.03853 0.0
N233 N 0.24659 0.38907 0.01718 0.0
C234 C 0.19655 0.41066 0.01206 0.0
C235 C 0.19825 0.38496 0.01638 0.0
C236 C 0.22309 0.37467 0.01869 0.0
C237 C 0.2207 0.42563 0.01157 0.0
C238 C 0.24547 0.4145 0.0143 0.0
N239 N 0.31392 0.35356 0.01446 0.0
C240 C 0.34409 0.32707 0.03437 0.0
C241 C 0.35318 0.31768 1.01027 0.0
C242 C 0.34393 0.3284 0.98848 0.0
C243 C 0.32441 0.34624 0.99097 0.0
C244 C 0.32453 0.34516 0.03604 0.0
H245 H 0.31667 0.35298 0.97372 0.0
H246 H 0.31687 0.35128 0.05472 0.0
H247 H 0.22306 0.35466 0.02098 0.0
H248 H 0.26373 0.4263 0.01336 0.0
C249 C 0.26956 0.37664 0.9562 0.0
C250 C 0.33258 0.41576 0.01459 0.0
C251 C 0.25426 0.31031 0.01731 0.0
C252 C 0.27002 0.38064 0.07736 0.0
H253 H 0.33167 0.44222 0.96584 0.0
H254 H 0.29649 0.42085 0.93389 0.0
H255 H 0.24354 0.33208 0.93319 0.0
H256 H 0.23773 0.29511 0.96623 0.0
H257 H 0.2401 0.29812 0.06996 0.0
H258 H 0.24573 0.33741 0.10257 0.0
H259 H 0.29759 0.4255 0.09811 0.0
H260 H 0.33337 0.44415 0.06356 0.0
H261 H 0.18042 0.37255 0.01794 0.0
H262 H 0.22064 0.44565 1.00847 0.0
H263 H 0.35085 0.31953 0.05178 0.0
H264 H 0.35096 0.32235 0.96948 0.0
C265 C 0.22624 0.6578 0.48399 0.0
C266 C 0.22379 0.64811 0.45912 0.0
C267 C 0.24417 0.65915 0.4447 0.0
C268 C 0.25773 0.67508 0.46137 0.0
N269 N 0.24755 0.67464 0.48573 0.0
Co270 Co 0.25952 0.69687 0.51547 0.0
N271 N 0.28689 0.7157 0.49336 0.0
C272 C 0.29285 0.71095 0.46825 0.0
C273 C 0.31314 0.72645 0.45834 0.0
C274 C 0.32069 0.74204 0.47832 0.0
C275 C 0.30438 0.7352 0.49933 0.0
N276 N 0.27103 0.71933 0.54516 0.0
C277 C 0.28961 0.73882 0.54616 0.0
C278 C 0.29073 0.74982 0.57061 0.0
C279 C 0.27249 0.73661 0.58567 0.0
C280 C 0.26117 0.71851 0.56962 0.0
N281 N 0.23231 0.67788 0.53757 0.0
C282 C 0.22817 0.68082 0.56318 0.0
C283 C 0.20798 0.66516 0.57304 0.0
C284 C 0.1983 0.65167 0.55245 0.0
C285 C 0.21309 0.66008 0.53111 0.0
N286 N 0.2874 0.6727 0.52322 0.0
C287 C 0.33197 0.6446 0.53453 0.0
C288 C 0.31532 0.6547 0.554 0.0
C289 C 0.29321 0.66822 0.54799 0.0
C290 C 0.32498 0.64754 0.50928 0.0
C291 C 0.30287 0.66153 0.50411 0.0
N292 N 0.23215 0.72126 0.50779 0.0
C293 C 0.19785 0.74988 0.52208 0.0
C294 C 0.19503 0.75789 0.49714 0.0
C295 C 0.21091 0.74659 0.47762 0.0
C296 C 0.22924 0.7287 0.48331 0.0
C297 C 0.21608 0.73158 0.52687 0.0
H298 H 0.24097 0.7212 0.4676 0.0
H299 H 0.21706 0.72623 0.54623 0.0
H300 H 0.28149 0.67528 0.56382 0.0
H301 H 0.29917 0.66351 0.48445 0.0
C302 C 0.27871 0.69212 0.45437 0.0
C303 C 0.20714 0.65152 0.50503 0.0
C304 C 0.30661 0.74757 0.52458 0.0
C305 C 0.24167 0.70014 0.57701 0.0
H306 H 0.20848 0.635 0.45181 0.0
H307 H 0.248 0.65662 0.42428 0.0
H308 H 0.32146 0.7264 0.43891 0.0
H309 H 0.33654 0.75669 0.47751 0.0
H310 H 0.30344 0.76573 0.57697 0.0
H311 H 0.26807 0.73978 0.60592 0.0
H312 H 0.20051 0.66432 0.59272 0.0
H313 H 0.18172 0.63774 0.55295 0.0
H314 H 0.31947 0.6524 0.5739 0.0
H315 H 0.33713 0.63995 0.49347 0.0
H316 H 0.18646 0.75798 0.53811 0.0
H317 H 0.20927 0.75138 0.45785 0.0
C318 C 0.79983 0.88381 0.49095 0.0
C319 C 0.8022 0.89305 0.46648 0.0
C320 C 0.78053 0.88285 0.45357 0.0
C321 C 0.76625 0.86785 0.47072 0.0
N322 N 0.77764 0.86823 0.49354 0.0
Co323 Co 0.766 0.84752 0.52298 0.0
N324 N 0.74618 0.8227 0.50099 0.0
C325 C 0.73809 0.82673 0.47733 0.0
C326 C 0.72415 0.80618 0.4669 0.0
C327 C 0.72317 0.78836 0.48531 0.0
C328 C 0.73665 0.79905 0.50606 0.0
N329 N 0.75476 0.82727 0.55286 0.0
C330 C 0.74511 0.80309 0.55366 0.0
C331 C 0.73993 0.7962 0.57883 0.0
C332 C 0.74604 0.81707 0.59409 0.0
C333 C 0.75472 0.83547 0.57754 0.0
N334 N 0.7859 0.87245 0.54471 0.0
C335 C 0.78217 0.87659 0.57004 0.0
C336 C 0.80017 0.89465 0.57962 0.0
C337 C 0.8162 0.90205 0.55895 0.0
C338 C 0.80704 0.88798 0.53799 0.0
N339 N 0.733 0.86634 0.52799 0.0
C340 C 0.68371 0.89012 0.53175 0.0
C341 C 0.68497 0.86431 0.53541 0.0
C342 C 0.70945 0.85294 0.53344 0.0
C343 C 0.70788 0.90398 0.52612 0.0
C344 C 0.7324 0.89174 0.52455 0.0
N345 N 0.79802 0.82779 0.51757 0.0
C346 C 0.82986 0.80057 0.53413 0.0
C347 C 0.83619 0.79117 0.50934 0.0
C348 C 0.82426 0.80159 0.48876 0.0
C349 C 0.80517 0.81964 0.49327 0.0
C350 C 0.81108 0.81928 0.53779 0.0
H351 H 0.7952 0.82597 0.47703 0.0
H352 H 0.80621 0.82599 0.55704 0.0
H353 H 0.709 0.83295 0.53587 0.0
H354 H 0.75078 0.90268 0.52028 0.0
C355 C 0.74722 0.84847 0.4644 0.0
C356 C 0.81823 0.88992 0.51181 0.0
C357 C 0.73696 0.78754 0.53121 0.0
C358 C 0.76677 0.85904 0.5845 0.0
H359 H 0.81807 0.90524 0.45841 0.0
H360 H 0.77689 0.88461 0.43349 0.0
H361 H 0.71616 0.80414 0.448 0.0
H362 H 0.71318 0.76983 0.48386 0.0
H363 H 0.73189 0.77818 0.58544 0.0
H364 H 0.74494 0.81842 0.61479 0.0
H365 H 0.80261 0.90046 0.59945 0.0
H366 H 0.83298 0.91577 0.55928 0.0
H367 H 0.66693 0.85266 0.53935 0.0
H368 H 0.70787 0.92405 0.52325 0.0
H369 H 0.83897 0.79322 0.55052 0.0
H370 H 0.82855 0.79482 0.46931 0.0
C371 C 0.50593 0.78434 0.87652 0.0
C372 C 0.48089 0.79104 0.88626 0.0
C373 C 0.46299 0.77193 0.87945 0.0
C374 C 0.47786 0.7548 0.86566 0.0
N375 N 0.50436 0.76144 0.86384 0.0
Co376 Co 0.53223 0.74427 0.84151 0.0
N377 N 0.50482 0.72008 0.82601 0.0
C378 C 0.47866 0.7172 0.83358 0.0
C379 C 0.46476 0.69878 0.8198 0.0
C380 C 0.48314 0.68931 0.80241 0.0
C381 C 0.5073 0.70263 0.80651 0.0
N382 N 0.56003 0.72822 0.8183 0.0
C383 C 0.55732 0.71054 0.79902 0.0
C384 C 0.5819 0.70575 0.78691 0.0
C385 C 0.60077 0.72083 0.79899 0.0
C386 C 0.58673 0.73407 0.8176 0.0
N387 N 0.55959 0.76811 0.85743 0.0
C388 C 0.58652 0.76745 0.85414 0.0
C389 C 0.60015 0.78664 0.86713 0.0
C390 C 0.58073 0.80073 0.87887 0.0
C391 C 0.55627 0.78942 0.87215 0.0
N392 N 0.53747 0.71894 0.86814 0.0
C393 C 0.54223 0.67528 0.89682 0.0
C394 C 0.56459 0.68686 0.8843 0.0
C395 C 0.56183 0.70856 0.87045 0.0
C396 C 0.518 0.68727 0.8966 0.0
C397 C 0.5162 0.70905 0.88263 0.0
N398 N 0.52689 0.76869 0.81494 0.0
C399 C 0.54442 0.79918 0.78464 0.0
C400 C 0.51861 0.80257 0.77641 0.0
C401 C 0.49707 0.78901 0.78812 0.0
C402 C 0.50161 0.77231 0.80715 0.0
C403 C 0.5481 0.78219 0.80382 0.0
H404 H 0.48437 0.76248 0.81535 0.0
H405 H 0.56822 0.78009 0.80936 0.0
H406 H 0.57966 0.71602 0.8612 0.0
H407 H 0.49714 0.71706 0.88348 0.0
C408 C 0.46721 0.73392 0.85168 0.0
C409 C 0.53051 0.80066 0.87854 0.0
C410 C 0.532 0.69792 0.79143 0.0
C411 C 0.59795 0.75184 0.835 0.0
H412 H 0.47565 0.80829 0.89637 0.0
H413 H 0.44144 0.77134 0.88283 0.0
H414 H 0.44361 0.69335 0.8217 0.0
H415 H 0.47919 0.67444 0.78818 0.0
H416 H 0.58582 0.69275 0.77095 0.0
H417 H 0.62217 0.72206 0.79465 0.0
H418 H 0.62158 0.79091 0.86666 0.0
H419 H 0.58414 0.81804 0.89007 0.0
H420 H 0.584 0.67866 0.88419 0.0
H421 H 0.5003 0.67971 0.90691 0.0
H422 H 0.56174 0.80923 0.77605 0.0
H423 H 0.47664 0.79139 0.78282 0.0
C424 C 0.54864 0.27486 0.65909 0.0
C425 C 0.57276 0.28068 0.6461 0.0
C426 C 0.58946 0.26168 0.65074 0.0
C427 C 0.57458 0.2454 0.66626 0.0
N428 N 0.54964 0.25302 0.6714 0.0
Co429 Co 0.52192 0.23676 0.69426 0.0
N430 N 0.54898 0.21853 0.71198 0.0
C431 C 0.57424 0.21486 0.70306 0.0
C432 C 0.5886 0.20194 0.71961 0.0
C433 C 0.5712 0.19689 0.73997 0.0
C434 C 0.5469 0.20676 0.73461 0.0
N435 N 0.49388 0.22061 0.71701 0.0
C436 C 0.4962 0.20828 0.73898 0.0
C437 C 0.47128 0.19859 0.74782 0.0
C438 C 0.45294 0.20498 0.73068 0.0
C439 C 0.46754 0.21811 0.71229 0.0
N440 N 0.4951 0.25497 0.6764 0.0
C441 C 0.46869 0.24894 0.67569 0.0
C442 C 0.45528 0.26611 0.66265 0.0
C443 C 0.47457 0.28397 0.65487 0.0
C444 C 0.49866 0.27661 0.66363 0.0
N445 N 0.51775 0.2084 0.6697 0.0
C446 C 0.50421 0.16798 0.63641 0.0
C447 C 0.50872 0.19225 0.62713 0.0
C448 C 0.51544 0.21231 0.64419 0.0
C449 C 0.50825 0.16411 0.66219 0.0
C450 C 0.51516 0.18445 0.67842 0.0
N451 N 0.52581 0.26509 0.71859 0.0
C452 C 0.50552 0.29859 0.74308 0.0
C453 C 0.53086 0.30914 0.74906 0.0
C454 C 0.55366 0.29685 0.73981 0.0
C455 C 0.55069 0.27484 0.7246 0.0
C456 C 0.50345 0.27647 0.72813 0.0
H457 H 0.56851 0.26596 0.71731 0.0
H458 H 0.48369 0.26894 0.72369 0.0
H459 H 0.51783 0.23109 0.63696 0.0
H460 H 0.51738 0.18081 0.69828 0.0
C461 C 0.58484 0.22705 0.68121 0.0
C462 C 0.52481 0.28982 0.65921 0.0
C463 C 0.52178 0.20283 0.75018 0.0
C464 C 0.45695 0.231 0.69231 0.0
H465 H 0.57783 0.29709 0.6349 0.0
H466 H 0.61046 0.26082 0.64495 0.0
H467 H 0.6095 0.19747 0.71756 0.0
H468 H 0.57592 0.1869 0.7567 0.0
H469 H 0.46687 0.18748 0.76452 0.0
H470 H 0.43149 0.20087 0.73176 0.0
H471 H 0.43386 0.26654 0.66047 0.0
H472 H 0.47129 0.3006 0.64432 0.0
H473 H 0.50595 0.19584 0.60721 0.0
H474 H 0.50543 0.14547 0.66992 0.0
H475 H 0.48732 0.30753 0.74954 0.0
H476 H 0.57363 0.30402 0.74438 0.0
C477 C 0.85933 0.48568 0.77255 0.0
C478 C 0.86648 0.46121 0.77616 0.0
C479 C 0.85334 0.44615 0.75853 0.0
C480 C 0.8388 0.46211 0.74527 0.0
N481 N 0.84237 0.48659 0.75297 0.0
Co482 Co 0.82261 0.51572 0.74114 0.0
N483 N 0.79788 0.49283 0.72045 0.0
C484 C 0.79883 0.46749 0.71727 0.0
C485 C 0.77937 0.45684 0.70202 0.0
C486 C 0.76508 0.47652 0.69506 0.0
C487 C 0.77664 0.49816 0.70656 0.0
N488 N 0.8029 0.54493 0.72955 0.0
C489 C 0.78132 0.54544 0.71465 0.0
C490 C 0.77389 0.56994 0.71158 0.0
C491 C 0.7915 0.58543 0.72474 0.0
C492 C 0.80855 0.56963 0.73519 0.0
N493 N 0.84701 0.53846 0.76218 0.0
C494 C 0.84796 0.56394 0.7636 0.0
C495 C 0.8658 0.57424 0.78075 0.0
C496 C 0.87629 0.5541 0.7915 0.0
C497 C 0.86406 0.53265 0.78033 0.0
N498 N 0.84797 0.51894 0.71045 0.0
C499 C 0.87855 0.52444 0.66359 0.0
C500 C 0.87535 0.5448 0.68108 0.0
C501 C 0.86007 0.54171 0.70397 0.0
C502 C 0.86713 0.50103 0.67079 0.0
C503 C 0.85256 0.49868 0.6941 0.0
N504 N 0.79738 0.51244 0.77131 0.0
C505 C 0.77349 0.53045 0.80833 0.0
C506 C 0.76182 0.50677 0.81425 0.0
C507 C 0.76855 0.48607 0.79853 0.0
C508 C 0.78629 0.48925 0.7775 0.0
C509 C 0.79094 0.53289 0.78672 0.0
H510 H 0.79083 0.47262 0.76652 0.0
H511 H 0.79899 0.55144 0.78272 0.0
H512 H 0.85813 0.5582 0.71585 0.0
H513 H 0.84483 0.48024 0.69806 0.0
C514 C 0.81824 0.45428 0.72898 0.0
C515 C 0.86746 0.50731 0.78916 0.0
C516 C 0.7671 0.52335 0.70317 0.0
C517 C 0.82955 0.57739 0.75092 0.0
H518 H 0.87887 0.4546 0.79068 0.0
H519 H 0.85296 0.42577 0.75682 0.0
H520 H 0.776 0.43711 0.69659 0.0
H521 H 0.74816 0.47511 0.68276 0.0
H522 H 0.75737 0.57602 0.70101 0.0
H523 H 0.79169 0.60579 0.72666 0.0
H524 H 0.86961 0.59399 0.78585 0.0
H525 H 0.89038 0.55503 0.8067 0.0
H526 H 0.88442 0.56328 0.67722 0.0
H527 H 0.86862 0.48445 0.65827 0.0
H528 H 0.76873 0.54704 0.81996 0.0
H529 H 0.76029 0.46731 0.80256 0.0
C530 C 0.18614 0.02603 0.81502 0.0
C531 C 0.17648 0.04958 0.82152 0.0
C532 C 0.18512 0.06526 0.80251 0.0
C533 C 0.1998 0.05063 0.78564 0.0
N534 N 0.20082 0.0264 0.79248 0.0
Co535 Co 0.22271 0.99973 0.77459 0.0
N536 N 0.23678 0.02333 0.74738 0.0
C537 C 0.23017 0.0475 0.74516 0.0
C538 C 0.24124 0.05861 0.72373 0.0
C539 C 0.25556 0.04038 0.71124 0.0
C540 C 0.25258 0.01911 0.72593 0.0
N541 N 0.24527 0.9733 0.75721 0.0
C542 C 0.26102 0.97395 0.73535 0.0
C543 C 0.27337 0.95134 0.73053 0.0
C544 C 0.26463 0.93567 0.74954 0.0
C545 C 0.2477 0.94957 0.765 0.0
N546 N 0.20807 0.9759 0.80128 0.0
C547 C 0.21296 0.95117 0.80228 0.0
C548 C 0.20002 0.93941 0.82249 0.0
C549 C 0.18621 0.95776 0.83538 0.0
C550 C 0.19174 0.97985 0.82239 0.0
N551 N 0.19251 0.98915 0.75245 0.0
C552 C 0.15578 0.97559 0.71433 0.0
C553 C 0.1701 0.95731 0.72558 0.0
C554 C 0.188 0.96441 0.74469 0.0
C555 C 0.15874 1.00045 0.72382 0.0
C556 C 0.17695 1.00673 0.74277 0.0
N557 N 0.25289 0.01042 0.79665 0.0
C558 C 0.28443 1.0009 0.82831 0.0
C559 C 0.29209 0.02645 0.8318 0.0
C560 C 0.28041 0.04368 0.8167 0.0
C561 C 0.26122 0.03532 0.79928 0.0
C562 C 0.265 0.99337 0.81078 0.0
H563 H 0.25312 0.04945 0.78847 0.0
H564 H 0.25987 0.97368 0.80922 0.0
H565 H 0.19853 0.94966 0.75232 0.0
H566 H 0.17873 0.02611 0.74855 0.0
C567 C 0.21332 0.05919 0.76345 0.0
C568 C 0.18154 1.00417 0.83129 0.0
C569 C 0.26437 0.99514 0.71817 0.0
C570 C 0.23184 0.94018 0.78547 0.0
H571 H 0.16483 0.05513 0.83849 0.0
H572 H 0.18163 0.08512 0.80142 0.0
H573 H 0.23883 0.07759 0.71767 0.0
H574 H 0.26654 0.04243 0.69312 0.0
H575 H 0.2869 0.94646 0.71463 0.0
H576 H 0.26941 0.9162 0.75142 0.0
H577 H 0.20114 0.91997 0.8277 0.0
H578 H 0.17388 0.95525 0.85268 0.0
H579 H 0.16798 0.93769 0.71928 0.0
H580 H 0.14811 0.01534 0.71576 0.0
H581 H 0.2934 0.98666 0.83899 0.0
H582 H 0.28553 0.06369 0.81864 0.0
C583 C 0.74797 0.17174 0.97711 0.0
C584 C 0.74451 0.16467 0.95164 0.0
C585 C 0.76274 0.179 0.93762 0.0
C586 C 0.77629 0.19387 0.95527 0.0
N587 N 0.76811 0.18966 0.97978 0.0
Co588 Co 0.78175 0.20775 0.01141 0.0
N589 N 0.80584 0.23129 0.99071 0.0
C590 C 0.80834 0.23166 0.96489 0.0
C591 C 0.82562 0.25051 0.95603 0.0
C592 C 0.83483 0.26289 0.97745 0.0
C593 C 0.8228 0.25067 0.99829 0.0
N594 N 0.79559 0.22552 0.04311 0.0
C595 C 0.81433 0.24472 0.04583 0.0
C596 C 0.81918 0.25021 0.07144 0.0
C597 C 0.80263 0.23426 0.08538 0.0
C598 C 0.78889 0.2198 0.06762 0.0
N599 N 0.75723 0.18443 0.03204 0.0
C600 C 0.75463 0.1839 0.05782 0.0
C601 C 0.7352 0.16682 0.06654 0.0
C602 C 0.72435 0.15604 0.04505 0.0
C603 C 0.73793 0.16718 0.02437 0.0
N604 N 0.81152 0.18388 0.01223 0.0
C605 C 0.85853 0.15644 0.01492 0.0
C606 C 0.84178 0.16066 0.03656 0.0
C607 C 0.81837 0.17387 0.03472 0.0
C608 C 0.85053 0.16498 0.99164 0.0
C609 C 0.82728 0.17861 0.99075 0.0
N610 N 0.7525 0.23196 1.0106 0.0
C611 C 0.72089 0.25935 0.03262 0.0
C612 C 0.71334 0.26862 1.00947 0.0
C613 C 0.72532 0.25879 0.9869 0.0
C614 C 0.74481 0.24084 0.98789 0.0
C615 C 0.74004 0.24091 0.03274 0.0
H616 H 0.75362 0.23466 0.97 0.0
H617 H 0.74458 0.23428 0.05097 0.0
H618 H 0.80647 0.17618 0.0519 0.0
H619 H 0.82292 0.18523 0.97254 0.0
C620 C 0.79456 0.21381 0.94944 0.0
C621 C 0.73075 0.16179 0.99793 0.0
C622 C 0.82824 0.25811 0.02485 0.0
C623 C 0.76969 0.20062 0.07333 0.0
H624 H 0.72978 0.15107 0.94401 0.0
H625 H 0.76507 0.1793 0.91698 0.0
H626 H 0.83094 0.25472 0.93634 0.0
H627 H 0.84886 0.27909 0.97762 0.0
H628 H 0.83337 0.26414 0.07934 0.0
H629 H 0.801 0.23318 0.106 0.0
H630 H 0.72909 0.16318 0.0862 0.0
H631 H 0.70786 0.14203 0.04466 0.0
H632 H 0.84679 0.1539 0.05495 0.0
H633 H 0.86276 0.16207 0.97429 0.0
H634 H 0.71189 0.26615 0.05059 0.0
H635 H 0.72021 0.26545 0.96849 0.0
Co636 Co 0.07558 0.05288 0.05463 0.0
C637 C 0.07549 0.09538 0.08964 0.0
Co638 Co 0.09566 0.08815 0.04084 0.0
C639 C 0.06714 1.00017 0.06881 0.0
C640 C 0.03609 0.02374 0.08343 0.0
N641 N 0.05895 0.02408 0.06875 0.0
N642 N 0.05042 0.98514 0.08328 0.0
C643 C 0.0309 0.99995 0.09246 0.0
H644 H 0.08551 0.99415 0.05929 0.0
H645 H 0.02425 0.03996 0.0878 0.0
C646 C 0.0965 0.04692 1.00511 0.0
N647 N 0.11146 0.1167 0.02605 0.0
C648 C 0.12911 0.13486 0.03472 0.0
C649 C 0.10614 0.12348 1.00228 0.0
N650 N 0.13472 0.15272 0.01723 0.0
C651 C 0.12033 0.14545 0.99682 0.0
C652 C 0.13003 0.05868 0.06568 0.0
O653 O 0.08413 0.03427 0.02263 0.0
O654 O 0.10272 0.07001 1.00966 0.0
O655 O 0.12948 0.07902 0.05352 0.0
O656 O 0.10877 0.04453 0.06769 0.0
O657 O 0.08869 0.10629 0.07161 0.0
H658 H 0.09261 0.11309 0.98965 0.0
H659 H 0.13721 0.13523 0.0536 0.0
O660 O 0.06771 0.07223 0.08636 0.0
O661 O 0.04194 0.06172 0.04183 0.0
O662 O 0.06151 0.09719 0.02933 0.0
C663 C 0.0403 0.08309 0.032 0.0
H664 H 1.01414 0.99401 0.10499 0.0
H665 H 0.1202 0.15522 0.97905 0.0
Co666 Co 0.96835 0.45712 0.0753 0.0
C667 C 0.97272 0.50735 0.05884 0.0
Co668 Co 0.94949 0.46451 0.03899 0.0
C669 C 0.99471 0.43342 0.11573 0.0
C670 C 0.99078 0.47291 0.1232 0.0
N671 N 0.98583 0.45426 0.10556 0.0
N672 N 1.00475 0.43829 0.13907 0.0
C673 C 1.00244 0.46321 0.1437 0.0
H674 H 0.99271 0.41481 0.1067 0.0
H675 H 0.98548 0.49227 0.12175 0.0
C676 C 0.9452 0.41403 0.05504 0.0
N677 N 0.93038 0.46686 1.00888 0.0
C678 C 0.93422 0.47861 0.98625 0.0
C679 C 0.90621 0.45453 1.00707 0.0
N680 N 0.9131 0.47407 0.97081 0.0
C681 C 0.89575 0.45877 0.98404 0.0
C682 C 1.00353 0.45301 0.03303 0.0
O683 O 0.95668 0.42233 0.07507 0.0
O684 O 0.94153 0.42908 0.03742 0.0
O685 O 0.98399 0.45943 0.01988 0.0
O686 O 0.99958 0.44965 0.05677 0.0
O687 O 0.95778 0.49992 0.04068 0.0
H688 H 0.89662 0.44292 0.02169 0.0
H689 H 0.95183 0.49046 0.98138 0.0
O690 O 0.9794 0.49162 0.07481 0.0
O691 O 0.93766 0.46487 0.0944 0.0
O692 O 0.91584 0.46979 0.0598 0.0
C693 C 0.91607 0.46958 0.08421 0.0
H694 H 1.00818 0.47366 0.16091 0.0
H695 H 0.8768 0.45079 0.97743 0.0
Co696 Co 0.06685 0.95338 0.4681 0.0
C697 C 0.10562 0.95661 0.42789 0.0
Co698 Co 0.05389 0.93639 0.43136 0.0
C699 C 0.07748 0.95866 0.5222 0.0
C700 C 0.08989 0.99148 0.50138 0.0
N701 N 0.07834 0.9681 0.49855 0.0
N702 N 0.08788 0.97538 0.53966 0.0
C703 C 0.09568 0.99603 0.52657 0.0
H704 H 0.0693 0.93997 0.52652 0.0
H705 H 0.09409 1.00434 0.48601 0.0
C706 C 1.01404 0.93351 0.46988 0.0
N707 N 0.04231 0.92231 0.40085 0.0
C708 C 0.05429 0.90508 0.38532 0.0
C709 C 0.01957 0.92714 0.38934 0.0
N710 N 0.03994 0.89898 0.36453 0.0
C711 C 0.01808 0.91286 0.36698 0.0
C712 C 0.07857 0.90275 0.4615 0.0
O713 O 0.03176 0.94432 0.48399 0.0
O714 O 0.02031 0.92803 0.44671 0.0
O715 O 0.0671 0.90469 0.44045 0.0
O716 O 0.08008 0.92182 0.47689 0.0
O717 O 0.08723 0.9448 0.41571 0.0
H718 H 1.00486 0.94002 0.39688 0.0
H719 H 0.07325 0.89727 0.38915 0.0
O720 O 0.10138 0.96256 0.45148 0.0
O721 O 0.0541 0.9848 0.45914 0.0
O722 O 0.04126 0.96832 0.42246 0.0
C723 C 0.0437 0.98734 0.43778 0.0
H724 H 0.10554 0.01299 0.53452 0.0
H725 H 1.00183 0.91225 0.35389 0.0
Co726 Co 0.97511 0.57367 0.44153 0.0
C727 C 0.02715 0.57041 0.45757 0.0
Co728 Co 0.99021 0.53485 0.43701 0.0
C729 C 0.94303 0.61802 0.45517 0.0
C730 C 0.97886 0.62629 0.43249 0.0
N731 N 0.96442 0.60705 0.4434 0.0
N732 N 0.94357 0.64314 0.45144 0.0
C733 C 0.96605 0.64827 0.43716 0.0
H734 H 0.92735 0.60785 0.46605 0.0
H735 H 0.99784 0.6246 0.42201 0.0
C736 C 0.93868 0.53907 0.41991 0.0
N737 N 1.00199 0.50154 0.43545 0.0
C738 C 0.99685 0.48141 0.41925 0.0
C739 C 0.01737 0.49251 0.45322 0.0
N740 N 1.00833 0.46025 0.42646 0.0
C741 C 0.02135 0.46748 0.44777 0.0
C742 C 0.96266 0.54671 0.48436 0.0
O743 O 0.94269 0.56224 0.42647 0.0
O744 O 0.95656 0.52349 0.42369 0.0
O745 O 0.97569 0.5299 0.47178 0.0
O746 O 0.95966 0.56773 0.4743 0.0
O747 O 0.02402 0.54735 0.45027 0.0
H748 H 0.02489 0.50335 0.46952 0.0
H749 H 0.9843 0.48209 0.40296 0.0
O750 O 1.00779 0.5848 0.45608 0.0
O751 O 0.9906 0.57909 0.4088 0.0
O752 O 1.0043 0.54069 0.40233 0.0
C753 C 1.00221 0.56293 0.39445 0.0
H754 H 0.973 0.6668 0.43099 0.0
H755 H 0.03303 0.45554 0.45881 0.0
Co756 Co 0.44446 0.94552 0.5789 0.0
C757 C 0.45569 0.9962 0.56546 0.0
Co758 Co 0.43765 0.95473 0.53869 0.0
C759 C 0.4627 0.92207 0.62307 0.0
C760 C 0.44249 0.95576 0.63328 0.0
N761 N 0.45005 0.94099 0.61304 0.0
N762 N 0.46334 0.92433 0.64883 0.0
C763 C 0.4506 0.94558 0.6553 0.0
H764 H 0.47145 0.90706 0.61153 0.0
H765 H 0.43162 0.97275 0.63209 0.0
C766 C 0.42523 0.90409 0.5525 0.0
N767 N 0.43282 0.95772 0.50319 0.0
C768 C 0.42076 0.97351 0.48779 0.0
C769 C 0.44341 0.94038 0.48671 0.0
N770 N 0.42406 0.96659 0.46257 0.0
C771 C 0.43821 0.94572 0.46216 0.0
C772 C 0.49028 0.94013 0.54853 0.0
O773 O 0.43342 0.91098 0.57442 0.0
O774 O 0.42591 0.92009 0.53503 0.0
O775 O 0.47533 0.9464 0.53087 0.0
O776 O 0.48013 0.93825 0.57097 0.0
O777 O 0.449 0.98922 0.54297 0.0
H778 H 0.45432 0.9245 0.4922 0.0
H779 H 0.41022 0.98983 0.49483 0.0
O780 O 0.45503 0.9801 0.58293 0.0
O781 O 0.40902 0.95294 0.5873 0.0
O782 O 0.4005 0.96344 0.54826 0.0
C783 C 0.39287 0.96081 0.57178 0.0
H784 H 0.44685 0.95301 0.67456 0.0
H785 H 0.44414 0.93479 0.44518 0.0
Co786 Co 0.54663 0.54368 0.59534 0.0
C787 C 0.54707 0.58668 0.62998 0.0
Co788 Co 0.56511 0.57913 0.58048 0.0
C789 C 0.5401 0.49094 0.61056 0.0
C790 C 0.50778 0.51359 0.62386 0.0
N791 N 0.53122 0.5146 0.61012 0.0
N792 N 0.52313 0.47529 0.62421 0.0
C793 C 0.50277 0.48963 0.63246 0.0
H794 H 0.5589 0.48547 0.60148 0.0
H795 H 0.49515 0.52937 0.62751 0.0
C796 C 0.56563 0.53788 0.54506 0.0
N797 N 0.57946 0.60763 0.56474 0.0
C798 C 0.59919 0.6247 0.57126 0.0
C799 C 0.57144 0.61496 0.54198 0.0
N800 N 0.60346 0.64243 0.55346 0.0
C801 C 0.58603 0.63626 0.53507 0.0
C802 C 0.60163 0.55094 0.60383 0.0
O803 O 0.55433 0.52493 0.56295 0.0
O804 O 0.57135 0.56104 0.54959 0.0
O805 O 0.59958 0.57103 0.59164 0.0
O806 O 0.58094 0.53621 0.60717 0.0
O807 O 0.55901 0.59746 0.61117 0.0
H808 H 0.55614 0.60516 0.53084 0.0
H809 H 0.61007 0.62419 0.58867 0.0
O810 O 0.53966 0.56331 0.62745 0.0
O811 O 0.51195 0.5517 0.58354 0.0
O812 O 0.53054 0.58715 0.57013 0.0
C813 C 0.5097 0.57276 0.57325 0.0
H814 H 0.48525 0.48326 0.64376 0.0
H815 H 0.58438 0.64613 0.51752 0.0
Co816 Co 0.58673 0.46773 0.9966 0.0
C817 C 0.62287 0.46636 0.95356 0.0
Co818 Co 0.57052 0.45016 0.9613 0.0
C819 C 0.60379 0.47376 0.04903 0.0
C820 C 0.61542 0.50556 0.02644 0.0
N821 N 0.60202 0.4829 0.02542 0.0
N822 N 0.61798 0.48977 0.06467 0.0
C823 C 0.62518 0.50984 0.05045 0.0
H824 H 0.59553 0.45537 0.05436 0.0
H825 H 0.61831 0.51802 1.01057 0.0
C826 C 0.53328 0.45192 1.00285 0.0
N827 N 0.5549 0.43505 0.93289 0.0
C828 C 0.5604 0.43879 0.90778 0.0
C829 C 0.53412 0.41777 0.93349 0.0
N830 N 0.54339 0.42493 0.89296 0.0
C831 C 0.52691 0.41168 0.90901 0.0
C832 C 0.59469 0.4161 0.99125 0.0
O833 O 0.55262 0.46157 0.0157 0.0
O834 O 0.53752 0.446 0.97951 0.0
O835 O 0.58134 0.418 0.97129 0.0
O836 O 0.59885 0.43563 1.00565 0.0
O837 O 0.60325 0.45462 0.94312 0.0
H838 H 0.52492 0.40977 0.95061 0.0
H839 H 0.5765 0.45128 0.90048 0.0
O840 O 0.62026 0.47415 0.97684 0.0
O841 O 0.575 0.49955 0.98699 0.0
O842 O 0.56044 0.4825 0.95109 0.0
C843 C 0.56444 0.50199 0.96559 0.0
H844 H 0.63673 0.52649 0.05688 0.0
H845 H 0.51149 0.39777 0.90331 0.0
Co846 Co 0.49007 0.09788 0.96228 0.0
C847 C 0.5447 0.0865 0.9657 0.0
Co848 Co 0.50147 0.06043 0.9455 0.0
C849 C 0.4659 0.14621 0.97506 0.0
C850 C 0.4932 0.13541 1.00262 0.0
N851 N 0.48274 0.128 0.98006 0.0
N852 N 0.46539 0.16455 0.99375 0.0
C853 C 0.48268 0.15774 1.01101 0.0
H854 H 0.45375 0.14564 0.95839 0.0
H855 H 0.50733 0.12499 0.01259 0.0
C856 C 0.44727 0.0723 0.94158 0.0
N857 N 0.50753 0.02945 0.92699 0.0
C858 C 0.51637 1.00632 0.93208 0.0
C859 C 0.49926 0.02657 0.90281 0.0
N860 N 0.51412 0.98957 0.91173 0.0
C861 C 0.5032 1.00263 0.89357 0.0
C862 C 0.48428 0.05738 0.99602 0.0
O863 O 0.45375 0.09327 0.95272 0.0
O864 O 0.46485 0.05605 0.93745 0.0
O865 O 0.49322 0.04326 0.97756 0.0
O866 O 0.48175 0.08058 0.99233 0.0
O867 O 0.53857 0.06563 0.95392 0.0
H868 H 0.48967 0.04074 0.89263 0.0
H869 H 0.5238 1.00176 0.95038 0.0
O870 O 0.52648 0.10196 0.97109 0.0
O871 O 0.49837 0.11527 0.93238 0.0
O872 O 0.50908 0.07918 0.91397 0.0
C873 C 0.5064 0.10289 0.91259 0.0
H874 H 0.48748 0.16816 0.02852 0.0
H875 H 0.49721 0.99521 0.87504 0.0
H876 H 1.00431 0.10994 0.34559 0.0
H877 H 0.03535 0.14897 0.41278 0.0
H878 H 1.00731 0.07014 0.36542 0.0
H879 H 0.03555 0.109 0.43403 0.0
H880 H 0.06778 0.03255 0.45134 0.0
H881 H 0.05935 0.07376 0.43578 0.0
H882 H 0.99329 0.04046 0.39303 0.0
H883 H 1.00355 0.99896 0.40706 0.0
C884 C 1.01157 0.11011 0.3648 0.0
C885 C 0.02042 0.13281 0.37717 0.0
C886 C 1.01274 0.08707 0.37652 0.0
C887 C 0.02197 0.08589 0.40146 0.0
C888 C 0.02906 0.10882 0.41457 0.0
C889 C 0.0285 0.13194 0.40252 0.0
C890 C 0.05137 0.03416 0.43869 0.0
C891 C 0.03647 0.01256 0.43019 0.0
C892 C 0.04631 0.05792 0.42988 0.0
C893 C 0.02568 0.06084 0.41283 0.0
C894 C 1.00991 0.03917 0.40543 0.0
C895 C 0.01556 0.0153 0.41364 0.0
H896 H 0.99154 0.29728 0.39722 0.0
H897 H 0.03277 0.32528 0.32934 0.0
H898 H 0.98705 0.34043 0.41404 0.0
H899 H 0.02929 0.36868 0.34642 0.0
H900 H 1.00031 0.4459 0.37649 0.0
H901 H 1.00011 0.40292 0.35756 0.0
H902 H 1.01361 0.37409 0.43173 0.0
H903 H 1.01275 0.41636 0.45051 0.0
C904 C 0.9994 0.31276 0.38579 0.0
C905 C 1.01206 0.30795 0.36178 0.0
C906 C 0.99716 0.33757 0.39554 0.0
C907 C 1.00784 0.35833 0.3817 0.0
C908 C 0.02044 0.35338 0.35754 0.0
C909 C 0.02263 0.3285 0.34779 0.0
C910 C 1.0029 0.43033 0.38875 0.0
C911 C 1.00678 0.43484 0.41505 0.0
C912 C 1.00307 0.40564 0.37786 0.0
C913 C 1.00688 0.38477 0.39302 0.0
C914 C 1.01027 0.3894 0.41935 0.0
C915 C 1.01015 0.4139 0.43015 0.0
H916 H 0.02547 0.8236 0.08912 0.0
H917 H 0.07654 0.84262 0.15217 0.0
H918 H 0.02925 0.86767 0.07631 0.0
H919 H 0.07997 0.88662 0.13961 0.0
H920 H 0.04121 0.96447 0.12919 0.0
H921 H 0.04308 0.92004 0.13925 0.0
H922 H 0.06695 0.90217 0.06075 0.0
H923 H 0.06556 0.94704 0.05081 0.0
C924 C 0.03763 0.83717 0.1001 0.0
C925 C 0.05072 0.82967 0.12163 0.0
C926 C 0.03993 0.86231 0.09269 0.0
C927 C 0.05489 0.88055 0.10698 0.0
C928 C 0.06827 0.87297 0.12828 0.0
C929 C 0.06642 0.84778 0.13538 0.0
C930 C 0.04701 0.95107 0.11414 0.0
C931 C 0.05319 0.95914 0.08922 0.0
C932 C 0.04823 0.92569 0.11991 0.0
C933 C 0.05513 0.90766 0.10078 0.0
C934 C 0.06148 0.91569 0.07583 0.0
C935 C 0.06086 0.94128 0.07018 0.0
H936 H 0.0237 0.63749 0.14485 0.0
H937 H 1.00563 0.67174 0.07467 0.0
H938 H 1.01317 0.59579 0.12571 0.0
H939 H 0.99544 0.62977 0.05495 0.0
H940 H 0.94885 0.5501 0.04514 0.0
H941 H 0.96191 0.59369 0.05835 0.0
H942 H 0.03165 0.56741 0.09338 0.0
H943 H 0.01826 0.52428 0.08097 0.0
C944 C 0.01767 0.6359 0.12518 0.0
C945 C 0.01546 0.65749 0.1111 0.0
C946 C 1.01178 0.61212 0.11414 0.0
C947 C 1.00372 0.60946 0.08869 0.0
C948 C 1.00147 0.63123 0.0746 0.0
C949 C 1.00739 0.65513 0.08574 0.0
C950 C 0.96718 0.55383 0.05527 0.0
C951 C 0.98231 0.53388 0.06244 0.0
C952 C 0.97468 0.57872 0.06281 0.0
C953 C 0.99751 0.58389 0.0774 0.0
C954 C 1.01355 0.56399 0.08283 0.0
C955 C 1.00595 0.53929 0.07559 0.0
H956 H 0.38189 0.99713 0.11933 0.0
H957 H 0.43569 0.05041 0.15801 0.0
H958 H 0.40846 1.00235 0.07943 0.0
H959 H 0.46304 0.05482 0.11864 0.0
H960 H 0.48073 0.08561 0.03978 0.0
H961 H 0.46033 0.07458 0.08052 0.0
H962 H 0.44816 0.99728 0.05302 0.0
H963 H 0.46799 1.00894 1.01096 0.0
C964 C 0.39972 1.00962 0.1194 0.0
C965 C 0.40647 0.02363 0.14177 0.0
C966 C 0.41511 0.01251 0.09651 0.0
C967 C 0.43789 0.02927 0.09545 0.0
C968 C 0.44529 0.04227 0.1183 0.0
C969 C 0.42965 0.03972 0.141 0.0
C970 C 0.47401 0.06612 0.0423 0.0
C971 C 0.47588 0.04821 0.02187 0.0
C972 C 0.46244 0.05968 0.06601 0.0
C973 C 0.45246 0.03495 0.07044 0.0
C974 C 0.4553 0.01661 0.05033 0.0
C975 C 0.46696 0.02317 0.02628 0.0
H976 H 0.6999 0.47502 0.20624 0.0
H977 H 0.61657 0.48008 0.22966 0.0
H978 H 0.68818 0.4748 0.16127 0.0
H979 H 0.60457 0.48033 0.1847 0.0
H980 H 0.59077 0.46087 0.09996 0.0
H981 H 0.60256 0.45546 0.14424 0.0
H982 H 0.67267 0.50542 0.13283 0.0
H983 H 0.66142 0.51013 0.08865 0.0
C984 C 0.67903 0.47583 0.2016 0.0
C985 C 0.65907 0.47755 0.22111 0.0
C986 C 0.67229 0.47591 0.17595 0.0
C987 C 0.64543 0.47773 0.16935 0.0
C988 C 0.62539 0.47866 0.18907 0.0
C989 C 0.63219 0.47862 0.21475 0.0
C990 C 0.60884 0.47046 0.10684 0.0
C991 C 0.62504 0.48605 0.09071 0.0
C992 C 0.61548 0.46754 0.13228 0.0
C993 C 0.63858 0.47999 0.14212 0.0
C994 C 0.65491 0.49529 0.12586 0.0
C995 C 0.64824 0.49828 0.10055 0.0
H996 H 0.32959 0.98857 0.33097 0.0
H997 H 0.40833 0.01837 0.30786 0.0
H998 H 0.34515 0.98196 0.37394 0.0
H999 H 0.42373 0.01316 0.35086 0.0
H1000 H 0.4519 0.97064 0.41776 0.0
H1001 H 0.4355 0.98178 0.37706 0.0
H1002 H 0.35959 0.99985 0.41418 0.0
H1003 H 0.37613 0.98737 0.45529 0.0
C1004 C 0.3502 0.99389 0.33523 0.0
C1005 C 0.36774 1.00406 0.31615 0.0
C1006 C 0.35908 0.9904 0.35994 0.0
C1007 C 0.3858 0.997 0.36618 0.0
C1008 C 0.40317 1.00742 0.34692 0.0
C1009 C 0.39434 0.01062 0.32224 0.0
C1010 C 0.43177 0.9772 0.41734 0.0
C1011 C 0.41529 0.97792 0.4398 0.0
C1012 C 0.42234 0.98385 0.39389 0.0
C1013 C 0.39606 0.99173 0.39198 0.0
C1014 C 0.37982 0.99354 0.41471 0.0
C1015 C 0.38936 0.98677 0.43838 0.0
H1016 H 0.61166 0.46554 0.39388 0.0
H1017 H 0.66591 0.52907 0.41138 0.0
H1018 H 0.58663 0.47329 0.43483 0.0
H1019 H 0.64112 0.53674 0.45173 0.0
H1020 H 0.57297 0.56411 0.50198 0.0
H1021 H 0.59271 0.55084 0.46095 0.0
H1022 H 0.59571 0.47495 0.48677 0.0
H1023 H 0.57581 0.48844 0.52883 0.0
C1024 C 0.6182 0.48114 0.40639 0.0
C1025 C 0.64082 0.49668 0.39932 0.0
C1026 C 0.60403 0.48541 0.42991 0.0
C1027 C 0.61188 0.50563 0.44653 0.0
C1028 C 0.63447 0.52106 0.43936 0.0
C1029 C 0.64877 0.5166 0.41623 0.0
C1030 C 0.5775 0.54446 0.49905 0.0
C1031 C 0.57312 0.52744 0.51899 0.0
C1032 C 0.58889 0.53689 0.47542 0.0
C1033 C 0.59623 0.51198 0.47069 0.0
C1034 C 0.5903 0.49433 0.48989 0.0
C1035 C 0.57887 0.50202 0.51392 0.0
H1036 H 0.15291 0.3879 0.98831 0.0
H1037 H 0.17851 0.45748 0.02734 0.0
H1038 H 0.10733 0.40166 0.98867 0.0
H1039 H 0.13324 0.47213 0.02587 0.0
H1040 H 0.04658 0.47085 0.05787 0.0
H1041 H 0.09325 0.46389 0.04831 0.0
H1042 H 0.07279 0.42696 0.97624 0.0
H1043 H 0.02495 0.43334 0.98668 0.0
C1044 C 0.14896 0.40629 0.99682 0.0
C1045 C 0.16955 0.42116 1.00858 0.0
C1046 C 0.12269 0.41442 0.99656 0.0
C1047 C 0.1161 0.4379 1.00772 0.0
C1048 C 0.13714 0.4536 0.01771 0.0
C1049 C 0.16338 0.44531 0.01827 0.0
C1050 C 0.05196 0.46153 0.03974 0.0
C1051 C 0.03192 0.45244 0.02315 0.0
C1052 C 0.079 0.45773 0.03408 0.0
C1053 C 0.08725 0.44475 0.01147 0.0
C1054 C 0.06731 0.43675 0.99405 0.0
C1055 C 0.03988 0.44064 0.9998 0.0
H1056 H 0.15774 0.66987 0.51359 0.0
H1057 H 0.19709 0.60335 0.4858 0.0
H1058 H 0.11423 0.64924 0.50492 0.0
H1059 H 0.15376 0.58309 0.47511 0.0
H1060 H 0.06955 0.54558 0.47486 0.0
H1061 H 0.11265 0.56418 0.48856 0.0
H1062 H 0.08728 0.63813 0.47144 0.0
H1063 H 0.04416 0.61974 0.45931 0.0
C1064 C 0.15697 0.65084 0.50537 0.0
C1065 C 0.1807 0.63836 0.49988 0.0
C1066 C 0.13206 0.63903 0.50012 0.0
C1067 C 0.13024 0.61453 0.48879 0.0
C1068 C 0.15413 0.60183 0.48395 0.0
C1069 C 0.17904 0.61352 0.48973 0.0
C1070 C 0.07323 0.56583 0.47428 0.0
C1071 C 0.05336 0.58118 0.46622 0.0
C1072 C 0.09803 0.57653 0.48195 0.0
C1073 C 0.10366 0.60281 0.48132 0.0
C1074 C 0.08368 0.61797 0.47297 0.0
C1075 C 0.05887 0.60736 0.46578 0.0
H1076 H 0.86152 0.8666 0.52726 0.0
H1077 H 0.83979 0.93207 0.48811 0.0
H1078 H 0.90922 0.87907 0.52029 0.0
H1079 H 0.88734 0.94405 0.48027 0.0
H1080 H 0.97087 0.93149 0.44049 0.0
H1081 H 0.92405 0.9227 0.45277 0.0
H1082 H 0.94509 0.91592 0.53123 0.0
H1083 H 0.99271 0.92528 0.51888 0.0
C1084 C 0.86702 0.88358 0.51704 0.0
C1085 C 0.84704 0.89786 0.50734 0.0
C1086 C 0.89425 0.89081 0.51324 0.0
C1087 C 0.90202 0.91242 0.49956 0.0
C1088 C 0.88195 0.92709 0.49055 0.0
C1089 C 0.85475 0.92005 0.49468 0.0
C1090 C 0.96566 0.92822 0.46044 0.0
C1091 C 0.9856 0.92895 0.47871 0.0
C1092 C 0.93872 0.92335 0.46747 0.0
C1093 C 0.93084 0.91868 0.49294 0.0
C1094 C 0.95065 0.91941 0.51141 0.0
C1095 C 0.97782 0.92485 0.5044 0.0
H1096 H 0.35161 0.60038 0.51399 0.0
H1097 H 0.36945 0.66123 0.56851 0.0
H1098 H 0.39394 0.58153 0.52306 0.0
H1099 H 0.41157 0.64255 0.5774 0.0
H1100 H 0.49822 0.62002 0.5601 0.0
H1101 H 0.45492 0.63586 0.55095 0.0
H1102 H 0.41734 0.56182 0.56126 0.0
H1103 H 0.46099 0.54578 0.5709 0.0
C1104 C 0.36451 0.60969 0.52792 0.0
C1105 C 0.35711 0.63231 0.54054 0.0
C1106 C 0.38864 0.59881 0.53323 0.0
C1107 C 0.40615 0.61059 0.55088 0.0
C1108 C 0.39862 0.63309 0.56358 0.0
C1109 C 0.37437 0.6437 0.55862 0.0
C1110 C 0.48083 0.60697 0.56036 0.0
C1111 C 0.48317 0.58158 0.56632 0.0
C1112 C 0.45594 0.61615 0.55523 0.0
C1113 C 0.43265 0.60017 0.55554 0.0
C1114 C 0.43496 0.57458 0.56081 0.0
C1115 C 0.45992 0.56543 0.56639 0.0
H1116 H 0.50575 0.63501 0.89565 0.0
H1117 H 0.58271 0.65901 0.92519 0.0
H1118 H 0.50928 0.59364 0.91356 0.0
H1119 H 0.5866 0.61738 0.94246 0.0
H1120 H 0.57429 0.54755 0.99048 0.0
H1121 H 0.56758 0.58951 0.97529 0.0
H1122 H 0.53538 0.55628 0.90584 0.0
H1123 H 0.54176 0.51425 0.92116 0.0
C1124 C 0.52332 0.63157 0.90618 0.0
C1125 C 0.54393 0.65044 0.90898 0.0
C1126 C 0.52549 0.60771 0.91619 0.0
C1127 C 0.54827 0.60207 0.9294 0.0
C1128 C 0.56866 0.62108 0.93261 0.0
C1129 C 0.56655 0.64491 0.92248 0.0
C1130 C 0.56555 0.54914 0.97206 0.0
C1131 C 0.55857 0.52745 0.95705 0.0
C1132 C 0.56189 0.57325 0.96326 0.0
C1133 C 0.55106 0.57635 0.93927 0.0
C1134 C 0.54352 0.55464 0.92452 0.0
C1135 C 0.54728 0.53051 0.93327 0.0
H1136 H 0.51013 0.82486 0.92258 0.0
H1137 H 0.55109 0.83951 0.85022 0.0
H1138 H 0.50776 0.87016 0.93169 0.0
H1139 H 0.55157 0.88446 0.86018 0.0
H1140 H 0.52373 0.96292 0.86737 0.0
H1141 H 0.52739 0.91841 0.861 0.0
H1142 H 0.52515 0.90987 0.94292 0.0
H1143 H 0.51869 0.95517 0.94922 0.0
C1144 C 0.51851 0.83781 0.90852 0.0
C1145 C 0.52982 0.82851 0.88517 0.0
C1146 C 0.5177 0.86396 0.91398 0.0
C1147 C 0.52897 0.88164 0.89658 0.0
C1148 C 0.54158 0.872 0.87383 0.0
C1149 C 0.54167 0.846 0.86812 0.0
C1150 C 0.52358 0.95175 0.88422 0.0
C1151 C 0.5202 0.96301 0.90888 0.0
C1152 C 0.52633 0.92582 0.88051 0.0
C1153 C 0.52676 0.90982 0.90132 0.0
C1154 C 0.52447 0.92116 0.9262 0.0
C1155 C 0.52115 0.94736 0.92993 0.0
H1156 H 0.5233 0.31154 0.61283 0.0
H1157 H 0.53096 0.3291 0.69324 0.0
H1158 H 0.52488 0.35671 0.60423 0.0
H1159 H 0.53308 0.37421 0.68492 0.0
H1160 H 0.50176 0.45007 0.66493 0.0
H1161 H 0.50357 0.40549 0.67277 0.0
H1162 H 0.55316 0.39559 0.60388 0.0
H1163 H 0.55053 0.44042 0.59552 0.0
C1164 C 0.52555 0.32519 0.62858 0.0
C1165 C 0.52691 0.31707 0.65366 0.0
C1166 C 0.52664 0.35102 0.62371 0.0
C1167 C 0.52902 0.36923 0.64387 0.0
C1168 C 0.53083 0.36083 0.66895 0.0
C1169 C 0.52977 0.33504 0.67376 0.0
C1170 C 0.51293 0.43846 0.65129 0.0
C1171 C 0.52579 0.44895 0.62943 0.0
C1172 C 0.51426 0.41283 0.65599 0.0
C1173 C 0.52853 0.39679 0.639 0.0
C1174 C 0.54175 0.40729 0.61727 0.0
C1175 C 0.54048 0.43307 0.61259 0.0
H1176 H 0.45928 0.13894 0.64552 0.0
H1177 H 0.52608 0.14886 0.59122 0.0
H1178 H 0.44623 0.09887 0.62428 0.0
H1179 H 0.51306 0.10825 0.56985 0.0
H1180 H 0.46296 0.03655 0.53366 0.0
H1181 H 0.47299 0.08096 0.5466 0.0
H1182 H 0.47466 0.05988 0.62533 0.0
H1183 H 0.46493 0.01621 0.61279 0.0
C1184 C 0.47086 0.13268 0.6287 0.0
C1185 C 0.4939 0.14663 0.62019 0.0
C1186 C 0.46342 0.10981 0.61658 0.0
C1187 C 0.47894 0.10034 0.59575 0.0
C1188 C 0.50079 0.11521 0.58588 0.0
C1189 C 0.50824 0.13833 0.59806 0.0
C1190 C 0.4656 0.04149 0.55369 0.0
C1191 C 0.463 0.02287 0.5722 0.0
C1192 C 0.47136 0.06681 0.56103 0.0
C1193 C 0.47417 0.07378 0.58697 0.0
C1194 C 0.4721 0.05507 0.60525 0.0
C1195 C 0.46667 0.02998 0.59798 0.0
H1196 H 0.88275 0.56666 0.63417 0.0
H1197 H 0.90689 0.48964 0.6339 0.0
H1198 H 0.90458 0.57175 0.59254 0.0
H1199 H 0.92622 0.49395 0.59097 0.0
H1200 H 0.97844 0.51438 0.52012 0.0
H1201 H 0.96001 0.5094 0.56374 0.0
H1202 H 0.90023 0.56296 0.5501 0.0
H1203 H 0.91983 0.56899 0.5075 0.0
C1204 C 0.8927 0.55071 0.62541 0.0
C1205 C 0.89275 0.52767 0.63786 0.0
C1206 C 0.90484 0.5535 0.60099 0.0
C1207 C 0.91697 0.53318 0.58777 0.0
C1208 C 0.91737 0.51021 0.60032 0.0
C1209 C 0.90571 0.50758 0.62501 0.0
C1210 C 0.96136 0.52505 0.52657 0.0
C1211 C 0.95074 0.5422 0.5104 0.0
C1212 C 0.95062 0.52213 0.55161 0.0
C1213 C 0.92859 0.53593 0.56095 0.0
C1214 C 0.91764 0.55253 0.54427 0.0
C1215 C 0.92873 0.55583 0.51957 0.0
H1216 H 0.10673 0.99254 0.70356 0.0
H1217 H 0.16917 0.94537 0.67292 0.0
H1218 H 0.08488 0.98873 0.66266 0.0
H1219 H 0.14742 0.94161 0.63211 0.0
H1220 H 0.09745 0.93184 0.5624 0.0
H1221 H 0.10851 0.9273 0.60709 0.0
H1222 H 0.09821 1.00686 0.62172 0.0
H1223 H 0.0866 0.01114 0.57752 0.0
C1224 C 0.11558 0.98108 0.68821 0.0
C1225 C 0.13985 0.96951 0.69139 0.0
C1226 C 0.10308 0.9789 0.6648 0.0
C1227 C 0.1146 0.96514 0.64404 0.0
C1228 C 0.13787 0.95216 0.64777 0.0
C1229 C 0.15036 0.95432 0.6712 0.0
C1230 C 0.097 0.94818 0.57536 0.0
C1231 C 0.09145 0.97191 0.56643 0.0
C1232 C 0.10352 0.94564 0.60087 0.0
C1233 C 0.10433 0.96673 0.61794 0.0
C1234 C 0.0975 0.99016 0.6092 0.0
C1235 C 0.09118 0.99271 0.58377 0.0
H1236 H 0.91244 0.48538 0.80542 0.0
H1237 H 0.84234 0.52354 0.83315 0.0
H1238 H 0.92497 0.47976 0.84951 0.0
H1239 H 0.85567 0.51994 0.87697 0.0
H1240 H 0.86528 0.48223 0.95134 0.0
H1241 H 0.856 0.4908 0.90786 0.0
H1242 H 0.94111 0.49667 0.88872 0.0
H1243 H 0.95031 0.48613 0.93272 0.0
C1244 C 0.89967 0.49247 0.82102 0.0
C1245 C 0.87593 0.50412 0.81592 0.0
C1246 C 0.9071 0.48971 0.84633 0.0
C1247 C 0.89123 0.49905 0.86716 0.0
C1248 C 0.86809 0.51172 0.86174 0.0
C1249 C 0.86046 0.51401 0.83655 0.0
C1250 C 0.88214 0.48518 0.93794 0.0
C1251 C 0.90857 0.483 0.94558 0.0
C1252 C 0.87679 0.49056 0.91284 0.0
C1253 C 0.89771 0.49453 0.89437 0.0
C1254 C 0.92436 0.49337 0.90218 0.0
C1255 C 0.92973 0.48768 0.92752 0.0
H1256 H 0.12921 0.016 0.84108 0.0
H1257 H 0.20021 0.99765 0.87899 0.0
H1258 H 0.1058 0.02277 0.88271 0.0
H1259 H 0.17668 1.00386 0.92075 0.0
H1260 H 0.1176 1.00079 0.99208 0.0
H1261 H 0.13671 0.98734 0.94983 0.0
H1262 H 0.112 0.05585 0.9181 0.0
H1263 H 0.09359 0.06929 0.95994 0.0
C1264 C 0.13973 0.01328 0.85836 0.0
C1265 C 0.16665 1.00666 0.85678 0.0
C1266 C 0.12634 0.01709 0.88221 0.0
C1267 C 0.13935 0.01391 0.90515 0.0
C1268 C 0.16596 1.00626 0.90352 0.0
C1269 C 0.17949 1.00282 0.87963 0.0
C1270 C 0.11579 0.01263 0.9759 0.0
C1271 C 0.10395 0.03603 0.97932 0.0
C1272 C 0.12696 1.00508 0.95178 0.0
C1273 C 0.12593 0.02053 0.93051 0.0
C1274 C 0.11298 0.04336 0.93388 0.0
C1275 C 0.10243 0.05108 0.95792 0.0
H1276 H 0.66135 0.92279 0.49958 0.0
H1277 H 0.64515 0.8829 0.56928 0.0
H1278 H 0.61521 0.93725 0.50207 0.0
H1279 H 0.59949 0.89634 0.57134 0.0
H1280 H 0.52747 0.94057 0.58468 0.0
H1281 H 0.57457 0.93237 0.57993 0.0
H1282 H 0.56751 0.92181 0.49824 0.0
H1283 H 0.51967 0.93104 0.50301 0.0
C1284 C 0.64809 0.91738 0.51557 0.0
C1285 C 0.65698 0.90169 0.53424 0.0
C1286 C 0.62154 0.92536 0.51681 0.0
C1287 C 0.60345 0.91802 0.53692 0.0
C1288 C 0.61275 0.90278 0.55576 0.0
C1289 C 0.63901 0.89487 0.55449 0.0
C1290 C 0.53578 0.93654 0.56559 0.0
C1291 C 0.51951 0.93607 0.54425 0.0
C1292 C 0.56296 0.93173 0.56288 0.0
C1293 C 0.57496 0.92589 0.53876 0.0
C1294 C 0.55902 0.92628 0.51714 0.0
C1295 C 0.53156 0.93141 0.51985 0.0
H1296 H 0.68602 0.18352 0.98406 0.0
H1297 H 0.71643 0.11131 0.99895 0.0
H1298 H 0.64187 0.16336 0.97623 0.0
H1299 H 0.672 0.09083 0.99136 0.0
H1300 H 0.59201 0.06445 0.94997 0.0
H1301 H 0.63797 0.08126 0.95724 0.0
H1302 H 0.60628 0.14297 1.00308 0.0
H1303 H 0.56101 0.12656 0.99585 0.0
C1304 C 0.68313 0.16327 0.98559 0.0
C1305 C 0.70435 0.14893 0.99228 0.0
C1306 C 0.65788 0.1517 0.98125 0.0
C1307 C 0.6533 0.12547 0.98344 0.0
C1308 C 0.67488 0.11102 0.98943 0.0
C1309 C 0.70019 0.12269 0.9939 0.0
C1310 C 0.59495 0.08142 0.96184 0.0
C1311 C 0.57276 0.09425 0.97208 0.0
C1312 C 0.62125 0.09106 0.966 0.0
C1313 C 0.62578 0.11373 0.98036 0.0
C1314 C 0.60356 0.12583 0.9914 0.0
C1315 C 0.57751 0.11626 0.98735 0.0
H1316 H 0.36694 0.41169 0.05469 0.0
H1317 H 0.36982 0.42616 0.97385 0.0
H1318 H 0.41454 0.42262 0.05604 0.0
H1319 H 0.41701 0.43694 0.97552 0.0
H1320 H 0.49435 0.48083 0.98914 0.0
H1321 H 0.44607 0.4717 0.99353 0.0
H1322 H 0.45959 0.40857 0.04015 0.0
H1323 H 0.50831 0.41801 0.03568 0.0
C1324 C 0.37704 0.41812 0.0373 0.0
C1325 C 0.36292 0.42034 0.01464 0.0
C1326 C 0.40477 0.42388 0.03809 0.0
C1327 C 0.41954 0.43168 0.01614 0.0
C1328 C 0.40607 0.43217 0.99313 0.0
C1329 C 0.37844 0.42621 0.9923 0.0
C1330 C 0.48694 0.46557 1.00112 0.0
C1331 C 0.50503 0.4505 0.01257 0.0
C1332 C 0.45929 0.46004 1.00327 0.0
C1333 C 0.44886 0.43913 0.01683 0.0
C1334 C 0.46689 0.42488 0.02964 0.0
C1335 C 0.49477 0.4304 0.02735 0.0
H1336 H 0.87884 0.11768 0.98499 0.0
H1337 H 0.89753 0.1681 0.049 0.0
H1338 H 0.92258 0.09893 0.98766 0.0
H1339 H 0.9413 0.14975 0.05131 0.0
H1340 H 0.02823 0.13184 0.02495 0.0
H1341 H 0.98413 0.1486 0.02039 0.0
H1342 H 0.94773 0.07328 0.02184 0.0
H1343 H 0.99195 0.05637 0.02705 0.0
C1344 C 0.89229 0.12474 0.99961 0.0
C1345 C 0.88468 0.14433 0.01683 0.0
C1346 C 0.91725 0.11395 1.00119 0.0
C1347 C 0.93543 0.12293 0.01963 0.0
C1348 C 0.92781 0.14253 0.0368 0.0
C1349 C 0.90267 0.15291 0.03558 0.0
C1350 C 1.01092 0.11875 0.02403 0.0
C1351 C 1.01372 0.09271 0.02636 0.0
C1352 C 0.98561 0.12841 0.02159 0.0
C1353 C 0.96243 0.11229 0.0209 0.0
C1354 C 0.96524 0.08616 0.02225 0.0
C1355 C 0.99056 0.0765 0.02524 0.0
H1356 H 0.03436 0.21253 0.20432 0.0
H1357 H 0.05385 0.14988 0.2488 0.0
H1358 H 0.0418 0.18713 0.16482 0.0
H1359 H 0.06179 0.12441 0.20945 0.0
H1360 H 0.08797 0.14508 0.10056 0.0
H1361 H 0.07858 0.16937 0.13984 0.0
H1362 H 0.03934 0.10341 0.17325 0.0
H1363 H 0.04912 0.07878 0.13375 0.0
C1364 C 0.04042 0.19334 0.20553 0.0
C1365 C 0.04394 0.18321 0.22942 0.0
C1366 C 0.04477 0.17878 0.18298 0.0
C1367 C 0.05255 0.15369 0.18387 0.0
C1368 C 0.05561 0.14353 0.20797 0.0
C1369 C 0.05133 0.15813 0.23048 0.0
C1370 C 0.0773 0.13564 0.11622 0.0
C1371 C 0.06933 0.10988 0.11391 0.0
C1372 C 0.07174 0.1497 0.13876 0.0
C1373 C 0.05808 0.13847 0.15977 0.0
C1374 C 0.05011 0.11266 0.15755 0.0
C1375 C 0.05561 0.09855 0.13486 0.0
H1376 H 0.06324 0.31272 0.22011 0.0
H1377 H 0.99168 0.33699 0.26113 0.0
H1378 H 0.06151 0.34799 0.19159 0.0
H1379 H 0.98945 0.37161 0.23227 0.0
H1380 H 1.00339 0.44309 0.19086 0.0
H1381 H 1.01285 0.41118 0.22074 0.0
H1382 H 0.03224 0.35977 0.15758 0.0
H1383 H 0.02388 0.39218 0.12752 0.0
C1384 C 0.0473 0.32572 0.22314 0.0
C1385 C 0.02751 0.32209 0.24272 0.0
C1386 C 0.04617 0.34573 0.2067 0.0
C1387 C 0.02534 0.36252 0.20969 0.0
C1388 C 1.00593 0.35916 0.22966 0.0
C1389 C 1.00701 0.33917 0.246 0.0
C1390 C 1.01025 0.42524 0.18325 0.0
C1391 C 1.01266 0.42016 0.15672 0.0
C1392 C 1.01538 0.40683 0.20043 0.0
C1393 C 0.02297 0.3829 0.19151 0.0
C1394 C 0.02652 0.3781 0.16503 0.0
C1395 C 0.02141 0.39656 0.14781 0.0
H1396 H 0.06349 0.81222 0.22218 0.0
H1397 H 0.04014 0.7588 0.27998 0.0
H1398 H 0.06708 0.84604 0.25519 0.0
H1399 H 0.04331 0.7925 0.31313 0.0
H1400 H 0.06697 0.85648 0.36852 0.0
H1401 H 0.07396 0.82375 0.3352 0.0
H1402 H 0.03247 0.86686 0.28227 0.0
H1403 H 0.0261 0.89974 0.31531 0.0
C1404 C 0.0596 0.8078 0.24208 0.0
C1405 C 0.05156 0.78322 0.24884 0.0
C1406 C 0.06147 0.82704 0.26089 0.0
C1407 C 0.05532 0.82191 0.28669 0.0
C1408 C 0.04845 0.79695 0.29345 0.0
C1409 C 0.04652 0.77774 0.2746 0.0
C1410 C 0.0598 0.85914 0.34963 0.0
C1411 C 0.04582 0.88058 0.34453 0.0
C1412 C 0.06361 0.84033 0.33065 0.0
C1413 C 0.05372 0.84274 0.30618 0.0
C1414 C 0.04057 0.86459 0.30087 0.0
C1415 C 0.03663 0.88328 0.31986 0.0
H1416 H 0.04205 0.60943 0.23541 0.0
H1417 H 1.00025 0.66656 0.27965 0.0
H1418 H 0.04081 0.58308 0.2732 0.0
H1419 H 0.99895 0.64044 0.31687 0.0
H1420 H 0.02952 0.6066 0.38521 0.0
H1421 H 0.03642 0.62692 0.34443 0.0
H1422 H 1.00442 0.55976 0.30537 0.0
H1423 H 0.99742 0.53916 0.3468 0.0
C1424 C 0.03253 0.61631 0.2531 0.0
C1425 C 0.0212 0.64012 0.25446 0.0
C1426 C 0.03169 0.60117 0.27464 0.0
C1427 C 0.02 0.60979 0.29804 0.0
C1428 C 1.00836 0.63337 0.29919 0.0
C1429 C 1.00888 0.64826 0.27774 0.0
C1430 C 0.02459 0.59587 0.36787 0.0
C1431 C 1.01283 0.57135 0.36918 0.0
C1432 C 0.02838 0.60759 0.34453 0.0
C1433 C 0.02043 0.59515 0.32176 0.0
C1434 C 1.01068 0.56981 0.32265 0.0
C1435 C 1.00684 0.55796 0.34628 0.0
H1436 H 0.22208 0.01148 0.18976 0.0
H1437 H 0.28354 0.04724 0.14138 0.0
H1438 H 0.18855 0.01891 0.15852 0.0
H1439 H 0.25018 0.05451 0.10972 0.0
H1440 H 0.17576 0.08834 0.07494 0.0
H1441 H 0.21176 0.07954 0.10313 0.0
H1442 H 0.17433 1.0059 0.11664 0.0
H1443 H 0.13833 0.01482 0.08901 0.0
C1444 C 0.22837 0.02074 0.17225 0.0
C1445 C 0.2553 0.02878 0.16792 0.0
C1446 C 0.20924 0.02493 0.15426 0.0
C1447 C 0.21657 0.03729 0.13143 0.0
C1448 C 0.24369 0.0452 0.12712 0.0
C1449 C 0.26283 0.04092 0.14514 0.0
C1450 C 0.17545 0.07014 0.08363 0.0
C1451 C 0.15401 0.05237 0.07975 0.0
C1452 C 0.19612 0.06506 0.09982 0.0
C1453 C 0.19586 0.0421 0.11253 0.0
C1454 C 0.17497 0.024 0.10772 0.0
C1455 C 0.15437 0.02906 0.09163 0.0
H1456 H 0.80944 0.45177 0.21505 0.0
H1457 H 0.76839 0.50732 0.17544 0.0
H1458 H 0.8429 0.44968 0.18008 0.0
H1459 H 0.8026 0.50547 0.14027 0.0
H1460 H 0.86193 0.47115 0.07308 0.0
H1461 H 0.82363 0.4745 0.10432 0.0
H1462 H 0.87865 0.48149 0.16581 0.0
H1463 H 0.91614 0.47834 0.13542 0.0
C1464 C 0.80731 0.46335 0.19874 0.0
C1465 C 0.78612 0.47974 0.19821 0.0
C1466 C 0.82669 0.46229 0.17871 0.0
C1467 C 0.82557 0.47753 0.1574 0.0
C1468 C 0.80399 0.49342 0.15635 0.0
C1469 C 0.78457 0.49466 0.17663 0.0
C1470 C 0.86573 0.47369 0.09324 0.0
C1471 C 0.89218 0.47409 0.10163 0.0
C1472 C 0.84385 0.47561 0.11112 0.0
C1473 C 0.84809 0.47777 0.13762 0.0
C1474 C 0.87456 0.47924 0.14567 0.0
C1475 C 0.89615 0.47749 0.12806 0.0
H1476 H 0.20146 0.98789 0.29439 0.0
H1477 H 0.25413 0.02023 0.35144 0.0
H1478 H 0.16816 0.97648 0.32772 0.0
H1479 H 0.22077 1.00823 0.38527 0.0
H1480 H 0.13865 0.99933 0.43454 0.0
H1481 H 0.17497 0.01429 0.40478 0.0
H1482 H 0.16527 0.94498 0.35954 0.0
H1483 H 0.12894 0.93064 0.38852 0.0
C1484 C 0.20584 0.99262 0.31414 0.0
C1485 C 0.23048 1.00468 0.32034 0.0
C1486 C 0.18685 0.98593 0.3333 0.0
C1487 C 0.19205 0.99085 0.35927 0.0
C1488 C 0.21617 1.00411 0.36548 0.0
C1489 C 0.23522 0.01101 0.34615 0.0
C1490 C 0.14477 0.9872 0.41849 0.0
C1491 C 0.13083 0.96397 0.41365 0.0
C1492 C 0.16547 0.99576 0.40141 0.0
C1493 C 0.17255 0.98112 0.37938 0.0
C1494 C 0.15978 0.95714 0.37579 0.0
C1495 C 0.1391 0.94878 0.39256 0.0
H1496 H 0.82024 0.51215 0.30425 0.0
H1497 H 0.78264 0.4801 0.37211 0.0
H1498 H 0.86117 0.52261 0.3277 0.0
H1499 H 0.82382 0.48955 0.39519 0.0
H1500 H 0.91602 0.49121 0.41479 0.0
H1501 H 0.87653 0.47752 0.39056 0.0
H1502 H 0.86768 0.55419 0.36917 0.0
H1503 H 0.90655 0.56804 0.39381 0.0
C1504 C 0.82106 0.50679 0.32396 0.0
C1505 C 0.79862 0.49487 0.33626 0.0
C1506 C 0.8443 0.51286 0.33736 0.0
C1507 C 0.84557 0.50674 0.36316 0.0
C1508 C 0.82341 0.49414 0.37523 0.0
C1509 C 0.79998 0.4886 0.362 0.0
C1510 C 0.90552 0.50513 0.40505 0.0
C1511 C 0.91427 0.53071 0.4063 0.0
C1512 C 0.88301 0.4973 0.39121 0.0
C1513 C 0.86932 0.51481 0.3779 0.0
C1514 C 0.8781 0.54032 0.37909 0.0
C1515 C 0.90018 0.54824 0.39336 0.0
H1516 H 0.27034 0.26178 0.01519 0.0
H1517 H 0.20041 0.30618 0.02222 0.0
H1518 H 0.24141 0.22291 0.01712 0.0
H1519 H 0.17155 0.26783 0.0248 0.0
H1520 H 0.1283 0.19666 0.99471 0.0
H1521 H 0.15822 0.234 0.99538 0.0
H1522 H 0.2096 0.19826 0.04601 0.0
H1523 H 0.17973 0.1601 0.04456 0.0
C1524 C 0.24878 0.26307 0.0172 0.0
C1525 C 0.23737 0.28665 0.01829 0.0
C1526 C 0.23227 0.24099 0.01855 0.0
C1527 C 0.20418 0.24231 0.02099 0.0
C1528 C 0.19304 0.26612 0.0225 0.0
C1529 C 0.20946 0.28804 0.02107 0.0
C1530 C 0.14604 0.19662 1.00587 0.0
C1531 C 0.15176 0.17533 0.01941 0.0
C1532 C 0.16307 0.21817 1.00649 0.0
C1533 C 0.18627 0.21914 0.02079 0.0
C1534 C 0.19196 0.19798 0.03464 0.0
C1535 C 0.17476 0.17628 0.03406 0.0
H1536 H 0.14677 0.76885 0.52213 0.0
H1537 H 0.2001 0.7932 0.45956 0.0
H1538 H 0.11728 0.80261 0.51397 0.0
H1539 H 0.16972 0.82589 0.45076 0.0
H1540 H 0.09421 0.86518 0.42772 0.0
H1541 H 0.12105 0.82933 0.43613 0.0
H1542 H 0.12104 0.85173 0.5162 0.0
H1543 H 0.09462 0.88787 0.50779 0.0
C1544 C 0.1524 0.7813 0.50669 0.0
C1545 C 0.17614 0.77802 0.49161 0.0
C1546 C 0.13528 0.80059 0.50193 0.0
C1547 C 0.14109 0.81686 0.48165 0.0
C1548 C 0.16448 0.81344 0.46631 0.0
C1549 C 0.18186 0.79449 0.47134 0.0
C1550 C 0.09963 0.8623 0.44718 0.0
C1551 C 0.09223 0.87943 0.46708 0.0
C1552 C 0.11518 0.84186 0.45195 0.0
C1553 C 0.12326 0.83774 0.47681 0.0
C1554 C 0.11502 0.85431 0.49687 0.0
C1555 C 0.09993 0.87504 0.49203 0.0
H1556 H 0.87958 0.78854 0.47631 0.0
H1557 H 0.83182 0.74498 0.53098 0.0
H1558 H 0.90471 0.75166 0.46392 0.0
H1559 H 0.85619 0.70747 0.51788 0.0
H1560 H 0.92208 0.64938 0.4996 0.0
H1561 H 0.8968 0.6854 0.51621 0.0
H1562 H 0.89782 0.71414 0.43994 0.0
H1563 H 0.92384 0.67897 0.42406 0.0
C1564 C 0.87459 0.77101 0.48576 0.0
C1565 C 0.85375 0.7696 0.50455 0.0
C1566 C 0.88876 0.74973 0.47847 0.0
C1567 C 0.88214 0.72626 0.48941 0.0
C1568 C 0.86197 0.72514 0.50905 0.0
C1569 C 0.84801 0.74663 0.51661 0.0
C1570 C 0.91643 0.6633 0.4865 0.0
C1571 C 0.92499 0.66159 0.46062 0.0
C1572 C 0.90203 0.68397 0.49594 0.0
C1573 C 0.89572 0.70314 0.47957 0.0
C1574 C 0.90306 0.70038 0.45339 0.0
C1575 C 0.91769 0.68005 0.44414 0.0
H1576 H 0.35258 0.74955 0.55107 0.0
H1577 H 0.3039 0.79446 0.50636 0.0
H1578 H 0.38429 0.78589 0.5574 0.0
H1579 H 0.33528 0.83083 0.51265 0.0
H1580 H 0.40801 0.88379 0.50717 0.0
H1581 H 0.38137 0.84476 0.50002 0.0
H1582 H 0.38582 0.82803 0.57979 0.0
H1583 H 0.41289 0.86712 0.58699 0.0
C1584 C 0.34878 0.76728 0.54264 0.0
C1585 C 0.32599 0.76942 0.52824 0.0
C1586 C 0.36679 0.78803 0.5463 0.0
C1587 C 0.36237 0.8112 0.53543 0.0
C1588 C 0.3395 0.81315 0.52093 0.0
C1589 C 0.32148 0.79247 0.51742 0.0
C1590 C 0.40364 0.87167 0.52317 0.0
C1591 C 0.4124 0.8787 0.54772 0.0
C1592 C 0.3882 0.84937 0.51908 0.0
C1593 C 0.38113 0.8335 0.5394 0.0
C1594 C 0.39101 0.83983 0.56371 0.0
C1595 C 0.40648 0.86224 0.56784 0.0
H1596 H 0.54969 0.64995 0.78694 0.0
H1597 H 0.513 0.70605 0.74463 0.0
H1598 H 0.55104 0.62185 0.7486 0.0
H1599 H 0.51399 0.67811 0.70633 0.0
H1600 H 0.55418 0.6375 0.63733 0.0
H1601 H 0.54858 0.66284 0.67647 0.0
H1602 H 0.52365 0.59605 0.71746 0.0
H1603 H 0.52948 0.57029 0.6778 0.0
C1604 C 0.54172 0.6561 0.76942 0.0
C1605 C 0.53144 0.68017 0.76857 0.0
C1606 C 0.54231 0.64 0.74751 0.0
C1607 C 0.53278 0.6477 0.72424 0.0
C1608 C 0.52187 0.67164 0.72376 0.0
C1609 C 0.52116 0.68763 0.74567 0.0
C1610 C 0.54737 0.62806 0.65458 0.0
C1611 C 0.5423 0.60172 0.65428 0.0
C1612 C 0.54398 0.64273 0.6771 0.0
C1613 C 0.53552 0.63162 0.70021 0.0
C1614 C 0.53035 0.60525 0.70004 0.0
C1615 C 0.53354 0.59048 0.67729 0.0
H1616 H 0.4845 0.79489 0.73724 0.0
H1617 H 0.54181 0.8498 0.76903 0.0
H1618 H 0.47343 0.82465 0.70568 0.0
H1619 H 0.53159 0.87935 0.73654 0.0
H1620 H 0.47898 0.93456 0.69737 0.0
H1621 H 0.4948 0.90493 0.72697 0.0
H1622 H 0.49012 0.84572 0.66824 0.0
H1623 H 0.47298 0.87493 0.63912 0.0
C1624 C 0.49487 0.8133 0.73737 0.0
C1625 C 0.51382 0.82008 0.75582 0.0
C1626 C 0.48878 0.83027 0.71904 0.0
C1627 C 0.50159 0.85443 0.71858 0.0
C1628 C 0.52112 0.861 0.73657 0.0
C1629 C 0.5272 0.84398 0.755 0.0
C1630 C 0.48114 0.91521 0.69078 0.0
C1631 C 0.4744 0.90718 0.66586 0.0
C1632 C 0.4906 0.89828 0.70767 0.0
C1633 C 0.49364 0.87291 0.70002 0.0
C1634 C 0.48766 0.86505 0.67488 0.0
C1635 C 0.47809 0.88194 0.65804 0.0
H1636 H 0.56821 0.34891 0.74514 0.0
H1637 H 0.49914 0.32173 0.79062 0.0
H1638 H 0.57291 0.38599 0.77426 0.0
H1639 H 0.50331 0.35871 0.81872 0.0
H1640 H 0.50264 0.42698 0.86178 0.0
H1641 H 0.50037 0.40569 0.8197 0.0
H1642 H 0.5844 0.39062 0.8218 0.0
H1643 H 0.5866 0.41267 0.86364 0.0
C1644 C 0.55396 0.3509 0.76117 0.0
C1645 C 0.53327 0.33237 0.76555 0.0
C1646 C 0.55653 0.3722 0.77762 0.0
C1647 C 0.5382 0.37542 0.79841 0.0
C1648 C 0.51728 0.35714 0.80239 0.0
C1649 C 0.51492 0.33585 0.78627 0.0
C1650 C 0.52083 0.42016 0.85256 0.0
C1651 C 0.54465 0.42099 0.8658 0.0
C1652 C 0.51956 0.40791 0.82864 0.0
C1653 C 0.54203 0.39595 0.81792 0.0
C1654 C 0.56678 0.39967 0.82967 0.0
C1655 C 0.56809 0.41226 0.85355 0.0
H1656 H 0.53589 0.15405 0.75506 0.0
H1657 H 0.50485 0.21742 0.79838 0.0
H1658 H 0.53457 0.12962 0.79372 0.0
H1659 H 0.50163 0.19269 0.83684 0.0
H1660 H 0.51995 0.15265 0.90736 0.0
H1661 H 0.52531 0.1761 0.86844 0.0
H1662 H 0.50814 0.10752 0.82373 0.0
H1663 H 0.50428 0.08383 0.86301 0.0
C1664 C 0.52894 0.16278 0.773 0.0
C1665 C 0.52123 0.18789 0.77391 0.0
C1666 C 0.52775 0.14864 0.79516 0.0
C1667 C 0.51819 0.15904 0.81878 0.0
C1668 C 0.50986 0.18407 0.81937 0.0
C1669 C 0.51148 0.19829 0.79728 0.0
C1670 C 0.51756 0.14251 0.88919 0.0
C1671 C 0.51164 0.11635 0.88832 0.0
C1672 C 0.52035 0.15606 0.86675 0.0
C1673 C 0.51676 0.144 0.84263 0.0
C1674 C 0.51138 0.11761 0.84176 0.0
C1675 C 0.50907 0.10394 0.86431 0.0
H1676 H 0.7146 0.51122 0.71547 0.0
H1677 H 0.76632 0.5427 0.65563 0.0
H1678 H 0.67539 0.51718 0.69024 0.0
H1679 H 0.7273 0.54834 0.62993 0.0
H1680 H 0.64832 0.58056 0.60524 0.0
H1681 H 0.68849 0.57337 0.62839 0.0
H1682 H 0.65304 0.50188 0.65263 0.0
H1683 H 0.61274 0.50929 0.62999 0.0
C1684 C 0.71748 0.51928 0.69678 0.0
C1685 C 0.74333 0.52657 0.68745 0.0
C1686 C 0.6951 0.52258 0.68222 0.0
C1687 C 0.69807 0.53323 0.65793 0.0
C1688 C 0.72413 0.54039 0.64863 0.0
C1689 C 0.7465 0.53706 0.66323 0.0
C1690 C 0.64919 0.56319 0.6153 0.0
C1691 C 0.62719 0.54556 0.61577 0.0
C1692 C 0.6723 0.55902 0.62855 0.0
C1693 C 0.67405 0.53711 0.64262 0.0
C1694 C 0.65229 0.51919 0.64246 0.0
C1695 C 0.62921 0.52336 0.62926 0.0
H1696 H 0.31248 0.01841 0.70329 0.0
H1697 H 0.25132 0.96496 0.67652 0.0
H1698 H 0.33881 0.01207 0.66325 0.0
H1699 H 0.27743 0.95855 0.63626 0.0
H1700 H 0.35221 0.9292 0.58826 0.0
H1701 H 0.31828 0.9391 0.62151 0.0
H1702 H 0.34223 0.01814 0.61742 0.0
H1703 H 0.37638 1.00791 0.58415 0.0
C1704 C 0.30454 1.00553 0.68863 0.0
C1705 C 0.27984 0.99222 0.69302 0.0
C1706 C 0.31953 1.00197 0.66556 0.0
C1707 C 0.31032 0.98483 0.64625 0.0
C1708 C 0.28536 0.97175 0.65063 0.0
C1709 C 0.27032 0.97544 0.67367 0.0
C1710 C 0.34923 0.94881 0.59351 0.0
C1711 C 0.36641 0.96783 0.58294 0.0
C1712 C 0.32993 0.95453 0.61286 0.0
C1713 C 0.32757 0.97944 0.62256 0.0
C1714 C 0.34362 0.99869 0.61076 0.0
C1715 C 0.36281 0.99294 0.59122 0.0
H1716 H 0.76627 0.52363 0.86433 0.0
H1717 H 0.71304 0.48199 0.81349 0.0
H1718 H 0.7353 0.51386 0.90073 0.0
H1719 H 0.68194 0.4729 0.84924 0.0
H1720 H 0.64407 0.43604 0.91637 0.0
H1721 H 0.67929 0.44668 0.88465 0.0
H1722 H 0.69147 0.52028 0.92152 0.0
H1723 H 0.65663 0.50894 0.9542 0.0
C1724 C 0.74778 0.51271 0.86093 0.0
C1725 C 0.74221 0.50328 0.83615 0.0
C1726 C 0.73004 0.5071 0.88174 0.0
C1727 C 0.70633 0.4921 0.8781 0.0
C1728 C 0.70038 0.48375 0.85304 0.0
C1729 C 0.71812 0.48911 0.83244 0.0
C1730 C 0.65463 0.45432 0.918 0.0
C1731 C 0.64754 0.4717 0.93765 0.0
C1732 C 0.67464 0.46058 0.89963 0.0
C1733 C 0.68777 0.48465 0.89999 0.0
C1734 C 0.68179 0.50159 0.92058 0.0
C1735 C 0.66189 0.49511 0.93935 0.0
H1736 H 0.29805 1.00817 0.87944 0.0
H1737 H 0.33141 0.06429 0.82776 0.0
H1738 H 0.3322 0.02088 0.90997 0.0
H1739 H 0.36499 0.07735 0.85865 0.0
H1740 H 0.4228 0.02646 0.9319 0.0
H1741 H 0.3823 0.01706 0.90835 0.0
H1742 H 0.37087 0.09674 0.90356 0.0
H1743 H 0.41162 0.10622 0.92743 0.0
C1744 C 0.31262 0.0232 0.87455 0.0
C1745 C 0.31208 0.03502 0.85098 0.0
C1746 C 0.33202 0.03059 0.89215 0.0
C1747 C 0.35117 0.05015 0.88671 0.0
C1748 C 0.35019 0.0625 0.86354 0.0
C1749 C 0.33095 0.05496 0.84582 0.0
C1750 C 0.41136 0.04199 0.92629 0.0
C1751 C 0.42039 0.06707 0.93138 0.0
C1752 C 0.3881 0.03659 0.91289 0.0
C1753 C 0.37354 0.05617 0.904 0.0
C1754 C 0.38187 0.0813 0.91006 0.0
C1755 C 0.40502 0.08672 0.92386 0.0
H1756 H 0.74698 0.73739 0.5266 0.0
H1757 H 0.6851 0.78907 0.54675 0.0
H1758 H 0.7148 0.70158 0.53446 0.0
H1759 H 0.65324 0.75379 0.55525 0.0
H1760 H 0.5973 0.68736 0.53311 0.0
H1761 H 0.63074 0.7218 0.52865 0.0
H1762 H 0.68674 0.68025 0.56915 0.0
H1763 H 0.65311 0.64507 0.57288 0.0
C1764 C 0.72652 0.74093 0.53283 0.0
C1765 C 0.71821 0.76567 0.53598 0.0
C1766 C 0.70824 0.72061 0.53755 0.0
C1767 C 0.6815 0.72493 0.54538 0.0
C1768 C 0.67356 0.74985 0.54889 0.0
C1769 C 0.69171 0.77001 0.54411 0.0
C1770 C 0.61675 0.68551 0.54103 0.0
C1771 C 0.62268 0.66349 0.55319 0.0
C1772 C 0.63584 0.70535 0.5387 0.0
C1773 C 0.66136 0.70373 0.54858 0.0
C1774 C 0.66727 0.68188 0.56117 0.0
C1775 C 0.648 0.66193 0.56358 0.0
H1776 H 0.66909 0.26926 0.98042 0.0
H1777 H 0.71316 0.31357 0.03671 0.0
H1778 H 0.63773 0.30267 0.97806 0.0
H1779 H 0.68295 0.34777 0.03341 0.0
H1780 H 0.61609 0.40156 0.03557 0.0
H1781 H 0.64204 0.36476 0.04163 0.0
H1782 H 0.6318 0.34142 0.96244 0.0
H1783 H 0.6046 0.37724 0.95708 0.0
C1784 C 0.67214 0.28629 0.99219 0.0
C1785 C 0.69361 0.28876 1.00874 0.0
C1786 C 0.65424 0.30565 0.99073 0.0
C1787 C 0.65761 0.32836 1.00537 0.0
C1788 C 0.67909 0.33059 0.02213 0.0
C1789 C 0.69664 0.31099 0.02395 0.0
C1790 C 0.61903 0.38828 0.01962 0.0
C1791 C 0.60811 0.39235 0.99589 0.0
C1792 C 0.63426 0.36723 0.02296 0.0
C1793 C 0.63952 0.34987 1.00251 0.0
C1794 C 0.62802 0.35382 0.97892 0.0
C1795 C 0.61238 0.37457 0.97575 0.0
H1796 H 0.39671 0.30768 0.03815 0.0
H1797 H 0.34859 0.27746 0.97649 0.0
H1798 H 0.4244 0.27101 0.03361 0.0
H1799 H 0.37598 0.24092 0.97207 0.0
H1800 H 0.44598 0.18983 0.95486 0.0
H1801 H 0.41979 0.2275 0.95848 0.0
H1802 H 0.42191 0.22645 0.04085 0.0
H1803 H 0.44808 0.1891 0.0372 0.0
C1804 C 0.39199 0.2932 0.0237 0.0
C1805 C 0.37056 0.29566 1.00757 0.0
C1806 C 0.40782 0.27215 0.0211 0.0
C1807 C 0.40251 0.25297 1.00239 0.0
C1808 C 0.38105 0.25549 0.98631 0.0
C1809 C 0.36531 0.2765 0.98887 0.0
C1810 C 0.4407 0.19756 0.97372 0.0
C1811 C 0.44932 0.18647 0.9957 0.0
C1812 C 0.42569 0.21918 0.97583 0.0
C1813 C 0.41883 0.23017 0.99998 0.0
C1814 C 0.42729 0.2189 0.02193 0.0
C1815 C 0.4423 0.19739 0.01982 0.0
H1816 H 0.88207 0.26138 0.01289 0.0
H1817 H 0.81831 0.30272 0.04993 0.0
H1818 H 0.91405 0.29701 0.02185 0.0
H1819 H 0.85041 0.33788 0.05981 0.0
H1820 H 0.92264 0.38472 0.09282 0.0
H1821 H 0.89594 0.34493 0.08698 0.0
H1822 H 0.91499 0.34515 1.00582 0.0
H1823 H 0.94089 0.38514 0.01149 0.0
C1824 C 0.87501 0.27806 0.02306 0.0
C1825 C 0.84781 0.27947 0.03065 0.0
C1826 C 0.89325 0.29829 0.02828 0.0
C1827 C 0.88467 0.31999 0.04173 0.0
C1828 C 0.85756 0.32118 0.04974 0.0
C1829 C 0.83923 0.30121 0.044 0.0
C1830 C 0.92161 0.37591 0.07386 0.0
C1831 C 0.93379 0.38793 0.0526 0.0
C1832 C 0.90622 0.35332 0.0705 0.0
C1833 C 0.90342 0.34212 0.04594 0.0
C1834 C 0.91698 0.35336 0.02494 0.0
C1835 C 0.93175 0.3762 0.0282 0.0
loop_
_geom_bond_atom_site_label_1
_geom_bond_atom_site_label_2
_geom_bond_distance
_geom_bond_site_symmetry_2
_ccdc_geom_bond_type
C0 C1 1.443 . S
C0 N4 1.376 . S
C0 C38 1.389 1_655 S
C1 C0 1.443 . S
C1 C2 1.340 . S
C1 H41 0.951 . S
C2 C1 1.340 . S
C2 C3 1.439 . S
C2 H42 0.950 . S
C3 C2 1.439 . S
C3 N4 1.374 . S
C3 C37 1.395 . S
N4 C0 1.376 . S
N4 C3 1.374 . S
N4 Co5 2.008 1_655 S
Co5 N4 2.008 1_455 S
Co5 N6 1.995 . S
Co5 N11 2.008 . S
Co5 N16 1.995 . S
Co5 N21 2.282 . S
Co5 N27 2.282 . S
N6 Co5 1.995 . S
N6 C7 1.376 1_455 S
N6 C10 1.383 . S
C7 N6 1.376 1_655 S
C7 C8 1.446 . S
C7 C37 1.391 . S
C8 C7 1.446 . S
C8 C9 1.339 . S
C8 H43 0.949 . S
C9 C8 1.339 . S
C9 C10 1.439 1_655 S
C9 H44 0.950 . S
C10 N6 1.383 . S
C10 C9 1.439 1_455 S
C10 C39 1.392 . S
N11 Co5 2.008 . S
N11 C12 1.376 . S
N11 C15 1.374 . S
C12 N11 1.376 . S
C12 C13 1.443 . S
C12 C39 1.389 . S
C13 C12 1.443 . S
C13 C14 1.340 . S
C13 H45 0.951 . S
C14 C13 1.340 . S
C14 C15 1.439 . S
C14 H46 0.950 . S
C15 N11 1.374 . S
C15 C14 1.439 . S
C15 C40 1.395 . S
N16 Co5 1.995 . S
N16 C17 1.376 . S
N16 C20 1.383 . S
C17 N16 1.376 . S
C17 C18 1.446 . S
C17 C40 1.391 . S
C18 C17 1.446 . S
C18 C19 1.339 . S
C18 H47 0.949 . S
C19 C18 1.339 . S
C19 C20 1.439 . S
C19 H48 0.950 . S
C20 N16 1.383 . S
C20 C19 1.439 . S
C20 C38 1.392 . S
N21 Co5 2.282 . S
N21 C24 1.332 . S
N21 C26 1.332 . S
C22 C23 1.386 . S
C22 C25 1.388 . S
C23 C22 1.386 . S
C23 C24 1.382 . S
C23 H49 0.950 . S
C24 N21 1.332 . S
C24 C23 1.382 . S
C24 H35 0.952 . S
C25 C22 1.388 . S
C25 C26 1.382 . S
C25 H50 0.950 . S
C26 N21 1.332 . S
C26 C25 1.382 . S
C26 H36 0.948 1_455 S
N27 Co5 2.282 . S
N27 C31 1.332 . S
N27 C32 1.332 . S
C28 C29 1.388 . S
C28 C32 1.382 . S
C28 H51 0.950 . S
C29 C28 1.388 . S
C29 C30 1.386 1_455 S
C30 C29 1.386 1_655 S
C30 C31 1.382 1_655 S
C30 H52 0.950 . S
C31 N27 1.332 . S
C31 C30 1.382 1_455 S
C31 H33 0.952 1_455 S
C32 N27 1.332 . S
C32 C28 1.382 . S
C32 H34 0.948 . S
H33 C31 0.952 1_655 S
H34 C32 0.948 . S
H35 C24 0.952 . S
H36 C26 0.948 1_655 S
C37 C3 1.395 . S
C37 C7 1.391 . S
C38 C0 1.389 1_455 S
C38 C20 1.392 . S
C39 C10 1.392 . S
C39 C12 1.389 . S
C40 C15 1.395 . S
C40 C17 1.391 . S
H41 C1 0.951 . S
H42 C2 0.950 . S
H43 C8 0.949 . S
H44 C9 0.950 . S
H45 C13 0.951 . S
H46 C14 0.950 . S
H47 C18 0.949 . S
H48 C19 0.950 . S
H49 C23 0.950 . S
H50 C25 0.950 . S
H51 C28 0.950 . S
H52 C30 0.950 . S
C53 C54 1.443 . S
C53 N57 1.376 . S
C53 C91 1.389 1_655 S
C54 C53 1.443 . S
C54 C55 1.340 . S
C54 H94 0.951 . S
C55 C54 1.340 . S
C55 C56 1.439 . S
C55 H95 0.950 . S
C56 C55 1.439 . S
C56 N57 1.374 . S
C56 C90 1.395 . S
N57 C53 1.376 . S
N57 C56 1.374 . S
N57 Co58 2.008 1_655 S
Co58 N57 2.008 1_455 S
Co58 N59 1.995 1_455 S
Co58 N64 2.008 . S
Co58 N69 1.995 . S
Co58 N74 2.282 . S
Co58 N80 2.282 . S
N59 Co58 1.995 1_655 S
N59 C60 1.376 . S
N59 C63 1.383 . S
C60 N59 1.376 . S
C60 C61 1.446 . S
C60 C90 1.391 . S
C61 C60 1.446 . S
C61 C62 1.339 . S
C61 H96 0.949 . S
C62 C61 1.339 . S
C62 C63 1.439 . S
C62 H97 0.950 . S
C63 N59 1.383 . S
C63 C62 1.439 . S
C63 C92 1.392 1_655 S
N64 Co58 2.008 . S
N64 C65 1.376 . S
N64 C68 1.374 . S
C65 N64 1.376 . S
C65 C66 1.443 . S
C65 C92 1.389 . S
C66 C65 1.443 . S
C66 C67 1.340 . S
C66 H98 0.951 . S
C67 C66 1.340 . S
C67 C68 1.439 . S
C67 H99 0.950 . S
C68 N64 1.374 . S
C68 C67 1.439 . S
C68 C93 1.395 . S
N69 Co58 1.995 . S
N69 C70 1.376 . S
N69 C73 1.383 . S
C70 N69 1.376 . S
C70 C71 1.446 . S
C70 C93 1.391 . S
C71 C70 1.446 . S
C71 C72 1.339 . S
C71 H100 0.949 . S
C72 C71 1.339 . S
C72 C73 1.439 . S
C72 H101 0.950 . S
C73 N69 1.383 . S
C73 C72 1.439 . S
C73 C91 1.391 . S
N74 Co58 2.282 . S
N74 C77 1.332 . S
N74 C79 1.332 1_455 S
C75 C76 1.386 . S
C75 C78 1.388 . S
C76 C75 1.386 . S
C76 C77 1.382 . S
C76 H102 0.950 . S
C77 N74 1.332 . S
C77 C76 1.382 . S
C77 H88 0.952 . S
C78 C75 1.388 . S
C78 C79 1.382 1_455 S
C78 H103 0.950 1_455 S
C79 N74 1.332 1_655 S
C79 C78 1.382 1_655 S
C79 H89 0.948 . S
N80 Co58 2.282 . S
N80 C84 1.332 1_455 S
N80 C85 1.332 . S
C81 C82 1.388 1_455 S
C81 C85 1.382 . S
C81 H104 0.950 . S
C82 C81 1.388 1_655 S
C82 C83 1.386 . S
C83 C82 1.386 . S
C83 C84 1.382 . S
C83 H105 0.950 . S
C84 N80 1.332 1_655 S
C84 C83 1.382 . S
C84 H86 0.952 . S
C85 N80 1.332 . S
C85 C81 1.382 . S
C85 H87 0.948 . S
H86 C84 0.952 . S
H87 C85 0.948 . S
H88 C77 0.952 . S
H89 C79 0.948 . S
C90 C56 1.395 . S
C90 C60 1.391 . S
C91 C53 1.389 1_455 S
C91 C73 1.391 . S
C92 C63 1.392 1_455 S
C92 C65 1.389 . S
C93 C68 1.395 . S
C93 C70 1.391 . S
H94 C54 0.951 . S
H95 C55 0.950 . S
H96 C61 0.949 . S
H97 C62 0.950 . S
H98 C66 0.951 . S
H99 C67 0.950 . S
H100 C71 0.949 . S
H101 C72 0.950 . S
H102 C76 0.950 . S
H103 C78 0.950 1_655 S
H104 C81 0.950 . S
H105 C83 0.950 . S
C106 C107 1.443 . S
C106 N110 1.376 . S
C106 C144 1.389 . S
C107 C106 1.443 . S
C107 C108 1.340 . S
C107 H147 0.951 . S
C108 C107 1.340 . S
C108 C109 1.439 . S
C108 H148 0.950 . S
C109 C108 1.439 . S
C109 N110 1.374 . S
C109 C143 1.395 . S
N110 C106 1.376 . S
N110 C109 1.374 . S
N110 Co111 2.008 1_565 S
Co111 N110 2.008 1_545 S
Co111 N112 1.995 1_545 S
Co111 N117 2.008 . S
Co111 N122 1.995 . S
Co111 N127 2.282 . S
Co111 N133 2.282 . S
N112 Co111 1.995 1_565 S
N112 C113 1.376 . S
N112 C116 1.369 1_565 S
C113 N112 1.376 . S
C113 C114 1.446 . S
C113 C143 1.391 . S
C114 C113 1.446 . S
C114 C115 1.339 . S
C114 H149 0.949 . S
C115 C114 1.339 . S
C115 C116 1.414 1_565 S
C115 H150 0.950 . S
C116 N112 1.369 1_545 S
C116 C115 1.414 1_545 S
C116 C145 1.426 . S
N117 Co111 2.008 . S
N117 C118 1.376 . S
N117 C121 1.374 . S
C118 N117 1.376 . S
C118 C119 1.443 . S
C118 C145 1.389 . S
C119 C118 1.443 . S
C119 C120 1.340 . S
C119 H151 0.951 . S
C120 C119 1.340 . S
C120 C121 1.439 . S
C120 H152 0.950 . S
C121 N117 1.374 . S
C121 C120 1.439 . S
C121 C146 1.395 . S
N122 Co111 1.995 . S
N122 C123 1.376 . S
N122 C126 1.383 . S
C123 N122 1.376 . S
C123 C124 1.446 . S
C123 C146 1.391 . S
C124 C123 1.446 . S
C124 C125 1.339 . S
C124 H153 0.949 . S
C125 C124 1.339 . S
C125 C126 1.439 . S
C125 H154 0.950 . S
C126 N122 1.383 . S
C126 C125 1.439 . S
C126 C144 1.392 1_545 S
N127 Co111 2.282 . S
N127 C130 1.332 . S
N127 C132 1.332 . S
C128 C129 1.386 . S
C128 C131 1.388 . S
C129 C128 1.386 . S
C129 C130 1.382 . S
C129 H155 0.950 . S
C130 N127 1.332 . S
C130 C129 1.382 . S
C130 H141 0.952 . S
C131 C128 1.388 . S
C131 C132 1.382 . S
C131 H156 0.950 1_545 S
C132 N127 1.332 . S
C132 C131 1.382 . S
C132 H142 0.948 1_545 S
N133 Co111 2.282 . S
N133 C137 1.332 1_545 S
N133 C138 1.332 . S
C134 C135 1.388 1_545 S
C134 C138 1.382 . S
C134 H157 0.950 . S
C135 C134 1.388 1_565 S
C135 C136 1.386 . S
C136 C135 1.386 . S
C136 C137 1.382 . S
C136 H158 0.950 . S
C137 N133 1.332 1_565 S
C137 C136 1.382 . S
C137 H139 0.952 . S
C138 N133 1.332 . S
C138 C134 1.382 . S
C138 H140 0.948 . S
H139 C137 0.952 . S
H140 C138 0.948 . S
H141 C130 0.952 . S
H142 C132 0.948 1_565 S
C143 C109 1.395 . S
C143 C113 1.391 . S
C144 C106 1.389 . S
C144 C126 1.392 1_565 S
C145 C116 1.426 . S
C145 C118 1.389 . S
C146 C121 1.395 . S
C146 C123 1.391 . S
H147 C107 0.951 . S
H148 C108 0.950 . S
H149 C114 0.949 . S
H150 C115 0.950 . S
H151 C119 0.951 . S
H152 C120 0.950 . S
H153 C124 0.949 . S
H154 C125 0.950 . S
H155 C129 0.950 . S
H156 C131 0.950 1_565 S
H157 C134 0.950 . S
H158 C136 0.950 . S
C159 C160 1.443 . S
C159 N163 1.376 . S
C159 C197 1.389 . S
C160 C159 1.443 . S
C160 C161 1.340 . S
C160 H200 0.951 . S
C161 C160 1.340 . S
C161 C162 1.439 . S
C161 H201 0.950 . S
C162 C161 1.439 . S
C162 N163 1.374 . S
C162 C196 1.395 . S
N163 C159 1.376 . S
N163 C162 1.374 . S
N163 Co164 2.008 . S
Co164 N163 2.008 . S
Co164 N165 1.995 . S
Co164 N170 2.008 . S
Co164 N175 1.995 . S
Co164 N180 2.282 . S
Co164 N186 2.282 . S
N165 Co164 1.995 . S
N165 C166 1.376 . S
N165 C169 1.383 . S
C166 N165 1.376 . S
C166 C167 1.446 . S
C166 C196 1.391 . S
C167 C166 1.446 . S
C167 C168 1.339 . S
C167 H202 0.949 . S
C168 C167 1.339 . S
C168 C169 1.439 . S
C168 H203 0.950 . S
C169 N165 1.383 . S
C169 C168 1.439 . S
C169 C198 1.392 . S
N170 Co164 2.008 . S
N170 C171 1.376 . S
N170 C174 1.374 . S
C171 N170 1.376 . S
C171 C172 1.443 . S
C171 C198 1.389 . S
C172 C171 1.443 . S
C172 C173 1.340 . S
C172 H204 0.951 . S
C173 C172 1.340 . S
C173 C174 1.439 . S
C173 H205 0.950 . S
C174 N170 1.374 . S
C174 C173 1.439 . S
C174 C199 1.395 . S
N175 Co164 1.995 . S
N175 C176 1.376 . S
N175 C179 1.383 . S
C176 N175 1.376 . S
C176 C177 1.446 . S
C176 C199 1.391 . S
C177 C176 1.446 . S
C177 C178 1.339 . S
C177 H206 0.949 . S
C178 C177 1.339 . S
C178 C179 1.439 . S
C178 H207 0.950 . S
C179 N175 1.383 . S
C179 C178 1.439 . S
C179 C197 1.392 . S
N180 Co164 2.282 . S
N180 C183 1.332 . S
N180 C185 1.332 . S
C181 C182 1.386 . S
C181 C184 1.388 . S
C182 C181 1.386 . S
C182 C183 1.382 . S
C182 H208 0.950 . S
C183 N180 1.332 . S
C183 C182 1.382 . S
C183 H194 0.952 . S
C184 C181 1.388 . S
C184 C185 1.382 . S
C184 H209 0.950 . S
C185 N180 1.332 . S
C185 C184 1.382 . S
C185 H195 0.948 . S
N186 Co164 2.282 . S
N186 C190 1.332 . S
N186 C191 1.332 . S
C187 C188 1.388 . S
C187 C191 1.382 . S
C187 H210 0.950 . S
C188 C187 1.388 . S
C188 C189 1.386 . S
C189 C188 1.386 . S
C189 C190 1.382 . S
C189 H211 0.950 . S
C190 N186 1.332 . S
C190 C189 1.382 . S
C190 H192 0.952 . S
C191 N186 1.332 . S
C191 C187 1.382 . S
C191 H193 0.948 . S
H192 C190 0.952 . S
H193 C191 0.948 . S
H194 C183 0.952 . S
H195 C185 0.948 . S
C196 C162 1.395 . S
C196 C166 1.391 . S
C197 C159 1.389 . S
C197 C179 1.392 . S
C198 C169 1.392 . S
C198 C171 1.389 . S
C199 C174 1.395 . S
C199 C176 1.391 . S
H200 C160 0.951 . S
H201 C161 0.950 . S
H202 C167 0.949 . S
H203 C168 0.950 . S
H204 C172 0.951 . S
H205 C173 0.950 . S
H206 C177 0.949 . S
H207 C178 0.950 . S
H208 C182 0.950 . S
H209 C184 0.950 . S
H210 C187 0.950 . S
H211 C189 0.950 . S
C212 C213 1.443 . S
C212 N216 1.376 . S
C212 C250 1.389 1_556 S
C213 C212 1.443 . S
C213 C214 1.340 . S
C213 H253 0.951 . S
C214 C213 1.340 . S
C214 C215 1.439 . S
C214 H254 0.950 . S
C215 C214 1.439 . S
C215 N216 1.374 . S
C215 C249 1.395 . S
N216 C212 1.376 . S
N216 C215 1.374 . S
N216 Co217 2.008 1_556 S
Co217 N216 2.008 1_554 S
Co217 N218 1.995 1_554 S
Co217 N223 2.008 . S
Co217 N228 1.995 . S
Co217 N233 2.282 . S
Co217 N239 2.282 . S
N218 Co217 1.995 1_556 S
N218 C219 1.376 . S
N218 C222 1.382 1_556 S
C219 N218 1.376 . S
C219 C220 1.446 . S
C219 C249 1.391 . S
C220 C219 1.446 . S
C220 C221 1.339 . S
C220 H255 0.949 . S
C221 C220 1.339 . S
C221 C222 1.436 1_556 S
C221 H256 0.950 . S
C222 N218 1.382 1_554 S
C222 C221 1.436 1_554 S
C222 C251 1.395 . S
N223 Co217 2.008 . S
N223 C224 1.376 . S
N223 C227 1.374 . S
C224 N223 1.376 . S
C224 C225 1.443 . S
C224 C251 1.389 . S
C225 C224 1.443 . S
C225 C226 1.340 . S
C225 H257 0.951 . S
C226 C225 1.340 . S
C226 C227 1.439 . S
C226 H258 0.950 . S
C227 N223 1.374 . S
C227 C226 1.439 . S
C227 C252 1.395 . S
N228 Co217 1.995 . S
N228 C229 1.376 . S
N228 C232 1.383 . S
C229 N228 1.376 . S
C229 C230 1.446 . S
C229 C252 1.391 . S
C230 C229 1.446 . S
C230 C231 1.339 . S
C230 H259 0.949 . S
C231 C230 1.339 . S
C231 C232 1.439 . S
C231 H260 0.950 . S
C232 N228 1.383 . S
C232 C231 1.439 . S
C232 C250 1.392 . S
N233 Co217 2.282 . S
N233 C236 1.332 . S
N233 C238 1.332 . S
C234 C235 1.386 . S
C234 C237 1.388 . S
C235 C234 1.386 . S
C235 C236 1.382 . S
C235 H261 0.950 . S
C236 N233 1.332 . S
C236 C235 1.382 . S
C236 H247 0.952 . S
C237 C234 1.388 . S
C237 C238 1.382 . S
C237 H262 0.950 1_554 S
C238 N233 1.332 . S
C238 C237 1.382 . S
C238 H248 0.948 1_554 S
N239 Co217 2.282 . S
N239 C243 1.332 1_554 S
N239 C244 1.332 . S
C240 C241 1.388 1_554 S
C240 C244 1.382 . S
C240 H263 0.950 . S
C241 C240 1.388 1_556 S
C241 C242 1.386 . S
C242 C241 1.386 . S
C242 C243 1.382 . S
C242 H264 0.950 . S
C243 N239 1.332 1_556 S
C243 C242 1.382 . S
C243 H245 0.952 . S
C244 N239 1.332 . S
C244 C240 1.382 . S
C244 H246 0.948 . S
H245 C243 0.952 . S
H246 C244 0.948 . S
H247 C236 0.952 . S
H248 C238 0.948 1_556 S
C249 C215 1.395 . S
C249 C219 1.391 . S
C250 C212 1.389 1_554 S
C250 C232 1.392 . S
C251 C222 1.395 . S
C251 C224 1.389 . S
C252 C227 1.395 . S
C252 C229 1.391 . S
H253 C213 0.951 . S
H254 C214 0.950 . S
H255 C220 0.949 . S
H256 C221 0.950 . S
H257 C225 0.951 . S
H258 C226 0.950 . S
H259 C230 0.949 . S
H260 C231 0.950 . S
H261 C235 0.950 . S
H262 C237 0.950 1_556 S
H263 C240 0.950 . S
H264 C242 0.950 . S
C265 C266 1.443 . S
C265 N269 1.376 . S
C265 C303 1.389 . S
C266 C265 1.443 . S
C266 C267 1.340 . S
C266 H306 0.951 . S
C267 C266 1.340 . S
C267 C268 1.439 . S
C267 H307 0.950 . S
C268 C267 1.439 . S
C268 N269 1.374 . S
C268 C302 1.395 . S
N269 C265 1.376 . S
N269 C268 1.374 . S
N269 Co270 2.008 . S
Co270 N269 2.008 . S
Co270 N271 1.995 . S
Co270 N276 2.008 . S
Co270 N281 1.995 . S
Co270 N286 2.282 . S
Co270 N292 2.282 . S
N271 Co270 1.995 . S
N271 C272 1.376 . S
N271 C275 1.383 . S
C272 N271 1.376 . S
C272 C273 1.446 . S
C272 C302 1.391 . S
C273 C272 1.446 . S
C273 C274 1.339 . S
C273 H308 0.949 . S
C274 C273 1.339 . S
C274 C275 1.439 . S
C274 H309 0.950 . S
C275 N271 1.383 . S
C275 C274 1.439 . S
C275 C304 1.392 . S
N276 Co270 2.008 . S
N276 C277 1.376 . S
N276 C280 1.374 . S
C277 N276 1.376 . S
C277 C278 1.443 . S
C277 C304 1.389 . S
C278 C277 1.443 . S
C278 C279 1.340 . S
C278 H310 0.951 . S
C279 C278 1.340 . S
C279 C280 1.439 . S
C279 H311 0.950 . S
C280 N276 1.374 . S
C280 C279 1.439 . S
C280 C305 1.395 . S
N281 Co270 1.995 . S
N281 C282 1.376 . S
N281 C285 1.383 . S
C282 N281 1.376 . S
C282 C283 1.446 . S
C282 C305 1.391 . S
C283 C282 1.446 . S
C283 C284 1.339 . S
C283 H312 0.949 . S
C284 C283 1.339 . S
C284 C285 1.439 . S
C284 H313 0.950 . S
C285 N281 1.383 . S
C285 C284 1.439 . S
C285 C303 1.392 . S
N286 Co270 2.282 . S
N286 C289 1.332 . S
N286 C291 1.332 . S
C287 C288 1.386 . S
C287 C290 1.388 . S
C288 C287 1.386 . S
C288 C289 1.382 . S
C288 H314 0.950 . S
C289 N286 1.332 . S
C289 C288 1.382 . S
C289 H300 0.952 . S
C290 C287 1.388 . S
C290 C291 1.382 . S
C290 H315 0.950 . S
C291 N286 1.332 . S
C291 C290 1.382 . S
C291 H301 0.948 . S
N292 Co270 2.282 . S
N292 C296 1.332 . S
N292 C297 1.332 . S
C293 C294 1.388 . S
C293 C297 1.382 . S
C293 H316 0.950 . S
C294 C293 1.388 . S
C294 C295 1.386 . S
C295 C294 1.386 . S
C295 C296 1.382 . S
C295 H317 0.950 . S
C296 N292 1.332 . S
C296 C295 1.382 . S
C296 H298 0.952 . S
C297 N292 1.332 . S
C297 C293 1.382 . S
C297 H299 0.948 . S
H298 C296 0.952 . S
H299 C297 0.948 . S
H300 C289 0.952 . S
H301 C291 0.948 . S
C302 C268 1.395 . S
C302 C272 1.391 . S
C303 C265 1.389 . S
C303 C285 1.392 . S
C304 C275 1.392 . S
C304 C277 1.389 . S
C305 C280 1.395 . S
C305 C282 1.391 . S
H306 C266 0.951 . S
H307 C267 0.950 . S
H308 C273 0.949 . S
H309 C274 0.950 . S
H310 C278 0.951 . S
H311 C279 0.950 . S
H312 C283 0.949 . S
H313 C284 0.950 . S
H314 C288 0.950 . S
H315 C290 0.950 . S
H316 C293 0.950 . S
H317 C295 0.950 . S
C318 C319 1.443 . S
C318 N322 1.376 . S
C318 C356 1.389 . S
C319 C318 1.443 . S
C319 C320 1.340 . S
C319 H359 0.951 . S
C320 C319 1.340 . S
C320 C321 1.439 . S
C320 H360 0.950 . S
C321 C320 1.439 . S
C321 N322 1.374 . S
C321 C355 1.395 . S
N322 C318 1.376 . S
N322 C321 1.374 . S
N322 Co323 2.008 . S
Co323 N322 2.008 . S
Co323 N324 1.995 . S
Co323 N329 2.008 . S
Co323 N334 1.995 . S
Co323 N339 2.282 . S
Co323 N345 2.282 . S
N324 Co323 1.995 . S
N324 C325 1.376 . S
N324 C328 1.383 . S
C325 N324 1.376 . S
C325 C326 1.446 . S
C325 C355 1.391 . S
C326 C325 1.446 . S
C326 C327 1.339 . S
C326 H361 0.949 . S
C327 C326 1.339 . S
C327 C328 1.439 . S
C327 H362 0.950 . S
C328 N324 1.383 . S
C328 C327 1.439 . S
C328 C357 1.392 . S
N329 Co323 2.008 . S
N329 C330 1.376 . S
N329 C333 1.374 . S
C330 N329 1.376 . S
C330 C331 1.443 . S
C330 C357 1.389 . S
C331 C330 1.443 . S
C331 C332 1.340 . S
C331 H363 0.951 . S
C332 C331 1.340 . S
C332 C333 1.439 . S
C332 H364 0.950 . S
C333 N329 1.374 . S
C333 C332 1.439 . S
C333 C358 1.395 . S
N334 Co323 1.995 . S
N334 C335 1.376 . S
N334 C338 1.383 . S
C335 N334 1.376 . S
C335 C336 1.446 . S
C335 C358 1.391 . S
C336 C335 1.446 . S
C336 C337 1.339 . S
C336 H365 0.949 . S
C337 C336 1.339 . S
C337 C338 1.439 . S
C337 H366 0.950 . S
C338 N334 1.383 . S
C338 C337 1.439 . S
C338 C356 1.392 . S
N339 Co323 2.282 . S
N339 C342 1.332 . S
N339 C344 1.332 . S
C340 C341 1.386 . S
C340 C343 1.388 . S
C341 C340 1.386 . S
C341 C342 1.382 . S
C341 H367 0.950 . S
C342 N339 1.332 . S
C342 C341 1.382 . S
C342 H353 0.952 . S
C343 C340 1.388 . S
C343 C344 1.382 . S
C343 H368 0.950 . S
C344 N339 1.332 . S
C344 C343 1.382 . S
C344 H354 0.948 . S
N345 Co323 2.282 . S
N345 C349 1.332 . S
N345 C350 1.332 . S
C346 C347 1.388 . S
C346 C350 1.382 . S
C346 H369 0.950 . S
C347 C346 1.388 . S
C347 C348 1.386 . S
C348 C347 1.386 . S
C348 C349 1.382 . S
C348 H370 0.950 . S
C349 N345 1.332 . S
C349 C348 1.382 . S
C349 H351 0.952 . S
C350 N345 1.332 . S
C350 C346 1.382 . S
C350 H352 0.948 . S
H351 C349 0.952 . S
H352 C350 0.948 . S
H353 C342 0.952 . S
H354 C344 0.948 . S
C355 C321 1.395 . S
C355 C325 1.391 . S
C356 C318 1.389 . S
C356 C338 1.392 . S
C357 C328 1.392 . S
C357 C330 1.389 . S
C358 C333 1.395 . S
C358 C335 1.391 . S
H359 C319 0.951 . S
H360 C320 0.950 . S
H361 C326 0.949 . S
H362 C327 0.950 . S
H363 C331 0.951 . S
H364 C332 0.950 . S
H365 C336 0.949 . S
H366 C337 0.950 . S
H367 C341 0.950 . S
H368 C343 0.950 . S
H369 C346 0.950 . S
H370 C348 0.950 . S
C371 C372 1.443 . S
C371 N375 1.376 . S
C371 C409 1.389 . S
C372 C371 1.443 . S
C372 C373 1.340 . S
C372 H412 0.951 . S
C373 C372 1.340 . S
C373 C374 1.439 . S
C373 H413 0.950 . S
C374 C373 1.439 . S
C374 N375 1.374 . S
C374 C408 1.395 . S
N375 C371 1.376 . S
N375 C374 1.374 . S
N375 Co376 2.008 . S
Co376 N375 2.008 . S
Co376 N377 1.995 . S
Co376 N382 2.008 . S
Co376 N387 1.995 . S
Co376 N392 2.282 . S
Co376 N398 2.282 . S
N377 Co376 1.995 . S
N377 C378 1.376 . S
N377 C381 1.383 . S
C378 N377 1.376 . S
C378 C379 1.446 . S
C378 C408 1.391 . S
C379 C378 1.446 . S
C379 C380 1.339 . S
C379 H414 0.949 . S
C380 C379 1.339 . S
C380 C381 1.439 . S
C380 H415 0.950 . S
C381 N377 1.383 . S
C381 C380 1.439 . S
C381 C410 1.392 . S
N382 Co376 2.008 . S
N382 C383 1.376 . S
N382 C386 1.374 . S
C383 N382 1.376 . S
C383 C384 1.443 . S
C383 C410 1.389 . S
C384 C383 1.443 . S
C384 C385 1.340 . S
C384 H416 0.951 . S
C385 C384 1.340 . S
C385 C386 1.439 . S
C385 H417 0.950 . S
C386 N382 1.374 . S
C386 C385 1.439 . S
C386 C411 1.395 . S
N387 Co376 1.995 . S
N387 C388 1.376 . S
N387 C391 1.383 . S
C388 N387 1.376 . S
C388 C389 1.446 . S
C388 C411 1.391 . S
C389 C388 1.446 . S
C389 C390 1.339 . S
C389 H418 0.949 . S
C390 C389 1.339 . S
C390 C391 1.439 . S
C390 H419 0.950 . S
C391 N387 1.383 . S
C391 C390 1.439 . S
C391 C409 1.392 . S
N392 Co376 2.282 . S
N392 C395 1.332 . S
N392 C397 1.332 . S
C393 C394 1.386 . S
C393 C396 1.388 . S
C394 C393 1.386 . S
C394 C395 1.382 . S
C394 H420 0.950 . S
C395 N392 1.332 . S
C395 C394 1.382 . S
C395 H406 0.952 . S
C396 C393 1.388 . S
C396 C397 1.382 . S
C396 H421 0.950 . S
C397 N392 1.332 . S
C397 C396 1.382 . S
C397 H407 0.948 . S
N398 Co376 2.282 . S
N398 C402 1.332 . S
N398 C403 1.332 . S
C399 C400 1.388 . S
C399 C403 1.382 . S
C399 H422 0.950 . S
C400 C399 1.388 . S
C400 C401 1.386 . S
C401 C400 1.386 . S
C401 C402 1.382 . S
C401 H423 0.950 . S
C402 N398 1.332 . S
C402 C401 1.382 . S
C402 H404 0.952 . S
C403 N398 1.332 . S
C403 C399 1.382 . S
C403 H405 0.948 . S
H404 C402 0.952 . S
H405 C403 0.948 . S
H406 C395 0.952 . S
H407 C397 0.948 . S
C408 C374 1.395 . S
C408 C378 1.391 . S
C409 C371 1.389 . S
C409 C391 1.392 . S
C410 C381 1.392 . S
C410 C383 1.389 . S
C411 C386 1.395 . S
C411 C388 1.391 . S
H412 C372 0.951 . S
H413 C373 0.950 . S
H414 C379 0.949 . S
H415 C380 0.950 . S
H416 C384 0.951 . S
H417 C385 0.950 . S
H418 C389 0.949 . S
H419 C390 0.950 . S
H420 C394 0.950 . S
H421 C396 0.950 . S
H422 C399 0.950 . S
H423 C401 0.950 . S
C424 C425 1.443 . S
C424 N428 1.376 . S
C424 C462 1.389 . S
C425 C424 1.443 . S
C425 C426 1.340 . S
C425 H465 0.951 . S
C426 C425 1.340 . S
C426 C427 1.439 . S
C426 H466 0.950 . S
C427 C426 1.439 . S
C427 N428 1.374 . S
C427 C461 1.395 . S
N428 C424 1.376 . S
N428 C427 1.374 . S
N428 Co429 2.008 . S
Co429 N428 2.008 . S
Co429 N430 1.995 . S
Co429 N435 2.008 . S
Co429 N440 1.995 . S
Co429 N445 2.282 . S
Co429 N451 2.282 . S
N430 Co429 1.995 . S
N430 C431 1.376 . S
N430 C434 1.383 . S
C431 N430 1.376 . S
C431 C432 1.446 . S
C431 C461 1.391 . S
C432 C431 1.446 . S
C432 C433 1.339 . S
C432 H467 0.949 . S
C433 C432 1.339 . S
C433 C434 1.439 . S
C433 H468 0.950 . S
C434 N430 1.383 . S
C434 C433 1.439 . S
C434 C463 1.392 . S
N435 Co429 2.008 . S
N435 C436 1.376 . S
N435 C439 1.374 . S
C436 N435 1.376 . S
C436 C437 1.443 . S
C436 C463 1.389 . S
C437 C436 1.443 . S
C437 C438 1.340 . S
C437 H469 0.951 . S
C438 C437 1.340 . S
C438 C439 1.439 . S
C438 H470 0.950 . S
C439 N435 1.374 . S
C439 C438 1.439 . S
C439 C464 1.395 . S
N440 Co429 1.995 . S
N440 C441 1.376 . S
N440 C444 1.383 . S
C441 N440 1.376 . S
C441 C442 1.446 . S
C441 C464 1.391 . S
C442 C441 1.446 . S
C442 C443 1.339 . S
C442 H471 0.949 . S
C443 C442 1.339 . S
C443 C444 1.439 . S
C443 H472 0.950 . S
C444 N440 1.383 . S
C444 C443 1.439 . S
C444 C462 1.392 . S
N445 Co429 2.282 . S
N445 C448 1.332 . S
N445 C450 1.332 . S
C446 C447 1.386 . S
C446 C449 1.388 . S
C447 C446 1.386 . S
C447 C448 1.382 . S
C447 H473 0.950 . S
C448 N445 1.332 . S
C448 C447 1.382 . S
C448 H459 0.952 . S
C449 C446 1.388 . S
C449 C450 1.382 . S
C449 H474 0.950 . S
C450 N445 1.332 . S
C450 C449 1.382 . S
C450 H460 0.948 . S
N451 Co429 2.282 . S
N451 C455 1.332 . S
N451 C456 1.332 . S
C452 C453 1.388 . S
C452 C456 1.382 . S
C452 H475 0.950 . S
C453 C452 1.388 . S
C453 C454 1.386 . S
C454 C453 1.386 . S
C454 C455 1.382 . S
C454 H476 0.950 . S
C455 N451 1.332 . S
C455 C454 1.382 . S
C455 H457 0.952 . S
C456 N451 1.332 . S
C456 C452 1.382 . S
C456 H458 0.948 . S
H457 C455 0.952 . S
H458 C456 0.948 . S
H459 C448 0.952 . S
H460 C450 0.948 . S
C461 C427 1.395 . S
C461 C431 1.391 . S
C462 C424 1.389 . S
C462 C444 1.392 . S
C463 C434 1.392 . S
C463 C436 1.389 . S
C464 C439 1.395 . S
C464 C441 1.391 . S
H465 C425 0.951 . S
H466 C426 0.950 . S
H467 C432 0.949 . S
H468 C433 0.950 . S
H469 C437 0.951 . S
H470 C438 0.950 . S
H471 C442 0.949 . S
H472 C443 0.950 . S
H473 C447 0.950 . S
H474 C449 0.950 . S
H475 C452 0.950 . S
H476 C454 0.950 . S
C477 C478 1.443 . S
C477 N481 1.376 . S
C477 C515 1.389 . S
C478 C477 1.443 . S
C478 C479 1.340 . S
C478 H518 0.951 . S
C479 C478 1.340 . S
C479 C480 1.439 . S
C479 H519 0.950 . S
C480 C479 1.439 . S
C480 N481 1.374 . S
C480 C514 1.395 . S
N481 C477 1.376 . S
N481 C480 1.374 . S
N481 Co482 2.008 . S
Co482 N481 2.008 . S
Co482 N483 1.995 . S
Co482 N488 2.008 . S
Co482 N493 1.995 . S
Co482 N498 2.282 . S
Co482 N504 2.282 . S
N483 Co482 1.995 . S
N483 C484 1.376 . S
N483 C487 1.383 . S
C484 N483 1.376 . S
C484 C485 1.446 . S
C484 C514 1.391 . S
C485 C484 1.446 . S
C485 C486 1.339 . S
C485 H520 0.949 . S
C486 C485 1.339 . S
C486 C487 1.439 . S
C486 H521 0.950 . S
C487 N483 1.383 . S
C487 C486 1.439 . S
C487 C516 1.392 . S
N488 Co482 2.008 . S
N488 C489 1.376 . S
N488 C492 1.374 . S
C489 N488 1.376 . S
C489 C490 1.443 . S
C489 C516 1.389 . S
C490 C489 1.443 . S
C490 C491 1.340 . S
C490 H522 0.951 . S
C491 C490 1.340 . S
C491 C492 1.439 . S
C491 H523 0.950 . S
C492 N488 1.374 . S
C492 C491 1.439 . S
C492 C517 1.395 . S
N493 Co482 1.995 . S
N493 C494 1.376 . S
N493 C497 1.383 . S
C494 N493 1.376 . S
C494 C495 1.446 . S
C494 C517 1.391 . S
C495 C494 1.446 . S
C495 C496 1.339 . S
C495 H524 0.949 . S
C496 C495 1.339 . S
C496 C497 1.439 . S
C496 H525 0.950 . S
C497 N493 1.383 . S
C497 C496 1.439 . S
C497 C515 1.392 . S
N498 Co482 2.282 . S
N498 C501 1.332 . S
N498 C503 1.332 . S
C499 C500 1.386 . S
C499 C502 1.388 . S
C500 C499 1.386 . S
C500 C501 1.382 . S
C500 H526 0.950 . S
C501 N498 1.332 . S
C501 C500 1.382 . S
C501 H512 0.952 . S
C502 C499 1.388 . S
C502 C503 1.382 . S
C502 H527 0.950 . S
C503 N498 1.332 . S
C503 C502 1.382 . S
C503 H513 0.948 . S
N504 Co482 2.282 . S
N504 C508 1.332 . S
N504 C509 1.332 . S
C505 C506 1.388 . S
C505 C509 1.382 . S
C505 H528 0.950 . S
C506 C505 1.388 . S
C506 C507 1.386 . S
C507 C506 1.386 . S
C507 C508 1.382 . S
C507 H529 0.950 . S
C508 N504 1.332 . S
C508 C507 1.382 . S
C508 H510 0.952 . S
C509 N504 1.332 . S
C509 C505 1.382 . S
C509 H511 0.948 . S
H510 C508 0.952 . S
H511 C509 0.948 . S
H512 C501 0.952 . S
H513 C503 0.948 . S
C514 C480 1.395 . S
C514 C484 1.391 . S
C515 C477 1.389 . S
C515 C497 1.392 . S
C516 C487 1.392 . S
C516 C489 1.389 . S
C517 C492 1.395 . S
C517 C494 1.391 . S
H518 C478 0.951 . S
H519 C479 0.950 . S
H520 C485 0.949 . S
H521 C486 0.950 . S
H522 C490 0.951 . S
H523 C491 0.950 . S
H524 C495 0.949 . S
H525 C496 0.950 . S
H526 C500 0.950 . S
H527 C502 0.950 . S
H528 C505 0.950 . S
H529 C507 0.950 . S
C530 C531 1.443 . S
C530 N534 1.376 . S
C530 C568 1.389 . S
C531 C530 1.443 . S
C531 C532 1.340 . S
C531 H571 0.951 . S
C532 C531 1.340 . S
C532 C533 1.439 . S
C532 H572 0.950 . S
C533 C532 1.439 . S
C533 N534 1.374 . S
C533 C567 1.395 . S
N534 C530 1.376 . S
N534 C533 1.374 . S
N534 Co535 2.008 . S
Co535 N534 2.008 . S
Co535 N536 1.995 . S
Co535 N541 2.008 1_545 S
Co535 N546 1.995 1_545 S
Co535 N551 2.282 . S
Co535 N557 2.282 . S
N536 Co535 1.995 . S
N536 C537 1.376 . S
N536 C540 1.383 . S
C537 N536 1.376 . S
C537 C538 1.446 . S
C537 C567 1.391 . S
C538 C537 1.446 . S
C538 C539 1.339 . S
C538 H573 0.949 . S
C539 C538 1.339 . S
C539 C540 1.439 . S
C539 H574 0.950 . S
C540 N536 1.383 . S
C540 C539 1.439 . S
C540 C569 1.392 1_545 S
N541 Co535 2.008 1_565 S
N541 C542 1.376 . S
N541 C545 1.374 . S
C542 N541 1.376 . S
C542 C543 1.443 . S
C542 C569 1.389 . S
C543 C542 1.443 . S
C543 C544 1.340 . S
C543 H575 0.951 . S
C544 C543 1.340 . S
C544 C545 1.439 . S
C544 H576 0.950 . S
C545 N541 1.374 . S
C545 C544 1.439 . S
C545 C570 1.395 . S
N546 Co535 1.995 1_565 S
N546 C547 1.376 . S
N546 C550 1.383 . S
C547 N546 1.376 . S
C547 C548 1.446 . S
C547 C570 1.391 . S
C548 C547 1.446 . S
C548 C549 1.339 . S
C548 H577 0.949 . S
C549 C548 1.339 . S
C549 C550 1.439 . S
C549 H578 0.950 . S
C550 N546 1.383 . S
C550 C549 1.439 . S
C550 C568 1.392 1_565 S
N551 Co535 2.282 . S
N551 C554 1.332 1_545 S
N551 C556 1.332 . S
C552 C553 1.386 . S
C552 C555 1.388 1_565 S
C553 C552 1.386 . S
C553 C554 1.382 . S
C553 H579 0.950 . S
C554 N551 1.332 1_565 S
C554 C553 1.382 . S
C554 H565 0.952 . S
C555 C552 1.388 1_545 S
C555 C556 1.382 . S
C555 H580 0.950 . S
C556 N551 1.332 . S
C556 C555 1.382 . S
C556 H566 0.948 . S
N557 Co535 2.282 . S
N557 C561 1.332 . S
N557 C562 1.346 . S
C558 C559 1.388 . S
C558 C562 1.386 . S
C558 H581 0.950 1_545 S
C559 C558 1.388 . S
C559 C560 1.386 . S
C560 C559 1.386 . S
C560 C561 1.382 . S
C560 H582 0.950 . S
C561 N557 1.332 . S
C561 C560 1.382 . S
C561 H563 0.952 . S
C562 N557 1.346 . S
C562 C558 1.386 . S
C562 H564 0.930 1_545 S
H563 C561 0.952 . S
H564 C562 0.930 1_565 S
H565 C554 0.952 . S
H566 C556 0.948 . S
C567 C533 1.395 . S
C567 C537 1.391 . S
C568 C530 1.389 . S
C568 C550 1.392 1_545 S
C569 C540 1.392 1_565 S
C569 C542 1.389 . S
C570 C545 1.395 . S
C570 C547 1.391 . S
H571 C531 0.951 . S
H572 C532 0.950 . S
H573 C538 0.949 . S
H574 C539 0.950 . S
H575 C543 0.951 . S
H576 C544 0.950 . S
H577 C548 0.949 . S
H578 C549 0.950 . S
H579 C553 0.950 . S
H580 C555 0.950 . S
H581 C558 0.950 1_565 S
H582 C560 0.950 . S
C583 C584 1.443 . S
C583 N587 1.376 . S
C583 C621 1.403 . S
C584 C583 1.443 . S
C584 C585 1.340 . S
C584 H624 0.951 . S
C585 C584 1.340 . S
C585 C586 1.439 . S
C585 H625 0.950 . S
C586 C585 1.439 . S
C586 N587 1.374 . S
C586 C620 1.395 . S
N587 C583 1.376 . S
N587 C586 1.374 . S
N587 Co588 2.008 1_556 S
Co588 N587 2.008 1_554 S
Co588 N589 1.995 1_554 S
Co588 N594 2.008 . S
Co588 N599 1.995 . S
Co588 N604 2.282 . S
Co588 N610 2.282 . S
N589 Co588 1.995 1_556 S
N589 C590 1.376 . S
N589 C593 1.376 1_556 S
C590 N589 1.376 . S
C590 C591 1.446 . S
C590 C620 1.391 . S
C591 C590 1.446 . S
C591 C592 1.339 . S
C591 H626 0.949 . S
C592 C591 1.339 . S
C592 C593 1.423 1_556 S
C592 H627 0.950 . S
C593 N589 1.376 1_554 S
C593 C592 1.423 1_554 S
C593 C622 1.411 . S
N594 Co588 2.008 . S
N594 C595 1.376 . S
N594 C598 1.374 . S
C595 N594 1.376 . S
C595 C596 1.443 . S
C595 C622 1.389 . S
C596 C595 1.443 . S
C596 C597 1.340 . S
C596 H628 0.951 . S
C597 C596 1.340 . S
C597 C598 1.439 . S
C597 H629 0.950 . S
C598 N594 1.374 . S
C598 C597 1.439 . S
C598 C623 1.395 . S
N599 Co588 1.995 . S
N599 C600 1.376 . S
N599 C603 1.383 . S
C600 N599 1.376 . S
C600 C601 1.446 . S
C600 C623 1.391 . S
C601 C600 1.446 . S
C601 C602 1.339 . S
C601 H630 0.949 . S
C602 C601 1.339 . S
C602 C603 1.439 . S
C602 H631 0.950 . S
C603 N599 1.383 . S
C603 C602 1.439 . S
C603 C621 1.375 1_554 S
N604 Co588 2.282 . S
N604 C607 1.332 . S
N604 C609 1.329 1_554 S
C605 C606 1.386 . S
C605 C608 1.388 . S
C606 C605 1.386 . S
C606 C607 1.382 . S
C606 H632 0.950 . S
C607 N604 1.332 . S
C607 C606 1.382 . S
C607 H618 0.952 . S
C608 C605 1.388 . S
C608 C609 1.381 1_554 S
C608 H633 0.950 1_554 S
C609 N604 1.329 1_556 S
C609 C608 1.381 1_556 S
C609 H619 0.952 . S
N610 Co588 2.282 . S
N610 C614 1.332 1_554 S
N610 C615 1.332 . S
C611 C612 1.388 1_554 S
C611 C615 1.382 . S
C611 H634 0.950 . S
C612 C611 1.388 1_556 S
C612 C613 1.386 . S
C613 C612 1.386 . S
C613 C614 1.382 . S
C613 H635 0.950 . S
C614 N610 1.332 1_556 S
C614 C613 1.382 . S
C614 H616 0.952 . S
C615 N610 1.332 . S
C615 C611 1.382 . S
C615 H617 0.948 . S
H616 C614 0.952 . S
H617 C615 0.948 . S
H618 C607 0.952 . S
H619 C609 0.952 . S
C620 C586 1.395 . S
C620 C590 1.391 . S
C621 C583 1.403 . S
C621 C603 1.375 1_556 S
C622 C593 1.411 . S
C622 C595 1.389 . S
C623 C598 1.395 . S
C623 C600 1.391 . S
H624 C584 0.951 . S
H625 C585 0.950 . S
H626 C591 0.949 . S
H627 C592 0.950 . S
H628 C596 0.951 . S
H629 C597 0.950 . S
H630 C601 0.949 . S
H631 C602 0.950 . S
H632 C606 0.950 . S
H633 C608 0.950 1_556 S
H634 C611 0.950 . S
H635 C613 0.950 . S
Co636 N641 2.057 . S
Co636 O653 2.021 . S
Co636 O656 2.062 . S
Co636 O660 2.117 . S
Co636 O661 2.020 . S
C637 O657 1.259 . S
C637 O660 1.258 . S
Co638 N647 2.057 . S
Co638 O654 2.117 . S
Co638 O655 2.020 . S
Co638 O657 2.021 . S
Co638 O662 2.062 . S
C639 N641 1.316 1_565 S
C639 N642 1.347 . S
C639 H644 0.931 . S
C640 N641 1.375 . S
C640 C643 1.350 1_545 S
C640 H645 0.930 . S
N641 Co636 2.057 . S
N641 C639 1.316 1_545 S
N641 C640 1.375 . S
N642 C639 1.347 . S
N642 C643 1.373 . S
C643 C640 1.350 1_565 S
C643 N642 1.373 . S
C643 H664 0.931 . S
H644 C639 0.931 . S
H645 C640 0.930 . S
C646 O653 1.259 . S
C646 O654 1.258 . S
N647 Co638 2.057 . S
N647 C648 1.316 . S
N647 C649 1.375 . S
C648 N647 1.316 . S
C648 N650 1.347 . S
C648 H659 0.931 . S
C649 N647 1.375 . S
C649 C651 1.354 . S
C649 H658 0.930 1_554 S
N650 C648 1.347 . S
N650 C651 1.385 . S
C651 C649 1.354 . S
C651 N650 1.385 . S
C651 H665 0.918 1_554 S
C652 O655 1.256 . S
C652 O656 1.255 . S
O653 Co636 2.021 . S
O653 C646 1.259 . S
O654 Co638 2.117 . S
O654 C646 1.258 . S
O655 Co638 2.020 . S
O655 C652 1.256 . S
O656 Co636 2.062 . S
O656 C652 1.255 . S
O657 C637 1.259 . S
O657 Co638 2.021 . S
H658 C649 0.930 1_556 S
H659 C648 0.931 . S
O660 Co636 2.117 . S
O660 C637 1.258 . S
O661 Co636 2.020 . S
O661 C663 1.256 . S
O662 Co638 2.062 . S
O662 C663 1.255 . S
C663 O661 1.256 . S
C663 O662 1.255 . S
H664 C643 0.931 . S
H665 C651 0.918 1_556 S
Co666 N671 2.057 . S
Co666 O683 2.021 . S
Co666 O686 2.062 . S
Co666 O690 2.117 . S
Co666 O691 2.020 . S
C667 O687 1.259 . S
C667 O690 1.258 . S
Co668 N677 2.057 1_554 S
Co668 O684 2.117 . S
Co668 O685 2.020 . S
Co668 O687 2.021 . S
Co668 O692 2.062 . S
C669 N671 1.316 . S
C669 N672 1.347 . S
C669 H674 0.931 . S
C670 N671 1.375 . S
C670 C673 1.350 . S
C670 H675 0.930 . S
N671 Co666 2.057 . S
N671 C669 1.316 . S
N671 C670 1.375 . S
N672 C669 1.347 . S
N672 C673 1.373 . S
C673 C670 1.350 . S
C673 N672 1.373 . S
C673 H694 0.931 1_655 S
H674 C669 0.931 . S
H675 C670 0.930 . S
C676 O683 1.259 . S
C676 O684 1.258 . S
N677 Co668 2.057 1_556 S
N677 C678 1.316 . S
N677 C679 1.375 . S
C678 N677 1.316 . S
C678 N680 1.347 . S
C678 H689 0.931 . S
C679 N677 1.375 . S
C679 C681 1.350 . S
C679 H688 0.930 . S
N680 C678 1.347 . S
N680 C681 1.373 . S
C681 C679 1.350 . S
C681 N680 1.373 . S
C681 H695 0.931 . S
C682 O685 1.256 . S
C682 O686 1.255 . S
O683 Co666 2.021 . S
O683 C676 1.259 . S
O684 Co668 2.117 . S
O684 C676 1.258 . S
O685 Co668 2.020 . S
O685 C682 1.256 . S
O686 Co666 2.062 . S
O686 C682 1.255 . S
O687 C667 1.259 . S
O687 Co668 2.021 . S
H688 C679 0.930 . S
H689 C678 0.931 . S
O690 Co666 2.117 . S
O690 C667 1.258 . S
O691 Co666 2.020 . S
O691 C693 1.256 . S
O692 Co668 2.062 . S
O692 C693 1.255 . S
C693 O691 1.256 . S
C693 O692 1.255 . S
H694 C673 0.931 1_455 S
H695 C681 0.931 . S
Co696 N701 2.057 . S
Co696 O713 2.021 . S
Co696 O716 2.062 . S
Co696 O720 2.117 . S
Co696 O721 2.020 . S
C697 O717 1.259 . S
C697 O720 1.258 . S
Co698 N707 2.057 . S
Co698 O714 2.117 . S
Co698 O715 2.020 . S
Co698 O717 2.021 . S
Co698 O722 2.062 . S
C699 N701 1.316 . S
C699 N702 1.347 . S
C699 H704 0.931 . S
C700 N701 1.375 . S
C700 C703 1.350 . S
C700 H705 0.930 . S
N701 Co696 2.057 . S
N701 C699 1.316 . S
N701 C700 1.375 . S
N702 C699 1.347 . S
N702 C703 1.373 . S
C703 C700 1.350 . S
C703 N702 1.373 . S
C703 H724 0.931 . S
H704 C699 0.931 . S
H705 C700 0.930 . S
C706 O713 1.259 . S
C706 O714 1.258 . S
N707 Co698 2.057 . S
N707 C708 1.316 . S
N707 C709 1.375 1_455 S
C708 N707 1.316 . S
C708 N710 1.347 . S
C708 H719 0.931 . S
C709 N707 1.375 1_655 S
C709 C711 1.350 . S
C709 H718 0.930 . S
N710 C708 1.347 . S
N710 C711 1.373 1_455 S
C711 C709 1.350 . S
C711 N710 1.373 1_655 S
C711 H725 0.931 . S
C712 O715 1.256 . S
C712 O716 1.255 . S
O713 Co696 2.021 . S
O713 C706 1.259 . S
O714 Co698 2.117 . S
O714 C706 1.258 . S
O715 Co698 2.020 . S
O715 C712 1.256 . S
O716 Co696 2.062 . S
O716 C712 1.255 . S
O717 C697 1.259 . S
O717 Co698 2.021 . S
H718 C709 0.930 . S
H719 C708 0.931 . S
O720 Co696 2.117 . S
O720 C697 1.258 . S
O721 Co696 2.020 . S
O721 C723 1.256 . S
O722 Co698 2.062 . S
O722 C723 1.255 . S
C723 O721 1.256 . S
C723 O722 1.255 . S
H724 C703 0.931 . S
H725 C711 0.931 . S
Co726 N731 2.057 . S
Co726 O743 2.021 . S
Co726 O746 2.062 . S
Co726 O750 2.117 . S
Co726 O751 2.020 . S
C727 O747 1.259 . S
C727 O750 1.251 1_455 S
Co728 N737 2.057 . S
Co728 O744 2.117 . S
Co728 O745 2.020 . S
Co728 O747 2.004 1_655 S
Co728 O752 2.062 . S
C729 N731 1.316 . S
C729 N732 1.347 . S
C729 H734 0.931 . S
C730 N731 1.375 . S
C730 C733 1.350 . S
C730 H735 0.930 . S
N731 Co726 2.057 . S
N731 C729 1.316 . S
N731 C730 1.375 . S
N732 C729 1.347 . S
N732 C733 1.373 . S
C733 C730 1.350 . S
C733 N732 1.373 . S
C733 H754 0.931 . S
H734 C729 0.931 . S
H735 C730 0.930 . S
C736 O743 1.259 . S
C736 O744 1.258 . S
N737 Co728 2.057 . S
N737 C738 1.316 . S
N737 C739 1.375 . S
C738 N737 1.316 . S
C738 N740 1.347 . S
C738 H749 0.931 1_655 S
C739 N737 1.375 . S
C739 C741 1.350 . S
C739 H748 0.930 . S
N740 C738 1.347 . S
N740 C741 1.373 . S
C741 C739 1.350 . S
C741 N740 1.373 . S
C741 H755 0.931 . S
C742 O745 1.256 . S
C742 O746 1.255 . S
O743 Co726 2.021 . S
O743 C736 1.259 . S
O744 Co728 2.117 . S
O744 C736 1.258 . S
O745 Co728 2.020 . S
O745 C742 1.256 . S
O746 Co726 2.062 . S
O746 C742 1.255 . S
O747 C727 1.259 . S
O747 Co728 2.004 1_455 S
H748 C739 0.930 . S
H749 C738 0.931 1_455 S
O750 Co726 2.117 . S
O750 C727 1.251 1_655 S
O751 Co726 2.020 . S
O751 C753 1.256 . S
O752 Co728 2.062 . S
O752 C753 1.255 . S
C753 O751 1.256 . S
C753 O752 1.255 . S
H754 C733 0.931 . S
H755 C741 0.931 . S
Co756 N761 2.057 . S
Co756 O773 2.021 . S
Co756 O776 2.062 . S
Co756 O780 2.117 . S
Co756 O781 2.020 . S
C757 O777 1.259 . S
C757 O780 1.258 . S
Co758 N767 2.057 . S
Co758 O774 2.117 . S
Co758 O775 2.020 . S
Co758 O777 2.021 . S
Co758 O782 2.062 . S
C759 N761 1.316 . S
C759 N762 1.347 . S
C759 H764 0.931 . S
C760 N761 1.375 . S
C760 C763 1.350 . S
C760 H765 0.930 . S
N761 Co756 2.057 . S
N761 C759 1.316 . S
N761 C760 1.375 . S
N762 C759 1.347 . S
N762 C763 1.373 . S
C763 C760 1.350 . S
C763 N762 1.373 . S
C763 H784 0.931 . S
H764 C759 0.931 . S
H765 C760 0.930 . S
C766 O773 1.259 . S
C766 O774 1.258 . S
N767 Co758 2.057 . S
N767 C768 1.316 . S
N767 C769 1.375 . S
C768 N767 1.316 . S
C768 N770 1.347 . S
C768 H779 0.931 . S
C769 N767 1.375 . S
C769 C771 1.350 . S
C769 H778 0.930 . S
N770 C768 1.347 . S
N770 C771 1.373 . S
C771 C769 1.350 . S
C771 N770 1.373 . S
C771 H785 0.931 . S
C772 O775 1.256 . S
C772 O776 1.255 . S
O773 Co756 2.021 . S
O773 C766 1.259 . S
O774 Co758 2.117 . S
O774 C766 1.258 . S
O775 Co758 2.020 . S
O775 C772 1.256 . S
O776 Co756 2.062 . S
O776 C772 1.255 . S
O777 C757 1.259 . S
O777 Co758 2.021 . S
H778 C769 0.930 . S
H779 C768 0.931 . S
O780 Co756 2.117 . S
O780 C757 1.258 . S
O781 Co756 2.020 . S
O781 C783 1.256 . S
O782 Co758 2.062 . S
O782 C783 1.255 . S
C783 O781 1.256 . S
C783 O782 1.255 . S
H784 C763 0.931 . S
H785 C771 0.931 . S
Co786 N791 2.057 . S
Co786 O803 2.021 . S
Co786 O806 2.062 . S
Co786 O810 2.117 . S
Co786 O811 2.020 . S
C787 O807 1.259 . S
C787 O810 1.258 . S
Co788 N797 2.057 . S
Co788 O804 2.117 . S
Co788 O805 2.020 . S
Co788 O807 2.021 . S
Co788 O812 2.062 . S
C789 N791 1.316 . S
C789 N792 1.347 . S
C789 H794 0.931 . S
C790 N791 1.375 . S
C790 C793 1.350 . S
C790 H795 0.930 . S
N791 Co786 2.057 . S
N791 C789 1.316 . S
N791 C790 1.375 . S
N792 C789 1.347 . S
N792 C793 1.373 . S
C793 C790 1.350 . S
C793 N792 1.373 . S
C793 H814 0.931 . S
H794 C789 0.931 . S
H795 C790 0.930 . S
C796 O803 1.259 . S
C796 O804 1.258 . S
N797 Co788 2.057 . S
N797 C798 1.316 . S
N797 C799 1.375 . S
C798 N797 1.316 . S
C798 N800 1.347 . S
C798 H809 0.931 . S
C799 N797 1.375 . S
C799 C801 1.350 . S
C799 H808 0.930 . S
N800 C798 1.347 . S
N800 C801 1.373 . S
C801 C799 1.350 . S
C801 N800 1.373 . S
C801 H815 0.931 . S
C802 O805 1.256 . S
C802 O806 1.255 . S
O803 Co786 2.021 . S
O803 C796 1.259 . S
O804 Co788 2.117 . S
O804 C796 1.258 . S
O805 Co788 2.020 . S
O805 C802 1.256 . S
O806 Co786 2.062 . S
O806 C802 1.255 . S
O807 C787 1.259 . S
O807 Co788 2.021 . S
H808 C799 0.930 . S
H809 C798 0.931 . S
O810 Co786 2.117 . S
O810 C787 1.258 . S
O811 Co786 2.020 . S
O811 C813 1.256 . S
O812 Co788 2.062 . S
O812 C813 1.255 . S
C813 O811 1.256 . S
C813 O812 1.255 . S
H814 C793 0.931 . S
H815 C801 0.931 . S
Co816 N821 2.057 1_556 S
Co816 O833 2.021 . S
Co816 O836 2.062 . S
Co816 O840 2.117 . S
Co816 O841 2.020 . S
C817 O837 1.259 . S
C817 O840 1.258 . S
Co818 N827 2.057 . S
Co818 O834 2.117 . S
Co818 O835 2.020 . S
Co818 O837 2.021 . S
Co818 O842 2.062 . S
C819 N821 1.316 . S
C819 N822 1.347 . S
C819 H824 0.931 . S
C820 N821 1.375 . S
C820 C823 1.350 . S
C820 H825 0.930 1_554 S
N821 Co816 2.057 1_554 S
N821 C819 1.316 . S
N821 C820 1.375 . S
N822 C819 1.347 . S
N822 C823 1.373 . S
C823 C820 1.350 . S
C823 N822 1.373 . S
C823 H844 0.931 . S
H824 C819 0.931 . S
H825 C820 0.930 1_556 S
C826 O833 1.259 . S
C826 O834 1.258 . S
N827 Co818 2.057 . S
N827 C828 1.316 . S
N827 C829 1.375 . S
C828 N827 1.316 . S
C828 N830 1.347 . S
C828 H839 0.931 . S
C829 N827 1.375 . S
C829 C831 1.350 . S
C829 H838 0.930 . S
N830 C828 1.347 . S
N830 C831 1.373 . S
C831 C829 1.350 . S
C831 N830 1.373 . S
C831 H845 0.931 . S
C832 O835 1.256 . S
C832 O836 1.255 . S
O833 Co816 2.021 . S
O833 C826 1.259 . S
O834 Co818 2.117 . S
O834 C826 1.258 . S
O835 Co818 2.020 . S
O835 C832 1.256 . S
O836 Co816 2.062 . S
O836 C832 1.255 . S
O837 C817 1.259 . S
O837 Co818 2.021 . S
H838 C829 0.930 . S
H839 C828 0.931 . S
O840 Co816 2.117 . S
O840 C817 1.258 . S
O841 Co816 2.020 . S
O841 C843 1.256 . S
O842 Co818 2.062 . S
O842 C843 1.255 . S
C843 O841 1.256 . S
C843 O842 1.255 . S
H844 C823 0.931 . S
H845 C831 0.931 . S
Co846 N851 2.057 . S
Co846 O863 2.021 . S
Co846 O866 2.062 . S
Co846 O870 2.117 . S
Co846 O871 2.020 . S
C847 O867 1.259 . S
C847 O870 1.258 . S
Co848 N857 2.057 . S
Co848 O864 2.117 . S
Co848 O865 2.020 . S
Co848 O867 2.021 . S
Co848 O872 2.062 . S
C849 N851 1.316 . S
C849 N852 1.347 . S
C849 H854 0.931 . S
C850 N851 1.375 . S
C850 C853 1.350 . S
C850 H855 0.930 . S
N851 Co846 2.057 . S
N851 C849 1.316 . S
N851 C850 1.375 . S
N852 C849 1.347 . S
N852 C853 1.373 . S
C853 C850 1.350 . S
C853 N852 1.373 . S
C853 H874 0.931 . S
H854 C849 0.931 . S
H855 C850 0.930 . S
C856 O863 1.259 . S
C856 O864 1.258 . S
N857 Co848 2.057 . S
N857 C858 1.316 1_545 S
N857 C859 1.375 1_545 S
C858 N857 1.316 1_565 S
C858 N860 1.347 . S
C858 H869 0.931 1_565 S
C859 N857 1.375 1_565 S
C859 C861 1.350 . S
C859 H868 0.930 . S
N860 C858 1.347 . S
N860 C861 1.373 . S
C861 C859 1.350 . S
C861 N860 1.373 . S
C861 H875 0.931 . S
C862 O865 1.256 . S
C862 O866 1.255 . S
O863 Co846 2.021 . S
O863 C856 1.259 . S
O864 Co848 2.117 . S
O864 C856 1.258 . S
O865 Co848 2.020 . S
O865 C862 1.256 . S
O866 Co846 2.062 . S
O866 C862 1.255 . S
O867 C847 1.259 . S
O867 Co848 2.021 . S
H868 C859 0.930 . S
H869 C858 0.931 1_545 S
O870 Co846 2.117 . S
O870 C847 1.258 . S
O871 Co846 2.020 . S
O871 C873 1.256 . S
O872 Co848 2.062 . S
O872 C873 1.255 . S
C873 O871 1.256 . S
C873 O872 1.255 . S
H874 C853 0.931 . S
H875 C861 0.931 . S
H876 C884 0.950 . S
H877 C889 0.950 . S
H878 C886 0.950 . S
H879 C888 0.950 . S
H880 C890 0.950 . S
H881 C892 0.950 . S
H882 C894 0.950 . S
H883 C895 0.950 . S
C884 H876 0.950 . S
C884 C885 1.386 . S
C884 C886 1.391 . S
C885 C884 1.386 . S
C885 C889 1.393 . S
C886 H878 0.950 . S
C886 C884 1.391 . S
C886 C887 1.400 . S
C887 C886 1.400 . S
C887 C888 1.398 . S
C887 C893 1.491 . S
C888 H879 0.950 . S
C888 C887 1.398 . S
C888 C889 1.391 . S
C889 H877 0.950 . S
C889 C885 1.393 . S
C889 C888 1.391 . S
C890 H880 0.950 . S
C890 C891 1.386 1_545 S
C890 C892 1.391 . S
C891 C890 1.386 1_565 S
C891 C895 1.393 . S
C892 H881 0.950 . S
C892 C890 1.391 . S
C892 C893 1.400 . S
C893 C887 1.491 . S
C893 C892 1.400 . S
C893 C894 1.398 . S
C894 H882 0.950 . S
C894 C893 1.398 . S
C894 C895 1.391 1_545 S
C895 H883 0.950 . S
C895 C891 1.393 . S
C895 C894 1.391 1_565 S
H896 C904 0.950 1_655 S
H897 C909 0.950 . S
H898 C906 0.958 . S
H899 C908 0.950 . S
H900 C910 0.950 . S
H901 C912 0.950 . S
H902 C914 0.950 . S
H903 C915 0.950 . S
C904 H896 0.950 1_455 S
C904 C905 1.386 . S
C904 C906 1.389 1_455 S
C905 C904 1.386 . S
C905 C909 1.393 . S
C906 H898 0.958 . S
C906 C904 1.389 1_655 S
C906 C907 1.394 1_655 S
C907 C906 1.394 1_455 S
C907 C908 1.398 . S
C907 C913 1.491 . S
C908 H899 0.950 . S
C908 C907 1.398 . S
C908 C909 1.391 . S
C909 H897 0.950 . S
C909 C905 1.393 . S
C909 C908 1.391 . S
C910 H900 0.950 . S
C910 C911 1.386 . S
C910 C912 1.391 . S
C911 C910 1.386 . S
C911 C915 1.393 1_455 S
C912 H901 0.950 . S
C912 C910 1.391 . S
C912 C913 1.400 . S
C913 C907 1.491 . S
C913 C912 1.400 . S
C913 C914 1.398 1_455 S
C914 H902 0.950 . S
C914 C913 1.398 1_655 S
C914 C915 1.391 . S
C915 H903 0.950 . S
C915 C911 1.393 1_655 S
C915 C914 1.391 . S
H916 C924 0.950 . S
H917 C929 0.950 . S
H918 C926 0.950 . S
H919 C928 0.950 . S
H920 C930 0.950 . S
H921 C932 0.950 . S
H922 C934 0.950 . S
H923 C935 0.950 . S
C924 H916 0.950 . S
C924 C925 1.386 . S
C924 C926 1.391 . S
C925 C924 1.386 . S
C925 C929 1.393 . S
C926 H918 0.950 . S
C926 C924 1.391 . S
C926 C927 1.400 . S
C927 C926 1.400 . S
C927 C928 1.398 . S
C927 C933 1.491 . S
C928 H919 0.950 . S
C928 C927 1.398 . S
C928 C929 1.391 . S
C929 H917 0.950 . S
C929 C925 1.393 . S
C929 C928 1.391 . S
C930 H920 0.950 . S
C930 C931 1.386 . S
C930 C932 1.391 . S
C931 C930 1.386 . S
C931 C935 1.393 . S
C932 H921 0.950 . S
C932 C930 1.391 . S
C932 C933 1.400 . S
C933 C927 1.491 . S
C933 C932 1.400 . S
C933 C934 1.398 . S
C934 H922 0.950 . S
C934 C933 1.398 . S
C934 C935 1.391 . S
C935 H923 0.950 . S
C935 C931 1.393 . S
C935 C934 1.391 . S
H936 C944 0.950 . S
H937 C949 0.950 . S
H938 C946 0.950 . S
H939 C948 0.950 . S
H940 C950 0.950 . S
H941 C952 0.950 . S
H942 C954 0.950 1_455 S
H943 C955 0.950 . S
C944 H936 0.950 . S
C944 C945 1.386 1_455 S
C944 C946 1.391 . S
C945 C944 1.386 1_655 S
C945 C949 1.393 . S
C946 H938 0.950 . S
C946 C944 1.391 . S
C946 C947 1.400 1_455 S
C947 C946 1.400 1_655 S
C947 C948 1.398 . S
C947 C953 1.491 . S
C948 H939 0.950 . S
C948 C947 1.398 . S
C948 C949 1.391 . S
C949 H937 0.950 . S
C949 C945 1.393 . S
C949 C948 1.391 . S
C950 H940 0.950 . S
C950 C951 1.386 . S
C950 C952 1.391 . S
C951 C950 1.386 . S
C951 C955 1.393 . S
C952 H941 0.950 . S
C952 C950 1.391 . S
C952 C953 1.400 . S
C953 C947 1.491 . S
C953 C952 1.400 . S
C953 C954 1.398 . S
C954 H942 0.950 1_655 S
C954 C953 1.398 . S
C954 C955 1.391 . S
C955 H943 0.950 . S
C955 C951 1.393 . S
C955 C954 1.391 . S
H956 C964 0.950 . S
H957 C969 0.950 . S
H958 C966 0.950 . S
H959 C968 0.950 . S
H960 C970 0.950 . S
H961 C972 0.950 . S
H962 C974 0.950 . S
H963 C975 0.950 1_556 S
C964 H956 0.950 . S
C964 C965 1.386 . S
C964 C966 1.391 . S
C965 C964 1.386 . S
C965 C969 1.393 . S
C966 H958 0.950 . S
C966 C964 1.391 . S
C966 C967 1.400 . S
C967 C966 1.400 . S
C967 C968 1.398 . S
C967 C973 1.491 . S
C968 H959 0.950 . S
C968 C967 1.398 . S
C968 C969 1.391 . S
C969 H957 0.950 . S
C969 C965 1.393 . S
C969 C968 1.391 . S
C970 H960 0.950 . S
C970 C971 1.386 . S
C970 C972 1.391 . S
C971 C970 1.386 . S
C971 C975 1.393 . S
C972 H961 0.950 . S
C972 C970 1.391 . S
C972 C973 1.400 . S
C973 C967 1.491 . S
C973 C972 1.400 . S
C973 C974 1.398 . S
C974 H962 0.950 . S
C974 C973 1.398 . S
C974 C975 1.391 . S
C975 H963 0.950 1_554 S
C975 C971 1.393 . S
C975 C974 1.391 . S
H976 C984 0.950 . S
H977 C989 0.950 . S
H978 C986 0.950 . S
H979 C988 0.950 . S
H980 C990 0.950 . S
H981 C992 0.950 . S
H982 C994 0.950 . S
H983 C995 0.950 . S
C984 H976 0.950 . S
C984 C985 1.386 . S
C984 C986 1.391 . S
C985 C984 1.386 . S
C985 C989 1.393 . S
C986 H978 0.950 . S
C986 C984 1.391 . S
C986 C987 1.400 . S
C987 C986 1.400 . S
C987 C988 1.398 . S
C987 C993 1.491 . S
C988 H979 0.950 . S
C988 C987 1.398 . S
C988 C989 1.391 . S
C989 H977 0.950 . S
C989 C985 1.393 . S
C989 C988 1.391 . S
C990 H980 0.950 . S
C990 C991 1.386 . S
C990 C992 1.391 . S
C991 C990 1.386 . S
C991 C995 1.393 . S
C992 H981 0.950 . S
C992 C990 1.391 . S
C992 C993 1.400 . S
C993 C987 1.491 . S
C993 C992 1.400 . S
C993 C994 1.398 . S
C994 H982 0.950 . S
C994 C993 1.398 . S
C994 C995 1.391 . S
C995 H983 0.950 . S
C995 C991 1.393 . S
C995 C994 1.391 . S
H996 C1004 0.950 . S
H997 C1009 0.950 . S
H998 C1006 0.950 . S
H999 C1008 0.950 . S
H1000 C1010 0.950 . S
H1001 C1012 0.950 . S
H1002 C1014 0.950 . S
H1003 C1015 0.950 . S
C1004 H996 0.950 . S
C1004 C1005 1.386 . S
C1004 C1006 1.391 . S
C1005 C1004 1.386 . S
C1005 C1009 1.393 1_565 S
C1006 H998 0.950 . S
C1006 C1004 1.391 . S
C1006 C1007 1.400 . S
C1007 C1006 1.400 . S
C1007 C1008 1.398 1_565 S
C1007 C1013 1.491 . S
C1008 H999 0.950 . S
C1008 C1007 1.398 1_545 S
C1008 C1009 1.391 . S
C1009 H997 0.950 . S
C1009 C1005 1.393 1_545 S
C1009 C1008 1.391 . S
C1010 H1000 0.950 . S
C1010 C1011 1.386 1_545 S
C1010 C1012 1.391 . S
C1011 C1010 1.386 1_565 S
C1011 C1015 1.393 . S
C1012 H1001 0.950 . S
C1012 C1010 1.391 . S
C1012 C1013 1.400 1_545 S
C1013 C1007 1.491 . S
C1013 C1012 1.400 1_565 S
C1013 C1014 1.398 . S
C1014 H1002 0.950 . S
C1014 C1013 1.398 . S
C1014 C1015 1.391 . S
C1015 H1003 0.950 . S
C1015 C1011 1.393 . S
C1015 C1014 1.391 . S
H1016 C1024 0.950 . S
H1017 C1029 0.950 . S
H1018 C1026 0.950 . S
H1019 C1028 0.950 . S
H1020 C1030 0.950 . S
H1021 C1032 0.950 . S
H1022 C1034 0.950 . S
H1023 C1035 0.950 . S
C1024 H1016 0.950 . S
C1024 C1025 1.386 . S
C1024 C1026 1.391 . S
C1025 C1024 1.386 . S
C1025 C1029 1.393 . S
C1026 H1018 0.950 . S
C1026 C1024 1.391 . S
C1026 C1027 1.400 . S
C1027 C1026 1.400 . S
C1027 C1028 1.398 . S
C1027 C1033 1.491 . S
C1028 H1019 0.950 . S
C1028 C1027 1.398 . S
C1028 C1029 1.391 . S
C1029 H1017 0.950 . S
C1029 C1025 1.393 . S
C1029 C1028 1.391 . S
C1030 H1020 0.950 . S
C1030 C1031 1.386 . S
C1030 C1032 1.391 . S
C1031 C1030 1.386 . S
C1031 C1035 1.393 . S
C1032 H1021 0.950 . S
C1032 C1030 1.391 . S
C1032 C1033 1.400 . S
C1033 C1027 1.491 . S
C1033 C1032 1.400 . S
C1033 C1034 1.398 . S
C1034 H1022 0.950 . S
C1034 C1033 1.398 . S
C1034 C1035 1.391 . S
C1035 H1023 0.950 . S
C1035 C1031 1.393 . S
C1035 C1034 1.391 . S
H1036 C1044 0.950 . S
H1037 C1049 0.950 . S
H1038 C1046 0.950 . S
H1039 C1048 0.950 . S
H1040 C1050 0.950 1_556 S
H1041 C1052 0.950 1_556 S
H1042 C1054 0.950 . S
H1043 C1055 0.950 . S
C1044 H1036 0.950 . S
C1044 C1045 1.386 . S
C1044 C1046 1.391 . S
C1045 C1044 1.386 . S
C1045 C1049 1.393 . S
C1046 H1038 0.950 . S
C1046 C1044 1.391 . S
C1046 C1047 1.400 . S
C1047 C1046 1.400 . S
C1047 C1048 1.398 . S
C1047 C1053 1.491 . S
C1048 H1039 0.950 . S
C1048 C1047 1.398 . S
C1048 C1049 1.391 . S
C1049 H1037 0.950 . S
C1049 C1045 1.393 . S
C1049 C1048 1.391 . S
C1050 H1040 0.950 1_554 S
C1050 C1051 1.386 . S
C1050 C1052 1.391 . S
C1051 C1050 1.386 . S
C1051 C1055 1.393 . S
C1052 H1041 0.950 1_554 S
C1052 C1050 1.391 . S
C1052 C1053 1.400 . S
C1053 C1047 1.491 . S
C1053 C1052 1.400 . S
C1053 C1054 1.398 . S
C1054 H1042 0.950 . S
C1054 C1053 1.398 . S
C1054 C1055 1.391 . S
C1055 H1043 0.950 . S
C1055 C1051 1.393 . S
C1055 C1054 1.391 . S
H1056 C1064 0.950 . S
H1057 C1069 0.950 . S
H1058 C1066 0.950 . S
H1059 C1068 0.950 . S
H1060 C1070 0.950 . S
H1061 C1072 0.950 . S
H1062 C1074 0.950 . S
H1063 C1075 0.950 . S
C1064 H1056 0.950 . S
C1064 C1065 1.386 . S
C1064 C1066 1.391 . S
C1065 C1064 1.386 . S
C1065 C1069 1.393 . S
C1066 H1058 0.950 . S
C1066 C1064 1.391 . S
C1066 C1067 1.400 . S
C1067 C1066 1.400 . S
C1067 C1068 1.398 . S
C1067 C1073 1.491 . S
C1068 H1059 0.950 . S
C1068 C1067 1.398 . S
C1068 C1069 1.391 . S
C1069 H1057 0.950 . S
C1069 C1065 1.393 . S
C1069 C1068 1.391 . S
C1070 H1060 0.950 . S
C1070 C1071 1.386 . S
C1070 C1072 1.391 . S
C1071 C1070 1.386 . S
C1071 C1075 1.393 . S
C1072 H1061 0.950 . S
C1072 C1070 1.391 . S
C1072 C1073 1.400 . S
C1073 C1067 1.491 . S
C1073 C1072 1.400 . S
C1073 C1074 1.398 . S
C1074 H1062 0.950 . S
C1074 C1073 1.398 . S
C1074 C1075 1.391 . S
C1075 H1063 0.950 . S
C1075 C1071 1.393 . S
C1075 C1074 1.391 . S
H1076 C1084 0.950 . S
H1077 C1089 0.950 . S
H1078 C1086 0.950 . S
H1079 C1088 0.950 . S
H1080 C1090 0.950 . S
H1081 C1092 0.950 . S
H1082 C1094 0.950 . S
H1083 C1095 0.950 . S
C1084 H1076 0.950 . S
C1084 C1085 1.386 . S
C1084 C1086 1.391 . S
C1085 C1084 1.386 . S
C1085 C1089 1.393 . S
C1086 H1078 0.950 . S
C1086 C1084 1.391 . S
C1086 C1087 1.400 . S
C1087 C1086 1.400 . S
C1087 C1088 1.398 . S
C1087 C1093 1.491 . S
C1088 H1079 0.950 . S
C1088 C1087 1.398 . S
C1088 C1089 1.391 . S
C1089 H1077 0.950 . S
C1089 C1085 1.393 . S
C1089 C1088 1.391 . S
C1090 H1080 0.950 . S
C1090 C1091 1.386 . S
C1090 C1092 1.391 . S
C1091 C1090 1.386 . S
C1091 C1095 1.393 . S
C1092 H1081 0.950 . S
C1092 C1090 1.391 . S
C1092 C1093 1.400 . S
C1093 C1087 1.491 . S
C1093 C1092 1.400 . S
C1093 C1094 1.398 . S
C1094 H1082 0.950 . S
C1094 C1093 1.398 . S
C1094 C1095 1.391 . S
C1095 H1083 0.950 . S
C1095 C1091 1.393 . S
C1095 C1094 1.391 . S
H1096 C1104 0.950 . S
H1097 C1109 0.950 . S
H1098 C1106 0.950 . S
H1099 C1108 0.950 . S
H1100 C1110 0.950 . S
H1101 C1112 0.950 . S
H1102 C1114 0.950 . S
H1103 C1115 0.950 . S
C1104 H1096 0.950 . S
C1104 C1105 1.386 . S
C1104 C1106 1.391 . S
C1105 C1104 1.386 . S
C1105 C1109 1.393 . S
C1106 H1098 0.950 . S
C1106 C1104 1.391 . S
C1106 C1107 1.400 . S
C1107 C1106 1.400 . S
C1107 C1108 1.398 . S
C1107 C1113 1.491 . S
C1108 H1099 0.950 . S
C1108 C1107 1.398 . S
C1108 C1109 1.391 . S
C1109 H1097 0.950 . S
C1109 C1105 1.393 . S
C1109 C1108 1.391 . S
C1110 H1100 0.950 . S
C1110 C1111 1.386 . S
C1110 C1112 1.391 . S
C1111 C1110 1.386 . S
C1111 C1115 1.393 . S
C1112 H1101 0.950 . S
C1112 C1110 1.391 . S
C1112 C1113 1.400 . S
C1113 C1107 1.491 . S
C1113 C1112 1.400 . S
C1113 C1114 1.398 . S
C1114 H1102 0.950 . S
C1114 C1113 1.398 . S
C1114 C1115 1.391 . S
C1115 H1103 0.950 . S
C1115 C1111 1.393 . S
C1115 C1114 1.391 . S
H1116 C1124 0.950 . S
H1117 C1129 0.950 . S
H1118 C1126 0.950 . S
H1119 C1128 0.950 . S
H1120 C1130 0.950 . S
H1121 C1132 0.950 . S
H1122 C1134 0.950 . S
H1123 C1135 0.950 . S
C1124 H1116 0.950 . S
C1124 C1125 1.386 . S
C1124 C1126 1.391 . S
C1125 C1124 1.386 . S
C1125 C1129 1.393 . S
C1126 H1118 0.950 . S
C1126 C1124 1.391 . S
C1126 C1127 1.400 . S
C1127 C1126 1.400 . S
C1127 C1128 1.398 . S
C1127 C1133 1.491 . S
C1128 H1119 0.950 . S
C1128 C1127 1.398 . S
C1128 C1129 1.391 . S
C1129 H1117 0.950 . S
C1129 C1125 1.393 . S
C1129 C1128 1.391 . S
C1130 H1120 0.950 . S
C1130 C1131 1.386 . S
C1130 C1132 1.391 . S
C1131 C1130 1.386 . S
C1131 C1135 1.393 . S
C1132 H1121 0.950 . S
C1132 C1130 1.391 . S
C1132 C1133 1.400 . S
C1133 C1127 1.491 . S
C1133 C1132 1.400 . S
C1133 C1134 1.398 . S
C1134 H1122 0.950 . S
C1134 C1133 1.398 . S
C1134 C1135 1.391 . S
C1135 H1123 0.950 . S
C1135 C1131 1.393 . S
C1135 C1134 1.391 . S
H1136 C1144 0.950 . S
H1137 C1149 0.950 . S
H1138 C1146 0.950 . S
H1139 C1148 0.950 . S
H1140 C1150 0.950 . S
H1141 C1152 0.950 . S
H1142 C1154 0.950 . S
H1143 C1155 0.950 . S
C1144 H1136 0.950 . S
C1144 C1145 1.386 . S
C1144 C1146 1.391 . S
C1145 C1144 1.386 . S
C1145 C1149 1.393 . S
C1146 H1138 0.950 . S
C1146 C1144 1.391 . S
C1146 C1147 1.400 . S
C1147 C1146 1.400 . S
C1147 C1148 1.398 . S
C1147 C1153 1.491 . S
C1148 H1139 0.950 . S
C1148 C1147 1.398 . S
C1148 C1149 1.391 . S
C1149 H1137 0.950 . S
C1149 C1145 1.393 . S
C1149 C1148 1.391 . S
C1150 H1140 0.950 . S
C1150 C1151 1.386 . S
C1150 C1152 1.391 . S
C1151 C1150 1.386 . S
C1151 C1155 1.393 . S
C1152 H1141 0.950 . S
C1152 C1150 1.391 . S
C1152 C1153 1.400 . S
C1153 C1147 1.491 . S
C1153 C1152 1.400 . S
C1153 C1154 1.398 . S
C1154 H1142 0.950 . S
C1154 C1153 1.398 . S
C1154 C1155 1.391 . S
C1155 H1143 0.950 . S
C1155 C1151 1.393 . S
C1155 C1154 1.391 . S
H1156 C1164 0.950 . S
H1157 C1169 0.950 . S
H1158 C1166 0.950 . S
H1159 C1168 0.950 . S
H1160 C1170 0.950 . S
H1161 C1172 0.950 . S
H1162 C1174 0.950 . S
H1163 C1175 0.950 . S
C1164 H1156 0.950 . S
C1164 C1165 1.386 . S
C1164 C1166 1.391 . S
C1165 C1164 1.386 . S
C1165 C1169 1.393 . S
C1166 H1158 0.950 . S
C1166 C1164 1.391 . S
C1166 C1167 1.400 . S
C1167 C1166 1.400 . S
C1167 C1168 1.398 . S
C1167 C1173 1.491 . S
C1168 H1159 0.950 . S
C1168 C1167 1.398 . S
C1168 C1169 1.391 . S
C1169 H1157 0.950 . S
C1169 C1165 1.393 . S
C1169 C1168 1.391 . S
C1170 H1160 0.950 . S
C1170 C1171 1.386 . S
C1170 C1172 1.391 . S
C1171 C1170 1.386 . S
C1171 C1175 1.393 . S
C1172 H1161 0.950 . S
C1172 C1170 1.391 . S
C1172 C1173 1.400 . S
C1173 C1167 1.491 . S
C1173 C1172 1.400 . S
C1173 C1174 1.398 . S
C1174 H1162 0.950 . S
C1174 C1173 1.398 . S
C1174 C1175 1.391 . S
C1175 H1163 0.950 . S
C1175 C1171 1.393 . S
C1175 C1174 1.391 . S
H1176 C1184 0.950 . S
H1177 C1189 0.950 . S
H1178 C1186 0.950 . S
H1179 C1188 0.950 . S
H1180 C1190 0.950 . S
H1181 C1192 0.950 . S
H1182 C1194 0.950 . S
H1183 C1195 0.950 1_565 S
C1184 H1176 0.950 . S
C1184 C1185 1.386 . S
C1184 C1186 1.391 . S
C1185 C1184 1.386 . S
C1185 C1189 1.393 . S
C1186 H1178 0.950 . S
C1186 C1184 1.391 . S
C1186 C1187 1.400 . S
C1187 C1186 1.400 . S
C1187 C1188 1.398 . S
C1187 C1193 1.491 . S
C1188 H1179 0.950 . S
C1188 C1187 1.398 . S
C1188 C1189 1.391 . S
C1189 H1177 0.950 . S
C1189 C1185 1.393 . S
C1189 C1188 1.391 . S
C1190 H1180 0.950 . S
C1190 C1191 1.357 1_545 S
C1190 C1192 1.391 . S
C1191 C1190 1.357 1_565 S
C1191 C1195 1.380 1_565 S
C1192 H1181 0.950 . S
C1192 C1190 1.391 . S
C1192 C1193 1.400 . S
C1193 C1187 1.491 . S
C1193 C1192 1.400 . S
C1193 C1194 1.398 . S
C1194 H1182 0.950 . S
C1194 C1193 1.398 . S
C1194 C1195 1.391 . S
C1195 H1183 0.950 1_545 S
C1195 C1191 1.380 1_545 S
C1195 C1194 1.391 . S
H1196 C1204 0.950 . S
H1197 C1209 0.950 . S
H1198 C1206 0.950 . S
H1199 C1208 0.950 . S
H1200 C1210 0.950 . S
H1201 C1212 0.950 . S
H1202 C1214 0.950 . S
H1203 C1215 0.950 . S
C1204 H1196 0.950 . S
C1204 C1205 1.386 . S
C1204 C1206 1.391 . S
C1205 C1204 1.386 . S
C1205 C1209 1.393 . S
C1206 H1198 0.950 . S
C1206 C1204 1.391 . S
C1206 C1207 1.400 . S
C1207 C1206 1.400 . S
C1207 C1208 1.398 . S
C1207 C1213 1.491 . S
C1208 H1199 0.950 . S
C1208 C1207 1.398 . S
C1208 C1209 1.391 . S
C1209 H1197 0.950 . S
C1209 C1205 1.393 . S
C1209 C1208 1.391 . S
C1210 H1200 0.950 . S
C1210 C1211 1.386 . S
C1210 C1212 1.391 . S
C1211 C1210 1.386 . S
C1211 C1215 1.393 . S
C1212 H1201 0.950 . S
C1212 C1210 1.391 . S
C1212 C1213 1.400 . S
C1213 C1207 1.491 . S
C1213 C1212 1.400 . S
C1213 C1214 1.398 . S
C1214 H1202 0.950 . S
C1214 C1213 1.398 . S
C1214 C1215 1.391 . S
C1215 H1203 0.950 . S
C1215 C1211 1.393 . S
C1215 C1214 1.391 . S
H1216 C1224 0.950 . S
H1217 C1229 0.950 . S
H1218 C1226 0.950 . S
H1219 C1228 0.950 . S
H1220 C1230 0.950 . S
H1221 C1232 0.950 . S
H1222 C1234 0.963 . S
H1223 C1235 0.950 1_545 S
C1224 H1216 0.950 . S
C1224 C1225 1.386 1_545 S
C1224 C1226 1.391 . S
C1225 C1224 1.386 1_565 S
C1225 C1229 1.393 . S
C1226 H1218 0.950 . S
C1226 C1224 1.391 . S
C1226 C1227 1.400 1_545 S
C1227 C1226 1.400 1_565 S
C1227 C1228 1.398 . S
C1227 C1233 1.491 . S
C1228 H1219 0.950 . S
C1228 C1227 1.398 . S
C1228 C1229 1.391 . S
C1229 H1217 0.950 . S
C1229 C1225 1.393 . S
C1229 C1228 1.391 . S
C1230 H1220 0.950 . S
C1230 C1231 1.386 . S
C1230 C1232 1.391 . S
C1231 C1230 1.386 . S
C1231 C1235 1.393 . S
C1232 H1221 0.950 . S
C1232 C1230 1.391 . S
C1232 C1233 1.400 . S
C1233 C1227 1.491 . S
C1233 C1232 1.400 . S
C1233 C1234 1.386 1_565 S
C1234 H1222 0.963 . S
C1234 C1233 1.386 1_545 S
C1234 C1235 1.391 1_545 S
C1235 H1223 0.950 1_565 S
C1235 C1231 1.393 . S
C1235 C1234 1.391 1_565 S
H1236 C1244 0.950 . S
H1237 C1249 0.950 . S
H1238 C1246 0.950 . S
H1239 C1248 0.950 . S
H1240 C1250 0.950 . S
H1241 C1252 0.950 . S
H1242 C1254 0.950 . S
H1243 C1255 0.950 . S
C1244 H1236 0.950 . S
C1244 C1245 1.386 . S
C1244 C1246 1.391 . S
C1245 C1244 1.386 . S
C1245 C1249 1.393 . S
C1246 H1238 0.950 . S
C1246 C1244 1.391 . S
C1246 C1247 1.400 . S
C1247 C1246 1.400 . S
C1247 C1248 1.398 . S
C1247 C1253 1.491 . S
C1248 H1239 0.950 . S
C1248 C1247 1.398 . S
C1248 C1249 1.391 . S
C1249 H1237 0.950 . S
C1249 C1245 1.393 . S
C1249 C1248 1.391 . S
C1250 H1240 0.950 . S
C1250 C1251 1.386 . S
C1250 C1252 1.391 . S
C1251 C1250 1.386 . S
C1251 C1255 1.393 . S
C1252 H1241 0.950 . S
C1252 C1250 1.391 . S
C1252 C1253 1.400 . S
C1253 C1247 1.491 . S
C1253 C1252 1.400 . S
C1253 C1254 1.398 . S
C1254 H1242 0.950 . S
C1254 C1253 1.398 . S
C1254 C1255 1.391 . S
C1255 H1243 0.950 . S
C1255 C1251 1.393 . S
C1255 C1254 1.391 . S
H1256 C1264 0.950 . S
H1257 C1269 0.950 1_565 S
H1258 C1266 0.950 . S
H1259 C1268 0.950 1_565 S
H1260 C1270 0.987 . S
H1261 C1272 0.950 1_565 S
H1262 C1274 0.950 . S
H1263 C1275 0.950 . S
C1264 H1256 0.950 . S
C1264 C1265 1.386 . S
C1264 C1266 1.391 . S
C1265 C1264 1.386 . S
C1265 C1269 1.393 . S
C1266 H1258 0.950 . S
C1266 C1264 1.391 . S
C1266 C1267 1.400 . S
C1267 C1266 1.400 . S
C1267 C1268 1.398 . S
C1267 C1273 1.491 . S
C1268 H1259 0.950 1_545 S
C1268 C1267 1.398 . S
C1268 C1269 1.391 . S
C1269 H1257 0.950 1_545 S
C1269 C1265 1.393 . S
C1269 C1268 1.391 . S
C1270 H1260 0.987 . S
C1270 C1271 1.386 . S
C1270 C1272 1.391 . S
C1271 C1270 1.386 . S
C1271 C1275 1.393 . S
C1272 H1261 0.950 1_545 S
C1272 C1270 1.391 . S
C1272 C1273 1.400 . S
C1273 C1267 1.491 . S
C1273 C1272 1.400 . S
C1273 C1274 1.398 . S
C1274 H1262 0.950 . S
C1274 C1273 1.398 . S
C1274 C1275 1.391 . S
C1275 H1263 0.950 . S
C1275 C1271 1.393 . S
C1275 C1274 1.391 . S
H1276 C1284 0.950 . S
H1277 C1289 0.950 . S
H1278 C1286 0.950 . S
H1279 C1288 0.950 . S
H1280 C1290 0.950 . S
H1281 C1292 0.950 . S
H1282 C1294 0.950 . S
H1283 C1295 0.950 . S
C1284 H1276 0.950 . S
C1284 C1285 1.386 . S
C1284 C1286 1.391 . S
C1285 C1284 1.386 . S
C1285 C1289 1.393 . S
C1286 H1278 0.950 . S
C1286 C1284 1.391 . S
C1286 C1287 1.400 . S
C1287 C1286 1.400 . S
C1287 C1288 1.398 . S
C1287 C1293 1.491 . S
C1288 H1279 0.950 . S
C1288 C1287 1.398 . S
C1288 C1289 1.391 . S
C1289 H1277 0.950 . S
C1289 C1285 1.393 . S
C1289 C1288 1.391 . S
C1290 H1280 0.950 . S
C1290 C1291 1.386 . S
C1290 C1292 1.391 . S
C1291 C1290 1.386 . S
C1291 C1295 1.393 . S
C1292 H1281 0.950 . S
C1292 C1290 1.391 . S
C1292 C1293 1.400 . S
C1293 C1287 1.491 . S
C1293 C1292 1.400 . S
C1293 C1294 1.398 . S
C1294 H1282 0.950 . S
C1294 C1293 1.398 . S
C1294 C1295 1.391 . S
C1295 H1283 0.950 . S
C1295 C1291 1.393 . S
C1295 C1294 1.391 . S
H1296 C1304 0.950 . S
H1297 C1309 0.942 1_554 S
H1298 C1306 0.950 . S
H1299 C1308 0.950 . S
H1300 C1310 0.950 . S
H1301 C1312 0.950 . S
H1302 C1314 0.950 . S
H1303 C1315 0.950 . S
C1304 H1296 0.950 . S
C1304 C1305 1.386 . S
C1304 C1306 1.391 . S
C1305 C1304 1.386 . S
C1305 C1309 1.398 . S
C1306 H1298 0.950 . S
C1306 C1304 1.391 . S
C1306 C1307 1.400 . S
C1307 C1306 1.400 . S
C1307 C1308 1.398 . S
C1307 C1313 1.491 . S
C1308 H1299 0.950 . S
C1308 C1307 1.398 . S
C1308 C1309 1.394 . S
C1309 H1297 0.942 1_556 S
C1309 C1305 1.398 . S
C1309 C1308 1.394 . S
C1310 H1300 0.950 . S
C1310 C1311 1.386 . S
C1310 C1312 1.391 . S
C1311 C1310 1.386 . S
C1311 C1315 1.393 . S
C1312 H1301 0.950 . S
C1312 C1310 1.391 . S
C1312 C1313 1.400 . S
C1313 C1307 1.491 . S
C1313 C1312 1.400 . S
C1313 C1314 1.398 . S
C1314 H1302 0.950 . S
C1314 C1313 1.398 . S
C1314 C1315 1.391 . S
C1315 H1303 0.950 . S
C1315 C1311 1.393 . S
C1315 C1314 1.391 . S
H1316 C1324 0.950 . S
H1317 C1329 0.950 . S
H1318 C1326 0.950 . S
H1319 C1328 0.950 . S
H1320 C1330 0.950 . S
H1321 C1332 0.950 . S
H1322 C1334 0.950 . S
H1323 C1335 0.950 . S
C1324 H1316 0.950 . S
C1324 C1325 1.381 . S
C1324 C1326 1.391 . S
C1325 C1324 1.381 . S
C1325 C1329 1.398 1_554 S
C1326 H1318 0.950 . S
C1326 C1324 1.391 . S
C1326 C1327 1.400 1_554 S
C1327 C1326 1.400 1_556 S
C1327 C1328 1.398 . S
C1327 C1333 1.491 . S
C1328 H1319 0.950 . S
C1328 C1327 1.398 . S
C1328 C1329 1.391 . S
C1329 H1317 0.950 . S
C1329 C1325 1.398 1_556 S
C1329 C1328 1.391 . S
C1330 H1320 0.950 . S
C1330 C1331 1.386 . S
C1330 C1332 1.391 . S
C1331 C1330 1.386 . S
C1331 C1335 1.393 1_556 S
C1332 H1321 0.950 . S
C1332 C1330 1.391 . S
C1332 C1333 1.400 . S
C1333 C1327 1.491 . S
C1333 C1332 1.400 . S
C1333 C1334 1.398 1_556 S
C1334 H1322 0.950 . S
C1334 C1333 1.398 1_554 S
C1334 C1335 1.391 . S
C1335 H1323 0.950 . S
C1335 C1331 1.393 1_554 S
C1335 C1334 1.391 . S
H1336 C1344 0.950 . S
H1337 C1349 0.950 . S
H1338 C1346 0.960 . S
H1339 C1348 0.950 . S
H1340 C1350 0.950 1_455 S
H1341 C1352 0.950 . S
H1342 C1354 0.950 . S
H1343 C1355 0.938 1_556 S
C1344 H1336 0.950 . S
C1344 C1345 1.386 . S
C1344 C1346 1.391 . S
C1345 C1344 1.386 . S
C1345 C1349 1.393 . S
C1346 H1338 0.960 . S
C1346 C1344 1.391 . S
C1346 C1347 1.400 . S
C1347 C1346 1.400 . S
C1347 C1348 1.398 . S
C1347 C1353 1.491 . S
C1348 H1339 0.950 . S
C1348 C1347 1.398 . S
C1348 C1349 1.391 . S
C1349 H1337 0.950 . S
C1349 C1345 1.393 . S
C1349 C1348 1.391 . S
C1350 H1340 0.950 1_655 S
C1350 C1351 1.386 . S
C1350 C1352 1.391 . S
C1351 C1350 1.386 . S
C1351 C1355 1.393 . S
C1352 H1341 0.950 . S
C1352 C1350 1.391 . S
C1352 C1353 1.400 . S
C1353 C1347 1.491 . S
C1353 C1352 1.400 . S
C1353 C1354 1.398 . S
C1354 H1342 0.950 . S
C1354 C1353 1.398 . S
C1354 C1355 1.391 . S
C1355 H1343 0.938 1_554 S
C1355 C1351 1.393 . S
C1355 C1354 1.391 . S
H1356 C1364 0.950 . S
H1357 C1369 0.950 . S
H1358 C1366 0.950 . S
H1359 C1368 0.950 . S
H1360 C1370 0.950 . S
H1361 C1372 0.950 . S
H1362 C1374 0.950 . S
H1363 C1375 0.950 . S
C1364 H1356 0.950 . S
C1364 C1365 1.386 . S
C1364 C1366 1.391 . S
C1365 C1364 1.386 . S
C1365 C1369 1.393 . S
C1366 H1358 0.950 . S
C1366 C1364 1.391 . S
C1366 C1367 1.400 . S
C1367 C1366 1.400 . S
C1367 C1368 1.398 . S
C1367 C1373 1.491 . S
C1368 H1359 0.950 . S
C1368 C1367 1.398 . S
C1368 C1369 1.391 . S
C1369 H1357 0.950 . S
C1369 C1365 1.393 . S
C1369 C1368 1.391 . S
C1370 H1360 0.950 . S
C1370 C1371 1.386 . S
C1370 C1372 1.391 . S
C1371 C1370 1.386 . S
C1371 C1375 1.393 . S
C1372 H1361 0.950 . S
C1372 C1370 1.391 . S
C1372 C1373 1.400 . S
C1373 C1367 1.491 . S
C1373 C1372 1.400 . S
C1373 C1374 1.398 . S
C1374 H1362 0.950 . S
C1374 C1373 1.398 . S
C1374 C1375 1.391 . S
C1375 H1363 0.950 . S
C1375 C1371 1.393 . S
C1375 C1374 1.391 . S
H1376 C1384 0.950 . S
H1377 C1389 0.950 . S
H1378 C1386 0.950 . S
H1379 C1388 0.950 . S
H1380 C1390 0.950 . S
H1381 C1392 0.950 . S
H1382 C1394 0.950 . S
H1383 C1395 0.950 . S
C1384 H1376 0.950 . S
C1384 C1385 1.386 . S
C1384 C1386 1.391 . S
C1385 C1384 1.386 . S
C1385 C1389 1.393 1_455 S
C1386 H1378 0.950 . S
C1386 C1384 1.391 . S
C1386 C1387 1.400 . S
C1387 C1386 1.400 . S
C1387 C1388 1.398 1_455 S
C1387 C1393 1.491 1_455 S
C1388 H1379 0.950 . S
C1388 C1387 1.398 1_655 S
C1388 C1389 1.391 . S
C1389 H1377 0.950 . S
C1389 C1385 1.393 1_655 S
C1389 C1388 1.391 . S
C1390 H1380 0.950 . S
C1390 C1391 1.386 . S
C1390 C1392 1.391 . S
C1391 C1390 1.386 . S
C1391 C1395 1.393 1_655 S
C1392 H1381 0.950 . S
C1392 C1390 1.391 . S
C1392 C1393 1.400 . S
C1393 C1387 1.491 1_655 S
C1393 C1392 1.400 . S
C1393 C1394 1.398 1_655 S
C1394 H1382 0.950 . S
C1394 C1393 1.398 1_455 S
C1394 C1395 1.391 . S
C1395 H1383 0.950 . S
C1395 C1391 1.393 1_455 S
C1395 C1394 1.391 . S
H1396 C1404 0.950 . S
H1397 C1409 0.950 . S
H1398 C1406 0.950 . S
H1399 C1408 0.950 . S
H1400 C1410 0.950 . S
H1401 C1412 0.950 . S
H1402 C1414 0.950 . S
H1403 C1415 0.950 . S
C1404 H1396 0.950 . S
C1404 C1405 1.386 . S
C1404 C1406 1.391 . S
C1405 C1404 1.386 . S
C1405 C1409 1.393 . S
C1406 H1398 0.950 . S
C1406 C1404 1.391 . S
C1406 C1407 1.400 . S
C1407 C1406 1.400 . S
C1407 C1408 1.398 . S
C1407 C1413 1.491 . S
C1408 H1399 0.950 . S
C1408 C1407 1.398 . S
C1408 C1409 1.391 . S
C1409 H1397 0.950 . S
C1409 C1405 1.393 . S
C1409 C1408 1.391 . S
C1410 H1400 0.950 . S
C1410 C1411 1.386 . S
C1410 C1412 1.391 . S
C1411 C1410 1.386 . S
C1411 C1415 1.393 . S
C1412 H1401 0.950 . S
C1412 C1410 1.391 . S
C1412 C1413 1.400 . S
C1413 C1407 1.491 . S
C1413 C1412 1.400 . S
C1413 C1414 1.398 . S
C1414 H1402 0.950 . S
C1414 C1413 1.398 . S
C1414 C1415 1.391 . S
C1415 H1403 0.950 . S
C1415 C1411 1.393 . S
C1415 C1414 1.391 . S
H1416 C1424 0.950 . S
H1417 C1429 0.950 . S
H1418 C1426 0.950 . S
H1419 C1428 0.950 . S
H1420 C1430 0.950 . S
H1421 C1432 0.950 . S
H1422 C1434 0.950 . S
H1423 C1435 0.964 . S
C1424 H1416 0.950 . S
C1424 C1425 1.386 1_455 S
C1424 C1426 1.391 . S
C1425 C1424 1.386 1_655 S
C1425 C1429 1.393 . S
C1426 H1418 0.950 . S
C1426 C1424 1.391 . S
C1426 C1427 1.400 1_455 S
C1427 C1426 1.400 1_655 S
C1427 C1428 1.398 . S
C1427 C1433 1.491 . S
C1428 H1419 0.950 . S
C1428 C1427 1.398 . S
C1428 C1429 1.391 . S
C1429 H1417 0.950 . S
C1429 C1425 1.393 . S
C1429 C1428 1.391 . S
C1430 H1420 0.950 . S
C1430 C1431 1.386 . S
C1430 C1432 1.391 . S
C1431 C1430 1.386 . S
C1431 C1435 1.378 1_655 S
C1432 H1421 0.950 . S
C1432 C1430 1.391 . S
C1432 C1433 1.400 . S
C1433 C1427 1.491 . S
C1433 C1432 1.400 . S
C1433 C1434 1.398 1_655 S
C1434 H1422 0.950 . S
C1434 C1433 1.398 1_455 S
C1434 C1435 1.391 . S
C1435 H1423 0.964 . S
C1435 C1431 1.378 1_455 S
C1435 C1434 1.391 . S
H1436 C1444 0.950 . S
H1437 C1449 0.950 . S
H1438 C1446 0.950 . S
H1439 C1448 0.950 . S
H1440 C1450 0.950 . S
H1441 C1452 0.950 . S
H1442 C1454 0.950 . S
H1443 C1455 0.950 . S
C1444 H1436 0.950 . S
C1444 C1445 1.386 . S
C1444 C1446 1.391 . S
C1445 C1444 1.386 . S
C1445 C1449 1.393 . S
C1446 H1438 0.950 . S
C1446 C1444 1.391 . S
C1446 C1447 1.400 . S
C1447 C1446 1.400 . S
C1447 C1448 1.398 . S
C1447 C1453 1.491 . S
C1448 H1439 0.950 . S
C1448 C1447 1.398 . S
C1448 C1449 1.391 . S
C1449 H1437 0.950 . S
C1449 C1445 1.393 . S
C1449 C1448 1.391 . S
C1450 H1440 0.950 . S
C1450 C1451 1.386 . S
C1450 C1452 1.391 . S
C1451 C1450 1.386 . S
C1451 C1455 1.393 . S
C1452 H1441 0.950 . S
C1452 C1450 1.391 . S
C1452 C1453 1.400 . S
C1453 C1447 1.491 . S
C1453 C1452 1.400 . S
C1453 C1454 1.398 . S
C1454 H1442 0.950 . S
C1454 C1453 1.398 . S
C1454 C1455 1.391 . S
C1455 H1443 0.950 . S
C1455 C1451 1.393 . S
C1455 C1454 1.391 . S
H1456 C1464 0.950 . S
H1457 C1469 0.950 . S
H1458 C1466 0.950 . S
H1459 C1468 0.950 . S
H1460 C1470 0.950 . S
H1461 C1472 0.950 . S
H1462 C1474 0.950 . S
H1463 C1475 0.950 . S
C1464 H1456 0.950 . S
C1464 C1465 1.386 . S
C1464 C1466 1.391 . S
C1465 C1464 1.386 . S
C1465 C1469 1.393 . S
C1466 H1458 0.950 . S
C1466 C1464 1.391 . S
C1466 C1467 1.400 . S
C1467 C1466 1.400 . S
C1467 C1468 1.398 . S
C1467 C1473 1.491 . S
C1468 H1459 0.950 . S
C1468 C1467 1.398 . S
C1468 C1469 1.391 . S
C1469 H1457 0.950 . S
C1469 C1465 1.393 . S
C1469 C1468 1.391 . S
C1470 H1460 0.950 . S
C1470 C1471 1.386 . S
C1470 C1472 1.391 . S
C1471 C1470 1.386 . S
C1471 C1475 1.393 . S
C1472 H1461 0.950 . S
C1472 C1470 1.391 . S
C1472 C1473 1.400 . S
C1473 C1467 1.491 . S
C1473 C1472 1.400 . S
C1473 C1474 1.398 . S
C1474 H1462 0.950 . S
C1474 C1473 1.398 . S
C1474 C1475 1.391 . S
C1475 H1463 0.950 . S
C1475 C1471 1.393 . S
C1475 C1474 1.391 . S
H1476 C1484 0.950 . S
H1477 C1489 0.950 1_545 S
H1478 C1486 0.950 . S
H1479 C1488 0.950 . S
H1480 C1490 0.950 . S
H1481 C1492 0.950 . S
H1482 C1494 0.950 . S
H1483 C1495 0.950 . S
C1484 H1476 0.950 . S
C1484 C1485 1.386 . S
C1484 C1486 1.391 . S
C1485 C1484 1.386 . S
C1485 C1489 1.393 . S
C1486 H1478 0.950 . S
C1486 C1484 1.391 . S
C1486 C1487 1.400 . S
C1487 C1486 1.400 . S
C1487 C1488 1.398 . S
C1487 C1493 1.491 . S
C1488 H1479 0.950 . S
C1488 C1487 1.398 . S
C1488 C1489 1.391 . S
C1489 H1477 0.950 1_565 S
C1489 C1485 1.393 . S
C1489 C1488 1.391 . S
C1490 H1480 0.950 . S
C1490 C1491 1.386 . S
C1490 C1492 1.391 . S
C1491 C1490 1.386 . S
C1491 C1495 1.393 . S
C1492 H1481 0.950 . S
C1492 C1490 1.391 . S
C1492 C1493 1.400 . S
C1493 C1487 1.491 . S
C1493 C1492 1.400 . S
C1493 C1494 1.398 . S
C1494 H1482 0.950 . S
C1494 C1493 1.398 . S
C1494 C1495 1.391 . S
C1495 H1483 0.950 . S
C1495 C1491 1.393 . S
C1495 C1494 1.391 . S
H1496 C1504 0.950 . S
H1497 C1509 0.950 . S
H1498 C1506 0.950 . S
H1499 C1508 0.950 . S
H1500 C1510 0.950 . S
H1501 C1512 0.950 . S
H1502 C1514 0.950 . S
H1503 C1515 0.950 . S
C1504 H1496 0.950 . S
C1504 C1505 1.386 . S
C1504 C1506 1.391 . S
C1505 C1504 1.386 . S
C1505 C1509 1.393 . S
C1506 H1498 0.950 . S
C1506 C1504 1.391 . S
C1506 C1507 1.400 . S
C1507 C1506 1.400 . S
C1507 C1508 1.398 . S
C1507 C1513 1.491 . S
C1508 H1499 0.950 . S
C1508 C1507 1.398 . S
C1508 C1509 1.391 . S
C1509 H1497 0.950 . S
C1509 C1505 1.393 . S
C1509 C1508 1.391 . S
C1510 H1500 0.950 . S
C1510 C1511 1.386 . S
C1510 C1512 1.391 . S
C1511 C1510 1.386 . S
C1511 C1515 1.393 . S
C1512 H1501 0.950 . S
C1512 C1510 1.391 . S
C1512 C1513 1.400 . S
C1513 C1507 1.491 . S
C1513 C1512 1.400 . S
C1513 C1514 1.398 . S
C1514 H1502 0.950 . S
C1514 C1513 1.398 . S
C1514 C1515 1.391 . S
C1515 H1503 0.950 . S
C1515 C1511 1.393 . S
C1515 C1514 1.391 . S
H1516 C1524 0.950 . S
H1517 C1529 0.950 . S
H1518 C1526 0.950 . S
H1519 C1528 0.950 . S
H1520 C1530 0.950 . S
H1521 C1532 0.950 . S
H1522 C1534 0.950 . S
H1523 C1535 0.950 . S
C1524 H1516 0.950 . S
C1524 C1525 1.386 . S
C1524 C1526 1.391 . S
C1525 C1524 1.386 . S
C1525 C1529 1.393 . S
C1526 H1518 0.950 . S
C1526 C1524 1.391 . S
C1526 C1527 1.400 . S
C1527 C1526 1.400 . S
C1527 C1528 1.398 . S
C1527 C1533 1.491 . S
C1528 H1519 0.950 . S
C1528 C1527 1.398 . S
C1528 C1529 1.391 . S
C1529 H1517 0.950 . S
C1529 C1525 1.393 . S
C1529 C1528 1.391 . S
C1530 H1520 0.950 . S
C1530 C1531 1.386 . S
C1530 C1532 1.391 . S
C1531 C1530 1.386 . S
C1531 C1535 1.393 . S
C1532 H1521 0.950 . S
C1532 C1530 1.391 . S
C1532 C1533 1.400 . S
C1533 C1527 1.491 . S
C1533 C1532 1.400 . S
C1533 C1534 1.398 . S
C1534 H1522 0.950 . S
C1534 C1533 1.398 . S
C1534 C1535 1.391 . S
C1535 H1523 0.950 . S
C1535 C1531 1.393 . S
C1535 C1534 1.391 . S
H1536 C1544 0.950 . S
H1537 C1549 0.950 . S
H1538 C1546 0.950 . S
H1539 C1548 0.950 . S
H1540 C1550 0.950 . S
H1541 C1552 0.950 . S
H1542 C1554 0.950 . S
H1543 C1555 0.950 . S
C1544 H1536 0.950 . S
C1544 C1545 1.386 . S
C1544 C1546 1.391 . S
C1545 C1544 1.386 . S
C1545 C1549 1.393 . S
C1546 H1538 0.950 . S
C1546 C1544 1.391 . S
C1546 C1547 1.400 . S
C1547 C1546 1.400 . S
C1547 C1548 1.398 . S
C1547 C1553 1.491 . S
C1548 H1539 0.950 . S
C1548 C1547 1.398 . S
C1548 C1549 1.391 . S
C1549 H1537 0.950 . S
C1549 C1545 1.393 . S
C1549 C1548 1.391 . S
C1550 H1540 0.950 . S
C1550 C1551 1.386 . S
C1550 C1552 1.391 . S
C1551 C1550 1.386 . S
C1551 C1555 1.393 . S
C1552 H1541 0.950 . S
C1552 C1550 1.391 . S
C1552 C1553 1.400 . S
C1553 C1547 1.491 . S
C1553 C1552 1.400 . S
C1553 C1554 1.398 . S
C1554 H1542 0.950 . S
C1554 C1553 1.398 . S
C1554 C1555 1.391 . S
C1555 H1543 0.950 . S
C1555 C1551 1.393 . S
C1555 C1554 1.391 . S
H1556 C1564 0.950 . S
H1557 C1569 0.950 . S
H1558 C1566 0.950 . S
H1559 C1568 0.950 . S
H1560 C1570 0.950 . S
H1561 C1572 0.950 . S
H1562 C1574 0.950 . S
H1563 C1575 0.950 . S
C1564 H1556 0.950 . S
C1564 C1565 1.386 . S
C1564 C1566 1.391 . S
C1565 C1564 1.386 . S
C1565 C1569 1.393 . S
C1566 H1558 0.950 . S
C1566 C1564 1.391 . S
C1566 C1567 1.400 . S
C1567 C1566 1.400 . S
C1567 C1568 1.398 . S
C1567 C1573 1.491 . S
C1568 H1559 0.950 . S
C1568 C1567 1.398 . S
C1568 C1569 1.391 . S
C1569 H1557 0.950 . S
C1569 C1565 1.393 . S
C1569 C1568 1.391 . S
C1570 H1560 0.950 . S
C1570 C1571 1.386 . S
C1570 C1572 1.391 . S
C1571 C1570 1.386 . S
C1571 C1575 1.393 . S
C1572 H1561 0.950 . S
C1572 C1570 1.391 . S
C1572 C1573 1.400 . S
C1573 C1567 1.491 . S
C1573 C1572 1.400 . S
C1573 C1574 1.398 . S
C1574 H1562 0.950 . S
C1574 C1573 1.398 . S
C1574 C1575 1.391 . S
C1575 H1563 0.950 . S
C1575 C1571 1.393 . S
C1575 C1574 1.391 . S
H1576 C1584 0.950 . S
H1577 C1589 0.950 . S
H1578 C1586 0.950 . S
H1579 C1588 0.950 . S
H1580 C1590 0.950 . S
H1581 C1592 0.950 . S
H1582 C1594 0.950 . S
H1583 C1595 0.950 . S
C1584 H1576 0.950 . S
C1584 C1585 1.386 . S
C1584 C1586 1.391 . S
C1585 C1584 1.386 . S
C1585 C1589 1.393 . S
C1586 H1578 0.950 . S
C1586 C1584 1.391 . S
C1586 C1587 1.400 . S
C1587 C1586 1.400 . S
C1587 C1588 1.398 . S
C1587 C1593 1.491 . S
C1588 H1579 0.950 . S
C1588 C1587 1.398 . S
C1588 C1589 1.391 . S
C1589 H1577 0.950 . S
C1589 C1585 1.393 . S
C1589 C1588 1.391 . S
C1590 H1580 0.950 . S
C1590 C1591 1.386 . S
C1590 C1592 1.391 . S
C1591 C1590 1.386 . S
C1591 C1595 1.393 . S
C1592 H1581 0.950 . S
C1592 C1590 1.391 . S
C1592 C1593 1.400 . S
C1593 C1587 1.491 . S
C1593 C1592 1.400 . S
C1593 C1594 1.398 . S
C1594 H1582 0.950 . S
C1594 C1593 1.398 . S
C1594 C1595 1.391 . S
C1595 H1583 0.950 . S
C1595 C1591 1.393 . S
C1595 C1594 1.391 . S
H1596 C1604 0.950 . S
H1597 C1609 0.950 . S
H1598 C1606 0.950 . S
H1599 C1608 0.950 . S
H1600 C1610 0.950 . S
H1601 C1612 0.950 . S
H1602 C1614 0.950 . S
H1603 C1615 0.950 . S
C1604 H1596 0.950 . S
C1604 C1605 1.386 . S
C1604 C1606 1.391 . S
C1605 C1604 1.386 . S
C1605 C1609 1.393 . S
C1606 H1598 0.950 . S
C1606 C1604 1.391 . S
C1606 C1607 1.400 . S
C1607 C1606 1.400 . S
C1607 C1608 1.398 . S
C1607 C1613 1.491 . S
C1608 H1599 0.950 . S
C1608 C1607 1.398 . S
C1608 C1609 1.391 . S
C1609 H1597 0.950 . S
C1609 C1605 1.393 . S
C1609 C1608 1.391 . S
C1610 H1600 0.950 . S
C1610 C1611 1.386 . S
C1610 C1612 1.391 . S
C1611 C1610 1.386 . S
C1611 C1615 1.393 . S
C1612 H1601 0.950 . S
C1612 C1610 1.391 . S
C1612 C1613 1.400 . S
C1613 C1607 1.491 . S
C1613 C1612 1.400 . S
C1613 C1614 1.398 . S
C1614 H1602 0.950 . S
C1614 C1613 1.398 . S
C1614 C1615 1.391 . S
C1615 H1603 0.950 . S
C1615 C1611 1.393 . S
C1615 C1614 1.391 . S
H1616 C1624 0.950 . S
H1617 C1629 0.950 . S
H1618 C1626 0.950 . S
H1619 C1628 0.950 . S
H1620 C1630 0.950 . S
H1621 C1632 0.950 . S
H1622 C1634 0.950 . S
H1623 C1635 0.950 . S
C1624 H1616 0.950 . S
C1624 C1625 1.386 . S
C1624 C1626 1.391 . S
C1625 C1624 1.386 . S
C1625 C1629 1.393 . S
C1626 H1618 0.950 . S
C1626 C1624 1.391 . S
C1626 C1627 1.400 . S
C1627 C1626 1.400 . S
C1627 C1628 1.398 . S
C1627 C1633 1.491 . S
C1628 H1619 0.950 . S
C1628 C1627 1.398 . S
C1628 C1629 1.391 . S
C1629 H1617 0.950 . S
C1629 C1625 1.393 . S
C1629 C1628 1.391 . S
C1630 H1620 0.950 . S
C1630 C1631 1.386 . S
C1630 C1632 1.391 . S
C1631 C1630 1.386 . S
C1631 C1635 1.393 . S
C1632 H1621 0.950 . S
C1632 C1630 1.391 . S
C1632 C1633 1.400 . S
C1633 C1627 1.491 . S
C1633 C1632 1.400 . S
C1633 C1634 1.398 . S
C1634 H1622 0.950 . S
C1634 C1633 1.398 . S
C1634 C1635 1.391 . S
C1635 H1623 0.950 . S
C1635 C1631 1.393 . S
C1635 C1634 1.391 . S
H1636 C1644 0.950 . S
H1637 C1649 0.950 . S
H1638 C1646 0.950 . S
H1639 C1648 0.950 . S
H1640 C1650 0.950 . S
H1641 C1652 0.950 . S
H1642 C1654 0.950 . S
H1643 C1655 0.950 . S
C1644 H1636 0.950 . S
C1644 C1645 1.386 . S
C1644 C1646 1.391 . S
C1645 C1644 1.386 . S
C1645 C1649 1.393 . S
C1646 H1638 0.950 . S
C1646 C1644 1.391 . S
C1646 C1647 1.400 . S
C1647 C1646 1.400 . S
C1647 C1648 1.398 . S
C1647 C1653 1.491 . S
C1648 H1639 0.950 . S
C1648 C1647 1.398 . S
C1648 C1649 1.391 . S
C1649 H1637 0.950 . S
C1649 C1645 1.393 . S
C1649 C1648 1.391 . S
C1650 H1640 0.950 . S
C1650 C1651 1.386 . S
C1650 C1652 1.391 . S
C1651 C1650 1.386 . S
C1651 C1655 1.393 . S
C1652 H1641 0.950 . S
C1652 C1650 1.391 . S
C1652 C1653 1.400 . S
C1653 C1647 1.491 . S
C1653 C1652 1.400 . S
C1653 C1654 1.398 . S
C1654 H1642 0.950 . S
C1654 C1653 1.398 . S
C1654 C1655 1.391 . S
C1655 H1643 0.950 . S
C1655 C1651 1.393 . S
C1655 C1654 1.391 . S
H1656 C1664 0.950 . S
H1657 C1669 0.950 . S
H1658 C1666 0.950 . S
H1659 C1668 0.950 . S
H1660 C1670 0.950 . S
H1661 C1672 0.950 . S
H1662 C1674 0.950 . S
H1663 C1675 0.950 . S
C1664 H1656 0.950 . S
C1664 C1665 1.386 . S
C1664 C1666 1.391 . S
C1665 C1664 1.386 . S
C1665 C1669 1.393 . S
C1666 H1658 0.950 . S
C1666 C1664 1.391 . S
C1666 C1667 1.400 . S
C1667 C1666 1.400 . S
C1667 C1668 1.398 . S
C1667 C1673 1.491 . S
C1668 H1659 0.950 . S
C1668 C1667 1.398 . S
C1668 C1669 1.391 . S
C1669 H1657 0.950 . S
C1669 C1665 1.393 . S
C1669 C1668 1.391 . S
C1670 H1660 0.950 . S
C1670 C1671 1.386 . S
C1670 C1672 1.391 . S
C1671 C1670 1.386 . S
C1671 C1675 1.393 . S
C1672 H1661 0.950 . S
C1672 C1670 1.391 . S
C1672 C1673 1.400 . S
C1673 C1667 1.491 . S
C1673 C1672 1.400 . S
C1673 C1674 1.398 . S
C1674 H1662 0.950 . S
C1674 C1673 1.398 . S
C1674 C1675 1.391 . S
C1675 H1663 0.950 . S
C1675 C1671 1.393 . S
C1675 C1674 1.391 . S
H1676 C1684 0.950 . S
H1677 C1689 0.950 . S
H1678 C1686 0.950 . S
H1679 C1688 0.950 . S
H1680 C1690 0.950 . S
H1681 C1692 0.950 . S
H1682 C1694 0.950 . S
H1683 C1695 0.950 . S
C1684 H1676 0.950 . S
C1684 C1685 1.386 . S
C1684 C1686 1.391 . S
C1685 C1684 1.386 . S
C1685 C1689 1.393 . S
C1686 H1678 0.950 . S
C1686 C1684 1.391 . S
C1686 C1687 1.400 . S
C1687 C1686 1.400 . S
C1687 C1688 1.398 . S
C1687 C1693 1.491 . S
C1688 H1679 0.950 . S
C1688 C1687 1.398 . S
C1688 C1689 1.391 . S
C1689 H1677 0.950 . S
C1689 C1685 1.393 . S
C1689 C1688 1.391 . S
C1690 H1680 0.950 . S
C1690 C1691 1.386 . S
C1690 C1692 1.391 . S
C1691 C1690 1.386 . S
C1691 C1695 1.393 . S
C1692 H1681 0.950 . S
C1692 C1690 1.391 . S
C1692 C1693 1.400 . S
C1693 C1687 1.491 . S
C1693 C1692 1.400 . S
C1693 C1694 1.398 . S
C1694 H1682 0.950 . S
C1694 C1693 1.398 . S
C1694 C1695 1.391 . S
C1695 H1683 0.950 . S
C1695 C1691 1.393 . S
C1695 C1694 1.391 . S
H1696 C1704 0.950 . S
H1697 C1709 0.950 . S
H1698 C1706 0.950 . S
H1699 C1708 0.950 . S
H1700 C1710 0.950 . S
H1701 C1712 0.950 . S
H1702 C1714 0.950 . S
H1703 C1715 0.950 . S
C1704 H1696 0.950 . S
C1704 C1705 1.386 . S
C1704 C1706 1.391 . S
C1705 C1704 1.386 . S
C1705 C1709 1.393 . S
C1706 H1698 0.950 . S
C1706 C1704 1.391 . S
C1706 C1707 1.400 . S
C1707 C1706 1.400 . S
C1707 C1708 1.398 . S
C1707 C1713 1.491 . S
C1708 H1699 0.950 . S
C1708 C1707 1.398 . S
C1708 C1709 1.391 . S
C1709 H1697 0.950 . S
C1709 C1705 1.393 . S
C1709 C1708 1.391 . S
C1710 H1700 0.950 . S
C1710 C1711 1.386 . S
C1710 C1712 1.391 . S
C1711 C1710 1.386 . S
C1711 C1715 1.393 . S
C1712 H1701 0.950 . S
C1712 C1710 1.391 . S
C1712 C1713 1.400 . S
C1713 C1707 1.491 . S
C1713 C1712 1.400 . S
C1713 C1714 1.398 . S
C1714 H1702 0.950 . S
C1714 C1713 1.398 . S
C1714 C1715 1.391 . S
C1715 H1703 0.950 . S
C1715 C1711 1.393 . S
C1715 C1714 1.391 . S
H1716 C1724 0.950 . S
H1717 C1729 0.950 . S
H1718 C1726 0.950 . S
H1719 C1728 0.950 . S
H1720 C1730 0.950 . S
H1721 C1732 0.950 . S
H1722 C1734 0.950 . S
H1723 C1735 0.950 . S
C1724 H1716 0.950 . S
C1724 C1725 1.386 . S
C1724 C1726 1.391 . S
C1725 C1724 1.386 . S
C1725 C1729 1.393 . S
C1726 H1718 0.950 . S
C1726 C1724 1.391 . S
C1726 C1727 1.400 . S
C1727 C1726 1.400 . S
C1727 C1728 1.398 . S
C1727 C1733 1.491 . S
C1728 H1719 0.950 . S
C1728 C1727 1.398 . S
C1728 C1729 1.391 . S
C1729 H1717 0.950 . S
C1729 C1725 1.393 . S
C1729 C1728 1.391 . S
C1730 H1720 0.950 . S
C1730 C1731 1.386 . S
C1730 C1732 1.391 . S
C1731 C1730 1.386 . S
C1731 C1735 1.393 . S
C1732 H1721 0.950 . S
C1732 C1730 1.391 . S
C1732 C1733 1.400 . S
C1733 C1727 1.491 . S
C1733 C1732 1.400 . S
C1733 C1734 1.398 . S
C1734 H1722 0.950 . S
C1734 C1733 1.398 . S
C1734 C1735 1.391 . S
C1735 H1723 0.950 . S
C1735 C1731 1.393 . S
C1735 C1734 1.391 . S
H1736 C1744 0.950 . S
H1737 C1749 0.950 . S
H1738 C1746 0.950 . S
H1739 C1748 0.950 . S
H1740 C1750 0.950 . S
H1741 C1752 0.950 . S
H1742 C1754 0.950 . S
H1743 C1755 0.950 . S
C1744 H1736 0.950 . S
C1744 C1745 1.386 . S
C1744 C1746 1.391 . S
C1745 C1744 1.386 . S
C1745 C1749 1.393 . S
C1746 H1738 0.950 . S
C1746 C1744 1.391 . S
C1746 C1747 1.400 . S
C1747 C1746 1.400 . S
C1747 C1748 1.398 . S
C1747 C1753 1.491 . S
C1748 H1739 0.950 . S
C1748 C1747 1.398 . S
C1748 C1749 1.391 . S
C1749 H1737 0.950 . S
C1749 C1745 1.393 . S
C1749 C1748 1.391 . S
C1750 H1740 0.950 . S
C1750 C1751 1.386 . S
C1750 C1752 1.391 . S
C1751 C1750 1.386 . S
C1751 C1755 1.393 . S
C1752 H1741 0.950 . S
C1752 C1750 1.391 . S
C1752 C1753 1.400 . S
C1753 C1747 1.491 . S
C1753 C1752 1.400 . S
C1753 C1754 1.398 . S
C1754 H1742 0.950 . S
C1754 C1753 1.398 . S
C1754 C1755 1.391 . S
C1755 H1743 0.950 . S
C1755 C1751 1.393 . S
C1755 C1754 1.391 . S
H1756 C1764 0.950 . S
H1757 C1769 0.950 . S
H1758 C1766 0.950 . S
H1759 C1768 0.950 . S
H1760 C1770 0.950 . S
H1761 C1772 0.950 . S
H1762 C1774 0.950 . S
H1763 C1775 0.950 . S
C1764 H1756 0.950 . S
C1764 C1765 1.386 . S
C1764 C1766 1.391 . S
C1765 C1764 1.386 . S
C1765 C1769 1.393 . S
C1766 H1758 0.950 . S
C1766 C1764 1.391 . S
C1766 C1767 1.400 . S
C1767 C1766 1.400 . S
C1767 C1768 1.398 . S
C1767 C1773 1.491 . S
C1768 H1759 0.950 . S
C1768 C1767 1.398 . S
C1768 C1769 1.391 . S
C1769 H1757 0.950 . S
C1769 C1765 1.393 . S
C1769 C1768 1.391 . S
C1770 H1760 0.950 . S
C1770 C1771 1.386 . S
C1770 C1772 1.391 . S
C1771 C1770 1.386 . S
C1771 C1775 1.393 . S
C1772 H1761 0.950 . S
C1772 C1770 1.391 . S
C1772 C1773 1.400 . S
C1773 C1767 1.491 . S
C1773 C1772 1.400 . S
C1773 C1774 1.398 . S
C1774 H1762 0.950 . S
C1774 C1773 1.398 . S
C1774 C1775 1.391 . S
C1775 H1763 0.950 . S
C1775 C1771 1.393 . S
C1775 C1774 1.391 . S
H1776 C1784 0.950 . S
H1777 C1789 0.950 . S
H1778 C1786 0.950 . S
H1779 C1788 0.950 . S
H1780 C1790 0.950 . S
H1781 C1792 0.950 . S
H1782 C1794 0.950 . S
H1783 C1795 0.950 . S
C1784 H1776 0.950 . S
C1784 C1785 1.386 . S
C1784 C1786 1.391 . S
C1785 C1784 1.386 . S
C1785 C1789 1.393 1_556 S
C1786 H1778 0.950 . S
C1786 C1784 1.391 . S
C1786 C1787 1.400 . S
C1787 C1786 1.400 . S
C1787 C1788 1.398 1_556 S
C1787 C1793 1.491 . S
C1788 H1779 0.950 . S
C1788 C1787 1.398 1_554 S
C1788 C1789 1.391 . S
C1789 H1777 0.950 . S
C1789 C1785 1.393 1_554 S
C1789 C1788 1.391 . S
C1790 H1780 0.950 . S
C1790 C1791 1.386 1_554 S
C1790 C1792 1.391 . S
C1791 C1790 1.386 1_556 S
C1791 C1795 1.393 . S
C1792 H1781 0.950 . S
C1792 C1790 1.391 . S
C1792 C1793 1.400 1_554 S
C1793 C1787 1.491 . S
C1793 C1792 1.400 1_556 S
C1793 C1794 1.398 . S
C1794 H1782 0.950 . S
C1794 C1793 1.398 . S
C1794 C1795 1.391 . S
C1795 H1783 0.950 . S
C1795 C1791 1.393 . S
C1795 C1794 1.391 . S
H1796 C1804 0.950 . S
H1797 C1809 0.950 . S
H1798 C1806 0.967 . S
H1799 C1808 0.950 . S
H1800 C1810 0.950 . S
H1801 C1812 0.950 . S
H1802 C1814 0.948 1_554 S
H1803 C1815 0.950 . S
C1804 H1796 0.950 . S
C1804 C1805 1.386 1_554 S
C1804 C1806 1.396 . S
C1805 C1804 1.386 1_556 S
C1805 C1809 1.393 . S
C1806 H1798 0.967 . S
C1806 C1804 1.396 . S
C1806 C1807 1.380 1_554 S
C1807 C1806 1.380 1_556 S
C1807 C1808 1.398 . S
C1807 C1813 1.491 . S
C1808 H1799 0.950 . S
C1808 C1807 1.398 . S
C1808 C1809 1.391 . S
C1809 H1797 0.950 . S
C1809 C1805 1.393 . S
C1809 C1808 1.391 . S
C1810 H1800 0.950 . S
C1810 C1811 1.386 . S
C1810 C1812 1.391 . S
C1811 C1810 1.386 . S
C1811 C1815 1.393 . S
C1812 H1801 0.950 . S
C1812 C1810 1.391 . S
C1812 C1813 1.400 . S
C1813 C1807 1.491 . S
C1813 C1812 1.400 . S
C1813 C1814 1.398 . S
C1814 H1802 0.948 1_556 S
C1814 C1813 1.398 . S
C1814 C1815 1.391 . S
C1815 H1803 0.950 . S
C1815 C1811 1.393 . S
C1815 C1814 1.391 . S
H1816 C1824 0.950 1_556 S
H1817 C1829 0.950 . S
H1818 C1826 0.950 1_556 S
H1819 C1828 0.950 . S
H1820 C1830 0.950 . S
H1821 C1832 0.950 . S
H1822 C1834 0.950 1_556 S
H1823 C1835 0.950 1_556 S
C1824 H1816 0.950 1_554 S
C1824 C1825 1.386 . S
C1824 C1826 1.391 . S
C1825 C1824 1.386 . S
C1825 C1829 1.393 . S
C1826 H1818 0.950 1_554 S
C1826 C1824 1.391 . S
C1826 C1827 1.400 . S
C1827 C1826 1.400 . S
C1827 C1828 1.398 . S
C1827 C1833 1.491 . S
C1828 H1819 0.950 . S
C1828 C1827 1.398 . S
C1828 C1829 1.391 . S
C1829 H1817 0.950 . S
C1829 C1825 1.393 . S
C1829 C1828 1.391 . S
C1830 H1820 0.950 . S
C1830 C1831 1.386 . S
C1830 C1832 1.391 . S
C1831 C1830 1.386 . S
C1831 C1835 1.393 . S
C1832 H1821 0.950 . S
C1832 C1830 1.391 . S
C1832 C1833 1.400 . S
C1833 C1827 1.491 . S
C1833 C1832 1.400 . S
C1833 C1834 1.398 . S
C1834 H1822 0.950 1_554 S
C1834 C1833 1.398 . S
C1834 C1835 1.391 . S
C1835 H1823 0.950 1_554 S
C1835 C1831 1.393 . S
C1835 C1834 1.391 . S
C885 C22 1.705 . S
C891 C723 1.677 . S
C911 N740 1.785 1_455 S
C905 C38 1.925 . S
C931 N642 1.704 . S
C925 C75 1.663 . S
C945 C91 1.338 1_655 S
C951 C667 1.342 . S
C965 C128 1.824 . S
C971 C862 1.829 1_554 S
C985 C197 1.494 . S
C991 N822 1.490 . S
C1011 N770 1.731 . S
C1005 C144 1.865 . S
C1025 C181 1.715 . S
C1031 C796 1.717 . S
C1051 C682 1.752 1_455 S
C1045 C234 1.755 . S
C1071 C727 1.907 . S
C1065 C303 1.902 . S
C1085 C356 1.832 . S
C1091 C706 1.854 1_655 S
C1105 C287 1.937 . S
C1111 C813 1.932 . S
C1131 C843 1.604 . S
C1125 C393 1.618 . S
C1151 N860 1.790 . S
C1145 C409 1.967 . S
C1165 C462 1.800 . S
C1171 N792 1.832 . S
C1191 C757 1.340 . S
C1185 C446 1.293 . S
C1205 C499 1.786 . S
C1211 C742 1.778 . S
C1225 C552 1.410 . S
C1231 N702 1.430 . S
C1251 N680 1.583 . S
C1245 C515 1.740 . S
C1265 C568 1.967 . S
C1271 C646 1.966 1_556 S
C1291 C772 1.830 . S
C1285 C340 1.821 . S
C1311 C847 1.850 . S
C1305 C621 1.853 . S
C1325 C250 1.718 . S
C1331 C826 1.728 . S
C1345 C605 1.883 . S
C1351 C663 1.860 1_655 S
C1371 C637 1.363 . S
C1365 C39 1.328 . S
C1385 C29 0.736 . S
C1391 N672 0.743 . S
C1411 N710 1.205 . S
C1405 C92 1.268 . S
C1431 C753 1.665 . S
C1425 C82 1.600 . S
C1445 C145 1.623 . S
C1451 C652 1.624 . S
C1465 C188 1.416 . S
C1471 C693 1.408 . S
C1491 C697 1.108 . S
C1485 C135 1.114 . S
C1505 C198 1.577 . S
C1511 C736 1.570 . S
C1525 C251 1.069 . S
C1531 N650 1.025 . S
C1551 C712 1.650 . S
C1545 C294 1.618 . S
C1565 C347 1.096 . S
C1571 N732 1.094 . S
C1585 C304 1.559 . S
C1591 C766 1.555 . S
C1611 C787 1.369 . S
C1605 C410 1.361 . S
C1625 C400 0.766 . S
C1631 N762 0.770 . S
C1645 C453 0.959 . S
C1651 N830 0.912 . S
C1665 C463 1.927 . S
C1671 C873 1.946 . S
C1685 C516 1.603 . S
C1691 C802 1.625 . S
C1711 C783 1.753 . S
C1705 C569 1.775 . S
C1725 C506 1.005 . S
C1731 C817 1.002 . S
C1751 C856 1.352 . S
C1745 C559 1.341 . S
C1771 N800 0.948 . S
C1765 C357 1.005 . S
C1791 C832 1.622 . S
C1785 C612 1.611 . S
C1811 N852 1.038 . S
C1805 C241 1.038 . S
C1825 C622 1.451 . S
C1831 C676 1.462 . S
