# Generated by pormake.
# Topology tsx, (6,3)-cn, num edge types: 1
# Building blocks:
#     Node 0, Type 0, BuildingBlock: CIFDUS_clean_sbu_1, # of connection points: 6
#     Node 1, Type 0, BuildingBlock: CIFDUS_clean_sbu_1, # of connection points: 6
#     Node 2, Type 1, BuildingBlock: OLANEW_clean_sbu_2, # of connection points: 3
#     Node 3, Type 1, BuildingBlock: OLANEW_clean_sbu_2, # of connection points: 3
#     Node 4, Type 1, BuildingBlock: OLANEW_clean_sbu_2, # of connection points: 3
#     Node 5, Type 1, BuildingBlock: OLANEW_clean_sbu_2, # of connection points: 3
#     Edge 6, Type (0, 1), BuildingBlock: UVAHIK_clean_linker_0, # of connection points: 2
#     Edge 7, Type (0, 1), BuildingBlock: UVAHIK_clean_linker_0, # of connection points: 2
#     Edge 8, Type (0, 1), BuildingBlock: UVAHIK_clean_linker_0, # of connection points: 2
#     Edge 9, Type (0, 1), BuildingBlock: UVAHIK_clean_linker_0, # of connection points: 2
#     Edge 10, Type (0, 1), BuildingBlock: UVAHIK_clean_linker_0, # of connection points: 2
#     Edge 11, Type (0, 1), BuildingBlock: UVAHIK_clean_linker_0, # of connection points: 2
#     Edge 12, Type (0, 1), BuildingBlock: UVAHIK_clean_linker_0, # of connection points: 2
#     Edge 13, Type (0, 1), BuildingBlock: UVAHIK_clean_linker_0, # of connection points: 2
#     Edge 14, Type (0, 1), BuildingBlock: UVAHIK_clean_linker_0, # of connection points: 2
#     Edge 15, Type (0, 1), BuildingBlock: UVAHIK_clean_linker_0, # of connection points: 2
#     Edge 16, Type (0, 1), BuildingBlock: UVAHIK_clean_linker_0, # of connection points: 2
#     Edge 17, Type (0, 1), BuildingBlock: UVAHIK_clean_linker_0, # of connection points: 2
# Relax obj value: 0.039
# Max RMSD: 0.094
# Mean RMSD: 0.052
data_MOF--net-tsx--node1-CIFDUS_clean_sbu_1--node2-OLANEW_clean_sbu_2--edge1-UVAHIK_clean_linker_0
_symmetry_space_group_name_H-M    P1
_symmetry_Int_Tables_number       1
_symmetry_cell_setting            triclinic
loop_
_symmetry_equiv_pos_as_xyz
'x, y, z'
_cell_length_a     26.0723
_cell_length_b     31.488405
_cell_length_c     45.276396
_cell_angle_alpha  102.64002
_cell_angle_beta   91.919649
_cell_angle_gamma 90.855583
loop_
_atom_site_label
_atom_site_type_symbol
_atom_site_fract_x
_atom_site_fract_y
_atom_site_fract_z
_atom_type_partial_charge
O0 O 0.9934 0.07885 0.99511 0.0
Mn1 Mn 0.03466 0.02316 -0.00231 0.0
O2 O 0.92863 0.05539 0.96062 0.0
Mn3 Mn 0.94206 -0.00378 0.95188 0.0
O4 O 0.07505 0.96685 -0.00027 0.0
O5 O 0.09797 0.06043 0.01057 0.0
Mn6 Mn 0.12944 0.04577 0.04177 0.0
O7 O 0.01388 0.02913 0.04272 0.0
O8 O 0.14647 0.9879 0.02886 0.0
O9 O 0.056 0.01609 0.95248 0.0
O10 O 0.99104 0.97923 0.92342 0.0
O11 O 0.16896 0.08993 0.03248 0.0
O12 O 0.08293 0.05646 0.07238 0.0
C13 C 0.93408 0.96035 0.98703 0.0
C14 C 0.95374 0.08562 0.97917 0.0
C15 C 0.11785 0.95848 0.01202 0.0
C16 C 0.13399 0.08922 0.01141 0.0
C17 C 0.0359 0.0441 0.06885 0.0
C18 C 0.0369 -0.00546 0.92689 0.0
O19 O 0.97139 0.98656 0.98512 0.0
O20 O 0.89996 0.95658 0.96518 0.0
O21 O 0.47648 0.57026 0.50089 0.0
Mn22 Mn 0.52817 0.52008 0.50225 0.0
O23 O 0.40827 0.53832 0.47187 0.0
Mn24 Mn 0.4352 0.48359 0.45863 0.0
O25 O 0.57881 0.46955 0.50316 0.0
O26 O 0.58523 0.56462 0.51501 0.0
Mn27 Mn 0.6209 0.55297 0.54599 0.0
O28 O 0.51041 0.52202 0.54738 0.0
O29 O 0.64749 0.49807 0.53257 0.0
O30 O 0.54596 0.5171 0.45689 0.0
O31 O 0.48174 0.47823 0.42821 0.0
O32 O 0.65207 0.60155 0.53738 0.0
O33 O 0.57555 0.55735 0.577 0.0
C34 C 0.44201 0.443 0.49092 0.0
C35 C 0.43109 0.57139 0.4889 0.0
C36 C 0.62342 0.46601 0.51527 0.0
C37 C 0.61657 0.59712 0.5162 0.0
C38 C 0.53119 0.53903 0.57354 0.0
C39 C 0.52584 0.49707 0.43115 0.0
O40 O 0.47192 0.4754 0.48988 0.0
O41 O 0.40627 0.43558 0.46985 0.0
O42 O 0.01266 0.96573 0.37893 0.0
Cd43 Cd 0.02158 0.96685 0.43327 0.0
O44 O 0.03377 0.03533 0.3877 0.0
Cd45 Cd 0.02393 0.04767 0.43637 0.0
O46 O 0.96825 0.08805 0.46376 0.0
C47 C 0.92242 0.08341 0.45285 0.0
O48 O 0.91218 0.05282 0.42843 0.0
C49 C 0.02278 -0.00036 0.36906 0.0
C50 C 0.09408 0.90909 0.44738 0.0
O51 O 0.04665 0.89774 0.44209 0.0
O52 O 0.10752 0.94782 0.44577 0.0
O53 O 0.08686 0.03682 0.61053 0.0
Cd54 Cd 0.08065 0.05471 0.56086 0.0
O55 O 0.03859 0.97674 0.6024 0.0
Cd56 Cd 0.00647 0.97251 0.55642 0.0
O57 O 0.94667 0.93679 0.52483 0.0
C58 C 0.90013 0.9481 0.52772 0.0
O59 O 0.88968 0.98346 0.54786 0.0
C60 C 0.06809 0.00475 0.61972 0.0
C61 C 0.1587 0.11597 0.55914 0.0
O62 O 0.11406 0.12789 0.56824 0.0
O63 O 0.1661 0.0751 0.55011 0.0
O64 O 0.5007 0.4422 0.88099 0.0
Cd65 Cd 0.50409 0.44126 0.93514 0.0
O66 O 0.50316 0.5138 0.89223 0.0
Cd67 Cd 0.48618 0.52244 0.93994 0.0
O68 O 0.4283 0.563 0.96529 0.0
C69 C 0.38451 0.56102 0.95175 0.0
O70 O 0.37692 0.53269 0.92589 0.0
C71 C 0.50334 0.47814 0.87258 0.0
C72 C 0.58877 0.39756 0.95254 0.0
O73 O 0.54532 0.37789 0.94502 0.0
O74 O 0.59236 0.43791 0.95169 0.0
O75 O 0.58621 0.54975 0.11387 0.0
Cd76 Cd 0.58615 0.56392 0.06302 0.0
O77 O 0.53236 0.49309 0.10634 0.0
Cd78 Cd 0.50499 0.48511 0.05904 0.0
O79 O 0.44954 0.44521 0.02638 0.0
C80 C 0.40209 0.45415 0.02735 0.0
O81 O 0.38791 0.48962 0.04616 0.0
C82 C 0.56291 0.52016 0.12367 0.0
C83 C 0.66006 0.62914 0.0624 0.0
O84 O 0.61335 0.63851 0.06844 0.0
O85 O 0.67171 0.58884 0.05607 0.0
C86 C 0.18347 0.12302 0.97704 0.0
C87 C 0.13723 0.12013 0.99147 0.0
C88 C 0.19761 0.16126 0.96833 0.0
C89 C 0.22317 0.24691 0.95188 0.0
H90 H 0.20799 0.33958 0.02287 0.0
C91 C 0.37726 0.38071 0.99505 0.0
C92 C 0.3628 0.42184 0.0113 0.0
C93 C 0.34021 0.34796 0.98398 0.0
C94 C 0.21185 0.31462 0.00246 0.0
H95 H 0.0672 0.15312 0.00579 0.0
H96 H 0.09156 0.22036 0.9903 0.0
H97 H 0.15594 0.27353 0.0164 0.0
H98 H 0.29762 0.46173 0.02661 0.0
H99 H 0.23308 0.4048 0.00704 0.0
H100 H 0.28123 0.28741 0.93886 0.0
C101 C 0.11711 0.19308 0.98579 0.0
C102 C 0.1817 0.27659 -0.00132 0.0
C103 C 0.10275 0.15441 0.99425 0.0
C104 C 0.31021 0.43028 0.01449 0.0
C105 C 0.27315 0.39755 0.00338 0.0
C106 C 0.25341 0.28501 0.95569 0.0
C107 C 0.16603 0.19775 0.97433 0.0
C108 C 0.18837 0.24153 0.97396 0.0
C109 C 0.28775 0.35556 0.9888 0.0
C110 C 0.24947 0.31869 0.98162 0.0
H111 H 0.21092 0.09712 0.97507 0.0
H112 H 0.23562 0.16351 0.95979 0.0
H113 H 0.22875 0.22083 0.93234 0.0
H114 H 0.41739 0.37309 0.99207 0.0
H115 H 0.35303 0.31597 0.97312 0.0
C116 C 0.11086 0.87931 0.98525 0.0
C117 C 0.13509 0.91287 0.00715 0.0
C118 C 0.12861 0.83664 0.9807 0.0
C119 C 0.20883 0.76444 0.01705 0.0
H120 H 0.23227 0.70326 0.93475 0.0
C121 C 0.35614 0.62859 0.98731 0.0
C122 C 0.34554 0.59415 0.96221 0.0
C123 C 0.32222 0.66298 0.99455 0.0
C124 C 0.22511 0.71946 0.95787 0.0
H125 H 0.19638 0.92749 0.04183 0.0
H126 H 0.22721 0.85385 0.03369 0.0
H127 H 0.18705 0.77182 0.94367 0.0
H128 H 0.28948 0.56757 0.92612 0.0
H129 H 0.23021 0.62735 0.93895 0.0
H130 H 0.24818 0.71271 0.03127 0.0
C131 C 0.19424 0.86018 0.02023 0.0
C132 C 0.19916 0.75878 0.96296 0.0
C133 C 0.1768 0.90263 0.02466 0.0
C134 C 0.29904 0.59376 0.94547 0.0
C135 C 0.26517 0.62815 0.95269 0.0
C136 C 0.23477 0.72514 0.01196 0.0
C137 C 0.17061 0.82669 -0.00186 0.0
C138 C 0.19184 0.78223 0.99263 0.0
C139 C 0.27694 0.66366 0.97686 0.0
C140 C 0.24422 0.70268 0.98233 0.0
H141 H 0.07867 0.88605 0.97136 0.0
H142 H 0.10948 0.81144 0.96357 0.0
H143 H 0.20295 0.78137 0.04018 0.0
H144 H 0.3916 0.62989 0.00068 0.0
H145 H 0.3327 0.69 0.01317 0.0
C146 C 0.88078 0.94086 0.02612 0.0
C147 C 0.92758 0.93727 0.01156 0.0
C148 C 0.86568 0.90987 0.04205 0.0
C149 C 0.87773 0.79397 0.03366 0.0
H150 H 0.78541 0.81184 0.10042 0.0
C151 C 0.75085 0.65347 0.05704 0.0
C152 C 0.69938 0.66385 0.06293 0.0
C153 C 0.78773 0.68633 0.05727 0.0
C154 C 0.81106 0.80627 0.0817 0.0
H155 H 0.99716 0.90066 0.00374 0.0
H156 H 0.9706 0.84565 0.0315 0.0
H157 H 0.83824 0.87264 0.09224 0.0
H158 H 0.64649 0.71702 0.07409 0.0
H159 H 0.71035 0.77409 0.07393 0.0
H160 H 0.84874 0.72832 0.02206 0.0
C161 C 0.9457 0.87266 0.03078 0.0
C162 C 0.84157 0.84103 0.07716 0.0
C163 C 0.96118 0.90429 0.0152 0.0
C164 C 0.68578 0.70784 0.06945 0.0
C165 C 0.72259 0.74065 0.06966 0.0
C166 C 0.84713 0.75924 0.03814 0.0
C167 C 0.89671 0.87409 0.04317 0.0
C168 C 0.87394 0.83565 0.05245 0.0
C169 C 0.774 0.73034 0.06341 0.0
C170 C 0.8121 0.76534 0.06158 0.0
H171 H 0.85412 0.96587 0.02327 0.0
H172 H 0.82761 0.91188 0.05106 0.0
H173 H 0.90167 0.7888 0.01415 0.0
H174 H 0.76269 0.6199 0.05213 0.0
H175 H 0.82702 0.67723 0.05263 0.0
C176 C 0.92832 0.15792 0.01025 0.0
C177 C 0.93475 0.13015 0.98187 0.0
C178 C 0.90067 0.19633 0.01237 0.0
C179 C 0.80214 0.2475 0.0068 0.0
H180 H 0.81021 0.32078 0.94841 0.0
C181 C 0.62725 0.33189 0.96655 0.0
C182 C 0.6335 0.37418 0.96164 0.0
C183 C 0.66952 0.30921 0.97428 0.0
C184 C 0.8078 0.30112 0.96521 0.0
H185 H 0.92117 0.12198 0.93348 0.0
H186 H 0.87438 0.18905 0.93706 0.0
H187 H 0.87918 0.27058 0.95273 0.0
H188 H 0.68905 0.42612 0.96151 0.0
H189 H 0.76307 0.38615 0.97464 0.0
H190 H 0.72972 0.27674 0.01839 0.0
C191 C 0.89 0.18138 0.9577 0.0
C192 C 0.84718 0.27224 0.96757 0.0
C193 C 0.91656 0.14283 0.95564 0.0
C194 C 0.68294 0.39354 0.96507 0.0
C195 C 0.72536 0.37064 0.97252 0.0
C196 C 0.76251 0.27611 0.00424 0.0
C197 C 0.88024 0.20786 0.98609 0.0
C198 C 0.84409 0.24427 0.9878 0.0
C199 C 0.71913 0.32813 0.97705 0.0
C200 C 0.76425 0.30236 0.98283 0.0
H201 H 0.9418 0.14866 0.03079 0.0
H202 H 0.89384 0.21628 0.03454 0.0
H203 H 0.79844 0.22612 0.02242 0.0
H204 H 0.5897 0.31607 0.96417 0.0
H205 H 0.66352 0.27629 0.97721 0.0
C206 C 0.65741 0.62769 0.47719 0.0
C207 C 0.61548 0.62729 0.49571 0.0
C208 C 0.67223 0.66591 0.46858 0.0
C209 C 0.70282 0.75243 0.45487 0.0
H210 H 0.7024 0.84219 0.52865 0.0
C211 C 0.86842 0.8772 0.49454 0.0
C212 C 0.85785 0.91842 0.51234 0.0
C213 C 0.82872 0.84662 0.48412 0.0
C214 C 0.70215 0.81809 0.50752 0.0
H215 H 0.55309 0.66481 0.51741 0.0
H216 H 0.57727 0.73134 0.50126 0.0
H217 H 0.64646 0.7788 0.52318 0.0
H218 H 0.79673 0.96092 0.53109 0.0
H219 H 0.72762 0.90774 0.51274 0.0
H220 H 0.76117 0.79106 0.44018 0.0
C221 C 0.5995 0.70244 0.49378 0.0
C222 C 0.66968 0.78155 0.50428 0.0
C223 C 0.5849 0.66412 0.50252 0.0
C224 C 0.80636 0.92932 0.51774 0.0
C225 C 0.76669 0.89876 0.50731 0.0
C226 C 0.73558 0.78901 0.45819 0.0
C227 C 0.64545 0.70461 0.47854 0.0
C228 C 0.67082 0.74743 0.47839 0.0
C229 C 0.7775 0.85654 0.49122 0.0
C230 C 0.73683 0.82159 0.48501 0.0
H231 H 0.68211 0.59984 0.47219 0.0
H232 H 0.70784 0.66604 0.45697 0.0
H233 H 0.70416 0.7272 0.43439 0.0
H234 H 0.90759 0.86774 0.48984 0.0
H235 H 0.83859 0.81435 0.47201 0.0
C236 C 0.62508 0.38646 0.48978 0.0
C237 C 0.64784 0.42288 0.50983 0.0
C238 C 0.64827 0.34582 0.48534 0.0
C239 C 0.74402 0.28404 0.52036 0.0
H240 H 0.75688 0.21667 0.43848 0.0
C241 C 0.8959 0.15252 0.48741 0.0
C242 C 0.8832 0.11583 0.46432 0.0
C243 C 0.86098 0.18603 0.49522 0.0
C244 C 0.75286 0.23464 0.46155 0.0
H245 H 0.71303 0.44488 0.54088 0.0
H246 H 0.75339 0.37463 0.53283 0.0
H247 H 0.70705 0.28282 0.44721 0.0
H248 H 0.82271 0.08436 0.43259 0.0
H249 H 0.76174 0.14263 0.44644 0.0
H250 H 0.79085 0.23639 0.53464 0.0
C251 C 0.71725 0.37719 0.5209 0.0
C252 C 0.72429 0.27259 0.46654 0.0
C253 C 0.69425 0.41766 0.52527 0.0
C254 C 0.8339 0.11235 0.45032 0.0
C255 C 0.79902 0.14586 0.45811 0.0
C256 C 0.77259 0.24611 0.51539 0.0
C257 C 0.69457 0.34076 0.50095 0.0
C258 C 0.7204 0.29818 0.49594 0.0
C259 C 0.81261 0.18355 0.48012 0.0
C260 C 0.77811 0.22139 0.48587 0.0
H261 H 0.58943 0.38931 0.47746 0.0
H262 H 0.62973 0.3183 0.46991 0.0
H263 H 0.74094 0.30262 0.54336 0.0
H264 H 0.93354 0.15621 0.49866 0.0
H265 H 0.87284 0.21478 0.51212 0.0
C266 C 0.40425 0.4244 0.5355 0.0
C267 C 0.44327 0.41787 0.51456 0.0
C268 C 0.38963 0.39119 0.54967 0.0
C269 C 0.38205 0.27295 0.52761 0.0
H270 H 0.30783 0.28519 0.60166 0.0
C271 C 0.24923 0.13517 0.54892 0.0
C272 C 0.20061 0.14843 0.55943 0.0
C273 C 0.2886 0.16589 0.54902 0.0
C274 C 0.32844 0.28125 0.58089 0.0
H275 H 0.50053 0.37339 0.49362 0.0
H276 H 0.47616 0.3154 0.519 0.0
H277 H 0.36537 0.34405 0.59493 0.0
H278 H 0.15556 0.20436 0.57881 0.0
H279 H 0.2239 0.25789 0.57859 0.0
H280 H 0.34375 0.21104 0.51302 0.0
C281 C 0.4564 0.34599 0.52437 0.0
C282 C 0.36155 0.3149 0.57708 0.0
C283 C 0.47101 0.37938 0.5102 0.0
C284 C 0.19251 0.19303 0.57049 0.0
C285 C 0.23189 0.22371 0.57066 0.0
C286 C 0.34914 0.23933 0.53145 0.0
C287 C 0.41342 0.35057 0.54277 0.0
C288 C 0.3875 0.31175 0.54997 0.0
C289 C 0.28031 0.21057 0.55972 0.0
C290 C 0.32069 0.24364 0.55771 0.0
H291 H 0.38175 0.45362 0.53869 0.0
H292 H 0.35627 0.39599 0.56354 0.0
H293 H 0.40055 0.26953 0.50618 0.0
H294 H 0.25687 0.10104 0.54044 0.0
H295 H 0.32556 0.15465 0.54066 0.0
C296 C 0.42632 0.65213 0.49244 0.0
C297 C 0.40263 0.61238 0.49408 0.0
C298 C 0.39633 0.68838 0.49095 0.0
C299 C 0.26725 0.70918 0.46386 0.0
H300 H 0.29161 0.82961 0.50511 0.0
C301 C 0.11573 0.83709 0.45879 0.0
C302 C 0.13205 0.87819 0.45499 0.0
C303 C 0.15125 0.80735 0.46527 0.0
C304 C 0.28468 0.79617 0.49318 0.0
H305 H 0.32996 0.58023 0.4981 0.0
H306 H 0.27815 0.64315 0.49614 0.0
H307 H 0.35042 0.77357 0.51477 0.0
H308 H 0.19858 0.92063 0.4556 0.0
H309 H 0.26087 0.86822 0.46646 0.0
H310 H 0.20222 0.73112 0.44202 0.0
C311 C 0.31946 0.64631 0.49517 0.0
C312 C 0.31829 0.76415 0.49876 0.0
C313 C 0.34915 0.61035 0.49647 0.0
C314 C 0.18476 0.88916 0.45834 0.0
C315 C 0.22044 0.85924 0.46474 0.0
C316 C 0.23401 0.74096 0.45822 0.0
C317 C 0.34241 0.68516 0.49113 0.0
C318 C 0.30927 0.7202 0.48454 0.0
C319 C 0.20411 0.81777 0.46794 0.0
C320 C 0.24167 0.78475 0.47316 0.0
H321 H 0.46742 0.65435 0.49024 0.0
H322 H 0.41504 0.71797 0.48788 0.0
H323 H 0.26003 0.67576 0.4519 0.0
H324 H 0.0754 0.82772 0.45669 0.0
H325 H 0.13717 0.77606 0.46822 0.0
C326 C 0.97971 0.00505 0.09839 0.0
C327 C 0.00863 0.04234 0.09656 0.0
C328 C 0.96584 -0.00178 0.12667 0.0
C329 C 0.95927 0.05158 0.20813 0.0
H330 H 0.01211 0.9432 0.22277 0.0
C331 C 0.02939 0.03715 0.32605 0.0
C332 C 0.01731 -0.00071 0.3363 0.0
C333 C 0.01917 0.03918 0.29599 0.0
C334 C 0.99628 0.97326 0.219 0.0
H335 H 0.04196 0.10326 0.12213 0.0
H336 H 0.01672 0.09208 0.17115 0.0
H337 H 0.00377 0.95383 0.17096 0.0
H338 H 0.98642 0.93328 0.32257 0.0
H339 H 0.96875 0.93684 0.26969 0.0
H340 H 0.95338 0.07168 0.25613 0.0
C341 C 0.00497 0.06789 0.15104 0.0
C342 C 0.9913 0.9793 0.18931 0.0
C343 C 0.01955 0.07431 0.12298 0.0
C344 C 0.99631 0.9629 0.3154 0.0
C345 C 0.9861 0.96495 0.28514 0.0
C346 C 0.96412 0.04554 0.23772 0.0
C347 C 0.97983 0.02902 0.15335 0.0
C348 C 0.97443 0.01912 0.18369 0.0
C349 C 0.99653 0.00346 0.27528 0.0
C350 C 0.98444 0.00695 0.24359 0.0
H351 H 0.97131 0.97969 0.07834 0.0
H352 H 0.94618 0.96809 0.12779 0.0
H353 H 0.94548 0.08236 0.20444 0.0
H354 H 0.04594 0.06571 0.34141 0.0
H355 H 0.02897 0.06894 0.28896 0.0
C356 C 0.08934 0.02683 0.89174 0.0
C357 C 0.06611 0.99023 0.89918 0.0
C358 C 0.10314 0.02539 0.86186 0.0
C359 C 0.05615 0.96833 0.78663 0.0
H360 H 0.16777 0.02747 0.75648 0.0
C361 C 0.06717 0.96141 0.6599 0.0
C362 C 0.07935 0.00042 0.65121 0.0
C363 C 0.07456 0.95799 0.68995 0.0
C364 C 0.13621 0.01103 0.76463 0.0
H365 H 0.04443 0.92234 0.88265 0.0
H366 H 0.07022 0.91926 0.83104 0.0
H367 H 0.16798 0.02488 0.81024 0.0
H368 H 0.11053 0.06603 0.66714 0.0
H369 H 0.12206 0.06044 0.71987 0.0
H370 H 0.02326 0.95558 0.74177 0.0
C371 C 0.07624 0.94946 0.84775 0.0
C372 C 0.13646 0.00946 0.79536 0.0
C373 C 0.06188 0.95108 0.87732 0.0
C374 C 0.10069 0.03551 0.67311 0.0
C375 C 0.10762 0.03222 0.70332 0.0
C376 C 0.05577 0.97005 0.75617 0.0
C377 C 0.0942 0.98721 0.83927 0.0
C378 C 0.09644 0.9879 0.80663 0.0
C379 C 0.09371 -0.00634 0.71219 0.0
C380 C 0.09577 -0.0087 0.74469 0.0
H381 H 0.09264 0.05747 0.90825 0.0
H382 H 0.11696 0.055 0.85602 0.0
H383 H 0.02389 0.95259 0.7947 0.0
H384 H 0.05137 0.93354 0.64353 0.0
H385 H 0.06455 0.92745 0.69583 0.0
C386 C 0.51343 0.565 0.62805 0.0
C387 C 0.50648 0.53301 0.60121 0.0
C388 C 0.50041 0.55617 0.65576 0.0
C389 C 0.49705 0.46557 0.69312 0.0
H390 H 0.44181 0.55092 0.75871 0.0
C391 C 0.48992 0.44217 0.81733 0.0
C392 C 0.50251 0.47944 0.84003 0.0
C393 C 0.48375 0.44519 0.78697 0.0
C394 C 0.45759 0.5268 0.74068 0.0
H395 H 0.47882 0.46725 0.58203 0.0
H396 H 0.45608 0.45157 0.63075 0.0
H397 H 0.43752 0.56324 0.70739 0.0
H398 H 0.5208 0.54862 0.84839 0.0
H399 H 0.51118 0.5536 0.7958 0.0
H400 H 0.519 0.42996 0.72665 0.0
C401 C 0.47133 0.48358 0.63023 0.0
C402 C 0.45481 0.53376 0.71127 0.0
C403 C 0.48367 0.49271 0.60235 0.0
C404 C 0.51058 0.51932 0.83158 0.0
C405 C 0.50457 0.52228 0.80139 0.0
C406 C 0.50006 0.45867 0.72265 0.0
C407 C 0.48087 0.51489 0.65729 0.0
C408 C 0.47572 0.50383 0.68731 0.0
C409 C 0.49006 0.48551 0.77877 0.0
C410 C 0.4817 0.48987 0.7469 0.0
H411 H 0.53121 0.59623 0.62778 0.0
H412 H 0.50868 0.58084 0.6762 0.0
H413 H 0.51397 0.44211 0.67515 0.0
H414 H 0.48328 0.41099 0.82311 0.0
H415 H 0.47258 0.41624 0.77008 0.0
C416 C 0.54688 0.46032 0.37904 0.0
C417 C 0.55222 0.49719 0.40287 0.0
C418 C 0.55942 0.46262 0.3498 0.0
C419 C 0.62034 0.52612 0.30075 0.0
H420 H 0.50338 0.48131 0.24717 0.0
C421 C 0.59355 0.55192 0.17739 0.0
C422 C 0.5705 0.51733 0.15577 0.0
C423 C 0.59764 0.54989 0.20799 0.0
C424 C 0.53679 0.49337 0.26159 0.0
H425 H 0.57901 0.56438 0.41552 0.0
H426 H 0.60065 0.56865 0.36375 0.0
H427 H 0.50306 0.47632 0.29979 0.0
H428 H 0.53616 0.45259 0.14911 0.0
H429 H 0.54437 0.44861 0.20199 0.0
H430 H 0.65407 0.543 0.26211 0.0
C431 C 0.58696 0.53792 0.3679 0.0
C432 C 0.53654 0.49059 0.29184 0.0
C433 C 0.57472 0.53548 0.39747 0.0
C434 C 0.55339 0.4801 0.16521 0.0
C435 C 0.55791 0.47791 0.19561 0.0
C436 C 0.62078 0.52865 0.27019 0.0
C437 C 0.57703 0.50201 0.34362 0.0
C438 C 0.57847 0.50638 0.31169 0.0
C439 C 0.57904 0.51311 0.21751 0.0
C440 C 0.57915 0.51181 0.25019 0.0
H441 H 0.5302 0.43025 0.38272 0.0
H442 H 0.55257 0.43415 0.33164 0.0
H443 H 0.65306 0.5387 0.31563 0.0
H444 H 0.60717 0.58107 0.17084 0.0
H445 H 0.61383 0.57767 0.22426 0.0
loop_
_geom_bond_atom_site_label_1
_geom_bond_atom_site_label_2
_geom_bond_distance
_geom_bond_site_symmetry_2
_ccdc_geom_bond_type
O0 Mn1 2.163 1_654 S
O0 C14 1.244 1_554 S
Mn1 O0 2.163 1_456 S
Mn1 O4 2.160 1_545 S
Mn1 O5 2.221 1_556 S
Mn1 O7 2.163 1_556 S
Mn1 O9 2.160 . S
Mn1 O19 2.221 1_445 S
O2 Mn3 2.087 1_545 S
O2 C14 1.256 . S
Mn3 O2 2.087 1_565 S
Mn3 O10 2.089 1_565 S
Mn3 O19 2.290 . S
Mn3 O20 2.251 . S
O4 Mn1 2.160 1_565 S
O4 C15 1.239 1_556 S
O5 Mn1 2.221 1_554 S
O5 Mn6 2.290 . S
O5 C16 1.278 . S
Mn6 O5 2.290 . S
Mn6 O8 2.089 1_545 S
Mn6 O11 2.251 . S
Mn6 O12 2.087 . S
O7 Mn1 2.163 1_554 S
O7 C17 1.244 . S
O8 Mn6 2.089 1_565 S
O8 C15 1.256 . S
O9 Mn1 2.160 . S
O9 C18 1.239 . S
O10 Mn3 2.089 1_545 S
O10 C18 1.256 1_655 S
O11 Mn6 2.251 . S
O11 C16 1.241 . S
O12 Mn6 2.087 . S
O12 C17 1.256 . S
C13 O19 1.278 . S
C13 O20 1.241 . S
C14 O0 1.244 1_556 S
C14 O2 1.256 . S
C15 O4 1.239 1_554 S
C15 O8 1.256 . S
C16 O5 1.278 . S
C16 O11 1.241 . S
C17 O7 1.244 . S
C17 O12 1.256 . S
C18 O9 1.239 . S
C18 O10 1.256 1_455 S
O19 Mn1 2.221 1_665 S
O19 Mn3 2.290 . S
O19 C13 1.278 . S
O20 Mn3 2.251 . S
O20 C13 1.241 . S
O21 Mn22 2.163 . S
O21 C35 1.244 . S
Mn22 O21 2.163 . S
Mn22 O25 2.160 . S
Mn22 O26 2.221 . S
Mn22 O28 2.163 . S
Mn22 O30 2.160 . S
Mn22 O40 2.221 . S
O23 Mn24 2.087 . S
O23 C35 1.256 . S
Mn24 O23 2.087 . S
Mn24 O31 2.089 . S
Mn24 O40 2.290 . S
Mn24 O41 2.251 . S
O25 Mn22 2.160 . S
O25 C36 1.239 . S
O26 Mn22 2.221 . S
O26 Mn27 2.290 . S
O26 C37 1.278 . S
Mn27 O26 2.290 . S
Mn27 O29 2.089 . S
Mn27 O32 2.251 . S
Mn27 O33 2.087 . S
O28 Mn22 2.163 . S
O28 C38 1.244 . S
O29 Mn27 2.089 . S
O29 C36 1.256 . S
O30 Mn22 2.160 . S
O30 C39 1.239 . S
O31 Mn24 2.089 . S
O31 C39 1.256 . S
O32 Mn27 2.251 . S
O32 C37 1.241 . S
O33 Mn27 2.087 . S
O33 C38 1.256 . S
C34 O40 1.278 . S
C34 O41 1.241 . S
C35 O21 1.244 . S
C35 O23 1.256 . S
C36 O25 1.239 . S
C36 O29 1.256 . S
C37 O26 1.278 . S
C37 O32 1.241 . S
C38 O28 1.244 . S
C38 O33 1.256 . S
C39 O30 1.239 . S
C39 O31 1.256 . S
O40 Mn22 2.221 . S
O40 Mn24 2.290 . S
O40 C34 1.278 . S
O41 Mn24 2.251 . S
O41 C34 1.241 . S
O42 Cd43 2.300 . S
O42 C49 1.275 1_565 S
Cd43 O42 2.300 . S
Cd43 O51 2.381 . S
Cd43 O52 2.378 . S
O44 Cd45 2.385 . S
O44 C49 1.255 . S
Cd45 O44 2.385 . S
Cd45 O46 2.317 . S
O46 Cd45 2.317 . S
O46 C47 1.232 1_455 S
C47 O46 1.232 1_655 S
C47 O48 1.218 . S
O48 C47 1.218 . S
C49 O42 1.275 1_545 S
C49 O44 1.255 . S
C50 O51 1.258 . S
C50 O52 1.256 . S
O51 Cd43 2.381 . S
O51 C50 1.258 . S
O52 Cd43 2.378 . S
O52 C50 1.256 . S
O53 Cd54 2.300 . S
O53 C60 1.275 . S
Cd54 O53 2.300 . S
Cd54 O62 2.381 . S
Cd54 O63 2.378 . S
O55 Cd56 2.385 1_545 S
O55 C60 1.255 . S
Cd56 O55 2.385 1_565 S
Cd56 O57 2.317 1_455 S
O57 Cd56 2.317 1_655 S
O57 C58 1.232 . S
C58 O57 1.232 . S
C58 O59 1.218 . S
O59 C58 1.218 . S
C60 O53 1.275 . S
C60 O55 1.255 . S
C61 O62 1.258 . S
C61 O63 1.256 . S
O62 Cd54 2.381 . S
O62 C61 1.258 . S
O63 Cd54 2.378 . S
O63 C61 1.256 . S
O64 Cd65 2.300 . S
O64 C71 1.275 . S
Cd65 O64 2.300 . S
Cd65 O73 2.381 . S
Cd65 O74 2.378 . S
O66 Cd67 2.385 . S
O66 C71 1.255 . S
Cd67 O66 2.385 . S
Cd67 O68 2.317 . S
O68 Cd67 2.317 . S
O68 C69 1.232 . S
C69 O68 1.232 . S
C69 O70 1.218 . S
O70 C69 1.218 . S
C71 O64 1.275 . S
C71 O66 1.255 . S
C72 O73 1.258 . S
C72 O74 1.256 . S
O73 Cd65 2.381 . S
O73 C72 1.258 . S
O74 Cd65 2.378 . S
O74 C72 1.256 . S
O75 Cd76 2.300 . S
O75 C82 1.275 . S
Cd76 O75 2.300 . S
Cd76 O84 2.381 . S
Cd76 O85 2.378 . S
O77 Cd78 2.385 . S
O77 C82 1.255 . S
Cd78 O77 2.385 . S
Cd78 O79 2.317 . S
O79 Cd78 2.317 . S
O79 C80 1.232 . S
C80 O79 1.232 . S
C80 O81 1.218 . S
O81 C80 1.218 . S
C82 O75 1.275 . S
C82 O77 1.255 . S
C83 O84 1.258 . S
C83 O85 1.256 . S
O84 Cd76 2.381 . S
O84 C83 1.258 . S
O85 Cd76 2.378 . S
O85 C83 1.256 . S
C86 C87 1.349 . S
C86 C88 1.327 . S
C86 H111 0.950 . S
C87 C86 1.349 . S
C87 C103 1.349 1_554 S
C88 C86 1.327 . S
C88 C107 1.429 . S
C88 H112 0.950 . S
C89 C106 1.574 . S
C89 C108 1.368 . S
C89 H113 0.949 1_554 S
H90 C94 0.949 . S
C91 C92 1.349 . S
C91 C93 1.327 . S
C91 H114 0.950 . S
C92 C91 1.349 . S
C92 C104 1.349 . S
C93 C91 1.327 . S
C93 C109 1.429 . S
C93 H115 0.950 . S
C94 H90 0.949 . S
C94 C102 1.574 . S
C94 C110 1.368 . S
H95 C103 0.950 . S
H96 C101 0.950 . S
H97 C102 0.949 . S
H98 C104 0.950 . S
H99 C105 0.950 . S
H100 C106 0.949 1_556 S
C101 H96 0.950 . S
C101 C103 1.327 . S
C101 C107 1.429 1_556 S
C102 C94 1.574 . S
C102 H97 0.949 . S
C102 C108 1.368 . S
C103 C87 1.349 1_556 S
C103 H95 0.950 . S
C103 C101 1.327 . S
C104 C92 1.349 . S
C104 H98 0.950 . S
C104 C105 1.327 . S
C105 H99 0.950 . S
C105 C104 1.327 . S
C105 C109 1.429 . S
C106 C89 1.574 . S
C106 H100 0.949 1_554 S
C106 C110 1.368 . S
C107 C88 1.429 . S
C107 C101 1.429 1_554 S
C107 C108 1.523 . S
C108 C89 1.368 . S
C108 C102 1.368 . S
C108 C107 1.523 . S
C109 C93 1.429 . S
C109 C105 1.429 . S
C109 C110 1.523 . S
C110 C94 1.368 . S
C110 C106 1.368 . S
C110 C109 1.523 . S
H111 C86 0.950 . S
H112 C88 0.950 . S
H113 C89 0.949 1_556 S
H114 C91 0.950 . S
H115 C93 0.950 . S
C116 C117 1.349 . S
C116 C118 1.327 . S
C116 H141 0.950 . S
C117 C116 1.349 . S
C117 C133 1.349 1_556 S
C118 C116 1.327 . S
C118 C137 1.429 . S
C118 H142 0.950 . S
C119 C136 1.574 1_554 S
C119 C138 1.368 1_554 S
C119 H143 0.949 . S
H120 C124 0.949 . S
C121 C122 1.349 . S
C121 C123 1.327 . S
C121 H144 0.950 . S
C122 C121 1.349 . S
C122 C134 1.349 . S
C123 C121 1.327 . S
C123 C139 1.429 . S
C123 H145 0.950 1_556 S
C124 H120 0.949 . S
C124 C132 1.574 . S
C124 C140 1.368 . S
H125 C133 0.950 . S
H126 C131 0.950 . S
H127 C132 0.949 . S
H128 C134 0.950 . S
H129 C135 0.950 . S
H130 C136 0.935 1_554 S
C131 H126 0.950 . S
C131 C133 1.327 . S
C131 C137 1.429 1_554 S
C132 C124 1.574 . S
C132 H127 0.949 . S
C132 C138 1.368 . S
C133 C117 1.349 1_554 S
C133 H125 0.950 . S
C133 C131 1.327 . S
C134 C122 1.349 . S
C134 H128 0.950 . S
C134 C135 1.327 . S
C135 H129 0.950 . S
C135 C134 1.327 . S
C135 C139 1.429 . S
C136 C119 1.574 1_556 S
C136 H130 0.935 1_556 S
C136 C140 1.383 . S
C137 C118 1.429 . S
C137 C131 1.429 1_556 S
C137 C138 1.523 . S
C138 C119 1.368 1_556 S
C138 C132 1.368 . S
C138 C137 1.523 . S
C139 C123 1.429 . S
C139 C135 1.429 . S
C139 C140 1.523 . S
C140 C124 1.368 . S
C140 C136 1.383 . S
C140 C139 1.523 . S
H141 C116 0.950 . S
H142 C118 0.950 . S
H143 C119 0.949 . S
H144 C121 0.950 . S
H145 C123 0.950 1_554 S
C146 C147 1.349 . S
C146 C148 1.327 . S
C146 H171 0.950 . S
C147 C146 1.349 . S
C147 C163 1.349 1_554 S
C148 C146 1.327 . S
C148 C167 1.429 . S
C148 H172 0.950 . S
C149 C166 1.574 . S
C149 C168 1.368 1_556 S
C149 H173 0.949 . S
H150 C154 0.949 . S
C151 C152 1.349 . S
C151 C153 1.327 . S
C151 H174 0.950 1_554 S
C152 C151 1.349 . S
C152 C164 1.349 . S
C153 C151 1.327 . S
C153 C169 1.429 . S
C153 H175 0.950 1_554 S
C154 H150 0.949 . S
C154 C162 1.574 . S
C154 C170 1.368 . S
H155 C163 0.950 . S
H156 C161 0.950 . S
H157 C162 0.949 . S
H158 C164 0.950 . S
H159 C165 0.950 . S
H160 C166 0.949 . S
C161 H156 0.950 . S
C161 C163 1.327 . S
C161 C167 1.429 1_556 S
C162 C154 1.574 . S
C162 H157 0.949 . S
C162 C168 1.368 . S
C163 C147 1.349 1_556 S
C163 H155 0.950 . S
C163 C161 1.327 . S
C164 C152 1.349 . S
C164 H158 0.950 . S
C164 C165 1.327 . S
C165 H159 0.950 . S
C165 C164 1.327 . S
C165 C169 1.429 . S
C166 C149 1.574 . S
C166 H160 0.949 . S
C166 C170 1.368 1_556 S
C167 C148 1.429 . S
C167 C161 1.429 1_554 S
C167 C168 1.523 . S
C168 C149 1.368 1_554 S
C168 C162 1.368 . S
C168 C167 1.523 . S
C169 C153 1.429 . S
C169 C165 1.429 . S
C169 C170 1.523 . S
C170 C154 1.368 . S
C170 C166 1.368 1_554 S
C170 C169 1.523 . S
H171 C146 0.950 . S
H172 C148 0.950 . S
H173 C149 0.949 . S
H174 C151 0.950 1_556 S
H175 C153 0.950 1_556 S
C176 C177 1.349 1_554 S
C176 C178 1.327 . S
C176 H201 0.950 . S
C177 C176 1.349 1_556 S
C177 C193 1.349 . S
C178 C176 1.327 . S
C178 C197 1.429 1_554 S
C178 H202 0.950 . S
C179 C196 1.574 . S
C179 C198 1.368 . S
C179 H203 0.949 . S
H180 C184 0.949 . S
C181 C182 1.349 . S
C181 C183 1.327 . S
C181 H204 0.950 . S
C182 C181 1.349 . S
C182 C194 1.349 . S
C183 C181 1.327 . S
C183 C199 1.429 . S
C183 H205 0.950 . S
C184 H180 0.949 . S
C184 C192 1.574 . S
C184 C200 1.368 1_554 S
H185 C193 0.950 . S
H186 C191 0.950 . S
H187 C192 0.949 . S
H188 C194 0.955 . S
H189 C195 0.950 1_554 S
H190 C196 0.949 . S
C191 H186 0.950 . S
C191 C193 1.327 . S
C191 C197 1.429 . S
C192 C184 1.574 . S
C192 H187 0.949 . S
C192 C198 1.368 1_554 S
C193 C177 1.349 . S
C193 H185 0.950 . S
C193 C191 1.327 . S
C194 C182 1.349 . S
C194 H188 0.955 . S
C194 C195 1.327 . S
C195 H189 0.950 1_556 S
C195 C194 1.327 . S
C195 C199 1.429 . S
C196 C179 1.574 . S
C196 H190 0.949 . S
C196 C200 1.368 . S
C197 C178 1.429 1_556 S
C197 C191 1.429 . S
C197 C198 1.523 . S
C198 C179 1.368 . S
C198 C192 1.368 1_556 S
C198 C197 1.523 . S
C199 C183 1.429 . S
C199 C195 1.429 . S
C199 C200 1.523 . S
C200 C184 1.368 1_556 S
C200 C196 1.368 . S
C200 C199 1.523 . S
H201 C176 0.950 . S
H202 C178 0.950 . S
H203 C179 0.949 . S
H204 C181 0.950 . S
H205 C183 0.950 . S
C206 C207 1.349 . S
C206 C208 1.327 . S
C206 H231 0.950 . S
C207 C206 1.349 . S
C207 C223 1.349 . S
C208 C206 1.327 . S
C208 C227 1.429 . S
C208 H232 0.950 . S
C209 C226 1.574 . S
C209 C228 1.368 . S
C209 H233 0.949 . S
H210 C214 0.949 . S
C211 C212 1.349 . S
C211 C213 1.327 . S
C211 H234 0.950 . S
C212 C211 1.349 . S
C212 C224 1.349 . S
C213 C211 1.327 . S
C213 C229 1.429 . S
C213 H235 0.950 . S
C214 H210 0.949 . S
C214 C222 1.574 . S
C214 C230 1.368 . S
H215 C223 0.950 . S
H216 C221 0.950 . S
H217 C222 0.949 . S
H218 C224 0.950 . S
H219 C225 0.950 . S
H220 C226 0.949 . S
C221 H216 0.950 . S
C221 C223 1.327 . S
C221 C227 1.429 . S
C222 C214 1.574 . S
C222 H217 0.949 . S
C222 C228 1.368 . S
C223 C207 1.349 . S
C223 H215 0.950 . S
C223 C221 1.327 . S
C224 C212 1.349 . S
C224 H218 0.950 . S
C224 C225 1.327 . S
C225 H219 0.950 . S
C225 C224 1.327 . S
C225 C229 1.429 . S
C226 C209 1.574 . S
C226 H220 0.949 . S
C226 C230 1.368 . S
C227 C208 1.429 . S
C227 C221 1.429 . S
C227 C228 1.523 . S
C228 C209 1.368 . S
C228 C222 1.368 . S
C228 C227 1.523 . S
C229 C213 1.429 . S
C229 C225 1.429 . S
C229 C230 1.523 . S
C230 C214 1.368 . S
C230 C226 1.368 . S
C230 C229 1.523 . S
H231 C206 0.950 . S
H232 C208 0.950 . S
H233 C209 0.949 . S
H234 C211 0.950 . S
H235 C213 0.950 . S
C236 C237 1.349 . S
C236 C238 1.327 . S
C236 H261 0.950 . S
C237 C236 1.349 . S
C237 C253 1.349 . S
C238 C236 1.327 . S
C238 C257 1.429 . S
C238 H262 0.950 . S
C239 C256 1.574 . S
C239 C258 1.368 . S
C239 H263 0.949 . S
H240 C244 0.949 . S
C241 C242 1.349 . S
C241 C243 1.327 . S
C241 H264 0.950 . S
C242 C241 1.349 . S
C242 C254 1.349 . S
C243 C241 1.327 . S
C243 C259 1.429 . S
C243 H265 0.950 . S
C244 H240 0.949 . S
C244 C252 1.574 . S
C244 C260 1.368 . S
H245 C253 0.950 . S
H246 C251 0.950 . S
H247 C252 0.949 . S
H248 C254 0.950 . S
H249 C255 0.950 . S
H250 C256 0.949 . S
C251 H246 0.950 . S
C251 C253 1.327 . S
C251 C257 1.429 . S
C252 C244 1.574 . S
C252 H247 0.949 . S
C252 C258 1.368 . S
C253 C237 1.349 . S
C253 H245 0.950 . S
C253 C251 1.327 . S
C254 C242 1.349 . S
C254 H248 0.950 . S
C254 C255 1.327 . S
C255 H249 0.950 . S
C255 C254 1.327 . S
C255 C259 1.429 . S
C256 C239 1.574 . S
C256 H250 0.949 . S
C256 C260 1.368 . S
C257 C238 1.429 . S
C257 C251 1.429 . S
C257 C258 1.523 . S
C258 C239 1.368 . S
C258 C252 1.368 . S
C258 C257 1.523 . S
C259 C243 1.429 . S
C259 C255 1.429 . S
C259 C260 1.523 . S
C260 C244 1.368 . S
C260 C256 1.368 . S
C260 C259 1.523 . S
H261 C236 0.950 . S
H262 C238 0.950 . S
H263 C239 0.949 . S
H264 C241 0.950 . S
H265 C243 0.950 . S
C266 C267 1.349 . S
C266 C268 1.327 . S
C266 H291 0.950 . S
C267 C266 1.349 . S
C267 C283 1.349 . S
C268 C266 1.327 . S
C268 C287 1.429 . S
C268 H292 0.950 . S
C269 C286 1.574 . S
C269 C288 1.368 . S
C269 H293 0.949 . S
H270 C274 0.949 . S
C271 C272 1.349 . S
C271 C273 1.327 . S
C271 H294 0.950 . S
C272 C271 1.349 . S
C272 C284 1.349 . S
C273 C271 1.327 . S
C273 C289 1.429 . S
C273 H295 0.950 . S
C274 H270 0.949 . S
C274 C282 1.574 . S
C274 C290 1.368 . S
H275 C283 0.950 . S
H276 C281 0.950 . S
H277 C282 0.949 . S
H278 C284 0.950 . S
H279 C285 0.950 . S
H280 C286 0.949 . S
C281 H276 0.950 . S
C281 C283 1.327 . S
C281 C287 1.429 . S
C282 C274 1.574 . S
C282 H277 0.949 . S
C282 C288 1.368 . S
C283 C267 1.349 . S
C283 H275 0.950 . S
C283 C281 1.327 . S
C284 C272 1.349 . S
C284 H278 0.950 . S
C284 C285 1.327 . S
C285 H279 0.950 . S
C285 C284 1.327 . S
C285 C289 1.429 . S
C286 C269 1.574 . S
C286 H280 0.949 . S
C286 C290 1.368 . S
C287 C268 1.429 . S
C287 C281 1.429 . S
C287 C288 1.523 . S
C288 C269 1.368 . S
C288 C282 1.368 . S
C288 C287 1.523 . S
C289 C273 1.429 . S
C289 C285 1.429 . S
C289 C290 1.523 . S
C290 C274 1.368 . S
C290 C286 1.368 . S
C290 C289 1.523 . S
H291 C266 0.950 . S
H292 C268 0.950 . S
H293 C269 0.949 . S
H294 C271 0.950 . S
H295 C273 0.950 . S
C296 C297 1.349 . S
C296 C298 1.327 . S
C296 H321 0.950 . S
C297 C296 1.349 . S
C297 C313 1.349 . S
C298 C296 1.327 . S
C298 C317 1.429 . S
C298 H322 0.950 . S
C299 C316 1.574 . S
C299 C318 1.368 . S
C299 H323 0.949 . S
H300 C304 0.949 . S
C301 C302 1.349 . S
C301 C303 1.327 . S
C301 H324 0.950 . S
C302 C301 1.349 . S
C302 C314 1.349 . S
C303 C301 1.327 . S
C303 C319 1.429 . S
C303 H325 0.950 . S
C304 H300 0.949 . S
C304 C312 1.574 . S
C304 C320 1.368 . S
H305 C313 0.950 . S
H306 C311 0.950 . S
H307 C312 0.949 . S
H308 C314 0.950 . S
H309 C315 0.950 . S
H310 C316 0.949 . S
C311 H306 0.950 . S
C311 C313 1.327 . S
C311 C317 1.429 . S
C312 C304 1.574 . S
C312 H307 0.949 . S
C312 C318 1.368 . S
C313 C297 1.349 . S
C313 H305 0.950 . S
C313 C311 1.327 . S
C314 C302 1.349 . S
C314 H308 0.950 . S
C314 C315 1.327 . S
C315 H309 0.950 . S
C315 C314 1.327 . S
C315 C319 1.429 . S
C316 C299 1.574 . S
C316 H310 0.949 . S
C316 C320 1.368 . S
C317 C298 1.429 . S
C317 C311 1.429 . S
C317 C318 1.523 . S
C318 C299 1.368 . S
C318 C312 1.368 . S
C318 C317 1.523 . S
C319 C303 1.429 . S
C319 C315 1.429 . S
C319 C320 1.523 . S
C320 C304 1.368 . S
C320 C316 1.368 . S
C320 C319 1.523 . S
H321 C296 0.950 . S
H322 C298 0.950 . S
H323 C299 0.949 . S
H324 C301 0.950 . S
H325 C303 0.950 . S
C326 C327 1.349 1_565 S
C326 C328 1.327 . S
C326 H351 0.950 . S
C327 C326 1.349 1_545 S
C327 C343 1.349 . S
C328 C326 1.327 . S
C328 C347 1.429 1_565 S
C328 H352 0.950 . S
C329 C346 1.574 . S
C329 C348 1.368 . S
C329 H353 0.949 1_455 S
H330 C334 0.949 . S
C331 C332 1.349 . S
C331 C333 1.327 . S
C331 H354 0.956 . S
C332 C331 1.349 . S
C332 C344 1.349 1_545 S
C333 C331 1.327 . S
C333 C349 1.429 . S
C333 H355 0.949 1_455 S
C334 H330 0.949 . S
C334 C342 1.574 . S
C334 C350 1.368 1_565 S
H335 C343 0.950 . S
H336 C341 0.951 . S
H337 C342 0.949 . S
H338 C344 0.950 . S
H339 C345 0.950 . S
H340 C346 0.947 1_655 S
C341 H336 0.951 . S
C341 C343 1.327 . S
C341 C347 1.429 . S
C342 C334 1.574 . S
C342 H337 0.949 . S
C342 C348 1.368 1_565 S
C343 C327 1.349 . S
C343 H335 0.950 . S
C343 C341 1.327 . S
C344 C332 1.349 1_565 S
C344 H338 0.950 . S
C344 C345 1.327 . S
C345 H339 0.950 . S
C345 C344 1.327 . S
C345 C349 1.429 1_565 S
C346 C329 1.574 . S
C346 H340 0.947 1_455 S
C346 C350 1.368 . S
C347 C328 1.429 1_545 S
C347 C341 1.429 . S
C347 C348 1.523 . S
C348 C329 1.368 . S
C348 C342 1.368 1_545 S
C348 C347 1.523 . S
C349 C333 1.429 . S
C349 C345 1.429 1_545 S
C349 C350 1.523 . S
C350 C334 1.368 1_545 S
C350 C346 1.368 . S
C350 C349 1.523 . S
H351 C326 0.950 . S
H352 C328 0.950 . S
H353 C329 0.949 1_655 S
H354 C331 0.956 . S
H355 C333 0.949 1_655 S
C356 C357 1.349 . S
C356 C358 1.327 . S
C356 H381 0.950 . S
C357 C356 1.349 . S
C357 C373 1.349 1_445 S
C358 C356 1.327 . S
C358 C377 1.429 . S
C358 H382 0.950 . S
C359 C376 1.566 1_565 S
C359 C378 1.352 1_665 S
C359 H383 0.971 . S
H360 C364 0.949 . S
C361 C362 1.360 . S
C361 C363 1.327 . S
C361 H384 0.950 1_545 S
C362 C361 1.360 . S
C362 C374 1.337 1_655 S
C363 C361 1.327 . S
C363 C379 1.429 1_655 S
C363 H385 0.950 1_545 S
C364 H360 0.949 . S
C364 C372 1.574 . S
C364 C380 1.368 . S
H365 C373 0.950 . S
H366 C371 0.950 . S
H367 C372 0.949 . S
H368 C374 0.950 . S
H369 C375 0.950 . S
H370 C376 0.949 1_565 S
C371 H366 0.950 . S
C371 C373 1.327 . S
C371 C377 1.429 1_665 S
C372 C364 1.574 . S
C372 H367 0.949 . S
C372 C378 1.368 . S
C373 C357 1.349 1_665 S
C373 H365 0.950 . S
C373 C371 1.327 . S
C374 C362 1.337 1_455 S
C374 H368 0.950 . S
C374 C375 1.327 . S
C375 H369 0.950 . S
C375 C374 1.327 . S
C375 C379 1.429 . S
C376 C359 1.566 1_545 S
C376 H370 0.949 1_545 S
C376 C380 1.368 1_655 S
C377 C358 1.429 . S
C377 C371 1.429 1_445 S
C377 C378 1.523 . S
C378 C359 1.352 1_445 S
C378 C372 1.368 . S
C378 C377 1.523 . S
C379 C363 1.429 1_455 S
C379 C375 1.429 . S
C379 C380 1.523 . S
C380 C364 1.368 . S
C380 C376 1.368 1_455 S
C380 C379 1.523 . S
H381 C356 0.950 . S
H382 C358 0.950 . S
H383 C359 0.971 . S
H384 C361 0.950 1_565 S
H385 C363 0.950 1_565 S
C386 C387 1.349 . S
C386 C388 1.327 . S
C386 H411 0.950 . S
C387 C386 1.349 . S
C387 C403 1.349 . S
C388 C386 1.327 . S
C388 C407 1.429 . S
C388 H412 0.950 . S
C389 C406 1.574 . S
C389 C408 1.368 . S
C389 H413 0.949 . S
H390 C394 0.949 . S
C391 C392 1.349 . S
C391 C393 1.327 . S
C391 H414 0.950 . S
C392 C391 1.349 . S
C392 C404 1.349 . S
C393 C391 1.327 . S
C393 C409 1.429 . S
C393 H415 0.950 . S
C394 H390 0.949 . S
C394 C402 1.574 . S
C394 C410 1.368 . S
H395 C403 0.950 . S
H396 C401 0.950 . S
H397 C402 0.949 . S
H398 C404 0.950 . S
H399 C405 0.950 . S
H400 C406 0.949 . S
C401 H396 0.950 . S
C401 C403 1.327 . S
C401 C407 1.429 . S
C402 C394 1.574 . S
C402 H397 0.949 . S
C402 C408 1.368 . S
C403 C387 1.349 . S
C403 H395 0.950 . S
C403 C401 1.327 . S
C404 C392 1.349 . S
C404 H398 0.950 . S
C404 C405 1.327 . S
C405 H399 0.950 . S
C405 C404 1.327 . S
C405 C409 1.429 . S
C406 C389 1.574 . S
C406 H400 0.949 . S
C406 C410 1.368 . S
C407 C388 1.429 . S
C407 C401 1.429 . S
C407 C408 1.523 . S
C408 C389 1.368 . S
C408 C402 1.368 . S
C408 C407 1.523 . S
C409 C393 1.429 . S
C409 C405 1.429 . S
C409 C410 1.523 . S
C410 C394 1.368 . S
C410 C406 1.368 . S
C410 C409 1.523 . S
H411 C386 0.950 . S
H412 C388 0.950 . S
H413 C389 0.949 . S
H414 C391 0.950 . S
H415 C393 0.950 . S
C416 C417 1.349 . S
C416 C418 1.327 . S
C416 H441 0.950 . S
C417 C416 1.349 . S
C417 C433 1.349 . S
C418 C416 1.327 . S
C418 C437 1.429 . S
C418 H442 0.950 . S
C419 C436 1.574 . S
C419 C438 1.368 . S
C419 H443 0.949 . S
H420 C424 0.949 . S
C421 C422 1.349 . S
C421 C423 1.327 . S
C421 H444 0.950 . S
C422 C421 1.349 . S
C422 C434 1.349 . S
C423 C421 1.327 . S
C423 C439 1.429 . S
C423 H445 0.950 . S
C424 H420 0.949 . S
C424 C432 1.574 . S
C424 C440 1.368 . S
H425 C433 0.950 . S
H426 C431 0.950 . S
H427 C432 0.949 . S
H428 C434 0.950 . S
H429 C435 0.950 . S
H430 C436 0.949 . S
C431 H426 0.950 . S
C431 C433 1.327 . S
C431 C437 1.429 . S
C432 C424 1.574 . S
C432 H427 0.949 . S
C432 C438 1.368 . S
C433 C417 1.349 . S
C433 H425 0.950 . S
C433 C431 1.327 . S
C434 C422 1.349 . S
C434 H428 0.950 . S
C434 C435 1.327 . S
C435 H429 0.950 . S
C435 C434 1.327 . S
C435 C439 1.429 . S
C436 C419 1.574 . S
C436 H430 0.949 . S
C436 C440 1.368 . S
C437 C418 1.429 . S
C437 C431 1.429 . S
C437 C438 1.523 . S
C438 C419 1.368 . S
C438 C432 1.368 . S
C438 C437 1.523 . S
C439 C423 1.429 . S
C439 C435 1.429 . S
C439 C440 1.523 . S
C440 C424 1.368 . S
C440 C436 1.368 . S
C440 C439 1.523 . S
H441 C416 0.950 . S
H442 C418 0.950 . S
H443 C419 0.949 . S
H444 C421 0.950 . S
H445 C423 0.950 . S
C92 C80 1.181 . S
C87 C16 1.239 . S
C117 C15 1.468 1_556 S
C122 C69 1.263 . S
C147 C13 1.271 1_554 S
C152 C83 1.412 . S
C177 C14 1.320 . S
C182 C72 1.348 . S
C207 C37 1.239 . S
C212 C58 1.181 . S
C237 C36 1.468 . S
C242 C47 1.263 . S
C272 C61 1.412 . S
C267 C34 1.271 . S
C302 C50 1.348 . S
C297 C35 1.320 . S
C327 C17 1.527 . S
C332 C49 1.525 . S
C357 C18 1.371 . S
C362 C60 1.361 1_655 S
C392 C71 1.525 . S
C387 C38 1.528 . S
C417 C39 1.371 . S
C422 C82 1.366 . S
