# Generated by pormake.
# Topology soc, (4,6)-cn, num edge types: 1
# Building blocks:
#     Node 0, Type 0, BuildingBlock: ESEHIV_clean_sbu_0, # of connection points: 4
#     Node 1, Type 0, BuildingBlock: ESEHIV_clean_sbu_0, # of connection points: 4
#     Node 2, Type 0, BuildingBlock: ESEHIV_clean_sbu_0, # of connection points: 4
#     Node 3, Type 0, BuildingBlock: ESEHIV_clean_sbu_0, # of connection points: 4
#     Node 4, Type 0, BuildingBlock: ESEHIV_clean_sbu_0, # of connection points: 4
#     Node 5, Type 0, BuildingBlock: ESEHIV_clean_sbu_0, # of connection points: 4
#     Node 6, Type 0, BuildingBlock: ESEHIV_clean_sbu_0, # of connection points: 4
#     Node 7, Type 0, BuildingBlock: ESEHIV_clean_sbu_0, # of connection points: 4
#     Node 8, Type 0, BuildingBlock: ESEHIV_clean_sbu_0, # of connection points: 4
#     Node 9, Type 0, BuildingBlock: ESEHIV_clean_sbu_0, # of connection points: 4
#     Node 10, Type 0, BuildingBlock: ESEHIV_clean_sbu_0, # of connection points: 4
#     Node 11, Type 0, BuildingBlock: ESEHIV_clean_sbu_0, # of connection points: 4
#     Node 12, Type 1, BuildingBlock: KUMBUR_clean_sbu_0, # of connection points: 6
#     Node 13, Type 1, BuildingBlock: KUMBUR_clean_sbu_0, # of connection points: 6
#     Node 14, Type 1, BuildingBlock: KUMBUR_clean_sbu_0, # of connection points: 6
#     Node 15, Type 1, BuildingBlock: KUMBUR_clean_sbu_0, # of connection points: 6
#     Node 16, Type 1, BuildingBlock: KUMBUR_clean_sbu_0, # of connection points: 6
#     Node 17, Type 1, BuildingBlock: KUMBUR_clean_sbu_0, # of connection points: 6
#     Node 18, Type 1, BuildingBlock: KUMBUR_clean_sbu_0, # of connection points: 6
#     Node 19, Type 1, BuildingBlock: KUMBUR_clean_sbu_0, # of connection points: 6
#     Edge 20, Type (0, 1), BuildingBlock: AJUNOK_clean_linker_0, # of connection points: 2
#     Edge 21, Type (0, 1), BuildingBlock: AJUNOK_clean_linker_0, # of connection points: 2
#     Edge 22, Type (0, 1), BuildingBlock: AJUNOK_clean_linker_0, # of connection points: 2
#     Edge 23, Type (0, 1), BuildingBlock: AJUNOK_clean_linker_0, # of connection points: 2
#     Edge 24, Type (0, 1), BuildingBlock: AJUNOK_clean_linker_0, # of connection points: 2
#     Edge 25, Type (0, 1), BuildingBlock: AJUNOK_clean_linker_0, # of connection points: 2
#     Edge 26, Type (0, 1), BuildingBlock: AJUNOK_clean_linker_0, # of connection points: 2
#     Edge 27, Type (0, 1), BuildingBlock: AJUNOK_clean_linker_0, # of connection points: 2
#     Edge 28, Type (0, 1), BuildingBlock: AJUNOK_clean_linker_0, # of connection points: 2
#     Edge 29, Type (0, 1), BuildingBlock: AJUNOK_clean_linker_0, # of connection points: 2
#     Edge 30, Type (0, 1), BuildingBlock: AJUNOK_clean_linker_0, # of connection points: 2
#     Edge 31, Type (0, 1), BuildingBlock: AJUNOK_clean_linker_0, # of connection points: 2
#     Edge 32, Type (0, 1), BuildingBlock: AJUNOK_clean_linker_0, # of connection points: 2
#     Edge 33, Type (0, 1), BuildingBlock: AJUNOK_clean_linker_0, # of connection points: 2
#     Edge 34, Type (0, 1), BuildingBlock: AJUNOK_clean_linker_0, # of connection points: 2
#     Edge 35, Type (0, 1), BuildingBlock: AJUNOK_clean_linker_0, # of connection points: 2
#     Edge 36, Type (0, 1), BuildingBlock: AJUNOK_clean_linker_0, # of connection points: 2
#     Edge 37, Type (0, 1), BuildingBlock: AJUNOK_clean_linker_0, # of connection points: 2
#     Edge 38, Type (0, 1), BuildingBlock: AJUNOK_clean_linker_0, # of connection points: 2
#     Edge 39, Type (0, 1), BuildingBlock: AJUNOK_clean_linker_0, # of connection points: 2
#     Edge 40, Type (0, 1), BuildingBlock: AJUNOK_clean_linker_0, # of connection points: 2
#     Edge 41, Type (0, 1), BuildingBlock: AJUNOK_clean_linker_0, # of connection points: 2
#     Edge 42, Type (0, 1), BuildingBlock: AJUNOK_clean_linker_0, # of connection points: 2
#     Edge 43, Type (0, 1), BuildingBlock: AJUNOK_clean_linker_0, # of connection points: 2
#     Edge 44, Type (0, 1), BuildingBlock: AJUNOK_clean_linker_0, # of connection points: 2
#     Edge 45, Type (0, 1), BuildingBlock: AJUNOK_clean_linker_0, # of connection points: 2
#     Edge 46, Type (0, 1), BuildingBlock: AJUNOK_clean_linker_0, # of connection points: 2
#     Edge 47, Type (0, 1), BuildingBlock: AJUNOK_clean_linker_0, # of connection points: 2
#     Edge 48, Type (0, 1), BuildingBlock: AJUNOK_clean_linker_0, # of connection points: 2
#     Edge 49, Type (0, 1), BuildingBlock: AJUNOK_clean_linker_0, # of connection points: 2
#     Edge 50, Type (0, 1), BuildingBlock: AJUNOK_clean_linker_0, # of connection points: 2
#     Edge 51, Type (0, 1), BuildingBlock: AJUNOK_clean_linker_0, # of connection points: 2
#     Edge 52, Type (0, 1), BuildingBlock: AJUNOK_clean_linker_0, # of connection points: 2
#     Edge 53, Type (0, 1), BuildingBlock: AJUNOK_clean_linker_0, # of connection points: 2
#     Edge 54, Type (0, 1), BuildingBlock: AJUNOK_clean_linker_0, # of connection points: 2
#     Edge 55, Type (0, 1), BuildingBlock: AJUNOK_clean_linker_0, # of connection points: 2
#     Edge 56, Type (0, 1), BuildingBlock: AJUNOK_clean_linker_0, # of connection points: 2
#     Edge 57, Type (0, 1), BuildingBlock: AJUNOK_clean_linker_0, # of connection points: 2
#     Edge 58, Type (0, 1), BuildingBlock: AJUNOK_clean_linker_0, # of connection points: 2
#     Edge 59, Type (0, 1), BuildingBlock: AJUNOK_clean_linker_0, # of connection points: 2
#     Edge 60, Type (0, 1), BuildingBlock: AJUNOK_clean_linker_0, # of connection points: 2
#     Edge 61, Type (0, 1), BuildingBlock: AJUNOK_clean_linker_0, # of connection points: 2
#     Edge 62, Type (0, 1), BuildingBlock: AJUNOK_clean_linker_0, # of connection points: 2
#     Edge 63, Type (0, 1), BuildingBlock: AJUNOK_clean_linker_0, # of connection points: 2
#     Edge 64, Type (0, 1), BuildingBlock: AJUNOK_clean_linker_0, # of connection points: 2
#     Edge 65, Type (0, 1), BuildingBlock: AJUNOK_clean_linker_0, # of connection points: 2
#     Edge 66, Type (0, 1), BuildingBlock: AJUNOK_clean_linker_0, # of connection points: 2
#     Edge 67, Type (0, 1), BuildingBlock: AJUNOK_clean_linker_0, # of connection points: 2
# Relax obj value: 0.096
# Max RMSD: 0.261
# Mean RMSD: 0.160
data_MOF--net-soc--node1-ESEHIV_clean_sbu_0--node2-KUMBUR_clean_sbu_0--edge1-AJUNOK_clean_linker_0
_symmetry_space_group_name_H-M    P1
_symmetry_Int_Tables_number       1
_symmetry_cell_setting            triclinic
loop_
_symmetry_equiv_pos_as_xyz
'x, y, z'
_cell_length_a     39.588142
_cell_length_b     38.258254
_cell_length_c     31.111339
_cell_angle_alpha  81.425394
_cell_angle_beta   80.152804
_cell_angle_gamma 68.766564
loop_
_atom_site_label
_atom_site_type_symbol
_atom_site_fract_x
_atom_site_fract_y
_atom_site_fract_z
_atom_type_partial_charge
Cu0 Cu 0.06297 0.06987 0.39237 0.0
N1 N 0.07558 0.10041 0.42367 0.0
N2 N 0.1042 0.13361 0.44682 0.0
C3 C 0.108 0.10442 0.42429 0.0
C4 C 0.06805 0.14872 0.46 0.0
C5 C 0.05062 0.12825 0.44577 0.0
O6 O 0.10683 0.03261 0.36391 0.0
C7 C 0.99492 0.10864 0.3559 0.0
O8 O 0.98562 0.07921 0.37177 0.0
H9 H 0.13358 0.08704 0.40764 0.0
H10 H 1.02144 0.1343 0.44942 0.0
N11 N 0.03871 0.04236 0.43161 0.0
N12 N 1.00949 1.00188 0.45626 0.0
C13 C 0.02941 0.01419 0.42194 0.0
C14 C 1.02498 0.04746 0.47378 0.0
C15 C 1.00672 0.02261 0.48901 0.0
C16 C 0.12679 1.00828 0.39049 0.0
O17 O 0.11745 1.01203 0.43262 0.0
H18 H 0.03513 1.0047 0.38952 0.0
H19 H 1.02721 0.0684 0.49184 0.0
O20 O 1.02786 0.10684 0.3556 0.0
H21 H 0.05477 0.17403 0.47668 0.0
H22 H 0.99189 0.02045 0.52127 0.0
Cu23 Cu 0.07718 0.0699 0.73834 0.0
N24 N 0.05697 0.05114 0.70054 0.0
N25 N 1.0213 0.02467 0.67938 0.0
C26 C 0.03127 0.035 0.71352 0.0
C27 C 0.04179 0.03425 0.64354 0.0
C28 C 0.06384 0.05046 0.65669 0.0
O29 O 0.03584 0.10999 0.76804 0.0
C30 C 0.13795 1.00549 0.74347 0.0
O31 O 0.13806 0.01728 0.70161 0.0
H32 H 1.01999 0.03104 0.74737 0.0
H33 H 0.08388 0.06033 0.63571 0.0
N34 N 0.10766 0.09596 0.70978 0.0
N35 N 0.15035 0.12178 0.70696 0.0
C36 C 0.13009 0.10306 0.73227 0.0
C37 C 0.11313 0.11164 0.66861 0.0
C38 C 0.13965 0.12764 0.66682 0.0
C39 C 1.01916 0.13643 0.74035 0.0
O40 O 0.0301 0.13199 0.69862 0.0
H41 H 0.13108 0.09483 0.76698 0.0
H42 H 0.09886 0.11183 0.64189 0.0
O43 O 0.11145 0.02501 0.76991 0.0
H44 H 0.04157 0.02894 0.61039 0.0
H45 H 0.15073 0.14177 0.63823 0.0
Cu46 Cu 0.31957 0.09237 0.13843 0.0
N47 N 0.27788 0.08572 0.12554 0.0
N48 N 0.24932 0.05354 0.10066 0.0
C49 C 0.2805 0.05263 0.11311 0.0
C50 C 0.22571 0.08891 0.10492 0.0
C51 C 0.24334 0.10873 0.12101 0.0
O52 O 0.34568 0.04009 0.16493 0.0
C53 C 0.31833 0.14714 0.06868 0.0
O54 O 0.28678 0.16066 0.09293 0.0
H55 H 0.30571 0.0287 0.11071 0.0
H56 H 0.23214 0.13807 0.12723 0.0
N57 N 0.30852 0.12753 0.18024 0.0
N58 N 0.31254 0.17023 0.21954 0.0
C59 C 0.32939 0.14678 0.18778 0.0
C60 C 0.27747 0.13966 0.20799 0.0
C61 C 0.27996 0.16581 0.23232 0.0
C62 C 0.32796 0.02854 0.19936 0.0
O63 O 0.29798 0.05339 0.21684 0.0
H64 H 0.35622 0.14383 0.17025 0.0
H65 H 0.25448 0.13028 0.21021 0.0
O66 O 0.34005 0.11459 0.08184 0.0
H67 H 0.19831 0.09983 0.09588 0.0
H68 H 0.25933 0.18071 0.25727 0.0
Cu69 Cu 0.09127 0.32523 0.13393 0.0
N70 N 0.11266 0.35042 0.08517 0.0
N71 N 0.15197 0.35675 0.02448 0.0
C72 C 0.14343 0.33312 0.0584 0.0
C73 C 0.12535 0.39046 0.03117 0.0
C74 C 0.10156 0.38654 0.06818 0.0
O75 O 0.12644 0.31255 0.17869 0.0
C76 C 0.06074 0.27186 0.11433 0.0
O77 O 0.04838 0.26804 0.156 0.0
H78 H 0.1592 0.30363 0.06446 0.0
H79 H 0.07777 0.40864 0.08146 0.0
N80 N 0.04138 0.35222 0.15706 0.0
N81 N 0.98337 0.36076 0.19063 0.0
C82 C 1.01979 0.34076 0.19114 0.0
C83 C 1.01751 0.38066 0.13478 0.0
C84 C 0.9824 0.38615 0.15527 0.0
C85 C 0.13442 0.33999 0.18837 0.0
O86 O 0.11684 0.37408 0.17146 0.0
H87 H 0.03052 0.3169 0.21451 0.0
H88 H 1.02462 0.39446 0.10351 0.0
O89 O 0.08601 0.28606 0.10336 0.0
H90 H 0.12247 0.41642 1.01041 0.0
H91 H 0.95776 0.40569 0.14297 0.0
Cu92 Cu 0.7935 0.04322 1.01406 0.0
N93 N 0.81656 0.06976 0.96965 0.0
N94 N 0.82245 0.12105 0.92702 0.0
C95 C 0.81214 0.10683 0.96762 0.0
C96 C 0.83328 0.09162 0.90244 0.0
C97 C 0.82976 0.06039 0.92858 0.0
O98 O 0.76818 0.08157 0.05665 0.0
C99 C 0.79208 0.98781 0.96528 0.0
O100 O 0.82648 0.97684 0.97154 0.0
H101 H 0.79955 0.12373 0.99477 0.0
H102 H 0.83356 0.03371 0.91728 0.0
N103 N 0.82383 1.00346 0.04918 0.0
N104 N 0.83792 0.96014 0.10659 0.0
C105 C 0.81094 0.98707 0.08669 0.0
C106 C 0.86036 0.98633 0.04514 0.0
C107 C 0.86907 0.95938 0.0803 0.0
C108 C 0.79172 0.08794 0.07535 0.0
O109 O 0.82641 0.06931 0.06367 0.0
H110 H 0.78216 0.9945 0.09875 0.0
H111 H 0.87924 0.993 1.01859 0.0
O112 O 0.7698 0.01795 0.982 0.0
H113 H 0.84053 0.09278 0.8673 0.0
H114 H 0.89626 0.94087 0.08631 0.0
Cu115 Cu 0.05657 0.8026 0.03064 0.0
N116 N 0.0306 0.79687 0.98686 0.0
N117 N 0.99114 0.79677 0.94196 0.0
C118 C 0.99588 0.81268 0.97596 0.0
C119 C 1.02373 0.76989 0.93193 0.0
C120 C 0.04754 0.77008 0.95916 0.0
O121 O 0.03634 0.78379 0.09195 0.0
C122 C 0.12271 0.79837 0.96914 0.0
O123 O 0.0974 0.82488 0.94869 0.0
H124 H 0.97464 0.83527 0.99228 0.0
H125 H 0.07553 0.75125 0.95928 0.0
N126 N 0.0508 0.8526 0.03784 0.0
N127 N 0.07312 0.89018 0.06428 0.0
C128 C 0.08052 0.86117 0.04038 0.0
C129 C 1.02312 0.87806 0.06073 0.0
C130 C 0.03694 0.90092 0.07758 0.0
C131 C 1.00175 0.79697 0.10621 0.0
O132 O 0.97962 0.81911 0.07869 0.0
H133 H 0.10812 0.84272 0.03154 0.0
H134 H 0.99579 0.87733 0.06936 0.0
O135 O 0.11167 0.78203 1.00576 0.0
H136 H 0.02978 0.75058 0.90723 0.0
H137 H 1.02234 0.92108 0.10124 0.0
Cu138 Cu 0.56442 0.56188 0.90149 0.0
N139 N 0.58338 0.58248 0.93818 0.0
N140 N 0.6121 0.61568 0.96075 0.0
C141 C 0.60832 0.5997 0.92678 0.0
C142 C 0.58863 0.60828 0.99459 0.0
C143 C 0.57089 0.58798 0.98055 0.0
O144 O 0.60591 0.52719 0.86504 0.0
C145 C 0.5045 0.60804 0.84817 0.0
O146 O 0.51167 0.57992 0.82449 0.0
H147 H 0.62165 0.60242 0.89369 0.0
H148 H 0.54906 0.57952 0.99937 0.0
N149 N 0.53982 0.53256 0.93637 0.0
N150 N 0.5014 0.50085 0.95576 0.0
C151 C 0.51158 0.52554 0.92571 0.0
C152 C 0.54748 0.512 0.97482 0.0
C153 C 0.5238 0.49233 0.98682 0.0
C154 C 0.62939 0.5007 0.88616 0.0
O155 O 0.6255 0.49952 0.92901 0.0
H156 H 0.49952 0.53734 0.89583 0.0
H157 H 0.56964 0.51019 0.99208 0.0
O158 O 0.52558 0.6055 0.87623 0.0
H159 H 0.58374 0.618 0.02679 0.0
H160 H 0.52458 0.47144 1.01456 0.0
Cu161 Cu 0.58254 0.57725 0.26672 0.0
N162 N 0.56636 0.54784 0.23773 0.0
N163 N 0.53333 0.51651 0.22038 0.0
C164 C 0.53402 0.54225 0.24537 0.0
C165 C 0.56668 0.50513 0.19675 0.0
C166 C 0.58684 0.52451 0.2074 0.0
O167 O 0.54043 0.61302 0.29936 0.0
C168 C 0.65267 0.52626 0.27562 0.0
O169 O 0.65671 0.53964 0.23446 0.0
H170 H 0.51156 0.55658 0.26893 0.0
H171 H 0.61486 0.5211 0.19454 0.0
N172 N 0.60279 0.60745 0.22593 0.0
N173 N 0.63679 0.64287 0.19896 0.0
C174 C 0.62154 0.62779 0.23546 0.0
C175 C 0.60589 0.61014 0.18188 0.0
C176 C 0.62737 0.63167 0.1651 0.0
C177 C 0.51715 0.63532 0.27489 0.0
O178 O 0.52262 0.63094 0.23289 0.0
H179 H 0.62623 0.62909 0.26838 0.0
H180 H 0.59502 0.59579 0.16335 0.0
O181 O 0.6219 0.54072 0.29883 0.0
H182 H 0.57638 0.48343 0.17439 0.0
H183 H 0.63688 0.63712 0.13087 0.0
Cu184 Cu 0.84933 0.59569 0.63811 0.0
N185 N 0.88213 0.60617 0.59119 0.0
N186 N 0.89966 0.62803 0.52344 0.0
C187 C 0.87155 0.63 0.55555 0.0
C188 C 0.92942 0.60288 0.54013 0.0
C189 C 0.91848 0.58918 0.58187 0.0
O190 O 0.82958 0.64105 0.67225 0.0
C191 C 0.82778 0.56076 0.57837 0.0
O192 O 0.86021 0.5587 0.55804 0.0
H193 H 0.8434 0.64744 0.55279 0.0
H194 H 0.93548 0.56725 0.60308 0.0
N195 N 0.87109 0.55284 0.67595 0.0
N196 N 0.87588 0.49595 0.71154 0.0
C197 C 0.87113 0.51784 0.67315 0.0
C198 C 0.87645 0.55269 0.71761 0.0
C199 C 0.87932 0.51779 0.73955 0.0
C200 C 0.85303 0.65188 0.68526 0.0
O201 O 0.88788 0.63267 0.67537 0.0
H202 H 0.86386 0.50981 0.64511 0.0
H203 H 0.87448 0.57726 0.73247 0.0
O204 O 0.81544 0.57892 0.61263 0.0
H205 H 0.9568 0.59387 0.52272 0.0
H206 H 0.88093 0.51001 0.77426 0.0
Cu207 Cu 0.59891 0.82235 0.61498 0.0
N208 N 0.64166 0.79673 0.57398 0.0
N209 N 0.68892 0.78822 0.51732 0.0
C210 C 0.65909 0.8133 0.53948 0.0
C211 C 0.69002 0.7546 0.53945 0.0
C212 C 0.66149 0.75982 0.57362 0.0
O213 O 0.61918 0.84622 0.65205 0.0
C214 C 0.55702 0.83649 0.55185 0.0
O215 O 0.57718 0.80064 0.55162 0.0
H216 H 0.6503 0.84348 0.53155 0.0
H217 H 0.65574 0.73797 0.59673 0.0
N218 N 0.56659 0.79754 0.65208 0.0
N219 N 0.51443 0.78954 0.69158 0.0
C220 C 0.52955 0.81344 0.66469 0.0
C221 C 0.57486 0.76219 0.67175 0.0
C222 C 0.54352 0.75736 0.69571 0.0
C223 C 0.6317 0.82867 0.68763 0.0
O224 O 0.62648 0.79677 0.70218 0.0
H225 H 0.51411 0.84243 0.65479 0.0
H226 H 0.60198 0.74118 0.66915 0.0
O227 O 0.56403 0.85594 0.57684 0.0
H228 H 0.70991 0.72761 0.53138 0.0
H229 H 0.54237 0.73151 0.71443 0.0
Cu230 Cu 0.2881 0.55259 0.52423 0.0
N231 N 0.31167 0.58392 0.48619 0.0
N232 N 0.31901 0.6365 0.44695 0.0
C233 C 0.29701 0.62201 0.47703 0.0
C234 C 0.34862 0.606 0.43667 0.0
C235 C 0.3441 0.57401 0.46068 0.0
O236 O 0.25026 0.58948 0.55972 0.0
C237 C 0.29237 0.49201 0.4791 0.0
O238 O 0.32525 0.47978 0.4911 0.0
H239 H 0.27007 0.63862 0.49125 0.0
H240 H 0.36301 0.54541 0.45913 0.0
N241 N 0.3157 0.51562 0.56594 0.0
N242 N 0.32708 0.47184 0.62418 0.0
C243 C 0.30301 0.49189 0.59561 0.0
C244 C 0.34922 0.50984 0.57598 0.0
C245 C 0.3561 0.48327 0.61192 0.0
C246 C 0.26368 0.60137 0.58665 0.0
O247 O 0.29897 0.58678 0.58861 0.0
H248 H 0.27608 0.4903 0.59715 0.0
H249 H 0.36692 0.5249 0.55934 0.0
O250 O 0.27058 0.52467 0.48906 0.0
H251 H 0.37216 0.60667 0.41348 0.0
H252 H 0.38054 0.47324 0.62799 0.0
Cu253 Cu 0.53591 0.30434 0.53429 0.0
N254 N 0.58167 0.27923 0.50113 0.0
N255 N 0.63851 0.27133 0.46549 0.0
C256 C 0.60669 0.29587 0.48353 0.0
C257 C 0.63323 0.23787 0.47194 0.0
C258 C 0.59834 0.24281 0.49351 0.0
O259 O 0.55178 0.33828 0.56246 0.0
C260 C 0.48616 0.29895 0.48145 0.0
O261 O 0.50228 0.26362 0.49582 0.0
H262 H 0.60219 0.32521 0.48579 0.0
H263 H 0.58645 0.22108 0.50378 0.0
N264 N 0.51831 0.27515 0.58258 0.0
N265 N 0.48747 0.26176 0.64746 0.0
C266 C 0.49116 0.28894 0.61543 0.0
C267 C 0.53178 0.23782 0.59422 0.0
C268 C 0.51297 0.22958 0.63389 0.0
C269 C 0.57364 0.32024 0.59094 0.0
O270 O 0.57969 0.28405 0.60026 0.0
H271 H 0.47531 0.3186 0.61664 0.0
H272 H 0.55443 0.21799 0.5759 0.0
O273 O 0.49676 0.32375 0.49347 0.0
H274 H 0.65339 0.21148 0.46223 0.0
H275 H 0.51787 0.20193 0.65151 0.0
Tb276 Tb 0.28968 0.30913 0.37854 0.0
C277 C 0.32556 0.37918 0.18954 0.0
C278 C 0.3818 0.33323 0.15939 0.0
C279 C 0.34465 0.38271 0.11095 0.0
C280 C 0.35661 0.34816 0.19566 0.0
C281 C 0.31932 0.39701 0.14714 0.0
C282 C 0.37565 0.35068 0.11701 0.0
C283 C 0.26426 0.44272 0.17964 0.0
N284 N 0.30196 0.39243 0.22535 0.0
C285 C 0.2717 0.42415 0.22109 0.0
C286 C 0.28822 0.42914 0.1425 0.0
Tb287 Tb 0.3216 0.36536 0.29132 0.0
N288 N 0.36225 0.3328 0.23723 0.0
C289 C 0.39323 0.30294 0.24481 0.0
C290 C 0.41274 0.30166 0.16691 0.0
C291 C 0.41847 0.28648 0.20983 0.0
H292 H 0.25352 0.4354 0.2497 0.0
H293 H 0.44273 0.26256 0.21604 0.0
H294 H 0.39485 0.33985 0.08874 0.0
H295 H 0.24027 0.46768 0.17642 0.0
H296 H 0.39898 0.29191 0.27779 0.0
H297 H 0.15659 0.41994 0.39815 0.0
H298 H 0.43265 0.28923 0.13991 0.0
H299 H 0.34224 0.25624 0.45388 0.0
H300 H 0.20672 0.37263 0.35912 0.0
H301 H 0.3481 0.25864 0.53099 0.0
H302 H 0.34059 0.39622 0.07814 0.0
H303 H 0.15894 0.42854 0.47456 0.0
H304 H 0.19208 0.40808 0.5408 0.0
H305 H 0.28252 0.44369 0.11047 0.0
H306 H 0.24432 0.36461 0.57676 0.0
N307 N 0.23862 0.35277 0.41262 0.0
C308 C 0.20862 0.37479 0.39257 0.0
C309 C 0.18127 0.40714 0.45765 0.0
C310 C 0.21131 0.384 0.47854 0.0
C311 C 0.17982 0.40228 0.4146 0.0
C312 C 0.23977 0.35667 0.45495 0.0
H313 H 0.30316 0.30948 0.5729 0.0
N314 N 0.2957 0.30652 0.45135 0.0
C315 C 0.32594 0.27988 0.51557 0.0
C316 C 0.26936 0.33278 0.47493 0.0
C317 C 0.3226 0.27874 0.47188 0.0
C318 C 0.30049 0.30853 0.53915 0.0
C319 C 0.2712 0.33486 0.51932 0.0
O320 O 0.30214 0.25115 0.3968 0.0
O321 O 0.31423 0.31121 0.31107 0.0
O322 O 0.27575 0.35694 0.26602 0.0
O323 O 0.25283 0.32379 0.32611 0.0
O324 O 0.33891 0.26606 0.35141 0.0
O325 O 0.24687 0.28692 0.38907 0.0
O326 O 0.31868 0.42122 0.29164 0.0
O327 O 0.29862 0.36163 0.35878 0.0
O328 O 0.33888 0.31354 0.39821 0.0
O329 O 0.36636 0.33683 0.33361 0.0
O330 O 0.27573 0.41033 0.32238 0.0
O331 O 0.37085 0.37718 0.27961 0.0
C332 C 0.33785 0.27826 0.31051 0.0
C333 C 0.25489 0.23047 0.43703 0.0
C334 C 0.21488 0.19407 0.46628 0.0
C335 C 0.22637 0.21797 0.43267 0.0
C336 C 0.23231 0.18286 0.50434 0.0
C337 C 0.27191 0.2186 0.47535 0.0
C338 C 0.26045 0.19526 0.50885 0.0
C339 C 0.25121 0.34107 0.28541 0.0
C340 C 0.26841 0.25287 0.3997 0.0
C341 C 0.24341 0.36252 0.54268 0.0
C342 C 0.21357 0.38714 0.52227 0.0
C343 C 0.27614 0.39472 0.36196 0.0
C344 C 0.36574 0.43927 0.24733 0.0
C345 C 0.39905 0.44463 0.24797 0.0
C346 C 0.40937 0.47131 0.21739 0.0
C347 C 0.386 0.49247 0.18631 0.0
C348 C 0.3429 0.4612 0.21612 0.0
C349 C 0.35314 0.48722 0.18558 0.0
C350 C 0.36658 0.32265 0.37546 0.0
C351 C 0.35379 0.41329 0.28151 0.0
H352 H 0.21344 0.22647 0.40292 0.0
H353 H 0.22476 0.16376 0.53025 0.0
H354 H 0.2947 0.22632 0.47919 0.0
H355 H 0.27399 0.18609 0.53807 0.0
H356 H 0.41661 0.4285 0.27248 0.0
H357 H 0.39267 0.51388 0.16321 0.0
H358 H 0.31656 0.45932 0.21596 0.0
H359 H 0.33509 0.50404 0.16193 0.0
Tb360 Tb 0.82661 0.33041 0.38401 0.0
C361 C 0.72027 0.30879 0.28435 0.0
C362 C 0.70831 0.25498 0.32657 0.0
C363 C 0.66119 0.30188 0.28718 0.0
C364 C 0.73176 0.27583 0.31169 0.0
C365 C 0.68525 0.32153 0.27071 0.0
C366 C 0.67269 0.26868 0.31509 0.0
C367 C 0.70193 0.36945 0.22149 0.0
N368 N 0.74418 0.32712 0.26903 0.0
C369 C 0.73644 0.35547 0.23565 0.0
C370 C 0.67595 0.35285 0.23971 0.0
Tb371 Tb 0.80016 0.30107 0.29365 0.0
N372 N 0.76634 0.26346 0.32235 0.0
C373 C 0.77982 0.2291 0.34566 0.0
C374 C 0.7216 0.22053 0.35167 0.0
C375 C 0.75769 0.20727 0.36062 0.0
H376 H 0.75675 0.36794 0.22105 0.0
H377 H 0.76837 0.18044 0.3796 0.0
H378 H 0.65415 0.25331 0.32672 0.0
H379 H 0.69551 0.39278 0.19628 0.0
H380 H 0.80735 0.21845 0.35371 0.0
H381 H 0.89691 0.42737 0.31612 0.0
H382 H 0.70444 0.2037 0.36369 0.0
H383 H 0.84797 0.25473 0.45821 0.0
H384 H 0.84645 0.40228 0.3272 0.0
H385 H 0.89715 0.22193 0.50375 0.0
H386 H 0.634 0.31152 0.27756 0.0
H387 H 0.95112 0.39491 0.35495 0.0
H388 H 0.98233 0.34317 0.40994 0.0
H389 H 0.64931 0.36351 0.22843 0.0
H390 H 0.98163 0.28836 0.46226 0.0
N391 N 0.87291 0.35447 0.3692 0.0
C392 C 0.87044 0.38721 0.34329 0.0
C393 C 0.9293 0.38344 0.35938 0.0
C394 C 0.93067 0.35124 0.38804 0.0
C395 C 0.89878 0.4018 0.33738 0.0
C396 C 0.90154 0.33747 0.39256 0.0
H397 H 0.94994 0.24316 0.49758 0.0
N398 N 0.87238 0.29463 0.42545 0.0
C399 C 0.89858 0.24579 0.48091 0.0
C400 C 0.90099 0.30692 0.42222 0.0
C401 C 0.87058 0.26467 0.45493 0.0
C402 C 0.9283 0.25789 0.4774 0.0
C403 C 0.92978 0.28883 0.44788 0.0
O404 O 0.79745 0.34049 0.44676 0.0
O405 O 0.78609 0.3136 0.36137 0.0
O406 O 0.7603 0.35635 0.30805 0.0
O407 O 0.79296 0.38002 0.34481 0.0
O408 O 0.79702 0.29521 0.42362 0.0
O409 O 0.81276 0.38428 0.40642 0.0
O410 O 0.81682 0.30244 0.22584 0.0
O411 O 0.83988 0.3197 0.31495 0.0
O412 O 0.87109 0.27839 0.36662 0.0
O413 O 0.845 0.25351 0.32215 0.0
O414 O 0.82731 0.33828 0.25325 0.0
O415 O 0.81356 0.2512 0.26246 0.0
C416 C 0.77683 0.29499 0.39563 0.0
C417 C 0.81175 0.38249 0.48388 0.0
C418 C 0.81326 0.42743 0.53221 0.0
C419 C 0.8027 0.42002 0.49406 0.0
C420 C 0.83364 0.39674 0.5591 0.0
C421 C 0.83172 0.35278 0.51208 0.0
C422 C 0.8426 0.3599 0.54916 0.0
C423 C 0.76517 0.38437 0.32351 0.0
C424 C 0.79918 0.37404 0.44528 0.0
C425 C 0.95918 0.30199 0.443 0.0
C426 C 0.95966 0.33309 0.41307 0.0
C427 C 0.84782 0.3394 0.28064 0.0
C428 C 0.79659 0.26417 0.18946 0.0
C429 C 0.79301 0.2292 0.18545 0.0
C430 C 0.77695 0.22453 0.14995 0.0
C431 C 0.76303 0.25625 0.12026 0.0
C432 C 0.78249 0.29473 0.15857 0.0
C433 C 0.76543 0.29088 0.1249 0.0
C434 C 0.87113 0.25045 0.34593 0.0
C435 C 0.817 0.2686 0.2235 0.0
H436 H 0.78726 0.44324 0.4727 0.0
H437 H 0.84349 0.40118 0.58752 0.0
H438 H 0.83866 0.32381 0.50596 0.0
H439 H 0.85813 0.33665 0.57036 0.0
H440 H 0.80312 0.20586 0.20967 0.0
H441 H 0.75135 0.2542 0.09213 0.0
H442 H 0.78505 0.32177 0.15982 0.0
H443 H 0.75493 0.31472 0.10134 0.0
Tb444 Tb 0.83396 0.775 0.2854 0.0
C445 C 0.8146 0.83069 0.44016 0.0
C446 C 0.76956 0.89303 0.4302 0.0
C447 C 0.76554 0.85459 0.49897 0.0
C448 C 0.80085 0.86364 0.41385 0.0
C449 C 0.79752 0.82621 0.48347 0.0
C450 C 0.75155 0.88794 0.47235 0.0
C451 C 0.84646 0.76738 0.49458 0.0
N452 N 0.84525 0.80344 0.42388 0.0
C453 C 0.86263 0.7735 0.45192 0.0
C454 C 0.81331 0.79349 0.51018 0.0
Tb455 Tb 0.86959 0.81576 0.35248 0.0
N456 N 0.81902 0.86762 0.37317 0.0
C457 C 0.80977 0.90269 0.35035 0.0
C458 C 0.75793 0.9272 0.40439 0.0
C459 C 0.7787 0.93234 0.3648 0.0
H460 H 0.89009 0.75529 0.44302 0.0
H461 H 0.77141 0.95957 0.34591 0.0
H462 H 0.7273 0.91002 0.48507 0.0
H463 H 0.86022 0.74308 0.51585 0.0
H464 H 0.82679 0.90922 0.3218 0.0
H465 H 0.95226 0.65166 0.24711 0.0
H466 H 0.7341 0.95038 0.41573 0.0
H467 H 0.77646 0.83061 0.21526 0.0
H468 H 0.9028 0.69222 0.29477 0.0
H469 H 0.77993 0.85417 0.13756 0.0
H470 H 0.75186 0.85134 0.53182 0.0
H471 H 0.96304 0.67206 0.16838 0.0
H472 H 0.94462 0.7209 0.10536 0.0
H473 H 0.80094 0.78892 0.54341 0.0
H474 H 0.89857 0.77812 0.07581 0.0
N475 N 0.88504 0.73712 0.24473 0.0
C476 C 0.90717 0.70267 0.26107 0.0
C477 C 0.94118 0.69046 0.18937 0.0
C478 C 0.91838 0.72534 0.17246 0.0
C479 C 0.9352 0.6789 0.23378 0.0
C480 C 0.88988 0.74802 0.20114 0.0
H481 H 0.83703 0.82827 0.08752 0.0
N482 N 0.83285 0.79584 0.21174 0.0
C483 C 0.80368 0.83302 0.15001 0.0
C484 C 0.86323 0.77914 0.18428 0.0
C485 C 0.80204 0.81986 0.19435 0.0
C486 C 0.83592 0.81856 0.12209 0.0
C487 C 0.86552 0.78983 0.13867 0.0
O488 O 0.78468 0.77171 0.27238 0.0
O489 O 0.82709 0.7913 0.35204 0.0
O490 O 0.89433 0.75497 0.36809 0.0
O491 O 0.8553 0.73338 0.34065 0.0
O492 O 0.78148 0.80684 0.32152 0.0
O493 O 0.82968 0.72156 0.28557 0.0
O494 O 0.91214 0.80779 0.38912 0.0
O495 O 0.87857 0.79589 0.28782 0.0
O496 O 0.81476 0.83593 0.26585 0.0
O497 O 0.85718 0.8536 0.29111 0.0
O498 O 0.9235 0.78816 0.3153 0.0
O499 O 0.8867 0.86168 0.35506 0.0
C500 C 0.79218 0.8066 0.35846 0.0
C501 C 0.79199 0.71991 0.23477 0.0
C502 C 0.75401 0.69906 0.19736 0.0
C503 C 0.76025 0.71136 0.23499 0.0
C504 C 0.77947 0.69667 0.15934 0.0
C505 C 0.81794 0.71452 0.19735 0.0
C506 C 0.81142 0.70387 0.15963 0.0
C507 C 0.88113 0.72833 0.36553 0.0
C508 C 0.79736 0.73529 0.27298 0.0
C509 C 0.89611 0.76995 0.11077 0.0
C510 C 0.92228 0.73737 0.12758 0.0
C511 C 0.91371 0.78264 0.28018 0.0
C512 C 0.90902 0.86129 0.42133 0.0
C513 C 0.92794 0.88659 0.41806 0.0
C514 C 0.92921 0.90266 0.45546 0.0
C515 C 0.9107 0.89372 0.49586 0.0
C516 C 0.89108 0.85262 0.46229 0.0
C517 C 0.89182 0.86887 0.49915 0.0
C518 C 0.8317 0.85996 0.2652 0.0
C519 C 0.90989 0.84287 0.38239 0.0
H520 H 0.74117 0.71337 0.26473 0.0
H521 H 0.7751 0.68839 0.12952 0.0
H522 H 0.84344 0.71813 0.19719 0.0
H523 H 0.83141 0.70076 0.13066 0.0
H524 H 0.94172 0.89357 0.38655 0.0
H525 H 0.91141 0.90544 0.52515 0.0
H526 H 0.87701 0.83289 0.46636 0.0
H527 H 0.87825 0.86172 0.53057 0.0
Tb528 Tb 0.30785 0.8198 0.27452 0.0
C529 C 0.35282 0.91917 0.36053 0.0
C530 C 0.40728 0.91781 0.31046 0.0
C531 C 0.37244 0.97367 0.348 0.0
C532 C 0.38247 0.90003 0.33195 0.0
C533 C 0.34813 0.9558 0.36979 0.0
C534 C 0.40184 0.95478 0.31826 0.0
C535 C 0.29766 0.95332 0.42439 0.0
N536 N 0.32919 0.90158 0.38024 0.0
C537 C 0.30342 0.91714 0.41408 0.0
C538 C 0.31968 0.97308 0.40153 0.0
Tb539 Tb 0.34215 0.84156 0.36233 0.0
N540 N 0.38677 0.86434 0.32477 0.0
C541 C 0.41587 0.84501 0.29639 0.0
C542 C 0.43678 0.89805 0.28154 0.0
C543 C 0.4411 0.86149 0.27459 0.0
H544 H 0.28693 0.90162 0.43284 0.0
H545 H 0.46368 0.84607 0.2519 0.0
H546 H 0.42049 0.96887 0.30181 0.0
H547 H 0.27649 0.96577 0.45026 0.0
H548 H 0.41967 0.81737 0.28859 0.0
H549 H 0.2118 0.75327 0.35643 0.0
H550 H 0.45627 0.9108 0.26428 0.0
H551 H 0.37564 0.79557 0.19232 0.0
H552 H 0.24029 0.802 0.34313 0.0
H553 H 0.39994 0.74606 0.14137 0.0
H554 H 0.369 1.00193 0.35435 0.0
H555 H 0.23442 0.69983 0.31063 0.0
H556 H 0.27735 0.66811 0.24729 0.0
H557 H 0.31528 1.00111 0.40964 0.0
H558 H 0.3275 0.66693 0.18794 0.0
N559 N 0.28038 0.77543 0.29187 0.0
C560 C 0.25102 0.77853 0.32337 0.0
C561 C 0.24741 0.72093 0.30496 0.0
C562 C 0.27639 0.7188 0.27146 0.0
C563 C 0.23457 0.75103 0.33088 0.0
C564 C 0.29249 0.74684 0.26568 0.0
H565 H 0.37331 0.69585 0.14824 0.0
N566 N 0.33627 0.77293 0.22894 0.0
C567 C 0.37779 0.74564 0.16697 0.0
C568 C 0.32096 0.7459 0.23266 0.0
C569 C 0.364 0.77361 0.19603 0.0
C570 C 0.36259 0.71743 0.17085 0.0
C571 C 0.3338 0.71729 0.20393 0.0
O572 O 0.2981 0.85089 0.2135 0.0
O573 O 0.32493 0.86055 0.2981 0.0
O574 O 0.28766 0.88351 0.35759 0.0
O575 O 0.26137 0.8553 0.31776 0.0
O576 O 0.34229 0.84993 0.23463 0.0
O577 O 0.25447 0.83826 0.25646 0.0
O578 O 0.33414 0.83226 0.43072 0.0
O579 O 0.32206 0.80237 0.34073 0.0
O580 O 0.35999 0.77274 0.28253 0.0
O581 O 0.38403 0.78932 0.33716 0.0
O582 O 0.30616 0.8139 0.40355 0.0
O583 O 0.38819 0.82459 0.39632 0.0
C584 C 0.34192 0.87105 0.26328 0.0
C585 C 0.25187 0.84428 0.17965 0.0
C586 C 0.20573 0.85782 0.13028 0.0
C587 C 0.21629 0.86441 0.1686 0.0
C588 C 0.23061 0.83002 0.10433 0.0
C589 C 0.27626 0.81748 0.15225 0.0
C590 C 0.26558 0.81013 0.11524 0.0
C591 C 0.25907 0.88149 0.34284 0.0
C592 C 0.26412 0.85296 0.21791 0.0
C593 C 0.31786 0.68929 0.2095 0.0
C594 C 0.28937 0.68991 0.24335 0.0
C595 C 0.30475 0.79262 0.37599 0.0
C596 C 0.37337 0.84981 0.46592 0.0
C597 C 0.40794 0.85217 0.46651 0.0
C598 C 0.4141 0.87048 0.49913 0.0
C599 C 0.38437 0.88819 0.52971 0.0
C600 C 0.34445 0.86724 0.49754 0.0
C601 C 0.34983 0.88689 0.52851 0.0
C602 C 0.38637 0.76658 0.30721 0.0
C603 C 0.36789 0.82731 0.4344 0.0
H604 H 0.1973 0.8856 0.18903 0.0
H605 H 0.2229 0.82353 0.0755 0.0
H606 H 0.30386 0.80253 0.15879 0.0
H607 H 0.28463 0.78913 0.09469 0.0
H608 H 0.43038 0.83853 0.44247 0.0
H609 H 0.38793 0.90149 0.55609 0.0
H610 H 0.31762 0.86546 0.49875 0.0
H611 H 0.32736 0.90006 0.55273 0.0
Tb612 Tb 0.32175 0.82273 0.85931 0.0
C613 C 0.23486 0.75088 0.82206 0.0
C614 C 0.2601 0.68306 0.83418 0.0
C615 C 0.1955 0.71526 0.85564 0.0
C616 C 0.26456 0.71817 0.81999 0.0
C617 C 0.19964 0.74969 0.83824 0.0
C618 C 0.22577 0.68193 0.85376 0.0
C619 C 0.17482 0.8157 0.81429 0.0
N620 N 0.24003 0.78364 0.80525 0.0
C621 C 0.21026 0.81549 0.79923 0.0
C622 C 0.16952 0.78285 0.83488 0.0
Tb623 Tb 0.29914 0.78083 0.77956 0.0
N624 N 0.29686 0.72048 0.7994 0.0
C625 C 0.32402 0.68809 0.78612 0.0
C626 C 0.28958 0.65009 0.82566 0.0
C627 C 0.32138 0.65266 0.80042 0.0
H628 H 0.21305 0.8409 0.782 0.0
H629 H 0.34366 0.62739 0.79131 0.0
H630 H 0.22199 0.65531 0.86553 0.0
H631 H 0.15162 0.84127 0.8099 0.0
H632 H 0.34837 0.68951 0.76511 0.0
H633 H 0.36077 0.92241 0.73777 0.0
H634 H 0.28728 0.62263 0.83603 0.0
H635 H 0.3598 0.77486 0.94717 0.0
H636 H 0.31921 0.89065 0.77823 0.0
H637 H 0.41934 0.75686 0.97508 0.0
H638 H 0.16882 0.71393 0.86908 0.0
H639 H 0.42383 0.90348 0.7558 0.0
H640 H 0.47171 0.86283 0.80323 0.0
H641 H 0.14205 0.78311 0.84673 0.0
H642 H 0.48825 0.81639 0.86692 0.0
N643 N 0.35812 0.85373 0.81892 0.0
C644 C 0.34648 0.88211 0.78667 0.0
C645 C 0.40559 0.88953 0.77389 0.0
C646 C 0.41701 0.86126 0.80781 0.0
C647 C 0.37001 0.9003 0.76365 0.0
C648 C 0.3922 0.84393 0.83023 0.0
H649 H 0.4687 0.77704 0.93168 0.0
N650 N 0.37618 0.80319 0.88754 0.0
C651 C 0.41498 0.77334 0.94379 0.0
C652 C 0.4018 0.81725 0.8653 0.0
C653 C 0.38137 0.78354 0.92793 0.0
C654 C 0.44279 0.78476 0.91916 0.0
C655 C 0.43605 0.80791 0.88 0.0
O656 O 0.30274 0.83382 0.92522 0.0
O657 O 0.28031 0.8024 0.84403 0.0
O658 O 0.27326 0.8423 0.76729 0.0
O659 O 0.27403 0.86555 0.83154 0.0
O660 O 0.29778 0.7849 0.90392 0.0
O661 O 0.30425 0.87868 0.87559 0.0
O662 O 0.27818 0.81194 0.72228 0.0
O663 O 0.33455 0.81007 0.79091 0.0
O664 O 0.36252 0.7654 0.86005 0.0
O665 O 0.34493 0.73721 0.8104 0.0
O666 O 0.355 0.77188 0.74531 0.0
O667 O 0.30304 0.75226 0.72486 0.0
C668 C 0.27404 0.7841 0.88069 0.0
C669 C 0.3094 0.88716 0.94767 0.0
C670 C 0.29555 0.9299 1.00427 0.0
C671 C 0.2837 0.91397 0.97438 0.0
C672 C 0.33305 0.9186 1.00749 0.0
C673 C 0.34673 0.87755 0.95041 0.0
C674 C 0.35844 0.89274 0.9805 0.0
C675 C 0.26153 0.86961 0.79365 0.0
C676 C 0.29689 0.86972 0.91719 0.0
C677 C 0.46158 0.82362 0.85653 0.0
C678 C 0.45209 0.85023 0.82043 0.0
C679 C 0.36338 0.79507 0.76386 0.0
C680 C 0.25047 0.7794 0.68821 0.0
C681 C 0.25254 0.7457 0.67317 0.0
C682 C 0.22152 0.74149 0.66109 0.0
C683 C 0.18823 0.77178 0.66401 0.0
C684 C 0.21701 0.80961 0.68972 0.0
C685 C 0.18617 0.80567 0.67789 0.0
C686 C 0.36643 0.73612 0.83927 0.0
C687 C 0.28292 0.78215 0.70352 0.0
H688 H 0.2548 0.92249 0.97183 0.0
H689 H 0.34279 0.93076 0.03001 0.0
H690 H 0.36703 0.85868 0.92924 0.0
H691 H 0.38734 0.88483 0.98246 0.0
H692 H 0.27846 0.72261 0.67091 0.0
H693 H 0.1637 0.7692 0.6561 0.0
H694 H 0.21441 0.83615 0.70061 0.0
H695 H 0.16042 0.82892 0.6799 0.0
Tb696 Tb 0.3079 0.27847 0.814 0.0
C697 C 0.3157 0.35233 0.96536 0.0
C698 C 0.26952 0.4146 0.95871 0.0
C699 C 0.28541 0.38479 0.0305 0.0
C700 C 0.29479 0.3825 0.93921 0.0
C701 C 0.31182 0.35377 1.01113 0.0
C702 C 0.26439 0.41515 1.0044 0.0
C703 C 0.36323 0.29571 1.01526 0.0
N704 N 0.34119 0.32257 0.9459 0.0
C705 C 0.36625 0.29553 0.96991 0.0
C706 C 0.33543 0.32458 0.03607 0.0
Tb707 Tb 0.34497 0.32732 0.87091 0.0
N708 N 0.30026 0.38127 0.89487 0.0
C709 C 0.28154 0.4119 0.86856 0.0
C710 C 0.25065 0.4457 0.93176 0.0
C711 C 0.25699 0.44446 0.88653 0.0
H712 H 0.38752 0.27272 0.95398 0.0
H713 H 0.24246 0.46843 0.86538 0.0
H714 H 0.24481 0.43937 1.01982 0.0
H715 H 0.38219 0.27347 0.03412 0.0
H716 H 0.28452 0.41226 0.83363 0.0
H717 H 0.43169 0.16568 0.7628 0.0
H718 H 0.23128 0.47087 0.94552 0.0
H719 H 0.23675 0.33075 0.76277 0.0
H720 H 0.38711 0.20707 0.81523 0.0
H721 H 0.21651 0.33524 0.69068 0.0
H722 H 0.28186 0.38612 0.06554 0.0
H723 H 0.4203 0.17216 0.68581 0.0
H724 H 0.37725 0.20203 0.62946 0.0
H725 H 0.3328 0.32438 0.07131 0.0
H726 H 0.31764 0.24604 0.61095 0.0
N727 N 0.3525 0.23991 0.76756 0.0
C728 C 0.38233 0.21134 0.7814 0.0
C729 C 0.40107 0.1912 0.70845 0.0
C730 C 0.36893 0.21828 0.69536 0.0
C731 C 0.40757 0.18742 0.75185 0.0
C732 C 0.34494 0.24258 0.72602 0.0
H733 H 0.25738 0.29567 0.63357 0.0
N734 N 0.28917 0.29001 0.74607 0.0
C735 C 0.24346 0.31634 0.69707 0.0
C736 C 0.31189 0.26807 0.71511 0.0
C737 C 0.25509 0.31388 0.73776 0.0
C738 C 0.26665 0.294 0.66487 0.0
C739 C 0.30138 0.26954 0.6736 0.0
O740 O 0.26354 0.26054 0.81106 0.0
O741 O 0.29824 0.31176 0.86779 0.0
O742 O 0.33051 0.28393 0.91621 0.0
O743 O 0.33654 0.24047 0.86935 0.0
O744 O 0.25452 0.31845 0.83956 0.0
O745 O 0.30965 0.22522 0.8436 0.0
O746 O 0.40011 0.31393 0.87608 0.0
O747 O 0.35268 0.29755 0.81403 0.0
O748 O 0.30889 0.32947 0.76837 0.0
O749 O 0.33128 0.3622 0.80807 0.0
O750 O 0.39609 0.28305 0.84677 0.0
O751 O 0.36444 0.37227 0.87004 0.0
C752 C 0.26426 0.32993 0.87067 0.0
C753 C 0.2866 0.19486 0.80136 0.0
C754 C 0.26354 0.16091 0.75986 0.0
C755 C 0.25739 0.19136 0.78424 0.0
C756 C 0.29919 0.13562 0.75029 0.0
C757 C 0.32158 0.16724 0.79402 0.0
C758 C 0.32798 0.13869 0.76754 0.0
C759 C 0.33529 0.24913 0.90968 0.0
C760 C 0.28102 0.2265 0.82733 0.0
C761 C 0.32537 0.24579 0.64275 0.0
C762 C 0.35927 0.22056 0.65339 0.0
C763 C 0.38626 0.27854 0.81123 0.0
C764 C 0.4129 0.35512 0.91466 0.0
C765 C 0.41284 0.39114 0.91894 0.0
C766 C 0.43091 0.39638 0.95139 0.0
C767 C 0.44615 0.36604 0.98194 0.0
C768 C 0.43136 0.32455 0.94334 0.0
C769 C 0.44635 0.33031 0.97781 0.0
C770 C 0.31791 0.3593 0.77257 0.0
C771 C 0.39678 0.34879 0.87819 0.0
H772 H 0.22995 0.2112 0.79128 0.0
H773 H 0.30443 0.11242 0.73097 0.0
H774 H 0.34421 0.16724 0.80902 0.0
H775 H 0.35518 0.11825 0.76141 0.0
H776 H 0.40059 0.41455 0.89562 0.0
H777 H 0.46031 0.36931 1.00712 0.0
H778 H 0.43481 0.29591 0.93903 0.0
H779 H 0.45972 0.30668 1.00014 0.0
Tb780 Tb 0.80638 0.311 0.77374 0.0
C781 C 0.83306 0.40627 0.89561 0.0
C782 C 0.88083 0.42895 0.8569 0.0
C783 C 0.83597 0.46513 0.91221 0.0
C784 C 0.86353 0.40182 0.86453 0.0
C785 C 0.81936 0.43758 0.9204 0.0
C786 C 0.86656 0.46089 0.88043 0.0
C787 C 0.7748 0.41127 0.96083 0.0
N788 N 0.81743 0.37926 0.90238 0.0
C789 C 0.78952 0.38052 0.93571 0.0
C790 C 0.78964 0.44002 0.953 0.0
Tb791 Tb 0.84613 0.32901 0.86182 0.0
N792 N 0.87659 0.37061 0.84233 0.0
C793 C 0.90807 0.36385 0.81366 0.0
C794 C 0.91219 0.42294 0.82621 0.0
C795 C 0.926 0.39012 0.80475 0.0
H796 H 0.77834 0.35806 0.94218 0.0
H797 H 0.95043 0.38504 0.78128 0.0
H798 H 0.8793 0.48219 0.87476 0.0
H799 H 0.75223 0.41264 0.98644 0.0
H800 H 0.9191 0.33855 0.79693 0.0
H801 H 0.71339 0.24737 0.87246 0.0
H802 H 0.92614 0.44323 0.81922 0.0
H803 H 0.85532 0.2908 0.67735 0.0
H804 H 0.73905 0.29776 0.84725 0.0
H805 H 0.87759 0.23759 0.63134 0.0
H806 H 0.82562 0.48962 0.93059 0.0
H807 H 0.73889 0.18744 0.83788 0.0
H808 H 0.78207 0.14976 0.77855 0.0
H809 H 0.77827 0.46372 0.97265 0.0
H810 H 0.82701 0.14703 0.71259 0.0
N811 N 0.77973 0.26644 0.79952 0.0
C812 C 0.75048 0.27188 0.83166 0.0
C813 C 0.75028 0.20952 0.82659 0.0
C814 C 0.77834 0.20524 0.79155 0.0
C815 C 0.73577 0.24334 0.8461 0.0
C816 C 0.79224 0.23482 0.77828 0.0
H817 H 0.86223 0.18006 0.65678 0.0
N818 N 0.82854 0.26324 0.72882 0.0
C819 C 0.86113 0.23574 0.6626 0.0
C820 C 0.81758 0.23317 0.74157 0.0
C821 C 0.84842 0.26585 0.68868 0.0
C822 C 0.85241 0.20332 0.67706 0.0
C823 C 0.8297 0.20205 0.71658 0.0
O824 O 0.78997 0.34996 0.71916 0.0
O825 O 0.83025 0.34635 0.79656 0.0
O826 O 0.79523 0.37689 0.85098 0.0
O827 O 0.76414 0.34759 0.82073 0.0
O828 O 0.84021 0.33996 0.73094 0.0
O829 O 0.75298 0.32467 0.75665 0.0
O830 O 0.85389 0.30426 0.9263 0.0
O831 O 0.82627 0.29088 0.83724 0.0
O832 O 0.86344 0.27206 0.76749 0.0
O833 O 0.89016 0.29021 0.8188 0.0
O834 O 0.81355 0.29703 0.90214 0.0
O835 O 0.89968 0.30818 0.88022 0.0
C836 C 0.84647 0.35626 0.7606 0.0
C837 C 0.74749 0.34049 0.67994 0.0
C838 C 0.70048 0.34136 0.63597 0.0
C839 C 0.71071 0.34511 0.67635 0.0
C840 C 0.72782 0.33271 0.59984 0.0
C841 C 0.77352 0.33253 0.64254 0.0
C842 C 0.76377 0.32838 0.60317 0.0
C843 C 0.76467 0.37655 0.83918 0.0
C844 C 0.75843 0.346 0.72155 0.0
C845 C 0.81762 0.17147 0.73097 0.0
C846 C 0.79201 0.17303 0.76849 0.0
C847 C 0.81182 0.27791 0.87238 0.0
C848 C 0.90213 0.31291 0.95568 0.0
C849 C 0.93706 0.29331 0.97002 0.0
C850 C 0.94816 0.30667 1.00366 0.0
C851 C 0.92457 0.33974 1.02173 0.0
C852 C 0.87906 0.34496 0.97633 0.0
C853 C 0.89034 0.35858 1.00828 0.0
C854 C 0.89197 0.26975 0.78672 0.0
C855 C 0.8887 0.29957 0.92108 0.0
H856 H 0.69021 0.35216 0.70461 0.0
H857 H 0.72156 0.32859 0.56881 0.0
H858 H 0.80155 0.32982 0.64336 0.0
H859 H 0.78429 0.32164 0.57493 0.0
H860 H 0.95501 0.26777 0.95583 0.0
H861 H 0.93237 0.3505 0.04738 0.0
H862 H 0.85176 0.35933 0.96875 0.0
H863 H 0.87206 0.38354 0.02336 0.0
Tb864 Tb 0.7822 0.81283 0.86496 0.0
C865 C 0.81806 0.85651 0.66951 0.0
C866 C 0.85964 0.79724 0.64438 0.0
C867 C 0.82429 0.84534 0.59322 0.0
C868 C 0.84286 0.82101 0.67828 0.0
C869 C 0.80984 0.86981 0.62645 0.0
C870 C 0.84914 0.80902 0.6022 0.0
C871 C 0.77671 0.93135 0.6516 0.0
N872 N 0.8048 0.87926 0.70252 0.0
C873 C 0.78485 0.91656 0.69406 0.0
C874 C 0.78893 0.90778 0.6177 0.0
Tb875 Tb 0.82365 0.85414 0.7695 0.0
N876 N 0.85363 0.81165 0.71881 0.0
C877 C 0.88367 0.78053 0.72623 0.0
C878 C 0.88804 0.76349 0.65321 0.0
C879 C 0.90065 0.75552 0.69406 0.0
H880 H 0.77519 0.93501 0.72001 0.0
H881 H 0.92352 0.73019 0.70077 0.0
H882 H 0.86157 0.79107 0.57583 0.0
H883 H 0.7608 0.96084 0.64512 0.0
H884 H 0.89395 0.77412 0.75752 0.0
H885 H 0.66984 0.93832 0.91108 0.0
H886 H 0.90154 0.74435 0.62815 0.0
H887 H 0.83644 0.74331 0.92528 0.0
H888 H 0.70726 0.88997 0.86203 0.0
H889 H 0.85175 0.73087 1.00125 0.0
H890 H 0.81774 0.85484 0.5601 0.0
H891 H 0.68535 0.9348 0.98568 0.0
H892 H 0.7247 0.89895 0.04434 0.0
H893 H 0.78249 0.91926 0.58489 0.0
H894 H 0.77382 0.8422 0.06887 0.0
N895 N 0.74462 0.85923 0.90776 0.0
C896 C 0.71449 0.8877 0.89444 0.0
C897 C 0.70205 0.91341 0.96419 0.0
C898 C 0.7318 0.88324 0.97839 0.0
C899 C 0.69313 0.91539 0.92219 0.0
C900 C 0.75281 0.8563 0.94904 0.0
H901 H 0.8215 0.7793 0.05329 0.0
N902 N 0.79932 0.79897 0.93387 0.0
C903 C 0.83209 0.75761 0.99068 0.0
C904 C 0.78128 0.82513 0.96254 0.0
C905 C 0.82332 0.7647 0.9478 0.0
C906 C 0.81508 0.78513 1.01991 0.0
C907 C 0.78882 0.81913 1.00621 0.0
O908 O 0.77813 0.75897 0.88198 0.0
O909 O 0.80663 0.80638 0.79731 0.0
O910 O 0.77169 0.85622 0.74988 0.0
O911 O 0.74187 0.83992 0.81734 0.0
O912 O 0.82256 0.76058 0.84187 0.0
O913 O 0.72986 0.80859 0.87972 0.0
O914 O 0.83649 0.90406 0.75742 0.0
O915 O 0.79843 0.85978 0.83619 0.0
O916 O 0.83288 0.81487 0.88283 0.0
O917 O 0.86506 0.81947 0.81368 0.0
O918 O 0.7878 0.90779 0.79644 0.0
O919 O 0.87883 0.84965 0.75782 0.0
C920 C 0.82543 0.77144 0.80064 0.0
C921 C 0.72536 0.7565 0.92893 0.0
C922 C 0.69205 0.71496 0.96402 0.0
C923 C 0.70872 0.73027 0.92601 0.0
C924 C 0.69276 0.72582 1.005 0.0
C925 C 0.72504 0.76745 0.97007 0.0
C926 C 0.70916 0.75192 1.0079 0.0
C927 C 0.7425 0.85113 0.77455 0.0
C928 C 0.74259 0.77215 0.88874 0.0
C929 C 0.76868 0.84637 0.03522 0.0
C930 C 0.74046 0.87855 1.02128 0.0
C931 C 0.78222 0.89495 0.8366 0.0
C932 C 0.89202 0.89915 0.71148 0.0
C933 C 0.90951 0.92463 0.71482 0.0
C934 C 0.92973 0.93691 0.67766 0.0
C935 C 0.93226 0.92322 0.63727 0.0
C936 C 0.89536 0.88568 0.67088 0.0
C937 C 0.91518 0.89779 0.63403 0.0
C938 C 0.86347 0.81434 0.85721 0.0
C939 C 0.87151 0.88589 0.75072 0.0
H940 H 0.70799 0.72255 0.89412 0.0
H941 H 0.68039 0.71427 0.0348 0.0
H942 H 0.7367 0.78813 0.97312 0.0
H943 H 0.70927 0.7604 0.03954 0.0
H944 H 0.90748 0.93478 0.74623 0.0
H945 H 0.94826 0.93145 0.60837 0.0
H946 H 0.88329 0.86531 0.66765 0.0
H947 H 0.91778 0.88691 0.60301 0.0
C948 C 0.16101 0.14736 0.41897 0.0
C949 C 0.13202 0.14807 0.45249 0.0
C950 C 0.18729 0.16295 0.42324 0.0
C951 C 0.1857 0.17958 0.46133 0.0
H952 H 0.16309 0.13521 0.38893 0.0
H953 H 0.20931 0.16148 0.39678 0.0
S954 S 0.11544 0.18847 0.55871 0.0
N955 N 0.10385 0.16614 0.52543 0.0
N956 N 0.1524 0.19637 0.53283 0.0
C957 C 0.15684 0.18048 0.49503 0.0
C958 C 0.13023 0.16454 0.49076 0.0
C959 C 0.93103 0.14688 0.33955 0.0
C960 C 0.96535 0.14565 0.34802 0.0
C961 C 0.90101 0.18081 0.33818 0.0
C962 C 0.90368 0.2149 0.34633 0.0
H963 H 0.92712 0.12123 0.33463 0.0
H964 H 0.87525 0.18006 0.33179 0.0
S965 S 0.98806 0.22748 0.36769 0.0
N966 N 1.00061 0.1821 0.36244 0.0
N967 N 0.94443 0.24533 0.36091 0.0
C968 C 0.93809 0.21413 0.35406 0.0
C969 C 0.96882 0.17976 0.35447 0.0
C970 C 0.95395 0.98521 0.47589 0.0
C971 C 0.9902 0.97658 0.45569 0.0
C972 C 0.93422 0.96164 0.4746 0.0
C973 C 0.95009 0.92835 0.45337 0.0
H974 H 0.94056 1.01071 0.49223 0.0
H975 H 0.90625 0.96958 0.49038 0.0
S976 S 0.04511 0.892 0.39791 0.0
N977 N 0.04168 0.93212 0.41506 0.0
N978 N 1.00483 0.88723 0.41325 0.0
C979 C 0.98644 0.91929 0.43323 0.0
C980 C 1.00645 0.94352 0.4343 0.0
C981 C 0.18174 0.95256 0.40791 0.0
C982 C 0.15962 0.97553 0.37617 0.0
C983 C 0.21285 0.92147 0.39693 0.0
C984 C 0.22339 0.91154 0.35377 0.0
H985 H 0.1753 0.95872 0.44183 0.0
H986 H 0.22884 0.90503 0.42264 0.0
S987 S 0.17522 0.96101 0.25795 0.0
N988 N 0.1505 0.98519 0.29926 0.0
N989 N 0.20922 0.92655 0.27884 0.0
C990 C 0.20137 0.93347 0.32164 0.0
C991 C 0.16956 0.96553 0.33274 0.0
C992 C 0.17665 0.96068 0.80098 0.0
C993 C 0.16907 0.97071 0.75719 0.0
C994 C 0.20706 0.92879 0.81254 0.0
C995 C 0.2312 0.90538 0.78088 0.0
H996 H 0.15914 0.97766 0.82651 0.0
H997 H 0.21126 0.92206 0.84673 0.0
S998 S 0.22424 0.91917 0.66153 0.0
N999 N 0.18901 0.95378 0.6821 0.0
N1000 N 0.24551 0.89555 0.70363 0.0
C1001 C 0.22402 0.91538 0.73711 0.0
C1002 C 0.19326 0.94745 0.72538 0.0
C1003 C 0.18282 0.16658 0.70492 0.0
C1004 C 0.17842 0.13177 0.72039 0.0
C1005 C 0.20965 0.17682 0.71884 0.0
C1006 C 0.23298 0.1523 0.74823 0.0
H1007 H 0.16522 0.18604 0.68226 0.0
H1008 H 0.21269 0.20357 0.70591 0.0
S1009 S 0.23311 0.05791 0.79774 0.0
N1010 N 0.20037 0.07262 0.76591 0.0
N1011 N 0.2498 0.09228 0.7928 0.0
C1012 C 0.22864 0.11767 0.76408 0.0
C1013 C 0.20163 0.10725 0.74994 0.0
C1014 C 0.97533 0.17941 0.79671 0.0
C1015 C 0.98838 0.172 0.75269 0.0
C1016 C 0.94562 0.21242 0.80762 0.0
C1017 C 0.92727 0.23892 0.77501 0.0
H1018 H 0.98767 0.15934 0.82294 0.0
H1019 H 0.9357 0.21619 0.84189 0.0
S1020 S 0.95377 0.23674 0.6552 0.0
N1021 N 0.98248 0.19725 0.67631 0.0
N1022 N 0.9272 0.25801 0.69742 0.0
C1023 C 0.94113 0.23291 0.73121 0.0
C1024 C 0.97142 0.19983 0.71994 0.0
C1025 C 0.99654 0.97467 0.71267 0.0
C1026 C 0.99592 1.00522 0.68103 0.0
C1027 C 0.974 0.95352 0.71251 0.0
C1028 C 0.94992 0.96235 0.68083 0.0
H1029 H 1.01554 0.96624 0.73667 0.0
H1030 H 0.97645 0.92925 0.73629 0.0
S1031 S 0.93355 0.04366 0.59582 0.0
N1032 N 0.96645 0.04582 0.62047 0.0
N1033 N 0.92384 1.00646 0.62035 0.0
C1034 C 0.94771 0.9941 0.65055 0.0
C1035 C 0.97078 0.01541 0.65057 0.0
C1036 C 0.34009 0.18527 0.27656 0.0
C1037 C 0.32544 0.19547 0.23673 0.0
C1038 C 0.34688 0.21169 0.2977 0.0
C1039 C 0.33793 0.2501 0.28094 0.0
H1040 H 0.34514 0.15691 0.29221 0.0
H1041 H 0.35736 0.20211 0.32894 0.0
S1042 S 0.30378 0.28874 0.17326 0.0
N1043 N 0.30651 0.24432 0.17807 0.0
N1044 N 0.31688 0.29481 0.21841 0.0
C1045 C 0.32495 0.25981 0.2396 0.0
C1046 C 0.31916 0.23239 0.21752 0.0
C1047 C 0.91766 0.38504 0.22289 0.0
C1048 C 0.9512 0.35474 0.21746 0.0
C1049 C 0.88504 0.37976 0.24416 0.0
C1050 C 0.88422 0.34425 0.26347 0.0
H1051 H 0.9163 0.41326 0.20964 0.0
H1052 H 0.86001 0.40396 0.24552 0.0
S1053 S 0.96198 0.25431 0.25062 0.0
N1054 N 0.97964 0.28675 0.22801 0.0
N1055 N 0.91899 0.27734 0.26894 0.0
C1056 C 0.9172 0.3135 0.25733 0.0
C1057 C 0.95043 0.31866 0.23465 0.0
C1058 C 0.85681 0.89779 0.14896 0.0
C1059 C 0.83449 0.93592 0.14635 0.0
C1060 C 0.85491 0.87387 0.18739 0.0
C1061 C 0.83115 0.88685 0.22522 0.0
H1062 H 0.87595 0.88626 0.12099 0.0
H1063 H 0.87284 0.84492 0.18765 0.0
S1064 S 0.76508 0.98373 0.23513 0.0
N1065 N 0.7865 0.98545 0.18479 0.0
N1066 N 0.78289 0.93992 0.25679 0.0
C1067 C 0.8078 0.9246 0.22286 0.0
C1068 C 0.80954 0.94922 0.18351 0.0
C1069 C 0.10406 0.8846 0.12858 0.0
C1070 C 0.10095 0.89584 0.08379 0.0
C1071 C 0.13749 0.8759 0.14497 0.0
C1072 C 0.1687 0.87823 0.11696 0.0
H1073 H 0.08168 0.87886 0.15 0.0
H1074 H 0.13974 0.86404 0.17867 0.0
S1075 S 0.17258 0.91293 0.999 0.0
N1076 N 0.13022 0.91354 1.01335 0.0
N1077 N 0.19264 0.89831 0.04401 0.0
C1078 C 0.16463 0.89345 0.07331 0.0
C1079 C 0.13085 0.90196 0.05675 0.0
C1080 C 0.25837 0.98694 0.10041 0.0
C1081 C 0.24657 0.02383 0.07978 0.0
C1082 C 0.26999 0.95571 0.07618 0.0
C1083 C 0.27025 0.96042 0.03045 0.0
H1084 H 0.26201 0.98241 0.13478 0.0
H1085 H 0.28215 0.92792 0.09261 0.0
S1086 S 0.23692 0.05092 0.96204 0.0
N1087 N 0.23156 0.06321 1.01218 0.0
N1088 N 0.25346 1.00439 0.96633 0.0
C1089 C 0.25468 0.99692 1.01023 0.0
C1090 C 0.24278 0.02876 0.03503 0.0
C1091 C 0.19072 0.37859 0.9615 0.0
C1092 C 0.18202 0.34879 0.98807 0.0
C1093 C 0.21742 0.37231 0.92431 0.0
C1094 C 0.23893 0.33593 0.91305 0.0
H1095 H 0.17621 0.40746 0.96849 0.0
H1096 H 0.22018 0.39641 0.9033 0.0
S1097 S 0.22473 0.24788 0.96593 0.0
N1098 N 0.19524 0.28089 0.99568 0.0
N1099 N 0.24648 0.26974 0.92782 0.0
C1100 C 0.23028 0.30583 0.93833 0.0
C1101 C 0.20212 0.31203 0.9755 0.0
C1102 C 0.79494 0.19028 0.93544 0.0
C1103 C 0.81965 0.15999 0.91242 0.0
C1104 C 0.79242 0.22798 0.92182 0.0
C1105 C 0.81394 0.23746 0.88411 0.0
H1106 H 0.77711 0.18505 0.96416 0.0
H1107 H 0.77319 0.25003 0.94091 0.0
S1108 S 0.88442 0.16876 0.81346 0.0
N1109 N 0.86749 0.14247 0.85118 0.0
N1110 N 0.86196 0.21242 0.82543 0.0
C1111 C 0.83889 0.20738 0.86121 0.0
C1112 C 0.84179 0.16905 0.87521 0.0
C1113 C 0.92427 0.80895 0.94474 0.0
C1114 C 0.95882 0.80442 0.9205 0.0
C1115 C 0.89395 0.81167 0.92423 0.0
C1116 C 0.89665 0.81006 0.87846 0.0
H1117 H 0.92088 0.80936 0.97996 0.0
H1118 H 0.86813 0.81518 0.94465 0.0
S1119 S 0.98076 0.80129 0.7998 0.0
N1120 N 0.9933 0.80089 0.84785 0.0
N1121 N 0.93735 0.80505 0.80978 0.0
C1122 C 0.93103 0.80637 0.85393 0.0
C1123 C 0.9617 0.80378 0.87475 0.0
C1124 C 0.16943 0.31958 0.25555 0.0
C1125 C 0.16664 0.33505 0.21166 0.0
C1126 C 0.19665 0.32152 0.27883 0.0
C1127 C 0.22245 0.33907 0.25951 0.0
H1128 H 0.14968 0.30712 0.27257 0.0
H1129 H 0.197 0.30959 0.31264 0.0
S1130 S 0.22817 0.38102 0.1437 0.0
N1131 N 0.19314 0.36646 0.14918 0.0
N1132 N 0.24355 0.37002 0.19176 0.0
C1133 C 0.22021 0.35352 0.21511 0.0
C1134 C 0.19266 0.35153 0.19167 0.0
C1135 C 0.17071 0.82357 0.92429 0.0
C1136 C 0.16267 0.79306 0.95039 0.0
C1137 C 0.20611 0.82045 0.90234 0.0
C1138 C 0.236 0.78635 0.90414 0.0
H1139 H 0.14915 0.85062 0.92035 0.0
H1140 H 0.20996 0.84515 0.88332 0.0
S1141 S 0.2319 0.69791 0.96947 0.0
N1142 N 0.18946 0.72753 0.97793 0.0
N1143 N 0.25545 0.72168 0.93701 0.0
C1144 C 0.22901 0.7559 0.93145 0.0
C1145 C 0.19273 0.75912 0.95413 0.0
C1146 C 0.34609 0.15776 0.98863 0.0
C1147 C 0.32685 0.17176 0.02873 0.0
C1148 C 0.34877 0.18239 0.94998 0.0
C1149 C 0.33275 0.22203 0.94999 0.0
H1150 H 0.35807 0.12763 0.9867 0.0
H1151 H 0.36344 0.17032 0.91995 0.0
S1152 S 0.27869 0.27282 0.04659 0.0
N1153 N 0.29186 0.22804 0.0655 0.0
N1154 N 0.29593 0.2733 0.9945 0.0
C1155 C 0.3138 0.23598 0.99022 0.0
C1156 C 0.31114 0.21122 0.02898 0.0
C1157 C 0.0396 0.29182 0.03918 0.0
C1158 C 0.03787 0.27118 0.08066 0.0
C1159 C 1.01243 0.29971 1.01147 0.0
C1160 C 0.98278 0.28668 0.02353 0.0
H1161 H 0.06046 0.30455 0.0294 0.0
H1162 H 1.01313 0.31856 0.98193 0.0
S1163 S 0.96742 0.22779 0.12563 0.0
N1164 N 1.00542 0.23483 0.12999 0.0
N1165 N 0.95491 0.24967 0.07794 0.0
C1166 C 0.9823 0.2636 0.06309 0.0
C1167 C 1.00968 0.25579 0.09152 0.0
C1168 C 0.80406 0.92593 0.93731 0.0
C1169 C 0.78246 0.96447 0.93759 0.0
C1170 C 0.80281 0.90363 0.90599 0.0
C1171 C 0.77939 0.91811 0.87338 0.0
H1172 H 0.82359 0.91298 0.96059 0.0
H1173 H 0.82161 0.87516 0.90674 0.0
S1174 S 0.71545 0.01682 0.86016 0.0
N1175 N 0.7357 0.01597 0.90278 0.0
N1176 N 0.73289 0.9738 0.84425 0.0
C1177 C 0.75657 0.95634 0.87404 0.0
C1178 C 0.75792 0.97937 0.90616 0.0
C1179 C 0.98728 0.75723 0.17742 0.0
C1180 C 0.98487 0.7924 0.1538 0.0
C1181 C 0.96532 0.75449 0.21854 0.0
C1182 C 0.93778 0.78625 0.23656 0.0
H1183 H 1.00556 0.7316 0.16372 0.0
H1184 H 0.96969 0.72705 0.23618 0.0
S1185 S 0.93341 0.88451 0.19858 0.0
N1186 N 0.96098 0.85976 0.15924 0.0
N1187 N 0.92108 0.85397 0.23525 0.0
C1188 C 0.9393 0.82136 0.2164 0.0
C1189 C 0.96177 0.82444 0.1751 0.0
C1190 C 0.31445 0.9787 0.25533 0.0
C1191 C 0.33623 0.98763 0.21722 0.0
C1192 C 0.31709 0.94132 0.27067 0.0
C1193 C 0.34229 0.91048 0.24948 0.0
H1194 H 0.29403 1.00095 0.2731 0.0
H1195 H 0.29839 0.9368 0.29877 0.0
S1196 S 0.40697 0.91705 0.14948 0.0
N1197 N 0.38467 0.96143 0.15927 0.0
N1198 N 0.39013 0.89135 0.18854 0.0
C1199 C 0.36494 0.91868 0.21201 0.0
C1200 C 0.36203 0.95697 0.19603 0.0
C1201 C 0.75184 0.15172 0.10129 0.0
C1202 C 0.78318 0.1193 0.10369 0.0
C1203 C 0.74869 0.18458 0.11963 0.0
C1204 C 0.77706 0.18684 0.14033 0.0
H1205 H 0.73056 0.15252 0.08304 0.0
H1206 H 0.72437 0.20904 0.11568 0.0
S1207 S 0.86238 0.10716 0.16118 0.0
N1208 N 0.84052 0.08949 0.13472 0.0
N1209 N 0.83601 0.15144 0.16559 0.0
C1210 C 0.80722 0.15349 0.14576 0.0
C1211 C 0.80992 0.11985 0.12826 0.0
C1212 C 0.6173 0.67239 0.98316 0.0
C1213 C 0.63255 0.64022 0.95999 0.0
C1214 C 0.63667 0.69643 0.98377 0.0
C1215 C 0.67214 0.68925 0.96132 0.0
H1216 H 0.58997 0.67927 1.00067 0.0
H1217 H 0.62364 0.72101 1.00184 0.0
S1218 S 0.72505 0.60779 0.89725 0.0
N1219 N 0.6855 0.60184 0.91484 0.0
N1220 N 0.72218 0.64708 0.91606 0.0
C1221 C 0.68776 0.65723 0.93783 0.0
C1222 C 0.6679 0.6327 0.93716 0.0
C1223 C 0.45338 0.65362 0.80727 0.0
C1224 C 0.46924 0.64069 0.8465 0.0
C1225 C 0.41974 0.68368 0.80559 0.0
C1226 C 0.40015 0.70188 0.84318 0.0
H1227 H 0.46736 0.64083 0.7774 0.0
H1228 H 0.40952 0.69342 0.77422 0.0
S1229 S 0.42645 0.67439 0.95552 0.0
N1230 N 0.46073 0.64617 0.92476 0.0
N1231 N 0.39726 0.70124 0.92175 0.0
C1232 C 0.41494 0.68807 0.88291 0.0
C1233 C 0.44943 0.65791 0.88453 0.0
C1234 C 0.45579 0.47189 0.98924 0.0
C1235 C 0.47716 0.48159 0.95179 0.0
C1236 C 0.43749 0.44694 0.98798 0.0
C1237 C 0.44025 0.43072 0.94924 0.0
H1238 H 0.45473 0.48226 1.02017 0.0
H1239 H 0.42303 0.43842 1.01813 0.0
S1240 S 0.49124 0.44873 0.84163 0.0
N1241 N 0.49836 0.47487 0.87435 0.0
N1242 N 0.46426 0.4278 0.87196 0.0
C1243 C 0.45949 0.44224 0.91084 0.0
C1244 C 0.47799 0.46771 0.91213 0.0
C1245 C 0.66244 0.43727 0.85708 0.0
C1246 C 0.6627 0.47257 0.86472 0.0
C1247 C 0.69529 0.40682 0.84768 0.0
C1248 C 0.7299 0.41001 0.84667 0.0
H1249 H 0.63666 0.43265 0.86024 0.0
H1250 H 0.69346 0.38014 0.84284 0.0
S1251 S 0.74494 0.4978 0.86214 0.0
N1252 N 0.70009 0.50955 0.86879 0.0
N1253 N 0.76133 0.45324 0.85173 0.0
C1254 C 0.73016 0.44578 0.85313 0.0
C1255 C 0.69679 0.47668 0.8621 0.0
C1256 C 0.71123 0.47312 0.25975 0.0
C1257 C 0.68247 0.49187 0.2911 0.0
C1258 C 0.73854 0.43912 0.27104 0.0
C1259 C 0.73878 0.42252 0.31426 0.0
H1260 H 0.71231 0.48411 0.22559 0.0
H1261 H 0.75939 0.42538 0.24552 0.0
S1262 S 0.67194 0.46013 0.40976 0.0
N1263 N 0.65714 0.49126 0.36811 0.0
N1264 N 0.70934 0.42748 0.38931 0.0
C1265 C 0.71131 0.44122 0.34647 0.0
C1266 C 0.68294 0.47581 0.3349 0.0
C1267 C 0.69993 0.64036 0.17667 0.0
C1268 C 0.66476 0.6587 0.19716 0.0
C1269 C 0.72842 0.65358 0.17733 0.0
C1270 C 0.72265 0.68619 0.19775 0.0
H1271 H 0.70561 0.61494 0.16117 0.0
H1272 H 0.75538 0.63762 0.1623 0.0
S1273 S 0.63409 0.7455 0.25364 0.0
N1274 N 0.62489 0.71095 0.23771 0.0
N1275 N 0.67797 0.73747 0.23713 0.0
C1276 C 0.68714 0.70519 0.2177 0.0
C1277 C 0.6583 0.69107 0.21777 0.0
C1278 C 0.48436 0.69632 0.30944 0.0
C1279 C 0.48329 0.66507 0.29165 0.0
C1280 C 0.45272 0.72862 0.31553 0.0
C1281 C 0.41904 0.73103 0.30347 0.0
H1282 H 0.51009 0.69658 0.31661 0.0
H1283 H 0.45508 0.75241 0.32818 0.0
S1284 S 0.4017 0.65359 0.26169 0.0
N1285 N 0.44567 0.63662 0.26651 0.0
N1286 N 0.38671 0.69651 0.27741 0.0
C1287 C 0.41769 0.69884 0.28775 0.0
C1288 C 0.44966 0.66614 0.28198 0.0
C1289 C 0.48015 0.49967 0.2582 0.0
C1290 C 0.50356 0.50336 0.2196 0.0
C1291 C 0.45067 0.48756 0.25776 0.0
C1292 C 0.44339 0.47899 0.21863 0.0
H1293 H 0.48461 0.50627 0.28893 0.0
H1294 H 0.43275 0.48611 0.28796 0.0
S1295 S 0.49672 0.48323 0.10894 0.0
N1296 N 0.5173 0.49728 0.14125 0.0
N1297 N 0.46281 0.47345 0.14078 0.0
C1298 C 0.46709 0.48167 0.1801 0.0
C1299 C 0.49692 0.49411 0.18048 0.0
C1300 C 0.86398 0.67816 0.74869 0.0
C1301 C 0.84302 0.68311 0.71444 0.0
C1302 C 0.858 0.70707 0.77534 0.0
C1303 C 0.83146 0.74306 0.76854 0.0
H1304 H 0.88531 0.65139 0.75525 0.0
H1305 H 0.87472 0.70121 0.80152 0.0
S1306 S 0.76977 0.77161 0.68206 0.0
N1307 N 0.79473 0.72727 0.67466 0.0
N1308 N 0.78381 0.78177 0.72414 0.0
C1309 C 0.81034 0.74864 0.73411 0.0
C1310 C 0.81605 0.71874 0.70728 0.0
C1311 C 0.46835 0.77399 0.75159 0.0
C1312 C 0.47612 0.79527 0.71205 0.0
C1313 C 0.43209 0.77611 0.76997 0.0
C1314 C 0.40076 0.80021 0.75079 0.0
H1315 H 0.49067 0.75476 0.76846 0.0
H1316 H 0.42879 0.75793 0.79924 0.0
S1317 S 0.40453 0.86085 0.64611 0.0
N1318 N 0.44788 0.84095 0.65406 0.0
N1319 N 0.38092 0.84444 0.68798 0.0
C1320 C 0.40808 0.82157 0.71129 0.0
C1321 C 0.44503 0.8196 0.69252 0.0
C1322 C 0.32931 0.44777 0.70307 0.0
C1323 C 0.32275 0.44471 0.66095 0.0
C1324 C 0.32666 0.42081 0.73871 0.0
C1325 C 0.31794 0.38888 0.734 0.0
H1326 H 0.33653 0.47135 0.70852 0.0
H1327 H 0.33206 0.42494 0.77018 0.0
S1328 S 0.30207 0.3662 0.62865 0.0
N1329 N 0.30882 0.40677 0.61584 0.0
N1330 N 0.30521 0.35547 0.68156 0.0
C1331 C 0.31195 0.38542 0.69151 0.0
C1332 C 0.314 0.41336 0.65547 0.0
C1333 C 0.61599 0.35776 0.58011 0.0
C1334 C 0.5981 0.33561 0.60795 0.0
C1335 C 0.64739 0.36203 0.59112 0.0
C1336 C 0.66237 0.34426 0.63035 0.0
H1337 H 0.60752 0.36939 0.54815 0.0
H1338 H 0.66127 0.37771 0.56744 0.0
S1339 S 0.62241 0.28762 0.71714 0.0
N1340 N 0.595 0.29954 0.67885 0.0
N1341 N 0.65398 0.30686 0.69888 0.0
C1342 C 0.64279 0.32474 0.65997 0.0
C1343 C 0.61082 0.32054 0.64887 0.0
C1344 C 0.81887 0.52552 0.52242 0.0
C1345 C 0.81183 0.53423 0.56634 0.0
C1346 C 0.816 0.49257 0.51095 0.0
C1347 C 0.80629 0.46664 0.54302 0.0
H1348 H 0.82933 0.54297 0.49697 0.0
H1349 H 0.82436 0.48594 0.47725 0.0
S1350 S 0.77936 0.47891 0.66185 0.0
N1351 N 0.79037 0.5163 0.64128 0.0
N1352 N 0.78459 0.45468 0.61996 0.0
C1353 C 0.79585 0.47677 0.58651 0.0
C1354 C 0.79861 0.51049 0.59811 0.0
C1355 C 0.75057 0.7676 0.47021 0.0
C1356 C 0.71477 0.79435 0.47867 0.0
C1357 C 0.77553 0.77184 0.43254 0.0
C1358 C 0.76654 0.80315 0.40075 0.0
H1359 H 0.75982 0.74296 0.49312 0.0
H1360 H 0.80223 0.75032 0.4284 0.0
S1361 S 0.67675 0.88105 0.40462 0.0
N1362 N 0.67219 0.85337 0.44967 0.0
N1363 N 0.71844 0.86088 0.38001 0.0
C1364 C 0.73088 0.82981 0.40834 0.0
C1365 C 0.70548 0.82574 0.44683 0.0
C1366 C 0.32745 0.6844 0.38539 0.0
C1367 C 0.3128 0.67575 0.42874 0.0
C1368 C 0.32363 0.72188 0.36797 0.0
C1369 C 0.30487 0.75298 0.39248 0.0
H1370 H 0.34232 0.66194 0.36463 0.0
H1371 H 0.33599 0.72643 0.33517 0.0
S1372 S 0.26246 0.74638 0.50832 0.0
N1373 N 0.27949 0.70222 0.49625 0.0
N1374 N 0.27169 0.77191 0.46332 0.0
C1375 C 0.28969 0.74474 0.43572 0.0
C1376 C 0.2937 0.70658 0.45371 0.0
C1377 C 0.43924 0.28 0.45418 0.0
C1378 C 0.45555 0.30752 0.45347 0.0
C1379 C 0.41151 0.28494 0.42836 0.0
C1380 C 0.39852 0.31748 0.39952 0.0
H1381 H 0.44778 0.25403 0.47535 0.0
H1382 H 0.40035 0.26265 0.43082 0.0
S1383 S 0.43097 0.39886 0.38418 0.0
N1384 N 0.45575 0.36928 0.42082 0.0
N1385 N 0.40405 0.37828 0.37201 0.0
C1386 C 0.41453 0.34533 0.3979 0.0
C1387 C 0.44268 0.34053 0.42489 0.0
C1388 C 0.66008 0.82796 0.75465 0.0
C1389 C 0.65594 0.84056 0.71026 0.0
C1390 C 0.68644 0.83364 0.77543 0.0
C1391 C 0.71075 0.85163 0.75281 0.0
H1392 H 0.64336 0.81257 0.77344 0.0
H1393 H 0.6887 0.82211 0.8092 0.0
S1394 S 0.70997 0.89169 0.63622 0.0
N1395 N 0.67716 0.87358 0.64484 0.0
N1396 N 0.72687 0.88376 0.68318 0.0
C1397 C 0.7059 0.86557 0.70869 0.0
C1398 C 0.67857 0.86021 0.6877 0.0
C1399 C 0.70635 0.25223 0.45762 0.0
C1400 C 0.67234 0.27814 0.44715 0.0
C1401 C 0.73947 0.25825 0.44072 0.0
C1402 C 0.74057 0.28959 0.41094 0.0
H1403 H 0.70733 0.22733 0.4798 0.0
H1404 H 0.76471 0.23767 0.45052 0.0
S1405 S 0.65911 0.36714 0.3746 0.0
N1406 N 0.64186 0.33747 0.40642 0.0
N1407 N 0.70384 0.3484 0.37445 0.0
C1408 C 0.7067 0.31613 0.40081 0.0
C1409 C 0.6728 0.31038 0.41871 0.0
C1410 C 0.925 0.66254 0.46022 0.0
C1411 C 0.8978 0.64763 0.47994 0.0
C1412 C 0.92118 0.6858 0.42054 0.0
C1413 C 0.88988 0.69527 0.39922 0.0
H1414 H 0.9484 0.65791 0.47678 0.0
H1415 H 0.94175 0.69853 0.40809 0.0
S1416 S 0.8151 0.65598 0.43235 0.0
N1417 N 0.84183 0.63841 0.47135 0.0
N1418 N 0.83441 0.68216 0.39722 0.0
C1419 C 0.8644 0.67728 0.41637 0.0
C1420 C 0.86825 0.65374 0.45681 0.0
C1421 C 0.51442 0.82327 0.51196 0.0
C1422 C 0.52266 0.84967 0.5315 0.0
C1423 C 0.47996 0.83109 0.49975 0.0
C1424 C 0.45209 0.8661 0.50536 0.0
H1425 H 0.53409 0.79522 0.50812 0.0
H1426 H 0.47475 0.80844 0.48815 0.0
S1427 S 0.4617 0.94789 0.5468 0.0
N1428 N 0.50151 0.91392 0.55122 0.0
N1429 N 0.43697 0.92968 0.52563 0.0
C1430 C 0.46084 0.89407 0.52135 0.0
C1431 C 0.49603 0.88568 0.53487 0.0
C1432 C 0.30348 0.42838 0.45569 0.0
C1433 C 0.28258 0.46718 0.45397 0.0
C1434 C 0.29924 0.40447 0.42846 0.0
C1435 C 0.274 0.41803 0.39782 0.0
H1436 H 0.32436 0.41635 0.4774 0.0
H1437 H 0.31732 0.37556 0.43022 0.0
S1438 S 0.20933 0.5162 0.38339 0.0
N1439 N 0.23307 0.51726 0.42171 0.0
N1440 N 0.22531 0.47234 0.37025 0.0
C1441 C 0.25127 0.45623 0.39761 0.0
C1442 C 0.25544 0.48072 0.42569 0.0
C1443 C 0.42537 0.28819 0.68894 0.0
C1444 C 0.46261 0.26598 0.68833 0.0
C1445 C 0.4008 0.29155 0.72815 0.0
C1446 C 0.4123 0.2735 0.76893 0.0
H1447 H 0.415 0.30256 0.65866 0.0
H1448 H 0.3726 0.30845 0.7261 0.0
S1449 S 0.50726 0.21274 0.78547 0.0
N1450 N 0.50983 0.22584 0.73232 0.0
N1451 N 0.46408 0.23274 0.80557 0.0
C1452 C 0.44959 0.2515 0.76864 0.0
C1453 C 0.4745 0.24755 0.72864 0.0
C1454 C 0.84297 0.45758 0.75897 0.0
C1455 C 0.86898 0.46093 0.72317 0.0
C1456 C 0.83568 0.42385 0.77071 0.0
C1457 C 0.85505 0.39164 0.74852 0.0
H1458 H 0.82773 0.48143 0.77761 0.0
H1459 H 0.81483 0.42299 0.79742 0.0
S1460 S 0.92399 0.38661 0.65032 0.0
N1461 N 0.91228 0.43011 0.6635 0.0
N1462 N 0.89966 0.36623 0.6868 0.0
C1463 C 0.88037 0.39502 0.71182 0.0
C1464 C 0.88723 0.42966 0.6991 0.0
C1465 C 0.25404 0.63677 0.65047 0.0
C1466 C 0.24307 0.63494 0.61044 0.0
C1467 C 0.2448 0.67111 0.66799 0.0
C1468 C 0.22452 0.70517 0.64594 0.0
H1469 H 0.27193 0.61168 0.66708 0.0
H1470 H 0.25518 0.67113 0.69804 0.0
S1471 S 0.18432 0.71483 0.54336 0.0
N1472 N 0.20693 0.66923 0.55201 0.0
N1473 N 0.18991 0.73427 0.58439 0.0
C1474 C 0.21056 0.70336 0.60782 0.0
C1475 C 0.21977 0.66808 0.59018 0.0
loop_
_geom_bond_atom_site_label_1
_geom_bond_atom_site_label_2
_geom_bond_distance
_geom_bond_site_symmetry_2
_ccdc_geom_bond_type
Cu0 N1 1.999 . S
Cu0 O6 1.974 . S
Cu0 N11 1.985 . S
Cu0 O20 1.959 1_455 S
N1 Cu0 1.999 . S
N1 C3 1.263 . S
N1 C5 1.389 . S
N2 C3 1.358 . S
N2 C4 1.400 . S
C3 N1 1.263 . S
C3 N2 1.358 . S
C3 H9 0.930 . S
C4 N2 1.400 . S
C4 C5 1.351 . S
C4 H21 0.930 . S
C5 N1 1.389 . S
C5 C4 1.351 . S
C5 H10 0.930 . S
O6 Cu0 1.974 . S
O6 C16 1.282 1_545 S
C7 O8 1.249 1_655 S
C7 O20 1.251 . S
O8 C7 1.249 1_455 S
H9 C3 0.930 . S
H10 C5 0.930 . S
N11 Cu0 1.985 . S
N11 C13 1.335 1_455 S
N11 C14 1.390 1_545 S
N12 C13 1.345 1_565 S
N12 C15 1.336 1_655 S
C13 N11 1.335 1_655 S
C13 N12 1.345 1_545 S
C13 H18 0.930 . S
C14 N11 1.390 1_565 S
C14 C15 1.346 . S
C14 H19 0.930 . S
C15 N12 1.336 1_455 S
C15 C14 1.346 . S
C15 H22 0.929 . S
C16 O6 1.282 1_565 S
C16 O17 1.216 1_565 S
O17 C16 1.216 1_545 S
H18 C13 0.930 . S
H19 C14 0.930 . S
O20 Cu0 1.959 1_655 S
O20 C7 1.251 . S
H21 C4 0.930 . S
H22 C15 0.929 . S
Cu23 N24 1.999 . S
Cu23 O29 1.974 1_455 S
Cu23 N34 1.985 . S
Cu23 O43 1.959 . S
N24 Cu23 1.999 . S
N24 C26 1.263 1_455 S
N24 C28 1.389 1_545 S
N25 C26 1.358 . S
N25 C27 1.400 1_545 S
C26 N24 1.263 1_655 S
C26 N25 1.358 . S
C26 H32 0.930 . S
C27 N25 1.400 1_565 S
C27 C28 1.351 1_655 S
C27 H44 0.930 . S
C28 N24 1.389 1_565 S
C28 C27 1.351 1_455 S
C28 H33 0.930 . S
O29 Cu23 1.974 1_655 S
O29 C39 1.282 . S
C30 O31 1.261 . S
C30 O43 1.251 . S
O31 C30 1.261 . S
H32 C26 0.930 . S
H33 C28 0.930 . S
N34 Cu23 1.985 . S
N34 C36 1.335 . S
N34 C37 1.390 . S
N35 C36 1.345 . S
N35 C38 1.336 . S
C36 N34 1.335 . S
C36 N35 1.345 . S
C36 H41 0.930 . S
C37 N34 1.390 . S
C37 C38 1.346 . S
C37 H42 0.930 . S
C38 N35 1.336 . S
C38 C37 1.346 . S
C38 H45 0.929 . S
C39 O29 1.282 . S
C39 O40 1.216 . S
O40 C39 1.216 . S
H41 C36 0.930 . S
H42 C37 0.930 . S
O43 Cu23 1.959 . S
O43 C30 1.251 . S
H44 C27 0.930 . S
H45 C38 0.929 . S
Cu46 N47 1.999 . S
Cu46 O52 1.974 . S
Cu46 N57 1.985 . S
Cu46 O66 1.959 . S
N47 Cu46 1.999 . S
N47 C49 1.263 . S
N47 C51 1.389 . S
N48 C49 1.358 . S
N48 C50 1.400 . S
C49 N47 1.263 . S
C49 N48 1.358 . S
C49 H55 0.930 . S
C50 N48 1.400 . S
C50 C51 1.351 . S
C50 H67 0.930 1_554 S
C51 N47 1.389 . S
C51 C50 1.351 . S
C51 H56 0.930 . S
O52 Cu46 1.974 . S
O52 C62 1.282 . S
C53 O54 1.261 . S
C53 O66 1.251 . S
O54 C53 1.261 . S
H55 C49 0.930 . S
H56 C51 0.930 . S
N57 Cu46 1.985 . S
N57 C59 1.335 . S
N57 C60 1.390 . S
N58 C59 1.345 . S
N58 C61 1.336 . S
C59 N57 1.335 . S
C59 N58 1.345 . S
C59 H64 0.930 . S
C60 N57 1.390 . S
C60 C61 1.346 . S
C60 H65 0.930 . S
C61 N58 1.336 . S
C61 C60 1.346 . S
C61 H68 0.929 . S
C62 O52 1.282 . S
C62 O63 1.216 . S
O63 C62 1.216 . S
H64 C59 0.930 . S
H65 C60 0.930 . S
O66 Cu46 1.959 . S
O66 C53 1.251 . S
H67 C50 0.930 1_556 S
H68 C61 0.929 . S
Cu69 N70 1.999 . S
Cu69 O75 1.974 . S
Cu69 N80 1.985 . S
Cu69 O89 1.959 . S
N70 Cu69 1.999 . S
N70 C72 1.263 . S
N70 C74 1.389 . S
N71 C72 1.358 . S
N71 C73 1.400 1_554 S
C72 N70 1.263 . S
C72 N71 1.358 . S
C72 H78 0.930 . S
C73 N71 1.400 1_556 S
C73 C74 1.351 1_556 S
C73 H90 0.930 . S
C74 N70 1.389 . S
C74 C73 1.351 1_554 S
C74 H79 0.921 1_554 S
O75 Cu69 1.974 . S
O75 C85 1.282 . S
C76 O77 1.261 . S
C76 O89 1.251 . S
O77 C76 1.261 . S
H78 C72 0.930 . S
H79 C74 0.921 1_556 S
N80 Cu69 1.985 . S
N80 C82 1.335 . S
N80 C83 1.390 . S
N81 C82 1.345 1_655 S
N81 C84 1.336 1_655 S
C82 N80 1.335 . S
C82 N81 1.345 1_455 S
C82 H87 0.930 1_455 S
C83 N80 1.390 . S
C83 C84 1.346 . S
C83 H88 0.930 . S
C84 N81 1.336 1_455 S
C84 C83 1.346 . S
C84 H91 0.929 . S
C85 O75 1.282 . S
C85 O86 1.216 . S
O86 C85 1.216 . S
H87 C82 0.930 1_655 S
H88 C83 0.930 . S
O89 Cu69 1.959 . S
O89 C76 1.251 . S
H90 C73 0.930 . S
H91 C84 0.929 . S
Cu92 N93 1.999 1_554 S
Cu92 O98 1.974 . S
Cu92 N103 1.985 1_545 S
Cu92 O112 1.959 1_544 S
N93 Cu92 1.999 1_556 S
N93 C95 1.263 . S
N93 C97 1.389 . S
N94 C95 1.358 . S
N94 C96 1.400 . S
C95 N93 1.263 . S
C95 N94 1.358 . S
C95 H101 0.930 . S
C96 N94 1.400 . S
C96 C97 1.351 . S
C96 H113 0.930 . S
C97 N93 1.389 . S
C97 C96 1.351 . S
C97 H102 0.930 . S
O98 Cu92 1.974 . S
O98 C108 1.282 . S
C99 O100 1.261 . S
C99 O112 1.251 . S
O100 C99 1.261 . S
H101 C95 0.930 . S
H102 C97 0.930 . S
N103 Cu92 1.985 1_565 S
N103 C105 1.335 . S
N103 C106 1.390 . S
N104 C105 1.345 . S
N104 C107 1.336 . S
C105 N103 1.335 . S
C105 N104 1.345 . S
C105 H110 0.930 . S
C106 N103 1.390 . S
C106 C107 1.346 . S
C106 H111 0.930 . S
C107 N104 1.336 . S
C107 C106 1.346 . S
C107 H114 0.929 . S
C108 O98 1.282 . S
C108 O109 1.216 . S
O109 C108 1.216 . S
H110 C105 0.930 . S
H111 C106 0.930 . S
O112 Cu92 1.959 1_566 S
O112 C99 1.251 . S
H113 C96 0.930 . S
H114 C107 0.929 . S
Cu115 N116 1.999 1_454 S
Cu115 O121 1.974 1_455 S
Cu115 N126 1.985 . S
Cu115 O135 1.959 1_554 S
N116 Cu115 1.999 1_656 S
N116 C118 1.263 . S
N116 C120 1.389 . S
N117 C118 1.358 . S
N117 C119 1.400 . S
C118 N116 1.263 . S
C118 N117 1.358 . S
C118 H124 0.930 . S
C119 N117 1.400 . S
C119 C120 1.351 . S
C119 H136 0.930 . S
C120 N116 1.389 . S
C120 C119 1.351 . S
C120 H125 0.930 1_655 S
O121 Cu115 1.974 1_655 S
O121 C131 1.282 . S
C122 O123 1.261 . S
C122 O135 1.251 . S
O123 C122 1.261 . S
H124 C118 0.930 . S
H125 C120 0.930 1_455 S
N126 Cu115 1.985 . S
N126 C128 1.335 . S
N126 C129 1.390 . S
N127 C128 1.345 . S
N127 C130 1.336 . S
C128 N126 1.335 . S
C128 N127 1.345 . S
C128 H133 0.930 . S
C129 N126 1.390 . S
C129 C130 1.346 . S
C129 H134 0.930 1_455 S
C130 N127 1.336 . S
C130 C129 1.346 . S
C130 H137 0.929 . S
C131 O121 1.282 . S
C131 O132 1.216 . S
O132 C131 1.216 . S
H133 C128 0.930 . S
H134 C129 0.930 1_655 S
O135 Cu115 1.959 1_556 S
O135 C122 1.251 . S
H136 C119 0.930 . S
H137 C130 0.929 . S
Cu138 N139 1.999 . S
Cu138 O144 1.974 . S
Cu138 N149 1.985 . S
Cu138 O158 1.959 . S
N139 Cu138 1.999 . S
N139 C141 1.263 . S
N139 C143 1.389 . S
N140 C141 1.358 . S
N140 C142 1.400 . S
C141 N139 1.263 . S
C141 N140 1.358 . S
C141 H147 0.930 . S
C142 N140 1.400 . S
C142 C143 1.351 . S
C142 H159 0.930 . S
C143 N139 1.389 . S
C143 C142 1.351 . S
C143 H148 0.930 . S
O144 Cu138 1.974 . S
O144 C154 1.282 . S
C145 O146 1.261 . S
C145 O158 1.251 . S
O146 C145 1.261 . S
H147 C141 0.930 . S
H148 C143 0.930 . S
N149 Cu138 1.985 . S
N149 C151 1.335 . S
N149 C152 1.390 . S
N150 C151 1.345 . S
N150 C153 1.336 . S
C151 N149 1.335 . S
C151 N150 1.345 . S
C151 H156 0.930 . S
C152 N149 1.390 . S
C152 C153 1.346 . S
C152 H157 0.930 . S
C153 N150 1.336 . S
C153 C152 1.346 . S
C153 H160 0.929 . S
C154 O144 1.282 . S
C154 O155 1.216 . S
O155 C154 1.216 . S
H156 C151 0.930 . S
H157 C152 0.930 . S
O158 Cu138 1.959 . S
O158 C145 1.251 . S
H159 C142 0.930 . S
H160 C153 0.929 . S
Cu161 N162 1.999 . S
Cu161 O167 1.974 . S
Cu161 N172 1.985 . S
Cu161 O181 1.959 . S
N162 Cu161 1.999 . S
N162 C164 1.263 . S
N162 C166 1.389 . S
N163 C164 1.358 . S
N163 C165 1.400 . S
C164 N162 1.263 . S
C164 N163 1.358 . S
C164 H170 0.930 . S
C165 N163 1.400 . S
C165 C166 1.351 . S
C165 H182 0.930 . S
C166 N162 1.389 . S
C166 C165 1.351 . S
C166 H171 0.930 . S
O167 Cu161 1.974 . S
O167 C177 1.282 . S
C168 O169 1.261 . S
C168 O181 1.251 . S
O169 C168 1.261 . S
H170 C164 0.930 . S
H171 C166 0.930 . S
N172 Cu161 1.985 . S
N172 C174 1.335 . S
N172 C175 1.390 . S
N173 C174 1.345 . S
N173 C176 1.336 . S
C174 N172 1.335 . S
C174 N173 1.345 . S
C174 H179 0.930 . S
C175 N172 1.390 . S
C175 C176 1.346 . S
C175 H180 0.930 . S
C176 N173 1.336 . S
C176 C175 1.346 . S
C176 H183 0.929 . S
C177 O167 1.282 . S
C177 O178 1.216 . S
O178 C177 1.216 . S
H179 C174 0.930 . S
H180 C175 0.930 . S
O181 Cu161 1.959 . S
O181 C168 1.251 . S
H182 C165 0.930 . S
H183 C176 0.929 . S
Cu184 N185 1.999 . S
Cu184 O190 1.974 . S
Cu184 N195 1.985 . S
Cu184 O204 1.959 . S
N185 Cu184 1.999 . S
N185 C187 1.263 . S
N185 C189 1.389 . S
N186 C187 1.358 . S
N186 C188 1.400 . S
C187 N185 1.263 . S
C187 N186 1.358 . S
C187 H193 0.930 . S
C188 N186 1.400 . S
C188 C189 1.351 . S
C188 H205 0.930 . S
C189 N185 1.389 . S
C189 C188 1.351 . S
C189 H194 0.930 . S
O190 Cu184 1.974 . S
O190 C200 1.282 . S
C191 O192 1.261 . S
C191 O204 1.251 . S
O192 C191 1.261 . S
H193 C187 0.930 . S
H194 C189 0.930 . S
N195 Cu184 1.985 . S
N195 C197 1.335 . S
N195 C198 1.390 . S
N196 C197 1.345 . S
N196 C199 1.336 . S
C197 N195 1.335 . S
C197 N196 1.345 . S
C197 H202 0.930 . S
C198 N195 1.390 . S
C198 C199 1.346 . S
C198 H203 0.930 . S
C199 N196 1.336 . S
C199 C198 1.346 . S
C199 H206 0.929 . S
C200 O190 1.282 . S
C200 O201 1.216 . S
O201 C200 1.216 . S
H202 C197 0.930 . S
H203 C198 0.930 . S
O204 Cu184 1.959 . S
O204 C191 1.251 . S
H205 C188 0.930 . S
H206 C199 0.929 . S
Cu207 N208 1.999 . S
Cu207 O213 1.974 . S
Cu207 N218 1.985 . S
Cu207 O227 1.959 . S
N208 Cu207 1.999 . S
N208 C210 1.263 . S
N208 C212 1.389 . S
N209 C210 1.358 . S
N209 C211 1.400 . S
C210 N208 1.263 . S
C210 N209 1.358 . S
C210 H216 0.930 . S
C211 N209 1.400 . S
C211 C212 1.351 . S
C211 H228 0.930 . S
C212 N208 1.389 . S
C212 C211 1.351 . S
C212 H217 0.930 . S
O213 Cu207 1.974 . S
O213 C223 1.282 . S
C214 O215 1.261 . S
C214 O227 1.251 . S
O215 C214 1.261 . S
H216 C210 0.930 . S
H217 C212 0.930 . S
N218 Cu207 1.985 . S
N218 C220 1.335 . S
N218 C221 1.390 . S
N219 C220 1.345 . S
N219 C222 1.336 . S
C220 N218 1.335 . S
C220 N219 1.345 . S
C220 H225 0.930 . S
C221 N218 1.390 . S
C221 C222 1.346 . S
C221 H226 0.930 . S
C222 N219 1.336 . S
C222 C221 1.346 . S
C222 H229 0.929 . S
C223 O213 1.282 . S
C223 O224 1.216 . S
O224 C223 1.216 . S
H225 C220 0.930 . S
H226 C221 0.930 . S
O227 Cu207 1.959 . S
O227 C214 1.251 . S
H228 C211 0.930 . S
H229 C222 0.929 . S
Cu230 N231 1.999 . S
Cu230 O236 1.974 . S
Cu230 N241 1.985 . S
Cu230 O250 1.959 . S
N231 Cu230 1.999 . S
N231 C233 1.263 . S
N231 C235 1.389 . S
N232 C233 1.358 . S
N232 C234 1.400 . S
C233 N231 1.263 . S
C233 N232 1.358 . S
C233 H239 0.930 . S
C234 N232 1.400 . S
C234 C235 1.351 . S
C234 H251 0.930 . S
C235 N231 1.389 . S
C235 C234 1.351 . S
C235 H240 0.930 . S
O236 Cu230 1.974 . S
O236 C246 1.282 . S
C237 O238 1.261 . S
C237 O250 1.251 . S
O238 C237 1.261 . S
H239 C233 0.930 . S
H240 C235 0.930 . S
N241 Cu230 1.985 . S
N241 C243 1.335 . S
N241 C244 1.390 . S
N242 C243 1.345 . S
N242 C245 1.336 . S
C243 N241 1.335 . S
C243 N242 1.345 . S
C243 H248 0.930 . S
C244 N241 1.390 . S
C244 C245 1.346 . S
C244 H249 0.930 . S
C245 N242 1.336 . S
C245 C244 1.346 . S
C245 H252 0.929 . S
C246 O236 1.282 . S
C246 O247 1.216 . S
O247 C246 1.216 . S
H248 C243 0.930 . S
H249 C244 0.930 . S
O250 Cu230 1.959 . S
O250 C237 1.251 . S
H251 C234 0.930 . S
H252 C245 0.929 . S
Cu253 N254 1.999 . S
Cu253 O259 1.974 . S
Cu253 N264 1.985 . S
Cu253 O273 1.959 . S
N254 Cu253 1.999 . S
N254 C256 1.263 . S
N254 C258 1.389 . S
N255 C256 1.358 . S
N255 C257 1.400 . S
C256 N254 1.263 . S
C256 N255 1.358 . S
C256 H262 0.930 . S
C257 N255 1.400 . S
C257 C258 1.351 . S
C257 H274 0.930 . S
C258 N254 1.389 . S
C258 C257 1.351 . S
C258 H263 0.930 . S
O259 Cu253 1.974 . S
O259 C269 1.282 . S
C260 O261 1.261 . S
C260 O273 1.251 . S
O261 C260 1.261 . S
H262 C256 0.930 . S
H263 C258 0.930 . S
N264 Cu253 1.985 . S
N264 C266 1.335 . S
N264 C267 1.390 . S
N265 C266 1.345 . S
N265 C268 1.336 . S
C266 N264 1.335 . S
C266 N265 1.345 . S
C266 H271 0.930 . S
C267 N264 1.390 . S
C267 C268 1.346 . S
C267 H272 0.930 . S
C268 N265 1.336 . S
C268 C267 1.346 . S
C268 H275 0.929 . S
C269 O259 1.282 . S
C269 O270 1.216 . S
O270 C269 1.216 . S
H271 C266 0.930 . S
H272 C267 0.930 . S
O273 Cu253 1.959 . S
O273 C260 1.251 . S
H274 C257 0.930 . S
H275 C268 0.929 . S
Tb276 N307 2.660 . S
Tb276 N314 2.600 . S
Tb276 O320 2.546 . S
Tb276 O321 2.610 . S
Tb276 O323 2.320 . S
Tb276 O324 2.552 . S
Tb276 O325 2.413 . S
Tb276 O327 2.362 . S
Tb276 O328 2.421 . S
Tb276 C340 2.833 . S
C277 C280 1.432 . S
C277 C281 1.414 . S
C277 N284 1.359 . S
C278 C280 1.417 . S
C278 C282 1.432 . S
C278 C290 1.410 . S
C279 C281 1.444 . S
C279 C282 1.317 . S
C279 H302 0.929 . S
C280 C277 1.432 . S
C280 C278 1.417 . S
C280 N288 1.360 . S
C281 C277 1.414 . S
C281 C279 1.444 . S
C281 C286 1.385 . S
C282 C278 1.432 . S
C282 C279 1.317 . S
C282 H294 0.930 . S
C283 C285 1.392 . S
C283 C286 1.370 . S
C283 H295 0.931 . S
N284 C277 1.359 . S
N284 C285 1.327 . S
N284 Tb287 2.600 . S
C285 C283 1.392 . S
C285 N284 1.327 . S
C285 H292 0.930 . S
C286 C281 1.385 . S
C286 C283 1.370 . S
C286 H305 0.930 . S
Tb287 N284 2.600 . S
Tb287 N288 2.660 . S
Tb287 O321 2.362 . S
Tb287 O322 2.421 . S
Tb287 O326 2.546 . S
Tb287 O327 2.610 . S
Tb287 O329 2.320 . S
Tb287 O330 2.552 . S
Tb287 O331 2.413 . S
Tb287 C351 2.833 . S
N288 C280 1.360 . S
N288 Tb287 2.660 . S
N288 C289 1.305 . S
C289 N288 1.305 . S
C289 C291 1.407 . S
C289 H296 0.930 . S
C290 C278 1.410 . S
C290 C291 1.345 . S
C290 H298 0.930 . S
C291 C289 1.407 . S
C291 C290 1.345 . S
C291 H293 0.930 . S
H292 C285 0.930 . S
H293 C291 0.930 . S
H294 C282 0.930 . S
H295 C283 0.931 . S
H296 C289 0.930 . S
H297 C311 0.930 . S
H298 C290 0.930 . S
H299 C317 0.930 . S
H300 C308 0.930 . S
H301 C315 0.931 . S
H302 C279 0.929 . S
H303 C309 0.930 . S
H304 C342 0.930 . S
H305 C286 0.930 . S
H306 C341 0.929 . S
N307 Tb276 2.660 . S
N307 C308 1.305 . S
N307 C312 1.360 . S
C308 H300 0.930 . S
C308 N307 1.305 . S
C308 C311 1.407 . S
C309 H303 0.930 . S
C309 C310 1.410 . S
C309 C311 1.345 . S
C310 C309 1.410 . S
C310 C312 1.417 . S
C310 C342 1.432 . S
C311 H297 0.930 . S
C311 C308 1.407 . S
C311 C309 1.345 . S
C312 N307 1.360 . S
C312 C310 1.417 . S
C312 C316 1.432 . S
H313 C318 0.930 . S
N314 Tb276 2.600 . S
N314 C316 1.359 . S
N314 C317 1.327 . S
C315 H301 0.931 . S
C315 C317 1.392 . S
C315 C318 1.370 . S
C316 C312 1.432 . S
C316 N314 1.359 . S
C316 C319 1.414 . S
C317 H299 0.930 . S
C317 N314 1.327 . S
C317 C315 1.392 . S
C318 H313 0.930 . S
C318 C315 1.370 . S
C318 C319 1.385 . S
C319 C316 1.414 . S
C319 C318 1.385 . S
C319 C341 1.444 . S
O320 Tb276 2.546 . S
O320 C340 1.251 . S
O321 Tb276 2.610 . S
O321 Tb287 2.362 . S
O321 C332 1.283 . S
O322 Tb287 2.421 . S
O322 C339 1.262 . S
O323 Tb276 2.320 . S
O323 C339 1.260 . S
O324 Tb276 2.552 . S
O324 C332 1.243 . S
O325 Tb276 2.413 . S
O325 C340 1.256 . S
O326 Tb287 2.546 . S
O326 C351 1.251 . S
O327 Tb276 2.362 . S
O327 Tb287 2.610 . S
O327 C343 1.283 . S
O328 Tb276 2.421 . S
O328 C350 1.262 . S
O329 Tb287 2.320 . S
O329 C350 1.260 . S
O330 Tb287 2.552 . S
O330 C343 1.243 . S
O331 Tb287 2.413 . S
O331 C351 1.256 . S
C332 O321 1.283 . S
C332 O324 1.243 . S
C333 C335 1.382 . S
C333 C337 1.393 . S
C333 C340 1.500 . S
C334 C335 1.400 . S
C334 C336 1.384 . S
C335 C333 1.382 . S
C335 C334 1.400 . S
C335 H352 0.930 . S
C336 C334 1.384 . S
C336 C338 1.392 . S
C336 H353 0.931 . S
C337 C333 1.393 . S
C337 C338 1.401 . S
C337 H354 0.930 . S
C338 C336 1.392 . S
C338 C337 1.401 . S
C338 H355 0.930 . S
C339 O322 1.262 . S
C339 O323 1.260 . S
C340 Tb276 2.833 . S
C340 O320 1.251 . S
C340 O325 1.256 . S
C340 C333 1.500 . S
C341 H306 0.929 . S
C341 C319 1.444 . S
C341 C342 1.317 . S
C342 H304 0.930 . S
C342 C310 1.432 . S
C342 C341 1.317 . S
C343 O327 1.283 . S
C343 O330 1.243 . S
C344 C345 1.382 . S
C344 C348 1.393 . S
C344 C351 1.500 . S
C345 C344 1.382 . S
C345 C346 1.400 . S
C345 H356 0.930 . S
C346 C345 1.400 . S
C346 C347 1.384 . S
C347 C346 1.384 . S
C347 C349 1.392 . S
C347 H357 0.931 . S
C348 C344 1.393 . S
C348 C349 1.401 . S
C348 H358 0.930 . S
C349 C347 1.392 . S
C349 C348 1.401 . S
C349 H359 0.930 . S
C350 O328 1.262 . S
C350 O329 1.260 . S
C351 Tb287 2.833 . S
C351 O326 1.251 . S
C351 O331 1.256 . S
C351 C344 1.500 . S
H352 C335 0.930 . S
H353 C336 0.931 . S
H354 C337 0.930 . S
H355 C338 0.930 . S
H356 C345 0.930 . S
H357 C347 0.931 . S
H358 C348 0.930 . S
H359 C349 0.930 . S
Tb360 N391 2.660 . S
Tb360 N398 2.600 . S
Tb360 O404 2.546 . S
Tb360 O405 2.610 . S
Tb360 O407 2.320 . S
Tb360 O408 2.552 . S
Tb360 O409 2.413 . S
Tb360 O411 2.362 . S
Tb360 O412 2.421 . S
Tb360 C424 2.833 . S
C361 C364 1.432 . S
C361 C365 1.414 . S
C361 N368 1.359 . S
C362 C364 1.417 . S
C362 C366 1.432 . S
C362 C374 1.410 . S
C363 C365 1.444 . S
C363 C366 1.317 . S
C363 H386 0.929 . S
C364 C361 1.432 . S
C364 C362 1.417 . S
C364 N372 1.360 . S
C365 C361 1.414 . S
C365 C363 1.444 . S
C365 C370 1.385 . S
C366 C362 1.432 . S
C366 C363 1.317 . S
C366 H378 0.930 . S
C367 C369 1.392 . S
C367 C370 1.370 . S
C367 H379 0.931 . S
N368 C361 1.359 . S
N368 C369 1.327 . S
N368 Tb371 2.600 . S
C369 C367 1.392 . S
C369 N368 1.327 . S
C369 H376 0.930 . S
C370 C365 1.385 . S
C370 C367 1.370 . S
C370 H389 0.930 . S
Tb371 N368 2.600 . S
Tb371 N372 2.660 . S
Tb371 O405 2.362 . S
Tb371 O406 2.421 . S
Tb371 O410 2.546 . S
Tb371 O411 2.610 . S
Tb371 O413 2.320 . S
Tb371 O414 2.552 . S
Tb371 O415 2.413 . S
Tb371 C435 2.833 . S
N372 C364 1.360 . S
N372 Tb371 2.660 . S
N372 C373 1.305 . S
C373 N372 1.305 . S
C373 C375 1.407 . S
C373 H380 0.930 . S
C374 C362 1.410 . S
C374 C375 1.345 . S
C374 H382 0.930 . S
C375 C373 1.407 . S
C375 C374 1.345 . S
C375 H377 0.930 . S
H376 C369 0.930 . S
H377 C375 0.930 . S
H378 C366 0.930 . S
H379 C367 0.931 . S
H380 C373 0.930 . S
H381 C395 0.930 . S
H382 C374 0.930 . S
H383 C401 0.930 . S
H384 C392 0.930 . S
H385 C399 0.931 . S
H386 C363 0.929 . S
H387 C393 0.930 . S
H388 C426 0.930 . S
H389 C370 0.930 . S
H390 C425 0.929 . S
N391 Tb360 2.660 . S
N391 C392 1.305 . S
N391 C396 1.360 . S
C392 H384 0.930 . S
C392 N391 1.305 . S
C392 C395 1.407 . S
C393 H387 0.930 . S
C393 C394 1.410 . S
C393 C395 1.345 . S
C394 C393 1.410 . S
C394 C396 1.417 . S
C394 C426 1.432 . S
C395 H381 0.930 . S
C395 C392 1.407 . S
C395 C393 1.345 . S
C396 N391 1.360 . S
C396 C394 1.417 . S
C396 C400 1.432 . S
H397 C402 0.930 . S
N398 Tb360 2.600 . S
N398 C400 1.359 . S
N398 C401 1.327 . S
C399 H385 0.931 . S
C399 C401 1.392 . S
C399 C402 1.370 . S
C400 C396 1.432 . S
C400 N398 1.359 . S
C400 C403 1.414 . S
C401 H383 0.930 . S
C401 N398 1.327 . S
C401 C399 1.392 . S
C402 H397 0.930 . S
C402 C399 1.370 . S
C402 C403 1.385 . S
C403 C400 1.414 . S
C403 C402 1.385 . S
C403 C425 1.444 . S
O404 Tb360 2.546 . S
O404 C424 1.251 . S
O405 Tb360 2.610 . S
O405 Tb371 2.362 . S
O405 C416 1.283 . S
O406 Tb371 2.421 . S
O406 C423 1.262 . S
O407 Tb360 2.320 . S
O407 C423 1.260 . S
O408 Tb360 2.552 . S
O408 C416 1.243 . S
O409 Tb360 2.413 . S
O409 C424 1.256 . S
O410 Tb371 2.546 . S
O410 C435 1.251 . S
O411 Tb360 2.362 . S
O411 Tb371 2.610 . S
O411 C427 1.283 . S
O412 Tb360 2.421 . S
O412 C434 1.262 . S
O413 Tb371 2.320 . S
O413 C434 1.260 . S
O414 Tb371 2.552 . S
O414 C427 1.243 . S
O415 Tb371 2.413 . S
O415 C435 1.256 . S
C416 O405 1.283 . S
C416 O408 1.243 . S
C417 C419 1.382 . S
C417 C421 1.393 . S
C417 C424 1.500 . S
C418 C419 1.400 . S
C418 C420 1.384 . S
C419 C417 1.382 . S
C419 C418 1.400 . S
C419 H436 0.930 . S
C420 C418 1.384 . S
C420 C422 1.392 . S
C420 H437 0.931 . S
C421 C417 1.393 . S
C421 C422 1.401 . S
C421 H438 0.930 . S
C422 C420 1.392 . S
C422 C421 1.401 . S
C422 H439 0.930 . S
C423 O406 1.262 . S
C423 O407 1.260 . S
C424 Tb360 2.833 . S
C424 O404 1.251 . S
C424 O409 1.256 . S
C424 C417 1.500 . S
C425 H390 0.929 . S
C425 C403 1.444 . S
C425 C426 1.317 . S
C426 H388 0.930 . S
C426 C394 1.432 . S
C426 C425 1.317 . S
C427 O411 1.283 . S
C427 O414 1.243 . S
C428 C429 1.382 . S
C428 C432 1.393 . S
C428 C435 1.500 . S
C429 C428 1.382 . S
C429 C430 1.400 . S
C429 H440 0.930 . S
C430 C429 1.400 . S
C430 C431 1.384 . S
C431 C430 1.384 . S
C431 C433 1.392 . S
C431 H441 0.931 . S
C432 C428 1.393 . S
C432 C433 1.401 . S
C432 H442 0.930 . S
C433 C431 1.392 . S
C433 C432 1.401 . S
C433 H443 0.930 . S
C434 O412 1.262 . S
C434 O413 1.260 . S
C435 Tb371 2.833 . S
C435 O410 1.251 . S
C435 O415 1.256 . S
C435 C428 1.500 . S
H436 C419 0.930 . S
H437 C420 0.931 . S
H438 C421 0.930 . S
H439 C422 0.930 . S
H440 C429 0.930 . S
H441 C431 0.931 . S
H442 C432 0.930 . S
H443 C433 0.930 . S
Tb444 N475 2.660 . S
Tb444 N482 2.600 . S
Tb444 O488 2.546 . S
Tb444 O489 2.610 . S
Tb444 O491 2.320 . S
Tb444 O492 2.552 . S
Tb444 O493 2.413 . S
Tb444 O495 2.362 . S
Tb444 O496 2.421 . S
Tb444 C508 2.833 . S
C445 C448 1.432 . S
C445 C449 1.414 . S
C445 N452 1.359 . S
C446 C448 1.417 . S
C446 C450 1.432 . S
C446 C458 1.410 . S
C447 C449 1.444 . S
C447 C450 1.317 . S
C447 H470 0.929 . S
C448 C445 1.432 . S
C448 C446 1.417 . S
C448 N456 1.360 . S
C449 C445 1.414 . S
C449 C447 1.444 . S
C449 C454 1.385 . S
C450 C446 1.432 . S
C450 C447 1.317 . S
C450 H462 0.930 . S
C451 C453 1.392 . S
C451 C454 1.370 . S
C451 H463 0.931 . S
N452 C445 1.359 . S
N452 C453 1.327 . S
N452 Tb455 2.600 . S
C453 C451 1.392 . S
C453 N452 1.327 . S
C453 H460 0.930 . S
C454 C449 1.385 . S
C454 C451 1.370 . S
C454 H473 0.930 . S
Tb455 N452 2.600 . S
Tb455 N456 2.660 . S
Tb455 O489 2.362 . S
Tb455 O490 2.421 . S
Tb455 O494 2.546 . S
Tb455 O495 2.610 . S
Tb455 O497 2.320 . S
Tb455 O498 2.552 . S
Tb455 O499 2.413 . S
Tb455 C519 2.833 . S
N456 C448 1.360 . S
N456 Tb455 2.660 . S
N456 C457 1.305 . S
C457 N456 1.305 . S
C457 C459 1.407 . S
C457 H464 0.930 . S
C458 C446 1.410 . S
C458 C459 1.345 . S
C458 H466 0.930 . S
C459 C457 1.407 . S
C459 C458 1.345 . S
C459 H461 0.930 . S
H460 C453 0.930 . S
H461 C459 0.930 . S
H462 C450 0.930 . S
H463 C451 0.931 . S
H464 C457 0.930 . S
H465 C479 0.930 . S
H466 C458 0.930 . S
H467 C485 0.930 . S
H468 C476 0.930 . S
H469 C483 0.931 . S
H470 C447 0.929 . S
H471 C477 0.930 . S
H472 C510 0.930 . S
H473 C454 0.930 . S
H474 C509 0.929 . S
N475 Tb444 2.660 . S
N475 C476 1.305 . S
N475 C480 1.360 . S
C476 H468 0.930 . S
C476 N475 1.305 . S
C476 C479 1.407 . S
C477 H471 0.930 . S
C477 C478 1.410 . S
C477 C479 1.345 . S
C478 C477 1.410 . S
C478 C480 1.417 . S
C478 C510 1.432 . S
C479 H465 0.930 . S
C479 C476 1.407 . S
C479 C477 1.345 . S
C480 N475 1.360 . S
C480 C478 1.417 . S
C480 C484 1.432 . S
H481 C486 0.930 . S
N482 Tb444 2.600 . S
N482 C484 1.359 . S
N482 C485 1.327 . S
C483 H469 0.931 . S
C483 C485 1.392 . S
C483 C486 1.370 . S
C484 C480 1.432 . S
C484 N482 1.359 . S
C484 C487 1.414 . S
C485 H467 0.930 . S
C485 N482 1.327 . S
C485 C483 1.392 . S
C486 H481 0.930 . S
C486 C483 1.370 . S
C486 C487 1.385 . S
C487 C484 1.414 . S
C487 C486 1.385 . S
C487 C509 1.444 . S
O488 Tb444 2.546 . S
O488 C508 1.251 . S
O489 Tb444 2.610 . S
O489 Tb455 2.362 . S
O489 C500 1.283 . S
O490 Tb455 2.421 . S
O490 C507 1.262 . S
O491 Tb444 2.320 . S
O491 C507 1.260 . S
O492 Tb444 2.552 . S
O492 C500 1.243 . S
O493 Tb444 2.413 . S
O493 C508 1.256 . S
O494 Tb455 2.546 . S
O494 C519 1.251 . S
O495 Tb444 2.362 . S
O495 Tb455 2.610 . S
O495 C511 1.283 . S
O496 Tb444 2.421 . S
O496 C518 1.262 . S
O497 Tb455 2.320 . S
O497 C518 1.260 . S
O498 Tb455 2.552 . S
O498 C511 1.243 . S
O499 Tb455 2.413 . S
O499 C519 1.256 . S
C500 O489 1.283 . S
C500 O492 1.243 . S
C501 C503 1.382 . S
C501 C505 1.393 . S
C501 C508 1.500 . S
C502 C503 1.400 . S
C502 C504 1.384 . S
C503 C501 1.382 . S
C503 C502 1.400 . S
C503 H520 0.930 . S
C504 C502 1.384 . S
C504 C506 1.392 . S
C504 H521 0.931 . S
C505 C501 1.393 . S
C505 C506 1.401 . S
C505 H522 0.930 . S
C506 C504 1.392 . S
C506 C505 1.401 . S
C506 H523 0.930 . S
C507 O490 1.262 . S
C507 O491 1.260 . S
C508 Tb444 2.833 . S
C508 O488 1.251 . S
C508 O493 1.256 . S
C508 C501 1.500 . S
C509 H474 0.929 . S
C509 C487 1.444 . S
C509 C510 1.317 . S
C510 H472 0.930 . S
C510 C478 1.432 . S
C510 C509 1.317 . S
C511 O495 1.283 . S
C511 O498 1.243 . S
C512 C513 1.382 . S
C512 C516 1.393 . S
C512 C519 1.500 . S
C513 C512 1.382 . S
C513 C514 1.400 . S
C513 H524 0.930 . S
C514 C513 1.400 . S
C514 C515 1.384 . S
C515 C514 1.384 . S
C515 C517 1.392 . S
C515 H525 0.931 . S
C516 C512 1.393 . S
C516 C517 1.401 . S
C516 H526 0.930 . S
C517 C515 1.392 . S
C517 C516 1.401 . S
C517 H527 0.930 . S
C518 O496 1.262 . S
C518 O497 1.260 . S
C519 Tb455 2.833 . S
C519 O494 1.251 . S
C519 O499 1.256 . S
C519 C512 1.500 . S
H520 C503 0.930 . S
H521 C504 0.931 . S
H522 C505 0.930 . S
H523 C506 0.930 . S
H524 C513 0.930 . S
H525 C515 0.931 . S
H526 C516 0.930 . S
H527 C517 0.930 . S
Tb528 N559 2.660 . S
Tb528 N566 2.600 . S
Tb528 O572 2.546 . S
Tb528 O573 2.610 . S
Tb528 O575 2.320 . S
Tb528 O576 2.552 . S
Tb528 O577 2.413 . S
Tb528 O579 2.362 . S
Tb528 O580 2.421 . S
Tb528 C592 2.833 . S
C529 C532 1.432 . S
C529 C533 1.414 . S
C529 N536 1.359 . S
C530 C532 1.417 . S
C530 C534 1.432 . S
C530 C542 1.410 . S
C531 C533 1.444 . S
C531 C534 1.317 . S
C531 H554 0.929 1_565 S
C532 C529 1.432 . S
C532 C530 1.417 . S
C532 N540 1.360 . S
C533 C529 1.414 . S
C533 C531 1.444 . S
C533 C538 1.385 . S
C534 C530 1.432 . S
C534 C531 1.317 . S
C534 H546 0.930 . S
C535 C537 1.392 . S
C535 C538 1.370 . S
C535 H547 0.931 . S
N536 C529 1.359 . S
N536 C537 1.327 . S
N536 Tb539 2.600 . S
C537 C535 1.392 . S
C537 N536 1.327 . S
C537 H544 0.930 . S
C538 C533 1.385 . S
C538 C535 1.370 . S
C538 H557 0.930 . S
Tb539 N536 2.600 . S
Tb539 N540 2.660 . S
Tb539 O573 2.362 . S
Tb539 O574 2.421 . S
Tb539 O578 2.546 . S
Tb539 O579 2.610 . S
Tb539 O581 2.320 . S
Tb539 O582 2.552 . S
Tb539 O583 2.413 . S
Tb539 C603 2.833 . S
N540 C532 1.360 . S
N540 Tb539 2.660 . S
N540 C541 1.305 . S
C541 N540 1.305 . S
C541 C543 1.407 . S
C541 H548 0.930 . S
C542 C530 1.410 . S
C542 C543 1.345 . S
C542 H550 0.930 . S
C543 C541 1.407 . S
C543 C542 1.345 . S
C543 H545 0.930 . S
H544 C537 0.930 . S
H545 C543 0.930 . S
H546 C534 0.930 . S
H547 C535 0.931 . S
H548 C541 0.930 . S
H549 C563 0.930 . S
H550 C542 0.930 . S
H551 C569 0.930 . S
H552 C560 0.930 . S
H553 C567 0.931 . S
H554 C531 0.929 1_545 S
H555 C561 0.930 . S
H556 C594 0.930 . S
H557 C538 0.930 . S
H558 C593 0.929 . S
N559 Tb528 2.660 . S
N559 C560 1.305 . S
N559 C564 1.360 . S
C560 H552 0.930 . S
C560 N559 1.305 . S
C560 C563 1.407 . S
C561 H555 0.930 . S
C561 C562 1.410 . S
C561 C563 1.345 . S
C562 C561 1.410 . S
C562 C564 1.417 . S
C562 C594 1.432 . S
C563 H549 0.930 . S
C563 C560 1.407 . S
C563 C561 1.345 . S
C564 N559 1.360 . S
C564 C562 1.417 . S
C564 C568 1.432 . S
H565 C570 0.930 . S
N566 Tb528 2.600 . S
N566 C568 1.359 . S
N566 C569 1.327 . S
C567 H553 0.931 . S
C567 C569 1.392 . S
C567 C570 1.370 . S
C568 C564 1.432 . S
C568 N566 1.359 . S
C568 C571 1.414 . S
C569 H551 0.930 . S
C569 N566 1.327 . S
C569 C567 1.392 . S
C570 H565 0.930 . S
C570 C567 1.370 . S
C570 C571 1.385 . S
C571 C568 1.414 . S
C571 C570 1.385 . S
C571 C593 1.444 . S
O572 Tb528 2.546 . S
O572 C592 1.251 . S
O573 Tb528 2.610 . S
O573 Tb539 2.362 . S
O573 C584 1.283 . S
O574 Tb539 2.421 . S
O574 C591 1.262 . S
O575 Tb528 2.320 . S
O575 C591 1.260 . S
O576 Tb528 2.552 . S
O576 C584 1.243 . S
O577 Tb528 2.413 . S
O577 C592 1.256 . S
O578 Tb539 2.546 . S
O578 C603 1.251 . S
O579 Tb528 2.362 . S
O579 Tb539 2.610 . S
O579 C595 1.283 . S
O580 Tb528 2.421 . S
O580 C602 1.262 . S
O581 Tb539 2.320 . S
O581 C602 1.260 . S
O582 Tb539 2.552 . S
O582 C595 1.243 . S
O583 Tb539 2.413 . S
O583 C603 1.256 . S
C584 O573 1.283 . S
C584 O576 1.243 . S
C585 C587 1.382 . S
C585 C589 1.393 . S
C585 C592 1.500 . S
C586 C587 1.400 . S
C586 C588 1.384 . S
C587 C585 1.382 . S
C587 C586 1.400 . S
C587 H604 0.930 . S
C588 C586 1.384 . S
C588 C590 1.392 . S
C588 H605 0.931 . S
C589 C585 1.393 . S
C589 C590 1.401 . S
C589 H606 0.930 . S
C590 C588 1.392 . S
C590 C589 1.401 . S
C590 H607 0.930 . S
C591 O574 1.262 . S
C591 O575 1.260 . S
C592 Tb528 2.833 . S
C592 O572 1.251 . S
C592 O577 1.256 . S
C592 C585 1.500 . S
C593 H558 0.929 . S
C593 C571 1.444 . S
C593 C594 1.317 . S
C594 H556 0.930 . S
C594 C562 1.432 . S
C594 C593 1.317 . S
C595 O579 1.283 . S
C595 O582 1.243 . S
C596 C597 1.382 . S
C596 C600 1.393 . S
C596 C603 1.500 . S
C597 C596 1.382 . S
C597 C598 1.400 . S
C597 H608 0.930 . S
C598 C597 1.400 . S
C598 C599 1.384 . S
C599 C598 1.384 . S
C599 C601 1.392 . S
C599 H609 0.931 . S
C600 C596 1.393 . S
C600 C601 1.401 . S
C600 H610 0.930 . S
C601 C599 1.392 . S
C601 C600 1.401 . S
C601 H611 0.930 . S
C602 O580 1.262 . S
C602 O581 1.260 . S
C603 Tb539 2.833 . S
C603 O578 1.251 . S
C603 O583 1.256 . S
C603 C596 1.500 . S
H604 C587 0.930 . S
H605 C588 0.931 . S
H606 C589 0.930 . S
H607 C590 0.930 . S
H608 C597 0.930 . S
H609 C599 0.931 . S
H610 C600 0.930 . S
H611 C601 0.930 . S
Tb612 N643 2.660 . S
Tb612 N650 2.600 . S
Tb612 O656 2.546 . S
Tb612 O657 2.610 . S
Tb612 O659 2.320 . S
Tb612 O660 2.552 . S
Tb612 O661 2.413 . S
Tb612 O663 2.362 . S
Tb612 O664 2.421 . S
Tb612 C676 2.833 . S
C613 C616 1.432 . S
C613 C617 1.414 . S
C613 N620 1.359 . S
C614 C616 1.417 . S
C614 C618 1.432 . S
C614 C626 1.410 . S
C615 C617 1.444 . S
C615 C618 1.317 . S
C615 H638 0.929 . S
C616 C613 1.432 . S
C616 C614 1.417 . S
C616 N624 1.360 . S
C617 C613 1.414 . S
C617 C615 1.444 . S
C617 C622 1.385 . S
C618 C614 1.432 . S
C618 C615 1.317 . S
C618 H630 0.930 . S
C619 C621 1.392 . S
C619 C622 1.370 . S
C619 H631 0.931 . S
N620 C613 1.359 . S
N620 C621 1.327 . S
N620 Tb623 2.600 . S
C621 C619 1.392 . S
C621 N620 1.327 . S
C621 H628 0.930 . S
C622 C617 1.385 . S
C622 C619 1.370 . S
C622 H641 0.930 . S
Tb623 N620 2.600 . S
Tb623 N624 2.660 . S
Tb623 O657 2.362 . S
Tb623 O658 2.421 . S
Tb623 O662 2.546 . S
Tb623 O663 2.610 . S
Tb623 O665 2.320 . S
Tb623 O666 2.552 . S
Tb623 O667 2.413 . S
Tb623 C687 2.833 . S
N624 C616 1.360 . S
N624 Tb623 2.660 . S
N624 C625 1.305 . S
C625 N624 1.305 . S
C625 C627 1.407 . S
C625 H632 0.930 . S
C626 C614 1.410 . S
C626 C627 1.345 . S
C626 H634 0.930 . S
C627 C625 1.407 . S
C627 C626 1.345 . S
C627 H629 0.930 . S
H628 C621 0.930 . S
H629 C627 0.930 . S
H630 C618 0.930 . S
H631 C619 0.931 . S
H632 C625 0.930 . S
H633 C647 0.930 . S
H634 C626 0.930 . S
H635 C653 0.930 . S
H636 C644 0.930 . S
H637 C651 0.931 . S
H638 C615 0.929 . S
H639 C645 0.930 . S
H640 C678 0.930 . S
H641 C622 0.930 . S
H642 C677 0.929 . S
N643 Tb612 2.660 . S
N643 C644 1.305 . S
N643 C648 1.360 . S
C644 H636 0.930 . S
C644 N643 1.305 . S
C644 C647 1.407 . S
C645 H639 0.930 . S
C645 C646 1.410 . S
C645 C647 1.345 . S
C646 C645 1.410 . S
C646 C648 1.417 . S
C646 C678 1.432 . S
C647 H633 0.930 . S
C647 C644 1.407 . S
C647 C645 1.345 . S
C648 N643 1.360 . S
C648 C646 1.417 . S
C648 C652 1.432 . S
H649 C654 0.930 . S
N650 Tb612 2.600 . S
N650 C652 1.359 . S
N650 C653 1.327 . S
C651 H637 0.931 . S
C651 C653 1.392 . S
C651 C654 1.370 . S
C652 C648 1.432 . S
C652 N650 1.359 . S
C652 C655 1.414 . S
C653 H635 0.930 . S
C653 N650 1.327 . S
C653 C651 1.392 . S
C654 H649 0.930 . S
C654 C651 1.370 . S
C654 C655 1.385 . S
C655 C652 1.414 . S
C655 C654 1.385 . S
C655 C677 1.444 . S
O656 Tb612 2.546 . S
O656 C676 1.251 . S
O657 Tb612 2.610 . S
O657 Tb623 2.362 . S
O657 C668 1.283 . S
O658 Tb623 2.421 . S
O658 C675 1.262 . S
O659 Tb612 2.320 . S
O659 C675 1.260 . S
O660 Tb612 2.552 . S
O660 C668 1.243 . S
O661 Tb612 2.413 . S
O661 C676 1.256 . S
O662 Tb623 2.546 . S
O662 C687 1.251 . S
O663 Tb612 2.362 . S
O663 Tb623 2.610 . S
O663 C679 1.283 . S
O664 Tb612 2.421 . S
O664 C686 1.262 . S
O665 Tb623 2.320 . S
O665 C686 1.260 . S
O666 Tb623 2.552 . S
O666 C679 1.243 . S
O667 Tb623 2.413 . S
O667 C687 1.256 . S
C668 O657 1.283 . S
C668 O660 1.243 . S
C669 C671 1.382 . S
C669 C673 1.393 . S
C669 C676 1.500 . S
C670 C671 1.400 . S
C670 C672 1.384 1_556 S
C671 C669 1.382 . S
C671 C670 1.400 . S
C671 H688 0.930 . S
C672 C670 1.384 1_554 S
C672 C674 1.392 . S
C672 H689 0.931 . S
C673 C669 1.393 . S
C673 C674 1.401 1_556 S
C673 H690 0.930 . S
C674 C672 1.392 . S
C674 C673 1.401 1_554 S
C674 H691 0.930 . S
C675 O658 1.262 . S
C675 O659 1.260 . S
C676 Tb612 2.833 . S
C676 O656 1.251 . S
C676 O661 1.256 . S
C676 C669 1.500 . S
C677 H642 0.929 . S
C677 C655 1.444 . S
C677 C678 1.317 . S
C678 H640 0.930 . S
C678 C646 1.432 . S
C678 C677 1.317 . S
C679 O663 1.283 . S
C679 O666 1.243 . S
C680 C681 1.382 . S
C680 C684 1.393 . S
C680 C687 1.500 . S
C681 C680 1.382 . S
C681 C682 1.400 . S
C681 H692 0.930 . S
C682 C681 1.400 . S
C682 C683 1.384 . S
C683 C682 1.384 . S
C683 C685 1.392 . S
C683 H693 0.931 . S
C684 C680 1.393 . S
C684 C685 1.401 . S
C684 H694 0.930 . S
C685 C683 1.392 . S
C685 C684 1.401 . S
C685 H695 0.930 . S
C686 O664 1.262 . S
C686 O665 1.260 . S
C687 Tb623 2.833 . S
C687 O662 1.251 . S
C687 O667 1.256 . S
C687 C680 1.500 . S
H688 C671 0.930 . S
H689 C672 0.931 . S
H690 C673 0.930 . S
H691 C674 0.930 . S
H692 C681 0.930 . S
H693 C683 0.931 . S
H694 C684 0.930 . S
H695 C685 0.930 . S
Tb696 N727 2.660 . S
Tb696 N734 2.600 . S
Tb696 O740 2.546 . S
Tb696 O741 2.610 . S
Tb696 O743 2.320 . S
Tb696 O744 2.552 . S
Tb696 O745 2.413 . S
Tb696 O747 2.362 . S
Tb696 O748 2.421 . S
Tb696 C760 2.833 . S
C697 C700 1.432 . S
C697 C701 1.414 1_556 S
C697 N704 1.359 . S
C698 C700 1.417 . S
C698 C702 1.432 . S
C698 C710 1.410 . S
C699 C701 1.444 . S
C699 C702 1.317 1_554 S
C699 H722 0.929 . S
C700 C697 1.432 . S
C700 C698 1.417 . S
C700 N708 1.360 . S
C701 C697 1.414 1_554 S
C701 C699 1.444 . S
C701 C706 1.385 . S
C702 C698 1.432 . S
C702 C699 1.317 1_556 S
C702 H714 0.930 1_556 S
C703 C705 1.392 1_554 S
C703 C706 1.370 . S
C703 H715 0.931 . S
N704 C697 1.359 . S
N704 C705 1.327 . S
N704 Tb707 2.600 . S
C705 C703 1.392 1_556 S
C705 N704 1.327 . S
C705 H712 0.930 . S
C706 C701 1.385 . S
C706 C703 1.370 . S
C706 H725 0.930 . S
Tb707 N704 2.600 . S
Tb707 N708 2.660 . S
Tb707 O741 2.362 . S
Tb707 O742 2.421 . S
Tb707 O746 2.546 . S
Tb707 O747 2.610 . S
Tb707 O749 2.320 . S
Tb707 O750 2.552 . S
Tb707 O751 2.413 . S
Tb707 C771 2.833 . S
N708 C700 1.360 . S
N708 Tb707 2.660 . S
N708 C709 1.305 . S
C709 N708 1.305 . S
C709 C711 1.407 . S
C709 H716 0.930 . S
C710 C698 1.410 . S
C710 C711 1.345 . S
C710 H718 0.930 . S
C711 C709 1.407 . S
C711 C710 1.345 . S
C711 H713 0.930 . S
H712 C705 0.930 . S
H713 C711 0.930 . S
H714 C702 0.930 1_554 S
H715 C703 0.931 . S
H716 C709 0.930 . S
H717 C731 0.930 . S
H718 C710 0.930 . S
H719 C737 0.930 . S
H720 C728 0.930 . S
H721 C735 0.931 . S
H722 C699 0.929 . S
H723 C729 0.930 . S
H724 C762 0.930 . S
H725 C706 0.930 . S
H726 C761 0.929 . S
N727 Tb696 2.660 . S
N727 C728 1.305 . S
N727 C732 1.360 . S
C728 H720 0.930 . S
C728 N727 1.305 . S
C728 C731 1.407 . S
C729 H723 0.930 . S
C729 C730 1.410 . S
C729 C731 1.345 . S
C730 C729 1.410 . S
C730 C732 1.417 . S
C730 C762 1.432 . S
C731 H717 0.930 . S
C731 C728 1.407 . S
C731 C729 1.345 . S
C732 N727 1.360 . S
C732 C730 1.417 . S
C732 C736 1.432 . S
H733 C738 0.930 . S
N734 Tb696 2.600 . S
N734 C736 1.359 . S
N734 C737 1.327 . S
C735 H721 0.931 . S
C735 C737 1.392 . S
C735 C738 1.370 . S
C736 C732 1.432 . S
C736 N734 1.359 . S
C736 C739 1.414 . S
C737 H719 0.930 . S
C737 N734 1.327 . S
C737 C735 1.392 . S
C738 H733 0.930 . S
C738 C735 1.370 . S
C738 C739 1.385 . S
C739 C736 1.414 . S
C739 C738 1.385 . S
C739 C761 1.444 . S
O740 Tb696 2.546 . S
O740 C760 1.251 . S
O741 Tb696 2.610 . S
O741 Tb707 2.362 . S
O741 C752 1.283 . S
O742 Tb707 2.421 . S
O742 C759 1.262 . S
O743 Tb696 2.320 . S
O743 C759 1.260 . S
O744 Tb696 2.552 . S
O744 C752 1.243 . S
O745 Tb696 2.413 . S
O745 C760 1.256 . S
O746 Tb707 2.546 . S
O746 C771 1.251 . S
O747 Tb696 2.362 . S
O747 Tb707 2.610 . S
O747 C763 1.283 . S
O748 Tb696 2.421 . S
O748 C770 1.262 . S
O749 Tb707 2.320 . S
O749 C770 1.260 . S
O750 Tb707 2.552 . S
O750 C763 1.243 . S
O751 Tb707 2.413 . S
O751 C771 1.256 . S
C752 O741 1.283 . S
C752 O744 1.243 . S
C753 C755 1.382 . S
C753 C757 1.393 . S
C753 C760 1.500 . S
C754 C755 1.400 . S
C754 C756 1.384 . S
C755 C753 1.382 . S
C755 C754 1.400 . S
C755 H772 0.930 . S
C756 C754 1.384 . S
C756 C758 1.392 . S
C756 H773 0.931 . S
C757 C753 1.393 . S
C757 C758 1.401 . S
C757 H774 0.930 . S
C758 C756 1.392 . S
C758 C757 1.401 . S
C758 H775 0.930 . S
C759 O742 1.262 . S
C759 O743 1.260 . S
C760 Tb696 2.833 . S
C760 O740 1.251 . S
C760 O745 1.256 . S
C760 C753 1.500 . S
C761 H726 0.929 . S
C761 C739 1.444 . S
C761 C762 1.317 . S
C762 H724 0.930 . S
C762 C730 1.432 . S
C762 C761 1.317 . S
C763 O747 1.283 . S
C763 O750 1.243 . S
C764 C765 1.382 . S
C764 C768 1.393 . S
C764 C771 1.500 . S
C765 C764 1.382 . S
C765 C766 1.400 . S
C765 H776 0.930 . S
C766 C765 1.400 . S
C766 C767 1.384 . S
C767 C766 1.384 . S
C767 C769 1.392 . S
C767 H777 0.931 . S
C768 C764 1.393 . S
C768 C769 1.401 . S
C768 H778 0.930 . S
C769 C767 1.392 . S
C769 C768 1.401 . S
C769 H779 0.930 . S
C770 O748 1.262 . S
C770 O749 1.260 . S
C771 Tb707 2.833 . S
C771 O746 1.251 . S
C771 O751 1.256 . S
C771 C764 1.500 . S
H772 C755 0.930 . S
H773 C756 0.931 . S
H774 C757 0.930 . S
H775 C758 0.930 . S
H776 C765 0.930 . S
H777 C767 0.931 . S
H778 C768 0.930 . S
H779 C769 0.930 . S
Tb780 N811 2.660 . S
Tb780 N818 2.600 . S
Tb780 O824 2.546 . S
Tb780 O825 2.610 . S
Tb780 O827 2.320 . S
Tb780 O828 2.552 . S
Tb780 O829 2.413 . S
Tb780 O831 2.362 . S
Tb780 O832 2.421 . S
Tb780 C844 2.833 . S
C781 C784 1.432 . S
C781 C785 1.414 . S
C781 N788 1.359 . S
C782 C784 1.417 . S
C782 C786 1.432 . S
C782 C794 1.410 . S
C783 C785 1.444 . S
C783 C786 1.317 . S
C783 H806 0.929 . S
C784 C781 1.432 . S
C784 C782 1.417 . S
C784 N792 1.360 . S
C785 C781 1.414 . S
C785 C783 1.444 . S
C785 C790 1.385 . S
C786 C782 1.432 . S
C786 C783 1.317 . S
C786 H798 0.930 . S
C787 C789 1.392 . S
C787 C790 1.370 . S
C787 H799 0.931 . S
N788 C781 1.359 . S
N788 C789 1.327 . S
N788 Tb791 2.600 . S
C789 C787 1.392 . S
C789 N788 1.327 . S
C789 H796 0.930 . S
C790 C785 1.385 . S
C790 C787 1.370 . S
C790 H809 0.930 . S
Tb791 N788 2.600 . S
Tb791 N792 2.660 . S
Tb791 O825 2.362 . S
Tb791 O826 2.421 . S
Tb791 O830 2.546 . S
Tb791 O831 2.610 . S
Tb791 O833 2.320 . S
Tb791 O834 2.552 . S
Tb791 O835 2.413 . S
Tb791 C855 2.833 . S
N792 C784 1.360 . S
N792 Tb791 2.660 . S
N792 C793 1.305 . S
C793 N792 1.305 . S
C793 C795 1.407 . S
C793 H800 0.930 . S
C794 C782 1.410 . S
C794 C795 1.345 . S
C794 H802 0.930 . S
C795 C793 1.407 . S
C795 C794 1.345 . S
C795 H797 0.930 . S
H796 C789 0.930 . S
H797 C795 0.930 . S
H798 C786 0.930 . S
H799 C787 0.931 . S
H800 C793 0.930 . S
H801 C815 0.930 . S
H802 C794 0.930 . S
H803 C821 0.930 . S
H804 C812 0.930 . S
H805 C819 0.931 . S
H806 C783 0.929 . S
H807 C813 0.930 . S
H808 C846 0.930 . S
H809 C790 0.930 . S
H810 C845 0.929 . S
N811 Tb780 2.660 . S
N811 C812 1.305 . S
N811 C816 1.360 . S
C812 H804 0.930 . S
C812 N811 1.305 . S
C812 C815 1.407 . S
C813 H807 0.930 . S
C813 C814 1.410 . S
C813 C815 1.345 . S
C814 C813 1.410 . S
C814 C816 1.417 . S
C814 C846 1.432 . S
C815 H801 0.930 . S
C815 C812 1.407 . S
C815 C813 1.345 . S
C816 N811 1.360 . S
C816 C814 1.417 . S
C816 C820 1.432 . S
H817 C822 0.930 . S
N818 Tb780 2.600 . S
N818 C820 1.359 . S
N818 C821 1.327 . S
C819 H805 0.931 . S
C819 C821 1.392 . S
C819 C822 1.370 . S
C820 C816 1.432 . S
C820 N818 1.359 . S
C820 C823 1.414 . S
C821 H803 0.930 . S
C821 N818 1.327 . S
C821 C819 1.392 . S
C822 H817 0.930 . S
C822 C819 1.370 . S
C822 C823 1.385 . S
C823 C820 1.414 . S
C823 C822 1.385 . S
C823 C845 1.444 . S
O824 Tb780 2.546 . S
O824 C844 1.251 . S
O825 Tb780 2.610 . S
O825 Tb791 2.362 . S
O825 C836 1.283 . S
O826 Tb791 2.421 . S
O826 C843 1.262 . S
O827 Tb780 2.320 . S
O827 C843 1.260 . S
O828 Tb780 2.552 . S
O828 C836 1.243 . S
O829 Tb780 2.413 . S
O829 C844 1.256 . S
O830 Tb791 2.546 . S
O830 C855 1.251 . S
O831 Tb780 2.362 . S
O831 Tb791 2.610 . S
O831 C847 1.283 . S
O832 Tb780 2.421 . S
O832 C854 1.262 . S
O833 Tb791 2.320 . S
O833 C854 1.260 . S
O834 Tb791 2.552 . S
O834 C847 1.243 . S
O835 Tb791 2.413 . S
O835 C855 1.256 . S
C836 O825 1.283 . S
C836 O828 1.243 . S
C837 C839 1.382 . S
C837 C841 1.393 . S
C837 C844 1.500 . S
C838 C839 1.400 . S
C838 C840 1.384 . S
C839 C837 1.382 . S
C839 C838 1.400 . S
C839 H856 0.930 . S
C840 C838 1.384 . S
C840 C842 1.392 . S
C840 H857 0.931 . S
C841 C837 1.393 . S
C841 C842 1.401 . S
C841 H858 0.930 . S
C842 C840 1.392 . S
C842 C841 1.401 . S
C842 H859 0.930 . S
C843 O826 1.262 . S
C843 O827 1.260 . S
C844 Tb780 2.833 . S
C844 O824 1.251 . S
C844 O829 1.256 . S
C844 C837 1.500 . S
C845 H810 0.929 . S
C845 C823 1.444 . S
C845 C846 1.317 . S
C846 H808 0.930 . S
C846 C814 1.432 . S
C846 C845 1.317 . S
C847 O831 1.283 . S
C847 O834 1.243 . S
C848 C849 1.382 . S
C848 C852 1.393 . S
C848 C855 1.500 . S
C849 C848 1.382 . S
C849 C850 1.400 . S
C849 H860 0.930 . S
C850 C849 1.400 . S
C850 C851 1.402 . S
C851 C850 1.402 . S
C851 C853 1.391 1_556 S
C851 H861 0.914 1_556 S
C852 C848 1.393 . S
C852 C853 1.393 1_556 S
C852 H862 0.930 . S
C853 C851 1.391 1_554 S
C853 C852 1.393 1_554 S
C853 H863 0.939 . S
C854 O832 1.262 . S
C854 O833 1.260 . S
C855 Tb791 2.833 . S
C855 O830 1.251 . S
C855 O835 1.256 . S
C855 C848 1.500 . S
H856 C839 0.930 . S
H857 C840 0.931 . S
H858 C841 0.930 . S
H859 C842 0.930 . S
H860 C849 0.930 . S
H861 C851 0.914 1_554 S
H862 C852 0.930 . S
H863 C853 0.939 . S
Tb864 N895 2.660 . S
Tb864 N902 2.600 . S
Tb864 O908 2.546 . S
Tb864 O909 2.610 . S
Tb864 O911 2.320 . S
Tb864 O912 2.552 . S
Tb864 O913 2.413 . S
Tb864 O915 2.362 . S
Tb864 O916 2.421 . S
Tb864 C928 2.833 . S
C865 C868 1.432 . S
C865 C869 1.414 . S
C865 N872 1.359 . S
C866 C868 1.417 . S
C866 C870 1.432 . S
C866 C878 1.410 . S
C867 C869 1.444 . S
C867 C870 1.317 . S
C867 H890 0.929 . S
C868 C865 1.432 . S
C868 C866 1.417 . S
C868 N876 1.360 . S
C869 C865 1.414 . S
C869 C867 1.444 . S
C869 C874 1.385 . S
C870 C866 1.432 . S
C870 C867 1.317 . S
C870 H882 0.930 . S
C871 C873 1.392 . S
C871 C874 1.370 . S
C871 H883 0.931 . S
N872 C865 1.359 . S
N872 C873 1.327 . S
N872 Tb875 2.600 . S
C873 C871 1.392 . S
C873 N872 1.327 . S
C873 H880 0.930 . S
C874 C869 1.385 . S
C874 C871 1.370 . S
C874 H893 0.930 . S
Tb875 N872 2.600 . S
Tb875 N876 2.660 . S
Tb875 O909 2.362 . S
Tb875 O910 2.421 . S
Tb875 O914 2.546 . S
Tb875 O915 2.610 . S
Tb875 O917 2.320 . S
Tb875 O918 2.552 . S
Tb875 O919 2.413 . S
Tb875 C939 2.833 . S
N876 C868 1.360 . S
N876 Tb875 2.660 . S
N876 C877 1.305 . S
C877 N876 1.305 . S
C877 C879 1.407 . S
C877 H884 0.930 . S
C878 C866 1.410 . S
C878 C879 1.345 . S
C878 H886 0.930 . S
C879 C877 1.407 . S
C879 C878 1.345 . S
C879 H881 0.930 . S
H880 C873 0.930 . S
H881 C879 0.930 . S
H882 C870 0.930 . S
H883 C871 0.931 . S
H884 C877 0.930 . S
H885 C899 0.930 . S
H886 C878 0.930 . S
H887 C905 0.930 . S
H888 C896 0.930 . S
H889 C903 0.931 . S
H890 C867 0.929 . S
H891 C897 0.930 . S
H892 C930 0.930 1_554 S
H893 C874 0.930 . S
H894 C929 0.929 . S
N895 Tb864 2.660 . S
N895 C896 1.305 . S
N895 C900 1.360 . S
C896 H888 0.930 . S
C896 N895 1.305 . S
C896 C899 1.407 . S
C897 H891 0.930 . S
C897 C898 1.410 . S
C897 C899 1.345 . S
C898 C897 1.410 . S
C898 C900 1.417 . S
C898 C930 1.432 . S
C899 H885 0.930 . S
C899 C896 1.407 . S
C899 C897 1.345 . S
C900 N895 1.360 . S
C900 C898 1.417 . S
C900 C904 1.432 . S
H901 C906 0.930 . S
N902 Tb864 2.600 . S
N902 C904 1.359 . S
N902 C905 1.327 . S
C903 H889 0.931 . S
C903 C905 1.392 . S
C903 C906 1.370 1_556 S
C904 C900 1.432 . S
C904 N902 1.359 . S
C904 C907 1.414 . S
C905 H887 0.930 . S
C905 N902 1.327 . S
C905 C903 1.392 . S
C906 H901 0.930 . S
C906 C903 1.370 1_554 S
C906 C907 1.385 1_554 S
C907 C904 1.414 . S
C907 C906 1.385 1_556 S
C907 C929 1.444 1_556 S
O908 Tb864 2.546 . S
O908 C928 1.251 . S
O909 Tb864 2.610 . S
O909 Tb875 2.362 . S
O909 C920 1.283 . S
O910 Tb875 2.421 . S
O910 C927 1.262 . S
O911 Tb864 2.320 . S
O911 C927 1.260 . S
O912 Tb864 2.552 . S
O912 C920 1.243 . S
O913 Tb864 2.413 . S
O913 C928 1.256 . S
O914 Tb875 2.546 . S
O914 C939 1.251 . S
O915 Tb864 2.362 . S
O915 Tb875 2.610 . S
O915 C931 1.283 . S
O916 Tb864 2.421 . S
O916 C938 1.262 . S
O917 Tb875 2.320 . S
O917 C938 1.260 . S
O918 Tb875 2.552 . S
O918 C931 1.243 . S
O919 Tb875 2.413 . S
O919 C939 1.256 . S
C920 O909 1.283 . S
C920 O912 1.243 . S
C921 C923 1.382 . S
C921 C925 1.393 . S
C921 C928 1.500 . S
C922 C923 1.400 . S
C922 C924 1.384 . S
C923 C921 1.382 . S
C923 C922 1.400 . S
C923 H940 0.930 . S
C924 C922 1.384 . S
C924 C926 1.392 . S
C924 H941 0.931 . S
C925 C921 1.393 . S
C925 C926 1.401 . S
C925 H942 0.930 . S
C926 C924 1.392 . S
C926 C925 1.401 . S
C926 H943 0.930 . S
C927 O910 1.262 . S
C927 O911 1.260 . S
C928 Tb864 2.833 . S
C928 O908 1.251 . S
C928 O913 1.256 . S
C928 C921 1.500 . S
C929 H894 0.929 . S
C929 C907 1.444 1_554 S
C929 C930 1.317 1_554 S
C930 H892 0.930 1_556 S
C930 C898 1.432 . S
C930 C929 1.317 1_556 S
C931 O915 1.283 . S
C931 O918 1.243 . S
C932 C933 1.382 . S
C932 C936 1.393 . S
C932 C939 1.500 . S
C933 C932 1.382 . S
C933 C934 1.400 . S
C933 H944 0.930 . S
C934 C933 1.400 . S
C934 C935 1.384 . S
C935 C934 1.384 . S
C935 C937 1.392 . S
C935 H945 0.931 . S
C936 C932 1.393 . S
C936 C937 1.401 . S
C936 H946 0.930 . S
C937 C935 1.392 . S
C937 C936 1.401 . S
C937 H947 0.930 . S
C938 O916 1.262 . S
C938 O917 1.260 . S
C939 Tb875 2.833 . S
C939 O914 1.251 . S
C939 O919 1.256 . S
C939 C932 1.500 . S
H940 C923 0.930 . S
H941 C924 0.931 . S
H942 C925 0.930 . S
H943 C926 0.930 . S
H944 C933 0.930 . S
H945 C935 0.931 . S
H946 C936 0.930 . S
H947 C937 0.930 . S
C948 C949 1.369 . S
C948 C950 1.419 . S
C948 H952 0.930 . S
C949 C948 1.369 . S
C949 C958 1.429 . S
C950 C948 1.419 . S
C950 C951 1.363 . S
C950 H953 0.929 . S
C951 C950 1.363 . S
C951 C957 1.428 . S
H952 C948 0.930 . S
H953 C950 0.929 . S
S954 N955 1.613 . S
S954 N956 1.610 . S
N955 S954 1.613 . S
N955 C958 1.350 . S
N956 S954 1.610 . S
N956 C957 1.351 . S
C957 C951 1.428 . S
C957 N956 1.351 . S
C957 C958 1.434 . S
C958 C949 1.429 . S
C958 N955 1.350 . S
C958 C957 1.434 . S
C959 C960 1.369 . S
C959 C961 1.419 . S
C959 H963 0.930 . S
C960 C959 1.369 . S
C960 C969 1.429 . S
C961 C959 1.419 . S
C961 C962 1.363 . S
C961 H964 0.929 . S
C962 C961 1.363 . S
C962 C968 1.428 . S
H963 C959 0.930 . S
H964 C961 0.929 . S
S965 N966 1.613 . S
S965 N967 1.610 . S
N966 S965 1.613 . S
N966 C969 1.350 . S
N967 S965 1.610 . S
N967 C968 1.351 . S
C968 C962 1.428 . S
C968 N967 1.351 . S
C968 C969 1.434 . S
C969 C960 1.429 . S
C969 N966 1.350 . S
C969 C968 1.434 . S
C970 C971 1.369 . S
C970 C972 1.419 . S
C970 H974 0.930 . S
C971 C970 1.369 . S
C971 C980 1.429 . S
C972 C970 1.419 . S
C972 C973 1.363 . S
C972 H975 0.929 . S
C973 C972 1.363 . S
C973 C979 1.428 . S
H974 C970 0.930 . S
H975 C972 0.929 . S
S976 N977 1.613 . S
S976 N978 1.610 . S
N977 S976 1.613 . S
N977 C980 1.350 1_455 S
N978 S976 1.610 . S
N978 C979 1.351 1_455 S
C979 C973 1.428 . S
C979 N978 1.351 1_655 S
C979 C980 1.434 . S
C980 C971 1.429 . S
C980 N977 1.350 1_655 S
C980 C979 1.434 . S
C981 C982 1.369 . S
C981 C983 1.419 . S
C981 H985 0.930 . S
C982 C981 1.369 . S
C982 C991 1.429 . S
C983 C981 1.419 . S
C983 C984 1.363 . S
C983 H986 0.929 . S
C984 C983 1.363 . S
C984 C990 1.428 . S
H985 C981 0.930 . S
H986 C983 0.929 . S
S987 N988 1.613 . S
S987 N989 1.610 . S
N988 S987 1.613 . S
N988 C991 1.350 . S
N989 S987 1.610 . S
N989 C990 1.351 . S
C990 C984 1.428 . S
C990 N989 1.351 . S
C990 C991 1.434 . S
C991 C982 1.429 . S
C991 N988 1.350 . S
C991 C990 1.434 . S
C992 C993 1.369 . S
C992 C994 1.419 . S
C992 H996 0.930 . S
C993 C992 1.369 . S
C993 C1002 1.429 . S
C994 C992 1.419 . S
C994 C995 1.363 . S
C994 H997 0.929 . S
C995 C994 1.363 . S
C995 C1001 1.428 . S
H996 C992 0.930 . S
H997 C994 0.929 . S
S998 N999 1.613 . S
S998 N1000 1.610 . S
N999 S998 1.613 . S
N999 C1002 1.350 . S
N1000 S998 1.610 . S
N1000 C1001 1.351 . S
C1001 C995 1.428 . S
C1001 N1000 1.351 . S
C1001 C1002 1.434 . S
C1002 C993 1.429 . S
C1002 N999 1.350 . S
C1002 C1001 1.434 . S
C1003 C1004 1.369 . S
C1003 C1005 1.419 . S
C1003 H1007 0.930 . S
C1004 C1003 1.369 . S
C1004 C1013 1.429 . S
C1005 C1003 1.419 . S
C1005 C1006 1.363 . S
C1005 H1008 0.929 . S
C1006 C1005 1.363 . S
C1006 C1012 1.428 . S
H1007 C1003 0.930 . S
H1008 C1005 0.929 . S
S1009 N1010 1.613 . S
S1009 N1011 1.610 . S
N1010 S1009 1.613 . S
N1010 C1013 1.350 . S
N1011 S1009 1.610 . S
N1011 C1012 1.351 . S
C1012 C1006 1.428 . S
C1012 N1011 1.351 . S
C1012 C1013 1.434 . S
C1013 C1004 1.429 . S
C1013 N1010 1.350 . S
C1013 C1012 1.434 . S
C1014 C1015 1.369 . S
C1014 C1016 1.419 . S
C1014 H1018 0.930 . S
C1015 C1014 1.369 . S
C1015 C1024 1.429 . S
C1016 C1014 1.419 . S
C1016 C1017 1.363 . S
C1016 H1019 0.929 . S
C1017 C1016 1.363 . S
C1017 C1023 1.428 . S
H1018 C1014 0.930 . S
H1019 C1016 0.929 . S
S1020 N1021 1.613 . S
S1020 N1022 1.610 . S
N1021 S1020 1.613 . S
N1021 C1024 1.350 . S
N1022 S1020 1.610 . S
N1022 C1023 1.351 . S
C1023 C1017 1.428 . S
C1023 N1022 1.351 . S
C1023 C1024 1.434 . S
C1024 C1015 1.429 . S
C1024 N1021 1.350 . S
C1024 C1023 1.434 . S
C1025 C1026 1.369 . S
C1025 C1027 1.419 . S
C1025 H1029 0.930 . S
C1026 C1025 1.369 . S
C1026 C1035 1.427 . S
C1027 C1025 1.419 . S
C1027 C1028 1.363 . S
C1027 H1030 0.929 . S
C1028 C1027 1.363 . S
C1028 C1034 1.428 . S
H1029 C1025 0.930 . S
H1030 C1027 0.929 . S
S1031 N1032 1.613 . S
S1031 N1033 1.610 1_545 S
N1032 S1031 1.613 . S
N1032 C1035 1.344 1_545 S
N1033 S1031 1.610 1_565 S
N1033 C1034 1.351 . S
C1034 C1028 1.428 . S
C1034 N1033 1.351 . S
C1034 C1035 1.442 . S
C1035 C1026 1.427 . S
C1035 N1032 1.344 1_565 S
C1035 C1034 1.442 . S
C1036 C1037 1.369 . S
C1036 C1038 1.419 . S
C1036 H1040 0.930 . S
C1037 C1036 1.369 . S
C1037 C1046 1.429 . S
C1038 C1036 1.419 . S
C1038 C1039 1.363 . S
C1038 H1041 0.929 . S
C1039 C1038 1.363 . S
C1039 C1045 1.428 . S
H1040 C1036 0.930 . S
H1041 C1038 0.929 . S
S1042 N1043 1.613 . S
S1042 N1044 1.610 . S
N1043 S1042 1.613 . S
N1043 C1046 1.350 . S
N1044 S1042 1.610 . S
N1044 C1045 1.351 . S
C1045 C1039 1.428 . S
C1045 N1044 1.351 . S
C1045 C1046 1.434 . S
C1046 C1037 1.429 . S
C1046 N1043 1.350 . S
C1046 C1045 1.434 . S
C1047 C1048 1.369 . S
C1047 C1049 1.419 . S
C1047 H1051 0.930 . S
C1048 C1047 1.369 . S
C1048 C1057 1.429 . S
C1049 C1047 1.419 . S
C1049 C1050 1.363 . S
C1049 H1052 0.929 . S
C1050 C1049 1.363 . S
C1050 C1056 1.428 . S
H1051 C1047 0.930 . S
H1052 C1049 0.929 . S
S1053 N1054 1.613 . S
S1053 N1055 1.610 . S
N1054 S1053 1.613 . S
N1054 C1057 1.350 . S
N1055 S1053 1.610 . S
N1055 C1056 1.351 . S
C1056 C1050 1.428 . S
C1056 N1055 1.351 . S
C1056 C1057 1.434 . S
C1057 C1048 1.429 . S
C1057 N1054 1.350 . S
C1057 C1056 1.434 . S
C1058 C1059 1.369 . S
C1058 C1060 1.419 . S
C1058 H1062 0.930 . S
C1059 C1058 1.369 . S
C1059 C1068 1.429 . S
C1060 C1058 1.419 . S
C1060 C1061 1.363 . S
C1060 H1063 0.929 . S
C1061 C1060 1.363 . S
C1061 C1067 1.428 . S
H1062 C1058 0.930 . S
H1063 C1060 0.929 . S
S1064 N1065 1.613 . S
S1064 N1066 1.610 . S
N1065 S1064 1.613 . S
N1065 C1068 1.350 . S
N1066 S1064 1.610 . S
N1066 C1067 1.351 . S
C1067 C1061 1.428 . S
C1067 N1066 1.351 . S
C1067 C1068 1.434 . S
C1068 C1059 1.429 . S
C1068 N1065 1.350 . S
C1068 C1067 1.434 . S
C1069 C1070 1.369 . S
C1069 C1071 1.419 . S
C1069 H1073 0.930 . S
C1070 C1069 1.369 . S
C1070 C1079 1.429 . S
C1071 C1069 1.419 . S
C1071 C1072 1.363 . S
C1071 H1074 0.929 . S
C1072 C1071 1.363 . S
C1072 C1078 1.428 . S
H1073 C1069 0.930 . S
H1074 C1071 0.929 . S
S1075 N1076 1.613 . S
S1075 N1077 1.610 . S
N1076 S1075 1.613 . S
N1076 C1079 1.350 . S
N1077 S1075 1.610 . S
N1077 C1078 1.351 . S
C1078 C1072 1.428 . S
C1078 N1077 1.351 . S
C1078 C1079 1.434 . S
C1079 C1070 1.429 . S
C1079 N1076 1.350 . S
C1079 C1078 1.434 . S
C1080 C1081 1.369 1_565 S
C1080 C1082 1.427 . S
C1080 H1084 0.930 . S
C1081 C1080 1.369 1_545 S
C1081 C1090 1.429 . S
C1082 C1080 1.427 . S
C1082 C1083 1.355 1_554 S
C1082 H1085 0.929 . S
C1083 C1082 1.355 1_556 S
C1083 C1089 1.428 1_565 S
H1084 C1080 0.930 . S
H1085 C1082 0.929 . S
S1086 N1087 1.613 1_556 S
S1086 N1088 1.610 . S
N1087 S1086 1.613 1_554 S
N1087 C1090 1.350 . S
N1088 S1086 1.610 . S
N1088 C1089 1.351 . S
C1089 C1083 1.428 1_545 S
C1089 N1088 1.351 . S
C1089 C1090 1.434 1_556 S
C1090 C1081 1.429 . S
C1090 N1087 1.350 . S
C1090 C1089 1.434 1_554 S
C1091 C1092 1.369 . S
C1091 C1093 1.419 . S
C1091 H1095 0.930 . S
C1092 C1091 1.369 . S
C1092 C1101 1.429 . S
C1093 C1091 1.419 . S
C1093 C1094 1.363 . S
C1093 H1096 0.929 . S
C1094 C1093 1.363 . S
C1094 C1100 1.428 . S
H1095 C1091 0.930 . S
H1096 C1093 0.929 . S
S1097 N1098 1.613 . S
S1097 N1099 1.610 . S
N1098 S1097 1.613 . S
N1098 C1101 1.350 . S
N1099 S1097 1.610 . S
N1099 C1100 1.351 . S
C1100 C1094 1.428 . S
C1100 N1099 1.351 . S
C1100 C1101 1.434 . S
C1101 C1092 1.429 . S
C1101 N1098 1.350 . S
C1101 C1100 1.434 . S
C1102 C1103 1.369 . S
C1102 C1104 1.419 . S
C1102 H1106 0.930 . S
C1103 C1102 1.369 . S
C1103 C1112 1.429 . S
C1104 C1102 1.419 . S
C1104 C1105 1.363 . S
C1104 H1107 0.929 . S
C1105 C1104 1.363 . S
C1105 C1111 1.428 . S
H1106 C1102 0.930 . S
H1107 C1104 0.929 . S
S1108 N1109 1.613 . S
S1108 N1110 1.610 . S
N1109 S1108 1.613 . S
N1109 C1112 1.350 . S
N1110 S1108 1.610 . S
N1110 C1111 1.351 . S
C1111 C1105 1.428 . S
C1111 N1110 1.351 . S
C1111 C1112 1.434 . S
C1112 C1103 1.429 . S
C1112 N1109 1.350 . S
C1112 C1111 1.434 . S
C1113 C1114 1.369 . S
C1113 C1115 1.419 . S
C1113 H1117 0.930 . S
C1114 C1113 1.369 . S
C1114 C1123 1.429 . S
C1115 C1113 1.419 . S
C1115 C1116 1.363 . S
C1115 H1118 0.929 . S
C1116 C1115 1.363 . S
C1116 C1122 1.428 . S
H1117 C1113 0.930 . S
H1118 C1115 0.929 . S
S1119 N1120 1.613 . S
S1119 N1121 1.610 . S
N1120 S1119 1.613 . S
N1120 C1123 1.350 . S
N1121 S1119 1.610 . S
N1121 C1122 1.351 . S
C1122 C1116 1.428 . S
C1122 N1121 1.351 . S
C1122 C1123 1.434 . S
C1123 C1114 1.429 . S
C1123 N1120 1.350 . S
C1123 C1122 1.434 . S
C1124 C1125 1.369 . S
C1124 C1126 1.419 . S
C1124 H1128 0.930 . S
C1125 C1124 1.369 . S
C1125 C1134 1.429 . S
C1126 C1124 1.419 . S
C1126 C1127 1.363 . S
C1126 H1129 0.929 . S
C1127 C1126 1.363 . S
C1127 C1133 1.428 . S
H1128 C1124 0.930 . S
H1129 C1126 0.929 . S
S1130 N1131 1.613 . S
S1130 N1132 1.610 . S
N1131 S1130 1.613 . S
N1131 C1134 1.350 . S
N1132 S1130 1.610 . S
N1132 C1133 1.351 . S
C1133 C1127 1.428 . S
C1133 N1132 1.351 . S
C1133 C1134 1.434 . S
C1134 C1125 1.429 . S
C1134 N1131 1.350 . S
C1134 C1133 1.434 . S
C1135 C1136 1.369 . S
C1135 C1137 1.419 . S
C1135 H1139 0.930 . S
C1136 C1135 1.369 . S
C1136 C1145 1.429 . S
C1137 C1135 1.419 . S
C1137 C1138 1.363 . S
C1137 H1140 0.929 . S
C1138 C1137 1.363 . S
C1138 C1144 1.428 . S
H1139 C1135 0.930 . S
H1140 C1137 0.929 . S
S1141 N1142 1.613 . S
S1141 N1143 1.610 . S
N1142 S1141 1.613 . S
N1142 C1145 1.350 . S
N1143 S1141 1.610 . S
N1143 C1144 1.351 . S
C1144 C1138 1.428 . S
C1144 N1143 1.351 . S
C1144 C1145 1.434 . S
C1145 C1136 1.429 . S
C1145 N1142 1.350 . S
C1145 C1144 1.434 . S
C1146 C1147 1.369 1_556 S
C1146 C1148 1.419 . S
C1146 H1150 0.930 . S
C1147 C1146 1.369 1_554 S
C1147 C1156 1.429 1_554 S
C1148 C1146 1.419 . S
C1148 C1149 1.363 . S
C1148 H1151 0.929 . S
C1149 C1148 1.363 . S
C1149 C1155 1.428 . S
H1150 C1146 0.930 . S
H1151 C1148 0.929 . S
S1152 N1153 1.613 1_556 S
S1152 N1154 1.610 . S
N1153 S1152 1.613 1_554 S
N1153 C1156 1.350 1_554 S
N1154 S1152 1.610 . S
N1154 C1155 1.351 . S
C1155 C1149 1.428 . S
C1155 N1154 1.351 . S
C1155 C1156 1.434 . S
C1156 C1147 1.429 1_556 S
C1156 N1153 1.350 1_556 S
C1156 C1155 1.434 . S
C1157 C1158 1.369 1_556 S
C1157 C1159 1.419 1_455 S
C1157 H1161 0.930 . S
C1158 C1157 1.369 1_554 S
C1158 C1167 1.429 1_455 S
C1159 C1157 1.419 1_655 S
C1159 C1160 1.363 . S
C1159 H1162 0.929 . S
C1160 C1159 1.363 . S
C1160 C1166 1.428 1_556 S
H1161 C1157 0.930 . S
H1162 C1159 0.929 . S
S1163 N1164 1.613 . S
S1163 N1165 1.610 . S
N1164 S1163 1.613 . S
N1164 C1167 1.350 . S
N1165 S1163 1.610 . S
N1165 C1166 1.351 . S
C1166 C1160 1.428 1_554 S
C1166 N1165 1.351 . S
C1166 C1167 1.434 . S
C1167 C1158 1.429 1_655 S
C1167 N1164 1.350 . S
C1167 C1166 1.434 . S
C1168 C1169 1.369 . S
C1168 C1170 1.419 . S
C1168 H1172 0.930 . S
C1169 C1168 1.369 . S
C1169 C1178 1.429 . S
C1170 C1168 1.419 . S
C1170 C1171 1.363 . S
C1170 H1173 0.929 . S
C1171 C1170 1.363 . S
C1171 C1177 1.428 . S
H1172 C1168 0.930 . S
H1173 C1170 0.929 . S
S1174 N1175 1.613 . S
S1174 N1176 1.610 . S
N1175 S1174 1.613 . S
N1175 C1178 1.350 . S
N1176 S1174 1.610 . S
N1176 C1177 1.351 . S
C1177 C1171 1.428 . S
C1177 N1176 1.351 . S
C1177 C1178 1.434 . S
C1178 C1169 1.429 . S
C1178 N1175 1.350 . S
C1178 C1177 1.434 . S
C1179 C1180 1.369 . S
C1179 C1181 1.419 . S
C1179 H1183 0.930 . S
C1180 C1179 1.369 . S
C1180 C1189 1.429 . S
C1181 C1179 1.419 . S
C1181 C1182 1.363 . S
C1181 H1184 0.929 . S
C1182 C1181 1.363 . S
C1182 C1188 1.428 . S
H1183 C1179 0.930 . S
H1184 C1181 0.929 . S
S1185 N1186 1.613 . S
S1185 N1187 1.610 . S
N1186 S1185 1.613 . S
N1186 C1189 1.350 . S
N1187 S1185 1.610 . S
N1187 C1188 1.351 . S
C1188 C1182 1.428 . S
C1188 N1187 1.351 . S
C1188 C1189 1.434 . S
C1189 C1180 1.429 . S
C1189 N1186 1.350 . S
C1189 C1188 1.434 . S
C1190 C1191 1.369 1_565 S
C1190 C1192 1.419 . S
C1190 H1194 0.930 1_565 S
C1191 C1190 1.369 1_545 S
C1191 C1200 1.429 1_545 S
C1192 C1190 1.419 . S
C1192 C1193 1.363 . S
C1192 H1195 0.929 . S
C1193 C1192 1.363 . S
C1193 C1199 1.428 . S
H1194 C1190 0.930 1_545 S
H1195 C1192 0.929 . S
S1196 N1197 1.613 . S
S1196 N1198 1.610 . S
N1197 S1196 1.613 . S
N1197 C1200 1.350 . S
N1198 S1196 1.610 . S
N1198 C1199 1.351 . S
C1199 C1193 1.428 . S
C1199 N1198 1.351 . S
C1199 C1200 1.434 . S
C1200 C1191 1.429 1_565 S
C1200 N1197 1.350 . S
C1200 C1199 1.434 . S
C1201 C1202 1.369 . S
C1201 C1203 1.419 . S
C1201 H1205 0.930 . S
C1202 C1201 1.369 . S
C1202 C1211 1.429 . S
C1203 C1201 1.419 . S
C1203 C1204 1.363 . S
C1203 H1206 0.929 . S
C1204 C1203 1.363 . S
C1204 C1210 1.428 . S
H1205 C1201 0.930 . S
H1206 C1203 0.929 . S
S1207 N1208 1.613 . S
S1207 N1209 1.610 . S
N1208 S1207 1.613 . S
N1208 C1211 1.350 . S
N1209 S1207 1.610 . S
N1209 C1210 1.351 . S
C1210 C1204 1.428 . S
C1210 N1209 1.351 . S
C1210 C1211 1.434 . S
C1211 C1202 1.429 . S
C1211 N1208 1.350 . S
C1211 C1210 1.434 . S
C1212 C1213 1.369 . S
C1212 C1214 1.419 . S
C1212 H1216 0.930 . S
C1213 C1212 1.369 . S
C1213 C1222 1.429 . S
C1214 C1212 1.419 . S
C1214 C1215 1.363 . S
C1214 H1217 0.929 . S
C1215 C1214 1.363 . S
C1215 C1221 1.428 . S
H1216 C1212 0.930 . S
H1217 C1214 0.929 . S
S1218 N1219 1.613 . S
S1218 N1220 1.610 . S
N1219 S1218 1.613 . S
N1219 C1222 1.350 . S
N1220 S1218 1.610 . S
N1220 C1221 1.351 . S
C1221 C1215 1.428 . S
C1221 N1220 1.351 . S
C1221 C1222 1.434 . S
C1222 C1213 1.429 . S
C1222 N1219 1.350 . S
C1222 C1221 1.434 . S
C1223 C1224 1.369 . S
C1223 C1225 1.419 . S
C1223 H1227 0.930 . S
C1224 C1223 1.369 . S
C1224 C1233 1.429 . S
C1225 C1223 1.419 . S
C1225 C1226 1.363 . S
C1225 H1228 0.929 . S
C1226 C1225 1.363 . S
C1226 C1232 1.428 . S
H1227 C1223 0.930 . S
H1228 C1225 0.929 . S
S1229 N1230 1.613 . S
S1229 N1231 1.610 . S
N1230 S1229 1.613 . S
N1230 C1233 1.350 . S
N1231 S1229 1.610 . S
N1231 C1232 1.351 . S
C1232 C1226 1.428 . S
C1232 N1231 1.351 . S
C1232 C1233 1.434 . S
C1233 C1224 1.429 . S
C1233 N1230 1.350 . S
C1233 C1232 1.434 . S
C1234 C1235 1.369 . S
C1234 C1236 1.419 . S
C1234 H1238 0.930 . S
C1235 C1234 1.369 . S
C1235 C1244 1.429 . S
C1236 C1234 1.419 . S
C1236 C1237 1.363 . S
C1236 H1239 0.929 . S
C1237 C1236 1.363 . S
C1237 C1243 1.428 . S
H1238 C1234 0.930 . S
H1239 C1236 0.929 . S
S1240 N1241 1.613 . S
S1240 N1242 1.610 . S
N1241 S1240 1.613 . S
N1241 C1244 1.350 . S
N1242 S1240 1.610 . S
N1242 C1243 1.351 . S
C1243 C1237 1.428 . S
C1243 N1242 1.351 . S
C1243 C1244 1.434 . S
C1244 C1235 1.429 . S
C1244 N1241 1.350 . S
C1244 C1243 1.434 . S
C1245 C1246 1.369 . S
C1245 C1247 1.419 . S
C1245 H1249 0.930 . S
C1246 C1245 1.369 . S
C1246 C1255 1.429 . S
C1247 C1245 1.419 . S
C1247 C1248 1.363 . S
C1247 H1250 0.929 . S
C1248 C1247 1.363 . S
C1248 C1254 1.428 . S
H1249 C1245 0.930 . S
H1250 C1247 0.929 . S
S1251 N1252 1.613 . S
S1251 N1253 1.610 . S
N1252 S1251 1.613 . S
N1252 C1255 1.350 . S
N1253 S1251 1.610 . S
N1253 C1254 1.351 . S
C1254 C1248 1.428 . S
C1254 N1253 1.351 . S
C1254 C1255 1.434 . S
C1255 C1246 1.429 . S
C1255 N1252 1.350 . S
C1255 C1254 1.434 . S
C1256 C1257 1.369 . S
C1256 C1258 1.419 . S
C1256 H1260 0.930 . S
C1257 C1256 1.369 . S
C1257 C1266 1.429 . S
C1258 C1256 1.419 . S
C1258 C1259 1.363 . S
C1258 H1261 0.929 . S
C1259 C1258 1.363 . S
C1259 C1265 1.428 . S
H1260 C1256 0.930 . S
H1261 C1258 0.929 . S
S1262 N1263 1.613 . S
S1262 N1264 1.610 . S
N1263 S1262 1.613 . S
N1263 C1266 1.350 . S
N1264 S1262 1.610 . S
N1264 C1265 1.351 . S
C1265 C1259 1.428 . S
C1265 N1264 1.351 . S
C1265 C1266 1.434 . S
C1266 C1257 1.429 . S
C1266 N1263 1.350 . S
C1266 C1265 1.434 . S
C1267 C1268 1.369 . S
C1267 C1269 1.419 . S
C1267 H1271 0.930 . S
C1268 C1267 1.369 . S
C1268 C1277 1.429 . S
C1269 C1267 1.419 . S
C1269 C1270 1.363 . S
C1269 H1272 0.929 . S
C1270 C1269 1.363 . S
C1270 C1276 1.428 . S
H1271 C1267 0.930 . S
H1272 C1269 0.929 . S
S1273 N1274 1.613 . S
S1273 N1275 1.610 . S
N1274 S1273 1.613 . S
N1274 C1277 1.350 . S
N1275 S1273 1.610 . S
N1275 C1276 1.351 . S
C1276 C1270 1.428 . S
C1276 N1275 1.351 . S
C1276 C1277 1.434 . S
C1277 C1268 1.429 . S
C1277 N1274 1.350 . S
C1277 C1276 1.434 . S
C1278 C1279 1.369 . S
C1278 C1280 1.419 . S
C1278 H1282 0.930 . S
C1279 C1278 1.369 . S
C1279 C1288 1.429 . S
C1280 C1278 1.419 . S
C1280 C1281 1.363 . S
C1280 H1283 0.929 . S
C1281 C1280 1.363 . S
C1281 C1287 1.428 . S
H1282 C1278 0.930 . S
H1283 C1280 0.929 . S
S1284 N1285 1.613 . S
S1284 N1286 1.610 . S
N1285 S1284 1.613 . S
N1285 C1288 1.350 . S
N1286 S1284 1.610 . S
N1286 C1287 1.351 . S
C1287 C1281 1.428 . S
C1287 N1286 1.351 . S
C1287 C1288 1.434 . S
C1288 C1279 1.429 . S
C1288 N1285 1.350 . S
C1288 C1287 1.434 . S
C1289 C1290 1.369 . S
C1289 C1291 1.419 . S
C1289 H1293 0.930 . S
C1290 C1289 1.369 . S
C1290 C1299 1.429 . S
C1291 C1289 1.419 . S
C1291 C1292 1.363 . S
C1291 H1294 0.929 . S
C1292 C1291 1.363 . S
C1292 C1298 1.428 . S
H1293 C1289 0.930 . S
H1294 C1291 0.929 . S
S1295 N1296 1.613 . S
S1295 N1297 1.610 . S
N1296 S1295 1.613 . S
N1296 C1299 1.350 . S
N1297 S1295 1.610 . S
N1297 C1298 1.351 . S
C1298 C1292 1.428 . S
C1298 N1297 1.351 . S
C1298 C1299 1.434 . S
C1299 C1290 1.429 . S
C1299 N1296 1.350 . S
C1299 C1298 1.434 . S
C1300 C1301 1.369 . S
C1300 C1302 1.419 . S
C1300 H1304 0.930 . S
C1301 C1300 1.369 . S
C1301 C1310 1.429 . S
C1302 C1300 1.419 . S
C1302 C1303 1.363 . S
C1302 H1305 0.929 . S
C1303 C1302 1.363 . S
C1303 C1309 1.428 . S
H1304 C1300 0.930 . S
H1305 C1302 0.929 . S
S1306 N1307 1.613 . S
S1306 N1308 1.610 . S
N1307 S1306 1.613 . S
N1307 C1310 1.350 . S
N1308 S1306 1.610 . S
N1308 C1309 1.351 . S
C1309 C1303 1.428 . S
C1309 N1308 1.351 . S
C1309 C1310 1.434 . S
C1310 C1301 1.429 . S
C1310 N1307 1.350 . S
C1310 C1309 1.434 . S
C1311 C1312 1.369 . S
C1311 C1313 1.419 . S
C1311 H1315 0.930 . S
C1312 C1311 1.369 . S
C1312 C1321 1.429 . S
C1313 C1311 1.419 . S
C1313 C1314 1.363 . S
C1313 H1316 0.929 . S
C1314 C1313 1.363 . S
C1314 C1320 1.428 . S
H1315 C1311 0.930 . S
H1316 C1313 0.929 . S
S1317 N1318 1.613 . S
S1317 N1319 1.610 . S
N1318 S1317 1.613 . S
N1318 C1321 1.350 . S
N1319 S1317 1.610 . S
N1319 C1320 1.351 . S
C1320 C1314 1.428 . S
C1320 N1319 1.351 . S
C1320 C1321 1.434 . S
C1321 C1312 1.429 . S
C1321 N1318 1.350 . S
C1321 C1320 1.434 . S
C1322 C1323 1.369 . S
C1322 C1324 1.419 . S
C1322 H1326 0.930 . S
C1323 C1322 1.369 . S
C1323 C1332 1.429 . S
C1324 C1322 1.419 . S
C1324 C1325 1.363 . S
C1324 H1327 0.929 . S
C1325 C1324 1.363 . S
C1325 C1331 1.428 . S
H1326 C1322 0.930 . S
H1327 C1324 0.929 . S
S1328 N1329 1.613 . S
S1328 N1330 1.610 . S
N1329 S1328 1.613 . S
N1329 C1332 1.350 . S
N1330 S1328 1.610 . S
N1330 C1331 1.351 . S
C1331 C1325 1.428 . S
C1331 N1330 1.351 . S
C1331 C1332 1.434 . S
C1332 C1323 1.429 . S
C1332 N1329 1.350 . S
C1332 C1331 1.434 . S
C1333 C1334 1.369 . S
C1333 C1335 1.419 . S
C1333 H1337 0.930 . S
C1334 C1333 1.369 . S
C1334 C1343 1.429 . S
C1335 C1333 1.419 . S
C1335 C1336 1.363 . S
C1335 H1338 0.929 . S
C1336 C1335 1.363 . S
C1336 C1342 1.428 . S
H1337 C1333 0.930 . S
H1338 C1335 0.929 . S
S1339 N1340 1.613 . S
S1339 N1341 1.610 . S
N1340 S1339 1.613 . S
N1340 C1343 1.350 . S
N1341 S1339 1.610 . S
N1341 C1342 1.351 . S
C1342 C1336 1.428 . S
C1342 N1341 1.351 . S
C1342 C1343 1.434 . S
C1343 C1334 1.429 . S
C1343 N1340 1.350 . S
C1343 C1342 1.434 . S
C1344 C1345 1.369 . S
C1344 C1346 1.419 . S
C1344 H1348 0.930 . S
C1345 C1344 1.369 . S
C1345 C1354 1.429 . S
C1346 C1344 1.419 . S
C1346 C1347 1.363 . S
C1346 H1349 0.929 . S
C1347 C1346 1.363 . S
C1347 C1353 1.428 . S
H1348 C1344 0.930 . S
H1349 C1346 0.929 . S
S1350 N1351 1.613 . S
S1350 N1352 1.610 . S
N1351 S1350 1.613 . S
N1351 C1354 1.350 . S
N1352 S1350 1.610 . S
N1352 C1353 1.351 . S
C1353 C1347 1.428 . S
C1353 N1352 1.351 . S
C1353 C1354 1.434 . S
C1354 C1345 1.429 . S
C1354 N1351 1.350 . S
C1354 C1353 1.434 . S
C1355 C1356 1.369 . S
C1355 C1357 1.419 . S
C1355 H1359 0.930 . S
C1356 C1355 1.369 . S
C1356 C1365 1.429 . S
C1357 C1355 1.419 . S
C1357 C1358 1.363 . S
C1357 H1360 0.929 . S
C1358 C1357 1.363 . S
C1358 C1364 1.428 . S
H1359 C1355 0.930 . S
H1360 C1357 0.929 . S
S1361 N1362 1.613 . S
S1361 N1363 1.610 . S
N1362 S1361 1.613 . S
N1362 C1365 1.350 . S
N1363 S1361 1.610 . S
N1363 C1364 1.351 . S
C1364 C1358 1.428 . S
C1364 N1363 1.351 . S
C1364 C1365 1.434 . S
C1365 C1356 1.429 . S
C1365 N1362 1.350 . S
C1365 C1364 1.434 . S
C1366 C1367 1.369 . S
C1366 C1368 1.419 . S
C1366 H1370 0.930 . S
C1367 C1366 1.369 . S
C1367 C1376 1.429 . S
C1368 C1366 1.419 . S
C1368 C1369 1.363 . S
C1368 H1371 0.929 . S
C1369 C1368 1.363 . S
C1369 C1375 1.428 . S
H1370 C1366 0.930 . S
H1371 C1368 0.929 . S
S1372 N1373 1.613 . S
S1372 N1374 1.610 . S
N1373 S1372 1.613 . S
N1373 C1376 1.350 . S
N1374 S1372 1.610 . S
N1374 C1375 1.351 . S
C1375 C1369 1.428 . S
C1375 N1374 1.351 . S
C1375 C1376 1.434 . S
C1376 C1367 1.429 . S
C1376 N1373 1.350 . S
C1376 C1375 1.434 . S
C1377 C1378 1.369 . S
C1377 C1379 1.419 . S
C1377 H1381 0.930 . S
C1378 C1377 1.369 . S
C1378 C1387 1.429 . S
C1379 C1377 1.419 . S
C1379 C1380 1.363 . S
C1379 H1382 0.929 . S
C1380 C1379 1.363 . S
C1380 C1386 1.428 . S
H1381 C1377 0.930 . S
H1382 C1379 0.929 . S
S1383 N1384 1.613 . S
S1383 N1385 1.610 . S
N1384 S1383 1.613 . S
N1384 C1387 1.350 . S
N1385 S1383 1.610 . S
N1385 C1386 1.351 . S
C1386 C1380 1.428 . S
C1386 N1385 1.351 . S
C1386 C1387 1.434 . S
C1387 C1378 1.429 . S
C1387 N1384 1.350 . S
C1387 C1386 1.434 . S
C1388 C1389 1.369 . S
C1388 C1390 1.419 . S
C1388 H1392 0.930 . S
C1389 C1388 1.369 . S
C1389 C1398 1.429 . S
C1390 C1388 1.419 . S
C1390 C1391 1.363 . S
C1390 H1393 0.929 . S
C1391 C1390 1.363 . S
C1391 C1397 1.428 . S
H1392 C1388 0.930 . S
H1393 C1390 0.929 . S
S1394 N1395 1.613 . S
S1394 N1396 1.610 . S
N1395 S1394 1.613 . S
N1395 C1398 1.350 . S
N1396 S1394 1.610 . S
N1396 C1397 1.351 . S
C1397 C1391 1.428 . S
C1397 N1396 1.351 . S
C1397 C1398 1.434 . S
C1398 C1389 1.429 . S
C1398 N1395 1.350 . S
C1398 C1397 1.434 . S
C1399 C1400 1.369 . S
C1399 C1401 1.419 . S
C1399 H1403 0.930 . S
C1400 C1399 1.369 . S
C1400 C1409 1.429 . S
C1401 C1399 1.419 . S
C1401 C1402 1.363 . S
C1401 H1404 0.929 . S
C1402 C1401 1.363 . S
C1402 C1408 1.428 . S
H1403 C1399 0.930 . S
H1404 C1401 0.929 . S
S1405 N1406 1.613 . S
S1405 N1407 1.610 . S
N1406 S1405 1.613 . S
N1406 C1409 1.350 . S
N1407 S1405 1.610 . S
N1407 C1408 1.351 . S
C1408 C1402 1.428 . S
C1408 N1407 1.351 . S
C1408 C1409 1.434 . S
C1409 C1400 1.429 . S
C1409 N1406 1.350 . S
C1409 C1408 1.434 . S
C1410 C1411 1.369 . S
C1410 C1412 1.419 . S
C1410 H1414 0.930 . S
C1411 C1410 1.369 . S
C1411 C1420 1.429 . S
C1412 C1410 1.419 . S
C1412 C1413 1.363 . S
C1412 H1415 0.929 . S
C1413 C1412 1.363 . S
C1413 C1419 1.428 . S
H1414 C1410 0.930 . S
H1415 C1412 0.929 . S
S1416 N1417 1.613 . S
S1416 N1418 1.610 . S
N1417 S1416 1.613 . S
N1417 C1420 1.350 . S
N1418 S1416 1.610 . S
N1418 C1419 1.351 . S
C1419 C1413 1.428 . S
C1419 N1418 1.351 . S
C1419 C1420 1.434 . S
C1420 C1411 1.429 . S
C1420 N1417 1.350 . S
C1420 C1419 1.434 . S
C1421 C1422 1.369 . S
C1421 C1423 1.419 . S
C1421 H1425 0.930 . S
C1422 C1421 1.369 . S
C1422 C1431 1.429 . S
C1423 C1421 1.419 . S
C1423 C1424 1.363 . S
C1423 H1426 0.929 . S
C1424 C1423 1.363 . S
C1424 C1430 1.428 . S
H1425 C1421 0.930 . S
H1426 C1423 0.929 . S
S1427 N1428 1.613 . S
S1427 N1429 1.610 . S
N1428 S1427 1.613 . S
N1428 C1431 1.350 . S
N1429 S1427 1.610 . S
N1429 C1430 1.351 . S
C1430 C1424 1.428 . S
C1430 N1429 1.351 . S
C1430 C1431 1.434 . S
C1431 C1422 1.429 . S
C1431 N1428 1.350 . S
C1431 C1430 1.434 . S
C1432 C1433 1.369 . S
C1432 C1434 1.419 . S
C1432 H1436 0.930 . S
C1433 C1432 1.369 . S
C1433 C1442 1.429 . S
C1434 C1432 1.419 . S
C1434 C1435 1.363 . S
C1434 H1437 0.929 . S
C1435 C1434 1.363 . S
C1435 C1441 1.428 . S
H1436 C1432 0.930 . S
H1437 C1434 0.929 . S
S1438 N1439 1.613 . S
S1438 N1440 1.610 . S
N1439 S1438 1.613 . S
N1439 C1442 1.350 . S
N1440 S1438 1.610 . S
N1440 C1441 1.351 . S
C1441 C1435 1.428 . S
C1441 N1440 1.351 . S
C1441 C1442 1.434 . S
C1442 C1433 1.429 . S
C1442 N1439 1.350 . S
C1442 C1441 1.434 . S
C1443 C1444 1.369 . S
C1443 C1445 1.419 . S
C1443 H1447 0.930 . S
C1444 C1443 1.369 . S
C1444 C1453 1.429 . S
C1445 C1443 1.419 . S
C1445 C1446 1.363 . S
C1445 H1448 0.929 . S
C1446 C1445 1.363 . S
C1446 C1452 1.428 . S
H1447 C1443 0.930 . S
H1448 C1445 0.929 . S
S1449 N1450 1.613 . S
S1449 N1451 1.610 . S
N1450 S1449 1.613 . S
N1450 C1453 1.350 . S
N1451 S1449 1.610 . S
N1451 C1452 1.351 . S
C1452 C1446 1.428 . S
C1452 N1451 1.351 . S
C1452 C1453 1.434 . S
C1453 C1444 1.429 . S
C1453 N1450 1.350 . S
C1453 C1452 1.434 . S
C1454 C1455 1.369 . S
C1454 C1456 1.419 . S
C1454 H1458 0.930 . S
C1455 C1454 1.369 . S
C1455 C1464 1.429 . S
C1456 C1454 1.419 . S
C1456 C1457 1.363 . S
C1456 H1459 0.929 . S
C1457 C1456 1.363 . S
C1457 C1463 1.428 . S
H1458 C1454 0.930 . S
H1459 C1456 0.929 . S
S1460 N1461 1.613 . S
S1460 N1462 1.610 . S
N1461 S1460 1.613 . S
N1461 C1464 1.350 . S
N1462 S1460 1.610 . S
N1462 C1463 1.351 . S
C1463 C1457 1.428 . S
C1463 N1462 1.351 . S
C1463 C1464 1.434 . S
C1464 C1455 1.429 . S
C1464 N1461 1.350 . S
C1464 C1463 1.434 . S
C1465 C1466 1.369 . S
C1465 C1467 1.419 . S
C1465 H1469 0.930 . S
C1466 C1465 1.369 . S
C1466 C1475 1.429 . S
C1467 C1465 1.419 . S
C1467 C1468 1.363 . S
C1467 H1470 0.929 . S
C1468 C1467 1.363 . S
C1468 C1474 1.428 . S
H1469 C1465 0.930 . S
H1470 C1467 0.929 . S
S1471 N1472 1.613 . S
S1471 N1473 1.610 . S
N1472 S1471 1.613 . S
N1472 C1475 1.350 . S
N1473 S1471 1.610 . S
N1473 C1474 1.351 . S
C1474 C1468 1.428 . S
C1474 N1473 1.351 . S
C1474 C1475 1.434 . S
C1475 C1466 1.429 . S
C1475 N1472 1.350 . S
C1475 C1474 1.434 . S
C951 C334 1.157 . S
C949 N2 1.280 . S
C962 C434 2.039 . S
C960 C7 2.045 . S
C973 C514 1.204 . S
C971 N12 1.450 . S
C982 C16 1.826 . S
C984 C591 1.878 . S
C995 C675 2.095 . S
C993 C30 2.103 1_565 S
C1006 C754 1.038 . S
C1004 N35 1.327 . S
C1015 C39 2.003 . S
C1017 C854 1.991 . S
C1028 C934 1.123 . S
C1026 N25 1.174 1_565 S
C1039 C332 1.246 . S
C1037 N58 1.286 . S
C1048 N81 2.010 . S
C1050 C427 2.015 . S
C1061 C518 1.384 . S
C1059 N104 1.239 . S
C1070 N127 1.330 . S
C1072 C586 0.965 . S
C1083 C670 0.851 . S
C1081 N48 1.145 . S
C1094 C752 1.478 . S
C1092 N71 1.383 1_556 S
C1103 N94 1.697 . S
C1105 C847 1.731 . S
C1116 C938 1.557 . S
C1114 N117 1.503 . S
C1125 C85 2.286 . S
C1127 C339 2.282 . S
C1136 C122 2.509 . S
C1138 C668 2.499 . S
C1147 C53 1.993 . S
C1149 C759 2.086 . S
C1160 C850 1.241 . S
C1158 C76 1.549 . S
C1171 C931 1.979 . S
C1169 C99 2.097 . S
C1182 C511 2.028 . S
C1180 C131 2.069 . S
C1193 C584 2.216 . S
C1191 C62 2.236 . S
C1202 C108 1.331 . S
C1204 C430 1.069 . S
C1215 C922 1.137 . S
C1213 N140 1.328 . S
C1224 C145 2.038 . S
C1226 C686 2.028 . S
C1237 C766 1.132 . S
C1235 N150 1.310 . S
C1246 C154 1.830 . S
C1248 C843 1.880 . S
C1259 C423 2.099 . S
C1257 C168 2.110 . S
C1268 N173 1.174 . S
C1270 C502 0.972 . S
C1281 C602 1.998 . S
C1279 C177 2.016 . S
C1292 C346 1.096 . S
C1290 N163 1.159 . S
C1303 C920 1.661 . S
C1301 C200 1.711 . S
C1314 C679 2.290 . S
C1312 N219 2.289 . S
C1323 N242 1.518 . S
C1325 C770 1.662 . S
C1336 C838 1.197 . S
C1334 C269 1.600 . S
C1347 C418 1.012 . S
C1345 C191 1.368 . S
C1356 N209 1.650 . S
C1358 C500 1.753 . S
C1367 N232 1.982 . S
C1369 C595 2.021 . S
C1378 C260 2.039 . S
C1380 C350 2.041 . S
C1389 C223 1.968 . S
C1391 C927 1.963 . S
C1400 N255 2.133 . S
C1402 C416 2.112 . S
C1411 N186 1.672 . S
C1413 C507 1.768 . S
C1424 C598 1.012 . S
C1422 C214 1.236 . S
C1435 C343 1.691 . S
C1433 C237 1.784 . S
C1446 C763 1.673 . S
C1444 N265 1.571 . S
C1457 C836 1.840 . S
C1455 N196 1.817 . S
C1468 C682 0.880 . S
C1466 C246 1.021 . S
