# Generated by pormake.
# Topology pyr, (3,6)-cn, num edge types: 1
# Building blocks:
#     Node 0, Type 0, BuildingBlock: WUSLED_clean_sbu_0, # of connection points: 3
#     Node 1, Type 0, BuildingBlock: WUSLED_clean_sbu_0, # of connection points: 3
#     Node 2, Type 0, BuildingBlock: WUSLED_clean_sbu_0, # of connection points: 3
#     Node 3, Type 0, BuildingBlock: WUSLED_clean_sbu_0, # of connection points: 3
#     Node 4, Type 0, BuildingBlock: WUSLED_clean_sbu_0, # of connection points: 3
#     Node 5, Type 0, BuildingBlock: WUSLED_clean_sbu_0, # of connection points: 3
#     Node 6, Type 0, BuildingBlock: WUSLED_clean_sbu_0, # of connection points: 3
#     Node 7, Type 0, BuildingBlock: WUSLED_clean_sbu_0, # of connection points: 3
#     Node 8, Type 1, BuildingBlock: LEVNOQ01_clean_sbu_1, # of connection points: 6
#     Node 9, Type 1, BuildingBlock: LEVNOQ01_clean_sbu_1, # of connection points: 6
#     Node 10, Type 1, BuildingBlock: LEVNOQ01_clean_sbu_1, # of connection points: 6
#     Node 11, Type 1, BuildingBlock: LEVNOQ01_clean_sbu_1, # of connection points: 6
#     Edge 12, Type (0, 1), BuildingBlock: MIFKUJ_clean_linker_0, # of connection points: 2
#     Edge 13, Type (0, 1), BuildingBlock: MIFKUJ_clean_linker_0, # of connection points: 2
#     Edge 14, Type (0, 1), BuildingBlock: MIFKUJ_clean_linker_0, # of connection points: 2
#     Edge 15, Type (0, 1), BuildingBlock: MIFKUJ_clean_linker_0, # of connection points: 2
#     Edge 16, Type (0, 1), BuildingBlock: MIFKUJ_clean_linker_0, # of connection points: 2
#     Edge 17, Type (0, 1), BuildingBlock: MIFKUJ_clean_linker_0, # of connection points: 2
#     Edge 18, Type (0, 1), BuildingBlock: MIFKUJ_clean_linker_0, # of connection points: 2
#     Edge 19, Type (0, 1), BuildingBlock: MIFKUJ_clean_linker_0, # of connection points: 2
#     Edge 20, Type (0, 1), BuildingBlock: MIFKUJ_clean_linker_0, # of connection points: 2
#     Edge 21, Type (0, 1), BuildingBlock: MIFKUJ_clean_linker_0, # of connection points: 2
#     Edge 22, Type (0, 1), BuildingBlock: MIFKUJ_clean_linker_0, # of connection points: 2
#     Edge 23, Type (0, 1), BuildingBlock: MIFKUJ_clean_linker_0, # of connection points: 2
#     Edge 24, Type (0, 1), BuildingBlock: MIFKUJ_clean_linker_0, # of connection points: 2
#     Edge 25, Type (0, 1), BuildingBlock: MIFKUJ_clean_linker_0, # of connection points: 2
#     Edge 26, Type (0, 1), BuildingBlock: MIFKUJ_clean_linker_0, # of connection points: 2
#     Edge 27, Type (0, 1), BuildingBlock: MIFKUJ_clean_linker_0, # of connection points: 2
#     Edge 28, Type (0, 1), BuildingBlock: MIFKUJ_clean_linker_0, # of connection points: 2
#     Edge 29, Type (0, 1), BuildingBlock: MIFKUJ_clean_linker_0, # of connection points: 2
#     Edge 30, Type (0, 1), BuildingBlock: MIFKUJ_clean_linker_0, # of connection points: 2
#     Edge 31, Type (0, 1), BuildingBlock: MIFKUJ_clean_linker_0, # of connection points: 2
#     Edge 32, Type (0, 1), BuildingBlock: MIFKUJ_clean_linker_0, # of connection points: 2
#     Edge 33, Type (0, 1), BuildingBlock: MIFKUJ_clean_linker_0, # of connection points: 2
#     Edge 34, Type (0, 1), BuildingBlock: MIFKUJ_clean_linker_0, # of connection points: 2
#     Edge 35, Type (0, 1), BuildingBlock: MIFKUJ_clean_linker_0, # of connection points: 2
# Relax obj value: 0.034
# Max RMSD: 0.110
# Mean RMSD: 0.044
data_MOF--net-pry--node1-WUSLED_clean_sbu_0--node2-LEVNOQ01_clean_sbu_1--edge1-MIFKUJ_clean_linker_0
_symmetry_space_group_name_H-M    P1
_symmetry_Int_Tables_number       1
_symmetry_cell_setting            triclinic
loop_
_symmetry_equiv_pos_as_xyz
'x, y, z'
_cell_length_a     59.517885
_cell_length_b     57.611197
_cell_length_c     57.634449
_cell_angle_alpha  91.837555
_cell_angle_beta   91.444986
_cell_angle_gamma 94.156161
loop_
_atom_site_label
_atom_site_type_symbol
_atom_site_fract_x
_atom_site_fract_y
_atom_site_fract_z
_atom_type_partial_charge
C0 C 0.15642 0.22385 0.11849 0.0
C1 C 0.13753 0.23015 0.1307 0.0
C2 C 0.13182 0.26154 0.10386 0.0
C3 C 0.12537 0.24882 0.12347 0.0
C4 C 0.15084 0.25507 0.09185 0.0
C5 C 0.16293 0.23649 0.09907 0.0
U6 U 0.17177 0.17346 0.15814 0.0
O7 O 0.18284 0.13904 0.14776 0.0
O8 O 0.20555 0.16346 0.16883 0.0
C9 C 0.203 0.14323 0.15752 0.0
C10 C 0.16972 0.2043 0.12541 0.0
C11 C 0.22261 0.13578 0.14444 0.0
C12 C 0.24046 0.12384 0.10869 0.0
C13 C 0.2223 0.13312 0.12007 0.0
C14 C 0.25963 0.12019 0.14575 0.0
C15 C 0.25923 0.11686 0.12143 0.0
C16 C 0.24159 0.12949 0.15704 0.0
C17 C 0.13646 0.16119 0.21329 0.0
C18 C 0.14262 0.13279 0.24288 0.0
C19 C 0.11132 0.15719 0.24585 0.0
C20 C 0.11762 0.16782 0.22526 0.0
C21 C 0.12376 0.1396 0.25509 0.0
C22 C 0.14895 0.14353 0.22219 0.0
C23 C 0.1426 0.17334 0.19185 0.0
O24 O 0.18239 0.20771 0.14439 0.0
O25 O 0.15939 0.18333 0.1237 0.0
O26 O 0.13891 0.16147 0.17209 0.0
O27 O 0.16177 0.18621 0.19255 0.0
H28 H 0.13218 0.22062 0.14574 0.0
H29 H 0.11073 0.25309 0.13307 0.0
H30 H 0.15666 0.2646 0.07699 0.0
H31 H 0.17751 0.23202 0.08945 0.0
H32 H 0.23948 0.12147 0.08997 0.0
H33 H 0.20786 0.13776 0.10987 0.0
H34 H 0.27391 0.1155 0.15615 0.0
H35 H 0.24227 0.13133 0.17583 0.0
H36 H 0.15271 0.11944 0.2495 0.0
H37 H 0.09648 0.16263 0.25438 0.0
H38 H 0.10769 0.18134 0.21867 0.0
H39 H 0.16359 0.13816 0.21324 0.0
C40 C 0.29883 0.8709 0.60305 0.0
C41 C 0.27917 0.86923 0.61615 0.0
C42 C 0.25935 0.89104 0.58748 0.0
C43 C 0.25966 0.87918 0.60843 0.0
C44 C 0.27911 0.89297 0.57459 0.0
C45 C 0.29856 0.88292 0.58223 0.0
U46 U 0.35069 0.8626 0.64288 0.0
O47 O 0.36391 0.83007 0.65465 0.0
O48 O 0.38468 0.85376 0.63348 0.0
C49 C 0.38259 0.83338 0.64315 0.0
C50 C 0.31918 0.85905 0.60992 0.0
C51 C 0.38909 0.8133 0.62896 0.0
C52 C 0.39095 0.79199 0.59194 0.0
C53 C 0.38362 0.81077 0.60511 0.0
C54 C 0.40875 0.77782 0.62643 0.0
C55 C 0.40386 0.77542 0.6024 0.0
C56 C 0.40148 0.79657 0.63951 0.0
C57 C 0.36296 0.9043 0.69659 0.0
C58 C 0.38218 0.89815 0.73346 0.0
C59 C 0.37642 0.93734 0.72184 0.0
C60 C 0.36574 0.92839 0.70122 0.0
C61 C 0.38452 0.92234 0.7384 0.0
C62 C 0.37155 0.88921 0.71274 0.0
C63 C 0.34998 0.89553 0.67548 0.0
O64 O 0.33869 0.87095 0.60784 0.0
O65 O 0.31812 0.84702 0.62893 0.0
O66 O 0.33884 0.87504 0.67657 0.0
O67 O 0.35988 0.89866 0.65558 0.0
H68 H 0.2787 0.86003 0.63224 0.0
H69 H 0.24482 0.87764 0.61893 0.0
H70 H 0.27939 0.90175 0.55825 0.0
H71 H 0.31335 0.88425 0.57163 0.0
H72 H 0.38698 0.79078 0.57348 0.0
H73 H 0.37395 0.82345 0.59662 0.0
H74 H 0.4182 0.76517 0.63521 0.0
H75 H 0.40573 0.79811 0.65792 0.0
H76 H 0.38851 0.8861 0.74565 0.0
H77 H 0.37767 0.956 0.72512 0.0
H78 H 0.35919 0.94035 0.68905 0.0
H79 H 0.36974 0.87053 0.70953 0.0
C80 C 0.64129 0.3554 0.77815 0.0
C81 C 0.65304 0.37673 0.77374 0.0
C82 C 0.6306 0.37976 0.73812 0.0
C83 C 0.64773 0.38882 0.75389 0.0
C84 C 0.6189 0.35836 0.74274 0.0
C85 C 0.62422 0.34631 0.76257 0.0
U86 U 0.67481 0.34914 0.83465 0.0
O87 O 0.66439 0.33438 0.86772 0.0
O88 O 0.69066 0.3186 0.84775 0.0
C89 C 0.67752 0.31706 0.8657 0.0
C90 C 0.64687 0.34229 0.7987 0.0
C91 C 0.66695 0.29374 0.86974 0.0
C92 C 0.63556 0.26435 0.86533 0.0
C93 C 0.64556 0.28632 0.8603 0.0
C94 C 0.66852 0.25687 0.88868 0.0
C95 C 0.64684 0.24949 0.87983 0.0
C96 C 0.67843 0.27879 0.88371 0.0
C97 C 0.71851 0.3965 0.85675 0.0
C98 C 0.74147 0.39123 0.89142 0.0
C99 C 0.74867 0.42539 0.86851 0.0
C100 C 0.7309 0.41762 0.85323 0.0
C101 C 0.75439 0.41213 0.88759 0.0
C102 C 0.7237 0.38345 0.87608 0.0
C103 C 0.70095 0.38774 0.83964 0.0
O104 O 0.66723 0.33487 0.79928 0.0
O105 O 0.64104 0.3513 0.81873 0.0
O106 O 0.68033 0.38561 0.84735 0.0
O107 O 0.70606 0.36973 0.82678 0.0
H108 H 0.66634 0.38396 0.7856 0.0
H109 H 0.65721 0.40513 0.75076 0.0
H110 H 0.60537 0.35108 0.7312 0.0
H111 H 0.61497 0.32987 0.76576 0.0
H112 H 0.61879 0.25927 0.85838 0.0
H113 H 0.63648 0.29762 0.84936 0.0
H114 H 0.67786 0.24572 0.89953 0.0
H115 H 0.69504 0.28418 0.89098 0.0
H116 H 0.74556 0.38051 0.90581 0.0
H117 H 0.75807 0.44172 0.86526 0.0
H118 H 0.72707 0.42792 0.83843 0.0
H119 H 0.7143 0.36703 0.879 0.0
C120 C 0.80449 0.61389 0.37504 0.0
C121 C 0.79849 0.62629 0.39502 0.0
C122 C 0.76469 0.60017 0.39808 0.0
C123 C 0.77874 0.61949 0.40646 0.0
C124 C 0.77118 0.58747 0.37839 0.0
C125 C 0.79089 0.59431 0.36697 0.0
U126 U 0.85853 0.6527 0.36911 0.0
O127 O 0.89091 0.64478 0.3542 0.0
O128 O 0.8712 0.67146 0.33891 0.0
C129 C 0.88858 0.65878 0.33688 0.0
C130 C 0.8244 0.62161 0.362 0.0
C131 C 0.8914 0.64833 0.31361 0.0
C132 C 0.87774 0.62245 0.28135 0.0
C133 C 0.87489 0.6322 0.30354 0.0
C134 C 0.91366 0.6448 0.27913 0.0
C135 C 0.89717 0.62865 0.26884 0.0
C136 C 0.91077 0.65454 0.30129 0.0
C137 C 0.87675 0.69625 0.41954 0.0
C138 C 0.90067 0.73218 0.41803 0.0
C139 C 0.89199 0.71569 0.45517 0.0
C140 C 0.87913 0.69726 0.4438 0.0
C141 C 0.90267 0.73358 0.44247 0.0
C142 C 0.88787 0.71366 0.40667 0.0
C143 C 0.86179 0.67747 0.40827 0.0
O144 O 0.82455 0.64296 0.35462 0.0
O145 O 0.8439 0.6166 0.37099 0.0
O146 O 0.87027 0.65713 0.40568 0.0
O147 O 0.84991 0.68316 0.39003 0.0
H148 H 0.80886 0.64148 0.40149 0.0
H149 H 0.77414 0.62977 0.42143 0.0
H150 H 0.76096 0.57229 0.37171 0.0
H151 H 0.79535 0.58448 0.35163 0.0
H152 H 0.86461 0.61026 0.27389 0.0
H153 H 0.85978 0.62723 0.31284 0.0
H154 H 0.929 0.64967 0.2702 0.0
H155 H 0.92372 0.66689 0.30886 0.0
H156 H 0.90846 0.74574 0.40767 0.0
H157 H 0.89348 0.71595 0.47394 0.0
H158 H 0.87076 0.68393 0.45403 0.0
H159 H 0.8863 0.71319 0.38789 0.0
C160 C 0.86237 0.80389 0.89627 0.0
C161 C 0.87762 0.79341 0.88173 0.0
C162 C 0.88675 0.7666 0.91223 0.0
C163 C 0.88974 0.77497 0.88967 0.0
C164 C 0.87165 0.77749 0.92669 0.0
C165 C 0.85966 0.79585 0.9188 0.0
U166 U 0.84423 0.85238 0.85501 0.0
O167 O 0.80965 0.86081 0.84551 0.0
O168 O 0.83228 0.88649 0.86516 0.0
C169 C 0.81188 0.88132 0.85631 0.0
C170 C 0.84857 0.82276 0.88855 0.0
C171 C 0.79248 0.88825 0.87002 0.0
C172 C 0.77555 0.90071 0.90611 0.0
C173 C 0.7938 0.89218 0.89425 0.0
C174 C 0.75438 0.90123 0.8698 0.0
C175 C 0.7556 0.90553 0.89401 0.0
C176 C 0.77252 0.89271 0.85803 0.0
C177 C 0.87575 0.86559 0.79767 0.0
C178 C 0.89078 0.89935 0.77686 0.0
C179 C 0.87919 0.86354 0.75547 0.0
C180 C 0.87298 0.85313 0.77627 0.0
C181 C 0.88855 0.8867 0.75548 0.0
C182 C 0.88451 0.88896 0.79766 0.0
C183 C 0.87158 0.85324 0.81969 0.0
O184 O 0.85836 0.84398 0.88926 0.0
O185 O 0.83551 0.81827 0.86998 0.0
O186 O 0.85318 0.83921 0.8203 0.0
O187 O 0.87604 0.86506 0.83938 0.0
H188 H 0.87997 0.79932 0.86425 0.0
H189 H 0.90109 0.76696 0.87796 0.0
H190 H 0.86917 0.77193 0.94427 0.0
H191 H 0.84806 0.80372 0.93035 0.0
H192 H 0.77709 0.90352 0.92477 0.0
H193 H 0.809 0.88894 0.90399 0.0
H194 H 0.73959 0.90506 0.8597 0.0
H195 H 0.77113 0.8901 0.83933 0.0
H196 H 0.89758 0.91732 0.77757 0.0
H197 H 0.87741 0.85312 0.73947 0.0
H198 H 0.86658 0.83503 0.77568 0.0
H199 H 0.88699 0.89913 0.81377 0.0
C200 C 0.62738 0.15563 0.31978 0.0
C201 C 0.6358 0.13388 0.31499 0.0
C202 C 0.61399 0.12997 0.2784 0.0
C203 C 0.62916 0.12116 0.29448 0.0
C204 C 0.60602 0.152 0.28318 0.0
C205 C 0.61262 0.16463 0.30365 0.0
U206 U 0.66486 0.1703 0.37445 0.0
O207 O 0.67569 0.20443 0.39083 0.0
O208 O 0.655 0.179 0.41011 0.0
C209 C 0.66439 0.20034 0.40975 0.0
C210 C 0.63333 0.16907 0.34156 0.0
C211 C 0.6504 0.21893 0.41778 0.0
C212 C 0.621 0.24542 0.41127 0.0
C213 C 0.63365 0.22728 0.40335 0.0
C214 C 0.64154 0.24678 0.44816 0.0
C215 C 0.62489 0.25551 0.43375 0.0
C216 C 0.65414 0.22871 0.44023 0.0
C217 C 0.7171 0.13537 0.3848 0.0
C218 C 0.74256 0.13953 0.41865 0.0
C219 C 0.74938 0.11205 0.38738 0.0
C220 C 0.7303 0.1185 0.37532 0.0
C221 C 0.75569 0.12229 0.4093 0.0
C222 C 0.72336 0.146 0.4065 0.0
C223 C 0.69686 0.14126 0.37166 0.0
O224 O 0.63122 0.15756 0.36081 0.0
O225 O 0.65182 0.18298 0.34141 0.0
O226 O 0.69804 0.16168 0.36207 0.0
O227 O 0.67745 0.13613 0.38134 0.0
H228 H 0.64729 0.12664 0.32722 0.0
H229 H 0.63554 0.10422 0.29147 0.0
H230 H 0.5947 0.15959 0.27104 0.0
H231 H 0.60605 0.18145 0.30695 0.0
H232 H 0.60849 0.25183 0.39962 0.0
H233 H 0.63051 0.21994 0.38593 0.0
H234 H 0.64475 0.25381 0.46568 0.0
H235 H 0.66693 0.22241 0.45165 0.0
H236 H 0.74684 0.14767 0.43553 0.0
H237 H 0.7593 0.09908 0.37941 0.0
H238 H 0.7258 0.11022 0.35853 0.0
H239 H 0.71334 0.1591 0.41407 0.0
C240 C 0.29814 0.64305 0.16836 0.0
C241 C 0.28983 0.65817 0.15213 0.0
C242 C 0.2651 0.62641 0.13465 0.0
C243 C 0.27344 0.64994 0.13544 0.0
C244 C 0.27395 0.61125 0.15065 0.0
C245 C 0.29029 0.61953 0.16737 0.0
U246 U 0.3398 0.69078 0.19364 0.0
O247 O 0.34554 0.70435 0.2296 0.0
O248 O 0.37298 0.6892 0.21094 0.0
C249 C 0.36621 0.69778 0.23077 0.0
C250 C 0.31461 0.65176 0.18662 0.0
C251 C 0.37208 0.68525 0.25166 0.0
C252 C 0.3745 0.64952 0.27262 0.0
C253 C 0.36825 0.66098 0.25263 0.0
C254 C 0.388 0.68654 0.29092 0.0
C255 C 0.38461 0.66217 0.29196 0.0
C256 C 0.38182 0.69792 0.27095 0.0
C257 C 0.34907 0.74693 0.16044 0.0
C258 C 0.37914 0.77675 0.17007 0.0
C259 C 0.35065 0.78363 0.14081 0.0
C260 C 0.34012 0.76158 0.14422 0.0
C261 C 0.37039 0.79142 0.15355 0.0
C262 C 0.36853 0.7547 0.17354 0.0
C263 C 0.33815 0.7235 0.16311 0.0
O264 O 0.33563 0.65447 0.18014 0.0
O265 O 0.30853 0.66935 0.19951 0.0
O266 O 0.32416 0.72137 0.18032 0.0
O267 O 0.35143 0.70631 0.16134 0.0
H268 H 0.29577 0.67641 0.15261 0.0
H269 H 0.26685 0.66216 0.1236 0.0
H270 H 0.2682 0.59297 0.15031 0.0
H271 H 0.29664 0.60759 0.17967 0.0
H272 H 0.37185 0.63073 0.27273 0.0
H273 H 0.36066 0.6509 0.23789 0.0
H274 H 0.39535 0.69688 0.30559 0.0
H275 H 0.38474 0.71669 0.27055 0.0
H276 H 0.39419 0.78233 0.18031 0.0
H277 H 0.34365 0.79434 0.12773 0.0
H278 H 0.32513 0.75582 0.13396 0.0
H279 H 0.3756 0.74363 0.18625 0.0
C280 C 0.09801 0.33211 0.63728 0.0
C281 C 0.11052 0.32107 0.62041 0.0
C282 C 0.07741 0.29574 0.60838 0.0
C283 C 0.10033 0.303 0.60611 0.0
C284 C 0.06477 0.30761 0.62466 0.0
C285 C 0.07501 0.32558 0.63901 0.0
U286 U 0.14616 0.37704 0.6543 0.0
O287 O 0.14591 0.41116 0.67271 0.0
O288 O 0.16487 0.38357 0.68747 0.0
C289 C 0.15744 0.40434 0.6907 0.0
C290 C 0.10888 0.34977 0.65373 0.0
C291 C 0.14792 0.409 0.71358 0.0
C292 C 0.12573 0.39657 0.74642 0.0
C293 C 0.13408 0.39201 0.72437 0.0
C294 C 0.14459 0.43529 0.74691 0.0
C295 C 0.13094 0.41826 0.75802 0.0
C296 C 0.15302 0.43066 0.72495 0.0
C297 C 0.19385 0.38759 0.61161 0.0
C298 C 0.22685 0.41409 0.62014 0.0
C299 C 0.22333 0.3922 0.58345 0.0
C300 C 0.20256 0.38194 0.58998 0.0
C301 C 0.23578 0.40835 0.59846 0.0
C302 C 0.20603 0.40378 0.62666 0.0
C303 C 0.17223 0.37615 0.61825 0.0
O304 O 0.12792 0.34425 0.66343 0.0
O305 O 0.10962 0.37136 0.64694 0.0
O306 O 0.15547 0.38971 0.61999 0.0
O307 O 0.17334 0.36166 0.63532 0.0
H308 H 0.12831 0.32599 0.61873 0.0
H309 H 0.11064 0.29412 0.59397 0.0
H310 H 0.04702 0.30276 0.62661 0.0
H311 H 0.06506 0.33405 0.65181 0.0
H312 H 0.11547 0.38296 0.75449 0.0
H313 H 0.12988 0.37517 0.71584 0.0
H314 H 0.14858 0.45234 0.75506 0.0
H315 H 0.16356 0.44403 0.71682 0.0
H316 H 0.23588 0.42664 0.63201 0.0
H317 H 0.22984 0.38713 0.5668 0.0
H318 H 0.19338 0.36939 0.57821 0.0
H319 H 0.19948 0.40836 0.64344 0.0
O320 O 0.01201 0.00572 0.56583 0.0
Mg321 Mg 0.02941 0.02759 0.54279 0.0
O322 O 0.98783 0.99478 0.5376 0.0
Mg323 Mg 0.00634 0.01117 0.50486 0.0
O324 O 0.01321 0.04968 0.52181 0.0
O325 O 0.02993 0.0598 0.55658 0.0
O326 O 0.02519 0.02798 0.4721 0.0
O327 O 0.97139 0.02576 0.4947 0.0
Mg328 Mg 0.98861 0.99046 0.45885 0.0
O329 O 0.9977 0.97388 0.48816 0.0
O330 O 0.01503 0.00641 0.4407 0.0
O331 O 0.95864 0.00725 0.46227 0.0
O332 O 0.98541 0.95543 0.45484 0.0
C333 C 0.06048 1.00198 0.52256 0.0
C334 C 0.99396 0.99442 0.55901 0.0
C335 C 0.01958 0.0654 0.53792 0.0
C336 C 0.02711 0.02305 0.4504 0.0
C337 C 0.95611 0.02179 0.47877 0.0
C338 C 0.99228 0.95463 0.4762 0.0
O339 O 0.062 0.02079 0.53436 0.0
O340 O 0.04142 0.99451 0.51343 0.0
O341 O 0.46805 0.05593 0.00686 0.0
Mg342 Mg 0.50175 0.0545 0.01656 0.0
O343 O 0.47203 0.02301 0.02353 0.0
Mg344 Mg 0.50884 0.01229 0.00989 0.0
O345 O 0.52354 0.04651 0.99096 0.0
O346 O 0.51898 0.08276 1.00501 0.0
O347 O 0.54435 0.99975 0.99686 0.0
O348 O 0.48949 1.00262 0.97337 0.0
Mg349 Mg 0.50508 0.96315 0.99815 0.0
O350 O 0.49749 0.97812 0.02944 0.0
O351 O 0.53839 0.9623 0.98805 0.0
O352 O 0.4807 0.96479 0.97208 0.0
O353 O 0.49688 0.93947 0.02179 0.0
C354 C 0.52311 0.03946 0.05942 0.0
C355 C 0.45936 0.03908 0.01768 0.0
C356 C 0.52806 0.06898 0.99059 0.0
C357 C 0.55148 0.98057 0.98917 0.0
C358 C 0.47923 0.98449 0.96345 0.0
C359 C 0.49329 0.95671 0.03572 0.0
O360 O 0.51001 0.05426 0.05255 0.0
O361 O 0.52762 0.02285 0.04557 0.0
O362 O 0.50123 0.56415 0.5508 0.0
Mg363 Mg 0.49983 0.52892 0.55711 0.0
O364 O 0.49412 0.5526 0.51453 0.0
Mg365 Mg 0.50317 0.51284 0.51014 0.0
O366 O 0.52462 0.50909 0.54521 0.0
O367 O 0.52233 0.52301 0.58201 0.0
O368 O 0.5123 0.47343 0.50475 0.0
O369 O 0.53703 0.52591 0.49384 0.0
Mg370 Mg 0.50267 0.49378 0.45888 0.0
O371 O 0.48341 0.51625 0.47549 0.0
O372 O 0.49893 0.4598 0.47055 0.0
O373 O 0.53568 0.51066 0.45783 0.0
O374 O 0.47727 0.50487 0.43836 0.0
C375 C 0.45887 0.49959 0.54451 0.0
C376 C 0.49572 0.56877 0.53032 0.0
C377 C 0.53232 0.51094 0.56669 0.0
C378 C 0.50784 0.45641 0.49015 0.0
C379 C 0.54596 0.52295 0.4741 0.0
C380 C 0.47247 0.51789 0.4559 0.0
O381 O 0.46844 0.51094 0.5616 0.0
O382 O 0.46849 0.49866 0.52498 0.0
O383 O 0.03029 0.48564 0.06575 0.0
Mg384 Mg 0.02265 0.52021 0.06347 0.0
O385 O 0.02239 0.48077 0.0284 0.0
Mg386 Mg 0.00977 0.51752 0.01613 0.0
O387 O 0.99157 0.52804 0.05106 0.0
O388 O 1.00235 0.52841 0.08893 0.0
O389 O 0.99554 0.55501 0.00604 0.0
O390 O 0.97497 0.49782 0.00624 0.0
Mg391 Mg 1.00505 0.5281 0.97569 0.0
O392 O 0.02755 0.50375 0.98135 0.0
O393 O 0.01568 0.56364 0.97618 0.0
O394 O 0.97004 0.51799 0.97517 0.0
O395 O 0.0156 0.51424 0.94604 0.0
C396 C 0.05635 0.54808 0.04128 0.0
C397 C 0.02906 0.47266 0.04765 0.0
C398 C 0.98748 0.53174 0.07299 0.0
C399 C 1.00253 0.57005 0.99147 0.0
C400 C 0.96242 0.50322 0.98931 0.0
C401 C 0.02799 0.50205 0.95875 0.0
O402 O 0.04895 0.54561 0.06141 0.0
O403 O 0.04556 0.53811 0.02381 0.0
H404 H 0.10773 0.16049 0.29428 0.0
H405 H 0.09398 0.14214 0.32931 0.0
H406 H 0.11071 0.07527 0.30181 0.0
H407 H 0.12378 0.09342 0.26626 0.0
H408 H 0.06975 0.07202 0.31932 0.0
H409 H 0.14236 0.10576 0.34666 0.0
H410 H 0.17202 0.13753 0.35377 0.0
H411 H 0.12721 0.17493 0.39577 0.0
H412 H 0.09718 0.14351 0.38865 0.0
H413 H 0.05298 0.00614 0.41694 0.0
H414 H 0.0724 0.02754 0.38661 0.0
H415 H 0.0545 0.09234 0.41813 0.0
H416 H 0.03561 0.07074 0.44929 0.0
H417 H 0.09534 0.09812 0.39916 0.0
H418 H 0.02288 0.06551 0.3722 0.0
H419 H 0.99238 0.03461 0.36505 0.0
H420 H 0.03563 0.99638 0.32197 0.0
H421 H 0.06651 0.02691 0.32911 0.0
C422 C 0.10843 0.14185 0.29557 0.0
C423 C 0.11681 0.12848 0.27724 0.0
C424 C 0.10077 0.13139 0.31582 0.0
C425 C 0.10146 0.10729 0.31845 0.0
C426 C 0.11003 0.0939 0.30031 0.0
C427 C 0.1177 0.10436 0.28002 0.0
C428 C 0.0924 0.0959 0.33964 0.0
C429 C 0.07564 0.07752 0.33674 0.0
C430 C 0.09938 0.10356 0.36252 0.0
C431 C 0.11746 0.12238 0.36694 0.0
C432 C 0.13878 0.12083 0.35727 0.0
C433 C 0.15567 0.13876 0.36133 0.0
C434 C 0.15149 0.15826 0.37516 0.0
C435 C 0.13042 0.15983 0.38503 0.0
C436 C 0.11347 0.14195 0.38101 0.0
C437 C 0.05363 0.025 0.41774 0.0
C438 C 0.0427 0.03676 0.43545 0.0
C439 C 0.06457 0.03723 0.40024 0.0
C440 C 0.06436 0.06156 0.39955 0.0
C441 C 0.05475 0.07356 0.4181 0.0
C442 C 0.04405 0.06124 0.43598 0.0
C443 C 0.07299 0.07399 0.37876 0.0
C444 C 0.08951 0.0926 0.38173 0.0
C445 C 0.06567 0.06672 0.35587 0.0
C446 C 0.04707 0.04842 0.35135 0.0
C447 C 0.02593 0.05045 0.36132 0.0
C448 C 0.00857 0.033 0.35725 0.0
C449 C 0.01208 0.01352 0.34311 0.0
C450 C 0.03295 0.01147 0.33294 0.0
C451 C 0.05037 0.02885 0.33697 0.0
H452 H 0.99863 1.00003 0.33999 0.0
H453 H 0.16458 0.17213 0.37828 0.0
H454 H 0.41333 0.96144 0.74645 0.0
H455 H 0.42819 0.97803 0.78384 0.0
H456 H 0.39367 0.92147 0.81896 0.0
H457 H 0.37819 0.90518 0.78175 0.0
H458 H 0.38822 0.96246 0.84099 0.0
H459 H 0.45067 0.92349 0.80984 0.0
H460 H 0.47885 0.91526 0.78061 0.0
H461 H 0.50563 0.98653 0.78587 0.0
H462 H 0.47739 0.99525 0.81492 0.0
H463 H 0.44495 0.95438 0.94753 0.0
H464 H 0.42792 0.95086 0.90873 0.0
H465 H 0.46777 0.01234 0.8892 0.0
H466 H 0.4853 0.01584 0.92849 0.0
H467 H 0.47036 0.97622 0.85775 0.0
H468 H 0.41099 0.01354 0.89355 0.0
H469 H 0.38354 0.02071 0.92384 0.0
H470 H 0.35116 0.95239 0.91051 0.0
H471 H 0.37861 0.94463 0.8804 0.0
C472 C 0.4088 0.95258 0.76214 0.0
C473 C 0.39457 0.93191 0.76103 0.0
C474 C 0.41745 0.96201 0.78351 0.0
C475 C 0.41217 0.95095 0.80426 0.0
C476 C 0.39799 0.93034 0.80321 0.0
C477 C 0.38935 0.92089 0.78187 0.0
C478 C 0.42133 0.96074 0.82712 0.0
C479 C 0.40618 0.96535 0.8447 0.0
C480 C 0.44476 0.96533 0.83176 0.0
C481 C 0.46174 0.96008 0.81433 0.0
C482 C 0.46244 0.93745 0.80461 0.0
C483 C 0.47845 0.93269 0.78811 0.0
C484 C 0.49397 0.95038 0.78133 0.0
C485 C 0.49356 0.97286 0.7911 0.0
C486 C 0.47757 0.97771 0.80759 0.0
C487 C 0.44987 0.96745 0.93515 0.0
C488 C 0.46651 0.98539 0.94108 0.0
C489 C 0.44 0.96546 0.91294 0.0
C490 C 0.44639 0.98141 0.89601 0.0
C491 C 0.46251 0.99987 0.90202 0.0
C492 C 0.47237 1.00198 0.92449 0.0
C493 C 0.43726 0.9774 0.8718 0.0
C494 C 0.45238 0.97382 0.85395 0.0
C495 C 0.4138 0.97374 0.86691 0.0
C496 C 0.39696 0.97847 0.88475 0.0
C497 C 0.39809 0.99999 0.89715 0.0
C498 C 0.38252 1.00416 0.91429 0.0
C499 C 0.36564 0.987 0.91911 0.0
C500 C 0.36424 0.96566 0.90675 0.0
C501 C 0.37978 0.96139 0.88961 0.0
H502 H 0.35363 0.99023 0.93242 0.0
H503 H 0.50636 0.94666 0.76856 0.0
H504 H 0.62737 0.42672 0.73482 0.0
H505 H 0.61552 0.44774 0.70104 0.0
H506 H 0.60754 0.38332 0.66047 0.0
H507 H 0.62017 0.3622 0.69403 0.0
H508 H 0.62593 0.41875 0.63498 0.0
H509 H 0.56222 0.40543 0.68305 0.0
H510 H 0.54124 0.40581 0.71939 0.0
H511 H 0.55112 0.48039 0.72451 0.0
H512 H 0.57245 0.48044 0.68835 0.0
H513 H 0.54137 0.46588 0.55569 0.0
H514 H 0.56409 0.44168 0.58022 0.0
H515 H 0.58696 0.50254 0.62221 0.0
H516 H 0.56465 0.52654 0.5979 0.0
H517 H 0.5603 0.46613 0.64505 0.0
H518 H 0.62352 0.47862 0.59516 0.0
H519 H 0.64304 0.47689 0.55806 0.0
H520 H 0.63223 0.40232 0.55527 0.0
H521 H 0.61256 0.40373 0.59248 0.0
C522 C 0.62349 0.41704 0.71863 0.0
C523 C 0.62456 0.39273 0.71721 0.0
C524 C 0.61654 0.42907 0.69937 0.0
C525 C 0.61034 0.41704 0.67833 0.0
C526 C 0.61216 0.39292 0.67656 0.0
C527 C 0.61915 0.38086 0.69583 0.0
C528 C 0.60091 0.42957 0.65862 0.0
C529 C 0.61141 0.4289 0.63706 0.0
C530 C 0.58202 0.44286 0.66138 0.0
C531 C 0.56912 0.44291 0.6831 0.0
C532 C 0.56007 0.4219 0.69202 0.0
C533 C 0.54809 0.42204 0.71257 0.0
C534 C 0.5449 0.44311 0.72428 0.0
C535 C 0.55363 0.46409 0.71543 0.0
C536 C 0.56565 0.46404 0.6949 0.0
C537 C 0.55211 0.47417 0.56947 0.0
C538 C 0.55119 0.498 0.57508 0.0
C539 C 0.56492 0.46035 0.58357 0.0
C540 C 0.5769 0.47036 0.60319 0.0
C541 C 0.57771 0.4945 0.60725 0.0
C542 C 0.56504 0.5082 0.59328 0.0
C543 C 0.58561 0.45577 0.62158 0.0
C544 C 0.5748 0.45594 0.64292 0.0
C545 C 0.60404 0.44197 0.61847 0.0
C546 C 0.61611 0.44126 0.5963 0.0
C547 C 0.62502 0.46187 0.5865 0.0
C548 C 0.63622 0.46096 0.5655 0.0
C549 C 0.63873 0.43951 0.5542 0.0
C550 C 0.63018 0.41893 0.56397 0.0
C551 C 0.61903 0.41978 0.58501 0.0
H552 H 0.64742 0.4388 0.53795 0.0
H553 H 0.53562 0.44318 0.74019 0.0
H554 H 0.88718 0.58338 0.25351 0.0
H555 H 0.89431 0.5659 0.21545 0.0
H556 H 0.92241 0.63232 0.19307 0.0
H557 H 0.91454 0.65014 0.23077 0.0
H558 H 0.89721 0.60982 0.15865 0.0
H559 H 0.95629 0.59135 0.2122 0.0
H560 H 0.97184 0.57562 0.24801 0.0
H561 H 0.94101 0.50779 0.22886 0.0
H562 H 0.92502 0.5232 0.19306 0.0
H563 H 0.97671 0.57646 0.07502 0.0
H564 H 0.952 0.59213 0.10397 0.0
H565 H 0.92767 0.52225 0.12004 0.0
H566 H 0.95281 0.50669 0.09144 0.0
H567 H 0.9467 0.54422 0.1569 0.0
H568 H 0.89277 0.56266 0.09929 0.0
H569 H 0.87846 0.57941 0.0635 0.0
H570 H 0.90021 0.64815 0.08991 0.0
H571 H 0.91545 0.63179 0.12539 0.0
C572 C 0.89452 0.59438 0.24038 0.0
C573 C 0.90046 0.61815 0.24531 0.0
C574 C 0.89875 0.58431 0.21867 0.0
C575 C 0.90918 0.59773 0.20149 0.0
C576 C 0.91442 0.6216 0.20607 0.0
C577 C 0.91014 0.63171 0.22774 0.0
C578 C 0.91569 0.58673 0.1792 0.0
C579 C 0.90814 0.59556 0.15819 0.0
C580 C 0.92955 0.56779 0.17864 0.0
C581 C 0.93924 0.55849 0.2001 0.0
C582 C 0.95268 0.57312 0.21572 0.0
C583 C 0.9616 0.56426 0.236 0.0
C584 C 0.95735 0.54074 0.24075 0.0
C585 C 0.94424 0.52601 0.22518 0.0
C586 C 0.93526 0.5348 0.2049 0.0
C587 C 0.96508 0.56455 0.08376 0.0
C588 C 0.96631 0.54042 0.08082 0.0
C589 C 0.95107 0.57349 0.10048 0.0
C590 C 0.93806 0.55836 0.11436 0.0
C591 C 0.93759 0.53426 0.10961 0.0
C592 C 0.95169 0.52536 0.09303 0.0
C593 C 0.92828 0.5673 0.13611 0.0
C594 C 0.93541 0.55819 0.15717 0.0
C595 C 0.91422 0.58609 0.13661 0.0
C596 C 0.90544 0.59595 0.11499 0.0
C597 C 0.89482 0.58133 0.09733 0.0
C598 C 0.88655 0.59076 0.07705 0.0
C599 C 0.88854 0.61482 0.07433 0.0
C600 C 0.89882 0.6295 0.09189 0.0
C601 C 0.90731 0.62015 0.11209 0.0
H602 H 0.88201 0.62209 0.05867 0.0
H603 H 0.96427 0.53391 0.25645 0.0
H604 H 0.28182 0.07976 0.13576 0.0
H605 H 0.3135 0.06231 0.11768 0.0
H606 H 0.31136 0.11082 0.06237 0.0
H607 H 0.27946 0.12835 0.08037 0.0
H608 H 0.31852 0.06866 0.04505 0.0
H609 H 0.35121 0.11763 0.10826 0.0
H610 H 0.3559 0.13199 0.14899 0.0
H611 H 0.37229 0.06415 0.16968 0.0
H612 H 0.36741 0.04931 0.12908 0.0
H613 H 0.42788 0.06699 1.00184 0.0
H614 H 0.39231 0.07509 0.01897 0.0
H615 H 0.40188 0.02348 0.07019 0.0
H616 H 0.43824 0.0156 0.05324 0.0
H617 H 0.38974 0.06296 0.09043 0.0
H618 H 0.36065 0.01506 0.02599 0.0
H619 H 0.35711 1.00166 0.98489 0.0
H620 H 0.33453 0.06781 0.96616 0.0
H621 H 0.33826 0.08176 0.00707 0.0
C622 C 0.28815 0.08688 0.11983 0.0
C623 C 0.27815 0.10571 0.10972 0.0
C624 C 0.30632 0.07682 0.10946 0.0
C625 C 0.31521 0.08543 0.0888 0.0
C626 C 0.30491 0.10383 0.07831 0.0
C627 C 0.28661 0.11384 0.08863 0.0
C628 C 0.33538 0.07547 0.07832 0.0
C629 C 0.33414 0.06762 0.05494 0.0
C630 C 0.35567 0.07338 0.09129 0.0
C631 C 0.3587 0.0823 0.11568 0.0
C632 C 0.35565 0.10573 0.12152 0.0
C633 C 0.35837 0.11396 0.14458 0.0
C634 C 0.36433 0.09897 0.16192 0.0
C635 C 0.36764 0.07573 0.15623 0.0
C636 C 0.36492 0.0674 0.1332 0.0
C637 C 0.42235 0.05701 0.01653 0.0
C638 C 0.43601 0.04059 0.02612 0.0
C639 C 0.40183 0.06163 0.02629 0.0
C640 C 0.39412 0.04979 0.0458 0.0
C641 C 0.40737 0.03283 0.05509 0.0
C642 C 0.42807 0.02817 0.04527 0.0
C643 C 0.37298 0.0564 0.05708 0.0
C644 C 0.37403 0.06368 0.0806 0.0
C645 C 0.35253 0.058 0.04421 0.0
C646 C 0.34985 0.04951 0.01962 0.0
C647 C 0.35503 0.0268 0.01309 0.0
C648 C 0.35299 0.0191 0.98983 0.0
C649 C 0.34563 0.03389 0.97293 0.0
C650 C 0.34023 0.05638 0.97927 0.0
C651 C 0.34227 0.06418 1.00251 0.0
H652 H 0.34409 0.02792 0.95493 0.0
H653 H 0.36642 0.10538 0.17976 0.0
H654 H 0.25544 0.93333 0.56792 0.0
H655 H 0.22112 0.94981 0.55385 0.0
H656 H 0.18159 0.88834 0.57384 0.0
H657 H 0.21596 0.87148 0.58752 0.0
H658 H 0.16823 0.90317 0.53065 0.0
H659 H 0.18285 0.93637 0.60768 0.0
H660 H 0.206 0.95698 0.63908 0.0
H661 H 0.21463 0.01733 0.59748 0.0
H662 H 0.19178 0.99696 0.5657 0.0
H663 H 0.06151 0.95481 0.52617 0.0
H664 H 0.09493 0.93359 0.5344 0.0
H665 H 0.13742 0.99664 0.52622 0.0
H666 H 0.10407 0.01795 0.51928 0.0
H667 H 0.14861 0.97919 0.5642 0.0
H668 H 0.13463 0.94661 0.48678 0.0
H669 H 0.11182 0.92633 0.45493 0.0
H670 H 0.10238 0.86564 0.49594 0.0
H671 H 0.1249 0.88567 0.52815 0.0
C672 C 0.23948 0.92321 0.56914 0.0
C673 C 0.23845 0.90112 0.57895 0.0
C674 C 0.21985 0.93271 0.56121 0.0
C675 C 0.19876 0.92038 0.56296 0.0
C676 C 0.19768 0.89816 0.57235 0.0
C677 C 0.21731 0.88867 0.58037 0.0
C678 C 0.17782 0.931 0.55557 0.0
C679 C 0.16376 0.91968 0.53812 0.0
C680 C 0.1722 0.9527 0.56505 0.0
C681 C 0.18577 0.96506 0.58424 0.0
C682 C 0.18982 0.95398 0.60517 0.0
C683 C 0.20287 0.96562 0.62304 0.0
C684 C 0.21183 0.98843 0.62025 0.0
C685 C 0.2077 0.99966 0.59961 0.0
C686 C 0.19468 0.98808 0.58167 0.0
C687 C 0.07806 0.96391 0.52555 0.0
C688 C 0.08028 0.98798 0.5221 0.0
C689 C 0.09718 0.9518 0.53026 0.0
C690 C 0.11883 0.96347 0.53096 0.0
C691 C 0.12098 0.98723 0.52602 0.0
C692 C 0.10192 0.99938 0.52187 0.0
C693 C 0.13912 0.95173 0.53873 0.0
C694 C 0.15303 0.96275 0.55651 0.0
C695 C 0.14461 0.92987 0.52939 0.0
C696 C 0.13128 0.91772 0.50995 0.0
C697 C 0.12757 0.92899 0.48905 0.0
C698 C 0.11471 0.91754 0.47093 0.0
C699 C 0.10561 0.89474 0.47343 0.0
C700 C 0.10942 0.88331 0.49403 0.0
C701 C 0.12225 0.89469 0.51222 0.0
H702 H 0.09564 0.88591 0.45939 0.0
H703 H 0.22194 0.99741 0.63411 0.0
H704 H 0.75884 0.41108 0.93521 0.0
H705 H 0.79261 0.42249 0.95943 0.0
H706 H 0.8289 0.44126 0.89813 0.0
H707 H 0.7956 0.42947 0.87393 0.0
H708 H 0.85342 0.41578 0.92605 0.0
H709 H 0.80845 0.48235 0.93413 0.0
H710 H 0.77473 0.50239 0.94467 0.0
H711 H 0.78184 0.48106 0.01503 0.0
H712 H 0.81546 0.46062 1.00481 0.0
H713 H 0.93723 0.5039 0.94954 0.0
H714 H 0.90063 0.48384 0.94033 0.0
H715 H 0.89867 0.45616 0.0089 0.0
H716 H 0.93606 0.47609 0.01836 0.0
H717 H 0.85594 0.47958 0.9862 0.0
H718 H 0.90554 0.41793 0.97778 0.0
H719 H 0.94034 0.40076 0.96568 0.0
H720 H 0.92492 0.41484 0.89455 0.0
H721 H 0.8902 0.43243 0.90627 0.0
C722 C 0.77407 0.41756 0.92693 0.0
C723 C 0.7745 0.41949 0.90264 0.0
C724 C 0.79329 0.42419 0.94079 0.0
C725 C 0.81326 0.43281 0.93059 0.0
C726 C 0.8137 0.43464 0.90639 0.0
C727 C 0.79455 0.42811 0.89258 0.0
C728 C 0.83395 0.43991 0.94479 0.0
C729 C 0.8539 0.42963 0.9393 0.0
C730 C 0.83453 0.45755 0.96255 0.0
C731 C 0.81425 0.46968 0.96864 0.0
C732 C 0.80268 0.48173 0.95179 0.0
C733 C 0.78362 0.49321 0.95772 0.0
C734 C 0.77609 0.49292 0.98048 0.0
C735 C 0.78765 0.48121 0.99739 0.0
C736 C 0.80671 0.46968 0.99154 0.0
C737 C 0.92909 0.4937 0.96284 0.0
C738 C 0.93963 0.49159 0.98472 0.0
C739 C 0.90814 0.48223 0.95748 0.0
C740 C 0.89704 0.46854 0.9739 0.0
C741 C 0.90707 0.46672 0.99603 0.0
C742 C 0.92839 0.47801 1.00135 0.0
C743 C 0.87531 0.45579 0.96698 0.0
C744 C 0.85523 0.46512 0.9736 0.0
C745 C 0.87456 0.43736 0.95014 0.0
C746 C 0.89534 0.42664 0.94294 0.0
C747 C 0.90967 0.41754 0.95958 0.0
C748 C 0.92936 0.4077 0.95279 0.0
C749 C 0.93486 0.40674 0.92937 0.0
C750 C 0.92064 0.41559 0.91269 0.0
C751 C 0.90093 0.42547 0.9194 0.0
H752 H 0.95012 0.39912 0.92414 0.0
H753 H 0.76134 0.50183 0.98505 0.0
H754 H 0.72426 0.58673 0.37651 0.0
H755 H 0.68829 0.57671 0.39427 0.0
H756 H 0.71918 0.58999 0.46235 0.0
H757 H 0.75564 0.59938 0.44463 0.0
H758 H 0.69084 0.55019 0.46049 0.0
H759 H 0.68656 0.62937 0.44022 0.0
H760 H 0.68991 0.66298 0.41478 0.0
H761 H 0.63995 0.62923 0.36758 0.0
H762 H 0.63653 0.59526 0.39256 0.0
H763 H 0.57845 0.54091 0.50589 0.0
H764 H 0.61656 0.55745 0.49774 0.0
H765 H 0.60261 0.5462 0.42429 0.0
H766 H 0.56487 0.52969 0.43217 0.0
H767 H 0.62351 0.58975 0.43514 0.0
H768 H 0.63206 0.50904 0.45192 0.0
H769 H 0.62898 0.47448 0.47612 0.0
H770 H 0.67075 0.51093 0.52932 0.0
H771 H 0.67384 0.54586 0.50551 0.0
C772 C 0.72354 0.58726 0.39527 0.0
C773 C 0.74287 0.59384 0.40914 0.0
C774 C 0.70288 0.58177 0.4054 0.0
C775 C 0.70097 0.58295 0.42963 0.0
C776 C 0.72026 0.58912 0.44362 0.0
C777 C 0.74102 0.59464 0.43346 0.0
C778 C 0.67872 0.57763 0.44008 0.0
C779 C 0.6762 0.55919 0.45538 0.0
C780 C 0.65957 0.58919 0.4332 0.0
C781 C 0.66138 0.6097 0.41822 0.0
C782 C 0.67638 0.62905 0.42435 0.0
C783 C 0.67828 0.64818 0.41002 0.0
C784 C 0.66517 0.64823 0.38956 0.0
C785 C 0.65009 0.62917 0.38343 0.0
C786 C 0.64814 0.60999 0.39769 0.0
C787 C 0.5835 0.54211 0.48801 0.0
C788 C 0.56867 0.53388 0.46968 0.0
C789 C 0.60527 0.55148 0.48341 0.0
C790 C 0.6124 0.55296 0.46041 0.0
C791 C 0.59743 0.54526 0.44215 0.0
C792 C 0.57588 0.53571 0.44671 0.0
C793 C 0.63557 0.56196 0.45501 0.0
C794 C 0.63824 0.58111 0.44065 0.0
C795 C 0.65481 0.55104 0.46273 0.0
C796 C 0.65295 0.53013 0.47707 0.0
C797 C 0.64041 0.50976 0.46887 0.0
C798 C 0.6387 0.4901 0.48248 0.0
C799 C 0.64962 0.49055 0.50425 0.0
C800 C 0.66228 0.51065 0.51246 0.0
C801 C 0.66402 0.53038 0.49891 0.0
H802 H 0.64835 0.47527 0.51468 0.0
H803 H 0.66668 0.66305 0.37849 0.0
H804 H 0.12189 0.27358 0.0591 0.0
H805 H 0.10251 0.30702 0.04615 0.0
H806 H 0.09304 0.32831 0.11741 0.0
H807 H 0.11259 0.29498 0.13054 0.0
H808 H 0.05534 0.33223 0.09203 0.0
H809 H 0.13421 0.3552 0.08343 0.0
H810 H 0.17243 0.35148 0.06887 0.0
H811 H 0.14681 0.35261 0.99862 0.0
H812 H 0.10836 0.356 0.01278 0.0
H813 H 0.03525 0.4497 0.08741 0.0
H814 H 0.0499 0.41203 0.09254 0.0
H815 H 0.05397 0.40217 0.01832 0.0
H816 H 0.03947 0.44077 0.01295 0.0
H817 H 0.09202 0.38996 0.04034 0.0
H818 H 0.01374 0.3706 0.04877 0.0
H819 H 0.97556 0.37485 0.06319 0.0
H820 H 0.99966 0.36686 0.13312 0.0
H821 H 0.03807 0.36288 0.11917 0.0
C822 C 0.11588 0.28545 0.07209 0.0
C823 C 0.11905 0.28153 0.09594 0.0
C824 C 0.10473 0.30462 0.06461 0.0
C825 C 0.09651 0.3205 0.08075 0.0
C826 C 0.09919 0.31638 0.10455 0.0
C827 C 0.11034 0.2972 0.11206 0.0
C828 C 0.08511 0.34137 0.07293 0.0
C829 C 0.06348 0.34493 0.08089 0.0
C830 C 0.09527 0.35764 0.05767 0.0
C831 C 0.11837 0.35556 0.04916 0.0
C832 C 0.13669 0.35444 0.06488 0.0
C833 C 0.1584 0.35243 0.0567 0.0
C834 C 0.16204 0.35172 0.03283 0.0
C835 C 0.14397 0.3531 0.0171 0.0
C836 C 0.12222 0.35507 0.02519 0.0
C837 C 0.03904 0.43959 0.07202 0.0
C838 C 0.0361 0.44842 0.0497 0.0
C839 C 0.04734 0.41783 0.07504 0.0
C840 C 0.0528 0.40393 0.05587 0.0
C841 C 0.04977 0.41248 0.03343 0.0
C842 C 0.04134 0.43448 0.03035 0.0
C843 C 0.06244 0.38103 0.05983 0.0
C844 C 0.08375 0.37709 0.0512 0.0
C845 C 0.05196 0.36433 0.07442 0.0
C846 C 0.02884 0.36657 0.08291 0.0
C847 C 0.01094 0.3699 0.06724 0.0
C848 C 0.98925 0.37224 0.07533 0.0
C849 C 0.9852 0.37116 0.09906 0.0
C850 C 1.00283 0.36769 0.11474 0.0
C851 C 0.02456 0.36535 0.10675 0.0
H852 H 0.96839 0.37298 0.10529 0.0
H853 H 0.17886 0.35018 0.02654 0.0
H854 H 0.62125 0.21718 0.85233 0.0
H855 H 0.60309 0.17991 0.86394 0.0
H856 H 0.62949 0.19327 0.93387 0.0
H857 H 0.6474 0.23038 0.92253 0.0
H858 H 0.63455 0.14905 0.91988 0.0
H859 H 0.57514 0.20239 0.91892 0.0
H860 H 0.55053 0.2298 0.90089 0.0
H861 H 0.526 0.17665 0.85071 0.0
H862 H 0.55071 0.14901 0.8683 0.0
H863 H 0.56162 0.10148 1.0012 0.0
H864 H 0.58463 0.12423 0.97446 0.0
H865 H 0.55299 0.0842 0.91642 0.0
H866 H 0.53006 0.06078 0.94353 0.0
H867 H 0.55138 0.13436 0.91472 0.0
H868 H 0.60542 0.07863 0.92397 0.0
H869 H 0.62856 0.05235 0.94551 0.0
H870 H 0.66253 0.11087 0.98286 0.0
H871 H 0.63925 0.13754 0.96195 0.0
C872 C 0.62308 0.21219 0.8702 0.0
C873 C 0.63586 0.22673 0.88648 0.0
C874 C 0.61277 0.19086 0.87678 0.0
C875 C 0.61495 0.18379 0.89978 0.0
C876 C 0.62778 0.19823 0.91597 0.0
C877 C 0.63806 0.21946 0.90943 0.0
C878 C 0.60343 0.16176 0.9075 0.0
C879 C 0.61637 0.14579 0.9187 0.0
C880 C 0.57977 0.15713 0.90531 0.0
C881 C 0.565 0.17375 0.89469 0.0
C882 C 0.56466 0.19662 0.9039 0.0
C883 C 0.55066 0.21218 0.8938 0.0
C884 C 0.53678 0.205 0.8746 0.0
C885 C 0.53681 0.18221 0.86553 0.0
C886 C 0.55081 0.16659 0.87556 0.0
C887 C 0.55997 0.09716 0.98277 0.0
C888 C 0.54419 0.07943 0.97433 0.0
C889 C 0.57313 0.11011 0.96752 0.0
C890 C 0.57055 0.10585 0.94349 0.0
C891 C 0.55527 0.08763 0.93494 0.0
C892 C 0.54234 0.07423 0.95036 0.0
C893 C 0.58245 0.12214 0.92779 0.0
C894 C 0.56962 0.13715 0.91517 0.0
C895 C 0.60619 0.12604 0.92893 0.0
C896 C 0.62051 0.11011 0.94139 0.0
C897 C 0.61772 0.08591 0.93687 0.0
C898 C 0.63088 0.07093 0.94896 0.0
C899 C 0.64702 0.07992 0.96551 0.0
C900 C 0.65004 0.10393 0.97001 0.0
C901 C 0.63688 0.119 0.95802 0.0
H902 H 0.65719 0.06827 0.97486 0.0
H903 H 0.52594 0.21707 0.86681 0.0
H904 H 0.94217 0.75698 0.43008 0.0
H905 H 0.96115 0.79191 0.44869 0.0
H906 H 0.91108 0.79101 0.50156 0.0
H907 H 0.89138 0.75668 0.48239 0.0
H908 H 0.91729 0.83276 0.48675 0.0
H909 H 0.96655 0.77865 0.51432 0.0
H910 H 0.99081 0.74576 0.51299 0.0
H911 H 0.03506 0.78268 0.46685 0.0
H912 H 0.01089 0.81567 0.4676 0.0
H913 H 0.97556 0.94038 0.51774 0.0
H914 H 0.9651 0.89965 0.52692 0.0
H915 H 0.99826 0.87655 0.46549 0.0
H916 H 0.00866 0.91679 0.45651 0.0
H917 H 1.00019 0.84477 0.49883 0.0
H918 H 0.94267 0.89232 0.46375 0.0
H919 H 0.91851 0.92536 0.46578 0.0
H920 H 0.89005 0.8997 0.5286 0.0
H921 H 0.9141 0.86653 0.52686 0.0
C922 C 0.93515 0.7642 0.44565 0.0
C923 C 0.91519 0.75397 0.45468 0.0
C924 C 0.94623 0.78401 0.45651 0.0
C925 C 0.93779 0.79394 0.47681 0.0
C926 C 0.91805 0.7836 0.48605 0.0
C927 C 0.90688 0.76383 0.47513 0.0
C928 C 0.94862 0.81614 0.48713 0.0
C929 C 0.93536 0.83516 0.49001 0.0
C930 C 0.97218 0.81943 0.49154 0.0
C931 C 0.98682 0.79962 0.49096 0.0
C932 C 0.98137 0.77971 0.50375 0.0
C933 C 0.99512 0.76104 0.50312 0.0
C934 C 0.01445 0.76212 0.48983 0.0
C935 C 0.02008 0.78188 0.47715 0.0
C936 C 0.00638 0.80059 0.47771 0.0
C937 C 0.98145 0.92649 0.50689 0.0
C938 C 0.9927 0.93156 0.48632 0.0
C939 C 0.97534 0.90326 0.51202 0.0
C940 C 0.98049 0.88505 0.4966 0.0
C941 C 0.99402 0.89022 0.47761 0.0
C942 C 0.99993 0.91325 0.47244 0.0
C943 C 0.96897 0.86134 0.4973 0.0
C944 C 0.98205 0.84203 0.49641 0.0
C945 C 0.94523 0.8577 0.49484 0.0
C946 C 0.93038 0.87722 0.4954 0.0
C947 C 0.93129 0.8938 0.47801 0.0
C948 C 0.91761 0.91251 0.47909 0.0
C949 C 0.90281 0.91468 0.49735 0.0
C950 C 0.90156 0.89804 0.51449 0.0
C951 C 0.9152 0.87929 0.51347 0.0
H952 H 0.89227 0.92921 0.49819 0.0
H953 H 0.02508 0.74765 0.48937 0.0
H954 H 0.44524 0.75789 0.60647 0.0
H955 H 0.45923 0.725 0.58517 0.0
H956 H 0.39711 0.71623 0.54462 0.0
H957 H 0.38251 0.74871 0.5667 0.0
H958 H 0.40899 0.67536 0.55822 0.0
H959 H 0.44677 0.73849 0.52046 0.0
H960 H 0.46929 0.77586 0.51745 0.0
H961 H 0.52536 0.74761 0.5521 0.0
H962 H 0.50309 0.71015 0.5556 0.0
H963 H 0.46147 0.58181 0.50166 0.0
H964 H 0.44432 0.61942 0.50362 0.0
H965 H 0.49609 0.64587 0.55338 0.0
H966 H 0.51324 0.60884 0.55117 0.0
H967 H 0.48541 0.67933 0.52553 0.0
H968 H 0.44484 0.618 0.56783 0.0
H969 H 0.42171 0.58103 0.57106 0.0
H970 H 0.36975 0.60677 0.52801 0.0
H971 H 0.39289 0.6436 0.52387 0.0
C972 C 0.43442 0.74892 0.59314 0.0
C973 C 0.41266 0.75594 0.58844 0.0
C974 C 0.44261 0.73027 0.5807 0.0
C975 C 0.42941 0.7183 0.56297 0.0
C976 C 0.40769 0.72528 0.5581 0.0
C977 C 0.39943 0.74396 0.57064 0.0
C978 C 0.43809 0.6979 0.55044 0.0
C979 C 0.42549 0.67634 0.55056 0.0
C980 C 0.45967 0.69906 0.54054 0.0
C981 C 0.4732 0.72153 0.53837 0.0
C982 C 0.46386 0.74028 0.52756 0.0
C983 C 0.47659 0.76148 0.52575 0.0
C984 C 0.49873 0.76412 0.5346 0.0
C985 C 0.50821 0.74554 0.54524 0.0
C986 C 0.49555 0.7243 0.5471 0.0
C987 C 0.4696 0.59599 0.5123 0.0
C988 C 0.48866 0.59243 0.5263 0.0
C989 C 0.45965 0.61737 0.51364 0.0
C990 C 0.46867 0.63537 0.52901 0.0
C991 C 0.48873 0.6323 0.54147 0.0
C992 C 0.49855 0.61109 0.5402 0.0
C993 C 0.45667 0.65668 0.53408 0.0
C994 C 0.46866 0.67846 0.53261 0.0
C995 C 0.43453 0.65569 0.54273 0.0
C996 C 0.4208 0.6334 0.54515 0.0
C997 C 0.42862 0.61566 0.55877 0.0
C998 C 0.41549 0.59472 0.56078 0.0
C999 C 0.39433 0.5915 0.5496 0.0
C1000 C 0.38618 0.60925 0.53656 0.0
C1001 C 0.39934 0.63011 0.53429 0.0
H1002 H 0.38418 0.57529 0.55107 0.0
H1003 H 0.50855 0.78054 0.53318 0.0
H1004 H 0.92693 0.91498 0.74953 0.0
H1005 H 0.94072 0.93198 0.7139 0.0
H1006 H 0.88315 0.89922 0.6756 0.0
H1007 H 0.8692 0.88202 0.71135 0.0
H1008 H 0.92006 0.89605 0.65052 0.0
H1009 H 0.88635 0.95781 0.68991 0.0
H1010 H 0.87841 0.98423 0.72271 0.0
H1011 H 0.94781 0.0106 0.72636 0.0
H1012 H 0.95625 0.98408 0.69379 0.0
H1013 H 0.95285 0.96835 0.55325 0.0
H1014 H 0.9307 0.94909 0.5837 0.0
H1015 H 0.98233 0.97238 0.63476 0.0
H1016 H 1.0041 0.99158 0.60502 0.0
H1017 H 0.94202 0.98074 0.6503 0.0
H1018 H 0.97527 0.91543 0.6117 0.0
H1019 H 0.98143 0.89001 0.57752 0.0
H1020 H 0.91032 0.87147 0.5709 0.0
H1021 H 0.9037 0.89712 0.60476 0.0
C1022 C 0.91699 0.91157 0.73363 0.0
C1023 C 0.89677 0.89727 0.73351 0.0
C1024 C 0.92497 0.92128 0.71316 0.0
C1025 C 0.91285 0.91724 0.69196 0.0
C1026 C 0.89284 0.90267 0.69165 0.0
C1027 C 0.88488 0.89283 0.71216 0.0
C1028 C 0.92112 0.9285 0.67037 0.0
C1029 C 0.92453 0.91463 0.65038 0.0
C1030 C 0.92695 0.95277 0.66994 0.0
C1031 C 0.92196 0.96882 0.6895 0.0
C1032 C 0.89996 0.96912 0.69781 0.0
C1033 C 0.89536 0.98414 0.71635 0.0
C1034 C 0.9126 0.99905 0.72664 0.0
C1035 C 0.93447 0.99902 0.71838 0.0
C1036 C 0.93917 0.98402 0.69986 0.0
C1037 C 0.95945 0.96928 0.57097 0.0
C1038 C 0.98027 0.98165 0.57658 0.0
C1039 C 0.94681 0.95821 0.58837 0.0
C1040 C 0.95481 0.95925 0.61165 0.0
C1041 C 0.97564 0.97139 0.61706 0.0
C1042 C 0.98816 0.98235 0.59987 0.0
C1043 C 0.94181 0.94821 0.63082 0.0
C1044 C 0.93737 0.96218 0.65037 0.0
C1045 C 0.93487 0.92414 0.63067 0.0
C1046 C 0.93897 0.90837 0.61062 0.0
C1047 C 0.96093 0.90604 0.60286 0.0
C1048 C 0.96451 0.89159 0.58354 0.0
C1049 C 0.94628 0.87917 0.57201 0.0
C1050 C 0.92443 0.88113 0.57981 0.0
C1051 C 0.92076 0.89562 0.59906 0.0
H1052 H 0.94909 0.86799 0.55706 0.0
H1053 H 0.90901 0.01066 0.74099 0.0
H1054 H 0.63856 0.10311 0.24946 0.0
H1055 H 0.62556 0.08174 0.21362 0.0
H1056 H 0.55895 0.10506 0.22237 0.0
H1057 H 0.57154 0.12559 0.25855 0.0
H1058 H 0.55584 0.06096 0.20831 0.0
H1059 H 0.5973 0.13103 0.18464 0.0
H1060 H 0.63057 0.15899 0.18292 0.0
H1061 H 0.66873 0.10554 0.15323 0.0
H1062 H 0.63574 0.07717 0.15505 0.0
H1063 H 0.5067 0.06253 0.09631 0.0
H1064 H 0.52471 0.07131 0.13433 0.0
H1065 H 0.58122 0.03307 0.11439 0.0
H1066 H 0.563 0.02391 0.076 0.0
H1067 H 0.59324 0.07855 0.13428 0.0
H1068 H 0.54856 0.01007 0.15291 0.0
H1069 H 0.51403 0.98375 0.15349 0.0
H1070 H 0.48074 0.03571 0.19187 0.0
H1071 H 0.51496 0.06249 0.19122 0.0
C1072 C 0.62107 0.10345 0.24392 0.0
C1073 C 0.60617 0.1163 0.25685 0.0
C1074 C 0.6137 0.09138 0.22328 0.0
C1075 C 0.59131 0.092 0.21505 0.0
C1076 C 0.57631 0.10433 0.22825 0.0
C1077 C 0.58363 0.11631 0.24885 0.0
C1078 C 0.58341 0.08033 0.19252 0.0
C1079 C 0.564 0.0649 0.19213 0.0
C1080 C 0.59434 0.08489 0.1714 0.0
C1081 C 0.61416 0.10192 0.17026 0.0
C1082 C 0.61284 0.12519 0.17792 0.0
C1083 C 0.63164 0.14112 0.1769 0.0
C1084 C 0.65177 0.13402 0.16805 0.0
C1085 C 0.65314 0.111 0.16013 0.0
C1086 C 0.6344 0.09499 0.16115 0.0
C1087 C 0.52285 0.05573 0.10004 0.0
C1088 C 0.53343 0.04251 0.08312 0.0
C1089 C 0.5331 0.06072 0.12184 0.0
C1090 C 0.55427 0.05278 0.12726 0.0
C1091 C 0.56485 0.03931 0.11057 0.0
C1092 C 0.55438 0.03398 0.08873 0.0
C1093 C 0.56544 0.05965 0.15009 0.0
C1094 C 0.58539 0.07424 0.15053 0.0
C1095 C 0.5549 0.05449 0.17124 0.0
C1096 C 0.53432 0.03835 0.1719 0.0
C1097 C 0.53383 0.01595 0.16134 0.0
C1098 C 0.51432 1.00094 0.1617 0.0
C1099 C 0.49519 0.00806 0.17268 0.0
C1100 C 0.49557 0.03021 0.18337 0.0
C1101 C 0.51503 0.0453 0.18305 0.0
H1102 H 0.4801 0.99642 0.17293 0.0
H1103 H 0.6663 0.14638 0.16726 0.0
H1104 H 0.42321 0.67186 0.31842 0.0
H1105 H 0.43574 0.65195 0.3526 0.0
H1106 H 0.37615 0.60463 0.34692 0.0
H1107 H 0.36299 0.62509 0.31314 0.0
H1108 H 0.386 0.61757 0.39198 0.0
H1109 H 0.42591 0.58848 0.32701 0.0
H1110 H 0.44979 0.59126 0.29272 0.0
H1111 H 0.50406 0.62476 0.33479 0.0
H1112 H 0.48038 0.62246 0.3693 0.0
H1113 H 0.43056 0.51406 0.43639 0.0
H1114 H 0.41297 0.54485 0.41578 0.0
H1115 H 0.46577 0.59481 0.44183 0.0
H1116 H 0.48297 0.56411 0.46323 0.0
H1117 H 0.46058 0.58436 0.38981 0.0
H1118 H 0.42153 0.6086 0.45586 0.0
H1119 H 0.39811 0.60278 0.48992 0.0
H1120 H 0.34215 0.57643 0.44584 0.0
H1121 H 0.36557 0.58143 0.41138 0.0
C1122 C 0.41255 0.65745 0.3246 0.0
C1123 C 0.39208 0.65007 0.31296 0.0
C1124 C 0.41985 0.64596 0.34407 0.0
C1125 C 0.40701 0.62665 0.3522 0.0
C1126 C 0.38635 0.61948 0.34094 0.0
C1127 C 0.37898 0.63103 0.32147 0.0
C1128 C 0.41558 0.6134 0.37185 0.0
C1129 C 0.40224 0.61018 0.39144 0.0
C1130 C 0.43699 0.60417 0.37139 0.0
C1131 C 0.45128 0.60555 0.35068 0.0
C1132 C 0.44287 0.59662 0.32891 0.0
C1133 C 0.45638 0.59807 0.30944 0.0
C1134 C 0.4784 0.60825 0.31156 0.0
C1135 C 0.48698 0.61693 0.33317 0.0
C1136 C 0.47353 0.61554 0.35269 0.0
C1137 C 0.43768 0.53186 0.43871 0.0
C1138 C 0.4579 0.53686 0.45154 0.0
C1139 C 0.42775 0.54938 0.42681 0.0
C1140 C 0.43822 0.57199 0.42716 0.0
C1141 C 0.45746 0.57743 0.44143 0.0
C1142 C 0.4671 0.55998 0.45384 0.0
C1143 C 0.43101 0.58853 0.40982 0.0
C1144 C 0.44453 0.59214 0.39052 0.0
C1145 C 0.40975 0.59789 0.41049 0.0
C1146 C 0.39539 0.59519 0.43103 0.0
C1147 C 0.4043 0.60135 0.4534 0.0
C1148 C 0.39099 0.59824 0.47281 0.0
C1149 C 0.3686 0.58926 0.47011 0.0
C1150 C 0.3595 0.58338 0.44792 0.0
C1151 C 0.3728 0.58634 0.42842 0.0
H1152 H 0.35832 0.58687 0.48519 0.0
H1153 H 0.48884 0.60935 0.29646 0.0
H1154 H 0.08921 0.40505 0.77447 0.0
H1155 H 0.07425 0.41444 0.81237 0.0
H1156 H 0.13695 0.45298 0.83236 0.0
H1157 H 0.15249 0.44268 0.79487 0.0
H1158 H 0.12071 0.42929 0.86835 0.0
H1159 H 0.09162 0.48086 0.81315 0.0
H1160 H 0.07245 0.49138 0.77696 0.0
H1161 H 0.01174 0.45307 0.79674 0.0
H1162 H 0.03065 0.44205 0.83293 0.0
H1163 H 0.07363 0.50505 0.95464 0.0
H1164 H 0.09396 0.48537 0.924 0.0
H1165 H 0.0329 0.44391 0.90371 0.0
H1166 H 0.01267 0.46381 0.93393 0.0
H1167 H 0.04933 0.46868 0.86861 0.0
H1168 H 0.07864 0.41878 0.92535 0.0
H1169 H 0.09814 0.40988 0.96189 0.0
H1170 H 0.1587 0.44691 0.9399 0.0
H1171 H 0.13945 0.45634 0.90334 0.0
C1172 C 0.10001 0.41517 0.78703 0.0
C1173 C 0.12203 0.42326 0.78146 0.0
C1174 C 0.09134 0.42072 0.80866 0.0
C1175 C 0.10435 0.43475 0.8251 0.0
C1176 C 0.12656 0.44223 0.81993 0.0
C1177 C 0.13532 0.43656 0.79835 0.0
C1178 C 0.09441 0.44246 0.8472 0.0
C1179 C 0.10521 0.4381 0.86844 0.0
C1180 C 0.07407 0.45375 0.84735 0.0
C1181 C 0.06263 0.46043 0.82563 0.0
C1182 C 0.07423 0.47453 0.8097 0.0
C1183 C 0.0634 0.48061 0.7892 0.0
C1184 C 0.04091 0.47284 0.78452 0.0
C1185 C 0.02918 0.45904 0.80037 0.0
C1186 C 0.03993 0.45289 0.82089 0.0
C1187 C 0.06493 0.49099 0.94428 0.0
C1188 C 0.04176 0.48564 0.94668 0.0
C1189 C 0.07647 0.47984 0.92671 0.0
C1190 C 0.0649 0.46324 0.91147 0.0
C1191 C 0.04214 0.45669 0.9152 0.0
C1192 C 0.03065 0.46788 0.93258 0.0
C1193 C 0.07535 0.45512 0.88984 0.0
C1194 C 0.06473 0.45967 0.8686 0.0
C1195 C 0.09588 0.44422 0.88979 0.0
C1196 C 0.10753 0.43845 0.91169 0.0
C1197 C 0.09606 0.4252 0.92838 0.0
C1198 C 0.10708 0.42002 0.94908 0.0
C1199 C 0.12963 0.42787 0.95324 0.0
C1200 C 0.14122 0.44086 0.93667 0.0
C1201 C 0.13027 0.4461 0.91594 0.0
H1202 H 0.13813 0.42384 0.96928 0.0
H1203 H 0.03256 0.47756 0.76864 0.0
H1204 H 0.75686 0.93794 0.93052 0.0
H1205 H 0.7251 0.95554 0.94868 0.0
H1206 H 0.67875 0.9138 0.90305 0.0
H1207 H 0.7102 0.89582 0.88519 0.0
H1208 H 0.66853 0.95883 0.90448 0.0
H1209 H 0.68593 0.90137 0.96024 0.0
H1210 H 0.71045 0.88233 0.9878 0.0
H1211 H 0.72147 0.94629 0.02815 0.0
H1212 H 0.69724 0.9658 1.00063 0.0
H1213 H 0.56339 0.9512 0.95502 0.0
H1214 H 0.60072 0.94493 0.94109 0.0
H1215 H 0.62969 0.99901 0.9885 0.0
H1216 H 0.59167 0.00569 1.00258 0.0
H1217 H 0.65221 0.95523 0.98834 0.0
H1218 H 0.63085 0.01125 0.9354 0.0
H1219 H 0.60565 0.03009 0.90834 0.0
H1220 H 0.60204 0.96926 0.86297 0.0
H1221 H 0.62697 0.94997 0.88994 0.0
C1222 C 0.73991 0.9322 0.92457 0.0
C1223 C 0.73625 0.91546 0.90621 0.0
C1224 C 0.72172 0.9424 0.93493 0.0
C1225 C 0.69944 0.93608 0.92725 0.0
C1226 C 0.69575 0.91918 0.90918 0.0
C1227 C 0.71384 0.90894 0.89891 0.0
C1228 C 0.67985 0.94715 0.93761 0.0
C1229 C 0.66496 0.95793 0.92281 0.0
C1230 C 0.67548 0.94682 0.96169 0.0
C1231 C 0.69002 0.93511 0.97822 0.0
C1232 C 0.69375 0.91142 0.97488 0.0
C1233 C 0.70756 0.90054 0.99051 0.0
C1234 C 0.71758 0.91311 0.00967 0.0
C1235 C 0.71374 0.93659 0.01327 0.0
C1236 C 0.69997 0.94756 0.99767 0.0
C1237 C 0.57761 0.96195 0.96249 0.0
C1238 C 0.57451 0.97892 0.98001 0.0
C1239 C 0.599 0.95835 0.95441 0.0
C1240 C 0.61807 0.97146 0.96369 0.0
C1241 C 0.6152 0.98866 0.98109 0.0
C1242 C 0.5935 0.99257 0.98901 0.0
C1243 C 0.64071 0.96637 0.95508 0.0
C1244 C 0.65609 0.95659 0.97012 0.0
C1245 C 0.6456 0.96765 0.93122 0.0
C1246 C 0.63069 0.97914 0.91478 0.0
C1247 C 0.62455 1.00186 0.91973 0.0
C1248 C 0.61034 0.01262 0.9044 0.0
C1249 C 0.60223 1.00087 0.88396 0.0
C1250 C 0.60835 0.97835 0.87881 0.0
C1251 C 0.62255 0.96751 0.8941 0.0
H1252 H 0.59122 0.00922 0.87211 0.0
H1253 H 0.72826 0.90465 0.02176 0.0
H1254 H 0.76853 0.07794 0.41306 0.0
H1255 H 0.80237 0.06527 0.43185 0.0
H1256 H 0.82199 0.1361 0.45451 0.0
H1257 H 0.78836 0.14913 0.43476 0.0
H1258 H 0.85728 0.1163 0.4382 0.0
H1259 H 0.80291 0.09533 0.49361 0.0
H1260 H 0.76706 0.07858 0.5086 0.0
H1261 H 0.78241 0.01043 0.48434 0.0
H1262 H 0.81821 0.0268 0.4689 0.0
H1263 H 0.94928 0.06514 0.49784 0.0
H1264 H 0.91511 0.08653 0.49362 0.0
H1265 H 0.8818 0.02756 0.45559 0.0
H1266 H 0.91557 0.0064 0.45952 0.0
H1267 H 0.85422 0.04745 0.48788 0.0
H1268 H 0.9064 0.07187 0.42735 0.0
H1269 H 0.9426 0.08969 0.41415 0.0
H1270 H 0.93126 0.15336 0.45141 0.0
H1271 H 0.89521 0.13576 0.46514 0.0
C1272 C 0.78005 0.09091 0.42193 0.0
C1273 C 0.77573 0.11461 0.42224 0.0
C1274 C 0.79931 0.08357 0.43296 0.0
C1275 C 0.81465 0.09965 0.44494 0.0
C1276 C 0.81036 0.12333 0.4455 0.0
C1277 C 0.79103 0.13073 0.43435 0.0
C1278 C 0.83551 0.09154 0.45593 0.0
C1279 C 0.85657 0.10159 0.44951 0.0
C1280 C 0.83474 0.07234 0.47073 0.0
C1281 C 0.81321 0.06234 0.47998 0.0
C1282 C 0.79857 0.07679 0.49132 0.0
C1283 C 0.77827 0.06736 0.49993 0.0
C1284 C 0.77245 0.04346 0.4974 0.0
C1285 C 0.78694 0.02894 0.48629 0.0
C1286 C 0.80727 0.03828 0.47764 0.0
C1287 C 0.93453 0.05669 0.48888 0.0
C1288 C 0.93514 0.03416 0.47887 0.0
C1289 C 0.91509 0.06894 0.4864 0.0
C1290 C 0.89596 0.05867 0.47415 0.0
C1291 C 0.89632 0.03583 0.4651 0.0
C1292 C 0.91571 0.02379 0.46728 0.0
C1293 C 0.87577 0.07169 0.46946 0.0
C1294 C 0.85484 0.06252 0.47704 0.0
C1295 C 0.8767 0.09185 0.45601 0.0
C1296 C 0.89827 0.10241 0.44751 0.0
C1297 C 0.91173 0.0896 0.43288 0.0
C1298 C 0.93222 0.09967 0.42529 0.0
C1299 C 0.9393 0.12261 0.43203 0.0
C1300 C 0.92585 0.13556 0.44629 0.0
C1301 C 0.90538 0.12555 0.45397 0.0
H1302 H 0.95517 0.13038 0.42615 0.0
H1303 H 0.75672 0.0362 0.50408 0.0
H1304 H 0.22876 0.5961 0.14243 0.0
H1305 H 0.19759 0.5834 0.11572 0.0
H1306 H 0.22771 0.62515 0.06232 0.0
H1307 H 0.25925 0.63783 0.08899 0.0
H1308 H 0.18416 0.6318 0.06511 0.0
H1309 H 0.22668 0.56602 0.05732 0.0
H1310 H 0.24912 0.53413 0.06989 0.0
H1311 H 0.19222 0.50362 0.10529 0.0
H1312 H 0.16952 0.53551 0.09323 0.0
H1313 H 0.09002 0.53832 0.01162 0.0
H1314 H 0.12969 0.55365 0.01546 0.0
H1315 H 0.11238 0.60072 0.07084 0.0
H1316 H 0.07318 0.58555 0.06711 0.0
H1317 H 0.15523 0.54912 0.05411 0.0
H1318 H 0.14708 0.64827 0.07465 0.0
H1319 H 0.12543 0.67983 0.05987 0.0
H1320 H 0.11566 0.64322 0.99391 0.0
H1321 H 0.13755 0.6116 0.00815 0.0
C1322 C 0.22905 0.60226 0.12488 0.0
C1323 C 0.24662 0.61793 0.11787 0.0
C1324 C 0.21117 0.59498 0.1096 0.0
C1325 C 0.21043 0.60306 0.08688 0.0
C1326 C 0.22795 0.61863 0.07974 0.0
C1327 C 0.24591 0.62594 0.09505 0.0
C1328 C 0.19062 0.59619 0.07128 0.0
C1329 C 0.17795 0.61372 0.06246 0.0
C1330 C 0.18288 0.57256 0.06714 0.0
C1331 C 0.19642 0.55324 0.07442 0.0
C1332 C 0.21899 0.5526 0.06791 0.0
C1333 C 0.23175 0.5345 0.07493 0.0
C1334 C 0.22211 0.51687 0.0884 0.0
C1335 C 0.19967 0.51728 0.09484 0.0
C1336 C 0.18683 0.53535 0.08788 0.0
C1337 C 0.09465 0.5525 0.02401 0.0
C1338 C 0.07861 0.56075 0.03911 0.0
C1339 C 0.11729 0.56112 0.02631 0.0
C1340 C 0.12402 0.57839 0.04339 0.0
C1341 C 0.10763 0.58767 0.05731 0.0
C1342 C 0.0852 0.57892 0.05522 0.0
C1343 C 0.1482 0.58479 0.0491 0.0
C1344 C 0.1617 0.56718 0.05618 0.0
C1345 C 0.15686 0.60832 0.05131 0.0
C1346 C 0.14392 0.62749 0.04253 0.0
C1347 C 0.14047 0.64702 0.05694 0.0
C1348 C 0.12811 0.66491 0.04866 0.0
C1349 C 0.11915 0.66352 0.02598 0.0
C1350 C 0.12257 0.64425 0.0115 0.0
C1351 C 0.13492 0.62632 0.01968 0.0
H1352 H 0.10958 0.67738 0.01961 0.0
H1353 H 0.23202 0.50287 0.09381 0.0
H1354 H 0.24813 0.424 0.55586 0.0
H1355 H 0.28539 0.43956 0.54438 0.0
H1356 H 0.31129 0.43186 0.61407 0.0
H1357 H 0.27415 0.41614 0.62564 0.0
H1358 H 0.32542 0.47338 0.59726 0.0
H1359 H 0.32137 0.39291 0.5702 0.0
H1360 H 0.3046 0.35826 0.54814 0.0
H1361 H 0.31127 0.39468 0.48455 0.0
H1362 H 0.32781 0.42967 0.50628 0.0
H1363 H 0.44153 0.48361 0.58449 0.0
H1364 H 0.40323 0.46783 0.59101 0.0
H1365 H 0.38623 0.47441 0.51839 0.0
H1366 H 0.42515 0.48941 0.51157 0.0
H1367 H 0.3661 0.43569 0.53385 0.0
H1368 H 0.37288 0.51542 0.56072 0.0
H1369 H 0.38996 0.54981 0.58295 0.0
H1370 H 0.37758 0.51546 0.64682 0.0
H1371 H 0.36092 0.48061 0.62503 0.0
C1372 C 0.26179 0.42548 0.56871 0.0
C1373 C 0.25817 0.41872 0.59166 0.0
C1374 C 0.28307 0.4344 0.56212 0.0
C1375 C 0.30119 0.43662 0.5783 0.0
C1376 C 0.29754 0.43031 0.6013 0.0
C1377 C 0.27627 0.42142 0.60791 0.0
C1378 C 0.32399 0.44552 0.57137 0.0
C1379 C 0.33441 0.46502 0.58355 0.0
C1380 C 0.33541 0.43505 0.55297 0.0
C1381 C 0.3256 0.41398 0.53989 0.0
C1382 C 0.3191 0.39358 0.55153 0.0
C1383 C 0.30966 0.37387 0.53909 0.0
C1384 C 0.30681 0.37429 0.51497 0.0
C1385 C 0.31345 0.39439 0.50323 0.0
C1386 C 0.32288 0.41416 0.5156 0.0
C1387 C 0.4297 0.48153 0.56985 0.0
C1388 C 0.43623 0.48799 0.54756 0.0
C1389 C 0.40776 0.47262 0.57362 0.0
C1390 C 0.39163 0.4706 0.55534 0.0
C1391 C 0.39834 0.47605 0.53281 0.0
C1392 C 0.42054 0.48459 0.52892 0.0
C1393 C 0.36776 0.4633 0.56009 0.0
C1394 C 0.35708 0.44419 0.54745 0.0
C1395 C 0.35603 0.47419 0.57805 0.0
C1396 C 0.36577 0.49531 0.5912 0.0
C1397 C 0.37391 0.51513 0.5795 0.0
C1398 C 0.38351 0.53472 0.59202 0.0
C1399 C 0.38483 0.53484 0.61625 0.0
C1400 C 0.37654 0.51535 0.62804 0.0
C1401 C 0.36702 0.49567 0.61562 0.0
H1402 H 0.39227 0.55004 0.62588 0.0
H1403 H 0.2995 0.35901 0.50536 0.0
H1404 H 0.93089 0.75699 0.90538 0.0
H1405 H 0.9509 0.72474 0.92046 0.0
H1406 H 0.89054 0.69847 0.9536 0.0
H1407 H 0.87049 0.73058 0.93864 0.0
H1408 H 0.92528 0.69663 0.98257 0.0
H1409 H 0.90971 0.67267 0.90293 0.0
H1410 H 0.90987 0.67677 0.86047 0.0
H1411 H 0.98222 0.68377 0.86263 0.0
H1412 H 0.98248 0.68001 0.90516 0.0
H1413 H 0.96119 0.58259 0.00591 0.0
H1414 H 0.94178 0.6167 0.9943 0.0
H1415 H 1.00102 0.64252 0.95885 0.0
H1416 H 0.02009 0.60824 0.96976 0.0
H1417 H 0.96655 0.64475 0.93129 0.0
H1418 H 0.98154 0.6665 0.01183 0.0
H1419 H 0.98021 0.66196 0.05418 0.0
H1420 H 0.90791 0.65925 0.05038 0.0
H1421 H 0.90877 0.66287 0.00804 0.0
C1422 C 0.92179 0.74423 0.91567 0.0
C1423 C 0.89902 0.74653 0.92076 0.0
C1424 C 0.93329 0.72575 0.92434 0.0
C1425 C 0.92226 0.70893 0.93811 0.0
C1426 C 0.89954 0.71119 0.94317 0.0
C1427 C 0.88808 0.72967 0.93459 0.0
C1428 C 0.93432 0.68905 0.94735 0.0
C1429 C 0.9341 0.68512 0.9713 0.0
C1430 C 0.94622 0.67418 0.93284 0.0
C1431 C 0.9461 0.67629 0.90725 0.0
C1432 C 0.92565 0.67525 0.89437 0.0
C1433 C 0.92566 0.67748 0.87029 0.0
C1434 C 0.94604 0.68059 0.85887 0.0
C1435 C 0.96645 0.68139 0.8715 0.0
C1436 C 0.96653 0.67919 0.89559 0.0
C1437 C 0.97025 0.59583 0.99612 0.0
C1438 C 0.99224 0.59267 0.98883 0.0
C1439 C 0.9591 0.61536 0.98941 0.0
C1440 C 0.96986 0.63239 0.97562 0.0
C1441 C 0.99219 0.62968 0.96929 0.0
C1442 C 1.00318 0.6101 0.97573 0.0
C1443 C 0.9577 0.65235 0.96663 0.0
C1444 C 0.95784 0.65627 0.94265 0.0
C1445 C 0.94565 0.66713 0.98114 0.0
C1446 C 0.94522 0.66469 0.00668 0.0
C1447 C 0.96535 0.66461 0.02 0.0
C1448 C 0.96468 0.66216 0.04404 0.0
C1449 C 0.94399 0.66011 0.055 0.0
C1450 C 0.92394 0.66056 0.04194 0.0
C1451 C 0.9245 0.66278 0.0179 0.0
H1452 H 0.9435 0.65829 0.07362 0.0
H1453 H 0.94602 0.68232 0.84022 0.0
H1454 H 0.41567 0.8017 0.14956 0.0
H1455 H 0.43484 0.83844 0.13861 0.0
H1456 H 0.37119 0.86975 0.13553 0.0
H1457 H 0.35184 0.8329 0.14642 0.0
H1458 H 0.39368 0.87838 0.09778 0.0
H1459 H 0.41156 0.88635 0.17855 0.0
H1460 H 0.42475 0.8745 0.21699 0.0
H1461 H 0.49057 0.86612 0.19051 0.0
H1462 H 0.4777 0.87758 0.15181 0.0
H1463 H 0.45747 0.97532 0.05629 0.0
H1464 H 0.43464 0.95669 0.0865 0.0
H1465 H 0.48398 0.90603 0.09474 0.0
H1466 H 0.50651 0.92445 0.06479 0.0
H1467 H 0.46368 0.91522 0.13579 0.0
H1468 H 0.44218 0.89656 0.05424 0.0
H1469 H 0.42974 0.90727 0.01509 0.0
H1470 H 0.37096 0.93519 0.04349 0.0
H1471 H 0.38324 0.92488 0.08286 0.0
C1472 C 0.40578 0.81653 0.14704 0.0
C1473 C 0.38222 0.81436 0.14885 0.0
C1474 C 0.41678 0.83758 0.14081 0.0
C1475 C 0.40451 0.85701 0.13652 0.0
C1476 C 0.38102 0.85503 0.13879 0.0
C1477 C 0.36999 0.83394 0.14493 0.0
C1478 C 0.41606 0.87864 0.12782 0.0
C1479 C 0.40861 0.88683 0.10647 0.0
C1480 C 0.43572 0.88957 0.13894 0.0
C1481 C 0.44361 0.88274 0.16222 0.0
C1482 C 0.42881 0.88183 0.18087 0.0
C1483 C 0.43624 0.8752 0.20272 0.0
C1484 C 0.45848 0.86954 0.20618 0.0
C1485 C 0.47335 0.87053 0.1878 0.0
C1486 C 0.466 0.87713 0.16592 0.0
C1487 C 0.46382 0.96087 0.06535 0.0
C1488 C 0.48359 0.95116 0.05825 0.0
C1489 C 0.45074 0.95013 0.08245 0.0
C1490 C 0.45745 0.92973 0.09257 0.0
C1491 C 0.47844 0.9217 0.08718 0.0
C1492 C 0.49131 0.93221 0.07004 0.0
C1493 C 0.44156 0.91438 0.10563 0.0
C1494 C 0.44826 0.90725 0.12764 0.0
C1495 C 0.42125 0.90431 0.09512 0.0
C1496 C 0.41374 0.91022 0.07147 0.0
C1497 C 0.42667 0.9051 0.05212 0.0
C1498 C 0.41965 0.91109 0.02991 0.0
C1499 C 0.39961 0.92197 0.02682 0.0
C1500 C 0.38651 0.92681 0.04592 0.0
C1501 C 0.39348 0.92091 0.06818 0.0
H1502 H 0.3942 0.9266 0.00961 0.0
H1503 H 0.4642 0.86441 0.22311 0.0
H1504 H 0.04839 0.26141 0.62435 0.0
H1505 H 0.03463 0.22503 0.60455 0.0
H1506 H 0.07023 0.24503 0.54325 0.0
H1507 H 0.08367 0.28213 0.56281 0.0
H1508 H 0.0269 0.22009 0.53342 0.0
H1509 H 0.09531 0.21178 0.57593 0.0
H1510 H 0.12182 0.21631 0.6096 0.0
H1511 H 0.07518 0.17569 0.65034 0.0
H1512 H 0.04821 0.17124 0.617 0.0
H1513 H 0.03289 0.09418 0.5032 0.0
H1514 H 0.03843 0.13693 0.50747 0.0
H1515 H 1.00462 0.13457 0.57276 0.0
H1516 H 0.99934 0.09224 0.56866 0.0
H1517 H 0.05069 0.15157 0.57516 0.0
H1518 H 0.98191 0.16068 0.5303 0.0
H1519 H 0.95768 0.15538 0.49491 0.0
H1520 H 0.00804 0.19327 0.45617 0.0
H1521 H 0.03276 0.19843 0.49124 0.0
C1522 C 0.05285 0.25848 0.60645 0.0
C1523 C 0.06724 0.27472 0.59523 0.0
C1524 C 0.04505 0.23756 0.59518 0.0
C1525 C 0.05158 0.23225 0.57252 0.0
C1526 C 0.065 0.24882 0.56075 0.0
C1527 C 0.07285 0.26987 0.57205 0.0
C1528 C 0.04617 0.20845 0.56242 0.0
C1529 C 0.03231 0.20506 0.5423 0.0
C1530 C 0.05342 0.18889 0.57392 0.0
C1531 C 0.06965 0.19135 0.59401 0.0
C1532 C 0.09063 0.20397 0.59212 0.0
C1533 C 0.10575 0.2065 0.61114 0.0
C1534 C 0.10017 0.19633 0.63211 0.0
C1535 C 0.07947 0.18357 0.63409 0.0
C1536 C 0.06426 0.18102 0.61513 0.0
C1537 C 0.02572 0.10299 0.51784 0.0
C1538 C 0.01569 0.09011 0.53562 0.0
C1539 C 0.029 0.12733 0.52035 0.0
C1540 C 0.02213 0.13881 0.54057 0.0
C1541 C 0.01011 0.12602 0.55709 0.0
C1542 C 0.00698 0.10188 0.55468 0.0
C1543 C 0.03056 0.16309 0.54676 0.0
C1544 C 0.0453 0.16655 0.56613 0.0
C1545 C 0.02438 0.18249 0.53429 0.0
C1546 C 0.00931 0.1797 0.51335 0.0
C1547 C 0.98792 0.16769 0.51419 0.0
C1548 C 0.97407 0.16475 0.4942 0.0
C1549 C 0.98136 0.17392 0.47329 0.0
C1550 C 1.00245 0.18614 0.47237 0.0
C1551 C 0.01638 0.18909 0.4923 0.0
H1552 H 0.97066 0.17162 0.45782 0.0
H1553 H 0.1119 0.19831 0.64682 0.0
H1554 H 0.5798 0.26135 0.42696 0.0
H1555 H 0.55882 0.29393 0.44048 0.0
H1556 H 0.61944 0.32678 0.4732 0.0
H1557 H 0.64057 0.2944 0.45961 0.0
H1558 H 0.58384 0.32953 0.5013 0.0
H1559 H 0.59983 0.34533 0.42169 0.0
H1560 H 0.60011 0.33634 0.37958 0.0
H1561 H 0.52783 0.32723 0.37729 0.0
H1562 H 0.52714 0.33587 0.41947 0.0
H1563 H 0.54738 0.44651 0.51178 0.0
H1564 H 0.56631 0.41033 0.50669 0.0
H1565 H 0.50724 0.37835 0.47014 0.0
H1566 H 0.48868 0.41455 0.4746 0.0
H1567 H 0.54222 0.37458 0.44474 0.0
H1568 H 0.5264 0.36336 0.52463 0.0
H1569 H 0.52687 0.37211 0.56676 0.0
H1570 H 0.59892 0.37109 0.56943 0.0
H1571 H 0.59909 0.36397 0.52717 0.0
C1572 C 0.58873 0.27558 0.43687 0.0
C1573 C 0.61192 0.27523 0.44211 0.0
C1574 C 0.57668 0.29417 0.44468 0.0
C1575 C 0.58758 0.31292 0.45774 0.0
C1576 C 0.61064 0.31248 0.46326 0.0
C1577 C 0.62269 0.2939 0.45548 0.0
C1578 C 0.57508 0.33322 0.46524 0.0
C1579 C 0.57493 0.33962 0.48897 0.0
C1580 C 0.56308 0.34604 0.44917 0.0
C1581 C 0.56345 0.34102 0.42377 0.0
C1582 C 0.58401 0.34125 0.41223 0.0
C1583 C 0.58424 0.33624 0.38835 0.0
C1584 C 0.564 0.33115 0.37578 0.0
C1585 C 0.54349 0.33114 0.38705 0.0
C1586 C 0.54317 0.33611 0.41094 0.0
C1587 C 0.53818 0.43147 0.50342 0.0
C1588 C 0.51657 0.43333 0.49355 0.0
C1589 C 0.54906 0.41081 0.50039 0.0
C1590 C 0.5383 0.39159 0.48782 0.0
C1591 C 0.51602 0.39296 0.47966 0.0
C1592 C 0.50533 0.4136 0.4824 0.0
C1593 C 0.55073 0.37098 0.48098 0.0
C1594 C 0.551 0.36456 0.45725 0.0
C1595 C 0.56285 0.35826 0.49712 0.0
C1596 C 0.56277 0.36346 0.52255 0.0
C1597 C 0.54241 0.36557 0.53408 0.0
C1598 C 0.54257 0.37034 0.55803 0.0
C1599 C 0.56295 0.37253 0.57076 0.0
C1600 C 0.58319 0.36993 0.55955 0.0
C1601 C 0.58317 0.36562 0.53556 0.0
H1602 H 0.56304 0.37603 0.58932 0.0
H1603 H 0.56421 0.32727 0.35729 0.0
loop_
_geom_bond_atom_site_label_1
_geom_bond_atom_site_label_2
_geom_bond_distance
_geom_bond_site_symmetry_2
_ccdc_geom_bond_type
C0 C1 1.264 . S
C0 C5 1.479 . S
C0 C10 1.465 . S
C1 C0 1.264 . S
C1 C3 1.339 . S
C1 H28 0.931 . S
C2 C3 1.395 . S
C2 C4 1.320 . S
C3 C1 1.339 . S
C3 C2 1.395 . S
C3 H29 0.929 . S
C4 C2 1.320 . S
C4 C5 1.405 . S
C4 H30 0.930 . S
C5 C0 1.479 . S
C5 C4 1.405 . S
C5 H31 0.931 . S
U6 O7 2.454 . S
U6 O8 2.458 . S
U6 C9 2.984 . S
U6 C10 2.847 . S
U6 C23 2.882 . S
U6 O24 2.441 . S
U6 O25 2.420 . S
U6 O26 2.455 . S
U6 O27 2.449 . S
O7 U6 2.454 . S
O7 C9 1.353 . S
O8 U6 2.458 . S
O8 C9 1.286 . S
C9 U6 2.984 . S
C9 O7 1.353 . S
C9 O8 1.286 . S
C9 C11 1.363 . S
C10 C0 1.465 . S
C10 U6 2.847 . S
C10 O24 1.249 . S
C10 O25 1.202 . S
C11 C9 1.363 . S
C11 C13 1.408 . S
C11 C16 1.342 . S
C12 C13 1.310 . S
C12 C15 1.461 . S
C12 H32 0.932 . S
C13 C11 1.408 . S
C13 C12 1.310 . S
C13 H33 0.930 . S
C14 C15 1.474 . S
C14 C16 1.285 . S
C14 H34 0.929 . S
C15 C12 1.461 . S
C15 C14 1.474 . S
C16 C11 1.342 . S
C16 C14 1.285 . S
C16 H35 0.930 . S
C17 C20 1.424 . S
C17 C22 1.245 . S
C17 C23 1.428 . S
C18 C21 1.260 . S
C18 C22 1.477 . S
C18 H36 0.932 . S
C19 C20 1.384 . S
C19 C21 1.479 . S
C19 H37 0.929 . S
C20 C17 1.424 . S
C20 C19 1.384 . S
C20 H38 0.928 . S
C21 C18 1.260 . S
C21 C19 1.479 . S
C22 C17 1.245 . S
C22 C18 1.477 . S
C22 H39 0.932 . S
C23 U6 2.882 . S
C23 C17 1.428 . S
C23 O26 1.301 . S
C23 O27 1.282 . S
O24 U6 2.441 . S
O24 C10 1.249 . S
O25 U6 2.420 . S
O25 C10 1.202 . S
O26 U6 2.455 . S
O26 C23 1.301 . S
O27 U6 2.449 . S
O27 C23 1.282 . S
H28 C1 0.931 . S
H29 C3 0.929 . S
H30 C4 0.930 . S
H31 C5 0.931 . S
H32 C12 0.932 . S
H33 C13 0.930 . S
H34 C14 0.929 . S
H35 C16 0.930 . S
H36 C18 0.932 . S
H37 C19 0.929 . S
H38 C20 0.928 . S
H39 C22 0.932 . S
C40 C41 1.264 . S
C40 C45 1.479 . S
C40 C50 1.465 . S
C41 C40 1.264 . S
C41 C43 1.339 . S
C41 H68 0.931 . S
C42 C43 1.395 . S
C42 C44 1.320 . S
C43 C41 1.339 . S
C43 C42 1.395 . S
C43 H69 0.929 . S
C44 C42 1.320 . S
C44 C45 1.405 . S
C44 H70 0.930 . S
C45 C40 1.479 . S
C45 C44 1.405 . S
C45 H71 0.931 . S
U46 O47 2.454 . S
U46 O48 2.458 . S
U46 C49 2.984 . S
U46 C50 2.847 . S
U46 C63 2.882 . S
U46 O64 2.441 . S
U46 O65 2.420 . S
U46 O66 2.455 . S
U46 O67 2.449 . S
O47 U46 2.454 . S
O47 C49 1.353 . S
O48 U46 2.458 . S
O48 C49 1.286 . S
C49 U46 2.984 . S
C49 O47 1.353 . S
C49 O48 1.286 . S
C49 C51 1.363 . S
C50 C40 1.465 . S
C50 U46 2.847 . S
C50 O64 1.249 . S
C50 O65 1.202 . S
C51 C49 1.363 . S
C51 C53 1.408 . S
C51 C56 1.342 . S
C52 C53 1.310 . S
C52 C55 1.461 . S
C52 H72 0.932 . S
C53 C51 1.408 . S
C53 C52 1.310 . S
C53 H73 0.930 . S
C54 C55 1.474 . S
C54 C56 1.285 . S
C54 H74 0.929 . S
C55 C52 1.461 . S
C55 C54 1.474 . S
C56 C51 1.342 . S
C56 C54 1.285 . S
C56 H75 0.930 . S
C57 C60 1.424 . S
C57 C62 1.245 . S
C57 C63 1.428 . S
C58 C61 1.260 . S
C58 C62 1.477 . S
C58 H76 0.932 . S
C59 C60 1.384 . S
C59 C61 1.479 . S
C59 H77 0.929 . S
C60 C57 1.424 . S
C60 C59 1.384 . S
C60 H78 0.928 . S
C61 C58 1.260 . S
C61 C59 1.479 . S
C62 C57 1.245 . S
C62 C58 1.477 . S
C62 H79 0.932 . S
C63 U46 2.882 . S
C63 C57 1.428 . S
C63 O66 1.301 . S
C63 O67 1.282 . S
O64 U46 2.441 . S
O64 C50 1.249 . S
O65 U46 2.420 . S
O65 C50 1.202 . S
O66 U46 2.455 . S
O66 C63 1.301 . S
O67 U46 2.449 . S
O67 C63 1.282 . S
H68 C41 0.931 . S
H69 C43 0.929 . S
H70 C44 0.930 . S
H71 C45 0.931 . S
H72 C52 0.932 . S
H73 C53 0.930 . S
H74 C54 0.929 . S
H75 C56 0.930 . S
H76 C58 0.932 . S
H77 C59 0.929 . S
H78 C60 0.928 . S
H79 C62 0.932 . S
C80 C81 1.264 . S
C80 C85 1.479 . S
C80 C90 1.465 . S
C81 C80 1.264 . S
C81 C83 1.339 . S
C81 H108 0.931 . S
C82 C83 1.395 . S
C82 C84 1.320 . S
C83 C81 1.339 . S
C83 C82 1.395 . S
C83 H109 0.929 . S
C84 C82 1.320 . S
C84 C85 1.405 . S
C84 H110 0.930 . S
C85 C80 1.479 . S
C85 C84 1.405 . S
C85 H111 0.931 . S
U86 O87 2.454 . S
U86 O88 2.458 . S
U86 C89 2.984 . S
U86 C90 2.847 . S
U86 C103 2.882 . S
U86 O104 2.441 . S
U86 O105 2.420 . S
U86 O106 2.455 . S
U86 O107 2.449 . S
O87 U86 2.454 . S
O87 C89 1.353 . S
O88 U86 2.458 . S
O88 C89 1.286 . S
C89 U86 2.984 . S
C89 O87 1.353 . S
C89 O88 1.286 . S
C89 C91 1.363 . S
C90 C80 1.465 . S
C90 U86 2.847 . S
C90 O104 1.249 . S
C90 O105 1.202 . S
C91 C89 1.363 . S
C91 C93 1.408 . S
C91 C96 1.342 . S
C92 C93 1.310 . S
C92 C95 1.461 . S
C92 H112 0.932 . S
C93 C91 1.408 . S
C93 C92 1.310 . S
C93 H113 0.930 . S
C94 C95 1.474 . S
C94 C96 1.285 . S
C94 H114 0.929 . S
C95 C92 1.461 . S
C95 C94 1.474 . S
C96 C91 1.342 . S
C96 C94 1.285 . S
C96 H115 0.930 . S
C97 C100 1.424 . S
C97 C102 1.245 . S
C97 C103 1.428 . S
C98 C101 1.260 . S
C98 C102 1.477 . S
C98 H116 0.932 . S
C99 C100 1.384 . S
C99 C101 1.479 . S
C99 H117 0.929 . S
C100 C97 1.424 . S
C100 C99 1.384 . S
C100 H118 0.928 . S
C101 C98 1.260 . S
C101 C99 1.479 . S
C102 C97 1.245 . S
C102 C98 1.477 . S
C102 H119 0.932 . S
C103 U86 2.882 . S
C103 C97 1.428 . S
C103 O106 1.301 . S
C103 O107 1.282 . S
O104 U86 2.441 . S
O104 C90 1.249 . S
O105 U86 2.420 . S
O105 C90 1.202 . S
O106 U86 2.455 . S
O106 C103 1.301 . S
O107 U86 2.449 . S
O107 C103 1.282 . S
H108 C81 0.931 . S
H109 C83 0.929 . S
H110 C84 0.930 . S
H111 C85 0.931 . S
H112 C92 0.932 . S
H113 C93 0.930 . S
H114 C94 0.929 . S
H115 C96 0.930 . S
H116 C98 0.932 . S
H117 C99 0.929 . S
H118 C100 0.928 . S
H119 C102 0.932 . S
C120 C121 1.264 . S
C120 C125 1.479 . S
C120 C130 1.465 . S
C121 C120 1.264 . S
C121 C123 1.339 . S
C121 H148 0.931 . S
C122 C123 1.395 . S
C122 C124 1.320 . S
C123 C121 1.339 . S
C123 C122 1.395 . S
C123 H149 0.929 . S
C124 C122 1.320 . S
C124 C125 1.405 . S
C124 H150 0.930 . S
C125 C120 1.479 . S
C125 C124 1.405 . S
C125 H151 0.931 . S
U126 O127 2.454 . S
U126 O128 2.458 . S
U126 C129 2.984 . S
U126 C130 2.847 . S
U126 C143 2.882 . S
U126 O144 2.441 . S
U126 O145 2.420 . S
U126 O146 2.455 . S
U126 O147 2.449 . S
O127 U126 2.454 . S
O127 C129 1.353 . S
O128 U126 2.458 . S
O128 C129 1.286 . S
C129 U126 2.984 . S
C129 O127 1.353 . S
C129 O128 1.286 . S
C129 C131 1.363 . S
C130 C120 1.465 . S
C130 U126 2.847 . S
C130 O144 1.249 . S
C130 O145 1.202 . S
C131 C129 1.363 . S
C131 C133 1.408 . S
C131 C136 1.342 . S
C132 C133 1.310 . S
C132 C135 1.461 . S
C132 H152 0.932 . S
C133 C131 1.408 . S
C133 C132 1.310 . S
C133 H153 0.930 . S
C134 C135 1.474 . S
C134 C136 1.285 . S
C134 H154 0.929 . S
C135 C132 1.461 . S
C135 C134 1.474 . S
C136 C131 1.342 . S
C136 C134 1.285 . S
C136 H155 0.930 . S
C137 C140 1.424 . S
C137 C142 1.245 . S
C137 C143 1.428 . S
C138 C141 1.260 . S
C138 C142 1.477 . S
C138 H156 0.932 . S
C139 C140 1.384 . S
C139 C141 1.479 . S
C139 H157 0.929 . S
C140 C137 1.424 . S
C140 C139 1.384 . S
C140 H158 0.928 . S
C141 C138 1.260 . S
C141 C139 1.479 . S
C142 C137 1.245 . S
C142 C138 1.477 . S
C142 H159 0.932 . S
C143 U126 2.882 . S
C143 C137 1.428 . S
C143 O146 1.301 . S
C143 O147 1.282 . S
O144 U126 2.441 . S
O144 C130 1.249 . S
O145 U126 2.420 . S
O145 C130 1.202 . S
O146 U126 2.455 . S
O146 C143 1.301 . S
O147 U126 2.449 . S
O147 C143 1.282 . S
H148 C121 0.931 . S
H149 C123 0.929 . S
H150 C124 0.930 . S
H151 C125 0.931 . S
H152 C132 0.932 . S
H153 C133 0.930 . S
H154 C134 0.929 . S
H155 C136 0.930 . S
H156 C138 0.932 . S
H157 C139 0.929 . S
H158 C140 0.928 . S
H159 C142 0.932 . S
C160 C161 1.264 . S
C160 C165 1.479 . S
C160 C170 1.465 . S
C161 C160 1.264 . S
C161 C163 1.339 . S
C161 H188 0.931 . S
C162 C163 1.395 . S
C162 C164 1.320 . S
C163 C161 1.339 . S
C163 C162 1.395 . S
C163 H189 0.929 . S
C164 C162 1.320 . S
C164 C165 1.405 . S
C164 H190 0.930 . S
C165 C160 1.479 . S
C165 C164 1.405 . S
C165 H191 0.931 . S
U166 O167 2.454 . S
U166 O168 2.458 . S
U166 C169 2.984 . S
U166 C170 2.847 . S
U166 C183 2.882 . S
U166 O184 2.441 . S
U166 O185 2.420 . S
U166 O186 2.455 . S
U166 O187 2.449 . S
O167 U166 2.454 . S
O167 C169 1.353 . S
O168 U166 2.458 . S
O168 C169 1.286 . S
C169 U166 2.984 . S
C169 O167 1.353 . S
C169 O168 1.286 . S
C169 C171 1.363 . S
C170 C160 1.465 . S
C170 U166 2.847 . S
C170 O184 1.249 . S
C170 O185 1.202 . S
C171 C169 1.363 . S
C171 C173 1.408 . S
C171 C176 1.342 . S
C172 C173 1.310 . S
C172 C175 1.461 . S
C172 H192 0.932 . S
C173 C171 1.408 . S
C173 C172 1.310 . S
C173 H193 0.930 . S
C174 C175 1.474 . S
C174 C176 1.285 . S
C174 H194 0.929 . S
C175 C172 1.461 . S
C175 C174 1.474 . S
C176 C171 1.342 . S
C176 C174 1.285 . S
C176 H195 0.930 . S
C177 C180 1.424 . S
C177 C182 1.245 . S
C177 C183 1.428 . S
C178 C181 1.260 . S
C178 C182 1.477 . S
C178 H196 0.932 . S
C179 C180 1.384 . S
C179 C181 1.479 . S
C179 H197 0.929 . S
C180 C177 1.424 . S
C180 C179 1.384 . S
C180 H198 0.928 . S
C181 C178 1.260 . S
C181 C179 1.479 . S
C182 C177 1.245 . S
C182 C178 1.477 . S
C182 H199 0.932 . S
C183 U166 2.882 . S
C183 C177 1.428 . S
C183 O186 1.301 . S
C183 O187 1.282 . S
O184 U166 2.441 . S
O184 C170 1.249 . S
O185 U166 2.420 . S
O185 C170 1.202 . S
O186 U166 2.455 . S
O186 C183 1.301 . S
O187 U166 2.449 . S
O187 C183 1.282 . S
H188 C161 0.931 . S
H189 C163 0.929 . S
H190 C164 0.930 . S
H191 C165 0.931 . S
H192 C172 0.932 . S
H193 C173 0.930 . S
H194 C174 0.929 . S
H195 C176 0.930 . S
H196 C178 0.932 . S
H197 C179 0.929 . S
H198 C180 0.928 . S
H199 C182 0.932 . S
C200 C201 1.264 . S
C200 C205 1.479 . S
C200 C210 1.465 . S
C201 C200 1.264 . S
C201 C203 1.339 . S
C201 H228 0.931 . S
C202 C203 1.395 . S
C202 C204 1.320 . S
C203 C201 1.339 . S
C203 C202 1.395 . S
C203 H229 0.929 . S
C204 C202 1.320 . S
C204 C205 1.405 . S
C204 H230 0.930 . S
C205 C200 1.479 . S
C205 C204 1.405 . S
C205 H231 0.931 . S
U206 O207 2.454 . S
U206 O208 2.458 . S
U206 C209 2.984 . S
U206 C210 2.847 . S
U206 C223 2.882 . S
U206 O224 2.441 . S
U206 O225 2.420 . S
U206 O226 2.455 . S
U206 O227 2.449 . S
O207 U206 2.454 . S
O207 C209 1.353 . S
O208 U206 2.458 . S
O208 C209 1.286 . S
C209 U206 2.984 . S
C209 O207 1.353 . S
C209 O208 1.286 . S
C209 C211 1.363 . S
C210 C200 1.465 . S
C210 U206 2.847 . S
C210 O224 1.249 . S
C210 O225 1.202 . S
C211 C209 1.363 . S
C211 C213 1.408 . S
C211 C216 1.342 . S
C212 C213 1.310 . S
C212 C215 1.461 . S
C212 H232 0.932 . S
C213 C211 1.408 . S
C213 C212 1.310 . S
C213 H233 0.930 . S
C214 C215 1.474 . S
C214 C216 1.285 . S
C214 H234 0.929 . S
C215 C212 1.461 . S
C215 C214 1.474 . S
C216 C211 1.342 . S
C216 C214 1.285 . S
C216 H235 0.930 . S
C217 C220 1.424 . S
C217 C222 1.245 . S
C217 C223 1.428 . S
C218 C221 1.260 . S
C218 C222 1.477 . S
C218 H236 0.932 . S
C219 C220 1.384 . S
C219 C221 1.479 . S
C219 H237 0.929 . S
C220 C217 1.424 . S
C220 C219 1.384 . S
C220 H238 0.928 . S
C221 C218 1.260 . S
C221 C219 1.479 . S
C222 C217 1.245 . S
C222 C218 1.477 . S
C222 H239 0.932 . S
C223 U206 2.882 . S
C223 C217 1.428 . S
C223 O226 1.301 . S
C223 O227 1.282 . S
O224 U206 2.441 . S
O224 C210 1.249 . S
O225 U206 2.420 . S
O225 C210 1.202 . S
O226 U206 2.455 . S
O226 C223 1.301 . S
O227 U206 2.449 . S
O227 C223 1.282 . S
H228 C201 0.931 . S
H229 C203 0.929 . S
H230 C204 0.930 . S
H231 C205 0.931 . S
H232 C212 0.932 . S
H233 C213 0.930 . S
H234 C214 0.929 . S
H235 C216 0.930 . S
H236 C218 0.932 . S
H237 C219 0.929 . S
H238 C220 0.928 . S
H239 C222 0.932 . S
C240 C241 1.264 . S
C240 C245 1.479 . S
C240 C250 1.465 . S
C241 C240 1.264 . S
C241 C243 1.339 . S
C241 H268 0.931 . S
C242 C243 1.395 . S
C242 C244 1.320 . S
C243 C241 1.339 . S
C243 C242 1.395 . S
C243 H269 0.929 . S
C244 C242 1.320 . S
C244 C245 1.405 . S
C244 H270 0.930 . S
C245 C240 1.479 . S
C245 C244 1.405 . S
C245 H271 0.931 . S
U246 O247 2.454 . S
U246 O248 2.458 . S
U246 C249 2.984 . S
U246 C250 2.847 . S
U246 C263 2.882 . S
U246 O264 2.441 . S
U246 O265 2.420 . S
U246 O266 2.455 . S
U246 O267 2.449 . S
O247 U246 2.454 . S
O247 C249 1.353 . S
O248 U246 2.458 . S
O248 C249 1.286 . S
C249 U246 2.984 . S
C249 O247 1.353 . S
C249 O248 1.286 . S
C249 C251 1.363 . S
C250 C240 1.465 . S
C250 U246 2.847 . S
C250 O264 1.249 . S
C250 O265 1.202 . S
C251 C249 1.363 . S
C251 C253 1.408 . S
C251 C256 1.342 . S
C252 C253 1.310 . S
C252 C255 1.461 . S
C252 H272 0.932 . S
C253 C251 1.408 . S
C253 C252 1.310 . S
C253 H273 0.930 . S
C254 C255 1.474 . S
C254 C256 1.285 . S
C254 H274 0.929 . S
C255 C252 1.461 . S
C255 C254 1.474 . S
C256 C251 1.342 . S
C256 C254 1.285 . S
C256 H275 0.930 . S
C257 C260 1.424 . S
C257 C262 1.245 . S
C257 C263 1.428 . S
C258 C261 1.260 . S
C258 C262 1.477 . S
C258 H276 0.932 . S
C259 C260 1.384 . S
C259 C261 1.479 . S
C259 H277 0.929 . S
C260 C257 1.424 . S
C260 C259 1.384 . S
C260 H278 0.928 . S
C261 C258 1.260 . S
C261 C259 1.479 . S
C262 C257 1.245 . S
C262 C258 1.477 . S
C262 H279 0.932 . S
C263 U246 2.882 . S
C263 C257 1.428 . S
C263 O266 1.301 . S
C263 O267 1.282 . S
O264 U246 2.441 . S
O264 C250 1.249 . S
O265 U246 2.420 . S
O265 C250 1.202 . S
O266 U246 2.455 . S
O266 C263 1.301 . S
O267 U246 2.449 . S
O267 C263 1.282 . S
H268 C241 0.931 . S
H269 C243 0.929 . S
H270 C244 0.930 . S
H271 C245 0.931 . S
H272 C252 0.932 . S
H273 C253 0.930 . S
H274 C254 0.929 . S
H275 C256 0.930 . S
H276 C258 0.932 . S
H277 C259 0.929 . S
H278 C260 0.928 . S
H279 C262 0.932 . S
C280 C281 1.264 . S
C280 C285 1.479 . S
C280 C290 1.465 . S
C281 C280 1.264 . S
C281 C283 1.339 . S
C281 H308 0.931 . S
C282 C283 1.395 . S
C282 C284 1.320 . S
C283 C281 1.339 . S
C283 C282 1.395 . S
C283 H309 0.929 . S
C284 C282 1.320 . S
C284 C285 1.405 . S
C284 H310 0.930 . S
C285 C280 1.479 . S
C285 C284 1.405 . S
C285 H311 0.931 . S
U286 O287 2.454 . S
U286 O288 2.458 . S
U286 C289 2.984 . S
U286 C290 2.847 . S
U286 C303 2.882 . S
U286 O304 2.441 . S
U286 O305 2.420 . S
U286 O306 2.455 . S
U286 O307 2.449 . S
O287 U286 2.454 . S
O287 C289 1.353 . S
O288 U286 2.458 . S
O288 C289 1.286 . S
C289 U286 2.984 . S
C289 O287 1.353 . S
C289 O288 1.286 . S
C289 C291 1.363 . S
C290 C280 1.465 . S
C290 U286 2.847 . S
C290 O304 1.249 . S
C290 O305 1.202 . S
C291 C289 1.363 . S
C291 C293 1.408 . S
C291 C296 1.342 . S
C292 C293 1.310 . S
C292 C295 1.461 . S
C292 H312 0.932 . S
C293 C291 1.408 . S
C293 C292 1.310 . S
C293 H313 0.930 . S
C294 C295 1.474 . S
C294 C296 1.285 . S
C294 H314 0.929 . S
C295 C292 1.461 . S
C295 C294 1.474 . S
C296 C291 1.342 . S
C296 C294 1.285 . S
C296 H315 0.930 . S
C297 C300 1.424 . S
C297 C302 1.245 . S
C297 C303 1.428 . S
C298 C301 1.260 . S
C298 C302 1.477 . S
C298 H316 0.932 . S
C299 C300 1.384 . S
C299 C301 1.479 . S
C299 H317 0.929 . S
C300 C297 1.424 . S
C300 C299 1.384 . S
C300 H318 0.928 . S
C301 C298 1.260 . S
C301 C299 1.479 . S
C302 C297 1.245 . S
C302 C298 1.477 . S
C302 H319 0.932 . S
C303 U286 2.882 . S
C303 C297 1.428 . S
C303 O306 1.301 . S
C303 O307 1.282 . S
O304 U286 2.441 . S
O304 C290 1.249 . S
O305 U286 2.420 . S
O305 C290 1.202 . S
O306 U286 2.455 . S
O306 C303 1.301 . S
O307 U286 2.449 . S
O307 C303 1.282 . S
H308 C281 0.931 . S
H309 C283 0.929 . S
H310 C284 0.930 . S
H311 C285 0.931 . S
H312 C292 0.932 . S
H313 C293 0.930 . S
H314 C294 0.929 . S
H315 C296 0.930 . S
H316 C298 0.932 . S
H317 C299 0.929 . S
H318 C300 0.928 . S
H319 C302 0.932 . S
O320 Mg321 1.990 . S
O320 C334 1.253 1_445 S
Mg321 O320 1.990 . S
Mg321 O324 2.180 . S
Mg321 O325 2.117 . S
Mg321 O339 1.994 1_545 S
O322 Mg323 2.072 1_665 S
O322 C334 1.260 . S
Mg323 O322 2.072 1_445 S
Mg323 O324 2.099 . S
Mg323 O326 2.079 . S
Mg323 O327 2.072 1_455 S
Mg323 O329 2.099 1_445 S
Mg323 O340 2.079 1_545 S
O324 Mg321 2.180 . S
O324 Mg323 2.099 . S
O324 C335 1.279 . S
O325 Mg321 2.117 . S
O325 C335 1.250 . S
O326 Mg323 2.079 . S
O326 C336 1.264 . S
O327 Mg323 2.072 1_655 S
O327 C337 1.260 . S
Mg328 O329 2.180 . S
Mg328 O330 2.030 1_565 S
Mg328 O331 1.990 1_565 S
Mg328 O332 2.117 . S
O329 Mg323 2.099 1_665 S
O329 Mg328 2.180 . S
O329 C338 1.279 . S
O330 Mg328 2.030 1_545 S
O330 C336 1.248 1_655 S
O331 Mg328 1.990 1_545 S
O331 C337 1.253 . S
O332 Mg328 2.117 . S
O332 C338 1.250 . S
C333 O339 1.265 . S
C333 O340 1.264 . S
C334 O320 1.253 1_665 S
C334 O322 1.260 . S
C335 O324 1.279 . S
C335 O325 1.250 . S
C336 O326 1.264 . S
C336 O330 1.248 1_455 S
C337 O327 1.260 . S
C337 O331 1.253 . S
C338 O329 1.279 . S
C338 O332 1.250 . S
O339 Mg321 1.994 1_565 S
O339 C333 1.265 . S
O340 Mg323 2.079 1_565 S
O340 C333 1.264 . S
O341 Mg342 1.990 . S
O341 C355 1.253 . S
Mg342 O341 1.990 . S
Mg342 O345 2.180 . S
Mg342 O346 2.117 1_554 S
Mg342 O360 2.030 . S
O343 Mg344 2.072 . S
O343 C355 1.260 . S
Mg344 O343 2.072 . S
Mg344 O345 2.099 . S
Mg344 O347 2.079 1_554 S
Mg344 O348 2.072 1_554 S
Mg344 O350 2.099 1_545 S
Mg344 O361 2.079 . S
O345 Mg342 2.180 . S
O345 Mg344 2.099 . S
O345 C356 1.279 1_554 S
O346 Mg342 2.117 1_556 S
O346 C356 1.250 . S
O347 Mg344 2.079 1_556 S
O347 C357 1.264 1_545 S
O348 Mg344 2.072 1_556 S
O348 C358 1.260 1_545 S
Mg349 O350 2.180 1_556 S
Mg349 O351 2.030 . S
Mg349 O352 1.990 . S
Mg349 O353 2.117 1_556 S
O350 Mg344 2.099 1_565 S
O350 Mg349 2.180 1_554 S
O350 C359 1.279 . S
O351 Mg349 2.030 . S
O351 C357 1.248 . S
O352 Mg349 1.990 . S
O352 C358 1.253 . S
O353 Mg349 2.117 1_554 S
O353 C359 1.250 . S
C354 O360 1.248 . S
C354 O361 1.264 . S
C355 O341 1.253 . S
C355 O343 1.260 . S
C356 O345 1.279 1_556 S
C356 O346 1.250 . S
C357 O347 1.264 1_565 S
C357 O351 1.248 . S
C358 O348 1.260 1_565 S
C358 O352 1.253 . S
C359 O350 1.279 . S
C359 O353 1.250 . S
O360 Mg342 2.030 . S
O360 C354 1.248 . S
O361 Mg344 2.079 . S
O361 C354 1.264 . S
O362 Mg363 1.990 . S
O362 C376 1.253 . S
Mg363 O362 1.990 . S
Mg363 O366 2.180 . S
Mg363 O367 2.117 . S
Mg363 O381 2.030 . S
O364 Mg365 2.072 . S
O364 C376 1.260 . S
Mg365 O364 2.072 . S
Mg365 O366 2.099 . S
Mg365 O368 2.079 . S
Mg365 O369 2.072 . S
Mg365 O371 2.099 . S
Mg365 O382 2.079 . S
O366 Mg363 2.180 . S
O366 Mg365 2.099 . S
O366 C377 1.279 . S
O367 Mg363 2.117 . S
O367 C377 1.250 . S
O368 Mg365 2.079 . S
O368 C378 1.264 . S
O369 Mg365 2.072 . S
O369 C379 1.260 . S
Mg370 O371 2.180 . S
Mg370 O372 2.030 . S
Mg370 O373 1.990 . S
Mg370 O374 2.117 . S
O371 Mg365 2.099 . S
O371 Mg370 2.180 . S
O371 C380 1.279 . S
O372 Mg370 2.030 . S
O372 C378 1.248 . S
O373 Mg370 1.990 . S
O373 C379 1.253 . S
O374 Mg370 2.117 . S
O374 C380 1.250 . S
C375 O381 1.248 . S
C375 O382 1.264 . S
C376 O362 1.253 . S
C376 O364 1.260 . S
C377 O366 1.279 . S
C377 O367 1.250 . S
C378 O368 1.264 . S
C378 O372 1.248 . S
C379 O369 1.260 . S
C379 O373 1.253 . S
C380 O371 1.279 . S
C380 O374 1.250 . S
O381 Mg363 2.030 . S
O381 C375 1.248 . S
O382 Mg365 2.079 . S
O382 C375 1.264 . S
O383 Mg384 1.990 . S
O383 C397 1.253 . S
Mg384 O383 1.990 . S
Mg384 O387 2.180 1_455 S
Mg384 O388 2.117 1_455 S
Mg384 O402 2.030 . S
O385 Mg386 2.072 . S
O385 C397 1.260 . S
Mg386 O385 2.072 . S
Mg386 O387 2.099 1_455 S
Mg386 O389 2.079 1_454 S
Mg386 O390 2.072 1_455 S
Mg386 O392 2.099 1_554 S
Mg386 O403 2.079 . S
O387 Mg384 2.180 1_655 S
O387 Mg386 2.099 1_655 S
O387 C398 1.279 . S
O388 Mg384 2.117 1_655 S
O388 C398 1.250 . S
O389 Mg386 2.079 1_656 S
O389 C399 1.264 . S
O390 Mg386 2.072 1_655 S
O390 C400 1.260 1_554 S
Mg391 O392 2.180 1_655 S
Mg391 O393 2.030 . S
Mg391 O394 1.990 . S
Mg391 O395 2.117 . S
O392 Mg386 2.099 1_556 S
O392 Mg391 2.180 1_455 S
O392 C401 1.279 . S
O393 Mg391 2.030 . S
O393 C399 1.248 . S
O394 Mg391 1.990 . S
O394 C400 1.253 . S
O395 Mg391 2.117 . S
O395 C401 1.250 1_655 S
C396 O402 1.248 . S
C396 O403 1.264 . S
C397 O383 1.253 . S
C397 O385 1.260 . S
C398 O387 1.279 . S
C398 O388 1.250 . S
C399 O389 1.264 . S
C399 O393 1.248 . S
C400 O390 1.260 1_556 S
C400 O394 1.253 . S
C401 O392 1.279 . S
C401 O395 1.250 1_455 S
O402 Mg384 2.030 . S
O402 C396 1.248 . S
O403 Mg386 2.079 . S
O403 C396 1.264 . S
H404 C422 0.951 . S
H405 C424 0.951 . S
H406 C426 0.950 . S
H407 C427 0.950 . S
H408 C429 0.950 . S
H409 C432 0.950 . S
H410 C433 0.950 . S
H411 C435 0.950 . S
H412 C436 0.950 . S
H413 C437 0.951 . S
H414 C439 0.951 . S
H415 C441 0.950 . S
H416 C442 0.950 . S
H417 C444 0.950 . S
H418 C447 0.950 . S
H419 C448 0.950 1_655 S
H420 C450 0.950 . S
H421 C451 0.950 . S
C422 H404 0.951 . S
C422 C423 1.366 . S
C422 C424 1.388 . S
C423 C422 1.366 . S
C423 C427 1.385 . S
C424 H405 0.951 . S
C424 C422 1.388 . S
C424 C425 1.366 . S
C425 C424 1.366 . S
C425 C426 1.414 . S
C425 C428 1.499 . S
C426 H406 0.950 . S
C426 C425 1.414 . S
C426 C427 1.374 . S
C427 H407 0.950 . S
C427 C423 1.385 . S
C427 C426 1.374 . S
C428 C425 1.499 . S
C428 C429 1.373 . S
C428 C430 1.389 . S
C429 H408 0.950 . S
C429 C428 1.373 . S
C429 C445 1.377 . S
C430 C428 1.389 . S
C430 C431 1.524 . S
C430 C444 1.377 . S
C431 C430 1.524 . S
C431 C432 1.397 . S
C431 C436 1.363 . S
C432 H409 0.950 . S
C432 C431 1.397 . S
C432 C433 1.334 . S
C433 H410 0.950 . S
C433 C432 1.334 . S
C433 C434 1.287 . S
C434 C433 1.287 . S
C434 C435 1.524 . S
C434 H453 0.913 . S
C435 H411 0.950 . S
C435 C434 1.524 . S
C435 C436 1.415 . S
C436 H412 0.950 . S
C436 C431 1.363 . S
C436 C435 1.415 . S
C437 H413 0.951 . S
C437 C438 1.366 . S
C437 C439 1.388 . S
C438 C437 1.366 . S
C438 C442 1.385 . S
C439 H414 0.951 . S
C439 C437 1.388 . S
C439 C440 1.366 . S
C440 C439 1.366 . S
C440 C441 1.414 . S
C440 C443 1.499 . S
C441 H415 0.950 . S
C441 C440 1.414 . S
C441 C442 1.374 . S
C442 H416 0.950 . S
C442 C438 1.385 . S
C442 C441 1.374 . S
C443 C440 1.499 . S
C443 C444 1.373 . S
C443 C445 1.389 . S
C444 H417 0.950 . S
C444 C430 1.377 . S
C444 C443 1.373 . S
C445 C429 1.377 . S
C445 C443 1.389 . S
C445 C446 1.524 . S
C446 C445 1.524 . S
C446 C447 1.397 . S
C446 C451 1.363 1_545 S
C447 H418 0.950 . S
C447 C446 1.397 . S
C447 C448 1.334 1_545 S
C448 H419 0.950 1_455 S
C448 C447 1.334 1_565 S
C448 C449 1.287 . S
C449 C448 1.287 . S
C449 C450 1.524 . S
C449 H452 0.999 . S
C450 H420 0.950 . S
C450 C449 1.524 . S
C450 C451 1.415 . S
C451 H421 0.950 . S
C451 C446 1.363 1_565 S
C451 C450 1.415 . S
H452 C449 0.999 . S
H453 C434 0.913 . S
H454 C472 0.951 . S
H455 C474 0.951 . S
H456 C476 0.950 . S
H457 C477 0.950 . S
H458 C479 0.950 . S
H459 C482 0.950 . S
H460 C483 0.950 . S
H461 C485 0.950 1_545 S
H462 C486 0.950 1_545 S
H463 C487 0.951 . S
H464 C489 0.951 . S
H465 C491 0.950 . S
H466 C492 0.950 . S
H467 C494 0.950 . S
H468 C497 0.950 . S
H469 C498 0.950 . S
H470 C500 0.950 . S
H471 C501 0.950 . S
C472 H454 0.951 . S
C472 C473 1.366 . S
C472 C474 1.388 . S
C473 C472 1.366 . S
C473 C477 1.385 . S
C474 H455 0.951 . S
C474 C472 1.388 . S
C474 C475 1.366 . S
C475 C474 1.366 . S
C475 C476 1.414 . S
C475 C478 1.499 . S
C476 H456 0.950 . S
C476 C475 1.414 . S
C476 C477 1.374 . S
C477 H457 0.950 . S
C477 C473 1.385 . S
C477 C476 1.374 . S
C478 C475 1.499 . S
C478 C479 1.373 . S
C478 C480 1.389 . S
C479 H458 0.950 . S
C479 C478 1.373 . S
C479 C495 1.377 . S
C480 C478 1.389 . S
C480 C481 1.524 . S
C480 C494 1.377 . S
C481 C480 1.524 . S
C481 C482 1.397 . S
C481 C486 1.363 . S
C482 H459 0.950 . S
C482 C481 1.397 . S
C482 C483 1.334 . S
C483 H460 0.950 . S
C483 C482 1.334 . S
C483 C484 1.287 . S
C484 C483 1.287 . S
C484 C485 1.524 . S
C484 H503 0.913 . S
C485 H461 0.950 1_565 S
C485 C484 1.524 . S
C485 C486 1.415 . S
C486 H462 0.950 1_565 S
C486 C481 1.363 . S
C486 C485 1.415 . S
C487 H463 0.951 . S
C487 C488 1.366 . S
C487 C489 1.388 . S
C488 C487 1.366 . S
C488 C492 1.385 1_565 S
C489 H464 0.951 . S
C489 C487 1.388 . S
C489 C490 1.366 . S
C490 C489 1.366 . S
C490 C491 1.414 1_565 S
C490 C493 1.499 . S
C491 H465 0.950 . S
C491 C490 1.414 1_545 S
C491 C492 1.374 . S
C492 H466 0.950 . S
C492 C488 1.385 1_545 S
C492 C491 1.374 . S
C493 C490 1.499 . S
C493 C494 1.373 . S
C493 C495 1.389 . S
C494 H467 0.950 . S
C494 C480 1.377 . S
C494 C493 1.373 . S
C495 C479 1.377 . S
C495 C493 1.389 . S
C495 C496 1.524 . S
C496 C495 1.524 . S
C496 C497 1.397 . S
C496 C501 1.363 . S
C497 H468 0.950 . S
C497 C496 1.397 . S
C497 C498 1.334 . S
C498 H469 0.950 . S
C498 C497 1.334 . S
C498 C499 1.287 . S
C499 C498 1.287 . S
C499 C500 1.524 . S
C499 H502 0.999 . S
C500 H470 0.950 . S
C500 C499 1.524 . S
C500 C501 1.415 . S
C501 H471 0.950 . S
C501 C496 1.363 . S
C501 C500 1.415 . S
H502 C499 0.999 . S
H503 C484 0.913 . S
H504 C522 0.951 . S
H505 C524 0.951 . S
H506 C526 0.950 . S
H507 C527 0.950 . S
H508 C529 0.950 . S
H509 C532 0.950 . S
H510 C533 0.950 . S
H511 C535 0.950 . S
H512 C536 0.950 . S
H513 C537 0.951 . S
H514 C539 0.951 . S
H515 C541 0.950 . S
H516 C542 0.950 . S
H517 C544 0.950 . S
H518 C547 0.950 . S
H519 C548 0.950 . S
H520 C550 0.950 . S
H521 C551 0.950 . S
C522 H504 0.951 . S
C522 C523 1.366 . S
C522 C524 1.388 . S
C523 C522 1.366 . S
C523 C527 1.385 . S
C524 H505 0.951 . S
C524 C522 1.388 . S
C524 C525 1.366 . S
C525 C524 1.366 . S
C525 C526 1.414 . S
C525 C528 1.499 . S
C526 H506 0.950 . S
C526 C525 1.414 . S
C526 C527 1.374 . S
C527 H507 0.950 . S
C527 C523 1.385 . S
C527 C526 1.374 . S
C528 C525 1.499 . S
C528 C529 1.373 . S
C528 C530 1.389 . S
C529 H508 0.950 . S
C529 C528 1.373 . S
C529 C545 1.377 . S
C530 C528 1.389 . S
C530 C531 1.524 . S
C530 C544 1.377 . S
C531 C530 1.524 . S
C531 C532 1.397 . S
C531 C536 1.363 . S
C532 H509 0.950 . S
C532 C531 1.397 . S
C532 C533 1.334 . S
C533 H510 0.950 . S
C533 C532 1.334 . S
C533 C534 1.287 . S
C534 C533 1.287 . S
C534 C535 1.524 . S
C534 H553 0.913 . S
C535 H511 0.950 . S
C535 C534 1.524 . S
C535 C536 1.415 . S
C536 H512 0.950 . S
C536 C531 1.363 . S
C536 C535 1.415 . S
C537 H513 0.951 . S
C537 C538 1.366 . S
C537 C539 1.388 . S
C538 C537 1.366 . S
C538 C542 1.385 . S
C539 H514 0.951 . S
C539 C537 1.388 . S
C539 C540 1.366 . S
C540 C539 1.366 . S
C540 C541 1.414 . S
C540 C543 1.499 . S
C541 H515 0.950 . S
C541 C540 1.414 . S
C541 C542 1.374 . S
C542 H516 0.950 . S
C542 C538 1.385 . S
C542 C541 1.374 . S
C543 C540 1.499 . S
C543 C544 1.373 . S
C543 C545 1.389 . S
C544 H517 0.950 . S
C544 C530 1.377 . S
C544 C543 1.373 . S
C545 C529 1.377 . S
C545 C543 1.389 . S
C545 C546 1.524 . S
C546 C545 1.524 . S
C546 C547 1.397 . S
C546 C551 1.363 . S
C547 H518 0.950 . S
C547 C546 1.397 . S
C547 C548 1.334 . S
C548 H519 0.950 . S
C548 C547 1.334 . S
C548 C549 1.287 . S
C549 C548 1.287 . S
C549 C550 1.524 . S
C549 H552 0.999 . S
C550 H520 0.950 . S
C550 C549 1.524 . S
C550 C551 1.415 . S
C551 H521 0.950 . S
C551 C546 1.363 . S
C551 C550 1.415 . S
H552 C549 0.999 . S
H553 C534 0.913 . S
H554 C572 0.951 . S
H555 C574 0.951 . S
H556 C576 0.950 . S
H557 C577 0.950 . S
H558 C579 0.950 . S
H559 C582 0.950 . S
H560 C583 0.950 . S
H561 C585 0.950 . S
H562 C586 0.950 . S
H563 C587 0.951 . S
H564 C589 0.951 . S
H565 C591 0.950 . S
H566 C592 0.950 . S
H567 C594 0.950 . S
H568 C597 0.950 . S
H569 C598 0.950 . S
H570 C600 0.950 . S
H571 C601 0.950 . S
C572 H554 0.951 . S
C572 C573 1.366 . S
C572 C574 1.388 . S
C573 C572 1.366 . S
C573 C577 1.385 . S
C574 H555 0.951 . S
C574 C572 1.388 . S
C574 C575 1.366 . S
C575 C574 1.366 . S
C575 C576 1.414 . S
C575 C578 1.499 . S
C576 H556 0.950 . S
C576 C575 1.414 . S
C576 C577 1.374 . S
C577 H557 0.950 . S
C577 C573 1.385 . S
C577 C576 1.374 . S
C578 C575 1.499 . S
C578 C579 1.373 . S
C578 C580 1.389 . S
C579 H558 0.950 . S
C579 C578 1.373 . S
C579 C595 1.377 . S
C580 C578 1.389 . S
C580 C581 1.524 . S
C580 C594 1.377 . S
C581 C580 1.524 . S
C581 C582 1.397 . S
C581 C586 1.363 . S
C582 H559 0.950 . S
C582 C581 1.397 . S
C582 C583 1.334 1_655 S
C583 H560 0.950 . S
C583 C582 1.334 1_455 S
C583 C584 1.287 . S
C584 C583 1.287 . S
C584 C585 1.524 . S
C584 H603 0.913 . S
C585 H561 0.950 . S
C585 C584 1.524 . S
C585 C586 1.415 1_455 S
C586 H562 0.950 . S
C586 C581 1.363 . S
C586 C585 1.415 1_655 S
C587 H563 0.951 . S
C587 C588 1.366 . S
C587 C589 1.388 . S
C588 C587 1.366 . S
C588 C592 1.385 . S
C589 H564 0.951 . S
C589 C587 1.388 . S
C589 C590 1.366 . S
C590 C589 1.366 . S
C590 C591 1.414 . S
C590 C593 1.499 . S
C591 H565 0.950 . S
C591 C590 1.414 . S
C591 C592 1.374 . S
C592 H566 0.950 . S
C592 C588 1.385 . S
C592 C591 1.374 . S
C593 C590 1.499 . S
C593 C594 1.373 . S
C593 C595 1.389 . S
C594 H567 0.950 . S
C594 C580 1.377 . S
C594 C593 1.373 . S
C595 C579 1.377 . S
C595 C593 1.389 . S
C595 C596 1.524 . S
C596 C595 1.524 . S
C596 C597 1.397 . S
C596 C601 1.363 . S
C597 H568 0.950 . S
C597 C596 1.397 . S
C597 C598 1.334 . S
C598 H569 0.950 . S
C598 C597 1.334 . S
C598 C599 1.287 . S
C599 C598 1.287 . S
C599 C600 1.524 . S
C599 H602 0.999 . S
C600 H570 0.950 . S
C600 C599 1.524 . S
C600 C601 1.415 . S
C601 H571 0.950 . S
C601 C596 1.363 . S
C601 C600 1.415 . S
H602 C599 0.999 . S
H603 C584 0.913 . S
H604 C622 0.951 . S
H605 C624 0.951 . S
H606 C626 0.950 . S
H607 C627 0.950 . S
H608 C629 0.950 . S
H609 C632 0.950 . S
H610 C633 0.950 . S
H611 C635 0.950 . S
H612 C636 0.950 . S
H613 C637 0.951 . S
H614 C639 0.951 . S
H615 C641 0.950 . S
H616 C642 0.950 . S
H617 C644 0.950 . S
H618 C647 0.950 1_554 S
H619 C648 0.950 . S
H620 C650 0.950 . S
H621 C651 0.926 1_554 S
C622 H604 0.951 . S
C622 C623 1.366 . S
C622 C624 1.388 . S
C623 C622 1.366 . S
C623 C627 1.385 . S
C624 H605 0.951 . S
C624 C622 1.388 . S
C624 C625 1.366 . S
C625 C624 1.366 . S
C625 C626 1.414 . S
C625 C628 1.499 . S
C626 H606 0.950 . S
C626 C625 1.414 . S
C626 C627 1.374 . S
C627 H607 0.950 . S
C627 C623 1.385 . S
C627 C626 1.374 . S
C628 C625 1.499 . S
C628 C629 1.373 . S
C628 C630 1.389 . S
C629 H608 0.950 . S
C629 C628 1.373 . S
C629 C645 1.377 . S
C630 C628 1.389 . S
C630 C631 1.524 . S
C630 C644 1.377 . S
C631 C630 1.524 . S
C631 C632 1.397 . S
C631 C636 1.363 . S
C632 H609 0.950 . S
C632 C631 1.397 . S
C632 C633 1.334 . S
C633 H610 0.950 . S
C633 C632 1.334 . S
C633 C634 1.287 . S
C634 C633 1.287 . S
C634 C635 1.524 . S
C634 H653 0.913 . S
C635 H611 0.950 . S
C635 C634 1.524 . S
C635 C636 1.415 . S
C636 H612 0.950 . S
C636 C631 1.363 . S
C636 C635 1.415 . S
C637 H613 0.951 . S
C637 C638 1.366 . S
C637 C639 1.388 . S
C638 C637 1.366 . S
C638 C642 1.385 . S
C639 H614 0.951 . S
C639 C637 1.388 . S
C639 C640 1.366 . S
C640 C639 1.366 . S
C640 C641 1.414 . S
C640 C643 1.499 . S
C641 H615 0.950 . S
C641 C640 1.414 . S
C641 C642 1.374 . S
C642 H616 0.950 . S
C642 C638 1.385 . S
C642 C641 1.374 . S
C643 C640 1.499 . S
C643 C644 1.373 . S
C643 C645 1.389 . S
C644 H617 0.950 . S
C644 C630 1.377 . S
C644 C643 1.373 . S
C645 C629 1.377 . S
C645 C643 1.389 . S
C645 C646 1.524 . S
C646 C645 1.524 . S
C646 C647 1.397 1_554 S
C646 C651 1.345 1_554 S
C647 H618 0.950 1_556 S
C647 C646 1.397 1_556 S
C647 C648 1.334 . S
C648 H619 0.950 . S
C648 C647 1.334 . S
C648 C649 1.287 . S
C649 C648 1.287 . S
C649 C650 1.524 . S
C649 H652 0.999 . S
C650 H620 0.950 . S
C650 C649 1.524 . S
C650 C651 1.457 . S
C651 H621 0.926 1_556 S
C651 C646 1.345 1_556 S
C651 C650 1.457 . S
H652 C649 0.999 . S
H653 C634 0.913 . S
H654 C672 0.951 . S
H655 C674 0.951 . S
H656 C676 0.950 . S
H657 C677 0.950 . S
H658 C679 0.950 . S
H659 C682 0.950 . S
H660 C683 0.950 . S
H661 C685 0.950 . S
H662 C686 0.950 . S
H663 C687 0.951 . S
H664 C689 0.951 . S
H665 C691 0.950 . S
H666 C692 0.950 1_545 S
H667 C694 0.950 . S
H668 C697 0.950 . S
H669 C698 0.950 . S
H670 C700 0.950 . S
H671 C701 0.950 . S
C672 H654 0.951 . S
C672 C673 1.366 . S
C672 C674 1.388 . S
C673 C672 1.366 . S
C673 C677 1.385 . S
C674 H655 0.951 . S
C674 C672 1.388 . S
C674 C675 1.366 . S
C675 C674 1.366 . S
C675 C676 1.414 . S
C675 C678 1.499 . S
C676 H656 0.950 . S
C676 C675 1.414 . S
C676 C677 1.374 . S
C677 H657 0.950 . S
C677 C673 1.385 . S
C677 C676 1.374 . S
C678 C675 1.499 . S
C678 C679 1.373 . S
C678 C680 1.389 . S
C679 H658 0.950 . S
C679 C678 1.373 . S
C679 C695 1.377 . S
C680 C678 1.389 . S
C680 C681 1.524 . S
C680 C694 1.377 . S
C681 C680 1.524 . S
C681 C682 1.397 . S
C681 C686 1.363 1_565 S
C682 H659 0.950 . S
C682 C681 1.397 . S
C682 C683 1.334 1_565 S
C683 H660 0.950 . S
C683 C682 1.334 1_545 S
C683 C684 1.287 . S
C684 C683 1.287 . S
C684 C685 1.524 . S
C684 H703 0.913 . S
C685 H661 0.950 . S
C685 C684 1.524 . S
C685 C686 1.415 . S
C686 H662 0.950 . S
C686 C681 1.363 1_545 S
C686 C685 1.415 . S
C687 H663 0.951 . S
C687 C688 1.366 . S
C687 C689 1.388 . S
C688 C687 1.366 . S
C688 C692 1.385 . S
C689 H664 0.951 . S
C689 C687 1.388 . S
C689 C690 1.366 . S
C690 C689 1.366 . S
C690 C691 1.414 . S
C690 C693 1.499 . S
C691 H665 0.950 . S
C691 C690 1.414 . S
C691 C692 1.374 . S
C692 H666 0.950 1_565 S
C692 C688 1.385 . S
C692 C691 1.374 . S
C693 C690 1.499 . S
C693 C694 1.373 . S
C693 C695 1.389 . S
C694 H667 0.950 . S
C694 C680 1.377 . S
C694 C693 1.373 . S
C695 C679 1.377 . S
C695 C693 1.389 . S
C695 C696 1.524 . S
C696 C695 1.524 . S
C696 C697 1.397 . S
C696 C701 1.363 . S
C697 H668 0.950 . S
C697 C696 1.397 . S
C697 C698 1.334 . S
C698 H669 0.950 . S
C698 C697 1.334 . S
C698 C699 1.287 . S
C699 C698 1.287 . S
C699 C700 1.524 . S
C699 H702 0.999 . S
C700 H670 0.950 . S
C700 C699 1.524 . S
C700 C701 1.415 . S
C701 H671 0.950 . S
C701 C696 1.363 . S
C701 C700 1.415 . S
H702 C699 0.999 . S
H703 C684 0.913 . S
H704 C722 0.951 . S
H705 C724 0.951 . S
H706 C726 0.950 . S
H707 C727 0.950 . S
H708 C729 0.950 . S
H709 C732 0.950 . S
H710 C733 0.950 . S
H711 C735 0.950 . S
H712 C736 0.950 . S
H713 C737 0.951 . S
H714 C739 0.951 . S
H715 C741 0.950 1_554 S
H716 C742 0.953 1_554 S
H717 C744 0.950 . S
H718 C747 0.950 . S
H719 C748 0.950 . S
H720 C750 0.950 . S
H721 C751 0.950 . S
C722 H704 0.951 . S
C722 C723 1.366 . S
C722 C724 1.388 . S
C723 C722 1.366 . S
C723 C727 1.385 . S
C724 H705 0.951 . S
C724 C722 1.388 . S
C724 C725 1.366 . S
C725 C724 1.366 . S
C725 C726 1.414 . S
C725 C728 1.499 . S
C726 H706 0.950 . S
C726 C725 1.414 . S
C726 C727 1.374 . S
C727 H707 0.950 . S
C727 C723 1.385 . S
C727 C726 1.374 . S
C728 C725 1.499 . S
C728 C729 1.373 . S
C728 C730 1.389 . S
C729 H708 0.950 . S
C729 C728 1.373 . S
C729 C745 1.377 . S
C730 C728 1.389 . S
C730 C731 1.524 . S
C730 C744 1.377 . S
C731 C730 1.524 . S
C731 C732 1.397 . S
C731 C736 1.363 . S
C732 H709 0.950 . S
C732 C731 1.397 . S
C732 C733 1.334 . S
C733 H710 0.950 . S
C733 C732 1.334 . S
C733 C734 1.287 . S
C734 C733 1.287 . S
C734 C735 1.524 . S
C734 H753 0.913 . S
C735 H711 0.950 . S
C735 C734 1.524 . S
C735 C736 1.415 . S
C736 H712 0.950 . S
C736 C731 1.363 . S
C736 C735 1.415 . S
C737 H713 0.951 . S
C737 C738 1.366 . S
C737 C739 1.388 . S
C738 C737 1.366 . S
C738 C742 1.383 . S
C739 H714 0.951 . S
C739 C737 1.388 . S
C739 C740 1.366 . S
C740 C739 1.366 . S
C740 C741 1.414 . S
C740 C743 1.499 . S
C741 H715 0.950 1_556 S
C741 C740 1.414 . S
C741 C742 1.373 . S
C742 H716 0.953 1_556 S
C742 C738 1.383 . S
C742 C741 1.373 . S
C743 C740 1.499 . S
C743 C744 1.373 . S
C743 C745 1.389 . S
C744 H717 0.950 . S
C744 C730 1.377 . S
C744 C743 1.373 . S
C745 C729 1.377 . S
C745 C743 1.389 . S
C745 C746 1.524 . S
C746 C745 1.524 . S
C746 C747 1.397 . S
C746 C751 1.363 . S
C747 H718 0.950 . S
C747 C746 1.397 . S
C747 C748 1.334 . S
C748 H719 0.950 . S
C748 C747 1.334 . S
C748 C749 1.287 . S
C749 C748 1.287 . S
C749 C750 1.524 . S
C749 H752 0.999 . S
C750 H720 0.950 . S
C750 C749 1.524 . S
C750 C751 1.415 . S
C751 H721 0.950 . S
C751 C746 1.363 . S
C751 C750 1.415 . S
H752 C749 0.999 . S
H753 C734 0.913 . S
H754 C772 0.951 . S
H755 C774 0.951 . S
H756 C776 0.950 . S
H757 C777 0.950 . S
H758 C779 0.950 . S
H759 C782 0.950 . S
H760 C783 0.950 . S
H761 C785 0.950 . S
H762 C786 0.950 . S
H763 C787 0.951 . S
H764 C789 0.951 . S
H765 C791 0.950 . S
H766 C792 0.950 . S
H767 C794 0.950 . S
H768 C797 0.950 . S
H769 C798 0.950 . S
H770 C800 0.950 . S
H771 C801 0.950 . S
C772 H754 0.951 . S
C772 C773 1.366 . S
C772 C774 1.388 . S
C773 C772 1.366 . S
C773 C777 1.385 . S
C774 H755 0.951 . S
C774 C772 1.388 . S
C774 C775 1.366 . S
C775 C774 1.366 . S
C775 C776 1.414 . S
C775 C778 1.499 . S
C776 H756 0.950 . S
C776 C775 1.414 . S
C776 C777 1.374 . S
C777 H757 0.950 . S
C777 C773 1.385 . S
C777 C776 1.374 . S
C778 C775 1.499 . S
C778 C779 1.373 . S
C778 C780 1.389 . S
C779 H758 0.950 . S
C779 C778 1.373 . S
C779 C795 1.377 . S
C780 C778 1.389 . S
C780 C781 1.524 . S
C780 C794 1.377 . S
C781 C780 1.524 . S
C781 C782 1.397 . S
C781 C786 1.363 . S
C782 H759 0.950 . S
C782 C781 1.397 . S
C782 C783 1.334 . S
C783 H760 0.950 . S
C783 C782 1.334 . S
C783 C784 1.287 . S
C784 C783 1.287 . S
C784 C785 1.524 . S
C784 H803 0.913 . S
C785 H761 0.950 . S
C785 C784 1.524 . S
C785 C786 1.415 . S
C786 H762 0.950 . S
C786 C781 1.363 . S
C786 C785 1.415 . S
C787 H763 0.951 . S
C787 C788 1.366 . S
C787 C789 1.388 . S
C788 C787 1.366 . S
C788 C792 1.385 . S
C789 H764 0.951 . S
C789 C787 1.388 . S
C789 C790 1.366 . S
C790 C789 1.366 . S
C790 C791 1.414 . S
C790 C793 1.499 . S
C791 H765 0.950 . S
C791 C790 1.414 . S
C791 C792 1.374 . S
C792 H766 0.950 . S
C792 C788 1.385 . S
C792 C791 1.374 . S
C793 C790 1.499 . S
C793 C794 1.373 . S
C793 C795 1.389 . S
C794 H767 0.950 . S
C794 C780 1.377 . S
C794 C793 1.373 . S
C795 C779 1.377 . S
C795 C793 1.389 . S
C795 C796 1.524 . S
C796 C795 1.524 . S
C796 C797 1.397 . S
C796 C801 1.363 . S
C797 H768 0.950 . S
C797 C796 1.397 . S
C797 C798 1.334 . S
C798 H769 0.950 . S
C798 C797 1.334 . S
C798 C799 1.287 . S
C799 C798 1.287 . S
C799 C800 1.524 . S
C799 H802 0.999 . S
C800 H770 0.950 . S
C800 C799 1.524 . S
C800 C801 1.415 . S
C801 H771 0.950 . S
C801 C796 1.363 . S
C801 C800 1.415 . S
H802 C799 0.999 . S
H803 C784 0.913 . S
H804 C822 0.951 . S
H805 C824 0.951 . S
H806 C826 0.950 . S
H807 C827 0.950 . S
H808 C829 0.950 . S
H809 C832 0.950 . S
H810 C833 0.950 . S
H811 C835 0.950 . S
H812 C836 0.950 1_556 S
H813 C837 0.951 . S
H814 C839 0.951 . S
H815 C841 0.950 . S
H816 C842 0.950 1_556 S
H817 C844 0.950 . S
H818 C847 0.949 . S
H819 C848 0.950 . S
H820 C850 0.950 . S
H821 C851 0.950 . S
C822 H804 0.951 . S
C822 C823 1.366 . S
C822 C824 1.388 . S
C823 C822 1.366 . S
C823 C827 1.385 . S
C824 H805 0.951 . S
C824 C822 1.388 . S
C824 C825 1.366 . S
C825 C824 1.366 . S
C825 C826 1.414 . S
C825 C828 1.499 . S
C826 H806 0.950 . S
C826 C825 1.414 . S
C826 C827 1.374 . S
C827 H807 0.950 . S
C827 C823 1.385 . S
C827 C826 1.374 . S
C828 C825 1.499 . S
C828 C829 1.373 . S
C828 C830 1.389 . S
C829 H808 0.950 . S
C829 C828 1.373 . S
C829 C845 1.377 . S
C830 C828 1.389 . S
C830 C831 1.524 . S
C830 C844 1.377 . S
C831 C830 1.524 . S
C831 C832 1.397 . S
C831 C836 1.363 . S
C832 H809 0.950 . S
C832 C831 1.397 . S
C832 C833 1.334 . S
C833 H810 0.950 . S
C833 C832 1.334 . S
C833 C834 1.287 . S
C834 C833 1.287 . S
C834 C835 1.524 1_554 S
C834 H853 0.923 . S
C835 H811 0.950 . S
C835 C834 1.524 1_556 S
C835 C836 1.415 1_556 S
C836 H812 0.950 1_554 S
C836 C831 1.363 . S
C836 C835 1.415 1_554 S
C837 H813 0.951 . S
C837 C838 1.366 . S
C837 C839 1.388 . S
C838 C837 1.366 . S
C838 C842 1.385 . S
C839 H814 0.951 . S
C839 C837 1.388 . S
C839 C840 1.366 . S
C840 C839 1.366 . S
C840 C841 1.414 . S
C840 C843 1.499 . S
C841 H815 0.950 . S
C841 C840 1.414 . S
C841 C842 1.374 . S
C842 H816 0.950 1_554 S
C842 C838 1.385 . S
C842 C841 1.374 . S
C843 C840 1.499 . S
C843 C844 1.373 . S
C843 C845 1.389 . S
C844 H817 0.950 . S
C844 C830 1.377 . S
C844 C843 1.373 . S
C845 C829 1.377 . S
C845 C843 1.389 . S
C845 C846 1.524 . S
C846 C845 1.524 . S
C846 C847 1.407 . S
C846 C851 1.363 . S
C847 H818 0.949 . S
C847 C846 1.407 . S
C847 C848 1.324 1_455 S
C848 H819 0.950 . S
C848 C847 1.324 1_655 S
C848 C849 1.287 . S
C849 C848 1.287 . S
C849 C850 1.524 1_655 S
C849 H852 0.999 . S
C850 H820 0.950 . S
C850 C849 1.524 1_455 S
C850 C851 1.415 . S
C851 H821 0.950 . S
C851 C846 1.363 . S
C851 C850 1.415 . S
H852 C849 0.999 . S
H853 C834 0.923 . S
H854 C872 0.951 . S
H855 C874 0.951 . S
H856 C876 0.950 . S
H857 C877 0.950 . S
H858 C879 0.950 . S
H859 C882 0.950 . S
H860 C883 0.950 . S
H861 C885 0.950 . S
H862 C886 0.950 . S
H863 C887 0.951 1_554 S
H864 C889 0.951 . S
H865 C891 0.950 . S
H866 C892 0.950 . S
H867 C894 0.950 . S
H868 C897 0.950 . S
H869 C898 0.950 . S
H870 C900 0.950 . S
H871 C901 0.965 . S
C872 H854 0.951 . S
C872 C873 1.366 . S
C872 C874 1.388 . S
C873 C872 1.366 . S
C873 C877 1.385 . S
C874 H855 0.951 . S
C874 C872 1.388 . S
C874 C875 1.366 . S
C875 C874 1.366 . S
C875 C876 1.414 . S
C875 C878 1.499 . S
C876 H856 0.950 . S
C876 C875 1.414 . S
C876 C877 1.374 . S
C877 H857 0.950 . S
C877 C873 1.385 . S
C877 C876 1.374 . S
C878 C875 1.499 . S
C878 C879 1.373 . S
C878 C880 1.389 . S
C879 H858 0.950 . S
C879 C878 1.373 . S
C879 C895 1.377 . S
C880 C878 1.389 . S
C880 C881 1.524 . S
C880 C894 1.377 . S
C881 C880 1.524 . S
C881 C882 1.397 . S
C881 C886 1.363 . S
C882 H859 0.950 . S
C882 C881 1.397 . S
C882 C883 1.334 . S
C883 H860 0.950 . S
C883 C882 1.334 . S
C883 C884 1.287 . S
C884 C883 1.287 . S
C884 C885 1.524 . S
C884 H903 0.913 . S
C885 H861 0.950 . S
C885 C884 1.524 . S
C885 C886 1.415 . S
C886 H862 0.950 . S
C886 C881 1.363 . S
C886 C885 1.415 . S
C887 H863 0.951 1_556 S
C887 C888 1.366 . S
C887 C889 1.388 . S
C888 C887 1.366 . S
C888 C892 1.385 . S
C889 H864 0.951 . S
C889 C887 1.388 . S
C889 C890 1.366 . S
C890 C889 1.366 . S
C890 C891 1.414 . S
C890 C893 1.499 . S
C891 H865 0.950 . S
C891 C890 1.414 . S
C891 C892 1.374 . S
C892 H866 0.950 . S
C892 C888 1.385 . S
C892 C891 1.374 . S
C893 C890 1.499 . S
C893 C894 1.373 . S
C893 C895 1.389 . S
C894 H867 0.950 . S
C894 C880 1.377 . S
C894 C893 1.373 . S
C895 C879 1.377 . S
C895 C893 1.389 . S
C895 C896 1.524 . S
C896 C895 1.524 . S
C896 C897 1.397 . S
C896 C901 1.363 . S
C897 H868 0.950 . S
C897 C896 1.397 . S
C897 C898 1.334 . S
C898 H869 0.950 . S
C898 C897 1.334 . S
C898 C899 1.287 . S
C899 C898 1.287 . S
C899 C900 1.524 1_556 S
C899 H902 1.012 . S
C900 H870 0.950 . S
C900 C899 1.524 1_554 S
C900 C901 1.415 1_554 S
C901 H871 0.965 . S
C901 C896 1.363 . S
C901 C900 1.415 1_556 S
H902 C899 1.012 . S
H903 C884 0.913 . S
H904 C922 0.951 . S
H905 C924 0.951 . S
H906 C926 0.950 . S
H907 C927 0.950 . S
H908 C929 0.950 . S
H909 C932 0.950 . S
H910 C933 0.950 . S
H911 C935 0.950 . S
H912 C936 0.950 . S
H913 C937 0.951 . S
H914 C939 0.951 . S
H915 C941 0.921 1_455 S
H916 C942 0.950 1_455 S
H917 C944 0.950 . S
H918 C947 0.950 . S
H919 C948 0.950 . S
H920 C950 0.950 . S
H921 C951 0.950 . S
C922 H904 0.951 . S
C922 C923 1.366 . S
C922 C924 1.388 . S
C923 C922 1.366 . S
C923 C927 1.385 . S
C924 H905 0.951 . S
C924 C922 1.388 . S
C924 C925 1.366 . S
C925 C924 1.366 . S
C925 C926 1.414 . S
C925 C928 1.499 . S
C926 H906 0.950 . S
C926 C925 1.414 . S
C926 C927 1.374 . S
C927 H907 0.950 . S
C927 C923 1.385 . S
C927 C926 1.374 . S
C928 C925 1.499 . S
C928 C929 1.373 . S
C928 C930 1.389 . S
C929 H908 0.950 . S
C929 C928 1.373 . S
C929 C945 1.377 . S
C930 C928 1.389 . S
C930 C931 1.524 . S
C930 C944 1.377 . S
C931 C930 1.524 . S
C931 C932 1.397 . S
C931 C936 1.363 1_655 S
C932 H909 0.950 . S
C932 C931 1.397 . S
C932 C933 1.334 . S
C933 H910 0.950 . S
C933 C932 1.334 . S
C933 C934 1.287 . S
C934 C933 1.287 . S
C934 C935 1.524 1_655 S
C934 H953 0.913 1_655 S
C935 H911 0.950 . S
C935 C934 1.524 1_455 S
C935 C936 1.415 . S
C936 H912 0.950 . S
C936 C931 1.363 1_455 S
C936 C935 1.415 . S
C937 H913 0.951 . S
C937 C938 1.366 . S
C937 C939 1.388 . S
C938 C937 1.366 . S
C938 C942 1.385 . S
C939 H914 0.951 . S
C939 C937 1.388 . S
C939 C940 1.366 . S
C940 C939 1.366 . S
C940 C941 1.414 . S
C940 C943 1.499 . S
C941 H915 0.921 1_655 S
C941 C940 1.414 . S
C941 C942 1.374 . S
C942 H916 0.950 1_655 S
C942 C938 1.385 . S
C942 C941 1.374 . S
C943 C940 1.499 . S
C943 C944 1.373 . S
C943 C945 1.389 . S
C944 H917 0.950 . S
C944 C930 1.377 . S
C944 C943 1.373 . S
C945 C929 1.377 . S
C945 C943 1.389 . S
C945 C946 1.524 . S
C946 C945 1.524 . S
C946 C947 1.397 . S
C946 C951 1.363 . S
C947 H918 0.950 . S
C947 C946 1.397 . S
C947 C948 1.334 . S
C948 H919 0.950 . S
C948 C947 1.334 . S
C948 C949 1.287 . S
C949 C948 1.287 . S
C949 C950 1.524 . S
C949 H952 0.999 . S
C950 H920 0.950 . S
C950 C949 1.524 . S
C950 C951 1.415 . S
C951 H921 0.950 . S
C951 C946 1.363 . S
C951 C950 1.415 . S
H952 C949 0.999 . S
H953 C934 0.913 1_455 S
H954 C972 0.951 . S
H955 C974 0.951 . S
H956 C976 0.950 . S
H957 C977 0.950 . S
H958 C979 0.950 . S
H959 C982 0.950 . S
H960 C983 0.950 . S
H961 C985 0.950 . S
H962 C986 0.950 . S
H963 C987 0.951 . S
H964 C989 0.951 . S
H965 C991 0.950 . S
H966 C992 0.950 . S
H967 C994 0.950 . S
H968 C997 0.950 . S
H969 C998 0.950 . S
H970 C1000 0.950 . S
H971 C1001 0.950 . S
C972 H954 0.951 . S
C972 C973 1.366 . S
C972 C974 1.388 . S
C973 C972 1.366 . S
C973 C977 1.385 . S
C974 H955 0.951 . S
C974 C972 1.388 . S
C974 C975 1.366 . S
C975 C974 1.366 . S
C975 C976 1.414 . S
C975 C978 1.499 . S
C976 H956 0.950 . S
C976 C975 1.414 . S
C976 C977 1.374 . S
C977 H957 0.950 . S
C977 C973 1.385 . S
C977 C976 1.374 . S
C978 C975 1.499 . S
C978 C979 1.373 . S
C978 C980 1.389 . S
C979 H958 0.950 . S
C979 C978 1.373 . S
C979 C995 1.377 . S
C980 C978 1.389 . S
C980 C981 1.524 . S
C980 C994 1.377 . S
C981 C980 1.524 . S
C981 C982 1.397 . S
C981 C986 1.363 . S
C982 H959 0.950 . S
C982 C981 1.397 . S
C982 C983 1.334 . S
C983 H960 0.950 . S
C983 C982 1.334 . S
C983 C984 1.287 . S
C984 C983 1.287 . S
C984 C985 1.524 . S
C984 H1003 0.913 . S
C985 H961 0.950 . S
C985 C984 1.524 . S
C985 C986 1.415 . S
C986 H962 0.950 . S
C986 C981 1.363 . S
C986 C985 1.415 . S
C987 H963 0.951 . S
C987 C988 1.366 . S
C987 C989 1.388 . S
C988 C987 1.366 . S
C988 C992 1.385 . S
C989 H964 0.951 . S
C989 C987 1.388 . S
C989 C990 1.366 . S
C990 C989 1.366 . S
C990 C991 1.414 . S
C990 C993 1.499 . S
C991 H965 0.950 . S
C991 C990 1.414 . S
C991 C992 1.374 . S
C992 H966 0.950 . S
C992 C988 1.385 . S
C992 C991 1.374 . S
C993 C990 1.499 . S
C993 C994 1.373 . S
C993 C995 1.389 . S
C994 H967 0.950 . S
C994 C980 1.377 . S
C994 C993 1.373 . S
C995 C979 1.377 . S
C995 C993 1.389 . S
C995 C996 1.524 . S
C996 C995 1.524 . S
C996 C997 1.397 . S
C996 C1001 1.363 . S
C997 H968 0.950 . S
C997 C996 1.397 . S
C997 C998 1.334 . S
C998 H969 0.950 . S
C998 C997 1.334 . S
C998 C999 1.287 . S
C999 C998 1.287 . S
C999 C1000 1.524 . S
C999 H1002 0.999 . S
C1000 H970 0.950 . S
C1000 C999 1.524 . S
C1000 C1001 1.415 . S
C1001 H971 0.950 . S
C1001 C996 1.363 . S
C1001 C1000 1.415 . S
H1002 C999 0.999 . S
H1003 C984 0.913 . S
H1004 C1022 0.951 . S
H1005 C1024 0.951 . S
H1006 C1026 0.950 . S
H1007 C1027 0.950 . S
H1008 C1029 0.950 . S
H1009 C1032 0.950 . S
H1010 C1033 0.963 . S
H1011 C1035 0.950 . S
H1012 C1036 0.950 . S
H1013 C1037 0.951 . S
H1014 C1039 0.951 . S
H1015 C1041 0.956 . S
H1016 C1042 0.950 1_545 S
H1017 C1044 0.950 . S
H1018 C1047 0.950 1_455 S
H1019 C1048 0.950 . S
H1020 C1050 0.950 . S
H1021 C1051 0.950 . S
C1022 H1004 0.951 . S
C1022 C1023 1.366 . S
C1022 C1024 1.388 . S
C1023 C1022 1.366 . S
C1023 C1027 1.385 . S
C1024 H1005 0.951 . S
C1024 C1022 1.388 . S
C1024 C1025 1.366 . S
C1025 C1024 1.366 . S
C1025 C1026 1.414 . S
C1025 C1028 1.499 . S
C1026 H1006 0.950 . S
C1026 C1025 1.414 . S
C1026 C1027 1.374 . S
C1027 H1007 0.950 . S
C1027 C1023 1.385 . S
C1027 C1026 1.374 . S
C1028 C1025 1.499 . S
C1028 C1029 1.373 . S
C1028 C1030 1.389 . S
C1029 H1008 0.950 . S
C1029 C1028 1.373 . S
C1029 C1045 1.377 . S
C1030 C1028 1.389 . S
C1030 C1031 1.524 . S
C1030 C1044 1.377 . S
C1031 C1030 1.524 . S
C1031 C1032 1.397 . S
C1031 C1036 1.363 1_565 S
C1032 H1009 0.950 . S
C1032 C1031 1.397 . S
C1032 C1033 1.369 . S
C1033 H1010 0.963 . S
C1033 C1032 1.369 . S
C1033 C1034 1.241 1_565 S
C1034 C1033 1.241 1_545 S
C1034 C1035 1.524 . S
C1034 H1053 0.913 . S
C1035 H1011 0.950 . S
C1035 C1034 1.524 . S
C1035 C1036 1.415 . S
C1036 H1012 0.950 . S
C1036 C1031 1.363 1_545 S
C1036 C1035 1.415 . S
C1037 H1013 0.951 . S
C1037 C1038 1.366 . S
C1037 C1039 1.388 . S
C1038 C1037 1.366 . S
C1038 C1042 1.385 . S
C1039 H1014 0.951 . S
C1039 C1037 1.388 . S
C1039 C1040 1.366 . S
C1040 C1039 1.366 . S
C1040 C1041 1.414 . S
C1040 C1043 1.499 . S
C1041 H1015 0.956 . S
C1041 C1040 1.414 . S
C1041 C1042 1.374 . S
C1042 H1016 0.950 1_565 S
C1042 C1038 1.385 . S
C1042 C1041 1.374 . S
C1043 C1040 1.499 . S
C1043 C1044 1.373 . S
C1043 C1045 1.389 . S
C1044 H1017 0.950 . S
C1044 C1030 1.377 . S
C1044 C1043 1.373 . S
C1045 C1029 1.377 . S
C1045 C1043 1.389 . S
C1045 C1046 1.524 . S
C1046 C1045 1.524 . S
C1046 C1047 1.397 . S
C1046 C1051 1.363 . S
C1047 H1018 0.950 1_655 S
C1047 C1046 1.397 . S
C1047 C1048 1.334 1_655 S
C1048 H1019 0.950 . S
C1048 C1047 1.334 1_455 S
C1048 C1049 1.287 . S
C1049 C1048 1.287 . S
C1049 C1050 1.524 1_455 S
C1049 H1052 0.999 . S
C1050 H1020 0.950 . S
C1050 C1049 1.524 1_655 S
C1050 C1051 1.415 . S
C1051 H1021 0.950 . S
C1051 C1046 1.363 . S
C1051 C1050 1.415 . S
H1052 C1049 0.999 . S
H1053 C1034 0.913 . S
H1054 C1072 0.951 . S
H1055 C1074 0.951 . S
H1056 C1076 0.950 . S
H1057 C1077 0.950 . S
H1058 C1079 0.950 . S
H1059 C1082 0.950 . S
H1060 C1083 0.950 . S
H1061 C1085 0.950 . S
H1062 C1086 0.950 . S
H1063 C1087 0.951 . S
H1064 C1089 0.951 . S
H1065 C1091 0.950 . S
H1066 C1092 0.950 . S
H1067 C1094 0.950 . S
H1068 C1097 0.950 . S
H1069 C1098 0.950 . S
H1070 C1100 0.951 . S
H1071 C1101 0.950 . S
C1072 H1054 0.951 . S
C1072 C1073 1.366 . S
C1072 C1074 1.388 . S
C1073 C1072 1.366 . S
C1073 C1077 1.385 . S
C1074 H1055 0.951 . S
C1074 C1072 1.388 . S
C1074 C1075 1.366 . S
C1075 C1074 1.366 . S
C1075 C1076 1.414 . S
C1075 C1078 1.499 . S
C1076 H1056 0.950 . S
C1076 C1075 1.414 . S
C1076 C1077 1.374 . S
C1077 H1057 0.950 . S
C1077 C1073 1.385 . S
C1077 C1076 1.374 . S
C1078 C1075 1.499 . S
C1078 C1079 1.373 . S
C1078 C1080 1.389 . S
C1079 H1058 0.950 . S
C1079 C1078 1.373 . S
C1079 C1095 1.377 . S
C1080 C1078 1.389 . S
C1080 C1081 1.524 . S
C1080 C1094 1.377 . S
C1081 C1080 1.524 . S
C1081 C1082 1.397 . S
C1081 C1086 1.363 . S
C1082 H1059 0.950 . S
C1082 C1081 1.397 . S
C1082 C1083 1.334 . S
C1083 H1060 0.950 . S
C1083 C1082 1.334 . S
C1083 C1084 1.287 . S
C1084 C1083 1.287 . S
C1084 C1085 1.524 . S
C1084 H1103 0.913 . S
C1085 H1061 0.950 . S
C1085 C1084 1.524 . S
C1085 C1086 1.415 . S
C1086 H1062 0.950 . S
C1086 C1081 1.363 . S
C1086 C1085 1.415 . S
C1087 H1063 0.951 . S
C1087 C1088 1.366 . S
C1087 C1089 1.388 . S
C1088 C1087 1.366 . S
C1088 C1092 1.385 . S
C1089 H1064 0.951 . S
C1089 C1087 1.388 . S
C1089 C1090 1.366 . S
C1090 C1089 1.366 . S
C1090 C1091 1.414 . S
C1090 C1093 1.499 . S
C1091 H1065 0.950 . S
C1091 C1090 1.414 . S
C1091 C1092 1.374 . S
C1092 H1066 0.950 . S
C1092 C1088 1.385 . S
C1092 C1091 1.374 . S
C1093 C1090 1.499 . S
C1093 C1094 1.373 . S
C1093 C1095 1.389 . S
C1094 H1067 0.950 . S
C1094 C1080 1.377 . S
C1094 C1093 1.373 . S
C1095 C1079 1.377 . S
C1095 C1093 1.389 . S
C1095 C1096 1.524 . S
C1096 C1095 1.524 . S
C1096 C1097 1.418 . S
C1096 C1101 1.363 . S
C1097 H1068 0.950 . S
C1097 C1096 1.418 . S
C1097 C1098 1.314 1_545 S
C1098 H1069 0.950 . S
C1098 C1097 1.314 1_565 S
C1098 C1099 1.287 . S
C1099 C1098 1.287 . S
C1099 C1100 1.556 . S
C1099 H1102 0.999 . S
C1100 H1070 0.951 . S
C1100 C1099 1.556 . S
C1100 C1101 1.382 1_565 S
C1101 H1071 0.950 . S
C1101 C1096 1.363 . S
C1101 C1100 1.382 1_545 S
H1102 C1099 0.999 . S
H1103 C1084 0.913 . S
H1104 C1122 0.951 . S
H1105 C1124 0.951 . S
H1106 C1126 0.950 . S
H1107 C1127 0.950 . S
H1108 C1129 0.950 . S
H1109 C1132 0.950 . S
H1110 C1133 0.950 . S
H1111 C1135 0.950 . S
H1112 C1136 0.950 . S
H1113 C1137 0.951 . S
H1114 C1139 0.951 . S
H1115 C1141 0.950 . S
H1116 C1142 0.950 . S
H1117 C1144 0.950 . S
H1118 C1147 0.950 . S
H1119 C1148 0.950 . S
H1120 C1150 0.950 . S
H1121 C1151 0.950 . S
C1122 H1104 0.951 . S
C1122 C1123 1.366 . S
C1122 C1124 1.388 . S
C1123 C1122 1.366 . S
C1123 C1127 1.385 . S
C1124 H1105 0.951 . S
C1124 C1122 1.388 . S
C1124 C1125 1.366 . S
C1125 C1124 1.366 . S
C1125 C1126 1.414 . S
C1125 C1128 1.499 . S
C1126 H1106 0.950 . S
C1126 C1125 1.414 . S
C1126 C1127 1.374 . S
C1127 H1107 0.950 . S
C1127 C1123 1.385 . S
C1127 C1126 1.374 . S
C1128 C1125 1.499 . S
C1128 C1129 1.373 . S
C1128 C1130 1.389 . S
C1129 H1108 0.950 . S
C1129 C1128 1.373 . S
C1129 C1145 1.377 . S
C1130 C1128 1.389 . S
C1130 C1131 1.524 . S
C1130 C1144 1.377 . S
C1131 C1130 1.524 . S
C1131 C1132 1.397 . S
C1131 C1136 1.363 . S
C1132 H1109 0.950 . S
C1132 C1131 1.397 . S
C1132 C1133 1.334 . S
C1133 H1110 0.950 . S
C1133 C1132 1.334 . S
C1133 C1134 1.287 . S
C1134 C1133 1.287 . S
C1134 C1135 1.524 . S
C1134 H1153 0.913 . S
C1135 H1111 0.950 . S
C1135 C1134 1.524 . S
C1135 C1136 1.415 . S
C1136 H1112 0.950 . S
C1136 C1131 1.363 . S
C1136 C1135 1.415 . S
C1137 H1113 0.951 . S
C1137 C1138 1.366 . S
C1137 C1139 1.388 . S
C1138 C1137 1.366 . S
C1138 C1142 1.385 . S
C1139 H1114 0.951 . S
C1139 C1137 1.388 . S
C1139 C1140 1.366 . S
C1140 C1139 1.366 . S
C1140 C1141 1.414 . S
C1140 C1143 1.499 . S
C1141 H1115 0.950 . S
C1141 C1140 1.414 . S
C1141 C1142 1.374 . S
C1142 H1116 0.950 . S
C1142 C1138 1.385 . S
C1142 C1141 1.374 . S
C1143 C1140 1.499 . S
C1143 C1144 1.373 . S
C1143 C1145 1.389 . S
C1144 H1117 0.950 . S
C1144 C1130 1.377 . S
C1144 C1143 1.373 . S
C1145 C1129 1.377 . S
C1145 C1143 1.389 . S
C1145 C1146 1.524 . S
C1146 C1145 1.524 . S
C1146 C1147 1.397 . S
C1146 C1151 1.363 . S
C1147 H1118 0.950 . S
C1147 C1146 1.397 . S
C1147 C1148 1.334 . S
C1148 H1119 0.950 . S
C1148 C1147 1.334 . S
C1148 C1149 1.287 . S
C1149 C1148 1.287 . S
C1149 C1150 1.524 . S
C1149 H1152 0.999 . S
C1150 H1120 0.950 . S
C1150 C1149 1.524 . S
C1150 C1151 1.415 . S
C1151 H1121 0.950 . S
C1151 C1146 1.363 . S
C1151 C1150 1.415 . S
H1152 C1149 0.999 . S
H1153 C1134 0.913 . S
H1154 C1172 0.951 . S
H1155 C1174 0.951 . S
H1156 C1176 0.950 . S
H1157 C1177 0.950 . S
H1158 C1179 0.950 . S
H1159 C1182 0.950 . S
H1160 C1183 0.950 . S
H1161 C1185 0.950 . S
H1162 C1186 0.950 . S
H1163 C1187 0.951 . S
H1164 C1189 0.951 . S
H1165 C1191 0.950 . S
H1166 C1192 0.950 1_655 S
H1167 C1194 0.950 . S
H1168 C1197 0.950 . S
H1169 C1198 0.950 . S
H1170 C1200 0.950 . S
H1171 C1201 0.950 . S
C1172 H1154 0.951 . S
C1172 C1173 1.366 . S
C1172 C1174 1.388 . S
C1173 C1172 1.366 . S
C1173 C1177 1.385 . S
C1174 H1155 0.951 . S
C1174 C1172 1.388 . S
C1174 C1175 1.366 . S
C1175 C1174 1.366 . S
C1175 C1176 1.414 . S
C1175 C1178 1.499 . S
C1176 H1156 0.950 . S
C1176 C1175 1.414 . S
C1176 C1177 1.374 . S
C1177 H1157 0.950 . S
C1177 C1173 1.385 . S
C1177 C1176 1.374 . S
C1178 C1175 1.499 . S
C1178 C1179 1.373 . S
C1178 C1180 1.389 . S
C1179 H1158 0.950 . S
C1179 C1178 1.373 . S
C1179 C1195 1.377 . S
C1180 C1178 1.389 . S
C1180 C1181 1.524 . S
C1180 C1194 1.377 . S
C1181 C1180 1.524 . S
C1181 C1182 1.397 . S
C1181 C1186 1.363 1_455 S
C1182 H1159 0.950 . S
C1182 C1181 1.397 . S
C1182 C1183 1.334 . S
C1183 H1160 0.950 . S
C1183 C1182 1.334 . S
C1183 C1184 1.287 1_455 S
C1184 C1183 1.287 1_655 S
C1184 C1185 1.524 . S
C1184 H1203 0.913 . S
C1185 H1161 0.950 . S
C1185 C1184 1.524 . S
C1185 C1186 1.415 . S
C1186 H1162 0.950 . S
C1186 C1181 1.363 1_655 S
C1186 C1185 1.415 . S
C1187 H1163 0.951 . S
C1187 C1188 1.366 . S
C1187 C1189 1.388 . S
C1188 C1187 1.366 . S
C1188 C1192 1.385 . S
C1189 H1164 0.951 . S
C1189 C1187 1.388 . S
C1189 C1190 1.366 . S
C1190 C1189 1.366 . S
C1190 C1191 1.414 . S
C1190 C1193 1.499 . S
C1191 H1165 0.950 . S
C1191 C1190 1.414 . S
C1191 C1192 1.374 . S
C1192 H1166 0.950 1_455 S
C1192 C1188 1.385 . S
C1192 C1191 1.374 . S
C1193 C1190 1.499 . S
C1193 C1194 1.373 . S
C1193 C1195 1.389 . S
C1194 H1167 0.950 . S
C1194 C1180 1.377 . S
C1194 C1193 1.373 . S
C1195 C1179 1.377 . S
C1195 C1193 1.389 . S
C1195 C1196 1.524 . S
C1196 C1195 1.524 . S
C1196 C1197 1.397 . S
C1196 C1201 1.363 . S
C1197 H1168 0.950 . S
C1197 C1196 1.397 . S
C1197 C1198 1.334 . S
C1198 H1169 0.950 . S
C1198 C1197 1.334 . S
C1198 C1199 1.287 . S
C1199 C1198 1.287 . S
C1199 C1200 1.524 . S
C1199 H1202 0.999 . S
C1200 H1170 0.950 . S
C1200 C1199 1.524 . S
C1200 C1201 1.415 . S
C1201 H1171 0.950 . S
C1201 C1196 1.363 . S
C1201 C1200 1.415 . S
H1202 C1199 0.999 . S
H1203 C1184 0.913 . S
H1204 C1222 0.951 . S
H1205 C1224 0.951 . S
H1206 C1226 0.950 . S
H1207 C1227 0.950 . S
H1208 C1229 0.950 . S
H1209 C1232 0.950 . S
H1210 C1233 0.951 . S
H1211 C1235 0.950 . S
H1212 C1236 0.950 . S
H1213 C1237 0.951 . S
H1214 C1239 0.951 . S
H1215 C1241 0.950 . S
H1216 C1242 0.950 1_544 S
H1217 C1244 0.950 . S
H1218 C1247 0.950 . S
H1219 C1248 0.950 . S
H1220 C1250 0.950 . S
H1221 C1251 0.950 . S
C1222 H1204 0.951 . S
C1222 C1223 1.366 . S
C1222 C1224 1.388 . S
C1223 C1222 1.366 . S
C1223 C1227 1.385 . S
C1224 H1205 0.951 . S
C1224 C1222 1.388 . S
C1224 C1225 1.366 . S
C1225 C1224 1.366 . S
C1225 C1226 1.414 . S
C1225 C1228 1.499 . S
C1226 H1206 0.950 . S
C1226 C1225 1.414 . S
C1226 C1227 1.374 . S
C1227 H1207 0.950 . S
C1227 C1223 1.385 . S
C1227 C1226 1.374 . S
C1228 C1225 1.499 . S
C1228 C1229 1.373 . S
C1228 C1230 1.389 . S
C1229 H1208 0.950 . S
C1229 C1228 1.373 . S
C1229 C1245 1.377 . S
C1230 C1228 1.389 . S
C1230 C1231 1.524 . S
C1230 C1244 1.377 . S
C1231 C1230 1.524 . S
C1231 C1232 1.397 . S
C1231 C1236 1.363 1_556 S
C1232 H1209 0.950 . S
C1232 C1231 1.397 . S
C1232 C1233 1.336 . S
C1233 H1210 0.951 . S
C1233 C1232 1.336 . S
C1233 C1234 1.285 1_556 S
C1234 C1233 1.285 1_554 S
C1234 C1235 1.524 . S
C1234 H1253 0.913 . S
C1235 H1211 0.950 . S
C1235 C1234 1.524 . S
C1235 C1236 1.415 . S
C1236 H1212 0.950 . S
C1236 C1231 1.363 1_554 S
C1236 C1235 1.415 . S
C1237 H1213 0.951 . S
C1237 C1238 1.366 . S
C1237 C1239 1.388 . S
C1238 C1237 1.366 . S
C1238 C1242 1.385 . S
C1239 H1214 0.951 . S
C1239 C1237 1.388 . S
C1239 C1240 1.366 . S
C1240 C1239 1.366 . S
C1240 C1241 1.414 . S
C1240 C1243 1.499 . S
C1241 H1215 0.950 . S
C1241 C1240 1.414 . S
C1241 C1242 1.374 . S
C1242 H1216 0.950 1_566 S
C1242 C1238 1.385 . S
C1242 C1241 1.374 . S
C1243 C1240 1.499 . S
C1243 C1244 1.373 . S
C1243 C1245 1.389 . S
C1244 H1217 0.950 . S
C1244 C1230 1.377 . S
C1244 C1243 1.373 . S
C1245 C1229 1.377 . S
C1245 C1243 1.389 . S
C1245 C1246 1.524 . S
C1246 C1245 1.524 . S
C1246 C1247 1.397 1_565 S
C1246 C1251 1.363 . S
C1247 H1218 0.950 . S
C1247 C1246 1.397 1_545 S
C1247 C1248 1.334 . S
C1248 H1219 0.950 . S
C1248 C1247 1.334 . S
C1248 C1249 1.287 . S
C1249 C1248 1.287 . S
C1249 C1250 1.524 1_545 S
C1249 H1252 0.999 . S
C1250 H1220 0.950 . S
C1250 C1249 1.524 1_565 S
C1250 C1251 1.415 . S
C1251 H1221 0.950 . S
C1251 C1246 1.363 . S
C1251 C1250 1.415 . S
H1252 C1249 0.999 . S
H1253 C1234 0.913 . S
H1254 C1272 0.951 . S
H1255 C1274 0.951 . S
H1256 C1276 0.950 . S
H1257 C1277 0.950 . S
H1258 C1279 0.950 . S
H1259 C1282 0.950 . S
H1260 C1283 0.950 . S
H1261 C1285 0.950 . S
H1262 C1286 0.950 . S
H1263 C1287 0.951 . S
H1264 C1289 0.951 . S
H1265 C1291 0.950 . S
H1266 C1292 0.950 . S
H1267 C1294 0.950 . S
H1268 C1297 0.950 . S
H1269 C1298 0.950 . S
H1270 C1300 0.950 . S
H1271 C1301 0.950 . S
C1272 H1254 0.951 . S
C1272 C1273 1.366 . S
C1272 C1274 1.388 . S
C1273 C1272 1.366 . S
C1273 C1277 1.385 . S
C1274 H1255 0.951 . S
C1274 C1272 1.388 . S
C1274 C1275 1.366 . S
C1275 C1274 1.366 . S
C1275 C1276 1.414 . S
C1275 C1278 1.499 . S
C1276 H1256 0.950 . S
C1276 C1275 1.414 . S
C1276 C1277 1.374 . S
C1277 H1257 0.950 . S
C1277 C1273 1.385 . S
C1277 C1276 1.374 . S
C1278 C1275 1.499 . S
C1278 C1279 1.373 . S
C1278 C1280 1.389 . S
C1279 H1258 0.950 . S
C1279 C1278 1.373 . S
C1279 C1295 1.377 . S
C1280 C1278 1.389 . S
C1280 C1281 1.524 . S
C1280 C1294 1.377 . S
C1281 C1280 1.524 . S
C1281 C1282 1.397 . S
C1281 C1286 1.363 . S
C1282 H1259 0.950 . S
C1282 C1281 1.397 . S
C1282 C1283 1.334 . S
C1283 H1260 0.950 . S
C1283 C1282 1.334 . S
C1283 C1284 1.287 . S
C1284 C1283 1.287 . S
C1284 C1285 1.524 . S
C1284 H1303 0.913 . S
C1285 H1261 0.950 . S
C1285 C1284 1.524 . S
C1285 C1286 1.415 . S
C1286 H1262 0.950 . S
C1286 C1281 1.363 . S
C1286 C1285 1.415 . S
C1287 H1263 0.951 . S
C1287 C1288 1.366 . S
C1287 C1289 1.388 . S
C1288 C1287 1.366 . S
C1288 C1292 1.385 . S
C1289 H1264 0.951 . S
C1289 C1287 1.388 . S
C1289 C1290 1.366 . S
C1290 C1289 1.366 . S
C1290 C1291 1.414 . S
C1290 C1293 1.499 . S
C1291 H1265 0.950 . S
C1291 C1290 1.414 . S
C1291 C1292 1.374 . S
C1292 H1266 0.950 . S
C1292 C1288 1.385 . S
C1292 C1291 1.374 . S
C1293 C1290 1.499 . S
C1293 C1294 1.373 . S
C1293 C1295 1.389 . S
C1294 H1267 0.950 . S
C1294 C1280 1.377 . S
C1294 C1293 1.373 . S
C1295 C1279 1.377 . S
C1295 C1293 1.389 . S
C1295 C1296 1.524 . S
C1296 C1295 1.524 . S
C1296 C1297 1.397 . S
C1296 C1301 1.363 . S
C1297 H1268 0.950 . S
C1297 C1296 1.397 . S
C1297 C1298 1.334 . S
C1298 H1269 0.950 . S
C1298 C1297 1.334 . S
C1298 C1299 1.287 . S
C1299 C1298 1.287 . S
C1299 C1300 1.524 . S
C1299 H1302 0.999 . S
C1300 H1270 0.950 . S
C1300 C1299 1.524 . S
C1300 C1301 1.415 . S
C1301 H1271 0.950 . S
C1301 C1296 1.363 . S
C1301 C1300 1.415 . S
H1302 C1299 0.999 . S
H1303 C1284 0.913 . S
H1304 C1322 0.951 . S
H1305 C1324 0.951 . S
H1306 C1326 0.950 . S
H1307 C1327 0.950 . S
H1308 C1329 0.950 . S
H1309 C1332 0.950 . S
H1310 C1333 0.950 . S
H1311 C1335 0.950 . S
H1312 C1336 0.950 . S
H1313 C1337 0.951 1_556 S
H1314 C1339 0.951 . S
H1315 C1341 0.950 . S
H1316 C1342 0.950 . S
H1317 C1344 0.950 . S
H1318 C1347 0.950 . S
H1319 C1348 0.950 . S
H1320 C1350 0.950 . S
H1321 C1351 0.950 . S
C1322 H1304 0.951 . S
C1322 C1323 1.366 . S
C1322 C1324 1.388 . S
C1323 C1322 1.366 . S
C1323 C1327 1.385 . S
C1324 H1305 0.951 . S
C1324 C1322 1.388 . S
C1324 C1325 1.366 . S
C1325 C1324 1.366 . S
C1325 C1326 1.414 . S
C1325 C1328 1.499 . S
C1326 H1306 0.950 . S
C1326 C1325 1.414 . S
C1326 C1327 1.374 . S
C1327 H1307 0.950 . S
C1327 C1323 1.385 . S
C1327 C1326 1.374 . S
C1328 C1325 1.499 . S
C1328 C1329 1.373 . S
C1328 C1330 1.389 . S
C1329 H1308 0.950 . S
C1329 C1328 1.373 . S
C1329 C1345 1.377 . S
C1330 C1328 1.389 . S
C1330 C1331 1.524 . S
C1330 C1344 1.377 . S
C1331 C1330 1.524 . S
C1331 C1332 1.397 . S
C1331 C1336 1.363 . S
C1332 H1309 0.950 . S
C1332 C1331 1.397 . S
C1332 C1333 1.334 . S
C1333 H1310 0.950 . S
C1333 C1332 1.334 . S
C1333 C1334 1.287 . S
C1334 C1333 1.287 . S
C1334 C1335 1.524 . S
C1334 H1353 0.913 . S
C1335 H1311 0.950 . S
C1335 C1334 1.524 . S
C1335 C1336 1.415 . S
C1336 H1312 0.950 . S
C1336 C1331 1.363 . S
C1336 C1335 1.415 . S
C1337 H1313 0.951 1_554 S
C1337 C1338 1.366 . S
C1337 C1339 1.388 . S
C1338 C1337 1.366 . S
C1338 C1342 1.385 . S
C1339 H1314 0.951 . S
C1339 C1337 1.388 . S
C1339 C1340 1.366 . S
C1340 C1339 1.366 . S
C1340 C1341 1.414 . S
C1340 C1343 1.499 . S
C1341 H1315 0.950 . S
C1341 C1340 1.414 . S
C1341 C1342 1.374 . S
C1342 H1316 0.950 . S
C1342 C1338 1.385 . S
C1342 C1341 1.374 . S
C1343 C1340 1.499 . S
C1343 C1344 1.373 . S
C1343 C1345 1.389 . S
C1344 H1317 0.950 . S
C1344 C1330 1.377 . S
C1344 C1343 1.373 . S
C1345 C1329 1.377 . S
C1345 C1343 1.389 . S
C1345 C1346 1.524 . S
C1346 C1345 1.524 . S
C1346 C1347 1.397 . S
C1346 C1351 1.363 . S
C1347 H1318 0.950 . S
C1347 C1346 1.397 . S
C1347 C1348 1.334 . S
C1348 H1319 0.950 . S
C1348 C1347 1.334 . S
C1348 C1349 1.287 . S
C1349 C1348 1.287 . S
C1349 C1350 1.524 1_554 S
C1349 H1352 0.999 1_554 S
C1350 H1320 0.950 . S
C1350 C1349 1.524 1_556 S
C1350 C1351 1.415 1_556 S
C1351 H1321 0.950 . S
C1351 C1346 1.363 . S
C1351 C1350 1.415 1_554 S
H1352 C1349 0.999 1_556 S
H1353 C1334 0.913 . S
H1354 C1372 0.951 . S
H1355 C1374 0.951 . S
H1356 C1376 0.950 . S
H1357 C1377 0.950 . S
H1358 C1379 0.950 . S
H1359 C1382 0.950 . S
H1360 C1383 0.950 . S
H1361 C1385 0.950 . S
H1362 C1386 0.950 . S
H1363 C1387 0.951 . S
H1364 C1389 0.951 . S
H1365 C1391 0.950 . S
H1366 C1392 0.950 . S
H1367 C1394 0.950 . S
H1368 C1397 0.950 . S
H1369 C1398 0.950 . S
H1370 C1400 0.950 . S
H1371 C1401 0.950 . S
C1372 H1354 0.951 . S
C1372 C1373 1.366 . S
C1372 C1374 1.388 . S
C1373 C1372 1.366 . S
C1373 C1377 1.385 . S
C1374 H1355 0.951 . S
C1374 C1372 1.388 . S
C1374 C1375 1.366 . S
C1375 C1374 1.366 . S
C1375 C1376 1.414 . S
C1375 C1378 1.499 . S
C1376 H1356 0.950 . S
C1376 C1375 1.414 . S
C1376 C1377 1.374 . S
C1377 H1357 0.950 . S
C1377 C1373 1.385 . S
C1377 C1376 1.374 . S
C1378 C1375 1.499 . S
C1378 C1379 1.373 . S
C1378 C1380 1.389 . S
C1379 H1358 0.950 . S
C1379 C1378 1.373 . S
C1379 C1395 1.377 . S
C1380 C1378 1.389 . S
C1380 C1381 1.524 . S
C1380 C1394 1.377 . S
C1381 C1380 1.524 . S
C1381 C1382 1.397 . S
C1381 C1386 1.363 . S
C1382 H1359 0.950 . S
C1382 C1381 1.397 . S
C1382 C1383 1.334 . S
C1383 H1360 0.950 . S
C1383 C1382 1.334 . S
C1383 C1384 1.287 . S
C1384 C1383 1.287 . S
C1384 C1385 1.524 . S
C1384 H1403 0.913 . S
C1385 H1361 0.950 . S
C1385 C1384 1.524 . S
C1385 C1386 1.415 . S
C1386 H1362 0.950 . S
C1386 C1381 1.363 . S
C1386 C1385 1.415 . S
C1387 H1363 0.951 . S
C1387 C1388 1.366 . S
C1387 C1389 1.388 . S
C1388 C1387 1.366 . S
C1388 C1392 1.385 . S
C1389 H1364 0.951 . S
C1389 C1387 1.388 . S
C1389 C1390 1.366 . S
C1390 C1389 1.366 . S
C1390 C1391 1.414 . S
C1390 C1393 1.499 . S
C1391 H1365 0.950 . S
C1391 C1390 1.414 . S
C1391 C1392 1.374 . S
C1392 H1366 0.950 . S
C1392 C1388 1.385 . S
C1392 C1391 1.374 . S
C1393 C1390 1.499 . S
C1393 C1394 1.373 . S
C1393 C1395 1.389 . S
C1394 H1367 0.950 . S
C1394 C1380 1.377 . S
C1394 C1393 1.373 . S
C1395 C1379 1.377 . S
C1395 C1393 1.389 . S
C1395 C1396 1.524 . S
C1396 C1395 1.524 . S
C1396 C1397 1.397 . S
C1396 C1401 1.363 . S
C1397 H1368 0.950 . S
C1397 C1396 1.397 . S
C1397 C1398 1.334 . S
C1398 H1369 0.950 . S
C1398 C1397 1.334 . S
C1398 C1399 1.287 . S
C1399 C1398 1.287 . S
C1399 C1400 1.524 . S
C1399 H1402 0.999 . S
C1400 H1370 0.950 . S
C1400 C1399 1.524 . S
C1400 C1401 1.415 . S
C1401 H1371 0.950 . S
C1401 C1396 1.363 . S
C1401 C1400 1.415 . S
H1402 C1399 0.999 . S
H1403 C1384 0.913 . S
H1404 C1422 0.951 . S
H1405 C1424 0.951 . S
H1406 C1426 0.950 . S
H1407 C1427 0.950 . S
H1408 C1429 0.950 . S
H1409 C1432 0.950 . S
H1410 C1433 0.950 . S
H1411 C1435 0.950 . S
H1412 C1436 0.950 1_455 S
H1413 C1437 0.951 . S
H1414 C1439 0.951 . S
H1415 C1441 0.950 . S
H1416 C1442 0.950 1_455 S
H1417 C1444 0.950 . S
H1418 C1447 0.950 . S
H1419 C1448 0.950 . S
H1420 C1450 0.950 . S
H1421 C1451 0.950 . S
C1422 H1404 0.951 . S
C1422 C1423 1.366 . S
C1422 C1424 1.388 . S
C1423 C1422 1.366 . S
C1423 C1427 1.385 . S
C1424 H1405 0.951 . S
C1424 C1422 1.388 . S
C1424 C1425 1.366 . S
C1425 C1424 1.366 . S
C1425 C1426 1.414 . S
C1425 C1428 1.499 . S
C1426 H1406 0.950 . S
C1426 C1425 1.414 . S
C1426 C1427 1.374 . S
C1427 H1407 0.950 . S
C1427 C1423 1.385 . S
C1427 C1426 1.374 . S
C1428 C1425 1.499 . S
C1428 C1429 1.373 . S
C1428 C1430 1.389 . S
C1429 H1408 0.950 . S
C1429 C1428 1.373 . S
C1429 C1445 1.377 . S
C1430 C1428 1.389 . S
C1430 C1431 1.524 . S
C1430 C1444 1.377 . S
C1431 C1430 1.524 . S
C1431 C1432 1.397 . S
C1431 C1436 1.363 . S
C1432 H1409 0.950 . S
C1432 C1431 1.397 . S
C1432 C1433 1.334 . S
C1433 H1410 0.950 . S
C1433 C1432 1.334 . S
C1433 C1434 1.287 . S
C1434 C1433 1.287 . S
C1434 C1435 1.524 1_655 S
C1434 H1453 0.913 . S
C1435 H1411 0.950 . S
C1435 C1434 1.524 1_455 S
C1435 C1436 1.415 1_455 S
C1436 H1412 0.950 1_655 S
C1436 C1431 1.363 . S
C1436 C1435 1.415 1_655 S
C1437 H1413 0.951 . S
C1437 C1438 1.366 . S
C1437 C1439 1.388 . S
C1438 C1437 1.366 . S
C1438 C1442 1.385 . S
C1439 H1414 0.951 . S
C1439 C1437 1.388 . S
C1439 C1440 1.366 . S
C1440 C1439 1.366 . S
C1440 C1441 1.414 . S
C1440 C1443 1.499 . S
C1441 H1415 0.950 . S
C1441 C1440 1.414 . S
C1441 C1442 1.374 . S
C1442 H1416 0.950 1_655 S
C1442 C1438 1.385 . S
C1442 C1441 1.374 . S
C1443 C1440 1.499 . S
C1443 C1444 1.373 . S
C1443 C1445 1.389 . S
C1444 H1417 0.950 . S
C1444 C1430 1.377 . S
C1444 C1443 1.373 . S
C1445 C1429 1.377 . S
C1445 C1443 1.389 . S
C1445 C1446 1.524 . S
C1446 C1445 1.524 . S
C1446 C1447 1.397 1_556 S
C1446 C1451 1.363 . S
C1447 H1418 0.950 . S
C1447 C1446 1.397 1_554 S
C1447 C1448 1.334 . S
C1448 H1419 0.950 . S
C1448 C1447 1.334 . S
C1448 C1449 1.287 . S
C1449 C1448 1.287 . S
C1449 C1450 1.524 . S
C1449 H1452 0.999 . S
C1450 H1420 0.950 . S
C1450 C1449 1.524 . S
C1450 C1451 1.415 1_554 S
C1451 H1421 0.950 . S
C1451 C1446 1.363 . S
C1451 C1450 1.415 1_556 S
H1452 C1449 0.999 . S
H1453 C1434 0.913 . S
H1454 C1472 0.951 . S
H1455 C1474 0.951 . S
H1456 C1476 0.950 . S
H1457 C1477 0.950 . S
H1458 C1479 0.950 . S
H1459 C1482 0.950 . S
H1460 C1483 0.950 . S
H1461 C1485 0.950 . S
H1462 C1486 0.950 . S
H1463 C1487 0.951 . S
H1464 C1489 0.951 . S
H1465 C1491 0.950 . S
H1466 C1492 0.950 . S
H1467 C1494 0.950 . S
H1468 C1497 0.950 . S
H1469 C1498 0.950 . S
H1470 C1500 0.950 . S
H1471 C1501 0.950 . S
C1472 H1454 0.951 . S
C1472 C1473 1.366 . S
C1472 C1474 1.388 . S
C1473 C1472 1.366 . S
C1473 C1477 1.385 . S
C1474 H1455 0.951 . S
C1474 C1472 1.388 . S
C1474 C1475 1.366 . S
C1475 C1474 1.366 . S
C1475 C1476 1.414 . S
C1475 C1478 1.499 . S
C1476 H1456 0.950 . S
C1476 C1475 1.414 . S
C1476 C1477 1.374 . S
C1477 H1457 0.950 . S
C1477 C1473 1.385 . S
C1477 C1476 1.374 . S
C1478 C1475 1.499 . S
C1478 C1479 1.373 . S
C1478 C1480 1.389 . S
C1479 H1458 0.950 . S
C1479 C1478 1.373 . S
C1479 C1495 1.377 . S
C1480 C1478 1.389 . S
C1480 C1481 1.524 . S
C1480 C1494 1.377 . S
C1481 C1480 1.524 . S
C1481 C1482 1.397 . S
C1481 C1486 1.363 . S
C1482 H1459 0.950 . S
C1482 C1481 1.397 . S
C1482 C1483 1.334 . S
C1483 H1460 0.950 . S
C1483 C1482 1.334 . S
C1483 C1484 1.287 . S
C1484 C1483 1.287 . S
C1484 C1485 1.524 . S
C1484 H1503 0.913 . S
C1485 H1461 0.950 . S
C1485 C1484 1.524 . S
C1485 C1486 1.415 . S
C1486 H1462 0.950 . S
C1486 C1481 1.363 . S
C1486 C1485 1.415 . S
C1487 H1463 0.951 . S
C1487 C1488 1.366 . S
C1487 C1489 1.388 . S
C1488 C1487 1.366 . S
C1488 C1492 1.385 . S
C1489 H1464 0.951 . S
C1489 C1487 1.388 . S
C1489 C1490 1.366 . S
C1490 C1489 1.366 . S
C1490 C1491 1.414 . S
C1490 C1493 1.499 . S
C1491 H1465 0.950 . S
C1491 C1490 1.414 . S
C1491 C1492 1.374 . S
C1492 H1466 0.950 . S
C1492 C1488 1.385 . S
C1492 C1491 1.374 . S
C1493 C1490 1.499 . S
C1493 C1494 1.373 . S
C1493 C1495 1.389 . S
C1494 H1467 0.950 . S
C1494 C1480 1.377 . S
C1494 C1493 1.373 . S
C1495 C1479 1.377 . S
C1495 C1493 1.389 . S
C1495 C1496 1.524 . S
C1496 C1495 1.524 . S
C1496 C1497 1.397 . S
C1496 C1501 1.363 . S
C1497 H1468 0.950 . S
C1497 C1496 1.397 . S
C1497 C1498 1.334 1_554 S
C1498 H1469 0.950 . S
C1498 C1497 1.334 1_556 S
C1498 C1499 1.287 . S
C1499 C1498 1.287 . S
C1499 C1500 1.524 . S
C1499 H1502 0.999 . S
C1500 H1470 0.950 . S
C1500 C1499 1.524 . S
C1500 C1501 1.415 1_556 S
C1501 H1471 0.950 . S
C1501 C1496 1.363 . S
C1501 C1500 1.415 1_554 S
H1502 C1499 0.999 . S
H1503 C1484 0.913 . S
H1504 C1522 0.951 . S
H1505 C1524 0.951 . S
H1506 C1526 0.950 . S
H1507 C1527 0.950 . S
H1508 C1529 0.950 . S
H1509 C1532 0.950 . S
H1510 C1533 0.950 . S
H1511 C1535 0.950 . S
H1512 C1536 0.950 . S
H1513 C1537 0.951 . S
H1514 C1539 0.951 . S
H1515 C1541 0.950 . S
H1516 C1542 0.950 . S
H1517 C1544 0.950 . S
H1518 C1547 0.950 . S
H1519 C1548 0.950 . S
H1520 C1550 0.950 . S
H1521 C1551 0.950 1_455 S
C1522 H1504 0.951 . S
C1522 C1523 1.366 . S
C1522 C1524 1.388 . S
C1523 C1522 1.366 . S
C1523 C1527 1.385 . S
C1524 H1505 0.951 . S
C1524 C1522 1.388 . S
C1524 C1525 1.366 . S
C1525 C1524 1.366 . S
C1525 C1526 1.414 . S
C1525 C1528 1.499 . S
C1526 H1506 0.950 . S
C1526 C1525 1.414 . S
C1526 C1527 1.374 . S
C1527 H1507 0.950 . S
C1527 C1523 1.385 . S
C1527 C1526 1.374 . S
C1528 C1525 1.499 . S
C1528 C1529 1.373 . S
C1528 C1530 1.389 . S
C1529 H1508 0.950 . S
C1529 C1528 1.373 . S
C1529 C1545 1.377 . S
C1530 C1528 1.389 . S
C1530 C1531 1.524 . S
C1530 C1544 1.377 . S
C1531 C1530 1.524 . S
C1531 C1532 1.397 . S
C1531 C1536 1.363 . S
C1532 H1509 0.950 . S
C1532 C1531 1.397 . S
C1532 C1533 1.334 . S
C1533 H1510 0.950 . S
C1533 C1532 1.334 . S
C1533 C1534 1.287 . S
C1534 C1533 1.287 . S
C1534 C1535 1.524 . S
C1534 H1553 0.913 . S
C1535 H1511 0.950 . S
C1535 C1534 1.524 . S
C1535 C1536 1.415 . S
C1536 H1512 0.950 . S
C1536 C1531 1.363 . S
C1536 C1535 1.415 . S
C1537 H1513 0.951 . S
C1537 C1538 1.366 . S
C1537 C1539 1.388 . S
C1538 C1537 1.366 . S
C1538 C1542 1.385 . S
C1539 H1514 0.951 . S
C1539 C1537 1.388 . S
C1539 C1540 1.366 . S
C1540 C1539 1.366 . S
C1540 C1541 1.414 . S
C1540 C1543 1.499 . S
C1541 H1515 0.950 . S
C1541 C1540 1.414 . S
C1541 C1542 1.374 . S
C1542 H1516 0.950 . S
C1542 C1538 1.385 . S
C1542 C1541 1.374 . S
C1543 C1540 1.499 . S
C1543 C1544 1.373 . S
C1543 C1545 1.389 . S
C1544 H1517 0.950 . S
C1544 C1530 1.377 . S
C1544 C1543 1.373 . S
C1545 C1529 1.377 . S
C1545 C1543 1.389 . S
C1545 C1546 1.524 1_455 S
C1546 C1545 1.524 1_655 S
C1546 C1547 1.397 . S
C1546 C1551 1.363 . S
C1547 H1518 0.950 . S
C1547 C1546 1.397 . S
C1547 C1548 1.334 . S
C1548 H1519 0.950 . S
C1548 C1547 1.334 . S
C1548 C1549 1.287 . S
C1549 C1548 1.287 . S
C1549 C1550 1.524 . S
C1549 H1552 0.999 . S
C1550 H1520 0.950 . S
C1550 C1549 1.524 . S
C1550 C1551 1.415 . S
C1551 H1521 0.950 1_655 S
C1551 C1546 1.363 . S
C1551 C1550 1.415 . S
H1552 C1549 0.999 . S
H1553 C1534 0.913 . S
H1554 C1572 0.951 . S
H1555 C1574 0.951 . S
H1556 C1576 0.950 . S
H1557 C1577 0.950 . S
H1558 C1579 0.950 . S
H1559 C1582 0.950 . S
H1560 C1583 0.950 . S
H1561 C1585 0.950 . S
H1562 C1586 0.950 . S
H1563 C1587 0.951 . S
H1564 C1589 0.951 . S
H1565 C1591 0.950 . S
H1566 C1592 0.950 . S
H1567 C1594 0.950 . S
H1568 C1597 0.950 . S
H1569 C1598 0.950 . S
H1570 C1600 0.950 . S
H1571 C1601 0.950 . S
C1572 H1554 0.951 . S
C1572 C1573 1.366 . S
C1572 C1574 1.388 . S
C1573 C1572 1.366 . S
C1573 C1577 1.385 . S
C1574 H1555 0.951 . S
C1574 C1572 1.388 . S
C1574 C1575 1.366 . S
C1575 C1574 1.366 . S
C1575 C1576 1.414 . S
C1575 C1578 1.499 . S
C1576 H1556 0.950 . S
C1576 C1575 1.414 . S
C1576 C1577 1.374 . S
C1577 H1557 0.950 . S
C1577 C1573 1.385 . S
C1577 C1576 1.374 . S
C1578 C1575 1.499 . S
C1578 C1579 1.373 . S
C1578 C1580 1.389 . S
C1579 H1558 0.950 . S
C1579 C1578 1.373 . S
C1579 C1595 1.377 . S
C1580 C1578 1.389 . S
C1580 C1581 1.524 . S
C1580 C1594 1.377 . S
C1581 C1580 1.524 . S
C1581 C1582 1.397 . S
C1581 C1586 1.363 . S
C1582 H1559 0.950 . S
C1582 C1581 1.397 . S
C1582 C1583 1.334 . S
C1583 H1560 0.950 . S
C1583 C1582 1.334 . S
C1583 C1584 1.287 . S
C1584 C1583 1.287 . S
C1584 C1585 1.524 . S
C1584 H1603 0.913 . S
C1585 H1561 0.950 . S
C1585 C1584 1.524 . S
C1585 C1586 1.415 . S
C1586 H1562 0.950 . S
C1586 C1581 1.363 . S
C1586 C1585 1.415 . S
C1587 H1563 0.951 . S
C1587 C1588 1.366 . S
C1587 C1589 1.388 . S
C1588 C1587 1.366 . S
C1588 C1592 1.385 . S
C1589 H1564 0.951 . S
C1589 C1587 1.388 . S
C1589 C1590 1.366 . S
C1590 C1589 1.366 . S
C1590 C1591 1.414 . S
C1590 C1593 1.499 . S
C1591 H1565 0.950 . S
C1591 C1590 1.414 . S
C1591 C1592 1.374 . S
C1592 H1566 0.950 . S
C1592 C1588 1.385 . S
C1592 C1591 1.374 . S
C1593 C1590 1.499 . S
C1593 C1594 1.373 . S
C1593 C1595 1.389 . S
C1594 H1567 0.950 . S
C1594 C1580 1.377 . S
C1594 C1593 1.373 . S
C1595 C1579 1.377 . S
C1595 C1593 1.389 . S
C1595 C1596 1.524 . S
C1596 C1595 1.524 . S
C1596 C1597 1.397 . S
C1596 C1601 1.363 . S
C1597 H1568 0.950 . S
C1597 C1596 1.397 . S
C1597 C1598 1.334 . S
C1598 H1569 0.950 . S
C1598 C1597 1.334 . S
C1598 C1599 1.287 . S
C1599 C1598 1.287 . S
C1599 C1600 1.524 . S
C1599 H1602 0.999 . S
C1600 H1570 0.950 . S
C1600 C1599 1.524 . S
C1600 C1601 1.415 . S
C1601 H1571 0.950 . S
C1601 C1596 1.363 . S
C1601 C1600 1.415 . S
H1602 C1599 0.999 . S
H1603 C1584 0.913 . S
C423 C21 1.701 . S
C438 C336 1.647 . S
C473 C61 1.496 . S
C488 C358 1.478 . S
C538 C377 1.130 . S
C523 C82 1.358 . S
C573 C135 1.908 . S
C588 C398 1.569 . S
C638 C355 1.851 . S
C623 C15 1.908 . S
C688 C333 1.753 . S
C673 C42 1.763 . S
C738 C400 1.247 . S
C723 C101 1.311 . S
C788 C379 1.401 . S
C773 C122 1.460 . S
C823 C2 1.873 . S
C838 C397 1.814 . S
C888 C356 1.282 . S
C873 C95 1.567 . S
C923 C141 1.767 . S
C938 C338 1.576 . S
C973 C55 1.519 . S
C988 C376 1.502 . S
C1038 C334 1.658 . S
C1023 C181 1.693 . S
C1073 C202 1.263 . S
C1088 C354 1.255 . S
C1123 C255 1.461 . S
C1138 C380 1.230 . S
C1173 C295 1.771 . S
C1188 C401 1.446 . S
C1223 C175 1.828 . S
C1238 C357 1.795 . S
C1288 C337 1.850 . S
C1273 C221 1.875 . S
C1338 C396 1.068 . S
C1323 C242 1.093 . S
C1388 C375 1.580 . S
C1373 C301 1.642 . S
C1423 C162 1.551 . S
C1438 C399 1.546 . S
C1488 C359 1.238 . S
C1473 C261 1.450 . S
C1538 C335 1.326 . S
C1523 C282 1.494 . S
C1573 C215 1.486 . S
C1588 C378 1.466 . S
