# Generated by pormake.
# Topology pyr, (3,6)-cn, num edge types: 1
# Building blocks:
#     Node 0, Type 0, BuildingBlock: WUSLED_clean_sbu_0, # of connection points: 3
#     Node 1, Type 0, BuildingBlock: WUSLED_clean_sbu_0, # of connection points: 3
#     Node 2, Type 0, BuildingBlock: WUSLED_clean_sbu_0, # of connection points: 3
#     Node 3, Type 0, BuildingBlock: WUSLED_clean_sbu_0, # of connection points: 3
#     Node 4, Type 0, BuildingBlock: WUSLED_clean_sbu_0, # of connection points: 3
#     Node 5, Type 0, BuildingBlock: WUSLED_clean_sbu_0, # of connection points: 3
#     Node 6, Type 0, BuildingBlock: WUSLED_clean_sbu_0, # of connection points: 3
#     Node 7, Type 0, BuildingBlock: WUSLED_clean_sbu_0, # of connection points: 3
#     Node 8, Type 1, BuildingBlock: VOLQOD_clean_sbu_1, # of connection points: 6
#     Node 9, Type 1, BuildingBlock: VOLQOD_clean_sbu_1, # of connection points: 6
#     Node 10, Type 1, BuildingBlock: VOLQOD_clean_sbu_1, # of connection points: 6
#     Node 11, Type 1, BuildingBlock: VOLQOD_clean_sbu_1, # of connection points: 6
#     Edge 12, Type (0, 1), BuildingBlock: ZUJKAS_clean_linker_0, # of connection points: 2
#     Edge 13, Type (0, 1), BuildingBlock: ZUJKAS_clean_linker_0, # of connection points: 2
#     Edge 14, Type (0, 1), BuildingBlock: ZUJKAS_clean_linker_0, # of connection points: 2
#     Edge 15, Type (0, 1), BuildingBlock: ZUJKAS_clean_linker_0, # of connection points: 2
#     Edge 16, Type (0, 1), BuildingBlock: ZUJKAS_clean_linker_0, # of connection points: 2
#     Edge 17, Type (0, 1), BuildingBlock: ZUJKAS_clean_linker_0, # of connection points: 2
#     Edge 18, Type (0, 1), BuildingBlock: ZUJKAS_clean_linker_0, # of connection points: 2
#     Edge 19, Type (0, 1), BuildingBlock: ZUJKAS_clean_linker_0, # of connection points: 2
#     Edge 20, Type (0, 1), BuildingBlock: ZUJKAS_clean_linker_0, # of connection points: 2
#     Edge 21, Type (0, 1), BuildingBlock: ZUJKAS_clean_linker_0, # of connection points: 2
#     Edge 22, Type (0, 1), BuildingBlock: ZUJKAS_clean_linker_0, # of connection points: 2
#     Edge 23, Type (0, 1), BuildingBlock: ZUJKAS_clean_linker_0, # of connection points: 2
#     Edge 24, Type (0, 1), BuildingBlock: ZUJKAS_clean_linker_0, # of connection points: 2
#     Edge 25, Type (0, 1), BuildingBlock: ZUJKAS_clean_linker_0, # of connection points: 2
#     Edge 26, Type (0, 1), BuildingBlock: ZUJKAS_clean_linker_0, # of connection points: 2
#     Edge 27, Type (0, 1), BuildingBlock: ZUJKAS_clean_linker_0, # of connection points: 2
#     Edge 28, Type (0, 1), BuildingBlock: ZUJKAS_clean_linker_0, # of connection points: 2
#     Edge 29, Type (0, 1), BuildingBlock: ZUJKAS_clean_linker_0, # of connection points: 2
#     Edge 30, Type (0, 1), BuildingBlock: ZUJKAS_clean_linker_0, # of connection points: 2
#     Edge 31, Type (0, 1), BuildingBlock: ZUJKAS_clean_linker_0, # of connection points: 2
#     Edge 32, Type (0, 1), BuildingBlock: ZUJKAS_clean_linker_0, # of connection points: 2
#     Edge 33, Type (0, 1), BuildingBlock: ZUJKAS_clean_linker_0, # of connection points: 2
#     Edge 34, Type (0, 1), BuildingBlock: ZUJKAS_clean_linker_0, # of connection points: 2
#     Edge 35, Type (0, 1), BuildingBlock: ZUJKAS_clean_linker_0, # of connection points: 2
# Relax obj value: 0.035
# Max RMSD: 0.121
# Mean RMSD: 0.046
data_MOF--net-pry--node1-WUSLED_clean_sbu_0--node2-VOLQOD_clean_sbu_1--edge1-ZUJKAS_clean_linker_0
_symmetry_space_group_name_H-M    P1
_symmetry_Int_Tables_number       1
_symmetry_cell_setting            triclinic
loop_
_symmetry_equiv_pos_as_xyz
'x, y, z'
_cell_length_a     59.166265
_cell_length_b     59.291547
_cell_length_c     59.493773
_cell_angle_alpha  89.820331
_cell_angle_beta   90.27219
_cell_angle_gamma 90.644634
loop_
_atom_site_label
_atom_site_type_symbol
_atom_site_fract_x
_atom_site_fract_y
_atom_site_fract_z
_atom_type_partial_charge
C0 C 0.1439 0.21303 0.12201 0.0
C1 C 0.12616 0.22067 0.13549 0.0
C2 C 0.11908 0.25136 0.10909 0.0
C3 C 0.11387 0.2397 0.12909 0.0
C4 C 0.13683 0.24349 0.09564 0.0
C5 C 0.14911 0.2245 0.10207 0.0
U6 U 0.15567 0.16368 0.16148 0.0
O7 O 0.16607 0.129 0.15381 0.0
O8 O 0.18788 0.15085 0.17453 0.0
C9 C 0.18573 0.13152 0.16391 0.0
C10 C 0.1572 0.19329 0.12861 0.0
C11 C 0.20551 0.12437 0.15097 0.0
C12 C 0.23641 0.13235 0.12523 0.0
C13 C 0.21719 0.13941 0.1368 0.0
C14 C 0.2321 0.09505 0.1415 0.0
C15 C 0.24421 0.1101 0.12759 0.0
C16 C 0.21298 0.10214 0.15309 0.0
C17 C 0.11822 0.15308 0.21243 0.0
C18 C 0.12807 0.12626 0.24176 0.0
C19 C 0.09119 0.14363 0.24166 0.0
C20 C 0.09691 0.15564 0.2222 0.0
C21 C 0.10674 0.12887 0.25173 0.0
C22 C 0.13373 0.13821 0.22222 0.0
C23 C 0.12406 0.16608 0.19215 0.0
O24 O 0.16887 0.19548 0.14735 0.0
O25 O 0.14666 0.17373 0.12698 0.0
O26 O 0.12126 0.15536 0.17302 0.0
O27 O 0.14316 0.17757 0.19322 0.0
H28 H 0.12188 0.21193 0.15094 0.0
H29 H 0.10017 0.24516 0.13971 0.0
H30 H 0.14153 0.25224 0.08033 0.0
H31 H 0.1628 0.21886 0.09152 0.0
H32 H 0.24541 0.14444 0.11483 0.0
H33 H 0.2116 0.15666 0.13489 0.0
H34 H 0.23733 0.0777 0.14339 0.0
H35 H 0.20407 0.09027 0.16383 0.0
H36 H 0.14032 0.11483 0.24895 0.0
H37 H 0.07473 0.14621 0.24906 0.0
H38 H 0.08474 0.16706 0.21485 0.0
H39 H 0.15023 0.13591 0.21479 0.0
C40 C 0.31797 0.86487 0.62297 0.0
C41 C 0.30885 0.8823 0.63586 0.0
C42 C 0.27966 0.88832 0.60747 0.0
C43 C 0.28982 0.8939 0.62819 0.0
C44 C 0.28908 0.87095 0.59456 0.0
C45 C 0.30805 0.85934 0.60227 0.0
U46 U 0.36528 0.85544 0.66555 0.0
O47 O 0.3778 0.82389 0.6804 0.0
O48 O 0.40057 0.84544 0.66051 0.0
C49 C 0.3977 0.82599 0.67086 0.0
C50 C 0.33762 0.85218 0.63104 0.0
C51 C 0.40541 0.80604 0.65856 0.0
C52 C 0.40485 0.78217 0.6254 0.0
C53 C 0.39743 0.80132 0.63681 0.0
C54 C 0.42814 0.77222 0.65746 0.0
C55 C 0.42032 0.76737 0.63559 0.0
C56 C 0.42076 0.79138 0.6688 0.0
C57 C 0.37099 0.89582 0.71555 0.0
C58 C 0.40147 0.89401 0.74301 0.0
C59 C 0.37109 0.92059 0.74797 0.0
C60 C 0.36098 0.91295 0.72808 0.0
C61 C 0.39145 0.91121 0.7557 0.0
C62 C 0.39129 0.88634 0.7231 0.0
C63 C 0.35998 0.88812 0.6947 0.0
O64 O 0.3571 0.86301 0.6302 0.0
O65 O 0.33459 0.8411 0.64998 0.0
O66 O 0.34921 0.86866 0.69601 0.0
O67 O 0.37202 0.89034 0.6763 0.0
H68 H 0.31638 0.88684 0.65188 0.0
H69 H 0.28317 0.90735 0.63842 0.0
H70 H 0.28151 0.86601 0.57868 0.0
H71 H 0.31487 0.84589 0.59215 0.0
H72 H 0.39866 0.77911 0.60852 0.0
H73 H 0.38551 0.81246 0.62865 0.0
H74 H 0.43974 0.76104 0.66599 0.0
H75 H 0.42697 0.79471 0.68564 0.0
H76 H 0.41701 0.88627 0.74862 0.0
H77 H 0.36309 0.93405 0.75714 0.0
H78 H 0.34534 0.92049 0.72244 0.0
H79 H 0.3992 0.87302 0.71364 0.0
C80 C 0.61004 0.37894 0.823 0.0
C81 C 0.62523 0.39399 0.81262 0.0
C82 C 0.59764 0.40145 0.78304 0.0
C83 C 0.6191 0.40513 0.79278 0.0
C84 C 0.58238 0.38663 0.79382 0.0
C85 C 0.58856 0.37546 0.81359 0.0
U86 U 0.64885 0.37021 0.87348 0.0
O87 O 0.64079 0.36014 0.90818 0.0
O88 O 0.66269 0.33895 0.88763 0.0
C89 C 0.65132 0.34082 0.90644 0.0
C90 C 0.61646 0.36652 0.84341 0.0
C91 C 0.63801 0.32078 0.91283 0.0
C92 C 0.60745 0.29407 0.90551 0.0
C93 C 0.61967 0.31351 0.89959 0.0
C94 C 0.63168 0.28916 0.93808 0.0
C95 C 0.61337 0.28161 0.92479 0.0
C96 C 0.64389 0.30858 0.93212 0.0
C97 C 0.69895 0.4102 0.883 0.0
C98 C 0.72958 0.4023 0.90911 0.0
C99 C 0.72694 0.43915 0.89163 0.0
C100 C 0.70743 0.43216 0.88018 0.0
C101 C 0.7384 0.42425 0.90608 0.0
C102 C 0.70999 0.39535 0.8977 0.0
C103 C 0.67882 0.40299 0.87026 0.0
O104 O 0.63556 0.3555 0.8422 0.0
O105 O 0.61414 0.37754 0.86238 0.0
O106 O 0.65945 0.40517 0.8807 0.0
O107 O 0.68057 0.38371 0.85958 0.0
H108 H 0.6419 0.3969 0.81973 0.0
H109 H 0.63134 0.41624 0.78484 0.0
H110 H 0.56559 0.38372 0.78703 0.0
H111 H 0.57659 0.364 0.82148 0.0
H112 H 0.5933 0.28887 0.89506 0.0
H113 H 0.61489 0.32282 0.88463 0.0
H114 H 0.63688 0.2798 0.95285 0.0
H115 H 0.65806 0.31395 0.94247 0.0
H116 H 0.73808 0.39032 0.91992 0.0
H117 H 0.733 0.45629 0.88921 0.0
H118 H 0.69901 0.44388 0.86901 0.0
H119 H 0.70361 0.37832 0.90013 0.0
C120 C 0.81406 0.61386 0.37631 0.0
C121 C 0.81225 0.61834 0.39938 0.0
C122 C 0.77491 0.60052 0.4001 0.0
C123 C 0.79289 0.61165 0.41119 0.0
C124 C 0.77679 0.59632 0.37691 0.0
C125 C 0.7962 0.60288 0.36517 0.0
U126 U 0.86462 0.65314 0.36715 0.0
O127 O 0.89941 0.64567 0.35675 0.0
O128 O 0.87828 0.66782 0.33603 0.0
C129 C 0.89736 0.65676 0.3377 0.0
C130 C 0.83424 0.62078 0.36355 0.0
C131 C 0.90414 0.64445 0.31746 0.0
C132 C 0.89566 0.61859 0.28687 0.0
C133 C 0.88908 0.62969 0.30647 0.0
C134 C 0.93257 0.63657 0.28936 0.0
C135 C 0.91746 0.62202 0.27798 0.0
C136 C 0.92594 0.6477 0.30889 0.0
C137 C 0.87466 0.70232 0.40733 0.0
C138 C 0.90628 0.72845 0.40303 0.0
C139 C 0.87817 0.73487 0.43175 0.0
C140 C 0.86657 0.71533 0.42509 0.0
C141 C 0.8981 0.74174 0.42074 0.0
C142 C 0.8946 0.70892 0.39635 0.0
C143 C 0.8618 0.68226 0.40012 0.0
O144 O 0.83266 0.64013 0.35286 0.0
O145 O 0.85374 0.61822 0.3739 0.0
O146 O 0.87237 0.66296 0.402 0.0
O147 O 0.85086 0.68443 0.38098 0.0
H148 H 0.82582 0.62695 0.40829 0.0
H149 H 0.79217 0.61495 0.42906 0.0
H150 H 0.76314 0.58819 0.3677 0.0
H151 H 0.79722 0.59946 0.34732 0.0
H152 H 0.88353 0.60769 0.27844 0.0
H153 H 0.87217 0.62694 0.31291 0.0
H154 H 0.9496 0.6393 0.28325 0.0
H155 H 0.93783 0.65892 0.31726 0.0
H156 H 0.92144 0.7334 0.39406 0.0
H157 H 0.8716 0.74453 0.44565 0.0
H158 H 0.8512 0.71044 0.43375 0.0
H159 H 0.901 0.69907 0.38249 0.0
C160 C 0.88365 0.83165 0.91951 0.0
C161 C 0.89708 0.82093 0.90345 0.0
C162 C 0.90653 0.79162 0.93057 0.0
C163 C 0.90835 0.80103 0.90891 0.0
C164 C 0.89341 0.80271 0.94672 0.0
C165 C 0.88204 0.82253 0.9412 0.0
U166 U 0.87338 0.8822 0.88144 0.0
O167 O 0.84171 0.89584 0.86798 0.0
O168 O 0.86335 0.91687 0.88967 0.0
C169 C 0.84377 0.91475 0.87932 0.0
C170 C 0.87094 0.85203 0.91372 0.0
C171 C 0.82388 0.92096 0.89254 0.0
C172 C 0.7943 0.91124 0.91917 0.0
C173 C 0.81382 0.90548 0.90743 0.0
C174 C 0.79509 0.94824 0.90174 0.0
C175 C 0.78462 0.93264 0.91634 0.0
C176 C 0.81453 0.94241 0.88991 0.0
C177 C 0.91168 0.89127 0.83047 0.0
C178 C 0.90268 0.9162 0.79927 0.0
C179 C 0.93914 0.89804 0.80099 0.0
C180 C 0.93304 0.88767 0.82122 0.0
C181 C 0.92392 0.91217 0.78958 0.0
C182 C 0.89662 0.90584 0.81957 0.0
C183 C 0.90512 0.87902 0.85098 0.0
O184 O 0.88213 0.8712 0.91578 0.0
O185 O 0.85898 0.85076 0.89508 0.0
O186 O 0.88575 0.868 0.84983 0.0
O187 O 0.90796 0.89 0.86996 0.0
H188 H 0.89866 0.82785 0.88664 0.0
H189 H 0.91854 0.79303 0.8962 0.0
H190 H 0.8915 0.79577 0.96348 0.0
H191 H 0.87175 0.8306 0.95379 0.0
H192 H 0.7868 0.89897 0.9305 0.0
H193 H 0.82092 0.88886 0.90977 0.0
H194 H 0.78793 0.96476 0.89902 0.0
H195 H 0.8221 0.95455 0.87848 0.0
H196 H 0.89048 0.92681 0.79085 0.0
H197 H 0.95577 0.8949 0.79423 0.0
H198 H 0.94491 0.87657 0.8295 0.0
H199 H 0.88003 0.90883 0.82653 0.0
C200 C 0.60709 0.13278 0.33427 0.0
C201 C 0.61973 0.11486 0.32579 0.0
C202 C 0.5938 0.11136 0.29399 0.0
C203 C 0.61312 0.1042 0.30581 0.0
C204 C 0.58102 0.1291 0.30286 0.0
C205 C 0.58764 0.13971 0.32281 0.0
U206 U 0.64758 0.14145 0.38376 0.0
O207 O 0.66246 0.17285 0.39702 0.0
O208 O 0.64067 0.15186 0.41851 0.0
C209 C 0.65165 0.17112 0.4162 0.0
C210 C 0.61438 0.14494 0.35457 0.0
C211 C 0.63922 0.19132 0.42283 0.0
C212 C 0.60881 0.2179 0.41679 0.0
C213 C 0.61995 0.19811 0.41088 0.0
C214 C 0.636 0.22416 0.4468 0.0
C215 C 0.61683 0.23127 0.43471 0.0
C216 C 0.64708 0.20436 0.44088 0.0
C217 C 0.69778 0.10257 0.39218 0.0
C218 C 0.72834 0.11138 0.41826 0.0
C219 C 0.72794 0.0758 0.39832 0.0
C220 C 0.7077 0.08174 0.38774 0.0
C221 C 0.73867 0.09066 0.41351 0.0
C222 C 0.70806 0.11727 0.4077 0.0
C223 C 0.67717 0.10905 0.38001 0.0
O224 O 0.61251 0.13373 0.37358 0.0
O225 O 0.63363 0.15604 0.35274 0.0
O226 O 0.6786 0.1282 0.36889 0.0
O227 O 0.65818 0.1067 0.39119 0.0
H228 H 0.63487 0.10936 0.33444 0.0
H229 H 0.62344 0.09075 0.29934 0.0
H230 H 0.56587 0.13479 0.29439 0.0
H231 H 0.57767 0.15349 0.32918 0.0
H232 H 0.59426 0.22302 0.40701 0.0
H233 H 0.61372 0.18824 0.3968 0.0
H234 H 0.64242 0.23388 0.46088 0.0
H235 H 0.66192 0.19932 0.4503 0.0
H236 H 0.73623 0.12332 0.42968 0.0
H237 H 0.7352 0.05957 0.39456 0.0
H238 H 0.69992 0.07015 0.37589 0.0
H239 H 0.70059 0.13345 0.41133 0.0
C240 C 0.32868 0.60252 0.13927 0.0
C241 C 0.31554 0.61925 0.129 0.0
C242 C 0.2883 0.59079 0.11646 0.0
C243 C 0.29549 0.61346 0.11783 0.0
C244 C 0.30185 0.57405 0.12636 0.0
C245 C 0.32182 0.57989 0.13772 0.0
U246 U 0.37888 0.64171 0.14851 0.0
O247 O 0.39326 0.65592 0.17954 0.0
O248 O 0.41413 0.63468 0.15797 0.0
C249 C 0.41245 0.64525 0.17728 0.0
C250 C 0.34942 0.60853 0.1517 0.0
C251 C 0.41966 0.63249 0.19718 0.0
C252 C 0.41323 0.60278 0.22468 0.0
C253 C 0.40692 0.61398 0.20494 0.0
C254 C 0.44529 0.62827 0.22882 0.0
C255 C 0.43237 0.60995 0.23698 0.0
C256 C 0.43896 0.63944 0.20909 0.0
C257 C 0.38574 0.69288 0.11021 0.0
C258 C 0.41517 0.72105 0.11655 0.0
C259 C 0.38826 0.72585 0.0861 0.0
C260 C 0.37774 0.70547 0.09196 0.0
C261 C 0.40698 0.73399 0.09845 0.0
C262 C 0.4046 0.70066 0.12241 0.0
C263 C 0.37383 0.67208 0.11677 0.0
O264 O 0.36832 0.6069 0.14032 0.0
O265 O 0.34834 0.62705 0.16373 0.0
O266 O 0.36343 0.67294 0.13621 0.0
O267 O 0.38508 0.65332 0.11389 0.0
H268 H 0.32063 0.63684 0.12987 0.0
H269 H 0.2854 0.62684 0.1107 0.0
H270 H 0.29708 0.5564 0.12531 0.0
H271 H 0.33187 0.56674 0.14537 0.0
H272 H 0.40279 0.58889 0.23062 0.0
H273 H 0.39189 0.60848 0.19594 0.0
H274 H 0.4603 0.634 0.2377 0.0
H275 H 0.44898 0.6537 0.20328 0.0
H276 H 0.4294 0.72695 0.12652 0.0
H277 H 0.38175 0.73523 0.07187 0.0
H278 H 0.36321 0.69965 0.08236 0.0
H279 H 0.41093 0.69112 0.13662 0.0
C280 C 0.1008 0.3256 0.6434 0.0
C281 C 0.11645 0.31265 0.63156 0.0
C282 C 0.08712 0.2848 0.62279 0.0
C283 C 0.10971 0.2924 0.62145 0.0
C284 C 0.07141 0.29817 0.63427 0.0
C285 C 0.07822 0.31835 0.64452 0.0
U286 U 0.14148 0.37521 0.64966 0.0
O287 O 0.13566 0.4106 0.65873 0.0
O288 O 0.15754 0.38959 0.67987 0.0
C289 C 0.14727 0.40899 0.67757 0.0
C290 C 0.10797 0.34639 0.65498 0.0
C291 C 0.13605 0.41723 0.69788 0.0
C292 C 0.10406 0.41758 0.72335 0.0
C293 C 0.1141 0.41005 0.70352 0.0
C294 C 0.13784 0.43941 0.73206 0.0
C295 C 0.11591 0.43221 0.73793 0.0
C296 C 0.14779 0.43199 0.71221 0.0
C297 C 0.19079 0.38121 0.60897 0.0
C298 C 0.22428 0.40407 0.61654 0.0
C299 C 0.21752 0.38939 0.57911 0.0
C300 C 0.19748 0.37916 0.58651 0.0
C301 C 0.23127 0.40175 0.59411 0.0
C302 C 0.20415 0.39397 0.62389 0.0
C303 C 0.17012 0.36961 0.61666 0.0
O304 O 0.12719 0.3451 0.66605 0.0
O305 O 0.10605 0.36512 0.64326 0.0
O306 O 0.15132 0.38102 0.61441 0.0
O307 O 0.17177 0.35918 0.63612 0.0
H308 H 0.13398 0.31802 0.63042 0.0
H309 H 0.12235 0.28246 0.61304 0.0
H310 H 0.05381 0.29309 0.63532 0.0
H311 H 0.06589 0.32823 0.65346 0.0
H312 H 0.08724 0.41156 0.72753 0.0
H313 H 0.10486 0.39849 0.69271 0.0
H314 H 0.14728 0.45089 0.74278 0.0
H315 H 0.16475 0.43767 0.7081 0.0
H316 H 0.23436 0.41374 0.62841 0.0
H317 H 0.22255 0.38713 0.56179 0.0
H318 H 0.18734 0.3694 0.57477 0.0
H319 H 0.19914 0.39593 0.64126 0.0
O320 O 0.00946 0.05623 0.5413 0.0
Zn321 Zn 0.99438 0.02645 0.53379 0.0
O322 O 0.01429 0.00793 0.51516 0.0
Zn323 Zn 0.99985 0.00229 0.48598 0.0
Zn324 Zn 0.04333 0.0236 0.51054 0.0
Zn325 Zn 0.01959 0.97912 0.53028 0.0
O326 O 0.99486 0.96896 0.48069 0.0
O327 O 0.00783 0.95295 0.51187 0.0
O328 O 0.96488 0.03301 0.51769 0.0
O329 O 0.96925 0.01671 0.48449 0.0
O330 O 0.01847 0.01516 0.46052 0.0
O331 O 0.04888 0.0294 0.47752 0.0
O332 O 0.06952 0.00548 0.52293 0.0
O333 O 0.9869 0.01084 0.56318 0.0
O334 O 0.05277 0.97444 0.53595 0.0
O335 O 0.00415 0.97793 0.56035 0.0
C336 C 0.02886 0.06476 0.53709 0.0
C337 C 0.9986 0.95144 0.49254 0.0
C338 C 0.03751 0.02537 0.4597 0.0
C339 C 0.95747 0.02812 0.49814 0.0
C340 C 0.07056 0.9862 0.53241 0.0
C341 C 0.99194 0.99161 0.57128 0.0
O342 O 0.04341 0.05403 0.52572 0.0
O343 O 0.5056 0.05904 0.99188 0.0
Zn344 Zn 0.49001 0.0294 0.99981 0.0
O345 O 0.5096 0.01082 0.01916 0.0
Zn346 Zn 0.51733 0.98294 0.00358 0.0
Zn347 Zn 0.53747 0.02738 0.02645 0.0
Zn348 Zn 0.49385 0.00331 0.04709 0.0
O349 O 0.50657 0.95557 0.02079 0.0
O350 O 0.48891 0.96975 0.05028 0.0
O351 O 0.48224 0.01302 0.97075 0.0
O352 O 0.50211 0.98155 0.9733 0.0
O353 O 0.55097 0.9804 0.99886 0.0
O354 O 0.56496 0.01116 0.01515 0.0
O355 O 0.54113 0.03197 0.05993 0.0
O356 O 0.46066 0.03675 0.01565 0.0
O357 O 0.51131 0.01416 0.07426 0.0
O358 O 0.46351 0.01822 0.04801 0.0
C359 C 0.52428 0.06801 0.99814 0.0
C360 C 0.4952 0.9529 0.03875 0.0
C361 C 0.56775 0.99286 0.00442 0.0
C362 C 0.48857 0.99426 0.96257 0.0
C363 C 0.52952 0.02554 0.07681 0.0
C364 C 0.45258 0.03099 0.03469 0.0
O365 O 0.53758 0.05779 0.01153 0.0
O366 O 0.53454 0.50764 0.5602 0.0
Zn367 Zn 0.52745 0.52322 0.53059 0.0
O368 O 0.50795 0.50397 0.51154 0.0
Zn369 Zn 0.52383 0.49647 0.48386 0.0
Zn370 Zn 0.50046 0.47592 0.52737 0.0
Zn371 Zn 0.47999 0.5199 0.5041 0.0
O372 O 0.50693 0.50761 0.45663 0.0
O373 O 0.47723 0.5252 0.47062 0.0
O374 O 0.55709 0.53076 0.51502 0.0
O375 O 0.55453 0.51121 0.48332 0.0
O376 O 0.52842 0.46298 0.48071 0.0
O377 O 0.51183 0.44857 0.51093 0.0
O378 O 0.46684 0.47229 0.53144 0.0
O379 O 0.51184 0.5525 0.53796 0.0
O380 O 0.45246 0.50218 0.51424 0.0
O381 O 0.47907 0.55008 0.51974 0.0
C382 C 0.52806 0.48889 0.56868 0.0
C383 C 0.48901 0.51903 0.45389 0.0
C384 C 0.52275 0.44605 0.49273 0.0
C385 C 0.56544 0.5244 0.49639 0.0
C386 C 0.4499 0.48382 0.52518 0.0
C387 C 0.49275 0.56075 0.53257 0.0
O388 O 0.51491 0.47559 0.55793 0.0
O389 O 0.98477 0.51376 0.05853 0.0
Zn390 Zn 0.99147 0.498 0.02907 0.0
O391 O 0.01076 0.51713 0.00967 0.0
Zn392 Zn 0.99496 0.52421 0.98155 0.0
Zn393 Zn 0.01846 0.5453 0.02515 0.0
Zn394 Zn 0.03856 0.50122 0.00265 0.0
O395 O 0.01202 0.51309 0.95446 0.0
O396 O 0.04243 0.49719 0.96928 0.0
O397 O 0.96157 0.49093 0.0136 0.0
O398 O 0.96436 0.50923 0.98107 0.0
O399 O 0.99036 0.55777 0.97795 0.0
O400 O 0.00717 0.57237 0.00807 0.0
O401 O 0.05216 0.54882 0.02983 0.0
O402 O 0.00679 0.46831 0.03647 0.0
O403 O 0.06591 0.51781 0.01453 0.0
O404 O 0.03869 0.47059 0.01706 0.0
C405 C 0.99103 0.53274 0.06661 0.0
C406 C 0.03058 0.50268 0.95223 0.0
C407 C 0.99618 0.57477 0.98978 0.0
C408 C 0.9533 0.49665 0.9946 0.0
C409 C 0.06883 0.53639 0.02486 0.0
C410 C 0.02544 0.45984 0.03018 0.0
O411 O 0.0039 0.54605 0.05558 0.0
H412 H 0.06684 0.10744 0.26198 0.0
H413 H 0.05665 0.08845 0.29719 0.0
H414 H 0.12302 0.10304 0.324 0.0
H415 H 0.13323 0.12241 0.28902 0.0
H416 H 0.07899 0.05096 0.31938 0.0
H417 H 0.07848 0.12896 0.37105 0.0
H418 H 0.0773 0.12957 0.34072 0.0
H419 H 0.10362 0.12446 0.35489 0.0
C420 C 0.07923 0.10673 0.27542 0.0
C421 C 0.10081 0.11656 0.27275 0.0
C422 C 0.07342 0.09575 0.29545 0.0
C423 C 0.089 0.09458 0.31325 0.0
C424 C 0.11067 0.10401 0.31054 0.0
H425 H 0.07839 0.04566 0.45084 0.0
H426 H 0.09172 0.06088 0.41499 0.0
C427 C 0.11653 0.1149 0.29047 0.0
C428 C 0.08247 0.08364 0.33473 0.0
H429 H 0.07281 0.09444 0.39016 0.0
C430 C 0.07762 0.06042 0.33488 0.0
C431 C 0.08077 0.09606 0.35489 0.0
C432 C 0.08513 0.12118 0.35549 0.0
C433 C 0.07133 0.0492 0.35477 0.0
C434 C 0.06936 0.06168 0.37491 0.0
C435 C 0.07436 0.08489 0.37473 0.0
C436 C 0.06172 0.05116 0.3963 0.0
C437 C 0.06728 0.02405 0.3541 0.0
C438 C 0.0404 0.04064 0.39773 0.0
C439 C 0.03276 0.03181 0.41819 0.0
C440 C 0.04618 0.03355 0.43772 0.0
C441 C 0.0676 0.04399 0.43617 0.0
C442 C 0.07526 0.05273 0.41568 0.0
H443 H 0.07585 0.01621 0.33955 0.0
H444 H 0.07332 0.01582 0.36977 0.0
H445 H 0.04888 0.02062 0.35237 0.0
H446 H 0.02942 0.03971 0.38314 0.0
H447 H 0.01611 0.02404 0.41876 0.0
H448 H 0.43637 0.91967 0.76411 0.0
H449 H 0.45367 0.93353 0.79901 0.0
H450 H 0.38795 0.9359 0.82986 0.0
H451 H 0.3706 0.9215 0.79531 0.0
H452 H 0.44528 0.97416 0.82185 0.0
H453 H 0.42557 0.89956 0.87513 0.0
H454 H 0.42389 0.89883 0.84483 0.0
H455 H 0.40149 0.9111 0.86085 0.0
C456 C 0.42563 0.92286 0.77842 0.0
C457 C 0.4021 0.9194 0.77693 0.0
C458 C 0.43552 0.93093 0.79829 0.0
C459 C 0.42212 0.9355 0.8171 0.0
C460 C 0.39865 0.93216 0.81565 0.0
H461 H 0.45738 0.01505 0.93536 0.0
H462 H 0.44181 1.00137 0.89966 0.0
C463 C 0.38874 0.92414 0.79581 0.0
C464 C 0.43261 0.94414 0.83813 0.0
H465 H 0.43961 0.93216 0.89389 0.0
C466 C 0.44413 0.96497 0.8376 0.0
C467 C 0.43128 0.93198 0.85859 0.0
C468 C 0.42008 0.90903 0.85994 0.0
C469 C 0.45404 0.97415 0.8571 0.0
C470 C 0.4521 0.96232 0.8777 0.0
C471 C 0.44089 0.94132 0.87812 0.0
C472 C 0.46195 0.97113 0.89898 0.0
C473 C 0.46681 0.99626 0.85539 0.0
C474 C 0.47816 0.95852 0.91064 0.0
C475 C 0.48697 0.96621 0.93109 0.0
C476 C 0.47968 0.98665 0.94043 0.0
C477 C 0.46348 0.99932 0.92864 0.0
C478 C 0.45464 0.99157 0.90815 0.0
H479 H 0.47164 1.00018 0.83778 0.0
H480 H 0.45591 0.01005 0.86147 0.0
H481 H 0.48234 0.99602 0.86594 0.0
H482 H 0.48399 0.94267 0.90392 0.0
H483 H 0.49942 0.95597 0.93966 0.0
H484 H 0.57404 0.38331 0.74767 0.0
H485 H 0.56315 0.40175 0.71255 0.0
H486 H 0.59623 0.46315 0.73415 0.0
H487 H 0.60687 0.44498 0.76964 0.0
H488 H 0.53691 0.44263 0.70801 0.0
H489 H 0.62276 0.4502 0.67056 0.0
H490 H 0.61646 0.4309 0.6933 0.0
H491 H 0.61939 0.46054 0.69874 0.0
C492 C 0.57885 0.4008 0.7451 0.0
C493 C 0.5913 0.41267 0.76154 0.0
C494 C 0.57273 0.41126 0.72495 0.0
C495 C 0.57907 0.43372 0.7207 0.0
C496 C 0.59149 0.44568 0.73699 0.0
H497 H 0.55479 0.51306 0.59816 0.0
H498 H 0.56696 0.5017 0.63596 0.0
C499 C 0.59758 0.43525 0.75723 0.0
C500 C 0.57215 0.4446 0.69936 0.0
H501 H 0.59237 0.46446 0.64932 0.0
C502 C 0.54902 0.44752 0.69521 0.0
C503 C 0.58804 0.45113 0.68283 0.0
C504 C 0.61307 0.44796 0.68638 0.0
C505 C 0.54128 0.4565 0.67477 0.0
C506 C 0.5571 0.46224 0.65787 0.0
C507 C 0.58029 0.45999 0.66229 0.0
C508 C 0.54978 0.4693 0.63507 0.0
C509 C 0.51622 0.45979 0.6715 0.0
C510 C 0.53645 0.4547 0.62193 0.0
C511 C 0.52945 0.46111 0.60044 0.0
C512 C 0.53581 0.48223 0.59149 0.0
C513 C 0.54951 0.49672 0.60455 0.0
C514 C 0.55649 0.49026 0.62614 0.0
H515 H 0.50737 0.46132 0.68785 0.0
H516 H 0.51277 0.47507 0.66126 0.0
H517 H 0.50897 0.44494 0.66261 0.0
H518 H 0.53154 0.43822 0.62827 0.0
H519 H 0.51908 0.44942 0.59084 0.0
H520 H 0.9425 0.63996 0.24357 0.0
H521 H 0.95426 0.62152 0.20896 0.0
H522 H 0.91963 0.56049 0.22929 0.0
H523 H 0.90807 0.57868 0.26426 0.0
H524 H 0.98007 0.58079 0.20512 0.0
H525 H 0.89515 0.5736 0.16492 0.0
H526 H 0.90092 0.59255 0.18801 0.0
H527 H 0.89767 0.56284 0.19312 0.0
C528 C 0.93752 0.62255 0.24083 0.0
C529 C 0.92435 0.6108 0.25676 0.0
C530 C 0.94415 0.61209 0.22096 0.0
C531 C 0.93762 0.58974 0.21648 0.0
C532 C 0.92452 0.57789 0.23227 0.0
H533 H 0.9639 0.50911 0.09606 0.0
H534 H 0.95129 0.52108 0.13332 0.0
C535 C 0.9179 0.58833 0.25223 0.0
C536 C 0.94502 0.57884 0.19541 0.0
H537 H 0.92587 0.55864 0.14501 0.0
C538 C 0.96823 0.57586 0.192 0.0
C539 C 0.9295 0.57227 0.17844 0.0
C540 C 0.90441 0.57556 0.18111 0.0
C541 C 0.9764 0.56669 0.17194 0.0
C542 C 0.96095 0.56081 0.15463 0.0
C543 C 0.93768 0.56321 0.15829 0.0
C544 C 0.96872 0.55333 0.13221 0.0
C545 C 0.00151 0.56331 0.1695 0.0
C546 C 0.98241 0.56762 0.11913 0.0
C547 C 0.98966 0.56086 0.09792 0.0
C548 C 0.98323 0.53969 0.08921 0.0
C549 C 0.96925 0.52548 0.10226 0.0
C550 C 0.96201 0.53229 0.12355 0.0
H551 H 0.01002 0.56201 0.18613 0.0
H552 H 0.00513 0.54787 0.15969 0.0
H553 H 0.00898 0.57801 0.16051 0.0
H554 H 0.98735 0.58415 0.12525 0.0
H555 H 1.00025 0.57234 0.08833 0.0
H556 H 0.25838 0.1205 0.08477 0.0
H557 H 0.29262 0.10768 0.06585 0.0
H558 H 0.31135 0.07 0.12502 0.0
H559 H 0.27753 0.08298 0.14418 0.0
H560 H 0.33901 0.11299 0.07973 0.0
H561 H 0.31309 0.02301 0.07384 0.0
H562 H 0.29326 0.04524 0.07934 0.0
H563 H 0.31087 0.0346 0.10159 0.0
C564 C 0.26986 0.10962 0.09383 0.0
C565 C 0.26506 0.10262 0.11596 0.0
C566 C 0.28935 0.10222 0.08294 0.0
C567 C 0.30429 0.08758 0.09391 0.0
C568 C 0.29977 0.08088 0.11608 0.0
H569 H 0.43063 0.02248 0.0742 0.0
H570 H 0.39435 0.037 0.08647 0.0
C571 C 0.28038 0.08829 0.12698 0.0
C572 C 0.32487 0.07951 0.08247 0.0
H573 H 0.35185 0.03154 0.06665 0.0
C574 C 0.34176 0.09523 0.07659 0.0
C575 C 0.32834 0.05633 0.07837 0.0
C576 C 0.31036 0.0388 0.0834 0.0
C577 C 0.36249 0.08825 0.06764 0.0
C578 C 0.36619 0.06499 0.06414 0.0
C579 C 0.34901 0.04936 0.06942 0.0
C580 C 0.38819 0.05632 0.05621 0.0
C581 C 0.3806 0.10574 0.06292 0.0
C582 C 0.3967 0.06216 0.03495 0.0
C583 C 0.41756 0.0539 0.02783 0.0
C584 C 0.43023 0.03953 0.04181 0.0
C585 C 0.42142 0.03352 0.06297 0.0
C586 C 0.40064 0.04179 0.07004 0.0
H587 H 0.3769 0.12214 0.07101 0.0
H588 H 0.39734 0.09988 0.06893 0.0
H589 H 0.38169 0.10858 0.04452 0.0
H590 H 0.38716 0.07302 0.02383 0.0
H591 H 0.42375 0.05879 0.01141 0.0
H592 H 0.24283 0.90067 0.6321 0.0
H593 H 0.20833 0.91878 0.61862 0.0
H594 H 0.2353 0.92091 0.55144 0.0
H595 H 0.26989 0.90289 0.56478 0.0
H596 H 0.20169 0.96015 0.5968 0.0
H597 H 0.17444 0.88816 0.54327 0.0
H598 H 0.19647 0.88577 0.5642 0.0
H599 H 0.20238 0.89876 0.53749 0.0
C600 C 0.24153 0.9052 0.6145 0.0
C601 C 0.25907 0.90018 0.59949 0.0
C602 C 0.22177 0.91547 0.60681 0.0
C603 C 0.21911 0.92086 0.58397 0.0
C604 C 0.23679 0.91643 0.56905 0.0
H605 H 0.11263 0.0057 0.52745 0.0
H606 H 0.14904 0.99058 0.53966 0.0
C607 C 0.25655 0.90613 0.5767 0.0
C608 C 0.1977 0.93087 0.57579 0.0
H609 H 0.15274 0.92135 0.54074 0.0
C610 C 0.19098 0.95171 0.58453 0.0
C611 C 0.18364 0.91968 0.55997 0.0
C612 C 0.18943 0.89676 0.5508 0.0
C613 C 0.17061 0.96171 0.57778 0.0
C614 C 0.15678 0.95072 0.56162 0.0
C615 C 0.16347 0.92985 0.55297 0.0
C616 C 0.13482 0.96008 0.55413 0.0
C617 C 0.1638 0.98367 0.58842 0.0
C618 C 0.1148 0.94772 0.55774 0.0
C619 C 0.09401 0.95621 0.55066 0.0
C620 C 0.09277 0.97724 0.53971 0.0
C621 C 0.11292 0.98951 0.53593 0.0
C622 C 0.13375 0.98097 0.54302 0.0
H623 H 0.1734 0.98708 0.60416 0.0
H624 H 0.16726 0.99771 0.57651 0.0
H625 H 0.14545 0.98359 0.59228 0.0
H626 H 0.11525 0.93152 0.56621 0.0
H627 H 0.0789 0.94625 0.55385 0.0
H628 H 0.75234 0.4148 0.94921 0.0
H629 H 0.78764 0.42671 0.96761 0.0
H630 H 0.80782 0.46194 0.90735 0.0
H631 H 0.77294 0.44984 0.8887 0.0
H632 H 0.83321 0.4187 0.95328 0.0
H633 H 0.81402 0.50994 0.95744 0.0
H634 H 0.79248 0.48862 0.95272 0.0
H635 H 0.81028 0.49786 0.93 0.0
C636 C 0.76435 0.42497 0.93982 0.0
C637 C 0.7597 0.43149 0.91751 0.0
C638 C 0.78444 0.43185 0.95041 0.0
C639 C 0.80013 0.4455 0.93895 0.0
C640 C 0.79568 0.45183 0.91665 0.0
H641 H 0.93113 0.50468 0.95505 0.0
H642 H 0.89365 0.49145 0.94372 0.0
C643 C 0.77569 0.44492 0.90604 0.0
C644 C 0.82148 0.45278 0.94998 0.0
H645 H 0.85227 0.49963 0.96428 0.0
C646 C 0.83733 0.43636 0.95598 0.0
C647 C 0.8267 0.47583 0.95349 0.0
C648 C 0.80991 0.4941 0.94828 0.0
C649 C 0.85874 0.44247 0.96445 0.0
C650 C 0.86421 0.46558 0.96733 0.0
C651 C 0.84806 0.48193 0.96197 0.0
C652 C 0.887 0.47329 0.97462 0.0
C653 C 0.87567 0.42422 0.96931 0.0
C654 C 0.89567 0.4676 0.99588 0.0
C655 C 0.91723 0.47512 0.00245 0.0
C656 C 0.93042 0.48857 0.98791 0.0
C657 C 0.92151 0.49434 0.96671 0.0
C658 C 0.90005 0.48682 0.96018 0.0
H659 H 0.87053 0.40782 0.96174 0.0
H660 H 0.89262 0.42905 0.96284 0.0
H661 H 0.87711 0.4218 0.98776 0.0
H662 H 0.88571 0.45751 0.00745 0.0
H663 H 0.9235 0.47045 0.01894 0.0
H664 H 0.74997 0.56163 0.39481 0.0
H665 H 0.71536 0.55047 0.41424 0.0
H666 H 0.71906 0.61105 0.45407 0.0
H667 H 0.75308 0.62296 0.43391 0.0
H668 H 0.70768 0.54194 0.45845 0.0
H669 H 0.65518 0.61377 0.42992 0.0
H670 H 0.68229 0.60774 0.41772 0.0
H671 H 0.68069 0.62194 0.44433 0.0
C672 C 0.74328 0.57279 0.40745 0.0
C673 C 0.75425 0.59334 0.41258 0.0
C674 C 0.72358 0.56627 0.4187 0.0
C675 C 0.71439 0.58009 0.43536 0.0
C676 C 0.72555 0.60034 0.44094 0.0
H677 H 0.59113 0.55856 0.51494 0.0
H678 H 0.62821 0.57245 0.50229 0.0
C679 C 0.7452 0.60697 0.42958 0.0
C680 C 0.69321 0.57309 0.44686 0.0
H681 H 0.6384 0.58827 0.45568 0.0
C682 C 0.69257 0.55212 0.45789 0.0
C683 C 0.67348 0.5864 0.44616 0.0
C684 C 0.67278 0.60862 0.43374 0.0
C685 C 0.67269 0.54399 0.46801 0.0
C686 C 0.65293 0.55712 0.46698 0.0
C687 C 0.65367 0.57833 0.4565 0.0
C688 C 0.63094 0.54839 0.47522 0.0
C689 C 0.67287 0.52133 0.47962 0.0
C690 C 0.62023 0.53042 0.46406 0.0
C691 C 0.59907 0.52258 0.47108 0.0
C692 C 0.58819 0.53252 0.48949 0.0
C693 C 0.59907 0.55046 0.50078 0.0
C694 C 0.62022 0.55844 0.49357 0.0
H695 H 0.69034 0.5158 0.48352 0.0
H696 H 0.66304 0.52183 0.49546 0.0
H697 H 0.66487 0.50855 0.46846 0.0
H698 H 0.62812 0.52264 0.44968 0.0
H699 H 0.59123 0.50873 0.462 0.0
H700 H 0.1044 0.26325 0.067 0.0
H701 H 0.08589 0.29817 0.05559 0.0
H702 H 0.08583 0.3205 0.12449 0.0
H703 H 0.10499 0.28592 0.13598 0.0
H704 H 0.04466 0.31746 0.06903 0.0
H705 H 0.11864 0.37187 0.09086 0.0
H706 H 0.12051 0.34159 0.08883 0.0
H707 H 0.10834 0.35425 0.11329 0.0
C708 C 0.10058 0.27564 0.07972 0.0
C709 C 0.10641 0.27188 0.10238 0.0
C710 C 0.08982 0.2955 0.0732 0.0
C711 C 0.08477 0.31205 0.08914 0.0
C712 C 0.08989 0.30808 0.11186 0.0
H713 H 0.00393 0.43259 0.06112 0.0
H714 H 0.01692 0.39642 0.07618 0.0
C715 C 0.10065 0.28821 0.11842 0.0
C716 C 0.07478 0.33371 0.08179 0.0
H717 H 0.08585 0.39023 0.07802 0.0
C718 C 0.05358 0.33341 0.07107 0.0
C719 C 0.0866 0.35443 0.08427 0.0
C720 C 0.10987 0.35567 0.09475 0.0
C721 C 0.04391 0.35331 0.06268 0.0
C722 C 0.05568 0.37404 0.06531 0.0
C723 C 0.0768 0.37433 0.07616 0.0
C724 C 0.04711 0.3955 0.05582 0.0
C725 C 0.02155 0.35189 0.05044 0.0
C726 C 0.05987 0.40708 0.03959 0.0
C727 C 0.05261 0.42773 0.03107 0.0
C728 C 0.0324 0.43737 0.03866 0.0
C729 C 0.0195 0.42562 0.05481 0.0
C730 C 0.02684 0.4049 0.06337 0.0
H731 H 0.01712 0.33429 0.04564 0.0
H732 H 0.00804 0.35824 0.06154 0.0
H733 H 0.02185 0.36251 0.03503 0.0
H734 H 0.07557 0.40014 0.03354 0.0
H735 H 0.063 0.43623 0.01864 0.0
H736 H 0.5985 0.24811 0.89659 0.0
H737 H 0.57936 0.21275 0.9067 0.0
H738 H 0.58171 0.2316 0.97663 0.0
H739 H 0.6002 0.26729 0.96661 0.0
H740 H 0.59644 0.17946 0.93389 0.0
H741 H 0.51609 0.21102 0.96868 0.0
H742 H 0.53471 0.22838 0.95178 0.0
H743 H 0.54067 0.22399 0.98114 0.0
C744 C 0.59454 0.24495 0.91408 0.0
C745 C 0.60085 0.26056 0.93079 0.0
C746 C 0.58371 0.22467 0.91983 0.0
C747 C 0.57883 0.21968 0.94237 0.0
C748 C 0.5849 0.2353 0.95908 0.0
H749 H 0.5629 0.09181 0.00785 0.0
H750 H 0.5748 0.12836 0.99294 0.0
C751 C 0.59574 0.25557 0.95335 0.0
C752 C 0.56882 0.1975 0.94861 0.0
H753 H 0.5251 0.17258 0.97702 0.0
C754 C 0.58072 0.17794 0.94312 0.0
C755 C 0.54817 0.19552 0.96039 0.0
C756 C 0.53403 0.21583 0.96566 0.0
C757 C 0.57297 0.15652 0.94982 0.0
C758 C 0.55296 0.15466 0.96265 0.0
C759 C 0.54057 0.1741 0.96739 0.0
C760 C 0.54519 0.13273 0.97199 0.0
C761 C 0.58631 0.13607 0.94318 0.0
C762 C 0.52424 0.12335 0.96565 0.0
C763 C 0.51727 0.10239 0.97423 0.0
C764 C 0.5311 0.09055 0.98943 0.0
C765 C 0.55186 0.10032 0.99607 0.0
C766 C 0.55878 0.1212 0.98749 0.0
H767 H 0.59726 0.13962 0.92843 0.0
H768 H 0.59737 0.13105 0.95741 0.0
H769 H 0.57493 0.12162 0.93911 0.0
H770 H 0.51344 0.1321 0.95382 0.0
H771 H 0.50115 0.09542 0.96882 0.0
H772 H 0.94378 0.74889 0.42548 0.0
H773 H 0.96324 0.78352 0.43757 0.0
H774 H 0.89912 0.8168 0.44338 0.0
H775 H 0.87957 0.78237 0.43128 0.0
H776 H 0.96329 0.82672 0.41888 0.0
H777 H 0.92805 0.82721 0.50505 0.0
H778 H 0.92632 0.80279 0.48705 0.0
H779 H 0.90679 0.82557 0.48348 0.0
C780 C 0.93384 0.76362 0.42921 0.0
C781 C 0.9101 0.76281 0.42761 0.0
C782 C 0.94498 0.78336 0.43619 0.0
C783 C 0.93259 0.80259 0.44176 0.0
C784 C 0.90896 0.80198 0.4397 0.0
H785 H 0.9755 0.94176 0.45364 0.0
H786 H 0.96135 0.90504 0.44105 0.0
C787 C 0.89782 0.78228 0.43279 0.0
C788 C 0.94432 0.8234 0.44954 0.0
H789 H 0.94683 0.86084 0.49297 0.0
C790 C 0.95983 0.83412 0.43514 0.0
C791 C 0.94005 0.83283 0.4709 0.0
C792 C 0.92457 0.82141 0.48762 0.0
C793 C 0.97068 0.85441 0.44126 0.0
C794 C 0.96557 0.86439 0.46219 0.0
C795 C 0.95057 0.8533 0.47684 0.0
C796 C 0.97529 0.88648 0.46916 0.0
C797 C 0.98762 0.86486 0.42536 0.0
C798 C 0.98754 0.88834 0.48934 0.0
C799 C 0.9955 0.90935 0.49671 0.0
C800 C 0.99127 0.92898 0.48408 0.0
C801 C 0.9792 0.92701 0.46373 0.0
C802 C 0.9712 0.90598 0.45641 0.0
H803 H 0.99443 0.85219 0.41353 0.0
H804 H 0.97921 0.87814 0.41526 0.0
H805 H 0.00194 0.87277 0.43467 0.0
H806 H 0.99079 0.87351 0.49949 0.0
H807 H 0.00472 0.91021 0.51246 0.0
H808 H 0.46295 0.74963 0.63521 0.0
H809 H 0.47551 0.71531 0.61656 0.0
H810 H 0.40837 0.70441 0.59002 0.0
H811 H 0.39551 0.7385 0.60892 0.0
H812 H 0.45791 0.67086 0.62287 0.0
H813 H 0.44941 0.69941 0.53423 0.0
H814 H 0.4501 0.7188 0.55758 0.0
H815 H 0.42474 0.70309 0.55127 0.0
C816 C 0.45079 0.73991 0.6255 0.0
C817 C 0.42819 0.74688 0.6236 0.0
C818 C 0.45805 0.72036 0.61474 0.0
C819 C 0.44295 0.70748 0.60168 0.0
C820 C 0.42042 0.71436 0.59965 0.0
H821 H 0.45212 0.58204 0.52777 0.0
H822 H 0.44051 0.6176 0.54462 0.0
C823 C 0.41311 0.73388 0.61045 0.0
C824 C 0.4506 0.68636 0.59094 0.0
H825 H 0.45766 0.6608 0.54011 0.0
C826 C 0.45798 0.66867 0.60477 0.0
C827 C 0.45055 0.68355 0.56734 0.0
C828 C 0.44346 0.70225 0.55167 0.0
C829 C 0.46494 0.64807 0.59567 0.0
C830 C 0.46502 0.64527 0.57205 0.0
C831 C 0.45764 0.66298 0.55821 0.0
C832 C 0.47245 0.62398 0.5614 0.0
C833 C 0.47155 0.62929 0.61149 0.0
C834 C 0.49443 0.61595 0.56486 0.0
C835 C 0.50112 0.59555 0.55534 0.0
C836 C 0.48602 0.58287 0.54195 0.0
C837 C 0.46419 0.5913 0.53803 0.0
C838 C 0.45751 0.61165 0.54763 0.0
H839 H 0.46477 0.63193 0.62866 0.0
H840 H 0.46539 0.61269 0.60523 0.0
H841 H 0.49025 0.62873 0.61279 0.0
H842 H 0.50643 0.62545 0.57498 0.0
H843 H 0.5181 0.5897 0.55858 0.0
H844 H 0.91538 0.95476 0.77347 0.0
H845 H 0.92453 0.97012 0.73626 0.0
H846 H 0.95571 0.90733 0.71841 0.0
H847 H 0.946 0.89162 0.7551 0.0
H848 H 0.9668 0.97559 0.71573 0.0
H849 H 0.91172 0.91774 0.66645 0.0
H850 H 0.90901 0.92103 0.69647 0.0
H851 H 0.93057 0.90325 0.68512 0.0
C852 C 0.92396 0.94414 0.76153 0.0
C853 C 0.92989 0.92192 0.76727 0.0
C854 C 0.92929 0.95299 0.74034 0.0
C855 C 0.94047 0.93974 0.72446 0.0
C856 C 0.9467 0.91771 0.73025 0.0
H857 H 0.9982 0.95152 0.5932 0.0
H858 H 0.98487 0.94063 0.63049 0.0
C859 C 0.94138 0.90886 0.75137 0.0
C860 C 0.94606 0.94893 0.70192 0.0
H861 H 0.93939 0.93874 0.64581 0.0
C862 C 0.96061 0.96773 0.70042 0.0
C863 C 0.93789 0.93867 0.682 0.0
C864 C 0.92125 0.91919 0.68252 0.0
C865 C 0.96798 0.97597 0.67949 0.0
C866 C 0.96032 0.96526 0.6596 0.0
C867 C 0.94532 0.94683 0.66111 0.0
C868 C 0.96837 0.97229 0.63707 0.0
C869 C 0.98452 0.9955 0.67882 0.0
C870 C 0.96332 0.99365 0.6283 0.0
C871 C 0.97091 0.99997 0.60692 0.0
C872 C 0.98364 0.98499 0.59389 0.0
C873 C 0.98849 0.96353 0.60273 0.0
C874 C 0.98087 0.95724 0.62406 0.0
H875 H 0.99223 0.99886 0.69557 0.0
H876 H 0.99824 0.99225 0.66661 0.0
H877 H 0.97558 0.01093 0.67331 0.0
H878 H 0.95337 0.00537 0.63794 0.0
H879 H 0.96679 0.01659 0.60062 0.0
H880 H 0.57897 0.13238 0.25581 0.0
H881 H 0.56789 0.11517 0.22012 0.0
H882 H 0.583 0.04935 0.24688 0.0
H883 H 0.59406 0.06646 0.2828 0.0
H884 H 0.60033 0.05651 0.20401 0.0
H885 H 0.50986 0.07941 0.20731 0.0
H886 H 0.52862 0.10314 0.21091 0.0
H887 H 0.52824 0.08093 0.23158 0.0
C888 C 0.57967 0.11421 0.25423 0.0
C889 C 0.5872 0.10078 0.27225 0.0
C890 C 0.57333 0.1044 0.23381 0.0
C891 C 0.57424 0.08095 0.23098 0.0
C892 C 0.58207 0.06748 0.24876 0.0
H893 H 0.51056 0.01289 0.11691 0.0
H894 H 0.52216 0.02437 0.15469 0.0
C895 C 0.58846 0.07729 0.26923 0.0
C896 C 0.56741 0.07063 0.20927 0.0
H897 H 0.52355 0.06669 0.17195 0.0
C898 C 0.5835 0.05856 0.19705 0.0
C899 C 0.54534 0.07303 0.20039 0.0
C900 C 0.52694 0.08463 0.21331 0.0
C901 C 0.57831 0.04945 0.17585 0.0
C902 C 0.55657 0.05286 0.16648 0.0
C903 C 0.54029 0.0643 0.17903 0.0
C904 C 0.55039 0.04499 0.14357 0.0
C905 C 0.59609 0.03613 0.16378 0.0
C906 C 0.56235 0.05282 0.12473 0.0
C907 C 0.55583 0.04623 0.10308 0.0
C908 C 0.53703 0.03183 0.09981 0.0
C909 C 0.52512 0.02398 0.11876 0.0
C910 C 0.53171 0.03052 0.1404 0.0
H911 H 0.60894 0.02944 0.17567 0.0
H912 H 0.58842 0.0218 0.15438 0.0
H913 H 0.60494 0.04731 0.15161 0.0
H914 H 0.57649 0.06442 0.12672 0.0
H915 H 0.56531 0.05273 0.08889 0.0
H916 H 0.44643 0.63008 0.27595 0.0
H917 H 0.45629 0.61199 0.31155 0.0
H918 H 0.44158 0.54674 0.28283 0.0
H919 H 0.43178 0.56473 0.247 0.0
H920 H 0.4226 0.55274 0.32524 0.0
H921 H 0.51351 0.57636 0.32552 0.0
H922 H 0.49517 0.59999 0.32167 0.0
H923 H 0.49603 0.57828 0.30065 0.0
C924 C 0.44559 0.61185 0.27708 0.0
C925 C 0.4385 0.59883 0.25856 0.0
C926 C 0.45122 0.60155 0.29745 0.0
C927 C 0.45002 0.57801 0.29971 0.0
C928 C 0.44271 0.56494 0.28139 0.0
H929 H 0.50864 0.50715 0.41412 0.0
H930 H 0.49832 0.51949 0.37627 0.0
C931 C 0.43704 0.57524 0.26097 0.0
C932 C 0.45592 0.56717 0.3214 0.0
H933 H 0.49842 0.56249 0.36007 0.0
C934 C 0.43922 0.5547 0.3328 0.0
C935 C 0.47771 0.56948 0.33105 0.0
C936 C 0.49672 0.58156 0.31901 0.0
C937 C 0.44353 0.54506 0.35397 0.0
C938 C 0.46499 0.54833 0.36411 0.0
C939 C 0.48189 0.5602 0.35238 0.0
C940 C 0.47027 0.53986 0.387 0.0
C941 C 0.42511 0.53135 0.36518 0.0
C942 C 0.45795 0.54725 0.40563 0.0
C943 C 0.46374 0.54017 0.42732 0.0
C944 C 0.48215 0.52573 0.43083 0.0
C945 C 0.49437 0.51827 0.41208 0.0
C946 C 0.48851 0.5253 0.3904 0.0
H947 H 0.41248 0.525 0.35278 0.0
H948 H 0.43222 0.51675 0.37445 0.0
H949 H 0.41614 0.54214 0.37737 0.0
H950 H 0.44413 0.5589 0.40345 0.0
H951 H 0.45404 0.54636 0.44136 0.0
H952 H 0.13606 0.43461 0.77925 0.0
H953 H 0.1196 0.44742 0.81451 0.0
H954 H 0.05638 0.45976 0.78049 0.0
H955 H 0.07273 0.44677 0.74511 0.0
H956 H 0.10228 0.48875 0.82463 0.0
H957 H 0.03619 0.42214 0.83407 0.0
H958 H 0.05899 0.41992 0.81419 0.0
H959 H 0.03506 0.4373 0.80793 0.0
C960 C 0.11866 0.44009 0.77925 0.0
C961 C 0.10569 0.43967 0.75939 0.0
C962 C 0.10926 0.44733 0.79943 0.0
C963 C 0.08668 0.45428 0.80021 0.0
C964 C 0.07368 0.45399 0.7804 0.0
H965 H 0.00787 0.50691 0.91213 0.0
H966 H 0.02098 0.4963 0.87467 0.0
C967 C 0.08305 0.44661 0.76019 0.0
C968 C 0.07712 0.46238 0.8217 0.0
H969 H 0.03604 0.45178 0.86065 0.0
C970 C 0.0878 0.48066 0.8325 0.0
C971 C 0.05816 0.45185 0.83191 0.0
C972 C 0.04652 0.43159 0.82157 0.0
C973 C 0.08011 0.48865 0.85325 0.0
C974 C 0.06139 0.47793 0.86357 0.0
C975 C 0.05039 0.45995 0.85262 0.0
C976 C 0.05354 0.48459 0.88617 0.0
C977 C 0.09201 0.50856 0.86395 0.0
C978 C 0.06745 0.4813 0.90502 0.0
C979 C 0.06002 0.48723 0.92644 0.0
C980 C 0.03849 0.49661 0.92942 0.0
C981 C 0.02457 0.49984 0.91045 0.0
C982 C 0.032 0.49375 0.88903 0.0
H983 H 0.10238 0.51816 0.8516 0.0
H984 H 0.07965 0.52015 0.87164 0.0
H985 H 0.10342 0.50244 0.87746 0.0
H986 H 0.08401 0.47393 0.90318 0.0
H987 H 0.07117 0.48445 0.94064 0.0
H988 H 0.77424 0.97221 0.93739 0.0
H989 H 0.7385 0.9822 0.9552 0.0
H990 H 0.71104 0.91651 0.939 0.0
H991 H 0.74671 0.90637 0.92134 0.0
H992 H 0.69692 0.98464 0.93581 0.0
H993 H 0.69489 0.92162 0.00476 0.0
H994 H 0.7201 0.92763 0.98875 0.0
H995 H 0.69851 0.90913 0.97761 0.0
C996 C 0.7606 0.95987 0.93771 0.0
C997 C 0.76333 0.93846 0.92804 0.0
C998 C 0.74023 0.96557 0.94795 0.0
C999 C 0.72221 0.94998 0.94877 0.0
C1000 C 0.7249 0.9286 0.93913 0.0
H1001 H 0.58077 0.95398 0.98355 0.0
H1002 H 0.61869 0.94408 0.97096 0.0
C1003 C 0.74529 0.92284 0.929 0.0
C1004 C 0.7002 0.95651 0.95854 0.0
H1005 H 0.66043 0.94096 0.99725 0.0
C1006 C 0.68905 0.97523 0.9494 0.0
C1007 C 0.68993 0.94419 0.97626 0.0
C1008 C 0.70157 0.92466 0.98758 0.0
C1009 C 0.66766 0.98161 0.95708 0.0
C1010 C 0.65726 0.96906 0.97451 0.0
C1011 C 0.66846 0.95048 0.98382 0.0
C1012 C 0.63456 0.97479 0.98301 0.0
C1013 C 0.65607 1.00135 0.94609 0.0
C1014 C 0.63105 0.99517 0.9943 0.0
C1015 C 0.60942 1.00089 0.00157 0.0
C1016 C 0.59088 0.98631 0.99767 0.0
C1017 C 0.59461 0.96566 0.98675 0.0
C1018 C 0.61627 0.95993 0.97958 0.0
H1019 H 0.66422 0.0063 0.93 0.0
H1020 H 0.63798 0.99734 0.94279 0.0
H1021 H 0.65686 0.01606 0.95757 0.0
H1022 H 0.64503 0.00672 0.99738 0.0
H1023 H 0.60722 0.01688 0.00999 0.0
H1024 H 0.75326 0.09798 0.45684 0.0
H1025 H 0.79037 0.08943 0.47301 0.0
H1026 H 0.81109 0.06106 0.40983 0.0
H1027 H 0.77448 0.07024 0.39333 0.0
H1028 H 0.81198 0.04799 0.47761 0.0
H1029 H 0.86182 0.10615 0.42357 0.0
H1030 H 0.83147 0.10771 0.42588 0.0
H1031 H 0.84409 0.08708 0.40788 0.0
C1032 C 0.7658 0.09014 0.44631 0.0
C1033 C 0.76089 0.08489 0.42374 0.0
C1034 C 0.78694 0.08514 0.45563 0.0
C1035 C 0.80361 0.07496 0.44252 0.0
C1036 C 0.79863 0.06933 0.42013 0.0
H1037 H 0.93699 0.02202 0.45726 0.0
H1038 H 0.89947 0.0341 0.44547 0.0
C1039 C 0.77756 0.07433 0.41081 0.0
C1040 C 0.82613 0.06984 0.45222 0.0
H1041 H 0.88266 0.07884 0.44441 0.0
C1042 C 0.82744 0.05491 0.47054 0.0
C1043 C 0.84626 0.07898 0.44301 0.0
C1044 C 0.8459 0.09604 0.42415 0.0
C1045 C 0.84842 0.04816 0.4793 0.0
C1046 C 0.86854 0.05682 0.46965 0.0
C1047 C 0.86719 0.07215 0.4517 0.0
C1048 C 0.8912 0.04948 0.47726 0.0
C1049 C 0.84892 0.03121 0.49826 0.0
C1050 C 0.89909 0.05432 0.49902 0.0
C1051 C 0.92063 0.04744 0.50587 0.0
C1052 C 0.93467 0.03565 0.49102 0.0
C1053 C 0.92668 0.03101 0.46918 0.0
C1054 C 0.90521 0.03792 0.46237 0.0
H1055 H 0.83223 0.02282 0.50074 0.0
H1056 H 0.86175 0.0181 0.49506 0.0
H1057 H 0.85363 0.03995 0.5141 0.0
H1058 H 0.88867 0.06356 0.51065 0.0
H1059 H 0.92624 0.05138 0.52277 0.0
H1060 H 0.25726 0.55865 0.12934 0.0
H1061 H 0.2211 0.54939 0.11158 0.0
H1062 H 0.23284 0.60095 0.06155 0.0
H1063 H 0.26965 0.60946 0.07841 0.0
H1064 H 0.18501 0.57559 0.10654 0.0
H1065 H 0.2143 0.54847 0.0226 0.0
H1066 H 0.23336 0.55232 0.04607 0.0
H1067 H 0.22398 0.57625 0.03002 0.0
C1068 C 0.25245 0.56769 0.11425 0.0
C1069 C 0.2665 0.58474 0.10527 0.0
C1070 C 0.23164 0.56251 0.10424 0.0
C1071 C 0.22437 0.57426 0.08506 0.0
C1072 C 0.23829 0.59131 0.07605 0.0
H1073 H 0.08292 0.57691 0.04243 0.0
H1074 H 0.12073 0.58703 0.05611 0.0
C1075 C 0.25921 0.59638 0.08593 0.0
C1076 C 0.20179 0.56929 0.07517 0.0
H1077 H 0.17473 0.5538 0.02669 0.0
C1078 C 0.18277 0.57076 0.0891 0.0
C1079 C 0.1989 0.56277 0.05246 0.0
C1080 C 0.21873 0.55963 0.03697 0.0
C1081 C 0.16095 0.56595 0.08096 0.0
C1082 C 0.15799 0.56012 0.05808 0.0
C1083 C 0.17701 0.55855 0.04416 0.0
C1084 C 0.13539 0.55466 0.04851 0.0
C1085 C 0.1414 0.56654 0.09715 0.0
C1086 C 0.1313 0.53346 0.0388 0.0
C1087 C 0.10982 0.52774 0.03066 0.0
C1088 C 0.09194 0.5431 0.03211 0.0
C1089 C 0.09624 0.56458 0.04127 0.0
C1090 C 0.11781 0.57036 0.04923 0.0
H1091 H 0.14718 0.56518 0.1149 0.0
H1092 H 0.1325 0.58281 0.09524 0.0
H1093 H 0.12913 0.55266 0.09374 0.0
H1094 H 0.14464 0.52112 0.03796 0.0
H1095 H 0.10714 0.51106 0.02369 0.0
H1096 H 0.24007 0.42487 0.5551 0.0
H1097 H 0.27665 0.43981 0.54218 0.0
H1098 H 0.30836 0.41578 0.60291 0.0
H1099 H 0.27198 0.40067 0.61592 0.0
H1100 H 0.31114 0.47086 0.57523 0.0
H1101 H 0.34004 0.38945 0.53933 0.0
H1102 H 0.31048 0.39675 0.54001 0.0
H1103 H 0.32481 0.38936 0.56553 0.0
C1104 C 0.25484 0.42274 0.56568 0.0
C1105 C 0.25315 0.41159 0.58653 0.0
C1106 C 0.27564 0.43137 0.55833 0.0
C1107 C 0.29507 0.42881 0.57162 0.0
C1108 C 0.29346 0.4179 0.59249 0.0
H1109 H 0.43811 0.44918 0.55341 0.0
H1110 H 0.40016 0.4368 0.56409 0.0
C1111 C 0.27268 0.4094 0.59991 0.0
C1112 C 0.31721 0.43719 0.5636 0.0
H1113 H 0.36582 0.41997 0.53868 0.0
C1114 C 0.32311 0.45986 0.56711 0.0
C1115 C 0.33268 0.42264 0.55322 0.0
C1116 C 0.32684 0.39816 0.54915 0.0
C1117 C 0.34444 0.46833 0.56081 0.0
C1118 C 0.35999 0.45379 0.5503 0.0
C1119 C 0.35389 0.43112 0.54667 0.0
C1120 C 0.38294 0.4615 0.54357 0.0
C1121 C 0.35037 0.49256 0.56616 0.0
C1122 C 0.38589 0.47932 0.52823 0.0
C1123 C 0.40762 0.48658 0.5222 0.0
C1124 C 0.42681 0.47593 0.53117 0.0
C1125 C 0.42374 0.45778 0.54617 0.0
C1126 C 0.40204 0.45066 0.55231 0.0
H1127 H 0.33923 0.49948 0.57938 0.0
H1128 H 0.3682 0.49423 0.57187 0.0
H1129 H 0.34821 0.50299 0.5508 0.0
H1130 H 0.3714 0.48757 0.52084 0.0
H1131 H 0.40935 0.50048 0.51045 0.0
H1132 H 0.90818 0.7534 0.90504 0.0
H1133 H 0.92525 0.71727 0.91493 0.0
H1134 H 0.94745 0.74484 0.9784 0.0
H1135 H 0.93025 0.78097 0.96871 0.0
H1136 H 0.96909 0.70598 0.92523 0.0
H1137 H 0.91291 0.68863 0.99786 0.0
H1138 H 0.90732 0.71069 0.9777 0.0
H1139 H 0.92789 0.71505 0.99966 0.0
C1140 C 0.91685 0.75182 0.92104 0.0
C1141 C 0.91774 0.77 0.93617 0.0
C1142 C 0.92652 0.73115 0.92669 0.0
C1143 C 0.93726 0.72823 0.94757 0.0
C1144 C 0.93874 0.74653 0.96244 0.0
H1145 H 0.00229 0.61452 0.01246 0.0
H1146 H 0.98929 0.65198 0.00151 0.0
C1147 C 0.92895 0.76717 0.95687 0.0
C1148 C 0.94681 0.70601 0.95375 0.0
H1149 H 0.94337 0.66359 0.99262 0.0
C1150 C 0.96343 0.69668 0.93993 0.0
C1151 C 0.93936 0.69387 0.97292 0.0
C1152 C 0.92074 0.70243 0.98779 0.0
C1153 C 0.97302 0.67567 0.94492 0.0
C1154 C 0.96561 0.66361 0.9641 0.0
C1155 C 0.94907 0.67296 0.97797 0.0
C1156 C 0.97453 0.64109 0.96999 0.0
C1157 C 0.99125 0.66668 0.92985 0.0
C1158 C 0.9705 0.62254 0.95588 0.0
C1159 C 0.97784 0.60105 0.9621 0.0
C1160 C 0.98934 0.59771 0.9826 0.0
C1161 C 0.99356 0.61644 0.99655 0.0
C1162 C 0.98612 0.63788 0.99034 0.0
H1163 H 0.99871 0.68013 0.91906 0.0
H1164 H 0.00495 0.65885 0.93992 0.0
H1165 H 0.98386 0.65352 0.91872 0.0
H1166 H 0.96124 0.6246 0.94027 0.0
H1167 H 0.97424 0.58703 0.95098 0.0
H1168 H 0.4521 0.745 0.09681 0.0
H1169 H 0.46916 0.78163 0.08732 0.0
H1170 H 0.4028 0.80952 0.07768 0.0
H1171 H 0.38564 0.77308 0.08721 0.0
H1172 H 0.43242 0.81981 0.04301 0.0
H1173 H 0.47104 0.83861 0.12627 0.0
H1174 H 0.47871 0.81193 0.11445 0.0
H1175 H 0.4499 0.81677 0.12235 0.0
C1176 C 0.44115 0.759 0.09289 0.0
C1177 C 0.41751 0.75613 0.09275 0.0
C1178 C 0.45092 0.77991 0.0875 0.0
C1179 C 0.43723 0.79834 0.08207 0.0
C1180 C 0.41366 0.7955 0.08184 0.0
H1181 H 0.46842 0.94063 0.07428 0.0
H1182 H 0.45552 0.90269 0.08456 0.0
C1183 C 0.40389 0.77464 0.08717 0.0
C1184 C 0.44733 0.82052 0.07607 0.0
H1185 H 0.47946 0.86407 0.09664 0.0
C1186 C 0.44275 0.82949 0.0547 0.0
C1187 C 0.46059 0.83317 0.09148 0.0
C1188 C 0.46524 0.82478 0.115 0.0
C1189 C 0.45105 0.85079 0.04828 0.0
C1190 C 0.46464 0.86328 0.06353 0.0
C1191 C 0.46921 0.85434 0.08492 0.0
C1192 C 0.47351 0.88605 0.05785 0.0
C1193 C 0.44469 0.86 0.02545 0.0
C1194 C 0.48829 0.8892 0.03971 0.0
C1195 C 0.49563 0.91088 0.03371 0.0
C1196 C 0.48847 0.92981 0.04587 0.0
C1197 C 0.47422 0.92647 0.0645 0.0
C1198 C 0.46685 0.90479 0.07043 0.0
H1199 H 0.42992 0.85087 0.01812 0.0
H1200 H 0.44065 0.87821 0.02644 0.0
H1201 H 0.45915 0.85806 0.01384 0.0
H1202 H 0.494 0.8749 0.03007 0.0
H1203 H 0.50674 0.91278 0.0194 0.0
H1204 H 0.05732 0.25337 0.6398 0.0
H1205 H 0.04686 0.21671 0.62386 0.0
H1206 H 0.09115 0.22908 0.56778 0.0
H1207 H 0.10119 0.26615 0.58309 0.0
H1208 H 0.03017 0.20819 0.57382 0.0
H1209 H 0.10951 0.16632 0.60143 0.0
H1210 H 0.09857 0.19072 0.6157 0.0
H1211 H 0.1115 0.19389 0.58869 0.0
C1212 C 0.06458 0.24853 0.62388 0.0
C1213 C 0.08016 0.26278 0.61277 0.0
C1214 C 0.05868 0.22751 0.61489 0.0
C1215 C 0.06837 0.22023 0.59478 0.0
C1216 C 0.08366 0.2344 0.58345 0.0
H1217 H 0.06535 0.09127 0.52596 0.0
H1218 H 0.07428 0.12935 0.53917 0.0
C1219 C 0.08946 0.25551 0.59231 0.0
C1220 C 0.06274 0.19764 0.5858 0.0
H1221 H 0.08333 0.14438 0.58086 0.0
C1222 C 0.04173 0.19418 0.57532 0.0
C1223 C 0.07799 0.17958 0.58771 0.0
C1224 C 0.10067 0.18259 0.59906 0.0
C1225 C 0.0356 0.17304 0.56645 0.0
C1226 C 0.05067 0.15476 0.56875 0.0
C1227 C 0.07177 0.15836 0.57915 0.0
C1228 C 0.04492 0.13176 0.56056 0.0
C1229 C 0.01327 0.17066 0.55427 0.0
C1230 C 0.0256 0.12031 0.5684 0.0
C1231 C 0.02034 0.0986 0.56075 0.0
C1232 C 0.03451 0.08773 0.54534 0.0
C1233 C 0.05407 0.09911 0.53782 0.0
C1234 C 0.0592 0.12089 0.54535 0.0
H1235 H 0.00713 0.18721 0.5481 0.0
H1236 H 0.01459 0.15904 0.53975 0.0
H1237 H 1.00043 0.16371 0.56601 0.0
H1238 H 0.01467 0.12808 0.58062 0.0
H1239 H 0.00526 0.09026 0.56706 0.0
H1240 H 0.57139 0.23978 0.43688 0.0
H1241 H 0.55321 0.27541 0.44634 0.0
H1242 H 0.61866 0.307 0.45508 0.0
H1243 H 0.63693 0.27155 0.44562 0.0
H1244 H 0.58926 0.31609 0.4898 0.0
H1245 H 0.5487 0.33188 0.40692 0.0
H1246 H 0.542 0.30495 0.41926 0.0
H1247 H 0.57053 0.31119 0.41084 0.0
C1248 C 0.58191 0.25438 0.4406 0.0
C1249 C 0.60562 0.25282 0.44048 0.0
C1250 C 0.57149 0.27472 0.44598 0.0
C1251 C 0.58458 0.29393 0.45114 0.0
C1252 C 0.60823 0.29238 0.45115 0.0
H1253 H 0.54879 0.43442 0.45671 0.0
H1254 H 0.56252 0.397 0.44698 0.0
C1255 C 0.61865 0.27207 0.44584 0.0
C1256 C 0.57379 0.31559 0.45698 0.0
H1257 H 0.53983 0.35708 0.43631 0.0
C1258 C 0.57841 0.32504 0.47813 0.0
C1259 C 0.55983 0.32733 0.44163 0.0
C1260 C 0.55508 0.31848 0.41831 0.0
C1261 C 0.5695 0.34594 0.48436 0.0
C1262 C 0.55523 0.35752 0.46916 0.0
C1263 C 0.5506 0.34807 0.448 0.0
C1264 C 0.54579 0.37992 0.47456 0.0
C1265 C 0.57597 0.35574 0.5069 0.0
C1266 C 0.53141 0.38267 0.49302 0.0
C1267 C 0.52358 0.40407 0.49871 0.0
C1268 C 0.52985 0.42314 0.48592 0.0
C1269 C 0.54366 0.42016 0.46699 0.0
C1270 C 0.55152 0.39877 0.46137 0.0
H1271 H 0.59117 0.34752 0.5141 0.0
H1272 H 0.57938 0.37415 0.50554 0.0
H1273 H 0.56182 0.35313 0.51883 0.0
H1274 H 0.52639 0.36827 0.50316 0.0
H1275 H 0.51283 0.40568 0.51329 0.0
loop_
_geom_bond_atom_site_label_1
_geom_bond_atom_site_label_2
_geom_bond_distance
_geom_bond_site_symmetry_2
_ccdc_geom_bond_type
C0 C1 1.264 . S
C0 C5 1.479 . S
C0 C10 1.465 . S
C1 C0 1.264 . S
C1 C3 1.339 . S
C1 H28 0.931 . S
C2 C3 1.395 . S
C2 C4 1.320 . S
C3 C1 1.339 . S
C3 C2 1.395 . S
C3 H29 0.929 . S
C4 C2 1.320 . S
C4 C5 1.405 . S
C4 H30 0.930 . S
C5 C0 1.479 . S
C5 C4 1.405 . S
C5 H31 0.931 . S
U6 O7 2.454 . S
U6 O8 2.458 . S
U6 C9 2.984 . S
U6 C10 2.847 . S
U6 C23 2.882 . S
U6 O24 2.441 . S
U6 O25 2.420 . S
U6 O26 2.455 . S
U6 O27 2.449 . S
O7 U6 2.454 . S
O7 C9 1.353 . S
O8 U6 2.458 . S
O8 C9 1.286 . S
C9 U6 2.984 . S
C9 O7 1.353 . S
C9 O8 1.286 . S
C9 C11 1.363 . S
C10 C0 1.465 . S
C10 U6 2.847 . S
C10 O24 1.249 . S
C10 O25 1.202 . S
C11 C9 1.363 . S
C11 C13 1.408 . S
C11 C16 1.342 . S
C12 C13 1.310 . S
C12 C15 1.461 . S
C12 H32 0.932 . S
C13 C11 1.408 . S
C13 C12 1.310 . S
C13 H33 0.930 . S
C14 C15 1.474 . S
C14 C16 1.285 . S
C14 H34 0.929 . S
C15 C12 1.461 . S
C15 C14 1.474 . S
C16 C11 1.342 . S
C16 C14 1.285 . S
C16 H35 0.930 . S
C17 C20 1.424 . S
C17 C22 1.245 . S
C17 C23 1.428 . S
C18 C21 1.260 . S
C18 C22 1.477 . S
C18 H36 0.932 . S
C19 C20 1.384 . S
C19 C21 1.479 . S
C19 H37 0.929 . S
C20 C17 1.424 . S
C20 C19 1.384 . S
C20 H38 0.928 . S
C21 C18 1.260 . S
C21 C19 1.479 . S
C22 C17 1.245 . S
C22 C18 1.477 . S
C22 H39 0.932 . S
C23 U6 2.882 . S
C23 C17 1.428 . S
C23 O26 1.301 . S
C23 O27 1.282 . S
O24 U6 2.441 . S
O24 C10 1.249 . S
O25 U6 2.420 . S
O25 C10 1.202 . S
O26 U6 2.455 . S
O26 C23 1.301 . S
O27 U6 2.449 . S
O27 C23 1.282 . S
H28 C1 0.931 . S
H29 C3 0.929 . S
H30 C4 0.930 . S
H31 C5 0.931 . S
H32 C12 0.932 . S
H33 C13 0.930 . S
H34 C14 0.929 . S
H35 C16 0.930 . S
H36 C18 0.932 . S
H37 C19 0.929 . S
H38 C20 0.928 . S
H39 C22 0.932 . S
C40 C41 1.264 . S
C40 C45 1.479 . S
C40 C50 1.465 . S
C41 C40 1.264 . S
C41 C43 1.339 . S
C41 H68 0.931 . S
C42 C43 1.395 . S
C42 C44 1.320 . S
C43 C41 1.339 . S
C43 C42 1.395 . S
C43 H69 0.929 . S
C44 C42 1.320 . S
C44 C45 1.405 . S
C44 H70 0.930 . S
C45 C40 1.479 . S
C45 C44 1.405 . S
C45 H71 0.931 . S
U46 O47 2.454 . S
U46 O48 2.458 . S
U46 C49 2.984 . S
U46 C50 2.847 . S
U46 C63 2.882 . S
U46 O64 2.441 . S
U46 O65 2.420 . S
U46 O66 2.455 . S
U46 O67 2.449 . S
O47 U46 2.454 . S
O47 C49 1.353 . S
O48 U46 2.458 . S
O48 C49 1.286 . S
C49 U46 2.984 . S
C49 O47 1.353 . S
C49 O48 1.286 . S
C49 C51 1.363 . S
C50 C40 1.465 . S
C50 U46 2.847 . S
C50 O64 1.249 . S
C50 O65 1.202 . S
C51 C49 1.363 . S
C51 C53 1.408 . S
C51 C56 1.342 . S
C52 C53 1.310 . S
C52 C55 1.461 . S
C52 H72 0.932 . S
C53 C51 1.408 . S
C53 C52 1.310 . S
C53 H73 0.930 . S
C54 C55 1.474 . S
C54 C56 1.285 . S
C54 H74 0.929 . S
C55 C52 1.461 . S
C55 C54 1.474 . S
C56 C51 1.342 . S
C56 C54 1.285 . S
C56 H75 0.930 . S
C57 C60 1.424 . S
C57 C62 1.245 . S
C57 C63 1.428 . S
C58 C61 1.260 . S
C58 C62 1.477 . S
C58 H76 0.932 . S
C59 C60 1.384 . S
C59 C61 1.479 . S
C59 H77 0.929 . S
C60 C57 1.424 . S
C60 C59 1.384 . S
C60 H78 0.928 . S
C61 C58 1.260 . S
C61 C59 1.479 . S
C62 C57 1.245 . S
C62 C58 1.477 . S
C62 H79 0.932 . S
C63 U46 2.882 . S
C63 C57 1.428 . S
C63 O66 1.301 . S
C63 O67 1.282 . S
O64 U46 2.441 . S
O64 C50 1.249 . S
O65 U46 2.420 . S
O65 C50 1.202 . S
O66 U46 2.455 . S
O66 C63 1.301 . S
O67 U46 2.449 . S
O67 C63 1.282 . S
H68 C41 0.931 . S
H69 C43 0.929 . S
H70 C44 0.930 . S
H71 C45 0.931 . S
H72 C52 0.932 . S
H73 C53 0.930 . S
H74 C54 0.929 . S
H75 C56 0.930 . S
H76 C58 0.932 . S
H77 C59 0.929 . S
H78 C60 0.928 . S
H79 C62 0.932 . S
C80 C81 1.264 . S
C80 C85 1.479 . S
C80 C90 1.465 . S
C81 C80 1.264 . S
C81 C83 1.339 . S
C81 H108 0.931 . S
C82 C83 1.395 . S
C82 C84 1.320 . S
C83 C81 1.339 . S
C83 C82 1.395 . S
C83 H109 0.929 . S
C84 C82 1.320 . S
C84 C85 1.405 . S
C84 H110 0.930 . S
C85 C80 1.479 . S
C85 C84 1.405 . S
C85 H111 0.931 . S
U86 O87 2.454 . S
U86 O88 2.458 . S
U86 C89 2.984 . S
U86 C90 2.847 . S
U86 C103 2.882 . S
U86 O104 2.441 . S
U86 O105 2.420 . S
U86 O106 2.455 . S
U86 O107 2.449 . S
O87 U86 2.454 . S
O87 C89 1.353 . S
O88 U86 2.458 . S
O88 C89 1.286 . S
C89 U86 2.984 . S
C89 O87 1.353 . S
C89 O88 1.286 . S
C89 C91 1.363 . S
C90 C80 1.465 . S
C90 U86 2.847 . S
C90 O104 1.249 . S
C90 O105 1.202 . S
C91 C89 1.363 . S
C91 C93 1.408 . S
C91 C96 1.342 . S
C92 C93 1.310 . S
C92 C95 1.461 . S
C92 H112 0.932 . S
C93 C91 1.408 . S
C93 C92 1.310 . S
C93 H113 0.930 . S
C94 C95 1.474 . S
C94 C96 1.285 . S
C94 H114 0.929 . S
C95 C92 1.461 . S
C95 C94 1.474 . S
C96 C91 1.342 . S
C96 C94 1.285 . S
C96 H115 0.930 . S
C97 C100 1.424 . S
C97 C102 1.245 . S
C97 C103 1.428 . S
C98 C101 1.260 . S
C98 C102 1.477 . S
C98 H116 0.932 . S
C99 C100 1.384 . S
C99 C101 1.479 . S
C99 H117 0.929 . S
C100 C97 1.424 . S
C100 C99 1.384 . S
C100 H118 0.928 . S
C101 C98 1.260 . S
C101 C99 1.479 . S
C102 C97 1.245 . S
C102 C98 1.477 . S
C102 H119 0.932 . S
C103 U86 2.882 . S
C103 C97 1.428 . S
C103 O106 1.301 . S
C103 O107 1.282 . S
O104 U86 2.441 . S
O104 C90 1.249 . S
O105 U86 2.420 . S
O105 C90 1.202 . S
O106 U86 2.455 . S
O106 C103 1.301 . S
O107 U86 2.449 . S
O107 C103 1.282 . S
H108 C81 0.931 . S
H109 C83 0.929 . S
H110 C84 0.930 . S
H111 C85 0.931 . S
H112 C92 0.932 . S
H113 C93 0.930 . S
H114 C94 0.929 . S
H115 C96 0.930 . S
H116 C98 0.932 . S
H117 C99 0.929 . S
H118 C100 0.928 . S
H119 C102 0.932 . S
C120 C121 1.264 . S
C120 C125 1.479 . S
C120 C130 1.465 . S
C121 C120 1.264 . S
C121 C123 1.339 . S
C121 H148 0.931 . S
C122 C123 1.395 . S
C122 C124 1.320 . S
C123 C121 1.339 . S
C123 C122 1.395 . S
C123 H149 0.929 . S
C124 C122 1.320 . S
C124 C125 1.405 . S
C124 H150 0.930 . S
C125 C120 1.479 . S
C125 C124 1.405 . S
C125 H151 0.931 . S
U126 O127 2.454 . S
U126 O128 2.458 . S
U126 C129 2.984 . S
U126 C130 2.847 . S
U126 C143 2.882 . S
U126 O144 2.441 . S
U126 O145 2.420 . S
U126 O146 2.455 . S
U126 O147 2.449 . S
O127 U126 2.454 . S
O127 C129 1.353 . S
O128 U126 2.458 . S
O128 C129 1.286 . S
C129 U126 2.984 . S
C129 O127 1.353 . S
C129 O128 1.286 . S
C129 C131 1.363 . S
C130 C120 1.465 . S
C130 U126 2.847 . S
C130 O144 1.249 . S
C130 O145 1.202 . S
C131 C129 1.363 . S
C131 C133 1.408 . S
C131 C136 1.342 . S
C132 C133 1.310 . S
C132 C135 1.461 . S
C132 H152 0.932 . S
C133 C131 1.408 . S
C133 C132 1.310 . S
C133 H153 0.930 . S
C134 C135 1.474 . S
C134 C136 1.285 . S
C134 H154 0.929 . S
C135 C132 1.461 . S
C135 C134 1.474 . S
C136 C131 1.342 . S
C136 C134 1.285 . S
C136 H155 0.930 . S
C137 C140 1.424 . S
C137 C142 1.245 . S
C137 C143 1.428 . S
C138 C141 1.260 . S
C138 C142 1.477 . S
C138 H156 0.932 . S
C139 C140 1.384 . S
C139 C141 1.479 . S
C139 H157 0.929 . S
C140 C137 1.424 . S
C140 C139 1.384 . S
C140 H158 0.928 . S
C141 C138 1.260 . S
C141 C139 1.479 . S
C142 C137 1.245 . S
C142 C138 1.477 . S
C142 H159 0.932 . S
C143 U126 2.882 . S
C143 C137 1.428 . S
C143 O146 1.301 . S
C143 O147 1.282 . S
O144 U126 2.441 . S
O144 C130 1.249 . S
O145 U126 2.420 . S
O145 C130 1.202 . S
O146 U126 2.455 . S
O146 C143 1.301 . S
O147 U126 2.449 . S
O147 C143 1.282 . S
H148 C121 0.931 . S
H149 C123 0.929 . S
H150 C124 0.930 . S
H151 C125 0.931 . S
H152 C132 0.932 . S
H153 C133 0.930 . S
H154 C134 0.929 . S
H155 C136 0.930 . S
H156 C138 0.932 . S
H157 C139 0.929 . S
H158 C140 0.928 . S
H159 C142 0.932 . S
C160 C161 1.264 . S
C160 C165 1.479 . S
C160 C170 1.465 . S
C161 C160 1.264 . S
C161 C163 1.339 . S
C161 H188 0.931 . S
C162 C163 1.395 . S
C162 C164 1.320 . S
C163 C161 1.339 . S
C163 C162 1.395 . S
C163 H189 0.929 . S
C164 C162 1.320 . S
C164 C165 1.405 . S
C164 H190 0.930 . S
C165 C160 1.479 . S
C165 C164 1.405 . S
C165 H191 0.931 . S
U166 O167 2.454 . S
U166 O168 2.458 . S
U166 C169 2.984 . S
U166 C170 2.847 . S
U166 C183 2.882 . S
U166 O184 2.441 . S
U166 O185 2.420 . S
U166 O186 2.455 . S
U166 O187 2.449 . S
O167 U166 2.454 . S
O167 C169 1.353 . S
O168 U166 2.458 . S
O168 C169 1.286 . S
C169 U166 2.984 . S
C169 O167 1.353 . S
C169 O168 1.286 . S
C169 C171 1.363 . S
C170 C160 1.465 . S
C170 U166 2.847 . S
C170 O184 1.249 . S
C170 O185 1.202 . S
C171 C169 1.363 . S
C171 C173 1.408 . S
C171 C176 1.342 . S
C172 C173 1.310 . S
C172 C175 1.461 . S
C172 H192 0.932 . S
C173 C171 1.408 . S
C173 C172 1.310 . S
C173 H193 0.930 . S
C174 C175 1.474 . S
C174 C176 1.285 . S
C174 H194 0.929 . S
C175 C172 1.461 . S
C175 C174 1.474 . S
C176 C171 1.342 . S
C176 C174 1.285 . S
C176 H195 0.930 . S
C177 C180 1.424 . S
C177 C182 1.245 . S
C177 C183 1.428 . S
C178 C181 1.260 . S
C178 C182 1.477 . S
C178 H196 0.932 . S
C179 C180 1.384 . S
C179 C181 1.479 . S
C179 H197 0.929 . S
C180 C177 1.424 . S
C180 C179 1.384 . S
C180 H198 0.928 . S
C181 C178 1.260 . S
C181 C179 1.479 . S
C182 C177 1.245 . S
C182 C178 1.477 . S
C182 H199 0.932 . S
C183 U166 2.882 . S
C183 C177 1.428 . S
C183 O186 1.301 . S
C183 O187 1.282 . S
O184 U166 2.441 . S
O184 C170 1.249 . S
O185 U166 2.420 . S
O185 C170 1.202 . S
O186 U166 2.455 . S
O186 C183 1.301 . S
O187 U166 2.449 . S
O187 C183 1.282 . S
H188 C161 0.931 . S
H189 C163 0.929 . S
H190 C164 0.930 . S
H191 C165 0.931 . S
H192 C172 0.932 . S
H193 C173 0.930 . S
H194 C174 0.929 . S
H195 C176 0.930 . S
H196 C178 0.932 . S
H197 C179 0.929 . S
H198 C180 0.928 . S
H199 C182 0.932 . S
C200 C201 1.264 . S
C200 C205 1.479 . S
C200 C210 1.465 . S
C201 C200 1.264 . S
C201 C203 1.339 . S
C201 H228 0.931 . S
C202 C203 1.395 . S
C202 C204 1.320 . S
C203 C201 1.339 . S
C203 C202 1.395 . S
C203 H229 0.929 . S
C204 C202 1.320 . S
C204 C205 1.405 . S
C204 H230 0.930 . S
C205 C200 1.479 . S
C205 C204 1.405 . S
C205 H231 0.931 . S
U206 O207 2.454 . S
U206 O208 2.458 . S
U206 C209 2.984 . S
U206 C210 2.847 . S
U206 C223 2.882 . S
U206 O224 2.441 . S
U206 O225 2.420 . S
U206 O226 2.455 . S
U206 O227 2.449 . S
O207 U206 2.454 . S
O207 C209 1.353 . S
O208 U206 2.458 . S
O208 C209 1.286 . S
C209 U206 2.984 . S
C209 O207 1.353 . S
C209 O208 1.286 . S
C209 C211 1.363 . S
C210 C200 1.465 . S
C210 U206 2.847 . S
C210 O224 1.249 . S
C210 O225 1.202 . S
C211 C209 1.363 . S
C211 C213 1.408 . S
C211 C216 1.342 . S
C212 C213 1.310 . S
C212 C215 1.461 . S
C212 H232 0.932 . S
C213 C211 1.408 . S
C213 C212 1.310 . S
C213 H233 0.930 . S
C214 C215 1.474 . S
C214 C216 1.285 . S
C214 H234 0.929 . S
C215 C212 1.461 . S
C215 C214 1.474 . S
C216 C211 1.342 . S
C216 C214 1.285 . S
C216 H235 0.930 . S
C217 C220 1.424 . S
C217 C222 1.245 . S
C217 C223 1.428 . S
C218 C221 1.260 . S
C218 C222 1.477 . S
C218 H236 0.932 . S
C219 C220 1.384 . S
C219 C221 1.479 . S
C219 H237 0.929 . S
C220 C217 1.424 . S
C220 C219 1.384 . S
C220 H238 0.928 . S
C221 C218 1.260 . S
C221 C219 1.479 . S
C222 C217 1.245 . S
C222 C218 1.477 . S
C222 H239 0.932 . S
C223 U206 2.882 . S
C223 C217 1.428 . S
C223 O226 1.301 . S
C223 O227 1.282 . S
O224 U206 2.441 . S
O224 C210 1.249 . S
O225 U206 2.420 . S
O225 C210 1.202 . S
O226 U206 2.455 . S
O226 C223 1.301 . S
O227 U206 2.449 . S
O227 C223 1.282 . S
H228 C201 0.931 . S
H229 C203 0.929 . S
H230 C204 0.930 . S
H231 C205 0.931 . S
H232 C212 0.932 . S
H233 C213 0.930 . S
H234 C214 0.929 . S
H235 C216 0.930 . S
H236 C218 0.932 . S
H237 C219 0.929 . S
H238 C220 0.928 . S
H239 C222 0.932 . S
C240 C241 1.264 . S
C240 C245 1.479 . S
C240 C250 1.465 . S
C241 C240 1.264 . S
C241 C243 1.339 . S
C241 H268 0.931 . S
C242 C243 1.395 . S
C242 C244 1.320 . S
C243 C241 1.339 . S
C243 C242 1.395 . S
C243 H269 0.929 . S
C244 C242 1.320 . S
C244 C245 1.405 . S
C244 H270 0.930 . S
C245 C240 1.479 . S
C245 C244 1.405 . S
C245 H271 0.931 . S
U246 O247 2.454 . S
U246 O248 2.458 . S
U246 C249 2.984 . S
U246 C250 2.847 . S
U246 C263 2.882 . S
U246 O264 2.441 . S
U246 O265 2.420 . S
U246 O266 2.455 . S
U246 O267 2.449 . S
O247 U246 2.454 . S
O247 C249 1.353 . S
O248 U246 2.458 . S
O248 C249 1.286 . S
C249 U246 2.984 . S
C249 O247 1.353 . S
C249 O248 1.286 . S
C249 C251 1.363 . S
C250 C240 1.465 . S
C250 U246 2.847 . S
C250 O264 1.249 . S
C250 O265 1.202 . S
C251 C249 1.363 . S
C251 C253 1.408 . S
C251 C256 1.342 . S
C252 C253 1.310 . S
C252 C255 1.461 . S
C252 H272 0.932 . S
C253 C251 1.408 . S
C253 C252 1.310 . S
C253 H273 0.930 . S
C254 C255 1.474 . S
C254 C256 1.285 . S
C254 H274 0.929 . S
C255 C252 1.461 . S
C255 C254 1.474 . S
C256 C251 1.342 . S
C256 C254 1.285 . S
C256 H275 0.930 . S
C257 C260 1.424 . S
C257 C262 1.245 . S
C257 C263 1.428 . S
C258 C261 1.260 . S
C258 C262 1.477 . S
C258 H276 0.932 . S
C259 C260 1.384 . S
C259 C261 1.479 . S
C259 H277 0.929 . S
C260 C257 1.424 . S
C260 C259 1.384 . S
C260 H278 0.928 . S
C261 C258 1.260 . S
C261 C259 1.479 . S
C262 C257 1.245 . S
C262 C258 1.477 . S
C262 H279 0.932 . S
C263 U246 2.882 . S
C263 C257 1.428 . S
C263 O266 1.301 . S
C263 O267 1.282 . S
O264 U246 2.441 . S
O264 C250 1.249 . S
O265 U246 2.420 . S
O265 C250 1.202 . S
O266 U246 2.455 . S
O266 C263 1.301 . S
O267 U246 2.449 . S
O267 C263 1.282 . S
H268 C241 0.931 . S
H269 C243 0.929 . S
H270 C244 0.930 . S
H271 C245 0.931 . S
H272 C252 0.932 . S
H273 C253 0.930 . S
H274 C254 0.929 . S
H275 C256 0.930 . S
H276 C258 0.932 . S
H277 C259 0.929 . S
H278 C260 0.928 . S
H279 C262 0.932 . S
C280 C281 1.264 . S
C280 C285 1.479 . S
C280 C290 1.465 . S
C281 C280 1.264 . S
C281 C283 1.339 . S
C281 H308 0.931 . S
C282 C283 1.395 . S
C282 C284 1.320 . S
C283 C281 1.339 . S
C283 C282 1.395 . S
C283 H309 0.929 . S
C284 C282 1.320 . S
C284 C285 1.405 . S
C284 H310 0.930 . S
C285 C280 1.479 . S
C285 C284 1.405 . S
C285 H311 0.931 . S
U286 O287 2.454 . S
U286 O288 2.458 . S
U286 C289 2.984 . S
U286 C290 2.847 . S
U286 C303 2.882 . S
U286 O304 2.441 . S
U286 O305 2.420 . S
U286 O306 2.455 . S
U286 O307 2.449 . S
O287 U286 2.454 . S
O287 C289 1.353 . S
O288 U286 2.458 . S
O288 C289 1.286 . S
C289 U286 2.984 . S
C289 O287 1.353 . S
C289 O288 1.286 . S
C289 C291 1.363 . S
C290 C280 1.465 . S
C290 U286 2.847 . S
C290 O304 1.249 . S
C290 O305 1.202 . S
C291 C289 1.363 . S
C291 C293 1.408 . S
C291 C296 1.342 . S
C292 C293 1.310 . S
C292 C295 1.461 . S
C292 H312 0.932 . S
C293 C291 1.408 . S
C293 C292 1.310 . S
C293 H313 0.930 . S
C294 C295 1.474 . S
C294 C296 1.285 . S
C294 H314 0.929 . S
C295 C292 1.461 . S
C295 C294 1.474 . S
C296 C291 1.342 . S
C296 C294 1.285 . S
C296 H315 0.930 . S
C297 C300 1.424 . S
C297 C302 1.245 . S
C297 C303 1.428 . S
C298 C301 1.260 . S
C298 C302 1.477 . S
C298 H316 0.932 . S
C299 C300 1.384 . S
C299 C301 1.479 . S
C299 H317 0.929 . S
C300 C297 1.424 . S
C300 C299 1.384 . S
C300 H318 0.928 . S
C301 C298 1.260 . S
C301 C299 1.479 . S
C302 C297 1.245 . S
C302 C298 1.477 . S
C302 H319 0.932 . S
C303 U286 2.882 . S
C303 C297 1.428 . S
C303 O306 1.301 . S
C303 O307 1.282 . S
O304 U286 2.441 . S
O304 C290 1.249 . S
O305 U286 2.420 . S
O305 C290 1.202 . S
O306 U286 2.455 . S
O306 C303 1.301 . S
O307 U286 2.449 . S
O307 C303 1.282 . S
H308 C281 0.931 . S
H309 C283 0.929 . S
H310 C284 0.930 . S
H311 C285 0.931 . S
H312 C292 0.932 . S
H313 C293 0.930 . S
H314 C294 0.929 . S
H315 C296 0.930 . S
H316 C298 0.932 . S
H317 C299 0.929 . S
H318 C300 0.928 . S
H319 C302 0.932 . S
O320 Zn321 1.939 1_455 S
O320 C336 1.258 . S
Zn321 O320 1.939 1_655 S
Zn321 O322 1.949 1_655 S
Zn321 O328 1.919 . S
Zn321 O333 1.924 . S
O322 Zn321 1.949 1_455 S
O322 Zn323 1.920 1_445 S
O322 Zn324 1.950 . S
O322 Zn325 1.945 1_545 S
Zn323 O322 1.920 1_665 S
Zn323 O326 1.943 . S
Zn323 O329 1.937 1_565 S
Zn323 O330 1.962 1_665 S
Zn324 O322 1.950 . S
Zn324 O331 1.938 . S
Zn324 O332 1.906 . S
Zn324 O342 1.953 . S
Zn325 O322 1.945 1_565 S
Zn325 O327 1.928 1_455 S
Zn325 O334 1.977 . S
Zn325 O335 1.910 1_455 S
O326 Zn323 1.943 . S
O326 C337 1.226 . S
O327 Zn325 1.928 1_655 S
O327 C337 1.311 . S
O328 Zn321 1.919 . S
O328 C339 1.253 . S
O329 Zn323 1.937 1_545 S
O329 C339 1.283 . S
O330 Zn323 1.962 1_445 S
O330 C338 1.303 . S
O331 Zn324 1.938 . S
O331 C338 1.247 . S
O332 Zn324 1.906 . S
O332 C340 1.304 1_545 S
O333 Zn321 1.924 . S
O333 C341 1.311 . S
O334 Zn325 1.977 . S
O334 C340 1.272 . S
O335 Zn325 1.910 1_655 S
O335 C341 1.231 1_565 S
C336 O320 1.258 . S
C336 O342 1.298 . S
C337 O326 1.226 . S
C337 O327 1.311 . S
C338 O330 1.303 . S
C338 O331 1.247 . S
C339 O328 1.253 . S
C339 O329 1.283 . S
C340 O332 1.304 1_565 S
C340 O334 1.272 . S
C341 O333 1.311 . S
C341 O335 1.231 1_545 S
O342 Zn324 1.953 . S
O342 C336 1.298 . S
O343 Zn344 1.953 . S
O343 C359 1.199 1_556 S
Zn344 O343 1.953 . S
Zn344 O345 1.949 1_556 S
Zn344 O351 1.919 . S
Zn344 O356 1.924 1_556 S
O345 Zn344 1.949 1_554 S
O345 Zn346 1.923 1_545 S
O345 Zn347 1.950 . S
O345 Zn348 1.935 1_545 S
Zn346 O345 1.923 1_565 S
Zn346 O349 1.933 . S
Zn346 O352 1.941 1_554 S
Zn346 O353 1.965 . S
Zn347 O345 1.950 . S
Zn347 O354 1.938 . S
Zn347 O355 1.906 . S
Zn347 O365 1.953 . S
Zn348 O345 1.935 1_565 S
Zn348 O350 1.978 . S
Zn348 O357 1.964 1_565 S
Zn348 O358 1.885 1_565 S
O349 Zn346 1.933 . S
O349 C360 1.226 . S
O350 Zn348 1.978 . S
O350 C360 1.307 . S
O351 Zn344 1.919 . S
O351 C362 1.253 1_545 S
O352 Zn346 1.941 1_556 S
O352 C362 1.283 . S
O353 Zn346 1.965 . S
O353 C361 1.303 . S
O354 Zn347 1.938 . S
O354 C361 1.247 1_545 S
O355 Zn347 1.906 . S
O355 C363 1.304 . S
O356 Zn344 1.924 1_554 S
O356 C364 1.311 . S
O357 Zn348 1.964 1_545 S
O357 C363 1.272 . S
O358 Zn348 1.885 1_545 S
O358 C364 1.231 . S
C359 O343 1.199 1_554 S
C359 O365 1.341 . S
C360 O349 1.226 . S
C360 O350 1.307 . S
C361 O353 1.303 . S
C361 O354 1.247 1_565 S
C362 O351 1.253 1_565 S
C362 O352 1.283 . S
C363 O355 1.304 . S
C363 O357 1.272 . S
C364 O356 1.311 . S
C364 O358 1.231 . S
O365 Zn347 1.953 . S
O365 C359 1.341 . S
O366 Zn367 1.953 . S
O366 C382 1.225 . S
Zn367 O366 1.953 . S
Zn367 O368 1.949 . S
Zn367 O374 1.919 . S
Zn367 O379 1.924 . S
O368 Zn367 1.949 . S
O368 Zn369 1.923 . S
O368 Zn370 1.950 . S
O368 Zn371 1.945 . S
Zn369 O368 1.923 . S
Zn369 O372 1.933 . S
Zn369 O375 1.941 . S
Zn369 O376 1.965 . S
Zn370 O368 1.950 . S
Zn370 O377 1.938 . S
Zn370 O378 1.906 . S
Zn370 O388 1.953 . S
Zn371 O368 1.945 . S
Zn371 O373 1.932 . S
Zn371 O380 1.977 . S
Zn371 O381 1.910 . S
O372 Zn369 1.933 . S
O372 C383 1.226 . S
O373 Zn371 1.932 . S
O373 C383 1.307 . S
O374 Zn367 1.919 . S
O374 C385 1.253 . S
O375 Zn369 1.941 . S
O375 C385 1.283 . S
O376 Zn369 1.965 . S
O376 C384 1.303 . S
O377 Zn370 1.938 . S
O377 C384 1.247 . S
O378 Zn370 1.906 . S
O378 C386 1.304 . S
O379 Zn367 1.924 . S
O379 C387 1.311 . S
O380 Zn371 1.977 . S
O380 C386 1.272 . S
O381 Zn371 1.910 . S
O381 C387 1.231 . S
C382 O366 1.225 . S
C382 O388 1.298 . S
C383 O372 1.226 . S
C383 O373 1.307 . S
C384 O376 1.303 . S
C384 O377 1.247 . S
C385 O374 1.253 . S
C385 O375 1.283 . S
C386 O378 1.304 . S
C386 O380 1.272 . S
C387 O379 1.311 . S
C387 O381 1.231 . S
O388 Zn370 1.953 . S
O388 C382 1.298 . S
O389 Zn390 1.953 . S
O389 C405 1.225 . S
Zn390 O389 1.953 . S
Zn390 O391 1.949 1_655 S
Zn390 O397 1.919 . S
Zn390 O402 1.918 1_655 S
O391 Zn390 1.949 1_455 S
O391 Zn392 1.923 1_454 S
O391 Zn393 1.950 . S
O391 Zn394 1.945 1_554 S
Zn392 O391 1.923 1_656 S
Zn392 O395 1.933 1_655 S
Zn392 O398 1.941 . S
Zn392 O399 1.965 . S
Zn393 O391 1.950 . S
Zn393 O400 1.938 . S
Zn393 O401 1.906 . S
Zn393 O411 1.953 . S
Zn394 O391 1.945 1_556 S
Zn394 O396 1.932 . S
Zn394 O403 1.977 1_556 S
Zn394 O404 1.910 1_556 S
O395 Zn392 1.933 1_455 S
O395 C406 1.226 . S
O396 Zn394 1.932 . S
O396 C406 1.307 . S
O397 Zn390 1.919 . S
O397 C408 1.253 1_554 S
O398 Zn392 1.941 . S
O398 C408 1.283 . S
O399 Zn392 1.965 . S
O399 C407 1.303 . S
O400 Zn393 1.938 . S
O400 C407 1.247 1_454 S
O401 Zn393 1.906 . S
O401 C409 1.304 . S
O402 Zn390 1.918 1_455 S
O402 C410 1.327 . S
O403 Zn394 1.977 1_554 S
O403 C409 1.272 . S
O404 Zn394 1.910 1_554 S
O404 C410 1.231 . S
C405 O389 1.225 . S
C405 O411 1.298 1_655 S
C406 O395 1.226 . S
C406 O396 1.307 . S
C407 O399 1.303 . S
C407 O400 1.247 1_656 S
C408 O397 1.253 1_556 S
C408 O398 1.283 . S
C409 O401 1.304 . S
C409 O403 1.272 . S
C410 O402 1.327 . S
C410 O404 1.231 . S
O411 Zn393 1.953 . S
O411 C405 1.298 1_455 S
H412 C420 0.929 . S
H413 C422 0.930 . S
H414 C424 0.930 . S
H415 C427 0.929 . S
H416 C430 0.930 . S
H417 C432 0.960 . S
H418 C432 0.960 . S
H419 C432 0.960 . S
C420 H412 0.929 . S
C420 C421 1.377 . S
C420 C422 1.384 . S
C421 C420 1.377 . S
C421 C427 1.390 . S
C422 H413 0.930 . S
C422 C420 1.384 . S
C422 C423 1.372 . S
C423 C422 1.372 . S
C423 C424 1.400 . S
C423 C428 1.490 . S
C424 H414 0.930 . S
C424 C423 1.400 . S
C424 C427 1.386 . S
H425 C441 0.930 . S
H426 C442 0.931 . S
C427 H415 0.929 . S
C427 C421 1.390 . S
C427 C424 1.386 . S
C428 C423 1.490 . S
C428 C430 1.395 . S
C428 C431 1.403 . S
H429 C435 0.930 . S
C430 H416 0.930 . S
C430 C428 1.395 . S
C430 C433 1.403 . S
C431 C428 1.403 . S
C431 C432 1.524 . S
C431 C435 1.400 . S
C432 H417 0.960 . S
C432 H418 0.960 . S
C432 H419 0.960 . S
C432 C431 1.524 . S
C433 C430 1.403 . S
C433 C434 1.392 . S
C433 C437 1.495 . S
C434 C433 1.392 . S
C434 C435 1.385 . S
C434 C436 1.478 . S
C435 H429 0.930 . S
C435 C431 1.400 . S
C435 C434 1.385 . S
C436 C434 1.478 . S
C436 C438 1.381 . S
C436 C442 1.383 . S
C437 C433 1.495 . S
C437 H443 0.959 . S
C437 H444 0.961 . S
C437 H445 0.960 . S
C438 C436 1.381 . S
C438 C439 1.394 . S
C438 H446 0.930 . S
C439 C438 1.394 . S
C439 C440 1.383 . S
C439 H447 0.929 . S
C440 C439 1.383 . S
C440 C441 1.377 . S
C441 H425 0.930 . S
C441 C440 1.377 . S
C441 C442 1.379 . S
C442 H426 0.931 . S
C442 C436 1.383 . S
C442 C441 1.379 . S
H443 C437 0.959 . S
H444 C437 0.961 . S
H445 C437 0.960 . S
H446 C438 0.930 . S
H447 C439 0.929 . S
H448 C456 0.929 . S
H449 C458 0.930 . S
H450 C460 0.930 . S
H451 C463 0.929 . S
H452 C466 0.930 . S
H453 C468 0.960 . S
H454 C468 0.960 . S
H455 C468 0.960 . S
C456 H448 0.929 . S
C456 C457 1.377 . S
C456 C458 1.384 . S
C457 C456 1.377 . S
C457 C463 1.390 . S
C458 H449 0.930 . S
C458 C456 1.384 . S
C458 C459 1.372 . S
C459 C458 1.372 . S
C459 C460 1.400 . S
C459 C464 1.490 . S
C460 H450 0.930 . S
C460 C459 1.400 . S
C460 C463 1.386 . S
H461 C477 0.930 . S
H462 C478 0.931 . S
C463 H451 0.929 . S
C463 C457 1.390 . S
C463 C460 1.386 . S
C464 C459 1.490 . S
C464 C466 1.395 . S
C464 C467 1.403 . S
H465 C471 0.930 . S
C466 H452 0.930 . S
C466 C464 1.395 . S
C466 C469 1.403 . S
C467 C464 1.403 . S
C467 C468 1.524 . S
C467 C471 1.400 . S
C468 H453 0.960 . S
C468 H454 0.960 . S
C468 H455 0.960 . S
C468 C467 1.524 . S
C469 C466 1.403 . S
C469 C470 1.392 . S
C469 C473 1.495 . S
C470 C469 1.392 . S
C470 C471 1.385 . S
C470 C472 1.478 . S
C471 H465 0.930 . S
C471 C467 1.400 . S
C471 C470 1.385 . S
C472 C470 1.478 . S
C472 C474 1.381 . S
C472 C478 1.383 . S
C473 C469 1.495 . S
C473 H479 0.941 1_565 S
C473 H480 0.949 1_565 S
C473 H481 0.960 . S
C474 C472 1.381 . S
C474 C475 1.394 . S
C474 H482 0.930 . S
C475 C474 1.394 . S
C475 C476 1.383 . S
C475 H483 0.929 . S
C476 C475 1.383 . S
C476 C477 1.377 . S
C477 H461 0.930 . S
C477 C476 1.377 . S
C477 C478 1.379 . S
C478 H462 0.931 . S
C478 C472 1.383 . S
C478 C477 1.379 . S
H479 C473 0.941 1_545 S
H480 C473 0.949 1_545 S
H481 C473 0.960 . S
H482 C474 0.930 . S
H483 C475 0.929 . S
H484 C492 0.929 . S
H485 C494 0.930 . S
H486 C496 0.930 . S
H487 C499 0.929 . S
H488 C502 0.930 . S
H489 C504 0.960 . S
H490 C504 0.960 . S
H491 C504 0.960 . S
C492 H484 0.929 . S
C492 C493 1.377 . S
C492 C494 1.384 . S
C493 C492 1.377 . S
C493 C499 1.390 . S
C494 H485 0.930 . S
C494 C492 1.384 . S
C494 C495 1.372 . S
C495 C494 1.372 . S
C495 C496 1.400 . S
C495 C500 1.490 . S
C496 H486 0.930 . S
C496 C495 1.400 . S
C496 C499 1.386 . S
H497 C513 0.930 . S
H498 C514 0.931 . S
C499 H487 0.929 . S
C499 C493 1.390 . S
C499 C496 1.386 . S
C500 C495 1.490 . S
C500 C502 1.395 . S
C500 C503 1.403 . S
H501 C507 0.930 . S
C502 H488 0.930 . S
C502 C500 1.395 . S
C502 C505 1.403 . S
C503 C500 1.403 . S
C503 C504 1.524 . S
C503 C507 1.400 . S
C504 H489 0.960 . S
C504 H490 0.960 . S
C504 H491 0.960 . S
C504 C503 1.524 . S
C505 C502 1.403 . S
C505 C506 1.392 . S
C505 C509 1.495 . S
C506 C505 1.392 . S
C506 C507 1.385 . S
C506 C508 1.478 . S
C507 H501 0.930 . S
C507 C503 1.400 . S
C507 C506 1.385 . S
C508 C506 1.478 . S
C508 C510 1.381 . S
C508 C514 1.383 . S
C509 C505 1.495 . S
C509 H515 0.959 . S
C509 H516 0.961 . S
C509 H517 0.960 . S
C510 C508 1.381 . S
C510 C511 1.394 . S
C510 H518 0.930 . S
C511 C510 1.394 . S
C511 C512 1.383 . S
C511 H519 0.929 . S
C512 C511 1.383 . S
C512 C513 1.377 . S
C513 H497 0.930 . S
C513 C512 1.377 . S
C513 C514 1.379 . S
C514 H498 0.931 . S
C514 C508 1.383 . S
C514 C513 1.379 . S
H515 C509 0.959 . S
H516 C509 0.961 . S
H517 C509 0.960 . S
H518 C510 0.930 . S
H519 C511 0.929 . S
H520 C528 0.929 . S
H521 C530 0.930 . S
H522 C532 0.930 . S
H523 C535 0.929 . S
H524 C538 0.930 . S
H525 C540 0.960 . S
H526 C540 0.960 . S
H527 C540 0.960 . S
C528 H520 0.929 . S
C528 C529 1.377 . S
C528 C530 1.384 . S
C529 C528 1.377 . S
C529 C535 1.390 . S
C530 H521 0.930 . S
C530 C528 1.384 . S
C530 C531 1.372 . S
C531 C530 1.372 . S
C531 C532 1.400 . S
C531 C536 1.490 . S
C532 H522 0.930 . S
C532 C531 1.400 . S
C532 C535 1.386 . S
H533 C549 0.930 . S
H534 C550 0.931 . S
C535 H523 0.929 . S
C535 C529 1.390 . S
C535 C532 1.386 . S
C536 C531 1.490 . S
C536 C538 1.395 . S
C536 C539 1.403 . S
H537 C543 0.930 . S
C538 H524 0.930 . S
C538 C536 1.395 . S
C538 C541 1.403 . S
C539 C536 1.403 . S
C539 C540 1.524 . S
C539 C543 1.400 . S
C540 H525 0.960 . S
C540 H526 0.960 . S
C540 H527 0.960 . S
C540 C539 1.524 . S
C541 C538 1.403 . S
C541 C542 1.392 . S
C541 C545 1.495 1_655 S
C542 C541 1.392 . S
C542 C543 1.385 . S
C542 C544 1.478 . S
C543 H537 0.930 . S
C543 C539 1.400 . S
C543 C542 1.385 . S
C544 C542 1.478 . S
C544 C546 1.381 . S
C544 C550 1.383 . S
C545 C541 1.495 1_455 S
C545 H551 0.959 . S
C545 H552 0.961 . S
C545 H553 0.960 . S
C546 C544 1.381 . S
C546 C547 1.394 . S
C546 H554 0.930 . S
C547 C546 1.394 . S
C547 C548 1.383 . S
C547 H555 0.912 1_655 S
C548 C547 1.383 . S
C548 C549 1.377 . S
C549 H533 0.930 . S
C549 C548 1.377 . S
C549 C550 1.379 . S
C550 H534 0.931 . S
C550 C544 1.383 . S
C550 C549 1.379 . S
H551 C545 0.959 . S
H552 C545 0.961 . S
H553 C545 0.960 . S
H554 C546 0.930 . S
H555 C547 0.912 1_455 S
H556 C564 0.929 . S
H557 C566 0.930 . S
H558 C568 0.930 . S
H559 C571 0.929 . S
H560 C574 0.930 . S
H561 C576 0.960 . S
H562 C576 0.960 . S
H563 C576 0.960 . S
C564 H556 0.929 . S
C564 C565 1.377 . S
C564 C566 1.384 . S
C565 C564 1.377 . S
C565 C571 1.390 . S
C566 H557 0.930 . S
C566 C564 1.384 . S
C566 C567 1.372 . S
C567 C566 1.372 . S
C567 C568 1.400 . S
C567 C572 1.490 . S
C568 H558 0.930 . S
C568 C567 1.400 . S
C568 C571 1.386 . S
H569 C585 0.930 . S
H570 C586 0.931 . S
C571 H559 0.929 . S
C571 C565 1.390 . S
C571 C568 1.386 . S
C572 C567 1.490 . S
C572 C574 1.395 . S
C572 C575 1.403 . S
H573 C579 0.930 . S
C574 H560 0.930 . S
C574 C572 1.395 . S
C574 C577 1.403 . S
C575 C572 1.403 . S
C575 C576 1.524 . S
C575 C579 1.400 . S
C576 H561 0.960 . S
C576 H562 0.960 . S
C576 H563 0.960 . S
C576 C575 1.524 . S
C577 C574 1.403 . S
C577 C578 1.392 . S
C577 C581 1.495 . S
C578 C577 1.392 . S
C578 C579 1.385 . S
C578 C580 1.478 . S
C579 H573 0.930 . S
C579 C575 1.400 . S
C579 C578 1.385 . S
C580 C578 1.478 . S
C580 C582 1.381 . S
C580 C586 1.383 . S
C581 C577 1.495 . S
C581 H587 0.959 . S
C581 H588 0.961 . S
C581 H589 0.960 . S
C582 C580 1.381 . S
C582 C583 1.394 . S
C582 H590 0.930 . S
C583 C582 1.394 . S
C583 C584 1.383 . S
C583 H591 0.929 . S
C584 C583 1.383 . S
C584 C585 1.377 . S
C585 H569 0.930 . S
C585 C584 1.377 . S
C585 C586 1.379 . S
C586 H570 0.931 . S
C586 C580 1.383 . S
C586 C585 1.379 . S
H587 C581 0.959 . S
H588 C581 0.961 . S
H589 C581 0.960 . S
H590 C582 0.930 . S
H591 C583 0.929 . S
H592 C600 0.929 . S
H593 C602 0.930 . S
H594 C604 0.930 . S
H595 C607 0.929 . S
H596 C610 0.930 . S
H597 C612 0.960 . S
H598 C612 0.960 . S
H599 C612 0.960 . S
C600 H592 0.929 . S
C600 C601 1.377 . S
C600 C602 1.384 . S
C601 C600 1.377 . S
C601 C607 1.390 . S
C602 H593 0.930 . S
C602 C600 1.384 . S
C602 C603 1.372 . S
C603 C602 1.372 . S
C603 C604 1.400 . S
C603 C608 1.490 . S
C604 H594 0.930 . S
C604 C603 1.400 . S
C604 C607 1.386 . S
H605 C621 0.930 . S
H606 C622 0.931 . S
C607 H595 0.929 . S
C607 C601 1.390 . S
C607 C604 1.386 . S
C608 C603 1.490 . S
C608 C610 1.395 . S
C608 C611 1.403 . S
H609 C615 0.930 . S
C610 H596 0.930 . S
C610 C608 1.395 . S
C610 C613 1.403 . S
C611 C608 1.403 . S
C611 C612 1.524 . S
C611 C615 1.400 . S
C612 H597 0.960 . S
C612 H598 0.960 . S
C612 H599 0.960 . S
C612 C611 1.524 . S
C613 C610 1.403 . S
C613 C614 1.392 . S
C613 C617 1.495 . S
C614 C613 1.392 . S
C614 C615 1.385 . S
C614 C616 1.478 . S
C615 H609 0.930 . S
C615 C611 1.400 . S
C615 C614 1.385 . S
C616 C614 1.478 . S
C616 C618 1.381 . S
C616 C622 1.383 . S
C617 C613 1.495 . S
C617 H623 0.959 . S
C617 H624 0.951 1_565 S
C617 H625 0.960 . S
C618 C616 1.381 . S
C618 C619 1.394 . S
C618 H626 0.930 . S
C619 C618 1.394 . S
C619 C620 1.383 . S
C619 H627 0.929 . S
C620 C619 1.383 . S
C620 C621 1.377 . S
C621 H605 0.930 . S
C621 C620 1.377 . S
C621 C622 1.379 . S
C622 H606 0.931 . S
C622 C616 1.383 . S
C622 C621 1.379 . S
H623 C617 0.959 . S
H624 C617 0.951 1_545 S
H625 C617 0.960 . S
H626 C618 0.930 . S
H627 C619 0.929 . S
H628 C636 0.929 . S
H629 C638 0.930 . S
H630 C640 0.930 . S
H631 C643 0.929 . S
H632 C646 0.930 . S
H633 C648 0.960 . S
H634 C648 0.960 . S
H635 C648 0.960 . S
C636 H628 0.929 . S
C636 C637 1.377 . S
C636 C638 1.384 . S
C637 C636 1.377 . S
C637 C643 1.390 . S
C638 H629 0.930 . S
C638 C636 1.384 . S
C638 C639 1.372 . S
C639 C638 1.372 . S
C639 C640 1.400 . S
C639 C644 1.490 . S
C640 H630 0.930 . S
C640 C639 1.400 . S
C640 C643 1.386 . S
H641 C657 0.930 . S
H642 C658 0.931 . S
C643 H631 0.929 . S
C643 C637 1.390 . S
C643 C640 1.386 . S
C644 C639 1.490 . S
C644 C646 1.395 . S
C644 C647 1.403 . S
H645 C651 0.930 . S
C646 H632 0.930 . S
C646 C644 1.395 . S
C646 C649 1.403 . S
C647 C644 1.403 . S
C647 C648 1.524 . S
C647 C651 1.400 . S
C648 H633 0.960 . S
C648 H634 0.960 . S
C648 H635 0.960 . S
C648 C647 1.524 . S
C649 C646 1.403 . S
C649 C650 1.392 . S
C649 C653 1.495 . S
C650 C649 1.392 . S
C650 C651 1.385 . S
C650 C652 1.478 . S
C651 H645 0.930 . S
C651 C647 1.400 . S
C651 C650 1.385 . S
C652 C650 1.478 . S
C652 C654 1.381 . S
C652 C658 1.383 . S
C653 C649 1.495 . S
C653 H659 0.959 . S
C653 H660 0.961 . S
C653 H661 0.960 . S
C654 C652 1.381 . S
C654 C655 1.394 . S
C654 H662 0.970 . S
C655 C654 1.394 . S
C655 C656 1.383 . S
C655 H663 0.929 1_556 S
C656 C655 1.383 . S
C656 C657 1.377 . S
C657 H641 0.930 . S
C657 C656 1.377 . S
C657 C658 1.379 . S
C658 H642 0.931 . S
C658 C652 1.383 . S
C658 C657 1.379 . S
H659 C653 0.959 . S
H660 C653 0.961 . S
H661 C653 0.960 . S
H662 C654 0.970 . S
H663 C655 0.929 1_554 S
H664 C672 0.929 . S
H665 C674 0.930 . S
H666 C676 0.930 . S
H667 C679 0.929 . S
H668 C682 0.930 . S
H669 C684 0.960 . S
H670 C684 0.960 . S
H671 C684 0.960 . S
C672 H664 0.929 . S
C672 C673 1.377 . S
C672 C674 1.384 . S
C673 C672 1.377 . S
C673 C679 1.390 . S
C674 H665 0.930 . S
C674 C672 1.384 . S
C674 C675 1.372 . S
C675 C674 1.372 . S
C675 C676 1.400 . S
C675 C680 1.490 . S
C676 H666 0.930 . S
C676 C675 1.400 . S
C676 C679 1.386 . S
H677 C693 0.930 . S
H678 C694 0.931 . S
C679 H667 0.929 . S
C679 C673 1.390 . S
C679 C676 1.386 . S
C680 C675 1.490 . S
C680 C682 1.395 . S
C680 C683 1.403 . S
H681 C687 0.930 . S
C682 H668 0.930 . S
C682 C680 1.395 . S
C682 C685 1.403 . S
C683 C680 1.403 . S
C683 C684 1.524 . S
C683 C687 1.400 . S
C684 H669 0.960 . S
C684 H670 0.960 . S
C684 H671 0.960 . S
C684 C683 1.524 . S
C685 C682 1.403 . S
C685 C686 1.392 . S
C685 C689 1.495 . S
C686 C685 1.392 . S
C686 C687 1.385 . S
C686 C688 1.478 . S
C687 H681 0.930 . S
C687 C683 1.400 . S
C687 C686 1.385 . S
C688 C686 1.478 . S
C688 C690 1.381 . S
C688 C694 1.383 . S
C689 C685 1.495 . S
C689 H695 0.959 . S
C689 H696 0.961 . S
C689 H697 0.960 . S
C690 C688 1.381 . S
C690 C691 1.394 . S
C690 H698 0.930 . S
C691 C690 1.394 . S
C691 C692 1.383 . S
C691 H699 0.929 . S
C692 C691 1.383 . S
C692 C693 1.377 . S
C693 H677 0.930 . S
C693 C692 1.377 . S
C693 C694 1.379 . S
C694 H678 0.931 . S
C694 C688 1.383 . S
C694 C693 1.379 . S
H695 C689 0.959 . S
H696 C689 0.961 . S
H697 C689 0.960 . S
H698 C690 0.930 . S
H699 C691 0.929 . S
H700 C708 0.929 . S
H701 C710 0.930 . S
H702 C712 0.930 . S
H703 C715 0.929 . S
H704 C718 0.930 . S
H705 C720 0.960 . S
H706 C720 0.960 . S
H707 C720 0.960 . S
C708 H700 0.929 . S
C708 C709 1.377 . S
C708 C710 1.384 . S
C709 C708 1.377 . S
C709 C715 1.390 . S
C710 H701 0.930 . S
C710 C708 1.384 . S
C710 C711 1.372 . S
C711 C710 1.372 . S
C711 C712 1.400 . S
C711 C716 1.490 . S
C712 H702 0.930 . S
C712 C711 1.400 . S
C712 C715 1.386 . S
H713 C729 0.930 . S
H714 C730 0.931 . S
C715 H703 0.929 . S
C715 C709 1.390 . S
C715 C712 1.386 . S
C716 C711 1.490 . S
C716 C718 1.395 . S
C716 C719 1.403 . S
H717 C723 0.930 . S
C718 H704 0.930 . S
C718 C716 1.395 . S
C718 C721 1.403 . S
C719 C716 1.403 . S
C719 C720 1.524 . S
C719 C723 1.400 . S
C720 H705 0.960 . S
C720 H706 0.960 . S
C720 H707 0.960 . S
C720 C719 1.524 . S
C721 C718 1.403 . S
C721 C722 1.392 . S
C721 C725 1.495 . S
C722 C721 1.392 . S
C722 C723 1.385 . S
C722 C724 1.478 . S
C723 H717 0.930 . S
C723 C719 1.400 . S
C723 C722 1.385 . S
C724 C722 1.478 . S
C724 C726 1.381 . S
C724 C730 1.383 . S
C725 C721 1.495 . S
C725 H731 0.959 1_455 S
C725 H732 0.962 . S
C725 H733 0.960 1_455 S
C726 C724 1.381 . S
C726 C727 1.394 . S
C726 H734 0.930 . S
C727 C726 1.394 . S
C727 C728 1.383 . S
C727 H735 0.929 . S
C728 C727 1.383 . S
C728 C729 1.377 . S
C729 H713 0.930 . S
C729 C728 1.377 . S
C729 C730 1.379 . S
C730 H714 0.931 . S
C730 C724 1.383 . S
C730 C729 1.379 . S
H731 C725 0.959 1_655 S
H732 C725 0.962 . S
H733 C725 0.960 1_655 S
H734 C726 0.930 . S
H735 C727 0.929 . S
H736 C744 0.929 . S
H737 C746 0.930 . S
H738 C748 0.930 . S
H739 C751 0.929 . S
H740 C754 0.930 . S
H741 C756 0.960 . S
H742 C756 0.960 . S
H743 C756 0.960 . S
C744 H736 0.929 . S
C744 C745 1.377 . S
C744 C746 1.384 . S
C745 C744 1.377 . S
C745 C751 1.390 . S
C746 H737 0.930 . S
C746 C744 1.384 . S
C746 C747 1.372 . S
C747 C746 1.372 . S
C747 C748 1.400 . S
C747 C752 1.490 . S
C748 H738 0.930 . S
C748 C747 1.400 . S
C748 C751 1.386 . S
H749 C765 0.930 . S
H750 C766 0.931 . S
C751 H739 0.929 . S
C751 C745 1.390 . S
C751 C748 1.386 . S
C752 C747 1.490 . S
C752 C754 1.395 . S
C752 C755 1.403 . S
H753 C759 0.930 . S
C754 H740 0.930 . S
C754 C752 1.395 . S
C754 C757 1.403 . S
C755 C752 1.403 . S
C755 C756 1.524 . S
C755 C759 1.400 . S
C756 H741 0.960 . S
C756 H742 0.960 . S
C756 H743 0.960 . S
C756 C755 1.524 . S
C757 C754 1.403 . S
C757 C758 1.392 . S
C757 C761 1.495 . S
C758 C757 1.392 . S
C758 C759 1.385 . S
C758 C760 1.478 . S
C759 H753 0.930 . S
C759 C755 1.400 . S
C759 C758 1.385 . S
C760 C758 1.478 . S
C760 C762 1.381 . S
C760 C766 1.383 1_556 S
C761 C757 1.495 . S
C761 H767 0.959 . S
C761 H768 0.961 . S
C761 H769 0.960 . S
C762 C760 1.381 . S
C762 C763 1.394 . S
C762 H770 0.930 . S
C763 C762 1.394 . S
C763 C764 1.383 . S
C763 H771 0.929 . S
C764 C763 1.383 . S
C764 C765 1.377 1_556 S
C765 H749 0.930 . S
C765 C764 1.377 1_554 S
C765 C766 1.379 . S
C766 H750 0.931 . S
C766 C760 1.383 1_554 S
C766 C765 1.379 . S
H767 C761 0.959 . S
H768 C761 0.961 . S
H769 C761 0.960 . S
H770 C762 0.930 . S
H771 C763 0.929 . S
H772 C780 0.929 . S
H773 C782 0.930 . S
H774 C784 0.930 . S
H775 C787 0.929 . S
H776 C790 0.930 . S
H777 C792 0.960 . S
H778 C792 0.960 . S
H779 C792 0.960 . S
C780 H772 0.929 . S
C780 C781 1.377 . S
C780 C782 1.384 . S
C781 C780 1.377 . S
C781 C787 1.390 . S
C782 H773 0.930 . S
C782 C780 1.384 . S
C782 C783 1.372 . S
C783 C782 1.372 . S
C783 C784 1.400 . S
C783 C788 1.490 . S
C784 H774 0.930 . S
C784 C783 1.400 . S
C784 C787 1.386 . S
H785 C801 0.930 . S
H786 C802 0.931 . S
C787 H775 0.929 . S
C787 C781 1.390 . S
C787 C784 1.386 . S
C788 C783 1.490 . S
C788 C790 1.395 . S
C788 C791 1.403 . S
H789 C795 0.930 . S
C790 H776 0.930 . S
C790 C788 1.395 . S
C790 C793 1.403 . S
C791 C788 1.403 . S
C791 C792 1.524 . S
C791 C795 1.400 . S
C792 H777 0.960 . S
C792 H778 0.960 . S
C792 H779 0.960 . S
C792 C791 1.524 . S
C793 C790 1.403 . S
C793 C794 1.392 . S
C793 C797 1.495 1_655 S
C794 C793 1.392 . S
C794 C795 1.385 . S
C794 C796 1.478 . S
C795 H789 0.930 . S
C795 C791 1.400 . S
C795 C794 1.385 . S
C796 C794 1.478 . S
C796 C798 1.381 . S
C796 C802 1.383 . S
C797 C793 1.495 1_455 S
C797 H803 0.959 . S
C797 H804 0.961 . S
C797 H805 0.960 . S
C798 C796 1.381 . S
C798 C799 1.397 . S
C798 H806 0.930 1_655 S
C799 C798 1.397 . S
C799 C800 1.393 . S
C799 H807 0.916 1_655 S
C800 C799 1.393 . S
C800 C801 1.377 . S
C801 H785 0.930 . S
C801 C800 1.377 . S
C801 C802 1.379 . S
C802 H786 0.931 . S
C802 C796 1.383 . S
C802 C801 1.379 . S
H803 C797 0.959 . S
H804 C797 0.961 . S
H805 C797 0.960 . S
H806 C798 0.930 1_455 S
H807 C799 0.916 1_455 S
H808 C816 0.929 . S
H809 C818 0.930 . S
H810 C820 0.930 . S
H811 C823 0.929 . S
H812 C826 0.930 . S
H813 C828 0.960 . S
H814 C828 0.960 . S
H815 C828 0.960 . S
C816 H808 0.929 . S
C816 C817 1.377 . S
C816 C818 1.384 . S
C817 C816 1.377 . S
C817 C823 1.390 . S
C818 H809 0.930 . S
C818 C816 1.384 . S
C818 C819 1.372 . S
C819 C818 1.372 . S
C819 C820 1.400 . S
C819 C824 1.490 . S
C820 H810 0.930 . S
C820 C819 1.400 . S
C820 C823 1.386 . S
H821 C837 0.930 . S
H822 C838 0.931 . S
C823 H811 0.929 . S
C823 C817 1.390 . S
C823 C820 1.386 . S
C824 C819 1.490 . S
C824 C826 1.395 . S
C824 C827 1.403 . S
H825 C831 0.930 . S
C826 H812 0.930 . S
C826 C824 1.395 . S
C826 C829 1.403 . S
C827 C824 1.403 . S
C827 C828 1.524 . S
C827 C831 1.400 . S
C828 H813 0.960 . S
C828 H814 0.960 . S
C828 H815 0.960 . S
C828 C827 1.524 . S
C829 C826 1.403 . S
C829 C830 1.392 . S
C829 C833 1.495 . S
C830 C829 1.392 . S
C830 C831 1.385 . S
C830 C832 1.478 . S
C831 H825 0.930 . S
C831 C827 1.400 . S
C831 C830 1.385 . S
C832 C830 1.478 . S
C832 C834 1.381 . S
C832 C838 1.383 . S
C833 C829 1.495 . S
C833 H839 0.959 . S
C833 H840 0.961 . S
C833 H841 0.960 . S
C834 C832 1.381 . S
C834 C835 1.394 . S
C834 H842 0.930 . S
C835 C834 1.394 . S
C835 C836 1.383 . S
C835 H843 0.929 . S
C836 C835 1.383 . S
C836 C837 1.377 . S
C837 H821 0.930 . S
C837 C836 1.377 . S
C837 C838 1.379 . S
C838 H822 0.931 . S
C838 C832 1.383 . S
C838 C837 1.379 . S
H839 C833 0.959 . S
H840 C833 0.961 . S
H841 C833 0.960 . S
H842 C834 0.930 . S
H843 C835 0.929 . S
H844 C852 0.949 . S
H845 C854 0.930 . S
H846 C856 0.930 . S
H847 C859 0.929 . S
H848 C862 0.930 . S
H849 C864 0.960 . S
H850 C864 0.960 . S
H851 C864 0.960 . S
C852 H844 0.949 . S
C852 C853 1.355 1_545 S
C852 C854 1.388 . S
C853 C852 1.355 1_565 S
C853 C859 1.390 . S
C854 H845 0.930 . S
C854 C852 1.388 . S
C854 C855 1.372 1_545 S
C855 C854 1.372 1_565 S
C855 C856 1.400 . S
C855 C860 1.490 . S
C856 H846 0.930 . S
C856 C855 1.400 . S
C856 C859 1.386 . S
H857 C873 0.930 1_455 S
H858 C874 0.931 1_455 S
C859 H847 0.929 . S
C859 C853 1.390 . S
C859 C856 1.386 . S
C860 C855 1.490 . S
C860 C862 1.395 1_565 S
C860 C863 1.403 . S
H861 C867 0.930 . S
C862 H848 0.930 . S
C862 C860 1.395 1_545 S
C862 C865 1.403 . S
C863 C860 1.403 . S
C863 C864 1.524 . S
C863 C867 1.400 . S
C864 H849 0.960 . S
C864 H850 0.960 . S
C864 H851 0.960 . S
C864 C863 1.524 . S
C865 C862 1.403 . S
C865 C866 1.364 1_545 S
C865 C869 1.495 . S
C866 C865 1.364 1_565 S
C866 C867 1.420 . S
C866 C868 1.474 1_565 S
C867 H861 0.930 . S
C867 C863 1.400 . S
C867 C866 1.420 . S
C868 C866 1.474 1_545 S
C868 C870 1.381 . S
C868 C874 1.383 1_545 S
C869 C865 1.495 . S
C869 H875 0.960 . S
C869 H876 0.961 1_655 S
C869 H877 0.960 . S
C870 C868 1.381 . S
C870 C871 1.394 . S
C870 H878 0.930 . S
C871 C870 1.394 . S
C871 C872 1.383 . S
C871 H879 0.929 . S
C872 C871 1.383 . S
C872 C873 1.377 1_545 S
C873 H857 0.930 1_655 S
C873 C872 1.377 1_565 S
C873 C874 1.379 . S
C874 H858 0.931 1_655 S
C874 C868 1.383 1_565 S
C874 C873 1.379 . S
H875 C869 0.960 . S
H876 C869 0.961 1_455 S
H877 C869 0.960 . S
H878 C870 0.930 . S
H879 C871 0.929 . S
H880 C888 0.929 . S
H881 C890 0.930 . S
H882 C892 0.930 1_565 S
H883 C895 0.929 1_565 S
H884 C898 0.930 . S
H885 C900 0.960 . S
H886 C900 0.960 . S
H887 C900 0.982 . S
C888 H880 0.929 . S
C888 C889 1.377 . S
C888 C890 1.384 . S
C889 C888 1.377 . S
C889 C895 1.390 . S
C890 H881 0.930 . S
C890 C888 1.384 . S
C890 C891 1.372 . S
C891 C890 1.372 . S
C891 C892 1.400 . S
C891 C896 1.490 . S
C892 H882 0.930 1_545 S
C892 C891 1.400 . S
C892 C895 1.386 . S
H893 C909 0.930 . S
H894 C910 0.931 . S
C895 H883 0.929 1_545 S
C895 C889 1.390 . S
C895 C892 1.386 . S
C896 C891 1.490 . S
C896 C898 1.395 . S
C896 C899 1.403 . S
H897 C903 0.930 . S
C898 H884 0.930 . S
C898 C896 1.395 . S
C898 C901 1.403 . S
C899 C896 1.403 . S
C899 C900 1.524 . S
C899 C903 1.400 . S
C900 H885 0.960 . S
C900 H886 0.960 . S
C900 H887 0.982 . S
C900 C899 1.524 . S
C901 C898 1.403 . S
C901 C902 1.392 . S
C901 C905 1.495 . S
C902 C901 1.392 . S
C902 C903 1.385 . S
C902 C904 1.478 . S
C903 H897 0.930 . S
C903 C899 1.400 . S
C903 C902 1.385 . S
C904 C902 1.478 . S
C904 C906 1.381 . S
C904 C910 1.383 1_545 S
C905 C901 1.495 . S
C905 H911 0.959 . S
C905 H912 0.961 . S
C905 H913 0.960 . S
C906 C904 1.381 . S
C906 C907 1.394 . S
C906 H914 0.930 . S
C907 C906 1.394 . S
C907 C908 1.383 . S
C907 H915 0.929 . S
C908 C907 1.383 . S
C908 C909 1.377 1_545 S
C909 H893 0.930 . S
C909 C908 1.377 1_565 S
C909 C910 1.379 . S
C910 H894 0.931 . S
C910 C904 1.383 1_565 S
C910 C909 1.379 . S
H911 C905 0.959 . S
H912 C905 0.961 . S
H913 C905 0.960 . S
H914 C906 0.930 . S
H915 C907 0.929 . S
H916 C924 0.929 . S
H917 C926 0.930 . S
H918 C928 0.930 . S
H919 C931 0.929 . S
H920 C934 0.930 . S
H921 C936 0.960 . S
H922 C936 0.960 . S
H923 C936 0.960 . S
C924 H916 0.929 . S
C924 C925 1.377 . S
C924 C926 1.384 . S
C925 C924 1.377 . S
C925 C931 1.390 . S
C926 H917 0.930 . S
C926 C924 1.384 . S
C926 C927 1.372 . S
C927 C926 1.372 . S
C927 C928 1.400 . S
C927 C932 1.490 . S
C928 H918 0.930 . S
C928 C927 1.400 . S
C928 C931 1.386 . S
H929 C945 0.930 . S
H930 C946 0.931 . S
C931 H919 0.929 . S
C931 C925 1.390 . S
C931 C928 1.386 . S
C932 C927 1.490 . S
C932 C934 1.395 . S
C932 C935 1.403 . S
H933 C939 0.930 . S
C934 H920 0.930 . S
C934 C932 1.395 . S
C934 C937 1.403 . S
C935 C932 1.403 . S
C935 C936 1.524 . S
C935 C939 1.400 . S
C936 H921 0.960 . S
C936 H922 0.960 . S
C936 H923 0.960 . S
C936 C935 1.524 . S
C937 C934 1.403 . S
C937 C938 1.392 . S
C937 C941 1.495 . S
C938 C937 1.392 . S
C938 C939 1.385 . S
C938 C940 1.478 . S
C939 H933 0.930 . S
C939 C935 1.400 . S
C939 C938 1.385 . S
C940 C938 1.478 . S
C940 C942 1.381 . S
C940 C946 1.383 . S
C941 C937 1.495 . S
C941 H947 0.959 . S
C941 H948 0.961 . S
C941 H949 0.960 . S
C942 C940 1.381 . S
C942 C943 1.394 . S
C942 H950 0.930 . S
C943 C942 1.394 . S
C943 C944 1.383 . S
C943 H951 0.929 . S
C944 C943 1.383 . S
C944 C945 1.377 . S
C945 H929 0.930 . S
C945 C944 1.377 . S
C945 C946 1.379 . S
C946 H930 0.931 . S
C946 C940 1.383 . S
C946 C945 1.379 . S
H947 C941 0.959 . S
H948 C941 0.961 . S
H949 C941 0.960 . S
H950 C942 0.930 . S
H951 C943 0.929 . S
H952 C960 0.929 . S
H953 C962 0.930 . S
H954 C964 0.930 . S
H955 C967 0.929 . S
H956 C970 0.930 . S
H957 C972 0.960 . S
H958 C972 0.960 . S
H959 C972 0.960 . S
C960 H952 0.929 . S
C960 C961 1.377 . S
C960 C962 1.384 . S
C961 C960 1.377 . S
C961 C967 1.390 . S
C962 H953 0.930 . S
C962 C960 1.384 . S
C962 C963 1.372 . S
C963 C962 1.372 . S
C963 C964 1.400 . S
C963 C968 1.490 . S
C964 H954 0.930 . S
C964 C963 1.400 . S
C964 C967 1.386 . S
H965 C981 0.930 . S
H966 C982 0.931 . S
C967 H955 0.929 . S
C967 C961 1.390 . S
C967 C964 1.386 . S
C968 C963 1.490 . S
C968 C970 1.395 . S
C968 C971 1.403 . S
H969 C975 0.930 . S
C970 H956 0.930 . S
C970 C968 1.395 . S
C970 C973 1.403 . S
C971 C968 1.403 . S
C971 C972 1.524 . S
C971 C975 1.400 . S
C972 H957 0.960 . S
C972 H958 0.960 . S
C972 H959 0.960 . S
C972 C971 1.524 . S
C973 C970 1.403 . S
C973 C974 1.392 . S
C973 C977 1.495 . S
C974 C973 1.392 . S
C974 C975 1.385 . S
C974 C976 1.478 . S
C975 H969 0.930 . S
C975 C971 1.400 . S
C975 C974 1.385 . S
C976 C974 1.478 . S
C976 C978 1.381 . S
C976 C982 1.383 . S
C977 C973 1.495 . S
C977 H983 0.959 . S
C977 H984 0.961 . S
C977 H985 0.960 . S
C978 C976 1.381 . S
C978 C979 1.394 . S
C978 H986 0.930 . S
C979 C978 1.394 . S
C979 C980 1.383 . S
C979 H987 0.929 . S
C980 C979 1.383 . S
C980 C981 1.377 . S
C981 H965 0.930 . S
C981 C980 1.377 . S
C981 C982 1.379 . S
C982 H966 0.931 . S
C982 C976 1.383 . S
C982 C981 1.379 . S
H983 C977 0.959 . S
H984 C977 0.961 . S
H985 C977 0.960 . S
H986 C978 0.930 . S
H987 C979 0.929 . S
H988 C996 0.929 . S
H989 C998 0.930 . S
H990 C1000 0.930 . S
H991 C1003 0.929 . S
H992 C1006 0.930 . S
H993 C1008 0.960 . S
H994 C1008 0.960 . S
H995 C1008 0.960 . S
C996 H988 0.929 . S
C996 C997 1.377 1_545 S
C996 C998 1.384 . S
C997 C996 1.377 1_565 S
C997 C1003 1.390 . S
C998 H989 0.930 . S
C998 C996 1.384 . S
C998 C999 1.372 1_545 S
C999 C998 1.372 1_565 S
C999 C1000 1.400 . S
C999 C1004 1.490 . S
C1000 H990 0.930 . S
C1000 C999 1.400 . S
C1000 C1003 1.386 . S
H1001 C1017 0.930 . S
H1002 C1018 0.931 . S
C1003 H991 0.929 . S
C1003 C997 1.390 . S
C1003 C1000 1.386 . S
C1004 C999 1.490 . S
C1004 C1006 1.395 1_565 S
C1004 C1007 1.403 . S
H1005 C1011 0.930 1_554 S
C1006 H992 0.930 . S
C1006 C1004 1.395 1_545 S
C1006 C1009 1.403 . S
C1007 C1004 1.403 . S
C1007 C1008 1.524 1_556 S
C1007 C1011 1.400 . S
C1008 H993 0.960 . S
C1008 H994 0.960 . S
C1008 H995 0.960 . S
C1008 C1007 1.524 1_554 S
C1009 C1006 1.403 . S
C1009 C1010 1.392 1_545 S
C1009 C1013 1.495 . S
C1010 C1009 1.392 1_565 S
C1010 C1011 1.385 . S
C1010 C1012 1.478 . S
C1011 H1005 0.930 1_556 S
C1011 C1007 1.400 . S
C1011 C1010 1.385 . S
C1012 C1010 1.478 . S
C1012 C1014 1.381 1_565 S
C1012 C1018 1.383 . S
C1013 C1009 1.495 . S
C1013 H1019 0.959 . S
C1013 H1020 0.961 . S
C1013 H1021 0.960 . S
C1014 C1012 1.381 1_545 S
C1014 C1015 1.394 . S
C1014 H1022 0.930 . S
C1015 C1014 1.394 . S
C1015 C1016 1.383 1_545 S
C1015 H1023 0.928 . S
C1016 C1015 1.383 1_565 S
C1016 C1017 1.377 . S
C1017 H1001 0.930 . S
C1017 C1016 1.377 . S
C1017 C1018 1.379 . S
C1018 H1002 0.931 . S
C1018 C1012 1.383 . S
C1018 C1017 1.379 . S
H1019 C1013 0.959 . S
H1020 C1013 0.961 . S
H1021 C1013 0.960 . S
H1022 C1014 0.930 . S
H1023 C1015 0.928 . S
H1024 C1032 0.929 . S
H1025 C1034 0.930 . S
H1026 C1036 0.930 . S
H1027 C1039 0.929 . S
H1028 C1042 0.930 . S
H1029 C1044 0.960 . S
H1030 C1044 0.960 . S
H1031 C1044 0.960 . S
C1032 H1024 0.929 . S
C1032 C1033 1.377 . S
C1032 C1034 1.384 . S
C1033 C1032 1.377 . S
C1033 C1039 1.390 . S
C1034 H1025 0.930 . S
C1034 C1032 1.384 . S
C1034 C1035 1.372 . S
C1035 C1034 1.372 . S
C1035 C1036 1.400 . S
C1035 C1040 1.490 . S
C1036 H1026 0.930 . S
C1036 C1035 1.400 . S
C1036 C1039 1.386 . S
H1037 C1053 0.930 . S
H1038 C1054 0.931 . S
C1039 H1027 0.929 . S
C1039 C1033 1.390 . S
C1039 C1036 1.386 . S
C1040 C1035 1.490 . S
C1040 C1042 1.395 . S
C1040 C1043 1.403 . S
H1041 C1047 0.930 . S
C1042 H1028 0.930 . S
C1042 C1040 1.395 . S
C1042 C1045 1.403 . S
C1043 C1040 1.403 . S
C1043 C1044 1.524 . S
C1043 C1047 1.400 . S
C1044 H1029 0.960 . S
C1044 H1030 0.960 . S
C1044 H1031 0.960 . S
C1044 C1043 1.524 . S
C1045 C1042 1.403 . S
C1045 C1046 1.392 . S
C1045 C1049 1.495 1_545 S
C1046 C1045 1.392 . S
C1046 C1047 1.385 . S
C1046 C1048 1.478 . S
C1047 H1041 0.930 . S
C1047 C1043 1.400 . S
C1047 C1046 1.385 . S
C1048 C1046 1.478 . S
C1048 C1050 1.381 . S
C1048 C1054 1.383 . S
C1049 C1045 1.495 1_565 S
C1049 H1055 0.959 . S
C1049 H1056 0.961 . S
C1049 H1057 0.960 1_565 S
C1050 C1048 1.381 . S
C1050 C1051 1.394 . S
C1050 H1058 0.930 . S
C1051 C1050 1.394 . S
C1051 C1052 1.383 . S
C1051 H1059 0.929 . S
C1052 C1051 1.383 . S
C1052 C1053 1.377 . S
C1053 H1037 0.930 . S
C1053 C1052 1.377 . S
C1053 C1054 1.379 . S
C1054 H1038 0.931 . S
C1054 C1048 1.383 . S
C1054 C1053 1.379 . S
H1055 C1049 0.959 . S
H1056 C1049 0.961 . S
H1057 C1049 0.960 1_545 S
H1058 C1050 0.930 . S
H1059 C1051 0.929 . S
H1060 C1068 0.929 . S
H1061 C1070 0.930 . S
H1062 C1072 0.930 . S
H1063 C1075 0.929 . S
H1064 C1078 0.930 . S
H1065 C1080 0.930 1_556 S
H1066 C1080 0.978 . S
H1067 C1080 0.947 1_556 S
C1068 H1060 0.929 . S
C1068 C1069 1.377 . S
C1068 C1070 1.384 . S
C1069 C1068 1.377 . S
C1069 C1075 1.390 . S
C1070 H1061 0.930 . S
C1070 C1068 1.384 . S
C1070 C1071 1.372 . S
C1071 C1070 1.372 . S
C1071 C1072 1.400 . S
C1071 C1076 1.490 . S
C1072 H1062 0.930 . S
C1072 C1071 1.400 . S
C1072 C1075 1.386 . S
H1073 C1089 0.931 1_556 S
H1074 C1090 0.931 1_556 S
C1075 H1063 0.929 . S
C1075 C1069 1.390 . S
C1075 C1072 1.386 . S
C1076 C1071 1.490 . S
C1076 C1078 1.395 . S
C1076 C1079 1.403 . S
H1077 C1083 0.930 . S
C1078 H1064 0.930 . S
C1078 C1076 1.395 . S
C1078 C1081 1.403 . S
C1079 C1076 1.403 . S
C1079 C1080 1.552 . S
C1079 C1083 1.400 . S
C1080 H1065 0.930 1_554 S
C1080 H1066 0.978 . S
C1080 H1067 0.947 1_554 S
C1080 C1079 1.552 . S
C1081 C1078 1.403 . S
C1081 C1082 1.392 . S
C1081 C1085 1.495 . S
C1082 C1081 1.392 . S
C1082 C1083 1.385 . S
C1082 C1084 1.478 . S
C1083 H1077 0.930 . S
C1083 C1079 1.400 . S
C1083 C1082 1.385 . S
C1084 C1082 1.478 . S
C1084 C1086 1.381 . S
C1084 C1090 1.383 . S
C1085 C1081 1.495 . S
C1085 H1091 0.959 . S
C1085 H1092 0.961 . S
C1085 H1093 0.960 . S
C1086 C1084 1.381 . S
C1086 C1087 1.394 . S
C1086 H1094 0.930 . S
C1087 C1086 1.394 . S
C1087 C1088 1.383 . S
C1087 H1095 0.929 . S
C1088 C1087 1.383 . S
C1088 C1089 1.376 . S
C1089 H1073 0.931 1_554 S
C1089 C1088 1.376 . S
C1089 C1090 1.379 . S
C1090 H1074 0.931 1_554 S
C1090 C1084 1.383 . S
C1090 C1089 1.379 . S
H1091 C1085 0.959 . S
H1092 C1085 0.961 . S
H1093 C1085 0.960 . S
H1094 C1086 0.930 . S
H1095 C1087 0.929 . S
H1096 C1104 0.929 . S
H1097 C1106 0.930 . S
H1098 C1108 0.930 . S
H1099 C1111 0.929 . S
H1100 C1114 0.930 . S
H1101 C1116 0.960 . S
H1102 C1116 0.960 . S
H1103 C1116 0.960 . S
C1104 H1096 0.929 . S
C1104 C1105 1.377 . S
C1104 C1106 1.384 . S
C1105 C1104 1.377 . S
C1105 C1111 1.390 . S
C1106 H1097 0.930 . S
C1106 C1104 1.384 . S
C1106 C1107 1.372 . S
C1107 C1106 1.372 . S
C1107 C1108 1.400 . S
C1107 C1112 1.490 . S
C1108 H1098 0.930 . S
C1108 C1107 1.400 . S
C1108 C1111 1.386 . S
H1109 C1125 0.930 . S
H1110 C1126 0.931 . S
C1111 H1099 0.929 . S
C1111 C1105 1.390 . S
C1111 C1108 1.386 . S
C1112 C1107 1.490 . S
C1112 C1114 1.395 . S
C1112 C1115 1.403 . S
H1113 C1119 0.930 . S
C1114 H1100 0.930 . S
C1114 C1112 1.395 . S
C1114 C1117 1.403 . S
C1115 C1112 1.403 . S
C1115 C1116 1.524 . S
C1115 C1119 1.400 . S
C1116 H1101 0.960 . S
C1116 H1102 0.960 . S
C1116 H1103 0.960 . S
C1116 C1115 1.524 . S
C1117 C1114 1.403 . S
C1117 C1118 1.392 . S
C1117 C1121 1.495 . S
C1118 C1117 1.392 . S
C1118 C1119 1.385 . S
C1118 C1120 1.478 . S
C1119 H1113 0.930 . S
C1119 C1115 1.400 . S
C1119 C1118 1.385 . S
C1120 C1118 1.478 . S
C1120 C1122 1.381 . S
C1120 C1126 1.383 . S
C1121 C1117 1.495 . S
C1121 H1127 0.959 . S
C1121 H1128 0.961 . S
C1121 H1129 0.960 . S
C1122 C1120 1.381 . S
C1122 C1123 1.394 . S
C1122 H1130 0.930 . S
C1123 C1122 1.394 . S
C1123 C1124 1.383 . S
C1123 H1131 0.929 . S
C1124 C1123 1.383 . S
C1124 C1125 1.377 . S
C1125 H1109 0.930 . S
C1125 C1124 1.377 . S
C1125 C1126 1.379 . S
C1126 H1110 0.931 . S
C1126 C1120 1.383 . S
C1126 C1125 1.379 . S
H1127 C1121 0.959 . S
H1128 C1121 0.961 . S
H1129 C1121 0.960 . S
H1130 C1122 0.930 . S
H1131 C1123 0.929 . S
H1132 C1140 0.929 . S
H1133 C1142 0.930 . S
H1134 C1144 0.937 . S
H1135 C1147 0.929 . S
H1136 C1150 0.930 . S
H1137 C1152 0.960 . S
H1138 C1152 0.960 . S
H1139 C1152 0.960 . S
C1140 H1132 0.929 . S
C1140 C1141 1.377 . S
C1140 C1142 1.384 . S
C1141 C1140 1.377 . S
C1141 C1147 1.390 . S
C1142 H1133 0.930 . S
C1142 C1140 1.384 . S
C1142 C1143 1.372 . S
C1143 C1142 1.372 . S
C1143 C1144 1.400 . S
C1143 C1148 1.490 . S
C1144 H1134 0.937 . S
C1144 C1143 1.400 . S
C1144 C1147 1.386 . S
H1145 C1161 0.930 1_455 S
H1146 C1162 0.931 1_454 S
C1147 H1135 0.929 . S
C1147 C1141 1.390 . S
C1147 C1144 1.386 . S
C1148 C1143 1.490 . S
C1148 C1150 1.395 . S
C1148 C1151 1.403 . S
H1149 C1155 0.930 1_554 S
C1150 H1136 0.930 . S
C1150 C1148 1.395 . S
C1150 C1153 1.403 . S
C1151 C1148 1.403 . S
C1151 C1152 1.524 1_556 S
C1151 C1155 1.400 . S
C1152 H1137 0.960 . S
C1152 H1138 0.960 . S
C1152 H1139 0.960 . S
C1152 C1151 1.524 1_554 S
C1153 C1150 1.403 . S
C1153 C1154 1.392 . S
C1153 C1157 1.496 1_655 S
C1154 C1153 1.392 . S
C1154 C1155 1.385 . S
C1154 C1156 1.478 . S
C1155 H1149 0.930 1_556 S
C1155 C1151 1.400 . S
C1155 C1154 1.385 . S
C1156 C1154 1.478 . S
C1156 C1158 1.381 . S
C1156 C1162 1.383 . S
C1157 C1153 1.496 1_455 S
C1157 H1163 0.959 . S
C1157 H1164 0.960 . S
C1157 H1165 0.961 1_455 S
C1158 C1156 1.381 . S
C1158 C1159 1.394 . S
C1158 H1166 0.930 . S
C1159 C1158 1.394 . S
C1159 C1160 1.383 . S
C1159 H1167 0.929 . S
C1160 C1159 1.383 . S
C1160 C1161 1.377 1_556 S
C1161 H1145 0.930 1_655 S
C1161 C1160 1.377 1_554 S
C1161 C1162 1.379 1_554 S
C1162 H1146 0.931 1_656 S
C1162 C1156 1.383 . S
C1162 C1161 1.379 1_556 S
H1163 C1157 0.959 . S
H1164 C1157 0.960 . S
H1165 C1157 0.961 1_655 S
H1166 C1158 0.930 . S
H1167 C1159 0.929 . S
H1168 C1176 0.929 . S
H1169 C1178 0.930 . S
H1170 C1180 0.930 . S
H1171 C1183 0.929 . S
H1172 C1186 0.930 . S
H1173 C1188 0.960 . S
H1174 C1188 0.960 . S
H1175 C1188 0.960 . S
C1176 H1168 0.929 . S
C1176 C1177 1.377 . S
C1176 C1178 1.384 . S
C1177 C1176 1.377 . S
C1177 C1183 1.390 . S
C1178 H1169 0.930 . S
C1178 C1176 1.384 . S
C1178 C1179 1.372 . S
C1179 C1178 1.372 . S
C1179 C1180 1.400 . S
C1179 C1184 1.490 . S
C1180 H1170 0.930 . S
C1180 C1179 1.400 . S
C1180 C1183 1.386 . S
H1181 C1197 0.930 . S
H1182 C1198 0.931 . S
C1183 H1171 0.929 . S
C1183 C1177 1.390 . S
C1183 C1180 1.386 . S
C1184 C1179 1.490 . S
C1184 C1186 1.395 . S
C1184 C1187 1.403 . S
H1185 C1191 0.930 . S
C1186 H1172 0.930 . S
C1186 C1184 1.395 . S
C1186 C1189 1.403 . S
C1187 C1184 1.403 . S
C1187 C1188 1.524 . S
C1187 C1191 1.400 . S
C1188 H1173 0.960 . S
C1188 H1174 0.960 . S
C1188 H1175 0.960 . S
C1188 C1187 1.524 . S
C1189 C1186 1.403 . S
C1189 C1190 1.392 . S
C1189 C1193 1.495 . S
C1190 C1189 1.392 . S
C1190 C1191 1.385 . S
C1190 C1192 1.478 . S
C1191 H1185 0.930 . S
C1191 C1187 1.400 . S
C1191 C1190 1.385 . S
C1192 C1190 1.478 . S
C1192 C1194 1.381 . S
C1192 C1198 1.383 . S
C1193 C1189 1.495 . S
C1193 H1199 0.959 . S
C1193 H1200 0.961 . S
C1193 H1201 0.960 . S
C1194 C1192 1.381 . S
C1194 C1195 1.394 . S
C1194 H1202 0.930 . S
C1195 C1194 1.394 . S
C1195 C1196 1.383 . S
C1195 H1203 0.929 . S
C1196 C1195 1.383 . S
C1196 C1197 1.377 . S
C1197 H1181 0.930 . S
C1197 C1196 1.377 . S
C1197 C1198 1.379 . S
C1198 H1182 0.931 . S
C1198 C1192 1.383 . S
C1198 C1197 1.379 . S
H1199 C1193 0.959 . S
H1200 C1193 0.961 . S
H1201 C1193 0.960 . S
H1202 C1194 0.930 . S
H1203 C1195 0.929 . S
H1204 C1212 0.929 . S
H1205 C1214 0.930 . S
H1206 C1216 0.930 . S
H1207 C1219 0.929 . S
H1208 C1222 0.930 . S
H1209 C1224 0.960 . S
H1210 C1224 0.960 . S
H1211 C1224 0.960 . S
C1212 H1204 0.929 . S
C1212 C1213 1.377 . S
C1212 C1214 1.384 . S
C1213 C1212 1.377 . S
C1213 C1219 1.390 . S
C1214 H1205 0.930 . S
C1214 C1212 1.384 . S
C1214 C1215 1.372 . S
C1215 C1214 1.372 . S
C1215 C1216 1.400 . S
C1215 C1220 1.490 . S
C1216 H1206 0.930 . S
C1216 C1215 1.400 . S
C1216 C1219 1.386 . S
H1217 C1233 0.930 . S
H1218 C1234 0.931 . S
C1219 H1207 0.929 . S
C1219 C1213 1.390 . S
C1219 C1216 1.386 . S
C1220 C1215 1.490 . S
C1220 C1222 1.395 . S
C1220 C1223 1.403 . S
H1221 C1227 0.930 . S
C1222 H1208 0.930 . S
C1222 C1220 1.395 . S
C1222 C1225 1.403 . S
C1223 C1220 1.403 . S
C1223 C1224 1.524 . S
C1223 C1227 1.400 . S
C1224 H1209 0.960 . S
C1224 H1210 0.960 . S
C1224 H1211 0.960 . S
C1224 C1223 1.524 . S
C1225 C1222 1.403 . S
C1225 C1226 1.392 . S
C1225 C1229 1.495 1_455 S
C1226 C1225 1.392 . S
C1226 C1227 1.385 . S
C1226 C1228 1.478 . S
C1227 H1221 0.930 . S
C1227 C1223 1.400 . S
C1227 C1226 1.385 . S
C1228 C1226 1.478 . S
C1228 C1230 1.381 . S
C1228 C1234 1.383 . S
C1229 C1225 1.495 1_655 S
C1229 H1235 0.959 . S
C1229 H1236 0.961 . S
C1229 H1237 0.960 . S
C1230 C1228 1.381 . S
C1230 C1231 1.394 . S
C1230 H1238 0.930 . S
C1231 C1230 1.394 . S
C1231 C1232 1.383 . S
C1231 H1239 0.929 . S
C1232 C1231 1.383 . S
C1232 C1233 1.377 . S
C1233 H1217 0.930 . S
C1233 C1232 1.377 . S
C1233 C1234 1.379 . S
C1234 H1218 0.931 . S
C1234 C1228 1.383 . S
C1234 C1233 1.379 . S
H1235 C1229 0.959 . S
H1236 C1229 0.961 . S
H1237 C1229 0.960 . S
H1238 C1230 0.930 . S
H1239 C1231 0.929 . S
H1240 C1248 0.929 . S
H1241 C1250 0.930 . S
H1242 C1252 0.930 . S
H1243 C1255 0.929 . S
H1244 C1258 0.930 . S
H1245 C1260 0.960 . S
H1246 C1260 0.960 . S
H1247 C1260 0.960 . S
C1248 H1240 0.929 . S
C1248 C1249 1.377 . S
C1248 C1250 1.384 . S
C1249 C1248 1.377 . S
C1249 C1255 1.390 . S
C1250 H1241 0.930 . S
C1250 C1248 1.384 . S
C1250 C1251 1.372 . S
C1251 C1250 1.372 . S
C1251 C1252 1.400 . S
C1251 C1256 1.490 . S
C1252 H1242 0.930 . S
C1252 C1251 1.400 . S
C1252 C1255 1.386 . S
H1253 C1269 0.930 . S
H1254 C1270 0.931 . S
C1255 H1243 0.929 . S
C1255 C1249 1.390 . S
C1255 C1252 1.386 . S
C1256 C1251 1.490 . S
C1256 C1258 1.395 . S
C1256 C1259 1.403 . S
H1257 C1263 0.930 . S
C1258 H1244 0.930 . S
C1258 C1256 1.395 . S
C1258 C1261 1.403 . S
C1259 C1256 1.403 . S
C1259 C1260 1.524 . S
C1259 C1263 1.400 . S
C1260 H1245 0.960 . S
C1260 H1246 0.960 . S
C1260 H1247 0.960 . S
C1260 C1259 1.524 . S
C1261 C1258 1.403 . S
C1261 C1262 1.392 . S
C1261 C1265 1.495 . S
C1262 C1261 1.392 . S
C1262 C1263 1.385 . S
C1262 C1264 1.478 . S
C1263 H1257 0.930 . S
C1263 C1259 1.400 . S
C1263 C1262 1.385 . S
C1264 C1262 1.478 . S
C1264 C1266 1.381 . S
C1264 C1270 1.383 . S
C1265 C1261 1.495 . S
C1265 H1271 0.959 . S
C1265 H1272 0.961 . S
C1265 H1273 0.960 . S
C1266 C1264 1.381 . S
C1266 C1267 1.394 . S
C1266 H1274 0.930 . S
C1267 C1266 1.394 . S
C1267 C1268 1.383 . S
C1267 H1275 0.929 . S
C1268 C1267 1.383 . S
C1268 C1269 1.377 . S
C1269 H1253 0.930 . S
C1269 C1268 1.377 . S
C1269 C1270 1.379 . S
C1270 H1254 0.931 . S
C1270 C1264 1.383 . S
C1270 C1269 1.379 . S
H1271 C1265 0.959 . S
H1272 C1265 0.961 . S
H1273 C1265 0.960 . S
H1274 C1266 0.930 . S
H1275 C1267 0.929 . S
C421 C21 1.665 . S
C440 C338 1.621 . S
C457 C61 1.613 . S
C476 C362 1.595 . S
C512 C382 1.361 . S
C493 C82 1.358 . S
C529 C135 1.435 . S
C548 C405 1.443 . S
C584 C364 1.730 . S
C565 C15 1.754 . S
C620 C340 1.709 . S
C601 C42 1.732 . S
C656 C408 1.622 . S
C637 C101 1.675 . S
C692 C385 1.530 . S
C673 C122 1.605 . S
C709 C2 1.387 . S
C728 C410 1.362 . S
C764 C359 1.634 1_556 S
C745 C95 1.635 . S
C781 C141 1.714 . S
C800 C337 1.707 . S
C817 C55 1.327 . S
C836 C387 1.318 . S
C872 C341 1.796 . S
C853 C181 1.701 . S
C889 C202 1.629 . S
C908 C363 1.703 . S
C925 C255 1.844 . S
C944 C383 1.878 . S
C961 C295 1.859 . S
C980 C406 1.881 . S
C997 C175 1.625 . S
C1016 C361 1.635 1_556 S
C1052 C339 1.682 . S
C1033 C221 1.589 . S
C1088 C409 1.451 . S
C1069 C242 1.440 . S
C1124 C386 1.588 . S
C1105 C301 1.626 . S
C1141 C162 1.951 . S
C1160 C407 1.982 . S
C1196 C360 1.589 . S
C1177 C261 1.525 . S
C1232 C336 1.622 . S
C1213 C282 1.627 . S
C1249 C215 2.025 . S
C1268 C384 2.002 . S
