# Generated by pormake.
# Topology cml, (3,6)-cn, num edge types: 1
# Building blocks:
#     Node 0, Type 0, BuildingBlock: WUSLED_clean_sbu_0, # of connection points: 3
#     Node 1, Type 0, BuildingBlock: WUSLED_clean_sbu_0, # of connection points: 3
#     Node 2, Type 0, BuildingBlock: WUSLED_clean_sbu_0, # of connection points: 3
#     Node 3, Type 0, BuildingBlock: WUSLED_clean_sbu_0, # of connection points: 3
#     Node 4, Type 0, BuildingBlock: WUSLED_clean_sbu_0, # of connection points: 3
#     Node 5, Type 0, BuildingBlock: WUSLED_clean_sbu_0, # of connection points: 3
#     Node 6, Type 0, BuildingBlock: WUSLED_clean_sbu_0, # of connection points: 3
#     Node 7, Type 0, BuildingBlock: WUSLED_clean_sbu_0, # of connection points: 3
#     Node 8, Type 1, BuildingBlock: IZENUY_clean_sbu_0, # of connection points: 6
#     Node 9, Type 1, BuildingBlock: IZENUY_clean_sbu_0, # of connection points: 6
#     Node 10, Type 1, BuildingBlock: IZENUY_clean_sbu_0, # of connection points: 6
#     Node 11, Type 1, BuildingBlock: IZENUY_clean_sbu_0, # of connection points: 6
#     Edge 12, Type (0, 1), BuildingBlock: OJICUG_clean_linker_0, # of connection points: 2
#     Edge 13, Type (0, 1), BuildingBlock: OJICUG_clean_linker_0, # of connection points: 2
#     Edge 14, Type (0, 1), BuildingBlock: OJICUG_clean_linker_0, # of connection points: 2
#     Edge 15, Type (0, 1), BuildingBlock: OJICUG_clean_linker_0, # of connection points: 2
#     Edge 16, Type (0, 1), BuildingBlock: OJICUG_clean_linker_0, # of connection points: 2
#     Edge 17, Type (0, 1), BuildingBlock: OJICUG_clean_linker_0, # of connection points: 2
#     Edge 18, Type (0, 1), BuildingBlock: OJICUG_clean_linker_0, # of connection points: 2
#     Edge 19, Type (0, 1), BuildingBlock: OJICUG_clean_linker_0, # of connection points: 2
#     Edge 20, Type (0, 1), BuildingBlock: OJICUG_clean_linker_0, # of connection points: 2
#     Edge 21, Type (0, 1), BuildingBlock: OJICUG_clean_linker_0, # of connection points: 2
#     Edge 22, Type (0, 1), BuildingBlock: OJICUG_clean_linker_0, # of connection points: 2
#     Edge 23, Type (0, 1), BuildingBlock: OJICUG_clean_linker_0, # of connection points: 2
#     Edge 24, Type (0, 1), BuildingBlock: OJICUG_clean_linker_0, # of connection points: 2
#     Edge 25, Type (0, 1), BuildingBlock: OJICUG_clean_linker_0, # of connection points: 2
#     Edge 26, Type (0, 1), BuildingBlock: OJICUG_clean_linker_0, # of connection points: 2
#     Edge 27, Type (0, 1), BuildingBlock: OJICUG_clean_linker_0, # of connection points: 2
#     Edge 28, Type (0, 1), BuildingBlock: OJICUG_clean_linker_0, # of connection points: 2
#     Edge 29, Type (0, 1), BuildingBlock: OJICUG_clean_linker_0, # of connection points: 2
#     Edge 30, Type (0, 1), BuildingBlock: OJICUG_clean_linker_0, # of connection points: 2
#     Edge 31, Type (0, 1), BuildingBlock: OJICUG_clean_linker_0, # of connection points: 2
#     Edge 32, Type (0, 1), BuildingBlock: OJICUG_clean_linker_0, # of connection points: 2
#     Edge 33, Type (0, 1), BuildingBlock: OJICUG_clean_linker_0, # of connection points: 2
#     Edge 34, Type (0, 1), BuildingBlock: OJICUG_clean_linker_0, # of connection points: 2
#     Edge 35, Type (0, 1), BuildingBlock: OJICUG_clean_linker_0, # of connection points: 2
# Relax obj value: 0.051
# Max RMSD: 0.068
# Mean RMSD: 0.065
data_MOF--net-cml--node1-WUSLED_clean_sbu_0--node2-IZENUY_clean_sbu_0--edge1-OJICUG_clean_linker_0
_symmetry_space_group_name_H-M    P1
_symmetry_Int_Tables_number       1
_symmetry_cell_setting            triclinic
loop_
_symmetry_equiv_pos_as_xyz
'x, y, z'
_cell_length_a     37.111759
_cell_length_b     41.661249
_cell_length_c     38.110712
_cell_angle_alpha  90.403907
_cell_angle_beta   89.7053
_cell_angle_gamma 90.402192
loop_
_atom_site_label
_atom_site_type_symbol
_atom_site_fract_x
_atom_site_fract_y
_atom_site_fract_z
_atom_type_partial_charge
C0 C 0.29901 0.48373 0.97083 0.0
C1 C 0.32063 0.49972 0.99567 0.0
C2 C 0.3477 0.53266 0.9493 0.0
C3 C 0.34459 0.52413 0.98504 0.0
C4 C 0.3258 0.51627 0.92485 0.0
C5 C 0.30168 0.4924 0.93555 0.0
U6 U 0.26589 0.41532 0.03101 0.0
O7 O 0.21067 0.39698 0.04053 0.0
O8 O 0.25159 0.36576 1.01647 0.0
C9 C 0.21797 0.36866 0.02688 0.0
C10 C 0.27457 0.45696 0.98012 0.0
C11 C 0.19032 0.35291 1.00482 0.0
C12 C 0.16184 0.34083 0.94859 0.0
C13 C 0.18542 0.35982 0.96906 0.0
C14 C 0.14722 0.30906 0.99973 0.0
C15 C 0.14335 0.31454 0.96358 0.0
C16 C 0.17042 0.32791 1.01995 0.0
C17 C 0.3251 0.41024 0.11817 0.0
C18 C 0.32923 0.37613 0.16977 0.0
C19 C 0.37277 0.41883 0.16045 0.0
C20 C 0.35554 0.42713 0.12957 0.0
C21 C 0.35982 0.3935 0.18131 0.0
C22 C 0.31186 0.3845 0.13829 0.0
C23 C 0.30971 0.42051 0.08456 0.0
O24 O 0.28927 0.42839 0.97992 0.0
O25 O 0.25235 0.46155 1.00666 0.0
O26 O 0.27769 0.43382 0.08423 0.0
O27 O 0.31726 0.40359 0.0563 0.0
H28 H 0.31915 0.49325 1.02313 0.0
H29 H 0.3605 0.53627 1.00488 0.0
H30 H 0.32779 0.52108 0.89706 0.0
H31 H 0.2855 0.48014 0.91595 0.0
H32 H 0.15931 0.34583 0.92087 0.0
H33 H 0.20055 0.37909 0.95684 0.0
H34 H 0.13273 0.28966 1.01243 0.0
H35 H 0.1737 0.32223 0.04746 0.0
H36 H 0.31859 0.35646 0.18519 0.0
H37 H 0.39677 0.4322 0.16769 0.0
H38 H 0.3664 0.44681 0.11424 0.0
H39 H 0.28841 0.37101 0.12974 0.0
C40 C 0.69666 0.66314 0.62289 0.0
C41 C 0.66969 0.63931 0.62502 0.0
C42 C 0.64982 0.66082 0.68165 0.0
C43 C 0.64649 0.63809 0.65428 0.0
C44 C 0.67751 0.68398 0.67957 0.0
C45 C 0.70059 0.68511 0.65054 0.0
U46 U 0.72881 0.63465 0.53258 0.0
O47 O 0.74276 0.66163 0.485 0.0
O48 O 0.78352 0.63134 0.50982 0.0
C49 C 0.77623 0.65149 0.48446 0.0
C50 C 0.72045 0.6662 0.59191 0.0
C51 C 0.80433 0.67516 0.47493 0.0
C52 C 0.83072 0.72883 0.47662 0.0
C53 C 0.80595 0.70613 0.48966 0.0
C54 C 0.8531 0.68946 0.43504 0.0
C55 C 0.85411 0.72094 0.44857 0.0
C56 C 0.82848 0.66695 0.44802 0.0
C57 C 0.67547 0.55756 0.50085 0.0
C58 C 0.66917 0.52995 0.44476 0.0
C59 C 0.64023 0.50855 0.49682 0.0
C60 C 0.65427 0.5338 0.5166 0.0
C61 C 0.64725 0.50628 0.46064 0.0
C62 C 0.68326 0.55553 0.4648 0.0
C63 C 0.68667 0.5846 0.52323 0.0
O64 O 0.74437 0.64338 0.58753 0.0
O65 O 0.7045 0.67433 0.5626 0.0
O66 O 0.67814 0.61365 0.51311 0.0
O67 O 0.71836 0.58286 0.53826 0.0
H68 H 0.66627 0.62203 0.60389 0.0
H69 H 0.62537 0.62002 0.655 0.0
H70 H 0.68126 0.70146 0.70042 0.0
H71 H 0.72135 0.7035 0.6495 0.0
H72 H 0.83065 0.75283 0.48772 0.0
H73 H 0.78752 0.71299 0.51049 0.0
H74 H 0.87122 0.68215 0.41416 0.0
H75 H 0.82773 0.64315 0.43636 0.0
H76 H 0.67513 0.52884 0.41693 0.0
H77 H 0.62273 0.49141 0.50982 0.0
H78 H 0.64771 0.53521 0.54432 0.0
H79 H 0.69958 0.5738 0.45219 0.0
C80 C 0.697 0.48122 0.96453 0.0
C81 C 0.67697 0.49665 0.99103 0.0
C82 C 0.65047 0.5326 0.94775 0.0
C83 C 0.65406 0.52221 0.98276 0.0
C84 C 0.67037 0.51647 0.92148 0.0
C85 C 0.69346 0.49135 0.92984 0.0
U86 U 0.72966 0.41377 1.02384 0.0
O87 O 0.74282 0.3636 1.01113 0.0
O88 O 0.78436 0.3954 0.03357 0.0
C89 C 0.77653 0.3667 1.02103 0.0
C90 C 0.72104 0.45403 0.97194 0.0
C91 C 0.804 0.35053 0.99911 0.0
C92 C 0.83694 0.34121 0.94434 0.0
C93 C 0.81149 0.35884 0.96408 0.0
C94 C 0.84708 0.30713 0.99444 0.0
C95 C 0.85518 0.31511 0.95942 0.0
C96 C 0.8221 0.32468 1.01395 0.0
C97 C 0.67584 0.41097 0.11346 0.0
C98 C 0.66519 0.36965 0.15717 0.0
C99 C 0.64082 0.423 0.16572 0.0
C100 C 0.6561 0.43262 0.13404 0.0
C101 C 0.64479 0.39139 0.17735 0.0
C102 C 0.68088 0.37946 0.12533 0.0
C103 C 0.68749 0.42192 0.07862 0.0
O104 O 0.74484 0.45852 0.99698 0.0
O105 O 0.7053 0.42572 0.97313 0.0
O106 O 0.67881 0.40381 0.05156 0.0
O107 O 0.71943 0.43552 0.07588 0.0
H108 H 0.6791 0.48899 1.01805 0.0
H109 H 0.63954 0.53395 1.00388 0.0
H110 H 0.66776 0.52272 0.89412 0.0
H111 H 0.70835 0.47952 0.90898 0.0
H112 H 0.84254 0.34815 0.91752 0.0
H113 H 0.79762 0.37869 0.95205 0.0
H114 H 0.85962 0.28678 1.00686 0.0
H115 H 0.81648 0.31763 0.04076 0.0
H116 H 0.66852 0.34514 0.1658 0.0
H117 H 0.62476 0.44001 0.18058 0.0
H118 H 0.65157 0.45689 0.12507 0.0
H119 H 0.696 0.36239 0.10967 0.0
C120 C 0.30665 0.6492 0.6261 0.0
C121 C 0.33351 0.62605 0.63081 0.0
C122 C 0.35353 0.6538 0.6843 0.0
C123 C 0.35676 0.62829 0.65984 0.0
C124 C 0.32581 0.67613 0.67964 0.0
C125 C 0.30284 0.67387 0.65091 0.0
U126 U 0.26507 0.62575 0.5339 0.0
O127 O 0.20833 0.63198 0.51813 0.0
O128 O 0.25169 0.66049 0.49302 0.0
C129 C 0.21733 0.65292 0.49388 0.0
C130 C 0.28291 0.65019 0.59522 0.0
C131 C 0.19136 0.67681 0.48211 0.0
C132 C 0.14911 0.72047 0.49067 0.0
C133 C 0.17302 0.69792 0.50467 0.0
C134 C 0.1624 0.70084 0.43204 0.0
C135 C 0.14358 0.72218 0.45405 0.0
C136 C 0.18571 0.67839 0.44596 0.0
C137 C 0.31599 0.54906 0.49094 0.0
C138 C 0.32557 0.51281 0.44172 0.0
C139 C 0.36744 0.51384 0.49039 0.0
C140 C 0.347 0.53747 0.50695 0.0
C141 C 0.35723 0.50148 0.4574 0.0
C142 C 0.30506 0.5365 0.45843 0.0
C143 C 0.29766 0.57665 0.50639 0.0
O144 O 0.2976 0.65935 0.56547 0.0
O145 O 0.25832 0.62753 0.5915 0.0
O146 O 0.26854 0.57332 0.52591 0.0
O147 O 0.31038 0.60596 0.50316 0.0
H148 H 0.33693 0.60678 0.61187 0.0
H149 H 0.37786 0.61067 0.66251 0.0
H150 H 0.3218 0.69558 0.6982 0.0
H151 H 0.28221 0.69189 0.64777 0.0
H152 H 0.13484 0.73631 0.50849 0.0
H153 H 0.17718 0.69702 0.53275 0.0
H154 H 0.15984 0.70178 0.40379 0.0
H155 H 0.19984 0.66234 0.42819 0.0
H156 H 0.31687 0.5036 0.41648 0.0
H157 H 0.39199 0.50612 0.50292 0.0
H158 H 0.35596 0.54737 0.53181 0.0
H159 H 0.28129 0.54561 0.44558 0.0
C160 C 0.79857 0.98653 0.97189 0.0
C161 C 0.82155 1.00056 0.99703 0.0
C162 C 0.84664 0.0362 0.95246 0.0
C163 C 0.84536 0.02541 0.98739 0.0
C164 C 0.82264 0.0227 0.92795 0.0
C165 C 0.79898 0.99813 0.93756 0.0
U166 U 0.76737 0.91671 0.03035 0.0
O167 O 0.71277 0.89631 0.03779 0.0
O168 O 0.75615 0.8665 1.01578 0.0
C169 C 0.72198 0.86823 0.02464 0.0
C170 C 0.77533 0.95867 0.97978 0.0
C171 C 0.69614 0.8512 1.00156 0.0
C172 C 0.65724 0.84598 0.9502 0.0
C173 C 0.68167 0.86419 0.9707 0.0
C174 C 0.66256 0.80196 0.99089 0.0
C175 C 0.64705 0.81468 0.96042 0.0
C176 C 0.68644 0.82 1.01117 0.0
C177 C 0.82305 0.91359 0.11951 0.0
C178 C 0.83461 0.87396 0.1648 0.0
C179 C 0.86258 0.92657 0.16817 0.0
C180 C 0.84545 0.9353 0.1373 0.0
C181 C 0.85757 0.89582 0.18243 0.0
C182 C 0.81742 0.88279 0.13345 0.0
C183 C 0.80919 0.92391 0.08526 0.0
O184 O 0.79169 0.93083 0.98005 0.0
O185 O 0.75188 0.96215 1.00548 0.0
O186 O 0.77671 0.93622 0.08366 0.0
O187 O 0.81831 0.90708 0.05738 0.0
H188 H 0.82169 0.9918 1.02373 0.0
H189 H 0.86367 0.03526 1.00679 0.0
H190 H 0.8226 0.03078 0.90099 0.0
H191 H 0.78145 0.98765 0.91786 0.0
H192 H 0.64582 0.85656 0.92692 0.0
H193 H 0.68905 0.88824 0.96263 0.0
H194 H 0.65631 0.77776 0.99926 0.0
H195 H 0.69752 0.80938 0.03461 0.0
H196 H 0.83007 0.85012 0.17516 0.0
H197 H 0.88066 0.94381 0.18032 0.0
H198 H 0.85057 0.95899 0.12671 0.0
H199 H 0.80037 0.86557 0.11992 0.0
C200 C 0.19389 0.16388 0.62227 0.0
C201 C 0.16744 0.13969 0.62541 0.0
C202 C 0.14614 0.16377 0.6804 0.0
C203 C 0.14378 0.13958 0.65438 0.0
C204 C 0.17338 0.18721 0.67733 0.0
C205 C 0.19685 0.18726 0.64863 0.0
U206 U 0.23029 0.13652 0.53175 0.0
O207 O 0.24729 0.16564 0.48667 0.0
O208 O 0.28655 0.13459 0.51271 0.0
C209 C 0.28075 0.15558 0.4878 0.0
C210 C 0.21833 0.16621 0.59171 0.0
C211 C 0.30937 0.17932 0.48028 0.0
C212 C 0.33619 0.23276 0.4845 0.0
C213 C 0.31125 0.20968 0.49653 0.0
C214 C 0.35837 0.19472 0.44134 0.0
C215 C 0.35929 0.22581 0.45593 0.0
C216 C 0.33366 0.17191 0.45328 0.0
C217 C 0.18003 0.05927 0.49384 0.0
C218 C 0.15869 0.03723 0.43822 0.0
C219 C 0.15289 1.00625 0.4915 0.0
C220 C 0.16961 0.03079 0.51035 0.0
C221 C 0.14567 1.00967 0.45557 0.0
C222 C 0.17567 0.06205 0.45733 0.0
C223 C 0.18999 0.08634 0.51701 0.0
O224 O 0.24209 0.14318 0.58792 0.0
O225 O 0.20351 0.17478 0.562 0.0
O226 O 0.18174 0.11564 0.50746 0.0
O227 O 0.22028 0.08441 0.53456 0.0
H228 H 0.16479 0.1213 0.60532 0.0
H229 H 0.12309 0.12116 0.65589 0.0
H230 H 0.1766 0.2057 0.69719 0.0
H231 H 0.21723 0.20593 0.64682 0.0
H232 H 0.33624 0.2564 0.49651 0.0
H233 H 0.29276 0.21586 0.51755 0.0
H234 H 0.37638 0.18807 0.4201 0.0
H235 H 0.33275 0.14859 0.4405 0.0
H236 H 0.15381 0.04048 0.41049 0.0
H237 H 0.14423 0.98502 0.50556 0.0
H238 H 0.17268 0.02814 0.53845 0.0
H239 H 0.18368 0.08385 0.44398 0.0
C240 C 0.1984 0.97919 0.96432 0.0
C241 C 0.17687 0.99452 0.98974 0.0
C242 C 0.15112 0.02927 0.9448 0.0
C243 C 0.15363 1.01945 0.98013 0.0
C244 C 0.1727 1.01337 0.91966 0.0
C245 C 0.19613 0.98892 0.92936 0.0
U246 U 0.23076 0.9119 0.02485 0.0
O247 O 0.24573 0.86222 1.01215 0.0
O248 O 0.2858 0.89478 0.0358 0.0
C249 C 0.27906 0.86597 1.02299 0.0
C250 C 0.22274 0.95249 0.97302 0.0
C251 C 0.30738 0.85027 1.00174 0.0
C252 C 0.33786 0.83837 0.9463 0.0
C253 C 0.31359 0.85713 0.96611 0.0
C254 C 0.35053 0.80683 0.99784 0.0
C255 C 0.35575 0.81232 0.96182 0.0
C256 C 0.32666 0.82552 1.01745 0.0
C257 C 0.17238 0.9077 0.11246 0.0
C258 C 0.16706 0.8709 0.16172 0.0
C259 C 0.12965 0.91823 0.15926 0.0
C260 C 0.14567 0.9268 0.12765 0.0
C261 C 0.14019 0.89038 0.17703 0.0
C262 C 0.18315 0.87954 0.12951 0.0
C263 C 0.18638 0.91814 0.07821 0.0
O264 O 0.24522 0.95743 0.9991 0.0
O265 O 0.20781 0.92382 0.97346 0.0
O266 O 0.17928 0.90006 0.05069 0.0
O267 O 0.21809 0.93235 0.07699 0.0
H268 H 0.17805 0.98725 1.01695 0.0
H269 H 0.13795 0.0311 1.0005 0.0
H270 H 0.17112 1.0192 0.8921 0.0
H271 H 0.21225 0.97722 0.9093 0.0
H272 H 0.34145 0.84335 0.91864 0.0
H273 H 0.29896 0.87621 0.95347 0.0
H274 H 0.36448 0.78756 1.01087 0.0
H275 H 0.3224 0.81989 0.04489 0.0
H276 H 0.17577 0.84927 0.17469 0.0
H277 H 0.10836 0.93336 0.16947 0.0
H278 H 0.1367 0.94837 0.11467 0.0
H279 H 0.20366 0.86434 0.11796 0.0
C280 C 0.81187 0.14118 0.62455 0.0
C281 C 0.8363 0.11696 0.63275 0.0
C282 C 0.85495 0.14724 0.68472 0.0
C283 C 0.85772 0.11994 0.66281 0.0
C284 C 0.8296 0.17089 0.67661 0.0
C285 C 0.80834 0.16787 0.64679 0.0
U286 U 0.76469 0.12533 0.53111 0.0
O287 O 0.70708 0.13785 0.52557 0.0
O288 O 0.7499 0.16811 0.50151 0.0
C289 C 0.71547 0.16405 0.50823 0.0
C290 C 0.79042 0.14069 0.59254 0.0
C291 C 0.68902 0.1806 0.48677 0.0
C292 C 0.64354 0.22175 0.48518 0.0
C293 C 0.66649 0.20228 0.50408 0.0
C294 C 0.66449 0.1974 0.4309 0.0
C295 C 0.64199 0.21955 0.44837 0.0
C296 C 0.6881 0.17809 0.45004 0.0
C297 C 0.80956 0.05027 0.48325 0.0
C298 C 0.8281 1.01166 0.43901 0.0
C299 C 0.85939 1.01442 0.49465 0.0
C300 C 0.8365 0.03925 0.50576 0.0
C301 C 0.85559 1.0006 0.46093 0.0
C302 C 0.80534 0.03609 0.45015 0.0
C303 C 0.78641 0.07768 0.49142 0.0
O304 O 0.80487 0.15104 0.56314 0.0
O305 O 0.76423 0.11956 0.58864 0.0
O306 O 0.76089 0.07437 0.51525 0.0
O307 O 0.80113 0.10644 0.49052 0.0
H308 H 0.83925 0.09622 0.61569 0.0
H309 H 0.87717 0.1014 0.6683 0.0
H310 H 0.82629 0.19187 0.69324 0.0
H311 H 0.7894 0.18673 0.64079 0.0
H312 H 0.62756 0.23911 0.49958 0.0
H313 H 0.66748 0.20495 0.53238 0.0
H314 H 0.66382 0.19502 0.4026 0.0
H315 H 0.70579 0.16163 0.43629 0.0
H316 H 0.82481 1.0022 0.41268 0.0
H317 H 0.88015 1.00623 0.51226 0.0
H318 H 0.84014 0.05007 0.53144 0.0
H319 H 0.78485 0.04457 0.43235 0.0
Fe320 Fe 1.00091 0.82976 0.33457 0.0
Fe321 Fe 0.00295 0.86344 0.40662 0.0
O322 O 1.00196 0.8655 0.36028 0.0
Fe323 Fe 1.00178 0.90359 0.33999 0.0
O324 O 0.95905 0.89501 0.31933 0.0
O325 O 0.97231 0.84668 0.29967 0.0
O326 O 0.95955 0.81584 0.35589 0.0
C327 C 0.95575 0.81245 0.38864 0.0
C328 C 0.04751 0.86707 0.29587 0.0
O329 O 0.97721 0.82603 0.40971 0.0
C330 C 0.04963 0.91597 0.392 0.0
O331 O 0.02919 0.80692 0.36519 0.0
O332 O 0.04513 0.84223 0.40564 0.0
O333 O 0.02689 0.89063 0.3012 0.0
O334 O 0.04226 0.8407 0.31127 0.0
C335 C 0.95557 0.91203 0.39833 0.0
O336 O 0.02901 0.90061 0.41254 0.0
O337 O 0.04477 0.9148 0.35933 0.0
C338 C 0.04958 0.81565 0.39028 0.0
O339 O 0.96055 0.88441 0.41043 0.0
O340 O 0.97638 0.92367 0.37525 0.0
C341 C 0.95258 0.8715 0.29924 0.0
Fe342 Fe 1.00168 0.17537 0.9096 0.0
Fe343 Fe 1.00134 0.13472 0.84257 0.0
O344 O 1.00067 0.17302 0.86312 0.0
Fe345 Fe 0.99947 0.20862 0.83759 0.0
O346 O 0.02814 0.2323 0.86787 0.0
O347 O 0.04381 0.19758 0.90838 0.0
O348 O 0.0281 0.13855 0.91586 0.0
C349 C 0.04911 0.1239 0.8951 0.0
C350 C 0.95534 0.2271 0.89179 0.0
O351 O 0.04427 0.12502 0.86243 0.0
C352 C 0.95228 0.16522 0.80148 0.0
O353 O 0.95933 0.15327 0.9136 0.0
O354 O 0.97576 0.11474 0.8774 0.0
O355 O 0.95826 0.22278 0.85906 0.0
O356 O 0.97586 0.21257 0.91267 0.0
C357 C 0.04569 0.17174 0.7975 0.0
O358 O 0.95885 0.14176 0.82113 0.0
O359 O 0.97084 0.1909 0.80314 0.0
C360 C 0.95457 0.12555 0.90071 0.0
O361 O 0.02659 0.14728 0.8038 0.0
O362 O 0.04045 0.19787 0.81373 0.0
C363 C 0.04866 0.22395 0.89274 0.0
Fe364 Fe 0.50195 0.33082 0.33318 0.0
Fe365 Fe 0.50629 0.36566 0.40479 0.0
O366 O 0.50469 0.3668 0.35837 0.0
Fe367 Fe 0.5062 0.40442 0.33706 0.0
O368 O 0.47928 0.39166 0.29953 0.0
O369 O 0.46012 0.34323 0.31229 0.0
O370 O 0.4739 0.30936 0.36554 0.0
C371 C 0.45623 0.31863 0.39233 0.0
C372 C 0.55172 0.36975 0.29542 0.0
O373 O 0.4635 0.34481 0.40762 0.0
C374 C 0.55517 0.41357 0.39252 0.0
O375 O 0.54339 0.3153 0.35205 0.0
O376 O 0.53058 0.32796 0.40682 0.0
O377 O 0.54777 0.39399 0.31506 0.0
O378 O 0.5297 0.34631 0.29665 0.0
C379 C 0.45987 0.41728 0.39086 0.0
O380 O 0.54966 0.38623 0.40559 0.0
O381 O 0.53352 0.42473 0.37037 0.0
C382 C 0.54858 0.31216 0.38455 0.0
O383 O 0.48148 0.40308 0.41102 0.0
O384 O 0.46459 0.41683 0.35805 0.0
C385 C 0.45632 0.36936 0.2962 0.0
Fe386 Fe 0.49982 0.67542 0.90901 0.0
Fe387 Fe 0.50237 0.63452 0.84177 0.0
O388 O 0.50166 0.6729 0.86248 0.0
Fe389 Fe 0.50187 0.70866 0.83703 0.0
O390 O 0.54286 0.72404 0.85828 0.0
O391 O 0.5248 0.71316 0.91183 0.0
O392 O 0.54243 0.65455 0.91345 0.0
C393 C 0.54873 0.62725 0.90028 0.0
C394 C 0.45222 0.72283 0.89226 0.0
O395 O 0.52926 0.61556 0.87612 0.0
C396 C 0.45592 0.66997 0.79814 0.0
O397 O 0.47444 0.63804 0.91561 0.0
O398 O 0.45996 0.62284 0.86237 0.0
O399 O 0.47295 0.73163 0.86752 0.0
O400 O 0.4571 0.69644 0.90768 0.0
C401 C 0.54973 0.66705 0.79929 0.0
O402 O 0.47602 0.64629 0.80383 0.0
O403 O 0.46094 0.69654 0.81374 0.0
C404 C 0.4544 0.62235 0.895 0.0
O405 O 0.54435 0.64318 0.81893 0.0
O406 O 0.53061 0.69207 0.80205 0.0
C407 C 0.5457 0.72791 0.89112 0.0
C408 C 0.09738 0.30204 0.91621 0.0
C409 C 0.12139 0.29157 0.94213 0.0
H410 H 0.05545 0.28889 0.88005 0.0
C411 C 0.12336 0.25848 0.94895 0.0
H412 H 0.09521 0.32733 0.91025 0.0
C413 C 0.10066 0.23663 0.93196 0.0
C414 C 0.07543 0.2471 0.90731 0.0
H415 H 0.14222 0.24938 0.96799 0.0
H416 H 0.10246 0.21148 0.93873 0.0
C417 C 0.07459 0.28 0.89894 0.0
C418 C 0.88598 0.74558 0.39645 0.0
C419 C 0.8791 0.74529 0.4329 0.0
H420 H 0.91527 0.76692 0.35377 0.0
C421 C 0.89667 0.76815 0.45415 0.0
H422 H 0.87247 0.72876 0.3791 0.0
C423 C 0.92095 0.79018 0.43953 0.0
C424 C 0.92832 0.79004 0.40322 0.0
H425 H 0.89237 0.7686 0.48227 0.0
H426 H 0.93425 0.80718 0.45686 0.0
C427 C 0.91026 0.76769 0.38179 0.0
C428 C 0.87804 0.28676 0.90416 0.0
C429 C 0.88257 0.29571 0.93967 0.0
H430 H 0.89737 0.25796 0.86083 0.0
C431 C 0.91268 0.28391 0.95756 0.0
H432 H 0.85526 0.29546 0.88945 0.0
C433 C 0.93604 0.2622 0.94159 0.0
C434 C 0.9307 0.25183 0.9068 0.0
H435 H 0.918 0.29102 0.98444 0.0
H436 H 0.95833 0.25332 0.9569 0.0
C437 C 0.90199 0.26508 0.88782 0.0
C438 C 0.09961 0.73857 0.40752 0.0
C439 C 0.11901 0.74619 0.43821 0.0
H440 H 0.06348 0.75454 0.3679 0.0
C441 C 0.11581 0.77723 0.45254 0.0
H442 H 0.10066 0.71477 0.39601 0.0
C443 C 0.09392 0.8 0.43655 0.0
C444 C 0.07478 0.79233 0.40576 0.0
H445 H 0.13065 0.7842 0.47579 0.0
H446 H 0.09185 0.82358 0.44852 0.0
C447 C 0.07805 0.76139 0.39137 0.0
C448 C 0.61848 0.79294 0.90406 0.0
C449 C 0.61955 0.79502 0.94103 0.0
H450 H 0.59454 0.76991 0.8588 0.0
C451 C 0.59506 0.77628 0.96038 0.0
H452 H 0.63686 0.80715 0.88828 0.0
C453 C 0.57168 0.75491 0.94382 0.0
C454 C 0.5712 0.7517 0.90704 0.0
H455 H 0.59412 0.77779 0.98876 0.0
H456 H 0.554 0.74068 0.96031 0.0
C457 C 0.59449 0.77141 0.88718 0.0
C458 C 0.38817 0.25154 0.40326 0.0
C459 C 0.38309 0.25084 0.43993 0.0
H460 H 0.41522 0.27333 0.35963 0.0
C461 C 0.40118 0.27384 0.46068 0.0
H462 H 0.374 0.23485 0.38626 0.0
C463 C 0.4242 0.29652 0.44513 0.0
C464 C 0.42988 0.29643 0.40859 0.0
H465 H 0.39824 0.27387 0.48896 0.0
H466 H 0.43839 0.31349 0.46182 0.0
C467 C 0.41155 0.27379 0.38786 0.0
C468 C 0.40403 0.80056 0.91631 0.0
C469 C 0.37847 0.78964 0.94095 0.0
H470 H 0.44748 0.78803 0.88149 0.0
C471 C 0.37562 0.75643 0.94701 0.0
H472 H 0.40698 0.82596 0.91108 0.0
C473 C 0.39876 0.73481 0.93034 0.0
C474 C 0.42532 0.74569 0.90684 0.0
H475 H 0.35567 0.74708 0.96516 0.0
H476 H 0.39619 0.70952 0.93636 0.0
C477 C 0.42723 0.77879 0.89941 0.0
C478 C 0.58335 0.24812 0.44406 0.0
C479 C 0.61697 0.24075 0.42909 0.0
H480 H 0.53592 0.27648 0.44178 0.0
C481 C 0.62692 0.25536 0.39718 0.0
H482 H 0.5742 0.23667 0.46796 0.0
C483 C 0.60422 0.2779 0.38152 0.0
C484 C 0.57166 0.2864 0.3979 0.0
H485 H 0.65273 0.25031 0.38505 0.0
H486 H 0.61274 0.28958 0.35754 0.0
C487 C 0.56126 0.27088 0.42894 0.0
C488 C 0.36759 0.57541 0.90631 0.0
C489 C 0.37424 0.55753 0.93693 0.0
H490 H 0.38797 0.60912 0.86865 0.0
C491 C 0.40724 0.5626 0.95435 0.0
H492 H 0.34219 0.57336 0.89265 0.0
C493 C 0.4329 0.58423 0.94113 0.0
C494 C 0.42664 0.60068 0.90972 0.0
H495 H 0.4139 0.54923 0.97765 0.0
H496 H 0.4582 0.58727 0.95488 0.0
C497 C 0.3937 0.59622 0.89255 0.0
C498 C 0.62419 0.4497 0.45423 0.0
C499 C 0.6292 0.48049 0.43988 0.0
H500 H 0.59691 0.40436 0.45068 0.0
C501 C 0.6131 0.48743 0.40757 0.0
H502 H 0.63684 0.44332 0.47874 0.0
C503 C 0.59043 0.46496 0.39135 0.0
C504 C 0.58334 0.43508 0.40709 0.0
H505 H 0.61627 0.51087 0.39579 0.0
H506 H 0.57729 0.47157 0.36716 0.0
C507 C 0.60145 0.42726 0.43807 0.0
C508 C 0.63358 0.57905 0.90888 0.0
C509 C 0.62579 0.55953 0.93812 0.0
H510 H 0.61503 0.61555 0.87394 0.0
C511 C 0.59343 0.5651 0.95674 0.0
H512 H 0.65851 0.57643 0.89433 0.0
C513 C 0.56913 0.58853 0.94556 0.0
C514 C 0.57655 0.60666 0.91547 0.0
H515 H 0.586 0.55054 0.97907 0.0
H516 H 0.54384 0.59152 0.9595 0.0
C517 C 0.609 0.60194 0.8974 0.0
C518 C 0.39796 0.45402 0.45848 0.0
C519 C 0.38062 0.4779 0.43916 0.0
H520 H 0.43646 0.41629 0.45836 0.0
C521 C 0.38772 0.48032 0.40296 0.0
H522 H 0.39249 0.45102 0.48621 0.0
C523 C 0.41278 0.46005 0.38678 0.0
C524 C 0.43133 0.43724 0.40664 0.0
H525 H 0.37498 0.49864 0.38738 0.0
H526 H 0.41843 0.46293 0.35906 0.0
C527 C 0.42312 0.43404 0.44246 0.0
C528 C 0.88214 0.08804 0.95909 0.0
C529 C 0.87442 0.05958 0.94037 0.0
H530 H 0.91323 0.13181 0.961 0.0
C531 C 0.8932 0.05336 0.90902 0.0
H532 H 0.86799 0.09348 0.98331 0.0
C533 C 0.91873 0.07501 0.89637 0.0
C534 C 0.92642 0.10363 0.91469 0.0
H535 H 0.88835 0.03145 0.89425 0.0
H536 H 0.93248 0.0692 0.87202 0.0
C537 C 0.90779 0.11004 0.94621 0.0
C538 C 0.0916 0.97375 0.45654 0.0
C539 C 0.12149 0.98592 0.43796 0.0
H540 H 0.04623 0.94225 0.45689 0.0
C541 C 0.12738 0.97525 0.40327 0.0
H542 H 0.08536 0.98216 0.48282 0.0
C543 C 0.10414 0.95242 0.38793 0.0
C544 C 0.0749 0.93982 0.40718 0.0
H545 H 0.15012 0.98417 0.38823 0.0
H546 H 0.10924 0.94439 0.36128 0.0
C547 C 0.06894 0.95086 0.44155 0.0
C548 C 0.13364 0.07434 0.90408 0.0
C549 C 0.12581 0.0553 0.93371 0.0
H550 H 0.11539 0.11031 0.8684 0.0
C551 C 0.09298 0.06065 0.95156 0.0
H552 H 0.15896 0.07205 0.89014 0.0
C553 C 0.06862 0.08371 0.93971 0.0
C554 C 0.07603 0.10145 0.90925 0.0
H555 H 0.08539 0.04642 0.97409 0.0
H556 H 0.04333 0.08679 0.95363 0.0
C557 C 0.10883 0.09665 0.89169 0.0
C558 C 0.91819 0.97888 0.45396 0.0
C559 C 0.88104 0.97599 0.44744 0.0
H560 H 0.97106 0.96066 0.44292 0.0
C561 C 0.86868 0.95076 0.42568 0.0
H562 H 0.92867 0.99819 0.47019 0.0
C563 C 0.89296 0.92948 0.41011 0.0
C564 C 0.92992 0.93314 0.41598 0.0
H565 H 0.84022 0.94763 0.42039 0.0
H566 H 0.88299 0.91059 0.39295 0.0
C567 C 0.94246 0.95769 0.43816 0.0
C568 C 0.3868 0.35427 0.22452 0.0
C569 C 0.37913 0.38601 0.21453 0.0
H570 H 0.41732 0.32376 0.25864 0.0
C571 C 0.3934 0.41138 0.23476 0.0
H572 H 0.37612 0.33416 0.20963 0.0
C573 C 0.4172 0.4055 0.26201 0.0
C574 C 0.42699 0.37402 0.2705 0.0
H575 H 0.38719 0.43609 0.22872 0.0
H576 H 0.42873 0.42587 0.27591 0.0
C577 C 0.41049 0.34831 0.25245 0.0
C578 C 0.61045 0.69129 0.72364 0.0
C579 C 0.62392 0.66168 0.7117 0.0
H580 H 0.57702 0.71617 0.76047 0.0
C581 C 0.61293 0.63353 0.72906 0.0
H582 H 0.61784 0.71339 0.71056 0.0
C583 C 0.58948 0.63514 0.75807 0.0
C584 C 0.57618 0.6649 0.76997 0.0
H585 H 0.62287 0.61034 0.72057 0.0
H586 H 0.58141 0.61307 0.77085 0.0
C587 C 0.58689 0.69287 0.75225 0.0
C588 C 0.63067 0.3984 0.24089 0.0
C589 C 0.62541 0.38138 0.20942 0.0
H590 H 0.61177 0.4076 0.29308 0.0
C591 C 0.59793 0.35813 0.20749 0.0
H592 H 0.65171 0.41649 0.24285 0.0
C593 C 0.57485 0.35315 0.23612 0.0
C594 C 0.57893 0.37143 0.26704 0.0
H595 H 0.59305 0.34515 0.18323 0.0
H596 H 0.55276 0.3362 0.23338 0.0
C597 C 0.60772 0.39342 0.26947 0.0
C598 C 0.39222 0.63133 0.73244 0.0
C599 C 0.37919 0.65796 0.71415 0.0
H600 H 0.4261 0.61436 0.77349 0.0
C601 C 0.39068 0.68889 0.72477 0.0
H602 H 0.38355 0.60723 0.72554 0.0
C603 C 0.41467 0.69306 0.75272 0.0
C604 C 0.42819 0.66636 0.77043 0.0
H605 H 0.38173 0.71001 0.711 0.0
H606 H 0.42341 0.7171 0.75975 0.0
C607 C 0.41645 0.63548 0.76014 0.0
C608 C 0.88245 0.91008 0.24163 0.0
C609 C 0.8776 0.88708 0.21484 0.0
H610 H 0.90946 0.92326 0.28887 0.0
C611 C 0.89489 0.85727 0.21799 0.0
H612 H 0.86898 0.93303 0.24056 0.0
C613 C 0.91826 0.85149 0.24612 0.0
C614 C 0.92469 0.87539 0.27169 0.0
H615 H 0.89179 0.83901 0.19784 0.0
H616 H 0.93222 0.82878 0.24712 0.0
C617 C 0.90566 0.90437 0.26953 0.0
C618 C 0.10888 0.13769 0.72812 0.0
C619 C 0.1201 0.16548 0.71032 0.0
H620 H 0.07704 0.11799 0.76991 0.0
C621 C 0.10683 0.1954 0.72181 0.0
H622 H 0.11883 0.11432 0.72029 0.0
C623 C 0.08336 0.19759 0.75055 0.0
C624 C 0.07216 0.16986 0.76829 0.0
H625 H 0.11431 0.21726 0.70831 0.0
H626 H 0.0734 0.22096 0.75839 0.0
C627 C 0.08512 0.13986 0.75672 0.0
C628 C 0.11264 0.90736 0.23412 0.0
C629 C 0.12211 0.88237 0.21094 0.0
H630 H 0.08174 0.92196 0.27867 0.0
C631 C 0.11076 0.85088 0.21891 0.0
H632 H 0.12185 0.93172 0.22962 0.0
C633 C 0.08802 0.84512 0.24789 0.0
C634 C 0.07612 0.87083 0.26897 0.0
H635 H 0.11771 0.83105 0.20171 0.0
H636 H 0.07817 0.82098 0.25255 0.0
C637 C 0.08971 0.90174 0.26242 0.0
C638 C 0.89428 0.18221 0.72242 0.0
C639 C 0.87907 0.15185 0.71531 0.0
H640 H 0.92896 0.21033 0.75525 0.0
C641 C 0.88713 0.12616 0.73752 0.0
H642 H 0.88898 0.20242 0.70553 0.0
C643 C 0.91012 0.1307 0.76609 0.0
C644 C 0.92572 0.16099 0.77292 0.0
H645 H 0.87552 0.10259 0.73294 0.0
H646 H 0.91609 0.11029 0.78246 0.0
C647 C 0.91733 0.18673 0.75087 0.0
loop_
_geom_bond_atom_site_label_1
_geom_bond_atom_site_label_2
_geom_bond_distance
_geom_bond_site_symmetry_2
_ccdc_geom_bond_type
C0 C1 1.264 . S
C0 C5 1.479 . S
C0 C10 1.465 . S
C1 C0 1.264 . S
C1 C3 1.339 . S
C1 H28 0.931 . S
C2 C3 1.395 . S
C2 C4 1.320 . S
C3 C1 1.339 . S
C3 C2 1.395 . S
C3 H29 0.929 . S
C4 C2 1.320 . S
C4 C5 1.405 . S
C4 H30 0.930 . S
C5 C0 1.479 . S
C5 C4 1.405 . S
C5 H31 0.931 . S
U6 O7 2.454 1_554 S
U6 O8 2.458 . S
U6 C9 2.984 1_554 S
U6 C10 2.847 1_554 S
U6 C23 2.882 . S
U6 O24 2.441 1_554 S
U6 O25 2.420 . S
U6 O26 2.455 . S
U6 O27 2.449 . S
O7 U6 2.454 1_556 S
O7 C9 1.353 . S
O8 U6 2.458 . S
O8 C9 1.286 1_554 S
C9 U6 2.984 1_556 S
C9 O7 1.353 . S
C9 O8 1.286 1_556 S
C9 C11 1.363 . S
C10 C0 1.465 . S
C10 U6 2.847 1_556 S
C10 O24 1.249 . S
C10 O25 1.202 1_556 S
C11 C9 1.363 . S
C11 C13 1.408 . S
C11 C16 1.342 . S
C12 C13 1.310 . S
C12 C15 1.461 . S
C12 H32 0.932 . S
C13 C11 1.408 . S
C13 C12 1.310 . S
C13 H33 0.930 . S
C14 C15 1.474 . S
C14 C16 1.285 . S
C14 H34 0.929 . S
C15 C12 1.461 . S
C15 C14 1.474 . S
C16 C11 1.342 . S
C16 C14 1.285 . S
C16 H35 0.930 1_556 S
C17 C20 1.424 . S
C17 C22 1.245 . S
C17 C23 1.428 . S
C18 C21 1.260 . S
C18 C22 1.477 . S
C18 H36 0.932 . S
C19 C20 1.384 . S
C19 C21 1.479 . S
C19 H37 0.929 . S
C20 C17 1.424 . S
C20 C19 1.384 . S
C20 H38 0.928 . S
C21 C18 1.260 . S
C21 C19 1.479 . S
C22 C17 1.245 . S
C22 C18 1.477 . S
C22 H39 0.932 . S
C23 U6 2.882 . S
C23 C17 1.428 . S
C23 O26 1.301 . S
C23 O27 1.282 . S
O24 U6 2.441 1_556 S
O24 C10 1.249 . S
O25 U6 2.420 . S
O25 C10 1.202 1_554 S
O26 U6 2.455 . S
O26 C23 1.301 . S
O27 U6 2.449 . S
O27 C23 1.282 . S
H28 C1 0.931 . S
H29 C3 0.929 . S
H30 C4 0.930 . S
H31 C5 0.931 . S
H32 C12 0.932 . S
H33 C13 0.930 . S
H34 C14 0.929 . S
H35 C16 0.930 1_554 S
H36 C18 0.932 . S
H37 C19 0.929 . S
H38 C20 0.928 . S
H39 C22 0.932 . S
C40 C41 1.264 . S
C40 C45 1.479 . S
C40 C50 1.465 . S
C41 C40 1.264 . S
C41 C43 1.339 . S
C41 H68 0.931 . S
C42 C43 1.395 . S
C42 C44 1.320 . S
C43 C41 1.339 . S
C43 C42 1.395 . S
C43 H69 0.929 . S
C44 C42 1.320 . S
C44 C45 1.405 . S
C44 H70 0.930 . S
C45 C40 1.479 . S
C45 C44 1.405 . S
C45 H71 0.931 . S
U46 O47 2.454 . S
U46 O48 2.458 . S
U46 C49 2.984 . S
U46 C50 2.847 . S
U46 C63 2.882 . S
U46 O64 2.441 . S
U46 O65 2.420 . S
U46 O66 2.455 . S
U46 O67 2.449 . S
O47 U46 2.454 . S
O47 C49 1.353 . S
O48 U46 2.458 . S
O48 C49 1.286 . S
C49 U46 2.984 . S
C49 O47 1.353 . S
C49 O48 1.286 . S
C49 C51 1.363 . S
C50 C40 1.465 . S
C50 U46 2.847 . S
C50 O64 1.249 . S
C50 O65 1.202 . S
C51 C49 1.363 . S
C51 C53 1.408 . S
C51 C56 1.342 . S
C52 C53 1.310 . S
C52 C55 1.461 . S
C52 H72 0.932 . S
C53 C51 1.408 . S
C53 C52 1.310 . S
C53 H73 0.930 . S
C54 C55 1.474 . S
C54 C56 1.285 . S
C54 H74 0.929 . S
C55 C52 1.461 . S
C55 C54 1.474 . S
C56 C51 1.342 . S
C56 C54 1.285 . S
C56 H75 0.930 . S
C57 C60 1.424 . S
C57 C62 1.245 . S
C57 C63 1.428 . S
C58 C61 1.260 . S
C58 C62 1.477 . S
C58 H76 0.932 . S
C59 C60 1.384 . S
C59 C61 1.479 . S
C59 H77 0.929 . S
C60 C57 1.424 . S
C60 C59 1.384 . S
C60 H78 0.928 . S
C61 C58 1.260 . S
C61 C59 1.479 . S
C62 C57 1.245 . S
C62 C58 1.477 . S
C62 H79 0.932 . S
C63 U46 2.882 . S
C63 C57 1.428 . S
C63 O66 1.301 . S
C63 O67 1.282 . S
O64 U46 2.441 . S
O64 C50 1.249 . S
O65 U46 2.420 . S
O65 C50 1.202 . S
O66 U46 2.455 . S
O66 C63 1.301 . S
O67 U46 2.449 . S
O67 C63 1.282 . S
H68 C41 0.931 . S
H69 C43 0.929 . S
H70 C44 0.930 . S
H71 C45 0.931 . S
H72 C52 0.932 . S
H73 C53 0.930 . S
H74 C54 0.929 . S
H75 C56 0.930 . S
H76 C58 0.932 . S
H77 C59 0.929 . S
H78 C60 0.928 . S
H79 C62 0.932 . S
C80 C81 1.264 . S
C80 C85 1.479 . S
C80 C90 1.465 . S
C81 C80 1.264 . S
C81 C83 1.339 . S
C81 H108 0.931 . S
C82 C83 1.395 . S
C82 C84 1.320 . S
C83 C81 1.339 . S
C83 C82 1.395 . S
C83 H109 0.929 . S
C84 C82 1.320 . S
C84 C85 1.405 . S
C84 H110 0.930 . S
C85 C80 1.479 . S
C85 C84 1.405 . S
C85 H111 0.931 . S
U86 O87 2.454 . S
U86 O88 2.458 1_556 S
U86 C89 2.984 . S
U86 C90 2.847 . S
U86 C103 2.882 1_556 S
U86 O104 2.441 . S
U86 O105 2.420 . S
U86 O106 2.455 1_556 S
U86 O107 2.449 1_556 S
O87 U86 2.454 . S
O87 C89 1.353 . S
O88 U86 2.458 1_554 S
O88 C89 1.286 1_554 S
C89 U86 2.984 . S
C89 O87 1.353 . S
C89 O88 1.286 1_556 S
C89 C91 1.363 . S
C90 C80 1.465 . S
C90 U86 2.847 . S
C90 O104 1.249 . S
C90 O105 1.202 . S
C91 C89 1.363 . S
C91 C93 1.408 . S
C91 C96 1.342 . S
C92 C93 1.310 . S
C92 C95 1.461 . S
C92 H112 0.932 . S
C93 C91 1.408 . S
C93 C92 1.310 . S
C93 H113 0.930 . S
C94 C95 1.474 . S
C94 C96 1.285 . S
C94 H114 0.929 . S
C95 C92 1.461 . S
C95 C94 1.474 . S
C96 C91 1.342 . S
C96 C94 1.285 . S
C96 H115 0.930 1_556 S
C97 C100 1.424 . S
C97 C102 1.245 . S
C97 C103 1.428 . S
C98 C101 1.260 . S
C98 C102 1.477 . S
C98 H116 0.932 . S
C99 C100 1.384 . S
C99 C101 1.479 . S
C99 H117 0.929 . S
C100 C97 1.424 . S
C100 C99 1.384 . S
C100 H118 0.928 . S
C101 C98 1.260 . S
C101 C99 1.479 . S
C102 C97 1.245 . S
C102 C98 1.477 . S
C102 H119 0.932 . S
C103 U86 2.882 1_554 S
C103 C97 1.428 . S
C103 O106 1.301 . S
C103 O107 1.282 . S
O104 U86 2.441 . S
O104 C90 1.249 . S
O105 U86 2.420 . S
O105 C90 1.202 . S
O106 U86 2.455 1_554 S
O106 C103 1.301 . S
O107 U86 2.449 1_554 S
O107 C103 1.282 . S
H108 C81 0.931 . S
H109 C83 0.929 . S
H110 C84 0.930 . S
H111 C85 0.931 . S
H112 C92 0.932 . S
H113 C93 0.930 . S
H114 C94 0.929 . S
H115 C96 0.930 1_554 S
H116 C98 0.932 . S
H117 C99 0.929 . S
H118 C100 0.928 . S
H119 C102 0.932 . S
C120 C121 1.264 . S
C120 C125 1.479 . S
C120 C130 1.465 . S
C121 C120 1.264 . S
C121 C123 1.339 . S
C121 H148 0.931 . S
C122 C123 1.395 . S
C122 C124 1.320 . S
C123 C121 1.339 . S
C123 C122 1.395 . S
C123 H149 0.929 . S
C124 C122 1.320 . S
C124 C125 1.405 . S
C124 H150 0.930 . S
C125 C120 1.479 . S
C125 C124 1.405 . S
C125 H151 0.931 . S
U126 O127 2.454 . S
U126 O128 2.458 . S
U126 C129 2.984 . S
U126 C130 2.847 . S
U126 C143 2.882 . S
U126 O144 2.441 . S
U126 O145 2.420 . S
U126 O146 2.455 . S
U126 O147 2.449 . S
O127 U126 2.454 . S
O127 C129 1.353 . S
O128 U126 2.458 . S
O128 C129 1.286 . S
C129 U126 2.984 . S
C129 O127 1.353 . S
C129 O128 1.286 . S
C129 C131 1.363 . S
C130 C120 1.465 . S
C130 U126 2.847 . S
C130 O144 1.249 . S
C130 O145 1.202 . S
C131 C129 1.363 . S
C131 C133 1.408 . S
C131 C136 1.342 . S
C132 C133 1.310 . S
C132 C135 1.461 . S
C132 H152 0.932 . S
C133 C131 1.408 . S
C133 C132 1.310 . S
C133 H153 0.930 . S
C134 C135 1.474 . S
C134 C136 1.285 . S
C134 H154 0.929 . S
C135 C132 1.461 . S
C135 C134 1.474 . S
C136 C131 1.342 . S
C136 C134 1.285 . S
C136 H155 0.930 . S
C137 C140 1.424 . S
C137 C142 1.245 . S
C137 C143 1.428 . S
C138 C141 1.260 . S
C138 C142 1.477 . S
C138 H156 0.932 . S
C139 C140 1.384 . S
C139 C141 1.479 . S
C139 H157 0.929 . S
C140 C137 1.424 . S
C140 C139 1.384 . S
C140 H158 0.928 . S
C141 C138 1.260 . S
C141 C139 1.479 . S
C142 C137 1.245 . S
C142 C138 1.477 . S
C142 H159 0.932 . S
C143 U126 2.882 . S
C143 C137 1.428 . S
C143 O146 1.301 . S
C143 O147 1.282 . S
O144 U126 2.441 . S
O144 C130 1.249 . S
O145 U126 2.420 . S
O145 C130 1.202 . S
O146 U126 2.455 . S
O146 C143 1.301 . S
O147 U126 2.449 . S
O147 C143 1.282 . S
H148 C121 0.931 . S
H149 C123 0.929 . S
H150 C124 0.930 . S
H151 C125 0.931 . S
H152 C132 0.932 . S
H153 C133 0.930 . S
H154 C134 0.929 . S
H155 C136 0.930 . S
H156 C138 0.932 . S
H157 C139 0.929 . S
H158 C140 0.928 . S
H159 C142 0.932 . S
C160 C161 1.258 1_565 S
C160 C165 1.479 . S
C160 C170 1.465 . S
C161 C160 1.258 1_545 S
C161 C163 1.346 . S
C161 H188 0.930 1_545 S
C162 C163 1.395 . S
C162 C164 1.320 . S
C163 C161 1.346 . S
C163 C162 1.395 . S
C163 H189 0.929 . S
C164 C162 1.320 . S
C164 C165 1.405 1_545 S
C164 H190 0.930 . S
C165 C160 1.479 . S
C165 C164 1.405 1_565 S
C165 H191 0.931 . S
U166 O167 2.454 1_554 S
U166 O168 2.458 . S
U166 C169 2.984 1_554 S
U166 C170 2.847 1_554 S
U166 C183 2.882 . S
U166 O184 2.441 1_554 S
U166 O185 2.420 . S
U166 O186 2.455 . S
U166 O187 2.449 . S
O167 U166 2.454 1_556 S
O167 C169 1.353 . S
O168 U166 2.458 . S
O168 C169 1.286 1_554 S
C169 U166 2.984 1_556 S
C169 O167 1.353 . S
C169 O168 1.286 1_556 S
C169 C171 1.363 . S
C170 C160 1.465 . S
C170 U166 2.847 1_556 S
C170 O184 1.249 . S
C170 O185 1.202 1_556 S
C171 C169 1.363 . S
C171 C173 1.408 . S
C171 C176 1.342 . S
C172 C173 1.310 . S
C172 C175 1.461 . S
C172 H192 0.932 . S
C173 C171 1.408 . S
C173 C172 1.310 . S
C173 H193 0.930 . S
C174 C175 1.474 . S
C174 C176 1.285 . S
C174 H194 0.929 . S
C175 C172 1.461 . S
C175 C174 1.474 . S
C176 C171 1.342 . S
C176 C174 1.285 . S
C176 H195 0.930 1_556 S
C177 C180 1.424 . S
C177 C182 1.245 . S
C177 C183 1.428 . S
C178 C181 1.260 . S
C178 C182 1.477 . S
C178 H196 0.932 . S
C179 C180 1.384 . S
C179 C181 1.479 . S
C179 H197 0.929 . S
C180 C177 1.424 . S
C180 C179 1.384 . S
C180 H198 0.928 . S
C181 C178 1.260 . S
C181 C179 1.479 . S
C182 C177 1.245 . S
C182 C178 1.477 . S
C182 H199 0.932 . S
C183 U166 2.882 . S
C183 C177 1.428 . S
C183 O186 1.301 . S
C183 O187 1.282 . S
O184 U166 2.441 1_556 S
O184 C170 1.249 . S
O185 U166 2.420 . S
O185 C170 1.202 1_554 S
O186 U166 2.455 . S
O186 C183 1.301 . S
O187 U166 2.449 . S
O187 C183 1.282 . S
H188 C161 0.930 1_565 S
H189 C163 0.929 . S
H190 C164 0.930 . S
H191 C165 0.931 . S
H192 C172 0.932 . S
H193 C173 0.930 . S
H194 C174 0.929 . S
H195 C176 0.930 1_554 S
H196 C178 0.932 . S
H197 C179 0.929 . S
H198 C180 0.928 . S
H199 C182 0.932 . S
C200 C201 1.264 . S
C200 C205 1.479 . S
C200 C210 1.465 . S
C201 C200 1.264 . S
C201 C203 1.339 . S
C201 H228 0.931 . S
C202 C203 1.395 . S
C202 C204 1.320 . S
C203 C201 1.339 . S
C203 C202 1.395 . S
C203 H229 0.929 . S
C204 C202 1.320 . S
C204 C205 1.405 . S
C204 H230 0.930 . S
C205 C200 1.479 . S
C205 C204 1.405 . S
C205 H231 0.931 . S
U206 O207 2.454 . S
U206 O208 2.458 . S
U206 C209 2.984 . S
U206 C210 2.847 . S
U206 C223 2.882 . S
U206 O224 2.441 . S
U206 O225 2.420 . S
U206 O226 2.455 . S
U206 O227 2.449 . S
O207 U206 2.454 . S
O207 C209 1.353 . S
O208 U206 2.458 . S
O208 C209 1.286 . S
C209 U206 2.984 . S
C209 O207 1.353 . S
C209 O208 1.286 . S
C209 C211 1.363 . S
C210 C200 1.465 . S
C210 U206 2.847 . S
C210 O224 1.249 . S
C210 O225 1.202 . S
C211 C209 1.363 . S
C211 C213 1.408 . S
C211 C216 1.342 . S
C212 C213 1.310 . S
C212 C215 1.461 . S
C212 H232 0.932 . S
C213 C211 1.408 . S
C213 C212 1.310 . S
C213 H233 0.930 . S
C214 C215 1.474 . S
C214 C216 1.285 . S
C214 H234 0.929 . S
C215 C212 1.461 . S
C215 C214 1.474 . S
C216 C211 1.342 . S
C216 C214 1.285 . S
C216 H235 0.930 . S
C217 C220 1.424 . S
C217 C222 1.245 . S
C217 C223 1.428 . S
C218 C221 1.260 1_545 S
C218 C222 1.477 . S
C218 H236 0.932 1_545 S
C219 C220 1.384 1_565 S
C219 C221 1.479 . S
C219 H237 0.929 . S
C220 C217 1.424 . S
C220 C219 1.384 1_545 S
C220 H238 0.928 . S
C221 C218 1.260 1_565 S
C221 C219 1.479 . S
C222 C217 1.245 . S
C222 C218 1.477 . S
C222 H239 0.932 . S
C223 U206 2.882 . S
C223 C217 1.428 . S
C223 O226 1.301 . S
C223 O227 1.282 . S
O224 U206 2.441 . S
O224 C210 1.249 . S
O225 U206 2.420 . S
O225 C210 1.202 . S
O226 U206 2.455 . S
O226 C223 1.301 . S
O227 U206 2.449 . S
O227 C223 1.282 . S
H228 C201 0.931 . S
H229 C203 0.929 . S
H230 C204 0.930 . S
H231 C205 0.931 . S
H232 C212 0.932 . S
H233 C213 0.930 . S
H234 C214 0.929 . S
H235 C216 0.930 . S
H236 C218 0.932 1_565 S
H237 C219 0.929 . S
H238 C220 0.928 . S
H239 C222 0.932 . S
C240 C241 1.264 . S
C240 C245 1.479 . S
C240 C250 1.465 . S
C241 C240 1.264 . S
C241 C243 1.339 1_565 S
C241 H268 0.931 . S
C242 C243 1.395 . S
C242 C244 1.320 . S
C243 C241 1.339 1_545 S
C243 C242 1.395 . S
C243 H269 0.929 . S
C244 C242 1.320 . S
C244 C245 1.405 1_545 S
C244 H270 0.930 . S
C245 C240 1.479 . S
C245 C244 1.405 1_565 S
C245 H271 0.931 . S
U246 O247 2.454 . S
U246 O248 2.458 1_556 S
U246 C249 2.984 . S
U246 C250 2.847 . S
U246 C263 2.882 1_556 S
U246 O264 2.441 . S
U246 O265 2.420 . S
U246 O266 2.455 1_556 S
U246 O267 2.449 1_556 S
O247 U246 2.454 . S
O247 C249 1.353 . S
O248 U246 2.458 1_554 S
O248 C249 1.286 1_554 S
C249 U246 2.984 . S
C249 O247 1.353 . S
C249 O248 1.286 1_556 S
C249 C251 1.363 . S
C250 C240 1.465 . S
C250 U246 2.847 . S
C250 O264 1.249 . S
C250 O265 1.202 . S
C251 C249 1.363 . S
C251 C253 1.408 . S
C251 C256 1.342 . S
C252 C253 1.310 . S
C252 C255 1.461 . S
C252 H272 0.932 . S
C253 C251 1.408 . S
C253 C252 1.310 . S
C253 H273 0.930 . S
C254 C255 1.474 . S
C254 C256 1.285 . S
C254 H274 0.929 . S
C255 C252 1.461 . S
C255 C254 1.474 . S
C256 C251 1.342 . S
C256 C254 1.285 . S
C256 H275 0.930 1_556 S
C257 C260 1.424 . S
C257 C262 1.245 . S
C257 C263 1.428 . S
C258 C261 1.260 . S
C258 C262 1.477 . S
C258 H276 0.932 . S
C259 C260 1.384 . S
C259 C261 1.479 . S
C259 H277 0.929 . S
C260 C257 1.424 . S
C260 C259 1.384 . S
C260 H278 0.928 . S
C261 C258 1.260 . S
C261 C259 1.479 . S
C262 C257 1.245 . S
C262 C258 1.477 . S
C262 H279 0.932 . S
C263 U246 2.882 1_554 S
C263 C257 1.428 . S
C263 O266 1.301 . S
C263 O267 1.282 . S
O264 U246 2.441 . S
O264 C250 1.249 . S
O265 U246 2.420 . S
O265 C250 1.202 . S
O266 U246 2.455 1_554 S
O266 C263 1.301 . S
O267 U246 2.449 1_554 S
O267 C263 1.282 . S
H268 C241 0.931 . S
H269 C243 0.929 . S
H270 C244 0.930 . S
H271 C245 0.931 . S
H272 C252 0.932 . S
H273 C253 0.930 . S
H274 C254 0.929 . S
H275 C256 0.930 1_554 S
H276 C258 0.932 . S
H277 C259 0.929 . S
H278 C260 0.928 . S
H279 C262 0.932 . S
C280 C281 1.264 . S
C280 C285 1.479 . S
C280 C290 1.465 . S
C281 C280 1.264 . S
C281 C283 1.339 . S
C281 H308 0.931 . S
C282 C283 1.395 . S
C282 C284 1.320 . S
C283 C281 1.339 . S
C283 C282 1.395 . S
C283 H309 0.929 . S
C284 C282 1.320 . S
C284 C285 1.405 . S
C284 H310 0.930 . S
C285 C280 1.479 . S
C285 C284 1.405 . S
C285 H311 0.931 . S
U286 O287 2.454 . S
U286 O288 2.458 . S
U286 C289 2.984 . S
U286 C290 2.847 . S
U286 C303 2.882 . S
U286 O304 2.441 . S
U286 O305 2.420 . S
U286 O306 2.455 . S
U286 O307 2.449 . S
O287 U286 2.454 . S
O287 C289 1.353 . S
O288 U286 2.458 . S
O288 C289 1.286 . S
C289 U286 2.984 . S
C289 O287 1.353 . S
C289 O288 1.286 . S
C289 C291 1.363 . S
C290 C280 1.465 . S
C290 U286 2.847 . S
C290 O304 1.249 . S
C290 O305 1.202 . S
C291 C289 1.363 . S
C291 C293 1.408 . S
C291 C296 1.342 . S
C292 C293 1.310 . S
C292 C295 1.461 . S
C292 H312 0.932 . S
C293 C291 1.408 . S
C293 C292 1.310 . S
C293 H313 0.930 . S
C294 C295 1.474 . S
C294 C296 1.285 . S
C294 H314 0.929 . S
C295 C292 1.461 . S
C295 C294 1.474 . S
C296 C291 1.342 . S
C296 C294 1.285 . S
C296 H315 0.930 . S
C297 C300 1.424 . S
C297 C302 1.245 . S
C297 C303 1.428 . S
C298 C301 1.260 . S
C298 C302 1.477 1_565 S
C298 H316 0.932 . S
C299 C300 1.384 1_565 S
C299 C301 1.479 . S
C299 H317 0.929 . S
C300 C297 1.424 . S
C300 C299 1.384 1_545 S
C300 H318 0.928 . S
C301 C298 1.260 . S
C301 C299 1.479 . S
C302 C297 1.245 . S
C302 C298 1.477 1_545 S
C302 H319 0.932 . S
C303 U286 2.882 . S
C303 C297 1.428 . S
C303 O306 1.301 . S
C303 O307 1.282 . S
O304 U286 2.441 . S
O304 C290 1.249 . S
O305 U286 2.420 . S
O305 C290 1.202 . S
O306 U286 2.455 . S
O306 C303 1.301 . S
O307 U286 2.449 . S
O307 C303 1.282 . S
H308 C281 0.931 . S
H309 C283 0.929 . S
H310 C284 0.930 . S
H311 C285 0.931 . S
H312 C292 0.932 . S
H313 C293 0.930 . S
H314 C294 0.929 . S
H315 C296 0.930 . S
H316 C298 0.932 . S
H317 C299 0.929 . S
H318 C300 0.928 . S
H319 C302 0.932 . S
Fe320 O322 1.918 . S
Fe320 O325 1.997 1_455 S
Fe320 O326 2.002 1_455 S
Fe320 O331 1.976 . S
Fe320 O334 1.996 . S
Fe321 O322 1.918 . S
Fe321 O329 1.997 1_455 S
Fe321 O332 1.996 . S
Fe321 O336 1.976 . S
Fe321 O339 2.002 1_455 S
O322 Fe320 1.918 . S
O322 Fe321 1.918 . S
O322 Fe323 1.918 . S
Fe323 O322 1.918 . S
Fe323 O324 2.002 1_455 S
Fe323 O333 1.976 . S
Fe323 O337 1.996 . S
Fe323 O340 1.997 1_455 S
O324 Fe323 2.002 1_655 S
O324 C341 1.295 . S
O325 Fe320 1.997 1_655 S
O325 C341 1.235 . S
O326 Fe320 2.002 1_655 S
O326 C327 1.295 . S
C327 O326 1.295 . S
C327 O329 1.235 . S
C328 O333 1.287 . S
C328 O334 1.255 . S
O329 Fe321 1.997 1_655 S
O329 C327 1.235 . S
C330 O336 1.287 . S
C330 O337 1.255 . S
O331 Fe320 1.976 . S
O331 C338 1.287 . S
O332 Fe321 1.996 . S
O332 C338 1.255 . S
O333 Fe323 1.976 . S
O333 C328 1.287 . S
O334 Fe320 1.996 . S
O334 C328 1.255 . S
C335 O339 1.295 . S
C335 O340 1.235 . S
O336 Fe321 1.976 . S
O336 C330 1.287 . S
O337 Fe323 1.996 . S
O337 C330 1.255 . S
C338 O331 1.287 . S
C338 O332 1.255 . S
O339 Fe321 2.002 1_655 S
O339 C335 1.295 . S
O340 Fe323 1.997 1_655 S
O340 C335 1.235 . S
C341 O324 1.295 . S
C341 O325 1.235 . S
Fe342 O344 1.919 . S
Fe342 O347 1.976 1_655 S
Fe342 O348 1.981 1_655 S
Fe342 O353 1.997 . S
Fe342 O356 2.016 . S
Fe343 O344 1.919 . S
Fe343 O351 1.976 1_655 S
Fe343 O354 2.016 . S
Fe343 O358 1.996 . S
Fe343 O361 1.982 1_655 S
O344 Fe342 1.919 . S
O344 Fe343 1.919 . S
O344 Fe345 1.919 . S
Fe345 O344 1.919 . S
Fe345 O346 1.982 1_655 S
Fe345 O355 1.996 . S
Fe345 O359 2.016 . S
Fe345 O362 1.977 1_655 S
O346 Fe345 1.982 1_455 S
O346 C363 1.295 . S
O347 Fe342 1.976 1_455 S
O347 C363 1.235 . S
O348 Fe342 1.981 1_455 S
O348 C349 1.295 . S
C349 O348 1.295 . S
C349 O351 1.235 . S
C350 O355 1.287 . S
C350 O356 1.255 . S
O351 Fe343 1.976 1_455 S
O351 C349 1.235 . S
C352 O358 1.287 . S
C352 O359 1.255 . S
O353 Fe342 1.997 . S
O353 C360 1.287 . S
O354 Fe343 2.016 . S
O354 C360 1.255 . S
O355 Fe345 1.996 . S
O355 C350 1.287 . S
O356 Fe342 2.016 . S
O356 C350 1.255 . S
C357 O361 1.295 . S
C357 O362 1.235 . S
O358 Fe343 1.996 . S
O358 C352 1.287 . S
O359 Fe345 2.016 . S
O359 C352 1.255 . S
C360 O353 1.287 . S
C360 O354 1.255 . S
O361 Fe343 1.982 1_455 S
O361 C357 1.295 . S
O362 Fe345 1.977 1_455 S
O362 C357 1.235 . S
C363 O346 1.295 . S
C363 O347 1.235 . S
Fe364 O366 1.918 . S
Fe364 O369 1.997 . S
Fe364 O370 2.002 . S
Fe364 O375 1.976 . S
Fe364 O378 1.996 . S
Fe365 O366 1.918 . S
Fe365 O373 1.997 . S
Fe365 O376 1.996 . S
Fe365 O380 1.976 . S
Fe365 O383 2.002 . S
O366 Fe364 1.918 . S
O366 Fe365 1.918 . S
O366 Fe367 1.918 . S
Fe367 O366 1.918 . S
Fe367 O368 2.002 . S
Fe367 O377 1.976 . S
Fe367 O381 1.996 . S
Fe367 O384 1.997 . S
O368 Fe367 2.002 . S
O368 C385 1.295 . S
O369 Fe364 1.997 . S
O369 C385 1.235 . S
O370 Fe364 2.002 . S
O370 C371 1.295 . S
C371 O370 1.295 . S
C371 O373 1.235 . S
C372 O377 1.287 . S
C372 O378 1.255 . S
O373 Fe365 1.997 . S
O373 C371 1.235 . S
C374 O380 1.287 . S
C374 O381 1.255 . S
O375 Fe364 1.976 . S
O375 C382 1.287 . S
O376 Fe365 1.996 . S
O376 C382 1.255 . S
O377 Fe367 1.976 . S
O377 C372 1.287 . S
O378 Fe364 1.996 . S
O378 C372 1.255 . S
C379 O383 1.295 . S
C379 O384 1.235 . S
O380 Fe365 1.976 . S
O380 C374 1.287 . S
O381 Fe367 1.996 . S
O381 C374 1.255 . S
C382 O375 1.287 . S
C382 O376 1.255 . S
O383 Fe365 2.002 . S
O383 C379 1.295 . S
O384 Fe367 1.997 . S
O384 C379 1.235 . S
C385 O368 1.295 . S
C385 O369 1.235 . S
Fe386 O388 1.918 . S
Fe386 O391 1.997 . S
Fe386 O392 2.002 . S
Fe386 O397 1.976 . S
Fe386 O400 1.996 . S
Fe387 O388 1.918 . S
Fe387 O395 1.997 . S
Fe387 O398 1.996 . S
Fe387 O402 1.976 . S
Fe387 O405 2.002 . S
O388 Fe386 1.918 . S
O388 Fe387 1.918 . S
O388 Fe389 1.918 . S
Fe389 O388 1.918 . S
Fe389 O390 2.002 . S
Fe389 O399 1.976 . S
Fe389 O403 1.996 . S
Fe389 O406 1.997 . S
O390 Fe389 2.002 . S
O390 C407 1.295 . S
O391 Fe386 1.997 . S
O391 C407 1.235 . S
O392 Fe386 2.002 . S
O392 C393 1.295 . S
C393 O392 1.295 . S
C393 O395 1.235 . S
C394 O399 1.287 . S
C394 O400 1.255 . S
O395 Fe387 1.997 . S
O395 C393 1.235 . S
C396 O402 1.287 . S
C396 O403 1.255 . S
O397 Fe386 1.976 . S
O397 C404 1.287 . S
O398 Fe387 1.996 . S
O398 C404 1.255 . S
O399 Fe389 1.976 . S
O399 C394 1.287 . S
O400 Fe386 1.996 . S
O400 C394 1.255 . S
C401 O405 1.295 . S
C401 O406 1.235 . S
O402 Fe387 1.976 . S
O402 C396 1.287 . S
O403 Fe389 1.996 . S
O403 C396 1.255 . S
C404 O397 1.287 . S
C404 O398 1.255 . S
O405 Fe387 2.002 . S
O405 C401 1.295 . S
O406 Fe389 1.997 . S
O406 C401 1.235 . S
C407 O390 1.295 . S
C407 O391 1.235 . S
C408 C409 1.387 . S
C408 H412 0.950 . S
C408 C417 1.390 . S
C409 C408 1.387 . S
C409 C411 1.387 . S
H410 C417 0.950 . S
C411 C409 1.387 . S
C411 C413 1.390 . S
C411 H415 0.950 . S
H412 C408 0.950 . S
C413 C411 1.390 . S
C413 C414 1.387 . S
C413 H416 0.950 . S
C414 C413 1.387 . S
C414 C417 1.387 . S
H415 C411 0.950 . S
H416 C413 0.950 . S
C417 C408 1.390 . S
C417 H410 0.950 . S
C417 C414 1.387 . S
C418 C419 1.387 . S
C418 H422 0.950 . S
C418 C427 1.390 . S
C419 C418 1.387 . S
C419 C421 1.387 . S
H420 C427 0.950 . S
C421 C419 1.387 . S
C421 C423 1.390 . S
C421 H425 0.950 . S
H422 C418 0.950 . S
C423 C421 1.390 . S
C423 C424 1.387 . S
C423 H426 0.950 . S
C424 C423 1.387 . S
C424 C427 1.387 . S
H425 C421 0.950 . S
H426 C423 0.950 . S
C427 C418 1.390 . S
C427 H420 0.950 . S
C427 C424 1.387 . S
C428 C429 1.387 . S
C428 H432 0.950 . S
C428 C437 1.390 . S
C429 C428 1.387 . S
C429 C431 1.387 . S
H430 C437 0.950 . S
C431 C429 1.387 . S
C431 C433 1.390 . S
C431 H435 0.950 . S
H432 C428 0.950 . S
C433 C431 1.390 . S
C433 C434 1.387 . S
C433 H436 0.950 . S
C434 C433 1.387 . S
C434 C437 1.387 . S
H435 C431 0.950 . S
H436 C433 0.950 . S
C437 C428 1.390 . S
C437 H430 0.950 . S
C437 C434 1.387 . S
C438 C439 1.387 . S
C438 H442 0.950 . S
C438 C447 1.390 . S
C439 C438 1.387 . S
C439 C441 1.387 . S
H440 C447 0.950 . S
C441 C439 1.387 . S
C441 C443 1.390 . S
C441 H445 0.950 . S
H442 C438 0.950 . S
C443 C441 1.390 . S
C443 C444 1.387 . S
C443 H446 0.950 . S
C444 C443 1.387 . S
C444 C447 1.387 . S
H445 C441 0.950 . S
H446 C443 0.950 . S
C447 C438 1.390 . S
C447 H440 0.950 . S
C447 C444 1.387 . S
C448 C449 1.387 . S
C448 H452 0.950 . S
C448 C457 1.390 . S
C449 C448 1.387 . S
C449 C451 1.387 . S
H450 C457 0.950 . S
C451 C449 1.387 . S
C451 C453 1.390 . S
C451 H455 0.950 . S
H452 C448 0.950 . S
C453 C451 1.390 . S
C453 C454 1.387 . S
C453 H456 0.950 . S
C454 C453 1.387 . S
C454 C457 1.387 . S
H455 C451 0.950 . S
H456 C453 0.950 . S
C457 C448 1.390 . S
C457 H450 0.950 . S
C457 C454 1.387 . S
C458 C459 1.387 . S
C458 H462 0.950 . S
C458 C467 1.390 . S
C459 C458 1.387 . S
C459 C461 1.387 . S
H460 C467 0.950 . S
C461 C459 1.387 . S
C461 C463 1.390 . S
C461 H465 0.950 . S
H462 C458 0.950 . S
C463 C461 1.390 . S
C463 C464 1.387 . S
C463 H466 0.950 . S
C464 C463 1.387 . S
C464 C467 1.387 . S
H465 C461 0.950 . S
H466 C463 0.950 . S
C467 C458 1.390 . S
C467 H460 0.950 . S
C467 C464 1.387 . S
C468 C469 1.387 . S
C468 H472 0.950 . S
C468 C477 1.390 . S
C469 C468 1.387 . S
C469 C471 1.387 . S
H470 C477 0.950 . S
C471 C469 1.387 . S
C471 C473 1.390 . S
C471 H475 0.950 . S
H472 C468 0.950 . S
C473 C471 1.390 . S
C473 C474 1.387 . S
C473 H476 0.950 . S
C474 C473 1.387 . S
C474 C477 1.387 . S
H475 C471 0.950 . S
H476 C473 0.950 . S
C477 C468 1.390 . S
C477 H470 0.950 . S
C477 C474 1.387 . S
C478 C479 1.387 . S
C478 H482 0.950 . S
C478 C487 1.390 . S
C479 C478 1.387 . S
C479 C481 1.387 . S
H480 C487 0.950 . S
C481 C479 1.387 . S
C481 C483 1.390 . S
C481 H485 0.950 . S
H482 C478 0.950 . S
C483 C481 1.390 . S
C483 C484 1.387 . S
C483 H486 0.950 . S
C484 C483 1.387 . S
C484 C487 1.387 . S
H485 C481 0.950 . S
H486 C483 0.950 . S
C487 C478 1.390 . S
C487 H480 0.950 . S
C487 C484 1.387 . S
C488 C489 1.387 . S
C488 H492 0.950 . S
C488 C497 1.390 . S
C489 C488 1.387 . S
C489 C491 1.387 . S
H490 C497 0.950 . S
C491 C489 1.387 . S
C491 C493 1.390 . S
C491 H495 0.950 . S
H492 C488 0.950 . S
C493 C491 1.390 . S
C493 C494 1.387 . S
C493 H496 0.950 . S
C494 C493 1.387 . S
C494 C497 1.387 . S
H495 C491 0.950 . S
H496 C493 0.950 . S
C497 C488 1.390 . S
C497 H490 0.950 . S
C497 C494 1.387 . S
C498 C499 1.387 . S
C498 H502 0.950 . S
C498 C507 1.390 . S
C499 C498 1.387 . S
C499 C501 1.387 . S
H500 C507 0.950 . S
C501 C499 1.387 . S
C501 C503 1.390 . S
C501 H505 0.950 . S
H502 C498 0.950 . S
C503 C501 1.390 . S
C503 C504 1.387 . S
C503 H506 0.950 . S
C504 C503 1.387 . S
C504 C507 1.387 . S
H505 C501 0.950 . S
H506 C503 0.950 . S
C507 C498 1.390 . S
C507 H500 0.950 . S
C507 C504 1.387 . S
C508 C509 1.387 . S
C508 H512 0.950 . S
C508 C517 1.390 . S
C509 C508 1.387 . S
C509 C511 1.387 . S
H510 C517 0.950 . S
C511 C509 1.387 . S
C511 C513 1.390 . S
C511 H515 0.950 . S
H512 C508 0.950 . S
C513 C511 1.390 . S
C513 C514 1.387 . S
C513 H516 0.950 . S
C514 C513 1.387 . S
C514 C517 1.387 . S
H515 C511 0.950 . S
H516 C513 0.950 . S
C517 C508 1.390 . S
C517 H510 0.950 . S
C517 C514 1.387 . S
C518 C519 1.387 . S
C518 H522 0.950 . S
C518 C527 1.390 . S
C519 C518 1.387 . S
C519 C521 1.387 . S
H520 C527 0.950 . S
C521 C519 1.387 . S
C521 C523 1.390 . S
C521 H525 0.950 . S
H522 C518 0.950 . S
C523 C521 1.390 . S
C523 C524 1.387 . S
C523 H526 0.950 . S
C524 C523 1.387 . S
C524 C527 1.387 . S
H525 C521 0.950 . S
H526 C523 0.950 . S
C527 C518 1.390 . S
C527 H520 0.950 . S
C527 C524 1.387 . S
C528 C529 1.387 . S
C528 H532 0.950 . S
C528 C537 1.390 . S
C529 C528 1.387 . S
C529 C531 1.387 . S
H530 C537 0.950 . S
C531 C529 1.387 . S
C531 C533 1.390 . S
C531 H535 0.950 . S
H532 C528 0.950 . S
C533 C531 1.390 . S
C533 C534 1.387 . S
C533 H536 0.950 . S
C534 C533 1.387 . S
C534 C537 1.387 . S
H535 C531 0.950 . S
H536 C533 0.950 . S
C537 C528 1.390 . S
C537 H530 0.950 . S
C537 C534 1.387 . S
C538 C539 1.387 . S
C538 H542 0.950 . S
C538 C547 1.390 . S
C539 C538 1.387 . S
C539 C541 1.387 . S
H540 C547 0.950 . S
C541 C539 1.387 . S
C541 C543 1.390 . S
C541 H545 0.950 . S
H542 C538 0.950 . S
C543 C541 1.390 . S
C543 C544 1.387 . S
C543 H546 0.950 . S
C544 C543 1.387 . S
C544 C547 1.387 . S
H545 C541 0.950 . S
H546 C543 0.950 . S
C547 C538 1.390 . S
C547 H540 0.950 . S
C547 C544 1.387 . S
C548 C549 1.387 . S
C548 H552 0.950 . S
C548 C557 1.390 . S
C549 C548 1.387 . S
C549 C551 1.387 . S
H550 C557 0.950 . S
C551 C549 1.387 . S
C551 C553 1.390 . S
C551 H555 0.950 . S
H552 C548 0.950 . S
C553 C551 1.390 . S
C553 C554 1.387 . S
C553 H556 0.950 . S
C554 C553 1.387 . S
C554 C557 1.387 . S
H555 C551 0.950 . S
H556 C553 0.950 . S
C557 C548 1.390 . S
C557 H550 0.950 . S
C557 C554 1.387 . S
C558 C559 1.387 . S
C558 H562 0.950 . S
C558 C567 1.390 . S
C559 C558 1.387 . S
C559 C561 1.387 . S
H560 C567 0.950 . S
C561 C559 1.387 . S
C561 C563 1.390 . S
C561 H565 0.950 . S
H562 C558 0.950 . S
C563 C561 1.390 . S
C563 C564 1.387 . S
C563 H566 0.950 . S
C564 C563 1.387 . S
C564 C567 1.387 . S
H565 C561 0.950 . S
H566 C563 0.950 . S
C567 C558 1.390 . S
C567 H560 0.950 . S
C567 C564 1.387 . S
C568 C569 1.387 . S
C568 H572 0.950 . S
C568 C577 1.390 . S
C569 C568 1.387 . S
C569 C571 1.387 . S
H570 C577 0.950 . S
C571 C569 1.387 . S
C571 C573 1.390 . S
C571 H575 0.950 . S
H572 C568 0.950 . S
C573 C571 1.390 . S
C573 C574 1.387 . S
C573 H576 0.950 . S
C574 C573 1.387 . S
C574 C577 1.387 . S
H575 C571 0.950 . S
H576 C573 0.950 . S
C577 C568 1.390 . S
C577 H570 0.950 . S
C577 C574 1.387 . S
C578 C579 1.387 . S
C578 H582 0.950 . S
C578 C587 1.390 . S
C579 C578 1.387 . S
C579 C581 1.387 . S
H580 C587 0.950 . S
C581 C579 1.387 . S
C581 C583 1.390 . S
C581 H585 0.950 . S
H582 C578 0.950 . S
C583 C581 1.390 . S
C583 C584 1.387 . S
C583 H586 0.950 . S
C584 C583 1.387 . S
C584 C587 1.387 . S
H585 C581 0.950 . S
H586 C583 0.950 . S
C587 C578 1.390 . S
C587 H580 0.950 . S
C587 C584 1.387 . S
C588 C589 1.387 . S
C588 H592 0.950 . S
C588 C597 1.390 . S
C589 C588 1.387 . S
C589 C591 1.387 . S
H590 C597 0.950 . S
C591 C589 1.387 . S
C591 C593 1.390 . S
C591 H595 0.950 . S
H592 C588 0.950 . S
C593 C591 1.390 . S
C593 C594 1.387 . S
C593 H596 0.950 . S
C594 C593 1.387 . S
C594 C597 1.387 . S
H595 C591 0.950 . S
H596 C593 0.950 . S
C597 C588 1.390 . S
C597 H590 0.950 . S
C597 C594 1.387 . S
C598 C599 1.387 . S
C598 H602 0.950 . S
C598 C607 1.390 . S
C599 C598 1.387 . S
C599 C601 1.387 . S
H600 C607 0.950 . S
C601 C599 1.387 . S
C601 C603 1.390 . S
C601 H605 0.950 . S
H602 C598 0.950 . S
C603 C601 1.390 . S
C603 C604 1.387 . S
C603 H606 0.950 . S
C604 C603 1.387 . S
C604 C607 1.387 . S
H605 C601 0.950 . S
H606 C603 0.950 . S
C607 C598 1.390 . S
C607 H600 0.950 . S
C607 C604 1.387 . S
C608 C609 1.387 . S
C608 H612 0.950 . S
C608 C617 1.390 . S
C609 C608 1.387 . S
C609 C611 1.387 . S
H610 C617 0.950 . S
C611 C609 1.387 . S
C611 C613 1.390 . S
C611 H615 0.950 . S
H612 C608 0.950 . S
C613 C611 1.390 . S
C613 C614 1.387 . S
C613 H616 0.950 . S
C614 C613 1.387 . S
C614 C617 1.387 . S
H615 C611 0.950 . S
H616 C613 0.950 . S
C617 C608 1.390 . S
C617 H610 0.950 . S
C617 C614 1.387 . S
C618 C619 1.387 . S
C618 H622 0.950 . S
C618 C627 1.390 . S
C619 C618 1.387 . S
C619 C621 1.387 . S
H620 C627 0.950 . S
C621 C619 1.387 . S
C621 C623 1.390 . S
C621 H625 0.950 . S
H622 C618 0.950 . S
C623 C621 1.390 . S
C623 C624 1.387 . S
C623 H626 0.950 . S
C624 C623 1.387 . S
C624 C627 1.387 . S
H625 C621 0.950 . S
H626 C623 0.950 . S
C627 C618 1.390 . S
C627 H620 0.950 . S
C627 C624 1.387 . S
C628 C629 1.387 . S
C628 H632 0.950 . S
C628 C637 1.390 . S
C629 C628 1.387 . S
C629 C631 1.387 . S
H630 C637 0.950 . S
C631 C629 1.387 . S
C631 C633 1.390 . S
C631 H635 0.950 . S
H632 C628 0.950 . S
C633 C631 1.390 . S
C633 C634 1.387 . S
C633 H636 0.950 . S
C634 C633 1.387 . S
C634 C637 1.387 . S
H635 C631 0.950 . S
H636 C633 0.950 . S
C637 C628 1.390 . S
C637 H630 0.950 . S
C637 C634 1.387 . S
C638 C639 1.387 . S
C638 H642 0.950 . S
C638 C647 1.390 . S
C639 C638 1.387 . S
C639 C641 1.387 . S
H640 C647 0.950 . S
C641 C639 1.387 . S
C641 C643 1.390 . S
C641 H645 0.950 . S
H642 C638 0.950 . S
C643 C641 1.390 . S
C643 C644 1.387 . S
C643 H646 0.950 . S
C644 C643 1.387 . S
C644 C647 1.387 . S
H645 C641 0.950 . S
H646 C643 0.950 . S
C647 C638 1.390 . S
C647 H640 0.950 . S
C647 C644 1.387 . S
C409 C15 1.583 . S
C414 C363 1.560 . S
C424 C327 1.596 . S
C419 C55 1.615 . S
C434 C350 1.559 . S
C429 C95 1.554 . S
C444 C338 1.597 . S
C439 C135 1.600 . S
C454 C407 1.560 . S
C449 C175 1.583 . S
C464 C371 1.596 . S
C459 C215 1.614 . S
C469 C255 1.554 . S
C474 C394 1.558 . S
C484 C382 1.598 . S
C479 C295 1.601 . S
C489 C2 1.576 . S
C494 C404 1.585 . S
C504 C374 1.654 . S
C499 C61 1.555 . S
C509 C82 1.544 . S
C514 C393 1.623 . S
C519 C141 1.653 . S
C524 C379 1.692 . S
C534 C360 1.585 . S
C529 C162 1.576 . S
C539 C221 1.554 . S
C544 C330 1.654 . S
C554 C349 1.623 . S
C549 C242 1.544 . S
C564 C335 1.692 . S
C559 C301 1.654 . S
C574 C385 1.640 . S
C569 C21 1.614 . S
C584 C401 1.629 . S
C579 C42 1.552 . S
C589 C101 1.506 . S
C594 C372 1.613 . S
C604 C396 1.604 . S
C599 C122 1.599 . S
C614 C341 1.639 . S
C609 C181 1.612 . S
C619 C202 1.549 . S
C624 C357 1.629 . S
C629 C261 1.508 . S
C634 C328 1.614 . S
C639 C282 1.598 . S
C644 C352 1.603 . S
