# Generated by pormake.
# Topology nia, (6,6)-cn, num edge types: 1
# Building blocks:
#     Node 0, Type 0, BuildingBlock: HISSIN_clean_sbu_0, # of connection points: 6
#     Node 1, Type 0, BuildingBlock: HISSIN_clean_sbu_0, # of connection points: 6
#     Node 2, Type 1, BuildingBlock: MIDCAF_clean_sbu_0, # of connection points: 6
#     Node 3, Type 1, BuildingBlock: MIDCAF_clean_sbu_0, # of connection points: 6
#     Edge 4, Type (0, 1), BuildingBlock: EZIPEK_clean_linker_0, # of connection points: 2
#     Edge 5, Type (0, 1), BuildingBlock: EZIPEK_clean_linker_0, # of connection points: 2
#     Edge 6, Type (0, 1), BuildingBlock: EZIPEK_clean_linker_0, # of connection points: 2
#     Edge 7, Type (0, 1), BuildingBlock: EZIPEK_clean_linker_0, # of connection points: 2
#     Edge 8, Type (0, 1), BuildingBlock: EZIPEK_clean_linker_0, # of connection points: 2
#     Edge 9, Type (0, 1), BuildingBlock: EZIPEK_clean_linker_0, # of connection points: 2
#     Edge 10, Type (0, 1), BuildingBlock: EZIPEK_clean_linker_0, # of connection points: 2
#     Edge 11, Type (0, 1), BuildingBlock: EZIPEK_clean_linker_0, # of connection points: 2
#     Edge 12, Type (0, 1), BuildingBlock: EZIPEK_clean_linker_0, # of connection points: 2
#     Edge 13, Type (0, 1), BuildingBlock: EZIPEK_clean_linker_0, # of connection points: 2
#     Edge 14, Type (0, 1), BuildingBlock: EZIPEK_clean_linker_0, # of connection points: 2
#     Edge 15, Type (0, 1), BuildingBlock: EZIPEK_clean_linker_0, # of connection points: 2
# Relax obj value: 0.424
# Max RMSD: 0.278
# Mean RMSD: 0.272
data_MOF--net-nia--node1-HISSIN_clean_sbu_0--node2-MIDCAF_clean_sbu_0--edge1-EZIPEK_clean_linker_0
_symmetry_space_group_name_H-M    P1
_symmetry_Int_Tables_number       1
_symmetry_cell_setting            triclinic
loop_
_symmetry_equiv_pos_as_xyz
'x, y, z'
_cell_length_a     19.442812
_cell_length_b     19.403733
_cell_length_c     25.938212
_cell_angle_alpha  74.825214
_cell_angle_beta   74.652981
_cell_angle_gamma 112.50097
loop_
_atom_site_label
_atom_site_type_symbol
_atom_site_fract_x
_atom_site_fract_y
_atom_site_fract_z
_atom_type_partial_charge
Eu0 Eu -0.00314 0.0737 0.07325 0.0
Eu1 Eu 0.97972 0.94017 1.01722 0.0
C2 C 0.16081 0.0802 0.98434 0.0
C3 C 0.04149 0.21999 0.14875 0.0
C4 C 0.06439 0.30193 0.13662 0.0
C5 C 0.08407 0.20966 0.22924 0.0
C6 C 0.09687 0.33768 0.1704 0.0
C7 C 0.05179 0.17376 0.19499 0.0
C8 C 0.10653 0.29179 0.21688 0.0
C9 C 0.00314 0.18337 0.11452 0.0
O10 O 0.0191 0.90128 0.09021 0.0
O11 O 0.03625 -0.0004 0.12752 0.0
C12 C 0.04175 0.93518 0.12513 0.0
O13 O 0.87245 0.9667 0.13299 0.0
O14 O 0.97375 0.90605 0.94557 0.0
O15 O 0.9388 0.81178 1.02996 0.0
O16 O 0.8525 0.91815 0.06454 0.0
C17 C 0.82349 0.92611 0.11289 0.0
O18 O 0.93964 0.09468 1.00964 0.0
O19 O -0.00657 0.04764 0.9473 0.0
O20 O 0.116 0.01516 0.97792 0.0
O21 O 0.05066 0.20153 0.06128 0.0
O22 O 0.94815 0.10659 0.14229 0.0
O23 O 0.12851 0.11341 1.01501 0.0
C24 C 0.96954 0.78335 0.94387 0.0
C25 C 0.92206 0.69817 0.96988 0.0
C26 C 0.01478 0.77908 0.84858 0.0
C27 C 0.91666 0.65442 0.93502 0.0
C28 C 0.01999 0.82306 0.88351 0.0
C29 C 0.95881 0.6956 0.87403 0.0
C30 C 0.94755 0.82919 0.97566 0.0
C31 C 0.95457 0.08699 0.95988 0.0
H32 H 0.05642 0.33804 0.10133 0.0
H33 H 0.09163 0.17395 0.26494 0.0
H34 H 0.11446 0.40142 0.16042 0.0
H35 H 0.03421 0.11007 0.2049 0.0
H36 H 0.88242 0.66646 1.01617 0.0
H37 H 0.0479 0.81109 0.80151 0.0
H38 H 0.87365 0.58956 0.95508 0.0
H39 H 0.05676 0.8889 0.86249 0.0
Eu40 Eu 0.91793 -0.01299 0.5194 0.0
Eu41 Eu 0.06089 0.02225 0.5651 0.0
C42 C 0.9226 0.83631 0.60482 0.0
C43 C 0.7776 0.93642 0.43927 0.0
C44 C 0.69415 0.88414 0.45908 0.0
C45 C 0.79844 0.93879 0.34193 0.0
C46 C 0.66268 0.86093 0.42054 0.0
C47 C 0.83024 0.96207 0.38079 0.0
C48 C 0.71414 0.88996 0.36153 0.0
C49 C 0.8062 0.96895 0.47898 0.0
O50 O 0.08898 0.9631 0.50388 0.0
O51 O 0.01572 -0.01587 0.45089 0.0
C52 C 0.06796 0.96039 0.45995 0.0
O53 O 0.98114 0.12338 0.49453 0.0
O54 O 0.09274 0.0329 0.63708 0.0
O55 O 0.18764 0.06118 0.55474 0.0
O56 O 0.10579 0.14241 0.49054 0.0
C57 C 0.05855 0.17235 0.47938 0.0
O58 O 0.86436 0.97723 0.6115 0.0
O59 O 0.98291 0.07177 0.60451 0.0
O60 O 0.9703 0.88762 0.6208 0.0
O61 O 0.79349 0.91647 0.52851 0.0
O62 O 0.8773 0.03429 0.45523 0.0
O63 O 0.90314 0.86184 0.56155 0.0
C64 C 0.21445 0.03706 0.64158 0.0
C65 C 0.29948 0.08527 0.616 0.0
C66 C 0.21755 -0.00659 0.73725 0.0
C67 C 0.34253 0.0916 0.65116 0.0
C68 C 0.17409 -0.01265 0.70205 0.0
C69 C 0.30089 0.04954 0.71211 0.0
C70 C 0.16947 0.05669 0.6082 0.0
C71 C 0.90323 0.03408 0.62711 0.0
H72 H 0.65278 0.86389 0.50386 0.0
H73 H 0.8387 0.96136 0.29647 0.0
H74 H 0.59733 0.82302 0.43615 0.0
H75 H 0.89518 0.00231 0.36461 0.0
H76 H 0.33164 0.12432 0.5696 0.0
H77 H 0.18549 0.96025 0.78424 0.0
H78 H 0.40729 0.13467 0.6313 0.0
H79 H 0.10835 0.94971 0.72278 0.0
Zn80 Zn 0.33211 0.74336 0.17173 0.0
Zn81 Zn 0.26489 0.67364 0.40984 0.0
Zn82 Zn 0.2915 0.71083 0.29155 0.0
C83 C 0.4341 0.7633 0.33583 0.0
C84 C 0.19777 0.52562 0.39829 0.0
O85 O 0.22633 0.77458 0.26453 0.0
O86 O 0.26039 0.79543 0.17078 0.0
C87 C 0.47768 0.8091 0.18374 0.0
O88 O 0.40789 0.76445 0.29533 0.0
O89 O 0.3856 0.72589 0.38932 0.0
O90 O 0.20147 0.55121 0.4381 0.0
O91 O 0.22703 0.57661 0.34477 0.0
O92 O 0.45438 0.80766 0.14278 0.0
O93 O 0.42509 0.77689 0.23709 0.0
O94 O 0.24165 0.59491 0.28617 0.0
O95 O 0.28185 0.62303 0.19119 0.0
C96 C 0.24464 0.57176 0.24399 0.0
O97 O 0.22561 0.77418 0.32005 0.0
O98 O 0.21107 0.74423 0.41233 0.0
C99 C 0.2205 0.80037 0.21564 0.0
C100 C 0.20184 0.78123 0.3688 0.0
Zn101 Zn 0.66138 0.26675 0.90984 0.0
Zn102 Zn 0.72989 0.33994 0.6801 0.0
Zn103 Zn 0.69963 0.29691 0.79432 0.0
C104 C 0.78922 0.4859 0.68876 0.0
C105 C 0.56101 0.23119 0.75106 0.0
O106 O 0.76194 0.23037 0.82209 0.0
O107 O 0.71478 0.19653 0.91785 0.0
C108 C 0.77435 0.43475 0.83726 0.0
O109 O 0.76471 0.43319 0.74097 0.0
O110 O 0.78095 0.4621 0.64885 0.0
O111 O 0.61188 0.27021 0.69819 0.0
O112 O 0.58283 0.23798 0.79275 0.0
O113 O 0.73546 0.38466 0.89035 0.0
O114 O 0.7646 0.41258 0.79617 0.0
O115 O 0.56426 0.23813 0.84803 0.0
O116 O 0.53937 0.22038 0.94014 0.0
C117 C 0.51365 0.21537 0.90065 0.0
O118 O 0.75884 0.22862 0.76539 0.0
O119 O 0.79583 0.28308 0.66954 0.0
C120 C 0.75963 0.19608 0.8727 0.0
C121 C 0.79208 0.23252 0.71392 0.0
C122 C 0.15847 0.95362 0.15674 0.0
C123 C 0.07988 0.90174 0.16068 0.0
C124 C 0.08545 0.78153 0.21606 0.0
C125 C 0.16431 0.83349 0.2104 0.0
N126 N 0.26378 0.96671 0.19329 0.0
N127 N 0.95949 0.76938 0.20909 0.0
C128 C 0.19632 0.91888 0.18707 0.0
C129 C 0.04041 0.81646 0.19523 0.0
N130 N 0.20046 0.03482 0.12037 0.0
N131 N 0.05504 0.69883 0.23943 0.0
H132 H 0.92447 0.79376 0.19591 0.0
H133 H 0.9253 0.70815 0.23822 0.0
H134 H 0.08476 0.67158 0.25787 0.0
H135 H 0.00256 0.65771 0.23828 0.0
H136 H 0.26149 0.07245 0.11046 0.0
H137 H 0.1778 0.06387 0.09553 0.0
H138 H 0.28586 0.02902 0.1823 0.0
H139 H 0.2923 0.94202 0.2153 0.0
C140 C 0.34933 0.1469 0.75636 0.0
C141 C 0.34377 0.0758 0.74818 0.0
C142 C 0.45973 0.09093 0.77259 0.0
C143 C 0.47732 0.17169 0.76497 0.0
N144 N 0.43594 0.27433 0.75884 0.0
N145 N 0.38467 0.97276 0.75552 0.0
C146 C 0.42009 0.19839 0.76109 0.0
C147 C 0.39507 0.04432 0.76002 0.0
N148 N 0.28822 0.16577 0.75757 0.0
N149 N 0.50576 0.06011 0.79076 0.0
H150 H 0.33528 0.93636 0.74865 0.0
H151 H 0.42571 0.95088 0.75677 0.0
H152 H 0.55299 0.09351 0.80076 0.0
H153 H 0.49284 -0.00025 0.80086 0.0
H154 H 0.28556 0.21362 0.76738 0.0
H155 H 0.23612 0.12875 0.75369 0.0
H156 H 0.40096 0.30139 0.75011 0.0
H157 H 0.48635 0.3115 0.76441 0.0
C158 C 0.09204 0.35146 0.28871 0.0
C159 C 0.14231 0.3338 0.25033 0.0
C160 C 0.2623 0.45554 0.23318 0.0
C161 C 0.20984 0.48422 0.25682 0.0
N162 N 0.07437 0.45768 0.31276 0.0
N163 N 0.27541 0.35825 0.19414 0.0
C164 C 0.12454 0.43081 0.28805 0.0
C165 C 0.22798 0.38137 0.22657 0.0
N166 N 0.01268 0.29332 0.32296 0.0
N167 N 0.34428 0.49949 0.21717 0.0
H168 H 0.25064 0.3021 0.19106 0.0
H169 H 0.33799 0.39496 0.1694 0.0
H170 H 0.36997 0.55316 0.22321 0.0
H171 H 0.38525 0.47902 0.20358 0.0
H172 H 0.97351 0.29958 0.3553 0.0
H173 H 0.98919 0.23542 0.32233 0.0
H174 H 0.01098 0.4237 0.33104 0.0
H175 H 0.09581 0.51597 0.31243 0.0
C176 C 0.88967 0.09644 0.70057 0.0
C177 C 0.86008 0.06742 0.66151 0.0
C178 C 0.76499 0.12114 0.67925 0.0
C179 C 0.80828 0.16634 0.70577 0.0
N180 N 0.91622 0.20076 0.73913 0.0
N181 N 0.77787 0.06882 0.60511 0.0
C182 C 0.87127 0.15432 0.71658 0.0
C183 C 0.79866 0.08254 0.64931 0.0
N184 N 0.93457 0.06807 0.72276 0.0
N185 N 0.69231 0.11661 0.68147 0.0
H186 H 0.8057 0.04902 0.57675 0.0
H187 H 0.73947 0.0873 0.5916 0.0
H188 H 0.66575 0.14437 0.70306 0.0
H189 H 0.65475 0.07817 0.66744 0.0
H190 H 0.95215 0.08217 0.75492 0.0
H191 H 0.94601 0.02319 0.71378 0.0
H192 H 0.9681 0.20003 0.74268 0.0
H193 H 0.90476 0.24432 0.75036 0.0
C194 C 0.70321 0.95147 0.13856 0.0
C195 C 0.73413 0.89547 0.14103 0.0
C196 C 0.59618 0.78282 0.17418 0.0
C197 C 0.56538 0.8387 0.17146 0.0
N198 N 0.58481 0.97188 0.16291 0.0
N199 N 0.70888 0.75682 0.17433 0.0
C200 C 0.61751 0.92174 0.15746 0.0
C201 C 0.68005 0.8107 0.1629 0.0
N202 N 0.7559 0.03347 0.11533 0.0
N203 N 0.54553 0.70341 0.18602 0.0
H204 H 0.76986 0.77571 0.16718 0.0
H205 H 0.67165 0.69377 0.19584 0.0
H206 H 0.48327 0.68019 0.19654 0.0
H207 H 0.56565 0.6617 0.18209 0.0
H208 H 0.73844 0.07795 0.10506 0.0
H209 H 0.81848 0.05791 0.10323 0.0
H210 H 0.61773 0.03054 0.16003 0.0
H211 H 0.5226 0.95231 0.17531 0.0
C212 C 0.94222 0.71185 0.631 0.0
C213 C 0.88934 0.74641 0.63572 0.0
C214 C 0.77021 0.6088 0.68121 0.0
C215 C 0.82311 0.57453 0.67591 0.0
N216 N 0.95701 0.59017 0.65878 0.0
N217 N 0.7541 0.72786 0.678 0.0
C218 C 0.90841 0.62516 0.65512 0.0
C219 C 0.80352 0.6947 0.66478 0.0
N220 N 0.02456 0.76159 0.60055 0.0
N221 N 0.68818 0.55934 0.70049 0.0
H222 H 0.77685 0.7903 0.66732 0.0
H223 H 0.69175 0.69334 0.70409 0.0
H224 H 0.66128 0.4959 0.71544 0.0
H225 H 0.64716 0.58113 0.69881 0.0
H226 H 0.06545 0.74027 0.58895 0.0
H227 H 0.05206 0.82504 0.58355 0.0
H228 H 0.01827 0.62285 0.65062 0.0
H229 H 0.93423 0.52707 0.67495 0.0
C230 C 0.05147 0.85368 0.41758 0.0
C231 C 0.10293 0.92627 0.4213 0.0
C232 C 0.22288 0.91431 0.37435 0.0
C233 C 0.17096 0.83943 0.37414 0.0
N234 N 0.04148 0.75071 0.37838 0.0
N235 N 0.23776 0.03794 0.38767 0.0
C236 C 0.08705 0.81376 0.38976 0.0
C237 C 0.1889 0.96054 0.39452 0.0
N238 N 0.96856 0.81952 0.44404 0.0
N239 N 0.30442 0.93958 0.35707 0.0
H240 H 0.21413 0.07354 0.40093 0.0
H241 H 0.30079 0.06971 0.36421 0.0
H242 H 0.3317 0.9098 0.33862 0.0
H243 H 0.34443 -0.01216 0.36288 0.0
H244 H 0.9282 0.76138 0.44976 0.0
H245 H 0.93935 0.84712 0.46323 0.0
H246 H 0.98168 0.73374 0.38322 0.0
H247 H 0.0664 0.72035 0.35863 0.0
C248 C 0.30425 0.19949 0.92243 0.0
C249 C 0.25189 0.11477 0.95849 0.0
C250 C 0.37291 0.09549 0.94396 0.0
C251 C 0.4244 0.18108 0.91577 0.0
N252 N 0.4401 0.31633 0.88099 0.0
N253 N 0.23867 -0.01648 1.01037 0.0
C254 C 0.39035 0.23363 0.90559 0.0
C255 C 0.28681 0.06293 0.9706 0.0
N256 N 0.27213 0.24672 0.90209 0.0
N257 N 0.40632 0.04495 0.94457 0.0
H258 H 0.17579 0.95654 0.03226 0.0
H259 H 0.26195 0.9464 1.02619 0.0
H260 H 0.46913 0.06678 0.9257 0.0
H261 H 0.37176 -0.01798 0.95854 0.0
H262 H 0.30766 0.30677 0.87089 0.0
H263 H 0.20997 0.22343 0.91196 0.0
H264 H 0.41833 0.35795 0.87856 0.0
H265 H 0.50343 0.34332 0.86621 0.0
C266 C 0.16932 0.31561 0.40685 0.0
C267 C 0.0914 0.26336 0.45433 0.0
C268 C 0.07758 0.38473 0.45355 0.0
C269 C 0.16011 0.43613 0.41371 0.0
N270 N 0.28911 0.44978 0.35788 0.0
N271 N 0.9783 0.2526 0.53029 0.0
C272 C 0.20732 0.40147 0.39161 0.0
C273 C 0.04689 0.29899 0.47934 0.0
N274 N 0.20585 0.28386 0.3748 0.0
N275 N 0.02785 0.41766 0.46642 0.0
H276 H 0.95574 0.19084 0.55323 0.0
H277 H 0.94914 0.27723 0.5534 0.0
H278 H 0.04811 0.48025 0.44789 0.0
H279 H 0.96492 0.38226 0.49048 0.0
H280 H 0.25917 0.31999 0.33655 0.0
H281 H 0.17815 0.22209 0.38266 0.0
H282 H 0.32794 0.42639 0.34581 0.0
H283 H 0.31935 0.51273 0.34574 0.0
C284 C 0.94333 0.20249 0.90069 0.0
C285 C 0.92037 0.1186 0.92045 0.0
C286 C 0.80999 0.09396 0.88628 0.0
C287 C 0.82299 0.17356 0.87808 0.0
N288 N 0.9018 0.30523 0.87706 0.0
N289 N 0.83098 -0.01752 0.9328 0.0
C290 C 0.89059 0.22882 0.88413 0.0
C291 C 0.85466 0.06392 0.91214 0.0
N292 N 0.01572 0.2567 0.89797 0.0
N293 N 0.75429 0.04708 0.87006 0.0
H294 H 0.86208 0.95793 0.9515 0.0
H295 H 0.7777 0.93838 0.93455 0.0
H296 H 0.72056 0.06803 0.85171 0.0
H297 H 0.7472 -0.00869 0.86957 0.0
H298 H 0.03987 0.31981 0.87914 0.0
H299 H 0.05558 0.23851 0.90947 0.0
H300 H 0.94371 0.34496 0.88769 0.0
H301 H 0.86542 0.32726 0.86376 0.0
C302 C 0.6445 0.92528 0.30163 0.0
C303 C 0.67515 0.87329 0.32144 0.0
C304 C 0.56343 0.75843 0.32234 0.0
C305 C 0.52231 0.80491 0.31939 0.0
N306 N 0.52507 0.93483 0.29775 0.0
N307 N 0.67811 0.74764 0.33709 0.0
C308 C 0.56407 0.88982 0.30481 0.0
C309 C 0.6402 0.79249 0.32557 0.0
N310 N 0.69138 0.00759 0.28269 0.0
N311 N 0.52813 0.68204 0.32315 0.0
H312 H 0.7357 0.7741 0.33773 0.0
H313 H 0.65305 0.68556 0.34647 0.0
H314 H 0.4717 0.65652 0.32071 0.0
H315 H 0.55693 0.64669 0.32164 0.0
H316 H 0.67518 0.0501 0.26408 0.0
H317 H 0.75047 0.03325 0.28077 0.0
H318 H 0.54912 -0.00485 0.29324 0.0
H319 H 0.46682 0.91066 0.29812 0.0
C320 C 0.96276 0.60169 0.82527 0.0
C321 C 0.93143 0.65269 0.83827 0.0
C322 C 0.80774 0.5761 0.82689 0.0
C323 C 0.83426 0.51885 0.82234 0.0
N324 N 0.94644 0.49258 0.79236 0.0
N325 N 0.8409 0.70802 0.83099 0.0
C326 C 0.91551 0.5372 0.8128 0.0
C327 C 0.85976 0.64699 0.83131 0.0
N328 N 0.03487 0.61224 0.82841 0.0
N329 N 0.73168 0.56028 0.82982 0.0
H330 H 0.87838 0.76026 0.83459 0.0
H331 H 0.79245 0.71048 0.82226 0.0
H332 H 0.69443 0.51006 0.82404 0.0
H333 H 0.70478 0.59525 0.83905 0.0
H334 H 0.05668 0.57129 0.82616 0.0
H335 H 0.07169 0.66153 0.83524 0.0
H336 H 0.00704 0.50605 0.78102 0.0
H337 H 0.91291 0.44687 0.78116 0.0
loop_
_geom_bond_atom_site_label_1
_geom_bond_atom_site_label_2
_geom_bond_distance
_geom_bond_site_symmetry_2
_ccdc_geom_bond_type
Eu0 C9 2.828 . S
Eu0 O11 2.392 1_545 S
Eu0 O13 2.418 1_455 S
Eu0 O18 2.373 1_455 S
Eu0 O21 2.488 . S
Eu0 O22 2.471 . S
Eu0 O23 2.349 1_554 S
Eu1 O10 2.373 1_656 S
Eu1 O14 2.488 1_655 S
Eu1 O15 2.471 . S
Eu1 O16 2.349 1_556 S
Eu1 O19 2.392 1_565 S
Eu1 O20 2.418 1_665 S
Eu1 C30 2.828 . S
C2 O20 1.244 . S
C2 O23 1.265 . S
C3 C4 1.379 . S
C3 C7 1.373 . S
C3 C9 1.505 . S
C4 C3 1.379 . S
C4 C6 1.369 . S
C4 H32 0.930 . S
C5 C7 1.383 . S
C5 C8 1.382 . S
C5 H33 0.930 . S
C6 C4 1.369 . S
C6 C8 1.392 . S
C6 H34 0.930 . S
C7 C3 1.373 . S
C7 C5 1.383 . S
C7 H35 0.931 . S
C8 C5 1.382 . S
C8 C6 1.392 . S
C9 Eu0 2.828 . S
C9 C3 1.505 . S
C9 O21 1.249 . S
C9 O22 1.244 . S
O10 Eu1 2.373 1_454 S
O10 C12 1.258 . S
O11 Eu0 2.392 1_565 S
O11 C12 1.242 . S
C12 O10 1.258 . S
C12 O11 1.242 . S
O13 Eu0 2.418 1_655 S
O13 C17 1.236 1_545 S
O14 Eu1 2.488 1_455 S
O14 C30 1.249 1_455 S
O15 Eu1 2.471 . S
O15 C30 1.244 . S
O16 Eu1 2.349 1_554 S
O16 C17 1.265 . S
C17 O13 1.236 1_565 S
C17 O16 1.265 . S
O18 Eu0 2.373 1_655 S
O18 C31 1.258 1_554 S
O19 Eu1 2.392 1_545 S
O19 C31 1.242 . S
O20 Eu1 2.418 1_445 S
O20 C2 1.244 . S
O21 Eu0 2.488 . S
O21 C9 1.249 . S
O22 Eu0 2.471 . S
O22 C9 1.244 . S
O23 Eu0 2.349 1_556 S
O23 C2 1.265 . S
C24 C25 1.379 . S
C24 C28 1.373 . S
C24 C30 1.505 . S
C25 C24 1.379 . S
C25 C27 1.369 . S
C25 H36 0.930 1_556 S
C26 C28 1.383 . S
C26 C29 1.382 . S
C26 H37 0.930 . S
C27 C25 1.369 . S
C27 C29 1.392 . S
C27 H38 0.930 1_556 S
C28 C24 1.373 . S
C28 C26 1.383 . S
C28 H39 0.931 1_655 S
C29 C26 1.382 . S
C29 C27 1.392 . S
C30 Eu1 2.828 . S
C30 O14 1.249 1_655 S
C30 O15 1.244 . S
C30 C24 1.505 . S
C31 O18 1.258 1_556 S
C31 O19 1.242 . S
H32 C4 0.930 . S
H33 C5 0.930 . S
H34 C6 0.930 . S
H35 C7 0.931 . S
H36 C25 0.930 1_554 S
H37 C26 0.930 . S
H38 C27 0.930 1_554 S
H39 C28 0.931 1_455 S
Eu40 C49 2.828 . S
Eu40 O51 2.392 1_655 S
Eu40 O53 2.418 1_665 S
Eu40 O58 2.373 1_565 S
Eu40 O61 2.488 1_565 S
Eu40 O62 2.471 . S
Eu40 O63 2.349 . S
Eu41 O50 2.373 1_545 S
Eu41 O54 2.488 . S
Eu41 O55 2.471 . S
Eu41 O56 2.349 . S
Eu41 O59 2.392 1_455 S
Eu41 O60 2.418 1_445 S
Eu41 C70 2.828 . S
C42 O60 1.244 . S
C42 O63 1.265 . S
C43 C44 1.379 . S
C43 C47 1.373 . S
C43 C49 1.505 . S
C44 C43 1.379 . S
C44 C46 1.369 . S
C44 H72 0.930 . S
C45 C47 1.383 . S
C45 C48 1.382 . S
C45 H73 0.930 . S
C46 C44 1.369 . S
C46 C48 1.392 . S
C46 H74 0.930 . S
C47 C43 1.373 . S
C47 C45 1.383 . S
C47 H75 0.931 1_565 S
C48 C45 1.382 . S
C48 C46 1.392 . S
C49 Eu40 2.828 . S
C49 C43 1.505 . S
C49 O61 1.249 1_565 S
C49 O62 1.244 . S
O50 Eu41 2.373 1_565 S
O50 C52 1.258 . S
O51 Eu40 2.392 1_455 S
O51 C52 1.242 . S
C52 O50 1.258 . S
C52 O51 1.242 . S
O53 Eu40 2.418 1_445 S
O53 C57 1.244 . S
O54 Eu41 2.488 . S
O54 C70 1.249 . S
O55 Eu41 2.471 . S
O55 C70 1.244 . S
O56 Eu41 2.349 . S
O56 C57 1.265 . S
C57 O53 1.244 . S
C57 O56 1.265 . S
O58 Eu40 2.373 1_545 S
O58 C71 1.258 . S
O59 Eu41 2.392 1_655 S
O59 C71 1.242 . S
O60 Eu41 2.418 1_665 S
O60 C42 1.244 . S
O61 Eu40 2.488 1_545 S
O61 C49 1.249 1_545 S
O62 Eu40 2.471 . S
O62 C49 1.244 . S
O63 Eu40 2.349 . S
O63 C42 1.265 . S
C64 C65 1.379 . S
C64 C68 1.373 . S
C64 C70 1.505 . S
C65 C64 1.379 . S
C65 C67 1.369 . S
C65 H76 0.930 . S
C66 C68 1.383 . S
C66 C69 1.382 . S
C66 H77 0.930 . S
C67 C65 1.369 . S
C67 C69 1.392 . S
C67 H78 0.930 . S
C68 C64 1.373 . S
C68 C66 1.383 . S
C68 H79 0.931 . S
C69 C66 1.382 . S
C69 C67 1.392 . S
C70 Eu41 2.828 . S
C70 O54 1.249 . S
C70 O55 1.244 . S
C70 C64 1.505 . S
C71 O58 1.258 . S
C71 O59 1.242 . S
H72 C44 0.930 . S
H73 C45 0.930 . S
H74 C46 0.930 . S
H75 C47 0.931 1_545 S
H76 C65 0.930 . S
H77 C66 0.930 . S
H78 C67 0.930 . S
H79 C68 0.931 . S
Zn80 O86 1.920 . S
Zn80 O92 1.898 . S
Zn80 O95 1.905 . S
Zn81 O89 1.905 . S
Zn81 O90 1.898 . S
Zn81 O98 1.920 . S
Zn82 O85 2.080 . S
Zn82 O88 2.114 . S
Zn82 O91 2.120 . S
Zn82 O93 2.120 . S
Zn82 O94 2.114 . S
Zn82 O97 2.080 . S
C83 O88 1.166 . S
C83 O89 1.182 . S
C84 O90 1.167 . S
C84 O91 1.299 . S
O85 Zn82 2.080 . S
O85 C99 1.305 . S
O86 Zn80 1.920 . S
O86 C99 1.234 . S
C87 O92 1.167 . S
C87 O93 1.299 . S
O88 Zn82 2.114 . S
O88 C83 1.166 . S
O89 Zn81 1.905 . S
O89 C83 1.182 . S
O90 Zn81 1.898 . S
O90 C84 1.167 . S
O91 Zn82 2.120 . S
O91 C84 1.299 . S
O92 Zn80 1.898 . S
O92 C87 1.167 . S
O93 Zn82 2.120 . S
O93 C87 1.299 . S
O94 Zn82 2.114 . S
O94 C96 1.166 . S
O95 Zn80 1.905 . S
O95 C96 1.182 . S
C96 O94 1.166 . S
C96 O95 1.182 . S
O97 Zn82 2.080 . S
O97 C100 1.305 . S
O98 Zn81 1.920 . S
O98 C100 1.234 . S
C99 O85 1.305 . S
C99 O86 1.234 . S
C100 O97 1.305 . S
C100 O98 1.234 . S
Zn101 O107 1.920 . S
Zn101 O113 1.898 . S
Zn101 O116 1.905 . S
Zn102 O110 1.905 . S
Zn102 O111 1.898 . S
Zn102 O119 1.920 . S
Zn103 O106 2.080 . S
Zn103 O109 2.114 . S
Zn103 O112 2.120 . S
Zn103 O114 2.120 . S
Zn103 O115 2.114 . S
Zn103 O118 2.080 . S
C104 O109 1.166 . S
C104 O110 1.182 . S
C105 O111 1.167 . S
C105 O112 1.299 . S
O106 Zn103 2.080 . S
O106 C120 1.305 . S
O107 Zn101 1.920 . S
O107 C120 1.234 . S
C108 O113 1.167 . S
C108 O114 1.299 . S
O109 Zn103 2.114 . S
O109 C104 1.166 . S
O110 Zn102 1.905 . S
O110 C104 1.182 . S
O111 Zn102 1.898 . S
O111 C105 1.167 . S
O112 Zn103 2.120 . S
O112 C105 1.299 . S
O113 Zn101 1.898 . S
O113 C108 1.167 . S
O114 Zn103 2.120 . S
O114 C108 1.299 . S
O115 Zn103 2.114 . S
O115 C117 1.166 . S
O116 Zn101 1.905 . S
O116 C117 1.182 . S
C117 O115 1.166 . S
C117 O116 1.182 . S
O118 Zn103 2.080 . S
O118 C121 1.305 . S
O119 Zn102 1.920 . S
O119 C121 1.234 . S
C120 O106 1.305 . S
C120 O107 1.234 . S
C121 O118 1.305 . S
C121 O119 1.234 . S
C122 C123 1.363 . S
C122 C128 1.379 . S
C122 N130 1.356 . S
C123 C122 1.363 . S
C123 C129 1.363 . S
C124 C125 1.363 . S
C124 C129 1.379 . S
C124 N131 1.356 . S
C125 C124 1.363 . S
C125 C128 1.363 . S
N126 C128 1.356 . S
N126 H138 0.984 . S
N126 H139 0.985 . S
N127 C129 1.356 1_655 S
N127 H132 0.984 . S
N127 H133 0.985 . S
C128 C122 1.379 . S
C128 C125 1.363 . S
C128 N126 1.356 . S
C129 C123 1.363 . S
C129 C124 1.379 . S
C129 N127 1.356 1_455 S
N130 C122 1.356 . S
N130 H136 0.984 . S
N130 H137 0.984 . S
N131 C124 1.356 . S
N131 H134 0.984 . S
N131 H135 0.985 . S
H132 N127 0.984 . S
H133 N127 0.985 . S
H134 N131 0.984 . S
H135 N131 0.985 . S
H136 N130 0.984 . S
H137 N130 0.984 . S
H138 N126 0.984 . S
H139 N126 0.985 . S
C140 C141 1.363 . S
C140 C146 1.379 . S
C140 N148 1.356 . S
C141 C140 1.363 . S
C141 C147 1.363 . S
C142 C143 1.363 . S
C142 C147 1.379 . S
C142 N149 1.356 . S
C143 C142 1.363 . S
C143 C146 1.363 . S
N144 C146 1.356 . S
N144 H156 0.984 . S
N144 H157 0.985 . S
N145 C147 1.356 . S
N145 H150 0.984 . S
N145 H151 0.985 1_545 S
C146 C140 1.379 . S
C146 C143 1.363 . S
C146 N144 1.356 . S
C147 C141 1.363 . S
C147 C142 1.379 . S
C147 N145 1.356 . S
N148 C140 1.356 . S
N148 H154 0.984 . S
N148 H155 0.984 . S
N149 C142 1.356 . S
N149 H152 0.984 . S
N149 H153 0.985 . S
H150 N145 0.984 . S
H151 N145 0.985 1_565 S
H152 N149 0.984 . S
H153 N149 0.985 . S
H154 N148 0.984 . S
H155 N148 0.984 . S
H156 N144 0.984 . S
H157 N144 0.985 . S
C158 C159 1.363 . S
C158 C164 1.379 . S
C158 N166 1.356 . S
C159 C158 1.363 . S
C159 C165 1.363 . S
C160 C161 1.363 . S
C160 C165 1.379 . S
C160 N167 1.356 . S
C161 C160 1.363 . S
C161 C164 1.363 . S
N162 C164 1.356 . S
N162 H174 0.984 . S
N162 H175 0.985 . S
N163 C165 1.356 . S
N163 H168 0.984 . S
N163 H169 0.985 . S
C164 C158 1.379 . S
C164 C161 1.363 . S
C164 N162 1.356 . S
C165 C159 1.363 . S
C165 C160 1.379 . S
C165 N163 1.356 . S
N166 C158 1.356 . S
N166 H172 0.984 . S
N166 H173 0.984 . S
N167 C160 1.356 . S
N167 H170 0.984 . S
N167 H171 0.985 . S
H168 N163 0.984 . S
H169 N163 0.985 . S
H170 N167 0.984 . S
H171 N167 0.985 . S
H172 N166 0.984 . S
H173 N166 0.984 . S
H174 N162 0.984 . S
H175 N162 0.985 . S
C176 C177 1.363 . S
C176 C182 1.379 . S
C176 N184 1.356 . S
C177 C176 1.363 . S
C177 C183 1.363 . S
C178 C179 1.363 . S
C178 C183 1.379 . S
C178 N185 1.356 . S
C179 C178 1.363 . S
C179 C182 1.363 . S
N180 C182 1.356 . S
N180 H192 0.984 . S
N180 H193 0.985 . S
N181 C183 1.356 . S
N181 H186 0.984 . S
N181 H187 0.985 . S
C182 C176 1.379 . S
C182 C179 1.363 . S
C182 N180 1.356 . S
C183 C177 1.363 . S
C183 C178 1.379 . S
C183 N181 1.356 . S
N184 C176 1.356 . S
N184 H190 0.984 . S
N184 H191 0.984 . S
N185 C178 1.356 . S
N185 H188 0.984 . S
N185 H189 0.985 . S
H186 N181 0.984 . S
H187 N181 0.985 . S
H188 N185 0.984 . S
H189 N185 0.985 . S
H190 N184 0.984 . S
H191 N184 0.984 . S
H192 N180 0.984 . S
H193 N180 0.985 . S
C194 C195 1.363 . S
C194 C200 1.379 . S
C194 N202 1.356 . S
C195 C194 1.363 . S
C195 C201 1.363 . S
C196 C197 1.363 . S
C196 C201 1.379 . S
C196 N203 1.356 . S
C197 C196 1.363 . S
C197 C200 1.363 . S
N198 C200 1.356 . S
N198 H210 0.984 . S
N198 H211 0.985 . S
N199 C201 1.356 . S
N199 H204 0.984 . S
N199 H205 0.985 . S
C200 C194 1.379 . S
C200 C197 1.363 . S
C200 N198 1.356 . S
C201 C195 1.363 . S
C201 C196 1.379 . S
C201 N199 1.356 . S
N202 C194 1.356 . S
N202 H208 0.984 1_565 S
N202 H209 0.984 . S
N203 C196 1.356 . S
N203 H206 0.984 . S
N203 H207 0.985 . S
H204 N199 0.984 . S
H205 N199 0.985 . S
H206 N203 0.984 . S
H207 N203 0.985 . S
H208 N202 0.984 1_545 S
H209 N202 0.984 . S
H210 N198 0.984 . S
H211 N198 0.985 . S
C212 C213 1.363 . S
C212 C218 1.379 . S
C212 N220 1.356 . S
C213 C212 1.363 . S
C213 C219 1.363 . S
C214 C215 1.363 . S
C214 C219 1.379 . S
C214 N221 1.356 . S
C215 C214 1.363 . S
C215 C218 1.363 . S
N216 C218 1.356 . S
N216 H228 0.984 . S
N216 H229 0.985 . S
N217 C219 1.356 . S
N217 H222 0.984 . S
N217 H223 0.985 . S
C218 C212 1.379 . S
C218 C215 1.363 . S
C218 N216 1.356 . S
C219 C213 1.363 . S
C219 C214 1.379 . S
C219 N217 1.356 . S
N220 C212 1.356 . S
N220 H226 0.984 . S
N220 H227 0.984 . S
N221 C214 1.356 . S
N221 H224 0.984 . S
N221 H225 0.985 . S
H222 N217 0.984 . S
H223 N217 0.985 . S
H224 N221 0.984 . S
H225 N221 0.985 . S
H226 N220 0.984 . S
H227 N220 0.984 . S
H228 N216 0.984 . S
H229 N216 0.985 . S
C230 C231 1.363 . S
C230 C236 1.379 . S
C230 N238 1.356 . S
C231 C230 1.363 . S
C231 C237 1.363 . S
C232 C233 1.363 . S
C232 C237 1.379 . S
C232 N239 1.356 . S
C233 C232 1.363 . S
C233 C236 1.363 . S
N234 C236 1.356 . S
N234 H246 0.984 . S
N234 H247 0.985 . S
N235 C237 1.356 1_545 S
N235 H240 0.984 . S
N235 H241 0.985 . S
C236 C230 1.379 . S
C236 C233 1.363 . S
C236 N234 1.356 . S
C237 C231 1.363 . S
C237 C232 1.379 . S
C237 N235 1.356 1_565 S
N238 C230 1.356 . S
N238 H244 0.984 . S
N238 H245 0.984 . S
N239 C232 1.356 . S
N239 H242 0.984 . S
N239 H243 0.985 . S
H240 N235 0.984 . S
H241 N235 0.985 . S
H242 N239 0.984 . S
H243 N239 0.985 . S
H244 N238 0.984 . S
H245 N238 0.984 . S
H246 N234 0.984 . S
H247 N234 0.985 . S
C248 C249 1.363 . S
C248 C254 1.379 . S
C248 N256 1.356 . S
C249 C248 1.363 . S
C249 C255 1.363 . S
C250 C251 1.363 . S
C250 C255 1.379 . S
C250 N257 1.356 . S
C251 C250 1.363 . S
C251 C254 1.363 . S
N252 C254 1.356 . S
N252 H264 0.984 . S
N252 H265 0.985 . S
N253 C255 1.356 . S
N253 H258 0.984 . S
N253 H259 0.985 . S
C254 C248 1.379 . S
C254 C251 1.363 . S
C254 N252 1.356 . S
C255 C249 1.363 . S
C255 C250 1.379 . S
C255 N253 1.356 . S
N256 C248 1.356 . S
N256 H262 0.984 . S
N256 H263 0.984 . S
N257 C250 1.356 . S
N257 H260 0.984 . S
N257 H261 0.985 . S
H258 N253 0.984 . S
H259 N253 0.985 . S
H260 N257 0.984 . S
H261 N257 0.985 . S
H262 N256 0.984 . S
H263 N256 0.984 . S
H264 N252 0.984 . S
H265 N252 0.985 . S
C266 C267 1.363 . S
C266 C272 1.379 . S
C266 N274 1.356 . S
C267 C266 1.363 . S
C267 C273 1.363 . S
C268 C269 1.363 . S
C268 C273 1.379 . S
C268 N275 1.356 . S
C269 C268 1.363 . S
C269 C272 1.363 . S
N270 C272 1.356 . S
N270 H282 0.984 . S
N270 H283 0.985 . S
N271 C273 1.356 . S
N271 H276 0.984 . S
N271 H277 0.985 . S
C272 C266 1.379 . S
C272 C269 1.363 . S
C272 N270 1.356 . S
C273 C267 1.363 . S
C273 C268 1.379 . S
C273 N271 1.356 . S
N274 C266 1.356 . S
N274 H280 0.984 . S
N274 H281 0.984 . S
N275 C268 1.356 . S
N275 H278 0.984 . S
N275 H279 0.985 . S
H276 N271 0.984 . S
H277 N271 0.985 . S
H278 N275 0.984 . S
H279 N275 0.985 . S
H280 N274 0.984 . S
H281 N274 0.984 . S
H282 N270 0.984 . S
H283 N270 0.985 . S
C284 C285 1.363 . S
C284 C290 1.379 . S
C284 N292 1.356 . S
C285 C284 1.363 . S
C285 C291 1.363 . S
C286 C287 1.363 . S
C286 C291 1.379 . S
C286 N293 1.356 . S
C287 C286 1.363 . S
C287 C290 1.363 . S
N288 C290 1.356 . S
N288 H300 0.984 . S
N288 H301 0.985 . S
N289 C291 1.356 . S
N289 H294 0.984 . S
N289 H295 0.985 . S
C290 C284 1.379 . S
C290 C287 1.363 . S
C290 N288 1.356 . S
C291 C285 1.363 . S
C291 C286 1.379 . S
C291 N289 1.356 . S
N292 C284 1.356 . S
N292 H298 0.984 . S
N292 H299 0.984 . S
N293 C286 1.356 . S
N293 H296 0.984 . S
N293 H297 0.985 . S
H294 N289 0.984 . S
H295 N289 0.985 . S
H296 N293 0.984 . S
H297 N293 0.985 . S
H298 N292 0.984 . S
H299 N292 0.984 . S
H300 N288 0.984 . S
H301 N288 0.985 . S
C302 C303 1.363 . S
C302 C308 1.379 . S
C302 N310 1.356 . S
C303 C302 1.363 . S
C303 C309 1.363 . S
C304 C305 1.363 . S
C304 C309 1.379 . S
C304 N311 1.356 . S
C305 C304 1.363 . S
C305 C308 1.363 . S
N306 C308 1.356 . S
N306 H318 0.984 . S
N306 H319 0.985 . S
N307 C309 1.356 . S
N307 H312 0.984 . S
N307 H313 0.985 . S
C308 C302 1.379 . S
C308 C305 1.363 . S
C308 N306 1.356 . S
C309 C303 1.363 . S
C309 C304 1.379 . S
C309 N307 1.356 . S
N310 C302 1.356 . S
N310 H316 0.984 . S
N310 H317 0.984 . S
N311 C304 1.356 . S
N311 H314 0.984 . S
N311 H315 0.985 . S
H312 N307 0.984 . S
H313 N307 0.985 . S
H314 N311 0.984 . S
H315 N311 0.985 . S
H316 N310 0.984 . S
H317 N310 0.984 . S
H318 N306 0.984 . S
H319 N306 0.985 . S
C320 C321 1.363 . S
C320 C326 1.379 . S
C320 N328 1.356 . S
C321 C320 1.363 . S
C321 C327 1.363 . S
C322 C323 1.363 . S
C322 C327 1.379 . S
C322 N329 1.356 . S
C323 C322 1.363 . S
C323 C326 1.363 . S
N324 C326 1.356 . S
N324 H336 0.984 . S
N324 H337 0.985 . S
N325 C327 1.356 . S
N325 H330 0.984 . S
N325 H331 0.985 . S
C326 C320 1.379 . S
C326 C323 1.363 . S
C326 N324 1.356 . S
C327 C321 1.363 . S
C327 C322 1.379 . S
C327 N325 1.356 . S
N328 C320 1.356 . S
N328 H334 0.984 . S
N328 H335 0.984 . S
N329 C322 1.356 . S
N329 H332 0.984 . S
N329 H333 0.985 . S
H330 N325 0.984 . S
H331 N325 0.985 . S
H332 N329 0.984 . S
H333 N329 0.985 . S
H334 N328 0.984 . S
H335 N328 0.984 . S
H336 N324 0.984 . S
H337 N324 0.985 . S
C123 C12 1.647 . S
C125 C99 1.548 . S
C141 C69 1.166 . S
C143 C105 1.092 . S
C159 C8 1.328 . S
C161 C96 1.220 . S
C177 C71 2.051 . S
C179 C121 1.894 . S
C195 C17 2.392 . S
C197 C87 2.340 . S
C215 C104 2.096 . S
C213 C42 2.116 . S
C231 C52 1.647 . S
C233 C100 1.548 . S
C251 C117 2.096 . S
C249 C2 2.116 . S
C269 C84 2.340 . S
C267 C57 2.392 . S
C287 C120 1.894 . S
C285 C31 2.051 . S
C305 C83 1.220 . S
C303 C48 1.328 . S
C323 C108 1.092 . S
C321 C29 1.166 . S
