# Generated by pormake.
# Topology iac, (4,6)-cn, num edge types: 1
# Building blocks:
#     Node 0, Type 0, BuildingBlock: QUQFOY_clean_sbu_1, # of connection points: 4
#     Node 1, Type 0, BuildingBlock: QUQFOY_clean_sbu_1, # of connection points: 4
#     Node 2, Type 0, BuildingBlock: QUQFOY_clean_sbu_1, # of connection points: 4
#     Node 3, Type 0, BuildingBlock: QUQFOY_clean_sbu_1, # of connection points: 4
#     Node 4, Type 0, BuildingBlock: QUQFOY_clean_sbu_1, # of connection points: 4
#     Node 5, Type 0, BuildingBlock: QUQFOY_clean_sbu_1, # of connection points: 4
#     Node 6, Type 0, BuildingBlock: QUQFOY_clean_sbu_1, # of connection points: 4
#     Node 7, Type 0, BuildingBlock: QUQFOY_clean_sbu_1, # of connection points: 4
#     Node 8, Type 0, BuildingBlock: QUQFOY_clean_sbu_1, # of connection points: 4
#     Node 9, Type 0, BuildingBlock: QUQFOY_clean_sbu_1, # of connection points: 4
#     Node 10, Type 0, BuildingBlock: QUQFOY_clean_sbu_1, # of connection points: 4
#     Node 11, Type 0, BuildingBlock: QUQFOY_clean_sbu_1, # of connection points: 4
#     Node 12, Type 0, BuildingBlock: QUQFOY_clean_sbu_1, # of connection points: 4
#     Node 13, Type 0, BuildingBlock: QUQFOY_clean_sbu_1, # of connection points: 4
#     Node 14, Type 0, BuildingBlock: QUQFOY_clean_sbu_1, # of connection points: 4
#     Node 15, Type 0, BuildingBlock: QUQFOY_clean_sbu_1, # of connection points: 4
#     Node 16, Type 0, BuildingBlock: QUQFOY_clean_sbu_1, # of connection points: 4
#     Node 17, Type 0, BuildingBlock: QUQFOY_clean_sbu_1, # of connection points: 4
#     Node 18, Type 0, BuildingBlock: QUQFOY_clean_sbu_1, # of connection points: 4
#     Node 19, Type 0, BuildingBlock: QUQFOY_clean_sbu_1, # of connection points: 4
#     Node 20, Type 0, BuildingBlock: QUQFOY_clean_sbu_1, # of connection points: 4
#     Node 21, Type 0, BuildingBlock: QUQFOY_clean_sbu_1, # of connection points: 4
#     Node 22, Type 0, BuildingBlock: QUQFOY_clean_sbu_1, # of connection points: 4
#     Node 23, Type 0, BuildingBlock: QUQFOY_clean_sbu_1, # of connection points: 4
#     Node 24, Type 1, BuildingBlock: CIFDUS_clean_sbu_1, # of connection points: 6
#     Node 25, Type 1, BuildingBlock: CIFDUS_clean_sbu_1, # of connection points: 6
#     Node 26, Type 1, BuildingBlock: CIFDUS_clean_sbu_1, # of connection points: 6
#     Node 27, Type 1, BuildingBlock: CIFDUS_clean_sbu_1, # of connection points: 6
#     Node 28, Type 1, BuildingBlock: CIFDUS_clean_sbu_1, # of connection points: 6
#     Node 29, Type 1, BuildingBlock: CIFDUS_clean_sbu_1, # of connection points: 6
#     Node 30, Type 1, BuildingBlock: CIFDUS_clean_sbu_1, # of connection points: 6
#     Node 31, Type 1, BuildingBlock: CIFDUS_clean_sbu_1, # of connection points: 6
#     Node 32, Type 1, BuildingBlock: CIFDUS_clean_sbu_1, # of connection points: 6
#     Node 33, Type 1, BuildingBlock: CIFDUS_clean_sbu_1, # of connection points: 6
#     Node 34, Type 1, BuildingBlock: CIFDUS_clean_sbu_1, # of connection points: 6
#     Node 35, Type 1, BuildingBlock: CIFDUS_clean_sbu_1, # of connection points: 6
#     Node 36, Type 1, BuildingBlock: CIFDUS_clean_sbu_1, # of connection points: 6
#     Node 37, Type 1, BuildingBlock: CIFDUS_clean_sbu_1, # of connection points: 6
#     Node 38, Type 1, BuildingBlock: CIFDUS_clean_sbu_1, # of connection points: 6
#     Node 39, Type 1, BuildingBlock: CIFDUS_clean_sbu_1, # of connection points: 6
#     Edge 40, Type (0, 1), BuildingBlock: MIFKUJ_clean_linker_0, # of connection points: 2
#     Edge 41, Type (0, 1), BuildingBlock: MIFKUJ_clean_linker_0, # of connection points: 2
#     Edge 42, Type (0, 1), BuildingBlock: MIFKUJ_clean_linker_0, # of connection points: 2
#     Edge 43, Type (0, 1), BuildingBlock: MIFKUJ_clean_linker_0, # of connection points: 2
#     Edge 44, Type (0, 1), BuildingBlock: MIFKUJ_clean_linker_0, # of connection points: 2
#     Edge 45, Type (0, 1), BuildingBlock: MIFKUJ_clean_linker_0, # of connection points: 2
#     Edge 46, Type (0, 1), BuildingBlock: MIFKUJ_clean_linker_0, # of connection points: 2
#     Edge 47, Type (0, 1), BuildingBlock: MIFKUJ_clean_linker_0, # of connection points: 2
#     Edge 48, Type (0, 1), BuildingBlock: MIFKUJ_clean_linker_0, # of connection points: 2
#     Edge 49, Type (0, 1), BuildingBlock: MIFKUJ_clean_linker_0, # of connection points: 2
#     Edge 50, Type (0, 1), BuildingBlock: MIFKUJ_clean_linker_0, # of connection points: 2
#     Edge 51, Type (0, 1), BuildingBlock: MIFKUJ_clean_linker_0, # of connection points: 2
#     Edge 52, Type (0, 1), BuildingBlock: MIFKUJ_clean_linker_0, # of connection points: 2
#     Edge 53, Type (0, 1), BuildingBlock: MIFKUJ_clean_linker_0, # of connection points: 2
#     Edge 54, Type (0, 1), BuildingBlock: MIFKUJ_clean_linker_0, # of connection points: 2
#     Edge 55, Type (0, 1), BuildingBlock: MIFKUJ_clean_linker_0, # of connection points: 2
#     Edge 56, Type (0, 1), BuildingBlock: MIFKUJ_clean_linker_0, # of connection points: 2
#     Edge 57, Type (0, 1), BuildingBlock: MIFKUJ_clean_linker_0, # of connection points: 2
#     Edge 58, Type (0, 1), BuildingBlock: MIFKUJ_clean_linker_0, # of connection points: 2
#     Edge 59, Type (0, 1), BuildingBlock: MIFKUJ_clean_linker_0, # of connection points: 2
#     Edge 60, Type (0, 1), BuildingBlock: MIFKUJ_clean_linker_0, # of connection points: 2
#     Edge 61, Type (0, 1), BuildingBlock: MIFKUJ_clean_linker_0, # of connection points: 2
#     Edge 62, Type (0, 1), BuildingBlock: MIFKUJ_clean_linker_0, # of connection points: 2
#     Edge 63, Type (0, 1), BuildingBlock: MIFKUJ_clean_linker_0, # of connection points: 2
#     Edge 64, Type (0, 1), BuildingBlock: MIFKUJ_clean_linker_0, # of connection points: 2
#     Edge 65, Type (0, 1), BuildingBlock: MIFKUJ_clean_linker_0, # of connection points: 2
#     Edge 66, Type (0, 1), BuildingBlock: MIFKUJ_clean_linker_0, # of connection points: 2
#     Edge 67, Type (0, 1), BuildingBlock: MIFKUJ_clean_linker_0, # of connection points: 2
#     Edge 68, Type (0, 1), BuildingBlock: MIFKUJ_clean_linker_0, # of connection points: 2
#     Edge 69, Type (0, 1), BuildingBlock: MIFKUJ_clean_linker_0, # of connection points: 2
#     Edge 70, Type (0, 1), BuildingBlock: MIFKUJ_clean_linker_0, # of connection points: 2
#     Edge 71, Type (0, 1), BuildingBlock: MIFKUJ_clean_linker_0, # of connection points: 2
#     Edge 72, Type (0, 1), BuildingBlock: MIFKUJ_clean_linker_0, # of connection points: 2
#     Edge 73, Type (0, 1), BuildingBlock: MIFKUJ_clean_linker_0, # of connection points: 2
#     Edge 74, Type (0, 1), BuildingBlock: MIFKUJ_clean_linker_0, # of connection points: 2
#     Edge 75, Type (0, 1), BuildingBlock: MIFKUJ_clean_linker_0, # of connection points: 2
#     Edge 76, Type (0, 1), BuildingBlock: MIFKUJ_clean_linker_0, # of connection points: 2
#     Edge 77, Type (0, 1), BuildingBlock: MIFKUJ_clean_linker_0, # of connection points: 2
#     Edge 78, Type (0, 1), BuildingBlock: MIFKUJ_clean_linker_0, # of connection points: 2
#     Edge 79, Type (0, 1), BuildingBlock: MIFKUJ_clean_linker_0, # of connection points: 2
#     Edge 80, Type (0, 1), BuildingBlock: MIFKUJ_clean_linker_0, # of connection points: 2
#     Edge 81, Type (0, 1), BuildingBlock: MIFKUJ_clean_linker_0, # of connection points: 2
#     Edge 82, Type (0, 1), BuildingBlock: MIFKUJ_clean_linker_0, # of connection points: 2
#     Edge 83, Type (0, 1), BuildingBlock: MIFKUJ_clean_linker_0, # of connection points: 2
#     Edge 84, Type (0, 1), BuildingBlock: MIFKUJ_clean_linker_0, # of connection points: 2
#     Edge 85, Type (0, 1), BuildingBlock: MIFKUJ_clean_linker_0, # of connection points: 2
#     Edge 86, Type (0, 1), BuildingBlock: MIFKUJ_clean_linker_0, # of connection points: 2
#     Edge 87, Type (0, 1), BuildingBlock: MIFKUJ_clean_linker_0, # of connection points: 2
#     Edge 88, Type (0, 1), BuildingBlock: MIFKUJ_clean_linker_0, # of connection points: 2
#     Edge 89, Type (0, 1), BuildingBlock: MIFKUJ_clean_linker_0, # of connection points: 2
#     Edge 90, Type (0, 1), BuildingBlock: MIFKUJ_clean_linker_0, # of connection points: 2
#     Edge 91, Type (0, 1), BuildingBlock: MIFKUJ_clean_linker_0, # of connection points: 2
#     Edge 92, Type (0, 1), BuildingBlock: MIFKUJ_clean_linker_0, # of connection points: 2
#     Edge 93, Type (0, 1), BuildingBlock: MIFKUJ_clean_linker_0, # of connection points: 2
#     Edge 94, Type (0, 1), BuildingBlock: MIFKUJ_clean_linker_0, # of connection points: 2
#     Edge 95, Type (0, 1), BuildingBlock: MIFKUJ_clean_linker_0, # of connection points: 2
#     Edge 96, Type (0, 1), BuildingBlock: MIFKUJ_clean_linker_0, # of connection points: 2
#     Edge 97, Type (0, 1), BuildingBlock: MIFKUJ_clean_linker_0, # of connection points: 2
#     Edge 98, Type (0, 1), BuildingBlock: MIFKUJ_clean_linker_0, # of connection points: 2
#     Edge 99, Type (0, 1), BuildingBlock: MIFKUJ_clean_linker_0, # of connection points: 2
#     Edge 100, Type (0, 1), BuildingBlock: MIFKUJ_clean_linker_0, # of connection points: 2
#     Edge 101, Type (0, 1), BuildingBlock: MIFKUJ_clean_linker_0, # of connection points: 2
#     Edge 102, Type (0, 1), BuildingBlock: MIFKUJ_clean_linker_0, # of connection points: 2
#     Edge 103, Type (0, 1), BuildingBlock: MIFKUJ_clean_linker_0, # of connection points: 2
#     Edge 104, Type (0, 1), BuildingBlock: MIFKUJ_clean_linker_0, # of connection points: 2
#     Edge 105, Type (0, 1), BuildingBlock: MIFKUJ_clean_linker_0, # of connection points: 2
#     Edge 106, Type (0, 1), BuildingBlock: MIFKUJ_clean_linker_0, # of connection points: 2
#     Edge 107, Type (0, 1), BuildingBlock: MIFKUJ_clean_linker_0, # of connection points: 2
#     Edge 108, Type (0, 1), BuildingBlock: MIFKUJ_clean_linker_0, # of connection points: 2
#     Edge 109, Type (0, 1), BuildingBlock: MIFKUJ_clean_linker_0, # of connection points: 2
#     Edge 110, Type (0, 1), BuildingBlock: MIFKUJ_clean_linker_0, # of connection points: 2
#     Edge 111, Type (0, 1), BuildingBlock: MIFKUJ_clean_linker_0, # of connection points: 2
#     Edge 112, Type (0, 1), BuildingBlock: MIFKUJ_clean_linker_0, # of connection points: 2
#     Edge 113, Type (0, 1), BuildingBlock: MIFKUJ_clean_linker_0, # of connection points: 2
#     Edge 114, Type (0, 1), BuildingBlock: MIFKUJ_clean_linker_0, # of connection points: 2
#     Edge 115, Type (0, 1), BuildingBlock: MIFKUJ_clean_linker_0, # of connection points: 2
#     Edge 116, Type (0, 1), BuildingBlock: MIFKUJ_clean_linker_0, # of connection points: 2
#     Edge 117, Type (0, 1), BuildingBlock: MIFKUJ_clean_linker_0, # of connection points: 2
#     Edge 118, Type (0, 1), BuildingBlock: MIFKUJ_clean_linker_0, # of connection points: 2
#     Edge 119, Type (0, 1), BuildingBlock: MIFKUJ_clean_linker_0, # of connection points: 2
#     Edge 120, Type (0, 1), BuildingBlock: MIFKUJ_clean_linker_0, # of connection points: 2
#     Edge 121, Type (0, 1), BuildingBlock: MIFKUJ_clean_linker_0, # of connection points: 2
#     Edge 122, Type (0, 1), BuildingBlock: MIFKUJ_clean_linker_0, # of connection points: 2
#     Edge 123, Type (0, 1), BuildingBlock: MIFKUJ_clean_linker_0, # of connection points: 2
#     Edge 124, Type (0, 1), BuildingBlock: MIFKUJ_clean_linker_0, # of connection points: 2
#     Edge 125, Type (0, 1), BuildingBlock: MIFKUJ_clean_linker_0, # of connection points: 2
#     Edge 126, Type (0, 1), BuildingBlock: MIFKUJ_clean_linker_0, # of connection points: 2
#     Edge 127, Type (0, 1), BuildingBlock: MIFKUJ_clean_linker_0, # of connection points: 2
#     Edge 128, Type (0, 1), BuildingBlock: MIFKUJ_clean_linker_0, # of connection points: 2
#     Edge 129, Type (0, 1), BuildingBlock: MIFKUJ_clean_linker_0, # of connection points: 2
#     Edge 130, Type (0, 1), BuildingBlock: MIFKUJ_clean_linker_0, # of connection points: 2
#     Edge 131, Type (0, 1), BuildingBlock: MIFKUJ_clean_linker_0, # of connection points: 2
#     Edge 132, Type (0, 1), BuildingBlock: MIFKUJ_clean_linker_0, # of connection points: 2
#     Edge 133, Type (0, 1), BuildingBlock: MIFKUJ_clean_linker_0, # of connection points: 2
#     Edge 134, Type (0, 1), BuildingBlock: MIFKUJ_clean_linker_0, # of connection points: 2
#     Edge 135, Type (0, 1), BuildingBlock: MIFKUJ_clean_linker_0, # of connection points: 2
# Relax obj value: 0.123
# Max RMSD: 0.187
# Mean RMSD: 0.150
data_MOF--net-iac--node1-QUQFOY_clean_sbu_1--node2-CIFDUS_clean_sbu_1--edge1-MIFKUJ_clean_linker_0
_symmetry_space_group_name_H-M    P1
_symmetry_Int_Tables_number       1
_symmetry_cell_setting            triclinic
loop_
_symmetry_equiv_pos_as_xyz
'x, y, z'
_cell_length_a     71.062182
_cell_length_b     70.863179
_cell_length_c     71.119441
_cell_angle_alpha  91.160271
_cell_angle_beta   90.318181
_cell_angle_gamma 93.10652
loop_
_atom_site_label
_atom_site_type_symbol
_atom_site_fract_x
_atom_site_fract_y
_atom_site_fract_z
_atom_type_partial_charge
O0 O -0.00225 0.22062 0.12121 0.0
Cd1 Cd -0.00211 0.24493 0.13749 0.0
Cd2 Cd 0.01586 0.25947 0.10824 0.0
O3 O 0.00852 0.23386 0.09531 0.0
O4 O 0.97827 0.23989 0.15695 0.0
O5 O 0.97608 0.26157 0.13508 0.0
C6 C 0.9688 0.25264 0.14914 0.0
C7 C 0.00866 0.28859 0.09688 0.0
C8 C 0.00232 0.21934 0.10402 0.0
C9 C 0.03856 0.25675 0.1431 0.0
O10 O 0.03897 0.25936 0.12549 0.0
O11 O 0.02302 0.2525 0.15121 0.0
O12 O 0.02109 0.27875 0.08866 0.0
O13 O -0.00027 0.28157 0.1111 0.0
O14 O 0.03093 0.7573 0.37861 0.0
Cd15 Cd 0.00584 0.75457 0.39276 0.0
Cd16 Cd 0.99312 0.76602 0.36262 0.0
O17 O 0.01615 0.75434 0.35145 0.0
O18 O 0.01026 0.73893 0.41467 0.0
O19 O 0.99178 0.72948 0.39052 0.0
C20 C -0.00056 0.72602 0.40651 0.0
C21 C 0.96308 0.75858 0.35168 0.0
C22 C 0.03133 0.75473 0.36092 0.0
C23 C 0.99545 0.79318 0.3936 0.0
O24 O -0.00249 0.79184 0.37594 0.0
O25 O 0.99484 0.77848 0.40345 0.0
O26 O 0.97489 0.7688 0.34198 0.0
O27 O 0.96859 0.75197 0.36747 0.0
O28 O 0.48829 0.73243 0.62429 0.0
Cd29 Cd 0.48752 0.75726 0.63961 0.0
Cd30 Cd 0.50459 0.77148 0.60986 0.0
O31 O 0.49756 0.74522 0.59763 0.0
O32 O 0.46874 0.75293 0.65999 0.0
O33 O 0.46476 0.77253 0.63655 0.0
C34 C 0.45841 0.76459 0.65158 0.0
C35 C 0.4972 0.80046 0.59804 0.0
C36 C 0.49236 0.73072 0.60698 0.0
C37 C 0.52772 0.7701 0.6447 0.0
O38 O 0.52786 0.77226 0.62703 0.0
O39 O 0.51237 0.76581 0.65307 0.0
O40 O 0.51008 0.79081 0.59034 0.0
O41 O 0.48778 0.79326 0.61187 0.0
O42 O 0.53264 0.26009 0.87721 0.0
Cd43 Cd 0.50831 0.25679 0.89256 0.0
Cd44 Cd 0.49463 0.26934 0.86321 0.0
O45 O 0.51733 0.25898 0.85031 0.0
O46 O 0.51572 0.24142 0.91365 0.0
O47 O 0.49488 0.23131 0.8918 0.0
C48 C 0.50464 0.22805 0.90666 0.0
C49 C 0.46488 0.26397 0.85061 0.0
C50 C 0.53268 0.2587 0.85941 0.0
C51 C 0.49794 0.29511 0.8957 0.0
O52 O 0.49918 0.29431 0.87795 0.0
O53 O 0.49788 0.28012 0.90507 0.0
O54 O 0.47724 0.27527 0.84288 0.0
O55 O 0.46972 0.25505 0.86541 0.0
O56 O 0.13117 0.99476 0.22932 0.0
Cd57 Cd 0.14635 0.9934 0.25372 0.0
Cd58 Cd 0.11675 0.0075 0.26876 0.0
O59 O 0.10418 -0.00201 0.24379 0.0
O60 O 0.16613 0.97518 0.24883 0.0
O61 O 0.14255 0.96975 0.26864 0.0
C62 C 0.15728 0.96392 0.2602 0.0
C63 C 0.10363 0.00098 0.2978 0.0
C64 C 0.11338 0.99549 0.22874 0.0
C65 C 0.151 0.03335 0.26552 0.0
O66 O 0.13324 0.0323 0.26765 0.0
O67 O 0.1598 0.01856 0.26203 0.0
O68 O 0.0959 0.01228 0.28647 0.0
O69 O 0.11852 0.99276 0.2924 0.0
O70 O 0.24099 0.88235 0.53613 0.0
Cd71 Cd 0.24096 0.89667 0.51137 0.0
Cd72 Cd 0.25147 0.8655 0.49761 0.0
O73 O 0.24215 0.8543 0.5223 0.0
O74 O 0.2261 0.91904 0.51588 0.0
O75 O 0.21688 0.89506 0.49674 0.0
C76 C 0.21353 0.91103 0.50478 0.0
C77 C 0.24346 0.85363 0.46804 0.0
C78 C 0.24056 0.86448 0.53702 0.0
C79 C 0.28043 0.89638 0.49983 0.0
O80 O 0.27767 0.87857 0.49936 0.0
O81 O 0.26667 0.9069 0.50193 0.0
O82 O 0.25342 0.84426 0.47942 0.0
O83 O 0.23704 0.86941 0.47387 0.0
O84 O 0.38308 0.02154 0.72619 0.0
Cd85 Cd 0.3663 0.02225 0.74943 0.0
Cd86 Cd 0.39519 0.00671 0.76288 0.0
O87 O 0.40982 0.01479 0.73965 0.0
O88 O 0.34741 0.03917 0.74026 0.0
O89 O 0.36607 0.04641 0.76473 0.0
C90 C 0.35347 0.0513 0.75289 0.0
C91 C 0.40629 0.01083 0.79317 0.0
C92 C 0.40059 0.01917 0.72522 0.0
C93 C 0.3601 0.98247 0.75697 0.0
O94 O 0.37787 0.98322 0.75866 0.0
O95 O 0.35139 0.99753 0.75552 0.0
O96 O 0.41284 -0.00173 0.78199 0.0
O97 O 0.39413 0.02205 0.78678 0.0
O98 O 0.26609 0.13307 0.0246 0.0
Cd99 Cd 0.26757 0.11849 -0.00066 0.0
Cd100 Cd 0.25313 0.14913 0.98819 0.0
O101 O 0.26353 0.16139 0.01277 0.0
O102 O 0.28456 0.09776 0.00428 0.0
O103 O 0.29221 0.12176 0.98575 0.0
C104 C 0.29685 0.10657 0.99394 0.0
C105 C 0.25744 0.16153 0.95837 0.0
C106 C 0.26602 0.15089 0.02673 0.0
C107 C 0.22775 0.11461 0.99041 0.0
O108 O 0.22895 0.1325 0.99177 0.0
O109 O 0.24257 0.10539 0.98968 0.0
O110 O 0.24611 0.1688 0.97028 0.0
O111 O 0.26718 0.14771 0.9638 0.0
O112 O 0.74745 0.3815 0.03634 0.0
Cd113 Cd 0.74769 0.39812 0.01325 0.0
Cd114 Cd 0.75792 0.36812 0.99619 0.0
O115 O 0.74991 0.35488 0.0202 0.0
O116 O 0.73237 0.41921 0.02071 0.0
O117 O 0.7239 0.39815 -0.00175 0.0
C118 C 0.71998 0.41258 0.00864 0.0
C119 C 0.75069 0.35465 0.96699 0.0
C120 C 0.74765 0.36364 0.03565 0.0
C121 C 0.78674 0.39974 0.00058 0.0
O122 O 0.78373 0.38219 0.99737 0.0
O123 O 0.77328 0.40984 0.00536 0.0
O124 O 0.76219 0.3472 0.97836 0.0
O125 O 0.7424 0.3695 0.97262 0.0
O126 O 0.87627 0.51572 0.22483 0.0
Cd127 Cd 0.8619 0.51764 0.24952 0.0
Cd128 Cd 0.89305 0.50954 0.26342 0.0
O129 O 0.90338 0.52208 0.2393 0.0
O130 O 0.84008 0.53327 0.24535 0.0
O131 O 0.86477 0.54247 0.26332 0.0
C132 C 0.84886 0.54611 0.2557 0.0
C133 C 0.90371 0.51682 0.29356 0.0
C134 C 0.89376 0.52017 0.22421 0.0
C135 C 0.86349 0.47888 0.26061 0.0
O136 O 0.88119 0.48245 0.26035 0.0
O137 O 0.85232 0.49223 0.25967 0.0
O138 O 0.91417 0.50837 0.28164 0.0
O139 O 0.88754 0.5222 0.28803 0.0
O140 O 0.75921 0.63122 0.52443 0.0
Cd141 Cd 0.76062 0.61602 0.49986 0.0
Cd142 Cd 0.75014 0.64738 0.4863 0.0
O143 O 0.76162 0.659 0.51096 0.0
O144 O 0.77758 0.59512 0.50454 0.0
O145 O 0.78501 0.61916 0.48596 0.0
C146 C 0.78981 0.60401 0.49414 0.0
C147 C 0.75645 0.65936 0.4568 0.0
C148 C 0.76166 0.64906 0.52562 0.0
C149 C 0.72108 0.61555 0.4894 0.0
O150 O 0.72414 0.63335 0.48885 0.0
O151 O 0.73481 0.60485 0.49071 0.0
O152 O 0.74604 0.66811 0.46851 0.0
O153 O 0.76402 0.64416 0.46207 0.0
O154 O 0.62954 0.49998 0.73091 0.0
Cd155 Cd 0.64731 0.49902 0.75374 0.0
Cd156 Cd 0.61803 0.51134 0.77068 0.0
O157 O 0.60337 0.50181 0.74707 0.0
O158 O 0.66523 0.47952 0.74672 0.0
O159 O 0.64491 0.47642 0.77025 0.0
C160 C 0.65765 0.46933 0.75977 0.0
C161 C 0.60606 0.50615 0.80078 0.0
C162 C 0.61169 0.49998 0.73143 0.0
C163 C 0.65118 0.53874 0.76404 0.0
O164 O 0.63361 0.53635 0.767 0.0
O165 O 0.66108 0.52459 0.76101 0.0
O166 O 0.59902 0.51816 0.78974 0.0
O167 O 0.6197 0.49651 0.79451 0.0
O168 O 0.0322 0.75679 0.87653 0.0
Cd169 Cd 0.00981 0.7514 0.89432 0.0
Cd170 Cd 0.9932 0.76477 0.86532 0.0
O171 O 0.01621 0.75787 0.85 0.0
O172 O 0.01941 0.7333 0.91262 0.0
O173 O 0.99541 0.72611 0.89335 0.0
C174 C 0.00691 0.72093 0.90616 0.0
C175 C 0.96291 0.76063 0.85306 0.0
C176 C 0.03181 0.75774 0.85872 0.0
C177 C -0.00048 0.78964 0.89977 0.0
O178 O -0.00242 0.78856 0.88204 0.0
O179 O 0.00165 0.77482 0.90911 0.0
O180 O 0.97463 0.77363 0.84713 0.0
O181 O 0.96862 0.74919 0.86552 0.0
O182 O 0.99482 0.22506 0.62866 0.0
Cd183 Cd 0.99448 0.2504 0.64274 0.0
Cd184 Cd 0.00754 0.26221 0.61152 0.0
O185 O 0.99698 0.23701 0.60039 0.0
O186 O 0.97823 0.24454 0.66437 0.0
O187 O 0.97061 0.26383 0.64165 0.0
C188 C 0.96604 0.25491 0.65678 0.0
C189 C 0.00336 0.29133 0.59903 0.0
C190 C 0.99455 0.22286 0.61093 0.0
C191 C 0.03402 0.26251 0.64347 0.0
O192 O 0.03238 0.26139 0.62574 0.0
O193 O 0.01954 0.26102 0.65378 0.0
O194 O 0.01375 0.27938 0.59074 0.0
O195 O 0.99409 0.28607 0.6138 0.0
O196 O 0.51003 0.22827 0.37843 0.0
Cd197 Cd 0.51215 0.25304 0.36403 0.0
Cd198 Cd 0.49559 0.26614 0.3948 0.0
O199 O 0.5018 0.24054 0.40574 0.0
O200 O 0.52982 0.24814 0.34321 0.0
O201 O 0.53654 0.26878 0.36643 0.0
C202 C 0.54168 0.26011 0.35131 0.0
C203 C 0.50015 0.29474 0.4113 0.0
C204 C 0.50623 0.22638 0.39574 0.0
C205 C 0.47277 0.26316 0.35926 0.0
O206 O 0.47278 0.2652 0.37701 0.0
O207 O 0.48792 0.26005 0.35065 0.0
O208 O 0.487 0.28244 0.41576 0.0
O209 O 0.51163 0.29033 0.39809 0.0
O210 O 0.49761 0.72649 0.1317 0.0
Cd211 Cd 0.49457 0.75145 0.14564 0.0
Cd212 Cd 0.50658 0.76362 0.11477 0.0
O213 O 0.4981 0.73787 0.10319 0.0
O214 O 0.47699 0.74399 0.16568 0.0
O215 O 0.47045 0.76442 0.14357 0.0
C216 C 0.46512 0.75456 0.15787 0.0
C217 C 0.50082 0.79134 0.10069 0.0
C218 C 0.49738 0.72388 0.11403 0.0
C219 C 0.53286 0.7655 0.14784 0.0
O220 O 0.53126 0.76504 0.13008 0.0
O221 O 0.51852 0.76256 0.1581 0.0
O222 O 0.51312 0.78038 0.09398 0.0
O223 O 0.49078 0.78601 0.1149 0.0
O224 O 0.87555 0.01269 0.72322 0.0
Cd225 Cd 0.85946 0.01316 0.7471 0.0
Cd226 Cd 0.8902 0.00077 0.7615 0.0
O227 O 0.90287 0.00903 0.7371 0.0
O228 O 0.83898 0.03005 0.74121 0.0
O229 O 0.86096 0.03711 0.76282 0.0
C230 C 0.84649 0.042 0.75334 0.0
C231 C 0.90619 0.00418 0.78999 0.0
C232 C 0.89332 0.01168 0.72236 0.0
C233 C 0.85667 0.97342 0.75709 0.0
O234 O 0.87434 0.97588 0.75925 0.0
O235 O 0.84674 0.98747 0.75424 0.0
O236 O 0.91098 0.99234 0.77718 0.0
O237 O 0.89275 0.01512 0.78631 0.0
O238 O 0.75555 0.12896 0.53115 0.0
Cd239 Cd 0.75611 0.11588 0.50517 0.0
Cd240 Cd 0.74807 0.14792 0.49463 0.0
O241 O 0.76022 0.1573 0.51948 0.0
O242 O 0.77164 0.09367 0.50729 0.0
O243 O 0.78038 0.11938 0.49144 0.0
C244 C 0.78423 0.10304 0.49771 0.0
C245 C 0.75549 0.15964 0.46553 0.0
C246 C 0.75904 0.1466 0.53359 0.0
C247 C 0.71716 0.11886 0.49484 0.0
O248 O 0.72125 0.13641 0.49714 0.0
O249 O 0.7302 0.10732 0.49403 0.0
O250 O 0.74708 0.16976 0.47783 0.0
O251 O 0.76051 0.14308 0.47005 0.0
O252 O 0.63029 0.00736 0.22503 0.0
Cd253 Cd 0.64206 0.00402 0.25081 0.0
Cd254 Cd 0.61016 0.0138 0.26103 0.0
O255 O 0.60123 0.00365 0.23509 0.0
O256 O 0.6641 0.98929 0.24483 0.0
O257 O 0.63989 0.97828 0.26169 0.0
C258 C 0.65562 0.9754 0.25333 0.0
C259 C 0.59643 0.0053 0.28898 0.0
C260 C 0.61282 0.00493 0.2216 0.0
C261 C 0.64161 0.04258 0.26382 0.0
O262 O 0.62396 0.04004 0.26119 0.0
O263 O 0.65194 0.02851 0.26378 0.0
O264 O 0.5878 0.01546 0.27719 0.0
O265 O 0.6126 -0.00091 0.28446 0.0
O266 O 0.74529 0.88123 0.03136 0.0
Cd267 Cd 0.74605 0.89791 0.00819 0.0
Cd268 Cd 0.75929 0.8668 0.99352 0.0
O269 O 0.74973 0.85376 0.01751 0.0
O270 O 0.72955 0.91808 0.01698 0.0
O271 O 0.72231 0.89914 0.99257 0.0
C272 C 0.7175 0.91214 0.00431 0.0
C273 C 0.75288 0.85632 0.96289 0.0
C274 C 0.74624 0.86346 0.03218 0.0
C275 C 0.7867 0.89979 -0.00029 0.0
O276 O 0.78433 0.88204 0.99709 0.0
O277 O 0.77255 0.90985 0.00218 0.0
O278 O 0.7636 0.84721 0.9738 0.0
O279 O 0.74485 0.87085 0.96978 0.0
O280 O 0.25696 0.62995 0.03082 0.0
Cd281 Cd 0.2613 0.61739 0.00534 0.0
Cd282 Cd 0.25132 0.64882 0.99559 0.0
O283 O 0.26079 0.6591 0.02119 0.0
O284 O 0.27597 0.59591 0.01248 0.0
O285 O 0.28722 0.6192 0.99464 0.0
C286 C 0.28996 0.60395 0.00372 0.0
C287 C 0.25653 0.66412 0.96795 0.0
C288 C 0.25909 0.64749 0.03449 0.0
C289 C 0.22341 0.61629 0.99282 0.0
O290 O 0.22576 0.63396 0.99577 0.0
O291 O 0.23751 0.60608 0.99261 0.0
O292 O 0.24552 0.67058 0.9806 0.0
O293 O 0.26595 0.64953 0.97166 0.0
O294 O 0.12993 0.50874 0.72733 0.0
Cd295 Cd 0.1418 0.50634 0.75335 0.0
Cd296 Cd 0.10981 0.51516 0.76244 0.0
O297 O 0.10119 0.5026 0.73747 0.0
O298 O 0.16426 0.49155 0.74938 0.0
O299 O 0.13902 0.48104 0.76512 0.0
C300 C 0.15532 0.47802 0.75803 0.0
C301 C 0.09721 0.50856 0.79131 0.0
C302 C 0.11261 0.50483 0.72395 0.0
C303 C 0.13977 0.54516 0.76391 0.0
O304 O 0.12239 0.54174 0.76033 0.0
O305 O 0.15049 0.53154 0.76577 0.0
O306 O 0.08785 0.51735 0.77892 0.0
O307 O 0.11344 0.50246 0.78681 0.0
O308 O 0.24585 0.38454 0.53442 0.0
Cd309 Cd 0.24335 0.39843 0.50977 0.0
Cd310 Cd 0.25515 0.3672 0.49647 0.0
O311 O 0.24539 0.35603 0.52157 0.0
O312 O 0.22715 0.41944 0.5167 0.0
O313 O 0.21832 0.39647 0.49646 0.0
C314 C 0.21422 0.41135 0.50608 0.0
C315 C 0.24709 0.35551 0.46684 0.0
C316 C 0.24493 0.36675 0.5361 0.0
C317 C 0.28254 0.40029 0.49811 0.0
O318 O 0.28068 0.38236 0.49781 0.0
O319 O 0.26827 0.41018 0.50015 0.0
O320 O 0.25773 0.34637 0.47778 0.0
O321 O 0.24009 0.37085 0.4731 0.0
O322 O 0.37541 0.50476 0.22544 0.0
Cd323 Cd 0.35966 0.50701 0.24953 0.0
Cd324 Cd 0.39099 0.49814 0.26393 0.0
O325 O 0.4026 0.50986 0.24003 0.0
O326 O 0.33883 0.52346 0.24312 0.0
O327 O 0.36131 0.53182 0.26382 0.0
C328 C 0.34657 0.53613 0.25442 0.0
C329 C 0.40332 0.50502 0.29376 0.0
C330 C 0.39309 0.50829 0.22487 0.0
C331 C 0.35994 0.46819 0.26092 0.0
O332 O 0.37768 0.47162 0.26061 0.0
O333 O 0.34893 0.48168 0.25984 0.0
O334 O 0.41238 0.49531 0.28164 0.0
O335 O 0.38744 0.5115 0.28875 0.0
O336 O 0.03457 0.01605 0.00404 0.0
Mn337 Mn 0.00905 0.0015 0.0097 0.0
O338 O 0.0575 0.99582 0.00901 0.0
Mn339 Mn 0.04223 0.97618 0.01837 0.0
O340 O 0.98336 0.98708 0.016 0.0
O341 O -0.00231 0.02647 0.01344 0.0
Mn342 Mn 0.97585 0.02711 0.00207 0.0
O343 O 0.00188 0.00077 0.98088 0.0
O344 O 0.96111 0.00846 0.0135 0.0
O345 O 0.01616 0.00236 0.03835 0.0
O346 O 0.03566 0.97891 0.04327 0.0
O347 O 0.97992 0.05037 0.01393 0.0
O348 O 0.98093 0.0232 0.97696 0.0
C349 C 0.02421 0.96018 -0.00076 0.0
C350 C 0.05193 0.01188 0.0043 0.0
C351 C 0.96634 0.99218 0.01789 0.0
C352 C 0.99528 0.04332 0.0197 0.0
C353 C 0.99146 0.01065 0.97044 0.0
C354 C 0.02555 0.99202 0.04923 0.0
O355 O 0.02095 0.97674 0.0058 0.0
O356 O 0.03945 0.95333 0.00558 0.0
O357 O 0.27148 0.74881 0.24446 0.0
Mn358 Mn 0.24325 0.74597 0.2521 0.0
O359 O 0.27161 0.7683 0.21964 0.0
Mn360 Mn 0.24618 0.77228 0.21835 0.0
O361 O 0.21489 0.74405 0.25893 0.0
O362 O 0.24828 0.72062 0.26321 0.0
Mn363 Mn 0.23329 0.71759 0.28269 0.0
O364 O 0.24886 0.75932 0.27801 0.0
O365 O 0.20895 0.71698 0.27364 0.0
O366 O 0.23752 0.73187 0.22641 0.0
O367 O 0.23153 0.75408 0.20566 0.0
O368 O 0.24675 0.69635 0.28186 0.0
O369 O 0.23984 0.73748 0.29925 0.0
C370 C 0.2339 0.78879 0.2394 0.0
C371 C 0.27992 0.75802 0.23127 0.0
C372 C 0.20338 0.73153 0.26567 0.0
C373 C 0.25449 0.70435 0.26742 0.0
C374 C 0.24604 0.75413 0.29504 0.0
C375 C 0.2322 0.73688 0.21008 0.0
O376 O 0.23849 0.77156 0.24163 0.0
O377 O 0.23748 0.79568 0.22301 0.0
O378 O 0.4693 0.00207 0.50179 0.0
Mn379 Mn 0.49474 0.01797 0.50629 0.0
O380 O 0.44644 0.02265 0.50021 0.0
Mn381 Mn 0.46114 0.04313 0.50845 0.0
O382 O 0.52065 0.03343 0.51101 0.0
O383 O 0.5064 0.99422 0.51489 0.0
Mn384 Mn 0.52952 0.9941 0.50586 0.0
O385 O 0.50221 0.01352 0.47851 0.0
O386 O 0.54012 0.01221 0.52197 0.0
O387 O 0.48735 0.02302 0.53414 0.0
O388 O 0.46554 0.04481 0.53391 0.0
O389 O 0.52139 0.96928 0.50891 0.0
O390 O 0.53076 0.00183 0.48115 0.0
C391 C 0.47981 0.05818 0.49086 0.0
C392 C 0.452 0.00593 0.49931 0.0
C393 C 0.53644 0.02921 0.51851 0.0
C394 C 0.50547 0.97602 0.51342 0.0
C395 C 0.51795 0.00905 0.47159 0.0
C396 C 0.47655 0.03436 0.54258 0.0
O397 O 0.48333 0.04197 0.49784 0.0
O398 O 0.46338 0.06433 0.49466 0.0
O399 O 0.27611 0.26877 0.75812 0.0
Mn400 Mn 0.25078 0.26158 0.74474 0.0
O401 O 0.29904 0.26547 0.73665 0.0
Mn402 Mn 0.28384 0.2556 0.7171 0.0
O403 O 0.2255 0.25404 0.73119 0.0
O404 O 0.23926 0.25598 0.77102 0.0
Mn405 Mn 0.2207 0.27176 0.77023 0.0
O406 O 0.24421 0.28998 0.74392 0.0
O407 O 0.20385 0.2636 0.75161 0.0
O408 O 0.25787 0.23339 0.7437 0.0
O409 O 0.27681 0.23026 0.71863 0.0
O410 O 0.2175 0.26175 0.79271 0.0
O411 O 0.2294 0.29651 0.77015 0.0
C412 C 0.26538 0.27386 0.70341 0.0
C413 C 0.29347 0.26959 0.7532 0.0
C414 C 0.20839 0.256 0.73605 0.0
C415 C 0.23195 0.25246 0.78765 0.0
C416 C 0.23744 0.3019 0.75534 0.0
C417 C 0.26692 0.2233 0.73197 0.0
O418 O 0.26252 0.26661 0.71967 0.0
O419 O 0.28065 0.26891 0.69534 0.0
O420 O 0.99157 0.98058 0.49448 0.0
Mn421 Mn -0.00128 0.00452 0.51101 0.0
O422 O 0.9839 0.95672 0.51391 0.0
Mn423 Mn 0.99441 0.96847 0.53505 0.0
O424 O 0.00618 0.02854 0.52767 0.0
O425 O 0.00883 0.0167 0.48738 0.0
Mn426 Mn 0.00244 0.04031 0.48744 0.0
O427 O 0.97216 0.01483 0.50679 0.0
O428 O 0.01477 0.05161 0.50777 0.0
O429 O 0.0251 0.99415 0.5161 0.0
O430 O 0.02046 0.96991 0.53593 0.0
O431 O 0.01519 0.03731 0.46545 0.0
O432 O 0.97647 0.0404 0.48872 0.0
C433 C 0.97976 0.98958 0.54967 0.0
C434 C 0.98554 0.96351 0.49754 0.0
C435 C 0.01326 0.0452 0.52429 0.0
C436 C 0.01705 0.02041 0.47154 0.0
C437 C 0.96602 0.0291 0.49835 0.0
C438 C 0.03124 0.98109 0.52645 0.0
O439 O 0.98827 0.99203 0.53393 0.0
O440 O 0.98042 0.97274 0.55625 0.0
O441 O 0.25705 0.79212 0.75844 0.0
Mn442 Mn 0.24373 0.76573 0.75309 0.0
O443 O 0.23495 0.81347 0.7554 0.0
Mn444 Mn 0.2156 0.79662 0.74756 0.0
O445 O 0.23035 0.7392 0.74721 0.0
O446 O 0.26924 0.7562 0.74653 0.0
Mn447 Mn 0.27163 0.73435 0.7572 0.0
O448 O 0.2468 0.75905 0.78142 0.0
O449 O 0.25311 0.71832 0.74663 0.0
O450 O 0.24086 0.77257 0.72483 0.0
O451 O 0.21563 0.79006 0.72245 0.0
O452 O 0.29377 0.73887 0.74475 0.0
O453 O 0.27019 0.73896 0.78266 0.0
C454 C 0.20227 0.77863 0.76733 0.0
C455 C 0.25179 0.80916 0.75884 0.0
C456 C 0.23612 0.72253 0.74409 0.0
C457 C 0.28594 0.75411 0.73987 0.0
C458 C 0.25826 0.74921 0.7906 0.0
C459 C 0.22885 0.78115 0.71505 0.0
O460 O 0.21848 0.7757 0.75991 0.0
O461 O 0.19426 0.79347 0.76159 0.0
O462 O 0.49773 0.00782 0.9845 0.0
Mn463 Mn 0.51069 0.01411 0.01019 0.0
O464 O 0.51618 0.02578 0.96575 0.0
Mn465 Mn 0.5378 0.02855 0.98068 0.0
O466 O 0.52387 0.0211 0.03559 0.0
O467 O 0.48496 0.01673 0.02143 0.0
Mn468 Mn 0.48396 0.00667 0.04381 0.0
O469 O 0.51025 0.98554 0.01682 0.0
O470 O 0.50197 0.02026 0.05821 0.0
O471 O 0.51078 0.04292 0.00423 0.0
O472 O 0.5396 0.05091 0.99425 0.0
O473 O 0.46055 0.01579 0.03981 0.0
O474 O 0.48832 0.98153 0.03955 0.0
C475 C 0.54818 0.00238 0.98902 0.0
C476 C 0.50108 0.01581 0.96879 0.0
C477 C 0.51871 0.02408 0.05257 0.0
C478 C 0.46775 0.02116 0.024 0.0
C479 C 0.50042 0.97523 0.02821 0.0
C480 C 0.52375 0.05558 0.00043 0.0
O481 O 0.53687 0.01211 -0.00087 0.0
O482 O 0.55517 0.01138 0.97478 0.0
O483 O 0.28519 0.24988 0.25685 0.0
Mn484 Mn 0.25726 0.25018 0.24785 0.0
O485 O 0.28682 0.22812 0.27931 0.0
Mn486 Mn 0.26111 0.22547 0.28291 0.0
O487 O 0.22926 0.25103 0.23841 0.0
O488 O 0.26449 0.27434 0.23504 0.0
Mn489 Mn 0.25578 0.27448 0.212 0.0
O490 O 0.26311 0.23431 0.22373 0.0
O491 O 0.23001 0.27175 0.21462 0.0
O492 O 0.25122 0.2658 0.27224 0.0
O493 O 0.25099 0.24519 0.29606 0.0
O494 O 0.26939 0.2972 0.21554 0.0
O495 O 0.26621 0.25442 0.19967 0.0
C496 C 0.24329 0.20905 0.264 0.0
C497 C 0.29448 0.24034 0.26849 0.0
C498 C 0.2212 0.26018 0.22541 0.0
C499 C 0.27261 0.29066 0.23203 0.0
C500 C 0.26682 0.238 0.2065 0.0
C501 C 0.24878 0.2616 0.28963 0.0
O502 O 0.25057 0.22567 0.26051 0.0
O503 O 0.24787 0.20257 0.28019 0.0
O504 O 0.49833 0.48153 -2e-05 0.0
Mn505 Mn 0.50429 0.50577 0.01628 0.0
O506 O 0.49915 0.45724 0.01996 0.0
Mn507 Mn 0.5062 0.47128 0.04124 0.0
O508 O 0.50988 0.52923 0.03433 0.0
O509 O 0.51369 0.51779 0.99105 0.0
Mn510 Mn 0.51061 0.54109 -0.00047 0.0
O511 O 0.47746 0.51481 0.01202 0.0
O512 O 0.52849 0.54709 0.01756 0.0
O513 O 0.53154 0.49742 0.02 0.0
O514 O 0.53165 0.4772 0.04371 0.0
O515 O 0.51787 0.54563 0.97634 0.0
O516 O 0.48543 0.54466 0.0046 0.0
C517 C 0.48599 0.48725 0.05492 0.0
C518 C 0.4969 0.46384 0.0036 0.0
C519 C 0.52183 0.54321 0.03335 0.0
C520 C 0.51899 0.52741 0.97608 0.0
C521 C 0.47307 0.53167 0.00849 0.0
C522 C 0.54017 0.48743 0.03168 0.0
O523 O 0.49466 0.49261 0.03975 0.0
O524 O 0.49074 0.47127 0.06153 0.0
O525 O 0.7679 0.2834 0.25338 0.0
Mn526 Mn 0.7531 0.25764 0.24763 0.0
O527 O 0.74659 0.3058 0.25164 0.0
Mn528 Mn 0.72628 0.29024 0.24383 0.0
O529 O 0.73831 0.23209 0.24128 0.0
O530 O 0.77794 0.24674 0.24099 0.0
Mn531 Mn 0.77906 0.22445 0.2513 0.0
O532 O 0.75532 0.24972 0.27547 0.0
O533 O 0.7596 0.20973 0.24035 0.0
O534 O 0.75034 0.26538 0.21968 0.0
O535 O 0.72605 0.2844 0.21855 0.0
O536 O 0.80139 0.22812 0.23884 0.0
O537 O 0.77734 0.22815 0.27701 0.0
C538 C 0.71213 0.27079 0.26191 0.0
C539 C 0.76338 0.30072 0.2539 0.0
C540 C 0.74292 0.21506 0.23802 0.0
C541 C 0.7944 0.24385 0.23414 0.0
C542 C 0.76547 0.23865 0.28466 0.0
C543 C 0.73847 0.2748 0.21056 0.0
O544 O 0.72855 0.26855 0.25477 0.0
O545 O 0.70474 0.28647 0.25769 0.0
O546 O 0.99174 0.50813 0.48605 0.0
Mn547 Mn 0.00583 0.51422 0.51147 0.0
O548 O 0.01439 0.51192 0.46409 0.0
Mn549 Mn 0.03482 0.51735 0.47985 0.0
O550 O 0.0205 0.52051 0.53663 0.0
O551 O 0.98121 0.52252 0.52209 0.0
Mn552 Mn 0.97963 0.51566 0.54562 0.0
O553 O 0.00029 0.48686 0.52088 0.0
O554 O -0.00078 0.52834 0.55816 0.0
O555 O 0.01115 0.54194 0.50243 0.0
O556 O 0.03823 0.54239 0.48662 0.0
O557 O 0.95764 0.52704 0.54108 0.0
O558 O 0.98078 0.48967 0.54552 0.0
C559 C 0.04534 0.49655 0.4972 0.0
C560 C 0.9972 0.50891 0.46885 0.0
C561 C 0.01614 0.52641 0.55313 0.0
C562 C 0.96476 0.52919 0.52449 0.0
C563 C 0.9908 0.47983 0.53465 0.0
C564 C 0.0246 0.55083 0.49375 0.0
O565 O 0.03009 0.50519 0.50065 0.0
O566 O 0.05403 0.50141 0.48195 0.0
O567 O 0.77452 0.76479 0.25935 0.0
Mn568 Mn 0.75057 0.75809 0.24241 0.0
O569 O 0.79782 0.77356 0.23967 0.0
Mn570 Mn 0.78664 0.76216 0.21883 0.0
O571 O 0.72702 0.75103 0.22536 0.0
O572 O 0.73796 0.7477 0.2658 0.0
Mn573 Mn 0.71422 0.75343 0.26505 0.0
O574 O 0.74013 0.78473 0.24741 0.0
O575 O 0.70372 0.74093 0.24435 0.0
O576 O 0.76067 0.73153 0.23703 0.0
O577 O 0.78591 0.736 0.21834 0.0
O578 O 0.71645 0.74078 0.28694 0.0
O579 O 0.71385 0.77944 0.26449 0.0
C580 C 0.76635 0.77568 0.20286 0.0
C581 C 0.79161 0.77076 0.25615 0.0
C582 C 0.71053 0.7433 0.22805 0.0
C583 C 0.7337 0.73948 0.28147 0.0
C584 C 0.72537 0.79045 0.25569 0.0
C585 C 0.77425 0.72525 0.22728 0.0
O586 O 0.7631 0.76834 0.21911 0.0
O587 O 0.78355 0.77493 0.19708 0.0
O588 O 0.77194 0.25397 0.74027 0.0
Mn589 Mn 0.74413 0.25067 0.74943 0.0
O590 O 0.77302 0.27749 0.71959 0.0
Mn591 Mn 0.74739 0.27819 0.71698 0.0
O592 O 0.71638 0.24703 0.75881 0.0
O593 O 0.75118 0.22567 0.75981 0.0
Mn594 Mn 0.74101 0.22258 0.78204 0.0
O595 O 0.75126 0.26442 0.77485 0.0
O596 O 0.71544 0.22237 0.77827 0.0
O597 O 0.73681 0.2367 0.72392 0.0
O598 O 0.73638 0.25917 0.70209 0.0
O599 O 0.75414 0.20141 0.77791 0.0
O600 O 0.75081 0.24229 0.79717 0.0
C601 C 0.73094 0.29269 0.73612 0.0
C602 C 0.78089 0.26493 0.72887 0.0
C603 C 0.70748 0.23526 0.76952 0.0
C604 C 0.75856 0.20961 0.76232 0.0
C605 C 0.75336 0.25934 0.79195 0.0
C606 C 0.73394 0.24205 0.70701 0.0
O607 O 0.73725 0.27615 0.73937 0.0
O608 O 0.73567 0.30012 0.72021 0.0
O609 O 0.77554 0.75516 0.75104 0.0
Mn610 Mn 0.74799 0.75785 0.74257 0.0
O611 O 0.77271 0.74516 0.78052 0.0
Mn612 Mn 0.74755 0.73665 0.77911 0.0
O613 O 0.72054 0.76138 0.73296 0.0
O614 O 0.7572 0.78137 0.72968 0.0
Mn615 Mn 0.74997 0.78132 0.70613 0.0
O616 O 0.75268 0.74111 0.7186 0.0
O617 O 0.72395 0.77956 0.70731 0.0
O618 O 0.74297 0.77454 0.76718 0.0
O619 O 0.73133 0.75373 0.78791 0.0
O620 O 0.76349 0.80403 0.71029 0.0
O621 O 0.76068 0.76075 0.69514 0.0
C622 C 0.74133 0.71616 0.75759 0.0
C623 C 0.78255 0.75146 0.76698 0.0
C624 C 0.71373 0.77027 0.71903 0.0
C625 C 0.76523 0.79783 0.72715 0.0
C626 C 0.75866 0.74429 0.70189 0.0
C627 C 0.73505 0.77069 0.78311 0.0
O628 O 0.73869 0.73401 0.75578 0.0
O629 O 0.74498 0.71132 0.77462 0.0
O630 O 0.52614 0.52263 0.51128 0.0
Mn631 Mn 0.50047 0.50838 0.51702 0.0
O632 O 0.54677 0.50289 0.52306 0.0
Mn633 Mn 0.53138 0.48118 0.52558 0.0
O634 O 0.47526 0.4934 0.52319 0.0
O635 O 0.48982 0.53356 0.52324 0.0
Mn636 Mn 0.46591 0.53271 0.51661 0.0
O637 O 0.49135 0.51013 0.48911 0.0
O638 O 0.45392 0.51425 0.53084 0.0
O639 O 0.50872 0.50713 0.54536 0.0
O640 O 0.52092 0.47907 0.5491 0.0
O641 O 0.47091 0.55664 0.52635 0.0
O642 O 0.46558 0.52757 0.49101 0.0
C643 C 0.51841 0.47084 0.49981 0.0
C644 C 0.54292 0.51871 0.51616 0.0
C645 C 0.45918 0.49742 0.5298 0.0
C646 C 0.48762 0.55072 0.52899 0.0
C647 C 0.47707 0.51778 0.48175 0.0
C648 C 0.51441 0.49408 0.55596 0.0
O649 O 0.51145 0.48315 0.51115 0.0
O650 O 0.53315 0.46337 0.50656 0.0
O651 O 0.97915 0.49849 0.00909 0.0
Mn652 Mn 0.00551 0.51166 0.01431 0.0
O653 O 0.95876 0.52008 0.01858 0.0
Mn654 Mn 0.97586 0.54 0.02478 0.0
O655 O 0.03149 0.52566 0.02002 0.0
O656 O 0.01583 0.48592 0.01815 0.0
Mn657 Mn 0.0384 0.48603 0.0081 0.0
O658 O 0.01223 0.51086 0.98576 0.0
O659 O 0.05311 0.50385 0.0214 0.0
O660 O -0.00066 0.51244 0.0432 0.0
O661 O 0.98579 0.53977 0.04866 0.0
O662 O 0.03463 0.46232 0.01722 0.0
O663 O 0.03575 0.49088 0.98291 0.0
C664 C 0.99138 0.55317 0.00273 0.0
C665 C 0.96235 0.50368 0.01216 0.0
C666 C 0.04821 0.52072 0.0236 0.0
C667 C 0.01881 0.46871 0.02275 0.0
C668 C 0.0245 0.50234 0.97605 0.0
C669 C 0.99341 0.52516 0.0545 0.0
O670 O 0.99497 0.53705 0.00975 0.0
O671 O 0.97749 0.56135 0.01053 0.0
H672 H 0.98015 0.18759 0.11111 0.0
H673 H 0.98445 0.15548 0.09912 0.0
H674 H 0.03197 0.1763 0.06648 0.0
H675 H 0.0269 0.20843 0.07744 0.0
H676 H 0.01277 0.15206 0.04681 0.0
H677 H 0.03473 0.15203 0.11225 0.0
H678 H 0.03041 0.1561 0.14649 0.0
H679 H 0.98425 0.11439 0.14482 0.0
H680 H 0.98818 0.1102 0.11059 0.0
H681 H 0.02926 0.06235 0.015 0.0
H682 H 0.03906 0.0908 0.03353 0.0
H683 H 0.99458 0.07764 0.07312 0.0
H684 H 0.98602 0.04878 0.05552 0.0
H685 H 0.01742 0.09871 0.09033 0.0
H686 H 0.98888 0.10268 0.0281 0.0
H687 H 0.98714 0.09934 0.9935 0.0
H688 H 0.03861 0.1335 0.98868 0.0
H689 H 0.04071 0.1369 0.02326 0.0
C690 C 0.9913 0.18527 0.10114 0.0
C691 C 0.00315 0.20046 0.09513 0.0
C692 C 0.99395 0.1669 0.09452 0.0
C693 C 0.00894 0.16334 0.08236 0.0
C694 C 0.0204 0.17863 0.07596 0.0
C695 C 0.01742 0.19702 0.08213 0.0
C696 C 0.01253 0.14383 0.07578 0.0
C697 C 0.01416 0.14047 0.05638 0.0
C698 C 0.01376 0.12854 0.08819 0.0
C699 C 0.01173 0.13086 0.10885 0.0
C700 C 0.02365 0.14376 0.11919 0.0
C701 C 0.02126 0.14609 0.13859 0.0
C702 C 0.00706 0.13553 0.14781 0.0
C703 C 0.99525 0.12256 0.13767 0.0
C704 C -0.00242 0.12017 0.11828 0.0
C705 C 0.02254 0.06496 0.02837 0.0
C706 C 0.00692 0.05354 0.03393 0.0
C707 C 0.02782 0.08143 0.03875 0.0
C708 C 0.01693 0.08693 0.05422 0.0
C709 C 0.00309 0.074 0.06113 0.0
C710 C -0.00177 0.05737 0.05111 0.0
C711 C 0.01737 0.10687 0.06129 0.0
C712 C 0.01647 0.11037 0.08078 0.0
C713 C 0.01611 0.12224 0.04895 0.0
C714 C 0.01509 0.1198 0.02822 0.0
C715 C -0.00011 0.10934 0.01964 0.0
C716 C -0.00117 0.10747 5e-05 0.0
C717 C 0.01279 0.11615 0.9889 0.0
C718 C 0.02784 0.12674 0.99733 0.0
C719 C 0.02898 0.12863 0.01691 0.0
H720 H 0.01192 0.11473 0.97374 0.0
H721 H 0.00521 0.13738 0.16282 0.0
H722 H 0.06692 0.75986 0.37576 0.0
H723 H 0.09673 0.75881 0.35866 0.0
H724 H 0.06603 0.74603 0.30705 0.0
H725 H 0.03636 0.7469 0.32385 0.0
H726 H 0.09448 0.7217 0.31467 0.0
H727 H 0.08498 0.78981 0.31563 0.0
H728 H 0.08148 0.82083 0.33123 0.0
H729 H 0.13458 0.81651 0.35947 0.0
H730 H 0.1383 0.78538 0.34421 0.0
H731 H 0.1684 0.7242 0.24979 0.0
H732 H 0.13828 0.73146 0.26453 0.0
H733 H 0.16878 0.75839 0.3115 0.0
H734 H 0.19841 0.75239 0.29618 0.0
H735 H 0.14029 0.77626 0.30687 0.0
H736 H 0.15105 0.71038 0.31085 0.0
H737 H 0.15682 0.67805 0.29962 0.0
H738 H 0.1047 0.67568 0.2686 0.0
H739 H 0.09874 0.7081 0.27945 0.0
C740 C 0.06656 0.75676 0.36078 0.0
C741 C 0.04935 0.75339 0.35112 0.0
C742 C 0.08354 0.75634 0.35106 0.0
C743 C 0.08341 0.75254 0.33164 0.0
C744 C 0.06629 0.74906 0.32205 0.0
C745 C 0.04939 0.74952 0.33168 0.0
C746 C 0.10103 0.75112 0.32123 0.0
C747 C 0.10445 0.73365 0.31274 0.0
C748 C 0.11427 0.76657 0.31955 0.0
C749 C 0.11181 0.78517 0.32892 0.0
C750 C 0.09581 0.79538 0.32531 0.0
C751 C 0.09382 0.81302 0.33406 0.0
C752 C 0.10777 0.82062 0.34637 0.0
C753 C 0.12377 0.81061 0.34996 0.0
C754 C 0.12583 0.79298 0.34125 0.0
C755 C 0.16843 0.73213 0.26297 0.0
C756 C 0.18537 0.73784 0.27198 0.0
C757 C 0.15137 0.73609 0.27148 0.0
C758 C 0.15132 0.74508 0.28933 0.0
C759 C 0.16842 0.7515 0.29775 0.0
C760 C 0.18531 0.74803 0.28905 0.0
C761 C 0.13373 0.7468 0.29999 0.0
C762 C 0.13034 0.76427 0.30866 0.0
C763 C 0.12087 0.73113 0.30253 0.0
C764 C 0.12457 0.71175 0.29576 0.0
C765 C 0.14091 0.70303 0.30149 0.0
C766 C 0.1442 0.68468 0.29522 0.0
C767 C 0.13117 0.67484 0.28335 0.0
C768 C 0.1148 0.68333 0.27775 0.0
C769 C 0.11146 0.70169 0.28395 0.0
H770 H 0.13372 0.66063 0.27854 0.0
H771 H 0.10622 0.83428 0.35309 0.0
H772 H 0.51534 0.83247 0.61142 0.0
H773 H 0.51275 0.86472 0.59999 0.0
H774 H 0.47047 0.84397 0.55974 0.0
H775 H 0.47336 0.81169 0.57101 0.0
H776 H 0.49893 0.86589 0.54402 0.0
H777 H 0.46046 0.87043 0.60207 0.0
H778 H 0.45756 0.86927 0.63662 0.0
H779 H 0.50326 0.91113 0.643 0.0
H780 H 0.50652 0.91242 0.60854 0.0
H781 H 0.48067 0.94785 0.50154 0.0
H782 H 0.47273 0.91965 0.51963 0.0
H783 H 0.49987 0.94647 0.56849 0.0
H784 H 0.50505 0.97549 0.55112 0.0
H785 H 0.48043 0.9216 0.58148 0.0
H786 H 0.52347 0.91917 0.53148 0.0
H787 H 0.53603 0.92155 0.49931 0.0
H788 H 0.49605 0.87763 0.48019 0.0
H789 H 0.48301 0.87521 0.51219 0.0
C790 C 0.50535 0.83495 0.60029 0.0
C791 C 0.49443 0.81982 0.59209 0.0
C792 C 0.5038 0.85333 0.59384 0.0
C793 C 0.49121 0.85682 0.57918 0.0
C794 C 0.48017 0.84162 0.57115 0.0
C795 C 0.48177 0.82325 0.57757 0.0
C796 C 0.49034 0.87596 0.57119 0.0
C797 C 0.49455 0.87804 0.55209 0.0
C798 C 0.48609 0.8921 0.58208 0.0
C799 C 0.48376 0.89145 0.60275 0.0
C800 C 0.46991 0.87933 0.61086 0.0
C801 C 0.4682 0.87866 0.63042 0.0
C802 C 0.48022 0.8901 0.642 0.0
C803 C 0.49395 0.90229 0.63404 0.0
C804 C 0.4957 0.90301 0.6145 0.0
C805 C 0.48357 0.94815 0.51652 0.0
C806 C 0.49313 0.96391 0.52504 0.0
C807 C 0.47961 0.9318 0.52676 0.0
C808 C 0.48674 0.93039 0.54516 0.0
C809 C 0.49442 0.94689 0.55427 0.0
C810 C 0.49724 0.96363 0.54435 0.0
C811 C 0.4883 0.91153 0.55392 0.0
C812 C 0.48456 0.90951 0.5732 0.0
C813 C 0.4944 0.89567 0.54352 0.0
C814 C 0.5021 0.89718 0.52419 0.0
C815 C 0.51726 0.91012 0.52039 0.0
C816 C 0.52447 0.91147 0.50218 0.0
C817 C 0.5168 0.89979 0.48771 0.0
C818 C 0.50193 0.88671 0.49141 0.0
C819 C 0.49462 0.88535 0.50957 0.0
H820 H 0.52242 0.90084 0.47363 0.0
H821 H 0.47889 0.88954 0.65713 0.0
H822 H 0.45215 0.27884 0.81844 0.0
H823 H 0.41968 0.27982 0.80779 0.0
H824 H 0.40093 0.24717 0.85537 0.0
H825 H 0.43373 0.246 0.86623 0.0
H826 H 0.3833 0.23587 0.82073 0.0
H827 H 0.39493 0.2927 0.85765 0.0
H828 H 0.41241 0.32204 0.86827 0.0
H829 H 0.40844 0.34439 0.81281 0.0
H830 H 0.39118 0.3151 0.80178 0.0
H831 H 0.29131 0.25911 0.78964 0.0
H832 H 0.31764 0.25793 0.8118 0.0
H833 H 0.35444 0.28617 0.77202 0.0
H834 H 0.32839 0.28662 0.74942 0.0
H835 H 0.35893 0.29921 0.81029 0.0
H836 H 0.3536 0.24204 0.77188 0.0
H837 H 0.33728 0.21301 0.75894 0.0
H838 H 0.331 0.1913 0.81461 0.0
H839 H 0.34719 0.22028 0.82788 0.0
C840 C 0.44119 0.27172 0.82662 0.0
C841 C 0.44545 0.26249 0.84327 0.0
C842 C 0.42264 0.27239 0.82055 0.0
C843 C 0.40797 0.26395 0.83106 0.0
C844 C 0.41214 0.25393 0.84723 0.0
C845 C 0.43082 0.25324 0.85335 0.0
C846 C 0.38837 0.26592 0.82491 0.0
C847 C 0.37769 0.24966 0.81892 0.0
C848 C 0.38133 0.284 0.82229 0.0
C849 C 0.3918 0.30164 0.82889 0.0
C850 C 0.3979 0.30381 0.84769 0.0
C851 C 0.40775 0.32045 0.85379 0.0
C852 C 0.41154 0.33506 0.84122 0.0
C853 C 0.40549 0.33307 0.82253 0.0
C854 C 0.39564 0.31646 0.81636 0.0
C855 C 0.30491 0.26547 0.78581 0.0
C856 C 0.30793 0.27289 0.76784 0.0
C857 C 0.31988 0.26473 0.79846 0.0
C858 C 0.33785 0.2719 0.79345 0.0
C859 C 0.34058 0.28058 0.77606 0.0
C860 C 0.32576 0.28085 0.76321 0.0
C861 C 0.35424 0.26925 0.80559 0.0
C862 C 0.36427 0.28539 0.81269 0.0
C863 C 0.36078 0.2511 0.80894 0.0
C864 C 0.35114 0.23359 0.80095 0.0
C865 C 0.34849 0.23121 0.7814 0.0
C866 C 0.33935 0.21471 0.77398 0.0
C867 C 0.33297 0.20037 0.78595 0.0
C868 C 0.33584 0.20246 0.80535 0.0
C869 C 0.34498 0.21894 0.81284 0.0
H870 H 0.3259 0.18761 0.78017 0.0
H871 H 0.41916 0.34794 0.84598 0.0
H872 H 0.01412 0.82571 0.38333 0.0
H873 H 0.01408 0.85657 0.39964 0.0
H874 H 0.97557 0.83306 0.44076 0.0
H875 H 0.97604 0.80204 0.42493 0.0
H876 H 0.96552 0.86786 0.41953 0.0
H877 H 0.01291 0.83997 0.45658 0.0
H878 H 0.04248 0.82454 0.46279 0.0
H879 H 0.07429 0.87222 0.44066 0.0
H880 H 0.04485 0.88776 0.43384 0.0
H881 H 0.96086 0.93322 0.49441 0.0
H882 H 0.96362 0.90604 0.47323 0.0
H883 H 0.01 0.93513 0.44503 0.0
H884 H 0.00751 0.9623 0.46656 0.0
H885 H 0.01786 0.89911 0.45703 0.0
H886 H 0.96973 0.92762 0.42163 0.0
H887 H 0.93983 0.94344 0.41866 0.0
H888 H 0.90957 0.8945 0.44022 0.0
H889 H 0.93934 0.87848 0.44354 0.0
C890 C 0.00566 0.8272 0.39585 0.0
C891 C 0.99494 0.81171 0.40288 0.0
C892 C 0.0058 0.84468 0.40518 0.0
C893 C 0.99492 0.84684 0.42135 0.0
C894 C 0.98412 0.83144 0.42832 0.0
C895 C 0.98435 0.81386 0.41929 0.0
C896 C 0.9937 0.86553 0.43024 0.0
C897 C 0.97694 0.87472 0.42778 0.0
C898 C 0.00885 0.8744 0.44059 0.0
C899 C 0.02659 0.86486 0.44428 0.0
C900 C 0.02616 0.84702 0.45266 0.0
C901 C 0.04292 0.83828 0.45638 0.0
C902 C 0.06025 0.84733 0.452 0.0
C903 C 0.06085 0.86517 0.44394 0.0
C904 C 0.04412 0.87394 0.44011 0.0
C905 C 0.97121 0.93404 0.48328 0.0
C906 C 0.98375 0.94991 0.48182 0.0
C907 C 0.97284 0.91853 0.47127 0.0
C908 C 0.98695 0.91871 0.45757 0.0
C909 C -0.00103 0.93486 0.45549 0.0
C910 C 0.99729 0.95047 0.46751 0.0
C911 C 0.9897 0.90144 0.44634 0.0
C912 C 0.00668 0.89245 0.44839 0.0
C913 C 0.97477 0.89265 0.43567 0.0
C914 C 0.95676 0.90187 0.43286 0.0
C915 C 0.95669 0.92024 0.42574 0.0
C916 C 0.93978 0.92925 0.42402 0.0
C917 C 0.92281 0.91999 0.42926 0.0
C918 C 0.92272 0.90165 0.43614 0.0
C919 C 0.93961 0.89258 0.4379 0.0
H920 H 0.90973 0.92702 0.42798 0.0
H921 H 0.07321 0.84057 0.45495 0.0
H922 H 0.4491 0.77738 0.68625 0.0
H923 H 0.4174 0.78085 0.69866 0.0
H924 H 0.3935 0.76065 0.64549 0.0
H925 H 0.42534 0.75881 0.63268 0.0
H926 H 0.37223 0.78466 0.65739 0.0
H927 H 0.39677 0.73195 0.68643 0.0
H928 H 0.41928 0.71322 0.70358 0.0
H929 H 0.41454 0.74928 0.75237 0.0
H930 H 0.39218 0.7684 0.73544 0.0
H931 H 0.28577 0.75185 0.70219 0.0
H932 H 0.31401 0.759 0.68376 0.0
H933 H 0.33908 0.79019 0.73114 0.0
H934 H 0.31102 0.78239 0.74972 0.0
H935 H 0.3586 0.75987 0.72085 0.0
H936 H 0.33029 0.81114 0.68701 0.0
H937 H 0.3041 0.82267 0.66825 0.0
H938 H 0.31228 0.77982 0.62598 0.0
H939 H 0.33839 0.76793 0.64457 0.0
C940 C 0.43701 0.77399 0.67721 0.0
C941 C 0.43947 0.76791 0.65858 0.0
C942 C 0.4189 0.77574 0.68433 0.0
C943 C 0.40293 0.77052 0.67321 0.0
C944 C 0.4055 0.76478 0.6544 0.0
C945 C 0.42365 0.7637 0.64708 0.0
C946 C 0.38366 0.7708 0.68136 0.0
C947 C 0.36929 0.77911 0.67123 0.0
C948 C 0.37951 0.76326 0.69927 0.0
C949 C 0.39293 0.75175 0.70958 0.0
C950 C 0.40062 0.73598 0.70078 0.0
C951 C 0.41334 0.72528 0.71046 0.0
C952 C 0.41838 0.73009 0.72903 0.0
C953 C 0.41065 0.74559 0.73797 0.0
C954 C 0.39793 0.75635 0.72834 0.0
C955 C 0.29679 0.76134 0.7082 0.0
C956 C 0.29611 0.76694 0.7272 0.0
C957 C 0.31306 0.76524 0.69773 0.0
C958 C 0.32875 0.77503 0.70611 0.0
C959 C 0.32715 0.7826 0.7244 0.0
C960 C 0.31094 0.77851 0.7349 0.0
C961 C 0.34759 0.77448 0.69727 0.0
C962 C 0.36176 0.76572 0.70717 0.0
C963 C 0.35122 0.78074 0.67884 0.0
C964 C 0.33629 0.78866 0.66718 0.0
C965 C 0.32653 0.80422 0.67369 0.0
C966 C 0.31168 0.8108 0.6631 0.0
C967 C 0.30654 0.802 0.64593 0.0
C968 C 0.31631 0.78666 0.63926 0.0
C969 C 0.33117 0.78004 0.64978 0.0
H970 H 0.29496 0.80704 0.63782 0.0
H971 H 0.42823 0.7218 0.73651 0.0
H972 H 0.51698 0.21954 0.94133 0.0
H973 H 0.51977 0.1883 0.95423 0.0
H974 H 0.49524 0.16277 0.90354 0.0
H975 H 0.49206 0.19429 0.89054 0.0
H976 H 0.48066 0.147 0.93429 0.0
H977 H 0.54196 0.16029 0.91117 0.0
H978 H 0.57168 0.17879 0.9054 0.0
H979 H 0.58366 0.18125 0.96466 0.0
H980 H 0.5539 0.16298 0.97083 0.0
H981 H 0.49999 0.05866 0.97205 0.0
H982 H 0.49752 0.08582 0.95243 0.0
H983 H 0.52978 0.12024 0.99337 0.0
H984 H 0.53513 0.09173 0.01137 0.0
H985 H 0.54135 0.12909 0.96172 0.0
H986 H 0.4759 0.11837 0.98354 0.0
H987 H 0.4483 0.09652 0.98719 0.0
H988 H 0.44488 0.08759 0.92727 0.0
H989 H 0.47291 0.10922 0.92335 0.0
C990 C 0.51209 0.2073 0.93294 0.0
C991 C 0.50436 0.20927 0.91493 0.0
C992 C 0.51387 0.18947 0.94025 0.0
C993 C 0.50819 0.17331 0.9296 0.0
C994 C 0.49989 0.17517 0.91183 0.0
C995 C 0.49797 0.1931 0.90451 0.0
C996 C 0.51024 0.15458 0.93768 0.0
C997 C 0.49397 0.14292 0.94008 0.0
C998 C 0.52765 0.14932 0.9451 0.0
C999 C 0.54561 0.16034 0.94147 0.0
C1000 C 0.55086 0.16489 0.92299 0.0
C1001 C 0.56773 0.17532 0.91964 0.0
C1002 C 0.57954 0.18122 0.93465 0.0
C1003 C 0.57451 0.17667 0.95304 0.0
C1004 C 0.55765 0.16625 0.95647 0.0
C1005 C 0.50629 0.0721 0.97699 0.0
C1006 C 0.51753 0.07329 0.99324 0.0
C1007 C 0.50469 0.08775 0.96584 0.0
C1008 C 0.51288 0.10538 0.97162 0.0
C1009 C 0.52324 0.10681 0.9886 0.0
C1010 C 0.52599 0.09072 -0.00089 0.0
C1011 C 0.51149 0.12205 0.95953 0.0
C1012 C 0.528 0.13318 0.95606 0.0
C1013 C 0.49433 0.12674 0.95093 0.0
C1014 C 0.4765 0.11529 0.9532 0.0
C1015 C 0.46916 0.11186 0.97115 0.0
C1016 C 0.45346 0.09941 0.97325 0.0
C1017 C 0.44476 0.09057 0.95744 0.0
C1018 C 0.45162 0.09442 0.93949 0.0
C1019 C 0.46741 0.10678 0.93732 0.0
H1020 H 0.43279 0.08066 0.959 0.0
H1021 H 0.59259 0.18929 0.93203 0.0
H1022 H 0.07428 0.26279 0.12961 0.0
H1023 H 0.10391 0.26004 0.14659 0.0
H1024 H 0.07324 0.24805 0.19752 0.0
H1025 H 0.04345 0.25094 0.18071 0.0
H1026 H 0.10368 0.27381 0.20274 0.0
H1027 H 0.0913 0.21253 0.1708 0.0
H1028 H 0.08542 0.19181 0.14284 0.0
H1029 H 0.13744 0.21289 0.11863 0.0
H1030 H 0.1435 0.23391 0.14628 0.0
H1031 H 0.19039 0.25308 0.2485 0.0
H1032 H 0.15719 0.24851 0.23802 0.0
H1033 H 0.17509 0.25223 0.18021 0.0
H1034 H 0.20757 0.25639 0.19042 0.0
H1035 H 0.14867 0.2266 0.18207 0.0
H1036 H 0.16006 0.29006 0.20485 0.0
H1037 H 0.16832 0.31594 0.22758 0.0
H1038 H 0.12189 0.2978 0.26243 0.0
H1039 H 0.11357 0.27155 0.24004 0.0
C1040 C 0.07379 0.25972 0.14446 0.0
C1041 C 0.05648 0.25698 0.1538 0.0
C1042 C 0.09075 0.25801 0.1541 0.0
C1043 C 0.0907 0.25344 0.17319 0.0
C1044 C 0.07352 0.2514 0.18273 0.0
C1045 C 0.05653 0.25309 0.1731 0.0
C1046 C 0.10862 0.25098 0.18328 0.0
C1047 C 0.11338 0.26323 0.19852 0.0
C1048 C 0.12151 0.23764 0.17721 0.0
C1049 C 0.11779 0.22488 0.16061 0.0
C1050 C 0.10142 0.21284 0.15947 0.0
C1051 C 0.09807 0.20103 0.14367 0.0
C1052 C 0.11104 0.20105 0.12896 0.0
C1053 C 0.1274 0.21287 0.13002 0.0
C1054 C 0.13081 0.22472 0.14576 0.0
C1055 C 0.18708 0.25264 0.23361 0.0
C1056 C 0.20139 0.2555 0.22027 0.0
C1057 C 0.16822 0.25011 0.22763 0.0
C1058 C 0.16367 0.25025 0.20832 0.0
C1059 C 0.17818 0.25208 0.19515 0.0
C1060 C 0.19676 0.25466 0.20104 0.0
C1061 C 0.14396 0.24971 0.20134 0.0
C1062 C 0.13879 0.23688 0.18666 0.0
C1063 C 0.13113 0.2632 0.20722 0.0
C1064 C 0.13643 0.27861 0.22097 0.0
C1065 C 0.15179 0.29141 0.2175 0.0
C1066 C 0.15645 0.30618 0.23029 0.0
C1067 C 0.1457 0.30845 0.24649 0.0
C1068 C 0.13026 0.29596 0.24992 0.0
C1069 C 0.12559 0.28111 0.23721 0.0
H1070 H 0.14929 0.31994 0.25635 0.0
H1071 H 0.10842 0.1919 0.11676 0.0
H1072 H 0.12851 0.00409 0.19469 0.0
H1073 H 0.1119 0.00566 0.16455 0.0
H1074 H 0.05983 0.98746 0.19116 0.0
H1075 H 0.07625 0.98622 0.22148 0.0
H1076 H 0.07054 0.96784 0.15526 0.0
H1077 H 0.06567 0.03137 0.18374 0.0
H1078 H 0.07984 0.06138 0.19687 0.0
H1079 H 0.11051 0.07064 0.14573 0.0
H1080 H 0.09673 0.04055 0.1324 0.0
H1081 H 0.00879 0.97702 0.0803 0.0
H1082 H 0.02168 0.98001 0.11237 0.0
H1083 H 0.06467 0.0205 0.09315 0.0
H1084 H 0.05076 0.01862 0.06174 0.0
H1085 H 0.05957 0.02919 0.12583 0.0
H1086 H 0.07025 0.97032 0.09643 0.0
H1087 H 0.06388 0.93936 0.08056 0.0
H1088 H 0.03246 0.91961 0.12835 0.0
H1089 H 0.03839 0.95056 0.14441 0.0
C1090 C 0.11355 0.00027 0.19409 0.0
C1091 C 0.10362 0.99501 0.2104 0.0
C1092 C 0.1041 0.0013 0.17692 0.0
C1093 C 0.08468 0.99682 0.17579 0.0
C1094 C 0.07484 0.99105 0.19189 0.0
C1095 C 0.0842 0.99035 0.20914 0.0
C1096 C 0.07456 -0.00195 0.15777 0.0
C1097 C 0.06782 0.98121 0.14888 0.0
C1098 C 0.07214 0.0155 0.14907 0.0
C1099 C 0.08028 0.03363 0.15714 0.0
C1100 C 0.07556 0.03972 0.17536 0.0
C1101 C 0.0835 0.05677 0.18282 0.0
C1102 C 0.0961 0.06789 0.17216 0.0
C1103 C 0.10076 0.06201 0.15399 0.0
C1104 C 0.09287 0.04498 0.14647 0.0
C1105 C 0.0204 0.9872 0.0833 0.0
C1106 C 0.02869 -0.00218 0.06884 0.0
C1107 C 0.02804 0.98863 0.10146 0.0
C1108 C 0.04459 -2e-05 0.10509 0.0
C1109 C 0.05196 0.01159 0.09082 0.0
C1110 C 0.04396 0.01062 0.07288 0.0
C1111 C 0.05501 -0.00113 0.1232 0.0
C1112 C 0.06202 0.01571 0.13211 0.0
C1113 C 0.05866 0.98131 0.13138 0.0
C1114 C 0.05453 0.96287 0.12151 0.0
C1115 C 0.06178 0.95946 0.10347 0.0
C1116 C 0.05829 0.94189 0.09445 0.0
C1117 C 0.04771 0.92755 0.10341 0.0
C1118 C 0.0406 0.93075 0.1214 0.0
C1119 C 0.04401 0.9483 0.13046 0.0
H1120 H 0.04508 0.91394 0.09643 0.0
H1121 H 0.10223 0.08108 0.17797 0.0
H1122 H 0.24515 0.87518 0.43679 0.0
H1123 H 0.24858 0.86379 0.40424 0.0
H1124 H 0.24038 0.80624 0.4227 0.0
H1125 H 0.23808 0.81758 0.45518 0.0
H1126 H 0.27027 0.80931 0.40262 0.0
H1127 H 0.20679 0.83197 0.39632 0.0
H1128 H 0.1833 0.85636 0.39707 0.0
H1129 H 0.2152 0.88843 0.35642 0.0
H1130 H 0.23902 0.86434 0.35563 0.0
H1131 H 0.2401 0.74808 0.33219 0.0
H1132 H 0.24286 0.7707 0.35806 0.0
H1133 H 0.26121 0.8146 0.32011 0.0
H1134 H 0.25803 0.79183 0.29353 0.0
H1135 H 0.23378 0.82568 0.34615 0.0
H1136 H 0.29345 0.7978 0.3484 0.0
H1137 H 0.31453 0.77128 0.34705 0.0
H1138 H 0.28773 0.74726 0.39566 0.0
H1139 H 0.26632 0.77346 0.39715 0.0
C1140 C 0.24364 0.86013 0.43373 0.0
C1141 C 0.24133 0.84719 0.44836 0.0
C1142 C 0.24564 0.85364 0.41517 0.0
C1143 C 0.24481 0.83414 0.411 0.0
C1144 C 0.24131 0.82134 0.42558 0.0
C1145 C 0.23983 0.82779 0.4441 0.0
C1146 C 0.2488 0.82665 0.39188 0.0
C1147 C 0.26222 0.81288 0.39031 0.0
C1148 C 0.23909 0.83202 0.37555 0.0
C1149 C 0.2248 0.84649 0.37611 0.0
C1150 C 0.20888 0.84431 0.38767 0.0
C1151 C 0.19549 0.85806 0.38808 0.0
C1152 C 0.19779 0.87397 0.37685 0.0
C1153 C 0.21346 0.87613 0.36515 0.0
C1154 C 0.2269 0.86244 0.36472 0.0
C1155 C 0.24489 0.76246 0.32917 0.0
C1156 C 0.24904 0.76805 0.31072 0.0
C1157 C 0.2465 0.7754 0.34407 0.0
C1158 C 0.25258 0.79422 0.34105 0.0
C1159 C 0.25665 0.80006 0.3227 0.0
C1160 C 0.25493 0.78702 0.30759 0.0
C1161 C 0.25416 0.80745 0.3574 0.0
C1162 C 0.24209 0.82246 0.35841 0.0
C1163 C 0.26494 0.80311 0.37335 0.0
C1164 C 0.27828 0.78765 0.37289 0.0
C1165 C 0.29204 0.78686 0.35879 0.0
C1166 C 0.30403 0.77186 0.35799 0.0
C1167 C 0.30247 0.7576 0.37126 0.0
C1168 C 0.28895 0.75834 0.38541 0.0
C1169 C 0.27692 0.77329 0.38627 0.0
H1170 H 0.31173 0.74598 0.37058 0.0
H1171 H 0.1874 0.88459 0.37717 0.0
H1172 H 0.42759 0.99682 0.71235 0.0
H1173 H 0.44071 0.99605 0.68066 0.0
H1174 H 0.40668 0.04205 0.66513 0.0
H1175 H 0.3927 0.04203 0.69649 0.0
H1176 H 0.40805 0.01828 0.63697 0.0
H1177 H 0.45343 0.04991 0.67834 0.0
H1178 H 0.47305 0.05312 0.70706 0.0
H1179 H 0.50207 0.00391 0.69047 0.0
H1180 H 0.48243 0.0003 0.66174 0.0
H1181 H 0.46137 0.06055 0.56544 0.0
H1182 H 0.44975 0.05541 0.59717 0.0
H1183 H 0.47491 0.00139 0.59786 0.0
H1184 H 0.48644 0.00621 0.56581 0.0
H1185 H 0.47778 0.02537 0.63243 0.0
H1186 H 0.43319 0.00162 0.58483 0.0
H1187 H 0.41334 0.00466 0.55663 0.0
H1188 H 0.38139 0.04583 0.58545 0.0
H1189 H 0.40166 0.04393 0.61347 0.0
C1190 C 0.42308 0.00683 0.70217 0.0
C1191 C 0.40954 0.01977 0.70681 0.0
C1192 C 0.43044 0.00631 0.68409 0.0
C1193 C 0.42489 0.01922 0.6707 0.0
C1194 C 0.41113 0.03196 0.67527 0.0
C1195 C 0.40336 0.03212 0.69319 0.0
C1196 C 0.43433 0.0203 0.65233 0.0
C1197 C 0.42328 0.01993 0.63592 0.0
C1198 C 0.45419 0.02233 0.65109 0.0
C1199 C 0.46641 0.02476 0.668 0.0
C1200 C 0.46398 0.03976 0.68086 0.0
C1201 C 0.47508 0.04164 0.69713 0.0
C1202 C 0.48878 0.0287 0.70061 0.0
C1203 C 0.49145 0.01391 0.68776 0.0
C1204 C 0.48036 0.01195 0.67147 0.0
C1205 C 0.46478 0.04772 0.57245 0.0
C1206 C 0.47444 0.03356 0.56305 0.0
C1207 C 0.45807 0.04482 0.5905 0.0
C1208 C 0.46107 0.02783 0.5994 0.0
C1209 C 0.47233 0.01448 0.59091 0.0
C1210 C 0.47898 0.01731 0.57272 0.0
C1211 C 0.45152 0.02369 0.61713 0.0
C1212 C 0.46257 0.02344 0.63343 0.0
C1213 C 0.4316 0.0219 0.61821 0.0
C1214 C 0.41919 0.02278 0.60129 0.0
C1215 C 0.42214 0.01155 0.58512 0.0
C1216 C 0.41078 0.01305 0.56914 0.0
C1217 C 0.39609 0.02536 0.56928 0.0
C1218 C 0.39279 0.0363 0.58535 0.0
C1219 C 0.40428 0.03508 0.60126 0.0
H1220 H 0.38726 0.02641 0.55693 0.0
H1221 H 0.49734 0.03016 0.71324 0.0
H1222 H 0.23261 0.18337 0.94088 0.0
H1223 H 0.23262 0.19295 0.90809 0.0
H1224 H 0.2838 0.16431 0.89849 0.0
H1225 H 0.28375 0.15432 0.9314 0.0
H1226 H 0.28256 0.2037 0.88482 0.0
H1227 H 0.24616 0.1433 0.88145 0.0
H1228 H 0.22046 0.1207 0.89088 0.0
H1229 H 0.17964 0.16108 0.87788 0.0
H1230 H 0.20508 0.18398 0.86859 0.0
H1231 H 0.26613 0.23482 0.78954 0.0
H1232 H 0.27574 0.21354 0.81465 0.0
H1233 H 0.22084 0.21683 0.83988 0.0
H1234 H 0.21132 0.23703 0.81534 0.0
H1235 H 0.23007 0.18299 0.8417 0.0
H1236 H 0.25993 0.24461 0.85434 0.0
H1237 H 0.28141 0.27261 0.84971 0.0
H1238 H 0.3289 0.23772 0.85038 0.0
H1239 H 0.30764 0.20935 0.85444 0.0
C1240 C 0.24395 0.17917 0.93186 0.0
C1241 C 0.25823 0.16813 0.93875 0.0
C1242 C 0.24385 0.18456 0.91309 0.0
C1243 C 0.25811 0.17918 0.90086 0.0
C1244 C 0.27263 0.1685 0.90773 0.0
C1245 C 0.27258 0.16284 0.9265 0.0
C1246 C 0.25783 0.1851 0.881 0.0
C1247 C 0.27138 0.19886 0.87514 0.0
C1248 C 0.24286 0.17919 0.86871 0.0
C1249 C 0.22757 0.16538 0.87438 0.0
C1250 C 0.23172 0.1474 0.88073 0.0
C1251 C 0.21719 0.13453 0.88602 0.0
C1252 C 0.19843 0.13946 0.88499 0.0
C1253 C 0.19417 0.15727 0.87866 0.0
C1254 C 0.20864 0.17018 0.87335 0.0
C1255 C 0.25618 0.2307 0.80037 0.0
C1256 C 0.23813 0.23788 0.80061 0.0
C1257 C 0.26165 0.21864 0.81471 0.0
C1258 C 0.24903 0.21364 0.82928 0.0
C1259 C 0.23084 0.22027 0.82886 0.0
C1260 C 0.22547 0.23207 0.81476 0.0
C1261 C 0.25428 0.20236 0.84573 0.0
C1262 C 0.24169 0.18744 0.85102 0.0
C1263 C 0.26946 0.20802 0.85793 0.0
C1264 C 0.28217 0.22482 0.85434 0.0
C1265 C 0.27492 0.24285 0.85314 0.0
C1266 C 0.28706 0.25878 0.85067 0.0
C1267 C 0.3065 0.25691 0.84969 0.0
C1268 C 0.31383 0.23909 0.85101 0.0
C1269 C 0.30174 0.22307 0.85333 0.0
H1270 H 0.31589 0.26928 0.8479 0.0
H1271 H 0.18721 0.12947 0.88909 0.0
H1272 H 0.06878 0.98769 0.30815 0.0
H1273 H 0.056 0.98667 0.34004 0.0
H1274 H 0.10902 0.01082 0.36198 0.0
H1275 H 0.12215 0.01026 0.33021 0.0
H1276 H 0.09746 0.9881 0.38546 0.0
H1277 H 0.06744 0.03704 0.35535 0.0
H1278 H 0.04987 0.05286 0.33077 0.0
H1279 H 0.00154 0.01523 0.33988 0.0
H1280 H 0.0189 -0.00101 0.36436 0.0
H1281 H 0.05461 0.02264 0.46979 0.0
H1282 H 0.07198 0.01491 0.44161 0.0
H1283 H 0.02294 0.9832 0.41942 0.0
H1284 H 0.00516 0.99216 0.44733 0.0
H1285 H 0.03364 0.01073 0.39685 0.0
H1286 H 0.07227 0.95906 0.42403 0.0
H1287 H 0.09325 0.94752 0.44854 0.0
H1288 H 0.12697 -0.00038 0.44741 0.0
H1289 H 0.10688 0.01092 0.42198 0.0
C1290 C 0.0777 0.99245 0.3199 0.0
C1291 C 0.09641 -0.00112 0.31694 0.0
C1292 C 0.07037 0.99214 0.33808 0.0
C1293 C 0.08135 -0.00088 0.35349 0.0
C1294 C 0.10021 0.00532 0.35043 0.0
C1295 C 0.10773 0.00499 0.33232 0.0
C1296 C 0.0732 -8e-05 0.37274 0.0
C1297 C 0.08354 0.99321 0.38788 0.0
C1298 C 0.05516 0.00683 0.37619 0.0
C1299 C 0.04456 0.01666 0.36157 0.0
C1300 C 0.05311 0.03205 0.35203 0.0
C1301 C 0.04318 0.0411 0.33813 0.0
C1302 C 0.02462 0.03502 0.33373 0.0
C1303 C 0.01593 0.01991 0.34328 0.0
C1304 C 0.0258 0.01078 0.35719 0.0
C1305 C 0.04791 0.01304 0.4594 0.0
C1306 C 0.0287 0.00767 0.46084 0.0
C1307 C 0.05788 0.00863 0.44318 0.0
C1308 C 0.04888 -0.00165 0.42829 0.0
C1309 C 0.03022 0.99114 0.4307 0.0
C1310 C 0.02014 0.99592 0.44681 0.0
C1311 C 0.05755 -0.00188 0.40928 0.0
C1312 C 0.04741 0.00535 0.39425 0.0
C1313 C 0.07609 0.99257 0.40608 0.0
C1314 C 0.08801 0.98586 0.42135 0.0
C1315 C 0.08415 0.96802 0.42907 0.0
C1316 C 0.09592 0.96151 0.44306 0.0
C1317 C 0.11121 0.97297 0.44984 0.0
C1318 C 0.11507 0.99079 0.44225 0.0
C1319 C 0.10367 0.99714 0.42787 0.0
H1320 H 0.12014 0.96797 0.46086 0.0
H1321 H 0.01696 0.04203 0.32294 0.0
H1322 H 0.26698 0.8416 0.54844 0.0
H1323 H 0.27024 0.82783 0.5794 0.0
H1324 H 0.21956 0.85372 0.59756 0.0
H1325 H 0.21721 0.86876 0.56687 0.0
H1326 H 0.24338 0.85482 0.62511 0.0
H1327 H 0.22046 0.80582 0.58128 0.0
H1328 H 0.22146 0.78645 0.55213 0.0
H1329 H 0.27491 0.76648 0.56884 0.0
H1330 H 0.27433 0.78594 0.598 0.0
H1331 H 0.20362 0.79179 0.6891 0.0
H1332 H 0.21106 0.80572 0.65884 0.0
H1333 H 0.26906 0.79182 0.66508 0.0
H1334 H 0.26188 0.77823 0.69584 0.0
H1335 H 0.2478 0.78517 0.62675 0.0
H1336 H 0.26612 0.8318 0.67438 0.0
H1337 H 0.26213 0.85086 0.70334 0.0
H1338 H 0.21337 0.8747 0.67943 0.0
H1339 H 0.21684 0.8555 0.65047 0.0
C1340 C 0.25653 0.84424 0.55908 0.0
C1341 C 0.24158 0.85574 0.55536 0.0
C1342 C 0.25841 0.83643 0.57672 0.0
C1343 C 0.24486 0.83931 0.59061 0.0
C1344 C 0.23012 0.85123 0.587 0.0
C1345 C 0.22864 0.85963 0.5695 0.0
C1346 C 0.24559 0.82922 0.60856 0.0
C1347 C 0.24426 0.83959 0.62546 0.0
C1348 C 0.24723 0.80939 0.60903 0.0
C1349 C 0.24743 0.79744 0.5917 0.0
C1350 C 0.23246 0.79735 0.57868 0.0
C1351 C 0.23295 0.78636 0.56217 0.0
C1352 C 0.24826 0.77528 0.55861 0.0
C1353 C 0.26308 0.7751 0.5716 0.0
C1354 C 0.26267 0.78608 0.58813 0.0
C1355 C 0.21789 0.79131 0.6839 0.0
C1356 C 0.23223 0.78414 0.69493 0.0
C1357 C 0.22211 0.79937 0.6667 0.0
C1358 C 0.24065 0.80016 0.66016 0.0
C1359 C 0.25472 0.79148 0.67018 0.0
C1360 C 0.25054 0.78354 0.68759 0.0
C1361 C 0.24507 0.81071 0.64308 0.0
C1362 C 0.24733 0.80044 0.62636 0.0
C1363 C 0.24386 0.83056 0.64279 0.0
C1364 C 0.24165 0.84204 0.66029 0.0
C1365 C 0.25441 0.84092 0.67537 0.0
C1366 C 0.25227 0.8518 0.69178 0.0
C1367 C 0.23748 0.86395 0.69324 0.0
C1368 C 0.22481 0.86526 0.67829 0.0
C1369 C 0.22686 0.85439 0.66187 0.0
H1370 H 0.23586 0.87238 0.70593 0.0
H1371 H 0.24863 0.76679 0.54581 0.0
H1372 H 0.41765 0.0414 0.81518 0.0
H1373 H 0.42983 0.04068 0.84764 0.0
H1374 H 0.41835 0.9803 0.84823 0.0
H1375 H 0.40698 0.98086 0.81566 0.0
H1376 H 0.4089 0.00408 0.88369 0.0
H1377 H 0.4575 0.98865 0.83909 0.0
H1378 H 0.477 0.99408 0.81096 0.0
H1379 H 0.49831 0.04741 0.83434 0.0
H1380 H 0.47855 0.04251 0.86243 0.0
H1381 H 0.47412 0.98723 0.96069 0.0
H1382 H 0.45345 0.98475 0.93269 0.0
H1383 H 0.47513 0.03975 0.91545 0.0
H1384 H 0.496 0.04193 0.94248 0.0
H1385 H 0.47837 0.0148 0.8882 0.0
H1386 H 0.42915 0.03295 0.93068 0.0
H1387 H 0.40886 0.03011 0.95856 0.0
H1388 H 0.38944 0.97421 0.94037 0.0
H1389 H 0.40948 0.97686 0.91219 0.0
C1390 C 0.41755 0.02808 0.8224 0.0
C1391 C 0.41168 0.01116 0.81306 0.0
C1392 C 0.42439 0.02767 0.84085 0.0
C1393 C 0.4249 0.01042 0.85019 0.0
C1394 C 0.41795 0.99371 0.84121 0.0
C1395 C 0.41165 0.99404 0.82265 0.0
C1396 C 0.43466 0.0095 0.86842 0.0
C1397 C 0.42411 0.00623 0.88476 0.0
C1398 C 0.45443 0.01239 0.86964 0.0
C1399 C 0.46631 0.01535 0.85273 0.0
C1400 C 0.46613 0.00167 0.83812 0.0
C1401 C 0.47727 0.00462 0.8222 0.0
C1402 C 0.48883 0.02112 0.82082 0.0
C1403 C 0.4893 0.03467 0.83539 0.0
C1404 C 0.47811 0.03182 0.8513 0.0
C1405 C 0.47423 -0.00119 0.95097 0.0
C1406 C 0.48688 0.01461 0.95357 0.0
C1407 C 0.4624 0.99744 0.93508 0.0
C1408 C 0.46291 0.01202 0.92193 0.0
C1409 C 0.4747 0.02823 0.92526 0.0
C1410 C 0.48663 0.02944 0.94077 0.0
C1411 C 0.45263 0.01013 0.90379 0.0
C1412 C 0.46316 0.0126 0.88729 0.0
C1413 C 0.43287 0.00675 0.90253 0.0
C1414 C 0.42097 0.00501 0.91949 0.0
C1415 C 0.42066 0.02 0.93271 0.0
C1416 C 0.40918 0.01844 0.94855 0.0
C1417 C 0.398 0.00191 0.95137 0.0
C1418 C 0.39816 0.98697 0.93822 0.0
C1419 C 0.40951 0.98853 0.92227 0.0
H1420 H 0.38915 0.00071 0.96367 0.0
H1421 H 0.49748 0.02336 0.80851 0.0
H1422 H 0.29603 0.16159 0.04907 0.0
H1423 H 0.29501 0.17263 0.08204 0.0
H1424 H 0.23418 0.16775 0.08018 0.0
H1425 H 0.23529 0.15713 0.04718 0.0
H1426 H 0.24593 0.19983 0.09693 0.0
H1427 H 0.25843 0.13521 0.10289 0.0
H1428 H 0.27422 0.10544 0.09766 0.0
H1429 H 0.32574 0.1311 0.12048 0.0
H1430 H 0.31033 0.16112 0.1256 0.0
H1431 H 0.23904 0.21254 0.19643 0.0
H1432 H 0.23754 0.19374 0.16703 0.0
H1433 H 0.29556 0.21069 0.15592 0.0
H1434 H 0.2968 0.23018 0.18488 0.0
H1435 H 0.28218 0.16993 0.14707 0.0
H1436 H 0.26814 0.23586 0.13821 0.0
H1437 H 0.25055 0.26446 0.14377 0.0
H1438 H 0.19914 0.23417 0.12662 0.0
H1439 H 0.2164 0.20524 0.12134 0.0
C1440 C 0.28252 0.16311 0.05576 0.0
C1441 C 0.26573 0.15885 0.0458 0.0
C1442 C 0.28191 0.16919 0.07455 0.0
C1443 C 0.2645 0.17077 0.0836 0.0
C1444 C 0.24773 0.16664 0.07347 0.0
C1445 C 0.24836 0.16067 0.05469 0.0
C1446 C 0.26378 0.17718 0.1035 0.0
C1447 C 0.2536 0.19307 0.10794 0.0
C1448 C 0.27382 0.16839 0.11785 0.0
C1449 C 0.28327 0.15048 0.11445 0.0
C1450 C 0.27318 0.13457 0.1066 0.0
C1451 C 0.28205 0.11763 0.1037 0.0
C1452 C 0.30098 0.11639 0.10869 0.0
C1453 C 0.31108 0.13209 0.1166 0.0
C1454 C 0.30228 0.14907 0.11951 0.0
C1455 C 0.25166 0.2116 0.18804 0.0
C1456 C 0.26815 0.22245 0.19288 0.0
C1457 C 0.25073 0.20105 0.17124 0.0
C1458 C 0.26641 0.20101 0.15937 0.0
C1459 C 0.28337 0.21058 0.165 0.0
C1460 C 0.28413 0.22155 0.18153 0.0
C1461 C 0.2647 0.19268 0.14026 0.0
C1462 C 0.27438 0.17646 0.13603 0.0
C1463 C 0.25394 0.20098 0.12615 0.0
C1464 C 0.24351 0.21827 0.12975 0.0
C1465 C 0.25304 0.23519 0.13594 0.0
C1466 C 0.24314 0.25149 0.13897 0.0
C1467 C 0.22372 0.25111 0.13565 0.0
C1468 C 0.21417 0.23442 0.12927 0.0
C1469 C 0.224 0.21807 0.12628 0.0
H1470 H 0.21609 0.26376 0.13794 0.0
H1471 H 0.30781 0.10325 0.10647 0.0
H1472 H 0.19994 0.12386 0.01393 0.0
H1473 H 0.16879 0.10781 0.01731 0.0
H1474 H 0.18229 0.06744 0.97393 0.0
H1475 H 0.21393 0.08307 0.971 0.0
H1476 H 0.14556 0.0895 0.97126 0.0
H1477 H 0.18221 0.0502 0.01091 0.0
H1478 H 0.20389 0.04398 0.03695 0.0
H1479 H 0.16602 0.0681 0.07642 0.0
H1480 H 0.14426 0.07481 0.05054 0.0
H1481 H 0.07838 0.01199 0.97714 0.0
H1482 H 0.10648 0.03353 0.97527 0.0
H1483 H 0.08752 0.06524 0.02333 0.0
H1484 H 0.05905 0.04398 0.02484 0.0
H1485 H 0.12565 0.0506 0.02566 0.0
H1486 H 0.0883 0.08845 0.98841 0.0
H1487 H 0.06561 0.09566 0.96361 0.0
H1488 H 0.1035 0.0765 0.92136 0.0
H1489 H 0.12632 0.06885 0.94597 0.0
C1490 C 0.19625 0.11154 0.00513 0.0
C1491 C 0.20916 0.10472 0.99209 0.0
C1492 C 0.17855 0.10237 0.00716 0.0
C1493 C 0.17337 0.08652 0.99587 0.0
C1494 C 0.18618 0.07968 0.98276 0.0
C1495 C 0.20415 0.08855 0.98111 0.0
C1496 C 0.15425 0.07759 0.99732 0.0
C1497 C 0.14123 0.08079 0.98302 0.0
C1498 C 0.14852 0.06706 0.01317 0.0
C1499 C 0.16174 0.0633 0.02872 0.0
C1500 C 0.17863 0.05446 0.02509 0.0
C1501 C 0.19091 0.05077 0.03984 0.0
C1502 C 0.18638 0.05572 0.05832 0.0
C1503 C 0.16954 0.06433 0.06209 0.0
C1504 C 0.15724 0.06809 0.04738 0.0
C1505 C 0.07998 0.02394 0.98687 0.0
C1506 C 0.06656 0.02669 0.00087 0.0
C1507 C 0.09599 0.03613 0.98588 0.0
C1508 C 0.09898 0.0509 -0.00082 0.0
C1509 C 0.08534 0.05395 0.01292 0.0
C1510 C 0.06907 0.042 0.01364 0.0
C1511 C 0.11709 0.06209 -0.00066 0.0
C1512 C 0.12992 0.05942 0.01397 0.0
C1513 C 0.12259 0.07336 0.98396 0.0
C1514 C 0.10895 0.07788 0.96906 0.0
C1515 C 0.09172 0.08557 0.97385 0.0
C1516 C 0.07885 0.08979 0.95982 0.0
C1517 C 0.08309 0.08649 0.94092 0.0
C1518 C 0.10023 0.07902 0.93602 0.0
C1519 C 0.11315 0.07475 0.95 0.0
H1520 H 0.07311 0.08977 0.93007 0.0
H1521 H 0.19588 0.05281 0.06972 0.0
H1522 H 0.71 0.44564 0.02448 0.0
H1523 H 0.67846 0.45714 0.02705 0.0
H1524 H 0.65594 0.40857 0.99506 0.0
H1525 H 0.68773 0.397 0.99218 0.0
H1526 H 0.64108 0.44033 0.9838 0.0
H1527 H 0.64899 0.41031 0.04186 0.0
H1528 H 0.66356 0.4016 0.07178 0.0
H1529 H 0.6632 0.45921 0.09161 0.0
H1530 H 0.64883 0.46833 0.06173 0.0
H1531 H 0.54745 0.45819 0.00982 0.0
H1532 H 0.57798 0.44543 0.00357 0.0
H1533 H 0.60534 0.49176 0.03553 0.0
H1534 H 0.5743 0.50416 0.04248 0.0
H1535 H 0.61644 0.45843 0.04638 0.0
H1536 H 0.60825 0.48723 0.98531 0.0
H1537 H 0.59078 0.49273 0.95598 0.0
H1538 H 0.58864 0.43326 0.94274 0.0
H1539 H 0.60597 0.42741 0.97201 0.0
C1540 C 0.69838 0.43746 0.01785 0.0
C1541 C 0.70128 0.42043 0.00813 0.0
C1542 C 0.68035 0.44396 0.01948 0.0
C1543 C 0.66489 0.43347 0.0116 0.0
C1544 C 0.66775 0.41676 0.00134 0.0
C1545 C 0.68588 0.41025 -0.00038 0.0
C1546 C 0.64588 0.44047 0.01375 0.0
C1547 C 0.63555 0.44407 -0.00252 0.0
C1548 C 0.63877 0.44534 0.03164 0.0
C1549 C 0.64801 0.44004 0.04943 0.0
C1550 C 0.65223 0.42118 0.0525 0.0
C1551 C 0.66039 0.41615 0.06949 0.0
C1552 C 0.66435 0.42985 0.08356 0.0
C1553 C 0.66015 0.44861 0.08069 0.0
C1554 C 0.65198 0.45371 0.06373 0.0
C1555 C 0.56008 0.46574 0.01525 0.0
C1556 C 0.55887 0.48202 0.02656 0.0
C1557 C 0.57746 0.45857 0.01155 0.0
C1558 C 0.59391 0.46784 0.0188 0.0
C1559 C 0.59273 0.48453 0.02971 0.0
C1560 C 0.57518 0.49162 0.03364 0.0
C1561 C 0.61208 0.45907 0.01642 0.0
C1562 C 0.62209 0.45486 0.03269 0.0
C1563 C 0.61865 0.45329 -0.00143 0.0
C1564 C 0.60838 0.45689 0.98087 0.0
C1565 C 0.604 0.47533 0.97616 0.0
C1566 C 0.59414 0.47851 0.95954 0.0
C1567 C 0.58865 0.46336 0.94749 0.0
C1568 C 0.59296 0.44499 0.95205 0.0
C1569 C 0.60284 0.44175 0.96862 0.0
H1570 H 0.58109 0.46584 0.93459 0.0
H1571 H 0.67063 0.42592 0.09672 0.0
H1572 H 0.87913 0.44771 0.2748 0.0
H1573 H 0.86596 0.41499 0.27307 0.0
H1574 H 0.81839 0.4332 0.24143 0.0
H1575 H 0.83093 0.46579 0.24405 0.0
H1576 H 0.80605 0.41217 0.26675 0.0
H1577 H 0.85461 0.4073 0.22151 0.0
H1578 H 0.88669 0.40965 0.20846 0.0
H1579 H 0.905 0.37053 0.24916 0.0
H1580 H 0.87305 0.36812 0.26263 0.0
H1581 H 0.76507 0.32958 0.23039 0.0
H1582 H 0.78709 0.35707 0.2309 0.0
H1583 H 0.81719 0.33399 0.27721 0.0
H1584 H 0.79518 0.30572 0.27634 0.0
H1585 H 0.84 0.35577 0.24696 0.0
H1586 H 0.78613 0.36186 0.28964 0.0
H1587 H 0.75199 0.35937 0.29604 0.0
H1588 H 0.74206 0.39735 0.25119 0.0
H1589 H 0.7761 0.39989 0.24441 0.0
C1590 C 0.86582 0.44463 0.26757 0.0
C1591 C 0.85584 0.45922 0.25986 0.0
C1592 C 0.85843 0.42595 0.2664 0.0
C1593 C 0.84123 0.42161 0.25704 0.0
C1594 C 0.83158 0.43621 0.2489 0.0
C1595 C 0.8387 0.45484 0.25047 0.0
C1596 C 0.83243 0.40219 0.25676 0.0
C1597 C 0.81355 0.39993 0.2623 0.0
C1598 C 0.84218 0.3861 0.25112 0.0
C1599 C 0.86149 0.38773 0.24326 0.0
C1600 C 0.86552 0.39936 0.22782 0.0
C1601 C 0.88367 0.40066 0.22031 0.0
C1602 C 0.8979 0.3903 0.22802 0.0
C1603 C 0.89398 0.37858 0.24324 0.0
C1604 C 0.87585 0.37723 0.25081 0.0
C1605 C 0.77653 0.33023 0.24055 0.0
C1606 C 0.77824 0.31589 0.25368 0.0
C1607 C 0.78916 0.34584 0.2407 0.0
C1608 C 0.8035 0.34761 0.25427 0.0
C1609 C 0.80612 0.33277 0.26667 0.0
C1610 C 0.79354 0.31679 0.26627 0.0
C1611 C 0.81382 0.36609 0.2568 0.0
C1612 C 0.83283 0.36812 0.25168 0.0
C1613 C 0.80404 0.3822 0.26206 0.0
C1614 C 0.78364 0.38103 0.26652 0.0
C1615 C 0.77665 0.36963 0.28113 0.0
C1616 C 0.75732 0.36822 0.28482 0.0
C1617 C 0.74486 0.37819 0.27403 0.0
C1618 C 0.75172 0.38965 0.25956 0.0
C1619 C 0.77102 0.39112 0.25582 0.0
H1620 H 0.72991 0.37705 0.27689 0.0
H1621 H 0.91193 0.39131 0.22217 0.0
H1622 H 0.82225 0.62612 0.49558 0.0
H1623 H 0.85443 0.61575 0.49819 0.0
H1624 H 0.83324 0.55759 0.49265 0.0
H1625 H 0.80099 0.56799 0.49163 0.0
H1626 H 0.85758 0.55975 0.51868 0.0
H1627 H 0.85812 0.58769 0.45546 0.0
H1628 H 0.85506 0.61447 0.43418 0.0
H1629 H 0.89754 0.64705 0.46577 0.0
H1630 H 0.9007 0.62054 0.48731 0.0
H1631 H 0.93773 0.51161 0.50308 0.0
H1632 H 0.90904 0.52677 0.49411 0.0
H1633 H 0.93622 0.58144 0.50704 0.0
H1634 H 0.96492 0.56617 0.5161 0.0
H1635 H 0.91057 0.58387 0.47918 0.0
H1636 H 0.91298 0.5588 0.54018 0.0
H1637 H 0.91669 0.53562 0.56512 0.0
H1638 H 0.86962 0.50164 0.54276 0.0
H1639 H 0.86587 0.52439 0.5174 0.0
C1640 C 0.82457 0.61114 0.49463 0.0
C1641 C 0.80924 0.59782 0.49312 0.0
C1642 C 0.84299 0.6052 0.49605 0.0
C1643 C 0.84646 0.58585 0.49517 0.0
C1644 C 0.83104 0.5726 0.49332 0.0
C1645 C 0.81262 0.57852 0.49258 0.0
C1646 C 0.86592 0.5791 0.49689 0.0
C1647 C 0.86903 0.56478 0.50974 0.0
C1648 C 0.88132 0.58648 0.48618 0.0
C1649 C 0.87954 0.6022 0.47302 0.0
C1650 C 0.86675 0.60059 0.45787 0.0
C1651 C 0.86501 0.61572 0.44578 0.0
C1652 C 0.87608 0.63246 0.44864 0.0
C1653 C 0.88897 0.63409 0.46357 0.0
C1654 C 0.89076 0.61902 0.4757 0.0
C1655 C 0.93794 0.52691 0.50286 0.0
C1656 C 0.95351 0.53778 0.51006 0.0
C1657 C 0.92142 0.53555 0.4981 0.0
C1658 C 0.92034 0.55518 0.50046 0.0
C1659 C 0.93671 0.56625 0.50527 0.0
C1660 C 0.95321 0.55756 0.51014 0.0
C1661 C 0.90176 0.56376 0.50006 0.0
C1662 C 0.89898 0.57863 0.48784 0.0
C1663 C 0.88677 0.55724 0.51172 0.0
C1664 C 0.88933 0.5432 0.52668 0.0
C1665 C 0.90359 0.54625 0.54039 0.0
C1666 C 0.90566 0.53321 0.55465 0.0
C1667 C 0.89344 0.51713 0.55549 0.0
C1668 C 0.87912 0.51406 0.54206 0.0
C1669 C 0.87703 0.52702 0.52772 0.0
H1670 H 0.89502 0.50709 0.56658 0.0
H1671 H 0.87469 0.64416 0.43927 0.0
H1672 H 0.14358 0.06626 0.28414 0.0
H1673 H 0.15791 0.09784 0.27837 0.0
H1674 H 0.1935 0.0741 0.23596 0.0
H1675 H 0.18025 0.04256 0.24272 0.0
H1676 H 0.21278 0.09892 0.25425 0.0
H1677 H 0.14927 0.09897 0.22702 0.0
H1678 H 0.11456 0.0957 0.22891 0.0
H1679 H 0.11511 0.1394 0.27167 0.0
H1680 H 0.14978 0.14282 0.27013 0.0
H1681 H 0.2502 0.18804 0.23245 0.0
H1682 H 0.23178 0.1587 0.22425 0.0
H1683 H 0.18893 0.17436 0.26363 0.0
H1684 H 0.20658 0.20389 0.27055 0.0
H1685 H 0.17283 0.15247 0.24148 0.0
H1686 H 0.23321 0.14932 0.27453 0.0
H1687 H 0.2678 0.15122 0.27853 0.0
H1688 H 0.27323 0.11319 0.23133 0.0
H1689 H 0.2387 0.11125 0.22693 0.0
C1690 C 0.15469 0.06785 0.27382 0.0
C1691 C 0.16089 0.05203 0.26392 0.0
C1692 C 0.16266 0.0859 0.27031 0.0
C1693 C 0.17637 0.08848 0.25625 0.0
C1694 C 0.18288 0.07255 0.24677 0.0
C1695 C 0.17536 0.0545 0.25071 0.0
C1696 C 0.18436 0.10762 0.25155 0.0
C1697 C 0.20402 0.11055 0.25112 0.0
C1698 C 0.17298 0.12296 0.24794 0.0
C1699 C 0.15211 0.12111 0.24848 0.0
C1700 C 0.14197 0.10786 0.23683 0.0
C1701 C 0.12231 0.10597 0.23785 0.0
C1702 C 0.11264 0.11732 0.25041 0.0
C1703 C 0.1226 0.13063 0.26193 0.0
C1704 C 0.14224 0.13257 0.26096 0.0
C1705 C 0.23625 0.18567 0.23832 0.0
C1706 C 0.22971 0.19808 0.25212 0.0
C1707 C 0.22592 0.1687 0.23401 0.0
C1708 C 0.20938 0.16379 0.24403 0.0
C1709 C 0.20173 0.17752 0.25583 0.0
C1710 C 0.21176 0.19457 0.2597 0.0
C1711 C 0.20133 0.14394 0.24465 0.0
C1712 C 0.18162 0.14077 0.24424 0.0
C1713 C 0.21266 0.12846 0.2481 0.0
C1714 C 0.23344 0.13043 0.2502 0.0
C1715 C 0.24182 0.14157 0.26487 0.0
C1716 C 0.2614 0.1426 0.26724 0.0
C1717 C 0.27271 0.1324 0.25514 0.0
C1718 C 0.26447 0.12116 0.24063 0.0
C1719 C 0.24491 0.12011 0.23817 0.0
H1720 H 0.28786 0.13315 0.25706 0.0
H1721 H 0.09743 0.11581 0.25121 0.0
H1722 H 0.29134 0.93366 0.4968 0.0
H1723 H 0.32353 0.94757 0.49646 0.0
H1724 H 0.3453 0.89221 0.50132 0.0
H1725 H 0.31314 0.87809 0.50172 0.0
H1726 H 0.36322 0.92173 0.52548 0.0
H1727 H 0.34561 0.90923 0.46009 0.0
H1728 H 0.32423 0.91098 0.43281 0.0
H1729 H 0.32877 0.97162 0.43652 0.0
H1730 H 0.34994 0.97022 0.46399 0.0
H1731 H 0.45418 0.96807 0.50584 0.0
H1732 H 0.42802 0.94389 0.50519 0.0
H1733 H 0.39015 0.98623 0.48839 0.0
H1734 H 0.416 0.00971 0.48805 0.0
H1735 H 0.38361 0.95617 0.46843 0.0
H1736 H 0.39552 0.9708 0.53499 0.0
H1737 H 0.41381 0.97168 0.56467 0.0
H1738 H 0.41764 0.91154 0.5614 0.0
H1739 H 0.39953 0.91022 0.53165 0.0
C1740 C 0.30296 0.92443 0.49778 0.0
C1741 C 0.29976 0.90478 0.49908 0.0
C1742 C 0.32129 0.93239 0.49764 0.0
C1743 C 0.33663 0.92081 0.49877 0.0
C1744 C 0.33354 0.90127 0.50044 0.0
C1745 C 0.3152 0.89327 0.50049 0.0
C1746 C 0.35588 0.9292 0.49727 0.0
C1747 C 0.36793 0.92903 0.51295 0.0
C1748 C 0.36169 0.93879 0.48095 0.0
C1749 C 0.34933 0.9396 0.46412 0.0
C1750 C 0.34199 0.92293 0.45513 0.0
C1751 C 0.32991 0.92386 0.43963 0.0
C1752 C 0.32514 0.9414 0.43294 0.0
C1753 C 0.33249 0.95804 0.4417 0.0
C1754 C 0.34455 0.95718 0.45721 0.0
C1755 C 0.44037 0.97195 0.50157 0.0
C1756 C 0.43723 0.99068 0.4969 0.0
C1757 C 0.42541 0.95827 0.50146 0.0
C1758 C 0.40714 0.96334 0.49687 0.0
C1759 C 0.40414 0.98196 0.49188 0.0
C1760 C 0.41899 0.99542 0.49173 0.0
C1761 C 0.39076 0.94968 0.49701 0.0
C1762 C 0.37921 0.94861 0.48092 0.0
C1763 C 0.38525 0.93951 0.51319 0.0
C1764 C 0.39647 0.94045 0.53089 0.0
C1765 C 0.40046 0.95779 0.54047 0.0
C1766 C 0.41074 0.95837 0.55733 0.0
C1767 C 0.41697 0.94173 0.56482 0.0
C1768 C 0.41288 0.92443 0.55553 0.0
C1769 C 0.40261 0.92375 0.53867 0.0
H1770 H 0.4249 0.94223 0.57788 0.0
H1771 H 0.31577 0.94209 0.42095 0.0
H1772 H 0.81461 0.55584 0.26799 0.0
H1773 H 0.80091 0.5866 0.26475 0.0
H1774 H 0.85283 0.60893 0.24038 0.0
H1775 H 0.86694 0.5786 0.24514 0.0
H1776 H 0.83907 0.63573 0.25801 0.0
H1777 H 0.81328 0.59133 0.21279 0.0
H1778 H 0.79805 0.56135 0.20075 0.0
H1779 H 0.74825 0.57197 0.23233 0.0
H1780 H 0.76328 0.60194 0.24471 0.0
H1781 H 0.79906 0.70647 0.20574 0.0
H1782 H 0.80965 0.67482 0.21059 0.0
H1783 H 0.76846 0.66617 0.25428 0.0
H1784 H 0.7578 0.69808 0.24978 0.0
H1785 H 0.77638 0.63313 0.22655 0.0
H1786 H 0.80626 0.68198 0.26836 0.0
H1787 H 0.82281 0.71331 0.27198 0.0
H1788 H 0.86857 0.69441 0.23862 0.0
H1789 H 0.85181 0.66324 0.23392 0.0
C1790 C 0.82317 0.56755 0.26246 0.0
C1791 C 0.84174 0.56508 0.25686 0.0
C1792 C 0.81532 0.58501 0.26038 0.0
C1793 C 0.82562 0.59993 0.25174 0.0
C1794 C 0.84455 0.59766 0.24701 0.0
C1795 C 0.85262 0.58038 0.24974 0.0
C1796 C 0.81633 0.61742 0.24665 0.0
C1797 C 0.82542 0.63507 0.25106 0.0
C1798 C 0.79861 0.61672 0.23727 0.0
C1799 C 0.78946 0.59877 0.22981 0.0
C1800 C 0.79912 0.58721 0.21725 0.0
C1801 C 0.79052 0.57024 0.21035 0.0
C1802 C 0.77221 0.56474 0.21581 0.0
C1803 C 0.76244 0.57624 0.22813 0.0
C1804 C 0.77098 0.59323 0.23507 0.0
C1805 C 0.79196 0.69778 0.21617 0.0
C1806 C 0.77782 0.70494 0.22764 0.0
C1807 C 0.798 0.67967 0.21883 0.0
C1808 C 0.78997 0.66841 0.23292 0.0
C1809 C 0.77478 0.67479 0.24334 0.0
C1810 C 0.76876 0.69302 0.24077 0.0
C1811 C 0.79899 0.65108 0.23827 0.0
C1812 C 0.78991 0.63358 0.23374 0.0
C1813 C 0.81707 0.65194 0.24677 0.0
C1814 C 0.82768 0.67028 0.25066 0.0
C1815 C 0.81979 0.68452 0.26168 0.0
C1816 C 0.82921 0.70227 0.26392 0.0
C1817 C 0.84679 0.70582 0.25564 0.0
C1818 C 0.85496 0.69163 0.24505 0.0
C1819 C 0.84547 0.67394 0.24253 0.0
H1820 H 0.85406 0.71957 0.25742 0.0
H1821 H 0.76558 0.55158 0.21047 0.0
H1822 H 0.64619 0.44077 0.73617 0.0
H1823 H 0.65501 0.40775 0.73687 0.0
H1824 H 0.68838 0.42044 0.78686 0.0
H1825 H 0.67927 0.45347 0.7863 0.0
H1826 H 0.70745 0.40272 0.75654 0.0
H1827 H 0.64718 0.3943 0.78982 0.0
H1828 H 0.61266 0.3959 0.79219 0.0
H1829 H 0.60527 0.36151 0.74201 0.0
H1830 H 0.63972 0.35986 0.73925 0.0
H1831 H 0.74132 0.31477 0.76615 0.0
H1832 H 0.72491 0.34263 0.77615 0.0
H1833 H 0.67843 0.3252 0.73925 0.0
H1834 H 0.694 0.29641 0.73107 0.0
H1835 H 0.66485 0.34551 0.76337 0.0
H1836 H 0.71856 0.35397 0.72529 0.0
H1837 H 0.75146 0.35302 0.71465 0.0
H1838 H 0.76993 0.38815 0.76183 0.0
H1839 H 0.73715 0.38905 0.77294 0.0
C1840 C 0.65521 0.43635 0.74743 0.0
C1841 C 0.66208 0.44943 0.76122 0.0
C1842 C 0.66015 0.41755 0.74787 0.0
C1843 C 0.6722 0.41163 0.76202 0.0
C1844 C 0.67893 0.42473 0.77593 0.0
C1845 C 0.67376 0.4435 0.77563 0.0
C1846 C 0.679 0.39223 0.76149 0.0
C1847 C 0.69825 0.39018 0.75845 0.0
C1848 C 0.66672 0.37591 0.76261 0.0
C1849 C 0.64603 0.37706 0.76428 0.0
C1850 C 0.63819 0.3872 0.77922 0.0
C1851 C 0.61864 0.38808 0.78065 0.0
C1852 C 0.60678 0.37883 0.76725 0.0
C1853 C 0.61446 0.36867 0.75238 0.0
C1854 C 0.63399 0.36773 0.7509 0.0
C1855 C 0.72691 0.31608 0.76156 0.0
C1856 C 0.71861 0.30312 0.74844 0.0
C1857 C 0.71779 0.33239 0.76668 0.0
C1858 C 0.70074 0.33648 0.75787 0.0
C1859 C 0.69159 0.32256 0.74621 0.0
C1860 C 0.70041 0.30594 0.74168 0.0
C1861 C 0.69357 0.35586 0.75901 0.0
C1862 C 0.67423 0.35797 0.76181 0.0
C1863 C 0.70559 0.37227 0.75646 0.0
C1864 C 0.72541 0.37134 0.75011 0.0
C1865 C 0.72965 0.36131 0.73353 0.0
C1866 C 0.74828 0.36081 0.72739 0.0
C1867 C 0.76278 0.37046 0.7376 0.0
C1868 C 0.75869 0.38063 0.75397 0.0
C1869 C 0.74009 0.38112 0.76021 0.0
H1870 H 0.77719 0.37011 0.73279 0.0
H1871 H 0.59165 0.37952 0.76839 0.0
H1872 H 0.01359 0.82203 0.88456 0.0
H1873 H 0.01631 0.85358 0.89915 0.0
H1874 H 0.99156 0.83148 0.94996 0.0
H1875 H 0.98927 0.79956 0.93555 0.0
H1876 H 0.97476 0.86498 0.93341 0.0
H1877 H 0.03411 0.84128 0.95247 0.0
H1878 H 0.06479 0.8273 0.94781 0.0
H1879 H 0.08298 0.87372 0.91326 0.0
H1880 H 0.05224 0.88782 0.91742 0.0
H1881 H 0.99546 0.93455 0.00408 0.0
H1882 H 0.98851 0.9077 0.98261 0.0
H1883 H 0.02369 0.9344 0.94042 0.0
H1884 H 0.03076 0.96121 0.96211 0.0
H1885 H 0.03536 0.90003 0.949 0.0
H1886 H 0.97797 0.92588 0.93306 0.0
H1887 H 0.94903 0.94158 0.94051 0.0
H1888 H 0.92684 0.89186 0.96809 0.0
H1889 H 0.95641 0.87622 0.96191 0.0
C1890 C 0.00872 0.82388 0.89885 0.0
C1891 C 0.00106 0.80845 0.90893 0.0
C1892 C 0.01039 0.84186 0.90716 0.0
C1893 C 0.00413 0.84475 0.92556 0.0
C1894 C 0.99646 0.8294 0.93571 0.0
C1895 C 0.99518 0.81126 0.92753 0.0
C1896 C 0.00497 0.86397 0.93389 0.0
C1897 C 0.98797 0.87262 0.93703 0.0
C1898 C 0.0223 0.87408 0.93777 0.0
C1899 C 0.04072 0.86546 0.93501 0.0
C1900 C 0.04453 0.84838 0.94365 0.0
C1901 C 0.06197 0.84046 0.94115 0.0
C1902 C 0.0758 0.84957 0.93018 0.0
C1903 C 0.07223 0.86664 0.92171 0.0
C1904 C 0.05479 0.8746 0.92413 0.0
C1905 C 0.00077 0.93514 0.98983 0.0
C1906 C 0.01333 0.94994 0.98452 0.0
C1907 C 0.99701 0.91972 0.97764 0.0
C1908 C 0.00576 0.91898 0.95999 0.0
C1909 C 0.0169 0.93466 0.95402 0.0
C1910 C 0.02064 0.95009 0.96624 0.0
C1911 C 0.00507 0.90099 0.94898 0.0
C1912 C 0.02211 0.89255 0.94519 0.0
C1913 C 0.98779 0.89111 0.94438 0.0
C1914 C 0.96951 0.89992 0.94714 0.0
C1915 C 0.96699 0.91829 0.94081 0.0
C1916 C 0.95043 0.92721 0.94484 0.0
C1917 C 0.93594 0.91769 0.95463 0.0
C1918 C 0.93806 0.89921 0.96047 0.0
C1919 C 0.95479 0.89034 0.95681 0.0
H1920 H 0.9231 0.92462 0.95777 0.0
H1921 H 0.0893 0.84343 0.9283 0.0
H1922 H 0.95412 0.24173 0.69053 0.0
H1923 H 0.92199 0.23985 0.70244 0.0
H1924 H 0.90249 0.26577 0.65203 0.0
H1925 H 0.93475 0.268 0.64011 0.0
H1926 H 0.88897 0.282 0.68194 0.0
H1927 H 0.89214 0.21919 0.65938 0.0
H1928 H 0.9043 0.18757 0.65438 0.0
H1929 H 0.89958 0.17699 0.71344 0.0
H1930 H 0.88761 0.20866 0.71885 0.0
H1931 H 0.79374 0.26595 0.6937 0.0
H1932 H 0.82513 0.26021 0.6826 0.0
H1933 H 0.84255 0.24783 0.73904 0.0
H1934 H 0.81037 0.25309 0.7504 0.0
H1935 H 0.85682 0.2238 0.70675 0.0
H1936 H 0.85297 0.28995 0.72675 0.0
H1937 H 0.83723 0.32014 0.72737 0.0
H1938 H 0.84019 0.32235 0.66715 0.0
H1939 H 0.85578 0.29207 0.66618 0.0
C1940 C 0.943 0.2471 0.682 0.0
C1941 C 0.94692 0.25515 0.66446 0.0
C1942 C 0.92464 0.24579 0.68872 0.0
C1943 C 0.90988 0.25237 0.67796 0.0
C1944 C 0.91374 0.26054 0.66049 0.0
C1945 C 0.93215 0.26195 0.65378 0.0
C1946 C 0.89067 0.25202 0.68568 0.0
C1947 C 0.88193 0.26922 0.68719 0.0
C1948 C 0.88156 0.23534 0.69265 0.0
C1949 C 0.8892 0.21643 0.68956 0.0
C1950 C 0.89392 0.21023 0.67135 0.0
C1951 C 0.90071 0.19226 0.66843 0.0
C1952 C 0.90277 0.1803 0.68359 0.0
C1953 C 0.89801 0.18628 0.70171 0.0
C1954 C 0.89121 0.20424 0.70471 0.0
C1955 C 0.80422 0.26205 0.70383 0.0
C1956 C 0.79993 0.26062 0.72302 0.0
C1957 C 0.82205 0.25858 0.69741 0.0
C1958 C 0.8361 0.254 0.71008 0.0
C1959 C 0.83176 0.25149 0.72915 0.0
C1960 C 0.81357 0.25465 0.73562 0.0
C1961 C 0.85554 0.25378 0.70325 0.0
C1962 C 0.86417 0.23652 0.70174 0.0
C1963 C 0.86442 0.27029 0.69577 0.0
C1964 C 0.8555 0.28874 0.6964 0.0
C1965 C 0.85022 0.29686 0.71365 0.0
C1966 C 0.84132 0.31398 0.71406 0.0
C1967 C 0.8377 0.32315 0.69731 0.0
C1968 C 0.84302 0.31524 0.68012 0.0
C1969 C 0.85193 0.29813 0.67963 0.0
H1970 H 0.83079 0.33639 0.69766 0.0
H1971 H 0.908 0.16639 0.6813 0.0
H1972 H 0.51777 0.19376 0.37933 0.0
H1973 H 0.51752 0.16238 0.39306 0.0
H1974 H 0.49354 0.1846 0.44395 0.0
H1975 H 0.49393 0.21601 0.43049 0.0
H1976 H 0.52438 0.1654 0.45058 0.0
H1977 H 0.46741 0.15674 0.41384 0.0
H1978 H 0.4482 0.15609 0.38484 0.0
H1979 H 0.48174 0.11317 0.36097 0.0
H1980 H 0.50134 0.11376 0.38974 0.0
H1981 H 0.48921 0.09224 0.50398 0.0
H1982 H 0.498 0.11871 0.48498 0.0
H1983 H 0.51122 0.08104 0.43891 0.0
H1984 H 0.49918 0.05405 0.45759 0.0
H1985 H 0.49165 0.10633 0.42603 0.0
H1986 H 0.5464 0.11396 0.46782 0.0
H1987 H 0.56084 0.11469 0.49953 0.0
H1988 H 0.52732 0.16073 0.51603 0.0
H1989 H 0.5126 0.16024 0.48458 0.0
C1990 C 0.51242 0.19196 0.39345 0.0
C1991 C 0.50611 0.20742 0.40395 0.0
C1992 C 0.51215 0.17399 0.40118 0.0
C1993 C 0.50548 0.17121 0.41946 0.0
C1994 C 0.49881 0.18652 0.42981 0.0
C1995 C 0.49914 0.20447 0.42214 0.0
C1996 C 0.50678 0.15277 0.42854 0.0
C1997 C 0.51726 0.15244 0.44523 0.0
C1998 C 0.49787 0.13586 0.42118 0.0
C1999 C 0.48605 0.13551 0.40386 0.0
C2000 C 0.47083 0.14731 0.40234 0.0
C2001 C 0.45983 0.14692 0.38595 0.0
C2002 C 0.4638 0.13466 0.37104 0.0
C2003 C 0.47872 0.1227 0.37251 0.0
C2004 C 0.48977 0.12306 0.38886 0.0
C2005 C 0.49474 0.0895 0.49007 0.0
C2006 C 0.49366 0.07121 0.48226 0.0
C2007 C 0.50004 0.10477 0.47915 0.0
C2008 C 0.50605 0.10212 0.46058 0.0
C2009 C 0.50682 0.08351 0.45327 0.0
C2010 C 0.50039 0.06806 0.46402 0.0
C2011 C 0.50898 0.11893 0.44851 0.0
C2012 C 0.49934 0.11907 0.43115 0.0
C2013 C 0.51842 0.13587 0.45539 0.0
C2014 C 0.5285 0.13712 0.47377 0.0
C2015 C 0.54224 0.12433 0.47816 0.0
C2016 C 0.55042 0.12467 0.49611 0.0
C2017 C 0.54503 0.13775 0.50974 0.0
C2018 C 0.53156 0.15066 0.50543 0.0
C2019 C 0.52338 0.15044 0.48752 0.0
H2020 H 0.55127 0.13787 0.52367 0.0
H2021 H 0.45527 0.13437 0.35836 0.0
H2022 H 0.54431 0.74027 0.17231 0.0
H2023 H 0.57652 0.73548 0.18209 0.0
H2024 H 0.59601 0.78498 0.1518 0.0
H2025 H 0.56366 0.78874 0.14055 0.0
H2026 H 0.61926 0.75869 0.14639 0.0
H2027 H 0.5911 0.78446 0.20181 0.0
H2028 H 0.56576 0.78617 0.22525 0.0
H2029 H 0.57553 0.72981 0.24253 0.0
H2030 H 0.60077 0.72766 0.21904 0.0
H2031 H 0.70666 0.76668 0.19868 0.0
H2032 H 0.67741 0.76957 0.181 0.0
H2033 H 0.65437 0.71796 0.20512 0.0
H2034 H 0.68336 0.71536 0.22324 0.0
H2035 H 0.63353 0.74717 0.21341 0.0
H2036 H 0.66205 0.72196 0.15749 0.0
H2037 H 0.68729 0.72086 0.1339 0.0
H2038 H 0.67736 0.77763 0.11804 0.0
H2039 H 0.6522 0.77916 0.14172 0.0
C2040 C 0.55544 0.75034 0.16808 0.0
C2041 C 0.55164 0.76513 0.15613 0.0
C2042 C 0.57384 0.74759 0.17364 0.0
C2043 C 0.58864 0.76017 0.16811 0.0
C2044 C 0.58478 0.77518 0.15632 0.0
C2045 C 0.56638 0.77748 0.15012 0.0
C2046 C 0.60809 0.75733 0.17452 0.0
C2047 C 0.62247 0.75647 0.16108 0.0
C2048 C 0.6122 0.75418 0.19366 0.0
C2049 C 0.59782 0.75589 0.20863 0.0
C2050 C 0.58789 0.77245 0.21065 0.0
C2051 C 0.5735 0.77348 0.22391 0.0
C2052 C 0.56903 0.75811 0.23536 0.0
C2053 C 0.57903 0.74172 0.23367 0.0
C2054 C 0.59341 0.7406 0.22042 0.0
C2055 C 0.6957 0.75548 0.19948 0.0
C2056 C 0.69711 0.74086 0.21236 0.0
C2057 C 0.67894 0.75721 0.18947 0.0
C2058 C 0.66366 0.74409 0.19196 0.0
C2059 C 0.66595 0.72832 0.20317 0.0
C2060 C 0.68255 0.72674 0.21335 0.0
C2061 C 0.64462 0.74815 0.18524 0.0
C2062 C 0.63035 0.74942 0.19871 0.0
C2063 C 0.64073 0.75189 0.16622 0.0
C2064 C 0.65534 0.75072 0.15148 0.0
C2065 C 0.66529 0.73423 0.14902 0.0
C2066 C 0.67958 0.73353 0.13563 0.0
C2067 C 0.68395 0.74918 0.12451 0.0
C2068 C 0.67396 0.76552 0.12667 0.0
C2069 C 0.65965 0.7663 0.14005 0.0
H2070 H 0.69507 0.74864 0.1142 0.0
H2071 H 0.55783 0.7589 0.24555 0.0
H2072 H 0.97927 0.19068 0.62626 0.0
H2073 H 0.98261 0.15825 0.61475 0.0
H2074 H 0.01389 0.17957 0.56703 0.0
H2075 H 0.00973 0.21185 0.57793 0.0
H2076 H 0.99142 0.15306 0.55594 0.0
H2077 H 0.03491 0.1608 0.60785 0.0
H2078 H 0.04524 0.16729 0.64062 0.0
H2079 H 0.00871 0.12126 0.65931 0.0
H2080 H -0.00203 0.11466 0.62667 0.0
H2081 H 0.03824 0.07539 0.52484 0.0
H2082 H 0.03497 0.10433 0.54336 0.0
H2083 H 0.99145 0.07632 0.5763 0.0
H2084 H 0.99444 0.0472 0.55757 0.0
H2085 H 0.0178 0.10448 0.59626 0.0
H2086 H 0.97533 0.09819 0.54153 0.0
H2087 H 0.96604 0.09469 0.50806 0.0
H2088 H 0.00532 0.14016 0.49391 0.0
H2089 H 0.01464 0.14424 0.52727 0.0
C2090 C 0.98657 0.18836 0.61315 0.0
C2091 C 0.99419 0.20366 0.6029 0.0
C2092 C 0.98868 0.16987 0.60674 0.0
C2093 C -0.00114 0.1665 0.59028 0.0
C2094 C 0.006 0.18185 0.5798 0.0
C2095 C 0.00352 0.20028 0.58596 0.0
C2096 C 0.00186 0.14706 0.58356 0.0
C2097 C 0.99741 0.14255 0.56475 0.0
C2098 C 0.00925 0.1332 0.59518 0.0
C2099 C 0.01545 0.13739 0.61485 0.0
C2100 C 0.02893 0.15219 0.61897 0.0
C2101 C 0.03489 0.15586 0.63752 0.0
C2102 C 0.02759 0.14473 0.65204 0.0
C2103 C 0.01432 0.1299 0.64805 0.0
C2104 C 0.00829 0.12618 0.62953 0.0
C2105 C 0.02847 0.07517 0.53649 0.0
C2106 C 0.01639 0.05919 0.53964 0.0
C2107 C 0.02654 0.09173 0.54694 0.0
C2108 C 0.01264 0.09245 0.56074 0.0
C2109 C 0.00213 0.07593 0.5655 0.0
C2110 C 0.00399 0.05929 0.55495 0.0
C2111 C 0.00784 0.11088 0.56862 0.0
C2112 C 0.0118 0.11509 0.58759 0.0
C2113 C 0.00051 0.12475 0.55704 0.0
C2114 C 0.9959 0.1213 0.53685 0.0
C2115 C 0.98222 0.10722 0.53124 0.0
C2116 C 0.97689 0.10518 0.51231 0.0
C2117 C 0.98526 0.11698 0.49887 0.0
C2118 C -0.00107 0.13094 0.50432 0.0
C2119 C 0.00419 0.13317 0.52323 0.0
H2120 H 0.98103 0.11539 0.48425 0.0
H2121 H 0.03226 0.14757 0.66639 0.0
H2122 H 0.55263 0.26076 0.31488 0.0
H2123 H 0.58465 0.25863 0.30294 0.0
H2124 H 0.60624 0.26018 0.35984 0.0
H2125 H 0.57423 0.26358 0.37175 0.0
H2126 H 0.63004 0.27854 0.33758 0.0
H2127 H 0.59621 0.21673 0.33316 0.0
H2128 H 0.5692 0.19562 0.32281 0.0
H2129 H 0.58031 0.20937 0.26526 0.0
H2130 H 0.60726 0.23066 0.27527 0.0
H2131 H 0.71688 0.2611 0.29858 0.0
H2132 H 0.69018 0.25211 0.31889 0.0
H2133 H 0.65463 0.24355 0.26963 0.0
H2134 H 0.68138 0.2511 0.2497 0.0
H2135 H 0.63936 0.22447 0.29385 0.0
H2136 H 0.66576 0.28963 0.29526 0.0
H2137 H 0.68988 0.31527 0.30211 0.0
H2138 H 0.69047 0.30012 0.36027 0.0
H2139 H 0.66649 0.27427 0.35369 0.0
C2140 C 0.56429 0.26106 0.32479 0.0
C2141 C 0.56105 0.26223 0.3442 0.0
C2142 C 0.58254 0.2596 0.31799 0.0
C2143 C 0.59778 0.25845 0.33052 0.0
C2144 C 0.59468 0.26077 0.34991 0.0
C2145 C 0.57643 0.2628 0.3567 0.0
C2146 C 0.61675 0.2542 0.32339 0.0
C2147 C 0.63217 0.26652 0.32828 0.0
C2148 C 0.61949 0.23871 0.31099 0.0
C2149 C 0.60375 0.22527 0.30498 0.0
C2150 C 0.59291 0.21521 0.31831 0.0
C2151 C 0.57759 0.20324 0.31249 0.0
C2152 C 0.57304 0.20115 0.29339 0.0
C2153 C 0.58386 0.21096 0.28004 0.0
C2154 C 0.59919 0.22293 0.28578 0.0
C2155 C 0.70363 0.25605 0.29219 0.0
C2156 C 0.70104 0.25681 0.27265 0.0
C2157 C 0.68823 0.25136 0.30378 0.0
C2158 C 0.67008 0.24809 0.29589 0.0
C2159 C 0.6683 0.24626 0.27624 0.0
C2160 C 0.6837 0.25044 0.26475 0.0
C2161 C 0.65263 0.2493 0.30734 0.0
C2162 C 0.63741 0.2363 0.30344 0.0
C2163 C 0.64991 0.26461 0.32008 0.0
C2164 C 0.66458 0.27987 0.32394 0.0
C2165 C 0.67116 0.29169 0.30947 0.0
C2166 C 0.68478 0.30627 0.31331 0.0
C2167 C 0.69176 0.30928 0.3316 0.0
C2168 C 0.68511 0.29773 0.3461 0.0
C2169 C 0.67153 0.28311 0.34232 0.0
H2170 H 0.70227 0.3206 0.33455 0.0
H2171 H 0.56114 0.19193 0.28893 0.0
H2172 H 0.47245 0.80777 0.08224 0.0
H2173 H 0.47425 0.83958 0.06866 0.0
H2174 H 0.53052 0.84941 0.0912 0.0
H2175 H 0.52896 0.8176 0.10417 0.0
H2176 H 0.50215 0.87958 0.09677 0.0
H2177 H 0.53135 0.83946 0.05026 0.0
H2178 H 0.53155 0.81123 0.02941 0.0
H2179 H 0.48202 0.82844 0.00099 0.0
H2180 H 0.48137 0.85662 0.0219 0.0
H2181 H 0.53156 0.96105 0.04295 0.0
H2182 H 0.53309 0.92927 0.05605 0.0
H2183 H 0.4784 0.91363 0.03209 0.0
H2184 H 0.47656 0.94551 0.01972 0.0
H2185 H 0.5075 0.88625 0.02764 0.0
H2186 H 0.47535 0.92331 0.07231 0.0
H2187 H 0.46693 0.94685 0.09633 0.0
H2188 H 0.51484 0.93379 0.1297 0.0
H2189 H 0.5238 0.9104 0.10566 0.0
C2190 C 0.48505 0.81689 0.08433 0.0
C2191 C 0.50061 0.81056 0.09404 0.0
C2192 C 0.4861 0.83486 0.0766 0.0
C2193 C 0.50258 0.84656 0.07891 0.0
C2194 C 0.51778 0.84045 0.0893 0.0
C2195 C 0.51688 0.82241 0.09662 0.0
C2196 C 0.50423 0.86508 0.07013 0.0
C2197 C 0.50374 0.8812 0.08171 0.0
C2198 C 0.50564 0.86679 0.05047 0.0
C2199 C 0.50621 0.85002 0.03774 0.0
C2200 C 0.52041 0.83713 0.03967 0.0
C2201 C 0.52062 0.82116 0.02783 0.0
C2202 C 0.50678 0.81802 0.01392 0.0
C2203 C 0.49273 0.83088 0.01179 0.0
C2204 C 0.49244 0.84685 0.02361 0.0
C2205 C 0.52023 0.95053 0.04 0.0
C2206 C 0.50409 0.95536 0.03013 0.0
C2207 C 0.52096 0.93261 0.04769 0.0
C2208 C 0.5057 0.9194 0.04522 0.0
C2209 C 0.49022 0.92379 0.03417 0.0
C2210 C 0.48929 0.9418 0.0269 0.0
C2211 C 0.50558 0.90099 0.05431 0.0
C2212 C 0.50635 0.8848 0.04276 0.0
C2213 C 0.50399 0.89923 0.07404 0.0
C2214 C 0.50048 0.91537 0.08694 0.0
C2215 C 0.48444 0.92586 0.08446 0.0
C2216 C 0.47944 0.93902 0.0982 0.0
C2217 C 0.49028 0.94172 0.11458 0.0
C2218 C 0.50642 0.93162 0.11704 0.0
C2219 C 0.51152 0.91849 0.10331 0.0
H2220 H 0.4862 0.95169 0.12534 0.0
H2221 H 0.50696 0.80564 0.00476 0.0
H2222 H 0.94239 0.78991 0.84334 0.0
H2223 H 0.91082 0.78862 0.82934 0.0
H2224 H 0.90806 0.72781 0.83227 0.0
H2225 H 0.93957 0.72906 0.847 0.0
H2226 H 0.90278 0.74592 0.79463 0.0
H2227 H 0.88074 0.74579 0.8582 0.0
H2228 H 0.87722 0.75662 0.89107 0.0
H2229 H 0.85717 0.80916 0.8723 0.0
H2230 H 0.86099 0.79884 0.83928 0.0
H2231 H 0.808 0.72474 0.76645 0.0
H2232 H 0.84004 0.72789 0.77933 0.0
H2233 H 0.83402 0.78761 0.78905 0.0
H2234 H 0.80177 0.7843 0.77634 0.0
H2235 H 0.84406 0.77075 0.82031 0.0
H2236 H 0.86622 0.77227 0.7574 0.0
H2237 H 0.86887 0.76223 0.72418 0.0
H2238 H 0.88846 0.70884 0.74109 0.0
H2239 H 0.88571 0.71846 0.77445 0.0
C2240 C 0.93494 0.77628 0.84121 0.0
C2241 C 0.94338 0.75956 0.84603 0.0
C2242 C 0.91691 0.77559 0.83336 0.0
C2243 C 0.90721 0.75815 0.82985 0.0
C2244 C 0.9154 0.7414 0.83501 0.0
C2245 C 0.9333 0.74212 0.84337 0.0
C2246 C 0.88943 0.7575 0.81904 0.0
C2247 C 0.88981 0.75105 0.80029 0.0
C2248 C 0.87288 0.76502 0.82632 0.0
C2249 C 0.87146 0.77163 0.84621 0.0
C2250 C 0.87594 0.7598 0.86104 0.0
C2251 C 0.8738 0.76582 0.87972 0.0
C2252 C 0.86706 0.7836 0.88377 0.0
C2253 C 0.86247 0.79542 0.86914 0.0
C2254 C 0.86464 0.7895 0.85044 0.0
C2255 C 0.81385 0.73861 0.77074 0.0
C2256 C 0.80279 0.75434 0.77021 0.0
C2257 C 0.8321 0.74043 0.77808 0.0
C2258 C 0.83944 0.75801 0.78507 0.0
C2259 C 0.82863 0.77395 0.78366 0.0
C2260 C 0.81036 0.77212 0.77626 0.0
C2261 C 0.85734 0.75911 0.79584 0.0
C2262 C 0.85703 0.7657 0.81458 0.0
C2263 C 0.87404 0.75196 0.78849 0.0
C2264 C 0.87559 0.74604 0.76844 0.0
C2265 C 0.87093 0.75832 0.75405 0.0
C2266 C 0.87249 0.75272 0.73519 0.0
C2267 C 0.87879 0.73489 0.73053 0.0
C2268 C 0.88357 0.72264 0.74472 0.0
C2269 C 0.88204 0.72817 0.76361 0.0
H2270 H 0.87999 0.73059 0.71591 0.0
H2271 H 0.86531 0.78819 0.89823 0.0
H2272 H 0.91291 0.0338 0.81511 0.0
H2273 H 0.92992 0.03278 0.84535 0.0
H2274 H 0.93587 0.97293 0.83698 0.0
H2275 H 0.91946 0.97395 0.80685 0.0
H2276 H 0.92448 0.98393 0.87363 0.0
H2277 H 0.97122 -0.00082 0.8269 0.0
H2278 H 0.9841 0.01822 0.80086 0.0
H2279 H 0.98799 0.06752 0.83709 0.0
H2280 H 0.97477 0.04881 0.86328 0.0
H2281 H 0.98818 0.97651 0.95119 0.0
H2282 H 0.97652 0.97183 0.91863 0.0
H2283 H 0.97842 0.03238 0.91204 0.0
H2284 H 0.99044 0.03691 0.94387 0.0
H2285 H 0.98702 0.01785 0.88096 0.0
H2286 H 0.94049 0.00188 0.92841 0.0
H2287 H 0.92173 0.98453 0.95186 0.0
H2288 H 0.91301 0.93735 0.91371 0.0
H2289 H 0.93267 0.95389 0.89013 0.0
C2290 C 0.91782 0.02048 0.81984 0.0
C2291 C 0.91521 0.00402 0.80861 0.0
C2292 C 0.9275 0.0199 0.83701 0.0
C2293 C 0.93425 0.00279 0.84319 0.0
C2294 C 0.93085 0.98625 0.83235 0.0
C2295 C 0.9216 0.9869 0.81512 0.0
C2296 C 0.94552 0.00198 0.86061 0.0
C2297 C 0.93831 0.99106 0.87532 0.0
C2298 C 0.96338 0.01149 0.86253 0.0
C2299 C 0.97187 0.02264 0.847 0.0
C2300 C 0.97471 0.01411 0.82928 0.0
C2301 C 0.98208 0.02483 0.8145 0.0
C2302 C 0.98683 0.04408 0.81731 0.0
C2303 C 0.98429 0.05261 0.83493 0.0
C2304 C 0.97687 0.04195 0.84976 0.0
C2305 C 0.98679 0.9887 0.94244 0.0
C2306 C 0.99009 0.00708 0.94998 0.0
C2307 C 0.97986 0.98605 0.92397 0.0
C2308 C 0.9761 0.00178 0.913 0.0
C2309 C 0.98105 0.01999 0.92014 0.0
C2310 C 0.98796 0.0226 0.93838 0.0
C2311 C 0.9659 -4e-05 0.89466 0.0
C2312 C 0.97334 0.01037 0.87949 0.0
C2313 C 0.94814 0.98989 0.8924 0.0
C2314 C 0.93847 0.97906 0.90756 0.0
C2315 C 0.93513 0.98758 0.92514 0.0
C2316 C 0.92422 0.97791 0.93848 0.0
C2317 C 0.91607 0.95994 0.93435 0.0
C2318 C 0.91925 0.95132 0.91692 0.0
C2319 C 0.93051 0.96074 0.90364 0.0
H2320 H 0.90737 0.95269 0.94467 0.0
H2321 H 0.99252 0.05237 0.80583 0.0
H2322 H 0.75506 0.18348 0.54333 0.0
H2323 H 0.74947 0.19645 0.57463 0.0
H2324 H 0.75615 0.14166 0.59845 0.0
H2325 H 0.76115 0.12835 0.56694 0.0
H2326 H 0.72547 0.15812 0.61253 0.0
H2327 H 0.79089 0.17663 0.60309 0.0
H2328 H 0.81728 0.19036 0.58457 0.0
H2329 H 0.7919 0.24399 0.58517 0.0
H2330 H 0.76521 0.23051 0.60348 0.0
H2331 H 0.74064 0.20417 0.70655 0.0
H2332 H 0.74309 0.18409 0.67816 0.0
H2333 H 0.72307 0.22873 0.64433 0.0
H2334 H 0.71995 0.24851 0.67233 0.0
H2335 H 0.76216 0.21495 0.63726 0.0
H2336 H 0.69629 0.19694 0.64346 0.0
H2337 H 0.66839 0.18412 0.66032 0.0
H2338 H 0.6935 0.1306 0.6647 0.0
H2339 H 0.72178 0.14327 0.64818 0.0
C2340 C 0.75569 0.17423 0.55524 0.0
C2341 C 0.75868 0.15492 0.55271 0.0
C2342 C 0.75242 0.18166 0.57312 0.0
C2343 C 0.75257 0.17003 0.58886 0.0
C2344 C 0.75596 0.15083 0.58645 0.0
C2345 C 0.75898 0.14331 0.5685 0.0
C2346 C 0.74895 0.17801 0.60776 0.0
C2347 C 0.73373 0.1703 0.61815 0.0
C2348 C 0.75951 0.19414 0.61482 0.0
C2349 C 0.77602 0.20253 0.60463 0.0
C2350 C 0.79093 0.19135 0.59928 0.0
C2351 C 0.80593 0.19908 0.58879 0.0
C2352 C 0.80626 0.21803 0.58368 0.0
C2353 C 0.79164 0.22932 0.58915 0.0
C2354 C 0.77659 0.22165 0.59962 0.0
C2355 C 0.73605 0.20939 0.69317 0.0
C2356 C 0.73037 0.22801 0.69163 0.0
C2357 C 0.73759 0.19799 0.67699 0.0
C2358 C 0.73352 0.20517 0.65927 0.0
C2359 C 0.7264 0.22309 0.65793 0.0
C2360 C 0.72461 0.23432 0.67398 0.0
C2361 C 0.73866 0.19512 0.6419 0.0
C2362 C 0.75416 0.20252 0.6318 0.0
C2363 C 0.7283 0.17885 0.63508 0.0
C2364 C 0.71129 0.17115 0.64488 0.0
C2365 C 0.69599 0.18252 0.64824 0.0
C2366 C 0.68007 0.17527 0.65769 0.0
C2367 C 0.67921 0.15658 0.66366 0.0
C2368 C 0.69423 0.1451 0.66012 0.0
C2369 C 0.7102 0.15231 0.65072 0.0
H2370 H 0.66687 0.15098 0.67097 0.0
H2371 H 0.81785 0.22397 0.5755 0.0
H2372 H 0.56056 0.99481 0.29849 0.0
H2373 H 0.54679 0.99645 0.32989 0.0
H2374 H 0.60126 0.01472 0.35306 0.0
H2375 H 0.61523 0.01155 0.32185 0.0
H2376 H 0.58492 0.99502 0.37725 0.0
H2377 H 0.56551 0.0467 0.34213 0.0
H2378 H 0.55228 0.06318 0.31528 0.0
H2379 H 0.49865 0.03362 0.32329 0.0
H2380 H 0.51163 0.01682 0.35008 0.0
H2381 H 0.5485 0.02962 0.46075 0.0
H2382 H 0.56101 0.03181 0.42896 0.0
H2383 H 0.51136 0.00093 0.40719 0.0
H2384 H 0.49857 -0.00111 0.43926 0.0
H2385 H 0.52606 0.02936 0.38296 0.0
H2386 H 0.55012 0.97725 0.41953 0.0
H2387 H 0.56559 0.96562 0.44788 0.0
H2388 H 0.61394 0.00313 0.4383 0.0
H2389 H 0.59868 0.01506 0.40997 0.0
C2390 C 0.56959 -0.00133 0.31043 0.0
C2391 C 0.58887 0.00298 0.30794 0.0
C2392 C 0.56172 -0.0001 0.32829 0.0
C2393 C 0.57284 0.00637 0.34377 0.0
C2394 C 0.59234 0.0098 0.34136 0.0
C2395 C 0.60033 0.00792 0.32358 0.0
C2396 C 0.56405 0.00999 0.36228 0.0
C2397 C 0.57218 0.00273 0.37843 0.0
C2398 C 0.54751 0.02023 0.36401 0.0
C2399 C 0.53958 0.03039 0.34801 0.0
C2400 C 0.55092 0.04364 0.3381 0.0
C2401 C 0.54347 0.05305 0.3229 0.0
C2402 C 0.52465 0.04942 0.31756 0.0
C2403 C 0.51323 0.03641 0.32744 0.0
C2404 C 0.52062 0.02696 0.34265 0.0
C2405 C 0.54004 0.02376 0.44908 0.0
C2406 C 0.52274 0.01386 0.45226 0.0
C2407 C 0.54717 0.02507 0.43099 0.0
C2408 C 0.53728 0.01623 0.41586 0.0
C2409 C 0.51922 0.00774 0.41878 0.0
C2410 C 0.51192 0.00659 0.43699 0.0
C2411 C 0.54673 0.01403 0.39758 0.0
C2412 C 0.53878 0.02166 0.38158 0.0
C2413 C 0.56384 0.00477 0.39608 0.0
C2414 C 0.57327 0.99703 0.41267 0.0
C2415 C 0.56406 0.98297 0.42347 0.0
C2416 C 0.57278 0.97635 0.43954 0.0
C2417 C 0.59074 0.98362 0.44488 0.0
C2418 C 0.60005 0.99748 0.43412 0.0
C2419 C 0.5914 0.00414 0.41804 0.0
H2420 H 0.59744 0.97851 0.45735 0.0
H2421 H 0.5189 0.0567 0.30578 0.0
H2422 H 0.76256 0.83165 0.04349 0.0
H2423 H 0.76174 0.81822 0.07493 0.0
H2424 H 0.72612 0.86204 0.09407 0.0
H2425 H 0.72755 0.876 0.06287 0.0
H2426 H 0.75414 0.85354 0.12035 0.0
H2427 H 0.7067 0.81792 0.07971 0.0
H2428 H 0.70064 0.80031 0.04978 0.0
H2429 H 0.74241 0.7614 0.06426 0.0
H2430 H 0.74878 0.77885 0.09418 0.0
H2431 H 0.74392 0.80607 0.20534 0.0
H2432 H 0.73219 0.82209 0.17759 0.0
H2433 H 0.74885 0.7754 0.14243 0.0
H2434 H 0.75839 0.75902 0.16995 0.0
H2435 H 0.72539 0.78843 0.12457 0.0
H2436 H 0.77872 0.8198 0.15759 0.0
H2437 H 0.79562 0.83694 0.1837 0.0
H2438 H 0.7565 0.88097 0.18145 0.0
H2439 H 0.73929 0.86399 0.15543 0.0
C2440 C 0.75443 0.8383 0.05437 0.0
C2441 C 0.74477 0.85459 0.05068 0.0
C2442 C 0.75408 0.83073 0.07233 0.0
C2443 C 0.74356 0.83896 0.0867 0.0
C2444 C 0.73425 0.85546 0.08315 0.0
C2445 C 0.73492 0.86327 0.0653 0.0
C2446 C 0.74127 0.82969 0.10506 0.0
C2447 C 0.74768 0.83938 0.12144 0.0
C2448 C 0.73337 0.81106 0.10627 0.0
C2449 C 0.72808 0.79959 0.08921 0.0
C2450 C 0.71441 0.80548 0.07658 0.0
C2451 C 0.711 0.79558 0.05958 0.0
C2452 C 0.7211 0.77972 0.05514 0.0
C2453 C 0.73453 0.77363 0.06775 0.0
C2454 C 0.73798 0.78346 0.08476 0.0
C2455 C 0.74386 0.79888 0.19175 0.0
C2456 C 0.75204 0.78141 0.18961 0.0
C2457 C 0.73766 0.80821 0.17581 0.0
C2458 C 0.74043 0.80046 0.15766 0.0
C2459 C 0.74656 0.78198 0.15605 0.0
C2460 C 0.752 0.77248 0.17188 0.0
C2461 C 0.73918 0.81178 0.14025 0.0
C2462 C 0.73177 0.80265 0.12385 0.0
C2463 C 0.74744 0.83045 0.1389 0.0
C2464 C 0.75754 0.84048 0.15479 0.0
C2465 C 0.77364 0.83306 0.16278 0.0
C2466 C 0.78329 0.84276 0.17754 0.0
C2467 C 0.77709 0.85999 0.18429 0.0
C2468 C 0.76125 0.86759 0.17626 0.0
C2469 C 0.75153 0.85793 0.16152 0.0
H2470 H 0.78459 0.8675 0.19569 0.0
H2471 H 0.71855 0.77218 0.04191 0.0
H2472 H 0.92827 5e-05 0.71367 0.0
H2473 H 0.94262 -0.00132 0.68252 0.0
H2474 H 0.89351 0.02224 0.6583 0.0
H2475 H 0.87887 0.02328 0.68928 0.0
H2476 H 0.90767 0.9906 0.63788 0.0
H2477 H 0.93371 0.05091 0.66974 0.0
H2478 H 0.95148 0.065 0.69699 0.0
H2479 H 0.99712 0.02927 0.68539 0.0
H2480 H 0.97959 0.01497 0.65816 0.0
H2481 H 0.94434 0.00244 0.54852 0.0
H2482 H 0.9281 0.01175 0.57727 0.0
H2483 H 0.98154 0.01474 0.60694 0.0
H2484 H -0.00249 0.00779 0.57802 0.0
H2485 H 0.96375 0.03312 0.62568 0.0
H2486 H 0.94698 0.97269 0.59797 0.0
H2487 H 0.93372 0.94807 0.57594 0.0
H2488 H 0.87833 0.96798 0.5842 0.0
H2489 H 0.89129 0.99297 0.60597 0.0
C2490 C 0.9206 0.00508 0.70173 0.0
C2491 C 0.90255 0.01199 0.7039 0.0
C2492 C 0.92876 0.00418 0.68397 0.0
C2493 C 0.91913 0.01052 0.66824 0.0
C2494 C 0.90109 0.01727 0.67034 0.0
C2495 C 0.89284 0.01799 0.68803 0.0
C2496 C 0.92808 0.01099 0.64962 0.0
C2497 C 0.91986 -6e-05 0.63493 0.0
C2498 C 0.94455 0.02236 0.64634 0.0
C2499 C 0.95541 0.03199 0.66191 0.0
C2500 C 0.94759 0.04619 0.67295 0.0
C2501 C 0.95759 0.05416 0.68841 0.0
C2502 C 0.97543 0.04806 0.6929 0.0
C2503 C 0.98335 0.03404 0.68187 0.0
C2504 C 0.97342 0.02606 0.6664 0.0
C2505 C 0.95259 0.00652 0.56095 0.0
C2506 C 0.97209 0.00441 0.56128 0.0
C2507 C 0.94329 0.01126 0.57754 0.0
C2508 C 0.95335 0.01294 0.59467 0.0
C2509 C 0.97317 0.01336 0.59418 0.0
C2510 C 0.98244 0.00953 0.57751 0.0
C2511 C 0.94366 0.01237 0.6132 0.0
C2512 C 0.9516 0.02358 0.6281 0.0
C2513 C 0.92789 -0.00027 0.61695 0.0
C2514 C 0.92022 0.98509 0.60324 0.0
C2515 C 0.93202 0.97204 0.59486 0.0
C2516 C 0.92454 0.95797 0.58245 0.0
C2517 C 0.90522 0.95655 0.57857 0.0
C2518 C 0.89332 0.96916 0.58712 0.0
C2519 C 0.90074 0.98333 0.59944 0.0
H2520 H 0.89945 0.94561 0.56902 0.0
H2521 H 0.9831 0.05417 0.70493 0.0
H2522 H 0.77003 0.19372 0.45465 0.0
H2523 H 0.76951 0.20641 0.42295 0.0
H2524 H 0.74305 0.15375 0.40194 0.0
H2525 H 0.74504 0.1406 0.43347 0.0
H2526 H 0.76423 0.16627 0.37648 0.0
H2527 H 0.71716 0.1944 0.4122 0.0
H2528 H 0.70274 0.21074 0.43899 0.0
H2529 H 0.7394 0.25991 0.4302 0.0
H2530 H 0.7542 0.24379 0.40351 0.0
H2531 H 0.73486 0.21825 0.29553 0.0
H2532 H 0.72998 0.20381 0.32633 0.0
H2533 H 0.78002 0.23445 0.34758 0.0
H2534 H 0.78542 0.24823 0.31646 0.0
H2535 H 0.74137 0.23095 0.37118 0.0
H2536 H 0.78943 0.1971 0.33532 0.0
H2537 H 0.79924 0.17911 0.30735 0.0
H2538 H 0.75332 0.13816 0.31521 0.0
H2539 H 0.74302 0.15615 0.34305 0.0
C2540 C 0.76449 0.18481 0.44313 0.0
C2541 C 0.75759 0.16628 0.44629 0.0
C2542 C 0.76394 0.19209 0.4251 0.0
C2543 C 0.75559 0.18127 0.41017 0.0
C2544 C 0.74942 0.16242 0.41323 0.0
C2545 C 0.75059 0.15491 0.43118 0.0
C2546 C 0.75305 0.18989 0.39157 0.0
C2547 C 0.75895 0.18029 0.37536 0.0
C2548 C 0.74576 0.20803 0.3899 0.0
C2549 C 0.73687 0.21783 0.40593 0.0
C2550 C 0.72222 0.20866 0.41605 0.0
C2551 C 0.71397 0.21789 0.43121 0.0
C2552 C 0.72017 0.23634 0.43631 0.0
C2553 C 0.73461 0.24562 0.42624 0.0
C2554 C 0.74292 0.23645 0.41107 0.0
C2555 C 0.74447 0.22227 0.307 0.0
C2556 C 0.76037 0.23442 0.30397 0.0
C2557 C 0.74175 0.21395 0.32442 0.0
C2558 C 0.75474 0.21804 0.33899 0.0
C2559 C 0.76992 0.23121 0.33635 0.0
C2560 C 0.77293 0.23913 0.31875 0.0
C2561 C 0.75335 0.20767 0.35661 0.0
C2562 C 0.74646 0.21687 0.37249 0.0
C2563 C 0.75902 0.18892 0.35781 0.0
C2564 C 0.76528 0.17815 0.34109 0.0
C2565 C 0.78127 0.18442 0.33094 0.0
C2566 C 0.78695 0.17418 0.31514 0.0
C2567 C 0.77687 0.15754 0.30946 0.0
C2568 C 0.76109 0.15108 0.31959 0.0
C2569 C 0.75532 0.1613 0.33538 0.0
H2570 H 0.78132 0.14963 0.29725 0.0
H2571 H 0.71377 0.24347 0.44806 0.0
H2572 H 0.63409 0.01041 0.19022 0.0
H2573 H 0.6229 0.01664 0.15857 0.0
H2574 H 0.56538 0.00889 0.17724 0.0
H2575 H 0.57639 0.00259 0.20897 0.0
H2576 H 0.57137 0.99112 0.14368 0.0
H2577 H 0.5854 0.05241 0.17341 0.0
H2578 H 0.6052 0.07782 0.18902 0.0
H2579 H 0.64238 0.07953 0.14162 0.0
H2580 H 0.62292 0.05393 0.12583 0.0
H2581 H 0.51316 0.03871 0.08767 0.0
H2582 H 0.53599 0.04045 0.11344 0.0
H2583 H 0.57953 0.02394 0.07551 0.0
H2584 H 0.55687 0.02235 0.04946 0.0
H2585 H 0.58534 0.05387 0.11542 0.0
H2586 H 0.57292 0.98613 0.08988 0.0
H2587 H 0.54985 0.96405 0.0736 0.0
H2588 H 0.50729 0.97884 0.1131 0.0
H2589 H 0.5303 0.00046 0.12988 0.0
C2590 C 0.61905 0.0098 0.18756 0.0
C2591 C 0.60608 0.0061 0.2021 0.0
C2592 C 0.61273 0.0135 0.16951 0.0
C2593 C 0.59338 0.01349 0.16576 0.0
C2594 C 0.5804 0.00902 0.18 0.0
C2595 C 0.5867 0.00538 0.19807 0.0
C2596 C 0.58649 0.01824 0.14701 0.0
C2597 C 0.57465 0.00477 0.13747 0.0
C2598 C 0.5909 0.03601 0.13884 0.0
C2599 C 0.60286 0.05105 0.14856 0.0
C2600 C 0.59793 0.05802 0.16642 0.0
C2601 C 0.60906 0.07251 0.17527 0.0
C2602 C 0.62508 0.08023 0.16635 0.0
C2603 C 0.63 0.07349 0.14854 0.0
C2604 C 0.61893 0.059 0.13964 0.0
C2605 C 0.52773 0.03611 0.08464 0.0
C2606 C 0.53316 0.02996 0.06668 0.0
C2607 C 0.54077 0.03732 0.09932 0.0
C2608 C 0.5593 0.03229 0.09622 0.0
C2609 C 0.56528 0.02806 0.07798 0.0
C2610 C 0.55226 0.02702 0.0632 0.0
C2611 C 0.57039 0.02678 0.11242 0.0
C2612 C 0.58279 0.04004 0.12145 0.0
C2613 C 0.56661 0.00886 0.12024 0.0
C2614 C 0.55327 0.99475 0.11112 0.0
C2615 C 0.55869 0.98441 0.09519 0.0
C2616 C 0.54564 0.97198 0.08589 0.0
C2617 C 0.52711 0.96996 0.09232 0.0
C2618 C 0.52167 0.9802 0.10822 0.0
C2619 C 0.53474 0.99244 0.11771 0.0
H2620 H 0.51696 0.96053 0.08494 0.0
H2621 H 0.63364 0.09148 0.17321 0.0
H2622 H 0.75859 0.82205 0.94645 0.0
H2623 H 0.75796 0.81383 0.91296 0.0
H2624 H 0.74398 0.8707 0.90013 0.0
H2625 H 0.7437 0.87871 0.93379 0.0
H2626 H 0.72365 0.84745 0.87946 0.0
H2627 H 0.79022 0.85267 0.89299 0.0
H2628 H 0.81974 0.84634 0.90957 0.0
H2629 H 0.8117 0.78725 0.89547 0.0
H2630 H 0.78199 0.79314 0.87909 0.0
H2631 H 0.73851 0.80997 0.78181 0.0
H2632 H 0.74341 0.83189 0.80904 0.0
H2633 H 0.73998 0.78476 0.84646 0.0
H2634 H 0.73385 0.76332 0.82026 0.0
H2635 H 0.77419 0.81167 0.84995 0.0
H2636 H 0.70496 0.80467 0.84862 0.0
H2637 H 0.67449 0.80737 0.83238 0.0
H2638 H 0.68766 0.86647 0.82401 0.0
H2639 H 0.71839 0.86398 0.83998 0.0
C2640 C 0.75528 0.83277 0.93649 0.0
C2641 C 0.75115 0.85101 0.94272 0.0
C2642 C 0.75518 0.82814 0.9173 0.0
C2643 C 0.75149 0.8418 0.9039 0.0
C2644 C 0.74704 0.85996 0.91015 0.0
C2645 C 0.74678 0.86449 0.92939 0.0
C2646 C 0.75126 0.83677 0.88347 0.0
C2647 C 0.73502 0.84014 0.87292 0.0
C2648 C 0.76593 0.82696 0.87484 0.0
C2649 C 0.7838 0.82338 0.88483 0.0
C2650 C 0.79467 0.83831 0.89353 0.0
C2651 C 0.81145 0.83479 0.90288 0.0
C2652 C 0.81758 0.81641 0.90357 0.0
C2653 C 0.80694 0.80149 0.89492 0.0
C2654 C 0.79014 0.80492 0.88557 0.0
C2655 C 0.73847 0.80442 0.79589 0.0
C2656 C 0.73568 0.78488 0.79874 0.0
C2657 C 0.74154 0.81689 0.81138 0.0
C2658 C 0.7426 0.8098 0.82967 0.0
C2659 C 0.7395 0.79046 0.83244 0.0
C2660 C 0.73579 0.77823 0.81729 0.0
C2661 C 0.74651 0.82195 0.8465 0.0
C2662 C 0.76335 0.8198 0.8564 0.0
C2663 C 0.73237 0.83252 0.85469 0.0
C2664 C 0.71396 0.83412 0.84528 0.0
C2665 C 0.70139 0.8182 0.84318 0.0
C2666 C 0.68409 0.81968 0.83405 0.0
C2667 C 0.67916 0.83707 0.82712 0.0
C2668 C 0.69152 0.853 0.82935 0.0
C2669 C 0.70888 0.85157 0.83843 0.0
H2670 H 0.66575 0.83821 0.82007 0.0
H2671 H 0.83059 0.81372 0.91079 0.0
H2672 H 0.81938 0.88125 0.0006 0.0
H2673 H 0.85114 0.89463 0.00711 0.0
H2674 H 0.82983 0.95045 0.01076 0.0
H2675 H 0.79798 0.9372 0.00411 0.0
H2676 H 0.86035 0.952 0.99213 0.0
H2677 H 0.84127 0.92842 0.04942 0.0
H2678 H 0.82899 0.90741 0.07416 0.0
H2679 H 0.87544 0.87185 0.0662 0.0
H2680 H 0.88783 0.89246 0.04105 0.0
H2681 H 0.93603 -3e-05 0.03886 0.0
H2682 H 0.90645 0.98093 0.04003 0.0
H2683 H 0.93254 0.93496 0.01149 0.0
H2684 H 0.96239 0.95409 0.01019 0.0
H2685 H 0.90039 0.92762 0.04254 0.0
H2686 H 0.91956 0.96954 0.98982 0.0
H2687 H 0.92703 0.00216 0.98008 0.0
H2688 H 0.87025 0.0164 0.99137 0.0
H2689 H 0.8632 0.98487 0.00402 0.0
C2690 C 0.82144 0.89642 0.00259 0.0
C2691 C 0.80612 0.9082 0.00183 0.0
C2692 C 0.83961 0.904 0.00649 0.0
C2693 C 0.84283 0.92349 0.00964 0.0
C2694 C 0.82766 0.93534 0.00839 0.0
C2695 C 0.80945 0.92777 0.00457 0.0
C2696 C 0.86205 0.93162 0.01396 0.0
C2697 C 0.86905 0.94677 0.00325 0.0
C2698 C 0.8732 0.92499 0.02876 0.0
C2699 C 0.86528 0.91179 0.04302 0.0
C2700 C 0.84868 0.91591 0.05263 0.0
C2701 C 0.84174 0.90412 0.06682 0.0
C2702 C 0.85137 0.88825 0.07168 0.0
C2703 C 0.86794 0.8841 0.06233 0.0
C2704 C 0.87492 0.89582 0.04808 0.0
C2705 C 0.93567 0.98555 0.03343 0.0
C2706 C 0.9513 0.9786 0.02401 0.0
C2707 C 0.91878 0.9747 0.03419 0.0
C2708 C 0.91729 0.95683 0.02542 0.0
C2709 C 0.9335 0.94885 0.0182 0.0
C2710 C 0.95052 0.95975 0.01747 0.0
C2711 C 0.89846 0.94813 0.02086 0.0
C2712 C 0.89168 0.9327 0.03134 0.0
C2713 C 0.88664 0.95594 0.0072 0.0
C2714 C 0.891 0.97468 -0.00153 0.0
C2715 C 0.90881 0.97971 0.99095 0.0
C2716 C 0.91302 -0.00185 0.985 0.0
C2717 C 0.8991 0.0113 0.98496 0.0
C2718 C 0.88107 0.00622 0.99141 0.0
C2719 C 0.8771 0.98816 -0.00162 0.0
H2720 H 0.90229 0.02542 0.97992 0.0
H2721 H 0.84604 0.8792 0.08275 0.0
H2722 H 0.29998 0.57441 0.02466 0.0
H2723 H 0.33111 0.56198 0.02771 0.0
H2724 H 0.35372 0.60413 0.98982 0.0
H2725 H 0.32246 0.61672 0.98661 0.0
H2726 H 0.3624 0.56868 0.97966 0.0
H2727 H 0.36753 0.60767 0.03547 0.0
H2728 H 0.35819 0.62103 0.06611 0.0
H2729 H 0.3553 0.56554 0.08946 0.0
H2730 H 0.36449 0.55185 0.05889 0.0
H2731 H 0.45879 0.56146 0.99138 0.0
H2732 H 0.42669 0.57135 0.99202 0.0
H2733 H 0.41008 0.52376 0.02622 0.0
H2734 H 0.44272 0.51362 0.02579 0.0
H2735 H 0.39737 0.55948 0.03908 0.0
H2736 H 0.39613 0.52183 0.98172 0.0
H2737 H 0.40767 0.5112 0.95082 0.0
H2738 H 0.40469 0.56742 0.92998 0.0
H2739 H 0.3933 0.57841 0.96079 0.0
C2740 C 0.31156 0.58107 0.01695 0.0
C2741 C 0.30876 0.59639 0.00517 0.0
C2742 C 0.32937 0.57408 0.01892 0.0
C2743 C 0.34467 0.58227 0.00914 0.0
C2744 C 0.34202 0.5977 -0.00247 0.0
C2745 C 0.32418 0.60479 0.99562 0.0
C2746 C 0.36299 0.57353 0.00965 0.0
C2747 C 0.37016 0.56684 0.99263 0.0
C2748 C 0.37272 0.57068 0.02667 0.0
C2749 C 0.36652 0.57872 0.04486 0.0
C2750 C 0.3647 0.5983 0.04709 0.0
C2751 C 0.35949 0.60594 0.06445 0.0
C2752 C 0.3561 0.59414 0.07971 0.0
C2753 C 0.35787 0.57466 0.07761 0.0
C2754 C 0.36309 0.56696 0.06028 0.0
C2755 C 0.44837 0.55298 -0.00098 0.0
C2756 C 0.45325 0.5367 0.00849 0.0
C2757 C 0.43001 0.55863 -0.00073 0.0
C2758 C 0.41606 0.54812 0.00891 0.0
C2759 C 0.42074 0.5319 0.01855 0.0
C2760 C 0.43927 0.5261 0.01821 0.0
C2761 C 0.39678 0.55474 0.00908 0.0
C2762 C 0.38943 0.56105 0.02619 0.0
C2763 C 0.38696 0.55752 0.9921 0.0
C2764 C 0.39397 0.55095 0.9736 0.0
C2765 C 0.39807 0.53195 0.97059 0.0
C2766 C 0.40455 0.52585 0.95307 0.0
C2767 C 0.40694 0.53863 0.93846 0.0
C2768 C 0.40283 0.55753 0.94131 0.0
C2769 C 0.39633 0.56369 0.95878 0.0
H2770 H 0.41195 0.53389 0.92491 0.0
H2771 H 0.35213 0.60008 0.09316 0.0
H2772 H 0.12113 0.57776 0.76104 0.0
H2773 H 0.135 0.60934 0.7547 0.0
H2774 H 0.19055 0.5875 0.75608 0.0
H2775 H 0.17693 0.55628 0.76301 0.0
H2776 H 0.19201 0.61811 0.77358 0.0
H2777 H 0.16929 0.59743 0.71492 0.0
H2778 H 0.1485 0.58514 0.68915 0.0
H2779 H 0.11453 0.63312 0.69544 0.0
H2780 H 0.13498 0.6456 0.72152 0.0
H2781 H 0.24371 0.68981 0.726 0.0
H2782 H 0.22427 0.6604 0.72608 0.0
H2783 H 0.17873 0.68974 0.75104 0.0
H2784 H 0.19826 0.71937 0.75129 0.0
H2785 H 0.17094 0.6567 0.72086 0.0
H2786 H 0.21256 0.67643 0.77517 0.0
H2787 H 0.24461 0.68204 0.78848 0.0
H2788 H 0.25583 0.62397 0.77851 0.0
H2789 H 0.22506 0.61842 0.76296 0.0
C2790 C 0.13632 0.57981 0.76029 0.0
C2791 C 0.14797 0.56459 0.76264 0.0
C2792 C 0.14418 0.59779 0.75645 0.0
C2793 C 0.16377 0.60071 0.75473 0.0
C2794 C 0.17539 0.58559 0.75745 0.0
C2795 C 0.16759 0.56774 0.76149 0.0
C2796 C 0.17241 0.61957 0.75057 0.0
C2797 C 0.18754 0.62645 0.7619 0.0
C2798 C 0.16667 0.63027 0.73517 0.0
C2799 C 0.15347 0.62227 0.72045 0.0
C2800 C 0.15717 0.60519 0.71109 0.0
C2801 C 0.14552 0.59824 0.69636 0.0
C2802 C 0.13018 0.60832 0.69073 0.0
C2803 C 0.12639 0.62531 0.69989 0.0
C2804 C 0.138 0.63232 0.71467 0.0
C2805 C 0.22937 0.69014 0.73105 0.0
C2806 C 0.22261 0.70674 0.73912 0.0
C2807 C 0.21831 0.67335 0.731 0.0
C2808 C 0.20038 0.67298 0.73898 0.0
C2809 C 0.19269 0.68989 0.74498 0.0
C2810 C 0.20381 0.70677 0.74509 0.0
C2811 C 0.19085 0.65476 0.74351 0.0
C2812 C 0.17534 0.64826 0.7325 0.0
C2813 C 0.19772 0.64328 0.75787 0.0
C2814 C 0.21632 0.64708 0.76754 0.0
C2815 C 0.22195 0.66494 0.7753 0.0
C2816 C 0.23994 0.66812 0.78329 0.0
C2817 C 0.25204 0.65335 0.78462 0.0
C2818 C 0.24643 0.63543 0.77752 0.0
C2819 C 0.22882 0.63235 0.76884 0.0
H2820 H 0.2658 0.65582 0.79108 0.0
H2821 H 0.12134 0.60303 0.67918 0.0
H2822 H 0.20166 0.44168 0.52555 0.0
H2823 H 0.16931 0.45128 0.52822 0.0
H2824 H 0.15049 0.40567 0.49041 0.0
H2825 H 0.18295 0.39601 0.48753 0.0
H2826 H 0.13582 0.43881 0.48158 0.0
H2827 H 0.14206 0.40288 0.53771 0.0
H2828 H 0.1568 0.39407 0.56754 0.0
H2829 H 0.14967 0.44978 0.59035 0.0
H2830 H 0.1351 0.45899 0.5606 0.0
H2831 H 0.04256 0.4592 0.48982 0.0
H2832 H 0.06873 0.43903 0.49555 0.0
H2833 H 0.09384 0.4815 0.53363 0.0
H2834 H 0.06745 0.5015 0.52808 0.0
H2835 H 0.10394 0.44642 0.54298 0.0
H2836 H 0.1023 0.48411 0.48781 0.0
H2837 H 0.09095 0.496 0.45768 0.0
H2838 H 0.09249 0.44039 0.43281 0.0
H2839 H 0.10355 0.42809 0.46291 0.0
C2840 C 0.19067 0.43372 0.51771 0.0
C2841 C 0.19488 0.41807 0.50631 0.0
C2842 C 0.17215 0.43912 0.51942 0.0
C2843 C 0.15744 0.42894 0.50985 0.0
C2844 C 0.16163 0.4136 0.49808 0.0
C2845 C 0.18018 0.40816 0.49636 0.0
C2846 C 0.13783 0.43494 0.51142 0.0
C2847 C 0.12865 0.44002 0.49495 0.0
C2848 C 0.1288 0.43717 0.52897 0.0
C2849 C 0.13761 0.43166 0.54686 0.0
C2850 C 0.14377 0.41329 0.54903 0.0
C2851 C 0.15207 0.40822 0.56594 0.0
C2852 C 0.1542 0.42137 0.58081 0.0
C2853 C 0.14802 0.43961 0.57882 0.0
C2854 C 0.13971 0.44475 0.56195 0.0
C2855 C 0.053 0.46362 0.5004 0.0
C2856 C 0.05302 0.48181 0.50858 0.0
C2857 C 0.06815 0.45226 0.50339 0.0
C2858 C 0.08352 0.45906 0.51453 0.0
C2859 C 0.0822 0.47605 0.52484 0.0
C2860 C 0.06697 0.48737 0.52189 0.0
C2861 C 0.10191 0.45018 0.5131 0.0
C2862 C 0.11093 0.44475 0.52957 0.0
C2863 C 0.11102 0.44795 0.49555 0.0
C2864 C 0.1034 0.45511 0.47773 0.0
C2865 C 0.0999 0.47435 0.47602 0.0
C2866 C 0.0936 0.48118 0.45892 0.0
C2867 C 0.09091 0.46894 0.44337 0.0
C2868 C 0.09449 0.44983 0.44489 0.0
C2869 C 0.10074 0.44292 0.46198 0.0
H2870 H 0.08613 0.47428 0.43012 0.0
H2871 H 0.16062 0.41741 0.59389 0.0
H2872 H 0.87499 0.94064 0.75792 0.0
H2873 H 0.86128 0.90836 0.75638 0.0
H2874 H 0.80561 0.92957 0.75324 0.0
H2875 H 0.81922 0.96208 0.75475 0.0
H2876 H 0.8092 0.90257 0.78021 0.0
H2877 H 0.82478 0.91133 0.71524 0.0
H2878 H 0.8454 0.91872 0.68831 0.0
H2879 H 0.87974 0.87291 0.70214 0.0
H2880 H 0.85952 0.86541 0.72937 0.0
H2881 H 0.75078 0.82678 0.74567 0.0
H2882 H 0.76921 0.85464 0.75696 0.0
H2883 H 0.82024 0.8247 0.75077 0.0
H2884 H 0.80155 0.79691 0.73866 0.0
H2885 H 0.82271 0.85474 0.731 0.0
H2886 H 0.8053 0.84484 0.7952 0.0
H2887 H 0.78489 0.8387 0.8226 0.0
H2888 H 0.75352 0.88699 0.80981 0.0
H2889 H 0.77362 0.89335 0.78228 0.0
C2890 C 0.85981 0.93849 0.75695 0.0
C2891 C 0.84814 0.95394 0.75664 0.0
C2892 C 0.85204 0.92001 0.7559 0.0
C2893 C 0.83248 0.91663 0.75458 0.0
C2894 C 0.82078 0.93197 0.75424 0.0
C2895 C 0.82855 0.9505 0.75516 0.0
C2896 C 0.82413 0.89709 0.75465 0.0
C2897 C 0.81198 0.8921 0.76937 0.0
C2898 C 0.82846 0.88336 0.74086 0.0
C2899 C 0.84076 0.88797 0.72455 0.0
C2900 C 0.83686 0.90296 0.7127 0.0
C2901 C 0.84845 0.90714 0.69734 0.0
C2902 C 0.86391 0.89634 0.69356 0.0
C2903 C 0.86779 0.8813 0.70512 0.0
C2904 C 0.85626 0.87708 0.72052 0.0
C2905 C 0.76581 0.82583 0.74777 0.0
C2906 C 0.77479 0.80974 0.74163 0.0
C2907 C 0.77642 0.84181 0.75418 0.0
C2908 C 0.79619 0.84186 0.75475 0.0
C2909 C 0.80501 0.82502 0.75044 0.0
C2910 C 0.79435 0.80906 0.7438 0.0
C2911 C 0.80737 0.86015 0.75652 0.0
C2912 C 0.82012 0.865 0.74208 0.0
C2913 C 0.80356 0.87384 0.77055 0.0
C2914 C 0.79099 0.86956 0.78668 0.0
C2915 C 0.79396 0.85407 0.79815 0.0
C2916 C 0.7825 0.85061 0.81376 0.0
C2917 C 0.76803 0.86255 0.81804 0.0
C2918 C 0.76483 0.87784 0.80658 0.0
C2919 C 0.77627 0.8814 0.791 0.0
H2920 H 0.75921 0.8599 0.83015 0.0
H2921 H 0.87285 0.89959 0.68165 0.0
H2922 H 0.68791 0.13734 0.5093 0.0
H2923 H 0.65557 0.12488 0.51365 0.0
H2924 H 0.66921 0.07219 0.48698 0.0
H2925 H 0.70187 0.08442 0.48289 0.0
H2926 H 0.63547 0.08833 0.47373 0.0
H2927 H 0.66573 0.07126 0.5303 0.0
H2928 H 0.6847 0.07562 0.55932 0.0
H2929 H 0.64518 0.11388 0.58153 0.0
H2930 H 0.62612 0.11002 0.55246 0.0
H2931 H 0.56877 0.02045 0.50255 0.0
H2932 H 0.59675 0.04067 0.49746 0.0
H2933 H 0.56992 0.08773 0.52334 0.0
H2934 H 0.54109 0.06721 0.52825 0.0
H2935 H 0.60826 0.07888 0.5372 0.0
H2936 H 0.57615 0.09163 0.47984 0.0
H2937 H 0.5583 0.08497 0.4504 0.0
H2938 H 0.60227 0.05096 0.42988 0.0
H2939 H 0.62028 0.05721 0.45929 0.0
C2940 C 0.684 0.12316 0.50418 0.0
C2941 C 0.69735 0.11184 0.49567 0.0
C2942 C 0.66559 0.11604 0.50683 0.0
C2943 C 0.66018 0.09764 0.50077 0.0
C2944 C 0.67327 0.08644 0.49179 0.0
C2945 C 0.69184 0.09343 0.48944 0.0
C2946 C 0.64069 0.09024 0.50354 0.0
C2947 C 0.6295 0.08616 0.48758 0.0
C2948 C 0.63298 0.08791 0.52169 0.0
C2949 C 0.64466 0.09062 0.53903 0.0
C2950 C 0.66123 0.08085 0.54123 0.0
C2951 C 0.67197 0.08317 0.55773 0.0
C2952 C 0.6662 0.09509 0.57222 0.0
C2953 C 0.64967 0.1047 0.57026 0.0
C2954 C 0.6389 0.10246 0.55376 0.0
C2955 C 0.56878 0.03507 0.50733 0.0
C2956 C 0.55298 0.04223 0.51621 0.0
C2957 C 0.58471 0.04664 0.50418 0.0
C2958 C 0.58528 0.06563 0.50991 0.0
C2959 C 0.56956 0.07304 0.51876 0.0
C2960 C 0.55324 0.0614 0.52162 0.0
C2961 C 0.603 0.07695 0.50736 0.0
C2962 C 0.61405 0.08157 0.52336 0.0
C2963 C 0.61072 0.07943 0.48923 0.0
C2964 C 0.59957 0.07493 0.47181 0.0
C2965 C 0.58193 0.08259 0.46914 0.0
C2966 C 0.57182 0.07895 0.45243 0.0
C2967 C 0.57923 0.06771 0.43823 0.0
C2968 C 0.59663 0.05981 0.44083 0.0
C2969 C 0.6068 0.06341 0.45752 0.0
H2970 H 0.57148 0.06511 0.42521 0.0
H2971 H 0.67451 0.09683 0.58501 0.0
H2972 H 0.13554 0.44415 0.76028 0.0
H2973 H 0.14765 0.41277 0.7554 0.0
H2974 H 0.20409 0.43797 0.7508 0.0
H2975 H 0.19192 0.46936 0.7548 0.0
H2976 H 0.19786 0.41245 0.72375 0.0
H2977 H 0.18618 0.41488 0.79162 0.0
H2978 H 0.16596 0.41836 0.81944 0.0
H2979 H 0.12958 0.37168 0.79971 0.0
H2980 H 0.14947 0.36807 0.77166 0.0
H2981 H 0.25411 0.33749 0.75938 0.0
H2982 H 0.23796 0.36696 0.75458 0.0
H2983 H 0.18924 0.33464 0.73263 0.0
H2984 H 0.20563 0.30546 0.73644 0.0
H2985 H 0.18768 0.36103 0.76951 0.0
H2986 H 0.19919 0.35616 0.7038 0.0
H2987 H 0.21928 0.35046 0.67635 0.0
H2988 H 0.25429 0.3999 0.69107 0.0
H2989 H 0.23466 0.40561 0.71894 0.0
C2990 C 0.15056 0.44293 0.75853 0.0
C2991 C 0.16285 0.45911 0.75802 0.0
C2992 C 0.15745 0.42501 0.75568 0.0
C2993 C 0.1768 0.42302 0.75281 0.0
C2994 C 0.1891 0.43919 0.75284 0.0
C2995 C 0.18218 0.45708 0.7553 0.0
C2996 C 0.18441 0.40419 0.74972 0.0
C2997 C 0.19571 0.40127 0.73383 0.0
C2998 C 0.18098 0.3893 0.76245 0.0
C2999 C 0.1692 0.39133 0.77946 0.0
C3000 C 0.17381 0.40543 0.79317 0.0
C3001 C 0.16241 0.40741 0.80898 0.0
C3002 C 0.14647 0.39528 0.81131 0.0
C3003 C 0.14192 0.38108 0.79787 0.0
C3004 C 0.15325 0.37905 0.78202 0.0
C3005 C 0.24034 0.33689 0.75272 0.0
C3006 C 0.23111 0.31949 0.74797 0.0
C3007 C 0.23109 0.35357 0.75015 0.0
C3008 C 0.21247 0.35277 0.74332 0.0
C3009 C 0.20365 0.33543 0.73777 0.0
C3010 C 0.21305 0.31889 0.73982 0.0
C3011 C 0.20155 0.36976 0.74404 0.0
C3012 C 0.18961 0.37222 0.75939 0.0
C3013 C 0.20414 0.38407 0.73072 0.0
C3014 C 0.2156 0.38118 0.71361 0.0
C3015 C 0.21129 0.36571 0.70131 0.0
C3016 C 0.22257 0.36249 0.68565 0.0
C3017 C 0.23809 0.37477 0.682 0.0
C3018 C 0.24228 0.39037 0.69394 0.0
C3019 C 0.23108 0.39361 0.70968 0.0
H3020 H 0.24684 0.37223 0.6699 0.0
H3021 H 0.13766 0.39685 0.82355 0.0
H3022 H 0.36022 0.56665 0.27577 0.0
H3023 H 0.34941 0.59892 0.2756 0.0
H3024 H 0.30616 0.58141 0.23514 0.0
H3025 H 0.31693 0.54932 0.2351 0.0
H3026 H 0.32299 0.61411 0.22517 0.0
H3027 H 0.29562 0.58799 0.28069 0.0
H3028 H 0.29501 0.5723 0.31131 0.0
H3029 H 0.3305 0.61765 0.33526 0.0
H3030 H 0.33156 0.63349 0.30465 0.0
H3031 H 0.25104 0.67867 0.23913 0.0
H3032 H 0.2723 0.65303 0.23464 0.0
H3033 H 0.31286 0.6818 0.2721 0.0
H3034 H 0.29131 0.70735 0.27679 0.0
H3035 H 0.3024 0.64616 0.28358 0.0
H3036 H 0.32132 0.67495 0.226 0.0
H3037 H 0.31291 0.68997 0.19658 0.0
H3038 H 0.28732 0.63736 0.17556 0.0
H3039 H 0.29439 0.62228 0.20553 0.0
C3040 C 0.34833 0.56965 0.26694 0.0
C3041 C 0.33938 0.55538 0.25551 0.0
C3042 C 0.34219 0.58811 0.26682 0.0
C3043 C 0.32698 0.5926 0.25533 0.0
C3044 C 0.31801 0.57833 0.24401 0.0
C3045 C 0.3241 0.55993 0.24413 0.0
C3046 C 0.32007 0.61203 0.25522 0.0
C3047 C 0.31849 0.62113 0.23794 0.0
C3048 C 0.31438 0.62129 0.27189 0.0
C3049 C 0.31392 0.61178 0.2903 0.0
C3050 C 0.30348 0.59452 0.29242 0.0
C3051 C 0.30301 0.58562 0.30979 0.0
C3052 C 0.31278 0.59393 0.3252 0.0
C3053 C 0.32299 0.6112 0.32328 0.0
C3054 C 0.32353 0.62014 0.30593 0.0
C3055 C 0.26496 0.68003 0.24549 0.0
C3056 C 0.26979 0.69512 0.25793 0.0
C3057 C 0.27702 0.66525 0.24314 0.0
C3058 C 0.29416 0.66544 0.25313 0.0
C3059 C 0.29971 0.68136 0.26429 0.0
C3060 C 0.28758 0.69611 0.26666 0.0
C3061 C 0.30508 0.64814 0.25351 0.0
C3062 C 0.3074 0.6394 0.27086 0.0
C3063 C 0.31091 0.63899 0.23683 0.0
C3064 C 0.30833 0.64749 0.21811 0.0
C3065 C 0.31388 0.66655 0.21514 0.0
C3066 C 0.30927 0.67511 0.19835 0.0
C3067 C 0.29972 0.66459 0.18408 0.0
C3068 C 0.29475 0.64548 0.18661 0.0
C3069 C 0.29897 0.63694 0.20356 0.0
H3070 H 0.29607 0.67122 0.17109 0.0
H3071 H 0.31238 0.58703 0.33864 0.0
H3072 H 0.47968 0.6971 0.62188 0.0
H3073 H 0.48452 0.66529 0.60964 0.0
H3074 H 0.51243 0.68893 0.56109 0.0
H3075 H 0.50726 0.7208 0.57301 0.0
H3076 H 0.48874 0.66013 0.55141 0.0
H3077 H 0.53705 0.67097 0.60005 0.0
H3078 H 0.54783 0.67844 0.63253 0.0
H3079 H 0.51424 0.63091 0.65258 0.0
H3080 H 0.5031 0.62328 0.62026 0.0
H3081 H 0.51354 0.57541 0.51385 0.0
H3082 H 0.52181 0.60624 0.52871 0.0
H3083 H 0.49837 0.58629 0.58099 0.0
H3084 H 0.49102 0.55538 0.56635 0.0
H3085 H 0.5221 0.61388 0.58896 0.0
H3086 H 0.47079 0.60404 0.54558 0.0
H3087 H 0.45404 0.59638 0.5157 0.0
H3088 H 0.48615 0.64104 0.48864 0.0
H3089 H 0.50334 0.64875 0.5183 0.0
C3090 C 0.4867 0.69555 0.6085 0.0
C3091 C 0.49316 0.71152 0.59846 0.0
C3092 C 0.48963 0.67733 0.60163 0.0
C3093 C 0.49931 0.67471 0.5847 0.0
C3094 C 0.50512 0.69061 0.5743 0.0
C3095 C 0.50206 0.70883 0.58109 0.0
C3096 C 0.50302 0.65544 0.5775 0.0
C3097 C 0.49641 0.65016 0.55946 0.0
C3098 C 0.51225 0.64213 0.58836 0.0
C3099 C 0.51918 0.64662 0.60774 0.0
C3100 C 0.53191 0.66216 0.61139 0.0
C3101 C 0.53808 0.66642 0.62978 0.0
C3102 C 0.53171 0.65517 0.64461 0.0
C3103 C 0.51917 0.63961 0.64108 0.0
C3104 C 0.51295 0.6353 0.62273 0.0
C3105 C 0.51142 0.57725 0.52884 0.0
C3106 C 0.50167 0.56309 0.53901 0.0
C3107 C 0.51576 0.595 0.53725 0.0
C3108 C 0.50992 0.59886 0.55574 0.0
C3109 C 0.5028 0.58381 0.56664 0.0
C3110 C 0.49878 0.56601 0.55831 0.0
C3111 C 0.50811 0.61866 0.56266 0.0
C3112 C 0.51484 0.62399 0.58071 0.0
C3113 C 0.49835 0.63187 0.5521 0.0
C3114 C 0.48858 0.62676 0.53407 0.0
C3115 C 0.47446 0.61206 0.53319 0.0
C3116 C 0.46485 0.60774 0.51631 0.0
C3117 C 0.46908 0.61817 0.50026 0.0
C3118 C 0.48295 0.63292 0.50106 0.0
C3119 C 0.49265 0.63725 0.51789 0.0
H3120 H 0.46157 0.61486 0.48723 0.0
H3121 H 0.5365 0.65849 0.65882 0.0
H3122 H 0.56777 0.25408 0.87396 0.0
H3123 H 0.5974 0.25368 0.85663 0.0
H3124 H 0.56742 0.26214 0.80478 0.0
H3125 H 0.53781 0.26211 0.82182 0.0
H3126 H 0.59037 0.23363 0.80201 0.0
H3127 H 0.59447 0.29794 0.82754 0.0
H3128 H 0.59538 0.32228 0.85287 0.0
H3129 H 0.64395 0.29843 0.87713 0.0
H3130 H 0.64312 0.27372 0.85219 0.0
H3131 H 0.67699 0.24619 0.74894 0.0
H3132 H 0.64588 0.2535 0.76184 0.0
H3133 H 0.66581 0.24216 0.81772 0.0
H3134 H 0.69613 0.23453 0.80513 0.0
H3135 H 0.64725 0.27539 0.81576 0.0
H3136 H 0.64166 0.20996 0.79791 0.0
H3137 H 0.6418 0.18182 0.77701 0.0
H3138 H 0.5975 0.20325 0.74362 0.0
H3139 H 0.5974 0.23178 0.76412 0.0
C3140 C 0.56753 0.25586 0.85887 0.0
C3141 C 0.55052 0.25805 0.8492 0.0
C3142 C 0.58444 0.2558 0.84904 0.0
C3143 C 0.58452 0.25818 0.82951 0.0
C3144 C 0.56757 0.26038 0.81988 0.0
C3145 C 0.55069 0.26027 0.82963 0.0
C3146 C 0.60206 0.25715 0.81879 0.0
C3147 C 0.60268 0.24306 0.80469 0.0
C3148 C 0.61826 0.26901 0.82294 0.0
C3149 C 0.61863 0.28386 0.83803 0.0
C3150 C 0.60523 0.29776 0.83837 0.0
C3151 C 0.60575 0.31165 0.85266 0.0
C3152 C 0.61969 0.31188 0.86662 0.0
C3153 C 0.63314 0.29822 0.86633 0.0
C3154 C 0.63265 0.28428 0.85211 0.0
C3155 C 0.67452 0.2452 0.76391 0.0
C3156 C 0.68864 0.23942 0.77602 0.0
C3157 C 0.65693 0.24941 0.77123 0.0
C3158 C 0.65376 0.24836 0.79069 0.0
C3159 C 0.66808 0.24308 0.80269 0.0
C3160 C 0.68528 0.2385 0.79543 0.0
C3161 C 0.63542 0.25199 0.79896 0.0
C3162 C 0.6347 0.2664 0.81271 0.0
C3163 C 0.61933 0.24001 0.79504 0.0
C3164 C 0.61984 0.22323 0.78228 0.0
C3165 C 0.63221 0.20887 0.78589 0.0
C3166 C 0.63222 0.1928 0.77417 0.0
C3167 C 0.61975 0.1908 0.75892 0.0
C3168 C 0.60724 0.20488 0.75537 0.0
C3169 C 0.60723 0.22102 0.76701 0.0
H3170 H 0.61972 0.17831 0.74991 0.0
H3171 H 0.62008 0.32265 0.87764 0.0
H3172 H 0.99293 0.29978 0.06437 0.0
H3173 H 0.99004 0.33231 0.05408 0.0
H3174 H 0.01705 0.35326 0.10553 0.0
H3175 H 0.01865 0.32072 0.11628 0.0
H3176 H 0.99192 0.37564 0.09788 0.0
H3177 H 0.04085 0.3505 0.06175 0.0
H3178 H 0.05645 0.32773 0.04122 0.0
H3179 H 0.01635 0.33629 0.99725 0.0
H3180 H 0.00036 0.35896 0.0176 0.0
H3181 H 0.02286 0.46465 0.05971 0.0
H3182 H 0.01732 0.4343 0.07467 0.0
H3183 H 0.98368 0.414 0.02696 0.0
H3184 H 0.99025 0.44423 0.01153 0.0
H3185 H 0.01241 0.39186 0.03335 0.0
H3186 H 0.96601 0.42056 0.07227 0.0
H3187 H 0.95628 0.44647 0.09313 0.0
H3188 H -0.00063 0.43399 0.13287 0.0
H3189 H 0.00927 0.40804 0.11222 0.0
C3190 C -0.00201 0.31142 0.07349 0.0
C3191 C 0.00592 0.30797 0.09107 0.0
C3192 C 0.99653 0.32997 0.06758 0.0
C3193 C 0.00371 0.34532 0.07883 0.0
C3194 C 0.01138 0.34174 0.09659 0.0
C3195 C 0.01233 0.3232 0.10271 0.0
C3196 C 0.00343 0.36501 0.07196 0.0
C3197 C 0.99654 0.37916 0.08381 0.0
C3198 C 0.0096 0.3698 0.05366 0.0
C3199 C 0.01928 0.35629 0.04128 0.0
C3200 C 0.03528 0.34744 0.04775 0.0
C3201 C 0.04421 0.33457 0.03614 0.0
C3202 C 0.03736 0.33053 0.01796 0.0
C3203 C 0.02162 0.33942 0.01134 0.0
C3204 C 0.01263 0.3523 0.0229 0.0
C3205 C 0.01332 0.45411 0.05295 0.0
C3206 C 0.00671 0.4568 0.03465 0.0
C3207 C 0.01036 0.43662 0.0614 0.0
C3208 C 0.00019 0.42176 0.05189 0.0
C3209 C 0.99169 0.42523 0.0345 0.0
C3210 C 0.99501 0.44265 0.02588 0.0
C3211 C 0.00031 0.40221 0.05901 0.0
C3212 C 0.0075 0.38818 0.0473 0.0
C3213 C 0.99509 0.39773 0.07762 0.0
C3214 C 0.9882 0.41226 0.09079 0.0
C3215 C 0.97318 0.4232 0.0856 0.0
C3216 C 0.96772 0.43795 0.09732 0.0
C3217 C 0.97715 0.44184 0.11434 0.0
C3218 C 0.99199 0.43092 0.11973 0.0
C3219 C 0.99748 0.41612 0.10805 0.0
H3220 H 0.97293 0.45334 0.12329 0.0
H3221 H 0.04428 0.32054 0.009 0.0
H3222 H 0.95004 0.75554 0.31583 0.0
H3223 H 0.9174 0.75716 0.30534 0.0
H3224 H 0.89918 0.75935 0.36311 0.0
H3225 H 0.93184 0.75662 0.37365 0.0
H3226 H 0.87336 0.73989 0.3413 0.0
H3227 H 0.90801 0.80096 0.33749 0.0
H3228 H 0.93444 0.82245 0.32753 0.0
H3229 H 0.92231 0.80796 0.26965 0.0
H3230 H 0.89596 0.78628 0.27924 0.0
H3231 H 0.7885 0.777 0.29476 0.0
H3232 H 0.81413 0.77509 0.31831 0.0
H3233 H 0.85226 0.76035 0.27405 0.0
H3234 H 0.82749 0.76219 0.25104 0.0
H3235 H 0.86454 0.79203 0.29713 0.0
H3236 H 0.8415 0.72456 0.3002 0.0
H3237 H 0.81616 0.7001 0.30608 0.0
H3238 H 0.80657 0.72513 0.36043 0.0
H3239 H 0.83188 0.74969 0.35481 0.0
C3240 C 0.939 0.75594 0.32625 0.0
C3241 C 0.94335 0.75614 0.3455 0.0
C3242 C 0.9204 0.75702 0.32029 0.0
C3243 C 0.90598 0.75908 0.33348 0.0
C3244 C 0.91014 0.758 0.35272 0.0
C3245 C 0.92875 0.7564 0.35871 0.0
C3246 C 0.8869 0.76353 0.32707 0.0
C3247 C 0.87135 0.75157 0.332 0.0
C3248 C 0.88427 0.77873 0.31485 0.0
C3249 C 0.9 0.792 0.30911 0.0
C3250 C 0.91101 0.80234 0.32265 0.0
C3251 C 0.92598 0.81455 0.31706 0.0
C3252 C 0.93005 0.81657 0.29798 0.0
C3253 C 0.91913 0.80641 0.28443 0.0
C3254 C 0.90415 0.7942 0.28993 0.0
C3255 C 0.80238 0.77337 0.29022 0.0
C3256 C 0.8061 0.77028 0.27103 0.0
C3257 C 0.81691 0.77223 0.3036 0.0
C3258 C 0.83506 0.76783 0.29776 0.0
C3259 C 0.83843 0.76408 0.27876 0.0
C3260 C 0.82422 0.76534 0.2656 0.0
C3261 C 0.85134 0.76794 0.31068 0.0
C3262 C 0.86644 0.78085 0.30706 0.0
C3263 C 0.85363 0.75344 0.32363 0.0
C3264 C 0.8384 0.73892 0.32705 0.0
C3265 C 0.83387 0.72484 0.31334 0.0
C3266 C 0.81959 0.71097 0.31664 0.0
C3267 C 0.80982 0.71105 0.33363 0.0
C3268 C 0.81422 0.72506 0.34732 0.0
C3269 C 0.82854 0.73894 0.34409 0.0
H3270 H 0.79889 0.70022 0.3362 0.0
H3271 H 0.94165 0.82601 0.29369 0.0
H3272 H 0.51638 0.32755 0.88524 0.0
H3273 H 0.51749 0.35813 0.90205 0.0
H3274 H 0.48082 0.33441 0.94464 0.0
H3275 H 0.48016 0.30357 0.92823 0.0
H3276 H 0.47046 0.37015 0.92506 0.0
H3277 H 0.51941 0.3405 0.95863 0.0
H3278 H 0.54878 0.32389 0.96192 0.0
H3279 H 0.58 0.37054 0.93718 0.0
H3280 H 0.55071 0.38729 0.93336 0.0
H3281 H 0.47429 0.43209 0.0034 0.0
H3282 H 0.47507 0.40556 0.981 0.0
H3283 H 0.51586 0.43714 0.94763 0.0
H3284 H 0.51484 0.46397 0.96998 0.0
H3285 H 0.52601 0.39941 0.9594 0.0
H3286 H 0.4772 0.43016 0.92857 0.0
H3287 H 0.44777 0.44684 0.92614 0.0
H3288 H 0.41642 0.39807 0.94668 0.0
H3289 H 0.44574 0.38119 0.9494 0.0
C3290 C 0.50855 0.32892 0.89818 0.0
C3291 C 0.49806 0.31342 0.90547 0.0
C3292 C 0.50933 0.34625 0.90778 0.0
C3293 C 0.49931 0.34828 0.9245 0.0
C3294 C 0.48869 0.33289 0.93175 0.0
C3295 C 0.4883 0.31541 0.92241 0.0
C3296 C 0.49909 0.36682 0.9339 0.0
C3297 C 0.48253 0.37655 0.93269 0.0
C3298 C 0.51514 0.37515 0.94325 0.0
C3299 C 0.53277 0.36502 0.94538 0.0
C3300 C 0.53247 0.34711 0.9536 0.0
C3301 C 0.54913 0.33769 0.95563 0.0
C3302 C 0.56623 0.34611 0.94967 0.0
C3303 C 0.56673 0.364 0.94172 0.0
C3304 C 0.55009 0.37346 0.93961 0.0
C3305 C 0.48299 0.43354 0.99099 0.0
C3306 C 0.49435 0.45001 0.98819 0.0
C3307 C 0.48351 0.41842 0.97831 0.0
C3308 C 0.49557 0.41951 0.96282 0.0
C3309 C 0.50649 0.43618 0.95958 0.0
C3310 C 0.50571 0.4515 0.97214 0.0
C3311 C 0.49726 0.40266 0.95076 0.0
C3312 C 0.51407 0.39318 0.95147 0.0
C3313 C 0.48143 0.39448 0.94097 0.0
C3314 C 0.46369 0.40445 0.93923 0.0
C3315 C 0.46404 0.42303 0.93263 0.0
C3316 C 0.44738 0.43252 0.9312 0.0
C3317 C 0.43023 0.42352 0.93627 0.0
C3318 C 0.42972 0.40501 0.94274 0.0
C3319 C 0.44636 0.39547 0.94419 0.0
H3320 H 0.41733 0.43089 0.93517 0.0
H3321 H 0.57912 0.33881 0.95128 0.0
H3322 H 0.93676 0.23527 0.13552 0.0
H3323 H 0.90464 0.23838 0.14723 0.0
H3324 H 0.92575 0.28005 0.18836 0.0
H3325 H 0.95796 0.27647 0.17689 0.0
H3326 H 0.90275 0.25324 0.20373 0.0
H3327 H 0.90015 0.2912 0.14652 0.0
H3328 H 0.90296 0.2947 0.11217 0.0
H3329 H 0.86158 0.24893 0.10313 0.0
H3330 H 0.85866 0.24506 0.1374 0.0
H3331 H 0.81812 0.27399 0.24285 0.0
H3332 H 0.84676 0.2814 0.22484 0.0
H3333 H 0.82467 0.24579 0.17901 0.0
H3334 H 0.7959 0.2391 0.19673 0.0
H3335 H 0.84802 0.26979 0.16498 0.0
H3336 H 0.84962 0.2282 0.21561 0.0
H3337 H 0.84679 0.21607 0.24776 0.0
H3338 H 0.88938 0.25732 0.26714 0.0
H3339 H 0.89218 0.26999 0.23516 0.0
C3340 C 0.93439 0.24524 0.1469 0.0
C3341 C 0.94957 0.2558 0.15527 0.0
C3342 C 0.91609 0.24708 0.15352 0.0
C3343 C 0.91272 0.25971 0.16847 0.0
C3344 C 0.928 0.27034 0.17672 0.0
C3345 C 0.94632 0.26838 0.17018 0.0
C3346 C 0.89349 0.2611 0.17628 0.0
C3347 C 0.89086 0.25732 0.19539 0.0
C3348 C 0.87773 0.26512 0.16506 0.0
C3349 C 0.87924 0.26782 0.1445 0.0
C3350 C 0.89169 0.28187 0.13719 0.0
C3351 C 0.8933 0.28391 0.11774 0.0
C3352 C 0.88247 0.27204 0.10548 0.0
C3353 C 0.86995 0.25813 0.11264 0.0
C3354 C 0.86828 0.25604 0.13207 0.0
C3355 C 0.81891 0.26883 0.22844 0.0
C3356 C 0.80486 0.25608 0.22107 0.0
C3357 C 0.83544 0.27271 0.2183 0.0
C3358 C 0.8382 0.26353 0.20087 0.0
C3359 C 0.82303 0.25289 0.19249 0.0
C3360 C 0.80645 0.24924 0.20254 0.0
C3361 C 0.85739 0.26273 0.19271 0.0
C3362 C 0.85997 0.26622 0.1735 0.0
C3363 C 0.87297 0.25741 0.2036 0.0
C3364 C 0.87087 0.25028 0.22302 0.0
C3365 C 0.85819 0.23488 0.22677 0.0
C3366 C 0.85662 0.22787 0.24496 0.0
C3367 C 0.86784 0.23597 0.2595 0.0
C3368 C 0.88064 0.25112 0.25588 0.0
C3369 C 0.88219 0.25824 0.23773 0.0
H3370 H 0.86668 0.23047 0.27356 0.0
H3371 H 0.88376 0.27362 0.09043 0.0
H3372 H 0.9938 0.71876 0.44316 0.0
H3373 H 0.99495 0.68819 0.45821 0.0
H3374 H 0.00283 0.66123 0.404 0.0
H3375 H 0.00043 0.69179 0.38882 0.0
H3376 H 0.98368 0.63816 0.42386 0.0
H3377 H 0.04066 0.6731 0.43361 0.0
H3378 H 0.06316 0.69971 0.44186 0.0
H3379 H 0.04482 0.69811 0.49926 0.0
H3380 H 0.02202 0.67162 0.4913 0.0
H3381 H 0.03932 0.56655 0.46241 0.0
H3382 H 0.03087 0.59561 0.44789 0.0
H3383 H 0.99475 0.60768 0.49462 0.0
H3384 H 0.00262 0.57784 0.50924 0.0
H3385 H 0.02744 0.63714 0.47843 0.0
H3386 H 0.97152 0.59527 0.46215 0.0
H3387 H 0.95643 0.56609 0.44811 0.0
H3388 H 0.98342 0.57792 0.39545 0.0
H3389 H -0.00108 0.60698 0.40925 0.0
C3390 C 0.99533 0.7062 0.43448 0.0
C3391 C 0.99706 0.70744 0.41494 0.0
C3392 C 0.99617 0.68881 0.44306 0.0
C3393 C -0.00047 0.67253 0.43228 0.0
C3394 C 0.0003 0.67362 0.41259 0.0
C3395 C -0.0011 0.691 0.40394 0.0
C3396 C 0.00313 0.65471 0.44177 0.0
C3397 C 0.99328 0.63796 0.43576 0.0
C3398 C 0.01606 0.6543 0.45697 0.0
C3399 C 0.02944 0.67053 0.4618 0.0
C3400 C 0.04126 0.67856 0.44795 0.0
C3401 C 0.05412 0.69359 0.45259 0.0
C3402 C 0.05538 0.70064 0.47106 0.0
C3403 C 0.0438 0.69266 0.48495 0.0
C3404 C 0.03091 0.67763 0.48038 0.0
C3405 C 0.02981 0.57545 0.46988 0.0
C3406 C 0.02177 0.57001 0.48714 0.0
C3407 C 0.02483 0.59191 0.46138 0.0
C3408 C 0.01203 0.60344 0.4701 0.0
C3409 C 0.0045 0.59864 0.48768 0.0
C3410 C 0.00913 0.5818 0.49606 0.0
C3411 C 0.00743 0.62098 0.461 0.0
C3412 C 0.01747 0.63758 0.46684 0.0
C3413 C 0.99568 0.62092 0.4449 0.0
C3414 C 0.98648 0.60325 0.4368 0.0
C3415 C 0.97441 0.59154 0.44765 0.0
C3416 C 0.96573 0.57504 0.4397 0.0
C3417 C 0.96897 0.57018 0.42089 0.0
C3418 C 0.98092 0.58173 0.41001 0.0
C3419 C 0.98963 0.59821 0.41788 0.0
H3420 H 0.96221 0.55751 0.41466 0.0
H3421 H 0.06536 0.71225 0.47463 0.0
H3422 H 0.53398 0.75715 0.67996 0.0
H3423 H 0.56437 0.75404 0.69545 0.0
H3424 H 0.59264 0.78047 0.64848 0.0
H3425 H 0.56234 0.7832 0.63267 0.0
H3426 H 0.60969 0.74949 0.65853 0.0
H3427 H 0.58732 0.80473 0.69028 0.0
H3428 H 0.56369 0.82212 0.70783 0.0
H3429 H 0.5652 0.78223 0.75241 0.0
H3430 H 0.58874 0.7645 0.735 0.0
H3431 H 0.69519 0.78842 0.69183 0.0
H3432 H 0.66232 0.78428 0.68279 0.0
H3433 H 0.65218 0.74559 0.72808 0.0
H3434 H 0.68568 0.74929 0.73725 0.0
H3435 H 0.62479 0.77681 0.722 0.0
H3436 H 0.65313 0.72542 0.69076 0.0
H3437 H 0.67674 0.70952 0.67177 0.0
H3438 H 0.66432 0.74379 0.62465 0.0
H3439 H 0.64108 0.76029 0.64349 0.0
C3440 C 0.54664 0.76255 0.67304 0.0
C3441 C 0.54576 0.77047 0.65512 0.0
C3442 C 0.564 0.76071 0.6819 0.0
C3443 C 0.58075 0.76705 0.67313 0.0
C3444 C 0.57988 0.77536 0.65543 0.0
C3445 C 0.56255 0.77705 0.64648 0.0
C3446 C 0.59924 0.76495 0.6823 0.0
C3447 C 0.61304 0.75553 0.67236 0.0
C3448 C 0.60336 0.77232 0.70059 0.0
C3449 C 0.58965 0.78323 0.7113 0.0
C3450 C 0.58256 0.79965 0.7038 0.0
C3451 C 0.56919 0.80956 0.71372 0.0
C3452 C 0.56291 0.80326 0.7312 0.0
C3453 C 0.57007 0.78709 0.73885 0.0
C3454 C 0.58345 0.77712 0.72899 0.0
C3455 C 0.68611 0.77904 0.70004 0.0
C3456 C 0.69319 0.76905 0.71524 0.0
C3457 C 0.66729 0.77669 0.69477 0.0
C3458 C 0.65501 0.76446 0.70461 0.0
C3459 C 0.66162 0.75502 0.72029 0.0
C3460 C 0.68068 0.75719 0.72552 0.0
C3461 C 0.63534 0.76178 0.69801 0.0
C3462 C 0.62131 0.77038 0.70835 0.0
C3463 C 0.6311 0.75388 0.67995 0.0
C3464 C 0.6454 0.7442 0.66863 0.0
C3465 C 0.65561 0.72976 0.67643 0.0
C3466 C 0.66893 0.72062 0.66568 0.0
C3467 C 0.67206 0.72565 0.64703 0.0
C3468 C 0.66195 0.73992 0.63911 0.0
C3469 C 0.64869 0.74918 0.64983 0.0
H3470 H 0.68224 0.71841 0.6387 0.0
H3471 H 0.55252 0.81093 0.73884 0.0
H3472 H 0.62542 0.50056 0.6956 0.0
H3473 H 0.60753 0.50271 0.66635 0.0
H3474 H 0.5557 0.50132 0.69769 0.0
H3475 H 0.57342 0.49908 0.72703 0.0
H3476 H 0.55495 0.47688 0.66673 0.0
H3477 H 0.57553 0.54274 0.68111 0.0
H3478 H 0.59969 0.56853 0.68705 0.0
H3479 H 0.62468 0.55728 0.63343 0.0
H3480 H 0.60084 0.53127 0.62728 0.0
H3481 H 0.49581 0.4924 0.58977 0.0
H3482 H 0.51052 0.49745 0.62106 0.0
H3483 H 0.56389 0.51196 0.59472 0.0
H3484 H 0.54902 0.50793 0.5639 0.0
H3485 H 0.56317 0.53132 0.62425 0.0
H3486 H 0.55043 0.46618 0.60935 0.0
H3487 H 0.53164 0.43704 0.60056 0.0
H3488 H 0.49913 0.44202 0.65096 0.0
H3489 H 0.51753 0.4714 0.6599 0.0
C3490 C 0.6102 0.50058 0.69629 0.0
C3491 C 0.60082 0.49966 0.71366 0.0
C3492 C 0.60004 0.50198 0.67957 0.0
C3493 C 0.58035 0.5025 0.67996 0.0
C3494 C 0.57092 0.5011 0.69718 0.0
C3495 C 0.58106 0.49976 0.7139 0.0
C3496 C 0.56942 0.50388 0.66237 0.0
C3497 C 0.55646 0.48894 0.65758 0.0
C3498 C 0.57219 0.51919 0.65005 0.0
C3499 C 0.58645 0.53495 0.65381 0.0
C3500 C 0.58625 0.54567 0.67065 0.0
C3501 C 0.59988 0.56035 0.67404 0.0
C3502 C 0.61373 0.56452 0.66064 0.0
C3503 C 0.61396 0.55404 0.6438 0.0
C3504 C 0.60038 0.53934 0.64036 0.0
C3505 C 0.51053 0.49714 0.59086 0.0
C3506 C 0.52143 0.49969 0.57469 0.0
C3507 C 0.51897 0.49989 0.60863 0.0
C3508 C 0.53845 0.50466 0.61025 0.0
C3509 C 0.54891 0.50828 0.59393 0.0
C3510 C 0.54044 0.50588 0.57633 0.0
C3511 C 0.54846 0.50434 0.62859 0.0
C3512 C 0.56138 0.51938 0.6335 0.0
C3513 C 0.54641 0.48866 0.64059 0.0
C3514 C 0.53516 0.47113 0.63515 0.0
C3515 C 0.53914 0.46117 0.61846 0.0
C3516 C 0.52859 0.44459 0.61346 0.0
C3517 C 0.51415 0.43772 0.62515 0.0
C3518 C 0.51027 0.44739 0.64188 0.0
C3519 C 0.52074 0.46402 0.64692 0.0
H3520 H 0.50602 0.42486 0.62128 0.0
H3521 H 0.62426 0.57589 0.6633 0.0
H3522 H 0.73333 0.37046 0.93703 0.0
H3523 H 0.73404 0.35958 0.90404 0.0
H3524 H 0.76438 0.31135 0.92042 0.0
H3525 H 0.76381 0.32203 0.9531 0.0
H3526 H 0.78133 0.32986 0.89149 0.0
H3527 H 0.71906 0.30655 0.90945 0.0
H3528 H 0.68667 0.30908 0.92109 0.0
H3529 H 0.67437 0.34543 0.87556 0.0
H3530 H 0.70685 0.34339 0.86383 0.0
H3531 H 0.76971 0.25527 0.82618 0.0
H3532 H 0.76986 0.27755 0.85278 0.0
H3533 H 0.74355 0.31822 0.81835 0.0
H3534 H 0.74304 0.29568 0.79173 0.0
H3535 H 0.72508 0.31116 0.85242 0.0
H3536 H 0.7875 0.32801 0.83171 0.0
H3537 H 0.81906 0.32091 0.8202 0.0
H3538 H 0.83053 0.29287 0.87164 0.0
H3539 H 0.79894 0.29955 0.88337 0.0
C3540 C 0.73988 0.3574 0.93358 0.0
C3541 C 0.74858 0.34713 0.9476 0.0
C3542 C 0.74035 0.35127 0.91477 0.0
C3543 C 0.74944 0.33479 0.90985 0.0
C3544 C 0.75751 0.32424 0.92393 0.0
C3545 C 0.75706 0.33031 0.94262 0.0
C3546 C 0.75097 0.32839 0.89007 0.0
C3547 C 0.76904 0.32583 0.8829 0.0
C3548 C 0.73492 0.32362 0.87877 0.0
C3549 C 0.71548 0.32507 0.88594 0.0
C3550 C 0.70953 0.31528 0.90205 0.0
C3551 C 0.69114 0.31658 0.90864 0.0
C3552 C 0.67849 0.32747 0.89911 0.0
C3553 C 0.6842 0.33706 0.88296 0.0
C3554 C 0.70261 0.33585 0.87635 0.0
C3555 C 0.76435 0.26911 0.82415 0.0
C3556 C 0.75662 0.27392 0.8068 0.0
C3557 C 0.76446 0.28183 0.83934 0.0
C3558 C 0.75686 0.29956 0.83743 0.0
C3559 C 0.74961 0.30464 0.82 0.0
C3560 C 0.74958 0.29191 0.80476 0.0
C3561 C 0.7554 0.31203 0.85415 0.0
C3562 C 0.73738 0.31578 0.86075 0.0
C3563 C 0.77148 0.31762 0.86508 0.0
C3564 C 0.79082 0.31428 0.85841 0.0
C3565 C 0.79674 0.32031 0.84057 0.0
C3566 C 0.81464 0.31634 0.83399 0.0
C3567 C 0.82679 0.30644 0.84518 0.0
C3568 C 0.82111 0.30056 0.863 0.0
C3569 C 0.80323 0.30448 0.86964 0.0
H3570 H 0.84061 0.30332 0.84003 0.0
H3571 H 0.66423 0.32842 0.9042 0.0
H3572 H 0.91853 0.54705 0.2105 0.0
H3573 H 0.93602 0.54523 0.18078 0.0
H3574 H 0.90887 0.49043 0.16849 0.0
H3575 H 0.8907 0.49262 0.19762 0.0
H3576 H 0.95518 0.49981 0.17038 0.0
H3577 H 0.89458 0.51052 0.14178 0.0
H3578 H 0.86543 0.5276 0.13888 0.0
H3579 H 0.89802 0.57881 0.12735 0.0
H3580 H 0.92741 0.5621 0.13063 0.0
H3581 H 0.98598 0.4911 0.07121 0.0
H3582 H 0.97086 0.48713 0.10198 0.0
H3583 H 0.97929 0.54702 0.1133 0.0
H3584 H 0.99454 0.55104 0.08293 0.0
H3585 H 0.94049 0.53194 0.1112 0.0
H3586 H 0.00113 0.5205 0.13662 0.0
H3587 H 0.03048 0.5044 0.1415 0.0
H3588 H -0.00106 0.45561 0.1616 0.0
H3589 H 0.96927 0.471 0.1559 0.0
C3590 C 0.91615 0.53481 0.20125 0.0
C3591 C 0.90332 0.52003 0.20608 0.0
C3592 C 0.92606 0.53378 0.18439 0.0
C3593 C 0.92357 0.51773 0.17259 0.0
C3594 C 0.91075 0.50296 0.17743 0.0
C3595 C 0.90042 0.50426 0.19394 0.0
C3596 C 0.93524 0.51599 0.15574 0.0
C3597 C 0.95192 0.50644 0.15722 0.0
C3598 C 0.93087 0.52507 0.13896 0.0
C3599 C 0.91322 0.53512 0.13677 0.0
C3600 C 0.89555 0.52548 0.1389 0.0
C3601 C 0.87898 0.53508 0.13713 0.0
C3602 C 0.87988 0.5543 0.13302 0.0
C3603 C 0.89735 0.56393 0.13059 0.0
C3604 C 0.91397 0.5544 0.13242 0.0
C3605 C 0.98541 0.50324 0.08067 0.0
C3606 C 0.9912 0.52142 0.07467 0.0
C3607 C 0.97662 0.50098 0.09813 0.0
C3608 C 0.9737 0.51688 0.10963 0.0
C3609 C 0.98127 0.53466 0.10446 0.0
C3610 C 0.99009 0.5369 0.08719 0.0
C3611 C 0.96072 0.51572 0.12571 0.0
C3612 C 0.94372 0.52488 0.12414 0.0
C3613 C 0.96488 0.50623 0.14241 0.0
C3614 C 0.98282 0.49675 0.14523 0.0
C3615 C 0.00033 0.50613 0.14151 0.0
C3616 C 0.01708 0.49713 0.14451 0.0
C3617 C 0.01658 0.4789 0.15164 0.0
C3618 C -0.00068 0.46965 0.15587 0.0
C3619 C 0.98252 0.47849 0.15268 0.0
H3620 H 0.02957 0.47199 0.15405 0.0
H3621 H 0.86703 0.56172 0.13164 0.0
H3622 H 0.73383 0.64858 0.42757 0.0
H3623 H 0.73483 0.66078 0.39554 0.0
H3624 H 0.78362 0.69698 0.41064 0.0
H3625 H 0.78227 0.68502 0.44287 0.0
H3626 H 0.75663 0.71559 0.39187 0.0
H3627 H 0.78623 0.65449 0.38331 0.0
H3628 H 0.78534 0.61972 0.3854 0.0
H3629 H 0.73533 0.61518 0.35108 0.0
H3630 H 0.73581 0.64989 0.34894 0.0
H3631 H 0.76496 0.7516 0.30178 0.0
H3632 H 0.77554 0.73597 0.33014 0.0
H3633 H 0.73797 0.68762 0.31625 0.0
H3634 H 0.7287 0.70266 0.2876 0.0
H3635 H 0.76227 0.67491 0.33487 0.0
H3636 H 0.72582 0.72825 0.34467 0.0
H3637 H 0.7165 0.76126 0.34419 0.0
H3638 H 0.76547 0.77896 0.37698 0.0
H3639 H 0.77527 0.74608 0.37736 0.0
C3640 C 0.74487 0.65897 0.42389 0.0
C3641 C 0.75815 0.66575 0.43739 0.0
C3642 C 0.74548 0.66589 0.40563 0.0
C3643 C 0.75952 0.67955 0.40058 0.0
C3644 C 0.77278 0.68634 0.41419 0.0
C3645 C 0.77208 0.67948 0.4325 0.0
C3646 C 0.75999 0.68732 0.38135 0.0
C3647 C 0.75826 0.7068 0.37937 0.0
C3648 C 0.76094 0.67565 0.36504 0.0
C3649 C 0.76106 0.65478 0.36601 0.0
C3650 C 0.77504 0.64607 0.37624 0.0
C3651 C 0.77459 0.62637 0.37744 0.0
C3652 C 0.76029 0.61525 0.36839 0.0
C3653 C 0.74642 0.62379 0.35807 0.0
C3654 C 0.74679 0.64347 0.35683 0.0
C3655 C 0.76001 0.73716 0.30427 0.0
C3656 C 0.74619 0.7282 0.29254 0.0
C3657 C 0.76564 0.72838 0.32072 0.0
C3658 C 0.75701 0.71085 0.32584 0.0
C3659 C 0.74483 0.70114 0.31289 0.0
C3660 C 0.73959 0.7097 0.29636 0.0
C3661 C 0.75888 0.70336 0.34519 0.0
C3662 C 0.76097 0.6839 0.34727 0.0
C3663 C 0.7569 0.71486 0.36157 0.0
C3664 C 0.75145 0.73475 0.36077 0.0
C3665 C 0.73474 0.73922 0.35157 0.0
C3666 C 0.72934 0.7579 0.35135 0.0
C3667 C 0.74043 0.77221 0.36049 0.0
C3668 C 0.75694 0.76787 0.36984 0.0
C3669 C 0.76244 0.74922 0.37004 0.0
H3670 H 0.73618 0.78665 0.36037 0.0
H3671 H 0.75995 0.60001 0.36936 0.0
H3672 H 0.5861 0.53122 0.82065 0.0
H3673 H 0.5748 0.52872 0.85289 0.0
H3674 H 0.59857 0.47427 0.85726 0.0
H3675 H 0.61037 0.47684 0.82488 0.0
H3676 H 0.55806 0.47782 0.86924 0.0
H3677 H 0.62073 0.5062 0.87997 0.0
H3678 H 0.64717 0.52945 0.87471 0.0
H3679 H 0.6122 0.57467 0.89034 0.0
H3680 H 0.58546 0.55174 0.89542 0.0
H3681 H 0.53484 0.49272 0.97134 0.0
H3682 H 0.55187 0.48198 0.9432 0.0
H3683 H 0.53886 0.53299 0.91499 0.0
H3684 H 0.52118 0.5431 0.94199 0.0
H3685 H 0.57953 0.52453 0.91875 0.0
H3686 H 0.51744 0.5019 0.89793 0.0
H3687 H 0.4874 0.48304 0.90021 0.0
H3688 H 0.51733 0.43202 0.90102 0.0
H3689 H 0.54765 0.45069 0.89902 0.0
C3690 C 0.58893 0.51868 0.82842 0.0
C3691 C 0.59908 0.50419 0.82022 0.0
C3692 C 0.58254 0.51733 0.84687 0.0
C3693 C 0.58595 0.50137 0.85744 0.0
C3694 C 0.59587 0.48672 0.84929 0.0
C3695 C 0.6026 0.48822 0.83086 0.0
C3696 C 0.57866 0.50013 0.87686 0.0
C3697 C 0.56314 0.48758 0.88031 0.0
C3698 C 0.58492 0.51336 0.89102 0.0
C3699 C 0.60104 0.52721 0.888 0.0
C3700 C 0.61862 0.5211 0.88215 0.0
C3701 C 0.63368 0.53424 0.87922 0.0
C3702 C 0.63136 0.55353 0.88217 0.0
C3703 C 0.61398 0.55973 0.88807 0.0
C3704 C 0.59888 0.54666 0.891 0.0
C3705 C 0.53515 0.50125 0.95888 0.0
C3706 C 0.52673 0.51874 0.95892 0.0
C3707 C 0.54508 0.49527 0.94297 0.0
C3708 C 0.5469 0.50694 0.92724 0.0
C3709 C 0.53781 0.52393 0.92708 0.0
C3710 C 0.52768 0.52964 0.94259 0.0
C3711 C 0.55883 0.50242 0.91098 0.0
C3712 C 0.57507 0.5141 0.90802 0.0
C3713 C 0.55284 0.48893 0.89704 0.0
C3714 C 0.53478 0.47768 0.89866 0.0
C3715 C 0.51763 0.48668 0.89889 0.0
C3716 C 0.50056 0.47604 0.90005 0.0
C3717 C 0.50046 0.45635 0.90079 0.0
C3718 C 0.51745 0.44728 0.90046 0.0
C3719 C 0.53458 0.45788 0.89933 0.0
H3720 H 0.48722 0.44813 0.90145 0.0
H3721 H 0.64303 0.56366 0.8799 0.0
H3722 H 0.77174 0.33736 0.04463 0.0
H3723 H 0.77408 0.32121 0.07444 0.0
H3724 H 0.72635 0.3503 0.09547 0.0
H3725 H 0.72497 0.36761 0.06597 0.0
H3726 H 0.75113 0.34838 0.122 0.0
H3727 H 0.7224 0.3033 0.07751 0.0
H3728 H 0.72048 0.28556 0.04729 0.0
H3729 H 0.77264 0.26043 0.05981 0.0
H3730 H 0.77495 0.27819 0.09003 0.0
H3731 H 0.71193 0.28512 0.18597 0.0
H3732 H 0.71773 0.29843 0.15513 0.0
H3733 H 0.77584 0.28407 0.15832 0.0
H3734 H 0.77032 0.271 0.18965 0.0
H3735 H 0.75047 0.27824 0.12042 0.0
H3736 H 0.77615 0.32308 0.16774 0.0
H3737 H 0.77552 0.34143 0.19751 0.0
H3738 H 0.72517 0.36692 0.17955 0.0
H3739 H 0.72541 0.34856 0.14971 0.0
C3740 C 0.7617 0.34016 0.05562 0.0
C3741 C 0.74793 0.3533 0.0531 0.0
C3742 C 0.76305 0.33099 0.0726 0.0
C3743 C 0.75009 0.33422 0.08695 0.0
C3744 C 0.73643 0.34758 0.0845 0.0
C3745 C 0.73551 0.35728 0.06769 0.0
C3746 C 0.75052 0.32327 0.10431 0.0
C3747 C 0.75091 0.33306 0.12165 0.0
C3748 C 0.75057 0.30328 0.1038 0.0
C3749 C 0.7489 0.29214 0.08594 0.0
C3750 C 0.73347 0.29401 0.07379 0.0
C3751 C 0.73232 0.28397 0.05667 0.0
C3752 C 0.74645 0.2719 0.05162 0.0
C3753 C 0.76171 0.26978 0.06374 0.0
C3754 C 0.76293 0.27981 0.08088 0.0
C3755 C 0.72586 0.28437 0.17996 0.0
C3756 C 0.74077 0.27733 0.19028 0.0
C3757 C 0.72912 0.29202 0.16242 0.0
C3758 C 0.74725 0.29251 0.15489 0.0
C3759 C 0.76181 0.28386 0.1642 0.0
C3760 C 0.75859 0.27629 0.18195 0.0
C3761 C 0.7509 0.30337 0.13791 0.0
C3762 C 0.75111 0.29358 0.12068 0.0
C3763 C 0.75098 0.32332 0.13853 0.0
C3764 C 0.75068 0.33425 0.15657 0.0
C3765 C 0.76481 0.33241 0.17023 0.0
C3766 C 0.76456 0.34286 0.1871 0.0
C3767 C 0.75026 0.35526 0.19049 0.0
C3768 C 0.73622 0.35727 0.17695 0.0
C3769 C 0.73643 0.34687 0.16003 0.0
H3770 H 0.7501 0.36334 0.20356 0.0
H3771 H 0.74556 0.26417 0.03834 0.0
H3772 H 0.93668 0.5317 0.30826 0.0
H3773 H 0.9479 0.529 0.34063 0.0
H3774 H 0.89528 0.49972 0.35525 0.0
H3775 H 0.88353 0.50392 0.3232 0.0
H3776 H 0.90686 0.5189 0.38419 0.0
H3777 H 0.93723 0.47562 0.34312 0.0
H3778 H 0.95528 0.46556 0.31547 0.0
H3779 H 0.00228 0.50246 0.33305 0.0
H3780 H 0.98447 0.51289 0.36068 0.0
H3781 H 0.96224 0.48965 0.46633 0.0
H3782 H 0.9409 0.48827 0.43868 0.0
H3783 H 0.97949 0.52675 0.40989 0.0
H3784 H 0.00049 0.52802 0.43679 0.0
H3785 H 0.9708 0.49472 0.38952 0.0
H3786 H 0.93825 0.53963 0.42956 0.0
H3787 H 0.91988 0.54872 0.45722 0.0
H3788 H 0.87673 0.50617 0.44238 0.0
H3789 H 0.89498 0.49682 0.41459 0.0
C3790 C 0.9274 0.52515 0.31857 0.0
C3791 C 0.9093 0.51807 0.31343 0.0
C3792 C 0.93386 0.52335 0.33698 0.0
C3793 C 0.92271 0.51349 0.35024 0.0
C3794 C 0.90422 0.50724 0.34528 0.0
C3795 C 0.8975 0.50968 0.32702 0.0
C3796 C 0.93072 0.50906 0.3689 0.0
C3797 C 0.92073 0.51335 0.38535 0.0
C3798 C 0.94867 0.50145 0.37052 0.0
C3799 C 0.95946 0.49508 0.35393 0.0
C3800 C 0.95138 0.48164 0.34104 0.0
C3801 C 0.96158 0.47587 0.32538 0.0
C3802 C 0.9799 0.48338 0.3225 0.0
C3803 C 0.98809 0.49665 0.3353 0.0
C3804 C 0.97797 0.50246 0.35098 0.0
C3805 C 0.96598 0.49782 0.45407 0.0
C3806 C 0.98323 0.50848 0.45345 0.0
C3807 C 0.95383 0.49708 0.43838 0.0
C3808 C 0.95877 0.50727 0.4222 0.0
C3809 C 0.97553 0.51858 0.42211 0.0
C3810 C 0.98759 0.51919 0.43749 0.0
C3811 C 0.94753 0.50577 0.40464 0.0
C3812 C 0.9568 0.5 0.38833 0.0
C3813 C 0.92895 0.51184 0.40327 0.0
C3814 C 0.91811 0.51741 0.42008 0.0
C3815 C 0.92494 0.53213 0.43225 0.0
C3816 C 0.91452 0.53735 0.44795 0.0
C3817 C 0.89716 0.52799 0.45161 0.0
C3818 C 0.89019 0.5134 0.43955 0.0
C3819 C 0.90056 0.50816 0.4238 0.0
H3820 H 0.88909 0.53207 0.46375 0.0
H3821 H 0.98776 0.4789 0.31036 0.0
H3822 H 0.78949 0.67126 0.54284 0.0
H3823 H 0.78876 0.68471 0.57509 0.0
H3824 H 0.73213 0.66077 0.58175 0.0
H3825 H 0.73311 0.64678 0.54998 0.0
H3826 H 0.74145 0.70294 0.59139 0.0
H3827 H 0.75764 0.6387 0.60265 0.0
H3828 H 0.7765 0.61075 0.59842 0.0
H3829 H 0.82607 0.64309 0.61747 0.0
H3830 H 0.80754 0.67134 0.62148 0.0
H3831 H 0.73048 0.71973 0.6902 0.0
H3832 H 0.73009 0.70099 0.66073 0.0
H3833 H 0.7892 0.71589 0.6532 0.0
H3834 H 0.7894 0.73521 0.68219 0.0
H3835 H 0.77747 0.6771 0.64408 0.0
H3836 H 0.76126 0.74092 0.63486 0.0
H3837 H 0.74385 0.76996 0.63652 0.0
H3838 H 0.6957 0.74066 0.61066 0.0
H3839 H 0.71232 0.71108 0.60999 0.0
C3840 C 0.77695 0.66899 0.55127 0.0
C3841 C 0.76135 0.65811 0.54421 0.0
C3842 C 0.77656 0.67654 0.56958 0.0
C3843 C 0.76042 0.67356 0.58065 0.0
C3844 C 0.74469 0.66309 0.57335 0.0
C3845 C 0.74526 0.65516 0.55532 0.0
C3846 C 0.75978 0.68152 0.59986 0.0
C3847 C 0.74901 0.69719 0.60308 0.0
C3848 C 0.77008 0.67408 0.61474 0.0
C3849 C 0.78127 0.65719 0.6121 0.0
C3850 C 0.77261 0.63992 0.60568 0.0
C3851 C 0.78323 0.62401 0.60338 0.0
C3852 C 0.80249 0.62516 0.6076 0.0
C3853 C 0.81117 0.64223 0.61415 0.0
C3854 C 0.80061 0.65819 0.61643 0.0
C3855 C 0.74351 0.71836 0.68257 0.0
C3856 C 0.76006 0.72859 0.68842 0.0
C3857 C 0.74321 0.70791 0.66569 0.0
C3858 C 0.75956 0.70736 0.65478 0.0
C3859 C 0.77646 0.71625 0.66148 0.0
C3860 C 0.77663 0.7271 0.67805 0.0
C3861 C 0.75896 0.6986 0.63582 0.0
C3862 C 0.7696 0.68278 0.63257 0.0
C3863 C 0.74855 0.70605 0.62087 0.0
C3864 C 0.73795 0.72353 0.62286 0.0
C3865 C 0.74674 0.74041 0.63015 0.0
C3866 C 0.737 0.75704 0.63087 0.0
C3867 C 0.71858 0.75711 0.62393 0.0
C3868 C 0.70984 0.74053 0.61633 0.0
C3869 C 0.71938 0.72379 0.61592 0.0
H3870 H 0.71113 0.77004 0.62428 0.0
H3871 H 0.81068 0.61281 0.60586 0.0
H3872 H 0.70927 0.58125 0.50289 0.0
H3873 H 0.67691 0.56909 0.50755 0.0
H3874 H 0.65616 0.61971 0.48408 0.0
H3875 H 0.68866 0.63234 0.48001 0.0
H3876 H 0.63535 0.60774 0.51504 0.0
H3877 H 0.65782 0.57977 0.457 0.0
H3878 H 0.68123 0.56301 0.43847 0.0
H3879 H 0.67453 0.51533 0.47461 0.0
H3880 H 0.65128 0.5319 0.49348 0.0
H3881 H 0.54366 0.55424 0.50039 0.0
H3882 H 0.57189 0.57528 0.49513 0.0
H3883 H 0.60642 0.53522 0.52176 0.0
H3884 H 0.579 0.51456 0.52717 0.0
H3885 H 0.61779 0.54528 0.48525 0.0
H3886 H 0.59932 0.57185 0.54478 0.0
H3887 H 0.5771 0.58693 0.56609 0.0
H3888 H 0.57705 0.63519 0.53056 0.0
H3889 H 0.59904 0.62021 0.50881 0.0
C3890 C 0.69785 0.58974 0.49855 0.0
C3891 C 0.70151 0.6076 0.49075 0.0
C3892 C 0.67935 0.58283 0.50133 0.0
C3893 C 0.66413 0.59339 0.4959 0.0
C3894 C 0.66771 0.61134 0.48834 0.0
C3895 C 0.68626 0.61843 0.48584 0.0
C3896 C 0.64461 0.5851 0.49719 0.0
C3897 C 0.63135 0.59427 0.50823 0.0
C3898 C 0.63951 0.5674 0.48854 0.0
C3899 C 0.65283 0.55709 0.47665 0.0
C3900 C 0.66134 0.56571 0.46097 0.0
C3901 C 0.6746 0.55626 0.45044 0.0
C3902 C 0.67937 0.53812 0.45536 0.0
C3903 C 0.67081 0.52936 0.47079 0.0
C3904 C 0.65756 0.53876 0.48138 0.0
C3905 C 0.55727 0.55005 0.5052 0.0
C3906 C 0.55906 0.53253 0.51383 0.0
C3907 C 0.57331 0.56206 0.50225 0.0
C3908 C 0.59117 0.5566 0.50789 0.0
C3909 C 0.59278 0.53955 0.51713 0.0
C3910 C 0.57697 0.52773 0.52015 0.0
C3911 C 0.60867 0.56768 0.50337 0.0
C3912 C 0.6216 0.559 0.49167 0.0
C3913 C 0.61347 0.58556 0.51173 0.0
C3914 C 0.60059 0.59477 0.52499 0.0
C3915 C 0.59443 0.58559 0.54139 0.0
C3916 C 0.5819 0.59413 0.55357 0.0
C3917 C 0.57559 0.61196 0.54963 0.0
C3918 C 0.5819 0.62134 0.53356 0.0
C3919 C 0.5944 0.61283 0.5213 0.0
H3920 H 0.56585 0.61854 0.55905 0.0
H3921 H 0.68969 0.53085 0.44723 0.0
H3922 H 0.20653 0.94798 0.50106 0.0
H3923 H 0.17587 0.96198 0.50323 0.0
H3924 H 0.14887 0.9063 0.50912 0.0
H3925 H 0.17937 0.8923 0.50549 0.0
H3926 H 0.12689 0.92504 0.4909 0.0
H3927 H 0.1602 0.93752 0.5481 0.0
H3928 H 0.1864 0.94851 0.56916 0.0
H3929 H 0.18186 0.0053 0.55037 0.0
H3930 H 0.15573 0.99461 0.52905 0.0
H3931 H 0.04835 0.95241 0.54344 0.0
H3932 H 0.08048 0.94316 0.53904 0.0
H3933 H 0.09256 0.99211 0.50526 0.0
H3934 H 0.06002 0.00141 0.50908 0.0
H3935 H 0.1216 0.97816 0.53681 0.0
H3936 H 0.08117 0.95992 0.48277 0.0
H3937 H 0.05338 0.94388 0.46753 0.0
H3938 H 0.06967 0.89058 0.4881 0.0
H3939 H 0.09725 0.90641 0.50409 0.0
C3940 C 0.19393 0.93879 0.50236 0.0
C3941 C 0.19513 0.91915 0.50307 0.0
C3942 C 0.17648 0.94677 0.50384 0.0
C3943 C 0.16011 0.93525 0.50689 0.0
C3944 C 0.16128 0.91551 0.5068 0.0
C3945 C 0.17866 0.9075 0.50468 0.0
C3946 C 0.14191 0.94377 0.51076 0.0
C3947 C 0.12577 0.93656 0.50104 0.0
C3948 C 0.14035 0.95873 0.52412 0.0
C3949 C 0.15616 0.96523 0.53681 0.0
C3950 C 0.16489 0.95233 0.54834 0.0
C3951 C 0.17971 0.95851 0.56035 0.0
C3952 C 0.18583 0.97758 0.56106 0.0
C3953 C 0.17712 0.99052 0.54979 0.0
C3954 C 0.16229 0.98442 0.53775 0.0
C3955 C 0.05781 0.96144 0.53526 0.0
C3956 C 0.0515 0.9775 0.5263 0.0
C3957 C 0.07618 0.95611 0.53284 0.0
C3958 C 0.08861 0.96685 0.52167 0.0
C3959 C 0.08296 0.98368 0.51389 0.0
C3960 C 0.0644 0.98891 0.51603 0.0
C3961 C 0.10689 0.95946 0.51685 0.0
C3962 C 0.12294 0.9668 0.52652 0.0
C3963 C 0.10813 0.94388 0.50426 0.0
C3964 C 0.09124 0.93446 0.49487 0.0
C3965 C 0.07864 0.94487 0.48447 0.0
C3966 C 0.06294 0.93578 0.4756 0.0
C3967 C 0.05974 0.91623 0.47689 0.0
C3968 C 0.07217 0.90574 0.48713 0.0
C3969 C 0.08783 0.91477 0.49611 0.0
H3970 H 0.04769 0.9092 0.4699 0.0
H3971 H 0.1973 0.98234 0.57037 0.0
H3972 H 0.37495 0.94886 0.74881 0.0
H3973 H 0.35881 0.9176 0.74832 0.0
H3974 H 0.30651 0.9426 0.76222 0.0
H3975 H 0.32256 0.97414 0.76259 0.0
H3976 H 0.31746 0.91343 0.78626 0.0
H3977 H 0.31116 0.92598 0.72017 0.0
H3978 H 0.32261 0.93427 0.68858 0.0
H3979 H 0.35636 0.88582 0.68751 0.0
H3980 H 0.34533 0.87739 0.71924 0.0
H3981 H 0.24549 0.84498 0.77029 0.0
H3982 H 0.26784 0.87219 0.77062 0.0
H3983 H 0.31237 0.83643 0.75394 0.0
H3984 H 0.28983 0.80892 0.75339 0.0
H3985 H 0.30995 0.86852 0.73194 0.0
H3986 H 0.31439 0.85439 0.79677 0.0
H3987 H 0.30262 0.84577 0.82817 0.0
H3988 H 0.27295 0.8969 0.83161 0.0
H3989 H 0.28431 0.90572 0.80013 0.0
C3990 C 0.35998 0.94774 0.75169 0.0
C3991 C 0.34999 0.96387 0.75597 0.0
C3992 C 0.3508 0.9299 0.75124 0.0
C3993 C 0.33156 0.92794 0.75518 0.0
C3994 C 0.32142 0.944 0.75911 0.0
C3995 C 0.33056 0.96192 0.75933 0.0
C3996 C 0.32233 0.90901 0.75669 0.0
C3997 C 0.31564 0.90365 0.77437 0.0
C3998 C 0.32088 0.89608 0.74128 0.0
C3999 C 0.3276 0.90119 0.72221 0.0
C4000 C 0.32119 0.91721 0.71331 0.0
C4001 C 0.32757 0.92191 0.69534 0.0
C4002 C 0.34026 0.91062 0.68607 0.0
C4003 C 0.34656 0.89458 0.69472 0.0
C4004 C 0.34024 0.88983 0.7127 0.0
C4005 C 0.26009 0.84281 0.76698 0.0
C4006 C 0.26596 0.82484 0.76184 0.0
C4007 C 0.27284 0.85836 0.76722 0.0
C4008 C 0.29172 0.85622 0.76242 0.0
C4009 C 0.29783 0.83826 0.75775 0.0
C4010 C 0.28502 0.82258 0.75761 0.0
C4011 C 0.30453 0.87318 0.76142 0.0
C4012 C 0.31203 0.87818 0.74389 0.0
C4013 C 0.30686 0.8858 0.77699 0.0
C4014 C 0.30014 0.88067 0.79604 0.0
C4015 C 0.30526 0.86374 0.80418 0.0
C4016 C 0.29868 0.85883 0.822 0.0
C4017 C 0.28703 0.87077 0.83187 0.0
C4018 C 0.28198 0.88767 0.82396 0.0
C4019 C 0.28852 0.89265 0.80613 0.0
H4020 H 0.28193 0.86693 0.84566 0.0
H4021 H 0.34517 0.91428 0.67216 0.0
H4022 H 0.32937 0.12734 0.00099 0.0
H4023 H 0.36092 0.11556 0.00455 0.0
H4024 H 0.33909 0.05953 0.98802 0.0
H4025 H 0.30734 0.07111 0.98611 0.0
H4026 H 0.36043 0.05638 0.01595 0.0
H4027 H 0.3681 0.09448 0.95915 0.0
H4028 H 0.36832 0.12425 0.9417 0.0
H4029 H 0.40903 0.14985 0.98056 0.0
H4030 H 0.40886 0.12034 -0.00163 0.0
H4031 H 0.44041 0.00812 5e-05 0.0
H4032 H 0.4129 0.0257 0.9922 0.0
H4033 H 0.44092 0.07683 0.01474 0.0
H4034 H 0.46863 0.05921 0.0222 0.0
H4035 H 0.41786 0.08537 0.98714 0.0
H4036 H 0.41306 0.04994 0.04209 0.0
H4037 H 0.4142 0.02227 0.06242 0.0
H4038 H 0.3696 0.99374 0.03015 0.0
H4039 H 0.36845 0.02111 0.00936 0.0
C4040 C 0.33148 0.11259 -0.00218 0.0
C4041 C 0.31612 0.10012 0.99301 0.0
C4042 C 0.34952 0.10585 -0.0002 0.0
C4043 C 0.3526 0.08666 0.99621 0.0
C4044 C 0.33718 0.07437 0.99089 0.0
C4045 C 0.31908 0.08098 0.98961 0.0
C4046 C 0.37155 0.07898 -0.00132 0.0
C4047 C 0.3729 0.0625 0.00918 0.0
C4048 C 0.38819 0.0876 0.99102 0.0
C4049 C 0.38828 0.10528 0.98021 0.0
C4050 C 0.37699 0.1065 0.96403 0.0
C4051 C 0.37712 0.12333 0.95408 0.0
C4052 C 0.38863 0.13895 0.96006 0.0
C4053 C 0.40009 0.13776 0.97597 0.0
C4054 C 0.39998 0.121 0.98599 0.0
C4055 C 0.44111 0.02332 0.00223 0.0
C4056 C 0.45668 0.03241 0.01143 0.0
C4057 C 0.42526 0.03333 -0.00195 0.0
C4058 C 0.42467 0.05252 0.00323 0.0
C4059 C 0.44103 0.06205 0.01058 0.0
C4060 C 0.45696 0.05203 0.01464 0.0
C4061 C 0.40648 0.06198 0.00282 0.0
C4062 C 0.40536 0.07899 0.99331 0.0
C4063 C 0.39014 0.05406 0.01159 0.0
C4064 C 0.39081 0.03752 0.02403 0.0
C4065 C 0.40361 0.0377 0.03921 0.0
C4066 C 0.40425 0.02207 0.05083 0.0
C4067 C 0.39202 0.00623 0.04755 0.0
C4068 C 0.3791 0.006 0.03265 0.0
C4069 C 0.37845 0.02157 0.02093 0.0
H4070 H 0.39251 0.99416 0.05658 0.0
H4071 H 0.38871 0.15195 0.95233 0.0
H4072 H 0.68645 0.55356 0.77369 0.0
H4073 H 0.69952 0.58576 0.76766 0.0
H4074 H 0.64735 0.59905 0.74104 0.0
H4075 H 0.63399 0.56734 0.74771 0.0
H4076 H 0.68538 0.60796 0.72039 0.0
H4077 H 0.64919 0.61873 0.77603 0.0
H4078 H 0.63832 0.61154 0.80807 0.0
H4079 H 0.69483 0.62113 0.82917 0.0
H4080 H 0.70611 0.62804 0.79713 0.0
H4081 H 0.70715 0.71409 0.7396 0.0
H4082 H 0.68884 0.6839 0.73475 0.0
H4083 H 0.73872 0.65373 0.74545 0.0
H4084 H 0.75702 0.68358 0.74966 0.0
H4085 H 0.69748 0.65508 0.77225 0.0
H4086 H 0.73325 0.63733 0.7145 0.0
H4087 H 0.74353 0.64575 0.68253 0.0
H4088 H 0.68592 0.65082 0.66573 0.0
H4089 H 0.67536 0.64283 0.69779 0.0
C4090 C 0.67779 0.56344 0.76669 0.0
C4091 C 0.65921 0.55809 0.7613 0.0
C4092 C 0.68524 0.58173 0.76321 0.0
C4093 C 0.67437 0.59463 0.75382 0.0
C4094 C 0.65591 0.58923 0.74825 0.0
C4095 C 0.6483 0.5712 0.75222 0.0
C4096 C 0.68226 0.61388 0.75005 0.0
C4097 C 0.68783 0.61834 0.73167 0.0
C4098 C 0.68526 0.62742 0.76476 0.0
C4099 C 0.67854 0.62368 0.78413 0.0
C4100 C 0.65934 0.61913 0.78746 0.0
C4101 C 0.65309 0.61514 0.80563 0.0
C4102 C 0.66589 0.61581 0.82064 0.0
C4103 C 0.68494 0.62057 0.81752 0.0
C4104 C 0.69127 0.62455 0.79935 0.0
C4105 C 0.71442 0.70103 0.73959 0.0
C4106 C 0.73346 0.70107 0.74498 0.0
C4107 C 0.7039 0.68381 0.73718 0.0
C4108 C 0.71246 0.66668 0.73996 0.0
C4109 C 0.73192 0.66681 0.7431 0.0
C4110 C 0.74241 0.68389 0.74526 0.0
C4111 C 0.70102 0.64894 0.7427 0.0
C4112 C 0.69477 0.64478 0.76093 0.0
C4113 C 0.69734 0.63571 0.7279 0.0
C4114 C 0.70356 0.63974 0.70853 0.0
C4115 C 0.7228 0.64041 0.70402 0.0
C4116 C 0.72868 0.64508 0.6859 0.0
C4117 C 0.71539 0.64889 0.67212 0.0
C4118 C 0.69619 0.64792 0.67643 0.0
C4119 C 0.69026 0.64333 0.69457 0.0
H4120 H 0.71997 0.65255 0.6581 0.0
H4121 H 0.66103 0.6127 0.8347 0.0
H4122 H 0.79865 0.43629 0.00839 0.0
H4123 H 0.83099 0.44971 0.00835 0.0
H4124 H 0.85099 0.39552 0.9916 0.0
H4125 H 0.81866 0.38183 0.99176 0.0
H4126 H 0.87226 0.41512 0.02126 0.0
H4127 H 0.84793 0.42639 0.95899 0.0
H4128 H 0.82324 0.43711 0.93782 0.0
H4129 H 0.82965 0.49298 0.96232 0.0
H4130 H 0.85418 0.48253 0.98383 0.0
H4131 H 0.9625 0.46543 0.00436 0.0
H4132 H 0.93487 0.44327 0.00039 0.0
H4133 H 0.89826 0.48924 0.00917 0.0
H4134 H 0.92532 0.51124 0.01287 0.0
H4135 H 0.88786 0.46848 0.979 0.0
H4136 H 0.90592 0.45933 0.04321 0.0
H4137 H 0.92392 0.45011 0.07097 0.0
H4138 H 0.92567 0.39354 0.04853 0.0
H4139 H 0.90792 0.4025 0.02045 0.0
C4140 C 0.80989 0.42723 0.00461 0.0
C4141 C 0.80611 0.40807 -0.00012 0.0
C4142 C 0.82833 0.4349 0.00465 0.0
C4143 C 0.84321 0.42358 -0.00021 0.0
C4144 C 0.83959 0.4044 0.99534 0.0
C4145 C 0.82113 0.39669 0.99532 0.0
C4146 C 0.86249 0.43209 -0.00116 0.0
C4147 C 0.87597 0.42647 0.01172 0.0
C4148 C 0.8669 0.44713 0.98666 0.0
C4149 C 0.85291 0.45367 0.973 0.0
C4150 C 0.84409 0.44097 0.95984 0.0
C4151 C 0.83009 0.44699 0.94781 0.0
C4152 C 0.82489 0.46571 0.94872 0.0
C4153 C 0.83373 0.47849 0.9616 0.0
C4154 C 0.84771 0.47254 0.97368 0.0
C4155 C 0.94854 0.47078 0.00529 0.0
C4156 C 0.94613 0.49011 0.00884 0.0
C4157 C 0.93283 0.45811 0.00317 0.0
C4158 C 0.9146 0.46469 0.0045 0.0
C4159 C 0.91223 0.48392 0.00798 0.0
C4160 C 0.92778 0.49649 0.01012 0.0
C4161 C 0.89765 0.45197 0.00189 0.0
C4162 C 0.88454 0.45673 0.98817 0.0
C4163 C 0.89345 0.43651 0.01372 0.0
C4164 C 0.90584 0.43167 0.02956 0.0
C4165 C 0.91052 0.44504 0.04396 0.0
C4166 C 0.92057 0.43983 0.05981 0.0
C4167 C 0.92585 0.42124 0.06152 0.0
C4168 C 0.92153 0.40793 0.04718 0.0
C4169 C 0.91152 0.41308 0.03128 0.0
H4170 H 0.93304 0.41707 0.07408 0.0
H4171 H 0.814 0.47033 0.93944 0.0
H4172 H 0.34045 0.06922 0.72282 0.0
H4173 H 0.3278 0.10044 0.722 0.0
H4174 H 0.33881 0.10824 0.78144 0.0
H4175 H 0.352 0.07683 0.78231 0.0
H4176 H 0.30046 0.11219 0.76912 0.0
H4177 H 0.36299 0.13586 0.75431 0.0
H4178 H 0.39331 0.13754 0.73758 0.0
H4179 H 0.3645 0.14625 0.68552 0.0
H4180 H 0.33397 0.14438 0.70186 0.0
H4181 H 0.26918 0.20681 0.76599 0.0
H4182 H 0.28375 0.17701 0.77181 0.0
H4183 H 0.28518 0.16526 0.71205 0.0
H4184 H 0.27093 0.1952 0.70617 0.0
H4185 H 0.31978 0.16533 0.72787 0.0
H4186 H 0.2585 0.13695 0.7392 0.0
H4187 H 0.2269 0.13474 0.75341 0.0
H4188 H 0.25183 0.1334 0.80848 0.0
H4189 H 0.28362 0.13577 0.79458 0.0
C4190 C 0.34031 0.07762 0.73571 0.0
C4191 C 0.34686 0.07056 0.75272 0.0
C4192 C 0.3333 0.09552 0.73516 0.0
C4193 C 0.3325 0.10658 0.75163 0.0
C4194 C 0.33947 0.09984 0.76859 0.0
C4195 C 0.34688 0.08196 0.76909 0.0
C4196 C 0.32225 0.12404 0.75123 0.0
C4197 C 0.30488 0.12407 0.7605 0.0
C4198 C 0.32778 0.13903 0.7393 0.0
C4199 C 0.34614 0.13981 0.72933 0.0
C4200 C 0.36308 0.13792 0.73927 0.0
C4201 C 0.38032 0.13897 0.72985 0.0
C4202 C 0.38083 0.14196 0.7105 0.0
C4203 C 0.36409 0.14392 0.70051 0.0
C4204 C 0.34681 0.1429 0.70985 0.0
C4205 C 0.27186 0.19749 0.75417 0.0
C4206 C 0.26914 0.20328 0.73565 0.0
C4207 C 0.28031 0.18055 0.75749 0.0
C4208 C 0.28577 0.16916 0.74232 0.0
C4209 C 0.28128 0.17405 0.7239 0.0
C4210 C 0.27301 0.19101 0.72058 0.0
C4211 C 0.29785 0.15326 0.74548 0.0
C4212 C 0.31551 0.15357 0.73672 0.0
C4213 C 0.29243 0.13836 0.75747 0.0
C4214 C 0.2734 0.13671 0.76588 0.0
C4215 C 0.25723 0.1363 0.75435 0.0
C4216 C 0.2393 0.13499 0.76234 0.0
C4217 C 0.23736 0.13398 0.78184 0.0
C4218 C 0.25336 0.1342 0.79338 0.0
C4219 C 0.27134 0.13549 0.78545 0.0
H4220 H 0.22346 0.13299 0.788 0.0
H4221 H 0.39419 0.14278 0.70324 0.0
H4222 H 0.13516 0.93185 0.26567 0.0
H4223 H 0.1451 0.89927 0.2654 0.0
H4224 H 0.20307 0.91998 0.25991 0.0
H4225 H 0.19298 0.95233 0.25894 0.0
H4226 H 0.19691 0.89268 0.23669 0.0
H4227 H 0.18009 0.90123 0.30306 0.0
H4228 H 0.15815 0.90729 0.329 0.0
H4229 H 0.12143 0.86064 0.30976 0.0
H4230 H 0.14304 0.85449 0.28357 0.0
H4231 H 0.25069 0.8187 0.25732 0.0
H4232 H 0.23416 0.84714 0.26496 0.0
H4233 H 0.18086 0.81554 0.25835 0.0
H4234 H 0.19752 0.78696 0.25065 0.0
H4235 H 0.18032 0.84558 0.28539 0.0
H4236 H 0.19751 0.83455 0.22183 0.0
H4237 H 0.21781 0.82768 0.19484 0.0
H4238 H 0.25195 0.87837 0.20687 0.0
H4239 H 0.23213 0.88533 0.23423 0.0
C4240 C 0.15003 0.92938 0.26468 0.0
C4241 C 0.16335 0.94454 0.26246 0.0
C4242 C 0.15572 0.91076 0.26457 0.0
C4243 C 0.1749 0.90708 0.2629 0.0
C4244 C 0.18819 0.92237 0.26116 0.0
C4245 C 0.18246 0.94087 0.26073 0.0
C4246 C 0.18135 0.88743 0.26216 0.0
C4247 C 0.1935 0.88253 0.24755 0.0
C4248 C 0.17605 0.87368 0.27563 0.0
C4249 C 0.16306 0.87755 0.29127 0.0
C4250 C 0.16726 0.89238 0.30429 0.0
C4251 C 0.15489 0.89581 0.31904 0.0
C4252 C 0.13838 0.8844 0.32099 0.0
C4253 C 0.1342 0.8695 0.30821 0.0
C4254 C 0.14649 0.86604 0.29342 0.0
C4255 C 0.23549 0.81757 0.25869 0.0
C4256 C 0.22532 0.80073 0.25354 0.0
C4257 C 0.22605 0.83389 0.2627 0.0
C4258 C 0.20632 0.8335 0.26162 0.0
C4259 C 0.19611 0.81611 0.25906 0.0
C4260 C 0.20562 0.79973 0.25498 0.0
C4261 C 0.19675 0.85149 0.26071 0.0
C4262 C 0.18379 0.85587 0.27468 0.0
C4263 C 0.20116 0.86474 0.24653 0.0
C4264 C 0.21344 0.86033 0.2303 0.0
C4265 C 0.2095 0.8441 0.21892 0.0
C4266 C 0.2209 0.84021 0.20351 0.0
C4267 C 0.2362 0.85255 0.19918 0.0
C4268 C 0.24013 0.86879 0.21027 0.0
C4269 C 0.22883 0.8727 0.22575 0.0
H4270 H 0.24496 0.84955 0.1872 0.0
H4271 H 0.12884 0.88706 0.33243 0.0
H4272 H 0.53045 0.32033 0.41476 0.0
H4273 H 0.53041 0.35279 0.42776 0.0
H4274 H 0.47103 0.34498 0.43923 0.0
H4275 H 0.47107 0.31251 0.42695 0.0
H4276 H 0.48709 0.38017 0.41645 0.0
H4277 H 0.49119 0.3444 0.47449 0.0
H4278 H 0.50662 0.32033 0.49279 0.0
H4279 H 0.55927 0.35286 0.49025 0.0
H4280 H 0.54418 0.377 0.47165 0.0
H4281 H 0.48315 0.45413 0.49776 0.0
H4282 H 0.47537 0.42577 0.47828 0.0
H4283 H 0.52626 0.43613 0.44664 0.0
H4284 H 0.53406 0.46432 0.4661 0.0
H4285 H 0.51302 0.39948 0.47925 0.0
H4286 H 0.50821 0.41575 0.40388 0.0
H4287 H 0.49341 0.43441 0.37945 0.0
H4288 H 0.44432 0.43894 0.41386 0.0
H4289 H 0.45893 0.42033 0.43851 0.0
C4290 C 0.51747 0.32551 0.42023 0.0
C4291 C 0.5008 0.31388 0.41998 0.0
C4292 C 0.51745 0.34401 0.4276 0.0
C4293 C 0.50069 0.35119 0.43436 0.0
C4294 C 0.48407 0.33963 0.43406 0.0
C4295 C 0.48417 0.32107 0.42716 0.0
C4296 C 0.50036 0.37087 0.44161 0.0
C4297 C 0.49266 0.38441 0.43023 0.0
C4298 C 0.5078 0.37631 0.45946 0.0
C4299 C 0.51659 0.36245 0.47162 0.0
C4300 C 0.50606 0.3464 0.47781 0.0
C4301 C 0.51475 0.33274 0.48822 0.0
C4302 C 0.53392 0.33505 0.49265 0.0
C4303 C 0.54442 0.3511 0.4868 0.0
C4304 C 0.5358 0.36479 0.47636 0.0
C4305 C 0.49193 0.45113 0.48579 0.0
C4306 C 0.50904 0.46156 0.48329 0.0
C4307 C 0.48765 0.43473 0.47484 0.0
C4308 C 0.5003 0.42881 0.46108 0.0
C4309 C 0.51622 0.44053 0.45704 0.0
C4310 C 0.52055 0.45678 0.46806 0.0
C4311 C 0.49938 0.40889 0.45417 0.0
C4312 C 0.50719 0.39526 0.46558 0.0
C4313 C 0.49232 0.40339 0.43619 0.0
C4314 C 0.4847 0.4169 0.42303 0.0
C4315 C 0.49436 0.42097 0.4063 0.0
C4316 C 0.48594 0.43135 0.39235 0.0
C4317 C 0.46783 0.43764 0.39501 0.0
C4318 C 0.4583 0.43396 0.4118 0.0
C4319 C 0.4667 0.42363 0.42582 0.0
H4320 H 0.46129 0.44561 0.38416 0.0
H4321 H 0.54064 0.32442 0.50064 0.0
H4322 H 0.43959 0.78174 0.15374 0.0
H4323 H 0.40734 0.78108 0.16616 0.0
H4324 H 0.41459 0.72584 0.18862 0.0
H4325 H 0.44676 0.72653 0.17673 0.0
H4326 H 0.37817 0.7325 0.16812 0.0
H4327 H 0.42182 0.75829 0.21753 0.0
H4328 H 0.44673 0.7816 0.2285 0.0
H4329 H 0.41114 0.82688 0.21606 0.0
H4330 H 0.38614 0.80382 0.20473 0.0
H4331 H 0.30027 0.72627 0.23181 0.0
H4332 H 0.3324 0.72379 0.21943 0.0
H4333 H 0.33607 0.784 0.21053 0.0
H4334 H 0.30455 0.78649 0.22299 0.0
H4335 H 0.36752 0.7739 0.22369 0.0
H4336 H 0.32304 0.75204 0.17739 0.0
H4337 H 0.29817 0.73282 0.16059 0.0
H4338 H 0.3333 0.68544 0.15926 0.0
H4339 H 0.35795 0.70392 0.17719 0.0
C4340 C 0.43422 0.76947 0.16128 0.0
C4341 C 0.44566 0.75434 0.1646 0.0
C4342 C 0.41588 0.76908 0.16824 0.0
C4343 C 0.4088 0.75341 0.17825 0.0
C4344 C 0.41993 0.73799 0.18088 0.0
C4345 C 0.43831 0.73853 0.17427 0.0
C4346 C 0.39035 0.75355 0.18734 0.0
C4347 C 0.37571 0.74128 0.18045 0.0
C4348 C 0.38734 0.76559 0.2029 0.0
C4349 C 0.4022 0.77936 0.21016 0.0
C4350 C 0.41937 0.77322 0.21703 0.0
C4351 C 0.43349 0.78639 0.22332 0.0
C4352 C 0.43053 0.80572 0.22294 0.0
C4353 C 0.41342 0.81191 0.21633 0.0
C4354 C 0.39927 0.7988 0.20999 0.0
C4355 C 0.3083 0.73897 0.22776 0.0
C4356 C 0.30015 0.75659 0.22837 0.0
C4357 C 0.32644 0.73752 0.22046 0.0
C4358 C 0.33645 0.7537 0.21385 0.0
C4359 C 0.3286 0.77136 0.21555 0.0
C4360 C 0.31064 0.77278 0.22271 0.0
C4361 C 0.35492 0.75263 0.20466 0.0
C4362 C 0.36974 0.76481 0.21153 0.0
C4363 C 0.35776 0.74094 0.1886 0.0
C4364 C 0.34227 0.72932 0.17911 0.0
C4365 C 0.32531 0.73737 0.17407 0.0
C4366 C 0.31125 0.72661 0.16427 0.0
C4367 C 0.31416 0.70793 0.15895 0.0
C4368 C 0.33108 0.69992 0.16345 0.0
C4369 C 0.345 0.71046 0.17365 0.0
H4370 H 0.30328 0.69965 0.15142 0.0
H4371 H 0.44149 0.81589 0.2278 0.0
H4372 H 0.97998 0.69234 0.8992 0.0
H4373 H 0.97964 0.65985 0.91055 0.0
H4374 H 0.03258 0.67255 0.93924 0.0
H4375 H 0.03298 0.70493 0.9281 0.0
H4376 H 0.03163 0.63752 0.92096 0.0
H4377 H 0.99441 0.67249 0.96372 0.0
H4378 H 0.96924 0.69332 0.97301 0.0
H4379 H 0.92749 0.65287 0.95044 0.0
H4380 H 0.95248 0.6319 0.94072 0.0
H4381 H 0.02405 0.57454 0.00024 0.0
H4382 H 0.02954 0.59935 0.97705 0.0
H4383 H 0.98091 0.57744 0.94548 0.0
H4384 H 0.97585 0.55232 0.96831 0.0
H4385 H 0.97912 0.61531 0.96204 0.0
H4386 H 0.01846 0.57807 0.92382 0.0
H4387 H 0.0449 0.5577 0.91814 0.0
H4388 H 0.08422 0.60304 0.93508 0.0
H4389 H 0.05797 0.62357 0.94151 0.0
C4390 C 0.99154 0.68819 0.90791 0.0
C4391 C 0.00642 0.70126 0.91289 0.0
C4392 C 0.99136 0.66963 0.91433 0.0
C4393 C 0.00611 0.6638 0.92573 0.0
C4394 C 0.02113 0.67671 0.93037 0.0
C4395 C 0.02123 0.69528 0.92413 0.0
C4396 C 0.00542 0.64459 0.93374 0.0
C4397 C 0.02019 0.63265 0.92999 0.0
C4398 C 0.99042 0.63822 0.94539 0.0
C4399 C 0.97533 0.65074 0.95125 0.0
C4400 C 0.97988 0.66812 0.96056 0.0
C4401 C 0.96564 0.67994 0.96594 0.0
C4402 C 0.94678 0.67446 0.96225 0.0
C4403 C 0.94212 0.65711 0.95323 0.0
C4404 C 0.95631 0.64525 0.94778 0.0
C4405 C 0.01541 0.57423 0.98764 0.0
C4406 C -0.00017 0.5613 0.98577 0.0
C4407 C 0.01834 0.58858 0.97455 0.0
C4408 C 0.00549 0.5903 0.95967 0.0
C4409 C 0.99097 0.57633 0.95685 0.0
C4410 C 0.98825 0.56184 0.96975 0.0
C4411 C 0.00528 0.60818 0.94922 0.0
C4412 C 0.99038 0.61998 0.95269 0.0
C4413 C 0.02032 0.61448 0.93762 0.0
C4414 C 0.03619 0.60233 0.93333 0.0
C4415 C 0.03272 0.58368 0.92651 0.0
C4416 C 0.04769 0.57209 0.92312 0.0
C4417 C 0.06623 0.57905 0.92621 0.0
C4418 C 0.06984 0.59765 0.9327 0.0
C4419 C 0.05492 0.60927 0.93624 0.0
H4420 H 0.07779 0.57004 0.92358 0.0
H4421 H 0.93578 0.68362 0.96644 0.0
H4422 H 0.0433 0.25491 0.67957 0.0
H4423 H 0.07491 0.25245 0.69243 0.0
H4424 H 0.09895 0.26952 0.6394 0.0
H4425 H 0.0673 0.27156 0.62623 0.0
H4426 H 0.11529 0.23876 0.6532 0.0
H4427 H 0.10013 0.30026 0.67593 0.0
H4428 H 0.0796 0.32299 0.69106 0.0
H4429 H 0.08117 0.29239 0.74249 0.0
H4430 H 0.1015 0.26932 0.7276 0.0
H4431 H 0.20721 0.2597 0.69797 0.0
H4432 H 0.17847 0.25793 0.67851 0.0
H4433 H 0.14629 0.23792 0.7261 0.0
H4434 H 0.17474 0.23985 0.74548 0.0
H4435 H 0.13564 0.27213 0.71246 0.0
H4436 H 0.14953 0.21003 0.68967 0.0
H4437 H 0.1688 0.18626 0.67445 0.0
H4438 H 0.1693 0.21745 0.6233 0.0
H4439 H 0.15027 0.24159 0.63832 0.0
C4440 C 0.0553 0.25842 0.67074 0.0
C4441 C 0.0529 0.26346 0.65194 0.0
C4442 C 0.07332 0.25696 0.67807 0.0
C4443 C 0.08916 0.26091 0.66684 0.0
C4444 C 0.08683 0.26636 0.6482 0.0
C4445 C 0.06879 0.26763 0.64078 0.0
C4446 C 0.10815 0.25908 0.67463 0.0
C4447 C 0.11996 0.24628 0.66597 0.0
C4448 C 0.11394 0.26875 0.6914 0.0
C4449 C 0.10228 0.28301 0.70062 0.0
C4450 C 0.09606 0.29835 0.69046 0.0
C4451 C 0.08445 0.31129 0.69899 0.0
C4452 C 0.07907 0.30912 0.71772 0.0
C4453 C 0.08536 0.29406 0.72799 0.0
C4454 C 0.09696 0.28107 0.71952 0.0
C4455 C 0.19411 0.25425 0.70397 0.0
C4456 C 0.19298 0.25016 0.72316 0.0
C4457 C 0.17776 0.25328 0.69292 0.0
C4458 C 0.16036 0.24801 0.70104 0.0
C4459 C 0.15963 0.24215 0.71971 0.0
C4460 C 0.17583 0.24326 0.73072 0.0
C4461 C 0.14262 0.25143 0.69133 0.0
C4462 C 0.1311 0.26472 0.69958 0.0
C4463 C 0.13718 0.24222 0.67423 0.0
C4464 C 0.14869 0.22776 0.66521 0.0
C4465 C 0.15393 0.21195 0.67525 0.0
C4466 C 0.16477 0.19838 0.66664 0.0
C4467 C 0.17034 0.20038 0.64795 0.0
C4468 C 0.16502 0.21594 0.6378 0.0
C4469 C 0.15421 0.22957 0.64635 0.0
H4470 H 0.17871 0.18985 0.6413 0.0
H4471 H 0.07003 0.31912 0.72428 0.0
H4472 H 0.51304 0.69506 0.13124 0.0
H4473 H 0.51681 0.66327 0.11874 0.0
H4474 H 0.48833 0.6773 0.06756 0.0
H4475 H 0.48487 0.70963 0.07989 0.0
H4476 H 0.47566 0.64196 0.08467 0.0
H4477 H 0.53001 0.67509 0.06281 0.0
H4478 H 0.55858 0.69637 0.06331 0.0
H4479 H 0.58501 0.66015 0.10197 0.0
H4480 H 0.55639 0.63882 0.10204 0.0
H4481 H 0.50378 0.57281 0.02237 0.0
H4482 H 0.49876 0.60179 0.03967 0.0
H4483 H 0.52719 0.58049 0.08802 0.0
H4484 H 0.53238 0.55075 0.0703 0.0
H4485 H 0.53948 0.61839 0.07475 0.0
H4486 H 0.48159 0.58229 0.08944 0.0
H4487 H 0.4548 0.5612 0.0786 0.0
H4488 H 0.43535 0.60495 0.04368 0.0
H4489 H 0.4623 0.62612 0.05383 0.0
C4490 C 0.50745 0.69136 0.11737 0.0
C4491 C 0.49858 0.70466 0.10649 0.0
C4492 C 0.50972 0.67328 0.11025 0.0
C4493 C 0.5029 0.66815 0.0923 0.0
C4494 C 0.49366 0.6812 0.08148 0.0
C4495 C 0.49174 0.69954 0.08846 0.0
C4496 C 0.50552 0.64899 0.08509 0.0
C4497 C 0.48957 0.63675 0.08244 0.0
C4498 C 0.52375 0.64247 0.08227 0.0
C4499 C 0.54087 0.65551 0.08272 0.0
C4500 C 0.54176 0.67181 0.07169 0.0
C4501 C 0.55801 0.68385 0.0718 0.0
C4502 C 0.57357 0.67967 0.08274 0.0
C4503 C 0.57291 0.66341 0.09357 0.0
C4504 C 0.55667 0.65134 0.09355 0.0
C4505 C 0.50881 0.57415 0.03676 0.0
C4506 C 0.51846 0.55971 0.04512 0.0
C4507 C 0.50588 0.59068 0.04661 0.0
C4508 C 0.51238 0.59305 0.06511 0.0
C4509 C 0.52197 0.57865 0.07372 0.0
C4510 C 0.52488 0.56181 0.06374 0.0
C4511 C 0.50965 0.6112 0.07465 0.0
C4512 C 0.5256 0.62341 0.07759 0.0
C4513 C 0.49137 0.61789 0.07694 0.0
C4514 C 0.47411 0.60579 0.07234 0.0
C4515 C 0.4716 0.58744 0.07947 0.0
C4516 C 0.45643 0.57543 0.07336 0.0
C4517 C 0.44349 0.5817 0.06033 0.0
C4518 C 0.44545 0.6001 0.0537 0.0
C4519 C 0.46067 0.61212 0.05964 0.0
H4520 H 0.43197 0.57228 0.05531 0.0
H4521 H 0.58616 0.68897 0.08276 0.0
H4522 H 0.06371 0.77633 0.87148 0.0
H4523 H 0.09399 0.78005 0.85548 0.0
H4524 H 0.07057 0.74901 0.80726 0.0
H4525 H 0.03989 0.74569 0.82305 0.0
H4526 H 0.1036 0.73449 0.82587 0.0
H4527 H 0.08174 0.79085 0.79975 0.0
H4528 H 0.06768 0.82188 0.80049 0.0
H4529 H 0.1133 0.84476 0.83525 0.0
H4530 H 0.12751 0.81375 0.835 0.0
H4531 H 0.18029 0.74664 0.76285 0.0
H4532 H 0.15217 0.74062 0.7818 0.0
H4533 H 0.17342 0.78204 0.82303 0.0
H4534 H 0.20165 0.78785 0.80407 0.0
H4535 H 0.141 0.79233 0.80782 0.0
H4536 H 0.15891 0.73762 0.83996 0.0
H4537 H 0.17011 0.7063 0.84649 0.0
H4538 H 0.13227 0.6812 0.80451 0.0
H4539 H 0.12026 0.71256 0.79833 0.0
C4540 C 0.06498 0.77043 0.8574 0.0
C4541 C 0.04964 0.76045 0.84855 0.0
C4542 C 0.08218 0.77277 0.84823 0.0
C4543 C 0.08437 0.7649 0.83021 0.0
C4544 C 0.06897 0.75531 0.82113 0.0
C4545 C 0.05158 0.75333 0.83015 0.0
C4546 C 0.10336 0.7645 0.82213 0.0
C4547 C 0.11166 0.74707 0.82147 0.0
C4548 C 0.11402 0.78112 0.81741 0.0
C4549 C 0.1056 0.79987 0.81753 0.0
C4550 C 0.0887 0.80243 0.80773 0.0
C4551 C 0.08071 0.82003 0.80802 0.0
C4552 C 0.08956 0.83527 0.81796 0.0
C4553 C 0.10645 0.83294 0.82758 0.0
C4554 C 0.11449 0.81534 0.82735 0.0
C4555 C 0.17961 0.75337 0.77663 0.0
C4556 C 0.19314 0.76754 0.78213 0.0
C4557 C 0.16336 0.75017 0.78736 0.0
C4558 C 0.16054 0.76117 0.80366 0.0
C4559 C 0.17524 0.77352 0.81041 0.0
C4560 C 0.19153 0.77658 0.79975 0.0
C4561 C 0.14131 0.76216 0.81149 0.0
C4562 C 0.13293 0.77973 0.81209 0.0
C4563 C 0.13053 0.74576 0.81646 0.0
C4564 C 0.13897 0.72737 0.81848 0.0
C4565 C 0.15324 0.72546 0.8319 0.0
C4566 C 0.15962 0.70765 0.83563 0.0
C4567 C 0.1521 0.69169 0.82574 0.0
C4568 C 0.13814 0.69356 0.8121 0.0
C4569 C 0.13145 0.71133 0.80857 0.0
H4570 H 0.1569 0.67784 0.82873 0.0
H4571 H 0.08336 0.84889 0.81817 0.0
H4572 H 0.02214 0.30635 0.56909 0.0
H4573 H 0.0231 0.33905 0.55887 0.0
H4574 H 0.98625 0.35348 0.60435 0.0
H4575 H 0.98509 0.32071 0.61464 0.0
H4576 H 0.97379 0.36487 0.57131 0.0
H4577 H 0.0317 0.36944 0.60533 0.0
H4578 H 0.0636 0.36161 0.61521 0.0
H4579 H 0.08402 0.37147 0.55937 0.0
H4580 H 0.05217 0.37914 0.54907 0.0
H4581 H 0.97728 0.46235 0.56581 0.0
H4582 H 0.98249 0.43069 0.57597 0.0
H4583 H 0.01467 0.42022 0.52595 0.0
H4584 H 0.01 0.45257 0.51568 0.0
H4585 H 0.03068 0.40675 0.55997 0.0
H4586 H 0.97057 0.40242 0.52713 0.0
H4587 H 0.93877 0.41295 0.52027 0.0
H4588 H 0.92288 0.40436 0.57777 0.0
H4589 H 0.95464 0.39395 0.585 0.0
C4590 C 0.01421 0.31647 0.57693 0.0
C4591 C 0.00332 0.31092 0.59252 0.0
C4592 C 0.01499 0.33519 0.5712 0.0
C4593 C 0.00492 0.34866 0.58098 0.0
C4594 C 0.99417 0.34323 0.59667 0.0
C4595 C 0.9934 0.32451 0.60243 0.0
C4596 C 0.00404 0.36794 0.57372 0.0
C4597 C 0.98624 0.37407 0.56903 0.0
C4598 C 0.02036 0.37974 0.57036 0.0
C4599 C 0.03945 0.37461 0.57636 0.0
C4600 C 0.04292 0.36969 0.59508 0.0
C4601 C 0.06102 0.36536 0.60078 0.0
C4602 C 0.07581 0.36597 0.58791 0.0
C4603 C 0.07254 0.37095 0.56932 0.0
C4604 C 0.05446 0.37531 0.56354 0.0
C4605 C 0.98534 0.45339 0.55675 0.0
C4606 C 0.99292 0.45993 0.53969 0.0
C4607 C 0.98837 0.43528 0.56269 0.0
C4608 C -0.0013 0.4231 0.55158 0.0
C4609 C 0.00657 0.42949 0.53465 0.0
C4610 C 0.00372 0.44785 0.52873 0.0
C4611 C 0.00046 0.4035 0.55764 0.0
C4612 C 0.01835 0.39735 0.56208 0.0
C4613 C 0.98423 0.39168 0.56106 0.0
C4614 C 0.96498 0.39747 0.5566 0.0
C4615 C 0.9603 0.40282 0.53831 0.0
C4616 C 0.94228 0.40877 0.53436 0.0
C4617 C 0.92882 0.40934 0.54858 0.0
C4618 C 0.93331 0.4039 0.56676 0.0
C4619 C 0.9513 0.39793 0.57078 0.0
H4620 H 0.91489 0.41399 0.5455 0.0
H4621 H 0.08982 0.36264 0.59236 0.0
H4622 H 0.43886 0.27423 0.37205 0.0
H4623 H 0.40853 0.27126 0.35564 0.0
H4624 H 0.43534 0.24694 0.30725 0.0
H4625 H 0.46578 0.2503 0.32337 0.0
H4626 H 0.41272 0.27278 0.29683 0.0
H4627 H 0.40792 0.21983 0.3382 0.0
H4628 H 0.40784 0.20301 0.36822 0.0
H4629 H 0.36263 0.23569 0.38822 0.0
H4630 H 0.3626 0.25289 0.35842 0.0
H4631 H 0.32712 0.22583 0.25621 0.0
H4632 H 0.35858 0.23264 0.27035 0.0
H4633 H 0.33568 0.27466 0.30712 0.0
H4634 H 0.30455 0.26842 0.29257 0.0
H4635 H 0.35559 0.24035 0.3235 0.0
H4636 H 0.36144 0.29402 0.28301 0.0
H4637 H 0.36061 0.31007 0.25262 0.0
H4638 H 0.40332 0.27494 0.23118 0.0
H4639 H 0.40422 0.25851 0.26141 0.0
C4640 C 0.43831 0.26837 0.35787 0.0
C4641 C 0.45472 0.26263 0.34893 0.0
C4642 C 0.42094 0.2665 0.34859 0.0
C4643 C 0.41966 0.25864 0.33034 0.0
C4644 C 0.43604 0.25304 0.32135 0.0
C4645 C 0.45343 0.25506 0.33054 0.0
C4646 C 0.40141 0.257 0.32023 0.0
C4647 C 0.40031 0.26545 0.3026 0.0
C4648 C 0.3851 0.24787 0.32799 0.0
C4649 C 0.38543 0.23783 0.34613 0.0
C4650 C 0.39812 0.2236 0.34908 0.0
C4651 C 0.39805 0.21395 0.36604 0.0
C4652 C 0.38528 0.21832 0.38014 0.0
C4653 C 0.37254 0.23234 0.37731 0.0
C4654 C 0.37256 0.24204 0.36037 0.0
C4655 C 0.32909 0.23697 0.26681 0.0
C4656 C 0.31375 0.24684 0.27323 0.0
C4657 C 0.34688 0.24075 0.27493 0.0
C4658 C 0.34924 0.25406 0.28977 0.0
C4659 C 0.33403 0.26439 0.29565 0.0
C4660 C 0.3164 0.26093 0.28728 0.0
C4661 C 0.36714 0.256 0.30024 0.0
C4662 C 0.3681 0.24762 0.31787 0.0
C4663 C 0.38332 0.26515 0.29256 0.0
C4664 C 0.3827 0.27486 0.27435 0.0
C4665 C 0.37048 0.28956 0.27173 0.0
C4666 C 0.37004 0.29877 0.25456 0.0
C4667 C 0.38184 0.29347 0.23994 0.0
C4668 C 0.39415 0.27899 0.24249 0.0
C4669 C 0.39464 0.26974 0.25965 0.0
H4670 H 0.38149 0.30063 0.22665 0.0
H4671 H 0.38523 0.21081 0.39325 0.0
H4672 H 0.38364 0.50196 0.32632 0.0
H4673 H 0.39643 0.50275 0.35836 0.0
H4674 H 0.45221 0.51559 0.33656 0.0
H4675 H 0.43955 0.51312 0.30452 0.0
H4676 H 0.45629 0.49307 0.36191 0.0
H4677 H 0.42163 0.54934 0.35991 0.0
H4678 H 0.39416 0.56863 0.35535 0.0
H4679 H 0.36412 0.53786 0.3982 0.0
H4680 H 0.39132 0.5182 0.40283 0.0
H4681 H 0.49643 0.52829 0.45015 0.0
H4682 H 0.48389 0.52659 0.41772 0.0
H4683 H 0.43293 0.49767 0.43738 0.0
H4684 H 0.44529 0.49958 0.46956 0.0
H4685 H 0.42651 0.52803 0.41391 0.0
H4686 H 0.46704 0.47608 0.41841 0.0
H4687 H 0.498 0.4636 0.42472 0.0
H4688 H 0.52074 0.49151 0.37619 0.0
H4689 H 0.49019 0.50519 0.37023 0.0
C4690 C 0.39859 0.50513 0.32848 0.0
C4691 C 0.41063 0.50768 0.31308 0.0
C4692 C 0.40592 0.50566 0.3468 0.0
C4693 C 0.42532 0.50959 0.35007 0.0
C4694 C 0.43724 0.51245 0.33455 0.0
C4695 C 0.43 0.51122 0.31624 0.0
C4696 C 0.43334 0.51044 0.36952 0.0
C4697 C 0.44988 0.50098 0.37316 0.0
C4698 C 0.42491 0.52048 0.38444 0.0
C4699 C 0.40845 0.53216 0.38156 0.0
C4700 C 0.40911 0.54658 0.36825 0.0
C4701 C 0.3936 0.5576 0.36567 0.0
C4702 C 0.37739 0.55443 0.37644 0.0
C4703 C 0.37667 0.54026 0.38984 0.0
C4704 C 0.39213 0.52919 0.39245 0.0
C4705 C 0.48278 0.5212 0.44734 0.0
C4706 C 0.47187 0.51381 0.46209 0.0
C4707 C 0.47554 0.52045 0.42897 0.0
C4708 C 0.45744 0.5121 0.42525 0.0
C4709 C 0.44682 0.50432 0.44 0.0
C4710 C 0.45398 0.50518 0.45826 0.0
C4711 C 0.4495 0.51109 0.40597 0.0
C4712 C 0.43289 0.52028 0.40251 0.0
C4713 C 0.45823 0.50134 0.39114 0.0
C4714 C 0.47626 0.49195 0.39401 0.0
C4715 C 0.47868 0.47987 0.40922 0.0
C4716 C 0.49622 0.47263 0.41282 0.0
C4717 C 0.51135 0.4768 0.4009 0.0
C4718 C 0.50899 0.48829 0.38542 0.0
C4719 C 0.49157 0.49589 0.382 0.0
H4720 H 0.52489 0.47106 0.40362 0.0
H4721 H 0.3654 0.56299 0.37444 0.0
H4722 H 0.26879 0.68261 0.04941 0.0
H4723 H 0.26329 0.69363 0.08177 0.0
H4724 H 0.23887 0.63858 0.09536 0.0
H4725 H 0.24449 0.62736 0.0634 0.0
H4726 H 0.21736 0.67371 0.10561 0.0
H4727 H 0.27883 0.64399 0.11464 0.0
H4728 H 0.3115 0.63993 0.10422 0.0
H4729 H 0.3228 0.7001 0.10675 0.0
H4730 H 0.29014 0.70445 0.117 0.0
H4731 H 0.21498 0.70117 0.20472 0.0
H4732 H 0.21883 0.68027 0.17681 0.0
H4733 H 0.25769 0.72227 0.15323 0.0
H4734 H 0.25381 0.74276 0.18035 0.0
H4735 H 0.27067 0.68774 0.14996 0.0
H4736 H 0.2139 0.7203 0.14 0.0
H4737 H 0.18163 0.72962 0.14656 0.0
H4738 H 0.16099 0.67169 0.14095 0.0
H4739 H 0.19325 0.66198 0.1347 0.0
C4740 C 0.26238 0.67287 0.05935 0.0
C4741 C 0.25716 0.65414 0.05398 0.0
C4742 C 0.25921 0.67916 0.07771 0.0
C4743 C 0.25062 0.66683 0.09068 0.0
C4744 C 0.24544 0.64819 0.08539 0.0
C4745 C 0.24883 0.64183 0.0672 0.0
C4746 C 0.24734 0.67327 0.10998 0.0
C4747 C 0.22889 0.67645 0.11554 0.0
C4748 C 0.26252 0.67716 0.12248 0.0
C4749 C 0.2822 0.67451 0.11674 0.0
C4750 C 0.28834 0.65632 0.113 0.0
C4751 C 0.30681 0.65397 0.10709 0.0
C4752 C 0.31924 0.66974 0.10487 0.0
C4753 C 0.31319 0.68789 0.10852 0.0
C4754 C 0.29471 0.6903 0.11438 0.0
C4755 C 0.22426 0.70574 0.19347 0.0
C4756 C 0.23374 0.72362 0.19428 0.0
C4757 C 0.22649 0.6939 0.17769 0.0
C4758 C 0.23853 0.69985 0.16306 0.0
C4759 C 0.24838 0.71744 0.16437 0.0
C4760 C 0.24596 0.7292 0.17976 0.0
C4761 C 0.24064 0.6886 0.14572 0.0
C4762 C 0.25898 0.68446 0.14037 0.0
C4763 C 0.22537 0.68461 0.13318 0.0
C4764 C 0.20604 0.69036 0.13729 0.0
C4765 C 0.20253 0.70951 0.14046 0.0
C4766 C 0.18423 0.71487 0.14406 0.0
C4767 C 0.16928 0.70124 0.14428 0.0
C4768 C 0.1726 0.68222 0.14087 0.0
C4769 C 0.1909 0.67677 0.13733 0.0
H4770 H 0.15512 0.70542 0.14702 0.0
H4771 H 0.33353 0.6679 0.10029 0.0
H4772 H 0.06079 0.50813 0.80242 0.0
H4773 H 0.04912 0.50997 0.83454 0.0
H4774 H 0.10611 0.50929 0.85585 0.0
H4775 H 0.11778 0.50661 0.8236 0.0
H4776 H 0.08483 0.48915 0.87704 0.0
H4777 H 0.0824 0.55096 0.85591 0.0
H4778 H 0.07624 0.57777 0.83564 0.0
H4779 H 0.01668 0.56469 0.83934 0.0
H4780 H 0.02249 0.53765 0.85948 0.0
H4781 H 0.0558 0.52183 0.96635 0.0
H4782 H 0.06826 0.52559 0.93461 0.0
H4783 H 0.01652 0.49998 0.91145 0.0
H4784 H 0.00401 0.4959 0.94352 0.0
H4785 H 0.03729 0.53576 0.89264 0.0
H4786 H 0.04518 0.47094 0.91453 0.0
H4787 H 0.05577 0.44835 0.93778 0.0
H4788 H 0.11182 0.47414 0.93619 0.0
H4789 H 0.1015 0.49699 0.91303 0.0
C4790 C 0.07079 0.50814 0.81398 0.0
C4791 C 0.09014 0.50722 0.81061 0.0
C4792 C 0.06415 0.50942 0.8323 0.0
C4793 C 0.07679 0.51031 0.84757 0.0
C4794 C 0.09612 0.50875 0.84427 0.0
C4795 C 0.10275 0.50711 0.82588 0.0
C4796 C 0.06957 0.51246 0.86692 0.0
C4797 C 0.0747 0.49958 0.88049 0.0
C4798 C 0.05652 0.52622 0.8716 0.0
C4799 C 0.0529 0.54214 0.85905 0.0
C4800 C 0.068 0.55366 0.85223 0.0
C4801 C 0.06456 0.56894 0.84081 0.0
C4802 C 0.04608 0.5729 0.83616 0.0
C4803 C 0.03099 0.56159 0.84293 0.0
C4804 C 0.03435 0.54629 0.85437 0.0
C4805 C 0.0469 0.51751 0.95442 0.0
C4806 C 0.02902 0.50863 0.95713 0.0
C4807 C 0.05404 0.51958 0.9364 0.0
C4808 C 0.04335 0.51283 0.92089 0.0
C4809 C 0.02488 0.50523 0.92342 0.0
C4810 C 0.01773 0.50302 0.94159 0.0
C4811 C 0.05223 0.51221 0.90232 0.0
C4812 C 0.04753 0.52549 0.88906 0.0
C4813 C 0.06635 0.49946 0.89826 0.0
C4814 C 0.07252 0.48577 0.91221 0.0
C4815 C 0.05972 0.4719 0.91928 0.0
C4816 C 0.06569 0.45901 0.93239 0.0
C4817 C 0.08445 0.45983 0.93849 0.0
C4818 C 0.09729 0.47352 0.93146 0.0
C4819 C 0.09139 0.48642 0.91832 0.0
H4820 H 0.08904 0.44984 0.94863 0.0
H4821 H 0.04345 0.58476 0.82734 0.0
H4822 H 0.23064 0.33201 0.54714 0.0
H4823 H 0.23026 0.31976 0.57927 0.0
H4824 H 0.25881 0.37144 0.59973 0.0
H4825 H 0.25883 0.38392 0.56797 0.0
H4826 H 0.27445 0.33565 0.61124 0.0
H4827 H 0.21718 0.36882 0.61011 0.0
H4828 H 0.18692 0.37671 0.59594 0.0
H4829 H 0.16609 0.31896 0.60045 0.0
H4830 H 0.19636 0.31068 0.6144 0.0
H4831 H 0.2711 0.3117 0.70516 0.0
H4832 H 0.2631 0.33246 0.67952 0.0
H4833 H 0.22771 0.28728 0.65443 0.0
H4834 H 0.23596 0.26653 0.6799 0.0
H4835 H 0.21508 0.32303 0.64644 0.0
H4836 H 0.27202 0.28902 0.64506 0.0
H4837 H 0.3031 0.27922 0.65542 0.0
H4838 H 0.3255 0.3366 0.65269 0.0
H4839 H 0.2944 0.34682 0.64272 0.0
C4840 C 0.23677 0.34072 0.55853 0.0
C4841 C 0.24462 0.35893 0.55514 0.0
C4842 C 0.23652 0.33377 0.5768 0.0
C4843 C 0.24442 0.34481 0.59177 0.0
C4844 C 0.25259 0.3628 0.58834 0.0
C4845 C 0.25249 0.3699 0.57022 0.0
C4846 C 0.24436 0.33753 0.61105 0.0
C4847 C 0.26155 0.33322 0.61915 0.0
C4848 C 0.22744 0.33409 0.62104 0.0
C4849 C 0.20906 0.3391 0.61317 0.0
C4850 C 0.20618 0.35778 0.60798 0.0
C4851 C 0.18903 0.36233 0.6 0.0
C4852 C 0.1746 0.34834 0.59726 0.0
C4853 C 0.17728 0.32979 0.60258 0.0
C4854 C 0.19442 0.32516 0.61055 0.0
C4855 C 0.26072 0.30663 0.69477 0.0
C4856 C 0.25384 0.28769 0.69457 0.0
C4857 C 0.25635 0.3184 0.68002 0.0
C4858 C 0.24515 0.31124 0.66491 0.0
C4859 C 0.23638 0.29306 0.66596 0.0
C4860 C 0.24089 0.28127 0.68064 0.0
C4861 C 0.24524 0.3211 0.64676 0.0
C4862 C 0.22806 0.32581 0.63878 0.0
C4863 C 0.26223 0.32476 0.63675 0.0
C4864 C 0.28075 0.31875 0.64352 0.0
C4865 C 0.28346 0.29961 0.647 0.0
C4866 C 0.30112 0.29396 0.65273 0.0
C4867 C 0.31625 0.30729 0.65481 0.0
C4868 C 0.31374 0.3263 0.65118 0.0
C4869 C 0.29609 0.33204 0.64553 0.0
H4870 H 0.32992 0.30288 0.65914 0.0
H4871 H 0.16134 0.35188 0.59105 0.0
H4872 H 0.38442 0.48586 0.19456 0.0
H4873 H 0.40035 0.48543 0.16414 0.0
H4874 H 0.43892 0.53093 0.18333 0.0
H4875 H 0.42343 0.53092 0.21424 0.0
H4876 H 0.41567 0.53307 0.14502 0.0
H4877 H 0.45877 0.49677 0.1809 0.0
H4878 H 0.46658 0.4711 0.20199 0.0
H4879 H 0.44285 0.42993 0.16224 0.0
H4880 H 0.43455 0.45538 0.14104 0.0
H4881 H 0.48777 0.52251 0.07149 0.0
H4882 H 0.46877 0.53056 0.09906 0.0
H4883 H 0.43273 0.48045 0.0888 0.0
H4884 H 0.45125 0.47271 0.06123 0.0
H4885 H 0.45579 0.4819 0.12337 0.0
H4886 H 0.41139 0.51422 0.08859 0.0
H4887 H 0.39777 0.53726 0.06772 0.0
H4888 H 0.4183 0.58277 0.10438 0.0
H4889 H 0.43254 0.56001 0.12525 0.0
C4890 C 0.39629 0.49579 0.19228 0.0
C4891 C 0.40266 0.50854 0.2066 0.0
C4892 C 0.4054 0.49544 0.17498 0.0
C4893 C 0.42075 0.50813 0.17161 0.0
C4894 C 0.4271 0.52101 0.1858 0.0
C4895 C 0.41828 0.521 0.20335 0.0
C4896 C 0.42961 0.50821 0.15291 0.0
C4897 C 0.42486 0.5222 0.14034 0.0
C4898 C 0.44074 0.4934 0.14677 0.0
C4899 C 0.44582 0.47804 0.15947 0.0
C4900 C 0.455 0.48226 0.17674 0.0
C4901 C 0.45957 0.46774 0.1887 0.0
C4902 C 0.45516 0.4489 0.18349 0.0
C4903 C 0.44622 0.44454 0.16627 0.0
C4904 C 0.4416 0.45901 0.15428 0.0
C4905 C 0.47507 0.51395 0.07446 0.0
C4906 C 0.47089 0.49703 0.06432 0.0
C4907 C 0.46438 0.51839 0.09032 0.0
C4908 C 0.44959 0.50587 0.09608 0.0
C4909 C 0.44414 0.49022 0.08462 0.0
C4910 C 0.4546 0.48594 0.06876 0.0
C4911 C 0.44212 0.50703 0.11542 0.0
C4912 C 0.44698 0.49308 0.12809 0.0
C4913 C 0.4307 0.52161 0.12151 0.0
C4914 C 0.42335 0.53542 0.10832 0.0
C4915 C 0.41339 0.52916 0.09201 0.0
C4916 C 0.40542 0.54216 0.08025 0.0
C4917 C 0.40711 0.56146 0.08477 0.0
C4918 C 0.41693 0.5678 0.10096 0.0
C4919 C 0.42504 0.55487 0.11271 0.0
H4920 H 0.40097 0.57153 0.07566 0.0
H4921 H 0.45871 0.43768 0.19276 0.0
H4922 H 0.28426 0.66305 0.94126 0.0
H4923 H 0.28406 0.67809 0.91032 0.0
H4924 H 0.22876 0.69774 0.92162 0.0
H4925 H 0.22899 0.68329 0.95233 0.0
H4926 H 0.2354 0.68136 0.88375 0.0
H4927 H 0.26312 0.72668 0.93185 0.0
H4928 H 0.28787 0.73412 0.95575 0.0
H4929 H 0.3306 0.72631 0.91427 0.0
H4930 H 0.30608 0.71858 0.8902 0.0
H4931 H 0.22705 0.7513 0.81329 0.0
H4932 H 0.22485 0.73955 0.84564 0.0
H4933 H 0.28468 0.73146 0.84542 0.0
H4934 H 0.28703 0.74402 0.81418 0.0
H4935 H 0.2753 0.74047 0.87817 0.0
H4936 H 0.24543 0.70395 0.82706 0.0
H4937 H 0.22063 0.69471 0.80412 0.0
H4938 H 0.18466 0.67464 0.84832 0.0
H4939 H 0.20662 0.68886 0.87177 0.0
C4940 C 0.27211 0.67056 0.93703 0.0
C4941 C 0.25683 0.67242 0.94924 0.0
C4942 C 0.27196 0.67899 0.91943 0.0
C4943 C 0.25639 0.68896 0.91389 0.0
C4944 C 0.24085 0.69005 0.92574 0.0
C4945 C 0.24113 0.682 0.94334 0.0
C4946 C 0.25662 0.69988 0.89658 0.0
C4947 C 0.24376 0.6945 0.88229 0.0
C4948 C 0.26821 0.71646 0.895 0.0
C4949 C 0.28281 0.72201 0.90929 0.0
C4950 C 0.2778 0.72655 0.92786 0.0
C4951 C 0.29178 0.73079 0.94143 0.0
C4952 C 0.3108 0.73067 0.93654 0.0
C4953 C 0.31587 0.7264 0.91804 0.0
C4954 C 0.30194 0.72212 0.90443 0.0
C4955 C 0.23978 0.74777 0.82058 0.0
C4956 C 0.25714 0.74807 0.81117 0.0
C4957 C 0.23849 0.74091 0.83893 0.0
C4958 C 0.25448 0.73397 0.84764 0.0
C4959 C 0.27207 0.73641 0.83893 0.0
C4960 C 0.2734 0.74353 0.82098 0.0
C4961 C 0.25336 0.72251 0.86479 0.0
C4962 C 0.26632 0.72766 0.87927 0.0
C4963 C 0.24183 0.70545 0.86618 0.0
C4964 C 0.22786 0.69821 0.8515 0.0
C4965 C 0.23186 0.69872 0.83212 0.0
C4966 C 0.21815 0.69259 0.81888 0.0
C4967 C 0.20128 0.68365 0.82462 0.0
C4968 C 0.19765 0.68173 0.84375 0.0
C4969 C 0.21042 0.68963 0.85707 0.0
H4970 H 0.19102 0.67829 0.81426 0.0
H4971 H 0.3216 0.73391 0.94708 0.0
H4972 H 0.12954 0.5235 0.69523 0.0
H4973 H 0.11654 0.5285 0.664 0.0
H4974 H 0.0667 0.49423 0.67783 0.0
H4975 H 0.07943 0.4895 0.70942 0.0
H4976 H 0.08394 0.48533 0.64267 0.0
H4977 H 0.06324 0.53707 0.67903 0.0
H4978 H 0.0643 0.56572 0.69924 0.0
H4979 H 0.09528 0.59642 0.657 0.0
H4980 H 0.0953 0.5677 0.63691 0.0
H4981 H 0.00992 0.51062 0.5864 0.0
H4982 H 0.03219 0.50677 0.61179 0.0
H4983 H 0.07601 0.53589 0.58007 0.0
H4984 H 0.05351 0.53933 0.5538 0.0
H4985 H 0.0672 0.54847 0.6211 0.0
H4986 H 0.08395 0.49467 0.58362 0.0
H4987 H 0.07802 0.46573 0.56417 0.0
H4988 H 0.04797 0.43925 0.60962 0.0
H4989 H 0.05359 0.46805 0.62933 0.0
C4990 C 0.1159 0.51684 0.69156 0.0
C4991 C 0.10549 0.50599 0.70464 0.0
C4992 C 0.10846 0.51987 0.67382 0.0
C4993 C 0.09069 0.51184 0.66882 0.0
C4994 C 0.08046 0.50056 0.68161 0.0
C4995 C 0.08773 0.49783 0.69954 0.0
C4996 C 0.08296 0.51487 0.65002 0.0
C4997 C 0.08028 0.49913 0.63791 0.0
C4998 C 0.07859 0.53302 0.64391 0.0
C4999 C 0.07968 0.55001 0.6566 0.0
C5000 C 0.07079 0.54974 0.67424 0.0
C5001 C 0.07114 0.56604 0.68569 0.0
C5002 C 0.08005 0.58283 0.67952 0.0
C5003 C 0.08862 0.58334 0.6619 0.0
C5004 C 0.08854 0.56702 0.65052 0.0
C5005 C 0.02425 0.5164 0.58481 0.0
C5006 C 0.03 0.52563 0.56836 0.0
C5007 C 0.03697 0.51396 0.59923 0.0
C5008 C 0.05564 0.5209 0.59762 0.0
C5009 C 0.06158 0.53034 0.58133 0.0
C5010 C 0.04881 0.53239 0.5665 0.0
C5011 C 0.0682 0.51895 0.6138 0.0
C5012 C 0.07158 0.53483 0.62562 0.0
C5013 C 0.07276 0.50089 0.61987 0.0
C5014 C 0.06913 0.4836 0.60793 0.0
C5015 C 0.07593 0.48275 0.58942 0.0
C5016 C 0.07266 0.46635 0.57836 0.0
C5017 C 0.06258 0.45069 0.58562 0.0
C5018 C 0.05578 0.45139 0.604 0.0
C5019 C 0.05904 0.46773 0.61514 0.0
H5020 H 0.06006 0.43802 0.57702 0.0
H5021 H 0.08018 0.59548 0.68833 0.0
H5022 H 0.2295 0.32314 0.45324 0.0
H5023 H 0.22954 0.31117 0.4207 0.0
H5024 H 0.26166 0.36153 0.40405 0.0
H5025 H 0.26034 0.37403 0.43643 0.0
H5026 H 0.23975 0.35173 0.37683 0.0
H5027 H 0.28287 0.31834 0.41246 0.0
H5028 H 0.29461 0.30006 0.4388 0.0
H5029 H 0.25392 0.25468 0.4255 0.0
H5030 H 0.24178 0.27277 0.39921 0.0
H5031 H 0.26642 0.29663 0.2934 0.0
H5032 H 0.26658 0.31704 0.32177 0.0
H5033 H 0.22433 0.27932 0.34649 0.0
H5034 H 0.22427 0.25899 0.31836 0.0
H5035 H 0.257 0.28522 0.36822 0.0
H5036 H 0.2136 0.32306 0.33255 0.0
H5037 H 0.20665 0.34158 0.30458 0.0
H5038 H 0.25479 0.37922 0.31668 0.0
H5039 H 0.262 0.3609 0.34472 0.0
C5040 C 0.23616 0.33175 0.44248 0.0
C5041 C 0.24479 0.34946 0.44711 0.0
C5042 C 0.23642 0.32487 0.42396 0.0
C5043 C 0.24611 0.33519 0.40997 0.0
C5044 C 0.25416 0.35326 0.41455 0.0
C5045 C 0.25338 0.3604 0.43299 0.0
C5046 C 0.24828 0.32677 0.39083 0.0
C5047 C 0.24376 0.33726 0.37499 0.0
C5048 C 0.25395 0.30804 0.38821 0.0
C5049 C 0.26133 0.29699 0.40393 0.0
C5050 C 0.27636 0.30451 0.41521 0.0
C5051 C 0.28309 0.29417 0.43013 0.0
C5052 C 0.27499 0.27624 0.43384 0.0
C5053 C 0.26018 0.26857 0.42261 0.0
C5054 C 0.25339 0.27885 0.40767 0.0
C5055 C 0.25661 0.29322 0.30458 0.0
C5056 C 0.24517 0.27642 0.30369 0.0
C5057 C 0.25686 0.30473 0.32084 0.0
C5058 C 0.24556 0.29956 0.33625 0.0
C5059 C 0.23325 0.28345 0.33479 0.0
C5060 C 0.23308 0.27196 0.31868 0.0
C5061 C 0.24742 0.30981 0.35456 0.0
C5062 C 0.25305 0.29971 0.37019 0.0
C5063 C 0.24339 0.329 0.35685 0.0
C5064 C 0.23843 0.34054 0.3406 0.0
C5065 C 0.22269 0.33529 0.32922 0.0
C5066 C 0.2187 0.34575 0.31337 0.0
C5067 C 0.23029 0.36154 0.30882 0.0
C5068 C 0.24582 0.36699 0.32021 0.0
C5069 C 0.24983 0.3566 0.33611 0.0
H5070 H 0.22722 0.36957 0.2965 0.0
H5071 H 0.28021 0.26827 0.44541 0.0
H5072 H 0.31411 0.39496 0.47714 0.0
H5073 H 0.34599 0.40897 0.48353 0.0
H5074 H 0.32502 0.43789 0.53258 0.0
H5075 H 0.29327 0.4253 0.52523 0.0
H5076 H 0.34659 0.46055 0.51607 0.0
H5077 H 0.35227 0.39417 0.53211 0.0
H5078 H 0.35134 0.35987 0.52509 0.0
H5079 H 0.39202 0.36886 0.48131 0.0
H5080 H 0.39307 0.4032 0.48796 0.0
H5081 H 0.43124 0.49466 0.55593 0.0
H5082 H 0.4025 0.47401 0.55344 0.0
H5083 H 0.42462 0.44698 0.50392 0.0
H5084 H 0.45361 0.46668 0.50711 0.0
H5085 H 0.40307 0.42272 0.52033 0.0
H5086 H 0.39666 0.48793 0.5026 0.0
H5087 H 0.39739 0.52254 0.50757 0.0
H5088 H 0.35771 0.5159 0.55258 0.0
H5089 H 0.35689 0.48126 0.54799 0.0
C5090 C 0.31644 0.40459 0.48905 0.0
C5091 C 0.30138 0.40942 0.50053 0.0
C5092 C 0.33463 0.41234 0.49289 0.0
C5093 C 0.33802 0.42425 0.50877 0.0
C5094 C 0.32282 0.42887 0.5202 0.0
C5095 C 0.30467 0.42175 0.51596 0.0
C5096 C 0.35709 0.43264 0.51342 0.0
C5097 C 0.35884 0.45215 0.51731 0.0
C5098 C 0.37329 0.4219 0.51435 0.0
C5099 C 0.37262 0.40125 0.51043 0.0
C5100 C 0.36093 0.38883 0.52092 0.0
C5101 C 0.3604 0.36938 0.51702 0.0
C5102 C 0.37158 0.36219 0.50274 0.0
C5103 C 0.38336 0.37443 0.49235 0.0
C5104 C 0.38394 0.39388 0.4962 0.0
C5105 C 0.43017 0.48377 0.54499 0.0
C5106 C 0.44456 0.48218 0.53172 0.0
C5107 C 0.41371 0.47215 0.54343 0.0
C5108 C 0.41115 0.45942 0.52809 0.0
C5109 C 0.42621 0.45674 0.51582 0.0
C5110 C 0.44285 0.46795 0.51771 0.0
C5111 C 0.39233 0.45045 0.5235 0.0
C5112 C 0.39069 0.43097 0.51937 0.0
C5113 C 0.37617 0.46121 0.5222 0.0
C5114 C 0.37687 0.48203 0.52508 0.0
C5115 C 0.3882 0.49386 0.51364 0.0
C5116 C 0.38861 0.51348 0.51637 0.0
C5117 C 0.37764 0.52141 0.53041 0.0
C5118 C 0.36622 0.50974 0.54174 0.0
C5119 C 0.36577 0.49013 0.53907 0.0
H5120 H 0.37796 0.5366 0.53249 0.0
H5121 H 0.37115 0.34714 0.49974 0.0
H5122 H 0.81751 0.1237 0.49839 0.0
H5123 H 0.849 0.11165 0.50086 0.0
H5124 H 0.82498 0.05451 0.49484 0.0
H5125 H 0.79341 0.06655 0.49368 0.0
H5126 H 0.84817 0.05623 0.52256 0.0
H5127 H 0.85165 0.08111 0.45881 0.0
H5128 H 0.85068 0.10614 0.43526 0.0
H5129 H 0.89434 0.13873 0.46519 0.0
H5130 H 0.89541 0.11401 0.48903 0.0
H5131 H 0.93195 0.00844 0.49652 0.0
H5132 H 0.90056 0.0213 0.50045 0.0
H5133 H 0.92693 0.07605 0.51478 0.0
H5134 H 0.9579 0.06323 0.5109 0.0
H5135 H 0.90355 0.07726 0.48485 0.0
H5136 H 0.90182 0.05531 0.54724 0.0
H5137 H 0.90266 0.034 0.57416 0.0
H5138 H 0.85725 -0.00095 0.54986 0.0
H5139 H 0.85609 0.02019 0.52278 0.0
C5140 C 0.81906 0.10859 0.49722 0.0
C5141 C 0.80316 0.09599 0.49575 0.0
C5142 C 0.83705 0.10171 0.4986 0.0
C5143 C 0.83942 0.08215 0.49783 0.0
C5144 C 0.82351 0.06964 0.49555 0.0
C5145 C 0.80551 0.07649 0.49475 0.0
C5146 C 0.85824 0.0745 0.50045 0.0
C5147 C 0.86019 0.06057 0.51404 0.0
C5148 C 0.87422 0.08094 0.49013 0.0
C5149 C 0.87347 0.09579 0.47579 0.0
C5150 C 0.86094 0.09367 0.46044 0.0
C5151 C 0.86039 0.1078 0.44703 0.0
C5152 C 0.8724 0.12404 0.44875 0.0
C5153 C 0.88502 0.12617 0.46388 0.0
C5154 C 0.88561 0.1121 0.47733 0.0
C5155 C 0.93088 0.02311 0.50076 0.0
C5156 C 0.94711 0.03517 0.5027 0.0
C5157 C 0.91307 0.0304 0.50312 0.0
C5158 C 0.91151 0.04968 0.50766 0.0
C5159 C 0.92783 0.06123 0.51101 0.0
C5160 C 0.94544 0.054 0.50858 0.0
C5161 C 0.89321 0.05851 0.5064 0.0
C5162 C 0.89145 0.07279 0.49322 0.0
C5163 C 0.87754 0.05265 0.51729 0.0
C5164 C 0.87904 0.03919 0.53285 0.0
C5165 C 0.89223 0.0429 0.54746 0.0
C5166 C 0.8927 0.03091 0.5628 0.0
C5167 C 0.88008 0.01514 0.56364 0.0
C5168 C 0.86704 0.01126 0.54914 0.0
C5169 C 0.86644 0.02326 0.53382 0.0
H5170 H 0.88024 0.00605 0.57562 0.0
H5171 H 0.87196 0.13494 0.43835 0.0
H5172 H 0.67817 0.05232 0.25632 0.0
H5173 H 0.69173 0.08365 0.24972 0.0
H5174 H 0.63878 0.10781 0.26286 0.0
H5175 H 0.62474 0.07611 0.26874 0.0
H5176 H 0.65377 0.12221 0.23088 0.0
H5177 H 0.67605 0.11216 0.29373 0.0
H5178 H 0.69058 0.09356 0.31832 0.0
H5179 H 0.74203 0.09351 0.28695 0.0
H5180 H 0.72771 0.11185 0.26202 0.0
H5181 H 0.70525 0.21509 0.246 0.0
H5182 H 0.68355 0.18699 0.24687 0.0
H5183 H 0.72595 0.15347 0.2217 0.0
H5184 H 0.74754 0.18131 0.22051 0.0
H5185 H 0.71384 0.14574 0.26117 0.0
H5186 H 0.69193 0.1532 0.19787 0.0
H5187 H 0.6781 0.17056 0.17198 0.0
H5188 H 0.62702 0.17514 0.20332 0.0
H5189 H 0.64069 0.15803 0.22957 0.0
C5190 C 0.66947 0.0643 0.25819 0.0
C5191 C 0.65044 0.0618 0.26322 0.0
C5192 C 0.67723 0.08221 0.25433 0.0
C5193 C 0.6663 0.09805 0.25601 0.0
C5194 C 0.64741 0.09572 0.26148 0.0
C5195 C 0.63949 0.07768 0.26502 0.0
C5196 C 0.67481 0.11696 0.25188 0.0
C5197 C 0.6667 0.12757 0.23775 0.0
C5198 C 0.69187 0.12369 0.2606 0.0
C5199 C 0.70077 0.11334 0.27597 0.0
C5200 C 0.69045 0.10816 0.29206 0.0
C5201 C 0.69864 0.09765 0.30605 0.0
C5202 C 0.71721 0.09235 0.30419 0.0
C5203 C 0.72765 0.09764 0.28838 0.0
C5204 C 0.71952 0.10813 0.27433 0.0
C5205 C 0.70965 0.20189 0.23995 0.0
C5206 C 0.72819 0.20023 0.23358 0.0
C5207 C 0.69727 0.1859 0.24048 0.0
C5208 C 0.70336 0.16827 0.23455 0.0
C5209 C 0.72113 0.16702 0.2264 0.0
C5210 C 0.73343 0.18291 0.2258 0.0
C5211 C 0.69297 0.15078 0.24004 0.0
C5212 C 0.70075 0.1405 0.2545 0.0
C5213 C 0.67574 0.14441 0.23158 0.0
C5214 C 0.66743 0.15458 0.2158 0.0
C5215 C 0.67783 0.15809 0.19934 0.0
C5216 C 0.67 0.16784 0.18458 0.0
C5217 C 0.65172 0.17402 0.18604 0.0
C5218 C 0.6412 0.17039 0.20224 0.0
C5219 C 0.64898 0.16065 0.21706 0.0
H5220 H 0.64569 0.18157 0.17459 0.0
H5221 H 0.7235 0.08415 0.315 0.0
H5222 H 0.69404 0.91841 0.97455 0.0
H5223 H 0.66196 0.92989 0.97611 0.0
H5224 H 0.6649 0.93058 0.03667 0.0
H5225 H 0.69714 0.92002 0.0352 0.0
H5226 H 0.62749 0.91384 0.0155 0.0
H5227 H 0.67096 0.96809 0.02651 0.0
H5228 H 0.69973 0.98749 0.01918 0.0
H5229 H 0.67794 0.99751 0.96405 0.0
H5230 H 0.64919 0.97777 0.97093 0.0
H5231 H 0.5584 0.99291 0.02505 0.0
H5232 H 0.58486 0.973 0.03232 0.0
H5233 H 0.58799 0.95646 0.97382 0.0
H5234 H 0.56154 0.97558 0.96666 0.0
H5235 H 0.62205 0.98103 -0.00124 0.0
H5236 H 0.5806 0.9233 0.98702 0.0
H5237 H 0.55154 0.9044 0.99454 0.0
H5238 H 0.56919 0.90219 0.05226 0.0
H5239 H 0.59824 0.92141 0.04509 0.0
C5240 C 0.68779 0.92101 0.98815 0.0
C5241 C 0.69811 0.91866 0.00474 0.0
C5242 C 0.66948 0.92741 0.98904 0.0
C5243 C 0.66106 0.93092 0.00653 0.0
C5244 C 0.6711 0.92782 0.02308 0.0
C5245 C 0.68957 0.92203 0.02219 0.0
C5246 C 0.6426 0.93964 0.00748 0.0
C5247 C 0.6263 0.92857 0.01206 0.0
C5248 C 0.64109 0.95887 0.00315 0.0
C5249 C 0.65803 0.97128 -0.00085 0.0
C5250 C 0.67238 0.97429 0.01276 0.0
C5251 C 0.68867 0.98536 0.0087 0.0
C5252 C 0.69069 0.99368 0.99114 0.0
C5253 C 0.67637 0.99102 0.97764 0.0
C5254 C 0.66007 0.97989 0.98161 0.0
C5255 C 0.56412 0.98423 0.01399 0.0
C5256 C 0.558 0.98579 0.99529 0.0
C5257 C 0.57936 0.97308 0.01809 0.0
C5258 C 0.58843 0.96346 0.00352 0.0
C5259 C 0.58115 0.96373 0.98524 0.0
C5260 C 0.56594 0.97456 0.98121 0.0
C5261 C 0.60689 0.95519 0.00645 0.0
C5262 C 0.62325 0.96638 0.00252 0.0
C5263 C 0.60841 0.93615 0.01141 0.0
C5264 C 0.59144 0.92395 0.01557 0.0
C5265 C 0.57821 0.9189 0.00134 0.0
C5266 C 0.56176 0.90812 0.00553 0.0
C5267 C 0.5585 0.90215 0.02388 0.0
C5268 C 0.57173 0.90686 0.03806 0.0
C5269 C 0.58819 0.91769 0.03394 0.0
H5270 H 0.54575 0.89382 0.02711 0.0
H5271 H 0.70332 0.00224 0.98801 0.0
H5272 H 0.37716 0.43711 0.24836 0.0
H5273 H 0.36436 0.40438 0.24713 0.0
H5274 H 0.31289 0.42164 0.27247 0.0
H5275 H 0.32545 0.45466 0.2733 0.0
H5276 H 0.32988 0.38826 0.28876 0.0
H5277 H 0.30981 0.41328 0.23015 0.0
H5278 H 0.31313 0.42923 0.19978 0.0
H5279 H 0.35053 0.38747 0.18047 0.0
H5280 H 0.3477 0.37143 0.21088 0.0
H5281 H 0.26373 0.31287 0.26162 0.0
H5282 H 0.28305 0.34084 0.27195 0.0
H5283 H 0.32954 0.32167 0.23923 0.0
H5284 H 0.31024 0.29364 0.22911 0.0
H5285 H 0.31716 0.35529 0.22744 0.0
H5286 H 0.33577 0.32898 0.28519 0.0
H5287 H 0.33032 0.31163 0.31451 0.0
H5288 H 0.29481 0.35467 0.33471 0.0
H5289 H 0.29973 0.37215 0.30533 0.0
C5290 C 0.36316 0.43394 0.2538 0.0
C5291 C 0.35232 0.4484 0.26103 0.0
C5292 C 0.35586 0.41526 0.25301 0.0
C5293 C 0.33773 0.41066 0.25974 0.0
C5294 C 0.32695 0.42498 0.26727 0.0
C5295 C 0.3341 0.44378 0.26769 0.0
C5296 C 0.33003 0.39088 0.25863 0.0
C5297 C 0.32693 0.38106 0.27538 0.0
C5298 C 0.32669 0.38144 0.24112 0.0
C5299 C 0.32879 0.39133 0.22295 0.0
C5300 C 0.31898 0.40765 0.21955 0.0
C5301 C 0.32071 0.41667 0.20229 0.0
C5302 C 0.3321 0.40942 0.18824 0.0
C5303 C 0.34176 0.39311 0.1914 0.0
C5304 C 0.3401 0.38405 0.20865 0.0
C5305 C 0.27846 0.31406 0.25769 0.0
C5306 C 0.28567 0.30111 0.24485 0.0
C5307 C 0.28944 0.33013 0.26339 0.0
C5308 C 0.30766 0.33341 0.25616 0.0
C5309 C 0.31552 0.31941 0.24493 0.0
C5310 C 0.30458 0.30331 0.23936 0.0
C5311 C 0.31702 0.35258 0.25757 0.0
C5312 C 0.32037 0.36236 0.24084 0.0
C5313 C 0.32058 0.36193 0.27505 0.0
C5314 C 0.31805 0.35183 0.29301 0.0
C5315 C 0.32672 0.33472 0.29584 0.0
C5316 C 0.32371 0.32485 0.31247 0.0
C5317 C 0.31216 0.33201 0.32643 0.0
C5318 C 0.3037 0.34912 0.32385 0.0
C5319 C 0.30662 0.35904 0.30722 0.0
H5320 H 0.3098 0.32433 0.33928 0.0
H5321 H 0.33339 0.4164 0.17487 0.0
H5322 H 0.19044 0.63147 0.98282 0.0
H5323 H 0.15852 0.61838 0.98918 0.0
H5324 H 0.18198 0.56931 0.01337 0.0
H5325 H 0.21357 0.58176 0.00607 0.0
H5326 H 0.1543 0.55864 0.99283 0.0
H5327 H 0.1643 0.6088 0.04021 0.0
H5328 H 0.17022 0.64153 0.05216 0.0
H5329 H 0.12175 0.65872 0.02197 0.0
H5330 H 0.11564 0.62613 0.00972 0.0
H5331 H 0.08106 0.51719 0.0425 0.0
H5332 H 0.1097 0.53739 0.03895 0.0
H5333 H 0.07858 0.57675 0.00727 0.0
H5334 H 0.04981 0.55668 0.01095 0.0
H5335 H 0.10806 0.59405 0.02951 0.0
H5336 H 0.09811 0.54348 0.98302 0.0
H5337 H 0.09233 0.51061 0.97139 0.0
H5338 H 0.14146 0.49416 0.00101 0.0
H5339 H 0.14745 0.5269 0.0129 0.0
C5340 C 0.18864 0.61771 0.98913 0.0
C5341 C 0.20435 0.60747 0.99376 0.0
C5342 C 0.17048 0.6104 0.99302 0.0
C5343 C 0.16791 0.59305 0.00209 0.0
C5344 C 0.18363 0.58271 0.00633 0.0
C5345 C 0.20167 0.58975 0.00202 0.0
C5346 C 0.14893 0.58511 0.00676 0.0
C5347 C 0.14433 0.56636 0.00108 0.0
C5348 C 0.13562 0.5954 0.01692 0.0
C5349 C 0.13966 0.61508 0.02386 0.0
C5350 C 0.15503 0.6196 0.03596 0.0
C5351 C 0.15838 0.63812 0.04284 0.0
C5352 C 0.14641 0.65221 0.03778 0.0
C5353 C 0.13104 0.64781 0.02585 0.0
C5354 C 0.12762 0.62932 0.01894 0.0
C5355 C 0.0802 0.53049 0.03538 0.0
C5356 C 0.06335 0.53533 0.02679 0.0
C5357 C 0.09654 0.54194 0.0333 0.0
C5358 C 0.09621 0.5582 0.02245 0.0
C5359 C 0.07902 0.56414 0.0156 0.0
C5360 C 0.0626 0.55274 0.01781 0.0
C5361 C 0.11401 0.5675 0.01625 0.0
C5362 C 0.11818 0.58645 0.02136 0.0
C5363 C 0.12708 0.5574 0.00568 0.0
C5364 C 0.12312 0.53759 -0.001 0.0
C5365 C 0.10756 0.53281 0.98721 0.0
C5366 C 0.10428 0.51421 0.98052 0.0
C5367 C 0.11649 0.5003 0.9855 0.0
C5368 C 0.132 0.50494 0.99718 0.0
C5369 C 0.13535 0.52351 0.00388 0.0
H5370 H 0.11396 0.48593 0.98026 0.0
H5371 H 0.149 0.66652 0.04315 0.0
H5372 H 0.68815 0.96546 0.23667 0.0
H5373 H 0.70006 0.93391 0.2336 0.0
H5374 H 0.65173 0.91083 0.26355 0.0
H5375 H 0.63974 0.94244 0.26685 0.0
H5376 H 0.68353 0.89948 0.27782 0.0
H5377 H 0.65589 0.9017 0.21731 0.0
H5378 H 0.64857 0.9139 0.18605 0.0
H5379 H 0.70668 0.91167 0.17037 0.0
H5380 H 0.71442 0.89967 0.20165 0.0
H5381 H 0.69109 0.80393 0.26247 0.0
H5382 H 0.68103 0.83565 0.25848 0.0
H5383 H 0.73653 0.85373 0.23955 0.0
H5384 H 0.74692 0.82135 0.24315 0.0
H5385 H 0.70298 0.86798 0.21859 0.0
H5386 H 0.72843 0.86473 0.28232 0.0
H5387 H 0.73144 0.84893 0.31271 0.0
H5388 H 0.67168 0.85015 0.32088 0.0
H5389 H 0.66832 0.86582 0.29047 0.0
C5390 C 0.68005 0.95368 0.24265 0.0
C5391 C 0.66312 0.95644 0.25222 0.0
C5392 C 0.68678 0.93565 0.24066 0.0
C5393 C 0.67668 0.92006 0.24817 0.0
C5394 C 0.6597 0.92273 0.25762 0.0
C5395 C 0.65295 0.94078 0.25961 0.0
C5396 C 0.68468 0.90127 0.24763 0.0
C5397 C 0.68763 0.89259 0.26482 0.0
C5398 C 0.69026 0.8924 0.23067 0.0
C5399 C 0.68579 0.90003 0.21196 0.0
C5400 C 0.66717 0.90404 0.2073 0.0
C5401 C 0.66293 0.91086 0.18954 0.0
C5402 C 0.67716 0.91364 0.17626 0.0
C5403 C 0.69567 0.90956 0.1807 0.0
C5404 C 0.69999 0.90274 0.19844 0.0
C5405 C 0.70134 0.81455 0.25756 0.0
C5406 C 0.72 0.81016 0.25356 0.0
C5407 C 0.69545 0.83267 0.25512 0.0
C5408 C 0.70809 0.84698 0.24895 0.0
C5409 C 0.72661 0.84276 0.24437 0.0
C5410 C 0.73255 0.82437 0.24662 0.0
C5411 C 0.70187 0.86648 0.24877 0.0
C5412 C 0.69916 0.87519 0.23151 0.0
C5413 C 0.69604 0.87528 0.2656 0.0
C5414 C 0.69814 0.86641 0.28414 0.0
C5415 C 0.71594 0.8616 0.2906 0.0
C5416 C 0.71771 0.85267 0.30782 0.0
C5417 C 0.70176 0.84853 0.31871 0.0
C5418 C 0.68402 0.85339 0.31245 0.0
C5419 C 0.68219 0.86234 0.29525 0.0
H5420 H 0.70315 0.84157 0.33202 0.0
H5421 H 0.67385 0.91889 0.16251 0.0
H5422 H 0.81212 0.05326 0.74283 0.0
H5423 H 0.80203 0.08553 0.74107 0.0
H5424 H 0.85537 0.10671 0.76455 0.0
H5425 H 0.86535 0.07422 0.76692 0.0
H5426 H 0.82675 0.12566 0.7786 0.0
H5427 H 0.84631 0.10792 0.71595 0.0
H5428 H 0.84633 0.08726 0.68759 0.0
H5429 H 0.78687 0.09288 0.68042 0.0
H5430 H 0.78646 0.11341 0.70881 0.0
H5431 H 0.79631 0.21601 0.76294 0.0
H5432 H 0.81776 0.19058 0.75741 0.0
H5433 H 0.77223 0.15654 0.73132 0.0
H5434 H 0.7511 0.18205 0.73652 0.0
H5435 H 0.80344 0.14672 0.71699 0.0
H5436 H 0.78117 0.15801 0.78021 0.0
H5437 H 0.77748 0.17504 0.81044 0.0
H5438 H 0.83752 0.17855 0.81844 0.0
H5439 H 0.84157 0.16176 0.7881 0.0
C5440 C 0.82163 0.06477 0.74783 0.0
C5441 C 0.83957 0.06124 0.75488 0.0
C5442 C 0.81592 0.08322 0.74665 0.0
C5443 C 0.82819 0.09858 0.75208 0.0
C5444 C 0.84577 0.09508 0.76004 0.0
C5445 C 0.85142 0.07652 0.76147 0.0
C5446 C 0.82254 0.11822 0.74935 0.0
C5447 C 0.82207 0.13046 0.76504 0.0
C5448 C 0.81603 0.12431 0.73174 0.0
C5449 C 0.81636 0.11217 0.71452 0.0
C5450 C 0.83324 0.1047 0.70835 0.0
C5451 C 0.83331 0.09302 0.69227 0.0
C5452 C 0.81661 0.08876 0.68222 0.0
C5453 C 0.7998 0.09621 0.6882 0.0
C5454 C 0.79965 0.1079 0.70425 0.0
C5455 C 0.7913 0.20357 0.75489 0.0
C5456 C 0.77215 0.20095 0.74999 0.0
C5457 C 0.80343 0.18888 0.75212 0.0
C5458 C 0.79644 0.17138 0.74458 0.0
C5459 C 0.77796 0.16982 0.73734 0.0
C5460 C 0.7659 0.18452 0.74004 0.0
C5461 C 0.80711 0.15403 0.74635 0.0
C5462 C 0.80859 0.14217 0.73046 0.0
C5463 C 0.81407 0.1481 0.76391 0.0
C5464 C 0.81169 0.15895 0.78172 0.0
C5465 C 0.79359 0.16266 0.78828 0.0
C5466 C 0.79144 0.17221 0.80547 0.0
C5467 C 0.80726 0.17795 0.81631 0.0
C5468 C 0.82528 0.17417 0.80998 0.0
C5469 C 0.82751 0.16467 0.79278 0.0
H5470 H 0.80556 0.18526 0.82966 0.0
H5471 H 0.8167 0.0797 0.66979 0.0
loop_
_geom_bond_atom_site_label_1
_geom_bond_atom_site_label_2
_geom_bond_distance
_geom_bond_site_symmetry_2
_ccdc_geom_bond_type
O0 Cd1 2.223 . S
O0 C8 1.315 . S
Cd1 O0 2.223 . S
Cd1 O4 2.297 1_455 S
Cd1 O5 2.439 1_455 S
Cd1 O11 2.240 . S
Cd2 O3 2.240 . S
Cd2 O10 2.223 . S
Cd2 O12 2.297 . S
Cd2 O13 2.439 . S
O3 Cd2 2.240 . S
O3 C8 1.279 . S
O4 Cd1 2.297 1_655 S
O4 C6 1.247 . S
O5 Cd1 2.439 1_655 S
O5 C6 1.208 . S
C6 O4 1.247 . S
C6 O5 1.208 . S
C7 O12 1.247 . S
C7 O13 1.208 . S
C8 O0 1.315 . S
C8 O3 1.279 . S
C9 O10 1.315 . S
C9 O11 1.279 . S
O10 Cd2 2.223 . S
O10 C9 1.315 . S
O11 Cd1 2.240 . S
O11 C9 1.279 . S
O12 Cd2 2.297 . S
O12 C7 1.247 . S
O13 Cd2 2.439 . S
O13 C7 1.208 . S
O14 Cd15 2.223 . S
O14 C22 1.315 . S
Cd15 O14 2.223 . S
Cd15 O18 2.297 . S
Cd15 O19 2.439 1_455 S
Cd15 O25 2.240 1_455 S
Cd16 O17 2.240 1_655 S
Cd16 O24 2.223 1_655 S
Cd16 O26 2.297 . S
Cd16 O27 2.439 . S
O17 Cd16 2.240 1_455 S
O17 C22 1.279 . S
O18 Cd15 2.297 . S
O18 C20 1.247 . S
O19 Cd15 2.439 1_655 S
O19 C20 1.208 1_655 S
C20 O18 1.247 . S
C20 O19 1.208 1_455 S
C21 O26 1.247 . S
C21 O27 1.208 . S
C22 O14 1.315 . S
C22 O17 1.279 . S
C23 O24 1.315 . S
C23 O25 1.279 1_455 S
O24 Cd16 2.223 1_455 S
O24 C23 1.315 . S
O25 Cd15 2.240 1_655 S
O25 C23 1.279 1_655 S
O26 Cd16 2.297 . S
O26 C21 1.247 . S
O27 Cd16 2.439 . S
O27 C21 1.208 . S
O28 Cd29 2.223 . S
O28 C36 1.315 . S
Cd29 O28 2.223 . S
Cd29 O32 2.297 . S
Cd29 O33 2.439 . S
Cd29 O39 2.240 . S
Cd30 O31 2.240 . S
Cd30 O38 2.223 . S
Cd30 O40 2.297 . S
Cd30 O41 2.439 . S
O31 Cd30 2.240 . S
O31 C36 1.279 . S
O32 Cd29 2.297 . S
O32 C34 1.247 . S
O33 Cd29 2.439 . S
O33 C34 1.208 . S
C34 O32 1.247 . S
C34 O33 1.208 . S
C35 O40 1.247 . S
C35 O41 1.208 . S
C36 O28 1.315 . S
C36 O31 1.279 . S
C37 O38 1.315 . S
C37 O39 1.279 . S
O38 Cd30 2.223 . S
O38 C37 1.315 . S
O39 Cd29 2.240 . S
O39 C37 1.279 . S
O40 Cd30 2.297 . S
O40 C35 1.247 . S
O41 Cd30 2.439 . S
O41 C35 1.208 . S
O42 Cd43 2.223 . S
O42 C50 1.315 . S
Cd43 O42 2.223 . S
Cd43 O46 2.297 . S
Cd43 O47 2.439 . S
Cd43 O53 2.240 . S
Cd44 O45 2.240 . S
Cd44 O52 2.223 . S
Cd44 O54 2.297 . S
Cd44 O55 2.439 . S
O45 Cd44 2.240 . S
O45 C50 1.279 . S
O46 Cd43 2.297 . S
O46 C48 1.247 . S
O47 Cd43 2.439 . S
O47 C48 1.208 . S
C48 O46 1.247 . S
C48 O47 1.208 . S
C49 O54 1.247 . S
C49 O55 1.208 . S
C50 O42 1.315 . S
C50 O45 1.279 . S
C51 O52 1.315 . S
C51 O53 1.279 . S
O52 Cd44 2.223 . S
O52 C51 1.315 . S
O53 Cd43 2.240 . S
O53 C51 1.279 . S
O54 Cd44 2.297 . S
O54 C49 1.247 . S
O55 Cd44 2.439 . S
O55 C49 1.208 . S
O56 Cd57 2.223 1_545 S
O56 C64 1.319 . S
Cd57 O56 2.223 1_565 S
Cd57 O60 2.297 . S
Cd57 O61 2.439 . S
Cd57 O67 2.240 1_565 S
Cd58 O59 2.240 1_545 S
Cd58 O66 2.223 . S
Cd58 O68 2.297 . S
Cd58 O69 2.439 1_545 S
O59 Cd58 2.240 1_565 S
O59 C64 1.262 1_565 S
O60 Cd57 2.297 . S
O60 C62 1.247 . S
O61 Cd57 2.439 . S
O61 C62 1.208 . S
C62 O60 1.247 . S
C62 O61 1.208 . S
C63 O68 1.247 . S
C63 O69 1.208 1_545 S
C64 O56 1.319 . S
C64 O59 1.262 1_545 S
C65 O66 1.315 . S
C65 O67 1.279 . S
O66 Cd58 2.223 . S
O66 C65 1.315 . S
O67 Cd57 2.240 1_545 S
O67 C65 1.279 . S
O68 Cd58 2.297 . S
O68 C63 1.247 . S
O69 Cd58 2.439 1_565 S
O69 C63 1.208 1_565 S
O70 Cd71 2.223 . S
O70 C78 1.315 . S
Cd71 O70 2.223 . S
Cd71 O74 2.297 . S
Cd71 O75 2.439 . S
Cd71 O81 2.240 . S
Cd72 O73 2.240 . S
Cd72 O80 2.223 . S
Cd72 O82 2.297 . S
Cd72 O83 2.439 . S
O73 Cd72 2.240 . S
O73 C78 1.279 . S
O74 Cd71 2.297 . S
O74 C76 1.247 . S
O75 Cd71 2.439 . S
O75 C76 1.208 . S
C76 O74 1.247 . S
C76 O75 1.208 . S
C77 O82 1.247 . S
C77 O83 1.208 . S
C78 O70 1.315 . S
C78 O73 1.279 . S
C79 O80 1.315 . S
C79 O81 1.279 . S
O80 Cd72 2.223 . S
O80 C79 1.315 . S
O81 Cd71 2.240 . S
O81 C79 1.279 . S
O82 Cd72 2.297 . S
O82 C77 1.247 . S
O83 Cd72 2.439 . S
O83 C77 1.208 . S
O84 Cd85 2.223 . S
O84 C92 1.315 . S
Cd85 O84 2.223 . S
Cd85 O88 2.297 . S
Cd85 O89 2.439 . S
Cd85 O95 2.240 . S
Cd86 O87 2.240 . S
Cd86 O94 2.223 1_545 S
Cd86 O96 2.297 . S
Cd86 O97 2.439 . S
O87 Cd86 2.240 . S
O87 C92 1.279 . S
O88 Cd85 2.297 . S
O88 C90 1.247 . S
O89 Cd85 2.439 . S
O89 C90 1.208 . S
C90 O88 1.247 . S
C90 O89 1.208 . S
C91 O96 1.247 . S
C91 O97 1.208 . S
C92 O84 1.315 . S
C92 O87 1.279 . S
C93 O94 1.315 . S
C93 O95 1.279 1_565 S
O94 Cd86 2.223 1_565 S
O94 C93 1.315 . S
O95 Cd85 2.240 . S
O95 C93 1.279 1_545 S
O96 Cd86 2.297 . S
O96 C91 1.247 . S
O97 Cd86 2.439 . S
O97 C91 1.208 . S
O98 Cd99 2.223 . S
O98 C106 1.315 . S
Cd99 O98 2.223 . S
Cd99 O102 2.297 . S
Cd99 O103 2.439 1_554 S
Cd99 O109 2.240 1_554 S
Cd100 O101 2.240 1_556 S
Cd100 O108 2.223 1_556 S
Cd100 O110 2.297 . S
Cd100 O111 2.439 . S
O101 Cd100 2.240 1_554 S
O101 C106 1.279 . S
O102 Cd99 2.297 . S
O102 C104 1.247 . S
O103 Cd99 2.439 1_556 S
O103 C104 1.208 1_556 S
C104 O102 1.247 . S
C104 O103 1.208 1_554 S
C105 O110 1.247 . S
C105 O111 1.208 . S
C106 O98 1.315 . S
C106 O101 1.279 . S
C107 O108 1.315 . S
C107 O109 1.279 1_554 S
O108 Cd100 2.223 1_554 S
O108 C107 1.315 . S
O109 Cd99 2.240 1_556 S
O109 C107 1.279 1_556 S
O110 Cd100 2.297 . S
O110 C105 1.247 . S
O111 Cd100 2.439 . S
O111 C105 1.208 . S
O112 Cd113 2.223 . S
O112 C120 1.315 . S
Cd113 O112 2.223 . S
Cd113 O116 2.297 . S
Cd113 O117 2.439 . S
Cd113 O123 2.240 . S
Cd114 O115 2.267 . S
Cd114 O122 2.233 . S
Cd114 O124 2.266 1_554 S
Cd114 O125 2.411 1_554 S
O115 Cd114 2.267 . S
O115 C120 1.279 . S
O116 Cd113 2.297 . S
O116 C118 1.247 . S
O117 Cd113 2.439 . S
O117 C118 1.208 . S
C118 O116 1.247 . S
C118 O117 1.208 . S
C119 O124 1.247 . S
C119 O125 1.208 . S
C120 O112 1.315 . S
C120 O115 1.279 . S
C121 O122 1.315 . S
C121 O123 1.279 . S
O122 Cd114 2.233 . S
O122 C121 1.315 . S
O123 Cd113 2.240 . S
O123 C121 1.279 . S
O124 Cd114 2.266 1_556 S
O124 C119 1.247 . S
O125 Cd114 2.411 1_556 S
O125 C119 1.208 . S
O126 Cd127 2.223 . S
O126 C134 1.315 . S
Cd127 O126 2.223 . S
Cd127 O130 2.297 . S
Cd127 O131 2.439 . S
Cd127 O137 2.240 . S
Cd128 O129 2.240 . S
Cd128 O136 2.223 . S
Cd128 O138 2.297 . S
Cd128 O139 2.439 . S
O129 Cd128 2.240 . S
O129 C134 1.279 . S
O130 Cd127 2.297 . S
O130 C132 1.247 . S
O131 Cd127 2.439 . S
O131 C132 1.208 . S
C132 O130 1.247 . S
C132 O131 1.208 . S
C133 O138 1.247 . S
C133 O139 1.208 . S
C134 O126 1.315 . S
C134 O129 1.279 . S
C135 O136 1.315 . S
C135 O137 1.279 . S
O136 Cd128 2.223 . S
O136 C135 1.315 . S
O137 Cd127 2.240 . S
O137 C135 1.279 . S
O138 Cd128 2.297 . S
O138 C133 1.247 . S
O139 Cd128 2.439 . S
O139 C133 1.208 . S
O140 Cd141 2.223 . S
O140 C148 1.315 . S
Cd141 O140 2.223 . S
Cd141 O144 2.297 . S
Cd141 O145 2.439 . S
Cd141 O151 2.240 . S
Cd142 O143 2.240 . S
Cd142 O150 2.223 . S
Cd142 O152 2.297 . S
Cd142 O153 2.439 . S
O143 Cd142 2.240 . S
O143 C148 1.279 . S
O144 Cd141 2.297 . S
O144 C146 1.247 . S
O145 Cd141 2.439 . S
O145 C146 1.208 . S
C146 O144 1.247 . S
C146 O145 1.208 . S
C147 O152 1.247 . S
C147 O153 1.208 . S
C148 O140 1.315 . S
C148 O143 1.279 . S
C149 O150 1.315 . S
C149 O151 1.279 . S
O150 Cd142 2.223 . S
O150 C149 1.315 . S
O151 Cd141 2.240 . S
O151 C149 1.279 . S
O152 Cd142 2.297 . S
O152 C147 1.247 . S
O153 Cd142 2.439 . S
O153 C147 1.208 . S
O154 Cd155 2.223 . S
O154 C162 1.315 . S
Cd155 O154 2.223 . S
Cd155 O158 2.297 . S
Cd155 O159 2.439 . S
Cd155 O165 2.240 . S
Cd156 O157 2.240 . S
Cd156 O164 2.223 . S
Cd156 O166 2.297 . S
Cd156 O167 2.439 . S
O157 Cd156 2.240 . S
O157 C162 1.279 . S
O158 Cd155 2.297 . S
O158 C160 1.247 . S
O159 Cd155 2.439 . S
O159 C160 1.208 . S
C160 O158 1.247 . S
C160 O159 1.208 . S
C161 O166 1.247 . S
C161 O167 1.208 . S
C162 O154 1.315 . S
C162 O157 1.279 . S
C163 O164 1.315 . S
C163 O165 1.279 . S
O164 Cd156 2.223 . S
O164 C163 1.315 . S
O165 Cd155 2.240 . S
O165 C163 1.279 . S
O166 Cd156 2.297 . S
O166 C161 1.247 . S
O167 Cd156 2.439 . S
O167 C161 1.208 . S
O168 Cd169 2.223 . S
O168 C176 1.315 . S
Cd169 O168 2.223 . S
Cd169 O172 2.297 . S
Cd169 O173 2.418 1_455 S
Cd169 O179 2.213 1_455 S
Cd170 O171 2.240 1_655 S
Cd170 O178 2.223 1_655 S
Cd170 O180 2.297 . S
Cd170 O181 2.439 . S
O171 Cd170 2.240 1_455 S
O171 C176 1.279 . S
O172 Cd169 2.297 . S
O172 C174 1.247 . S
O173 Cd169 2.418 1_655 S
O173 C174 1.173 1_655 S
C174 O172 1.247 . S
C174 O173 1.173 1_455 S
C175 O180 1.247 . S
C175 O181 1.208 . S
C176 O168 1.315 . S
C176 O171 1.279 . S
C177 O178 1.315 . S
C177 O179 1.264 1_455 S
O178 Cd170 2.223 1_455 S
O178 C177 1.315 . S
O179 Cd169 2.213 1_655 S
O179 C177 1.264 1_655 S
O180 Cd170 2.297 . S
O180 C175 1.247 . S
O181 Cd170 2.439 . S
O181 C175 1.208 . S
O182 Cd183 2.223 1_455 S
O182 C190 1.321 . S
Cd183 O182 2.223 1_655 S
Cd183 O186 2.297 . S
Cd183 O187 2.439 . S
Cd183 O193 2.240 1_655 S
Cd184 O185 2.240 1_455 S
Cd184 O192 2.223 . S
Cd184 O194 2.297 . S
Cd184 O195 2.439 1_455 S
O185 Cd184 2.240 1_655 S
O185 C190 1.261 1_655 S
O186 Cd183 2.297 . S
O186 C188 1.247 . S
O187 Cd183 2.439 . S
O187 C188 1.208 . S
C188 O186 1.247 . S
C188 O187 1.208 . S
C189 O194 1.247 . S
C189 O195 1.208 1_455 S
C190 O182 1.321 . S
C190 O185 1.261 1_455 S
C191 O192 1.315 . S
C191 O193 1.279 . S
O192 Cd184 2.223 . S
O192 C191 1.315 . S
O193 Cd183 2.240 1_455 S
O193 C191 1.279 . S
O194 Cd184 2.297 . S
O194 C189 1.247 . S
O195 Cd184 2.439 1_655 S
O195 C189 1.208 1_655 S
O196 Cd197 2.223 . S
O196 C204 1.315 . S
Cd197 O196 2.223 . S
Cd197 O200 2.297 . S
Cd197 O201 2.439 . S
Cd197 O207 2.240 . S
Cd198 O199 2.240 . S
Cd198 O206 2.223 . S
Cd198 O208 2.297 . S
Cd198 O209 2.439 . S
O199 Cd198 2.240 . S
O199 C204 1.279 . S
O200 Cd197 2.297 . S
O200 C202 1.247 . S
O201 Cd197 2.439 . S
O201 C202 1.208 . S
C202 O200 1.247 . S
C202 O201 1.208 . S
C203 O208 1.247 . S
C203 O209 1.208 . S
C204 O196 1.315 . S
C204 O199 1.279 . S
C205 O206 1.315 . S
C205 O207 1.279 . S
O206 Cd198 2.223 . S
O206 C205 1.315 . S
O207 Cd197 2.240 . S
O207 C205 1.279 . S
O208 Cd198 2.297 . S
O208 C203 1.247 . S
O209 Cd198 2.439 . S
O209 C203 1.208 . S
O210 Cd211 2.223 . S
O210 C218 1.315 . S
Cd211 O210 2.223 . S
Cd211 O214 2.297 . S
Cd211 O215 2.439 . S
Cd211 O221 2.240 . S
Cd212 O213 2.240 . S
Cd212 O220 2.223 . S
Cd212 O222 2.297 . S
Cd212 O223 2.439 . S
O213 Cd212 2.240 . S
O213 C218 1.279 . S
O214 Cd211 2.297 . S
O214 C216 1.247 . S
O215 Cd211 2.439 . S
O215 C216 1.208 . S
C216 O214 1.247 . S
C216 O215 1.208 . S
C217 O222 1.247 . S
C217 O223 1.208 . S
C218 O210 1.315 . S
C218 O213 1.279 . S
C219 O220 1.315 . S
C219 O221 1.279 . S
O220 Cd212 2.223 . S
O220 C219 1.315 . S
O221 Cd211 2.240 . S
O221 C219 1.279 . S
O222 Cd212 2.297 . S
O222 C217 1.247 . S
O223 Cd212 2.439 . S
O223 C217 1.208 . S
O224 Cd225 2.223 . S
O224 C232 1.315 . S
Cd225 O224 2.223 . S
Cd225 O228 2.297 . S
Cd225 O229 2.439 . S
Cd225 O235 2.240 1_545 S
Cd226 O227 2.240 1_565 S
Cd226 O234 2.223 . S
Cd226 O236 2.297 . S
Cd226 O237 2.439 1_565 S
O227 Cd226 2.240 1_545 S
O227 C232 1.279 . S
O228 Cd225 2.297 . S
O228 C230 1.247 . S
O229 Cd225 2.439 . S
O229 C230 1.208 . S
C230 O228 1.247 . S
C230 O229 1.208 . S
C231 O236 1.218 1_545 S
C231 O237 1.235 . S
C232 O224 1.315 . S
C232 O227 1.279 . S
C233 O234 1.315 . S
C233 O235 1.279 . S
O234 Cd226 2.223 . S
O234 C233 1.315 . S
O235 Cd225 2.240 1_565 S
O235 C233 1.279 . S
O236 Cd226 2.297 . S
O236 C231 1.218 1_565 S
O237 Cd226 2.439 1_545 S
O237 C231 1.235 . S
O238 Cd239 2.223 . S
O238 C246 1.315 . S
Cd239 O238 2.223 . S
Cd239 O242 2.297 . S
Cd239 O243 2.439 . S
Cd239 O249 2.240 . S
Cd240 O241 2.240 . S
Cd240 O248 2.223 . S
Cd240 O250 2.297 . S
Cd240 O251 2.439 . S
O241 Cd240 2.240 . S
O241 C246 1.279 . S
O242 Cd239 2.297 . S
O242 C244 1.247 . S
O243 Cd239 2.439 . S
O243 C244 1.208 . S
C244 O242 1.247 . S
C244 O243 1.208 . S
C245 O250 1.247 . S
C245 O251 1.208 . S
C246 O238 1.315 . S
C246 O241 1.279 . S
C247 O248 1.315 . S
C247 O249 1.279 . S
O248 Cd240 2.223 . S
O248 C247 1.315 . S
O249 Cd239 2.240 . S
O249 C247 1.279 . S
O250 Cd240 2.297 . S
O250 C245 1.247 . S
O251 Cd240 2.439 . S
O251 C245 1.208 . S
O252 Cd253 2.223 . S
O252 C260 1.315 . S
Cd253 O252 2.223 . S
Cd253 O256 2.297 1_545 S
Cd253 O257 2.439 1_545 S
Cd253 O263 2.240 . S
Cd254 O255 2.240 . S
Cd254 O262 2.223 . S
Cd254 O264 2.297 . S
Cd254 O265 2.439 . S
O255 Cd254 2.240 . S
O255 C260 1.279 . S
O256 Cd253 2.297 1_565 S
O256 C258 1.247 . S
O257 Cd253 2.439 1_565 S
O257 C258 1.208 . S
C258 O256 1.247 . S
C258 O257 1.208 . S
C259 O264 1.247 . S
C259 O265 1.208 . S
C260 O252 1.315 . S
C260 O255 1.279 . S
C261 O262 1.315 . S
C261 O263 1.279 . S
O262 Cd254 2.223 . S
O262 C261 1.315 . S
O263 Cd253 2.240 . S
O263 C261 1.279 . S
O264 Cd254 2.297 . S
O264 C259 1.247 . S
O265 Cd254 2.439 . S
O265 C259 1.208 . S
O266 Cd267 2.223 . S
O266 C274 1.315 . S
Cd267 O266 2.223 . S
Cd267 O270 2.297 . S
Cd267 O271 2.439 1_554 S
Cd267 O277 2.240 1_554 S
Cd268 O269 2.240 1_556 S
Cd268 O276 2.223 1_556 S
Cd268 O278 2.297 . S
Cd268 O279 2.439 . S
O269 Cd268 2.240 1_554 S
O269 C274 1.279 . S
O270 Cd267 2.297 . S
O270 C272 1.247 . S
O271 Cd267 2.439 1_556 S
O271 C272 1.208 1_556 S
C272 O270 1.247 . S
C272 O271 1.208 1_554 S
C273 O278 1.247 . S
C273 O279 1.208 . S
C274 O266 1.315 . S
C274 O269 1.279 . S
C275 O276 1.315 . S
C275 O277 1.279 1_554 S
O276 Cd268 2.223 1_554 S
O276 C275 1.315 . S
O277 Cd267 2.240 1_556 S
O277 C275 1.279 1_556 S
O278 Cd268 2.297 . S
O278 C273 1.247 . S
O279 Cd268 2.439 . S
O279 C273 1.208 . S
O280 Cd281 2.223 . S
O280 C288 1.315 . S
Cd281 O280 2.223 . S
Cd281 O284 2.297 . S
Cd281 O285 2.436 . S
Cd281 O291 2.240 1_554 S
Cd282 O283 2.240 1_556 S
Cd282 O290 2.223 1_556 S
Cd282 O292 2.297 . S
Cd282 O293 2.439 . S
O283 Cd282 2.240 1_554 S
O283 C288 1.279 . S
O284 Cd281 2.297 . S
O284 C286 1.247 . S
O285 Cd281 2.436 . S
O285 C286 1.204 . S
C286 O284 1.247 . S
C286 O285 1.204 . S
C287 O292 1.247 . S
C287 O293 1.208 . S
C288 O280 1.315 . S
C288 O283 1.279 . S
C289 O290 1.315 . S
C289 O291 1.279 1_554 S
O290 Cd282 2.223 1_554 S
O290 C289 1.315 . S
O291 Cd281 2.240 1_556 S
O291 C289 1.279 1_556 S
O292 Cd282 2.297 . S
O292 C287 1.247 . S
O293 Cd282 2.439 . S
O293 C287 1.208 . S
O294 Cd295 2.223 . S
O294 C302 1.315 . S
Cd295 O294 2.223 . S
Cd295 O298 2.297 . S
Cd295 O299 2.439 . S
Cd295 O305 2.240 . S
Cd296 O297 2.240 . S
Cd296 O304 2.223 . S
Cd296 O306 2.297 . S
Cd296 O307 2.439 . S
O297 Cd296 2.240 . S
O297 C302 1.279 . S
O298 Cd295 2.297 . S
O298 C300 1.247 . S
O299 Cd295 2.439 . S
O299 C300 1.208 . S
C300 O298 1.247 . S
C300 O299 1.208 . S
C301 O306 1.247 . S
C301 O307 1.208 . S
C302 O294 1.315 . S
C302 O297 1.279 . S
C303 O304 1.315 . S
C303 O305 1.279 . S
O304 Cd296 2.223 . S
O304 C303 1.315 . S
O305 Cd295 2.240 . S
O305 C303 1.279 . S
O306 Cd296 2.297 . S
O306 C301 1.247 . S
O307 Cd296 2.439 . S
O307 C301 1.208 . S
O308 Cd309 2.223 . S
O308 C316 1.315 . S
Cd309 O308 2.223 . S
Cd309 O312 2.297 . S
Cd309 O313 2.439 . S
Cd309 O319 2.240 . S
Cd310 O311 2.240 . S
Cd310 O318 2.223 . S
Cd310 O320 2.297 . S
Cd310 O321 2.439 . S
O311 Cd310 2.240 . S
O311 C316 1.279 . S
O312 Cd309 2.297 . S
O312 C314 1.247 . S
O313 Cd309 2.439 . S
O313 C314 1.208 . S
C314 O312 1.247 . S
C314 O313 1.208 . S
C315 O320 1.247 . S
C315 O321 1.208 . S
C316 O308 1.315 . S
C316 O311 1.279 . S
C317 O318 1.315 . S
C317 O319 1.279 . S
O318 Cd310 2.223 . S
O318 C317 1.315 . S
O319 Cd309 2.240 . S
O319 C317 1.279 . S
O320 Cd310 2.297 . S
O320 C315 1.247 . S
O321 Cd310 2.439 . S
O321 C315 1.208 . S
O322 Cd323 2.223 . S
O322 C330 1.315 . S
Cd323 O322 2.223 . S
Cd323 O326 2.297 . S
Cd323 O327 2.439 . S
Cd323 O333 2.240 . S
Cd324 O325 2.240 . S
Cd324 O332 2.223 . S
Cd324 O334 2.297 . S
Cd324 O335 2.439 . S
O325 Cd324 2.240 . S
O325 C330 1.279 . S
O326 Cd323 2.297 . S
O326 C328 1.247 . S
O327 Cd323 2.439 . S
O327 C328 1.208 . S
C328 O326 1.247 . S
C328 O327 1.208 . S
C329 O334 1.247 . S
C329 O335 1.208 . S
C330 O322 1.315 . S
C330 O325 1.279 . S
C331 O332 1.315 . S
C331 O333 1.279 . S
O332 Cd324 2.223 . S
O332 C331 1.315 . S
O333 Cd323 2.240 . S
O333 C331 1.279 . S
O334 Cd324 2.297 . S
O334 C329 1.247 . S
O335 Cd324 2.439 . S
O335 C329 1.208 . S
O336 Mn337 2.163 . S
O336 C350 1.244 . S
Mn337 O336 2.163 . S
Mn337 O340 2.160 1_445 S
Mn337 O341 2.198 1_455 S
Mn337 O343 2.163 1_554 S
Mn337 O345 2.160 1_545 S
Mn337 O355 2.221 1_545 S
O338 Mn339 2.086 1_545 S
O338 C350 1.257 . S
Mn339 O338 2.086 1_565 S
Mn339 O346 2.089 . S
Mn339 O355 2.290 . S
Mn339 O356 2.251 1_554 S
O340 Mn337 2.160 1_665 S
O340 C351 1.239 . S
O341 Mn337 2.198 1_655 S
O341 Mn342 2.336 . S
O341 C352 1.274 1_655 S
Mn342 O341 2.336 . S
Mn342 O344 2.089 . S
Mn342 O347 2.251 . S
Mn342 O348 2.087 1_554 S
O343 Mn337 2.163 1_556 S
O343 C353 1.244 1_455 S
O344 Mn342 2.089 . S
O344 C351 1.256 1_545 S
O345 Mn337 2.160 1_565 S
O345 C354 1.239 . S
O346 Mn339 2.089 . S
O346 C354 1.256 . S
O347 Mn342 2.251 . S
O347 C352 1.241 1_655 S
O348 Mn342 2.087 1_556 S
O348 C353 1.256 . S
C349 O355 1.278 1_556 S
C349 O356 1.241 . S
C350 O336 1.244 . S
C350 O338 1.257 . S
C351 O340 1.239 . S
C351 O344 1.256 1_565 S
C352 O341 1.274 1_455 S
C352 O347 1.241 1_455 S
C353 O343 1.244 1_655 S
C353 O348 1.256 . S
C354 O345 1.239 . S
C354 O346 1.256 . S
O355 Mn337 2.221 1_565 S
O355 Mn339 2.290 . S
O355 C349 1.278 1_554 S
O356 Mn339 2.251 1_556 S
O356 C349 1.241 . S
O357 Mn358 2.163 . S
O357 C371 1.244 . S
Mn358 O357 2.163 . S
Mn358 O361 2.160 . S
Mn358 O362 2.221 . S
Mn358 O364 2.163 . S
Mn358 O366 2.160 . S
Mn358 O376 2.221 . S
O359 Mn360 2.087 . S
O359 C371 1.256 . S
Mn360 O359 2.087 . S
Mn360 O367 2.089 . S
Mn360 O376 2.290 . S
Mn360 O377 2.251 . S
O361 Mn358 2.160 . S
O361 C372 1.239 . S
O362 Mn358 2.221 . S
O362 Mn363 2.290 . S
O362 C373 1.278 . S
Mn363 O362 2.290 . S
Mn363 O365 2.089 . S
Mn363 O368 2.251 . S
Mn363 O369 2.087 . S
O364 Mn358 2.163 . S
O364 C374 1.244 . S
O365 Mn363 2.089 . S
O365 C372 1.256 . S
O366 Mn358 2.160 . S
O366 C375 1.239 . S
O367 Mn360 2.089 . S
O367 C375 1.256 . S
O368 Mn363 2.251 . S
O368 C373 1.241 . S
O369 Mn363 2.087 . S
O369 C374 1.256 . S
C370 O376 1.278 . S
C370 O377 1.241 . S
C371 O357 1.244 . S
C371 O359 1.256 . S
C372 O361 1.239 . S
C372 O365 1.256 . S
C373 O362 1.278 . S
C373 O368 1.241 . S
C374 O364 1.244 . S
C374 O369 1.256 . S
C375 O366 1.239 . S
C375 O367 1.256 . S
O376 Mn358 2.221 . S
O376 Mn360 2.290 . S
O376 C370 1.278 . S
O377 Mn360 2.251 . S
O377 C370 1.241 . S
O378 Mn379 2.163 . S
O378 C392 1.244 . S
Mn379 O378 2.163 . S
Mn379 O382 2.160 . S
Mn379 O383 2.221 1_545 S
Mn379 O385 2.163 . S
Mn379 O387 2.160 . S
Mn379 O397 2.221 . S
O380 Mn381 2.087 . S
O380 C392 1.256 . S
Mn381 O380 2.087 . S
Mn381 O388 2.089 . S
Mn381 O397 2.290 . S
Mn381 O398 2.251 . S
O382 Mn379 2.160 . S
O382 C393 1.239 . S
O383 Mn379 2.221 1_565 S
O383 Mn384 2.290 . S
O383 C394 1.278 . S
Mn384 O383 2.290 . S
Mn384 O386 2.089 1_565 S
Mn384 O389 2.251 . S
Mn384 O390 2.087 . S
O385 Mn379 2.163 . S
O385 C395 1.244 . S
O386 Mn384 2.089 1_545 S
O386 C393 1.256 . S
O387 Mn379 2.160 . S
O387 C396 1.239 . S
O388 Mn381 2.089 . S
O388 C396 1.256 . S
O389 Mn384 2.251 . S
O389 C394 1.241 . S
O390 Mn384 2.087 . S
O390 C395 1.256 1_565 S
C391 O397 1.278 . S
C391 O398 1.241 . S
C392 O378 1.244 . S
C392 O380 1.256 . S
C393 O382 1.239 . S
C393 O386 1.256 . S
C394 O383 1.278 . S
C394 O389 1.241 . S
C395 O385 1.244 . S
C395 O390 1.256 1_545 S
C396 O387 1.239 . S
C396 O388 1.256 . S
O397 Mn379 2.221 . S
O397 Mn381 2.290 . S
O397 C391 1.278 . S
O398 Mn381 2.251 . S
O398 C391 1.241 . S
O399 Mn400 2.163 . S
O399 C413 1.244 . S
Mn400 O399 2.163 . S
Mn400 O403 2.160 . S
Mn400 O404 2.221 . S
Mn400 O406 2.163 . S
Mn400 O408 2.160 . S
Mn400 O418 2.221 . S
O401 Mn402 2.087 . S
O401 C413 1.256 . S
Mn402 O401 2.087 . S
Mn402 O409 2.089 . S
Mn402 O418 2.290 . S
Mn402 O419 2.251 . S
O403 Mn400 2.160 . S
O403 C414 1.239 . S
O404 Mn400 2.221 . S
O404 Mn405 2.290 . S
O404 C415 1.278 . S
Mn405 O404 2.290 . S
Mn405 O407 2.089 . S
Mn405 O410 2.251 . S
Mn405 O411 2.087 . S
O406 Mn400 2.163 . S
O406 C416 1.244 . S
O407 Mn405 2.089 . S
O407 C414 1.256 . S
O408 Mn400 2.160 . S
O408 C417 1.239 . S
O409 Mn402 2.089 . S
O409 C417 1.256 . S
O410 Mn405 2.251 . S
O410 C415 1.241 . S
O411 Mn405 2.087 . S
O411 C416 1.256 . S
C412 O418 1.278 . S
C412 O419 1.241 . S
C413 O399 1.244 . S
C413 O401 1.256 . S
C414 O403 1.239 . S
C414 O407 1.256 . S
C415 O404 1.278 . S
C415 O410 1.241 . S
C416 O406 1.244 . S
C416 O411 1.256 . S
C417 O408 1.239 . S
C417 O409 1.256 . S
O418 Mn400 2.221 . S
O418 Mn402 2.290 . S
O418 C412 1.278 . S
O419 Mn402 2.251 . S
O419 C412 1.241 . S
O420 Mn421 2.164 1_565 S
O420 C434 1.243 1_455 S
Mn421 O420 2.164 1_545 S
Mn421 O424 2.160 . S
Mn421 O425 2.221 . S
Mn421 O427 2.163 1_455 S
Mn421 O429 2.160 . S
Mn421 O439 2.221 1_445 S
O422 Mn423 2.087 1_655 S
O422 C434 1.256 . S
Mn423 O422 2.087 1_455 S
Mn423 O430 2.089 . S
Mn423 O439 2.290 1_455 S
Mn423 O440 2.251 1_455 S
O424 Mn421 2.160 . S
O424 C435 1.239 . S
O425 Mn421 2.221 . S
O425 Mn426 2.270 1_455 S
O425 C436 1.278 . S
Mn426 O425 2.270 1_655 S
Mn426 O428 2.085 1_655 S
Mn426 O431 2.244 1_655 S
Mn426 O432 2.121 . S
O427 Mn421 2.163 1_655 S
O427 C437 1.244 . S
O428 Mn426 2.085 1_455 S
O428 C435 1.256 . S
O429 Mn421 2.160 . S
O429 C438 1.239 1_545 S
O430 Mn423 2.089 . S
O430 C438 1.256 . S
O431 Mn426 2.244 1_455 S
O431 C436 1.241 . S
O432 Mn426 2.121 . S
O432 C437 1.256 . S
C433 O439 1.278 . S
C433 O440 1.241 . S
C434 O420 1.243 1_655 S
C434 O422 1.256 . S
C435 O424 1.239 . S
C435 O428 1.256 . S
C436 O425 1.278 . S
C436 O431 1.241 . S
C437 O427 1.244 . S
C437 O432 1.256 . S
C438 O429 1.239 1_565 S
C438 O430 1.256 . S
O439 Mn421 2.221 1_665 S
O439 Mn423 2.290 1_655 S
O439 C433 1.278 . S
O440 Mn423 2.251 1_655 S
O440 C433 1.241 . S
O441 Mn442 2.163 . S
O441 C455 1.244 . S
Mn442 O441 2.163 . S
Mn442 O445 2.160 . S
Mn442 O446 2.221 . S
Mn442 O448 2.163 . S
Mn442 O450 2.160 . S
Mn442 O460 2.221 . S
O443 Mn444 2.087 . S
O443 C455 1.256 . S
Mn444 O443 2.087 . S
Mn444 O451 2.089 . S
Mn444 O460 2.290 . S
Mn444 O461 2.251 . S
O445 Mn442 2.160 . S
O445 C456 1.239 . S
O446 Mn442 2.221 . S
O446 Mn447 2.290 . S
O446 C457 1.278 . S
Mn447 O446 2.290 . S
Mn447 O449 2.089 . S
Mn447 O452 2.251 . S
Mn447 O453 2.087 . S
O448 Mn442 2.163 . S
O448 C458 1.244 . S
O449 Mn447 2.089 . S
O449 C456 1.256 . S
O450 Mn442 2.160 . S
O450 C459 1.239 . S
O451 Mn444 2.089 . S
O451 C459 1.256 . S
O452 Mn447 2.251 . S
O452 C457 1.241 . S
O453 Mn447 2.087 . S
O453 C458 1.256 . S
C454 O460 1.278 . S
C454 O461 1.241 . S
C455 O441 1.244 . S
C455 O443 1.256 . S
C456 O445 1.239 . S
C456 O449 1.256 . S
C457 O446 1.278 . S
C457 O452 1.241 . S
C458 O448 1.244 . S
C458 O453 1.256 . S
C459 O450 1.239 . S
C459 O451 1.256 . S
O460 Mn442 2.221 . S
O460 Mn444 2.290 . S
O460 C454 1.278 . S
O461 Mn444 2.251 . S
O461 C454 1.241 . S
O462 Mn463 2.163 1_556 S
O462 C476 1.244 . S
Mn463 O462 2.163 1_554 S
Mn463 O466 2.160 . S
Mn463 O467 2.221 . S
Mn463 O469 2.163 1_545 S
Mn463 O471 2.160 . S
Mn463 O481 2.221 . S
O464 Mn465 2.087 . S
O464 C476 1.256 . S
Mn465 O464 2.087 . S
Mn465 O472 2.089 . S
Mn465 O481 2.290 1_556 S
Mn465 O482 2.251 1_545 S
O466 Mn463 2.160 . S
O466 C477 1.239 . S
O467 Mn463 2.221 . S
O467 Mn468 2.290 . S
O467 C478 1.278 . S
Mn468 O467 2.290 . S
Mn468 O470 2.089 . S
Mn468 O473 2.251 . S
Mn468 O474 2.087 1_545 S
O469 Mn463 2.163 1_565 S
O469 C479 1.244 . S
O470 Mn468 2.089 . S
O470 C477 1.256 . S
O471 Mn463 2.160 . S
O471 C480 1.239 1_554 S
O472 Mn465 2.089 . S
O472 C480 1.256 . S
O473 Mn468 2.251 . S
O473 C478 1.241 . S
O474 Mn468 2.087 1_565 S
O474 C479 1.256 . S
C475 O481 1.242 1_566 S
C475 O482 1.248 . S
C476 O462 1.244 . S
C476 O464 1.256 . S
C477 O466 1.239 . S
C477 O470 1.256 . S
C478 O467 1.278 . S
C478 O473 1.241 . S
C479 O469 1.244 . S
C479 O474 1.256 . S
C480 O471 1.239 1_556 S
C480 O472 1.256 . S
O481 Mn463 2.221 . S
O481 Mn465 2.290 1_554 S
O481 C475 1.242 1_544 S
O482 Mn465 2.251 1_565 S
O482 C475 1.248 . S
O483 Mn484 2.163 . S
O483 C497 1.244 . S
Mn484 O483 2.163 . S
Mn484 O487 2.160 . S
Mn484 O488 2.221 . S
Mn484 O490 2.163 . S
Mn484 O492 2.160 . S
Mn484 O502 2.221 . S
O485 Mn486 2.087 . S
O485 C497 1.256 . S
Mn486 O485 2.087 . S
Mn486 O493 2.089 . S
Mn486 O502 2.290 . S
Mn486 O503 2.251 . S
O487 Mn484 2.160 . S
O487 C498 1.239 . S
O488 Mn484 2.221 . S
O488 Mn489 2.290 . S
O488 C499 1.278 . S
Mn489 O488 2.290 . S
Mn489 O491 2.089 . S
Mn489 O494 2.251 . S
Mn489 O495 2.087 . S
O490 Mn484 2.163 . S
O490 C500 1.244 . S
O491 Mn489 2.089 . S
O491 C498 1.256 . S
O492 Mn484 2.160 . S
O492 C501 1.239 . S
O493 Mn486 2.089 . S
O493 C501 1.256 . S
O494 Mn489 2.251 . S
O494 C499 1.241 . S
O495 Mn489 2.087 . S
O495 C500 1.256 . S
C496 O502 1.278 . S
C496 O503 1.241 . S
C497 O483 1.244 . S
C497 O485 1.256 . S
C498 O487 1.239 . S
C498 O491 1.256 . S
C499 O488 1.278 . S
C499 O494 1.241 . S
C500 O490 1.244 . S
C500 O495 1.256 . S
C501 O492 1.239 . S
C501 O493 1.256 . S
O502 Mn484 2.221 . S
O502 Mn486 2.290 . S
O502 C496 1.278 . S
O503 Mn486 2.251 . S
O503 C496 1.241 . S
O504 Mn505 2.163 . S
O504 C518 1.244 . S
Mn505 O504 2.163 . S
Mn505 O508 2.160 . S
Mn505 O509 2.221 1_554 S
Mn505 O511 2.163 . S
Mn505 O513 2.160 . S
Mn505 O523 2.221 . S
O506 Mn507 2.087 . S
O506 C518 1.256 . S
Mn507 O506 2.087 . S
Mn507 O514 2.089 . S
Mn507 O523 2.290 . S
Mn507 O524 2.251 . S
O508 Mn505 2.160 . S
O508 C519 1.239 . S
O509 Mn505 2.221 1_556 S
O509 Mn510 2.290 . S
O509 C520 1.278 . S
Mn510 O509 2.290 . S
Mn510 O512 2.089 1_556 S
Mn510 O515 2.251 . S
Mn510 O516 2.087 . S
O511 Mn505 2.163 . S
O511 C521 1.244 . S
O512 Mn510 2.089 1_554 S
O512 C519 1.256 . S
O513 Mn505 2.160 . S
O513 C522 1.239 . S
O514 Mn507 2.089 . S
O514 C522 1.256 . S
O515 Mn510 2.251 . S
O515 C520 1.241 . S
O516 Mn510 2.087 . S
O516 C521 1.256 1_556 S
C517 O523 1.278 . S
C517 O524 1.241 . S
C518 O504 1.244 . S
C518 O506 1.256 . S
C519 O508 1.239 . S
C519 O512 1.256 . S
C520 O509 1.278 . S
C520 O515 1.241 . S
C521 O511 1.244 . S
C521 O516 1.256 1_554 S
C522 O513 1.239 . S
C522 O514 1.256 . S
O523 Mn505 2.221 . S
O523 Mn507 2.290 . S
O523 C517 1.278 . S
O524 Mn507 2.251 . S
O524 C517 1.241 . S
O525 Mn526 2.163 . S
O525 C539 1.244 . S
Mn526 O525 2.163 . S
Mn526 O529 2.160 . S
Mn526 O530 2.221 . S
Mn526 O532 2.163 . S
Mn526 O534 2.160 . S
Mn526 O544 2.221 . S
O527 Mn528 2.087 . S
O527 C539 1.256 . S
Mn528 O527 2.087 . S
Mn528 O535 2.089 . S
Mn528 O544 2.290 . S
Mn528 O545 2.251 . S
O529 Mn526 2.160 . S
O529 C540 1.239 . S
O530 Mn526 2.221 . S
O530 Mn531 2.290 . S
O530 C541 1.278 . S
Mn531 O530 2.290 . S
Mn531 O533 2.089 . S
Mn531 O536 2.251 . S
Mn531 O537 2.087 . S
O532 Mn526 2.163 . S
O532 C542 1.244 . S
O533 Mn531 2.089 . S
O533 C540 1.256 . S
O534 Mn526 2.160 . S
O534 C543 1.239 . S
O535 Mn528 2.089 . S
O535 C543 1.256 . S
O536 Mn531 2.251 . S
O536 C541 1.241 . S
O537 Mn531 2.087 . S
O537 C542 1.256 . S
C538 O544 1.278 . S
C538 O545 1.241 . S
C539 O525 1.244 . S
C539 O527 1.256 . S
C540 O529 1.239 . S
C540 O533 1.256 . S
C541 O530 1.278 . S
C541 O536 1.241 . S
C542 O532 1.244 . S
C542 O537 1.256 . S
C543 O534 1.239 . S
C543 O535 1.256 . S
O544 Mn526 2.221 . S
O544 Mn528 2.290 . S
O544 C538 1.278 . S
O545 Mn528 2.251 . S
O545 C538 1.241 . S
O546 Mn547 2.163 1_655 S
O546 C560 1.244 . S
Mn547 O546 2.163 1_455 S
Mn547 O550 2.160 . S
Mn547 O551 2.221 1_455 S
Mn547 O553 2.163 . S
Mn547 O555 2.160 . S
Mn547 O565 2.221 . S
O548 Mn549 2.087 . S
O548 C560 1.256 1_455 S
Mn549 O548 2.087 . S
Mn549 O556 2.089 . S
Mn549 O565 2.290 . S
Mn549 O566 2.251 . S
O550 Mn547 2.160 . S
O550 C561 1.239 . S
O551 Mn547 2.221 1_655 S
O551 Mn552 2.290 . S
O551 C562 1.278 . S
Mn552 O551 2.290 . S
Mn552 O554 2.089 1_655 S
Mn552 O557 2.251 . S
Mn552 O558 2.087 . S
O553 Mn547 2.163 . S
O553 C563 1.260 . S
O554 Mn552 2.089 1_455 S
O554 C561 1.256 . S
O555 Mn547 2.160 . S
O555 C564 1.239 . S
O556 Mn549 2.089 . S
O556 C564 1.256 . S
O557 Mn552 2.251 . S
O557 C562 1.241 . S
O558 Mn552 2.087 . S
O558 C563 1.232 1_655 S
C559 O565 1.278 . S
C559 O566 1.241 . S
C560 O546 1.244 . S
C560 O548 1.256 1_655 S
C561 O550 1.239 . S
C561 O554 1.256 . S
C562 O551 1.278 . S
C562 O557 1.241 . S
C563 O553 1.260 . S
C563 O558 1.232 1_455 S
C564 O555 1.239 . S
C564 O556 1.256 . S
O565 Mn547 2.221 . S
O565 Mn549 2.290 . S
O565 C559 1.278 . S
O566 Mn549 2.251 . S
O566 C559 1.241 . S
O567 Mn568 2.163 . S
O567 C581 1.244 . S
Mn568 O567 2.163 . S
Mn568 O571 2.160 . S
Mn568 O572 2.221 . S
Mn568 O574 2.163 . S
Mn568 O576 2.160 . S
Mn568 O586 2.221 . S
O569 Mn570 2.087 . S
O569 C581 1.256 . S
Mn570 O569 2.087 . S
Mn570 O577 2.089 . S
Mn570 O586 2.290 . S
Mn570 O587 2.251 . S
O571 Mn568 2.160 . S
O571 C582 1.239 . S
O572 Mn568 2.221 . S
O572 Mn573 2.290 . S
O572 C583 1.278 . S
Mn573 O572 2.290 . S
Mn573 O575 2.089 . S
Mn573 O578 2.251 . S
Mn573 O579 2.087 . S
O574 Mn568 2.163 . S
O574 C584 1.244 . S
O575 Mn573 2.089 . S
O575 C582 1.256 . S
O576 Mn568 2.160 . S
O576 C585 1.239 . S
O577 Mn570 2.089 . S
O577 C585 1.256 . S
O578 Mn573 2.251 . S
O578 C583 1.241 . S
O579 Mn573 2.087 . S
O579 C584 1.256 . S
C580 O586 1.278 . S
C580 O587 1.241 . S
C581 O567 1.244 . S
C581 O569 1.256 . S
C582 O571 1.239 . S
C582 O575 1.256 . S
C583 O572 1.278 . S
C583 O578 1.241 . S
C584 O574 1.244 . S
C584 O579 1.256 . S
C585 O576 1.239 . S
C585 O577 1.256 . S
O586 Mn568 2.221 . S
O586 Mn570 2.290 . S
O586 C580 1.278 . S
O587 Mn570 2.251 . S
O587 C580 1.241 . S
O588 Mn589 2.163 . S
O588 C602 1.244 . S
Mn589 O588 2.163 . S
Mn589 O592 2.160 . S
Mn589 O593 2.221 . S
Mn589 O595 2.163 . S
Mn589 O597 2.160 . S
Mn589 O607 2.221 . S
O590 Mn591 2.087 . S
O590 C602 1.256 . S
Mn591 O590 2.087 . S
Mn591 O598 2.089 . S
Mn591 O607 2.290 . S
Mn591 O608 2.251 . S
O592 Mn589 2.160 . S
O592 C603 1.239 . S
O593 Mn589 2.221 . S
O593 Mn594 2.290 . S
O593 C604 1.278 . S
Mn594 O593 2.290 . S
Mn594 O596 2.089 . S
Mn594 O599 2.251 . S
Mn594 O600 2.087 . S
O595 Mn589 2.163 . S
O595 C605 1.244 . S
O596 Mn594 2.089 . S
O596 C603 1.256 . S
O597 Mn589 2.160 . S
O597 C606 1.239 . S
O598 Mn591 2.089 . S
O598 C606 1.256 . S
O599 Mn594 2.251 . S
O599 C604 1.241 . S
O600 Mn594 2.087 . S
O600 C605 1.256 . S
C601 O607 1.278 . S
C601 O608 1.241 . S
C602 O588 1.244 . S
C602 O590 1.256 . S
C603 O592 1.239 . S
C603 O596 1.256 . S
C604 O593 1.278 . S
C604 O599 1.241 . S
C605 O595 1.244 . S
C605 O600 1.256 . S
C606 O597 1.239 . S
C606 O598 1.256 . S
O607 Mn589 2.221 . S
O607 Mn591 2.290 . S
O607 C601 1.278 . S
O608 Mn591 2.251 . S
O608 C601 1.241 . S
O609 Mn610 2.163 . S
O609 C623 1.244 . S
Mn610 O609 2.163 . S
Mn610 O613 2.160 . S
Mn610 O614 2.221 . S
Mn610 O616 2.163 . S
Mn610 O618 2.160 . S
Mn610 O628 2.221 . S
O611 Mn612 2.087 . S
O611 C623 1.256 . S
Mn612 O611 2.087 . S
Mn612 O619 2.089 . S
Mn612 O628 2.290 . S
Mn612 O629 2.251 . S
O613 Mn610 2.160 . S
O613 C624 1.239 . S
O614 Mn610 2.221 . S
O614 Mn615 2.290 . S
O614 C625 1.278 . S
Mn615 O614 2.290 . S
Mn615 O617 2.089 . S
Mn615 O620 2.251 . S
Mn615 O621 2.087 . S
O616 Mn610 2.163 . S
O616 C626 1.244 . S
O617 Mn615 2.089 . S
O617 C624 1.256 . S
O618 Mn610 2.160 . S
O618 C627 1.239 . S
O619 Mn612 2.089 . S
O619 C627 1.256 . S
O620 Mn615 2.251 . S
O620 C625 1.241 . S
O621 Mn615 2.087 . S
O621 C626 1.256 . S
C622 O628 1.278 . S
C622 O629 1.241 . S
C623 O609 1.244 . S
C623 O611 1.256 . S
C624 O613 1.239 . S
C624 O617 1.256 . S
C625 O614 1.278 . S
C625 O620 1.241 . S
C626 O616 1.244 . S
C626 O621 1.256 . S
C627 O618 1.239 . S
C627 O619 1.256 . S
O628 Mn610 2.221 . S
O628 Mn612 2.290 . S
O628 C622 1.278 . S
O629 Mn612 2.251 . S
O629 C622 1.241 . S
O630 Mn631 2.163 . S
O630 C644 1.244 . S
Mn631 O630 2.163 . S
Mn631 O634 2.160 . S
Mn631 O635 2.221 . S
Mn631 O637 2.163 . S
Mn631 O639 2.160 . S
Mn631 O649 2.221 . S
O632 Mn633 2.087 . S
O632 C644 1.256 . S
Mn633 O632 2.087 . S
Mn633 O640 2.089 . S
Mn633 O649 2.290 . S
Mn633 O650 2.251 . S
O634 Mn631 2.160 . S
O634 C645 1.239 . S
O635 Mn631 2.221 . S
O635 Mn636 2.290 . S
O635 C646 1.278 . S
Mn636 O635 2.290 . S
Mn636 O638 2.089 . S
Mn636 O641 2.251 . S
Mn636 O642 2.087 . S
O637 Mn631 2.163 . S
O637 C647 1.244 . S
O638 Mn636 2.089 . S
O638 C645 1.256 . S
O639 Mn631 2.160 . S
O639 C648 1.239 . S
O640 Mn633 2.089 . S
O640 C648 1.256 . S
O641 Mn636 2.251 . S
O641 C646 1.241 . S
O642 Mn636 2.087 . S
O642 C647 1.256 . S
C643 O649 1.278 . S
C643 O650 1.241 . S
C644 O630 1.244 . S
C644 O632 1.256 . S
C645 O634 1.239 . S
C645 O638 1.256 . S
C646 O635 1.278 . S
C646 O641 1.241 . S
C647 O637 1.244 . S
C647 O642 1.256 . S
C648 O639 1.239 . S
C648 O640 1.256 . S
O649 Mn631 2.221 . S
O649 Mn633 2.290 . S
O649 C643 1.278 . S
O650 Mn633 2.251 . S
O650 C643 1.241 . S
O651 Mn652 2.163 1_655 S
O651 C665 1.244 . S
Mn652 O651 2.163 1_455 S
Mn652 O655 2.160 . S
Mn652 O656 2.221 . S
Mn652 O658 2.163 1_554 S
Mn652 O660 2.160 . S
Mn652 O670 2.221 1_455 S
O653 Mn654 2.087 . S
O653 C665 1.256 . S
Mn654 O653 2.087 . S
Mn654 O661 2.089 . S
Mn654 O670 2.290 . S
Mn654 O671 2.251 1_554 S
O655 Mn652 2.160 . S
O655 C666 1.239 . S
O656 Mn652 2.221 . S
O656 Mn657 2.290 . S
O656 C667 1.278 . S
Mn657 O656 2.290 . S
Mn657 O659 2.089 . S
Mn657 O662 2.251 . S
Mn657 O663 2.087 1_554 S
O658 Mn652 2.163 1_556 S
O658 C668 1.244 . S
O659 Mn657 2.089 . S
O659 C666 1.256 . S
O660 Mn652 2.160 . S
O660 C669 1.239 1_455 S
O661 Mn654 2.089 . S
O661 C669 1.256 . S
O662 Mn657 2.251 . S
O662 C667 1.241 . S
O663 Mn657 2.087 1_556 S
O663 C668 1.256 . S
C664 O670 1.278 1_556 S
C664 O671 1.241 . S
C665 O651 1.244 . S
C665 O653 1.256 . S
C666 O655 1.239 . S
C666 O659 1.256 . S
C667 O656 1.278 . S
C667 O662 1.241 . S
C668 O658 1.244 . S
C668 O663 1.256 . S
C669 O660 1.239 1_655 S
C669 O661 1.256 . S
O670 Mn652 2.221 1_655 S
O670 Mn654 2.290 . S
O670 C664 1.278 1_554 S
O671 Mn654 2.251 1_556 S
O671 C664 1.241 . S
H672 C690 0.951 . S
H673 C692 0.951 . S
H674 C694 0.950 . S
H675 C695 0.950 . S
H676 C697 0.950 . S
H677 C700 0.950 . S
H678 C701 0.950 . S
H679 C703 0.950 . S
H680 C704 0.950 . S
H681 C705 0.951 . S
H682 C707 0.951 . S
H683 C709 0.950 . S
H684 C710 0.950 . S
H685 C712 0.950 . S
H686 C715 0.957 . S
H687 C716 0.927 1_556 S
H688 C718 0.950 1_556 S
H689 C719 0.950 . S
C690 H672 0.951 . S
C690 C691 1.366 1_655 S
C690 C692 1.388 . S
C691 C690 1.366 1_455 S
C691 C695 1.385 . S
C692 H673 0.951 . S
C692 C690 1.388 . S
C692 C693 1.366 1_655 S
C693 C692 1.366 1_455 S
C693 C694 1.414 . S
C693 C696 1.499 . S
C694 H674 0.950 . S
C694 C693 1.414 . S
C694 C695 1.374 . S
C695 H675 0.950 . S
C695 C691 1.385 . S
C695 C694 1.374 . S
C696 C693 1.499 . S
C696 C697 1.373 . S
C696 C698 1.389 . S
C697 H676 0.950 . S
C697 C696 1.373 . S
C697 C713 1.377 . S
C698 C696 1.389 . S
C698 C699 1.524 . S
C698 C712 1.377 . S
C699 C698 1.524 . S
C699 C700 1.397 . S
C699 C704 1.363 1_455 S
C700 H677 0.950 . S
C700 C699 1.397 . S
C700 C701 1.334 . S
C701 H678 0.950 . S
C701 C700 1.334 . S
C701 C702 1.287 . S
C702 C701 1.287 . S
C702 C703 1.524 1_455 S
C702 H721 0.913 . S
C703 H679 0.950 . S
C703 C702 1.524 1_655 S
C703 C704 1.415 . S
C704 H680 0.950 . S
C704 C699 1.363 1_655 S
C704 C703 1.415 . S
C705 H681 0.951 . S
C705 C706 1.366 . S
C705 C707 1.388 . S
C706 C705 1.366 . S
C706 C710 1.385 1_455 S
C707 H682 0.951 . S
C707 C705 1.388 . S
C707 C708 1.366 . S
C708 C707 1.366 . S
C708 C709 1.414 1_455 S
C708 C711 1.499 . S
C709 H683 0.950 . S
C709 C708 1.414 1_655 S
C709 C710 1.374 . S
C710 H684 0.950 . S
C710 C706 1.385 1_655 S
C710 C709 1.374 . S
C711 C708 1.499 . S
C711 C712 1.373 . S
C711 C713 1.389 . S
C712 H685 0.950 . S
C712 C698 1.377 . S
C712 C711 1.373 . S
C713 C697 1.377 . S
C713 C711 1.389 . S
C713 C714 1.524 . S
C714 C713 1.524 . S
C714 C715 1.390 1_455 S
C714 C719 1.363 . S
C715 H686 0.957 . S
C715 C714 1.390 1_655 S
C715 C716 1.383 . S
C716 H687 0.927 1_554 S
C716 C715 1.383 . S
C716 C717 1.264 1_654 S
C717 C716 1.264 1_456 S
C717 C718 1.524 1_556 S
C717 H720 0.999 . S
C718 H688 0.950 1_554 S
C718 C717 1.524 1_554 S
C718 C719 1.415 . S
C719 H689 0.950 . S
C719 C714 1.363 . S
C719 C718 1.415 . S
H720 C717 0.999 . S
H721 C702 0.913 . S
H722 C740 0.951 . S
H723 C742 0.951 . S
H724 C744 0.950 . S
H725 C745 0.950 . S
H726 C747 0.950 . S
H727 C750 0.950 . S
H728 C751 0.950 . S
H729 C753 0.950 . S
H730 C754 0.950 . S
H731 C755 0.951 . S
H732 C757 0.951 . S
H733 C759 0.950 . S
H734 C760 0.950 . S
H735 C762 0.950 . S
H736 C765 0.950 . S
H737 C766 0.950 . S
H738 C768 0.950 . S
H739 C769 0.950 . S
C740 H722 0.951 . S
C740 C741 1.366 . S
C740 C742 1.388 . S
C741 C740 1.366 . S
C741 C745 1.385 . S
C742 H723 0.951 . S
C742 C740 1.388 . S
C742 C743 1.366 . S
C743 C742 1.366 . S
C743 C744 1.414 . S
C743 C746 1.499 . S
C744 H724 0.950 . S
C744 C743 1.414 . S
C744 C745 1.374 . S
C745 H725 0.950 . S
C745 C741 1.385 . S
C745 C744 1.374 . S
C746 C743 1.499 . S
C746 C747 1.373 . S
C746 C748 1.389 . S
C747 H726 0.950 . S
C747 C746 1.373 . S
C747 C763 1.377 . S
C748 C746 1.389 . S
C748 C749 1.524 . S
C748 C762 1.377 . S
C749 C748 1.524 . S
C749 C750 1.397 . S
C749 C754 1.363 . S
C750 H727 0.950 . S
C750 C749 1.397 . S
C750 C751 1.334 . S
C751 H728 0.950 . S
C751 C750 1.334 . S
C751 C752 1.287 . S
C752 C751 1.287 . S
C752 C753 1.524 . S
C752 H771 0.913 . S
C753 H729 0.950 . S
C753 C752 1.524 . S
C753 C754 1.415 . S
C754 H730 0.950 . S
C754 C749 1.363 . S
C754 C753 1.415 . S
C755 H731 0.951 . S
C755 C756 1.366 . S
C755 C757 1.388 . S
C756 C755 1.366 . S
C756 C760 1.385 . S
C757 H732 0.951 . S
C757 C755 1.388 . S
C757 C758 1.366 . S
C758 C757 1.366 . S
C758 C759 1.414 . S
C758 C761 1.499 . S
C759 H733 0.950 . S
C759 C758 1.414 . S
C759 C760 1.374 . S
C760 H734 0.950 . S
C760 C756 1.385 . S
C760 C759 1.374 . S
C761 C758 1.499 . S
C761 C762 1.373 . S
C761 C763 1.389 . S
C762 H735 0.950 . S
C762 C748 1.377 . S
C762 C761 1.373 . S
C763 C747 1.377 . S
C763 C761 1.389 . S
C763 C764 1.524 . S
C764 C763 1.524 . S
C764 C765 1.397 . S
C764 C769 1.363 . S
C765 H736 0.950 . S
C765 C764 1.397 . S
C765 C766 1.334 . S
C766 H737 0.950 . S
C766 C765 1.334 . S
C766 C767 1.287 . S
C767 C766 1.287 . S
C767 C768 1.524 . S
C767 H770 0.999 . S
C768 H738 0.950 . S
C768 C767 1.524 . S
C768 C769 1.415 . S
C769 H739 0.950 . S
C769 C764 1.363 . S
C769 C768 1.415 . S
H770 C767 0.999 . S
H771 C752 0.913 . S
H772 C790 0.951 . S
H773 C792 0.951 . S
H774 C794 0.950 . S
H775 C795 0.950 . S
H776 C797 0.950 . S
H777 C800 0.950 . S
H778 C801 0.950 . S
H779 C803 0.950 . S
H780 C804 0.950 . S
H781 C805 0.951 . S
H782 C807 0.951 . S
H783 C809 0.950 . S
H784 C810 0.950 . S
H785 C812 0.950 . S
H786 C815 0.950 . S
H787 C816 0.950 . S
H788 C818 0.950 . S
H789 C819 0.950 . S
C790 H772 0.951 . S
C790 C791 1.366 . S
C790 C792 1.388 . S
C791 C790 1.366 . S
C791 C795 1.385 . S
C792 H773 0.951 . S
C792 C790 1.388 . S
C792 C793 1.366 . S
C793 C792 1.366 . S
C793 C794 1.414 . S
C793 C796 1.499 . S
C794 H774 0.950 . S
C794 C793 1.414 . S
C794 C795 1.374 . S
C795 H775 0.950 . S
C795 C791 1.385 . S
C795 C794 1.374 . S
C796 C793 1.499 . S
C796 C797 1.373 . S
C796 C798 1.389 . S
C797 H776 0.950 . S
C797 C796 1.373 . S
C797 C813 1.377 . S
C798 C796 1.389 . S
C798 C799 1.524 . S
C798 C812 1.377 . S
C799 C798 1.524 . S
C799 C800 1.397 . S
C799 C804 1.363 . S
C800 H777 0.950 . S
C800 C799 1.397 . S
C800 C801 1.334 . S
C801 H778 0.950 . S
C801 C800 1.334 . S
C801 C802 1.287 . S
C802 C801 1.287 . S
C802 C803 1.524 . S
C802 H821 0.913 . S
C803 H779 0.950 . S
C803 C802 1.524 . S
C803 C804 1.415 . S
C804 H780 0.950 . S
C804 C799 1.363 . S
C804 C803 1.415 . S
C805 H781 0.951 . S
C805 C806 1.366 . S
C805 C807 1.388 . S
C806 C805 1.366 . S
C806 C810 1.385 . S
C807 H782 0.951 . S
C807 C805 1.388 . S
C807 C808 1.366 . S
C808 C807 1.366 . S
C808 C809 1.414 . S
C808 C811 1.499 . S
C809 H783 0.950 . S
C809 C808 1.414 . S
C809 C810 1.374 . S
C810 H784 0.950 . S
C810 C806 1.385 . S
C810 C809 1.374 . S
C811 C808 1.499 . S
C811 C812 1.373 . S
C811 C813 1.389 . S
C812 H785 0.950 . S
C812 C798 1.377 . S
C812 C811 1.373 . S
C813 C797 1.377 . S
C813 C811 1.389 . S
C813 C814 1.524 . S
C814 C813 1.524 . S
C814 C815 1.397 . S
C814 C819 1.363 . S
C815 H786 0.950 . S
C815 C814 1.397 . S
C815 C816 1.334 . S
C816 H787 0.950 . S
C816 C815 1.334 . S
C816 C817 1.287 . S
C817 C816 1.287 . S
C817 C818 1.524 . S
C817 H820 0.999 . S
C818 H788 0.950 . S
C818 C817 1.524 . S
C818 C819 1.415 . S
C819 H789 0.950 . S
C819 C814 1.363 . S
C819 C818 1.415 . S
H820 C817 0.999 . S
H821 C802 0.913 . S
H822 C840 0.951 . S
H823 C842 0.951 . S
H824 C844 0.950 . S
H825 C845 0.950 . S
H826 C847 0.950 . S
H827 C850 0.950 . S
H828 C851 0.950 . S
H829 C853 0.950 . S
H830 C854 0.950 . S
H831 C855 0.951 . S
H832 C857 0.951 . S
H833 C859 0.950 . S
H834 C860 0.950 . S
H835 C862 0.950 . S
H836 C865 0.950 . S
H837 C866 0.950 . S
H838 C868 0.950 . S
H839 C869 0.950 . S
C840 H822 0.951 . S
C840 C841 1.366 . S
C840 C842 1.388 . S
C841 C840 1.366 . S
C841 C845 1.385 . S
C842 H823 0.951 . S
C842 C840 1.388 . S
C842 C843 1.366 . S
C843 C842 1.366 . S
C843 C844 1.414 . S
C843 C846 1.499 . S
C844 H824 0.950 . S
C844 C843 1.414 . S
C844 C845 1.374 . S
C845 H825 0.950 . S
C845 C841 1.385 . S
C845 C844 1.374 . S
C846 C843 1.499 . S
C846 C847 1.373 . S
C846 C848 1.389 . S
C847 H826 0.950 . S
C847 C846 1.373 . S
C847 C863 1.377 . S
C848 C846 1.389 . S
C848 C849 1.524 . S
C848 C862 1.377 . S
C849 C848 1.524 . S
C849 C850 1.397 . S
C849 C854 1.363 . S
C850 H827 0.950 . S
C850 C849 1.397 . S
C850 C851 1.334 . S
C851 H828 0.950 . S
C851 C850 1.334 . S
C851 C852 1.287 . S
C852 C851 1.287 . S
C852 C853 1.524 . S
C852 H871 0.913 . S
C853 H829 0.950 . S
C853 C852 1.524 . S
C853 C854 1.415 . S
C854 H830 0.950 . S
C854 C849 1.363 . S
C854 C853 1.415 . S
C855 H831 0.951 . S
C855 C856 1.366 . S
C855 C857 1.388 . S
C856 C855 1.366 . S
C856 C860 1.385 . S
C857 H832 0.951 . S
C857 C855 1.388 . S
C857 C858 1.366 . S
C858 C857 1.366 . S
C858 C859 1.414 . S
C858 C861 1.499 . S
C859 H833 0.950 . S
C859 C858 1.414 . S
C859 C860 1.374 . S
C860 H834 0.950 . S
C860 C856 1.385 . S
C860 C859 1.374 . S
C861 C858 1.499 . S
C861 C862 1.373 . S
C861 C863 1.389 . S
C862 H835 0.950 . S
C862 C848 1.377 . S
C862 C861 1.373 . S
C863 C847 1.377 . S
C863 C861 1.389 . S
C863 C864 1.524 . S
C864 C863 1.524 . S
C864 C865 1.397 . S
C864 C869 1.363 . S
C865 H836 0.950 . S
C865 C864 1.397 . S
C865 C866 1.334 . S
C866 H837 0.950 . S
C866 C865 1.334 . S
C866 C867 1.287 . S
C867 C866 1.287 . S
C867 C868 1.524 . S
C867 H870 0.999 . S
C868 H838 0.950 . S
C868 C867 1.524 . S
C868 C869 1.415 . S
C869 H839 0.950 . S
C869 C864 1.363 . S
C869 C868 1.415 . S
H870 C867 0.999 . S
H871 C852 0.913 . S
H872 C890 0.951 . S
H873 C892 0.951 . S
H874 C894 0.950 . S
H875 C895 0.950 . S
H876 C897 0.950 . S
H877 C900 0.950 . S
H878 C901 0.950 . S
H879 C903 0.950 . S
H880 C904 0.950 . S
H881 C905 0.951 . S
H882 C907 0.951 . S
H883 C909 0.950 . S
H884 C910 0.950 . S
H885 C912 0.950 . S
H886 C915 0.950 . S
H887 C916 0.950 . S
H888 C918 0.950 . S
H889 C919 0.950 . S
C890 H872 0.951 . S
C890 C891 1.366 . S
C890 C892 1.388 . S
C891 C890 1.366 . S
C891 C895 1.385 1_455 S
C892 H873 0.951 . S
C892 C890 1.388 . S
C892 C893 1.366 . S
C893 C892 1.366 . S
C893 C894 1.414 1_455 S
C893 C896 1.499 . S
C894 H874 0.950 . S
C894 C893 1.414 1_655 S
C894 C895 1.374 . S
C895 H875 0.950 . S
C895 C891 1.385 1_655 S
C895 C894 1.374 . S
C896 C893 1.499 . S
C896 C897 1.373 1_455 S
C896 C898 1.389 . S
C897 H876 0.950 . S
C897 C896 1.373 1_655 S
C897 C913 1.377 . S
C898 C896 1.389 . S
C898 C899 1.524 . S
C898 C912 1.377 . S
C899 C898 1.524 . S
C899 C900 1.397 . S
C899 C904 1.363 . S
C900 H877 0.950 . S
C900 C899 1.397 . S
C900 C901 1.334 . S
C901 H878 0.950 . S
C901 C900 1.334 . S
C901 C902 1.287 . S
C902 C901 1.287 . S
C902 C903 1.524 . S
C902 H921 0.913 . S
C903 H879 0.950 . S
C903 C902 1.524 . S
C903 C904 1.415 . S
C904 H880 0.950 . S
C904 C899 1.363 . S
C904 C903 1.415 . S
C905 H881 0.951 . S
C905 C906 1.366 . S
C905 C907 1.388 . S
C906 C905 1.366 . S
C906 C910 1.385 1_655 S
C907 H882 0.951 . S
C907 C905 1.388 . S
C907 C908 1.366 . S
C908 C907 1.366 . S
C908 C909 1.414 1_655 S
C908 C911 1.496 1_655 S
C909 H883 0.950 . S
C909 C908 1.414 1_455 S
C909 C910 1.374 . S
C910 H884 0.950 . S
C910 C906 1.385 1_455 S
C910 C909 1.374 . S
C911 C908 1.496 1_455 S
C911 C912 1.391 . S
C911 C913 1.374 1_455 S
C912 H885 0.950 . S
C912 C898 1.377 . S
C912 C911 1.391 . S
C913 C897 1.377 . S
C913 C911 1.374 1_655 S
C913 C914 1.524 . S
C914 C913 1.524 . S
C914 C915 1.397 . S
C914 C919 1.363 . S
C915 H886 0.950 . S
C915 C914 1.397 . S
C915 C916 1.334 . S
C916 H887 0.950 . S
C916 C915 1.334 . S
C916 C917 1.287 . S
C917 C916 1.287 . S
C917 C918 1.524 . S
C917 H920 0.999 . S
C918 H888 0.950 . S
C918 C917 1.524 . S
C918 C919 1.415 . S
C919 H889 0.950 . S
C919 C914 1.363 . S
C919 C918 1.415 . S
H920 C917 0.999 . S
H921 C902 0.913 . S
H922 C940 0.951 . S
H923 C942 0.951 . S
H924 C944 0.950 . S
H925 C945 0.950 . S
H926 C947 0.950 . S
H927 C950 0.950 . S
H928 C951 0.950 . S
H929 C953 0.950 . S
H930 C954 0.950 . S
H931 C955 0.951 . S
H932 C957 0.951 . S
H933 C959 0.950 . S
H934 C960 0.950 . S
H935 C962 0.950 . S
H936 C965 0.950 . S
H937 C966 0.950 . S
H938 C968 0.950 . S
H939 C969 0.950 . S
C940 H922 0.951 . S
C940 C941 1.366 . S
C940 C942 1.388 . S
C941 C940 1.366 . S
C941 C945 1.385 . S
C942 H923 0.951 . S
C942 C940 1.388 . S
C942 C943 1.366 . S
C943 C942 1.366 . S
C943 C944 1.414 . S
C943 C946 1.499 . S
C944 H924 0.950 . S
C944 C943 1.414 . S
C944 C945 1.374 . S
C945 H925 0.950 . S
C945 C941 1.385 . S
C945 C944 1.374 . S
C946 C943 1.499 . S
C946 C947 1.373 . S
C946 C948 1.389 . S
C947 H926 0.950 . S
C947 C946 1.373 . S
C947 C963 1.377 . S
C948 C946 1.389 . S
C948 C949 1.524 . S
C948 C962 1.377 . S
C949 C948 1.524 . S
C949 C950 1.397 . S
C949 C954 1.363 . S
C950 H927 0.950 . S
C950 C949 1.397 . S
C950 C951 1.334 . S
C951 H928 0.950 . S
C951 C950 1.334 . S
C951 C952 1.287 . S
C952 C951 1.287 . S
C952 C953 1.524 . S
C952 H971 0.913 . S
C953 H929 0.950 . S
C953 C952 1.524 . S
C953 C954 1.415 . S
C954 H930 0.950 . S
C954 C949 1.363 . S
C954 C953 1.415 . S
C955 H931 0.951 . S
C955 C956 1.366 . S
C955 C957 1.388 . S
C956 C955 1.366 . S
C956 C960 1.385 . S
C957 H932 0.951 . S
C957 C955 1.388 . S
C957 C958 1.366 . S
C958 C957 1.366 . S
C958 C959 1.414 . S
C958 C961 1.499 . S
C959 H933 0.950 . S
C959 C958 1.414 . S
C959 C960 1.374 . S
C960 H934 0.950 . S
C960 C956 1.385 . S
C960 C959 1.374 . S
C961 C958 1.499 . S
C961 C962 1.373 . S
C961 C963 1.389 . S
C962 H935 0.950 . S
C962 C948 1.377 . S
C962 C961 1.373 . S
C963 C947 1.377 . S
C963 C961 1.389 . S
C963 C964 1.524 . S
C964 C963 1.524 . S
C964 C965 1.397 . S
C964 C969 1.363 . S
C965 H936 0.950 . S
C965 C964 1.397 . S
C965 C966 1.334 . S
C966 H937 0.950 . S
C966 C965 1.334 . S
C966 C967 1.287 . S
C967 C966 1.287 . S
C967 C968 1.524 . S
C967 H970 0.999 . S
C968 H938 0.950 . S
C968 C967 1.524 . S
C968 C969 1.415 . S
C969 H939 0.950 . S
C969 C964 1.363 . S
C969 C968 1.415 . S
H970 C967 0.999 . S
H971 C952 0.913 . S
H972 C990 0.951 . S
H973 C992 0.951 . S
H974 C994 0.950 . S
H975 C995 0.950 . S
H976 C997 0.950 . S
H977 C1000 0.950 . S
H978 C1001 0.950 . S
H979 C1003 0.950 . S
H980 C1004 0.950 . S
H981 C1005 0.951 . S
H982 C1007 0.951 . S
H983 C1009 0.950 . S
H984 C1010 0.950 1_554 S
H985 C1012 0.950 . S
H986 C1015 0.950 . S
H987 C1016 0.950 . S
H988 C1018 0.950 . S
H989 C1019 0.950 . S
C990 H972 0.951 . S
C990 C991 1.366 . S
C990 C992 1.388 . S
C991 C990 1.366 . S
C991 C995 1.385 . S
C992 H973 0.951 . S
C992 C990 1.388 . S
C992 C993 1.366 . S
C993 C992 1.366 . S
C993 C994 1.414 . S
C993 C996 1.499 . S
C994 H974 0.950 . S
C994 C993 1.414 . S
C994 C995 1.374 . S
C995 H975 0.950 . S
C995 C991 1.385 . S
C995 C994 1.374 . S
C996 C993 1.499 . S
C996 C997 1.373 . S
C996 C998 1.389 . S
C997 H976 0.950 . S
C997 C996 1.373 . S
C997 C1013 1.377 . S
C998 C996 1.389 . S
C998 C999 1.524 . S
C998 C1012 1.377 . S
C999 C998 1.524 . S
C999 C1000 1.397 . S
C999 C1004 1.363 . S
C1000 H977 0.950 . S
C1000 C999 1.397 . S
C1000 C1001 1.334 . S
C1001 H978 0.950 . S
C1001 C1000 1.334 . S
C1001 C1002 1.287 . S
C1002 C1001 1.287 . S
C1002 C1003 1.524 . S
C1002 H1021 0.913 . S
C1003 H979 0.950 . S
C1003 C1002 1.524 . S
C1003 C1004 1.415 . S
C1004 H980 0.950 . S
C1004 C999 1.363 . S
C1004 C1003 1.415 . S
C1005 H981 0.951 . S
C1005 C1006 1.366 . S
C1005 C1007 1.388 . S
C1006 C1005 1.366 . S
C1006 C1010 1.385 . S
C1007 H982 0.951 . S
C1007 C1005 1.388 . S
C1007 C1008 1.366 . S
C1008 C1007 1.366 . S
C1008 C1009 1.414 . S
C1008 C1011 1.499 . S
C1009 H983 0.950 . S
C1009 C1008 1.414 . S
C1009 C1010 1.374 . S
C1010 H984 0.950 1_556 S
C1010 C1006 1.385 . S
C1010 C1009 1.374 . S
C1011 C1008 1.499 . S
C1011 C1012 1.373 . S
C1011 C1013 1.389 . S
C1012 H985 0.950 . S
C1012 C998 1.377 . S
C1012 C1011 1.373 . S
C1013 C997 1.377 . S
C1013 C1011 1.389 . S
C1013 C1014 1.524 . S
C1014 C1013 1.524 . S
C1014 C1015 1.397 . S
C1014 C1019 1.363 . S
C1015 H986 0.950 . S
C1015 C1014 1.397 . S
C1015 C1016 1.334 . S
C1016 H987 0.950 . S
C1016 C1015 1.334 . S
C1016 C1017 1.287 . S
C1017 C1016 1.287 . S
C1017 C1018 1.524 . S
C1017 H1020 0.999 . S
C1018 H988 0.950 . S
C1018 C1017 1.524 . S
C1018 C1019 1.415 . S
C1019 H989 0.950 . S
C1019 C1014 1.363 . S
C1019 C1018 1.415 . S
H1020 C1017 0.999 . S
H1021 C1002 0.913 . S
H1022 C1040 0.951 . S
H1023 C1042 0.951 . S
H1024 C1044 0.950 . S
H1025 C1045 0.950 . S
H1026 C1047 0.950 . S
H1027 C1050 0.950 . S
H1028 C1051 0.950 . S
H1029 C1053 0.950 . S
H1030 C1054 0.950 . S
H1031 C1055 0.951 . S
H1032 C1057 0.951 . S
H1033 C1059 0.950 . S
H1034 C1060 0.950 . S
H1035 C1062 0.950 . S
H1036 C1065 0.950 . S
H1037 C1066 0.950 . S
H1038 C1068 0.950 . S
H1039 C1069 0.950 . S
C1040 H1022 0.951 . S
C1040 C1041 1.366 . S
C1040 C1042 1.388 . S
C1041 C1040 1.366 . S
C1041 C1045 1.385 . S
C1042 H1023 0.951 . S
C1042 C1040 1.388 . S
C1042 C1043 1.366 . S
C1043 C1042 1.366 . S
C1043 C1044 1.414 . S
C1043 C1046 1.499 . S
C1044 H1024 0.950 . S
C1044 C1043 1.414 . S
C1044 C1045 1.374 . S
C1045 H1025 0.950 . S
C1045 C1041 1.385 . S
C1045 C1044 1.374 . S
C1046 C1043 1.499 . S
C1046 C1047 1.373 . S
C1046 C1048 1.389 . S
C1047 H1026 0.950 . S
C1047 C1046 1.373 . S
C1047 C1063 1.377 . S
C1048 C1046 1.389 . S
C1048 C1049 1.524 . S
C1048 C1062 1.377 . S
C1049 C1048 1.524 . S
C1049 C1050 1.397 . S
C1049 C1054 1.363 . S
C1050 H1027 0.950 . S
C1050 C1049 1.397 . S
C1050 C1051 1.334 . S
C1051 H1028 0.950 . S
C1051 C1050 1.334 . S
C1051 C1052 1.287 . S
C1052 C1051 1.287 . S
C1052 C1053 1.524 . S
C1052 H1071 0.913 . S
C1053 H1029 0.950 . S
C1053 C1052 1.524 . S
C1053 C1054 1.415 . S
C1054 H1030 0.950 . S
C1054 C1049 1.363 . S
C1054 C1053 1.415 . S
C1055 H1031 0.951 . S
C1055 C1056 1.366 . S
C1055 C1057 1.388 . S
C1056 C1055 1.366 . S
C1056 C1060 1.385 . S
C1057 H1032 0.951 . S
C1057 C1055 1.388 . S
C1057 C1058 1.366 . S
C1058 C1057 1.366 . S
C1058 C1059 1.414 . S
C1058 C1061 1.499 . S
C1059 H1033 0.950 . S
C1059 C1058 1.414 . S
C1059 C1060 1.374 . S
C1060 H1034 0.950 . S
C1060 C1056 1.385 . S
C1060 C1059 1.374 . S
C1061 C1058 1.499 . S
C1061 C1062 1.373 . S
C1061 C1063 1.389 . S
C1062 H1035 0.950 . S
C1062 C1048 1.377 . S
C1062 C1061 1.373 . S
C1063 C1047 1.377 . S
C1063 C1061 1.389 . S
C1063 C1064 1.524 . S
C1064 C1063 1.524 . S
C1064 C1065 1.397 . S
C1064 C1069 1.363 . S
C1065 H1036 0.950 . S
C1065 C1064 1.397 . S
C1065 C1066 1.334 . S
C1066 H1037 0.950 . S
C1066 C1065 1.334 . S
C1066 C1067 1.287 . S
C1067 C1066 1.287 . S
C1067 C1068 1.524 . S
C1067 H1070 0.999 . S
C1068 H1038 0.950 . S
C1068 C1067 1.524 . S
C1068 C1069 1.415 . S
C1069 H1039 0.950 . S
C1069 C1064 1.363 . S
C1069 C1068 1.415 . S
H1070 C1067 0.999 . S
H1071 C1052 0.913 . S
H1072 C1090 0.951 . S
H1073 C1092 0.951 . S
H1074 C1094 0.950 . S
H1075 C1095 0.950 . S
H1076 C1097 0.950 . S
H1077 C1100 0.950 . S
H1078 C1101 0.950 . S
H1079 C1103 0.950 . S
H1080 C1104 0.950 . S
H1081 C1105 0.951 . S
H1082 C1107 0.951 . S
H1083 C1109 0.950 . S
H1084 C1110 0.950 . S
H1085 C1112 0.950 . S
H1086 C1115 0.950 . S
H1087 C1116 0.950 . S
H1088 C1118 0.950 . S
H1089 C1119 0.950 . S
C1090 H1072 0.951 . S
C1090 C1091 1.366 . S
C1090 C1092 1.388 . S
C1091 C1090 1.366 . S
C1091 C1095 1.385 1_545 S
C1092 H1073 0.951 . S
C1092 C1090 1.388 . S
C1092 C1093 1.366 . S
C1093 C1092 1.366 . S
C1093 C1094 1.414 1_545 S
C1093 C1096 1.499 . S
C1094 H1074 0.950 . S
C1094 C1093 1.414 1_565 S
C1094 C1095 1.374 . S
C1095 H1075 0.950 . S
C1095 C1091 1.385 1_565 S
C1095 C1094 1.374 . S
C1096 C1093 1.499 . S
C1096 C1097 1.346 1_545 S
C1096 C1098 1.416 . S
C1097 H1076 0.950 . S
C1097 C1096 1.346 1_565 S
C1097 C1113 1.377 . S
C1098 C1096 1.416 . S
C1098 C1099 1.524 . S
C1098 C1112 1.377 . S
C1099 C1098 1.524 . S
C1099 C1100 1.397 . S
C1099 C1104 1.363 . S
C1100 H1077 0.950 . S
C1100 C1099 1.397 . S
C1100 C1101 1.334 . S
C1101 H1078 0.950 . S
C1101 C1100 1.334 . S
C1101 C1102 1.287 . S
C1102 C1101 1.287 . S
C1102 C1103 1.524 . S
C1102 H1121 0.913 . S
C1103 H1079 0.950 . S
C1103 C1102 1.524 . S
C1103 C1104 1.415 . S
C1104 H1080 0.950 . S
C1104 C1099 1.363 . S
C1104 C1103 1.415 . S
C1105 H1081 0.951 . S
C1105 C1106 1.366 . S
C1105 C1107 1.388 . S
C1106 C1105 1.366 . S
C1106 C1110 1.385 1_565 S
C1107 H1082 0.951 . S
C1107 C1105 1.388 . S
C1107 C1108 1.366 . S
C1108 C1107 1.366 . S
C1108 C1109 1.414 1_565 S
C1108 C1111 1.499 . S
C1109 H1083 0.950 . S
C1109 C1108 1.414 1_545 S
C1109 C1110 1.374 . S
C1110 H1084 0.950 . S
C1110 C1106 1.385 1_545 S
C1110 C1109 1.374 . S
C1111 C1108 1.499 . S
C1111 C1112 1.373 1_565 S
C1111 C1113 1.389 . S
C1112 H1085 0.950 . S
C1112 C1098 1.377 . S
C1112 C1111 1.373 1_545 S
C1113 C1097 1.377 . S
C1113 C1111 1.389 . S
C1113 C1114 1.524 . S
C1114 C1113 1.524 . S
C1114 C1115 1.397 . S
C1114 C1119 1.363 . S
C1115 H1086 0.950 . S
C1115 C1114 1.397 . S
C1115 C1116 1.334 . S
C1116 H1087 0.950 . S
C1116 C1115 1.334 . S
C1116 C1117 1.287 . S
C1117 C1116 1.287 . S
C1117 C1118 1.524 . S
C1117 H1120 0.999 . S
C1118 H1088 0.950 . S
C1118 C1117 1.524 . S
C1118 C1119 1.415 . S
C1119 H1089 0.950 . S
C1119 C1114 1.363 . S
C1119 C1118 1.415 . S
H1120 C1117 0.999 . S
H1121 C1102 0.913 . S
H1122 C1140 0.951 . S
H1123 C1142 0.951 . S
H1124 C1144 0.950 . S
H1125 C1145 0.950 . S
H1126 C1147 0.950 . S
H1127 C1150 0.950 . S
H1128 C1151 0.950 . S
H1129 C1153 0.950 . S
H1130 C1154 0.950 . S
H1131 C1155 0.951 . S
H1132 C1157 0.951 . S
H1133 C1159 0.950 . S
H1134 C1160 0.950 . S
H1135 C1162 0.950 . S
H1136 C1165 0.950 . S
H1137 C1166 0.950 . S
H1138 C1168 0.950 . S
H1139 C1169 0.950 . S
C1140 H1122 0.951 . S
C1140 C1141 1.366 . S
C1140 C1142 1.388 . S
C1141 C1140 1.366 . S
C1141 C1145 1.385 . S
C1142 H1123 0.951 . S
C1142 C1140 1.388 . S
C1142 C1143 1.366 . S
C1143 C1142 1.366 . S
C1143 C1144 1.414 . S
C1143 C1146 1.499 . S
C1144 H1124 0.950 . S
C1144 C1143 1.414 . S
C1144 C1145 1.374 . S
C1145 H1125 0.950 . S
C1145 C1141 1.385 . S
C1145 C1144 1.374 . S
C1146 C1143 1.499 . S
C1146 C1147 1.373 . S
C1146 C1148 1.389 . S
C1147 H1126 0.950 . S
C1147 C1146 1.373 . S
C1147 C1163 1.377 . S
C1148 C1146 1.389 . S
C1148 C1149 1.524 . S
C1148 C1162 1.377 . S
C1149 C1148 1.524 . S
C1149 C1150 1.397 . S
C1149 C1154 1.363 . S
C1150 H1127 0.950 . S
C1150 C1149 1.397 . S
C1150 C1151 1.334 . S
C1151 H1128 0.950 . S
C1151 C1150 1.334 . S
C1151 C1152 1.287 . S
C1152 C1151 1.287 . S
C1152 C1153 1.524 . S
C1152 H1171 0.913 . S
C1153 H1129 0.950 . S
C1153 C1152 1.524 . S
C1153 C1154 1.415 . S
C1154 H1130 0.950 . S
C1154 C1149 1.363 . S
C1154 C1153 1.415 . S
C1155 H1131 0.951 . S
C1155 C1156 1.366 . S
C1155 C1157 1.388 . S
C1156 C1155 1.366 . S
C1156 C1160 1.385 . S
C1157 H1132 0.951 . S
C1157 C1155 1.388 . S
C1157 C1158 1.366 . S
C1158 C1157 1.366 . S
C1158 C1159 1.414 . S
C1158 C1161 1.499 . S
C1159 H1133 0.950 . S
C1159 C1158 1.414 . S
C1159 C1160 1.374 . S
C1160 H1134 0.950 . S
C1160 C1156 1.385 . S
C1160 C1159 1.374 . S
C1161 C1158 1.499 . S
C1161 C1162 1.373 . S
C1161 C1163 1.389 . S
C1162 H1135 0.950 . S
C1162 C1148 1.377 . S
C1162 C1161 1.373 . S
C1163 C1147 1.377 . S
C1163 C1161 1.389 . S
C1163 C1164 1.524 . S
C1164 C1163 1.524 . S
C1164 C1165 1.397 . S
C1164 C1169 1.363 . S
C1165 H1136 0.950 . S
C1165 C1164 1.397 . S
C1165 C1166 1.334 . S
C1166 H1137 0.950 . S
C1166 C1165 1.334 . S
C1166 C1167 1.287 . S
C1167 C1166 1.287 . S
C1167 C1168 1.524 . S
C1167 H1170 0.999 . S
C1168 H1138 0.950 . S
C1168 C1167 1.524 . S
C1168 C1169 1.415 . S
C1169 H1139 0.950 . S
C1169 C1164 1.363 . S
C1169 C1168 1.415 . S
H1170 C1167 0.999 . S
H1171 C1152 0.913 . S
H1172 C1190 0.951 1_565 S
H1173 C1192 0.946 1_565 S
H1174 C1194 0.950 . S
H1175 C1195 0.950 . S
H1176 C1197 0.950 . S
H1177 C1200 0.950 . S
H1178 C1201 0.950 . S
H1179 C1203 0.950 . S
H1180 C1204 0.950 . S
H1181 C1205 0.951 . S
H1182 C1207 0.951 . S
H1183 C1209 0.950 . S
H1184 C1210 0.950 . S
H1185 C1212 0.950 . S
H1186 C1215 0.950 1_565 S
H1187 C1216 0.950 1_565 S
H1188 C1218 0.950 . S
H1189 C1219 0.950 . S
C1190 H1172 0.951 1_545 S
C1190 C1191 1.366 . S
C1190 C1192 1.388 . S
C1191 C1190 1.366 . S
C1191 C1195 1.385 . S
C1192 H1173 0.946 1_545 S
C1192 C1190 1.388 . S
C1192 C1193 1.366 . S
C1193 C1192 1.366 . S
C1193 C1194 1.414 . S
C1193 C1196 1.499 . S
C1194 H1174 0.950 . S
C1194 C1193 1.414 . S
C1194 C1195 1.374 . S
C1195 H1175 0.950 . S
C1195 C1191 1.385 . S
C1195 C1194 1.374 . S
C1196 C1193 1.499 . S
C1196 C1197 1.373 . S
C1196 C1198 1.389 . S
C1197 H1176 0.950 . S
C1197 C1196 1.373 . S
C1197 C1213 1.377 . S
C1198 C1196 1.389 . S
C1198 C1199 1.524 . S
C1198 C1212 1.377 . S
C1199 C1198 1.524 . S
C1199 C1200 1.397 . S
C1199 C1204 1.363 . S
C1200 H1177 0.950 . S
C1200 C1199 1.397 . S
C1200 C1201 1.334 . S
C1201 H1178 0.950 . S
C1201 C1200 1.334 . S
C1201 C1202 1.287 . S
C1202 C1201 1.287 . S
C1202 C1203 1.524 . S
C1202 H1221 0.913 . S
C1203 H1179 0.950 . S
C1203 C1202 1.524 . S
C1203 C1204 1.415 . S
C1204 H1180 0.950 . S
C1204 C1199 1.363 . S
C1204 C1203 1.415 . S
C1205 H1181 0.951 . S
C1205 C1206 1.366 . S
C1205 C1207 1.388 . S
C1206 C1205 1.366 . S
C1206 C1210 1.385 . S
C1207 H1182 0.951 . S
C1207 C1205 1.388 . S
C1207 C1208 1.366 . S
C1208 C1207 1.366 . S
C1208 C1209 1.414 . S
C1208 C1211 1.499 . S
C1209 H1183 0.950 . S
C1209 C1208 1.414 . S
C1209 C1210 1.374 . S
C1210 H1184 0.950 . S
C1210 C1206 1.385 . S
C1210 C1209 1.374 . S
C1211 C1208 1.499 . S
C1211 C1212 1.373 . S
C1211 C1213 1.389 . S
C1212 H1185 0.950 . S
C1212 C1198 1.377 . S
C1212 C1211 1.373 . S
C1213 C1197 1.377 . S
C1213 C1211 1.389 . S
C1213 C1214 1.524 . S
C1214 C1213 1.524 . S
C1214 C1215 1.397 . S
C1214 C1219 1.363 . S
C1215 H1186 0.950 1_545 S
C1215 C1214 1.397 . S
C1215 C1216 1.334 . S
C1216 H1187 0.950 1_545 S
C1216 C1215 1.334 . S
C1216 C1217 1.287 . S
C1217 C1216 1.287 . S
C1217 C1218 1.524 . S
C1217 H1220 0.999 . S
C1218 H1188 0.950 . S
C1218 C1217 1.524 . S
C1218 C1219 1.415 . S
C1219 H1189 0.950 . S
C1219 C1214 1.363 . S
C1219 C1218 1.415 . S
H1220 C1217 0.999 . S
H1221 C1202 0.913 . S
H1222 C1240 0.951 . S
H1223 C1242 0.951 . S
H1224 C1244 0.950 . S
H1225 C1245 0.950 . S
H1226 C1247 0.950 . S
H1227 C1250 0.950 . S
H1228 C1251 0.950 . S
H1229 C1253 0.950 . S
H1230 C1254 0.950 . S
H1231 C1255 0.951 . S
H1232 C1257 0.951 . S
H1233 C1259 0.950 . S
H1234 C1260 0.950 . S
H1235 C1262 0.950 . S
H1236 C1265 0.950 . S
H1237 C1266 0.950 . S
H1238 C1268 0.950 . S
H1239 C1269 0.950 . S
C1240 H1222 0.951 . S
C1240 C1241 1.366 . S
C1240 C1242 1.388 . S
C1241 C1240 1.366 . S
C1241 C1245 1.385 . S
C1242 H1223 0.951 . S
C1242 C1240 1.388 . S
C1242 C1243 1.366 . S
C1243 C1242 1.366 . S
C1243 C1244 1.414 . S
C1243 C1246 1.499 . S
C1244 H1224 0.950 . S
C1244 C1243 1.414 . S
C1244 C1245 1.374 . S
C1245 H1225 0.950 . S
C1245 C1241 1.385 . S
C1245 C1244 1.374 . S
C1246 C1243 1.499 . S
C1246 C1247 1.373 . S
C1246 C1248 1.389 . S
C1247 H1226 0.950 . S
C1247 C1246 1.373 . S
C1247 C1263 1.377 . S
C1248 C1246 1.389 . S
C1248 C1249 1.524 . S
C1248 C1262 1.377 . S
C1249 C1248 1.524 . S
C1249 C1250 1.397 . S
C1249 C1254 1.363 . S
C1250 H1227 0.950 . S
C1250 C1249 1.397 . S
C1250 C1251 1.334 . S
C1251 H1228 0.950 . S
C1251 C1250 1.334 . S
C1251 C1252 1.287 . S
C1252 C1251 1.287 . S
C1252 C1253 1.524 . S
C1252 H1271 0.913 . S
C1253 H1229 0.950 . S
C1253 C1252 1.524 . S
C1253 C1254 1.415 . S
C1254 H1230 0.950 . S
C1254 C1249 1.363 . S
C1254 C1253 1.415 . S
C1255 H1231 0.951 . S
C1255 C1256 1.366 . S
C1255 C1257 1.388 . S
C1256 C1255 1.366 . S
C1256 C1260 1.385 . S
C1257 H1232 0.951 . S
C1257 C1255 1.388 . S
C1257 C1258 1.366 . S
C1258 C1257 1.366 . S
C1258 C1259 1.414 . S
C1258 C1261 1.499 . S
C1259 H1233 0.950 . S
C1259 C1258 1.414 . S
C1259 C1260 1.374 . S
C1260 H1234 0.950 . S
C1260 C1256 1.385 . S
C1260 C1259 1.374 . S
C1261 C1258 1.499 . S
C1261 C1262 1.373 . S
C1261 C1263 1.389 . S
C1262 H1235 0.950 . S
C1262 C1248 1.377 . S
C1262 C1261 1.373 . S
C1263 C1247 1.377 . S
C1263 C1261 1.389 . S
C1263 C1264 1.524 . S
C1264 C1263 1.524 . S
C1264 C1265 1.397 . S
C1264 C1269 1.363 . S
C1265 H1236 0.950 . S
C1265 C1264 1.397 . S
C1265 C1266 1.334 . S
C1266 H1237 0.950 . S
C1266 C1265 1.334 . S
C1266 C1267 1.287 . S
C1267 C1266 1.287 . S
C1267 C1268 1.524 . S
C1267 H1270 0.999 . S
C1268 H1238 0.950 . S
C1268 C1267 1.524 . S
C1268 C1269 1.415 . S
C1269 H1239 0.950 . S
C1269 C1264 1.363 . S
C1269 C1268 1.415 . S
H1270 C1267 0.999 . S
H1271 C1252 0.913 . S
H1272 C1290 0.955 . S
H1273 C1292 0.932 1_565 S
H1274 C1294 0.950 . S
H1275 C1295 0.950 . S
H1276 C1297 0.950 . S
H1277 C1300 0.950 . S
H1278 C1301 0.950 . S
H1279 C1303 0.950 . S
H1280 C1304 0.950 . S
H1281 C1305 0.951 . S
H1282 C1307 0.951 . S
H1283 C1309 0.950 1_565 S
H1284 C1310 0.950 1_565 S
H1285 C1312 0.950 . S
H1286 C1315 0.950 . S
H1287 C1316 0.950 . S
H1288 C1318 0.938 1_545 S
H1289 C1319 0.950 . S
C1290 H1272 0.955 . S
C1290 C1291 1.362 1_565 S
C1290 C1292 1.385 1_565 S
C1291 C1290 1.362 1_545 S
C1291 C1295 1.385 . S
C1292 H1273 0.932 1_545 S
C1292 C1290 1.385 1_545 S
C1292 C1293 1.389 . S
C1293 C1292 1.389 . S
C1293 C1294 1.414 . S
C1293 C1296 1.499 . S
C1294 H1274 0.950 . S
C1294 C1293 1.414 . S
C1294 C1295 1.374 . S
C1295 H1275 0.950 . S
C1295 C1291 1.385 . S
C1295 C1294 1.374 . S
C1296 C1293 1.499 . S
C1296 C1297 1.373 . S
C1296 C1298 1.389 . S
C1297 H1276 0.950 . S
C1297 C1296 1.373 . S
C1297 C1313 1.377 . S
C1298 C1296 1.389 . S
C1298 C1299 1.524 . S
C1298 C1312 1.377 . S
C1299 C1298 1.524 . S
C1299 C1300 1.397 . S
C1299 C1304 1.363 . S
C1300 H1277 0.950 . S
C1300 C1299 1.397 . S
C1300 C1301 1.334 . S
C1301 H1278 0.950 . S
C1301 C1300 1.334 . S
C1301 C1302 1.287 . S
C1302 C1301 1.287 . S
C1302 C1303 1.524 . S
C1302 H1321 0.913 . S
C1303 H1279 0.950 . S
C1303 C1302 1.524 . S
C1303 C1304 1.415 . S
C1304 H1280 0.950 . S
C1304 C1299 1.363 . S
C1304 C1303 1.415 . S
C1305 H1281 0.951 . S
C1305 C1306 1.366 . S
C1305 C1307 1.388 . S
C1306 C1305 1.366 . S
C1306 C1310 1.385 . S
C1307 H1282 0.951 . S
C1307 C1305 1.388 . S
C1307 C1308 1.366 . S
C1308 C1307 1.366 . S
C1308 C1309 1.414 . S
C1308 C1311 1.499 . S
C1309 H1283 0.950 1_545 S
C1309 C1308 1.414 . S
C1309 C1310 1.374 . S
C1310 H1284 0.950 1_545 S
C1310 C1306 1.385 . S
C1310 C1309 1.374 . S
C1311 C1308 1.499 . S
C1311 C1312 1.373 . S
C1311 C1313 1.389 . S
C1312 H1285 0.950 . S
C1312 C1298 1.377 . S
C1312 C1311 1.373 . S
C1313 C1297 1.377 . S
C1313 C1311 1.389 . S
C1313 C1314 1.524 1_545 S
C1314 C1313 1.524 1_565 S
C1314 C1315 1.397 . S
C1314 C1319 1.363 1_565 S
C1315 H1286 0.950 . S
C1315 C1314 1.397 . S
C1315 C1316 1.334 . S
C1316 H1287 0.950 . S
C1316 C1315 1.334 . S
C1316 C1317 1.287 . S
C1317 C1316 1.287 . S
C1317 C1318 1.553 . S
C1317 H1320 0.999 . S
C1318 H1288 0.938 1_565 S
C1318 C1317 1.553 . S
C1318 C1319 1.400 1_565 S
C1319 H1289 0.950 . S
C1319 C1314 1.363 1_545 S
C1319 C1318 1.400 1_545 S
H1320 C1317 0.999 . S
H1321 C1302 0.913 . S
H1322 C1340 0.951 . S
H1323 C1342 0.951 . S
H1324 C1344 0.950 . S
H1325 C1345 0.950 . S
H1326 C1347 0.950 . S
H1327 C1350 0.950 . S
H1328 C1351 0.950 . S
H1329 C1353 0.950 . S
H1330 C1354 0.950 . S
H1331 C1355 0.951 . S
H1332 C1357 0.951 . S
H1333 C1359 0.950 . S
H1334 C1360 0.950 . S
H1335 C1362 0.950 . S
H1336 C1365 0.950 . S
H1337 C1366 0.950 . S
H1338 C1368 0.950 . S
H1339 C1369 0.950 . S
C1340 H1322 0.951 . S
C1340 C1341 1.366 . S
C1340 C1342 1.388 . S
C1341 C1340 1.366 . S
C1341 C1345 1.385 . S
C1342 H1323 0.951 . S
C1342 C1340 1.388 . S
C1342 C1343 1.366 . S
C1343 C1342 1.366 . S
C1343 C1344 1.414 . S
C1343 C1346 1.499 . S
C1344 H1324 0.950 . S
C1344 C1343 1.414 . S
C1344 C1345 1.374 . S
C1345 H1325 0.950 . S
C1345 C1341 1.385 . S
C1345 C1344 1.374 . S
C1346 C1343 1.499 . S
C1346 C1347 1.373 . S
C1346 C1348 1.389 . S
C1347 H1326 0.950 . S
C1347 C1346 1.373 . S
C1347 C1363 1.377 . S
C1348 C1346 1.389 . S
C1348 C1349 1.524 . S
C1348 C1362 1.377 . S
C1349 C1348 1.524 . S
C1349 C1350 1.397 . S
C1349 C1354 1.363 . S
C1350 H1327 0.950 . S
C1350 C1349 1.397 . S
C1350 C1351 1.334 . S
C1351 H1328 0.950 . S
C1351 C1350 1.334 . S
C1351 C1352 1.287 . S
C1352 C1351 1.287 . S
C1352 C1353 1.524 . S
C1352 H1371 0.913 . S
C1353 H1329 0.950 . S
C1353 C1352 1.524 . S
C1353 C1354 1.415 . S
C1354 H1330 0.950 . S
C1354 C1349 1.363 . S
C1354 C1353 1.415 . S
C1355 H1331 0.951 . S
C1355 C1356 1.366 . S
C1355 C1357 1.388 . S
C1356 C1355 1.366 . S
C1356 C1360 1.385 . S
C1357 H1332 0.951 . S
C1357 C1355 1.388 . S
C1357 C1358 1.366 . S
C1358 C1357 1.366 . S
C1358 C1359 1.414 . S
C1358 C1361 1.499 . S
C1359 H1333 0.950 . S
C1359 C1358 1.414 . S
C1359 C1360 1.374 . S
C1360 H1334 0.950 . S
C1360 C1356 1.385 . S
C1360 C1359 1.374 . S
C1361 C1358 1.499 . S
C1361 C1362 1.373 . S
C1361 C1363 1.389 . S
C1362 H1335 0.950 . S
C1362 C1348 1.377 . S
C1362 C1361 1.373 . S
C1363 C1347 1.377 . S
C1363 C1361 1.389 . S
C1363 C1364 1.524 . S
C1364 C1363 1.524 . S
C1364 C1365 1.397 . S
C1364 C1369 1.363 . S
C1365 H1336 0.950 . S
C1365 C1364 1.397 . S
C1365 C1366 1.334 . S
C1366 H1337 0.950 . S
C1366 C1365 1.334 . S
C1366 C1367 1.287 . S
C1367 C1366 1.287 . S
C1367 C1368 1.524 . S
C1367 H1370 0.999 . S
C1368 H1338 0.950 . S
C1368 C1367 1.524 . S
C1368 C1369 1.415 . S
C1369 H1339 0.950 . S
C1369 C1364 1.363 . S
C1369 C1368 1.415 . S
H1370 C1367 0.999 . S
H1371 C1352 0.913 . S
H1372 C1390 0.951 . S
H1373 C1392 0.951 . S
H1374 C1394 0.950 . S
H1375 C1395 0.962 . S
H1376 C1397 0.950 . S
H1377 C1400 0.950 1_565 S
H1378 C1401 0.950 1_565 S
H1379 C1403 0.950 . S
H1380 C1404 0.950 . S
H1381 C1405 0.951 . S
H1382 C1407 0.951 . S
H1383 C1409 0.950 . S
H1384 C1410 0.950 . S
H1385 C1412 0.950 . S
H1386 C1415 0.950 . S
H1387 C1416 0.950 . S
H1388 C1418 0.950 . S
H1389 C1419 0.950 . S
C1390 H1372 0.951 . S
C1390 C1391 1.366 . S
C1390 C1392 1.388 . S
C1391 C1390 1.366 . S
C1391 C1395 1.372 1_545 S
C1392 H1373 0.951 . S
C1392 C1390 1.388 . S
C1392 C1393 1.366 . S
C1393 C1392 1.366 . S
C1393 C1394 1.414 1_545 S
C1393 C1396 1.499 . S
C1394 H1374 0.950 . S
C1394 C1393 1.414 1_565 S
C1394 C1395 1.375 . S
C1395 H1375 0.962 . S
C1395 C1391 1.372 1_565 S
C1395 C1394 1.375 . S
C1396 C1393 1.499 . S
C1396 C1397 1.373 . S
C1396 C1398 1.389 . S
C1397 H1376 0.950 . S
C1397 C1396 1.373 . S
C1397 C1413 1.377 . S
C1398 C1396 1.389 . S
C1398 C1399 1.524 . S
C1398 C1412 1.377 . S
C1399 C1398 1.524 . S
C1399 C1400 1.397 . S
C1399 C1404 1.363 . S
C1400 H1377 0.950 1_545 S
C1400 C1399 1.397 . S
C1400 C1401 1.334 . S
C1401 H1378 0.950 1_545 S
C1401 C1400 1.334 . S
C1401 C1402 1.287 . S
C1402 C1401 1.287 . S
C1402 C1403 1.524 . S
C1402 H1421 0.913 . S
C1403 H1379 0.950 . S
C1403 C1402 1.524 . S
C1403 C1404 1.415 . S
C1404 H1380 0.950 . S
C1404 C1399 1.363 . S
C1404 C1403 1.415 . S
C1405 H1381 0.951 . S
C1405 C1406 1.366 1_565 S
C1405 C1407 1.388 . S
C1406 C1405 1.366 1_545 S
C1406 C1410 1.385 . S
C1407 H1382 0.951 . S
C1407 C1405 1.388 . S
C1407 C1408 1.366 1_565 S
C1408 C1407 1.366 1_545 S
C1408 C1409 1.414 . S
C1408 C1411 1.499 . S
C1409 H1383 0.950 . S
C1409 C1408 1.414 . S
C1409 C1410 1.374 . S
C1410 H1384 0.950 . S
C1410 C1406 1.385 . S
C1410 C1409 1.374 . S
C1411 C1408 1.499 . S
C1411 C1412 1.373 . S
C1411 C1413 1.389 . S
C1412 H1385 0.950 . S
C1412 C1398 1.377 . S
C1412 C1411 1.373 . S
C1413 C1397 1.377 . S
C1413 C1411 1.389 . S
C1413 C1414 1.524 . S
C1414 C1413 1.524 . S
C1414 C1415 1.397 . S
C1414 C1419 1.363 1_545 S
C1415 H1386 0.950 . S
C1415 C1414 1.397 . S
C1415 C1416 1.334 . S
C1416 H1387 0.950 . S
C1416 C1415 1.334 . S
C1416 C1417 1.287 . S
C1417 C1416 1.287 . S
C1417 C1418 1.524 1_545 S
C1417 H1420 0.999 . S
C1418 H1388 0.950 . S
C1418 C1417 1.524 1_565 S
C1418 C1419 1.415 . S
C1419 H1389 0.950 . S
C1419 C1414 1.363 1_565 S
C1419 C1418 1.415 . S
H1420 C1417 0.999 . S
H1421 C1402 0.913 . S
H1422 C1440 0.951 . S
H1423 C1442 0.951 . S
H1424 C1444 0.950 . S
H1425 C1445 0.950 . S
H1426 C1447 0.950 . S
H1427 C1450 0.950 . S
H1428 C1451 0.950 . S
H1429 C1453 0.950 . S
H1430 C1454 0.950 . S
H1431 C1455 0.951 . S
H1432 C1457 0.951 . S
H1433 C1459 0.950 . S
H1434 C1460 0.950 . S
H1435 C1462 0.950 . S
H1436 C1465 0.950 . S
H1437 C1466 0.950 . S
H1438 C1468 0.950 . S
H1439 C1469 0.950 . S
C1440 H1422 0.951 . S
C1440 C1441 1.366 . S
C1440 C1442 1.388 . S
C1441 C1440 1.366 . S
C1441 C1445 1.385 . S
C1442 H1423 0.951 . S
C1442 C1440 1.388 . S
C1442 C1443 1.366 . S
C1443 C1442 1.366 . S
C1443 C1444 1.414 . S
C1443 C1446 1.499 . S
C1444 H1424 0.950 . S
C1444 C1443 1.414 . S
C1444 C1445 1.374 . S
C1445 H1425 0.950 . S
C1445 C1441 1.385 . S
C1445 C1444 1.374 . S
C1446 C1443 1.499 . S
C1446 C1447 1.373 . S
C1446 C1448 1.389 . S
C1447 H1426 0.950 . S
C1447 C1446 1.373 . S
C1447 C1463 1.377 . S
C1448 C1446 1.389 . S
C1448 C1449 1.524 . S
C1448 C1462 1.377 . S
C1449 C1448 1.524 . S
C1449 C1450 1.397 . S
C1449 C1454 1.363 . S
C1450 H1427 0.950 . S
C1450 C1449 1.397 . S
C1450 C1451 1.334 . S
C1451 H1428 0.950 . S
C1451 C1450 1.334 . S
C1451 C1452 1.287 . S
C1452 C1451 1.287 . S
C1452 C1453 1.524 . S
C1452 H1471 0.913 . S
C1453 H1429 0.950 . S
C1453 C1452 1.524 . S
C1453 C1454 1.415 . S
C1454 H1430 0.950 . S
C1454 C1449 1.363 . S
C1454 C1453 1.415 . S
C1455 H1431 0.951 . S
C1455 C1456 1.366 . S
C1455 C1457 1.388 . S
C1456 C1455 1.366 . S
C1456 C1460 1.385 . S
C1457 H1432 0.951 . S
C1457 C1455 1.388 . S
C1457 C1458 1.366 . S
C1458 C1457 1.366 . S
C1458 C1459 1.414 . S
C1458 C1461 1.499 . S
C1459 H1433 0.950 . S
C1459 C1458 1.414 . S
C1459 C1460 1.374 . S
C1460 H1434 0.950 . S
C1460 C1456 1.385 . S
C1460 C1459 1.374 . S
C1461 C1458 1.499 . S
C1461 C1462 1.373 . S
C1461 C1463 1.389 . S
C1462 H1435 0.950 . S
C1462 C1448 1.377 . S
C1462 C1461 1.373 . S
C1463 C1447 1.377 . S
C1463 C1461 1.389 . S
C1463 C1464 1.524 . S
C1464 C1463 1.524 . S
C1464 C1465 1.397 . S
C1464 C1469 1.363 . S
C1465 H1436 0.950 . S
C1465 C1464 1.397 . S
C1465 C1466 1.334 . S
C1466 H1437 0.950 . S
C1466 C1465 1.334 . S
C1466 C1467 1.287 . S
C1467 C1466 1.287 . S
C1467 C1468 1.524 . S
C1467 H1470 0.999 . S
C1468 H1438 0.950 . S
C1468 C1467 1.524 . S
C1468 C1469 1.415 . S
C1469 H1439 0.950 . S
C1469 C1464 1.363 . S
C1469 C1468 1.415 . S
H1470 C1467 0.999 . S
H1471 C1452 0.913 . S
H1472 C1490 0.951 . S
H1473 C1492 0.951 . S
H1474 C1494 0.950 . S
H1475 C1495 0.950 . S
H1476 C1497 0.950 . S
H1477 C1500 0.950 . S
H1478 C1501 0.950 . S
H1479 C1503 0.950 . S
H1480 C1504 0.950 . S
H1481 C1505 0.951 . S
H1482 C1507 0.951 . S
H1483 C1509 0.950 . S
H1484 C1510 0.950 . S
H1485 C1512 0.950 . S
H1486 C1515 0.950 . S
H1487 C1516 0.950 . S
H1488 C1518 0.950 . S
H1489 C1519 0.950 . S
C1490 H1472 0.951 . S
C1490 C1491 1.366 . S
C1490 C1492 1.388 . S
C1491 C1490 1.366 . S
C1491 C1495 1.385 1_554 S
C1492 H1473 0.951 . S
C1492 C1490 1.388 . S
C1492 C1493 1.366 . S
C1493 C1492 1.366 . S
C1493 C1494 1.414 1_554 S
C1493 C1496 1.499 . S
C1494 H1474 0.950 . S
C1494 C1493 1.414 1_556 S
C1494 C1495 1.374 . S
C1495 H1475 0.950 . S
C1495 C1491 1.385 1_556 S
C1495 C1494 1.374 . S
C1496 C1493 1.499 . S
C1496 C1497 1.373 1_554 S
C1496 C1498 1.389 . S
C1497 H1476 0.950 . S
C1497 C1496 1.373 1_556 S
C1497 C1513 1.377 . S
C1498 C1496 1.389 . S
C1498 C1499 1.524 . S
C1498 C1512 1.377 . S
C1499 C1498 1.524 . S
C1499 C1500 1.397 . S
C1499 C1504 1.363 . S
C1500 H1477 0.950 . S
C1500 C1499 1.397 . S
C1500 C1501 1.334 . S
C1501 H1478 0.950 . S
C1501 C1500 1.334 . S
C1501 C1502 1.287 . S
C1502 C1501 1.287 . S
C1502 C1503 1.524 . S
C1502 H1521 0.913 . S
C1503 H1479 0.950 . S
C1503 C1502 1.524 . S
C1503 C1504 1.415 . S
C1504 H1480 0.950 . S
C1504 C1499 1.363 . S
C1504 C1503 1.415 . S
C1505 H1481 0.951 . S
C1505 C1506 1.366 1_556 S
C1505 C1507 1.388 . S
C1506 C1505 1.366 1_554 S
C1506 C1510 1.385 . S
C1507 H1482 0.951 . S
C1507 C1505 1.388 . S
C1507 C1508 1.366 1_556 S
C1508 C1507 1.366 1_554 S
C1508 C1509 1.414 . S
C1508 C1511 1.499 . S
C1509 H1483 0.950 . S
C1509 C1508 1.414 . S
C1509 C1510 1.374 . S
C1510 H1484 0.950 . S
C1510 C1506 1.385 . S
C1510 C1509 1.374 . S
C1511 C1508 1.499 . S
C1511 C1512 1.373 . S
C1511 C1513 1.389 1_554 S
C1512 H1485 0.950 . S
C1512 C1498 1.377 . S
C1512 C1511 1.373 . S
C1513 C1497 1.377 . S
C1513 C1511 1.389 1_556 S
C1513 C1514 1.524 . S
C1514 C1513 1.524 . S
C1514 C1515 1.397 . S
C1514 C1519 1.363 . S
C1515 H1486 0.950 . S
C1515 C1514 1.397 . S
C1515 C1516 1.334 . S
C1516 H1487 0.950 . S
C1516 C1515 1.334 . S
C1516 C1517 1.287 . S
C1517 C1516 1.287 . S
C1517 C1518 1.524 . S
C1517 H1520 0.999 . S
C1518 H1488 0.950 . S
C1518 C1517 1.524 . S
C1518 C1519 1.415 . S
C1519 H1489 0.950 . S
C1519 C1514 1.363 . S
C1519 C1518 1.415 . S
H1520 C1517 0.999 . S
H1521 C1502 0.913 . S
H1522 C1540 0.951 . S
H1523 C1542 0.951 . S
H1524 C1544 0.950 . S
H1525 C1545 0.950 . S
H1526 C1547 0.950 1_556 S
H1527 C1550 0.950 . S
H1528 C1551 0.950 . S
H1529 C1553 0.950 . S
H1530 C1554 0.950 . S
H1531 C1555 0.951 . S
H1532 C1557 0.951 . S
H1533 C1559 0.950 . S
H1534 C1560 0.950 . S
H1535 C1562 0.950 . S
H1536 C1565 0.950 . S
H1537 C1566 0.950 . S
H1538 C1568 0.950 . S
H1539 C1569 0.950 . S
C1540 H1522 0.951 . S
C1540 C1541 1.366 . S
C1540 C1542 1.388 . S
C1541 C1540 1.366 . S
C1541 C1545 1.385 . S
C1542 H1523 0.951 . S
C1542 C1540 1.388 . S
C1542 C1543 1.366 . S
C1543 C1542 1.366 . S
C1543 C1544 1.414 . S
C1543 C1546 1.499 . S
C1544 H1524 0.950 . S
C1544 C1543 1.414 . S
C1544 C1545 1.374 . S
C1545 H1525 0.950 . S
C1545 C1541 1.385 . S
C1545 C1544 1.374 . S
C1546 C1543 1.499 . S
C1546 C1547 1.373 . S
C1546 C1548 1.389 . S
C1547 H1526 0.950 1_554 S
C1547 C1546 1.373 . S
C1547 C1563 1.377 . S
C1548 C1546 1.389 . S
C1548 C1549 1.524 . S
C1548 C1562 1.377 . S
C1549 C1548 1.524 . S
C1549 C1550 1.397 . S
C1549 C1554 1.363 . S
C1550 H1527 0.950 . S
C1550 C1549 1.397 . S
C1550 C1551 1.334 . S
C1551 H1528 0.950 . S
C1551 C1550 1.334 . S
C1551 C1552 1.287 . S
C1552 C1551 1.287 . S
C1552 C1553 1.524 . S
C1552 H1571 0.913 . S
C1553 H1529 0.950 . S
C1553 C1552 1.524 . S
C1553 C1554 1.415 . S
C1554 H1530 0.950 . S
C1554 C1549 1.363 . S
C1554 C1553 1.415 . S
C1555 H1531 0.951 . S
C1555 C1556 1.366 . S
C1555 C1557 1.388 . S
C1556 C1555 1.366 . S
C1556 C1560 1.385 . S
C1557 H1532 0.951 . S
C1557 C1555 1.388 . S
C1557 C1558 1.366 . S
C1558 C1557 1.366 . S
C1558 C1559 1.414 . S
C1558 C1561 1.499 . S
C1559 H1533 0.950 . S
C1559 C1558 1.414 . S
C1559 C1560 1.374 . S
C1560 H1534 0.950 . S
C1560 C1556 1.385 . S
C1560 C1559 1.374 . S
C1561 C1558 1.499 . S
C1561 C1562 1.373 . S
C1561 C1563 1.389 . S
C1562 H1535 0.950 . S
C1562 C1548 1.377 . S
C1562 C1561 1.373 . S
C1563 C1547 1.377 . S
C1563 C1561 1.389 . S
C1563 C1564 1.524 1_554 S
C1564 C1563 1.524 1_556 S
C1564 C1565 1.397 . S
C1564 C1569 1.363 . S
C1565 H1536 0.950 . S
C1565 C1564 1.397 . S
C1565 C1566 1.334 . S
C1566 H1537 0.950 . S
C1566 C1565 1.334 . S
C1566 C1567 1.287 . S
C1567 C1566 1.287 . S
C1567 C1568 1.524 . S
C1567 H1570 0.999 . S
C1568 H1538 0.950 . S
C1568 C1567 1.524 . S
C1568 C1569 1.415 . S
C1569 H1539 0.950 . S
C1569 C1564 1.363 . S
C1569 C1568 1.415 . S
H1570 C1567 0.999 . S
H1571 C1552 0.913 . S
H1572 C1590 0.951 . S
H1573 C1592 0.951 . S
H1574 C1594 0.950 . S
H1575 C1595 0.950 . S
H1576 C1597 0.950 . S
H1577 C1600 0.950 . S
H1578 C1601 0.950 . S
H1579 C1603 0.950 . S
H1580 C1604 0.950 . S
H1581 C1605 0.951 . S
H1582 C1607 0.951 . S
H1583 C1609 0.950 . S
H1584 C1610 0.950 . S
H1585 C1612 0.950 . S
H1586 C1615 0.950 . S
H1587 C1616 0.950 . S
H1588 C1618 0.950 . S
H1589 C1619 0.950 . S
C1590 H1572 0.951 . S
C1590 C1591 1.366 . S
C1590 C1592 1.388 . S
C1591 C1590 1.366 . S
C1591 C1595 1.385 . S
C1592 H1573 0.951 . S
C1592 C1590 1.388 . S
C1592 C1593 1.366 . S
C1593 C1592 1.366 . S
C1593 C1594 1.414 . S
C1593 C1596 1.499 . S
C1594 H1574 0.950 . S
C1594 C1593 1.414 . S
C1594 C1595 1.374 . S
C1595 H1575 0.950 . S
C1595 C1591 1.385 . S
C1595 C1594 1.374 . S
C1596 C1593 1.499 . S
C1596 C1597 1.373 . S
C1596 C1598 1.389 . S
C1597 H1576 0.950 . S
C1597 C1596 1.373 . S
C1597 C1613 1.377 . S
C1598 C1596 1.389 . S
C1598 C1599 1.524 . S
C1598 C1612 1.377 . S
C1599 C1598 1.524 . S
C1599 C1600 1.397 . S
C1599 C1604 1.363 . S
C1600 H1577 0.950 . S
C1600 C1599 1.397 . S
C1600 C1601 1.334 . S
C1601 H1578 0.950 . S
C1601 C1600 1.334 . S
C1601 C1602 1.287 . S
C1602 C1601 1.287 . S
C1602 C1603 1.524 . S
C1602 H1621 0.913 . S
C1603 H1579 0.950 . S
C1603 C1602 1.524 . S
C1603 C1604 1.415 . S
C1604 H1580 0.950 . S
C1604 C1599 1.363 . S
C1604 C1603 1.415 . S
C1605 H1581 0.951 . S
C1605 C1606 1.366 . S
C1605 C1607 1.388 . S
C1606 C1605 1.366 . S
C1606 C1610 1.385 . S
C1607 H1582 0.951 . S
C1607 C1605 1.388 . S
C1607 C1608 1.366 . S
C1608 C1607 1.366 . S
C1608 C1609 1.414 . S
C1608 C1611 1.499 . S
C1609 H1583 0.950 . S
C1609 C1608 1.414 . S
C1609 C1610 1.374 . S
C1610 H1584 0.950 . S
C1610 C1606 1.385 . S
C1610 C1609 1.374 . S
C1611 C1608 1.499 . S
C1611 C1612 1.373 . S
C1611 C1613 1.389 . S
C1612 H1585 0.950 . S
C1612 C1598 1.377 . S
C1612 C1611 1.373 . S
C1613 C1597 1.377 . S
C1613 C1611 1.389 . S
C1613 C1614 1.524 . S
C1614 C1613 1.524 . S
C1614 C1615 1.397 . S
C1614 C1619 1.363 . S
C1615 H1586 0.950 . S
C1615 C1614 1.397 . S
C1615 C1616 1.334 . S
C1616 H1587 0.950 . S
C1616 C1615 1.334 . S
C1616 C1617 1.287 . S
C1617 C1616 1.287 . S
C1617 C1618 1.524 . S
C1617 H1620 0.999 . S
C1618 H1588 0.950 . S
C1618 C1617 1.524 . S
C1618 C1619 1.415 . S
C1619 H1589 0.950 . S
C1619 C1614 1.363 . S
C1619 C1618 1.415 . S
H1620 C1617 0.999 . S
H1621 C1602 0.913 . S
H1622 C1640 0.951 . S
H1623 C1642 0.951 . S
H1624 C1644 0.950 . S
H1625 C1645 0.950 . S
H1626 C1647 0.950 . S
H1627 C1650 0.950 . S
H1628 C1651 0.950 . S
H1629 C1653 0.950 . S
H1630 C1654 0.950 . S
H1631 C1655 0.951 . S
H1632 C1657 0.951 . S
H1633 C1659 0.950 . S
H1634 C1660 0.950 . S
H1635 C1662 0.950 . S
H1636 C1665 0.950 . S
H1637 C1666 0.950 . S
H1638 C1668 0.950 . S
H1639 C1669 0.950 . S
C1640 H1622 0.951 . S
C1640 C1641 1.366 . S
C1640 C1642 1.388 . S
C1641 C1640 1.366 . S
C1641 C1645 1.385 . S
C1642 H1623 0.951 . S
C1642 C1640 1.388 . S
C1642 C1643 1.366 . S
C1643 C1642 1.366 . S
C1643 C1644 1.414 . S
C1643 C1646 1.499 . S
C1644 H1624 0.950 . S
C1644 C1643 1.414 . S
C1644 C1645 1.374 . S
C1645 H1625 0.950 . S
C1645 C1641 1.385 . S
C1645 C1644 1.374 . S
C1646 C1643 1.499 . S
C1646 C1647 1.373 . S
C1646 C1648 1.389 . S
C1647 H1626 0.950 . S
C1647 C1646 1.373 . S
C1647 C1663 1.377 . S
C1648 C1646 1.389 . S
C1648 C1649 1.524 . S
C1648 C1662 1.377 . S
C1649 C1648 1.524 . S
C1649 C1650 1.397 . S
C1649 C1654 1.363 . S
C1650 H1627 0.950 . S
C1650 C1649 1.397 . S
C1650 C1651 1.334 . S
C1651 H1628 0.950 . S
C1651 C1650 1.334 . S
C1651 C1652 1.287 . S
C1652 C1651 1.287 . S
C1652 C1653 1.524 . S
C1652 H1671 0.913 . S
C1653 H1629 0.950 . S
C1653 C1652 1.524 . S
C1653 C1654 1.415 . S
C1654 H1630 0.950 . S
C1654 C1649 1.363 . S
C1654 C1653 1.415 . S
C1655 H1631 0.951 . S
C1655 C1656 1.366 . S
C1655 C1657 1.388 . S
C1656 C1655 1.366 . S
C1656 C1660 1.385 . S
C1657 H1632 0.951 . S
C1657 C1655 1.388 . S
C1657 C1658 1.366 . S
C1658 C1657 1.366 . S
C1658 C1659 1.414 . S
C1658 C1661 1.499 . S
C1659 H1633 0.950 . S
C1659 C1658 1.414 . S
C1659 C1660 1.374 . S
C1660 H1634 0.950 . S
C1660 C1656 1.385 . S
C1660 C1659 1.374 . S
C1661 C1658 1.499 . S
C1661 C1662 1.373 . S
C1661 C1663 1.389 . S
C1662 H1635 0.950 . S
C1662 C1648 1.377 . S
C1662 C1661 1.373 . S
C1663 C1647 1.377 . S
C1663 C1661 1.389 . S
C1663 C1664 1.524 . S
C1664 C1663 1.524 . S
C1664 C1665 1.397 . S
C1664 C1669 1.363 . S
C1665 H1636 0.950 . S
C1665 C1664 1.397 . S
C1665 C1666 1.334 . S
C1666 H1637 0.950 . S
C1666 C1665 1.334 . S
C1666 C1667 1.287 . S
C1667 C1666 1.287 . S
C1667 C1668 1.524 . S
C1667 H1670 0.999 . S
C1668 H1638 0.950 . S
C1668 C1667 1.524 . S
C1668 C1669 1.415 . S
C1669 H1639 0.950 . S
C1669 C1664 1.363 . S
C1669 C1668 1.415 . S
H1670 C1667 0.999 . S
H1671 C1652 0.913 . S
H1672 C1690 0.951 . S
H1673 C1692 0.951 . S
H1674 C1694 0.950 . S
H1675 C1695 0.950 . S
H1676 C1697 0.950 . S
H1677 C1700 0.950 . S
H1678 C1701 0.950 . S
H1679 C1703 0.950 . S
H1680 C1704 0.950 . S
H1681 C1705 0.951 . S
H1682 C1707 0.951 . S
H1683 C1709 0.950 . S
H1684 C1710 0.950 . S
H1685 C1712 0.950 . S
H1686 C1715 0.950 . S
H1687 C1716 0.950 . S
H1688 C1718 0.950 . S
H1689 C1719 0.950 . S
C1690 H1672 0.951 . S
C1690 C1691 1.366 . S
C1690 C1692 1.388 . S
C1691 C1690 1.366 . S
C1691 C1695 1.385 . S
C1692 H1673 0.951 . S
C1692 C1690 1.388 . S
C1692 C1693 1.366 . S
C1693 C1692 1.366 . S
C1693 C1694 1.414 . S
C1693 C1696 1.499 . S
C1694 H1674 0.950 . S
C1694 C1693 1.414 . S
C1694 C1695 1.374 . S
C1695 H1675 0.950 . S
C1695 C1691 1.385 . S
C1695 C1694 1.374 . S
C1696 C1693 1.499 . S
C1696 C1697 1.373 . S
C1696 C1698 1.389 . S
C1697 H1676 0.950 . S
C1697 C1696 1.373 . S
C1697 C1713 1.377 . S
C1698 C1696 1.389 . S
C1698 C1699 1.524 . S
C1698 C1712 1.377 . S
C1699 C1698 1.524 . S
C1699 C1700 1.397 . S
C1699 C1704 1.363 . S
C1700 H1677 0.950 . S
C1700 C1699 1.397 . S
C1700 C1701 1.334 . S
C1701 H1678 0.950 . S
C1701 C1700 1.334 . S
C1701 C1702 1.287 . S
C1702 C1701 1.287 . S
C1702 C1703 1.524 . S
C1702 H1721 0.913 . S
C1703 H1679 0.950 . S
C1703 C1702 1.524 . S
C1703 C1704 1.415 . S
C1704 H1680 0.950 . S
C1704 C1699 1.363 . S
C1704 C1703 1.415 . S
C1705 H1681 0.951 . S
C1705 C1706 1.366 . S
C1705 C1707 1.388 . S
C1706 C1705 1.366 . S
C1706 C1710 1.385 . S
C1707 H1682 0.951 . S
C1707 C1705 1.388 . S
C1707 C1708 1.366 . S
C1708 C1707 1.366 . S
C1708 C1709 1.414 . S
C1708 C1711 1.499 . S
C1709 H1683 0.950 . S
C1709 C1708 1.414 . S
C1709 C1710 1.374 . S
C1710 H1684 0.950 . S
C1710 C1706 1.385 . S
C1710 C1709 1.374 . S
C1711 C1708 1.499 . S
C1711 C1712 1.373 . S
C1711 C1713 1.389 . S
C1712 H1685 0.950 . S
C1712 C1698 1.377 . S
C1712 C1711 1.373 . S
C1713 C1697 1.377 . S
C1713 C1711 1.389 . S
C1713 C1714 1.524 . S
C1714 C1713 1.524 . S
C1714 C1715 1.397 . S
C1714 C1719 1.363 . S
C1715 H1686 0.950 . S
C1715 C1714 1.397 . S
C1715 C1716 1.334 . S
C1716 H1687 0.950 . S
C1716 C1715 1.334 . S
C1716 C1717 1.287 . S
C1717 C1716 1.287 . S
C1717 C1718 1.524 . S
C1717 H1720 0.999 . S
C1718 H1688 0.950 . S
C1718 C1717 1.524 . S
C1718 C1719 1.415 . S
C1719 H1689 0.950 . S
C1719 C1714 1.363 . S
C1719 C1718 1.415 . S
H1720 C1717 0.999 . S
H1721 C1702 0.913 . S
H1722 C1740 0.951 . S
H1723 C1742 0.951 . S
H1724 C1744 0.950 . S
H1725 C1745 0.950 . S
H1726 C1747 0.950 . S
H1727 C1750 0.950 . S
H1728 C1751 0.950 . S
H1729 C1753 0.950 . S
H1730 C1754 0.950 . S
H1731 C1755 0.951 . S
H1732 C1757 0.951 . S
H1733 C1759 0.950 . S
H1734 C1760 0.950 . S
H1735 C1762 0.950 . S
H1736 C1765 0.950 . S
H1737 C1766 0.950 . S
H1738 C1768 0.950 . S
H1739 C1769 0.950 . S
C1740 H1722 0.951 . S
C1740 C1741 1.366 . S
C1740 C1742 1.388 . S
C1741 C1740 1.366 . S
C1741 C1745 1.385 . S
C1742 H1723 0.951 . S
C1742 C1740 1.388 . S
C1742 C1743 1.366 . S
C1743 C1742 1.366 . S
C1743 C1744 1.414 . S
C1743 C1746 1.499 . S
C1744 H1724 0.950 . S
C1744 C1743 1.414 . S
C1744 C1745 1.374 . S
C1745 H1725 0.950 . S
C1745 C1741 1.385 . S
C1745 C1744 1.374 . S
C1746 C1743 1.499 . S
C1746 C1747 1.373 . S
C1746 C1748 1.389 . S
C1747 H1726 0.950 . S
C1747 C1746 1.373 . S
C1747 C1763 1.377 . S
C1748 C1746 1.389 . S
C1748 C1749 1.524 . S
C1748 C1762 1.377 . S
C1749 C1748 1.524 . S
C1749 C1750 1.397 . S
C1749 C1754 1.363 . S
C1750 H1727 0.950 . S
C1750 C1749 1.397 . S
C1750 C1751 1.334 . S
C1751 H1728 0.950 . S
C1751 C1750 1.334 . S
C1751 C1752 1.287 . S
C1752 C1751 1.287 . S
C1752 C1753 1.524 . S
C1752 H1771 0.913 . S
C1753 H1729 0.950 . S
C1753 C1752 1.524 . S
C1753 C1754 1.415 . S
C1754 H1730 0.950 . S
C1754 C1749 1.363 . S
C1754 C1753 1.415 . S
C1755 H1731 0.951 . S
C1755 C1756 1.366 . S
C1755 C1757 1.388 . S
C1756 C1755 1.366 . S
C1756 C1760 1.385 1_565 S
C1757 H1732 0.951 . S
C1757 C1755 1.388 . S
C1757 C1758 1.366 . S
C1758 C1757 1.366 . S
C1758 C1759 1.414 . S
C1758 C1761 1.499 . S
C1759 H1733 0.950 . S
C1759 C1758 1.414 . S
C1759 C1760 1.374 1_565 S
C1760 H1734 0.950 . S
C1760 C1756 1.385 1_545 S
C1760 C1759 1.374 1_545 S
C1761 C1758 1.499 . S
C1761 C1762 1.373 . S
C1761 C1763 1.389 . S
C1762 H1735 0.950 . S
C1762 C1748 1.377 . S
C1762 C1761 1.373 . S
C1763 C1747 1.377 . S
C1763 C1761 1.389 . S
C1763 C1764 1.524 . S
C1764 C1763 1.524 . S
C1764 C1765 1.397 . S
C1764 C1769 1.363 . S
C1765 H1736 0.950 . S
C1765 C1764 1.397 . S
C1765 C1766 1.334 . S
C1766 H1737 0.950 . S
C1766 C1765 1.334 . S
C1766 C1767 1.287 . S
C1767 C1766 1.287 . S
C1767 C1768 1.524 . S
C1767 H1770 0.999 . S
C1768 H1738 0.950 . S
C1768 C1767 1.524 . S
C1768 C1769 1.415 . S
C1769 H1739 0.950 . S
C1769 C1764 1.363 . S
C1769 C1768 1.415 . S
H1770 C1767 0.999 . S
H1771 C1752 0.913 . S
H1772 C1790 0.951 . S
H1773 C1792 0.951 . S
H1774 C1794 0.950 . S
H1775 C1795 0.950 . S
H1776 C1797 0.950 . S
H1777 C1800 0.950 . S
H1778 C1801 0.950 . S
H1779 C1803 0.950 . S
H1780 C1804 0.950 . S
H1781 C1805 0.951 . S
H1782 C1807 0.951 . S
H1783 C1809 0.950 . S
H1784 C1810 0.950 . S
H1785 C1812 0.950 . S
H1786 C1815 0.950 . S
H1787 C1816 0.950 . S
H1788 C1818 0.950 . S
H1789 C1819 0.950 . S
C1790 H1772 0.951 . S
C1790 C1791 1.366 . S
C1790 C1792 1.388 . S
C1791 C1790 1.366 . S
C1791 C1795 1.385 . S
C1792 H1773 0.951 . S
C1792 C1790 1.388 . S
C1792 C1793 1.366 . S
C1793 C1792 1.366 . S
C1793 C1794 1.414 . S
C1793 C1796 1.499 . S
C1794 H1774 0.950 . S
C1794 C1793 1.414 . S
C1794 C1795 1.374 . S
C1795 H1775 0.950 . S
C1795 C1791 1.385 . S
C1795 C1794 1.374 . S
C1796 C1793 1.499 . S
C1796 C1797 1.373 . S
C1796 C1798 1.389 . S
C1797 H1776 0.950 . S
C1797 C1796 1.373 . S
C1797 C1813 1.377 . S
C1798 C1796 1.389 . S
C1798 C1799 1.524 . S
C1798 C1812 1.377 . S
C1799 C1798 1.524 . S
C1799 C1800 1.397 . S
C1799 C1804 1.363 . S
C1800 H1777 0.950 . S
C1800 C1799 1.397 . S
C1800 C1801 1.334 . S
C1801 H1778 0.950 . S
C1801 C1800 1.334 . S
C1801 C1802 1.287 . S
C1802 C1801 1.287 . S
C1802 C1803 1.524 . S
C1802 H1821 0.913 . S
C1803 H1779 0.950 . S
C1803 C1802 1.524 . S
C1803 C1804 1.415 . S
C1804 H1780 0.950 . S
C1804 C1799 1.363 . S
C1804 C1803 1.415 . S
C1805 H1781 0.951 . S
C1805 C1806 1.366 . S
C1805 C1807 1.388 . S
C1806 C1805 1.366 . S
C1806 C1810 1.385 . S
C1807 H1782 0.951 . S
C1807 C1805 1.388 . S
C1807 C1808 1.366 . S
C1808 C1807 1.366 . S
C1808 C1809 1.414 . S
C1808 C1811 1.499 . S
C1809 H1783 0.950 . S
C1809 C1808 1.414 . S
C1809 C1810 1.374 . S
C1810 H1784 0.950 . S
C1810 C1806 1.385 . S
C1810 C1809 1.374 . S
C1811 C1808 1.499 . S
C1811 C1812 1.373 . S
C1811 C1813 1.389 . S
C1812 H1785 0.950 . S
C1812 C1798 1.377 . S
C1812 C1811 1.373 . S
C1813 C1797 1.377 . S
C1813 C1811 1.389 . S
C1813 C1814 1.524 . S
C1814 C1813 1.524 . S
C1814 C1815 1.397 . S
C1814 C1819 1.363 . S
C1815 H1786 0.950 . S
C1815 C1814 1.397 . S
C1815 C1816 1.334 . S
C1816 H1787 0.950 . S
C1816 C1815 1.334 . S
C1816 C1817 1.287 . S
C1817 C1816 1.287 . S
C1817 C1818 1.524 . S
C1817 H1820 0.999 . S
C1818 H1788 0.950 . S
C1818 C1817 1.524 . S
C1818 C1819 1.415 . S
C1819 H1789 0.950 . S
C1819 C1814 1.363 . S
C1819 C1818 1.415 . S
H1820 C1817 0.999 . S
H1821 C1802 0.913 . S
H1822 C1840 0.951 . S
H1823 C1842 0.951 . S
H1824 C1844 0.950 . S
H1825 C1845 0.950 . S
H1826 C1847 0.950 . S
H1827 C1850 0.950 . S
H1828 C1851 0.950 . S
H1829 C1853 0.950 . S
H1830 C1854 0.950 . S
H1831 C1855 0.951 . S
H1832 C1857 0.951 . S
H1833 C1859 0.950 . S
H1834 C1860 0.950 . S
H1835 C1862 0.950 . S
H1836 C1865 0.950 . S
H1837 C1866 0.950 . S
H1838 C1868 0.950 . S
H1839 C1869 0.950 . S
C1840 H1822 0.951 . S
C1840 C1841 1.366 . S
C1840 C1842 1.388 . S
C1841 C1840 1.366 . S
C1841 C1845 1.385 . S
C1842 H1823 0.951 . S
C1842 C1840 1.388 . S
C1842 C1843 1.366 . S
C1843 C1842 1.366 . S
C1843 C1844 1.414 . S
C1843 C1846 1.499 . S
C1844 H1824 0.950 . S
C1844 C1843 1.414 . S
C1844 C1845 1.374 . S
C1845 H1825 0.950 . S
C1845 C1841 1.385 . S
C1845 C1844 1.374 . S
C1846 C1843 1.499 . S
C1846 C1847 1.373 . S
C1846 C1848 1.389 . S
C1847 H1826 0.950 . S
C1847 C1846 1.373 . S
C1847 C1863 1.377 . S
C1848 C1846 1.389 . S
C1848 C1849 1.524 . S
C1848 C1862 1.377 . S
C1849 C1848 1.524 . S
C1849 C1850 1.397 . S
C1849 C1854 1.363 . S
C1850 H1827 0.950 . S
C1850 C1849 1.397 . S
C1850 C1851 1.334 . S
C1851 H1828 0.950 . S
C1851 C1850 1.334 . S
C1851 C1852 1.287 . S
C1852 C1851 1.287 . S
C1852 C1853 1.524 . S
C1852 H1871 0.913 . S
C1853 H1829 0.950 . S
C1853 C1852 1.524 . S
C1853 C1854 1.415 . S
C1854 H1830 0.950 . S
C1854 C1849 1.363 . S
C1854 C1853 1.415 . S
C1855 H1831 0.951 . S
C1855 C1856 1.366 . S
C1855 C1857 1.388 . S
C1856 C1855 1.366 . S
C1856 C1860 1.385 . S
C1857 H1832 0.951 . S
C1857 C1855 1.388 . S
C1857 C1858 1.366 . S
C1858 C1857 1.366 . S
C1858 C1859 1.414 . S
C1858 C1861 1.499 . S
C1859 H1833 0.950 . S
C1859 C1858 1.414 . S
C1859 C1860 1.374 . S
C1860 H1834 0.950 . S
C1860 C1856 1.385 . S
C1860 C1859 1.374 . S
C1861 C1858 1.499 . S
C1861 C1862 1.373 . S
C1861 C1863 1.389 . S
C1862 H1835 0.950 . S
C1862 C1848 1.377 . S
C1862 C1861 1.373 . S
C1863 C1847 1.377 . S
C1863 C1861 1.389 . S
C1863 C1864 1.524 . S
C1864 C1863 1.524 . S
C1864 C1865 1.397 . S
C1864 C1869 1.363 . S
C1865 H1836 0.950 . S
C1865 C1864 1.397 . S
C1865 C1866 1.334 . S
C1866 H1837 0.950 . S
C1866 C1865 1.334 . S
C1866 C1867 1.287 . S
C1867 C1866 1.287 . S
C1867 C1868 1.524 . S
C1867 H1870 0.999 . S
C1868 H1838 0.950 . S
C1868 C1867 1.524 . S
C1868 C1869 1.415 . S
C1869 H1839 0.950 . S
C1869 C1864 1.363 . S
C1869 C1868 1.415 . S
H1870 C1867 0.999 . S
H1871 C1852 0.913 . S
H1872 C1890 0.951 . S
H1873 C1892 0.951 . S
H1874 C1894 0.965 . S
H1875 C1895 0.950 . S
H1876 C1897 0.950 . S
H1877 C1900 0.950 . S
H1878 C1901 0.950 . S
H1879 C1903 0.950 . S
H1880 C1904 0.950 . S
H1881 C1905 0.949 1_554 S
H1882 C1907 0.951 1_655 S
H1883 C1909 0.950 . S
H1884 C1910 0.950 . S
H1885 C1912 0.950 . S
H1886 C1915 0.950 . S
H1887 C1916 0.950 . S
H1888 C1918 0.950 . S
H1889 C1919 0.950 . S
C1890 H1872 0.951 . S
C1890 C1891 1.366 . S
C1890 C1892 1.388 . S
C1891 C1890 1.366 . S
C1891 C1895 1.385 1_455 S
C1892 H1873 0.951 . S
C1892 C1890 1.388 . S
C1892 C1893 1.366 . S
C1893 C1892 1.366 . S
C1893 C1894 1.400 1_455 S
C1893 C1896 1.499 . S
C1894 H1874 0.965 . S
C1894 C1893 1.400 1_655 S
C1894 C1895 1.374 . S
C1895 H1875 0.950 . S
C1895 C1891 1.385 1_655 S
C1895 C1894 1.374 . S
C1896 C1893 1.499 . S
C1896 C1897 1.373 1_455 S
C1896 C1898 1.389 . S
C1897 H1876 0.950 . S
C1897 C1896 1.373 1_655 S
C1897 C1913 1.377 . S
C1898 C1896 1.389 . S
C1898 C1899 1.524 . S
C1898 C1912 1.377 . S
C1899 C1898 1.524 . S
C1899 C1900 1.397 . S
C1899 C1904 1.363 . S
C1900 H1877 0.950 . S
C1900 C1899 1.397 . S
C1900 C1901 1.334 . S
C1901 H1878 0.950 . S
C1901 C1900 1.334 . S
C1901 C1902 1.287 . S
C1902 C1901 1.287 . S
C1902 C1903 1.524 . S
C1902 H1921 0.913 . S
C1903 H1879 0.950 . S
C1903 C1902 1.524 . S
C1903 C1904 1.415 . S
C1904 H1880 0.950 . S
C1904 C1899 1.363 . S
C1904 C1903 1.415 . S
C1905 H1881 0.949 1_556 S
C1905 C1906 1.366 . S
C1905 C1907 1.388 . S
C1906 C1905 1.366 . S
C1906 C1910 1.385 . S
C1907 H1882 0.951 1_455 S
C1907 C1905 1.388 . S
C1907 C1908 1.366 . S
C1908 C1907 1.366 . S
C1908 C1909 1.414 . S
C1908 C1911 1.499 . S
C1909 H1883 0.950 . S
C1909 C1908 1.414 . S
C1909 C1910 1.374 . S
C1910 H1884 0.950 . S
C1910 C1906 1.385 . S
C1910 C1909 1.374 . S
C1911 C1908 1.499 . S
C1911 C1912 1.373 . S
C1911 C1913 1.389 1_455 S
C1912 H1885 0.950 . S
C1912 C1898 1.377 . S
C1912 C1911 1.373 . S
C1913 C1897 1.377 . S
C1913 C1911 1.389 1_655 S
C1913 C1914 1.524 . S
C1914 C1913 1.524 . S
C1914 C1915 1.397 . S
C1914 C1919 1.363 . S
C1915 H1886 0.950 . S
C1915 C1914 1.397 . S
C1915 C1916 1.334 . S
C1916 H1887 0.950 . S
C1916 C1915 1.334 . S
C1916 C1917 1.287 . S
C1917 C1916 1.287 . S
C1917 C1918 1.524 . S
C1917 H1920 0.999 . S
C1918 H1888 0.950 . S
C1918 C1917 1.524 . S
C1918 C1919 1.415 . S
C1919 H1889 0.950 . S
C1919 C1914 1.363 . S
C1919 C1918 1.415 . S
H1920 C1917 0.999 . S
H1921 C1902 0.913 . S
H1922 C1940 0.951 . S
H1923 C1942 0.951 . S
H1924 C1944 0.950 . S
H1925 C1945 0.950 . S
H1926 C1947 0.950 . S
H1927 C1950 0.950 . S
H1928 C1951 0.950 . S
H1929 C1953 0.950 . S
H1930 C1954 0.950 . S
H1931 C1955 0.951 . S
H1932 C1957 0.951 . S
H1933 C1959 0.950 . S
H1934 C1960 0.950 . S
H1935 C1962 0.950 . S
H1936 C1965 0.950 . S
H1937 C1966 0.950 . S
H1938 C1968 0.950 . S
H1939 C1969 0.950 . S
C1940 H1922 0.951 . S
C1940 C1941 1.366 . S
C1940 C1942 1.388 . S
C1941 C1940 1.366 . S
C1941 C1945 1.385 . S
C1942 H1923 0.951 . S
C1942 C1940 1.388 . S
C1942 C1943 1.366 . S
C1943 C1942 1.366 . S
C1943 C1944 1.414 . S
C1943 C1946 1.499 . S
C1944 H1924 0.950 . S
C1944 C1943 1.414 . S
C1944 C1945 1.374 . S
C1945 H1925 0.950 . S
C1945 C1941 1.385 . S
C1945 C1944 1.374 . S
C1946 C1943 1.499 . S
C1946 C1947 1.373 . S
C1946 C1948 1.389 . S
C1947 H1926 0.950 . S
C1947 C1946 1.373 . S
C1947 C1963 1.377 . S
C1948 C1946 1.389 . S
C1948 C1949 1.524 . S
C1948 C1962 1.377 . S
C1949 C1948 1.524 . S
C1949 C1950 1.397 . S
C1949 C1954 1.363 . S
C1950 H1927 0.950 . S
C1950 C1949 1.397 . S
C1950 C1951 1.334 . S
C1951 H1928 0.950 . S
C1951 C1950 1.334 . S
C1951 C1952 1.287 . S
C1952 C1951 1.287 . S
C1952 C1953 1.524 . S
C1952 H1971 0.913 . S
C1953 H1929 0.950 . S
C1953 C1952 1.524 . S
C1953 C1954 1.415 . S
C1954 H1930 0.950 . S
C1954 C1949 1.363 . S
C1954 C1953 1.415 . S
C1955 H1931 0.951 . S
C1955 C1956 1.366 . S
C1955 C1957 1.388 . S
C1956 C1955 1.366 . S
C1956 C1960 1.385 . S
C1957 H1932 0.951 . S
C1957 C1955 1.388 . S
C1957 C1958 1.366 . S
C1958 C1957 1.366 . S
C1958 C1959 1.414 . S
C1958 C1961 1.499 . S
C1959 H1933 0.950 . S
C1959 C1958 1.414 . S
C1959 C1960 1.374 . S
C1960 H1934 0.950 . S
C1960 C1956 1.385 . S
C1960 C1959 1.374 . S
C1961 C1958 1.499 . S
C1961 C1962 1.373 . S
C1961 C1963 1.389 . S
C1962 H1935 0.950 . S
C1962 C1948 1.377 . S
C1962 C1961 1.373 . S
C1963 C1947 1.377 . S
C1963 C1961 1.389 . S
C1963 C1964 1.524 . S
C1964 C1963 1.524 . S
C1964 C1965 1.397 . S
C1964 C1969 1.363 . S
C1965 H1936 0.950 . S
C1965 C1964 1.397 . S
C1965 C1966 1.334 . S
C1966 H1937 0.950 . S
C1966 C1965 1.334 . S
C1966 C1967 1.287 . S
C1967 C1966 1.287 . S
C1967 C1968 1.524 . S
C1967 H1970 0.999 . S
C1968 H1938 0.950 . S
C1968 C1967 1.524 . S
C1968 C1969 1.415 . S
C1969 H1939 0.950 . S
C1969 C1964 1.363 . S
C1969 C1968 1.415 . S
H1970 C1967 0.999 . S
H1971 C1952 0.913 . S
H1972 C1990 0.951 . S
H1973 C1992 0.951 . S
H1974 C1994 0.950 . S
H1975 C1995 0.950 . S
H1976 C1997 0.950 . S
H1977 C2000 0.950 . S
H1978 C2001 0.950 . S
H1979 C2003 0.950 . S
H1980 C2004 0.950 . S
H1981 C2005 0.951 . S
H1982 C2007 0.951 . S
H1983 C2009 0.950 . S
H1984 C2010 0.950 . S
H1985 C2012 0.950 . S
H1986 C2015 0.950 . S
H1987 C2016 0.950 . S
H1988 C2018 0.950 . S
H1989 C2019 0.950 . S
C1990 H1972 0.951 . S
C1990 C1991 1.366 . S
C1990 C1992 1.388 . S
C1991 C1990 1.366 . S
C1991 C1995 1.385 . S
C1992 H1973 0.951 . S
C1992 C1990 1.388 . S
C1992 C1993 1.366 . S
C1993 C1992 1.366 . S
C1993 C1994 1.414 . S
C1993 C1996 1.499 . S
C1994 H1974 0.950 . S
C1994 C1993 1.414 . S
C1994 C1995 1.374 . S
C1995 H1975 0.950 . S
C1995 C1991 1.385 . S
C1995 C1994 1.374 . S
C1996 C1993 1.499 . S
C1996 C1997 1.373 . S
C1996 C1998 1.389 . S
C1997 H1976 0.950 . S
C1997 C1996 1.373 . S
C1997 C2013 1.377 . S
C1998 C1996 1.389 . S
C1998 C1999 1.524 . S
C1998 C2012 1.377 . S
C1999 C1998 1.524 . S
C1999 C2000 1.397 . S
C1999 C2004 1.363 . S
C2000 H1977 0.950 . S
C2000 C1999 1.397 . S
C2000 C2001 1.334 . S
C2001 H1978 0.950 . S
C2001 C2000 1.334 . S
C2001 C2002 1.287 . S
C2002 C2001 1.287 . S
C2002 C2003 1.524 . S
C2002 H2021 0.913 . S
C2003 H1979 0.950 . S
C2003 C2002 1.524 . S
C2003 C2004 1.415 . S
C2004 H1980 0.950 . S
C2004 C1999 1.363 . S
C2004 C2003 1.415 . S
C2005 H1981 0.951 . S
C2005 C2006 1.366 . S
C2005 C2007 1.388 . S
C2006 C2005 1.366 . S
C2006 C2010 1.385 . S
C2007 H1982 0.951 . S
C2007 C2005 1.388 . S
C2007 C2008 1.366 . S
C2008 C2007 1.366 . S
C2008 C2009 1.414 . S
C2008 C2011 1.499 . S
C2009 H1983 0.950 . S
C2009 C2008 1.414 . S
C2009 C2010 1.374 . S
C2010 H1984 0.950 . S
C2010 C2006 1.385 . S
C2010 C2009 1.374 . S
C2011 C2008 1.499 . S
C2011 C2012 1.373 . S
C2011 C2013 1.389 . S
C2012 H1985 0.950 . S
C2012 C1998 1.377 . S
C2012 C2011 1.373 . S
C2013 C1997 1.377 . S
C2013 C2011 1.389 . S
C2013 C2014 1.524 . S
C2014 C2013 1.524 . S
C2014 C2015 1.397 . S
C2014 C2019 1.363 . S
C2015 H1986 0.950 . S
C2015 C2014 1.397 . S
C2015 C2016 1.334 . S
C2016 H1987 0.950 . S
C2016 C2015 1.334 . S
C2016 C2017 1.287 . S
C2017 C2016 1.287 . S
C2017 C2018 1.524 . S
C2017 H2020 0.999 . S
C2018 H1988 0.950 . S
C2018 C2017 1.524 . S
C2018 C2019 1.415 . S
C2019 H1989 0.950 . S
C2019 C2014 1.363 . S
C2019 C2018 1.415 . S
H2020 C2017 0.999 . S
H2021 C2002 0.913 . S
H2022 C2040 0.951 . S
H2023 C2042 0.951 . S
H2024 C2044 0.950 . S
H2025 C2045 0.950 . S
H2026 C2047 0.950 . S
H2027 C2050 0.950 . S
H2028 C2051 0.950 . S
H2029 C2053 0.950 . S
H2030 C2054 0.950 . S
H2031 C2055 0.951 . S
H2032 C2057 0.951 . S
H2033 C2059 0.950 . S
H2034 C2060 0.950 . S
H2035 C2062 0.950 . S
H2036 C2065 0.950 . S
H2037 C2066 0.950 . S
H2038 C2068 0.950 . S
H2039 C2069 0.950 . S
C2040 H2022 0.951 . S
C2040 C2041 1.366 . S
C2040 C2042 1.388 . S
C2041 C2040 1.366 . S
C2041 C2045 1.385 . S
C2042 H2023 0.951 . S
C2042 C2040 1.388 . S
C2042 C2043 1.366 . S
C2043 C2042 1.366 . S
C2043 C2044 1.414 . S
C2043 C2046 1.499 . S
C2044 H2024 0.950 . S
C2044 C2043 1.414 . S
C2044 C2045 1.374 . S
C2045 H2025 0.950 . S
C2045 C2041 1.385 . S
C2045 C2044 1.374 . S
C2046 C2043 1.499 . S
C2046 C2047 1.373 . S
C2046 C2048 1.389 . S
C2047 H2026 0.950 . S
C2047 C2046 1.373 . S
C2047 C2063 1.377 . S
C2048 C2046 1.389 . S
C2048 C2049 1.524 . S
C2048 C2062 1.377 . S
C2049 C2048 1.524 . S
C2049 C2050 1.397 . S
C2049 C2054 1.363 . S
C2050 H2027 0.950 . S
C2050 C2049 1.397 . S
C2050 C2051 1.334 . S
C2051 H2028 0.950 . S
C2051 C2050 1.334 . S
C2051 C2052 1.287 . S
C2052 C2051 1.287 . S
C2052 C2053 1.524 . S
C2052 H2071 0.913 . S
C2053 H2029 0.950 . S
C2053 C2052 1.524 . S
C2053 C2054 1.415 . S
C2054 H2030 0.950 . S
C2054 C2049 1.363 . S
C2054 C2053 1.415 . S
C2055 H2031 0.951 . S
C2055 C2056 1.366 . S
C2055 C2057 1.388 . S
C2056 C2055 1.366 . S
C2056 C2060 1.385 . S
C2057 H2032 0.951 . S
C2057 C2055 1.388 . S
C2057 C2058 1.366 . S
C2058 C2057 1.366 . S
C2058 C2059 1.414 . S
C2058 C2061 1.499 . S
C2059 H2033 0.950 . S
C2059 C2058 1.414 . S
C2059 C2060 1.374 . S
C2060 H2034 0.950 . S
C2060 C2056 1.385 . S
C2060 C2059 1.374 . S
C2061 C2058 1.499 . S
C2061 C2062 1.373 . S
C2061 C2063 1.389 . S
C2062 H2035 0.950 . S
C2062 C2048 1.377 . S
C2062 C2061 1.373 . S
C2063 C2047 1.377 . S
C2063 C2061 1.389 . S
C2063 C2064 1.524 . S
C2064 C2063 1.524 . S
C2064 C2065 1.397 . S
C2064 C2069 1.363 . S
C2065 H2036 0.950 . S
C2065 C2064 1.397 . S
C2065 C2066 1.334 . S
C2066 H2037 0.950 . S
C2066 C2065 1.334 . S
C2066 C2067 1.287 . S
C2067 C2066 1.287 . S
C2067 C2068 1.524 . S
C2067 H2070 0.999 . S
C2068 H2038 0.950 . S
C2068 C2067 1.524 . S
C2068 C2069 1.415 . S
C2069 H2039 0.950 . S
C2069 C2064 1.363 . S
C2069 C2068 1.415 . S
H2070 C2067 0.999 . S
H2071 C2052 0.913 . S
H2072 C2090 0.951 . S
H2073 C2092 0.951 . S
H2074 C2094 0.950 . S
H2075 C2095 0.950 . S
H2076 C2097 0.950 . S
H2077 C2100 0.950 . S
H2078 C2101 0.950 . S
H2079 C2103 0.950 . S
H2080 C2104 0.930 1_655 S
H2081 C2105 0.951 . S
H2082 C2107 0.951 . S
H2083 C2109 0.937 1_655 S
H2084 C2110 0.950 1_655 S
H2085 C2112 0.950 . S
H2086 C2115 0.950 . S
H2087 C2116 0.950 . S
H2088 C2118 0.957 . S
H2089 C2119 0.950 . S
C2090 H2072 0.951 . S
C2090 C2091 1.366 1_655 S
C2090 C2092 1.388 . S
C2091 C2090 1.366 1_455 S
C2091 C2095 1.385 . S
C2092 H2073 0.951 . S
C2092 C2090 1.388 . S
C2092 C2093 1.366 1_655 S
C2093 C2092 1.366 1_455 S
C2093 C2094 1.414 . S
C2093 C2096 1.499 . S
C2094 H2074 0.950 . S
C2094 C2093 1.414 . S
C2094 C2095 1.374 . S
C2095 H2075 0.950 . S
C2095 C2091 1.385 . S
C2095 C2094 1.374 . S
C2096 C2093 1.499 . S
C2096 C2097 1.373 . S
C2096 C2098 1.389 . S
C2097 H2076 0.950 . S
C2097 C2096 1.373 . S
C2097 C2113 1.377 . S
C2098 C2096 1.389 . S
C2098 C2099 1.524 . S
C2098 C2112 1.377 . S
C2099 C2098 1.524 . S
C2099 C2100 1.397 . S
C2099 C2104 1.363 . S
C2100 H2077 0.950 . S
C2100 C2099 1.397 . S
C2100 C2101 1.334 . S
C2101 H2078 0.950 . S
C2101 C2100 1.334 . S
C2101 C2102 1.287 . S
C2102 C2101 1.287 . S
C2102 C2103 1.524 . S
C2102 H2121 0.913 . S
C2103 H2079 0.950 . S
C2103 C2102 1.524 . S
C2103 C2104 1.415 . S
C2104 H2080 0.930 1_455 S
C2104 C2099 1.363 . S
C2104 C2103 1.415 . S
C2105 H2081 0.951 . S
C2105 C2106 1.366 . S
C2105 C2107 1.388 . S
C2106 C2105 1.366 . S
C2106 C2110 1.385 . S
C2107 H2082 0.951 . S
C2107 C2105 1.388 . S
C2107 C2108 1.366 . S
C2108 C2107 1.366 . S
C2108 C2109 1.424 . S
C2108 C2111 1.499 . S
C2109 H2083 0.937 1_455 S
C2109 C2108 1.424 . S
C2109 C2110 1.377 . S
C2110 H2084 0.950 1_455 S
C2110 C2106 1.385 . S
C2110 C2109 1.377 . S
C2111 C2108 1.499 . S
C2111 C2112 1.373 . S
C2111 C2113 1.389 . S
C2112 H2085 0.950 . S
C2112 C2098 1.377 . S
C2112 C2111 1.373 . S
C2113 C2097 1.377 . S
C2113 C2111 1.389 . S
C2113 C2114 1.524 1_455 S
C2114 C2113 1.524 1_655 S
C2114 C2115 1.397 . S
C2114 C2119 1.363 1_655 S
C2115 H2086 0.950 . S
C2115 C2114 1.397 . S
C2115 C2116 1.334 . S
C2116 H2087 0.950 . S
C2116 C2115 1.334 . S
C2116 C2117 1.287 . S
C2117 C2116 1.287 . S
C2117 C2118 1.511 1_655 S
C2117 H2120 0.999 . S
C2118 H2088 0.957 . S
C2118 C2117 1.511 1_455 S
C2118 C2119 1.420 . S
C2119 H2089 0.950 . S
C2119 C2114 1.363 1_455 S
C2119 C2118 1.420 . S
H2120 C2117 0.999 . S
H2121 C2102 0.913 . S
H2122 C2140 0.951 . S
H2123 C2142 0.951 . S
H2124 C2144 0.950 . S
H2125 C2145 0.950 . S
H2126 C2147 0.950 . S
H2127 C2150 0.950 . S
H2128 C2151 0.950 . S
H2129 C2153 0.950 . S
H2130 C2154 0.950 . S
H2131 C2155 0.951 . S
H2132 C2157 0.951 . S
H2133 C2159 0.950 . S
H2134 C2160 0.950 . S
H2135 C2162 0.950 . S
H2136 C2165 0.950 . S
H2137 C2166 0.950 . S
H2138 C2168 0.950 . S
H2139 C2169 0.950 . S
C2140 H2122 0.951 . S
C2140 C2141 1.366 . S
C2140 C2142 1.388 . S
C2141 C2140 1.366 . S
C2141 C2145 1.385 . S
C2142 H2123 0.951 . S
C2142 C2140 1.388 . S
C2142 C2143 1.366 . S
C2143 C2142 1.366 . S
C2143 C2144 1.414 . S
C2143 C2146 1.499 . S
C2144 H2124 0.950 . S
C2144 C2143 1.414 . S
C2144 C2145 1.374 . S
C2145 H2125 0.950 . S
C2145 C2141 1.385 . S
C2145 C2144 1.374 . S
C2146 C2143 1.499 . S
C2146 C2147 1.373 . S
C2146 C2148 1.389 . S
C2147 H2126 0.950 . S
C2147 C2146 1.373 . S
C2147 C2163 1.377 . S
C2148 C2146 1.389 . S
C2148 C2149 1.524 . S
C2148 C2162 1.377 . S
C2149 C2148 1.524 . S
C2149 C2150 1.397 . S
C2149 C2154 1.363 . S
C2150 H2127 0.950 . S
C2150 C2149 1.397 . S
C2150 C2151 1.334 . S
C2151 H2128 0.950 . S
C2151 C2150 1.334 . S
C2151 C2152 1.287 . S
C2152 C2151 1.287 . S
C2152 C2153 1.524 . S
C2152 H2171 0.913 . S
C2153 H2129 0.950 . S
C2153 C2152 1.524 . S
C2153 C2154 1.415 . S
C2154 H2130 0.950 . S
C2154 C2149 1.363 . S
C2154 C2153 1.415 . S
C2155 H2131 0.951 . S
C2155 C2156 1.366 . S
C2155 C2157 1.388 . S
C2156 C2155 1.366 . S
C2156 C2160 1.385 . S
C2157 H2132 0.951 . S
C2157 C2155 1.388 . S
C2157 C2158 1.366 . S
C2158 C2157 1.366 . S
C2158 C2159 1.414 . S
C2158 C2161 1.499 . S
C2159 H2133 0.950 . S
C2159 C2158 1.414 . S
C2159 C2160 1.374 . S
C2160 H2134 0.950 . S
C2160 C2156 1.385 . S
C2160 C2159 1.374 . S
C2161 C2158 1.499 . S
C2161 C2162 1.373 . S
C2161 C2163 1.389 . S
C2162 H2135 0.950 . S
C2162 C2148 1.377 . S
C2162 C2161 1.373 . S
C2163 C2147 1.377 . S
C2163 C2161 1.389 . S
C2163 C2164 1.524 . S
C2164 C2163 1.524 . S
C2164 C2165 1.397 . S
C2164 C2169 1.363 . S
C2165 H2136 0.950 . S
C2165 C2164 1.397 . S
C2165 C2166 1.334 . S
C2166 H2137 0.950 . S
C2166 C2165 1.334 . S
C2166 C2167 1.287 . S
C2167 C2166 1.287 . S
C2167 C2168 1.524 . S
C2167 H2170 0.999 . S
C2168 H2138 0.950 . S
C2168 C2167 1.524 . S
C2168 C2169 1.415 . S
C2169 H2139 0.950 . S
C2169 C2164 1.363 . S
C2169 C2168 1.415 . S
H2170 C2167 0.999 . S
H2171 C2152 0.913 . S
H2172 C2190 0.951 . S
H2173 C2192 0.951 . S
H2174 C2194 0.950 . S
H2175 C2195 0.950 . S
H2176 C2197 0.950 . S
H2177 C2200 0.950 . S
H2178 C2201 0.950 . S
H2179 C2203 0.950 . S
H2180 C2204 0.950 . S
H2181 C2205 0.951 . S
H2182 C2207 0.951 . S
H2183 C2209 0.950 . S
H2184 C2210 0.950 . S
H2185 C2212 0.950 . S
H2186 C2215 0.950 . S
H2187 C2216 0.950 . S
H2188 C2218 0.950 . S
H2189 C2219 0.950 . S
C2190 H2172 0.951 . S
C2190 C2191 1.366 . S
C2190 C2192 1.388 . S
C2191 C2190 1.366 . S
C2191 C2195 1.385 . S
C2192 H2173 0.951 . S
C2192 C2190 1.388 . S
C2192 C2193 1.366 . S
C2193 C2192 1.366 . S
C2193 C2194 1.414 . S
C2193 C2196 1.499 . S
C2194 H2174 0.950 . S
C2194 C2193 1.414 . S
C2194 C2195 1.374 . S
C2195 H2175 0.950 . S
C2195 C2191 1.385 . S
C2195 C2194 1.374 . S
C2196 C2193 1.499 . S
C2196 C2197 1.373 . S
C2196 C2198 1.389 . S
C2197 H2176 0.950 . S
C2197 C2196 1.373 . S
C2197 C2213 1.377 . S
C2198 C2196 1.389 . S
C2198 C2199 1.524 . S
C2198 C2212 1.377 . S
C2199 C2198 1.524 . S
C2199 C2200 1.397 . S
C2199 C2204 1.363 . S
C2200 H2177 0.950 . S
C2200 C2199 1.397 . S
C2200 C2201 1.334 . S
C2201 H2178 0.950 . S
C2201 C2200 1.334 . S
C2201 C2202 1.287 . S
C2202 C2201 1.287 . S
C2202 C2203 1.524 . S
C2202 H2221 0.913 . S
C2203 H2179 0.950 . S
C2203 C2202 1.524 . S
C2203 C2204 1.415 . S
C2204 H2180 0.950 . S
C2204 C2199 1.363 . S
C2204 C2203 1.415 . S
C2205 H2181 0.951 . S
C2205 C2206 1.366 . S
C2205 C2207 1.388 . S
C2206 C2205 1.366 . S
C2206 C2210 1.385 . S
C2207 H2182 0.951 . S
C2207 C2205 1.388 . S
C2207 C2208 1.366 . S
C2208 C2207 1.366 . S
C2208 C2209 1.414 . S
C2208 C2211 1.499 . S
C2209 H2183 0.950 . S
C2209 C2208 1.414 . S
C2209 C2210 1.374 . S
C2210 H2184 0.950 . S
C2210 C2206 1.385 . S
C2210 C2209 1.374 . S
C2211 C2208 1.499 . S
C2211 C2212 1.373 . S
C2211 C2213 1.389 . S
C2212 H2185 0.950 . S
C2212 C2198 1.377 . S
C2212 C2211 1.373 . S
C2213 C2197 1.377 . S
C2213 C2211 1.389 . S
C2213 C2214 1.524 . S
C2214 C2213 1.524 . S
C2214 C2215 1.397 . S
C2214 C2219 1.363 . S
C2215 H2186 0.950 . S
C2215 C2214 1.397 . S
C2215 C2216 1.334 . S
C2216 H2187 0.950 . S
C2216 C2215 1.334 . S
C2216 C2217 1.287 . S
C2217 C2216 1.287 . S
C2217 C2218 1.524 . S
C2217 H2220 0.999 . S
C2218 H2188 0.950 . S
C2218 C2217 1.524 . S
C2218 C2219 1.415 . S
C2219 H2189 0.950 . S
C2219 C2214 1.363 . S
C2219 C2218 1.415 . S
H2220 C2217 0.999 . S
H2221 C2202 0.913 . S
H2222 C2240 0.951 . S
H2223 C2242 0.951 . S
H2224 C2244 0.950 . S
H2225 C2245 0.950 . S
H2226 C2247 0.950 . S
H2227 C2250 0.950 . S
H2228 C2251 0.950 . S
H2229 C2253 0.950 . S
H2230 C2254 0.950 . S
H2231 C2255 0.951 . S
H2232 C2257 0.951 . S
H2233 C2259 0.950 . S
H2234 C2260 0.950 . S
H2235 C2262 0.950 . S
H2236 C2265 0.950 . S
H2237 C2266 0.950 . S
H2238 C2268 0.950 . S
H2239 C2269 0.950 . S
C2240 H2222 0.951 . S
C2240 C2241 1.366 . S
C2240 C2242 1.388 . S
C2241 C2240 1.366 . S
C2241 C2245 1.385 . S
C2242 H2223 0.951 . S
C2242 C2240 1.388 . S
C2242 C2243 1.366 . S
C2243 C2242 1.366 . S
C2243 C2244 1.414 . S
C2243 C2246 1.499 . S
C2244 H2224 0.950 . S
C2244 C2243 1.414 . S
C2244 C2245 1.374 . S
C2245 H2225 0.950 . S
C2245 C2241 1.385 . S
C2245 C2244 1.374 . S
C2246 C2243 1.499 . S
C2246 C2247 1.373 . S
C2246 C2248 1.389 . S
C2247 H2226 0.950 . S
C2247 C2246 1.373 . S
C2247 C2263 1.377 . S
C2248 C2246 1.389 . S
C2248 C2249 1.524 . S
C2248 C2262 1.377 . S
C2249 C2248 1.524 . S
C2249 C2250 1.397 . S
C2249 C2254 1.363 . S
C2250 H2227 0.950 . S
C2250 C2249 1.397 . S
C2250 C2251 1.334 . S
C2251 H2228 0.950 . S
C2251 C2250 1.334 . S
C2251 C2252 1.287 . S
C2252 C2251 1.287 . S
C2252 C2253 1.524 . S
C2252 H2271 0.913 . S
C2253 H2229 0.950 . S
C2253 C2252 1.524 . S
C2253 C2254 1.415 . S
C2254 H2230 0.950 . S
C2254 C2249 1.363 . S
C2254 C2253 1.415 . S
C2255 H2231 0.951 . S
C2255 C2256 1.366 . S
C2255 C2257 1.388 . S
C2256 C2255 1.366 . S
C2256 C2260 1.385 . S
C2257 H2232 0.951 . S
C2257 C2255 1.388 . S
C2257 C2258 1.366 . S
C2258 C2257 1.366 . S
C2258 C2259 1.414 . S
C2258 C2261 1.499 . S
C2259 H2233 0.950 . S
C2259 C2258 1.414 . S
C2259 C2260 1.374 . S
C2260 H2234 0.950 . S
C2260 C2256 1.385 . S
C2260 C2259 1.374 . S
C2261 C2258 1.499 . S
C2261 C2262 1.373 . S
C2261 C2263 1.389 . S
C2262 H2235 0.950 . S
C2262 C2248 1.377 . S
C2262 C2261 1.373 . S
C2263 C2247 1.377 . S
C2263 C2261 1.389 . S
C2263 C2264 1.524 . S
C2264 C2263 1.524 . S
C2264 C2265 1.397 . S
C2264 C2269 1.363 . S
C2265 H2236 0.950 . S
C2265 C2264 1.397 . S
C2265 C2266 1.334 . S
C2266 H2237 0.950 . S
C2266 C2265 1.334 . S
C2266 C2267 1.287 . S
C2267 C2266 1.287 . S
C2267 C2268 1.524 . S
C2267 H2270 0.999 . S
C2268 H2238 0.950 . S
C2268 C2267 1.524 . S
C2268 C2269 1.415 . S
C2269 H2239 0.950 . S
C2269 C2264 1.363 . S
C2269 C2268 1.415 . S
H2270 C2267 0.999 . S
H2271 C2252 0.913 . S
H2272 C2290 0.951 . S
H2273 C2292 0.951 . S
H2274 C2294 0.950 . S
H2275 C2295 0.950 . S
H2276 C2297 0.950 . S
H2277 C2300 0.922 1_565 S
H2278 C2301 0.950 . S
H2279 C2303 0.950 . S
H2280 C2304 0.950 . S
H2281 C2305 0.951 . S
H2282 C2307 0.951 . S
H2283 C2309 0.950 . S
H2284 C2310 0.950 . S
H2285 C2312 0.950 . S
H2286 C2315 0.950 1_545 S
H2287 C2316 0.950 . S
H2288 C2318 0.950 . S
H2289 C2319 0.950 . S
C2290 H2272 0.951 . S
C2290 C2291 1.366 . S
C2290 C2292 1.388 . S
C2291 C2290 1.366 . S
C2291 C2295 1.385 1_545 S
C2292 H2273 0.951 . S
C2292 C2290 1.388 . S
C2292 C2293 1.366 . S
C2293 C2292 1.366 . S
C2293 C2294 1.414 1_545 S
C2293 C2296 1.499 . S
C2294 H2274 0.950 . S
C2294 C2293 1.414 1_565 S
C2294 C2295 1.374 . S
C2295 H2275 0.950 . S
C2295 C2291 1.385 1_565 S
C2295 C2294 1.374 . S
C2296 C2293 1.499 . S
C2296 C2297 1.373 1_545 S
C2296 C2298 1.389 . S
C2297 H2276 0.950 . S
C2297 C2296 1.373 1_565 S
C2297 C2313 1.377 . S
C2298 C2296 1.389 . S
C2298 C2299 1.524 . S
C2298 C2312 1.377 . S
C2299 C2298 1.524 . S
C2299 C2300 1.397 . S
C2299 C2304 1.363 . S
C2300 H2277 0.922 1_545 S
C2300 C2299 1.397 . S
C2300 C2301 1.334 . S
C2301 H2278 0.950 . S
C2301 C2300 1.334 . S
C2301 C2302 1.287 . S
C2302 C2301 1.287 . S
C2302 C2303 1.524 . S
C2302 H2321 0.913 . S
C2303 H2279 0.950 . S
C2303 C2302 1.524 . S
C2303 C2304 1.415 . S
C2304 H2280 0.950 . S
C2304 C2299 1.363 . S
C2304 C2303 1.415 . S
C2305 H2281 0.951 . S
C2305 C2306 1.366 1_565 S
C2305 C2307 1.388 . S
C2306 C2305 1.366 1_545 S
C2306 C2310 1.385 . S
C2307 H2282 0.951 . S
C2307 C2305 1.388 . S
C2307 C2308 1.366 1_565 S
C2308 C2307 1.366 1_545 S
C2308 C2309 1.414 . S
C2308 C2311 1.499 . S
C2309 H2283 0.950 . S
C2309 C2308 1.414 . S
C2309 C2310 1.374 . S
C2310 H2284 0.950 . S
C2310 C2306 1.385 . S
C2310 C2309 1.374 . S
C2311 C2308 1.499 . S
C2311 C2312 1.373 . S
C2311 C2313 1.389 1_545 S
C2312 H2285 0.950 . S
C2312 C2298 1.377 . S
C2312 C2311 1.373 . S
C2313 C2297 1.377 . S
C2313 C2311 1.389 1_565 S
C2313 C2314 1.524 . S
C2314 C2313 1.524 . S
C2314 C2315 1.397 . S
C2314 C2319 1.363 . S
C2315 H2286 0.950 1_565 S
C2315 C2314 1.397 . S
C2315 C2316 1.334 . S
C2316 H2287 0.950 . S
C2316 C2315 1.334 . S
C2316 C2317 1.287 . S
C2317 C2316 1.287 . S
C2317 C2318 1.524 . S
C2317 H2320 0.999 . S
C2318 H2288 0.950 . S
C2318 C2317 1.524 . S
C2318 C2319 1.415 . S
C2319 H2289 0.950 . S
C2319 C2314 1.363 . S
C2319 C2318 1.415 . S
H2320 C2317 0.999 . S
H2321 C2302 0.913 . S
H2322 C2340 0.951 . S
H2323 C2342 0.951 . S
H2324 C2344 0.950 . S
H2325 C2345 0.950 . S
H2326 C2347 0.950 . S
H2327 C2350 0.950 . S
H2328 C2351 0.950 . S
H2329 C2353 0.950 . S
H2330 C2354 0.950 . S
H2331 C2355 0.951 . S
H2332 C2357 0.951 . S
H2333 C2359 0.950 . S
H2334 C2360 0.950 . S
H2335 C2362 0.950 . S
H2336 C2365 0.950 . S
H2337 C2366 0.950 . S
H2338 C2368 0.950 . S
H2339 C2369 0.950 . S
C2340 H2322 0.951 . S
C2340 C2341 1.366 . S
C2340 C2342 1.388 . S
C2341 C2340 1.366 . S
C2341 C2345 1.385 . S
C2342 H2323 0.951 . S
C2342 C2340 1.388 . S
C2342 C2343 1.366 . S
C2343 C2342 1.366 . S
C2343 C2344 1.414 . S
C2343 C2346 1.499 . S
C2344 H2324 0.950 . S
C2344 C2343 1.414 . S
C2344 C2345 1.374 . S
C2345 H2325 0.950 . S
C2345 C2341 1.385 . S
C2345 C2344 1.374 . S
C2346 C2343 1.499 . S
C2346 C2347 1.373 . S
C2346 C2348 1.389 . S
C2347 H2326 0.950 . S
C2347 C2346 1.373 . S
C2347 C2363 1.377 . S
C2348 C2346 1.389 . S
C2348 C2349 1.524 . S
C2348 C2362 1.377 . S
C2349 C2348 1.524 . S
C2349 C2350 1.397 . S
C2349 C2354 1.363 . S
C2350 H2327 0.950 . S
C2350 C2349 1.397 . S
C2350 C2351 1.334 . S
C2351 H2328 0.950 . S
C2351 C2350 1.334 . S
C2351 C2352 1.287 . S
C2352 C2351 1.287 . S
C2352 C2353 1.524 . S
C2352 H2371 0.913 . S
C2353 H2329 0.950 . S
C2353 C2352 1.524 . S
C2353 C2354 1.415 . S
C2354 H2330 0.950 . S
C2354 C2349 1.363 . S
C2354 C2353 1.415 . S
C2355 H2331 0.951 . S
C2355 C2356 1.366 . S
C2355 C2357 1.388 . S
C2356 C2355 1.366 . S
C2356 C2360 1.385 . S
C2357 H2332 0.951 . S
C2357 C2355 1.388 . S
C2357 C2358 1.366 . S
C2358 C2357 1.366 . S
C2358 C2359 1.414 . S
C2358 C2361 1.499 . S
C2359 H2333 0.950 . S
C2359 C2358 1.414 . S
C2359 C2360 1.374 . S
C2360 H2334 0.950 . S
C2360 C2356 1.385 . S
C2360 C2359 1.374 . S
C2361 C2358 1.499 . S
C2361 C2362 1.373 . S
C2361 C2363 1.389 . S
C2362 H2335 0.950 . S
C2362 C2348 1.377 . S
C2362 C2361 1.373 . S
C2363 C2347 1.377 . S
C2363 C2361 1.389 . S
C2363 C2364 1.524 . S
C2364 C2363 1.524 . S
C2364 C2365 1.397 . S
C2364 C2369 1.363 . S
C2365 H2336 0.950 . S
C2365 C2364 1.397 . S
C2365 C2366 1.334 . S
C2366 H2337 0.950 . S
C2366 C2365 1.334 . S
C2366 C2367 1.287 . S
C2367 C2366 1.287 . S
C2367 C2368 1.524 . S
C2367 H2370 0.999 . S
C2368 H2338 0.950 . S
C2368 C2367 1.524 . S
C2368 C2369 1.415 . S
C2369 H2339 0.950 . S
C2369 C2364 1.363 . S
C2369 C2368 1.415 . S
H2370 C2367 0.999 . S
H2371 C2352 0.913 . S
H2372 C2390 0.951 . S
H2373 C2392 0.951 . S
H2374 C2394 0.950 . S
H2375 C2395 0.950 . S
H2376 C2397 0.950 . S
H2377 C2400 0.950 . S
H2378 C2401 0.950 . S
H2379 C2403 0.950 . S
H2380 C2404 0.950 . S
H2381 C2405 0.951 . S
H2382 C2407 0.951 . S
H2383 C2409 0.952 . S
H2384 C2410 0.944 1_565 S
H2385 C2412 0.950 . S
H2386 C2415 0.950 . S
H2387 C2416 0.950 . S
H2388 C2418 0.946 1_545 S
H2389 C2419 0.950 . S
C2390 H2372 0.951 . S
C2390 C2391 1.366 . S
C2390 C2392 1.388 . S
C2391 C2390 1.366 . S
C2391 C2395 1.385 . S
C2392 H2373 0.951 . S
C2392 C2390 1.388 . S
C2392 C2393 1.366 . S
C2393 C2392 1.366 . S
C2393 C2394 1.414 . S
C2393 C2396 1.499 . S
C2394 H2374 0.950 . S
C2394 C2393 1.414 . S
C2394 C2395 1.374 . S
C2395 H2375 0.950 . S
C2395 C2391 1.385 . S
C2395 C2394 1.374 . S
C2396 C2393 1.499 . S
C2396 C2397 1.373 . S
C2396 C2398 1.389 . S
C2397 H2376 0.950 . S
C2397 C2396 1.373 . S
C2397 C2413 1.377 . S
C2398 C2396 1.389 . S
C2398 C2399 1.524 . S
C2398 C2412 1.377 . S
C2399 C2398 1.524 . S
C2399 C2400 1.397 . S
C2399 C2404 1.363 . S
C2400 H2377 0.950 . S
C2400 C2399 1.397 . S
C2400 C2401 1.334 . S
C2401 H2378 0.950 . S
C2401 C2400 1.334 . S
C2401 C2402 1.287 . S
C2402 C2401 1.287 . S
C2402 C2403 1.524 . S
C2402 H2421 0.913 . S
C2403 H2379 0.950 . S
C2403 C2402 1.524 . S
C2403 C2404 1.415 . S
C2404 H2380 0.950 . S
C2404 C2399 1.363 . S
C2404 C2403 1.415 . S
C2405 H2381 0.951 . S
C2405 C2406 1.366 . S
C2405 C2407 1.388 . S
C2406 C2405 1.366 . S
C2406 C2410 1.385 . S
C2407 H2382 0.951 . S
C2407 C2405 1.388 . S
C2407 C2408 1.366 . S
C2408 C2407 1.366 . S
C2408 C2409 1.414 . S
C2408 C2411 1.499 . S
C2409 H2383 0.952 . S
C2409 C2408 1.414 . S
C2409 C2410 1.374 . S
C2410 H2384 0.944 1_545 S
C2410 C2406 1.385 . S
C2410 C2409 1.374 . S
C2411 C2408 1.499 . S
C2411 C2412 1.373 . S
C2411 C2413 1.389 . S
C2412 H2385 0.950 . S
C2412 C2398 1.377 . S
C2412 C2411 1.373 . S
C2413 C2397 1.377 . S
C2413 C2411 1.389 . S
C2413 C2414 1.499 1_545 S
C2414 C2413 1.499 1_565 S
C2414 C2415 1.441 . S
C2414 C2419 1.349 1_565 S
C2415 H2386 0.950 . S
C2415 C2414 1.441 . S
C2415 C2416 1.334 . S
C2416 H2387 0.950 . S
C2416 C2415 1.334 . S
C2416 C2417 1.287 . S
C2417 C2416 1.287 . S
C2417 C2418 1.524 . S
C2417 H2420 0.999 . S
C2418 H2388 0.946 1_565 S
C2418 C2417 1.524 . S
C2418 C2419 1.415 1_565 S
C2419 H2389 0.950 . S
C2419 C2414 1.349 1_545 S
C2419 C2418 1.415 1_545 S
H2420 C2417 0.999 . S
H2421 C2402 0.913 . S
H2422 C2440 0.951 . S
H2423 C2442 0.951 . S
H2424 C2444 0.950 . S
H2425 C2445 0.950 . S
H2426 C2447 0.950 . S
H2427 C2450 0.950 . S
H2428 C2451 0.950 . S
H2429 C2453 0.950 . S
H2430 C2454 0.950 . S
H2431 C2455 0.951 . S
H2432 C2457 0.951 . S
H2433 C2459 0.950 . S
H2434 C2460 0.950 . S
H2435 C2462 0.950 . S
H2436 C2465 0.950 . S
H2437 C2466 0.950 . S
H2438 C2468 0.950 . S
H2439 C2469 0.950 . S
C2440 H2422 0.951 . S
C2440 C2441 1.366 . S
C2440 C2442 1.388 . S
C2441 C2440 1.366 . S
C2441 C2445 1.385 . S
C2442 H2423 0.951 . S
C2442 C2440 1.388 . S
C2442 C2443 1.366 . S
C2443 C2442 1.366 . S
C2443 C2444 1.414 . S
C2443 C2446 1.499 . S
C2444 H2424 0.950 . S
C2444 C2443 1.414 . S
C2444 C2445 1.374 . S
C2445 H2425 0.950 . S
C2445 C2441 1.385 . S
C2445 C2444 1.374 . S
C2446 C2443 1.499 . S
C2446 C2447 1.373 . S
C2446 C2448 1.389 . S
C2447 H2426 0.950 . S
C2447 C2446 1.373 . S
C2447 C2463 1.377 . S
C2448 C2446 1.389 . S
C2448 C2449 1.524 . S
C2448 C2462 1.377 . S
C2449 C2448 1.524 . S
C2449 C2450 1.397 . S
C2449 C2454 1.363 . S
C2450 H2427 0.950 . S
C2450 C2449 1.397 . S
C2450 C2451 1.334 . S
C2451 H2428 0.950 . S
C2451 C2450 1.334 . S
C2451 C2452 1.287 . S
C2452 C2451 1.287 . S
C2452 C2453 1.524 . S
C2452 H2471 0.913 . S
C2453 H2429 0.950 . S
C2453 C2452 1.524 . S
C2453 C2454 1.415 . S
C2454 H2430 0.950 . S
C2454 C2449 1.363 . S
C2454 C2453 1.415 . S
C2455 H2431 0.951 . S
C2455 C2456 1.366 . S
C2455 C2457 1.388 . S
C2456 C2455 1.366 . S
C2456 C2460 1.385 . S
C2457 H2432 0.951 . S
C2457 C2455 1.388 . S
C2457 C2458 1.366 . S
C2458 C2457 1.366 . S
C2458 C2459 1.414 . S
C2458 C2461 1.499 . S
C2459 H2433 0.950 . S
C2459 C2458 1.414 . S
C2459 C2460 1.374 . S
C2460 H2434 0.950 . S
C2460 C2456 1.385 . S
C2460 C2459 1.374 . S
C2461 C2458 1.499 . S
C2461 C2462 1.373 . S
C2461 C2463 1.389 . S
C2462 H2435 0.950 . S
C2462 C2448 1.377 . S
C2462 C2461 1.373 . S
C2463 C2447 1.377 . S
C2463 C2461 1.389 . S
C2463 C2464 1.524 . S
C2464 C2463 1.524 . S
C2464 C2465 1.397 . S
C2464 C2469 1.363 . S
C2465 H2436 0.950 . S
C2465 C2464 1.397 . S
C2465 C2466 1.334 . S
C2466 H2437 0.950 . S
C2466 C2465 1.334 . S
C2466 C2467 1.287 . S
C2467 C2466 1.287 . S
C2467 C2468 1.524 . S
C2467 H2470 0.999 . S
C2468 H2438 0.950 . S
C2468 C2467 1.524 . S
C2468 C2469 1.415 . S
C2469 H2439 0.950 . S
C2469 C2464 1.363 . S
C2469 C2468 1.415 . S
H2470 C2467 0.999 . S
H2471 C2452 0.913 . S
H2472 C2490 0.951 . S
H2473 C2492 0.951 . S
H2474 C2494 0.950 . S
H2475 C2495 0.950 . S
H2476 C2497 0.950 . S
H2477 C2500 0.950 . S
H2478 C2501 0.950 . S
H2479 C2503 0.950 . S
H2480 C2504 0.950 . S
H2481 C2505 0.951 . S
H2482 C2507 0.951 . S
H2483 C2509 0.950 . S
H2484 C2510 0.950 . S
H2485 C2512 0.950 . S
H2486 C2515 0.950 . S
H2487 C2516 0.950 . S
H2488 C2518 0.950 . S
H2489 C2519 0.915 1_545 S
C2490 H2472 0.951 . S
C2490 C2491 1.366 1_565 S
C2490 C2492 1.388 . S
C2491 C2490 1.366 1_545 S
C2491 C2495 1.385 . S
C2492 H2473 0.951 . S
C2492 C2490 1.388 . S
C2492 C2493 1.366 1_565 S
C2493 C2492 1.366 1_545 S
C2493 C2494 1.414 . S
C2493 C2496 1.499 . S
C2494 H2474 0.950 . S
C2494 C2493 1.414 . S
C2494 C2495 1.374 . S
C2495 H2475 0.950 . S
C2495 C2491 1.385 . S
C2495 C2494 1.374 . S
C2496 C2493 1.499 . S
C2496 C2497 1.373 1_545 S
C2496 C2498 1.389 . S
C2497 H2476 0.950 . S
C2497 C2496 1.373 1_565 S
C2497 C2513 1.377 . S
C2498 C2496 1.389 . S
C2498 C2499 1.524 . S
C2498 C2512 1.377 . S
C2499 C2498 1.524 . S
C2499 C2500 1.397 . S
C2499 C2504 1.363 . S
C2500 H2477 0.950 . S
C2500 C2499 1.397 . S
C2500 C2501 1.334 . S
C2501 H2478 0.950 . S
C2501 C2500 1.334 . S
C2501 C2502 1.287 . S
C2502 C2501 1.287 . S
C2502 C2503 1.524 . S
C2502 H2521 0.913 . S
C2503 H2479 0.950 . S
C2503 C2502 1.524 . S
C2503 C2504 1.415 . S
C2504 H2480 0.950 . S
C2504 C2499 1.363 . S
C2504 C2503 1.415 . S
C2505 H2481 0.951 . S
C2505 C2506 1.368 1_545 S
C2505 C2507 1.388 . S
C2506 C2505 1.368 1_565 S
C2506 C2510 1.383 . S
C2507 H2482 0.951 . S
C2507 C2505 1.388 . S
C2507 C2508 1.367 . S
C2508 C2507 1.367 . S
C2508 C2509 1.412 1_545 S
C2508 C2511 1.498 . S
C2509 H2483 0.950 . S
C2509 C2508 1.412 1_565 S
C2509 C2510 1.374 . S
C2510 H2484 0.950 . S
C2510 C2506 1.383 . S
C2510 C2509 1.374 . S
C2511 C2508 1.498 . S
C2511 C2512 1.382 . S
C2511 C2513 1.384 1_545 S
C2512 H2485 0.950 . S
C2512 C2498 1.377 . S
C2512 C2511 1.382 . S
C2513 C2497 1.377 . S
C2513 C2511 1.384 1_565 S
C2513 C2514 1.524 . S
C2514 C2513 1.524 . S
C2514 C2515 1.397 . S
C2514 C2519 1.363 . S
C2515 H2486 0.950 . S
C2515 C2514 1.397 . S
C2515 C2516 1.334 . S
C2516 H2487 0.950 . S
C2516 C2515 1.334 . S
C2516 C2517 1.287 . S
C2517 C2516 1.287 . S
C2517 C2518 1.524 . S
C2517 H2520 0.999 . S
C2518 H2488 0.950 . S
C2518 C2517 1.524 . S
C2518 C2519 1.415 . S
C2519 H2489 0.915 1_565 S
C2519 C2514 1.363 . S
C2519 C2518 1.415 . S
H2520 C2517 0.999 . S
H2521 C2502 0.913 . S
H2522 C2540 0.951 . S
H2523 C2542 0.951 . S
H2524 C2544 0.950 . S
H2525 C2545 0.950 . S
H2526 C2547 0.950 . S
H2527 C2550 0.950 . S
H2528 C2551 0.950 . S
H2529 C2553 0.950 . S
H2530 C2554 0.950 . S
H2531 C2555 0.951 . S
H2532 C2557 0.951 . S
H2533 C2559 0.950 . S
H2534 C2560 0.950 . S
H2535 C2562 0.950 . S
H2536 C2565 0.950 . S
H2537 C2566 0.950 . S
H2538 C2568 0.950 . S
H2539 C2569 0.950 . S
C2540 H2522 0.951 . S
C2540 C2541 1.366 . S
C2540 C2542 1.388 . S
C2541 C2540 1.366 . S
C2541 C2545 1.385 . S
C2542 H2523 0.951 . S
C2542 C2540 1.388 . S
C2542 C2543 1.366 . S
C2543 C2542 1.366 . S
C2543 C2544 1.414 . S
C2543 C2546 1.499 . S
C2544 H2524 0.950 . S
C2544 C2543 1.414 . S
C2544 C2545 1.374 . S
C2545 H2525 0.950 . S
C2545 C2541 1.385 . S
C2545 C2544 1.374 . S
C2546 C2543 1.499 . S
C2546 C2547 1.373 . S
C2546 C2548 1.389 . S
C2547 H2526 0.950 . S
C2547 C2546 1.373 . S
C2547 C2563 1.377 . S
C2548 C2546 1.389 . S
C2548 C2549 1.524 . S
C2548 C2562 1.377 . S
C2549 C2548 1.524 . S
C2549 C2550 1.397 . S
C2549 C2554 1.363 . S
C2550 H2527 0.950 . S
C2550 C2549 1.397 . S
C2550 C2551 1.334 . S
C2551 H2528 0.950 . S
C2551 C2550 1.334 . S
C2551 C2552 1.287 . S
C2552 C2551 1.287 . S
C2552 C2553 1.524 . S
C2552 H2571 0.913 . S
C2553 H2529 0.950 . S
C2553 C2552 1.524 . S
C2553 C2554 1.415 . S
C2554 H2530 0.950 . S
C2554 C2549 1.363 . S
C2554 C2553 1.415 . S
C2555 H2531 0.951 . S
C2555 C2556 1.366 . S
C2555 C2557 1.388 . S
C2556 C2555 1.366 . S
C2556 C2560 1.385 . S
C2557 H2532 0.951 . S
C2557 C2555 1.388 . S
C2557 C2558 1.366 . S
C2558 C2557 1.366 . S
C2558 C2559 1.414 . S
C2558 C2561 1.499 . S
C2559 H2533 0.950 . S
C2559 C2558 1.414 . S
C2559 C2560 1.374 . S
C2560 H2534 0.950 . S
C2560 C2556 1.385 . S
C2560 C2559 1.374 . S
C2561 C2558 1.499 . S
C2561 C2562 1.373 . S
C2561 C2563 1.389 . S
C2562 H2535 0.950 . S
C2562 C2548 1.377 . S
C2562 C2561 1.373 . S
C2563 C2547 1.377 . S
C2563 C2561 1.389 . S
C2563 C2564 1.524 . S
C2564 C2563 1.524 . S
C2564 C2565 1.397 . S
C2564 C2569 1.363 . S
C2565 H2536 0.950 . S
C2565 C2564 1.397 . S
C2565 C2566 1.334 . S
C2566 H2537 0.950 . S
C2566 C2565 1.334 . S
C2566 C2567 1.287 . S
C2567 C2566 1.287 . S
C2567 C2568 1.524 . S
C2567 H2570 0.999 . S
C2568 H2538 0.950 . S
C2568 C2567 1.524 . S
C2568 C2569 1.415 . S
C2569 H2539 0.950 . S
C2569 C2564 1.363 . S
C2569 C2568 1.415 . S
H2570 C2567 0.999 . S
H2571 C2552 0.913 . S
H2572 C2590 0.951 . S
H2573 C2592 0.951 . S
H2574 C2594 0.950 . S
H2575 C2595 0.950 . S
H2576 C2597 0.950 1_565 S
H2577 C2600 0.950 . S
H2578 C2601 0.950 . S
H2579 C2603 0.950 . S
H2580 C2604 0.950 . S
H2581 C2605 0.951 . S
H2582 C2607 0.951 . S
H2583 C2609 0.950 . S
H2584 C2610 0.950 . S
H2585 C2612 0.950 . S
H2586 C2615 0.950 . S
H2587 C2616 0.950 . S
H2588 C2618 0.950 . S
H2589 C2619 0.950 . S
C2590 H2572 0.951 . S
C2590 C2591 1.366 . S
C2590 C2592 1.388 . S
C2591 C2590 1.366 . S
C2591 C2595 1.385 . S
C2592 H2573 0.951 . S
C2592 C2590 1.388 . S
C2592 C2593 1.366 . S
C2593 C2592 1.366 . S
C2593 C2594 1.414 . S
C2593 C2596 1.499 . S
C2594 H2574 0.950 . S
C2594 C2593 1.414 . S
C2594 C2595 1.374 . S
C2595 H2575 0.950 . S
C2595 C2591 1.385 . S
C2595 C2594 1.374 . S
C2596 C2593 1.499 . S
C2596 C2597 1.373 . S
C2596 C2598 1.389 . S
C2597 H2576 0.950 1_545 S
C2597 C2596 1.373 . S
C2597 C2613 1.377 . S
C2598 C2596 1.389 . S
C2598 C2599 1.524 . S
C2598 C2612 1.377 . S
C2599 C2598 1.524 . S
C2599 C2600 1.397 . S
C2599 C2604 1.363 . S
C2600 H2577 0.950 . S
C2600 C2599 1.397 . S
C2600 C2601 1.334 . S
C2601 H2578 0.950 . S
C2601 C2600 1.334 . S
C2601 C2602 1.287 . S
C2602 C2601 1.287 . S
C2602 C2603 1.524 . S
C2602 H2621 0.913 . S
C2603 H2579 0.950 . S
C2603 C2602 1.524 . S
C2603 C2604 1.415 . S
C2604 H2580 0.950 . S
C2604 C2599 1.363 . S
C2604 C2603 1.415 . S
C2605 H2581 0.951 . S
C2605 C2606 1.366 . S
C2605 C2607 1.388 . S
C2606 C2605 1.366 . S
C2606 C2610 1.385 . S
C2607 H2582 0.951 . S
C2607 C2605 1.388 . S
C2607 C2608 1.366 . S
C2608 C2607 1.366 . S
C2608 C2609 1.414 . S
C2608 C2611 1.499 . S
C2609 H2583 0.950 . S
C2609 C2608 1.414 . S
C2609 C2610 1.374 . S
C2610 H2584 0.950 . S
C2610 C2606 1.385 . S
C2610 C2609 1.374 . S
C2611 C2608 1.499 . S
C2611 C2612 1.373 . S
C2611 C2613 1.389 . S
C2612 H2585 0.950 . S
C2612 C2598 1.377 . S
C2612 C2611 1.373 . S
C2613 C2597 1.377 . S
C2613 C2611 1.389 . S
C2613 C2614 1.524 1_545 S
C2614 C2613 1.524 1_565 S
C2614 C2615 1.397 . S
C2614 C2619 1.363 . S
C2615 H2586 0.950 . S
C2615 C2614 1.397 . S
C2615 C2616 1.334 . S
C2616 H2587 0.950 . S
C2616 C2615 1.334 . S
C2616 C2617 1.287 . S
C2617 C2616 1.287 . S
C2617 C2618 1.524 . S
C2617 H2620 0.999 . S
C2618 H2588 0.950 . S
C2618 C2617 1.524 . S
C2618 C2619 1.415 . S
C2619 H2589 0.950 . S
C2619 C2614 1.363 . S
C2619 C2618 1.415 . S
H2620 C2617 0.999 . S
H2621 C2602 0.913 . S
H2622 C2640 0.951 . S
H2623 C2642 0.951 . S
H2624 C2644 0.950 . S
H2625 C2645 0.950 . S
H2626 C2647 0.950 . S
H2627 C2650 0.950 . S
H2628 C2651 0.950 . S
H2629 C2653 0.950 . S
H2630 C2654 0.950 . S
H2631 C2655 0.951 . S
H2632 C2657 0.951 . S
H2633 C2659 0.950 . S
H2634 C2660 0.950 . S
H2635 C2662 0.950 . S
H2636 C2665 0.950 . S
H2637 C2666 0.950 . S
H2638 C2668 0.950 . S
H2639 C2669 0.950 . S
C2640 H2622 0.951 . S
C2640 C2641 1.366 . S
C2640 C2642 1.388 . S
C2641 C2640 1.366 . S
C2641 C2645 1.385 . S
C2642 H2623 0.951 . S
C2642 C2640 1.388 . S
C2642 C2643 1.366 . S
C2643 C2642 1.366 . S
C2643 C2644 1.414 . S
C2643 C2646 1.499 . S
C2644 H2624 0.950 . S
C2644 C2643 1.414 . S
C2644 C2645 1.374 . S
C2645 H2625 0.950 . S
C2645 C2641 1.385 . S
C2645 C2644 1.374 . S
C2646 C2643 1.499 . S
C2646 C2647 1.373 . S
C2646 C2648 1.389 . S
C2647 H2626 0.950 . S
C2647 C2646 1.373 . S
C2647 C2663 1.377 . S
C2648 C2646 1.389 . S
C2648 C2649 1.524 . S
C2648 C2662 1.377 . S
C2649 C2648 1.524 . S
C2649 C2650 1.397 . S
C2649 C2654 1.363 . S
C2650 H2627 0.950 . S
C2650 C2649 1.397 . S
C2650 C2651 1.334 . S
C2651 H2628 0.950 . S
C2651 C2650 1.334 . S
C2651 C2652 1.287 . S
C2652 C2651 1.287 . S
C2652 C2653 1.524 . S
C2652 H2671 0.913 . S
C2653 H2629 0.950 . S
C2653 C2652 1.524 . S
C2653 C2654 1.415 . S
C2654 H2630 0.950 . S
C2654 C2649 1.363 . S
C2654 C2653 1.415 . S
C2655 H2631 0.951 . S
C2655 C2656 1.366 . S
C2655 C2657 1.388 . S
C2656 C2655 1.366 . S
C2656 C2660 1.385 . S
C2657 H2632 0.951 . S
C2657 C2655 1.388 . S
C2657 C2658 1.366 . S
C2658 C2657 1.366 . S
C2658 C2659 1.414 . S
C2658 C2661 1.499 . S
C2659 H2633 0.950 . S
C2659 C2658 1.414 . S
C2659 C2660 1.374 . S
C2660 H2634 0.950 . S
C2660 C2656 1.385 . S
C2660 C2659 1.374 . S
C2661 C2658 1.499 . S
C2661 C2662 1.373 . S
C2661 C2663 1.389 . S
C2662 H2635 0.950 . S
C2662 C2648 1.377 . S
C2662 C2661 1.373 . S
C2663 C2647 1.377 . S
C2663 C2661 1.389 . S
C2663 C2664 1.524 . S
C2664 C2663 1.524 . S
C2664 C2665 1.397 . S
C2664 C2669 1.363 . S
C2665 H2636 0.950 . S
C2665 C2664 1.397 . S
C2665 C2666 1.334 . S
C2666 H2637 0.950 . S
C2666 C2665 1.334 . S
C2666 C2667 1.287 . S
C2667 C2666 1.287 . S
C2667 C2668 1.524 . S
C2667 H2670 0.999 . S
C2668 H2638 0.950 . S
C2668 C2667 1.524 . S
C2668 C2669 1.415 . S
C2669 H2639 0.950 . S
C2669 C2664 1.363 . S
C2669 C2668 1.415 . S
H2670 C2667 0.999 . S
H2671 C2652 0.913 . S
H2672 C2690 0.951 . S
H2673 C2692 0.951 . S
H2674 C2694 0.950 . S
H2675 C2695 0.950 . S
H2676 C2697 0.950 . S
H2677 C2700 0.950 . S
H2678 C2701 0.950 . S
H2679 C2703 0.950 . S
H2680 C2704 0.950 . S
H2681 C2705 0.906 1_545 S
H2682 C2707 0.951 . S
H2683 C2709 0.950 . S
H2684 C2710 0.950 . S
H2685 C2712 0.950 . S
H2686 C2715 0.950 . S
H2687 C2716 0.950 . S
H2688 C2718 0.950 . S
H2689 C2719 0.950 . S
C2690 H2672 0.951 . S
C2690 C2691 1.366 . S
C2690 C2692 1.388 . S
C2691 C2690 1.366 . S
C2691 C2695 1.385 . S
C2692 H2673 0.951 . S
C2692 C2690 1.388 . S
C2692 C2693 1.366 . S
C2693 C2692 1.366 . S
C2693 C2694 1.414 . S
C2693 C2696 1.499 . S
C2694 H2674 0.950 . S
C2694 C2693 1.414 . S
C2694 C2695 1.374 . S
C2695 H2675 0.950 . S
C2695 C2691 1.385 . S
C2695 C2694 1.374 . S
C2696 C2693 1.499 . S
C2696 C2697 1.373 1_554 S
C2696 C2698 1.389 . S
C2697 H2676 0.950 . S
C2697 C2696 1.373 1_556 S
C2697 C2713 1.378 . S
C2698 C2696 1.389 . S
C2698 C2699 1.524 . S
C2698 C2712 1.377 . S
C2699 C2698 1.524 . S
C2699 C2700 1.397 . S
C2699 C2704 1.363 . S
C2700 H2677 0.950 . S
C2700 C2699 1.397 . S
C2700 C2701 1.334 . S
C2701 H2678 0.950 . S
C2701 C2700 1.334 . S
C2701 C2702 1.287 . S
C2702 C2701 1.287 . S
C2702 C2703 1.524 . S
C2702 H2721 0.913 . S
C2703 H2679 0.950 . S
C2703 C2702 1.524 . S
C2703 C2704 1.415 . S
C2704 H2680 0.950 . S
C2704 C2699 1.363 . S
C2704 C2703 1.415 . S
C2705 H2681 0.906 1_565 S
C2705 C2706 1.366 . S
C2705 C2707 1.388 . S
C2706 C2705 1.366 . S
C2706 C2710 1.385 . S
C2707 H2682 0.951 . S
C2707 C2705 1.388 . S
C2707 C2708 1.366 . S
C2708 C2707 1.366 . S
C2708 C2709 1.414 . S
C2708 C2711 1.499 . S
C2709 H2683 0.950 . S
C2709 C2708 1.414 . S
C2709 C2710 1.374 . S
C2710 H2684 0.950 . S
C2710 C2706 1.385 . S
C2710 C2709 1.374 . S
C2711 C2708 1.499 . S
C2711 C2712 1.373 . S
C2711 C2713 1.355 1_554 S
C2712 H2685 0.950 . S
C2712 C2698 1.377 . S
C2712 C2711 1.373 . S
C2713 C2697 1.378 . S
C2713 C2711 1.355 1_556 S
C2713 C2714 1.562 . S
C2714 C2713 1.562 . S
C2714 C2715 1.397 . S
C2714 C2719 1.363 . S
C2715 H2686 0.950 . S
C2715 C2714 1.397 . S
C2715 C2716 1.334 . S
C2716 H2687 0.950 . S
C2716 C2715 1.334 . S
C2716 C2717 1.287 . S
C2717 C2716 1.287 . S
C2717 C2718 1.524 . S
C2717 H2720 0.999 . S
C2718 H2688 0.950 . S
C2718 C2717 1.524 . S
C2718 C2719 1.415 . S
C2719 H2689 0.950 . S
C2719 C2714 1.363 . S
C2719 C2718 1.415 . S
H2720 C2717 0.999 . S
H2721 C2702 0.913 . S
H2722 C2740 0.951 . S
H2723 C2742 0.951 . S
H2724 C2744 0.946 1_556 S
H2725 C2745 0.948 . S
H2726 C2747 0.950 . S
H2727 C2750 0.950 . S
H2728 C2751 0.950 . S
H2729 C2753 0.950 . S
H2730 C2754 0.950 . S
H2731 C2755 0.951 1_556 S
H2732 C2757 0.922 1_556 S
H2733 C2759 0.950 . S
H2734 C2760 0.950 . S
H2735 C2762 0.950 . S
H2736 C2765 0.950 . S
H2737 C2766 0.950 . S
H2738 C2768 0.950 . S
H2739 C2769 0.950 . S
C2740 H2722 0.951 . S
C2740 C2741 1.366 . S
C2740 C2742 1.388 . S
C2741 C2740 1.366 . S
C2741 C2745 1.386 1_554 S
C2742 H2723 0.951 . S
C2742 C2740 1.388 . S
C2742 C2743 1.366 . S
C2743 C2742 1.366 . S
C2743 C2744 1.418 . S
C2743 C2746 1.499 . S
C2744 H2724 0.946 1_554 S
C2744 C2743 1.418 . S
C2744 C2745 1.374 1_554 S
C2745 H2725 0.948 . S
C2745 C2741 1.386 1_556 S
C2745 C2744 1.374 1_556 S
C2746 C2743 1.499 . S
C2746 C2747 1.373 1_554 S
C2746 C2748 1.389 . S
C2747 H2726 0.950 . S
C2747 C2746 1.373 1_556 S
C2747 C2763 1.377 . S
C2748 C2746 1.389 . S
C2748 C2749 1.524 . S
C2748 C2762 1.377 . S
C2749 C2748 1.524 . S
C2749 C2750 1.397 . S
C2749 C2754 1.363 . S
C2750 H2727 0.950 . S
C2750 C2749 1.397 . S
C2750 C2751 1.334 . S
C2751 H2728 0.950 . S
C2751 C2750 1.334 . S
C2751 C2752 1.287 . S
C2752 C2751 1.287 . S
C2752 C2753 1.524 . S
C2752 H2771 0.913 . S
C2753 H2729 0.950 . S
C2753 C2752 1.524 . S
C2753 C2754 1.415 . S
C2754 H2730 0.950 . S
C2754 C2749 1.363 . S
C2754 C2753 1.415 . S
C2755 H2731 0.951 1_554 S
C2755 C2756 1.366 . S
C2755 C2757 1.390 . S
C2756 C2755 1.366 . S
C2756 C2760 1.385 . S
C2757 H2732 0.922 1_554 S
C2757 C2755 1.390 . S
C2757 C2758 1.393 . S
C2758 C2757 1.393 . S
C2758 C2759 1.414 . S
C2758 C2761 1.499 . S
C2759 H2733 0.950 . S
C2759 C2758 1.414 . S
C2759 C2760 1.374 . S
C2760 H2734 0.950 . S
C2760 C2756 1.385 . S
C2760 C2759 1.374 . S
C2761 C2758 1.499 . S
C2761 C2762 1.373 . S
C2761 C2763 1.389 1_554 S
C2762 H2735 0.950 . S
C2762 C2748 1.377 . S
C2762 C2761 1.373 . S
C2763 C2747 1.377 . S
C2763 C2761 1.389 1_556 S
C2763 C2764 1.524 . S
C2764 C2763 1.524 . S
C2764 C2765 1.397 . S
C2764 C2769 1.363 . S
C2765 H2736 0.950 . S
C2765 C2764 1.397 . S
C2765 C2766 1.334 . S
C2766 H2737 0.950 . S
C2766 C2765 1.334 . S
C2766 C2767 1.287 . S
C2767 C2766 1.287 . S
C2767 C2768 1.524 . S
C2767 H2770 0.999 . S
C2768 H2738 0.950 . S
C2768 C2767 1.524 . S
C2768 C2769 1.415 . S
C2769 H2739 0.950 . S
C2769 C2764 1.363 . S
C2769 C2768 1.415 . S
H2770 C2767 0.999 . S
H2771 C2752 0.913 . S
H2772 C2790 0.951 . S
H2773 C2792 0.951 . S
H2774 C2794 0.950 . S
H2775 C2795 0.950 . S
H2776 C2797 0.950 . S
H2777 C2800 0.950 . S
H2778 C2801 0.950 . S
H2779 C2803 0.950 . S
H2780 C2804 0.950 . S
H2781 C2805 0.951 . S
H2782 C2807 0.951 . S
H2783 C2809 0.950 . S
H2784 C2810 0.950 . S
H2785 C2812 0.950 . S
H2786 C2815 0.950 . S
H2787 C2816 0.950 . S
H2788 C2818 0.950 . S
H2789 C2819 0.950 . S
C2790 H2772 0.951 . S
C2790 C2791 1.366 . S
C2790 C2792 1.388 . S
C2791 C2790 1.366 . S
C2791 C2795 1.385 . S
C2792 H2773 0.951 . S
C2792 C2790 1.388 . S
C2792 C2793 1.366 . S
C2793 C2792 1.366 . S
C2793 C2794 1.414 . S
C2793 C2796 1.499 . S
C2794 H2774 0.950 . S
C2794 C2793 1.414 . S
C2794 C2795 1.374 . S
C2795 H2775 0.950 . S
C2795 C2791 1.385 . S
C2795 C2794 1.374 . S
C2796 C2793 1.499 . S
C2796 C2797 1.373 . S
C2796 C2798 1.389 . S
C2797 H2776 0.950 . S
C2797 C2796 1.373 . S
C2797 C2813 1.377 . S
C2798 C2796 1.389 . S
C2798 C2799 1.524 . S
C2798 C2812 1.377 . S
C2799 C2798 1.524 . S
C2799 C2800 1.397 . S
C2799 C2804 1.363 . S
C2800 H2777 0.950 . S
C2800 C2799 1.397 . S
C2800 C2801 1.334 . S
C2801 H2778 0.950 . S
C2801 C2800 1.334 . S
C2801 C2802 1.287 . S
C2802 C2801 1.287 . S
C2802 C2803 1.524 . S
C2802 H2821 0.913 . S
C2803 H2779 0.950 . S
C2803 C2802 1.524 . S
C2803 C2804 1.415 . S
C2804 H2780 0.950 . S
C2804 C2799 1.363 . S
C2804 C2803 1.415 . S
C2805 H2781 0.951 . S
C2805 C2806 1.366 . S
C2805 C2807 1.388 . S
C2806 C2805 1.366 . S
C2806 C2810 1.385 . S
C2807 H2782 0.951 . S
C2807 C2805 1.388 . S
C2807 C2808 1.366 . S
C2808 C2807 1.366 . S
C2808 C2809 1.414 . S
C2808 C2811 1.499 . S
C2809 H2783 0.950 . S
C2809 C2808 1.414 . S
C2809 C2810 1.374 . S
C2810 H2784 0.950 . S
C2810 C2806 1.385 . S
C2810 C2809 1.374 . S
C2811 C2808 1.499 . S
C2811 C2812 1.373 . S
C2811 C2813 1.389 . S
C2812 H2785 0.950 . S
C2812 C2798 1.377 . S
C2812 C2811 1.373 . S
C2813 C2797 1.377 . S
C2813 C2811 1.389 . S
C2813 C2814 1.524 . S
C2814 C2813 1.524 . S
C2814 C2815 1.397 . S
C2814 C2819 1.363 . S
C2815 H2786 0.950 . S
C2815 C2814 1.397 . S
C2815 C2816 1.334 . S
C2816 H2787 0.950 . S
C2816 C2815 1.334 . S
C2816 C2817 1.287 . S
C2817 C2816 1.287 . S
C2817 C2818 1.524 . S
C2817 H2820 0.999 . S
C2818 H2788 0.950 . S
C2818 C2817 1.524 . S
C2818 C2819 1.415 . S
C2819 H2789 0.950 . S
C2819 C2814 1.363 . S
C2819 C2818 1.415 . S
H2820 C2817 0.999 . S
H2821 C2802 0.913 . S
H2822 C2840 0.951 . S
H2823 C2842 0.951 . S
H2824 C2844 0.950 . S
H2825 C2845 0.950 . S
H2826 C2847 0.950 . S
H2827 C2850 0.950 . S
H2828 C2851 0.950 . S
H2829 C2853 0.950 . S
H2830 C2854 0.950 . S
H2831 C2855 0.951 . S
H2832 C2857 0.951 . S
H2833 C2859 0.950 . S
H2834 C2860 0.950 . S
H2835 C2862 0.950 . S
H2836 C2865 0.950 . S
H2837 C2866 0.950 . S
H2838 C2868 0.950 . S
H2839 C2869 0.950 . S
C2840 H2822 0.951 . S
C2840 C2841 1.366 . S
C2840 C2842 1.388 . S
C2841 C2840 1.366 . S
C2841 C2845 1.385 . S
C2842 H2823 0.951 . S
C2842 C2840 1.388 . S
C2842 C2843 1.366 . S
C2843 C2842 1.366 . S
C2843 C2844 1.414 . S
C2843 C2846 1.499 . S
C2844 H2824 0.950 . S
C2844 C2843 1.414 . S
C2844 C2845 1.374 . S
C2845 H2825 0.950 . S
C2845 C2841 1.385 . S
C2845 C2844 1.374 . S
C2846 C2843 1.499 . S
C2846 C2847 1.373 . S
C2846 C2848 1.389 . S
C2847 H2826 0.950 . S
C2847 C2846 1.373 . S
C2847 C2863 1.377 . S
C2848 C2846 1.389 . S
C2848 C2849 1.524 . S
C2848 C2862 1.377 . S
C2849 C2848 1.524 . S
C2849 C2850 1.397 . S
C2849 C2854 1.363 . S
C2850 H2827 0.950 . S
C2850 C2849 1.397 . S
C2850 C2851 1.334 . S
C2851 H2828 0.950 . S
C2851 C2850 1.334 . S
C2851 C2852 1.287 . S
C2852 C2851 1.287 . S
C2852 C2853 1.524 . S
C2852 H2871 0.913 . S
C2853 H2829 0.950 . S
C2853 C2852 1.524 . S
C2853 C2854 1.415 . S
C2854 H2830 0.950 . S
C2854 C2849 1.363 . S
C2854 C2853 1.415 . S
C2855 H2831 0.951 . S
C2855 C2856 1.366 . S
C2855 C2857 1.388 . S
C2856 C2855 1.366 . S
C2856 C2860 1.385 . S
C2857 H2832 0.951 . S
C2857 C2855 1.388 . S
C2857 C2858 1.366 . S
C2858 C2857 1.366 . S
C2858 C2859 1.414 . S
C2858 C2861 1.499 . S
C2859 H2833 0.950 . S
C2859 C2858 1.414 . S
C2859 C2860 1.374 . S
C2860 H2834 0.950 . S
C2860 C2856 1.385 . S
C2860 C2859 1.374 . S
C2861 C2858 1.499 . S
C2861 C2862 1.373 . S
C2861 C2863 1.389 . S
C2862 H2835 0.950 . S
C2862 C2848 1.377 . S
C2862 C2861 1.373 . S
C2863 C2847 1.377 . S
C2863 C2861 1.389 . S
C2863 C2864 1.524 . S
C2864 C2863 1.524 . S
C2864 C2865 1.397 . S
C2864 C2869 1.363 . S
C2865 H2836 0.950 . S
C2865 C2864 1.397 . S
C2865 C2866 1.334 . S
C2866 H2837 0.950 . S
C2866 C2865 1.334 . S
C2866 C2867 1.287 . S
C2867 C2866 1.287 . S
C2867 C2868 1.524 . S
C2867 H2870 0.999 . S
C2868 H2838 0.950 . S
C2868 C2867 1.524 . S
C2868 C2869 1.415 . S
C2869 H2839 0.950 . S
C2869 C2864 1.363 . S
C2869 C2868 1.415 . S
H2870 C2867 0.999 . S
H2871 C2852 0.913 . S
H2872 C2890 0.951 . S
H2873 C2892 0.951 . S
H2874 C2894 0.950 . S
H2875 C2895 0.950 . S
H2876 C2897 0.950 . S
H2877 C2900 0.950 . S
H2878 C2901 0.950 . S
H2879 C2903 0.950 . S
H2880 C2904 0.950 . S
H2881 C2905 0.951 . S
H2882 C2907 0.951 . S
H2883 C2909 0.950 . S
H2884 C2910 0.950 . S
H2885 C2912 0.950 . S
H2886 C2915 0.950 . S
H2887 C2916 0.950 . S
H2888 C2918 0.950 . S
H2889 C2919 0.950 . S
C2890 H2872 0.951 . S
C2890 C2891 1.366 . S
C2890 C2892 1.388 . S
C2891 C2890 1.366 . S
C2891 C2895 1.385 . S
C2892 H2873 0.951 . S
C2892 C2890 1.388 . S
C2892 C2893 1.366 . S
C2893 C2892 1.366 . S
C2893 C2894 1.414 . S
C2893 C2896 1.499 . S
C2894 H2874 0.950 . S
C2894 C2893 1.414 . S
C2894 C2895 1.374 . S
C2895 H2875 0.950 . S
C2895 C2891 1.385 . S
C2895 C2894 1.374 . S
C2896 C2893 1.499 . S
C2896 C2897 1.373 . S
C2896 C2898 1.389 . S
C2897 H2876 0.950 . S
C2897 C2896 1.373 . S
C2897 C2913 1.377 . S
C2898 C2896 1.389 . S
C2898 C2899 1.524 . S
C2898 C2912 1.377 . S
C2899 C2898 1.524 . S
C2899 C2900 1.397 . S
C2899 C2904 1.363 . S
C2900 H2877 0.950 . S
C2900 C2899 1.397 . S
C2900 C2901 1.334 . S
C2901 H2878 0.950 . S
C2901 C2900 1.334 . S
C2901 C2902 1.287 . S
C2902 C2901 1.287 . S
C2902 C2903 1.524 . S
C2902 H2921 0.913 . S
C2903 H2879 0.950 . S
C2903 C2902 1.524 . S
C2903 C2904 1.415 . S
C2904 H2880 0.950 . S
C2904 C2899 1.363 . S
C2904 C2903 1.415 . S
C2905 H2881 0.951 . S
C2905 C2906 1.366 . S
C2905 C2907 1.388 . S
C2906 C2905 1.366 . S
C2906 C2910 1.385 . S
C2907 H2882 0.951 . S
C2907 C2905 1.388 . S
C2907 C2908 1.366 . S
C2908 C2907 1.366 . S
C2908 C2909 1.414 . S
C2908 C2911 1.499 . S
C2909 H2883 0.950 . S
C2909 C2908 1.414 . S
C2909 C2910 1.374 . S
C2910 H2884 0.950 . S
C2910 C2906 1.385 . S
C2910 C2909 1.374 . S
C2911 C2908 1.499 . S
C2911 C2912 1.373 . S
C2911 C2913 1.389 . S
C2912 H2885 0.950 . S
C2912 C2898 1.377 . S
C2912 C2911 1.373 . S
C2913 C2897 1.377 . S
C2913 C2911 1.389 . S
C2913 C2914 1.524 . S
C2914 C2913 1.524 . S
C2914 C2915 1.397 . S
C2914 C2919 1.363 . S
C2915 H2886 0.950 . S
C2915 C2914 1.397 . S
C2915 C2916 1.334 . S
C2916 H2887 0.950 . S
C2916 C2915 1.334 . S
C2916 C2917 1.287 . S
C2917 C2916 1.287 . S
C2917 C2918 1.524 . S
C2917 H2920 0.999 . S
C2918 H2888 0.950 . S
C2918 C2917 1.524 . S
C2918 C2919 1.415 . S
C2919 H2889 0.950 . S
C2919 C2914 1.363 . S
C2919 C2918 1.415 . S
H2920 C2917 0.999 . S
H2921 C2902 0.913 . S
H2922 C2940 0.951 . S
H2923 C2942 0.951 . S
H2924 C2944 0.950 . S
H2925 C2945 0.950 . S
H2926 C2947 0.950 . S
H2927 C2950 0.950 . S
H2928 C2951 0.950 . S
H2929 C2953 0.950 . S
H2930 C2954 0.950 . S
H2931 C2955 0.951 . S
H2932 C2957 0.951 . S
H2933 C2959 0.950 . S
H2934 C2960 0.950 . S
H2935 C2962 0.950 . S
H2936 C2965 0.950 . S
H2937 C2966 0.950 . S
H2938 C2968 0.950 . S
H2939 C2969 0.950 . S
C2940 H2922 0.951 . S
C2940 C2941 1.366 . S
C2940 C2942 1.388 . S
C2941 C2940 1.366 . S
C2941 C2945 1.385 . S
C2942 H2923 0.951 . S
C2942 C2940 1.388 . S
C2942 C2943 1.366 . S
C2943 C2942 1.366 . S
C2943 C2944 1.414 . S
C2943 C2946 1.499 . S
C2944 H2924 0.950 . S
C2944 C2943 1.414 . S
C2944 C2945 1.374 . S
C2945 H2925 0.950 . S
C2945 C2941 1.385 . S
C2945 C2944 1.374 . S
C2946 C2943 1.499 . S
C2946 C2947 1.373 . S
C2946 C2948 1.389 . S
C2947 H2926 0.950 . S
C2947 C2946 1.373 . S
C2947 C2963 1.377 . S
C2948 C2946 1.389 . S
C2948 C2949 1.524 . S
C2948 C2962 1.377 . S
C2949 C2948 1.524 . S
C2949 C2950 1.397 . S
C2949 C2954 1.363 . S
C2950 H2927 0.950 . S
C2950 C2949 1.397 . S
C2950 C2951 1.334 . S
C2951 H2928 0.950 . S
C2951 C2950 1.334 . S
C2951 C2952 1.287 . S
C2952 C2951 1.287 . S
C2952 C2953 1.524 . S
C2952 H2971 0.913 . S
C2953 H2929 0.950 . S
C2953 C2952 1.524 . S
C2953 C2954 1.415 . S
C2954 H2930 0.950 . S
C2954 C2949 1.363 . S
C2954 C2953 1.415 . S
C2955 H2931 0.951 . S
C2955 C2956 1.366 . S
C2955 C2957 1.388 . S
C2956 C2955 1.366 . S
C2956 C2960 1.385 . S
C2957 H2932 0.951 . S
C2957 C2955 1.388 . S
C2957 C2958 1.366 . S
C2958 C2957 1.366 . S
C2958 C2959 1.414 . S
C2958 C2961 1.499 . S
C2959 H2933 0.950 . S
C2959 C2958 1.414 . S
C2959 C2960 1.374 . S
C2960 H2934 0.950 . S
C2960 C2956 1.385 . S
C2960 C2959 1.374 . S
C2961 C2958 1.499 . S
C2961 C2962 1.373 . S
C2961 C2963 1.389 . S
C2962 H2935 0.950 . S
C2962 C2948 1.377 . S
C2962 C2961 1.373 . S
C2963 C2947 1.377 . S
C2963 C2961 1.389 . S
C2963 C2964 1.524 . S
C2964 C2963 1.524 . S
C2964 C2965 1.397 . S
C2964 C2969 1.363 . S
C2965 H2936 0.950 . S
C2965 C2964 1.397 . S
C2965 C2966 1.334 . S
C2966 H2937 0.950 . S
C2966 C2965 1.334 . S
C2966 C2967 1.287 . S
C2967 C2966 1.287 . S
C2967 C2968 1.524 . S
C2967 H2970 0.999 . S
C2968 H2938 0.950 . S
C2968 C2967 1.524 . S
C2968 C2969 1.415 . S
C2969 H2939 0.950 . S
C2969 C2964 1.363 . S
C2969 C2968 1.415 . S
H2970 C2967 0.999 . S
H2971 C2952 0.913 . S
H2972 C2990 0.951 . S
H2973 C2992 0.951 . S
H2974 C2994 0.950 . S
H2975 C2995 0.950 . S
H2976 C2997 0.950 . S
H2977 C3000 0.950 . S
H2978 C3001 0.950 . S
H2979 C3003 0.950 . S
H2980 C3004 0.950 . S
H2981 C3005 0.951 . S
H2982 C3007 0.951 . S
H2983 C3009 0.950 . S
H2984 C3010 0.950 . S
H2985 C3012 0.950 . S
H2986 C3015 0.950 . S
H2987 C3016 0.950 . S
H2988 C3018 0.950 . S
H2989 C3019 0.950 . S
C2990 H2972 0.951 . S
C2990 C2991 1.366 . S
C2990 C2992 1.388 . S
C2991 C2990 1.366 . S
C2991 C2995 1.385 . S
C2992 H2973 0.951 . S
C2992 C2990 1.388 . S
C2992 C2993 1.366 . S
C2993 C2992 1.366 . S
C2993 C2994 1.414 . S
C2993 C2996 1.499 . S
C2994 H2974 0.950 . S
C2994 C2993 1.414 . S
C2994 C2995 1.374 . S
C2995 H2975 0.950 . S
C2995 C2991 1.385 . S
C2995 C2994 1.374 . S
C2996 C2993 1.499 . S
C2996 C2997 1.373 . S
C2996 C2998 1.389 . S
C2997 H2976 0.950 . S
C2997 C2996 1.373 . S
C2997 C3013 1.377 . S
C2998 C2996 1.389 . S
C2998 C2999 1.524 . S
C2998 C3012 1.377 . S
C2999 C2998 1.524 . S
C2999 C3000 1.397 . S
C2999 C3004 1.363 . S
C3000 H2977 0.950 . S
C3000 C2999 1.397 . S
C3000 C3001 1.334 . S
C3001 H2978 0.950 . S
C3001 C3000 1.334 . S
C3001 C3002 1.287 . S
C3002 C3001 1.287 . S
C3002 C3003 1.524 . S
C3002 H3021 0.913 . S
C3003 H2979 0.950 . S
C3003 C3002 1.524 . S
C3003 C3004 1.415 . S
C3004 H2980 0.950 . S
C3004 C2999 1.363 . S
C3004 C3003 1.415 . S
C3005 H2981 0.951 . S
C3005 C3006 1.366 . S
C3005 C3007 1.388 . S
C3006 C3005 1.366 . S
C3006 C3010 1.385 . S
C3007 H2982 0.951 . S
C3007 C3005 1.388 . S
C3007 C3008 1.366 . S
C3008 C3007 1.366 . S
C3008 C3009 1.414 . S
C3008 C3011 1.499 . S
C3009 H2983 0.950 . S
C3009 C3008 1.414 . S
C3009 C3010 1.374 . S
C3010 H2984 0.950 . S
C3010 C3006 1.385 . S
C3010 C3009 1.374 . S
C3011 C3008 1.499 . S
C3011 C3012 1.373 . S
C3011 C3013 1.389 . S
C3012 H2985 0.950 . S
C3012 C2998 1.377 . S
C3012 C3011 1.373 . S
C3013 C2997 1.377 . S
C3013 C3011 1.389 . S
C3013 C3014 1.524 . S
C3014 C3013 1.524 . S
C3014 C3015 1.397 . S
C3014 C3019 1.363 . S
C3015 H2986 0.950 . S
C3015 C3014 1.397 . S
C3015 C3016 1.334 . S
C3016 H2987 0.950 . S
C3016 C3015 1.334 . S
C3016 C3017 1.287 . S
C3017 C3016 1.287 . S
C3017 C3018 1.524 . S
C3017 H3020 0.999 . S
C3018 H2988 0.950 . S
C3018 C3017 1.524 . S
C3018 C3019 1.415 . S
C3019 H2989 0.950 . S
C3019 C3014 1.363 . S
C3019 C3018 1.415 . S
H3020 C3017 0.999 . S
H3021 C3002 0.913 . S
H3022 C3040 0.951 . S
H3023 C3042 0.951 . S
H3024 C3044 0.950 . S
H3025 C3045 0.950 . S
H3026 C3047 0.950 . S
H3027 C3050 0.950 . S
H3028 C3051 0.950 . S
H3029 C3053 0.950 . S
H3030 C3054 0.950 . S
H3031 C3055 0.951 . S
H3032 C3057 0.951 . S
H3033 C3059 0.950 . S
H3034 C3060 0.950 . S
H3035 C3062 0.950 . S
H3036 C3065 0.950 . S
H3037 C3066 0.950 . S
H3038 C3068 0.950 . S
H3039 C3069 0.950 . S
C3040 H3022 0.951 . S
C3040 C3041 1.366 . S
C3040 C3042 1.388 . S
C3041 C3040 1.366 . S
C3041 C3045 1.385 . S
C3042 H3023 0.951 . S
C3042 C3040 1.388 . S
C3042 C3043 1.366 . S
C3043 C3042 1.366 . S
C3043 C3044 1.414 . S
C3043 C3046 1.499 . S
C3044 H3024 0.950 . S
C3044 C3043 1.414 . S
C3044 C3045 1.374 . S
C3045 H3025 0.950 . S
C3045 C3041 1.385 . S
C3045 C3044 1.374 . S
C3046 C3043 1.499 . S
C3046 C3047 1.373 . S
C3046 C3048 1.389 . S
C3047 H3026 0.950 . S
C3047 C3046 1.373 . S
C3047 C3063 1.377 . S
C3048 C3046 1.389 . S
C3048 C3049 1.524 . S
C3048 C3062 1.377 . S
C3049 C3048 1.524 . S
C3049 C3050 1.397 . S
C3049 C3054 1.363 . S
C3050 H3027 0.950 . S
C3050 C3049 1.397 . S
C3050 C3051 1.334 . S
C3051 H3028 0.950 . S
C3051 C3050 1.334 . S
C3051 C3052 1.287 . S
C3052 C3051 1.287 . S
C3052 C3053 1.524 . S
C3052 H3071 0.913 . S
C3053 H3029 0.950 . S
C3053 C3052 1.524 . S
C3053 C3054 1.415 . S
C3054 H3030 0.950 . S
C3054 C3049 1.363 . S
C3054 C3053 1.415 . S
C3055 H3031 0.951 . S
C3055 C3056 1.366 . S
C3055 C3057 1.388 . S
C3056 C3055 1.366 . S
C3056 C3060 1.385 . S
C3057 H3032 0.951 . S
C3057 C3055 1.388 . S
C3057 C3058 1.366 . S
C3058 C3057 1.366 . S
C3058 C3059 1.414 . S
C3058 C3061 1.499 . S
C3059 H3033 0.950 . S
C3059 C3058 1.414 . S
C3059 C3060 1.374 . S
C3060 H3034 0.950 . S
C3060 C3056 1.385 . S
C3060 C3059 1.374 . S
C3061 C3058 1.499 . S
C3061 C3062 1.373 . S
C3061 C3063 1.389 . S
C3062 H3035 0.950 . S
C3062 C3048 1.377 . S
C3062 C3061 1.373 . S
C3063 C3047 1.377 . S
C3063 C3061 1.389 . S
C3063 C3064 1.524 . S
C3064 C3063 1.524 . S
C3064 C3065 1.397 . S
C3064 C3069 1.363 . S
C3065 H3036 0.950 . S
C3065 C3064 1.397 . S
C3065 C3066 1.334 . S
C3066 H3037 0.950 . S
C3066 C3065 1.334 . S
C3066 C3067 1.287 . S
C3067 C3066 1.287 . S
C3067 C3068 1.524 . S
C3067 H3070 0.999 . S
C3068 H3038 0.950 . S
C3068 C3067 1.524 . S
C3068 C3069 1.415 . S
C3069 H3039 0.950 . S
C3069 C3064 1.363 . S
C3069 C3068 1.415 . S
H3070 C3067 0.999 . S
H3071 C3052 0.913 . S
H3072 C3090 0.951 . S
H3073 C3092 0.951 . S
H3074 C3094 0.950 . S
H3075 C3095 0.950 . S
H3076 C3097 0.950 . S
H3077 C3100 0.950 . S
H3078 C3101 0.950 . S
H3079 C3103 0.950 . S
H3080 C3104 0.950 . S
H3081 C3105 0.951 . S
H3082 C3107 0.951 . S
H3083 C3109 0.950 . S
H3084 C3110 0.950 . S
H3085 C3112 0.950 . S
H3086 C3115 0.950 . S
H3087 C3116 0.950 . S
H3088 C3118 0.950 . S
H3089 C3119 0.950 . S
C3090 H3072 0.951 . S
C3090 C3091 1.366 . S
C3090 C3092 1.388 . S
C3091 C3090 1.366 . S
C3091 C3095 1.385 . S
C3092 H3073 0.951 . S
C3092 C3090 1.388 . S
C3092 C3093 1.366 . S
C3093 C3092 1.366 . S
C3093 C3094 1.414 . S
C3093 C3096 1.499 . S
C3094 H3074 0.950 . S
C3094 C3093 1.414 . S
C3094 C3095 1.374 . S
C3095 H3075 0.950 . S
C3095 C3091 1.385 . S
C3095 C3094 1.374 . S
C3096 C3093 1.499 . S
C3096 C3097 1.373 . S
C3096 C3098 1.389 . S
C3097 H3076 0.950 . S
C3097 C3096 1.373 . S
C3097 C3113 1.377 . S
C3098 C3096 1.389 . S
C3098 C3099 1.524 . S
C3098 C3112 1.377 . S
C3099 C3098 1.524 . S
C3099 C3100 1.397 . S
C3099 C3104 1.363 . S
C3100 H3077 0.950 . S
C3100 C3099 1.397 . S
C3100 C3101 1.334 . S
C3101 H3078 0.950 . S
C3101 C3100 1.334 . S
C3101 C3102 1.287 . S
C3102 C3101 1.287 . S
C3102 C3103 1.524 . S
C3102 H3121 0.913 . S
C3103 H3079 0.950 . S
C3103 C3102 1.524 . S
C3103 C3104 1.415 . S
C3104 H3080 0.950 . S
C3104 C3099 1.363 . S
C3104 C3103 1.415 . S
C3105 H3081 0.951 . S
C3105 C3106 1.366 . S
C3105 C3107 1.388 . S
C3106 C3105 1.366 . S
C3106 C3110 1.385 . S
C3107 H3082 0.951 . S
C3107 C3105 1.388 . S
C3107 C3108 1.366 . S
C3108 C3107 1.366 . S
C3108 C3109 1.414 . S
C3108 C3111 1.499 . S
C3109 H3083 0.950 . S
C3109 C3108 1.414 . S
C3109 C3110 1.374 . S
C3110 H3084 0.950 . S
C3110 C3106 1.385 . S
C3110 C3109 1.374 . S
C3111 C3108 1.499 . S
C3111 C3112 1.373 . S
C3111 C3113 1.389 . S
C3112 H3085 0.950 . S
C3112 C3098 1.377 . S
C3112 C3111 1.373 . S
C3113 C3097 1.377 . S
C3113 C3111 1.389 . S
C3113 C3114 1.524 . S
C3114 C3113 1.524 . S
C3114 C3115 1.397 . S
C3114 C3119 1.363 . S
C3115 H3086 0.950 . S
C3115 C3114 1.397 . S
C3115 C3116 1.334 . S
C3116 H3087 0.950 . S
C3116 C3115 1.334 . S
C3116 C3117 1.287 . S
C3117 C3116 1.287 . S
C3117 C3118 1.524 . S
C3117 H3120 0.999 . S
C3118 H3088 0.950 . S
C3118 C3117 1.524 . S
C3118 C3119 1.415 . S
C3119 H3089 0.950 . S
C3119 C3114 1.363 . S
C3119 C3118 1.415 . S
H3120 C3117 0.999 . S
H3121 C3102 0.913 . S
H3122 C3140 0.951 . S
H3123 C3142 0.951 . S
H3124 C3144 0.950 . S
H3125 C3145 0.950 . S
H3126 C3147 0.950 . S
H3127 C3150 0.950 . S
H3128 C3151 0.950 . S
H3129 C3153 0.950 . S
H3130 C3154 0.950 . S
H3131 C3155 0.951 . S
H3132 C3157 0.951 . S
H3133 C3159 0.950 . S
H3134 C3160 0.950 . S
H3135 C3162 0.950 . S
H3136 C3165 0.950 . S
H3137 C3166 0.950 . S
H3138 C3168 0.950 . S
H3139 C3169 0.950 . S
C3140 H3122 0.951 . S
C3140 C3141 1.366 . S
C3140 C3142 1.388 . S
C3141 C3140 1.366 . S
C3141 C3145 1.385 . S
C3142 H3123 0.951 . S
C3142 C3140 1.388 . S
C3142 C3143 1.366 . S
C3143 C3142 1.366 . S
C3143 C3144 1.414 . S
C3143 C3146 1.499 . S
C3144 H3124 0.950 . S
C3144 C3143 1.414 . S
C3144 C3145 1.374 . S
C3145 H3125 0.950 . S
C3145 C3141 1.385 . S
C3145 C3144 1.374 . S
C3146 C3143 1.499 . S
C3146 C3147 1.373 . S
C3146 C3148 1.389 . S
C3147 H3126 0.950 . S
C3147 C3146 1.373 . S
C3147 C3163 1.377 . S
C3148 C3146 1.389 . S
C3148 C3149 1.524 . S
C3148 C3162 1.377 . S
C3149 C3148 1.524 . S
C3149 C3150 1.397 . S
C3149 C3154 1.363 . S
C3150 H3127 0.950 . S
C3150 C3149 1.397 . S
C3150 C3151 1.334 . S
C3151 H3128 0.950 . S
C3151 C3150 1.334 . S
C3151 C3152 1.287 . S
C3152 C3151 1.287 . S
C3152 C3153 1.524 . S
C3152 H3171 0.913 . S
C3153 H3129 0.950 . S
C3153 C3152 1.524 . S
C3153 C3154 1.415 . S
C3154 H3130 0.950 . S
C3154 C3149 1.363 . S
C3154 C3153 1.415 . S
C3155 H3131 0.951 . S
C3155 C3156 1.366 . S
C3155 C3157 1.388 . S
C3156 C3155 1.366 . S
C3156 C3160 1.385 . S
C3157 H3132 0.951 . S
C3157 C3155 1.388 . S
C3157 C3158 1.366 . S
C3158 C3157 1.366 . S
C3158 C3159 1.414 . S
C3158 C3161 1.499 . S
C3159 H3133 0.950 . S
C3159 C3158 1.414 . S
C3159 C3160 1.374 . S
C3160 H3134 0.950 . S
C3160 C3156 1.385 . S
C3160 C3159 1.374 . S
C3161 C3158 1.499 . S
C3161 C3162 1.373 . S
C3161 C3163 1.389 . S
C3162 H3135 0.950 . S
C3162 C3148 1.377 . S
C3162 C3161 1.373 . S
C3163 C3147 1.377 . S
C3163 C3161 1.389 . S
C3163 C3164 1.524 . S
C3164 C3163 1.524 . S
C3164 C3165 1.397 . S
C3164 C3169 1.363 . S
C3165 H3136 0.950 . S
C3165 C3164 1.397 . S
C3165 C3166 1.334 . S
C3166 H3137 0.950 . S
C3166 C3165 1.334 . S
C3166 C3167 1.287 . S
C3167 C3166 1.287 . S
C3167 C3168 1.524 . S
C3167 H3170 0.999 . S
C3168 H3138 0.950 . S
C3168 C3167 1.524 . S
C3168 C3169 1.415 . S
C3169 H3139 0.950 . S
C3169 C3164 1.363 . S
C3169 C3168 1.415 . S
H3170 C3167 0.999 . S
H3171 C3152 0.913 . S
H3172 C3190 0.935 1_655 S
H3173 C3192 0.932 1_655 S
H3174 C3194 0.950 . S
H3175 C3195 0.950 . S
H3176 C3197 0.950 . S
H3177 C3200 0.950 . S
H3178 C3201 0.950 . S
H3179 C3203 0.950 . S
H3180 C3204 0.950 . S
H3181 C3205 0.951 . S
H3182 C3207 0.951 . S
H3183 C3209 0.950 1_655 S
H3184 C3210 0.950 1_655 S
H3185 C3212 0.950 . S
H3186 C3215 0.950 . S
H3187 C3216 0.950 . S
H3188 C3218 0.950 . S
H3189 C3219 0.950 . S
C3190 H3172 0.935 1_455 S
C3190 C3191 1.366 . S
C3190 C3192 1.388 . S
C3191 C3190 1.366 . S
C3191 C3195 1.385 . S
C3192 H3173 0.932 1_455 S
C3192 C3190 1.388 . S
C3192 C3193 1.366 . S
C3193 C3192 1.366 . S
C3193 C3194 1.414 . S
C3193 C3196 1.499 . S
C3194 H3174 0.950 . S
C3194 C3193 1.414 . S
C3194 C3195 1.374 . S
C3195 H3175 0.950 . S
C3195 C3191 1.385 . S
C3195 C3194 1.374 . S
C3196 C3193 1.499 . S
C3196 C3197 1.373 . S
C3196 C3198 1.389 . S
C3197 H3176 0.950 . S
C3197 C3196 1.373 . S
C3197 C3213 1.377 . S
C3198 C3196 1.389 . S
C3198 C3199 1.524 . S
C3198 C3212 1.377 . S
C3199 C3198 1.524 . S
C3199 C3200 1.397 . S
C3199 C3204 1.363 . S
C3200 H3177 0.950 . S
C3200 C3199 1.397 . S
C3200 C3201 1.334 . S
C3201 H3178 0.950 . S
C3201 C3200 1.334 . S
C3201 C3202 1.287 . S
C3202 C3201 1.287 . S
C3202 C3203 1.524 . S
C3202 H3221 0.913 . S
C3203 H3179 0.950 . S
C3203 C3202 1.524 . S
C3203 C3204 1.415 . S
C3204 H3180 0.950 . S
C3204 C3199 1.363 . S
C3204 C3203 1.415 . S
C3205 H3181 0.951 . S
C3205 C3206 1.366 . S
C3205 C3207 1.388 . S
C3206 C3205 1.366 . S
C3206 C3210 1.385 . S
C3207 H3182 0.951 . S
C3207 C3205 1.388 . S
C3207 C3208 1.366 . S
C3208 C3207 1.366 . S
C3208 C3209 1.414 . S
C3208 C3211 1.499 . S
C3209 H3183 0.950 1_455 S
C3209 C3208 1.414 . S
C3209 C3210 1.374 . S
C3210 H3184 0.950 1_455 S
C3210 C3206 1.385 . S
C3210 C3209 1.374 . S
C3211 C3208 1.499 . S
C3211 C3212 1.373 . S
C3211 C3213 1.389 . S
C3212 H3185 0.950 . S
C3212 C3198 1.377 . S
C3212 C3211 1.373 . S
C3213 C3197 1.377 . S
C3213 C3211 1.389 . S
C3213 C3214 1.524 . S
C3214 C3213 1.524 . S
C3214 C3215 1.397 1_455 S
C3214 C3219 1.363 . S
C3215 H3186 0.950 . S
C3215 C3214 1.397 1_655 S
C3215 C3216 1.334 . S
C3216 H3187 0.950 . S
C3216 C3215 1.334 . S
C3216 C3217 1.287 . S
C3217 C3216 1.287 . S
C3217 C3218 1.524 1_655 S
C3217 H3220 0.999 . S
C3218 H3188 0.950 . S
C3218 C3217 1.524 1_455 S
C3218 C3219 1.415 . S
C3219 H3189 0.950 . S
C3219 C3214 1.363 . S
C3219 C3218 1.415 . S
H3220 C3217 0.999 . S
H3221 C3202 0.913 . S
H3222 C3240 0.951 . S
H3223 C3242 0.951 . S
H3224 C3244 0.950 . S
H3225 C3245 0.950 . S
H3226 C3247 0.950 . S
H3227 C3250 0.950 . S
H3228 C3251 0.950 . S
H3229 C3253 0.950 . S
H3230 C3254 0.950 . S
H3231 C3255 0.951 . S
H3232 C3257 0.951 . S
H3233 C3259 0.950 . S
H3234 C3260 0.950 . S
H3235 C3262 0.950 . S
H3236 C3265 0.950 . S
H3237 C3266 0.950 . S
H3238 C3268 0.950 . S
H3239 C3269 0.950 . S
C3240 H3222 0.951 . S
C3240 C3241 1.366 . S
C3240 C3242 1.388 . S
C3241 C3240 1.366 . S
C3241 C3245 1.385 . S
C3242 H3223 0.951 . S
C3242 C3240 1.388 . S
C3242 C3243 1.366 . S
C3243 C3242 1.366 . S
C3243 C3244 1.414 . S
C3243 C3246 1.499 . S
C3244 H3224 0.950 . S
C3244 C3243 1.414 . S
C3244 C3245 1.374 . S
C3245 H3225 0.950 . S
C3245 C3241 1.385 . S
C3245 C3244 1.374 . S
C3246 C3243 1.499 . S
C3246 C3247 1.373 . S
C3246 C3248 1.389 . S
C3247 H3226 0.950 . S
C3247 C3246 1.373 . S
C3247 C3263 1.377 . S
C3248 C3246 1.389 . S
C3248 C3249 1.524 . S
C3248 C3262 1.377 . S
C3249 C3248 1.524 . S
C3249 C3250 1.397 . S
C3249 C3254 1.363 . S
C3250 H3227 0.950 . S
C3250 C3249 1.397 . S
C3250 C3251 1.334 . S
C3251 H3228 0.950 . S
C3251 C3250 1.334 . S
C3251 C3252 1.287 . S
C3252 C3251 1.287 . S
C3252 C3253 1.524 . S
C3252 H3271 0.913 . S
C3253 H3229 0.950 . S
C3253 C3252 1.524 . S
C3253 C3254 1.415 . S
C3254 H3230 0.950 . S
C3254 C3249 1.363 . S
C3254 C3253 1.415 . S
C3255 H3231 0.951 . S
C3255 C3256 1.366 . S
C3255 C3257 1.388 . S
C3256 C3255 1.366 . S
C3256 C3260 1.385 . S
C3257 H3232 0.951 . S
C3257 C3255 1.388 . S
C3257 C3258 1.366 . S
C3258 C3257 1.366 . S
C3258 C3259 1.414 . S
C3258 C3261 1.499 . S
C3259 H3233 0.950 . S
C3259 C3258 1.414 . S
C3259 C3260 1.374 . S
C3260 H3234 0.950 . S
C3260 C3256 1.385 . S
C3260 C3259 1.374 . S
C3261 C3258 1.499 . S
C3261 C3262 1.373 . S
C3261 C3263 1.389 . S
C3262 H3235 0.950 . S
C3262 C3248 1.377 . S
C3262 C3261 1.373 . S
C3263 C3247 1.377 . S
C3263 C3261 1.389 . S
C3263 C3264 1.524 . S
C3264 C3263 1.524 . S
C3264 C3265 1.397 . S
C3264 C3269 1.363 . S
C3265 H3236 0.950 . S
C3265 C3264 1.397 . S
C3265 C3266 1.334 . S
C3266 H3237 0.950 . S
C3266 C3265 1.334 . S
C3266 C3267 1.287 . S
C3267 C3266 1.287 . S
C3267 C3268 1.524 . S
C3267 H3270 0.999 . S
C3268 H3238 0.950 . S
C3268 C3267 1.524 . S
C3268 C3269 1.415 . S
C3269 H3239 0.950 . S
C3269 C3264 1.363 . S
C3269 C3268 1.415 . S
H3270 C3267 0.999 . S
H3271 C3252 0.913 . S
H3272 C3290 0.951 . S
H3273 C3292 0.951 . S
H3274 C3294 0.950 . S
H3275 C3295 0.950 . S
H3276 C3297 0.950 . S
H3277 C3300 0.950 . S
H3278 C3301 0.950 . S
H3279 C3303 0.950 . S
H3280 C3304 0.950 . S
H3281 C3305 0.951 1_554 S
H3282 C3307 0.951 . S
H3283 C3309 0.950 . S
H3284 C3310 0.950 . S
H3285 C3312 0.950 . S
H3286 C3315 0.950 . S
H3287 C3316 0.950 . S
H3288 C3318 0.950 . S
H3289 C3319 0.950 . S
C3290 H3272 0.951 . S
C3290 C3291 1.366 . S
C3290 C3292 1.388 . S
C3291 C3290 1.366 . S
C3291 C3295 1.385 . S
C3292 H3273 0.951 . S
C3292 C3290 1.388 . S
C3292 C3293 1.366 . S
C3293 C3292 1.366 . S
C3293 C3294 1.414 . S
C3293 C3296 1.499 . S
C3294 H3274 0.950 . S
C3294 C3293 1.414 . S
C3294 C3295 1.374 . S
C3295 H3275 0.950 . S
C3295 C3291 1.385 . S
C3295 C3294 1.374 . S
C3296 C3293 1.499 . S
C3296 C3297 1.373 . S
C3296 C3298 1.389 . S
C3297 H3276 0.950 . S
C3297 C3296 1.373 . S
C3297 C3313 1.377 . S
C3298 C3296 1.389 . S
C3298 C3299 1.524 . S
C3298 C3312 1.377 . S
C3299 C3298 1.524 . S
C3299 C3300 1.397 . S
C3299 C3304 1.363 . S
C3300 H3277 0.950 . S
C3300 C3299 1.397 . S
C3300 C3301 1.334 . S
C3301 H3278 0.950 . S
C3301 C3300 1.334 . S
C3301 C3302 1.287 . S
C3302 C3301 1.287 . S
C3302 C3303 1.524 . S
C3302 H3321 0.913 . S
C3303 H3279 0.950 . S
C3303 C3302 1.524 . S
C3303 C3304 1.415 . S
C3304 H3280 0.950 . S
C3304 C3299 1.363 . S
C3304 C3303 1.415 . S
C3305 H3281 0.951 1_556 S
C3305 C3306 1.366 . S
C3305 C3307 1.388 . S
C3306 C3305 1.366 . S
C3306 C3310 1.385 . S
C3307 H3282 0.951 . S
C3307 C3305 1.388 . S
C3307 C3308 1.366 . S
C3308 C3307 1.366 . S
C3308 C3309 1.414 . S
C3308 C3311 1.499 . S
C3309 H3283 0.950 . S
C3309 C3308 1.414 . S
C3309 C3310 1.374 . S
C3310 H3284 0.950 . S
C3310 C3306 1.385 . S
C3310 C3309 1.374 . S
C3311 C3308 1.499 . S
C3311 C3312 1.373 . S
C3311 C3313 1.389 . S
C3312 H3285 0.950 . S
C3312 C3298 1.377 . S
C3312 C3311 1.373 . S
C3313 C3297 1.377 . S
C3313 C3311 1.389 . S
C3313 C3314 1.524 . S
C3314 C3313 1.524 . S
C3314 C3315 1.397 . S
C3314 C3319 1.363 . S
C3315 H3286 0.950 . S
C3315 C3314 1.397 . S
C3315 C3316 1.334 . S
C3316 H3287 0.950 . S
C3316 C3315 1.334 . S
C3316 C3317 1.287 . S
C3317 C3316 1.287 . S
C3317 C3318 1.524 . S
C3317 H3320 0.999 . S
C3318 H3288 0.950 . S
C3318 C3317 1.524 . S
C3318 C3319 1.415 . S
C3319 H3289 0.950 . S
C3319 C3314 1.363 . S
C3319 C3318 1.415 . S
H3320 C3317 0.999 . S
H3321 C3302 0.913 . S
H3322 C3340 0.951 . S
H3323 C3342 0.951 . S
H3324 C3344 0.950 . S
H3325 C3345 0.950 . S
H3326 C3347 0.950 . S
H3327 C3350 0.950 . S
H3328 C3351 0.950 . S
H3329 C3353 0.950 . S
H3330 C3354 0.950 . S
H3331 C3355 0.951 . S
H3332 C3357 0.951 . S
H3333 C3359 0.950 . S
H3334 C3360 0.950 . S
H3335 C3362 0.950 . S
H3336 C3365 0.950 . S
H3337 C3366 0.950 . S
H3338 C3368 0.950 . S
H3339 C3369 0.950 . S
C3340 H3322 0.951 . S
C3340 C3341 1.366 . S
C3340 C3342 1.388 . S
C3341 C3340 1.366 . S
C3341 C3345 1.385 . S
C3342 H3323 0.951 . S
C3342 C3340 1.388 . S
C3342 C3343 1.366 . S
C3343 C3342 1.366 . S
C3343 C3344 1.414 . S
C3343 C3346 1.499 . S
C3344 H3324 0.950 . S
C3344 C3343 1.414 . S
C3344 C3345 1.374 . S
C3345 H3325 0.950 . S
C3345 C3341 1.385 . S
C3345 C3344 1.374 . S
C3346 C3343 1.499 . S
C3346 C3347 1.373 . S
C3346 C3348 1.389 . S
C3347 H3326 0.950 . S
C3347 C3346 1.373 . S
C3347 C3363 1.377 . S
C3348 C3346 1.389 . S
C3348 C3349 1.524 . S
C3348 C3362 1.377 . S
C3349 C3348 1.524 . S
C3349 C3350 1.397 . S
C3349 C3354 1.363 . S
C3350 H3327 0.950 . S
C3350 C3349 1.397 . S
C3350 C3351 1.334 . S
C3351 H3328 0.950 . S
C3351 C3350 1.334 . S
C3351 C3352 1.287 . S
C3352 C3351 1.287 . S
C3352 C3353 1.524 . S
C3352 H3371 0.913 . S
C3353 H3329 0.950 . S
C3353 C3352 1.524 . S
C3353 C3354 1.415 . S
C3354 H3330 0.950 . S
C3354 C3349 1.363 . S
C3354 C3353 1.415 . S
C3355 H3331 0.951 . S
C3355 C3356 1.366 . S
C3355 C3357 1.388 . S
C3356 C3355 1.366 . S
C3356 C3360 1.385 . S
C3357 H3332 0.951 . S
C3357 C3355 1.388 . S
C3357 C3358 1.366 . S
C3358 C3357 1.366 . S
C3358 C3359 1.414 . S
C3358 C3361 1.499 . S
C3359 H3333 0.950 . S
C3359 C3358 1.414 . S
C3359 C3360 1.374 . S
C3360 H3334 0.950 . S
C3360 C3356 1.385 . S
C3360 C3359 1.374 . S
C3361 C3358 1.499 . S
C3361 C3362 1.373 . S
C3361 C3363 1.389 . S
C3362 H3335 0.950 . S
C3362 C3348 1.377 . S
C3362 C3361 1.373 . S
C3363 C3347 1.377 . S
C3363 C3361 1.389 . S
C3363 C3364 1.524 . S
C3364 C3363 1.524 . S
C3364 C3365 1.397 . S
C3364 C3369 1.363 . S
C3365 H3336 0.950 . S
C3365 C3364 1.397 . S
C3365 C3366 1.334 . S
C3366 H3337 0.950 . S
C3366 C3365 1.334 . S
C3366 C3367 1.287 . S
C3367 C3366 1.287 . S
C3367 C3368 1.524 . S
C3367 H3370 0.999 . S
C3368 H3338 0.950 . S
C3368 C3367 1.524 . S
C3368 C3369 1.415 . S
C3369 H3339 0.950 . S
C3369 C3364 1.363 . S
C3369 C3368 1.415 . S
H3370 C3367 0.999 . S
H3371 C3352 0.913 . S
H3372 C3390 0.956 . S
H3373 C3392 0.951 . S
H3374 C3394 0.950 . S
H3375 C3395 0.950 . S
H3376 C3397 0.950 1_655 S
H3377 C3400 0.950 . S
H3378 C3401 0.950 . S
H3379 C3403 0.950 . S
H3380 C3404 0.950 . S
H3381 C3405 0.951 . S
H3382 C3407 0.951 . S
H3383 C3409 0.950 . S
H3384 C3410 0.950 . S
H3385 C3412 0.950 . S
H3386 C3415 0.950 . S
H3387 C3416 0.950 . S
H3388 C3418 0.950 . S
H3389 C3419 0.950 1_455 S
C3390 H3372 0.956 . S
C3390 C3391 1.366 . S
C3390 C3392 1.388 . S
C3391 C3390 1.366 . S
C3391 C3395 1.385 . S
C3392 H3373 0.951 . S
C3392 C3390 1.388 . S
C3392 C3393 1.366 . S
C3393 C3392 1.366 . S
C3393 C3394 1.414 . S
C3393 C3396 1.499 . S
C3394 H3374 0.950 . S
C3394 C3393 1.414 . S
C3394 C3395 1.374 . S
C3395 H3375 0.950 . S
C3395 C3391 1.385 . S
C3395 C3394 1.374 . S
C3396 C3393 1.499 . S
C3396 C3397 1.373 . S
C3396 C3398 1.389 . S
C3397 H3376 0.950 1_455 S
C3397 C3396 1.373 . S
C3397 C3413 1.377 . S
C3398 C3396 1.389 . S
C3398 C3399 1.524 . S
C3398 C3412 1.377 . S
C3399 C3398 1.524 . S
C3399 C3400 1.397 . S
C3399 C3404 1.363 . S
C3400 H3377 0.950 . S
C3400 C3399 1.397 . S
C3400 C3401 1.334 . S
C3401 H3378 0.950 . S
C3401 C3400 1.334 . S
C3401 C3402 1.287 . S
C3402 C3401 1.287 . S
C3402 C3403 1.524 . S
C3402 H3421 0.913 . S
C3403 H3379 0.950 . S
C3403 C3402 1.524 . S
C3403 C3404 1.415 . S
C3404 H3380 0.950 . S
C3404 C3399 1.363 . S
C3404 C3403 1.415 . S
C3405 H3381 0.951 . S
C3405 C3406 1.366 . S
C3405 C3407 1.388 . S
C3406 C3405 1.366 . S
C3406 C3410 1.385 . S
C3407 H3382 0.951 . S
C3407 C3405 1.388 . S
C3407 C3408 1.366 . S
C3408 C3407 1.366 . S
C3408 C3409 1.414 . S
C3408 C3411 1.499 . S
C3409 H3383 0.950 . S
C3409 C3408 1.414 . S
C3409 C3410 1.374 . S
C3410 H3384 0.950 . S
C3410 C3406 1.385 . S
C3410 C3409 1.374 . S
C3411 C3408 1.499 . S
C3411 C3412 1.373 . S
C3411 C3413 1.389 . S
C3412 H3385 0.950 . S
C3412 C3398 1.377 . S
C3412 C3411 1.373 . S
C3413 C3397 1.377 . S
C3413 C3411 1.389 . S
C3413 C3414 1.524 1_455 S
C3414 C3413 1.524 1_655 S
C3414 C3415 1.397 . S
C3414 C3419 1.363 . S
C3415 H3386 0.950 . S
C3415 C3414 1.397 . S
C3415 C3416 1.334 . S
C3416 H3387 0.950 . S
C3416 C3415 1.334 . S
C3416 C3417 1.287 . S
C3417 C3416 1.287 . S
C3417 C3418 1.524 . S
C3417 H3420 0.999 . S
C3418 H3388 0.950 . S
C3418 C3417 1.524 . S
C3418 C3419 1.415 . S
C3419 H3389 0.950 1_655 S
C3419 C3414 1.363 . S
C3419 C3418 1.415 . S
H3420 C3417 0.999 . S
H3421 C3402 0.913 . S
H3422 C3440 0.951 . S
H3423 C3442 0.951 . S
H3424 C3444 0.950 . S
H3425 C3445 0.950 . S
H3426 C3447 0.950 . S
H3427 C3450 0.950 . S
H3428 C3451 0.950 . S
H3429 C3453 0.950 . S
H3430 C3454 0.950 . S
H3431 C3455 0.951 . S
H3432 C3457 0.951 . S
H3433 C3459 0.950 . S
H3434 C3460 0.950 . S
H3435 C3462 0.950 . S
H3436 C3465 0.950 . S
H3437 C3466 0.950 . S
H3438 C3468 0.950 . S
H3439 C3469 0.950 . S
C3440 H3422 0.951 . S
C3440 C3441 1.366 . S
C3440 C3442 1.388 . S
C3441 C3440 1.366 . S
C3441 C3445 1.385 . S
C3442 H3423 0.951 . S
C3442 C3440 1.388 . S
C3442 C3443 1.366 . S
C3443 C3442 1.366 . S
C3443 C3444 1.414 . S
C3443 C3446 1.499 . S
C3444 H3424 0.950 . S
C3444 C3443 1.414 . S
C3444 C3445 1.374 . S
C3445 H3425 0.950 . S
C3445 C3441 1.385 . S
C3445 C3444 1.374 . S
C3446 C3443 1.499 . S
C3446 C3447 1.373 . S
C3446 C3448 1.389 . S
C3447 H3426 0.950 . S
C3447 C3446 1.373 . S
C3447 C3463 1.377 . S
C3448 C3446 1.389 . S
C3448 C3449 1.524 . S
C3448 C3462 1.377 . S
C3449 C3448 1.524 . S
C3449 C3450 1.397 . S
C3449 C3454 1.363 . S
C3450 H3427 0.950 . S
C3450 C3449 1.397 . S
C3450 C3451 1.334 . S
C3451 H3428 0.950 . S
C3451 C3450 1.334 . S
C3451 C3452 1.287 . S
C3452 C3451 1.287 . S
C3452 C3453 1.524 . S
C3452 H3471 0.913 . S
C3453 H3429 0.950 . S
C3453 C3452 1.524 . S
C3453 C3454 1.415 . S
C3454 H3430 0.950 . S
C3454 C3449 1.363 . S
C3454 C3453 1.415 . S
C3455 H3431 0.951 . S
C3455 C3456 1.366 . S
C3455 C3457 1.388 . S
C3456 C3455 1.366 . S
C3456 C3460 1.385 . S
C3457 H3432 0.951 . S
C3457 C3455 1.388 . S
C3457 C3458 1.366 . S
C3458 C3457 1.366 . S
C3458 C3459 1.414 . S
C3458 C3461 1.499 . S
C3459 H3433 0.950 . S
C3459 C3458 1.414 . S
C3459 C3460 1.374 . S
C3460 H3434 0.950 . S
C3460 C3456 1.385 . S
C3460 C3459 1.374 . S
C3461 C3458 1.499 . S
C3461 C3462 1.373 . S
C3461 C3463 1.389 . S
C3462 H3435 0.950 . S
C3462 C3448 1.377 . S
C3462 C3461 1.373 . S
C3463 C3447 1.377 . S
C3463 C3461 1.389 . S
C3463 C3464 1.524 . S
C3464 C3463 1.524 . S
C3464 C3465 1.397 . S
C3464 C3469 1.363 . S
C3465 H3436 0.950 . S
C3465 C3464 1.397 . S
C3465 C3466 1.334 . S
C3466 H3437 0.950 . S
C3466 C3465 1.334 . S
C3466 C3467 1.287 . S
C3467 C3466 1.287 . S
C3467 C3468 1.524 . S
C3467 H3470 0.999 . S
C3468 H3438 0.950 . S
C3468 C3467 1.524 . S
C3468 C3469 1.415 . S
C3469 H3439 0.950 . S
C3469 C3464 1.363 . S
C3469 C3468 1.415 . S
H3470 C3467 0.999 . S
H3471 C3452 0.913 . S
H3472 C3490 0.951 . S
H3473 C3492 0.951 . S
H3474 C3494 0.950 . S
H3475 C3495 0.950 . S
H3476 C3497 0.950 . S
H3477 C3500 0.950 . S
H3478 C3501 0.950 . S
H3479 C3503 0.950 . S
H3480 C3504 0.950 . S
H3481 C3505 0.951 . S
H3482 C3507 0.951 . S
H3483 C3509 0.950 . S
H3484 C3510 0.950 . S
H3485 C3512 0.950 . S
H3486 C3515 0.950 . S
H3487 C3516 0.950 . S
H3488 C3518 0.950 . S
H3489 C3519 0.950 . S
C3490 H3472 0.951 . S
C3490 C3491 1.366 . S
C3490 C3492 1.388 . S
C3491 C3490 1.366 . S
C3491 C3495 1.385 . S
C3492 H3473 0.951 . S
C3492 C3490 1.388 . S
C3492 C3493 1.366 . S
C3493 C3492 1.366 . S
C3493 C3494 1.414 . S
C3493 C3496 1.499 . S
C3494 H3474 0.950 . S
C3494 C3493 1.414 . S
C3494 C3495 1.374 . S
C3495 H3475 0.950 . S
C3495 C3491 1.385 . S
C3495 C3494 1.374 . S
C3496 C3493 1.499 . S
C3496 C3497 1.373 . S
C3496 C3498 1.389 . S
C3497 H3476 0.950 . S
C3497 C3496 1.373 . S
C3497 C3513 1.377 . S
C3498 C3496 1.389 . S
C3498 C3499 1.524 . S
C3498 C3512 1.377 . S
C3499 C3498 1.524 . S
C3499 C3500 1.397 . S
C3499 C3504 1.363 . S
C3500 H3477 0.950 . S
C3500 C3499 1.397 . S
C3500 C3501 1.334 . S
C3501 H3478 0.950 . S
C3501 C3500 1.334 . S
C3501 C3502 1.287 . S
C3502 C3501 1.287 . S
C3502 C3503 1.524 . S
C3502 H3521 0.913 . S
C3503 H3479 0.950 . S
C3503 C3502 1.524 . S
C3503 C3504 1.415 . S
C3504 H3480 0.950 . S
C3504 C3499 1.363 . S
C3504 C3503 1.415 . S
C3505 H3481 0.951 . S
C3505 C3506 1.366 . S
C3505 C3507 1.388 . S
C3506 C3505 1.366 . S
C3506 C3510 1.385 . S
C3507 H3482 0.951 . S
C3507 C3505 1.388 . S
C3507 C3508 1.366 . S
C3508 C3507 1.366 . S
C3508 C3509 1.414 . S
C3508 C3511 1.499 . S
C3509 H3483 0.950 . S
C3509 C3508 1.414 . S
C3509 C3510 1.374 . S
C3510 H3484 0.950 . S
C3510 C3506 1.385 . S
C3510 C3509 1.374 . S
C3511 C3508 1.499 . S
C3511 C3512 1.373 . S
C3511 C3513 1.389 . S
C3512 H3485 0.950 . S
C3512 C3498 1.377 . S
C3512 C3511 1.373 . S
C3513 C3497 1.377 . S
C3513 C3511 1.389 . S
C3513 C3514 1.524 . S
C3514 C3513 1.524 . S
C3514 C3515 1.397 . S
C3514 C3519 1.363 . S
C3515 H3486 0.950 . S
C3515 C3514 1.397 . S
C3515 C3516 1.334 . S
C3516 H3487 0.950 . S
C3516 C3515 1.334 . S
C3516 C3517 1.287 . S
C3517 C3516 1.287 . S
C3517 C3518 1.524 . S
C3517 H3520 0.999 . S
C3518 H3488 0.950 . S
C3518 C3517 1.524 . S
C3518 C3519 1.415 . S
C3519 H3489 0.950 . S
C3519 C3514 1.363 . S
C3519 C3518 1.415 . S
H3520 C3517 0.999 . S
H3521 C3502 0.913 . S
H3522 C3540 0.951 . S
H3523 C3542 0.951 . S
H3524 C3544 0.950 . S
H3525 C3545 0.950 . S
H3526 C3547 0.950 . S
H3527 C3550 0.950 . S
H3528 C3551 0.950 . S
H3529 C3553 0.950 . S
H3530 C3554 0.950 . S
H3531 C3555 0.951 . S
H3532 C3557 0.951 . S
H3533 C3559 0.950 . S
H3534 C3560 0.950 . S
H3535 C3562 0.950 . S
H3536 C3565 0.950 . S
H3537 C3566 0.950 . S
H3538 C3568 0.950 . S
H3539 C3569 0.950 . S
C3540 H3522 0.951 . S
C3540 C3541 1.366 . S
C3540 C3542 1.388 . S
C3541 C3540 1.366 . S
C3541 C3545 1.385 . S
C3542 H3523 0.951 . S
C3542 C3540 1.388 . S
C3542 C3543 1.366 . S
C3543 C3542 1.366 . S
C3543 C3544 1.414 . S
C3543 C3546 1.499 . S
C3544 H3524 0.950 . S
C3544 C3543 1.414 . S
C3544 C3545 1.374 . S
C3545 H3525 0.950 . S
C3545 C3541 1.385 . S
C3545 C3544 1.374 . S
C3546 C3543 1.499 . S
C3546 C3547 1.373 . S
C3546 C3548 1.389 . S
C3547 H3526 0.950 . S
C3547 C3546 1.373 . S
C3547 C3563 1.377 . S
C3548 C3546 1.389 . S
C3548 C3549 1.524 . S
C3548 C3562 1.377 . S
C3549 C3548 1.524 . S
C3549 C3550 1.397 . S
C3549 C3554 1.363 . S
C3550 H3527 0.950 . S
C3550 C3549 1.397 . S
C3550 C3551 1.334 . S
C3551 H3528 0.950 . S
C3551 C3550 1.334 . S
C3551 C3552 1.287 . S
C3552 C3551 1.287 . S
C3552 C3553 1.524 . S
C3552 H3571 0.913 . S
C3553 H3529 0.950 . S
C3553 C3552 1.524 . S
C3553 C3554 1.415 . S
C3554 H3530 0.950 . S
C3554 C3549 1.363 . S
C3554 C3553 1.415 . S
C3555 H3531 0.951 . S
C3555 C3556 1.366 . S
C3555 C3557 1.388 . S
C3556 C3555 1.366 . S
C3556 C3560 1.385 . S
C3557 H3532 0.951 . S
C3557 C3555 1.388 . S
C3557 C3558 1.366 . S
C3558 C3557 1.366 . S
C3558 C3559 1.414 . S
C3558 C3561 1.499 . S
C3559 H3533 0.950 . S
C3559 C3558 1.414 . S
C3559 C3560 1.374 . S
C3560 H3534 0.950 . S
C3560 C3556 1.385 . S
C3560 C3559 1.374 . S
C3561 C3558 1.499 . S
C3561 C3562 1.373 . S
C3561 C3563 1.389 . S
C3562 H3535 0.950 . S
C3562 C3548 1.377 . S
C3562 C3561 1.373 . S
C3563 C3547 1.377 . S
C3563 C3561 1.389 . S
C3563 C3564 1.524 . S
C3564 C3563 1.524 . S
C3564 C3565 1.397 . S
C3564 C3569 1.363 . S
C3565 H3536 0.950 . S
C3565 C3564 1.397 . S
C3565 C3566 1.334 . S
C3566 H3537 0.950 . S
C3566 C3565 1.334 . S
C3566 C3567 1.287 . S
C3567 C3566 1.287 . S
C3567 C3568 1.524 . S
C3567 H3570 0.999 . S
C3568 H3538 0.950 . S
C3568 C3567 1.524 . S
C3568 C3569 1.415 . S
C3569 H3539 0.950 . S
C3569 C3564 1.363 . S
C3569 C3568 1.415 . S
H3570 C3567 0.999 . S
H3571 C3552 0.913 . S
H3572 C3590 0.951 . S
H3573 C3592 0.951 . S
H3574 C3594 0.950 . S
H3575 C3595 0.950 . S
H3576 C3597 0.950 . S
H3577 C3600 0.950 . S
H3578 C3601 0.950 . S
H3579 C3603 0.950 . S
H3580 C3604 0.950 . S
H3581 C3605 0.951 . S
H3582 C3607 0.951 . S
H3583 C3609 0.950 . S
H3584 C3610 0.950 . S
H3585 C3612 0.950 . S
H3586 C3615 0.950 . S
H3587 C3616 0.950 . S
H3588 C3618 0.950 . S
H3589 C3619 0.950 . S
C3590 H3572 0.951 . S
C3590 C3591 1.366 . S
C3590 C3592 1.388 . S
C3591 C3590 1.366 . S
C3591 C3595 1.385 . S
C3592 H3573 0.951 . S
C3592 C3590 1.388 . S
C3592 C3593 1.366 . S
C3593 C3592 1.366 . S
C3593 C3594 1.414 . S
C3593 C3596 1.499 . S
C3594 H3574 0.950 . S
C3594 C3593 1.414 . S
C3594 C3595 1.374 . S
C3595 H3575 0.950 . S
C3595 C3591 1.385 . S
C3595 C3594 1.374 . S
C3596 C3593 1.499 . S
C3596 C3597 1.373 . S
C3596 C3598 1.389 . S
C3597 H3576 0.950 . S
C3597 C3596 1.373 . S
C3597 C3613 1.377 . S
C3598 C3596 1.389 . S
C3598 C3599 1.524 . S
C3598 C3612 1.377 . S
C3599 C3598 1.524 . S
C3599 C3600 1.397 . S
C3599 C3604 1.363 . S
C3600 H3577 0.950 . S
C3600 C3599 1.397 . S
C3600 C3601 1.334 . S
C3601 H3578 0.950 . S
C3601 C3600 1.334 . S
C3601 C3602 1.287 . S
C3602 C3601 1.287 . S
C3602 C3603 1.524 . S
C3602 H3621 0.913 . S
C3603 H3579 0.950 . S
C3603 C3602 1.524 . S
C3603 C3604 1.415 . S
C3604 H3580 0.950 . S
C3604 C3599 1.363 . S
C3604 C3603 1.415 . S
C3605 H3581 0.951 . S
C3605 C3606 1.366 . S
C3605 C3607 1.388 . S
C3606 C3605 1.366 . S
C3606 C3610 1.385 . S
C3607 H3582 0.951 . S
C3607 C3605 1.388 . S
C3607 C3608 1.366 . S
C3608 C3607 1.366 . S
C3608 C3609 1.414 . S
C3608 C3611 1.499 . S
C3609 H3583 0.950 . S
C3609 C3608 1.414 . S
C3609 C3610 1.374 . S
C3610 H3584 0.950 . S
C3610 C3606 1.385 . S
C3610 C3609 1.374 . S
C3611 C3608 1.499 . S
C3611 C3612 1.373 . S
C3611 C3613 1.389 . S
C3612 H3585 0.950 . S
C3612 C3598 1.377 . S
C3612 C3611 1.373 . S
C3613 C3597 1.377 . S
C3613 C3611 1.389 . S
C3613 C3614 1.524 . S
C3614 C3613 1.524 . S
C3614 C3615 1.397 . S
C3614 C3619 1.363 . S
C3615 H3586 0.950 . S
C3615 C3614 1.397 . S
C3615 C3616 1.334 1_655 S
C3616 H3587 0.950 . S
C3616 C3615 1.334 1_455 S
C3616 C3617 1.287 . S
C3617 C3616 1.287 . S
C3617 C3618 1.524 1_455 S
C3617 H3620 0.999 . S
C3618 H3588 0.950 . S
C3618 C3617 1.524 1_655 S
C3618 C3619 1.415 . S
C3619 H3589 0.950 . S
C3619 C3614 1.363 . S
C3619 C3618 1.415 . S
H3620 C3617 0.999 . S
H3621 C3602 0.913 . S
H3622 C3640 0.951 . S
H3623 C3642 0.951 . S
H3624 C3644 0.950 . S
H3625 C3645 0.950 . S
H3626 C3647 0.950 . S
H3627 C3650 0.950 . S
H3628 C3651 0.950 . S
H3629 C3653 0.950 . S
H3630 C3654 0.950 . S
H3631 C3655 0.951 . S
H3632 C3657 0.951 . S
H3633 C3659 0.950 . S
H3634 C3660 0.950 . S
H3635 C3662 0.950 . S
H3636 C3665 0.950 . S
H3637 C3666 0.950 . S
H3638 C3668 0.950 . S
H3639 C3669 0.950 . S
C3640 H3622 0.951 . S
C3640 C3641 1.366 . S
C3640 C3642 1.388 . S
C3641 C3640 1.366 . S
C3641 C3645 1.385 . S
C3642 H3623 0.951 . S
C3642 C3640 1.388 . S
C3642 C3643 1.366 . S
C3643 C3642 1.366 . S
C3643 C3644 1.414 . S
C3643 C3646 1.499 . S
C3644 H3624 0.950 . S
C3644 C3643 1.414 . S
C3644 C3645 1.374 . S
C3645 H3625 0.950 . S
C3645 C3641 1.385 . S
C3645 C3644 1.374 . S
C3646 C3643 1.499 . S
C3646 C3647 1.373 . S
C3646 C3648 1.389 . S
C3647 H3626 0.950 . S
C3647 C3646 1.373 . S
C3647 C3663 1.377 . S
C3648 C3646 1.389 . S
C3648 C3649 1.524 . S
C3648 C3662 1.377 . S
C3649 C3648 1.524 . S
C3649 C3650 1.397 . S
C3649 C3654 1.363 . S
C3650 H3627 0.950 . S
C3650 C3649 1.397 . S
C3650 C3651 1.334 . S
C3651 H3628 0.950 . S
C3651 C3650 1.334 . S
C3651 C3652 1.287 . S
C3652 C3651 1.287 . S
C3652 C3653 1.524 . S
C3652 H3671 0.913 . S
C3653 H3629 0.950 . S
C3653 C3652 1.524 . S
C3653 C3654 1.415 . S
C3654 H3630 0.950 . S
C3654 C3649 1.363 . S
C3654 C3653 1.415 . S
C3655 H3631 0.951 . S
C3655 C3656 1.366 . S
C3655 C3657 1.388 . S
C3656 C3655 1.366 . S
C3656 C3660 1.385 . S
C3657 H3632 0.951 . S
C3657 C3655 1.388 . S
C3657 C3658 1.366 . S
C3658 C3657 1.366 . S
C3658 C3659 1.414 . S
C3658 C3661 1.499 . S
C3659 H3633 0.950 . S
C3659 C3658 1.414 . S
C3659 C3660 1.374 . S
C3660 H3634 0.950 . S
C3660 C3656 1.385 . S
C3660 C3659 1.374 . S
C3661 C3658 1.499 . S
C3661 C3662 1.373 . S
C3661 C3663 1.389 . S
C3662 H3635 0.950 . S
C3662 C3648 1.377 . S
C3662 C3661 1.373 . S
C3663 C3647 1.377 . S
C3663 C3661 1.389 . S
C3663 C3664 1.524 . S
C3664 C3663 1.524 . S
C3664 C3665 1.397 . S
C3664 C3669 1.363 . S
C3665 H3636 0.950 . S
C3665 C3664 1.397 . S
C3665 C3666 1.334 . S
C3666 H3637 0.950 . S
C3666 C3665 1.334 . S
C3666 C3667 1.287 . S
C3667 C3666 1.287 . S
C3667 C3668 1.524 . S
C3667 H3670 0.999 . S
C3668 H3638 0.950 . S
C3668 C3667 1.524 . S
C3668 C3669 1.415 . S
C3669 H3639 0.950 . S
C3669 C3664 1.363 . S
C3669 C3668 1.415 . S
H3670 C3667 0.999 . S
H3671 C3652 0.913 . S
H3672 C3690 0.951 . S
H3673 C3692 0.951 . S
H3674 C3694 0.950 . S
H3675 C3695 0.950 . S
H3676 C3697 0.950 . S
H3677 C3700 0.950 . S
H3678 C3701 0.950 . S
H3679 C3703 0.950 . S
H3680 C3704 0.950 . S
H3681 C3705 0.951 . S
H3682 C3707 0.951 . S
H3683 C3709 0.950 . S
H3684 C3710 0.950 . S
H3685 C3712 0.950 . S
H3686 C3715 0.950 . S
H3687 C3716 0.950 . S
H3688 C3718 0.950 . S
H3689 C3719 0.950 . S
C3690 H3672 0.951 . S
C3690 C3691 1.366 . S
C3690 C3692 1.388 . S
C3691 C3690 1.366 . S
C3691 C3695 1.385 . S
C3692 H3673 0.951 . S
C3692 C3690 1.388 . S
C3692 C3693 1.366 . S
C3693 C3692 1.366 . S
C3693 C3694 1.414 . S
C3693 C3696 1.499 . S
C3694 H3674 0.950 . S
C3694 C3693 1.414 . S
C3694 C3695 1.374 . S
C3695 H3675 0.950 . S
C3695 C3691 1.385 . S
C3695 C3694 1.374 . S
C3696 C3693 1.499 . S
C3696 C3697 1.373 . S
C3696 C3698 1.389 . S
C3697 H3676 0.950 . S
C3697 C3696 1.373 . S
C3697 C3713 1.377 . S
C3698 C3696 1.389 . S
C3698 C3699 1.524 . S
C3698 C3712 1.377 . S
C3699 C3698 1.524 . S
C3699 C3700 1.397 . S
C3699 C3704 1.363 . S
C3700 H3677 0.950 . S
C3700 C3699 1.397 . S
C3700 C3701 1.334 . S
C3701 H3678 0.950 . S
C3701 C3700 1.334 . S
C3701 C3702 1.287 . S
C3702 C3701 1.287 . S
C3702 C3703 1.524 . S
C3702 H3721 0.913 . S
C3703 H3679 0.950 . S
C3703 C3702 1.524 . S
C3703 C3704 1.415 . S
C3704 H3680 0.950 . S
C3704 C3699 1.363 . S
C3704 C3703 1.415 . S
C3705 H3681 0.951 . S
C3705 C3706 1.366 . S
C3705 C3707 1.388 . S
C3706 C3705 1.366 . S
C3706 C3710 1.385 . S
C3707 H3682 0.951 . S
C3707 C3705 1.388 . S
C3707 C3708 1.366 . S
C3708 C3707 1.366 . S
C3708 C3709 1.414 . S
C3708 C3711 1.499 . S
C3709 H3683 0.950 . S
C3709 C3708 1.414 . S
C3709 C3710 1.374 . S
C3710 H3684 0.950 . S
C3710 C3706 1.385 . S
C3710 C3709 1.374 . S
C3711 C3708 1.499 . S
C3711 C3712 1.373 . S
C3711 C3713 1.389 . S
C3712 H3685 0.950 . S
C3712 C3698 1.377 . S
C3712 C3711 1.373 . S
C3713 C3697 1.377 . S
C3713 C3711 1.389 . S
C3713 C3714 1.524 . S
C3714 C3713 1.524 . S
C3714 C3715 1.397 . S
C3714 C3719 1.363 . S
C3715 H3686 0.950 . S
C3715 C3714 1.397 . S
C3715 C3716 1.334 . S
C3716 H3687 0.950 . S
C3716 C3715 1.334 . S
C3716 C3717 1.287 . S
C3717 C3716 1.287 . S
C3717 C3718 1.524 . S
C3717 H3720 0.999 . S
C3718 H3688 0.950 . S
C3718 C3717 1.524 . S
C3718 C3719 1.415 . S
C3719 H3689 0.950 . S
C3719 C3714 1.363 . S
C3719 C3718 1.415 . S
H3720 C3717 0.999 . S
H3721 C3702 0.913 . S
H3722 C3740 0.951 . S
H3723 C3742 0.951 . S
H3724 C3744 0.950 . S
H3725 C3745 0.950 . S
H3726 C3747 0.950 . S
H3727 C3750 0.950 . S
H3728 C3751 0.950 . S
H3729 C3753 0.950 . S
H3730 C3754 0.950 . S
H3731 C3755 0.951 . S
H3732 C3757 0.951 . S
H3733 C3759 0.950 . S
H3734 C3760 0.950 . S
H3735 C3762 0.950 . S
H3736 C3765 0.950 . S
H3737 C3766 0.950 . S
H3738 C3768 0.950 . S
H3739 C3769 0.950 . S
C3740 H3722 0.951 . S
C3740 C3741 1.366 . S
C3740 C3742 1.388 . S
C3741 C3740 1.366 . S
C3741 C3745 1.385 . S
C3742 H3723 0.951 . S
C3742 C3740 1.388 . S
C3742 C3743 1.366 . S
C3743 C3742 1.366 . S
C3743 C3744 1.414 . S
C3743 C3746 1.499 . S
C3744 H3724 0.950 . S
C3744 C3743 1.414 . S
C3744 C3745 1.374 . S
C3745 H3725 0.950 . S
C3745 C3741 1.385 . S
C3745 C3744 1.374 . S
C3746 C3743 1.499 . S
C3746 C3747 1.373 . S
C3746 C3748 1.389 . S
C3747 H3726 0.950 . S
C3747 C3746 1.373 . S
C3747 C3763 1.377 . S
C3748 C3746 1.389 . S
C3748 C3749 1.524 . S
C3748 C3762 1.377 . S
C3749 C3748 1.524 . S
C3749 C3750 1.397 . S
C3749 C3754 1.363 . S
C3750 H3727 0.950 . S
C3750 C3749 1.397 . S
C3750 C3751 1.334 . S
C3751 H3728 0.950 . S
C3751 C3750 1.334 . S
C3751 C3752 1.287 . S
C3752 C3751 1.287 . S
C3752 C3753 1.524 . S
C3752 H3771 0.913 . S
C3753 H3729 0.950 . S
C3753 C3752 1.524 . S
C3753 C3754 1.415 . S
C3754 H3730 0.950 . S
C3754 C3749 1.363 . S
C3754 C3753 1.415 . S
C3755 H3731 0.951 . S
C3755 C3756 1.366 . S
C3755 C3757 1.388 . S
C3756 C3755 1.366 . S
C3756 C3760 1.385 . S
C3757 H3732 0.951 . S
C3757 C3755 1.388 . S
C3757 C3758 1.366 . S
C3758 C3757 1.366 . S
C3758 C3759 1.414 . S
C3758 C3761 1.499 . S
C3759 H3733 0.950 . S
C3759 C3758 1.414 . S
C3759 C3760 1.374 . S
C3760 H3734 0.950 . S
C3760 C3756 1.385 . S
C3760 C3759 1.374 . S
C3761 C3758 1.499 . S
C3761 C3762 1.373 . S
C3761 C3763 1.389 . S
C3762 H3735 0.950 . S
C3762 C3748 1.377 . S
C3762 C3761 1.373 . S
C3763 C3747 1.377 . S
C3763 C3761 1.389 . S
C3763 C3764 1.524 . S
C3764 C3763 1.524 . S
C3764 C3765 1.397 . S
C3764 C3769 1.363 . S
C3765 H3736 0.950 . S
C3765 C3764 1.397 . S
C3765 C3766 1.334 . S
C3766 H3737 0.950 . S
C3766 C3765 1.334 . S
C3766 C3767 1.287 . S
C3767 C3766 1.287 . S
C3767 C3768 1.524 . S
C3767 H3770 0.999 . S
C3768 H3738 0.950 . S
C3768 C3767 1.524 . S
C3768 C3769 1.415 . S
C3769 H3739 0.950 . S
C3769 C3764 1.363 . S
C3769 C3768 1.415 . S
H3770 C3767 0.999 . S
H3771 C3752 0.913 . S
H3772 C3790 0.951 . S
H3773 C3792 0.951 . S
H3774 C3794 0.950 . S
H3775 C3795 0.950 . S
H3776 C3797 0.950 . S
H3777 C3800 0.950 . S
H3778 C3801 0.950 . S
H3779 C3803 0.950 1_455 S
H3780 C3804 0.950 . S
H3781 C3805 0.951 . S
H3782 C3807 0.951 . S
H3783 C3809 0.950 . S
H3784 C3810 0.950 1_455 S
H3785 C3812 0.950 . S
H3786 C3815 0.950 . S
H3787 C3816 0.950 . S
H3788 C3818 0.950 . S
H3789 C3819 0.950 . S
C3790 H3772 0.951 . S
C3790 C3791 1.366 . S
C3790 C3792 1.388 . S
C3791 C3790 1.366 . S
C3791 C3795 1.385 . S
C3792 H3773 0.951 . S
C3792 C3790 1.388 . S
C3792 C3793 1.366 . S
C3793 C3792 1.366 . S
C3793 C3794 1.414 . S
C3793 C3796 1.499 . S
C3794 H3774 0.950 . S
C3794 C3793 1.414 . S
C3794 C3795 1.374 . S
C3795 H3775 0.950 . S
C3795 C3791 1.385 . S
C3795 C3794 1.374 . S
C3796 C3793 1.499 . S
C3796 C3797 1.373 . S
C3796 C3798 1.389 . S
C3797 H3776 0.950 . S
C3797 C3796 1.373 . S
C3797 C3813 1.377 . S
C3798 C3796 1.389 . S
C3798 C3799 1.524 . S
C3798 C3812 1.377 . S
C3799 C3798 1.524 . S
C3799 C3800 1.397 . S
C3799 C3804 1.363 . S
C3800 H3777 0.950 . S
C3800 C3799 1.397 . S
C3800 C3801 1.334 . S
C3801 H3778 0.950 . S
C3801 C3800 1.334 . S
C3801 C3802 1.287 . S
C3802 C3801 1.287 . S
C3802 C3803 1.524 . S
C3802 H3821 0.913 . S
C3803 H3779 0.950 1_655 S
C3803 C3802 1.524 . S
C3803 C3804 1.415 . S
C3804 H3780 0.950 . S
C3804 C3799 1.363 . S
C3804 C3803 1.415 . S
C3805 H3781 0.951 . S
C3805 C3806 1.366 . S
C3805 C3807 1.388 . S
C3806 C3805 1.366 . S
C3806 C3810 1.385 . S
C3807 H3782 0.951 . S
C3807 C3805 1.388 . S
C3807 C3808 1.366 . S
C3808 C3807 1.366 . S
C3808 C3809 1.414 . S
C3808 C3811 1.499 . S
C3809 H3783 0.950 . S
C3809 C3808 1.414 . S
C3809 C3810 1.374 . S
C3810 H3784 0.950 1_655 S
C3810 C3806 1.385 . S
C3810 C3809 1.374 . S
C3811 C3808 1.499 . S
C3811 C3812 1.373 . S
C3811 C3813 1.389 . S
C3812 H3785 0.950 . S
C3812 C3798 1.377 . S
C3812 C3811 1.373 . S
C3813 C3797 1.377 . S
C3813 C3811 1.389 . S
C3813 C3814 1.524 . S
C3814 C3813 1.524 . S
C3814 C3815 1.397 . S
C3814 C3819 1.363 . S
C3815 H3786 0.950 . S
C3815 C3814 1.397 . S
C3815 C3816 1.334 . S
C3816 H3787 0.950 . S
C3816 C3815 1.334 . S
C3816 C3817 1.287 . S
C3817 C3816 1.287 . S
C3817 C3818 1.524 . S
C3817 H3820 0.999 . S
C3818 H3788 0.950 . S
C3818 C3817 1.524 . S
C3818 C3819 1.415 . S
C3819 H3789 0.950 . S
C3819 C3814 1.363 . S
C3819 C3818 1.415 . S
H3820 C3817 0.999 . S
H3821 C3802 0.913 . S
H3822 C3840 0.951 . S
H3823 C3842 0.951 . S
H3824 C3844 0.950 . S
H3825 C3845 0.950 . S
H3826 C3847 0.950 . S
H3827 C3850 0.950 . S
H3828 C3851 0.950 . S
H3829 C3853 0.950 . S
H3830 C3854 0.950 . S
H3831 C3855 0.951 . S
H3832 C3857 0.951 . S
H3833 C3859 0.950 . S
H3834 C3860 0.950 . S
H3835 C3862 0.950 . S
H3836 C3865 0.950 . S
H3837 C3866 0.950 . S
H3838 C3868 0.950 . S
H3839 C3869 0.950 . S
C3840 H3822 0.951 . S
C3840 C3841 1.366 . S
C3840 C3842 1.388 . S
C3841 C3840 1.366 . S
C3841 C3845 1.385 . S
C3842 H3823 0.951 . S
C3842 C3840 1.388 . S
C3842 C3843 1.366 . S
C3843 C3842 1.366 . S
C3843 C3844 1.414 . S
C3843 C3846 1.499 . S
C3844 H3824 0.950 . S
C3844 C3843 1.414 . S
C3844 C3845 1.374 . S
C3845 H3825 0.950 . S
C3845 C3841 1.385 . S
C3845 C3844 1.374 . S
C3846 C3843 1.499 . S
C3846 C3847 1.373 . S
C3846 C3848 1.389 . S
C3847 H3826 0.950 . S
C3847 C3846 1.373 . S
C3847 C3863 1.377 . S
C3848 C3846 1.389 . S
C3848 C3849 1.524 . S
C3848 C3862 1.377 . S
C3849 C3848 1.524 . S
C3849 C3850 1.397 . S
C3849 C3854 1.363 . S
C3850 H3827 0.950 . S
C3850 C3849 1.397 . S
C3850 C3851 1.334 . S
C3851 H3828 0.950 . S
C3851 C3850 1.334 . S
C3851 C3852 1.287 . S
C3852 C3851 1.287 . S
C3852 C3853 1.524 . S
C3852 H3871 0.913 . S
C3853 H3829 0.950 . S
C3853 C3852 1.524 . S
C3853 C3854 1.415 . S
C3854 H3830 0.950 . S
C3854 C3849 1.363 . S
C3854 C3853 1.415 . S
C3855 H3831 0.951 . S
C3855 C3856 1.366 . S
C3855 C3857 1.388 . S
C3856 C3855 1.366 . S
C3856 C3860 1.385 . S
C3857 H3832 0.951 . S
C3857 C3855 1.388 . S
C3857 C3858 1.366 . S
C3858 C3857 1.366 . S
C3858 C3859 1.414 . S
C3858 C3861 1.499 . S
C3859 H3833 0.950 . S
C3859 C3858 1.414 . S
C3859 C3860 1.374 . S
C3860 H3834 0.950 . S
C3860 C3856 1.385 . S
C3860 C3859 1.374 . S
C3861 C3858 1.499 . S
C3861 C3862 1.373 . S
C3861 C3863 1.389 . S
C3862 H3835 0.950 . S
C3862 C3848 1.377 . S
C3862 C3861 1.373 . S
C3863 C3847 1.377 . S
C3863 C3861 1.389 . S
C3863 C3864 1.524 . S
C3864 C3863 1.524 . S
C3864 C3865 1.397 . S
C3864 C3869 1.363 . S
C3865 H3836 0.950 . S
C3865 C3864 1.397 . S
C3865 C3866 1.334 . S
C3866 H3837 0.950 . S
C3866 C3865 1.334 . S
C3866 C3867 1.287 . S
C3867 C3866 1.287 . S
C3867 C3868 1.524 . S
C3867 H3870 0.999 . S
C3868 H3838 0.950 . S
C3868 C3867 1.524 . S
C3868 C3869 1.415 . S
C3869 H3839 0.950 . S
C3869 C3864 1.363 . S
C3869 C3868 1.415 . S
H3870 C3867 0.999 . S
H3871 C3852 0.913 . S
H3872 C3890 0.951 . S
H3873 C3892 0.951 . S
H3874 C3894 0.950 . S
H3875 C3895 0.950 . S
H3876 C3897 0.950 . S
H3877 C3900 0.950 . S
H3878 C3901 0.950 . S
H3879 C3903 0.950 . S
H3880 C3904 0.950 . S
H3881 C3905 0.951 . S
H3882 C3907 0.951 . S
H3883 C3909 0.950 . S
H3884 C3910 0.950 . S
H3885 C3912 0.950 . S
H3886 C3915 0.950 . S
H3887 C3916 0.950 . S
H3888 C3918 0.950 . S
H3889 C3919 0.950 . S
C3890 H3872 0.951 . S
C3890 C3891 1.366 . S
C3890 C3892 1.388 . S
C3891 C3890 1.366 . S
C3891 C3895 1.385 . S
C3892 H3873 0.951 . S
C3892 C3890 1.388 . S
C3892 C3893 1.366 . S
C3893 C3892 1.366 . S
C3893 C3894 1.414 . S
C3893 C3896 1.499 . S
C3894 H3874 0.950 . S
C3894 C3893 1.414 . S
C3894 C3895 1.374 . S
C3895 H3875 0.950 . S
C3895 C3891 1.385 . S
C3895 C3894 1.374 . S
C3896 C3893 1.499 . S
C3896 C3897 1.373 . S
C3896 C3898 1.389 . S
C3897 H3876 0.950 . S
C3897 C3896 1.373 . S
C3897 C3913 1.377 . S
C3898 C3896 1.389 . S
C3898 C3899 1.524 . S
C3898 C3912 1.377 . S
C3899 C3898 1.524 . S
C3899 C3900 1.397 . S
C3899 C3904 1.363 . S
C3900 H3877 0.950 . S
C3900 C3899 1.397 . S
C3900 C3901 1.334 . S
C3901 H3878 0.950 . S
C3901 C3900 1.334 . S
C3901 C3902 1.287 . S
C3902 C3901 1.287 . S
C3902 C3903 1.524 . S
C3902 H3921 0.913 . S
C3903 H3879 0.950 . S
C3903 C3902 1.524 . S
C3903 C3904 1.415 . S
C3904 H3880 0.950 . S
C3904 C3899 1.363 . S
C3904 C3903 1.415 . S
C3905 H3881 0.951 . S
C3905 C3906 1.366 . S
C3905 C3907 1.388 . S
C3906 C3905 1.366 . S
C3906 C3910 1.385 . S
C3907 H3882 0.951 . S
C3907 C3905 1.388 . S
C3907 C3908 1.366 . S
C3908 C3907 1.366 . S
C3908 C3909 1.414 . S
C3908 C3911 1.499 . S
C3909 H3883 0.950 . S
C3909 C3908 1.414 . S
C3909 C3910 1.374 . S
C3910 H3884 0.950 . S
C3910 C3906 1.385 . S
C3910 C3909 1.374 . S
C3911 C3908 1.499 . S
C3911 C3912 1.373 . S
C3911 C3913 1.389 . S
C3912 H3885 0.950 . S
C3912 C3898 1.377 . S
C3912 C3911 1.373 . S
C3913 C3897 1.377 . S
C3913 C3911 1.389 . S
C3913 C3914 1.524 . S
C3914 C3913 1.524 . S
C3914 C3915 1.397 . S
C3914 C3919 1.363 . S
C3915 H3886 0.950 . S
C3915 C3914 1.397 . S
C3915 C3916 1.334 . S
C3916 H3887 0.950 . S
C3916 C3915 1.334 . S
C3916 C3917 1.287 . S
C3917 C3916 1.287 . S
C3917 C3918 1.524 . S
C3917 H3920 0.999 . S
C3918 H3888 0.950 . S
C3918 C3917 1.524 . S
C3918 C3919 1.415 . S
C3919 H3889 0.950 . S
C3919 C3914 1.363 . S
C3919 C3918 1.415 . S
H3920 C3917 0.999 . S
H3921 C3902 0.913 . S
H3922 C3940 0.951 . S
H3923 C3942 0.951 . S
H3924 C3944 0.950 . S
H3925 C3945 0.950 . S
H3926 C3947 0.950 . S
H3927 C3950 0.950 . S
H3928 C3951 0.950 . S
H3929 C3953 0.950 1_545 S
H3930 C3954 0.950 . S
H3931 C3955 0.951 . S
H3932 C3957 0.951 . S
H3933 C3959 0.950 . S
H3934 C3960 0.950 1_545 S
H3935 C3962 0.950 . S
H3936 C3965 0.950 . S
H3937 C3966 0.950 . S
H3938 C3968 0.950 . S
H3939 C3969 0.950 . S
C3940 H3922 0.951 . S
C3940 C3941 1.366 . S
C3940 C3942 1.388 . S
C3941 C3940 1.366 . S
C3941 C3945 1.385 . S
C3942 H3923 0.951 . S
C3942 C3940 1.388 . S
C3942 C3943 1.366 . S
C3943 C3942 1.366 . S
C3943 C3944 1.414 . S
C3943 C3946 1.499 . S
C3944 H3924 0.950 . S
C3944 C3943 1.414 . S
C3944 C3945 1.374 . S
C3945 H3925 0.950 . S
C3945 C3941 1.385 . S
C3945 C3944 1.374 . S
C3946 C3943 1.499 . S
C3946 C3947 1.373 . S
C3946 C3948 1.389 . S
C3947 H3926 0.950 . S
C3947 C3946 1.373 . S
C3947 C3963 1.377 . S
C3948 C3946 1.389 . S
C3948 C3949 1.524 . S
C3948 C3962 1.377 . S
C3949 C3948 1.524 . S
C3949 C3950 1.397 . S
C3949 C3954 1.363 . S
C3950 H3927 0.950 . S
C3950 C3949 1.397 . S
C3950 C3951 1.334 . S
C3951 H3928 0.950 . S
C3951 C3950 1.334 . S
C3951 C3952 1.287 . S
C3952 C3951 1.287 . S
C3952 C3953 1.524 . S
C3952 H3971 0.913 . S
C3953 H3929 0.950 1_565 S
C3953 C3952 1.524 . S
C3953 C3954 1.415 . S
C3954 H3930 0.950 . S
C3954 C3949 1.363 . S
C3954 C3953 1.415 . S
C3955 H3931 0.951 . S
C3955 C3956 1.366 . S
C3955 C3957 1.388 . S
C3956 C3955 1.366 . S
C3956 C3960 1.385 . S
C3957 H3932 0.951 . S
C3957 C3955 1.388 . S
C3957 C3958 1.366 . S
C3958 C3957 1.366 . S
C3958 C3959 1.414 . S
C3958 C3961 1.499 . S
C3959 H3933 0.950 . S
C3959 C3958 1.414 . S
C3959 C3960 1.374 . S
C3960 H3934 0.950 1_565 S
C3960 C3956 1.385 . S
C3960 C3959 1.374 . S
C3961 C3958 1.499 . S
C3961 C3962 1.373 . S
C3961 C3963 1.389 . S
C3962 H3935 0.950 . S
C3962 C3948 1.377 . S
C3962 C3961 1.373 . S
C3963 C3947 1.377 . S
C3963 C3961 1.389 . S
C3963 C3964 1.524 . S
C3964 C3963 1.524 . S
C3964 C3965 1.397 . S
C3964 C3969 1.363 . S
C3965 H3936 0.950 . S
C3965 C3964 1.397 . S
C3965 C3966 1.334 . S
C3966 H3937 0.950 . S
C3966 C3965 1.334 . S
C3966 C3967 1.287 . S
C3967 C3966 1.287 . S
C3967 C3968 1.524 . S
C3967 H3970 0.999 . S
C3968 H3938 0.950 . S
C3968 C3967 1.524 . S
C3968 C3969 1.415 . S
C3969 H3939 0.950 . S
C3969 C3964 1.363 . S
C3969 C3968 1.415 . S
H3970 C3967 0.999 . S
H3971 C3952 0.913 . S
H3972 C3990 0.951 . S
H3973 C3992 0.951 . S
H3974 C3994 0.950 . S
H3975 C3995 0.950 . S
H3976 C3997 0.950 . S
H3977 C4000 0.950 . S
H3978 C4001 0.950 . S
H3979 C4003 0.950 . S
H3980 C4004 0.950 . S
H3981 C4005 0.951 . S
H3982 C4007 0.951 . S
H3983 C4009 0.950 . S
H3984 C4010 0.950 . S
H3985 C4012 0.950 . S
H3986 C4015 0.950 . S
H3987 C4016 0.950 . S
H3988 C4018 0.950 . S
H3989 C4019 0.950 . S
C3990 H3972 0.951 . S
C3990 C3991 1.366 . S
C3990 C3992 1.388 . S
C3991 C3990 1.366 . S
C3991 C3995 1.385 . S
C3992 H3973 0.951 . S
C3992 C3990 1.388 . S
C3992 C3993 1.366 . S
C3993 C3992 1.366 . S
C3993 C3994 1.414 . S
C3993 C3996 1.499 . S
C3994 H3974 0.950 . S
C3994 C3993 1.414 . S
C3994 C3995 1.374 . S
C3995 H3975 0.950 . S
C3995 C3991 1.385 . S
C3995 C3994 1.374 . S
C3996 C3993 1.499 . S
C3996 C3997 1.373 . S
C3996 C3998 1.389 . S
C3997 H3976 0.950 . S
C3997 C3996 1.373 . S
C3997 C4013 1.377 . S
C3998 C3996 1.389 . S
C3998 C3999 1.524 . S
C3998 C4012 1.377 . S
C3999 C3998 1.524 . S
C3999 C4000 1.397 . S
C3999 C4004 1.363 . S
C4000 H3977 0.950 . S
C4000 C3999 1.397 . S
C4000 C4001 1.334 . S
C4001 H3978 0.950 . S
C4001 C4000 1.334 . S
C4001 C4002 1.287 . S
C4002 C4001 1.287 . S
C4002 C4003 1.524 . S
C4002 H4021 0.913 . S
C4003 H3979 0.950 . S
C4003 C4002 1.524 . S
C4003 C4004 1.415 . S
C4004 H3980 0.950 . S
C4004 C3999 1.363 . S
C4004 C4003 1.415 . S
C4005 H3981 0.951 . S
C4005 C4006 1.366 . S
C4005 C4007 1.388 . S
C4006 C4005 1.366 . S
C4006 C4010 1.385 . S
C4007 H3982 0.951 . S
C4007 C4005 1.388 . S
C4007 C4008 1.366 . S
C4008 C4007 1.366 . S
C4008 C4009 1.414 . S
C4008 C4011 1.499 . S
C4009 H3983 0.950 . S
C4009 C4008 1.414 . S
C4009 C4010 1.374 . S
C4010 H3984 0.950 . S
C4010 C4006 1.385 . S
C4010 C4009 1.374 . S
C4011 C4008 1.499 . S
C4011 C4012 1.373 . S
C4011 C4013 1.389 . S
C4012 H3985 0.950 . S
C4012 C3998 1.377 . S
C4012 C4011 1.373 . S
C4013 C3997 1.377 . S
C4013 C4011 1.389 . S
C4013 C4014 1.524 . S
C4014 C4013 1.524 . S
C4014 C4015 1.397 . S
C4014 C4019 1.363 . S
C4015 H3986 0.950 . S
C4015 C4014 1.397 . S
C4015 C4016 1.334 . S
C4016 H3987 0.950 . S
C4016 C4015 1.334 . S
C4016 C4017 1.287 . S
C4017 C4016 1.287 . S
C4017 C4018 1.524 . S
C4017 H4020 0.999 . S
C4018 H3988 0.950 . S
C4018 C4017 1.524 . S
C4018 C4019 1.415 . S
C4019 H3989 0.950 . S
C4019 C4014 1.363 . S
C4019 C4018 1.415 . S
H4020 C4017 0.999 . S
H4021 C4002 0.913 . S
H4022 C4040 0.951 . S
H4023 C4042 0.951 . S
H4024 C4044 0.950 1_556 S
H4025 C4045 0.950 1_556 S
H4026 C4047 0.950 . S
H4027 C4050 0.950 . S
H4028 C4051 0.950 . S
H4029 C4053 0.950 . S
H4030 C4054 0.950 1_554 S
H4031 C4055 0.951 . S
H4032 C4057 0.951 . S
H4033 C4059 0.950 . S
H4034 C4060 0.950 . S
H4035 C4062 0.950 . S
H4036 C4065 0.950 . S
H4037 C4066 0.950 . S
H4038 C4068 0.950 1_565 S
H4039 C4069 0.950 . S
C4040 H4022 0.951 . S
C4040 C4041 1.366 . S
C4040 C4042 1.388 . S
C4041 C4040 1.366 . S
C4041 C4045 1.385 . S
C4042 H4023 0.951 . S
C4042 C4040 1.388 . S
C4042 C4043 1.366 . S
C4043 C4042 1.366 . S
C4043 C4044 1.414 . S
C4043 C4046 1.499 . S
C4044 H4024 0.950 1_554 S
C4044 C4043 1.414 . S
C4044 C4045 1.374 . S
C4045 H4025 0.950 1_554 S
C4045 C4041 1.385 . S
C4045 C4044 1.374 . S
C4046 C4043 1.499 . S
C4046 C4047 1.373 . S
C4046 C4048 1.389 . S
C4047 H4026 0.950 . S
C4047 C4046 1.373 . S
C4047 C4063 1.377 . S
C4048 C4046 1.389 . S
C4048 C4049 1.524 1_554 S
C4048 C4062 1.377 . S
C4049 C4048 1.524 1_556 S
C4049 C4050 1.397 . S
C4049 C4054 1.363 . S
C4050 H4027 0.950 . S
C4050 C4049 1.397 . S
C4050 C4051 1.334 . S
C4051 H4028 0.950 . S
C4051 C4050 1.334 . S
C4051 C4052 1.287 . S
C4052 C4051 1.287 . S
C4052 C4053 1.524 . S
C4052 H4071 0.913 . S
C4053 H4029 0.950 . S
C4053 C4052 1.524 . S
C4053 C4054 1.415 . S
C4054 H4030 0.950 1_556 S
C4054 C4049 1.363 . S
C4054 C4053 1.415 . S
C4055 H4031 0.951 . S
C4055 C4056 1.366 . S
C4055 C4057 1.388 . S
C4056 C4055 1.366 . S
C4056 C4060 1.385 . S
C4057 H4032 0.951 . S
C4057 C4055 1.388 . S
C4057 C4058 1.366 . S
C4058 C4057 1.366 . S
C4058 C4059 1.414 . S
C4058 C4061 1.499 . S
C4059 H4033 0.950 . S
C4059 C4058 1.414 . S
C4059 C4060 1.374 . S
C4060 H4034 0.950 . S
C4060 C4056 1.385 . S
C4060 C4059 1.374 . S
C4061 C4058 1.499 . S
C4061 C4062 1.373 . S
C4061 C4063 1.389 . S
C4062 H4035 0.950 . S
C4062 C4048 1.377 . S
C4062 C4061 1.373 . S
C4063 C4047 1.377 . S
C4063 C4061 1.389 . S
C4063 C4064 1.524 . S
C4064 C4063 1.524 . S
C4064 C4065 1.397 . S
C4064 C4069 1.363 . S
C4065 H4036 0.950 . S
C4065 C4064 1.397 . S
C4065 C4066 1.334 . S
C4066 H4037 0.950 . S
C4066 C4065 1.334 . S
C4066 C4067 1.287 . S
C4067 C4066 1.287 . S
C4067 C4068 1.524 . S
C4067 H4070 0.999 1_545 S
C4068 H4038 0.950 1_545 S
C4068 C4067 1.524 . S
C4068 C4069 1.415 . S
C4069 H4039 0.950 . S
C4069 C4064 1.363 . S
C4069 C4068 1.415 . S
H4070 C4067 0.999 1_565 S
H4071 C4052 0.913 . S
H4072 C4090 0.951 . S
H4073 C4092 0.951 . S
H4074 C4094 0.950 . S
H4075 C4095 0.950 . S
H4076 C4097 0.950 . S
H4077 C4100 0.950 . S
H4078 C4101 0.950 . S
H4079 C4103 0.950 . S
H4080 C4104 0.950 . S
H4081 C4105 0.951 . S
H4082 C4107 0.951 . S
H4083 C4109 0.950 . S
H4084 C4110 0.950 . S
H4085 C4112 0.950 . S
H4086 C4115 0.950 . S
H4087 C4116 0.950 . S
H4088 C4118 0.950 . S
H4089 C4119 0.950 . S
C4090 H4072 0.951 . S
C4090 C4091 1.366 . S
C4090 C4092 1.388 . S
C4091 C4090 1.366 . S
C4091 C4095 1.385 . S
C4092 H4073 0.951 . S
C4092 C4090 1.388 . S
C4092 C4093 1.366 . S
C4093 C4092 1.366 . S
C4093 C4094 1.414 . S
C4093 C4096 1.499 . S
C4094 H4074 0.950 . S
C4094 C4093 1.414 . S
C4094 C4095 1.374 . S
C4095 H4075 0.950 . S
C4095 C4091 1.385 . S
C4095 C4094 1.374 . S
C4096 C4093 1.499 . S
C4096 C4097 1.373 . S
C4096 C4098 1.389 . S
C4097 H4076 0.950 . S
C4097 C4096 1.373 . S
C4097 C4113 1.377 . S
C4098 C4096 1.389 . S
C4098 C4099 1.524 . S
C4098 C4112 1.377 . S
C4099 C4098 1.524 . S
C4099 C4100 1.397 . S
C4099 C4104 1.363 . S
C4100 H4077 0.950 . S
C4100 C4099 1.397 . S
C4100 C4101 1.334 . S
C4101 H4078 0.950 . S
C4101 C4100 1.334 . S
C4101 C4102 1.287 . S
C4102 C4101 1.287 . S
C4102 C4103 1.524 . S
C4102 H4121 0.913 . S
C4103 H4079 0.950 . S
C4103 C4102 1.524 . S
C4103 C4104 1.415 . S
C4104 H4080 0.950 . S
C4104 C4099 1.363 . S
C4104 C4103 1.415 . S
C4105 H4081 0.951 . S
C4105 C4106 1.366 . S
C4105 C4107 1.388 . S
C4106 C4105 1.366 . S
C4106 C4110 1.385 . S
C4107 H4082 0.951 . S
C4107 C4105 1.388 . S
C4107 C4108 1.366 . S
C4108 C4107 1.366 . S
C4108 C4109 1.414 . S
C4108 C4111 1.499 . S
C4109 H4083 0.950 . S
C4109 C4108 1.414 . S
C4109 C4110 1.374 . S
C4110 H4084 0.950 . S
C4110 C4106 1.385 . S
C4110 C4109 1.374 . S
C4111 C4108 1.499 . S
C4111 C4112 1.373 . S
C4111 C4113 1.389 . S
C4112 H4085 0.950 . S
C4112 C4098 1.377 . S
C4112 C4111 1.373 . S
C4113 C4097 1.377 . S
C4113 C4111 1.389 . S
C4113 C4114 1.524 . S
C4114 C4113 1.524 . S
C4114 C4115 1.397 . S
C4114 C4119 1.363 . S
C4115 H4086 0.950 . S
C4115 C4114 1.397 . S
C4115 C4116 1.334 . S
C4116 H4087 0.950 . S
C4116 C4115 1.334 . S
C4116 C4117 1.287 . S
C4117 C4116 1.287 . S
C4117 C4118 1.524 . S
C4117 H4120 0.999 . S
C4118 H4088 0.950 . S
C4118 C4117 1.524 . S
C4118 C4119 1.415 . S
C4119 H4089 0.950 . S
C4119 C4114 1.363 . S
C4119 C4118 1.415 . S
H4120 C4117 0.999 . S
H4121 C4102 0.913 . S
H4122 C4140 0.951 . S
H4123 C4142 0.951 . S
H4124 C4144 0.950 . S
H4125 C4145 0.950 . S
H4126 C4147 0.950 . S
H4127 C4150 0.950 . S
H4128 C4151 0.950 . S
H4129 C4153 0.950 . S
H4130 C4154 0.950 . S
H4131 C4155 0.951 . S
H4132 C4157 0.951 . S
H4133 C4159 0.950 . S
H4134 C4160 0.950 . S
H4135 C4162 0.959 . S
H4136 C4165 0.950 . S
H4137 C4166 0.950 . S
H4138 C4168 0.950 . S
H4139 C4169 0.950 . S
C4140 H4122 0.951 . S
C4140 C4141 1.366 . S
C4140 C4142 1.388 . S
C4141 C4140 1.366 . S
C4141 C4145 1.385 . S
C4142 H4123 0.951 . S
C4142 C4140 1.388 . S
C4142 C4143 1.366 . S
C4143 C4142 1.366 . S
C4143 C4144 1.414 . S
C4143 C4146 1.499 . S
C4144 H4124 0.950 . S
C4144 C4143 1.414 . S
C4144 C4145 1.374 . S
C4145 H4125 0.950 . S
C4145 C4141 1.385 . S
C4145 C4144 1.374 . S
C4146 C4143 1.499 . S
C4146 C4147 1.373 . S
C4146 C4148 1.389 1_554 S
C4147 H4126 0.950 . S
C4147 C4146 1.373 . S
C4147 C4163 1.377 . S
C4148 C4146 1.389 1_556 S
C4148 C4149 1.524 . S
C4148 C4162 1.377 . S
C4149 C4148 1.524 . S
C4149 C4150 1.397 . S
C4149 C4154 1.363 . S
C4150 H4127 0.950 . S
C4150 C4149 1.397 . S
C4150 C4151 1.334 . S
C4151 H4128 0.950 . S
C4151 C4150 1.334 . S
C4151 C4152 1.287 . S
C4152 C4151 1.287 . S
C4152 C4153 1.524 . S
C4152 H4171 0.913 . S
C4153 H4129 0.950 . S
C4153 C4152 1.524 . S
C4153 C4154 1.415 . S
C4154 H4130 0.950 . S
C4154 C4149 1.363 . S
C4154 C4153 1.415 . S
C4155 H4131 0.951 . S
C4155 C4156 1.366 . S
C4155 C4157 1.388 . S
C4156 C4155 1.366 . S
C4156 C4160 1.385 . S
C4157 H4132 0.951 . S
C4157 C4155 1.388 . S
C4157 C4158 1.366 . S
C4158 C4157 1.366 . S
C4158 C4159 1.414 . S
C4158 C4161 1.499 . S
C4159 H4133 0.950 . S
C4159 C4158 1.414 . S
C4159 C4160 1.374 . S
C4160 H4134 0.950 . S
C4160 C4156 1.385 . S
C4160 C4159 1.374 . S
C4161 C4158 1.499 . S
C4161 C4162 1.364 1_554 S
C4161 C4163 1.389 . S
C4162 H4135 0.959 . S
C4162 C4148 1.377 . S
C4162 C4161 1.364 1_556 S
C4163 C4147 1.377 . S
C4163 C4161 1.389 . S
C4163 C4164 1.524 . S
C4164 C4163 1.524 . S
C4164 C4165 1.397 . S
C4164 C4169 1.363 . S
C4165 H4136 0.950 . S
C4165 C4164 1.397 . S
C4165 C4166 1.334 . S
C4166 H4137 0.950 . S
C4166 C4165 1.334 . S
C4166 C4167 1.287 . S
C4167 C4166 1.287 . S
C4167 C4168 1.524 . S
C4167 H4170 0.999 . S
C4168 H4138 0.950 . S
C4168 C4167 1.524 . S
C4168 C4169 1.415 . S
C4169 H4139 0.950 . S
C4169 C4164 1.363 . S
C4169 C4168 1.415 . S
H4170 C4167 0.999 . S
H4171 C4152 0.913 . S
H4172 C4190 0.951 . S
H4173 C4192 0.951 . S
H4174 C4194 0.950 . S
H4175 C4195 0.950 . S
H4176 C4197 0.950 . S
H4177 C4200 0.950 . S
H4178 C4201 0.950 . S
H4179 C4203 0.950 . S
H4180 C4204 0.950 . S
H4181 C4205 0.951 . S
H4182 C4207 0.951 . S
H4183 C4209 0.950 . S
H4184 C4210 0.950 . S
H4185 C4212 0.950 . S
H4186 C4215 0.950 . S
H4187 C4216 0.950 . S
H4188 C4218 0.950 . S
H4189 C4219 0.950 . S
C4190 H4172 0.951 . S
C4190 C4191 1.366 . S
C4190 C4192 1.388 . S
C4191 C4190 1.366 . S
C4191 C4195 1.385 . S
C4192 H4173 0.951 . S
C4192 C4190 1.388 . S
C4192 C4193 1.366 . S
C4193 C4192 1.366 . S
C4193 C4194 1.414 . S
C4193 C4196 1.499 . S
C4194 H4174 0.950 . S
C4194 C4193 1.414 . S
C4194 C4195 1.374 . S
C4195 H4175 0.950 . S
C4195 C4191 1.385 . S
C4195 C4194 1.374 . S
C4196 C4193 1.499 . S
C4196 C4197 1.373 . S
C4196 C4198 1.389 . S
C4197 H4176 0.950 . S
C4197 C4196 1.373 . S
C4197 C4213 1.377 . S
C4198 C4196 1.389 . S
C4198 C4199 1.524 . S
C4198 C4212 1.377 . S
C4199 C4198 1.524 . S
C4199 C4200 1.397 . S
C4199 C4204 1.363 . S
C4200 H4177 0.950 . S
C4200 C4199 1.397 . S
C4200 C4201 1.334 . S
C4201 H4178 0.950 . S
C4201 C4200 1.334 . S
C4201 C4202 1.287 . S
C4202 C4201 1.287 . S
C4202 C4203 1.524 . S
C4202 H4221 0.913 . S
C4203 H4179 0.950 . S
C4203 C4202 1.524 . S
C4203 C4204 1.415 . S
C4204 H4180 0.950 . S
C4204 C4199 1.363 . S
C4204 C4203 1.415 . S
C4205 H4181 0.951 . S
C4205 C4206 1.366 . S
C4205 C4207 1.388 . S
C4206 C4205 1.366 . S
C4206 C4210 1.385 . S
C4207 H4182 0.951 . S
C4207 C4205 1.388 . S
C4207 C4208 1.366 . S
C4208 C4207 1.366 . S
C4208 C4209 1.414 . S
C4208 C4211 1.499 . S
C4209 H4183 0.950 . S
C4209 C4208 1.414 . S
C4209 C4210 1.374 . S
C4210 H4184 0.950 . S
C4210 C4206 1.385 . S
C4210 C4209 1.374 . S
C4211 C4208 1.499 . S
C4211 C4212 1.373 . S
C4211 C4213 1.389 . S
C4212 H4185 0.950 . S
C4212 C4198 1.377 . S
C4212 C4211 1.373 . S
C4213 C4197 1.377 . S
C4213 C4211 1.389 . S
C4213 C4214 1.524 . S
C4214 C4213 1.524 . S
C4214 C4215 1.397 . S
C4214 C4219 1.363 . S
C4215 H4186 0.950 . S
C4215 C4214 1.397 . S
C4215 C4216 1.334 . S
C4216 H4187 0.950 . S
C4216 C4215 1.334 . S
C4216 C4217 1.287 . S
C4217 C4216 1.287 . S
C4217 C4218 1.524 . S
C4217 H4220 0.999 . S
C4218 H4188 0.950 . S
C4218 C4217 1.524 . S
C4218 C4219 1.415 . S
C4219 H4189 0.950 . S
C4219 C4214 1.363 . S
C4219 C4218 1.415 . S
H4220 C4217 0.999 . S
H4221 C4202 0.913 . S
H4222 C4240 0.951 . S
H4223 C4242 0.951 . S
H4224 C4244 0.950 . S
H4225 C4245 0.950 . S
H4226 C4247 0.950 . S
H4227 C4250 0.950 . S
H4228 C4251 0.950 . S
H4229 C4253 0.950 . S
H4230 C4254 0.950 . S
H4231 C4255 0.951 . S
H4232 C4257 0.951 . S
H4233 C4259 0.950 . S
H4234 C4260 0.950 . S
H4235 C4262 0.950 . S
H4236 C4265 0.950 . S
H4237 C4266 0.950 . S
H4238 C4268 0.950 . S
H4239 C4269 0.950 . S
C4240 H4222 0.951 . S
C4240 C4241 1.366 . S
C4240 C4242 1.388 . S
C4241 C4240 1.366 . S
C4241 C4245 1.385 . S
C4242 H4223 0.951 . S
C4242 C4240 1.388 . S
C4242 C4243 1.366 . S
C4243 C4242 1.366 . S
C4243 C4244 1.414 . S
C4243 C4246 1.499 . S
C4244 H4224 0.950 . S
C4244 C4243 1.414 . S
C4244 C4245 1.374 . S
C4245 H4225 0.950 . S
C4245 C4241 1.385 . S
C4245 C4244 1.374 . S
C4246 C4243 1.499 . S
C4246 C4247 1.373 . S
C4246 C4248 1.389 . S
C4247 H4226 0.950 . S
C4247 C4246 1.373 . S
C4247 C4263 1.377 . S
C4248 C4246 1.389 . S
C4248 C4249 1.524 . S
C4248 C4262 1.377 . S
C4249 C4248 1.524 . S
C4249 C4250 1.397 . S
C4249 C4254 1.363 . S
C4250 H4227 0.950 . S
C4250 C4249 1.397 . S
C4250 C4251 1.334 . S
C4251 H4228 0.950 . S
C4251 C4250 1.334 . S
C4251 C4252 1.287 . S
C4252 C4251 1.287 . S
C4252 C4253 1.524 . S
C4252 H4271 0.913 . S
C4253 H4229 0.950 . S
C4253 C4252 1.524 . S
C4253 C4254 1.415 . S
C4254 H4230 0.950 . S
C4254 C4249 1.363 . S
C4254 C4253 1.415 . S
C4255 H4231 0.951 . S
C4255 C4256 1.366 . S
C4255 C4257 1.388 . S
C4256 C4255 1.366 . S
C4256 C4260 1.385 . S
C4257 H4232 0.951 . S
C4257 C4255 1.388 . S
C4257 C4258 1.366 . S
C4258 C4257 1.366 . S
C4258 C4259 1.414 . S
C4258 C4261 1.499 . S
C4259 H4233 0.950 . S
C4259 C4258 1.414 . S
C4259 C4260 1.374 . S
C4260 H4234 0.950 . S
C4260 C4256 1.385 . S
C4260 C4259 1.374 . S
C4261 C4258 1.499 . S
C4261 C4262 1.373 . S
C4261 C4263 1.389 . S
C4262 H4235 0.950 . S
C4262 C4248 1.377 . S
C4262 C4261 1.373 . S
C4263 C4247 1.377 . S
C4263 C4261 1.389 . S
C4263 C4264 1.524 . S
C4264 C4263 1.524 . S
C4264 C4265 1.397 . S
C4264 C4269 1.363 . S
C4265 H4236 0.950 . S
C4265 C4264 1.397 . S
C4265 C4266 1.334 . S
C4266 H4237 0.950 . S
C4266 C4265 1.334 . S
C4266 C4267 1.287 . S
C4267 C4266 1.287 . S
C4267 C4268 1.524 . S
C4267 H4270 0.999 . S
C4268 H4238 0.950 . S
C4268 C4267 1.524 . S
C4268 C4269 1.415 . S
C4269 H4239 0.950 . S
C4269 C4264 1.363 . S
C4269 C4268 1.415 . S
H4270 C4267 0.999 . S
H4271 C4252 0.913 . S
H4272 C4290 0.951 . S
H4273 C4292 0.951 . S
H4274 C4294 0.950 . S
H4275 C4295 0.950 . S
H4276 C4297 0.950 . S
H4277 C4300 0.950 . S
H4278 C4301 0.950 . S
H4279 C4303 0.950 . S
H4280 C4304 0.950 . S
H4281 C4305 0.951 . S
H4282 C4307 0.951 . S
H4283 C4309 0.950 . S
H4284 C4310 0.950 . S
H4285 C4312 0.950 . S
H4286 C4315 0.950 . S
H4287 C4316 0.950 . S
H4288 C4318 0.950 . S
H4289 C4319 0.950 . S
C4290 H4272 0.951 . S
C4290 C4291 1.366 . S
C4290 C4292 1.388 . S
C4291 C4290 1.366 . S
C4291 C4295 1.385 . S
C4292 H4273 0.951 . S
C4292 C4290 1.388 . S
C4292 C4293 1.366 . S
C4293 C4292 1.366 . S
C4293 C4294 1.414 . S
C4293 C4296 1.499 . S
C4294 H4274 0.950 . S
C4294 C4293 1.414 . S
C4294 C4295 1.374 . S
C4295 H4275 0.950 . S
C4295 C4291 1.385 . S
C4295 C4294 1.374 . S
C4296 C4293 1.499 . S
C4296 C4297 1.373 . S
C4296 C4298 1.389 . S
C4297 H4276 0.950 . S
C4297 C4296 1.373 . S
C4297 C4313 1.377 . S
C4298 C4296 1.389 . S
C4298 C4299 1.524 . S
C4298 C4312 1.377 . S
C4299 C4298 1.524 . S
C4299 C4300 1.397 . S
C4299 C4304 1.363 . S
C4300 H4277 0.950 . S
C4300 C4299 1.397 . S
C4300 C4301 1.334 . S
C4301 H4278 0.950 . S
C4301 C4300 1.334 . S
C4301 C4302 1.287 . S
C4302 C4301 1.287 . S
C4302 C4303 1.524 . S
C4302 H4321 0.913 . S
C4303 H4279 0.950 . S
C4303 C4302 1.524 . S
C4303 C4304 1.415 . S
C4304 H4280 0.950 . S
C4304 C4299 1.363 . S
C4304 C4303 1.415 . S
C4305 H4281 0.951 . S
C4305 C4306 1.366 . S
C4305 C4307 1.388 . S
C4306 C4305 1.366 . S
C4306 C4310 1.385 . S
C4307 H4282 0.951 . S
C4307 C4305 1.388 . S
C4307 C4308 1.366 . S
C4308 C4307 1.366 . S
C4308 C4309 1.414 . S
C4308 C4311 1.499 . S
C4309 H4283 0.950 . S
C4309 C4308 1.414 . S
C4309 C4310 1.374 . S
C4310 H4284 0.950 . S
C4310 C4306 1.385 . S
C4310 C4309 1.374 . S
C4311 C4308 1.499 . S
C4311 C4312 1.373 . S
C4311 C4313 1.389 . S
C4312 H4285 0.950 . S
C4312 C4298 1.377 . S
C4312 C4311 1.373 . S
C4313 C4297 1.377 . S
C4313 C4311 1.389 . S
C4313 C4314 1.524 . S
C4314 C4313 1.524 . S
C4314 C4315 1.397 . S
C4314 C4319 1.363 . S
C4315 H4286 0.950 . S
C4315 C4314 1.397 . S
C4315 C4316 1.334 . S
C4316 H4287 0.950 . S
C4316 C4315 1.334 . S
C4316 C4317 1.287 . S
C4317 C4316 1.287 . S
C4317 C4318 1.524 . S
C4317 H4320 0.999 . S
C4318 H4288 0.950 . S
C4318 C4317 1.524 . S
C4318 C4319 1.415 . S
C4319 H4289 0.950 . S
C4319 C4314 1.363 . S
C4319 C4318 1.415 . S
H4320 C4317 0.999 . S
H4321 C4302 0.913 . S
H4322 C4340 0.951 . S
H4323 C4342 0.951 . S
H4324 C4344 0.950 . S
H4325 C4345 0.950 . S
H4326 C4347 0.950 . S
H4327 C4350 0.950 . S
H4328 C4351 0.950 . S
H4329 C4353 0.950 . S
H4330 C4354 0.950 . S
H4331 C4355 0.951 . S
H4332 C4357 0.951 . S
H4333 C4359 0.950 . S
H4334 C4360 0.950 . S
H4335 C4362 0.950 . S
H4336 C4365 0.950 . S
H4337 C4366 0.950 . S
H4338 C4368 0.950 . S
H4339 C4369 0.950 . S
C4340 H4322 0.951 . S
C4340 C4341 1.366 . S
C4340 C4342 1.388 . S
C4341 C4340 1.366 . S
C4341 C4345 1.385 . S
C4342 H4323 0.951 . S
C4342 C4340 1.388 . S
C4342 C4343 1.366 . S
C4343 C4342 1.366 . S
C4343 C4344 1.414 . S
C4343 C4346 1.499 . S
C4344 H4324 0.950 . S
C4344 C4343 1.414 . S
C4344 C4345 1.374 . S
C4345 H4325 0.950 . S
C4345 C4341 1.385 . S
C4345 C4344 1.374 . S
C4346 C4343 1.499 . S
C4346 C4347 1.373 . S
C4346 C4348 1.389 . S
C4347 H4326 0.950 . S
C4347 C4346 1.373 . S
C4347 C4363 1.377 . S
C4348 C4346 1.389 . S
C4348 C4349 1.524 . S
C4348 C4362 1.377 . S
C4349 C4348 1.524 . S
C4349 C4350 1.397 . S
C4349 C4354 1.363 . S
C4350 H4327 0.950 . S
C4350 C4349 1.397 . S
C4350 C4351 1.334 . S
C4351 H4328 0.950 . S
C4351 C4350 1.334 . S
C4351 C4352 1.287 . S
C4352 C4351 1.287 . S
C4352 C4353 1.524 . S
C4352 H4371 0.913 . S
C4353 H4329 0.950 . S
C4353 C4352 1.524 . S
C4353 C4354 1.415 . S
C4354 H4330 0.950 . S
C4354 C4349 1.363 . S
C4354 C4353 1.415 . S
C4355 H4331 0.951 . S
C4355 C4356 1.366 . S
C4355 C4357 1.388 . S
C4356 C4355 1.366 . S
C4356 C4360 1.385 . S
C4357 H4332 0.951 . S
C4357 C4355 1.388 . S
C4357 C4358 1.366 . S
C4358 C4357 1.366 . S
C4358 C4359 1.414 . S
C4358 C4361 1.499 . S
C4359 H4333 0.950 . S
C4359 C4358 1.414 . S
C4359 C4360 1.374 . S
C4360 H4334 0.950 . S
C4360 C4356 1.385 . S
C4360 C4359 1.374 . S
C4361 C4358 1.499 . S
C4361 C4362 1.373 . S
C4361 C4363 1.389 . S
C4362 H4335 0.950 . S
C4362 C4348 1.377 . S
C4362 C4361 1.373 . S
C4363 C4347 1.377 . S
C4363 C4361 1.389 . S
C4363 C4364 1.524 . S
C4364 C4363 1.524 . S
C4364 C4365 1.397 . S
C4364 C4369 1.363 . S
C4365 H4336 0.950 . S
C4365 C4364 1.397 . S
C4365 C4366 1.334 . S
C4366 H4337 0.950 . S
C4366 C4365 1.334 . S
C4366 C4367 1.287 . S
C4367 C4366 1.287 . S
C4367 C4368 1.524 . S
C4367 H4370 0.999 . S
C4368 H4338 0.950 . S
C4368 C4367 1.524 . S
C4368 C4369 1.415 . S
C4369 H4339 0.950 . S
C4369 C4364 1.363 . S
C4369 C4368 1.415 . S
H4370 C4367 0.999 . S
H4371 C4352 0.913 . S
H4372 C4390 0.951 . S
H4373 C4392 0.951 . S
H4374 C4394 0.950 . S
H4375 C4395 0.950 . S
H4376 C4397 0.950 . S
H4377 C4400 0.950 . S
H4378 C4401 0.950 . S
H4379 C4403 0.950 . S
H4380 C4404 0.950 . S
H4381 C4405 0.951 . S
H4382 C4407 0.951 . S
H4383 C4409 0.950 . S
H4384 C4410 0.950 . S
H4385 C4412 0.950 . S
H4386 C4415 0.950 . S
H4387 C4416 0.950 . S
H4388 C4418 0.950 . S
H4389 C4419 0.950 . S
C4390 H4372 0.951 . S
C4390 C4391 1.366 1_655 S
C4390 C4392 1.388 . S
C4391 C4390 1.366 1_455 S
C4391 C4395 1.385 . S
C4392 H4373 0.951 . S
C4392 C4390 1.388 . S
C4392 C4393 1.366 1_655 S
C4393 C4392 1.366 1_455 S
C4393 C4394 1.414 . S
C4393 C4396 1.499 . S
C4394 H4374 0.950 . S
C4394 C4393 1.414 . S
C4394 C4395 1.374 . S
C4395 H4375 0.950 . S
C4395 C4391 1.385 . S
C4395 C4394 1.374 . S
C4396 C4393 1.499 . S
C4396 C4397 1.373 . S
C4396 C4398 1.389 1_455 S
C4397 H4376 0.950 . S
C4397 C4396 1.373 . S
C4397 C4413 1.377 . S
C4398 C4396 1.389 1_655 S
C4398 C4399 1.524 . S
C4398 C4412 1.377 . S
C4399 C4398 1.524 . S
C4399 C4400 1.397 . S
C4399 C4404 1.363 . S
C4400 H4377 0.950 . S
C4400 C4399 1.397 . S
C4400 C4401 1.334 . S
C4401 H4378 0.950 . S
C4401 C4400 1.334 . S
C4401 C4402 1.287 . S
C4402 C4401 1.287 . S
C4402 C4403 1.524 . S
C4402 H4421 0.913 . S
C4403 H4379 0.950 . S
C4403 C4402 1.524 . S
C4403 C4404 1.415 . S
C4404 H4380 0.950 . S
C4404 C4399 1.363 . S
C4404 C4403 1.415 . S
C4405 H4381 0.951 . S
C4405 C4406 1.366 . S
C4405 C4407 1.388 . S
C4406 C4405 1.366 . S
C4406 C4410 1.385 1_455 S
C4407 H4382 0.951 . S
C4407 C4405 1.388 . S
C4407 C4408 1.366 . S
C4408 C4407 1.366 . S
C4408 C4409 1.414 1_455 S
C4408 C4411 1.499 . S
C4409 H4383 0.950 . S
C4409 C4408 1.414 1_655 S
C4409 C4410 1.374 . S
C4410 H4384 0.950 . S
C4410 C4406 1.385 1_655 S
C4410 C4409 1.374 . S
C4411 C4408 1.499 . S
C4411 C4412 1.373 1_455 S
C4411 C4413 1.389 . S
C4412 H4385 0.950 . S
C4412 C4398 1.377 . S
C4412 C4411 1.373 1_655 S
C4413 C4397 1.377 . S
C4413 C4411 1.389 . S
C4413 C4414 1.524 . S
C4414 C4413 1.524 . S
C4414 C4415 1.397 . S
C4414 C4419 1.363 . S
C4415 H4386 0.950 . S
C4415 C4414 1.397 . S
C4415 C4416 1.334 . S
C4416 H4387 0.950 . S
C4416 C4415 1.334 . S
C4416 C4417 1.287 . S
C4417 C4416 1.287 . S
C4417 C4418 1.524 . S
C4417 H4420 0.999 . S
C4418 H4388 0.950 . S
C4418 C4417 1.524 . S
C4418 C4419 1.415 . S
C4419 H4389 0.950 . S
C4419 C4414 1.363 . S
C4419 C4418 1.415 . S
H4420 C4417 0.999 . S
H4421 C4402 0.913 . S
H4422 C4440 0.951 . S
H4423 C4442 0.951 . S
H4424 C4444 0.950 . S
H4425 C4445 0.950 . S
H4426 C4447 0.950 . S
H4427 C4450 0.950 . S
H4428 C4451 0.950 . S
H4429 C4453 0.950 . S
H4430 C4454 0.950 . S
H4431 C4455 0.951 . S
H4432 C4457 0.951 . S
H4433 C4459 0.950 . S
H4434 C4460 0.950 . S
H4435 C4462 0.950 . S
H4436 C4465 0.950 . S
H4437 C4466 0.950 . S
H4438 C4468 0.950 . S
H4439 C4469 0.950 . S
C4440 H4422 0.951 . S
C4440 C4441 1.366 . S
C4440 C4442 1.388 . S
C4441 C4440 1.366 . S
C4441 C4445 1.385 . S
C4442 H4423 0.951 . S
C4442 C4440 1.388 . S
C4442 C4443 1.366 . S
C4443 C4442 1.366 . S
C4443 C4444 1.414 . S
C4443 C4446 1.499 . S
C4444 H4424 0.950 . S
C4444 C4443 1.414 . S
C4444 C4445 1.374 . S
C4445 H4425 0.950 . S
C4445 C4441 1.385 . S
C4445 C4444 1.374 . S
C4446 C4443 1.499 . S
C4446 C4447 1.373 . S
C4446 C4448 1.389 . S
C4447 H4426 0.950 . S
C4447 C4446 1.373 . S
C4447 C4463 1.377 . S
C4448 C4446 1.389 . S
C4448 C4449 1.524 . S
C4448 C4462 1.377 . S
C4449 C4448 1.524 . S
C4449 C4450 1.397 . S
C4449 C4454 1.363 . S
C4450 H4427 0.950 . S
C4450 C4449 1.397 . S
C4450 C4451 1.334 . S
C4451 H4428 0.950 . S
C4451 C4450 1.334 . S
C4451 C4452 1.287 . S
C4452 C4451 1.287 . S
C4452 C4453 1.524 . S
C4452 H4471 0.913 . S
C4453 H4429 0.950 . S
C4453 C4452 1.524 . S
C4453 C4454 1.415 . S
C4454 H4430 0.950 . S
C4454 C4449 1.363 . S
C4454 C4453 1.415 . S
C4455 H4431 0.951 . S
C4455 C4456 1.366 . S
C4455 C4457 1.388 . S
C4456 C4455 1.366 . S
C4456 C4460 1.385 . S
C4457 H4432 0.951 . S
C4457 C4455 1.388 . S
C4457 C4458 1.366 . S
C4458 C4457 1.366 . S
C4458 C4459 1.414 . S
C4458 C4461 1.499 . S
C4459 H4433 0.950 . S
C4459 C4458 1.414 . S
C4459 C4460 1.374 . S
C4460 H4434 0.950 . S
C4460 C4456 1.385 . S
C4460 C4459 1.374 . S
C4461 C4458 1.499 . S
C4461 C4462 1.373 . S
C4461 C4463 1.389 . S
C4462 H4435 0.950 . S
C4462 C4448 1.377 . S
C4462 C4461 1.373 . S
C4463 C4447 1.377 . S
C4463 C4461 1.389 . S
C4463 C4464 1.524 . S
C4464 C4463 1.524 . S
C4464 C4465 1.397 . S
C4464 C4469 1.363 . S
C4465 H4436 0.950 . S
C4465 C4464 1.397 . S
C4465 C4466 1.334 . S
C4466 H4437 0.950 . S
C4466 C4465 1.334 . S
C4466 C4467 1.287 . S
C4467 C4466 1.287 . S
C4467 C4468 1.524 . S
C4467 H4470 0.999 . S
C4468 H4438 0.950 . S
C4468 C4467 1.524 . S
C4468 C4469 1.415 . S
C4469 H4439 0.950 . S
C4469 C4464 1.363 . S
C4469 C4468 1.415 . S
H4470 C4467 0.999 . S
H4471 C4452 0.913 . S
H4472 C4490 0.951 . S
H4473 C4492 0.951 . S
H4474 C4494 0.950 . S
H4475 C4495 0.950 . S
H4476 C4497 0.950 . S
H4477 C4500 0.950 . S
H4478 C4501 0.950 . S
H4479 C4503 0.950 . S
H4480 C4504 0.950 . S
H4481 C4505 0.951 . S
H4482 C4507 0.951 . S
H4483 C4509 0.950 . S
H4484 C4510 0.950 . S
H4485 C4512 0.950 . S
H4486 C4515 0.950 . S
H4487 C4516 0.950 . S
H4488 C4518 0.950 . S
H4489 C4519 0.950 . S
C4490 H4472 0.951 . S
C4490 C4491 1.366 . S
C4490 C4492 1.388 . S
C4491 C4490 1.366 . S
C4491 C4495 1.385 . S
C4492 H4473 0.951 . S
C4492 C4490 1.388 . S
C4492 C4493 1.366 . S
C4493 C4492 1.366 . S
C4493 C4494 1.414 . S
C4493 C4496 1.499 . S
C4494 H4474 0.950 . S
C4494 C4493 1.414 . S
C4494 C4495 1.374 . S
C4495 H4475 0.950 . S
C4495 C4491 1.385 . S
C4495 C4494 1.374 . S
C4496 C4493 1.499 . S
C4496 C4497 1.373 . S
C4496 C4498 1.389 . S
C4497 H4476 0.950 . S
C4497 C4496 1.373 . S
C4497 C4513 1.377 . S
C4498 C4496 1.389 . S
C4498 C4499 1.524 . S
C4498 C4512 1.377 . S
C4499 C4498 1.524 . S
C4499 C4500 1.397 . S
C4499 C4504 1.363 . S
C4500 H4477 0.950 . S
C4500 C4499 1.397 . S
C4500 C4501 1.334 . S
C4501 H4478 0.950 . S
C4501 C4500 1.334 . S
C4501 C4502 1.287 . S
C4502 C4501 1.287 . S
C4502 C4503 1.524 . S
C4502 H4521 0.913 . S
C4503 H4479 0.950 . S
C4503 C4502 1.524 . S
C4503 C4504 1.415 . S
C4504 H4480 0.950 . S
C4504 C4499 1.363 . S
C4504 C4503 1.415 . S
C4505 H4481 0.951 . S
C4505 C4506 1.366 . S
C4505 C4507 1.388 . S
C4506 C4505 1.366 . S
C4506 C4510 1.385 . S
C4507 H4482 0.951 . S
C4507 C4505 1.388 . S
C4507 C4508 1.366 . S
C4508 C4507 1.366 . S
C4508 C4509 1.414 . S
C4508 C4511 1.499 . S
C4509 H4483 0.950 . S
C4509 C4508 1.414 . S
C4509 C4510 1.374 . S
C4510 H4484 0.950 . S
C4510 C4506 1.385 . S
C4510 C4509 1.374 . S
C4511 C4508 1.499 . S
C4511 C4512 1.373 . S
C4511 C4513 1.389 . S
C4512 H4485 0.950 . S
C4512 C4498 1.377 . S
C4512 C4511 1.373 . S
C4513 C4497 1.377 . S
C4513 C4511 1.389 . S
C4513 C4514 1.524 . S
C4514 C4513 1.524 . S
C4514 C4515 1.397 . S
C4514 C4519 1.363 . S
C4515 H4486 0.950 . S
C4515 C4514 1.397 . S
C4515 C4516 1.334 . S
C4516 H4487 0.950 . S
C4516 C4515 1.334 . S
C4516 C4517 1.287 . S
C4517 C4516 1.287 . S
C4517 C4518 1.524 . S
C4517 H4520 0.999 . S
C4518 H4488 0.950 . S
C4518 C4517 1.524 . S
C4518 C4519 1.415 . S
C4519 H4489 0.950 . S
C4519 C4514 1.363 . S
C4519 C4518 1.415 . S
H4520 C4517 0.999 . S
H4521 C4502 0.913 . S
H4522 C4540 0.951 . S
H4523 C4542 0.951 . S
H4524 C4544 0.950 . S
H4525 C4545 0.950 . S
H4526 C4547 0.950 . S
H4527 C4550 0.950 . S
H4528 C4551 0.950 . S
H4529 C4553 0.950 . S
H4530 C4554 0.950 . S
H4531 C4555 0.951 . S
H4532 C4557 0.951 . S
H4533 C4559 0.950 . S
H4534 C4560 0.950 . S
H4535 C4562 0.950 . S
H4536 C4565 0.950 . S
H4537 C4566 0.950 . S
H4538 C4568 0.950 . S
H4539 C4569 0.950 . S
C4540 H4522 0.951 . S
C4540 C4541 1.366 . S
C4540 C4542 1.388 . S
C4541 C4540 1.366 . S
C4541 C4545 1.385 . S
C4542 H4523 0.951 . S
C4542 C4540 1.388 . S
C4542 C4543 1.366 . S
C4543 C4542 1.366 . S
C4543 C4544 1.414 . S
C4543 C4546 1.499 . S
C4544 H4524 0.950 . S
C4544 C4543 1.414 . S
C4544 C4545 1.374 . S
C4545 H4525 0.950 . S
C4545 C4541 1.385 . S
C4545 C4544 1.374 . S
C4546 C4543 1.499 . S
C4546 C4547 1.373 . S
C4546 C4548 1.389 . S
C4547 H4526 0.950 . S
C4547 C4546 1.373 . S
C4547 C4563 1.377 . S
C4548 C4546 1.389 . S
C4548 C4549 1.524 . S
C4548 C4562 1.377 . S
C4549 C4548 1.524 . S
C4549 C4550 1.397 . S
C4549 C4554 1.363 . S
C4550 H4527 0.950 . S
C4550 C4549 1.397 . S
C4550 C4551 1.334 . S
C4551 H4528 0.950 . S
C4551 C4550 1.334 . S
C4551 C4552 1.287 . S
C4552 C4551 1.287 . S
C4552 C4553 1.524 . S
C4552 H4571 0.913 . S
C4553 H4529 0.950 . S
C4553 C4552 1.524 . S
C4553 C4554 1.415 . S
C4554 H4530 0.950 . S
C4554 C4549 1.363 . S
C4554 C4553 1.415 . S
C4555 H4531 0.951 . S
C4555 C4556 1.366 . S
C4555 C4557 1.388 . S
C4556 C4555 1.366 . S
C4556 C4560 1.385 . S
C4557 H4532 0.951 . S
C4557 C4555 1.388 . S
C4557 C4558 1.366 . S
C4558 C4557 1.366 . S
C4558 C4559 1.414 . S
C4558 C4561 1.499 . S
C4559 H4533 0.950 . S
C4559 C4558 1.414 . S
C4559 C4560 1.374 . S
C4560 H4534 0.950 . S
C4560 C4556 1.385 . S
C4560 C4559 1.374 . S
C4561 C4558 1.499 . S
C4561 C4562 1.373 . S
C4561 C4563 1.389 . S
C4562 H4535 0.950 . S
C4562 C4548 1.377 . S
C4562 C4561 1.373 . S
C4563 C4547 1.377 . S
C4563 C4561 1.389 . S
C4563 C4564 1.524 . S
C4564 C4563 1.524 . S
C4564 C4565 1.397 . S
C4564 C4569 1.363 . S
C4565 H4536 0.950 . S
C4565 C4564 1.397 . S
C4565 C4566 1.334 . S
C4566 H4537 0.950 . S
C4566 C4565 1.334 . S
C4566 C4567 1.287 . S
C4567 C4566 1.287 . S
C4567 C4568 1.524 . S
C4567 H4570 0.999 . S
C4568 H4538 0.950 . S
C4568 C4567 1.524 . S
C4568 C4569 1.415 . S
C4569 H4539 0.950 . S
C4569 C4564 1.363 . S
C4569 C4568 1.415 . S
H4570 C4567 0.999 . S
H4571 C4552 0.913 . S
H4572 C4590 0.951 . S
H4573 C4592 0.951 . S
H4574 C4594 0.950 . S
H4575 C4595 0.950 . S
H4576 C4597 0.950 . S
H4577 C4600 0.950 . S
H4578 C4601 0.950 . S
H4579 C4603 0.950 . S
H4580 C4604 0.950 . S
H4581 C4605 0.951 . S
H4582 C4607 0.951 . S
H4583 C4609 0.950 . S
H4584 C4610 0.950 . S
H4585 C4612 0.950 . S
H4586 C4615 0.950 . S
H4587 C4616 0.950 . S
H4588 C4618 0.950 . S
H4589 C4619 0.950 . S
C4590 H4572 0.951 . S
C4590 C4591 1.366 . S
C4590 C4592 1.388 . S
C4591 C4590 1.366 . S
C4591 C4595 1.385 1_455 S
C4592 H4573 0.951 . S
C4592 C4590 1.388 . S
C4592 C4593 1.366 . S
C4593 C4592 1.366 . S
C4593 C4594 1.414 1_455 S
C4593 C4596 1.499 . S
C4594 H4574 0.950 . S
C4594 C4593 1.414 1_655 S
C4594 C4595 1.374 . S
C4595 H4575 0.950 . S
C4595 C4591 1.385 1_655 S
C4595 C4594 1.374 . S
C4596 C4593 1.499 . S
C4596 C4597 1.373 1_455 S
C4596 C4598 1.389 . S
C4597 H4576 0.950 . S
C4597 C4596 1.373 1_655 S
C4597 C4613 1.377 . S
C4598 C4596 1.389 . S
C4598 C4599 1.524 . S
C4598 C4612 1.377 . S
C4599 C4598 1.524 . S
C4599 C4600 1.397 . S
C4599 C4604 1.363 . S
C4600 H4577 0.950 . S
C4600 C4599 1.397 . S
C4600 C4601 1.334 . S
C4601 H4578 0.950 . S
C4601 C4600 1.334 . S
C4601 C4602 1.287 . S
C4602 C4601 1.287 . S
C4602 C4603 1.524 . S
C4602 H4621 0.913 . S
C4603 H4579 0.950 . S
C4603 C4602 1.524 . S
C4603 C4604 1.415 . S
C4604 H4580 0.950 . S
C4604 C4599 1.363 . S
C4604 C4603 1.415 . S
C4605 H4581 0.951 . S
C4605 C4606 1.366 1_655 S
C4605 C4607 1.388 . S
C4606 C4605 1.366 1_455 S
C4606 C4610 1.385 . S
C4607 H4582 0.951 . S
C4607 C4605 1.388 . S
C4607 C4608 1.366 1_655 S
C4608 C4607 1.366 1_455 S
C4608 C4609 1.414 . S
C4608 C4611 1.499 . S
C4609 H4583 0.950 . S
C4609 C4608 1.414 . S
C4609 C4610 1.374 . S
C4610 H4584 0.950 . S
C4610 C4606 1.385 . S
C4610 C4609 1.374 . S
C4611 C4608 1.499 . S
C4611 C4612 1.373 . S
C4611 C4613 1.389 1_455 S
C4612 H4585 0.950 . S
C4612 C4598 1.377 . S
C4612 C4611 1.373 . S
C4613 C4597 1.377 . S
C4613 C4611 1.389 1_655 S
C4613 C4614 1.524 . S
C4614 C4613 1.524 . S
C4614 C4615 1.397 . S
C4614 C4619 1.363 . S
C4615 H4586 0.950 . S
C4615 C4614 1.397 . S
C4615 C4616 1.334 . S
C4616 H4587 0.950 . S
C4616 C4615 1.334 . S
C4616 C4617 1.287 . S
C4617 C4616 1.287 . S
C4617 C4618 1.524 . S
C4617 H4620 0.999 . S
C4618 H4588 0.950 . S
C4618 C4617 1.524 . S
C4618 C4619 1.415 . S
C4619 H4589 0.950 . S
C4619 C4614 1.363 . S
C4619 C4618 1.415 . S
H4620 C4617 0.999 . S
H4621 C4602 0.913 . S
H4622 C4640 0.951 . S
H4623 C4642 0.951 . S
H4624 C4644 0.950 . S
H4625 C4645 0.950 . S
H4626 C4647 0.950 . S
H4627 C4650 0.950 . S
H4628 C4651 0.950 . S
H4629 C4653 0.950 . S
H4630 C4654 0.950 . S
H4631 C4655 0.951 . S
H4632 C4657 0.951 . S
H4633 C4659 0.950 . S
H4634 C4660 0.950 . S
H4635 C4662 0.950 . S
H4636 C4665 0.950 . S
H4637 C4666 0.950 . S
H4638 C4668 0.950 . S
H4639 C4669 0.950 . S
C4640 H4622 0.951 . S
C4640 C4641 1.366 . S
C4640 C4642 1.388 . S
C4641 C4640 1.366 . S
C4641 C4645 1.385 . S
C4642 H4623 0.951 . S
C4642 C4640 1.388 . S
C4642 C4643 1.366 . S
C4643 C4642 1.366 . S
C4643 C4644 1.414 . S
C4643 C4646 1.499 . S
C4644 H4624 0.950 . S
C4644 C4643 1.414 . S
C4644 C4645 1.374 . S
C4645 H4625 0.950 . S
C4645 C4641 1.385 . S
C4645 C4644 1.374 . S
C4646 C4643 1.499 . S
C4646 C4647 1.373 . S
C4646 C4648 1.389 . S
C4647 H4626 0.950 . S
C4647 C4646 1.373 . S
C4647 C4663 1.377 . S
C4648 C4646 1.389 . S
C4648 C4649 1.524 . S
C4648 C4662 1.377 . S
C4649 C4648 1.524 . S
C4649 C4650 1.397 . S
C4649 C4654 1.363 . S
C4650 H4627 0.950 . S
C4650 C4649 1.397 . S
C4650 C4651 1.334 . S
C4651 H4628 0.950 . S
C4651 C4650 1.334 . S
C4651 C4652 1.287 . S
C4652 C4651 1.287 . S
C4652 C4653 1.524 . S
C4652 H4671 0.913 . S
C4653 H4629 0.950 . S
C4653 C4652 1.524 . S
C4653 C4654 1.415 . S
C4654 H4630 0.950 . S
C4654 C4649 1.363 . S
C4654 C4653 1.415 . S
C4655 H4631 0.951 . S
C4655 C4656 1.366 . S
C4655 C4657 1.388 . S
C4656 C4655 1.366 . S
C4656 C4660 1.385 . S
C4657 H4632 0.951 . S
C4657 C4655 1.388 . S
C4657 C4658 1.366 . S
C4658 C4657 1.366 . S
C4658 C4659 1.414 . S
C4658 C4661 1.499 . S
C4659 H4633 0.950 . S
C4659 C4658 1.414 . S
C4659 C4660 1.374 . S
C4660 H4634 0.950 . S
C4660 C4656 1.385 . S
C4660 C4659 1.374 . S
C4661 C4658 1.499 . S
C4661 C4662 1.373 . S
C4661 C4663 1.389 . S
C4662 H4635 0.950 . S
C4662 C4648 1.377 . S
C4662 C4661 1.373 . S
C4663 C4647 1.377 . S
C4663 C4661 1.389 . S
C4663 C4664 1.524 . S
C4664 C4663 1.524 . S
C4664 C4665 1.397 . S
C4664 C4669 1.363 . S
C4665 H4636 0.950 . S
C4665 C4664 1.397 . S
C4665 C4666 1.334 . S
C4666 H4637 0.950 . S
C4666 C4665 1.334 . S
C4666 C4667 1.287 . S
C4667 C4666 1.287 . S
C4667 C4668 1.524 . S
C4667 H4670 0.999 . S
C4668 H4638 0.950 . S
C4668 C4667 1.524 . S
C4668 C4669 1.415 . S
C4669 H4639 0.950 . S
C4669 C4664 1.363 . S
C4669 C4668 1.415 . S
H4670 C4667 0.999 . S
H4671 C4652 0.913 . S
H4672 C4690 0.951 . S
H4673 C4692 0.951 . S
H4674 C4694 0.950 . S
H4675 C4695 0.950 . S
H4676 C4697 0.950 . S
H4677 C4700 0.950 . S
H4678 C4701 0.950 . S
H4679 C4703 0.950 . S
H4680 C4704 0.950 . S
H4681 C4705 0.951 . S
H4682 C4707 0.951 . S
H4683 C4709 0.950 . S
H4684 C4710 0.950 . S
H4685 C4712 0.950 . S
H4686 C4715 0.950 . S
H4687 C4716 0.950 . S
H4688 C4718 0.950 . S
H4689 C4719 0.950 . S
C4690 H4672 0.951 . S
C4690 C4691 1.366 . S
C4690 C4692 1.388 . S
C4691 C4690 1.366 . S
C4691 C4695 1.385 . S
C4692 H4673 0.951 . S
C4692 C4690 1.388 . S
C4692 C4693 1.366 . S
C4693 C4692 1.366 . S
C4693 C4694 1.414 . S
C4693 C4696 1.499 . S
C4694 H4674 0.950 . S
C4694 C4693 1.414 . S
C4694 C4695 1.374 . S
C4695 H4675 0.950 . S
C4695 C4691 1.385 . S
C4695 C4694 1.374 . S
C4696 C4693 1.499 . S
C4696 C4697 1.373 . S
C4696 C4698 1.389 . S
C4697 H4676 0.950 . S
C4697 C4696 1.373 . S
C4697 C4713 1.377 . S
C4698 C4696 1.389 . S
C4698 C4699 1.524 . S
C4698 C4712 1.377 . S
C4699 C4698 1.524 . S
C4699 C4700 1.397 . S
C4699 C4704 1.363 . S
C4700 H4677 0.950 . S
C4700 C4699 1.397 . S
C4700 C4701 1.334 . S
C4701 H4678 0.950 . S
C4701 C4700 1.334 . S
C4701 C4702 1.287 . S
C4702 C4701 1.287 . S
C4702 C4703 1.524 . S
C4702 H4721 0.913 . S
C4703 H4679 0.950 . S
C4703 C4702 1.524 . S
C4703 C4704 1.415 . S
C4704 H4680 0.950 . S
C4704 C4699 1.363 . S
C4704 C4703 1.415 . S
C4705 H4681 0.951 . S
C4705 C4706 1.366 . S
C4705 C4707 1.388 . S
C4706 C4705 1.366 . S
C4706 C4710 1.385 . S
C4707 H4682 0.951 . S
C4707 C4705 1.388 . S
C4707 C4708 1.366 . S
C4708 C4707 1.366 . S
C4708 C4709 1.414 . S
C4708 C4711 1.499 . S
C4709 H4683 0.950 . S
C4709 C4708 1.414 . S
C4709 C4710 1.374 . S
C4710 H4684 0.950 . S
C4710 C4706 1.385 . S
C4710 C4709 1.374 . S
C4711 C4708 1.499 . S
C4711 C4712 1.373 . S
C4711 C4713 1.389 . S
C4712 H4685 0.950 . S
C4712 C4698 1.377 . S
C4712 C4711 1.373 . S
C4713 C4697 1.377 . S
C4713 C4711 1.389 . S
C4713 C4714 1.524 . S
C4714 C4713 1.524 . S
C4714 C4715 1.397 . S
C4714 C4719 1.363 . S
C4715 H4686 0.950 . S
C4715 C4714 1.397 . S
C4715 C4716 1.334 . S
C4716 H4687 0.950 . S
C4716 C4715 1.334 . S
C4716 C4717 1.287 . S
C4717 C4716 1.287 . S
C4717 C4718 1.524 . S
C4717 H4720 0.999 . S
C4718 H4688 0.950 . S
C4718 C4717 1.524 . S
C4718 C4719 1.415 . S
C4719 H4689 0.950 . S
C4719 C4714 1.363 . S
C4719 C4718 1.415 . S
H4720 C4717 0.999 . S
H4721 C4702 0.913 . S
H4722 C4740 0.951 . S
H4723 C4742 0.951 . S
H4724 C4744 0.950 . S
H4725 C4745 0.950 . S
H4726 C4747 0.950 . S
H4727 C4750 0.950 . S
H4728 C4751 0.950 . S
H4729 C4753 0.950 . S
H4730 C4754 0.950 . S
H4731 C4755 0.951 . S
H4732 C4757 0.951 . S
H4733 C4759 0.950 . S
H4734 C4760 0.950 . S
H4735 C4762 0.950 . S
H4736 C4765 0.950 . S
H4737 C4766 0.950 . S
H4738 C4768 0.950 . S
H4739 C4769 0.950 . S
C4740 H4722 0.951 . S
C4740 C4741 1.366 . S
C4740 C4742 1.388 . S
C4741 C4740 1.366 . S
C4741 C4745 1.385 . S
C4742 H4723 0.951 . S
C4742 C4740 1.388 . S
C4742 C4743 1.366 . S
C4743 C4742 1.366 . S
C4743 C4744 1.414 . S
C4743 C4746 1.499 . S
C4744 H4724 0.950 . S
C4744 C4743 1.414 . S
C4744 C4745 1.374 . S
C4745 H4725 0.950 . S
C4745 C4741 1.385 . S
C4745 C4744 1.374 . S
C4746 C4743 1.499 . S
C4746 C4747 1.373 . S
C4746 C4748 1.389 . S
C4747 H4726 0.950 . S
C4747 C4746 1.373 . S
C4747 C4763 1.377 . S
C4748 C4746 1.389 . S
C4748 C4749 1.524 . S
C4748 C4762 1.377 . S
C4749 C4748 1.524 . S
C4749 C4750 1.397 . S
C4749 C4754 1.363 . S
C4750 H4727 0.950 . S
C4750 C4749 1.397 . S
C4750 C4751 1.334 . S
C4751 H4728 0.950 . S
C4751 C4750 1.334 . S
C4751 C4752 1.287 . S
C4752 C4751 1.287 . S
C4752 C4753 1.524 . S
C4752 H4771 0.913 . S
C4753 H4729 0.950 . S
C4753 C4752 1.524 . S
C4753 C4754 1.415 . S
C4754 H4730 0.950 . S
C4754 C4749 1.363 . S
C4754 C4753 1.415 . S
C4755 H4731 0.951 . S
C4755 C4756 1.366 . S
C4755 C4757 1.388 . S
C4756 C4755 1.366 . S
C4756 C4760 1.385 . S
C4757 H4732 0.951 . S
C4757 C4755 1.388 . S
C4757 C4758 1.366 . S
C4758 C4757 1.366 . S
C4758 C4759 1.414 . S
C4758 C4761 1.499 . S
C4759 H4733 0.950 . S
C4759 C4758 1.414 . S
C4759 C4760 1.374 . S
C4760 H4734 0.950 . S
C4760 C4756 1.385 . S
C4760 C4759 1.374 . S
C4761 C4758 1.499 . S
C4761 C4762 1.373 . S
C4761 C4763 1.389 . S
C4762 H4735 0.950 . S
C4762 C4748 1.377 . S
C4762 C4761 1.373 . S
C4763 C4747 1.377 . S
C4763 C4761 1.389 . S
C4763 C4764 1.524 . S
C4764 C4763 1.524 . S
C4764 C4765 1.397 . S
C4764 C4769 1.363 . S
C4765 H4736 0.950 . S
C4765 C4764 1.397 . S
C4765 C4766 1.334 . S
C4766 H4737 0.950 . S
C4766 C4765 1.334 . S
C4766 C4767 1.287 . S
C4767 C4766 1.287 . S
C4767 C4768 1.524 . S
C4767 H4770 0.999 . S
C4768 H4738 0.950 . S
C4768 C4767 1.524 . S
C4768 C4769 1.415 . S
C4769 H4739 0.950 . S
C4769 C4764 1.363 . S
C4769 C4768 1.415 . S
H4770 C4767 0.999 . S
H4771 C4752 0.913 . S
H4772 C4790 0.951 . S
H4773 C4792 0.951 . S
H4774 C4794 0.950 . S
H4775 C4795 0.950 . S
H4776 C4797 0.950 . S
H4777 C4800 0.950 . S
H4778 C4801 0.950 . S
H4779 C4803 0.950 . S
H4780 C4804 0.950 . S
H4781 C4805 0.951 . S
H4782 C4807 0.951 . S
H4783 C4809 0.950 . S
H4784 C4810 0.950 . S
H4785 C4812 0.950 . S
H4786 C4815 0.950 . S
H4787 C4816 0.950 . S
H4788 C4818 0.950 . S
H4789 C4819 0.950 . S
C4790 H4772 0.951 . S
C4790 C4791 1.366 . S
C4790 C4792 1.388 . S
C4791 C4790 1.366 . S
C4791 C4795 1.385 . S
C4792 H4773 0.951 . S
C4792 C4790 1.388 . S
C4792 C4793 1.366 . S
C4793 C4792 1.366 . S
C4793 C4794 1.414 . S
C4793 C4796 1.499 . S
C4794 H4774 0.950 . S
C4794 C4793 1.414 . S
C4794 C4795 1.374 . S
C4795 H4775 0.950 . S
C4795 C4791 1.385 . S
C4795 C4794 1.374 . S
C4796 C4793 1.499 . S
C4796 C4797 1.373 . S
C4796 C4798 1.389 . S
C4797 H4776 0.950 . S
C4797 C4796 1.373 . S
C4797 C4813 1.377 . S
C4798 C4796 1.389 . S
C4798 C4799 1.524 . S
C4798 C4812 1.377 . S
C4799 C4798 1.524 . S
C4799 C4800 1.397 . S
C4799 C4804 1.363 . S
C4800 H4777 0.950 . S
C4800 C4799 1.397 . S
C4800 C4801 1.334 . S
C4801 H4778 0.950 . S
C4801 C4800 1.334 . S
C4801 C4802 1.287 . S
C4802 C4801 1.287 . S
C4802 C4803 1.524 . S
C4802 H4821 0.913 . S
C4803 H4779 0.950 . S
C4803 C4802 1.524 . S
C4803 C4804 1.415 . S
C4804 H4780 0.950 . S
C4804 C4799 1.363 . S
C4804 C4803 1.415 . S
C4805 H4781 0.951 . S
C4805 C4806 1.366 . S
C4805 C4807 1.388 . S
C4806 C4805 1.366 . S
C4806 C4810 1.385 . S
C4807 H4782 0.951 . S
C4807 C4805 1.388 . S
C4807 C4808 1.366 . S
C4808 C4807 1.366 . S
C4808 C4809 1.414 . S
C4808 C4811 1.499 . S
C4809 H4783 0.950 . S
C4809 C4808 1.414 . S
C4809 C4810 1.374 . S
C4810 H4784 0.950 . S
C4810 C4806 1.385 . S
C4810 C4809 1.374 . S
C4811 C4808 1.499 . S
C4811 C4812 1.373 . S
C4811 C4813 1.389 . S
C4812 H4785 0.950 . S
C4812 C4798 1.377 . S
C4812 C4811 1.373 . S
C4813 C4797 1.377 . S
C4813 C4811 1.389 . S
C4813 C4814 1.524 . S
C4814 C4813 1.524 . S
C4814 C4815 1.397 . S
C4814 C4819 1.363 . S
C4815 H4786 0.950 . S
C4815 C4814 1.397 . S
C4815 C4816 1.334 . S
C4816 H4787 0.950 . S
C4816 C4815 1.334 . S
C4816 C4817 1.287 . S
C4817 C4816 1.287 . S
C4817 C4818 1.524 . S
C4817 H4820 0.999 . S
C4818 H4788 0.950 . S
C4818 C4817 1.524 . S
C4818 C4819 1.415 . S
C4819 H4789 0.950 . S
C4819 C4814 1.363 . S
C4819 C4818 1.415 . S
H4820 C4817 0.999 . S
H4821 C4802 0.913 . S
H4822 C4840 0.951 . S
H4823 C4842 0.951 . S
H4824 C4844 0.950 . S
H4825 C4845 0.950 . S
H4826 C4847 0.950 . S
H4827 C4850 0.950 . S
H4828 C4851 0.950 . S
H4829 C4853 0.950 . S
H4830 C4854 0.950 . S
H4831 C4855 0.951 . S
H4832 C4857 0.951 . S
H4833 C4859 0.950 . S
H4834 C4860 0.950 . S
H4835 C4862 0.950 . S
H4836 C4865 0.950 . S
H4837 C4866 0.950 . S
H4838 C4868 0.950 . S
H4839 C4869 0.950 . S
C4840 H4822 0.951 . S
C4840 C4841 1.366 . S
C4840 C4842 1.388 . S
C4841 C4840 1.366 . S
C4841 C4845 1.385 . S
C4842 H4823 0.951 . S
C4842 C4840 1.388 . S
C4842 C4843 1.366 . S
C4843 C4842 1.366 . S
C4843 C4844 1.414 . S
C4843 C4846 1.499 . S
C4844 H4824 0.950 . S
C4844 C4843 1.414 . S
C4844 C4845 1.374 . S
C4845 H4825 0.950 . S
C4845 C4841 1.385 . S
C4845 C4844 1.374 . S
C4846 C4843 1.499 . S
C4846 C4847 1.373 . S
C4846 C4848 1.389 . S
C4847 H4826 0.950 . S
C4847 C4846 1.373 . S
C4847 C4863 1.377 . S
C4848 C4846 1.389 . S
C4848 C4849 1.524 . S
C4848 C4862 1.377 . S
C4849 C4848 1.524 . S
C4849 C4850 1.397 . S
C4849 C4854 1.363 . S
C4850 H4827 0.950 . S
C4850 C4849 1.397 . S
C4850 C4851 1.334 . S
C4851 H4828 0.950 . S
C4851 C4850 1.334 . S
C4851 C4852 1.287 . S
C4852 C4851 1.287 . S
C4852 C4853 1.524 . S
C4852 H4871 0.913 . S
C4853 H4829 0.950 . S
C4853 C4852 1.524 . S
C4853 C4854 1.415 . S
C4854 H4830 0.950 . S
C4854 C4849 1.363 . S
C4854 C4853 1.415 . S
C4855 H4831 0.951 . S
C4855 C4856 1.366 . S
C4855 C4857 1.388 . S
C4856 C4855 1.366 . S
C4856 C4860 1.385 . S
C4857 H4832 0.951 . S
C4857 C4855 1.388 . S
C4857 C4858 1.366 . S
C4858 C4857 1.366 . S
C4858 C4859 1.414 . S
C4858 C4861 1.499 . S
C4859 H4833 0.950 . S
C4859 C4858 1.414 . S
C4859 C4860 1.374 . S
C4860 H4834 0.950 . S
C4860 C4856 1.385 . S
C4860 C4859 1.374 . S
C4861 C4858 1.499 . S
C4861 C4862 1.373 . S
C4861 C4863 1.389 . S
C4862 H4835 0.950 . S
C4862 C4848 1.377 . S
C4862 C4861 1.373 . S
C4863 C4847 1.377 . S
C4863 C4861 1.389 . S
C4863 C4864 1.524 . S
C4864 C4863 1.524 . S
C4864 C4865 1.397 . S
C4864 C4869 1.363 . S
C4865 H4836 0.950 . S
C4865 C4864 1.397 . S
C4865 C4866 1.334 . S
C4866 H4837 0.950 . S
C4866 C4865 1.334 . S
C4866 C4867 1.287 . S
C4867 C4866 1.287 . S
C4867 C4868 1.524 . S
C4867 H4870 0.999 . S
C4868 H4838 0.950 . S
C4868 C4867 1.524 . S
C4868 C4869 1.415 . S
C4869 H4839 0.950 . S
C4869 C4864 1.363 . S
C4869 C4868 1.415 . S
H4870 C4867 0.999 . S
H4871 C4852 0.913 . S
H4872 C4890 0.951 . S
H4873 C4892 0.951 . S
H4874 C4894 0.950 . S
H4875 C4895 0.950 . S
H4876 C4897 0.950 . S
H4877 C4900 0.950 . S
H4878 C4901 0.950 . S
H4879 C4903 0.950 . S
H4880 C4904 0.950 . S
H4881 C4905 0.951 . S
H4882 C4907 0.951 . S
H4883 C4909 0.950 . S
H4884 C4910 0.950 . S
H4885 C4912 0.950 . S
H4886 C4915 0.950 . S
H4887 C4916 0.950 . S
H4888 C4918 0.950 . S
H4889 C4919 0.950 . S
C4890 H4872 0.951 . S
C4890 C4891 1.366 . S
C4890 C4892 1.388 . S
C4891 C4890 1.366 . S
C4891 C4895 1.385 . S
C4892 H4873 0.951 . S
C4892 C4890 1.388 . S
C4892 C4893 1.366 . S
C4893 C4892 1.366 . S
C4893 C4894 1.414 . S
C4893 C4896 1.499 . S
C4894 H4874 0.950 . S
C4894 C4893 1.414 . S
C4894 C4895 1.374 . S
C4895 H4875 0.950 . S
C4895 C4891 1.385 . S
C4895 C4894 1.374 . S
C4896 C4893 1.499 . S
C4896 C4897 1.373 . S
C4896 C4898 1.389 . S
C4897 H4876 0.950 . S
C4897 C4896 1.373 . S
C4897 C4913 1.377 . S
C4898 C4896 1.389 . S
C4898 C4899 1.524 . S
C4898 C4912 1.377 . S
C4899 C4898 1.524 . S
C4899 C4900 1.397 . S
C4899 C4904 1.363 . S
C4900 H4877 0.950 . S
C4900 C4899 1.397 . S
C4900 C4901 1.334 . S
C4901 H4878 0.950 . S
C4901 C4900 1.334 . S
C4901 C4902 1.287 . S
C4902 C4901 1.287 . S
C4902 C4903 1.524 . S
C4902 H4921 0.913 . S
C4903 H4879 0.950 . S
C4903 C4902 1.524 . S
C4903 C4904 1.415 . S
C4904 H4880 0.950 . S
C4904 C4899 1.363 . S
C4904 C4903 1.415 . S
C4905 H4881 0.951 . S
C4905 C4906 1.366 . S
C4905 C4907 1.388 . S
C4906 C4905 1.366 . S
C4906 C4910 1.385 . S
C4907 H4882 0.951 . S
C4907 C4905 1.388 . S
C4907 C4908 1.366 . S
C4908 C4907 1.366 . S
C4908 C4909 1.414 . S
C4908 C4911 1.499 . S
C4909 H4883 0.950 . S
C4909 C4908 1.414 . S
C4909 C4910 1.374 . S
C4910 H4884 0.950 . S
C4910 C4906 1.385 . S
C4910 C4909 1.374 . S
C4911 C4908 1.499 . S
C4911 C4912 1.373 . S
C4911 C4913 1.389 . S
C4912 H4885 0.950 . S
C4912 C4898 1.377 . S
C4912 C4911 1.373 . S
C4913 C4897 1.377 . S
C4913 C4911 1.389 . S
C4913 C4914 1.524 . S
C4914 C4913 1.524 . S
C4914 C4915 1.397 . S
C4914 C4919 1.363 . S
C4915 H4886 0.950 . S
C4915 C4914 1.397 . S
C4915 C4916 1.334 . S
C4916 H4887 0.950 . S
C4916 C4915 1.334 . S
C4916 C4917 1.287 . S
C4917 C4916 1.287 . S
C4917 C4918 1.524 . S
C4917 H4920 0.999 . S
C4918 H4888 0.950 . S
C4918 C4917 1.524 . S
C4918 C4919 1.415 . S
C4919 H4889 0.950 . S
C4919 C4914 1.363 . S
C4919 C4918 1.415 . S
H4920 C4917 0.999 . S
H4921 C4902 0.913 . S
H4922 C4940 0.951 . S
H4923 C4942 0.951 . S
H4924 C4944 0.950 . S
H4925 C4945 0.950 . S
H4926 C4947 0.950 . S
H4927 C4950 0.950 . S
H4928 C4951 0.950 . S
H4929 C4953 0.950 . S
H4930 C4954 0.950 . S
H4931 C4955 0.951 . S
H4932 C4957 0.951 . S
H4933 C4959 0.950 . S
H4934 C4960 0.950 . S
H4935 C4962 0.950 . S
H4936 C4965 0.950 . S
H4937 C4966 0.950 . S
H4938 C4968 0.950 . S
H4939 C4969 0.950 . S
C4940 H4922 0.951 . S
C4940 C4941 1.366 . S
C4940 C4942 1.388 . S
C4941 C4940 1.366 . S
C4941 C4945 1.385 . S
C4942 H4923 0.951 . S
C4942 C4940 1.388 . S
C4942 C4943 1.366 . S
C4943 C4942 1.366 . S
C4943 C4944 1.414 . S
C4943 C4946 1.499 . S
C4944 H4924 0.950 . S
C4944 C4943 1.414 . S
C4944 C4945 1.374 . S
C4945 H4925 0.950 . S
C4945 C4941 1.385 . S
C4945 C4944 1.374 . S
C4946 C4943 1.499 . S
C4946 C4947 1.373 . S
C4946 C4948 1.389 . S
C4947 H4926 0.950 . S
C4947 C4946 1.373 . S
C4947 C4963 1.377 . S
C4948 C4946 1.389 . S
C4948 C4949 1.524 . S
C4948 C4962 1.377 . S
C4949 C4948 1.524 . S
C4949 C4950 1.397 . S
C4949 C4954 1.363 . S
C4950 H4927 0.950 . S
C4950 C4949 1.397 . S
C4950 C4951 1.334 . S
C4951 H4928 0.950 . S
C4951 C4950 1.334 . S
C4951 C4952 1.287 . S
C4952 C4951 1.287 . S
C4952 C4953 1.524 . S
C4952 H4971 0.913 . S
C4953 H4929 0.950 . S
C4953 C4952 1.524 . S
C4953 C4954 1.415 . S
C4954 H4930 0.950 . S
C4954 C4949 1.363 . S
C4954 C4953 1.415 . S
C4955 H4931 0.951 . S
C4955 C4956 1.366 . S
C4955 C4957 1.388 . S
C4956 C4955 1.366 . S
C4956 C4960 1.385 . S
C4957 H4932 0.951 . S
C4957 C4955 1.388 . S
C4957 C4958 1.366 . S
C4958 C4957 1.366 . S
C4958 C4959 1.414 . S
C4958 C4961 1.499 . S
C4959 H4933 0.950 . S
C4959 C4958 1.414 . S
C4959 C4960 1.374 . S
C4960 H4934 0.950 . S
C4960 C4956 1.385 . S
C4960 C4959 1.374 . S
C4961 C4958 1.499 . S
C4961 C4962 1.373 . S
C4961 C4963 1.389 . S
C4962 H4935 0.950 . S
C4962 C4948 1.377 . S
C4962 C4961 1.373 . S
C4963 C4947 1.377 . S
C4963 C4961 1.389 . S
C4963 C4964 1.524 . S
C4964 C4963 1.524 . S
C4964 C4965 1.397 . S
C4964 C4969 1.363 . S
C4965 H4936 0.950 . S
C4965 C4964 1.397 . S
C4965 C4966 1.334 . S
C4966 H4937 0.950 . S
C4966 C4965 1.334 . S
C4966 C4967 1.287 . S
C4967 C4966 1.287 . S
C4967 C4968 1.524 . S
C4967 H4970 0.999 . S
C4968 H4938 0.950 . S
C4968 C4967 1.524 . S
C4968 C4969 1.415 . S
C4969 H4939 0.950 . S
C4969 C4964 1.363 . S
C4969 C4968 1.415 . S
H4970 C4967 0.999 . S
H4971 C4952 0.913 . S
H4972 C4990 0.951 . S
H4973 C4992 0.951 . S
H4974 C4994 0.950 . S
H4975 C4995 0.950 . S
H4976 C4997 0.950 . S
H4977 C5000 0.950 . S
H4978 C5001 0.950 . S
H4979 C5003 0.950 . S
H4980 C5004 0.950 . S
H4981 C5005 0.951 . S
H4982 C5007 0.951 . S
H4983 C5009 0.950 . S
H4984 C5010 0.950 . S
H4985 C5012 0.950 . S
H4986 C5015 0.950 . S
H4987 C5016 0.950 . S
H4988 C5018 0.950 . S
H4989 C5019 0.950 . S
C4990 H4972 0.951 . S
C4990 C4991 1.366 . S
C4990 C4992 1.388 . S
C4991 C4990 1.366 . S
C4991 C4995 1.385 . S
C4992 H4973 0.951 . S
C4992 C4990 1.388 . S
C4992 C4993 1.366 . S
C4993 C4992 1.366 . S
C4993 C4994 1.414 . S
C4993 C4996 1.499 . S
C4994 H4974 0.950 . S
C4994 C4993 1.414 . S
C4994 C4995 1.374 . S
C4995 H4975 0.950 . S
C4995 C4991 1.385 . S
C4995 C4994 1.374 . S
C4996 C4993 1.499 . S
C4996 C4997 1.373 . S
C4996 C4998 1.389 . S
C4997 H4976 0.950 . S
C4997 C4996 1.373 . S
C4997 C5013 1.377 . S
C4998 C4996 1.389 . S
C4998 C4999 1.524 . S
C4998 C5012 1.377 . S
C4999 C4998 1.524 . S
C4999 C5000 1.397 . S
C4999 C5004 1.363 . S
C5000 H4977 0.950 . S
C5000 C4999 1.397 . S
C5000 C5001 1.334 . S
C5001 H4978 0.950 . S
C5001 C5000 1.334 . S
C5001 C5002 1.287 . S
C5002 C5001 1.287 . S
C5002 C5003 1.524 . S
C5002 H5021 0.913 . S
C5003 H4979 0.950 . S
C5003 C5002 1.524 . S
C5003 C5004 1.415 . S
C5004 H4980 0.950 . S
C5004 C4999 1.363 . S
C5004 C5003 1.415 . S
C5005 H4981 0.951 . S
C5005 C5006 1.366 . S
C5005 C5007 1.388 . S
C5006 C5005 1.366 . S
C5006 C5010 1.385 . S
C5007 H4982 0.951 . S
C5007 C5005 1.388 . S
C5007 C5008 1.366 . S
C5008 C5007 1.366 . S
C5008 C5009 1.414 . S
C5008 C5011 1.499 . S
C5009 H4983 0.950 . S
C5009 C5008 1.414 . S
C5009 C5010 1.374 . S
C5010 H4984 0.950 . S
C5010 C5006 1.385 . S
C5010 C5009 1.374 . S
C5011 C5008 1.499 . S
C5011 C5012 1.373 . S
C5011 C5013 1.389 . S
C5012 H4985 0.950 . S
C5012 C4998 1.377 . S
C5012 C5011 1.373 . S
C5013 C4997 1.377 . S
C5013 C5011 1.389 . S
C5013 C5014 1.524 . S
C5014 C5013 1.524 . S
C5014 C5015 1.397 . S
C5014 C5019 1.363 . S
C5015 H4986 0.950 . S
C5015 C5014 1.397 . S
C5015 C5016 1.334 . S
C5016 H4987 0.950 . S
C5016 C5015 1.334 . S
C5016 C5017 1.287 . S
C5017 C5016 1.287 . S
C5017 C5018 1.524 . S
C5017 H5020 0.999 . S
C5018 H4988 0.950 . S
C5018 C5017 1.524 . S
C5018 C5019 1.415 . S
C5019 H4989 0.950 . S
C5019 C5014 1.363 . S
C5019 C5018 1.415 . S
H5020 C5017 0.999 . S
H5021 C5002 0.913 . S
H5022 C5040 0.951 . S
H5023 C5042 0.951 . S
H5024 C5044 0.950 . S
H5025 C5045 0.950 . S
H5026 C5047 0.950 . S
H5027 C5050 0.950 . S
H5028 C5051 0.950 . S
H5029 C5053 0.950 . S
H5030 C5054 0.950 . S
H5031 C5055 0.951 . S
H5032 C5057 0.951 . S
H5033 C5059 0.950 . S
H5034 C5060 0.950 . S
H5035 C5062 0.950 . S
H5036 C5065 0.950 . S
H5037 C5066 0.950 . S
H5038 C5068 0.950 . S
H5039 C5069 0.950 . S
C5040 H5022 0.951 . S
C5040 C5041 1.366 . S
C5040 C5042 1.388 . S
C5041 C5040 1.366 . S
C5041 C5045 1.385 . S
C5042 H5023 0.951 . S
C5042 C5040 1.388 . S
C5042 C5043 1.366 . S
C5043 C5042 1.366 . S
C5043 C5044 1.414 . S
C5043 C5046 1.499 . S
C5044 H5024 0.950 . S
C5044 C5043 1.414 . S
C5044 C5045 1.374 . S
C5045 H5025 0.950 . S
C5045 C5041 1.385 . S
C5045 C5044 1.374 . S
C5046 C5043 1.499 . S
C5046 C5047 1.373 . S
C5046 C5048 1.389 . S
C5047 H5026 0.950 . S
C5047 C5046 1.373 . S
C5047 C5063 1.377 . S
C5048 C5046 1.389 . S
C5048 C5049 1.524 . S
C5048 C5062 1.377 . S
C5049 C5048 1.524 . S
C5049 C5050 1.397 . S
C5049 C5054 1.363 . S
C5050 H5027 0.950 . S
C5050 C5049 1.397 . S
C5050 C5051 1.334 . S
C5051 H5028 0.950 . S
C5051 C5050 1.334 . S
C5051 C5052 1.287 . S
C5052 C5051 1.287 . S
C5052 C5053 1.524 . S
C5052 H5071 0.913 . S
C5053 H5029 0.950 . S
C5053 C5052 1.524 . S
C5053 C5054 1.415 . S
C5054 H5030 0.950 . S
C5054 C5049 1.363 . S
C5054 C5053 1.415 . S
C5055 H5031 0.951 . S
C5055 C5056 1.366 . S
C5055 C5057 1.388 . S
C5056 C5055 1.366 . S
C5056 C5060 1.385 . S
C5057 H5032 0.951 . S
C5057 C5055 1.388 . S
C5057 C5058 1.366 . S
C5058 C5057 1.366 . S
C5058 C5059 1.414 . S
C5058 C5061 1.499 . S
C5059 H5033 0.950 . S
C5059 C5058 1.414 . S
C5059 C5060 1.374 . S
C5060 H5034 0.950 . S
C5060 C5056 1.385 . S
C5060 C5059 1.374 . S
C5061 C5058 1.499 . S
C5061 C5062 1.373 . S
C5061 C5063 1.389 . S
C5062 H5035 0.950 . S
C5062 C5048 1.377 . S
C5062 C5061 1.373 . S
C5063 C5047 1.377 . S
C5063 C5061 1.389 . S
C5063 C5064 1.524 . S
C5064 C5063 1.524 . S
C5064 C5065 1.397 . S
C5064 C5069 1.363 . S
C5065 H5036 0.950 . S
C5065 C5064 1.397 . S
C5065 C5066 1.334 . S
C5066 H5037 0.950 . S
C5066 C5065 1.334 . S
C5066 C5067 1.287 . S
C5067 C5066 1.287 . S
C5067 C5068 1.524 . S
C5067 H5070 0.999 . S
C5068 H5038 0.950 . S
C5068 C5067 1.524 . S
C5068 C5069 1.415 . S
C5069 H5039 0.950 . S
C5069 C5064 1.363 . S
C5069 C5068 1.415 . S
H5070 C5067 0.999 . S
H5071 C5052 0.913 . S
H5072 C5090 0.951 . S
H5073 C5092 0.951 . S
H5074 C5094 0.950 . S
H5075 C5095 0.950 . S
H5076 C5097 0.950 . S
H5077 C5100 0.950 . S
H5078 C5101 0.950 . S
H5079 C5103 0.950 . S
H5080 C5104 0.950 . S
H5081 C5105 0.951 . S
H5082 C5107 0.951 . S
H5083 C5109 0.950 . S
H5084 C5110 0.950 . S
H5085 C5112 0.950 . S
H5086 C5115 0.950 . S
H5087 C5116 0.950 . S
H5088 C5118 0.950 . S
H5089 C5119 0.950 . S
C5090 H5072 0.951 . S
C5090 C5091 1.366 . S
C5090 C5092 1.388 . S
C5091 C5090 1.366 . S
C5091 C5095 1.385 . S
C5092 H5073 0.951 . S
C5092 C5090 1.388 . S
C5092 C5093 1.366 . S
C5093 C5092 1.366 . S
C5093 C5094 1.414 . S
C5093 C5096 1.499 . S
C5094 H5074 0.950 . S
C5094 C5093 1.414 . S
C5094 C5095 1.374 . S
C5095 H5075 0.950 . S
C5095 C5091 1.385 . S
C5095 C5094 1.374 . S
C5096 C5093 1.499 . S
C5096 C5097 1.373 . S
C5096 C5098 1.389 . S
C5097 H5076 0.950 . S
C5097 C5096 1.373 . S
C5097 C5113 1.377 . S
C5098 C5096 1.389 . S
C5098 C5099 1.524 . S
C5098 C5112 1.377 . S
C5099 C5098 1.524 . S
C5099 C5100 1.397 . S
C5099 C5104 1.363 . S
C5100 H5077 0.950 . S
C5100 C5099 1.397 . S
C5100 C5101 1.334 . S
C5101 H5078 0.950 . S
C5101 C5100 1.334 . S
C5101 C5102 1.287 . S
C5102 C5101 1.287 . S
C5102 C5103 1.524 . S
C5102 H5121 0.913 . S
C5103 H5079 0.950 . S
C5103 C5102 1.524 . S
C5103 C5104 1.415 . S
C5104 H5080 0.950 . S
C5104 C5099 1.363 . S
C5104 C5103 1.415 . S
C5105 H5081 0.951 . S
C5105 C5106 1.366 . S
C5105 C5107 1.388 . S
C5106 C5105 1.366 . S
C5106 C5110 1.385 . S
C5107 H5082 0.951 . S
C5107 C5105 1.388 . S
C5107 C5108 1.366 . S
C5108 C5107 1.366 . S
C5108 C5109 1.414 . S
C5108 C5111 1.499 . S
C5109 H5083 0.950 . S
C5109 C5108 1.414 . S
C5109 C5110 1.374 . S
C5110 H5084 0.950 . S
C5110 C5106 1.385 . S
C5110 C5109 1.374 . S
C5111 C5108 1.499 . S
C5111 C5112 1.373 . S
C5111 C5113 1.389 . S
C5112 H5085 0.950 . S
C5112 C5098 1.377 . S
C5112 C5111 1.373 . S
C5113 C5097 1.377 . S
C5113 C5111 1.389 . S
C5113 C5114 1.524 . S
C5114 C5113 1.524 . S
C5114 C5115 1.397 . S
C5114 C5119 1.363 . S
C5115 H5086 0.950 . S
C5115 C5114 1.397 . S
C5115 C5116 1.334 . S
C5116 H5087 0.950 . S
C5116 C5115 1.334 . S
C5116 C5117 1.287 . S
C5117 C5116 1.287 . S
C5117 C5118 1.524 . S
C5117 H5120 0.999 . S
C5118 H5088 0.950 . S
C5118 C5117 1.524 . S
C5118 C5119 1.415 . S
C5119 H5089 0.950 . S
C5119 C5114 1.363 . S
C5119 C5118 1.415 . S
H5120 C5117 0.999 . S
H5121 C5102 0.913 . S
H5122 C5140 0.951 . S
H5123 C5142 0.951 . S
H5124 C5144 0.950 . S
H5125 C5145 0.950 . S
H5126 C5147 0.950 . S
H5127 C5150 0.950 . S
H5128 C5151 0.950 . S
H5129 C5153 0.950 . S
H5130 C5154 0.950 . S
H5131 C5155 0.951 . S
H5132 C5157 0.951 . S
H5133 C5159 0.950 . S
H5134 C5160 0.950 . S
H5135 C5162 0.950 . S
H5136 C5165 0.950 . S
H5137 C5166 0.950 . S
H5138 C5168 0.998 . S
H5139 C5169 0.950 . S
C5140 H5122 0.951 . S
C5140 C5141 1.366 . S
C5140 C5142 1.388 . S
C5141 C5140 1.366 . S
C5141 C5145 1.385 . S
C5142 H5123 0.951 . S
C5142 C5140 1.388 . S
C5142 C5143 1.366 . S
C5143 C5142 1.366 . S
C5143 C5144 1.414 . S
C5143 C5146 1.499 . S
C5144 H5124 0.950 . S
C5144 C5143 1.414 . S
C5144 C5145 1.374 . S
C5145 H5125 0.950 . S
C5145 C5141 1.385 . S
C5145 C5144 1.374 . S
C5146 C5143 1.499 . S
C5146 C5147 1.373 . S
C5146 C5148 1.389 . S
C5147 H5126 0.950 . S
C5147 C5146 1.373 . S
C5147 C5163 1.377 . S
C5148 C5146 1.389 . S
C5148 C5149 1.524 . S
C5148 C5162 1.377 . S
C5149 C5148 1.524 . S
C5149 C5150 1.397 . S
C5149 C5154 1.363 . S
C5150 H5127 0.950 . S
C5150 C5149 1.397 . S
C5150 C5151 1.334 . S
C5151 H5128 0.950 . S
C5151 C5150 1.334 . S
C5151 C5152 1.287 . S
C5152 C5151 1.287 . S
C5152 C5153 1.524 . S
C5152 H5171 0.913 . S
C5153 H5129 0.950 . S
C5153 C5152 1.524 . S
C5153 C5154 1.415 . S
C5154 H5130 0.950 . S
C5154 C5149 1.363 . S
C5154 C5153 1.415 . S
C5155 H5131 0.951 . S
C5155 C5156 1.366 . S
C5155 C5157 1.388 . S
C5156 C5155 1.366 . S
C5156 C5160 1.385 . S
C5157 H5132 0.951 . S
C5157 C5155 1.388 . S
C5157 C5158 1.366 . S
C5158 C5157 1.366 . S
C5158 C5159 1.414 . S
C5158 C5161 1.499 . S
C5159 H5133 0.950 . S
C5159 C5158 1.414 . S
C5159 C5160 1.374 . S
C5160 H5134 0.950 . S
C5160 C5156 1.385 . S
C5160 C5159 1.374 . S
C5161 C5158 1.499 . S
C5161 C5162 1.373 . S
C5161 C5163 1.389 . S
C5162 H5135 0.950 . S
C5162 C5148 1.377 . S
C5162 C5161 1.373 . S
C5163 C5147 1.377 . S
C5163 C5161 1.389 . S
C5163 C5164 1.524 . S
C5164 C5163 1.524 . S
C5164 C5165 1.397 . S
C5164 C5169 1.363 . S
C5165 H5136 0.950 . S
C5165 C5164 1.397 . S
C5165 C5166 1.334 . S
C5166 H5137 0.950 . S
C5166 C5165 1.334 . S
C5166 C5167 1.287 . S
C5167 C5166 1.287 . S
C5167 C5168 1.524 . S
C5167 H5170 0.999 . S
C5168 H5138 0.998 . S
C5168 C5167 1.524 . S
C5168 C5169 1.415 . S
C5169 H5139 0.950 . S
C5169 C5164 1.363 . S
C5169 C5168 1.415 . S
H5170 C5167 0.999 . S
H5171 C5152 0.913 . S
H5172 C5190 0.951 . S
H5173 C5192 0.951 . S
H5174 C5194 0.950 . S
H5175 C5195 0.950 . S
H5176 C5197 0.950 . S
H5177 C5200 0.950 . S
H5178 C5201 0.950 . S
H5179 C5203 0.950 . S
H5180 C5204 0.950 . S
H5181 C5205 0.951 . S
H5182 C5207 0.951 . S
H5183 C5209 0.950 . S
H5184 C5210 0.950 . S
H5185 C5212 0.950 . S
H5186 C5215 0.950 . S
H5187 C5216 0.950 . S
H5188 C5218 0.950 . S
H5189 C5219 0.950 . S
C5190 H5172 0.951 . S
C5190 C5191 1.366 . S
C5190 C5192 1.388 . S
C5191 C5190 1.366 . S
C5191 C5195 1.385 . S
C5192 H5173 0.951 . S
C5192 C5190 1.388 . S
C5192 C5193 1.366 . S
C5193 C5192 1.366 . S
C5193 C5194 1.414 . S
C5193 C5196 1.499 . S
C5194 H5174 0.950 . S
C5194 C5193 1.414 . S
C5194 C5195 1.374 . S
C5195 H5175 0.950 . S
C5195 C5191 1.385 . S
C5195 C5194 1.374 . S
C5196 C5193 1.499 . S
C5196 C5197 1.373 . S
C5196 C5198 1.389 . S
C5197 H5176 0.950 . S
C5197 C5196 1.373 . S
C5197 C5213 1.377 . S
C5198 C5196 1.389 . S
C5198 C5199 1.524 . S
C5198 C5212 1.377 . S
C5199 C5198 1.524 . S
C5199 C5200 1.397 . S
C5199 C5204 1.363 . S
C5200 H5177 0.950 . S
C5200 C5199 1.397 . S
C5200 C5201 1.334 . S
C5201 H5178 0.950 . S
C5201 C5200 1.334 . S
C5201 C5202 1.287 . S
C5202 C5201 1.287 . S
C5202 C5203 1.524 . S
C5202 H5221 0.913 . S
C5203 H5179 0.950 . S
C5203 C5202 1.524 . S
C5203 C5204 1.415 . S
C5204 H5180 0.950 . S
C5204 C5199 1.363 . S
C5204 C5203 1.415 . S
C5205 H5181 0.951 . S
C5205 C5206 1.366 . S
C5205 C5207 1.388 . S
C5206 C5205 1.366 . S
C5206 C5210 1.385 . S
C5207 H5182 0.951 . S
C5207 C5205 1.388 . S
C5207 C5208 1.366 . S
C5208 C5207 1.366 . S
C5208 C5209 1.414 . S
C5208 C5211 1.499 . S
C5209 H5183 0.950 . S
C5209 C5208 1.414 . S
C5209 C5210 1.374 . S
C5210 H5184 0.950 . S
C5210 C5206 1.385 . S
C5210 C5209 1.374 . S
C5211 C5208 1.499 . S
C5211 C5212 1.373 . S
C5211 C5213 1.389 . S
C5212 H5185 0.950 . S
C5212 C5198 1.377 . S
C5212 C5211 1.373 . S
C5213 C5197 1.377 . S
C5213 C5211 1.389 . S
C5213 C5214 1.524 . S
C5214 C5213 1.524 . S
C5214 C5215 1.397 . S
C5214 C5219 1.363 . S
C5215 H5186 0.950 . S
C5215 C5214 1.397 . S
C5215 C5216 1.334 . S
C5216 H5187 0.950 . S
C5216 C5215 1.334 . S
C5216 C5217 1.287 . S
C5217 C5216 1.287 . S
C5217 C5218 1.524 . S
C5217 H5220 0.999 . S
C5218 H5188 0.950 . S
C5218 C5217 1.524 . S
C5218 C5219 1.415 . S
C5219 H5189 0.950 . S
C5219 C5214 1.363 . S
C5219 C5218 1.415 . S
H5220 C5217 0.999 . S
H5221 C5202 0.913 . S
H5222 C5240 0.951 . S
H5223 C5242 0.951 . S
H5224 C5244 0.950 . S
H5225 C5245 0.950 . S
H5226 C5247 0.950 . S
H5227 C5250 0.950 . S
H5228 C5251 0.950 . S
H5229 C5253 0.950 1_545 S
H5230 C5254 0.950 . S
H5231 C5255 0.951 . S
H5232 C5257 0.951 . S
H5233 C5259 0.950 . S
H5234 C5260 0.950 . S
H5235 C5262 0.955 . S
H5236 C5265 0.925 1_556 S
H5237 C5266 0.950 1_556 S
H5238 C5268 0.950 . S
H5239 C5269 0.950 . S
C5240 H5222 0.951 . S
C5240 C5241 1.366 1_556 S
C5240 C5242 1.388 . S
C5241 C5240 1.366 1_554 S
C5241 C5245 1.385 . S
C5242 H5223 0.951 . S
C5242 C5240 1.388 . S
C5242 C5243 1.366 1_556 S
C5243 C5242 1.366 1_554 S
C5243 C5244 1.414 . S
C5243 C5246 1.499 . S
C5244 H5224 0.950 . S
C5244 C5243 1.414 . S
C5244 C5245 1.374 . S
C5245 H5225 0.950 . S
C5245 C5241 1.385 . S
C5245 C5244 1.374 . S
C5246 C5243 1.499 . S
C5246 C5247 1.373 . S
C5246 C5248 1.389 . S
C5247 H5226 0.950 . S
C5247 C5246 1.373 . S
C5247 C5263 1.377 . S
C5248 C5246 1.389 . S
C5248 C5249 1.524 1_554 S
C5248 C5262 1.375 1_554 S
C5249 C5248 1.524 1_556 S
C5249 C5250 1.397 1_556 S
C5249 C5254 1.363 . S
C5250 H5227 0.950 . S
C5250 C5249 1.397 1_554 S
C5250 C5251 1.334 . S
C5251 H5228 0.950 . S
C5251 C5250 1.334 . S
C5251 C5252 1.287 1_554 S
C5252 C5251 1.287 1_556 S
C5252 C5253 1.524 . S
C5252 H5271 0.913 1_565 S
C5253 H5229 0.950 1_565 S
C5253 C5252 1.524 . S
C5253 C5254 1.415 . S
C5254 H5230 0.950 . S
C5254 C5249 1.363 . S
C5254 C5253 1.415 . S
C5255 H5231 0.951 . S
C5255 C5256 1.366 . S
C5255 C5257 1.388 . S
C5256 C5255 1.366 . S
C5256 C5260 1.385 1_554 S
C5257 H5232 0.951 . S
C5257 C5255 1.388 . S
C5257 C5258 1.366 . S
C5258 C5257 1.366 . S
C5258 C5259 1.414 1_554 S
C5258 C5261 1.499 . S
C5259 H5233 0.950 . S
C5259 C5258 1.414 1_556 S
C5259 C5260 1.374 . S
C5260 H5234 0.950 . S
C5260 C5256 1.385 1_556 S
C5260 C5259 1.374 . S
C5261 C5258 1.499 . S
C5261 C5262 1.370 1_554 S
C5261 C5263 1.389 . S
C5262 H5235 0.955 . S
C5262 C5248 1.375 1_556 S
C5262 C5261 1.370 1_556 S
C5263 C5247 1.377 . S
C5263 C5261 1.389 . S
C5263 C5264 1.524 . S
C5264 C5263 1.524 . S
C5264 C5265 1.418 . S
C5264 C5269 1.363 . S
C5265 H5236 0.925 1_554 S
C5265 C5264 1.418 . S
C5265 C5266 1.338 . S
C5266 H5237 0.950 1_554 S
C5266 C5265 1.338 . S
C5266 C5267 1.287 . S
C5267 C5266 1.287 . S
C5267 C5268 1.524 . S
C5267 H5270 0.999 . S
C5268 H5238 0.950 . S
C5268 C5267 1.524 . S
C5268 C5269 1.415 . S
C5269 H5239 0.950 . S
C5269 C5264 1.363 . S
C5269 C5268 1.415 . S
H5270 C5267 0.999 . S
H5271 C5252 0.913 1_545 S
H5272 C5290 0.951 . S
H5273 C5292 0.951 . S
H5274 C5294 0.950 . S
H5275 C5295 0.950 . S
H5276 C5297 0.950 . S
H5277 C5300 0.950 . S
H5278 C5301 0.950 . S
H5279 C5303 0.950 . S
H5280 C5304 0.950 . S
H5281 C5305 0.951 . S
H5282 C5307 0.951 . S
H5283 C5309 0.950 . S
H5284 C5310 0.950 . S
H5285 C5312 0.950 . S
H5286 C5315 0.950 . S
H5287 C5316 0.950 . S
H5288 C5318 0.950 . S
H5289 C5319 0.950 . S
C5290 H5272 0.951 . S
C5290 C5291 1.366 . S
C5290 C5292 1.388 . S
C5291 C5290 1.366 . S
C5291 C5295 1.385 . S
C5292 H5273 0.951 . S
C5292 C5290 1.388 . S
C5292 C5293 1.366 . S
C5293 C5292 1.366 . S
C5293 C5294 1.414 . S
C5293 C5296 1.499 . S
C5294 H5274 0.950 . S
C5294 C5293 1.414 . S
C5294 C5295 1.374 . S
C5295 H5275 0.950 . S
C5295 C5291 1.385 . S
C5295 C5294 1.374 . S
C5296 C5293 1.499 . S
C5296 C5297 1.373 . S
C5296 C5298 1.389 . S
C5297 H5276 0.950 . S
C5297 C5296 1.373 . S
C5297 C5313 1.377 . S
C5298 C5296 1.389 . S
C5298 C5299 1.524 . S
C5298 C5312 1.377 . S
C5299 C5298 1.524 . S
C5299 C5300 1.397 . S
C5299 C5304 1.363 . S
C5300 H5277 0.950 . S
C5300 C5299 1.397 . S
C5300 C5301 1.334 . S
C5301 H5278 0.950 . S
C5301 C5300 1.334 . S
C5301 C5302 1.287 . S
C5302 C5301 1.287 . S
C5302 C5303 1.524 . S
C5302 H5321 0.913 . S
C5303 H5279 0.950 . S
C5303 C5302 1.524 . S
C5303 C5304 1.415 . S
C5304 H5280 0.950 . S
C5304 C5299 1.363 . S
C5304 C5303 1.415 . S
C5305 H5281 0.951 . S
C5305 C5306 1.366 . S
C5305 C5307 1.388 . S
C5306 C5305 1.366 . S
C5306 C5310 1.385 . S
C5307 H5282 0.951 . S
C5307 C5305 1.388 . S
C5307 C5308 1.366 . S
C5308 C5307 1.366 . S
C5308 C5309 1.414 . S
C5308 C5311 1.499 . S
C5309 H5283 0.950 . S
C5309 C5308 1.414 . S
C5309 C5310 1.374 . S
C5310 H5284 0.950 . S
C5310 C5306 1.385 . S
C5310 C5309 1.374 . S
C5311 C5308 1.499 . S
C5311 C5312 1.373 . S
C5311 C5313 1.389 . S
C5312 H5285 0.950 . S
C5312 C5298 1.377 . S
C5312 C5311 1.373 . S
C5313 C5297 1.377 . S
C5313 C5311 1.389 . S
C5313 C5314 1.524 . S
C5314 C5313 1.524 . S
C5314 C5315 1.397 . S
C5314 C5319 1.363 . S
C5315 H5286 0.950 . S
C5315 C5314 1.397 . S
C5315 C5316 1.334 . S
C5316 H5287 0.950 . S
C5316 C5315 1.334 . S
C5316 C5317 1.287 . S
C5317 C5316 1.287 . S
C5317 C5318 1.524 . S
C5317 H5320 0.999 . S
C5318 H5288 0.950 . S
C5318 C5317 1.524 . S
C5318 C5319 1.415 . S
C5319 H5289 0.950 . S
C5319 C5314 1.363 . S
C5319 C5318 1.415 . S
H5320 C5317 0.999 . S
H5321 C5302 0.913 . S
H5322 C5340 0.967 . S
H5323 C5342 0.951 1_556 S
H5324 C5344 0.950 . S
H5325 C5345 0.950 . S
H5326 C5347 0.950 . S
H5327 C5350 0.950 . S
H5328 C5351 0.950 . S
H5329 C5353 0.950 . S
H5330 C5354 0.950 . S
H5331 C5355 0.951 . S
H5332 C5357 0.951 . S
H5333 C5359 0.950 . S
H5334 C5360 0.950 . S
H5335 C5362 0.950 . S
H5336 C5365 0.950 . S
H5337 C5366 0.950 . S
H5338 C5368 0.950 . S
H5339 C5369 0.950 . S
C5340 H5322 0.967 . S
C5340 C5341 1.354 1_556 S
C5340 C5342 1.384 1_556 S
C5341 C5340 1.354 1_554 S
C5341 C5345 1.385 . S
C5342 H5323 0.951 1_554 S
C5342 C5340 1.384 1_554 S
C5342 C5343 1.366 . S
C5343 C5342 1.366 . S
C5343 C5344 1.414 . S
C5343 C5346 1.499 . S
C5344 H5324 0.950 . S
C5344 C5343 1.414 . S
C5344 C5345 1.374 . S
C5345 H5325 0.950 . S
C5345 C5341 1.385 . S
C5345 C5344 1.374 . S
C5346 C5343 1.499 . S
C5346 C5347 1.373 . S
C5346 C5348 1.389 . S
C5347 H5326 0.950 . S
C5347 C5346 1.373 . S
C5347 C5363 1.377 . S
C5348 C5346 1.389 . S
C5348 C5349 1.524 . S
C5348 C5362 1.377 . S
C5349 C5348 1.524 . S
C5349 C5350 1.397 . S
C5349 C5354 1.363 . S
C5350 H5327 0.950 . S
C5350 C5349 1.397 . S
C5350 C5351 1.334 . S
C5351 H5328 0.950 . S
C5351 C5350 1.334 . S
C5351 C5352 1.287 . S
C5352 C5351 1.287 . S
C5352 C5353 1.524 . S
C5352 H5371 0.913 . S
C5353 H5329 0.950 . S
C5353 C5352 1.524 . S
C5353 C5354 1.415 . S
C5354 H5330 0.950 . S
C5354 C5349 1.363 . S
C5354 C5353 1.415 . S
C5355 H5331 0.951 . S
C5355 C5356 1.366 . S
C5355 C5357 1.388 . S
C5356 C5355 1.366 . S
C5356 C5360 1.385 . S
C5357 H5332 0.951 . S
C5357 C5355 1.388 . S
C5357 C5358 1.366 . S
C5358 C5357 1.366 . S
C5358 C5359 1.414 . S
C5358 C5361 1.499 . S
C5359 H5333 0.950 . S
C5359 C5358 1.414 . S
C5359 C5360 1.374 . S
C5360 H5334 0.950 . S
C5360 C5356 1.385 . S
C5360 C5359 1.374 . S
C5361 C5358 1.499 . S
C5361 C5362 1.373 . S
C5361 C5363 1.389 . S
C5362 H5335 0.950 . S
C5362 C5348 1.377 . S
C5362 C5361 1.373 . S
C5363 C5347 1.377 . S
C5363 C5361 1.389 . S
C5363 C5364 1.524 . S
C5364 C5363 1.524 . S
C5364 C5365 1.397 1_554 S
C5364 C5369 1.363 . S
C5365 H5336 0.950 . S
C5365 C5364 1.397 1_556 S
C5365 C5366 1.334 . S
C5366 H5337 0.950 . S
C5366 C5365 1.334 . S
C5366 C5367 1.287 . S
C5367 C5366 1.287 . S
C5367 C5368 1.524 1_556 S
C5367 H5370 0.999 . S
C5368 H5338 0.950 . S
C5368 C5367 1.524 1_554 S
C5368 C5369 1.415 . S
C5369 H5339 0.950 . S
C5369 C5364 1.363 . S
C5369 C5368 1.415 . S
H5370 C5367 0.999 . S
H5371 C5352 0.913 . S
H5372 C5390 0.951 . S
H5373 C5392 0.951 . S
H5374 C5394 0.950 . S
H5375 C5395 0.950 . S
H5376 C5397 0.950 . S
H5377 C5400 0.950 . S
H5378 C5401 0.950 . S
H5379 C5403 0.950 . S
H5380 C5404 0.950 . S
H5381 C5405 0.951 . S
H5382 C5407 0.951 . S
H5383 C5409 0.950 . S
H5384 C5410 0.950 . S
H5385 C5412 0.950 . S
H5386 C5415 0.950 . S
H5387 C5416 0.950 . S
H5388 C5418 0.950 . S
H5389 C5419 0.950 . S
C5390 H5372 0.951 . S
C5390 C5391 1.366 . S
C5390 C5392 1.388 . S
C5391 C5390 1.366 . S
C5391 C5395 1.385 . S
C5392 H5373 0.951 . S
C5392 C5390 1.388 . S
C5392 C5393 1.366 . S
C5393 C5392 1.366 . S
C5393 C5394 1.414 . S
C5393 C5396 1.499 . S
C5394 H5374 0.950 . S
C5394 C5393 1.414 . S
C5394 C5395 1.374 . S
C5395 H5375 0.950 . S
C5395 C5391 1.385 . S
C5395 C5394 1.374 . S
C5396 C5393 1.499 . S
C5396 C5397 1.373 . S
C5396 C5398 1.389 . S
C5397 H5376 0.950 . S
C5397 C5396 1.373 . S
C5397 C5413 1.377 . S
C5398 C5396 1.389 . S
C5398 C5399 1.524 . S
C5398 C5412 1.377 . S
C5399 C5398 1.524 . S
C5399 C5400 1.397 . S
C5399 C5404 1.363 . S
C5400 H5377 0.950 . S
C5400 C5399 1.397 . S
C5400 C5401 1.334 . S
C5401 H5378 0.950 . S
C5401 C5400 1.334 . S
C5401 C5402 1.287 . S
C5402 C5401 1.287 . S
C5402 C5403 1.524 . S
C5402 H5421 0.913 . S
C5403 H5379 0.950 . S
C5403 C5402 1.524 . S
C5403 C5404 1.415 . S
C5404 H5380 0.950 . S
C5404 C5399 1.363 . S
C5404 C5403 1.415 . S
C5405 H5381 0.951 . S
C5405 C5406 1.366 . S
C5405 C5407 1.388 . S
C5406 C5405 1.366 . S
C5406 C5410 1.385 . S
C5407 H5382 0.951 . S
C5407 C5405 1.388 . S
C5407 C5408 1.366 . S
C5408 C5407 1.366 . S
C5408 C5409 1.414 . S
C5408 C5411 1.499 . S
C5409 H5383 0.950 . S
C5409 C5408 1.414 . S
C5409 C5410 1.374 . S
C5410 H5384 0.950 . S
C5410 C5406 1.385 . S
C5410 C5409 1.374 . S
C5411 C5408 1.499 . S
C5411 C5412 1.373 . S
C5411 C5413 1.389 . S
C5412 H5385 0.950 . S
C5412 C5398 1.377 . S
C5412 C5411 1.373 . S
C5413 C5397 1.377 . S
C5413 C5411 1.389 . S
C5413 C5414 1.524 . S
C5414 C5413 1.524 . S
C5414 C5415 1.397 . S
C5414 C5419 1.363 . S
C5415 H5386 0.950 . S
C5415 C5414 1.397 . S
C5415 C5416 1.334 . S
C5416 H5387 0.950 . S
C5416 C5415 1.334 . S
C5416 C5417 1.287 . S
C5417 C5416 1.287 . S
C5417 C5418 1.524 . S
C5417 H5420 0.999 . S
C5418 H5388 0.950 . S
C5418 C5417 1.524 . S
C5418 C5419 1.415 . S
C5419 H5389 0.950 . S
C5419 C5414 1.363 . S
C5419 C5418 1.415 . S
H5420 C5417 0.999 . S
H5421 C5402 0.913 . S
H5422 C5440 0.951 . S
H5423 C5442 0.951 . S
H5424 C5444 0.950 . S
H5425 C5445 0.950 . S
H5426 C5447 0.950 . S
H5427 C5450 0.950 . S
H5428 C5451 0.950 . S
H5429 C5453 0.950 . S
H5430 C5454 0.950 . S
H5431 C5455 0.951 . S
H5432 C5457 0.951 . S
H5433 C5459 0.950 . S
H5434 C5460 0.950 . S
H5435 C5462 0.950 . S
H5436 C5465 0.950 . S
H5437 C5466 0.950 . S
H5438 C5468 0.950 . S
H5439 C5469 0.950 . S
C5440 H5422 0.951 . S
C5440 C5441 1.366 . S
C5440 C5442 1.388 . S
C5441 C5440 1.366 . S
C5441 C5445 1.385 . S
C5442 H5423 0.951 . S
C5442 C5440 1.388 . S
C5442 C5443 1.366 . S
C5443 C5442 1.366 . S
C5443 C5444 1.414 . S
C5443 C5446 1.499 . S
C5444 H5424 0.950 . S
C5444 C5443 1.414 . S
C5444 C5445 1.374 . S
C5445 H5425 0.950 . S
C5445 C5441 1.385 . S
C5445 C5444 1.374 . S
C5446 C5443 1.499 . S
C5446 C5447 1.373 . S
C5446 C5448 1.389 . S
C5447 H5426 0.950 . S
C5447 C5446 1.373 . S
C5447 C5463 1.377 . S
C5448 C5446 1.389 . S
C5448 C5449 1.524 . S
C5448 C5462 1.377 . S
C5449 C5448 1.524 . S
C5449 C5450 1.397 . S
C5449 C5454 1.363 . S
C5450 H5427 0.950 . S
C5450 C5449 1.397 . S
C5450 C5451 1.334 . S
C5451 H5428 0.950 . S
C5451 C5450 1.334 . S
C5451 C5452 1.287 . S
C5452 C5451 1.287 . S
C5452 C5453 1.524 . S
C5452 H5471 0.913 . S
C5453 H5429 0.950 . S
C5453 C5452 1.524 . S
C5453 C5454 1.415 . S
C5454 H5430 0.950 . S
C5454 C5449 1.363 . S
C5454 C5453 1.415 . S
C5455 H5431 0.951 . S
C5455 C5456 1.366 . S
C5455 C5457 1.388 . S
C5456 C5455 1.366 . S
C5456 C5460 1.385 . S
C5457 H5432 0.951 . S
C5457 C5455 1.388 . S
C5457 C5458 1.366 . S
C5458 C5457 1.366 . S
C5458 C5459 1.414 . S
C5458 C5461 1.499 . S
C5459 H5433 0.950 . S
C5459 C5458 1.414 . S
C5459 C5460 1.374 . S
C5460 H5434 0.950 . S
C5460 C5456 1.385 . S
C5460 C5459 1.374 . S
C5461 C5458 1.499 . S
C5461 C5462 1.373 . S
C5461 C5463 1.389 . S
C5462 H5435 0.950 . S
C5462 C5448 1.377 . S
C5462 C5461 1.373 . S
C5463 C5447 1.377 . S
C5463 C5461 1.389 . S
C5463 C5464 1.524 . S
C5464 C5463 1.524 . S
C5464 C5465 1.397 . S
C5464 C5469 1.363 . S
C5465 H5436 0.950 . S
C5465 C5464 1.397 . S
C5465 C5466 1.334 . S
C5466 H5437 0.950 . S
C5466 C5465 1.334 . S
C5466 C5467 1.287 . S
C5467 C5466 1.287 . S
C5467 C5468 1.524 . S
C5467 H5470 0.999 . S
C5468 H5438 0.950 . S
C5468 C5467 1.524 . S
C5468 C5469 1.415 . S
C5469 H5439 0.950 . S
C5469 C5464 1.363 . S
C5469 C5468 1.415 . S
H5470 C5467 0.999 . S
H5471 C5452 0.913 . S
C706 C352 1.348 . S
C691 C8 1.482 . S
C741 C22 1.429 . S
C756 C372 1.394 . S
C791 C35 1.104 . S
C806 C394 1.026 . S
C856 C413 1.265 . S
C841 C49 1.246 . S
C891 C23 1.689 . S
C906 C434 1.681 . S
C956 C457 1.075 . S
C941 C34 1.156 . S
C1006 C480 0.960 . S
C991 C48 0.966 . S
C1041 C9 1.477 . S
C1056 C498 1.439 . S
C1091 C64 1.386 . S
C1106 C354 1.347 . S
C1141 C77 1.220 . S
C1156 C374 1.231 . S
C1206 C396 1.340 . S
C1191 C92 1.368 . S
C1256 C415 1.343 . S
C1241 C105 1.424 . S
C1291 C63 1.288 . S
C1306 C436 1.213 . S
C1356 C459 1.318 . S
C1341 C78 1.347 . S
C1406 C476 1.337 . S
C1391 C91 1.327 . S
C1456 C500 1.335 . S
C1441 C106 1.348 . S
C1506 C350 1.398 . S
C1491 C107 1.411 . S
C1556 C522 0.973 . S
C1541 C118 0.982 . S
C1591 C135 1.595 . S
C1606 C539 1.575 . S
C1656 C562 1.291 . S
C1641 C146 1.355 . S
C1691 C65 1.430 . S
C1706 C496 1.298 . S
C1756 C392 1.543 1_565 S
C1741 C79 1.554 . S
C1791 C132 1.106 . S
C1806 C585 1.096 . S
C1856 C601 1.120 . S
C1841 C160 1.184 . S
C1891 C177 1.354 . S
C1906 C349 1.253 . S
C1956 C602 1.053 . S
C1941 C188 1.062 . S
C1991 C204 1.518 . S
C2006 C391 1.402 . S
C2041 C219 1.195 . S
C2056 C582 1.162 . S
C2106 C435 1.236 . S
C2091 C190 1.278 . S
C2156 C538 1.108 . S
C2141 C202 1.172 . S
C2206 C479 1.142 . S
C2191 C217 1.147 . S
C2256 C623 1.192 . S
C2241 C175 1.195 . S
C2306 C353 1.226 . S
C2291 C231 1.231 . S
C2341 C246 1.281 . S
C2356 C606 1.246 . S
C2406 C395 1.104 . S
C2391 C259 1.109 . S
C2441 C274 1.371 . S
C2456 C580 1.266 . S
C2491 C232 1.400 . S
C2506 C433 1.288 . S
C2541 C245 1.159 . S
C2556 C542 1.157 . S
C2606 C477 1.096 . S
C2591 C260 1.124 . S
C2641 C273 1.059 . S
C2656 C627 1.050 . S
C2691 C275 1.363 . S
C2706 C351 1.324 . S
C2741 C286 1.234 . S
C2756 C521 1.228 . S
C2791 C303 1.246 . S
C2806 C456 1.213 . S
C2841 C314 1.096 . S
C2856 C559 1.043 . S
C2906 C625 1.210 . S
C2891 C233 1.299 . S
C2956 C393 1.222 . S
C2941 C247 1.257 . S
C3006 C416 1.130 . S
C2991 C300 1.136 . S
C3056 C373 1.163 . S
C3041 C328 1.234 . S
C3091 C36 1.473 . S
C3106 C646 1.342 . S
C3156 C603 1.393 . S
C3141 C50 1.430 . S
C3206 C667 1.015 . S
C3191 C7 1.095 . S
C3241 C21 1.252 . S
C3256 C581 1.270 . S
C3291 C51 1.694 . S
C3306 C518 1.686 1_556 S
C3356 C541 1.066 . S
C3341 C6 1.143 . S
C3406 C564 0.962 . S
C3391 C20 0.969 . S
C3456 C624 1.435 . S
C3441 C37 1.468 . S
C3506 C648 1.263 . S
C3491 C162 1.305 . S
C3541 C119 1.210 . S
C3556 C605 1.218 . S
C3591 C134 1.294 . S
C3606 C669 1.253 . S
C3656 C583 1.329 . S
C3641 C147 1.406 . S
C3706 C520 1.204 . S
C3691 C161 1.277 . S
C3741 C120 1.273 . S
C3756 C543 1.234 . S
C3806 C560 1.324 . S
C3791 C133 1.316 . S
C3841 C148 1.275 . S
C3856 C626 1.263 . S
C3906 C644 1.458 . S
C3891 C149 1.481 . S
C3956 C438 0.900 . S
C3941 C76 0.905 . S
C4006 C455 1.518 . S
C3991 C93 1.530 . S
C4041 C104 1.279 . S
C4056 C478 1.218 . S
C4106 C622 1.347 . S
C4091 C163 1.498 . S
C4141 C121 1.619 . S
C4156 C665 1.599 . S
C4206 C417 1.020 . S
C4191 C90 1.028 . S
C4256 C370 1.052 . S
C4241 C62 1.114 . S
C4291 C203 1.077 . S
C4306 C643 1.027 . S
C4356 C371 1.110 . S
C4341 C216 1.116 . S
C4406 C664 1.166 1_455 S
C4391 C174 1.234 . S
C4441 C191 1.256 . S
C4456 C414 1.220 . S
C4491 C218 1.210 . S
C4506 C519 1.174 . S
C4541 C176 1.450 . S
C4556 C454 1.336 . S
C4591 C189 1.088 . S
C4606 C563 1.094 . S
C4641 C205 1.482 . S
C4656 C497 1.449 . S
C4706 C647 1.205 . S
C4691 C329 1.205 . S
C4741 C288 1.206 . S
C4756 C375 1.169 . S
C4806 C668 1.079 . S
C4791 C301 1.080 . S
C4841 C316 1.291 . S
C4856 C412 1.195 . S
C4891 C330 1.481 . S
C4906 C517 1.363 . S
C4956 C458 1.184 . S
C4941 C287 1.190 . S
C4991 C302 1.203 . S
C5006 C561 1.175 . S
C5056 C501 1.091 . S
C5041 C315 1.091 . S
C5106 C645 1.250 . S
C5091 C317 1.286 . S
C5156 C437 1.214 . S
C5141 C244 1.223 . S
C5191 C261 1.168 . S
C5206 C540 1.137 . S
C5256 C475 1.055 1_554 S
C5241 C272 1.080 . S
C5306 C499 1.275 . S
C5291 C331 1.378 . S
C5341 C289 1.172 . S
C5356 C666 1.141 . S
C5406 C584 1.144 . S
C5391 C258 1.148 . S
C5456 C604 1.181 . S
C5441 C230 1.249 . S
