# Generated by pormake.
# Topology gar, (4,6)-cn, num edge types: 1
# Building blocks:
#     Node 0, Type 0, BuildingBlock: UXUYUI_clean_sbu_0, # of connection points: 4
#     Node 1, Type 0, BuildingBlock: UXUYUI_clean_sbu_0, # of connection points: 4
#     Node 2, Type 0, BuildingBlock: UXUYUI_clean_sbu_0, # of connection points: 4
#     Node 3, Type 0, BuildingBlock: UXUYUI_clean_sbu_0, # of connection points: 4
#     Node 4, Type 0, BuildingBlock: UXUYUI_clean_sbu_0, # of connection points: 4
#     Node 5, Type 0, BuildingBlock: UXUYUI_clean_sbu_0, # of connection points: 4
#     Node 6, Type 0, BuildingBlock: UXUYUI_clean_sbu_0, # of connection points: 4
#     Node 7, Type 0, BuildingBlock: UXUYUI_clean_sbu_0, # of connection points: 4
#     Node 8, Type 0, BuildingBlock: UXUYUI_clean_sbu_0, # of connection points: 4
#     Node 9, Type 0, BuildingBlock: UXUYUI_clean_sbu_0, # of connection points: 4
#     Node 10, Type 0, BuildingBlock: UXUYUI_clean_sbu_0, # of connection points: 4
#     Node 11, Type 0, BuildingBlock: UXUYUI_clean_sbu_0, # of connection points: 4
#     Node 12, Type 0, BuildingBlock: UXUYUI_clean_sbu_0, # of connection points: 4
#     Node 13, Type 0, BuildingBlock: UXUYUI_clean_sbu_0, # of connection points: 4
#     Node 14, Type 0, BuildingBlock: UXUYUI_clean_sbu_0, # of connection points: 4
#     Node 15, Type 0, BuildingBlock: UXUYUI_clean_sbu_0, # of connection points: 4
#     Node 16, Type 0, BuildingBlock: UXUYUI_clean_sbu_0, # of connection points: 4
#     Node 17, Type 0, BuildingBlock: UXUYUI_clean_sbu_0, # of connection points: 4
#     Node 18, Type 0, BuildingBlock: UXUYUI_clean_sbu_0, # of connection points: 4
#     Node 19, Type 0, BuildingBlock: UXUYUI_clean_sbu_0, # of connection points: 4
#     Node 20, Type 0, BuildingBlock: UXUYUI_clean_sbu_0, # of connection points: 4
#     Node 21, Type 0, BuildingBlock: UXUYUI_clean_sbu_0, # of connection points: 4
#     Node 22, Type 0, BuildingBlock: UXUYUI_clean_sbu_0, # of connection points: 4
#     Node 23, Type 0, BuildingBlock: UXUYUI_clean_sbu_0, # of connection points: 4
#     Node 24, Type 1, BuildingBlock: BETFEN_clean_sbu_0, # of connection points: 6
#     Node 25, Type 1, BuildingBlock: BETFEN_clean_sbu_0, # of connection points: 6
#     Node 26, Type 1, BuildingBlock: BETFEN_clean_sbu_0, # of connection points: 6
#     Node 27, Type 1, BuildingBlock: BETFEN_clean_sbu_0, # of connection points: 6
#     Node 28, Type 1, BuildingBlock: BETFEN_clean_sbu_0, # of connection points: 6
#     Node 29, Type 1, BuildingBlock: BETFEN_clean_sbu_0, # of connection points: 6
#     Node 30, Type 1, BuildingBlock: BETFEN_clean_sbu_0, # of connection points: 6
#     Node 31, Type 1, BuildingBlock: BETFEN_clean_sbu_0, # of connection points: 6
#     Node 32, Type 1, BuildingBlock: BETFEN_clean_sbu_0, # of connection points: 6
#     Node 33, Type 1, BuildingBlock: BETFEN_clean_sbu_0, # of connection points: 6
#     Node 34, Type 1, BuildingBlock: BETFEN_clean_sbu_0, # of connection points: 6
#     Node 35, Type 1, BuildingBlock: BETFEN_clean_sbu_0, # of connection points: 6
#     Node 36, Type 1, BuildingBlock: BETFEN_clean_sbu_0, # of connection points: 6
#     Node 37, Type 1, BuildingBlock: BETFEN_clean_sbu_0, # of connection points: 6
#     Node 38, Type 1, BuildingBlock: BETFEN_clean_sbu_0, # of connection points: 6
#     Node 39, Type 1, BuildingBlock: BETFEN_clean_sbu_0, # of connection points: 6
#     Edge 40, Type (0, 1), BuildingBlock: UVAHIK_clean_linker_0, # of connection points: 2
#     Edge 41, Type (0, 1), BuildingBlock: UVAHIK_clean_linker_0, # of connection points: 2
#     Edge 42, Type (0, 1), BuildingBlock: UVAHIK_clean_linker_0, # of connection points: 2
#     Edge 43, Type (0, 1), BuildingBlock: UVAHIK_clean_linker_0, # of connection points: 2
#     Edge 44, Type (0, 1), BuildingBlock: UVAHIK_clean_linker_0, # of connection points: 2
#     Edge 45, Type (0, 1), BuildingBlock: UVAHIK_clean_linker_0, # of connection points: 2
#     Edge 46, Type (0, 1), BuildingBlock: UVAHIK_clean_linker_0, # of connection points: 2
#     Edge 47, Type (0, 1), BuildingBlock: UVAHIK_clean_linker_0, # of connection points: 2
#     Edge 48, Type (0, 1), BuildingBlock: UVAHIK_clean_linker_0, # of connection points: 2
#     Edge 49, Type (0, 1), BuildingBlock: UVAHIK_clean_linker_0, # of connection points: 2
#     Edge 50, Type (0, 1), BuildingBlock: UVAHIK_clean_linker_0, # of connection points: 2
#     Edge 51, Type (0, 1), BuildingBlock: UVAHIK_clean_linker_0, # of connection points: 2
#     Edge 52, Type (0, 1), BuildingBlock: UVAHIK_clean_linker_0, # of connection points: 2
#     Edge 53, Type (0, 1), BuildingBlock: UVAHIK_clean_linker_0, # of connection points: 2
#     Edge 54, Type (0, 1), BuildingBlock: UVAHIK_clean_linker_0, # of connection points: 2
#     Edge 55, Type (0, 1), BuildingBlock: UVAHIK_clean_linker_0, # of connection points: 2
#     Edge 56, Type (0, 1), BuildingBlock: UVAHIK_clean_linker_0, # of connection points: 2
#     Edge 57, Type (0, 1), BuildingBlock: UVAHIK_clean_linker_0, # of connection points: 2
#     Edge 58, Type (0, 1), BuildingBlock: UVAHIK_clean_linker_0, # of connection points: 2
#     Edge 59, Type (0, 1), BuildingBlock: UVAHIK_clean_linker_0, # of connection points: 2
#     Edge 60, Type (0, 1), BuildingBlock: UVAHIK_clean_linker_0, # of connection points: 2
#     Edge 61, Type (0, 1), BuildingBlock: UVAHIK_clean_linker_0, # of connection points: 2
#     Edge 62, Type (0, 1), BuildingBlock: UVAHIK_clean_linker_0, # of connection points: 2
#     Edge 63, Type (0, 1), BuildingBlock: UVAHIK_clean_linker_0, # of connection points: 2
#     Edge 64, Type (0, 1), BuildingBlock: UVAHIK_clean_linker_0, # of connection points: 2
#     Edge 65, Type (0, 1), BuildingBlock: UVAHIK_clean_linker_0, # of connection points: 2
#     Edge 66, Type (0, 1), BuildingBlock: UVAHIK_clean_linker_0, # of connection points: 2
#     Edge 67, Type (0, 1), BuildingBlock: UVAHIK_clean_linker_0, # of connection points: 2
#     Edge 68, Type (0, 1), BuildingBlock: UVAHIK_clean_linker_0, # of connection points: 2
#     Edge 69, Type (0, 1), BuildingBlock: UVAHIK_clean_linker_0, # of connection points: 2
#     Edge 70, Type (0, 1), BuildingBlock: UVAHIK_clean_linker_0, # of connection points: 2
#     Edge 71, Type (0, 1), BuildingBlock: UVAHIK_clean_linker_0, # of connection points: 2
#     Edge 72, Type (0, 1), BuildingBlock: UVAHIK_clean_linker_0, # of connection points: 2
#     Edge 73, Type (0, 1), BuildingBlock: UVAHIK_clean_linker_0, # of connection points: 2
#     Edge 74, Type (0, 1), BuildingBlock: UVAHIK_clean_linker_0, # of connection points: 2
#     Edge 75, Type (0, 1), BuildingBlock: UVAHIK_clean_linker_0, # of connection points: 2
#     Edge 76, Type (0, 1), BuildingBlock: UVAHIK_clean_linker_0, # of connection points: 2
#     Edge 77, Type (0, 1), BuildingBlock: UVAHIK_clean_linker_0, # of connection points: 2
#     Edge 78, Type (0, 1), BuildingBlock: UVAHIK_clean_linker_0, # of connection points: 2
#     Edge 79, Type (0, 1), BuildingBlock: UVAHIK_clean_linker_0, # of connection points: 2
#     Edge 80, Type (0, 1), BuildingBlock: UVAHIK_clean_linker_0, # of connection points: 2
#     Edge 81, Type (0, 1), BuildingBlock: UVAHIK_clean_linker_0, # of connection points: 2
#     Edge 82, Type (0, 1), BuildingBlock: UVAHIK_clean_linker_0, # of connection points: 2
#     Edge 83, Type (0, 1), BuildingBlock: UVAHIK_clean_linker_0, # of connection points: 2
#     Edge 84, Type (0, 1), BuildingBlock: UVAHIK_clean_linker_0, # of connection points: 2
#     Edge 85, Type (0, 1), BuildingBlock: UVAHIK_clean_linker_0, # of connection points: 2
#     Edge 86, Type (0, 1), BuildingBlock: UVAHIK_clean_linker_0, # of connection points: 2
#     Edge 87, Type (0, 1), BuildingBlock: UVAHIK_clean_linker_0, # of connection points: 2
#     Edge 88, Type (0, 1), BuildingBlock: UVAHIK_clean_linker_0, # of connection points: 2
#     Edge 89, Type (0, 1), BuildingBlock: UVAHIK_clean_linker_0, # of connection points: 2
#     Edge 90, Type (0, 1), BuildingBlock: UVAHIK_clean_linker_0, # of connection points: 2
#     Edge 91, Type (0, 1), BuildingBlock: UVAHIK_clean_linker_0, # of connection points: 2
#     Edge 92, Type (0, 1), BuildingBlock: UVAHIK_clean_linker_0, # of connection points: 2
#     Edge 93, Type (0, 1), BuildingBlock: UVAHIK_clean_linker_0, # of connection points: 2
#     Edge 94, Type (0, 1), BuildingBlock: UVAHIK_clean_linker_0, # of connection points: 2
#     Edge 95, Type (0, 1), BuildingBlock: UVAHIK_clean_linker_0, # of connection points: 2
#     Edge 96, Type (0, 1), BuildingBlock: UVAHIK_clean_linker_0, # of connection points: 2
#     Edge 97, Type (0, 1), BuildingBlock: UVAHIK_clean_linker_0, # of connection points: 2
#     Edge 98, Type (0, 1), BuildingBlock: UVAHIK_clean_linker_0, # of connection points: 2
#     Edge 99, Type (0, 1), BuildingBlock: UVAHIK_clean_linker_0, # of connection points: 2
#     Edge 100, Type (0, 1), BuildingBlock: UVAHIK_clean_linker_0, # of connection points: 2
#     Edge 101, Type (0, 1), BuildingBlock: UVAHIK_clean_linker_0, # of connection points: 2
#     Edge 102, Type (0, 1), BuildingBlock: UVAHIK_clean_linker_0, # of connection points: 2
#     Edge 103, Type (0, 1), BuildingBlock: UVAHIK_clean_linker_0, # of connection points: 2
#     Edge 104, Type (0, 1), BuildingBlock: UVAHIK_clean_linker_0, # of connection points: 2
#     Edge 105, Type (0, 1), BuildingBlock: UVAHIK_clean_linker_0, # of connection points: 2
#     Edge 106, Type (0, 1), BuildingBlock: UVAHIK_clean_linker_0, # of connection points: 2
#     Edge 107, Type (0, 1), BuildingBlock: UVAHIK_clean_linker_0, # of connection points: 2
#     Edge 108, Type (0, 1), BuildingBlock: UVAHIK_clean_linker_0, # of connection points: 2
#     Edge 109, Type (0, 1), BuildingBlock: UVAHIK_clean_linker_0, # of connection points: 2
#     Edge 110, Type (0, 1), BuildingBlock: UVAHIK_clean_linker_0, # of connection points: 2
#     Edge 111, Type (0, 1), BuildingBlock: UVAHIK_clean_linker_0, # of connection points: 2
#     Edge 112, Type (0, 1), BuildingBlock: UVAHIK_clean_linker_0, # of connection points: 2
#     Edge 113, Type (0, 1), BuildingBlock: UVAHIK_clean_linker_0, # of connection points: 2
#     Edge 114, Type (0, 1), BuildingBlock: UVAHIK_clean_linker_0, # of connection points: 2
#     Edge 115, Type (0, 1), BuildingBlock: UVAHIK_clean_linker_0, # of connection points: 2
#     Edge 116, Type (0, 1), BuildingBlock: UVAHIK_clean_linker_0, # of connection points: 2
#     Edge 117, Type (0, 1), BuildingBlock: UVAHIK_clean_linker_0, # of connection points: 2
#     Edge 118, Type (0, 1), BuildingBlock: UVAHIK_clean_linker_0, # of connection points: 2
#     Edge 119, Type (0, 1), BuildingBlock: UVAHIK_clean_linker_0, # of connection points: 2
#     Edge 120, Type (0, 1), BuildingBlock: UVAHIK_clean_linker_0, # of connection points: 2
#     Edge 121, Type (0, 1), BuildingBlock: UVAHIK_clean_linker_0, # of connection points: 2
#     Edge 122, Type (0, 1), BuildingBlock: UVAHIK_clean_linker_0, # of connection points: 2
#     Edge 123, Type (0, 1), BuildingBlock: UVAHIK_clean_linker_0, # of connection points: 2
#     Edge 124, Type (0, 1), BuildingBlock: UVAHIK_clean_linker_0, # of connection points: 2
#     Edge 125, Type (0, 1), BuildingBlock: UVAHIK_clean_linker_0, # of connection points: 2
#     Edge 126, Type (0, 1), BuildingBlock: UVAHIK_clean_linker_0, # of connection points: 2
#     Edge 127, Type (0, 1), BuildingBlock: UVAHIK_clean_linker_0, # of connection points: 2
#     Edge 128, Type (0, 1), BuildingBlock: UVAHIK_clean_linker_0, # of connection points: 2
#     Edge 129, Type (0, 1), BuildingBlock: UVAHIK_clean_linker_0, # of connection points: 2
#     Edge 130, Type (0, 1), BuildingBlock: UVAHIK_clean_linker_0, # of connection points: 2
#     Edge 131, Type (0, 1), BuildingBlock: UVAHIK_clean_linker_0, # of connection points: 2
#     Edge 132, Type (0, 1), BuildingBlock: UVAHIK_clean_linker_0, # of connection points: 2
#     Edge 133, Type (0, 1), BuildingBlock: UVAHIK_clean_linker_0, # of connection points: 2
#     Edge 134, Type (0, 1), BuildingBlock: UVAHIK_clean_linker_0, # of connection points: 2
#     Edge 135, Type (0, 1), BuildingBlock: UVAHIK_clean_linker_0, # of connection points: 2
# Relax obj value: 0.188
# Max RMSD: 0.291
# Mean RMSD: 0.196
data_MOF--net-gar--node1-UXUYUI_clean_sbu_0--node2-BETFEN_clean_sbu_0--edge1-UVAHIK_clean_linker_0
_symmetry_space_group_name_H-M    P1
_symmetry_Int_Tables_number       1
_symmetry_cell_setting            triclinic
loop_
_symmetry_equiv_pos_as_xyz
'x, y, z'
_cell_length_a     92.145604
_cell_length_b     84.992973
_cell_length_c     85.296552
_cell_angle_alpha  94.426924
_cell_angle_beta   97.894918
_cell_angle_gamma 101.85828
loop_
_atom_site_label
_atom_site_type_symbol
_atom_site_fract_x
_atom_site_fract_y
_atom_site_fract_z
_atom_type_partial_charge
Li0 Li 0.00335 0.29105 0.40371 0.0
Li1 Li 0.01786 0.30953 0.4258 0.0
Li2 Li 0.0306 0.29528 0.4054 0.0
Li3 Li 0.01668 0.27985 0.42521 0.0
C4 C 0.01205 0.31947 0.391 0.0
N5 N 0.99965 0.33528 0.36725 0.0
C6 C 0.99973 0.3262 0.39307 0.0
C7 C 0.01811 0.32084 0.37689 0.0
C8 C 0.9936 0.33411 0.38091 0.0
C9 C 0.01167 0.32887 0.36502 0.0
C10 C 0.99395 0.29462 0.43939 0.0
C11 C 0.99422 0.2954 0.46775 0.0
N12 N 0.98145 0.30118 0.46614 0.0
C13 C 0.98077 0.30047 0.438 0.0
C14 C 1.0007 0.29198 0.45437 0.0
C15 C 0.97465 0.30376 0.45167 0.0
C16 C 0.97204 0.28099 0.39503 0.0
N17 N 0.98475 0.28687 0.38904 0.0
C18 C 0.97029 0.28823 0.36382 0.0
C19 C 0.98414 0.28994 0.37358 0.0
C20 C 0.9569 0.2829 0.36991 0.0
C21 C 0.95797 0.27884 0.38565 0.0
H22 H 0.97281 0.27809 0.40719 0.0
H23 H 0.99437 0.29405 0.36885 0.0
C24 C 0.03319 0.33851 0.44583 0.0
N25 N 0.01954 0.33005 0.43821 0.0
C26 C 0.03476 0.35408 0.45355 0.0
C27 C 0.00823 0.35199 0.44549 0.0
C28 C 0.00717 0.33649 0.43798 0.0
C29 C 0.02219 0.36113 0.4533 0.0
H30 H 0.04296 0.33334 0.44557 0.0
H31 H 0.99649 0.32976 0.43165 0.0
C32 C 0.00728 0.26429 0.38951 0.0
N33 N 0.98926 0.24426 0.36414 0.0
C34 C 0.99554 0.25202 0.39218 0.0
C35 C 0.00992 0.26636 0.37398 0.0
C36 C 0.98653 0.24202 0.37918 0.0
C37 C 1.00067 0.2561 0.3613 0.0
C38 C 0.04529 0.29659 0.44172 0.0
C39 C 0.05787 0.29074 0.43877 0.0
C40 C 0.04357 0.30094 0.45738 0.0
C41 C 0.06837 0.28897 0.4516 0.0
C42 C 0.05432 0.299 0.46989 0.0
N43 N 0.06639 0.29308 0.46676 0.0
C44 C 0.056 0.31062 0.39197 0.0
C45 C 0.0509 0.28199 0.39011 0.0
C46 C 0.06841 0.31087 0.38412 0.0
N47 N 0.04753 0.2963 0.39471 0.0
C48 C 0.06319 0.28167 0.38227 0.0
C49 C 0.07214 0.29623 0.37911 0.0
H50 H 0.05308 0.32183 0.39584 0.0
H51 H 0.04406 0.2708 0.39262 0.0
C52 C 0.00426 0.25313 0.44163 0.0
N53 N 0.01681 0.26098 0.43642 0.0
C54 C 0.00405 0.23849 0.44823 0.0
C55 C 0.02966 0.24026 0.44396 0.0
C56 C 0.02933 0.25476 0.43736 0.0
C57 C 0.01685 0.23175 0.44938 0.0
H58 H 0.99423 0.25796 0.44023 0.0
H59 H 0.03897 0.2608 0.43256 0.0
O60 O 0.01822 0.31165 0.40274 0.0
O61 O 1.00011 0.2914 0.42612 0.0
O62 O 0.01596 0.27445 0.40203 0.0
O63 O 0.03491 0.29842 0.42929 0.0
H64 H 0.99479 0.32505 0.40381 0.0
H65 H 0.0276 0.31562 0.37507 0.0
H66 H 0.98399 0.33927 0.3823 0.0
H67 H 0.01621 0.32998 0.35401 0.0
H68 H 0.99934 0.29342 0.47942 0.0
H69 H 0.97541 0.30262 0.4265 0.0
H70 H 0.01077 0.28725 0.45563 0.0
H71 H 0.96451 0.30839 0.45078 0.0
H72 H 0.97014 0.29154 0.35182 0.0
H73 H 0.94805 0.27417 0.39077 0.0
H74 H 0.04579 0.3607 0.45922 0.0
H75 H 0.99818 0.35678 0.44511 0.0
H76 H 0.99332 0.25034 0.40415 0.0
H77 H 0.01891 0.27591 0.37174 0.0
H78 H 0.97734 0.23251 0.38104 0.0
H79 H 0.00252 0.2576 0.3492 0.0
H80 H 0.05944 0.28748 0.42669 0.0
H81 H 0.03411 0.3059 0.45985 0.0
H82 H 0.07811 0.28433 0.4495 0.0
H83 H 0.05311 0.30226 0.48207 0.0
H84 H 0.07489 0.32237 0.38183 0.0
H85 H 0.06577 0.27012 0.37894 0.0
H86 H 0.99379 0.23229 0.45191 0.0
H87 H 0.03985 0.23571 0.44468 0.0
Li88 Li 0.04729 0.82405 0.63068 0.0
Li89 Li 0.06149 0.81374 0.65189 0.0
Li90 Li 0.04567 0.7945 0.63096 0.0
Li91 Li 0.03444 0.80971 0.65129 0.0
C92 C 0.07543 0.821 0.62425 0.0
N93 N 0.09993 0.84021 0.61469 0.0
C94 C 0.08245 0.83583 0.63298 0.0
C95 C 0.08087 0.8159 0.61067 0.0
C96 C 0.09482 0.84538 0.62796 0.0
C97 C 0.09327 0.8258 0.60602 0.0
C98 C 0.05366 0.84217 0.66612 0.0
C99 C 0.05343 0.85209 0.69333 0.0
N100 N 0.06209 0.86652 0.69112 0.0
C101 C 0.06238 0.85717 0.66405 0.0
C102 C 0.04898 0.83966 0.68081 0.0
C103 C 0.0666 0.86929 0.67686 0.0
C104 C 0.03933 0.85313 0.6248 0.0
N105 N 0.04646 0.84216 0.61864 0.0
C106 C 0.05242 0.85858 0.59781 0.0
C107 C 0.05285 0.84454 0.60531 0.0
C108 C 0.04526 0.87025 0.60403 0.0
C109 C 0.03861 0.86728 0.6177 0.0
H110 H 0.03435 0.85098 0.63542 0.0
H111 H 0.05836 0.8356 0.60052 0.0
C112 C 0.09088 0.80954 0.65945 0.0
N113 N 0.08074 0.81695 0.6654 0.0
C114 C 0.10503 0.81058 0.66829 0.0
C115 C 0.09812 0.82677 0.68939 0.0
C116 C 0.08408 0.82541 0.68011 0.0
C117 C 0.10884 0.8193 0.68349 0.0
H118 H 0.08788 0.80257 0.64788 0.0
H119 H 0.07584 0.83094 0.68483 0.0
C120 C 0.02229 0.80398 0.61168 0.0
N121 N 0.00925 0.79947 0.58006 0.0
C122 C 0.00685 0.8027 0.60759 0.0
C123 C 0.03111 0.80299 0.59971 0.0
C124 C 1.00047 0.80041 0.59153 0.0
C125 C 0.02431 0.80071 0.58379 0.0
C126 C 0.05511 0.78789 0.66634 0.0
C127 C 0.06409 0.7771 0.66286 0.0
C128 C 0.05507 0.79347 0.68218 0.0
C129 C 0.07304 0.77219 0.67531 0.0
C130 C 0.06418 0.78829 0.6943 0.0
N131 N 0.07292 0.77786 0.69064 0.0
C132 C 0.0564 0.76949 0.61561 0.0
C133 C 0.03005 0.76357 0.61494 0.0
C134 C 0.05572 0.75406 0.60811 0.0
N135 N 0.04369 0.77389 0.61896 0.0
C136 C 0.02885 0.74802 0.60738 0.0
C137 C 0.04182 0.74298 0.60397 0.0
H138 H 0.06714 0.77785 0.61914 0.0
H139 H 0.02012 0.76733 0.61784 0.0
C140 C 0.01006 0.82099 0.66034 0.0
N141 N 0.01791 0.80924 0.66254 0.0
C142 C 0.99765 0.82134 0.668 0.0
C143 C 0.00172 0.79755 0.68021 0.0
C144 C 0.01403 0.79761 0.67223 0.0
C145 C 0.99329 0.80948 0.67807 0.0
H146 H 0.01345 0.83009 0.65258 0.0
H147 H 0.02042 0.78834 0.67368 0.0
O148 O 0.06321 0.81149 0.62883 0.0
O149 O 0.04922 0.83024 0.65364 0.0
O150 O 0.02869 0.80624 0.62736 0.0
O151 O 0.04666 0.79325 0.65429 0.0
H152 H 0.07843 0.83987 0.64355 0.0
H153 H 0.07551 0.80445 0.60377 0.0
H154 H 0.10037 0.85689 0.63462 0.0
H155 H 0.09759 0.82203 0.59552 0.0
H156 H 0.04998 0.85028 0.7048 0.0
H157 H 0.06578 0.85949 0.65265 0.0
H158 H 0.04208 0.82822 0.68259 0.0
H159 H 0.0734 0.88093 0.67545 0.0
H160 H 0.05753 0.86022 0.58719 0.0
H161 H 0.03315 0.87596 0.62309 0.0
H162 H 0.11277 0.80432 0.66337 0.0
H163 H 0.10057 0.83366 0.70101 0.0
H164 H 0.99989 0.80346 0.61675 0.0
H165 H 0.04308 0.80396 0.60265 0.0
H166 H 0.98852 0.79938 0.58818 0.0
H167 H 0.03099 0.79992 0.5744 0.0
H168 H 0.06428 0.77272 0.65066 0.0
H169 H 0.04823 0.80187 0.68507 0.0
H170 H 0.08014 0.76394 0.67279 0.0
H171 H 0.06435 0.7926 0.7066 0.0
H172 H 0.06607 0.75072 0.60599 0.0
H173 H 0.01785 0.74005 0.60424 0.0
H174 H 0.99161 0.83088 0.66616 0.0
H175 H 0.99867 0.78808 0.68772 0.0
Li176 Li 0.5032 0.79054 0.90053 0.0
Li177 Li 0.51882 0.80925 0.92284 0.0
Li178 Li 0.53027 0.79495 0.90276 0.0
Li179 Li 0.51744 0.77985 0.92245 0.0
C180 C 0.52523 0.82132 0.89061 0.0
N181 N 0.54181 0.8417 0.87268 0.0
C182 C 0.5335 0.83655 0.89749 0.0
C183 C 0.52537 0.81648 0.8746 0.0
C184 C 0.5418 0.84668 0.88822 0.0
C185 C 0.53384 0.82694 0.86574 0.0
C186 C 0.49258 0.79777 0.93301 0.0
C187 C 0.48681 0.80431 0.95913 0.0
N188 N 0.47587 0.81144 0.95251 0.0
C189 C 0.48123 0.80506 0.92644 0.0
C190 C 0.49536 0.7973 0.94947 0.0
C191 C 0.47292 0.81195 0.9365 0.0
C192 C 0.47233 0.77636 0.88975 0.0
N193 N 0.48449 0.7869 0.88645 0.0
C194 C 0.4696 0.79429 0.86416 0.0
C195 C 0.48339 0.79571 0.87388 0.0
C196 C 0.45672 0.78381 0.86747 0.0
C197 C 0.45828 0.77458 0.88035 0.0
H198 H 0.47349 0.76964 0.89995 0.0
H199 H 0.49316 0.80412 0.87159 0.0
C200 C 0.53128 0.83585 0.94752 0.0
N201 N 0.52005 0.82969 0.93515 0.0
C202 C 0.53241 0.85128 0.95536 0.0
C203 C 0.51036 0.85371 0.93768 0.0
C204 C 0.50972 0.83832 0.93014 0.0
C205 C 0.5219 0.86053 0.95042 0.0
H206 H 0.53959 0.82897 0.95107 0.0
H207 H 0.50111 0.83336 0.92003 0.0
C208 C 0.50612 0.76279 0.8882 0.0
N209 N 0.48572 0.74073 0.86612 0.0
C210 C 0.49672 0.74967 0.89319 0.0
C211 C 0.5052 0.76466 0.87198 0.0
C212 C 0.48648 0.73865 0.88184 0.0
C213 C 0.49479 0.75339 0.861 0.0
C214 C 0.54488 0.79439 0.9387 0.0
C215 C 0.55802 0.78953 0.93606 0.0
C216 C 0.5411 0.79509 0.954 0.0
C217 C 0.56712 0.7853 0.94883 0.0
C218 C 0.55048 0.79075 0.96645 0.0
N219 N 0.56319 0.78598 0.96363 0.0
C220 C 0.55847 0.80942 0.89384 0.0
C221 C 0.54765 0.78273 0.88198 0.0
C222 C 0.57084 0.80992 0.88588 0.0
N223 N 0.54713 0.79602 0.89163 0.0
C224 C 0.55986 0.78262 0.87394 0.0
C225 C 0.57171 0.79636 0.87576 0.0
H226 H 0.55795 0.81973 0.90183 0.0
H227 H 0.53868 0.77208 0.8807 0.0
C228 C 0.50616 0.75495 0.94158 0.0
N229 N 0.51778 0.76134 0.9341 0.0
C230 C 0.50592 0.74043 0.94841 0.0
C231 C 0.52975 0.73954 0.94005 0.0
C232 C 0.52941 0.75389 0.93319 0.0
C233 C 0.51778 0.73238 0.94761 0.0
H234 H 0.49683 0.76084 0.94178 0.0
H235 H 0.53831 0.75893 0.92679 0.0
O236 O 0.51712 0.81117 0.89951 0.0
O237 O 0.50088 0.79104 0.92338 0.0
O238 O 0.51593 0.77395 0.89915 0.0
O239 O 0.53577 0.79844 0.92634 0.0
H240 H 0.53361 0.84048 0.90987 0.0
H241 H 0.51918 0.80467 0.86912 0.0
H242 H 0.54827 0.85848 0.8934 0.0
H243 H 0.53412 0.82331 0.85337 0.0
H244 H 0.48886 0.80407 0.9719 0.0
H245 H 0.47895 0.80556 0.91372 0.0
H246 H 0.50401 0.79155 0.95472 0.0
H247 H 0.46416 0.81772 0.9316 0.0
H248 H 0.46901 0.80148 0.85424 0.0
H249 H 0.44867 0.7665 0.88349 0.0
H250 H 0.54166 0.85605 0.96491 0.0
H251 H 0.50187 0.86018 0.93351 0.0
H252 H 0.49723 0.7481 0.90571 0.0
H253 H 0.51234 0.7748 0.86793 0.0
H254 H 0.47909 0.72847 0.88553 0.0
H255 H 0.4939 0.75473 0.84842 0.0
H256 H 0.56109 0.78894 0.92426 0.0
H257 H 0.53099 0.79889 0.95622 0.0
H258 H 0.5773 0.78145 0.94697 0.0
H259 H 0.54767 0.79117 0.97836 0.0
H260 H 0.57957 0.82085 0.8876 0.0
H261 H 0.56013 0.77171 0.86663 0.0
H262 H 0.49629 0.73534 0.95381 0.0
H263 H 0.53929 0.73407 0.93929 0.0
Li264 Li 0.54942 0.32444 0.13021 0.0
Li265 Li 0.56309 0.31322 0.15196 0.0
Li266 Li 0.54564 0.29435 0.12963 0.0
Li267 Li 0.53584 0.30952 0.15043 0.0
C268 C 0.57203 0.31507 0.11658 0.0
N269 N 0.58723 0.32399 0.09179 0.0
C270 C 0.58598 0.3259 0.11963 0.0
C271 C 0.56593 0.30855 0.10095 0.0
C272 C 0.59345 0.33034 0.10693 0.0
C273 C 0.57376 0.31327 0.08857 0.0
C274 C 0.55918 0.34073 0.16636 0.0
C275 C 0.56654 0.34762 0.19472 0.0
N276 N 0.57539 0.36176 0.19209 0.0
C277 C 0.56824 0.35541 0.16395 0.0
C278 C 0.55822 0.33687 0.18187 0.0
C279 C 0.57639 0.36585 0.17711 0.0
C280 C 0.53633 0.3452 0.11082 0.0
N281 N 0.54967 0.34285 0.11814 0.0
C282 C 0.56246 0.36826 0.11116 0.0
C283 C 0.56263 0.35401 0.11835 0.0
C284 C 0.54881 0.37111 0.10366 0.0
C285 C 0.53565 0.35922 0.10339 0.0
H286 H 0.52609 0.33644 0.11117 0.0
H287 H 0.57307 0.35215 0.12455 0.0
C288 C 0.5837 0.30293 0.17407 0.0
N289 N 0.58179 0.31561 0.16585 0.0
C290 C 0.59731 0.30336 0.18373 0.0
C291 C 0.6069 0.3299 0.17628 0.0
C292 C 0.59302 0.32899 0.16681 0.0
C293 C 0.60926 0.31688 0.18479 0.0
H294 H 0.57474 0.29229 0.17291 0.0
H295 H 0.59135 0.33882 0.15996 0.0
C296 C 0.51936 0.30095 0.11413 0.0
N297 N 0.49764 0.28703 0.08844 0.0
C298 C 0.50532 0.29245 0.11659 0.0
C299 C 0.52228 0.30257 0.09863 0.0
C300 C 0.4945 0.28545 0.10344 0.0
C301 C 0.51117 0.29539 0.08579 0.0
C302 C 0.54181 0.28289 0.16325 0.0
C303 C 0.53253 0.26784 0.15736 0.0
C304 C 0.54468 0.28758 0.17965 0.0
C305 C 0.52608 0.25783 0.16795 0.0
C306 C 0.53801 0.27724 0.18986 0.0
N307 N 0.52891 0.26271 0.18385 0.0
C308 C 0.55637 0.26917 0.11477 0.0
C309 C 0.52986 0.26351 0.11195 0.0
C310 C 0.556 0.25385 0.10718 0.0
N311 N 0.54343 0.27372 0.11707 0.0
C312 C 0.52896 0.24806 0.10431 0.0
C313 C 0.54216 0.24293 0.10193 0.0
H314 H 0.56706 0.27733 0.1192 0.0
H315 H 0.51971 0.2671 0.11422 0.0
C316 C 0.5187 0.32394 0.16979 0.0
N317 N 0.51958 0.30951 0.16236 0.0
C318 C 0.50695 0.32504 0.17826 0.0
C319 C 0.497 0.29641 0.17117 0.0
C320 C 0.509 0.29586 0.16286 0.0
C321 C 0.4958 0.31119 0.17896 0.0
H322 H 0.52703 0.3347 0.16898 0.0
H323 H 0.50966 0.2846 0.15652 0.0
O324 O 0.56452 0.31066 0.12886 0.0
O325 O 0.5512 0.33027 0.15362 0.0
O326 O 0.53011 0.30781 0.12687 0.0
O327 O 0.54821 0.29286 0.15304 0.0
H328 H 0.59093 0.33095 0.13167 0.0
H329 H 0.55532 0.29987 0.09841 0.0
H330 H 0.6042 0.33882 0.10911 0.0
H331 H 0.56914 0.30837 0.07641 0.0
H332 H 0.56592 0.34474 0.20678 0.0
H333 H 0.56904 0.35868 0.15207 0.0
H334 H 0.55105 0.32573 0.18396 0.0
H335 H 0.58351 0.3772 0.17541 0.0
H336 H 0.5729 0.37702 0.11161 0.0
H337 H 0.52483 0.36097 0.098 0.0
H338 H 0.59846 0.29312 0.19023 0.0
H339 H 0.61581 0.34048 0.17652 0.0
H340 H 0.50283 0.29119 0.12851 0.0
H341 H 0.53296 0.30941 0.09652 0.0
H342 H 0.48362 0.27875 0.10516 0.0
H343 H 0.5133 0.2965 0.07372 0.0
H344 H 0.53024 0.26396 0.14474 0.0
H345 H 0.55206 0.29902 0.18446 0.0
H346 H 0.51881 0.24619 0.16354 0.0
H347 H 0.54011 0.28075 0.20257 0.0
H348 H 0.5665 0.25044 0.10589 0.0
H349 H 0.51802 0.2402 0.10038 0.0
H350 H 0.50661 0.33667 0.18419 0.0
H351 H 0.48855 0.28547 0.17111 0.0
Li352 Li 0.05352 0.82891 0.13464 0.0
Li353 Li 0.06864 0.81657 0.15584 0.0
Li354 Li 0.0512 0.7997 0.13417 0.0
Li355 Li 0.04103 0.81306 0.1549 0.0
C356 C 0.07464 0.80905 0.12058 0.0
N357 N 0.08411 0.79229 0.09632 0.0
C358 C 0.08607 0.80071 0.12405 0.0
C359 C 0.06807 0.80894 0.10479 0.0
C360 C 0.09069 0.79229 0.11161 0.0
C361 C 0.07301 0.80038 0.09269 0.0
C362 C 0.05996 0.84066 0.17411 0.0
C363 C 0.06222 0.83808 0.20224 0.0
N364 N 0.06697 0.85441 0.20536 0.0
C365 C 0.06485 0.85741 0.17757 0.0
C366 C 0.05863 0.83089 0.18651 0.0
C367 C 0.06834 0.86413 0.19346 0.0
C368 C 0.04159 0.85503 0.12517 0.0
N369 N 0.05261 0.84703 0.12293 0.0
C370 C 0.06119 0.86493 0.10417 0.0
C371 C 0.06239 0.85173 0.11274 0.0
C372 C 0.04987 0.87346 0.10619 0.0
C373 C 0.04003 0.86833 0.11694 0.0
H374 H 0.03401 0.85106 0.13341 0.0
H375 H 0.07109 0.84519 0.1112 0.0
C376 C 0.09142 0.80399 0.17175 0.0
N377 N 0.0875 0.81821 0.16902 0.0
C378 C 0.10521 0.80384 0.18078 0.0
C379 C 0.11087 0.83305 0.18394 0.0
C380 C 0.09687 0.83263 0.17491 0.0
C381 C 0.11526 0.8185 0.18695 0.0
H382 H 0.08385 0.7927 0.16675 0.0
H383 H 0.09356 0.84378 0.17239 0.0
C384 C 0.0227 0.80423 0.12115 0.0
N385 N 0.99764 0.78859 0.09981 0.0
C386 C 0.0121 0.79195 0.1258 0.0
C387 C 0.02044 0.80878 0.10576 0.0
C388 C 0.99954 0.78412 0.1148 0.0
C389 C 0.00772 0.80067 0.09511 0.0
C390 C 0.04834 0.78359 0.16423 0.0
C391 C 0.03639 0.77145 0.15632 0.0
C392 C 0.05489 0.78206 0.17967 0.0
C393 C 0.03117 0.75797 0.16401 0.0
C394 C 0.04933 0.76841 0.18696 0.0
N395 N 0.03768 0.75674 0.17905 0.0
C396 C 0.05744 0.76944 0.12761 0.0
C397 C 0.04084 0.77558 0.10638 0.0
C398 C 0.05699 0.75439 0.11956 0.0
N399 N 0.04927 0.77961 0.12108 0.0
C400 C 0.04008 0.76061 0.09786 0.0
C401 C 0.04815 0.74971 0.1045 0.0
H402 H 0.06429 0.77302 0.13918 0.0
H403 H 0.03482 0.78398 0.10113 0.0
C404 C 0.01606 0.8236 0.16299 0.0
N405 N 0.02437 0.81244 0.16639 0.0
C406 C 0.00316 0.82384 0.16984 0.0
C407 C 0.00756 0.80113 0.18369 0.0
C408 C 0.02045 0.80142 0.17667 0.0
C409 C 0.99861 0.81238 0.18025 0.0
H410 H 0.01943 0.83225 0.1548 0.0
H411 H 0.02716 0.79271 0.17936 0.0
O412 O 0.06965 0.81695 0.13263 0.0
O413 O 0.05677 0.83388 0.15863 0.0
O414 O 0.03505 0.81205 0.1317 0.0
O415 O 0.05374 0.79686 0.15692 0.0
H416 H 0.09122 0.80063 0.13623 0.0
H417 H 0.05907 0.81518 0.10195 0.0
H418 H 0.09947 0.78571 0.11411 0.0
H419 H 0.06795 0.8001 0.08042 0.0
H420 H 0.06125 0.83067 0.21196 0.0
H421 H 0.06599 0.8651 0.16807 0.0
H422 H 0.05492 0.81791 0.18403 0.0
H423 H 0.07218 0.87708 0.19633 0.0
H424 H 0.06893 0.86827 0.0959 0.0
H425 H 0.03131 0.87463 0.11915 0.0
H426 H 0.10791 0.79231 0.18294 0.0
H427 H 0.11828 0.84466 0.18822 0.0
H428 H 0.01351 0.78857 0.13779 0.0
H429 H 0.0285 0.81838 0.10205 0.0
H430 H 0.99128 0.77453 0.1182 0.0
H431 H 0.00587 0.80396 0.08312 0.0
H432 H 0.03125 0.77236 0.14435 0.0
H433 H 0.06412 0.79136 0.18599 0.0
H434 H 0.02195 0.74847 0.15803 0.0
H435 H 0.05426 0.76709 0.19892 0.0
H436 H 0.06329 0.74638 0.12526 0.0
H437 H 0.03336 0.75767 0.08614 0.0
H438 H 0.99686 0.83296 0.16703 0.0
H439 H 0.00448 0.79193 0.19147 0.0
Li440 Li 0.51461 0.80376 0.42041 0.0
Li441 Li 0.49663 0.78621 0.39738 0.0
Li442 Li 0.51124 0.77386 0.41888 0.0
Li443 Li 0.52441 0.78961 0.39911 0.0
C444 C 0.48772 0.78532 0.43285 0.0
N445 N 0.47097 0.78169 0.45732 0.0
C446 C 0.47233 0.77854 0.42952 0.0
C447 C 0.49459 0.79035 0.44858 0.0
C448 C 0.46406 0.77678 0.44207 0.0
C449 C 0.48593 0.78838 0.4608 0.0
C450 C 0.5152 0.8173 0.38692 0.0
C451 C 0.51186 0.82547 0.36045 0.0
N452 N 0.52141 0.83992 0.36581 0.0
C453 C 0.52481 0.83231 0.39222 0.0
C454 C 0.50851 0.81391 0.37095 0.0
C455 C 0.52788 0.84355 0.38134 0.0
C456 C 0.53067 0.83367 0.4385 0.0
N457 N 0.51697 0.8237 0.4335 0.0
C458 C 0.50479 0.84338 0.44427 0.0
C459 C 0.50416 0.82825 0.43625 0.0
C460 C 0.51874 0.85412 0.44932 0.0
C461 C 0.53182 0.84898 0.44651 0.0
H462 H 0.54066 0.83005 0.43572 0.0
H463 H 0.49339 0.82026 0.43183 0.0
C464 C 0.47115 0.77275 0.37281 0.0
N465 N 0.47774 0.78503 0.38439 0.0
C466 C 0.45731 0.77286 0.36372 0.0
C467 C 0.45718 0.79802 0.37888 0.0
C468 C 0.47105 0.7975 0.38755 0.0
C469 C 0.45009 0.78563 0.36668 0.0
H470 H 0.47659 0.76287 0.3706 0.0
H471 H 0.47651 0.80704 0.39692 0.0
C472 C 0.54097 0.79538 0.43557 0.0
N473 N 0.56281 0.80493 0.4621 0.0
C474 C 0.55506 0.80457 0.43416 0.0
C475 C 0.53805 0.79082 0.45041 0.0
C476 C 0.56594 0.80936 0.44773 0.0
C477 C 0.54922 0.79583 0.4637 0.0
C478 C 0.50701 0.75887 0.38171 0.0
C479 C 0.50597 0.74235 0.38268 0.0
C480 C 0.50705 0.76488 0.36692 0.0
C481 C 0.5049 0.73207 0.36878 0.0
C482 C 0.50594 0.75422 0.35329 0.0
N483 N 0.5049 0.73817 0.35449 0.0
C484 C 0.5005 0.74917 0.43879 0.0
C485 C 0.52338 0.74842 0.42936 0.0
C486 C 0.50138 0.73551 0.44675 0.0
N487 N 0.51145 0.75535 0.43035 0.0
C488 C 0.52465 0.73468 0.437 0.0
C489 C 0.51355 0.72802 0.44583 0.0
H490 H 0.491 0.7547 0.43928 0.0
H491 H 0.53192 0.75357 0.42255 0.0
C492 C 0.5501 0.80571 0.38692 0.0
N493 N 0.54111 0.79101 0.3876 0.0
C494 C 0.56276 0.80698 0.37935 0.0
C495 C 0.55688 0.77792 0.3735 0.0
C496 C 0.5444 0.77722 0.38127 0.0
C497 C 0.56629 0.79295 0.37247 0.0
H498 H 0.54767 0.81646 0.39258 0.0
H499 H 0.53754 0.76559 0.38254 0.0
O500 O 0.49593 0.78725 0.42068 0.0
O501 O 0.51196 0.80621 0.39743 0.0
O502 O 0.53025 0.7905 0.42238 0.0
O503 O 0.50835 0.7691 0.39525 0.0
H504 H 0.46686 0.77468 0.41737 0.0
H505 H 0.50644 0.79586 0.45132 0.0
H506 H 0.45214 0.77153 0.43969 0.0
H507 H 0.49109 0.79222 0.47304 0.0
H508 H 0.50681 0.82298 0.34804 0.0
H509 H 0.52996 0.83519 0.40456 0.0
H510 H 0.50072 0.80253 0.36674 0.0
H511 H 0.53541 0.85516 0.38525 0.0
H512 H 0.49442 0.8467 0.4463 0.0
H513 H 0.5428 0.85692 0.44989 0.0
H514 H 0.45244 0.76311 0.35436 0.0
H515 H 0.452 0.80795 0.38188 0.0
H516 H 0.55753 0.80807 0.42271 0.0
H517 H 0.52732 0.78339 0.45164 0.0
H518 H 0.57687 0.81658 0.44684 0.0
H519 H 0.54711 0.79243 0.47528 0.0
H520 H 0.50603 0.73754 0.39407 0.0
H521 H 0.50806 0.77765 0.36601 0.0
H522 H 0.50409 0.71926 0.36934 0.0
H523 H 0.50596 0.7587 0.34176 0.0
H524 H 0.49249 0.73066 0.45327 0.0
H525 H 0.5343 0.72943 0.4361 0.0
H526 H 0.5697 0.81882 0.37888 0.0
H527 H 0.55936 0.76676 0.36873 0.0
Li528 Li 0.55397 0.33 0.63582 0.0
Li529 Li 0.56884 0.31748 0.6569 0.0
Li530 Li 0.55105 0.30085 0.63558 0.0
Li531 Li 0.54152 0.31485 0.65618 0.0
C532 C 0.57467 0.30909 0.62198 0.0
N533 N 0.58401 0.2912 0.59843 0.0
C534 C 0.58561 0.30026 0.62596 0.0
C535 C 0.56856 0.30894 0.60602 0.0
C536 C 0.59017 0.29126 0.61388 0.0
C537 C 0.57341 0.29979 0.59429 0.0
C538 C 0.55987 0.34153 0.67544 0.0
C539 C 0.56371 0.33814 0.70341 0.0
N540 N 0.56445 0.35418 0.70699 0.0
C541 C 0.56064 0.35797 0.67938 0.0
C542 C 0.56141 0.33151 0.68753 0.0
C543 C 0.56297 0.36415 0.69541 0.0
C544 C 0.5425 0.35635 0.62636 0.0
N545 N 0.55332 0.3481 0.62404 0.0
C546 C 0.56177 0.36552 0.60485 0.0
C547 C 0.56295 0.35243 0.6136 0.0
C548 C 0.55062 0.37427 0.60692 0.0
C549 C 0.54097 0.36953 0.61795 0.0
H550 H 0.53502 0.35263 0.63478 0.0
H551 H 0.57147 0.34567 0.61197 0.0
C552 C 0.59117 0.30455 0.67333 0.0
N553 N 0.58772 0.31884 0.66995 0.0
C554 C 0.60496 0.30426 0.6823 0.0
C555 C 0.61145 0.33345 0.68422 0.0
C556 C 0.59747 0.33317 0.67521 0.0
C557 C 0.61541 0.31883 0.68781 0.0
H558 H 0.58324 0.29333 0.66888 0.0
H559 H 0.59447 0.34436 0.67225 0.0
C560 C 0.52393 0.30814 0.6205 0.0
N561 N 0.50087 0.29769 0.59519 0.0
C562 C 0.51068 0.29764 0.6226 0.0
C563 C 0.52533 0.31358 0.60562 0.0
C564 C 0.4992 0.29242 0.60963 0.0
C565 C 0.51357 0.30809 0.59295 0.0
C566 C 0.54568 0.2846 0.66375 0.0
C567 C 0.5321 0.27603 0.65488 0.0
C568 C 0.5512 0.27933 0.67804 0.0
C569 C 0.52421 0.2623 0.66047 0.0
C570 C 0.54298 0.26554 0.68325 0.0
N571 N 0.52976 0.25738 0.67443 0.0
C572 C 0.55656 0.27026 0.6295 0.0
C573 C 0.53998 0.27625 0.60815 0.0
C574 C 0.55596 0.25508 0.62166 0.0
N575 N 0.54857 0.28048 0.62276 0.0
C576 C 0.53905 0.26112 0.59985 0.0
C577 C 0.5471 0.25028 0.60662 0.0
H578 H 0.56347 0.27396 0.64102 0.0
H579 H 0.53397 0.28459 0.6028 0.0
C580 C 0.51417 0.32153 0.66136 0.0
N581 N 0.5252 0.31448 0.66788 0.0
C582 C 0.50138 0.3214 0.66846 0.0
C583 C 0.51155 0.3069 0.68905 0.0
C584 C 0.52421 0.30738 0.68156 0.0
C585 C 0.49988 0.31393 0.68246 0.0
H586 H 0.51526 0.32712 0.65048 0.0
H587 H 0.53319 0.30204 0.68666 0.0
O588 O 0.56972 0.31755 0.63367 0.0
O589 O 0.55759 0.33533 0.6598 0.0
O590 O 0.53522 0.31355 0.63311 0.0
O591 O 0.5536 0.29811 0.65856 0.0
H592 H 0.59042 0.30022 0.63826 0.0
H593 H 0.56003 0.31564 0.60275 0.0
H594 H 0.59856 0.28428 0.61679 0.0
H595 H 0.5687 0.29947 0.5819 0.0
H596 H 0.56492 0.33052 0.71289 0.0
H597 H 0.55946 0.36588 0.67014 0.0
H598 H 0.56084 0.31875 0.68472 0.0
H599 H 0.56361 0.37686 0.69864 0.0
H600 H 0.56937 0.36857 0.59638 0.0
H601 H 0.53238 0.37603 0.6202 0.0
H602 H 0.60735 0.29271 0.68494 0.0
H603 H 0.61918 0.34497 0.68803 0.0
H604 H 0.50923 0.29366 0.63414 0.0
H605 H 0.53539 0.32189 0.60383 0.0
H606 H 0.48892 0.28423 0.61106 0.0
H607 H 0.51454 0.31211 0.58133 0.0
H608 H 0.52776 0.27987 0.64375 0.0
H609 H 0.56168 0.28588 0.68509 0.0
H610 H 0.51369 0.25553 0.6537 0.0
H611 H 0.54709 0.26135 0.69431 0.0
H612 H 0.56222 0.2471 0.62747 0.0
H613 H 0.53226 0.25804 0.58818 0.0
H614 H 0.49262 0.32681 0.66285 0.0
H615 H 0.51096 0.30121 0.69994 0.0
Li616 Li 0.01476 0.30336 0.91906 0.0
Li617 Li 0.99716 0.28738 0.89764 0.0
Li618 Li 0.01189 0.27436 0.91936 0.0
Li619 Li 0.02484 0.28988 0.89901 0.0
C620 C 0.99009 0.2935 0.93269 0.0
N621 N 0.97783 0.30684 0.95688 0.0
C622 C 0.98238 0.30582 0.92995 0.0
C623 C 0.99142 0.28783 0.94765 0.0
C624 C 0.97632 0.31246 0.94236 0.0
C625 C 0.98517 0.29475 0.95974 0.0
C626 C 0.01147 0.3105 0.88071 0.0
C627 C 0.0105 0.3028 0.85269 0.0
N628 N 0.00793 0.31749 0.84945 0.0
C629 C 0.00877 0.32553 0.87708 0.0
C630 C 0.01227 0.29904 0.86839 0.0
C631 C 0.00702 0.32883 0.86122 0.0
C632 C 0.02002 0.33703 0.92438 0.0
N633 N 0.01787 0.32368 0.9323 0.0
C634 C 0.0182 0.3401 0.95655 0.0
C635 C 0.01729 0.32498 0.94821 0.0
C636 C 0.01966 0.35395 0.9484 0.0
C637 C 0.02085 0.3523 0.93217 0.0
H638 H 0.02092 0.33581 0.9119 0.0
H639 H 0.01581 0.3143 0.9544 0.0
C640 C 0.96889 0.2716 0.87836 0.0
N641 N 0.97816 0.28593 0.88467 0.0
C642 C 0.95485 0.2713 0.86946 0.0
C643 C 0.96022 0.30048 0.87376 0.0
C644 C 0.97404 0.30019 0.88262 0.0
C645 C 0.9503 0.2859 0.86709 0.0
H646 H 0.97229 0.26039 0.88042 0.0
H647 H 0.98147 0.31141 0.88804 0.0
C648 C 0.04042 0.30102 0.93426 0.0
N649 N 0.05921 0.32206 0.95845 0.0
C650 C 0.05063 0.31431 0.93066 0.0
C651 C 0.03978 0.29838 0.95015 0.0
C652 C 0.06002 0.32483 0.94306 0.0
C653 C 0.04939 0.30916 0.96221 0.0
C654 C 0.00857 0.25647 0.8855 0.0
C655 C 0.01583 0.24463 0.89115 0.0
C656 C 1.00123 0.25436 0.86976 0.0
C657 C 0.0159 0.23105 0.88085 0.0
C658 C 0.00155 0.24062 0.85984 0.0
N659 N 0.00883 0.22935 0.86554 0.0
C660 C 0.99906 0.24468 0.931 0.0
C661 C 0.02536 0.25404 0.93834 0.0
C662 C 0.99953 0.23075 0.93867 0.0
N663 N 0.01189 0.25593 0.93093 0.0
C664 C 0.02633 0.24041 0.94622 0.0
C665 C 0.01334 0.22838 0.94634 0.0
H666 H 0.98852 0.24639 0.92484 0.0
H667 H 0.03543 0.26304 0.93791 0.0
C668 C 0.04871 0.30519 0.88359 0.0
N669 N 0.04159 0.29073 0.8876 0.0
C670 C 0.06134 0.30622 0.87598 0.0
C671 C 0.05916 0.27751 0.87683 0.0
C672 C 0.04665 0.27706 0.8845 0.0
C673 C 0.06672 0.29224 0.87249 0.0
H674 H 0.04465 0.31597 0.88644 0.0
H675 H 0.0412 0.26583 0.88826 0.0
O676 O 0.99612 0.28685 0.92074 0.0
O677 O 0.01292 0.30701 0.89621 0.0
O678 O 0.03095 0.29078 0.92229 0.0
O679 O 0.00822 0.26976 0.89548 0.0
H680 H 0.98125 0.31032 0.91842 0.0
H681 H 0.99733 0.27826 0.94992 0.0
H682 H 0.97043 0.3221 0.94047 0.0
H683 H 0.98617 0.29055 0.97141 0.0
H684 H 0.01116 0.29403 0.84308 0.0
H685 H 0.00782 0.3345 0.88636 0.0
H686 H 0.01436 0.28741 0.8709 0.0
H687 H 0.00489 0.34038 0.85827 0.0
H688 H 0.01728 0.34086 0.9691 0.0
H689 H 0.02234 0.36272 0.92552 0.0
H690 H 0.94752 0.25974 0.8648 0.0
H691 H 0.95738 0.31205 0.87212 0.0
H692 H 0.05119 0.31656 0.91842 0.0
H693 H 0.0318 0.28827 0.95314 0.0
H694 H 0.06793 0.33522 0.94046 0.0
H695 H 0.04896 0.30732 0.97456 0.0
H696 H 0.02153 0.24601 0.90329 0.0
H697 H 0.99529 0.26322 0.86523 0.0
H698 H 0.02158 0.22187 0.88504 0.0
H699 H 0.99598 0.23888 0.84762 0.0
H700 H 0.98924 0.22176 0.93823 0.0
H701 H 0.03719 0.23931 0.95213 0.0
H702 H 0.06679 0.31783 0.87281 0.0
H703 H 0.06309 0.26649 0.87468 0.0
Li704 Li 0.44063 0.12048 0.31198 0.0
Li705 Li 0.41808 0.10573 0.29471 0.0
Li706 Li 0.43923 0.11969 0.28296 0.0
Li707 Li 0.42368 0.13485 0.29723 0.0
C708 C 0.44342 0.08788 0.29677 0.0
N709 N 0.45387 0.05966 0.29812 0.0
C710 C 0.43574 0.07491 0.30367 0.0
C711 C 0.45638 0.08641 0.29047 0.0
C712 C 0.44121 0.06077 0.30426 0.0
C713 C 0.46149 0.07208 0.29129 0.0
C714 C 0.41334 0.11274 0.32596 0.0
C715 C 0.3949 0.10833 0.34361 0.0
N716 N 0.40107 0.09634 0.34945 0.0
C717 C 0.41949 0.10039 0.33215 0.0
C718 C 0.40094 0.11678 0.33175 0.0
C719 C 0.41315 0.09224 0.34402 0.0
C720 C 0.45172 0.12843 0.34494 0.0
N721 N 0.45361 0.12029 0.33126 0.0
C722 C 0.47155 0.10791 0.34554 0.0
C723 C 0.4636 0.11055 0.33129 0.0
C724 C 0.46929 0.11549 0.3599 0.0
C725 C 0.45959 0.12625 0.35955 0.0
H726 H 0.44362 0.13603 0.34456 0.0
H727 H 0.46508 0.10437 0.32032 0.0
C728 C 0.40482 0.07592 0.27854 0.0
N729 N 0.4027 0.08672 0.29012 0.0
C730 C 0.39438 0.06142 0.27398 0.0
C731 C 0.37942 0.0696 0.293 0.0
C732 C 0.39017 0.08404 0.29714 0.0
C733 C 0.3816 0.05798 0.28143 0.0
H734 H 0.41471 0.07858 0.27289 0.0
H735 H 0.3885 0.09304 0.30594 0.0
C736 C 0.46125 0.14549 0.3012 0.0
N737 N 0.49177 0.15808 0.30463 0.0
C738 C 0.46675 0.16222 0.30292 0.0
C739 C 0.47124 0.13517 0.30125 0.0
C740 C 0.48223 0.16836 0.30463 0.0
C741 C 0.48664 0.14176 0.303 0.0
C742 C 0.4038 0.11473 0.26889 0.0
C743 C 0.40176 0.10611 0.25384 0.0
C744 C 0.39132 0.11742 0.27547 0.0
C745 C 0.38721 0.10027 0.2456 0.0
C746 C 0.37696 0.1114 0.26684 0.0
N747 N 0.37521 0.10301 0.25222 0.0
C748 C 0.44387 0.10188 0.25741 0.0
C749 C 0.46078 0.12748 0.26155 0.0
C750 C 0.45125 0.09657 0.24559 0.0
N751 N 0.449 0.11685 0.26542 0.0
C752 C 0.46853 0.12268 0.24969 0.0
C753 C 0.46398 0.10688 0.24185 0.0
H754 H 0.43449 0.09373 0.26084 0.0
H755 H 0.46449 0.13942 0.26799 0.0
C756 C 0.40734 0.15674 0.30834 0.0
N757 N 0.41437 0.15232 0.29627 0.0
C758 C 0.39711 0.16666 0.30579 0.0
C759 C 0.40241 0.16799 0.27883 0.0
C760 C 0.4125 0.15807 0.2819 0.0
C761 C 0.39416 0.17188 0.29068 0.0
H762 H 0.40897 0.15175 0.31956 0.0
H763 H 0.41813 0.15407 0.27251 0.0
O764 O 0.43822 0.10186 0.29598 0.0
O765 O 0.41923 0.1208 0.31419 0.0
O766 O 0.44611 0.13934 0.29934 0.0
O767 O 0.41792 0.12009 0.27737 0.0
H768 H 0.42557 0.07561 0.30839 0.0
H769 H 0.46253 0.09625 0.28507 0.0
H770 H 0.43536 0.05066 0.30955 0.0
H771 H 0.47153 0.07083 0.2865 0.0
H772 H 0.38527 0.11129 0.34814 0.0
H773 H 0.42909 0.09714 0.32791 0.0
H774 H 0.39592 0.1262 0.32699 0.0
H775 H 0.41782 0.08266 0.34892 0.0
H776 H 0.4791 0.09969 0.3454 0.0
H777 H 0.45757 0.13224 0.37046 0.0
H778 H 0.39634 0.05295 0.26477 0.0
H779 H 0.36973 0.0674 0.29906 0.0
H780 H 0.45913 0.17037 0.30287 0.0
H781 H 0.46714 0.12223 0.29975 0.0
H782 H 0.48665 0.18128 0.30593 0.0
H783 H 0.4945 0.1339 0.303 0.0
H784 H 0.4113 0.10387 0.24863 0.0
H785 H 0.39268 0.12383 0.28722 0.0
H786 H 0.38545 0.09354 0.23396 0.0
H787 H 0.36719 0.11331 0.27181 0.0
H788 H 0.44745 0.08423 0.24007 0.0
H789 H 0.47815 0.13108 0.24697 0.0
H790 H 0.3909 0.16933 0.31519 0.0
H791 H 0.40059 0.17199 0.26711 0.0
Li792 Li 0.27495 0.2014 0.52722 0.0
Li793 Li 0.28413 0.18109 0.51331 0.0
Li794 Li 0.27345 0.20075 0.49801 0.0
Li795 Li 0.25674 0.17865 0.51149 0.0
C796 C 0.30316 0.217 0.52045 0.0
N797 N 0.32706 0.2422 0.53287 0.0
C798 C 0.31481 0.21438 0.53157 0.0
C799 C 0.30379 0.23236 0.51542 0.0
C800 C 0.32675 0.2273 0.53778 0.0
C801 C 0.31594 0.24496 0.5219 0.0
C802 C 0.27828 0.17203 0.54289 0.0
C803 C 0.27953 0.15024 0.5592 0.0
N804 N 0.29199 0.15954 0.56848 0.0
C805 C 0.29108 0.18137 0.55259 0.0
C806 C 0.27243 0.15634 0.54623 0.0
C807 C 0.29785 0.17485 0.56547 0.0
C808 C 0.26793 0.20712 0.55745 0.0
N809 N 0.27667 0.21447 0.54735 0.0
C810 C 0.28617 0.23748 0.56685 0.0
C811 C 0.28559 0.22949 0.55169 0.0
C812 C 0.27739 0.23001 0.5776 0.0
C813 C 0.26813 0.21463 0.57263 0.0
H814 H 0.2608 0.19526 0.55371 0.0
H815 H 0.29224 0.23534 0.54346 0.0
C816 C 0.31235 0.17678 0.50727 0.0
N817 N 0.30016 0.16961 0.5135 0.0
C818 C 0.32472 0.16963 0.50726 0.0
C819 C 0.31178 0.1477 0.51997 0.0
C820 C 0.29957 0.15518 0.51953 0.0
C821 C 0.32468 0.15496 0.51387 0.0
H822 H 0.31245 0.18811 0.50225 0.0
H823 H 0.28964 0.14943 0.52401 0.0
C824 C 0.25253 0.2148 0.51843 0.0
N825 N 0.24403 0.23998 0.53455 0.0
C826 C 0.24138 0.21159 0.52804 0.0
C827 C 0.25928 0.23078 0.5169 0.0
C828 C 0.23726 0.2245 0.53613 0.0
C829 C 0.25484 0.24336 0.52518 0.0
C830 C 0.27262 0.16328 0.48672 0.0
C831 C 0.28283 0.16539 0.47597 0.0
C832 C 0.26726 0.14787 0.49103 0.0
C833 C 0.2876 0.15198 0.46973 0.0
C834 C 0.27231 0.13477 0.48452 0.0
N835 N 0.2823 0.13708 0.47411 0.0
C836 C 0.2878 0.21418 0.4734 0.0
C837 C 0.2628 0.2175 0.47232 0.0
C838 C 0.28921 0.22172 0.45949 0.0
N839 N 0.27473 0.21218 0.47949 0.0
C840 C 0.26372 0.2251 0.45836 0.0
C841 C 0.27705 0.22726 0.45168 0.0
H842 H 0.29708 0.20973 0.47926 0.0
H843 H 0.25251 0.21572 0.47738 0.0
C844 C 0.2337 0.15945 0.52449 0.0
N845 N 0.2372 0.16527 0.51077 0.0
C846 C 0.21939 0.15025 0.52501 0.0
C847 C 0.21229 0.15357 0.49735 0.0
C848 C 0.22687 0.1625 0.4973 0.0
C849 C 0.20831 0.14729 0.51137 0.0
H850 H 0.24199 0.16217 0.53514 0.0
H851 H 0.22986 0.16751 0.4866 0.0
O852 O 0.29146 0.20449 0.51409 0.0
O853 O 0.27139 0.17821 0.53027 0.0
O854 O 0.25709 0.20235 0.51086 0.0
O855 O 0.26827 0.17631 0.49345 0.0
H856 H 0.31471 0.20247 0.53526 0.0
H857 H 0.29496 0.23453 0.50665 0.0
H858 H 0.33581 0.22546 0.54645 0.0
H859 H 0.31654 0.25694 0.5182 0.0
H860 H 0.27516 0.1381 0.56187 0.0
H861 H 0.29566 0.19357 0.55031 0.0
H862 H 0.26263 0.14886 0.53874 0.0
H863 H 0.30775 0.18196 0.57309 0.0
H864 H 0.29331 0.24943 0.57005 0.0
H865 H 0.26129 0.20827 0.58051 0.0
H866 H 0.33416 0.17554 0.502 0.0
H867 H 0.31116 0.13648 0.5253 0.0
H868 H 0.23612 0.19925 0.52937 0.0
H869 H 0.26794 0.23342 0.50952 0.0
H870 H 0.22872 0.22222 0.5437 0.0
H871 H 0.26002 0.2558 0.52419 0.0
H872 H 0.28714 0.17728 0.47263 0.0
H873 H 0.25945 0.1461 0.49946 0.0
H874 H 0.29557 0.15342 0.46147 0.0
H875 H 0.26834 0.12277 0.48781 0.0
H876 H 0.29964 0.22285 0.45474 0.0
H877 H 0.25411 0.22933 0.45293 0.0
H878 H 0.21709 0.14554 0.53606 0.0
H879 H 0.20417 0.15198 0.48659 0.0
Li880 Li 0.16808 0.07768 0.83034 0.0
Li881 Li 0.15202 0.05968 0.84336 0.0
Li882 Li 0.16742 0.04927 0.82458 0.0
Li883 Li 0.14527 0.06086 0.81569 0.0
C884 C 0.18711 0.07057 0.85473 0.0
N885 N 0.21356 0.08682 0.87359 0.0
C886 C 0.18732 0.08429 0.86498 0.0
C887 C 0.20032 0.06505 0.85413 0.0
C888 C 0.20081 0.09237 0.87439 0.0
C889 C 0.21359 0.07344 0.86376 0.0
C890 C 0.13985 0.08448 0.84382 0.0
C891 C 0.11777 0.08296 0.8564 0.0
N892 N 0.12505 0.09609 0.86673 0.0
C893 C 0.14709 0.09799 0.85452 0.0
C894 C 0.12504 0.07695 0.8447 0.0
C895 C 0.13942 0.10367 0.86602 0.0
C896 C 0.17468 0.11101 0.82777 0.0
N897 N 0.18115 0.09833 0.8308 0.0
C898 C 0.2055 0.11454 0.83027 0.0
C899 C 0.19625 0.09983 0.83205 0.0
C900 C 0.19912 0.12778 0.82684 0.0
C901 C 0.1835 0.12593 0.82579 0.0
H902 H 0.1626 0.10932 0.82622 0.0
H903 H 0.20109 0.08943 0.83371 0.0
C904 C 0.13359 0.04098 0.86124 0.0
N905 N 0.14407 0.05497 0.86219 0.0
C906 C 0.1262 0.03722 0.87406 0.0
C907 C 0.14116 0.0619 0.88904 0.0
C908 C 0.14823 0.06522 0.87585 0.0
C909 C 0.12976 0.04789 0.88811 0.0
H910 H 0.13072 0.03287 0.85039 0.0
H911 H 0.15672 0.07615 0.8764 0.0
C912 C 0.17225 0.07552 0.80005 0.0
N913 N 0.18663 0.09831 0.7827 0.0
C914 C 0.16442 0.08598 0.79249 0.0
C915 C 0.18736 0.07655 0.79871 0.0
C916 C 0.1719 0.09745 0.78379 0.0
C917 C 0.19444 0.08818 0.7899 0.0
C918 C 0.13475 0.02966 0.81735 0.0
C919 C 0.1383 0.0178 0.80717 0.0
C920 C 0.11968 0.02989 0.81786 0.0
C921 C 0.12672 0.00649 0.79755 0.0
C922 C 0.10844 0.01838 0.80804 0.0
N923 N 0.11216 0.00702 0.79816 0.0
C924 C 0.17937 0.02255 0.83055 0.0
C925 C 0.18202 0.03175 0.80528 0.0
C926 C 0.18585 0.00959 0.82686 0.0
N927 N 0.17761 0.03322 0.81977 0.0
C928 C 0.18868 0.01905 0.80115 0.0
C929 C 0.19054 0.00775 0.81198 0.0
H930 H 0.17553 0.02403 0.84189 0.0
H931 H 0.18004 0.04021 0.79683 0.0
C932 C 0.1182 0.06666 0.79942 0.0
N933 N 0.12951 0.05874 0.79859 0.0
C934 C 0.10634 0.06427 0.78679 0.0
C935 C 0.11811 0.0457 0.77281 0.0
C936 C 0.12981 0.04861 0.78558 0.0
C937 C 0.1062 0.05358 0.77335 0.0
H938 H 0.11839 0.07482 0.80983 0.0
H939 H 0.13912 0.04271 0.78522 0.0
O940 O 0.17404 0.06245 0.84542 0.0
O941 O 0.14722 0.07863 0.83257 0.0
O942 O 0.16523 0.06453 0.80899 0.0
O943 O 0.14595 0.041 0.82673 0.0
H944 H 0.17726 0.08884 0.86543 0.0
H945 H 0.20034 0.05443 0.84627 0.0
H946 H 0.20116 0.10307 0.88228 0.0
H947 H 0.22391 0.06934 0.86339 0.0
H948 H 0.10636 0.07716 0.8573 0.0
H949 H 0.15856 0.10396 0.85408 0.0
H950 H 0.11928 0.06643 0.83659 0.0
H951 H 0.14492 0.11407 0.87442 0.0
H952 H 0.21748 0.11543 0.83124 0.0
H953 H 0.17806 0.13569 0.8228 0.0
H954 H 0.1174 0.02637 0.87273 0.0
H955 H 0.14441 0.07033 0.89975 0.0
H956 H 0.15275 0.08539 0.7935 0.0
H957 H 0.19363 0.06867 0.80465 0.0
H958 H 0.16602 0.1057 0.77795 0.0
H959 H 0.20616 0.08922 0.78887 0.0
H960 H 0.14984 0.01737 0.80658 0.0
H961 H 0.1167 0.03898 0.82562 0.0
H962 H 0.12932 0.9973 0.78956 0.0
H963 H 0.09675 0.01852 0.80823 0.0
H964 H 0.18724 0.00114 0.83554 0.0
H965 H 0.19201 0.01787 0.78949 0.0
H966 H 0.09737 0.07064 0.78753 0.0
H967 H 0.11854 0.03765 0.76248 0.0
Li968 Li 0.27541 0.92145 0.03356 0.0
Li969 Li 0.28784 0.90225 0.04656 0.0
Li970 Li 0.30306 0.92471 0.0366 0.0
Li971 Li 0.2862 0.90124 0.01738 0.0
C972 C 0.29717 0.93741 0.06508 0.0
N973 N 0.31125 0.96149 0.08923 0.0
C974 C 0.30664 0.93396 0.07802 0.0
C975 C 0.29476 0.95308 0.06452 0.0
C976 C 0.31369 0.94631 0.09008 0.0
C977 C 0.30201 0.96509 0.07682 0.0
C978 C 0.2617 0.88406 0.03552 0.0
C979 C 0.25657 0.85538 0.03748 0.0
N980 N 0.24743 0.85741 0.04838 0.0
C981 C 0.25222 0.88589 0.04667 0.0
C982 C 0.26388 0.86872 0.03083 0.0
C983 C 0.24513 0.87225 0.05306 0.0
C984 C 0.25114 0.93407 0.01893 0.0
N985 N 0.25913 0.93235 0.03309 0.0
C986 C 0.2435 0.94556 0.04727 0.0
C987 C 0.25547 0.93778 0.04712 0.0
C988 C 0.23513 0.94772 0.03282 0.0
C989 C 0.23913 0.94184 0.01851 0.0
H990 H 0.25402 0.92932 0.00793 0.0
H991 H 0.26178 0.93593 0.05823 0.0
C992 C 0.29023 0.8749 0.06521 0.0
N993 N 0.28686 0.88975 0.06473 0.0
C994 C 0.29019 0.86733 0.07924 0.0
C995 C 0.28242 0.88999 0.09176 0.0
C996 C 0.28255 0.89706 0.07753 0.0
C997 C 0.28655 0.87506 0.09289 0.0
H998 H 0.29308 0.86894 0.05479 0.0
H999 H 0.27936 0.90855 0.07675 0.0
C1000 C 0.28615 0.93772 0.00879 0.0
N1001 N 0.28078 0.96307 0.99213 0.0
C1002 C 0.28029 0.93489 0.99257 0.0
C1003 C 0.28934 0.95342 0.01652 0.0
C1004 C 0.27764 0.94788 0.98436 0.0
C1005 C 0.28653 0.96608 0.00789 0.0
C1006 C 0.31208 0.89086 0.03915 0.0
C1007 C 0.32186 0.89494 0.05361 0.0
C1008 C 0.31061 0.87579 0.03055 0.0
C1009 C 0.32995 0.8838 0.0593 0.0
C1010 C 0.31893 0.86499 0.03663 0.0
N1011 N 0.32834 0.86918 0.05076 0.0
C1012 C 0.33253 0.94151 0.05201 0.0
C1013 C 0.32561 0.94686 0.02552 0.0
C1014 C 0.34686 0.95127 0.0527 0.0
N1015 N 0.32221 0.93951 0.03857 0.0
C1016 C 0.33975 0.95677 0.02571 0.0
C1017 C 0.35069 0.95896 0.03937 0.0
H1018 H 0.32988 0.93515 0.06205 0.0
H1019 H 0.31748 0.94472 0.01477 0.0
C1020 C 0.27097 0.88222 0.98839 0.0
N1021 N 0.28458 0.88991 0.99669 0.0
C1022 C 0.2698 0.87524 0.97271 0.0
C1023 C 0.29667 0.88411 0.97448 0.0
C1024 C 0.29732 0.89091 0.9901 0.0
C1025 C 0.28276 0.87624 0.96546 0.0
H1026 H 0.26099 0.88182 0.99383 0.0
H1027 H 0.30798 0.89723 0.99692 0.0
O1028 O 0.28996 0.9254 0.05329 0.0
O1029 O 0.26915 0.89731 0.02956 0.0
O1030 O 0.28885 0.92517 0.01701 0.0
O1031 O 0.30415 0.90162 0.0333 0.0
H1032 H 0.30867 0.92192 0.07865 0.0
H1033 H 0.28728 0.95592 0.05475 0.0
H1034 H 0.32111 0.94382 0.1001 0.0
H1035 H 0.30025 0.97727 0.07652 0.0
H1036 H 0.25821 0.84342 0.03405 0.0
H1037 H 0.25052 0.89774 0.05048 0.0
H1038 H 0.27129 0.86717 0.0223 0.0
H1039 H 0.23783 0.87347 0.06178 0.0
H1040 H 0.24068 0.94958 0.05859 0.0
H1041 H 0.23313 0.94332 0.00708 0.0
H1042 H 0.29336 0.85576 0.07951 0.0
H1043 H 0.27911 0.89619 0.10181 0.0
H1044 H 0.27781 0.92279 0.98642 0.0
H1045 H 0.29407 0.9558 0.029 0.0
H1046 H 0.27309 0.94589 0.97181 0.0
H1047 H 0.28896 0.9783 0.01373 0.0
H1048 H 0.32303 0.9065 0.06044 0.0
H1049 H 0.30309 0.87246 0.01933 0.0
H1050 H 0.3375 0.88676 0.07051 0.0
H1051 H 0.31789 0.85327 0.03013 0.0
H1052 H 0.35499 0.95229 0.06338 0.0
H1053 H 0.3421 0.96253 0.01517 0.0
H1054 H 0.25881 0.86951 0.96622 0.0
H1055 H 0.30699 0.88501 0.96954 0.0
Li1056 Li 0.27894 0.42142 0.03796 0.0
Li1057 Li 0.29028 0.40049 0.05223 0.0
Li1058 Li 0.3062 0.42258 0.0389 0.0
Li1059 Li 0.28814 0.40091 0.02314 0.0
C1060 C 0.29294 0.43559 0.06882 0.0
N1061 N 0.28839 0.45742 0.09241 0.0
C1062 C 0.28664 0.43009 0.08194 0.0
C1063 C 0.2971 0.4522 0.06782 0.0
C1064 C 0.28439 0.44131 0.09371 0.0
C1065 C 0.29466 0.46304 0.07983 0.0
C1066 C 0.26179 0.38517 0.02716 0.0
C1067 C 0.25179 0.35665 0.01972 0.0
N1068 N 0.24248 0.36014 0.00729 0.0
C1069 C 0.25209 0.38849 0.01437 0.0
C1070 C 0.26165 0.36914 0.0299 0.0
C1071 C 0.24243 0.37566 0.00443 0.0
C1072 C 0.25744 0.43786 0.0238 0.0
N1073 N 0.26297 0.43299 0.0378 0.0
C1074 C 0.24487 0.44323 0.05087 0.0
C1075 C 0.25678 0.43532 0.05115 0.0
C1076 C 0.23902 0.44856 0.03663 0.0
C1077 C 0.24546 0.44573 0.02295 0.0
H1078 H 0.26228 0.43554 0.01323 0.0
H1079 H 0.26087 0.43077 0.06197 0.0
C1080 C 0.30249 0.38874 0.08047 0.0
N1081 N 0.28955 0.38886 0.07069 0.0
C1082 C 0.30206 0.38131 0.09455 0.0
C1083 C 0.27501 0.37418 0.08821 0.0
C1084 C 0.27596 0.38172 0.07426 0.0
C1085 C 0.28816 0.374 0.0987 0.0
H1086 H 0.31315 0.39468 0.07746 0.0
H1087 H 0.26583 0.38214 0.06638 0.0
C1088 C 0.29671 0.43856 0.0151 0.0
N1089 N 0.30877 0.46762 0.0045 0.0
C1090 C 0.30472 0.43881 0.0023 0.0
C1091 C 0.29479 0.45311 0.02244 0.0
C1092 C 0.31075 0.45362 0.99714 0.0
C1093 C 0.30097 0.46767 0.01693 0.0
C1094 C 0.30991 0.38525 0.03267 0.0
C1095 C 0.31844 0.38574 0.0203 0.0
C1096 C 0.30549 0.37069 0.03908 0.0
C1097 C 0.32231 0.3716 0.01446 0.0
C1098 C 0.30962 0.35682 0.03293 0.0
N1099 N 0.31786 0.35756 0.02085 0.0
C1100 C 0.3326 0.44731 0.05242 0.0
C1101 C 0.33309 0.43371 0.02729 0.0
C1102 C 0.34698 0.4568 0.05244 0.0
N1103 N 0.32593 0.43609 0.03989 0.0
C1104 C 0.3474 0.44288 0.0268 0.0
C1105 C 0.35461 0.45462 0.0395 0.0
H1106 H 0.32685 0.44881 0.06247 0.0
H1107 H 0.3276 0.42473 0.01748 0.0
C1108 C 0.28283 0.39663 0.98977 0.0
N1109 N 0.2844 0.38806 0.00249 0.0
C1110 C 0.28184 0.38934 0.97432 0.0
C1111 C 0.28279 0.36404 0.985 0.0
C1112 C 0.28393 0.3719 1.00034 0.0
C1113 C 0.28214 0.37292 0.97179 0.0
H1114 H 0.28254 0.40925 0.99161 0.0
H1115 H 0.28479 0.36513 0.0105 0.0
O1116 O 0.29524 0.42475 0.0572 0.0
O1117 O 0.27159 0.39754 0.03675 0.0
O1118 O 0.29091 0.42417 0.02049 0.0
O1119 O 0.30606 0.39897 0.03864 0.0
H1120 H 0.2834 0.41729 0.08298 0.0
H1121 H 0.30226 0.45671 0.05794 0.0
H1122 H 0.27944 0.43722 0.10387 0.0
H1123 H 0.29779 0.47593 0.07916 0.0
H1124 H 0.2516 0.34418 0.02164 0.0
H1125 H 0.25215 0.40085 0.01206 0.0
H1126 H 0.26919 0.36639 0.03968 0.0
H1127 H 0.23491 0.37803 0.99443 0.0
H1128 H 0.24005 0.4448 0.06162 0.0
H1129 H 0.24135 0.44964 0.01172 0.0
H1130 H 0.31248 0.38168 0.10232 0.0
H1131 H 0.26405 0.36856 0.09076 0.0
H1132 H 0.30646 0.42772 0.99652 0.0
H1133 H 0.2886 0.45319 0.0323 0.0
H1134 H 0.31704 0.45398 0.98731 0.0
H1135 H 0.29958 0.479 0.02254 0.0
H1136 H 0.32189 0.39683 0.01512 0.0
H1137 H 0.29885 0.37004 0.04861 0.0
H1138 H 0.32883 0.37179 0.00482 0.0
H1139 H 0.30623 0.34547 0.03774 0.0
H1140 H 0.35216 0.46555 0.0626 0.0
H1141 H 0.35269 0.4409 0.01646 0.0
H1142 H 0.28095 0.39654 0.96443 0.0
H1143 H 0.28295 0.3513 0.98356 0.0
Li1144 Li 0.77856 0.20225 0.03609 0.0
Li1145 Li 0.79023 0.18244 0.01965 0.0
Li1146 Li 0.77698 0.20162 0.0069 0.0
Li1147 Li 0.76294 0.17941 0.01761 0.0
C1148 C 0.80294 0.2206 0.01849 0.0
N1149 N 0.81697 0.24836 0.00713 0.0
C1150 C 0.81431 0.22009 0.00931 0.0
C1151 C 0.79877 0.23522 0.02201 0.0
C1152 C 0.82126 0.23426 0.00365 0.0
C1153 C 0.80598 0.24912 0.01613 0.0
C1154 C 0.77035 0.16482 0.04218 0.0
C1155 C 0.76321 0.13575 0.04055 0.0
N1156 N 0.75427 0.13708 0.0518 0.0
C1157 C 0.76114 0.16592 0.05376 0.0
C1158 C 0.77145 0.14964 0.03553 0.0
C1159 C 0.75308 0.15174 0.05845 0.0
C1160 C 0.76706 0.21437 0.06224 0.0
N1161 N 0.77999 0.21402 0.05637 0.0
C1162 C 0.79462 0.22817 0.0806 0.0
C1163 C 0.79362 0.22081 0.06513 0.0
C1164 C 0.78145 0.22854 0.08712 0.0
C1165 C 0.76752 0.22166 0.07762 0.0
H1166 H 0.75637 0.20866 0.05508 0.0
H1167 H 0.80373 0.22023 0.06018 0.0
C1168 C 0.81191 0.16984 0.00556 0.0
N1169 N 0.80647 0.17188 0.01942 0.0
C1170 C 0.8238 0.16202 0.00491 0.0
C1171 C 0.82428 0.15864 0.03285 0.0
C1172 C 0.81237 0.1665 0.03295 0.0
C1173 C 0.83015 0.15628 0.01869 0.0
H1174 H 0.807 0.17431 0.99501 0.0
H1175 H 0.80777 0.16827 0.04379 0.0
C1176 C 0.75088 0.21109 0.01623 0.0
N1177 N 0.73018 0.22962 0.00827 0.0
C1178 C 0.73827 0.20482 0.00469 0.0
C1179 C 0.75289 0.22671 0.02385 0.0
C1180 C 0.72796 0.2144 0.00079 0.0
C1181 C 0.74231 0.23591 0.01962 0.0
C1182 C 0.76726 0.16981 0.98671 0.0
C1183 C 0.75592 0.1756 0.9779 0.0
C1184 C 0.77048 0.15513 0.98138 0.0
C1185 C 0.74784 0.16648 0.96394 0.0
C1186 C 0.76213 0.14636 0.96736 0.0
N1187 N 0.75107 0.15217 0.959 0.0
C1188 C 0.78634 0.20978 0.97823 0.0
C1189 C 0.76933 0.22527 0.98582 0.0
C1190 C 0.78701 0.21701 0.9641 0.0
N1191 N 0.77755 0.21391 0.98874 0.0
C1192 C 0.76939 0.23254 0.97166 0.0
C1193 C 0.77826 0.22836 0.96058 0.0
H1194 H 0.79271 0.20065 0.98074 0.0
H1195 H 0.76255 0.22862 0.99429 0.0
C1196 C 0.73382 0.16996 0.02367 0.0
N1197 N 0.74394 0.16457 0.01568 0.0
C1198 C 0.71942 0.16052 0.02295 0.0
C1199 C 0.72618 0.13979 0.0062 0.0
C1200 C 0.74051 0.1497 0.00722 0.0
C1201 C 0.71536 0.14528 0.01398 0.0
H1202 H 0.73696 0.18166 0.03063 0.0
H1203 H 0.74884 0.14549 0.0013 0.0
O1204 O 0.79569 0.2068 0.02374 0.0
O1205 O 0.77791 0.17852 0.03702 0.0
O1206 O 0.76104 0.20186 0.02036 0.0
O1207 O 0.77532 0.17849 1.00043 0.0
H1208 H 0.81761 0.20882 0.00645 0.0
H1209 H 0.78996 0.23576 0.02909 0.0
H1210 H 0.83002 0.23405 0.99644 0.0
H1211 H 0.80282 0.26051 0.01867 0.0
H1212 H 0.76388 0.12391 0.03545 0.0
H1213 H 0.76011 0.1776 0.05893 0.0
H1214 H 0.77842 0.14862 0.02644 0.0
H1215 H 0.74585 0.1524 0.06734 0.0
H1216 H 0.80559 0.23348 0.08741 0.0
H1217 H 0.75709 0.22145 0.08219 0.0
H1218 H 0.82807 0.16067 0.99379 0.0
H1219 H 0.82868 0.15423 0.04369 0.0
H1220 H 0.73641 0.19266 0.99885 0.0
H1221 H 0.76254 0.23171 0.03288 0.0
H1222 H 0.71816 0.20972 0.99186 0.0
H1223 H 0.74375 0.24805 0.02536 0.0
H1224 H 0.75343 0.18703 0.98176 0.0
H1225 H 0.77926 0.15053 0.98807 0.0
H1226 H 0.73901 0.1708 0.957 0.0
H1227 H 0.76444 0.13494 0.96312 0.0
H1228 H 0.79393 0.21342 0.95579 0.0
H1229 H 0.76259 0.24136 0.96939 0.0
H1230 H 0.71158 0.16507 0.02946 0.0
H1231 H 0.72353 0.12811 0.99917 0.0
Li1232 Li 0.14607 0.49563 0.25792 0.0
Li1233 Li 0.12273 0.47931 0.26388 0.0
Li1234 Li 0.14186 0.46622 0.25571 0.0
Li1235 Li 0.12662 0.47925 0.23709 0.0
C1236 C 0.15351 0.48865 0.2877 0.0
N1237 N 0.17418 0.50442 0.31358 0.0
C1238 C 0.1489 0.49732 0.29999 0.0
C1239 C 0.16862 0.48796 0.28861 0.0
C1240 C 0.15952 0.50522 0.31297 0.0
C1241 C 0.1789 0.49603 0.30178 0.0
C1242 C 0.1189 0.50767 0.24213 0.0
C1243 C 0.09756 0.51258 0.22498 0.0
N1244 N 0.10619 0.52658 0.22169 0.0
C1245 C 0.12754 0.52213 0.23862 0.0
C1246 C 0.10376 0.50289 0.23532 0.0
C1247 C 0.12091 0.53152 0.22826 0.0
C1248 C 0.17166 0.51835 0.25397 0.0
N1249 N 0.16067 0.51516 0.26312 0.0
C1250 C 0.17017 0.54058 0.27891 0.0
C1251 C 0.15964 0.52595 0.27531 0.0
C1252 C 0.18161 0.54421 0.26961 0.0
C1253 C 0.18234 0.53286 0.25705 0.0
H1254 H 0.17194 0.50981 0.24404 0.0
H1255 H 0.15045 0.52334 0.28201 0.0
C1256 C 0.11207 0.47237 0.29221 0.0
N1257 N 0.10936 0.47935 0.27862 0.0
C1258 C 0.10501 0.4757 0.30513 0.0
C1259 C 0.09158 0.49212 0.28922 0.0
C1260 C 0.09903 0.48864 0.2767 0.0
C1261 C 0.09505 0.48617 0.30385 0.0
H1262 H 0.12053 0.46522 0.29339 0.0
H1263 H 0.09734 0.49425 0.26588 0.0
C1264 C 0.15902 0.47583 0.23241 0.0
N1265 N 0.18009 0.46453 0.21724 0.0
C1266 C 0.15514 0.46859 0.2167 0.0
C1267 C 0.17365 0.47742 0.24038 0.0
C1268 C 0.16595 0.46295 0.20924 0.0
C1269 C 0.18412 0.47158 0.23251 0.0
C1270 C 0.1082 0.45068 0.25357 0.0
C1271 C 0.11084 0.43921 0.26387 0.0
C1272 C 0.09366 0.45312 0.24962 0.0
C1273 C 0.09885 0.4304 0.27015 0.0
C1274 C 0.08198 0.44408 0.25616 0.0
N1275 N 0.08479 0.43302 0.26621 0.0
C1276 C 0.15564 0.44716 0.27497 0.0
C1277 C 0.15672 0.4411 0.2476 0.0
C1278 C 0.1655 0.43728 0.27924 0.0
N1279 N 0.15199 0.44941 0.25944 0.0
C1280 C 0.16685 0.43132 0.25134 0.0
C1281 C 0.17166 0.42977 0.26736 0.0
H1282 H 0.1514 0.45362 0.28411 0.0
H1283 H 0.15321 0.44264 0.23532 0.0
C1284 C 0.1244 0.4917 0.20807 0.0
N1285 N 0.11793 0.47939 0.21578 0.0
C1286 C 0.1174 0.49435 0.19329 0.0
C1287 C 0.09787 0.4707 0.19405 0.0
C1288 C 0.10513 0.4687 0.20901 0.0
C1289 C 0.10377 0.48396 0.18618 0.0
H1290 H 0.13464 0.49997 0.21381 0.0
H1291 H 0.10032 0.45894 0.21542 0.0
O1292 O 0.14329 0.48087 0.27486 0.0
O1293 O 0.12524 0.49824 0.25213 0.0
O1294 O 0.14859 0.48147 0.23989 0.0
O1295 O 0.11986 0.4597 0.24764 0.0
H1296 H 0.13729 0.49817 0.29942 0.0
H1297 H 0.17238 0.48126 0.27925 0.0
H1298 H 0.15612 0.51204 0.32253 0.0
H1299 H 0.19063 0.49561 0.30262 0.0
H1300 H 0.0859 0.50895 0.21951 0.0
H1301 H 0.13926 0.52604 0.24376 0.0
H1302 H 0.09694 0.49164 0.23774 0.0
H1303 H 0.12747 0.54271 0.2254 0.0
H1304 H 0.16905 0.5492 0.28846 0.0
H1305 H 0.19098 0.53526 0.24959 0.0
H1306 H 0.10791 0.47088 0.31625 0.0
H1307 H 0.08411 0.5004 0.28787 0.0
H1308 H 0.14387 0.46725 0.21036 0.0
H1309 H 0.17685 0.48303 0.25251 0.0
H1310 H 0.1631 0.45728 0.19709 0.0
H1311 H 0.19546 0.47266 0.23856 0.0
H1312 H 0.12204 0.43721 0.26708 0.0
H1313 H 0.09146 0.46204 0.24176 0.0
H1314 H 0.10073 0.42153 0.27819 0.0
H1315 H 0.07068 0.44591 0.25329 0.0
H1316 H 0.16895 0.43628 0.29172 0.0
H1317 H 0.17123 0.42544 0.24188 0.0
H1318 H 0.12232 0.50489 0.18792 0.0
H1319 H 0.08759 0.46215 0.18891 0.0
Li1320 Li 0.77912 0.92235 0.53805 0.0
Li1321 Li 0.79066 0.90199 0.55261 0.0
Li1322 Li 0.80662 0.92406 0.53921 0.0
Li1323 Li 0.78838 0.90227 0.52392 0.0
C1324 C 0.79274 0.93285 0.57149 0.0
N1325 N 0.78754 0.94612 0.60023 0.0
C1326 C 0.78041 0.92552 0.57821 0.0
C1327 C 0.80237 0.947 0.57931 0.0
C1328 C 0.778 0.93238 0.59278 0.0
C1329 C 0.79955 0.95351 0.59384 0.0
C1330 C 0.76353 0.88415 0.52917 0.0
C1331 C 0.75791 0.85498 0.52529 0.0
N1332 N 0.74713 0.85524 0.51276 0.0
C1333 C 0.75237 0.88412 0.51628 0.0
C1334 C 0.76634 0.86947 0.53371 0.0
C1335 C 0.74422 0.86938 0.50812 0.0
C1336 C 0.75313 0.93161 0.52395 0.0
N1337 N 0.76345 0.93447 0.53744 0.0
C1338 C 0.75056 0.95312 0.54894 0.0
C1339 C 0.76254 0.94528 0.5497 0.0
C1340 C 0.73945 0.95002 0.53535 0.0
C1341 C 0.74098 0.93921 0.52266 0.0
H1342 H 0.75435 0.92341 0.51413 0.0
H1343 H 0.77104 0.9479 0.56011 0.0
C1344 C 0.80358 0.89058 0.58077 0.0
N1345 N 0.79044 0.89054 0.57127 0.0
C1346 C 0.80353 0.88337 0.59501 0.0
C1347 C 0.77646 0.87607 0.58936 0.0
C1348 C 0.77703 0.88339 0.57525 0.0
C1349 C 0.78982 0.87611 0.59958 0.0
H1350 H 0.8141 0.8965 0.57744 0.0
H1351 H 0.76671 0.88363 0.5676 0.0
C1352 C 0.79361 0.94162 0.51811 0.0
N1353 N 0.79826 0.97392 0.51298 0.0
C1354 C 0.79422 0.94614 0.50274 0.0
C1355 C 0.7955 0.95362 0.53087 0.0
C1356 C 0.79656 0.9625 0.50039 0.0
C1357 C 0.79778 0.96984 0.52803 0.0
C1358 C 0.81235 0.88919 0.53207 0.0
C1359 C 0.82022 0.89269 0.51943 0.0
C1360 C 0.81068 0.87387 0.53739 0.0
C1361 C 0.82611 0.88065 0.51212 0.0
C1362 C 0.81676 0.86218 0.52978 0.0
N1363 N 0.82427 0.86578 0.5174 0.0
C1364 C 0.83537 0.94346 0.55389 0.0
C1365 C 0.83071 0.94033 0.5257 0.0
C1366 C 0.84984 0.95268 0.55386 0.0
N1367 N 0.82615 0.93754 0.53992 0.0
C1368 C 0.84505 0.94941 0.5251 0.0
C1369 C 0.85491 0.95571 0.53931 0.0
H1370 H 0.83158 0.94086 0.56504 0.0
H1371 H 0.82326 0.93524 0.51475 0.0
C1372 C 0.78353 0.89739 0.49066 0.0
N1373 N 0.78517 0.88907 0.50354 0.0
C1374 C 0.78281 0.88994 0.47533 0.0
C1375 C 0.78448 0.86501 0.48649 0.0
C1376 C 0.78535 0.87304 0.5017 0.0
C1377 C 0.78354 0.87362 0.4731 0.0
H1378 H 0.78302 0.90994 0.49229 0.0
H1379 H 0.78656 0.86653 0.512 0.0
O1380 O 0.79537 0.92633 0.55726 0.0
O1381 O 0.77177 0.89845 0.5372 0.0
O1382 O 0.79148 0.92558 0.52055 0.0
O1383 O 0.80646 0.90075 0.53936 0.0
H1384 H 0.77263 0.91483 0.57209 0.0
H1385 H 0.81185 0.95295 0.57416 0.0
H1386 H 0.76848 0.92684 0.59812 0.0
H1387 H 0.8069 0.96447 0.60002 0.0
H1388 H 0.76003 0.84354 0.52863 0.0
H1389 H 0.75007 0.89532 0.51253 0.0
H1390 H 0.77511 0.86923 0.54345 0.0
H1391 H 0.73559 0.86919 0.49809 0.0
H1392 H 0.7499 0.9613 0.55907 0.0
H1393 H 0.73294 0.93673 0.51177 0.0
H1394 H 0.81411 0.88388 0.60256 0.0
H1395 H 0.76563 0.87046 0.59222 0.0
H1396 H 0.79302 0.93716 0.49269 0.0
H1397 H 0.79521 0.95056 0.54286 0.0
H1398 H 0.79706 0.96612 0.48856 0.0
H1399 H 0.7992 0.9792 0.53781 0.0
H1400 H 0.82161 0.9045 0.5152 0.0
H1401 H 0.80467 0.87102 0.54722 0.0
H1402 H 0.83212 0.88313 0.50223 0.0
H1403 H 0.81549 0.85023 0.5337 0.0
H1404 H 0.85696 0.95737 0.56512 0.0
H1405 H 0.84849 0.9511 0.5136 0.0
H1406 H 0.78178 0.89693 0.4653 0.0
H1407 H 0.78507 0.85239 0.48528 0.0
Li1408 Li 0.91965 0.04796 0.24075 0.0
Li1409 Li 0.89853 0.02693 0.22913 0.0
Li1410 Li 0.91387 0.0439 0.21245 0.0
Li1411 Li 0.89726 0.05506 0.22877 0.0
C1412 C 0.92507 0.01668 0.23508 0.0
N1413 N 0.9349 0.99311 0.25156 0.0
C1414 C 0.92363 0.01602 0.25113 0.0
C1415 C 0.93154 0.00536 0.22743 0.0
C1416 C 0.92866 0.00402 0.25926 0.0
C1417 C 0.93643 0.99354 0.23596 0.0
C1418 C 0.88713 0.04009 0.25434 0.0
C1419 C 0.86014 0.03323 0.25192 0.0
N1420 N 0.86134 0.03404 0.26805 0.0
C1421 C 0.88812 0.04088 0.27088 0.0
C1422 C 0.87304 0.03625 0.24477 0.0
C1423 C 0.87495 0.03777 0.27759 0.0
C1424 C 0.93345 0.06491 0.26999 0.0
N1425 N 0.93569 0.05486 0.25784 0.0
C1426 C 0.96009 0.05443 0.27115 0.0
C1427 C 0.94882 0.04993 0.25795 0.0
C1428 C 0.95794 0.0644 0.2842 0.0
C1429 C 0.94454 0.07003 0.28326 0.0
H1430 H 0.92295 0.06882 0.26939 0.0
H1431 H 0.95039 0.04219 0.24795 0.0
C1432 C 0.87854 0.99693 0.21769 0.0
N1433 N 0.887 0.00606 0.23084 0.0
C1434 C 0.86917 0.98209 0.21909 0.0
C1435 C 0.87795 0.9861 0.24745 0.0
C1436 C 0.88689 0.00093 0.24553 0.0
C1437 C 0.8687 0.97654 0.23418 0.0
H1438 H 0.87886 0.00131 0.20614 0.0
H1439 H 0.89359 0.00845 0.25584 0.0
C1440 C 0.93068 0.07594 0.23135 0.0
N1441 N 0.95686 0.09839 0.24326 0.0
C1442 C 0.93019 0.08992 0.24083 0.0
C1443 C 0.94446 0.0734 0.22785 0.0
C1444 C 0.94356 0.10113 0.24676 0.0
C1445 C 0.95757 0.08489 0.23401 0.0
C1446 C 0.88095 0.03931 0.19838 0.0
C1447 C 0.88489 0.04987 0.18713 0.0
C1448 C 0.86613 0.03057 0.197 0.0
C1449 C 0.87393 0.0516 0.17474 0.0
C1450 C 0.85548 0.03266 0.18445 0.0
N1451 N 0.85957 0.04304 0.17367 0.0
C1452 C 0.92831 0.03264 0.18847 0.0
C1453 C 0.9267 0.06016 0.18892 0.0
C1454 C 0.93803 0.03463 0.17725 0.0
N1455 N 0.92314 0.04541 0.19423 0.0
C1456 C 0.93623 0.06266 0.1776 0.0
C1457 C 0.94239 0.04993 0.17197 0.0
H1458 H 0.9255 0.02115 0.1932 0.0
H1459 H 0.92268 0.07019 0.19403 0.0
C1460 C 0.88753 0.07788 0.24651 0.0
N1461 N 0.88514 0.07027 0.23148 0.0
C1462 C 0.87875 0.08855 0.2507 0.0
C1463 C 0.86558 0.08394 0.22365 0.0
C1464 C 0.87454 0.0732 0.22003 0.0
C1465 C 0.8675 0.09161 0.23923 0.0
H1466 H 0.8961 0.07536 0.25536 0.0
H1467 H 0.87286 0.06718 0.20815 0.0
O1468 O 0.92018 0.02829 0.2268 0.0
O1469 O 0.89996 0.04315 0.24767 0.0
O1470 O 0.91777 0.06463 0.22577 0.0
O1471 O 0.89157 0.03724 0.21047 0.0
H1472 H 0.91869 0.02466 0.2573 0.0
H1473 H 0.93276 0.00569 0.21502 0.0
H1474 H 0.92759 0.00337 0.27167 0.0
H1475 H 0.94145 0.9847 0.23017 0.0
H1476 H 0.84916 0.03025 0.24464 0.0
H1477 H 0.89896 0.04386 0.27845 0.0
H1478 H 0.87209 0.03568 0.23198 0.0
H1479 H 0.87554 0.03833 0.29038 0.0
H1480 H 0.97011 0.04962 0.27133 0.0
H1481 H 0.9425 0.07807 0.29279 0.0
H1482 H 0.86215 0.97528 0.20853 0.0
H1483 H 0.87831 0.98224 0.25927 0.0
H1484 H 0.91962 0.09204 0.24367 0.0
H1485 H 0.94505 0.06253 0.2207 0.0
H1486 H 0.94337 0.11198 0.25417 0.0
H1487 H 0.96832 0.08303 0.23149 0.0
H1488 H 0.89622 0.05684 0.18807 0.0
H1489 H 0.86285 0.02225 0.20551 0.0
H1490 H 0.87682 0.0598 0.16601 0.0
H1491 H 0.84397 0.026 0.18327 0.0
H1492 H 0.94266 0.02453 0.17341 0.0
H1493 H 0.9391 0.07457 0.17368 0.0
H1494 H 0.88053 0.094 0.2629 0.0
H1495 H 0.85724 0.08617 0.21435 0.0
Li1496 Li 0.27779 0.70084 0.53602 0.0
Li1497 Li 0.28937 0.68213 0.51927 0.0
Li1498 Li 0.27623 0.70141 0.50686 0.0
Li1499 Li 0.26168 0.67764 0.51621 0.0
C1500 C 0.30337 0.71882 0.51808 0.0
N1501 N 0.32008 0.74416 0.50545 0.0
C1502 C 0.31475 0.71621 0.50959 0.0
C1503 C 0.30058 0.73432 0.5203 0.0
C1504 C 0.32306 0.72919 0.50326 0.0
C1505 C 0.30912 0.74697 0.51377 0.0
C1506 C 0.27937 0.66401 0.54272 0.0
C1507 C 0.28089 0.63597 0.54115 0.0
N1508 N 0.28654 0.63792 0.55694 0.0
C1509 C 0.28514 0.66575 0.55894 0.0
C1510 C 0.27718 0.64902 0.53374 0.0
C1511 C 0.28871 0.6524 0.56591 0.0
C1512 C 0.26596 0.70944 0.56334 0.0
N1513 N 0.27885 0.71139 0.55695 0.0
C1514 C 0.29288 0.72607 0.58128 0.0
C1515 C 0.29218 0.71956 0.56552 0.0
C1516 C 0.27974 0.72416 0.58829 0.0
C1517 C 0.26613 0.71579 0.579 0.0
H1518 H 0.25555 0.70269 0.55632 0.0
H1519 H 0.3023 0.72081 0.56019 0.0
C1520 C 0.30903 0.6658 0.50514 0.0
N1521 N 0.30586 0.67163 0.51928 0.0
C1522 C 0.32081 0.65775 0.50479 0.0
C1523 C 0.32588 0.66196 0.53354 0.0
C1524 C 0.31416 0.67012 0.53332 0.0
C1525 C 0.32931 0.6556 0.51914 0.0
H1526 H 0.30238 0.66735 0.49413 0.0
H1527 H 0.31165 0.6752 0.54438 0.0
C1528 C 0.25141 0.71173 0.51806 0.0
N1529 N 0.23417 0.73459 0.51427 0.0
C1530 C 0.23773 0.70795 0.50773 0.0
C1531 C 0.25627 0.72708 0.52656 0.0
C1532 C 0.22919 0.71969 0.50595 0.0
C1533 C 0.2474 0.73848 0.52445 0.0
C1534 C 0.26727 0.66838 0.48638 0.0
C1535 C 0.25828 0.67415 0.47459 0.0
C1536 C 0.26868 0.65231 0.48455 0.0
C1537 C 0.25071 0.66368 0.4612 0.0
C1538 C 0.26094 0.64221 0.47099 0.0
N1539 N 0.25218 0.64806 0.4597 0.0
C1540 C 0.28615 0.71102 0.47878 0.0
C1541 C 0.26798 0.72513 0.48591 0.0
C1542 C 0.2868 0.71849 0.46478 0.0
N1543 N 0.27681 0.71436 0.48904 0.0
C1544 C 0.26804 0.73262 0.47185 0.0
C1545 C 0.27748 0.72925 0.46104 0.0
H1546 H 0.29288 0.70222 0.48133 0.0
H1547 H 0.26067 0.72778 0.49408 0.0
C1548 C 0.23985 0.65374 0.52606 0.0
N1549 N 0.24288 0.66226 0.51361 0.0
C1550 C 0.22577 0.64364 0.52568 0.0
C1551 C 0.21803 0.65124 0.49965 0.0
C1552 C 0.23233 0.66113 0.50051 0.0
C1553 C 0.21451 0.64251 0.51248 0.0
H1554 H 0.24819 0.65514 0.53657 0.0
H1555 H 0.23476 0.66839 0.49097 0.0
O1556 O 0.29488 0.7062 0.52401 0.0
O1557 O 0.27593 0.67696 0.53566 0.0
O1558 O 0.25983 0.70035 0.52009 0.0
O1559 O 0.27492 0.67848 0.49949 0.0
H1560 H 0.31702 0.70426 0.50777 0.0
H1561 H 0.29182 0.73651 0.52688 0.0
H1562 H 0.33184 0.72735 0.49657 0.0
H1563 H 0.30702 0.75902 0.5153 0.0
H1564 H 0.27928 0.6243 0.53435 0.0
H1565 H 0.28689 0.6773 0.56603 0.0
H1566 H 0.27264 0.6475 0.5212 0.0
H1567 H 0.29322 0.65356 0.57844 0.0
H1568 H 0.30359 0.73257 0.58789 0.0
H1569 H 0.25575 0.71381 0.58391 0.0
H1570 H 0.32306 0.653 0.49344 0.0
H1571 H 0.33231 0.66079 0.54485 0.0
H1572 H 0.23379 0.69612 0.5011 0.0
H1573 H 0.26678 0.73016 0.53469 0.0
H1574 H 0.21861 0.71696 0.49794 0.0
H1575 H 0.25104 0.75043 0.53092 0.0
H1576 H 0.25697 0.68652 0.47584 0.0
H1577 H 0.27573 0.64768 0.49347 0.0
H1578 H 0.24365 0.66796 0.45203 0.0
H1579 H 0.26191 0.62974 0.46943 0.0
H1580 H 0.29415 0.71547 0.45669 0.0
H1581 H 0.26075 0.74094 0.46943 0.0
H1582 H 0.22367 0.63702 0.53578 0.0
H1583 H 0.20966 0.65099 0.48935 0.0
Li1584 Li 0.40065 0.52525 0.7282 0.0
Li1585 Li 0.42186 0.54595 0.74041 0.0
Li1586 Li 0.39898 0.55283 0.72854 0.0
Li1587 Li 0.41503 0.54246 0.71222 0.0
C1588 C 0.38908 0.53781 0.75367 0.0
N1589 N 0.36305 0.53213 0.76697 0.0
C1590 C 0.3898 0.53999 0.77018 0.0
C1591 C 0.37512 0.53277 0.74391 0.0
C1592 C 0.37651 0.53704 0.77668 0.0
C1593 C 0.36209 0.52995 0.75087 0.0
C1594 C 0.42741 0.51519 0.73389 0.0
C1595 C 0.43915 0.49231 0.73453 0.0
N1596 N 0.43802 0.49195 0.75024 0.0
C1597 C 0.42638 0.5146 0.75004 0.0
C1598 C 0.43386 0.50396 0.72607 0.0
C1599 C 0.4318 0.50277 0.75809 0.0
C1600 C 0.38003 0.49575 0.71683 0.0
N1601 N 0.38928 0.5043 0.72983 0.0
C1602 C 0.3808 0.48389 0.74621 0.0
C1603 C 0.38979 0.4987 0.74434 0.0
C1604 C 0.37081 0.47489 0.73312 0.0
C1605 C 0.37059 0.48096 0.71822 0.0
H1606 H 0.37973 0.50061 0.70548 0.0
H1607 H 0.39692 0.50589 0.75459 0.0
C1608 C 0.43555 0.56448 0.76848 0.0
N1609 N 0.43793 0.55346 0.75728 0.0
C1610 C 0.44657 0.57069 0.78159 0.0
C1611 C 0.4624 0.55431 0.77119 0.0
C1612 C 0.45116 0.54864 0.75811 0.0
C1613 C 0.46008 0.5653 0.78331 0.0
H1614 H 0.425 0.56832 0.76723 0.0
H1615 H 0.45288 0.54018 0.74878 0.0
C1616 C 0.38648 0.54199 0.6968 0.0
N1617 N 0.37399 0.55429 0.67037 0.0
C1618 C 0.39091 0.55839 0.69491 0.0
C1619 C 0.37566 0.53186 0.68524 0.0
C1620 C 0.38448 0.56437 0.68147 0.0
C1621 C 0.36948 0.5383 0.67196 0.0
C1622 C 0.43319 0.57317 0.72731 0.0
C1623 C 0.43471 0.58964 0.73189 0.0
C1624 C 0.44574 0.56734 0.72419 0.0
C1625 C 0.44879 0.60005 0.73319 0.0
C1626 C 0.45962 0.57813 0.7256 0.0
N1627 N 0.46085 0.59413 0.73004 0.0
C1628 C 0.39357 0.57974 0.74394 0.0
C1629 C 0.37299 0.5666 0.72425 0.0
C1630 C 0.38579 0.59131 0.7484 0.0
N1631 N 0.38712 0.56781 0.73204 0.0
C1632 C 0.36486 0.57808 0.72815 0.0
C1633 C 0.37127 0.59064 0.7404 0.0
H1634 H 0.4047 0.58006 0.75014 0.0
H1635 H 0.368 0.55671 0.7151 0.0
C1636 C 0.42925 0.53197 0.68786 0.0
N1637 N 0.42366 0.54447 0.69352 0.0
C1638 C 0.4385 0.53409 0.67621 0.0
C1639 C 0.43528 0.56161 0.67583 0.0
C1640 C 0.42621 0.559 0.68756 0.0
C1641 C 0.44194 0.54922 0.67037 0.0
H1642 H 0.42716 0.52065 0.69299 0.0
H1643 H 0.42192 0.56886 0.69254 0.0
O1644 O 0.40203 0.54083 0.74719 0.0
O1645 O 0.42217 0.52664 0.72567 0.0
O1646 O 0.39258 0.53574 0.70983 0.0
O1647 O 0.41956 0.56278 0.72639 0.0
H1648 H 0.40053 0.54394 0.77787 0.0
H1649 H 0.37432 0.53106 0.7311 0.0
H1650 H 0.3769 0.53868 0.78945 0.0
H1651 H 0.35122 0.52605 0.74346 0.0
H1652 H 0.44416 0.48354 0.72861 0.0
H1653 H 0.42146 0.52315 0.75635 0.0
H1654 H 0.43478 0.50423 0.71358 0.0
H1655 H 0.43106 0.50218 0.77059 0.0
H1656 H 0.38164 0.47964 0.75787 0.0
H1657 H 0.36294 0.47462 0.70783 0.0
H1658 H 0.44441 0.57944 0.7904 0.0
H1659 H 0.47255 0.54969 0.77203 0.0
H1660 H 0.39913 0.56649 0.70377 0.0
H1661 H 0.37205 0.51914 0.6865 0.0
H1662 H 0.38782 0.57704 0.67989 0.0
H1663 H 0.3611 0.53059 0.66293 0.0
H1664 H 0.42512 0.59432 0.73444 0.0
H1665 H 0.44482 0.55458 0.72088 0.0
H1666 H 0.45014 0.61283 0.73673 0.0
H1667 H 0.46943 0.57378 0.72324 0.0
H1668 H 0.39104 0.60052 0.75815 0.0
H1669 H 0.35374 0.57717 0.72159 0.0
H1670 H 0.44352 0.52425 0.6725 0.0
H1671 H 0.43746 0.57338 0.67149 0.0
Li1672 Li 0.62324 0.98161 0.76572 0.0
Li1673 Li 0.64611 0.99672 0.75899 0.0
Li1674 Li 0.62488 0.98025 0.73804 0.0
Li1675 Li 0.64065 0.96715 0.75727 0.0
C1676 C 0.61769 0.01049 0.75735 0.0
N1677 N 0.60114 0.03171 0.7678 0.0
C1678 C 0.62181 0.01883 0.77262 0.0
C1679 C 0.60524 0.01303 0.74734 0.0
C1680 C 0.61326 0.02947 0.77771 0.0
C1681 C 0.59701 0.02381 0.75286 0.0
C1682 C 0.65728 0.98676 0.78655 0.0
C1683 C 0.68401 0.98844 0.7914 0.0
N1684 N 0.68463 0.99534 0.80647 0.0
C1685 C 0.65822 0.99397 0.80206 0.0
C1686 C 0.67031 0.98409 0.78114 0.0
C1687 C 0.67213 0.99818 0.81195 0.0
C1688 C 0.61436 0.98201 0.79579 0.0
N1689 N 0.60948 0.98274 0.78016 0.0
C1690 C 0.58712 0.99014 0.78625 0.0
C1691 C 0.59587 0.98602 0.77517 0.0
C1692 C 0.59249 0.99083 0.80255 0.0
C1693 C 0.60603 0.98613 0.80729 0.0
H1694 H 0.62501 0.97886 0.79934 0.0
H1695 H 0.59217 0.98631 0.76263 0.0
C1696 C 0.6691 0.01988 0.75065 0.0
N1697 N 0.66135 0.01578 0.7627 0.0
C1698 C 0.68025 0.03401 0.7526 0.0
C1699 C 0.67519 0.03947 0.77933 0.0
C1700 C 0.66418 0.02518 0.77688 0.0
C1701 C 0.6833 0.04411 0.76703 0.0
H1702 H 0.66646 0.01229 0.73943 0.0
H1703 H 0.65774 0.02175 0.78621 0.0
C1704 C 0.60716 0.95276 0.75664 0.0
N1705 N 0.58432 0.93555 0.77046 0.0
C1706 C 0.61046 0.94355 0.769 0.0
C1707 C 0.59223 0.95317 0.75128 0.0
C1708 C 0.59877 0.93495 0.77584 0.0
C1709 C 0.58084 0.94441 0.75843 0.0
C1710 C 0.65545 0.97582 0.73048 0.0
C1711 C 0.64844 0.96656 0.71615 0.0
C1712 C 0.67112 0.97947 0.73415 0.0
C1713 C 0.65724 0.96094 0.70582 0.0
C1714 C 0.67951 0.97359 0.72352 0.0
N1715 N 0.67246 0.96452 0.7097 0.0
C1716 C 0.6218 0.99304 0.70938 0.0
C1717 C 0.60212 0.97056 0.71088 0.0
C1718 C 0.61473 0.99559 0.69458 0.0
N1719 N 0.61532 0.98083 0.71724 0.0
C1720 C 0.59452 0.97283 0.6962 0.0
C1721 C 0.60078 0.9856 0.688 0.0
H1722 H 0.63227 0.00105 0.71487 0.0
H1723 H 0.59734 0.96086 0.71734 0.0
C1724 C 0.65349 0.94649 0.77586 0.0
N1725 N 0.65026 0.94967 0.76054 0.0
C1726 C 0.66332 0.93645 0.77975 0.0
C1727 C 0.66535 0.93209 0.75185 0.0
C1728 C 0.65533 0.94207 0.74849 0.0
C1729 C 0.66983 0.92969 0.76771 0.0
H1730 H 0.64912 0.9525 0.78521 0.0
H1731 H 0.65215 0.94424 0.73636 0.0
O1732 O 0.62569 0.99977 0.75224 0.0
O1733 O 0.64381 0.98303 0.77651 0.0
O1734 O 0.61852 0.96145 0.75 0.0
O1735 O 0.64701 0.98155 0.74067 0.0
H1736 H 0.63126 0.0168 0.78058 0.0
H1737 H 0.60192 0.00664 0.73549 0.0
H1738 H 0.61621 0.03586 0.78956 0.0
H1739 H 0.5873 0.02584 0.74528 0.0
H1740 H 0.69416 0.98637 0.78735 0.0
H1741 H 0.64837 0.99658 0.80637 0.0
H1742 H 0.66986 0.97875 0.76914 0.0
H1743 H 0.67301 0.00381 0.82396 0.0
H1744 H 0.57675 0.99371 0.78213 0.0
H1745 H 0.61036 0.98619 0.81977 0.0
H1746 H 0.68633 0.03706 0.74285 0.0
H1747 H 0.67698 0.04703 0.79054 0.0
H1748 H 0.62193 0.94312 0.77334 0.0
H1749 H 0.58945 0.96045 0.74195 0.0
H1750 H 0.60118 0.92781 0.78544 0.0
H1751 H 0.56925 0.94472 0.75448 0.0
H1752 H 0.63634 0.96355 0.71312 0.0
H1753 H 0.67677 0.98682 0.74505 0.0
H1754 H 0.65196 0.95369 0.69474 0.0
H1755 H 0.69163 0.97627 0.72624 0.0
H1756 H 0.6198 0.00565 0.68865 0.0
H1757 H 0.58382 0.96484 0.69138 0.0
H1758 H 0.66652 0.93483 0.79212 0.0
H1759 H 0.66994 0.92675 0.74223 0.0
Li1760 Li 0.77448 0.70269 0.02904 0.0
Li1761 Li 0.78366 0.68204 0.01512 0.0
Li1762 Li 0.77251 0.70125 0.99961 0.0
Li1763 Li 0.75615 0.67933 0.01335 0.0
C1764 C 0.80359 0.71658 0.0221 0.0
N1765 N 0.82959 0.73887 0.03509 0.0
C1766 C 0.8149 0.71186 0.0321 0.0
C1767 C 0.80557 0.73261 0.0186 0.0
C1768 C 0.82795 0.72331 0.03858 0.0
C1769 C 0.81878 0.7437 0.02532 0.0
C1770 C 0.77637 0.67365 0.04556 0.0
C1771 C 0.77428 0.65315 0.06364 0.0
N1772 N 0.78715 0.66161 0.0729 0.0
C1773 C 0.78952 0.68217 0.05527 0.0
C1774 C 0.76863 0.65906 0.04978 0.0
C1775 C 0.7948 0.67588 0.06904 0.0
C1776 C 0.76404 0.71257 0.05651 0.0
N1777 N 0.77627 0.71591 0.04903 0.0
C1778 C 0.78974 0.7343 0.0715 0.0
C1779 C 0.78895 0.72671 0.05616 0.0
C1780 C 0.7773 0.73096 0.07949 0.0
C1781 C 0.76423 0.72014 0.0717 0.0
H1782 H 0.75423 0.70365 0.05082 0.0
H1783 H 0.79864 0.72916 0.05027 0.0
C1784 C 0.81104 0.67631 0.00764 0.0
N1785 N 0.79954 0.67034 0.01545 0.0
C1786 C 0.82324 0.66891 0.00759 0.0
C1787 C 0.8115 0.6491 0.02342 0.0
C1788 C 0.79947 0.65688 0.02312 0.0
C1789 C 0.82366 0.65515 0.01565 0.0
H1790 H 0.81079 0.68698 0.00155 0.0
H1791 H 0.79009 0.65212 0.02897 0.0
C1792 C 0.75181 0.71671 0.01725 0.0
N1793 N 0.74269 0.7445 0.02655 0.0
C1794 C 0.73871 0.71569 0.024 0.0
C1795 C 0.76021 0.73183 0.0151 0.0
C1796 C 0.7343 0.72989 0.02867 0.0
C1797 C 0.75543 0.74575 0.01991 0.0
C1798 C 0.77279 0.66487 0.98783 0.0
C1799 C 0.78216 0.6684 0.97642 0.0
C1800 C 0.76911 0.6491 0.99192 0.0
C1801 C 0.78778 0.65603 0.96932 0.0
C1802 C 0.77496 0.63707 0.98455 0.0
N1803 N 0.78411 0.64076 0.97351 0.0
C1804 C 0.7865 0.71931 0.97702 0.0
C1805 C 0.75992 0.71297 0.97169 0.0
C1806 C 0.7872 0.7271 0.96319 0.0
N1807 N 0.77301 0.7125 0.98101 0.0
C1808 C 0.76009 0.72048 0.95765 0.0
C1809 C 0.77387 0.72768 0.95323 0.0
H1810 H 0.79675 0.71851 0.98447 0.0
H1811 H 0.74933 0.70736 0.9751 0.0
C1812 C 0.73039 0.66751 0.0263 0.0
N1813 N 0.73682 0.66576 0.01304 0.0
C1814 C 0.71608 0.65843 0.02705 0.0
C1815 C 0.71531 0.64567 1.00054 0.0
C1816 C 0.72965 0.65509 1.00027 0.0
C1817 C 0.70828 0.64735 0.01403 0.0
H1818 H 0.7364 0.67605 0.0363 0.0
H1819 H 0.73501 0.65398 0.98985 0.0
O1820 O 0.79078 0.70553 0.01552 0.0
O1821 O 0.77094 0.67956 0.03204 0.0
O1822 O 0.75645 0.70298 0.01284 0.0
O1823 O 0.76761 0.6769 0.99531 0.0
H1824 H 0.81365 0.6995 0.03487 0.0
H1825 H 0.79701 0.73647 0.0108 0.0
H1826 H 0.83676 0.71983 0.04638 0.0
H1827 H 0.82044 0.75616 0.02275 0.0
H1828 H 0.76844 0.64184 0.06704 0.0
H1829 H 0.79554 0.69355 0.05226 0.0
H1830 H 0.75839 0.65236 0.04238 0.0
H1831 H 0.80498 0.68234 0.07668 0.0
H1832 H 0.80002 0.74261 0.07713 0.0
H1833 H 0.75447 0.71708 0.07755 0.0
H1834 H 0.83239 0.67412 0.00156 0.0
H1835 H 0.81119 0.63837 0.02955 0.0
H1836 H 0.73206 0.70405 0.0257 0.0
H1837 H 0.77032 0.73278 0.00981 0.0
H1838 H 0.72423 0.7293 0.03398 0.0
H1839 H 0.76185 0.75754 0.01837 0.0
H1840 H 0.78517 0.6806 0.97322 0.0
H1841 H 0.76197 0.64624 0.00086 0.0
H1842 H 0.79511 0.65858 0.96053 0.0
H1843 H 0.77229 0.62482 0.98767 0.0
H1844 H 0.79807 0.73229 0.96013 0.0
H1845 H 0.74955 0.72073 0.95038 0.0
H1846 H 0.71123 0.65997 0.03778 0.0
H1847 H 0.70968 0.6374 0.99018 0.0
Li1848 Li 0.91555 0.60457 0.79329 0.0
Li1849 Li 0.9364 0.61732 0.81356 0.0
Li1850 Li 0.92213 0.63364 0.79743 0.0
Li1851 Li 0.9385 0.61851 0.78566 0.0
C1852 C 0.90845 0.60973 0.82392 0.0
N1853 N 0.89518 0.59172 0.84585 0.0
C1854 C 0.91065 0.59411 0.82549 0.0
C1855 C 0.89942 0.61615 0.83344 0.0
C1856 C 0.90389 0.58522 0.83668 0.0
C1857 C 0.89281 0.60687 0.84446 0.0
C1858 C 0.94781 0.59284 0.79801 0.0
C1859 C 0.97471 0.59608 0.80353 0.0
N1860 N 0.97313 0.58006 0.79894 0.0
C1861 C 0.94645 0.57642 0.79331 0.0
C1862 C 0.96205 0.60277 0.80313 0.0
C1863 C 0.95939 0.57018 0.79389 0.0
C1864 C 0.90312 0.57512 0.77604 0.0
N1865 N 0.89991 0.58617 0.78662 0.0
C1866 C 0.87582 0.56942 0.78711 0.0
C1867 C 0.88645 0.58385 0.7919 0.0
C1868 C 0.87909 0.55746 0.77667 0.0
C1869 C 0.8928 0.56066 0.7708 0.0
H1870 H 0.91383 0.57749 0.77186 0.0
H1871 H 0.88409 0.59302 0.80007 0.0
C1872 C 0.95399 0.62841 0.84409 0.0
N1873 N 0.94708 0.6152 0.83369 0.0
C1874 C 0.96291 0.62664 0.85822 0.0
C1875 C 0.95724 0.59777 0.85063 0.0
C1876 C 0.94831 0.60006 0.83686 0.0
C1877 C 0.9648 0.61116 0.8614 0.0
H1878 H 0.95282 0.64032 0.84124 0.0
H1879 H 0.94264 0.58971 0.82852 0.0
C1880 C 0.90438 0.61602 0.76739 0.0
N1881 N 0.87662 0.60728 0.74832 0.0
C1882 C 0.9031 0.60904 0.75174 0.0
C1883 C 0.89155 0.61855 0.77334 0.0
C1884 C 0.88895 0.6047 0.74229 0.0
C1885 C 0.87762 0.61406 0.76351 0.0
C1886 C 0.95547 0.64877 0.80025 0.0
C1887 C 0.95296 0.65757 0.78735 0.0
C1888 C 0.96951 0.65231 0.80992 0.0
C1889 C 0.96455 0.66983 0.78435 0.0
C1890 C 0.98082 0.66466 0.80653 0.0
N1891 N 0.97812 0.6731 0.79393 0.0
C1892 C 0.90688 0.6569 0.80821 0.0
C1893 C 0.91169 0.65725 0.7816 0.0
C1894 C 0.89711 0.66733 0.80557 0.0
N1895 N 0.91356 0.65179 0.79613 0.0
C1896 C 0.90215 0.66773 0.77848 0.0
C1897 C 0.89426 0.67238 0.79036 0.0
H1898 H 0.90836 0.65205 0.81953 0.0
H1899 H 0.91675 0.65256 0.77207 0.0
C1900 C 0.94424 0.60258 0.75978 0.0
N1901 N 0.95069 0.61595 0.77006 0.0
C1902 C 0.95216 0.59684 0.74872 0.0
C1903 C 0.97319 0.61913 0.75861 0.0
C1904 C 0.96487 0.62433 0.7697 0.0
C1905 C 0.96692 0.60501 0.74811 0.0
H1906 H 0.93314 0.5959 0.76075 0.0
H1907 H 0.96997 0.63462 0.77832 0.0
O1908 O 0.91461 0.61855 0.81277 0.0
O1909 O 0.93528 0.59921 0.79707 0.0
O1910 O 0.91806 0.61993 0.77699 0.0
O1911 O 0.94431 0.63669 0.8034 0.0
H1912 H 0.91726 0.58877 0.81795 0.0
H1913 H 0.89743 0.62815 0.83224 0.0
H1914 H 0.90548 0.5731 0.83799 0.0
H1915 H 0.88577 0.61168 0.85187 0.0
H1916 H 0.98579 0.60364 0.80745 0.0
H1917 H 0.93552 0.56859 0.78923 0.0
H1918 H 0.96332 0.61553 0.80667 0.0
H1919 H 0.95851 0.55749 0.79029 0.0
H1920 H 0.86544 0.56743 0.792 0.0
H1921 H 0.89565 0.55196 0.76245 0.0
H1922 H 0.96859 0.63723 0.86633 0.0
H1923 H 0.95826 0.58562 0.85284 0.0
H1924 H 0.9129 0.60698 0.74694 0.0
H1925 H 0.89229 0.62367 0.78551 0.0
H1926 H 0.88778 0.59926 0.73016 0.0
H1927 H 0.86759 0.61589 0.76799 0.0
H1928 H 0.94229 0.65476 0.77957 0.0
H1929 H 0.97166 0.64557 0.81992 0.0
H1930 H 0.96278 0.6767 0.77437 0.0
H1931 H 0.99174 0.66753 0.81391 0.0
H1932 H 0.89114 0.67054 0.815 0.0
H1933 H 0.90042 0.67152 0.76666 0.0
H1934 H 0.94697 0.58568 0.74124 0.0
H1935 H 0.9845 0.62587 0.7585 0.0
Li1936 Li 0.7874 0.40217 0.5464 0.0
Li1937 Li 0.77518 0.42105 0.53279 0.0
Li1938 Li 0.78578 0.40061 0.51715 0.0
Li1939 Li 0.80232 0.42411 0.53599 0.0
C1940 C 0.76062 0.3848 0.53601 0.0
N1941 N 0.74481 0.36021 0.55035 0.0
C1942 C 0.75206 0.38838 0.54757 0.0
C1943 C 0.76107 0.36875 0.53164 0.0
C1944 C 0.74417 0.37576 0.55471 0.0
C1945 C 0.75301 0.35648 0.53906 0.0
C1946 C 0.79882 0.43752 0.56316 0.0
C1947 C 0.80791 0.46583 0.57252 0.0
N1948 N 0.81799 0.46194 0.58396 0.0
C1949 C 0.80926 0.43381 0.57502 0.0
C1950 C 0.79811 0.45365 0.56191 0.0
C1951 C 0.81885 0.44633 0.58542 0.0
C1952 C 0.78805 0.37463 0.56524 0.0
N1953 N 0.78625 0.39012 0.56488 0.0
C1954 C 0.78337 0.39165 0.59242 0.0
C1955 C 0.78346 0.39841 0.57802 0.0
C1956 C 0.786 0.37603 0.59339 0.0
C1957 C 0.78806 0.36736 0.57944 0.0
H1958 H 0.78961 0.3679 0.55458 0.0
H1959 H 0.78142 0.41043 0.5774 0.0
C1960 C 0.74872 0.43001 0.51842 0.0
N1961 N 0.75868 0.43164 0.53208 0.0
C1962 C 0.73661 0.43764 0.51777 0.0
C1963 C 0.74484 0.44794 0.54546 0.0
C1964 C 0.75687 0.44023 0.54552 0.0
C1965 C 0.73451 0.44678 0.53142 0.0
H1966 H 0.75018 0.4228 0.508 0.0
H1967 H 0.76469 0.44096 0.55637 0.0
C1968 C 0.80929 0.38795 0.5379 0.0
N1969 N 0.82088 0.36185 0.54676 0.0
C1970 C 0.81973 0.38957 0.55179 0.0
C1971 C 0.80471 0.37302 0.52855 0.0
C1972 C 0.82545 0.37624 0.55606 0.0
C1973 C 0.81071 0.35998 0.53322 0.0
C1974 C 0.78252 0.4346 0.50666 0.0
C1975 C 0.77562 0.42895 0.49104 0.0
C1976 C 0.78308 0.45054 0.51261 0.0
C1977 C 0.7693 0.43934 0.48165 0.0
C1978 C 0.77661 0.46054 0.50287 0.0
N1979 N 0.76991 0.45478 0.48772 0.0
C1980 C 0.77052 0.38178 0.48798 0.0
C1981 C 0.79704 0.38894 0.49059 0.0
C1982 C 0.76953 0.37466 0.47238 0.0
N1983 N 0.78414 0.38882 0.49667 0.0
C1984 C 0.79659 0.38185 0.47514 0.0
C1985 C 0.78269 0.37475 0.46566 0.0
H1986 H 0.76041 0.3821 0.493 0.0
H1987 H 0.80771 0.39475 0.49773 0.0
C1988 C 0.83296 0.43725 0.54914 0.0
N1989 N 0.82135 0.43915 0.5383 0.0
C1990 C 0.84712 0.44747 0.55038 0.0
C1991 C 0.83718 0.46148 0.52925 0.0
C1992 C 0.8232 0.451 0.52846 0.0
C1993 C 0.84943 0.4597 0.54023 0.0
H1994 H 0.83132 0.42766 0.5567 0.0
H1995 H 0.81393 0.45216 0.51975 0.0
O1996 O 0.76882 0.39701 0.5293 0.0
O1997 O 0.78942 0.42543 0.55277 0.0
O1998 O 0.80375 0.40094 0.53335 0.0
O1999 O 0.78865 0.42456 0.51608 0.0
H2000 H 0.75168 0.40078 0.55111 0.0
H2001 H 0.76772 0.36584 0.52275 0.0
H2002 H 0.73757 0.37834 0.56376 0.0
H2003 H 0.75332 0.344 0.53588 0.0
H2004 H 0.80749 0.47836 0.57167 0.0
H2005 H 0.81012 0.42142 0.57604 0.0
H2006 H 0.7901 0.45677 0.55284 0.0
H2007 H 0.82703 0.44363 0.59459 0.0
H2008 H 0.78124 0.39862 0.6027 0.0
H2009 H 0.79002 0.35524 0.57955 0.0
H2010 H 0.72906 0.43648 0.50663 0.0
H2011 H 0.74354 0.4545 0.55638 0.0
H2012 H 0.82322 0.40091 0.55933 0.0
H2013 H 0.79652 0.37143 0.51789 0.0
H2014 H 0.8335 0.37732 0.56681 0.0
H2015 H 0.80725 0.34836 0.5261 0.0
H2016 H 0.77513 0.41668 0.4862 0.0
H2017 H 0.78837 0.4551 0.52467 0.0
H2018 H 0.7639 0.43512 0.46955 0.0
H2019 H 0.7769 0.47288 0.50736 0.0
H2020 H 0.75855 0.36958 0.46553 0.0
H2021 H 0.80705 0.38199 0.47069 0.0
H2022 H 0.85627 0.44546 0.55885 0.0
H2023 H 0.83839 0.47082 0.52128 0.0
Li2024 Li 0.65555 0.55963 0.34709 0.0
Li2025 Li 0.66908 0.57649 0.32962 0.0
Li2026 Li 0.64526 0.55715 0.31854 0.0
Li2027 Li 0.66798 0.54855 0.32677 0.0
C2028 C 0.64077 0.58774 0.33122 0.0
N2029 N 0.62501 0.61127 0.32389 0.0
C2030 C 0.64476 0.59788 0.31964 0.0
C2031 C 0.62878 0.58959 0.33909 0.0
C2032 C 0.63666 0.60971 0.31611 0.0
C2033 C 0.62094 0.60153 0.33519 0.0
C2034 C 0.68926 0.57486 0.35407 0.0
C2035 C 0.71445 0.59077 0.3559 0.0
N2036 N 0.71313 0.59833 0.37011 0.0
C2037 C 0.68819 0.58269 0.36875 0.0
C2038 C 0.70254 0.57882 0.34764 0.0
C2039 C 0.70037 0.59455 0.37666 0.0
C2040 C 0.647 0.54333 0.37284 0.0
N2041 N 0.64957 0.558 0.36721 0.0
C2042 C 0.63856 0.56936 0.38778 0.0
C2043 C 0.64598 0.57104 0.37463 0.0
C2044 C 0.63447 0.55399 0.39302 0.0
C2045 C 0.63927 0.54098 0.38571 0.0
H2046 H 0.6501 0.5332 0.36671 0.0
H2047 H 0.6483 0.58259 0.3699 0.0
C2048 C 0.68622 0.59974 0.31427 0.0
N2049 N 0.68079 0.5974 0.32812 0.0
C2050 C 0.69448 0.61482 0.31204 0.0
C2051 C 0.6915 0.62493 0.33842 0.0
C2052 C 0.68313 0.60961 0.34009 0.0
C2053 C 0.69717 0.62766 0.32417 0.0
H2054 H 0.68392 0.58998 0.30481 0.0
H2055 H 0.67838 0.60749 0.35085 0.0
C2056 C 0.63434 0.53166 0.33529 0.0
N2057 N 0.60724 0.51552 0.34245 0.0
C2058 C 0.63161 0.51498 0.33612 0.0
C2059 C 0.62327 0.54013 0.33803 0.0
C2060 C 0.61784 0.50704 0.33977 0.0
C2061 C 0.60965 0.53176 0.34165 0.0
C2062 C 0.67004 0.55548 0.29759 0.0
C2063 C 0.6607 0.54628 0.2843 0.0
C2064 C 0.68562 0.55755 0.29872 0.0
C2065 C 0.6671 0.53904 0.27252 0.0
C2066 C 0.69158 0.55009 0.2867 0.0
N2067 N 0.68227 0.54105 0.27397 0.0
C2068 C 0.62123 0.56274 0.29579 0.0
C2069 C 0.62301 0.53552 0.29755 0.0
C2070 C 0.60993 0.55805 0.28261 0.0
N2071 N 0.62771 0.55153 0.30279 0.0
C2072 C 0.61163 0.53026 0.28456 0.0
C2073 C 0.60526 0.54164 0.27657 0.0
H2074 H 0.62529 0.57539 0.29983 0.0
H2075 H 0.62863 0.52684 0.30292 0.0
C2076 C 0.69216 0.53252 0.32762 0.0
N2077 N 0.67767 0.53198 0.32144 0.0
C2078 C 0.69926 0.52055 0.3224 0.0
C2079 C 0.67629 0.50777 0.30472 0.0
C2080 C 0.6696 0.51983 0.31045 0.0
C2081 C 0.69135 0.50806 0.31064 0.0
H2082 H 0.69823 0.54233 0.33643 0.0
H2083 H 0.65806 0.51981 0.3058 0.0
O2084 O 0.64873 0.5763 0.33516 0.0
O2085 O 0.67739 0.56336 0.34606 0.0
O2086 O 0.64785 0.53957 0.33185 0.0
O2087 O 0.66396 0.56239 0.30943 0.0
H2088 H 0.65376 0.59643 0.31316 0.0
H2089 H 0.62556 0.58187 0.34811 0.0
H2090 H 0.63957 0.61758 0.30712 0.0
H2091 H 0.61162 0.60307 0.34117 0.0
H2092 H 0.72474 0.59405 0.351 0.0
H2093 H 0.67805 0.57973 0.37395 0.0
H2094 H 0.70358 0.57285 0.33632 0.0
H2095 H 0.69966 0.60077 0.38799 0.0
H2096 H 0.63554 0.57986 0.39334 0.0
H2097 H 0.63632 0.5289 0.38919 0.0
H2098 H 0.69876 0.6164 0.30092 0.0
H2099 H 0.69322 0.63459 0.34799 0.0
H2100 H 0.64007 0.50826 0.33401 0.0
H2101 H 0.62516 0.55302 0.33739 0.0
H2102 H 0.61557 0.49414 0.34048 0.0
H2103 H 0.601 0.53816 0.34384 0.0
H2104 H 0.64865 0.5447 0.2831 0.0
H2105 H 0.69301 0.56463 0.30889 0.0
H2106 H 0.66 0.53181 0.26223 0.0
H2107 H 0.7036 0.55145 0.28753 0.0
H2108 H 0.60559 0.56732 0.27667 0.0
H2109 H 0.60833 0.51748 0.28041 0.0
H2110 H 0.71079 0.52108 0.32754 0.0
H2111 H 0.66981 0.49854 0.29551 0.0
Pr2112 Pr 0.01317 0.04438 0.02317 0.0
Pr2113 Pr 0.04855 0.05521 0.02626 0.0
C2114 C 0.98408 0.04203 0.02597 0.0
C2115 C 0.97248 0.05165 0.02376 0.0
C2116 C 0.95752 0.04378 0.01826 0.0
C2117 C 0.94623 0.05256 0.01672 0.0
C2118 C 0.94965 0.06944 0.02074 0.0
C2119 C 0.96475 0.07734 0.02597 0.0
C2120 C 0.97605 0.06853 0.02744 0.0
C2121 C 0.02528 0.03969 0.9957 0.0
C2122 C 0.02936 0.08266 0.01757 0.0
C2123 C 0.07745 0.05717 0.02265 0.0
C2124 C 0.0892 0.04775 0.02507 0.0
C2125 C 0.10429 0.05588 0.02885 0.0
C2126 C 0.11567 0.04719 0.03046 0.0
C2127 C 0.11218 0.03017 0.02831 0.0
C2128 C 0.09698 0.02206 0.02474 0.0
C2129 C 0.0856 0.03077 0.02315 0.0
C2130 C 0.03665 0.05987 0.05394 0.0
C2131 C 0.03234 0.01691 0.03188 0.0
O2132 O 0.99512 0.0473 0.03782 0.0
O2133 O 0.98838 0.03632 0.0131 0.0
O2134 O 0.0291 0.05188 0.00583 0.0
O2135 O 0.01426 0.02899 0.99924 0.0
O2136 O 0.04223 0.07827 0.01684 0.0
O2137 O 0.01761 0.07272 0.02149 0.0
O2138 O 0.0661 0.05121 0.0113 0.0
O2139 O 0.07352 0.06366 0.03541 0.0
O2140 O 0.03258 0.04778 0.04367 0.0
O2141 O 0.04817 0.07011 0.05069 0.0
O2142 O 0.01937 0.02114 0.03242 0.0
O2143 O 0.04413 0.02699 0.02821 0.0
H2144 H 0.95455 0.03077 0.01526 0.0
H2145 H 0.93479 0.0461 0.01237 0.0
H2146 H 0.9678 0.09028 0.02931 0.0
H2147 H 0.98754 0.0749 0.03168 0.0
H2148 H 0.1073 0.06898 0.03032 0.0
H2149 H 0.12724 0.05385 0.03302 0.0
H2150 H 0.09386 0.00897 0.02321 0.0
H2151 H 0.074 0.02423 0.02025 0.0
Pr2152 Pr 0.29184 0.82091 0.28581 0.0
Pr2153 Pr 0.27314 0.78374 0.26847 0.0
C2154 C 0.31244 0.84757 0.2979 0.0
C2155 C 0.31445 0.86478 0.29512 0.0
C2156 C 0.30712 0.87509 0.30321 0.0
C2157 C 0.30805 0.89096 0.29957 0.0
C2158 C 0.31633 0.89683 0.2878 0.0
C2159 C 0.32396 0.88667 0.28 0.0
C2160 C 0.32309 0.87083 0.28367 0.0
C2161 C 0.26127 0.81933 0.27464 0.0
C2162 C 0.2862 0.81255 0.24597 0.0
C2163 C 0.25194 0.75752 0.25659 0.0
C2164 C 0.24854 0.74076 0.26069 0.0
C2165 C 0.24978 0.72806 0.24979 0.0
C2166 C 0.24769 0.71228 0.25395 0.0
C2167 C 0.24415 0.70893 0.26902 0.0
C2168 C 0.24265 0.72158 0.27983 0.0
C2169 C 0.24491 0.73738 0.27575 0.0
C2170 C 0.30354 0.78503 0.28024 0.0
C2171 C 0.27943 0.79174 0.30815 0.0
O2172 O 0.31431 0.83762 0.28613 0.0
O2173 O 0.30109 0.84163 0.30507 0.0
O2174 O 0.2685 0.8084 0.27418 0.0
O2175 O 0.27019 0.83247 0.28206 0.0
O2176 O 0.27687 0.79856 0.24672 0.0
O2177 O 0.29409 0.82198 0.25874 0.0
O2178 O 0.24971 0.76875 0.26689 0.0
O2179 O 0.2643 0.76178 0.25045 0.0
O2180 O 0.29655 0.79622 0.28014 0.0
O2181 O 0.2944 0.7718 0.27331 0.0
O2182 O 0.28926 0.80533 0.30725 0.0
O2183 O 0.27073 0.78285 0.29551 0.0
H2184 H 0.30044 0.87084 0.31217 0.0
H2185 H 0.30206 0.89855 0.30577 0.0
H2186 H 0.33071 0.891 0.27113 0.0
H2187 H 0.32901 0.86326 0.27736 0.0
H2188 H 0.25257 0.73038 0.23813 0.0
H2189 H 0.24869 0.70266 0.24533 0.0
H2190 H 0.23999 0.71928 0.29154 0.0
H2191 H 0.244 0.74692 0.28449 0.0
Pr2192 Pr 0.5498 0.05499 0.53108 0.0
Pr2193 Pr 0.51501 0.0503 0.52201 0.0
C2194 C 0.57823 0.05286 0.54165 0.0
C2195 C 0.58981 0.04362 0.53897 0.0
C2196 C 0.60382 0.05193 0.53606 0.0
C2197 C 0.61538 0.04381 0.53454 0.0
C2198 C 0.61326 0.02715 0.53602 0.0
C2199 C 0.59907 0.01873 0.53856 0.0
C2200 C 0.58746 0.02687 0.54002 0.0
C2201 C 0.53991 0.06438 0.50172 0.0
C2202 C 0.52913 0.01935 0.51284 0.0
C2203 C 0.4867 0.05277 0.51121 0.0
C2204 C 0.4754 0.06258 0.51358 0.0
C2205 C 0.46526 0.05859 0.52432 0.0
C2206 C 0.45379 0.06693 0.52555 0.0
C2207 C 0.45212 0.07945 0.51604 0.0
C2208 C 0.46243 0.08365 0.50552 0.0
C2209 C 0.47389 0.07528 0.50426 0.0
C2210 C 0.52492 0.04081 0.55133 0.0
C2211 C 0.53571 0.08586 0.54052 0.0
O2212 O 0.56664 0.04579 0.54781 0.0
O2213 O 0.57485 0.06221 0.53086 0.0
O2214 O 0.53399 0.05174 0.50725 0.0
O2215 O 0.5519 0.0724 0.51107 0.0
O2216 O 0.5179 0.02641 0.50867 0.0
O2217 O 0.54148 0.02713 0.52242 0.0
O2218 O 0.49833 0.05927 0.5048 0.0
O2219 O 0.48998 0.04364 0.52227 0.0
O2220 O 0.53079 0.0535 0.54582 0.0
O2221 O 0.5129 0.03282 0.54196 0.0
O2222 O 0.54696 0.07877 0.54454 0.0
O2223 O 0.52331 0.07812 0.53098 0.0
H2224 H 0.60591 0.06483 0.53518 0.0
H2225 H 0.62603 0.05065 0.53228 0.0
H2226 H 0.59705 0.00593 0.53989 0.0
H2227 H 0.57677 0.02011 0.54225 0.0
H2228 H 0.46601 0.04881 0.5316 0.0
H2229 H 0.44616 0.06351 0.53391 0.0
H2230 H 0.46136 0.09308 0.49788 0.0
H2231 H 0.48136 0.07853 0.4957 0.0
Pr2232 Pr 0.26414 0.29691 0.77219 0.0
Pr2233 Pr 0.29909 0.30543 0.77837 0.0
C2234 C 0.23448 0.2862 0.77227 0.0
C2235 C 0.22218 0.28838 0.78099 0.0
C2236 C 0.20757 0.28561 0.77257 0.0
C2237 C 0.19552 0.2869 0.78053 0.0
C2238 C 0.19782 0.29096 0.79712 0.0
C2239 C 0.21257 0.29407 0.80551 0.0
C2240 C 0.22466 0.29279 0.79751 0.0
C2241 C 0.27757 0.32763 0.76571 0.0
C2242 C 0.28245 0.31276 0.80863 0.0
C2243 C 0.3286 0.31644 0.7777 0.0
C2244 C 0.34072 0.31427 0.76849 0.0
C2245 C 0.35175 0.30621 0.77467 0.0
C2246 C 0.36383 0.30499 0.76668 0.0
C2247 C 0.36524 0.31193 0.75238 0.0
C2248 C 0.3541 0.31983 0.74608 0.0
C2249 C 0.34199 0.321 0.75404 0.0
C2250 C 0.28585 0.27475 0.78505 0.0
C2251 C 0.28071 0.28926 0.74197 0.0
O2252 O 0.24478 0.2794 0.77927 0.0
O2253 O 0.23988 0.29799 0.76427 0.0
O2254 O 0.28156 0.32091 0.7777 0.0
O2255 O 0.2658 0.3187 0.75668 0.0
O2256 O 0.29474 0.31748 0.80231 0.0
O2257 O 0.27013 0.3035 0.80011 0.0
O2258 O 0.31815 0.32338 0.77124 0.0
O2259 O 0.32347 0.30472 0.78594 0.0
O2260 O 0.28165 0.2814 0.77307 0.0
O2261 O 0.29791 0.28358 0.79369 0.0
O2262 O 0.26837 0.28479 0.74826 0.0
O2263 O 0.2931 0.29838 0.7505 0.0
H2264 H 0.20545 0.2823 0.75981 0.0
H2265 H 0.18437 0.28472 0.77364 0.0
H2266 H 0.21473 0.29712 0.8183 0.0
H2267 H 0.23588 0.29503 0.80423 0.0
H2268 H 0.3512 0.30108 0.78587 0.0
H2269 H 0.3723 0.29902 0.77199 0.0
H2270 H 0.35476 0.32516 0.735 0.0
H2271 H 0.33374 0.32737 0.74896 0.0
Pr2272 Pr 0.02669 0.04168 0.5086 0.0
Pr2273 Pr 0.03685 0.05861 0.54075 0.0
C2274 C 0.01555 0.02363 0.48068 0.0
C2275 C 0.01478 0.02803 0.46435 0.0
C2276 C 0.01785 0.01766 0.45226 0.0
C2277 C 0.01867 0.02258 0.43707 0.0
C2278 C 0.01644 0.03797 0.4338 0.0
C2279 C 0.01317 0.04821 0.44595 0.0
C2280 C 0.01246 0.04334 0.46109 0.0
C2281 C 0.05587 0.06049 0.51209 0.0
C2282 C 0.02534 0.07945 0.51184 0.0
C2283 C 0.04814 0.0767 0.56863 0.0
C2284 C 0.05009 0.07249 0.58502 0.0
C2285 C 0.04673 0.08241 0.5973 0.0
C2286 C 0.04746 0.07781 0.61271 0.0
C2287 C 0.05164 0.06326 0.61602 0.0
C2288 C 0.05504 0.05339 0.6037 0.0
C2289 C 0.05417 0.05791 0.5883 0.0
C2290 C 0.0077 0.03971 0.537 0.0
C2291 C 0.03806 0.02083 0.53756 0.0
O2292 O 0.00712 0.02972 0.48958 0.0
O2293 O 0.02909 0.02438 0.48809 0.0
O2294 O 0.05095 0.05164 0.52229 0.0
O2295 O 0.04583 0.05948 0.49962 0.0
O2296 O 0.03435 0.08005 0.52541 0.0
O2297 O 0.01883 0.06545 0.50356 0.0
O2298 O 0.05656 0.07136 0.55922 0.0
O2299 O 0.03423 0.07503 0.56186 0.0
O2300 O 0.01265 0.04884 0.52703 0.0
O2301 O 0.01776 0.04034 0.54937 0.0
O2302 O 0.02902 0.02025 0.52402 0.0
O2303 O 0.04465 0.03481 0.54582 0.0
H2304 H 0.01993 0.00592 0.45465 0.0
H2305 H 0.02133 0.01448 0.428 0.0
H2306 H 0.01109 0.06 0.44377 0.0
H2307 H 0.0103 0.05167 0.47031 0.0
H2308 H 0.04338 0.0936 0.59492 0.0
H2309 H 0.0449 0.08568 0.62207 0.0
H2310 H 0.05813 0.04204 0.60592 0.0
H2311 H 0.05651 0.04988 0.57893 0.0
Pr2312 Pr 0.27354 0.78067 0.77777 0.0
Pr2313 Pr 0.28991 0.81932 0.7762 0.0
C2314 C 0.26303 0.74867 0.77146 0.0
C2315 C 0.26989 0.73524 0.76725 0.0
C2316 C 0.26398 0.71982 0.77124 0.0
C2317 C 0.27188 0.70755 0.76976 0.0
C2318 C 0.28579 0.71062 0.76425 0.0
C2319 C 0.29133 0.72597 0.75965 0.0
C2320 C 0.28351 0.73823 0.76128 0.0
C2321 C 0.27198 0.80032 0.80539 0.0
C2322 C 0.31076 0.79383 0.78922 0.0
C2323 C 0.30018 0.85132 0.7827 0.0
C2324 C 0.29348 0.86475 0.78756 0.0
C2325 C 0.29516 0.87834 0.77913 0.0
C2326 C 0.28666 0.88989 0.78142 0.0
C2327 C 0.27644 0.88808 0.79232 0.0
C2328 C 0.2754 0.87487 0.80137 0.0
C2329 C 0.28374 0.86322 0.79891 0.0
C2330 C 0.2911 0.79983 0.74833 0.0
C2331 C 0.25274 0.80613 0.76468 0.0
O2332 O 0.26157 0.75871 0.76071 0.0
O2333 O 0.26808 0.75588 0.78588 0.0
O2334 O 0.27774 0.80457 0.79342 0.0
O2335 O 0.26607 0.78493 0.80297 0.0
O2336 O 0.30957 0.80904 0.78855 0.0
O2337 O 0.29934 0.78127 0.78448 0.0
O2338 O 0.30236 0.84117 0.79316 0.0
O2339 O 0.29471 0.84426 0.7683 0.0
O2340 O 0.28562 0.79544 0.76044 0.0
O2341 O 0.29685 0.81526 0.75076 0.0
O2342 O 0.25398 0.79091 0.76507 0.0
O2343 O 0.26409 0.81867 0.76979 0.0
H2344 H 0.2536 0.71745 0.77614 0.0
H2345 H 0.2674 0.69591 0.77355 0.0
H2346 H 0.30189 0.72863 0.75512 0.0
H2347 H 0.28838 0.75019 0.75845 0.0
H2348 H 0.30248 0.87959 0.77017 0.0
H2349 H 0.28761 0.89979 0.7741 0.0
H2350 H 0.26783 0.87329 0.81007 0.0
H2351 H 0.28211 0.85273 0.80542 0.0
Pr2352 Pr 0.5391 0.05217 0.04656 0.0
Pr2353 Pr 0.5278 0.05129 0.00716 0.0
C2354 C 0.54657 0.06097 0.07789 0.0
C2355 C 0.54222 0.05527 0.09275 0.0
C2356 C 0.55329 0.05348 0.10509 0.0
C2357 C 0.54949 0.04984 0.1199 0.0
C2358 C 0.53456 0.04818 0.12266 0.0
C2359 C 0.52339 0.04902 0.10991 0.0
C2360 C 0.52716 0.05241 0.09509 0.0
C2361 C 0.53558 0.02114 0.03021 0.0
C2362 C 0.50281 0.03943 0.03148 0.0
C2363 C 0.52049 0.04238 0.97583 0.0
C2364 C 0.52468 0.04767 0.96075 0.0
C2365 C 0.51348 0.0492 0.94844 0.0
C2366 C 0.517 0.05193 0.93333 0.0
C2367 C 0.53176 0.05291 0.93024 0.0
C2368 C 0.54311 0.05249 0.94294 0.0
C2369 C 0.53963 0.04999 0.95806 0.0
C2370 C 0.53106 0.08226 0.02358 0.0
C2371 C 0.56416 0.06351 0.02214 0.0
O2372 O 0.53662 0.06666 0.06877 0.0
O2373 O 0.55399 0.05228 0.07001 0.0
O2374 O 0.53345 0.03392 0.02469 0.0
O2375 O 0.53996 0.02429 0.0455 0.0
O2376 O 0.50616 0.03905 0.01684 0.0
O2377 O 0.51284 0.04532 0.04439 0.0
O2378 O 0.53052 0.03689 0.98503 0.0
O2379 O 0.51302 0.05111 0.98358 0.0
O2380 O 0.53339 0.06954 0.02906 0.0
O2381 O 0.52658 0.07908 0.0083 0.0
O2382 O 0.56095 0.06386 0.03684 0.0
O2383 O 0.55398 0.058 0.00928 0.0
H2384 H 0.56495 0.05543 0.10343 0.0
H2385 H 0.55833 0.04897 0.12934 0.0
H2386 H 0.51181 0.04806 0.11155 0.0
H2387 H 0.51834 0.05348 0.08569 0.0
H2388 H 0.5019 0.04763 0.95034 0.0
H2389 H 0.50804 0.05256 0.92391 0.0
H2390 H 0.55458 0.053 0.94106 0.0
H2391 H 0.54855 0.04909 0.96742 0.0
Pr2392 Pr 0.26505 0.29145 0.2742 0.0
Pr2393 Pr 0.29916 0.31281 0.27625 0.0
C2394 C 0.2367 0.2777 0.2774 0.0
C2395 C 0.22441 0.28034 0.28596 0.0
C2396 C 0.20973 0.2769 0.27761 0.0
C2397 C 0.19776 0.27907 0.28532 0.0
C2398 C 0.20018 0.28467 0.30163 0.0
C2399 C 0.21498 0.28834 0.30995 0.0
C2400 C 0.227 0.28623 0.30217 0.0
C2401 C 0.27344 0.30285 0.24618 0.0
C2402 C 0.2739 0.33052 0.28893 0.0
C2403 C 0.32363 0.32928 0.266 0.0
C2404 C 0.33835 0.32805 0.26173 0.0
C2405 C 0.34822 0.32036 0.27075 0.0
C2406 C 0.36191 0.31908 0.26586 0.0
C2407 C 0.36591 0.32543 0.25188 0.0
C2408 C 0.35589 0.33302 0.24293 0.0
C2409 C 0.34232 0.33434 0.24783 0.0
C2410 C 0.2956 0.29877 0.30474 0.0
C2411 C 0.29142 0.27266 0.26727 0.0
O2412 O 0.24852 0.27419 0.28558 0.0
O2413 O 0.23996 0.28736 0.26656 0.0
O2414 O 0.27673 0.31066 0.25985 0.0
O2415 O 0.26521 0.28853 0.24656 0.0
O2416 O 0.28678 0.33279 0.28336 0.0
O2417 O 0.26504 0.31606 0.28861 0.0
O2418 O 0.3119 0.32061 0.25644 0.0
O2419 O 0.322 0.33008 0.28107 0.0
O2420 O 0.28606 0.29754 0.29243 0.0
O2421 O 0.30822 0.30792 0.30257 0.0
O2422 O 0.2783 0.2711 0.27228 0.0
O2423 O 0.29987 0.28684 0.26553 0.0
H2424 H 0.20752 0.27249 0.26506 0.0
H2425 H 0.18659 0.27644 0.27845 0.0
H2426 H 0.21726 0.29255 0.32254 0.0
H2427 H 0.23827 0.28908 0.30885 0.0
H2428 H 0.34532 0.3153 0.28147 0.0
H2429 H 0.36939 0.31324 0.27309 0.0
H2430 H 0.35838 0.33772 0.23193 0.0
H2431 H 0.33479 0.34016 0.24062 0.0
Pr2432 Pr 0.5273 0.54227 0.00986 0.0
Pr2433 Pr 0.53488 0.56007 0.04144 0.0
C2434 C 0.51618 0.5292 0.97984 0.0
C2435 C 0.51671 0.53495 0.96408 0.0
C2436 C 0.52118 0.52565 0.9521 0.0
C2437 C 0.52246 0.53128 0.9373 0.0
C2438 C 0.5192 0.54631 0.93419 0.0
C2439 C 0.51475 0.55561 0.94626 0.0
C2440 C 0.5136 0.55003 0.96109 0.0
C2441 C 0.55798 0.55659 0.01771 0.0
C2442 C 0.52615 0.58132 0.01322 0.0
C2443 C 0.54736 0.57341 0.07109 0.0
C2444 C 0.54969 0.56813 0.08712 0.0
C2445 C 0.53769 0.56382 0.09562 0.0
C2446 C 0.5402 0.55871 0.11074 0.0
C2447 C 0.55472 0.55779 0.11761 0.0
C2448 C 0.56667 0.56204 0.10902 0.0
C2449 C 0.56418 0.56725 0.094 0.0
C2450 C 0.50418 0.54603 0.03361 0.0
C2451 C 0.53549 0.5209 0.03811 0.0
O2452 O 0.50831 0.53572 0.98911 0.0
O2453 O 0.52894 0.52729 0.98735 0.0
O2454 O 0.54744 0.56337 0.02014 0.0
O2455 O 0.55285 0.54191 0.01102 0.0
O2456 O 0.53444 0.58231 0.02725 0.0
O2457 O 0.52034 0.56705 0.00501 0.0
O2458 O 0.55499 0.56807 0.06079 0.0
O2459 O 0.53363 0.5737 0.06487 0.0
O2460 O 0.51463 0.53909 0.03112 0.0
O2461 O 0.50943 0.56066 0.04045 0.0
O2462 O 0.52708 0.51999 0.02415 0.0
O2463 O 0.54152 0.53515 0.04625 0.0
H2464 H 0.52382 0.51407 0.95425 0.0
H2465 H 0.52611 0.52392 0.92833 0.0
H2466 H 0.5119 0.5671 0.9442 0.0
H2467 H 0.51028 0.55754 0.9702 0.0
H2468 H 0.52638 0.56442 0.09065 0.0
H2469 H 0.5308 0.55572 0.11714 0.0
H2470 H 0.57795 0.56122 0.11386 0.0
H2471 H 0.57362 0.57051 0.0877 0.0
Pr2472 Pr 0.777 0.28191 0.27764 0.0
Pr2473 Pr 0.79095 0.31941 0.27705 0.0
C2474 C 0.7642 0.25016 0.27276 0.0
C2475 C 0.77012 0.23562 0.27473 0.0
C2476 C 0.76041 0.22039 0.27318 0.0
C2477 C 0.76624 0.20648 0.27393 0.0
C2478 C 0.78187 0.20765 0.27614 0.0
C2479 C 0.79151 0.22306 0.27815 0.0
C2480 C 0.78568 0.2369 0.27753 0.0
C2481 C 0.78182 0.30101 0.30668 0.0
C2482 C 0.81351 0.29456 0.28706 0.0
C2483 C 0.80043 0.35143 0.28474 0.0
C2484 C 0.79262 0.36459 0.28696 0.0
C2485 C 0.79818 0.37957 0.28178 0.0
C2486 C 0.78957 0.39131 0.28122 0.0
C2487 C 0.77528 0.38821 0.28589 0.0
C2488 C 0.77 0.37334 0.29159 0.0
C2489 C 0.77854 0.36157 0.29198 0.0
C2490 C 0.79242 0.30246 0.24784 0.0
C2491 C 0.7544 0.30627 0.26519 0.0
O2492 O 0.76901 0.25852 0.26153 0.0
O2493 O 0.76414 0.25917 0.28588 0.0
O2494 O 0.77652 0.30505 0.29346 0.0
O2495 O 0.78451 0.28659 0.30513 0.0
O2496 O 0.81136 0.30949 0.28866 0.0
O2497 O 0.80259 0.28203 0.28089 0.0
O2498 O 0.80002 0.34113 0.29545 0.0
O2499 O 0.79809 0.34452 0.27013 0.0
O2500 O 0.78733 0.29669 0.25961 0.0
O2501 O 0.79744 0.31793 0.25116 0.0
O2502 O 0.75616 0.29135 0.26651 0.0
O2503 O 0.76552 0.31909 0.26944 0.0
H2504 H 0.74835 0.21926 0.2711 0.0
H2505 H 0.75852 0.19481 0.27255 0.0
H2506 H 0.80359 0.22445 0.27958 0.0
H2507 H 0.79333 0.24861 0.27875 0.0
H2508 H 0.8089 0.38193 0.27755 0.0
H2509 H 0.79389 0.40255 0.27659 0.0
H2510 H 0.75917 0.37067 0.29554 0.0
H2511 H 0.77392 0.34993 0.29569 0.0
Pr2512 Pr 0.03768 0.55291 0.54777 0.0
Pr2513 Pr 0.02615 0.55169 0.50817 0.0
C2514 C 0.04459 0.562 0.57909 0.0
C2515 C 0.04005 0.55644 0.59396 0.0
C2516 C 0.05075 0.55302 0.6058 0.0
C2517 C 0.04689 0.54923 0.62055 0.0
C2518 C 0.03229 0.54902 0.62378 0.0
C2519 C 0.02143 0.55172 0.61157 0.0
C2520 C 0.02524 0.55528 0.59681 0.0
C2521 C 0.03487 0.52208 0.5314 0.0
C2522 C 1.00107 0.54055 0.53246 0.0
C2523 C 0.02017 0.5428 0.4768 0.0
C2524 C 0.02794 0.54668 0.4632 0.0
C2525 C 0.0203 0.55139 0.44962 0.0
C2526 C 0.0273 0.554 0.43623 0.0
C2527 C 0.042 0.55172 0.43617 0.0
C2528 C 0.04983 0.54775 0.45013 0.0
C2529 C 0.04293 0.54538 0.46353 0.0
C2530 C 0.02925 0.58254 0.5247 0.0
C2531 C 0.06251 0.56449 0.52328 0.0
O2532 O 0.03471 0.56751 0.56968 0.0
O2533 O 0.05226 0.55336 0.5715 0.0
O2534 O 0.03215 0.53468 0.52596 0.0
O2535 O 0.03955 0.52532 0.54665 0.0
O2536 O 0.00409 0.54066 0.51769 0.0
O2537 O 0.01138 0.54558 0.54534 0.0
O2538 O 0.0264 0.53443 0.48699 0.0
O2539 O 0.01483 0.55434 0.48349 0.0
O2540 O 0.03185 0.56986 0.53003 0.0
O2541 O 0.0245 0.57938 0.50946 0.0
O2542 O 0.05929 0.56512 0.53798 0.0
O2543 O 0.05239 0.5585 0.51048 0.0
H2544 H 0.06222 0.55371 0.60379 0.0
H2545 H 0.05546 0.54695 0.62958 0.0
H2546 H 0.01014 0.55196 0.61362 0.0
H2547 H 0.01668 0.55771 0.58787 0.0
H2548 H 0.00881 0.5527 0.44923 0.0
H2549 H 0.02104 0.55736 0.42579 0.0
H2550 H 0.06107 0.54565 0.45051 0.0
H2551 H 0.0492 0.54202 0.47397 0.0
Pr2552 Pr 0.76476 0.79704 0.27382 0.0
Pr2553 Pr 0.79959 0.80577 0.2796 0.0
C2554 C 0.73516 0.78649 0.27428 0.0
C2555 C 0.72283 0.78928 0.28275 0.0
C2556 C 0.70898 0.78967 0.27383 0.0
C2557 C 0.69677 0.79134 0.28139 0.0
C2558 C 0.69813 0.79259 0.2981 0.0
C2559 C 0.71217 0.79262 0.30706 0.0
C2560 C 0.72441 0.79099 0.29946 0.0
C2561 C 0.77788 0.82776 0.26704 0.0
C2562 C 0.78336 0.81306 0.3101 0.0
C2563 C 0.82903 0.81675 0.2784 0.0
C2564 C 0.84095 0.81501 0.26873 0.0
C2565 C 0.84771 0.8016 0.26921 0.0
C2566 C 0.85972 0.80076 0.26097 0.0
C2567 C 0.8653 0.81331 0.2521 0.0
C2568 C 0.85833 0.82656 0.25141 0.0
C2569 C 0.84635 0.82742 0.25967 0.0
C2570 C 0.78651 0.77507 0.28656 0.0
C2571 C 0.78091 0.78916 0.24359 0.0
O2572 O 0.74553 0.78011 0.28179 0.0
O2573 O 0.74043 0.79755 0.26544 0.0
O2574 O 0.78202 0.8212 0.27909 0.0
O2575 O 0.76622 0.81863 0.25805 0.0
O2576 O 0.79554 0.81787 0.30363 0.0
O2577 O 0.77102 0.80371 0.30171 0.0
O2578 O 0.81856 0.82394 0.27248 0.0
O2579 O 0.82397 0.80475 0.28634 0.0
O2580 O 0.78232 0.78164 0.27453 0.0
O2581 O 0.79847 0.78405 0.29523 0.0
O2582 O 0.769 0.78402 0.25036 0.0
O2583 O 0.79307 0.79911 0.25168 0.0
H2584 H 0.70753 0.78845 0.26093 0.0
H2585 H 0.68624 0.79159 0.27412 0.0
H2586 H 0.71359 0.79345 0.31994 0.0
H2587 H 0.73502 0.79079 0.30663 0.0
H2588 H 0.84393 0.79187 0.27618 0.0
H2589 H 0.86491 0.79047 0.26196 0.0
H2590 H 0.86215 0.83634 0.24452 0.0
H2591 H 0.84145 0.83795 0.25915 0.0
Pr2592 Pr 0.79198 0.32127 0.78648 0.0
Pr2593 Pr 0.77377 0.28413 0.76846 0.0
C2594 C 0.81243 0.34793 0.79884 0.0
C2595 C 0.81454 0.36507 0.79576 0.0
C2596 C 0.80694 0.37548 0.8033 0.0
C2597 C 0.80781 0.3912 0.79919 0.0
C2598 C 0.8163 0.39679 0.78748 0.0
C2599 C 0.82427 0.38657 0.78031 0.0
C2600 C 0.82345 0.37089 0.78445 0.0
C2601 C 0.76134 0.31929 0.77536 0.0
C2602 C 0.78619 0.31371 0.74656 0.0
C2603 C 0.75295 0.25768 0.75635 0.0
C2604 C 0.75 0.24081 0.76009 0.0
C2605 C 0.75011 0.22835 0.74836 0.0
C2606 C 0.74842 0.21242 0.75203 0.0
C2607 C 0.74645 0.20867 0.76746 0.0
C2608 C 0.74613 0.2211 0.77915 0.0
C2609 C 0.74798 0.23705 0.77554 0.0
C2610 C 0.80436 0.28603 0.7798 0.0
C2611 C 0.78003 0.29144 0.80823 0.0
O2612 O 0.81463 0.33781 0.7874 0.0
O2613 O 0.80082 0.34213 0.80569 0.0
O2614 O 0.76875 0.30852 0.77469 0.0
O2615 O 0.77011 0.33243 0.78297 0.0
O2616 O 0.77698 0.29959 0.74711 0.0
O2617 O 0.79408 0.32297 0.75944 0.0
O2618 O 0.75061 0.26854 0.76698 0.0
O2619 O 0.76516 0.26244 0.75008 0.0
O2620 O 0.79701 0.29687 0.78035 0.0
O2621 O 0.79555 0.27285 0.77232 0.0
O2622 O 0.78954 0.30532 0.8076 0.0
O2623 O 0.77156 0.28253 0.79547 0.0
H2624 H 0.80005 0.37142 0.81215 0.0
H2625 H 0.80157 0.39884 0.80492 0.0
H2626 H 0.83119 0.3907 0.77151 0.0
H2627 H 0.82959 0.36325 0.77856 0.0
H2628 H 0.7517 0.23098 0.73641 0.0
H2629 H 0.74851 0.203 0.74276 0.0
H2630 H 0.7447 0.21852 0.79116 0.0
H2631 H 0.74803 0.24643 0.78491 0.0
Pr2632 Pr 0.76706 0.79326 0.77476 0.0
Pr2633 Pr 0.79911 0.81291 0.77985 0.0
C2634 C 0.73824 0.77934 0.77626 0.0
C2635 C 0.72561 0.78221 0.78424 0.0
C2636 C 0.71166 0.78167 0.775 0.0
C2637 C 0.69937 0.78385 0.78223 0.0
C2638 C 0.70071 0.7865 0.79891 0.0
C2639 C 0.71479 0.78725 0.80815 0.0
C2640 C 0.72712 0.78517 0.80089 0.0
C2641 C 0.77641 0.805 0.74718 0.0
C2642 C 0.77434 0.83186 0.78935 0.0
C2643 C 0.82775 0.82718 0.77797 0.0
C2644 C 0.84031 0.82398 0.77016 0.0
C2645 C 0.85508 0.83083 0.77744 0.0
C2646 C 0.86719 0.82821 0.77013 0.0
C2647 C 0.86475 0.81872 0.75536 0.0
C2648 C 0.84989 0.81173 0.74817 0.0
C2649 C 0.83777 0.81428 0.75554 0.0
C2650 C 0.78984 0.80117 0.80745 0.0
C2651 C 0.79202 0.77406 0.7662 0.0
O2652 O 0.74973 0.77583 0.78499 0.0
O2653 O 0.74212 0.78883 0.76549 0.0
O2654 O 0.77902 0.81295 0.76077 0.0
O2655 O 0.76848 0.79052 0.74742 0.0
O2656 O 0.78719 0.83398 0.78387 0.0
O2657 O 0.76611 0.81726 0.78972 0.0
O2658 O 0.81612 0.82985 0.76878 0.0
O2659 O 0.82408 0.81822 0.78919 0.0
O2660 O 0.78715 0.79325 0.79385 0.0
O2661 O 0.798 0.81556 0.80725 0.0
O2662 O 0.77901 0.7721 0.77135 0.0
O2663 O 0.80026 0.7886 0.76559 0.0
H2664 H 0.71023 0.77947 0.76214 0.0
H2665 H 0.68883 0.7835 0.77469 0.0
H2666 H 0.71624 0.78908 0.82102 0.0
H2667 H 0.73776 0.78571 0.80834 0.0
H2668 H 0.85725 0.83833 0.78873 0.0
H2669 H 0.87847 0.83391 0.77591 0.0
H2670 H 0.84764 0.80419 0.7369 0.0
H2671 H 0.82644 0.80875 0.74979 0.0
Pr2672 Pr 0.51285 0.54393 0.52289 0.0
Pr2673 Pr 0.54811 0.55477 0.52494 0.0
C2674 C 0.4841 0.54187 0.52706 0.0
C2675 C 0.47229 0.55135 0.52559 0.0
C2676 C 0.46746 0.55706 0.51117 0.0
C2677 C 0.45601 0.5657 0.51012 0.0
C2678 C 0.44918 0.56887 0.52348 0.0
C2679 C 0.45424 0.56332 0.53793 0.0
C2680 C 0.4656 0.55462 0.53893 0.0
C2681 C 0.52415 0.5389 0.49502 0.0
C2682 C 0.52889 0.58233 0.51716 0.0
C2683 C 0.5766 0.55618 0.52009 0.0
C2684 C 0.58832 0.54654 0.52188 0.0
C2685 C 0.59607 0.5451 0.53692 0.0
C2686 C 0.60742 0.53634 0.53826 0.0
C2687 C 0.61126 0.52881 0.52462 0.0
C2688 C 0.60342 0.53017 0.50961 0.0
C2689 C 0.59213 0.53898 0.50826 0.0
C2690 C 0.53702 0.55936 0.55315 0.0
C2691 C 0.53219 0.51651 0.53112 0.0
O2692 O 0.49551 0.54724 0.53849 0.0
O2693 O 0.48791 0.53593 0.51396 0.0
O2694 O 0.5282 0.55127 0.50494 0.0
O2695 O 0.5134 0.5282 0.49903 0.0
O2696 O 0.54185 0.57817 0.51644 0.0
O2697 O 0.51711 0.57216 0.52074 0.0
O2698 O 0.56493 0.55047 0.50905 0.0
O2699 O 0.57319 0.56297 0.53303 0.0
O2700 O 0.53272 0.54733 0.54284 0.0
O2701 O 0.54842 0.5696 0.54966 0.0
O2702 O 0.51926 0.52073 0.53195 0.0
O2703 O 0.54385 0.52658 0.5272 0.0
H2704 H 0.47244 0.55477 0.50067 0.0
H2705 H 0.45233 0.56963 0.49876 0.0
H2706 H 0.44951 0.56579 0.54855 0.0
H2707 H 0.46917 0.55041 0.5502 0.0
H2708 H 0.59344 0.55077 0.54766 0.0
H2709 H 0.61314 0.53539 0.55001 0.0
H2710 H 0.60622 0.52471 0.49885 0.0
H2711 H 0.58645 0.54 0.4965 0.0
Pr2712 Pr 0.04853 0.55272 0.03115 0.0
Pr2713 Pr 0.01331 0.54891 0.02352 0.0
C2714 C 0.07682 0.55007 0.04186 0.0
C2715 C 0.08897 0.54181 0.03895 0.0
C2716 C 0.10387 0.55059 0.04248 0.0
C2717 C 0.11576 0.54293 0.0411 0.0
C2718 C 0.11302 0.52626 0.03616 0.0
C2719 C 0.09802 0.51754 0.03218 0.0
C2720 C 0.08609 0.52524 0.03358 0.0
C2721 C 0.0381 0.56072 0.00143 0.0
C2722 C 0.02649 0.51697 0.0149 0.0
C2723 C 0.98468 0.55125 0.01407 0.0
C2724 C 0.97374 0.56158 0.01611 0.0
C2725 C 0.96185 0.55642 0.02453 0.0
C2726 C 0.95072 0.56529 0.02552 0.0
C2727 C 0.95111 0.5795 0.01801 0.0
C2728 C 0.96314 0.58481 0.00978 0.0
C2729 C 0.97432 0.57596 0.00883 0.0
C2730 C 0.02439 0.54089 0.05317 0.0
C2731 C 0.03521 0.5846 0.03975 0.0
O2732 O 0.0649 0.54155 0.04639 0.0
O2733 O 0.07379 0.56067 0.03227 0.0
O2734 O 0.03166 0.54902 0.00797 0.0
O2735 O 0.05106 0.56788 0.0095 0.0
O2736 O 0.01526 0.52416 0.01101 0.0
O2737 O 0.03931 0.5248 0.02364 0.0
O2738 O 0.99567 0.55637 0.00622 0.0
O2739 O 0.98866 0.54351 0.02606 0.0
O2740 O 0.03023 0.55285 0.04659 0.0
O2741 O 0.0118 0.53297 0.04478 0.0
O2742 O 0.0463 0.57728 0.04385 0.0
O2743 O 0.02248 0.57686 0.03078 0.0
H2744 H 0.10634 0.56338 0.0466 0.0
H2745 H 0.12713 0.55009 0.04398 0.0
H2746 H 0.09549 0.50468 0.02844 0.0
H2747 H 0.07467 0.5182 0.03077 0.0
H2748 H 0.96097 0.5453 0.03008 0.0
H2749 H 0.94153 0.56069 0.03176 0.0
H2750 H 0.9639 0.59579 0.004 0.0
H2751 H 0.98328 0.58027 0.00218 0.0
C2752 C 0.00297 0.20595 0.96226 0.0
C2753 C 0.01434 0.21335 0.95405 0.0
C2754 C 0.00405 0.19187 0.96948 0.0
C2755 C 0.02411 0.158 0.969 0.0
H2756 H 0.01101 0.1518 0.00982 0.0
C2757 C 0.03919 0.10804 0.0057 0.0
C2758 C 0.02762 0.09849 0.0122 0.0
C2759 C 0.03718 0.12216 0.99916 0.0
C2760 C 0.01459 0.1533 0.99836 0.0
H2761 H 0.03565 0.21139 0.94682 0.0
H2762 H 0.03777 0.18738 0.95981 0.0
H2763 H 0.00816 0.17607 0.99717 0.0
H2764 H 0.00496 0.09673 0.01736 0.0
H2765 H 0.00151 0.12155 0.00605 0.0
H2766 H 0.03077 0.13539 0.97031 0.0
C2767 C 0.02788 0.19226 0.96051 0.0
C2768 C 0.01293 0.1672 0.99106 0.0
C2769 C 0.02677 0.20625 0.95324 0.0
C2770 C 0.01413 0.10377 0.01247 0.0
C2771 C 0.01215 0.11801 0.00602 0.0
C2772 C 0.02588 0.14422 0.97633 0.0
C2773 C 0.01652 0.18482 0.9687 0.0
C2774 C 0.01778 0.16979 0.97632 0.0
C2775 C 0.02357 0.12721 0.99902 0.0
C2776 C 0.02125 0.14175 0.99115 0.0
H2777 H 0.9933 0.21112 0.96328 0.0
H2778 H 0.995 0.18642 0.97553 0.0
H2779 H 0.02765 0.15932 0.95749 0.0
H2780 H 0.04975 0.10442 0.00528 0.0
H2781 H 0.04629 0.1291 0.99411 0.0
C2782 C 0.13822 0.80671 0.19221 0.0
C2783 C 0.13025 0.81852 0.19624 0.0
C2784 C 0.15214 0.8065 0.20103 0.0
C2785 C 0.1843 0.83239 0.22786 0.0
H2786 H 0.19292 0.79179 0.23987 0.0
C2787 C 0.23839 0.83075 0.26997 0.0
C2788 C 0.2457 0.81818 0.26682 0.0
C2789 C 0.22406 0.83039 0.26183 0.0
C2790 C 0.1908 0.80321 0.23646 0.0
H2791 H 0.13083 0.83935 0.21291 0.0
H2792 H 0.15523 0.83915 0.22808 0.0
H2793 H 0.16858 0.79209 0.22459 0.0
H2794 H 0.24382 0.79537 0.25268 0.0
H2795 H 0.21888 0.7948 0.23822 0.0
H2796 H 0.20654 0.84352 0.23938 0.0
C2797 C 0.15068 0.83008 0.21801 0.0
C2798 C 0.17681 0.80338 0.22772 0.0
C2799 C 0.13669 0.83022 0.20927 0.0
C2800 C 0.23834 0.80511 0.2555 0.0
C2801 C 0.22403 0.8048 0.24724 0.0
C2802 C 0.19832 0.83221 0.23647 0.0
C2803 C 0.15854 0.81818 0.21404 0.0
C2804 C 0.17339 0.81798 0.22335 0.0
C2805 C 0.21674 0.81753 0.25018 0.0
C2806 C 0.20176 0.81763 0.24095 0.0
H2807 H 0.13383 0.7977 0.18207 0.0
H2808 H 0.15801 0.79733 0.19749 0.0
H2809 H 0.1821 0.8438 0.22446 0.0
H2810 H 0.24381 0.84096 0.27867 0.0
H2811 H 0.21873 0.84024 0.2647 0.0
C2812 C 0.50886 0.87957 0.45121 0.0
C2813 C 0.51958 0.87081 0.45675 0.0
C2814 C 0.50978 0.89537 0.45784 0.0
C2815 C 0.53659 0.93091 0.47993 0.0
H2816 H 0.50068 0.94495 0.48836 0.0
C2817 C 0.53917 0.99405 0.51204 0.0
C2818 C 0.52799 0.00227 0.50662 0.0
C2819 C 0.53809 0.97792 0.50634 0.0
C2820 C 0.5108 0.9413 0.4859 0.0
H2821 H 0.53957 0.87186 0.47386 0.0
H2822 H 0.54125 0.89952 0.48534 0.0
H2823 H 0.49889 0.91697 0.47792 0.0
H2824 H 0.50691 0.99992 0.49083 0.0
H2825 H 0.50515 0.97188 0.48067 0.0
H2826 H 0.5485 0.95524 0.48769 0.0
C2827 C 0.5322 0.89415 0.47574 0.0
C2828 C 0.50977 0.92524 0.47995 0.0
C2829 C 0.53124 0.87829 0.46915 0.0
C2830 C 0.5157 0.99396 0.49532 0.0
C2831 C 0.51465 0.97783 0.48956 0.0
C2832 C 0.53762 0.94699 0.48581 0.0
C2833 C 0.5215 0.90288 0.47013 0.0
C2834 C 0.52265 0.91986 0.47685 0.0
C2835 C 0.52582 0.96959 0.495 0.0
C2836 C 0.52473 0.95241 0.48885 0.0
H2837 H 0.4999 0.87436 0.44146 0.0
H2838 H 0.5015 0.90184 0.45306 0.0
H2839 H 0.5467 0.92722 0.47745 0.0
H2840 H 0.54876 1.00003 0.52082 0.0
H2841 H 0.54678 0.97191 0.51099 0.0
C2842 C 0.47959 0.32693 0.69084 0.0
C2843 C 0.48615 0.3134 0.68998 0.0
C2844 C 0.46641 0.32631 0.69739 0.0
C2845 C 0.44277 0.30356 0.72357 0.0
H2846 H 0.41236 0.3242 0.70344 0.0
C2847 C 0.38441 0.29738 0.74345 0.0
C2848 C 0.37856 0.31141 0.74437 0.0
C2849 C 0.39724 0.29712 0.73643 0.0
C2850 C 0.42079 0.31851 0.70931 0.0
H2851 H 0.48392 0.28858 0.69536 0.0
H2852 H 0.46088 0.28747 0.70676 0.0
H2853 H 0.43534 0.32474 0.69218 0.0
H2854 H 0.38175 0.33621 0.73872 0.0
H2855 H 0.40408 0.33577 0.72652 0.0
H2856 H 0.42821 0.29738 0.74073 0.0
C2857 C 0.46606 0.29865 0.70255 0.0
C2858 C 0.43399 0.31883 0.70285 0.0
C2859 C 0.47928 0.29929 0.69602 0.0
C2860 C 0.38579 0.32511 0.73797 0.0
C2861 C 0.39861 0.32486 0.73097 0.0
C2862 C 0.42955 0.30324 0.73003 0.0
C2863 C 0.45941 0.31213 0.70324 0.0
C2864 C 0.4452 0.31145 0.70995 0.0
C2865 C 0.40455 0.31089 0.73017 0.0
C2866 C 0.41843 0.31079 0.72303 0.0
H2867 H 0.48472 0.33809 0.68655 0.0
H2868 H 0.46178 0.33703 0.69802 0.0
H2869 H 0.45122 0.29793 0.72948 0.0
H2870 H 0.37901 0.28654 0.74806 0.0
H2871 H 0.40136 0.28607 0.73579 0.0
C2872 C 0.03188 0.892 0.59556 0.0
C2873 C 0.0448 0.88549 0.59651 0.0
C2874 C 0.03155 0.90654 0.589 0.0
C2875 C 0.05631 0.94361 0.57924 0.0
H2876 H 0.01982 0.94841 0.55332 0.0
C2877 C 0.04783 0.00547 0.55933 0.0
C2878 C 0.03995 0.00545 0.54398 0.0
C2879 C 0.04889 0.99088 0.56557 0.0
C2880 C 0.03016 0.94727 0.56041 0.0
H2881 H 0.06755 0.88936 0.59123 0.0
H2882 H 0.06686 0.91454 0.57948 0.0
H2883 H 0.0208 0.92286 0.564 0.0
H2884 H 0.02728 0.98999 0.52306 0.0
H2885 H 0.02932 0.96471 0.5338 0.0
H2886 H 0.06576 0.96797 0.57538 0.0
C2887 C 0.05702 0.90847 0.584 0.0
C2888 C 0.03066 0.93264 0.56672 0.0
C2889 C 0.05735 0.89389 0.59057 0.0
C2890 C 0.03337 0.99051 0.53496 0.0
C2891 C 0.03446 0.97596 0.54117 0.0
C2892 C 0.05582 0.95828 0.57292 0.0
C2893 C 0.04412 0.91501 0.58316 0.0
C2894 C 0.04373 0.93059 0.57625 0.0
C2895 C 0.0421 0.97591 0.55662 0.0
C2896 C 0.04273 0.96031 0.56341 0.0
H2897 H 0.02194 0.88581 0.59984 0.0
H2898 H 0.02147 0.91125 0.58873 0.0
H2899 H 0.06652 0.94257 0.58666 0.0
H2900 H 0.05297 0.01674 0.56666 0.0
H2901 H 0.05473 0.99135 0.57757 0.0
C2902 C 0.43102 0.76844 0.85404 0.0
C2903 C 0.4417 0.78313 0.85801 0.0
C2904 C 0.41684 0.76802 0.84539 0.0
C2905 C 0.39651 0.79173 0.81892 0.0
H2906 H 0.36078 0.76683 0.83189 0.0
C2907 C 0.33812 0.80404 0.79969 0.0
C2908 C 0.32569 0.79094 0.79568 0.0
C2909 C 0.35217 0.80164 0.80608 0.0
C2910 C 0.37065 0.77365 0.82796 0.0
H2911 H 0.44563 0.80895 0.85625 0.0
H2912 H 0.42108 0.8082 0.84118 0.0
H2913 H 0.38556 0.7653 0.84535 0.0
H2914 H 0.31842 0.76492 0.79519 0.0
H2915 H 0.34308 0.76073 0.80639 0.0
H2916 H 0.38166 0.8003 0.80173 0.0
C2917 C 0.42373 0.79693 0.84446 0.0
C2918 C 0.38486 0.77278 0.83568 0.0
C2919 C 0.43784 0.79736 0.85311 0.0
C2920 C 0.32773 0.7753 0.79815 0.0
C2921 C 0.34184 0.7729 0.80464 0.0
C2922 C 0.38234 0.79261 0.81123 0.0
C2923 C 0.41304 0.78227 0.84047 0.0
C2924 C 0.39795 0.78206 0.83145 0.0
C2925 C 0.35423 0.78606 0.80866 0.0
C2926 C 0.36923 0.78383 0.81585 0.0
H2927 H 0.43366 0.75722 0.85748 0.0
H2928 H 0.40892 0.7565 0.84238 0.0
H2929 H 0.40635 0.79876 0.81512 0.0
H2930 H 0.33705 0.81627 0.79801 0.0
H2931 H 0.36138 0.81208 0.80928 0.0
C2932 C 0.55162 0.22347 0.08404 0.0
C2933 C 0.54154 0.22623 0.0944 0.0
C2934 C 0.55111 0.20784 0.07709 0.0
C2935 C 0.53661 0.16412 0.0808 0.0
H2936 H 0.54274 0.15868 0.03683 0.0
C2937 C 0.5396 0.10186 0.04858 0.0
C2938 C 0.53263 0.09832 0.03262 0.0
C2939 C 0.54114 0.11731 0.05669 0.0
C2940 C 0.5409 0.15992 0.0491 0.0
H2941 H 0.52317 0.21442 0.10573 0.0
H2942 H 0.52204 0.18729 0.09332 0.0
H2943 H 0.54422 0.18563 0.04968 0.0
H2944 H 0.52174 0.10816 0.01269 0.0
H2945 H 0.5242 0.13481 0.02672 0.0
H2946 H 0.53288 0.13828 0.08001 0.0
C2947 C 0.53048 0.19721 0.09069 0.0
C2948 C 0.54194 0.17546 0.05655 0.0
C2949 C 0.53098 0.21285 0.09765 0.0
C2950 C 0.52722 0.1105 0.02497 0.0
C2951 C 0.52873 0.12586 0.03301 0.0
C2952 C 0.53556 0.14853 0.07332 0.0
C2953 C 0.54051 0.19446 0.08026 0.0
C2954 C 0.53974 0.17782 0.07249 0.0
C2955 C 0.53579 0.12957 0.04897 0.0
C2956 C 0.53756 0.14619 0.0573 0.0
H2957 H 0.55983 0.23343 0.08112 0.0
H2958 H 0.55915 0.20624 0.06929 0.0
H2959 H 0.53503 0.16542 0.09314 0.0
H2960 H 0.54409 0.09281 0.05471 0.0
H2961 H 0.54679 0.11974 0.0689 0.0
C2962 C 0.08453 0.28398 0.35822 0.0
C2963 C 0.08529 0.29604 0.37075 0.0
C2964 C 0.09703 0.28329 0.3508 0.0
C2965 C 0.13346 0.30739 0.34417 0.0
H2966 H 0.14248 0.2653 0.33538 0.0
C2967 C 0.18836 0.29945 0.32148 0.0
C2968 C 0.18724 0.28637 0.30988 0.0
C2969 C 0.17611 0.30099 0.32909 0.0
C2970 C 0.14005 0.27714 0.33755 0.0
H2971 H 0.09987 0.31698 0.38514 0.0
H2972 H 0.12167 0.31585 0.37208 0.0
H2973 H 0.12071 0.26748 0.34794 0.0
H2974 H 0.17233 0.26453 0.29743 0.0
H2975 H 0.15095 0.26746 0.31028 0.0
H2976 H 0.15275 0.31703 0.33364 0.0
C2977 C 0.11132 0.30698 0.36794 0.0
C2978 C 0.12755 0.27839 0.34478 0.0
C2979 C 0.09881 0.30764 0.37542 0.0
C2980 C 0.17357 0.27488 0.30613 0.0
C2981 C 0.16134 0.27644 0.31368 0.0
C2982 C 0.14595 0.30614 0.33686 0.0
C2983 C 0.11062 0.29469 0.35566 0.0
C2984 C 0.12406 0.29351 0.34812 0.0
C2985 C 0.16244 0.28949 0.32529 0.0
C2986 C 0.14936 0.29097 0.33339 0.0
H2987 H 0.07422 0.27505 0.35406 0.0
H2988 H 0.09601 0.27386 0.34116 0.0
H2989 H 0.13099 0.31921 0.34644 0.0
H2990 H 0.19866 0.30862 0.32456 0.0
H2991 H 0.17742 0.31111 0.33808 0.0
C2992 C 0.95446 0.04088 0.1493 0.0
C2993 C 0.95398 0.05281 0.16145 0.0
C2994 C 0.96582 0.04329 0.13995 0.0
C2995 C 0.99201 0.07421 0.12486 0.0
H2996 H 0.01148 0.03886 0.11609 0.0
C2997 C 0.03377 0.07495 0.0794 0.0
C2998 C 0.02995 0.06093 0.06852 0.0
C2999 C 0.02695 0.07555 0.09307 0.0
C3000 C 0.00619 0.04887 0.1185 0.0
H3001 H 0.96514 0.07664 0.17332 0.0
H3002 H 0.98474 0.08098 0.15657 0.0
H3003 H 0.99431 0.03682 0.13556 0.0
H3004 H 0.01619 0.03658 0.06335 0.0
H3005 H 0.00437 0.03765 0.08691 0.0
H3006 H 0.00339 0.08592 0.1072 0.0
C3007 C 0.97629 0.06979 0.15438 0.0
C3008 C 0.99637 0.04767 0.12958 0.0
C3009 C 0.965 0.06732 0.16386 0.0
C3010 C 0.01938 0.04755 0.07154 0.0
C3011 C 0.0127 0.0481 0.08512 0.0
C3012 C 0.00181 0.07537 0.11366 0.0
C3013 C 0.97687 0.05772 0.14247 0.0
C3014 C 0.98882 0.06009 0.13246 0.0
C3015 C 0.0164 0.06206 0.09604 0.0
C3016 C 0.00855 0.06244 0.10999 0.0
H3017 H 0.94602 0.0297 0.14696 0.0
H3018 H 0.96589 0.03392 0.13062 0.0
H3019 H 0.9863 0.08394 0.12692 0.0
H3020 H 0.04189 0.08542 0.07727 0.0
H3021 H 0.02994 0.08647 0.10132 0.0
C3022 C 0.29073 0.74412 0.44091 0.0
C3023 C 0.27728 0.73648 0.44571 0.0
C3024 C 0.29054 0.75061 0.42629 0.0
C3025 C 0.26919 0.74604 0.38634 0.0
H3026 H 0.29006 0.7901 0.38404 0.0
C3027 C 0.26595 0.77462 0.32677 0.0
C3028 C 0.27856 0.78591 0.32405 0.0
C3029 C 0.26533 0.76897 0.34172 0.0
C3030 C 0.28438 0.77767 0.38434 0.0
H3031 H 0.25313 0.72944 0.43893 0.0
H3032 H 0.25283 0.74043 0.41316 0.0
H3033 H 0.2902 0.77943 0.40976 0.0
H3034 H 0.30056 0.79987 0.3349 0.0
H3035 H 0.29981 0.7896 0.36062 0.0
H3036 H 0.26384 0.74391 0.36097 0.0
C3037 C 0.26349 0.74157 0.42081 0.0
C3038 C 0.28439 0.77161 0.39915 0.0
C3039 C 0.26365 0.73538 0.43557 0.0
C3040 C 0.29058 0.79134 0.33662 0.0
C3041 C 0.29009 0.78548 0.35147 0.0
C3042 C 0.26941 0.75198 0.37148 0.0
C3043 C 0.27693 0.74927 0.41603 0.0
C3044 C 0.27679 0.75575 0.40031 0.0
C3045 C 0.27744 0.77423 0.35431 0.0
C3046 C 0.27701 0.76791 0.37022 0.0
H3047 H 0.30139 0.74516 0.44851 0.0
H3048 H 0.30107 0.75641 0.42287 0.0
H3049 H 0.26336 0.7337 0.38687 0.0
H3050 H 0.25646 0.77025 0.31737 0.0
H3051 H 0.25526 0.76058 0.34341 0.0
C3052 C 0.5775 0.99074 0.67258 0.0
C3053 C 0.59243 0.9892 0.67315 0.0
C3054 C 0.56995 0.9955 0.65904 0.0
C3055 C 0.5773 0.016 0.62321 0.0
H3056 H 0.53438 1.00036 0.6105 0.0
C3057 C 0.54381 0.04494 0.57596 0.0
C3058 C 0.53199 0.03474 0.56544 0.0
C3059 C 0.55094 0.03902 0.58902 0.0
C3060 C 0.5464 0.00472 0.61374 0.0
H3061 H 0.61104 0.9908 0.65996 0.0
H3062 H 0.59771 0.99849 0.63602 0.0
H3063 H 0.5473 0.98969 0.63265 0.0
H3064 H 0.51835 0.01041 0.56012 0.0
H3065 H 0.53108 0.99988 0.58262 0.0
H3066 H 0.57652 0.0305 0.60389 0.0
C3067 C 0.59194 0.99655 0.64617 0.0
C3068 C 0.55379 0.99876 0.62662 0.0
C3069 C 0.59956 0.99203 0.65981 0.0
C3070 C 0.52736 0.01855 0.56818 0.0
C3071 C 0.53462 0.01256 0.58112 0.0
C3072 C 0.56995 0.02178 0.6102 0.0
C3073 C 0.57711 0.99859 0.64571 0.0
C3074 C 0.56932 0.00442 0.6316 0.0
C3075 C 0.54653 0.02271 0.59169 0.0
C3076 C 0.55438 0.01631 0.60537 0.0
H3077 H 0.57184 0.98883 0.68282 0.0
H3078 H 0.55866 0.99721 0.65926 0.0
H3079 H 0.58922 0.02084 0.62682 0.0
H3080 H 0.54755 0.0575 0.5741 0.0
H3081 H 0.55985 0.04728 0.59706 0.0
C3082 C 0.27279 0.35042 0.94935 0.0
C3083 C 0.2823 0.36541 0.95548 0.0
C3084 C 0.27274 0.34379 0.93375 0.0
C3085 C 0.29584 0.34489 0.90169 0.0
H3086 H 0.258 0.32999 0.87329 0.0
C3087 C 0.29382 0.33068 0.834 0.0
C3088 C 0.28237 0.31814 0.8256 0.0
C3089 C 0.29373 0.33578 0.84998 0.0
C3090 C 0.26868 0.33382 0.88108 0.0
H3091 H 0.29953 0.38493 0.95024 0.0
H3092 H 0.29956 0.3733 0.92318 0.0
H3093 H 0.25809 0.33949 0.90104 0.0
H3094 H 0.26191 0.30096 0.82755 0.0
H3095 H 0.26199 0.30946 0.85549 0.0
H3096 H 0.3065 0.33903 0.88196 0.0
C3097 C 0.29207 0.36672 0.93035 0.0
C3098 C 0.26871 0.33931 0.897 0.0
C3099 C 0.29196 0.37344 0.94581 0.0
C3100 C 0.27086 0.31075 0.83362 0.0
C3101 C 0.27086 0.3157 0.84967 0.0
C3102 C 0.29582 0.33921 0.88584 0.0
C3103 C 0.2824 0.35187 0.92409 0.0
C3104 C 0.2823 0.34509 0.90744 0.0
C3105 C 0.28229 0.32832 0.8581 0.0
C3106 C 0.28225 0.33378 0.87522 0.0
H3107 H 0.2652 0.34398 0.95651 0.0
H3108 H 0.26522 0.33228 0.92928 0.0
H3109 H 0.30649 0.34907 0.90949 0.0
H3110 H 0.30279 0.33674 0.82818 0.0
H3111 H 0.30256 0.34574 0.85589 0.0
C3112 C 0.98441 0.06901 0.29889 0.0
C3113 C 0.96896 0.06773 0.29916 0.0
C3114 C 0.99436 0.06994 0.31303 0.0
C3115 C 0.99851 0.07787 0.35666 0.0
H3116 H 0.01808 0.0416 0.35787 0.0
C3117 C 0.02334 0.05949 0.41592 0.0
C3118 C 0.01709 0.04329 0.41772 0.0
C3119 C 0.02227 0.06498 0.4009 0.0
C3120 C 0.01288 0.05192 0.35766 0.0
H3121 H 0.95207 0.06704 0.31474 0.0
H3122 H 0.96944 0.06925 0.3392 0.0
H3123 H 0.00694 0.04841 0.33228 0.0
H3124 H 0.00557 0.01999 0.40505 0.0
H3125 H 0.00386 0.02955 0.37884 0.0
H3126 H 0.00358 0.08079 0.38206 0.0
C3127 C 0.97385 0.06957 0.32806 0.0
C3128 C 0.00663 0.0559 0.34304 0.0
C3129 C 0.96388 0.06834 0.31397 0.0
C3130 C 0.01061 0.03249 0.40407 0.0
C3131 C 0.00965 0.03797 0.38905 0.0
C3132 C 0.00486 0.07399 0.37125 0.0
C3133 C 0.98909 0.06996 0.3277 0.0
C3134 C 0.99884 0.06847 0.3425 0.0
C3135 C 0.01509 0.05435 0.38738 0.0
C3136 C 0.01154 0.06055 0.37191 0.0
H3137 H 0.98878 0.06891 0.28774 0.0
H3138 H 0.0061 0.07029 0.31251 0.0
H3139 H 0.9926 0.08766 0.35651 0.0
H3140 H 0.02873 0.06802 0.42618 0.0
H3141 H 0.02668 0.07764 0.3999 0.0
C3142 C 0.2687 0.73791 0.60956 0.0
C3143 C 0.28019 0.73068 0.60517 0.0
C3144 C 0.26911 0.74405 0.62537 0.0
C3145 C 0.28634 0.74234 0.66708 0.0
H3146 H 0.27661 0.78429 0.67434 0.0
C3147 C 0.28301 0.77358 0.73004 0.0
C3148 C 0.28995 0.7901 0.73282 0.0
C3149 C 0.28139 0.76514 0.71481 0.0
C3150 C 0.27936 0.77256 0.67253 0.0
H3151 H 0.30099 0.72396 0.6142 0.0
H3152 H 0.30181 0.73488 0.64173 0.0
H3153 H 0.27465 0.77192 0.6472 0.0
H3154 H 0.30093 0.8106 0.72193 0.0
H3155 H 0.29805 0.79607 0.69567 0.0
H3156 H 0.29131 0.74323 0.69255 0.0
C3157 C 0.29241 0.7357 0.63293 0.0
C3158 C 0.27811 0.76539 0.65695 0.0
C3159 C 0.29204 0.72962 0.61709 0.0
C3160 C 0.29546 0.79789 0.72021 0.0
C3161 C 0.29372 0.78958 0.70508 0.0
C3162 C 0.28748 0.74948 0.68273 0.0
C3163 C 0.281 0.74308 0.63727 0.0
C3164 C 0.28173 0.75027 0.65398 0.0
C3165 C 0.28651 0.77317 0.7021 0.0
C3166 C 0.28422 0.7648 0.68563 0.0
H3167 H 0.25946 0.73906 0.60072 0.0
H3168 H 0.26006 0.74952 0.62828 0.0
H3169 H 0.28907 0.7306 0.66523 0.0
H3170 H 0.27866 0.76728 0.7395 0.0
H3171 H 0.27577 0.75248 0.71289 0.0
C3172 C 0.56907 0.99366 0.81323 0.0
C3173 C 0.58476 0.99788 0.81445 0.0
C3174 C 0.5618 0.00123 0.82393 0.0
C3175 C 0.56651 0.03807 0.8513 0.0
H3176 H 0.5373 0.01161 0.8724 0.0
C3177 C 0.54917 0.05926 0.91024 0.0
C3178 C 0.535 0.05191 0.91366 0.0
C3179 C 0.55356 0.05493 0.89578 0.0
C3180 C 0.54514 0.01927 0.86635 0.0
H3181 H 0.60517 0.01337 0.82763 0.0
H3182 H 0.59248 0.02643 0.84643 0.0
H3183 H 0.54842 0.99891 0.85201 0.0
H3184 H 0.51373 0.03559 0.90376 0.0
H3185 H 0.52108 0.02883 0.87833 0.0
H3186 H 0.56338 0.05843 0.86581 0.0
C3187 C 0.5858 0.01736 0.83717 0.0
C3188 C 0.55157 0.01194 0.85473 0.0
C3189 C 0.59307 0.00972 0.82657 0.0
C3190 C 0.52474 0.04153 0.90162 0.0
C3191 C 0.52904 0.03742 0.88708 0.0
C3192 C 0.55998 0.04544 0.86286 0.0
C3193 C 0.57011 0.01324 0.8359 0.0
C3194 C 0.56249 0.02123 0.84729 0.0
C3195 C 0.54375 0.04338 0.88435 0.0
C3196 C 0.54939 0.03608 0.8707 0.0
H3197 H 0.56243 0.98455 0.804 0.0
H3198 H 0.54967 0.99786 0.8227 0.0
H3199 H 0.57479 0.04552 0.84556 0.0
H3200 H 0.55722 0.06763 0.91909 0.0
H3201 H 0.56497 0.05982 0.89406 0.0
C3202 C 0.27602 0.3684 0.12305 0.0
C3203 C 0.28735 0.36658 0.11399 0.0
C3204 C 0.27529 0.3616 0.13744 0.0
C3205 C 0.28785 0.33001 0.16023 0.0
H3206 H 0.27684 0.35383 0.19572 0.0
C3207 C 0.27212 0.30055 0.2165 0.0
C3208 C 0.27661 0.30995 0.23133 0.0
C3209 C 0.27432 0.30745 0.20238 0.0
C3210 C 0.28007 0.34705 0.186 0.0
H3211 H 0.30673 0.35594 0.11304 0.0
H3212 H 0.30558 0.34429 0.13823 0.0
H3213 H 0.2791 0.36597 0.17097 0.0
H3214 H 0.28719 0.33392 0.243 0.0
H3215 H 0.29123 0.34593 0.21841 0.0
H3216 H 0.289 0.31116 0.17536 0.0
C3217 C 0.29717 0.35089 0.13413 0.0
C3218 C 0.28119 0.35395 0.1717 0.0
C3219 C 0.29792 0.35773 0.11974 0.0
C3220 C 0.2836 0.32635 0.23175 0.0
C3221 C 0.28581 0.33326 0.21763 0.0
C3222 C 0.28671 0.32309 0.17454 0.0
C3223 C 0.28585 0.35275 0.1432 0.0
C3224 C 0.28501 0.3455 0.15858 0.0
C3225 C 0.28106 0.32395 0.20273 0.0
C3226 C 0.28274 0.33149 0.18761 0.0
H3227 H 0.26779 0.37529 0.11915 0.0
H3228 H 0.26631 0.36314 0.14397 0.0
H3229 H 0.2907 0.32307 0.15037 0.0
H3230 H 0.26667 0.28789 0.21578 0.0
H3231 H 0.27036 0.29993 0.19115 0.0
C3232 C 0.22291 0.96925 0.04377 0.0
C3233 C 0.22224 0.95589 0.03266 0.0
C3234 C 0.21084 0.97694 0.04357 0.0
C3235 C 0.17716 0.98242 0.01731 0.0
H3236 H 0.16524 0.99678 0.0569 0.0
C3237 C 0.12345 0.00739 0.01851 0.0
C3238 C 0.12437 0.02098 0.02941 0.0
C3239 C 0.13515 0.99912 0.01916 0.0
C3240 C 0.16852 0.993 0.04574 0.0
H3241 H 0.20809 0.93998 0.01282 0.0
H3242 H 0.18713 0.95342 0.01242 0.0
H3243 H 0.18612 0.98312 0.05752 0.0
H3244 H 0.13823 0.03626 0.04981 0.0
H3245 H 0.15872 0.02204 0.05078 0.0
H3246 H 0.15963 0.99237 0.00552 0.0
C3247 C 0.19709 0.95811 0.02115 0.0
C3248 C 0.1805 0.98516 0.0461 0.0
C3249 C 0.20915 0.95041 0.02137 0.0
C3250 C 0.13721 0.02596 0.04111 0.0
C3251 C 0.1489 0.01768 0.04178 0.0
C3252 C 0.16519 0.99027 0.01696 0.0
C3253 C 0.19778 0.97149 0.03223 0.0
C3254 C 0.18498 0.97978 0.03188 0.0
C3255 C 0.14807 0.00421 0.03075 0.0
C3256 C 0.16071 0.99568 0.03116 0.0
H3257 H 0.23288 0.97398 0.05248 0.0
H3258 H 0.21185 0.98735 0.05213 0.0
H3259 H 0.18045 0.97868 0.00614 0.0
H3260 H 0.11381 0.0033 0.00924 0.0
H3261 H 0.13403 0.98869 0.0106 0.0
C3262 C 0.68861 0.62133 0.00852 0.0
C3263 C 0.69289 0.63776 0.01455 0.0
C3264 C 0.67422 0.61231 0.00926 0.0
C3265 C 0.64129 0.6124 0.03011 0.0
H3266 H 0.62035 0.58081 0.9948 0.0
C3267 C 0.57816 0.58188 0.02446 0.0
C3268 C 0.57375 0.56541 0.01864 0.0
C3269 C 0.59288 0.59044 0.02451 0.0
C3270 C 0.6261 0.58944 0.00486 0.0
H3271 H 0.6852 0.65766 0.02574 0.0
H3272 H 0.66014 0.64204 0.02689 0.0
H3273 H 0.6455 0.59624 0.9936 0.0
H3274 H 0.58137 0.5449 0.00865 0.0
H3275 H 0.60707 0.55979 0.00882 0.0
H3276 H 0.6218 0.60568 0.04128 0.0
C3277 C 0.66799 0.63598 0.02191 0.0
C3278 C 0.64055 0.5983 0.00418 0.0
C3279 C 0.68238 0.64497 0.02122 0.0
C3280 C 0.58442 0.5576 0.01315 0.0
C3281 C 0.59912 0.56617 0.01315 0.0
C3282 C 0.62681 0.60357 0.03077 0.0
C3283 C 0.66371 0.61951 0.01598 0.0
C3284 C 0.64835 0.60993 0.01678 0.0
C3285 C 0.60352 0.58273 0.0187 0.0
C3286 C 0.61902 0.59199 0.01814 0.0
H3287 H 0.69648 0.61533 0.0035 0.0
H3288 H 0.67142 0.59961 0.00479 0.0
H3289 H 0.64702 0.62103 0.04017 0.0
H3290 H 0.57018 0.58823 0.02876 0.0
H3291 H 0.59582 0.60321 0.02874 0.0
C3292 C 0.71392 0.49933 0.30262 0.0
C3293 C 0.69875 0.49542 0.30458 0.0
C3294 C 0.72102 0.48733 0.29749 0.0
C3295 C 0.7175 0.44324 0.29592 0.0
H3296 H 0.74998 0.45198 0.27113 0.0
C3297 C 0.75014 0.39521 0.27965 0.0
C3298 C 0.76575 0.40027 0.28451 0.0
C3299 C 0.74103 0.40645 0.27918 0.0
C3300 C 0.74088 0.4494 0.27801 0.0
H3301 H 0.67905 0.47581 0.30231 0.0
H3302 H 0.69124 0.45506 0.29266 0.0
H3303 H 0.73525 0.47234 0.27538 0.0
H3304 H 0.78406 0.42116 0.29217 0.0
H3305 H 0.76812 0.4408 0.29106 0.0
H3306 H 0.72318 0.42033 0.29854 0.0
C3307 C 0.69777 0.46734 0.29547 0.0
C3308 C 0.73251 0.46105 0.28052 0.0
C3309 C 0.69072 0.4793 0.30082 0.0
C3310 C 0.77211 0.41687 0.28825 0.0
C3311 C 0.76301 0.42812 0.2876 0.0
C3312 C 0.72573 0.43154 0.29322 0.0
C3313 C 0.71306 0.47116 0.294 0.0
C3314 C 0.72093 0.45823 0.28982 0.0
C3315 C 0.74738 0.42296 0.28335 0.0
C3316 C 0.73768 0.43466 0.28453 0.0
H3317 H 0.72037 0.51166 0.30511 0.0
H3318 H 0.73286 0.49069 0.29669 0.0
H3319 H 0.70886 0.44074 0.30336 0.0
H3320 H 0.74492 0.38256 0.27627 0.0
H3321 H 0.72901 0.40223 0.27571 0.0
C3322 C 0.86988 0.47391 0.52637 0.0
C3323 C 0.86465 0.47002 0.54062 0.0
C3324 C 0.88438 0.48302 0.52661 0.0
C3325 C 0.92174 0.49429 0.55139 0.0
H3326 H 0.92934 0.5262 0.52168 0.0
C3327 C 0.98132 0.53255 0.54978 0.0
C3328 C 0.98529 0.53413 0.53454 0.0
C3329 C 0.96647 0.526 0.55155 0.0
C3330 C 0.92742 0.51726 0.52999 0.0
H3331 H 0.87051 0.47304 0.56635 0.0
H3332 H 0.89587 0.48895 0.56677 0.0
H3333 H 0.9036 0.51252 0.5229 0.0
H3334 H 0.97662 0.53016 0.50921 0.0
H3335 H 0.95094 0.5187 0.51232 0.0
H3336 H 0.9456 0.49887 0.5583 0.0
C3337 C 0.88878 0.48475 0.55539 0.0
C3338 C 0.91267 0.50941 0.53068 0.0
C3339 C 0.87425 0.47563 0.55515 0.0
C3340 C 0.97403 0.52918 0.52115 0.0
C3341 C 0.95923 0.52269 0.52293 0.0
C3342 C 0.93652 0.50214 0.55069 0.0
C3343 C 0.89404 0.48849 0.54111 0.0
C3344 C 0.90966 0.49766 0.54122 0.0
C3345 C 0.95526 0.52096 0.53813 0.0
C3346 C 0.93954 0.51354 0.5398 0.0
H3347 H 0.8629 0.46954 0.51495 0.0
H3348 H 0.88815 0.48543 0.51538 0.0
H3349 H 0.91983 0.48517 0.55952 0.0
H3350 H 0.98968 0.53624 0.56037 0.0
H3351 H 0.96375 0.52496 0.56344 0.0
C3352 C 0.37165 0.17521 0.27245 0.0
C3353 C 0.38164 0.18006 0.28682 0.0
C3354 C 0.35957 0.18253 0.26884 0.0
C3355 C 0.33629 0.20701 0.28703 0.0
H3356 H 0.32894 0.2203 0.24468 0.0
C3357 C 0.31074 0.25927 0.25782 0.0
C3358 C 0.29775 0.25823 0.26492 0.0
C3359 C 0.31839 0.24675 0.25811 0.0
C3360 C 0.3308 0.21656 0.25652 0.0
H3361 H 0.38683 0.19626 0.30869 0.0
H3362 H 0.36577 0.20925 0.3023 0.0
H3363 H 0.34805 0.20472 0.25085 0.0
H3364 H 0.28193 0.24277 0.27685 0.0
H3365 H 0.29533 0.2208 0.27728 0.0
H3366 H 0.3196 0.21956 0.29294 0.0
C3367 C 0.36717 0.19961 0.29394 0.0
C3368 C 0.34166 0.20755 0.26002 0.0
C3369 C 0.37925 0.19226 0.29758 0.0
C3370 C 0.29196 0.24395 0.27132 0.0
C3371 C 0.29966 0.23141 0.27167 0.0
C3372 C 0.32544 0.21602 0.28352 0.0
C3373 C 0.35723 0.19483 0.27952 0.0
C3374 C 0.34475 0.20302 0.27542 0.0
C3375 C 0.3132 0.23294 0.26551 0.0
C3376 C 0.32284 0.2212 0.26834 0.0
H3377 H 0.37301 0.16556 0.2641 0.0
H3378 H 0.35197 0.17844 0.25774 0.0
H3379 H 0.33828 0.20345 0.29892 0.0
H3380 H 0.31543 0.27007 0.25267 0.0
H3381 H 0.32886 0.24834 0.25338 0.0
C3382 C 0.33624 0.13044 0.51289 0.0
C3383 C 0.33802 0.14738 0.51446 0.0
C3384 C 0.34875 0.12339 0.51358 0.0
C3385 C 0.3882 0.13115 0.50752 0.0
H3386 H 0.3908 0.09586 0.53323 0.0
C3387 C 0.44139 0.10445 0.51621 0.0
C3388 C 0.43934 0.08765 0.51666 0.0
C3389 C 0.42927 0.11203 0.51645 0.0
C3390 C 0.39019 0.10555 0.52581 0.0
H3391 H 0.35461 0.17009 0.51824 0.0
H3392 H 0.37628 0.15775 0.51892 0.0
H3393 H 0.36914 0.10829 0.53238 0.0
H3394 H 0.42284 0.06562 0.51746 0.0
H3395 H 0.40174 0.07871 0.51766 0.0
H3396 H 0.40904 0.12823 0.50063 0.0
C3397 C 0.36517 0.14997 0.51712 0.0
C3398 C 0.37777 0.1127 0.52537 0.0
C3399 C 0.35269 0.15703 0.51664 0.0
C3400 C 0.42488 0.07862 0.51738 0.0
C3401 C 0.41276 0.08617 0.51752 0.0
C3402 C 0.40056 0.12389 0.50783 0.0
C3403 C 0.36335 0.13307 0.51564 0.0
C3404 C 0.37662 0.12557 0.51621 0.0
C3405 C 0.41476 0.10298 0.51704 0.0
C3406 C 0.40172 0.11096 0.51695 0.0
H3407 H 0.32518 0.12255 0.51089 0.0
H3408 H 0.34697 0.11033 0.51221 0.0
H3409 H 0.38755 0.14092 0.50021 0.0
H3410 H 0.45241 0.1118 0.51584 0.0
H3411 H 0.43134 0.12503 0.51634 0.0
C3412 C 0.71741 0.65257 0.33341 0.0
C3413 C 0.70573 0.64378 0.32171 0.0
C3414 C 0.72626 0.66715 0.33039 0.0
C3415 C 0.73766 0.68869 0.29664 0.0
H3416 H 0.75135 0.72607 0.32822 0.0
C3417 C 0.76529 0.75099 0.28056 0.0
C3418 C 0.77794 0.7599 0.29096 0.0
C3419 C 0.7568 0.73688 0.28484 0.0
C3420 C 0.74774 0.71565 0.31935 0.0
H3421 H 0.69354 0.64375 0.29808 0.0
H3422 H 0.70878 0.66921 0.29288 0.0
H3423 H 0.73552 0.70152 0.33498 0.0
H3424 H 0.79167 0.76116 0.31397 0.0
H3425 H 0.77685 0.73632 0.32145 0.0
H3426 H 0.74976 0.70279 0.28098 0.0
C3427 C 0.71143 0.66467 0.30421 0.0
C3428 C 0.73868 0.70162 0.32321 0.0
C3429 C 0.70267 0.65012 0.3072 0.0
C3430 C 0.78199 0.75446 0.30572 0.0
C3431 C 0.77345 0.74033 0.31004 0.0
C3432 C 0.74666 0.7027 0.29278 0.0
C3433 C 0.72351 0.6732 0.31563 0.0
C3434 C 0.73343 0.68804 0.31184 0.0
C3435 C 0.76078 0.7314 0.29962 0.0
C3436 C 0.7517 0.71637 0.30404 0.0
H3437 H 0.72005 0.64789 0.34467 0.0
H3438 H 0.73554 0.67339 0.33939 0.0
H3439 H 0.7341 0.67832 0.28772 0.0
H3440 H 0.76187 0.75498 0.26914 0.0
H3441 H 0.74698 0.73037 0.27665 0.0
C3442 C 0.87486 0.52738 0.77226 0.0
C3443 C 0.86886 0.54129 0.77284 0.0
C3444 C 0.86546 0.51206 0.76972 0.0
C3445 C 0.82907 0.49076 0.77664 0.0
H3446 H 0.83998 0.45525 0.75304 0.0
C3447 C 0.81943 0.42653 0.79457 0.0
C3448 C 0.81709 0.41333 0.78287 0.0
C3449 C 0.82163 0.44227 0.79033 0.0
C3450 C 0.8365 0.465 0.75941 0.0
H3451 H 0.8482 0.54999 0.77073 0.0
H3452 H 0.83167 0.52299 0.76656 0.0
H3453 H 0.85173 0.48293 0.74994 0.0
H3454 H 0.8141 0.40611 0.75749 0.0
H3455 H 0.81791 0.43366 0.75005 0.0
H3456 H 0.81413 0.47277 0.78646 0.0
C3457 C 0.84372 0.52409 0.76807 0.0
C3458 C 0.84336 0.48086 0.75775 0.0
C3459 C 0.85317 0.5395 0.77053 0.0
C3460 C 0.8162 0.41611 0.76678 0.0
C3461 C 0.81833 0.43185 0.76252 0.0
C3462 C 0.82217 0.47486 0.77829 0.0
C3463 C 0.84981 0.51023 0.76778 0.0
C3464 C 0.84018 0.49386 0.76685 0.0
C3465 C 0.82146 0.44512 0.77429 0.0
C3466 C 0.82626 0.46182 0.77017 0.0
H3467 H 0.88688 0.52827 0.77438 0.0
H3468 H 0.87051 0.50162 0.76995 0.0
H3469 H 0.82641 0.50055 0.78382 0.0
H3470 H 0.82028 0.42474 0.80708 0.0
H3471 H 0.82425 0.45222 0.79972 0.0
C3472 C 0.03404 0.89041 0.09174 0.0
C3473 C 0.04831 0.8876 0.09721 0.0
C3474 C 0.03256 0.90385 0.08366 0.0
C3475 C 0.05389 0.9443 0.07706 0.0
H3476 H 0.02079 0.94118 0.04275 0.0
C3477 C 0.04846 0.99736 0.03967 0.0
C3478 C 0.03417 0.00102 0.03703 0.0
C3479 C 0.05038 0.98304 0.04593 0.0
C3480 C 0.03004 0.94227 0.05237 0.0
H3481 H 0.07224 0.89691 0.09834 0.0
H3482 H 0.06964 0.91999 0.08382 0.0
H3483 H 0.02387 0.91721 0.05568 0.0
H3484 H 0.01062 0.99218 0.0385 0.0
H3485 H 0.01397 0.96723 0.04935 0.0
H3486 H 0.06006 0.96936 0.07368 0.0
C3487 C 0.05957 0.91194 0.08602 0.0
C3488 C 0.0318 0.92853 0.05984 0.0
C3489 C 0.06106 0.89854 0.09418 0.0
C3490 C 0.02179 0.98978 0.04036 0.0
C3491 C 0.0237 0.97541 0.04653 0.0
C3492 C 0.05218 0.95801 0.06952 0.0
C3493 C 0.0453 0.91484 0.08071 0.0
C3494 C 0.04369 0.92937 0.07237 0.0
C3495 C 0.03805 0.97198 0.04961 0.0
C3496 C 0.04018 0.9572 0.05715 0.0
H3497 H 0.02395 0.88216 0.09361 0.0
H3498 H 0.02138 0.90574 0.07995 0.0
H3499 H 0.06303 0.94553 0.08683 0.0
H3500 H 0.05827 0.00572 0.03727 0.0
H3501 H 0.06156 0.98067 0.04798 0.0
C3502 C 0.92718 0.29752 0.86248 0.0
C3503 C 0.93529 0.28603 0.85792 0.0
C3504 C 0.91327 0.29791 0.85375 0.0
C3505 C 0.88134 0.27268 0.82619 0.0
H3506 H 0.87249 0.31362 0.81558 0.0
C3507 C 0.82736 0.27486 0.78431 0.0
C3508 C 0.81993 0.28726 0.78767 0.0
C3509 C 0.84168 0.27521 0.79246 0.0
C3510 C 0.87467 0.3021 0.81861 0.0
H3511 H 0.93497 0.26596 0.84044 0.0
H3512 H 0.91056 0.26644 0.82544 0.0
H3513 H 0.89681 0.31309 0.83079 0.0
H3514 H 0.82161 0.30985 0.80211 0.0
H3515 H 0.8465 0.31034 0.8167 0.0
H3516 H 0.85918 0.26165 0.81439 0.0
C3517 C 0.91501 0.27512 0.83583 0.0
C3518 C 0.88864 0.3018 0.8273 0.0
C3519 C 0.92899 0.27482 0.84448 0.0
C3520 C 0.82717 0.3002 0.79919 0.0
C3521 C 0.84146 0.30047 0.80751 0.0
C3522 C 0.86733 0.27298 0.81765 0.0
C3523 C 0.90702 0.28672 0.84033 0.0
C3524 C 0.89216 0.28708 0.83113 0.0
C3525 C 0.84885 0.28788 0.80437 0.0
C3526 C 0.8638 0.28768 0.81364 0.0
H3527 H 0.93146 0.30613 0.87294 0.0
H3528 H 0.90729 0.30682 0.85768 0.0
H3529 H 0.88361 0.26117 0.82917 0.0
H3530 H 0.82206 0.26477 0.77543 0.0
H3531 H 0.8471 0.26549 0.7894 0.0
C3532 C 0.53245 0.22471 0.59002 0.0
C3533 C 0.5462 0.23398 0.59827 0.0
C3534 C 0.53148 0.209 0.58302 0.0
C3535 C 0.55035 0.17492 0.58628 0.0
H3536 H 0.52701 0.15873 0.54471 0.0
C3537 C 0.55058 0.1121 0.55545 0.0
C3538 C 0.53695 0.1029 0.54691 0.0
C3539 C 0.5518 0.12823 0.56129 0.0
C3540 C 0.53343 0.16299 0.55642 0.0
H3541 H 0.56984 0.23422 0.60493 0.0
H3542 H 0.56809 0.20683 0.59285 0.0
H3543 H 0.52895 0.18669 0.5554 0.0
H3544 H 0.51389 0.10347 0.53787 0.0
H3545 H 0.51595 0.13145 0.54834 0.0
H3546 H 0.55468 0.15124 0.58747 0.0
C3547 C 0.55802 0.2116 0.59204 0.0
C3548 C 0.53456 0.17904 0.56252 0.0
C3549 C 0.55901 0.2273 0.59898 0.0
C3550 C 0.52458 0.11021 0.54436 0.0
C3551 C 0.52578 0.12631 0.55028 0.0
C3552 C 0.54916 0.15888 0.58023 0.0
C3553 C 0.54421 0.20219 0.58414 0.0
C3554 C 0.54306 0.18519 0.57751 0.0
C3555 C 0.53942 0.13555 0.55881 0.0
C3556 C 0.54069 0.15269 0.56521 0.0
H3557 H 0.52233 0.22939 0.58939 0.0
H3558 H 0.52065 0.20201 0.57714 0.0
H3559 H 0.55677 0.17921 0.59799 0.0
H3560 H 0.56037 0.10691 0.55754 0.0
H3561 H 0.56255 0.13502 0.56758 0.0
C3562 C 0.59358 0.80436 0.37147 0.0
C3563 C 0.57989 0.79388 0.36466 0.0
C3564 C 0.60649 0.80475 0.36442 0.0
C3565 C 0.62262 0.78007 0.33658 0.0
H3566 H 0.65091 0.82038 0.33513 0.0
C3567 C 0.67062 0.78368 0.29943 0.0
C3568 C 0.68479 0.79331 0.30603 0.0
C3569 C 0.65806 0.78413 0.3068 0.0
C3570 C 0.64321 0.809 0.3356 0.0
H3571 H 0.56895 0.77602 0.34479 0.0
H3572 H 0.59137 0.77678 0.33244 0.0
H3573 H 0.62849 0.82061 0.34736 0.0
H3574 H 0.69676 0.8111 0.32557 0.0
H3575 H 0.67482 0.8117 0.33861 0.0
H3576 H 0.63727 0.76844 0.3248 0.0
C3577 C 0.59224 0.78444 0.34343 0.0
C3578 C 0.63034 0.80913 0.34261 0.0
C3579 C 0.57936 0.78402 0.3505 0.0
C3580 C 0.68605 0.80343 0.32022 0.0
C3581 C 0.67344 0.8039 0.32761 0.0
C3582 C 0.63544 0.77994 0.32957 0.0
C3583 C 0.60601 0.7947 0.35037 0.0
C3584 C 0.61983 0.79466 0.3431 0.0
C3585 C 0.6593 0.7942 0.32101 0.0
C3586 C 0.64586 0.7944 0.32889 0.0
H3587 H 0.59443 0.81197 0.38248 0.0
H3588 H 0.61693 0.81265 0.37021 0.0
H3589 H 0.61496 0.76865 0.33704 0.0
H3590 H 0.66924 0.77557 0.28863 0.0
H3591 H 0.64733 0.77665 0.30127 0.0
C3592 C 0.02442 0.20483 0.44907 0.0
C3593 C 0.01675 0.21578 0.4557 0.0
C3594 C 0.02449 0.18994 0.45502 0.0
C3595 C 0.01795 0.16837 0.49062 0.0
H3596 H 0.01771 0.13063 0.46192 0.0
C3597 C 0.03093 0.10979 0.51378 0.0
C3598 C 0.0232 0.09479 0.50553 0.0
C3599 C 0.02938 0.12429 0.50769 0.0
C3600 C 0.01762 0.14097 0.47012 0.0
H3601 H 0.00309 0.21941 0.47387 0.0
H3602 H 0.00283 0.19329 0.48391 0.0
H3603 H 0.01598 0.15604 0.45126 0.0
H3604 H 0.00762 0.08336 0.48438 0.0
H3605 H 0.00468 0.10864 0.4739 0.0
H3606 H 0.01921 0.15321 0.50944 0.0
C3607 C 0.00904 0.19635 0.47426 0.0
C3608 C 0.01684 0.15566 0.46401 0.0
C3609 C 0.00902 0.21129 0.46835 0.0
C3610 C 0.01376 0.09468 0.49107 0.0
C3611 C 0.01216 0.10921 0.48499 0.0
C3612 C 0.01866 0.15367 0.49672 0.0
C3613 C 0.01681 0.18546 0.46771 0.0
C3614 C 0.01711 0.16963 0.47418 0.0
C3615 C 0.02 0.12423 0.49318 0.0
C3616 C 0.01863 0.13977 0.48658 0.0
H3617 H 0.0303 0.20766 0.43915 0.0
H3618 H 0.03077 0.18203 0.44976 0.0
H3619 H 0.01835 0.17884 0.49888 0.0
H3620 H 0.03837 0.11039 0.52491 0.0
H3621 H 0.03581 0.13555 0.51424 0.0
C3622 C 0.62964 0.30274 0.19453 0.0
C3623 C 0.62417 0.31702 0.19422 0.0
C3624 C 0.64352 0.30267 0.20343 0.0
C3625 C 0.67998 0.32858 0.22084 0.0
H3626 H 0.68322 0.2929 0.24586 0.0
C3627 C 0.73611 0.32404 0.25871 0.0
C3628 C 0.73933 0.30855 0.2585 0.0
C3629 C 0.7219 0.32601 0.25208 0.0
C3630 C 0.68257 0.30288 0.23882 0.0
H3631 H 0.6292 0.34249 0.20309 0.0
H3632 H 0.65364 0.34238 0.21844 0.0
H3633 H 0.65883 0.29464 0.23187 0.0
H3634 H 0.73012 0.28303 0.25102 0.0
H3635 H 0.70565 0.2865 0.23925 0.0
H3636 H 0.70381 0.33659 0.22742 0.0
C3637 C 0.64708 0.33125 0.21174 0.0
C3638 C 0.66857 0.30388 0.23084 0.0
C3639 C 0.6331 0.33131 0.20291 0.0
C3640 C 0.72803 0.29513 0.25154 0.0
C3641 C 0.71391 0.29711 0.24485 0.0
C3642 C 0.69405 0.32751 0.22874 0.0
C3643 C 0.65238 0.31689 0.21217 0.0
C3644 C 0.66713 0.3166 0.22156 0.0
C3645 C 0.71062 0.31256 0.24504 0.0
C3646 C 0.69556 0.31449 0.23762 0.0
H3647 H 0.62331 0.2916 0.18769 0.0
H3648 H 0.64742 0.29148 0.20326 0.0
H3649 H 0.67924 0.33847 0.21369 0.0
H3650 H 0.74454 0.33464 0.26403 0.0
H3651 H 0.71973 0.33807 0.25259 0.0
C3652 C 0.52793 0.88114 0.97475 0.0
C3653 C 0.52306 0.87725 0.95827 0.0
C3654 C 0.52893 0.89675 0.98206 0.0
C3655 C 0.53069 0.93947 0.97336 0.0
H3656 H 0.52033 0.94452 0.01571 0.0
C3657 C 0.52741 0.00179 0.00503 0.0
C3658 C 0.53367 0.00499 0.02122 0.0
C3659 C 0.52573 0.98635 0.99687 0.0
C3660 C 0.52339 0.94336 0.00393 0.0
H3661 H 0.51572 0.88713 0.93658 0.0
H3662 H 0.51701 0.91408 0.94936 0.0
H3663 H 0.51823 0.91752 0.00255 0.0
H3664 H 0.54296 0.99447 0.04159 0.0
H3665 H 0.54006 0.96772 0.0275 0.0
H3666 H 0.53575 0.96539 0.97479 0.0
C3667 C 0.52024 0.9051 0.95665 0.0
C3668 C 0.52222 0.92782 0.99637 0.0
C3669 C 0.51929 0.8895 0.94933 0.0
C3670 C 0.53808 0.99241 0.02911 0.0
C3671 C 0.53634 0.97702 0.02104 0.0
C3672 C 0.53179 0.95503 0.98091 0.0
C3673 C 0.52505 0.90897 0.97314 0.0
C3674 C 0.52598 0.92562 0.98102 0.0
C3675 C 0.53013 0.97373 0.00481 0.0
C3676 C 0.52829 0.95719 0.99637 0.0
H3677 H 0.5308 0.87206 0.9821 0.0
H3678 H 0.5329 0.89927 0.99474 0.0
H3679 H 0.53387 0.93833 0.96164 0.0
H3680 H 0.52363 0.01113 0.99873 0.0
H3681 H 0.52073 0.98421 0.98443 0.0
C3682 C 0.98029 0.80639 0.70212 0.0
C3683 C 0.97996 0.80953 0.68614 0.0
C3684 C 0.9678 0.80668 0.70973 0.0
C3685 C 0.92677 0.80353 0.70167 0.0
H3686 H 0.93253 0.82523 0.74445 0.0
C3687 C 0.87722 0.81754 0.73099 0.0
C3688 C 0.87768 0.81642 0.7474 0.0
C3689 C 0.8896 0.81603 0.72361 0.0
C3690 C 0.93071 0.81891 0.73259 0.0
H3691 H 0.96609 0.81511 0.66555 0.0
H3692 H 0.94439 0.81575 0.67884 0.0
H3693 H 0.95428 0.82374 0.73151 0.0
H3694 H 0.89139 0.81236 0.76883 0.0
H3695 H 0.9129 0.80951 0.75596 0.0
H3696 H 0.90322 0.79863 0.70273 0.0
C3697 C 0.95428 0.813 0.68548 0.0
C3698 C 0.9432 0.81808 0.72516 0.0
C3699 C 0.96679 0.81281 0.67792 0.0
C3700 C 0.89075 0.81352 0.75621 0.0
C3701 C 0.9031 0.81192 0.74883 0.0
C3702 C 0.91428 0.80429 0.70912 0.0
C3703 C 0.95464 0.80999 0.70149 0.0
C3704 C 0.94138 0.81046 0.70958 0.0
C3705 C 0.90274 0.81327 0.73245 0.0
C3706 C 0.91607 0.81207 0.72465 0.0
H3707 H 0.99029 0.80394 0.70884 0.0
H3708 H 0.9684 0.80417 0.72203 0.0
H3709 H 0.92499 0.79736 0.68974 0.0
H3710 H 0.86741 0.82 0.72389 0.0
H3711 H 0.88897 0.8174 0.71104 0.0
C3712 C 0.11647 0.05778 0.90919 0.0
C3713 C 0.12088 0.0449 0.9012 0.0
C3714 C 0.10695 0.05488 0.92047 0.0
C3715 C 0.07708 0.02447 0.9306 0.0
H3716 H 0.0838 0.05297 0.96988 0.0
C3717 C 0.03577 0.02217 0.97728 0.0
C3718 C 0.03404 0.03751 0.98295 0.0
C3719 C 0.04647 0.02085 0.96734 0.0
C3720 C 0.08177 0.04492 0.95894 0.0
H3721 H 0.1192 0.01894 0.89922 0.0
H3722 H 0.10222 0.01389 0.91881 0.0
H3723 H 0.10342 0.05486 0.95323 0.0
H3724 H 0.04103 0.06332 0.98194 0.0
H3725 H 0.05928 0.06102 0.9644 0.0
H3726 H 0.05514 0.01498 0.93611 0.0
C3727 C 0.10616 0.02618 0.91622 0.0
C3728 C 0.093 0.04599 0.94947 0.0
C3729 C 0.11583 0.02909 0.90502 0.0
C3730 C 0.04232 0.05136 0.97782 0.0
C3731 C 0.05284 0.05006 0.96791 0.0
C3732 C 0.06577 0.02345 0.94009 0.0
C3733 C 0.10155 0.03905 0.92392 0.0
C3734 C 0.09058 0.03612 0.93501 0.0
C3735 C 0.05541 0.03486 0.96304 0.0
C3736 C 0.06788 0.03406 0.95406 0.0
H3737 H 0.11989 0.07004 0.90629 0.0
H3738 H 0.10335 0.065 0.92608 0.0
H3739 H 0.07496 0.01678 0.91944 0.0
H3740 H 0.02952 0.01135 0.98121 0.0
H3741 H 0.04823 0.009 0.96363 0.0
C3742 C 0.79377 0.37878 0.6231 0.0
C3743 C 0.78672 0.36902 0.60892 0.0
C3744 C 0.79427 0.37241 0.63776 0.0
C3745 C 0.77526 0.33886 0.65785 0.0
H3746 H 0.81108 0.35149 0.68966 0.0
C3747 C 0.78034 0.30956 0.71668 0.0
C3748 C 0.78729 0.31963 0.73071 0.0
C3749 C 0.78079 0.31526 0.70177 0.0
C3750 C 0.80092 0.34797 0.68099 0.0
H3751 H 0.77474 0.3448 0.59913 0.0
H3752 H 0.7758 0.33362 0.62469 0.0
H3753 H 0.8109 0.36187 0.66379 0.0
H3754 H 0.80028 0.34365 0.73992 0.0
H3755 H 0.80087 0.35366 0.71394 0.0
H3756 H 0.76521 0.32511 0.67507 0.0
C3757 C 0.78081 0.34628 0.62447 0.0
C3758 C 0.80082 0.35391 0.66613 0.0
C3759 C 0.78034 0.35265 0.60978 0.0
C3760 C 0.79487 0.33551 0.72939 0.0
C3761 C 0.79526 0.34124 0.71446 0.0
C3762 C 0.77534 0.33295 0.67272 0.0
C3763 C 0.78774 0.3561 0.63866 0.0
C3764 C 0.78798 0.34947 0.65437 0.0
C3765 C 0.78814 0.33122 0.70044 0.0
C3766 C 0.78816 0.33743 0.68452 0.0
H3767 H 0.799 0.39138 0.6229 0.0
H3768 H 0.79958 0.38038 0.64843 0.0
H3769 H 0.7651 0.33539 0.64919 0.0
H3770 H 0.77447 0.29723 0.71718 0.0
H3771 H 0.77542 0.30709 0.69125 0.0
C3772 C 0.47458 0.09477 0.37756 0.0
C3773 C 0.47624 0.11113 0.37511 0.0
C3774 C 0.48148 0.09032 0.39158 0.0
C3775 C 0.49976 0.10611 0.43288 0.0
H3776 H 0.51568 0.06732 0.42958 0.0
C3777 C 0.53786 0.08621 0.48417 0.0
C3778 C 0.53312 0.07013 0.48726 0.0
C3779 C 0.53103 0.09178 0.47068 0.0
C3780 C 0.51122 0.07813 0.43066 0.0
H3781 H 0.48613 0.13573 0.38535 0.0
H3782 H 0.49872 0.12798 0.40983 0.0
H3783 H 0.50375 0.0763 0.40566 0.0
H3784 H 0.51767 0.04722 0.47884 0.0
H3785 H 0.50597 0.05687 0.45502 0.0
H3786 H 0.50769 0.10804 0.45796 0.0
C3787 C 0.49182 0.11857 0.40104 0.0
C3788 C 0.50431 0.08325 0.41699 0.0
C3789 C 0.4847 0.12303 0.38705 0.0
C3790 C 0.52155 0.05967 0.47665 0.0
C3791 C 0.5149 0.06516 0.46305 0.0
C3792 C 0.50689 0.1011 0.44655 0.0
C3793 C 0.49041 0.10213 0.4034 0.0
C3794 C 0.49831 0.09718 0.41795 0.0
C3795 C 0.51956 0.08126 0.45998 0.0
C3796 C 0.51252 0.08697 0.44554 0.0
H3797 H 0.46786 0.08539 0.36862 0.0
H3798 H 0.47977 0.07758 0.39315 0.0
H3799 H 0.49512 0.11678 0.43409 0.0
H3800 H 0.5467 0.09453 0.49226 0.0
H3801 H 0.53484 0.10423 0.46849 0.0
C3802 C 0.79005 0.73684 0.10788 0.0
C3803 C 0.77815 0.73806 0.09615 0.0
C3804 C 0.79048 0.74269 0.12377 0.0
C3805 C 0.7781 0.77189 0.14946 0.0
H3806 H 0.78245 0.74294 0.18197 0.0
C3807 C 0.79041 0.79242 0.21757 0.0
C3808 C 0.78072 0.7835 0.22667 0.0
C3809 C 0.79005 0.78719 0.20151 0.0
C3810 C 0.78123 0.75114 0.17301 0.0
H3811 H 0.75758 0.74668 0.09175 0.0
H3812 H 0.75857 0.75737 0.11953 0.0
H3813 H 0.78212 0.73344 0.15403 0.0
H3814 H 0.7632 0.76199 0.22612 0.0
H3815 H 0.7629 0.75264 0.19819 0.0
H3816 H 0.77748 0.78968 0.16851 0.0
C3817 C 0.76745 0.75172 0.11641 0.0
C3818 C 0.78112 0.74574 0.15707 0.0
C3819 C 0.76685 0.74556 0.10057 0.0
C3820 C 0.77078 0.76916 0.21942 0.0
C3821 C 0.77064 0.76376 0.20346 0.0
C3822 C 0.77852 0.77739 0.16546 0.0
C3823 C 0.77918 0.75017 0.1282 0.0
C3824 C 0.77949 0.75603 0.14513 0.0
C3825 C 0.78022 0.77276 0.19433 0.0
C3826 C 0.78 0.76704 0.17738 0.0
H3827 H 0.79884 0.73099 0.10482 0.0
H3828 H 0.79968 0.74141 0.13261 0.0
H3829 H 0.77688 0.78008 0.14049 0.0
H3830 H 0.79815 0.80356 0.2228 0.0
H3831 H 0.7976 0.79431 0.19476 0.0
C3832 C 0.08759 0.03591 0.75172 0.0
C3833 C 0.09428 0.05141 0.75943 0.0
C3834 C 0.07791 0.03406 0.73727 0.0
C3835 C 0.05831 0.05697 0.70859 0.0
H3836 H 0.06854 0.02733 0.67721 0.0
C3837 C 0.0655 0.05332 0.63902 0.0
C3838 C 0.05275 0.0585 0.63235 0.0
C3839 C 0.06691 0.04936 0.65461 0.0
C3840 C 0.06554 0.03566 0.68582 0.0
H3841 H 0.09565 0.07707 0.75862 0.0
H3842 H 0.07921 0.07397 0.73325 0.0
H3843 H 0.07717 0.02656 0.70524 0.0
H3844 H 0.03121 0.06306 0.63642 0.0
H3845 H 0.03355 0.05586 0.66373 0.0
H3846 H 0.04781 0.067 0.68904 0.0
C3847 C 0.08102 0.06316 0.73843 0.0
C3848 C 0.07028 0.03505 0.70195 0.0
C3849 C 0.09052 0.06498 0.75295 0.0
C3850 C 0.04125 0.05929 0.64141 0.0
C3851 C 0.04259 0.05516 0.657 0.0
C3852 C 0.05374 0.05773 0.69243 0.0
C3853 C 0.07494 0.0477 0.73018 0.0
C3854 C 0.06722 0.04612 0.7135 0.0
C3855 C 0.05553 0.05033 0.66384 0.0
C3856 C 0.05783 0.0475 0.68085 0.0
H3857 H 0.09018 0.02525 0.75665 0.0
H3858 H 0.07319 0.02197 0.7314 0.0
H3859 H 0.05546 0.06542 0.7172 0.0
H3860 H 0.0746 0.05279 0.63233 0.0
H3861 H 0.0772 0.04608 0.65958 0.0
C3862 C 0.77111 0.35386 0.44216 0.0
C3863 C 0.78197 0.36779 0.44883 0.0
C3864 C 0.77059 0.34728 0.42646 0.0
C3865 C 0.78397 0.35684 0.38816 0.0
H3866 H 0.77535 0.31019 0.3791 0.0
C3867 C 0.77658 0.32395 0.32399 0.0
C3868 C 0.78246 0.31002 0.32244 0.0
C3869 C 0.77639 0.33161 0.33913 0.0
C3870 C 0.77789 0.32325 0.38141 0.0
H3871 H 0.80058 0.38592 0.44382 0.0
H3872 H 0.80002 0.37417 0.41679 0.0
H3873 H 0.7753 0.32223 0.40587 0.0
H3874 H 0.79318 0.29348 0.33547 0.0
H3875 H 0.79305 0.30684 0.36169 0.0
H3876 H 0.78699 0.35778 0.36373 0.0
C3877 C 0.79173 0.36842 0.4236 0.0
C3878 C 0.77765 0.33017 0.39677 0.0
C3879 C 0.7922 0.37503 0.43926 0.0
C3880 C 0.78846 0.30413 0.33627 0.0
C3881 C 0.78828 0.31174 0.35133 0.0
C3882 C 0.78423 0.34989 0.37277 0.0
C3883 C 0.78096 0.35441 0.41698 0.0
C3884 C 0.78077 0.34707 0.40041 0.0
C3885 C 0.78206 0.32545 0.35302 0.0
C3886 C 0.78131 0.33299 0.36922 0.0
H3887 H 0.7631 0.34783 0.44913 0.0
H3888 H 0.76199 0.33662 0.42174 0.0
H3889 H 0.78623 0.36989 0.39043 0.0
H3890 H 0.7718 0.3287 0.31355 0.0
H3891 H 0.77144 0.34209 0.33996 0.0
C3892 C 0.48878 0.10428 0.23431 0.0
C3893 C 0.47301 0.10055 0.23079 0.0
C3894 C 0.49725 0.09688 0.22489 0.0
C3895 C 0.495 0.0606 0.19796 0.0
H3896 H 0.52724 0.08687 0.18057 0.0
C3897 C 0.51655 0.04022 0.14171 0.0
C3898 C 0.53087 0.04804 0.13906 0.0
C3899 C 0.51151 0.04393 0.15594 0.0
C3900 C 0.51858 0.07923 0.18566 0.0
H3901 H 0.45382 0.08669 0.21421 0.0
H3902 H 0.46866 0.0736 0.19792 0.0
H3903 H 0.51423 0.09961 0.19907 0.0
H3904 H 0.55184 0.06418 0.15023 0.0
H3905 H 0.54338 0.06975 0.17531 0.0
H3906 H 0.49923 0.04021 0.18447 0.0
C3907 C 0.47439 0.08207 0.20812 0.0
C3908 C 0.51105 0.0866 0.19616 0.0
C3909 C 0.46593 0.0896 0.21741 0.0
C3910 C 0.5407 0.05796 0.15174 0.0
C3911 C 0.53576 0.06139 0.16608 0.0
C3912 C 0.50267 0.05316 0.1876 0.0
C3913 C 0.4901 0.0855 0.2119 0.0
C3914 C 0.49897 0.07742 0.20207 0.0
C3915 C 0.5208 0.05526 0.16794 0.0
C3916 C 0.51431 0.06246 0.18101 0.0
H3917 H 0.49457 0.11246 0.24467 0.0
H3918 H 0.50937 0.0997 0.22801 0.0
H3919 H 0.48582 0.05325 0.20259 0.0
H3920 H 0.50885 0.03209 0.13238 0.0
H3921 H 0.49993 0.03886 0.15694 0.0
C3922 C 0.7843 0.75044 0.93792 0.0
C3923 C 0.7744 0.73551 0.9382 0.0
C3924 C 0.785 0.75765 0.92374 0.0
C3925 C 0.7776 0.74815 0.88018 0.0
H3926 H 0.7792 0.79405 0.87984 0.0
C3927 C 0.77772 0.77835 0.82157 0.0
C3928 C 0.78671 0.79396 0.82224 0.0
C3929 C 0.77528 0.77132 0.83558 0.0
C3930 C 0.77897 0.78126 0.87971 0.0
H3931 H 0.75753 0.71641 0.92373 0.0
H3932 H 0.75881 0.72898 0.89896 0.0
H3933 H 0.777 0.78167 0.90449 0.0
H3934 H 0.80009 0.8145 0.83809 0.0
H3935 H 0.79626 0.80216 0.86246 0.0
H3936 H 0.77998 0.74773 0.85556 0.0
C3937 C 0.76601 0.73511 0.90973 0.0
C3938 C 0.77765 0.77415 0.89387 0.0
C3939 C 0.76519 0.72798 0.92395 0.0
C3940 C 0.79307 0.80246 0.83719 0.0
C3941 C 0.79076 0.7954 0.85119 0.0
C3942 C 0.77908 0.75528 0.86605 0.0
C3943 C 0.77593 0.75003 0.90945 0.0
C3944 C 0.77699 0.75752 0.89429 0.0
C3945 C 0.78189 0.77968 0.85062 0.0
C3946 C 0.77984 0.77196 0.8656 0.0
H3947 H 0.79147 0.75661 0.9487 0.0
H3948 H 0.79284 0.76908 0.92391 0.0
H3949 H 0.77731 0.73534 0.88014 0.0
H3950 H 0.77262 0.77152 0.81021 0.0
H3951 H 0.76816 0.75934 0.83459 0.0
C3952 C 0.84284 0.13671 0.00519 0.0
C3953 C 0.84276 0.14782 0.01827 0.0
C3954 C 0.85457 0.12858 0.00489 0.0
C3955 C 0.89388 0.13041 0.02294 0.0
H3956 H 0.88428 0.08467 0.00798 0.0
C3957 C 0.93966 0.09415 0.0146 0.0
C3958 C 0.93748 0.07865 0.01983 0.0
C3959 C 0.92823 0.1028 0.01394 0.0
C3960 C 0.88715 0.09742 0.01226 0.0
H3961 H 0.85515 0.15929 0.04116 0.0
H3962 H 0.87547 0.14493 0.04076 0.0
H3963 H 0.86419 0.09938 0.00793 0.0
H3964 H 0.92158 0.0603 0.02876 0.0
H3965 H 0.90169 0.07529 0.02746 0.0
H3966 H 0.91682 0.12835 0.02757 0.0
C3967 C 0.86651 0.14259 0.03067 0.0
C3968 C 0.87565 0.1059 0.01207 0.0
C3969 C 0.85476 0.15069 0.03098 0.0
C3970 C 0.92358 0.07205 0.02436 0.0
C3971 C 0.91216 0.08066 0.02364 0.0
C3972 C 0.9054 0.12193 0.02308 0.0
C3973 C 0.86653 0.13139 0.01765 0.0
C3974 C 0.87885 0.12248 0.01749 0.0
C3975 C 0.91434 0.09614 0.01844 0.0
C3976 C 0.90216 0.10531 0.01784 0.0
H3977 H 0.83371 0.13409 0.99526 0.0
H3978 H 0.8543 0.12016 0.99461 0.0
H3979 H 0.89676 0.1432 0.02704 0.0
H3980 H 0.95013 0.09953 0.01081 0.0
H3981 H 0.93021 0.11462 0.00969 0.0
C3982 C 0.37389 0.48099 0.04453 0.0
C3983 C 0.36998 0.46438 0.03916 0.0
C3984 C 0.38819 0.49018 0.04366 0.0
C3985 C 0.4211 0.48996 0.02293 0.0
H3986 H 0.44194 0.52271 0.0573 0.0
C3987 C 0.48395 0.52075 0.02737 0.0
C3988 C 0.4884 0.53729 0.0329 0.0
C3989 C 0.46927 0.51224 0.02761 0.0
C3990 C 0.43621 0.51376 0.04749 0.0
H3991 H 0.37831 0.44435 0.02916 0.0
H3992 H 0.40314 0.4603 0.0277 0.0
H3993 H 0.41694 0.50718 0.05901 0.0
H3994 H 0.48089 0.55797 0.04265 0.0
H3995 H 0.45524 0.54318 0.04293 0.0
H3996 H 0.4404 0.49647 0.01145 0.0
C3997 C 0.39508 0.46633 0.03226 0.0
C3998 C 0.42185 0.50484 0.04848 0.0
C3999 C 0.38081 0.45716 0.03312 0.0
C4000 C 0.4778 0.54521 0.03837 0.0
C4001 C 0.46313 0.53671 0.03863 0.0
C4002 C 0.43546 0.49887 0.02195 0.0
C4003 C 0.39895 0.48299 0.03742 0.0
C4004 C 0.41413 0.49276 0.03625 0.0
C4005 C 0.4587 0.52007 0.03339 0.0
C4006 C 0.44323 0.51085 0.03424 0.0
H4007 H 0.36579 0.48699 0.04907 0.0
H4008 H 0.39071 0.50301 0.04758 0.0
H4009 H 0.4154 0.48097 0.01315 0.0
H4010 H 0.49188 0.5143 0.02311 0.0
H4011 H 0.46632 0.49941 0.02363 0.0
C4012 C 0.37042 0.6192 0.74914 0.0
C4013 C 0.36289 0.60298 0.74486 0.0
C4014 C 0.36256 0.63087 0.75321 0.0
C4015 C 0.32622 0.63598 0.76453 0.0
H4016 H 0.33695 0.6775 0.74829 0.0
C4017 C 0.28796 0.68184 0.75897 0.0
C4018 C 0.29483 0.69814 0.76394 0.0
C4019 C 0.29662 0.6702 0.75845 0.0
C4020 C 0.33396 0.66602 0.75305 0.0
H4021 H 0.34122 0.58625 0.74184 0.0
H4022 H 0.32737 0.60675 0.74813 0.0
H4023 H 0.35147 0.65716 0.74384 0.0
H4024 H 0.31606 0.71489 0.77297 0.0
H4025 H 0.33118 0.69458 0.77162 0.0
H4026 H 0.30831 0.6448 0.7732 0.0
C4027 C 0.33943 0.61039 0.7487 0.0
C4028 C 0.34229 0.65439 0.75056 0.0
C4029 C 0.34732 0.59868 0.74483 0.0
C4030 C 0.31048 0.7025 0.76869 0.0
C4031 C 0.31913 0.69089 0.76803 0.0
C4032 C 0.31777 0.64758 0.76685 0.0
C4033 C 0.34695 0.62663 0.75285 0.0
C4034 C 0.33847 0.6392 0.75619 0.0
C4035 C 0.31228 0.67469 0.76278 0.0
C4036 C 0.32154 0.66265 0.76105 0.0
H4037 H 0.38238 0.62298 0.74912 0.0
H4038 H 0.36873 0.64323 0.75657 0.0
H4039 H 0.32315 0.6245 0.76924 0.0
H4040 H 0.27595 0.67814 0.75514 0.0
H4041 H 0.29113 0.65777 0.7542 0.0
C4042 C 0.19029 0.62417 0.49857 0.0
C4043 C 0.19902 0.63301 0.51255 0.0
C4044 C 0.17564 0.61553 0.49875 0.0
C4045 C 0.15071 0.59748 0.52606 0.0
H4046 H 0.11829 0.60102 0.49328 0.0
C4047 C 0.08897 0.57874 0.53427 0.0
C4048 C 0.07823 0.57112 0.52113 0.0
C4049 C 0.10375 0.58517 0.53237 0.0
C4050 C 0.12724 0.59969 0.5024 0.0
H4051 H 0.19892 0.63998 0.53756 0.0
H4052 H 0.17359 0.62478 0.53789 0.0
H4053 H 0.14411 0.61414 0.4914 0.0
H4054 H 0.0747 0.56425 0.49561 0.0
H4055 H 0.10061 0.57533 0.49235 0.0
H4056 H 0.13395 0.58312 0.53712 0.0
C4057 C 0.17815 0.62431 0.52685 0.0
C4058 C 0.14202 0.60722 0.50132 0.0
C4059 C 0.19271 0.633 0.52666 0.0
C4060 C 0.08266 0.57006 0.50601 0.0
C4061 C 0.09751 0.57649 0.50412 0.0
C4062 C 0.13597 0.5899 0.5271 0.0
C4063 C 0.16944 0.61547 0.51292 0.0
C4064 C 0.15388 0.60643 0.5133 0.0
C4065 C 0.10823 0.58411 0.51729 0.0
C4066 C 0.12401 0.59115 0.51544 0.0
H4067 H 0.19482 0.62379 0.48753 0.0
H4068 H 0.16923 0.60873 0.48785 0.0
H4069 H 0.15964 0.59639 0.53532 0.0
H4070 H 0.08599 0.5799 0.54609 0.0
H4071 H 0.11162 0.59123 0.54274 0.0
C4072 C 0.69567 0.92614 0.76577 0.0
C4073 C 0.68223 0.92148 0.77186 0.0
C4074 C 0.70779 0.91914 0.77029 0.0
C4075 C 0.72264 0.89482 0.80047 0.0
H4076 H 0.74489 0.88346 0.76747 0.0
C4077 C 0.75496 0.84388 0.80051 0.0
C4078 C 0.76802 0.84593 0.79342 0.0
C4079 C 0.74706 0.85619 0.80125 0.0
C4080 C 0.73901 0.88687 0.77692 0.0
H4081 H 0.67077 0.90592 0.78735 0.0
H4082 H 0.69179 0.89314 0.79482 0.0
H4083 H 0.72537 0.89834 0.76132 0.0
H4084 H 0.78384 0.86294 0.78292 0.0
H4085 H 0.76994 0.88442 0.78414 0.0
H4086 H 0.73588 0.88248 0.8158 0.0
C4087 C 0.69314 0.90252 0.7869 0.0
C4088 C 0.7278 0.89538 0.77339 0.0
C4089 C 0.68106 0.90969 0.78253 0.0
C4090 C 0.77375 0.86098 0.78835 0.0
C4091 C 0.76578 0.87325 0.78899 0.0
C4092 C 0.7338 0.88615 0.80396 0.0
C4093 C 0.70665 0.90719 0.78084 0.0
C4094 C 0.71931 0.89923 0.78504 0.0
C4095 C 0.75207 0.87069 0.79485 0.0
C4096 C 0.74191 0.8819 0.79213 0.0
H4097 H 0.69693 0.93548 0.75779 0.0
H4098 H 0.71811 0.92322 0.76562 0.0
H4099 H 0.7165 0.89788 0.8098 0.0
H4100 H 0.75035 0.83246 0.80466 0.0
H4101 H 0.73648 0.85387 0.80576 0.0
C4102 C 0.72806 0.97397 0.54115 0.0
C4103 C 0.72633 0.95789 0.53453 0.0
C4104 C 0.71568 0.98116 0.5409 0.0
C4105 C 0.67672 0.97777 0.52079 0.0
H4106 H 0.67355 0.00411 0.55883 0.0
C4107 C 0.62364 0.00298 0.52787 0.0
C4108 C 0.62597 0.0188 0.53545 0.0
C4109 C 0.63565 0.99523 0.52751 0.0
C4110 C 0.67433 0.99696 0.54803 0.0
H4111 H 0.71007 0.93681 0.5224 0.0
H4112 H 0.68852 0.94941 0.52186 0.0
H4113 H 0.69492 0.99143 0.55845 0.0
H4114 H 0.64282 0.03871 0.5488 0.0
H4115 H 0.66369 0.02545 0.54779 0.0
H4116 H 0.65614 0.9834 0.51035 0.0
C4117 C 0.69951 0.9565 0.52713 0.0
C4118 C 0.6866 0.98968 0.54782 0.0
C4119 C 0.71189 0.94928 0.52742 0.0
C4120 C 0.6406 0.02663 0.54265 0.0
C4121 C 0.65258 0.01891 0.54227 0.0
C4122 C 0.66444 0.98512 0.52099 0.0
C4123 C 0.70123 0.97249 0.53399 0.0
C4124 C 0.68801 0.98005 0.53418 0.0
C4125 C 0.65028 0.00309 0.53475 0.0
C4126 C 0.66312 0.99489 0.53459 0.0
H4127 H 0.73903 0.9811 0.54644 0.0
H4128 H 0.71746 0.99359 0.54604 0.0
H4129 H 0.67752 0.97058 0.51003 0.0
H4130 H 0.61256 0.99662 0.52208 0.0
H4131 H 0.63343 0.98299 0.52173 0.0
C4132 C 0.35468 0.45764 0.74952 0.0
C4133 C 0.36053 0.45949 0.73519 0.0
C4134 C 0.34557 0.44303 0.75184 0.0
C4135 C 0.31823 0.40868 0.73372 0.0
H4136 H 0.33349 0.38518 0.76717 0.0
C4137 C 0.28516 0.3464 0.74576 0.0
C4138 C 0.28637 0.34276 0.76158 0.0
C4139 C 0.29424 0.36034 0.74178 0.0
C4140 C 0.32891 0.39168 0.75796 0.0
H4141 H 0.36099 0.44734 0.71194 0.0
H4142 H 0.3444 0.42199 0.71587 0.0
H4143 H 0.34896 0.41036 0.76156 0.0
H4144 H 0.29759 0.35083 0.78572 0.0
H4145 H 0.31282 0.37558 0.77904 0.0
H4146 H 0.29788 0.3906 0.73057 0.0
C4147 C 0.34718 0.43193 0.72528 0.0
C4148 C 0.33786 0.406 0.75468 0.0
C4149 C 0.35658 0.44646 0.72305 0.0
C4150 C 0.29653 0.35338 0.77341 0.0
C4151 C 0.30537 0.36747 0.76952 0.0
C4152 C 0.30911 0.39452 0.73722 0.0
C4153 C 0.34181 0.43009 0.73978 0.0
C4154 C 0.33256 0.4146 0.74259 0.0
C4155 C 0.3045 0.37106 0.75361 0.0
C4156 C 0.3143 0.38588 0.74947 0.0
H4157 H 0.35707 0.46749 0.75898 0.0
H4158 H 0.34137 0.44184 0.76305 0.0
H4159 H 0.31395 0.41528 0.72441 0.0
H4160 H 0.27749 0.33825 0.73641 0.0
H4161 H 0.29341 0.36252 0.72939 0.0
C4162 C 0.19484 0.56885 0.25917 0.0
C4163 C 0.19206 0.56021 0.2722 0.0
C4164 C 0.20397 0.58433 0.26149 0.0
C4165 C 0.21738 0.61934 0.29167 0.0
H4166 H 0.24044 0.63506 0.25914 0.0
C4167 C 0.25192 0.68251 0.27048 0.0
C4168 C 0.24171 0.6922 0.2733 0.0
C4169 C 0.24906 0.66636 0.27356 0.0
C4170 C 0.23436 0.63089 0.26856 0.0
H4171 H 0.19693 0.56073 0.29785 0.0
H4172 H 0.21317 0.58786 0.30194 0.0
H4173 H 0.23031 0.6063 0.25851 0.0
H4174 H 0.22077 0.69286 0.28188 0.0
H4175 H 0.21546 0.66459 0.28673 0.0
H4176 H 0.22152 0.64396 0.30179 0.0
C4177 C 0.20809 0.58272 0.28994 0.0
C4178 C 0.22835 0.61439 0.26805 0.0
C4179 C 0.19883 0.56722 0.28761 0.0
C4180 C 0.22885 0.68565 0.27971 0.0
C4181 C 0.22589 0.66946 0.28259 0.0
C4182 C 0.22356 0.63585 0.2923 0.0
C4183 C 0.21064 0.59151 0.27689 0.0
C4184 C 0.21928 0.6085 0.27921 0.0
C4185 C 0.23583 0.65954 0.27929 0.0
C4186 C 0.23163 0.64189 0.2804 0.0
H4187 H 0.18954 0.56386 0.24719 0.0
H4188 H 0.20535 0.59088 0.2512 0.0
H4189 H 0.21044 0.61523 0.30046 0.0
H4190 H 0.26204 0.6874 0.26577 0.0
H4191 H 0.25709 0.65915 0.27116 0.0
C4192 C 0.51143 0.71209 0.46945 0.0
C4193 C 0.51463 0.71326 0.45388 0.0
C4194 C 0.51282 0.69834 0.4771 0.0
C4195 C 0.53075 0.6629 0.47495 0.0
H4196 H 0.50307 0.64635 0.5032 0.0
C4197 C 0.53987 0.61023 0.51094 0.0
C4198 C 0.52717 0.59836 0.51238 0.0
C4199 C 0.53831 0.62477 0.50499 0.0
C4200 C 0.51084 0.65072 0.49526 0.0
H4201 H 0.52132 0.70065 0.43395 0.0
H4202 H 0.52348 0.67662 0.44708 0.0
H4203 H 0.50002 0.67013 0.48993 0.0
H4204 H 0.50283 0.5927 0.50905 0.0
H4205 H 0.50008 0.61789 0.49833 0.0
H4206 H 0.54121 0.6432 0.47971 0.0
C4207 C 0.5203 0.68648 0.45363 0.0
C4208 C 0.50921 0.66452 0.48779 0.0
C4209 C 0.51903 0.70026 0.44605 0.0
C4210 C 0.51286 0.6016 0.50817 0.0
C4211 C 0.51129 0.61611 0.50206 0.0
C4212 C 0.53231 0.64908 0.48231 0.0
C4213 C 0.51734 0.68536 0.46931 0.0
C4214 C 0.51912 0.67077 0.47749 0.0
C4215 C 0.524 0.6278 0.50015 0.0
C4216 C 0.52239 0.64276 0.49258 0.0
H4217 H 0.50816 0.72196 0.47588 0.0
H4218 H 0.51064 0.69804 0.48924 0.0
H4219 H 0.53876 0.66745 0.46732 0.0
H4220 H 0.55107 0.60822 0.51421 0.0
H4221 H 0.54838 0.63361 0.50409 0.0
C4222 C 0.63705 0.33057 0.70985 0.0
C4223 C 0.63035 0.31869 0.69706 0.0
C4224 C 0.65102 0.33031 0.71856 0.0
C4225 C 0.67688 0.30324 0.72839 0.0
H4226 H 0.70673 0.3433 0.73997 0.0
C4227 C 0.73848 0.305 0.75614 0.0
C4228 C 0.74575 0.31803 0.76754 0.0
C4229 C 0.72416 0.30465 0.74785 0.0
C4230 C 0.69847 0.33201 0.73706 0.0
H4231 H 0.63341 0.29738 0.68326 0.0
H4232 H 0.65763 0.29686 0.69855 0.0
H4233 H 0.68234 0.34366 0.72503 0.0
H4234 H 0.74369 0.34067 0.77955 0.0
H4235 H 0.71862 0.33988 0.76552 0.0
H4236 H 0.69296 0.2916 0.74053 0.0
C4237 C 0.65196 0.30626 0.70197 0.0
C4238 C 0.68447 0.33223 0.72845 0.0
C4239 C 0.63804 0.30656 0.69321 0.0
C4240 C 0.73835 0.3305 0.77077 0.0
C4241 C 0.72402 0.3301 0.76261 0.0
C4242 C 0.69087 0.30303 0.7371 0.0
C4243 C 0.65863 0.31813 0.71475 0.0
C4244 C 0.6735 0.31786 0.724 0.0
C4245 C 0.71681 0.3173 0.75086 0.0
C4246 C 0.70186 0.31742 0.74158 0.0
H4247 H 0.63139 0.33995 0.71333 0.0
H4248 H 0.65575 0.33953 0.72846 0.0
H4249 H 0.66861 0.29197 0.72531 0.0
H4250 H 0.74403 0.29534 0.75326 0.0
H4251 H 0.71907 0.2947 0.73877 0.0
C4252 C 0.01078 0.3799 0.94918 0.0
C4253 C 0.01956 0.37001 0.95654 0.0
C4254 C 0.01091 0.39523 0.95649 0.0
C4255 C 0.03447 0.42816 0.98463 0.0
H4256 H 0.99762 0.44321 0.98584 0.0
C4257 C 0.035 0.49088 0.01603 0.0
C4258 C 0.02495 0.49973 0.00909 0.0
C4259 C 0.03385 0.47471 0.01045 0.0
C4260 C 0.00804 0.43931 0.98542 0.0
H4261 H 0.03528 0.36838 0.97739 0.0
H4262 H 0.03564 0.39534 0.99015 0.0
H4263 H 0.99651 0.41561 0.97465 0.0
H4264 H 0.00577 0.49847 0.99084 0.0
H4265 H 0.00405 0.47042 0.98072 0.0
H4266 H 0.0461 0.4519 0.99487 0.0
C4267 C 0.02865 0.39117 0.97871 0.0
C4268 C 0.00738 0.42345 0.97908 0.0
C4269 C 0.02837 0.37572 0.97147 0.0
C4270 C 0.01365 0.49197 0.9965 0.0
C4271 C 0.01262 0.47583 0.99077 0.0
C4272 C 0.03516 0.44407 0.9908 0.0
C4273 C 0.01995 0.4011 0.97126 0.0
C4274 C 0.02059 0.41772 0.97858 0.0
C4275 C 0.02275 0.46698 0.99762 0.0
C4276 C 0.02195 0.4499 0.99126 0.0
H4277 H 0.00375 0.37576 0.93775 0.0
H4278 H 0.00418 0.40264 0.95041 0.0
H4279 H 0.04485 0.42417 0.98418 0.0
H4280 H 0.04374 0.49642 0.02588 0.0
H4281 H 0.04165 0.46826 0.01629 0.0
C4282 C 0.97187 0.8157 0.17845 0.0
C4283 C 0.98459 0.81206 0.18731 0.0
C4284 C 0.95875 0.81548 0.18506 0.0
C4285 C 0.93852 0.79904 0.2168 0.0
H4286 H 0.91756 0.83379 0.21059 0.0
C4287 C 0.8806 0.79826 0.23654 0.0
C4288 C 0.87862 0.81285 0.24403 0.0
C4289 C 0.89327 0.79786 0.22926 0.0
C4290 C 0.92331 0.82403 0.2125 0.0
H4291 H 0.99336 0.80543 0.21022 0.0
H4292 H 0.97042 0.80481 0.2216 0.0
H4293 H 0.94023 0.83369 0.19882 0.0
H4294 H 0.88867 0.83843 0.24988 0.0
H4295 H 0.91061 0.83774 0.23708 0.0
H4296 H 0.9217 0.7895 0.23066 0.0
C4297 C 0.97059 0.80772 0.20948 0.0
C4298 C 0.93622 0.82388 0.20561 0.0
C4299 C 0.98376 0.80806 0.20292 0.0
C4300 C 0.88963 0.82703 0.24397 0.0
C4301 C 0.90225 0.82664 0.23665 0.0
C4302 C 0.92554 0.79913 0.22361 0.0
C4303 C 0.95795 0.81149 0.20065 0.0
C4304 C 0.94403 0.81144 0.20774 0.0
C4305 C 0.90426 0.81205 0.22923 0.0
C4306 C 0.91782 0.81168 0.22162 0.0
H4307 H 0.97192 0.81852 0.16629 0.0
H4308 H 0.94914 0.81822 0.17785 0.0
H4309 H 0.94419 0.78919 0.21855 0.0
H4310 H 0.87226 0.78715 0.23614 0.0
H4311 H 0.89437 0.78646 0.22347 0.0
C4312 C 0.53881 0.38674 0.08224 0.0
C4313 C 0.54816 0.38661 0.0967 0.0
C4314 C 0.53783 0.40132 0.07598 0.0
C4315 C 0.55729 0.44481 0.07896 0.0
H4316 H 0.51859 0.44956 0.05801 0.0
C4317 C 0.54645 0.50621 0.05982 0.0
C4318 C 0.53751 0.50575 0.04495 0.0
C4319 C 0.54804 0.49185 0.06628 0.0
C4320 C 0.52952 0.4484 0.06368 0.0
H4321 H 0.56374 0.40188 0.11597 0.0
H4322 H 0.56193 0.42727 0.10518 0.0
H4323 H 0.52084 0.42436 0.06885 0.0
H4324 H 0.52331 0.48972 0.02522 0.0
H4325 H 0.52612 0.46484 0.03641 0.0
H4326 H 0.56591 0.46897 0.07386 0.0
C4327 C 0.55556 0.41607 0.09847 0.0
C4328 C 0.53083 0.43389 0.06989 0.0
C4329 C 0.5566 0.40147 0.10468 0.0
C4330 C 0.53026 0.49059 0.03671 0.0
C4331 C 0.53179 0.47627 0.04319 0.0
C4332 C 0.55596 0.45936 0.0728 0.0
C4333 C 0.54611 0.41623 0.08406 0.0
C4334 C 0.54474 0.43183 0.07756 0.0
C4335 C 0.54066 0.47668 0.05808 0.0
C4336 C 0.54207 0.46133 0.06499 0.0
H4337 H 0.53232 0.37553 0.07565 0.0
H4338 H 0.53066 0.40087 0.06471 0.0
H4339 H 0.56824 0.44364 0.08457 0.0
H4340 H 0.55218 0.51766 0.06653 0.0
H4341 H 0.55484 0.49265 0.07784 0.0
C4342 C 0.93948 0.27812 0.34355 0.0
C4343 C 0.94195 0.28214 0.36018 0.0
C4344 C 0.92561 0.2781 0.33446 0.0
C4345 C 0.88566 0.27496 0.33705 0.0
H4346 H 0.88482 0.29854 0.29989 0.0
C4347 C 0.84104 0.30481 0.29668 0.0
C4348 C 0.82852 0.29177 0.29315 0.0
C4349 C 0.85502 0.30242 0.30341 0.0
C4350 C 0.8849 0.29187 0.31021 0.0
H4351 H 0.93157 0.28945 0.38013 0.0
H4352 H 0.90737 0.28887 0.36435 0.0
H4353 H 0.90895 0.29639 0.31466 0.0
H4354 H 0.82095 0.26592 0.29371 0.0
H4355 H 0.84538 0.26182 0.30567 0.0
H4356 H 0.86164 0.2706 0.33275 0.0
C4357 C 0.91618 0.28567 0.35839 0.0
C4358 C 0.89868 0.29055 0.31859 0.0
C4359 C 0.93008 0.28591 0.36745 0.0
C4360 C 0.83036 0.27622 0.29624 0.0
C4361 C 0.84432 0.27388 0.30318 0.0
C4362 C 0.87188 0.27609 0.32856 0.0
C4363 C 0.91383 0.28188 0.3418 0.0
C4364 C 0.89921 0.28228 0.33223 0.0
C4365 C 0.85676 0.28697 0.30694 0.0
C4366 C 0.87136 0.28475 0.31518 0.0
H4367 H 0.94822 0.27489 0.33751 0.0
H4368 H 0.92406 0.275 0.32169 0.0
H4369 H 0.88574 0.26842 0.34747 0.0
H4370 H 0.84002 0.31693 0.29441 0.0
H4371 H 0.86437 0.31276 0.3063 0.0
C4372 C 0.05024 0.72347 0.58517 0.0
C4373 C 0.04091 0.72625 0.59637 0.0
C4374 C 0.04948 0.70782 0.57813 0.0
C4375 C 0.03589 0.66416 0.58264 0.0
H4376 H 0.03931 0.65856 0.53788 0.0
C4377 C 0.03836 0.60217 0.54957 0.0
C4378 C 0.03065 0.59847 0.53389 0.0
C4379 C 0.03989 0.61756 0.55777 0.0
C4380 C 0.03822 0.65984 0.55037 0.0
H4381 H 0.02361 0.71445 0.60908 0.0
H4382 H 0.02199 0.68727 0.59649 0.0
H4383 H 0.04112 0.6855 0.55088 0.0
H4384 H 0.01838 0.60787 0.51459 0.0
H4385 H 0.0208 0.63442 0.52882 0.0
H4386 H 0.03257 0.63836 0.58194 0.0
C4387 C 0.03005 0.6972 0.59329 0.0
C4388 C 0.03946 0.67538 0.55791 0.0
C4389 C 0.03083 0.71287 0.60035 0.0
C4390 C 0.02444 0.61037 0.52664 0.0
C4391 C 0.02593 0.62567 0.53479 0.0
C4392 C 0.03463 0.64857 0.57508 0.0
C4393 C 0.03934 0.69445 0.58203 0.0
C4394 C 0.03826 0.67779 0.57414 0.0
C4395 C 0.03378 0.62957 0.55043 0.0
C4396 C 0.03566 0.64618 0.55879 0.0
H4397 H 0.05805 0.73343 0.58166 0.0
H4398 H 0.05695 0.7062 0.56968 0.0
H4399 H 0.03508 0.66553 0.5952 0.0
H4400 H 0.04349 0.59333 0.55534 0.0
H4401 H 0.04615 0.62016 0.56972 0.0
C4402 C 0.58323 0.78797 0.85214 0.0
C4403 C 0.58496 0.79634 0.86742 0.0
C4404 C 0.59568 0.78737 0.8446 0.0
C4405 C 0.6348 0.80805 0.84391 0.0
H4406 H 0.63833 0.76649 0.82455 0.0
C4407 C 0.68893 0.79894 0.82041 0.0
C4408 C 0.68741 0.78815 0.80662 0.0
C4409 C 0.67645 0.80025 0.82772 0.0
C4410 C 0.63745 0.77825 0.82966 0.0
H4411 H 0.60138 0.81074 0.88662 0.0
H4412 H 0.62301 0.81001 0.87325 0.0
H4413 H 0.6165 0.76843 0.83715 0.0
H4414 H 0.67141 0.7702 0.78981 0.0
H4415 H 0.64969 0.77295 0.80212 0.0
H4416 H 0.6556 0.81796 0.83622 0.0
C4417 C 0.61195 0.80393 0.86714 0.0
C4418 C 0.62493 0.77934 0.83694 0.0
C4419 C 0.59951 0.80439 0.87478 0.0
C4420 C 0.67304 0.77881 0.80028 0.0
C4421 C 0.66057 0.7802 0.80751 0.0
C4422 C 0.64726 0.807 0.83649 0.0
C4423 C 0.6102 0.79528 0.85203 0.0
C4424 C 0.62347 0.79424 0.84417 0.0
C4425 C 0.66209 0.79087 0.8214 0.0
C4426 C 0.64878 0.79207 0.82927 0.0
H4427 H 0.57221 0.78192 0.84591 0.0
H4428 H 0.59394 0.78081 0.83285 0.0
H4429 H 0.63391 0.81973 0.84924 0.0
H4430 H 0.69976 0.80649 0.82554 0.0
H4431 H 0.67814 0.80847 0.83849 0.0
C4432 C 0.46386 0.56719 0.66164 0.0
C4433 C 0.45326 0.55238 0.65958 0.0
C4434 C 0.47514 0.5698 0.65215 0.0
C4435 C 0.49621 0.54783 0.62854 0.0
H4436 H 0.50278 0.58541 0.60518 0.0
C4437 C 0.52023 0.54695 0.57113 0.0
C4438 C 0.53046 0.56048 0.56783 0.0
C4439 C 0.51343 0.54762 0.58462 0.0
C4440 C 0.50133 0.57506 0.61192 0.0
H4441 H 0.44593 0.52892 0.64561 0.0
H4442 H 0.46578 0.53342 0.62924 0.0
H4443 H 0.48523 0.58345 0.62442 0.0
H4444 H 0.54176 0.5853 0.57601 0.0
H4445 H 0.52959 0.58654 0.59991 0.0
H4446 H 0.51193 0.53919 0.61583 0.0
C4447 C 0.46541 0.54291 0.63832 0.0
C4448 C 0.49126 0.57391 0.62285 0.0
C4449 C 0.45406 0.54035 0.64768 0.0
C4450 C 0.53391 0.57471 0.57837 0.0
C4451 C 0.52695 0.57543 0.59195 0.0
C4452 C 0.50631 0.54903 0.61774 0.0
C4453 C 0.47612 0.55759 0.64058 0.0
C4454 C 0.48824 0.56 0.63079 0.0
C4455 C 0.51666 0.56183 0.59516 0.0
C4456 C 0.50852 0.56234 0.60889 0.0
H4457 H 0.46374 0.5766 0.6709 0.0
H4458 H 0.48332 0.58119 0.65414 0.0
H4459 H 0.4943 0.53716 0.6348 0.0
H4460 H 0.51735 0.5358 0.5632 0.0
H4461 H 0.50531 0.53706 0.58659 0.0
C4462 C 0.7916 0.24274 0.94029 0.0
C4463 C 0.77811 0.23545 0.94522 0.0
C4464 C 0.79143 0.24921 0.92568 0.0
C4465 C 0.7701 0.24499 0.88593 0.0
H4466 H 0.79078 0.28916 0.88381 0.0
C4467 C 0.76668 0.27394 0.82662 0.0
C4468 C 0.77926 0.28533 0.82399 0.0
C4469 C 0.76611 0.26814 0.84151 0.0
C4470 C 0.78516 0.2767 0.88407 0.0
H4471 H 0.75391 0.22898 0.93872 0.0
H4472 H 0.75365 0.23991 0.91291 0.0
H4473 H 0.79097 0.27837 0.90947 0.0
H4474 H 0.80127 0.29926 0.83484 0.0
H4475 H 0.80061 0.28871 0.86044 0.0
H4476 H 0.76478 0.24294 0.86057 0.0
C4477 C 0.76431 0.24079 0.92046 0.0
C4478 C 0.7852 0.27058 0.89883 0.0
C4479 C 0.76445 0.23464 0.93523 0.0
C4480 C 0.79131 0.29066 0.83653 0.0
C4481 C 0.79087 0.28465 0.8513 0.0
C4482 C 0.7703 0.25098 0.87111 0.0
C4483 C 0.77779 0.24818 0.91557 0.0
C4484 C 0.77766 0.25468 0.89991 0.0
C4485 C 0.77824 0.27334 0.85407 0.0
C4486 C 0.77784 0.26695 0.86993 0.0
H4487 H 0.80226 0.24354 0.9478 0.0
H4488 H 0.80198 0.25478 0.92214 0.0
H4489 H 0.76431 0.23262 0.88643 0.0
H4490 H 0.75717 0.26964 0.81722 0.0
H4491 H 0.75606 0.2597 0.84316 0.0
C4492 C 0.07955 0.48462 0.16885 0.0
C4493 C 0.09536 0.48765 0.17124 0.0
C4494 C 0.0717 0.48946 0.15555 0.0
C4495 C 0.07412 0.52085 0.13043 0.0
H4496 H 0.04481 0.49155 0.09865 0.0
C4497 C 0.04652 0.5433 0.07428 0.0
C4498 C 0.03189 0.53537 0.06741 0.0
C4499 C 0.05415 0.53727 0.08693 0.0
C4500 C 0.05273 0.49997 0.10757 0.0
H4501 H 0.11516 0.4975 0.16094 0.0
H4502 H 0.10137 0.50667 0.13818 0.0
H4503 H 0.05825 0.4808 0.12057 0.0
H4504 H 0.01335 0.51549 0.06886 0.0
H4505 H 0.02624 0.50549 0.09159 0.0
H4506 H 0.06827 0.54012 0.11813 0.0
C4507 C 0.09519 0.50044 0.14665 0.0
C4508 C 0.0605 0.49375 0.12 0.0
C4509 C 0.10304 0.49528 0.15974 0.0
C4510 C 0.02472 0.52173 0.07385 0.0
C4511 C 0.0322 0.5159 0.08677 0.0
C4512 C 0.06612 0.52713 0.11824 0.0
C4513 C 0.0795 0.4977 0.14458 0.0
C4514 C 0.07131 0.50415 0.13142 0.0
C4515 C 0.04712 0.52342 0.09331 0.0
C4516 C 0.05538 0.51677 0.10656 0.0
H4517 H 0.07322 0.47907 0.17754 0.0
H4518 H 0.05957 0.48735 0.15417 0.0
H4519 H 0.08232 0.52907 0.13929 0.0
H4520 H 0.05225 0.55396 0.06963 0.0
H4521 H 0.06567 0.54329 0.09142 0.0
C4522 C 0.79337 0.874 0.44713 0.0
C4523 C 0.78385 0.86594 0.45691 0.0
C4524 C 0.79351 0.86716 0.43173 0.0
C4525 C 0.77023 0.83932 0.39871 0.0
H4526 H 0.80793 0.83954 0.38331 0.0
C4527 C 0.77212 0.81083 0.33527 0.0
C4528 C 0.78343 0.8184 0.32711 0.0
C4529 C 0.77225 0.81575 0.35135 0.0
C4530 C 0.79728 0.83958 0.38729 0.0
H4531 H 0.76708 0.84432 0.45824 0.0
H4532 H 0.76716 0.8324 0.43111 0.0
H4533 H 0.80806 0.84962 0.41087 0.0
H4534 H 0.80365 0.83725 0.32945 0.0
H4535 H 0.80362 0.84619 0.35723 0.0
H4536 H 0.7594 0.82982 0.37508 0.0
C4537 C 0.77453 0.84403 0.43544 0.0
C4538 C 0.79737 0.84528 0.40315 0.0
C4539 C 0.77455 0.85078 0.45098 0.0
C4540 C 0.79482 0.83106 0.33539 0.0
C4541 C 0.79485 0.83612 0.35141 0.0
C4542 C 0.77012 0.83381 0.38278 0.0
C4543 C 0.78401 0.85216 0.42565 0.0
C4544 C 0.78386 0.84531 0.40902 0.0
C4545 C 0.7836 0.8285 0.35967 0.0
C4546 C 0.78366 0.83394 0.3768 0.0
H4547 H 0.80076 0.88563 0.45142 0.0
H4548 H 0.80085 0.87378 0.42445 0.0
H4549 H 0.75963 0.83936 0.40284 0.0
H4550 H 0.76323 0.80094 0.32929 0.0
H4551 H 0.76352 0.80937 0.35729 0.0
C4552 C 0.46599 0.57157 0.81292 0.0
C4553 C 0.47109 0.57005 0.7982 0.0
C4554 C 0.47602 0.57418 0.82711 0.0
C4555 C 0.51022 0.56342 0.84331 0.0
H4556 H 0.50453 0.58807 0.88131 0.0
C4557 C 0.51442 0.54097 0.90446 0.0
C4558 C 0.51974 0.55196 0.91821 0.0
C4559 C 0.51348 0.54641 0.88944 0.0
C4560 C 0.50657 0.58139 0.8708 0.0
H4561 H 0.49096 0.5711 0.78691 0.0
H4562 H 0.50848 0.57513 0.81189 0.0
H4563 H 0.49343 0.59353 0.85522 0.0
H4564 H 0.52917 0.57718 0.9269 0.0
H4565 H 0.52715 0.58674 0.90056 0.0
H4566 H 0.52268 0.55067 0.85894 0.0
C4567 C 0.49666 0.57433 0.8123 0.0
C4568 C 0.50013 0.58444 0.85588 0.0
C4569 C 0.48661 0.5719 0.79804 0.0
C4570 C 0.52472 0.56845 0.91655 0.0
C4571 C 0.52368 0.57392 0.90149 0.0
C4572 C 0.51663 0.56032 0.85823 0.0
C4573 C 0.4914 0.57518 0.82696 0.0
C4574 C 0.50133 0.57498 0.84207 0.0
C4575 C 0.51776 0.56298 0.88783 0.0
C4576 C 0.51428 0.56879 0.87213 0.0
H4577 H 0.45413 0.5699 0.81359 0.0
H4578 H 0.47159 0.57445 0.83823 0.0
H4579 H 0.51128 0.5559 0.83286 0.0
H4580 H 0.51028 0.52823 0.9053 0.0
H4581 H 0.5086 0.53773 0.87914 0.0
C4582 C 0.77199 0.24503 0.1077 0.0
C4583 C 0.78221 0.23569 0.10381 0.0
C4584 C 0.77261 0.25158 0.12341 0.0
C4585 C 0.78717 0.24736 0.16532 0.0
H4586 H 0.78219 0.29134 0.173 0.0
C4587 C 0.78417 0.27739 0.22824 0.0
C4588 C 0.79162 0.29369 0.23196 0.0
C4589 C 0.78272 0.2697 0.21276 0.0
C4590 C 0.78369 0.27907 0.17109 0.0
H4591 H 0.80094 0.22572 0.11354 0.0
H4592 H 0.80219 0.23737 0.14086 0.0
H4593 H 0.78035 0.27925 0.14579 0.0
H4594 H 0.80373 0.31459 0.22255 0.0
H4595 H 0.80144 0.30122 0.19578 0.0
H4596 H 0.79085 0.24735 0.19069 0.0
C4597 C 0.7936 0.23952 0.13178 0.0
C4598 C 0.78245 0.27206 0.15545 0.0
C4599 C 0.79302 0.23302 0.11606 0.0
C4600 C 0.79786 0.30203 0.22003 0.0
C4601 C 0.79643 0.29439 0.20464 0.0
C4602 C 0.78837 0.25437 0.18099 0.0
C4603 C 0.78343 0.24892 0.13566 0.0
C4604 C 0.78428 0.25615 0.15235 0.0
C4605 C 0.78869 0.27819 0.20072 0.0
C4606 C 0.7868 0.27038 0.18408 0.0
H4607 H 0.76358 0.24743 0.09856 0.0
H4608 H 0.7645 0.25863 0.12598 0.0
H4609 H 0.78845 0.23501 0.16336 0.0
H4610 H 0.77921 0.2707 0.23716 0.0
H4611 H 0.77661 0.25724 0.21014 0.0
C4612 C 0.10057 0.49939 0.33171 0.0
C4613 C 0.09001 0.49282 0.31811 0.0
C4614 C 0.09645 0.50801 0.34433 0.0
C4615 C 0.06744 0.53019 0.35312 0.0
H4616 H 0.08267 0.52643 0.39704 0.0
C4617 C 0.03938 0.54427 0.40683 0.0
C4618 C 0.04852 0.55143 0.42122 0.0
C4619 C 0.04577 0.54083 0.39345 0.0
C4620 C 0.07858 0.52785 0.38482 0.0
H4621 H 0.06676 0.48939 0.30725 0.0
H4622 H 0.05936 0.50396 0.32955 0.0
H4623 H 0.09078 0.51132 0.37569 0.0
H4624 H 0.07147 0.56213 0.43232 0.0
H4625 H 0.08265 0.55549 0.40899 0.0
H4626 H 0.05466 0.54612 0.3624 0.0
C4627 C 0.07094 0.50291 0.33028 0.0
C4628 C 0.08317 0.51916 0.37259 0.0
C4629 C 0.07511 0.49442 0.3176 0.0
C4630 C 0.06413 0.55622 0.42154 0.0
C4631 C 0.07054 0.55252 0.4082 0.0
C4632 C 0.06272 0.53873 0.36536 0.0
C4633 C 0.08165 0.51011 0.34362 0.0
C4634 C 0.07743 0.52 0.35661 0.0
C4635 C 0.06142 0.5443 0.39425 0.0
C4636 C 0.06807 0.53742 0.3813 0.0
H4637 H 0.11221 0.49858 0.33227 0.0
H4638 H 0.105 0.51352 0.35435 0.0
H4639 H 0.06311 0.53142 0.34092 0.0
H4640 H 0.02735 0.54022 0.40614 0.0
H4641 H 0.03851 0.53436 0.38284 0.0
C4642 C 0.80002 0.86013 0.62064 0.0
C4643 C 0.78937 0.86894 0.61502 0.0
C4644 C 0.79949 0.85339 0.6351 0.0
C4645 C 0.78401 0.85654 0.67299 0.0
H4646 H 0.79156 0.81361 0.67633 0.0
C4647 C 0.78659 0.82858 0.73287 0.0
C4648 C 0.77946 0.81222 0.73236 0.0
C4649 C 0.78875 0.83558 0.71879 0.0
C4650 C 0.78934 0.82558 0.6756 0.0
H4651 H 0.76997 0.87777 0.62053 0.0
H4652 H 0.76888 0.8658 0.64548 0.0
H4653 H 0.79313 0.82559 0.65137 0.0
H4654 H 0.76931 0.79028 0.7167 0.0
H4655 H 0.77293 0.80247 0.69215 0.0
H4656 H 0.77984 0.85639 0.69706 0.0
C4657 C 0.77774 0.86419 0.63878 0.0
C4658 C 0.79042 0.83254 0.66131 0.0
C4659 C 0.77825 0.8709 0.62433 0.0
C4660 C 0.77483 0.80292 0.71749 0.0
C4661 C 0.777 0.80991 0.7034 0.0
C4662 C 0.78296 0.8496 0.68727 0.0
C4663 C 0.78834 0.85533 0.64438 0.0
C4664 C 0.78767 0.84808 0.65977 0.0
C4665 C 0.78386 0.82638 0.70384 0.0
C4666 C 0.78552 0.83398 0.68876 0.0
H4667 H 0.80868 0.85826 0.61376 0.0
H4668 H 0.80794 0.84678 0.63908 0.0
H4669 H 0.78199 0.8686 0.67233 0.0
H4670 H 0.79035 0.83605 0.74416 0.0
H4671 H 0.79427 0.84823 0.71962 0.0
C4672 C 0.72322 0.47015 0.53973 0.0
C4673 C 0.7216 0.45495 0.53105 0.0
C4674 C 0.71112 0.4778 0.53938 0.0
C4675 C 0.67506 0.47896 0.51519 0.0
H4676 H 0.66707 0.49999 0.55407 0.0
C4677 C 0.62204 0.50505 0.51659 0.0
C4678 C 0.62357 0.51982 0.52597 0.0
C4679 C 0.63376 0.49683 0.51755 0.0
C4680 C 0.66924 0.49435 0.54306 0.0
H4681 H 0.70573 0.4358 0.51543 0.0
H4682 H 0.68476 0.44927 0.51462 0.0
H4683 H 0.68802 0.48641 0.55503 0.0
H4684 H 0.63871 0.53755 0.54366 0.0
H4685 H 0.6592 0.52333 0.54522 0.0
H4686 H 0.65647 0.48706 0.50315 0.0
C4687 C 0.69546 0.45533 0.52158 0.0
C4688 C 0.68124 0.48654 0.54363 0.0
C4689 C 0.70753 0.44762 0.52202 0.0
C4690 C 0.63707 0.52609 0.53643 0.0
C4691 C 0.64883 0.51791 0.53733 0.0
C4692 C 0.66312 0.48684 0.5146 0.0
C4693 C 0.69711 0.4705 0.53026 0.0
C4694 C 0.6843 0.47875 0.5297 0.0
C4695 C 0.64737 0.50319 0.52785 0.0
C4696 C 0.66003 0.49465 0.52853 0.0
H4697 H 0.73392 0.47631 0.5466 0.0
H4698 H 0.71281 0.48959 0.54602 0.0
H4699 H 0.67724 0.47327 0.50421 0.0
H4700 H 0.6117 0.49976 0.50859 0.0
H4701 H 0.6321 0.48538 0.51029 0.0
C4702 C 0.18633 0.13875 0.52599 0.0
C4703 C 0.19271 0.138 0.5119 0.0
C4704 C 0.17178 0.13006 0.52651 0.0
C4705 C 0.13565 0.11396 0.50193 0.0
H4706 H 0.12757 0.08466 0.5339 0.0
C4707 C 0.07706 0.073 0.49865 0.0
C4708 C 0.07174 0.06883 0.51275 0.0
C4709 C 0.09191 0.08113 0.49896 0.0
C4710 C 0.12951 0.09299 0.52504 0.0
H4711 H 0.18847 0.12714 0.48733 0.0
H4712 H 0.16287 0.11267 0.48813 0.0
H4713 H 0.15319 0.09964 0.53379 0.0
H4714 H 0.07778 0.06994 0.5383 0.0
H4715 H 0.10358 0.08494 0.53905 0.0
H4716 H 0.1121 0.10808 0.49351 0.0
C4717 C 0.16931 0.11994 0.49878 0.0
C4718 C 0.14424 0.10148 0.52494 0.0
C4719 C 0.18397 0.12836 0.49832 0.0
C4720 C 0.08161 0.07297 0.52724 0.0
C4721 C 0.09645 0.08147 0.52761 0.0
C4722 C 0.1209 0.10577 0.50222 0.0
C4723 C 0.16309 0.12068 0.51288 0.0
C4724 C 0.14746 0.1119 0.51327 0.0
C4725 C 0.10182 0.08573 0.51345 0.0
C4726 C 0.11759 0.09497 0.51364 0.0
H4727 H 0.19245 0.14628 0.53662 0.0
H4728 H 0.16718 0.13098 0.53749 0.0
H4729 H 0.1378 0.12211 0.49295 0.0
H4730 H 0.06975 0.06982 0.48727 0.0
H4731 H 0.09559 0.08366 0.48772 0.0
C4732 C 0.19075 0.97836 0.81051 0.0
C4733 C 0.19739 0.99411 0.80779 0.0
C4734 C 0.19751 0.96554 0.80698 0.0
C4735 C 0.22677 0.95419 0.78529 0.0
H4736 H 0.22869 0.92374 0.81672 0.0
C4737 C 0.27137 0.91594 0.79234 0.0
C4738 C 0.26627 0.89938 0.7935 0.0
C4739 C 0.26157 0.92641 0.7927 0.0
C4740 C 0.22807 0.93204 0.80776 0.0
H4741 H 0.21612 0.00891 0.79923 0.0
H4742 H 0.22818 0.98666 0.79348 0.0
H4743 H 0.21377 0.94406 0.81959 0.0
H4744 H 0.2468 0.8808 0.79574 0.0
H4745 H 0.22986 0.8993 0.79697 0.0
H4746 H 0.24167 0.94253 0.77391 0.0
C4747 C 0.21757 0.98406 0.79791 0.0
C4748 C 0.21949 0.94363 0.80934 0.0
C4749 C 0.21074 0.99683 0.80129 0.0
C4750 C 0.25118 0.89355 0.79517 0.0
C4751 C 0.24144 0.90407 0.79574 0.0
C4752 C 0.23549 0.94273 0.78383 0.0
C4753 C 0.2111 0.96829 0.80084 0.0
C4754 C 0.21896 0.95501 0.79827 0.0
C4755 C 0.24656 0.92055 0.79441 0.0
C4756 C 0.23638 0.93175 0.7952 0.0
H4757 H 0.18032 0.97596 0.81531 0.0
H4758 H 0.19212 0.9535 0.80913 0.0
H4759 H 0.22633 0.96257 0.77638 0.0
H4760 H 0.28296 0.92085 0.79127 0.0
H4761 H 0.26579 0.93915 0.79189 0.0
C4762 C 0.37302 0.96784 0.0257 0.0
C4763 C 0.36617 0.96859 0.03942 0.0
C4764 C 0.38757 0.9767 0.02568 0.0
C4765 C 0.42281 0.99586 0.05189 0.0
H4766 H 0.43161 0.01817 0.01519 0.0
C4767 C 0.48213 0.0339 0.04817 0.0
C4768 C 0.48706 0.03251 0.03333 0.0
C4769 C 0.46723 0.0272 0.04968 0.0
C4770 C 0.4294 0.01188 0.02547 0.0
H4771 H 0.36935 0.9794 0.06388 0.0
H4772 H 0.3949 0.99471 0.06388 0.0
H4773 H 0.40594 0.00435 0.01637 0.0
H4774 H 0.48016 0.02272 0.00851 0.0
H4775 H 0.45451 0.01088 0.01122 0.0
H4776 H 0.44636 0.00306 0.06083 0.0
C4777 C 0.38895 0.98718 0.05317 0.0
C4778 C 0.41467 0.00399 0.02615 0.0
C4779 C 0.37432 0.97838 0.05316 0.0
C4780 C 0.47678 0.0242 0.0201 0.0
C4781 C 0.46197 0.01747 0.02163 0.0
C4782 C 0.43761 0.00368 0.05117 0.0
C4783 C 0.3957 0.98646 0.0394 0.0
C4784 C 0.41123 0.99571 0.03926 0.0
C4785 C 0.45696 0.01892 0.03641 0.0
C4786 C 0.44112 0.01158 0.03783 0.0
H4787 H 0.36726 0.96016 0.01501 0.0
H4788 H 0.39256 0.97566 0.01497 0.0
H4789 H 0.42053 0.98948 0.0621 0.0
H4790 H 0.48974 0.04023 0.0586 0.0
H4791 H 0.46373 0.02867 0.06122 0.0
C4792 C 0.88003 0.69354 0.79706 0.0
C4793 C 0.88214 0.68111 0.78636 0.0
C4794 C 0.86837 0.70147 0.79321 0.0
C4795 C 0.8441 0.71073 0.75904 0.0
H4796 H 0.82054 0.72164 0.79093 0.0
C4797 C 0.79272 0.74512 0.76851 0.0
C4798 C 0.79861 0.75995 0.76311 0.0
C4799 C 0.80081 0.73292 0.76882 0.0
C4800 C 0.82684 0.71844 0.78181 0.0
H4801 H 0.87338 0.66681 0.76354 0.0
H4802 H 0.85321 0.6808 0.75679 0.0
H4803 H 0.8392 0.70558 0.79739 0.0
H4804 H 0.81684 0.77311 0.75241 0.0
H4805 H 0.8309 0.75185 0.75294 0.0
H4806 H 0.83191 0.72384 0.74354 0.0
C4807 C 0.86069 0.68458 0.768 0.0
C4808 C 0.83766 0.70945 0.78559 0.0
C4809 C 0.87229 0.67664 0.77185 0.0
C4810 C 0.81207 0.76185 0.75676 0.0
C4811 C 0.82009 0.74963 0.75698 0.0
C4812 C 0.83333 0.71979 0.75528 0.0
C4813 C 0.85864 0.69708 0.77862 0.0
C4814 C 0.84655 0.70574 0.77432 0.0
C4815 C 0.81483 0.73532 0.76359 0.0
C4816 C 0.82476 0.72393 0.76671 0.0
H4817 H 0.88749 0.69728 0.80828 0.0
H4818 H 0.86714 0.71122 0.80153 0.0
H4819 H 0.85086 0.70811 0.75015 0.0
H4820 H 0.78235 0.74327 0.77343 0.0
H4821 H 0.79642 0.72188 0.77377 0.0
C4822 C 0.84264 0.64159 0.03008 0.0
C4823 C 0.83679 0.64733 0.01606 0.0
C4824 C 0.85518 0.63461 0.03057 0.0
C4825 C 0.88762 0.63216 0.0097 0.0
H4826 H 0.88918 0.59463 0.03245 0.0
C4827 C 0.93292 0.59459 0.00456 0.0
C4828 C 0.93873 0.58837 0.01831 0.0
C4829 C 0.92083 0.60223 0.0046 0.0
C4830 C 0.88904 0.60523 0.02621 0.0
H4831 H 0.83941 0.64982 0.99143 0.0
H4832 H 0.86119 0.6376 0.99226 0.0
H4833 H 0.86742 0.60683 0.03185 0.0
H4834 H 0.93657 0.5858 0.04303 0.0
H4835 H 0.91556 0.59917 0.04312 0.0
H4836 H 0.90923 0.63052 0.00401 0.0
C4837 C 0.85627 0.63878 0.00299 0.0
C4838 C 0.87653 0.61224 0.02586 0.0
C4839 C 0.84375 0.64578 0.00251 0.0
C4840 C 0.93225 0.59022 0.03216 0.0
C4841 C 0.92017 0.59787 0.0322 0.0
C4842 C 0.90014 0.62515 0.01004 0.0
C4843 C 0.8622 0.63314 0.01704 0.0
C4844 C 0.87562 0.62577 0.01756 0.0
C4845 C 0.91421 0.60388 0.01839 0.0
C4846 C 0.90101 0.61156 0.01827 0.0
H4847 H 0.83772 0.64281 0.04082 0.0
H4848 H 0.85954 0.63063 0.04166 0.0
H4849 H 0.88746 0.64273 0.00342 0.0
H4850 H 0.93745 0.59317 0.99361 0.0
H4851 H 0.91642 0.60648 0.99367 0.0
C4852 C 0.2203 0.14285 0.8146 0.0
C4853 C 0.20859 0.14313 0.82352 0.0
C4854 C 0.22895 0.15723 0.81102 0.0
C4855 C 0.22783 0.1994 0.8063 0.0
H4856 H 0.2711 0.20546 0.80989 0.0
C4857 C 0.26417 0.25102 0.77965 0.0
C4858 C 0.27746 0.25945 0.78937 0.0
C4859 C 0.25587 0.23687 0.78411 0.0
C4860 C 0.25904 0.20397 0.80892 0.0
H4861 H 0.19693 0.15876 0.83586 0.0
H4862 H 0.21197 0.1839 0.82941 0.0
H4863 H 0.25644 0.18079 0.81769 0.0
H4864 H 0.29265 0.2597 0.81122 0.0
H4865 H 0.27817 0.23489 0.81899 0.0
H4866 H 0.23044 0.22261 0.79758 0.0
C4867 C 0.21436 0.17251 0.82513 0.0
C4868 C 0.25065 0.18981 0.81325 0.0
C4869 C 0.20575 0.15812 0.8288 0.0
C4870 C 0.28245 0.25339 0.80349 0.0
C4871 C 0.2742 0.23918 0.80791 0.0
C4872 C 0.23622 0.21352 0.80187 0.0
C4873 C 0.22602 0.17219 0.81618 0.0
C4874 C 0.23496 0.18738 0.81196 0.0
C4875 C 0.26078 0.23084 0.79831 0.0
C4876 C 0.2519 0.21592 0.80311 0.0
H4877 H 0.22258 0.13151 0.81004 0.0
H4878 H 0.23772 0.15661 0.80389 0.0
H4879 H 0.21574 0.19778 0.80505 0.0
H4880 H 0.26012 0.25541 0.76865 0.0
H4881 H 0.24566 0.23057 0.77638 0.0
C4882 C 0.35549 0.04053 0.27652 0.0
C4883 C 0.37109 0.042 0.27771 0.0
C4884 C 0.34579 0.02527 0.27379 0.0
C4885 C 0.34429 0.98217 0.26096 0.0
H4886 H 0.31586 0.97337 0.29043 0.0
C4887 C 0.31628 0.91706 0.26796 0.0
C4888 C 0.31737 0.91363 0.28388 0.0
C4889 C 0.31866 0.93304 0.26435 0.0
C4890 C 0.32368 0.97566 0.28205 0.0
H4891 H 0.38874 0.02865 0.27702 0.0
H4892 H 0.37193 0.0022 0.2723 0.0
H4893 H 0.3286 0.0012 0.28876 0.0
H4894 H 0.3212 0.92415 0.30846 0.0
H4895 H 0.32561 0.952 0.30223 0.0
H4896 H 0.34026 0.95663 0.25508 0.0
C4897 C 0.36711 0.01278 0.27309 0.0
C4898 C 0.33084 0.99161 0.28096 0.0
C4899 C 0.37676 0.02796 0.27584 0.0
C4900 C 0.32018 0.92643 0.29608 0.0
C4901 C 0.32262 0.9424 0.29249 0.0
C4902 C 0.33719 0.96625 0.2621 0.0
C4903 C 0.35154 0.01124 0.27218 0.0
C4904 C 0.34167 0.99494 0.27088 0.0
C4905 C 0.32223 0.94589 0.2766 0.0
C4906 C 0.32725 0.96278 0.27311 0.0
H4907 H 0.35079 0.05116 0.27773 0.0
H4908 H 0.33382 0.02442 0.27307 0.0
H4909 H 0.3524 0.98442 0.25288 0.0
H4910 H 0.31384 0.90738 0.25831 0.0
H4911 H 0.31806 0.93534 0.25199 0.0
C4912 C 0.56175 0.39898 0.59435 0.0
C4913 C 0.54903 0.38823 0.5977 0.0
C4914 C 0.56022 0.41223 0.58596 0.0
C4915 C 0.53229 0.42853 0.55972 0.0
H4916 H 0.56063 0.46944 0.57286 0.0
C4917 C 0.52189 0.48946 0.53989 0.0
C4918 C 0.53416 0.50068 0.53629 0.0
C4919 C 0.52394 0.47517 0.54612 0.0
C4920 C 0.55273 0.45806 0.56889 0.0
H4921 H 0.52468 0.38293 0.59442 0.0
H4922 H 0.52205 0.40624 0.58034 0.0
H4923 H 0.56375 0.4458 0.58629 0.0
H4924 H 0.55819 0.50539 0.53608 0.0
H4925 H 0.56173 0.48046 0.54693 0.0
H4926 H 0.52109 0.44095 0.54256 0.0
C4927 C 0.53323 0.40432 0.58398 0.0
C4928 C 0.55452 0.44446 0.57659 0.0
C4929 C 0.53475 0.39105 0.5923 0.0
C4930 C 0.54848 0.49705 0.5387 0.0
C4931 C 0.55053 0.48281 0.54504 0.0
C4932 C 0.53044 0.44215 0.55209 0.0
C4933 C 0.54594 0.41514 0.58073 0.0
C4934 C 0.54428 0.42952 0.57217 0.0
C4935 C 0.53832 0.47178 0.549 0.0
C4936 C 0.5406 0.4571 0.55664 0.0
H4937 H 0.57294 0.39733 0.59843 0.0
H4938 H 0.57027 0.42015 0.58353 0.0
H4939 H 0.52433 0.41718 0.55577 0.0
H4940 H 0.51071 0.49183 0.5382 0.0
H4941 H 0.5143 0.46702 0.54915 0.0
C4942 C 0.42441 0.77164 0.35201 0.0
C4943 C 0.43526 0.78602 0.35724 0.0
C4944 C 0.41049 0.77204 0.34329 0.0
C4945 C 0.38384 0.79833 0.33554 0.0
H4946 H 0.36782 0.76816 0.29772 0.0
C4947 C 0.32826 0.80074 0.29542 0.0
C4948 C 0.31895 0.78595 0.28846 0.0
C4949 C 0.34274 0.8013 0.30341 0.0
C4950 C 0.37198 0.77653 0.30838 0.0
H4951 H 0.43987 0.81211 0.35701 0.0
H4952 H 0.41546 0.81276 0.34218 0.0
H4953 H 0.39226 0.76784 0.31259 0.0
H4954 H 0.31734 0.76012 0.28463 0.0
H4955 H 0.34222 0.76093 0.29893 0.0
H4956 H 0.36343 0.80676 0.33165 0.0
C4957 C 0.41776 0.8012 0.34494 0.0
C4958 C 0.38605 0.77637 0.31686 0.0
C4959 C 0.43175 0.8008 0.3535 0.0
C4960 C 0.32433 0.77173 0.28974 0.0
C4961 C 0.33868 0.77224 0.29786 0.0
C4962 C 0.36967 0.79837 0.32716 0.0
C4963 C 0.40699 0.78683 0.33971 0.0
C4964 C 0.39212 0.78722 0.33057 0.0
C4965 C 0.34815 0.78702 0.30478 0.0
C4966 C 0.36349 0.78741 0.31349 0.0
H4967 H 0.42653 0.76005 0.35488 0.0
H4968 H 0.40234 0.76077 0.3396 0.0
H4969 H 0.38818 0.80675 0.34615 0.0
H4970 H 0.32437 0.81187 0.29466 0.0
H4971 H 0.34972 0.81294 0.30839 0.0
C4972 C 0.05984 0.72654 0.09676 0.0
C4973 C 0.04715 0.73343 0.09602 0.0
C4974 C 0.05869 0.71083 0.08974 0.0
C4975 C 0.03069 0.67259 0.07626 0.0
H4976 H 0.06271 0.66065 0.05612 0.0
C4977 C 0.0246 0.60937 0.04279 0.0
C4978 C 0.03682 0.60186 0.04563 0.0
C4979 C 0.02598 0.62558 0.04839 0.0
C4980 C 0.05373 0.66378 0.06183 0.0
H4981 H 0.02335 0.7292 0.08696 0.0
H4982 H 0.02144 0.702 0.07433 0.0
H4983 H 0.06481 0.6888 0.06634 0.0
H4984 H 0.06017 0.60564 0.05644 0.0
H4985 H 0.06257 0.63397 0.06623 0.0
H4986 H 0.01959 0.6476 0.07169 0.0
C4987 C 0.03224 0.70865 0.08061 0.0
C4988 C 0.05493 0.67991 0.0677 0.0
C4989 C 0.03338 0.72435 0.08768 0.0
C4990 C 0.05052 0.61102 0.05407 0.0
C4991 C 0.05193 0.62729 0.0596 0.0
C4992 C 0.02946 0.65651 0.07032 0.0
C4993 C 0.04484 0.70159 0.08173 0.0
C4994 C 0.04344 0.68452 0.07504 0.0
C4995 C 0.03965 0.63473 0.05689 0.0
C4996 C 0.04097 0.65189 0.06307 0.0
H4997 H 0.07068 0.73327 0.10287 0.0
H4998 H 0.06862 0.70578 0.09095 0.0
H4999 H 0.02175 0.67561 0.08211 0.0
H5000 H 0.01388 0.60272 0.03628 0.0
H5001 H 0.01637 0.631 0.04594 0.0
C5002 C 0.08072 0.28075 0.85274 0.0
C5003 C 0.08029 0.29296 0.86466 0.0
C5004 C 0.09364 0.28103 0.84578 0.0
C5005 C 0.12932 0.30784 0.83995 0.0
H5006 H 0.14075 0.26709 0.83069 0.0
C5007 C 0.18556 0.30376 0.81793 0.0
C5008 C 0.18478 0.29152 0.80557 0.0
C5009 C 0.17314 0.30428 0.82563 0.0
C5010 C 0.13766 0.27856 0.83307 0.0
H5011 H 0.09316 0.31508 0.87856 0.0
H5012 H 0.11576 0.31551 0.86651 0.0
H5013 H 0.11849 0.26748 0.84297 0.0
H5014 H 0.1704 0.27002 0.79189 0.0
H5015 H 0.14878 0.27108 0.80507 0.0
H5016 H 0.14859 0.31889 0.83004 0.0
C5017 C 0.10601 0.30583 0.86236 0.0
C5018 C 0.12486 0.27879 0.84009 0.0
C5019 C 0.09305 0.30559 0.86928 0.0
C5020 C 0.17135 0.27975 0.80121 0.0
C5021 C 0.15899 0.28024 0.80891 0.0
C5022 C 0.14218 0.30761 0.83295 0.0
C5023 C 0.10652 0.29348 0.8506 0.0
C5024 C 0.12042 0.2934 0.8435 0.0
C5025 C 0.15971 0.29251 0.82121 0.0
C5026 C 0.14642 0.29294 0.82929 0.0
H5027 H 0.07101 0.271 0.84871 0.0
H5028 H 0.09348 0.2715 0.83653 0.0
H5029 H 0.12618 0.3193 0.84224 0.0
H5030 H 0.19569 0.31308 0.82152 0.0
H5031 H 0.17411 0.31382 0.83515 0.0
C5032 C 0.52382 0.70463 0.94677 0.0
C5033 C 0.51755 0.71647 0.95419 0.0
C5034 C 0.52385 0.68986 0.95298 0.0
C5035 C 0.51952 0.66981 0.99003 0.0
H5036 H 0.51677 0.63101 0.96172 0.0
C5037 C 0.53214 0.61156 0.01407 0.0
C5038 C 0.52407 0.59644 0.00638 0.0
C5039 C 0.53059 0.62587 0.0076 0.0
C5040 C 0.51737 0.64165 0.96984 0.0
H5041 H 0.50628 0.72168 0.97408 0.0
H5042 H 0.50572 0.69574 0.98444 0.0
H5043 H 0.51487 0.65616 0.95065 0.0
H5044 H 0.5079 0.58459 0.98584 0.0
H5045 H 0.50489 0.60957 0.97473 0.0
H5046 H 0.52148 0.65519 0.00919 0.0
C5047 C 0.51098 0.69803 0.974 0.0
C5048 C 0.51651 0.65621 0.96347 0.0
C5049 C 0.5111 0.7129 0.96789 0.0
C5050 C 0.51432 0.59601 0.99206 0.0
C5051 C 0.51267 0.61038 0.98563 0.0
C5052 C 0.52023 0.65522 0.99639 0.0
C5053 C 0.51744 0.6863 0.9667 0.0
C5054 C 0.51773 0.67057 0.97347 0.0
C5055 C 0.52081 0.62554 0.9933 0.0
C5056 C 0.51933 0.64094 0.98641 0.0
H5057 H 0.52864 0.70667 0.93603 0.0
H5058 H 0.52913 0.68133 0.94708 0.0
H5059 H 0.52068 0.68055 0.99819 0.0
H5060 H 0.53986 0.61239 0.02504 0.0
H5061 H 0.53731 0.6372 0.01373 0.0
C5062 C 0.12518 0.81904 0.70965 0.0
C5063 C 0.1238 0.82028 0.69319 0.0
C5064 C 0.13915 0.81922 0.71859 0.0
C5065 C 0.18027 0.82972 0.71773 0.0
H5066 H 0.18162 0.79858 0.7485 0.0
C5067 C 0.22567 0.79602 0.75279 0.0
C5068 C 0.23791 0.80911 0.75801 0.0
C5069 C 0.21177 0.79859 0.74609 0.0
C5070 C 0.18145 0.80732 0.73992 0.0
H5071 H 0.13618 0.82323 0.67335 0.0
H5072 H 0.16042 0.82316 0.68882 0.0
H5073 H 0.1575 0.80093 0.73431 0.0
H5074 H 0.24498 0.83528 0.76038 0.0
H5075 H 0.22061 0.83976 0.74873 0.0
H5076 H 0.20429 0.83567 0.72294 0.0
C5077 C 0.15075 0.82221 0.69488 0.0
C5078 C 0.16759 0.80881 0.73191 0.0
C5079 C 0.13679 0.82203 0.68596 0.0
C5080 C 0.23583 0.8249 0.75647 0.0
C5081 C 0.22187 0.82747 0.74972 0.0
C5082 C 0.19415 0.82823 0.72574 0.0
C5083 C 0.15209 0.82066 0.71129 0.0
C5084 C 0.16682 0.81988 0.72056 0.0
C5085 C 0.20968 0.81433 0.74441 0.0
C5086 C 0.19492 0.81684 0.73677 0.0
H5087 H 0.11541 0.81754 0.71559 0.0
H5088 H 0.1398 0.81818 0.73122 0.0
H5089 H 0.18008 0.83852 0.70921 0.0
H5090 H 0.2268 0.78367 0.75373 0.0
H5091 H 0.20272 0.78816 0.7419 0.0
C5092 C 0.01558 0.38854 0.45341 0.0
C5093 C 0.02362 0.37798 0.46083 0.0
C5094 C 0.01678 0.40428 0.4605 0.0
C5095 C 0.02744 0.42933 0.49956 0.0
H5096 H 0.02945 0.46547 0.47423 0.0
C5097 C 0.04132 0.49501 0.52913 0.0
C5098 C 0.0337 0.50615 0.52232 0.0
C5099 C 0.04004 0.47967 0.52115 0.0
C5100 C 0.02871 0.4555 0.48147 0.0
H5101 H 0.03925 0.3759 0.4816 0.0
H5102 H 0.04149 0.40337 0.49386 0.0
H5103 H 0.02744 0.43826 0.46131 0.0
H5104 H 0.01844 0.50978 0.50198 0.0
H5105 H 0.01618 0.48291 0.48789 0.0
H5106 H 0.02861 0.44643 0.51969 0.0
C5107 C 0.03413 0.3994 0.4826 0.0
C5108 C 0.02758 0.43987 0.47405 0.0
C5109 C 0.03297 0.38368 0.47548 0.0
C5110 C 0.02476 0.50161 0.5073 0.0
C5111 C 0.02343 0.48617 0.49929 0.0
C5112 C 0.02853 0.4449 0.50696 0.0
C5113 C 0.02601 0.40991 0.47524 0.0
C5114 C 0.02703 0.42658 0.48302 0.0
C5115 C 0.03098 0.47493 0.50618 0.0
C5116 C 0.02931 0.45825 0.49806 0.0
H5117 H 0.00843 0.38468 0.44202 0.0
H5118 H 0.01027 0.41195 0.45453 0.0
H5119 H 0.02672 0.41938 0.50683 0.0
H5120 H 0.04833 0.49817 0.54068 0.0
H5121 H 0.04626 0.47153 0.52674 0.0
C5122 C 0.47672 0.2999 0.19609 0.0
C5123 C 0.48277 0.3123 0.18729 0.0
C5124 C 0.46436 0.30095 0.2037 0.0
C5125 C 0.43282 0.32208 0.20288 0.0
H5126 H 0.43021 0.30783 0.24472 0.0
C5127 C 0.38835 0.33674 0.23925 0.0
C5128 C 0.3803 0.32401 0.24634 0.0
C5129 C 0.40113 0.33504 0.23278 0.0
C5130 C 0.43074 0.31173 0.23298 0.0
H5131 H 0.48038 0.33549 0.17954 0.0
H5132 H 0.45925 0.33755 0.19314 0.0
H5133 H 0.45192 0.30532 0.23189 0.0
H5134 H 0.37978 0.29967 0.25261 0.0
H5135 H 0.40232 0.29682 0.24148 0.0
H5136 H 0.41176 0.32866 0.20403 0.0
C5137 C 0.46389 0.32687 0.194 0.0
C5138 C 0.44315 0.31027 0.2256 0.0
C5139 C 0.47618 0.32579 0.18637 0.0
C5140 C 0.38575 0.30976 0.24736 0.0
C5141 C 0.39865 0.30811 0.24095 0.0
C5142 C 0.4205 0.32363 0.21028 0.0
C5143 C 0.45774 0.31443 0.2027 0.0
C5144 C 0.4444 0.31554 0.21049 0.0
C5145 C 0.4063 0.32062 0.23331 0.0
C5146 C 0.41935 0.31858 0.22545 0.0
H5147 H 0.4816 0.2894 0.1972 0.0
H5148 H 0.45986 0.29108 0.21018 0.0
H5149 H 0.43319 0.32592 0.1911 0.0
H5150 H 0.38472 0.34804 0.23859 0.0
H5151 H 0.40696 0.34504 0.22728 0.0
C5152 C 0.61261 0.55988 0.40506 0.0
C5153 C 0.62412 0.55127 0.40494 0.0
C5154 C 0.60235 0.55691 0.41559 0.0
C5155 C 0.5825 0.52681 0.4363 0.0
H5156 H 0.57722 0.56322 0.46356 0.0
C5157 C 0.53903 0.523 0.48055 0.0
C5158 C 0.53256 0.53649 0.48207 0.0
C5159 C 0.55029 0.52304 0.47104 0.0
C5160 C 0.57844 0.55295 0.4559 0.0
H5161 H 0.63377 0.53276 0.41596 0.0
H5162 H 0.6153 0.5272 0.43403 0.0
H5163 H 0.5975 0.56687 0.44776 0.0
H5164 H 0.53172 0.55996 0.47431 0.0
H5165 H 0.55057 0.55967 0.45703 0.0
H5166 H 0.56296 0.51305 0.44391 0.0
C5167 C 0.61448 0.53633 0.42596 0.0
C5168 C 0.59012 0.55503 0.44701 0.0
C5169 C 0.62499 0.53951 0.41559 0.0
C5170 C 0.53658 0.54943 0.4732 0.0
C5171 C 0.54753 0.54934 0.46353 0.0
C5172 C 0.57061 0.52475 0.44508 0.0
C5173 C 0.60316 0.54508 0.42603 0.0
C5174 C 0.59205 0.5421 0.43691 0.0
C5175 C 0.555 0.53652 0.46292 0.0
C5176 C 0.56824 0.53795 0.45463 0.0
H5177 H 0.61123 0.56865 0.39674 0.0
H5178 H 0.59355 0.56366 0.41534 0.0
H5179 H 0.58382 0.5167 0.42849 0.0
H5180 H 0.53623 0.51306 0.4876 0.0
H5181 H 0.55587 0.51301 0.47081 0.0
C5182 C 0.29325 0.87771 0.12272 0.0
C5183 C 0.28726 0.86785 0.10831 0.0
C5184 C 0.29377 0.87113 0.13727 0.0
C5185 C 0.27611 0.83634 0.15656 0.0
H5186 H 0.31108 0.85067 0.18924 0.0
C5187 C 0.28087 0.80787 0.21604 0.0
C5188 C 0.28743 0.81821 0.23001 0.0
C5189 C 0.28144 0.81339 0.20104 0.0
C5190 C 0.30114 0.84666 0.18034 0.0
H5191 H 0.27716 0.84326 0.098 0.0
H5192 H 0.27814 0.83174 0.12344 0.0
H5193 H 0.31093 0.86121 0.16345 0.0
H5194 H 0.29981 0.84252 0.23904 0.0
H5195 H 0.30053 0.85221 0.21299 0.0
H5196 H 0.26617 0.82204 0.17349 0.0
C5197 C 0.28235 0.84462 0.12344 0.0
C5198 C 0.30107 0.85269 0.16551 0.0
C5199 C 0.28192 0.85119 0.10885 0.0
C5200 C 0.29471 0.83416 0.22857 0.0
C5201 C 0.29519 0.83971 0.21356 0.0
C5202 C 0.27613 0.83038 0.17142 0.0
C5203 C 0.28827 0.85452 0.13785 0.0
C5204 C 0.28853 0.84766 0.15345 0.0
C5205 C 0.28849 0.82943 0.19957 0.0
C5206 C 0.28862 0.8355 0.18356 0.0
H5207 H 0.29764 0.89055 0.12275 0.0
H5208 H 0.29827 0.87914 0.14812 0.0
H5209 H 0.26618 0.83238 0.14763 0.0
H5210 H 0.27524 0.79548 0.21665 0.0
H5211 H 0.27639 0.80501 0.19057 0.0
C5212 C 0.98539 0.59933 0.87429 0.0
C5213 C 0.97467 0.60872 0.87573 0.0
C5214 C 0.99371 0.5955 0.88782 0.0
C5215 C 0.004 0.60568 0.93163 0.0
H5216 H 0.00898 0.56138 0.9301 0.0
C5217 C 0.02074 0.57585 0.9878 0.0
C5218 C 0.0314 0.56634 0.98697 0.0
C5219 C 0.01463 0.58168 0.97412 0.0
C5220 C 0.00783 0.57384 0.93065 0.0
H5221 H 0.9645 0.62192 0.89229 0.0
H5222 H 0.97877 0.6149 0.91607 0.0
H5223 H 0.99715 0.57086 0.90644 0.0
H5224 H 0.04449 0.55569 0.97168 0.0
H5225 H 0.03379 0.56587 0.94756 0.0
H5226 H 0.01437 0.60843 0.95603 0.0
C5227 C 0.98099 0.61074 0.9045 0.0
C5228 C 1.0011 0.57931 0.91708 0.0
C5229 C 0.97278 0.61473 0.89092 0.0
C5230 C 0.03609 0.56286 0.97242 0.0
C5231 C 0.02996 0.56863 0.95869 0.0
C5232 C 0.01064 0.60015 0.94525 0.0
C5233 C 0.99134 0.60081 0.90309 0.0
C5234 C 0.99905 0.59528 0.91742 0.0
C5235 C 0.01918 0.57812 0.95943 0.0
C5236 C 0.01256 0.58416 0.94489 0.0
H5237 H 0.98718 0.59475 0.86266 0.0
H5238 H 0.00185 0.58818 0.88629 0.0
H5239 H 0.00279 0.61811 0.93224 0.0
H5240 H 0.01727 0.57895 0.99904 0.0
H5241 H 0.00626 0.58884 0.97502 0.0
C5242 C 0.26486 0.23654 0.601 0.0
C5243 C 0.27797 0.23795 0.59399 0.0
C5244 C 0.26547 0.24308 0.6167 0.0
C5245 C 0.29188 0.25649 0.65452 0.0
H5246 H 0.25954 0.27514 0.66683 0.0
C5247 C 0.29398 0.28726 0.71823 0.0
C5248 C 0.28072 0.28384 0.72497 0.0
C5249 C 0.29393 0.28225 0.70218 0.0
C5250 C 0.26861 0.26983 0.66362 0.0
H5251 H 0.30201 0.24766 0.59808 0.0
H5252 H 0.30304 0.25941 0.62535 0.0
H5253 H 0.25902 0.26588 0.63894 0.0
H5254 H 0.25699 0.27246 0.71998 0.0
H5255 H 0.25694 0.26374 0.69208 0.0
H5256 H 0.30145 0.26048 0.67924 0.0
C5257 C 0.29229 0.25299 0.61875 0.0
C5258 C 0.26831 0.26451 0.64761 0.0
C5259 C 0.29167 0.24643 0.60302 0.0
C5260 C 0.26742 0.27532 0.71523 0.0
C5261 C 0.26736 0.27041 0.69917 0.0
C5262 C 0.2922 0.26187 0.67054 0.0
C5263 C 0.27921 0.25128 0.62586 0.0
C5264 C 0.27988 0.25764 0.64284 0.0
C5265 C 0.28061 0.27381 0.69243 0.0
C5266 C 0.28051 0.2685 0.67531 0.0
H5267 H 0.25407 0.2303 0.59436 0.0
H5268 H 0.25518 0.24136 0.62176 0.0
H5269 H 0.30087 0.25104 0.65138 0.0
H5270 H 0.30444 0.29381 0.72534 0.0
H5271 H 0.30431 0.28522 0.69735 0.0
C5272 C 0.58377 0.54478 0.25635 0.0
C5273 C 0.59534 0.53679 0.26097 0.0
C5274 C 0.57643 0.5424 0.24062 0.0
C5275 C 0.58574 0.53315 0.20142 0.0
H5276 H 0.54508 0.53719 0.18665 0.0
C5277 C 0.57054 0.56057 0.14434 0.0
C5278 C 0.55756 0.55271 0.13377 0.0
C5279 C 0.57356 0.55562 0.15939 0.0
C5280 C 0.55639 0.53582 0.19059 0.0
H5281 H 0.60744 0.51907 0.2529 0.0
H5282 H 0.5943 0.51456 0.22574 0.0
H5283 H 0.55217 0.53232 0.21431 0.0
H5284 H 0.53744 0.53358 0.13081 0.0
H5285 H 0.54264 0.52513 0.15744 0.0
H5286 H 0.59011 0.53706 0.17791 0.0
C5287 C 0.59113 0.52291 0.23419 0.0
C5288 C 0.56047 0.53315 0.2064 0.0
C5289 C 0.59854 0.52538 0.24985 0.0
C5290 C 0.54748 0.53997 0.13874 0.0
C5291 C 0.55045 0.53509 0.15392 0.0
C5292 C 0.58169 0.53587 0.18571 0.0
C5293 C 0.58048 0.53192 0.22925 0.0
C5294 C 0.57529 0.53217 0.21206 0.0
C5295 C 0.56361 0.54278 0.16428 0.0
C5296 C 0.56712 0.53768 0.18027 0.0
H5297 H 0.58085 0.55342 0.2647 0.0
H5298 H 0.56831 0.54956 0.23717 0.0
H5299 H 0.5973 0.53268 0.20542 0.0
H5300 H 0.57835 0.57067 0.14103 0.0
H5301 H 0.58363 0.56199 0.1673 0.0
C5302 C 0.29082 0.87733 0.93834 0.0
C5303 C 0.28177 0.86929 0.94858 0.0
C5304 C 0.28995 0.87077 0.92255 0.0
C5305 C 0.27746 0.83192 0.89641 0.0
H5306 H 0.27951 0.85915 0.86196 0.0
C5307 C 0.26305 0.80418 0.83131 0.0
C5308 C 0.27246 0.81032 0.82056 0.0
C5309 C 0.26427 0.8123 0.84645 0.0
C5310 C 0.27908 0.8514 0.87146 0.0
H5311 H 0.26469 0.84794 0.95008 0.0
H5312 H 0.26295 0.83671 0.92258 0.0
H5313 H 0.28146 0.87137 0.88932 0.0
H5314 H 0.29046 0.8299 0.81722 0.0
H5315 H 0.29255 0.84437 0.84379 0.0
H5316 H 0.27502 0.81197 0.87866 0.0
C5317 C 0.27089 0.84801 0.92679 0.0
C5318 C 0.2802 0.8584 0.88717 0.0
C5319 C 0.27175 0.85456 0.94255 0.0
C5320 C 0.28288 0.82507 0.82513 0.0
C5321 C 0.2841 0.83329 0.84038 0.0
C5322 C 0.27631 0.82495 0.88077 0.0
C5323 C 0.28002 0.85597 0.91657 0.0
C5324 C 0.27926 0.84872 0.89984 0.0
C5325 C 0.27501 0.82679 0.85135 0.0
C5326 C 0.27692 0.83455 0.86805 0.0
H5327 H 0.29852 0.88881 0.94246 0.0
H5328 H 0.29724 0.87721 0.91511 0.0
H5329 H 0.27706 0.82409 0.90585 0.0
H5330 H 0.25486 0.79286 0.82812 0.0
H5331 H 0.25685 0.8071 0.85442 0.0
C5332 C 0.99119 0.59869 0.74213 0.0
C5333 C 0.97585 0.59815 0.73724 0.0
C5334 C 0.99925 0.59108 0.73235 0.0
C5335 C 0.99489 0.55815 0.70124 0.0
H5336 H 0.02931 0.58376 0.68666 0.0
C5337 C 0.01411 0.54119 0.64267 0.0
C5338 C 0.02872 0.5481 0.64018 0.0
C5339 C 0.00963 0.5441 0.65738 0.0
C5340 C 0.02003 0.57621 0.69093 0.0
H5341 H 0.95717 0.58972 0.71792 0.0
H5342 H 0.97117 0.57601 0.70117 0.0
H5343 H 0.0176 0.59588 0.7069 0.0
H5344 H 0.05063 0.56174 0.6519 0.0
H5345 H 0.04309 0.56581 0.67776 0.0
H5346 H 0.9972 0.53845 0.68532 0.0
C5347 C 0.97684 0.58222 0.71264 0.0
C5348 C 0.01326 0.58326 0.70244 0.0
C5349 C 0.96886 0.59007 0.72224 0.0
C5350 C 0.03925 0.55627 0.65328 0.0
C5351 C 0.03485 0.55886 0.6681 0.0
C5352 C 0.00183 0.55097 0.68994 0.0
C5353 C 0.99204 0.58257 0.71767 0.0
C5354 C 1.00039 0.57443 0.70729 0.0
C5355 C 0.01977 0.55367 0.67006 0.0
C5356 C 0.01418 0.56008 0.68423 0.0
H5357 H 0.99688 0.60458 0.75369 0.0
H5358 H 0.01101 0.59151 0.73639 0.0
H5359 H 0.98503 0.5511 0.705 0.0
H5360 H 0.00583 0.53438 0.63297 0.0
H5361 H 0.99792 0.53981 0.65836 0.0
C5362 C 0.29173 0.24541 0.43454 0.0
C5363 C 0.27827 0.23504 0.43661 0.0
C5364 C 0.29301 0.25243 0.42032 0.0
C5365 C 0.27579 0.24786 0.37765 0.0
H5366 H 0.29864 0.29178 0.37894 0.0
C5367 C 0.27897 0.28182 0.32104 0.0
C5368 C 0.293 0.29139 0.31961 0.0
C5369 C 0.27666 0.27501 0.33521 0.0
C5370 C 0.29234 0.27944 0.37833 0.0
H5371 H 0.25559 0.22394 0.42508 0.0
H5372 H 0.25772 0.23644 0.40046 0.0
H5373 H 0.29553 0.27997 0.40371 0.0
H5374 H 0.31562 0.30127 0.33188 0.0
H5375 H 0.31168 0.28936 0.35648 0.0
H5376 H 0.27262 0.24736 0.35222 0.0
C5377 C 0.26737 0.23901 0.4098 0.0
C5378 C 0.29056 0.27264 0.39258 0.0
C5379 C 0.26609 0.23199 0.42404 0.0
C5380 C 0.30466 0.29399 0.33262 0.0
C5381 C 0.30236 0.28724 0.34678 0.0
C5382 C 0.27755 0.25467 0.36338 0.0
C5383 C 0.28087 0.24931 0.40771 0.0
C5384 C 0.28236 0.25671 0.39246 0.0
C5385 C 0.28832 0.27767 0.34831 0.0
C5386 C 0.28596 0.27053 0.36351 0.0
H5387 H 0.30131 0.24823 0.44397 0.0
H5388 H 0.30365 0.26013 0.41914 0.0
H5389 H 0.26956 0.23549 0.37704 0.0
H5390 H 0.26976 0.27966 0.31123 0.0
H5391 H 0.26565 0.26786 0.33598 0.0
C5392 C 0.343 0.63504 0.52973 0.0
C5393 C 0.34162 0.64671 0.51914 0.0
C5394 C 0.35459 0.62669 0.52982 0.0
C5395 C 0.38298 0.61672 0.50569 0.0
H5396 H 0.40115 0.60578 0.54598 0.0
C5397 C 0.4369 0.59079 0.5131 0.0
C5398 C 0.43677 0.57779 0.5224 0.0
C5399 C 0.42532 0.59925 0.51235 0.0
C5400 C 0.39611 0.60864 0.53462 0.0
H5401 H 0.3514 0.65886 0.50043 0.0
H5402 H 0.37187 0.6446 0.50083 0.0
H5403 H 0.38113 0.62057 0.54543 0.0
H5404 H 0.42398 0.56326 0.53779 0.0
H5405 H 0.40405 0.57819 0.53671 0.0
H5406 H 0.39825 0.60498 0.49499 0.0
C5407 C 0.36379 0.64158 0.50883 0.0
C5408 C 0.38457 0.61708 0.53427 0.0
C5409 C 0.35209 0.64982 0.50862 0.0
C5410 C 0.42468 0.57341 0.5308 0.0
C5411 C 0.4132 0.58194 0.53015 0.0
C5412 C 0.39463 0.6084 0.50607 0.0
C5413 C 0.36522 0.6299 0.51945 0.0
C5414 C 0.37775 0.62116 0.51979 0.0
C5415 C 0.4134 0.59499 0.52096 0.0
C5416 C 0.40126 0.60417 0.52053 0.0
H5417 H 0.33497 0.6322 0.53781 0.0
H5418 H 0.35508 0.61755 0.53793 0.0
H5419 H 0.37788 0.6194 0.49428 0.0
H5420 H 0.4461 0.59467 0.50664 0.0
H5421 H 0.42587 0.60935 0.50529 0.0
C5422 C 0.87336 0.97548 0.52715 0.0
C5423 C 0.87047 0.96493 0.53884 0.0
C5424 C 0.88803 0.98357 0.52627 0.0
C5425 C 0.92781 0.98168 0.53892 0.0
H5426 H 0.93624 0.02599 0.52868 0.0
C5427 C 0.98793 0.0207 0.54759 0.0
C5428 C 0.99193 0.03084 0.53592 0.0
C5429 C 0.97307 0.01247 0.54705 0.0
C5430 C 0.93405 0.01355 0.53135 0.0
H5431 H 0.88093 0.95477 0.55886 0.0
H5432 H 0.90638 0.96922 0.55765 0.0
H5433 H 0.91044 0.01232 0.52989 0.0
H5434 H 0.98353 0.04021 0.51439 0.0
H5435 H 0.95739 0.02581 0.51344 0.0
H5436 H 0.95143 0.98298 0.5406 0.0
C5437 C 0.89732 0.97103 0.54895 0.0
C5438 C 0.91925 0.0057 0.53205 0.0
C5439 C 0.88266 0.9629 0.54979 0.0
C5440 C 0.98075 0.0325 0.52358 0.0
C5441 C 0.96579 0.02432 0.52309 0.0
C5442 C 0.94259 0.98954 0.53828 0.0
C5443 C 0.90024 0.98137 0.53709 0.0
C5444 C 0.91594 0.98969 0.53598 0.0
C5445 C 0.96179 0.01421 0.53484 0.0
C5446 C 0.94592 0.00562 0.53463 0.0
H5447 H 0.86426 0.97752 0.51863 0.0
H5448 H 0.88982 0.99132 0.51691 0.0
H5449 H 0.9257 0.96925 0.54162 0.0
H5450 H 0.9963 0.01916 0.55724 0.0
H5451 H 0.97037 0.00497 0.5564 0.0
C5452 C 0.86341 0.11634 0.25452 0.0
C5453 C 0.85763 0.10244 0.24363 0.0
C5454 C 0.85401 0.12623 0.25904 0.0
C5455 C 0.81939 0.13851 0.24536 0.0
H5456 H 0.82063 0.15289 0.2899 0.0
C5457 C 0.78136 0.17982 0.26364 0.0
C5458 C 0.78821 0.19297 0.27511 0.0
C5459 C 0.7884 0.16701 0.2611 0.0
C5460 C 0.82023 0.14909 0.27741 0.0
H5461 H 0.83739 0.088 0.22906 0.0
H5462 H 0.8211 0.10561 0.23662 0.0
H5463 H 0.83623 0.13438 0.28253 0.0
H5464 H 0.80731 0.20237 0.29369 0.0
H5465 H 0.81991 0.18045 0.28877 0.0
H5466 H 0.80394 0.15364 0.24008 0.0
C5467 C 0.83292 0.10876 0.24163 0.0
C5468 C 0.82913 0.13848 0.27322 0.0
C5469 C 0.84227 0.09876 0.23724 0.0
C5470 C 0.80187 0.19258 0.28454 0.0
C5471 C 0.809 0.17988 0.28187 0.0
C5472 C 0.81063 0.14926 0.24952 0.0
C5473 C 0.8387 0.12253 0.25263 0.0
C5474 C 0.82885 0.13321 0.25715 0.0
C5475 C 0.80254 0.16715 0.26982 0.0
C5476 C 0.81101 0.15477 0.26559 0.0
H5477 H 0.87523 0.1197 0.25945 0.0
H5478 H 0.85877 0.13693 0.26736 0.0
H5479 H 0.81912 0.13475 0.23288 0.0
H5480 H 0.77089 0.17974 0.25608 0.0
H5481 H 0.78295 0.15722 0.25196 0.0
C5482 C 0.69737 0.11858 0.01384 0.0
C5483 C 0.69988 0.13532 0.0128 0.0
C5484 C 0.68281 0.10945 0.01344 0.0
C5485 C 0.64265 0.11028 0.00206 0.0
H5486 H 0.63618 0.07937 0.0329 0.0
C5487 C 0.59115 0.0754 0.03339 0.0
C5488 C 0.57991 0.07002 0.02004 0.0
C5489 C 0.60591 0.082 0.03151 0.0
C5490 C 0.63779 0.08798 0.02424 0.0
H5491 H 0.689 0.15548 0.00992 0.0
H5492 H 0.66371 0.13968 0.0095 0.0
H5493 H 0.66165 0.09363 0.03124 0.0
H5494 H 0.57552 0.06719 0.9942 0.0
H5495 H 0.60132 0.07867 0.99096 0.0
H5496 H 0.61876 0.10504 0.99542 0.0
C5497 C 0.67295 0.13354 0.01053 0.0
C5498 C 0.65241 0.09601 0.02316 0.0
C5499 C 0.68748 0.14265 0.01098 0.0
C5500 C 0.58386 0.07123 0.00475 0.0
C5501 C 0.59864 0.07789 0.00288 0.0
C5502 C 0.62803 0.10222 0.00312 0.0
C5503 C 0.67044 0.11686 0.01188 0.0
C5504 C 0.655 0.10743 0.01221 0.0
C5505 C 0.60983 0.08343 0.01625 0.0
C5506 C 0.62542 0.09114 0.01437 0.0
H5507 H 0.70669 0.11259 0.01535 0.0
H5508 H 0.68123 0.09659 0.01436 0.0
H5509 H 0.64426 0.11885 0.99336 0.0
H5510 H 0.58856 0.07467 0.04535 0.0
H5511 H 0.6142 0.08635 0.04206 0.0
C5512 C 0.18267 0.40999 0.28265 0.0
C5513 C 0.18399 0.4216 0.27181 0.0
C5514 C 0.19469 0.40285 0.28734 0.0
C5515 C 0.22958 0.39554 0.27447 0.0
H5516 H 0.2366 0.38206 0.31677 0.0
C5517 C 0.27441 0.36003 0.28951 0.0
C5518 C 0.2681 0.34477 0.29378 0.0
C5519 C 0.26685 0.37261 0.29058 0.0
C5520 C 0.23483 0.38592 0.30498 0.0
H5521 H 0.19887 0.43535 0.25777 0.0
H5522 H 0.22001 0.42323 0.26622 0.0
H5523 H 0.21758 0.39785 0.31052 0.0
H5524 H 0.24987 0.33125 0.30425 0.0
H5525 H 0.23671 0.35322 0.30608 0.0
H5526 H 0.24664 0.38344 0.26885 0.0
C5527 C 0.20961 0.41922 0.27075 0.0
C5528 C 0.22388 0.39481 0.30134 0.0
C5529 C 0.19752 0.42615 0.26589 0.0
C5530 C 0.25492 0.34282 0.30067 0.0
C5531 C 0.24743 0.35544 0.30184 0.0
C5532 C 0.24062 0.38686 0.27816 0.0
C5533 C 0.20831 0.40741 0.28146 0.0
C5534 C 0.22089 0.39938 0.28592 0.0
C5535 C 0.25297 0.37016 0.29607 0.0
C5536 C 0.24312 0.38167 0.29333 0.0
H5537 H 0.1723 0.40634 0.28737 0.0
H5538 H 0.1932 0.39357 0.29535 0.0
H5539 H 0.22743 0.39859 0.2624 0.0
H5540 H 0.28461 0.36197 0.28428 0.0
H5541 H 0.27141 0.38395 0.28623 0.0
C5542 C 0.21433 0.45302 0.02307 0.0
C5543 C 0.22613 0.45674 0.03603 0.0
C5544 C 0.20204 0.46041 0.02273 0.0
C5545 C 0.18228 0.48241 0.0493 0.0
H5546 H 0.16379 0.49471 0.00982 0.0
C5547 C 0.13831 0.52203 0.04791 0.0
C5548 C 0.1258 0.51801 0.03573 0.0
C5549 C 0.15035 0.51437 0.04766 0.0
C5550 C 0.16872 0.49118 0.02092 0.0
H5551 H 0.23441 0.47153 0.05861 0.0
H5552 H 0.21313 0.48453 0.05797 0.0
H5553 H 0.18525 0.48198 0.00989 0.0
H5554 H 0.11625 0.50277 0.01364 0.0
H5555 H 0.13723 0.48924 0.01329 0.0
H5556 H 0.16583 0.49171 0.06036 0.0
C5557 C 0.21317 0.47562 0.0482 0.0
C5558 C 0.18104 0.48387 0.02096 0.0
C5559 C 0.22541 0.46818 0.04856 0.0
C5560 C 0.12565 0.50608 0.02327 0.0
C5561 C 0.13775 0.49845 0.02299 0.0
C5562 C 0.17001 0.48976 0.04927 0.0
C5563 C 0.20126 0.47176 0.03533 0.0
C5564 C 0.18803 0.47943 0.03518 0.0
C5565 C 0.15024 0.50247 0.03521 0.0
C5566 C 0.1631 0.4943 0.03509 0.0
H5567 H 0.21441 0.4441 0.01331 0.0
H5568 H 0.19301 0.45694 0.01274 0.0
H5569 H 0.18714 0.47887 0.06042 0.0
H5570 H 0.13875 0.53099 0.0578 0.0
H5571 H 0.15983 0.51791 0.05718 0.0
C5572 C 0.85552 0.94766 0.22453 0.0
C5573 C 0.85855 0.96103 0.23623 0.0
C5574 C 0.84633 0.933 0.22682 0.0
C5575 C 0.83627 0.90808 0.2569 0.0
H5576 H 0.79791 0.88977 0.23038 0.0
C5577 C 0.79564 0.85431 0.27484 0.0
C5578 C 0.78641 0.84302 0.26287 0.0
C5579 C 0.80419 0.86859 0.27096 0.0
C5580 C 0.80871 0.8945 0.23774 0.0
H5581 H 0.85362 0.96953 0.25922 0.0
H5582 H 0.8383 0.94372 0.26345 0.0
H5583 H 0.81354 0.91471 0.2242 0.0
H5584 H 0.77895 0.83746 0.23748 0.0
H5585 H 0.79447 0.86202 0.23052 0.0
H5586 H 0.83198 0.88781 0.27013 0.0
C5587 C 0.84306 0.94471 0.25254 0.0
C5588 C 0.81758 0.90882 0.23422 0.0
C5589 C 0.85196 0.95942 0.25014 0.0
C5590 C 0.78588 0.84615 0.24693 0.0
C5591 C 0.79473 0.86026 0.24298 0.0
C5592 C 0.82761 0.8936 0.26022 0.0
C5593 C 0.84025 0.93141 0.24095 0.0
C5594 C 0.83129 0.91579 0.24392 0.0
C5595 C 0.80403 0.87169 0.25496 0.0
C5596 C 0.81357 0.88673 0.25086 0.0
H5597 H 0.86051 0.94834 0.21376 0.0
H5598 H 0.8443 0.92279 0.21777 0.0
H5599 H 0.84691 0.91325 0.26444 0.0
H5600 H 0.79616 0.85216 0.28724 0.0
H5601 H 0.81086 0.87722 0.28057 0.0
C5602 C 0.70368 0.06577 0.78337 0.0
C5603 C 0.69415 0.05988 0.76886 0.0
C5604 C 0.71313 0.08115 0.78527 0.0
C5605 C 0.72937 0.11402 0.76249 0.0
H5606 H 0.72803 0.14232 0.79991 0.0
C5607 C 0.73263 0.18512 0.77915 0.0
C5608 C 0.74444 0.19177 0.77124 0.0
C5609 C 0.72991 0.16878 0.7815 0.0
C5610 C 0.72855 0.13455 0.78941 0.0
H5611 H 0.68709 0.06551 0.745 0.0
H5612 H 0.70351 0.09216 0.74828 0.0
H5613 H 0.71679 0.11352 0.79828 0.0
H5614 H 0.76328 0.18695 0.76049 0.0
H5615 H 0.7587 0.15839 0.76481 0.0
H5616 H 0.74017 0.13509 0.75311 0.0
C5617 C 0.70394 0.08482 0.7581 0.0
C5618 C 0.72228 0.11803 0.78857 0.0
C5619 C 0.6945 0.06953 0.75622 0.0
C5620 C 0.75393 0.182 0.76638 0.0
C5621 C 0.7513 0.16569 0.76886 0.0
C5622 C 0.73555 0.13052 0.76329 0.0
C5623 C 0.71325 0.09087 0.77268 0.0
C5624 C 0.72218 0.10771 0.77485 0.0
C5625 C 0.73903 0.1588 0.77609 0.0
C5626 C 0.73479 0.14105 0.77654 0.0
H5627 H 0.70377 0.05853 0.79328 0.0
H5628 H 0.72027 0.08547 0.79661 0.0
H5629 H 0.72968 0.1063 0.75188 0.0
H5630 H 0.7251 0.19239 0.78292 0.0
H5631 H 0.72021 0.16384 0.78687 0.0
loop_
_geom_bond_atom_site_label_1
_geom_bond_atom_site_label_2
_geom_bond_distance
_geom_bond_site_symmetry_2
_ccdc_geom_bond_type
Li0 N17 1.990 . S
Li0 O60 1.956 1_655 S
Li0 O61 1.970 . S
Li0 O62 1.957 1_655 S
Li1 N25 1.990 . S
Li1 O60 1.970 . S
Li1 O61 1.956 1_455 S
Li1 O63 1.961 . S
Li2 N47 1.990 . S
Li2 O60 1.961 . S
Li2 O62 1.959 . S
Li2 O63 1.970 . S
Li3 N53 1.990 . S
Li3 O61 1.961 1_455 S
Li3 O62 1.970 . S
Li3 O63 1.956 . S
C4 C6 1.348 . S
C4 C7 1.356 . S
C4 O60 1.325 . S
N5 C8 1.314 . S
N5 C9 1.279 . S
C6 C4 1.348 . S
C6 C8 1.353 . S
C6 H64 0.939 . S
C7 C4 1.356 . S
C7 C9 1.358 . S
C7 H65 0.930 . S
C8 N5 1.314 . S
C8 C6 1.353 . S
C8 H66 0.930 . S
C9 N5 1.279 . S
C9 C7 1.358 . S
C9 H67 0.930 . S
C10 C13 1.348 . S
C10 C14 1.356 . S
C10 O61 1.325 . S
C11 N12 1.279 . S
C11 C14 1.358 . S
C11 H68 0.930 . S
N12 C11 1.279 . S
N12 C15 1.314 . S
C13 C10 1.348 . S
C13 C15 1.353 . S
C13 H69 0.929 . S
C14 C10 1.356 . S
C14 C11 1.358 . S
C14 H70 0.930 . S
C15 N12 1.314 . S
C15 C13 1.353 . S
C15 H71 0.930 . S
C16 N17 1.314 . S
C16 C21 1.353 . S
C16 H22 0.930 . S
N17 Li0 1.990 . S
N17 C16 1.314 . S
N17 C19 1.279 . S
C18 C19 1.358 . S
C18 C20 1.356 . S
C18 H72 0.930 . S
C19 N17 1.279 . S
C19 C18 1.358 . S
C19 H23 0.930 . S
C20 C18 1.356 . S
C20 C21 1.348 . S
C21 C16 1.353 . S
C21 C20 1.348 . S
C21 H73 0.929 . S
H22 C16 0.930 . S
H23 C19 0.930 . S
C24 N25 1.314 . S
C24 C26 1.353 . S
C24 H30 0.930 . S
N25 Li1 1.990 . S
N25 C24 1.314 . S
N25 C28 1.279 1_455 S
C26 C24 1.353 . S
C26 C29 1.348 . S
C26 H74 0.929 . S
C27 C28 1.366 1_455 S
C27 C29 1.390 . S
C27 H75 0.889 1_455 S
C28 N25 1.279 1_655 S
C28 C27 1.366 1_655 S
C28 H31 0.930 . S
C29 C26 1.348 . S
C29 C27 1.390 . S
H30 C24 0.930 . S
H31 C28 0.930 . S
C32 C34 1.348 1_655 S
C32 C35 1.356 . S
C32 O62 1.325 1_655 S
N33 C36 1.322 . S
N33 C37 1.279 . S
C34 C32 1.348 1_455 S
C34 C36 1.358 1_455 S
C34 H76 0.929 . S
C35 C32 1.356 . S
C35 C37 1.358 . S
C35 H77 0.930 . S
C36 N33 1.322 . S
C36 C34 1.358 1_655 S
C36 H78 0.917 1_655 S
C37 N33 1.279 . S
C37 C35 1.358 . S
C37 H79 0.930 . S
C38 C39 1.348 . S
C38 C40 1.356 . S
C38 O63 1.325 . S
C39 C38 1.348 . S
C39 C41 1.353 . S
C39 H80 0.929 . S
C40 C38 1.356 . S
C40 C42 1.358 . S
C40 H81 0.930 . S
C41 C39 1.353 . S
C41 N43 1.314 . S
C41 H82 0.930 . S
C42 C40 1.358 . S
C42 N43 1.279 . S
C42 H83 0.930 . S
N43 C41 1.314 . S
N43 C42 1.279 . S
C44 C46 1.353 . S
C44 N47 1.314 . S
C44 H50 0.930 . S
C45 N47 1.279 . S
C45 C48 1.358 . S
C45 H51 0.930 . S
C46 C44 1.353 . S
C46 C49 1.348 . S
C46 H84 0.929 . S
N47 Li2 1.990 . S
N47 C44 1.314 . S
N47 C45 1.279 . S
C48 C45 1.358 . S
C48 C49 1.356 . S
C48 H85 0.930 . S
C49 C46 1.348 . S
C49 C48 1.356 . S
H50 C44 0.930 . S
H51 C45 0.930 . S
C52 N53 1.314 1_655 S
C52 C54 1.353 . S
C52 H58 0.930 . S
N53 Li3 1.990 . S
N53 C52 1.314 1_455 S
N53 C56 1.279 . S
C54 C52 1.353 . S
C54 C57 1.348 1_655 S
C54 H86 0.929 . S
C55 C56 1.358 . S
C55 C57 1.356 . S
C55 H87 0.930 . S
C56 N53 1.279 . S
C56 C55 1.358 . S
C56 H59 0.930 . S
C57 C54 1.348 1_455 S
C57 C55 1.356 . S
H58 C52 0.930 . S
H59 C56 0.930 . S
O60 Li0 1.956 1_455 S
O60 Li1 1.970 . S
O60 Li2 1.961 . S
O60 C4 1.325 . S
O61 Li0 1.970 . S
O61 Li1 1.956 1_655 S
O61 Li3 1.961 1_655 S
O61 C10 1.325 . S
O62 Li0 1.957 1_455 S
O62 Li2 1.959 . S
O62 Li3 1.970 . S
O62 C32 1.325 1_455 S
O63 Li1 1.961 . S
O63 Li2 1.970 . S
O63 Li3 1.956 . S
O63 C38 1.325 . S
H64 C6 0.939 . S
H65 C7 0.930 . S
H66 C8 0.930 . S
H67 C9 0.930 . S
H68 C11 0.930 . S
H69 C13 0.929 . S
H70 C14 0.930 . S
H71 C15 0.930 . S
H72 C18 0.930 . S
H73 C21 0.929 . S
H74 C26 0.929 . S
H75 C27 0.889 1_655 S
H76 C34 0.929 . S
H77 C35 0.930 . S
H78 C36 0.917 1_455 S
H79 C37 0.930 . S
H80 C39 0.929 . S
H81 C40 0.930 . S
H82 C41 0.930 . S
H83 C42 0.930 . S
H84 C46 0.929 . S
H85 C48 0.930 . S
H86 C54 0.929 . S
H87 C55 0.930 . S
Li88 N105 1.990 . S
Li88 O148 1.956 . S
Li88 O149 1.970 . S
Li88 O150 1.961 . S
Li89 N113 1.990 . S
Li89 O148 1.970 . S
Li89 O149 1.956 . S
Li89 O151 1.961 . S
Li90 N135 1.990 . S
Li90 O148 1.961 . S
Li90 O150 1.956 . S
Li90 O151 1.970 . S
Li91 N141 1.990 . S
Li91 O149 1.961 . S
Li91 O150 1.970 . S
Li91 O151 1.956 . S
C92 C94 1.348 . S
C92 C95 1.356 . S
C92 O148 1.325 . S
N93 C96 1.314 . S
N93 C97 1.279 . S
C94 C92 1.348 . S
C94 C96 1.353 . S
C94 H152 0.929 . S
C95 C92 1.356 . S
C95 C97 1.358 . S
C95 H153 0.930 . S
C96 N93 1.314 . S
C96 C94 1.353 . S
C96 H154 0.930 . S
C97 N93 1.279 . S
C97 C95 1.358 . S
C97 H155 0.930 . S
C98 C101 1.348 . S
C98 C102 1.356 . S
C98 O149 1.325 . S
C99 N100 1.279 . S
C99 C102 1.358 . S
C99 H156 0.930 . S
N100 C99 1.279 . S
N100 C103 1.314 . S
C101 C98 1.348 . S
C101 C103 1.353 . S
C101 H157 0.929 . S
C102 C98 1.356 . S
C102 C99 1.358 . S
C102 H158 0.930 . S
C103 N100 1.314 . S
C103 C101 1.353 . S
C103 H159 0.930 . S
C104 N105 1.314 . S
C104 C109 1.353 . S
C104 H110 0.930 . S
N105 Li88 1.990 . S
N105 C104 1.314 . S
N105 C107 1.279 . S
C106 C107 1.358 . S
C106 C108 1.356 . S
C106 H160 0.930 . S
C107 N105 1.279 . S
C107 C106 1.358 . S
C107 H111 0.930 . S
C108 C106 1.356 . S
C108 C109 1.348 . S
C109 C104 1.353 . S
C109 C108 1.348 . S
C109 H161 0.929 . S
H110 C104 0.930 . S
H111 C107 0.930 . S
C112 N113 1.314 . S
C112 C114 1.353 . S
C112 H118 0.930 . S
N113 Li89 1.990 . S
N113 C112 1.314 . S
N113 C116 1.279 . S
C114 C112 1.353 . S
C114 C117 1.348 . S
C114 H162 0.929 . S
C115 C116 1.358 . S
C115 C117 1.356 . S
C115 H163 0.930 . S
C116 N113 1.279 . S
C116 C115 1.358 . S
C116 H119 0.930 . S
C117 C114 1.348 . S
C117 C115 1.356 . S
H118 C112 0.930 . S
H119 C116 0.930 . S
C120 C122 1.348 . S
C120 C123 1.356 . S
C120 O150 1.325 . S
N121 C124 1.314 . S
N121 C125 1.279 . S
C122 C120 1.348 . S
C122 C124 1.353 . S
C122 H164 0.929 . S
C123 C120 1.356 . S
C123 C125 1.358 . S
C123 H165 0.930 . S
C124 N121 1.314 . S
C124 C122 1.353 . S
C124 H166 0.930 1_455 S
C125 N121 1.279 . S
C125 C123 1.358 . S
C125 H167 0.930 . S
C126 C127 1.348 . S
C126 C128 1.356 . S
C126 O151 1.325 . S
C127 C126 1.348 . S
C127 C129 1.353 . S
C127 H168 0.929 . S
C128 C126 1.356 . S
C128 C130 1.358 . S
C128 H169 0.930 . S
C129 C127 1.353 . S
C129 N131 1.314 . S
C129 H170 0.930 . S
C130 C128 1.358 . S
C130 N131 1.279 . S
C130 H171 0.930 . S
N131 C129 1.314 . S
N131 C130 1.279 . S
C132 C134 1.353 . S
C132 N135 1.314 . S
C132 H138 0.930 . S
C133 N135 1.279 . S
C133 C136 1.358 . S
C133 H139 0.930 . S
C134 C132 1.353 . S
C134 C137 1.348 . S
C134 H172 0.929 . S
N135 Li90 1.990 . S
N135 C132 1.314 . S
N135 C133 1.279 . S
C136 C133 1.358 . S
C136 C137 1.356 . S
C136 H173 0.930 . S
C137 C134 1.348 . S
C137 C136 1.356 . S
H138 C132 0.930 . S
H139 C133 0.930 . S
C140 N141 1.314 . S
C140 C142 1.353 . S
C140 H146 0.930 . S
N141 Li91 1.990 . S
N141 C140 1.314 . S
N141 C144 1.279 . S
C142 C140 1.353 . S
C142 C145 1.348 . S
C142 H174 0.929 . S
C143 C144 1.358 . S
C143 C145 1.356 . S
C143 H175 0.930 . S
C144 N141 1.279 . S
C144 C143 1.358 . S
C144 H147 0.930 . S
C145 C142 1.348 . S
C145 C143 1.356 . S
H146 C140 0.930 . S
H147 C144 0.930 . S
O148 Li88 1.956 . S
O148 Li89 1.970 . S
O148 Li90 1.961 . S
O148 C92 1.325 . S
O149 Li88 1.970 . S
O149 Li89 1.956 . S
O149 Li91 1.961 . S
O149 C98 1.325 . S
O150 Li88 1.961 . S
O150 Li90 1.956 . S
O150 Li91 1.970 . S
O150 C120 1.325 . S
O151 Li89 1.961 . S
O151 Li90 1.970 . S
O151 Li91 1.956 . S
O151 C126 1.325 . S
H152 C94 0.929 . S
H153 C95 0.930 . S
H154 C96 0.930 . S
H155 C97 0.930 . S
H156 C99 0.930 . S
H157 C101 0.929 . S
H158 C102 0.930 . S
H159 C103 0.930 . S
H160 C106 0.930 . S
H161 C109 0.929 . S
H162 C114 0.929 . S
H163 C115 0.930 . S
H164 C122 0.929 . S
H165 C123 0.930 . S
H166 C124 0.930 1_655 S
H167 C125 0.930 . S
H168 C127 0.929 . S
H169 C128 0.930 . S
H170 C129 0.930 . S
H171 C130 0.930 . S
H172 C134 0.929 . S
H173 C136 0.930 . S
H174 C142 0.929 . S
H175 C143 0.930 . S
Li176 N193 1.990 . S
Li176 O236 1.956 . S
Li176 O237 1.970 . S
Li176 O238 1.961 . S
Li177 N201 1.990 . S
Li177 O236 1.970 . S
Li177 O237 1.956 . S
Li177 O239 1.961 . S
Li178 N223 1.990 . S
Li178 O236 1.961 . S
Li178 O238 1.956 . S
Li178 O239 1.970 . S
Li179 N229 1.990 . S
Li179 O237 1.961 . S
Li179 O238 1.970 . S
Li179 O239 1.956 . S
C180 C182 1.348 . S
C180 C183 1.356 . S
C180 O236 1.325 . S
N181 C184 1.314 . S
N181 C185 1.279 . S
C182 C180 1.348 . S
C182 C184 1.353 . S
C182 H240 0.929 . S
C183 C180 1.356 . S
C183 C185 1.358 . S
C183 H241 0.930 . S
C184 N181 1.314 . S
C184 C182 1.353 . S
C184 H242 0.930 . S
C185 N181 1.279 . S
C185 C183 1.358 . S
C185 H243 0.930 . S
C186 C189 1.348 . S
C186 C190 1.356 . S
C186 O237 1.325 . S
C187 N188 1.279 . S
C187 C190 1.358 . S
C187 H244 0.930 . S
N188 C187 1.279 . S
N188 C191 1.314 . S
C189 C186 1.348 . S
C189 C191 1.353 . S
C189 H245 0.929 . S
C190 C186 1.356 . S
C190 C187 1.358 . S
C190 H246 0.930 . S
C191 N188 1.314 . S
C191 C189 1.353 . S
C191 H247 0.930 . S
C192 N193 1.314 . S
C192 C197 1.353 . S
C192 H198 0.930 . S
N193 Li176 1.990 . S
N193 C192 1.314 . S
N193 C195 1.279 . S
C194 C195 1.358 . S
C194 C196 1.356 . S
C194 H248 0.930 . S
C195 N193 1.279 . S
C195 C194 1.358 . S
C195 H199 0.930 . S
C196 C194 1.356 . S
C196 C197 1.348 . S
C197 C192 1.353 . S
C197 C196 1.348 . S
C197 H249 0.929 . S
H198 C192 0.930 . S
H199 C195 0.930 . S
C200 N201 1.314 . S
C200 C202 1.353 . S
C200 H206 0.930 . S
N201 Li177 1.990 . S
N201 C200 1.314 . S
N201 C204 1.279 . S
C202 C200 1.353 . S
C202 C205 1.348 . S
C202 H250 0.929 . S
C203 C204 1.358 . S
C203 C205 1.356 . S
C203 H251 0.930 . S
C204 N201 1.279 . S
C204 C203 1.358 . S
C204 H207 0.930 . S
C205 C202 1.348 . S
C205 C203 1.356 . S
H206 C200 0.930 . S
H207 C204 0.930 . S
C208 C210 1.348 . S
C208 C211 1.356 . S
C208 O238 1.325 . S
N209 C212 1.314 . S
N209 C213 1.279 . S
C210 C208 1.348 . S
C210 C212 1.353 . S
C210 H252 0.929 . S
C211 C208 1.356 . S
C211 C213 1.358 . S
C211 H253 0.930 . S
C212 N209 1.314 . S
C212 C210 1.353 . S
C212 H254 0.930 . S
C213 N209 1.279 . S
C213 C211 1.358 . S
C213 H255 0.930 . S
C214 C215 1.348 . S
C214 C216 1.356 . S
C214 O239 1.325 . S
C215 C214 1.348 . S
C215 C217 1.353 . S
C215 H256 0.929 . S
C216 C214 1.356 . S
C216 C218 1.358 . S
C216 H257 0.930 . S
C217 C215 1.353 . S
C217 N219 1.314 . S
C217 H258 0.930 . S
C218 C216 1.358 . S
C218 N219 1.279 . S
C218 H259 0.930 . S
N219 C217 1.314 . S
N219 C218 1.279 . S
C220 C222 1.353 . S
C220 N223 1.314 . S
C220 H226 0.930 . S
C221 N223 1.279 . S
C221 C224 1.358 . S
C221 H227 0.930 . S
C222 C220 1.353 . S
C222 C225 1.348 . S
C222 H260 0.929 . S
N223 Li178 1.990 . S
N223 C220 1.314 . S
N223 C221 1.279 . S
C224 C221 1.358 . S
C224 C225 1.356 . S
C224 H261 0.930 . S
C225 C222 1.348 . S
C225 C224 1.356 . S
H226 C220 0.930 . S
H227 C221 0.930 . S
C228 N229 1.314 . S
C228 C230 1.353 . S
C228 H234 0.930 . S
N229 Li179 1.990 . S
N229 C228 1.314 . S
N229 C232 1.279 . S
C230 C228 1.353 . S
C230 C233 1.348 . S
C230 H262 0.929 . S
C231 C232 1.358 . S
C231 C233 1.356 . S
C231 H263 0.930 . S
C232 N229 1.279 . S
C232 C231 1.358 . S
C232 H235 0.930 . S
C233 C230 1.348 . S
C233 C231 1.356 . S
H234 C228 0.930 . S
H235 C232 0.930 . S
O236 Li176 1.956 . S
O236 Li177 1.970 . S
O236 Li178 1.961 . S
O236 C180 1.325 . S
O237 Li176 1.970 . S
O237 Li177 1.956 . S
O237 Li179 1.961 . S
O237 C186 1.325 . S
O238 Li176 1.961 . S
O238 Li178 1.956 . S
O238 Li179 1.970 . S
O238 C208 1.325 . S
O239 Li177 1.961 . S
O239 Li178 1.970 . S
O239 Li179 1.956 . S
O239 C214 1.325 . S
H240 C182 0.929 . S
H241 C183 0.930 . S
H242 C184 0.930 . S
H243 C185 0.930 . S
H244 C187 0.930 . S
H245 C189 0.929 . S
H246 C190 0.930 . S
H247 C191 0.930 . S
H248 C194 0.930 . S
H249 C197 0.929 . S
H250 C202 0.929 . S
H251 C203 0.930 . S
H252 C210 0.929 . S
H253 C211 0.930 . S
H254 C212 0.930 . S
H255 C213 0.930 . S
H256 C215 0.929 . S
H257 C216 0.930 . S
H258 C217 0.930 . S
H259 C218 0.930 . S
H260 C222 0.929 . S
H261 C224 0.930 . S
H262 C230 0.929 . S
H263 C231 0.930 . S
Li264 N281 1.990 . S
Li264 O324 1.956 . S
Li264 O325 1.970 . S
Li264 O326 1.961 . S
Li265 N289 1.990 . S
Li265 O324 1.970 . S
Li265 O325 1.956 . S
Li265 O327 1.961 . S
Li266 N311 1.990 . S
Li266 O324 1.961 . S
Li266 O326 1.956 . S
Li266 O327 1.970 . S
Li267 N317 1.990 . S
Li267 O325 1.961 . S
Li267 O326 1.970 . S
Li267 O327 1.956 . S
C268 C270 1.348 . S
C268 C271 1.356 . S
C268 O324 1.325 . S
N269 C272 1.314 . S
N269 C273 1.279 . S
C270 C268 1.348 . S
C270 C272 1.353 . S
C270 H328 0.929 . S
C271 C268 1.356 . S
C271 C273 1.358 . S
C271 H329 0.930 . S
C272 N269 1.314 . S
C272 C270 1.353 . S
C272 H330 0.930 . S
C273 N269 1.279 . S
C273 C271 1.358 . S
C273 H331 0.930 . S
C274 C277 1.348 . S
C274 C278 1.356 . S
C274 O325 1.325 . S
C275 N276 1.279 . S
C275 C278 1.358 . S
C275 H332 0.930 . S
N276 C275 1.279 . S
N276 C279 1.314 . S
C277 C274 1.348 . S
C277 C279 1.353 . S
C277 H333 0.929 . S
C278 C274 1.356 . S
C278 C275 1.358 . S
C278 H334 0.930 . S
C279 N276 1.314 . S
C279 C277 1.353 . S
C279 H335 0.930 . S
C280 N281 1.314 . S
C280 C285 1.353 . S
C280 H286 0.930 . S
N281 Li264 1.990 . S
N281 C280 1.314 . S
N281 C283 1.279 . S
C282 C283 1.358 . S
C282 C284 1.356 . S
C282 H336 0.930 . S
C283 N281 1.279 . S
C283 C282 1.358 . S
C283 H287 0.930 . S
C284 C282 1.356 . S
C284 C285 1.348 . S
C285 C280 1.353 . S
C285 C284 1.348 . S
C285 H337 0.929 . S
H286 C280 0.930 . S
H287 C283 0.930 . S
C288 N289 1.314 . S
C288 C290 1.353 . S
C288 H294 0.930 . S
N289 Li265 1.990 . S
N289 C288 1.314 . S
N289 C292 1.279 . S
C290 C288 1.353 . S
C290 C293 1.348 . S
C290 H338 0.929 . S
C291 C292 1.358 . S
C291 C293 1.356 . S
C291 H339 0.930 . S
C292 N289 1.279 . S
C292 C291 1.358 . S
C292 H295 0.930 . S
C293 C290 1.348 . S
C293 C291 1.356 . S
H294 C288 0.930 . S
H295 C292 0.930 . S
C296 C298 1.348 . S
C296 C299 1.356 . S
C296 O326 1.325 . S
N297 C300 1.314 . S
N297 C301 1.279 . S
C298 C296 1.348 . S
C298 C300 1.353 . S
C298 H340 0.929 . S
C299 C296 1.356 . S
C299 C301 1.358 . S
C299 H341 0.930 . S
C300 N297 1.314 . S
C300 C298 1.353 . S
C300 H342 0.930 . S
C301 N297 1.279 . S
C301 C299 1.358 . S
C301 H343 0.930 . S
C302 C303 1.348 . S
C302 C304 1.356 . S
C302 O327 1.325 . S
C303 C302 1.348 . S
C303 C305 1.353 . S
C303 H344 0.929 . S
C304 C302 1.356 . S
C304 C306 1.358 . S
C304 H345 0.930 . S
C305 C303 1.353 . S
C305 N307 1.314 . S
C305 H346 0.930 . S
C306 C304 1.358 . S
C306 N307 1.279 . S
C306 H347 0.930 . S
N307 C305 1.314 . S
N307 C306 1.279 . S
C308 C310 1.353 . S
C308 N311 1.314 . S
C308 H314 0.930 . S
C309 N311 1.279 . S
C309 C312 1.358 . S
C309 H315 0.930 . S
C310 C308 1.353 . S
C310 C313 1.348 . S
C310 H348 0.929 . S
N311 Li266 1.990 . S
N311 C308 1.314 . S
N311 C309 1.279 . S
C312 C309 1.358 . S
C312 C313 1.356 . S
C312 H349 0.930 . S
C313 C310 1.348 . S
C313 C312 1.356 . S
H314 C308 0.930 . S
H315 C309 0.930 . S
C316 N317 1.314 . S
C316 C318 1.353 . S
C316 H322 0.930 . S
N317 Li267 1.990 . S
N317 C316 1.314 . S
N317 C320 1.279 . S
C318 C316 1.353 . S
C318 C321 1.348 . S
C318 H350 0.929 . S
C319 C320 1.358 . S
C319 C321 1.356 . S
C319 H351 0.930 . S
C320 N317 1.279 . S
C320 C319 1.358 . S
C320 H323 0.930 . S
C321 C318 1.348 . S
C321 C319 1.356 . S
H322 C316 0.930 . S
H323 C320 0.930 . S
O324 Li264 1.956 . S
O324 Li265 1.970 . S
O324 Li266 1.961 . S
O324 C268 1.325 . S
O325 Li264 1.970 . S
O325 Li265 1.956 . S
O325 Li267 1.961 . S
O325 C274 1.325 . S
O326 Li264 1.961 . S
O326 Li266 1.956 . S
O326 Li267 1.970 . S
O326 C296 1.325 . S
O327 Li265 1.961 . S
O327 Li266 1.970 . S
O327 Li267 1.956 . S
O327 C302 1.325 . S
H328 C270 0.929 . S
H329 C271 0.930 . S
H330 C272 0.930 . S
H331 C273 0.930 . S
H332 C275 0.930 . S
H333 C277 0.929 . S
H334 C278 0.930 . S
H335 C279 0.930 . S
H336 C282 0.930 . S
H337 C285 0.929 . S
H338 C290 0.929 . S
H339 C291 0.930 . S
H340 C298 0.929 . S
H341 C299 0.930 . S
H342 C300 0.930 . S
H343 C301 0.930 . S
H344 C303 0.929 . S
H345 C304 0.930 . S
H346 C305 0.930 . S
H347 C306 0.930 . S
H348 C310 0.929 . S
H349 C312 0.930 . S
H350 C318 0.929 . S
H351 C319 0.930 . S
Li352 N369 1.990 . S
Li352 O412 1.956 . S
Li352 O413 1.970 . S
Li352 O414 1.961 . S
Li353 N377 1.990 . S
Li353 O412 1.970 . S
Li353 O413 1.956 . S
Li353 O415 1.961 . S
Li354 N399 1.990 . S
Li354 O412 1.961 . S
Li354 O414 1.956 . S
Li354 O415 1.970 . S
Li355 N405 1.990 . S
Li355 O413 1.961 . S
Li355 O414 1.970 . S
Li355 O415 1.956 . S
C356 C358 1.348 . S
C356 C359 1.356 . S
C356 O412 1.325 . S
N357 C360 1.314 . S
N357 C361 1.279 . S
C358 C356 1.348 . S
C358 C360 1.353 . S
C358 H416 0.929 . S
C359 C356 1.356 . S
C359 C361 1.358 . S
C359 H417 0.930 . S
C360 N357 1.314 . S
C360 C358 1.353 . S
C360 H418 0.930 . S
C361 N357 1.279 . S
C361 C359 1.358 . S
C361 H419 0.930 . S
C362 C365 1.348 . S
C362 C366 1.356 . S
C362 O413 1.325 . S
C363 N364 1.279 . S
C363 C366 1.358 . S
C363 H420 0.930 . S
N364 C363 1.279 . S
N364 C367 1.314 . S
C365 C362 1.348 . S
C365 C367 1.353 . S
C365 H421 0.929 . S
C366 C362 1.356 . S
C366 C363 1.358 . S
C366 H422 0.930 . S
C367 N364 1.314 . S
C367 C365 1.353 . S
C367 H423 0.930 . S
C368 N369 1.314 . S
C368 C373 1.353 . S
C368 H374 0.930 . S
N369 Li352 1.990 . S
N369 C368 1.314 . S
N369 C371 1.279 . S
C370 C371 1.358 . S
C370 C372 1.356 . S
C370 H424 0.930 . S
C371 N369 1.279 . S
C371 C370 1.358 . S
C371 H375 0.930 . S
C372 C370 1.356 . S
C372 C373 1.348 . S
C373 C368 1.353 . S
C373 C372 1.348 . S
C373 H425 0.929 . S
H374 C368 0.930 . S
H375 C371 0.930 . S
C376 N377 1.314 . S
C376 C378 1.353 . S
C376 H382 0.930 . S
N377 Li353 1.990 . S
N377 C376 1.314 . S
N377 C380 1.279 . S
C378 C376 1.353 . S
C378 C381 1.348 . S
C378 H426 0.929 . S
C379 C380 1.358 . S
C379 C381 1.356 . S
C379 H427 0.930 . S
C380 N377 1.279 . S
C380 C379 1.358 . S
C380 H383 0.930 . S
C381 C378 1.348 . S
C381 C379 1.356 . S
H382 C376 0.930 . S
H383 C380 0.930 . S
C384 C386 1.348 . S
C384 C387 1.356 . S
C384 O414 1.325 . S
N385 C388 1.314 . S
N385 C389 1.279 1_655 S
C386 C384 1.348 . S
C386 C388 1.353 1_455 S
C386 H428 0.929 . S
C387 C384 1.356 . S
C387 C389 1.358 . S
C387 H429 0.930 . S
C388 N385 1.314 . S
C388 C386 1.353 1_655 S
C388 H430 0.930 . S
C389 N385 1.279 1_455 S
C389 C387 1.358 . S
C389 H431 0.930 . S
C390 C391 1.348 . S
C390 C392 1.356 . S
C390 O415 1.325 . S
C391 C390 1.348 . S
C391 C393 1.353 . S
C391 H432 0.929 . S
C392 C390 1.356 . S
C392 C394 1.358 . S
C392 H433 0.930 . S
C393 C391 1.353 . S
C393 N395 1.314 . S
C393 H434 0.930 . S
C394 C392 1.358 . S
C394 N395 1.279 . S
C394 H435 0.930 . S
N395 C393 1.314 . S
N395 C394 1.279 . S
C396 C398 1.353 . S
C396 N399 1.314 . S
C396 H402 0.930 . S
C397 N399 1.279 . S
C397 C400 1.358 . S
C397 H403 0.930 . S
C398 C396 1.353 . S
C398 C401 1.348 . S
C398 H436 0.929 . S
N399 Li354 1.990 . S
N399 C396 1.314 . S
N399 C397 1.279 . S
C400 C397 1.358 . S
C400 C401 1.356 . S
C400 H437 0.930 . S
C401 C398 1.348 . S
C401 C400 1.356 . S
H402 C396 0.930 . S
H403 C397 0.930 . S
C404 N405 1.314 . S
C404 C406 1.353 1_455 S
C404 H410 0.930 . S
N405 Li355 1.990 . S
N405 C404 1.314 . S
N405 C408 1.279 . S
C406 C404 1.353 1_655 S
C406 C409 1.348 . S
C406 H438 0.929 . S
C407 C408 1.313 1_655 S
C407 C409 1.393 . S
C407 H439 0.941 . S
C408 N405 1.279 . S
C408 C407 1.313 1_455 S
C408 H411 0.930 . S
C409 C406 1.348 . S
C409 C407 1.393 . S
H410 C404 0.930 . S
H411 C408 0.930 . S
O412 Li352 1.956 . S
O412 Li353 1.970 . S
O412 Li354 1.961 . S
O412 C356 1.325 . S
O413 Li352 1.970 . S
O413 Li353 1.956 . S
O413 Li355 1.961 . S
O413 C362 1.325 . S
O414 Li352 1.961 . S
O414 Li354 1.956 . S
O414 Li355 1.970 . S
O414 C384 1.325 . S
O415 Li353 1.961 . S
O415 Li354 1.970 . S
O415 Li355 1.956 . S
O415 C390 1.325 . S
H416 C358 0.929 . S
H417 C359 0.930 . S
H418 C360 0.930 . S
H419 C361 0.930 . S
H420 C363 0.930 . S
H421 C365 0.929 . S
H422 C366 0.930 . S
H423 C367 0.930 . S
H424 C370 0.930 . S
H425 C373 0.929 . S
H426 C378 0.929 . S
H427 C379 0.930 . S
H428 C386 0.929 . S
H429 C387 0.930 . S
H430 C388 0.930 . S
H431 C389 0.930 . S
H432 C391 0.929 . S
H433 C392 0.930 . S
H434 C393 0.930 . S
H435 C394 0.930 . S
H436 C398 0.929 . S
H437 C400 0.930 . S
H438 C406 0.929 . S
H439 C407 0.941 . S
Li440 N457 1.990 . S
Li440 O500 1.956 . S
Li440 O501 1.970 . S
Li440 O502 1.961 . S
Li441 N465 1.990 . S
Li441 O500 1.970 . S
Li441 O501 1.956 . S
Li441 O503 1.961 . S
Li442 N487 1.990 . S
Li442 O500 1.961 . S
Li442 O502 1.956 . S
Li442 O503 1.970 . S
Li443 N493 1.990 . S
Li443 O501 1.961 . S
Li443 O502 1.970 . S
Li443 O503 1.956 . S
C444 C446 1.348 . S
C444 C447 1.356 . S
C444 O500 1.325 . S
N445 C448 1.314 . S
N445 C449 1.279 . S
C446 C444 1.348 . S
C446 C448 1.353 . S
C446 H504 0.929 . S
C447 C444 1.356 . S
C447 C449 1.358 . S
C447 H505 0.930 . S
C448 N445 1.314 . S
C448 C446 1.353 . S
C448 H506 0.930 . S
C449 N445 1.279 . S
C449 C447 1.358 . S
C449 H507 0.930 . S
C450 C453 1.348 . S
C450 C454 1.356 . S
C450 O501 1.325 . S
C451 N452 1.279 . S
C451 C454 1.358 . S
C451 H508 0.930 . S
N452 C451 1.279 . S
N452 C455 1.314 . S
C453 C450 1.348 . S
C453 C455 1.353 . S
C453 H509 0.929 . S
C454 C450 1.356 . S
C454 C451 1.358 . S
C454 H510 0.930 . S
C455 N452 1.314 . S
C455 C453 1.353 . S
C455 H511 0.930 . S
C456 N457 1.314 . S
C456 C461 1.353 . S
C456 H462 0.930 . S
N457 Li440 1.990 . S
N457 C456 1.314 . S
N457 C459 1.279 . S
C458 C459 1.358 . S
C458 C460 1.356 . S
C458 H512 0.930 . S
C459 N457 1.279 . S
C459 C458 1.358 . S
C459 H463 0.930 . S
C460 C458 1.356 . S
C460 C461 1.348 . S
C461 C456 1.353 . S
C461 C460 1.348 . S
C461 H513 0.929 . S
H462 C456 0.930 . S
H463 C459 0.930 . S
C464 N465 1.314 . S
C464 C466 1.353 . S
C464 H470 0.930 . S
N465 Li441 1.990 . S
N465 C464 1.314 . S
N465 C468 1.279 . S
C466 C464 1.353 . S
C466 C469 1.348 . S
C466 H514 0.929 . S
C467 C468 1.358 . S
C467 C469 1.356 . S
C467 H515 0.930 . S
C468 N465 1.279 . S
C468 C467 1.358 . S
C468 H471 0.930 . S
C469 C466 1.348 . S
C469 C467 1.356 . S
H470 C464 0.930 . S
H471 C468 0.930 . S
C472 C474 1.348 . S
C472 C475 1.356 . S
C472 O502 1.325 . S
N473 C476 1.314 . S
N473 C477 1.279 . S
C474 C472 1.348 . S
C474 C476 1.353 . S
C474 H516 0.929 . S
C475 C472 1.356 . S
C475 C477 1.358 . S
C475 H517 0.930 . S
C476 N473 1.314 . S
C476 C474 1.353 . S
C476 H518 0.930 . S
C477 N473 1.279 . S
C477 C475 1.358 . S
C477 H519 0.930 . S
C478 C479 1.348 . S
C478 C480 1.356 . S
C478 O503 1.325 . S
C479 C478 1.348 . S
C479 C481 1.353 . S
C479 H520 0.929 . S
C480 C478 1.356 . S
C480 C482 1.358 . S
C480 H521 0.930 . S
C481 C479 1.353 . S
C481 N483 1.314 . S
C481 H522 0.930 . S
C482 C480 1.358 . S
C482 N483 1.279 . S
C482 H523 0.930 . S
N483 C481 1.314 . S
N483 C482 1.279 . S
C484 C486 1.353 . S
C484 N487 1.314 . S
C484 H490 0.930 . S
C485 N487 1.279 . S
C485 C488 1.358 . S
C485 H491 0.930 . S
C486 C484 1.353 . S
C486 C489 1.348 . S
C486 H524 0.929 . S
N487 Li442 1.990 . S
N487 C484 1.314 . S
N487 C485 1.279 . S
C488 C485 1.358 . S
C488 C489 1.356 . S
C488 H525 0.930 . S
C489 C486 1.348 . S
C489 C488 1.356 . S
H490 C484 0.930 . S
H491 C485 0.930 . S
C492 N493 1.314 . S
C492 C494 1.353 . S
C492 H498 0.930 . S
N493 Li443 1.990 . S
N493 C492 1.314 . S
N493 C496 1.279 . S
C494 C492 1.353 . S
C494 C497 1.348 . S
C494 H526 0.929 . S
C495 C496 1.358 . S
C495 C497 1.356 . S
C495 H527 0.930 . S
C496 N493 1.279 . S
C496 C495 1.358 . S
C496 H499 0.930 . S
C497 C494 1.348 . S
C497 C495 1.356 . S
H498 C492 0.930 . S
H499 C496 0.930 . S
O500 Li440 1.956 . S
O500 Li441 1.970 . S
O500 Li442 1.961 . S
O500 C444 1.325 . S
O501 Li440 1.970 . S
O501 Li441 1.956 . S
O501 Li443 1.961 . S
O501 C450 1.325 . S
O502 Li440 1.961 . S
O502 Li442 1.956 . S
O502 Li443 1.970 . S
O502 C472 1.325 . S
O503 Li441 1.961 . S
O503 Li442 1.970 . S
O503 Li443 1.956 . S
O503 C478 1.325 . S
H504 C446 0.929 . S
H505 C447 0.930 . S
H506 C448 0.930 . S
H507 C449 0.930 . S
H508 C451 0.930 . S
H509 C453 0.929 . S
H510 C454 0.930 . S
H511 C455 0.930 . S
H512 C458 0.930 . S
H513 C461 0.929 . S
H514 C466 0.929 . S
H515 C467 0.930 . S
H516 C474 0.929 . S
H517 C475 0.930 . S
H518 C476 0.930 . S
H519 C477 0.930 . S
H520 C479 0.929 . S
H521 C480 0.930 . S
H522 C481 0.930 . S
H523 C482 0.930 . S
H524 C486 0.929 . S
H525 C488 0.930 . S
H526 C494 0.929 . S
H527 C495 0.930 . S
Li528 N545 1.990 . S
Li528 O588 1.956 . S
Li528 O589 1.970 . S
Li528 O590 1.961 . S
Li529 N553 1.990 . S
Li529 O588 1.970 . S
Li529 O589 1.956 . S
Li529 O591 1.961 . S
Li530 N575 1.990 . S
Li530 O588 1.961 . S
Li530 O590 1.956 . S
Li530 O591 1.970 . S
Li531 N581 1.990 . S
Li531 O589 1.961 . S
Li531 O590 1.970 . S
Li531 O591 1.956 . S
C532 C534 1.348 . S
C532 C535 1.356 . S
C532 O588 1.325 . S
N533 C536 1.314 . S
N533 C537 1.279 . S
C534 C532 1.348 . S
C534 C536 1.353 . S
C534 H592 0.929 . S
C535 C532 1.356 . S
C535 C537 1.358 . S
C535 H593 0.930 . S
C536 N533 1.314 . S
C536 C534 1.353 . S
C536 H594 0.930 . S
C537 N533 1.279 . S
C537 C535 1.358 . S
C537 H595 0.930 . S
C538 C541 1.348 . S
C538 C542 1.356 . S
C538 O589 1.325 . S
C539 N540 1.279 . S
C539 C542 1.358 . S
C539 H596 0.930 . S
N540 C539 1.279 . S
N540 C543 1.314 . S
C541 C538 1.348 . S
C541 C543 1.353 . S
C541 H597 0.929 . S
C542 C538 1.356 . S
C542 C539 1.358 . S
C542 H598 0.930 . S
C543 N540 1.314 . S
C543 C541 1.353 . S
C543 H599 0.930 . S
C544 N545 1.314 . S
C544 C549 1.353 . S
C544 H550 0.930 . S
N545 Li528 1.990 . S
N545 C544 1.314 . S
N545 C547 1.279 . S
C546 C547 1.358 . S
C546 C548 1.356 . S
C546 H600 0.930 . S
C547 N545 1.279 . S
C547 C546 1.358 . S
C547 H551 0.930 . S
C548 C546 1.356 . S
C548 C549 1.348 . S
C549 C544 1.353 . S
C549 C548 1.348 . S
C549 H601 0.929 . S
H550 C544 0.930 . S
H551 C547 0.930 . S
C552 N553 1.314 . S
C552 C554 1.353 . S
C552 H558 0.930 . S
N553 Li529 1.990 . S
N553 C552 1.314 . S
N553 C556 1.279 . S
C554 C552 1.353 . S
C554 C557 1.348 . S
C554 H602 0.929 . S
C555 C556 1.358 . S
C555 C557 1.356 . S
C555 H603 0.930 . S
C556 N553 1.279 . S
C556 C555 1.358 . S
C556 H559 0.930 . S
C557 C554 1.348 . S
C557 C555 1.356 . S
H558 C552 0.930 . S
H559 C556 0.930 . S
C560 C562 1.348 . S
C560 C563 1.356 . S
C560 O590 1.325 . S
N561 C564 1.314 . S
N561 C565 1.279 . S
C562 C560 1.348 . S
C562 C564 1.353 . S
C562 H604 0.929 . S
C563 C560 1.356 . S
C563 C565 1.358 . S
C563 H605 0.930 . S
C564 N561 1.314 . S
C564 C562 1.353 . S
C564 H606 0.930 . S
C565 N561 1.279 . S
C565 C563 1.358 . S
C565 H607 0.930 . S
C566 C567 1.348 . S
C566 C568 1.356 . S
C566 O591 1.325 . S
C567 C566 1.348 . S
C567 C569 1.353 . S
C567 H608 0.929 . S
C568 C566 1.356 . S
C568 C570 1.358 . S
C568 H609 0.930 . S
C569 C567 1.353 . S
C569 N571 1.314 . S
C569 H610 0.930 . S
C570 C568 1.358 . S
C570 N571 1.279 . S
C570 H611 0.930 . S
N571 C569 1.314 . S
N571 C570 1.279 . S
C572 C574 1.353 . S
C572 N575 1.314 . S
C572 H578 0.930 . S
C573 N575 1.279 . S
C573 C576 1.358 . S
C573 H579 0.930 . S
C574 C572 1.353 . S
C574 C577 1.348 . S
C574 H612 0.929 . S
N575 Li530 1.990 . S
N575 C572 1.314 . S
N575 C573 1.279 . S
C576 C573 1.358 . S
C576 C577 1.356 . S
C576 H613 0.930 . S
C577 C574 1.348 . S
C577 C576 1.356 . S
H578 C572 0.930 . S
H579 C573 0.930 . S
C580 N581 1.314 . S
C580 C582 1.353 . S
C580 H586 0.930 . S
N581 Li531 1.990 . S
N581 C580 1.314 . S
N581 C584 1.279 . S
C582 C580 1.353 . S
C582 C585 1.348 . S
C582 H614 0.929 . S
C583 C584 1.358 . S
C583 C585 1.356 . S
C583 H615 0.930 . S
C584 N581 1.279 . S
C584 C583 1.358 . S
C584 H587 0.930 . S
C585 C582 1.348 . S
C585 C583 1.356 . S
H586 C580 0.930 . S
H587 C584 0.930 . S
O588 Li528 1.956 . S
O588 Li529 1.970 . S
O588 Li530 1.961 . S
O588 C532 1.325 . S
O589 Li528 1.970 . S
O589 Li529 1.956 . S
O589 Li531 1.961 . S
O589 C538 1.325 . S
O590 Li528 1.961 . S
O590 Li530 1.956 . S
O590 Li531 1.970 . S
O590 C560 1.325 . S
O591 Li529 1.961 . S
O591 Li530 1.970 . S
O591 Li531 1.956 . S
O591 C566 1.325 . S
H592 C534 0.929 . S
H593 C535 0.930 . S
H594 C536 0.930 . S
H595 C537 0.930 . S
H596 C539 0.930 . S
H597 C541 0.929 . S
H598 C542 0.930 . S
H599 C543 0.930 . S
H600 C546 0.930 . S
H601 C549 0.929 . S
H602 C554 0.929 . S
H603 C555 0.930 . S
H604 C562 0.929 . S
H605 C563 0.930 . S
H606 C564 0.930 . S
H607 C565 0.930 . S
H608 C567 0.929 . S
H609 C568 0.930 . S
H610 C569 0.930 . S
H611 C570 0.930 . S
H612 C574 0.929 . S
H613 C576 0.930 . S
H614 C582 0.929 . S
H615 C583 0.930 . S
Li616 N633 1.990 . S
Li616 O676 1.987 . S
Li616 O677 1.970 . S
Li616 O678 1.961 . S
Li617 N641 1.979 1_455 S
Li617 O676 1.975 . S
Li617 O677 1.965 . S
Li617 O679 1.971 . S
Li618 N663 1.990 . S
Li618 O676 2.000 . S
Li618 O678 1.956 . S
Li618 O679 1.970 . S
Li619 N669 1.990 . S
Li619 O677 1.961 . S
Li619 O678 1.970 . S
Li619 O679 1.956 . S
C620 C622 1.348 . S
C620 C623 1.356 . S
C620 O676 1.286 1_655 S
N621 C624 1.314 . S
N621 C625 1.279 . S
C622 C620 1.348 . S
C622 C624 1.353 . S
C622 H680 0.929 . S
C623 C620 1.356 . S
C623 C625 1.358 . S
C623 H681 0.930 1_655 S
C624 N621 1.314 . S
C624 C622 1.353 . S
C624 H682 0.930 . S
C625 N621 1.279 . S
C625 C623 1.358 . S
C625 H683 0.930 . S
C626 C629 1.348 . S
C626 C630 1.356 . S
C626 O677 1.325 . S
C627 N628 1.279 . S
C627 C630 1.358 . S
C627 H684 0.930 . S
N628 C627 1.279 . S
N628 C631 1.314 . S
C629 C626 1.348 . S
C629 C631 1.353 . S
C629 H685 0.929 . S
C630 C626 1.356 . S
C630 C627 1.358 . S
C630 H686 0.930 . S
C631 N628 1.314 . S
C631 C629 1.353 . S
C631 H687 0.930 . S
C632 N633 1.314 . S
C632 C637 1.353 . S
C632 H638 0.930 . S
N633 Li616 1.990 . S
N633 C632 1.314 . S
N633 C635 1.279 . S
C634 C635 1.358 . S
C634 C636 1.356 . S
C634 H688 0.930 . S
C635 N633 1.279 . S
C635 C634 1.358 . S
C635 H639 0.930 . S
C636 C634 1.356 . S
C636 C637 1.348 . S
C637 C632 1.353 . S
C637 C636 1.348 . S
C637 H689 0.929 . S
H638 C632 0.930 . S
H639 C635 0.930 . S
C640 N641 1.314 . S
C640 C642 1.353 . S
C640 H646 0.930 . S
N641 Li617 1.979 1_655 S
N641 C640 1.314 . S
N641 C644 1.279 . S
C642 C640 1.353 . S
C642 C645 1.348 . S
C642 H690 0.929 . S
C643 C644 1.358 . S
C643 C645 1.356 . S
C643 H691 0.930 . S
C644 N641 1.279 . S
C644 C643 1.358 . S
C644 H647 0.930 . S
C645 C642 1.348 . S
C645 C643 1.356 . S
H646 C640 0.930 . S
H647 C644 0.930 . S
C648 C650 1.348 . S
C648 C651 1.356 . S
C648 O678 1.325 . S
N649 C652 1.314 . S
N649 C653 1.279 . S
C650 C648 1.348 . S
C650 C652 1.353 . S
C650 H692 0.929 . S
C651 C648 1.356 . S
C651 C653 1.358 . S
C651 H693 0.930 . S
C652 N649 1.314 . S
C652 C650 1.353 . S
C652 H694 0.930 . S
C653 N649 1.279 . S
C653 C651 1.358 . S
C653 H695 0.930 . S
C654 C655 1.348 . S
C654 C656 1.356 . S
C654 O679 1.325 . S
C655 C654 1.348 . S
C655 C657 1.353 . S
C655 H696 0.929 . S
C656 C654 1.356 . S
C656 C658 1.358 . S
C656 H697 0.930 . S
C657 C655 1.353 . S
C657 N659 1.314 . S
C657 H698 0.930 . S
C658 C656 1.358 . S
C658 N659 1.279 . S
C658 H699 0.930 . S
N659 C657 1.314 . S
N659 C658 1.279 . S
C660 C662 1.353 . S
C660 N663 1.314 . S
C660 H666 0.930 1_455 S
C661 N663 1.279 . S
C661 C664 1.358 . S
C661 H667 0.930 . S
C662 C660 1.353 . S
C662 C665 1.348 . S
C662 H700 0.929 1_455 S
N663 Li618 1.990 . S
N663 C660 1.314 . S
N663 C661 1.279 . S
C664 C661 1.358 . S
C664 C665 1.356 . S
C664 H701 0.930 . S
C665 C662 1.348 . S
C665 C664 1.356 . S
H666 C660 0.930 1_655 S
H667 C661 0.930 . S
C668 N669 1.314 . S
C668 C670 1.353 . S
C668 H674 0.930 . S
N669 Li619 1.990 . S
N669 C668 1.314 . S
N669 C672 1.279 . S
C670 C668 1.353 . S
C670 C673 1.348 . S
C670 H702 0.929 . S
C671 C672 1.358 . S
C671 C673 1.356 . S
C671 H703 0.930 . S
C672 N669 1.279 . S
C672 C671 1.358 . S
C672 H675 0.930 . S
C673 C670 1.348 . S
C673 C671 1.356 . S
H674 C668 0.930 . S
H675 C672 0.930 . S
O676 Li616 1.987 . S
O676 Li617 1.975 . S
O676 Li618 2.000 . S
O676 C620 1.286 1_455 S
O677 Li616 1.970 . S
O677 Li617 1.965 . S
O677 Li619 1.961 . S
O677 C626 1.325 . S
O678 Li616 1.961 . S
O678 Li618 1.956 . S
O678 Li619 1.970 . S
O678 C648 1.325 . S
O679 Li617 1.971 . S
O679 Li618 1.970 . S
O679 Li619 1.956 . S
O679 C654 1.325 . S
H680 C622 0.929 . S
H681 C623 0.930 1_455 S
H682 C624 0.930 . S
H683 C625 0.930 . S
H684 C627 0.930 . S
H685 C629 0.929 . S
H686 C630 0.930 . S
H687 C631 0.930 . S
H688 C634 0.930 . S
H689 C637 0.929 . S
H690 C642 0.929 . S
H691 C643 0.930 . S
H692 C650 0.929 . S
H693 C651 0.930 . S
H694 C652 0.930 . S
H695 C653 0.930 . S
H696 C655 0.929 . S
H697 C656 0.930 . S
H698 C657 0.930 . S
H699 C658 0.930 . S
H700 C662 0.929 1_655 S
H701 C664 0.930 . S
H702 C670 0.929 . S
H703 C671 0.930 . S
Li704 N721 1.990 . S
Li704 O764 1.956 . S
Li704 O765 1.970 . S
Li704 O766 1.961 . S
Li705 N729 1.990 . S
Li705 O764 1.970 . S
Li705 O765 1.956 . S
Li705 O767 1.961 . S
Li706 N751 1.990 . S
Li706 O764 1.961 . S
Li706 O766 1.956 . S
Li706 O767 1.970 . S
Li707 N757 1.990 . S
Li707 O765 1.961 . S
Li707 O766 1.970 . S
Li707 O767 1.956 . S
C708 C710 1.348 . S
C708 C711 1.356 . S
C708 O764 1.325 . S
N709 C712 1.314 . S
N709 C713 1.279 . S
C710 C708 1.348 . S
C710 C712 1.353 . S
C710 H768 0.929 . S
C711 C708 1.356 . S
C711 C713 1.358 . S
C711 H769 0.930 . S
C712 N709 1.314 . S
C712 C710 1.353 . S
C712 H770 0.930 . S
C713 N709 1.279 . S
C713 C711 1.358 . S
C713 H771 0.930 . S
C714 C717 1.348 . S
C714 C718 1.356 . S
C714 O765 1.325 . S
C715 N716 1.279 . S
C715 C718 1.358 . S
C715 H772 0.930 . S
N716 C715 1.279 . S
N716 C719 1.314 . S
C717 C714 1.348 . S
C717 C719 1.353 . S
C717 H773 0.929 . S
C718 C714 1.356 . S
C718 C715 1.358 . S
C718 H774 0.930 . S
C719 N716 1.314 . S
C719 C717 1.353 . S
C719 H775 0.930 . S
C720 N721 1.314 . S
C720 C725 1.353 . S
C720 H726 0.930 . S
N721 Li704 1.990 . S
N721 C720 1.314 . S
N721 C723 1.279 . S
C722 C723 1.358 . S
C722 C724 1.356 . S
C722 H776 0.930 . S
C723 N721 1.279 . S
C723 C722 1.358 . S
C723 H727 0.930 . S
C724 C722 1.356 . S
C724 C725 1.348 . S
C725 C720 1.353 . S
C725 C724 1.348 . S
C725 H777 0.929 . S
H726 C720 0.930 . S
H727 C723 0.930 . S
C728 N729 1.314 . S
C728 C730 1.353 . S
C728 H734 0.930 . S
N729 Li705 1.990 . S
N729 C728 1.314 . S
N729 C732 1.279 . S
C730 C728 1.353 . S
C730 C733 1.348 . S
C730 H778 0.929 . S
C731 C732 1.358 . S
C731 C733 1.356 . S
C731 H779 0.930 . S
C732 N729 1.279 . S
C732 C731 1.358 . S
C732 H735 0.930 . S
C733 C730 1.348 . S
C733 C731 1.356 . S
H734 C728 0.930 . S
H735 C732 0.930 . S
C736 C738 1.348 . S
C736 C739 1.356 . S
C736 O766 1.325 . S
N737 C740 1.314 . S
N737 C741 1.279 . S
C738 C736 1.348 . S
C738 C740 1.353 . S
C738 H780 0.929 . S
C739 C736 1.356 . S
C739 C741 1.358 . S
C739 H781 0.930 . S
C740 N737 1.314 . S
C740 C738 1.353 . S
C740 H782 0.930 . S
C741 N737 1.279 . S
C741 C739 1.358 . S
C741 H783 0.930 . S
C742 C743 1.348 . S
C742 C744 1.356 . S
C742 O767 1.325 . S
C743 C742 1.348 . S
C743 C745 1.353 . S
C743 H784 0.929 . S
C744 C742 1.356 . S
C744 C746 1.358 . S
C744 H785 0.930 . S
C745 C743 1.353 . S
C745 N747 1.314 . S
C745 H786 0.930 . S
C746 C744 1.358 . S
C746 N747 1.279 . S
C746 H787 0.930 . S
N747 C745 1.314 . S
N747 C746 1.279 . S
C748 C750 1.353 . S
C748 N751 1.314 . S
C748 H754 0.930 . S
C749 N751 1.279 . S
C749 C752 1.358 . S
C749 H755 0.930 . S
C750 C748 1.353 . S
C750 C753 1.348 . S
C750 H788 0.929 . S
N751 Li706 1.990 . S
N751 C748 1.314 . S
N751 C749 1.279 . S
C752 C749 1.358 . S
C752 C753 1.356 . S
C752 H789 0.930 . S
C753 C750 1.348 . S
C753 C752 1.356 . S
H754 C748 0.930 . S
H755 C749 0.930 . S
C756 N757 1.314 . S
C756 C758 1.353 . S
C756 H762 0.930 . S
N757 Li707 1.990 . S
N757 C756 1.314 . S
N757 C760 1.279 . S
C758 C756 1.353 . S
C758 C761 1.348 . S
C758 H790 0.929 . S
C759 C760 1.358 . S
C759 C761 1.356 . S
C759 H791 0.930 . S
C760 N757 1.279 . S
C760 C759 1.358 . S
C760 H763 0.930 . S
C761 C758 1.348 . S
C761 C759 1.356 . S
H762 C756 0.930 . S
H763 C760 0.930 . S
O764 Li704 1.956 . S
O764 Li705 1.970 . S
O764 Li706 1.961 . S
O764 C708 1.325 . S
O765 Li704 1.970 . S
O765 Li705 1.956 . S
O765 Li707 1.961 . S
O765 C714 1.325 . S
O766 Li704 1.961 . S
O766 Li706 1.956 . S
O766 Li707 1.970 . S
O766 C736 1.325 . S
O767 Li705 1.961 . S
O767 Li706 1.970 . S
O767 Li707 1.956 . S
O767 C742 1.325 . S
H768 C710 0.929 . S
H769 C711 0.930 . S
H770 C712 0.930 . S
H771 C713 0.930 . S
H772 C715 0.930 . S
H773 C717 0.929 . S
H774 C718 0.930 . S
H775 C719 0.930 . S
H776 C722 0.930 . S
H777 C725 0.929 . S
H778 C730 0.929 . S
H779 C731 0.930 . S
H780 C738 0.929 . S
H781 C739 0.930 . S
H782 C740 0.930 . S
H783 C741 0.930 . S
H784 C743 0.929 . S
H785 C744 0.930 . S
H786 C745 0.930 . S
H787 C746 0.930 . S
H788 C750 0.929 . S
H789 C752 0.930 . S
H790 C758 0.929 . S
H791 C759 0.930 . S
Li792 N809 1.990 . S
Li792 O852 1.956 . S
Li792 O853 1.970 . S
Li792 O854 1.961 . S
Li793 N817 1.990 . S
Li793 O852 1.970 . S
Li793 O853 1.956 . S
Li793 O855 1.961 . S
Li794 N839 1.990 . S
Li794 O852 1.961 . S
Li794 O854 1.956 . S
Li794 O855 1.970 . S
Li795 N845 1.990 . S
Li795 O853 1.961 . S
Li795 O854 1.970 . S
Li795 O855 1.956 . S
C796 C798 1.348 . S
C796 C799 1.356 . S
C796 O852 1.325 . S
N797 C800 1.314 . S
N797 C801 1.279 . S
C798 C796 1.348 . S
C798 C800 1.353 . S
C798 H856 0.929 . S
C799 C796 1.356 . S
C799 C801 1.358 . S
C799 H857 0.930 . S
C800 N797 1.314 . S
C800 C798 1.353 . S
C800 H858 0.930 . S
C801 N797 1.279 . S
C801 C799 1.358 . S
C801 H859 0.930 . S
C802 C805 1.348 . S
C802 C806 1.356 . S
C802 O853 1.325 . S
C803 N804 1.279 . S
C803 C806 1.358 . S
C803 H860 0.930 . S
N804 C803 1.279 . S
N804 C807 1.314 . S
C805 C802 1.348 . S
C805 C807 1.353 . S
C805 H861 0.929 . S
C806 C802 1.356 . S
C806 C803 1.358 . S
C806 H862 0.930 . S
C807 N804 1.314 . S
C807 C805 1.353 . S
C807 H863 0.930 . S
C808 N809 1.314 . S
C808 C813 1.353 . S
C808 H814 0.930 . S
N809 Li792 1.990 . S
N809 C808 1.314 . S
N809 C811 1.279 . S
C810 C811 1.358 . S
C810 C812 1.356 . S
C810 H864 0.930 . S
C811 N809 1.279 . S
C811 C810 1.358 . S
C811 H815 0.930 . S
C812 C810 1.356 . S
C812 C813 1.348 . S
C813 C808 1.353 . S
C813 C812 1.348 . S
C813 H865 0.929 . S
H814 C808 0.930 . S
H815 C811 0.930 . S
C816 N817 1.314 . S
C816 C818 1.353 . S
C816 H822 0.930 . S
N817 Li793 1.990 . S
N817 C816 1.314 . S
N817 C820 1.279 . S
C818 C816 1.353 . S
C818 C821 1.348 . S
C818 H866 0.929 . S
C819 C820 1.358 . S
C819 C821 1.356 . S
C819 H867 0.930 . S
C820 N817 1.279 . S
C820 C819 1.358 . S
C820 H823 0.930 . S
C821 C818 1.348 . S
C821 C819 1.356 . S
H822 C816 0.930 . S
H823 C820 0.930 . S
C824 C826 1.348 . S
C824 C827 1.356 . S
C824 O854 1.325 . S
N825 C828 1.314 . S
N825 C829 1.279 . S
C826 C824 1.348 . S
C826 C828 1.353 . S
C826 H868 0.929 . S
C827 C824 1.356 . S
C827 C829 1.358 . S
C827 H869 0.930 . S
C828 N825 1.314 . S
C828 C826 1.353 . S
C828 H870 0.930 . S
C829 N825 1.279 . S
C829 C827 1.358 . S
C829 H871 0.930 . S
C830 C831 1.348 . S
C830 C832 1.356 . S
C830 O855 1.325 . S
C831 C830 1.348 . S
C831 C833 1.353 . S
C831 H872 0.929 . S
C832 C830 1.356 . S
C832 C834 1.358 . S
C832 H873 0.930 . S
C833 C831 1.353 . S
C833 N835 1.314 . S
C833 H874 0.930 . S
C834 C832 1.358 . S
C834 N835 1.279 . S
C834 H875 0.930 . S
N835 C833 1.314 . S
N835 C834 1.279 . S
C836 C838 1.353 . S
C836 N839 1.314 . S
C836 H842 0.930 . S
C837 N839 1.279 . S
C837 C840 1.358 . S
C837 H843 0.930 . S
C838 C836 1.353 . S
C838 C841 1.348 . S
C838 H876 0.929 . S
N839 Li794 1.990 . S
N839 C836 1.314 . S
N839 C837 1.279 . S
C840 C837 1.358 . S
C840 C841 1.356 . S
C840 H877 0.930 . S
C841 C838 1.348 . S
C841 C840 1.356 . S
H842 C836 0.930 . S
H843 C837 0.930 . S
C844 N845 1.314 . S
C844 C846 1.353 . S
C844 H850 0.930 . S
N845 Li795 1.990 . S
N845 C844 1.314 . S
N845 C848 1.279 . S
C846 C844 1.353 . S
C846 C849 1.348 . S
C846 H878 0.929 . S
C847 C848 1.358 . S
C847 C849 1.356 . S
C847 H879 0.930 . S
C848 N845 1.279 . S
C848 C847 1.358 . S
C848 H851 0.930 . S
C849 C846 1.348 . S
C849 C847 1.356 . S
H850 C844 0.930 . S
H851 C848 0.930 . S
O852 Li792 1.956 . S
O852 Li793 1.970 . S
O852 Li794 1.961 . S
O852 C796 1.325 . S
O853 Li792 1.970 . S
O853 Li793 1.956 . S
O853 Li795 1.961 . S
O853 C802 1.325 . S
O854 Li792 1.961 . S
O854 Li794 1.956 . S
O854 Li795 1.970 . S
O854 C824 1.325 . S
O855 Li793 1.961 . S
O855 Li794 1.970 . S
O855 Li795 1.956 . S
O855 C830 1.325 . S
H856 C798 0.929 . S
H857 C799 0.930 . S
H858 C800 0.930 . S
H859 C801 0.930 . S
H860 C803 0.930 . S
H861 C805 0.929 . S
H862 C806 0.930 . S
H863 C807 0.930 . S
H864 C810 0.930 . S
H865 C813 0.929 . S
H866 C818 0.929 . S
H867 C819 0.930 . S
H868 C826 0.929 . S
H869 C827 0.930 . S
H870 C828 0.930 . S
H871 C829 0.930 . S
H872 C831 0.929 . S
H873 C832 0.930 . S
H874 C833 0.930 . S
H875 C834 0.930 . S
H876 C838 0.929 . S
H877 C840 0.930 . S
H878 C846 0.929 . S
H879 C847 0.930 . S
Li880 N897 1.990 . S
Li880 O940 1.956 . S
Li880 O941 1.970 . S
Li880 O942 1.961 . S
Li881 N905 1.990 . S
Li881 O940 1.970 . S
Li881 O941 1.956 . S
Li881 O943 1.961 . S
Li882 N927 1.990 . S
Li882 O940 1.961 . S
Li882 O942 1.956 . S
Li882 O943 1.970 . S
Li883 N933 1.990 . S
Li883 O941 1.961 . S
Li883 O942 1.970 . S
Li883 O943 1.956 . S
C884 C886 1.348 . S
C884 C887 1.356 . S
C884 O940 1.325 . S
N885 C888 1.314 . S
N885 C889 1.279 . S
C886 C884 1.348 . S
C886 C888 1.353 . S
C886 H944 0.929 . S
C887 C884 1.356 . S
C887 C889 1.358 . S
C887 H945 0.930 . S
C888 N885 1.314 . S
C888 C886 1.353 . S
C888 H946 0.930 . S
C889 N885 1.279 . S
C889 C887 1.358 . S
C889 H947 0.930 . S
C890 C893 1.348 . S
C890 C894 1.356 . S
C890 O941 1.325 . S
C891 N892 1.279 . S
C891 C894 1.358 . S
C891 H948 0.930 . S
N892 C891 1.279 . S
N892 C895 1.314 . S
C893 C890 1.348 . S
C893 C895 1.353 . S
C893 H949 0.929 . S
C894 C890 1.356 . S
C894 C891 1.358 . S
C894 H950 0.930 . S
C895 N892 1.314 . S
C895 C893 1.353 . S
C895 H951 0.930 . S
C896 N897 1.314 . S
C896 C901 1.353 . S
C896 H902 0.930 . S
N897 Li880 1.990 . S
N897 C896 1.314 . S
N897 C899 1.279 . S
C898 C899 1.358 . S
C898 C900 1.356 . S
C898 H952 0.930 . S
C899 N897 1.279 . S
C899 C898 1.358 . S
C899 H903 0.930 . S
C900 C898 1.356 . S
C900 C901 1.348 . S
C901 C896 1.353 . S
C901 C900 1.348 . S
C901 H953 0.929 . S
H902 C896 0.930 . S
H903 C899 0.930 . S
C904 N905 1.314 . S
C904 C906 1.353 . S
C904 H910 0.930 . S
N905 Li881 1.990 . S
N905 C904 1.314 . S
N905 C908 1.279 . S
C906 C904 1.353 . S
C906 C909 1.348 . S
C906 H954 0.929 . S
C907 C908 1.358 . S
C907 C909 1.356 . S
C907 H955 0.930 . S
C908 N905 1.279 . S
C908 C907 1.358 . S
C908 H911 0.930 . S
C909 C906 1.348 . S
C909 C907 1.356 . S
H910 C904 0.930 . S
H911 C908 0.930 . S
C912 C914 1.348 . S
C912 C915 1.356 . S
C912 O942 1.325 . S
N913 C916 1.314 . S
N913 C917 1.279 . S
C914 C912 1.348 . S
C914 C916 1.353 . S
C914 H956 0.929 . S
C915 C912 1.356 . S
C915 C917 1.358 . S
C915 H957 0.930 . S
C916 N913 1.314 . S
C916 C914 1.353 . S
C916 H958 0.930 . S
C917 N913 1.279 . S
C917 C915 1.358 . S
C917 H959 0.930 . S
C918 C919 1.348 . S
C918 C920 1.356 . S
C918 O943 1.325 . S
C919 C918 1.348 . S
C919 C921 1.353 1_545 S
C919 H960 0.929 . S
C920 C918 1.356 . S
C920 C922 1.358 . S
C920 H961 0.930 . S
C921 C919 1.353 1_565 S
C921 N923 1.314 . S
C921 H962 0.930 . S
C922 C920 1.358 . S
C922 N923 1.279 1_545 S
C922 H963 0.930 . S
N923 C921 1.314 . S
N923 C922 1.279 1_565 S
C924 C926 1.353 . S
C924 N927 1.314 . S
C924 H930 0.930 . S
C925 N927 1.279 . S
C925 C928 1.358 . S
C925 H931 0.930 . S
C926 C924 1.353 . S
C926 C929 1.348 . S
C926 H964 0.929 . S
N927 Li882 1.990 . S
N927 C924 1.314 . S
N927 C925 1.279 . S
C928 C925 1.358 . S
C928 C929 1.356 . S
C928 H965 0.930 . S
C929 C926 1.348 . S
C929 C928 1.356 . S
H930 C924 0.930 . S
H931 C925 0.930 . S
C932 N933 1.314 . S
C932 C934 1.353 . S
C932 H938 0.930 . S
N933 Li883 1.990 . S
N933 C932 1.314 . S
N933 C936 1.279 . S
C934 C932 1.353 . S
C934 C937 1.348 . S
C934 H966 0.929 . S
C935 C936 1.358 . S
C935 C937 1.356 . S
C935 H967 0.930 . S
C936 N933 1.279 . S
C936 C935 1.358 . S
C936 H939 0.930 . S
C937 C934 1.348 . S
C937 C935 1.356 . S
H938 C932 0.930 . S
H939 C936 0.930 . S
O940 Li880 1.956 . S
O940 Li881 1.970 . S
O940 Li882 1.961 . S
O940 C884 1.325 . S
O941 Li880 1.970 . S
O941 Li881 1.956 . S
O941 Li883 1.961 . S
O941 C890 1.325 . S
O942 Li880 1.961 . S
O942 Li882 1.956 . S
O942 Li883 1.970 . S
O942 C912 1.325 . S
O943 Li881 1.961 . S
O943 Li882 1.970 . S
O943 Li883 1.956 . S
O943 C918 1.325 . S
H944 C886 0.929 . S
H945 C887 0.930 . S
H946 C888 0.930 . S
H947 C889 0.930 . S
H948 C891 0.930 . S
H949 C893 0.929 . S
H950 C894 0.930 . S
H951 C895 0.930 . S
H952 C898 0.930 . S
H953 C901 0.929 . S
H954 C906 0.929 . S
H955 C907 0.930 . S
H956 C914 0.929 . S
H957 C915 0.930 . S
H958 C916 0.930 . S
H959 C917 0.930 . S
H960 C919 0.929 . S
H961 C920 0.930 . S
H962 C921 0.930 . S
H963 C922 0.930 . S
H964 C926 0.929 . S
H965 C928 0.930 . S
H966 C934 0.929 . S
H967 C935 0.930 . S
Li968 N985 1.990 . S
Li968 O1028 1.956 . S
Li968 O1029 1.970 . S
Li968 O1030 1.961 . S
Li969 N993 1.990 . S
Li969 O1028 1.970 . S
Li969 O1029 1.956 . S
Li969 O1031 1.961 . S
Li970 N1015 1.990 . S
Li970 O1028 1.961 . S
Li970 O1030 1.956 . S
Li970 O1031 1.970 . S
Li971 N1021 1.990 . S
Li971 O1029 1.961 . S
Li971 O1030 1.970 . S
Li971 O1031 1.956 . S
C972 C974 1.348 . S
C972 C975 1.356 . S
C972 O1028 1.325 . S
N973 C976 1.314 . S
N973 C977 1.279 . S
C974 C972 1.348 . S
C974 C976 1.353 . S
C974 H1032 0.929 . S
C975 C972 1.356 . S
C975 C977 1.358 . S
C975 H1033 0.930 . S
C976 N973 1.314 . S
C976 C974 1.353 . S
C976 H1034 0.930 . S
C977 N973 1.279 . S
C977 C975 1.358 . S
C977 H1035 0.930 . S
C978 C981 1.348 . S
C978 C982 1.356 . S
C978 O1029 1.325 . S
C979 N980 1.279 . S
C979 C982 1.358 . S
C979 H1036 0.930 . S
N980 C979 1.279 . S
N980 C983 1.314 . S
C981 C978 1.348 . S
C981 C983 1.353 . S
C981 H1037 0.929 . S
C982 C978 1.356 . S
C982 C979 1.358 . S
C982 H1038 0.930 . S
C983 N980 1.314 . S
C983 C981 1.353 . S
C983 H1039 0.930 . S
C984 N985 1.314 . S
C984 C989 1.353 . S
C984 H990 0.930 . S
N985 Li968 1.990 . S
N985 C984 1.314 . S
N985 C987 1.279 . S
C986 C987 1.358 . S
C986 C988 1.356 . S
C986 H1040 0.930 . S
C987 N985 1.279 . S
C987 C986 1.358 . S
C987 H991 0.930 . S
C988 C986 1.356 . S
C988 C989 1.348 . S
C989 C984 1.353 . S
C989 C988 1.348 . S
C989 H1041 0.929 . S
H990 C984 0.930 . S
H991 C987 0.930 . S
C992 N993 1.314 . S
C992 C994 1.353 . S
C992 H998 0.930 . S
N993 Li969 1.990 . S
N993 C992 1.314 . S
N993 C996 1.279 . S
C994 C992 1.353 . S
C994 C997 1.348 . S
C994 H1042 0.929 . S
C995 C996 1.358 . S
C995 C997 1.356 . S
C995 H1043 0.930 . S
C996 N993 1.279 . S
C996 C995 1.358 . S
C996 H999 0.930 . S
C997 C994 1.348 . S
C997 C995 1.356 . S
H998 C992 0.930 . S
H999 C996 0.930 . S
C1000 C1002 1.348 . S
C1000 C1003 1.356 . S
C1000 O1030 1.325 . S
N1001 C1004 1.316 . S
N1001 C1005 1.227 1_556 S
C1002 C1000 1.348 . S
C1002 C1004 1.353 1_554 S
C1002 H1044 0.929 . S
C1003 C1000 1.356 . S
C1003 C1005 1.358 . S
C1003 H1045 0.930 . S
C1004 N1001 1.316 . S
C1004 C1002 1.353 1_556 S
C1004 H1046 0.930 . S
C1005 N1001 1.227 1_554 S
C1005 C1003 1.358 . S
C1005 H1047 0.930 . S
C1006 C1007 1.348 . S
C1006 C1008 1.356 . S
C1006 O1031 1.325 . S
C1007 C1006 1.348 . S
C1007 C1009 1.353 . S
C1007 H1048 0.929 . S
C1008 C1006 1.356 . S
C1008 C1010 1.358 . S
C1008 H1049 0.930 . S
C1009 C1007 1.353 . S
C1009 N1011 1.314 . S
C1009 H1050 0.930 . S
C1010 C1008 1.358 . S
C1010 N1011 1.279 . S
C1010 H1051 0.930 . S
N1011 C1009 1.314 . S
N1011 C1010 1.279 . S
C1012 C1014 1.353 . S
C1012 N1015 1.314 . S
C1012 H1018 0.930 . S
C1013 N1015 1.279 . S
C1013 C1016 1.358 . S
C1013 H1019 0.930 . S
C1014 C1012 1.353 . S
C1014 C1017 1.348 . S
C1014 H1052 0.929 . S
N1015 Li970 1.990 . S
N1015 C1012 1.314 . S
N1015 C1013 1.279 . S
C1016 C1013 1.358 . S
C1016 C1017 1.356 . S
C1016 H1053 0.930 . S
C1017 C1014 1.348 . S
C1017 C1016 1.356 . S
H1018 C1012 0.930 . S
H1019 C1013 0.930 . S
C1020 N1021 1.314 . S
C1020 C1022 1.353 1_554 S
C1020 H1026 0.930 . S
N1021 Li971 1.990 . S
N1021 C1020 1.314 . S
N1021 C1024 1.279 . S
C1022 C1020 1.353 1_556 S
C1022 C1025 1.348 . S
C1022 H1054 0.929 . S
C1023 C1024 1.358 1_556 S
C1023 C1025 1.356 . S
C1023 H1055 0.930 . S
C1024 N1021 1.279 . S
C1024 C1023 1.358 1_554 S
C1024 H1027 0.930 . S
C1025 C1022 1.348 . S
C1025 C1023 1.356 . S
H1026 C1020 0.930 . S
H1027 C1024 0.930 . S
O1028 Li968 1.956 . S
O1028 Li969 1.970 . S
O1028 Li970 1.961 . S
O1028 C972 1.325 . S
O1029 Li968 1.970 . S
O1029 Li969 1.956 . S
O1029 Li971 1.961 . S
O1029 C978 1.325 . S
O1030 Li968 1.961 . S
O1030 Li970 1.956 . S
O1030 Li971 1.970 . S
O1030 C1000 1.325 . S
O1031 Li969 1.961 . S
O1031 Li970 1.970 . S
O1031 Li971 1.956 . S
O1031 C1006 1.325 . S
H1032 C974 0.929 . S
H1033 C975 0.930 . S
H1034 C976 0.930 . S
H1035 C977 0.930 . S
H1036 C979 0.930 . S
H1037 C981 0.929 . S
H1038 C982 0.930 . S
H1039 C983 0.930 . S
H1040 C986 0.930 . S
H1041 C989 0.929 . S
H1042 C994 0.929 . S
H1043 C995 0.930 . S
H1044 C1002 0.929 . S
H1045 C1003 0.930 . S
H1046 C1004 0.930 . S
H1047 C1005 0.930 . S
H1048 C1007 0.929 . S
H1049 C1008 0.930 . S
H1050 C1009 0.930 . S
H1051 C1010 0.930 . S
H1052 C1014 0.929 . S
H1053 C1016 0.930 . S
H1054 C1022 0.929 . S
H1055 C1023 0.930 . S
Li1056 N1073 1.990 . S
Li1056 O1116 1.956 . S
Li1056 O1117 1.970 . S
Li1056 O1118 1.961 . S
Li1057 N1081 1.990 . S
Li1057 O1116 1.970 . S
Li1057 O1117 1.956 . S
Li1057 O1119 1.961 . S
Li1058 N1103 1.990 . S
Li1058 O1116 1.961 . S
Li1058 O1118 1.956 . S
Li1058 O1119 1.970 . S
Li1059 N1109 1.990 1_554 S
Li1059 O1117 1.961 . S
Li1059 O1118 1.970 . S
Li1059 O1119 1.956 . S
C1060 C1062 1.348 . S
C1060 C1063 1.356 . S
C1060 O1116 1.325 . S
N1061 C1064 1.314 . S
N1061 C1065 1.279 . S
C1062 C1060 1.348 . S
C1062 C1064 1.353 . S
C1062 H1120 0.929 . S
C1063 C1060 1.356 . S
C1063 C1065 1.358 . S
C1063 H1121 0.930 . S
C1064 N1061 1.314 . S
C1064 C1062 1.353 . S
C1064 H1122 0.930 . S
C1065 N1061 1.279 . S
C1065 C1063 1.358 . S
C1065 H1123 0.930 . S
C1066 C1069 1.348 . S
C1066 C1070 1.356 . S
C1066 O1117 1.325 . S
C1067 N1068 1.279 . S
C1067 C1070 1.358 . S
C1067 H1124 0.930 . S
N1068 C1067 1.279 . S
N1068 C1071 1.314 . S
C1069 C1066 1.348 . S
C1069 C1071 1.353 . S
C1069 H1125 0.929 . S
C1070 C1066 1.356 . S
C1070 C1067 1.358 . S
C1070 H1126 0.930 . S
C1071 N1068 1.314 . S
C1071 C1069 1.353 . S
C1071 H1127 0.930 . S
C1072 N1073 1.314 . S
C1072 C1077 1.353 . S
C1072 H1078 0.930 . S
N1073 Li1056 1.990 . S
N1073 C1072 1.314 . S
N1073 C1075 1.279 . S
C1074 C1075 1.358 . S
C1074 C1076 1.356 . S
C1074 H1128 0.930 . S
C1075 N1073 1.279 . S
C1075 C1074 1.358 . S
C1075 H1079 0.930 . S
C1076 C1074 1.356 . S
C1076 C1077 1.348 . S
C1077 C1072 1.353 . S
C1077 C1076 1.348 . S
C1077 H1129 0.929 . S
H1078 C1072 0.930 . S
H1079 C1075 0.930 . S
C1080 N1081 1.314 . S
C1080 C1082 1.353 . S
C1080 H1086 0.930 . S
N1081 Li1057 1.990 . S
N1081 C1080 1.314 . S
N1081 C1084 1.279 . S
C1082 C1080 1.353 . S
C1082 C1085 1.348 . S
C1082 H1130 0.929 . S
C1083 C1084 1.358 . S
C1083 C1085 1.356 . S
C1083 H1131 0.930 . S
C1084 N1081 1.279 . S
C1084 C1083 1.358 . S
C1084 H1087 0.930 . S
C1085 C1082 1.348 . S
C1085 C1083 1.356 . S
H1086 C1080 0.930 . S
H1087 C1084 0.930 . S
C1088 C1090 1.348 . S
C1088 C1091 1.356 . S
C1088 O1118 1.325 1_556 S
N1089 C1092 1.314 . S
N1089 C1093 1.279 . S
C1090 C1088 1.348 . S
C1090 C1092 1.353 . S
C1090 H1132 0.929 . S
C1091 C1088 1.356 . S
C1091 C1093 1.358 . S
C1091 H1133 0.930 1_556 S
C1092 N1089 1.314 . S
C1092 C1090 1.353 . S
C1092 H1134 0.930 . S
C1093 N1089 1.279 . S
C1093 C1091 1.358 . S
C1093 H1135 0.930 . S
C1094 C1095 1.348 . S
C1094 C1096 1.356 . S
C1094 O1119 1.325 . S
C1095 C1094 1.348 . S
C1095 C1097 1.353 . S
C1095 H1136 0.929 . S
C1096 C1094 1.356 . S
C1096 C1098 1.358 . S
C1096 H1137 0.930 . S
C1097 C1095 1.353 . S
C1097 N1099 1.314 . S
C1097 H1138 0.930 . S
C1098 C1096 1.358 . S
C1098 N1099 1.279 . S
C1098 H1139 0.930 . S
N1099 C1097 1.314 . S
N1099 C1098 1.279 . S
C1100 C1102 1.353 . S
C1100 N1103 1.314 . S
C1100 H1106 0.930 . S
C1101 N1103 1.279 . S
C1101 C1104 1.358 . S
C1101 H1107 0.930 . S
C1102 C1100 1.353 . S
C1102 C1105 1.348 . S
C1102 H1140 0.929 . S
N1103 Li1058 1.990 . S
N1103 C1100 1.314 . S
N1103 C1101 1.279 . S
C1104 C1101 1.358 . S
C1104 C1105 1.356 . S
C1104 H1141 0.930 . S
C1105 C1102 1.348 . S
C1105 C1104 1.356 . S
H1106 C1100 0.930 . S
H1107 C1101 0.930 . S
C1108 N1109 1.314 . S
C1108 C1110 1.353 . S
C1108 H1114 0.930 . S
N1109 Li1059 1.990 1_556 S
N1109 C1108 1.314 . S
N1109 C1112 1.279 . S
C1110 C1108 1.353 . S
C1110 C1113 1.348 . S
C1110 H1142 0.929 . S
C1111 C1112 1.358 . S
C1111 C1113 1.356 . S
C1111 H1143 0.930 . S
C1112 N1109 1.279 . S
C1112 C1111 1.358 . S
C1112 H1115 0.930 . S
C1113 C1110 1.348 . S
C1113 C1111 1.356 . S
H1114 C1108 0.930 . S
H1115 C1112 0.930 . S
O1116 Li1056 1.956 . S
O1116 Li1057 1.970 . S
O1116 Li1058 1.961 . S
O1116 C1060 1.325 . S
O1117 Li1056 1.970 . S
O1117 Li1057 1.956 . S
O1117 Li1059 1.961 . S
O1117 C1066 1.325 . S
O1118 Li1056 1.961 . S
O1118 Li1058 1.956 . S
O1118 Li1059 1.970 . S
O1118 C1088 1.325 1_554 S
O1119 Li1057 1.961 . S
O1119 Li1058 1.970 . S
O1119 Li1059 1.956 . S
O1119 C1094 1.325 . S
H1120 C1062 0.929 . S
H1121 C1063 0.930 . S
H1122 C1064 0.930 . S
H1123 C1065 0.930 . S
H1124 C1067 0.930 . S
H1125 C1069 0.929 . S
H1126 C1070 0.930 . S
H1127 C1071 0.930 . S
H1128 C1074 0.930 . S
H1129 C1077 0.929 . S
H1130 C1082 0.929 . S
H1131 C1083 0.930 . S
H1132 C1090 0.929 . S
H1133 C1091 0.930 1_554 S
H1134 C1092 0.930 . S
H1135 C1093 0.930 . S
H1136 C1095 0.929 . S
H1137 C1096 0.930 . S
H1138 C1097 0.930 . S
H1139 C1098 0.930 . S
H1140 C1102 0.929 . S
H1141 C1104 0.930 . S
H1142 C1110 0.929 . S
H1143 C1111 0.930 . S
Li1144 N1161 1.990 . S
Li1144 O1204 1.956 . S
Li1144 O1205 1.970 . S
Li1144 O1206 1.957 . S
Li1145 N1169 1.990 . S
Li1145 O1204 1.966 . S
Li1145 O1205 2.011 . S
Li1145 O1207 1.911 1_554 S
Li1146 N1191 1.990 . S
Li1146 O1204 1.961 1_556 S
Li1146 O1206 1.961 1_556 S
Li1146 O1207 1.970 . S
Li1147 N1197 1.990 . S
Li1147 O1205 1.961 1_556 S
Li1147 O1206 1.970 1_556 S
Li1147 O1207 1.956 . S
C1148 C1150 1.348 . S
C1148 C1151 1.356 . S
C1148 O1204 1.325 . S
N1149 C1152 1.314 . S
N1149 C1153 1.279 . S
C1150 C1148 1.348 . S
C1150 C1152 1.353 . S
C1150 H1208 0.929 . S
C1151 C1148 1.356 . S
C1151 C1153 1.358 . S
C1151 H1209 0.922 1_554 S
C1152 N1149 1.314 . S
C1152 C1150 1.353 . S
C1152 H1210 0.930 . S
C1153 N1149 1.279 . S
C1153 C1151 1.358 . S
C1153 H1211 0.930 . S
C1154 C1157 1.348 . S
C1154 C1158 1.356 . S
C1154 O1205 1.325 . S
C1155 N1156 1.279 . S
C1155 C1158 1.358 . S
C1155 H1212 0.930 . S
N1156 C1155 1.279 . S
N1156 C1159 1.314 . S
C1157 C1154 1.348 . S
C1157 C1159 1.353 . S
C1157 H1213 0.929 . S
C1158 C1154 1.356 . S
C1158 C1155 1.358 . S
C1158 H1214 0.930 . S
C1159 N1156 1.314 . S
C1159 C1157 1.353 . S
C1159 H1215 0.930 . S
C1160 N1161 1.314 . S
C1160 C1165 1.353 . S
C1160 H1166 0.930 . S
N1161 Li1144 1.990 . S
N1161 C1160 1.314 . S
N1161 C1163 1.279 . S
C1162 C1163 1.358 . S
C1162 C1164 1.356 . S
C1162 H1216 0.930 . S
C1163 N1161 1.279 . S
C1163 C1162 1.358 . S
C1163 H1167 0.930 . S
C1164 C1162 1.356 . S
C1164 C1165 1.348 . S
C1165 C1160 1.353 . S
C1165 C1164 1.348 . S
C1165 H1217 0.929 . S
H1166 C1160 0.930 . S
H1167 C1163 0.930 . S
C1168 N1169 1.314 1_556 S
C1168 C1170 1.353 . S
C1168 H1174 0.930 . S
N1169 Li1145 1.990 . S
N1169 C1168 1.314 1_554 S
N1169 C1172 1.279 . S
C1170 C1168 1.353 . S
C1170 C1173 1.348 1_556 S
C1170 H1218 0.929 . S
C1171 C1172 1.358 . S
C1171 C1173 1.356 . S
C1171 H1219 0.930 . S
C1172 N1169 1.279 . S
C1172 C1171 1.358 . S
C1172 H1175 0.930 . S
C1173 C1170 1.348 1_554 S
C1173 C1171 1.356 . S
H1174 C1168 0.930 . S
H1175 C1172 0.930 . S
C1176 C1178 1.359 . S
C1176 C1179 1.350 1_556 S
C1176 O1206 1.326 1_556 S
N1177 C1180 1.314 . S
N1177 C1181 1.279 1_556 S
C1178 C1176 1.359 . S
C1178 C1180 1.353 . S
C1178 H1220 0.929 . S
C1179 C1176 1.350 1_554 S
C1179 C1181 1.358 . S
C1179 H1221 0.930 . S
C1180 N1177 1.314 . S
C1180 C1178 1.353 . S
C1180 H1222 0.930 . S
C1181 N1177 1.279 1_554 S
C1181 C1179 1.358 . S
C1181 H1223 0.930 . S
C1182 C1183 1.348 . S
C1182 C1184 1.356 . S
C1182 O1207 1.325 . S
C1183 C1182 1.348 . S
C1183 C1185 1.353 . S
C1183 H1224 0.929 . S
C1184 C1182 1.356 . S
C1184 C1186 1.358 . S
C1184 H1225 0.930 . S
C1185 C1183 1.353 . S
C1185 N1187 1.314 . S
C1185 H1226 0.930 . S
C1186 C1184 1.358 . S
C1186 N1187 1.279 . S
C1186 H1227 0.930 . S
N1187 C1185 1.314 . S
N1187 C1186 1.279 . S
C1188 C1190 1.353 . S
C1188 N1191 1.314 . S
C1188 H1194 0.930 . S
C1189 N1191 1.279 . S
C1189 C1192 1.358 . S
C1189 H1195 0.930 . S
C1190 C1188 1.353 . S
C1190 C1193 1.348 . S
C1190 H1228 0.929 . S
N1191 Li1146 1.990 . S
N1191 C1188 1.314 . S
N1191 C1189 1.279 . S
C1192 C1189 1.358 . S
C1192 C1193 1.356 . S
C1192 H1229 0.930 . S
C1193 C1190 1.348 . S
C1193 C1192 1.356 . S
H1194 C1188 0.930 . S
H1195 C1189 0.930 . S
C1196 N1197 1.314 1_554 S
C1196 C1198 1.353 . S
C1196 H1202 0.930 . S
N1197 Li1147 1.990 . S
N1197 C1196 1.314 1_556 S
N1197 C1200 1.279 . S
C1198 C1196 1.353 . S
C1198 C1201 1.348 1_554 S
C1198 H1230 0.929 . S
C1199 C1200 1.358 . S
C1199 C1201 1.356 . S
C1199 H1231 0.930 . S
C1200 N1197 1.279 . S
C1200 C1199 1.358 . S
C1200 H1203 0.930 . S
C1201 C1198 1.348 1_556 S
C1201 C1199 1.356 . S
H1202 C1196 0.930 . S
H1203 C1200 0.930 . S
O1204 Li1144 1.956 . S
O1204 Li1145 1.966 . S
O1204 Li1146 1.961 1_554 S
O1204 C1148 1.325 . S
O1205 Li1144 1.970 . S
O1205 Li1145 2.011 . S
O1205 Li1147 1.961 1_554 S
O1205 C1154 1.325 . S
O1206 Li1144 1.957 . S
O1206 Li1146 1.961 1_554 S
O1206 Li1147 1.970 1_554 S
O1206 C1176 1.326 1_554 S
O1207 Li1145 1.911 1_556 S
O1207 Li1146 1.970 . S
O1207 Li1147 1.956 . S
O1207 C1182 1.325 . S
H1208 C1150 0.929 . S
H1209 C1151 0.922 1_556 S
H1210 C1152 0.930 . S
H1211 C1153 0.930 . S
H1212 C1155 0.930 . S
H1213 C1157 0.929 . S
H1214 C1158 0.930 . S
H1215 C1159 0.930 . S
H1216 C1162 0.930 . S
H1217 C1165 0.929 . S
H1218 C1170 0.929 . S
H1219 C1171 0.930 . S
H1220 C1178 0.929 . S
H1221 C1179 0.930 . S
H1222 C1180 0.930 . S
H1223 C1181 0.930 . S
H1224 C1183 0.929 . S
H1225 C1184 0.930 . S
H1226 C1185 0.930 . S
H1227 C1186 0.930 . S
H1228 C1190 0.929 . S
H1229 C1192 0.930 . S
H1230 C1198 0.929 . S
H1231 C1199 0.930 . S
Li1232 N1249 1.990 . S
Li1232 O1292 1.956 . S
Li1232 O1293 1.970 . S
Li1232 O1294 1.961 . S
Li1233 N1257 1.990 . S
Li1233 O1292 1.970 . S
Li1233 O1293 1.956 . S
Li1233 O1295 1.961 . S
Li1234 N1279 1.990 . S
Li1234 O1292 1.961 . S
Li1234 O1294 1.956 . S
Li1234 O1295 1.970 . S
Li1235 N1285 1.990 . S
Li1235 O1293 1.961 . S
Li1235 O1294 1.970 . S
Li1235 O1295 1.956 . S
C1236 C1238 1.348 . S
C1236 C1239 1.356 . S
C1236 O1292 1.325 . S
N1237 C1240 1.314 . S
N1237 C1241 1.279 . S
C1238 C1236 1.348 . S
C1238 C1240 1.353 . S
C1238 H1296 0.929 . S
C1239 C1236 1.356 . S
C1239 C1241 1.358 . S
C1239 H1297 0.930 . S
C1240 N1237 1.314 . S
C1240 C1238 1.353 . S
C1240 H1298 0.930 . S
C1241 N1237 1.279 . S
C1241 C1239 1.358 . S
C1241 H1299 0.930 . S
C1242 C1245 1.348 . S
C1242 C1246 1.356 . S
C1242 O1293 1.325 . S
C1243 N1244 1.279 . S
C1243 C1246 1.358 . S
C1243 H1300 0.930 . S
N1244 C1243 1.279 . S
N1244 C1247 1.314 . S
C1245 C1242 1.348 . S
C1245 C1247 1.353 . S
C1245 H1301 0.929 . S
C1246 C1242 1.356 . S
C1246 C1243 1.358 . S
C1246 H1302 0.930 . S
C1247 N1244 1.314 . S
C1247 C1245 1.353 . S
C1247 H1303 0.930 . S
C1248 N1249 1.314 . S
C1248 C1253 1.353 . S
C1248 H1254 0.930 . S
N1249 Li1232 1.990 . S
N1249 C1248 1.314 . S
N1249 C1251 1.279 . S
C1250 C1251 1.358 . S
C1250 C1252 1.356 . S
C1250 H1304 0.930 . S
C1251 N1249 1.279 . S
C1251 C1250 1.358 . S
C1251 H1255 0.930 . S
C1252 C1250 1.356 . S
C1252 C1253 1.348 . S
C1253 C1248 1.353 . S
C1253 C1252 1.348 . S
C1253 H1305 0.929 . S
H1254 C1248 0.930 . S
H1255 C1251 0.930 . S
C1256 N1257 1.314 . S
C1256 C1258 1.353 . S
C1256 H1262 0.930 . S
N1257 Li1233 1.990 . S
N1257 C1256 1.314 . S
N1257 C1260 1.279 . S
C1258 C1256 1.353 . S
C1258 C1261 1.348 . S
C1258 H1306 0.929 . S
C1259 C1260 1.358 . S
C1259 C1261 1.356 . S
C1259 H1307 0.930 . S
C1260 N1257 1.279 . S
C1260 C1259 1.358 . S
C1260 H1263 0.930 . S
C1261 C1258 1.348 . S
C1261 C1259 1.356 . S
H1262 C1256 0.930 . S
H1263 C1260 0.930 . S
C1264 C1266 1.348 . S
C1264 C1267 1.356 . S
C1264 O1294 1.325 . S
N1265 C1268 1.314 . S
N1265 C1269 1.279 . S
C1266 C1264 1.348 . S
C1266 C1268 1.353 . S
C1266 H1308 0.929 . S
C1267 C1264 1.356 . S
C1267 C1269 1.358 . S
C1267 H1309 0.930 . S
C1268 N1265 1.314 . S
C1268 C1266 1.353 . S
C1268 H1310 0.930 . S
C1269 N1265 1.279 . S
C1269 C1267 1.358 . S
C1269 H1311 0.930 . S
C1270 C1271 1.348 . S
C1270 C1272 1.356 . S
C1270 O1295 1.325 . S
C1271 C1270 1.348 . S
C1271 C1273 1.353 . S
C1271 H1312 0.929 . S
C1272 C1270 1.356 . S
C1272 C1274 1.358 . S
C1272 H1313 0.930 . S
C1273 C1271 1.353 . S
C1273 N1275 1.314 . S
C1273 H1314 0.930 . S
C1274 C1272 1.358 . S
C1274 N1275 1.279 . S
C1274 H1315 0.930 . S
N1275 C1273 1.314 . S
N1275 C1274 1.279 . S
C1276 C1278 1.353 . S
C1276 N1279 1.314 . S
C1276 H1282 0.930 . S
C1277 N1279 1.279 . S
C1277 C1280 1.358 . S
C1277 H1283 0.930 . S
C1278 C1276 1.353 . S
C1278 C1281 1.348 . S
C1278 H1316 0.929 . S
N1279 Li1234 1.990 . S
N1279 C1276 1.314 . S
N1279 C1277 1.279 . S
C1280 C1277 1.358 . S
C1280 C1281 1.356 . S
C1280 H1317 0.930 . S
C1281 C1278 1.348 . S
C1281 C1280 1.356 . S
H1282 C1276 0.930 . S
H1283 C1277 0.930 . S
C1284 N1285 1.314 . S
C1284 C1286 1.353 . S
C1284 H1290 0.930 . S
N1285 Li1235 1.990 . S
N1285 C1284 1.314 . S
N1285 C1288 1.279 . S
C1286 C1284 1.353 . S
C1286 C1289 1.348 . S
C1286 H1318 0.929 . S
C1287 C1288 1.358 . S
C1287 C1289 1.356 . S
C1287 H1319 0.930 . S
C1288 N1285 1.279 . S
C1288 C1287 1.358 . S
C1288 H1291 0.930 . S
C1289 C1286 1.348 . S
C1289 C1287 1.356 . S
H1290 C1284 0.930 . S
H1291 C1288 0.930 . S
O1292 Li1232 1.956 . S
O1292 Li1233 1.970 . S
O1292 Li1234 1.961 . S
O1292 C1236 1.325 . S
O1293 Li1232 1.970 . S
O1293 Li1233 1.956 . S
O1293 Li1235 1.961 . S
O1293 C1242 1.325 . S
O1294 Li1232 1.961 . S
O1294 Li1234 1.956 . S
O1294 Li1235 1.970 . S
O1294 C1264 1.325 . S
O1295 Li1233 1.961 . S
O1295 Li1234 1.970 . S
O1295 Li1235 1.956 . S
O1295 C1270 1.325 . S
H1296 C1238 0.929 . S
H1297 C1239 0.930 . S
H1298 C1240 0.930 . S
H1299 C1241 0.930 . S
H1300 C1243 0.930 . S
H1301 C1245 0.929 . S
H1302 C1246 0.930 . S
H1303 C1247 0.930 . S
H1304 C1250 0.930 . S
H1305 C1253 0.929 . S
H1306 C1258 0.929 . S
H1307 C1259 0.930 . S
H1308 C1266 0.929 . S
H1309 C1267 0.930 . S
H1310 C1268 0.930 . S
H1311 C1269 0.930 . S
H1312 C1271 0.929 . S
H1313 C1272 0.930 . S
H1314 C1273 0.930 . S
H1315 C1274 0.930 . S
H1316 C1278 0.929 . S
H1317 C1280 0.930 . S
H1318 C1286 0.929 . S
H1319 C1287 0.930 . S
Li1320 N1337 1.990 . S
Li1320 O1380 1.956 . S
Li1320 O1381 1.970 . S
Li1320 O1382 1.961 . S
Li1321 N1345 1.990 . S
Li1321 O1380 1.970 . S
Li1321 O1381 1.956 . S
Li1321 O1383 1.961 . S
Li1322 N1367 1.990 . S
Li1322 O1380 1.961 . S
Li1322 O1382 1.956 . S
Li1322 O1383 1.970 . S
Li1323 N1373 1.990 . S
Li1323 O1381 1.961 . S
Li1323 O1382 1.970 . S
Li1323 O1383 1.956 . S
C1324 C1326 1.348 . S
C1324 C1327 1.356 . S
C1324 O1380 1.325 . S
N1325 C1328 1.314 . S
N1325 C1329 1.279 . S
C1326 C1324 1.348 . S
C1326 C1328 1.353 . S
C1326 H1384 0.929 . S
C1327 C1324 1.356 . S
C1327 C1329 1.358 . S
C1327 H1385 0.930 . S
C1328 N1325 1.314 . S
C1328 C1326 1.353 . S
C1328 H1386 0.930 . S
C1329 N1325 1.279 . S
C1329 C1327 1.358 . S
C1329 H1387 0.930 . S
C1330 C1333 1.348 . S
C1330 C1334 1.356 . S
C1330 O1381 1.325 . S
C1331 N1332 1.279 . S
C1331 C1334 1.358 . S
C1331 H1388 0.930 . S
N1332 C1331 1.279 . S
N1332 C1335 1.314 . S
C1333 C1330 1.348 . S
C1333 C1335 1.353 . S
C1333 H1389 0.929 . S
C1334 C1330 1.356 . S
C1334 C1331 1.358 . S
C1334 H1390 0.930 . S
C1335 N1332 1.314 . S
C1335 C1333 1.353 . S
C1335 H1391 0.930 . S
C1336 N1337 1.314 . S
C1336 C1341 1.353 . S
C1336 H1342 0.930 . S
N1337 Li1320 1.990 . S
N1337 C1336 1.314 . S
N1337 C1339 1.279 . S
C1338 C1339 1.358 . S
C1338 C1340 1.356 . S
C1338 H1392 0.930 . S
C1339 N1337 1.279 . S
C1339 C1338 1.358 . S
C1339 H1343 0.930 . S
C1340 C1338 1.356 . S
C1340 C1341 1.348 . S
C1341 C1336 1.353 . S
C1341 C1340 1.348 . S
C1341 H1393 0.929 . S
H1342 C1336 0.930 . S
H1343 C1339 0.930 . S
C1344 N1345 1.314 . S
C1344 C1346 1.353 . S
C1344 H1350 0.930 . S
N1345 Li1321 1.990 . S
N1345 C1344 1.314 . S
N1345 C1348 1.279 . S
C1346 C1344 1.353 . S
C1346 C1349 1.348 . S
C1346 H1394 0.929 . S
C1347 C1348 1.358 . S
C1347 C1349 1.356 . S
C1347 H1395 0.930 . S
C1348 N1345 1.279 . S
C1348 C1347 1.358 . S
C1348 H1351 0.930 . S
C1349 C1346 1.348 . S
C1349 C1347 1.356 . S
H1350 C1344 0.930 . S
H1351 C1348 0.930 . S
C1352 C1354 1.348 . S
C1352 C1355 1.356 . S
C1352 O1382 1.325 . S
N1353 C1356 1.314 . S
N1353 C1357 1.279 . S
C1354 C1352 1.348 . S
C1354 C1356 1.353 . S
C1354 H1396 0.929 . S
C1355 C1352 1.356 . S
C1355 C1357 1.358 . S
C1355 H1397 0.930 . S
C1356 N1353 1.314 . S
C1356 C1354 1.353 . S
C1356 H1398 0.930 . S
C1357 N1353 1.279 . S
C1357 C1355 1.358 . S
C1357 H1399 0.930 . S
C1358 C1359 1.348 . S
C1358 C1360 1.356 . S
C1358 O1383 1.325 . S
C1359 C1358 1.348 . S
C1359 C1361 1.353 . S
C1359 H1400 0.929 . S
C1360 C1358 1.356 . S
C1360 C1362 1.358 . S
C1360 H1401 0.930 . S
C1361 C1359 1.353 . S
C1361 N1363 1.314 . S
C1361 H1402 0.930 . S
C1362 C1360 1.358 . S
C1362 N1363 1.279 . S
C1362 H1403 0.930 . S
N1363 C1361 1.314 . S
N1363 C1362 1.279 . S
C1364 C1366 1.353 . S
C1364 N1367 1.314 . S
C1364 H1370 0.930 . S
C1365 N1367 1.279 . S
C1365 C1368 1.358 . S
C1365 H1371 0.930 . S
C1366 C1364 1.353 . S
C1366 C1369 1.348 . S
C1366 H1404 0.929 . S
N1367 Li1322 1.990 . S
N1367 C1364 1.314 . S
N1367 C1365 1.279 . S
C1368 C1365 1.358 . S
C1368 C1369 1.356 . S
C1368 H1405 0.930 . S
C1369 C1366 1.348 . S
C1369 C1368 1.356 . S
H1370 C1364 0.930 . S
H1371 C1365 0.930 . S
C1372 N1373 1.314 . S
C1372 C1374 1.353 . S
C1372 H1378 0.930 . S
N1373 Li1323 1.990 . S
N1373 C1372 1.314 . S
N1373 C1376 1.279 . S
C1374 C1372 1.353 . S
C1374 C1377 1.348 . S
C1374 H1406 0.929 . S
C1375 C1376 1.358 . S
C1375 C1377 1.356 . S
C1375 H1407 0.930 . S
C1376 N1373 1.279 . S
C1376 C1375 1.358 . S
C1376 H1379 0.930 . S
C1377 C1374 1.348 . S
C1377 C1375 1.356 . S
H1378 C1372 0.930 . S
H1379 C1376 0.930 . S
O1380 Li1320 1.956 . S
O1380 Li1321 1.970 . S
O1380 Li1322 1.961 . S
O1380 C1324 1.325 . S
O1381 Li1320 1.970 . S
O1381 Li1321 1.956 . S
O1381 Li1323 1.961 . S
O1381 C1330 1.325 . S
O1382 Li1320 1.961 . S
O1382 Li1322 1.956 . S
O1382 Li1323 1.970 . S
O1382 C1352 1.325 . S
O1383 Li1321 1.961 . S
O1383 Li1322 1.970 . S
O1383 Li1323 1.956 . S
O1383 C1358 1.325 . S
H1384 C1326 0.929 . S
H1385 C1327 0.930 . S
H1386 C1328 0.930 . S
H1387 C1329 0.930 . S
H1388 C1331 0.930 . S
H1389 C1333 0.929 . S
H1390 C1334 0.930 . S
H1391 C1335 0.930 . S
H1392 C1338 0.930 . S
H1393 C1341 0.929 . S
H1394 C1346 0.929 . S
H1395 C1347 0.930 . S
H1396 C1354 0.929 . S
H1397 C1355 0.930 . S
H1398 C1356 0.930 . S
H1399 C1357 0.930 . S
H1400 C1359 0.929 . S
H1401 C1360 0.930 . S
H1402 C1361 0.930 . S
H1403 C1362 0.930 . S
H1404 C1366 0.929 . S
H1405 C1368 0.930 . S
H1406 C1374 0.929 . S
H1407 C1375 0.930 . S
Li1408 N1425 1.990 . S
Li1408 O1468 1.956 . S
Li1408 O1469 1.970 . S
Li1408 O1470 1.961 . S
Li1409 N1433 1.990 . S
Li1409 O1468 1.970 . S
Li1409 O1469 1.956 . S
Li1409 O1471 1.961 . S
Li1410 N1455 1.990 . S
Li1410 O1468 1.961 . S
Li1410 O1470 1.956 . S
Li1410 O1471 1.970 . S
Li1411 N1461 1.990 . S
Li1411 O1469 1.961 . S
Li1411 O1470 1.970 . S
Li1411 O1471 1.956 . S
C1412 C1414 1.368 . S
C1412 C1415 1.356 . S
C1412 O1468 1.325 . S
N1413 C1416 1.314 . S
N1413 C1417 1.279 1_565 S
C1414 C1412 1.368 . S
C1414 C1416 1.334 1_545 S
C1414 H1472 0.928 1_545 S
C1415 C1412 1.356 . S
C1415 C1417 1.358 . S
C1415 H1473 0.930 . S
C1416 N1413 1.314 . S
C1416 C1414 1.334 1_565 S
C1416 H1474 0.930 . S
C1417 N1413 1.279 1_545 S
C1417 C1415 1.358 . S
C1417 H1475 0.930 . S
C1418 C1421 1.348 . S
C1418 C1422 1.356 . S
C1418 O1469 1.325 . S
C1419 N1420 1.279 . S
C1419 C1422 1.358 . S
C1419 H1476 0.930 . S
N1420 C1419 1.279 . S
N1420 C1423 1.314 . S
C1421 C1418 1.348 . S
C1421 C1423 1.353 . S
C1421 H1477 0.929 . S
C1422 C1418 1.356 . S
C1422 C1419 1.358 . S
C1422 H1478 0.930 . S
C1423 N1420 1.314 . S
C1423 C1421 1.353 . S
C1423 H1479 0.930 . S
C1424 N1425 1.314 . S
C1424 C1429 1.353 . S
C1424 H1430 0.930 . S
N1425 Li1408 1.990 . S
N1425 C1424 1.314 . S
N1425 C1427 1.279 . S
C1426 C1427 1.358 . S
C1426 C1428 1.356 . S
C1426 H1480 0.930 . S
C1427 N1425 1.279 . S
C1427 C1426 1.358 . S
C1427 H1431 0.930 . S
C1428 C1426 1.356 . S
C1428 C1429 1.348 . S
C1429 C1424 1.353 . S
C1429 C1428 1.348 . S
C1429 H1481 0.929 . S
H1430 C1424 0.930 . S
H1431 C1427 0.930 . S
C1432 N1433 1.314 1_565 S
C1432 C1434 1.353 . S
C1432 H1438 0.930 . S
N1433 Li1409 1.990 . S
N1433 C1432 1.314 1_545 S
N1433 C1436 1.279 1_545 S
C1434 C1432 1.353 . S
C1434 C1437 1.348 . S
C1434 H1482 0.929 . S
C1435 C1436 1.358 . S
C1435 C1437 1.356 . S
C1435 H1483 0.930 . S
C1436 N1433 1.279 1_565 S
C1436 C1435 1.358 . S
C1436 H1439 0.930 1_565 S
C1437 C1434 1.348 . S
C1437 C1435 1.356 . S
H1438 C1432 0.930 . S
H1439 C1436 0.930 1_545 S
C1440 C1442 1.348 . S
C1440 C1443 1.356 . S
C1440 O1470 1.325 . S
N1441 C1444 1.314 . S
N1441 C1445 1.279 . S
C1442 C1440 1.348 . S
C1442 C1444 1.353 . S
C1442 H1484 0.929 . S
C1443 C1440 1.356 . S
C1443 C1445 1.358 . S
C1443 H1485 0.930 . S
C1444 N1441 1.314 . S
C1444 C1442 1.353 . S
C1444 H1486 0.930 . S
C1445 N1441 1.279 . S
C1445 C1443 1.358 . S
C1445 H1487 0.930 . S
C1446 C1447 1.348 . S
C1446 C1448 1.356 . S
C1446 O1471 1.325 . S
C1447 C1446 1.348 . S
C1447 C1449 1.353 . S
C1447 H1488 0.929 . S
C1448 C1446 1.356 . S
C1448 C1450 1.358 . S
C1448 H1489 0.930 . S
C1449 C1447 1.353 . S
C1449 N1451 1.314 . S
C1449 H1490 0.930 . S
C1450 C1448 1.358 . S
C1450 N1451 1.279 . S
C1450 H1491 0.930 . S
N1451 C1449 1.314 . S
N1451 C1450 1.279 . S
C1452 C1454 1.353 . S
C1452 N1455 1.314 . S
C1452 H1458 0.930 . S
C1453 N1455 1.279 . S
C1453 C1456 1.358 . S
C1453 H1459 0.930 . S
C1454 C1452 1.353 . S
C1454 C1457 1.348 . S
C1454 H1492 0.929 . S
N1455 Li1410 1.990 . S
N1455 C1452 1.314 . S
N1455 C1453 1.279 . S
C1456 C1453 1.358 . S
C1456 C1457 1.356 . S
C1456 H1493 0.930 . S
C1457 C1454 1.348 . S
C1457 C1456 1.356 . S
H1458 C1452 0.930 . S
H1459 C1453 0.930 . S
C1460 N1461 1.314 . S
C1460 C1462 1.353 . S
C1460 H1466 0.930 . S
N1461 Li1411 1.990 . S
N1461 C1460 1.314 . S
N1461 C1464 1.279 . S
C1462 C1460 1.353 . S
C1462 C1465 1.348 . S
C1462 H1494 0.929 . S
C1463 C1464 1.358 . S
C1463 C1465 1.356 . S
C1463 H1495 0.930 . S
C1464 N1461 1.279 . S
C1464 C1463 1.358 . S
C1464 H1467 0.930 . S
C1465 C1462 1.348 . S
C1465 C1463 1.356 . S
H1466 C1460 0.930 . S
H1467 C1464 0.930 . S
O1468 Li1408 1.956 . S
O1468 Li1409 1.970 . S
O1468 Li1410 1.961 . S
O1468 C1412 1.325 . S
O1469 Li1408 1.970 . S
O1469 Li1409 1.956 . S
O1469 Li1411 1.961 . S
O1469 C1418 1.325 . S
O1470 Li1408 1.961 . S
O1470 Li1410 1.956 . S
O1470 Li1411 1.970 . S
O1470 C1440 1.325 . S
O1471 Li1409 1.961 . S
O1471 Li1410 1.970 . S
O1471 Li1411 1.956 . S
O1471 C1446 1.325 . S
H1472 C1414 0.928 1_565 S
H1473 C1415 0.930 . S
H1474 C1416 0.930 . S
H1475 C1417 0.930 . S
H1476 C1419 0.930 . S
H1477 C1421 0.929 . S
H1478 C1422 0.930 . S
H1479 C1423 0.930 . S
H1480 C1426 0.930 . S
H1481 C1429 0.929 . S
H1482 C1434 0.929 . S
H1483 C1435 0.930 . S
H1484 C1442 0.929 . S
H1485 C1443 0.930 . S
H1486 C1444 0.930 . S
H1487 C1445 0.930 . S
H1488 C1447 0.929 . S
H1489 C1448 0.930 . S
H1490 C1449 0.930 . S
H1491 C1450 0.930 . S
H1492 C1454 0.929 . S
H1493 C1456 0.930 . S
H1494 C1462 0.929 . S
H1495 C1463 0.930 . S
Li1496 N1513 1.990 . S
Li1496 O1556 1.956 . S
Li1496 O1557 1.970 . S
Li1496 O1558 1.961 . S
Li1497 N1521 1.990 . S
Li1497 O1556 1.970 . S
Li1497 O1557 1.956 . S
Li1497 O1559 1.961 . S
Li1498 N1543 1.990 . S
Li1498 O1556 1.961 . S
Li1498 O1558 1.956 . S
Li1498 O1559 1.970 . S
Li1499 N1549 1.990 . S
Li1499 O1557 1.961 . S
Li1499 O1558 1.970 . S
Li1499 O1559 1.956 . S
C1500 C1502 1.348 . S
C1500 C1503 1.356 . S
C1500 O1556 1.325 . S
N1501 C1504 1.314 . S
N1501 C1505 1.279 . S
C1502 C1500 1.348 . S
C1502 C1504 1.353 . S
C1502 H1560 0.929 . S
C1503 C1500 1.356 . S
C1503 C1505 1.358 . S
C1503 H1561 0.930 . S
C1504 N1501 1.314 . S
C1504 C1502 1.353 . S
C1504 H1562 0.930 . S
C1505 N1501 1.279 . S
C1505 C1503 1.358 . S
C1505 H1563 0.930 . S
C1506 C1509 1.348 . S
C1506 C1510 1.356 . S
C1506 O1557 1.325 . S
C1507 N1508 1.279 . S
C1507 C1510 1.358 . S
C1507 H1564 0.930 . S
N1508 C1507 1.279 . S
N1508 C1511 1.314 . S
C1509 C1506 1.348 . S
C1509 C1511 1.353 . S
C1509 H1565 0.929 . S
C1510 C1506 1.356 . S
C1510 C1507 1.358 . S
C1510 H1566 0.930 . S
C1511 N1508 1.314 . S
C1511 C1509 1.353 . S
C1511 H1567 0.930 . S
C1512 N1513 1.314 . S
C1512 C1517 1.353 . S
C1512 H1518 0.930 . S
N1513 Li1496 1.990 . S
N1513 C1512 1.314 . S
N1513 C1515 1.279 . S
C1514 C1515 1.358 . S
C1514 C1516 1.356 . S
C1514 H1568 0.930 . S
C1515 N1513 1.279 . S
C1515 C1514 1.358 . S
C1515 H1519 0.930 . S
C1516 C1514 1.356 . S
C1516 C1517 1.348 . S
C1517 C1512 1.353 . S
C1517 C1516 1.348 . S
C1517 H1569 0.929 . S
H1518 C1512 0.930 . S
H1519 C1515 0.930 . S
C1520 N1521 1.314 . S
C1520 C1522 1.353 . S
C1520 H1526 0.930 . S
N1521 Li1497 1.990 . S
N1521 C1520 1.314 . S
N1521 C1524 1.279 . S
C1522 C1520 1.353 . S
C1522 C1525 1.348 . S
C1522 H1570 0.929 . S
C1523 C1524 1.358 . S
C1523 C1525 1.356 . S
C1523 H1571 0.930 . S
C1524 N1521 1.279 . S
C1524 C1523 1.358 . S
C1524 H1527 0.930 . S
C1525 C1522 1.348 . S
C1525 C1523 1.356 . S
H1526 C1520 0.930 . S
H1527 C1524 0.930 . S
C1528 C1530 1.348 . S
C1528 C1531 1.356 . S
C1528 O1558 1.325 . S
N1529 C1532 1.314 . S
N1529 C1533 1.279 . S
C1530 C1528 1.348 . S
C1530 C1532 1.353 . S
C1530 H1572 0.929 . S
C1531 C1528 1.356 . S
C1531 C1533 1.358 . S
C1531 H1573 0.930 . S
C1532 N1529 1.314 . S
C1532 C1530 1.353 . S
C1532 H1574 0.930 . S
C1533 N1529 1.279 . S
C1533 C1531 1.358 . S
C1533 H1575 0.930 . S
C1534 C1535 1.348 . S
C1534 C1536 1.356 . S
C1534 O1559 1.325 . S
C1535 C1534 1.348 . S
C1535 C1537 1.353 . S
C1535 H1576 0.929 . S
C1536 C1534 1.356 . S
C1536 C1538 1.358 . S
C1536 H1577 0.930 . S
C1537 C1535 1.353 . S
C1537 N1539 1.314 . S
C1537 H1578 0.930 . S
C1538 C1536 1.358 . S
C1538 N1539 1.279 . S
C1538 H1579 0.930 . S
N1539 C1537 1.314 . S
N1539 C1538 1.279 . S
C1540 C1542 1.353 . S
C1540 N1543 1.314 . S
C1540 H1546 0.930 . S
C1541 N1543 1.279 . S
C1541 C1544 1.358 . S
C1541 H1547 0.930 . S
C1542 C1540 1.353 . S
C1542 C1545 1.348 . S
C1542 H1580 0.929 . S
N1543 Li1498 1.990 . S
N1543 C1540 1.314 . S
N1543 C1541 1.279 . S
C1544 C1541 1.358 . S
C1544 C1545 1.356 . S
C1544 H1581 0.930 . S
C1545 C1542 1.348 . S
C1545 C1544 1.356 . S
H1546 C1540 0.930 . S
H1547 C1541 0.930 . S
C1548 N1549 1.314 . S
C1548 C1550 1.353 . S
C1548 H1554 0.930 . S
N1549 Li1499 1.990 . S
N1549 C1548 1.314 . S
N1549 C1552 1.279 . S
C1550 C1548 1.353 . S
C1550 C1553 1.348 . S
C1550 H1582 0.929 . S
C1551 C1552 1.358 . S
C1551 C1553 1.356 . S
C1551 H1583 0.930 . S
C1552 N1549 1.279 . S
C1552 C1551 1.358 . S
C1552 H1555 0.930 . S
C1553 C1550 1.348 . S
C1553 C1551 1.356 . S
H1554 C1548 0.930 . S
H1555 C1552 0.930 . S
O1556 Li1496 1.956 . S
O1556 Li1497 1.970 . S
O1556 Li1498 1.961 . S
O1556 C1500 1.325 . S
O1557 Li1496 1.970 . S
O1557 Li1497 1.956 . S
O1557 Li1499 1.961 . S
O1557 C1506 1.325 . S
O1558 Li1496 1.961 . S
O1558 Li1498 1.956 . S
O1558 Li1499 1.970 . S
O1558 C1528 1.325 . S
O1559 Li1497 1.961 . S
O1559 Li1498 1.970 . S
O1559 Li1499 1.956 . S
O1559 C1534 1.325 . S
H1560 C1502 0.929 . S
H1561 C1503 0.930 . S
H1562 C1504 0.930 . S
H1563 C1505 0.930 . S
H1564 C1507 0.930 . S
H1565 C1509 0.929 . S
H1566 C1510 0.930 . S
H1567 C1511 0.930 . S
H1568 C1514 0.930 . S
H1569 C1517 0.929 . S
H1570 C1522 0.929 . S
H1571 C1523 0.930 . S
H1572 C1530 0.929 . S
H1573 C1531 0.930 . S
H1574 C1532 0.930 . S
H1575 C1533 0.930 . S
H1576 C1535 0.929 . S
H1577 C1536 0.930 . S
H1578 C1537 0.930 . S
H1579 C1538 0.930 . S
H1580 C1542 0.929 . S
H1581 C1544 0.930 . S
H1582 C1550 0.929 . S
H1583 C1551 0.930 . S
Li1584 N1601 1.990 . S
Li1584 O1644 1.956 . S
Li1584 O1645 1.970 . S
Li1584 O1646 1.961 . S
Li1585 N1609 1.990 . S
Li1585 O1644 1.970 . S
Li1585 O1645 1.956 . S
Li1585 O1647 1.961 . S
Li1586 N1631 1.990 . S
Li1586 O1644 1.961 . S
Li1586 O1646 1.956 . S
Li1586 O1647 1.970 . S
Li1587 N1637 1.990 . S
Li1587 O1645 1.961 . S
Li1587 O1646 1.970 . S
Li1587 O1647 1.956 . S
C1588 C1590 1.348 . S
C1588 C1591 1.356 . S
C1588 O1644 1.325 . S
N1589 C1592 1.314 . S
N1589 C1593 1.279 . S
C1590 C1588 1.348 . S
C1590 C1592 1.353 . S
C1590 H1648 0.929 . S
C1591 C1588 1.356 . S
C1591 C1593 1.358 . S
C1591 H1649 0.930 . S
C1592 N1589 1.314 . S
C1592 C1590 1.353 . S
C1592 H1650 0.930 . S
C1593 N1589 1.279 . S
C1593 C1591 1.358 . S
C1593 H1651 0.930 . S
C1594 C1597 1.348 . S
C1594 C1598 1.356 . S
C1594 O1645 1.325 . S
C1595 N1596 1.279 . S
C1595 C1598 1.358 . S
C1595 H1652 0.930 . S
N1596 C1595 1.279 . S
N1596 C1599 1.314 . S
C1597 C1594 1.348 . S
C1597 C1599 1.353 . S
C1597 H1653 0.929 . S
C1598 C1594 1.356 . S
C1598 C1595 1.358 . S
C1598 H1654 0.930 . S
C1599 N1596 1.314 . S
C1599 C1597 1.353 . S
C1599 H1655 0.930 . S
C1600 N1601 1.314 . S
C1600 C1605 1.353 . S
C1600 H1606 0.930 . S
N1601 Li1584 1.990 . S
N1601 C1600 1.314 . S
N1601 C1603 1.279 . S
C1602 C1603 1.358 . S
C1602 C1604 1.356 . S
C1602 H1656 0.930 . S
C1603 N1601 1.279 . S
C1603 C1602 1.358 . S
C1603 H1607 0.930 . S
C1604 C1602 1.356 . S
C1604 C1605 1.348 . S
C1605 C1600 1.353 . S
C1605 C1604 1.348 . S
C1605 H1657 0.929 . S
H1606 C1600 0.930 . S
H1607 C1603 0.930 . S
C1608 N1609 1.314 . S
C1608 C1610 1.353 . S
C1608 H1614 0.930 . S
N1609 Li1585 1.990 . S
N1609 C1608 1.314 . S
N1609 C1612 1.279 . S
C1610 C1608 1.353 . S
C1610 C1613 1.348 . S
C1610 H1658 0.929 . S
C1611 C1612 1.358 . S
C1611 C1613 1.356 . S
C1611 H1659 0.930 . S
C1612 N1609 1.279 . S
C1612 C1611 1.358 . S
C1612 H1615 0.930 . S
C1613 C1610 1.348 . S
C1613 C1611 1.356 . S
H1614 C1608 0.930 . S
H1615 C1612 0.930 . S
C1616 C1618 1.348 . S
C1616 C1619 1.356 . S
C1616 O1646 1.325 . S
N1617 C1620 1.314 . S
N1617 C1621 1.279 . S
C1618 C1616 1.348 . S
C1618 C1620 1.353 . S
C1618 H1660 0.929 . S
C1619 C1616 1.356 . S
C1619 C1621 1.358 . S
C1619 H1661 0.930 . S
C1620 N1617 1.314 . S
C1620 C1618 1.353 . S
C1620 H1662 0.930 . S
C1621 N1617 1.279 . S
C1621 C1619 1.358 . S
C1621 H1663 0.930 . S
C1622 C1623 1.348 . S
C1622 C1624 1.356 . S
C1622 O1647 1.325 . S
C1623 C1622 1.348 . S
C1623 C1625 1.353 . S
C1623 H1664 0.929 . S
C1624 C1622 1.356 . S
C1624 C1626 1.358 . S
C1624 H1665 0.930 . S
C1625 C1623 1.353 . S
C1625 N1627 1.314 . S
C1625 H1666 0.930 . S
C1626 C1624 1.358 . S
C1626 N1627 1.279 . S
C1626 H1667 0.930 . S
N1627 C1625 1.314 . S
N1627 C1626 1.279 . S
C1628 C1630 1.353 . S
C1628 N1631 1.314 . S
C1628 H1634 0.930 . S
C1629 N1631 1.279 . S
C1629 C1632 1.358 . S
C1629 H1635 0.930 . S
C1630 C1628 1.353 . S
C1630 C1633 1.348 . S
C1630 H1668 0.929 . S
N1631 Li1586 1.990 . S
N1631 C1628 1.314 . S
N1631 C1629 1.279 . S
C1632 C1629 1.358 . S
C1632 C1633 1.356 . S
C1632 H1669 0.930 . S
C1633 C1630 1.348 . S
C1633 C1632 1.356 . S
H1634 C1628 0.930 . S
H1635 C1629 0.930 . S
C1636 N1637 1.314 . S
C1636 C1638 1.353 . S
C1636 H1642 0.930 . S
N1637 Li1587 1.990 . S
N1637 C1636 1.314 . S
N1637 C1640 1.279 . S
C1638 C1636 1.353 . S
C1638 C1641 1.348 . S
C1638 H1670 0.929 . S
C1639 C1640 1.358 . S
C1639 C1641 1.356 . S
C1639 H1671 0.930 . S
C1640 N1637 1.279 . S
C1640 C1639 1.358 . S
C1640 H1643 0.930 . S
C1641 C1638 1.348 . S
C1641 C1639 1.356 . S
H1642 C1636 0.930 . S
H1643 C1640 0.930 . S
O1644 Li1584 1.956 . S
O1644 Li1585 1.970 . S
O1644 Li1586 1.961 . S
O1644 C1588 1.325 . S
O1645 Li1584 1.970 . S
O1645 Li1585 1.956 . S
O1645 Li1587 1.961 . S
O1645 C1594 1.325 . S
O1646 Li1584 1.961 . S
O1646 Li1586 1.956 . S
O1646 Li1587 1.970 . S
O1646 C1616 1.325 . S
O1647 Li1585 1.961 . S
O1647 Li1586 1.970 . S
O1647 Li1587 1.956 . S
O1647 C1622 1.325 . S
H1648 C1590 0.929 . S
H1649 C1591 0.930 . S
H1650 C1592 0.930 . S
H1651 C1593 0.930 . S
H1652 C1595 0.930 . S
H1653 C1597 0.929 . S
H1654 C1598 0.930 . S
H1655 C1599 0.930 . S
H1656 C1602 0.930 . S
H1657 C1605 0.929 . S
H1658 C1610 0.929 . S
H1659 C1611 0.930 . S
H1660 C1618 0.929 . S
H1661 C1619 0.930 . S
H1662 C1620 0.930 . S
H1663 C1621 0.930 . S
H1664 C1623 0.929 . S
H1665 C1624 0.930 . S
H1666 C1625 0.930 . S
H1667 C1626 0.930 . S
H1668 C1630 0.929 . S
H1669 C1632 0.930 . S
H1670 C1638 0.929 . S
H1671 C1639 0.930 . S
Li1672 N1689 1.993 . S
Li1672 O1732 1.948 1_565 S
Li1672 O1733 1.972 1_565 S
Li1672 O1734 1.969 . S
Li1673 N1697 1.990 . S
Li1673 O1732 1.970 . S
Li1673 O1733 1.956 . S
Li1673 O1735 1.961 . S
Li1674 N1719 1.990 . S
Li1674 O1732 1.961 1_565 S
Li1674 O1734 1.956 . S
Li1674 O1735 1.970 1_565 S
Li1675 N1725 1.990 . S
Li1675 O1733 1.961 1_565 S
Li1675 O1734 1.970 . S
Li1675 O1735 1.956 1_565 S
C1676 C1678 1.348 . S
C1676 C1679 1.356 . S
C1676 O1732 1.325 . S
N1677 C1680 1.314 . S
N1677 C1681 1.279 . S
C1678 C1676 1.348 . S
C1678 C1680 1.353 . S
C1678 H1736 0.929 . S
C1679 C1676 1.356 . S
C1679 C1681 1.358 . S
C1679 H1737 0.930 . S
C1680 N1677 1.314 . S
C1680 C1678 1.353 . S
C1680 H1738 0.930 . S
C1681 N1677 1.279 . S
C1681 C1679 1.358 . S
C1681 H1739 0.930 . S
C1682 C1685 1.348 . S
C1682 C1686 1.356 . S
C1682 O1733 1.325 . S
C1683 N1684 1.279 . S
C1683 C1686 1.358 . S
C1683 H1740 0.930 . S
N1684 C1683 1.279 . S
N1684 C1687 1.314 . S
C1685 C1682 1.348 . S
C1685 C1687 1.353 . S
C1685 H1741 0.929 . S
C1686 C1682 1.356 . S
C1686 C1683 1.358 . S
C1686 H1742 0.930 . S
C1687 N1684 1.314 . S
C1687 C1685 1.353 . S
C1687 H1743 0.930 . S
C1688 N1689 1.377 . S
C1688 C1693 1.353 . S
C1688 H1694 0.930 . S
N1689 Li1672 1.993 . S
N1689 C1688 1.377 . S
N1689 C1691 1.218 1_565 S
C1690 C1691 1.358 . S
C1690 C1692 1.356 1_545 S
C1690 H1744 0.930 . S
C1691 N1689 1.218 1_545 S
C1691 C1690 1.358 . S
C1691 H1695 0.930 . S
C1692 C1690 1.356 1_565 S
C1692 C1693 1.348 . S
C1693 C1688 1.353 . S
C1693 C1692 1.348 . S
C1693 H1745 0.929 . S
H1694 C1688 0.930 . S
H1695 C1691 0.930 . S
C1696 N1697 1.314 . S
C1696 C1698 1.353 . S
C1696 H1702 0.930 . S
N1697 Li1673 1.990 . S
N1697 C1696 1.314 . S
N1697 C1700 1.279 . S
C1698 C1696 1.353 . S
C1698 C1701 1.348 . S
C1698 H1746 0.929 . S
C1699 C1700 1.358 . S
C1699 C1701 1.356 . S
C1699 H1747 0.930 . S
C1700 N1697 1.279 . S
C1700 C1699 1.358 . S
C1700 H1703 0.930 . S
C1701 C1698 1.348 . S
C1701 C1699 1.356 . S
H1702 C1696 0.930 . S
H1703 C1700 0.930 . S
C1704 C1706 1.348 . S
C1704 C1707 1.356 . S
C1704 O1734 1.325 . S
N1705 C1708 1.314 . S
N1705 C1709 1.279 . S
C1706 C1704 1.348 . S
C1706 C1708 1.353 . S
C1706 H1748 0.929 . S
C1707 C1704 1.356 . S
C1707 C1709 1.358 . S
C1707 H1749 0.930 . S
C1708 N1705 1.314 . S
C1708 C1706 1.353 . S
C1708 H1750 0.930 . S
C1709 N1705 1.279 . S
C1709 C1707 1.358 . S
C1709 H1751 0.930 . S
C1710 C1711 1.348 1_545 S
C1710 C1712 1.356 . S
C1710 O1735 1.325 . S
C1711 C1710 1.348 1_565 S
C1711 C1713 1.353 . S
C1711 H1752 0.929 . S
C1712 C1710 1.356 . S
C1712 C1714 1.358 . S
C1712 H1753 0.930 . S
C1713 C1711 1.353 . S
C1713 N1715 1.314 1_565 S
C1713 H1754 0.930 . S
C1714 C1712 1.358 . S
C1714 N1715 1.279 . S
C1714 H1755 0.930 . S
N1715 C1713 1.314 1_545 S
N1715 C1714 1.279 . S
C1716 C1718 1.353 . S
C1716 N1719 1.314 1_545 S
C1716 H1722 0.930 . S
C1717 N1719 1.279 . S
C1717 C1720 1.358 . S
C1717 H1723 0.930 . S
C1718 C1716 1.353 . S
C1718 C1721 1.348 1_545 S
C1718 H1756 0.929 . S
N1719 Li1674 1.990 . S
N1719 C1716 1.314 1_565 S
N1719 C1717 1.279 . S
C1720 C1717 1.358 . S
C1720 C1721 1.356 . S
C1720 H1757 0.930 . S
C1721 C1718 1.348 1_565 S
C1721 C1720 1.356 . S
H1722 C1716 0.930 . S
H1723 C1717 0.930 . S
C1724 N1725 1.314 . S
C1724 C1726 1.353 . S
C1724 H1730 0.930 . S
N1725 Li1675 1.990 . S
N1725 C1724 1.314 . S
N1725 C1728 1.279 . S
C1726 C1724 1.353 . S
C1726 C1729 1.348 . S
C1726 H1758 0.929 . S
C1727 C1728 1.358 . S
C1727 C1729 1.356 . S
C1727 H1759 0.930 . S
C1728 N1725 1.279 . S
C1728 C1727 1.358 . S
C1728 H1731 0.930 . S
C1729 C1726 1.348 . S
C1729 C1727 1.356 . S
H1730 C1724 0.930 . S
H1731 C1728 0.930 . S
O1732 Li1672 1.948 1_545 S
O1732 Li1673 1.970 . S
O1732 Li1674 1.961 1_545 S
O1732 C1676 1.325 . S
O1733 Li1672 1.972 1_545 S
O1733 Li1673 1.956 . S
O1733 Li1675 1.961 1_545 S
O1733 C1682 1.325 . S
O1734 Li1672 1.969 . S
O1734 Li1674 1.956 . S
O1734 Li1675 1.970 . S
O1734 C1704 1.325 . S
O1735 Li1673 1.961 . S
O1735 Li1674 1.970 1_545 S
O1735 Li1675 1.956 1_545 S
O1735 C1710 1.325 . S
H1736 C1678 0.929 . S
H1737 C1679 0.930 . S
H1738 C1680 0.930 . S
H1739 C1681 0.930 . S
H1740 C1683 0.930 . S
H1741 C1685 0.929 . S
H1742 C1686 0.930 . S
H1743 C1687 0.930 . S
H1744 C1690 0.930 . S
H1745 C1693 0.929 . S
H1746 C1698 0.929 . S
H1747 C1699 0.930 . S
H1748 C1706 0.929 . S
H1749 C1707 0.930 . S
H1750 C1708 0.930 . S
H1751 C1709 0.930 . S
H1752 C1711 0.929 . S
H1753 C1712 0.930 . S
H1754 C1713 0.930 . S
H1755 C1714 0.930 . S
H1756 C1718 0.929 . S
H1757 C1720 0.930 . S
H1758 C1726 0.929 . S
H1759 C1727 0.930 . S
Li1760 N1777 1.990 . S
Li1760 O1820 1.956 . S
Li1760 O1821 1.970 . S
Li1760 O1822 1.961 . S
Li1761 N1785 1.990 . S
Li1761 O1820 1.970 . S
Li1761 O1821 1.956 . S
Li1761 O1823 1.961 . S
Li1762 N1807 1.990 1_554 S
Li1762 O1820 1.961 . S
Li1762 O1822 1.956 . S
Li1762 O1823 1.970 . S
Li1763 N1813 1.990 . S
Li1763 O1821 1.961 . S
Li1763 O1822 1.970 . S
Li1763 O1823 1.956 . S
C1764 C1766 1.348 . S
C1764 C1767 1.356 . S
C1764 O1820 1.325 . S
N1765 C1768 1.314 . S
N1765 C1769 1.279 . S
C1766 C1764 1.348 . S
C1766 C1768 1.353 . S
C1766 H1824 0.929 . S
C1767 C1764 1.356 . S
C1767 C1769 1.358 . S
C1767 H1825 0.930 . S
C1768 N1765 1.314 . S
C1768 C1766 1.353 . S
C1768 H1826 0.930 . S
C1769 N1765 1.279 . S
C1769 C1767 1.358 . S
C1769 H1827 0.930 . S
C1770 C1773 1.348 . S
C1770 C1774 1.356 . S
C1770 O1821 1.325 . S
C1771 N1772 1.279 . S
C1771 C1774 1.358 . S
C1771 H1828 0.930 . S
N1772 C1771 1.279 . S
N1772 C1775 1.314 . S
C1773 C1770 1.348 . S
C1773 C1775 1.353 . S
C1773 H1829 0.929 . S
C1774 C1770 1.356 . S
C1774 C1771 1.358 . S
C1774 H1830 0.930 . S
C1775 N1772 1.314 . S
C1775 C1773 1.353 . S
C1775 H1831 0.930 . S
C1776 N1777 1.314 . S
C1776 C1781 1.353 . S
C1776 H1782 0.930 . S
N1777 Li1760 1.990 . S
N1777 C1776 1.314 . S
N1777 C1779 1.279 . S
C1778 C1779 1.358 . S
C1778 C1780 1.356 . S
C1778 H1832 0.930 . S
C1779 N1777 1.279 . S
C1779 C1778 1.358 . S
C1779 H1783 0.930 . S
C1780 C1778 1.356 . S
C1780 C1781 1.348 . S
C1781 C1776 1.353 . S
C1781 C1780 1.348 . S
C1781 H1833 0.929 . S
H1782 C1776 0.930 . S
H1783 C1779 0.930 . S
C1784 N1785 1.314 . S
C1784 C1786 1.353 . S
C1784 H1790 0.930 . S
N1785 Li1761 1.990 . S
N1785 C1784 1.314 . S
N1785 C1788 1.279 . S
C1786 C1784 1.353 . S
C1786 C1789 1.348 . S
C1786 H1834 0.929 . S
C1787 C1788 1.358 . S
C1787 C1789 1.356 . S
C1787 H1835 0.930 . S
C1788 N1785 1.279 . S
C1788 C1787 1.358 . S
C1788 H1791 0.930 . S
C1789 C1786 1.348 . S
C1789 C1787 1.356 . S
H1790 C1784 0.930 . S
H1791 C1788 0.930 . S
C1792 C1794 1.348 . S
C1792 C1795 1.356 . S
C1792 O1822 1.325 . S
N1793 C1796 1.314 . S
N1793 C1797 1.279 . S
C1794 C1792 1.348 . S
C1794 C1796 1.353 . S
C1794 H1836 0.929 . S
C1795 C1792 1.356 . S
C1795 C1797 1.358 . S
C1795 H1837 0.930 . S
C1796 N1793 1.314 . S
C1796 C1794 1.353 . S
C1796 H1838 0.930 . S
C1797 N1793 1.279 . S
C1797 C1795 1.358 . S
C1797 H1839 0.930 . S
C1798 C1799 1.348 . S
C1798 C1800 1.356 . S
C1798 O1823 1.325 1_556 S
C1799 C1798 1.348 . S
C1799 C1801 1.353 . S
C1799 H1840 0.929 . S
C1800 C1798 1.356 . S
C1800 C1802 1.358 . S
C1800 H1841 0.930 1_556 S
C1801 C1799 1.353 . S
C1801 N1803 1.314 . S
C1801 H1842 0.930 . S
C1802 C1800 1.358 . S
C1802 N1803 1.279 . S
C1802 H1843 0.930 . S
N1803 C1801 1.314 . S
N1803 C1802 1.279 . S
C1804 C1806 1.353 . S
C1804 N1807 1.314 . S
C1804 H1810 0.930 . S
C1805 N1807 1.279 . S
C1805 C1808 1.358 . S
C1805 H1811 0.930 . S
C1806 C1804 1.353 . S
C1806 C1809 1.348 . S
C1806 H1844 0.929 . S
N1807 Li1762 1.990 1_556 S
N1807 C1804 1.314 . S
N1807 C1805 1.279 . S
C1808 C1805 1.358 . S
C1808 C1809 1.356 . S
C1808 H1845 0.930 . S
C1809 C1806 1.348 . S
C1809 C1808 1.356 . S
H1810 C1804 0.930 . S
H1811 C1805 0.930 . S
C1812 N1813 1.314 . S
C1812 C1814 1.353 . S
C1812 H1818 0.930 . S
N1813 Li1763 1.990 . S
N1813 C1812 1.314 . S
N1813 C1816 1.279 . S
C1814 C1812 1.353 . S
C1814 C1817 1.348 . S
C1814 H1846 0.929 . S
C1815 C1816 1.358 . S
C1815 C1817 1.356 . S
C1815 H1847 0.930 1_554 S
C1816 N1813 1.279 . S
C1816 C1815 1.358 . S
C1816 H1819 0.869 1_554 S
C1817 C1814 1.348 . S
C1817 C1815 1.356 . S
H1818 C1812 0.930 . S
H1819 C1816 0.869 1_556 S
O1820 Li1760 1.956 . S
O1820 Li1761 1.970 . S
O1820 Li1762 1.961 . S
O1820 C1764 1.325 . S
O1821 Li1760 1.970 . S
O1821 Li1761 1.956 . S
O1821 Li1763 1.961 . S
O1821 C1770 1.325 . S
O1822 Li1760 1.961 . S
O1822 Li1762 1.956 . S
O1822 Li1763 1.970 . S
O1822 C1792 1.325 . S
O1823 Li1761 1.961 . S
O1823 Li1762 1.970 . S
O1823 Li1763 1.956 . S
O1823 C1798 1.325 1_554 S
H1824 C1766 0.929 . S
H1825 C1767 0.930 . S
H1826 C1768 0.930 . S
H1827 C1769 0.930 . S
H1828 C1771 0.930 . S
H1829 C1773 0.929 . S
H1830 C1774 0.930 . S
H1831 C1775 0.930 . S
H1832 C1778 0.930 . S
H1833 C1781 0.929 . S
H1834 C1786 0.929 . S
H1835 C1787 0.930 . S
H1836 C1794 0.929 . S
H1837 C1795 0.930 . S
H1838 C1796 0.930 . S
H1839 C1797 0.930 . S
H1840 C1799 0.929 . S
H1841 C1800 0.930 1_554 S
H1842 C1801 0.930 . S
H1843 C1802 0.930 . S
H1844 C1806 0.929 . S
H1845 C1808 0.930 . S
H1846 C1814 0.929 . S
H1847 C1815 0.930 1_556 S
Li1848 N1865 1.990 . S
Li1848 O1908 1.956 . S
Li1848 O1909 1.970 . S
Li1848 O1910 1.961 . S
Li1849 N1873 1.990 . S
Li1849 O1908 1.970 . S
Li1849 O1909 1.956 . S
Li1849 O1911 1.961 . S
Li1850 N1895 1.990 . S
Li1850 O1908 1.961 . S
Li1850 O1910 1.956 . S
Li1850 O1911 1.970 . S
Li1851 N1901 1.990 . S
Li1851 O1909 1.961 . S
Li1851 O1910 1.970 . S
Li1851 O1911 1.956 . S
C1852 C1854 1.348 . S
C1852 C1855 1.356 . S
C1852 O1908 1.325 . S
N1853 C1856 1.314 . S
N1853 C1857 1.279 . S
C1854 C1852 1.348 . S
C1854 C1856 1.353 . S
C1854 H1912 0.929 . S
C1855 C1852 1.356 . S
C1855 C1857 1.358 . S
C1855 H1913 0.930 . S
C1856 N1853 1.314 . S
C1856 C1854 1.353 . S
C1856 H1914 0.930 . S
C1857 N1853 1.279 . S
C1857 C1855 1.358 . S
C1857 H1915 0.930 . S
C1858 C1861 1.348 . S
C1858 C1862 1.356 . S
C1858 O1909 1.325 . S
C1859 N1860 1.279 . S
C1859 C1862 1.358 . S
C1859 H1916 0.930 . S
N1860 C1859 1.279 . S
N1860 C1863 1.314 . S
C1861 C1858 1.348 . S
C1861 C1863 1.353 . S
C1861 H1917 0.929 . S
C1862 C1858 1.356 . S
C1862 C1859 1.358 . S
C1862 H1918 0.930 . S
C1863 N1860 1.314 . S
C1863 C1861 1.353 . S
C1863 H1919 0.930 . S
C1864 N1865 1.314 . S
C1864 C1869 1.353 . S
C1864 H1870 0.930 . S
N1865 Li1848 1.990 . S
N1865 C1864 1.314 . S
N1865 C1867 1.279 . S
C1866 C1867 1.358 . S
C1866 C1868 1.356 . S
C1866 H1920 0.930 . S
C1867 N1865 1.279 . S
C1867 C1866 1.358 . S
C1867 H1871 0.930 . S
C1868 C1866 1.356 . S
C1868 C1869 1.348 . S
C1869 C1864 1.353 . S
C1869 C1868 1.348 . S
C1869 H1921 0.929 . S
H1870 C1864 0.930 . S
H1871 C1867 0.930 . S
C1872 N1873 1.314 . S
C1872 C1874 1.353 . S
C1872 H1878 0.930 . S
N1873 Li1849 1.990 . S
N1873 C1872 1.314 . S
N1873 C1876 1.279 . S
C1874 C1872 1.353 . S
C1874 C1877 1.348 . S
C1874 H1922 0.929 . S
C1875 C1876 1.358 . S
C1875 C1877 1.356 . S
C1875 H1923 0.930 . S
C1876 N1873 1.279 . S
C1876 C1875 1.358 . S
C1876 H1879 0.930 . S
C1877 C1874 1.348 . S
C1877 C1875 1.356 . S
H1878 C1872 0.930 . S
H1879 C1876 0.930 . S
C1880 C1882 1.348 . S
C1880 C1883 1.356 . S
C1880 O1910 1.325 . S
N1881 C1884 1.314 . S
N1881 C1885 1.279 . S
C1882 C1880 1.348 . S
C1882 C1884 1.353 . S
C1882 H1924 0.929 . S
C1883 C1880 1.356 . S
C1883 C1885 1.358 . S
C1883 H1925 0.930 . S
C1884 N1881 1.314 . S
C1884 C1882 1.353 . S
C1884 H1926 0.930 . S
C1885 N1881 1.279 . S
C1885 C1883 1.358 . S
C1885 H1927 0.930 . S
C1886 C1887 1.348 . S
C1886 C1888 1.356 . S
C1886 O1911 1.325 . S
C1887 C1886 1.348 . S
C1887 C1889 1.353 . S
C1887 H1928 0.929 . S
C1888 C1886 1.356 . S
C1888 C1890 1.358 . S
C1888 H1929 0.930 . S
C1889 C1887 1.353 . S
C1889 N1891 1.314 . S
C1889 H1930 0.930 . S
C1890 C1888 1.358 . S
C1890 N1891 1.279 . S
C1890 H1931 0.930 . S
N1891 C1889 1.314 . S
N1891 C1890 1.279 . S
C1892 C1894 1.353 . S
C1892 N1895 1.314 . S
C1892 H1898 0.930 . S
C1893 N1895 1.279 . S
C1893 C1896 1.358 . S
C1893 H1899 0.930 . S
C1894 C1892 1.353 . S
C1894 C1897 1.348 . S
C1894 H1932 0.929 . S
N1895 Li1850 1.990 . S
N1895 C1892 1.314 . S
N1895 C1893 1.279 . S
C1896 C1893 1.358 . S
C1896 C1897 1.356 . S
C1896 H1933 0.930 . S
C1897 C1894 1.348 . S
C1897 C1896 1.356 . S
H1898 C1892 0.930 . S
H1899 C1893 0.930 . S
C1900 N1901 1.314 . S
C1900 C1902 1.353 . S
C1900 H1906 0.930 . S
N1901 Li1851 1.990 . S
N1901 C1900 1.314 . S
N1901 C1904 1.279 . S
C1902 C1900 1.353 . S
C1902 C1905 1.348 . S
C1902 H1934 0.929 . S
C1903 C1904 1.358 . S
C1903 C1905 1.356 . S
C1903 H1935 0.930 . S
C1904 N1901 1.279 . S
C1904 C1903 1.358 . S
C1904 H1907 0.930 . S
C1905 C1902 1.348 . S
C1905 C1903 1.356 . S
H1906 C1900 0.930 . S
H1907 C1904 0.930 . S
O1908 Li1848 1.956 . S
O1908 Li1849 1.970 . S
O1908 Li1850 1.961 . S
O1908 C1852 1.325 . S
O1909 Li1848 1.970 . S
O1909 Li1849 1.956 . S
O1909 Li1851 1.961 . S
O1909 C1858 1.325 . S
O1910 Li1848 1.961 . S
O1910 Li1850 1.956 . S
O1910 Li1851 1.970 . S
O1910 C1880 1.325 . S
O1911 Li1849 1.961 . S
O1911 Li1850 1.970 . S
O1911 Li1851 1.956 . S
O1911 C1886 1.325 . S
H1912 C1854 0.929 . S
H1913 C1855 0.930 . S
H1914 C1856 0.930 . S
H1915 C1857 0.930 . S
H1916 C1859 0.930 . S
H1917 C1861 0.929 . S
H1918 C1862 0.930 . S
H1919 C1863 0.930 . S
H1920 C1866 0.930 . S
H1921 C1869 0.929 . S
H1922 C1874 0.929 . S
H1923 C1875 0.930 . S
H1924 C1882 0.929 . S
H1925 C1883 0.930 . S
H1926 C1884 0.930 . S
H1927 C1885 0.930 . S
H1928 C1887 0.929 . S
H1929 C1888 0.930 . S
H1930 C1889 0.930 . S
H1931 C1890 0.930 . S
H1932 C1894 0.929 . S
H1933 C1896 0.930 . S
H1934 C1902 0.929 . S
H1935 C1903 0.930 . S
Li1936 N1953 1.990 . S
Li1936 O1996 1.956 . S
Li1936 O1997 1.970 . S
Li1936 O1998 1.961 . S
Li1937 N1961 1.990 . S
Li1937 O1996 1.970 . S
Li1937 O1997 1.956 . S
Li1937 O1999 1.961 . S
Li1938 N1983 1.990 . S
Li1938 O1996 1.961 . S
Li1938 O1998 1.956 . S
Li1938 O1999 1.970 . S
Li1939 N1989 1.990 . S
Li1939 O1997 1.961 . S
Li1939 O1998 1.970 . S
Li1939 O1999 1.956 . S
C1940 C1942 1.348 . S
C1940 C1943 1.356 . S
C1940 O1996 1.325 . S
N1941 C1944 1.314 . S
N1941 C1945 1.279 . S
C1942 C1940 1.348 . S
C1942 C1944 1.353 . S
C1942 H2000 0.929 . S
C1943 C1940 1.356 . S
C1943 C1945 1.358 . S
C1943 H2001 0.930 . S
C1944 N1941 1.314 . S
C1944 C1942 1.353 . S
C1944 H2002 0.930 . S
C1945 N1941 1.279 . S
C1945 C1943 1.358 . S
C1945 H2003 0.930 . S
C1946 C1949 1.348 . S
C1946 C1950 1.356 . S
C1946 O1997 1.325 . S
C1947 N1948 1.279 . S
C1947 C1950 1.358 . S
C1947 H2004 0.930 . S
N1948 C1947 1.279 . S
N1948 C1951 1.314 . S
C1949 C1946 1.348 . S
C1949 C1951 1.353 . S
C1949 H2005 0.929 . S
C1950 C1946 1.356 . S
C1950 C1947 1.358 . S
C1950 H2006 0.930 . S
C1951 N1948 1.314 . S
C1951 C1949 1.353 . S
C1951 H2007 0.930 . S
C1952 N1953 1.314 . S
C1952 C1957 1.353 . S
C1952 H1958 0.930 . S
N1953 Li1936 1.990 . S
N1953 C1952 1.314 . S
N1953 C1955 1.279 . S
C1954 C1955 1.358 . S
C1954 C1956 1.356 . S
C1954 H2008 0.930 . S
C1955 N1953 1.279 . S
C1955 C1954 1.358 . S
C1955 H1959 0.930 . S
C1956 C1954 1.356 . S
C1956 C1957 1.348 . S
C1957 C1952 1.353 . S
C1957 C1956 1.348 . S
C1957 H2009 0.929 . S
H1958 C1952 0.930 . S
H1959 C1955 0.930 . S
C1960 N1961 1.314 . S
C1960 C1962 1.353 . S
C1960 H1966 0.930 . S
N1961 Li1937 1.990 . S
N1961 C1960 1.314 . S
N1961 C1964 1.279 . S
C1962 C1960 1.353 . S
C1962 C1965 1.348 . S
C1962 H2010 0.929 . S
C1963 C1964 1.358 . S
C1963 C1965 1.356 . S
C1963 H2011 0.930 . S
C1964 N1961 1.279 . S
C1964 C1963 1.358 . S
C1964 H1967 0.930 . S
C1965 C1962 1.348 . S
C1965 C1963 1.356 . S
H1966 C1960 0.930 . S
H1967 C1964 0.930 . S
C1968 C1970 1.348 . S
C1968 C1971 1.356 . S
C1968 O1998 1.325 . S
N1969 C1972 1.314 . S
N1969 C1973 1.279 . S
C1970 C1968 1.348 . S
C1970 C1972 1.353 . S
C1970 H2012 0.929 . S
C1971 C1968 1.356 . S
C1971 C1973 1.358 . S
C1971 H2013 0.930 . S
C1972 N1969 1.314 . S
C1972 C1970 1.353 . S
C1972 H2014 0.930 . S
C1973 N1969 1.279 . S
C1973 C1971 1.358 . S
C1973 H2015 0.930 . S
C1974 C1975 1.348 . S
C1974 C1976 1.356 . S
C1974 O1999 1.325 . S
C1975 C1974 1.348 . S
C1975 C1977 1.353 . S
C1975 H2016 0.929 . S
C1976 C1974 1.356 . S
C1976 C1978 1.358 . S
C1976 H2017 0.930 . S
C1977 C1975 1.353 . S
C1977 N1979 1.314 . S
C1977 H2018 0.930 . S
C1978 C1976 1.358 . S
C1978 N1979 1.279 . S
C1978 H2019 0.930 . S
N1979 C1977 1.314 . S
N1979 C1978 1.279 . S
C1980 C1982 1.353 . S
C1980 N1983 1.314 . S
C1980 H1986 0.930 . S
C1981 N1983 1.279 . S
C1981 C1984 1.358 . S
C1981 H1987 0.930 . S
C1982 C1980 1.353 . S
C1982 C1985 1.348 . S
C1982 H2020 0.929 . S
N1983 Li1938 1.990 . S
N1983 C1980 1.314 . S
N1983 C1981 1.279 . S
C1984 C1981 1.358 . S
C1984 C1985 1.356 . S
C1984 H2021 0.930 . S
C1985 C1982 1.348 . S
C1985 C1984 1.356 . S
H1986 C1980 0.930 . S
H1987 C1981 0.930 . S
C1988 N1989 1.314 . S
C1988 C1990 1.353 . S
C1988 H1994 0.930 . S
N1989 Li1939 1.990 . S
N1989 C1988 1.314 . S
N1989 C1992 1.279 . S
C1990 C1988 1.353 . S
C1990 C1993 1.348 . S
C1990 H2022 0.929 . S
C1991 C1992 1.358 . S
C1991 C1993 1.356 . S
C1991 H2023 0.930 . S
C1992 N1989 1.279 . S
C1992 C1991 1.358 . S
C1992 H1995 0.930 . S
C1993 C1990 1.348 . S
C1993 C1991 1.356 . S
H1994 C1988 0.930 . S
H1995 C1992 0.930 . S
O1996 Li1936 1.956 . S
O1996 Li1937 1.970 . S
O1996 Li1938 1.961 . S
O1996 C1940 1.325 . S
O1997 Li1936 1.970 . S
O1997 Li1937 1.956 . S
O1997 Li1939 1.961 . S
O1997 C1946 1.325 . S
O1998 Li1936 1.961 . S
O1998 Li1938 1.956 . S
O1998 Li1939 1.970 . S
O1998 C1968 1.325 . S
O1999 Li1937 1.961 . S
O1999 Li1938 1.970 . S
O1999 Li1939 1.956 . S
O1999 C1974 1.325 . S
H2000 C1942 0.929 . S
H2001 C1943 0.930 . S
H2002 C1944 0.930 . S
H2003 C1945 0.930 . S
H2004 C1947 0.930 . S
H2005 C1949 0.929 . S
H2006 C1950 0.930 . S
H2007 C1951 0.930 . S
H2008 C1954 0.930 . S
H2009 C1957 0.929 . S
H2010 C1962 0.929 . S
H2011 C1963 0.930 . S
H2012 C1970 0.929 . S
H2013 C1971 0.930 . S
H2014 C1972 0.930 . S
H2015 C1973 0.930 . S
H2016 C1975 0.929 . S
H2017 C1976 0.930 . S
H2018 C1977 0.930 . S
H2019 C1978 0.930 . S
H2020 C1982 0.929 . S
H2021 C1984 0.930 . S
H2022 C1990 0.929 . S
H2023 C1991 0.930 . S
Li2024 N2041 1.990 . S
Li2024 O2084 1.956 . S
Li2024 O2085 1.970 . S
Li2024 O2086 1.961 . S
Li2025 N2049 1.990 . S
Li2025 O2084 1.970 . S
Li2025 O2085 1.956 . S
Li2025 O2087 1.961 . S
Li2026 N2071 1.990 . S
Li2026 O2084 1.961 . S
Li2026 O2086 1.956 . S
Li2026 O2087 1.970 . S
Li2027 N2077 1.990 . S
Li2027 O2085 1.961 . S
Li2027 O2086 1.970 . S
Li2027 O2087 1.956 . S
C2028 C2030 1.348 . S
C2028 C2031 1.356 . S
C2028 O2084 1.325 . S
N2029 C2032 1.314 . S
N2029 C2033 1.279 . S
C2030 C2028 1.348 . S
C2030 C2032 1.353 . S
C2030 H2088 0.929 . S
C2031 C2028 1.356 . S
C2031 C2033 1.358 . S
C2031 H2089 0.930 . S
C2032 N2029 1.314 . S
C2032 C2030 1.353 . S
C2032 H2090 0.930 . S
C2033 N2029 1.279 . S
C2033 C2031 1.358 . S
C2033 H2091 0.930 . S
C2034 C2037 1.348 . S
C2034 C2038 1.356 . S
C2034 O2085 1.325 . S
C2035 N2036 1.279 . S
C2035 C2038 1.358 . S
C2035 H2092 0.930 . S
N2036 C2035 1.279 . S
N2036 C2039 1.314 . S
C2037 C2034 1.348 . S
C2037 C2039 1.353 . S
C2037 H2093 0.929 . S
C2038 C2034 1.356 . S
C2038 C2035 1.358 . S
C2038 H2094 0.930 . S
C2039 N2036 1.314 . S
C2039 C2037 1.353 . S
C2039 H2095 0.930 . S
C2040 N2041 1.314 . S
C2040 C2045 1.353 . S
C2040 H2046 0.930 . S
N2041 Li2024 1.990 . S
N2041 C2040 1.314 . S
N2041 C2043 1.279 . S
C2042 C2043 1.358 . S
C2042 C2044 1.356 . S
C2042 H2096 0.930 . S
C2043 N2041 1.279 . S
C2043 C2042 1.358 . S
C2043 H2047 0.930 . S
C2044 C2042 1.356 . S
C2044 C2045 1.348 . S
C2045 C2040 1.353 . S
C2045 C2044 1.348 . S
C2045 H2097 0.929 . S
H2046 C2040 0.930 . S
H2047 C2043 0.930 . S
C2048 N2049 1.314 . S
C2048 C2050 1.353 . S
C2048 H2054 0.930 . S
N2049 Li2025 1.990 . S
N2049 C2048 1.314 . S
N2049 C2052 1.279 . S
C2050 C2048 1.353 . S
C2050 C2053 1.348 . S
C2050 H2098 0.929 . S
C2051 C2052 1.358 . S
C2051 C2053 1.356 . S
C2051 H2099 0.930 . S
C2052 N2049 1.279 . S
C2052 C2051 1.358 . S
C2052 H2055 0.930 . S
C2053 C2050 1.348 . S
C2053 C2051 1.356 . S
H2054 C2048 0.930 . S
H2055 C2052 0.930 . S
C2056 C2058 1.348 . S
C2056 C2059 1.356 . S
C2056 O2086 1.325 . S
N2057 C2060 1.314 . S
N2057 C2061 1.279 . S
C2058 C2056 1.348 . S
C2058 C2060 1.353 . S
C2058 H2100 0.929 . S
C2059 C2056 1.356 . S
C2059 C2061 1.358 . S
C2059 H2101 0.930 . S
C2060 N2057 1.314 . S
C2060 C2058 1.353 . S
C2060 H2102 0.930 . S
C2061 N2057 1.279 . S
C2061 C2059 1.358 . S
C2061 H2103 0.930 . S
C2062 C2063 1.348 . S
C2062 C2064 1.356 . S
C2062 O2087 1.325 . S
C2063 C2062 1.348 . S
C2063 C2065 1.353 . S
C2063 H2104 0.929 . S
C2064 C2062 1.356 . S
C2064 C2066 1.358 . S
C2064 H2105 0.930 . S
C2065 C2063 1.353 . S
C2065 N2067 1.314 . S
C2065 H2106 0.930 . S
C2066 C2064 1.358 . S
C2066 N2067 1.279 . S
C2066 H2107 0.930 . S
N2067 C2065 1.314 . S
N2067 C2066 1.279 . S
C2068 C2070 1.353 . S
C2068 N2071 1.314 . S
C2068 H2074 0.930 . S
C2069 N2071 1.279 . S
C2069 C2072 1.358 . S
C2069 H2075 0.930 . S
C2070 C2068 1.353 . S
C2070 C2073 1.348 . S
C2070 H2108 0.929 . S
N2071 Li2026 1.990 . S
N2071 C2068 1.314 . S
N2071 C2069 1.279 . S
C2072 C2069 1.358 . S
C2072 C2073 1.356 . S
C2072 H2109 0.930 . S
C2073 C2070 1.348 . S
C2073 C2072 1.356 . S
H2074 C2068 0.930 . S
H2075 C2069 0.930 . S
C2076 N2077 1.314 . S
C2076 C2078 1.353 . S
C2076 H2082 0.930 . S
N2077 Li2027 1.990 . S
N2077 C2076 1.314 . S
N2077 C2080 1.279 . S
C2078 C2076 1.353 . S
C2078 C2081 1.348 . S
C2078 H2110 0.929 . S
C2079 C2080 1.358 . S
C2079 C2081 1.356 . S
C2079 H2111 0.930 . S
C2080 N2077 1.279 . S
C2080 C2079 1.358 . S
C2080 H2083 0.930 . S
C2081 C2078 1.348 . S
C2081 C2079 1.356 . S
H2082 C2076 0.930 . S
H2083 C2080 0.930 . S
O2084 Li2024 1.956 . S
O2084 Li2025 1.970 . S
O2084 Li2026 1.961 . S
O2084 C2028 1.325 . S
O2085 Li2024 1.970 . S
O2085 Li2025 1.956 . S
O2085 Li2027 1.961 . S
O2085 C2034 1.325 . S
O2086 Li2024 1.961 . S
O2086 Li2026 1.956 . S
O2086 Li2027 1.970 . S
O2086 C2056 1.325 . S
O2087 Li2025 1.961 . S
O2087 Li2026 1.970 . S
O2087 Li2027 1.956 . S
O2087 C2062 1.325 . S
H2088 C2030 0.929 . S
H2089 C2031 0.930 . S
H2090 C2032 0.930 . S
H2091 C2033 0.930 . S
H2092 C2035 0.930 . S
H2093 C2037 0.929 . S
H2094 C2038 0.930 . S
H2095 C2039 0.930 . S
H2096 C2042 0.930 . S
H2097 C2045 0.929 . S
H2098 C2050 0.929 . S
H2099 C2051 0.930 . S
H2100 C2058 0.929 . S
H2101 C2059 0.930 . S
H2102 C2060 0.930 . S
H2103 C2061 0.930 . S
H2104 C2063 0.929 . S
H2105 C2064 0.930 . S
H2106 C2065 0.930 . S
H2107 C2066 0.930 . S
H2108 C2070 0.929 . S
H2109 C2072 0.930 . S
H2110 C2078 0.929 . S
H2111 C2079 0.930 . S
Pr2112 C2114 2.880 1_455 S
Pr2112 O2132 2.562 1_455 S
Pr2112 O2133 2.490 1_454 S
Pr2112 O2134 2.695 . S
Pr2112 O2135 2.512 1_554 S
Pr2112 O2137 2.437 . S
Pr2112 O2140 2.436 . S
Pr2112 O2142 2.438 . S
Pr2113 C2123 2.880 . S
Pr2113 O2134 2.436 . S
Pr2113 O2136 2.438 . S
Pr2113 O2138 2.562 . S
Pr2113 O2139 2.490 . S
Pr2113 O2140 2.695 . S
Pr2113 O2141 2.512 . S
Pr2113 O2143 2.437 . S
C2114 Pr2112 2.880 1_655 S
C2114 C2115 1.490 1_554 S
C2114 O2132 1.254 . S
C2114 O2133 1.225 1_554 S
C2115 C2114 1.490 1_556 S
C2115 C2116 1.397 . S
C2115 C2120 1.352 1_556 S
C2116 C2115 1.397 . S
C2116 C2117 1.368 . S
C2116 H2144 0.929 . S
C2117 C2116 1.368 . S
C2117 C2118 1.386 . S
C2117 H2145 0.929 . S
C2118 C2117 1.386 . S
C2118 C2119 1.373 1_556 S
C2119 C2118 1.373 1_554 S
C2119 C2120 1.409 . S
C2119 H2146 0.931 . S
C2120 C2115 1.352 1_554 S
C2120 C2119 1.409 . S
C2120 H2147 0.930 . S
C2121 O2134 1.270 1_556 S
C2121 O2135 1.248 . S
C2122 O2136 1.267 . S
C2122 O2137 1.278 . S
C2123 Pr2113 2.880 . S
C2123 C2124 1.491 . S
C2123 O2138 1.254 . S
C2123 O2139 1.225 . S
C2124 C2123 1.491 . S
C2124 C2125 1.392 . S
C2124 C2129 1.356 . S
C2125 C2124 1.392 . S
C2125 C2126 1.368 . S
C2125 H2148 0.929 . S
C2126 C2125 1.368 . S
C2126 C2127 1.386 . S
C2126 H2149 0.929 . S
C2127 C2126 1.386 . S
C2127 C2128 1.373 . S
C2128 C2127 1.373 . S
C2128 C2129 1.409 . S
C2128 H2150 0.931 . S
C2129 C2124 1.356 . S
C2129 C2128 1.409 . S
C2129 H2151 0.930 . S
C2130 O2140 1.270 . S
C2130 O2141 1.248 . S
C2131 O2142 1.267 . S
C2131 O2143 1.278 . S
O2132 Pr2112 2.562 1_655 S
O2132 C2114 1.254 . S
O2133 Pr2112 2.490 1_656 S
O2133 C2114 1.225 1_556 S
O2134 Pr2112 2.695 . S
O2134 Pr2113 2.436 . S
O2134 C2121 1.270 1_554 S
O2135 Pr2112 2.512 1_556 S
O2135 C2121 1.248 . S
O2136 Pr2113 2.438 . S
O2136 C2122 1.267 . S
O2137 Pr2112 2.437 . S
O2137 C2122 1.278 . S
O2138 Pr2113 2.562 . S
O2138 C2123 1.254 . S
O2139 Pr2113 2.490 . S
O2139 C2123 1.225 . S
O2140 Pr2112 2.436 . S
O2140 Pr2113 2.695 . S
O2140 C2130 1.270 . S
O2141 Pr2113 2.512 . S
O2141 C2130 1.248 . S
O2142 Pr2112 2.438 . S
O2142 C2131 1.267 . S
O2143 Pr2113 2.437 . S
O2143 C2131 1.278 . S
H2144 C2116 0.929 . S
H2145 C2117 0.929 . S
H2146 C2119 0.931 . S
H2147 C2120 0.930 . S
H2148 C2125 0.929 . S
H2149 C2126 0.929 . S
H2150 C2128 0.931 . S
H2151 C2129 0.930 . S
Pr2152 C2154 2.880 . S
Pr2152 O2172 2.562 . S
Pr2152 O2173 2.490 . S
Pr2152 O2174 2.695 . S
Pr2152 O2175 2.512 . S
Pr2152 O2177 2.437 . S
Pr2152 O2180 2.436 . S
Pr2152 O2182 2.438 . S
Pr2153 C2163 2.880 . S
Pr2153 O2174 2.436 . S
Pr2153 O2176 2.438 . S
Pr2153 O2178 2.562 . S
Pr2153 O2179 2.490 . S
Pr2153 O2180 2.695 . S
Pr2153 O2181 2.512 . S
Pr2153 O2183 2.437 . S
C2154 Pr2152 2.880 . S
C2154 C2155 1.491 . S
C2154 O2172 1.254 . S
C2154 O2173 1.225 . S
C2155 C2154 1.491 . S
C2155 C2156 1.392 . S
C2155 C2160 1.356 . S
C2156 C2155 1.392 . S
C2156 C2157 1.368 . S
C2156 H2184 0.929 . S
C2157 C2156 1.368 . S
C2157 C2158 1.386 . S
C2157 H2185 0.929 . S
C2158 C2157 1.386 . S
C2158 C2159 1.373 . S
C2159 C2158 1.373 . S
C2159 C2160 1.409 . S
C2159 H2186 0.931 . S
C2160 C2155 1.356 . S
C2160 C2159 1.409 . S
C2160 H2187 0.930 . S
C2161 O2174 1.270 . S
C2161 O2175 1.248 . S
C2162 O2176 1.267 . S
C2162 O2177 1.278 . S
C2163 Pr2153 2.880 . S
C2163 C2164 1.491 . S
C2163 O2178 1.254 . S
C2163 O2179 1.225 . S
C2164 C2163 1.491 . S
C2164 C2165 1.392 . S
C2164 C2169 1.356 . S
C2165 C2164 1.392 . S
C2165 C2166 1.368 . S
C2165 H2188 0.929 . S
C2166 C2165 1.368 . S
C2166 C2167 1.386 . S
C2166 H2189 0.929 . S
C2167 C2166 1.386 . S
C2167 C2168 1.373 . S
C2168 C2167 1.373 . S
C2168 C2169 1.409 . S
C2168 H2190 0.931 . S
C2169 C2164 1.356 . S
C2169 C2168 1.409 . S
C2169 H2191 0.930 . S
C2170 O2180 1.270 . S
C2170 O2181 1.248 . S
C2171 O2182 1.267 . S
C2171 O2183 1.278 . S
O2172 Pr2152 2.562 . S
O2172 C2154 1.254 . S
O2173 Pr2152 2.490 . S
O2173 C2154 1.225 . S
O2174 Pr2152 2.695 . S
O2174 Pr2153 2.436 . S
O2174 C2161 1.270 . S
O2175 Pr2152 2.512 . S
O2175 C2161 1.248 . S
O2176 Pr2153 2.438 . S
O2176 C2162 1.267 . S
O2177 Pr2152 2.437 . S
O2177 C2162 1.278 . S
O2178 Pr2153 2.562 . S
O2178 C2163 1.254 . S
O2179 Pr2153 2.490 . S
O2179 C2163 1.225 . S
O2180 Pr2152 2.436 . S
O2180 Pr2153 2.695 . S
O2180 C2170 1.270 . S
O2181 Pr2153 2.512 . S
O2181 C2170 1.248 . S
O2182 Pr2152 2.438 . S
O2182 C2171 1.267 . S
O2183 Pr2153 2.437 . S
O2183 C2171 1.278 . S
H2184 C2156 0.929 . S
H2185 C2157 0.929 . S
H2186 C2159 0.931 . S
H2187 C2160 0.930 . S
H2188 C2165 0.929 . S
H2189 C2166 0.929 . S
H2190 C2168 0.931 . S
H2191 C2169 0.930 . S
Pr2192 C2194 2.880 . S
Pr2192 O2212 2.562 . S
Pr2192 O2213 2.490 . S
Pr2192 O2214 2.695 . S
Pr2192 O2215 2.512 . S
Pr2192 O2217 2.437 . S
Pr2192 O2220 2.436 . S
Pr2192 O2222 2.438 . S
Pr2193 C2203 2.880 . S
Pr2193 O2214 2.436 . S
Pr2193 O2216 2.438 . S
Pr2193 O2218 2.562 . S
Pr2193 O2219 2.490 . S
Pr2193 O2220 2.695 . S
Pr2193 O2221 2.512 . S
Pr2193 O2223 2.437 . S
C2194 Pr2192 2.880 . S
C2194 C2195 1.491 . S
C2194 O2212 1.254 . S
C2194 O2213 1.225 . S
C2195 C2194 1.491 . S
C2195 C2196 1.392 . S
C2195 C2200 1.356 . S
C2196 C2195 1.392 . S
C2196 C2197 1.368 . S
C2196 H2224 0.929 . S
C2197 C2196 1.368 . S
C2197 C2198 1.386 . S
C2197 H2225 0.929 . S
C2198 C2197 1.386 . S
C2198 C2199 1.373 . S
C2199 C2198 1.373 . S
C2199 C2200 1.409 . S
C2199 H2226 0.948 . S
C2200 C2195 1.356 . S
C2200 C2199 1.409 . S
C2200 H2227 0.930 . S
C2201 O2214 1.270 . S
C2201 O2215 1.248 . S
C2202 O2216 1.267 . S
C2202 O2217 1.278 . S
C2203 Pr2193 2.880 . S
C2203 C2204 1.491 . S
C2203 O2218 1.254 . S
C2203 O2219 1.225 . S
C2204 C2203 1.491 . S
C2204 C2205 1.392 . S
C2204 C2209 1.356 . S
C2205 C2204 1.392 . S
C2205 C2206 1.368 . S
C2205 H2228 0.929 . S
C2206 C2205 1.368 . S
C2206 C2207 1.386 . S
C2206 H2229 0.929 . S
C2207 C2206 1.386 . S
C2207 C2208 1.373 . S
C2208 C2207 1.373 . S
C2208 C2209 1.409 . S
C2208 H2230 0.931 . S
C2209 C2204 1.356 . S
C2209 C2208 1.409 . S
C2209 H2231 0.930 . S
C2210 O2220 1.270 . S
C2210 O2221 1.248 . S
C2211 O2222 1.267 . S
C2211 O2223 1.278 . S
O2212 Pr2192 2.562 . S
O2212 C2194 1.254 . S
O2213 Pr2192 2.490 . S
O2213 C2194 1.225 . S
O2214 Pr2192 2.695 . S
O2214 Pr2193 2.436 . S
O2214 C2201 1.270 . S
O2215 Pr2192 2.512 . S
O2215 C2201 1.248 . S
O2216 Pr2193 2.438 . S
O2216 C2202 1.267 . S
O2217 Pr2192 2.437 . S
O2217 C2202 1.278 . S
O2218 Pr2193 2.562 . S
O2218 C2203 1.254 . S
O2219 Pr2193 2.490 . S
O2219 C2203 1.225 . S
O2220 Pr2192 2.436 . S
O2220 Pr2193 2.695 . S
O2220 C2210 1.270 . S
O2221 Pr2193 2.512 . S
O2221 C2210 1.248 . S
O2222 Pr2192 2.438 . S
O2222 C2211 1.267 . S
O2223 Pr2193 2.437 . S
O2223 C2211 1.278 . S
H2224 C2196 0.929 . S
H2225 C2197 0.929 . S
H2226 C2199 0.948 . S
H2227 C2200 0.930 . S
H2228 C2205 0.929 . S
H2229 C2206 0.929 . S
H2230 C2208 0.931 . S
H2231 C2209 0.930 . S
Pr2232 C2234 2.880 . S
Pr2232 O2252 2.562 . S
Pr2232 O2253 2.490 . S
Pr2232 O2254 2.695 . S
Pr2232 O2255 2.512 . S
Pr2232 O2257 2.437 . S
Pr2232 O2260 2.436 . S
Pr2232 O2262 2.438 . S
Pr2233 C2243 2.880 . S
Pr2233 O2254 2.436 . S
Pr2233 O2256 2.438 . S
Pr2233 O2258 2.562 . S
Pr2233 O2259 2.490 . S
Pr2233 O2260 2.695 . S
Pr2233 O2261 2.512 . S
Pr2233 O2263 2.437 . S
C2234 Pr2232 2.880 . S
C2234 C2235 1.491 . S
C2234 O2252 1.254 . S
C2234 O2253 1.225 . S
C2235 C2234 1.491 . S
C2235 C2236 1.392 . S
C2235 C2240 1.356 . S
C2236 C2235 1.392 . S
C2236 C2237 1.368 . S
C2236 H2264 0.929 . S
C2237 C2236 1.368 . S
C2237 C2238 1.386 . S
C2237 H2265 0.929 . S
C2238 C2237 1.386 . S
C2238 C2239 1.373 . S
C2239 C2238 1.373 . S
C2239 C2240 1.409 . S
C2239 H2266 0.931 . S
C2240 C2235 1.356 . S
C2240 C2239 1.409 . S
C2240 H2267 0.930 . S
C2241 O2254 1.270 . S
C2241 O2255 1.248 . S
C2242 O2256 1.267 . S
C2242 O2257 1.278 . S
C2243 Pr2233 2.880 . S
C2243 C2244 1.491 . S
C2243 O2258 1.254 . S
C2243 O2259 1.225 . S
C2244 C2243 1.491 . S
C2244 C2245 1.392 . S
C2244 C2249 1.356 . S
C2245 C2244 1.392 . S
C2245 C2246 1.368 . S
C2245 H2268 0.929 . S
C2246 C2245 1.368 . S
C2246 C2247 1.386 . S
C2246 H2269 0.929 . S
C2247 C2246 1.386 . S
C2247 C2248 1.373 . S
C2248 C2247 1.373 . S
C2248 C2249 1.409 . S
C2248 H2270 0.931 . S
C2249 C2244 1.356 . S
C2249 C2248 1.409 . S
C2249 H2271 0.930 . S
C2250 O2260 1.270 . S
C2250 O2261 1.248 . S
C2251 O2262 1.267 . S
C2251 O2263 1.278 . S
O2252 Pr2232 2.562 . S
O2252 C2234 1.254 . S
O2253 Pr2232 2.490 . S
O2253 C2234 1.225 . S
O2254 Pr2232 2.695 . S
O2254 Pr2233 2.436 . S
O2254 C2241 1.270 . S
O2255 Pr2232 2.512 . S
O2255 C2241 1.248 . S
O2256 Pr2233 2.438 . S
O2256 C2242 1.267 . S
O2257 Pr2232 2.437 . S
O2257 C2242 1.278 . S
O2258 Pr2233 2.562 . S
O2258 C2243 1.254 . S
O2259 Pr2233 2.490 . S
O2259 C2243 1.225 . S
O2260 Pr2232 2.436 . S
O2260 Pr2233 2.695 . S
O2260 C2250 1.270 . S
O2261 Pr2233 2.512 . S
O2261 C2250 1.248 . S
O2262 Pr2232 2.438 . S
O2262 C2251 1.267 . S
O2263 Pr2233 2.437 . S
O2263 C2251 1.278 . S
H2264 C2236 0.929 . S
H2265 C2237 0.929 . S
H2266 C2239 0.931 . S
H2267 C2240 0.930 . S
H2268 C2245 0.929 . S
H2269 C2246 0.929 . S
H2270 C2248 0.931 . S
H2271 C2249 0.930 . S
Pr2272 C2274 2.880 . S
Pr2272 O2292 2.562 . S
Pr2272 O2293 2.490 . S
Pr2272 O2294 2.695 . S
Pr2272 O2295 2.512 . S
Pr2272 O2297 2.437 . S
Pr2272 O2300 2.436 . S
Pr2272 O2302 2.438 . S
Pr2273 C2283 2.880 . S
Pr2273 O2294 2.436 . S
Pr2273 O2296 2.438 . S
Pr2273 O2298 2.562 . S
Pr2273 O2299 2.490 . S
Pr2273 O2300 2.695 . S
Pr2273 O2301 2.512 . S
Pr2273 O2303 2.437 . S
C2274 Pr2272 2.880 . S
C2274 C2275 1.491 . S
C2274 O2292 1.254 . S
C2274 O2293 1.225 . S
C2275 C2274 1.491 . S
C2275 C2276 1.392 . S
C2275 C2280 1.356 1_455 S
C2276 C2275 1.392 . S
C2276 C2277 1.368 . S
C2276 H2304 0.929 . S
C2277 C2276 1.368 . S
C2277 C2278 1.386 . S
C2277 H2305 0.929 . S
C2278 C2277 1.386 . S
C2278 C2279 1.373 1_455 S
C2279 C2278 1.373 1_655 S
C2279 C2280 1.409 . S
C2279 H2306 0.931 . S
C2280 C2275 1.356 1_655 S
C2280 C2279 1.409 . S
C2280 H2307 0.930 . S
C2281 O2294 1.270 . S
C2281 O2295 1.248 . S
C2282 O2296 1.267 . S
C2282 O2297 1.278 . S
C2283 Pr2273 2.880 . S
C2283 C2284 1.491 . S
C2283 O2298 1.254 . S
C2283 O2299 1.225 . S
C2284 C2283 1.491 . S
C2284 C2285 1.392 . S
C2284 C2289 1.356 . S
C2285 C2284 1.392 . S
C2285 C2286 1.368 . S
C2285 H2308 0.929 . S
C2286 C2285 1.368 . S
C2286 C2287 1.386 . S
C2286 H2309 0.929 . S
C2287 C2286 1.386 . S
C2287 C2288 1.373 . S
C2288 C2287 1.373 . S
C2288 C2289 1.409 . S
C2288 H2310 0.931 . S
C2289 C2284 1.356 . S
C2289 C2288 1.409 . S
C2289 H2311 0.930 . S
C2290 O2300 1.270 . S
C2290 O2301 1.248 . S
C2291 O2302 1.267 . S
C2291 O2303 1.278 . S
O2292 Pr2272 2.562 . S
O2292 C2274 1.254 . S
O2293 Pr2272 2.490 . S
O2293 C2274 1.225 . S
O2294 Pr2272 2.695 . S
O2294 Pr2273 2.436 . S
O2294 C2281 1.270 . S
O2295 Pr2272 2.512 . S
O2295 C2281 1.248 . S
O2296 Pr2273 2.438 . S
O2296 C2282 1.267 . S
O2297 Pr2272 2.437 . S
O2297 C2282 1.278 . S
O2298 Pr2273 2.562 . S
O2298 C2283 1.254 . S
O2299 Pr2273 2.490 . S
O2299 C2283 1.225 . S
O2300 Pr2272 2.436 . S
O2300 Pr2273 2.695 . S
O2300 C2290 1.270 . S
O2301 Pr2273 2.512 . S
O2301 C2290 1.248 . S
O2302 Pr2272 2.438 . S
O2302 C2291 1.267 . S
O2303 Pr2273 2.437 . S
O2303 C2291 1.278 . S
H2304 C2276 0.929 . S
H2305 C2277 0.929 . S
H2306 C2279 0.931 . S
H2307 C2280 0.930 . S
H2308 C2285 0.929 . S
H2309 C2286 0.929 . S
H2310 C2288 0.931 . S
H2311 C2289 0.930 . S
Pr2312 C2314 2.880 . S
Pr2312 O2332 2.562 . S
Pr2312 O2333 2.490 . S
Pr2312 O2334 2.695 . S
Pr2312 O2335 2.512 . S
Pr2312 O2337 2.437 . S
Pr2312 O2340 2.436 . S
Pr2312 O2342 2.438 . S
Pr2313 C2323 2.880 . S
Pr2313 O2334 2.436 . S
Pr2313 O2336 2.438 . S
Pr2313 O2338 2.562 . S
Pr2313 O2339 2.490 . S
Pr2313 O2340 2.695 . S
Pr2313 O2341 2.512 . S
Pr2313 O2343 2.437 . S
C2314 Pr2312 2.880 . S
C2314 C2315 1.491 . S
C2314 O2332 1.254 . S
C2314 O2333 1.225 . S
C2315 C2314 1.491 . S
C2315 C2316 1.392 . S
C2315 C2320 1.356 . S
C2316 C2315 1.392 . S
C2316 C2317 1.368 . S
C2316 H2344 0.929 . S
C2317 C2316 1.368 . S
C2317 C2318 1.386 . S
C2317 H2345 0.929 . S
C2318 C2317 1.386 . S
C2318 C2319 1.373 . S
C2319 C2318 1.373 . S
C2319 C2320 1.409 . S
C2319 H2346 0.931 . S
C2320 C2315 1.356 . S
C2320 C2319 1.409 . S
C2320 H2347 0.930 . S
C2321 O2334 1.270 . S
C2321 O2335 1.248 . S
C2322 O2336 1.267 . S
C2322 O2337 1.278 . S
C2323 Pr2313 2.880 . S
C2323 C2324 1.491 . S
C2323 O2338 1.254 . S
C2323 O2339 1.225 . S
C2324 C2323 1.491 . S
C2324 C2325 1.392 . S
C2324 C2329 1.356 . S
C2325 C2324 1.392 . S
C2325 C2326 1.368 . S
C2325 H2348 0.929 . S
C2326 C2325 1.368 . S
C2326 C2327 1.386 . S
C2326 H2349 0.929 . S
C2327 C2326 1.386 . S
C2327 C2328 1.373 . S
C2328 C2327 1.373 . S
C2328 C2329 1.409 . S
C2328 H2350 0.931 . S
C2329 C2324 1.356 . S
C2329 C2328 1.409 . S
C2329 H2351 0.930 . S
C2330 O2340 1.270 . S
C2330 O2341 1.248 . S
C2331 O2342 1.267 . S
C2331 O2343 1.278 . S
O2332 Pr2312 2.562 . S
O2332 C2314 1.254 . S
O2333 Pr2312 2.490 . S
O2333 C2314 1.225 . S
O2334 Pr2312 2.695 . S
O2334 Pr2313 2.436 . S
O2334 C2321 1.270 . S
O2335 Pr2312 2.512 . S
O2335 C2321 1.248 . S
O2336 Pr2313 2.438 . S
O2336 C2322 1.267 . S
O2337 Pr2312 2.437 . S
O2337 C2322 1.278 . S
O2338 Pr2313 2.562 . S
O2338 C2323 1.254 . S
O2339 Pr2313 2.490 . S
O2339 C2323 1.225 . S
O2340 Pr2312 2.436 . S
O2340 Pr2313 2.695 . S
O2340 C2330 1.270 . S
O2341 Pr2313 2.512 . S
O2341 C2330 1.248 . S
O2342 Pr2312 2.438 . S
O2342 C2331 1.267 . S
O2343 Pr2313 2.437 . S
O2343 C2331 1.278 . S
H2344 C2316 0.929 . S
H2345 C2317 0.929 . S
H2346 C2319 0.931 . S
H2347 C2320 0.930 . S
H2348 C2325 0.929 . S
H2349 C2326 0.929 . S
H2350 C2328 0.931 . S
H2351 C2329 0.930 . S
Pr2352 C2354 2.880 . S
Pr2352 O2372 2.562 . S
Pr2352 O2373 2.490 . S
Pr2352 O2374 2.695 . S
Pr2352 O2375 2.512 . S
Pr2352 O2377 2.437 . S
Pr2352 O2380 2.436 . S
Pr2352 O2382 2.438 . S
Pr2353 C2363 2.880 1_554 S
Pr2353 O2374 2.436 . S
Pr2353 O2376 2.438 . S
Pr2353 O2378 2.562 1_554 S
Pr2353 O2379 2.490 1_554 S
Pr2353 O2380 2.695 . S
Pr2353 O2381 2.512 . S
Pr2353 O2383 2.437 . S
C2354 Pr2352 2.880 . S
C2354 C2355 1.491 . S
C2354 O2372 1.254 . S
C2354 O2373 1.225 . S
C2355 C2354 1.491 . S
C2355 C2356 1.392 . S
C2355 C2360 1.356 . S
C2356 C2355 1.392 . S
C2356 C2357 1.368 . S
C2356 H2384 0.929 . S
C2357 C2356 1.368 . S
C2357 C2358 1.386 . S
C2357 H2385 0.929 . S
C2358 C2357 1.386 . S
C2358 C2359 1.373 . S
C2359 C2358 1.373 . S
C2359 C2360 1.409 . S
C2359 H2386 0.931 . S
C2360 C2355 1.356 . S
C2360 C2359 1.409 . S
C2360 H2387 0.930 . S
C2361 O2374 1.270 . S
C2361 O2375 1.248 . S
C2362 O2376 1.267 . S
C2362 O2377 1.278 . S
C2363 Pr2353 2.880 1_556 S
C2363 C2364 1.491 . S
C2363 O2378 1.254 . S
C2363 O2379 1.225 . S
C2364 C2363 1.491 . S
C2364 C2365 1.392 . S
C2364 C2369 1.356 . S
C2365 C2364 1.392 . S
C2365 C2366 1.368 . S
C2365 H2388 0.929 . S
C2366 C2365 1.368 . S
C2366 C2367 1.386 . S
C2366 H2389 0.929 . S
C2367 C2366 1.386 . S
C2367 C2368 1.373 . S
C2368 C2367 1.373 . S
C2368 C2369 1.409 . S
C2368 H2390 0.931 . S
C2369 C2364 1.356 . S
C2369 C2368 1.409 . S
C2369 H2391 0.930 . S
C2370 O2380 1.270 . S
C2370 O2381 1.248 . S
C2371 O2382 1.267 . S
C2371 O2383 1.278 . S
O2372 Pr2352 2.562 . S
O2372 C2354 1.254 . S
O2373 Pr2352 2.490 . S
O2373 C2354 1.225 . S
O2374 Pr2352 2.695 . S
O2374 Pr2353 2.436 . S
O2374 C2361 1.270 . S
O2375 Pr2352 2.512 . S
O2375 C2361 1.248 . S
O2376 Pr2353 2.438 . S
O2376 C2362 1.267 . S
O2377 Pr2352 2.437 . S
O2377 C2362 1.278 . S
O2378 Pr2353 2.562 1_556 S
O2378 C2363 1.254 . S
O2379 Pr2353 2.490 1_556 S
O2379 C2363 1.225 . S
O2380 Pr2352 2.436 . S
O2380 Pr2353 2.695 . S
O2380 C2370 1.270 . S
O2381 Pr2353 2.512 . S
O2381 C2370 1.248 . S
O2382 Pr2352 2.438 . S
O2382 C2371 1.267 . S
O2383 Pr2353 2.437 . S
O2383 C2371 1.278 . S
H2384 C2356 0.929 . S
H2385 C2357 0.929 . S
H2386 C2359 0.931 . S
H2387 C2360 0.930 . S
H2388 C2365 0.929 . S
H2389 C2366 0.929 . S
H2390 C2368 0.931 . S
H2391 C2369 0.930 . S
Pr2392 C2394 2.880 . S
Pr2392 O2412 2.562 . S
Pr2392 O2413 2.490 . S
Pr2392 O2414 2.695 . S
Pr2392 O2415 2.512 . S
Pr2392 O2417 2.437 . S
Pr2392 O2420 2.436 . S
Pr2392 O2422 2.438 . S
Pr2393 C2403 2.880 . S
Pr2393 O2414 2.436 . S
Pr2393 O2416 2.438 . S
Pr2393 O2418 2.562 . S
Pr2393 O2419 2.490 . S
Pr2393 O2420 2.695 . S
Pr2393 O2421 2.512 . S
Pr2393 O2423 2.437 . S
C2394 Pr2392 2.880 . S
C2394 C2395 1.491 . S
C2394 O2412 1.254 . S
C2394 O2413 1.225 . S
C2395 C2394 1.491 . S
C2395 C2396 1.392 . S
C2395 C2400 1.356 . S
C2396 C2395 1.392 . S
C2396 C2397 1.368 . S
C2396 H2424 0.929 . S
C2397 C2396 1.368 . S
C2397 C2398 1.386 . S
C2397 H2425 0.929 . S
C2398 C2397 1.386 . S
C2398 C2399 1.373 . S
C2399 C2398 1.373 . S
C2399 C2400 1.409 . S
C2399 H2426 0.931 . S
C2400 C2395 1.356 . S
C2400 C2399 1.409 . S
C2400 H2427 0.930 . S
C2401 O2414 1.270 . S
C2401 O2415 1.248 . S
C2402 O2416 1.267 . S
C2402 O2417 1.278 . S
C2403 Pr2393 2.880 . S
C2403 C2404 1.491 . S
C2403 O2418 1.254 . S
C2403 O2419 1.225 . S
C2404 C2403 1.491 . S
C2404 C2405 1.392 . S
C2404 C2409 1.356 . S
C2405 C2404 1.392 . S
C2405 C2406 1.368 . S
C2405 H2428 0.929 . S
C2406 C2405 1.368 . S
C2406 C2407 1.386 . S
C2406 H2429 0.929 . S
C2407 C2406 1.386 . S
C2407 C2408 1.373 . S
C2408 C2407 1.373 . S
C2408 C2409 1.409 . S
C2408 H2430 0.931 . S
C2409 C2404 1.356 . S
C2409 C2408 1.409 . S
C2409 H2431 0.930 . S
C2410 O2420 1.270 . S
C2410 O2421 1.248 . S
C2411 O2422 1.267 . S
C2411 O2423 1.278 . S
O2412 Pr2392 2.562 . S
O2412 C2394 1.254 . S
O2413 Pr2392 2.490 . S
O2413 C2394 1.225 . S
O2414 Pr2392 2.695 . S
O2414 Pr2393 2.436 . S
O2414 C2401 1.270 . S
O2415 Pr2392 2.512 . S
O2415 C2401 1.248 . S
O2416 Pr2393 2.438 . S
O2416 C2402 1.267 . S
O2417 Pr2392 2.437 . S
O2417 C2402 1.278 . S
O2418 Pr2393 2.562 . S
O2418 C2403 1.254 . S
O2419 Pr2393 2.490 . S
O2419 C2403 1.225 . S
O2420 Pr2392 2.436 . S
O2420 Pr2393 2.695 . S
O2420 C2410 1.270 . S
O2421 Pr2393 2.512 . S
O2421 C2410 1.248 . S
O2422 Pr2392 2.438 . S
O2422 C2411 1.267 . S
O2423 Pr2393 2.437 . S
O2423 C2411 1.278 . S
H2424 C2396 0.929 . S
H2425 C2397 0.929 . S
H2426 C2399 0.931 . S
H2427 C2400 0.930 . S
H2428 C2405 0.929 . S
H2429 C2406 0.929 . S
H2430 C2408 0.931 . S
H2431 C2409 0.930 . S
Pr2432 C2434 2.880 1_554 S
Pr2432 O2452 2.562 1_554 S
Pr2432 O2453 2.490 1_554 S
Pr2432 O2454 2.695 . S
Pr2432 O2455 2.512 . S
Pr2432 O2457 2.437 . S
Pr2432 O2460 2.436 . S
Pr2432 O2462 2.438 . S
Pr2433 C2443 2.880 . S
Pr2433 O2454 2.436 . S
Pr2433 O2456 2.438 . S
Pr2433 O2458 2.562 . S
Pr2433 O2459 2.490 . S
Pr2433 O2460 2.695 . S
Pr2433 O2461 2.512 . S
Pr2433 O2463 2.437 . S
C2434 Pr2432 2.880 1_556 S
C2434 C2435 1.491 . S
C2434 O2452 1.254 . S
C2434 O2453 1.225 . S
C2435 C2434 1.491 . S
C2435 C2436 1.392 . S
C2435 C2440 1.356 . S
C2436 C2435 1.392 . S
C2436 C2437 1.368 . S
C2436 H2464 0.929 . S
C2437 C2436 1.368 . S
C2437 C2438 1.386 . S
C2437 H2465 0.929 . S
C2438 C2437 1.386 . S
C2438 C2439 1.373 . S
C2439 C2438 1.373 . S
C2439 C2440 1.409 . S
C2439 H2466 0.931 . S
C2440 C2435 1.356 . S
C2440 C2439 1.409 . S
C2440 H2467 0.930 . S
C2441 O2454 1.270 . S
C2441 O2455 1.248 . S
C2442 O2456 1.267 . S
C2442 O2457 1.278 . S
C2443 Pr2433 2.880 . S
C2443 C2444 1.491 . S
C2443 O2458 1.254 . S
C2443 O2459 1.225 . S
C2444 C2443 1.491 . S
C2444 C2445 1.392 . S
C2444 C2449 1.356 . S
C2445 C2444 1.392 . S
C2445 C2446 1.368 . S
C2445 H2468 0.929 . S
C2446 C2445 1.368 . S
C2446 C2447 1.386 . S
C2446 H2469 0.929 . S
C2447 C2446 1.386 . S
C2447 C2448 1.373 . S
C2448 C2447 1.373 . S
C2448 C2449 1.409 . S
C2448 H2470 0.931 . S
C2449 C2444 1.356 . S
C2449 C2448 1.409 . S
C2449 H2471 0.930 . S
C2450 O2460 1.270 . S
C2450 O2461 1.248 . S
C2451 O2462 1.267 . S
C2451 O2463 1.278 . S
O2452 Pr2432 2.562 1_556 S
O2452 C2434 1.254 . S
O2453 Pr2432 2.490 1_556 S
O2453 C2434 1.225 . S
O2454 Pr2432 2.695 . S
O2454 Pr2433 2.436 . S
O2454 C2441 1.270 . S
O2455 Pr2432 2.512 . S
O2455 C2441 1.248 . S
O2456 Pr2433 2.438 . S
O2456 C2442 1.267 . S
O2457 Pr2432 2.437 . S
O2457 C2442 1.278 . S
O2458 Pr2433 2.562 . S
O2458 C2443 1.254 . S
O2459 Pr2433 2.490 . S
O2459 C2443 1.225 . S
O2460 Pr2432 2.436 . S
O2460 Pr2433 2.695 . S
O2460 C2450 1.270 . S
O2461 Pr2433 2.512 . S
O2461 C2450 1.248 . S
O2462 Pr2432 2.438 . S
O2462 C2451 1.267 . S
O2463 Pr2433 2.437 . S
O2463 C2451 1.278 . S
H2464 C2436 0.929 . S
H2465 C2437 0.929 . S
H2466 C2439 0.931 . S
H2467 C2440 0.930 . S
H2468 C2445 0.929 . S
H2469 C2446 0.929 . S
H2470 C2448 0.931 . S
H2471 C2449 0.930 . S
Pr2472 C2474 2.880 . S
Pr2472 O2492 2.562 . S
Pr2472 O2493 2.490 . S
Pr2472 O2494 2.695 . S
Pr2472 O2495 2.512 . S
Pr2472 O2497 2.437 . S
Pr2472 O2500 2.436 . S
Pr2472 O2502 2.438 . S
Pr2473 C2483 2.880 . S
Pr2473 O2494 2.436 . S
Pr2473 O2496 2.438 . S
Pr2473 O2498 2.562 . S
Pr2473 O2499 2.490 . S
Pr2473 O2500 2.695 . S
Pr2473 O2501 2.512 . S
Pr2473 O2503 2.437 . S
C2474 Pr2472 2.880 . S
C2474 C2475 1.491 . S
C2474 O2492 1.254 . S
C2474 O2493 1.225 . S
C2475 C2474 1.491 . S
C2475 C2476 1.392 . S
C2475 C2480 1.356 . S
C2476 C2475 1.392 . S
C2476 C2477 1.368 . S
C2476 H2504 0.929 . S
C2477 C2476 1.368 . S
C2477 C2478 1.386 . S
C2477 H2505 0.929 . S
C2478 C2477 1.386 . S
C2478 C2479 1.373 . S
C2479 C2478 1.373 . S
C2479 C2480 1.409 . S
C2479 H2506 0.931 . S
C2480 C2475 1.356 . S
C2480 C2479 1.409 . S
C2480 H2507 0.930 . S
C2481 O2494 1.270 . S
C2481 O2495 1.248 . S
C2482 O2496 1.267 . S
C2482 O2497 1.278 . S
C2483 Pr2473 2.880 . S
C2483 C2484 1.491 . S
C2483 O2498 1.254 . S
C2483 O2499 1.225 . S
C2484 C2483 1.491 . S
C2484 C2485 1.392 . S
C2484 C2489 1.356 . S
C2485 C2484 1.392 . S
C2485 C2486 1.368 . S
C2485 H2508 0.929 . S
C2486 C2485 1.368 . S
C2486 C2487 1.386 . S
C2486 H2509 0.929 . S
C2487 C2486 1.386 . S
C2487 C2488 1.373 . S
C2488 C2487 1.373 . S
C2488 C2489 1.409 . S
C2488 H2510 0.931 . S
C2489 C2484 1.356 . S
C2489 C2488 1.409 . S
C2489 H2511 0.930 . S
C2490 O2500 1.270 . S
C2490 O2501 1.248 . S
C2491 O2502 1.267 . S
C2491 O2503 1.278 . S
O2492 Pr2472 2.562 . S
O2492 C2474 1.254 . S
O2493 Pr2472 2.490 . S
O2493 C2474 1.225 . S
O2494 Pr2472 2.695 . S
O2494 Pr2473 2.436 . S
O2494 C2481 1.270 . S
O2495 Pr2472 2.512 . S
O2495 C2481 1.248 . S
O2496 Pr2473 2.438 . S
O2496 C2482 1.267 . S
O2497 Pr2472 2.437 . S
O2497 C2482 1.278 . S
O2498 Pr2473 2.562 . S
O2498 C2483 1.254 . S
O2499 Pr2473 2.490 . S
O2499 C2483 1.225 . S
O2500 Pr2472 2.436 . S
O2500 Pr2473 2.695 . S
O2500 C2490 1.270 . S
O2501 Pr2473 2.512 . S
O2501 C2490 1.248 . S
O2502 Pr2472 2.438 . S
O2502 C2491 1.267 . S
O2503 Pr2473 2.437 . S
O2503 C2491 1.278 . S
H2504 C2476 0.929 . S
H2505 C2477 0.929 . S
H2506 C2479 0.931 . S
H2507 C2480 0.930 . S
H2508 C2485 0.929 . S
H2509 C2486 0.929 . S
H2510 C2488 0.931 . S
H2511 C2489 0.930 . S
Pr2512 C2514 2.880 . S
Pr2512 O2532 2.562 . S
Pr2512 O2533 2.490 . S
Pr2512 O2534 2.695 . S
Pr2512 O2535 2.512 . S
Pr2512 O2537 2.437 . S
Pr2512 O2540 2.436 . S
Pr2512 O2542 2.438 . S
Pr2513 C2523 2.880 . S
Pr2513 O2534 2.436 . S
Pr2513 O2536 2.438 . S
Pr2513 O2538 2.562 . S
Pr2513 O2539 2.490 . S
Pr2513 O2540 2.695 . S
Pr2513 O2541 2.512 . S
Pr2513 O2543 2.437 . S
C2514 Pr2512 2.880 . S
C2514 C2515 1.491 . S
C2514 O2532 1.254 . S
C2514 O2533 1.225 . S
C2515 C2514 1.491 . S
C2515 C2516 1.392 . S
C2515 C2520 1.356 . S
C2516 C2515 1.392 . S
C2516 C2517 1.368 . S
C2516 H2544 0.929 . S
C2517 C2516 1.368 . S
C2517 C2518 1.386 1_455 S
C2517 H2545 0.929 . S
C2518 C2517 1.386 1_655 S
C2518 C2519 1.373 . S
C2519 C2518 1.373 . S
C2519 C2520 1.409 1_655 S
C2519 H2546 0.931 . S
C2520 C2515 1.356 . S
C2520 C2519 1.409 1_455 S
C2520 H2547 0.930 . S
C2521 O2534 1.270 . S
C2521 O2535 1.248 . S
C2522 O2536 1.283 . S
C2522 O2537 1.321 . S
C2523 Pr2513 2.880 . S
C2523 C2524 1.491 . S
C2523 O2538 1.254 . S
C2523 O2539 1.225 . S
C2524 C2523 1.491 . S
C2524 C2525 1.392 . S
C2524 C2529 1.356 . S
C2525 C2524 1.392 . S
C2525 C2526 1.368 . S
C2525 H2548 0.929 . S
C2526 C2525 1.368 . S
C2526 C2527 1.386 . S
C2526 H2549 0.929 . S
C2527 C2526 1.386 . S
C2527 C2528 1.373 . S
C2528 C2527 1.373 . S
C2528 C2529 1.409 . S
C2528 H2550 0.931 . S
C2529 C2524 1.356 . S
C2529 C2528 1.409 . S
C2529 H2551 0.930 . S
C2530 O2540 1.270 . S
C2530 O2541 1.248 . S
C2531 O2542 1.267 . S
C2531 O2543 1.278 . S
O2532 Pr2512 2.562 . S
O2532 C2514 1.254 . S
O2533 Pr2512 2.490 . S
O2533 C2514 1.225 . S
O2534 Pr2512 2.695 . S
O2534 Pr2513 2.436 . S
O2534 C2521 1.270 . S
O2535 Pr2512 2.512 . S
O2535 C2521 1.248 . S
O2536 Pr2513 2.438 . S
O2536 C2522 1.283 . S
O2537 Pr2512 2.437 . S
O2537 C2522 1.321 . S
O2538 Pr2513 2.562 . S
O2538 C2523 1.254 . S
O2539 Pr2513 2.490 . S
O2539 C2523 1.225 . S
O2540 Pr2512 2.436 . S
O2540 Pr2513 2.695 . S
O2540 C2530 1.270 . S
O2541 Pr2513 2.512 . S
O2541 C2530 1.248 . S
O2542 Pr2512 2.438 . S
O2542 C2531 1.267 . S
O2543 Pr2513 2.437 . S
O2543 C2531 1.278 . S
H2544 C2516 0.929 . S
H2545 C2517 0.929 . S
H2546 C2519 0.931 . S
H2547 C2520 0.930 . S
H2548 C2525 0.929 . S
H2549 C2526 0.929 . S
H2550 C2528 0.931 . S
H2551 C2529 0.930 . S
Pr2552 C2554 2.880 . S
Pr2552 O2572 2.562 . S
Pr2552 O2573 2.490 . S
Pr2552 O2574 2.695 . S
Pr2552 O2575 2.512 . S
Pr2552 O2577 2.437 . S
Pr2552 O2580 2.436 . S
Pr2552 O2582 2.438 . S
Pr2553 C2563 2.880 . S
Pr2553 O2574 2.436 . S
Pr2553 O2576 2.438 . S
Pr2553 O2578 2.562 . S
Pr2553 O2579 2.490 . S
Pr2553 O2580 2.695 . S
Pr2553 O2581 2.512 . S
Pr2553 O2583 2.437 . S
C2554 Pr2552 2.880 . S
C2554 C2555 1.491 . S
C2554 O2572 1.254 . S
C2554 O2573 1.225 . S
C2555 C2554 1.491 . S
C2555 C2556 1.392 . S
C2555 C2560 1.356 . S
C2556 C2555 1.392 . S
C2556 C2557 1.368 . S
C2556 H2584 0.929 . S
C2557 C2556 1.368 . S
C2557 C2558 1.386 . S
C2557 H2585 0.929 . S
C2558 C2557 1.386 . S
C2558 C2559 1.373 . S
C2559 C2558 1.373 . S
C2559 C2560 1.409 . S
C2559 H2586 0.931 . S
C2560 C2555 1.356 . S
C2560 C2559 1.409 . S
C2560 H2587 0.930 . S
C2561 O2574 1.270 . S
C2561 O2575 1.248 . S
C2562 O2576 1.267 . S
C2562 O2577 1.278 . S
C2563 Pr2553 2.880 . S
C2563 C2564 1.491 . S
C2563 O2578 1.254 . S
C2563 O2579 1.225 . S
C2564 C2563 1.491 . S
C2564 C2565 1.392 . S
C2564 C2569 1.356 . S
C2565 C2564 1.392 . S
C2565 C2566 1.368 . S
C2565 H2588 0.929 . S
C2566 C2565 1.368 . S
C2566 C2567 1.386 . S
C2566 H2589 0.929 . S
C2567 C2566 1.386 . S
C2567 C2568 1.373 . S
C2568 C2567 1.373 . S
C2568 C2569 1.409 . S
C2568 H2590 0.931 . S
C2569 C2564 1.356 . S
C2569 C2568 1.409 . S
C2569 H2591 0.930 . S
C2570 O2580 1.270 . S
C2570 O2581 1.248 . S
C2571 O2582 1.267 . S
C2571 O2583 1.278 . S
O2572 Pr2552 2.562 . S
O2572 C2554 1.254 . S
O2573 Pr2552 2.490 . S
O2573 C2554 1.225 . S
O2574 Pr2552 2.695 . S
O2574 Pr2553 2.436 . S
O2574 C2561 1.270 . S
O2575 Pr2552 2.512 . S
O2575 C2561 1.248 . S
O2576 Pr2553 2.438 . S
O2576 C2562 1.267 . S
O2577 Pr2552 2.437 . S
O2577 C2562 1.278 . S
O2578 Pr2553 2.562 . S
O2578 C2563 1.254 . S
O2579 Pr2553 2.490 . S
O2579 C2563 1.225 . S
O2580 Pr2552 2.436 . S
O2580 Pr2553 2.695 . S
O2580 C2570 1.270 . S
O2581 Pr2553 2.512 . S
O2581 C2570 1.248 . S
O2582 Pr2552 2.438 . S
O2582 C2571 1.267 . S
O2583 Pr2553 2.437 . S
O2583 C2571 1.278 . S
H2584 C2556 0.929 . S
H2585 C2557 0.929 . S
H2586 C2559 0.931 . S
H2587 C2560 0.930 . S
H2588 C2565 0.929 . S
H2589 C2566 0.929 . S
H2590 C2568 0.931 . S
H2591 C2569 0.930 . S
Pr2592 C2594 2.880 . S
Pr2592 O2612 2.562 . S
Pr2592 O2613 2.490 . S
Pr2592 O2614 2.695 . S
Pr2592 O2615 2.512 . S
Pr2592 O2617 2.437 . S
Pr2592 O2620 2.436 . S
Pr2592 O2622 2.438 . S
Pr2593 C2603 2.880 . S
Pr2593 O2614 2.436 . S
Pr2593 O2616 2.438 . S
Pr2593 O2618 2.562 . S
Pr2593 O2619 2.490 . S
Pr2593 O2620 2.695 . S
Pr2593 O2621 2.512 . S
Pr2593 O2623 2.437 . S
C2594 Pr2592 2.880 . S
C2594 C2595 1.491 . S
C2594 O2612 1.254 . S
C2594 O2613 1.225 . S
C2595 C2594 1.491 . S
C2595 C2596 1.392 . S
C2595 C2600 1.356 . S
C2596 C2595 1.392 . S
C2596 C2597 1.368 . S
C2596 H2624 0.929 . S
C2597 C2596 1.368 . S
C2597 C2598 1.386 . S
C2597 H2625 0.929 . S
C2598 C2597 1.386 . S
C2598 C2599 1.373 . S
C2599 C2598 1.373 . S
C2599 C2600 1.409 . S
C2599 H2626 0.931 . S
C2600 C2595 1.356 . S
C2600 C2599 1.409 . S
C2600 H2627 0.930 . S
C2601 O2614 1.270 . S
C2601 O2615 1.248 . S
C2602 O2616 1.267 . S
C2602 O2617 1.278 . S
C2603 Pr2593 2.880 . S
C2603 C2604 1.491 . S
C2603 O2618 1.254 . S
C2603 O2619 1.225 . S
C2604 C2603 1.491 . S
C2604 C2605 1.392 . S
C2604 C2609 1.356 . S
C2605 C2604 1.392 . S
C2605 C2606 1.368 . S
C2605 H2628 0.929 . S
C2606 C2605 1.368 . S
C2606 C2607 1.386 . S
C2606 H2629 0.929 . S
C2607 C2606 1.386 . S
C2607 C2608 1.373 . S
C2608 C2607 1.373 . S
C2608 C2609 1.409 . S
C2608 H2630 0.931 . S
C2609 C2604 1.356 . S
C2609 C2608 1.409 . S
C2609 H2631 0.930 . S
C2610 O2620 1.270 . S
C2610 O2621 1.248 . S
C2611 O2622 1.267 . S
C2611 O2623 1.278 . S
O2612 Pr2592 2.562 . S
O2612 C2594 1.254 . S
O2613 Pr2592 2.490 . S
O2613 C2594 1.225 . S
O2614 Pr2592 2.695 . S
O2614 Pr2593 2.436 . S
O2614 C2601 1.270 . S
O2615 Pr2592 2.512 . S
O2615 C2601 1.248 . S
O2616 Pr2593 2.438 . S
O2616 C2602 1.267 . S
O2617 Pr2592 2.437 . S
O2617 C2602 1.278 . S
O2618 Pr2593 2.562 . S
O2618 C2603 1.254 . S
O2619 Pr2593 2.490 . S
O2619 C2603 1.225 . S
O2620 Pr2592 2.436 . S
O2620 Pr2593 2.695 . S
O2620 C2610 1.270 . S
O2621 Pr2593 2.512 . S
O2621 C2610 1.248 . S
O2622 Pr2592 2.438 . S
O2622 C2611 1.267 . S
O2623 Pr2593 2.437 . S
O2623 C2611 1.278 . S
H2624 C2596 0.929 . S
H2625 C2597 0.929 . S
H2626 C2599 0.931 . S
H2627 C2600 0.930 . S
H2628 C2605 0.929 . S
H2629 C2606 0.929 . S
H2630 C2608 0.931 . S
H2631 C2609 0.930 . S
Pr2632 C2634 2.880 . S
Pr2632 O2652 2.562 . S
Pr2632 O2653 2.490 . S
Pr2632 O2654 2.695 . S
Pr2632 O2655 2.512 . S
Pr2632 O2657 2.437 . S
Pr2632 O2660 2.436 . S
Pr2632 O2662 2.438 . S
Pr2633 C2643 2.880 . S
Pr2633 O2654 2.436 . S
Pr2633 O2656 2.438 . S
Pr2633 O2658 2.562 . S
Pr2633 O2659 2.490 . S
Pr2633 O2660 2.695 . S
Pr2633 O2661 2.512 . S
Pr2633 O2663 2.437 . S
C2634 Pr2632 2.880 . S
C2634 C2635 1.491 . S
C2634 O2652 1.254 . S
C2634 O2653 1.225 . S
C2635 C2634 1.491 . S
C2635 C2636 1.392 . S
C2635 C2640 1.356 . S
C2636 C2635 1.392 . S
C2636 C2637 1.368 . S
C2636 H2664 0.929 . S
C2637 C2636 1.368 . S
C2637 C2638 1.386 . S
C2637 H2665 0.929 . S
C2638 C2637 1.386 . S
C2638 C2639 1.373 . S
C2639 C2638 1.373 . S
C2639 C2640 1.409 . S
C2639 H2666 0.931 . S
C2640 C2635 1.356 . S
C2640 C2639 1.409 . S
C2640 H2667 0.930 . S
C2641 O2654 1.270 . S
C2641 O2655 1.248 . S
C2642 O2656 1.267 . S
C2642 O2657 1.278 . S
C2643 Pr2633 2.880 . S
C2643 C2644 1.491 . S
C2643 O2658 1.254 . S
C2643 O2659 1.225 . S
C2644 C2643 1.491 . S
C2644 C2645 1.392 . S
C2644 C2649 1.356 . S
C2645 C2644 1.392 . S
C2645 C2646 1.368 . S
C2645 H2668 0.929 . S
C2646 C2645 1.368 . S
C2646 C2647 1.386 . S
C2646 H2669 0.929 . S
C2647 C2646 1.386 . S
C2647 C2648 1.373 . S
C2648 C2647 1.373 . S
C2648 C2649 1.409 . S
C2648 H2670 0.931 . S
C2649 C2644 1.356 . S
C2649 C2648 1.409 . S
C2649 H2671 0.930 . S
C2650 O2660 1.270 . S
C2650 O2661 1.248 . S
C2651 O2662 1.267 . S
C2651 O2663 1.278 . S
O2652 Pr2632 2.562 . S
O2652 C2634 1.254 . S
O2653 Pr2632 2.490 . S
O2653 C2634 1.225 . S
O2654 Pr2632 2.695 . S
O2654 Pr2633 2.436 . S
O2654 C2641 1.270 . S
O2655 Pr2632 2.512 . S
O2655 C2641 1.248 . S
O2656 Pr2633 2.438 . S
O2656 C2642 1.267 . S
O2657 Pr2632 2.437 . S
O2657 C2642 1.278 . S
O2658 Pr2633 2.562 . S
O2658 C2643 1.254 . S
O2659 Pr2633 2.490 . S
O2659 C2643 1.225 . S
O2660 Pr2632 2.436 . S
O2660 Pr2633 2.695 . S
O2660 C2650 1.270 . S
O2661 Pr2633 2.512 . S
O2661 C2650 1.248 . S
O2662 Pr2632 2.438 . S
O2662 C2651 1.267 . S
O2663 Pr2633 2.437 . S
O2663 C2651 1.278 . S
H2664 C2636 0.929 . S
H2665 C2637 0.929 . S
H2666 C2639 0.931 . S
H2667 C2640 0.930 . S
H2668 C2645 0.929 . S
H2669 C2646 0.929 . S
H2670 C2648 0.931 . S
H2671 C2649 0.930 . S
Pr2672 C2674 2.880 . S
Pr2672 O2692 2.562 . S
Pr2672 O2693 2.490 . S
Pr2672 O2694 2.695 . S
Pr2672 O2695 2.512 . S
Pr2672 O2697 2.437 . S
Pr2672 O2700 2.436 . S
Pr2672 O2702 2.438 . S
Pr2673 C2683 2.880 . S
Pr2673 O2694 2.436 . S
Pr2673 O2696 2.438 . S
Pr2673 O2698 2.562 . S
Pr2673 O2699 2.490 . S
Pr2673 O2700 2.695 . S
Pr2673 O2701 2.512 . S
Pr2673 O2703 2.437 . S
C2674 Pr2672 2.880 . S
C2674 C2675 1.491 . S
C2674 O2692 1.254 . S
C2674 O2693 1.225 . S
C2675 C2674 1.491 . S
C2675 C2676 1.392 . S
C2675 C2680 1.356 . S
C2676 C2675 1.392 . S
C2676 C2677 1.368 . S
C2676 H2704 0.929 . S
C2677 C2676 1.368 . S
C2677 C2678 1.386 . S
C2677 H2705 0.929 . S
C2678 C2677 1.386 . S
C2678 C2679 1.373 . S
C2679 C2678 1.373 . S
C2679 C2680 1.409 . S
C2679 H2706 0.931 . S
C2680 C2675 1.356 . S
C2680 C2679 1.409 . S
C2680 H2707 0.930 . S
C2681 O2694 1.270 . S
C2681 O2695 1.248 . S
C2682 O2696 1.267 . S
C2682 O2697 1.278 . S
C2683 Pr2673 2.880 . S
C2683 C2684 1.491 . S
C2683 O2698 1.254 . S
C2683 O2699 1.225 . S
C2684 C2683 1.491 . S
C2684 C2685 1.392 . S
C2684 C2689 1.356 . S
C2685 C2684 1.392 . S
C2685 C2686 1.368 . S
C2685 H2708 0.929 . S
C2686 C2685 1.368 . S
C2686 C2687 1.386 . S
C2686 H2709 0.929 . S
C2687 C2686 1.386 . S
C2687 C2688 1.373 . S
C2688 C2687 1.373 . S
C2688 C2689 1.409 . S
C2688 H2710 0.931 . S
C2689 C2684 1.356 . S
C2689 C2688 1.409 . S
C2689 H2711 0.930 . S
C2690 O2700 1.270 . S
C2690 O2701 1.248 . S
C2691 O2702 1.267 . S
C2691 O2703 1.278 . S
O2692 Pr2672 2.562 . S
O2692 C2674 1.254 . S
O2693 Pr2672 2.490 . S
O2693 C2674 1.225 . S
O2694 Pr2672 2.695 . S
O2694 Pr2673 2.436 . S
O2694 C2681 1.270 . S
O2695 Pr2672 2.512 . S
O2695 C2681 1.248 . S
O2696 Pr2673 2.438 . S
O2696 C2682 1.267 . S
O2697 Pr2672 2.437 . S
O2697 C2682 1.278 . S
O2698 Pr2673 2.562 . S
O2698 C2683 1.254 . S
O2699 Pr2673 2.490 . S
O2699 C2683 1.225 . S
O2700 Pr2672 2.436 . S
O2700 Pr2673 2.695 . S
O2700 C2690 1.270 . S
O2701 Pr2673 2.512 . S
O2701 C2690 1.248 . S
O2702 Pr2672 2.438 . S
O2702 C2691 1.267 . S
O2703 Pr2673 2.437 . S
O2703 C2691 1.278 . S
H2704 C2676 0.929 . S
H2705 C2677 0.929 . S
H2706 C2679 0.931 . S
H2707 C2680 0.930 . S
H2708 C2685 0.929 . S
H2709 C2686 0.929 . S
H2710 C2688 0.931 . S
H2711 C2689 0.930 . S
Pr2712 C2714 2.880 . S
Pr2712 O2732 2.562 . S
Pr2712 O2733 2.490 . S
Pr2712 O2734 2.695 . S
Pr2712 O2735 2.512 1_554 S
Pr2712 O2737 2.437 . S
Pr2712 O2740 2.436 . S
Pr2712 O2742 2.438 . S
Pr2713 C2723 2.880 1_455 S
Pr2713 O2734 2.436 . S
Pr2713 O2736 2.438 . S
Pr2713 O2738 2.562 1_455 S
Pr2713 O2739 2.490 1_455 S
Pr2713 O2740 2.695 . S
Pr2713 O2741 2.512 . S
Pr2713 O2743 2.437 . S
C2714 Pr2712 2.880 . S
C2714 C2715 1.491 . S
C2714 O2732 1.254 . S
C2714 O2733 1.225 . S
C2715 C2714 1.491 . S
C2715 C2716 1.392 1_554 S
C2715 C2720 1.356 . S
C2716 C2715 1.392 1_556 S
C2716 C2717 1.368 . S
C2716 H2744 0.929 . S
C2717 C2716 1.368 . S
C2717 C2718 1.386 1_556 S
C2717 H2745 0.929 . S
C2718 C2717 1.386 1_554 S
C2718 C2719 1.373 . S
C2719 C2718 1.373 . S
C2719 C2720 1.409 . S
C2719 H2746 0.931 . S
C2720 C2715 1.356 . S
C2720 C2719 1.409 . S
C2720 H2747 0.930 . S
C2721 O2734 1.270 1_556 S
C2721 O2735 1.248 . S
C2722 O2736 1.267 . S
C2722 O2737 1.278 . S
C2723 Pr2713 2.880 1_655 S
C2723 C2724 1.491 . S
C2723 O2738 1.254 . S
C2723 O2739 1.225 . S
C2724 C2723 1.491 . S
C2724 C2725 1.392 . S
C2724 C2729 1.356 . S
C2725 C2724 1.392 . S
C2725 C2726 1.368 . S
C2725 H2748 0.929 . S
C2726 C2725 1.368 . S
C2726 C2727 1.386 . S
C2726 H2749 0.929 . S
C2727 C2726 1.386 . S
C2727 C2728 1.373 . S
C2728 C2727 1.373 . S
C2728 C2729 1.409 . S
C2728 H2750 0.931 . S
C2729 C2724 1.356 . S
C2729 C2728 1.409 . S
C2729 H2751 0.930 . S
C2730 O2740 1.270 . S
C2730 O2741 1.248 . S
C2731 O2742 1.267 . S
C2731 O2743 1.278 . S
O2732 Pr2712 2.562 . S
O2732 C2714 1.254 . S
O2733 Pr2712 2.490 . S
O2733 C2714 1.225 . S
O2734 Pr2712 2.695 . S
O2734 Pr2713 2.436 . S
O2734 C2721 1.270 1_554 S
O2735 Pr2712 2.512 1_556 S
O2735 C2721 1.248 . S
O2736 Pr2713 2.438 . S
O2736 C2722 1.267 . S
O2737 Pr2712 2.437 . S
O2737 C2722 1.278 . S
O2738 Pr2713 2.562 1_655 S
O2738 C2723 1.254 . S
O2739 Pr2713 2.490 1_655 S
O2739 C2723 1.225 . S
O2740 Pr2712 2.436 . S
O2740 Pr2713 2.695 . S
O2740 C2730 1.270 . S
O2741 Pr2713 2.512 . S
O2741 C2730 1.248 . S
O2742 Pr2712 2.438 . S
O2742 C2731 1.267 . S
O2743 Pr2713 2.437 . S
O2743 C2731 1.278 . S
H2744 C2716 0.929 . S
H2745 C2717 0.929 . S
H2746 C2719 0.931 . S
H2747 C2720 0.930 . S
H2748 C2725 0.929 . S
H2749 C2726 0.929 . S
H2750 C2728 0.931 . S
H2751 C2729 0.930 . S
C2752 C2753 1.349 . S
C2752 C2754 1.327 . S
C2752 H2777 0.950 . S
C2753 C2752 1.349 . S
C2753 C2769 1.349 . S
C2754 C2752 1.327 . S
C2754 C2773 1.429 . S
C2754 H2778 0.950 . S
C2755 C2772 1.574 . S
C2755 C2774 1.368 . S
C2755 H2779 0.949 . S
H2756 C2760 0.949 . S
C2757 C2758 1.349 . S
C2757 C2759 1.327 1_554 S
C2757 H2780 0.950 1_554 S
C2758 C2757 1.349 . S
C2758 C2770 1.349 . S
C2759 C2757 1.327 1_556 S
C2759 C2775 1.429 1_556 S
C2759 H2781 0.950 . S
C2760 H2756 0.949 . S
C2760 C2768 1.601 . S
C2760 C2776 1.368 1_554 S
H2761 C2769 0.950 . S
H2762 C2767 0.950 . S
H2763 C2768 0.980 . S
H2764 C2770 0.950 . S
H2765 C2771 0.950 . S
H2766 C2772 0.949 . S
C2767 H2762 0.950 . S
C2767 C2769 1.327 . S
C2767 C2773 1.429 . S
C2768 C2760 1.601 . S
C2768 H2763 0.980 . S
C2768 C2774 1.310 1_554 S
C2769 C2753 1.349 . S
C2769 H2761 0.950 . S
C2769 C2767 1.327 . S
C2770 C2758 1.349 . S
C2770 H2764 0.950 . S
C2770 C2771 1.327 . S
C2771 H2765 0.950 . S
C2771 C2770 1.327 . S
C2771 C2775 1.429 . S
C2772 C2755 1.574 . S
C2772 H2766 0.949 . S
C2772 C2776 1.368 . S
C2773 C2754 1.429 . S
C2773 C2767 1.429 . S
C2773 C2774 1.523 . S
C2774 C2755 1.368 . S
C2774 C2768 1.310 1_556 S
C2774 C2773 1.523 . S
C2775 C2759 1.429 1_554 S
C2775 C2771 1.429 . S
C2775 C2776 1.523 1_554 S
C2776 C2760 1.368 1_556 S
C2776 C2772 1.368 . S
C2776 C2775 1.523 1_556 S
H2777 C2752 0.950 . S
H2778 C2754 0.950 . S
H2779 C2755 0.949 . S
H2780 C2757 0.950 1_556 S
H2781 C2759 0.950 . S
C2782 C2783 1.349 . S
C2782 C2784 1.327 . S
C2782 H2807 0.950 . S
C2783 C2782 1.349 . S
C2783 C2799 1.349 . S
C2784 C2782 1.327 . S
C2784 C2803 1.429 . S
C2784 H2808 0.950 . S
C2785 C2802 1.574 . S
C2785 C2804 1.368 . S
C2785 H2809 0.949 . S
H2786 C2790 0.949 . S
C2787 C2788 1.349 . S
C2787 C2789 1.327 . S
C2787 H2810 0.950 . S
C2788 C2787 1.349 . S
C2788 C2800 1.349 . S
C2789 C2787 1.327 . S
C2789 C2805 1.429 . S
C2789 H2811 0.950 . S
C2790 H2786 0.949 . S
C2790 C2798 1.574 . S
C2790 C2806 1.368 . S
H2791 C2799 0.950 . S
H2792 C2797 0.950 . S
H2793 C2798 0.949 . S
H2794 C2800 0.950 . S
H2795 C2801 0.950 . S
H2796 C2802 0.949 . S
C2797 H2792 0.950 . S
C2797 C2799 1.327 . S
C2797 C2803 1.429 . S
C2798 C2790 1.574 . S
C2798 H2793 0.949 . S
C2798 C2804 1.368 . S
C2799 C2783 1.349 . S
C2799 H2791 0.950 . S
C2799 C2797 1.327 . S
C2800 C2788 1.349 . S
C2800 H2794 0.950 . S
C2800 C2801 1.327 . S
C2801 H2795 0.950 . S
C2801 C2800 1.327 . S
C2801 C2805 1.429 . S
C2802 C2785 1.574 . S
C2802 H2796 0.949 . S
C2802 C2806 1.368 . S
C2803 C2784 1.429 . S
C2803 C2797 1.429 . S
C2803 C2804 1.523 . S
C2804 C2785 1.368 . S
C2804 C2798 1.368 . S
C2804 C2803 1.523 . S
C2805 C2789 1.429 . S
C2805 C2801 1.429 . S
C2805 C2806 1.523 . S
C2806 C2790 1.368 . S
C2806 C2802 1.368 . S
C2806 C2805 1.523 . S
H2807 C2782 0.950 . S
H2808 C2784 0.950 . S
H2809 C2785 0.949 . S
H2810 C2787 0.950 . S
H2811 C2789 0.950 . S
C2812 C2813 1.349 . S
C2812 C2814 1.327 . S
C2812 H2837 0.950 . S
C2813 C2812 1.349 . S
C2813 C2829 1.349 . S
C2814 C2812 1.327 . S
C2814 C2833 1.429 . S
C2814 H2838 0.950 . S
C2815 C2832 1.574 . S
C2815 C2834 1.368 . S
C2815 H2839 0.949 . S
H2816 C2820 0.949 . S
C2817 C2818 1.353 1_565 S
C2817 C2819 1.321 . S
C2817 H2840 0.952 1_565 S
C2818 C2817 1.353 1_545 S
C2818 C2830 1.349 1_545 S
C2819 C2817 1.321 . S
C2819 C2835 1.429 . S
C2819 H2841 0.950 . S
C2820 H2816 0.949 . S
C2820 C2828 1.574 . S
C2820 C2836 1.368 . S
H2821 C2829 0.950 . S
H2822 C2827 0.950 . S
H2823 C2828 0.949 . S
H2824 C2830 0.950 1_545 S
H2825 C2831 0.950 . S
H2826 C2832 0.949 . S
C2827 H2822 0.950 . S
C2827 C2829 1.327 . S
C2827 C2833 1.429 . S
C2828 C2820 1.574 . S
C2828 H2823 0.949 . S
C2828 C2834 1.368 . S
C2829 C2813 1.349 . S
C2829 H2821 0.950 . S
C2829 C2827 1.327 . S
C2830 C2818 1.349 1_565 S
C2830 H2824 0.950 1_565 S
C2830 C2831 1.327 . S
C2831 H2825 0.950 . S
C2831 C2830 1.327 . S
C2831 C2835 1.429 . S
C2832 C2815 1.574 . S
C2832 H2826 0.949 . S
C2832 C2836 1.368 . S
C2833 C2814 1.429 . S
C2833 C2827 1.429 . S
C2833 C2834 1.523 . S
C2834 C2815 1.368 . S
C2834 C2828 1.368 . S
C2834 C2833 1.523 . S
C2835 C2819 1.429 . S
C2835 C2831 1.429 . S
C2835 C2836 1.523 . S
C2836 C2820 1.368 . S
C2836 C2832 1.368 . S
C2836 C2835 1.523 . S
H2837 C2812 0.950 . S
H2838 C2814 0.950 . S
H2839 C2815 0.949 . S
H2840 C2817 0.952 1_545 S
H2841 C2819 0.950 . S
C2842 C2843 1.349 . S
C2842 C2844 1.327 . S
C2842 H2867 0.950 . S
C2843 C2842 1.349 . S
C2843 C2859 1.349 . S
C2844 C2842 1.327 . S
C2844 C2863 1.429 . S
C2844 H2868 0.950 . S
C2845 C2862 1.574 . S
C2845 C2864 1.368 . S
C2845 H2869 0.949 . S
H2846 C2850 0.949 . S
C2847 C2848 1.349 . S
C2847 C2849 1.327 . S
C2847 H2870 0.950 . S
C2848 C2847 1.349 . S
C2848 C2860 1.349 . S
C2849 C2847 1.327 . S
C2849 C2865 1.429 . S
C2849 H2871 0.950 . S
C2850 H2846 0.949 . S
C2850 C2858 1.574 . S
C2850 C2866 1.368 . S
H2851 C2859 0.950 . S
H2852 C2857 0.950 . S
H2853 C2858 0.949 . S
H2854 C2860 0.950 . S
H2855 C2861 0.950 . S
H2856 C2862 0.949 . S
C2857 H2852 0.950 . S
C2857 C2859 1.327 . S
C2857 C2863 1.429 . S
C2858 C2850 1.574 . S
C2858 H2853 0.949 . S
C2858 C2864 1.368 . S
C2859 C2843 1.349 . S
C2859 H2851 0.950 . S
C2859 C2857 1.327 . S
C2860 C2848 1.349 . S
C2860 H2854 0.950 . S
C2860 C2861 1.327 . S
C2861 H2855 0.950 . S
C2861 C2860 1.327 . S
C2861 C2865 1.429 . S
C2862 C2845 1.574 . S
C2862 H2856 0.949 . S
C2862 C2866 1.368 . S
C2863 C2844 1.429 . S
C2863 C2857 1.429 . S
C2863 C2864 1.523 . S
C2864 C2845 1.368 . S
C2864 C2858 1.368 . S
C2864 C2863 1.523 . S
C2865 C2849 1.429 . S
C2865 C2861 1.429 . S
C2865 C2866 1.523 . S
C2866 C2850 1.368 . S
C2866 C2862 1.368 . S
C2866 C2865 1.523 . S
H2867 C2842 0.950 . S
H2868 C2844 0.950 . S
H2869 C2845 0.949 . S
H2870 C2847 0.950 . S
H2871 C2849 0.950 . S
C2872 C2873 1.349 . S
C2872 C2874 1.327 . S
C2872 H2897 0.950 . S
C2873 C2872 1.349 . S
C2873 C2889 1.349 . S
C2874 C2872 1.327 . S
C2874 C2893 1.429 . S
C2874 H2898 0.950 . S
C2875 C2892 1.574 . S
C2875 C2894 1.368 . S
C2875 H2899 0.949 . S
H2876 C2880 0.949 . S
C2877 C2878 1.349 . S
C2877 C2879 1.327 1_545 S
C2877 H2900 0.950 . S
C2878 C2877 1.349 . S
C2878 C2890 1.349 1_545 S
C2879 C2877 1.327 1_565 S
C2879 C2895 1.429 . S
C2879 H2901 0.950 . S
C2880 H2876 0.949 . S
C2880 C2888 1.574 . S
C2880 C2896 1.368 . S
H2881 C2889 0.950 . S
H2882 C2887 0.950 . S
H2883 C2888 0.949 . S
H2884 C2890 0.950 . S
H2885 C2891 0.950 . S
H2886 C2892 0.949 . S
C2887 H2882 0.950 . S
C2887 C2889 1.327 . S
C2887 C2893 1.429 . S
C2888 C2880 1.574 . S
C2888 H2883 0.949 . S
C2888 C2894 1.368 . S
C2889 C2873 1.349 . S
C2889 H2881 0.950 . S
C2889 C2887 1.327 . S
C2890 C2878 1.349 1_565 S
C2890 H2884 0.950 . S
C2890 C2891 1.327 . S
C2891 H2885 0.950 . S
C2891 C2890 1.327 . S
C2891 C2895 1.429 . S
C2892 C2875 1.574 . S
C2892 H2886 0.949 . S
C2892 C2896 1.368 . S
C2893 C2874 1.429 . S
C2893 C2887 1.429 . S
C2893 C2894 1.523 . S
C2894 C2875 1.368 . S
C2894 C2888 1.368 . S
C2894 C2893 1.523 . S
C2895 C2879 1.429 . S
C2895 C2891 1.429 . S
C2895 C2896 1.523 . S
C2896 C2880 1.368 . S
C2896 C2892 1.368 . S
C2896 C2895 1.523 . S
H2897 C2872 0.950 . S
H2898 C2874 0.950 . S
H2899 C2875 0.949 . S
H2900 C2877 0.950 . S
H2901 C2879 0.950 . S
C2902 C2903 1.349 . S
C2902 C2904 1.327 . S
C2902 H2927 0.950 . S
C2903 C2902 1.349 . S
C2903 C2919 1.349 . S
C2904 C2902 1.327 . S
C2904 C2923 1.429 . S
C2904 H2928 0.950 . S
C2905 C2922 1.574 . S
C2905 C2924 1.368 . S
C2905 H2929 0.949 . S
H2906 C2910 0.949 . S
C2907 C2908 1.349 . S
C2907 C2909 1.327 . S
C2907 H2930 0.950 . S
C2908 C2907 1.349 . S
C2908 C2920 1.349 . S
C2909 C2907 1.327 . S
C2909 C2925 1.429 . S
C2909 H2931 0.950 . S
C2910 H2906 0.949 . S
C2910 C2918 1.574 . S
C2910 C2926 1.368 . S
H2911 C2919 0.950 . S
H2912 C2917 0.950 . S
H2913 C2918 0.949 . S
H2914 C2920 0.950 . S
H2915 C2921 0.950 . S
H2916 C2922 0.949 . S
C2917 H2912 0.950 . S
C2917 C2919 1.327 . S
C2917 C2923 1.429 . S
C2918 C2910 1.574 . S
C2918 H2913 0.949 . S
C2918 C2924 1.368 . S
C2919 C2903 1.349 . S
C2919 H2911 0.950 . S
C2919 C2917 1.327 . S
C2920 C2908 1.349 . S
C2920 H2914 0.950 . S
C2920 C2921 1.327 . S
C2921 H2915 0.950 . S
C2921 C2920 1.327 . S
C2921 C2925 1.429 . S
C2922 C2905 1.574 . S
C2922 H2916 0.949 . S
C2922 C2926 1.368 . S
C2923 C2904 1.429 . S
C2923 C2917 1.429 . S
C2923 C2924 1.523 . S
C2924 C2905 1.368 . S
C2924 C2918 1.368 . S
C2924 C2923 1.523 . S
C2925 C2909 1.429 . S
C2925 C2921 1.429 . S
C2925 C2926 1.523 . S
C2926 C2910 1.368 . S
C2926 C2922 1.368 . S
C2926 C2925 1.523 . S
H2927 C2902 0.950 . S
H2928 C2904 0.950 . S
H2929 C2905 0.949 . S
H2930 C2907 0.950 . S
H2931 C2909 0.950 . S
C2932 C2933 1.349 . S
C2932 C2934 1.327 . S
C2932 H2957 0.950 . S
C2933 C2932 1.349 . S
C2933 C2949 1.349 . S
C2934 C2932 1.327 . S
C2934 C2953 1.429 . S
C2934 H2958 0.950 . S
C2935 C2952 1.574 . S
C2935 C2954 1.368 . S
C2935 H2959 0.949 . S
H2936 C2940 0.949 . S
C2937 C2938 1.349 . S
C2937 C2939 1.327 . S
C2937 H2960 0.950 . S
C2938 C2937 1.349 . S
C2938 C2950 1.349 . S
C2939 C2937 1.327 . S
C2939 C2955 1.429 . S
C2939 H2961 0.950 . S
C2940 H2936 0.949 . S
C2940 C2948 1.574 . S
C2940 C2956 1.368 . S
H2941 C2949 0.950 . S
H2942 C2947 0.950 . S
H2943 C2948 0.949 . S
H2944 C2950 0.950 . S
H2945 C2951 0.950 . S
H2946 C2952 0.949 . S
C2947 H2942 0.950 . S
C2947 C2949 1.327 . S
C2947 C2953 1.429 . S
C2948 C2940 1.574 . S
C2948 H2943 0.949 . S
C2948 C2954 1.368 . S
C2949 C2933 1.349 . S
C2949 H2941 0.950 . S
C2949 C2947 1.327 . S
C2950 C2938 1.349 . S
C2950 H2944 0.950 . S
C2950 C2951 1.327 . S
C2951 H2945 0.950 . S
C2951 C2950 1.327 . S
C2951 C2955 1.429 . S
C2952 C2935 1.574 . S
C2952 H2946 0.949 . S
C2952 C2956 1.368 . S
C2953 C2934 1.429 . S
C2953 C2947 1.429 . S
C2953 C2954 1.523 . S
C2954 C2935 1.368 . S
C2954 C2948 1.368 . S
C2954 C2953 1.523 . S
C2955 C2939 1.429 . S
C2955 C2951 1.429 . S
C2955 C2956 1.523 . S
C2956 C2940 1.368 . S
C2956 C2952 1.368 . S
C2956 C2955 1.523 . S
H2957 C2932 0.950 . S
H2958 C2934 0.950 . S
H2959 C2935 0.949 . S
H2960 C2937 0.950 . S
H2961 C2939 0.950 . S
C2962 C2963 1.349 . S
C2962 C2964 1.327 . S
C2962 H2987 0.950 . S
C2963 C2962 1.349 . S
C2963 C2979 1.349 . S
C2964 C2962 1.327 . S
C2964 C2983 1.429 . S
C2964 H2988 0.950 . S
C2965 C2982 1.574 . S
C2965 C2984 1.368 . S
C2965 H2989 0.949 . S
H2966 C2970 0.949 . S
C2967 C2968 1.349 . S
C2967 C2969 1.327 . S
C2967 H2990 0.950 . S
C2968 C2967 1.349 . S
C2968 C2980 1.349 . S
C2969 C2967 1.327 . S
C2969 C2985 1.429 . S
C2969 H2991 0.950 . S
C2970 H2966 0.949 . S
C2970 C2978 1.574 . S
C2970 C2986 1.368 . S
H2971 C2979 0.950 . S
H2972 C2977 0.950 . S
H2973 C2978 0.949 . S
H2974 C2980 0.950 . S
H2975 C2981 0.950 . S
H2976 C2982 0.949 . S
C2977 H2972 0.950 . S
C2977 C2979 1.327 . S
C2977 C2983 1.429 . S
C2978 C2970 1.574 . S
C2978 H2973 0.949 . S
C2978 C2984 1.368 . S
C2979 C2963 1.349 . S
C2979 H2971 0.950 . S
C2979 C2977 1.327 . S
C2980 C2968 1.349 . S
C2980 H2974 0.950 . S
C2980 C2981 1.327 . S
C2981 H2975 0.950 . S
C2981 C2980 1.327 . S
C2981 C2985 1.429 . S
C2982 C2965 1.574 . S
C2982 H2976 0.949 . S
C2982 C2986 1.368 . S
C2983 C2964 1.429 . S
C2983 C2977 1.429 . S
C2983 C2984 1.523 . S
C2984 C2965 1.368 . S
C2984 C2978 1.368 . S
C2984 C2983 1.523 . S
C2985 C2969 1.429 . S
C2985 C2981 1.429 . S
C2985 C2986 1.523 . S
C2986 C2970 1.368 . S
C2986 C2982 1.368 . S
C2986 C2985 1.523 . S
H2987 C2962 0.950 . S
H2988 C2964 0.950 . S
H2989 C2965 0.949 . S
H2990 C2967 0.950 . S
H2991 C2969 0.950 . S
C2992 C2993 1.349 . S
C2992 C2994 1.327 . S
C2992 H3017 0.950 . S
C2993 C2992 1.349 . S
C2993 C3009 1.349 . S
C2994 C2992 1.327 . S
C2994 C3013 1.429 . S
C2994 H3018 0.950 . S
C2995 C3012 1.574 . S
C2995 C3014 1.368 . S
C2995 H3019 0.949 . S
H2996 C3000 0.949 . S
C2997 C2998 1.349 . S
C2997 C2999 1.327 . S
C2997 H3020 0.950 . S
C2998 C2997 1.349 . S
C2998 C3010 1.349 . S
C2999 C2997 1.327 . S
C2999 C3015 1.429 . S
C2999 H3021 0.950 . S
C3000 H2996 0.949 . S
C3000 C3008 1.574 . S
C3000 C3016 1.368 . S
H3001 C3009 0.950 . S
H3002 C3007 0.950 . S
H3003 C3008 0.949 . S
H3004 C3010 0.950 . S
H3005 C3011 0.934 1_655 S
H3006 C3012 0.949 1_455 S
C3007 H3002 0.950 . S
C3007 C3009 1.327 . S
C3007 C3013 1.429 . S
C3008 C3000 1.574 . S
C3008 H3003 0.949 . S
C3008 C3014 1.368 . S
C3009 C2993 1.349 . S
C3009 H3001 0.950 . S
C3009 C3007 1.327 . S
C3010 C2998 1.349 . S
C3010 H3004 0.950 . S
C3010 C3011 1.346 . S
C3011 H3005 0.934 1_455 S
C3011 C3010 1.346 . S
C3011 C3015 1.426 . S
C3012 C2995 1.574 . S
C3012 H3006 0.949 1_655 S
C3012 C3016 1.368 . S
C3013 C2994 1.429 . S
C3013 C3007 1.429 . S
C3013 C3014 1.523 . S
C3014 C2995 1.368 . S
C3014 C3008 1.368 . S
C3014 C3013 1.523 . S
C3015 C2999 1.429 . S
C3015 C3011 1.426 . S
C3015 C3016 1.523 1_455 S
C3016 C3000 1.368 . S
C3016 C3012 1.368 . S
C3016 C3015 1.523 1_655 S
H3017 C2992 0.950 . S
H3018 C2994 0.950 . S
H3019 C2995 0.949 . S
H3020 C2997 0.950 . S
H3021 C2999 0.950 . S
C3022 C3023 1.349 . S
C3022 C3024 1.327 . S
C3022 H3047 0.950 . S
C3023 C3022 1.349 . S
C3023 C3039 1.349 . S
C3024 C3022 1.327 . S
C3024 C3043 1.429 . S
C3024 H3048 0.950 . S
C3025 C3042 1.574 . S
C3025 C3044 1.368 . S
C3025 H3049 0.949 . S
H3026 C3030 0.949 . S
C3027 C3028 1.349 . S
C3027 C3029 1.327 . S
C3027 H3050 0.950 . S
C3028 C3027 1.349 . S
C3028 C3040 1.349 . S
C3029 C3027 1.327 . S
C3029 C3045 1.429 . S
C3029 H3051 0.950 . S
C3030 H3026 0.949 . S
C3030 C3038 1.574 . S
C3030 C3046 1.368 . S
H3031 C3039 0.950 . S
H3032 C3037 0.950 . S
H3033 C3038 0.949 . S
H3034 C3040 0.950 . S
H3035 C3041 0.950 . S
H3036 C3042 0.949 . S
C3037 H3032 0.950 . S
C3037 C3039 1.327 . S
C3037 C3043 1.429 . S
C3038 C3030 1.574 . S
C3038 H3033 0.949 . S
C3038 C3044 1.368 . S
C3039 C3023 1.349 . S
C3039 H3031 0.950 . S
C3039 C3037 1.327 . S
C3040 C3028 1.349 . S
C3040 H3034 0.950 . S
C3040 C3041 1.327 . S
C3041 H3035 0.950 . S
C3041 C3040 1.327 . S
C3041 C3045 1.429 . S
C3042 C3025 1.574 . S
C3042 H3036 0.949 . S
C3042 C3046 1.368 . S
C3043 C3024 1.429 . S
C3043 C3037 1.429 . S
C3043 C3044 1.523 . S
C3044 C3025 1.368 . S
C3044 C3038 1.368 . S
C3044 C3043 1.523 . S
C3045 C3029 1.429 . S
C3045 C3041 1.429 . S
C3045 C3046 1.523 . S
C3046 C3030 1.368 . S
C3046 C3042 1.368 . S
C3046 C3045 1.523 . S
H3047 C3022 0.950 . S
H3048 C3024 0.950 . S
H3049 C3025 0.949 . S
H3050 C3027 0.950 . S
H3051 C3029 0.950 . S
C3052 C3053 1.349 . S
C3052 C3054 1.327 . S
C3052 H3077 0.950 . S
C3053 C3052 1.349 . S
C3053 C3069 1.349 1_565 S
C3054 C3052 1.327 . S
C3054 C3073 1.429 1_565 S
C3054 H3078 0.950 . S
C3055 C3072 1.574 . S
C3055 C3074 1.368 . S
C3055 H3079 0.949 . S
H3056 C3060 0.949 . S
C3057 C3058 1.349 . S
C3057 C3059 1.327 . S
C3057 H3080 0.950 . S
C3058 C3057 1.349 . S
C3058 C3070 1.349 . S
C3059 C3057 1.327 . S
C3059 C3075 1.429 . S
C3059 H3081 0.950 . S
C3060 H3056 0.949 . S
C3060 C3068 1.574 . S
C3060 C3076 1.368 . S
H3061 C3069 0.950 . S
H3062 C3067 0.950 . S
H3063 C3068 0.949 1_565 S
H3064 C3070 0.950 . S
H3065 C3071 0.950 . S
H3066 C3072 0.949 . S
C3067 H3062 0.950 . S
C3067 C3069 1.327 . S
C3067 C3073 1.429 . S
C3068 C3060 1.574 . S
C3068 H3063 0.949 1_545 S
C3068 C3074 1.368 . S
C3069 C3053 1.349 1_545 S
C3069 H3061 0.950 . S
C3069 C3067 1.327 . S
C3070 C3058 1.349 . S
C3070 H3064 0.950 . S
C3070 C3071 1.327 . S
C3071 H3065 0.950 . S
C3071 C3070 1.327 . S
C3071 C3075 1.429 . S
C3072 C3055 1.574 . S
C3072 H3066 0.949 . S
C3072 C3076 1.368 . S
C3073 C3054 1.429 1_545 S
C3073 C3067 1.429 . S
C3073 C3074 1.523 . S
C3074 C3055 1.368 . S
C3074 C3068 1.368 . S
C3074 C3073 1.523 . S
C3075 C3059 1.429 . S
C3075 C3071 1.429 . S
C3075 C3076 1.523 . S
C3076 C3060 1.368 . S
C3076 C3072 1.368 . S
C3076 C3075 1.523 . S
H3077 C3052 0.950 . S
H3078 C3054 0.950 . S
H3079 C3055 0.949 . S
H3080 C3057 0.950 . S
H3081 C3059 0.950 . S
C3082 C3083 1.349 . S
C3082 C3084 1.327 . S
C3082 H3107 0.950 . S
C3083 C3082 1.349 . S
C3083 C3099 1.349 . S
C3084 C3082 1.327 . S
C3084 C3103 1.429 . S
C3084 H3108 0.950 . S
C3085 C3102 1.574 . S
C3085 C3104 1.368 . S
C3085 H3109 0.949 . S
H3086 C3090 0.949 . S
C3087 C3088 1.349 . S
C3087 C3089 1.327 . S
C3087 H3110 0.950 . S
C3088 C3087 1.349 . S
C3088 C3100 1.349 . S
C3089 C3087 1.327 . S
C3089 C3105 1.429 . S
C3089 H3111 0.950 . S
C3090 H3086 0.949 . S
C3090 C3098 1.574 . S
C3090 C3106 1.368 . S
H3091 C3099 0.950 . S
H3092 C3097 0.950 . S
H3093 C3098 0.949 . S
H3094 C3100 0.950 . S
H3095 C3101 0.950 . S
H3096 C3102 0.949 . S
C3097 H3092 0.950 . S
C3097 C3099 1.327 . S
C3097 C3103 1.429 . S
C3098 C3090 1.574 . S
C3098 H3093 0.949 . S
C3098 C3104 1.368 . S
C3099 C3083 1.349 . S
C3099 H3091 0.950 . S
C3099 C3097 1.327 . S
C3100 C3088 1.349 . S
C3100 H3094 0.950 . S
C3100 C3101 1.327 . S
C3101 H3095 0.950 . S
C3101 C3100 1.327 . S
C3101 C3105 1.429 . S
C3102 C3085 1.574 . S
C3102 H3096 0.949 . S
C3102 C3106 1.368 . S
C3103 C3084 1.429 . S
C3103 C3097 1.429 . S
C3103 C3104 1.523 . S
C3104 C3085 1.368 . S
C3104 C3098 1.368 . S
C3104 C3103 1.523 . S
C3105 C3089 1.429 . S
C3105 C3101 1.429 . S
C3105 C3106 1.523 . S
C3106 C3090 1.368 . S
C3106 C3102 1.368 . S
C3106 C3105 1.523 . S
H3107 C3082 0.950 . S
H3108 C3084 0.950 . S
H3109 C3085 0.949 . S
H3110 C3087 0.950 . S
H3111 C3089 0.950 . S
C3112 C3113 1.349 . S
C3112 C3114 1.327 . S
C3112 H3137 0.950 . S
C3113 C3112 1.349 . S
C3113 C3129 1.349 . S
C3114 C3112 1.327 . S
C3114 C3133 1.429 . S
C3114 H3138 0.950 . S
C3115 C3132 1.574 . S
C3115 C3134 1.368 . S
C3115 H3139 0.949 . S
H3116 C3120 0.949 . S
C3117 C3118 1.349 1_655 S
C3117 C3119 1.327 . S
C3117 H3140 0.950 . S
C3118 C3117 1.349 1_455 S
C3118 C3130 1.349 . S
C3119 C3117 1.327 . S
C3119 C3135 1.429 . S
C3119 H3141 0.950 . S
C3120 H3116 0.949 . S
C3120 C3128 1.574 . S
C3120 C3136 1.368 . S
H3121 C3129 0.950 . S
H3122 C3127 0.950 . S
H3123 C3128 0.949 . S
H3124 C3130 0.950 . S
H3125 C3131 0.950 . S
H3126 C3132 0.949 . S
C3127 H3122 0.950 . S
C3127 C3129 1.327 . S
C3127 C3133 1.429 . S
C3128 C3120 1.574 . S
C3128 H3123 0.949 . S
C3128 C3134 1.368 . S
C3129 C3113 1.349 . S
C3129 H3121 0.950 . S
C3129 C3127 1.327 . S
C3130 C3118 1.349 . S
C3130 H3124 0.950 . S
C3130 C3131 1.327 . S
C3131 H3125 0.950 . S
C3131 C3130 1.327 . S
C3131 C3135 1.428 1_455 S
C3132 C3115 1.574 . S
C3132 H3126 0.949 . S
C3132 C3136 1.368 . S
C3133 C3114 1.429 . S
C3133 C3127 1.429 . S
C3133 C3134 1.523 . S
C3134 C3115 1.368 . S
C3134 C3128 1.368 . S
C3134 C3133 1.523 . S
C3135 C3119 1.429 . S
C3135 C3131 1.428 1_655 S
C3135 C3136 1.523 . S
C3136 C3120 1.368 . S
C3136 C3132 1.368 . S
C3136 C3135 1.523 . S
H3137 C3112 0.950 . S
H3138 C3114 0.950 . S
H3139 C3115 0.949 . S
H3140 C3117 0.950 . S
H3141 C3119 0.950 . S
C3142 C3143 1.349 . S
C3142 C3144 1.327 . S
C3142 H3167 0.950 . S
C3143 C3142 1.349 . S
C3143 C3159 1.349 . S
C3144 C3142 1.327 . S
C3144 C3163 1.429 . S
C3144 H3168 0.950 . S
C3145 C3162 1.574 . S
C3145 C3164 1.368 . S
C3145 H3169 0.949 . S
H3146 C3150 0.949 . S
C3147 C3148 1.349 . S
C3147 C3149 1.327 . S
C3147 H3170 0.950 . S
C3148 C3147 1.349 . S
C3148 C3160 1.349 . S
C3149 C3147 1.327 . S
C3149 C3165 1.429 . S
C3149 H3171 0.950 . S
C3150 H3146 0.949 . S
C3150 C3158 1.574 . S
C3150 C3166 1.368 . S
H3151 C3159 0.950 . S
H3152 C3157 0.950 . S
H3153 C3158 0.949 . S
H3154 C3160 0.950 . S
H3155 C3161 0.950 . S
H3156 C3162 0.949 . S
C3157 H3152 0.950 . S
C3157 C3159 1.327 . S
C3157 C3163 1.429 . S
C3158 C3150 1.574 . S
C3158 H3153 0.949 . S
C3158 C3164 1.368 . S
C3159 C3143 1.349 . S
C3159 H3151 0.950 . S
C3159 C3157 1.327 . S
C3160 C3148 1.349 . S
C3160 H3154 0.950 . S
C3160 C3161 1.327 . S
C3161 H3155 0.950 . S
C3161 C3160 1.327 . S
C3161 C3165 1.429 . S
C3162 C3145 1.574 . S
C3162 H3156 0.949 . S
C3162 C3166 1.368 . S
C3163 C3144 1.429 . S
C3163 C3157 1.429 . S
C3163 C3164 1.523 . S
C3164 C3145 1.368 . S
C3164 C3158 1.368 . S
C3164 C3163 1.523 . S
C3165 C3149 1.429 . S
C3165 C3161 1.429 . S
C3165 C3166 1.523 . S
C3166 C3150 1.368 . S
C3166 C3162 1.368 . S
C3166 C3165 1.523 . S
H3167 C3142 0.950 . S
H3168 C3144 0.950 . S
H3169 C3145 0.949 . S
H3170 C3147 0.950 . S
H3171 C3149 0.950 . S
C3172 C3173 1.349 . S
C3172 C3174 1.327 . S
C3172 H3197 0.950 . S
C3173 C3172 1.349 . S
C3173 C3189 1.349 1_565 S
C3174 C3172 1.327 . S
C3174 C3193 1.429 1_565 S
C3174 H3198 0.950 . S
C3175 C3192 1.574 . S
C3175 C3194 1.368 . S
C3175 H3199 0.949 . S
H3176 C3180 0.949 . S
C3177 C3178 1.349 . S
C3177 C3179 1.327 . S
C3177 H3200 0.950 . S
C3178 C3177 1.349 . S
C3178 C3190 1.349 . S
C3179 C3177 1.327 . S
C3179 C3195 1.429 . S
C3179 H3201 0.950 . S
C3180 H3176 0.949 . S
C3180 C3188 1.574 . S
C3180 C3196 1.368 . S
H3181 C3189 0.950 . S
H3182 C3187 0.950 . S
H3183 C3188 0.949 . S
H3184 C3190 0.950 . S
H3185 C3191 0.950 . S
H3186 C3192 0.949 . S
C3187 H3182 0.950 . S
C3187 C3189 1.327 . S
C3187 C3193 1.429 . S
C3188 C3180 1.574 . S
C3188 H3183 0.949 . S
C3188 C3194 1.368 . S
C3189 C3173 1.349 1_545 S
C3189 H3181 0.950 . S
C3189 C3187 1.327 . S
C3190 C3178 1.349 . S
C3190 H3184 0.950 . S
C3190 C3191 1.327 . S
C3191 H3185 0.950 . S
C3191 C3190 1.327 . S
C3191 C3195 1.429 . S
C3192 C3175 1.574 . S
C3192 H3186 0.949 . S
C3192 C3196 1.368 . S
C3193 C3174 1.429 1_545 S
C3193 C3187 1.429 . S
C3193 C3194 1.523 . S
C3194 C3175 1.368 . S
C3194 C3188 1.368 . S
C3194 C3193 1.523 . S
C3195 C3179 1.429 . S
C3195 C3191 1.429 . S
C3195 C3196 1.523 . S
C3196 C3180 1.368 . S
C3196 C3192 1.368 . S
C3196 C3195 1.523 . S
H3197 C3172 0.950 . S
H3198 C3174 0.950 . S
H3199 C3175 0.949 . S
H3200 C3177 0.950 . S
H3201 C3179 0.950 . S
C3202 C3203 1.349 . S
C3202 C3204 1.327 . S
C3202 H3227 0.950 . S
C3203 C3202 1.349 . S
C3203 C3219 1.349 . S
C3204 C3202 1.327 . S
C3204 C3223 1.429 . S
C3204 H3228 0.950 . S
C3205 C3222 1.574 . S
C3205 C3224 1.368 . S
C3205 H3229 0.949 . S
H3206 C3210 0.949 . S
C3207 C3208 1.349 . S
C3207 C3209 1.327 . S
C3207 H3230 0.950 . S
C3208 C3207 1.349 . S
C3208 C3220 1.349 . S
C3209 C3207 1.327 . S
C3209 C3225 1.429 . S
C3209 H3231 0.950 . S
C3210 H3206 0.949 . S
C3210 C3218 1.574 . S
C3210 C3226 1.368 . S
H3211 C3219 0.950 . S
H3212 C3217 0.950 . S
H3213 C3218 0.949 . S
H3214 C3220 0.950 . S
H3215 C3221 0.950 . S
H3216 C3222 0.949 . S
C3217 H3212 0.950 . S
C3217 C3219 1.327 . S
C3217 C3223 1.429 . S
C3218 C3210 1.574 . S
C3218 H3213 0.949 . S
C3218 C3224 1.368 . S
C3219 C3203 1.349 . S
C3219 H3211 0.950 . S
C3219 C3217 1.327 . S
C3220 C3208 1.349 . S
C3220 H3214 0.950 . S
C3220 C3221 1.327 . S
C3221 H3215 0.950 . S
C3221 C3220 1.327 . S
C3221 C3225 1.429 . S
C3222 C3205 1.574 . S
C3222 H3216 0.949 . S
C3222 C3226 1.368 . S
C3223 C3204 1.429 . S
C3223 C3217 1.429 . S
C3223 C3224 1.523 . S
C3224 C3205 1.368 . S
C3224 C3218 1.368 . S
C3224 C3223 1.523 . S
C3225 C3209 1.429 . S
C3225 C3221 1.429 . S
C3225 C3226 1.523 . S
C3226 C3210 1.368 . S
C3226 C3222 1.368 . S
C3226 C3225 1.523 . S
H3227 C3202 0.950 . S
H3228 C3204 0.950 . S
H3229 C3205 0.949 . S
H3230 C3207 0.950 . S
H3231 C3209 0.950 . S
C3232 C3233 1.349 . S
C3232 C3234 1.327 . S
C3232 H3257 0.950 . S
C3233 C3232 1.349 . S
C3233 C3249 1.349 . S
C3234 C3232 1.327 . S
C3234 C3253 1.429 . S
C3234 H3258 0.950 . S
C3235 C3252 1.574 . S
C3235 C3254 1.368 . S
C3235 H3259 0.949 . S
H3236 C3240 0.949 1_545 S
C3237 C3238 1.349 . S
C3237 C3239 1.332 . S
C3237 H3260 0.950 . S
C3238 C3237 1.349 . S
C3238 C3250 1.349 . S
C3239 C3237 1.332 . S
C3239 C3255 1.427 . S
C3239 H3261 0.946 1_545 S
C3240 H3236 0.949 1_565 S
C3240 C3248 1.574 . S
C3240 C3256 1.368 . S
H3241 C3249 0.950 . S
H3242 C3247 0.950 . S
H3243 C3248 0.949 . S
H3244 C3250 0.950 . S
H3245 C3251 0.950 . S
H3246 C3252 0.949 . S
C3247 H3242 0.950 . S
C3247 C3249 1.327 . S
C3247 C3253 1.429 . S
C3248 C3240 1.574 . S
C3248 H3243 0.949 . S
C3248 C3254 1.368 . S
C3249 C3233 1.349 . S
C3249 H3241 0.950 . S
C3249 C3247 1.327 . S
C3250 C3238 1.349 . S
C3250 H3244 0.950 . S
C3250 C3251 1.327 . S
C3251 H3245 0.950 . S
C3251 C3250 1.327 . S
C3251 C3255 1.429 . S
C3252 C3235 1.574 . S
C3252 H3246 0.949 . S
C3252 C3256 1.368 . S
C3253 C3234 1.429 . S
C3253 C3247 1.429 . S
C3253 C3254 1.523 . S
C3254 C3235 1.368 . S
C3254 C3248 1.368 . S
C3254 C3253 1.523 . S
C3255 C3239 1.427 . S
C3255 C3251 1.429 . S
C3255 C3256 1.523 1_545 S
C3256 C3240 1.368 . S
C3256 C3252 1.368 . S
C3256 C3255 1.523 1_565 S
H3257 C3232 0.950 . S
H3258 C3234 0.950 . S
H3259 C3235 0.949 . S
H3260 C3237 0.950 . S
H3261 C3239 0.946 1_565 S
C3262 C3263 1.349 . S
C3262 C3264 1.327 . S
C3262 H3287 0.950 1_554 S
C3263 C3262 1.349 . S
C3263 C3279 1.349 . S
C3264 C3262 1.327 . S
C3264 C3283 1.429 . S
C3264 H3288 0.950 1_554 S
C3265 C3282 1.574 . S
C3265 C3284 1.368 . S
C3265 H3289 0.949 . S
H3266 C3270 0.949 1_556 S
C3267 C3268 1.349 . S
C3267 C3269 1.327 . S
C3267 H3290 0.950 . S
C3268 C3267 1.349 . S
C3268 C3280 1.349 . S
C3269 C3267 1.327 . S
C3269 C3285 1.429 . S
C3269 H3291 0.950 . S
C3270 H3266 0.949 1_554 S
C3270 C3278 1.574 . S
C3270 C3286 1.368 . S
H3271 C3279 0.950 . S
H3272 C3277 0.950 . S
H3273 C3278 0.949 1_556 S
H3274 C3280 0.950 . S
H3275 C3281 0.954 . S
H3276 C3282 0.949 . S
C3277 H3272 0.950 . S
C3277 C3279 1.327 . S
C3277 C3283 1.429 . S
C3278 C3270 1.574 . S
C3278 H3273 0.949 1_554 S
C3278 C3284 1.368 . S
C3279 C3263 1.349 . S
C3279 H3271 0.950 . S
C3279 C3277 1.327 . S
C3280 C3268 1.349 . S
C3280 H3274 0.950 . S
C3280 C3281 1.327 . S
C3281 H3275 0.954 . S
C3281 C3280 1.327 . S
C3281 C3285 1.429 . S
C3282 C3265 1.574 . S
C3282 H3276 0.949 . S
C3282 C3286 1.368 . S
C3283 C3264 1.429 . S
C3283 C3277 1.429 . S
C3283 C3284 1.523 . S
C3284 C3265 1.368 . S
C3284 C3278 1.368 . S
C3284 C3283 1.523 . S
C3285 C3269 1.429 . S
C3285 C3281 1.429 . S
C3285 C3286 1.523 . S
C3286 C3270 1.368 . S
C3286 C3282 1.368 . S
C3286 C3285 1.523 . S
H3287 C3262 0.950 1_556 S
H3288 C3264 0.950 1_556 S
H3289 C3265 0.949 . S
H3290 C3267 0.950 . S
H3291 C3269 0.950 . S
C3292 C3293 1.349 . S
C3292 C3294 1.327 . S
C3292 H3317 0.950 . S
C3293 C3292 1.349 . S
C3293 C3309 1.349 . S
C3294 C3292 1.327 . S
C3294 C3313 1.429 . S
C3294 H3318 0.950 . S
C3295 C3312 1.574 . S
C3295 C3314 1.368 . S
C3295 H3319 0.949 . S
H3296 C3300 0.949 . S
C3297 C3298 1.349 . S
C3297 C3299 1.327 . S
C3297 H3320 0.950 . S
C3298 C3297 1.349 . S
C3298 C3310 1.349 . S
C3299 C3297 1.327 . S
C3299 C3315 1.429 . S
C3299 H3321 0.950 . S
C3300 H3296 0.949 . S
C3300 C3308 1.574 . S
C3300 C3316 1.368 . S
H3301 C3309 0.950 . S
H3302 C3307 0.950 . S
H3303 C3308 0.949 . S
H3304 C3310 0.950 . S
H3305 C3311 0.950 . S
H3306 C3312 0.949 . S
C3307 H3302 0.950 . S
C3307 C3309 1.327 . S
C3307 C3313 1.429 . S
C3308 C3300 1.574 . S
C3308 H3303 0.949 . S
C3308 C3314 1.368 . S
C3309 C3293 1.349 . S
C3309 H3301 0.950 . S
C3309 C3307 1.327 . S
C3310 C3298 1.349 . S
C3310 H3304 0.950 . S
C3310 C3311 1.327 . S
C3311 H3305 0.950 . S
C3311 C3310 1.327 . S
C3311 C3315 1.429 . S
C3312 C3295 1.574 . S
C3312 H3306 0.949 . S
C3312 C3316 1.368 . S
C3313 C3294 1.429 . S
C3313 C3307 1.429 . S
C3313 C3314 1.523 . S
C3314 C3295 1.368 . S
C3314 C3308 1.368 . S
C3314 C3313 1.523 . S
C3315 C3299 1.429 . S
C3315 C3311 1.429 . S
C3315 C3316 1.523 . S
C3316 C3300 1.368 . S
C3316 C3312 1.368 . S
C3316 C3315 1.523 . S
H3317 C3292 0.950 . S
H3318 C3294 0.950 . S
H3319 C3295 0.949 . S
H3320 C3297 0.950 . S
H3321 C3299 0.950 . S
C3322 C3323 1.349 . S
C3322 C3324 1.327 . S
C3322 H3347 0.950 . S
C3323 C3322 1.349 . S
C3323 C3339 1.349 . S
C3324 C3322 1.327 . S
C3324 C3343 1.429 . S
C3324 H3348 0.950 . S
C3325 C3342 1.574 . S
C3325 C3344 1.368 . S
C3325 H3349 0.949 . S
H3326 C3330 0.949 . S
C3327 C3328 1.349 . S
C3327 C3329 1.327 . S
C3327 H3350 0.950 . S
C3328 C3327 1.349 . S
C3328 C3340 1.349 . S
C3329 C3327 1.327 . S
C3329 C3345 1.429 . S
C3329 H3351 0.950 . S
C3330 H3326 0.949 . S
C3330 C3338 1.574 . S
C3330 C3346 1.368 . S
H3331 C3339 0.950 . S
H3332 C3337 0.950 . S
H3333 C3338 0.949 . S
H3334 C3340 0.950 . S
H3335 C3341 0.950 . S
H3336 C3342 0.949 . S
C3337 H3332 0.950 . S
C3337 C3339 1.327 . S
C3337 C3343 1.429 . S
C3338 C3330 1.574 . S
C3338 H3333 0.949 . S
C3338 C3344 1.368 . S
C3339 C3323 1.349 . S
C3339 H3331 0.950 . S
C3339 C3337 1.327 . S
C3340 C3328 1.349 . S
C3340 H3334 0.950 . S
C3340 C3341 1.327 . S
C3341 H3335 0.950 . S
C3341 C3340 1.327 . S
C3341 C3345 1.429 . S
C3342 C3325 1.574 . S
C3342 H3336 0.949 . S
C3342 C3346 1.368 . S
C3343 C3324 1.429 . S
C3343 C3337 1.429 . S
C3343 C3344 1.523 . S
C3344 C3325 1.368 . S
C3344 C3338 1.368 . S
C3344 C3343 1.523 . S
C3345 C3329 1.429 . S
C3345 C3341 1.429 . S
C3345 C3346 1.523 . S
C3346 C3330 1.368 . S
C3346 C3342 1.368 . S
C3346 C3345 1.523 . S
H3347 C3322 0.950 . S
H3348 C3324 0.950 . S
H3349 C3325 0.949 . S
H3350 C3327 0.950 . S
H3351 C3329 0.950 . S
C3352 C3353 1.349 . S
C3352 C3354 1.327 . S
C3352 H3377 0.950 . S
C3353 C3352 1.349 . S
C3353 C3369 1.349 . S
C3354 C3352 1.327 . S
C3354 C3373 1.429 . S
C3354 H3378 0.950 . S
C3355 C3372 1.574 . S
C3355 C3374 1.368 . S
C3355 H3379 0.949 . S
H3356 C3360 0.949 . S
C3357 C3358 1.349 . S
C3357 C3359 1.327 . S
C3357 H3380 0.950 . S
C3358 C3357 1.349 . S
C3358 C3370 1.349 . S
C3359 C3357 1.327 . S
C3359 C3375 1.429 . S
C3359 H3381 0.950 . S
C3360 H3356 0.949 . S
C3360 C3368 1.574 . S
C3360 C3376 1.368 . S
H3361 C3369 0.950 . S
H3362 C3367 0.950 . S
H3363 C3368 0.949 . S
H3364 C3370 0.950 . S
H3365 C3371 0.950 . S
H3366 C3372 0.949 . S
C3367 H3362 0.950 . S
C3367 C3369 1.327 . S
C3367 C3373 1.429 . S
C3368 C3360 1.574 . S
C3368 H3363 0.949 . S
C3368 C3374 1.368 . S
C3369 C3353 1.349 . S
C3369 H3361 0.950 . S
C3369 C3367 1.327 . S
C3370 C3358 1.349 . S
C3370 H3364 0.950 . S
C3370 C3371 1.327 . S
C3371 H3365 0.950 . S
C3371 C3370 1.327 . S
C3371 C3375 1.429 . S
C3372 C3355 1.574 . S
C3372 H3366 0.949 . S
C3372 C3376 1.368 . S
C3373 C3354 1.429 . S
C3373 C3367 1.429 . S
C3373 C3374 1.523 . S
C3374 C3355 1.368 . S
C3374 C3368 1.368 . S
C3374 C3373 1.523 . S
C3375 C3359 1.429 . S
C3375 C3371 1.429 . S
C3375 C3376 1.523 . S
C3376 C3360 1.368 . S
C3376 C3372 1.368 . S
C3376 C3375 1.523 . S
H3377 C3352 0.950 . S
H3378 C3354 0.950 . S
H3379 C3355 0.949 . S
H3380 C3357 0.950 . S
H3381 C3359 0.950 . S
C3382 C3383 1.349 . S
C3382 C3384 1.327 . S
C3382 H3407 0.950 . S
C3383 C3382 1.349 . S
C3383 C3399 1.349 . S
C3384 C3382 1.327 . S
C3384 C3403 1.429 . S
C3384 H3408 0.950 . S
C3385 C3402 1.574 . S
C3385 C3404 1.368 . S
C3385 H3409 0.949 . S
H3386 C3390 0.949 . S
C3387 C3388 1.349 . S
C3387 C3389 1.327 . S
C3387 H3410 0.950 . S
C3388 C3387 1.349 . S
C3388 C3400 1.349 . S
C3389 C3387 1.327 . S
C3389 C3405 1.429 . S
C3389 H3411 0.950 . S
C3390 H3386 0.949 . S
C3390 C3398 1.574 . S
C3390 C3406 1.368 . S
H3391 C3399 0.950 . S
H3392 C3397 0.950 . S
H3393 C3398 0.949 . S
H3394 C3400 0.950 . S
H3395 C3401 0.950 . S
H3396 C3402 0.949 . S
C3397 H3392 0.950 . S
C3397 C3399 1.327 . S
C3397 C3403 1.429 . S
C3398 C3390 1.574 . S
C3398 H3393 0.949 . S
C3398 C3404 1.368 . S
C3399 C3383 1.349 . S
C3399 H3391 0.950 . S
C3399 C3397 1.327 . S
C3400 C3388 1.349 . S
C3400 H3394 0.950 . S
C3400 C3401 1.327 . S
C3401 H3395 0.950 . S
C3401 C3400 1.327 . S
C3401 C3405 1.429 . S
C3402 C3385 1.574 . S
C3402 H3396 0.949 . S
C3402 C3406 1.368 . S
C3403 C3384 1.429 . S
C3403 C3397 1.429 . S
C3403 C3404 1.523 . S
C3404 C3385 1.368 . S
C3404 C3398 1.368 . S
C3404 C3403 1.523 . S
C3405 C3389 1.429 . S
C3405 C3401 1.429 . S
C3405 C3406 1.523 . S
C3406 C3390 1.368 . S
C3406 C3402 1.368 . S
C3406 C3405 1.523 . S
H3407 C3382 0.950 . S
H3408 C3384 0.950 . S
H3409 C3385 0.949 . S
H3410 C3387 0.950 . S
H3411 C3389 0.950 . S
C3412 C3413 1.349 . S
C3412 C3414 1.327 . S
C3412 H3437 0.950 . S
C3413 C3412 1.349 . S
C3413 C3429 1.349 . S
C3414 C3412 1.327 . S
C3414 C3433 1.429 . S
C3414 H3438 0.950 . S
C3415 C3432 1.574 . S
C3415 C3434 1.368 . S
C3415 H3439 0.949 . S
H3416 C3420 0.949 . S
C3417 C3418 1.349 . S
C3417 C3419 1.327 . S
C3417 H3440 0.950 . S
C3418 C3417 1.349 . S
C3418 C3430 1.349 . S
C3419 C3417 1.327 . S
C3419 C3435 1.429 . S
C3419 H3441 0.950 . S
C3420 H3416 0.949 . S
C3420 C3428 1.574 . S
C3420 C3436 1.368 . S
H3421 C3429 0.950 . S
H3422 C3427 0.950 . S
H3423 C3428 0.949 . S
H3424 C3430 0.950 . S
H3425 C3431 0.950 . S
H3426 C3432 0.949 . S
C3427 H3422 0.950 . S
C3427 C3429 1.327 . S
C3427 C3433 1.429 . S
C3428 C3420 1.574 . S
C3428 H3423 0.949 . S
C3428 C3434 1.368 . S
C3429 C3413 1.349 . S
C3429 H3421 0.950 . S
C3429 C3427 1.327 . S
C3430 C3418 1.349 . S
C3430 H3424 0.950 . S
C3430 C3431 1.327 . S
C3431 H3425 0.950 . S
C3431 C3430 1.327 . S
C3431 C3435 1.429 . S
C3432 C3415 1.574 . S
C3432 H3426 0.949 . S
C3432 C3436 1.368 . S
C3433 C3414 1.429 . S
C3433 C3427 1.429 . S
C3433 C3434 1.523 . S
C3434 C3415 1.368 . S
C3434 C3428 1.368 . S
C3434 C3433 1.523 . S
C3435 C3419 1.429 . S
C3435 C3431 1.429 . S
C3435 C3436 1.523 . S
C3436 C3420 1.368 . S
C3436 C3432 1.368 . S
C3436 C3435 1.523 . S
H3437 C3412 0.950 . S
H3438 C3414 0.950 . S
H3439 C3415 0.949 . S
H3440 C3417 0.950 . S
H3441 C3419 0.950 . S
C3442 C3443 1.349 . S
C3442 C3444 1.327 . S
C3442 H3467 0.950 . S
C3443 C3442 1.349 . S
C3443 C3459 1.349 . S
C3444 C3442 1.327 . S
C3444 C3463 1.429 . S
C3444 H3468 0.950 . S
C3445 C3462 1.574 . S
C3445 C3464 1.368 . S
C3445 H3469 0.949 . S
H3446 C3450 0.949 . S
C3447 C3448 1.349 . S
C3447 C3449 1.327 . S
C3447 H3470 0.950 . S
C3448 C3447 1.349 . S
C3448 C3460 1.349 . S
C3449 C3447 1.327 . S
C3449 C3465 1.429 . S
C3449 H3471 0.950 . S
C3450 H3446 0.949 . S
C3450 C3458 1.574 . S
C3450 C3466 1.368 . S
H3451 C3459 0.950 . S
H3452 C3457 0.950 . S
H3453 C3458 0.949 . S
H3454 C3460 0.950 . S
H3455 C3461 0.950 . S
H3456 C3462 0.949 . S
C3457 H3452 0.950 . S
C3457 C3459 1.327 . S
C3457 C3463 1.429 . S
C3458 C3450 1.574 . S
C3458 H3453 0.949 . S
C3458 C3464 1.368 . S
C3459 C3443 1.349 . S
C3459 H3451 0.950 . S
C3459 C3457 1.327 . S
C3460 C3448 1.349 . S
C3460 H3454 0.950 . S
C3460 C3461 1.327 . S
C3461 H3455 0.950 . S
C3461 C3460 1.327 . S
C3461 C3465 1.429 . S
C3462 C3445 1.574 . S
C3462 H3456 0.949 . S
C3462 C3466 1.368 . S
C3463 C3444 1.429 . S
C3463 C3457 1.429 . S
C3463 C3464 1.523 . S
C3464 C3445 1.368 . S
C3464 C3458 1.368 . S
C3464 C3463 1.523 . S
C3465 C3449 1.429 . S
C3465 C3461 1.429 . S
C3465 C3466 1.523 . S
C3466 C3450 1.368 . S
C3466 C3462 1.368 . S
C3466 C3465 1.523 . S
H3467 C3442 0.950 . S
H3468 C3444 0.950 . S
H3469 C3445 0.949 . S
H3470 C3447 0.950 . S
H3471 C3449 0.950 . S
C3472 C3473 1.349 . S
C3472 C3474 1.327 . S
C3472 H3497 0.950 . S
C3473 C3472 1.349 . S
C3473 C3489 1.349 . S
C3474 C3472 1.327 . S
C3474 C3493 1.429 . S
C3474 H3498 0.950 . S
C3475 C3492 1.574 . S
C3475 C3494 1.368 . S
C3475 H3499 0.949 . S
H3476 C3480 0.949 . S
C3477 C3478 1.349 . S
C3477 C3479 1.327 . S
C3477 H3500 0.950 1_565 S
C3478 C3477 1.349 . S
C3478 C3490 1.349 . S
C3479 C3477 1.327 . S
C3479 C3495 1.429 . S
C3479 H3501 0.950 . S
C3480 H3476 0.949 . S
C3480 C3488 1.574 . S
C3480 C3496 1.368 . S
H3481 C3489 0.950 . S
H3482 C3487 0.950 . S
H3483 C3488 0.949 . S
H3484 C3490 0.950 . S
H3485 C3491 0.950 . S
H3486 C3492 0.949 . S
C3487 H3482 0.950 . S
C3487 C3489 1.327 . S
C3487 C3493 1.429 . S
C3488 C3480 1.574 . S
C3488 H3483 0.949 . S
C3488 C3494 1.368 . S
C3489 C3473 1.349 . S
C3489 H3481 0.950 . S
C3489 C3487 1.327 . S
C3490 C3478 1.349 . S
C3490 H3484 0.950 . S
C3490 C3491 1.327 . S
C3491 H3485 0.950 . S
C3491 C3490 1.327 . S
C3491 C3495 1.429 . S
C3492 C3475 1.574 . S
C3492 H3486 0.949 . S
C3492 C3496 1.368 . S
C3493 C3474 1.429 . S
C3493 C3487 1.429 . S
C3493 C3494 1.523 . S
C3494 C3475 1.368 . S
C3494 C3488 1.368 . S
C3494 C3493 1.523 . S
C3495 C3479 1.429 . S
C3495 C3491 1.429 . S
C3495 C3496 1.523 . S
C3496 C3480 1.368 . S
C3496 C3492 1.368 . S
C3496 C3495 1.523 . S
H3497 C3472 0.950 . S
H3498 C3474 0.950 . S
H3499 C3475 0.949 . S
H3500 C3477 0.950 1_545 S
H3501 C3479 0.950 . S
C3502 C3503 1.349 . S
C3502 C3504 1.327 . S
C3502 H3527 0.950 . S
C3503 C3502 1.349 . S
C3503 C3519 1.349 . S
C3504 C3502 1.327 . S
C3504 C3523 1.429 . S
C3504 H3528 0.950 . S
C3505 C3522 1.574 . S
C3505 C3524 1.368 . S
C3505 H3529 0.949 . S
H3506 C3510 0.949 . S
C3507 C3508 1.349 . S
C3507 C3509 1.327 . S
C3507 H3530 0.950 . S
C3508 C3507 1.349 . S
C3508 C3520 1.349 . S
C3509 C3507 1.327 . S
C3509 C3525 1.429 . S
C3509 H3531 0.950 . S
C3510 H3506 0.949 . S
C3510 C3518 1.574 . S
C3510 C3526 1.368 . S
H3511 C3519 0.950 . S
H3512 C3517 0.950 . S
H3513 C3518 0.949 . S
H3514 C3520 0.950 . S
H3515 C3521 0.950 . S
H3516 C3522 0.949 . S
C3517 H3512 0.950 . S
C3517 C3519 1.327 . S
C3517 C3523 1.429 . S
C3518 C3510 1.574 . S
C3518 H3513 0.949 . S
C3518 C3524 1.368 . S
C3519 C3503 1.349 . S
C3519 H3511 0.950 . S
C3519 C3517 1.327 . S
C3520 C3508 1.349 . S
C3520 H3514 0.950 . S
C3520 C3521 1.327 . S
C3521 H3515 0.950 . S
C3521 C3520 1.327 . S
C3521 C3525 1.429 . S
C3522 C3505 1.574 . S
C3522 H3516 0.949 . S
C3522 C3526 1.368 . S
C3523 C3504 1.429 . S
C3523 C3517 1.429 . S
C3523 C3524 1.523 . S
C3524 C3505 1.368 . S
C3524 C3518 1.368 . S
C3524 C3523 1.523 . S
C3525 C3509 1.429 . S
C3525 C3521 1.429 . S
C3525 C3526 1.523 . S
C3526 C3510 1.368 . S
C3526 C3522 1.368 . S
C3526 C3525 1.523 . S
H3527 C3502 0.950 . S
H3528 C3504 0.950 . S
H3529 C3505 0.949 . S
H3530 C3507 0.950 . S
H3531 C3509 0.950 . S
C3532 C3533 1.349 . S
C3532 C3534 1.327 . S
C3532 H3557 0.950 . S
C3533 C3532 1.349 . S
C3533 C3549 1.349 . S
C3534 C3532 1.327 . S
C3534 C3553 1.429 . S
C3534 H3558 0.950 . S
C3535 C3552 1.574 . S
C3535 C3554 1.368 . S
C3535 H3559 0.949 . S
H3536 C3540 0.949 . S
C3537 C3538 1.349 . S
C3537 C3539 1.327 . S
C3537 H3560 0.950 . S
C3538 C3537 1.349 . S
C3538 C3550 1.349 . S
C3539 C3537 1.327 . S
C3539 C3555 1.429 . S
C3539 H3561 0.950 . S
C3540 H3536 0.949 . S
C3540 C3548 1.574 . S
C3540 C3556 1.368 . S
H3541 C3549 0.950 . S
H3542 C3547 0.950 . S
H3543 C3548 0.949 . S
H3544 C3550 0.950 . S
H3545 C3551 0.950 . S
H3546 C3552 0.949 . S
C3547 H3542 0.950 . S
C3547 C3549 1.327 . S
C3547 C3553 1.429 . S
C3548 C3540 1.574 . S
C3548 H3543 0.949 . S
C3548 C3554 1.368 . S
C3549 C3533 1.349 . S
C3549 H3541 0.950 . S
C3549 C3547 1.327 . S
C3550 C3538 1.349 . S
C3550 H3544 0.950 . S
C3550 C3551 1.327 . S
C3551 H3545 0.950 . S
C3551 C3550 1.327 . S
C3551 C3555 1.429 . S
C3552 C3535 1.574 . S
C3552 H3546 0.949 . S
C3552 C3556 1.368 . S
C3553 C3534 1.429 . S
C3553 C3547 1.429 . S
C3553 C3554 1.523 . S
C3554 C3535 1.368 . S
C3554 C3548 1.368 . S
C3554 C3553 1.523 . S
C3555 C3539 1.429 . S
C3555 C3551 1.429 . S
C3555 C3556 1.523 . S
C3556 C3540 1.368 . S
C3556 C3552 1.368 . S
C3556 C3555 1.523 . S
H3557 C3532 0.950 . S
H3558 C3534 0.950 . S
H3559 C3535 0.949 . S
H3560 C3537 0.950 . S
H3561 C3539 0.950 . S
C3562 C3563 1.349 . S
C3562 C3564 1.327 . S
C3562 H3587 0.950 . S
C3563 C3562 1.349 . S
C3563 C3579 1.349 . S
C3564 C3562 1.327 . S
C3564 C3583 1.429 . S
C3564 H3588 0.950 . S
C3565 C3582 1.574 . S
C3565 C3584 1.368 . S
C3565 H3589 0.949 . S
H3566 C3570 0.949 . S
C3567 C3568 1.349 . S
C3567 C3569 1.327 . S
C3567 H3590 0.950 . S
C3568 C3567 1.349 . S
C3568 C3580 1.349 . S
C3569 C3567 1.327 . S
C3569 C3585 1.429 . S
C3569 H3591 0.950 . S
C3570 H3566 0.949 . S
C3570 C3578 1.574 . S
C3570 C3586 1.368 . S
H3571 C3579 0.950 . S
H3572 C3577 0.950 . S
H3573 C3578 0.949 . S
H3574 C3580 0.950 . S
H3575 C3581 0.950 . S
H3576 C3582 0.949 . S
C3577 H3572 0.950 . S
C3577 C3579 1.327 . S
C3577 C3583 1.429 . S
C3578 C3570 1.574 . S
C3578 H3573 0.949 . S
C3578 C3584 1.368 . S
C3579 C3563 1.349 . S
C3579 H3571 0.950 . S
C3579 C3577 1.327 . S
C3580 C3568 1.349 . S
C3580 H3574 0.950 . S
C3580 C3581 1.327 . S
C3581 H3575 0.950 . S
C3581 C3580 1.327 . S
C3581 C3585 1.429 . S
C3582 C3565 1.574 . S
C3582 H3576 0.949 . S
C3582 C3586 1.368 . S
C3583 C3564 1.429 . S
C3583 C3577 1.429 . S
C3583 C3584 1.523 . S
C3584 C3565 1.368 . S
C3584 C3578 1.368 . S
C3584 C3583 1.523 . S
C3585 C3569 1.429 . S
C3585 C3581 1.429 . S
C3585 C3586 1.523 . S
C3586 C3570 1.368 . S
C3586 C3582 1.368 . S
C3586 C3585 1.523 . S
H3587 C3562 0.950 . S
H3588 C3564 0.950 . S
H3589 C3565 0.949 . S
H3590 C3567 0.950 . S
H3591 C3569 0.950 . S
C3592 C3593 1.349 . S
C3592 C3594 1.327 . S
C3592 H3617 0.950 . S
C3593 C3592 1.349 . S
C3593 C3609 1.349 1_455 S
C3594 C3592 1.327 . S
C3594 C3613 1.429 . S
C3594 H3618 0.950 . S
C3595 C3612 1.574 . S
C3595 C3614 1.368 . S
C3595 H3619 0.949 1_455 S
H3596 C3600 0.949 . S
C3597 C3598 1.349 . S
C3597 C3599 1.327 . S
C3597 H3620 0.950 . S
C3598 C3597 1.349 . S
C3598 C3610 1.349 . S
C3599 C3597 1.327 . S
C3599 C3615 1.429 . S
C3599 H3621 0.950 . S
C3600 H3596 0.949 . S
C3600 C3608 1.574 . S
C3600 C3616 1.368 . S
H3601 C3609 0.950 . S
H3602 C3607 0.950 . S
H3603 C3608 0.949 . S
H3604 C3610 0.950 . S
H3605 C3611 0.950 . S
H3606 C3612 0.961 . S
C3607 H3602 0.950 . S
C3607 C3609 1.327 . S
C3607 C3613 1.429 1_655 S
C3608 C3600 1.574 . S
C3608 H3603 0.949 . S
C3608 C3614 1.368 . S
C3609 C3593 1.349 1_655 S
C3609 H3601 0.950 . S
C3609 C3607 1.327 . S
C3610 C3598 1.349 . S
C3610 H3604 0.950 . S
C3610 C3611 1.327 . S
C3611 H3605 0.950 . S
C3611 C3610 1.327 . S
C3611 C3615 1.429 . S
C3612 C3595 1.574 . S
C3612 H3606 0.961 . S
C3612 C3616 1.368 . S
C3613 C3594 1.429 . S
C3613 C3607 1.429 1_455 S
C3613 C3614 1.523 . S
C3614 C3595 1.368 . S
C3614 C3608 1.368 . S
C3614 C3613 1.523 . S
C3615 C3599 1.429 . S
C3615 C3611 1.429 . S
C3615 C3616 1.523 . S
C3616 C3600 1.368 . S
C3616 C3612 1.368 . S
C3616 C3615 1.523 . S
H3617 C3592 0.950 . S
H3618 C3594 0.950 . S
H3619 C3595 0.949 1_655 S
H3620 C3597 0.950 . S
H3621 C3599 0.950 . S
C3622 C3623 1.349 . S
C3622 C3624 1.327 . S
C3622 H3647 0.950 . S
C3623 C3622 1.349 . S
C3623 C3639 1.349 . S
C3624 C3622 1.327 . S
C3624 C3643 1.429 . S
C3624 H3648 0.950 . S
C3625 C3642 1.574 . S
C3625 C3644 1.368 . S
C3625 H3649 0.949 . S
H3626 C3630 0.949 . S
C3627 C3628 1.349 . S
C3627 C3629 1.327 . S
C3627 H3650 0.950 . S
C3628 C3627 1.349 . S
C3628 C3640 1.349 . S
C3629 C3627 1.327 . S
C3629 C3645 1.429 . S
C3629 H3651 0.950 . S
C3630 H3626 0.949 . S
C3630 C3638 1.574 . S
C3630 C3646 1.368 . S
H3631 C3639 0.950 . S
H3632 C3637 0.950 . S
H3633 C3638 0.949 . S
H3634 C3640 0.950 . S
H3635 C3641 0.950 . S
H3636 C3642 0.949 . S
C3637 H3632 0.950 . S
C3637 C3639 1.327 . S
C3637 C3643 1.429 . S
C3638 C3630 1.574 . S
C3638 H3633 0.949 . S
C3638 C3644 1.368 . S
C3639 C3623 1.349 . S
C3639 H3631 0.950 . S
C3639 C3637 1.327 . S
C3640 C3628 1.349 . S
C3640 H3634 0.950 . S
C3640 C3641 1.327 . S
C3641 H3635 0.950 . S
C3641 C3640 1.327 . S
C3641 C3645 1.429 . S
C3642 C3625 1.574 . S
C3642 H3636 0.949 . S
C3642 C3646 1.368 . S
C3643 C3624 1.429 . S
C3643 C3637 1.429 . S
C3643 C3644 1.523 . S
C3644 C3625 1.368 . S
C3644 C3638 1.368 . S
C3644 C3643 1.523 . S
C3645 C3629 1.429 . S
C3645 C3641 1.429 . S
C3645 C3646 1.523 . S
C3646 C3630 1.368 . S
C3646 C3642 1.368 . S
C3646 C3645 1.523 . S
H3647 C3622 0.950 . S
H3648 C3624 0.950 . S
H3649 C3625 0.949 . S
H3650 C3627 0.950 . S
H3651 C3629 0.950 . S
C3652 C3653 1.349 . S
C3652 C3654 1.327 . S
C3652 H3677 0.950 . S
C3653 C3652 1.349 . S
C3653 C3669 1.349 . S
C3654 C3652 1.327 . S
C3654 C3673 1.429 . S
C3654 H3678 0.950 . S
C3655 C3672 1.574 . S
C3655 C3674 1.368 . S
C3655 H3679 0.949 . S
H3656 C3660 0.949 1_554 S
C3657 C3658 1.348 1_566 S
C3657 C3659 1.327 . S
C3657 H3680 0.950 1_565 S
C3658 C3657 1.348 1_544 S
C3658 C3670 1.344 1_545 S
C3659 C3657 1.327 . S
C3659 C3675 1.429 . S
C3659 H3681 0.950 . S
C3660 H3656 0.949 1_556 S
C3660 C3668 1.574 . S
C3660 C3676 1.368 . S
H3661 C3669 0.950 . S
H3662 C3667 0.950 . S
H3663 C3668 0.949 . S
H3664 C3670 0.950 . S
H3665 C3671 0.950 . S
H3666 C3672 0.949 . S
C3667 H3662 0.950 . S
C3667 C3669 1.327 . S
C3667 C3673 1.429 . S
C3668 C3660 1.574 . S
C3668 H3663 0.949 . S
C3668 C3674 1.368 . S
C3669 C3653 1.349 . S
C3669 H3661 0.950 . S
C3669 C3667 1.327 . S
C3670 C3658 1.344 1_565 S
C3670 H3664 0.950 . S
C3670 C3671 1.327 . S
C3671 H3665 0.950 . S
C3671 C3670 1.327 . S
C3671 C3675 1.429 1_554 S
C3672 C3655 1.574 . S
C3672 H3666 0.949 . S
C3672 C3676 1.368 . S
C3673 C3654 1.429 . S
C3673 C3667 1.429 . S
C3673 C3674 1.523 . S
C3674 C3655 1.368 . S
C3674 C3668 1.368 . S
C3674 C3673 1.523 . S
C3675 C3659 1.429 . S
C3675 C3671 1.429 1_556 S
C3675 C3676 1.523 . S
C3676 C3660 1.368 . S
C3676 C3672 1.368 . S
C3676 C3675 1.523 . S
H3677 C3652 0.950 . S
H3678 C3654 0.950 . S
H3679 C3655 0.949 . S
H3680 C3657 0.950 1_545 S
H3681 C3659 0.950 . S
C3682 C3683 1.349 . S
C3682 C3684 1.327 . S
C3682 H3707 0.950 1_655 S
C3683 C3682 1.349 . S
C3683 C3699 1.349 . S
C3684 C3682 1.327 . S
C3684 C3703 1.429 . S
C3684 H3708 0.950 . S
C3685 C3702 1.574 . S
C3685 C3704 1.368 . S
C3685 H3709 0.949 . S
H3686 C3690 0.949 . S
C3687 C3688 1.349 . S
C3687 C3689 1.327 . S
C3687 H3710 0.950 . S
C3688 C3687 1.349 . S
C3688 C3700 1.349 . S
C3689 C3687 1.327 . S
C3689 C3705 1.429 . S
C3689 H3711 0.950 . S
C3690 H3686 0.949 . S
C3690 C3698 1.574 . S
C3690 C3706 1.368 . S
H3691 C3699 0.950 . S
H3692 C3697 0.950 . S
H3693 C3698 0.949 . S
H3694 C3700 0.950 . S
H3695 C3701 0.950 . S
H3696 C3702 0.949 . S
C3697 H3692 0.950 . S
C3697 C3699 1.327 . S
C3697 C3703 1.429 . S
C3698 C3690 1.574 . S
C3698 H3693 0.949 . S
C3698 C3704 1.368 . S
C3699 C3683 1.349 . S
C3699 H3691 0.950 . S
C3699 C3697 1.327 . S
C3700 C3688 1.349 . S
C3700 H3694 0.950 . S
C3700 C3701 1.327 . S
C3701 H3695 0.950 . S
C3701 C3700 1.327 . S
C3701 C3705 1.429 . S
C3702 C3685 1.574 . S
C3702 H3696 0.949 . S
C3702 C3706 1.368 . S
C3703 C3684 1.429 . S
C3703 C3697 1.429 . S
C3703 C3704 1.523 . S
C3704 C3685 1.368 . S
C3704 C3698 1.368 . S
C3704 C3703 1.523 . S
C3705 C3689 1.429 . S
C3705 C3701 1.429 . S
C3705 C3706 1.523 . S
C3706 C3690 1.368 . S
C3706 C3702 1.368 . S
C3706 C3705 1.523 . S
H3707 C3682 0.950 1_455 S
H3708 C3684 0.950 . S
H3709 C3685 0.949 . S
H3710 C3687 0.950 . S
H3711 C3689 0.950 . S
C3712 C3713 1.349 . S
C3712 C3714 1.327 . S
C3712 H3737 0.950 . S
C3713 C3712 1.349 . S
C3713 C3729 1.349 . S
C3714 C3712 1.327 . S
C3714 C3733 1.429 . S
C3714 H3738 0.950 . S
C3715 C3732 1.574 . S
C3715 C3734 1.368 . S
C3715 H3739 0.949 . S
H3716 C3720 0.949 . S
C3717 C3718 1.349 . S
C3717 C3719 1.327 . S
C3717 H3740 0.950 . S
C3718 C3717 1.349 . S
C3718 C3730 1.349 . S
C3719 C3717 1.327 . S
C3719 C3735 1.429 . S
C3719 H3741 0.950 . S
C3720 H3716 0.949 . S
C3720 C3728 1.574 . S
C3720 C3736 1.368 . S
H3721 C3729 0.950 . S
H3722 C3727 0.950 . S
H3723 C3728 0.949 . S
H3724 C3730 0.950 . S
H3725 C3731 0.950 . S
H3726 C3732 0.949 . S
C3727 H3722 0.950 . S
C3727 C3729 1.327 . S
C3727 C3733 1.429 . S
C3728 C3720 1.574 . S
C3728 H3723 0.949 . S
C3728 C3734 1.368 . S
C3729 C3713 1.349 . S
C3729 H3721 0.950 . S
C3729 C3727 1.327 . S
C3730 C3718 1.349 . S
C3730 H3724 0.950 . S
C3730 C3731 1.327 . S
C3731 H3725 0.950 . S
C3731 C3730 1.327 . S
C3731 C3735 1.429 . S
C3732 C3715 1.574 . S
C3732 H3726 0.949 . S
C3732 C3736 1.368 . S
C3733 C3714 1.429 . S
C3733 C3727 1.429 . S
C3733 C3734 1.523 . S
C3734 C3715 1.368 . S
C3734 C3728 1.368 . S
C3734 C3733 1.523 . S
C3735 C3719 1.429 . S
C3735 C3731 1.429 . S
C3735 C3736 1.523 . S
C3736 C3720 1.368 . S
C3736 C3732 1.368 . S
C3736 C3735 1.523 . S
H3737 C3712 0.950 . S
H3738 C3714 0.950 . S
H3739 C3715 0.949 . S
H3740 C3717 0.950 . S
H3741 C3719 0.950 . S
C3742 C3743 1.349 . S
C3742 C3744 1.327 . S
C3742 H3767 0.950 . S
C3743 C3742 1.349 . S
C3743 C3759 1.349 . S
C3744 C3742 1.327 . S
C3744 C3763 1.429 . S
C3744 H3768 0.950 . S
C3745 C3762 1.574 . S
C3745 C3764 1.368 . S
C3745 H3769 0.949 . S
H3746 C3750 0.949 . S
C3747 C3748 1.349 . S
C3747 C3749 1.327 . S
C3747 H3770 0.950 . S
C3748 C3747 1.349 . S
C3748 C3760 1.349 . S
C3749 C3747 1.327 . S
C3749 C3765 1.429 . S
C3749 H3771 0.950 . S
C3750 H3746 0.949 . S
C3750 C3758 1.574 . S
C3750 C3766 1.368 . S
H3751 C3759 0.950 . S
H3752 C3757 0.950 . S
H3753 C3758 0.949 . S
H3754 C3760 0.950 . S
H3755 C3761 0.950 . S
H3756 C3762 0.949 . S
C3757 H3752 0.950 . S
C3757 C3759 1.327 . S
C3757 C3763 1.429 . S
C3758 C3750 1.574 . S
C3758 H3753 0.949 . S
C3758 C3764 1.368 . S
C3759 C3743 1.349 . S
C3759 H3751 0.950 . S
C3759 C3757 1.327 . S
C3760 C3748 1.349 . S
C3760 H3754 0.950 . S
C3760 C3761 1.327 . S
C3761 H3755 0.950 . S
C3761 C3760 1.327 . S
C3761 C3765 1.429 . S
C3762 C3745 1.574 . S
C3762 H3756 0.949 . S
C3762 C3766 1.368 . S
C3763 C3744 1.429 . S
C3763 C3757 1.429 . S
C3763 C3764 1.523 . S
C3764 C3745 1.368 . S
C3764 C3758 1.368 . S
C3764 C3763 1.523 . S
C3765 C3749 1.429 . S
C3765 C3761 1.429 . S
C3765 C3766 1.523 . S
C3766 C3750 1.368 . S
C3766 C3762 1.368 . S
C3766 C3765 1.523 . S
H3767 C3742 0.950 . S
H3768 C3744 0.950 . S
H3769 C3745 0.949 . S
H3770 C3747 0.950 . S
H3771 C3749 0.950 . S
C3772 C3773 1.349 . S
C3772 C3774 1.327 . S
C3772 H3797 0.950 . S
C3773 C3772 1.349 . S
C3773 C3789 1.349 . S
C3774 C3772 1.327 . S
C3774 C3793 1.429 . S
C3774 H3798 0.950 . S
C3775 C3792 1.574 . S
C3775 C3794 1.368 . S
C3775 H3799 0.949 . S
H3776 C3780 0.949 . S
C3777 C3778 1.349 . S
C3777 C3779 1.327 . S
C3777 H3800 0.950 . S
C3778 C3777 1.349 . S
C3778 C3790 1.349 . S
C3779 C3777 1.327 . S
C3779 C3795 1.429 . S
C3779 H3801 0.950 . S
C3780 H3776 0.949 . S
C3780 C3788 1.574 . S
C3780 C3796 1.368 . S
H3781 C3789 0.950 . S
H3782 C3787 0.950 . S
H3783 C3788 0.949 . S
H3784 C3790 0.950 . S
H3785 C3791 0.950 . S
H3786 C3792 0.949 . S
C3787 H3782 0.950 . S
C3787 C3789 1.327 . S
C3787 C3793 1.429 . S
C3788 C3780 1.574 . S
C3788 H3783 0.949 . S
C3788 C3794 1.368 . S
C3789 C3773 1.349 . S
C3789 H3781 0.950 . S
C3789 C3787 1.327 . S
C3790 C3778 1.349 . S
C3790 H3784 0.950 . S
C3790 C3791 1.327 . S
C3791 H3785 0.950 . S
C3791 C3790 1.327 . S
C3791 C3795 1.429 . S
C3792 C3775 1.574 . S
C3792 H3786 0.949 . S
C3792 C3796 1.368 . S
C3793 C3774 1.429 . S
C3793 C3787 1.429 . S
C3793 C3794 1.523 . S
C3794 C3775 1.368 . S
C3794 C3788 1.368 . S
C3794 C3793 1.523 . S
C3795 C3779 1.429 . S
C3795 C3791 1.429 . S
C3795 C3796 1.523 . S
C3796 C3780 1.368 . S
C3796 C3792 1.368 . S
C3796 C3795 1.523 . S
H3797 C3772 0.950 . S
H3798 C3774 0.950 . S
H3799 C3775 0.949 . S
H3800 C3777 0.950 . S
H3801 C3779 0.950 . S
C3802 C3803 1.349 . S
C3802 C3804 1.327 . S
C3802 H3827 0.950 . S
C3803 C3802 1.349 . S
C3803 C3819 1.349 . S
C3804 C3802 1.327 . S
C3804 C3823 1.429 . S
C3804 H3828 0.950 . S
C3805 C3822 1.574 . S
C3805 C3824 1.368 . S
C3805 H3829 0.949 . S
H3806 C3810 0.949 . S
C3807 C3808 1.349 . S
C3807 C3809 1.327 . S
C3807 H3830 0.950 . S
C3808 C3807 1.349 . S
C3808 C3820 1.349 . S
C3809 C3807 1.327 . S
C3809 C3825 1.429 . S
C3809 H3831 0.950 . S
C3810 H3806 0.949 . S
C3810 C3818 1.574 . S
C3810 C3826 1.368 . S
H3811 C3819 0.950 . S
H3812 C3817 0.950 . S
H3813 C3818 0.949 . S
H3814 C3820 0.950 . S
H3815 C3821 0.950 . S
H3816 C3822 0.949 . S
C3817 H3812 0.950 . S
C3817 C3819 1.327 . S
C3817 C3823 1.429 . S
C3818 C3810 1.574 . S
C3818 H3813 0.949 . S
C3818 C3824 1.368 . S
C3819 C3803 1.349 . S
C3819 H3811 0.950 . S
C3819 C3817 1.327 . S
C3820 C3808 1.349 . S
C3820 H3814 0.950 . S
C3820 C3821 1.327 . S
C3821 H3815 0.950 . S
C3821 C3820 1.327 . S
C3821 C3825 1.429 . S
C3822 C3805 1.574 . S
C3822 H3816 0.949 . S
C3822 C3826 1.368 . S
C3823 C3804 1.429 . S
C3823 C3817 1.429 . S
C3823 C3824 1.523 . S
C3824 C3805 1.368 . S
C3824 C3818 1.368 . S
C3824 C3823 1.523 . S
C3825 C3809 1.429 . S
C3825 C3821 1.429 . S
C3825 C3826 1.523 . S
C3826 C3810 1.368 . S
C3826 C3822 1.368 . S
C3826 C3825 1.523 . S
H3827 C3802 0.950 . S
H3828 C3804 0.950 . S
H3829 C3805 0.949 . S
H3830 C3807 0.950 . S
H3831 C3809 0.950 . S
C3832 C3833 1.349 . S
C3832 C3834 1.327 . S
C3832 H3857 0.950 . S
C3833 C3832 1.349 . S
C3833 C3849 1.349 . S
C3834 C3832 1.327 . S
C3834 C3853 1.429 . S
C3834 H3858 0.950 . S
C3835 C3852 1.574 . S
C3835 C3854 1.368 . S
C3835 H3859 0.949 . S
H3836 C3840 0.949 . S
C3837 C3838 1.349 . S
C3837 C3839 1.327 . S
C3837 H3860 0.950 . S
C3838 C3837 1.349 . S
C3838 C3850 1.349 . S
C3839 C3837 1.327 . S
C3839 C3855 1.429 . S
C3839 H3861 0.950 . S
C3840 H3836 0.949 . S
C3840 C3848 1.574 . S
C3840 C3856 1.368 . S
H3841 C3849 0.950 . S
H3842 C3847 0.950 . S
H3843 C3848 0.949 . S
H3844 C3850 0.950 . S
H3845 C3851 0.950 . S
H3846 C3852 0.949 . S
C3847 H3842 0.950 . S
C3847 C3849 1.327 . S
C3847 C3853 1.429 . S
C3848 C3840 1.574 . S
C3848 H3843 0.949 . S
C3848 C3854 1.368 . S
C3849 C3833 1.349 . S
C3849 H3841 0.950 . S
C3849 C3847 1.327 . S
C3850 C3838 1.349 . S
C3850 H3844 0.950 . S
C3850 C3851 1.327 . S
C3851 H3845 0.950 . S
C3851 C3850 1.327 . S
C3851 C3855 1.429 . S
C3852 C3835 1.574 . S
C3852 H3846 0.949 . S
C3852 C3856 1.368 . S
C3853 C3834 1.429 . S
C3853 C3847 1.429 . S
C3853 C3854 1.523 . S
C3854 C3835 1.368 . S
C3854 C3848 1.368 . S
C3854 C3853 1.523 . S
C3855 C3839 1.429 . S
C3855 C3851 1.429 . S
C3855 C3856 1.523 . S
C3856 C3840 1.368 . S
C3856 C3852 1.368 . S
C3856 C3855 1.523 . S
H3857 C3832 0.950 . S
H3858 C3834 0.950 . S
H3859 C3835 0.949 . S
H3860 C3837 0.950 . S
H3861 C3839 0.950 . S
C3862 C3863 1.349 . S
C3862 C3864 1.327 . S
C3862 H3887 0.950 . S
C3863 C3862 1.349 . S
C3863 C3879 1.349 . S
C3864 C3862 1.327 . S
C3864 C3883 1.429 . S
C3864 H3888 0.950 . S
C3865 C3882 1.574 . S
C3865 C3884 1.368 . S
C3865 H3889 0.949 . S
H3866 C3870 0.949 . S
C3867 C3868 1.349 . S
C3867 C3869 1.327 . S
C3867 H3890 0.950 . S
C3868 C3867 1.349 . S
C3868 C3880 1.349 . S
C3869 C3867 1.327 . S
C3869 C3885 1.429 . S
C3869 H3891 0.950 . S
C3870 H3866 0.949 . S
C3870 C3878 1.574 . S
C3870 C3886 1.368 . S
H3871 C3879 0.950 . S
H3872 C3877 0.950 . S
H3873 C3878 0.949 . S
H3874 C3880 0.950 . S
H3875 C3881 0.950 . S
H3876 C3882 0.949 . S
C3877 H3872 0.950 . S
C3877 C3879 1.327 . S
C3877 C3883 1.429 . S
C3878 C3870 1.574 . S
C3878 H3873 0.949 . S
C3878 C3884 1.368 . S
C3879 C3863 1.349 . S
C3879 H3871 0.950 . S
C3879 C3877 1.327 . S
C3880 C3868 1.349 . S
C3880 H3874 0.950 . S
C3880 C3881 1.327 . S
C3881 H3875 0.950 . S
C3881 C3880 1.327 . S
C3881 C3885 1.429 . S
C3882 C3865 1.574 . S
C3882 H3876 0.949 . S
C3882 C3886 1.368 . S
C3883 C3864 1.429 . S
C3883 C3877 1.429 . S
C3883 C3884 1.523 . S
C3884 C3865 1.368 . S
C3884 C3878 1.368 . S
C3884 C3883 1.523 . S
C3885 C3869 1.429 . S
C3885 C3881 1.429 . S
C3885 C3886 1.523 . S
C3886 C3870 1.368 . S
C3886 C3882 1.368 . S
C3886 C3885 1.523 . S
H3887 C3862 0.950 . S
H3888 C3864 0.950 . S
H3889 C3865 0.949 . S
H3890 C3867 0.950 . S
H3891 C3869 0.950 . S
C3892 C3893 1.349 . S
C3892 C3894 1.327 . S
C3892 H3917 0.950 . S
C3893 C3892 1.349 . S
C3893 C3909 1.349 . S
C3894 C3892 1.327 . S
C3894 C3913 1.429 . S
C3894 H3918 0.950 . S
C3895 C3912 1.574 . S
C3895 C3914 1.368 . S
C3895 H3919 0.949 . S
H3896 C3900 0.949 . S
C3897 C3898 1.349 . S
C3897 C3899 1.327 . S
C3897 H3920 0.950 . S
C3898 C3897 1.349 . S
C3898 C3910 1.349 . S
C3899 C3897 1.327 . S
C3899 C3915 1.429 . S
C3899 H3921 0.950 . S
C3900 H3896 0.949 . S
C3900 C3908 1.574 . S
C3900 C3916 1.368 . S
H3901 C3909 0.950 . S
H3902 C3907 0.950 . S
H3903 C3908 0.949 . S
H3904 C3910 0.950 . S
H3905 C3911 0.950 . S
H3906 C3912 0.949 . S
C3907 H3902 0.950 . S
C3907 C3909 1.327 . S
C3907 C3913 1.429 . S
C3908 C3900 1.574 . S
C3908 H3903 0.949 . S
C3908 C3914 1.368 . S
C3909 C3893 1.349 . S
C3909 H3901 0.950 . S
C3909 C3907 1.327 . S
C3910 C3898 1.349 . S
C3910 H3904 0.950 . S
C3910 C3911 1.327 . S
C3911 H3905 0.950 . S
C3911 C3910 1.327 . S
C3911 C3915 1.429 . S
C3912 C3895 1.574 . S
C3912 H3906 0.949 . S
C3912 C3916 1.368 . S
C3913 C3894 1.429 . S
C3913 C3907 1.429 . S
C3913 C3914 1.523 . S
C3914 C3895 1.368 . S
C3914 C3908 1.368 . S
C3914 C3913 1.523 . S
C3915 C3899 1.429 . S
C3915 C3911 1.429 . S
C3915 C3916 1.523 . S
C3916 C3900 1.368 . S
C3916 C3912 1.368 . S
C3916 C3915 1.523 . S
H3917 C3892 0.950 . S
H3918 C3894 0.950 . S
H3919 C3895 0.949 . S
H3920 C3897 0.950 . S
H3921 C3899 0.950 . S
C3922 C3923 1.349 . S
C3922 C3924 1.327 . S
C3922 H3947 0.950 . S
C3923 C3922 1.349 . S
C3923 C3939 1.349 . S
C3924 C3922 1.327 . S
C3924 C3943 1.429 . S
C3924 H3948 0.950 . S
C3925 C3942 1.574 . S
C3925 C3944 1.368 . S
C3925 H3949 0.949 . S
H3926 C3930 0.949 . S
C3927 C3928 1.349 . S
C3927 C3929 1.327 . S
C3927 H3950 0.950 . S
C3928 C3927 1.349 . S
C3928 C3940 1.349 . S
C3929 C3927 1.327 . S
C3929 C3945 1.429 . S
C3929 H3951 0.950 . S
C3930 H3926 0.949 . S
C3930 C3938 1.574 . S
C3930 C3946 1.368 . S
H3931 C3939 0.950 . S
H3932 C3937 0.950 . S
H3933 C3938 0.949 . S
H3934 C3940 0.950 . S
H3935 C3941 0.950 . S
H3936 C3942 0.949 . S
C3937 H3932 0.950 . S
C3937 C3939 1.327 . S
C3937 C3943 1.429 . S
C3938 C3930 1.574 . S
C3938 H3933 0.949 . S
C3938 C3944 1.368 . S
C3939 C3923 1.349 . S
C3939 H3931 0.950 . S
C3939 C3937 1.327 . S
C3940 C3928 1.349 . S
C3940 H3934 0.950 . S
C3940 C3941 1.327 . S
C3941 H3935 0.950 . S
C3941 C3940 1.327 . S
C3941 C3945 1.429 . S
C3942 C3925 1.574 . S
C3942 H3936 0.949 . S
C3942 C3946 1.368 . S
C3943 C3924 1.429 . S
C3943 C3937 1.429 . S
C3943 C3944 1.523 . S
C3944 C3925 1.368 . S
C3944 C3938 1.368 . S
C3944 C3943 1.523 . S
C3945 C3929 1.429 . S
C3945 C3941 1.429 . S
C3945 C3946 1.523 . S
C3946 C3930 1.368 . S
C3946 C3942 1.368 . S
C3946 C3945 1.523 . S
H3947 C3922 0.950 . S
H3948 C3924 0.950 . S
H3949 C3925 0.949 . S
H3950 C3927 0.950 . S
H3951 C3929 0.950 . S
C3952 C3953 1.313 1_556 S
C3952 C3954 1.327 . S
C3952 H3977 0.950 . S
C3953 C3952 1.313 1_554 S
C3953 C3969 1.375 . S
C3954 C3952 1.327 . S
C3954 C3973 1.429 . S
C3954 H3978 0.950 . S
C3955 C3972 1.574 . S
C3955 C3974 1.368 1_554 S
C3955 H3979 0.949 . S
H3956 C3960 0.949 . S
C3957 C3958 1.349 . S
C3957 C3959 1.325 . S
C3957 H3980 0.950 1_556 S
C3958 C3957 1.349 . S
C3958 C3970 1.349 . S
C3959 C3957 1.325 . S
C3959 C3975 1.425 . S
C3959 H3981 0.955 1_556 S
C3960 H3956 0.949 . S
C3960 C3968 1.574 . S
C3960 C3976 1.368 . S
H3961 C3969 0.950 . S
H3962 C3967 0.950 . S
H3963 C3968 0.949 . S
H3964 C3970 0.950 . S
H3965 C3971 0.950 . S
H3966 C3972 0.949 . S
C3967 H3962 0.950 . S
C3967 C3969 1.327 . S
C3967 C3973 1.429 1_554 S
C3968 C3960 1.574 . S
C3968 H3963 0.949 . S
C3968 C3974 1.368 . S
C3969 C3953 1.375 . S
C3969 H3961 0.950 . S
C3969 C3967 1.327 . S
C3970 C3958 1.349 . S
C3970 H3964 0.950 . S
C3970 C3971 1.327 . S
C3971 H3965 0.950 . S
C3971 C3970 1.327 . S
C3971 C3975 1.429 . S
C3972 C3955 1.574 . S
C3972 H3966 0.949 . S
C3972 C3976 1.368 1_554 S
C3973 C3954 1.429 . S
C3973 C3967 1.429 1_556 S
C3973 C3974 1.523 . S
C3974 C3955 1.368 1_556 S
C3974 C3968 1.368 . S
C3974 C3973 1.523 . S
C3975 C3959 1.425 . S
C3975 C3971 1.429 . S
C3975 C3976 1.523 . S
C3976 C3960 1.368 . S
C3976 C3972 1.368 1_556 S
C3976 C3975 1.523 . S
H3977 C3952 0.950 . S
H3978 C3954 0.950 . S
H3979 C3955 0.949 . S
H3980 C3957 0.950 1_554 S
H3981 C3959 0.955 1_554 S
C3982 C3983 1.349 . S
C3982 C3984 1.327 . S
C3982 H4007 0.950 . S
C3983 C3982 1.349 . S
C3983 C3999 1.349 . S
C3984 C3982 1.327 . S
C3984 C4003 1.429 . S
C3984 H4008 0.950 . S
C3985 C4002 1.574 . S
C3985 C4004 1.368 . S
C3985 H4009 0.949 . S
H3986 C3990 0.949 . S
C3987 C3988 1.349 . S
C3987 C3989 1.327 . S
C3987 H4010 0.950 . S
C3988 C3987 1.349 . S
C3988 C4000 1.349 . S
C3989 C3987 1.327 . S
C3989 C4005 1.429 . S
C3989 H4011 0.950 . S
C3990 H3986 0.949 . S
C3990 C3998 1.574 . S
C3990 C4006 1.368 . S
H3991 C3999 0.950 . S
H3992 C3997 0.950 . S
H3993 C3998 0.949 . S
H3994 C4000 0.950 . S
H3995 C4001 0.950 . S
H3996 C4002 0.949 . S
C3997 H3992 0.950 . S
C3997 C3999 1.327 . S
C3997 C4003 1.429 . S
C3998 C3990 1.574 . S
C3998 H3993 0.949 . S
C3998 C4004 1.368 . S
C3999 C3983 1.349 . S
C3999 H3991 0.950 . S
C3999 C3997 1.327 . S
C4000 C3988 1.349 . S
C4000 H3994 0.950 . S
C4000 C4001 1.327 . S
C4001 H3995 0.950 . S
C4001 C4000 1.327 . S
C4001 C4005 1.429 . S
C4002 C3985 1.574 . S
C4002 H3996 0.949 . S
C4002 C4006 1.368 . S
C4003 C3984 1.429 . S
C4003 C3997 1.429 . S
C4003 C4004 1.523 . S
C4004 C3985 1.368 . S
C4004 C3998 1.368 . S
C4004 C4003 1.523 . S
C4005 C3989 1.429 . S
C4005 C4001 1.429 . S
C4005 C4006 1.523 . S
C4006 C3990 1.368 . S
C4006 C4002 1.368 . S
C4006 C4005 1.523 . S
H4007 C3982 0.950 . S
H4008 C3984 0.950 . S
H4009 C3985 0.949 . S
H4010 C3987 0.950 . S
H4011 C3989 0.950 . S
C4012 C4013 1.349 . S
C4012 C4014 1.327 . S
C4012 H4037 0.950 . S
C4013 C4012 1.349 . S
C4013 C4029 1.349 . S
C4014 C4012 1.327 . S
C4014 C4033 1.429 . S
C4014 H4038 0.950 . S
C4015 C4032 1.574 . S
C4015 C4034 1.368 . S
C4015 H4039 0.949 . S
H4016 C4020 0.949 . S
C4017 C4018 1.349 . S
C4017 C4019 1.327 . S
C4017 H4040 0.950 . S
C4018 C4017 1.349 . S
C4018 C4030 1.349 . S
C4019 C4017 1.327 . S
C4019 C4035 1.429 . S
C4019 H4041 0.950 . S
C4020 H4016 0.949 . S
C4020 C4028 1.574 . S
C4020 C4036 1.368 . S
H4021 C4029 0.950 . S
H4022 C4027 0.950 . S
H4023 C4028 0.949 . S
H4024 C4030 0.950 . S
H4025 C4031 0.950 . S
H4026 C4032 0.949 . S
C4027 H4022 0.950 . S
C4027 C4029 1.327 . S
C4027 C4033 1.429 . S
C4028 C4020 1.574 . S
C4028 H4023 0.949 . S
C4028 C4034 1.368 . S
C4029 C4013 1.349 . S
C4029 H4021 0.950 . S
C4029 C4027 1.327 . S
C4030 C4018 1.349 . S
C4030 H4024 0.950 . S
C4030 C4031 1.327 . S
C4031 H4025 0.950 . S
C4031 C4030 1.327 . S
C4031 C4035 1.429 . S
C4032 C4015 1.574 . S
C4032 H4026 0.949 . S
C4032 C4036 1.368 . S
C4033 C4014 1.429 . S
C4033 C4027 1.429 . S
C4033 C4034 1.523 . S
C4034 C4015 1.368 . S
C4034 C4028 1.368 . S
C4034 C4033 1.523 . S
C4035 C4019 1.429 . S
C4035 C4031 1.429 . S
C4035 C4036 1.523 . S
C4036 C4020 1.368 . S
C4036 C4032 1.368 . S
C4036 C4035 1.523 . S
H4037 C4012 0.950 . S
H4038 C4014 0.950 . S
H4039 C4015 0.949 . S
H4040 C4017 0.950 . S
H4041 C4019 0.950 . S
C4042 C4043 1.349 . S
C4042 C4044 1.327 . S
C4042 H4067 0.950 . S
C4043 C4042 1.349 . S
C4043 C4059 1.349 . S
C4044 C4042 1.327 . S
C4044 C4063 1.429 . S
C4044 H4068 0.950 . S
C4045 C4062 1.574 . S
C4045 C4064 1.368 . S
C4045 H4069 0.949 . S
H4046 C4050 0.949 . S
C4047 C4048 1.349 . S
C4047 C4049 1.327 . S
C4047 H4070 0.950 . S
C4048 C4047 1.349 . S
C4048 C4060 1.349 . S
C4049 C4047 1.327 . S
C4049 C4065 1.429 . S
C4049 H4071 0.950 . S
C4050 H4046 0.949 . S
C4050 C4058 1.574 . S
C4050 C4066 1.368 . S
H4051 C4059 0.950 . S
H4052 C4057 0.950 . S
H4053 C4058 0.949 . S
H4054 C4060 0.950 . S
H4055 C4061 0.950 . S
H4056 C4062 0.949 . S
C4057 H4052 0.950 . S
C4057 C4059 1.327 . S
C4057 C4063 1.429 . S
C4058 C4050 1.574 . S
C4058 H4053 0.949 . S
C4058 C4064 1.368 . S
C4059 C4043 1.349 . S
C4059 H4051 0.950 . S
C4059 C4057 1.327 . S
C4060 C4048 1.349 . S
C4060 H4054 0.950 . S
C4060 C4061 1.327 . S
C4061 H4055 0.950 . S
C4061 C4060 1.327 . S
C4061 C4065 1.429 . S
C4062 C4045 1.574 . S
C4062 H4056 0.949 . S
C4062 C4066 1.368 . S
C4063 C4044 1.429 . S
C4063 C4057 1.429 . S
C4063 C4064 1.523 . S
C4064 C4045 1.368 . S
C4064 C4058 1.368 . S
C4064 C4063 1.523 . S
C4065 C4049 1.429 . S
C4065 C4061 1.429 . S
C4065 C4066 1.523 . S
C4066 C4050 1.368 . S
C4066 C4062 1.368 . S
C4066 C4065 1.523 . S
H4067 C4042 0.950 . S
H4068 C4044 0.950 . S
H4069 C4045 0.949 . S
H4070 C4047 0.950 . S
H4071 C4049 0.950 . S
C4072 C4073 1.349 . S
C4072 C4074 1.327 . S
C4072 H4097 0.950 . S
C4073 C4072 1.349 . S
C4073 C4089 1.349 . S
C4074 C4072 1.327 . S
C4074 C4093 1.429 . S
C4074 H4098 0.950 . S
C4075 C4092 1.574 . S
C4075 C4094 1.368 . S
C4075 H4099 0.949 . S
H4076 C4080 0.949 . S
C4077 C4078 1.349 . S
C4077 C4079 1.327 . S
C4077 H4100 0.950 . S
C4078 C4077 1.349 . S
C4078 C4090 1.349 . S
C4079 C4077 1.327 . S
C4079 C4095 1.429 . S
C4079 H4101 0.950 . S
C4080 H4076 0.949 . S
C4080 C4088 1.574 . S
C4080 C4096 1.368 . S
H4081 C4089 0.950 . S
H4082 C4087 0.950 . S
H4083 C4088 0.949 . S
H4084 C4090 0.950 . S
H4085 C4091 0.950 . S
H4086 C4092 0.949 . S
C4087 H4082 0.950 . S
C4087 C4089 1.327 . S
C4087 C4093 1.429 . S
C4088 C4080 1.574 . S
C4088 H4083 0.949 . S
C4088 C4094 1.368 . S
C4089 C4073 1.349 . S
C4089 H4081 0.950 . S
C4089 C4087 1.327 . S
C4090 C4078 1.349 . S
C4090 H4084 0.950 . S
C4090 C4091 1.327 . S
C4091 H4085 0.950 . S
C4091 C4090 1.327 . S
C4091 C4095 1.429 . S
C4092 C4075 1.574 . S
C4092 H4086 0.949 . S
C4092 C4096 1.368 . S
C4093 C4074 1.429 . S
C4093 C4087 1.429 . S
C4093 C4094 1.523 . S
C4094 C4075 1.368 . S
C4094 C4088 1.368 . S
C4094 C4093 1.523 . S
C4095 C4079 1.429 . S
C4095 C4091 1.429 . S
C4095 C4096 1.523 . S
C4096 C4080 1.368 . S
C4096 C4092 1.368 . S
C4096 C4095 1.523 . S
H4097 C4072 0.950 . S
H4098 C4074 0.950 . S
H4099 C4075 0.949 . S
H4100 C4077 0.950 . S
H4101 C4079 0.950 . S
C4102 C4103 1.349 . S
C4102 C4104 1.327 . S
C4102 H4127 0.950 . S
C4103 C4102 1.349 . S
C4103 C4119 1.349 . S
C4104 C4102 1.327 . S
C4104 C4123 1.429 . S
C4104 H4128 0.950 . S
C4105 C4122 1.574 . S
C4105 C4124 1.368 . S
C4105 H4129 0.949 . S
H4106 C4110 0.949 1_545 S
C4107 C4108 1.349 1_565 S
C4107 C4109 1.327 . S
C4107 H4130 0.950 . S
C4108 C4107 1.349 1_545 S
C4108 C4120 1.349 . S
C4109 C4107 1.327 . S
C4109 C4125 1.429 . S
C4109 H4131 0.950 . S
C4110 H4106 0.949 1_565 S
C4110 C4118 1.574 . S
C4110 C4126 1.368 . S
H4111 C4119 0.950 . S
H4112 C4117 0.950 . S
H4113 C4118 0.949 . S
H4114 C4120 0.950 . S
H4115 C4121 0.950 . S
H4116 C4122 0.949 . S
C4117 H4112 0.950 . S
C4117 C4119 1.327 . S
C4117 C4123 1.429 . S
C4118 C4110 1.574 . S
C4118 H4113 0.949 . S
C4118 C4124 1.368 . S
C4119 C4103 1.349 . S
C4119 H4111 0.950 . S
C4119 C4117 1.327 . S
C4120 C4108 1.349 . S
C4120 H4114 0.950 . S
C4120 C4121 1.327 . S
C4121 H4115 0.950 . S
C4121 C4120 1.327 . S
C4121 C4125 1.429 1_545 S
C4122 C4105 1.574 . S
C4122 H4116 0.949 . S
C4122 C4126 1.368 . S
C4123 C4104 1.429 . S
C4123 C4117 1.429 . S
C4123 C4124 1.523 . S
C4124 C4105 1.368 . S
C4124 C4118 1.368 . S
C4124 C4123 1.523 . S
C4125 C4109 1.429 . S
C4125 C4121 1.429 1_565 S
C4125 C4126 1.523 . S
C4126 C4110 1.368 . S
C4126 C4122 1.368 . S
C4126 C4125 1.523 . S
H4127 C4102 0.950 . S
H4128 C4104 0.950 . S
H4129 C4105 0.949 . S
H4130 C4107 0.950 . S
H4131 C4109 0.950 . S
C4132 C4133 1.349 . S
C4132 C4134 1.327 . S
C4132 H4157 0.950 . S
C4133 C4132 1.349 . S
C4133 C4149 1.349 . S
C4134 C4132 1.327 . S
C4134 C4153 1.429 . S
C4134 H4158 0.950 . S
C4135 C4152 1.574 . S
C4135 C4154 1.368 . S
C4135 H4159 0.949 . S
H4136 C4140 0.949 . S
C4137 C4138 1.349 . S
C4137 C4139 1.327 . S
C4137 H4160 0.950 . S
C4138 C4137 1.349 . S
C4138 C4150 1.349 . S
C4139 C4137 1.327 . S
C4139 C4155 1.429 . S
C4139 H4161 0.950 . S
C4140 H4136 0.949 . S
C4140 C4148 1.574 . S
C4140 C4156 1.368 . S
H4141 C4149 0.950 . S
H4142 C4147 0.950 . S
H4143 C4148 0.949 . S
H4144 C4150 0.950 . S
H4145 C4151 0.950 . S
H4146 C4152 0.949 . S
C4147 H4142 0.950 . S
C4147 C4149 1.327 . S
C4147 C4153 1.429 . S
C4148 C4140 1.574 . S
C4148 H4143 0.949 . S
C4148 C4154 1.368 . S
C4149 C4133 1.349 . S
C4149 H4141 0.950 . S
C4149 C4147 1.327 . S
C4150 C4138 1.349 . S
C4150 H4144 0.950 . S
C4150 C4151 1.327 . S
C4151 H4145 0.950 . S
C4151 C4150 1.327 . S
C4151 C4155 1.429 . S
C4152 C4135 1.574 . S
C4152 H4146 0.949 . S
C4152 C4156 1.368 . S
C4153 C4134 1.429 . S
C4153 C4147 1.429 . S
C4153 C4154 1.523 . S
C4154 C4135 1.368 . S
C4154 C4148 1.368 . S
C4154 C4153 1.523 . S
C4155 C4139 1.429 . S
C4155 C4151 1.429 . S
C4155 C4156 1.523 . S
C4156 C4140 1.368 . S
C4156 C4152 1.368 . S
C4156 C4155 1.523 . S
H4157 C4132 0.950 . S
H4158 C4134 0.950 . S
H4159 C4135 0.949 . S
H4160 C4137 0.950 . S
H4161 C4139 0.950 . S
C4162 C4163 1.349 . S
C4162 C4164 1.327 . S
C4162 H4187 0.950 . S
C4163 C4162 1.349 . S
C4163 C4179 1.349 . S
C4164 C4162 1.327 . S
C4164 C4183 1.429 . S
C4164 H4188 0.950 . S
C4165 C4182 1.574 . S
C4165 C4184 1.368 . S
C4165 H4189 0.949 . S
H4166 C4170 0.949 . S
C4167 C4168 1.349 . S
C4167 C4169 1.327 . S
C4167 H4190 0.950 . S
C4168 C4167 1.349 . S
C4168 C4180 1.349 . S
C4169 C4167 1.327 . S
C4169 C4185 1.429 . S
C4169 H4191 0.950 . S
C4170 H4166 0.949 . S
C4170 C4178 1.574 . S
C4170 C4186 1.368 . S
H4171 C4179 0.950 . S
H4172 C4177 0.950 . S
H4173 C4178 0.949 . S
H4174 C4180 0.950 . S
H4175 C4181 0.950 . S
H4176 C4182 0.949 . S
C4177 H4172 0.950 . S
C4177 C4179 1.327 . S
C4177 C4183 1.429 . S
C4178 C4170 1.574 . S
C4178 H4173 0.949 . S
C4178 C4184 1.368 . S
C4179 C4163 1.349 . S
C4179 H4171 0.950 . S
C4179 C4177 1.327 . S
C4180 C4168 1.349 . S
C4180 H4174 0.950 . S
C4180 C4181 1.327 . S
C4181 H4175 0.950 . S
C4181 C4180 1.327 . S
C4181 C4185 1.429 . S
C4182 C4165 1.574 . S
C4182 H4176 0.949 . S
C4182 C4186 1.368 . S
C4183 C4164 1.429 . S
C4183 C4177 1.429 . S
C4183 C4184 1.523 . S
C4184 C4165 1.368 . S
C4184 C4178 1.368 . S
C4184 C4183 1.523 . S
C4185 C4169 1.429 . S
C4185 C4181 1.429 . S
C4185 C4186 1.523 . S
C4186 C4170 1.368 . S
C4186 C4182 1.368 . S
C4186 C4185 1.523 . S
H4187 C4162 0.950 . S
H4188 C4164 0.950 . S
H4189 C4165 0.949 . S
H4190 C4167 0.950 . S
H4191 C4169 0.950 . S
C4192 C4193 1.349 . S
C4192 C4194 1.327 . S
C4192 H4217 0.950 . S
C4193 C4192 1.349 . S
C4193 C4209 1.349 . S
C4194 C4192 1.327 . S
C4194 C4213 1.429 . S
C4194 H4218 0.950 . S
C4195 C4212 1.574 . S
C4195 C4214 1.368 . S
C4195 H4219 0.949 . S
H4196 C4200 0.949 . S
C4197 C4198 1.349 . S
C4197 C4199 1.327 . S
C4197 H4220 0.950 . S
C4198 C4197 1.349 . S
C4198 C4210 1.349 . S
C4199 C4197 1.327 . S
C4199 C4215 1.429 . S
C4199 H4221 0.950 . S
C4200 H4196 0.949 . S
C4200 C4208 1.574 . S
C4200 C4216 1.368 . S
H4201 C4209 0.950 . S
H4202 C4207 0.950 . S
H4203 C4208 0.949 . S
H4204 C4210 0.950 . S
H4205 C4211 0.950 . S
H4206 C4212 0.949 . S
C4207 H4202 0.950 . S
C4207 C4209 1.327 . S
C4207 C4213 1.429 . S
C4208 C4200 1.574 . S
C4208 H4203 0.949 . S
C4208 C4214 1.368 . S
C4209 C4193 1.349 . S
C4209 H4201 0.950 . S
C4209 C4207 1.327 . S
C4210 C4198 1.349 . S
C4210 H4204 0.950 . S
C4210 C4211 1.327 . S
C4211 H4205 0.950 . S
C4211 C4210 1.327 . S
C4211 C4215 1.429 . S
C4212 C4195 1.574 . S
C4212 H4206 0.949 . S
C4212 C4216 1.368 . S
C4213 C4194 1.429 . S
C4213 C4207 1.429 . S
C4213 C4214 1.523 . S
C4214 C4195 1.368 . S
C4214 C4208 1.368 . S
C4214 C4213 1.523 . S
C4215 C4199 1.429 . S
C4215 C4211 1.429 . S
C4215 C4216 1.523 . S
C4216 C4200 1.368 . S
C4216 C4212 1.368 . S
C4216 C4215 1.523 . S
H4217 C4192 0.950 . S
H4218 C4194 0.950 . S
H4219 C4195 0.949 . S
H4220 C4197 0.950 . S
H4221 C4199 0.950 . S
C4222 C4223 1.349 . S
C4222 C4224 1.327 . S
C4222 H4247 0.950 . S
C4223 C4222 1.349 . S
C4223 C4239 1.349 . S
C4224 C4222 1.327 . S
C4224 C4243 1.429 . S
C4224 H4248 0.950 . S
C4225 C4242 1.574 . S
C4225 C4244 1.368 . S
C4225 H4249 0.949 . S
H4226 C4230 0.949 . S
C4227 C4228 1.349 . S
C4227 C4229 1.327 . S
C4227 H4250 0.950 . S
C4228 C4227 1.349 . S
C4228 C4240 1.349 . S
C4229 C4227 1.327 . S
C4229 C4245 1.429 . S
C4229 H4251 0.950 . S
C4230 H4226 0.949 . S
C4230 C4238 1.574 . S
C4230 C4246 1.368 . S
H4231 C4239 0.950 . S
H4232 C4237 0.950 . S
H4233 C4238 0.949 . S
H4234 C4240 0.950 . S
H4235 C4241 0.950 . S
H4236 C4242 0.949 . S
C4237 H4232 0.950 . S
C4237 C4239 1.327 . S
C4237 C4243 1.429 . S
C4238 C4230 1.574 . S
C4238 H4233 0.949 . S
C4238 C4244 1.368 . S
C4239 C4223 1.349 . S
C4239 H4231 0.950 . S
C4239 C4237 1.327 . S
C4240 C4228 1.349 . S
C4240 H4234 0.950 . S
C4240 C4241 1.327 . S
C4241 H4235 0.950 . S
C4241 C4240 1.327 . S
C4241 C4245 1.429 . S
C4242 C4225 1.574 . S
C4242 H4236 0.949 . S
C4242 C4246 1.368 . S
C4243 C4224 1.429 . S
C4243 C4237 1.429 . S
C4243 C4244 1.523 . S
C4244 C4225 1.368 . S
C4244 C4238 1.368 . S
C4244 C4243 1.523 . S
C4245 C4229 1.429 . S
C4245 C4241 1.429 . S
C4245 C4246 1.523 . S
C4246 C4230 1.368 . S
C4246 C4242 1.368 . S
C4246 C4245 1.523 . S
H4247 C4222 0.950 . S
H4248 C4224 0.950 . S
H4249 C4225 0.949 . S
H4250 C4227 0.950 . S
H4251 C4229 0.950 . S
C4252 C4253 1.349 . S
C4252 C4254 1.327 . S
C4252 H4277 0.950 . S
C4253 C4252 1.349 . S
C4253 C4269 1.349 . S
C4254 C4252 1.327 . S
C4254 C4273 1.429 . S
C4254 H4278 0.950 . S
C4255 C4272 1.574 . S
C4255 C4274 1.368 1_554 S
C4255 H4279 0.949 . S
H4256 C4260 0.949 . S
C4257 C4258 1.349 . S
C4257 C4259 1.327 . S
C4257 H4280 0.950 . S
C4258 C4257 1.349 . S
C4258 C4270 1.349 1_554 S
C4259 C4257 1.327 . S
C4259 C4275 1.429 . S
C4259 H4281 0.950 . S
C4260 H4256 0.949 . S
C4260 C4268 1.574 . S
C4260 C4276 1.368 . S
H4261 C4269 0.950 . S
H4262 C4267 0.950 1_554 S
H4263 C4268 0.949 . S
H4264 C4270 0.950 . S
H4265 C4271 0.950 . S
H4266 C4272 0.949 . S
C4267 H4262 0.950 1_556 S
C4267 C4269 1.327 . S
C4267 C4273 1.429 . S
C4268 C4260 1.574 . S
C4268 H4263 0.949 . S
C4268 C4274 1.368 . S
C4269 C4253 1.349 . S
C4269 H4261 0.950 . S
C4269 C4267 1.327 . S
C4270 C4258 1.349 1_556 S
C4270 H4264 0.950 . S
C4270 C4271 1.327 . S
C4271 H4265 0.950 . S
C4271 C4270 1.327 . S
C4271 C4275 1.429 1_556 S
C4272 C4255 1.574 . S
C4272 H4266 0.949 . S
C4272 C4276 1.368 1_554 S
C4273 C4254 1.429 . S
C4273 C4267 1.429 . S
C4273 C4274 1.523 . S
C4274 C4255 1.368 1_556 S
C4274 C4268 1.368 . S
C4274 C4273 1.523 . S
C4275 C4259 1.429 . S
C4275 C4271 1.429 1_554 S
C4275 C4276 1.523 1_554 S
C4276 C4260 1.368 . S
C4276 C4272 1.368 1_556 S
C4276 C4275 1.523 1_556 S
H4277 C4252 0.950 . S
H4278 C4254 0.950 . S
H4279 C4255 0.949 . S
H4280 C4257 0.950 . S
H4281 C4259 0.950 . S
C4282 C4283 1.349 . S
C4282 C4284 1.327 . S
C4282 H4307 0.950 . S
C4283 C4282 1.349 . S
C4283 C4299 1.349 . S
C4284 C4282 1.327 . S
C4284 C4303 1.429 . S
C4284 H4308 0.950 . S
C4285 C4302 1.574 . S
C4285 C4304 1.368 . S
C4285 H4309 0.949 . S
H4286 C4290 0.949 . S
C4287 C4288 1.349 . S
C4287 C4289 1.327 . S
C4287 H4310 0.950 . S
C4288 C4287 1.349 . S
C4288 C4300 1.349 . S
C4289 C4287 1.327 . S
C4289 C4305 1.429 . S
C4289 H4311 0.950 . S
C4290 H4286 0.949 . S
C4290 C4298 1.574 . S
C4290 C4306 1.368 . S
H4291 C4299 0.950 . S
H4292 C4297 0.950 . S
H4293 C4298 0.949 . S
H4294 C4300 0.950 . S
H4295 C4301 0.950 . S
H4296 C4302 0.949 . S
C4297 H4292 0.950 . S
C4297 C4299 1.327 . S
C4297 C4303 1.429 . S
C4298 C4290 1.574 . S
C4298 H4293 0.949 . S
C4298 C4304 1.368 . S
C4299 C4283 1.349 . S
C4299 H4291 0.950 . S
C4299 C4297 1.327 . S
C4300 C4288 1.349 . S
C4300 H4294 0.950 . S
C4300 C4301 1.327 . S
C4301 H4295 0.950 . S
C4301 C4300 1.327 . S
C4301 C4305 1.429 . S
C4302 C4285 1.574 . S
C4302 H4296 0.949 . S
C4302 C4306 1.368 . S
C4303 C4284 1.429 . S
C4303 C4297 1.429 . S
C4303 C4304 1.523 . S
C4304 C4285 1.368 . S
C4304 C4298 1.368 . S
C4304 C4303 1.523 . S
C4305 C4289 1.429 . S
C4305 C4301 1.429 . S
C4305 C4306 1.523 . S
C4306 C4290 1.368 . S
C4306 C4302 1.368 . S
C4306 C4305 1.523 . S
H4307 C4282 0.950 . S
H4308 C4284 0.950 . S
H4309 C4285 0.949 . S
H4310 C4287 0.950 . S
H4311 C4289 0.950 . S
C4312 C4313 1.349 . S
C4312 C4314 1.327 . S
C4312 H4337 0.950 . S
C4313 C4312 1.349 . S
C4313 C4329 1.349 . S
C4314 C4312 1.327 . S
C4314 C4333 1.429 . S
C4314 H4338 0.950 . S
C4315 C4332 1.574 . S
C4315 C4334 1.368 . S
C4315 H4339 0.949 . S
H4316 C4320 0.949 . S
C4317 C4318 1.349 . S
C4317 C4319 1.327 . S
C4317 H4340 0.950 . S
C4318 C4317 1.349 . S
C4318 C4330 1.349 . S
C4319 C4317 1.327 . S
C4319 C4335 1.429 . S
C4319 H4341 0.950 . S
C4320 H4316 0.949 . S
C4320 C4328 1.574 . S
C4320 C4336 1.368 . S
H4321 C4329 0.950 . S
H4322 C4327 0.950 . S
H4323 C4328 0.949 . S
H4324 C4330 0.950 . S
H4325 C4331 0.950 . S
H4326 C4332 0.949 . S
C4327 H4322 0.950 . S
C4327 C4329 1.327 . S
C4327 C4333 1.429 . S
C4328 C4320 1.574 . S
C4328 H4323 0.949 . S
C4328 C4334 1.368 . S
C4329 C4313 1.349 . S
C4329 H4321 0.950 . S
C4329 C4327 1.327 . S
C4330 C4318 1.349 . S
C4330 H4324 0.950 . S
C4330 C4331 1.327 . S
C4331 H4325 0.950 . S
C4331 C4330 1.327 . S
C4331 C4335 1.429 . S
C4332 C4315 1.574 . S
C4332 H4326 0.949 . S
C4332 C4336 1.368 . S
C4333 C4314 1.429 . S
C4333 C4327 1.429 . S
C4333 C4334 1.523 . S
C4334 C4315 1.368 . S
C4334 C4328 1.368 . S
C4334 C4333 1.523 . S
C4335 C4319 1.429 . S
C4335 C4331 1.429 . S
C4335 C4336 1.523 . S
C4336 C4320 1.368 . S
C4336 C4332 1.368 . S
C4336 C4335 1.523 . S
H4337 C4312 0.950 . S
H4338 C4314 0.950 . S
H4339 C4315 0.949 . S
H4340 C4317 0.950 . S
H4341 C4319 0.950 . S
C4342 C4343 1.349 . S
C4342 C4344 1.327 . S
C4342 H4367 0.950 . S
C4343 C4342 1.349 . S
C4343 C4359 1.349 . S
C4344 C4342 1.327 . S
C4344 C4363 1.429 . S
C4344 H4368 0.950 . S
C4345 C4362 1.574 . S
C4345 C4364 1.368 . S
C4345 H4369 0.949 . S
H4346 C4350 0.949 . S
C4347 C4348 1.349 . S
C4347 C4349 1.327 . S
C4347 H4370 0.950 . S
C4348 C4347 1.349 . S
C4348 C4360 1.349 . S
C4349 C4347 1.327 . S
C4349 C4365 1.429 . S
C4349 H4371 0.950 . S
C4350 H4346 0.949 . S
C4350 C4358 1.574 . S
C4350 C4366 1.368 . S
H4351 C4359 0.950 . S
H4352 C4357 0.950 . S
H4353 C4358 0.949 . S
H4354 C4360 0.950 . S
H4355 C4361 0.950 . S
H4356 C4362 0.949 . S
C4357 H4352 0.950 . S
C4357 C4359 1.327 . S
C4357 C4363 1.429 . S
C4358 C4350 1.574 . S
C4358 H4353 0.949 . S
C4358 C4364 1.368 . S
C4359 C4343 1.349 . S
C4359 H4351 0.950 . S
C4359 C4357 1.327 . S
C4360 C4348 1.349 . S
C4360 H4354 0.950 . S
C4360 C4361 1.327 . S
C4361 H4355 0.950 . S
C4361 C4360 1.327 . S
C4361 C4365 1.429 . S
C4362 C4345 1.574 . S
C4362 H4356 0.949 . S
C4362 C4366 1.368 . S
C4363 C4344 1.429 . S
C4363 C4357 1.429 . S
C4363 C4364 1.523 . S
C4364 C4345 1.368 . S
C4364 C4358 1.368 . S
C4364 C4363 1.523 . S
C4365 C4349 1.429 . S
C4365 C4361 1.429 . S
C4365 C4366 1.523 . S
C4366 C4350 1.368 . S
C4366 C4362 1.368 . S
C4366 C4365 1.523 . S
H4367 C4342 0.950 . S
H4368 C4344 0.950 . S
H4369 C4345 0.949 . S
H4370 C4347 0.950 . S
H4371 C4349 0.950 . S
C4372 C4373 1.349 . S
C4372 C4374 1.327 . S
C4372 H4397 0.950 . S
C4373 C4372 1.349 . S
C4373 C4389 1.349 . S
C4374 C4372 1.327 . S
C4374 C4393 1.429 . S
C4374 H4398 0.950 . S
C4375 C4392 1.574 . S
C4375 C4394 1.368 . S
C4375 H4399 0.949 . S
H4376 C4380 0.949 . S
C4377 C4378 1.349 . S
C4377 C4379 1.327 . S
C4377 H4400 0.950 . S
C4378 C4377 1.349 . S
C4378 C4390 1.349 . S
C4379 C4377 1.327 . S
C4379 C4395 1.429 . S
C4379 H4401 0.950 . S
C4380 H4376 0.949 . S
C4380 C4388 1.574 . S
C4380 C4396 1.368 . S
H4381 C4389 0.950 . S
H4382 C4387 0.950 . S
H4383 C4388 0.949 . S
H4384 C4390 0.950 . S
H4385 C4391 0.950 . S
H4386 C4392 0.949 . S
C4387 H4382 0.950 . S
C4387 C4389 1.327 . S
C4387 C4393 1.429 . S
C4388 C4380 1.574 . S
C4388 H4383 0.949 . S
C4388 C4394 1.368 . S
C4389 C4373 1.349 . S
C4389 H4381 0.950 . S
C4389 C4387 1.327 . S
C4390 C4378 1.349 . S
C4390 H4384 0.950 . S
C4390 C4391 1.327 . S
C4391 H4385 0.950 . S
C4391 C4390 1.327 . S
C4391 C4395 1.429 . S
C4392 C4375 1.574 . S
C4392 H4386 0.949 . S
C4392 C4396 1.368 . S
C4393 C4374 1.429 . S
C4393 C4387 1.429 . S
C4393 C4394 1.523 . S
C4394 C4375 1.368 . S
C4394 C4388 1.368 . S
C4394 C4393 1.523 . S
C4395 C4379 1.429 . S
C4395 C4391 1.429 . S
C4395 C4396 1.523 . S
C4396 C4380 1.368 . S
C4396 C4392 1.368 . S
C4396 C4395 1.523 . S
H4397 C4372 0.950 . S
H4398 C4374 0.950 . S
H4399 C4375 0.949 . S
H4400 C4377 0.950 . S
H4401 C4379 0.950 . S
C4402 C4403 1.349 . S
C4402 C4404 1.327 . S
C4402 H4427 0.950 . S
C4403 C4402 1.349 . S
C4403 C4419 1.349 . S
C4404 C4402 1.327 . S
C4404 C4423 1.429 . S
C4404 H4428 0.950 . S
C4405 C4422 1.574 . S
C4405 C4424 1.368 . S
C4405 H4429 0.949 . S
H4406 C4410 0.949 . S
C4407 C4408 1.349 . S
C4407 C4409 1.327 . S
C4407 H4430 0.950 . S
C4408 C4407 1.349 . S
C4408 C4420 1.349 . S
C4409 C4407 1.327 . S
C4409 C4425 1.429 . S
C4409 H4431 0.950 . S
C4410 H4406 0.949 . S
C4410 C4418 1.574 . S
C4410 C4426 1.368 . S
H4411 C4419 0.950 . S
H4412 C4417 0.950 . S
H4413 C4418 0.949 . S
H4414 C4420 0.950 . S
H4415 C4421 0.950 . S
H4416 C4422 0.949 . S
C4417 H4412 0.950 . S
C4417 C4419 1.327 . S
C4417 C4423 1.429 . S
C4418 C4410 1.574 . S
C4418 H4413 0.949 . S
C4418 C4424 1.368 . S
C4419 C4403 1.349 . S
C4419 H4411 0.950 . S
C4419 C4417 1.327 . S
C4420 C4408 1.349 . S
C4420 H4414 0.950 . S
C4420 C4421 1.327 . S
C4421 H4415 0.950 . S
C4421 C4420 1.327 . S
C4421 C4425 1.429 . S
C4422 C4405 1.574 . S
C4422 H4416 0.949 . S
C4422 C4426 1.368 . S
C4423 C4404 1.429 . S
C4423 C4417 1.429 . S
C4423 C4424 1.523 . S
C4424 C4405 1.368 . S
C4424 C4418 1.368 . S
C4424 C4423 1.523 . S
C4425 C4409 1.429 . S
C4425 C4421 1.429 . S
C4425 C4426 1.523 . S
C4426 C4410 1.368 . S
C4426 C4422 1.368 . S
C4426 C4425 1.523 . S
H4427 C4402 0.950 . S
H4428 C4404 0.950 . S
H4429 C4405 0.949 . S
H4430 C4407 0.950 . S
H4431 C4409 0.950 . S
C4432 C4433 1.349 . S
C4432 C4434 1.327 . S
C4432 H4457 0.950 . S
C4433 C4432 1.349 . S
C4433 C4449 1.349 . S
C4434 C4432 1.327 . S
C4434 C4453 1.429 . S
C4434 H4458 0.950 . S
C4435 C4452 1.574 . S
C4435 C4454 1.368 . S
C4435 H4459 0.949 . S
H4436 C4440 0.949 . S
C4437 C4438 1.349 . S
C4437 C4439 1.327 . S
C4437 H4460 0.950 . S
C4438 C4437 1.349 . S
C4438 C4450 1.349 . S
C4439 C4437 1.327 . S
C4439 C4455 1.429 . S
C4439 H4461 0.950 . S
C4440 H4436 0.949 . S
C4440 C4448 1.574 . S
C4440 C4456 1.368 . S
H4441 C4449 0.950 . S
H4442 C4447 0.950 . S
H4443 C4448 0.949 . S
H4444 C4450 0.950 . S
H4445 C4451 0.950 . S
H4446 C4452 0.949 . S
C4447 H4442 0.950 . S
C4447 C4449 1.327 . S
C4447 C4453 1.429 . S
C4448 C4440 1.574 . S
C4448 H4443 0.949 . S
C4448 C4454 1.368 . S
C4449 C4433 1.349 . S
C4449 H4441 0.950 . S
C4449 C4447 1.327 . S
C4450 C4438 1.349 . S
C4450 H4444 0.950 . S
C4450 C4451 1.327 . S
C4451 H4445 0.950 . S
C4451 C4450 1.327 . S
C4451 C4455 1.429 . S
C4452 C4435 1.574 . S
C4452 H4446 0.949 . S
C4452 C4456 1.368 . S
C4453 C4434 1.429 . S
C4453 C4447 1.429 . S
C4453 C4454 1.523 . S
C4454 C4435 1.368 . S
C4454 C4448 1.368 . S
C4454 C4453 1.523 . S
C4455 C4439 1.429 . S
C4455 C4451 1.429 . S
C4455 C4456 1.523 . S
C4456 C4440 1.368 . S
C4456 C4452 1.368 . S
C4456 C4455 1.523 . S
H4457 C4432 0.950 . S
H4458 C4434 0.950 . S
H4459 C4435 0.949 . S
H4460 C4437 0.950 . S
H4461 C4439 0.950 . S
C4462 C4463 1.349 . S
C4462 C4464 1.327 . S
C4462 H4487 0.950 . S
C4463 C4462 1.349 . S
C4463 C4479 1.349 . S
C4464 C4462 1.327 . S
C4464 C4483 1.429 . S
C4464 H4488 0.950 . S
C4465 C4482 1.574 . S
C4465 C4484 1.368 . S
C4465 H4489 0.949 . S
H4466 C4470 0.949 . S
C4467 C4468 1.349 . S
C4467 C4469 1.327 . S
C4467 H4490 0.950 . S
C4468 C4467 1.349 . S
C4468 C4480 1.349 . S
C4469 C4467 1.327 . S
C4469 C4485 1.429 . S
C4469 H4491 0.950 . S
C4470 H4466 0.949 . S
C4470 C4478 1.574 . S
C4470 C4486 1.368 . S
H4471 C4479 0.950 . S
H4472 C4477 0.950 . S
H4473 C4478 0.949 . S
H4474 C4480 0.950 . S
H4475 C4481 0.950 . S
H4476 C4482 0.949 . S
C4477 H4472 0.950 . S
C4477 C4479 1.327 . S
C4477 C4483 1.429 . S
C4478 C4470 1.574 . S
C4478 H4473 0.949 . S
C4478 C4484 1.368 . S
C4479 C4463 1.349 . S
C4479 H4471 0.950 . S
C4479 C4477 1.327 . S
C4480 C4468 1.349 . S
C4480 H4474 0.950 . S
C4480 C4481 1.327 . S
C4481 H4475 0.950 . S
C4481 C4480 1.327 . S
C4481 C4485 1.429 . S
C4482 C4465 1.574 . S
C4482 H4476 0.949 . S
C4482 C4486 1.368 . S
C4483 C4464 1.429 . S
C4483 C4477 1.429 . S
C4483 C4484 1.523 . S
C4484 C4465 1.368 . S
C4484 C4478 1.368 . S
C4484 C4483 1.523 . S
C4485 C4469 1.429 . S
C4485 C4481 1.429 . S
C4485 C4486 1.523 . S
C4486 C4470 1.368 . S
C4486 C4482 1.368 . S
C4486 C4485 1.523 . S
H4487 C4462 0.950 . S
H4488 C4464 0.950 . S
H4489 C4465 0.949 . S
H4490 C4467 0.950 . S
H4491 C4469 0.950 . S
C4492 C4493 1.349 . S
C4492 C4494 1.327 . S
C4492 H4517 0.950 . S
C4493 C4492 1.349 . S
C4493 C4509 1.349 . S
C4494 C4492 1.327 . S
C4494 C4513 1.429 . S
C4494 H4518 0.950 . S
C4495 C4512 1.574 . S
C4495 C4514 1.368 . S
C4495 H4519 0.949 . S
H4496 C4500 0.949 . S
C4497 C4498 1.349 . S
C4497 C4499 1.327 . S
C4497 H4520 0.950 . S
C4498 C4497 1.349 . S
C4498 C4510 1.349 . S
C4499 C4497 1.327 . S
C4499 C4515 1.429 . S
C4499 H4521 0.950 . S
C4500 H4496 0.949 . S
C4500 C4508 1.574 . S
C4500 C4516 1.368 . S
H4501 C4509 0.950 . S
H4502 C4507 0.950 . S
H4503 C4508 0.949 . S
H4504 C4510 0.950 . S
H4505 C4511 0.950 . S
H4506 C4512 0.949 . S
C4507 H4502 0.950 . S
C4507 C4509 1.327 . S
C4507 C4513 1.429 . S
C4508 C4500 1.574 . S
C4508 H4503 0.949 . S
C4508 C4514 1.368 . S
C4509 C4493 1.349 . S
C4509 H4501 0.950 . S
C4509 C4507 1.327 . S
C4510 C4498 1.349 . S
C4510 H4504 0.950 . S
C4510 C4511 1.327 . S
C4511 H4505 0.950 . S
C4511 C4510 1.327 . S
C4511 C4515 1.429 . S
C4512 C4495 1.574 . S
C4512 H4506 0.949 . S
C4512 C4516 1.368 . S
C4513 C4494 1.429 . S
C4513 C4507 1.429 . S
C4513 C4514 1.523 . S
C4514 C4495 1.368 . S
C4514 C4508 1.368 . S
C4514 C4513 1.523 . S
C4515 C4499 1.429 . S
C4515 C4511 1.429 . S
C4515 C4516 1.523 . S
C4516 C4500 1.368 . S
C4516 C4512 1.368 . S
C4516 C4515 1.523 . S
H4517 C4492 0.950 . S
H4518 C4494 0.950 . S
H4519 C4495 0.949 . S
H4520 C4497 0.950 . S
H4521 C4499 0.950 . S
C4522 C4523 1.349 . S
C4522 C4524 1.327 . S
C4522 H4547 0.950 . S
C4523 C4522 1.349 . S
C4523 C4539 1.349 . S
C4524 C4522 1.327 . S
C4524 C4543 1.429 . S
C4524 H4548 0.950 . S
C4525 C4542 1.574 . S
C4525 C4544 1.368 . S
C4525 H4549 0.949 . S
H4526 C4530 0.949 . S
C4527 C4528 1.349 . S
C4527 C4529 1.327 . S
C4527 H4550 0.950 . S
C4528 C4527 1.349 . S
C4528 C4540 1.349 . S
C4529 C4527 1.327 . S
C4529 C4545 1.429 . S
C4529 H4551 0.950 . S
C4530 H4526 0.949 . S
C4530 C4538 1.574 . S
C4530 C4546 1.368 . S
H4531 C4539 0.950 . S
H4532 C4537 0.950 . S
H4533 C4538 0.949 . S
H4534 C4540 0.950 . S
H4535 C4541 0.950 . S
H4536 C4542 0.949 . S
C4537 H4532 0.950 . S
C4537 C4539 1.327 . S
C4537 C4543 1.429 . S
C4538 C4530 1.574 . S
C4538 H4533 0.949 . S
C4538 C4544 1.368 . S
C4539 C4523 1.349 . S
C4539 H4531 0.950 . S
C4539 C4537 1.327 . S
C4540 C4528 1.349 . S
C4540 H4534 0.950 . S
C4540 C4541 1.327 . S
C4541 H4535 0.950 . S
C4541 C4540 1.327 . S
C4541 C4545 1.429 . S
C4542 C4525 1.574 . S
C4542 H4536 0.949 . S
C4542 C4546 1.368 . S
C4543 C4524 1.429 . S
C4543 C4537 1.429 . S
C4543 C4544 1.523 . S
C4544 C4525 1.368 . S
C4544 C4538 1.368 . S
C4544 C4543 1.523 . S
C4545 C4529 1.429 . S
C4545 C4541 1.429 . S
C4545 C4546 1.523 . S
C4546 C4530 1.368 . S
C4546 C4542 1.368 . S
C4546 C4545 1.523 . S
H4547 C4522 0.950 . S
H4548 C4524 0.950 . S
H4549 C4525 0.949 . S
H4550 C4527 0.950 . S
H4551 C4529 0.950 . S
C4552 C4553 1.349 . S
C4552 C4554 1.327 . S
C4552 H4577 0.950 . S
C4553 C4552 1.349 . S
C4553 C4569 1.349 . S
C4554 C4552 1.327 . S
C4554 C4573 1.429 . S
C4554 H4578 0.950 . S
C4555 C4572 1.574 . S
C4555 C4574 1.368 . S
C4555 H4579 0.949 . S
H4556 C4560 0.949 . S
C4557 C4558 1.349 . S
C4557 C4559 1.327 . S
C4557 H4580 0.950 . S
C4558 C4557 1.349 . S
C4558 C4570 1.349 . S
C4559 C4557 1.327 . S
C4559 C4575 1.429 . S
C4559 H4581 0.950 . S
C4560 H4556 0.949 . S
C4560 C4568 1.574 . S
C4560 C4576 1.368 . S
H4561 C4569 0.950 . S
H4562 C4567 0.950 . S
H4563 C4568 0.949 . S
H4564 C4570 0.950 . S
H4565 C4571 0.950 . S
H4566 C4572 0.949 . S
C4567 H4562 0.950 . S
C4567 C4569 1.327 . S
C4567 C4573 1.429 . S
C4568 C4560 1.574 . S
C4568 H4563 0.949 . S
C4568 C4574 1.368 . S
C4569 C4553 1.349 . S
C4569 H4561 0.950 . S
C4569 C4567 1.327 . S
C4570 C4558 1.349 . S
C4570 H4564 0.950 . S
C4570 C4571 1.327 . S
C4571 H4565 0.950 . S
C4571 C4570 1.327 . S
C4571 C4575 1.429 . S
C4572 C4555 1.574 . S
C4572 H4566 0.949 . S
C4572 C4576 1.368 . S
C4573 C4554 1.429 . S
C4573 C4567 1.429 . S
C4573 C4574 1.523 . S
C4574 C4555 1.368 . S
C4574 C4568 1.368 . S
C4574 C4573 1.523 . S
C4575 C4559 1.429 . S
C4575 C4571 1.429 . S
C4575 C4576 1.523 . S
C4576 C4560 1.368 . S
C4576 C4572 1.368 . S
C4576 C4575 1.523 . S
H4577 C4552 0.950 . S
H4578 C4554 0.950 . S
H4579 C4555 0.949 . S
H4580 C4557 0.950 . S
H4581 C4559 0.950 . S
C4582 C4583 1.349 . S
C4582 C4584 1.327 . S
C4582 H4607 0.950 . S
C4583 C4582 1.349 . S
C4583 C4599 1.349 . S
C4584 C4582 1.327 . S
C4584 C4603 1.429 . S
C4584 H4608 0.950 . S
C4585 C4602 1.574 . S
C4585 C4604 1.368 . S
C4585 H4609 0.949 . S
H4586 C4590 0.949 . S
C4587 C4588 1.349 . S
C4587 C4589 1.327 . S
C4587 H4610 0.950 . S
C4588 C4587 1.349 . S
C4588 C4600 1.349 . S
C4589 C4587 1.327 . S
C4589 C4605 1.429 . S
C4589 H4611 0.950 . S
C4590 H4586 0.949 . S
C4590 C4598 1.574 . S
C4590 C4606 1.368 . S
H4591 C4599 0.950 . S
H4592 C4597 0.950 . S
H4593 C4598 0.949 . S
H4594 C4600 0.950 . S
H4595 C4601 0.950 . S
H4596 C4602 0.949 . S
C4597 H4592 0.950 . S
C4597 C4599 1.327 . S
C4597 C4603 1.429 . S
C4598 C4590 1.574 . S
C4598 H4593 0.949 . S
C4598 C4604 1.368 . S
C4599 C4583 1.349 . S
C4599 H4591 0.950 . S
C4599 C4597 1.327 . S
C4600 C4588 1.349 . S
C4600 H4594 0.950 . S
C4600 C4601 1.327 . S
C4601 H4595 0.950 . S
C4601 C4600 1.327 . S
C4601 C4605 1.429 . S
C4602 C4585 1.574 . S
C4602 H4596 0.949 . S
C4602 C4606 1.368 . S
C4603 C4584 1.429 . S
C4603 C4597 1.429 . S
C4603 C4604 1.523 . S
C4604 C4585 1.368 . S
C4604 C4598 1.368 . S
C4604 C4603 1.523 . S
C4605 C4589 1.429 . S
C4605 C4601 1.429 . S
C4605 C4606 1.523 . S
C4606 C4590 1.368 . S
C4606 C4602 1.368 . S
C4606 C4605 1.523 . S
H4607 C4582 0.950 . S
H4608 C4584 0.950 . S
H4609 C4585 0.949 . S
H4610 C4587 0.950 . S
H4611 C4589 0.950 . S
C4612 C4613 1.349 . S
C4612 C4614 1.327 . S
C4612 H4637 0.950 . S
C4613 C4612 1.349 . S
C4613 C4629 1.349 . S
C4614 C4612 1.327 . S
C4614 C4633 1.429 . S
C4614 H4638 0.950 . S
C4615 C4632 1.574 . S
C4615 C4634 1.368 . S
C4615 H4639 0.949 . S
H4616 C4620 0.949 . S
C4617 C4618 1.349 . S
C4617 C4619 1.327 . S
C4617 H4640 0.950 . S
C4618 C4617 1.349 . S
C4618 C4630 1.349 . S
C4619 C4617 1.327 . S
C4619 C4635 1.429 . S
C4619 H4641 0.950 . S
C4620 H4616 0.949 . S
C4620 C4628 1.574 . S
C4620 C4636 1.368 . S
H4621 C4629 0.950 . S
H4622 C4627 0.950 . S
H4623 C4628 0.949 . S
H4624 C4630 0.950 . S
H4625 C4631 0.950 . S
H4626 C4632 0.949 . S
C4627 H4622 0.950 . S
C4627 C4629 1.327 . S
C4627 C4633 1.429 . S
C4628 C4620 1.574 . S
C4628 H4623 0.949 . S
C4628 C4634 1.368 . S
C4629 C4613 1.349 . S
C4629 H4621 0.950 . S
C4629 C4627 1.327 . S
C4630 C4618 1.349 . S
C4630 H4624 0.950 . S
C4630 C4631 1.327 . S
C4631 H4625 0.950 . S
C4631 C4630 1.327 . S
C4631 C4635 1.429 . S
C4632 C4615 1.574 . S
C4632 H4626 0.949 . S
C4632 C4636 1.368 . S
C4633 C4614 1.429 . S
C4633 C4627 1.429 . S
C4633 C4634 1.523 . S
C4634 C4615 1.368 . S
C4634 C4628 1.368 . S
C4634 C4633 1.523 . S
C4635 C4619 1.429 . S
C4635 C4631 1.429 . S
C4635 C4636 1.523 . S
C4636 C4620 1.368 . S
C4636 C4632 1.368 . S
C4636 C4635 1.523 . S
H4637 C4612 0.950 . S
H4638 C4614 0.950 . S
H4639 C4615 0.949 . S
H4640 C4617 0.950 . S
H4641 C4619 0.950 . S
C4642 C4643 1.349 . S
C4642 C4644 1.327 . S
C4642 H4667 0.950 . S
C4643 C4642 1.349 . S
C4643 C4659 1.349 . S
C4644 C4642 1.327 . S
C4644 C4663 1.429 . S
C4644 H4668 0.950 . S
C4645 C4662 1.574 . S
C4645 C4664 1.368 . S
C4645 H4669 0.949 . S
H4646 C4650 0.949 . S
C4647 C4648 1.349 . S
C4647 C4649 1.327 . S
C4647 H4670 0.950 . S
C4648 C4647 1.349 . S
C4648 C4660 1.349 . S
C4649 C4647 1.327 . S
C4649 C4665 1.429 . S
C4649 H4671 0.950 . S
C4650 H4646 0.949 . S
C4650 C4658 1.574 . S
C4650 C4666 1.368 . S
H4651 C4659 0.950 . S
H4652 C4657 0.950 . S
H4653 C4658 0.949 . S
H4654 C4660 0.950 . S
H4655 C4661 0.950 . S
H4656 C4662 0.949 . S
C4657 H4652 0.950 . S
C4657 C4659 1.327 . S
C4657 C4663 1.429 . S
C4658 C4650 1.574 . S
C4658 H4653 0.949 . S
C4658 C4664 1.368 . S
C4659 C4643 1.349 . S
C4659 H4651 0.950 . S
C4659 C4657 1.327 . S
C4660 C4648 1.349 . S
C4660 H4654 0.950 . S
C4660 C4661 1.327 . S
C4661 H4655 0.950 . S
C4661 C4660 1.327 . S
C4661 C4665 1.429 . S
C4662 C4645 1.574 . S
C4662 H4656 0.949 . S
C4662 C4666 1.368 . S
C4663 C4644 1.429 . S
C4663 C4657 1.429 . S
C4663 C4664 1.523 . S
C4664 C4645 1.368 . S
C4664 C4658 1.368 . S
C4664 C4663 1.523 . S
C4665 C4649 1.429 . S
C4665 C4661 1.429 . S
C4665 C4666 1.523 . S
C4666 C4650 1.368 . S
C4666 C4662 1.368 . S
C4666 C4665 1.523 . S
H4667 C4642 0.950 . S
H4668 C4644 0.950 . S
H4669 C4645 0.949 . S
H4670 C4647 0.950 . S
H4671 C4649 0.950 . S
C4672 C4673 1.349 . S
C4672 C4674 1.327 . S
C4672 H4697 0.950 . S
C4673 C4672 1.349 . S
C4673 C4689 1.349 . S
C4674 C4672 1.327 . S
C4674 C4693 1.429 . S
C4674 H4698 0.950 . S
C4675 C4692 1.574 . S
C4675 C4694 1.368 . S
C4675 H4699 0.949 . S
H4676 C4680 0.949 . S
C4677 C4678 1.349 . S
C4677 C4679 1.327 . S
C4677 H4700 0.950 . S
C4678 C4677 1.349 . S
C4678 C4690 1.349 . S
C4679 C4677 1.327 . S
C4679 C4695 1.429 . S
C4679 H4701 0.950 . S
C4680 H4676 0.949 . S
C4680 C4688 1.574 . S
C4680 C4696 1.368 . S
H4681 C4689 0.950 . S
H4682 C4687 0.950 . S
H4683 C4688 0.949 . S
H4684 C4690 0.950 . S
H4685 C4691 0.950 . S
H4686 C4692 0.949 . S
C4687 H4682 0.950 . S
C4687 C4689 1.327 . S
C4687 C4693 1.429 . S
C4688 C4680 1.574 . S
C4688 H4683 0.949 . S
C4688 C4694 1.368 . S
C4689 C4673 1.349 . S
C4689 H4681 0.950 . S
C4689 C4687 1.327 . S
C4690 C4678 1.349 . S
C4690 H4684 0.950 . S
C4690 C4691 1.327 . S
C4691 H4685 0.950 . S
C4691 C4690 1.327 . S
C4691 C4695 1.429 . S
C4692 C4675 1.574 . S
C4692 H4686 0.949 . S
C4692 C4696 1.368 . S
C4693 C4674 1.429 . S
C4693 C4687 1.429 . S
C4693 C4694 1.523 . S
C4694 C4675 1.368 . S
C4694 C4688 1.368 . S
C4694 C4693 1.523 . S
C4695 C4679 1.429 . S
C4695 C4691 1.429 . S
C4695 C4696 1.523 . S
C4696 C4680 1.368 . S
C4696 C4692 1.368 . S
C4696 C4695 1.523 . S
H4697 C4672 0.950 . S
H4698 C4674 0.950 . S
H4699 C4675 0.949 . S
H4700 C4677 0.950 . S
H4701 C4679 0.950 . S
C4702 C4703 1.349 . S
C4702 C4704 1.327 . S
C4702 H4727 0.950 . S
C4703 C4702 1.349 . S
C4703 C4719 1.349 . S
C4704 C4702 1.327 . S
C4704 C4723 1.429 . S
C4704 H4728 0.950 . S
C4705 C4722 1.574 . S
C4705 C4724 1.368 . S
C4705 H4729 0.949 . S
H4706 C4710 0.949 . S
C4707 C4708 1.349 . S
C4707 C4709 1.327 . S
C4707 H4730 0.950 . S
C4708 C4707 1.349 . S
C4708 C4720 1.349 . S
C4709 C4707 1.327 . S
C4709 C4725 1.429 . S
C4709 H4731 0.950 . S
C4710 H4706 0.949 . S
C4710 C4718 1.574 . S
C4710 C4726 1.368 . S
H4711 C4719 0.950 . S
H4712 C4717 0.950 . S
H4713 C4718 0.949 . S
H4714 C4720 0.950 . S
H4715 C4721 0.950 . S
H4716 C4722 0.949 . S
C4717 H4712 0.950 . S
C4717 C4719 1.327 . S
C4717 C4723 1.429 . S
C4718 C4710 1.574 . S
C4718 H4713 0.949 . S
C4718 C4724 1.368 . S
C4719 C4703 1.349 . S
C4719 H4711 0.950 . S
C4719 C4717 1.327 . S
C4720 C4708 1.349 . S
C4720 H4714 0.950 . S
C4720 C4721 1.327 . S
C4721 H4715 0.950 . S
C4721 C4720 1.327 . S
C4721 C4725 1.429 . S
C4722 C4705 1.574 . S
C4722 H4716 0.949 . S
C4722 C4726 1.368 . S
C4723 C4704 1.429 . S
C4723 C4717 1.429 . S
C4723 C4724 1.523 . S
C4724 C4705 1.368 . S
C4724 C4718 1.368 . S
C4724 C4723 1.523 . S
C4725 C4709 1.429 . S
C4725 C4721 1.429 . S
C4725 C4726 1.523 . S
C4726 C4710 1.368 . S
C4726 C4722 1.368 . S
C4726 C4725 1.523 . S
H4727 C4702 0.950 . S
H4728 C4704 0.950 . S
H4729 C4705 0.949 . S
H4730 C4707 0.950 . S
H4731 C4709 0.950 . S
C4732 C4733 1.349 . S
C4732 C4734 1.327 . S
C4732 H4757 0.950 . S
C4733 C4732 1.349 . S
C4733 C4749 1.349 . S
C4734 C4732 1.327 . S
C4734 C4753 1.429 . S
C4734 H4758 0.950 . S
C4735 C4752 1.574 . S
C4735 C4754 1.368 . S
C4735 H4759 0.949 . S
H4736 C4740 0.949 . S
C4737 C4738 1.349 . S
C4737 C4739 1.327 . S
C4737 H4760 0.950 . S
C4738 C4737 1.349 . S
C4738 C4750 1.349 . S
C4739 C4737 1.327 . S
C4739 C4755 1.429 . S
C4739 H4761 0.950 . S
C4740 H4736 0.949 . S
C4740 C4748 1.574 . S
C4740 C4756 1.368 . S
H4741 C4749 0.950 1_545 S
H4742 C4747 0.950 . S
H4743 C4748 0.949 . S
H4744 C4750 0.950 . S
H4745 C4751 0.950 . S
H4746 C4752 0.949 . S
C4747 H4742 0.950 . S
C4747 C4749 1.327 . S
C4747 C4753 1.429 . S
C4748 C4740 1.574 . S
C4748 H4743 0.949 . S
C4748 C4754 1.368 . S
C4749 C4733 1.349 . S
C4749 H4741 0.950 1_565 S
C4749 C4747 1.327 . S
C4750 C4738 1.349 . S
C4750 H4744 0.950 . S
C4750 C4751 1.327 . S
C4751 H4745 0.950 . S
C4751 C4750 1.327 . S
C4751 C4755 1.429 . S
C4752 C4735 1.574 . S
C4752 H4746 0.949 . S
C4752 C4756 1.368 . S
C4753 C4734 1.429 . S
C4753 C4747 1.429 . S
C4753 C4754 1.523 . S
C4754 C4735 1.368 . S
C4754 C4748 1.368 . S
C4754 C4753 1.523 . S
C4755 C4739 1.429 . S
C4755 C4751 1.429 . S
C4755 C4756 1.523 . S
C4756 C4740 1.368 . S
C4756 C4752 1.368 . S
C4756 C4755 1.523 . S
H4757 C4732 0.950 . S
H4758 C4734 0.950 . S
H4759 C4735 0.949 . S
H4760 C4737 0.950 . S
H4761 C4739 0.950 . S
C4762 C4763 1.349 . S
C4762 C4764 1.327 . S
C4762 H4787 0.950 . S
C4763 C4762 1.349 . S
C4763 C4779 1.349 . S
C4764 C4762 1.327 . S
C4764 C4783 1.429 . S
C4764 H4788 0.950 . S
C4765 C4782 1.574 . S
C4765 C4784 1.354 1_545 S
C4765 H4789 0.949 . S
H4766 C4770 0.941 1_565 S
C4767 C4768 1.349 . S
C4767 C4769 1.327 . S
C4767 H4790 0.950 . S
C4768 C4767 1.349 . S
C4768 C4780 1.349 . S
C4769 C4767 1.327 . S
C4769 C4785 1.429 . S
C4769 H4791 0.950 . S
C4770 H4766 0.941 1_545 S
C4770 C4778 1.567 1_545 S
C4770 C4786 1.385 . S
H4771 C4779 0.950 . S
H4772 C4777 0.950 1_545 S
H4773 C4778 0.949 . S
H4774 C4780 0.950 . S
H4775 C4781 0.950 . S
H4776 C4782 0.949 . S
C4777 H4772 0.950 1_565 S
C4777 C4779 1.327 . S
C4777 C4783 1.429 . S
C4778 C4770 1.567 1_565 S
C4778 H4773 0.949 . S
C4778 C4784 1.379 . S
C4779 C4763 1.349 . S
C4779 H4771 0.950 . S
C4779 C4777 1.327 . S
C4780 C4768 1.349 . S
C4780 H4774 0.950 . S
C4780 C4781 1.327 . S
C4781 H4775 0.950 . S
C4781 C4780 1.327 . S
C4781 C4785 1.429 . S
C4782 C4765 1.574 . S
C4782 H4776 0.949 . S
C4782 C4786 1.368 . S
C4783 C4764 1.429 . S
C4783 C4777 1.429 . S
C4783 C4784 1.529 . S
C4784 C4765 1.354 1_565 S
C4784 C4778 1.379 . S
C4784 C4783 1.529 . S
C4785 C4769 1.429 . S
C4785 C4781 1.429 . S
C4785 C4786 1.523 . S
C4786 C4770 1.385 . S
C4786 C4782 1.368 . S
C4786 C4785 1.523 . S
H4787 C4762 0.950 . S
H4788 C4764 0.950 . S
H4789 C4765 0.949 . S
H4790 C4767 0.950 . S
H4791 C4769 0.950 . S
C4792 C4793 1.349 . S
C4792 C4794 1.327 . S
C4792 H4817 0.950 . S
C4793 C4792 1.349 . S
C4793 C4809 1.349 . S
C4794 C4792 1.327 . S
C4794 C4813 1.429 . S
C4794 H4818 0.950 . S
C4795 C4812 1.574 . S
C4795 C4814 1.368 . S
C4795 H4819 0.949 . S
H4796 C4800 0.949 . S
C4797 C4798 1.349 . S
C4797 C4799 1.327 . S
C4797 H4820 0.950 . S
C4798 C4797 1.349 . S
C4798 C4810 1.349 . S
C4799 C4797 1.327 . S
C4799 C4815 1.429 . S
C4799 H4821 0.950 . S
C4800 H4796 0.949 . S
C4800 C4808 1.574 . S
C4800 C4816 1.368 . S
H4801 C4809 0.950 . S
H4802 C4807 0.950 . S
H4803 C4808 0.949 . S
H4804 C4810 0.950 . S
H4805 C4811 0.950 . S
H4806 C4812 0.949 . S
C4807 H4802 0.950 . S
C4807 C4809 1.327 . S
C4807 C4813 1.429 . S
C4808 C4800 1.574 . S
C4808 H4803 0.949 . S
C4808 C4814 1.368 . S
C4809 C4793 1.349 . S
C4809 H4801 0.950 . S
C4809 C4807 1.327 . S
C4810 C4798 1.349 . S
C4810 H4804 0.950 . S
C4810 C4811 1.327 . S
C4811 H4805 0.950 . S
C4811 C4810 1.327 . S
C4811 C4815 1.429 . S
C4812 C4795 1.574 . S
C4812 H4806 0.949 . S
C4812 C4816 1.368 . S
C4813 C4794 1.429 . S
C4813 C4807 1.429 . S
C4813 C4814 1.523 . S
C4814 C4795 1.368 . S
C4814 C4808 1.368 . S
C4814 C4813 1.523 . S
C4815 C4799 1.429 . S
C4815 C4811 1.429 . S
C4815 C4816 1.523 . S
C4816 C4800 1.368 . S
C4816 C4812 1.368 . S
C4816 C4815 1.523 . S
H4817 C4792 0.950 . S
H4818 C4794 0.950 . S
H4819 C4795 0.949 . S
H4820 C4797 0.950 . S
H4821 C4799 0.950 . S
C4822 C4823 1.349 . S
C4822 C4824 1.327 . S
C4822 H4847 0.950 . S
C4823 C4822 1.349 . S
C4823 C4839 1.349 . S
C4824 C4822 1.327 . S
C4824 C4843 1.429 . S
C4824 H4848 0.950 . S
C4825 C4842 1.574 . S
C4825 C4844 1.368 . S
C4825 H4849 0.949 . S
H4826 C4830 0.949 . S
C4827 C4828 1.349 . S
C4827 C4829 1.327 . S
C4827 H4850 0.950 . S
C4828 C4827 1.349 . S
C4828 C4840 1.349 . S
C4829 C4827 1.327 . S
C4829 C4845 1.429 . S
C4829 H4851 0.950 . S
C4830 H4826 0.949 . S
C4830 C4838 1.574 . S
C4830 C4846 1.368 . S
H4831 C4839 0.950 . S
H4832 C4837 0.950 . S
H4833 C4838 0.949 . S
H4834 C4840 0.950 . S
H4835 C4841 0.950 . S
H4836 C4842 0.949 . S
C4837 H4832 0.950 . S
C4837 C4839 1.327 . S
C4837 C4843 1.429 . S
C4838 C4830 1.574 . S
C4838 H4833 0.949 . S
C4838 C4844 1.368 . S
C4839 C4823 1.349 . S
C4839 H4831 0.950 . S
C4839 C4837 1.327 . S
C4840 C4828 1.349 . S
C4840 H4834 0.950 . S
C4840 C4841 1.327 . S
C4841 H4835 0.950 . S
C4841 C4840 1.327 . S
C4841 C4845 1.429 . S
C4842 C4825 1.574 . S
C4842 H4836 0.949 . S
C4842 C4846 1.368 . S
C4843 C4824 1.429 . S
C4843 C4837 1.429 . S
C4843 C4844 1.523 . S
C4844 C4825 1.368 . S
C4844 C4838 1.368 . S
C4844 C4843 1.523 . S
C4845 C4829 1.429 . S
C4845 C4841 1.429 . S
C4845 C4846 1.523 . S
C4846 C4830 1.368 . S
C4846 C4842 1.368 . S
C4846 C4845 1.523 . S
H4847 C4822 0.950 . S
H4848 C4824 0.950 . S
H4849 C4825 0.949 . S
H4850 C4827 0.950 . S
H4851 C4829 0.950 . S
C4852 C4853 1.349 . S
C4852 C4854 1.327 . S
C4852 H4877 0.950 . S
C4853 C4852 1.349 . S
C4853 C4869 1.349 . S
C4854 C4852 1.327 . S
C4854 C4873 1.429 . S
C4854 H4878 0.950 . S
C4855 C4872 1.574 . S
C4855 C4874 1.368 . S
C4855 H4879 0.949 . S
H4856 C4860 0.949 . S
C4857 C4858 1.349 . S
C4857 C4859 1.327 . S
C4857 H4880 0.950 . S
C4858 C4857 1.349 . S
C4858 C4870 1.349 . S
C4859 C4857 1.327 . S
C4859 C4875 1.429 . S
C4859 H4881 0.950 . S
C4860 H4856 0.949 . S
C4860 C4868 1.574 . S
C4860 C4876 1.368 . S
H4861 C4869 0.950 . S
H4862 C4867 0.950 . S
H4863 C4868 0.949 . S
H4864 C4870 0.950 . S
H4865 C4871 0.950 . S
H4866 C4872 0.949 . S
C4867 H4862 0.950 . S
C4867 C4869 1.327 . S
C4867 C4873 1.429 . S
C4868 C4860 1.574 . S
C4868 H4863 0.949 . S
C4868 C4874 1.368 . S
C4869 C4853 1.349 . S
C4869 H4861 0.950 . S
C4869 C4867 1.327 . S
C4870 C4858 1.349 . S
C4870 H4864 0.950 . S
C4870 C4871 1.327 . S
C4871 H4865 0.950 . S
C4871 C4870 1.327 . S
C4871 C4875 1.429 . S
C4872 C4855 1.574 . S
C4872 H4866 0.949 . S
C4872 C4876 1.368 . S
C4873 C4854 1.429 . S
C4873 C4867 1.429 . S
C4873 C4874 1.523 . S
C4874 C4855 1.368 . S
C4874 C4868 1.368 . S
C4874 C4873 1.523 . S
C4875 C4859 1.429 . S
C4875 C4871 1.429 . S
C4875 C4876 1.523 . S
C4876 C4860 1.368 . S
C4876 C4872 1.368 . S
C4876 C4875 1.523 . S
H4877 C4852 0.950 . S
H4878 C4854 0.950 . S
H4879 C4855 0.949 . S
H4880 C4857 0.950 . S
H4881 C4859 0.950 . S
C4882 C4883 1.349 . S
C4882 C4884 1.327 . S
C4882 H4907 0.950 . S
C4883 C4882 1.349 . S
C4883 C4899 1.349 . S
C4884 C4882 1.327 . S
C4884 C4903 1.473 . S
C4884 H4908 0.950 . S
C4885 C4902 1.574 . S
C4885 C4904 1.368 . S
C4885 H4909 0.949 . S
H4886 C4890 0.949 . S
C4887 C4888 1.349 . S
C4887 C4889 1.327 . S
C4887 H4910 0.950 . S
C4888 C4887 1.349 . S
C4888 C4900 1.349 . S
C4889 C4887 1.327 . S
C4889 C4905 1.429 . S
C4889 H4911 0.950 . S
C4890 H4886 0.949 . S
C4890 C4898 1.574 . S
C4890 C4906 1.368 . S
H4891 C4899 0.950 . S
H4892 C4897 0.950 1_565 S
H4893 C4898 0.949 . S
H4894 C4900 0.950 . S
H4895 C4901 0.950 . S
H4896 C4902 0.949 . S
C4897 H4892 0.950 1_545 S
C4897 C4899 1.327 . S
C4897 C4903 1.444 . S
C4898 C4890 1.574 . S
C4898 H4893 0.949 . S
C4898 C4904 1.368 . S
C4899 C4883 1.349 . S
C4899 H4891 0.950 . S
C4899 C4897 1.327 . S
C4900 C4888 1.349 . S
C4900 H4894 0.950 . S
C4900 C4901 1.327 . S
C4901 H4895 0.950 . S
C4901 C4900 1.327 . S
C4901 C4905 1.429 . S
C4902 C4885 1.574 . S
C4902 H4896 0.949 . S
C4902 C4906 1.368 . S
C4903 C4884 1.473 . S
C4903 C4897 1.444 . S
C4903 C4904 1.470 1_545 S
C4904 C4885 1.368 . S
C4904 C4898 1.368 . S
C4904 C4903 1.470 1_565 S
C4905 C4889 1.429 . S
C4905 C4901 1.429 . S
C4905 C4906 1.523 . S
C4906 C4890 1.368 . S
C4906 C4902 1.368 . S
C4906 C4905 1.523 . S
H4907 C4882 0.950 . S
H4908 C4884 0.950 . S
H4909 C4885 0.949 . S
H4910 C4887 0.950 . S
H4911 C4889 0.950 . S
C4912 C4913 1.349 . S
C4912 C4914 1.327 . S
C4912 H4937 0.950 . S
C4913 C4912 1.349 . S
C4913 C4929 1.349 . S
C4914 C4912 1.327 . S
C4914 C4933 1.429 . S
C4914 H4938 0.950 . S
C4915 C4932 1.574 . S
C4915 C4934 1.368 . S
C4915 H4939 0.949 . S
H4916 C4920 0.949 . S
C4917 C4918 1.349 . S
C4917 C4919 1.327 . S
C4917 H4940 0.950 . S
C4918 C4917 1.349 . S
C4918 C4930 1.349 . S
C4919 C4917 1.327 . S
C4919 C4935 1.429 . S
C4919 H4941 0.950 . S
C4920 H4916 0.949 . S
C4920 C4928 1.574 . S
C4920 C4936 1.368 . S
H4921 C4929 0.950 . S
H4922 C4927 0.950 . S
H4923 C4928 0.949 . S
H4924 C4930 0.950 . S
H4925 C4931 0.950 . S
H4926 C4932 0.949 . S
C4927 H4922 0.950 . S
C4927 C4929 1.327 . S
C4927 C4933 1.429 . S
C4928 C4920 1.574 . S
C4928 H4923 0.949 . S
C4928 C4934 1.368 . S
C4929 C4913 1.349 . S
C4929 H4921 0.950 . S
C4929 C4927 1.327 . S
C4930 C4918 1.349 . S
C4930 H4924 0.950 . S
C4930 C4931 1.327 . S
C4931 H4925 0.950 . S
C4931 C4930 1.327 . S
C4931 C4935 1.429 . S
C4932 C4915 1.574 . S
C4932 H4926 0.949 . S
C4932 C4936 1.368 . S
C4933 C4914 1.429 . S
C4933 C4927 1.429 . S
C4933 C4934 1.523 . S
C4934 C4915 1.368 . S
C4934 C4928 1.368 . S
C4934 C4933 1.523 . S
C4935 C4919 1.429 . S
C4935 C4931 1.429 . S
C4935 C4936 1.523 . S
C4936 C4920 1.368 . S
C4936 C4932 1.368 . S
C4936 C4935 1.523 . S
H4937 C4912 0.950 . S
H4938 C4914 0.950 . S
H4939 C4915 0.949 . S
H4940 C4917 0.950 . S
H4941 C4919 0.950 . S
C4942 C4943 1.349 . S
C4942 C4944 1.327 . S
C4942 H4967 0.950 . S
C4943 C4942 1.349 . S
C4943 C4959 1.349 . S
C4944 C4942 1.327 . S
C4944 C4963 1.429 . S
C4944 H4968 0.950 . S
C4945 C4962 1.574 . S
C4945 C4964 1.368 . S
C4945 H4969 0.949 . S
H4946 C4950 0.949 . S
C4947 C4948 1.349 . S
C4947 C4949 1.327 . S
C4947 H4970 0.950 . S
C4948 C4947 1.349 . S
C4948 C4960 1.349 . S
C4949 C4947 1.327 . S
C4949 C4965 1.429 . S
C4949 H4971 0.950 . S
C4950 H4946 0.949 . S
C4950 C4958 1.574 . S
C4950 C4966 1.368 . S
H4951 C4959 0.950 . S
H4952 C4957 0.950 . S
H4953 C4958 0.949 . S
H4954 C4960 0.950 . S
H4955 C4961 0.950 . S
H4956 C4962 0.949 . S
C4957 H4952 0.950 . S
C4957 C4959 1.327 . S
C4957 C4963 1.429 . S
C4958 C4950 1.574 . S
C4958 H4953 0.949 . S
C4958 C4964 1.368 . S
C4959 C4943 1.349 . S
C4959 H4951 0.950 . S
C4959 C4957 1.327 . S
C4960 C4948 1.349 . S
C4960 H4954 0.950 . S
C4960 C4961 1.327 . S
C4961 H4955 0.950 . S
C4961 C4960 1.327 . S
C4961 C4965 1.429 . S
C4962 C4945 1.574 . S
C4962 H4956 0.949 . S
C4962 C4966 1.368 . S
C4963 C4944 1.429 . S
C4963 C4957 1.429 . S
C4963 C4964 1.523 . S
C4964 C4945 1.368 . S
C4964 C4958 1.368 . S
C4964 C4963 1.523 . S
C4965 C4949 1.429 . S
C4965 C4961 1.429 . S
C4965 C4966 1.523 . S
C4966 C4950 1.368 . S
C4966 C4962 1.368 . S
C4966 C4965 1.523 . S
H4967 C4942 0.950 . S
H4968 C4944 0.950 . S
H4969 C4945 0.949 . S
H4970 C4947 0.950 . S
H4971 C4949 0.950 . S
C4972 C4973 1.349 . S
C4972 C4974 1.327 . S
C4972 H4997 0.950 . S
C4973 C4972 1.349 . S
C4973 C4989 1.349 . S
C4974 C4972 1.327 . S
C4974 C4993 1.429 . S
C4974 H4998 0.950 . S
C4975 C4992 1.574 . S
C4975 C4994 1.368 . S
C4975 H4999 0.949 . S
H4976 C4980 0.949 . S
C4977 C4978 1.349 . S
C4977 C4979 1.327 . S
C4977 H5000 0.950 . S
C4978 C4977 1.349 . S
C4978 C4990 1.349 . S
C4979 C4977 1.327 . S
C4979 C4995 1.429 . S
C4979 H5001 0.950 . S
C4980 H4976 0.949 . S
C4980 C4988 1.574 . S
C4980 C4996 1.368 . S
H4981 C4989 0.950 . S
H4982 C4987 0.950 . S
H4983 C4988 0.949 . S
H4984 C4990 0.950 . S
H4985 C4991 0.950 . S
H4986 C4992 0.949 . S
C4987 H4982 0.950 . S
C4987 C4989 1.327 . S
C4987 C4993 1.429 . S
C4988 C4980 1.574 . S
C4988 H4983 0.949 . S
C4988 C4994 1.368 . S
C4989 C4973 1.349 . S
C4989 H4981 0.950 . S
C4989 C4987 1.327 . S
C4990 C4978 1.349 . S
C4990 H4984 0.950 . S
C4990 C4991 1.327 . S
C4991 H4985 0.950 . S
C4991 C4990 1.327 . S
C4991 C4995 1.429 . S
C4992 C4975 1.574 . S
C4992 H4986 0.949 . S
C4992 C4996 1.368 . S
C4993 C4974 1.429 . S
C4993 C4987 1.429 . S
C4993 C4994 1.523 . S
C4994 C4975 1.368 . S
C4994 C4988 1.368 . S
C4994 C4993 1.523 . S
C4995 C4979 1.429 . S
C4995 C4991 1.429 . S
C4995 C4996 1.523 . S
C4996 C4980 1.368 . S
C4996 C4992 1.368 . S
C4996 C4995 1.523 . S
H4997 C4972 0.950 . S
H4998 C4974 0.950 . S
H4999 C4975 0.949 . S
H5000 C4977 0.950 . S
H5001 C4979 0.950 . S
C5002 C5003 1.349 . S
C5002 C5004 1.327 . S
C5002 H5027 0.950 . S
C5003 C5002 1.349 . S
C5003 C5019 1.349 . S
C5004 C5002 1.327 . S
C5004 C5023 1.429 . S
C5004 H5028 0.950 . S
C5005 C5022 1.574 . S
C5005 C5024 1.368 . S
C5005 H5029 0.949 . S
H5006 C5010 0.949 . S
C5007 C5008 1.349 . S
C5007 C5009 1.327 . S
C5007 H5030 0.950 . S
C5008 C5007 1.349 . S
C5008 C5020 1.349 . S
C5009 C5007 1.327 . S
C5009 C5025 1.429 . S
C5009 H5031 0.950 . S
C5010 H5006 0.949 . S
C5010 C5018 1.574 . S
C5010 C5026 1.368 . S
H5011 C5019 0.950 . S
H5012 C5017 0.950 . S
H5013 C5018 0.949 . S
H5014 C5020 0.950 . S
H5015 C5021 0.950 . S
H5016 C5022 0.949 . S
C5017 H5012 0.950 . S
C5017 C5019 1.327 . S
C5017 C5023 1.429 . S
C5018 C5010 1.574 . S
C5018 H5013 0.949 . S
C5018 C5024 1.368 . S
C5019 C5003 1.349 . S
C5019 H5011 0.950 . S
C5019 C5017 1.327 . S
C5020 C5008 1.349 . S
C5020 H5014 0.950 . S
C5020 C5021 1.327 . S
C5021 H5015 0.950 . S
C5021 C5020 1.327 . S
C5021 C5025 1.429 . S
C5022 C5005 1.574 . S
C5022 H5016 0.949 . S
C5022 C5026 1.368 . S
C5023 C5004 1.429 . S
C5023 C5017 1.429 . S
C5023 C5024 1.523 . S
C5024 C5005 1.368 . S
C5024 C5018 1.368 . S
C5024 C5023 1.523 . S
C5025 C5009 1.429 . S
C5025 C5021 1.429 . S
C5025 C5026 1.523 . S
C5026 C5010 1.368 . S
C5026 C5022 1.368 . S
C5026 C5025 1.523 . S
H5027 C5002 0.950 . S
H5028 C5004 0.950 . S
H5029 C5005 0.949 . S
H5030 C5007 0.950 . S
H5031 C5009 0.950 . S
C5032 C5033 1.349 . S
C5032 C5034 1.327 . S
C5032 H5057 0.950 . S
C5033 C5032 1.349 . S
C5033 C5049 1.349 . S
C5034 C5032 1.327 . S
C5034 C5053 1.429 . S
C5034 H5058 0.950 . S
C5035 C5052 1.574 . S
C5035 C5054 1.368 . S
C5035 H5059 0.949 . S
H5036 C5040 0.949 . S
C5037 C5038 1.349 . S
C5037 C5039 1.327 . S
C5037 H5060 0.950 . S
C5038 C5037 1.349 . S
C5038 C5050 1.349 1_554 S
C5039 C5037 1.327 . S
C5039 C5055 1.429 1_554 S
C5039 H5061 0.950 . S
C5040 H5036 0.949 . S
C5040 C5048 1.574 . S
C5040 C5056 1.368 . S
H5041 C5049 0.950 . S
H5042 C5047 0.950 . S
H5043 C5048 0.949 . S
H5044 C5050 0.950 . S
H5045 C5051 0.950 . S
H5046 C5052 0.949 . S
C5047 H5042 0.950 . S
C5047 C5049 1.327 . S
C5047 C5053 1.429 . S
C5048 C5040 1.574 . S
C5048 H5043 0.949 . S
C5048 C5054 1.368 . S
C5049 C5033 1.349 . S
C5049 H5041 0.950 . S
C5049 C5047 1.327 . S
C5050 C5038 1.349 1_556 S
C5050 H5044 0.950 . S
C5050 C5051 1.327 . S
C5051 H5045 0.950 . S
C5051 C5050 1.327 . S
C5051 C5055 1.429 . S
C5052 C5035 1.574 . S
C5052 H5046 0.949 . S
C5052 C5056 1.368 . S
C5053 C5034 1.429 . S
C5053 C5047 1.429 . S
C5053 C5054 1.523 . S
C5054 C5035 1.368 . S
C5054 C5048 1.368 . S
C5054 C5053 1.523 . S
C5055 C5039 1.429 1_556 S
C5055 C5051 1.429 . S
C5055 C5056 1.523 . S
C5056 C5040 1.368 . S
C5056 C5052 1.368 . S
C5056 C5055 1.523 . S
H5057 C5032 0.950 . S
H5058 C5034 0.950 . S
H5059 C5035 0.949 . S
H5060 C5037 0.950 . S
H5061 C5039 0.950 . S
C5062 C5063 1.349 . S
C5062 C5064 1.327 . S
C5062 H5087 0.950 . S
C5063 C5062 1.349 . S
C5063 C5079 1.349 . S
C5064 C5062 1.327 . S
C5064 C5083 1.429 . S
C5064 H5088 0.950 . S
C5065 C5082 1.574 . S
C5065 C5084 1.368 . S
C5065 H5089 0.949 . S
H5066 C5070 0.949 . S
C5067 C5068 1.349 . S
C5067 C5069 1.327 . S
C5067 H5090 0.950 . S
C5068 C5067 1.349 . S
C5068 C5080 1.349 . S
C5069 C5067 1.327 . S
C5069 C5085 1.429 . S
C5069 H5091 0.950 . S
C5070 H5066 0.949 . S
C5070 C5078 1.574 . S
C5070 C5086 1.368 . S
H5071 C5079 0.950 . S
H5072 C5077 0.950 . S
H5073 C5078 0.949 . S
H5074 C5080 0.950 . S
H5075 C5081 0.950 . S
H5076 C5082 0.949 . S
C5077 H5072 0.950 . S
C5077 C5079 1.327 . S
C5077 C5083 1.429 . S
C5078 C5070 1.574 . S
C5078 H5073 0.949 . S
C5078 C5084 1.368 . S
C5079 C5063 1.349 . S
C5079 H5071 0.950 . S
C5079 C5077 1.327 . S
C5080 C5068 1.349 . S
C5080 H5074 0.950 . S
C5080 C5081 1.327 . S
C5081 H5075 0.950 . S
C5081 C5080 1.327 . S
C5081 C5085 1.429 . S
C5082 C5065 1.574 . S
C5082 H5076 0.949 . S
C5082 C5086 1.368 . S
C5083 C5064 1.429 . S
C5083 C5077 1.429 . S
C5083 C5084 1.523 . S
C5084 C5065 1.368 . S
C5084 C5078 1.368 . S
C5084 C5083 1.523 . S
C5085 C5069 1.429 . S
C5085 C5081 1.429 . S
C5085 C5086 1.523 . S
C5086 C5070 1.368 . S
C5086 C5082 1.368 . S
C5086 C5085 1.523 . S
H5087 C5062 0.950 . S
H5088 C5064 0.950 . S
H5089 C5065 0.949 . S
H5090 C5067 0.950 . S
H5091 C5069 0.950 . S
C5092 C5093 1.349 . S
C5092 C5094 1.327 . S
C5092 H5117 0.950 . S
C5093 C5092 1.349 . S
C5093 C5109 1.349 . S
C5094 C5092 1.327 . S
C5094 C5113 1.429 . S
C5094 H5118 0.950 . S
C5095 C5112 1.574 . S
C5095 C5114 1.368 . S
C5095 H5119 0.949 . S
H5096 C5100 0.949 . S
C5097 C5098 1.349 . S
C5097 C5099 1.327 . S
C5097 H5120 0.950 . S
C5098 C5097 1.349 . S
C5098 C5110 1.349 . S
C5099 C5097 1.327 . S
C5099 C5115 1.429 . S
C5099 H5121 0.950 . S
C5100 H5096 0.949 . S
C5100 C5108 1.574 . S
C5100 C5116 1.368 . S
H5101 C5109 0.950 . S
H5102 C5107 0.950 . S
H5103 C5108 0.949 . S
H5104 C5110 0.950 . S
H5105 C5111 0.950 . S
H5106 C5112 0.949 . S
C5107 H5102 0.950 . S
C5107 C5109 1.327 . S
C5107 C5113 1.429 . S
C5108 C5100 1.574 . S
C5108 H5103 0.949 . S
C5108 C5114 1.368 . S
C5109 C5093 1.349 . S
C5109 H5101 0.950 . S
C5109 C5107 1.327 . S
C5110 C5098 1.349 . S
C5110 H5104 0.950 . S
C5110 C5111 1.327 . S
C5111 H5105 0.950 . S
C5111 C5110 1.327 . S
C5111 C5115 1.429 . S
C5112 C5095 1.574 . S
C5112 H5106 0.949 . S
C5112 C5116 1.368 . S
C5113 C5094 1.429 . S
C5113 C5107 1.429 . S
C5113 C5114 1.523 . S
C5114 C5095 1.368 . S
C5114 C5108 1.368 . S
C5114 C5113 1.523 . S
C5115 C5099 1.429 . S
C5115 C5111 1.429 . S
C5115 C5116 1.523 . S
C5116 C5100 1.368 . S
C5116 C5112 1.368 . S
C5116 C5115 1.523 . S
H5117 C5092 0.950 . S
H5118 C5094 0.950 . S
H5119 C5095 0.949 . S
H5120 C5097 0.950 . S
H5121 C5099 0.950 . S
C5122 C5123 1.349 . S
C5122 C5124 1.327 . S
C5122 H5147 0.950 . S
C5123 C5122 1.349 . S
C5123 C5139 1.349 . S
C5124 C5122 1.327 . S
C5124 C5143 1.429 . S
C5124 H5148 0.950 . S
C5125 C5142 1.574 . S
C5125 C5144 1.368 . S
C5125 H5149 0.949 . S
H5126 C5130 0.949 . S
C5127 C5128 1.349 . S
C5127 C5129 1.327 . S
C5127 H5150 0.950 . S
C5128 C5127 1.349 . S
C5128 C5140 1.349 . S
C5129 C5127 1.327 . S
C5129 C5145 1.429 . S
C5129 H5151 0.950 . S
C5130 H5126 0.949 . S
C5130 C5138 1.574 . S
C5130 C5146 1.368 . S
H5131 C5139 0.950 . S
H5132 C5137 0.950 . S
H5133 C5138 0.949 . S
H5134 C5140 0.950 . S
H5135 C5141 0.950 . S
H5136 C5142 0.949 . S
C5137 H5132 0.950 . S
C5137 C5139 1.327 . S
C5137 C5143 1.429 . S
C5138 C5130 1.574 . S
C5138 H5133 0.949 . S
C5138 C5144 1.368 . S
C5139 C5123 1.349 . S
C5139 H5131 0.950 . S
C5139 C5137 1.327 . S
C5140 C5128 1.349 . S
C5140 H5134 0.950 . S
C5140 C5141 1.327 . S
C5141 H5135 0.950 . S
C5141 C5140 1.327 . S
C5141 C5145 1.429 . S
C5142 C5125 1.574 . S
C5142 H5136 0.949 . S
C5142 C5146 1.368 . S
C5143 C5124 1.429 . S
C5143 C5137 1.429 . S
C5143 C5144 1.523 . S
C5144 C5125 1.368 . S
C5144 C5138 1.368 . S
C5144 C5143 1.523 . S
C5145 C5129 1.429 . S
C5145 C5141 1.429 . S
C5145 C5146 1.523 . S
C5146 C5130 1.368 . S
C5146 C5142 1.368 . S
C5146 C5145 1.523 . S
H5147 C5122 0.950 . S
H5148 C5124 0.950 . S
H5149 C5125 0.949 . S
H5150 C5127 0.950 . S
H5151 C5129 0.950 . S
C5152 C5153 1.349 . S
C5152 C5154 1.327 . S
C5152 H5177 0.950 . S
C5153 C5152 1.349 . S
C5153 C5169 1.349 . S
C5154 C5152 1.327 . S
C5154 C5173 1.429 . S
C5154 H5178 0.950 . S
C5155 C5172 1.574 . S
C5155 C5174 1.368 . S
C5155 H5179 0.949 . S
H5156 C5160 0.949 . S
C5157 C5158 1.349 . S
C5157 C5159 1.327 . S
C5157 H5180 0.950 . S
C5158 C5157 1.349 . S
C5158 C5170 1.349 . S
C5159 C5157 1.327 . S
C5159 C5175 1.429 . S
C5159 H5181 0.950 . S
C5160 H5156 0.949 . S
C5160 C5168 1.574 . S
C5160 C5176 1.368 . S
H5161 C5169 0.950 . S
H5162 C5167 0.950 . S
H5163 C5168 0.949 . S
H5164 C5170 0.950 . S
H5165 C5171 0.950 . S
H5166 C5172 0.949 . S
C5167 H5162 0.950 . S
C5167 C5169 1.327 . S
C5167 C5173 1.429 . S
C5168 C5160 1.574 . S
C5168 H5163 0.949 . S
C5168 C5174 1.368 . S
C5169 C5153 1.349 . S
C5169 H5161 0.950 . S
C5169 C5167 1.327 . S
C5170 C5158 1.349 . S
C5170 H5164 0.950 . S
C5170 C5171 1.327 . S
C5171 H5165 0.950 . S
C5171 C5170 1.327 . S
C5171 C5175 1.429 . S
C5172 C5155 1.574 . S
C5172 H5166 0.949 . S
C5172 C5176 1.368 . S
C5173 C5154 1.429 . S
C5173 C5167 1.429 . S
C5173 C5174 1.523 . S
C5174 C5155 1.368 . S
C5174 C5168 1.368 . S
C5174 C5173 1.523 . S
C5175 C5159 1.429 . S
C5175 C5171 1.429 . S
C5175 C5176 1.523 . S
C5176 C5160 1.368 . S
C5176 C5172 1.368 . S
C5176 C5175 1.523 . S
H5177 C5152 0.950 . S
H5178 C5154 0.950 . S
H5179 C5155 0.949 . S
H5180 C5157 0.950 . S
H5181 C5159 0.950 . S
C5182 C5183 1.349 . S
C5182 C5184 1.327 . S
C5182 H5207 0.950 . S
C5183 C5182 1.349 . S
C5183 C5199 1.349 . S
C5184 C5182 1.327 . S
C5184 C5203 1.429 . S
C5184 H5208 0.950 . S
C5185 C5202 1.574 . S
C5185 C5204 1.368 . S
C5185 H5209 0.949 . S
H5186 C5190 0.949 . S
C5187 C5188 1.349 . S
C5187 C5189 1.327 . S
C5187 H5210 0.950 . S
C5188 C5187 1.349 . S
C5188 C5200 1.349 . S
C5189 C5187 1.327 . S
C5189 C5205 1.429 . S
C5189 H5211 0.950 . S
C5190 H5186 0.949 . S
C5190 C5198 1.574 . S
C5190 C5206 1.368 . S
H5191 C5199 0.950 . S
H5192 C5197 0.950 . S
H5193 C5198 0.949 . S
H5194 C5200 0.950 . S
H5195 C5201 0.950 . S
H5196 C5202 0.949 . S
C5197 H5192 0.950 . S
C5197 C5199 1.327 . S
C5197 C5203 1.429 . S
C5198 C5190 1.574 . S
C5198 H5193 0.949 . S
C5198 C5204 1.368 . S
C5199 C5183 1.349 . S
C5199 H5191 0.950 . S
C5199 C5197 1.327 . S
C5200 C5188 1.349 . S
C5200 H5194 0.950 . S
C5200 C5201 1.327 . S
C5201 H5195 0.950 . S
C5201 C5200 1.327 . S
C5201 C5205 1.429 . S
C5202 C5185 1.574 . S
C5202 H5196 0.949 . S
C5202 C5206 1.368 . S
C5203 C5184 1.429 . S
C5203 C5197 1.429 . S
C5203 C5204 1.523 . S
C5204 C5185 1.368 . S
C5204 C5198 1.368 . S
C5204 C5203 1.523 . S
C5205 C5189 1.429 . S
C5205 C5201 1.429 . S
C5205 C5206 1.523 . S
C5206 C5190 1.368 . S
C5206 C5202 1.368 . S
C5206 C5205 1.523 . S
H5207 C5182 0.950 . S
H5208 C5184 0.950 . S
H5209 C5185 0.949 . S
H5210 C5187 0.950 . S
H5211 C5189 0.950 . S
C5212 C5213 1.349 . S
C5212 C5214 1.327 . S
C5212 H5237 0.950 . S
C5213 C5212 1.349 . S
C5213 C5229 1.349 . S
C5214 C5212 1.327 . S
C5214 C5233 1.429 . S
C5214 H5238 0.950 . S
C5215 C5232 1.574 . S
C5215 C5234 1.368 . S
C5215 H5239 0.949 . S
H5216 C5220 0.949 . S
C5217 C5218 1.349 . S
C5217 C5219 1.327 . S
C5217 H5240 0.950 . S
C5218 C5217 1.349 . S
C5218 C5230 1.349 . S
C5219 C5217 1.327 . S
C5219 C5235 1.429 . S
C5219 H5241 0.950 . S
C5220 H5216 0.949 . S
C5220 C5228 1.574 1_455 S
C5220 C5236 1.368 . S
H5221 C5229 0.950 . S
H5222 C5227 0.950 . S
H5223 C5228 0.949 . S
H5224 C5230 0.950 . S
H5225 C5231 0.950 . S
H5226 C5232 0.949 . S
C5227 H5222 0.950 . S
C5227 C5229 1.327 . S
C5227 C5233 1.429 . S
C5228 C5220 1.574 1_655 S
C5228 H5223 0.949 . S
C5228 C5234 1.368 . S
C5229 C5213 1.349 . S
C5229 H5221 0.950 . S
C5229 C5227 1.327 . S
C5230 C5218 1.349 . S
C5230 H5224 0.950 . S
C5230 C5231 1.327 . S
C5231 H5225 0.950 . S
C5231 C5230 1.327 . S
C5231 C5235 1.429 . S
C5232 C5215 1.574 . S
C5232 H5226 0.949 . S
C5232 C5236 1.368 1_655 S
C5233 C5214 1.429 . S
C5233 C5227 1.429 . S
C5233 C5234 1.523 . S
C5234 C5215 1.368 . S
C5234 C5228 1.368 . S
C5234 C5233 1.523 . S
C5235 C5219 1.429 . S
C5235 C5231 1.429 . S
C5235 C5236 1.523 . S
C5236 C5220 1.368 . S
C5236 C5232 1.368 1_455 S
C5236 C5235 1.523 . S
H5237 C5212 0.950 . S
H5238 C5214 0.950 . S
H5239 C5215 0.949 . S
H5240 C5217 0.950 . S
H5241 C5219 0.950 . S
C5242 C5243 1.349 . S
C5242 C5244 1.327 . S
C5242 H5267 0.950 . S
C5243 C5242 1.349 . S
C5243 C5259 1.349 . S
C5244 C5242 1.327 . S
C5244 C5263 1.429 . S
C5244 H5268 0.950 . S
C5245 C5262 1.574 . S
C5245 C5264 1.368 . S
C5245 H5269 0.949 . S
H5246 C5250 0.949 . S
C5247 C5248 1.349 . S
C5247 C5249 1.327 . S
C5247 H5270 0.950 . S
C5248 C5247 1.349 . S
C5248 C5260 1.349 . S
C5249 C5247 1.327 . S
C5249 C5265 1.429 . S
C5249 H5271 0.950 . S
C5250 H5246 0.949 . S
C5250 C5258 1.574 . S
C5250 C5266 1.368 . S
H5251 C5259 0.950 . S
H5252 C5257 0.950 . S
H5253 C5258 0.949 . S
H5254 C5260 0.950 . S
H5255 C5261 0.950 . S
H5256 C5262 0.949 . S
C5257 H5252 0.950 . S
C5257 C5259 1.327 . S
C5257 C5263 1.429 . S
C5258 C5250 1.574 . S
C5258 H5253 0.949 . S
C5258 C5264 1.368 . S
C5259 C5243 1.349 . S
C5259 H5251 0.950 . S
C5259 C5257 1.327 . S
C5260 C5248 1.349 . S
C5260 H5254 0.950 . S
C5260 C5261 1.327 . S
C5261 H5255 0.950 . S
C5261 C5260 1.327 . S
C5261 C5265 1.429 . S
C5262 C5245 1.574 . S
C5262 H5256 0.949 . S
C5262 C5266 1.368 . S
C5263 C5244 1.429 . S
C5263 C5257 1.429 . S
C5263 C5264 1.523 . S
C5264 C5245 1.368 . S
C5264 C5258 1.368 . S
C5264 C5263 1.523 . S
C5265 C5249 1.429 . S
C5265 C5261 1.429 . S
C5265 C5266 1.523 . S
C5266 C5250 1.368 . S
C5266 C5262 1.368 . S
C5266 C5265 1.523 . S
H5267 C5242 0.950 . S
H5268 C5244 0.950 . S
H5269 C5245 0.949 . S
H5270 C5247 0.950 . S
H5271 C5249 0.950 . S
C5272 C5273 1.349 . S
C5272 C5274 1.327 . S
C5272 H5297 0.950 . S
C5273 C5272 1.349 . S
C5273 C5289 1.349 . S
C5274 C5272 1.327 . S
C5274 C5293 1.429 . S
C5274 H5298 0.950 . S
C5275 C5292 1.574 . S
C5275 C5294 1.368 . S
C5275 H5299 0.949 . S
H5276 C5280 0.949 . S
C5277 C5278 1.349 . S
C5277 C5279 1.327 . S
C5277 H5300 0.950 . S
C5278 C5277 1.349 . S
C5278 C5290 1.349 . S
C5279 C5277 1.327 . S
C5279 C5295 1.429 . S
C5279 H5301 0.950 . S
C5280 H5276 0.949 . S
C5280 C5288 1.574 . S
C5280 C5296 1.368 . S
H5281 C5289 0.950 . S
H5282 C5287 0.950 . S
H5283 C5288 0.949 . S
H5284 C5290 0.950 . S
H5285 C5291 0.950 . S
H5286 C5292 0.949 . S
C5287 H5282 0.950 . S
C5287 C5289 1.327 . S
C5287 C5293 1.429 . S
C5288 C5280 1.574 . S
C5288 H5283 0.949 . S
C5288 C5294 1.368 . S
C5289 C5273 1.349 . S
C5289 H5281 0.950 . S
C5289 C5287 1.327 . S
C5290 C5278 1.349 . S
C5290 H5284 0.950 . S
C5290 C5291 1.327 . S
C5291 H5285 0.950 . S
C5291 C5290 1.327 . S
C5291 C5295 1.429 . S
C5292 C5275 1.574 . S
C5292 H5286 0.949 . S
C5292 C5296 1.368 . S
C5293 C5274 1.429 . S
C5293 C5287 1.429 . S
C5293 C5294 1.523 . S
C5294 C5275 1.368 . S
C5294 C5288 1.368 . S
C5294 C5293 1.523 . S
C5295 C5279 1.429 . S
C5295 C5291 1.429 . S
C5295 C5296 1.523 . S
C5296 C5280 1.368 . S
C5296 C5292 1.368 . S
C5296 C5295 1.523 . S
H5297 C5272 0.950 . S
H5298 C5274 0.950 . S
H5299 C5275 0.949 . S
H5300 C5277 0.950 . S
H5301 C5279 0.950 . S
C5302 C5303 1.349 . S
C5302 C5304 1.327 . S
C5302 H5327 0.950 . S
C5303 C5302 1.349 . S
C5303 C5319 1.349 . S
C5304 C5302 1.327 . S
C5304 C5323 1.429 . S
C5304 H5328 0.950 . S
C5305 C5322 1.574 . S
C5305 C5324 1.368 . S
C5305 H5329 0.949 . S
H5306 C5310 0.949 . S
C5307 C5308 1.349 . S
C5307 C5309 1.327 . S
C5307 H5330 0.950 . S
C5308 C5307 1.349 . S
C5308 C5320 1.349 . S
C5309 C5307 1.327 . S
C5309 C5325 1.429 . S
C5309 H5331 0.950 . S
C5310 H5306 0.949 . S
C5310 C5318 1.574 . S
C5310 C5326 1.368 . S
H5311 C5319 0.950 . S
H5312 C5317 0.950 . S
H5313 C5318 0.949 . S
H5314 C5320 0.950 . S
H5315 C5321 0.950 . S
H5316 C5322 0.949 . S
C5317 H5312 0.950 . S
C5317 C5319 1.327 . S
C5317 C5323 1.429 . S
C5318 C5310 1.574 . S
C5318 H5313 0.949 . S
C5318 C5324 1.368 . S
C5319 C5303 1.349 . S
C5319 H5311 0.950 . S
C5319 C5317 1.327 . S
C5320 C5308 1.349 . S
C5320 H5314 0.950 . S
C5320 C5321 1.327 . S
C5321 H5315 0.950 . S
C5321 C5320 1.327 . S
C5321 C5325 1.429 . S
C5322 C5305 1.574 . S
C5322 H5316 0.949 . S
C5322 C5326 1.368 . S
C5323 C5304 1.429 . S
C5323 C5317 1.429 . S
C5323 C5324 1.523 . S
C5324 C5305 1.368 . S
C5324 C5318 1.368 . S
C5324 C5323 1.523 . S
C5325 C5309 1.429 . S
C5325 C5321 1.429 . S
C5325 C5326 1.523 . S
C5326 C5310 1.368 . S
C5326 C5322 1.368 . S
C5326 C5325 1.523 . S
H5327 C5302 0.950 . S
H5328 C5304 0.950 . S
H5329 C5305 0.949 . S
H5330 C5307 0.950 . S
H5331 C5309 0.950 . S
C5332 C5333 1.349 . S
C5332 C5334 1.327 . S
C5332 H5357 0.950 . S
C5333 C5332 1.349 . S
C5333 C5349 1.349 . S
C5334 C5332 1.327 . S
C5334 C5353 1.429 . S
C5334 H5358 0.950 . S
C5335 C5352 1.574 . S
C5335 C5354 1.368 . S
C5335 H5359 0.949 . S
H5336 C5340 0.949 1_455 S
C5337 C5338 1.349 . S
C5337 C5339 1.327 . S
C5337 H5360 0.950 . S
C5338 C5337 1.349 . S
C5338 C5350 1.349 1_655 S
C5339 C5337 1.327 . S
C5339 C5355 1.429 . S
C5339 H5361 0.950 . S
C5340 H5336 0.949 1_655 S
C5340 C5348 1.574 . S
C5340 C5356 1.368 . S
H5341 C5349 0.950 . S
H5342 C5347 0.950 . S
H5343 C5348 0.949 . S
H5344 C5350 0.950 . S
H5345 C5351 0.950 . S
H5346 C5352 0.949 . S
C5347 H5342 0.950 . S
C5347 C5349 1.327 . S
C5347 C5353 1.429 . S
C5348 C5340 1.574 . S
C5348 H5343 0.949 . S
C5348 C5354 1.368 . S
C5349 C5333 1.349 . S
C5349 H5341 0.950 . S
C5349 C5347 1.327 . S
C5350 C5338 1.349 1_455 S
C5350 H5344 0.950 . S
C5350 C5351 1.327 . S
C5351 H5345 0.950 . S
C5351 C5350 1.327 . S
C5351 C5355 1.429 1_455 S
C5352 C5335 1.574 . S
C5352 H5346 0.949 . S
C5352 C5356 1.368 . S
C5353 C5334 1.429 . S
C5353 C5347 1.429 . S
C5353 C5354 1.523 . S
C5354 C5335 1.368 . S
C5354 C5348 1.368 . S
C5354 C5353 1.523 . S
C5355 C5339 1.429 . S
C5355 C5351 1.429 1_655 S
C5355 C5356 1.523 . S
C5356 C5340 1.368 . S
C5356 C5352 1.368 . S
C5356 C5355 1.523 . S
H5357 C5332 0.950 . S
H5358 C5334 0.950 . S
H5359 C5335 0.949 . S
H5360 C5337 0.950 . S
H5361 C5339 0.950 . S
C5362 C5363 1.349 . S
C5362 C5364 1.327 . S
C5362 H5387 0.950 . S
C5363 C5362 1.349 . S
C5363 C5379 1.349 . S
C5364 C5362 1.327 . S
C5364 C5383 1.429 . S
C5364 H5388 0.950 . S
C5365 C5382 1.574 . S
C5365 C5384 1.368 . S
C5365 H5389 0.949 . S
H5366 C5370 0.949 . S
C5367 C5368 1.349 . S
C5367 C5369 1.327 . S
C5367 H5390 0.950 . S
C5368 C5367 1.349 . S
C5368 C5380 1.349 . S
C5369 C5367 1.327 . S
C5369 C5385 1.429 . S
C5369 H5391 0.950 . S
C5370 H5366 0.949 . S
C5370 C5378 1.574 . S
C5370 C5386 1.368 . S
H5371 C5379 0.950 . S
H5372 C5377 0.950 . S
H5373 C5378 0.949 . S
H5374 C5380 0.950 . S
H5375 C5381 0.950 . S
H5376 C5382 0.949 . S
C5377 H5372 0.950 . S
C5377 C5379 1.327 . S
C5377 C5383 1.429 . S
C5378 C5370 1.574 . S
C5378 H5373 0.949 . S
C5378 C5384 1.368 . S
C5379 C5363 1.349 . S
C5379 H5371 0.950 . S
C5379 C5377 1.327 . S
C5380 C5368 1.349 . S
C5380 H5374 0.950 . S
C5380 C5381 1.327 . S
C5381 H5375 0.950 . S
C5381 C5380 1.327 . S
C5381 C5385 1.429 . S
C5382 C5365 1.574 . S
C5382 H5376 0.949 . S
C5382 C5386 1.368 . S
C5383 C5364 1.429 . S
C5383 C5377 1.429 . S
C5383 C5384 1.523 . S
C5384 C5365 1.368 . S
C5384 C5378 1.368 . S
C5384 C5383 1.523 . S
C5385 C5369 1.429 . S
C5385 C5381 1.429 . S
C5385 C5386 1.523 . S
C5386 C5370 1.368 . S
C5386 C5382 1.368 . S
C5386 C5385 1.523 . S
H5387 C5362 0.950 . S
H5388 C5364 0.950 . S
H5389 C5365 0.949 . S
H5390 C5367 0.950 . S
H5391 C5369 0.950 . S
C5392 C5393 1.349 . S
C5392 C5394 1.327 . S
C5392 H5417 0.950 . S
C5393 C5392 1.349 . S
C5393 C5409 1.349 . S
C5394 C5392 1.327 . S
C5394 C5413 1.429 . S
C5394 H5418 0.950 . S
C5395 C5412 1.574 . S
C5395 C5414 1.368 . S
C5395 H5419 0.949 . S
H5396 C5400 0.949 . S
C5397 C5398 1.349 . S
C5397 C5399 1.327 . S
C5397 H5420 0.950 . S
C5398 C5397 1.349 . S
C5398 C5410 1.349 . S
C5399 C5397 1.327 . S
C5399 C5415 1.429 . S
C5399 H5421 0.950 . S
C5400 H5396 0.949 . S
C5400 C5408 1.574 . S
C5400 C5416 1.368 . S
H5401 C5409 0.950 . S
H5402 C5407 0.950 . S
H5403 C5408 0.949 . S
H5404 C5410 0.950 . S
H5405 C5411 0.950 . S
H5406 C5412 0.949 . S
C5407 H5402 0.950 . S
C5407 C5409 1.327 . S
C5407 C5413 1.429 . S
C5408 C5400 1.574 . S
C5408 H5403 0.949 . S
C5408 C5414 1.368 . S
C5409 C5393 1.349 . S
C5409 H5401 0.950 . S
C5409 C5407 1.327 . S
C5410 C5398 1.349 . S
C5410 H5404 0.950 . S
C5410 C5411 1.327 . S
C5411 H5405 0.950 . S
C5411 C5410 1.327 . S
C5411 C5415 1.429 . S
C5412 C5395 1.574 . S
C5412 H5406 0.949 . S
C5412 C5416 1.368 . S
C5413 C5394 1.429 . S
C5413 C5407 1.429 . S
C5413 C5414 1.523 . S
C5414 C5395 1.368 . S
C5414 C5408 1.368 . S
C5414 C5413 1.523 . S
C5415 C5399 1.429 . S
C5415 C5411 1.429 . S
C5415 C5416 1.523 . S
C5416 C5400 1.368 . S
C5416 C5412 1.368 . S
C5416 C5415 1.523 . S
H5417 C5392 0.950 . S
H5418 C5394 0.950 . S
H5419 C5395 0.949 . S
H5420 C5397 0.950 . S
H5421 C5399 0.950 . S
C5422 C5423 1.349 . S
C5422 C5424 1.327 . S
C5422 H5447 0.950 . S
C5423 C5422 1.349 . S
C5423 C5439 1.349 . S
C5424 C5422 1.327 . S
C5424 C5443 1.429 . S
C5424 H5448 0.950 . S
C5425 C5442 1.574 . S
C5425 C5444 1.368 . S
C5425 H5449 0.949 . S
H5426 C5430 0.949 . S
C5427 C5428 1.349 . S
C5427 C5429 1.327 . S
C5427 H5450 0.950 . S
C5428 C5427 1.349 . S
C5428 C5440 1.349 . S
C5429 C5427 1.327 . S
C5429 C5445 1.429 . S
C5429 H5451 0.950 1_545 S
C5430 H5426 0.949 . S
C5430 C5438 1.574 . S
C5430 C5446 1.368 . S
H5431 C5439 0.950 . S
H5432 C5437 0.950 . S
H5433 C5438 0.949 . S
H5434 C5440 0.950 . S
H5435 C5441 0.950 . S
H5436 C5442 0.949 . S
C5437 H5432 0.950 . S
C5437 C5439 1.327 . S
C5437 C5443 1.429 . S
C5438 C5430 1.574 . S
C5438 H5433 0.949 . S
C5438 C5444 1.368 1_545 S
C5439 C5423 1.349 . S
C5439 H5431 0.950 . S
C5439 C5437 1.327 . S
C5440 C5428 1.349 . S
C5440 H5434 0.950 . S
C5440 C5441 1.327 . S
C5441 H5435 0.950 . S
C5441 C5440 1.327 . S
C5441 C5445 1.429 . S
C5442 C5425 1.574 . S
C5442 H5436 0.949 . S
C5442 C5446 1.368 1_565 S
C5443 C5424 1.429 . S
C5443 C5437 1.429 . S
C5443 C5444 1.523 . S
C5444 C5425 1.368 . S
C5444 C5438 1.368 1_565 S
C5444 C5443 1.523 . S
C5445 C5429 1.429 . S
C5445 C5441 1.429 . S
C5445 C5446 1.523 . S
C5446 C5430 1.368 . S
C5446 C5442 1.368 1_545 S
C5446 C5445 1.523 . S
H5447 C5422 0.950 . S
H5448 C5424 0.950 . S
H5449 C5425 0.949 . S
H5450 C5427 0.950 . S
H5451 C5429 0.950 1_565 S
C5452 C5453 1.349 . S
C5452 C5454 1.327 . S
C5452 H5477 0.950 . S
C5453 C5452 1.349 . S
C5453 C5469 1.349 . S
C5454 C5452 1.327 . S
C5454 C5473 1.429 . S
C5454 H5478 0.950 . S
C5455 C5472 1.574 . S
C5455 C5474 1.368 . S
C5455 H5479 0.949 . S
H5456 C5460 0.949 . S
C5457 C5458 1.349 . S
C5457 C5459 1.327 . S
C5457 H5480 0.950 . S
C5458 C5457 1.349 . S
C5458 C5470 1.349 . S
C5459 C5457 1.327 . S
C5459 C5475 1.429 . S
C5459 H5481 0.950 . S
C5460 H5456 0.949 . S
C5460 C5468 1.574 . S
C5460 C5476 1.368 . S
H5461 C5469 0.950 . S
H5462 C5467 0.950 . S
H5463 C5468 0.949 . S
H5464 C5470 0.950 . S
H5465 C5471 0.950 . S
H5466 C5472 0.949 . S
C5467 H5462 0.950 . S
C5467 C5469 1.327 . S
C5467 C5473 1.429 . S
C5468 C5460 1.574 . S
C5468 H5463 0.949 . S
C5468 C5474 1.368 . S
C5469 C5453 1.349 . S
C5469 H5461 0.950 . S
C5469 C5467 1.327 . S
C5470 C5458 1.349 . S
C5470 H5464 0.950 . S
C5470 C5471 1.327 . S
C5471 H5465 0.950 . S
C5471 C5470 1.327 . S
C5471 C5475 1.429 . S
C5472 C5455 1.574 . S
C5472 H5466 0.949 . S
C5472 C5476 1.368 . S
C5473 C5454 1.429 . S
C5473 C5467 1.429 . S
C5473 C5474 1.523 . S
C5474 C5455 1.368 . S
C5474 C5468 1.368 . S
C5474 C5473 1.523 . S
C5475 C5459 1.429 . S
C5475 C5471 1.429 . S
C5475 C5476 1.523 . S
C5476 C5460 1.368 . S
C5476 C5472 1.368 . S
C5476 C5475 1.523 . S
H5477 C5452 0.950 . S
H5478 C5454 0.950 . S
H5479 C5455 0.949 . S
H5480 C5457 0.950 . S
H5481 C5459 0.950 . S
C5482 C5483 1.349 . S
C5482 C5484 1.327 . S
C5482 H5507 0.950 . S
C5483 C5482 1.349 . S
C5483 C5499 1.349 . S
C5484 C5482 1.327 . S
C5484 C5503 1.431 . S
C5484 H5508 0.942 1_556 S
C5485 C5502 1.574 . S
C5485 C5504 1.368 . S
C5485 H5509 0.949 . S
H5486 C5490 0.949 . S
C5487 C5488 1.349 . S
C5487 C5489 1.327 . S
C5487 H5510 0.950 . S
C5488 C5487 1.349 . S
C5488 C5500 1.349 . S
C5489 C5487 1.327 . S
C5489 C5505 1.429 . S
C5489 H5511 0.950 . S
C5490 H5486 0.949 . S
C5490 C5498 1.574 . S
C5490 C5506 1.368 . S
H5491 C5499 0.950 . S
H5492 C5497 0.950 . S
H5493 C5498 0.949 . S
H5494 C5500 0.950 . S
H5495 C5501 0.950 . S
H5496 C5502 0.949 . S
C5497 H5492 0.950 . S
C5497 C5499 1.327 . S
C5497 C5503 1.435 . S
C5498 C5490 1.574 . S
C5498 H5493 0.949 . S
C5498 C5504 1.368 . S
C5499 C5483 1.349 . S
C5499 H5491 0.950 . S
C5499 C5497 1.327 . S
C5500 C5488 1.349 . S
C5500 H5494 0.950 . S
C5500 C5501 1.327 . S
C5501 H5495 0.950 . S
C5501 C5500 1.327 . S
C5501 C5505 1.429 . S
C5502 C5485 1.574 . S
C5502 H5496 0.949 . S
C5502 C5506 1.368 . S
C5503 C5484 1.431 . S
C5503 C5497 1.435 . S
C5503 C5504 1.515 1_556 S
C5504 C5485 1.368 . S
C5504 C5498 1.368 . S
C5504 C5503 1.515 1_554 S
C5505 C5489 1.429 . S
C5505 C5501 1.429 . S
C5505 C5506 1.523 . S
C5506 C5490 1.368 . S
C5506 C5502 1.368 . S
C5506 C5505 1.523 . S
H5507 C5482 0.950 . S
H5508 C5484 0.942 1_554 S
H5509 C5485 0.949 . S
H5510 C5487 0.950 . S
H5511 C5489 0.950 . S
C5512 C5513 1.349 . S
C5512 C5514 1.327 . S
C5512 H5537 0.950 . S
C5513 C5512 1.349 . S
C5513 C5529 1.349 . S
C5514 C5512 1.327 . S
C5514 C5533 1.429 . S
C5514 H5538 0.950 . S
C5515 C5532 1.574 . S
C5515 C5534 1.368 . S
C5515 H5539 0.949 . S
H5516 C5520 0.949 . S
C5517 C5518 1.349 . S
C5517 C5519 1.327 . S
C5517 H5540 0.950 . S
C5518 C5517 1.349 . S
C5518 C5530 1.349 . S
C5519 C5517 1.327 . S
C5519 C5535 1.429 . S
C5519 H5541 0.950 . S
C5520 H5516 0.949 . S
C5520 C5528 1.574 . S
C5520 C5536 1.368 . S
H5521 C5529 0.950 . S
H5522 C5527 0.950 . S
H5523 C5528 0.949 . S
H5524 C5530 0.950 . S
H5525 C5531 0.950 . S
H5526 C5532 0.949 . S
C5527 H5522 0.950 . S
C5527 C5529 1.327 . S
C5527 C5533 1.429 . S
C5528 C5520 1.574 . S
C5528 H5523 0.949 . S
C5528 C5534 1.368 . S
C5529 C5513 1.349 . S
C5529 H5521 0.950 . S
C5529 C5527 1.327 . S
C5530 C5518 1.349 . S
C5530 H5524 0.950 . S
C5530 C5531 1.327 . S
C5531 H5525 0.950 . S
C5531 C5530 1.327 . S
C5531 C5535 1.429 . S
C5532 C5515 1.574 . S
C5532 H5526 0.949 . S
C5532 C5536 1.368 . S
C5533 C5514 1.429 . S
C5533 C5527 1.429 . S
C5533 C5534 1.523 . S
C5534 C5515 1.368 . S
C5534 C5528 1.368 . S
C5534 C5533 1.523 . S
C5535 C5519 1.429 . S
C5535 C5531 1.429 . S
C5535 C5536 1.523 . S
C5536 C5520 1.368 . S
C5536 C5532 1.368 . S
C5536 C5535 1.523 . S
H5537 C5512 0.950 . S
H5538 C5514 0.950 . S
H5539 C5515 0.949 . S
H5540 C5517 0.950 . S
H5541 C5519 0.950 . S
C5542 C5543 1.349 . S
C5542 C5544 1.327 . S
C5542 H5567 0.950 . S
C5543 C5542 1.349 . S
C5543 C5559 1.349 . S
C5544 C5542 1.327 . S
C5544 C5563 1.429 . S
C5544 H5568 0.950 1_554 S
C5545 C5562 1.574 . S
C5545 C5564 1.368 . S
C5545 H5569 0.949 . S
H5546 C5550 0.959 . S
C5547 C5548 1.349 . S
C5547 C5549 1.327 . S
C5547 H5570 0.950 . S
C5548 C5547 1.349 . S
C5548 C5560 1.349 1_554 S
C5549 C5547 1.327 . S
C5549 C5565 1.429 . S
C5549 H5571 0.950 . S
C5550 H5546 0.959 . S
C5550 C5558 1.573 1_556 S
C5550 C5566 1.358 1_556 S
H5551 C5559 0.950 . S
H5552 C5557 0.950 . S
H5553 C5558 0.949 1_556 S
H5554 C5560 0.950 . S
H5555 C5561 0.950 . S
H5556 C5562 0.949 . S
C5557 H5552 0.950 . S
C5557 C5559 1.327 . S
C5557 C5563 1.429 . S
C5558 C5550 1.573 1_554 S
C5558 H5553 0.949 1_554 S
C5558 C5564 1.368 . S
C5559 C5543 1.349 . S
C5559 H5551 0.950 . S
C5559 C5557 1.327 . S
C5560 C5548 1.349 1_556 S
C5560 H5554 0.950 . S
C5560 C5561 1.327 . S
C5561 H5555 0.950 . S
C5561 C5560 1.327 . S
C5561 C5565 1.429 1_556 S
C5562 C5545 1.574 . S
C5562 H5556 0.949 . S
C5562 C5566 1.368 . S
C5563 C5544 1.429 . S
C5563 C5557 1.429 . S
C5563 C5564 1.523 . S
C5564 C5545 1.368 . S
C5564 C5558 1.368 . S
C5564 C5563 1.523 . S
C5565 C5549 1.429 . S
C5565 C5561 1.429 1_554 S
C5565 C5566 1.523 . S
C5566 C5550 1.358 1_554 S
C5566 C5562 1.368 . S
C5566 C5565 1.523 . S
H5567 C5542 0.950 . S
H5568 C5544 0.950 1_556 S
H5569 C5545 0.949 . S
H5570 C5547 0.950 . S
H5571 C5549 0.950 . S
C5572 C5573 1.349 . S
C5572 C5574 1.327 . S
C5572 H5597 0.950 . S
C5573 C5572 1.349 . S
C5573 C5589 1.349 . S
C5574 C5572 1.327 . S
C5574 C5593 1.429 . S
C5574 H5598 0.950 . S
C5575 C5592 1.574 . S
C5575 C5594 1.368 . S
C5575 H5599 0.949 . S
H5576 C5580 0.949 . S
C5577 C5578 1.349 . S
C5577 C5579 1.327 . S
C5577 H5600 0.950 . S
C5578 C5577 1.349 . S
C5578 C5590 1.349 . S
C5579 C5577 1.327 . S
C5579 C5595 1.429 . S
C5579 H5601 0.950 . S
C5580 H5576 0.949 . S
C5580 C5588 1.574 . S
C5580 C5596 1.368 . S
H5581 C5589 0.950 . S
H5582 C5587 0.950 . S
H5583 C5588 0.949 . S
H5584 C5590 0.950 . S
H5585 C5591 0.950 . S
H5586 C5592 0.949 . S
C5587 H5582 0.950 . S
C5587 C5589 1.327 . S
C5587 C5593 1.429 . S
C5588 C5580 1.574 . S
C5588 H5583 0.949 . S
C5588 C5594 1.368 . S
C5589 C5573 1.349 . S
C5589 H5581 0.950 . S
C5589 C5587 1.327 . S
C5590 C5578 1.349 . S
C5590 H5584 0.950 . S
C5590 C5591 1.327 . S
C5591 H5585 0.950 . S
C5591 C5590 1.327 . S
C5591 C5595 1.429 . S
C5592 C5575 1.574 . S
C5592 H5586 0.949 . S
C5592 C5596 1.368 . S
C5593 C5574 1.429 . S
C5593 C5587 1.429 . S
C5593 C5594 1.523 . S
C5594 C5575 1.368 . S
C5594 C5588 1.368 . S
C5594 C5593 1.523 . S
C5595 C5579 1.429 . S
C5595 C5591 1.429 . S
C5595 C5596 1.523 . S
C5596 C5580 1.368 . S
C5596 C5592 1.368 . S
C5596 C5595 1.523 . S
H5597 C5572 0.950 . S
H5598 C5574 0.950 . S
H5599 C5575 0.949 . S
H5600 C5577 0.950 . S
H5601 C5579 0.950 . S
C5602 C5603 1.349 . S
C5602 C5604 1.327 . S
C5602 H5627 0.950 . S
C5603 C5602 1.349 . S
C5603 C5619 1.349 . S
C5604 C5602 1.327 . S
C5604 C5623 1.429 . S
C5604 H5628 0.950 . S
C5605 C5622 1.574 . S
C5605 C5624 1.368 . S
C5605 H5629 0.949 . S
H5606 C5610 0.949 . S
C5607 C5608 1.349 . S
C5607 C5609 1.327 . S
C5607 H5630 0.950 . S
C5608 C5607 1.349 . S
C5608 C5620 1.349 . S
C5609 C5607 1.327 . S
C5609 C5625 1.429 . S
C5609 H5631 0.950 . S
C5610 H5606 0.949 . S
C5610 C5618 1.574 . S
C5610 C5626 1.368 . S
H5611 C5619 0.950 . S
H5612 C5617 0.950 . S
H5613 C5618 0.949 . S
H5614 C5620 0.950 . S
H5615 C5621 0.950 . S
H5616 C5622 0.949 . S
C5617 H5612 0.950 . S
C5617 C5619 1.327 . S
C5617 C5623 1.429 . S
C5618 C5610 1.574 . S
C5618 H5613 0.949 . S
C5618 C5624 1.368 . S
C5619 C5603 1.349 . S
C5619 H5611 0.950 . S
C5619 C5617 1.327 . S
C5620 C5608 1.349 . S
C5620 H5614 0.950 . S
C5620 C5621 1.327 . S
C5621 H5615 0.950 . S
C5621 C5620 1.327 . S
C5621 C5625 1.429 . S
C5622 C5605 1.574 . S
C5622 H5616 0.949 . S
C5622 C5626 1.368 . S
C5623 C5604 1.429 . S
C5623 C5617 1.429 . S
C5623 C5624 1.523 . S
C5624 C5605 1.368 . S
C5624 C5618 1.368 . S
C5624 C5623 1.523 . S
C5625 C5609 1.429 . S
C5625 C5621 1.429 . S
C5625 C5626 1.523 . S
C5626 C5610 1.368 . S
C5626 C5622 1.368 . S
C5626 C5625 1.523 . S
H5627 C5602 0.950 . S
H5628 C5604 0.950 . S
H5629 C5605 0.949 . S
H5630 C5607 0.950 . S
H5631 C5609 0.950 . S
C2753 C665 2.009 . S
C2758 C2122 1.981 . S
C2783 C381 1.673 . S
C2788 C2161 1.631 . S
C2813 C460 0.999 . S
C2818 C2202 1.004 . S
C2848 C2247 1.390 . S
C2843 C585 1.404 . S
C2873 C108 1.966 . S
C2878 C2291 1.938 . S
C2908 C2322 0.961 . S
C2903 C196 0.966 . S
C2938 C2370 1.872 . S
C2933 C313 1.886 . S
C2963 C49 1.453 . S
C2968 C2398 1.437 . S
C2998 C2130 1.131 . S
C2993 C1457 1.142 . S
C3023 C1545 1.091 . S
C3028 C2171 1.061 . S
C3058 C2210 1.504 . S
C3053 C1721 1.496 . S
C3088 C2242 1.194 . S
C3083 C1113 1.177 . S
C3113 C1428 0.341 . S
C3118 C2278 0.242 . S
C3148 C2330 2.345 . S
C3143 C1516 2.364 . S
C3178 C2367 0.609 . S
C3173 C1692 0.597 . S
C3208 C2401 1.831 . S
C3203 C1085 1.841 . S
C3238 C2127 1.714 . S
C3233 C988 1.744 . S
C3263 C1817 1.991 . S
C3268 C2441 1.945 . S
C3298 C2487 0.932 . S
C3293 C2081 0.940 . S
C3328 C2522 1.161 1_655 S
C3323 C1993 1.229 . S
C3353 C761 1.699 . S
C3358 C2411 1.640 . S
C3383 C821 1.279 . S
C3388 C2207 1.264 . S
C3413 C2053 1.286 . S
C3418 C2570 1.281 . S
C3448 C2598 0.102 . S
C3443 C1868 0.117 . S
C3478 C2131 1.976 1_565 S
C3473 C372 2.006 . S
C3508 C2610 1.628 . S
C3503 C645 1.668 . S
C3533 C577 0.992 . S
C3538 C2211 0.996 . S
C3563 C497 1.401 . S
C3568 C2558 1.387 . S
C3598 C2282 1.933 . S
C3593 C57 1.959 . S
C3623 C293 0.962 . S
C3628 C2491 0.956 . S
C3658 C2361 1.873 . S
C3653 C205 1.881 . S
C3688 C2647 1.435 . S
C3683 C145 1.452 1_655 S
C3718 C2121 1.128 . S
C3713 C909 1.139 . S
C3748 C2602 1.054 . S
C3743 C1956 1.083 . S
C3773 C724 1.490 . S
C3778 C2201 1.501 . S
C3803 C1780 1.170 . S
C3808 C2571 1.186 . S
C3833 C937 0.338 . S
C3838 C2287 0.248 . S
C3868 C2481 2.341 . S
C3863 C1985 2.358 . S
C3893 C753 0.589 . S
C3898 C2358 0.607 . S
C3923 C1809 1.838 . S
C3928 C2650 1.827 . S
C3953 C1173 1.753 . S
C3958 C2118 1.712 . S
C3983 C1105 1.986 . S
C3988 C2450 1.941 . S
C4013 C1633 0.939 . S
C4018 C2318 0.929 . S
C4043 C1553 1.226 . S
C4048 C2531 1.214 . S
C4078 C2642 1.638 . S
C4073 C1729 1.705 . S
C4103 C1340 1.277 . S
C4108 C2198 1.261 . S
C4138 C2241 1.278 . S
C4133 C1604 1.280 . S
C4168 C2167 0.103 . S
C4163 C1252 0.108 . S
C4193 C489 2.009 . S
C4198 C2682 1.981 . S
C4228 C2601 1.632 . S
C4223 C557 1.673 . S
C4253 C636 0.999 . S
C4258 C2722 1.004 . S
C4283 C409 1.404 . S
C4288 C2567 1.390 . S
C4313 C284 1.966 . S
C4318 C2451 1.938 . S
C4348 C2482 0.961 . S
C4343 C20 0.966 . S
C4378 C2530 1.872 . S
C4373 C137 1.886 . S
C4408 C2638 1.437 . S
C4403 C225 1.453 . S
C4438 C2690 1.131 . S
C4433 C1641 1.142 . S
C4463 C1193 1.091 . S
C4468 C2611 1.069 . S
C4498 C2730 1.504 . S
C4493 C1289 1.499 . S
C4528 C2562 1.194 . S
C4523 C1377 1.176 . S
C4558 C2438 0.242 . S
C4553 C1613 0.341 . S
C4583 C1164 2.363 . S
C4588 C2490 2.337 . S
C4618 C2527 0.609 . S
C4613 C1261 0.596 . S
C4643 C1349 1.841 . S
C4648 C2641 1.831 . S
C4678 C2687 1.714 . S
C4673 C1965 1.744 . S
C4703 C849 1.992 . S
C4708 C2281 1.945 . S
C4738 C2327 0.932 . S
C4733 C929 0.940 1_565 S
C4768 C2362 1.220 . S
C4763 C1017 1.230 . S
C4798 C2651 1.640 . S
C4793 C1897 1.699 . S
C4823 C1789 1.279 . S
C4828 C2727 1.264 . S
C4858 C2250 1.282 . S
C4853 C900 1.287 . S
C4888 C2158 0.102 . S
C4883 C733 0.117 . S
C4913 C548 2.006 . S
C4918 C2691 1.977 . S
C4948 C2170 1.628 . S
C4943 C469 1.668 . S
C4973 C401 0.992 . S
C4978 C2731 0.996 . S
C5003 C673 1.401 . S
C5008 C2238 1.387 . S
C5033 C233 1.959 . S
C5038 C2442 1.933 . S
C5068 C2331 0.956 . S
C5063 C117 0.962 . S
C5093 C29 1.881 . S
C5098 C2521 1.868 . S
C5123 C321 1.452 . S
C5128 C2407 1.435 . S
C5158 C2681 1.128 . S
C5153 C2044 1.139 . S
C5183 C997 1.083 . S
C5188 C2162 1.054 . S
C5218 C2721 1.501 . S
C5213 C1877 1.490 . S
C5243 C812 1.171 . S
C5248 C2251 1.186 . S
C5273 C2073 0.338 . S
C5278 C2447 0.247 . S
C5308 C2321 2.341 . S
C5303 C1025 2.358 . S
C5333 C1905 0.589 . S
C5338 C2518 0.607 . S
C5368 C2410 1.826 . S
C5363 C841 1.838 . S
C5398 C2678 1.712 . S
C5393 C1525 1.744 . S
C5428 C2290 1.942 1_655 S
C5423 C1369 1.986 . S
C5453 C1465 0.939 . S
C5458 C2478 0.930 . S
C5488 C2371 1.214 . S
C5483 C1201 1.224 . S
C5513 C1281 1.698 . S
C5518 C2402 1.637 . S
C5543 C1076 1.277 . S
C5548 C2718 1.261 . S
C5578 C2561 1.278 . S
C5573 C1437 1.280 . S
C5608 C2607 0.103 . S
C5603 C1701 0.112 . S
