# Generated by pormake.
# Topology gar, (4,6)-cn, num edge types: 1
# Building blocks:
#     Node 0, Type 0, BuildingBlock: QUQFOY_clean_sbu_3, # of connection points: 4
#     Node 1, Type 0, BuildingBlock: QUQFOY_clean_sbu_3, # of connection points: 4
#     Node 2, Type 0, BuildingBlock: QUQFOY_clean_sbu_3, # of connection points: 4
#     Node 3, Type 0, BuildingBlock: QUQFOY_clean_sbu_3, # of connection points: 4
#     Node 4, Type 0, BuildingBlock: QUQFOY_clean_sbu_3, # of connection points: 4
#     Node 5, Type 0, BuildingBlock: QUQFOY_clean_sbu_3, # of connection points: 4
#     Node 6, Type 0, BuildingBlock: QUQFOY_clean_sbu_3, # of connection points: 4
#     Node 7, Type 0, BuildingBlock: QUQFOY_clean_sbu_3, # of connection points: 4
#     Node 8, Type 0, BuildingBlock: QUQFOY_clean_sbu_3, # of connection points: 4
#     Node 9, Type 0, BuildingBlock: QUQFOY_clean_sbu_3, # of connection points: 4
#     Node 10, Type 0, BuildingBlock: QUQFOY_clean_sbu_3, # of connection points: 4
#     Node 11, Type 0, BuildingBlock: QUQFOY_clean_sbu_3, # of connection points: 4
#     Node 12, Type 0, BuildingBlock: QUQFOY_clean_sbu_3, # of connection points: 4
#     Node 13, Type 0, BuildingBlock: QUQFOY_clean_sbu_3, # of connection points: 4
#     Node 14, Type 0, BuildingBlock: QUQFOY_clean_sbu_3, # of connection points: 4
#     Node 15, Type 0, BuildingBlock: QUQFOY_clean_sbu_3, # of connection points: 4
#     Node 16, Type 0, BuildingBlock: QUQFOY_clean_sbu_3, # of connection points: 4
#     Node 17, Type 0, BuildingBlock: QUQFOY_clean_sbu_3, # of connection points: 4
#     Node 18, Type 0, BuildingBlock: QUQFOY_clean_sbu_3, # of connection points: 4
#     Node 19, Type 0, BuildingBlock: QUQFOY_clean_sbu_3, # of connection points: 4
#     Node 20, Type 0, BuildingBlock: QUQFOY_clean_sbu_3, # of connection points: 4
#     Node 21, Type 0, BuildingBlock: QUQFOY_clean_sbu_3, # of connection points: 4
#     Node 22, Type 0, BuildingBlock: QUQFOY_clean_sbu_3, # of connection points: 4
#     Node 23, Type 0, BuildingBlock: QUQFOY_clean_sbu_3, # of connection points: 4
#     Node 24, Type 1, BuildingBlock: NUHQIS_clean_sbu_0, # of connection points: 6
#     Node 25, Type 1, BuildingBlock: NUHQIS_clean_sbu_0, # of connection points: 6
#     Node 26, Type 1, BuildingBlock: NUHQIS_clean_sbu_0, # of connection points: 6
#     Node 27, Type 1, BuildingBlock: NUHQIS_clean_sbu_0, # of connection points: 6
#     Node 28, Type 1, BuildingBlock: NUHQIS_clean_sbu_0, # of connection points: 6
#     Node 29, Type 1, BuildingBlock: NUHQIS_clean_sbu_0, # of connection points: 6
#     Node 30, Type 1, BuildingBlock: NUHQIS_clean_sbu_0, # of connection points: 6
#     Node 31, Type 1, BuildingBlock: NUHQIS_clean_sbu_0, # of connection points: 6
#     Node 32, Type 1, BuildingBlock: NUHQIS_clean_sbu_0, # of connection points: 6
#     Node 33, Type 1, BuildingBlock: NUHQIS_clean_sbu_0, # of connection points: 6
#     Node 34, Type 1, BuildingBlock: NUHQIS_clean_sbu_0, # of connection points: 6
#     Node 35, Type 1, BuildingBlock: NUHQIS_clean_sbu_0, # of connection points: 6
#     Node 36, Type 1, BuildingBlock: NUHQIS_clean_sbu_0, # of connection points: 6
#     Node 37, Type 1, BuildingBlock: NUHQIS_clean_sbu_0, # of connection points: 6
#     Node 38, Type 1, BuildingBlock: NUHQIS_clean_sbu_0, # of connection points: 6
#     Node 39, Type 1, BuildingBlock: NUHQIS_clean_sbu_0, # of connection points: 6
#     Edge 40, Type (0, 1), BuildingBlock: MIFKUJ_clean_linker_0, # of connection points: 2
#     Edge 41, Type (0, 1), BuildingBlock: MIFKUJ_clean_linker_0, # of connection points: 2
#     Edge 42, Type (0, 1), BuildingBlock: MIFKUJ_clean_linker_0, # of connection points: 2
#     Edge 43, Type (0, 1), BuildingBlock: MIFKUJ_clean_linker_0, # of connection points: 2
#     Edge 44, Type (0, 1), BuildingBlock: MIFKUJ_clean_linker_0, # of connection points: 2
#     Edge 45, Type (0, 1), BuildingBlock: MIFKUJ_clean_linker_0, # of connection points: 2
#     Edge 46, Type (0, 1), BuildingBlock: MIFKUJ_clean_linker_0, # of connection points: 2
#     Edge 47, Type (0, 1), BuildingBlock: MIFKUJ_clean_linker_0, # of connection points: 2
#     Edge 48, Type (0, 1), BuildingBlock: MIFKUJ_clean_linker_0, # of connection points: 2
#     Edge 49, Type (0, 1), BuildingBlock: MIFKUJ_clean_linker_0, # of connection points: 2
#     Edge 50, Type (0, 1), BuildingBlock: MIFKUJ_clean_linker_0, # of connection points: 2
#     Edge 51, Type (0, 1), BuildingBlock: MIFKUJ_clean_linker_0, # of connection points: 2
#     Edge 52, Type (0, 1), BuildingBlock: MIFKUJ_clean_linker_0, # of connection points: 2
#     Edge 53, Type (0, 1), BuildingBlock: MIFKUJ_clean_linker_0, # of connection points: 2
#     Edge 54, Type (0, 1), BuildingBlock: MIFKUJ_clean_linker_0, # of connection points: 2
#     Edge 55, Type (0, 1), BuildingBlock: MIFKUJ_clean_linker_0, # of connection points: 2
#     Edge 56, Type (0, 1), BuildingBlock: MIFKUJ_clean_linker_0, # of connection points: 2
#     Edge 57, Type (0, 1), BuildingBlock: MIFKUJ_clean_linker_0, # of connection points: 2
#     Edge 58, Type (0, 1), BuildingBlock: MIFKUJ_clean_linker_0, # of connection points: 2
#     Edge 59, Type (0, 1), BuildingBlock: MIFKUJ_clean_linker_0, # of connection points: 2
#     Edge 60, Type (0, 1), BuildingBlock: MIFKUJ_clean_linker_0, # of connection points: 2
#     Edge 61, Type (0, 1), BuildingBlock: MIFKUJ_clean_linker_0, # of connection points: 2
#     Edge 62, Type (0, 1), BuildingBlock: MIFKUJ_clean_linker_0, # of connection points: 2
#     Edge 63, Type (0, 1), BuildingBlock: MIFKUJ_clean_linker_0, # of connection points: 2
#     Edge 64, Type (0, 1), BuildingBlock: MIFKUJ_clean_linker_0, # of connection points: 2
#     Edge 65, Type (0, 1), BuildingBlock: MIFKUJ_clean_linker_0, # of connection points: 2
#     Edge 66, Type (0, 1), BuildingBlock: MIFKUJ_clean_linker_0, # of connection points: 2
#     Edge 67, Type (0, 1), BuildingBlock: MIFKUJ_clean_linker_0, # of connection points: 2
#     Edge 68, Type (0, 1), BuildingBlock: MIFKUJ_clean_linker_0, # of connection points: 2
#     Edge 69, Type (0, 1), BuildingBlock: MIFKUJ_clean_linker_0, # of connection points: 2
#     Edge 70, Type (0, 1), BuildingBlock: MIFKUJ_clean_linker_0, # of connection points: 2
#     Edge 71, Type (0, 1), BuildingBlock: MIFKUJ_clean_linker_0, # of connection points: 2
#     Edge 72, Type (0, 1), BuildingBlock: MIFKUJ_clean_linker_0, # of connection points: 2
#     Edge 73, Type (0, 1), BuildingBlock: MIFKUJ_clean_linker_0, # of connection points: 2
#     Edge 74, Type (0, 1), BuildingBlock: MIFKUJ_clean_linker_0, # of connection points: 2
#     Edge 75, Type (0, 1), BuildingBlock: MIFKUJ_clean_linker_0, # of connection points: 2
#     Edge 76, Type (0, 1), BuildingBlock: MIFKUJ_clean_linker_0, # of connection points: 2
#     Edge 77, Type (0, 1), BuildingBlock: MIFKUJ_clean_linker_0, # of connection points: 2
#     Edge 78, Type (0, 1), BuildingBlock: MIFKUJ_clean_linker_0, # of connection points: 2
#     Edge 79, Type (0, 1), BuildingBlock: MIFKUJ_clean_linker_0, # of connection points: 2
#     Edge 80, Type (0, 1), BuildingBlock: MIFKUJ_clean_linker_0, # of connection points: 2
#     Edge 81, Type (0, 1), BuildingBlock: MIFKUJ_clean_linker_0, # of connection points: 2
#     Edge 82, Type (0, 1), BuildingBlock: MIFKUJ_clean_linker_0, # of connection points: 2
#     Edge 83, Type (0, 1), BuildingBlock: MIFKUJ_clean_linker_0, # of connection points: 2
#     Edge 84, Type (0, 1), BuildingBlock: MIFKUJ_clean_linker_0, # of connection points: 2
#     Edge 85, Type (0, 1), BuildingBlock: MIFKUJ_clean_linker_0, # of connection points: 2
#     Edge 86, Type (0, 1), BuildingBlock: MIFKUJ_clean_linker_0, # of connection points: 2
#     Edge 87, Type (0, 1), BuildingBlock: MIFKUJ_clean_linker_0, # of connection points: 2
#     Edge 88, Type (0, 1), BuildingBlock: MIFKUJ_clean_linker_0, # of connection points: 2
#     Edge 89, Type (0, 1), BuildingBlock: MIFKUJ_clean_linker_0, # of connection points: 2
#     Edge 90, Type (0, 1), BuildingBlock: MIFKUJ_clean_linker_0, # of connection points: 2
#     Edge 91, Type (0, 1), BuildingBlock: MIFKUJ_clean_linker_0, # of connection points: 2
#     Edge 92, Type (0, 1), BuildingBlock: MIFKUJ_clean_linker_0, # of connection points: 2
#     Edge 93, Type (0, 1), BuildingBlock: MIFKUJ_clean_linker_0, # of connection points: 2
#     Edge 94, Type (0, 1), BuildingBlock: MIFKUJ_clean_linker_0, # of connection points: 2
#     Edge 95, Type (0, 1), BuildingBlock: MIFKUJ_clean_linker_0, # of connection points: 2
#     Edge 96, Type (0, 1), BuildingBlock: MIFKUJ_clean_linker_0, # of connection points: 2
#     Edge 97, Type (0, 1), BuildingBlock: MIFKUJ_clean_linker_0, # of connection points: 2
#     Edge 98, Type (0, 1), BuildingBlock: MIFKUJ_clean_linker_0, # of connection points: 2
#     Edge 99, Type (0, 1), BuildingBlock: MIFKUJ_clean_linker_0, # of connection points: 2
#     Edge 100, Type (0, 1), BuildingBlock: MIFKUJ_clean_linker_0, # of connection points: 2
#     Edge 101, Type (0, 1), BuildingBlock: MIFKUJ_clean_linker_0, # of connection points: 2
#     Edge 102, Type (0, 1), BuildingBlock: MIFKUJ_clean_linker_0, # of connection points: 2
#     Edge 103, Type (0, 1), BuildingBlock: MIFKUJ_clean_linker_0, # of connection points: 2
#     Edge 104, Type (0, 1), BuildingBlock: MIFKUJ_clean_linker_0, # of connection points: 2
#     Edge 105, Type (0, 1), BuildingBlock: MIFKUJ_clean_linker_0, # of connection points: 2
#     Edge 106, Type (0, 1), BuildingBlock: MIFKUJ_clean_linker_0, # of connection points: 2
#     Edge 107, Type (0, 1), BuildingBlock: MIFKUJ_clean_linker_0, # of connection points: 2
#     Edge 108, Type (0, 1), BuildingBlock: MIFKUJ_clean_linker_0, # of connection points: 2
#     Edge 109, Type (0, 1), BuildingBlock: MIFKUJ_clean_linker_0, # of connection points: 2
#     Edge 110, Type (0, 1), BuildingBlock: MIFKUJ_clean_linker_0, # of connection points: 2
#     Edge 111, Type (0, 1), BuildingBlock: MIFKUJ_clean_linker_0, # of connection points: 2
#     Edge 112, Type (0, 1), BuildingBlock: MIFKUJ_clean_linker_0, # of connection points: 2
#     Edge 113, Type (0, 1), BuildingBlock: MIFKUJ_clean_linker_0, # of connection points: 2
#     Edge 114, Type (0, 1), BuildingBlock: MIFKUJ_clean_linker_0, # of connection points: 2
#     Edge 115, Type (0, 1), BuildingBlock: MIFKUJ_clean_linker_0, # of connection points: 2
#     Edge 116, Type (0, 1), BuildingBlock: MIFKUJ_clean_linker_0, # of connection points: 2
#     Edge 117, Type (0, 1), BuildingBlock: MIFKUJ_clean_linker_0, # of connection points: 2
#     Edge 118, Type (0, 1), BuildingBlock: MIFKUJ_clean_linker_0, # of connection points: 2
#     Edge 119, Type (0, 1), BuildingBlock: MIFKUJ_clean_linker_0, # of connection points: 2
#     Edge 120, Type (0, 1), BuildingBlock: MIFKUJ_clean_linker_0, # of connection points: 2
#     Edge 121, Type (0, 1), BuildingBlock: MIFKUJ_clean_linker_0, # of connection points: 2
#     Edge 122, Type (0, 1), BuildingBlock: MIFKUJ_clean_linker_0, # of connection points: 2
#     Edge 123, Type (0, 1), BuildingBlock: MIFKUJ_clean_linker_0, # of connection points: 2
#     Edge 124, Type (0, 1), BuildingBlock: MIFKUJ_clean_linker_0, # of connection points: 2
#     Edge 125, Type (0, 1), BuildingBlock: MIFKUJ_clean_linker_0, # of connection points: 2
#     Edge 126, Type (0, 1), BuildingBlock: MIFKUJ_clean_linker_0, # of connection points: 2
#     Edge 127, Type (0, 1), BuildingBlock: MIFKUJ_clean_linker_0, # of connection points: 2
#     Edge 128, Type (0, 1), BuildingBlock: MIFKUJ_clean_linker_0, # of connection points: 2
#     Edge 129, Type (0, 1), BuildingBlock: MIFKUJ_clean_linker_0, # of connection points: 2
#     Edge 130, Type (0, 1), BuildingBlock: MIFKUJ_clean_linker_0, # of connection points: 2
#     Edge 131, Type (0, 1), BuildingBlock: MIFKUJ_clean_linker_0, # of connection points: 2
#     Edge 132, Type (0, 1), BuildingBlock: MIFKUJ_clean_linker_0, # of connection points: 2
#     Edge 133, Type (0, 1), BuildingBlock: MIFKUJ_clean_linker_0, # of connection points: 2
#     Edge 134, Type (0, 1), BuildingBlock: MIFKUJ_clean_linker_0, # of connection points: 2
#     Edge 135, Type (0, 1), BuildingBlock: MIFKUJ_clean_linker_0, # of connection points: 2
# Relax obj value: 0.168
# Max RMSD: 0.279
# Mean RMSD: 0.128
data_MOF--net-gar--node1-QUQFOY_clean_sbu_3--node2-NUHQIS_clean_sbu_0--edge1-MIFKUJ_clean_linker_0
_symmetry_space_group_name_H-M    P1
_symmetry_Int_Tables_number       1
_symmetry_cell_setting            triclinic
loop_
_symmetry_equiv_pos_as_xyz
'x, y, z'
_cell_length_a     74.498293
_cell_length_b     78.305266
_cell_length_c     74.512119
_cell_angle_alpha  93.826423
_cell_angle_beta   95.845993
_cell_angle_gamma 99.721072
loop_
_atom_site_label
_atom_site_type_symbol
_atom_site_fract_x
_atom_site_fract_y
_atom_site_fract_z
_atom_type_partial_charge
C0 C 0.01366 0.27132 0.37328 0.0
O1 O 0.02476 0.28189 0.36572 0.0
Cd2 Cd 0.05703 0.29032 0.3752 0.0
O3 O 0.02014 0.26358 0.38669 0.0
Cd4 Cd 0.05446 0.2645 0.40482 0.0
C5 C 0.0562 0.31235 0.41654 0.0
O6 O 0.07266 0.26539 0.37648 0.0
O7 O 0.08983 0.27086 0.40147 0.0
O8 O 0.04683 0.23035 0.40681 0.0
C9 C 0.089 0.26821 0.38434 0.0
O10 O 0.0592 0.31314 0.40007 0.0
C11 C 0.05112 0.22926 0.42363 0.0
O12 O 0.0535 0.29704 0.42267 0.0
O13 O 0.05666 0.24416 0.43235 0.0
C14 C 0.99451 0.77036 0.66439 0.0
O15 O 1.00306 0.75811 0.66796 0.0
Cd16 Cd 0.02867 0.76251 0.64984 0.0
O17 O 1.00156 0.78091 0.65323 0.0
Cd18 Cd 0.03363 0.78132 0.6356 0.0
C19 C 0.03265 0.73455 0.6204 0.0
O20 O 0.05617 0.78034 0.66561 0.0
O21 O 0.06849 0.78133 0.64101 0.0
O22 O 0.03615 0.81552 0.63428 0.0
C23 C 0.07091 0.78146 0.65815 0.0
O24 O 0.03448 0.73465 0.6375 0.0
C25 C 0.03577 0.81694 0.61732 0.0
O26 O 0.03023 0.74919 0.61407 0.0
O27 O 0.03434 0.80223 0.60828 0.0
C28 C 0.51453 0.77164 0.87407 0.0
O29 O 0.52586 0.78216 0.8667 0.0
Cd30 Cd 0.55789 0.79071 0.87717 0.0
O31 O 0.52074 0.76392 0.88764 0.0
Cd32 Cd 0.55499 0.76443 0.90604 0.0
C33 C 0.55617 0.81198 0.9187 0.0
O34 O 0.57351 0.76572 0.87778 0.0
O35 O 0.5905 0.77063 0.90286 0.0
O36 O 0.54647 0.73031 0.908 0.0
C37 C 0.58981 0.76829 0.88572 0.0
O38 O 0.55943 0.81317 0.90234 0.0
C39 C 0.55148 0.72907 0.92466 0.0
O40 O 0.55353 0.79651 0.92445 0.0
O41 O 0.55778 0.74388 0.9333 0.0
C42 C 0.49568 0.26913 0.16825 0.0
O43 O 0.50497 0.25838 0.17491 0.0
Cd44 Cd 0.53492 0.25379 0.16724 0.0
O45 O 0.50238 0.27833 0.15576 0.0
Cd46 Cd 0.53419 0.28118 0.13788 0.0
C47 C 0.53171 0.23293 0.12468 0.0
O48 O 0.55654 0.28073 0.16696 0.0
O49 O 0.56895 0.28136 0.14239 0.0
O50 O 0.53591 0.31533 0.13656 0.0
C51 C 0.57123 0.28108 0.15948 0.0
O52 O 0.53325 0.23188 0.14173 0.0
C53 C 0.53552 0.31679 0.1196 0.0
O54 O 0.53096 0.24816 0.11876 0.0
O55 O 0.53426 0.30211 0.11053 0.0
C56 C 0.05446 0.82164 0.18431 0.0
O57 O 0.06721 0.81863 0.19569 0.0
Cd58 Cd 0.0991 0.82371 0.19267 0.0
O59 O 0.05805 0.82847 0.16973 0.0
Cd60 Cd 0.08532 0.83936 0.1544 0.0
C61 C 0.09615 0.79881 0.15218 0.0
O62 O 0.10405 0.85155 0.18154 0.0
O63 O 0.11884 0.85102 0.15841 0.0
O64 O 0.07117 0.86305 0.14356 0.0
C65 C 0.11929 0.85468 0.17532 0.0
O66 O 0.10151 0.80109 0.1691 0.0
C67 C 0.07205 0.85894 0.12692 0.0
O68 O 0.08913 0.8103 0.14403 0.0
O69 O 0.07937 0.84583 0.12314 0.0
C70 C 0.48632 0.73213 0.36096 0.0
O71 O 0.50108 0.73849 0.35487 0.0
Cd72 Cd 0.53137 0.74041 0.36929 0.0
O73 O 0.48665 0.72579 0.37631 0.0
Cd74 Cd 0.51123 0.72252 0.40059 0.0
C75 C 0.52708 0.76575 0.40712 0.0
O76 O 0.53227 0.71301 0.38127 0.0
O77 O 0.54415 0.72201 0.40838 0.0
O78 O 0.49607 0.69456 0.40873 0.0
C79 C 0.54606 0.71495 0.39306 0.0
O80 O 0.53491 0.76445 0.39281 0.0
C81 C 0.49713 0.69925 0.42552 0.0
O82 O 0.51672 0.75272 0.41211 0.0
O83 O 0.50373 0.71508 0.43045 0.0
C84 C 0.56154 0.32124 0.68943 0.0
O85 O 0.57587 0.31894 0.69908 0.0
Cd86 Cd 0.60602 0.32282 0.69021 0.0
O87 O 0.56247 0.32707 0.6739 0.0
Cd88 Cd 0.58643 0.33754 0.65429 0.0
C89 C 0.59618 0.29674 0.65012 0.0
O90 O 0.60964 0.35051 0.67833 0.0
O91 O 0.61929 0.34822 0.65234 0.0
O92 O 0.56961 0.36013 0.64445 0.0
C93 C 0.62304 0.35285 0.66911 0.0
O94 O 0.60407 0.2991 0.66632 0.0
C95 C 0.57031 0.35636 0.62769 0.0
O96 O 0.58829 0.30832 0.64318 0.0
O97 O 0.57835 0.34385 0.62352 0.0
C98 C 1.00034 0.22893 0.84952 0.0
O99 O 0.01467 0.23715 0.84403 0.0
Cd100 Cd 0.04402 0.24561 0.86127 0.0
O101 O 1.00089 0.22353 0.8653 0.0
Cd102 Cd 0.02442 0.22462 0.89166 0.0
C103 C 0.02907 0.26814 0.89628 0.0
O104 O 0.05129 0.22201 0.87708 0.0
O105 O 0.0566 0.23351 0.9045 0.0
O106 O 0.01622 0.19459 0.89801 0.0
C107 C 0.063 0.22825 0.89043 0.0
O108 O 0.03921 0.26834 0.88348 0.0
C109 C 0.01357 0.19807 0.91433 0.0
O110 O 0.02065 0.25389 0.90101 0.0
O111 O 0.01479 0.21401 0.91971 0.0
C112 C 0.51015 0.06708 0.30904 0.0
O113 O 0.51854 0.05944 0.29781 0.0
Cd114 Cd 0.50638 0.04663 0.26808 0.0
O115 O 0.49404 0.06998 0.3045 0.0
Cd116 Cd 0.47077 0.06492 0.27766 0.0
C117 C 0.46822 0.02164 0.28199 0.0
O118 O 0.48962 0.06577 0.25341 0.0
O119 O 0.4615 0.05341 0.24627 0.0
O120 O 0.46258 0.09369 0.27681 0.0
C121 C 0.47731 0.05773 0.24134 0.0
O122 O 0.48343 0.02267 0.27529 0.0
C123 C 0.44615 0.08873 0.27998 0.0
O124 O 0.46111 0.03512 0.28509 0.0
O125 O 0.44153 0.07288 0.28296 0.0
C126 C 0.34599 0.12701 0.52352 0.0
O127 O 0.33548 0.12141 0.53495 0.0
Cd128 Cd 0.31322 0.1407 0.53238 0.0
O129 O 0.34088 0.13903 0.51408 0.0
Cd130 Cd 0.30831 0.1532 0.51401 0.0
C131 C 0.31007 0.16949 0.56115 0.0
O132 O 0.28438 0.12454 0.51923 0.0
O133 O 0.27299 0.14626 0.5104 0.0
O134 O 0.30658 0.15528 0.47897 0.0
C135 C 0.27001 0.13065 0.51453 0.0
O136 O 0.31043 0.15349 0.56227 0.0
C137 C 0.30837 0.17171 0.47847 0.0
O138 O 0.31035 0.17485 0.54513 0.0
O139 O 0.3104 0.17991 0.49412 0.0
C140 C 0.16376 0.03297 0.84119 0.0
O141 O 0.15461 0.03668 0.82709 0.0
Cd142 Cd 0.1642 0.03864 0.79768 0.0
O143 O 0.18018 0.03033 0.84092 0.0
Cd144 Cd 0.20295 0.03077 0.81866 0.0
C145 C 0.2007 0.07235 0.80893 0.0
O146 O 0.18083 0.01558 0.79486 0.0
O147 O 0.20698 0.0251 0.78631 0.0
O148 O 0.21434 0.0072 0.83327 0.0
C149 C 0.19077 0.0169 0.78209 0.0
O150 O 0.18517 0.06631 0.79998 0.0
C151 C 0.23119 0.01376 0.83375 0.0
O152 O 0.2095 0.0626 0.81811 0.0
O153 O 0.23491 0.02871 0.82798 0.0
C154 C 0.33672 0.89928 0.02987 0.0
O155 O 0.32743 0.90824 0.02029 0.0
Cd156 Cd 0.29505 0.90283 0.01382 0.0
O157 O 0.32883 0.88585 0.03672 0.0
Cd158 Cd 0.29614 0.86967 0.03634 0.0
C159 C 0.29001 0.86285 0.98983 0.0
O160 O 0.28414 0.89649 0.04206 0.0
O161 O 0.26357 0.87344 0.03639 0.0
O162 O 0.30754 0.86359 0.06699 0.0
C163 C 0.26739 0.8896 0.04111 0.0
O164 O 0.28928 0.87898 0.99028 0.0
C165 C 0.29861 0.84821 0.06636 0.0
O166 O 0.29304 0.85569 0.0045 0.0
O167 O 0.28892 0.8424 0.05149 0.0
C168 C 0.31199 0.42812 0.02375 0.0
O169 O 0.30177 0.43439 0.01219 0.0
Cd170 Cd 0.26927 0.42437 0.00481 0.0
O171 O 0.30454 0.41579 0.03278 0.0
Cd172 Cd 0.26981 0.39786 0.03289 0.0
C173 C 0.26864 0.38379 0.98449 0.0
O174 O 0.2528 0.42451 0.03152 0.0
O175 O 0.23483 0.4001 0.02829 0.0
O176 O 0.27695 0.3956 0.06769 0.0
C177 C 0.23626 0.41657 0.02994 0.0
O178 O 0.26608 0.39924 0.98239 0.0
C179 C 0.27184 0.37932 0.06837 0.0
O180 O 0.27107 0.37926 0.00084 0.0
O181 O 0.26587 0.37124 0.05291 0.0
C182 C 0.80838 0.14362 0.02239 0.0
O183 O 0.79653 0.13476 0.03076 0.0
Cd184 Cd 0.76697 0.1409 0.0348 0.0
O185 O 0.80491 0.15717 0.01504 0.0
Cd186 Cd 0.77807 0.17302 0.01091 0.0
C187 C 0.77846 0.18237 0.05653 0.0
O188 O 0.75505 0.1468 0.00565 0.0
O189 O 0.74412 0.17026 0.00971 0.0
O190 O 0.78381 0.17416 0.97932 0.0
C191 C 0.74108 0.15395 0.00572 0.0
O192 O 0.77164 0.16631 0.05639 0.0
C193 C 0.78336 0.19016 0.97817 0.0
O194 O 0.78351 0.1887 0.04208 0.0
O195 O 0.78133 0.19883 0.99266 0.0
C196 C 0.07246 0.47574 0.30142 0.0
O197 O 0.05693 0.47718 0.29356 0.0
Cd198 Cd 0.06558 0.49042 0.26601 0.0
O199 O 0.08181 0.467 0.29235 0.0
Cd200 Cd 0.10915 0.47981 0.27992 0.0
C201 C 0.10134 0.5219 0.28786 0.0
O202 O 0.08735 0.47438 0.25389 0.0
O203 O 0.115 0.48266 0.24798 0.0
O204 O 0.12253 0.4545 0.28731 0.0
C205 C 0.09803 0.47902 0.24226 0.0
O206 O 0.08528 0.51807 0.27915 0.0
C207 C 0.13841 0.46311 0.29278 0.0
O208 O 0.11139 0.51039 0.29025 0.0
O209 O 0.14059 0.47952 0.29232 0.0
C210 C 0.81246 0.93069 0.52879 0.0
O211 O 0.80246 0.93828 0.51829 0.0
Cd212 Cd 0.77064 0.92693 0.5082 0.0
O213 O 0.80492 0.91711 0.53605 0.0
Cd214 Cd 0.77023 0.89912 0.53658 0.0
C215 C 0.77135 0.88566 0.48863 0.0
O216 O 0.75329 0.92577 0.53425 0.0
O217 O 0.73527 0.90146 0.5328 0.0
O218 O 0.77775 0.89681 0.5714 0.0
C219 C 0.73674 0.9179 0.53314 0.0
O220 O 0.77052 0.90154 0.4866 0.0
C221 C 0.77253 0.88052 0.57204 0.0
O222 O 0.77139 0.8805 0.50477 0.0
O223 O 0.76634 0.87253 0.55659 0.0
C224 C 0.94216 0.00398 0.24824 0.0
O225 O 0.9485 0.99695 0.23494 0.0
Cd226 Cd 0.93479 0.9923 0.20445 0.0
O227 O 0.92675 0.00915 0.24622 0.0
Cd228 Cd 0.90157 0.01067 0.22168 0.0
C229 C 0.89433 0.96638 0.2114 0.0
O230 O 0.9246 0.01933 0.2033 0.0
O231 O 0.89789 0.02023 0.19004 0.0
O232 O 0.89776 0.03632 0.24018 0.0
C233 C 0.91507 0.02264 0.18946 0.0
O234 O 0.91005 0.96784 0.20578 0.0
C235 C 0.88036 0.0332 0.23797 0.0
O236 O 0.88836 0.97961 0.21766 0.0
O237 O 0.87275 0.01933 0.22841 0.0
C238 C 0.31732 0.6467 0.52616 0.0
O239 O 0.3058 0.63741 0.53453 0.0
Cd240 Cd 0.27542 0.6412 0.53801 0.0
O241 O 0.31324 0.66 0.5187 0.0
Cd242 Cd 0.28567 0.67477 0.51486 0.0
C243 C 0.28444 0.68235 0.56051 0.0
O244 O 0.26498 0.6473 0.50854 0.0
O245 O 0.25158 0.66938 0.51101 0.0
O246 O 0.29451 0.67924 0.48456 0.0
C247 C 0.25017 0.65314 0.50741 0.0
O248 O 0.27839 0.6661 0.55994 0.0
C249 C 0.29021 0.69418 0.48365 0.0
O250 O 0.28946 0.68929 0.54635 0.0
O251 O 0.28495 0.70081 0.49781 0.0
C252 C 0.44391 0.50874 0.74306 0.0
O253 O 0.45041 0.50258 0.72942 0.0
Cd254 Cd 0.43524 0.49888 0.69939 0.0
O255 O 0.42833 0.51357 0.74134 0.0
Cd256 Cd 0.40338 0.51575 0.71707 0.0
C257 C 0.39609 0.47172 0.70723 0.0
O258 O 0.4254 0.52631 0.69768 0.0
O259 O 0.39774 0.5224 0.68476 0.0
O260 O 0.39975 0.5416 0.73533 0.0
C261 C 0.41464 0.52781 0.6839 0.0
O262 O 0.4111 0.47357 0.70019 0.0
C263 C 0.38237 0.5382 0.73384 0.0
O264 O 0.39062 0.48481 0.71449 0.0
O265 O 0.37467 0.52417 0.72463 0.0
C266 C 0.58483 0.99164 0.77366 0.0
O267 O 0.57471 0.99153 0.75883 0.0
Cd268 Cd 0.58107 0.98219 0.72937 0.0
O269 O 0.59932 0.98492 0.77434 0.0
Cd270 Cd 0.61616 0.96899 0.75366 0.0
C271 C 0.62437 0.0068 0.73284 0.0
O272 O 0.59016 0.9549 0.73339 0.0
O273 O 0.61596 0.95261 0.72414 0.0
O274 O 0.62578 0.94911 0.77555 0.0
C275 C 0.59865 0.94973 0.72083 0.0
O276 O 0.60774 0.0045 0.72571 0.0
C277 C 0.64274 0.95409 0.77421 0.0
O278 O 0.62998 0.99612 0.74328 0.0
O279 O 0.64684 0.96583 0.76364 0.0
C280 C 0.84674 0.62826 0.0283 0.0
O281 O 0.83654 0.62363 0.04034 0.0
Cd282 Cd 0.81234 0.64077 0.03587 0.0
O283 O 0.84119 0.63928 0.01776 0.0
Cd284 Cd 0.80922 0.654 0.01736 0.0
C285 C 0.80861 0.66939 0.06439 0.0
O286 O 0.785 0.62487 0.01855 0.0
O287 O 0.77413 0.64835 0.01784 0.0
O288 O 0.80725 0.65605 0.98228 0.0
C289 C 0.77075 0.63188 0.01757 0.0
O290 O 0.80561 0.65301 0.06475 0.0
C291 C 0.80933 0.67247 0.98174 0.0
O292 O 0.81235 0.67519 0.04911 0.0
O293 O 0.81156 0.68071 0.99737 0.0
C294 C 0.01708 0.57022 0.81041 0.0
O295 O 0.02396 0.56194 0.79837 0.0
Cd296 Cd 0.01047 0.55094 0.76843 0.0
O297 O 1.00137 0.5745 0.80703 0.0
Cd298 Cd 0.97669 0.57094 0.78135 0.0
C299 C 0.97184 0.52678 0.78189 0.0
O300 O 0.99473 0.5722 0.75647 0.0
O301 O 0.96599 0.56244 0.74936 0.0
O302 O 0.96758 0.59952 0.78322 0.0
C303 C 0.98183 0.56571 0.74425 0.0
O304 O 0.98672 0.52721 0.77471 0.0
C305 C 0.95166 0.59377 0.78739 0.0
O306 O 0.96599 0.5407 0.78629 0.0
O307 O 0.9479 0.57766 0.78955 0.0
C308 C 0.83531 0.40611 0.52489 0.0
O309 O 0.82503 0.41454 0.51576 0.0
Cd310 Cd 0.79263 0.4076 0.51039 0.0
O311 O 0.82855 0.39257 0.53226 0.0
Cd312 Cd 0.79705 0.37526 0.53424 0.0
C313 C 0.78984 0.36701 0.48785 0.0
O314 O 0.78305 0.4007 0.53889 0.0
O315 O 0.76371 0.3768 0.53336 0.0
O316 O 0.80767 0.37389 0.56616 0.0
C317 C 0.76658 0.39305 0.53779 0.0
O318 O 0.78791 0.38286 0.48804 0.0
C319 C 0.80246 0.3577 0.56687 0.0
O320 O 0.79396 0.3604 0.50265 0.0
O321 O 0.79515 0.34912 0.55206 0.0
C322 C 0.66464 0.52217 0.33916 0.0
O323 O 0.65398 0.52535 0.32587 0.0
Cd324 Cd 0.6626 0.53423 0.29779 0.0
O325 O 0.68178 0.523 0.33827 0.0
Cd326 Cd 0.70314 0.52761 0.31447 0.0
C327 C 0.69725 0.56949 0.31174 0.0
O328 O 0.6805 0.51281 0.29114 0.0
O329 O 0.70475 0.52536 0.28105 0.0
O330 O 0.71642 0.504 0.32667 0.0
C331 C 0.68903 0.51591 0.27763 0.0
O332 O 0.68113 0.56353 0.30403 0.0
C333 C 0.73299 0.51107 0.32633 0.0
O334 O 0.7078 0.55931 0.31748 0.0
O335 O 0.73581 0.52622 0.32089 0.0
Tb336 Tb 0.02837 0.02697 0.01089 0.0
Eu337 Eu 0.06643 0.03596 0.03974 0.0
C338 C 0.06627 0.02729 0.99714 0.0
C339 C 0.04528 0.99763 0.02875 0.0
C340 C 0.98456 0.03413 0.9904 0.0
C341 C 0.95319 0.03854 0.98364 0.0
C342 C 0.96658 0.02804 0.98241 0.0
C343 C 0.98907 0.05085 0.99944 0.0
C344 C 0.97578 0.06135 0.00062 0.0
C345 C 0.95765 0.05526 0.99286 0.0
C346 C 0.99838 0.02275 0.99083 0.0
O347 O 0.02154 0.04111 0.03434 0.0
O348 O 0.04245 0.03427 0.05619 0.0
O349 O 0.05832 0.06201 0.03675 0.0
O350 O 0.0405 0.05406 0.00922 0.0
C351 C 0.02697 0.03953 0.0513 0.0
O352 O 0.08123 0.03021 0.06477 0.0
O353 O 0.0953 0.04747 0.04718 0.0
O354 O 0.07378 0.03779 0.01138 0.0
O355 O 0.04948 0.01853 0.99619 0.0
O356 O 0.03007 1.0036 0.02477 0.0
O357 O 0.06123 0.00781 0.02999 0.0
C358 C 0.04919 0.06585 0.02199 0.0
O359 O 0.01409 0.02933 0.98559 0.0
O360 O 1.00058 0.01543 0.00591 0.0
C361 C 0.11105 0.02678 0.06012 0.0
C362 C 0.13612 1.00348 0.05961 0.0
C363 C 0.13832 0.01706 0.07348 0.0
C364 C 0.1258 0.02857 0.07378 0.0
C365 C 0.10904 0.01347 0.0461 0.0
C366 C 0.12139 1.0019 0.04588 0.0
C367 C 0.09706 0.03797 0.06079 0.0
H368 H 0.93933 0.03356 0.97746 0.0
H369 H 0.96282 0.0151 0.97554 0.0
H370 H 1.00285 0.05568 0.00582 0.0
H371 H 0.97961 0.07408 0.00797 0.0
H372 H 0.14948 0.01855 0.08429 0.0
H373 H 0.1275 0.0387 0.08476 0.0
H374 H 0.09779 0.01191 0.03538 0.0
H375 H 0.11946 0.99177 0.03487 0.0
Tb376 Tb 0.29274 0.78484 0.2806 0.0
Eu377 Eu 0.27032 0.74631 0.26374 0.0
C378 C 0.25102 0.77896 0.27036 0.0
C379 C 0.27759 0.75652 0.30603 0.0
C380 C 0.32372 0.82883 0.29074 0.0
C381 C 0.33186 0.85879 0.28362 0.0
C382 C 0.31861 0.84414 0.28475 0.0
C383 C 0.34242 0.82832 0.2951 0.0
C384 C 0.3557 0.84302 0.29402 0.0
C385 C 0.35051 0.85852 0.28864 0.0
C386 C 0.3094 0.81435 0.29426 0.0
O387 O 0.31307 0.77141 0.26998 0.0
O388 O 0.29905 0.74402 0.27441 0.0
O389 O 0.28337 0.75809 0.24021 0.0
O390 O 0.28815 0.78687 0.25151 0.0
C391 C 0.31392 0.75522 0.2729 0.0
O392 O 0.26843 0.71806 0.26075 0.0
O393 O 0.24635 0.72972 0.24864 0.0
O394 O 0.25215 0.76595 0.25882 0.0
O395 O 0.26403 0.78436 0.28368 0.0
O396 O 0.29149 0.76818 0.30283 0.0
O397 O 0.26488 0.74929 0.29294 0.0
C398 C 0.28684 0.77485 0.23794 0.0
O399 O 0.29394 0.81185 0.28375 0.0
O400 O 0.31447 0.79973 0.29803 0.0
C401 C 0.23836 0.703 0.26125 0.0
C402 C 0.21338 0.67912 0.27726 0.0
C403 C 0.22527 0.67323 0.2657 0.0
C404 C 0.23762 0.68508 0.25773 0.0
C405 C 0.22673 0.70895 0.27303 0.0
C406 C 0.21425 0.69711 0.28086 0.0
C407 C 0.25161 0.71534 0.25299 0.0
H408 H 0.32745 0.87045 0.27912 0.0
H409 H 0.3043 0.84497 0.28143 0.0
H410 H 0.34678 0.81676 0.2999 0.0
H411 H 0.36994 0.84244 0.29809 0.0
H412 H 0.22477 0.65945 0.26252 0.0
H413 H 0.24657 0.68025 0.24878 0.0
H414 H 0.22727 0.72275 0.27616 0.0
H415 H 0.20537 0.70201 0.28983 0.0
Tb416 Tb 0.53134 0.00963 0.52333 0.0
Eu417 Eu 0.55866 0.04619 0.53381 0.0
C418 C 0.54546 0.02089 0.56268 0.0
C419 C 0.51352 0.04447 0.52913 0.0
C420 C 0.516 0.96344 0.50846 0.0
C421 C 0.50773 0.93215 0.50284 0.0
C422 C 0.50335 0.94809 0.50867 0.0
C423 C 0.5331 0.96277 0.50236 0.0
C424 C 0.5375 0.94684 0.49651 0.0
C425 C 0.52488 0.93136 0.49677 0.0
C426 C 0.51184 0.97994 0.51575 0.0
O427 O 0.5419 0.01796 0.49849 0.0
O428 O 0.54498 0.047 0.50591 0.0
O429 O 0.57768 0.02747 0.52511 0.0
O430 O 0.55881 1.00188 0.52856 0.0
C431 C 0.54223 0.0338 0.49372 0.0
O432 O 0.57871 0.06801 0.52715 0.0
O433 O 0.57148 0.06639 0.55465 0.0
O434 O 0.56001 0.02968 0.55711 0.0
O435 O 0.5303 0.01716 0.55167 0.0
O436 O 0.51158 0.02807 0.52228 0.0
O437 O 0.52992 0.05309 0.53615 0.0
C438 C 0.57536 0.0105 0.52667 0.0
O439 O 0.52027 0.9855 0.53177 0.0
O440 O 0.51255 0.99232 0.50483 0.0
C441 C 0.57893 0.09433 0.54489 0.0
C442 C 0.57847 0.12969 0.55346 0.0
C443 C 0.5942 0.12445 0.54761 0.0
C444 C 0.59444 0.10683 0.54345 0.0
C445 C 0.56279 0.09967 0.54947 0.0
C446 C 0.56261 0.11723 0.55386 0.0
C447 C 0.5803 0.07583 0.54343 0.0
H448 H 0.49764 0.92046 0.50293 0.0
H449 H 0.49015 0.94843 0.51348 0.0
H450 H 0.5431 0.97454 0.50232 0.0
H451 H 0.55086 0.9466 0.49206 0.0
H452 H 0.60661 0.13385 0.54731 0.0
H453 H 0.60699 0.10291 0.53991 0.0
H454 H 0.55059 0.09021 0.55048 0.0
H455 H 0.5503 0.12103 0.5582 0.0
Tb456 Tb 0.2746 0.28324 0.76512 0.0
Eu457 Eu 0.31324 0.27409 0.78055 0.0
C458 C 0.31113 0.30764 0.75997 0.0
C459 C 0.29616 0.26294 0.73828 0.0
C460 C 0.22745 0.29011 0.76462 0.0
C461 C 0.21 0.30498 0.78448 0.0
C462 C 0.22272 0.30554 0.77191 0.0
C463 C 0.21812 0.27405 0.76896 0.0
C464 C 0.20535 0.27349 0.7814 0.0
C465 C 0.20174 0.28894 0.78984 0.0
C466 C 0.24389 0.29098 0.75504 0.0
O467 O 0.26872 0.25614 0.77122 0.0
O468 O 0.29243 0.25618 0.79319 0.0
O469 O 0.30577 0.29257 0.80285 0.0
O470 O 0.27477 0.28745 0.795 0.0
C471 C 0.27637 0.24905 0.78482 0.0
O472 O 0.33138 0.25526 0.78511 0.0
O473 O 0.34081 0.28243 0.79439 0.0
O474 O 0.31979 0.29454 0.76137 0.0
O475 O 0.29475 0.30677 0.76511 0.0
O476 O 0.28597 0.27513 0.7401 0.0
O477 O 0.30536 0.25839 0.75279 0.0
C478 C 0.28913 0.29365 0.80702 0.0
O479 O 0.25798 0.30224 0.76252 0.0
O480 O 0.24862 0.27625 0.75008 0.0
C481 C 0.36177 0.26732 0.78208 0.0
C482 C 0.39357 0.26909 0.76444 0.0
C483 C 0.39274 0.26186 0.78121 0.0
C484 C 0.37692 0.26102 0.78999 0.0
C485 C 0.36235 0.27413 0.76518 0.0
C486 C 0.37813 0.27509 0.75648 0.0
C487 C 0.34541 0.26722 0.79143 0.0
H488 H 0.20743 0.31709 0.79072 0.0
H489 H 0.22969 0.31808 0.76872 0.0
H490 H 0.22131 0.26189 0.76348 0.0
H491 H 0.19876 0.26093 0.7849 0.0
H492 H 0.40432 0.25693 0.78759 0.0
H493 H 0.3766 0.25562 0.80299 0.0
H494 H 0.3507 0.27902 0.75887 0.0
H495 H 0.37838 0.28101 0.74376 0.0
Tb496 Tb 0.04262 0.01488 0.50367 0.0
Eu497 Eu 0.04401 0.034 0.54264 0.0
C498 C 0.08082 0.03677 0.523 0.0
C499 C 0.04656 0.99175 0.5384 0.0
C500 C 0.04503 0.00682 0.45467 0.0
C501 C 0.0433 1.00061 0.42225 0.0
C502 C 0.04333 0.99484 0.43956 0.0
C503 C 0.04795 0.02471 0.45249 0.0
C504 C 0.04774 0.0305 0.43516 0.0
C505 C 0.04482 0.01846 0.41987 0.0
C506 C 0.04137 1.00054 0.47222 0.0
O507 O 0.0159 0.00447 0.51289 0.0
O508 O 0.01334 0.02694 0.53282 0.0
O509 O 0.04351 0.05665 0.52433 0.0
O510 O 0.03757 0.04131 0.49652 0.0
C511 C 1.0058 0.01238 0.52306 0.0
O512 O 0.03546 0.03451 0.56983 0.0
O513 O 0.05393 0.05643 0.56218 0.0
O514 O 0.07419 0.0347 0.53859 0.0
O515 O 0.06989 0.03189 0.50784 0.0
O516 O 0.04811 0.99344 0.52096 0.0
O517 O 0.04463 0.00548 0.54893 0.0
C518 C 0.04046 0.05647 0.5065 0.0
O519 O 0.05548 1.00183 0.48447 0.0
O520 O 0.02741 0.00568 0.47879 0.0
C521 C 0.05949 0.04793 0.59146 0.0
C522 C 0.08327 0.04375 0.62198 0.0
C523 C 0.06672 0.04965 0.62406 0.0
C524 C 0.0549 0.05175 0.60886 0.0
C525 C 0.07603 0.04214 0.58936 0.0
C526 C 0.08786 0.04014 0.60448 0.0
C527 C 0.04668 0.04892 0.57546 0.0
H528 H 0.04074 0.99102 0.41069 0.0
H529 H 0.041 0.981 0.44105 0.0
H530 H 0.04939 0.03412 0.4641 0.0
H531 H 0.04898 0.04431 0.43367 0.0
H532 H 0.06291 0.05259 0.63742 0.0
H533 H 0.0421 0.0561 0.61067 0.0
H534 H 0.07967 0.03888 0.576 0.0
H535 H 0.10035 0.03529 0.60246 0.0
Tb536 Tb 0.28207 0.75627 0.77905 0.0
Eu537 Eu 0.29728 0.79594 0.76924 0.0
C538 C 0.28216 0.78812 0.80711 0.0
C539 C 0.25393 0.77728 0.75736 0.0
C540 C 0.27932 0.70963 0.7864 0.0
C541 C 0.27677 0.67895 0.79085 0.0
C542 C 0.26957 0.69431 0.79182 0.0
C543 C 0.29648 0.70957 0.78025 0.0
C544 C 0.30368 0.69423 0.77925 0.0
C545 C 0.29385 0.67871 0.78442 0.0
C546 C 0.2713 0.72547 0.78661 0.0
O547 O 0.29605 0.75309 0.75492 0.0
O548 O 0.29568 0.77948 0.74328 0.0
O549 O 0.32331 0.78582 0.77933 0.0
O550 O 0.31086 0.76126 0.7921 0.0
C551 C 0.29718 0.76306 0.74138 0.0
O552 O 0.29147 0.82135 0.76323 0.0
O553 O 0.31933 0.81683 0.76432 0.0
O554 O 0.29439 0.7977 0.7989 0.0
O555 O 0.27289 0.77322 0.7994 0.0
O556 O 0.25782 0.76238 0.76259 0.0
O557 O 0.26632 0.79168 0.76031 0.0
C558 C 0.32526 0.77286 0.78944 0.0
O559 O 0.27932 0.73807 0.79853 0.0
O560 O 0.26769 0.73109 0.77084 0.0
C561 C 0.31431 0.8446 0.77487 0.0
C562 C 0.31753 0.876 0.79656 0.0
C563 C 0.31856 0.87608 0.77781 0.0
C564 C 0.31687 0.86046 0.76704 0.0
C565 C 0.31455 0.84451 0.79371 0.0
C566 C 0.31611 0.8601 0.80449 0.0
C567 C 0.3086 0.82834 0.76324 0.0
H568 H 0.26897 0.66727 0.79513 0.0
H569 H 0.25631 0.69419 0.79663 0.0
H570 H 0.30415 0.72132 0.77595 0.0
H571 H 0.31674 0.69445 0.77399 0.0
H572 H 0.31942 0.8881 0.77129 0.0
H573 H 0.31654 0.86072 0.75249 0.0
H574 H 0.31254 0.83233 0.79996 0.0
H575 H 0.31541 0.85967 0.81891 0.0
Tb576 Tb 0.55114 0.01763 0.03803 0.0
Eu577 Eu 0.52793 0.02591 0.00178 0.0
C578 C 0.54188 0.98834 0.00438 0.0
C579 C 0.57122 0.03881 0.00893 0.0
C580 C 0.56534 0.99644 0.07825 0.0
C581 C 0.57389 0.98422 0.10618 0.0
C582 C 0.57884 0.99378 0.09171 0.0
C583 C 0.54729 0.9878 0.07815 0.0
C584 C 0.54223 0.97867 0.09277 0.0
C585 C 0.55526 0.97788 0.10767 0.0
C586 C 0.56943 0.00979 0.06571 0.0
O587 O 0.55052 0.04613 0.04295 0.0
O588 O 0.52564 0.04802 0.02307 0.0
O589 O 0.50779 0.0079 0.01486 0.0
O590 O 0.52281 0.00937 0.04354 0.0
C591 C 0.53786 0.05507 0.03685 0.0
O592 O 0.5103 0.04175 0.98779 0.0
O593 O 0.51753 0.01959 0.97333 0.0
O594 O 0.53936 1.00096 0.9939 0.0
O595 O 0.54334 0.99176 0.02215 0.0
O596 O 0.57189 0.02728 0.02086 0.0
O597 O 0.55566 0.04188 0.00126 0.0
C598 C 0.50813 0.00435 0.0318 0.0
O599 O 0.57114 0.00417 0.04926 0.0
O600 O 0.55915 0.02171 0.06596 0.0
C601 C 0.51622 0.04427 0.95766 0.0
C602 C 0.52777 0.06048 0.92722 0.0
C603 C 0.50911 0.05766 0.93003 0.0
C604 C 0.50337 0.04948 0.94511 0.0
C605 C 0.53493 0.04839 0.95575 0.0
C606 C 0.54065 0.05634 0.94066 0.0
C607 C 0.51028 0.03352 0.97205 0.0
H608 H 0.58444 0.98323 0.11698 0.0
H609 H 0.59297 1.00003 0.09169 0.0
H610 H 0.53679 0.9894 0.06756 0.0
H611 H 0.52775 0.974 0.09309 0.0
H612 H 0.49885 0.06098 0.92015 0.0
H613 H 0.48887 0.04659 0.94658 0.0
H614 H 0.54506 0.04454 0.9654 0.0
H615 H 0.55509 0.058 0.93899 0.0
Tb616 Tb 0.29886 0.29173 0.28289 0.0
Eu617 Eu 0.28178 0.255 0.2614 0.0
C618 C 0.2994 0.2569 0.30415 0.0
C619 C 0.32525 0.27146 0.26018 0.0
C620 C 0.29947 0.33552 0.30231 0.0
C621 C 0.29413 0.36121 0.31963 0.0
C622 C 0.3052 0.34881 0.31629 0.0
C623 C 0.28276 0.33489 0.29155 0.0
C624 C 0.27179 0.34721 0.29482 0.0
C625 C 0.27717 0.36034 0.30907 0.0
C626 C 0.30992 0.32145 0.29962 0.0
O627 O 0.28589 0.29976 0.2571 0.0
O628 O 0.28022 0.27401 0.23946 0.0
O629 O 0.25628 0.26375 0.27162 0.0
O630 O 0.2708 0.28656 0.29155 0.0
C631 C 0.28187 0.29108 0.24089 0.0
O632 O 0.27915 0.2373 0.23698 0.0
O633 O 0.26431 0.2294 0.25928 0.0
O634 O 0.28903 0.24776 0.2902 0.0
O635 O 0.30686 0.27333 0.3027 0.0
O636 O 0.32196 0.28619 0.26787 0.0
O637 O 0.31281 0.25714 0.25945 0.0
C638 C 0.2558 0.27529 0.28529 0.0
O639 O 0.30428 0.30755 0.30746 0.0
O640 O 0.31255 0.31755 0.28298 0.0
C641 C 0.27795 0.20843 0.24386 0.0
C642 C 0.29941 0.18209 0.24354 0.0
C643 C 0.29259 0.18794 0.22722 0.0
C644 C 0.28187 0.20097 0.22738 0.0
C645 C 0.28402 0.20197 0.26012 0.0
C646 C 0.29458 0.18889 0.25995 0.0
C647 C 0.26993 0.22437 0.24413 0.0
H648 H 0.29858 0.37114 0.33076 0.0
H649 H 0.31799 0.34936 0.32484 0.0
H650 H 0.27801 0.32465 0.28078 0.0
H651 H 0.25899 0.34638 0.28621 0.0
H652 H 0.29602 0.18282 0.21438 0.0
H653 H 0.2774 0.20582 0.2147 0.0
H654 H 0.28141 0.2076 0.27308 0.0
H655 H 0.29985 0.18484 0.27276 0.0
Tb656 Tb 0.54248 0.51495 0.0051 0.0
Eu657 Eu 0.54545 0.53398 0.04452 0.0
C658 C 0.58149 0.53682 0.02349 0.0
C659 C 0.54645 0.49195 0.04097 0.0
C660 C 0.54324 0.50431 0.95595 0.0
C661 C 0.54061 0.49577 0.92381 0.0
C662 C 0.54263 0.49154 0.94173 0.0
C663 C 0.54312 0.52161 0.95217 0.0
C664 C 0.5409 0.52582 0.93427 0.0
C665 C 0.53896 0.5128 0.91995 0.0
C666 C 0.54109 0.49908 0.97422 0.0
O667 O 0.51334 0.51165 0.01008 0.0
O668 O 0.5167 0.5175 0.04076 0.0
O669 O 0.54272 0.55606 0.0255 0.0
O670 O 0.54037 0.54174 0.99732 0.0
C671 C 0.50638 0.51102 0.02566 0.0
O672 O 0.53215 0.54493 0.06641 0.0
O673 O 0.5617 0.54909 0.06786 0.0
O674 O 0.57526 0.53554 0.03932 0.0
O675 O 0.57027 0.53135 0.00857 0.0
O676 O 0.54494 0.49309 0.02311 0.0
O677 O 0.54779 0.50624 0.05195 0.0
C678 C 0.54148 0.55645 0.00764 0.0
O679 O 0.55568 0.50199 0.98599 0.0
O680 O 0.52702 0.50362 0.98102 0.0
C681 C 0.5494 0.54691 0.09517 0.0
C682 C 0.56272 0.54046 0.13016 0.0
C683 C 0.5605 0.55735 0.12628 0.0
C684 C 0.55391 0.56056 0.10885 0.0
C685 C 0.54999 0.52981 0.09936 0.0
C686 C 0.55657 0.52658 0.11681 0.0
C687 C 0.54764 0.55104 0.07631 0.0
H688 H 0.539 0.48547 0.913 0.0
H689 H 0.54262 0.47811 0.94445 0.0
H690 H 0.54362 0.53165 0.96301 0.0
H691 H 0.5398 0.53907 0.93162 0.0
H692 H 0.56496 0.56823 0.13641 0.0
H693 H 0.55359 0.57384 0.10577 0.0
H694 H 0.54666 0.51915 0.08885 0.0
H695 H 0.55826 0.51346 0.11938 0.0
Tb696 Tb 0.78179 0.25405 0.27798 0.0
Eu697 Eu 0.79705 0.29297 0.26704 0.0
C698 C 0.78311 0.28688 0.30622 0.0
C699 C 0.75452 0.27457 0.25623 0.0
C700 C 0.77721 0.20702 0.28309 0.0
C701 C 0.77486 0.17631 0.28735 0.0
C702 C 0.76799 0.19181 0.28922 0.0
C703 C 0.79331 0.20663 0.27494 0.0
C704 C 0.80021 0.19119 0.2731 0.0
C705 C 0.79113 0.17588 0.27938 0.0
C706 C 0.77037 0.22339 0.28564 0.0
O707 O 0.78669 0.24997 0.24973 0.0
O708 O 0.80398 0.27594 0.24431 0.0
O709 O 0.82047 0.28594 0.28575 0.0
O710 O 0.81207 0.25626 0.28298 0.0
C711 C 0.79653 0.25971 0.23929 0.0
O712 O 0.79119 0.31787 0.25909 0.0
O713 O 0.81925 0.31359 0.26211 0.0
O714 O 0.78584 0.29759 0.29356 0.0
O715 O 0.78255 0.2701 0.30313 0.0
O716 O 0.75684 0.2652 0.27015 0.0
O717 O 0.769 0.28379 0.25053 0.0
C718 C 0.82446 0.27041 0.28823 0.0
O719 O 0.78084 0.23527 0.29684 0.0
O720 O 0.76463 0.22982 0.27091 0.0
C721 C 0.81366 0.34145 0.27105 0.0
C722 C 0.81807 0.37336 0.29208 0.0
C723 C 0.81908 0.37295 0.2733 0.0
C724 C 0.81682 0.35708 0.26286 0.0
C725 C 0.81364 0.34179 0.2899 0.0
C726 C 0.81581 0.35763 0.30034 0.0
C727 C 0.80843 0.32493 0.25981 0.0
H728 H 0.76765 0.16477 0.29244 0.0
H729 H 0.75557 0.19195 0.29561 0.0
H730 H 0.80057 0.21829 0.2701 0.0
H731 H 0.8126 0.1912 0.26665 0.0
H732 H 0.82054 0.38485 0.26653 0.0
H733 H 0.81675 0.357 0.2483 0.0
H734 H 0.8112 0.32978 0.29642 0.0
H735 H 0.81509 0.35757 0.31479 0.0
Tb736 Tb 0.05304 0.52005 0.53267 0.0
Eu737 Eu 0.03499 0.52974 0.49434 0.0
C738 C 0.04572 0.49083 0.4992 0.0
C739 C 0.07737 0.54121 0.50726 0.0
C740 C 0.06083 0.49927 0.575 0.0
C741 C 0.06662 0.48527 0.60251 0.0
C742 C 0.07316 0.49416 0.58815 0.0
C743 C 0.04198 0.49386 0.57523 0.0
C744 C 0.03543 0.48533 0.58967 0.0
C745 C 0.04768 0.4819 0.60413 0.0
C746 C 0.06742 0.51166 0.56223 0.0
O747 O 0.05187 0.54843 0.53798 0.0
O748 O 0.03105 0.55223 0.5144 0.0
O749 O 0.01167 0.51269 0.50449 0.0
O750 O 0.02368 0.51258 0.53422 0.0
C751 C 0.04088 0.55817 0.53008 0.0
O752 O 0.01948 0.54499 0.47696 0.0
O753 O 0.03293 0.52545 0.465 0.0
O754 O 0.04522 0.50366 0.48851 0.0
O755 O 0.04543 0.49425 0.51678 0.0
O756 O 0.07611 0.52826 0.51755 0.0
O757 O 0.06277 0.546 0.49961 0.0
C758 C 0.01005 0.50858 0.52111 0.0
O759 O 0.07001 0.50501 0.54645 0.0
O760 O 0.05871 0.52469 0.56084 0.0
C761 C 0.03484 0.55132 0.45119 0.0
C762 C 0.06014 0.56834 0.42963 0.0
C763 C 0.04411 0.55707 0.42162 0.0
C764 C 0.03163 0.54861 0.43232 0.0
C765 C 0.04992 0.56369 0.45922 0.0
C766 C 0.06249 0.57213 0.44854 0.0
C767 C 0.02502 0.53879 0.46223 0.0
H768 H 0.07647 0.4823 0.61303 0.0
H769 H 0.08781 0.49792 0.58792 0.0
H770 H 0.03229 0.49745 0.56497 0.0
H771 H 0.02076 0.4831 0.59022 0.0
H772 H 0.04192 0.55357 0.40716 0.0
H773 H 0.02023 0.53896 0.42589 0.0
H774 H 0.05266 0.56596 0.47381 0.0
H775 H 0.07456 0.58082 0.45514 0.0
Tb776 Tb 0.76986 0.7778 0.27051 0.0
Eu777 Eu 0.81066 0.77227 0.2842 0.0
C778 C 0.80345 0.80549 0.26386 0.0
C779 C 0.7933 0.76072 0.24259 0.0
C780 C 0.72236 0.77884 0.27353 0.0
C781 C 0.69007 0.77134 0.27704 0.0
C782 C 0.70396 0.7762 0.26611 0.0
C783 C 0.72674 0.77722 0.29202 0.0
C784 C 0.71297 0.77225 0.30285 0.0
C785 C 0.69456 0.76885 0.29537 0.0
C786 C 0.73716 0.78103 0.26196 0.0
O787 O 0.76612 0.75783 0.28929 0.0
O788 O 0.79219 0.74687 0.28637 0.0
O789 O 0.7999 0.78087 0.31049 0.0
O790 O 0.77612 0.79278 0.29761 0.0
C791 C 0.77547 0.74518 0.29078 0.0
O792 O 0.83141 0.7557 0.28402 0.0
O793 O 0.83779 0.78102 0.29903 0.0
O794 O 0.81332 0.79977 0.27691 0.0
O795 O 0.78722 0.79695 0.25717 0.0
O796 O 0.77708 0.76027 0.24853 0.0
O797 O 0.80818 0.7682 0.25321 0.0
C798 C 0.78712 0.79054 0.31209 0.0
O799 O 0.75038 0.79417 0.26701 0.0
O800 O 0.74347 0.76681 0.25828 0.0
C801 C 0.86004 0.77236 0.28198 0.0
C802 C 0.88826 0.77881 0.25963 0.0
C803 C 0.88793 0.76551 0.2715 0.0
C804 C 0.87392 0.76234 0.28261 0.0
C805 C 0.86028 0.7856 0.27015 0.0
C806 C 0.87433 0.78889 0.25917 0.0
C807 C 0.84431 0.76791 0.29213 0.0
H808 H 0.67592 0.76868 0.27101 0.0
H809 H 0.70039 0.77723 0.25181 0.0
H810 H 0.74088 0.77907 0.29796 0.0
H811 H 0.71673 0.77058 0.31698 0.0
H812 H 0.89828 0.75732 0.27196 0.0
H813 H 0.8737 0.75183 0.29138 0.0
H814 H 0.84944 0.79324 0.2692 0.0
H815 H 0.87428 0.79936 0.25038 0.0
Tb816 Tb 0.8011 0.29071 0.78241 0.0
Eu817 Eu 0.78562 0.2523 0.76022 0.0
C818 C 0.76268 0.28267 0.76173 0.0
C819 C 0.78348 0.25874 0.80309 0.0
C820 C 0.82594 0.3356 0.79749 0.0
C821 C 0.84004 0.36518 0.80808 0.0
C822 C 0.82758 0.35015 0.80988 0.0
C823 C 0.83692 0.33611 0.78325 0.0
C824 C 0.84946 0.35116 0.78146 0.0
C825 C 0.85107 0.36586 0.79383 0.0
C826 C 0.81253 0.32012 0.79948 0.0
O827 O 0.82481 0.27925 0.77667 0.0
O828 O 0.8116 0.25084 0.7775 0.0
O829 O 0.80166 0.26804 0.74091 0.0
O830 O 0.80289 0.29576 0.75415 0.0
C831 C 0.82616 0.26307 0.77928 0.0
O832 O 0.78998 0.22786 0.74669 0.0
O833 O 0.76249 0.23379 0.74678 0.0
O834 O 0.7681 0.27124 0.75094 0.0
O835 O 0.77139 0.28711 0.77797 0.0
O836 O 0.79517 0.27339 0.80349 0.0
O837 O 0.77576 0.24989 0.78781 0.0
C838 C 0.80437 0.28504 0.7402 0.0
O839 O 0.7984 0.3168 0.78718 0.0
O840 O 0.81915 0.30618 0.80297 0.0
C841 C 0.76517 0.2042 0.74561 0.0
C842 C 0.74655 0.17011 0.74734 0.0
C843 C 0.75891 0.17371 0.73449 0.0
C844 C 0.76808 0.19067 0.73358 0.0
C845 C 0.75375 0.20043 0.75924 0.0
C846 C 0.74442 0.18351 0.76002 0.0
C847 C 0.77242 0.22224 0.74246 0.0
H848 H 0.84117 0.37622 0.81796 0.0
H849 H 0.81918 0.34989 0.82095 0.0
H850 H 0.8357 0.32494 0.77352 0.0
H851 H 0.85767 0.35139 0.77025 0.0
H852 H 0.76071 0.16362 0.7245 0.0
H853 H 0.77683 0.19336 0.72297 0.0
H854 H 0.75142 0.21067 0.76878 0.0
H855 H 0.73512 0.18099 0.77019 0.0
Tb856 Tb 0.80161 0.79133 0.7859 0.0
Eu857 Eu 0.78355 0.75504 0.76399 0.0
C858 C 0.8016 0.75625 0.80659 0.0
C859 C 0.8271 0.77135 0.76161 0.0
C860 C 0.80632 0.83601 0.80743 0.0
C861 C 0.7935 0.85391 0.82895 0.0
C862 C 0.80337 0.84066 0.82529 0.0
C863 C 0.80011 0.84547 0.79342 0.0
C864 C 0.79039 0.85878 0.7971 0.0
C865 C 0.78662 0.86285 0.81482 0.0
C866 C 0.81435 0.8204 0.80347 0.0
O867 O 0.78896 0.80012 0.76035 0.0
O868 O 0.78113 0.77441 0.74251 0.0
O869 O 0.75839 0.76433 0.77441 0.0
O870 O 0.7735 0.78664 0.79469 0.0
C871 C 0.78377 0.79156 0.74415 0.0
O872 O 0.78129 0.73667 0.74013 0.0
O873 O 0.76496 0.73004 0.76173 0.0
O874 O 0.79087 0.74744 0.79269 0.0
O875 O 0.80953 0.7725 0.80516 0.0
O876 O 0.82448 0.78571 0.77061 0.0
O877 O 0.81426 0.75726 0.76014 0.0
C878 C 0.75823 0.77574 0.7883 0.0
O879 O 0.80735 0.8066 0.81079 0.0
O880 O 0.81674 0.81665 0.78672 0.0
C881 C 0.77891 0.70808 0.74843 0.0
C882 C 0.80063 0.68203 0.7515 0.0
C883 C 0.79546 0.68753 0.73445 0.0
C884 C 0.78463 0.70041 0.73293 0.0
C885 C 0.78311 0.70178 0.76531 0.0
C886 C 0.7938 0.68884 0.76681 0.0
C887 C 0.7713 0.72424 0.74731 0.0
H888 H 0.79083 0.85686 0.84274 0.0
H889 H 0.8081 0.83359 0.83633 0.0
H890 H 0.8021 0.8422 0.77949 0.0
H891 H 0.785 0.86526 0.78589 0.0
H892 H 0.80041 0.68237 0.72241 0.0
H893 H 0.78159 0.70509 0.71979 0.0
H894 H 0.77905 0.7075 0.77756 0.0
H895 H 0.79772 0.685 0.78015 0.0
Tb896 Tb 0.52164 0.51917 0.49882 0.0
Eu897 Eu 0.55895 0.5305 0.52775 0.0
C898 C 0.55954 0.51726 0.48636 0.0
C899 C 0.53834 0.49149 0.51975 0.0
C900 C 0.47919 0.52696 0.47724 0.0
C901 C 0.44806 0.53271 0.47513 0.0
C902 C 0.46029 0.52113 0.47306 0.0
C903 C 0.48572 0.54453 0.48308 0.0
C904 C 0.47361 0.55606 0.48511 0.0
C905 C 0.45461 0.55024 0.48147 0.0
C906 C 0.49204 0.51463 0.47827 0.0
O907 O 0.51398 0.53392 0.52152 0.0
O908 O 0.53507 0.52883 0.54426 0.0
O909 O 0.5485 0.55539 0.52324 0.0
O910 O 0.53515 0.54528 0.49471 0.0
C911 C 0.51912 0.5329 0.53871 0.0
O912 O 0.57554 0.52589 0.55223 0.0
O913 O 0.58662 0.5453 0.53497 0.0
O914 O 0.56648 0.52939 0.49939 0.0
O915 O 0.54266 0.50876 0.48568 0.0
O916 O 0.52315 0.49714 0.51484 0.0
O917 O 0.55434 0.50165 0.5209 0.0
C918 C 0.54074 0.55814 0.50733 0.0
O919 O 0.50799 0.51998 0.47284 0.0
O920 O 0.49373 0.50795 0.49377 0.0
C921 C 0.60575 0.52636 0.54594 0.0
C922 C 0.6331 0.50573 0.54272 0.0
C923 C 0.63311 0.51646 0.5587 0.0
C924 C 0.61949 0.52663 0.56031 0.0
C925 C 0.60595 0.51603 0.52984 0.0
C926 C 0.6195 0.50587 0.52822 0.0
C927 C 0.5903 0.53555 0.54796 0.0
H928 H 0.43349 0.52788 0.4721 0.0
H929 H 0.45498 0.50756 0.46883 0.0
H930 H 0.5002 0.54921 0.48687 0.0
H931 H 0.47915 0.56935 0.49036 0.0
H932 H 0.64322 0.51647 0.57022 0.0
H933 H 0.61941 0.53435 0.57291 0.0
H934 H 0.59537 0.51552 0.51861 0.0
H935 H 0.61917 0.49798 0.51565 0.0
Tb936 Tb 0.03187 0.51018 0.02065 0.0
Eu937 Eu 0.05878 0.54599 0.03612 0.0
C938 C 0.04208 0.51958 0.06287 0.0
C939 C 0.01466 0.5459 0.02986 0.0
C940 C 0.0114 0.4658 -0.0 0.0
C941 C 1.00477 0.43438 -0.00012 0.0
C942 C 1.00305 0.4508 0.00723 0.0
C943 C 0.02153 0.46417 0.98527 0.0
C944 C 0.02309 0.44775 0.97779 0.0
C945 C 0.01475 0.43265 0.98503 0.0
C946 C 0.00968 0.48295 0.00824 0.0
O947 O 0.04539 0.51985 0.99787 0.0
O948 O 0.04898 0.5485 0.00722 0.0
O949 O 0.07788 0.52576 0.03232 0.0
O950 O 0.05822 0.50046 0.02144 0.0
C951 C 0.04744 0.53613 0.99425 0.0
O952 O 0.07627 0.56987 0.03035 0.0
O953 O 0.0768 0.56224 0.05779 0.0
O954 O 0.04651 0.53604 0.06035 0.0
O955 O 0.03872 0.50755 0.04929 0.0
O956 O 0.01283 0.52933 0.02353 0.0
O957 O 0.03102 0.55488 0.03619 0.0
C958 C 0.07506 0.50894 0.0268 0.0
O959 O 0.01609 0.48632 0.02524 0.0
O960 O 0.01408 0.49625 0.99896 0.0
C961 C 0.08251 0.59245 0.05401 0.0
C962 C 0.08494 0.62735 0.06735 0.0
C963 C 0.09312 0.62324 0.05183 0.0
C964 C 0.09198 0.60592 0.04528 0.0
C965 C 0.07396 0.59656 0.0693 0.0
C966 C 0.07523 0.61387 0.07594 0.0
C967 C 0.08232 0.5743 0.04734 0.0
H968 H 0.99843 0.42305 0.00598 0.0
H969 H 0.99529 0.45181 0.01867 0.0
H970 H 0.02821 0.47555 0.97947 0.0
H971 H 0.03065 0.4469 0.96619 0.0
H972 H 0.10081 0.63338 0.04504 0.0
H973 H 0.09872 0.60303 0.03351 0.0
H974 H 0.06647 0.58643 0.07626 0.0
H975 H 0.06862 0.61672 0.08781 0.0
H976 H 1.00645 0.20115 0.94961 0.0
H977 H 0.00979 0.18012 0.97206 0.0
H978 H 0.02159 0.14385 0.93053 0.0
H979 H 0.01756 0.1644 0.90804 0.0
H980 H 1.00324 0.12677 0.95238 0.0
H981 H 0.05599 0.17234 0.95883 0.0
H982 H 0.07252 0.20263 0.96373 0.0
H983 H 0.05365 0.20773 0.01606 0.0
H984 H 0.03679 0.17751 0.01136 0.0
H985 H 0.07378 0.0915 0.01087 0.0
H986 H 0.06588 0.11724 0.99696 0.0
H987 H 0.01107 0.10488 0.01209 0.0
H988 H 0.01916 0.07956 0.02643 0.0
H989 H 0.04995 0.14697 0.00524 0.0
H990 H 0.98265 0.10372 0.96857 0.0
H991 H 0.97022 0.07297 0.95852 0.0
H992 H 0.02478 0.06167 0.96092 0.0
H993 H 0.03755 0.09244 0.97019 0.0
C994 C 0.00932 0.18851 0.94522 0.0
C995 C 0.01193 0.18447 0.92711 0.0
C996 C 0.01137 0.17658 0.95808 0.0
C997 C 0.0164 0.1606 0.95306 0.0
C998 C 0.01779 0.15613 0.93476 0.0
C999 C 0.01548 0.16792 0.92188 0.0
C1000 C 0.02133 0.14885 0.96682 0.0
C1001 C 0.01327 0.13123 0.96407 0.0
C1002 C 0.03482 0.15461 0.98179 0.0
C1003 C 0.04496 0.17275 0.98466 0.0
C1004 C 0.05526 0.17997 0.97133 0.0
C1005 C 0.0647 0.19711 0.97407 0.0
C1006 C 0.06409 0.20712 0.99017 0.0
C1007 C 0.05407 0.19998 0.00358 0.0
C1008 C 0.04458 0.18284 0.00089 0.0
C1009 C 0.06039 0.09487 0.01199 0.0
C1010 C 0.04702 0.08375 0.01961 0.0
C1011 C 0.05584 0.10945 0.004 0.0
C1012 C 0.03782 0.11271 0.00329 0.0
C1013 C 0.025 0.10247 0.01242 0.0
C1014 C 0.02962 0.08807 0.02059 0.0
C1015 C 0.03172 0.12499 0.99082 0.0
C1016 C 0.03959 0.14263 0.99379 0.0
C1017 C 0.01858 0.11912 0.9756 0.0
C1018 C 0.01105 0.10038 0.97058 0.0
C1019 C 0.992 0.09467 0.96701 0.0
C1020 C 0.9849 0.07726 0.96127 0.0
C1021 C 0.9967 0.06537 0.95914 0.0
C1022 C 0.01564 0.07088 0.96266 0.0
C1023 C 0.02282 0.08832 0.96816 0.0
H1024 H 0.99117 0.05188 0.95475 0.0
H1025 H 0.07141 0.22039 0.99227 0.0
H1026 H 0.15232 0.84742 0.16696 0.0
H1027 H 0.17664 0.84061 0.18839 0.0
H1028 H 0.14895 0.85673 0.23299 0.0
H1029 H 0.1244 0.86326 0.21165 0.0
H1030 H 0.20115 0.85471 0.21725 0.0
H1031 H 0.14703 0.8276 0.26156 0.0
H1032 H 0.1139 0.81578 0.25964 0.0
H1033 H 0.11388 0.79683 0.20422 0.0
H1034 H 0.14688 0.80889 0.20572 0.0
H1035 H 0.25038 0.81246 0.28299 0.0
H1036 H 0.22878 0.83084 0.27195 0.0
H1037 H 0.19759 0.78712 0.23756 0.0
H1038 H 0.21896 0.76873 0.24851 0.0
H1039 H 0.17543 0.8067 0.2526 0.0
H1040 H 0.22855 0.81496 0.21926 0.0
H1041 H 0.2616 0.82224 0.21652 0.0
H1042 H 0.26392 0.87261 0.24415 0.0
H1043 H 0.23076 0.86562 0.24692 0.0
C1044 C 0.1517 0.85005 0.18132 0.0
C1045 C 0.13629 0.85554 0.18765 0.0
C1046 C 0.16561 0.84615 0.19356 0.0
C1047 C 0.16434 0.84779 0.21225 0.0
C1048 C 0.14999 0.85507 0.2186 0.0
C1049 C 0.13602 0.85886 0.20639 0.0
C1050 C 0.17648 0.83965 0.22472 0.0
C1051 C 0.19555 0.84445 0.22526 0.0
C1052 C 0.16919 0.82601 0.23489 0.0
C1053 C 0.14929 0.81928 0.23372 0.0
C1054 C 0.13988 0.82101 0.24895 0.0
C1055 C 0.12114 0.81432 0.24791 0.0
C1056 C 0.11176 0.80568 0.23176 0.0
C1057 C 0.12111 0.8037 0.21664 0.0
C1058 C 0.13979 0.81055 0.21754 0.0
C1059 C 0.23865 0.80668 0.27341 0.0
C1060 C 0.23639 0.78919 0.26651 0.0
C1061 C 0.22643 0.81722 0.26704 0.0
C1062 C 0.21175 0.81036 0.2538 0.0
C1063 C 0.20885 0.79265 0.24778 0.0
C1064 C 0.22109 0.78217 0.25402 0.0
C1065 C 0.20009 0.82169 0.24508 0.0
C1066 C 0.18108 0.81743 0.24519 0.0
C1067 C 0.20744 0.83545 0.23511 0.0
C1068 C 0.22729 0.83971 0.23348 0.0
C1069 C 0.23615 0.82754 0.22484 0.0
C1070 C 0.25489 0.83162 0.22326 0.0
C1071 C 0.26491 0.84782 0.23028 0.0
C1072 C 0.25616 0.86004 0.23877 0.0
C1073 C 0.23738 0.85605 0.2403 0.0
H1074 H 0.27943 0.85093 0.22907 0.0
H1075 H 0.09727 0.80045 0.231 0.0
H1076 H 0.51758 0.7719 0.44104 0.0
H1077 H 0.5207 0.79987 0.45858 0.0
H1078 H 0.54548 0.82574 0.41552 0.0
H1079 H 0.54282 0.79769 0.39799 0.0
H1080 H 0.56256 0.83954 0.44818 0.0
H1081 H 0.50025 0.82462 0.42002 0.0
H1082 H 0.46992 0.80595 0.41227 0.0
H1083 H 0.46242 0.8058 0.46864 0.0
H1084 H 0.49283 0.82429 0.47674 0.0
H1085 H 0.54101 0.92389 0.4666 0.0
H1086 H 0.54573 0.89539 0.45456 0.0
H1087 H 0.52323 0.87214 0.50013 0.0
H1088 H 0.51869 0.90068 0.5124 0.0
H1089 H 0.50593 0.85669 0.46772 0.0
H1090 H 0.56917 0.8685 0.496 0.0
H1091 H 0.60012 0.88595 0.50413 0.0
H1092 H 0.60484 0.89299 0.44804 0.0
H1093 H 0.5742 0.87495 0.43954 0.0
C1094 C 0.52376 0.78352 0.4353 0.0
C1095 C 0.52977 0.78261 0.41804 0.0
C1096 C 0.52552 0.79949 0.44535 0.0
C1097 C 0.53302 0.81488 0.4382 0.0
C1098 C 0.53959 0.81399 0.42123 0.0
C1099 C 0.53801 0.79798 0.41123 0.0
C1100 C 0.53335 0.83193 0.44814 0.0
C1101 C 0.55015 0.84336 0.4523 0.0
C1102 C 0.51722 0.83675 0.45385 0.0
C1103 C 0.49889 0.82569 0.44899 0.0
C1104 C 0.49219 0.8205 0.43077 0.0
C1105 C 0.47498 0.80997 0.42631 0.0
C1106 C 0.46428 0.80465 0.43996 0.0
C1107 C 0.47074 0.8099 0.45809 0.0
C1108 C 0.48796 0.82042 0.46262 0.0
C1109 C 0.53745 0.91277 0.47426 0.0
C1110 C 0.52933 0.91445 0.49035 0.0
C1111 C 0.54023 0.89652 0.4674 0.0
C1112 C 0.53493 0.88171 0.47653 0.0
C1113 C 0.52743 0.88345 0.49293 0.0
C1114 C 0.52471 0.8997 0.49983 0.0
C1115 C 0.53512 0.86425 0.46783 0.0
C1116 C 0.51836 0.85278 0.46377 0.0
C1117 C 0.55123 0.85943 0.46219 0.0
C1118 C 0.56941 0.87055 0.46718 0.0
C1119 C 0.57681 0.87383 0.48543 0.0
C1120 C 0.59432 0.88374 0.49009 0.0
C1121 C 0.60436 0.89076 0.47664 0.0
C1122 C 0.59703 0.88761 0.45846 0.0
C1123 C 0.57967 0.8774 0.45369 0.0
H1124 H 0.61784 0.89857 0.48031 0.0
H1125 H 0.45095 0.7965 0.43648 0.0
H1126 H 0.55483 0.31658 0.72416 0.0
H1127 H 0.52547 0.30622 0.73498 0.0
H1128 H 0.4983 0.30354 0.68061 0.0
H1129 H 0.52767 0.31451 0.66974 0.0
H1130 H 0.4782 0.31565 0.70361 0.0
H1131 H 0.50802 0.26659 0.69977 0.0
H1132 H 0.5332 0.25003 0.7047 0.0
H1133 H 0.532 0.25693 0.76219 0.0
H1134 H 0.50698 0.27375 0.75763 0.0
H1135 H 0.39721 0.26464 0.72826 0.0
H1136 H 0.42519 0.27179 0.71371 0.0
H1137 H 0.45667 0.28539 0.76607 0.0
H1138 H 0.42876 0.27882 0.78074 0.0
H1139 H 0.47327 0.26551 0.74132 0.0
H1140 H 0.44423 0.31657 0.74389 0.0
H1141 H 0.41836 0.33209 0.73785 0.0
H1142 H 0.4173 0.3196 0.68071 0.0
H1143 H 0.44301 0.30376 0.68645 0.0
C1144 C 0.5426 0.31388 0.71451 0.0
C1145 C 0.54356 0.31623 0.69608 0.0
C1146 C 0.52584 0.30786 0.72069 0.0
C1147 C 0.50977 0.30368 0.70852 0.0
C1148 C 0.51057 0.30656 0.6902 0.0
C1149 C 0.52734 0.31284 0.68403 0.0
C1150 C 0.49221 0.29625 0.71503 0.0
C1151 C 0.47704 0.3045 0.71158 0.0
C1152 C 0.49072 0.28175 0.72554 0.0
C1153 C 0.50571 0.27155 0.72835 0.0
C1154 C 0.51321 0.26468 0.71347 0.0
C1155 C 0.52744 0.25523 0.7162 0.0
C1156 C 0.53422 0.25246 0.73375 0.0
C1157 C 0.52675 0.2591 0.74861 0.0
C1158 C 0.51252 0.26857 0.74596 0.0
C1159 C 0.41008 0.26916 0.73669 0.0
C1160 C 0.41072 0.27133 0.75567 0.0
C1161 C 0.42604 0.27314 0.72836 0.0
C1162 C 0.44289 0.27926 0.73885 0.0
C1163 C 0.44375 0.28065 0.75778 0.0
C1164 C 0.42779 0.2768 0.76613 0.0
C1165 C 0.45952 0.28511 0.73015 0.0
C1166 C 0.47446 0.27654 0.73318 0.0
C1167 C 0.46071 0.29914 0.71906 0.0
C1168 C 0.4454 0.30882 0.71561 0.0
C1169 C 0.43838 0.31701 0.73005 0.0
C1170 C 0.42376 0.32589 0.72668 0.0
C1171 C 0.41616 0.32679 0.70891 0.0
C1172 C 0.42319 0.31887 0.69447 0.0
C1173 C 0.43778 0.30995 0.69777 0.0
H1174 H 0.40484 0.33367 0.70633 0.0
H1175 H 0.54524 0.24515 0.73583 0.0
H1176 H 0.03529 0.82461 0.58083 0.0
H1177 H 0.03701 0.8527 0.56766 0.0
H1178 H 0.04098 0.87877 0.62098 0.0
H1179 H 0.03887 0.85064 0.63408 0.0
H1180 H 0.0221 0.89621 0.60137 0.0
H1181 H 0.07902 0.87888 0.59 0.0
H1182 H 0.09895 0.85966 0.57819 0.0
H1183 H 0.07282 0.8606 0.52426 0.0
H1184 H 0.05259 0.87967 0.53578 0.0
H1185 H 0.04676 0.98332 0.57446 0.0
H1186 H 0.04556 0.95517 0.58717 0.0
H1187 H 0.04383 0.93005 0.5337 0.0
H1188 H 0.04573 0.95842 0.52103 0.0
H1189 H 0.06136 0.91194 0.55312 0.0
H1190 H 1.00431 0.92881 0.56403 0.0
H1191 H 0.98394 0.94778 0.57542 0.0
H1192 H 0.00959 0.94736 0.62964 0.0
H1193 H 0.03025 0.92852 0.61853 0.0
C1194 C 0.03658 0.83626 0.58989 0.0
C1195 C 0.03697 0.83475 0.60881 0.0
C1196 C 0.03774 0.85269 0.58223 0.0
C1197 C 0.03953 0.86875 0.59298 0.0
C1198 C 0.03968 0.86715 0.61188 0.0
C1199 C 0.03852 0.85074 0.61953 0.0
C1200 C 0.04101 0.88688 0.58479 0.0
C1201 C 0.03097 0.89953 0.591 0.0
C1202 C 0.05205 0.89198 0.57073 0.0
C1203 C 0.06417 0.88054 0.56378 0.0
C1204 C 0.07745 0.87489 0.57564 0.0
C1205 C 0.08881 0.86404 0.569 0.0
C1206 C 0.08712 0.85887 0.5505 0.0
C1207 C 0.07409 0.86459 0.53859 0.0
C1208 C 0.06268 0.87542 0.54517 0.0
C1209 C 0.04616 0.97189 0.56524 0.0
C1210 C 0.04637 0.97379 0.54643 0.0
C1211 C 0.04523 0.95539 0.57264 0.0
C1212 C 0.04407 0.93954 0.56172 0.0
C1213 C 0.0446 0.94149 0.54293 0.0
C1214 C 0.04568 0.95805 0.53553 0.0
C1215 C 0.04247 0.9213 0.56972 0.0
C1216 C 0.05248 0.90863 0.56349 0.0
C1217 C 0.03133 0.91614 0.5837 0.0
C1218 C 0.01893 0.9274 0.59042 0.0
C1219 C 1.00567 0.93285 0.57836 0.0
C1220 C 0.99407 0.94356 0.58477 0.0
C1221 C 0.99551 0.94881 0.60324 0.0
C1222 C 0.00851 0.94331 0.61534 0.0
C1223 C 0.02016 0.9326 0.609 0.0
H1224 H 0.98652 0.95711 0.60817 0.0
H1225 H 0.09592 0.85048 0.54538 0.0
H1226 H 0.48257 0.75108 0.88439 0.0
H1227 H 0.45033 0.74979 0.87168 0.0
H1228 H 0.46806 0.78653 0.83383 0.0
H1229 H 0.49966 0.78791 0.84625 0.0
H1230 H 0.43968 0.79586 0.84591 0.0
H1231 H 0.45149 0.7403 0.82252 0.0
H1232 H 0.45985 0.71128 0.82473 0.0
H1233 H 0.41517 0.69651 0.85588 0.0
H1234 H 0.40668 0.72553 0.85404 0.0
H1235 H 0.35924 0.79146 0.78412 0.0
H1236 H 0.38968 0.78973 0.79879 0.0
H1237 H 0.3657 0.7499 0.83073 0.0
H1238 H 0.33519 0.75112 0.81548 0.0
H1239 H 0.39623 0.7416 0.82412 0.0
H1240 H 0.38361 0.79602 0.84736 0.0
H1241 H 0.37483 0.82495 0.84613 0.0
H1242 H 0.42067 0.84202 0.8172 0.0
H1243 H 0.42959 0.81311 0.81805 0.0
C1244 C 0.47965 0.75882 0.87331 0.0
C1245 C 0.49423 0.76958 0.86655 0.0
C1246 C 0.46102 0.75804 0.86591 0.0
C1247 C 0.45624 0.76804 0.8515 0.0
C1248 C 0.47085 0.77868 0.84487 0.0
C1249 C 0.48924 0.77938 0.8521 0.0
C1250 C 0.43639 0.76795 0.8433 0.0
C1251 C 0.43035 0.78391 0.84101 0.0
C1252 C 0.42349 0.75255 0.83721 0.0
C1253 C 0.42859 0.73514 0.83833 0.0
C1254 C 0.44354 0.73091 0.82997 0.0
C1255 C 0.44829 0.71445 0.83113 0.0
C1256 C 0.43809 0.70208 0.84049 0.0
C1257 C 0.42308 0.70612 0.84867 0.0
C1258 C 0.41829 0.72256 0.84756 0.0
C1259 C 0.36031 0.78227 0.79424 0.0
C1260 C 0.34433 0.77152 0.79847 0.0
C1261 C 0.37796 0.78138 0.80288 0.0
C1262 C 0.38054 0.76995 0.81649 0.0
C1263 C 0.36459 0.75895 0.82048 0.0
C1264 C 0.34692 0.75971 0.81168 0.0
C1265 C 0.39964 0.76956 0.82643 0.0
C1266 C 0.40553 0.75355 0.82907 0.0
C1267 C 0.4124 0.78492 0.83305 0.0
C1268 C 0.40717 0.80235 0.83263 0.0
C1269 C 0.39175 0.80592 0.84065 0.0
C1270 C 0.38676 0.82231 0.84003 0.0
C1271 C 0.39716 0.8353 0.83155 0.0
C1272 C 0.41261 0.83194 0.82374 0.0
C1273 C 0.41766 0.81556 0.8243 0.0
H1274 H 0.39326 0.84798 0.83108 0.0
H1275 H 0.44178 0.68935 0.84137 0.0
H1276 H 0.54291 0.22581 0.08967 0.0
H1277 H 0.54468 0.19732 0.07426 0.0
H1278 H 0.5205 0.1716 0.11758 0.0
H1279 H 0.51944 0.19967 0.13304 0.0
H1280 H 0.54213 0.15314 0.11054 0.0
H1281 H 0.49926 0.1731 0.06781 0.0
H1282 H 0.48814 0.19299 0.04668 0.0
H1283 H 0.53261 0.18873 0.0152 0.0
H1284 H 0.5441 0.16895 0.03627 0.0
H1285 H 0.51211 0.07676 0.02997 0.0
H1286 H 0.51132 0.1061 0.04328 0.0
H1287 H 0.56245 0.10619 0.07595 0.0
H1288 H 0.56293 0.07664 0.06305 0.0
H1289 H 0.52727 0.13734 0.04462 0.0
H1290 H 0.56982 0.13493 0.11344 0.0
H1291 H 0.57645 0.11343 0.13481 0.0
H1292 H 0.52525 0.08037 0.11499 0.0
H1293 H 0.51821 0.10178 0.09368 0.0
C1294 C 0.53768 0.21412 0.09582 0.0
C1295 C 0.53086 0.21563 0.11284 0.0
C1296 C 0.53867 0.19749 0.08688 0.0
C1297 C 0.53263 0.18144 0.09431 0.0
C1298 C 0.52556 0.18315 0.11112 0.0
C1299 C 0.52479 0.19959 0.12006 0.0
C1300 C 0.53382 0.16305 0.08528 0.0
C1301 C 0.5389 0.14996 0.09606 0.0
C1302 C 0.52947 0.15783 0.06635 0.0
C1303 C 0.52264 0.16972 0.05372 0.0
C1304 C 0.50672 0.17651 0.05644 0.0
C1305 C 0.50035 0.18774 0.04447 0.0
C1306 C 0.5097 0.19216 0.02964 0.0
C1307 C 0.52541 0.18532 0.02672 0.0
C1308 C 0.53185 0.17409 0.03866 0.0
C1309 C 0.52321 0.08286 0.04009 0.0
C1310 C 0.53748 0.07366 0.04535 0.0
C1311 C 0.52279 0.1 0.04777 0.0
C1312 C 0.53661 0.10904 0.06121 0.0
C1313 C 0.55111 0.09995 0.06617 0.0
C1314 C 0.55146 0.08276 0.05858 0.0
C1315 C 0.53575 0.1276 0.06988 0.0
C1316 C 0.53065 0.14064 0.05907 0.0
C1317 C 0.53965 0.13267 0.08885 0.0
C1318 C 0.5436 0.11988 0.10184 0.0
C1319 C 0.55995 0.12311 0.1137 0.0
C1320 C 0.56378 0.11093 0.12579 0.0
C1321 C 0.55131 0.09552 0.12621 0.0
C1322 C 0.53493 0.09229 0.11461 0.0
C1323 C 0.53102 0.10444 0.10252 0.0
H1324 H 0.55431 0.0861 0.13556 0.0
H1325 H 0.50474 0.20086 0.02038 0.0
H1326 H 0.12609 0.27902 0.39711 0.0
H1327 H 0.15324 0.28039 0.38074 0.0
H1328 H 0.11863 0.26026 0.33151 0.0
H1329 H 0.09142 0.25903 0.34786 0.0
H1330 H 0.14892 0.24499 0.33308 0.0
H1331 H 0.14101 0.30499 0.34049 0.0
H1332 H 0.13763 0.33168 0.35841 0.0
H1333 H 0.1897 0.3324 0.3893 0.0
H1334 H 0.19333 0.30566 0.37163 0.0
H1335 H 0.21957 0.25884 0.27375 0.0
H1336 H 0.19204 0.25813 0.28928 0.0
H1337 H 0.22417 0.28972 0.33477 0.0
H1338 H 0.25141 0.29129 0.31873 0.0
H1339 H 0.19474 0.29911 0.3354 0.0
H1340 H 0.20365 0.24024 0.33095 0.0
H1341 H 0.20797 0.21228 0.31628 0.0
H1342 H 0.15603 0.20759 0.28386 0.0
H1343 H 0.15149 0.23564 0.2982 0.0
C1344 C 0.12411 0.27489 0.38278 0.0
C1345 C 0.10611 0.26895 0.37407 0.0
C1346 C 0.13987 0.27576 0.37325 0.0
C1347 C 0.13855 0.27063 0.35448 0.0
C1348 C 0.12057 0.26441 0.34584 0.0
C1349 C 0.10479 0.26374 0.35532 0.0
C1350 C 0.15565 0.27168 0.34399 0.0
C1351 C 0.15873 0.25697 0.33346 0.0
C1352 C 0.1693 0.28694 0.34457 0.0
C1353 C 0.16735 0.30324 0.35486 0.0
C1354 C 0.1517 0.31081 0.35116 0.0
C1355 C 0.14974 0.32595 0.36126 0.0
C1356 C 0.16339 0.33368 0.37505 0.0
C1357 C 0.17911 0.32638 0.37865 0.0
C1358 C 0.18115 0.31126 0.36857 0.0
C1359 C 0.22087 0.26575 0.28703 0.0
C1360 C 0.23819 0.27515 0.29468 0.0
C1361 C 0.20489 0.26515 0.29622 0.0
C1362 C 0.20537 0.27345 0.31387 0.0
C1363 C 0.22271 0.28304 0.32136 0.0
C1364 C 0.23859 0.28392 0.31204 0.0
C1365 C 0.18816 0.27235 0.32436 0.0
C1366 C 0.185 0.28707 0.33492 0.0
C1367 C 0.17467 0.25695 0.32418 0.0
C1368 C 0.17733 0.24013 0.3155 0.0
C1369 C 0.19321 0.2333 0.3206 0.0
C1370 C 0.19569 0.21743 0.31236 0.0
C1371 C 0.18231 0.20819 0.29911 0.0
C1372 C 0.1664 0.21478 0.29411 0.0
C1373 C 0.16386 0.23066 0.30229 0.0
H1374 H 0.18425 0.19591 0.29274 0.0
H1375 H 0.16185 0.34539 0.38287 0.0
H1376 H 0.90031 0.03663 0.15959 0.0
H1377 H 0.9165 0.0472 0.13416 0.0
H1378 H 0.96577 0.03177 0.15843 0.0
H1379 H 0.95004 0.02171 0.18366 0.0
H1380 H 0.97342 0.06331 0.14697 0.0
H1381 H 0.93575 0.00668 0.12335 0.0
H1382 H 0.90613 0.98705 0.11446 0.0
H1383 H 0.88949 0.02337 0.07822 0.0
H1384 H 0.91895 0.04325 0.08706 0.0
H1385 H 0.03075 0.03506 0.08755 0.0
H1386 H 0.00936 0.04006 0.10928 0.0
H1387 H 0.97501 0.059 0.06771 0.0
H1388 H 0.99615 0.05389 0.04586 0.0
H1389 H 0.95547 0.03488 0.08476 0.0
H1390 H 0.99741 0.08704 0.10253 0.0
H1391 H 0.02749 0.10594 0.11091 0.0
H1392 H 0.03657 0.07837 0.15797 0.0
H1393 H 1.00667 0.05912 0.14974 0.0
C1394 C 0.91458 0.03551 0.15938 0.0
C1395 C 0.92393 0.02838 0.17358 0.0
C1396 C 0.9238 0.04157 0.14492 0.0
C1397 C 0.94236 0.04033 0.14448 0.0
C1398 C 0.95153 0.03308 0.15861 0.0
C1399 C 0.94246 0.02722 0.17299 0.0
C1400 C 0.95257 0.0459 0.12925 0.0
C1401 C 0.9695 0.05718 0.13333 0.0
C1402 C 0.94705 0.03852 0.11129 0.0
C1403 C 0.9294 0.02654 0.10604 0.0
C1404 C 0.9257 0.01052 0.11359 0.0
C1405 C 0.90896 0.99934 0.10855 0.0
C1406 C 0.8959 0.00399 0.09584 0.0
C1407 C 0.89958 0.0198 0.0881 0.0
C1408 C 0.91629 0.03103 0.09312 0.0
C1409 C 0.01879 0.04051 0.08309 0.0
C1410 C 0.01509 0.04393 0.06497 0.0
C1411 C 1.00663 0.04347 0.09554 0.0
C1412 C 0.99068 0.05005 0.09011 0.0
C1413 C 0.98724 0.05395 0.07216 0.0
C1414 C 0.99936 0.05097 0.05971 0.0
C1415 C 0.9769 0.05128 0.10286 0.0
C1416 C 0.95924 0.04148 0.09824 0.0
C1417 C 0.98178 0.05997 0.12035 0.0
C1418 C 0.99977 0.07159 0.12547 0.0
C1419 C 1.00586 0.08493 0.11461 0.0
C1420 C 0.02288 0.09572 0.11935 0.0
C1421 C 0.03394 0.09336 0.13496 0.0
C1422 C 0.02798 0.0802 0.14589 0.0
C1423 C 0.01097 0.06937 0.14121 0.0
H1424 H 0.04712 0.10172 0.1386 0.0
H1425 H 0.88296 0.99531 0.09194 0.0
H1426 H 0.27577 0.72311 0.4756 0.0
H1427 H 0.27131 0.73439 0.4459 0.0
H1428 H 0.29875 0.69536 0.4228 0.0
H1429 H 0.30285 0.6838 0.45228 0.0
H1430 H 0.29216 0.74841 0.42322 0.0
H1431 H 0.28012 0.68165 0.37992 0.0
H1432 H 0.26656 0.651 0.38229 0.0
H1433 H 0.2339 0.66681 0.42249 0.0
H1434 H 0.24706 0.69756 0.42019 0.0
H1435 H 0.30562 0.76214 0.33338 0.0
H1436 H 0.30567 0.75245 0.36369 0.0
H1437 H 0.24876 0.72848 0.35153 0.0
H1438 H 0.24884 0.73763 0.32066 0.0
H1439 H 0.26542 0.70789 0.36947 0.0
H1440 H 0.26317 0.76781 0.37937 0.0
H1441 H 0.27197 0.79931 0.37701 0.0
H1442 H 0.32535 0.7986 0.40445 0.0
H1443 H 0.31696 0.76704 0.40677 0.0
C1444 C 0.28103 0.71705 0.46423 0.0
C1445 C 0.2896 0.70251 0.46631 0.0
C1446 C 0.27842 0.72349 0.44723 0.0
C1447 C 0.28434 0.71552 0.43197 0.0
C1448 C 0.29363 0.70148 0.43422 0.0
C1449 C 0.29612 0.69497 0.45116 0.0
C1450 C 0.28082 0.72182 0.4137 0.0
C1451 C 0.28629 0.73954 0.41148 0.0
C1452 C 0.27259 0.7104 0.3984 0.0
C1453 C 0.26474 0.69191 0.40001 0.0
C1454 C 0.27003 0.67859 0.38924 0.0
C1455 C 0.2624 0.6612 0.39057 0.0
C1456 C 0.24942 0.65696 0.40256 0.0
C1457 C 0.24401 0.67011 0.41325 0.0
C1458 C 0.25158 0.68752 0.41197 0.0
C1459 C 0.29304 0.7549 0.33712 0.0
C1460 C 0.27716 0.7508 0.3246 0.0
C1461 C 0.29307 0.74943 0.35457 0.0
C1462 C 0.27712 0.74005 0.36015 0.0
C1463 C 0.26124 0.73578 0.34763 0.0
C1464 C 0.26127 0.74106 0.33 0.0
C1465 C 0.27732 0.73437 0.37889 0.0
C1466 C 0.27122 0.71678 0.38121 0.0
C1467 C 0.28438 0.74601 0.39437 0.0
C1468 C 0.28947 0.76503 0.39313 0.0
C1469 C 0.27682 0.77435 0.38481 0.0
C1470 C 0.28173 0.79222 0.38349 0.0
C1471 C 0.29922 0.80094 0.39054 0.0
C1472 C 0.31182 0.79182 0.39898 0.0
C1473 C 0.30698 0.77395 0.40033 0.0
H1474 H 0.303 0.81478 0.3895 0.0
H1475 H 0.24351 0.64349 0.40355 0.0
H1476 H 0.56213 0.94167 0.70907 0.0
H1477 H 0.54753 0.94618 0.67927 0.0
H1478 H 0.60089 0.95952 0.66095 0.0
H1479 H 0.61535 0.95412 0.69018 0.0
H1480 H 0.5499 0.97586 0.6676 0.0
H1481 H 0.60082 0.95872 0.61707 0.0
H1482 H 0.618 0.9352 0.6105 0.0
H1483 H 0.57972 0.89953 0.63533 0.0
H1484 H 0.56213 0.92276 0.64182 0.0
H1485 H 0.57693 0.01982 0.58418 0.0
H1486 H 0.58085 1.00196 0.60933 0.0
H1487 H 0.52245 0.98386 0.60445 0.0
H1488 H 0.51833 1.00159 0.57887 0.0
H1489 H 0.56906 0.96441 0.60679 0.0
H1490 H 0.51471 0.97939 0.65113 0.0
H1491 H 0.49717 1.00266 0.65785 0.0
H1492 H 0.54154 0.04098 0.64538 0.0
H1493 H 0.5594 0.01797 0.63883 0.0
C1494 C 0.57066 0.94487 0.69841 0.0
C1495 C 0.58987 0.94769 0.70198 0.0
C1496 C 0.56232 0.94754 0.68142 0.0
C1497 C 0.57305 0.95325 0.66781 0.0
C1498 C 0.5922 0.95477 0.671 0.0
C1499 C 0.60052 0.95176 0.68783 0.0
C1500 C 0.56473 0.96027 0.65155 0.0
C1501 C 0.55367 0.9729 0.6542 0.0
C1502 C 0.56978 0.95668 0.63406 0.0
C1503 C 0.58018 0.94254 0.63 0.0
C1504 C 0.59597 0.94584 0.62102 0.0
C1505 C 0.60581 0.93255 0.61734 0.0
C1506 C 0.59997 0.91589 0.62252 0.0
C1507 C 0.58426 0.91246 0.63137 0.0
C1508 C 0.57436 0.92569 0.63507 0.0
C1509 C 0.56484 0.01224 0.58855 0.0
C1510 C 0.5473 0.01208 0.5795 0.0
C1511 C 0.56715 1.00194 0.60283 0.0
C1512 C 0.55196 0.99151 0.60855 0.0
C1513 C 0.53432 0.99182 0.60012 0.0
C1514 C 0.532 1.00199 0.5856 0.0
C1515 C 0.55491 0.98016 0.62318 0.0
C1516 C 0.56491 0.96681 0.62014 0.0
C1517 C 0.54877 0.98295 0.64025 0.0
C1518 C 0.53825 0.99693 0.64423 0.0
C1519 C 0.52071 0.99279 0.64983 0.0
C1520 C 0.51072 0.00593 0.65363 0.0
C1521 C 0.5182 0.02328 0.65196 0.0
C1522 C 0.53571 0.02753 0.64657 0.0
C1523 C 0.54576 0.01444 0.64277 0.0
H1524 H 0.51045 0.03344 0.6549 0.0
H1525 H 0.60761 0.90562 0.61967 0.0
H1526 H 0.26128 0.3906 0.94905 0.0
H1527 H 0.26413 0.37411 0.92107 0.0
H1528 H 0.28098 0.33344 0.95135 0.0
H1529 H 0.27851 0.3504 0.97992 0.0
H1530 H 0.30036 0.33549 0.92437 0.0
H1531 H 0.23643 0.32969 0.9243 0.0
H1532 H 0.20616 0.33793 0.92648 0.0
H1533 H 0.21319 0.36901 0.88152 0.0
H1534 H 0.24361 0.3611 0.87919 0.0
H1535 H 0.25761 0.29129 0.82464 0.0
H1536 H 0.25378 0.30377 0.85478 0.0
H1537 H 0.31068 0.32823 0.86192 0.0
H1538 H 0.31471 0.31485 0.83235 0.0
H1539 H 0.25282 0.33084 0.87181 0.0
H1540 H 0.32844 0.34099 0.90501 0.0
H1541 H 0.35549 0.32673 0.90421 0.0
H1542 H 0.32059 0.27804 0.88558 0.0
H1543 H 0.29332 0.29195 0.88647 0.0
C1544 C 0.26549 0.37809 0.95003 0.0
C1545 C 0.26949 0.37206 0.96727 0.0
C1546 C 0.26702 0.36846 0.93369 0.0
C1547 C 0.2725 0.35206 0.93347 0.0
C1548 C 0.27663 0.34592 0.95066 0.0
C1549 C 0.27509 0.35565 0.9672 0.0
C1550 C 0.27413 0.34187 0.91538 0.0
C1551 C 0.28991 0.33459 0.91293 0.0
C1552 C 0.26047 0.3398 0.90013 0.0
C1553 C 0.24239 0.34495 0.90171 0.0
C1554 C 0.23161 0.33844 0.91501 0.0
C1555 C 0.21441 0.34301 0.91624 0.0
C1556 C 0.20779 0.35403 0.90418 0.0
C1557 C 0.21836 0.3605 0.89087 0.0
C1558 C 0.23557 0.35596 0.88957 0.0
C1559 C 0.26941 0.29919 0.83265 0.0
C1560 C 0.28657 0.30174 0.82573 0.0
C1561 C 0.26719 0.30651 0.85012 0.0
C1562 C 0.28195 0.31695 0.86151 0.0
C1563 C 0.29899 0.31985 0.85429 0.0
C1564 C 0.30129 0.31223 0.83701 0.0
C1565 C 0.27942 0.32499 0.88047 0.0
C1566 C 0.26339 0.33182 0.88314 0.0
C1567 C 0.29256 0.32605 0.89609 0.0
C1568 C 0.30886 0.31756 0.89563 0.0
C1569 C 0.32654 0.32723 0.9008 0.0
C1570 C 0.34191 0.31921 0.90032 0.0
C1571 C 0.33976 0.30151 0.89479 0.0
C1572 C 0.32223 0.29176 0.88979 0.0
C1573 C 0.30682 0.29971 0.89027 0.0
H1574 H 0.35168 0.29533 0.89441 0.0
H1575 H 0.19444 0.35753 0.90513 0.0
H1576 H 0.93651 0.02306 0.27877 0.0
H1577 H 0.95657 0.02917 0.30747 0.0
H1578 H 0.99356 0.99816 0.28633 0.0
H1579 H 0.97366 0.99185 0.25783 0.0
H1580 H 0.98637 0.99063 0.32 0.0
H1581 H 1.00377 0.04197 0.28898 0.0
H1582 H 0.99823 0.06762 0.27322 0.0
H1583 H 0.97805 0.08866 0.32033 0.0
H1584 H 0.98324 0.063 0.3363 0.0
H1585 H 0.0578 0.00877 0.38842 0.0
H1586 H 0.04367 0.01107 0.35776 0.0
H1587 H 1.00687 0.04195 0.37952 0.0
H1588 H 0.0211 0.03992 0.41011 0.0
H1589 H 0.01435 0.05055 0.34541 0.0
H1590 H 0.99486 0.99938 0.37574 0.0
H1591 H 0.99988 0.97406 0.39231 0.0
H1592 H 0.02247 0.95266 0.34691 0.0
H1593 H 0.01791 0.97805 0.33019 0.0
C1594 C 0.94886 0.01746 0.28029 0.0
C1595 C 0.95349 0.00699 0.26601 0.0
C1596 C 0.96036 0.02108 0.29662 0.0
C1597 C 0.97664 0.01429 0.29889 0.0
C1598 C 0.98109 1.00358 0.2848 0.0
C1599 C 0.96968 1.0 0.26851 0.0
C1600 C 0.98895 0.0179 0.31607 0.0
C1601 C 0.99268 1.00372 0.3254 0.0
C1602 C 0.99677 0.03502 0.32333 0.0
C1603 C 0.99372 0.05048 0.31377 0.0
C1604 C 0.99801 0.05199 0.29593 0.0
C1605 C 0.99496 0.06655 0.28697 0.0
C1606 C 0.98775 0.07974 0.29575 0.0
C1607 C 0.98362 0.07842 0.31354 0.0
C1608 C 0.98662 0.06388 0.32255 0.0
C1609 C 0.04712 0.01653 0.38658 0.0
C1610 C 0.04033 0.02392 0.40159 0.0
C1611 C 0.03908 0.01785 0.3691 0.0
C1612 C 0.02394 0.0263 0.36648 0.0
C1613 C 0.01849 0.03531 0.38129 0.0
C1614 C 0.02665 0.03415 0.39876 0.0
C1615 C 0.01197 0.02325 0.34909 0.0
C1616 C 0.00815 0.03748 0.33986 0.0
C1617 C 1.00386 0.00617 0.34194 0.0
C1618 C 1.00621 0.99069 0.35179 0.0
C1619 C 1.00099 0.98932 0.36933 0.0
C1620 C 1.00376 0.97496 0.37875 0.0
C1621 C 0.01152 0.96177 0.37068 0.0
C1622 C 0.01648 0.9629 0.35315 0.0
C1623 C 0.01381 0.97727 0.3437 0.0
H1624 H 0.01366 0.95067 0.378 0.0
H1625 H 0.9854 0.091 0.28879 0.0
H1626 H 0.30178 0.71632 0.57017 0.0
H1627 H 0.30512 0.73232 0.60021 0.0
H1628 H 0.27393 0.6878 0.62076 0.0
H1629 H 0.27037 0.67197 0.59111 0.0
H1630 H 0.26341 0.7167 0.63308 0.0
H1631 H 0.32088 0.69691 0.62832 0.0
H1632 H 0.34915 0.6943 0.61459 0.0
H1633 H 0.36614 0.74975 0.62172 0.0
H1634 H 0.33783 0.75271 0.63529 0.0
H1635 H 0.28782 0.72899 0.72786 0.0
H1636 H 0.2871 0.71731 0.69639 0.0
H1637 H 0.31014 0.76817 0.68204 0.0
H1638 H 0.31058 0.78003 0.71338 0.0
H1639 H 0.32517 0.7391 0.66589 0.0
H1640 H 0.26827 0.75844 0.6726 0.0
H1641 H 0.24048 0.76049 0.6874 0.0
H1642 H 0.22255 0.70533 0.67694 0.0
H1643 H 0.25045 0.7029 0.66241 0.0
C1644 C 0.29553 0.71002 0.58107 0.0
C1645 C 0.2859 0.69281 0.57819 0.0
C1646 C 0.29752 0.71914 0.59825 0.0
C1647 C 0.28991 0.7112 0.61283 0.0
C1648 C 0.27992 0.69423 0.60979 0.0
C1649 C 0.27798 0.68515 0.59276 0.0
C1650 C 0.29251 0.7202 0.63141 0.0
C1651 C 0.27693 0.7215 0.64024 0.0
C1652 C 0.31012 0.7268 0.64074 0.0
C1653 C 0.32714 0.72505 0.63261 0.0
C1654 C 0.33057 0.70856 0.62682 0.0
C1655 C 0.34662 0.70701 0.61909 0.0
C1656 C 0.35941 0.72185 0.61723 0.0
C1657 C 0.3562 0.73827 0.62314 0.0
C1658 C 0.34016 0.73989 0.63085 0.0
C1659 C 0.29303 0.73763 0.71808 0.0
C1660 C 0.29917 0.75545 0.72309 0.0
C1661 C 0.29254 0.73095 0.7001 0.0
C1662 C 0.29845 0.74192 0.68688 0.0
C1663 C 0.30552 0.75951 0.69203 0.0
C1664 C 0.3057 0.76626 0.70993 0.0
C1665 C 0.29611 0.73523 0.66752 0.0
C1666 C 0.31168 0.73443 0.65859 0.0
C1667 C 0.2785 0.72902 0.6581 0.0
C1668 C 0.26156 0.73046 0.66658 0.0
C1669 C 0.25849 0.74672 0.6736 0.0
C1670 C 0.2427 0.74796 0.68191 0.0
C1671 C 0.22978 0.73305 0.68313 0.0
C1672 C 0.23259 0.71687 0.676 0.0
C1673 C 0.24839 0.71555 0.66772 0.0
H1674 H 0.21757 0.73404 0.68958 0.0
H1675 H 0.37182 0.72063 0.61125 0.0
H1676 H 0.6089 0.00825 0.80193 0.0
H1677 H 0.60238 0.02752 0.82669 0.0
H1678 H 0.5448 0.01617 0.80666 0.0
H1679 H 0.55141 0.99761 0.7814 0.0
H1680 H 0.55391 0.04907 0.81541 0.0
H1681 H 0.56452 0.99783 0.84469 0.0
H1682 H 0.58192 0.97513 0.85403 0.0
H1683 H 0.62521 0.01426 0.88142 0.0
H1684 H 0.60813 0.03721 0.87205 0.0
H1685 H 0.50884 0.04975 0.89384 0.0
H1686 H 0.52194 0.0479 0.86549 0.0
H1687 H 0.57344 0.07713 0.89118 0.0
H1688 H 0.5601 0.08 0.91964 0.0
H1689 H 0.57335 0.04165 0.87963 0.0
H1690 H 0.55691 0.09203 0.85535 0.0
H1691 H 0.53677 0.11292 0.84719 0.0
H1692 H 0.50114 0.07327 0.81151 0.0
H1693 H 0.5209 0.05204 0.81965 0.0
C1694 C 0.59483 0.0097 0.80297 0.0
C1695 C 0.58063 1.00137 0.78985 0.0
C1696 C 0.59112 0.02075 0.81709 0.0
C1697 C 0.57308 0.02323 0.81861 0.0
C1698 C 0.55885 0.01458 0.80569 0.0
C1699 C 0.5626 0.00385 0.79137 0.0
C1700 C 0.56885 0.03475 0.83362 0.0
C1701 C 0.55809 0.04739 0.82947 0.0
C1702 C 0.57484 0.03301 0.85195 0.0
C1703 C 0.58517 0.01923 0.85746 0.0
C1704 C 0.57782 1.00159 0.85257 0.0
C1705 C 0.58761 0.98868 0.85789 0.0
C1706 C 0.60469 0.99325 0.86825 0.0
C1707 C 0.612 0.01074 0.87335 0.0
C1708 C 0.60227 0.0237 0.86804 0.0
C1709 C 0.52262 0.05667 0.89339 0.0
C1710 C 0.53357 0.06459 0.90924 0.0
C1711 C 0.53014 0.05553 0.87706 0.0
C1712 C 0.54871 0.06216 0.87636 0.0
C1713 C 0.55909 0.07184 0.89155 0.0
C1714 C 0.55147 0.0733 0.90783 0.0
C1715 C 0.55786 0.05546 0.86142 0.0
C1716 C 0.56957 0.04366 0.86557 0.0
C1717 C 0.55236 0.05769 0.84317 0.0
C1718 C 0.54038 0.0704 0.83819 0.0
C1719 C 0.54471 0.08771 0.84587 0.0
C1720 C 0.53337 0.09963 0.84122 0.0
C1721 C 0.51768 0.09442 0.82885 0.0
C1722 C 0.51331 0.07729 0.82108 0.0
C1723 C 0.5246 0.06531 0.82569 0.0
H1724 H 0.50892 0.10367 0.82527 0.0
H1725 H 0.61224 0.98324 0.87237 0.0
H1726 H 0.28179 0.39405 0.10385 0.0
H1727 H 0.28289 0.38009 0.13229 0.0
H1728 H 0.26539 0.32993 0.1026 0.0
H1729 H 0.26372 0.34401 0.07412 0.0
H1730 H 0.24981 0.32739 0.13116 0.0
H1731 H 0.31301 0.34863 0.12581 0.0
H1732 H 0.34024 0.37032 0.12215 0.0
H1733 H 0.33255 0.40005 0.17043 0.0
H1734 H 0.30514 0.37863 0.17426 0.0
H1735 H 0.27254 0.27722 0.20513 0.0
H1736 H 0.27077 0.29185 0.1772 0.0
H1737 H 0.28474 0.34159 0.20821 0.0
H1738 H 0.28679 0.32687 0.23635 0.0
H1739 H 0.30198 0.34458 0.17933 0.0
H1740 H 0.23893 0.32264 0.18476 0.0
H1741 H 0.21207 0.30049 0.18834 0.0
H1742 H 0.21998 0.27154 0.13965 0.0
H1743 H 0.24704 0.29342 0.13589 0.0
C1744 C 0.2782 0.38002 0.10323 0.0
C1745 C 0.27274 0.37038 0.08621 0.0
C1746 C 0.279 0.37187 0.11977 0.0
C1747 C 0.27464 0.35357 0.12025 0.0
C1748 C 0.26897 0.34396 0.10321 0.0
C1749 C 0.26806 0.35212 0.08667 0.0
C1750 C 0.27571 0.34457 0.13823 0.0
C1751 C 0.26145 0.33112 0.14146 0.0
C1752 C 0.29048 0.34922 0.15247 0.0
C1753 C 0.30692 0.36212 0.15021 0.0
C1754 C 0.31706 0.35985 0.13558 0.0
C1755 C 0.33253 0.37209 0.13348 0.0
C1756 C 0.33809 0.38658 0.14602 0.0
C1757 C 0.32821 0.38884 0.16071 0.0
C1758 C 0.31271 0.37665 0.16286 0.0
C1759 C 0.27509 0.29129 0.20621 0.0
C1760 C 0.27965 0.30061 0.22351 0.0
C1761 C 0.27398 0.2998 0.18995 0.0
C1762 C 0.27729 0.31816 0.18997 0.0
C1763 C 0.28198 0.32751 0.20726 0.0
C1764 C 0.28306 0.31898 0.22359 0.0
C1765 C 0.27612 0.3274 0.17219 0.0
C1766 C 0.29035 0.34089 0.16901 0.0
C1767 C 0.26138 0.32272 0.15795 0.0
C1768 C 0.24511 0.30958 0.16015 0.0
C1769 C 0.23501 0.31149 0.17488 0.0
C1770 C 0.21975 0.29899 0.17693 0.0
C1771 C 0.21435 0.28459 0.16426 0.0
C1772 C 0.22419 0.28268 0.14947 0.0
C1773 C 0.23949 0.29514 0.14737 0.0
H1774 H 0.20253 0.27493 0.16587 0.0
H1775 H 0.35007 0.39604 0.14438 0.0
H1776 H 0.27233 0.92456 0.05003 0.0
H1777 H 0.24904 0.94242 0.05441 0.0
H1778 H 0.20674 0.89691 0.04318 0.0
H1779 H 0.23008 0.87887 0.03852 0.0
H1780 H 0.19752 0.92381 0.02563 0.0
H1781 H 0.21921 0.91518 0.08634 0.0
H1782 H 0.24233 0.91487 0.11241 0.0
H1783 H 0.26021 0.9699 0.11191 0.0
H1784 H 0.23735 0.9705 0.08567 0.0
H1785 H 0.12784 0.96809 0.05287 0.0
H1786 H 0.14912 0.94759 0.05116 0.0
H1787 H 0.19486 0.98996 0.06375 0.0
H1788 H 0.1736 0.01051 0.0658 0.0
H1789 H 0.20101 0.96296 0.08151 0.0
H1790 H 0.18088 0.97117 0.01958 0.0
H1791 H 0.15796 0.97154 0.99333 0.0
H1792 H 0.1372 0.91732 0.99622 0.0
H1793 H 0.15988 0.91667 0.02262 0.0
C1794 C 0.25811 0.91831 0.04853 0.0
C1795 C 0.25309 0.90028 0.04398 0.0
C1796 C 0.24477 0.92854 0.05112 0.0
C1797 C 0.22613 0.92099 0.04936 0.0
C1798 C 0.22104 0.90301 0.04467 0.0
C1799 C 0.23441 0.89274 0.04206 0.0
C1800 C 0.21202 0.93199 0.05212 0.0
C1801 C 0.1981 0.93214 0.03797 0.0
C1802 C 0.21296 0.94314 0.06808 0.0
C1803 C 0.22665 0.94285 0.08394 0.0
C1804 C 0.22816 0.92719 0.09171 0.0
C1805 C 0.2412 0.92697 0.10653 0.0
C1806 C 0.25276 0.94235 0.11379 0.0
C1807 C 0.25126 0.958 0.10626 0.0
C1808 C 0.23824 0.95829 0.09143 0.0
C1809 C 0.14244 0.97304 0.05524 0.0
C1810 C 0.14905 0.99095 0.05934 0.0
C1811 C 0.15459 0.96131 0.05423 0.0
C1812 C 0.17362 0.96724 0.057 0.0
C1813 C 0.18024 0.98506 0.06153 0.0
C1814 C 0.16809 0.99679 0.06272 0.0
C1815 C 0.18665 0.95495 0.05493 0.0
C1816 C 0.20036 0.95454 0.06922 0.0
C1817 C 0.18553 0.94358 0.03909 0.0
C1818 C 0.17198 0.94391 0.02315 0.0
C1819 C 0.17136 0.95935 0.01467 0.0
C1820 C 0.15843 0.9596 -0.00024 0.0
C1821 C 0.14614 0.94446 0.99311 0.0
C1822 C 0.14676 0.92903 0.00136 0.0
C1823 C 0.15965 0.92871 0.01629 0.0
H1824 H 0.13614 0.94468 0.98157 0.0
H1825 H 0.26285 0.94215 0.12526 0.0
H1826 H 0.75909 0.59632 0.01894 0.0
H1827 H 0.72794 0.58023 0.01962 0.0
H1828 H 0.70664 0.62789 0.01608 0.0
H1829 H 0.73781 0.64402 0.0158 0.0
H1830 H 0.68824 0.61081 0.03817 0.0
H1831 H 0.70202 0.59347 0.9791 0.0
H1832 H 0.71973 0.58161 0.95654 0.0
H1833 H 0.71347 0.53293 0.98059 0.0
H1834 H 0.69591 0.54458 0.00343 0.0
H1835 H 0.59916 0.54511 0.99322 0.0
H1836 H 0.63044 0.56063 0.99184 0.0
H1837 H 0.64059 0.56387 0.05002 0.0
H1838 H 0.60927 0.54877 0.05146 0.0
H1839 H 0.66395 0.55624 0.99938 0.0
H1840 H 0.6731 0.59982 0.0668 0.0
H1841 H 0.65401 0.6129 0.08712 0.0
H1842 H 0.61217 0.61153 0.04269 0.0
H1843 H 0.63124 0.59898 0.02196 0.0
C1844 C 0.74781 0.60343 0.01819 0.0
C1845 C 0.75131 0.62164 0.01719 0.0
C1846 C 0.72977 0.59412 0.0185 0.0
C1847 C 0.71435 0.60254 0.01767 0.0
C1848 C 0.71791 0.62076 0.01676 0.0
C1849 C 0.73593 0.63007 0.01648 0.0
C1850 C 0.69474 0.59259 0.01796 0.0
C1851 C 0.68309 0.59885 0.02968 0.0
C1852 C 0.68729 0.577 0.00678 0.0
C1853 C 0.69781 0.56996 0.99307 0.0
C1854 C 0.70453 0.58028 0.97964 0.0
C1855 C 0.71452 0.57358 0.9668 0.0
C1856 C 0.71776 0.55654 0.96716 0.0
C1857 C 0.71097 0.54614 0.98034 0.0
C1858 C 0.70099 0.55277 0.99323 0.0
C1859 C 0.60801 0.54905 0.00577 0.0
C1860 C 0.60129 0.54554 0.02247 0.0
C1861 C 0.62611 0.558 0.00497 0.0
C1862 C 0.63831 0.56393 0.02081 0.0
C1863 C 0.63172 0.56 0.03747 0.0
C1864 C 0.61362 0.55114 0.03829 0.0
C1865 C 0.65763 0.57424 0.01991 0.0
C1866 C 0.66917 0.56812 0.00799 0.0
C1867 C 0.66486 0.59011 0.03071 0.0
C1868 C 0.65354 0.59826 0.04288 0.0
C1869 C 0.6599 0.60245 0.06133 0.0
C1870 C 0.64909 0.60979 0.07291 0.0
C1871 C 0.63189 0.61302 0.06619 0.0
C1872 C 0.62551 0.60903 0.04786 0.0
C1873 C 0.63633 0.60183 0.03618 0.0
H1874 H 0.62351 0.61863 0.0752 0.0
H1875 H 0.7255 0.55138 0.9572 0.0
H1876 H 0.73081 0.47964 0.3403 0.0
H1877 H 0.75405 0.46117 0.34176 0.0
H1878 H 0.79244 0.5017 0.32276 0.0
H1879 H 0.76907 0.52029 0.32108 0.0
H1880 H 0.788 0.4719 0.30178 0.0
H1881 H 0.80128 0.48794 0.36494 0.0
H1882 H 0.79447 0.49373 0.39623 0.0
H1883 H 0.76899 0.44036 0.39684 0.0
H1884 H 0.77539 0.43428 0.36546 0.0
H1885 H 0.83956 0.40535 0.2913 0.0
H1886 H 0.83396 0.4333 0.3043 0.0
H1887 H 0.78817 0.40658 0.32855 0.0
H1888 H 0.79389 0.37877 0.31593 0.0
H1889 H 0.80444 0.43459 0.34991 0.0
H1890 H 0.7829 0.42104 0.28592 0.0
H1891 H 0.78669 0.41419 0.25388 0.0
H1892 H 0.82467 0.46207 0.25443 0.0
H1893 H 0.82128 0.46909 0.28658 0.0
C1894 C 0.74432 0.4848 0.33683 0.0
C1895 C 0.74806 0.50134 0.33038 0.0
C1896 C 0.75767 0.47427 0.33782 0.0
C1897 C 0.77503 0.48009 0.33247 0.0
C1898 C 0.77914 0.497 0.32702 0.0
C1899 C 0.76579 0.50759 0.32608 0.0
C1900 C 0.78761 0.46757 0.33 0.0
C1901 C 0.79212 0.46412 0.31246 0.0
C1902 C 0.79255 0.45712 0.34383 0.0
C1903 C 0.78878 0.46067 0.36279 0.0
C1904 C 0.79412 0.47745 0.3717 0.0
C1905 C 0.79035 0.48079 0.38947 0.0
C1906 C 0.7813 0.46743 0.39851 0.0
C1907 C 0.77602 0.4507 0.38982 0.0
C1908 C 0.77975 0.44729 0.37205 0.0
C1909 C 0.82855 0.40547 0.29972 0.0
C1910 C 0.81705 0.38992 0.30246 0.0
C1911 C 0.82538 0.42141 0.30716 0.0
C1912 C 0.81043 0.42204 0.31712 0.0
C1913 C 0.7998 0.40643 0.32094 0.0
C1914 C 0.80308 0.39051 0.3137 0.0
C1915 C 0.80428 0.4387 0.32161 0.0
C1916 C 0.80091 0.44283 0.33944 0.0
C1917 C 0.80004 0.44964 0.308 0.0
C1918 C 0.80204 0.44547 0.28869 0.0
C1919 C 0.79216 0.43004 0.27923 0.0
C1920 C 0.79422 0.42613 0.26106 0.0
C1921 C 0.80596 0.43766 0.25214 0.0
C1922 C 0.81562 0.45314 0.26137 0.0
C1923 C 0.81365 0.45708 0.27957 0.0
H1924 H 0.80753 0.43462 0.23806 0.0
H1925 H 0.77838 0.47004 0.41227 0.0
H1926 H 0.85478 0.42265 0.50047 0.0
H1927 H 0.88712 0.43595 0.50427 0.0
H1928 H 0.89341 0.41808 0.55767 0.0
H1929 H 0.86081 0.40426 0.55376 0.0
H1930 H 0.9065 0.45508 0.55519 0.0
H1931 H 0.91457 0.40036 0.52964 0.0
H1932 H 0.90855 0.37388 0.50856 0.0
H1933 H 0.92053 0.40472 0.46431 0.0
H1934 H 0.92631 0.43142 0.48505 0.0
H1935 H 1.00096 0.49623 0.55335 0.0
H1936 H 0.97365 0.47565 0.55815 0.0
H1937 H 0.95242 0.47602 0.50214 0.0
H1938 H 0.97971 0.49619 0.49711 0.0
H1939 H 0.95023 0.44333 0.5119 0.0
H1940 H 0.93577 0.4979 0.53672 0.0
H1941 H 0.94168 0.52455 0.55759 0.0
H1942 H 0.94193 0.49376 0.60317 0.0
H1943 H 0.93621 0.46692 0.58254 0.0
C1944 C 0.86308 0.42133 0.51295 0.0
C1945 C 0.8553 0.41246 0.52684 0.0
C1946 C 0.88156 0.42889 0.51507 0.0
C1947 C 0.89264 0.42795 0.53122 0.0
C1948 C 0.88506 0.41887 0.54508 0.0
C1949 C 0.86652 0.41094 0.54281 0.0
C1950 C 0.91176 0.43752 0.53363 0.0
C1951 C 0.9163 0.45228 0.54606 0.0
C1952 C 0.92438 0.43395 0.52155 0.0
C1953 C 0.92076 0.41793 0.50892 0.0
C1954 C 0.91575 0.40152 0.51539 0.0
C1955 C 0.91241 0.38646 0.5035 0.0
C1956 C 0.91413 0.38762 0.4851 0.0
C1957 C 0.9192 0.40384 0.47856 0.0
C1958 C 0.92253 0.41895 0.49039 0.0
C1959 C 0.99046 0.49202 0.54207 0.0
C1960 C 0.99265 0.49781 0.5248 0.0
C1961 C 0.97482 0.48027 0.54486 0.0
C1962 C 0.96102 0.47424 0.53048 0.0
C1963 C 0.96297 0.48038 0.5134 0.0
C1964 C 0.97856 0.49204 0.51058 0.0
C1965 C 0.9446 0.46132 0.53287 0.0
C1966 C 0.94063 0.44592 0.52133 0.0
C1967 C 0.93251 0.46433 0.54573 0.0
C1968 C 0.93578 0.48043 0.5581 0.0
C1969 C 0.93721 0.49683 0.55119 0.0
C1970 C 0.9405 0.51196 0.56298 0.0
C1971 C 0.94224 0.51085 0.5817 0.0
C1972 C 0.94062 0.4946 0.58867 0.0
C1973 C 0.93733 0.47943 0.57694 0.0
H1974 H 0.9448 0.52259 0.5908 0.0
H1975 H 0.91155 0.37594 0.47592 0.0
H1976 H 0.4131 0.08497 0.29332 0.0
H1977 H 0.3886 0.10154 0.28652 0.0
H1978 H 0.42331 0.13429 0.25487 0.0
H1979 H 0.44815 0.11828 0.26238 0.0
H1980 H 0.40343 0.15308 0.27095 0.0
H1981 H 0.39071 0.09879 0.23506 0.0
H1982 H 0.38639 0.06694 0.22889 0.0
H1983 H 0.34119 0.06075 0.26074 0.0
H1984 H 0.3454 0.09257 0.26732 0.0
H1985 H 0.32911 0.18393 0.22475 0.0
H1986 H 0.35422 0.16755 0.22884 0.0
H1987 H 0.32613 0.13815 0.26783 0.0
H1988 H 0.30075 0.15415 0.2634 0.0
H1989 H 0.34321 0.11802 0.24562 0.0
H1990 H 0.3579 0.17414 0.2813 0.0
H1991 H 0.36198 0.20617 0.28411 0.0
H1992 H 0.4041 0.20892 0.24861 0.0
H1993 H 0.39999 0.17688 0.24527 0.0
C1994 C 0.4156 0.09591 0.28519 0.0
C1995 C 0.43244 0.10025 0.27824 0.0
C1996 C 0.40156 0.10528 0.28119 0.0
C1997 C 0.40393 0.11883 0.26972 0.0
C1998 C 0.42111 0.12382 0.26363 0.0
C1999 C 0.4353 0.11466 0.26794 0.0
C2000 C 0.38824 0.12718 0.26339 0.0
C2001 C 0.39035 0.1454 0.26521 0.0
C2002 C 0.37114 0.1172 0.25582 0.0
C2003 C 0.36848 0.09806 0.25181 0.0
C2004 C 0.37993 0.09063 0.24085 0.0
C2005 C 0.37749 0.07259 0.23727 0.0
C2006 C 0.36356 0.06183 0.24445 0.0
C2007 C 0.352 0.0691 0.2552 0.0
C2008 C 0.35439 0.08714 0.25885 0.0
C2009 C 0.32805 0.17363 0.23379 0.0
C2010 C 0.31304 0.17036 0.24385 0.0
C2011 C 0.34248 0.16442 0.23625 0.0
C2012 C 0.34214 0.15189 0.24889 0.0
C2013 C 0.32667 0.14786 0.2581 0.0
C2014 C 0.31225 0.15705 0.25564 0.0
C2015 C 0.35836 0.14378 0.25351 0.0
C2016 C 0.35635 0.12563 0.25131 0.0
C2017 C 0.37562 0.15384 0.26037 0.0
C2018 C 0.37854 0.17311 0.26292 0.0
C2019 C 0.36798 0.18157 0.27403 0.0
C2020 C 0.37027 0.19973 0.27569 0.0
C2021 C 0.38323 0.20957 0.26648 0.0
C2022 C 0.39402 0.20128 0.25568 0.0
C2023 C 0.39172 0.18312 0.2539 0.0
H2024 H 0.38496 0.22362 0.26773 0.0
H2025 H 0.36169 0.04786 0.24167 0.0
H2026 H 0.35178 0.09427 0.53053 0.0
H2027 H 0.37923 0.08132 0.53031 0.0
H2028 H 0.40874 0.12881 0.51388 0.0
H2029 H 0.3805 0.1415 0.51295 0.0
H2030 H 0.42415 0.10597 0.49997 0.0
H2031 H 0.41233 0.11186 0.56121 0.0
H2032 H 0.3949 0.10908 0.5876 0.0
H2033 H 0.38657 0.05343 0.5786 0.0
H2034 H 0.40377 0.05588 0.55201 0.0
H2035 H 0.51175 0.07992 0.53056 0.0
H2036 H 0.48468 0.09423 0.52859 0.0
H2037 H 0.44943 0.04429 0.52475 0.0
H2038 H 0.47639 0.02992 0.52607 0.0
H2039 H 0.43843 0.0696 0.54963 0.0
H2040 H 0.45287 0.06585 0.48806 0.0
H2041 H 0.47327 0.07096 0.46416 0.0
H2042 H 0.48003 0.12609 0.47716 0.0
H2043 H 0.45991 0.1213 0.50136 0.0
C2044 C 0.36402 0.10208 0.52673 0.0
C2045 C 0.36346 0.11916 0.52182 0.0
C2046 C 0.3801 0.09462 0.52687 0.0
C2047 C 0.39697 0.10398 0.5228 0.0
C2048 C 0.39637 0.12096 0.51734 0.0
C2049 C 0.38 0.12835 0.51677 0.0
C2050 C 0.4148 0.09599 0.52431 0.0
C2051 C 0.42719 0.09826 0.51106 0.0
C2052 C 0.41957 0.08563 0.53858 0.0
C2053 C 0.40918 0.08406 0.55451 0.0
C2054 C 0.40668 0.09903 0.56479 0.0
C2055 C 0.39685 0.09752 0.57979 0.0
C2056 C 0.38959 0.08109 0.58474 0.0
C2057 C 0.39218 0.06614 0.57473 0.0
C2058 C 0.40198 0.06759 0.5597 0.0
C2059 C 0.49828 0.07188 0.5293 0.0
C2060 C 0.49666 0.05354 0.52852 0.0
C2061 C 0.48261 0.08018 0.5281 0.0
C2062 C 0.46453 0.07058 0.52646 0.0
C2063 C 0.46293 0.05229 0.526 0.0
C2064 C 0.47855 0.04398 0.52674 0.0
C2065 C 0.44744 0.07944 0.52526 0.0
C2066 C 0.43526 0.07733 0.53858 0.0
C2067 C 0.44319 0.0903 0.51138 0.0
C2068 C 0.45503 0.09321 0.49665 0.0
C2069 C 0.45882 0.07906 0.48592 0.0
C2070 C 0.47031 0.0819 0.4723 0.0
C2071 C 0.47798 0.09883 0.46918 0.0
C2072 C 0.47411 0.11297 0.47961 0.0
C2073 C 0.46265 0.1102 0.49328 0.0
H2074 H 0.4869 0.101 0.45864 0.0
H2075 H 0.38199 0.07994 0.59636 0.0
H2076 H 0.67717 0.59564 0.30969 0.0
H2077 H 0.68867 0.62686 0.31048 0.0
H2078 H 0.74427 0.61731 0.317 0.0
H2079 H 0.73285 0.58622 0.31714 0.0
H2080 H 0.74291 0.6452 0.3367 0.0
H2081 H 0.72022 0.6242 0.27447 0.0
H2082 H 0.6971 0.6102 0.24945 0.0
H2083 H 0.6626 0.64725 0.26133 0.0
H2084 H 0.68548 0.66139 0.28653 0.0
H2085 H 0.79125 0.7169 0.29793 0.0
H2086 H 0.77623 0.68866 0.30583 0.0
H2087 H 0.72496 0.70737 0.30546 0.0
H2088 H 0.73985 0.73569 0.29748 0.0
H2089 H 0.72156 0.67654 0.28521 0.0
H2090 H 0.7469 0.69988 0.34492 0.0
H2091 H 0.77107 0.71433 0.36879 0.0
H2092 H 0.80158 0.67311 0.36084 0.0
H2093 H 0.77772 0.65852 0.33673 0.0
C2094 C 0.69185 0.60023 0.31145 0.0
C2095 C 0.70411 0.58846 0.31325 0.0
C2096 C 0.69841 0.61808 0.3118 0.0
C2097 C 0.71736 0.62446 0.31341 0.0
C2098 C 0.72959 0.61275 0.31573 0.0
C2099 C 0.72304 0.59495 0.31576 0.0
C2100 C 0.72454 0.64319 0.31205 0.0
C2101 C 0.73834 0.652 0.32536 0.0
C2102 C 0.71825 0.65229 0.29754 0.0
C2103 C 0.70446 0.64372 0.28248 0.0
C2104 C 0.70764 0.62927 0.27182 0.0
C2105 C 0.69459 0.62133 0.2576 0.0
C2106 C 0.67835 0.6278 0.25384 0.0
C2107 C 0.67516 0.64223 0.26428 0.0
C2108 C 0.68817 0.65023 0.27852 0.0
C2109 C 0.77683 0.7151 0.29971 0.0
C2110 C 0.76675 0.72854 0.297 0.0
C2111 C 0.76828 0.69896 0.30433 0.0
C2112 C 0.74951 0.69596 0.30635 0.0
C2113 C 0.73947 0.70944 0.304 0.0
C2114 C 0.74803 0.72562 0.29947 0.0
C2115 C 0.74016 0.67836 0.30961 0.0
C2116 C 0.72597 0.66979 0.29667 0.0
C2117 C 0.74621 0.66947 0.32435 0.0
C2118 C 0.76056 0.67816 0.33891 0.0
C2119 C 0.75883 0.69395 0.34816 0.0
C2120 C 0.77246 0.70216 0.36175 0.0
C2121 C 0.78787 0.69466 0.3663 0.0
C2122 C 0.78964 0.67891 0.3573 0.0
C2123 C 0.77605 0.67065 0.34368 0.0
H2124 H 0.79841 0.70104 0.37683 0.0
H2125 H 0.66827 0.62168 0.2428 0.0
H2126 H 0.93641 0.52034 0.78955 0.0
H2127 H 0.91753 0.49217 0.79215 0.0
H2128 H 0.9631 0.46665 0.78269 0.0
H2129 H 0.98215 0.49484 0.78003 0.0
H2130 H 0.93136 0.45079 0.76216 0.0
H2131 H 0.95076 0.47035 0.82453 0.0
H2132 H 0.95587 0.49113 0.85169 0.0
H2133 H 0.89807 0.49137 0.84882 0.0
H2134 H 0.89261 0.47072 0.82153 0.0
H2135 H 0.88663 0.36873 0.78645 0.0
H2136 H 0.90851 0.39549 0.78461 0.0
H2137 H 0.86693 0.42589 0.79522 0.0
H2138 H 0.84505 0.39925 0.79708 0.0
H2139 H 0.89867 0.43838 0.81591 0.0
H2140 H 0.87932 0.41994 0.75296 0.0
H2141 H 0.87393 0.39924 0.72572 0.0
H2142 H 0.93139 0.39712 0.72942 0.0
H2143 H 0.93709 0.41759 0.75687 0.0
C2144 C 0.9425 0.50877 0.78818 0.0
C2145 C 0.96076 0.50981 0.78449 0.0
C2146 C 0.93168 0.49268 0.78967 0.0
C2147 C 0.93897 0.47736 0.78771 0.0
C2148 C 0.95724 0.47834 0.78421 0.0
C2149 C 0.96808 0.49445 0.78269 0.0
C2150 C 0.92733 0.46032 0.789 0.0
C2151 C 0.92444 0.44792 0.77402 0.0
C2152 C 0.91807 0.4568 0.80435 0.0
C2153 C 0.92129 0.46908 0.82089 0.0
C2154 C 0.93915 0.47492 0.82962 0.0
C2155 C 0.94211 0.48666 0.84504 0.0
C2156 C 0.92731 0.49261 0.85194 0.0
C2157 C 0.90952 0.48676 0.84346 0.0
C2158 C 0.90648 0.47501 0.82803 0.0
C2159 C 0.88212 0.38113 0.78818 0.0
C2160 C 0.86416 0.38193 0.79196 0.0
C2161 C 0.89462 0.39638 0.78716 0.0
C2162 C 0.88929 0.41265 0.78971 0.0
C2163 C 0.87133 0.41346 0.79331 0.0
C2164 C 0.85887 0.39825 0.7944 0.0
C2165 C 0.90248 0.42891 0.78899 0.0
C2166 C 0.90568 0.44117 0.80409 0.0
C2167 C 0.91198 0.4323 0.77374 0.0
C2168 C 0.9086 0.42015 0.7571 0.0
C2169 C 0.89079 0.41495 0.74805 0.0
C2170 C 0.88768 0.40328 0.73256 0.0
C2171 C 0.9023 0.39682 0.72588 0.0
C2172 C 0.92008 0.4021 0.73463 0.0
C2173 C 0.92326 0.41375 0.75015 0.0
H2174 H 0.89987 0.38777 0.71389 0.0
H2175 H 0.92964 0.50171 0.86387 0.0
H2176 H 0.06013 0.88979 0.1313 0.0
H2177 H 0.04989 0.90724 0.10775 0.0
H2178 H 0.05729 0.86828 0.06669 0.0
H2179 H 0.06815 0.85094 0.0903 0.0
H2180 H 0.07166 0.89835 0.05818 0.0
H2181 H 0.01361 0.87536 0.07387 0.0
H2182 H 0.98973 0.86607 0.09354 0.0
H2183 H 0.99317 0.91897 0.11488 0.0
H2184 H 0.01726 0.92857 0.09556 0.0
H2185 H 0.01638 0.97023 0.0221 0.0
H2186 H 0.01593 0.94044 0.03073 0.0
H2187 H 0.07229 0.95491 0.05441 0.0
H2188 H 0.07308 0.98404 0.04524 0.0
H2189 H 0.01898 0.92911 0.06203 0.0
H2190 H 0.0957 0.92436 0.05467 0.0
H2191 H 0.11809 0.93265 0.0332 0.0
H2192 H 0.07422 0.93169 0.99085 0.0
H2193 H 0.05155 0.92314 0.01196 0.0
C2194 C 0.05944 0.88485 0.11726 0.0
C2195 C 0.065 0.86904 0.11263 0.0
C2196 C 0.05341 0.89476 0.10379 0.0
C2197 C 0.05249 0.88892 0.08543 0.0
C2198 C 0.05779 0.87299 0.08077 0.0
C2199 C 0.06401 0.86312 0.09426 0.0
C2200 C 0.04752 0.90029 0.07131 0.0
C2201 C 0.05999 0.9049 0.0588 0.0
C2202 C 0.03189 0.90832 0.07162 0.0
C2203 C 0.0173 0.90268 0.08326 0.0
C2204 C 0.00935 0.88501 0.08283 0.0
C2205 C 0.99577 0.87969 0.09392 0.0
C2206 C 0.98994 0.89192 0.10546 0.0
C2207 C 0.99768 0.90951 0.10592 0.0
C2208 C 0.01128 0.9149 0.09486 0.0
C2209 C 0.02873 0.96689 0.02888 0.0
C2210 C 0.04478 0.97943 0.03289 0.0
C2211 C 0.02846 0.94991 0.03379 0.0
C2212 C 0.0442 0.94531 0.04287 0.0
C2213 C 0.06017 0.95789 0.04685 0.0
C2214 C 0.06054 0.97466 0.04172 0.0
C2215 C 0.04381 0.92797 0.04982 0.0
C2216 C 0.03032 0.9222 0.06096 0.0
C2217 C 0.05823 0.91854 0.04787 0.0
C2218 C 0.07188 0.92311 0.03494 0.0
C2219 C 0.09081 0.92572 0.04074 0.0
C2220 C 0.10356 0.93054 0.02864 0.0
C2221 C 0.09757 0.93272 0.0107 0.0
C2222 C 0.07883 0.93002 0.00477 0.0
C2223 C 0.06602 0.92521 0.0168 0.0
H2224 H 0.10743 0.93651 0.00136 0.0
H2225 H 0.97943 0.88777 0.11404 0.0
H2226 H 0.99331 0.24544 0.81917 0.0
H2227 H 0.96338 0.24866 0.80466 0.0
H2228 H 0.93687 0.21375 0.84016 0.0
H2229 H 0.96687 0.21063 0.85513 0.0
H2230 H 0.92066 0.21104 0.80025 0.0
H2231 H 0.93977 0.25093 0.85427 0.0
H2232 H 0.96202 0.27311 0.87382 0.0
H2233 H 0.96395 0.30713 0.83091 0.0
H2234 H 0.94194 0.285 0.811 0.0
H2235 H 0.83302 0.23425 0.79522 0.0
H2236 H 0.8627 0.22663 0.8047 0.0
H2237 H 0.88985 0.27341 0.78447 0.0
H2238 H 0.86005 0.28149 0.7756 0.0
H2239 H 0.90644 0.26962 0.81558 0.0
H2240 H 0.88636 0.23157 0.76189 0.0
H2241 H 0.86506 0.20965 0.74113 0.0
H2242 H 0.86573 0.17265 0.7811 0.0
H2243 H 0.88685 0.19442 0.8022 0.0
C2244 C 0.98117 0.2381 0.82368 0.0
C2245 C 0.98248 0.22793 0.83848 0.0
C2246 C 0.96409 0.23999 0.81535 0.0
C2247 C 0.94803 0.23157 0.8215 0.0
C2248 C 0.94919 0.22034 0.83529 0.0
C2249 C 0.96632 0.21862 0.84383 0.0
C2250 C 0.93023 0.23607 0.81488 0.0
C2251 C 0.91738 0.22375 0.80371 0.0
C2252 C 0.92633 0.25284 0.81906 0.0
C2253 C 0.93939 0.26623 0.83108 0.0
C2254 C 0.94508 0.26307 0.84895 0.0
C2255 C 0.95762 0.27564 0.86011 0.0
C2256 C 0.96443 0.2915 0.8536 0.0
C2257 C 0.95868 0.29483 0.83593 0.0
C2258 C 0.94617 0.28228 0.8247 0.0
C2259 C 0.8453 0.24288 0.79269 0.0
C2260 C 0.84422 0.25843 0.78458 0.0
C2261 C 0.86228 0.23845 0.79802 0.0
C2262 C 0.87853 0.24925 0.79496 0.0
C2263 C 0.87749 0.26483 0.7869 0.0
C2264 C 0.86048 0.26943 0.78182 0.0
C2265 C 0.89659 0.24458 0.80083 0.0
C2266 C 0.90959 0.2569 0.81194 0.0
C2267 C 0.90066 0.22786 0.79639 0.0
C2268 C 0.88807 0.21468 0.78368 0.0
C2269 C 0.88187 0.21879 0.7663 0.0
C2270 C 0.86985 0.20639 0.75446 0.0
C2271 C 0.86402 0.18978 0.75981 0.0
C2272 C 0.87025 0.18552 0.77698 0.0
C2273 C 0.88226 0.19788 0.78888 0.0
H2274 H 0.8547 0.1802 0.75063 0.0
H2275 H 0.97414 0.30122 0.86225 0.0
H2276 H 0.58968 0.29065 0.61343 0.0
H2277 H 0.58759 0.26313 0.5953 0.0
H2278 H 0.599 0.23786 0.64386 0.0
H2279 H 0.60181 0.26557 0.66206 0.0
H2280 H 0.61636 0.22609 0.61874 0.0
H2281 H 0.55469 0.23459 0.62183 0.0
H2282 H 0.52844 0.25004 0.61895 0.0
H2283 H 0.53164 0.25132 0.56182 0.0
H2284 H 0.55809 0.23608 0.56441 0.0
H2285 H 0.56981 0.13986 0.5864 0.0
H2286 H 0.57371 0.16954 0.60065 0.0
H2287 H 0.59299 0.18977 0.55232 0.0
H2288 H 0.58955 0.15992 0.53806 0.0
H2289 H 0.56077 0.20429 0.57539 0.0
H2290 H 0.6244 0.19507 0.57472 0.0
H2291 H 0.64846 0.17724 0.57986 0.0
H2292 H 0.63853 0.175 0.6355 0.0
H2293 H 0.61418 0.19258 0.63057 0.0
C2294 C 0.59181 0.27924 0.62025 0.0
C2295 C 0.59577 0.28022 0.63919 0.0
C2296 C 0.59053 0.26351 0.60987 0.0
C2297 C 0.59276 0.24835 0.61824 0.0
C2298 C 0.59718 0.24938 0.63711 0.0
C2299 C 0.59875 0.2652 0.6475 0.0
C2300 C 0.59026 0.23141 0.60734 0.0
C2301 C 0.60416 0.22136 0.60932 0.0
C2302 C 0.57438 0.22519 0.59495 0.0
C2303 C 0.5585 0.23437 0.59335 0.0
C2304 C 0.54989 0.2383 0.60868 0.0
C2305 C 0.53496 0.24699 0.60709 0.0
C2306 C 0.52841 0.2517 0.59022 0.0
C2307 C 0.53675 0.24769 0.57489 0.0
C2308 C 0.55171 0.23901 0.5764 0.0
C2309 C 0.57464 0.15065 0.57873 0.0
C2310 C 0.57932 0.1477 0.56114 0.0
C2311 C 0.57692 0.16753 0.58689 0.0
C2312 C 0.58367 0.18169 0.57749 0.0
C2313 C 0.58779 0.17889 0.55971 0.0
C2314 C 0.58585 0.16194 0.55163 0.0
C2315 C 0.58691 0.19932 0.58671 0.0
C2316 C 0.57306 0.20932 0.58457 0.0
C2317 C 0.60261 0.20535 0.5992 0.0
C2318 C 0.61735 0.19495 0.60222 0.0
C2319 C 0.62722 0.19061 0.58799 0.0
C2320 C 0.64093 0.18059 0.59088 0.0
C2321 C 0.64498 0.17494 0.60798 0.0
C2322 C 0.63536 0.17935 0.62225 0.0
C2323 C 0.62161 0.18935 0.61942 0.0
H2324 H 0.65561 0.16719 0.61019 0.0
H2325 H 0.51685 0.25843 0.58902 0.0
H2326 H 0.55486 0.69377 0.36634 0.0
H2327 H 0.58318 0.69798 0.352 0.0
H2328 H 0.60582 0.74134 0.39124 0.0
H2329 H 0.57797 0.7365 0.40615 0.0
H2330 H 0.59287 0.72419 0.33521 0.0
H2331 H 0.6513 0.75214 0.393 0.0
H2332 H 0.66106 0.74684 0.42446 0.0
H2333 H 0.63273 0.69399 0.4149 0.0
H2334 H 0.623 0.69889 0.38331 0.0
H2335 H 0.66246 0.77994 0.30034 0.0
H2336 H 0.63905 0.76742 0.31891 0.0
H2337 H 0.67121 0.72832 0.33327 0.0
H2338 H 0.6948 0.74113 0.31522 0.0
H2339 H 0.65789 0.7394 0.3618 0.0
H2340 H 0.63342 0.71913 0.30087 0.0
H2341 H 0.62413 0.72179 0.2686 0.0
H2342 H 0.58517 0.75341 0.28315 0.0
H2343 H 0.59441 0.75114 0.31553 0.0
C2344 C 0.56618 0.70377 0.37225 0.0
C2345 C 0.56429 0.71485 0.38726 0.0
C2346 C 0.5823 0.70623 0.36402 0.0
C2347 C 0.59662 0.72003 0.37046 0.0
C2348 C 0.59515 0.7304 0.38619 0.0
C2349 C 0.57919 0.72767 0.39469 0.0
C2350 C 0.61176 0.72507 0.35936 0.0
C2351 C 0.6071 0.72731 0.34103 0.0
C2352 C 0.63036 0.72907 0.36686 0.0
C2353 C 0.63631 0.72594 0.38581 0.0
C2354 C 0.64723 0.73936 0.39757 0.0
C2355 C 0.65273 0.73643 0.41544 0.0
C2356 C 0.64748 0.7201 0.42169 0.0
C2357 C 0.63674 0.70665 0.41006 0.0
C2358 C 0.6312 0.70951 0.39218 0.0
C2359 C 0.66444 0.76868 0.30748 0.0
C2360 C 0.68034 0.76147 0.30642 0.0
C2361 C 0.65112 0.76152 0.31803 0.0
C2362 C 0.65331 0.7468 0.32729 0.0
C2363 C 0.66927 0.73969 0.3263 0.0
C2364 C 0.6827 0.74699 0.31599 0.0
C2365 C 0.63887 0.73866 0.33782 0.0
C2366 C 0.64366 0.73598 0.35601 0.0
C2367 C 0.62042 0.73379 0.3301 0.0
C2368 C 0.61471 0.73507 0.31063 0.0
C2369 C 0.62295 0.72674 0.29719 0.0
C2370 C 0.61769 0.72817 0.27888 0.0
C2371 C 0.6041 0.73779 0.27383 0.0
C2372 C 0.59571 0.74597 0.28708 0.0
C2373 C 0.60094 0.7446 0.30541 0.0
H2374 H 0.60004 0.73889 0.25964 0.0
H2375 H 0.65175 0.71787 0.43553 0.0
H2376 H 0.05678 0.22225 0.46022 0.0
H2377 H 0.05465 0.19434 0.47371 0.0
H2378 H 0.04107 0.16721 0.4206 0.0
H2379 H 0.04251 0.19515 0.40723 0.0
H2380 H 0.02315 0.14723 0.43931 0.0
H2381 H 0.08656 0.17241 0.45294 0.0
H2382 H 0.11357 0.19435 0.46521 0.0
H2383 H 0.09688 0.19157 0.51858 0.0
H2384 H 0.06966 0.16975 0.50658 0.0
H2385 H 0.03599 0.06311 0.46965 0.0
H2386 H 0.03791 0.09091 0.4559 0.0
H2387 H 0.04794 0.11838 0.50893 0.0
H2388 H 0.04643 0.09064 0.52264 0.0
H2389 H 0.06781 0.1379 0.49003 0.0
H2390 H 1.00403 0.11212 0.47538 0.0
H2391 H 0.97809 0.0893 0.46241 0.0
H2392 H 0.99689 0.09243 0.40993 0.0
H2393 H 0.02305 0.11517 0.42263 0.0
C2394 C 0.05335 0.21041 0.45128 0.0
C2395 C 0.04992 0.21156 0.43235 0.0
C2396 C 0.0523 0.19408 0.45912 0.0
C2397 C 0.04805 0.17778 0.44854 0.0
C2398 C 0.04443 0.17901 0.42961 0.0
C2399 C 0.04533 0.19532 0.42179 0.0
C2400 C 0.04713 0.15976 0.45693 0.0
C2401 C 0.03321 0.14538 0.45025 0.0
C2402 C 0.05973 0.1564 0.47159 0.0
C2403 C 0.07597 0.16961 0.47882 0.0
C2404 C 0.08858 0.17658 0.46727 0.0
C2405 C 0.10394 0.18898 0.47418 0.0
C2406 C 0.1069 0.1944 0.49265 0.0
C2407 C 0.09454 0.18739 0.50427 0.0
C2408 C 0.07915 0.175 0.49742 0.0
C2409 C 0.03846 0.07499 0.47854 0.0
C2410 C 0.04081 0.07399 0.49757 0.0
C2411 C 0.03947 0.09123 0.47052 0.0
C2412 C 0.04276 0.10756 0.48101 0.0
C2413 C 0.04531 0.10651 0.50002 0.0
C2414 C 0.04432 0.0903 0.50802 0.0
C2415 C 0.0438 0.12548 0.47247 0.0
C2416 C 0.05775 0.13982 0.47911 0.0
C2417 C 0.03135 0.12874 0.45767 0.0
C2418 C 0.01557 0.11522 0.44999 0.0
C2419 C 1.00267 0.10788 0.46109 0.0
C2420 C 0.98793 0.09497 0.45378 0.0
C2421 C 0.98587 0.08939 0.43536 0.0
C2422 C 0.99851 0.09675 0.4242 0.0
C2423 C 0.01329 0.10967 0.43144 0.0
H2424 H 0.97445 0.07938 0.42974 0.0
H2425 H 0.1188 0.20399 0.49798 0.0
H2426 H 0.60553 0.28659 0.14739 0.0
H2427 H 0.63553 0.28565 0.16361 0.0
H2428 H 0.60999 0.27288 0.2115 0.0
H2429 H 0.57996 0.27463 0.19541 0.0
H2430 H 0.64 0.29171 0.22342 0.0
H2431 H 0.62894 0.24249 0.17997 0.0
H2432 H 0.62174 0.22614 0.14992 0.0
H2433 H 0.66923 0.25615 0.13185 0.0
H2434 H 0.67658 0.27285 0.16173 0.0
H2435 H 0.72015 0.2638 0.26761 0.0
H2436 H 0.68962 0.2647 0.25205 0.0
H2437 H 0.71454 0.28654 0.20712 0.0
H2438 H 0.745 0.28584 0.22268 0.0
H2439 H 0.68486 0.26243 0.19424 0.0
H2440 H 0.69542 0.31133 0.23895 0.0
H2441 H 0.70257 0.32596 0.26983 0.0
H2442 H 0.65547 0.29399 0.28641 0.0
H2443 H 0.64817 0.279 0.25568 0.0
C2444 C 0.60619 0.28358 0.16139 0.0
C2445 C 0.58994 0.28065 0.16987 0.0
C2446 C 0.62357 0.28286 0.17075 0.0
C2447 C 0.62559 0.27872 0.18898 0.0
C2448 C 0.60933 0.27604 0.19755 0.0
C2449 C 0.59194 0.277 0.18823 0.0
C2450 C 0.64442 0.2774 0.19903 0.0
C2451 C 0.64956 0.28503 0.21697 0.0
C2452 C 0.65761 0.26899 0.19103 0.0
C2453 C 0.65319 0.25906 0.17302 0.0
C2454 C 0.63777 0.2457 0.16954 0.0
C2455 C 0.63367 0.23636 0.15255 0.0
C2456 C 0.64499 0.24014 0.13897 0.0
C2457 C 0.66046 0.25326 0.14237 0.0
C2458 C 0.66459 0.26267 0.15933 0.0
C2459 C 0.71922 0.26885 0.25444 0.0
C2460 C 0.73541 0.27486 0.24666 0.0
C2461 C 0.70158 0.26944 0.24548 0.0
C2462 C 0.69931 0.2759 0.22824 0.0
C2463 C 0.71548 0.28155 0.22032 0.0
C2464 C 0.7331 0.2812 0.22938 0.0
C2465 C 0.68032 0.27675 0.21848 0.0
C2466 C 0.6752 0.26906 0.20062 0.0
C2467 C 0.66707 0.28486 0.22663 0.0
C2468 C 0.67136 0.29393 0.24506 0.0
C2469 C 0.68666 0.30734 0.24921 0.0
C2470 C 0.69073 0.31571 0.26668 0.0
C2471 C 0.67951 0.31087 0.28009 0.0
C2472 C 0.66416 0.2977 0.27603 0.0
C2473 C 0.66005 0.28927 0.25858 0.0
H2474 H 0.68269 0.31736 0.29361 0.0
H2475 H 0.64181 0.23289 0.12582 0.0
H2476 H 0.54881 0.81924 0.95529 0.0
H2477 H 0.54651 0.84751 0.97091 0.0
H2478 H 0.55735 0.87261 0.92249 0.0
H2479 H 0.56024 0.84503 0.90737 0.0
H2480 H 0.5732 0.89464 0.94607 0.0
H2481 H 0.51173 0.86291 0.94331 0.0
H2482 H 0.48732 0.83903 0.94887 0.0
H2483 H 0.50233 0.84959 0.00623 0.0
H2484 H 0.52697 0.87342 0.00099 0.0
H2485 H 0.54485 0.97648 0.96859 0.0
H2486 H 0.54697 0.94724 0.95583 0.0
H2487 H 0.54324 0.92806 0.00835 0.0
H2488 H 0.54115 0.95731 0.02115 0.0
H2489 H 0.52442 0.903 0.9845 0.0
H2490 H 0.58522 0.93562 0.98661 0.0
H2491 H 0.60897 0.95986 0.9805 0.0
H2492 H 0.5943 0.94765 0.92329 0.0
H2493 H 0.5703 0.92346 0.92906 0.0
C2494 C 0.55078 0.83075 0.94793 0.0
C2495 C 0.5548 0.82921 0.92975 0.0
C2496 C 0.54927 0.8472 0.95693 0.0
C2497 C 0.55146 0.86297 0.94817 0.0
C2498 C 0.55559 0.86127 0.93011 0.0
C2499 C 0.5572 0.84505 0.92127 0.0
C2500 C 0.54981 0.88115 0.95728 0.0
C2501 C 0.56226 0.89623 0.95422 0.0
C2502 C 0.53602 0.88414 0.96856 0.0
C2503 C 0.52133 0.86979 0.97175 0.0
C2504 C 0.50991 0.86004 0.9571 0.0
C2505 C 0.49602 0.84654 0.9602 0.0
C2506 C 0.49331 0.84275 0.97789 0.0
C2507 C 0.50447 0.8525 0.99253 0.0
C2508 C 0.5184 0.86601 0.98951 0.0
C2509 C 0.5445 0.96613 0.97756 0.0
C2510 C 0.54294 0.96984 0.99617 0.0
C2511 C 0.54584 0.94914 0.97016 0.0
C2512 C 0.54561 0.93479 0.98089 0.0
C2513 C 0.5436 0.93842 0.9994 0.0
C2514 C 0.54246 0.95545 0.00685 0.0
C2515 C 0.5476 0.91634 0.97296 0.0
C2516 C 0.5353 0.9013 0.97629 0.0
C2517 C 0.56143 0.91335 0.96178 0.0
C2518 C 0.57585 0.92784 0.95827 0.0
C2519 C 0.58698 0.93818 0.97273 0.0
C2520 C 0.60049 0.9519 0.96933 0.0
C2521 C 0.6031 0.95532 0.95152 0.0
C2522 C 0.59224 0.945 0.93707 0.0
C2523 C 0.57869 0.93128 0.9404 0.0
H2524 H 0.61357 0.96595 0.94892 0.0
H2525 H 0.48255 0.8323 0.98026 0.0
H2526 H 0.97297 0.74488 0.68044 0.0
H2527 H 0.94565 0.74575 0.69578 0.0
H2528 H 0.94766 0.79933 0.68518 0.0
H2529 H 0.97518 0.79842 0.66935 0.0
H2530 H 0.93916 0.79435 0.7208 0.0
H2531 H 0.91437 0.76614 0.66219 0.0
H2532 H 0.91135 0.74415 0.63628 0.0
H2533 H 0.89777 0.70341 0.671 0.0
H2534 H 0.90094 0.72516 0.69718 0.0
H2535 H 0.8522 0.7995 0.7533 0.0
H2536 H 0.87891 0.80017 0.73672 0.0
H2537 H 0.8699 0.74416 0.73172 0.0
H2538 H 0.84235 0.74356 0.74739 0.0
H2539 H 0.88236 0.75102 0.70345 0.0
H2540 H 0.90861 0.77697 0.76206 0.0
H2541 H 0.91311 0.79747 0.7894 0.0
H2542 H 0.92572 0.8404 0.75713 0.0
H2543 H 0.92109 0.82016 0.72955 0.0
C2544 C 0.96769 0.75695 0.68114 0.0
C2545 C 0.97675 0.77154 0.67326 0.0
C2546 C 0.95176 0.7574 0.69005 0.0
C2547 C 0.94391 0.77256 0.69189 0.0
C2548 C 0.95299 0.78731 0.6842 0.0
C2549 C 0.96888 0.78676 0.67493 0.0
C2550 C 0.92654 0.7728 0.7018 0.0
C2551 C 0.92669 0.785 0.71672 0.0
C2552 C 0.91003 0.76036 0.69739 0.0
C2553 C 0.90805 0.74727 0.68168 0.0
C2554 C 0.91087 0.75249 0.66433 0.0
C2555 C 0.90911 0.74007 0.64959 0.0
C2556 C 0.90442 0.72239 0.652 0.0
C2557 C 0.90143 0.71711 0.66916 0.0
C2558 C 0.90318 0.72947 0.68395 0.0
C2559 C 0.85588 0.78723 0.74887 0.0
C2560 C 0.84474 0.77147 0.75219 0.0
C2561 C 0.87158 0.7876 0.73934 0.0
C2562 C 0.87752 0.77223 0.73294 0.0
C2563 C 0.86629 0.75644 0.73623 0.0
C2564 C 0.85032 0.75607 0.74546 0.0
C2565 C 0.89485 0.77258 0.72266 0.0
C2566 C 0.89475 0.76044 0.70763 0.0
C2567 C 0.91156 0.78485 0.72723 0.0
C2568 C 0.91431 0.79706 0.74373 0.0
C2569 C 0.91223 0.79079 0.76078 0.0
C2570 C 0.91482 0.80236 0.77632 0.0
C2571 C 0.91964 0.82023 0.775 0.0
C2572 C 0.92194 0.82656 0.75813 0.0
C2573 C 0.91936 0.81504 0.74254 0.0
H2574 H 0.92164 0.82917 0.78704 0.0
H2575 H 0.90306 0.7128 0.64057 0.0
H2576 H 0.13619 0.04898 0.85085 0.0
H2577 H 0.12073 0.04601 0.87805 0.0
H2578 H 0.15508 0.00978 0.89605 0.0
H2579 H 0.17125 0.01343 0.86916 0.0
H2580 H 0.10047 0.02071 0.8895 0.0
H2581 H 0.16002 0.01101 0.94184 0.0
H2582 H 0.19367 0.01934 0.94778 0.0
H2583 H 0.19168 0.06472 0.91881 0.0
H2584 H 0.15801 0.05676 0.9129 0.0
H2585 H 0.0612 1.00102 0.97001 0.0
H2586 H 0.07897 0.99914 0.94426 0.0
H2587 H 0.11272 0.04863 0.96362 0.0
H2588 H 0.0956 0.0502 0.98963 0.0
H2589 H 0.13335 0.0285 0.95161 0.0
H2590 H 0.07599 0.04423 0.92933 0.0
H2591 H 0.0423 0.04069 0.92387 0.0
H2592 H 0.04003 0.99193 0.89296 0.0
H2593 H 0.07372 0.99508 0.89846 0.0
C2594 C 0.14053 0.04048 0.86067 0.0
C2595 C 0.15495 0.03149 0.85797 0.0
C2596 C 0.13163 0.03872 0.87617 0.0
C2597 C 0.13676 0.02772 0.88915 0.0
C2598 C 0.15109 0.01859 0.8864 0.0
C2599 C 0.1603 0.02065 0.87104 0.0
C2600 C 0.12695 0.02589 0.90544 0.0
C2601 C 0.10769 0.02236 0.90308 0.0
C2602 C 0.13631 0.02819 0.92318 0.0
C2603 C 0.15653 0.03316 0.92675 0.0
C2604 C 0.16677 0.02278 0.93678 0.0
C2605 C 0.18584 0.02744 0.94013 0.0
C2606 C 0.19482 0.04251 0.93361 0.0
C2607 C 0.18473 0.053 0.92378 0.0
C2608 C 0.16565 0.04841 0.92041 0.0
C2609 C 0.07246 0.01143 0.96876 0.0
C2610 C 0.07696 0.02579 0.98173 0.0
C2611 C 0.08258 0.01037 0.95406 0.0
C2612 C 0.09703 0.02386 0.9519 0.0
C2613 C 0.1017 0.03803 0.96504 0.0
C2614 C 0.09183 0.03895 0.97986 0.0
C2615 C 0.10693 0.02373 0.93564 0.0
C2616 C 0.12617 0.02671 0.93802 0.0
C2617 C 0.09757 0.02166 0.91792 0.0
C2618 C 0.07734 0.01979 0.91448 0.0
C2619 C 0.06829 0.0327 0.92147 0.0
C2620 C 0.0492 0.03077 0.91836 0.0
C2621 C 0.03903 0.01607 0.90812 0.0
C2622 C 0.04793 1.00329 0.90092 0.0
C2623 C 0.06702 0.00514 0.90402 0.0
H2624 H 0.02425 0.0146 0.90572 0.0
H2625 H 0.20958 0.04609 0.93622 0.0
H2626 H 0.79561 0.32299 0.57292 0.0
H2627 H 0.79763 0.3103 0.60211 0.0
H2628 H 0.81443 0.36165 0.62963 0.0
H2629 H 0.81307 0.37427 0.6006 0.0
H2630 H 0.83361 0.34188 0.64527 0.0
H2631 H 0.7694 0.33727 0.6284 0.0
H2632 H 0.73984 0.32928 0.60907 0.0
H2633 H 0.74425 0.27529 0.60878 0.0
H2634 H 0.77395 0.28299 0.62795 0.0
H2635 H 0.81232 0.31937 0.73341 0.0
H2636 H 0.81395 0.33131 0.70405 0.0
H2637 H 0.8044 0.2794 0.67753 0.0
H2638 H 0.80272 0.26732 0.70685 0.0
H2639 H 0.78195 0.29927 0.66161 0.0
H2640 H 0.84708 0.30635 0.68157 0.0
H2641 H 0.87482 0.31681 0.70307 0.0
H2642 H 0.86631 0.36946 0.69984 0.0
H2643 H 0.83841 0.35929 0.67848 0.0
C2644 C 0.79982 0.33155 0.5852 0.0
C2645 C 0.80416 0.34965 0.58438 0.0
C2646 C 0.80085 0.32429 0.60193 0.0
C2647 C 0.80592 0.33499 0.61824 0.0
C2648 C 0.8105 0.35305 0.61735 0.0
C2649 C 0.80967 0.36027 0.60067 0.0
C2650 C 0.80651 0.32751 0.63623 0.0
C2651 C 0.82221 0.33267 0.64884 0.0
C2652 C 0.79175 0.31541 0.64107 0.0
C2653 C 0.774 0.31073 0.62941 0.0
C2654 C 0.76414 0.32371 0.62407 0.0
C2655 C 0.74735 0.31923 0.61318 0.0
C2656 C 0.74021 0.30179 0.60765 0.0
C2657 C 0.74982 0.28879 0.61304 0.0
C2658 C 0.76663 0.29321 0.62393 0.0
C2659 C 0.81081 0.31045 0.72138 0.0
C2660 C 0.80742 0.29234 0.72257 0.0
C2661 C 0.81179 0.31733 0.70455 0.0
C2662 C 0.80935 0.30628 0.68851 0.0
C2663 C 0.80631 0.28821 0.68969 0.0
C2664 C 0.80545 0.28131 0.70652 0.0
C2665 C 0.80909 0.31348 0.67046 0.0
C2666 C 0.7934 0.30833 0.6579 0.0
C2667 C 0.82365 0.32593 0.66588 0.0
C2668 C 0.84059 0.33204 0.67852 0.0
C2669 C 0.85108 0.32015 0.68552 0.0
C2670 C 0.86684 0.32603 0.69767 0.0
C2671 C 0.87231 0.34379 0.70284 0.0
C2672 C 0.86206 0.35571 0.69583 0.0
C2673 C 0.84629 0.3499 0.68368 0.0
H2674 H 0.8845 0.34832 0.71226 0.0
H2675 H 0.7272 0.29835 0.59922 0.0
H2676 H 0.54007 0.05547 0.3247 0.0
H2677 H 0.5472 0.05213 0.35679 0.0
H2678 H 0.50428 0.07999 0.36949 0.0
H2679 H 0.49674 0.08322 0.33728 0.0
H2680 H 0.53861 0.08657 0.3953 0.0
H2681 H 0.49147 0.04056 0.36513 0.0
H2682 H 0.47847 0.0177 0.34066 0.0
H2683 H 0.52323 0.99083 0.35334 0.0
H2684 H 0.53663 0.01368 0.37775 0.0
H2685 H 0.52356 0.05766 0.48028 0.0
H2686 H 0.51893 0.06458 0.44892 0.0
H2687 H 0.54932 0.0249 0.4328 0.0
H2688 H 0.55298 0.0172 0.46424 0.0
H2689 H 0.52206 0.02485 0.40831 0.0
H2690 H 0.56878 0.07026 0.43943 0.0
H2691 H 0.58175 0.09315 0.46388 0.0
H2692 H 0.53842 0.12129 0.44944 0.0
H2693 H 0.52508 0.09846 0.42504 0.0
C2694 C 0.53244 0.06135 0.3343 0.0
C2695 C 0.51761 0.06937 0.32838 0.0
C2696 C 0.53652 0.05935 0.35263 0.0
C2697 C 0.52604 0.06555 0.36535 0.0
C2698 C 0.51243 0.07506 0.35977 0.0
C2699 C 0.50816 0.07688 0.34137 0.0
C2700 C 0.52793 0.0604 0.38402 0.0
C2701 C 0.53487 0.07313 0.39824 0.0
C2702 C 0.5233 0.04279 0.38765 0.0
C2703 C 0.51517 0.02894 0.37312 0.0
C2704 C 0.49863 0.02986 0.36259 0.0
C2705 C 0.49117 0.0169 0.34876 0.0
C2706 C 0.50007 1.00287 0.34539 0.0
C2707 C 0.51639 1.00173 0.35593 0.0
C2708 C 0.52391 0.01468 0.36978 0.0
C2709 C 0.52919 0.05037 0.47001 0.0
C2710 C 0.53884 0.03707 0.4746 0.0
C2711 C 0.52664 0.0544 0.45211 0.0
C2712 C 0.5343 0.04566 0.43857 0.0
C2713 C 0.54344 0.03193 0.44306 0.0
C2714 C 0.54555 0.02756 0.46096 0.0
C2715 C 0.5329 0.05102 0.41982 0.0
C2716 C 0.52597 0.0383 0.40549 0.0
C2717 C 0.53762 0.06865 0.4161 0.0
C2718 C 0.54588 0.0826 0.43048 0.0
C2719 C 0.562 0.08131 0.44151 0.0
C2720 C 0.56941 0.09427 0.45536 0.0
C2721 C 0.5609 0.10865 0.45823 0.0
C2722 C 0.545 0.11014 0.4472 0.0
C2723 C 0.53753 0.09721 0.43334 0.0
H2724 H 0.56664 0.11865 0.46898 0.0
H2725 H 0.49428 0.99285 0.33467 0.0
H2726 H 0.79112 0.65978 0.09379 0.0
H2727 H 0.78915 0.67642 0.12218 0.0
H2728 H 0.82141 0.72153 0.10404 0.0
H2729 H 0.82316 0.70482 0.07506 0.0
H2730 H 0.83254 0.71652 0.1416 0.0
H2731 H 0.77643 0.72035 0.10555 0.0
H2732 H 0.74759 0.70889 0.086 0.0
H2733 H 0.72801 0.67827 0.12803 0.0
H2734 H 0.75685 0.68937 0.14776 0.0
H2735 H 0.81908 0.77064 0.21921 0.0
H2736 H 0.82174 0.75788 0.18896 0.0
H2737 H 0.77486 0.71824 0.19304 0.0
H2738 H 0.77126 0.73212 0.22263 0.0
H2739 H 0.77196 0.72175 0.16121 0.0
H2740 H 0.82788 0.71498 0.19652 0.0
H2741 H 0.85658 0.72521 0.21677 0.0
H2742 H 0.87675 0.75904 0.17747 0.0
H2743 H 0.8481 0.74911 0.15705 0.0
C2744 C 0.79781 0.67328 0.09561 0.0
C2745 C 0.80727 0.68074 0.08167 0.0
C2746 C 0.79662 0.6829 0.11209 0.0
C2747 C 0.80505 0.70048 0.11573 0.0
C2748 C 0.81471 0.70805 0.10194 0.0
C2749 C 0.81562 0.69844 0.08516 0.0
C2750 C 0.80346 0.71065 0.13375 0.0
C2751 C 0.81926 0.71784 0.14572 0.0
C2752 C 0.78626 0.71219 0.13986 0.0
C2753 C 0.76887 0.70558 0.12807 0.0
C2754 C 0.76603 0.71107 0.11058 0.0
C2755 C 0.74968 0.70466 0.09947 0.0
C2756 C 0.73599 0.69283 0.10575 0.0
C2757 C 0.73862 0.68742 0.12318 0.0
C2758 C 0.75497 0.69378 0.13433 0.0
C2759 C 0.80928 0.7592 0.21369 0.0
C2760 C 0.79497 0.75252 0.22374 0.0
C2761 C 0.81097 0.7516 0.19623 0.0
C2762 C 0.79896 0.73638 0.18822 0.0
C2763 C 0.78455 0.72982 0.19832 0.0
C2764 C 0.78248 0.7378 0.21553 0.0
C2765 C 0.80107 0.7275 0.1695 0.0
C2766 C 0.78532 0.72048 0.15729 0.0
C2767 C 0.81834 0.72584 0.16335 0.0
C2768 C 0.83579 0.73142 0.17534 0.0
C2769 C 0.83844 0.72462 0.19222 0.0
C2770 C 0.85468 0.73037 0.20372 0.0
C2771 C 0.86846 0.74281 0.19843 0.0
C2772 C 0.86606 0.74942 0.18156 0.0
C2773 C 0.84984 0.74372 0.17 0.0
H2774 H 0.88099 0.74731 0.20739 0.0
H2775 H 0.72334 0.68788 0.09714 0.0
H2776 H 0.20647 0.02643 0.75178 0.0
H2777 H 0.19032 0.02782 0.72176 0.0
H2778 H 0.13971 1.00339 0.73978 0.0
H2779 H 0.15574 1.00172 0.76965 0.0
H2780 H 0.14144 0.99347 0.70434 0.0
H2781 H 0.15062 0.04652 0.74353 0.0
H2782 H 0.16904 0.07102 0.7634 0.0
H2783 H 0.19916 0.08719 0.71946 0.0
H2784 H 0.18103 0.0626 0.69937 0.0
H2785 H 0.07358 0.02756 0.65176 0.0
H2786 H 0.09401 0.02078 0.67711 0.0
H2787 H 0.14091 0.04567 0.65318 0.0
H2788 H 0.12053 0.05282 0.62798 0.0
H2789 H 0.1432 0.05461 0.68964 0.0
H2790 H 0.13022 1.00237 0.64946 0.0
H2791 H 0.11017 0.97816 0.63048 0.0
H2792 H 0.08548 0.96075 0.67717 0.0
H2793 H 0.1052 0.98502 0.6964 0.0
C2794 C 0.19201 0.02093 0.74919 0.0
C2795 C 0.18228 0.01428 0.76313 0.0
C2796 C 0.18281 0.02178 0.73207 0.0
C2797 C 0.16378 0.01604 0.72873 0.0
C2798 C 0.15439 0.00797 0.74213 0.0
C2799 C 0.16356 0.0071 0.75922 0.0
C2800 C 0.15326 0.02029 0.71224 0.0
C2801 C 0.14177 0.00682 0.70111 0.0
C2802 C 0.15384 0.03773 0.70803 0.0
C2803 C 0.16463 0.05261 0.72002 0.0
C2804 C 0.16126 0.05523 0.73814 0.0
C2805 C 0.17164 0.06914 0.74944 0.0
C2806 C 0.18532 0.08063 0.74272 0.0
C2807 C 0.18859 0.07825 0.72466 0.0
C2808 C 0.17827 0.06434 0.71331 0.0
C2809 C 0.08823 0.03179 0.65204 0.0
C2810 C 0.09549 0.04066 0.6379 0.0
C2811 C 0.09988 0.02775 0.6664 0.0
C2812 C 0.11895 0.03249 0.66681 0.0
C2813 C 0.12622 0.0418 0.653 0.0
C2814 C 0.11459 0.0458 0.63861 0.0
C2815 C 0.13132 0.0278 0.68174 0.0
C2816 C 0.14308 0.04123 0.69265 0.0
C2817 C 0.13081 0.01034 0.68584 0.0
C2818 C 0.1191 0.9956 0.67434 0.0
C2819 C 0.12043 0.99345 0.65566 0.0
C2820 C 0.10913 0.97971 0.64486 0.0
C2821 C 0.09653 0.96795 0.65261 0.0
C2822 C 0.09524 0.96988 0.67119 0.0
C2823 C 0.10649 0.98361 0.68205 0.0
H2824 H 0.08779 0.95732 0.64422 0.0
H2825 H 0.19335 0.09139 0.75148 0.0
H2826 H 0.78799 0.33155 0.47996 0.0
H2827 H 0.78504 0.31582 0.44981 0.0
H2828 H 0.78551 0.36415 0.42511 0.0
H2829 H 0.78781 0.37966 0.45472 0.0
H2830 H 0.7608 0.34137 0.40676 0.0
H2831 H 0.82384 0.34226 0.43009 0.0
H2832 H 0.84896 0.33646 0.45176 0.0
H2833 H 0.82773 0.28168 0.44353 0.0
H2834 H 0.80235 0.28718 0.42197 0.0
H2835 H 0.78489 0.32102 0.31891 0.0
H2836 H 0.78452 0.33265 0.35012 0.0
H2837 H 0.77796 0.28071 0.36741 0.0
H2838 H 0.7785 0.26896 0.3363 0.0
H2839 H 0.80377 0.30267 0.38997 0.0
H2840 H 0.74191 0.3026 0.36424 0.0
H2841 H 0.71803 0.30934 0.34174 0.0
H2842 H 0.73845 0.36397 0.35388 0.0
H2843 H 0.76261 0.35755 0.3763 0.0
C2844 C 0.78742 0.33878 0.46808 0.0
C2845 C 0.78809 0.35689 0.46987 0.0
C2846 C 0.78582 0.32979 0.45082 0.0
C2847 C 0.78518 0.33877 0.43505 0.0
C2848 C 0.78585 0.35682 0.43693 0.0
C2849 C 0.78722 0.36571 0.45401 0.0
C2850 C 0.78377 0.32972 0.41648 0.0
C2851 C 0.77033 0.33303 0.40312 0.0
C2852 C 0.79587 0.31847 0.41163 0.0
C2853 C 0.81108 0.31515 0.4246 0.0
C2854 C 0.82445 0.32899 0.43302 0.0
C2855 C 0.83875 0.32576 0.44526 0.0
C2856 C 0.83991 0.30872 0.44906 0.0
C2857 C 0.82679 0.29487 0.4406 0.0
C2858 C 0.81245 0.29804 0.42836 0.0
C2859 C 0.78321 0.31202 0.32929 0.0
C2860 C 0.78164 0.29401 0.32497 0.0
C2861 C 0.78297 0.31871 0.34718 0.0
C2862 C 0.78107 0.30756 0.36117 0.0
C2863 C 0.77945 0.28959 0.35689 0.0
C2864 C 0.77966 0.28289 0.33903 0.0
C2865 C 0.78107 0.31465 0.38028 0.0
C2866 C 0.79418 0.31092 0.3937 0.0
C2867 C 0.76881 0.32568 0.38516 0.0
C2868 C 0.75415 0.32958 0.37186 0.0
C2869 C 0.74137 0.31605 0.36204 0.0
C2870 C 0.72778 0.31981 0.34931 0.0
C2871 C 0.72675 0.33707 0.34636 0.0
C2872 C 0.73927 0.35061 0.35618 0.0
C2873 C 0.7529 0.34691 0.36891 0.0
H2874 H 0.71622 0.33996 0.33649 0.0
H2875 H 0.85099 0.30624 0.45854 0.0
H2876 H 0.45597 0.0316 0.2186 0.0
H2877 H 0.46624 0.01307 0.19542 0.0
H2878 H 0.52029 0.04449 0.20457 0.0
H2879 H 0.5102 0.06304 0.2278 0.0
H2880 H 0.50812 0.03466 0.16803 0.0
H2881 H 0.51137 0.00845 0.22579 0.0
H2882 H 0.49808 0.996 0.25202 0.0
H2883 H 0.46077 0.95749 0.21645 0.0
H2884 H 0.47377 0.96984 0.18997 0.0
H2885 H 0.57146 0.99372 0.14069 0.0
H2886 H 0.55478 1.00058 0.16541 0.0
H2887 H 0.50713 0.96447 0.14086 0.0
H2888 H 0.52418 0.95642 0.11621 0.0
H2889 H 0.5106 0.97386 0.18203 0.0
H2890 H 0.50767 0.99827 0.12435 0.0
H2891 H 0.52097 0.00986 0.09771 0.0
H2892 H 0.55576 0.05125 0.13192 0.0
H2893 H 0.54286 0.03973 0.15882 0.0
C2894 C 0.46995 0.03478 0.21543 0.0
C2895 C 0.48236 0.04868 0.22512 0.0
C2896 C 0.47579 0.02412 0.20227 0.0
C2897 C 0.49406 0.02729 0.19856 0.0
C2898 C 0.50614 0.04182 0.20735 0.0
C2899 C 0.50036 0.0524 0.22059 0.0
C2900 C 0.50106 0.01505 0.18629 0.0
C2901 C 0.50862 0.02137 0.17108 0.0
C2902 C 0.50119 0.99755 0.19 0.0
C2903 C 0.49339 0.99018 0.20592 0.0
C2904 C 0.50023 0.99742 0.22356 0.0
C2905 C 0.49276 0.99036 0.23848 0.0
C2906 C 0.47853 0.97599 0.2359 0.0
C2907 C 0.47176 0.96864 0.21842 0.0
C2908 C 0.47919 0.97565 0.20346 0.0
C2909 C 0.55787 0.98626 0.14084 0.0
C2910 C 0.54885 0.97519 0.12575 0.0
C2911 C 0.54827 0.99036 0.15511 0.0
C2912 C 0.52957 0.98359 0.15443 0.0
C2913 C 0.5215 0.97009 0.14133 0.0
C2914 C 0.53125 0.96569 0.12714 0.0
C2915 C 0.51807 0.9937 0.16418 0.0
C2916 C 0.5097 0.98702 0.17881 0.0
C2917 C 0.51688 0.01083 0.15979 0.0
C2918 C 0.52442 0.01804 0.14362 0.0
C2919 C 0.51826 0.00976 0.12621 0.0
C2920 C 0.52572 0.01632 0.11106 0.0
C2921 C 0.53926 0.03123 0.11313 0.0
C2922 C 0.5453 0.03967 0.13035 0.0
C2923 C 0.5379 0.03315 0.14555 0.0
H2924 H 0.54504 0.03628 0.10139 0.0
H2925 H 0.4728 0.97047 0.24744 0.0
H2926 H 0.81689 0.7078 0.9761 0.0
H2927 H 0.81667 0.72183 0.94765 0.0
H2928 H 0.80031 0.67169 0.91765 0.0
H2929 H 0.80127 0.65766 0.94612 0.0
H2930 H 0.82083 0.68844 0.89806 0.0
H2931 H 0.77081 0.70641 0.92511 0.0
H2932 H 0.75511 0.71946 0.9487 0.0
H2933 H 0.79082 0.76847 0.94775 0.0
H2934 H 0.80688 0.75565 0.92429 0.0
H2935 H 0.79203 0.72149 0.81336 0.0
H2936 H 0.79397 0.70798 0.84208 0.0
H2937 H 0.81809 0.75767 0.87014 0.0
H2938 H 0.81623 0.77125 0.84131 0.0
H2939 H 0.79393 0.74157 0.89056 0.0
H2940 H 0.84324 0.72288 0.86248 0.0
H2941 H 0.85802 0.70924 0.83852 0.0
H2942 H 0.82176 0.66077 0.84071 0.0
H2943 H 0.80666 0.67416 0.86459 0.0
C2944 C 0.8132 0.69967 0.9635 0.0
C2945 C 0.80904 0.68138 0.96387 0.0
C2946 C 0.81289 0.70782 0.94694 0.0
C2947 C 0.80806 0.69818 0.9298 0.0
C2948 C 0.80409 0.67986 0.93023 0.0
C2949 C 0.80457 0.6717 0.94677 0.0
C2950 C 0.80735 0.70694 0.91166 0.0
C2951 C 0.81464 0.69991 0.89656 0.0
C2952 C 0.79972 0.72228 0.90897 0.0
C2953 C 0.79017 0.73002 0.9231 0.0
C2954 C 0.7754 0.71994 0.93003 0.0
C2955 C 0.76642 0.7273 0.94336 0.0
C2956 C 0.77201 0.74477 0.94976 0.0
C2957 C 0.78654 0.75493 0.9428 0.0
C2958 C 0.79557 0.74763 0.92948 0.0
C2959 C 0.79796 0.72964 0.82554 0.0
C2960 C 0.80412 0.74766 0.82451 0.0
C2961 C 0.79912 0.72178 0.84222 0.0
C2962 C 0.80637 0.7315 0.85886 0.0
C2963 C 0.81244 0.74953 0.85787 0.0
C2964 C 0.81148 0.75738 0.84113 0.0
C2965 C 0.80733 0.723 0.87707 0.0
C2966 C 0.80009 0.73009 0.89214 0.0
C2967 C 0.8148 0.7076 0.87967 0.0
C2968 C 0.82372 0.69957 0.8652 0.0
C2969 C 0.83832 0.70935 0.85774 0.0
C2970 C 0.84678 0.70166 0.8442 0.0
C2971 C 0.8408 0.68416 0.83807 0.0
C2972 C 0.82636 0.67433 0.84546 0.0
C2973 C 0.81787 0.68195 0.85902 0.0
H2974 H 0.8474 0.67821 0.82765 0.0
H2975 H 0.76504 0.75045 0.96008 0.0
H2976 H 0.83887 0.15976 0.00803 0.0
H2977 H 0.86691 0.14818 0.00382 0.0
H2978 H 0.845 0.10145 0.02759 0.0
H2979 H 0.81749 0.11308 0.03238 0.0
H2980 H 0.87938 0.11018 0.03935 0.0
H2981 H 0.84401 0.1047 0.98024 0.0
H2982 H 0.82808 0.1157 0.95395 0.0
H2983 H 0.87815 0.14873 0.94549 0.0
H2984 H 0.89433 0.13806 0.97188 0.0
H2985 H 0.92341 0.04515 0.00268 0.0
H2986 H 0.90049 0.06337 0.00805 0.0
H2987 H 0.9367 0.10809 0.99363 0.0
H2988 H 0.95978 0.08995 0.98841 0.0
H2989 H 0.89873 0.10414 0.9778 0.0
H2990 H 0.93463 0.10636 0.03518 0.0
H2991 H 0.95015 0.09386 0.06065 0.0
H2992 H 0.89844 0.06566 0.0718 0.0
H2993 H 0.88261 0.07778 0.04619 0.0
C2994 C 0.84012 0.14709 0.01248 0.0
C2995 C 0.82587 0.13735 0.02047 0.0
C2996 C 0.85612 0.14043 0.00999 0.0
C2997 C 0.858 0.12381 0.01517 0.0
C2998 C 0.84395 0.11431 0.02351 0.0
C2999 C 0.82814 0.12099 0.02618 0.0
C3000 C 0.87422 0.11587 0.01155 0.0
C3001 C 0.88352 0.10881 0.02586 0.0
C3002 C 0.88 0.1144 0.99405 0.0
C3003 C 0.87031 0.12074 0.97815 0.0
C3004 C 0.85158 0.1144 0.97284 0.0
C3005 C 0.84252 0.12056 0.95791 0.0
C3006 C 0.85208 0.13295 0.94809 0.0
C3007 C 0.87075 0.13916 0.95314 0.0
C3008 C 0.87988 0.13306 0.96807 0.0
C3009 C 0.9264 0.05881 0.00044 0.0
C3010 C 0.94336 0.06611 0.99506 0.0
C3011 C 0.91336 0.06922 0.00361 0.0
C3012 C 0.91698 0.08707 0.00131 0.0
C3013 C 0.93368 0.09433 0.99547 0.0
C3014 C 0.94685 0.08397 0.99255 0.0
C3015 C 0.90339 0.09813 0.00546 0.0
C3016 C 0.89468 0.10575 0.9913 0.0
C3017 C 0.89804 0.1 0.02305 0.0
C3018 C 0.90745 0.09288 0.03866 0.0
C3019 C 0.92657 0.09739 0.04298 0.0
C3020 C 0.93543 0.0904 0.05745 0.0
C3021 C 0.9253 0.07896 0.06782 0.0
C3022 C 0.90627 0.07453 0.06375 0.0
C3023 C 0.89735 0.08147 0.04927 0.0
H3024 H 0.93219 0.07358 0.07902 0.0
H3025 H 0.84504 0.13772 0.93654 0.0
H3026 H 0.33091 0.44755 0.00029 0.0
H3027 H 0.36328 0.46002 0.00209 0.0
H3028 H 0.37328 0.43825 0.05293 0.0
H3029 H 0.34036 0.42536 0.05112 0.0
H3030 H 0.39236 0.47321 0.05346 0.0
H3031 H 0.38709 0.42067 0.01493 0.0
H3032 H 0.37393 0.39938 0.9891 0.0
H3033 H 0.38674 0.43827 0.95215 0.0
H3034 H 0.39977 0.45987 0.97778 0.0
H3035 H 0.48988 0.49809 0.05479 0.0
H3036 H 0.4585 0.48307 0.05578 0.0
H3037 H 0.4457 0.4896 0.99918 0.0
H3038 H 0.47749 0.50369 0.99797 0.0
H3039 H 0.42803 0.46082 0.00298 0.0
H3040 H 0.43082 0.51395 0.03999 0.0
H3041 H 0.44284 0.53654 0.06498 0.0
H3042 H 0.43358 0.49866 0.10367 0.0
H3043 H 0.42168 0.4758 0.07888 0.0
C3044 C 0.33982 0.44525 0.01195 0.0
C3045 C 0.33257 0.43525 0.02555 0.0
C3046 C 0.3586 0.45246 0.01291 0.0
C3047 C 0.3712 0.45017 0.02757 0.0
C3048 C 0.3641 0.44034 0.04137 0.0
C3049 C 0.34516 0.43284 0.04029 0.0
C3050 C 0.39152 0.45811 0.02815 0.0
C3051 C 0.40021 0.47023 0.04255 0.0
C3052 C 0.402 0.45491 0.01374 0.0
C3053 C 0.39427 0.44192 0.9983 0.0
C3054 C 0.38699 0.42472 0.00131 0.0
C3055 C 0.37957 0.41259 0.9867 0.0
C3056 C 0.37946 0.41748 0.969 0.0
C3057 C 0.38682 0.4345 0.96587 0.0
C3058 C 0.39424 0.44669 0.98043 0.0
C3059 C 0.4804 0.49647 0.04252 0.0
C3060 C 0.48652 0.50242 0.02632 0.0
C3061 C 0.46216 0.48789 0.04313 0.0
C3062 C 0.44895 0.48531 0.02768 0.0
C3063 C 0.45515 0.49122 0.01146 0.0
C3064 C 0.47352 0.49947 0.01077 0.0
C3065 C 0.42902 0.47623 0.02824 0.0
C3066 C 0.42032 0.46386 0.01399 0.0
C3067 C 0.41845 0.47944 0.04266 0.0
C3068 C 0.42554 0.49314 0.05758 0.0
C3069 C 0.43145 0.51043 0.05382 0.0
C3070 C 0.43823 0.52328 0.06795 0.0
C3071 C 0.43902 0.51903 0.0859 0.0
C3072 C 0.43298 0.50193 0.08976 0.0
C3073 C 0.42621 0.48902 0.07568 0.0
H3074 H 0.44428 0.529 0.09681 0.0
H3075 H 0.37371 0.40807 0.95771 0.0
H3076 H 0.34506 0.5346 0.7326 0.0
H3077 H 0.32748 0.55578 0.74427 0.0
H3078 H 0.37784 0.59052 0.76459 0.0
H3079 H 0.39547 0.56935 0.75327 0.0
H3080 H 0.35286 0.59023 0.78844 0.0
H3081 H 0.35423 0.59548 0.72414 0.0
H3082 H 0.34895 0.58464 0.69186 0.0
H3083 H 0.2914 0.56987 0.69584 0.0
H3084 H 0.29639 0.58043 0.72823 0.0
H3085 H 0.32926 0.67389 0.79225 0.0
H3086 H 0.34161 0.64734 0.78656 0.0
H3087 H 0.28733 0.61963 0.76689 0.0
H3088 H 0.27496 0.64633 0.77189 0.0
H3089 H 0.31099 0.61361 0.74414 0.0
H3090 H 0.30914 0.61187 0.80771 0.0
H3091 H 0.31451 0.62315 0.83985 0.0
H3092 H 0.37265 0.63152 0.8375 0.0
H3093 H 0.36764 0.62051 0.80526 0.0
C3094 C 0.35238 0.54669 0.7397 0.0
C3095 C 0.37165 0.55037 0.74189 0.0
C3096 C 0.34232 0.55878 0.74632 0.0
C3097 C 0.35137 0.57481 0.7551 0.0
C3098 C 0.37059 0.57823 0.75785 0.0
C3099 C 0.38064 0.56615 0.7513 0.0
C3100 C 0.34096 0.58842 0.76066 0.0
C3101 C 0.34377 0.59543 0.77876 0.0
C3102 C 0.32872 0.59485 0.74811 0.0
C3103 C 0.32571 0.58855 0.72864 0.0
C3104 C 0.34048 0.58979 0.71816 0.0
C3105 C 0.33753 0.58372 0.69984 0.0
C3106 C 0.31986 0.57652 0.69182 0.0
C3107 C 0.30509 0.57542 0.70209 0.0
C3108 C 0.30796 0.58145 0.72042 0.0
C3109 C 0.31994 0.66215 0.78673 0.0
C3110 C 0.30114 0.66225 0.78246 0.0
C3111 C 0.32699 0.64692 0.78369 0.0
C3112 C 0.31536 0.63144 0.77648 0.0
C3113 C 0.29653 0.63141 0.77254 0.0
C3114 C 0.28947 0.64665 0.77554 0.0
C3115 C 0.3231 0.61567 0.7719 0.0
C3116 C 0.31982 0.60826 0.75394 0.0
C3117 C 0.3349 0.6089 0.7846 0.0
C3118 C 0.338 0.61547 0.80402 0.0
C3119 C 0.32307 0.61623 0.814 0.0
C3120 C 0.32605 0.62255 0.83225 0.0
C3121 C 0.34391 0.62807 0.8407 0.0
C3122 C 0.35883 0.62724 0.83093 0.0
C3123 C 0.35592 0.62094 0.81268 0.0
H3124 H 0.34619 0.63297 0.85483 0.0
H3125 H 0.31761 0.57183 0.67763 0.0
H3126 H 0.216 0.66163 0.5022 0.0
H3127 H 0.1865 0.64182 0.49951 0.0
H3128 H 0.21466 0.59821 0.50449 0.0
H3129 H 0.24408 0.61783 0.5066 0.0
H3130 H 0.18571 0.58949 0.48028 0.0
H3131 H 0.19773 0.61671 0.54091 0.0
H3132 H 0.20514 0.64118 0.56458 0.0
H3133 H 0.15634 0.65989 0.54534 0.0
H3134 H 0.14877 0.63565 0.52137 0.0
H3135 H 0.11147 0.53268 0.51491 0.0
H3136 H 0.1412 0.55094 0.51223 0.0
H3137 H 0.11345 0.59116 0.49231 0.0
H3138 H 0.08392 0.5731 0.49457 0.0
H3139 H 0.142 0.60096 0.52369 0.0
H3140 H 0.12976 0.5716 0.46355 0.0
H3141 H 0.12258 0.54566 0.4417 0.0
H3142 H 0.17259 0.52954 0.46181 0.0
H3143 H 0.1798 0.55509 0.48422 0.0
C3144 C 0.21587 0.64781 0.50259 0.0
C3145 C 0.23231 0.64129 0.50479 0.0
C3146 C 0.19903 0.63651 0.50109 0.0
C3147 C 0.19841 0.61856 0.50211 0.0
C3148 C 0.21482 0.612 0.50369 0.0
C3149 C 0.23163 0.62325 0.50498 0.0
C3150 C 0.18071 0.6067 0.50233 0.0
C3151 C 0.17624 0.59191 0.48988 0.0
C3152 C 0.1683 0.60991 0.5148 0.0
C3153 C 0.17279 0.62447 0.52923 0.0
C3154 C 0.18865 0.62612 0.54164 0.0
C3155 C 0.19287 0.63994 0.55512 0.0
C3156 C 0.18125 0.65211 0.55643 0.0
C3157 C 0.16535 0.65047 0.54429 0.0
C3158 C 0.16108 0.63669 0.53076 0.0
C3159 C 0.11175 0.54535 0.50983 0.0
C3160 C 0.09538 0.55146 0.50498 0.0
C3161 C 0.12867 0.55571 0.50826 0.0
C3162 C 0.12937 0.57232 0.50209 0.0
C3163 C 0.11309 0.57835 0.4971 0.0
C3164 C 0.09625 0.56796 0.49836 0.0
C3165 C 0.14705 0.58391 0.50162 0.0
C3166 C 0.1515 0.5986 0.51408 0.0
C3167 C 0.15949 0.58045 0.48934 0.0
C3168 C 0.15522 0.56517 0.47574 0.0
C3169 C 0.13913 0.56243 0.46348 0.0
C3170 C 0.13507 0.54782 0.45095 0.0
C3171 C 0.14712 0.53598 0.45035 0.0
C3172 C 0.16325 0.53872 0.4623 0.0
C3173 C 0.16732 0.55325 0.47494 0.0
H3174 H 0.14397 0.5247 0.44061 0.0
H3175 H 0.18454 0.6628 0.56688 0.0
H3176 H 0.63921 0.9288 0.7982 0.0
H3177 H 0.66354 0.91404 0.81118 0.0
H3178 H 0.70304 0.94651 0.78403 0.0
H3179 H 0.67916 0.96134 0.77129 0.0
H3180 H 0.70023 0.90936 0.77666 0.0
H3181 H 0.70565 0.95414 0.82634 0.0
H3182 H 0.69402 0.97001 0.85108 0.0
H3183 H 0.68154 0.92275 0.87697 0.0
H3184 H 0.69286 0.90654 0.85221 0.0
H3185 H 0.78681 0.89468 0.80194 0.0
H3186 H 0.76188 0.9114 0.80132 0.0
H3187 H 0.73254 0.87509 0.83371 0.0
H3188 H 0.75747 0.8582 0.83432 0.0
H3189 H 0.72745 0.91101 0.84055 0.0
H3190 H 0.72238 0.86618 0.7926 0.0
H3191 H 0.7339 0.84939 0.76847 0.0
H3192 H 0.74389 0.89495 0.73941 0.0
H3193 H 0.73277 0.91212 0.76357 0.0
C3194 C 0.65314 0.93292 0.79523 0.0
C3195 C 0.65725 0.94611 0.7836 0.0
C3196 C 0.66698 0.92453 0.80268 0.0
C3197 C 0.685 0.92922 0.79847 0.0
C3198 C 0.68918 0.94274 0.78738 0.0
C3199 C 0.67549 0.95118 0.78011 0.0
C3200 C 0.69937 0.91923 0.80418 0.0
C3201 C 0.70623 0.90979 0.79061 0.0
C3202 C 0.70669 0.91934 0.82247 0.0
C3203 C 0.69986 0.92909 0.8373 0.0
C3204 C 0.70023 0.94709 0.83719 0.0
C3205 C 0.69374 0.95616 0.85125 0.0
C3206 C 0.68698 0.94738 0.86555 0.0
C3207 C 0.68674 0.92952 0.86586 0.0
C3208 C 0.6932 0.92039 0.85182 0.0
C3209 C 0.77526 0.8905 0.8093 0.0
C3210 C 0.7739 0.87504 0.81798 0.0
C3211 C 0.7611 0.90009 0.80902 0.0
C3212 C 0.74533 0.89428 0.81728 0.0
C3213 C 0.74466 0.87974 0.82734 0.0
C3214 C 0.75887 0.87015 0.82766 0.0
C3215 C 0.72867 0.90174 0.8129 0.0
C3216 C 0.7213 0.91049 0.82664 0.0
C3217 C 0.7206 0.90082 0.79477 0.0
C3218 C 0.7269 0.89047 0.77998 0.0
C3219 C 0.72716 0.87265 0.78113 0.0
C3220 C 0.73361 0.86306 0.76744 0.0
C3221 C 0.73966 0.87111 0.75243 0.0
C3222 C 0.73922 0.88875 0.75105 0.0
C3223 C 0.73284 0.89841 0.76474 0.0
H3224 H 0.74466 0.86366 0.74185 0.0
H3225 H 0.68197 0.95443 0.87643 0.0
H3226 H 0.73467 0.95198 0.52555 0.0
H3227 H 0.7083 0.96691 0.52373 0.0
H3228 H 0.6742 0.92091 0.53815 0.0
H3229 H 0.70043 0.90564 0.53877 0.0
H3230 H 0.65247 0.93309 0.51827 0.0
H3231 H 0.69303 0.96481 0.56763 0.0
H3232 H 0.72185 0.98169 0.58361 0.0
H3233 H 0.72057 0.02086 0.54605 0.0
H3234 H 0.69184 0.0041 0.52972 0.0
H3235 H 0.57781 0.97715 0.53643 0.0
H3236 H 0.60403 0.9621 0.53822 0.0
H3237 H 0.63715 0.00621 0.51907 0.0
H3238 H 0.61105 0.0217 0.51827 0.0
H3239 H 0.65898 0.99482 0.54159 0.0
H3240 H 0.61768 0.96016 0.49165 0.0
H3241 H 0.58733 0.94344 0.47907 0.0
H3242 H 0.58874 0.91013 0.52248 0.0
H3243 H 0.61925 0.92637 0.53505 0.0
C3244 C 0.7216 0.94496 0.5284 0.0
C3245 C 0.72014 0.9274 0.53244 0.0
C3246 C 0.70626 0.9537 0.52756 0.0
C3247 C 0.68865 0.94561 0.5313 0.0
C3248 C 0.68721 0.92796 0.53519 0.0
C3249 C 0.70248 0.91909 0.53565 0.0
C3250 C 0.67192 0.95524 0.53093 0.0
C3251 C 0.65415 0.94655 0.52362 0.0
C3252 C 0.67314 0.97302 0.53761 0.0
C3253 C 0.69041 0.98311 0.54735 0.0
C3254 C 0.69897 0.97697 0.56272 0.0
C3255 C 0.71527 0.98652 0.57184 0.0
C3256 C 0.72307 1.00231 0.56581 0.0
C3257 C 0.71454 0.00861 0.55068 0.0
C3258 C 0.69824 0.9991 0.54149 0.0
C3259 C 0.5906 0.98374 0.53246 0.0
C3260 C 0.59182 1.00085 0.52704 0.0
C3261 C 0.60583 0.97489 0.5333 0.0
C3262 C 0.6231 0.98242 0.52827 0.0
C3263 C 0.62435 0.99963 0.523 0.0
C3264 C 0.60917 0.0086 0.52245 0.0
C3265 C 0.63973 0.97273 0.52879 0.0
C3266 C 0.65744 0.9814 0.53615 0.0
C3267 C 0.63841 0.95487 0.52248 0.0
C3268 C 0.62068 0.94447 0.51427 0.0
C3269 C 0.61156 0.94917 0.4984 0.0
C3270 C 0.59435 0.93977 0.49127 0.0
C3271 C 0.58615 0.92572 0.49997 0.0
C3272 C 0.59517 0.92096 0.51572 0.0
C3273 C 0.61248 0.93014 0.52275 0.0
H3274 H 0.57283 0.91849 0.4945 0.0
H3275 H 0.73569 0.00969 0.5729 0.0
H3276 H 0.40663 0.44051 0.69908 0.0
H3277 H 0.39155 0.41173 0.70542 0.0
H3278 H 0.34718 0.434 0.72472 0.0
H3279 H 0.36234 0.46288 0.7188 0.0
H3280 H 0.35984 0.41441 0.74858 0.0
H3281 H 0.34178 0.40767 0.68447 0.0
H3282 H 0.34632 0.40787 0.65216 0.0
H3283 H 0.38043 0.36906 0.65797 0.0
H3284 H 0.37629 0.3688 0.69039 0.0
H3285 H 0.29811 0.33806 0.75805 0.0
H3286 H 0.31261 0.3649 0.74681 0.0
H3287 H 0.35842 0.34088 0.73451 0.0
H3288 H 0.34394 0.31377 0.74573 0.0
H3289 H 0.34608 0.36056 0.70691 0.0
H3290 H 0.36388 0.36736 0.77098 0.0
H3291 H 0.35881 0.36688 0.80314 0.0
H3292 H 0.32476 0.40571 0.79708 0.0
H3293 H 0.32941 0.40623 0.76479 0.0
C3294 C 0.3935 0.43927 0.70438 0.0
C3295 C 0.38576 0.45403 0.70855 0.0
C3296 C 0.38487 0.42277 0.70795 0.0
C3297 C 0.36821 0.42069 0.71552 0.0
C3298 C 0.36007 0.43531 0.71895 0.0
C3299 C 0.36874 0.45181 0.71551 0.0
C3300 C 0.36 0.40359 0.72124 0.0
C3301 C 0.35657 0.40271 0.73936 0.0
C3302 C 0.35633 0.38819 0.70939 0.0
C3303 C 0.35888 0.38835 0.68991 0.0
C3304 C 0.35038 0.39929 0.6789 0.0
C3305 C 0.35286 0.39939 0.66056 0.0
C3306 C 0.3637 0.38852 0.65303 0.0
C3307 C 0.37205 0.37749 0.66383 0.0
C3308 C 0.36964 0.37735 0.68218 0.0
C3309 C 0.31125 0.33841 0.75294 0.0
C3310 C 0.31993 0.3238 0.75291 0.0
C3311 C 0.31952 0.35379 0.74653 0.0
C3312 C 0.33664 0.3549 0.73999 0.0
C3313 C 0.3452 0.34025 0.73953 0.0
C3314 C 0.33696 0.32483 0.74604 0.0
C3315 C 0.34569 0.37156 0.73409 0.0
C3316 C 0.34935 0.37232 0.71604 0.0
C3317 C 0.34958 0.3869 0.74597 0.0
C3318 C 0.34686 0.38672 0.76542 0.0
C3319 C 0.3552 0.3757 0.77647 0.0
C3320 C 0.35241 0.37544 0.79473 0.0
C3321 C 0.34143 0.38623 0.80214 0.0
C3322 C 0.33325 0.39735 0.79132 0.0
C3323 C 0.33596 0.39764 0.77304 0.0
H3324 H 0.33929 0.38601 0.81628 0.0
H3325 H 0.36559 0.38861 0.63882 0.0
H3326 H 0.08431 0.5504 0.28669 0.0
H3327 H 0.09888 0.58096 0.29294 0.0
H3328 H 0.15041 0.56533 0.30969 0.0
H3329 H 0.13594 0.53492 0.30404 0.0
H3330 H 0.14792 0.59484 0.32858 0.0
H3331 H 0.13829 0.57238 0.26521 0.0
H3332 H 0.11936 0.55897 0.23708 0.0
H3333 H 0.08844 0.60055 0.23787 0.0
H3334 H 0.10707 0.61408 0.26615 0.0
H3335 H 0.21891 0.64977 0.29331 0.0
H3336 H 0.19572 0.6273 0.30292 0.0
H3337 H 0.15383 0.65734 0.28819 0.0
H3338 H 0.17698 0.67984 0.27847 0.0
H3339 H 0.14628 0.62453 0.27182 0.0
H3340 H 0.16265 0.65047 0.33181 0.0
H3341 H 0.18303 0.6634 0.35923 0.0
H3342 H 0.20274 0.61533 0.36455 0.0
H3343 H 0.18269 0.60217 0.33701 0.0
C3344 C 0.09866 0.55347 0.29201 0.0
C3345 C 0.10908 0.54022 0.29434 0.0
C3346 C 0.10696 0.57094 0.2956 0.0
C3347 C 0.12584 0.57542 0.30131 0.0
C3348 C 0.13586 0.5622 0.30516 0.0
C3349 C 0.12756 0.54478 0.30174 0.0
C3350 C 0.1358 0.59346 0.30092 0.0
C3351 C 0.14757 0.6014 0.31621 0.0
C3352 C 0.13503 0.60218 0.28489 0.0
C3353 C 0.12389 0.59411 0.26788 0.0
C3354 C 0.12737 0.57859 0.25943 0.0
C3355 C 0.11671 0.57098 0.24347 0.0
C3356 C 0.10266 0.57888 0.23572 0.0
C3357 C 0.09929 0.59443 0.24391 0.0
C3358 C 0.10989 0.60207 0.2599 0.0
C3359 C 0.20479 0.65167 0.29235 0.0
C3360 C 0.19973 0.66648 0.28501 0.0
C3361 C 0.19159 0.63893 0.29804 0.0
C3362 C 0.17306 0.64071 0.29642 0.0
C3363 C 0.16807 0.65578 0.2897 0.0
C3364 C 0.1813 0.66862 0.28417 0.0
C3365 C 0.15881 0.6258 0.29935 0.0
C3366 C 0.14629 0.61834 0.28443 0.0
C3367 C 0.15908 0.61751 0.31567 0.0
C3368 C 0.17125 0.62537 0.33222 0.0
C3369 C 0.17145 0.64269 0.33872 0.0
C3370 C 0.18292 0.65006 0.35432 0.0
C3371 C 0.19421 0.64021 0.3636 0.0
C3372 C 0.194 0.62295 0.35734 0.0
C3373 C 0.18256 0.61552 0.34174 0.0
H3374 H 0.20309 0.64594 0.37567 0.0
H3375 H 0.09443 0.57297 0.22336 0.0
H3376 H 0.48703 0.66418 0.41894 0.0
H3377 H 0.48884 0.64271 0.44075 0.0
H3378 H 0.50133 0.68347 0.48442 0.0
H3379 H 0.50012 0.70523 0.46242 0.0
H3380 H 0.5261 0.66391 0.48667 0.0
H3381 H 0.46162 0.65098 0.48302 0.0
H3382 H 0.42987 0.6462 0.46822 0.0
H3383 H 0.43953 0.60153 0.43648 0.0
H3384 H 0.47147 0.6062 0.45092 0.0
H3385 H 0.54052 0.58608 0.53173 0.0
H3386 H 0.5282 0.6126 0.52545 0.0
H3387 H 0.51733 0.59474 0.46874 0.0
H3388 H 0.52977 0.56869 0.47471 0.0
H3389 H 0.48702 0.60562 0.48348 0.0
H3390 H 0.55347 0.62455 0.48272 0.0
H3391 H 0.58543 0.63034 0.49722 0.0
H3392 H 0.57091 0.66475 0.53849 0.0
H3393 H 0.5388 0.65899 0.52432 0.0
C3394 C 0.48963 0.6686 0.43321 0.0
C3395 C 0.49363 0.6864 0.43893 0.0
C3396 C 0.49053 0.65626 0.44574 0.0
C3397 C 0.4951 0.66144 0.4643 0.0
C3398 C 0.49777 0.67918 0.47018 0.0
C3399 C 0.49701 0.69158 0.45759 0.0
C3400 C 0.49967 0.64846 0.47684 0.0
C3401 C 0.51728 0.65136 0.48649 0.0
C3402 C 0.48823 0.63207 0.47667 0.0
C3403 C 0.46893 0.62891 0.46812 0.0
C3404 C 0.45699 0.64015 0.47286 0.0
C3405 C 0.43895 0.63747 0.46451 0.0
C3406 C 0.43265 0.62356 0.45141 0.0
C3407 C 0.44441 0.61231 0.44662 0.0
C3408 C 0.46248 0.61494 0.45492 0.0
C3409 C 0.53582 0.58801 0.51789 0.0
C3410 C 0.5361 0.57529 0.50372 0.0
C3411 C 0.52864 0.60304 0.51438 0.0
C3412 C 0.52162 0.60543 0.49668 0.0
C3413 C 0.52242 0.59299 0.48252 0.0
C3414 C 0.5297 0.57817 0.48597 0.0
C3415 C 0.51367 0.62092 0.49237 0.0
C3416 C 0.49545 0.61843 0.4843 0.0
C3417 C 0.52446 0.63773 0.49417 0.0
C3418 C 0.54373 0.64116 0.50263 0.0
C3419 C 0.55708 0.63323 0.49498 0.0
C3420 C 0.57522 0.63653 0.50311 0.0
C3421 C 0.58019 0.64785 0.5188 0.0
C3422 C 0.56703 0.65594 0.52636 0.0
C3423 C 0.54887 0.65267 0.51829 0.0
H3424 H 0.59424 0.6504 0.52507 0.0
H3425 H 0.41866 0.62147 0.44502 0.0
H3426 H 0.65108 0.33951 0.65607 0.0
H3427 H 0.67829 0.33377 0.67396 0.0
H3428 H 0.66484 0.36294 0.72044 0.0
H3429 H 0.63689 0.36781 0.70278 0.0
H3430 H 0.70824 0.34789 0.69264 0.0
H3431 H 0.67289 0.34381 0.75786 0.0
H3432 H 0.64176 0.3387 0.76738 0.0
H3433 H 0.62111 0.30871 0.71693 0.0
H3434 H 0.65207 0.31373 0.70709 0.0
H3435 H 0.74983 0.3097 0.77861 0.0
H3436 H 0.72954 0.32796 0.7646 0.0
H3437 H 0.72471 0.29664 0.71391 0.0
H3438 H 0.74472 0.27839 0.72764 0.0
H3439 H 0.69348 0.31797 0.74734 0.0
H3440 H 0.72409 0.32374 0.67932 0.0
H3441 H 0.75376 0.3244 0.66717 0.0
H3442 H 0.78225 0.34374 0.71947 0.0
H3443 H 0.75276 0.34353 0.73189 0.0
C3444 C 0.65416 0.34509 0.66996 0.0
C3445 C 0.64175 0.35386 0.67816 0.0
C3446 C 0.66975 0.3418 0.68021 0.0
C3447 C 0.67333 0.34746 0.69872 0.0
C3448 C 0.66204 0.35796 0.70634 0.0
C3449 C 0.64619 0.36088 0.69622 0.0
C3450 C 0.68752 0.34068 0.71025 0.0
C3451 C 0.70502 0.34135 0.7046 0.0
C3452 C 0.6834 0.33226 0.72598 0.0
C3453 C 0.66472 0.32934 0.73168 0.0
C3454 C 0.66168 0.33617 0.7488 0.0
C3455 C 0.64407 0.33332 0.75423 0.0
C3456 C 0.62944 0.3235 0.74271 0.0
C3457 C 0.63241 0.31646 0.72576 0.0
C3458 C 0.64997 0.31934 0.72023 0.0
C3459 C 0.74429 0.30662 0.76454 0.0
C3460 C 0.74891 0.29262 0.75425 0.0
C3461 C 0.73281 0.3171 0.75654 0.0
C3462 C 0.72602 0.31385 0.73814 0.0
C3463 C 0.73017 0.29959 0.72803 0.0
C3464 C 0.74148 0.28908 0.73598 0.0
C3465 C 0.71398 0.32484 0.72946 0.0
C3466 C 0.69686 0.32491 0.73566 0.0
C3467 C 0.71825 0.33331 0.71383 0.0
C3468 C 0.73615 0.33355 0.70656 0.0
C3469 C 0.73667 0.32823 0.68822 0.0
C3470 C 0.75346 0.32851 0.68129 0.0
C3471 C 0.76985 0.33414 0.69254 0.0
C3472 C 0.76952 0.33939 0.71078 0.0
C3473 C 0.75276 0.33917 0.71778 0.0
H3474 H 0.7828 0.33451 0.68708 0.0
H3475 H 0.61583 0.32127 0.74695 0.0
H3476 H 0.05211 0.29932 0.89785 0.0
H3477 H 0.04933 0.32666 0.91433 0.0
H3478 H 0.99915 0.30178 0.93276 0.0
H3479 H 1.00193 0.27427 0.91653 0.0
H3480 H 0.99808 0.33484 0.91755 0.0
H3481 H 0.03375 0.30855 0.96186 0.0
H3482 H 0.05947 0.29452 0.97304 0.0
H3483 H 0.09784 0.33956 0.96361 0.0
H3484 H 0.07234 0.35376 0.9521 0.0
H3485 H 0.98835 0.40331 0.98 0.0
H3486 H 0.99077 0.37475 0.96636 0.0
H3487 H 0.04656 0.39408 0.95717 0.0
H3488 H 0.04466 0.42241 0.97188 0.0
H3489 H 0.04426 0.36299 0.96823 0.0
H3490 H 0.01008 0.38912 0.92297 0.0
H3491 H 0.98524 0.40357 0.91038 0.0
H3492 H 0.94523 0.35971 0.91967 0.0
H3493 H 0.96983 0.34509 0.93255 0.0
C3494 C 0.04047 0.29967 0.90539 0.0
C3495 C 0.02724 0.28468 0.90595 0.0
C3496 C 0.03896 0.31525 0.91483 0.0
C3497 C 0.02411 0.31611 0.92479 0.0
C3498 C 0.01072 0.30127 0.92516 0.0
C3499 C 0.01237 0.28561 0.91594 0.0
C3500 C 0.0225 0.33261 0.93467 0.0
C3501 C 0.00798 0.34092 0.92882 0.0
C3502 C 0.03578 0.34063 0.94898 0.0
C3503 C 0.05113 0.33214 0.95594 0.0
C3504 C 0.04767 0.3154 0.962 0.0
C3505 C 0.06221 0.30743 0.96844 0.0
C3506 C 0.08028 0.31613 0.96899 0.0
C3507 C 0.08384 0.33283 0.96315 0.0
C3508 C 0.06935 0.34085 0.95669 0.0
C3509 C 1.00125 0.40144 0.97536 0.0
C3510 C 0.01629 0.4152 0.97696 0.0
C3511 C 1.00252 0.38515 0.96735 0.0
C3512 C 0.01872 0.38239 0.96043 0.0
C3513 C 0.03388 0.39597 0.96231 0.0
C3514 C 0.0327 0.41221 0.97054 0.0
C3515 C 0.01983 0.36538 0.9511 0.0
C3516 C 0.03428 0.35695 0.95701 0.0
C3517 C 1.00662 0.35734 0.93666 0.0
C3518 C 0.99179 0.36609 0.9289 0.0
C3519 C 0.99598 0.38261 0.92246 0.0
C3520 C 0.98194 0.39082 0.91525 0.0
C3521 C 0.96367 0.38258 0.91427 0.0
C3522 C 0.95939 0.36609 0.92046 0.0
C3523 C 0.97338 0.35783 0.92771 0.0
H3524 H 0.95282 0.38896 0.90868 0.0
H3525 H 0.09152 0.30994 0.97397 0.0
H3526 H 0.04228 0.80651 0.2137 0.0
H3527 H 0.01077 0.79775 0.21977 0.0
H3528 H 0.99134 0.81643 0.1695 0.0
H3529 H 0.02311 0.8255 0.16329 0.0
H3530 H 0.97368 0.82658 0.19786 0.0
H3531 H 0.98615 0.77363 0.17195 0.0
H3532 H 1.00383 0.75021 0.16672 0.0
H3533 H 1.00168 0.7378 0.22181 0.0
H3534 H 0.98423 0.76132 0.22747 0.0
H3535 H 0.88571 0.78742 0.2244 0.0
H3536 H 0.91072 0.7938 0.20556 0.0
H3537 H 0.94921 0.78389 0.24924 0.0
H3538 H 0.92458 0.77812 0.26833 0.0
H3539 H 0.95265 0.76712 0.21548 0.0
H3540 H 0.94617 0.82415 0.24215 0.0
H3541 H 0.93004 0.84869 0.24773 0.0
H3542 H 0.92104 0.85327 0.19055 0.0
H3543 H 0.93694 0.8286 0.18462 0.0
C3544 C 0.03137 0.80878 0.20387 0.0
C3545 C 0.03523 0.81667 0.18797 0.0
C3546 C 0.01334 0.80364 0.20732 0.0
C3547 C 0.99875 0.80614 0.19491 0.0
C3548 C 1.00245 0.81426 0.17914 0.0
C3549 C 0.02058 0.81943 0.17564 0.0
C3550 C 0.97974 0.8007 0.19904 0.0
C3551 C 0.96881 0.81345 0.20123 0.0
C3552 C 0.9735 0.78359 0.20348 0.0
C3553 C 0.98391 0.7693 0.20014 0.0
C3554 C 0.98953 0.76598 0.18299 0.0
C3555 C 0.99951 0.75267 0.17994 0.0
C3556 C 1.00389 0.74253 0.19392 0.0
C3557 C 0.99827 0.74566 0.21098 0.0
C3558 C 0.9883 0.75896 0.21411 0.0
C3559 C 0.89953 0.78678 0.23006 0.0
C3560 C 0.90316 0.78226 0.24789 0.0
C3561 C 0.91374 0.79032 0.21923 0.0
C3562 C 0.93173 0.78928 0.22606 0.0
C3563 C 0.93535 0.78461 0.24372 0.0
C3564 C 0.92124 0.78123 0.25458 0.0
C3565 C 0.94708 0.79319 0.21509 0.0
C3566 C 0.95726 0.78009 0.21156 0.0
C3567 C 0.95257 0.80994 0.20937 0.0
C3568 C 0.94253 0.8244 0.21293 0.0
C3569 C 0.94056 0.83025 0.23076 0.0
C3570 C 0.93154 0.84424 0.23399 0.0
C3571 C 0.92457 0.85257 0.21951 0.0
C3572 C 0.92649 0.84684 0.20176 0.0
C3573 C 0.93549 0.83285 0.19845 0.0
H3574 H 0.91763 0.86341 0.22204 0.0
H3575 H 0.01162 0.73224 0.19154 0.0
H3576 H 0.53482 0.32462 0.08311 0.0
H3577 H 0.53649 0.35275 0.07005 0.0
H3578 H 0.54071 0.37867 0.12348 0.0
H3579 H 0.53861 0.35048 0.13646 0.0
H3580 H 0.52232 0.39658 0.10436 0.0
H3581 H 0.57856 0.37885 0.09208 0.0
H3582 H 0.59842 0.35965 0.08011 0.0
H3583 H 0.57188 0.36053 0.02633 0.0
H3584 H 0.55172 0.37958 0.03802 0.0
H3585 H 0.54865 0.48365 0.07719 0.0
H3586 H 0.54724 0.45542 0.08983 0.0
H3587 H 0.5414 0.42995 0.03605 0.0
H3588 H 0.54319 0.45832 0.02338 0.0
H3589 H 0.56052 0.41181 0.05517 0.0
H3590 H 0.50439 0.42981 0.06766 0.0
H3591 H 0.48507 0.44949 0.07975 0.0
H3592 H 0.51188 0.4484 0.13338 0.0
H3593 H 0.53152 0.42889 0.12157 0.0
C3594 C 0.53614 0.33623 0.09222 0.0
C3595 C 0.53661 0.33464 0.11114 0.0
C3596 C 0.53729 0.3527 0.08462 0.0
C3597 C 0.53915 0.36875 0.09543 0.0
C3598 C 0.53936 0.36708 0.11432 0.0
C3599 C 0.5382 0.35062 0.12191 0.0
C3600 C 0.54067 0.38694 0.08729 0.0
C3601 C 0.53096 0.39977 0.09377 0.0
C3602 C 0.55148 0.39195 0.07301 0.0
C3603 C 0.56351 0.38048 0.06595 0.0
C3604 C 0.57688 0.37485 0.07772 0.0
C3605 C 0.5882 0.36401 0.07098 0.0
C3606 C 0.58637 0.35883 0.05248 0.0
C3607 C 0.57326 0.36452 0.04066 0.0
C3608 C 0.56189 0.37535 0.04733 0.0
C3609 C 0.54709 0.47214 0.06788 0.0
C3610 C 0.54606 0.47393 0.04896 0.0
C3611 C 0.54608 0.4556 0.07526 0.0
C3612 C 0.54378 0.43965 0.06425 0.0
C3613 C 0.54308 0.44149 0.04534 0.0
C3614 C 0.5441 0.45804 0.03794 0.0
C3615 C 0.54219 0.42142 0.07226 0.0
C3616 C 0.55188 0.4086 0.06575 0.0
C3617 C 0.5314 0.41643 0.08653 0.0
C3618 C 0.51954 0.42802 0.0937 0.0
C3619 C 0.50623 0.43385 0.08202 0.0
C3620 C 0.49522 0.44496 0.08882 0.0
C3621 C 0.49728 0.45022 0.10732 0.0
C3622 C 0.51032 0.44433 0.11906 0.0
C3623 C 0.52138 0.43323 0.11232 0.0
H3624 H 0.48874 0.45883 0.11256 0.0
H3625 H 0.59515 0.35044 0.04729 0.0
H3626 H 0.98311 0.24574 0.3784 0.0
H3627 H 0.95077 0.24368 0.3655 0.0
H3628 H 0.96553 0.2906 0.33935 0.0
H3629 H 0.99727 0.29265 0.35185 0.0
H3630 H 0.93463 0.29221 0.35355 0.0
H3631 H 0.95571 0.24825 0.31625 0.0
H3632 H 0.96827 0.22142 0.31072 0.0
H3633 H 0.9234 0.19206 0.33356 0.0
H3634 H 0.9107 0.21877 0.33943 0.0
H3635 H 0.85626 0.29496 0.29201 0.0
H3636 H 0.8867 0.29343 0.30662 0.0
H3637 H 0.86687 0.24165 0.32064 0.0
H3638 H 0.83648 0.24281 0.30493 0.0
H3639 H 0.89928 0.24099 0.31525 0.0
H3640 H 0.8773 0.28301 0.35231 0.0
H3641 H 0.86415 0.30913 0.35972 0.0
H3642 H 0.90968 0.34128 0.34066 0.0
H3643 H 0.923 0.31533 0.33292 0.0
C3644 C 0.97949 0.25563 0.36993 0.0
C3645 C 0.99327 0.26933 0.36629 0.0
C3646 C 0.96085 0.25441 0.3624 0.0
C3647 C 0.95526 0.26694 0.35114 0.0
C3648 C 0.96901 0.28067 0.34786 0.0
C3649 C 0.98745 0.28177 0.3551 0.0
C3650 C 0.9354 0.26623 0.34275 0.0
C3651 C 0.92705 0.281 0.34505 0.0
C3652 C 0.92477 0.25155 0.33202 0.0
C3653 C 0.93238 0.23553 0.32846 0.0
C3654 C 0.9486 0.23609 0.32022 0.0
C3655 C 0.95573 0.22091 0.317 0.0
C3656 C 0.94667 0.20505 0.32184 0.0
C3657 C 0.93043 0.20435 0.32985 0.0
C3658 C 0.92325 0.2195 0.33312 0.0
C3659 C 0.85826 0.28318 0.29817 0.0
C3660 C 0.84351 0.26908 0.29721 0.0
C3661 C 0.87588 0.28236 0.30683 0.0
C3662 C 0.87957 0.26761 0.31557 0.0
C3663 C 0.86488 0.25334 0.31432 0.0
C3664 C 0.84728 0.25402 0.30527 0.0
C3665 C 0.89854 0.26714 0.32579 0.0
C3666 C 0.90675 0.25219 0.32382 0.0
C3667 C 0.90895 0.28156 0.33717 0.0
C3668 C 0.90106 0.29721 0.34189 0.0
C3669 C 0.88446 0.29564 0.3496 0.0
C3670 C 0.87698 0.31042 0.35387 0.0
C3671 C 0.88605 0.32685 0.35062 0.0
C3672 C 0.90266 0.32855 0.34315 0.0
C3673 C 0.91019 0.31381 0.33884 0.0
H3674 H 0.88024 0.33827 0.35392 0.0
H3675 H 0.9522 0.19331 0.31933 0.0
H3676 H 0.04548 0.70577 0.63216 0.0
H3677 H 0.04669 0.67782 0.61638 0.0
H3678 H 0.02313 0.69457 0.5669 0.0
H3679 H 0.02196 0.72309 0.58289 0.0
H3680 H 0.00791 0.66003 0.56935 0.0
H3681 H 0.07007 0.68981 0.57476 0.0
H3682 H 0.09916 0.70636 0.59048 0.0
H3683 H 0.10377 0.66488 0.6246 0.0
H3684 H 0.07457 0.64816 0.60924 0.0
H3685 H 0.02319 0.58411 0.51615 0.0
H3686 H 0.02196 0.61328 0.52941 0.0
H3687 H 0.05463 0.60399 0.57764 0.0
H3688 H 0.05642 0.57496 0.56403 0.0
H3689 H 0.06519 0.63558 0.57481 0.0
H3690 H 1.00311 0.60634 0.57146 0.0
H3691 H 0.97354 0.58946 0.55717 0.0
H3692 H 0.96809 0.62919 0.52098 0.0
H3693 H 0.99775 0.64622 0.53493 0.0
C3694 C 0.04057 0.7038 0.61786 0.0
C3695 C 0.03368 0.71735 0.60912 0.0
C3696 C 0.04137 0.68748 0.60867 0.0
C3697 C 0.03523 0.68344 0.59005 0.0
C3698 C 0.02811 0.69684 0.58117 0.0
C3699 C 0.02752 0.71343 0.59041 0.0
C3700 C 0.03629 0.6654 0.58032 0.0
C3701 C 0.0206 0.65494 0.57037 0.0
C3702 C 0.05248 0.6578 0.58171 0.0
C3703 C 0.07004 0.6678 0.59095 0.0
C3704 C 0.07721 0.68427 0.5857 0.0
C3705 C 0.09374 0.69367 0.59453 0.0
C3706 C 0.10328 0.68669 0.60856 0.0
C3707 C 0.09635 0.67027 0.61375 0.0
C3708 C 0.07982 0.66082 0.60497 0.0
C3709 C 0.03011 0.58811 0.52964 0.0
C3710 C 0.03984 0.57654 0.53879 0.0
C3711 C 0.02926 0.60508 0.53746 0.0
C3712 C 0.03781 0.61153 0.55509 0.0
C3713 C 0.04771 0.6 0.56416 0.0
C3714 C 0.04869 0.58305 0.55627 0.0
C3715 C 0.03676 0.63004 0.56385 0.0
C3716 C 0.05247 0.64061 0.57369 0.0
C3717 C 0.02052 0.63764 0.56254 0.0
C3718 C 1.00274 0.62745 0.5541 0.0
C3719 C 0.99566 0.61141 0.56037 0.0
C3720 C 0.97888 0.60183 0.55235 0.0
C3721 C 0.96897 0.60822 0.53814 0.0
C3722 C 0.9758 0.62424 0.53196 0.0
C3723 C 0.99259 0.63387 0.53993 0.0
H3724 H 0.95598 0.60079 0.53195 0.0
H3725 H 0.11607 0.694 0.61537 0.0
H3726 H 0.59239 0.76109 0.84885 0.0
H3727 H 0.61966 0.7624 0.83266 0.0
H3728 H 0.65428 0.77867 0.88279 0.0
H3729 H 0.62699 0.77735 0.89899 0.0
H3730 H 0.6693 0.79679 0.85802 0.0
H3731 H 0.64822 0.73553 0.85829 0.0
H3732 H 0.62603 0.70803 0.85258 0.0
H3733 H 0.62024 0.71471 0.79567 0.0
H3734 H 0.64224 0.74237 0.80108 0.0
H3735 H 0.75462 0.78902 0.82311 0.0
H3736 H 0.72753 0.78753 0.83919 0.0
H3737 H 0.69387 0.76162 0.79143 0.0
H3738 H 0.72138 0.76197 0.77579 0.0
H3739 H 0.6778 0.74855 0.81508 0.0
H3740 H 0.69829 0.81048 0.81468 0.0
H3741 H 0.71926 0.83877 0.82076 0.0
H3742 H 0.72529 0.83159 0.87755 0.0
H3743 H 0.70456 0.80324 0.8718 0.0
C3744 C 0.60577 0.7649 0.85657 0.0
C3745 C 0.60702 0.76902 0.87553 0.0
C3746 C 0.62162 0.76557 0.84717 0.0
C3747 C 0.63968 0.77046 0.85616 0.0
C3748 C 0.6409 0.7748 0.87509 0.0
C3749 C 0.62505 0.77398 0.88451 0.0
C3750 C 0.65706 0.77125 0.84603 0.0
C3751 C 0.67112 0.78607 0.84879 0.0
C3752 C 0.65994 0.7577 0.83341 0.0
C3753 C 0.64673 0.74111 0.83012 0.0
C3754 C 0.64211 0.7312 0.84458 0.0
C3755 C 0.62959 0.71557 0.84139 0.0
C3756 C 0.62169 0.70965 0.82378 0.0
C3757 C 0.62635 0.71932 0.80931 0.0
C3758 C 0.63885 0.73497 0.81243 0.0
C3759 C 0.74147 0.78311 0.81584 0.0
C3760 C 0.74067 0.77582 0.79778 0.0
C3761 C 0.72559 0.7824 0.82516 0.0
C3762 C 0.70772 0.77492 0.81682 0.0
C3763 C 0.70698 0.76761 0.79871 0.0
C3764 C 0.72297 0.76791 0.78953 0.0
C3765 C 0.69019 0.77425 0.82688 0.0
C3766 C 0.67605 0.75939 0.82416 0.0
C3767 C 0.68717 0.78786 0.83946 0.0
C3768 C 0.70001 0.80468 0.84279 0.0
C3769 C 0.70422 0.81489 0.82844 0.0
C3770 C 0.71604 0.83094 0.83183 0.0
C3771 C 0.7236 0.83694 0.84953 0.0
C3772 C 0.71943 0.82691 0.86385 0.0
C3773 C 0.70765 0.81087 0.86054 0.0
H3774 H 0.73262 0.8494 0.85223 0.0
H3775 H 0.612 0.69755 0.82134 0.0
H3776 H 0.39595 0.52839 0.65017 0.0
H3777 H 0.40943 0.53528 0.6222 0.0
H3778 H 0.46332 0.54664 0.65229 0.0
H3779 H 0.45006 0.54026 0.68003 0.0
H3780 H 0.46114 0.56848 0.62704 0.0
H3781 H 0.44517 0.50589 0.63074 0.0
H3782 H 0.42372 0.47855 0.63264 0.0
H3783 H 0.39255 0.48677 0.58322 0.0
H3784 H 0.41372 0.51429 0.58117 0.0
H3785 H 0.52627 0.53825 0.57567 0.0
H3786 H 0.50457 0.54326 0.5972 0.0
H3787 H 0.46183 0.54102 0.55303 0.0
H3788 H 0.48335 0.5362 0.53142 0.0
H3789 H 0.45287 0.51865 0.58045 0.0
H3790 H 0.47706 0.57747 0.57379 0.0
H3791 H 0.50051 0.60351 0.57291 0.0
H3792 H 0.51902 0.60131 0.62905 0.0
H3793 H 0.49579 0.5751 0.63023 0.0
C3794 C 0.41062 0.53262 0.65079 0.0
C3795 C 0.42198 0.53353 0.66722 0.0
C3796 C 0.4183 0.53654 0.63484 0.0
C3797 C 0.4374 0.54127 0.63515 0.0
C3798 C 0.44856 0.54306 0.65172 0.0
C3799 C 0.44094 0.53925 0.66757 0.0
C3800 C 0.44628 0.54274 0.61828 0.0
C3801 C 0.45934 0.55763 0.6168 0.0
C3802 C 0.44357 0.52873 0.60471 0.0
C3803 C 0.43085 0.51223 0.60594 0.0
C3804 C 0.43365 0.50192 0.62036 0.0
C3805 C 0.42157 0.48639 0.62145 0.0
C3806 C 0.40674 0.48096 0.60809 0.0
C3807 C 0.40401 0.49102 0.59359 0.0
C3808 C 0.41604 0.50659 0.59246 0.0
C3809 C 0.5123 0.53896 0.57054 0.0
C3810 C 0.50652 0.53675 0.55187 0.0
C3811 C 0.49997 0.54192 0.58283 0.0
C3812 C 0.48168 0.54257 0.57663 0.0
C3813 C 0.47592 0.54059 0.55802 0.0
C3814 C 0.48826 0.53785 0.54573 0.0
C3815 C 0.46831 0.54406 0.5897 0.0
C3816 C 0.45438 0.52973 0.59039 0.0
C3817 C 0.47052 0.55845 0.60272 0.0
C3818 C 0.48461 0.57424 0.60208 0.0
C3819 C 0.48614 0.58247 0.58594 0.0
C3820 C 0.49942 0.59728 0.58539 0.0
C3821 C 0.51125 0.60407 0.60092 0.0
C3822 C 0.50982 0.59605 0.61703 0.0
C3823 C 0.49657 0.58122 0.61766 0.0
H3824 H 0.52153 0.61554 0.60046 0.0
H3825 H 0.3974 0.46893 0.60895 0.0
H3826 H 0.78236 0.17302 0.94494 0.0
H3827 H 0.78139 0.1848 0.91551 0.0
H3828 H 0.78504 0.23641 0.94144 0.0
H3829 H 0.78532 0.22449 0.9711 0.0
H3830 H 0.76079 0.23229 0.91313 0.0
H3831 H 0.82221 0.22201 0.92263 0.0
H3832 H 0.84686 0.2053 0.92991 0.0
H3833 H 0.82542 0.16856 0.88426 0.0
H3834 H 0.80048 0.18492 0.87683 0.0
H3835 H 0.78759 0.27657 0.83638 0.0
H3836 H 0.78601 0.26473 0.86582 0.0
H3837 H 0.77142 0.21281 0.83941 0.0
H3838 H 0.77275 0.22463 0.80974 0.0
H3839 H 0.80111 0.21726 0.86767 0.0
H3840 H 0.73981 0.22913 0.85832 0.0
H3841 H 0.71632 0.24719 0.85139 0.0
H3842 H 0.73952 0.28294 0.89736 0.0
H3843 H 0.76332 0.26521 0.90442 0.0
C3844 C 0.78311 0.18692 0.94446 0.0
C3845 C 0.78404 0.19782 0.96044 0.0
C3846 C 0.78263 0.19367 0.92755 0.0
C3847 C 0.78345 0.21158 0.92614 0.0
C3848 C 0.78443 0.22255 0.9421 0.0
C3849 C 0.7847 0.21574 0.95908 0.0
C3850 C 0.78284 0.21868 0.90798 0.0
C3851 C 0.76982 0.22919 0.90333 0.0
C3852 C 0.79433 0.21444 0.89492 0.0
C3853 C 0.80937 0.2046 0.89928 0.0
C3854 C 0.82267 0.21029 0.91421 0.0
C3855 C 0.83671 0.2009 0.91836 0.0
C3856 C 0.83768 0.18585 0.90758 0.0
C3857 C 0.82464 0.1802 0.8926 0.0
C3858 C 0.81056 0.18954 0.88841 0.0
C3859 C 0.78379 0.26263 0.83678 0.0
C3860 C 0.78028 0.25154 0.82068 0.0
C3861 C 0.78287 0.25589 0.85365 0.0
C3862 C 0.77859 0.23788 0.85485 0.0
C3863 C 0.77474 0.22676 0.8388 0.0
C3864 C 0.77538 0.23353 0.82186 0.0
C3865 C 0.77905 0.23074 0.8729 0.0
C3866 C 0.79209 0.22029 0.87752 0.0
C3867 C 0.76777 0.23526 0.886 0.0
C3868 C 0.75346 0.24592 0.8818 0.0
C3869 C 0.74 0.24092 0.86686 0.0
C3870 C 0.72661 0.25109 0.86293 0.0
C3871 C 0.72646 0.26623 0.8739 0.0
C3872 C 0.73967 0.27122 0.88886 0.0
C3873 C 0.7531 0.26111 0.89284 0.0
H3874 H 0.71607 0.27408 0.87083 0.0
H3875 H 0.84855 0.17859 0.91082 0.0
H3876 H 0.06286 0.48069 0.22928 0.0
H3877 H 0.05153 0.4868 0.19889 0.0
H3878 H 0.10586 0.48931 0.18269 0.0
H3879 H 0.11741 0.48391 0.21333 0.0
H3880 H 0.09223 0.51463 0.17036 0.0
H3881 H 0.07023 0.45363 0.16965 0.0
H3882 H 0.0542 0.42673 0.18043 0.0
H3883 H 1.00339 0.44587 0.17424 0.0
H3884 H 0.01917 0.473 0.16364 0.0
H3885 H 0.04407 0.48726 0.07362 0.0
H3886 H 0.05137 0.47959 0.10436 0.0
H3887 H 0.04996 0.53205 0.12522 0.0
H3888 H 0.04331 0.54 0.09439 0.0
H3889 H 0.03728 0.47861 0.13482 0.0
H3890 H 0.08341 0.54484 0.15968 0.0
H3891 H 0.10184 0.56935 0.14692 0.0
H3892 H 0.10905 0.53528 0.10165 0.0
H3893 H 0.0909 0.51054 0.11426 0.0
C3894 C 0.07237 0.48245 0.21921 0.0
C3895 C 0.09102 0.4818 0.22364 0.0
C3896 C 0.06586 0.48587 0.20181 0.0
C3897 C 0.07778 0.48831 0.18841 0.0
C3898 C 0.0964 0.48751 0.19281 0.0
C3899 C 0.10298 0.48436 0.21029 0.0
C3900 C 0.07099 0.49214 0.16995 0.0
C3901 C 0.08021 0.50673 0.16262 0.0
C3902 C 0.05546 0.48172 0.15968 0.0
C3903 C 0.04592 0.46541 0.16601 0.0
C3904 C 0.05566 0.45216 0.17071 0.0
C3905 C 0.04662 0.43686 0.17677 0.0
C3906 C 0.0278 0.43461 0.17806 0.0
C3907 C 0.01798 0.44764 0.17325 0.0
C3908 C 0.02696 0.46297 0.1672 0.0
C3909 C 0.04504 0.49712 0.08476 0.0
C3910 C 0.04337 0.51431 0.08156 0.0
C3911 C 0.04919 0.4927 0.10235 0.0
C3912 C 0.0516 0.50533 0.11706 0.0
C3913 C 0.0486 0.52219 0.11402 0.0
C3914 C 0.04472 0.5267 0.0964 0.0
C3915 C 0.05846 0.50113 0.13535 0.0
C3916 C 0.04924 0.48652 0.14264 0.0
C3917 C 0.07438 0.51117 0.14534 0.0
C3918 C 0.08563 0.5259 0.13783 0.0
C3919 C 0.089 0.54258 0.14704 0.0
C3920 C 0.09939 0.55651 0.13983 0.0
C3921 C 0.10656 0.55389 0.12345 0.0
C3922 C 0.10344 0.53731 0.1143 0.0
C3923 C 0.0931 0.52333 0.12147 0.0
H3924 H 0.11456 0.5647 0.11787 0.0
H3925 H 0.02082 0.42276 0.18276 0.0
H3926 H 0.76265 0.84905 0.48071 0.0
H3927 H 0.76433 0.83204 0.45206 0.0
H3928 H 0.78689 0.87908 0.42933 0.0
H3929 H 0.78425 0.89589 0.4572 0.0
H3930 H 0.76791 0.86325 0.40373 0.0
H3931 H 0.81137 0.84172 0.44432 0.0
H3932 H 0.82235 0.82811 0.47129 0.0
H3933 H 0.7827 0.78179 0.45478 0.0
H3934 H 0.77136 0.79521 0.42781 0.0
H3935 H 0.81066 0.79453 0.34427 0.0
H3936 H 0.80778 0.80926 0.37367 0.0
H3937 H 0.75554 0.82058 0.35227 0.0
H3938 H 0.75882 0.80658 0.32272 0.0
H3939 H 0.78944 0.8068 0.39993 0.0
H3940 H 0.743 0.85463 0.37449 0.0
H3941 H 0.73738 0.87075 0.34772 0.0
H3942 H 0.79182 0.86887 0.33448 0.0
H3943 H 0.79783 0.85292 0.36127 0.0
C3944 C 0.76805 0.85577 0.46965 0.0
C3945 C 0.77324 0.87409 0.47167 0.0
C3946 C 0.76915 0.84593 0.45305 0.0
C3947 C 0.77596 0.8539 0.43789 0.0
C3948 C 0.78136 0.87216 0.44021 0.0
C3949 C 0.77992 0.88193 0.45651 0.0
C3950 C 0.77728 0.84378 0.41961 0.0
C3951 C 0.77261 0.85088 0.40314 0.0
C3952 C 0.78366 0.82761 0.41799 0.0
C3953 C 0.79039 0.81954 0.43418 0.0
C3954 C 0.80492 0.82868 0.44652 0.0
C3955 C 0.81122 0.82099 0.46179 0.0
C3956 C 0.80319 0.80412 0.46478 0.0
C3957 C 0.78888 0.79487 0.45247 0.0
C3958 C 0.78252 0.8025 0.43718 0.0
C3959 C 0.79856 0.80022 0.3457 0.0
C3960 C 0.78512 0.79934 0.33065 0.0
C3961 C 0.79685 0.8087 0.36278 0.0
C3962 C 0.78156 0.81665 0.36573 0.0
C3963 C 0.76787 0.81529 0.35077 0.0
C3964 C 0.7697 0.80703 0.33364 0.0
C3965 C 0.78004 0.82632 0.38417 0.0
C3966 C 0.78467 0.81914 0.4006 0.0
C3967 C 0.77422 0.84274 0.38583 0.0
C3968 C 0.77077 0.85241 0.36976 0.0
C3969 C 0.75378 0.8577 0.36589 0.0
C3970 C 0.75053 0.8668 0.35071 0.0
C3971 C 0.76421 0.87078 0.33937 0.0
C3972 C 0.78121 0.86573 0.34323 0.0
C3973 C 0.78453 0.85664 0.3584 0.0
H3974 H 0.76166 0.87781 0.32763 0.0
H3975 H 0.80808 0.79819 0.4766 0.0
H3976 H 0.47797 0.50086 0.75126 0.0
H3977 H 0.49598 0.50386 0.78085 0.0
H3978 H 0.45266 0.52358 0.80524 0.0
H3979 H 0.43454 0.52086 0.77556 0.0
H3980 H 0.48642 0.54237 0.81789 0.0
H3981 H 0.45785 0.48214 0.809 0.0
H3982 H 0.44952 0.453 0.7926 0.0
H3983 H 0.50647 0.44933 0.79365 0.0
H3984 H 0.51515 0.47856 0.80986 0.0
H3985 H 0.51058 0.52882 0.90951 0.0
H3986 H 0.49686 0.53067 0.87877 0.0
H3987 H 0.53907 0.50636 0.85756 0.0
H3988 H 0.55251 0.50393 0.88852 0.0
H3989 H 0.50721 0.49077 0.8425 0.0
H3990 H 0.53571 0.55076 0.85336 0.0
H3991 H 0.54349 0.5797 0.87024 0.0
H3992 H 0.48651 0.5839 0.86595 0.0
H3993 H 0.47836 0.55488 0.84925 0.0
C3994 C 0.47222 0.50583 0.76289 0.0
C3995 C 0.45475 0.51053 0.76106 0.0
C3996 C 0.48254 0.50751 0.7798 0.0
C3997 C 0.47556 0.51377 0.79523 0.0
C3998 C 0.45826 0.51872 0.79346 0.0
C3999 C 0.44791 0.51708 0.77652 0.0
C4000 C 0.48624 0.5149 0.81325 0.0
C4001 C 0.49085 0.53108 0.8234 0.0
C4002 C 0.49234 0.50023 0.82016 0.0
C4003 C 0.48715 0.48261 0.81048 0.0
C4004 C 0.4686 0.47518 0.80561 0.0
C4005 C 0.46382 0.45863 0.79637 0.0
C4006 C 0.47746 0.44934 0.79204 0.0
C4007 C 0.49592 0.45655 0.79699 0.0
C4008 C 0.50078 0.4731 0.80622 0.0
C4009 C 0.51721 0.52428 0.89828 0.0
C4010 C 0.53266 0.51632 0.90134 0.0
C4011 C 0.50937 0.52537 0.8807 0.0
C4012 C 0.51705 0.51886 0.86581 0.0
C4013 C 0.53292 0.51149 0.86884 0.0
C4014 C 0.54061 0.51014 0.88648 0.0
C4015 C 0.50754 0.51829 0.84726 0.0
C4016 C 0.50303 0.50216 0.83698 0.0
C4017 C 0.50152 0.53302 0.84029 0.0
C4018 C 0.50642 0.55058 0.85015 0.0
C4019 C 0.52483 0.55781 0.85611 0.0
C4020 C 0.5293 0.57424 0.86563 0.0
C4021 C 0.5155 0.58362 0.8692 0.0
C4022 C 0.49719 0.57661 0.86319 0.0
C4023 C 0.49264 0.56019 0.85367 0.0
H4024 H 0.51899 0.59633 0.87659 0.0
H4025 H 0.47373 0.43653 0.78489 0.0
H4026 H 0.79957 0.21496 0.06627 0.0
H4027 H 0.80406 0.23137 0.09622 0.0
H4028 H 0.76674 0.19062 0.11616 0.0
H4029 H 0.76215 0.17439 0.08664 0.0
H4030 H 0.76038 0.22207 0.12782 0.0
H4031 H 0.8131 0.19355 0.12456 0.0
H4032 H 0.84063 0.18712 0.11155 0.0
H4033 H 0.86514 0.24117 0.11984 0.0
H4034 H 0.83763 0.24794 0.13269 0.0
H4035 H 0.77916 0.22833 0.22221 0.0
H4036 H 0.77774 0.21832 0.19029 0.0
H4037 H 0.81449 0.26495 0.1814 0.0
H4038 H 0.81602 0.27517 0.21342 0.0
H4039 H 0.82211 0.23515 0.16287 0.0
H4040 H 0.77093 0.26313 0.16968 0.0
H4041 H 0.74375 0.26939 0.18343 0.0
H4042 H 0.71626 0.21686 0.16846 0.0
H4043 H 0.74342 0.21017 0.15494 0.0
C4044 C 0.79222 0.20961 0.07701 0.0
C4045 C 0.7806 0.19329 0.07403 0.0
C4046 C 0.79485 0.21895 0.09415 0.0
C4047 C 0.78584 0.21217 0.10853 0.0
C4048 C 0.77384 0.19616 0.10534 0.0
C4049 C 0.77132 0.18683 0.08839 0.0
C4050 C 0.78906 0.22123 0.12714 0.0
C4051 C 0.77388 0.22487 0.13548 0.0
C4052 C 0.80672 0.22534 0.13706 0.0
C4053 C 0.82323 0.22128 0.12936 0.0
C4054 C 0.8243 0.20408 0.12346 0.0
C4055 C 0.83991 0.20037 0.11615 0.0
C4056 C 0.8546 0.21374 0.11481 0.0
C4057 C 0.85373 0.23084 0.12084 0.0
C4058 C 0.83814 0.23462 0.12814 0.0
C4059 C 0.78716 0.23642 0.21359 0.0
C4060 C 0.79761 0.25265 0.22045 0.0
C4061 C 0.78625 0.23068 0.19528 0.0
C4062 C 0.79577 0.24101 0.18338 0.0
C4063 C 0.80695 0.25681 0.19031 0.0
C4064 C 0.80779 0.26263 0.20864 0.0
C4065 C 0.79337 0.23551 0.16363 0.0
C4066 C 0.80866 0.23259 0.15511 0.0
C4067 C 0.7758 0.23209 0.15351 0.0
C4068 C 0.7593 0.2361 0.16141 0.0
C4069 C 0.75915 0.25286 0.16943 0.0
C4070 C 0.74374 0.2565 0.17718 0.0
C4071 C 0.7283 0.24353 0.17684 0.0
C4072 C 0.72823 0.2269 0.16872 0.0
C4073 C 0.74364 0.22318 0.16101 0.0
H4074 H 0.71638 0.24637 0.18284 0.0
H4075 H 0.86667 0.21085 0.10915 0.0
H4076 H 0.10682 0.47956 0.31989 0.0
H4077 H 0.12247 0.50398 0.34141 0.0
H4078 H 0.07593 0.52974 0.3325 0.0
H4079 H 0.06026 0.50564 0.31136 0.0
H4080 H 0.11049 0.55286 0.33551 0.0
H4081 H 0.07815 0.50342 0.36615 0.0
H4082 H 0.0748 0.47316 0.37452 0.0
H4083 H 0.13142 0.4821 0.39674 0.0
H4084 H 0.1351 0.51238 0.38831 0.0
H4085 H 0.0583 0.57845 0.39501 0.0
H4086 H 0.08019 0.57435 0.37385 0.0
H4087 H 0.1192 0.56604 0.41787 0.0
H4088 H 0.09689 0.5691 0.43903 0.0
H4089 H 0.10919 0.53779 0.39892 0.0
H4090 H 0.13506 0.59068 0.38175 0.0
H4091 H 0.14127 0.62085 0.37338 0.0
H4092 H 0.10155 0.60738 0.32649 0.0
H4093 H 0.0949 0.5772 0.33462 0.0
C4094 C 0.10003 0.49053 0.32243 0.0
C4095 C 0.0823 0.49064 0.3139 0.0
C4096 C 0.10904 0.50449 0.33459 0.0
C4097 C 0.10041 0.51871 0.33837 0.0
C4098 C 0.08294 0.519 0.32956 0.0
C4099 C 0.07389 0.50507 0.31762 0.0
C4100 C 0.10795 0.53227 0.35324 0.0
C4101 C 0.11044 0.54977 0.34946 0.0
C4102 C 0.10919 0.52817 0.37142 0.0
C4103 C 0.10697 0.51001 0.37638 0.0
C4104 C 0.0899 0.49886 0.3727 0.0
C4105 C 0.08794 0.48174 0.37747 0.0
C4106 C 0.10291 0.47569 0.38609 0.0
C4107 C 0.11986 0.48678 0.39 0.0
C4108 C 0.12189 0.50391 0.38522 0.0
C4109 C 0.07177 0.57632 0.40029 0.0
C4110 C 0.07548 0.5733 0.41857 0.0
C4111 C 0.08451 0.57428 0.38817 0.0
C4112 C 0.10126 0.56934 0.39415 0.0
C4113 C 0.10624 0.5695 0.41287 0.0
C4114 C 0.09339 0.5713 0.42501 0.0
C4115 C 0.10969 0.55864 0.38121 0.0
C4116 C 0.11031 0.54143 0.38523 0.0
C4117 C 0.11158 0.56315 0.36332 0.0
C4118 C 0.11446 0.58158 0.35887 0.0
C4119 C 0.12744 0.59417 0.36978 0.0
C4120 C 0.13109 0.6113 0.36504 0.0
C4121 C 0.12177 0.61604 0.34945 0.0
C4122 C 0.10873 0.6037 0.3386 0.0
C4123 C 0.10507 0.58655 0.34324 0.0
H4124 H 0.12472 0.62927 0.34573 0.0
H4125 H 0.10137 0.46243 0.38979 0.0
H4126 H 0.76392 0.84523 0.57752 0.0
H4127 H 0.76567 0.83087 0.60574 0.0
H4128 H 0.78491 0.88056 0.63591 0.0
H4129 H 0.78367 0.89487 0.60758 0.0
H4130 H 0.80233 0.85988 0.65234 0.0
H4131 H 0.73782 0.85302 0.63395 0.0
H4132 H 0.70905 0.84434 0.61349 0.0
H4133 H 0.71708 0.79124 0.61054 0.0
H4134 H 0.74602 0.79964 0.63082 0.0
H4135 H 0.79003 0.82742 0.73994 0.0
H4136 H 0.78785 0.84245 0.71208 0.0
H4137 H 0.77062 0.79315 0.68069 0.0
H4138 H 0.7725 0.77817 0.70845 0.0
H4139 H 0.75201 0.81398 0.6652 0.0
H4140 H 0.81657 0.82099 0.68365 0.0
H4141 H 0.84512 0.82971 0.70442 0.0
H4142 H 0.83671 0.88269 0.70755 0.0
H4143 H 0.80797 0.87424 0.68697 0.0
C4144 C 0.76851 0.85322 0.59012 0.0
C4145 C 0.77354 0.87145 0.58981 0.0
C4146 C 0.76938 0.84489 0.60655 0.0
C4147 C 0.7751 0.85433 0.62369 0.0
C4148 C 0.78037 0.87256 0.62332 0.0
C4149 C 0.77958 0.88088 0.60687 0.0
C4150 C 0.77576 0.84539 0.64172 0.0
C4151 C 0.79109 0.85004 0.65508 0.0
C4152 C 0.76154 0.83209 0.64592 0.0
C4153 C 0.74417 0.82699 0.63375 0.0
C4154 C 0.73351 0.83951 0.62884 0.0
C4155 C 0.71716 0.83464 0.61729 0.0
C4156 C 0.71127 0.81726 0.61068 0.0
C4157 C 0.72168 0.80471 0.61564 0.0
C4158 C 0.73805 0.80951 0.62718 0.0
C4159 C 0.78565 0.81968 0.72717 0.0
C4160 C 0.78144 0.80132 0.72694 0.0
C4161 C 0.78457 0.8284 0.71096 0.0
C4162 C 0.77933 0.81924 0.6936 0.0
C4163 C 0.77475 0.80093 0.69347 0.0
C4164 C 0.77586 0.79223 0.70963 0.0
C4165 C 0.77857 0.82846 0.67577 0.0
C4166 C 0.76322 0.82385 0.66245 0.0
C4167 C 0.79274 0.84182 0.67163 0.0
C4168 C 0.81003 0.84695 0.68393 0.0
C4169 C 0.82075 0.83448 0.68887 0.0
C4170 C 0.83698 0.83937 0.70059 0.0
C4171 C 0.8427 0.85674 0.70734 0.0
C4172 C 0.83224 0.86925 0.70234 0.0
C4173 C 0.81599 0.86441 0.69064 0.0
H4174 H 0.85526 0.8605 0.71642 0.0
H4175 H 0.69861 0.81352 0.60174 0.0
H4176 H 0.76974 0.42673 0.55103 0.0
H4177 H 0.74553 0.44406 0.55249 0.0
H4178 H 0.70533 0.3997 0.52959 0.0
H4179 H 0.72962 0.38214 0.52816 0.0
H4180 H 0.70252 0.43017 0.51255 0.0
H4181 H 0.70617 0.41231 0.57278 0.0
H4182 H 0.72162 0.40776 0.60249 0.0
H4183 H 0.74119 0.4627 0.61279 0.0
H4184 H 0.72607 0.46757 0.58301 0.0
H4185 H 0.62688 0.47212 0.52759 0.0
H4186 H 0.64861 0.45212 0.52642 0.0
H4187 H 0.69145 0.49189 0.55418 0.0
H4188 H 0.66977 0.51209 0.55527 0.0
H4189 H 0.69127 0.46182 0.56909 0.0
H4190 H 0.69489 0.47899 0.50788 0.0
H4191 H 0.6832 0.48456 0.47702 0.0
H4192 H 0.65163 0.43288 0.46886 0.0
H4193 H 0.66366 0.42685 0.49949 0.0
C4194 C 0.75574 0.42059 0.54642 0.0
C4195 C 0.75159 0.40306 0.53946 0.0
C4196 C 0.7419 0.43051 0.54734 0.0
C4197 C 0.72362 0.42314 0.54128 0.0
C4198 C 0.71936 0.40561 0.53439 0.0
C4199 C 0.73322 0.39559 0.53363 0.0
C4200 C 0.70919 0.43408 0.5415 0.0
C4201 C 0.69977 0.4368 0.52496 0.0
C4202 C 0.70605 0.44316 0.55762 0.0
C4203 C 0.71509 0.44029 0.57559 0.0
C4204 C 0.71388 0.42341 0.58131 0.0
C4205 C 0.72256 0.42078 0.59818 0.0
C4206 C 0.73241 0.43492 0.6095 0.0
C4207 C 0.73356 0.45175 0.604 0.0
C4208 C 0.72492 0.45446 0.58713 0.0
C4209 C 0.641 0.47675 0.53318 0.0
C4210 C 0.64658 0.49377 0.54148 0.0
C4211 C 0.65343 0.46526 0.53249 0.0
C4212 C 0.67173 0.47053 0.54004 0.0
C4213 C 0.67739 0.48752 0.54827 0.0
C4214 C 0.66496 0.49904 0.54895 0.0
C4215 C 0.68475 0.45807 0.5401 0.0
C4216 C 0.69388 0.45505 0.5567 0.0
C4217 C 0.6878 0.44885 0.52404 0.0
C4218 C 0.67999 0.45255 0.50597 0.0
C4219 C 0.68538 0.46886 0.49951 0.0
C4220 C 0.67883 0.47205 0.48202 0.0
C4221 C 0.66658 0.45912 0.47102 0.0
C4222 C 0.66107 0.4429 0.47741 0.0
C4223 C 0.66787 0.43954 0.49477 0.0
H4224 H 0.66138 0.46168 0.45755 0.0
H4225 H 0.73912 0.43285 0.62255 0.0
H4226 H 0.25844 0.10417 0.53569 0.0
H4227 H 0.22742 0.08891 0.53785 0.0
H4228 H 0.20635 0.11769 0.49556 0.0
H4229 H 0.23732 0.13406 0.49464 0.0
H4230 H 0.18156 0.1139 0.51391 0.0
H4231 H 0.21202 0.06883 0.49316 0.0
H4232 H 0.23573 0.05035 0.49278 0.0
H4233 H 0.22389 0.03377 0.54476 0.0
H4234 H 0.20024 0.05232 0.54553 0.0
H4235 H 0.09618 0.05211 0.49446 0.0
H4236 H 0.12749 0.06759 0.49328 0.0
H4237 H 0.14222 0.0574 0.54839 0.0
H4238 H 0.11065 0.04229 0.54985 0.0
H4239 H 0.16938 0.05115 0.52342 0.0
H4240 H 0.13621 0.09658 0.5407 0.0
H4241 H 0.11091 0.11313 0.53668 0.0
H4242 H 0.12671 0.1268 0.48495 0.0
H4243 H 0.15195 0.11009 0.48854 0.0
C4244 C 0.24724 0.10722 0.52673 0.0
C4245 C 0.25073 0.12038 0.51484 0.0
C4246 C 0.22924 0.09823 0.52783 0.0
C4247 C 0.21388 0.10139 0.5165 0.0
C4248 C 0.21747 0.1146 0.50458 0.0
C4249 C 0.23542 0.12401 0.50393 0.0
C4250 C 0.1943 0.09135 0.51732 0.0
C4251 C 0.17914 0.10012 0.51571 0.0
C4252 C 0.19028 0.07322 0.51986 0.0
C4253 C 0.20451 0.06211 0.51949 0.0
C4254 C 0.21456 0.06133 0.50456 0.0
C4255 C 0.22798 0.05083 0.50427 0.0
C4256 C 0.23135 0.04093 0.51876 0.0
C4257 C 0.22128 0.04147 0.53356 0.0
C4258 C 0.20786 0.05196 0.53392 0.0
C4259 C 0.10602 0.05305 0.50639 0.0
C4260 C 0.10056 0.04572 0.52226 0.0
C4261 C 0.12407 0.06205 0.5057 0.0
C4262 C 0.13761 0.06387 0.52073 0.0
C4263 C 0.13231 0.0563 0.53651 0.0
C4264 C 0.1141 0.04761 0.53734 0.0
C4265 C 0.15704 0.07376 0.51999 0.0
C4266 C 0.17205 0.06494 0.5216 0.0
C4267 C 0.16083 0.09165 0.51683 0.0
C4268 C 0.14587 0.10195 0.51482 0.0
C4269 C 0.13421 0.10301 0.52841 0.0
C4270 C 0.11989 0.11243 0.52622 0.0
C4271 C 0.11717 0.12097 0.51055 0.0
C4272 C 0.12882 0.12016 0.49707 0.0
C4273 C 0.14314 0.11073 0.49919 0.0
H4274 H 0.10606 0.12824 0.50886 0.0
H4275 H 0.24175 0.03281 0.51851 0.0
H4276 H 0.22712 0.98185 0.84701 0.0
H4277 H 0.24939 0.96231 0.84828 0.0
H4278 H 0.2901 1.00254 0.83207 0.0
H4279 H 0.26781 0.02219 0.83065 0.0
H4280 H 0.28404 0.97351 0.80926 0.0
H4281 H 0.29687 0.98651 0.87317 0.0
H4282 H 0.28967 0.99075 0.90455 0.0
H4283 H 0.26299 0.93741 0.90185 0.0
H4284 H 0.26978 0.9329 0.87036 0.0
H4285 H 0.33745 0.90885 0.79669 0.0
H4286 H 0.33019 0.9359 0.81023 0.0
H4287 H 0.28505 0.90641 0.83312 0.0
H4288 H 0.29247 0.87948 0.82003 0.0
H4289 H 0.2996 0.93393 0.85541 0.0
H4290 H 0.27939 0.92268 0.79137 0.0
H4291 H 0.28324 0.91721 0.75912 0.0
H4292 H 0.32002 0.96605 0.76133 0.0
H4293 H 0.31658 0.97167 0.79369 0.0
C4294 C 0.24096 0.98672 0.8442 0.0
C4295 C 0.24564 1.00348 0.8385 0.0
C4296 C 0.25373 0.97555 0.84505 0.0
C4297 C 0.27142 0.98098 0.84028 0.0
C4298 C 0.27652 0.99812 0.83583 0.0
C4299 C 0.26377 0.00933 0.83504 0.0
C4300 C 0.28334 0.96797 0.83714 0.0
C4301 C 0.28794 0.96519 0.81951 0.0
C4302 C 0.28785 0.95676 0.85036 0.0
C4303 C 0.28377 0.9594 0.86934 0.0
C4304 C 0.28935 0.97571 0.87921 0.0
C4305 C 0.28536 0.97816 0.89704 0.0
C4306 C 0.27586 0.96437 0.90518 0.0
C4307 C 0.27036 0.94809 0.89553 0.0
C4308 C 0.2743 0.94557 0.8777 0.0
C4309 C 0.32622 0.90817 0.80492 0.0
C4310 C 0.31545 0.89208 0.8072 0.0
C4311 C 0.32208 0.9236 0.81264 0.0
C4312 C 0.30686 0.9232 0.8224 0.0
C4313 C 0.29687 0.90707 0.82568 0.0
C4314 C 0.30114 0.89166 0.81817 0.0
C4315 C 0.29997 0.93936 0.82748 0.0
C4316 C 0.29621 0.94263 0.84536 0.0
C4317 C 0.29581 0.95086 0.81441 0.0
C4318 C 0.29794 0.94748 0.79499 0.0
C4319 C 0.28842 0.93218 0.78501 0.0
C4320 C 0.29051 0.92906 0.76671 0.0
C4321 C 0.30192 0.94125 0.7582 0.0
C4322 C 0.31123 0.9566 0.76795 0.0
C4323 C 0.30922 0.95975 0.78627 0.0
H4324 H 0.30351 0.93882 0.74402 0.0
H4325 H 0.27279 0.96629 0.91898 0.0
H4326 H 0.36015 0.89648 0.06015 0.0
H4327 H 0.39274 0.91009 0.06653 0.0
H4328 H 0.39087 0.92875 0.01332 0.0
H4329 H 0.35857 0.91557 0.00706 0.0
H4330 H 0.42326 0.91572 0.02367 0.0
H4331 H 0.38441 0.95462 0.04754 0.0
H4332 H 0.36194 0.96201 0.06757 0.0
H4333 H 0.39759 0.95403 0.11411 0.0
H4334 H 0.42016 0.94636 0.09429 0.0
H4335 H 0.47553 0.99315 0.01107 0.0
H4336 H 0.45013 0.97148 0.01727 0.0
H4337 H 0.47748 0.96773 0.07033 0.0
H4338 H 0.50343 0.98968 0.06421 0.0
H4339 H 0.43719 0.96792 0.06774 0.0
H4340 H 0.47963 0.9368 0.04354 0.0
H4341 H 0.5023 0.93103 0.02306 0.0
H4342 H 0.46075 0.92412 0.97754 0.0
H4343 H 0.43789 0.93022 0.99768 0.0
C4344 C 0.36685 0.90321 0.04974 0.0
C4345 C 0.35683 0.90506 0.03315 0.0
C4346 C 0.3854 0.91102 0.05341 0.0
C4347 C 0.39419 0.92048 0.04041 0.0
C4348 C 0.3844 0.92148 0.02353 0.0
C4349 C 0.36591 0.91401 0.02 0.0
C4350 C 0.41308 0.93061 0.04446 0.0
C4351 C 0.42641 0.92701 0.03344 0.0
C4352 C 0.41737 0.94506 0.05759 0.0
C4353 C 0.40383 0.94969 0.06945 0.0
C4354 C 0.38737 0.95429 0.06203 0.0
C4355 C 0.37464 0.95856 0.07334 0.0
C4356 C 0.3783 0.95843 0.0921 0.0
C4357 C 0.39474 0.95407 0.09958 0.0
C4358 C 0.40751 0.94977 0.08832 0.0
C4359 C 0.47624 0.98793 0.02418 0.0
C4360 C 0.49174 0.99303 0.03704 0.0
C4361 C 0.46164 0.97547 0.02767 0.0
C4362 C 0.46208 0.96777 0.0441 0.0
C4363 C 0.47698 0.97345 0.05749 0.0
C4364 C 0.49178 0.98598 0.05395 0.0
C4365 C 0.44706 0.95335 0.04647 0.0
C4366 C 0.4344 0.95621 0.05854 0.0
C4367 C 0.44343 0.93812 0.03438 0.0
C4368 C 0.45702 0.93403 0.02216 0.0
C4369 C 0.47533 0.93415 0.02915 0.0
C4370 C 0.48823 0.93082 0.0176 0.0
C4371 C 0.48297 0.92721 0.99901 0.0
C4372 C 0.4648 0.9269 0.99195 0.0
C4373 C 0.45185 0.93028 0.00344 0.0
H4374 H 0.49299 0.92465 0.9901 0.0
H4375 H 0.36843 0.96174 0.10084 0.0
H4376 H 0.91923 0.58698 0.8017 0.0
H4377 H 0.89349 0.60252 0.79757 0.0
H4378 H 0.92569 0.64022 0.76863 0.0
H4379 H 0.95171 0.62508 0.77332 0.0
H4380 H 0.90455 0.65576 0.78791 0.0
H4381 H 0.89559 0.6048 0.74627 0.0
H4382 H 0.89323 0.57356 0.73717 0.0
H4383 H 0.84778 0.56153 0.76804 0.0
H4384 H 0.85004 0.5927 0.77753 0.0
H4385 H 0.83278 0.68518 0.73663 0.0
H4386 H 0.85818 0.66976 0.74372 0.0
H4387 H 0.82637 0.63898 0.77918 0.0
H4388 H 0.80074 0.65427 0.77198 0.0
H4389 H 0.84673 0.61995 0.75741 0.0
H4390 H 0.85512 0.67253 0.79672 0.0
H4391 H 0.85741 0.70413 0.8034 0.0
H4392 H 0.90447 0.71356 0.77429 0.0
H4393 H 0.90222 0.682 0.7671 0.0
C4394 C 0.92093 0.59878 0.79477 0.0
C4395 C 0.93739 0.60472 0.78766 0.0
C4396 C 0.90619 0.60758 0.79232 0.0
C4397 C 0.9075 0.62225 0.78235 0.0
C4398 C 0.92432 0.62886 0.77626 0.0
C4399 C 0.93919 0.6202 0.77896 0.0
C4400 C 0.89106 0.63001 0.77725 0.0
C4401 C 0.89198 0.64795 0.78109 0.0
C4402 C 0.87456 0.61979 0.76851 0.0
C4403 C 0.87311 0.60106 0.76276 0.0
C4404 C 0.88517 0.59548 0.75122 0.0
C4405 C 0.88385 0.57779 0.74598 0.0
C4406 C 0.8704 0.56556 0.75207 0.0
C4407 C 0.85821 0.57101 0.76337 0.0
C4408 C 0.8595 0.58869 0.76867 0.0
C4409 C 0.83101 0.67483 0.74558 0.0
C4410 C 0.81479 0.67092 0.75377 0.0
C4411 C 0.84558 0.66615 0.74974 0.0
C4412 C 0.84419 0.65343 0.76215 0.0
C4413 C 0.82769 0.64883 0.76963 0.0
C4414 C 0.81313 0.65759 0.76556 0.0
C4415 C 0.86029 0.64561 0.76804 0.0
C4416 C 0.8593 0.6277 0.76431 0.0
C4417 C 0.87678 0.6559 0.77662 0.0
C4418 C 0.87841 0.67489 0.78126 0.0
C4419 C 0.8659 0.68134 0.79166 0.0
C4420 C 0.8672 0.69925 0.79555 0.0
C4421 C 0.88108 0.71085 0.78928 0.0
C4422 C 0.89372 0.70456 0.77914 0.0
C4423 C 0.89244 0.68665 0.77515 0.0
H4424 H 0.88206 0.72471 0.79229 0.0
H4425 H 0.86939 0.55188 0.748 0.0
H4426 H 0.87367 0.63295 0.0038 0.0
H4427 H 0.90152 0.61977 0.00306 0.0
H4428 H 0.88862 0.59342 0.05025 0.0
H4429 H 0.86098 0.60605 0.05075 0.0
H4430 H 0.933 0.61977 0.02216 0.0
H4431 H 0.90521 0.55637 0.05385 0.0
H4432 H 0.87588 0.53652 0.0547 0.0
H4433 H 0.85463 0.55302 0.00424 0.0
H4434 H 0.8839 0.5728 0.00298 0.0
H4435 H 0.01078 0.57827 0.04584 0.0
H4436 H 0.98367 0.59221 0.04512 0.0
H4437 H 0.95226 0.54822 0.01148 0.0
H4438 H 0.97915 0.53396 0.01291 0.0
H4439 H 0.92965 0.55705 0.03022 0.0
H4440 H 0.97017 0.59408 0.99757 0.0
H4441 H 0.9989 0.61304 0.99258 0.0
H4442 H 0.99379 0.64783 0.03808 0.0
H4443 H 0.96511 0.62898 0.04345 0.0
C4444 C 0.87667 0.62429 0.01399 0.0
C4445 C 0.86451 0.62067 0.02724 0.0
C4446 C 0.89284 0.61669 0.01362 0.0
C4447 C 0.89758 0.60502 0.02639 0.0
C4448 C 0.88558 0.60179 0.03978 0.0
C4449 C 0.86954 0.60928 0.04012 0.0
C4450 C 0.91475 0.59623 0.02592 0.0
C4451 C 0.93211 0.60605 0.02398 0.0
C4452 C 0.91428 0.57813 0.02786 0.0
C4453 C 0.89669 0.56619 0.02843 0.0
C4454 C 0.8943 0.55571 0.04291 0.0
C4455 C 0.87768 0.54449 0.04347 0.0
C4456 C 0.86338 0.54355 0.02956 0.0
C4457 C 0.86569 0.5538 0.01503 0.0
C4458 C 0.88229 0.56504 0.0144 0.0
C4459 C 0.99814 0.57147 0.03825 0.0
C4460 C 0.99762 0.55476 0.02943 0.0
C4461 C 0.9824 0.57965 0.03766 0.0
C4462 C 0.96533 0.57178 0.02787 0.0
C4463 C 0.96483 0.555 0.0192 0.0
C4464 C 0.98049 0.54673 0.01998 0.0
C4465 C 0.9481 0.58064 0.0269 0.0
C4466 C 0.93065 0.57081 0.02851 0.0
C4467 C 0.94846 0.59863 0.02427 0.0
C4468 C 0.96559 0.61004 0.021 0.0
C4469 C 0.97523 0.60573 0.00656 0.0
C4470 C 0.99149 0.61646 0.00366 0.0
C4471 C 0.99819 0.6316 0.01503 0.0
C4472 C 0.9886 0.63608 0.02929 0.0
C4473 C 0.97233 0.62539 0.03226 0.0
H4474 H 0.01079 0.63988 0.01277 0.0
H4475 H 0.85053 0.53486 0.03002 0.0
H4476 H 0.23041 0.09186 0.83014 0.0
H4477 H 0.24343 0.12255 0.82827 0.0
H4478 H 0.20202 0.12534 0.78424 0.0
H4479 H 0.1888 0.09495 0.78614 0.0
H4480 H 0.23814 0.13858 0.77754 0.0
H4481 H 0.19772 0.14301 0.82389 0.0
H4482 H 0.18599 0.13666 0.85294 0.0
H4483 H 0.23887 0.15805 0.88149 0.0
H4484 H 0.25099 0.16432 0.85256 0.0
H4485 H 0.24575 0.22782 0.76739 0.0
H4486 H 0.23317 0.19824 0.77373 0.0
H4487 H 0.2743 0.20179 0.81959 0.0
H4488 H 0.287 0.23141 0.81341 0.0
H4489 H 0.24042 0.18513 0.82674 0.0
H4490 H 0.28081 0.18244 0.78176 0.0
H4491 H 0.29394 0.18832 0.75329 0.0
H4492 H 0.24362 0.16237 0.72276 0.0
H4493 H 0.22992 0.15694 0.75102 0.0
C4494 C 0.22405 0.09903 0.82011 0.0
C4495 C 0.20859 0.09093 0.80826 0.0
C4496 C 0.23147 0.11656 0.8191 0.0
C4497 C 0.22363 0.12617 0.80615 0.0
C4498 C 0.20825 0.11812 0.79432 0.0
C4499 C 0.20071 0.10074 0.79546 0.0
C4500 C 0.23163 0.14453 0.80447 0.0
C4501 C 0.23846 0.14881 0.7882 0.0
C4502 C 0.2326 0.15769 0.81867 0.0
C4503 C 0.22532 0.15394 0.83605 0.0
C4504 C 0.2069 0.14621 0.83635 0.0
C4505 C 0.20016 0.14266 0.8528 0.0
C4506 C 0.21169 0.1469 0.86905 0.0
C4507 C 0.22996 0.15475 0.86889 0.0
C4508 C 0.23677 0.15831 0.85248 0.0
C4509 C 0.25201 0.22241 0.77895 0.0
C4510 C 0.26751 0.23191 0.78977 0.0
C4511 C 0.24483 0.20549 0.78252 0.0
C4512 C 0.25298 0.19777 0.79697 0.0
C4513 C 0.26786 0.2075 0.80834 0.0
C4514 C 0.27513 0.22441 0.80473 0.0
C4515 C 0.24653 0.17925 0.7996 0.0
C4516 C 0.24012 0.17492 0.81607 0.0
C4517 C 0.24615 0.16596 0.78564 0.0
C4518 C 0.25424 0.1695 0.76855 0.0
C4519 C 0.27242 0.17824 0.76898 0.0
C4520 C 0.27998 0.1815 0.75286 0.0
C4521 C 0.26958 0.17585 0.73621 0.0
C4522 C 0.25161 0.16691 0.73565 0.0
C4523 C 0.24393 0.16377 0.75172 0.0
H4524 H 0.27551 0.17831 0.72377 0.0
H4525 H 0.20645 0.14414 0.88177 0.0
H4526 H 0.43474 0.01387 0.29453 0.0
H4527 H 0.4176 0.98503 0.29804 0.0
H4528 H 0.46205 0.96155 0.28085 0.0
H4529 H 0.47947 0.99031 0.27762 0.0
H4530 H 0.42758 0.94733 0.26192 0.0
H4531 H 0.45566 0.96079 0.32294 0.0
H4532 H 0.46464 0.9789 0.35185 0.0
H4533 H 0.40799 0.97775 0.35893 0.0
H4534 H 0.39864 0.95979 0.32994 0.0
H4535 H 0.38495 0.8621 0.27775 0.0
H4536 H 0.40756 0.88887 0.27881 0.0
H4537 H 0.36975 0.91806 0.30141 0.0
H4538 H 0.34741 0.89135 0.30099 0.0
H4539 H 0.40364 0.9283 0.31847 0.0
H4540 H 0.37549 0.91761 0.25675 0.0
H4541 H 0.3658 0.90066 0.22724 0.0
H4542 H 0.42189 0.89777 0.22092 0.0
H4543 H 0.43189 0.9145 0.25054 0.0
C4544 C 0.44098 1.0026 0.29167 0.0
C4545 C 0.45838 0.00438 0.28553 0.0
C4546 C 0.43117 0.98614 0.29373 0.0
C4547 C 0.43859 0.97122 0.28966 0.0
C4548 C 0.4561 0.97294 0.28396 0.0
C4549 C 0.46599 0.98939 0.28208 0.0
C4550 C 0.42762 0.95378 0.29047 0.0
C4551 C 0.42262 0.94298 0.27434 0.0
C4552 C 0.42089 0.9484 0.30662 0.0
C4553 C 0.42645 0.95904 0.32418 0.0
C4554 C 0.44511 0.9645 0.33059 0.0
C4555 C 0.45027 0.97473 0.347 0.0
C4556 C 0.4369 0.97953 0.35718 0.0
C4557 C 0.41833 0.97404 0.35101 0.0
C4558 C 0.41309 0.96381 0.3346 0.0
C4559 C 0.38153 0.8742 0.28308 0.0
C4560 C 0.36432 0.87464 0.28911 0.0
C4561 C 0.39441 0.88949 0.28358 0.0
C4562 C 0.39025 0.90547 0.29003 0.0
C4563 C 0.37323 0.90587 0.29635 0.0
C4564 C 0.36039 0.89063 0.29589 0.0
C4565 C 0.4034 0.92189 0.28984 0.0
C4566 C 0.40879 0.93252 0.30609 0.0
C4567 C 0.4104 0.9272 0.27375 0.0
C4568 C 0.40441 0.91711 0.25596 0.0
C4569 C 0.38574 0.91322 0.24914 0.0
C4570 C 0.38019 0.90368 0.23238 0.0
C4571 C 0.39321 0.89809 0.22224 0.0
C4572 C 0.41181 0.90207 0.22882 0.0
C4573 C 0.41743 0.91158 0.24559 0.0
H4574 H 0.38889 0.89072 0.20926 0.0
H4575 H 0.44093 0.98746 0.36987 0.0
H4576 H 0.54653 0.37914 0.63101 0.0
H4577 H 0.53698 0.39811 0.60831 0.0
H4578 H 0.56863 0.37607 0.57043 0.0
H4579 H 0.57788 0.3568 0.59278 0.0
H4580 H 0.57655 0.41506 0.58155 0.0
H4581 H 0.52882 0.36667 0.5581 0.0
H4582 H 0.50239 0.34366 0.56055 0.0
H4583 H 0.47167 0.38208 0.57824 0.0
H4584 H 0.49804 0.40532 0.57616 0.0
H4585 H 0.56195 0.46949 0.51375 0.0
H4586 H 0.56378 0.44236 0.52771 0.0
H4587 H 0.51593 0.44778 0.55434 0.0
H4588 H 0.51339 0.47429 0.53934 0.0
H4589 H 0.51569 0.41538 0.54776 0.0
H4590 H 0.5616 0.4633 0.574 0.0
H4591 H 0.58787 0.48744 0.57569 0.0
H4592 H 0.62175 0.45194 0.5578 0.0
H4593 H 0.59557 0.42768 0.55551 0.0
C4594 C 0.55119 0.37815 0.61774 0.0
C4595 C 0.56304 0.36661 0.61368 0.0
C4596 C 0.54565 0.38889 0.6048 0.0
C4597 C 0.55207 0.38834 0.58777 0.0
C4598 C 0.56346 0.37651 0.5835 0.0
C4599 C 0.56874 0.36557 0.59629 0.0
C4600 C 0.54877 0.40155 0.57526 0.0
C4601 C 0.56336 0.41503 0.57385 0.0
C4602 C 0.53135 0.40168 0.56593 0.0
C4603 C 0.51548 0.38772 0.56717 0.0
C4604 C 0.51651 0.37021 0.5627 0.0
C4605 C 0.50152 0.35712 0.56398 0.0
C4606 C 0.48538 0.3614 0.5696 0.0
C4607 C 0.48419 0.37878 0.57391 0.0
C4608 C 0.49915 0.39192 0.57267 0.0
C4609 C 0.5516 0.46461 0.52225 0.0
C4610 C 0.53763 0.47393 0.52566 0.0
C4611 C 0.5527 0.4492 0.53031 0.0
C4612 C 0.54035 0.44334 0.54255 0.0
C4613 C 0.52569 0.45209 0.54504 0.0
C4614 C 0.52424 0.46723 0.5365 0.0
C4615 C 0.54358 0.42903 0.55386 0.0
C4616 C 0.52898 0.4154 0.55522 0.0
C4617 C 0.56095 0.42897 0.56361 0.0
C4618 C 0.57655 0.44369 0.5644 0.0
C4619 C 0.57458 0.46068 0.5702 0.0
C4620 C 0.58946 0.47438 0.57127 0.0
C4621 C 0.60644 0.47121 0.56685 0.0
C4622 C 0.60856 0.45438 0.56117 0.0
C4623 C 0.59371 0.44065 0.55995 0.0
H4624 H 0.61801 0.48177 0.56798 0.0
H4625 H 0.47379 0.35125 0.57057 0.0
H4626 H 0.45196 0.71504 0.36557 0.0
H4627 H 0.42285 0.71721 0.34797 0.0
H4628 H 0.45178 0.75317 0.31492 0.0
H4629 H 0.4808 0.751 0.33217 0.0
H4630 H 0.42138 0.76435 0.3292 0.0
H4631 H 0.43694 0.71416 0.29712 0.0
H4632 H 0.44525 0.68499 0.2947 0.0
H4633 H 0.39513 0.66344 0.315 0.0
H4634 H 0.38664 0.69255 0.31778 0.0
H4635 H 0.34747 0.77204 0.26602 0.0
H4636 H 0.37745 0.76618 0.27794 0.0
H4637 H 0.35098 0.72221 0.30325 0.0
H4638 H 0.32113 0.72749 0.29073 0.0
H4639 H 0.38077 0.71488 0.29236 0.0
H4640 H 0.36517 0.76357 0.32619 0.0
H4641 H 0.35623 0.79234 0.33073 0.0
H4642 H 0.40529 0.81631 0.31018 0.0
H4643 H 0.41439 0.78764 0.30524 0.0
C4644 C 0.45211 0.72333 0.3545 0.0
C4645 C 0.46867 0.73283 0.35025 0.0
C4646 C 0.43551 0.72452 0.34445 0.0
C4647 C 0.43527 0.73531 0.33016 0.0
C4648 C 0.45175 0.74477 0.32591 0.0
C4649 C 0.46831 0.74345 0.33576 0.0
C4650 C 0.41781 0.73724 0.3199 0.0
C4651 C 0.41258 0.75362 0.32094 0.0
C4652 C 0.4062 0.72308 0.30959 0.0
C4653 C 0.41125 0.70556 0.30783 0.0
C4654 C 0.42777 0.70323 0.30121 0.0
C4655 C 0.43249 0.6867 0.29975 0.0
C4656 C 0.42075 0.67237 0.30474 0.0
C4657 C 0.40423 0.67455 0.31116 0.0
C4658 C 0.39944 0.69106 0.31267 0.0
C4659 C 0.34808 0.76094 0.27383 0.0
C4660 C 0.33197 0.75033 0.27759 0.0
C4661 C 0.3652 0.75766 0.28073 0.0
C4662 C 0.36644 0.74403 0.29189 0.0
C4663 C 0.35038 0.73284 0.29475 0.0
C4664 C 0.3333 0.7359 0.28758 0.0
C4665 C 0.38426 0.74206 0.30159 0.0
C4666 C 0.38956 0.72567 0.30053 0.0
C4667 C 0.3958 0.75616 0.3122 0.0
C4668 C 0.39037 0.77343 0.31519 0.0
C4669 C 0.37399 0.77496 0.32252 0.0
C4670 C 0.3689 0.79125 0.32518 0.0
C4671 C 0.38019 0.80614 0.32074 0.0
C4672 C 0.39657 0.80477 0.31361 0.0
C4673 C 0.4017 0.7885 0.31088 0.0
H4674 H 0.37627 0.81875 0.32287 0.0
H4675 H 0.42443 0.65959 0.30359 0.0
H4676 H 0.10734 0.77012 0.1655 0.0
H4677 H 0.10717 0.74213 0.14894 0.0
H4678 H 0.08759 0.76191 0.09934 0.0
H4679 H 0.08736 0.78987 0.11584 0.0
H4680 H 0.06815 0.73107 0.10301 0.0
H4681 H 0.1317 0.75488 0.10678 0.0
H4682 H 0.16223 0.7691 0.1214 0.0
H4683 H 0.16424 0.72662 0.15471 0.0
H4684 H 0.13359 0.71225 0.14046 0.0
H4685 H 0.08039 0.65572 0.04907 0.0
H4686 H 0.08397 0.68598 0.06172 0.0
H4687 H 0.09767 0.67035 0.11511 0.0
H4688 H 0.09429 0.64015 0.10255 0.0
H4689 H 0.12108 0.70006 0.10695 0.0
H4690 H 0.05609 0.6776 0.10387 0.0
H4691 H 0.02595 0.66349 0.08819 0.0
H4692 H 0.02745 0.70408 0.05208 0.0
H4693 H 0.05774 0.7183 0.06739 0.0
C4694 C 0.10314 0.76859 0.15102 0.0
C4695 C 0.09732 0.78224 0.14199 0.0
C4696 C 0.10314 0.75259 0.14158 0.0
C4697 C 0.09753 0.74999 0.12288 0.0
C4698 C 0.09197 0.76365 0.11377 0.0
C4699 C 0.09189 0.77964 0.12321 0.0
C4700 C 0.09664 0.73273 0.11306 0.0
C4701 C 0.07983 0.72443 0.10359 0.0
C4702 C 0.1118 0.72397 0.11404 0.0
C4703 C 0.13026 0.73256 0.12265 0.0
C4704 C 0.13858 0.74863 0.11732 0.0
C4705 C 0.15592 0.75671 0.12553 0.0
C4706 C 0.16515 0.74879 0.139 0.0
C4707 C 0.15707 0.73275 0.14427 0.0
C4708 C 0.13972 0.72462 0.13613 0.0
C4709 C 0.08426 0.65879 0.06349 0.0
C4710 C 0.08697 0.64562 0.07487 0.0
C4711 C 0.08622 0.67602 0.07068 0.0
C4712 C 0.09099 0.68032 0.08934 0.0
C4713 C 0.09397 0.66725 0.10068 0.0
C4714 C 0.09188 0.65002 0.09352 0.0
C4715 C 0.09259 0.69842 0.09718 0.0
C4716 C 0.1095 0.70683 0.10625 0.0
C4717 C 0.07758 0.70734 0.09571 0.0
C4718 C 0.05927 0.69891 0.08665 0.0
C4719 C 0.05005 0.68345 0.0925 0.0
C4720 C 0.03293 0.67544 0.08369 0.0
C4721 C 0.02482 0.68285 0.06911 0.0
C4722 C 0.03377 0.69833 0.06335 0.0
C4723 C 0.05091 0.70638 0.0721 0.0
H4724 H 0.01157 0.67662 0.0623 0.0
H4725 H 0.17858 0.75506 0.14534 0.0
H4726 H 0.08632 0.25625 0.90854 0.0
H4727 H 0.11364 0.27218 0.89749 0.0
H4728 H 0.10959 0.23184 0.85417 0.0
H4729 H 0.08206 0.21612 0.86481 0.0
H4730 H 0.14821 0.26755 0.88743 0.0
H4731 H 0.10752 0.24939 0.81609 0.0
H4732 H 0.07524 0.24288 0.80247 0.0
H4733 H 0.05977 0.27335 0.8465 0.0
H4734 H 0.09192 0.27998 0.86039 0.0
H4735 H 0.20261 0.26806 0.8175 0.0
H4736 H 0.18213 0.26469 0.84089 0.0
H4737 H 0.15531 0.30546 0.82064 0.0
H4738 H 0.17534 0.30832 0.7965 0.0
H4739 H 0.13119 0.27893 0.82371 0.0
H4740 H 0.17959 0.31047 0.86305 0.0
H4741 H 0.21137 0.3202 0.87707 0.0
H4742 H 0.21109 0.27092 0.89914 0.0
H4743 H 0.17946 0.26063 0.88477 0.0
C4744 C 0.09162 0.2505 0.89701 0.0
C4745 C 0.08194 0.23511 0.88728 0.0
C4746 C 0.10722 0.25963 0.89074 0.0
C4747 C 0.11329 0.25334 0.87481 0.0
C4748 C 0.10485 0.23701 0.86633 0.0
C4749 C 0.08918 0.22803 0.87242 0.0
C4750 C 0.12655 0.26464 0.86542 0.0
C4751 C 0.14461 0.27019 0.87355 0.0
C4752 C 0.12144 0.26894 0.84771 0.0
C4753 C 0.10211 0.26511 0.8393 0.0
C4754 C 0.09723 0.25474 0.82282 0.0
C4755 C 0.07895 0.25097 0.81509 0.0
C4756 C 0.06545 0.25763 0.82365 0.0
C4757 C 0.07021 0.26811 0.83993 0.0
C4758 C 0.08845 0.27182 0.84777 0.0
C4759 C 0.19234 0.27631 0.818 0.0
C4760 C 0.19029 0.2882 0.80495 0.0
C4761 C 0.18087 0.27462 0.83162 0.0
C4762 C 0.16731 0.28496 0.83266 0.0
C4763 C 0.16575 0.29741 0.82012 0.0
C4764 C 0.17719 0.29904 0.80637 0.0
C4765 C 0.15333 0.28092 0.84521 0.0
C4766 C 0.13495 0.27676 0.83772 0.0
C4767 C 0.15812 0.27859 0.86368 0.0
C4768 C 0.17709 0.28474 0.87273 0.0
C4769 C 0.18631 0.30164 0.87079 0.0
C4770 C 0.20432 0.30726 0.87881 0.0
C4771 C 0.21324 0.29621 0.88903 0.0
C4772 C 0.20415 0.27948 0.89124 0.0
C4773 C 0.18616 0.27374 0.88315 0.0
H4774 H 0.2272 0.30059 0.89521 0.0
H4775 H 0.0513 0.2547 0.81765 0.0
H4776 H 0.53957 0.69511 0.90855 0.0
H4777 H 0.53802 0.6671 0.92165 0.0
H4778 H 0.55876 0.69365 0.97397 0.0
H4779 H 0.56077 0.72176 0.96068 0.0
H4780 H 0.57285 0.66628 0.97379 0.0
H4781 H 0.50964 0.66974 0.95784 0.0
H4782 H 0.48218 0.67304 0.93781 0.0
H4783 H 0.48815 0.62874 0.9032 0.0
H4784 H 0.51576 0.6253 0.92292 0.0
H4785 H 0.55009 0.59061 0.02403 0.0
H4786 H 0.5519 0.61853 0.01055 0.0
H4787 H 0.53598 0.59144 0.9577 0.0
H4788 H 0.53434 0.56343 0.97118 0.0
H4789 H 0.5194 0.6188 0.95802 0.0
H4790 H 0.58184 0.61472 0.9741 0.0
H4791 H 0.61015 0.61189 0.99304 0.0
H4792 H 0.60607 0.65731 0.0269 0.0
H4793 H 0.57755 0.66026 0.00834 0.0
C4794 C 0.54376 0.69517 0.9229 0.0
C4795 C 0.55021 0.71132 0.93328 0.0
C4796 C 0.54271 0.6788 0.9306 0.0
C4797 C 0.54784 0.67742 0.94929 0.0
C4798 C 0.55452 0.6936 0.95963 0.0
C4799 C 0.55562 0.71 0.95191 0.0
C4800 C 0.54653 0.65949 0.95787 0.0
C4801 C 0.5609 0.65615 0.97044 0.0
C4802 C 0.53142 0.64533 0.95363 0.0
C4803 C 0.51487 0.64738 0.94175 0.0
C4804 C 0.50516 0.66078 0.94589 0.0
C4805 C 0.48956 0.66266 0.9346 0.0
C4806 C 0.48346 0.65114 0.91921 0.0
C4807 C 0.49291 0.63768 0.91511 0.0
C4808 C 0.50853 0.63574 0.92634 0.0
C4809 C 0.54691 0.5904 0.00951 0.0
C4810 C 0.54198 0.57414 0.999 0.0
C4811 C 0.5481 0.6067 0.00163 0.0
C4812 C 0.54431 0.60786 0.98271 0.0
C4813 C 0.53908 0.5916 0.97223 0.0
C4814 C 0.53815 0.57528 0.98008 0.0
C4815 C 0.54564 0.62569 0.97404 0.0
C4816 C 0.5313 0.62899 0.96144 0.0
C4817 C 0.56078 0.6398 0.97825 0.0
C4818 C 0.57744 0.63761 0.98992 0.0
C4819 C 0.58683 0.62397 0.98572 0.0
C4820 C 0.60295 0.62238 0.99636 0.0
C4821 C 0.60991 0.63443 0.01113 0.0
C4822 C 0.60066 0.64799 0.01543 0.0
C4823 C 0.58452 0.64963 0.00487 0.0
H4824 H 0.62252 0.63334 0.01918 0.0
H4825 H 0.47138 0.65262 0.9105 0.0
H4826 H 0.10397 0.77924 0.64488 0.0
H4827 H 0.13391 0.77824 0.66135 0.0
H4828 H 0.11134 0.78399 0.71196 0.0
H4829 H 0.0812 0.78427 0.69542 0.0
H4830 H 0.15933 0.79684 0.68152 0.0
H4831 H 0.13517 0.76893 0.74691 0.0
H4832 H 0.10895 0.74931 0.7564 0.0
H4833 H 0.09659 0.72408 0.70253 0.0
H4834 H 0.12285 0.74341 0.69278 0.0
H4835 H 0.23914 0.80575 0.74628 0.0
H4836 H 0.20898 0.80654 0.73021 0.0
H4837 H 0.19508 0.75078 0.72912 0.0
H4838 H 0.22509 0.75 0.74565 0.0
H4839 H 0.16557 0.76168 0.73394 0.0
H4840 H 0.20669 0.77489 0.69005 0.0
H4841 H 0.23353 0.79029 0.67728 0.0
H4842 H 0.21282 0.83809 0.68285 0.0
H4843 H 0.18594 0.82301 0.69584 0.0
C4844 C 0.10528 0.78028 0.65953 0.0
C4845 C 0.08978 0.78178 0.66861 0.0
C4846 C 0.12265 0.77975 0.66908 0.0
C4847 C 0.12543 0.78073 0.68822 0.0
C4848 C 0.10999 0.78267 0.69731 0.0
C4849 C 0.09256 0.78301 0.68774 0.0
C4850 C 0.14429 0.77976 0.69843 0.0
C4851 C 0.16049 0.78917 0.69302 0.0
C4852 C 0.1466 0.76948 0.71333 0.0
C4853 C 0.13085 0.75775 0.71908 0.0
C4854 C 0.12688 0.75917 0.73711 0.0
C4855 C 0.11201 0.7481 0.74253 0.0
C4856 C 0.10107 0.7355 0.73006 0.0
C4857 C 0.10502 0.73389 0.71216 0.0
C4858 C 0.11989 0.74491 0.70667 0.0
C4859 C 0.22973 0.79358 0.74269 0.0
C4860 C 0.23497 0.7778 0.74749 0.0
C4861 C 0.2123 0.79403 0.73324 0.0
C4862 C 0.19929 0.7787 0.72789 0.0
C4863 C 0.20445 0.76294 0.73287 0.0
C4864 C 0.22186 0.76249 0.74241 0.0
C4865 C 0.18051 0.77908 0.71728 0.0
C4866 C 0.16435 0.76949 0.72255 0.0
C4867 C 0.17829 0.78875 0.7019 0.0
C4868 C 0.1944 0.79786 0.69408 0.0
C4869 C 0.20792 0.78871 0.68866 0.0
C4870 C 0.22313 0.79737 0.68137 0.0
C4871 C 0.22491 0.81516 0.67931 0.0
C4872 C 0.21144 0.82432 0.68448 0.0
C4873 C 0.1962 0.81572 0.69179 0.0
H4874 H 0.23669 0.82185 0.67367 0.0
H4875 H 0.08956 0.72696 0.73428 0.0
H4876 H 0.05933 0.34485 0.40397 0.0
H4877 H 0.05722 0.37287 0.4185 0.0
H4878 H 0.04869 0.3497 0.4684 0.0
H4879 H 0.05024 0.32083 0.45341 0.0
H4880 H 0.0285 0.37448 0.46698 0.0
H4881 H 0.09169 0.37821 0.45879 0.0
H4882 H 0.11845 0.37602 0.44239 0.0
H4883 H 0.10273 0.41282 0.4063 0.0
H4884 H 0.07573 0.41506 0.42233 0.0
H4885 H 0.04334 0.45998 0.51645 0.0
H4886 H 0.04489 0.43041 0.50436 0.0
H4887 H 0.05174 0.44874 0.45188 0.0
H4888 H 0.05022 0.47839 0.464 0.0
H4889 H 0.07345 0.42604 0.45627 0.0
H4890 H 0.01 0.42193 0.46433 0.0
H4891 H 0.98344 0.42432 0.48098 0.0
H4892 H 1.00011 0.38862 0.51791 0.0
H4893 H 0.02692 0.38618 0.50162 0.0
C4894 C 0.05711 0.34537 0.41812 0.0
C4895 C 0.05521 0.32989 0.42723 0.0
C4896 C 0.05602 0.36187 0.42663 0.0
C4897 C 0.05326 0.36428 0.44503 0.0
C4898 C 0.05101 0.34883 0.45428 0.0
C4899 C 0.05199 0.33206 0.44563 0.0
C4900 C 0.05267 0.38274 0.45407 0.0
C4901 C 0.03861 0.3856 0.46479 0.0
C4902 C 0.06537 0.39798 0.45134 0.0
C4903 C 0.08159 0.39668 0.44167 0.0
C4904 C 0.09387 0.38575 0.44728 0.0
C4905 C 0.10909 0.38451 0.43806 0.0
C4906 C 0.11226 0.39424 0.42328 0.0
C4907 C 0.10024 0.40527 0.41773 0.0
C4908 C 0.08499 0.40654 0.42689 0.0
C4909 C 0.04512 0.45786 0.50228 0.0
C4910 C 0.04657 0.47213 0.49141 0.0
C4911 C 0.0459 0.44062 0.49522 0.0
C4912 C 0.04822 0.43657 0.47685 0.0
C4913 C 0.0499 0.45089 0.46603 0.0
C4914 C 0.04896 0.46812 0.47306 0.0
C4915 C 0.04923 0.41781 0.46904 0.0
C4916 C 0.06337 0.41491 0.45852 0.0
C4917 C 0.03665 0.40258 0.47203 0.0
C4918 C 0.02058 0.40402 0.48187 0.0
C4919 C 0.00808 0.41469 0.47609 0.0
C4920 C 0.99297 0.41604 0.48545 0.0
C4921 C 0.99011 0.40667 0.50052 0.0
C4922 C 1.00235 0.39589 0.50625 0.0
C4923 C 0.0175 0.39452 0.49695 0.0
H4924 H 0.9784 0.40772 0.50774 0.0
H4925 H 0.12406 0.39326 0.41616 0.0
H4926 H 0.47236 0.29461 0.16602 0.0
H4927 H 0.44406 0.29561 0.18047 0.0
H4928 H 0.44864 0.24705 0.20284 0.0
H4929 H 0.4764 0.24596 0.18856 0.0
H4930 H 0.41426 0.24534 0.19393 0.0
H4931 H 0.45883 0.29046 0.2282 0.0
H4932 H 0.48172 0.31754 0.23279 0.0
H4933 H 0.44126 0.34614 0.2113 0.0
H4934 H 0.41818 0.31917 0.20638 0.0
H4935 H 0.34549 0.2447 0.25537 0.0
H4936 H 0.37352 0.24471 0.24086 0.0
H4937 H 0.37303 0.29755 0.2281 0.0
H4938 H 0.34602 0.29795 0.2442 0.0
H4939 H 0.40524 0.29735 0.23108 0.0
H4940 H 0.36061 0.25223 0.19585 0.0
H4941 H 0.33768 0.22514 0.19112 0.0
H4942 H 0.37778 0.19661 0.21355 0.0
H4943 H 0.40092 0.22355 0.21845 0.0
C4944 C 0.46734 0.28406 0.1739 0.0
C4945 C 0.47723 0.27021 0.17585 0.0
C4946 C 0.45101 0.28469 0.18245 0.0
C4947 C 0.44369 0.27148 0.19329 0.0
C4948 C 0.45341 0.25756 0.1948 0.0
C4949 C 0.46965 0.25699 0.18648 0.0
C4950 C 0.42624 0.27183 0.2031 0.0
C4951 C 0.41251 0.25678 0.20213 0.0
C4952 C 0.42302 0.28658 0.2138 0.0
C4953 C 0.43685 0.30278 0.21673 0.0
C4954 C 0.45486 0.3025 0.22433 0.0
C4955 C 0.46785 0.31783 0.22701 0.0
C4956 C 0.46296 0.33354 0.22229 0.0
C4957 C 0.44504 0.33395 0.21491 0.0
C4958 C 0.43199 0.31866 0.21219 0.0
C4959 C 0.35135 0.2564 0.24957 0.0
C4960 C 0.34305 0.27133 0.25122 0.0
C4961 C 0.36752 0.25635 0.2408 0.0
C4962 C 0.37584 0.27094 0.2323 0.0
C4963 C 0.36752 0.28589 0.23417 0.0
C4964 C 0.35175 0.28613 0.24349 0.0
C4965 C 0.393 0.27086 0.22183 0.0
C4966 C 0.40678 0.28593 0.22274 0.0
C4967 C 0.3962 0.25614 0.21092 0.0
C4968 C 0.38242 0.23991 0.20766 0.0
C4969 C 0.36451 0.24017 0.19979 0.0
C4970 C 0.35149 0.22485 0.19708 0.0
C4971 C 0.35627 0.20917 0.20206 0.0
C4972 C 0.3741 0.20877 0.20971 0.0
C4973 C 0.38718 0.22404 0.21242 0.0
H4974 H 0.34618 0.19733 0.19992 0.0
H4975 H 0.47304 0.34539 0.22438 0.0
H4976 H 0.63343 0.49943 0.34029 0.0
H4977 H 0.61734 0.49304 0.36665 0.0
H4978 H 0.66093 0.52701 0.40096 0.0
H4979 H 0.67763 0.53266 0.37453 0.0
H4980 H 0.64652 0.50095 0.41926 0.0
H4981 H 0.62321 0.54222 0.38311 0.0
H4982 H 0.61106 0.55375 0.35527 0.0
H4983 H 0.5646 0.51221 0.34864 0.0
H4984 H 0.57662 0.50029 0.37632 0.0
H4985 H 0.59508 0.53187 0.48476 0.0
H4986 H 0.61381 0.52758 0.4606 0.0
H4987 H 0.56943 0.49006 0.43172 0.0
H4988 H 0.55021 0.4946 0.45583 0.0
H4989 H 0.58387 0.51515 0.41091 0.0
H4990 H 0.6081 0.47657 0.45153 0.0
H4991 H 0.61997 0.47065 0.48222 0.0
H4992 H 0.66514 0.51284 0.483 0.0
H4993 H 0.65355 0.51905 0.45234 0.0
C4994 C 0.63972 0.50526 0.35353 0.0
C4995 C 0.65655 0.51674 0.35547 0.0
C4996 C 0.63054 0.50162 0.36855 0.0
C4997 C 0.63769 0.50994 0.38566 0.0
C4998 C 0.65513 0.52053 0.38784 0.0
C4999 C 0.6646 0.52381 0.37279 0.0
C5000 C 0.62607 0.50902 0.40067 0.0
C5001 C 0.63284 0.50406 0.41745 0.0
C5002 C 0.60821 0.51313 0.39833 0.0
C5003 C 0.60093 0.52025 0.38166 0.0
C5004 C 0.61048 0.53547 0.37563 0.0
C5005 C 0.6036 0.54209 0.35989 0.0
C5006 C 0.58709 0.53369 0.35016 0.0
C5007 C 0.5774 0.51868 0.35617 0.0
C5008 C 0.58424 0.51199 0.37189 0.0
C5009 C 0.58925 0.5226 0.47335 0.0
C5010 C 0.57108 0.51365 0.47213 0.0
C5011 C 0.60009 0.52004 0.45963 0.0
C5012 C 0.59309 0.50831 0.44454 0.0
C5013 C 0.57507 0.49909 0.44337 0.0
C5014 C 0.56414 0.5017 0.45712 0.0
C5015 C 0.60418 0.50685 0.42937 0.0
C5016 C 0.59736 0.51157 0.41257 0.0
C5017 C 0.6221 0.50298 0.4319 0.0
C5018 C 0.62993 0.4983 0.44965 0.0
C5019 C 0.62061 0.48453 0.45822 0.0
C5020 C 0.62725 0.48117 0.47563 0.0
C5021 C 0.6432 0.49146 0.48459 0.0
C5022 C 0.65273 0.50494 0.47605 0.0
C5023 C 0.6462 0.50832 0.45862 0.0
H5024 H 0.6483 0.4889 0.49808 0.0
H5025 H 0.58179 0.53884 0.33798 0.0
H5026 H 0.27523 0.81848 0.0719 0.0
H5027 H 0.2737 0.80366 0.09985 0.0
H5028 H 0.32055 0.84031 0.12545 0.0
H5029 H 0.32205 0.85527 0.09768 0.0
H5030 H 0.32188 0.80597 0.13367 0.0
H5031 H 0.2797 0.84668 0.13324 0.0
H5032 H 0.25362 0.85944 0.12046 0.0
H5033 H 0.2177 0.81039 0.12041 0.0
H5034 H 0.24364 0.79727 0.13296 0.0
H5035 H 0.28782 0.80773 0.22757 0.0
H5036 H 0.29004 0.8177 0.19746 0.0
H5037 H 0.29283 0.76577 0.17622 0.0
H5038 H 0.2902 0.75548 0.20647 0.0
H5039 H 0.26628 0.80622 0.16508 0.0
H5040 H 0.32467 0.77299 0.14317 0.0
H5041 H 0.35149 0.76183 0.15688 0.0
H5042 H 0.35607 0.79852 0.20331 0.0
H5043 H 0.32946 0.81004 0.18977 0.0
C5044 C 0.28535 0.82325 0.08341 0.0
C5045 C 0.29872 0.83811 0.08257 0.0
C5046 C 0.28442 0.81479 0.09939 0.0
C5047 C 0.29695 0.82093 0.1148 0.0
C5048 C 0.31076 0.83532 0.11374 0.0
C5049 C 0.31155 0.8439 0.09786 0.0
C5050 C 0.29509 0.81305 0.13233 0.0
C5051 C 0.30965 0.80587 0.14044 0.0
C5052 C 0.27923 0.81307 0.14133 0.0
C5053 C 0.26364 0.82095 0.13383 0.0
C5054 C 0.26627 0.83858 0.13036 0.0
C5055 C 0.25151 0.84588 0.12318 0.0
C5056 C 0.23403 0.83571 0.11958 0.0
C5057 C 0.23126 0.81824 0.12318 0.0
C5058 C 0.24598 0.81087 0.13033 0.0
C5059 C 0.28886 0.79833 0.21655 0.0
C5060 C 0.28873 0.78074 0.21951 0.0
C5061 C 0.29007 0.80409 0.19929 0.0
C5062 C 0.29156 0.7925 0.18457 0.0
C5063 C 0.29171 0.77495 0.18741 0.0
C5064 C 0.29018 0.76909 0.2047 0.0
C5065 C 0.29298 0.79899 0.16634 0.0
C5066 C 0.27836 0.80599 0.15813 0.0
C5067 C 0.30882 0.79891 0.15734 0.0
C5068 C 0.32493 0.7922 0.16555 0.0
C5069 C 0.33143 0.77869 0.15629 0.0
C5070 C 0.3466 0.77231 0.16403 0.0
C5071 C 0.35543 0.77941 0.18099 0.0
C5072 C 0.34916 0.79296 0.19022 0.0
C5073 C 0.33402 0.7994 0.18253 0.0
H5074 H 0.36716 0.77445 0.18696 0.0
H5075 H 0.22262 0.84139 0.11403 0.0
H5076 H 0.04529 0.55499 0.82398 0.0
H5077 H 0.05454 0.55197 0.85577 0.0
H5078 H 0.01823 0.58617 0.87164 0.0
H5079 H 0.00843 0.58901 0.83973 0.0
H5080 H 0.05832 0.5875 0.89381 0.0
H5081 H 0.99824 0.55148 0.87129 0.0
H5082 H 0.97837 0.53078 0.84813 0.0
H5083 H 0.01548 0.4946 0.85418 0.0
H5084 H 0.0357 0.51522 0.8772 0.0
H5085 H 0.04136 0.56656 0.9814 0.0
H5086 H 0.04008 0.57416 0.95024 0.0
H5087 H 0.05256 0.52412 0.93317 0.0
H5088 H 0.05305 0.51611 0.96444 0.0
H5089 H 0.02686 0.53074 0.91071 0.0
H5090 H 0.08474 0.56333 0.93563 0.0
H5091 H 0.10695 0.58339 0.95743 0.0
H5092 H 0.07787 0.62504 0.94601 0.0
H5093 H 0.05532 0.60517 0.92432 0.0
C5094 C 0.0396 0.56229 0.83417 0.0
C5095 C 0.0259 0.57206 0.82931 0.0
C5096 C 0.04493 0.56052 0.85233 0.0
C5097 C 0.03692 0.56873 0.86591 0.0
C5098 C 0.02453 0.57977 0.86124 0.0
C5099 C 0.01893 0.58133 0.84303 0.0
C5100 C 0.03957 0.56383 0.88461 0.0
C5101 C 0.05134 0.57522 0.89767 0.0
C5102 C 0.03094 0.54751 0.88927 0.0
C5103 C 0.01856 0.53495 0.87579 0.0
C5104 C 1.00222 0.53917 0.86757 0.0
C5105 C 0.99089 0.52745 0.85449 0.0
C5106 C 0.9957 0.51142 0.84963 0.0
C5107 C 0.01179 0.50704 0.85793 0.0
C5108 C 0.02318 0.51872 0.871 0.0
C5109 C 0.04397 0.55719 0.97105 0.0
C5110 C 0.0474 0.54075 0.97537 0.0
C5111 C 0.04335 0.56161 0.95322 0.0
C5112 C 0.04661 0.54987 0.93937 0.0
C5113 C 0.05008 0.53343 0.94365 0.0
C5114 C 0.05038 0.52887 0.9615 0.0
C5115 C 0.0455 0.55454 0.92035 0.0
C5116 C 0.034 0.54305 0.90706 0.0
C5117 C 0.05467 0.57067 0.91547 0.0
C5118 C 0.06825 0.58271 0.92845 0.0
C5119 C 0.083 0.57674 0.93786 0.0
C5120 C 0.09567 0.58808 0.95019 0.0
C5121 C 0.0938 0.60547 0.95314 0.0
C5122 C 0.07929 0.61156 0.94373 0.0
C5123 C 0.06657 0.60027 0.93139 0.0
H5124 H 0.10362 0.61423 0.96269 0.0
H5125 H 0.98695 0.50239 0.83945 0.0
H5126 H 0.30659 0.20488 0.56633 0.0
H5127 H 0.30394 0.22177 0.59481 0.0
H5128 H 0.30871 0.17687 0.62414 0.0
H5129 H 0.31097 0.16011 0.59605 0.0
H5130 H 0.28441 0.19051 0.63807 0.0
H5131 H 0.3444 0.21639 0.62464 0.0
H5132 H 0.36691 0.23152 0.60635 0.0
H5133 H 0.33849 0.27488 0.60549 0.0
H5134 H 0.31568 0.2599 0.62361 0.0
H5135 H 0.30621 0.23116 0.72929 0.0
H5136 H 0.30796 0.21693 0.69927 0.0
H5137 H 0.29144 0.26062 0.67419 0.0
H5138 H 0.28912 0.27469 0.70422 0.0
H5139 H 0.32053 0.24911 0.65752 0.0
H5140 H 0.26171 0.22441 0.67169 0.0
H5141 H 0.23825 0.20956 0.68911 0.0
H5142 H 0.26363 0.16425 0.68787 0.0
H5143 H 0.28751 0.17897 0.67072 0.0
C5144 C 0.30717 0.1986 0.57884 0.0
C5145 C 0.30907 0.18091 0.57847 0.0
C5146 C 0.30573 0.20838 0.59535 0.0
C5147 C 0.30625 0.20092 0.61222 0.0
C5148 C 0.30815 0.18328 0.61171 0.0
C5149 C 0.30955 0.17359 0.59536 0.0
C5150 C 0.30454 0.21097 0.63033 0.0
C5151 C 0.29262 0.20321 0.64228 0.0
C5152 C 0.31458 0.22794 0.6362 0.0
C5153 C 0.32823 0.23694 0.62529 0.0
C5154 C 0.34288 0.22909 0.62043 0.0
C5155 C 0.3557 0.23765 0.61012 0.0
C5156 C 0.3541 0.25413 0.60471 0.0
C5157 C 0.33969 0.2621 0.60965 0.0
C5158 C 0.32682 0.25359 0.61995 0.0
C5159 C 0.30291 0.23783 0.71745 0.0
C5160 C 0.29746 0.25423 0.71954 0.0
C5161 C 0.30389 0.22958 0.7001 0.0
C5162 C 0.29986 0.23749 0.68401 0.0
C5163 C 0.29472 0.25402 0.68609 0.0
C5164 C 0.29331 0.2621 0.70343 0.0
C5165 C 0.30073 0.22842 0.66526 0.0
C5166 C 0.31243 0.23637 0.65325 0.0
C5167 C 0.29048 0.21162 0.65929 0.0
C5168 C 0.27654 0.20288 0.67009 0.0
C5169 C 0.26246 0.21137 0.67534 0.0
C5170 C 0.24906 0.20296 0.68512 0.0
C5171 C 0.24946 0.18599 0.68959 0.0
C5172 C 0.26334 0.17741 0.68438 0.0
C5173 C 0.27684 0.18579 0.67465 0.0
H5174 H 0.23896 0.17947 0.69702 0.0
H5175 H 0.36404 0.26073 0.59673 0.0
H5176 H 0.69738 0.5332 0.24797 0.0
H5177 H 0.67619 0.5345 0.22093 0.0
H5178 H 0.63615 0.49514 0.23945 0.0
H5179 H 0.65723 0.49371 0.26642 0.0
H5180 H 0.63577 0.49336 0.20103 0.0
H5181 H 0.63452 0.53513 0.25219 0.0
H5182 H 0.64935 0.55834 0.27567 0.0
H5183 H 0.66829 0.59048 0.23451 0.0
H5184 H 0.6537 0.56746 0.21086 0.0
H5185 H 0.55625 0.51478 0.15326 0.0
H5186 H 0.57762 0.50858 0.17829 0.0
H5187 H 0.61679 0.55332 0.16851 0.0
H5188 H 0.59547 0.55975 0.144 0.0
H5189 H 0.61717 0.55137 0.20299 0.0
H5190 H 0.61877 0.51088 0.15172 0.0
H5191 H 0.60519 0.48798 0.12749 0.0
H5192 H 0.58715 0.45368 0.16723 0.0
H5193 H 0.6004 0.47649 0.1917 0.0
C5194 C 0.68432 0.52442 0.24597 0.0
C5195 C 0.67878 0.51357 0.25941 0.0
C5196 C 0.67222 0.52521 0.23057 0.0
C5197 C 0.65453 0.51514 0.22845 0.0
C5198 C 0.64972 0.50305 0.24092 0.0
C5199 C 0.66175 0.50231 0.25634 0.0
C5200 C 0.64021 0.51899 0.21489 0.0
C5201 C 0.63157 0.50598 0.20147 0.0
C5202 C 0.63488 0.53549 0.21551 0.0
C5203 C 0.64315 0.54954 0.22977 0.0
C5204 C 0.6419 0.54715 0.24818 0.0
C5205 C 0.65026 0.56028 0.26153 0.0
C5206 C 0.6598 0.5759 0.25663 0.0
C5207 C 0.6609 0.57843 0.23835 0.0
C5208 C 0.65257 0.56536 0.22496 0.0
C5209 C 0.56933 0.52339 0.1567 0.0
C5210 C 0.57418 0.53777 0.14677 0.0
C5211 C 0.58155 0.5198 0.17088 0.0
C5212 C 0.59894 0.53032 0.17504 0.0
C5213 C 0.60346 0.54504 0.16557 0.0
C5214 C 0.59121 0.54875 0.15161 0.0
C5215 C 0.61282 0.52584 0.18878 0.0
C5216 C 0.62131 0.53873 0.20242 0.0
C5217 C 0.61811 0.50927 0.1882 0.0
C5218 C 0.61042 0.49545 0.17353 0.0
C5219 C 0.61182 0.49849 0.15529 0.0
C5220 C 0.60418 0.48552 0.14151 0.0
C5221 C 0.59527 0.4694 0.14582 0.0
C5222 C 0.59403 0.46619 0.16391 0.0
C5223 C 0.60161 0.47912 0.17774 0.0
H5224 H 0.58935 0.45939 0.13513 0.0
H5225 H 0.66632 0.58604 0.26698 0.0
H5226 H 0.29458 0.87598 0.95747 0.0
H5227 H 0.2906 0.86061 0.92757 0.0
H5228 H 0.27641 0.81177 0.95072 0.0
H5229 H 0.28109 0.82724 0.98118 0.0
H5230 H 0.29728 0.80785 0.92454 0.0
H5231 H 0.243 0.83198 0.92796 0.0
H5232 H 0.22462 0.85468 0.93405 0.0
H5233 H 0.24934 0.88462 0.8939 0.0
H5234 H 0.26804 0.8622 0.88772 0.0
H5235 H 0.26773 0.7688 0.83342 0.0
H5236 H 0.26621 0.77878 0.86512 0.0
H5237 H 0.28916 0.83103 0.85474 0.0
H5238 H 0.29084 0.82121 0.82327 0.0
H5239 H 0.25967 0.82961 0.87519 0.0
H5240 H 0.31607 0.80668 0.87448 0.0
H5241 H 0.33415 0.78379 0.86815 0.0
H5242 H 0.30428 0.75102 0.90305 0.0
H5243 H 0.28582 0.77364 0.90938 0.0
C5244 C 0.29056 0.86196 0.95631 0.0
C5245 C 0.28793 0.85288 0.97178 0.0
C5246 C 0.2882 0.85316 0.9391 0.0
C5247 C 0.28267 0.83504 0.93671 0.0
C5248 C 0.28049 0.82579 0.95215 0.0
C5249 C 0.28315 0.83463 0.96955 0.0
C5250 C 0.27937 0.82603 0.91802 0.0
C5251 C 0.28872 0.81238 0.91386 0.0
C5252 C 0.26836 0.83198 0.90389 0.0
C5253 C 0.257 0.84543 0.90745 0.0
C5254 C 0.24459 0.84344 0.92049 0.0
C5255 C 0.2341 0.85626 0.92395 0.0
C5256 C 0.23583 0.87109 0.91439 0.0
C5257 C 0.24801 0.87312 0.9013 0.0
C5258 C 0.25854 0.86035 0.89779 0.0
C5259 C 0.27224 0.78245 0.83785 0.0
C5260 C 0.27945 0.79419 0.82581 0.0
C5261 C 0.27146 0.78811 0.85599 0.0
C5262 C 0.2777 0.80564 0.86235 0.0
C5263 C 0.28429 0.81745 0.85017 0.0
C5264 C 0.28529 0.81179 0.83217 0.0
C5265 C 0.27788 0.81179 0.88173 0.0
C5266 C 0.26794 0.82491 0.88598 0.0
C5267 C 0.28823 0.80528 0.89589 0.0
C5268 C 0.29942 0.79176 0.89223 0.0
C5269 C 0.31325 0.79454 0.88068 0.0
C5270 C 0.32359 0.78162 0.87712 0.0
C5271 C 0.32033 0.76594 0.88515 0.0
C5272 C 0.30676 0.76316 0.89681 0.0
C5273 C 0.29637 0.77602 0.9004 0.0
H5274 H 0.32834 0.75596 0.88237 0.0
H5275 H 0.22771 0.881 0.9171 0.0
H5276 H 0.95811 0.54213 0.72054 0.0
H5277 H 0.96612 0.52312 0.69635 0.0
H5278 H 0.02241 0.54936 0.70623 0.0
H5279 H 0.01457 0.56839 0.73045 0.0
H5280 H 0.00983 0.54198 0.66964 0.0
H5281 H 0.00962 0.51249 0.72537 0.0
H5282 H 0.99529 0.50012 0.75111 0.0
H5283 H 0.954 0.46661 0.71436 0.0
H5284 H 0.96808 0.47888 0.68837 0.0
H5285 H 0.06555 0.49427 0.63764 0.0
H5286 H 0.05054 0.50166 0.66349 0.0
H5287 H 0.99912 0.47259 0.6376 0.0
H5288 H 0.01431 0.46395 0.61175 0.0
H5289 H 1.00425 0.47925 0.67963 0.0
H5290 H 1.00376 0.50791 0.62389 0.0
H5291 H 0.01859 0.51886 0.59777 0.0
H5292 H 0.05977 0.55333 0.63372 0.0
H5293 H 0.04525 0.54243 0.66008 0.0
C5294 C 0.97213 0.54409 0.71732 0.0
C5295 C 0.98577 0.55666 0.72749 0.0
C5296 C 0.97667 0.53314 0.70359 0.0
C5297 C 0.99489 0.53467 0.69978 0.0
C5298 C 0.00828 0.54794 0.70908 0.0
C5299 C 1.00378 0.55881 0.72288 0.0
C5300 C 1.00034 0.52202 0.68674 0.0
C5301 C 0.00856 0.52829 0.67183 0.0
C5302 C 0.99823 0.50405 0.68934 0.0
C5303 C 0.98977 0.49673 0.70495 0.0
C5304 C 0.9974 0.50259 0.72279 0.0
C5305 C 0.98933 0.49558 0.73742 0.0
C5306 C 0.97368 0.48264 0.73438 0.0
C5307 C 0.9661 0.47666 0.71669 0.0
C5308 C 0.97413 0.48362 0.70201 0.0
C5309 C 0.05133 0.48838 0.63767 0.0
C5310 C 0.04095 0.47921 0.62207 0.0
C5311 C 0.04273 0.49275 0.6526 0.0
C5312 C 0.02367 0.48821 0.65204 0.0
C5313 C 0.01384 0.47644 0.63806 0.0
C5314 C 0.02254 0.47174 0.62319 0.0
C5315 C 0.01406 0.49938 0.66293 0.0
C5316 C 1.00511 0.49288 0.67731 0.0
C5317 C 0.01518 0.51713 0.65973 0.0
C5318 C 0.0235 0.52428 0.64393 0.0
C5319 C 0.01601 0.51779 0.62621 0.0
C5320 C 0.02435 0.52398 0.61137 0.0
C5321 C 0.04016 0.53673 0.61408 0.0
C5322 C 0.04755 0.54343 0.63164 0.0
C5323 C 0.03924 0.53728 0.64654 0.0
H5324 H 0.04665 0.54145 0.60258 0.0
H5325 H 0.96747 0.47717 0.7457 0.0
H5326 H 0.2999 0.15696 0.44288 0.0
H5327 H 0.29861 0.17098 0.4145 0.0
H5328 H 0.31497 0.22118 0.44436 0.0
H5329 H 0.31549 0.20711 0.47288 0.0
H5330 H 0.2932 0.22675 0.41828 0.0
H5331 H 0.34402 0.19691 0.41579 0.0
H5332 H 0.36036 0.17202 0.41651 0.0
H5333 H 0.3234 0.14539 0.37147 0.0
H5334 H 0.3067 0.17004 0.37062 0.0
H5335 H 0.31387 0.27201 0.33895 0.0
H5336 H 0.3159 0.25839 0.36772 0.0
H5337 H 0.29253 0.20856 0.33958 0.0
H5338 H 0.29046 0.22211 0.31088 0.0
H5339 H 0.3184 0.20328 0.36472 0.0
H5340 H 0.26803 0.23384 0.36731 0.0
H5341 H 0.25265 0.25935 0.36634 0.0
H5342 H 0.2902 0.28539 0.41126 0.0
H5343 H 0.30597 0.26011 0.41233 0.0
C5344 C 0.30331 0.17101 0.44354 0.0
C5345 C 0.30793 0.18066 0.46063 0.0
C5346 C 0.30273 0.17917 0.42702 0.0
C5347 C 0.30711 0.19748 0.42656 0.0
C5348 C 0.31153 0.20714 0.4437 0.0
C5349 C 0.31191 0.19897 0.46026 0.0
C5350 C 0.30688 0.20644 0.40853 0.0
C5351 C 0.29904 0.22161 0.40678 0.0
C5352 C 0.31402 0.20008 0.39278 0.0
C5353 C 0.324 0.18524 0.39327 0.0
C5354 C 0.3393 0.18569 0.40612 0.0
C5355 C 0.34864 0.17164 0.40654 0.0
C5356 C 0.34289 0.15712 0.39408 0.0
C5357 C 0.32782 0.15664 0.38113 0.0
C5358 C 0.31842 0.17065 0.38067 0.0
C5359 C 0.30925 0.25812 0.33874 0.0
C5360 C 0.30202 0.24838 0.32211 0.0
C5361 C 0.31027 0.25024 0.35546 0.0
C5362 C 0.30418 0.23219 0.35644 0.0
C5363 C 0.29738 0.22242 0.33975 0.0
C5364 C 0.29618 0.2303 0.32309 0.0
C5365 C 0.30478 0.22351 0.37456 0.0
C5366 C 0.31264 0.2084 0.37629 0.0
C5367 C 0.29781 0.23001 0.3903 0.0
C5368 C 0.28829 0.24516 0.38977 0.0
C5369 C 0.27309 0.24506 0.3769 0.0
C5370 C 0.26429 0.25946 0.37634 0.0
C5371 C 0.27047 0.274 0.3887 0.0
C5372 C 0.28544 0.27413 0.40168 0.0
C5373 C 0.29431 0.25976 0.40227 0.0
H5374 H 0.26365 0.28514 0.38825 0.0
H5375 H 0.35014 0.14625 0.39443 0.0
H5376 H 0.34625 0.66244 0.50925 0.0
H5377 H 0.37369 0.6506 0.50311 0.0
H5378 H 0.35497 0.60555 0.53106 0.0
H5379 H 0.32823 0.61748 0.53781 0.0
H5380 H 0.38982 0.61364 0.53848 0.0
H5381 H 0.34773 0.60694 0.48315 0.0
H5382 H 0.32928 0.61736 0.45813 0.0
H5383 H 0.37786 0.64822 0.44302 0.0
H5384 H 0.39652 0.63814 0.46812 0.0
H5385 H 0.42306 0.54334 0.49758 0.0
H5386 H 0.40335 0.5638 0.50617 0.0
H5387 H 0.43816 0.60501 0.48428 0.0
H5388 H 0.45756 0.58447 0.47487 0.0
H5389 H 0.40012 0.60368 0.47416 0.0
H5390 H 0.4423 0.60497 0.52735 0.0
H5391 H 0.45948 0.59208 0.55135 0.0
H5392 H 0.409 0.56879 0.56985 0.0
H5393 H 0.39148 0.58137 0.54577 0.0
C5394 C 0.34816 0.65015 0.51431 0.0
C5395 C 0.33493 0.64086 0.52388 0.0
C5396 C 0.36379 0.64334 0.5107 0.0
C5397 C 0.36626 0.62701 0.51634 0.0
C5398 C 0.35344 0.61816 0.52655 0.0
C5399 C 0.33804 0.62501 0.53034 0.0
C5400 C 0.38148 0.61844 0.51097 0.0
C5401 C 0.39201 0.61144 0.5244 0.0
C5402 C 0.38472 0.61588 0.49264 0.0
C5403 C 0.37348 0.62197 0.47762 0.0
C5404 C 0.35444 0.61605 0.47457 0.0
C5405 C 0.34395 0.62188 0.46037 0.0
C5406 C 0.35239 0.63349 0.44903 0.0
C5407 C 0.37134 0.63926 0.45184 0.0
C5408 C 0.38188 0.6335 0.46605 0.0
C5409 C 0.42632 0.55666 0.49421 0.0
C5410 C 0.44185 0.56228 0.48547 0.0
C5411 C 0.41517 0.56838 0.49933 0.0
C5412 C 0.41939 0.58591 0.49585 0.0
C5413 C 0.43466 0.59151 0.48687 0.0
C5414 C 0.44578 0.5798 0.48169 0.0
C5415 C 0.40777 0.59836 0.5016 0.0
C5416 C 0.39808 0.60614 0.48825 0.0
C5417 C 0.40507 0.60138 0.51995 0.0
C5418 C 0.41557 0.59402 0.53466 0.0
C5419 C 0.43485 0.59701 0.53646 0.0
C5420 C 0.44465 0.58977 0.55011 0.0
C5421 C 0.43534 0.57958 0.56212 0.0
C5422 C 0.4162 0.57668 0.56054 0.0
C5423 C 0.40632 0.58389 0.54691 0.0
H5424 H 0.44292 0.57394 0.57266 0.0
H5425 H 0.34424 0.63798 0.43804 0.0
H5426 H 0.84278 0.9137 0.53168 0.0
H5427 H 0.87524 0.92646 0.53128 0.0
H5428 H 0.8611 0.97767 0.53208 0.0
H5429 H 0.82885 0.96485 0.53134 0.0
H5430 H 0.88417 0.97942 0.51146 0.0
H5431 H 0.88719 0.95751 0.56997 0.0
H5432 H 0.8832 0.93579 0.5924 0.0
H5433 H 0.9171 0.9056 0.56538 0.0
H5434 H 0.92111 0.92703 0.54265 0.0
H5435 H 0.97703 0.02718 0.53475 0.0
H5436 H 0.94519 0.01311 0.53664 0.0
H5437 H 0.95764 0.96406 0.51678 0.0
H5438 H 0.98924 0.97811 0.51437 0.0
H5439 H 0.93638 0.96088 0.5469 0.0
H5440 H 0.93354 0.98492 0.48908 0.0
H5441 H 0.93815 0.00831 0.46855 0.0
H5442 H 0.90403 0.03672 0.49747 0.0
H5443 H 0.89942 0.01359 0.51834 0.0
C5444 C 0.84663 0.9277 0.53212 0.0
C5445 C 0.8329 0.93814 0.53174 0.0
C5446 C 0.86542 0.93514 0.53192 0.0
C5447 C 0.87132 0.95336 0.53183 0.0
C5448 C 0.85751 0.96368 0.53197 0.0
C5449 C 0.83882 0.95626 0.53175 0.0
C5450 C 0.89141 0.96178 0.5309 0.0
C5451 C 0.8954 0.9754 0.51956 0.0
C5452 C 0.90674 0.95673 0.54094 0.0
C5453 C 0.90426 0.94377 0.55449 0.0
C5454 C 0.89367 0.94616 0.56873 0.0
C5455 C 0.89143 0.93392 0.58151 0.0
C5456 C 0.89984 0.91929 0.58028 0.0
C5457 C 0.91056 0.91691 0.56629 0.0
C5458 C 0.91282 0.9291 0.55346 0.0
C5459 C 0.97304 0.01341 0.5307 0.0
C5460 C 0.98599 0.00396 0.52426 0.0
C5461 C 0.95468 0.0053 0.53179 0.0
C5462 C 0.94862 0.98733 0.52686 0.0
C5463 C 0.96164 0.97785 0.52074 0.0
C5464 C 0.97984 0.98601 0.51926 0.0
C5465 C 0.92882 0.97853 0.52779 0.0
C5466 C 0.92498 0.96485 0.539 0.0
C5467 C 0.9136 0.98374 0.51795 0.0
C5468 C 0.91629 0.99761 0.50538 0.0
C5469 C 0.92714 0.99622 0.49115 0.0
C5470 C 0.92973 0.00942 0.47944 0.0
C5471 C 0.92143 0.02401 0.48173 0.0
C5472 C 0.91047 0.02542 0.49572 0.0
C5473 C 0.90786 0.01227 0.50749 0.0
H5474 H 0.92344 0.03422 0.47264 0.0
H5475 H 0.89809 0.90983 0.5902 0.0
H5476 H 0.89328 0.06454 0.25709 0.0
H5477 H 0.8756 0.0862 0.26704 0.0
H5478 H 0.82535 0.05171 0.2458 0.0
H5479 H 0.84302 0.03004 0.23545 0.0
H5480 H 0.82547 0.08317 0.23485 0.0
H5481 H 0.8376 0.06057 0.29182 0.0
H5482 H 0.85637 0.0511 0.31719 0.0
H5483 H 0.88757 0.10279 0.32789 0.0
H5484 H 0.86916 0.11253 0.30241 0.0
H5485 H 0.77248 0.14293 0.26881 0.0
H5486 H 0.78531 0.11631 0.26477 0.0
H5487 H 0.83962 0.14545 0.28153 0.0
H5488 H 0.82687 0.17198 0.28607 0.0
H5489 H 0.83434 0.11428 0.29619 0.0
H5490 H 0.82468 0.1357 0.23725 0.0
H5491 H 0.80634 0.14533 0.21165 0.0
H5492 H 0.77072 0.0956 0.20474 0.0
H5493 H 0.78872 0.08575 0.23047 0.0
C5494 C 0.87846 0.06146 0.25471 0.0
C5495 C 0.86954 0.0456 0.24544 0.0
C5496 C 0.86835 0.07383 0.26051 0.0
C5497 C 0.84913 0.07051 0.25734 0.0
C5498 C 0.84017 0.05452 0.24843 0.0
C5499 C 0.85028 0.04215 0.24255 0.0
C5500 C 0.83856 0.08426 0.26217 0.0
C5501 C 0.8271 0.0897 0.24837 0.0
C5502 C 0.84099 0.09304 0.27971 0.0
C5503 C 0.85207 0.08725 0.29511 0.0
C5504 C 0.84855 0.0699 0.29949 0.0
C5505 C 0.85911 0.06448 0.31391 0.0
C5506 C 0.87318 0.07633 0.32412 0.0
C5507 C 0.87668 0.09363 0.31996 0.0
C5508 C 0.86616 0.09911 0.30555 0.0
C5509 C 0.78712 0.14361 0.27187 0.0
C5510 C 0.79869 0.15957 0.27761 0.0
C5511 C 0.79444 0.12842 0.26945 0.0
C5512 C 0.81343 0.12896 0.27267 0.0
C5513 C 0.82493 0.14476 0.27894 0.0
C5514 C 0.81764 0.15994 0.28134 0.0
C5515 C 0.82151 0.11326 0.26882 0.0
C5516 C 0.83251 0.1075 0.28277 0.0
C5517 C 0.81869 0.10418 0.25142 0.0
C5518 C 0.80791 0.11006 0.23591 0.0
C5519 C 0.81285 0.12687 0.23036 0.0
C5520 C 0.80253 0.13236 0.21581 0.0
C5521 C 0.78734 0.1211 0.20661 0.0
C5522 C 0.78246 0.10431 0.2119 0.0
C5523 C 0.79272 0.09877 0.22646 0.0
H5524 H 0.77937 0.12537 0.19534 0.0
H5525 H 0.88134 0.07211 0.33528 0.0
H5526 H 0.73165 0.119 0.99758 0.0
H5527 H 0.70125 0.10112 0.9952 0.0
H5528 H 0.67777 0.14688 0.00643 0.0
H5529 H 0.70839 0.16496 0.00905 0.0
H5530 H 0.66463 0.12107 0.02623 0.0
H5531 H 0.67134 0.12698 0.96404 0.0
H5532 H 0.68663 0.12661 0.93622 0.0
H5533 H 0.68696 0.07199 0.93826 0.0
H5534 H 0.6719 0.07208 0.96625 0.0
H5535 H 0.5761 0.06094 0.98218 0.0
H5536 H 0.60371 0.08177 0.97875 0.0
H5537 H 0.63273 0.06259 0.02401 0.0
H5538 H 0.6053 0.04167 0.02752 0.0
H5539 H 0.63996 0.07848 0.97349 0.0
H5540 H 0.65612 0.09875 0.05057 0.0
H5541 H 0.63931 0.09996 0.07737 0.0
H5542 H 0.5906 0.10496 0.04349 0.0
H5543 H 0.60721 0.10412 0.01655 0.0
C5544 C 0.72003 0.12532 0.99945 0.0
C5545 C 0.72242 0.14341 0.00351 0.0
C5546 C 0.70263 0.11507 0.99799 0.0
C5547 C 0.68721 0.12268 0.00044 0.0
C5548 C 0.6895 0.14076 0.00444 0.0
C5549 C 0.70697 0.15106 0.00588 0.0
C5550 C 0.66887 0.11154 0.99945 0.0
C5551 C 0.6592 0.11185 0.01465 0.0
C5552 C 0.66159 0.09971 0.9842 0.0
C5553 C 0.67059 0.09957 0.96732 0.0
C5554 C 0.67479 0.11491 0.95863 0.0
C5555 C 0.6834 0.11475 0.94282 0.0
C5556 C 0.6878 0.09929 0.9355 0.0
C5557 C 0.68355 0.08396 0.94395 0.0
C5558 C 0.67496 0.08405 0.95978 0.0
C5559 C 0.58843 0.06096 0.99124 0.0
C5560 C 0.58846 0.0497 0.0052 0.0
C5561 C 0.60419 0.07286 0.98923 0.0
C5562 C 0.62013 0.07385 0.00128 0.0
C5563 C 0.62046 0.06213 0.0147 0.0
C5564 C 0.60479 0.05012 0.01662 0.0
C5565 C 0.63619 0.08764 0.00047 0.0
C5566 C 0.64537 0.08783 0.98497 0.0
C5567 C 0.64284 0.10014 0.01529 0.0
C5568 C 0.63289 0.10121 0.03151 0.0
C5569 C 0.64186 0.10022 0.04885 0.0
C5570 C 0.63236 0.10083 0.06407 0.0
C5571 C 0.61389 0.10248 0.06213 0.0
C5572 C 0.6049 0.10363 0.04497 0.0
C5573 C 0.61435 0.10308 0.02972 0.0
H5574 H 0.60654 0.10289 0.07391 0.0
H5575 H 0.69446 0.09919 0.92326 0.0
H5576 H 0.17384 0.47822 0.30465 0.0
H5577 H 0.19963 0.46357 0.31295 0.0
H5578 H 0.16364 0.41381 0.30265 0.0
H5579 H 0.13777 0.42833 0.29458 0.0
H5580 H 0.18733 0.41491 0.33292 0.0
H5581 H 0.19026 0.42974 0.27108 0.0
H5582 H 0.19214 0.44972 0.24684 0.0
H5583 H 0.24295 0.47839 0.27407 0.0
H5584 H 0.24123 0.45869 0.29861 0.0
H5585 H 0.24015 0.35304 0.30931 0.0
H5586 H 0.21917 0.37348 0.31209 0.0
H5587 H 0.26493 0.41616 0.32098 0.0
H5588 H 0.2861 0.39567 0.31734 0.0
H5589 H 0.23957 0.42265 0.29615 0.0
H5590 H 0.23854 0.40387 0.35573 0.0
H5591 H 0.2363 0.38258 0.3787 0.0
H5592 H 0.18174 0.36024 0.35491 0.0
H5593 H 0.1837 0.38126 0.33174 0.0
C5594 C 0.17139 0.46416 0.30428 0.0
C5595 C 0.1538 0.45441 0.29883 0.0
C5596 C 0.18615 0.45582 0.309 0.0
C5597 C 0.18357 0.4376 0.30823 0.0
C5598 C 0.16591 0.42789 0.30335 0.0
C5599 C 0.15116 0.4362 0.29866 0.0
C5600 C 0.19931 0.42851 0.31166 0.0
C5601 C 0.19876 0.41656 0.32489 0.0
C5602 C 0.21446 0.43106 0.30151 0.0
C5603 C 0.21549 0.4429 0.28678 0.0
C5604 C 0.20175 0.4404 0.27198 0.0
C5605 C 0.2028 0.45165 0.25817 0.0
C5606 C 0.21763 0.46535 0.25895 0.0
C5607 C 0.23145 0.4678 0.27351 0.0
C5608 C 0.23045 0.45659 0.28736 0.0
C5609 C 0.24579 0.36678 0.31188 0.0
C5610 C 0.26477 0.37277 0.31288 0.0
C5611 C 0.23378 0.37844 0.31374 0.0
C5612 C 0.24048 0.39635 0.31699 0.0
C5613 C 0.25948 0.40238 0.31857 0.0
C5614 C 0.27155 0.39067 0.3166 0.0
C5615 C 0.22741 0.40869 0.31714 0.0
C5616 C 0.22842 0.42127 0.30455 0.0
C5617 C 0.21264 0.40664 0.32782 0.0
C5618 C 0.2113 0.39413 0.34196 0.0
C5619 C 0.22609 0.39438 0.35536 0.0
C5620 C 0.22486 0.38235 0.36844 0.0
C5621 C 0.20889 0.37006 0.36828 0.0
C5622 C 0.19409 0.36978 0.35508 0.0
C5623 C 0.19524 0.38178 0.34199 0.0
H5624 H 0.20798 0.36075 0.3784 0.0
H5625 H 0.21842 0.47404 0.24824 0.0
H5626 H 0.23533 0.45212 0.03402 0.0
H5627 H 0.20892 0.46712 0.03331 0.0
H5628 H 0.17232 0.41779 0.02443 0.0
H5629 H 0.19878 0.40277 0.02493 0.0
H5630 H 0.15696 0.43869 0.00472 0.0
H5631 H 0.18144 0.44606 0.06717 0.0
H5632 H 0.20502 0.45458 0.0934 0.0
H5633 H 0.21292 0.50747 0.07954 0.0
H5634 H 0.18954 0.49922 0.05307 0.0
H5635 H 0.07545 0.4734 0.02031 0.0
H5636 H 0.10146 0.45797 0.0211 0.0
H5637 H 0.13874 0.50666 0.03369 0.0
H5638 H 0.11265 0.52203 0.03363 0.0
H5639 H 0.15369 0.48573 0.05151 0.0
H5640 H 0.12938 0.47819 0.98864 0.0
H5641 H 0.10546 0.46958 0.9627 0.0
H5642 H 0.09703 0.41698 0.97744 0.0
H5643 H 0.12079 0.42532 0.00358 0.0
C5644 C 0.2217 0.44435 0.03197 0.0
C5645 C 0.21962 0.42599 0.02964 0.0
C5646 C 0.20635 0.45306 0.03166 0.0
C5647 C 0.18802 0.44391 0.02908 0.0
C5648 C 0.18595 0.42555 0.0265 0.0
C5649 C 0.20131 0.41683 0.02687 0.0
C5650 C 0.17123 0.45332 0.02897 0.0
C5651 C 0.1563 0.44882 0.01517 0.0
C5652 C 0.16982 0.46698 0.04217 0.0
C5653 C 0.18389 0.47198 0.05803 0.0
C5654 C 0.18831 0.45948 0.06964 0.0
C5655 C 0.20162 0.46426 0.08456 0.0
C5656 C 0.2105 0.48154 0.08811 0.0
C5657 C 0.20605 0.49408 0.07676 0.0
C5658 C 0.19277 0.48936 0.0618 0.0
C5659 C 0.08915 0.48096 0.02319 0.0
C5660 C 0.09149 0.49925 0.02678 0.0
C5661 C 0.10431 0.472 0.02349 0.0
C5662 C 0.12275 0.48082 0.02706 0.0
C5663 C 0.12505 0.4991 0.03081 0.0
C5664 C 0.10988 0.50805 0.03069 0.0
C5665 C 0.13943 0.47121 0.02718 0.0
C5666 C 0.15435 0.47566 0.04101 0.0
C5667 C 0.14083 0.45751 0.01399 0.0
C5668 C 0.12674 0.45242 0.99816 0.0
C5669 C 0.12237 0.4648 0.98639 0.0
C5670 C 0.10885 0.45997 0.97165 0.0
C5671 C 0.0997 0.44275 0.96845 0.0
C5672 C 0.10411 0.43031 0.97994 0.0
C5673 C 0.11762 0.43508 0.99471 0.0
H5674 H 0.08921 0.43904 0.95705 0.0
H5675 H 0.22079 0.48522 0.09967 0.0
H5676 H 0.85711 0.95652 0.20659 0.0
H5677 H 0.83951 0.92795 0.21065 0.0
H5678 H 0.88996 0.90881 0.2236 0.0
H5679 H 0.90746 0.93689 0.21818 0.0
H5680 H 0.86757 0.88377 0.20742 0.0
H5681 H 0.86331 0.92491 0.25684 0.0
H5682 H 0.85663 0.95191 0.27161 0.0
H5683 H 0.80012 0.93778 0.24945 0.0
H5684 H 0.80652 0.91079 0.23437 0.0
H5685 H 0.83894 0.82232 0.2689 0.0
H5686 H 0.85206 0.84874 0.25594 0.0
H5687 H 0.79899 0.85178 0.22857 0.0
H5688 H 0.78563 0.82508 0.24134 0.0
H5689 H 0.81996 0.88379 0.24943 0.0
H5690 H 0.82646 0.8403 0.20193 0.0
H5691 H 0.83488 0.81217 0.19252 0.0
H5692 H 0.88993 0.83013 0.21746 0.0
H5693 H 0.8819 0.85851 0.22691 0.0
C5694 C 0.86437 0.94608 0.21003 0.0
C5695 C 0.8836 0.94889 0.21221 0.0
C5696 C 0.85434 0.92981 0.21247 0.0
C5697 C 0.86337 0.91631 0.21796 0.0
C5698 C 0.88261 0.91896 0.21941 0.0
C5699 C 0.89262 0.93504 0.21637 0.0
C5700 C 0.85297 0.89981 0.22323 0.0
C5701 C 0.85722 0.88387 0.21664 0.0
C5702 C 0.83934 0.89974 0.23524 0.0
C5703 C 0.83544 0.91595 0.2443 0.0
C5704 C 0.84949 0.92763 0.25502 0.0
C5705 C 0.84575 0.94292 0.26346 0.0
C5706 C 0.82797 0.94659 0.26142 0.0
C5707 C 0.81389 0.93494 0.25098 0.0
C5708 C 0.81756 0.91965 0.24249 0.0
C5709 C 0.83001 0.82855 0.26012 0.0
C5710 C 0.81124 0.82159 0.25612 0.0
C5711 C 0.83756 0.84361 0.25268 0.0
C5712 C 0.82648 0.85205 0.24124 0.0
C5713 C 0.80771 0.84534 0.23735 0.0
C5714 C 0.80015 0.8301 0.24462 0.0
C5715 C 0.83465 0.86809 0.23364 0.0
C5716 C 0.83006 0.88385 0.23991 0.0
C5717 C 0.84831 0.86803 0.22182 0.0
C5718 C 0.85358 0.85152 0.21508 0.0
C5719 C 0.8404 0.8383 0.20529 0.0
C5720 C 0.84511 0.82233 0.19995 0.0
C5721 C 0.86297 0.81943 0.20433 0.0
C5722 C 0.87618 0.83252 0.21395 0.0
C5723 C 0.87158 0.84858 0.21922 0.0
H5724 H 0.86657 0.80701 0.20032 0.0
H5725 H 0.8251 0.95843 0.26797 0.0
H5726 H 0.61621 0.03841 0.72501 0.0
H5727 H 0.6378 0.06573 0.72564 0.0
H5728 H 0.6831 0.03839 0.73535 0.0
H5729 H 0.66156 0.01122 0.73551 0.0
H5730 H 0.68806 0.06506 0.75818 0.0
H5731 H 0.6724 0.05631 0.69403 0.0
H5732 H 0.65197 0.05048 0.6653 0.0
H5733 H 0.63009 0.09675 0.67721 0.0
H5734 H 0.65021 0.10275 0.70615 0.0
H5735 H 0.75663 0.13809 0.74466 0.0
H5736 H 0.73629 0.10963 0.7409 0.0
H5737 H 0.68938 0.13495 0.74344 0.0
H5738 H 0.70958 0.16335 0.74729 0.0
H5739 H 0.68635 0.1092 0.71358 0.0
H5740 H 0.70202 0.11678 0.77847 0.0
H5741 H 0.72328 0.12234 0.80667 0.0
H5742 H 0.74645 0.07747 0.79201 0.0
H5743 H 0.72549 0.07179 0.76357 0.0
C5744 C 0.63078 0.0382 0.72693 0.0
C5745 C 0.63722 0.02273 0.73027 0.0
C5746 C 0.64313 0.05381 0.72725 0.0
C5747 C 0.66212 0.05413 0.73045 0.0
C5748 C 0.66853 0.03851 0.73296 0.0
C5749 C 0.65621 0.02298 0.73298 0.0
C5750 C 0.67524 0.07084 0.73252 0.0
C5751 C 0.68787 0.07455 0.74822 0.0
C5752 C 0.67479 0.08342 0.71976 0.0
C5753 C 0.66271 0.07989 0.70234 0.0
C5754 C 0.66313 0.06518 0.69059 0.0
C5755 C 0.65162 0.06185 0.67425 0.0
C5756 C 0.63971 0.07321 0.66945 0.0
C5757 C 0.63931 0.08795 0.68096 0.0
C5758 C 0.65078 0.09133 0.69732 0.0
C5759 C 0.74199 0.13753 0.74453 0.0
C5760 C 0.73465 0.15286 0.74638 0.0
C5761 C 0.73042 0.12132 0.74241 0.0
C5762 C 0.71138 0.12027 0.74189 0.0
C5763 C 0.70405 0.13555 0.74379 0.0
C5764 C 0.7156 0.15171 0.74616 0.0
C5765 C 0.69901 0.10324 0.73913 0.0
C5766 C 0.68655 0.09956 0.72337 0.0
C5767 C 0.69974 0.09059 0.7517 0.0
C5768 C 0.71233 0.09398 0.7688 0.0
C5769 C 0.71177 0.1082 0.78117 0.0
C5770 C 0.72374 0.11135 0.79722 0.0
C5771 C 0.73625 0.10029 0.8011 0.0
C5772 C 0.73678 0.08604 0.78897 0.0
C5773 C 0.72485 0.08284 0.77289 0.0
H5774 H 0.7455 0.10275 0.81353 0.0
H5775 H 0.63081 0.07061 0.6568 0.0
loop_
_geom_bond_atom_site_label_1
_geom_bond_atom_site_label_2
_geom_bond_distance
_geom_bond_site_symmetry_2
_ccdc_geom_bond_type
C0 O1 1.306 . S
C0 O3 1.160 . S
O1 C0 1.306 . S
O1 Cd2 2.228 . S
Cd2 O1 2.228 . S
Cd2 O6 2.273 . S
Cd2 O10 2.277 . S
O3 C0 1.160 . S
O3 Cd4 2.203 . S
Cd4 O3 2.203 . S
Cd4 O6 2.411 . S
Cd4 O7 2.333 . S
Cd4 O8 2.352 . S
Cd4 O12 2.277 . S
Cd4 O13 2.356 . S
C5 O10 1.209 . S
C5 O12 1.226 . S
O6 Cd2 2.273 . S
O6 Cd4 2.411 . S
O6 C9 1.320 . S
O7 Cd4 2.333 . S
O7 C9 1.214 . S
O8 Cd4 2.352 . S
O8 C11 1.258 . S
C9 O6 1.320 . S
C9 O7 1.214 . S
O10 Cd2 2.277 . S
O10 C5 1.209 . S
C11 O8 1.258 . S
C11 O13 1.282 . S
O12 Cd4 2.277 . S
O12 C5 1.226 . S
O13 Cd4 2.356 . S
O13 C11 1.282 . S
C14 O15 1.306 . S
C14 O17 1.160 . S
O15 C14 1.306 . S
O15 Cd16 2.228 . S
Cd16 O15 2.228 . S
Cd16 O20 2.273 . S
Cd16 O24 2.277 . S
O17 C14 1.160 . S
O17 Cd18 2.203 . S
Cd18 O17 2.203 . S
Cd18 O20 2.411 . S
Cd18 O21 2.333 . S
Cd18 O22 2.352 . S
Cd18 O26 2.277 . S
Cd18 O27 2.356 . S
C19 O24 1.209 . S
C19 O26 1.226 . S
O20 Cd16 2.273 . S
O20 Cd18 2.411 . S
O20 C23 1.320 . S
O21 Cd18 2.333 . S
O21 C23 1.214 . S
O22 Cd18 2.352 . S
O22 C25 1.258 . S
C23 O20 1.320 . S
C23 O21 1.214 . S
O24 Cd16 2.277 . S
O24 C19 1.209 . S
C25 O22 1.258 . S
C25 O27 1.282 . S
O26 Cd18 2.277 . S
O26 C19 1.226 . S
O27 Cd18 2.356 . S
O27 C25 1.282 . S
C28 O29 1.306 . S
C28 O31 1.160 . S
O29 C28 1.306 . S
O29 Cd30 2.228 . S
Cd30 O29 2.228 . S
Cd30 O34 2.273 . S
Cd30 O38 2.277 . S
O31 C28 1.160 . S
O31 Cd32 2.203 . S
Cd32 O31 2.203 . S
Cd32 O34 2.411 . S
Cd32 O35 2.333 . S
Cd32 O36 2.352 . S
Cd32 O40 2.277 . S
Cd32 O41 2.356 . S
C33 O38 1.209 . S
C33 O40 1.226 . S
O34 Cd30 2.273 . S
O34 Cd32 2.411 . S
O34 C37 1.320 . S
O35 Cd32 2.333 . S
O35 C37 1.214 . S
O36 Cd32 2.352 . S
O36 C39 1.258 . S
C37 O34 1.320 . S
C37 O35 1.214 . S
O38 Cd30 2.277 . S
O38 C33 1.209 . S
C39 O36 1.258 . S
C39 O41 1.282 . S
O40 Cd32 2.277 . S
O40 C33 1.226 . S
O41 Cd32 2.356 . S
O41 C39 1.282 . S
C42 O43 1.306 . S
C42 O45 1.160 . S
O43 C42 1.306 . S
O43 Cd44 2.228 . S
Cd44 O43 2.228 . S
Cd44 O48 2.273 . S
Cd44 O52 2.277 . S
O45 C42 1.160 . S
O45 Cd46 2.203 . S
Cd46 O45 2.203 . S
Cd46 O48 2.411 . S
Cd46 O49 2.333 . S
Cd46 O50 2.352 . S
Cd46 O54 2.277 . S
Cd46 O55 2.356 . S
C47 O52 1.209 . S
C47 O54 1.226 . S
O48 Cd44 2.273 . S
O48 Cd46 2.411 . S
O48 C51 1.320 . S
O49 Cd46 2.333 . S
O49 C51 1.214 . S
O50 Cd46 2.352 . S
O50 C53 1.258 . S
C51 O48 1.320 . S
C51 O49 1.214 . S
O52 Cd44 2.277 . S
O52 C47 1.209 . S
C53 O50 1.258 . S
C53 O55 1.282 . S
O54 Cd46 2.277 . S
O54 C47 1.226 . S
O55 Cd46 2.356 . S
O55 C53 1.282 . S
C56 O57 1.306 . S
C56 O59 1.160 . S
O57 C56 1.306 . S
O57 Cd58 2.228 . S
Cd58 O57 2.228 . S
Cd58 O62 2.273 . S
Cd58 O66 2.277 . S
O59 C56 1.160 . S
O59 Cd60 2.203 . S
Cd60 O59 2.203 . S
Cd60 O62 2.411 . S
Cd60 O63 2.333 . S
Cd60 O64 2.352 . S
Cd60 O68 2.277 . S
Cd60 O69 2.356 . S
C61 O66 1.209 . S
C61 O68 1.226 . S
O62 Cd58 2.273 . S
O62 Cd60 2.411 . S
O62 C65 1.320 . S
O63 Cd60 2.333 . S
O63 C65 1.214 . S
O64 Cd60 2.352 . S
O64 C67 1.258 . S
C65 O62 1.320 . S
C65 O63 1.214 . S
O66 Cd58 2.277 . S
O66 C61 1.209 . S
C67 O64 1.258 . S
C67 O69 1.282 . S
O68 Cd60 2.277 . S
O68 C61 1.226 . S
O69 Cd60 2.356 . S
O69 C67 1.282 . S
C70 O71 1.306 . S
C70 O73 1.160 . S
O71 C70 1.306 . S
O71 Cd72 2.228 . S
Cd72 O71 2.228 . S
Cd72 O76 2.273 . S
Cd72 O80 2.277 . S
O73 C70 1.160 . S
O73 Cd74 2.203 . S
Cd74 O73 2.203 . S
Cd74 O76 2.411 . S
Cd74 O77 2.333 . S
Cd74 O78 2.352 . S
Cd74 O82 2.277 . S
Cd74 O83 2.356 . S
C75 O80 1.209 . S
C75 O82 1.226 . S
O76 Cd72 2.273 . S
O76 Cd74 2.411 . S
O76 C79 1.320 . S
O77 Cd74 2.333 . S
O77 C79 1.214 . S
O78 Cd74 2.352 . S
O78 C81 1.258 . S
C79 O76 1.320 . S
C79 O77 1.214 . S
O80 Cd72 2.277 . S
O80 C75 1.209 . S
C81 O78 1.258 . S
C81 O83 1.282 . S
O82 Cd74 2.277 . S
O82 C75 1.226 . S
O83 Cd74 2.356 . S
O83 C81 1.282 . S
C84 O85 1.306 . S
C84 O87 1.160 . S
O85 C84 1.306 . S
O85 Cd86 2.228 . S
Cd86 O85 2.228 . S
Cd86 O90 2.273 . S
Cd86 O94 2.277 . S
O87 C84 1.160 . S
O87 Cd88 2.203 . S
Cd88 O87 2.203 . S
Cd88 O90 2.411 . S
Cd88 O91 2.333 . S
Cd88 O92 2.352 . S
Cd88 O96 2.277 . S
Cd88 O97 2.356 . S
C89 O94 1.209 . S
C89 O96 1.226 . S
O90 Cd86 2.273 . S
O90 Cd88 2.411 . S
O90 C93 1.320 . S
O91 Cd88 2.333 . S
O91 C93 1.214 . S
O92 Cd88 2.352 . S
O92 C95 1.258 . S
C93 O90 1.320 . S
C93 O91 1.214 . S
O94 Cd86 2.277 . S
O94 C89 1.209 . S
C95 O92 1.258 . S
C95 O97 1.282 . S
O96 Cd88 2.277 . S
O96 C89 1.226 . S
O97 Cd88 2.356 . S
O97 C95 1.282 . S
C98 O99 1.306 . S
C98 O101 1.160 . S
O99 C98 1.306 . S
O99 Cd100 2.228 1_655 S
Cd100 O99 2.228 1_455 S
Cd100 O104 2.273 . S
Cd100 O108 2.277 . S
O101 C98 1.160 . S
O101 Cd102 2.203 1_655 S
Cd102 O101 2.203 1_455 S
Cd102 O104 2.411 . S
Cd102 O105 2.333 . S
Cd102 O106 2.352 1_455 S
Cd102 O110 2.277 . S
Cd102 O111 2.356 . S
C103 O108 1.209 . S
C103 O110 1.226 . S
O104 Cd100 2.273 . S
O104 Cd102 2.411 . S
O104 C107 1.320 . S
O105 Cd102 2.333 . S
O105 C107 1.214 . S
O106 Cd102 2.352 1_655 S
O106 C109 1.262 . S
C107 O104 1.320 . S
C107 O105 1.214 . S
O108 Cd100 2.277 . S
O108 C103 1.209 . S
C109 O106 1.262 . S
C109 O111 1.281 1_655 S
O110 Cd102 2.277 . S
O110 C103 1.226 . S
O111 Cd102 2.356 . S
O111 C109 1.281 1_455 S
C112 O113 1.306 . S
C112 O115 1.160 . S
O113 C112 1.306 . S
O113 Cd114 2.228 . S
Cd114 O113 2.228 . S
Cd114 O118 2.273 . S
Cd114 O122 2.277 . S
O115 C112 1.160 . S
O115 Cd116 2.203 . S
Cd116 O115 2.203 . S
Cd116 O118 2.411 . S
Cd116 O119 2.333 . S
Cd116 O120 2.352 . S
Cd116 O124 2.277 . S
Cd116 O125 2.356 . S
C117 O122 1.209 . S
C117 O124 1.226 . S
O118 Cd114 2.273 . S
O118 Cd116 2.411 . S
O118 C121 1.320 . S
O119 Cd116 2.333 . S
O119 C121 1.214 . S
O120 Cd116 2.352 . S
O120 C123 1.258 . S
C121 O118 1.320 . S
C121 O119 1.214 . S
O122 Cd114 2.277 . S
O122 C117 1.209 . S
C123 O120 1.258 . S
C123 O125 1.282 . S
O124 Cd116 2.277 . S
O124 C117 1.226 . S
O125 Cd116 2.356 . S
O125 C123 1.282 . S
C126 O127 1.306 . S
C126 O129 1.160 . S
O127 C126 1.306 . S
O127 Cd128 2.228 . S
Cd128 O127 2.228 . S
Cd128 O132 2.273 . S
Cd128 O136 2.277 . S
O129 C126 1.160 . S
O129 Cd130 2.203 . S
Cd130 O129 2.203 . S
Cd130 O132 2.411 . S
Cd130 O133 2.333 . S
Cd130 O134 2.352 . S
Cd130 O138 2.277 . S
Cd130 O139 2.356 . S
C131 O136 1.209 . S
C131 O138 1.226 . S
O132 Cd128 2.273 . S
O132 Cd130 2.411 . S
O132 C135 1.320 . S
O133 Cd130 2.333 . S
O133 C135 1.214 . S
O134 Cd130 2.352 . S
O134 C137 1.258 . S
C135 O132 1.320 . S
C135 O133 1.214 . S
O136 Cd128 2.277 . S
O136 C131 1.209 . S
C137 O134 1.258 . S
C137 O139 1.282 . S
O138 Cd130 2.277 . S
O138 C131 1.226 . S
O139 Cd130 2.356 . S
O139 C137 1.282 . S
C140 O141 1.306 . S
C140 O143 1.160 . S
O141 C140 1.306 . S
O141 Cd142 2.228 . S
Cd142 O141 2.228 . S
Cd142 O146 2.273 . S
Cd142 O150 2.277 . S
O143 C140 1.160 . S
O143 Cd144 2.203 . S
Cd144 O143 2.203 . S
Cd144 O146 2.411 . S
Cd144 O147 2.333 . S
Cd144 O148 2.352 . S
Cd144 O152 2.277 . S
Cd144 O153 2.356 . S
C145 O150 1.209 . S
C145 O152 1.226 . S
O146 Cd142 2.273 . S
O146 Cd144 2.411 . S
O146 C149 1.320 . S
O147 Cd144 2.333 . S
O147 C149 1.214 . S
O148 Cd144 2.352 . S
O148 C151 1.258 . S
C149 O146 1.320 . S
C149 O147 1.214 . S
O150 Cd142 2.277 . S
O150 C145 1.209 . S
C151 O148 1.258 . S
C151 O153 1.282 . S
O152 Cd144 2.277 . S
O152 C145 1.226 . S
O153 Cd144 2.356 . S
O153 C151 1.282 . S
C154 O155 1.306 . S
C154 O157 1.160 . S
O155 C154 1.306 . S
O155 Cd156 2.228 . S
Cd156 O155 2.228 . S
Cd156 O160 2.273 . S
Cd156 O164 2.277 . S
O157 C154 1.160 . S
O157 Cd158 2.203 . S
Cd158 O157 2.203 . S
Cd158 O160 2.411 . S
Cd158 O161 2.333 . S
Cd158 O162 2.352 . S
Cd158 O166 2.277 . S
Cd158 O167 2.356 . S
C159 O164 1.209 . S
C159 O166 1.226 . S
O160 Cd156 2.273 . S
O160 Cd158 2.411 . S
O160 C163 1.320 . S
O161 Cd158 2.333 . S
O161 C163 1.214 . S
O162 Cd158 2.352 . S
O162 C165 1.258 . S
C163 O160 1.320 . S
C163 O161 1.214 . S
O164 Cd156 2.277 . S
O164 C159 1.209 . S
C165 O162 1.258 . S
C165 O167 1.282 . S
O166 Cd158 2.277 . S
O166 C159 1.226 . S
O167 Cd158 2.356 . S
O167 C165 1.282 . S
C168 O169 1.306 . S
C168 O171 1.160 . S
O169 C168 1.306 . S
O169 Cd170 2.228 . S
Cd170 O169 2.228 . S
Cd170 O174 2.273 . S
Cd170 O178 2.277 1_554 S
O171 C168 1.160 . S
O171 Cd172 2.203 . S
Cd172 O171 2.203 . S
Cd172 O174 2.411 . S
Cd172 O175 2.333 . S
Cd172 O176 2.352 . S
Cd172 O180 2.277 . S
Cd172 O181 2.356 . S
C173 O178 1.209 . S
C173 O180 1.226 1_556 S
O174 Cd170 2.273 . S
O174 Cd172 2.411 . S
O174 C177 1.320 . S
O175 Cd172 2.333 . S
O175 C177 1.214 . S
O176 Cd172 2.352 . S
O176 C179 1.258 . S
C177 O174 1.320 . S
C177 O175 1.214 . S
O178 Cd170 2.277 1_556 S
O178 C173 1.209 . S
C179 O176 1.258 . S
C179 O181 1.282 . S
O180 Cd172 2.277 . S
O180 C173 1.226 1_554 S
O181 Cd172 2.356 . S
O181 C179 1.282 . S
C182 O183 1.306 . S
C182 O185 1.161 1_554 S
O183 C182 1.306 . S
O183 Cd184 2.228 . S
Cd184 O183 2.228 . S
Cd184 O188 2.225 1_554 S
Cd184 O192 2.277 . S
O185 C182 1.161 1_556 S
O185 Cd186 2.203 . S
Cd186 O185 2.203 . S
Cd186 O188 2.422 . S
Cd186 O189 2.333 . S
Cd186 O190 2.352 . S
Cd186 O194 2.277 1_556 S
Cd186 O195 2.356 . S
C187 O192 1.209 . S
C187 O194 1.226 . S
O188 Cd184 2.225 1_556 S
O188 Cd186 2.422 . S
O188 C191 1.324 . S
O189 Cd186 2.333 . S
O189 C191 1.214 . S
O190 Cd186 2.352 . S
O190 C193 1.258 . S
C191 O188 1.324 . S
C191 O189 1.214 . S
O192 Cd184 2.277 . S
O192 C187 1.209 . S
C193 O190 1.258 . S
C193 O195 1.282 . S
O194 Cd186 2.277 1_554 S
O194 C187 1.226 . S
O195 Cd186 2.356 . S
O195 C193 1.282 . S
C196 O197 1.306 . S
C196 O199 1.160 . S
O197 C196 1.306 . S
O197 Cd198 2.228 . S
Cd198 O197 2.228 . S
Cd198 O202 2.273 . S
Cd198 O206 2.277 . S
O199 C196 1.160 . S
O199 Cd200 2.203 . S
Cd200 O199 2.203 . S
Cd200 O202 2.411 . S
Cd200 O203 2.333 . S
Cd200 O204 2.352 . S
Cd200 O208 2.277 . S
Cd200 O209 2.356 . S
C201 O206 1.209 . S
C201 O208 1.226 . S
O202 Cd198 2.273 . S
O202 Cd200 2.411 . S
O202 C205 1.320 . S
O203 Cd200 2.333 . S
O203 C205 1.214 . S
O204 Cd200 2.352 . S
O204 C207 1.258 . S
C205 O202 1.320 . S
C205 O203 1.214 . S
O206 Cd198 2.277 . S
O206 C201 1.209 . S
C207 O204 1.258 . S
C207 O209 1.282 . S
O208 Cd200 2.277 . S
O208 C201 1.226 . S
O209 Cd200 2.356 . S
O209 C207 1.282 . S
C210 O211 1.306 . S
C210 O213 1.160 . S
O211 C210 1.306 . S
O211 Cd212 2.228 . S
Cd212 O211 2.228 . S
Cd212 O216 2.273 . S
Cd212 O220 2.277 . S
O213 C210 1.160 . S
O213 Cd214 2.203 . S
Cd214 O213 2.203 . S
Cd214 O216 2.411 . S
Cd214 O217 2.333 . S
Cd214 O218 2.352 . S
Cd214 O222 2.277 . S
Cd214 O223 2.356 . S
C215 O220 1.209 . S
C215 O222 1.226 . S
O216 Cd212 2.273 . S
O216 Cd214 2.411 . S
O216 C219 1.320 . S
O217 Cd214 2.333 . S
O217 C219 1.214 . S
O218 Cd214 2.352 . S
O218 C221 1.258 . S
C219 O216 1.320 . S
C219 O217 1.214 . S
O220 Cd212 2.277 . S
O220 C215 1.209 . S
C221 O218 1.258 . S
C221 O223 1.282 . S
O222 Cd214 2.277 . S
O222 C215 1.226 . S
O223 Cd214 2.356 . S
O223 C221 1.282 . S
C224 O225 1.306 1_545 S
C224 O227 1.160 . S
O225 C224 1.306 1_565 S
O225 Cd226 2.228 . S
Cd226 O225 2.228 . S
Cd226 O230 2.273 1_565 S
Cd226 O234 2.277 . S
O227 C224 1.160 . S
O227 Cd228 2.203 . S
Cd228 O227 2.203 . S
Cd228 O230 2.411 . S
Cd228 O231 2.333 . S
Cd228 O232 2.352 . S
Cd228 O236 2.277 1_545 S
Cd228 O237 2.356 . S
C229 O234 1.209 . S
C229 O236 1.226 . S
O230 Cd226 2.273 1_545 S
O230 Cd228 2.411 . S
O230 C233 1.320 . S
O231 Cd228 2.333 . S
O231 C233 1.214 . S
O232 Cd228 2.352 . S
O232 C235 1.258 . S
C233 O230 1.320 . S
C233 O231 1.214 . S
O234 Cd226 2.277 . S
O234 C229 1.209 . S
C235 O232 1.258 . S
C235 O237 1.282 . S
O236 Cd228 2.277 1_565 S
O236 C229 1.226 . S
O237 Cd228 2.356 . S
O237 C235 1.282 . S
C238 O239 1.306 . S
C238 O241 1.160 . S
O239 C238 1.306 . S
O239 Cd240 2.228 . S
Cd240 O239 2.228 . S
Cd240 O244 2.273 . S
Cd240 O248 2.277 . S
O241 C238 1.160 . S
O241 Cd242 2.203 . S
Cd242 O241 2.203 . S
Cd242 O244 2.411 . S
Cd242 O245 2.333 . S
Cd242 O246 2.352 . S
Cd242 O250 2.277 . S
Cd242 O251 2.356 . S
C243 O248 1.209 . S
C243 O250 1.226 . S
O244 Cd240 2.273 . S
O244 Cd242 2.411 . S
O244 C247 1.320 . S
O245 Cd242 2.333 . S
O245 C247 1.214 . S
O246 Cd242 2.352 . S
O246 C249 1.258 . S
C247 O244 1.320 . S
C247 O245 1.214 . S
O248 Cd240 2.277 . S
O248 C243 1.209 . S
C249 O246 1.258 . S
C249 O251 1.282 . S
O250 Cd242 2.277 . S
O250 C243 1.226 . S
O251 Cd242 2.356 . S
O251 C249 1.282 . S
C252 O253 1.306 . S
C252 O255 1.160 . S
O253 C252 1.306 . S
O253 Cd254 2.228 . S
Cd254 O253 2.228 . S
Cd254 O258 2.273 . S
Cd254 O262 2.277 . S
O255 C252 1.160 . S
O255 Cd256 2.203 . S
Cd256 O255 2.203 . S
Cd256 O258 2.411 . S
Cd256 O259 2.333 . S
Cd256 O260 2.352 . S
Cd256 O264 2.277 . S
Cd256 O265 2.356 . S
C257 O262 1.209 . S
C257 O264 1.226 . S
O258 Cd254 2.273 . S
O258 Cd256 2.411 . S
O258 C261 1.320 . S
O259 Cd256 2.333 . S
O259 C261 1.214 . S
O260 Cd256 2.352 . S
O260 C263 1.258 . S
C261 O258 1.320 . S
C261 O259 1.214 . S
O262 Cd254 2.277 . S
O262 C257 1.209 . S
C263 O260 1.258 . S
C263 O265 1.282 . S
O264 Cd256 2.277 . S
O264 C257 1.226 . S
O265 Cd256 2.356 . S
O265 C263 1.282 . S
C266 O267 1.306 . S
C266 O269 1.141 1_545 S
O267 C266 1.306 . S
O267 Cd268 2.228 . S
Cd268 O267 2.228 . S
Cd268 O272 2.273 1_545 S
Cd268 O276 2.277 . S
O269 C266 1.141 1_565 S
O269 Cd270 2.205 . S
Cd270 O269 2.205 . S
Cd270 O272 2.411 . S
Cd270 O273 2.333 . S
Cd270 O274 2.352 . S
Cd270 O278 2.277 1_565 S
Cd270 O279 2.356 . S
C271 O276 1.209 . S
C271 O278 1.226 . S
O272 Cd268 2.273 1_565 S
O272 Cd270 2.411 . S
O272 C275 1.320 . S
O273 Cd270 2.333 . S
O273 C275 1.214 . S
O274 Cd270 2.352 . S
O274 C277 1.258 . S
C275 O272 1.320 . S
C275 O273 1.214 . S
O276 Cd268 2.277 . S
O276 C271 1.209 . S
C277 O274 1.258 . S
C277 O279 1.282 . S
O278 Cd270 2.277 1_545 S
O278 C271 1.226 . S
O279 Cd270 2.356 . S
O279 C277 1.282 . S
C280 O281 1.306 . S
C280 O283 1.160 . S
O281 C280 1.306 . S
O281 Cd282 2.228 . S
Cd282 O281 2.228 . S
Cd282 O286 2.273 . S
Cd282 O290 2.277 . S
O283 C280 1.160 . S
O283 Cd284 2.203 . S
Cd284 O283 2.203 . S
Cd284 O286 2.411 . S
Cd284 O287 2.333 . S
Cd284 O288 2.352 1_554 S
Cd284 O292 2.277 . S
Cd284 O293 2.317 1_554 S
C285 O290 1.209 . S
C285 O292 1.226 . S
O286 Cd282 2.273 . S
O286 Cd284 2.411 . S
O286 C289 1.320 . S
O287 Cd284 2.333 . S
O287 C289 1.214 . S
O288 Cd284 2.352 1_556 S
O288 C291 1.258 . S
C289 O286 1.320 . S
C289 O287 1.214 . S
O290 Cd282 2.277 . S
O290 C285 1.209 . S
C291 O288 1.258 . S
C291 O293 1.325 . S
O292 Cd284 2.277 . S
O292 C285 1.226 . S
O293 Cd284 2.317 1_556 S
O293 C291 1.325 . S
C294 O295 1.306 . S
C294 O297 1.160 . S
O295 C294 1.306 . S
O295 Cd296 2.228 . S
Cd296 O295 2.228 . S
Cd296 O300 2.273 . S
Cd296 O304 2.277 . S
O297 C294 1.160 . S
O297 Cd298 2.203 . S
Cd298 O297 2.203 . S
Cd298 O300 2.411 . S
Cd298 O301 2.333 . S
Cd298 O302 2.352 . S
Cd298 O306 2.277 . S
Cd298 O307 2.356 . S
C299 O304 1.209 . S
C299 O306 1.226 . S
O300 Cd296 2.273 . S
O300 Cd298 2.411 . S
O300 C303 1.320 . S
O301 Cd298 2.333 . S
O301 C303 1.214 . S
O302 Cd298 2.352 . S
O302 C305 1.258 . S
C303 O300 1.320 . S
C303 O301 1.214 . S
O304 Cd296 2.277 . S
O304 C299 1.209 . S
C305 O302 1.258 . S
C305 O307 1.282 . S
O306 Cd298 2.277 . S
O306 C299 1.226 . S
O307 Cd298 2.356 . S
O307 C305 1.282 . S
C308 O309 1.306 . S
C308 O311 1.160 . S
O309 C308 1.306 . S
O309 Cd310 2.228 . S
Cd310 O309 2.228 . S
Cd310 O314 2.273 . S
Cd310 O318 2.277 . S
O311 C308 1.160 . S
O311 Cd312 2.203 . S
Cd312 O311 2.203 . S
Cd312 O314 2.411 . S
Cd312 O315 2.333 . S
Cd312 O316 2.352 . S
Cd312 O320 2.277 . S
Cd312 O321 2.356 . S
C313 O318 1.209 . S
C313 O320 1.226 . S
O314 Cd310 2.273 . S
O314 Cd312 2.411 . S
O314 C317 1.320 . S
O315 Cd312 2.333 . S
O315 C317 1.214 . S
O316 Cd312 2.352 . S
O316 C319 1.258 . S
C317 O314 1.320 . S
C317 O315 1.214 . S
O318 Cd310 2.277 . S
O318 C313 1.209 . S
C319 O316 1.258 . S
C319 O321 1.282 . S
O320 Cd312 2.277 . S
O320 C313 1.226 . S
O321 Cd312 2.356 . S
O321 C319 1.282 . S
C322 O323 1.306 . S
C322 O325 1.160 . S
O323 C322 1.306 . S
O323 Cd324 2.228 . S
Cd324 O323 2.228 . S
Cd324 O328 2.273 . S
Cd324 O332 2.277 . S
O325 C322 1.160 . S
O325 Cd326 2.203 . S
Cd326 O325 2.203 . S
Cd326 O328 2.411 . S
Cd326 O329 2.333 . S
Cd326 O330 2.352 . S
Cd326 O334 2.277 . S
Cd326 O335 2.356 . S
C327 O332 1.209 . S
C327 O334 1.226 . S
O328 Cd324 2.273 . S
O328 Cd326 2.411 . S
O328 C331 1.320 . S
O329 Cd326 2.333 . S
O329 C331 1.214 . S
O330 Cd326 2.352 . S
O330 C333 1.258 . S
C331 O328 1.320 . S
C331 O329 1.214 . S
O332 Cd324 2.277 . S
O332 C327 1.209 . S
C333 O330 1.258 . S
C333 O335 1.282 . S
O334 Cd326 2.277 . S
O334 C327 1.226 . S
O335 Cd326 2.356 . S
O335 C333 1.282 . S
Tb336 C346 2.825 1_455 S
Tb336 O347 2.347 . S
Tb336 O350 2.366 . S
Tb336 O355 2.418 1_554 S
Tb336 O356 2.384 1_545 S
Tb336 O359 2.479 1_454 S
Tb336 O360 2.471 1_455 S
Eu337 O348 2.418 . S
Eu337 O349 2.384 . S
Eu337 O352 2.479 . S
Eu337 O353 2.471 . S
Eu337 O354 2.347 . S
Eu337 O357 2.366 . S
Eu337 C367 2.825 . S
C338 O354 1.259 1_556 S
C338 O355 1.265 . S
C339 O356 1.255 . S
C339 O357 1.265 1_565 S
C340 C342 1.380 . S
C340 C343 1.374 1_556 S
C340 C346 1.507 1_556 S
C341 C342 1.384 . S
C341 C345 1.387 . S
C341 H368 0.930 . S
C342 C340 1.380 . S
C342 C341 1.384 . S
C342 H369 0.931 . S
C343 C340 1.374 1_554 S
C343 C344 1.390 . S
C343 H370 0.930 . S
C344 C343 1.390 . S
C344 C345 1.391 1_554 S
C344 H371 0.930 . S
C345 C341 1.387 . S
C345 C344 1.391 1_556 S
C346 Tb336 2.825 1_655 S
C346 C340 1.507 1_554 S
C346 O359 1.238 1_554 S
C346 O360 1.247 . S
O347 Tb336 2.347 . S
O347 C351 1.259 . S
O348 Eu337 2.418 . S
O348 C351 1.265 . S
O349 Eu337 2.384 . S
O349 C358 1.255 . S
O350 Tb336 2.366 . S
O350 C358 1.265 . S
C351 O347 1.259 . S
C351 O348 1.265 . S
O352 Eu337 2.479 . S
O352 C367 1.238 . S
O353 Eu337 2.471 . S
O353 C367 1.247 . S
O354 Eu337 2.347 . S
O354 C338 1.259 1_554 S
O355 Tb336 2.418 1_556 S
O355 C338 1.265 . S
O356 Tb336 2.384 1_565 S
O356 C339 1.255 . S
O357 Eu337 2.366 . S
O357 C339 1.265 1_545 S
C358 O349 1.255 . S
C358 O350 1.265 . S
O359 Tb336 2.479 1_656 S
O359 C346 1.238 1_556 S
O360 Tb336 2.471 1_655 S
O360 C346 1.247 . S
C361 C364 1.380 . S
C361 C365 1.374 1_545 S
C361 C367 1.507 . S
C362 C363 1.387 1_565 S
C362 C366 1.391 . S
C363 C362 1.387 1_545 S
C363 C364 1.384 . S
C363 H372 0.930 . S
C364 C361 1.380 . S
C364 C363 1.384 . S
C364 H373 0.931 . S
C365 C361 1.374 1_565 S
C365 C366 1.390 . S
C365 H374 0.930 . S
C366 C362 1.391 . S
C366 C365 1.390 . S
C366 H375 0.930 . S
C367 Eu337 2.825 . S
C367 O352 1.238 . S
C367 O353 1.247 . S
C367 C361 1.507 . S
H368 C341 0.930 . S
H369 C342 0.931 . S
H370 C343 0.930 . S
H371 C344 0.930 . S
H372 C363 0.930 . S
H373 C364 0.931 . S
H374 C365 0.930 . S
H375 C366 0.930 . S
Tb376 C386 2.825 . S
Tb376 O387 2.347 . S
Tb376 O390 2.366 . S
Tb376 O395 2.418 . S
Tb376 O396 2.384 . S
Tb376 O399 2.479 . S
Tb376 O400 2.471 . S
Eu377 O388 2.418 . S
Eu377 O389 2.384 . S
Eu377 O392 2.479 . S
Eu377 O393 2.471 . S
Eu377 O394 2.347 . S
Eu377 O397 2.366 . S
Eu377 C407 2.825 . S
C378 O394 1.259 . S
C378 O395 1.265 . S
C379 O396 1.255 . S
C379 O397 1.265 . S
C380 C382 1.380 . S
C380 C383 1.374 . S
C380 C386 1.507 . S
C381 C382 1.384 . S
C381 C385 1.387 . S
C381 H408 0.930 . S
C382 C380 1.380 . S
C382 C381 1.384 . S
C382 H409 0.931 . S
C383 C380 1.374 . S
C383 C384 1.390 . S
C383 H410 0.930 . S
C384 C383 1.390 . S
C384 C385 1.391 . S
C384 H411 0.930 . S
C385 C381 1.387 . S
C385 C384 1.391 . S
C386 Tb376 2.825 . S
C386 C380 1.507 . S
C386 O399 1.238 . S
C386 O400 1.247 . S
O387 Tb376 2.347 . S
O387 C391 1.259 . S
O388 Eu377 2.418 . S
O388 C391 1.265 . S
O389 Eu377 2.384 . S
O389 C398 1.255 . S
O390 Tb376 2.366 . S
O390 C398 1.265 . S
C391 O387 1.259 . S
C391 O388 1.265 . S
O392 Eu377 2.479 . S
O392 C407 1.238 . S
O393 Eu377 2.471 . S
O393 C407 1.247 . S
O394 Eu377 2.347 . S
O394 C378 1.259 . S
O395 Tb376 2.418 . S
O395 C378 1.265 . S
O396 Tb376 2.384 . S
O396 C379 1.255 . S
O397 Eu377 2.366 . S
O397 C379 1.265 . S
C398 O389 1.255 . S
C398 O390 1.265 . S
O399 Tb376 2.479 . S
O399 C386 1.238 . S
O400 Tb376 2.471 . S
O400 C386 1.247 . S
C401 C404 1.380 . S
C401 C405 1.374 . S
C401 C407 1.507 . S
C402 C403 1.387 . S
C402 C406 1.391 . S
C403 C402 1.387 . S
C403 C404 1.384 . S
C403 H412 0.930 . S
C404 C401 1.380 . S
C404 C403 1.384 . S
C404 H413 0.931 . S
C405 C401 1.374 . S
C405 C406 1.390 . S
C405 H414 0.930 . S
C406 C402 1.391 . S
C406 C405 1.390 . S
C406 H415 0.930 . S
C407 Eu377 2.825 . S
C407 O392 1.238 . S
C407 O393 1.247 . S
C407 C401 1.507 . S
H408 C381 0.930 . S
H409 C382 0.931 . S
H410 C383 0.930 . S
H411 C384 0.930 . S
H412 C403 0.930 . S
H413 C404 0.931 . S
H414 C405 0.930 . S
H415 C406 0.930 . S
Tb416 C426 2.825 . S
Tb416 O427 2.347 1_565 S
Tb416 O430 2.366 . S
Tb416 O435 2.418 . S
Tb416 O436 2.384 1_565 S
Tb416 O439 2.479 . S
Tb416 O440 2.471 . S
Eu417 O428 2.418 . S
Eu417 O429 2.384 . S
Eu417 O432 2.479 . S
Eu417 O433 2.471 . S
Eu417 O434 2.347 . S
Eu417 O437 2.366 . S
Eu417 C447 2.825 . S
C418 O434 1.259 . S
C418 O435 1.265 1_545 S
C419 O436 1.255 . S
C419 O437 1.265 . S
C420 C422 1.380 . S
C420 C423 1.374 . S
C420 C426 1.507 . S
C421 C422 1.384 . S
C421 C425 1.387 . S
C421 H448 0.930 . S
C422 C420 1.380 . S
C422 C421 1.384 . S
C422 H449 0.931 . S
C423 C420 1.374 . S
C423 C424 1.390 . S
C423 H450 0.930 . S
C424 C423 1.390 . S
C424 C425 1.391 . S
C424 H451 0.930 . S
C425 C421 1.387 . S
C425 C424 1.391 . S
C426 Tb416 2.825 . S
C426 C420 1.507 . S
C426 O439 1.238 . S
C426 O440 1.247 . S
O427 Tb416 2.347 1_545 S
O427 C431 1.259 . S
O428 Eu417 2.418 . S
O428 C431 1.265 . S
O429 Eu417 2.384 . S
O429 C438 1.255 . S
O430 Tb416 2.366 . S
O430 C438 1.265 1_565 S
C431 O427 1.259 . S
C431 O428 1.265 . S
O432 Eu417 2.479 . S
O432 C447 1.238 . S
O433 Eu417 2.471 . S
O433 C447 1.247 . S
O434 Eu417 2.347 . S
O434 C418 1.259 . S
O435 Tb416 2.418 . S
O435 C418 1.265 1_565 S
O436 Tb416 2.384 1_545 S
O436 C419 1.255 . S
O437 Eu417 2.366 . S
O437 C419 1.265 . S
C438 O429 1.255 . S
C438 O430 1.265 1_545 S
O439 Tb416 2.479 . S
O439 C426 1.238 . S
O440 Tb416 2.471 . S
O440 C426 1.247 . S
C441 C444 1.380 . S
C441 C445 1.374 . S
C441 C447 1.507 . S
C442 C443 1.387 . S
C442 C446 1.391 . S
C443 C442 1.387 . S
C443 C444 1.384 . S
C443 H452 0.930 . S
C444 C441 1.380 . S
C444 C443 1.384 . S
C444 H453 0.931 . S
C445 C441 1.374 . S
C445 C446 1.390 . S
C445 H454 0.930 . S
C446 C442 1.391 . S
C446 C445 1.390 . S
C446 H455 0.930 . S
C447 Eu417 2.825 . S
C447 O432 1.238 . S
C447 O433 1.247 . S
C447 C441 1.507 . S
H448 C421 0.930 . S
H449 C422 0.931 . S
H450 C423 0.930 . S
H451 C424 0.930 . S
H452 C443 0.930 . S
H453 C444 0.931 . S
H454 C445 0.930 . S
H455 C446 0.930 . S
Tb456 C466 2.825 . S
Tb456 O467 2.347 . S
Tb456 O470 2.366 . S
Tb456 O475 2.418 . S
Tb456 O476 2.384 . S
Tb456 O479 2.479 . S
Tb456 O480 2.471 . S
Eu457 O468 2.418 . S
Eu457 O469 2.384 . S
Eu457 O472 2.479 . S
Eu457 O473 2.471 . S
Eu457 O474 2.347 . S
Eu457 O477 2.366 . S
Eu457 C487 2.825 . S
C458 O474 1.259 . S
C458 O475 1.265 . S
C459 O476 1.255 . S
C459 O477 1.265 . S
C460 C462 1.380 . S
C460 C463 1.374 . S
C460 C466 1.507 . S
C461 C462 1.384 . S
C461 C465 1.387 . S
C461 H488 0.930 . S
C462 C460 1.380 . S
C462 C461 1.384 . S
C462 H489 0.931 . S
C463 C460 1.374 . S
C463 C464 1.390 . S
C463 H490 0.930 . S
C464 C463 1.390 . S
C464 C465 1.391 . S
C464 H491 0.930 . S
C465 C461 1.387 . S
C465 C464 1.391 . S
C466 Tb456 2.825 . S
C466 C460 1.507 . S
C466 O479 1.238 . S
C466 O480 1.247 . S
O467 Tb456 2.347 . S
O467 C471 1.259 . S
O468 Eu457 2.418 . S
O468 C471 1.265 . S
O469 Eu457 2.384 . S
O469 C478 1.255 . S
O470 Tb456 2.366 . S
O470 C478 1.265 . S
C471 O467 1.259 . S
C471 O468 1.265 . S
O472 Eu457 2.479 . S
O472 C487 1.238 . S
O473 Eu457 2.471 . S
O473 C487 1.247 . S
O474 Eu457 2.347 . S
O474 C458 1.259 . S
O475 Tb456 2.418 . S
O475 C458 1.265 . S
O476 Tb456 2.384 . S
O476 C459 1.255 . S
O477 Eu457 2.366 . S
O477 C459 1.265 . S
C478 O469 1.255 . S
C478 O470 1.265 . S
O479 Tb456 2.479 . S
O479 C466 1.238 . S
O480 Tb456 2.471 . S
O480 C466 1.247 . S
C481 C484 1.380 . S
C481 C485 1.374 . S
C481 C487 1.507 . S
C482 C483 1.387 . S
C482 C486 1.391 . S
C483 C482 1.387 . S
C483 C484 1.384 . S
C483 H492 0.930 . S
C484 C481 1.380 . S
C484 C483 1.384 . S
C484 H493 0.931 . S
C485 C481 1.374 . S
C485 C486 1.390 . S
C485 H494 0.930 . S
C486 C482 1.391 . S
C486 C485 1.390 . S
C486 H495 0.930 . S
C487 Eu457 2.825 . S
C487 O472 1.238 . S
C487 O473 1.247 . S
C487 C481 1.507 . S
H488 C461 0.930 . S
H489 C462 0.931 . S
H490 C463 0.930 . S
H491 C464 0.930 . S
H492 C483 0.930 . S
H493 C484 0.931 . S
H494 C485 0.930 . S
H495 C486 0.930 . S
Tb496 C506 2.825 . S
Tb496 O507 2.347 . S
Tb496 O510 2.366 . S
Tb496 O515 2.418 . S
Tb496 O516 2.384 1_545 S
Tb496 O519 2.479 . S
Tb496 O520 2.471 . S
Eu497 O508 2.418 . S
Eu497 O509 2.384 . S
Eu497 O512 2.479 . S
Eu497 O513 2.471 . S
Eu497 O514 2.347 . S
Eu497 O517 2.366 . S
Eu497 C527 2.825 . S
C498 O514 1.259 . S
C498 O515 1.265 . S
C499 O516 1.255 . S
C499 O517 1.265 1_565 S
C500 C502 1.380 . S
C500 C503 1.313 1_455 S
C500 C506 1.507 . S
C501 C502 1.384 . S
C501 C505 1.387 . S
C501 H528 0.930 . S
C502 C500 1.380 . S
C502 C501 1.384 . S
C502 H529 0.931 . S
C503 C500 1.313 1_655 S
C503 C504 1.412 . S
C503 H530 0.973 . S
C504 C503 1.412 . S
C504 C505 1.391 1_655 S
C504 H531 0.930 . S
C505 C501 1.387 . S
C505 C504 1.391 1_455 S
C506 Tb496 2.825 . S
C506 C500 1.507 . S
C506 O519 1.238 . S
C506 O520 1.247 . S
O507 Tb496 2.347 . S
O507 C511 1.259 . S
O508 Eu497 2.418 . S
O508 C511 1.265 . S
O509 Eu497 2.384 . S
O509 C518 1.255 . S
O510 Tb496 2.366 . S
O510 C518 1.265 . S
C511 O507 1.259 . S
C511 O508 1.265 . S
O512 Eu497 2.479 . S
O512 C527 1.238 . S
O513 Eu497 2.471 . S
O513 C527 1.247 . S
O514 Eu497 2.347 . S
O514 C498 1.259 . S
O515 Tb496 2.418 . S
O515 C498 1.265 . S
O516 Tb496 2.384 1_565 S
O516 C499 1.255 . S
O517 Eu497 2.366 . S
O517 C499 1.265 1_545 S
C518 O509 1.255 . S
C518 O510 1.265 . S
O519 Tb496 2.479 . S
O519 C506 1.238 . S
O520 Tb496 2.471 . S
O520 C506 1.247 . S
C521 C524 1.380 . S
C521 C525 1.374 . S
C521 C527 1.507 . S
C522 C523 1.387 . S
C522 C526 1.391 . S
C523 C522 1.387 . S
C523 C524 1.384 . S
C523 H532 0.930 . S
C524 C521 1.380 . S
C524 C523 1.384 . S
C524 H533 0.931 . S
C525 C521 1.374 . S
C525 C526 1.390 . S
C525 H534 0.930 . S
C526 C522 1.391 . S
C526 C525 1.390 . S
C526 H535 0.930 . S
C527 Eu497 2.825 . S
C527 O512 1.238 . S
C527 O513 1.247 . S
C527 C521 1.507 . S
H528 C501 0.930 . S
H529 C502 0.931 . S
H530 C503 0.973 . S
H531 C504 0.930 . S
H532 C523 0.930 . S
H533 C524 0.931 . S
H534 C525 0.930 . S
H535 C526 0.930 . S
Tb536 C546 2.825 . S
Tb536 O547 2.347 . S
Tb536 O550 2.366 . S
Tb536 O555 2.418 . S
Tb536 O556 2.384 . S
Tb536 O559 2.479 . S
Tb536 O560 2.471 . S
Eu537 O548 2.418 . S
Eu537 O549 2.384 . S
Eu537 O552 2.479 . S
Eu537 O553 2.471 . S
Eu537 O554 2.347 . S
Eu537 O557 2.366 . S
Eu537 C567 2.825 . S
C538 O554 1.259 . S
C538 O555 1.265 . S
C539 O556 1.255 . S
C539 O557 1.265 . S
C540 C542 1.380 . S
C540 C543 1.374 . S
C540 C546 1.507 . S
C541 C542 1.384 . S
C541 C545 1.387 . S
C541 H568 0.930 . S
C542 C540 1.380 . S
C542 C541 1.384 . S
C542 H569 0.931 . S
C543 C540 1.374 . S
C543 C544 1.390 . S
C543 H570 0.930 . S
C544 C543 1.390 . S
C544 C545 1.391 . S
C544 H571 0.930 . S
C545 C541 1.387 . S
C545 C544 1.391 . S
C546 Tb536 2.825 . S
C546 C540 1.507 . S
C546 O559 1.238 . S
C546 O560 1.247 . S
O547 Tb536 2.347 . S
O547 C551 1.259 . S
O548 Eu537 2.418 . S
O548 C551 1.265 . S
O549 Eu537 2.384 . S
O549 C558 1.255 . S
O550 Tb536 2.366 . S
O550 C558 1.265 . S
C551 O547 1.259 . S
C551 O548 1.265 . S
O552 Eu537 2.479 . S
O552 C567 1.238 . S
O553 Eu537 2.471 . S
O553 C567 1.247 . S
O554 Eu537 2.347 . S
O554 C538 1.259 . S
O555 Tb536 2.418 . S
O555 C538 1.265 . S
O556 Tb536 2.384 . S
O556 C539 1.255 . S
O557 Eu537 2.366 . S
O557 C539 1.265 . S
C558 O549 1.255 . S
C558 O550 1.265 . S
O559 Tb536 2.479 . S
O559 C546 1.238 . S
O560 Tb536 2.471 . S
O560 C546 1.247 . S
C561 C564 1.380 . S
C561 C565 1.374 . S
C561 C567 1.507 . S
C562 C563 1.387 . S
C562 C566 1.391 . S
C563 C562 1.387 . S
C563 C564 1.384 . S
C563 H572 0.930 . S
C564 C561 1.380 . S
C564 C563 1.384 . S
C564 H573 0.931 . S
C565 C561 1.374 . S
C565 C566 1.390 . S
C565 H574 0.930 . S
C566 C562 1.391 . S
C566 C565 1.390 . S
C566 H575 0.930 . S
C567 Eu537 2.825 . S
C567 O552 1.238 . S
C567 O553 1.247 . S
C567 C561 1.507 . S
H568 C541 0.930 . S
H569 C542 0.931 . S
H570 C543 0.930 . S
H571 C544 0.930 . S
H572 C563 0.930 . S
H573 C564 0.931 . S
H574 C565 0.930 . S
H575 C566 0.930 . S
Tb576 C586 2.825 . S
Tb576 O587 2.347 . S
Tb576 O590 2.366 . S
Tb576 O595 2.418 1_545 S
Tb576 O596 2.384 . S
Tb576 O599 2.496 . S
Tb576 O600 2.471 . S
Eu577 O588 2.418 1_556 S
Eu577 O589 2.384 1_556 S
Eu577 O592 2.479 . S
Eu577 O593 2.471 . S
Eu577 O594 2.347 1_556 S
Eu577 O597 2.366 1_556 S
Eu577 C607 2.825 . S
C578 O594 1.259 1_565 S
C578 O595 1.265 . S
C579 O596 1.255 . S
C579 O597 1.265 . S
C580 C582 1.380 1_545 S
C580 C583 1.374 . S
C580 C586 1.507 . S
C581 C582 1.384 . S
C581 C585 1.387 1_565 S
C581 H608 0.930 . S
C582 C580 1.380 1_565 S
C582 C581 1.384 . S
C582 H609 0.931 . S
C583 C580 1.374 . S
C583 C584 1.390 . S
C583 H610 0.930 . S
C584 C583 1.390 . S
C584 C585 1.391 . S
C584 H611 0.930 . S
C585 C581 1.387 1_545 S
C585 C584 1.391 . S
C586 Tb576 2.825 . S
C586 C580 1.507 . S
C586 O599 1.261 . S
C586 O600 1.247 . S
O587 Tb576 2.347 . S
O587 C591 1.259 . S
O588 Eu577 2.418 1_554 S
O588 C591 1.265 . S
O589 Eu577 2.384 1_554 S
O589 C598 1.255 . S
O590 Tb576 2.366 . S
O590 C598 1.265 . S
C591 O587 1.259 . S
C591 O588 1.265 . S
O592 Eu577 2.479 . S
O592 C607 1.238 . S
O593 Eu577 2.471 . S
O593 C607 1.247 . S
O594 Eu577 2.347 1_554 S
O594 C578 1.259 1_545 S
O595 Tb576 2.418 1_565 S
O595 C578 1.265 . S
O596 Tb576 2.384 . S
O596 C579 1.255 . S
O597 Eu577 2.366 1_554 S
O597 C579 1.265 . S
C598 O589 1.255 . S
C598 O590 1.265 . S
O599 Tb576 2.496 . S
O599 C586 1.261 . S
O600 Tb576 2.471 . S
O600 C586 1.247 . S
C601 C604 1.380 . S
C601 C605 1.374 . S
C601 C607 1.507 . S
C602 C603 1.387 . S
C602 C606 1.391 . S
C603 C602 1.387 . S
C603 C604 1.384 . S
C603 H612 0.930 . S
C604 C601 1.380 . S
C604 C603 1.384 . S
C604 H613 0.931 . S
C605 C601 1.374 . S
C605 C606 1.390 . S
C605 H614 0.930 . S
C606 C602 1.391 . S
C606 C605 1.390 . S
C606 H615 0.930 . S
C607 Eu577 2.825 . S
C607 O592 1.238 . S
C607 O593 1.247 . S
C607 C601 1.507 . S
H608 C581 0.930 . S
H609 C582 0.931 . S
H610 C583 0.930 . S
H611 C584 0.930 . S
H612 C603 0.930 . S
H613 C604 0.931 . S
H614 C605 0.930 . S
H615 C606 0.930 . S
Tb616 C626 2.825 . S
Tb616 O627 2.347 . S
Tb616 O630 2.366 . S
Tb616 O635 2.418 . S
Tb616 O636 2.384 . S
Tb616 O639 2.479 . S
Tb616 O640 2.471 . S
Eu617 O628 2.418 . S
Eu617 O629 2.384 . S
Eu617 O632 2.479 . S
Eu617 O633 2.471 . S
Eu617 O634 2.347 . S
Eu617 O637 2.366 . S
Eu617 C647 2.825 . S
C618 O634 1.259 . S
C618 O635 1.265 . S
C619 O636 1.255 . S
C619 O637 1.265 . S
C620 C622 1.380 . S
C620 C623 1.374 . S
C620 C626 1.507 . S
C621 C622 1.384 . S
C621 C625 1.387 . S
C621 H648 0.930 . S
C622 C620 1.380 . S
C622 C621 1.384 . S
C622 H649 0.931 . S
C623 C620 1.374 . S
C623 C624 1.390 . S
C623 H650 0.930 . S
C624 C623 1.390 . S
C624 C625 1.391 . S
C624 H651 0.930 . S
C625 C621 1.387 . S
C625 C624 1.391 . S
C626 Tb616 2.825 . S
C626 C620 1.507 . S
C626 O639 1.238 . S
C626 O640 1.247 . S
O627 Tb616 2.347 . S
O627 C631 1.259 . S
O628 Eu617 2.418 . S
O628 C631 1.265 . S
O629 Eu617 2.384 . S
O629 C638 1.255 . S
O630 Tb616 2.366 . S
O630 C638 1.265 . S
C631 O627 1.259 . S
C631 O628 1.265 . S
O632 Eu617 2.479 . S
O632 C647 1.238 . S
O633 Eu617 2.471 . S
O633 C647 1.247 . S
O634 Eu617 2.347 . S
O634 C618 1.259 . S
O635 Tb616 2.418 . S
O635 C618 1.265 . S
O636 Tb616 2.384 . S
O636 C619 1.255 . S
O637 Eu617 2.366 . S
O637 C619 1.265 . S
C638 O629 1.255 . S
C638 O630 1.265 . S
O639 Tb616 2.479 . S
O639 C626 1.238 . S
O640 Tb616 2.471 . S
O640 C626 1.247 . S
C641 C644 1.380 . S
C641 C645 1.374 . S
C641 C647 1.507 . S
C642 C643 1.387 . S
C642 C646 1.391 . S
C643 C642 1.387 . S
C643 C644 1.384 . S
C643 H652 0.930 . S
C644 C641 1.380 . S
C644 C643 1.384 . S
C644 H653 0.931 . S
C645 C641 1.374 . S
C645 C646 1.390 . S
C645 H654 0.930 . S
C646 C642 1.391 . S
C646 C645 1.390 . S
C646 H655 0.930 . S
C647 Eu617 2.825 . S
C647 O632 1.238 . S
C647 O633 1.247 . S
C647 C641 1.507 . S
H648 C621 0.930 . S
H649 C622 0.931 . S
H650 C623 0.930 . S
H651 C624 0.930 . S
H652 C643 0.930 . S
H653 C644 0.931 . S
H654 C645 0.930 . S
H655 C646 0.930 . S
Tb656 C666 2.863 . S
Tb656 O667 2.319 1_556 S
Tb656 O670 2.371 . S
Tb656 O675 2.420 1_556 S
Tb656 O676 2.352 1_556 S
Tb656 O679 2.519 . S
Tb656 O680 2.498 . S
Eu657 O668 2.418 . S
Eu657 O669 2.384 . S
Eu657 O672 2.479 . S
Eu657 O673 2.471 . S
Eu657 O674 2.347 . S
Eu657 O677 2.366 . S
Eu657 C687 2.825 . S
C658 O674 1.259 . S
C658 O675 1.265 . S
C659 O676 1.255 . S
C659 O677 1.265 . S
C660 C662 1.380 . S
C660 C663 1.374 . S
C660 C666 1.507 . S
C661 C662 1.384 . S
C661 C665 1.387 . S
C661 H688 0.930 . S
C662 C660 1.380 . S
C662 C661 1.384 . S
C662 H689 0.931 . S
C663 C660 1.374 . S
C663 C664 1.390 . S
C663 H690 0.930 . S
C664 C663 1.390 . S
C664 C665 1.391 . S
C664 H691 0.930 . S
C665 C661 1.387 . S
C665 C664 1.391 . S
C666 Tb656 2.863 . S
C666 C660 1.507 . S
C666 O679 1.238 . S
C666 O680 1.247 . S
O667 Tb656 2.319 1_554 S
O667 C671 1.259 . S
O668 Eu657 2.418 . S
O668 C671 1.265 . S
O669 Eu657 2.384 . S
O669 C678 1.255 . S
O670 Tb656 2.371 . S
O670 C678 1.265 1_556 S
C671 O667 1.259 . S
C671 O668 1.265 . S
O672 Eu657 2.479 . S
O672 C687 1.238 . S
O673 Eu657 2.471 . S
O673 C687 1.247 . S
O674 Eu657 2.347 . S
O674 C658 1.259 . S
O675 Tb656 2.420 1_554 S
O675 C658 1.265 . S
O676 Tb656 2.352 1_554 S
O676 C659 1.255 . S
O677 Eu657 2.366 . S
O677 C659 1.265 . S
C678 O669 1.255 . S
C678 O670 1.265 1_554 S
O679 Tb656 2.519 . S
O679 C666 1.238 . S
O680 Tb656 2.498 . S
O680 C666 1.247 . S
C681 C684 1.380 . S
C681 C685 1.374 . S
C681 C687 1.507 . S
C682 C683 1.387 . S
C682 C686 1.391 . S
C683 C682 1.387 . S
C683 C684 1.384 . S
C683 H692 0.930 . S
C684 C681 1.380 . S
C684 C683 1.384 . S
C684 H693 0.931 . S
C685 C681 1.374 . S
C685 C686 1.390 . S
C685 H694 0.930 . S
C686 C682 1.391 . S
C686 C685 1.390 . S
C686 H695 0.930 . S
C687 Eu657 2.825 . S
C687 O672 1.238 . S
C687 O673 1.247 . S
C687 C681 1.507 . S
H688 C661 0.930 . S
H689 C662 0.931 . S
H690 C663 0.930 . S
H691 C664 0.930 . S
H692 C683 0.930 . S
H693 C684 0.931 . S
H694 C685 0.930 . S
H695 C686 0.930 . S
Tb696 C706 2.825 . S
Tb696 O707 2.347 . S
Tb696 O710 2.366 . S
Tb696 O715 2.418 . S
Tb696 O716 2.384 . S
Tb696 O719 2.479 . S
Tb696 O720 2.471 . S
Eu697 O708 2.418 . S
Eu697 O709 2.384 . S
Eu697 O712 2.479 . S
Eu697 O713 2.471 . S
Eu697 O714 2.347 . S
Eu697 O717 2.366 . S
Eu697 C727 2.825 . S
C698 O714 1.259 . S
C698 O715 1.265 . S
C699 O716 1.255 . S
C699 O717 1.265 . S
C700 C702 1.380 . S
C700 C703 1.374 . S
C700 C706 1.507 . S
C701 C702 1.384 . S
C701 C705 1.387 . S
C701 H728 0.930 . S
C702 C700 1.380 . S
C702 C701 1.384 . S
C702 H729 0.931 . S
C703 C700 1.374 . S
C703 C704 1.390 . S
C703 H730 0.930 . S
C704 C703 1.390 . S
C704 C705 1.391 . S
C704 H731 0.930 . S
C705 C701 1.387 . S
C705 C704 1.391 . S
C706 Tb696 2.825 . S
C706 C700 1.507 . S
C706 O719 1.238 . S
C706 O720 1.247 . S
O707 Tb696 2.347 . S
O707 C711 1.259 . S
O708 Eu697 2.418 . S
O708 C711 1.265 . S
O709 Eu697 2.384 . S
O709 C718 1.255 . S
O710 Tb696 2.366 . S
O710 C718 1.265 . S
C711 O707 1.259 . S
C711 O708 1.265 . S
O712 Eu697 2.479 . S
O712 C727 1.238 . S
O713 Eu697 2.471 . S
O713 C727 1.247 . S
O714 Eu697 2.347 . S
O714 C698 1.259 . S
O715 Tb696 2.418 . S
O715 C698 1.265 . S
O716 Tb696 2.384 . S
O716 C699 1.255 . S
O717 Eu697 2.366 . S
O717 C699 1.265 . S
C718 O709 1.255 . S
C718 O710 1.265 . S
O719 Tb696 2.479 . S
O719 C706 1.238 . S
O720 Tb696 2.471 . S
O720 C706 1.247 . S
C721 C724 1.380 . S
C721 C725 1.374 . S
C721 C727 1.507 . S
C722 C723 1.387 . S
C722 C726 1.391 . S
C723 C722 1.387 . S
C723 C724 1.384 . S
C723 H732 0.930 . S
C724 C721 1.380 . S
C724 C723 1.384 . S
C724 H733 0.931 . S
C725 C721 1.374 . S
C725 C726 1.390 . S
C725 H734 0.930 . S
C726 C722 1.391 . S
C726 C725 1.390 . S
C726 H735 0.930 . S
C727 Eu697 2.825 . S
C727 O712 1.238 . S
C727 O713 1.247 . S
C727 C721 1.507 . S
H728 C701 0.930 . S
H729 C702 0.931 . S
H730 C703 0.930 . S
H731 C704 0.930 . S
H732 C723 0.930 . S
H733 C724 0.931 . S
H734 C725 0.930 . S
H735 C726 0.930 . S
Tb736 C746 2.825 . S
Tb736 O747 2.347 . S
Tb736 O750 2.366 . S
Tb736 O755 2.418 . S
Tb736 O756 2.384 . S
Tb736 O759 2.479 . S
Tb736 O760 2.471 . S
Eu737 O748 2.418 . S
Eu737 O749 2.384 . S
Eu737 O752 2.479 . S
Eu737 O753 2.471 . S
Eu737 O754 2.347 . S
Eu737 O757 2.366 . S
Eu737 C767 2.825 . S
C738 O754 1.259 . S
C738 O755 1.265 . S
C739 O756 1.255 . S
C739 O757 1.265 . S
C740 C742 1.380 . S
C740 C743 1.374 . S
C740 C746 1.507 . S
C741 C742 1.384 . S
C741 C745 1.387 . S
C741 H768 0.930 . S
C742 C740 1.380 . S
C742 C741 1.384 . S
C742 H769 0.931 . S
C743 C740 1.374 . S
C743 C744 1.390 . S
C743 H770 0.930 . S
C744 C743 1.390 . S
C744 C745 1.391 . S
C744 H771 0.930 1_455 S
C745 C741 1.387 . S
C745 C744 1.391 . S
C746 Tb736 2.825 . S
C746 C740 1.507 . S
C746 O759 1.238 . S
C746 O760 1.247 . S
O747 Tb736 2.347 . S
O747 C751 1.259 . S
O748 Eu737 2.418 . S
O748 C751 1.265 . S
O749 Eu737 2.384 . S
O749 C758 1.255 . S
O750 Tb736 2.366 . S
O750 C758 1.265 . S
C751 O747 1.259 . S
C751 O748 1.265 . S
O752 Eu737 2.479 . S
O752 C767 1.238 . S
O753 Eu737 2.471 . S
O753 C767 1.247 . S
O754 Eu737 2.347 . S
O754 C738 1.259 . S
O755 Tb736 2.418 . S
O755 C738 1.265 . S
O756 Tb736 2.384 . S
O756 C739 1.255 . S
O757 Eu737 2.366 . S
O757 C739 1.265 . S
C758 O749 1.255 . S
C758 O750 1.265 . S
O759 Tb736 2.479 . S
O759 C746 1.238 . S
O760 Tb736 2.471 . S
O760 C746 1.247 . S
C761 C764 1.380 . S
C761 C765 1.374 . S
C761 C767 1.507 . S
C762 C763 1.387 . S
C762 C766 1.391 . S
C763 C762 1.387 . S
C763 C764 1.384 . S
C763 H772 0.930 . S
C764 C761 1.380 . S
C764 C763 1.384 . S
C764 H773 0.931 . S
C765 C761 1.374 . S
C765 C766 1.390 . S
C765 H774 0.930 . S
C766 C762 1.391 . S
C766 C765 1.390 . S
C766 H775 0.930 . S
C767 Eu737 2.825 . S
C767 O752 1.238 . S
C767 O753 1.247 . S
C767 C761 1.507 . S
H768 C741 0.930 . S
H769 C742 0.931 . S
H770 C743 0.930 . S
H771 C744 0.930 1_655 S
H772 C763 0.930 . S
H773 C764 0.931 . S
H774 C765 0.930 . S
H775 C766 0.930 . S
Tb776 C786 2.825 . S
Tb776 O787 2.347 . S
Tb776 O790 2.366 . S
Tb776 O795 2.418 . S
Tb776 O796 2.384 . S
Tb776 O799 2.479 . S
Tb776 O800 2.471 . S
Eu777 O788 2.418 . S
Eu777 O789 2.384 . S
Eu777 O792 2.479 . S
Eu777 O793 2.471 . S
Eu777 O794 2.347 . S
Eu777 O797 2.366 . S
Eu777 C807 2.825 . S
C778 O794 1.259 . S
C778 O795 1.265 . S
C779 O796 1.255 . S
C779 O797 1.265 . S
C780 C782 1.380 . S
C780 C783 1.374 . S
C780 C786 1.507 . S
C781 C782 1.384 . S
C781 C785 1.387 . S
C781 H808 0.930 . S
C782 C780 1.380 . S
C782 C781 1.384 . S
C782 H809 0.931 . S
C783 C780 1.374 . S
C783 C784 1.390 . S
C783 H810 0.930 . S
C784 C783 1.390 . S
C784 C785 1.391 . S
C784 H811 0.930 . S
C785 C781 1.387 . S
C785 C784 1.391 . S
C786 Tb776 2.825 . S
C786 C780 1.507 . S
C786 O799 1.238 . S
C786 O800 1.247 . S
O787 Tb776 2.347 . S
O787 C791 1.259 . S
O788 Eu777 2.418 . S
O788 C791 1.265 . S
O789 Eu777 2.384 . S
O789 C798 1.255 . S
O790 Tb776 2.366 . S
O790 C798 1.265 . S
C791 O787 1.259 . S
C791 O788 1.265 . S
O792 Eu777 2.479 . S
O792 C807 1.238 . S
O793 Eu777 2.471 . S
O793 C807 1.247 . S
O794 Eu777 2.347 . S
O794 C778 1.259 . S
O795 Tb776 2.418 . S
O795 C778 1.265 . S
O796 Tb776 2.384 . S
O796 C779 1.255 . S
O797 Eu777 2.366 . S
O797 C779 1.265 . S
C798 O789 1.255 . S
C798 O790 1.265 . S
O799 Tb776 2.479 . S
O799 C786 1.238 . S
O800 Tb776 2.471 . S
O800 C786 1.247 . S
C801 C804 1.380 . S
C801 C805 1.374 . S
C801 C807 1.507 . S
C802 C803 1.387 . S
C802 C806 1.391 . S
C803 C802 1.387 . S
C803 C804 1.384 . S
C803 H812 0.930 . S
C804 C801 1.380 . S
C804 C803 1.384 . S
C804 H813 0.931 . S
C805 C801 1.374 . S
C805 C806 1.390 . S
C805 H814 0.930 . S
C806 C802 1.391 . S
C806 C805 1.390 . S
C806 H815 0.930 . S
C807 Eu777 2.825 . S
C807 O792 1.238 . S
C807 O793 1.247 . S
C807 C801 1.507 . S
H808 C781 0.930 . S
H809 C782 0.931 . S
H810 C783 0.930 . S
H811 C784 0.930 . S
H812 C803 0.930 . S
H813 C804 0.931 . S
H814 C805 0.930 . S
H815 C806 0.930 . S
Tb816 C826 2.825 . S
Tb816 O827 2.347 . S
Tb816 O830 2.366 . S
Tb816 O835 2.418 . S
Tb816 O836 2.384 . S
Tb816 O839 2.479 . S
Tb816 O840 2.471 . S
Eu817 O828 2.418 . S
Eu817 O829 2.384 . S
Eu817 O832 2.479 . S
Eu817 O833 2.471 . S
Eu817 O834 2.347 . S
Eu817 O837 2.366 . S
Eu817 C847 2.825 . S
C818 O834 1.259 . S
C818 O835 1.265 . S
C819 O836 1.255 . S
C819 O837 1.265 . S
C820 C822 1.380 . S
C820 C823 1.374 . S
C820 C826 1.507 . S
C821 C822 1.384 . S
C821 C825 1.387 . S
C821 H848 0.930 . S
C822 C820 1.380 . S
C822 C821 1.384 . S
C822 H849 0.931 . S
C823 C820 1.374 . S
C823 C824 1.390 . S
C823 H850 0.930 . S
C824 C823 1.390 . S
C824 C825 1.391 . S
C824 H851 0.930 . S
C825 C821 1.387 . S
C825 C824 1.391 . S
C826 Tb816 2.825 . S
C826 C820 1.507 . S
C826 O839 1.238 . S
C826 O840 1.247 . S
O827 Tb816 2.347 . S
O827 C831 1.259 . S
O828 Eu817 2.418 . S
O828 C831 1.265 . S
O829 Eu817 2.384 . S
O829 C838 1.255 . S
O830 Tb816 2.366 . S
O830 C838 1.265 . S
C831 O827 1.259 . S
C831 O828 1.265 . S
O832 Eu817 2.479 . S
O832 C847 1.238 . S
O833 Eu817 2.471 . S
O833 C847 1.247 . S
O834 Eu817 2.347 . S
O834 C818 1.259 . S
O835 Tb816 2.418 . S
O835 C818 1.265 . S
O836 Tb816 2.384 . S
O836 C819 1.255 . S
O837 Eu817 2.366 . S
O837 C819 1.265 . S
C838 O829 1.255 . S
C838 O830 1.265 . S
O839 Tb816 2.479 . S
O839 C826 1.238 . S
O840 Tb816 2.471 . S
O840 C826 1.247 . S
C841 C844 1.380 . S
C841 C845 1.374 . S
C841 C847 1.507 . S
C842 C843 1.387 . S
C842 C846 1.391 . S
C843 C842 1.387 . S
C843 C844 1.384 . S
C843 H852 0.930 . S
C844 C841 1.380 . S
C844 C843 1.384 . S
C844 H853 0.931 . S
C845 C841 1.374 . S
C845 C846 1.390 . S
C845 H854 0.930 . S
C846 C842 1.391 . S
C846 C845 1.390 . S
C846 H855 0.930 . S
C847 Eu817 2.825 . S
C847 O832 1.238 . S
C847 O833 1.247 . S
C847 C841 1.507 . S
H848 C821 0.930 . S
H849 C822 0.931 . S
H850 C823 0.930 . S
H851 C824 0.930 . S
H852 C843 0.930 . S
H853 C844 0.931 . S
H854 C845 0.930 . S
H855 C846 0.930 . S
Tb856 C866 2.825 . S
Tb856 O867 2.347 . S
Tb856 O870 2.366 . S
Tb856 O875 2.418 . S
Tb856 O876 2.384 . S
Tb856 O879 2.479 . S
Tb856 O880 2.471 . S
Eu857 O868 2.418 . S
Eu857 O869 2.384 . S
Eu857 O872 2.479 . S
Eu857 O873 2.471 . S
Eu857 O874 2.347 . S
Eu857 O877 2.366 . S
Eu857 C887 2.825 . S
C858 O874 1.259 . S
C858 O875 1.265 . S
C859 O876 1.255 . S
C859 O877 1.265 . S
C860 C862 1.380 . S
C860 C863 1.374 . S
C860 C866 1.507 . S
C861 C862 1.384 . S
C861 C865 1.387 . S
C861 H888 0.930 . S
C862 C860 1.380 . S
C862 C861 1.384 . S
C862 H889 0.931 . S
C863 C860 1.374 . S
C863 C864 1.390 . S
C863 H890 0.930 . S
C864 C863 1.390 . S
C864 C865 1.391 . S
C864 H891 0.930 . S
C865 C861 1.387 . S
C865 C864 1.391 . S
C866 Tb856 2.825 . S
C866 C860 1.507 . S
C866 O879 1.238 . S
C866 O880 1.247 . S
O867 Tb856 2.347 . S
O867 C871 1.259 . S
O868 Eu857 2.418 . S
O868 C871 1.265 . S
O869 Eu857 2.384 . S
O869 C878 1.255 . S
O870 Tb856 2.366 . S
O870 C878 1.265 . S
C871 O867 1.259 . S
C871 O868 1.265 . S
O872 Eu857 2.479 . S
O872 C887 1.238 . S
O873 Eu857 2.471 . S
O873 C887 1.247 . S
O874 Eu857 2.347 . S
O874 C858 1.259 . S
O875 Tb856 2.418 . S
O875 C858 1.265 . S
O876 Tb856 2.384 . S
O876 C859 1.255 . S
O877 Eu857 2.366 . S
O877 C859 1.265 . S
C878 O869 1.255 . S
C878 O870 1.265 . S
O879 Tb856 2.479 . S
O879 C866 1.238 . S
O880 Tb856 2.471 . S
O880 C866 1.247 . S
C881 C884 1.380 . S
C881 C885 1.374 . S
C881 C887 1.507 . S
C882 C883 1.387 . S
C882 C886 1.391 . S
C883 C882 1.387 . S
C883 C884 1.384 . S
C883 H892 0.930 . S
C884 C881 1.380 . S
C884 C883 1.384 . S
C884 H893 0.931 . S
C885 C881 1.374 . S
C885 C886 1.390 . S
C885 H894 0.930 . S
C886 C882 1.391 . S
C886 C885 1.390 . S
C886 H895 0.930 . S
C887 Eu857 2.825 . S
C887 O872 1.238 . S
C887 O873 1.247 . S
C887 C881 1.507 . S
H888 C861 0.930 . S
H889 C862 0.931 . S
H890 C863 0.930 . S
H891 C864 0.930 . S
H892 C883 0.930 . S
H893 C884 0.931 . S
H894 C885 0.930 . S
H895 C886 0.930 . S
Tb896 C906 2.825 . S
Tb896 O907 2.347 . S
Tb896 O910 2.366 . S
Tb896 O915 2.418 . S
Tb896 O916 2.384 . S
Tb896 O919 2.479 . S
Tb896 O920 2.471 . S
Eu897 O908 2.418 . S
Eu897 O909 2.384 . S
Eu897 O912 2.479 . S
Eu897 O913 2.471 . S
Eu897 O914 2.347 . S
Eu897 O917 2.366 . S
Eu897 C927 2.825 . S
C898 O914 1.259 . S
C898 O915 1.265 . S
C899 O916 1.255 . S
C899 O917 1.265 . S
C900 C902 1.380 . S
C900 C903 1.374 . S
C900 C906 1.507 . S
C901 C902 1.384 . S
C901 C905 1.387 . S
C901 H928 0.930 . S
C902 C900 1.380 . S
C902 C901 1.384 . S
C902 H929 0.931 . S
C903 C900 1.374 . S
C903 C904 1.390 . S
C903 H930 0.930 . S
C904 C903 1.390 . S
C904 C905 1.391 . S
C904 H931 0.930 . S
C905 C901 1.387 . S
C905 C904 1.391 . S
C906 Tb896 2.825 . S
C906 C900 1.507 . S
C906 O919 1.238 . S
C906 O920 1.247 . S
O907 Tb896 2.347 . S
O907 C911 1.259 . S
O908 Eu897 2.418 . S
O908 C911 1.265 . S
O909 Eu897 2.384 . S
O909 C918 1.255 . S
O910 Tb896 2.366 . S
O910 C918 1.265 . S
C911 O907 1.259 . S
C911 O908 1.265 . S
O912 Eu897 2.479 . S
O912 C927 1.238 . S
O913 Eu897 2.471 . S
O913 C927 1.247 . S
O914 Eu897 2.347 . S
O914 C898 1.259 . S
O915 Tb896 2.418 . S
O915 C898 1.265 . S
O916 Tb896 2.384 . S
O916 C899 1.255 . S
O917 Eu897 2.366 . S
O917 C899 1.265 . S
C918 O909 1.255 . S
C918 O910 1.265 . S
O919 Tb896 2.479 . S
O919 C906 1.238 . S
O920 Tb896 2.471 . S
O920 C906 1.247 . S
C921 C924 1.380 . S
C921 C925 1.374 . S
C921 C927 1.507 . S
C922 C923 1.387 . S
C922 C926 1.391 . S
C923 C922 1.387 . S
C923 C924 1.384 . S
C923 H932 0.930 . S
C924 C921 1.380 . S
C924 C923 1.384 . S
C924 H933 0.931 . S
C925 C921 1.374 . S
C925 C926 1.390 . S
C925 H934 0.930 . S
C926 C922 1.391 . S
C926 C925 1.390 . S
C926 H935 0.930 . S
C927 Eu897 2.825 . S
C927 O912 1.238 . S
C927 O913 1.247 . S
C927 C921 1.507 . S
H928 C901 0.930 . S
H929 C902 0.931 . S
H930 C903 0.930 . S
H931 C904 0.930 . S
H932 C923 0.930 . S
H933 C924 0.931 . S
H934 C925 0.930 . S
H935 C926 0.930 . S
Tb936 C946 2.825 . S
Tb936 O947 2.347 . S
Tb936 O950 2.366 . S
Tb936 O955 2.418 . S
Tb936 O956 2.384 . S
Tb936 O959 2.479 . S
Tb936 O960 2.429 1_554 S
Eu937 O948 2.418 1_554 S
Eu937 O949 2.384 . S
Eu937 O952 2.479 . S
Eu937 O953 2.471 . S
Eu937 O954 2.347 . S
Eu937 O957 2.366 . S
Eu937 C967 2.825 . S
C938 O954 1.259 . S
C938 O955 1.265 . S
C939 O956 1.255 . S
C939 O957 1.265 . S
C940 C942 1.380 . S
C940 C943 1.374 1_554 S
C940 C946 1.507 . S
C941 C942 1.384 . S
C941 C945 1.387 1_554 S
C941 H968 0.930 . S
C942 C940 1.380 . S
C942 C941 1.384 . S
C942 H969 0.931 . S
C943 C940 1.374 1_556 S
C943 C944 1.390 . S
C943 H970 0.930 . S
C944 C943 1.390 . S
C944 C945 1.391 . S
C944 H971 0.930 . S
C945 C941 1.387 1_556 S
C945 C944 1.391 . S
C946 Tb936 2.825 . S
C946 C940 1.507 . S
C946 O959 1.238 . S
C946 O960 1.206 1_554 S
O947 Tb936 2.347 . S
O947 C951 1.259 1_554 S
O948 Eu937 2.418 1_556 S
O948 C951 1.265 . S
O949 Eu937 2.384 . S
O949 C958 1.255 . S
O950 Tb936 2.366 . S
O950 C958 1.265 . S
C951 O947 1.259 1_556 S
C951 O948 1.265 . S
O952 Eu937 2.479 . S
O952 C967 1.238 . S
O953 Eu937 2.471 . S
O953 C967 1.247 . S
O954 Eu937 2.347 . S
O954 C938 1.259 . S
O955 Tb936 2.418 . S
O955 C938 1.265 . S
O956 Tb936 2.384 . S
O956 C939 1.255 . S
O957 Eu937 2.366 . S
O957 C939 1.265 . S
C958 O949 1.255 . S
C958 O950 1.265 . S
O959 Tb936 2.479 . S
O959 C946 1.238 . S
O960 Tb936 2.429 1_556 S
O960 C946 1.206 1_556 S
C961 C964 1.380 . S
C961 C965 1.374 . S
C961 C967 1.507 . S
C962 C963 1.387 . S
C962 C966 1.391 . S
C963 C962 1.387 . S
C963 C964 1.384 . S
C963 H972 0.930 . S
C964 C961 1.380 . S
C964 C963 1.384 . S
C964 H973 0.931 . S
C965 C961 1.374 . S
C965 C966 1.390 . S
C965 H974 0.930 . S
C966 C962 1.391 . S
C966 C965 1.390 . S
C966 H975 0.930 . S
C967 Eu937 2.825 . S
C967 O952 1.238 . S
C967 O953 1.247 . S
C967 C961 1.507 . S
H968 C941 0.930 . S
H969 C942 0.931 . S
H970 C943 0.930 . S
H971 C944 0.930 . S
H972 C963 0.930 . S
H973 C964 0.931 . S
H974 C965 0.930 . S
H975 C966 0.930 . S
H976 C994 0.951 . S
H977 C996 0.951 . S
H978 C998 0.950 . S
H979 C999 0.950 . S
H980 C1001 0.950 . S
H981 C1004 0.950 . S
H982 C1005 0.950 . S
H983 C1007 0.950 . S
H984 C1008 0.950 . S
H985 C1009 0.951 . S
H986 C1011 0.951 . S
H987 C1013 0.925 1_655 S
H988 C1014 0.950 . S
H989 C1016 0.950 . S
H990 C1019 0.950 . S
H991 C1020 0.950 . S
H992 C1022 0.950 . S
H993 C1023 0.950 . S
C994 H976 0.951 . S
C994 C995 1.366 1_655 S
C994 C996 1.388 . S
C995 C994 1.366 1_455 S
C995 C999 1.385 . S
C996 H977 0.951 . S
C996 C994 1.388 . S
C996 C997 1.366 1_655 S
C997 C996 1.366 1_455 S
C997 C998 1.414 . S
C997 C1000 1.499 . S
C998 H978 0.950 . S
C998 C997 1.414 . S
C998 C999 1.374 . S
C999 H979 0.950 . S
C999 C995 1.385 . S
C999 C998 1.374 . S
C1000 C997 1.499 . S
C1000 C1001 1.373 . S
C1000 C1002 1.389 . S
C1001 H980 0.950 . S
C1001 C1000 1.373 . S
C1001 C1017 1.377 . S
C1002 C1000 1.389 . S
C1002 C1003 1.524 . S
C1002 C1016 1.377 . S
C1003 C1002 1.524 . S
C1003 C1004 1.397 . S
C1003 C1008 1.363 1_455 S
C1004 H981 0.950 . S
C1004 C1003 1.397 . S
C1004 C1005 1.334 . S
C1005 H982 0.950 . S
C1005 C1004 1.334 . S
C1005 C1006 1.287 1_456 S
C1006 C1005 1.287 1_654 S
C1006 C1007 1.524 . S
C1006 H1025 0.913 . S
C1007 H983 0.950 . S
C1007 C1006 1.524 . S
C1007 C1008 1.415 1_554 S
C1008 H984 0.950 . S
C1008 C1003 1.363 1_655 S
C1008 C1007 1.415 1_556 S
C1009 H985 0.951 . S
C1009 C1010 1.382 . S
C1009 C1011 1.372 1_554 S
C1010 C1009 1.382 . S
C1010 C1014 1.385 . S
C1011 H986 0.951 . S
C1011 C1009 1.372 1_556 S
C1011 C1012 1.366 . S
C1012 C1011 1.366 . S
C1012 C1013 1.414 . S
C1012 C1015 1.499 . S
C1013 H987 0.925 1_455 S
C1013 C1012 1.414 . S
C1013 C1014 1.374 1_556 S
C1014 H988 0.950 . S
C1014 C1010 1.385 . S
C1014 C1013 1.374 1_554 S
C1015 C1012 1.499 . S
C1015 C1016 1.373 . S
C1015 C1017 1.389 . S
C1016 H989 0.950 . S
C1016 C1002 1.377 . S
C1016 C1015 1.373 . S
C1017 C1001 1.377 . S
C1017 C1015 1.389 . S
C1017 C1018 1.524 . S
C1018 C1017 1.524 . S
C1018 C1019 1.397 . S
C1018 C1023 1.363 . S
C1019 H990 0.950 . S
C1019 C1018 1.397 . S
C1019 C1020 1.334 . S
C1020 H991 0.950 . S
C1020 C1019 1.334 . S
C1020 C1021 1.287 . S
C1021 C1020 1.287 . S
C1021 C1022 1.524 . S
C1021 H1024 0.999 . S
C1022 H992 0.950 . S
C1022 C1021 1.524 . S
C1022 C1023 1.415 . S
C1023 H993 0.950 . S
C1023 C1018 1.363 . S
C1023 C1022 1.415 . S
H1024 C1021 0.999 . S
H1025 C1006 0.913 . S
H1026 C1044 0.951 . S
H1027 C1046 0.951 . S
H1028 C1048 0.950 . S
H1029 C1049 0.950 . S
H1030 C1051 0.950 . S
H1031 C1054 0.950 . S
H1032 C1055 0.950 . S
H1033 C1057 0.950 . S
H1034 C1058 0.950 . S
H1035 C1059 0.951 . S
H1036 C1061 0.951 . S
H1037 C1063 0.950 . S
H1038 C1064 0.950 . S
H1039 C1066 0.950 . S
H1040 C1069 0.950 . S
H1041 C1070 0.950 . S
H1042 C1072 0.950 . S
H1043 C1073 0.950 . S
C1044 H1026 0.951 . S
C1044 C1045 1.366 . S
C1044 C1046 1.388 . S
C1045 C1044 1.366 . S
C1045 C1049 1.385 . S
C1046 H1027 0.951 . S
C1046 C1044 1.388 . S
C1046 C1047 1.366 . S
C1047 C1046 1.366 . S
C1047 C1048 1.414 . S
C1047 C1050 1.499 . S
C1048 H1028 0.950 . S
C1048 C1047 1.414 . S
C1048 C1049 1.374 . S
C1049 H1029 0.950 . S
C1049 C1045 1.385 . S
C1049 C1048 1.374 . S
C1050 C1047 1.499 . S
C1050 C1051 1.373 . S
C1050 C1052 1.389 . S
C1051 H1030 0.950 . S
C1051 C1050 1.373 . S
C1051 C1067 1.377 . S
C1052 C1050 1.389 . S
C1052 C1053 1.524 . S
C1052 C1066 1.377 . S
C1053 C1052 1.524 . S
C1053 C1054 1.397 . S
C1053 C1058 1.363 . S
C1054 H1031 0.950 . S
C1054 C1053 1.397 . S
C1054 C1055 1.334 . S
C1055 H1032 0.950 . S
C1055 C1054 1.334 . S
C1055 C1056 1.287 . S
C1056 C1055 1.287 . S
C1056 C1057 1.524 . S
C1056 H1075 0.913 . S
C1057 H1033 0.950 . S
C1057 C1056 1.524 . S
C1057 C1058 1.415 . S
C1058 H1034 0.950 . S
C1058 C1053 1.363 . S
C1058 C1057 1.415 . S
C1059 H1035 0.951 . S
C1059 C1060 1.366 . S
C1059 C1061 1.388 . S
C1060 C1059 1.366 . S
C1060 C1064 1.385 . S
C1061 H1036 0.951 . S
C1061 C1059 1.388 . S
C1061 C1062 1.366 . S
C1062 C1061 1.366 . S
C1062 C1063 1.414 . S
C1062 C1065 1.499 . S
C1063 H1037 0.950 . S
C1063 C1062 1.414 . S
C1063 C1064 1.374 . S
C1064 H1038 0.950 . S
C1064 C1060 1.385 . S
C1064 C1063 1.374 . S
C1065 C1062 1.499 . S
C1065 C1066 1.373 . S
C1065 C1067 1.389 . S
C1066 H1039 0.950 . S
C1066 C1052 1.377 . S
C1066 C1065 1.373 . S
C1067 C1051 1.377 . S
C1067 C1065 1.389 . S
C1067 C1068 1.524 . S
C1068 C1067 1.524 . S
C1068 C1069 1.397 . S
C1068 C1073 1.363 . S
C1069 H1040 0.950 . S
C1069 C1068 1.397 . S
C1069 C1070 1.334 . S
C1070 H1041 0.950 . S
C1070 C1069 1.334 . S
C1070 C1071 1.287 . S
C1071 C1070 1.287 . S
C1071 C1072 1.524 . S
C1071 H1074 0.999 . S
C1072 H1042 0.950 . S
C1072 C1071 1.524 . S
C1072 C1073 1.415 . S
C1073 H1043 0.950 . S
C1073 C1068 1.363 . S
C1073 C1072 1.415 . S
H1074 C1071 0.999 . S
H1075 C1056 0.913 . S
H1076 C1094 0.951 . S
H1077 C1096 0.951 . S
H1078 C1098 0.950 . S
H1079 C1099 0.950 . S
H1080 C1101 0.950 . S
H1081 C1104 0.950 . S
H1082 C1105 0.950 . S
H1083 C1107 0.950 . S
H1084 C1108 0.950 . S
H1085 C1109 0.951 . S
H1086 C1111 0.951 . S
H1087 C1113 0.950 . S
H1088 C1114 0.950 . S
H1089 C1116 0.950 . S
H1090 C1119 0.950 . S
H1091 C1120 0.950 . S
H1092 C1122 0.950 . S
H1093 C1123 0.950 . S
C1094 H1076 0.951 . S
C1094 C1095 1.366 . S
C1094 C1096 1.388 . S
C1095 C1094 1.366 . S
C1095 C1099 1.385 . S
C1096 H1077 0.951 . S
C1096 C1094 1.388 . S
C1096 C1097 1.366 . S
C1097 C1096 1.366 . S
C1097 C1098 1.414 . S
C1097 C1100 1.499 . S
C1098 H1078 0.950 . S
C1098 C1097 1.414 . S
C1098 C1099 1.374 . S
C1099 H1079 0.950 . S
C1099 C1095 1.385 . S
C1099 C1098 1.374 . S
C1100 C1097 1.499 . S
C1100 C1101 1.373 . S
C1100 C1102 1.389 . S
C1101 H1080 0.950 . S
C1101 C1100 1.373 . S
C1101 C1117 1.377 . S
C1102 C1100 1.389 . S
C1102 C1103 1.524 . S
C1102 C1116 1.377 . S
C1103 C1102 1.524 . S
C1103 C1104 1.397 . S
C1103 C1108 1.363 . S
C1104 H1081 0.950 . S
C1104 C1103 1.397 . S
C1104 C1105 1.334 . S
C1105 H1082 0.950 . S
C1105 C1104 1.334 . S
C1105 C1106 1.287 . S
C1106 C1105 1.287 . S
C1106 C1107 1.524 . S
C1106 H1125 0.913 . S
C1107 H1083 0.950 . S
C1107 C1106 1.524 . S
C1107 C1108 1.415 . S
C1108 H1084 0.950 . S
C1108 C1103 1.363 . S
C1108 C1107 1.415 . S
C1109 H1085 0.951 . S
C1109 C1110 1.366 . S
C1109 C1111 1.388 . S
C1110 C1109 1.366 . S
C1110 C1114 1.385 . S
C1111 H1086 0.951 . S
C1111 C1109 1.388 . S
C1111 C1112 1.366 . S
C1112 C1111 1.366 . S
C1112 C1113 1.414 . S
C1112 C1115 1.499 . S
C1113 H1087 0.950 . S
C1113 C1112 1.414 . S
C1113 C1114 1.374 . S
C1114 H1088 0.950 . S
C1114 C1110 1.385 . S
C1114 C1113 1.374 . S
C1115 C1112 1.499 . S
C1115 C1116 1.373 . S
C1115 C1117 1.389 . S
C1116 H1089 0.950 . S
C1116 C1102 1.377 . S
C1116 C1115 1.373 . S
C1117 C1101 1.377 . S
C1117 C1115 1.389 . S
C1117 C1118 1.524 . S
C1118 C1117 1.524 . S
C1118 C1119 1.397 . S
C1118 C1123 1.363 . S
C1119 H1090 0.950 . S
C1119 C1118 1.397 . S
C1119 C1120 1.334 . S
C1120 H1091 0.950 . S
C1120 C1119 1.334 . S
C1120 C1121 1.287 . S
C1121 C1120 1.287 . S
C1121 C1122 1.524 . S
C1121 H1124 0.999 . S
C1122 H1092 0.950 . S
C1122 C1121 1.524 . S
C1122 C1123 1.415 . S
C1123 H1093 0.950 . S
C1123 C1118 1.363 . S
C1123 C1122 1.415 . S
H1124 C1121 0.999 . S
H1125 C1106 0.913 . S
H1126 C1144 0.951 . S
H1127 C1146 0.951 . S
H1128 C1148 0.950 . S
H1129 C1149 0.950 . S
H1130 C1151 0.950 . S
H1131 C1154 0.950 . S
H1132 C1155 0.950 . S
H1133 C1157 0.950 . S
H1134 C1158 0.950 . S
H1135 C1159 0.951 . S
H1136 C1161 0.951 . S
H1137 C1163 0.950 . S
H1138 C1164 0.950 . S
H1139 C1166 0.950 . S
H1140 C1169 0.950 . S
H1141 C1170 0.950 . S
H1142 C1172 0.950 . S
H1143 C1173 0.950 . S
C1144 H1126 0.951 . S
C1144 C1145 1.366 . S
C1144 C1146 1.388 . S
C1145 C1144 1.366 . S
C1145 C1149 1.385 . S
C1146 H1127 0.951 . S
C1146 C1144 1.388 . S
C1146 C1147 1.366 . S
C1147 C1146 1.366 . S
C1147 C1148 1.414 . S
C1147 C1150 1.499 . S
C1148 H1128 0.950 . S
C1148 C1147 1.414 . S
C1148 C1149 1.374 . S
C1149 H1129 0.950 . S
C1149 C1145 1.385 . S
C1149 C1148 1.374 . S
C1150 C1147 1.499 . S
C1150 C1151 1.373 . S
C1150 C1152 1.389 . S
C1151 H1130 0.950 . S
C1151 C1150 1.373 . S
C1151 C1167 1.377 . S
C1152 C1150 1.389 . S
C1152 C1153 1.524 . S
C1152 C1166 1.377 . S
C1153 C1152 1.524 . S
C1153 C1154 1.397 . S
C1153 C1158 1.363 . S
C1154 H1131 0.950 . S
C1154 C1153 1.397 . S
C1154 C1155 1.334 . S
C1155 H1132 0.950 . S
C1155 C1154 1.334 . S
C1155 C1156 1.287 . S
C1156 C1155 1.287 . S
C1156 C1157 1.524 . S
C1156 H1175 0.913 . S
C1157 H1133 0.950 . S
C1157 C1156 1.524 . S
C1157 C1158 1.415 . S
C1158 H1134 0.950 . S
C1158 C1153 1.363 . S
C1158 C1157 1.415 . S
C1159 H1135 0.951 . S
C1159 C1160 1.366 . S
C1159 C1161 1.388 . S
C1160 C1159 1.366 . S
C1160 C1164 1.385 . S
C1161 H1136 0.951 . S
C1161 C1159 1.388 . S
C1161 C1162 1.366 . S
C1162 C1161 1.366 . S
C1162 C1163 1.414 . S
C1162 C1165 1.499 . S
C1163 H1137 0.950 . S
C1163 C1162 1.414 . S
C1163 C1164 1.374 . S
C1164 H1138 0.950 . S
C1164 C1160 1.385 . S
C1164 C1163 1.374 . S
C1165 C1162 1.499 . S
C1165 C1166 1.373 . S
C1165 C1167 1.389 . S
C1166 H1139 0.950 . S
C1166 C1152 1.377 . S
C1166 C1165 1.373 . S
C1167 C1151 1.377 . S
C1167 C1165 1.389 . S
C1167 C1168 1.524 . S
C1168 C1167 1.524 . S
C1168 C1169 1.397 . S
C1168 C1173 1.363 . S
C1169 H1140 0.950 . S
C1169 C1168 1.397 . S
C1169 C1170 1.334 . S
C1170 H1141 0.950 . S
C1170 C1169 1.334 . S
C1170 C1171 1.287 . S
C1171 C1170 1.287 . S
C1171 C1172 1.524 . S
C1171 H1174 0.999 . S
C1172 H1142 0.950 . S
C1172 C1171 1.524 . S
C1172 C1173 1.415 . S
C1173 H1143 0.950 . S
C1173 C1168 1.363 . S
C1173 C1172 1.415 . S
H1174 C1171 0.999 . S
H1175 C1156 0.913 . S
H1176 C1194 0.951 . S
H1177 C1196 0.951 . S
H1178 C1198 0.950 . S
H1179 C1199 0.950 . S
H1180 C1201 0.950 . S
H1181 C1204 0.950 . S
H1182 C1205 0.950 . S
H1183 C1207 0.950 . S
H1184 C1208 0.950 . S
H1185 C1209 0.951 . S
H1186 C1211 0.951 . S
H1187 C1213 0.950 . S
H1188 C1214 0.950 . S
H1189 C1216 0.950 . S
H1190 C1219 0.950 . S
H1191 C1220 0.950 . S
H1192 C1222 0.950 . S
H1193 C1223 0.950 . S
C1194 H1176 0.951 . S
C1194 C1195 1.366 . S
C1194 C1196 1.388 . S
C1195 C1194 1.366 . S
C1195 C1199 1.385 . S
C1196 H1177 0.951 . S
C1196 C1194 1.388 . S
C1196 C1197 1.366 . S
C1197 C1196 1.366 . S
C1197 C1198 1.414 . S
C1197 C1200 1.499 . S
C1198 H1178 0.950 . S
C1198 C1197 1.414 . S
C1198 C1199 1.374 . S
C1199 H1179 0.950 . S
C1199 C1195 1.385 . S
C1199 C1198 1.374 . S
C1200 C1197 1.499 . S
C1200 C1201 1.373 . S
C1200 C1202 1.389 . S
C1201 H1180 0.950 . S
C1201 C1200 1.373 . S
C1201 C1217 1.377 . S
C1202 C1200 1.389 . S
C1202 C1203 1.524 . S
C1202 C1216 1.377 . S
C1203 C1202 1.524 . S
C1203 C1204 1.397 . S
C1203 C1208 1.363 . S
C1204 H1181 0.950 . S
C1204 C1203 1.397 . S
C1204 C1205 1.334 . S
C1205 H1182 0.950 . S
C1205 C1204 1.334 . S
C1205 C1206 1.287 . S
C1206 C1205 1.287 . S
C1206 C1207 1.524 . S
C1206 H1225 0.913 . S
C1207 H1183 0.950 . S
C1207 C1206 1.524 . S
C1207 C1208 1.415 . S
C1208 H1184 0.950 . S
C1208 C1203 1.363 . S
C1208 C1207 1.415 . S
C1209 H1185 0.951 . S
C1209 C1210 1.366 . S
C1209 C1211 1.388 . S
C1210 C1209 1.366 . S
C1210 C1214 1.385 . S
C1211 H1186 0.951 . S
C1211 C1209 1.388 . S
C1211 C1212 1.366 . S
C1212 C1211 1.366 . S
C1212 C1213 1.414 . S
C1212 C1215 1.499 . S
C1213 H1187 0.950 . S
C1213 C1212 1.414 . S
C1213 C1214 1.374 . S
C1214 H1188 0.950 . S
C1214 C1210 1.385 . S
C1214 C1213 1.374 . S
C1215 C1212 1.499 . S
C1215 C1216 1.373 . S
C1215 C1217 1.389 . S
C1216 H1189 0.950 . S
C1216 C1202 1.377 . S
C1216 C1215 1.373 . S
C1217 C1201 1.377 . S
C1217 C1215 1.389 . S
C1217 C1218 1.524 . S
C1218 C1217 1.524 . S
C1218 C1219 1.397 . S
C1218 C1223 1.363 . S
C1219 H1190 0.950 . S
C1219 C1218 1.397 . S
C1219 C1220 1.334 . S
C1220 H1191 0.950 . S
C1220 C1219 1.334 . S
C1220 C1221 1.287 . S
C1221 C1220 1.287 . S
C1221 C1222 1.524 . S
C1221 H1224 0.999 . S
C1222 H1192 0.950 . S
C1222 C1221 1.524 . S
C1222 C1223 1.415 . S
C1223 H1193 0.950 . S
C1223 C1218 1.363 . S
C1223 C1222 1.415 . S
H1224 C1221 0.999 . S
H1225 C1206 0.913 . S
H1226 C1244 0.951 . S
H1227 C1246 0.951 . S
H1228 C1248 0.950 . S
H1229 C1249 0.950 . S
H1230 C1251 0.950 . S
H1231 C1254 0.950 . S
H1232 C1255 0.950 . S
H1233 C1257 0.950 . S
H1234 C1258 0.950 . S
H1235 C1259 0.951 . S
H1236 C1261 0.951 . S
H1237 C1263 0.950 . S
H1238 C1264 0.950 . S
H1239 C1266 0.950 . S
H1240 C1269 0.950 . S
H1241 C1270 0.950 . S
H1242 C1272 0.950 . S
H1243 C1273 0.950 . S
C1244 H1226 0.951 . S
C1244 C1245 1.366 . S
C1244 C1246 1.388 . S
C1245 C1244 1.366 . S
C1245 C1249 1.385 . S
C1246 H1227 0.951 . S
C1246 C1244 1.388 . S
C1246 C1247 1.366 . S
C1247 C1246 1.366 . S
C1247 C1248 1.414 . S
C1247 C1250 1.499 . S
C1248 H1228 0.950 . S
C1248 C1247 1.414 . S
C1248 C1249 1.374 . S
C1249 H1229 0.950 . S
C1249 C1245 1.385 . S
C1249 C1248 1.374 . S
C1250 C1247 1.499 . S
C1250 C1251 1.373 . S
C1250 C1252 1.389 . S
C1251 H1230 0.950 . S
C1251 C1250 1.373 . S
C1251 C1267 1.377 . S
C1252 C1250 1.389 . S
C1252 C1253 1.524 . S
C1252 C1266 1.377 . S
C1253 C1252 1.524 . S
C1253 C1254 1.397 . S
C1253 C1258 1.363 . S
C1254 H1231 0.950 . S
C1254 C1253 1.397 . S
C1254 C1255 1.334 . S
C1255 H1232 0.950 . S
C1255 C1254 1.334 . S
C1255 C1256 1.287 . S
C1256 C1255 1.287 . S
C1256 C1257 1.524 . S
C1256 H1275 0.913 . S
C1257 H1233 0.950 . S
C1257 C1256 1.524 . S
C1257 C1258 1.415 . S
C1258 H1234 0.950 . S
C1258 C1253 1.363 . S
C1258 C1257 1.415 . S
C1259 H1235 0.951 . S
C1259 C1260 1.366 . S
C1259 C1261 1.388 . S
C1260 C1259 1.366 . S
C1260 C1264 1.385 . S
C1261 H1236 0.951 . S
C1261 C1259 1.388 . S
C1261 C1262 1.366 . S
C1262 C1261 1.366 . S
C1262 C1263 1.414 . S
C1262 C1265 1.499 . S
C1263 H1237 0.950 . S
C1263 C1262 1.414 . S
C1263 C1264 1.374 . S
C1264 H1238 0.950 . S
C1264 C1260 1.385 . S
C1264 C1263 1.374 . S
C1265 C1262 1.499 . S
C1265 C1266 1.373 . S
C1265 C1267 1.389 . S
C1266 H1239 0.950 . S
C1266 C1252 1.377 . S
C1266 C1265 1.373 . S
C1267 C1251 1.377 . S
C1267 C1265 1.389 . S
C1267 C1268 1.524 . S
C1268 C1267 1.524 . S
C1268 C1269 1.397 . S
C1268 C1273 1.363 . S
C1269 H1240 0.950 . S
C1269 C1268 1.397 . S
C1269 C1270 1.334 . S
C1270 H1241 0.950 . S
C1270 C1269 1.334 . S
C1270 C1271 1.287 . S
C1271 C1270 1.287 . S
C1271 C1272 1.524 . S
C1271 H1274 0.999 . S
C1272 H1242 0.950 . S
C1272 C1271 1.524 . S
C1272 C1273 1.415 . S
C1273 H1243 0.950 . S
C1273 C1268 1.363 . S
C1273 C1272 1.415 . S
H1274 C1271 0.999 . S
H1275 C1256 0.913 . S
H1276 C1294 0.951 . S
H1277 C1296 0.951 . S
H1278 C1298 0.950 . S
H1279 C1299 0.950 . S
H1280 C1301 0.950 . S
H1281 C1304 0.950 . S
H1282 C1305 0.950 . S
H1283 C1307 0.950 . S
H1284 C1308 0.950 . S
H1285 C1309 0.951 . S
H1286 C1311 0.951 . S
H1287 C1313 0.950 . S
H1288 C1314 0.950 . S
H1289 C1316 0.950 . S
H1290 C1319 0.950 . S
H1291 C1320 0.950 . S
H1292 C1322 0.950 . S
H1293 C1323 0.950 . S
C1294 H1276 0.951 . S
C1294 C1295 1.366 . S
C1294 C1296 1.388 . S
C1295 C1294 1.366 . S
C1295 C1299 1.385 . S
C1296 H1277 0.951 . S
C1296 C1294 1.388 . S
C1296 C1297 1.366 . S
C1297 C1296 1.366 . S
C1297 C1298 1.414 . S
C1297 C1300 1.499 . S
C1298 H1278 0.950 . S
C1298 C1297 1.414 . S
C1298 C1299 1.374 . S
C1299 H1279 0.950 . S
C1299 C1295 1.385 . S
C1299 C1298 1.374 . S
C1300 C1297 1.499 . S
C1300 C1301 1.373 . S
C1300 C1302 1.389 . S
C1301 H1280 0.950 . S
C1301 C1300 1.373 . S
C1301 C1317 1.377 . S
C1302 C1300 1.389 . S
C1302 C1303 1.524 . S
C1302 C1316 1.377 . S
C1303 C1302 1.524 . S
C1303 C1304 1.397 . S
C1303 C1308 1.363 . S
C1304 H1281 0.950 . S
C1304 C1303 1.397 . S
C1304 C1305 1.334 . S
C1305 H1282 0.950 . S
C1305 C1304 1.334 . S
C1305 C1306 1.287 . S
C1306 C1305 1.287 . S
C1306 C1307 1.524 . S
C1306 H1325 0.913 . S
C1307 H1283 0.950 . S
C1307 C1306 1.524 . S
C1307 C1308 1.415 . S
C1308 H1284 0.950 . S
C1308 C1303 1.363 . S
C1308 C1307 1.415 . S
C1309 H1285 0.951 . S
C1309 C1310 1.366 . S
C1309 C1311 1.388 . S
C1310 C1309 1.366 . S
C1310 C1314 1.385 . S
C1311 H1286 0.951 . S
C1311 C1309 1.388 . S
C1311 C1312 1.366 . S
C1312 C1311 1.366 . S
C1312 C1313 1.414 . S
C1312 C1315 1.499 . S
C1313 H1287 0.950 . S
C1313 C1312 1.414 . S
C1313 C1314 1.374 . S
C1314 H1288 0.950 . S
C1314 C1310 1.385 . S
C1314 C1313 1.374 . S
C1315 C1312 1.499 . S
C1315 C1316 1.373 . S
C1315 C1317 1.389 . S
C1316 H1289 0.950 . S
C1316 C1302 1.377 . S
C1316 C1315 1.373 . S
C1317 C1301 1.377 . S
C1317 C1315 1.389 . S
C1317 C1318 1.524 . S
C1318 C1317 1.524 . S
C1318 C1319 1.397 . S
C1318 C1323 1.363 . S
C1319 H1290 0.950 . S
C1319 C1318 1.397 . S
C1319 C1320 1.334 . S
C1320 H1291 0.950 . S
C1320 C1319 1.334 . S
C1320 C1321 1.287 . S
C1321 C1320 1.287 . S
C1321 C1322 1.524 . S
C1321 H1324 0.999 . S
C1322 H1292 0.950 . S
C1322 C1321 1.524 . S
C1322 C1323 1.415 . S
C1323 H1293 0.950 . S
C1323 C1318 1.363 . S
C1323 C1322 1.415 . S
H1324 C1321 0.999 . S
H1325 C1306 0.913 . S
H1326 C1344 0.951 . S
H1327 C1346 0.951 . S
H1328 C1348 0.950 . S
H1329 C1349 0.950 . S
H1330 C1351 0.950 . S
H1331 C1354 0.950 . S
H1332 C1355 0.950 . S
H1333 C1357 0.950 . S
H1334 C1358 0.950 . S
H1335 C1359 0.951 . S
H1336 C1361 0.951 . S
H1337 C1363 0.950 . S
H1338 C1364 0.950 . S
H1339 C1366 0.950 . S
H1340 C1369 0.950 . S
H1341 C1370 0.950 . S
H1342 C1372 0.950 . S
H1343 C1373 0.950 . S
C1344 H1326 0.951 . S
C1344 C1345 1.366 . S
C1344 C1346 1.388 . S
C1345 C1344 1.366 . S
C1345 C1349 1.385 . S
C1346 H1327 0.951 . S
C1346 C1344 1.388 . S
C1346 C1347 1.366 . S
C1347 C1346 1.366 . S
C1347 C1348 1.414 . S
C1347 C1350 1.499 . S
C1348 H1328 0.950 . S
C1348 C1347 1.414 . S
C1348 C1349 1.374 . S
C1349 H1329 0.950 . S
C1349 C1345 1.385 . S
C1349 C1348 1.374 . S
C1350 C1347 1.499 . S
C1350 C1351 1.373 . S
C1350 C1352 1.389 . S
C1351 H1330 0.950 . S
C1351 C1350 1.373 . S
C1351 C1367 1.377 . S
C1352 C1350 1.389 . S
C1352 C1353 1.524 . S
C1352 C1366 1.377 . S
C1353 C1352 1.524 . S
C1353 C1354 1.397 . S
C1353 C1358 1.363 . S
C1354 H1331 0.950 . S
C1354 C1353 1.397 . S
C1354 C1355 1.334 . S
C1355 H1332 0.950 . S
C1355 C1354 1.334 . S
C1355 C1356 1.287 . S
C1356 C1355 1.287 . S
C1356 C1357 1.524 . S
C1356 H1375 0.913 . S
C1357 H1333 0.950 . S
C1357 C1356 1.524 . S
C1357 C1358 1.415 . S
C1358 H1334 0.950 . S
C1358 C1353 1.363 . S
C1358 C1357 1.415 . S
C1359 H1335 0.951 . S
C1359 C1360 1.366 . S
C1359 C1361 1.388 . S
C1360 C1359 1.366 . S
C1360 C1364 1.385 . S
C1361 H1336 0.951 . S
C1361 C1359 1.388 . S
C1361 C1362 1.366 . S
C1362 C1361 1.366 . S
C1362 C1363 1.414 . S
C1362 C1365 1.499 . S
C1363 H1337 0.950 . S
C1363 C1362 1.414 . S
C1363 C1364 1.374 . S
C1364 H1338 0.950 . S
C1364 C1360 1.385 . S
C1364 C1363 1.374 . S
C1365 C1362 1.499 . S
C1365 C1366 1.373 . S
C1365 C1367 1.389 . S
C1366 H1339 0.950 . S
C1366 C1352 1.377 . S
C1366 C1365 1.373 . S
C1367 C1351 1.377 . S
C1367 C1365 1.389 . S
C1367 C1368 1.524 . S
C1368 C1367 1.524 . S
C1368 C1369 1.397 . S
C1368 C1373 1.363 . S
C1369 H1340 0.950 . S
C1369 C1368 1.397 . S
C1369 C1370 1.334 . S
C1370 H1341 0.950 . S
C1370 C1369 1.334 . S
C1370 C1371 1.287 . S
C1371 C1370 1.287 . S
C1371 C1372 1.524 . S
C1371 H1374 0.999 . S
C1372 H1342 0.950 . S
C1372 C1371 1.524 . S
C1372 C1373 1.415 . S
C1373 H1343 0.950 . S
C1373 C1368 1.363 . S
C1373 C1372 1.415 . S
H1374 C1371 0.999 . S
H1375 C1356 0.913 . S
H1376 C1394 0.951 . S
H1377 C1396 0.951 . S
H1378 C1398 0.950 . S
H1379 C1399 0.950 . S
H1380 C1401 0.950 . S
H1381 C1404 0.950 . S
H1382 C1405 0.950 . S
H1383 C1407 0.950 . S
H1384 C1408 0.950 . S
H1385 C1409 0.951 . S
H1386 C1411 0.951 . S
H1387 C1413 0.950 . S
H1388 C1414 0.950 . S
H1389 C1416 0.950 . S
H1390 C1419 0.950 . S
H1391 C1420 0.950 . S
H1392 C1422 0.950 . S
H1393 C1423 0.950 . S
C1394 H1376 0.951 . S
C1394 C1395 1.366 . S
C1394 C1396 1.388 . S
C1395 C1394 1.366 . S
C1395 C1399 1.385 1_545 S
C1396 H1377 0.951 . S
C1396 C1394 1.388 . S
C1396 C1397 1.366 . S
C1397 C1396 1.366 . S
C1397 C1398 1.414 1_545 S
C1397 C1400 1.499 . S
C1398 H1378 0.950 . S
C1398 C1397 1.414 1_565 S
C1398 C1399 1.374 . S
C1399 H1379 0.950 . S
C1399 C1395 1.385 1_565 S
C1399 C1398 1.374 . S
C1400 C1397 1.499 . S
C1400 C1401 1.373 . S
C1400 C1402 1.389 . S
C1401 H1380 0.950 . S
C1401 C1400 1.373 . S
C1401 C1417 1.377 . S
C1402 C1400 1.389 . S
C1402 C1403 1.524 . S
C1402 C1416 1.377 . S
C1403 C1402 1.524 . S
C1403 C1404 1.397 1_545 S
C1403 C1408 1.363 . S
C1404 H1381 0.950 . S
C1404 C1403 1.397 1_565 S
C1404 C1405 1.334 . S
C1405 H1382 0.950 . S
C1405 C1404 1.334 . S
C1405 C1406 1.287 . S
C1406 C1405 1.287 . S
C1406 C1407 1.524 1_565 S
C1406 H1425 0.913 . S
C1407 H1383 0.950 . S
C1407 C1406 1.524 1_545 S
C1407 C1408 1.415 . S
C1408 H1384 0.950 . S
C1408 C1403 1.363 . S
C1408 C1407 1.415 . S
C1409 H1385 0.951 . S
C1409 C1410 1.366 . S
C1409 C1411 1.388 . S
C1410 C1409 1.366 . S
C1410 C1414 1.385 . S
C1411 H1386 0.951 . S
C1411 C1409 1.388 . S
C1411 C1412 1.366 1_455 S
C1412 C1411 1.366 1_655 S
C1412 C1413 1.414 . S
C1412 C1415 1.499 . S
C1413 H1387 0.950 . S
C1413 C1412 1.414 . S
C1413 C1414 1.374 1_655 S
C1414 H1388 0.950 . S
C1414 C1410 1.385 . S
C1414 C1413 1.374 1_455 S
C1415 C1412 1.499 . S
C1415 C1416 1.373 . S
C1415 C1417 1.389 . S
C1416 H1389 0.950 . S
C1416 C1402 1.377 . S
C1416 C1415 1.373 . S
C1417 C1401 1.377 . S
C1417 C1415 1.389 . S
C1417 C1418 1.524 1_655 S
C1418 C1417 1.524 1_455 S
C1418 C1419 1.397 . S
C1418 C1423 1.363 . S
C1419 H1390 0.950 . S
C1419 C1418 1.397 . S
C1419 C1420 1.334 . S
C1420 H1391 0.950 . S
C1420 C1419 1.334 . S
C1420 C1421 1.287 . S
C1421 C1420 1.287 . S
C1421 C1422 1.524 . S
C1421 H1424 0.999 . S
C1422 H1392 0.950 . S
C1422 C1421 1.524 . S
C1422 C1423 1.415 . S
C1423 H1393 0.950 . S
C1423 C1418 1.363 . S
C1423 C1422 1.415 . S
H1424 C1421 0.999 . S
H1425 C1406 0.913 . S
H1426 C1444 0.951 . S
H1427 C1446 0.951 . S
H1428 C1448 0.950 . S
H1429 C1449 0.950 . S
H1430 C1451 0.950 . S
H1431 C1454 0.950 . S
H1432 C1455 0.950 . S
H1433 C1457 0.950 . S
H1434 C1458 0.950 . S
H1435 C1459 0.951 . S
H1436 C1461 0.951 . S
H1437 C1463 0.950 . S
H1438 C1464 0.950 . S
H1439 C1466 0.950 . S
H1440 C1469 0.950 . S
H1441 C1470 0.950 . S
H1442 C1472 0.950 . S
H1443 C1473 0.950 . S
C1444 H1426 0.951 . S
C1444 C1445 1.366 . S
C1444 C1446 1.388 . S
C1445 C1444 1.366 . S
C1445 C1449 1.385 . S
C1446 H1427 0.951 . S
C1446 C1444 1.388 . S
C1446 C1447 1.366 . S
C1447 C1446 1.366 . S
C1447 C1448 1.414 . S
C1447 C1450 1.499 . S
C1448 H1428 0.950 . S
C1448 C1447 1.414 . S
C1448 C1449 1.374 . S
C1449 H1429 0.950 . S
C1449 C1445 1.385 . S
C1449 C1448 1.374 . S
C1450 C1447 1.499 . S
C1450 C1451 1.373 . S
C1450 C1452 1.389 . S
C1451 H1430 0.950 . S
C1451 C1450 1.373 . S
C1451 C1467 1.377 . S
C1452 C1450 1.389 . S
C1452 C1453 1.524 . S
C1452 C1466 1.377 . S
C1453 C1452 1.524 . S
C1453 C1454 1.397 . S
C1453 C1458 1.363 . S
C1454 H1431 0.950 . S
C1454 C1453 1.397 . S
C1454 C1455 1.334 . S
C1455 H1432 0.950 . S
C1455 C1454 1.334 . S
C1455 C1456 1.287 . S
C1456 C1455 1.287 . S
C1456 C1457 1.524 . S
C1456 H1475 0.913 . S
C1457 H1433 0.950 . S
C1457 C1456 1.524 . S
C1457 C1458 1.415 . S
C1458 H1434 0.950 . S
C1458 C1453 1.363 . S
C1458 C1457 1.415 . S
C1459 H1435 0.951 . S
C1459 C1460 1.366 . S
C1459 C1461 1.388 . S
C1460 C1459 1.366 . S
C1460 C1464 1.385 . S
C1461 H1436 0.951 . S
C1461 C1459 1.388 . S
C1461 C1462 1.366 . S
C1462 C1461 1.366 . S
C1462 C1463 1.414 . S
C1462 C1465 1.499 . S
C1463 H1437 0.950 . S
C1463 C1462 1.414 . S
C1463 C1464 1.374 . S
C1464 H1438 0.950 . S
C1464 C1460 1.385 . S
C1464 C1463 1.374 . S
C1465 C1462 1.499 . S
C1465 C1466 1.373 . S
C1465 C1467 1.389 . S
C1466 H1439 0.950 . S
C1466 C1452 1.377 . S
C1466 C1465 1.373 . S
C1467 C1451 1.377 . S
C1467 C1465 1.389 . S
C1467 C1468 1.524 . S
C1468 C1467 1.524 . S
C1468 C1469 1.397 . S
C1468 C1473 1.363 . S
C1469 H1440 0.950 . S
C1469 C1468 1.397 . S
C1469 C1470 1.334 . S
C1470 H1441 0.950 . S
C1470 C1469 1.334 . S
C1470 C1471 1.287 . S
C1471 C1470 1.287 . S
C1471 C1472 1.524 . S
C1471 H1474 0.999 . S
C1472 H1442 0.950 . S
C1472 C1471 1.524 . S
C1472 C1473 1.415 . S
C1473 H1443 0.950 . S
C1473 C1468 1.363 . S
C1473 C1472 1.415 . S
H1474 C1471 0.999 . S
H1475 C1456 0.913 . S
H1476 C1494 0.951 . S
H1477 C1496 0.951 . S
H1478 C1498 0.950 . S
H1479 C1499 0.950 . S
H1480 C1501 0.950 . S
H1481 C1504 0.950 . S
H1482 C1505 0.950 1_545 S
H1483 C1507 0.950 . S
H1484 C1508 0.950 . S
H1485 C1509 0.951 . S
H1486 C1511 0.951 . S
H1487 C1513 0.950 . S
H1488 C1514 0.933 1_565 S
H1489 C1516 0.932 1_565 S
H1490 C1519 0.936 1_565 S
H1491 C1520 0.950 . S
H1492 C1522 0.950 . S
H1493 C1523 0.950 . S
C1494 H1476 0.951 . S
C1494 C1495 1.366 . S
C1494 C1496 1.388 . S
C1495 C1494 1.366 . S
C1495 C1499 1.385 1_565 S
C1496 H1477 0.951 . S
C1496 C1494 1.388 . S
C1496 C1497 1.366 1_565 S
C1497 C1496 1.366 1_545 S
C1497 C1498 1.414 . S
C1497 C1500 1.499 . S
C1498 H1478 0.950 . S
C1498 C1497 1.414 . S
C1498 C1499 1.374 . S
C1499 H1479 0.950 . S
C1499 C1495 1.385 1_545 S
C1499 C1498 1.374 . S
C1500 C1497 1.499 . S
C1500 C1501 1.373 . S
C1500 C1502 1.372 1_545 S
C1501 H1480 0.950 . S
C1501 C1500 1.373 . S
C1501 C1517 1.377 . S
C1502 C1500 1.372 1_565 S
C1502 C1503 1.553 . S
C1502 C1516 1.357 1_565 S
C1503 C1502 1.553 . S
C1503 C1504 1.397 1_565 S
C1503 C1508 1.363 . S
C1504 H1481 0.950 . S
C1504 C1503 1.397 1_545 S
C1504 C1505 1.334 1_545 S
C1505 H1482 0.950 1_565 S
C1505 C1504 1.334 1_565 S
C1505 C1506 1.287 . S
C1506 C1505 1.287 . S
C1506 C1507 1.524 . S
C1506 H1525 0.913 . S
C1507 H1483 0.950 . S
C1507 C1506 1.524 . S
C1507 C1508 1.415 . S
C1508 H1484 0.950 . S
C1508 C1503 1.363 . S
C1508 C1507 1.415 . S
C1509 H1485 0.951 . S
C1509 C1510 1.366 . S
C1509 C1511 1.388 . S
C1510 C1509 1.366 . S
C1510 C1514 1.409 . S
C1511 H1486 0.951 . S
C1511 C1509 1.388 . S
C1511 C1512 1.366 . S
C1512 C1511 1.366 . S
C1512 C1513 1.414 1_545 S
C1512 C1515 1.499 . S
C1513 H1487 0.950 . S
C1513 C1512 1.414 1_565 S
C1513 C1514 1.367 1_565 S
C1514 H1488 0.933 1_545 S
C1514 C1510 1.409 . S
C1514 C1513 1.367 1_545 S
C1515 C1512 1.499 . S
C1515 C1516 1.405 . S
C1515 C1517 1.389 . S
C1516 H1489 0.932 1_545 S
C1516 C1502 1.357 1_545 S
C1516 C1515 1.405 . S
C1517 C1501 1.377 . S
C1517 C1515 1.389 . S
C1517 C1518 1.524 . S
C1518 C1517 1.524 . S
C1518 C1519 1.397 . S
C1518 C1523 1.363 . S
C1519 H1490 0.936 1_545 S
C1519 C1518 1.397 . S
C1519 C1520 1.334 . S
C1520 H1491 0.950 . S
C1520 C1519 1.334 . S
C1520 C1521 1.287 . S
C1521 C1520 1.287 . S
C1521 C1522 1.524 . S
C1521 H1524 0.999 . S
C1522 H1492 0.950 . S
C1522 C1521 1.524 . S
C1522 C1523 1.415 . S
C1523 H1493 0.950 . S
C1523 C1518 1.363 . S
C1523 C1522 1.415 . S
H1524 C1521 0.999 . S
H1525 C1506 0.913 . S
H1526 C1544 0.951 . S
H1527 C1546 0.951 . S
H1528 C1548 0.950 . S
H1529 C1549 0.950 . S
H1530 C1551 0.950 . S
H1531 C1554 0.950 . S
H1532 C1555 0.950 . S
H1533 C1557 0.950 . S
H1534 C1558 0.950 . S
H1535 C1559 0.951 . S
H1536 C1561 0.951 . S
H1537 C1563 0.950 . S
H1538 C1564 0.950 . S
H1539 C1566 0.950 . S
H1540 C1569 0.950 . S
H1541 C1570 0.950 . S
H1542 C1572 0.950 . S
H1543 C1573 0.950 . S
C1544 H1526 0.951 . S
C1544 C1545 1.366 . S
C1544 C1546 1.388 . S
C1545 C1544 1.366 . S
C1545 C1549 1.385 . S
C1546 H1527 0.951 . S
C1546 C1544 1.388 . S
C1546 C1547 1.366 . S
C1547 C1546 1.366 . S
C1547 C1548 1.414 . S
C1547 C1550 1.499 . S
C1548 H1528 0.950 . S
C1548 C1547 1.414 . S
C1548 C1549 1.374 . S
C1549 H1529 0.950 . S
C1549 C1545 1.385 . S
C1549 C1548 1.374 . S
C1550 C1547 1.499 . S
C1550 C1551 1.373 . S
C1550 C1552 1.389 . S
C1551 H1530 0.950 . S
C1551 C1550 1.373 . S
C1551 C1567 1.377 . S
C1552 C1550 1.389 . S
C1552 C1553 1.524 . S
C1552 C1566 1.377 . S
C1553 C1552 1.524 . S
C1553 C1554 1.397 . S
C1553 C1558 1.363 . S
C1554 H1531 0.950 . S
C1554 C1553 1.397 . S
C1554 C1555 1.334 . S
C1555 H1532 0.950 . S
C1555 C1554 1.334 . S
C1555 C1556 1.287 . S
C1556 C1555 1.287 . S
C1556 C1557 1.524 . S
C1556 H1575 0.913 . S
C1557 H1533 0.950 . S
C1557 C1556 1.524 . S
C1557 C1558 1.415 . S
C1558 H1534 0.950 . S
C1558 C1553 1.363 . S
C1558 C1557 1.415 . S
C1559 H1535 0.951 . S
C1559 C1560 1.366 . S
C1559 C1561 1.388 . S
C1560 C1559 1.366 . S
C1560 C1564 1.385 . S
C1561 H1536 0.951 . S
C1561 C1559 1.388 . S
C1561 C1562 1.366 . S
C1562 C1561 1.366 . S
C1562 C1563 1.414 . S
C1562 C1565 1.499 . S
C1563 H1537 0.950 . S
C1563 C1562 1.414 . S
C1563 C1564 1.374 . S
C1564 H1538 0.950 . S
C1564 C1560 1.385 . S
C1564 C1563 1.374 . S
C1565 C1562 1.499 . S
C1565 C1566 1.373 . S
C1565 C1567 1.389 . S
C1566 H1539 0.950 . S
C1566 C1552 1.377 . S
C1566 C1565 1.373 . S
C1567 C1551 1.377 . S
C1567 C1565 1.389 . S
C1567 C1568 1.524 . S
C1568 C1567 1.524 . S
C1568 C1569 1.397 . S
C1568 C1573 1.363 . S
C1569 H1540 0.950 . S
C1569 C1568 1.397 . S
C1569 C1570 1.334 . S
C1570 H1541 0.950 . S
C1570 C1569 1.334 . S
C1570 C1571 1.287 . S
C1571 C1570 1.287 . S
C1571 C1572 1.524 . S
C1571 H1574 0.999 . S
C1572 H1542 0.950 . S
C1572 C1571 1.524 . S
C1572 C1573 1.415 . S
C1573 H1543 0.950 . S
C1573 C1568 1.363 . S
C1573 C1572 1.415 . S
H1574 C1571 0.999 . S
H1575 C1556 0.913 . S
H1576 C1594 0.951 . S
H1577 C1596 0.951 . S
H1578 C1598 0.950 . S
H1579 C1599 0.950 . S
H1580 C1601 0.999 . S
H1581 C1604 0.950 . S
H1582 C1605 0.950 . S
H1583 C1607 0.950 . S
H1584 C1608 0.950 . S
H1585 C1609 0.951 . S
H1586 C1611 0.935 1_455 S
H1587 C1613 0.950 . S
H1588 C1614 0.950 . S
H1589 C1616 0.950 . S
H1590 C1619 0.950 . S
H1591 C1620 0.950 . S
H1592 C1622 0.950 . S
H1593 C1623 0.950 . S
C1594 H1576 0.951 . S
C1594 C1595 1.366 . S
C1594 C1596 1.388 . S
C1595 C1594 1.366 . S
C1595 C1599 1.385 . S
C1596 H1577 0.951 . S
C1596 C1594 1.388 . S
C1596 C1597 1.366 . S
C1597 C1596 1.366 . S
C1597 C1598 1.414 . S
C1597 C1600 1.499 . S
C1598 H1578 0.950 . S
C1598 C1597 1.414 . S
C1598 C1599 1.374 . S
C1599 H1579 0.950 . S
C1599 C1595 1.385 . S
C1599 C1598 1.374 . S
C1600 C1597 1.499 . S
C1600 C1601 1.320 1_545 S
C1600 C1602 1.389 . S
C1601 H1580 0.999 . S
C1601 C1600 1.320 1_565 S
C1601 C1617 1.386 . S
C1602 C1600 1.389 . S
C1602 C1603 1.524 . S
C1602 C1616 1.377 . S
C1603 C1602 1.524 . S
C1603 C1604 1.397 . S
C1603 C1608 1.363 . S
C1604 H1581 0.950 . S
C1604 C1603 1.397 . S
C1604 C1605 1.334 . S
C1605 H1582 0.950 . S
C1605 C1604 1.334 . S
C1605 C1606 1.287 . S
C1606 C1605 1.287 . S
C1606 C1607 1.524 . S
C1606 H1625 0.913 . S
C1607 H1583 0.950 . S
C1607 C1606 1.524 . S
C1607 C1608 1.415 . S
C1608 H1584 0.950 . S
C1608 C1603 1.363 . S
C1608 C1607 1.415 . S
C1609 H1585 0.951 . S
C1609 C1610 1.366 . S
C1609 C1611 1.377 1_455 S
C1610 C1609 1.366 . S
C1610 C1614 1.385 1_455 S
C1611 H1586 0.935 1_655 S
C1611 C1609 1.377 1_655 S
C1611 C1612 1.393 . S
C1612 C1611 1.393 . S
C1612 C1613 1.414 . S
C1612 C1615 1.499 . S
C1613 H1587 0.950 . S
C1613 C1612 1.414 . S
C1613 C1614 1.374 . S
C1614 H1588 0.950 . S
C1614 C1610 1.385 1_655 S
C1614 C1613 1.374 . S
C1615 C1612 1.499 . S
C1615 C1616 1.373 . S
C1615 C1617 1.390 1_545 S
C1616 H1589 0.950 . S
C1616 C1602 1.377 . S
C1616 C1615 1.373 . S
C1617 C1601 1.386 . S
C1617 C1615 1.390 1_565 S
C1617 C1618 1.523 . S
C1618 C1617 1.523 . S
C1618 C1619 1.397 . S
C1618 C1623 1.363 . S
C1619 H1590 0.950 . S
C1619 C1618 1.397 . S
C1619 C1620 1.334 . S
C1620 H1591 0.950 . S
C1620 C1619 1.334 . S
C1620 C1621 1.287 . S
C1621 C1620 1.287 . S
C1621 C1622 1.524 1_655 S
C1621 H1624 0.999 1_655 S
C1622 H1592 0.950 . S
C1622 C1621 1.524 1_455 S
C1622 C1623 1.415 1_455 S
C1623 H1593 0.950 . S
C1623 C1618 1.363 . S
C1623 C1622 1.415 1_655 S
H1624 C1621 0.999 1_455 S
H1625 C1606 0.913 . S
H1626 C1644 0.951 . S
H1627 C1646 0.951 . S
H1628 C1648 0.950 . S
H1629 C1649 0.950 . S
H1630 C1651 0.950 . S
H1631 C1654 0.950 . S
H1632 C1655 0.950 . S
H1633 C1657 0.950 . S
H1634 C1658 0.950 . S
H1635 C1659 0.951 . S
H1636 C1661 0.951 . S
H1637 C1663 0.950 . S
H1638 C1664 0.950 . S
H1639 C1666 0.950 . S
H1640 C1669 0.950 . S
H1641 C1670 0.950 . S
H1642 C1672 0.950 . S
H1643 C1673 0.950 . S
C1644 H1626 0.951 . S
C1644 C1645 1.366 . S
C1644 C1646 1.388 . S
C1645 C1644 1.366 . S
C1645 C1649 1.385 . S
C1646 H1627 0.951 . S
C1646 C1644 1.388 . S
C1646 C1647 1.366 . S
C1647 C1646 1.366 . S
C1647 C1648 1.414 . S
C1647 C1650 1.499 . S
C1648 H1628 0.950 . S
C1648 C1647 1.414 . S
C1648 C1649 1.374 . S
C1649 H1629 0.950 . S
C1649 C1645 1.385 . S
C1649 C1648 1.374 . S
C1650 C1647 1.499 . S
C1650 C1651 1.373 . S
C1650 C1652 1.389 . S
C1651 H1630 0.950 . S
C1651 C1650 1.373 . S
C1651 C1667 1.377 . S
C1652 C1650 1.389 . S
C1652 C1653 1.524 . S
C1652 C1666 1.377 . S
C1653 C1652 1.524 . S
C1653 C1654 1.397 . S
C1653 C1658 1.363 . S
C1654 H1631 0.950 . S
C1654 C1653 1.397 . S
C1654 C1655 1.334 . S
C1655 H1632 0.950 . S
C1655 C1654 1.334 . S
C1655 C1656 1.287 . S
C1656 C1655 1.287 . S
C1656 C1657 1.524 . S
C1656 H1675 0.913 . S
C1657 H1633 0.950 . S
C1657 C1656 1.524 . S
C1657 C1658 1.415 . S
C1658 H1634 0.950 . S
C1658 C1653 1.363 . S
C1658 C1657 1.415 . S
C1659 H1635 0.951 . S
C1659 C1660 1.366 . S
C1659 C1661 1.388 . S
C1660 C1659 1.366 . S
C1660 C1664 1.385 . S
C1661 H1636 0.951 . S
C1661 C1659 1.388 . S
C1661 C1662 1.366 . S
C1662 C1661 1.366 . S
C1662 C1663 1.414 . S
C1662 C1665 1.499 . S
C1663 H1637 0.950 . S
C1663 C1662 1.414 . S
C1663 C1664 1.374 . S
C1664 H1638 0.950 . S
C1664 C1660 1.385 . S
C1664 C1663 1.374 . S
C1665 C1662 1.499 . S
C1665 C1666 1.373 . S
C1665 C1667 1.389 . S
C1666 H1639 0.950 . S
C1666 C1652 1.377 . S
C1666 C1665 1.373 . S
C1667 C1651 1.377 . S
C1667 C1665 1.389 . S
C1667 C1668 1.524 . S
C1668 C1667 1.524 . S
C1668 C1669 1.397 . S
C1668 C1673 1.363 . S
C1669 H1640 0.950 . S
C1669 C1668 1.397 . S
C1669 C1670 1.334 . S
C1670 H1641 0.950 . S
C1670 C1669 1.334 . S
C1670 C1671 1.287 . S
C1671 C1670 1.287 . S
C1671 C1672 1.524 . S
C1671 H1674 0.999 . S
C1672 H1642 0.950 . S
C1672 C1671 1.524 . S
C1672 C1673 1.415 . S
C1673 H1643 0.950 . S
C1673 C1668 1.363 . S
C1673 C1672 1.415 . S
H1674 C1671 0.999 . S
H1675 C1656 0.913 . S
H1676 C1694 0.951 . S
H1677 C1696 0.951 . S
H1678 C1698 0.950 . S
H1679 C1699 0.950 . S
H1680 C1701 0.950 . S
H1681 C1704 0.950 . S
H1682 C1705 0.950 . S
H1683 C1707 0.950 . S
H1684 C1708 0.950 . S
H1685 C1709 0.951 . S
H1686 C1711 0.951 . S
H1687 C1713 0.950 . S
H1688 C1714 0.950 . S
H1689 C1716 0.950 . S
H1690 C1719 0.950 . S
H1691 C1720 0.950 . S
H1692 C1722 0.950 . S
H1693 C1723 0.950 . S
C1694 H1676 0.951 . S
C1694 C1695 1.366 1_545 S
C1694 C1696 1.388 . S
C1695 C1694 1.366 1_565 S
C1695 C1699 1.385 . S
C1696 H1677 0.951 . S
C1696 C1694 1.388 . S
C1696 C1697 1.366 . S
C1697 C1696 1.366 . S
C1697 C1698 1.414 1_545 S
C1697 C1700 1.499 . S
C1698 H1678 0.950 . S
C1698 C1697 1.414 1_565 S
C1698 C1699 1.374 . S
C1699 H1679 0.950 . S
C1699 C1695 1.385 . S
C1699 C1698 1.374 . S
C1700 C1697 1.499 . S
C1700 C1701 1.373 . S
C1700 C1702 1.389 . S
C1701 H1680 0.950 . S
C1701 C1700 1.373 . S
C1701 C1717 1.377 . S
C1702 C1700 1.389 . S
C1702 C1703 1.524 . S
C1702 C1716 1.377 . S
C1703 C1702 1.524 . S
C1703 C1704 1.397 1_545 S
C1703 C1708 1.363 . S
C1704 H1681 0.950 . S
C1704 C1703 1.397 1_565 S
C1704 C1705 1.334 . S
C1705 H1682 0.950 . S
C1705 C1704 1.334 . S
C1705 C1706 1.287 . S
C1706 C1705 1.287 . S
C1706 C1707 1.524 1_565 S
C1706 H1725 0.913 . S
C1707 H1683 0.950 . S
C1707 C1706 1.524 1_545 S
C1707 C1708 1.415 . S
C1708 H1684 0.950 . S
C1708 C1703 1.363 . S
C1708 C1707 1.415 . S
C1709 H1685 0.951 . S
C1709 C1710 1.366 . S
C1709 C1711 1.388 . S
C1710 C1709 1.366 . S
C1710 C1714 1.385 . S
C1711 H1686 0.951 . S
C1711 C1709 1.388 . S
C1711 C1712 1.366 . S
C1712 C1711 1.366 . S
C1712 C1713 1.414 . S
C1712 C1715 1.499 . S
C1713 H1687 0.950 . S
C1713 C1712 1.414 . S
C1713 C1714 1.374 . S
C1714 H1688 0.950 . S
C1714 C1710 1.385 . S
C1714 C1713 1.374 . S
C1715 C1712 1.499 . S
C1715 C1716 1.373 . S
C1715 C1717 1.389 . S
C1716 H1689 0.950 . S
C1716 C1702 1.377 . S
C1716 C1715 1.373 . S
C1717 C1701 1.377 . S
C1717 C1715 1.389 . S
C1717 C1718 1.524 . S
C1718 C1717 1.524 . S
C1718 C1719 1.397 . S
C1718 C1723 1.363 . S
C1719 H1690 0.950 . S
C1719 C1718 1.397 . S
C1719 C1720 1.334 . S
C1720 H1691 0.950 . S
C1720 C1719 1.334 . S
C1720 C1721 1.287 . S
C1721 C1720 1.287 . S
C1721 C1722 1.524 . S
C1721 H1724 0.999 . S
C1722 H1692 0.950 . S
C1722 C1721 1.524 . S
C1722 C1723 1.415 . S
C1723 H1693 0.950 . S
C1723 C1718 1.363 . S
C1723 C1722 1.415 . S
H1724 C1721 0.999 . S
H1725 C1706 0.913 . S
H1726 C1744 0.951 . S
H1727 C1746 0.951 . S
H1728 C1748 0.950 . S
H1729 C1749 0.950 . S
H1730 C1751 0.950 . S
H1731 C1754 0.950 . S
H1732 C1755 0.950 . S
H1733 C1757 0.950 . S
H1734 C1758 0.950 . S
H1735 C1759 0.951 . S
H1736 C1761 0.951 . S
H1737 C1763 0.950 . S
H1738 C1764 0.950 . S
H1739 C1766 0.950 . S
H1740 C1769 0.950 . S
H1741 C1770 0.950 . S
H1742 C1772 0.950 . S
H1743 C1773 0.950 . S
C1744 H1726 0.951 . S
C1744 C1745 1.366 . S
C1744 C1746 1.388 . S
C1745 C1744 1.366 . S
C1745 C1749 1.385 . S
C1746 H1727 0.951 . S
C1746 C1744 1.388 . S
C1746 C1747 1.366 . S
C1747 C1746 1.366 . S
C1747 C1748 1.414 . S
C1747 C1750 1.499 . S
C1748 H1728 0.950 . S
C1748 C1747 1.414 . S
C1748 C1749 1.374 . S
C1749 H1729 0.950 . S
C1749 C1745 1.385 . S
C1749 C1748 1.374 . S
C1750 C1747 1.499 . S
C1750 C1751 1.373 . S
C1750 C1752 1.389 . S
C1751 H1730 0.950 . S
C1751 C1750 1.373 . S
C1751 C1767 1.377 . S
C1752 C1750 1.389 . S
C1752 C1753 1.524 . S
C1752 C1766 1.377 . S
C1753 C1752 1.524 . S
C1753 C1754 1.397 . S
C1753 C1758 1.363 . S
C1754 H1731 0.950 . S
C1754 C1753 1.397 . S
C1754 C1755 1.334 . S
C1755 H1732 0.950 . S
C1755 C1754 1.334 . S
C1755 C1756 1.287 . S
C1756 C1755 1.287 . S
C1756 C1757 1.524 . S
C1756 H1775 0.913 . S
C1757 H1733 0.950 . S
C1757 C1756 1.524 . S
C1757 C1758 1.415 . S
C1758 H1734 0.950 . S
C1758 C1753 1.363 . S
C1758 C1757 1.415 . S
C1759 H1735 0.951 . S
C1759 C1760 1.366 . S
C1759 C1761 1.388 . S
C1760 C1759 1.366 . S
C1760 C1764 1.385 . S
C1761 H1736 0.951 . S
C1761 C1759 1.388 . S
C1761 C1762 1.366 . S
C1762 C1761 1.366 . S
C1762 C1763 1.414 . S
C1762 C1765 1.499 . S
C1763 H1737 0.950 . S
C1763 C1762 1.414 . S
C1763 C1764 1.374 . S
C1764 H1738 0.950 . S
C1764 C1760 1.385 . S
C1764 C1763 1.374 . S
C1765 C1762 1.499 . S
C1765 C1766 1.373 . S
C1765 C1767 1.389 . S
C1766 H1739 0.950 . S
C1766 C1752 1.377 . S
C1766 C1765 1.373 . S
C1767 C1751 1.377 . S
C1767 C1765 1.389 . S
C1767 C1768 1.524 . S
C1768 C1767 1.524 . S
C1768 C1769 1.397 . S
C1768 C1773 1.363 . S
C1769 H1740 0.950 . S
C1769 C1768 1.397 . S
C1769 C1770 1.334 . S
C1770 H1741 0.950 . S
C1770 C1769 1.334 . S
C1770 C1771 1.287 . S
C1771 C1770 1.287 . S
C1771 C1772 1.524 . S
C1771 H1774 0.999 . S
C1772 H1742 0.950 . S
C1772 C1771 1.524 . S
C1772 C1773 1.415 . S
C1773 H1743 0.950 . S
C1773 C1768 1.363 . S
C1773 C1772 1.415 . S
H1774 C1771 0.999 . S
H1775 C1756 0.913 . S
H1776 C1794 0.951 . S
H1777 C1796 0.951 . S
H1778 C1798 0.950 . S
H1779 C1799 0.950 . S
H1780 C1801 0.950 . S
H1781 C1804 0.950 . S
H1782 C1805 0.950 . S
H1783 C1807 0.950 . S
H1784 C1808 0.950 . S
H1785 C1809 0.951 . S
H1786 C1811 0.951 . S
H1787 C1813 0.950 . S
H1788 C1814 0.950 . S
H1789 C1816 0.950 . S
H1790 C1819 0.950 . S
H1791 C1820 0.950 . S
H1792 C1822 0.950 . S
H1793 C1823 0.950 . S
C1794 H1776 0.951 . S
C1794 C1795 1.366 . S
C1794 C1796 1.388 . S
C1795 C1794 1.366 . S
C1795 C1799 1.385 . S
C1796 H1777 0.951 . S
C1796 C1794 1.388 . S
C1796 C1797 1.366 . S
C1797 C1796 1.366 . S
C1797 C1798 1.414 . S
C1797 C1800 1.499 . S
C1798 H1778 0.950 . S
C1798 C1797 1.414 . S
C1798 C1799 1.374 . S
C1799 H1779 0.950 . S
C1799 C1795 1.385 . S
C1799 C1798 1.374 . S
C1800 C1797 1.499 . S
C1800 C1801 1.373 . S
C1800 C1802 1.389 . S
C1801 H1780 0.950 . S
C1801 C1800 1.373 . S
C1801 C1817 1.377 . S
C1802 C1800 1.389 . S
C1802 C1803 1.524 . S
C1802 C1816 1.377 . S
C1803 C1802 1.524 . S
C1803 C1804 1.397 . S
C1803 C1808 1.363 . S
C1804 H1781 0.950 . S
C1804 C1803 1.397 . S
C1804 C1805 1.334 . S
C1805 H1782 0.950 . S
C1805 C1804 1.334 . S
C1805 C1806 1.287 . S
C1806 C1805 1.287 . S
C1806 C1807 1.524 . S
C1806 H1825 0.913 . S
C1807 H1783 0.950 . S
C1807 C1806 1.524 . S
C1807 C1808 1.415 . S
C1808 H1784 0.950 . S
C1808 C1803 1.363 . S
C1808 C1807 1.415 . S
C1809 H1785 0.951 . S
C1809 C1810 1.366 . S
C1809 C1811 1.388 . S
C1810 C1809 1.366 . S
C1810 C1814 1.385 . S
C1811 H1786 0.951 . S
C1811 C1809 1.388 . S
C1811 C1812 1.366 . S
C1812 C1811 1.366 . S
C1812 C1813 1.414 . S
C1812 C1815 1.499 . S
C1813 H1787 0.950 . S
C1813 C1812 1.414 . S
C1813 C1814 1.374 . S
C1814 H1788 0.950 . S
C1814 C1810 1.385 . S
C1814 C1813 1.374 . S
C1815 C1812 1.499 . S
C1815 C1816 1.373 . S
C1815 C1817 1.389 . S
C1816 H1789 0.950 . S
C1816 C1802 1.377 . S
C1816 C1815 1.373 . S
C1817 C1801 1.377 . S
C1817 C1815 1.389 . S
C1817 C1818 1.524 . S
C1818 C1817 1.524 . S
C1818 C1819 1.397 . S
C1818 C1823 1.363 . S
C1819 H1790 0.950 . S
C1819 C1818 1.397 . S
C1819 C1820 1.334 . S
C1820 H1791 0.950 . S
C1820 C1819 1.334 . S
C1820 C1821 1.287 1_554 S
C1821 C1820 1.287 1_556 S
C1821 C1822 1.524 . S
C1821 H1824 0.999 . S
C1822 H1792 0.950 . S
C1822 C1821 1.524 . S
C1822 C1823 1.415 1_556 S
C1823 H1793 0.950 . S
C1823 C1818 1.363 . S
C1823 C1822 1.415 1_554 S
H1824 C1821 0.999 . S
H1825 C1806 0.913 . S
H1826 C1844 0.951 . S
H1827 C1846 0.951 . S
H1828 C1848 0.950 1_556 S
H1829 C1849 0.950 1_556 S
H1830 C1851 0.950 . S
H1831 C1854 0.950 . S
H1832 C1855 0.950 . S
H1833 C1857 0.950 . S
H1834 C1858 0.950 . S
H1835 C1859 0.951 1_556 S
H1836 C1861 0.951 1_556 S
H1837 C1863 0.950 . S
H1838 C1864 0.950 . S
H1839 C1866 0.950 . S
H1840 C1869 0.950 . S
H1841 C1870 0.950 . S
H1842 C1872 0.950 . S
H1843 C1873 0.982 . S
C1844 H1826 0.951 . S
C1844 C1845 1.366 . S
C1844 C1846 1.388 . S
C1845 C1844 1.366 . S
C1845 C1849 1.385 . S
C1846 H1827 0.951 . S
C1846 C1844 1.388 . S
C1846 C1847 1.366 . S
C1847 C1846 1.366 . S
C1847 C1848 1.414 . S
C1847 C1850 1.499 . S
C1848 H1828 0.950 1_554 S
C1848 C1847 1.414 . S
C1848 C1849 1.374 . S
C1849 H1829 0.950 1_554 S
C1849 C1845 1.385 . S
C1849 C1848 1.374 . S
C1850 C1847 1.499 . S
C1850 C1851 1.373 . S
C1850 C1852 1.389 . S
C1851 H1830 0.950 . S
C1851 C1850 1.373 . S
C1851 C1867 1.377 . S
C1852 C1850 1.389 . S
C1852 C1853 1.524 . S
C1852 C1866 1.377 . S
C1853 C1852 1.524 . S
C1853 C1854 1.397 . S
C1853 C1858 1.363 . S
C1854 H1831 0.950 . S
C1854 C1853 1.397 . S
C1854 C1855 1.334 . S
C1855 H1832 0.950 . S
C1855 C1854 1.334 . S
C1855 C1856 1.287 . S
C1856 C1855 1.287 . S
C1856 C1857 1.524 . S
C1856 H1875 0.913 . S
C1857 H1833 0.950 . S
C1857 C1856 1.524 . S
C1857 C1858 1.415 . S
C1858 H1834 0.950 . S
C1858 C1853 1.363 . S
C1858 C1857 1.415 . S
C1859 H1835 0.951 1_554 S
C1859 C1860 1.366 . S
C1859 C1861 1.388 . S
C1860 C1859 1.366 . S
C1860 C1864 1.385 . S
C1861 H1836 0.951 1_554 S
C1861 C1859 1.388 . S
C1861 C1862 1.366 . S
C1862 C1861 1.366 . S
C1862 C1863 1.414 . S
C1862 C1865 1.499 . S
C1863 H1837 0.950 . S
C1863 C1862 1.414 . S
C1863 C1864 1.374 . S
C1864 H1838 0.950 . S
C1864 C1860 1.385 . S
C1864 C1863 1.374 . S
C1865 C1862 1.499 . S
C1865 C1866 1.373 . S
C1865 C1867 1.389 . S
C1866 H1839 0.950 . S
C1866 C1852 1.377 . S
C1866 C1865 1.373 . S
C1867 C1851 1.377 . S
C1867 C1865 1.389 . S
C1867 C1868 1.524 . S
C1868 C1867 1.524 . S
C1868 C1869 1.397 . S
C1868 C1873 1.329 1_554 S
C1869 H1840 0.950 . S
C1869 C1868 1.397 . S
C1869 C1870 1.334 . S
C1870 H1841 0.950 . S
C1870 C1869 1.334 . S
C1870 C1871 1.287 . S
C1871 C1870 1.287 . S
C1871 C1872 1.524 1_554 S
C1871 H1874 0.999 . S
C1872 H1842 0.950 . S
C1872 C1871 1.524 1_556 S
C1872 C1873 1.418 . S
C1873 H1843 0.982 . S
C1873 C1868 1.329 1_556 S
C1873 C1872 1.418 . S
H1874 C1871 0.999 . S
H1875 C1856 0.913 . S
H1876 C1894 0.951 . S
H1877 C1896 0.951 . S
H1878 C1898 0.950 . S
H1879 C1899 0.950 . S
H1880 C1901 0.950 . S
H1881 C1904 0.950 . S
H1882 C1905 0.950 . S
H1883 C1907 0.950 . S
H1884 C1908 0.950 . S
H1885 C1909 0.951 . S
H1886 C1911 0.951 . S
H1887 C1913 0.950 . S
H1888 C1914 0.950 . S
H1889 C1916 0.950 . S
H1890 C1919 0.950 . S
H1891 C1920 0.950 . S
H1892 C1922 0.950 . S
H1893 C1923 0.950 . S
C1894 H1876 0.951 . S
C1894 C1895 1.366 . S
C1894 C1896 1.388 . S
C1895 C1894 1.366 . S
C1895 C1899 1.385 . S
C1896 H1877 0.951 . S
C1896 C1894 1.388 . S
C1896 C1897 1.366 . S
C1897 C1896 1.366 . S
C1897 C1898 1.414 . S
C1897 C1900 1.499 . S
C1898 H1878 0.950 . S
C1898 C1897 1.414 . S
C1898 C1899 1.374 . S
C1899 H1879 0.950 . S
C1899 C1895 1.385 . S
C1899 C1898 1.374 . S
C1900 C1897 1.499 . S
C1900 C1901 1.373 . S
C1900 C1902 1.389 . S
C1901 H1880 0.950 . S
C1901 C1900 1.373 . S
C1901 C1917 1.377 . S
C1902 C1900 1.389 . S
C1902 C1903 1.524 . S
C1902 C1916 1.377 . S
C1903 C1902 1.524 . S
C1903 C1904 1.397 . S
C1903 C1908 1.363 . S
C1904 H1881 0.950 . S
C1904 C1903 1.397 . S
C1904 C1905 1.334 . S
C1905 H1882 0.950 . S
C1905 C1904 1.334 . S
C1905 C1906 1.287 . S
C1906 C1905 1.287 . S
C1906 C1907 1.524 . S
C1906 H1925 0.913 . S
C1907 H1883 0.950 . S
C1907 C1906 1.524 . S
C1907 C1908 1.415 . S
C1908 H1884 0.950 . S
C1908 C1903 1.363 . S
C1908 C1907 1.415 . S
C1909 H1885 0.951 . S
C1909 C1910 1.366 . S
C1909 C1911 1.388 . S
C1910 C1909 1.366 . S
C1910 C1914 1.385 . S
C1911 H1886 0.951 . S
C1911 C1909 1.388 . S
C1911 C1912 1.366 . S
C1912 C1911 1.366 . S
C1912 C1913 1.414 . S
C1912 C1915 1.499 . S
C1913 H1887 0.950 . S
C1913 C1912 1.414 . S
C1913 C1914 1.374 . S
C1914 H1888 0.950 . S
C1914 C1910 1.385 . S
C1914 C1913 1.374 . S
C1915 C1912 1.499 . S
C1915 C1916 1.373 . S
C1915 C1917 1.389 . S
C1916 H1889 0.950 . S
C1916 C1902 1.377 . S
C1916 C1915 1.373 . S
C1917 C1901 1.377 . S
C1917 C1915 1.389 . S
C1917 C1918 1.524 . S
C1918 C1917 1.524 . S
C1918 C1919 1.397 . S
C1918 C1923 1.363 . S
C1919 H1890 0.950 . S
C1919 C1918 1.397 . S
C1919 C1920 1.334 . S
C1920 H1891 0.950 . S
C1920 C1919 1.334 . S
C1920 C1921 1.287 . S
C1921 C1920 1.287 . S
C1921 C1922 1.524 . S
C1921 H1924 0.999 . S
C1922 H1892 0.950 . S
C1922 C1921 1.524 . S
C1922 C1923 1.415 . S
C1923 H1893 0.950 . S
C1923 C1918 1.363 . S
C1923 C1922 1.415 . S
H1924 C1921 0.999 . S
H1925 C1906 0.913 . S
H1926 C1944 0.951 . S
H1927 C1946 0.951 . S
H1928 C1948 0.950 . S
H1929 C1949 0.950 . S
H1930 C1951 0.950 . S
H1931 C1954 0.950 . S
H1932 C1955 0.950 . S
H1933 C1957 0.950 . S
H1934 C1958 0.950 . S
H1935 C1959 0.951 . S
H1936 C1961 0.951 . S
H1937 C1963 0.950 . S
H1938 C1964 0.950 . S
H1939 C1966 0.950 . S
H1940 C1969 0.950 . S
H1941 C1970 0.950 . S
H1942 C1972 0.950 . S
H1943 C1973 0.950 . S
C1944 H1926 0.951 . S
C1944 C1945 1.366 . S
C1944 C1946 1.388 . S
C1945 C1944 1.366 . S
C1945 C1949 1.385 . S
C1946 H1927 0.951 . S
C1946 C1944 1.388 . S
C1946 C1947 1.366 . S
C1947 C1946 1.366 . S
C1947 C1948 1.414 . S
C1947 C1950 1.499 . S
C1948 H1928 0.950 . S
C1948 C1947 1.414 . S
C1948 C1949 1.374 . S
C1949 H1929 0.950 . S
C1949 C1945 1.385 . S
C1949 C1948 1.374 . S
C1950 C1947 1.499 . S
C1950 C1951 1.373 . S
C1950 C1952 1.389 . S
C1951 H1930 0.950 . S
C1951 C1950 1.373 . S
C1951 C1967 1.377 . S
C1952 C1950 1.389 . S
C1952 C1953 1.524 . S
C1952 C1966 1.377 . S
C1953 C1952 1.524 . S
C1953 C1954 1.397 . S
C1953 C1958 1.363 . S
C1954 H1931 0.950 . S
C1954 C1953 1.397 . S
C1954 C1955 1.334 . S
C1955 H1932 0.950 . S
C1955 C1954 1.334 . S
C1955 C1956 1.287 . S
C1956 C1955 1.287 . S
C1956 C1957 1.524 . S
C1956 H1975 0.913 . S
C1957 H1933 0.950 . S
C1957 C1956 1.524 . S
C1957 C1958 1.415 . S
C1958 H1934 0.950 . S
C1958 C1953 1.363 . S
C1958 C1957 1.415 . S
C1959 H1935 0.951 . S
C1959 C1960 1.366 . S
C1959 C1961 1.388 . S
C1960 C1959 1.366 . S
C1960 C1964 1.385 . S
C1961 H1936 0.951 . S
C1961 C1959 1.388 . S
C1961 C1962 1.366 . S
C1962 C1961 1.366 . S
C1962 C1963 1.414 . S
C1962 C1965 1.499 . S
C1963 H1937 0.950 . S
C1963 C1962 1.414 . S
C1963 C1964 1.374 . S
C1964 H1938 0.950 . S
C1964 C1960 1.385 . S
C1964 C1963 1.374 . S
C1965 C1962 1.499 . S
C1965 C1966 1.373 . S
C1965 C1967 1.389 . S
C1966 H1939 0.950 . S
C1966 C1952 1.377 . S
C1966 C1965 1.373 . S
C1967 C1951 1.377 . S
C1967 C1965 1.389 . S
C1967 C1968 1.524 . S
C1968 C1967 1.524 . S
C1968 C1969 1.397 . S
C1968 C1973 1.363 . S
C1969 H1940 0.950 . S
C1969 C1968 1.397 . S
C1969 C1970 1.334 . S
C1970 H1941 0.950 . S
C1970 C1969 1.334 . S
C1970 C1971 1.287 . S
C1971 C1970 1.287 . S
C1971 C1972 1.524 . S
C1971 H1974 0.999 . S
C1972 H1942 0.950 . S
C1972 C1971 1.524 . S
C1972 C1973 1.415 . S
C1973 H1943 0.950 . S
C1973 C1968 1.363 . S
C1973 C1972 1.415 . S
H1974 C1971 0.999 . S
H1975 C1956 0.913 . S
H1976 C1994 0.951 . S
H1977 C1996 0.951 . S
H1978 C1998 0.950 . S
H1979 C1999 0.950 . S
H1980 C2001 0.950 . S
H1981 C2004 0.950 . S
H1982 C2005 0.950 . S
H1983 C2007 0.950 . S
H1984 C2008 0.950 . S
H1985 C2009 0.951 . S
H1986 C2011 0.951 . S
H1987 C2013 0.950 . S
H1988 C2014 0.950 . S
H1989 C2016 0.950 . S
H1990 C2019 0.950 . S
H1991 C2020 0.950 . S
H1992 C2022 0.950 . S
H1993 C2023 0.950 . S
C1994 H1976 0.951 . S
C1994 C1995 1.366 . S
C1994 C1996 1.388 . S
C1995 C1994 1.366 . S
C1995 C1999 1.385 . S
C1996 H1977 0.951 . S
C1996 C1994 1.388 . S
C1996 C1997 1.366 . S
C1997 C1996 1.366 . S
C1997 C1998 1.414 . S
C1997 C2000 1.499 . S
C1998 H1978 0.950 . S
C1998 C1997 1.414 . S
C1998 C1999 1.374 . S
C1999 H1979 0.950 . S
C1999 C1995 1.385 . S
C1999 C1998 1.374 . S
C2000 C1997 1.499 . S
C2000 C2001 1.373 . S
C2000 C2002 1.389 . S
C2001 H1980 0.950 . S
C2001 C2000 1.373 . S
C2001 C2017 1.377 . S
C2002 C2000 1.389 . S
C2002 C2003 1.524 . S
C2002 C2016 1.377 . S
C2003 C2002 1.524 . S
C2003 C2004 1.397 . S
C2003 C2008 1.363 . S
C2004 H1981 0.950 . S
C2004 C2003 1.397 . S
C2004 C2005 1.334 . S
C2005 H1982 0.950 . S
C2005 C2004 1.334 . S
C2005 C2006 1.287 . S
C2006 C2005 1.287 . S
C2006 C2007 1.524 . S
C2006 H2025 0.913 . S
C2007 H1983 0.950 . S
C2007 C2006 1.524 . S
C2007 C2008 1.415 . S
C2008 H1984 0.950 . S
C2008 C2003 1.363 . S
C2008 C2007 1.415 . S
C2009 H1985 0.951 . S
C2009 C2010 1.366 . S
C2009 C2011 1.388 . S
C2010 C2009 1.366 . S
C2010 C2014 1.385 . S
C2011 H1986 0.951 . S
C2011 C2009 1.388 . S
C2011 C2012 1.366 . S
C2012 C2011 1.366 . S
C2012 C2013 1.414 . S
C2012 C2015 1.499 . S
C2013 H1987 0.950 . S
C2013 C2012 1.414 . S
C2013 C2014 1.374 . S
C2014 H1988 0.950 . S
C2014 C2010 1.385 . S
C2014 C2013 1.374 . S
C2015 C2012 1.499 . S
C2015 C2016 1.373 . S
C2015 C2017 1.389 . S
C2016 H1989 0.950 . S
C2016 C2002 1.377 . S
C2016 C2015 1.373 . S
C2017 C2001 1.377 . S
C2017 C2015 1.389 . S
C2017 C2018 1.524 . S
C2018 C2017 1.524 . S
C2018 C2019 1.397 . S
C2018 C2023 1.363 . S
C2019 H1990 0.950 . S
C2019 C2018 1.397 . S
C2019 C2020 1.334 . S
C2020 H1991 0.950 . S
C2020 C2019 1.334 . S
C2020 C2021 1.287 . S
C2021 C2020 1.287 . S
C2021 C2022 1.524 . S
C2021 H2024 0.999 . S
C2022 H1992 0.950 . S
C2022 C2021 1.524 . S
C2022 C2023 1.415 . S
C2023 H1993 0.950 . S
C2023 C2018 1.363 . S
C2023 C2022 1.415 . S
H2024 C2021 0.999 . S
H2025 C2006 0.913 . S
H2026 C2044 0.951 . S
H2027 C2046 0.951 . S
H2028 C2048 0.950 . S
H2029 C2049 0.950 . S
H2030 C2051 0.950 . S
H2031 C2054 0.950 . S
H2032 C2055 0.950 . S
H2033 C2057 0.950 . S
H2034 C2058 0.950 . S
H2035 C2059 0.951 . S
H2036 C2061 0.951 . S
H2037 C2063 0.950 . S
H2038 C2064 0.950 . S
H2039 C2066 0.950 . S
H2040 C2069 0.950 . S
H2041 C2070 0.950 . S
H2042 C2072 0.950 . S
H2043 C2073 0.950 . S
C2044 H2026 0.951 . S
C2044 C2045 1.366 . S
C2044 C2046 1.388 . S
C2045 C2044 1.366 . S
C2045 C2049 1.385 . S
C2046 H2027 0.951 . S
C2046 C2044 1.388 . S
C2046 C2047 1.366 . S
C2047 C2046 1.366 . S
C2047 C2048 1.414 . S
C2047 C2050 1.499 . S
C2048 H2028 0.950 . S
C2048 C2047 1.414 . S
C2048 C2049 1.374 . S
C2049 H2029 0.950 . S
C2049 C2045 1.385 . S
C2049 C2048 1.374 . S
C2050 C2047 1.499 . S
C2050 C2051 1.373 . S
C2050 C2052 1.389 . S
C2051 H2030 0.950 . S
C2051 C2050 1.373 . S
C2051 C2067 1.377 . S
C2052 C2050 1.389 . S
C2052 C2053 1.524 . S
C2052 C2066 1.377 . S
C2053 C2052 1.524 . S
C2053 C2054 1.397 . S
C2053 C2058 1.363 . S
C2054 H2031 0.950 . S
C2054 C2053 1.397 . S
C2054 C2055 1.334 . S
C2055 H2032 0.950 . S
C2055 C2054 1.334 . S
C2055 C2056 1.287 . S
C2056 C2055 1.287 . S
C2056 C2057 1.524 . S
C2056 H2075 0.913 . S
C2057 H2033 0.950 . S
C2057 C2056 1.524 . S
C2057 C2058 1.415 . S
C2058 H2034 0.950 . S
C2058 C2053 1.363 . S
C2058 C2057 1.415 . S
C2059 H2035 0.951 . S
C2059 C2060 1.366 . S
C2059 C2061 1.388 . S
C2060 C2059 1.366 . S
C2060 C2064 1.385 . S
C2061 H2036 0.951 . S
C2061 C2059 1.388 . S
C2061 C2062 1.366 . S
C2062 C2061 1.366 . S
C2062 C2063 1.414 . S
C2062 C2065 1.499 . S
C2063 H2037 0.950 . S
C2063 C2062 1.414 . S
C2063 C2064 1.374 . S
C2064 H2038 0.950 . S
C2064 C2060 1.385 . S
C2064 C2063 1.374 . S
C2065 C2062 1.499 . S
C2065 C2066 1.373 . S
C2065 C2067 1.389 . S
C2066 H2039 0.950 . S
C2066 C2052 1.377 . S
C2066 C2065 1.373 . S
C2067 C2051 1.377 . S
C2067 C2065 1.389 . S
C2067 C2068 1.524 . S
C2068 C2067 1.524 . S
C2068 C2069 1.397 . S
C2068 C2073 1.363 . S
C2069 H2040 0.950 . S
C2069 C2068 1.397 . S
C2069 C2070 1.334 . S
C2070 H2041 0.950 . S
C2070 C2069 1.334 . S
C2070 C2071 1.287 . S
C2071 C2070 1.287 . S
C2071 C2072 1.524 . S
C2071 H2074 0.999 . S
C2072 H2042 0.950 . S
C2072 C2071 1.524 . S
C2072 C2073 1.415 . S
C2073 H2043 0.950 . S
C2073 C2068 1.363 . S
C2073 C2072 1.415 . S
H2074 C2071 0.999 . S
H2075 C2056 0.913 . S
H2076 C2094 0.951 . S
H2077 C2096 0.951 . S
H2078 C2098 0.950 . S
H2079 C2099 0.950 . S
H2080 C2101 0.950 . S
H2081 C2104 0.950 . S
H2082 C2105 0.950 . S
H2083 C2107 0.950 . S
H2084 C2108 0.950 . S
H2085 C2109 0.951 . S
H2086 C2111 0.951 . S
H2087 C2113 0.950 . S
H2088 C2114 0.950 . S
H2089 C2116 0.950 . S
H2090 C2119 0.950 . S
H2091 C2120 0.950 . S
H2092 C2122 0.950 . S
H2093 C2123 0.950 . S
C2094 H2076 0.951 . S
C2094 C2095 1.366 . S
C2094 C2096 1.388 . S
C2095 C2094 1.366 . S
C2095 C2099 1.385 . S
C2096 H2077 0.951 . S
C2096 C2094 1.388 . S
C2096 C2097 1.366 . S
C2097 C2096 1.366 . S
C2097 C2098 1.414 . S
C2097 C2100 1.499 . S
C2098 H2078 0.950 . S
C2098 C2097 1.414 . S
C2098 C2099 1.374 . S
C2099 H2079 0.950 . S
C2099 C2095 1.385 . S
C2099 C2098 1.374 . S
C2100 C2097 1.499 . S
C2100 C2101 1.373 . S
C2100 C2102 1.389 . S
C2101 H2080 0.950 . S
C2101 C2100 1.373 . S
C2101 C2117 1.377 . S
C2102 C2100 1.389 . S
C2102 C2103 1.524 . S
C2102 C2116 1.377 . S
C2103 C2102 1.524 . S
C2103 C2104 1.397 . S
C2103 C2108 1.363 . S
C2104 H2081 0.950 . S
C2104 C2103 1.397 . S
C2104 C2105 1.334 . S
C2105 H2082 0.950 . S
C2105 C2104 1.334 . S
C2105 C2106 1.287 . S
C2106 C2105 1.287 . S
C2106 C2107 1.524 . S
C2106 H2125 0.913 . S
C2107 H2083 0.950 . S
C2107 C2106 1.524 . S
C2107 C2108 1.415 . S
C2108 H2084 0.950 . S
C2108 C2103 1.363 . S
C2108 C2107 1.415 . S
C2109 H2085 0.951 . S
C2109 C2110 1.366 . S
C2109 C2111 1.388 . S
C2110 C2109 1.366 . S
C2110 C2114 1.385 . S
C2111 H2086 0.951 . S
C2111 C2109 1.388 . S
C2111 C2112 1.366 . S
C2112 C2111 1.366 . S
C2112 C2113 1.414 . S
C2112 C2115 1.499 . S
C2113 H2087 0.950 . S
C2113 C2112 1.414 . S
C2113 C2114 1.374 . S
C2114 H2088 0.950 . S
C2114 C2110 1.385 . S
C2114 C2113 1.374 . S
C2115 C2112 1.499 . S
C2115 C2116 1.373 . S
C2115 C2117 1.389 . S
C2116 H2089 0.950 . S
C2116 C2102 1.377 . S
C2116 C2115 1.373 . S
C2117 C2101 1.377 . S
C2117 C2115 1.389 . S
C2117 C2118 1.524 . S
C2118 C2117 1.524 . S
C2118 C2119 1.397 . S
C2118 C2123 1.363 . S
C2119 H2090 0.950 . S
C2119 C2118 1.397 . S
C2119 C2120 1.334 . S
C2120 H2091 0.950 . S
C2120 C2119 1.334 . S
C2120 C2121 1.287 . S
C2121 C2120 1.287 . S
C2121 C2122 1.524 . S
C2121 H2124 0.999 . S
C2122 H2092 0.950 . S
C2122 C2121 1.524 . S
C2122 C2123 1.415 . S
C2123 H2093 0.950 . S
C2123 C2118 1.363 . S
C2123 C2122 1.415 . S
H2124 C2121 0.999 . S
H2125 C2106 0.913 . S
H2126 C2144 0.951 . S
H2127 C2146 0.951 . S
H2128 C2148 0.950 . S
H2129 C2149 0.950 . S
H2130 C2151 0.950 . S
H2131 C2154 0.950 . S
H2132 C2155 0.950 . S
H2133 C2157 0.950 . S
H2134 C2158 0.950 . S
H2135 C2159 0.951 . S
H2136 C2161 0.951 . S
H2137 C2163 0.950 . S
H2138 C2164 0.950 . S
H2139 C2166 0.950 . S
H2140 C2169 0.950 . S
H2141 C2170 0.950 . S
H2142 C2172 0.950 . S
H2143 C2173 0.950 . S
C2144 H2126 0.951 . S
C2144 C2145 1.366 . S
C2144 C2146 1.388 . S
C2145 C2144 1.366 . S
C2145 C2149 1.385 . S
C2146 H2127 0.951 . S
C2146 C2144 1.388 . S
C2146 C2147 1.366 . S
C2147 C2146 1.366 . S
C2147 C2148 1.414 . S
C2147 C2150 1.499 . S
C2148 H2128 0.950 . S
C2148 C2147 1.414 . S
C2148 C2149 1.374 . S
C2149 H2129 0.950 . S
C2149 C2145 1.385 . S
C2149 C2148 1.374 . S
C2150 C2147 1.499 . S
C2150 C2151 1.373 . S
C2150 C2152 1.389 . S
C2151 H2130 0.950 . S
C2151 C2150 1.373 . S
C2151 C2167 1.377 . S
C2152 C2150 1.389 . S
C2152 C2153 1.524 . S
C2152 C2166 1.377 . S
C2153 C2152 1.524 . S
C2153 C2154 1.397 . S
C2153 C2158 1.363 . S
C2154 H2131 0.950 . S
C2154 C2153 1.397 . S
C2154 C2155 1.334 . S
C2155 H2132 0.950 . S
C2155 C2154 1.334 . S
C2155 C2156 1.287 . S
C2156 C2155 1.287 . S
C2156 C2157 1.524 . S
C2156 H2175 0.913 . S
C2157 H2133 0.950 . S
C2157 C2156 1.524 . S
C2157 C2158 1.415 . S
C2158 H2134 0.950 . S
C2158 C2153 1.363 . S
C2158 C2157 1.415 . S
C2159 H2135 0.951 . S
C2159 C2160 1.366 . S
C2159 C2161 1.388 . S
C2160 C2159 1.366 . S
C2160 C2164 1.385 . S
C2161 H2136 0.951 . S
C2161 C2159 1.388 . S
C2161 C2162 1.366 . S
C2162 C2161 1.366 . S
C2162 C2163 1.414 . S
C2162 C2165 1.499 . S
C2163 H2137 0.950 . S
C2163 C2162 1.414 . S
C2163 C2164 1.374 . S
C2164 H2138 0.950 . S
C2164 C2160 1.385 . S
C2164 C2163 1.374 . S
C2165 C2162 1.499 . S
C2165 C2166 1.373 . S
C2165 C2167 1.389 . S
C2166 H2139 0.950 . S
C2166 C2152 1.377 . S
C2166 C2165 1.373 . S
C2167 C2151 1.377 . S
C2167 C2165 1.389 . S
C2167 C2168 1.524 . S
C2168 C2167 1.524 . S
C2168 C2169 1.397 . S
C2168 C2173 1.363 . S
C2169 H2140 0.950 . S
C2169 C2168 1.397 . S
C2169 C2170 1.334 . S
C2170 H2141 0.950 . S
C2170 C2169 1.334 . S
C2170 C2171 1.287 . S
C2171 C2170 1.287 . S
C2171 C2172 1.524 . S
C2171 H2174 0.999 . S
C2172 H2142 0.950 . S
C2172 C2171 1.524 . S
C2172 C2173 1.415 . S
C2173 H2143 0.950 . S
C2173 C2168 1.363 . S
C2173 C2172 1.415 . S
H2174 C2171 0.999 . S
H2175 C2156 0.913 . S
H2176 C2194 0.951 . S
H2177 C2196 0.951 . S
H2178 C2198 0.950 . S
H2179 C2199 0.950 . S
H2180 C2201 0.950 . S
H2181 C2204 0.950 . S
H2182 C2205 0.950 . S
H2183 C2207 0.950 . S
H2184 C2208 0.950 . S
H2185 C2209 0.951 . S
H2186 C2211 0.951 . S
H2187 C2213 0.950 . S
H2188 C2214 0.950 . S
H2189 C2216 0.950 . S
H2190 C2219 0.950 . S
H2191 C2220 0.950 . S
H2192 C2222 0.950 . S
H2193 C2223 0.950 . S
C2194 H2176 0.951 . S
C2194 C2195 1.366 . S
C2194 C2196 1.388 . S
C2195 C2194 1.366 . S
C2195 C2199 1.385 . S
C2196 H2177 0.951 . S
C2196 C2194 1.388 . S
C2196 C2197 1.366 . S
C2197 C2196 1.366 . S
C2197 C2198 1.414 . S
C2197 C2200 1.499 . S
C2198 H2178 0.950 . S
C2198 C2197 1.414 . S
C2198 C2199 1.374 . S
C2199 H2179 0.950 . S
C2199 C2195 1.385 . S
C2199 C2198 1.374 . S
C2200 C2197 1.499 . S
C2200 C2201 1.373 . S
C2200 C2202 1.389 . S
C2201 H2180 0.950 . S
C2201 C2200 1.373 . S
C2201 C2217 1.377 . S
C2202 C2200 1.389 . S
C2202 C2203 1.524 . S
C2202 C2216 1.377 . S
C2203 C2202 1.524 . S
C2203 C2204 1.397 . S
C2203 C2208 1.363 . S
C2204 H2181 0.950 . S
C2204 C2203 1.397 . S
C2204 C2205 1.334 . S
C2205 H2182 0.950 . S
C2205 C2204 1.334 . S
C2205 C2206 1.287 . S
C2206 C2205 1.287 . S
C2206 C2207 1.524 . S
C2206 H2225 0.913 . S
C2207 H2183 0.950 . S
C2207 C2206 1.524 . S
C2207 C2208 1.415 . S
C2208 H2184 0.950 . S
C2208 C2203 1.363 . S
C2208 C2207 1.415 . S
C2209 H2185 0.951 . S
C2209 C2210 1.366 . S
C2209 C2211 1.388 . S
C2210 C2209 1.366 . S
C2210 C2214 1.385 . S
C2211 H2186 0.951 . S
C2211 C2209 1.388 . S
C2211 C2212 1.366 . S
C2212 C2211 1.366 . S
C2212 C2213 1.414 . S
C2212 C2215 1.499 . S
C2213 H2187 0.950 . S
C2213 C2212 1.414 . S
C2213 C2214 1.374 . S
C2214 H2188 0.950 . S
C2214 C2210 1.385 . S
C2214 C2213 1.374 . S
C2215 C2212 1.499 . S
C2215 C2216 1.373 . S
C2215 C2217 1.389 . S
C2216 H2189 0.950 . S
C2216 C2202 1.377 . S
C2216 C2215 1.373 . S
C2217 C2201 1.377 . S
C2217 C2215 1.389 . S
C2217 C2218 1.524 . S
C2218 C2217 1.524 . S
C2218 C2219 1.397 . S
C2218 C2223 1.363 . S
C2219 H2190 0.950 . S
C2219 C2218 1.397 . S
C2219 C2220 1.334 . S
C2220 H2191 0.950 . S
C2220 C2219 1.334 . S
C2220 C2221 1.287 . S
C2221 C2220 1.287 . S
C2221 C2222 1.524 . S
C2221 H2224 0.999 . S
C2222 H2192 0.950 . S
C2222 C2221 1.524 . S
C2222 C2223 1.415 . S
C2223 H2193 0.950 . S
C2223 C2218 1.363 . S
C2223 C2222 1.415 . S
H2224 C2221 0.999 . S
H2225 C2206 0.913 . S
H2226 C2244 0.951 . S
H2227 C2246 0.951 . S
H2228 C2248 0.950 . S
H2229 C2249 0.950 . S
H2230 C2251 0.950 . S
H2231 C2254 0.950 . S
H2232 C2255 0.950 . S
H2233 C2257 0.950 . S
H2234 C2258 0.950 . S
H2235 C2259 0.951 . S
H2236 C2261 0.951 . S
H2237 C2263 0.950 . S
H2238 C2264 0.950 . S
H2239 C2266 0.950 . S
H2240 C2269 0.950 . S
H2241 C2270 0.950 . S
H2242 C2272 0.950 . S
H2243 C2273 0.950 . S
C2244 H2226 0.951 . S
C2244 C2245 1.366 . S
C2244 C2246 1.388 . S
C2245 C2244 1.366 . S
C2245 C2249 1.385 . S
C2246 H2227 0.951 . S
C2246 C2244 1.388 . S
C2246 C2247 1.366 . S
C2247 C2246 1.366 . S
C2247 C2248 1.414 . S
C2247 C2250 1.499 . S
C2248 H2228 0.950 . S
C2248 C2247 1.414 . S
C2248 C2249 1.374 . S
C2249 H2229 0.950 . S
C2249 C2245 1.385 . S
C2249 C2248 1.374 . S
C2250 C2247 1.499 . S
C2250 C2251 1.373 . S
C2250 C2252 1.389 . S
C2251 H2230 0.950 . S
C2251 C2250 1.373 . S
C2251 C2267 1.377 . S
C2252 C2250 1.389 . S
C2252 C2253 1.524 . S
C2252 C2266 1.377 . S
C2253 C2252 1.524 . S
C2253 C2254 1.397 . S
C2253 C2258 1.363 . S
C2254 H2231 0.950 . S
C2254 C2253 1.397 . S
C2254 C2255 1.334 . S
C2255 H2232 0.950 . S
C2255 C2254 1.334 . S
C2255 C2256 1.287 . S
C2256 C2255 1.287 . S
C2256 C2257 1.524 . S
C2256 H2275 0.913 . S
C2257 H2233 0.950 . S
C2257 C2256 1.524 . S
C2257 C2258 1.415 . S
C2258 H2234 0.950 . S
C2258 C2253 1.363 . S
C2258 C2257 1.415 . S
C2259 H2235 0.951 . S
C2259 C2260 1.366 . S
C2259 C2261 1.388 . S
C2260 C2259 1.366 . S
C2260 C2264 1.385 . S
C2261 H2236 0.951 . S
C2261 C2259 1.388 . S
C2261 C2262 1.366 . S
C2262 C2261 1.366 . S
C2262 C2263 1.414 . S
C2262 C2265 1.499 . S
C2263 H2237 0.950 . S
C2263 C2262 1.414 . S
C2263 C2264 1.374 . S
C2264 H2238 0.950 . S
C2264 C2260 1.385 . S
C2264 C2263 1.374 . S
C2265 C2262 1.499 . S
C2265 C2266 1.373 . S
C2265 C2267 1.389 . S
C2266 H2239 0.950 . S
C2266 C2252 1.377 . S
C2266 C2265 1.373 . S
C2267 C2251 1.377 . S
C2267 C2265 1.389 . S
C2267 C2268 1.524 . S
C2268 C2267 1.524 . S
C2268 C2269 1.397 . S
C2268 C2273 1.363 . S
C2269 H2240 0.950 . S
C2269 C2268 1.397 . S
C2269 C2270 1.334 . S
C2270 H2241 0.950 . S
C2270 C2269 1.334 . S
C2270 C2271 1.287 . S
C2271 C2270 1.287 . S
C2271 C2272 1.524 . S
C2271 H2274 0.999 . S
C2272 H2242 0.950 . S
C2272 C2271 1.524 . S
C2272 C2273 1.415 . S
C2273 H2243 0.950 . S
C2273 C2268 1.363 . S
C2273 C2272 1.415 . S
H2274 C2271 0.999 . S
H2275 C2256 0.913 . S
H2276 C2294 0.951 . S
H2277 C2296 0.951 . S
H2278 C2298 0.950 . S
H2279 C2299 0.950 . S
H2280 C2301 0.950 . S
H2281 C2304 0.950 . S
H2282 C2305 0.950 . S
H2283 C2307 0.950 . S
H2284 C2308 0.950 . S
H2285 C2309 0.951 . S
H2286 C2311 0.951 . S
H2287 C2313 0.950 . S
H2288 C2314 0.950 . S
H2289 C2316 0.950 . S
H2290 C2319 0.950 . S
H2291 C2320 0.950 . S
H2292 C2322 0.950 . S
H2293 C2323 0.950 . S
C2294 H2276 0.951 . S
C2294 C2295 1.366 . S
C2294 C2296 1.388 . S
C2295 C2294 1.366 . S
C2295 C2299 1.385 . S
C2296 H2277 0.951 . S
C2296 C2294 1.388 . S
C2296 C2297 1.366 . S
C2297 C2296 1.366 . S
C2297 C2298 1.414 . S
C2297 C2300 1.499 . S
C2298 H2278 0.950 . S
C2298 C2297 1.414 . S
C2298 C2299 1.374 . S
C2299 H2279 0.950 . S
C2299 C2295 1.385 . S
C2299 C2298 1.374 . S
C2300 C2297 1.499 . S
C2300 C2301 1.373 . S
C2300 C2302 1.389 . S
C2301 H2280 0.950 . S
C2301 C2300 1.373 . S
C2301 C2317 1.377 . S
C2302 C2300 1.389 . S
C2302 C2303 1.524 . S
C2302 C2316 1.377 . S
C2303 C2302 1.524 . S
C2303 C2304 1.397 . S
C2303 C2308 1.363 . S
C2304 H2281 0.950 . S
C2304 C2303 1.397 . S
C2304 C2305 1.334 . S
C2305 H2282 0.950 . S
C2305 C2304 1.334 . S
C2305 C2306 1.287 . S
C2306 C2305 1.287 . S
C2306 C2307 1.524 . S
C2306 H2325 0.913 . S
C2307 H2283 0.950 . S
C2307 C2306 1.524 . S
C2307 C2308 1.415 . S
C2308 H2284 0.950 . S
C2308 C2303 1.363 . S
C2308 C2307 1.415 . S
C2309 H2285 0.951 . S
C2309 C2310 1.366 . S
C2309 C2311 1.388 . S
C2310 C2309 1.366 . S
C2310 C2314 1.385 . S
C2311 H2286 0.951 . S
C2311 C2309 1.388 . S
C2311 C2312 1.366 . S
C2312 C2311 1.366 . S
C2312 C2313 1.414 . S
C2312 C2315 1.499 . S
C2313 H2287 0.950 . S
C2313 C2312 1.414 . S
C2313 C2314 1.374 . S
C2314 H2288 0.950 . S
C2314 C2310 1.385 . S
C2314 C2313 1.374 . S
C2315 C2312 1.499 . S
C2315 C2316 1.373 . S
C2315 C2317 1.389 . S
C2316 H2289 0.950 . S
C2316 C2302 1.377 . S
C2316 C2315 1.373 . S
C2317 C2301 1.377 . S
C2317 C2315 1.389 . S
C2317 C2318 1.524 . S
C2318 C2317 1.524 . S
C2318 C2319 1.397 . S
C2318 C2323 1.363 . S
C2319 H2290 0.950 . S
C2319 C2318 1.397 . S
C2319 C2320 1.334 . S
C2320 H2291 0.950 . S
C2320 C2319 1.334 . S
C2320 C2321 1.287 . S
C2321 C2320 1.287 . S
C2321 C2322 1.524 . S
C2321 H2324 0.999 . S
C2322 H2292 0.950 . S
C2322 C2321 1.524 . S
C2322 C2323 1.415 . S
C2323 H2293 0.950 . S
C2323 C2318 1.363 . S
C2323 C2322 1.415 . S
H2324 C2321 0.999 . S
H2325 C2306 0.913 . S
H2326 C2344 0.951 . S
H2327 C2346 0.951 . S
H2328 C2348 0.950 . S
H2329 C2349 0.950 . S
H2330 C2351 0.950 . S
H2331 C2354 0.950 . S
H2332 C2355 0.950 . S
H2333 C2357 0.950 . S
H2334 C2358 0.950 . S
H2335 C2359 0.951 . S
H2336 C2361 0.951 . S
H2337 C2363 0.950 . S
H2338 C2364 0.950 . S
H2339 C2366 0.950 . S
H2340 C2369 0.950 . S
H2341 C2370 0.950 . S
H2342 C2372 0.950 . S
H2343 C2373 0.950 . S
C2344 H2326 0.951 . S
C2344 C2345 1.366 . S
C2344 C2346 1.388 . S
C2345 C2344 1.366 . S
C2345 C2349 1.385 . S
C2346 H2327 0.951 . S
C2346 C2344 1.388 . S
C2346 C2347 1.366 . S
C2347 C2346 1.366 . S
C2347 C2348 1.414 . S
C2347 C2350 1.499 . S
C2348 H2328 0.950 . S
C2348 C2347 1.414 . S
C2348 C2349 1.374 . S
C2349 H2329 0.950 . S
C2349 C2345 1.385 . S
C2349 C2348 1.374 . S
C2350 C2347 1.499 . S
C2350 C2351 1.373 . S
C2350 C2352 1.389 . S
C2351 H2330 0.950 . S
C2351 C2350 1.373 . S
C2351 C2367 1.377 . S
C2352 C2350 1.389 . S
C2352 C2353 1.524 . S
C2352 C2366 1.377 . S
C2353 C2352 1.524 . S
C2353 C2354 1.397 . S
C2353 C2358 1.363 . S
C2354 H2331 0.950 . S
C2354 C2353 1.397 . S
C2354 C2355 1.334 . S
C2355 H2332 0.950 . S
C2355 C2354 1.334 . S
C2355 C2356 1.287 . S
C2356 C2355 1.287 . S
C2356 C2357 1.524 . S
C2356 H2375 0.913 . S
C2357 H2333 0.950 . S
C2357 C2356 1.524 . S
C2357 C2358 1.415 . S
C2358 H2334 0.950 . S
C2358 C2353 1.363 . S
C2358 C2357 1.415 . S
C2359 H2335 0.951 . S
C2359 C2360 1.366 . S
C2359 C2361 1.388 . S
C2360 C2359 1.366 . S
C2360 C2364 1.385 . S
C2361 H2336 0.951 . S
C2361 C2359 1.388 . S
C2361 C2362 1.366 . S
C2362 C2361 1.366 . S
C2362 C2363 1.414 . S
C2362 C2365 1.499 . S
C2363 H2337 0.950 . S
C2363 C2362 1.414 . S
C2363 C2364 1.374 . S
C2364 H2338 0.950 . S
C2364 C2360 1.385 . S
C2364 C2363 1.374 . S
C2365 C2362 1.499 . S
C2365 C2366 1.373 . S
C2365 C2367 1.389 . S
C2366 H2339 0.950 . S
C2366 C2352 1.377 . S
C2366 C2365 1.373 . S
C2367 C2351 1.377 . S
C2367 C2365 1.389 . S
C2367 C2368 1.524 . S
C2368 C2367 1.524 . S
C2368 C2369 1.397 . S
C2368 C2373 1.363 . S
C2369 H2340 0.950 . S
C2369 C2368 1.397 . S
C2369 C2370 1.334 . S
C2370 H2341 0.950 . S
C2370 C2369 1.334 . S
C2370 C2371 1.287 . S
C2371 C2370 1.287 . S
C2371 C2372 1.524 . S
C2371 H2374 0.999 . S
C2372 H2342 0.950 . S
C2372 C2371 1.524 . S
C2372 C2373 1.415 . S
C2373 H2343 0.950 . S
C2373 C2368 1.363 . S
C2373 C2372 1.415 . S
H2374 C2371 0.999 . S
H2375 C2356 0.913 . S
H2376 C2394 0.951 . S
H2377 C2396 0.951 . S
H2378 C2398 0.950 . S
H2379 C2399 0.950 . S
H2380 C2401 0.950 . S
H2381 C2404 0.950 . S
H2382 C2405 0.950 . S
H2383 C2407 0.950 . S
H2384 C2408 0.950 . S
H2385 C2409 0.951 . S
H2386 C2411 0.951 . S
H2387 C2413 0.950 . S
H2388 C2414 0.950 . S
H2389 C2416 0.950 . S
H2390 C2419 0.950 . S
H2391 C2420 0.950 1_655 S
H2392 C2422 0.950 . S
H2393 C2423 0.950 . S
C2394 H2376 0.951 . S
C2394 C2395 1.366 . S
C2394 C2396 1.388 . S
C2395 C2394 1.366 . S
C2395 C2399 1.385 . S
C2396 H2377 0.951 . S
C2396 C2394 1.388 . S
C2396 C2397 1.366 . S
C2397 C2396 1.366 . S
C2397 C2398 1.414 . S
C2397 C2400 1.499 . S
C2398 H2378 0.950 . S
C2398 C2397 1.414 . S
C2398 C2399 1.374 . S
C2399 H2379 0.950 . S
C2399 C2395 1.385 . S
C2399 C2398 1.374 . S
C2400 C2397 1.499 . S
C2400 C2401 1.373 . S
C2400 C2402 1.389 . S
C2401 H2380 0.950 . S
C2401 C2400 1.373 . S
C2401 C2417 1.377 . S
C2402 C2400 1.389 . S
C2402 C2403 1.524 . S
C2402 C2416 1.377 . S
C2403 C2402 1.524 . S
C2403 C2404 1.397 . S
C2403 C2408 1.363 . S
C2404 H2381 0.950 . S
C2404 C2403 1.397 . S
C2404 C2405 1.334 . S
C2405 H2382 0.950 . S
C2405 C2404 1.334 . S
C2405 C2406 1.287 . S
C2406 C2405 1.287 . S
C2406 C2407 1.524 . S
C2406 H2425 0.913 . S
C2407 H2383 0.950 . S
C2407 C2406 1.524 . S
C2407 C2408 1.415 . S
C2408 H2384 0.950 . S
C2408 C2403 1.363 . S
C2408 C2407 1.415 . S
C2409 H2385 0.951 . S
C2409 C2410 1.366 . S
C2409 C2411 1.388 . S
C2410 C2409 1.366 . S
C2410 C2414 1.385 . S
C2411 H2386 0.951 . S
C2411 C2409 1.388 . S
C2411 C2412 1.366 . S
C2412 C2411 1.366 . S
C2412 C2413 1.414 . S
C2412 C2415 1.499 . S
C2413 H2387 0.950 . S
C2413 C2412 1.414 . S
C2413 C2414 1.374 . S
C2414 H2388 0.950 . S
C2414 C2410 1.385 . S
C2414 C2413 1.374 . S
C2415 C2412 1.499 . S
C2415 C2416 1.373 . S
C2415 C2417 1.389 . S
C2416 H2389 0.950 . S
C2416 C2402 1.377 . S
C2416 C2415 1.373 . S
C2417 C2401 1.377 . S
C2417 C2415 1.389 . S
C2417 C2418 1.524 . S
C2418 C2417 1.524 . S
C2418 C2419 1.397 . S
C2418 C2423 1.363 . S
C2419 H2390 0.950 . S
C2419 C2418 1.397 . S
C2419 C2420 1.334 . S
C2420 H2391 0.950 1_455 S
C2420 C2419 1.334 . S
C2420 C2421 1.287 . S
C2421 C2420 1.287 . S
C2421 C2422 1.524 . S
C2421 H2424 0.999 . S
C2422 H2392 0.950 . S
C2422 C2421 1.524 . S
C2422 C2423 1.415 . S
C2423 H2393 0.950 . S
C2423 C2418 1.363 . S
C2423 C2422 1.415 . S
H2424 C2421 0.999 . S
H2425 C2406 0.913 . S
H2426 C2444 0.951 . S
H2427 C2446 0.951 . S
H2428 C2448 0.950 . S
H2429 C2449 0.950 . S
H2430 C2451 0.950 . S
H2431 C2454 0.950 . S
H2432 C2455 0.950 . S
H2433 C2457 0.950 . S
H2434 C2458 0.950 . S
H2435 C2459 0.951 . S
H2436 C2461 0.951 . S
H2437 C2463 0.950 . S
H2438 C2464 0.950 . S
H2439 C2466 0.950 . S
H2440 C2469 0.950 . S
H2441 C2470 0.950 . S
H2442 C2472 0.950 . S
H2443 C2473 0.950 . S
C2444 H2426 0.951 . S
C2444 C2445 1.366 . S
C2444 C2446 1.388 . S
C2445 C2444 1.366 . S
C2445 C2449 1.385 . S
C2446 H2427 0.951 . S
C2446 C2444 1.388 . S
C2446 C2447 1.366 . S
C2447 C2446 1.366 . S
C2447 C2448 1.414 . S
C2447 C2450 1.499 . S
C2448 H2428 0.950 . S
C2448 C2447 1.414 . S
C2448 C2449 1.374 . S
C2449 H2429 0.950 . S
C2449 C2445 1.385 . S
C2449 C2448 1.374 . S
C2450 C2447 1.499 . S
C2450 C2451 1.373 . S
C2450 C2452 1.389 . S
C2451 H2430 0.950 . S
C2451 C2450 1.373 . S
C2451 C2467 1.377 . S
C2452 C2450 1.389 . S
C2452 C2453 1.524 . S
C2452 C2466 1.377 . S
C2453 C2452 1.524 . S
C2453 C2454 1.397 . S
C2453 C2458 1.363 . S
C2454 H2431 0.950 . S
C2454 C2453 1.397 . S
C2454 C2455 1.334 . S
C2455 H2432 0.950 . S
C2455 C2454 1.334 . S
C2455 C2456 1.287 . S
C2456 C2455 1.287 . S
C2456 C2457 1.524 . S
C2456 H2475 0.913 . S
C2457 H2433 0.950 . S
C2457 C2456 1.524 . S
C2457 C2458 1.415 . S
C2458 H2434 0.950 . S
C2458 C2453 1.363 . S
C2458 C2457 1.415 . S
C2459 H2435 0.951 . S
C2459 C2460 1.366 . S
C2459 C2461 1.388 . S
C2460 C2459 1.366 . S
C2460 C2464 1.385 . S
C2461 H2436 0.951 . S
C2461 C2459 1.388 . S
C2461 C2462 1.366 . S
C2462 C2461 1.366 . S
C2462 C2463 1.414 . S
C2462 C2465 1.499 . S
C2463 H2437 0.950 . S
C2463 C2462 1.414 . S
C2463 C2464 1.374 . S
C2464 H2438 0.950 . S
C2464 C2460 1.385 . S
C2464 C2463 1.374 . S
C2465 C2462 1.499 . S
C2465 C2466 1.373 . S
C2465 C2467 1.389 . S
C2466 H2439 0.950 . S
C2466 C2452 1.377 . S
C2466 C2465 1.373 . S
C2467 C2451 1.377 . S
C2467 C2465 1.389 . S
C2467 C2468 1.524 . S
C2468 C2467 1.524 . S
C2468 C2469 1.397 . S
C2468 C2473 1.363 . S
C2469 H2440 0.950 . S
C2469 C2468 1.397 . S
C2469 C2470 1.334 . S
C2470 H2441 0.950 . S
C2470 C2469 1.334 . S
C2470 C2471 1.287 . S
C2471 C2470 1.287 . S
C2471 C2472 1.524 . S
C2471 H2474 0.999 . S
C2472 H2442 0.950 . S
C2472 C2471 1.524 . S
C2472 C2473 1.415 . S
C2473 H2443 0.950 . S
C2473 C2468 1.363 . S
C2473 C2472 1.415 . S
H2474 C2471 0.999 . S
H2475 C2456 0.913 . S
H2476 C2494 0.951 . S
H2477 C2496 0.951 . S
H2478 C2498 0.950 . S
H2479 C2499 0.950 . S
H2480 C2501 0.950 . S
H2481 C2504 0.950 . S
H2482 C2505 0.950 . S
H2483 C2507 0.950 . S
H2484 C2508 0.950 . S
H2485 C2509 0.951 . S
H2486 C2511 0.951 . S
H2487 C2513 0.950 . S
H2488 C2514 0.950 . S
H2489 C2516 0.950 . S
H2490 C2519 0.950 . S
H2491 C2520 0.950 1_554 S
H2492 C2522 0.950 . S
H2493 C2523 0.950 . S
C2494 H2476 0.951 . S
C2494 C2495 1.366 . S
C2494 C2496 1.388 . S
C2495 C2494 1.366 . S
C2495 C2499 1.385 . S
C2496 H2477 0.951 . S
C2496 C2494 1.388 . S
C2496 C2497 1.366 . S
C2497 C2496 1.366 . S
C2497 C2498 1.414 . S
C2497 C2500 1.499 . S
C2498 H2478 0.950 . S
C2498 C2497 1.414 . S
C2498 C2499 1.374 . S
C2499 H2479 0.950 . S
C2499 C2495 1.385 . S
C2499 C2498 1.374 . S
C2500 C2497 1.499 . S
C2500 C2501 1.373 . S
C2500 C2502 1.389 . S
C2501 H2480 0.950 . S
C2501 C2500 1.373 . S
C2501 C2517 1.377 . S
C2502 C2500 1.389 . S
C2502 C2503 1.524 . S
C2502 C2516 1.377 . S
C2503 C2502 1.524 . S
C2503 C2504 1.397 . S
C2503 C2508 1.363 . S
C2504 H2481 0.950 . S
C2504 C2503 1.397 . S
C2504 C2505 1.334 . S
C2505 H2482 0.950 . S
C2505 C2504 1.334 . S
C2505 C2506 1.287 . S
C2506 C2505 1.287 . S
C2506 C2507 1.524 . S
C2506 H2525 0.913 . S
C2507 H2483 0.950 . S
C2507 C2506 1.524 . S
C2507 C2508 1.415 . S
C2508 H2484 0.950 . S
C2508 C2503 1.363 . S
C2508 C2507 1.415 . S
C2509 H2485 0.951 . S
C2509 C2510 1.366 . S
C2509 C2511 1.388 . S
C2510 C2509 1.366 . S
C2510 C2514 1.385 1_556 S
C2511 H2486 0.951 . S
C2511 C2509 1.388 . S
C2511 C2512 1.366 . S
C2512 C2511 1.366 . S
C2512 C2513 1.414 . S
C2512 C2515 1.499 . S
C2513 H2487 0.950 . S
C2513 C2512 1.414 . S
C2513 C2514 1.374 1_556 S
C2514 H2488 0.950 . S
C2514 C2510 1.385 1_554 S
C2514 C2513 1.374 1_554 S
C2515 C2512 1.499 . S
C2515 C2516 1.373 . S
C2515 C2517 1.389 . S
C2516 H2489 0.950 . S
C2516 C2502 1.377 . S
C2516 C2515 1.373 . S
C2517 C2501 1.377 . S
C2517 C2515 1.389 . S
C2517 C2518 1.524 . S
C2518 C2517 1.524 . S
C2518 C2519 1.397 . S
C2518 C2523 1.363 . S
C2519 H2490 0.950 . S
C2519 C2518 1.397 . S
C2519 C2520 1.334 . S
C2520 H2491 0.950 1_556 S
C2520 C2519 1.334 . S
C2520 C2521 1.287 . S
C2521 C2520 1.287 . S
C2521 C2522 1.524 . S
C2521 H2524 0.999 . S
C2522 H2492 0.950 . S
C2522 C2521 1.524 . S
C2522 C2523 1.415 . S
C2523 H2493 0.950 . S
C2523 C2518 1.363 . S
C2523 C2522 1.415 . S
H2524 C2521 0.999 . S
H2525 C2506 0.913 . S
H2526 C2544 0.951 . S
H2527 C2546 0.951 . S
H2528 C2548 0.950 . S
H2529 C2549 0.950 . S
H2530 C2551 0.950 . S
H2531 C2554 0.950 . S
H2532 C2555 0.950 . S
H2533 C2557 0.950 . S
H2534 C2558 0.950 . S
H2535 C2559 0.951 . S
H2536 C2561 0.951 . S
H2537 C2563 0.950 . S
H2538 C2564 0.950 . S
H2539 C2566 0.950 . S
H2540 C2569 0.950 . S
H2541 C2570 0.950 . S
H2542 C2572 0.950 . S
H2543 C2573 0.950 . S
C2544 H2526 0.951 . S
C2544 C2545 1.366 . S
C2544 C2546 1.388 . S
C2545 C2544 1.366 . S
C2545 C2549 1.385 . S
C2546 H2527 0.951 . S
C2546 C2544 1.388 . S
C2546 C2547 1.366 . S
C2547 C2546 1.366 . S
C2547 C2548 1.414 . S
C2547 C2550 1.499 . S
C2548 H2528 0.950 . S
C2548 C2547 1.414 . S
C2548 C2549 1.374 . S
C2549 H2529 0.950 . S
C2549 C2545 1.385 . S
C2549 C2548 1.374 . S
C2550 C2547 1.499 . S
C2550 C2551 1.373 . S
C2550 C2552 1.389 . S
C2551 H2530 0.950 . S
C2551 C2550 1.373 . S
C2551 C2567 1.377 . S
C2552 C2550 1.389 . S
C2552 C2553 1.524 . S
C2552 C2566 1.377 . S
C2553 C2552 1.524 . S
C2553 C2554 1.397 . S
C2553 C2558 1.363 . S
C2554 H2531 0.950 . S
C2554 C2553 1.397 . S
C2554 C2555 1.334 . S
C2555 H2532 0.950 . S
C2555 C2554 1.334 . S
C2555 C2556 1.287 . S
C2556 C2555 1.287 . S
C2556 C2557 1.524 . S
C2556 H2575 0.913 . S
C2557 H2533 0.950 . S
C2557 C2556 1.524 . S
C2557 C2558 1.415 . S
C2558 H2534 0.950 . S
C2558 C2553 1.363 . S
C2558 C2557 1.415 . S
C2559 H2535 0.951 . S
C2559 C2560 1.366 . S
C2559 C2561 1.388 . S
C2560 C2559 1.366 . S
C2560 C2564 1.385 . S
C2561 H2536 0.951 . S
C2561 C2559 1.388 . S
C2561 C2562 1.366 . S
C2562 C2561 1.366 . S
C2562 C2563 1.414 . S
C2562 C2565 1.499 . S
C2563 H2537 0.950 . S
C2563 C2562 1.414 . S
C2563 C2564 1.374 . S
C2564 H2538 0.950 . S
C2564 C2560 1.385 . S
C2564 C2563 1.374 . S
C2565 C2562 1.499 . S
C2565 C2566 1.373 . S
C2565 C2567 1.389 . S
C2566 H2539 0.950 . S
C2566 C2552 1.377 . S
C2566 C2565 1.373 . S
C2567 C2551 1.377 . S
C2567 C2565 1.389 . S
C2567 C2568 1.524 . S
C2568 C2567 1.524 . S
C2568 C2569 1.397 . S
C2568 C2573 1.363 . S
C2569 H2540 0.950 . S
C2569 C2568 1.397 . S
C2569 C2570 1.334 . S
C2570 H2541 0.950 . S
C2570 C2569 1.334 . S
C2570 C2571 1.287 . S
C2571 C2570 1.287 . S
C2571 C2572 1.524 . S
C2571 H2574 0.999 . S
C2572 H2542 0.950 . S
C2572 C2571 1.524 . S
C2572 C2573 1.415 . S
C2573 H2543 0.950 . S
C2573 C2568 1.363 . S
C2573 C2572 1.415 . S
H2574 C2571 0.999 . S
H2575 C2556 0.913 . S
H2576 C2594 0.951 . S
H2577 C2596 0.951 . S
H2578 C2598 0.950 . S
H2579 C2599 0.950 . S
H2580 C2601 0.950 . S
H2581 C2604 0.950 . S
H2582 C2605 0.950 . S
H2583 C2607 0.950 . S
H2584 C2608 0.950 . S
H2585 C2609 0.951 1_565 S
H2586 C2611 0.951 1_565 S
H2587 C2613 0.950 . S
H2588 C2614 0.950 . S
H2589 C2616 0.950 . S
H2590 C2619 0.950 . S
H2591 C2620 0.950 . S
H2592 C2622 0.950 . S
H2593 C2623 0.950 . S
C2594 H2576 0.951 . S
C2594 C2595 1.366 . S
C2594 C2596 1.388 . S
C2595 C2594 1.366 . S
C2595 C2599 1.385 . S
C2596 H2577 0.951 . S
C2596 C2594 1.388 . S
C2596 C2597 1.366 . S
C2597 C2596 1.366 . S
C2597 C2598 1.414 . S
C2597 C2600 1.499 . S
C2598 H2578 0.950 . S
C2598 C2597 1.414 . S
C2598 C2599 1.374 . S
C2599 H2579 0.950 . S
C2599 C2595 1.385 . S
C2599 C2598 1.374 . S
C2600 C2597 1.499 . S
C2600 C2601 1.373 . S
C2600 C2602 1.389 . S
C2601 H2580 0.950 . S
C2601 C2600 1.373 . S
C2601 C2617 1.377 . S
C2602 C2600 1.389 . S
C2602 C2603 1.524 . S
C2602 C2616 1.377 . S
C2603 C2602 1.524 . S
C2603 C2604 1.397 . S
C2603 C2608 1.363 . S
C2604 H2581 0.950 . S
C2604 C2603 1.397 . S
C2604 C2605 1.334 . S
C2605 H2582 0.950 . S
C2605 C2604 1.334 . S
C2605 C2606 1.287 . S
C2606 C2605 1.287 . S
C2606 C2607 1.524 . S
C2606 H2625 0.913 . S
C2607 H2583 0.950 . S
C2607 C2606 1.524 . S
C2607 C2608 1.415 . S
C2608 H2584 0.950 . S
C2608 C2603 1.363 . S
C2608 C2607 1.415 . S
C2609 H2585 0.951 1_545 S
C2609 C2610 1.366 . S
C2609 C2611 1.388 . S
C2610 C2609 1.366 . S
C2610 C2614 1.385 . S
C2611 H2586 0.951 1_545 S
C2611 C2609 1.388 . S
C2611 C2612 1.366 . S
C2612 C2611 1.366 . S
C2612 C2613 1.414 . S
C2612 C2615 1.499 . S
C2613 H2587 0.950 . S
C2613 C2612 1.414 . S
C2613 C2614 1.374 . S
C2614 H2588 0.950 . S
C2614 C2610 1.385 . S
C2614 C2613 1.374 . S
C2615 C2612 1.499 . S
C2615 C2616 1.373 . S
C2615 C2617 1.389 . S
C2616 H2589 0.950 . S
C2616 C2602 1.377 . S
C2616 C2615 1.373 . S
C2617 C2601 1.377 . S
C2617 C2615 1.389 . S
C2617 C2618 1.524 . S
C2618 C2617 1.524 . S
C2618 C2619 1.397 . S
C2618 C2623 1.363 1_545 S
C2619 H2590 0.950 . S
C2619 C2618 1.397 . S
C2619 C2620 1.334 . S
C2620 H2591 0.950 . S
C2620 C2619 1.334 . S
C2620 C2621 1.287 1_545 S
C2621 C2620 1.287 1_565 S
C2621 C2622 1.524 . S
C2621 H2624 0.999 . S
C2622 H2592 0.950 . S
C2622 C2621 1.524 . S
C2622 C2623 1.415 . S
C2623 H2593 0.950 . S
C2623 C2618 1.363 1_565 S
C2623 C2622 1.415 . S
H2624 C2621 0.999 . S
H2625 C2606 0.913 . S
H2626 C2644 0.951 . S
H2627 C2646 0.951 . S
H2628 C2648 0.950 . S
H2629 C2649 0.950 . S
H2630 C2651 0.950 . S
H2631 C2654 0.950 . S
H2632 C2655 0.950 . S
H2633 C2657 0.950 . S
H2634 C2658 0.950 . S
H2635 C2659 0.951 . S
H2636 C2661 0.951 . S
H2637 C2663 0.950 . S
H2638 C2664 0.950 . S
H2639 C2666 0.950 . S
H2640 C2669 0.950 . S
H2641 C2670 0.950 . S
H2642 C2672 0.950 . S
H2643 C2673 0.950 . S
C2644 H2626 0.951 . S
C2644 C2645 1.366 . S
C2644 C2646 1.388 . S
C2645 C2644 1.366 . S
C2645 C2649 1.385 . S
C2646 H2627 0.951 . S
C2646 C2644 1.388 . S
C2646 C2647 1.366 . S
C2647 C2646 1.366 . S
C2647 C2648 1.414 . S
C2647 C2650 1.499 . S
C2648 H2628 0.950 . S
C2648 C2647 1.414 . S
C2648 C2649 1.374 . S
C2649 H2629 0.950 . S
C2649 C2645 1.385 . S
C2649 C2648 1.374 . S
C2650 C2647 1.499 . S
C2650 C2651 1.373 . S
C2650 C2652 1.389 . S
C2651 H2630 0.950 . S
C2651 C2650 1.373 . S
C2651 C2667 1.377 . S
C2652 C2650 1.389 . S
C2652 C2653 1.524 . S
C2652 C2666 1.377 . S
C2653 C2652 1.524 . S
C2653 C2654 1.397 . S
C2653 C2658 1.363 . S
C2654 H2631 0.950 . S
C2654 C2653 1.397 . S
C2654 C2655 1.334 . S
C2655 H2632 0.950 . S
C2655 C2654 1.334 . S
C2655 C2656 1.287 . S
C2656 C2655 1.287 . S
C2656 C2657 1.524 . S
C2656 H2675 0.913 . S
C2657 H2633 0.950 . S
C2657 C2656 1.524 . S
C2657 C2658 1.415 . S
C2658 H2634 0.950 . S
C2658 C2653 1.363 . S
C2658 C2657 1.415 . S
C2659 H2635 0.951 . S
C2659 C2660 1.366 . S
C2659 C2661 1.388 . S
C2660 C2659 1.366 . S
C2660 C2664 1.385 . S
C2661 H2636 0.951 . S
C2661 C2659 1.388 . S
C2661 C2662 1.366 . S
C2662 C2661 1.366 . S
C2662 C2663 1.414 . S
C2662 C2665 1.499 . S
C2663 H2637 0.950 . S
C2663 C2662 1.414 . S
C2663 C2664 1.374 . S
C2664 H2638 0.950 . S
C2664 C2660 1.385 . S
C2664 C2663 1.374 . S
C2665 C2662 1.499 . S
C2665 C2666 1.373 . S
C2665 C2667 1.389 . S
C2666 H2639 0.950 . S
C2666 C2652 1.377 . S
C2666 C2665 1.373 . S
C2667 C2651 1.377 . S
C2667 C2665 1.389 . S
C2667 C2668 1.524 . S
C2668 C2667 1.524 . S
C2668 C2669 1.397 . S
C2668 C2673 1.363 . S
C2669 H2640 0.950 . S
C2669 C2668 1.397 . S
C2669 C2670 1.334 . S
C2670 H2641 0.950 . S
C2670 C2669 1.334 . S
C2670 C2671 1.287 . S
C2671 C2670 1.287 . S
C2671 C2672 1.524 . S
C2671 H2674 0.999 . S
C2672 H2642 0.950 . S
C2672 C2671 1.524 . S
C2672 C2673 1.415 . S
C2673 H2643 0.950 . S
C2673 C2668 1.363 . S
C2673 C2672 1.415 . S
H2674 C2671 0.999 . S
H2675 C2656 0.913 . S
H2676 C2694 0.951 . S
H2677 C2696 0.951 . S
H2678 C2698 0.950 . S
H2679 C2699 0.950 . S
H2680 C2701 0.950 . S
H2681 C2704 0.950 . S
H2682 C2705 0.950 . S
H2683 C2707 0.950 . S
H2684 C2708 0.950 . S
H2685 C2709 0.951 . S
H2686 C2711 0.951 . S
H2687 C2713 0.950 . S
H2688 C2714 0.950 . S
H2689 C2716 0.950 . S
H2690 C2719 0.950 . S
H2691 C2720 0.950 . S
H2692 C2722 0.950 . S
H2693 C2723 0.950 . S
C2694 H2676 0.951 . S
C2694 C2695 1.366 . S
C2694 C2696 1.388 . S
C2695 C2694 1.366 . S
C2695 C2699 1.385 . S
C2696 H2677 0.951 . S
C2696 C2694 1.388 . S
C2696 C2697 1.366 . S
C2697 C2696 1.366 . S
C2697 C2698 1.414 . S
C2697 C2700 1.499 . S
C2698 H2678 0.950 . S
C2698 C2697 1.414 . S
C2698 C2699 1.374 . S
C2699 H2679 0.950 . S
C2699 C2695 1.385 . S
C2699 C2698 1.374 . S
C2700 C2697 1.499 . S
C2700 C2701 1.373 . S
C2700 C2702 1.389 . S
C2701 H2680 0.950 . S
C2701 C2700 1.373 . S
C2701 C2717 1.377 . S
C2702 C2700 1.389 . S
C2702 C2703 1.524 . S
C2702 C2716 1.377 . S
C2703 C2702 1.524 . S
C2703 C2704 1.397 . S
C2703 C2708 1.363 1_545 S
C2704 H2681 0.950 . S
C2704 C2703 1.397 . S
C2704 C2705 1.334 1_545 S
C2705 H2682 0.950 . S
C2705 C2704 1.334 1_565 S
C2705 C2706 1.287 . S
C2706 C2705 1.287 . S
C2706 C2707 1.524 . S
C2706 H2725 0.913 . S
C2707 H2683 0.950 . S
C2707 C2706 1.524 . S
C2707 C2708 1.415 . S
C2708 H2684 0.950 . S
C2708 C2703 1.363 1_565 S
C2708 C2707 1.415 . S
C2709 H2685 0.951 . S
C2709 C2710 1.366 . S
C2709 C2711 1.388 . S
C2710 C2709 1.366 . S
C2710 C2714 1.385 . S
C2711 H2686 0.951 . S
C2711 C2709 1.388 . S
C2711 C2712 1.366 . S
C2712 C2711 1.366 . S
C2712 C2713 1.414 . S
C2712 C2715 1.499 . S
C2713 H2687 0.950 . S
C2713 C2712 1.414 . S
C2713 C2714 1.374 . S
C2714 H2688 0.950 . S
C2714 C2710 1.385 . S
C2714 C2713 1.374 . S
C2715 C2712 1.499 . S
C2715 C2716 1.373 . S
C2715 C2717 1.389 . S
C2716 H2689 0.950 . S
C2716 C2702 1.377 . S
C2716 C2715 1.373 . S
C2717 C2701 1.377 . S
C2717 C2715 1.389 . S
C2717 C2718 1.524 . S
C2718 C2717 1.524 . S
C2718 C2719 1.397 . S
C2718 C2723 1.363 . S
C2719 H2690 0.950 . S
C2719 C2718 1.397 . S
C2719 C2720 1.334 . S
C2720 H2691 0.950 . S
C2720 C2719 1.334 . S
C2720 C2721 1.287 . S
C2721 C2720 1.287 . S
C2721 C2722 1.524 . S
C2721 H2724 0.999 . S
C2722 H2692 0.950 . S
C2722 C2721 1.524 . S
C2722 C2723 1.415 . S
C2723 H2693 0.950 . S
C2723 C2718 1.363 . S
C2723 C2722 1.415 . S
H2724 C2721 0.999 . S
H2725 C2706 0.913 . S
H2726 C2744 0.951 . S
H2727 C2746 0.951 . S
H2728 C2748 0.950 . S
H2729 C2749 0.950 . S
H2730 C2751 0.950 . S
H2731 C2754 0.950 . S
H2732 C2755 0.950 . S
H2733 C2757 0.950 . S
H2734 C2758 0.950 . S
H2735 C2759 0.951 . S
H2736 C2761 0.951 . S
H2737 C2763 0.950 . S
H2738 C2764 0.950 . S
H2739 C2766 0.950 . S
H2740 C2769 0.950 . S
H2741 C2770 0.950 . S
H2742 C2772 0.950 . S
H2743 C2773 0.950 . S
C2744 H2726 0.951 . S
C2744 C2745 1.366 . S
C2744 C2746 1.388 . S
C2745 C2744 1.366 . S
C2745 C2749 1.385 . S
C2746 H2727 0.951 . S
C2746 C2744 1.388 . S
C2746 C2747 1.366 . S
C2747 C2746 1.366 . S
C2747 C2748 1.414 . S
C2747 C2750 1.499 . S
C2748 H2728 0.950 . S
C2748 C2747 1.414 . S
C2748 C2749 1.374 . S
C2749 H2729 0.950 . S
C2749 C2745 1.385 . S
C2749 C2748 1.374 . S
C2750 C2747 1.499 . S
C2750 C2751 1.373 . S
C2750 C2752 1.389 . S
C2751 H2730 0.950 . S
C2751 C2750 1.373 . S
C2751 C2767 1.377 . S
C2752 C2750 1.389 . S
C2752 C2753 1.524 . S
C2752 C2766 1.377 . S
C2753 C2752 1.524 . S
C2753 C2754 1.397 . S
C2753 C2758 1.363 . S
C2754 H2731 0.950 . S
C2754 C2753 1.397 . S
C2754 C2755 1.334 . S
C2755 H2732 0.950 . S
C2755 C2754 1.334 . S
C2755 C2756 1.287 . S
C2756 C2755 1.287 . S
C2756 C2757 1.524 . S
C2756 H2775 0.913 . S
C2757 H2733 0.950 . S
C2757 C2756 1.524 . S
C2757 C2758 1.415 . S
C2758 H2734 0.950 . S
C2758 C2753 1.363 . S
C2758 C2757 1.415 . S
C2759 H2735 0.951 . S
C2759 C2760 1.366 . S
C2759 C2761 1.388 . S
C2760 C2759 1.366 . S
C2760 C2764 1.385 . S
C2761 H2736 0.951 . S
C2761 C2759 1.388 . S
C2761 C2762 1.366 . S
C2762 C2761 1.366 . S
C2762 C2763 1.414 . S
C2762 C2765 1.499 . S
C2763 H2737 0.950 . S
C2763 C2762 1.414 . S
C2763 C2764 1.374 . S
C2764 H2738 0.950 . S
C2764 C2760 1.385 . S
C2764 C2763 1.374 . S
C2765 C2762 1.499 . S
C2765 C2766 1.373 . S
C2765 C2767 1.389 . S
C2766 H2739 0.950 . S
C2766 C2752 1.377 . S
C2766 C2765 1.373 . S
C2767 C2751 1.377 . S
C2767 C2765 1.389 . S
C2767 C2768 1.524 . S
C2768 C2767 1.524 . S
C2768 C2769 1.397 . S
C2768 C2773 1.363 . S
C2769 H2740 0.950 . S
C2769 C2768 1.397 . S
C2769 C2770 1.334 . S
C2770 H2741 0.950 . S
C2770 C2769 1.334 . S
C2770 C2771 1.287 . S
C2771 C2770 1.287 . S
C2771 C2772 1.524 . S
C2771 H2774 0.999 . S
C2772 H2742 0.950 . S
C2772 C2771 1.524 . S
C2772 C2773 1.415 . S
C2773 H2743 0.950 . S
C2773 C2768 1.363 . S
C2773 C2772 1.415 . S
H2774 C2771 0.999 . S
H2775 C2756 0.913 . S
H2776 C2794 0.951 . S
H2777 C2796 0.951 . S
H2778 C2798 0.950 . S
H2779 C2799 0.950 . S
H2780 C2801 0.950 . S
H2781 C2804 0.950 . S
H2782 C2805 0.950 . S
H2783 C2807 0.950 . S
H2784 C2808 0.950 . S
H2785 C2809 0.969 . S
H2786 C2811 0.951 . S
H2787 C2813 0.950 . S
H2788 C2814 0.950 . S
H2789 C2816 0.950 . S
H2790 C2819 0.950 1_545 S
H2791 C2820 0.950 . S
H2792 C2822 0.950 . S
H2793 C2823 0.950 . S
C2794 H2776 0.951 . S
C2794 C2795 1.366 . S
C2794 C2796 1.388 . S
C2795 C2794 1.366 . S
C2795 C2799 1.385 . S
C2796 H2777 0.951 . S
C2796 C2794 1.388 . S
C2796 C2797 1.366 . S
C2797 C2796 1.366 . S
C2797 C2798 1.414 . S
C2797 C2800 1.499 . S
C2798 H2778 0.950 . S
C2798 C2797 1.414 . S
C2798 C2799 1.374 . S
C2799 H2779 0.950 . S
C2799 C2795 1.385 . S
C2799 C2798 1.374 . S
C2800 C2797 1.499 . S
C2800 C2801 1.373 . S
C2800 C2802 1.389 . S
C2801 H2780 0.950 . S
C2801 C2800 1.373 . S
C2801 C2817 1.377 . S
C2802 C2800 1.389 . S
C2802 C2803 1.524 . S
C2802 C2816 1.377 . S
C2803 C2802 1.524 . S
C2803 C2804 1.397 . S
C2803 C2808 1.363 . S
C2804 H2781 0.950 . S
C2804 C2803 1.397 . S
C2804 C2805 1.334 . S
C2805 H2782 0.950 . S
C2805 C2804 1.334 . S
C2805 C2806 1.287 . S
C2806 C2805 1.287 . S
C2806 C2807 1.524 . S
C2806 H2825 0.913 . S
C2807 H2783 0.950 . S
C2807 C2806 1.524 . S
C2807 C2808 1.415 . S
C2808 H2784 0.950 . S
C2808 C2803 1.363 . S
C2808 C2807 1.415 . S
C2809 H2785 0.969 . S
C2809 C2810 1.366 . S
C2809 C2811 1.388 . S
C2810 C2809 1.366 . S
C2810 C2814 1.385 . S
C2811 H2786 0.951 . S
C2811 C2809 1.388 . S
C2811 C2812 1.366 . S
C2812 C2811 1.366 . S
C2812 C2813 1.414 . S
C2812 C2815 1.499 . S
C2813 H2787 0.950 . S
C2813 C2812 1.414 . S
C2813 C2814 1.374 . S
C2814 H2788 0.950 . S
C2814 C2810 1.385 . S
C2814 C2813 1.374 . S
C2815 C2812 1.499 . S
C2815 C2816 1.373 . S
C2815 C2817 1.389 . S
C2816 H2789 0.950 . S
C2816 C2802 1.377 . S
C2816 C2815 1.373 . S
C2817 C2801 1.377 . S
C2817 C2815 1.389 . S
C2817 C2818 1.524 1_545 S
C2818 C2817 1.524 1_565 S
C2818 C2819 1.397 . S
C2818 C2823 1.363 . S
C2819 H2790 0.950 1_565 S
C2819 C2818 1.397 . S
C2819 C2820 1.334 . S
C2820 H2791 0.950 . S
C2820 C2819 1.334 . S
C2820 C2821 1.287 . S
C2821 C2820 1.287 . S
C2821 C2822 1.524 . S
C2821 H2824 0.999 . S
C2822 H2792 0.950 . S
C2822 C2821 1.524 . S
C2822 C2823 1.415 . S
C2823 H2793 0.950 . S
C2823 C2818 1.363 . S
C2823 C2822 1.415 . S
H2824 C2821 0.999 . S
H2825 C2806 0.913 . S
H2826 C2844 0.951 . S
H2827 C2846 0.951 . S
H2828 C2848 0.950 . S
H2829 C2849 0.950 . S
H2830 C2851 0.950 . S
H2831 C2854 0.950 . S
H2832 C2855 0.950 . S
H2833 C2857 0.950 . S
H2834 C2858 0.950 . S
H2835 C2859 0.951 . S
H2836 C2861 0.951 . S
H2837 C2863 0.950 . S
H2838 C2864 0.950 . S
H2839 C2866 0.950 . S
H2840 C2869 0.950 . S
H2841 C2870 0.950 . S
H2842 C2872 0.950 . S
H2843 C2873 0.950 . S
C2844 H2826 0.951 . S
C2844 C2845 1.366 . S
C2844 C2846 1.388 . S
C2845 C2844 1.366 . S
C2845 C2849 1.385 . S
C2846 H2827 0.951 . S
C2846 C2844 1.388 . S
C2846 C2847 1.366 . S
C2847 C2846 1.366 . S
C2847 C2848 1.414 . S
C2847 C2850 1.499 . S
C2848 H2828 0.950 . S
C2848 C2847 1.414 . S
C2848 C2849 1.374 . S
C2849 H2829 0.950 . S
C2849 C2845 1.385 . S
C2849 C2848 1.374 . S
C2850 C2847 1.499 . S
C2850 C2851 1.373 . S
C2850 C2852 1.389 . S
C2851 H2830 0.950 . S
C2851 C2850 1.373 . S
C2851 C2867 1.377 . S
C2852 C2850 1.389 . S
C2852 C2853 1.524 . S
C2852 C2866 1.377 . S
C2853 C2852 1.524 . S
C2853 C2854 1.397 . S
C2853 C2858 1.363 . S
C2854 H2831 0.950 . S
C2854 C2853 1.397 . S
C2854 C2855 1.334 . S
C2855 H2832 0.950 . S
C2855 C2854 1.334 . S
C2855 C2856 1.287 . S
C2856 C2855 1.287 . S
C2856 C2857 1.524 . S
C2856 H2875 0.913 . S
C2857 H2833 0.950 . S
C2857 C2856 1.524 . S
C2857 C2858 1.415 . S
C2858 H2834 0.950 . S
C2858 C2853 1.363 . S
C2858 C2857 1.415 . S
C2859 H2835 0.951 . S
C2859 C2860 1.366 . S
C2859 C2861 1.388 . S
C2860 C2859 1.366 . S
C2860 C2864 1.385 . S
C2861 H2836 0.951 . S
C2861 C2859 1.388 . S
C2861 C2862 1.366 . S
C2862 C2861 1.366 . S
C2862 C2863 1.414 . S
C2862 C2865 1.499 . S
C2863 H2837 0.950 . S
C2863 C2862 1.414 . S
C2863 C2864 1.374 . S
C2864 H2838 0.950 . S
C2864 C2860 1.385 . S
C2864 C2863 1.374 . S
C2865 C2862 1.499 . S
C2865 C2866 1.373 . S
C2865 C2867 1.389 . S
C2866 H2839 0.950 . S
C2866 C2852 1.377 . S
C2866 C2865 1.373 . S
C2867 C2851 1.377 . S
C2867 C2865 1.389 . S
C2867 C2868 1.524 . S
C2868 C2867 1.524 . S
C2868 C2869 1.397 . S
C2868 C2873 1.363 . S
C2869 H2840 0.950 . S
C2869 C2868 1.397 . S
C2869 C2870 1.334 . S
C2870 H2841 0.950 . S
C2870 C2869 1.334 . S
C2870 C2871 1.287 . S
C2871 C2870 1.287 . S
C2871 C2872 1.524 . S
C2871 H2874 0.999 . S
C2872 H2842 0.950 . S
C2872 C2871 1.524 . S
C2872 C2873 1.415 . S
C2873 H2843 0.950 . S
C2873 C2868 1.363 . S
C2873 C2872 1.415 . S
H2874 C2871 0.999 . S
H2875 C2856 0.913 . S
H2876 C2894 0.951 . S
H2877 C2896 0.951 . S
H2878 C2898 0.950 . S
H2879 C2899 0.950 . S
H2880 C2901 0.950 . S
H2881 C2904 0.950 . S
H2882 C2905 0.950 . S
H2883 C2907 0.950 . S
H2884 C2908 0.950 . S
H2885 C2909 0.951 . S
H2886 C2911 0.951 . S
H2887 C2913 0.950 . S
H2888 C2914 0.950 . S
H2889 C2916 0.950 . S
H2890 C2919 0.950 . S
H2891 C2920 0.950 . S
H2892 C2922 0.950 . S
H2893 C2923 0.950 . S
C2894 H2876 0.951 . S
C2894 C2895 1.366 . S
C2894 C2896 1.388 . S
C2895 C2894 1.366 . S
C2895 C2899 1.385 . S
C2896 H2877 0.951 . S
C2896 C2894 1.388 . S
C2896 C2897 1.366 . S
C2897 C2896 1.366 . S
C2897 C2898 1.414 . S
C2897 C2900 1.499 . S
C2898 H2878 0.950 . S
C2898 C2897 1.414 . S
C2898 C2899 1.374 . S
C2899 H2879 0.950 . S
C2899 C2895 1.385 . S
C2899 C2898 1.374 . S
C2900 C2897 1.499 . S
C2900 C2901 1.373 . S
C2900 C2902 1.389 . S
C2901 H2880 0.950 . S
C2901 C2900 1.373 . S
C2901 C2917 1.377 . S
C2902 C2900 1.389 . S
C2902 C2903 1.524 . S
C2902 C2916 1.377 . S
C2903 C2902 1.524 . S
C2903 C2904 1.397 . S
C2903 C2908 1.363 . S
C2904 H2881 0.950 . S
C2904 C2903 1.397 . S
C2904 C2905 1.334 . S
C2905 H2882 0.950 . S
C2905 C2904 1.334 . S
C2905 C2906 1.287 . S
C2906 C2905 1.287 . S
C2906 C2907 1.524 . S
C2906 H2925 0.913 . S
C2907 H2883 0.950 . S
C2907 C2906 1.524 . S
C2907 C2908 1.415 . S
C2908 H2884 0.950 . S
C2908 C2903 1.363 . S
C2908 C2907 1.415 . S
C2909 H2885 0.951 . S
C2909 C2910 1.366 . S
C2909 C2911 1.388 . S
C2910 C2909 1.366 . S
C2910 C2914 1.385 1_565 S
C2911 H2886 0.951 . S
C2911 C2909 1.388 . S
C2911 C2912 1.366 1_565 S
C2912 C2911 1.366 1_545 S
C2912 C2913 1.414 . S
C2912 C2915 1.499 . S
C2913 H2887 0.950 . S
C2913 C2912 1.414 . S
C2913 C2914 1.374 . S
C2914 H2888 0.950 . S
C2914 C2910 1.385 1_545 S
C2914 C2913 1.374 . S
C2915 C2912 1.499 . S
C2915 C2916 1.373 . S
C2915 C2917 1.389 . S
C2916 H2889 0.950 . S
C2916 C2902 1.377 . S
C2916 C2915 1.373 . S
C2917 C2901 1.377 . S
C2917 C2915 1.389 . S
C2917 C2918 1.524 . S
C2918 C2917 1.524 . S
C2918 C2919 1.397 . S
C2918 C2923 1.363 . S
C2919 H2890 0.950 . S
C2919 C2918 1.397 . S
C2919 C2920 1.334 . S
C2920 H2891 0.950 . S
C2920 C2919 1.334 . S
C2920 C2921 1.287 . S
C2921 C2920 1.287 . S
C2921 C2922 1.524 . S
C2921 H2924 0.999 . S
C2922 H2892 0.950 . S
C2922 C2921 1.524 . S
C2922 C2923 1.415 . S
C2923 H2893 0.950 . S
C2923 C2918 1.363 . S
C2923 C2922 1.415 . S
H2924 C2921 0.999 . S
H2925 C2906 0.913 . S
H2926 C2944 0.951 . S
H2927 C2946 0.951 . S
H2928 C2948 0.950 . S
H2929 C2949 0.950 . S
H2930 C2951 0.950 . S
H2931 C2954 0.950 . S
H2932 C2955 0.950 . S
H2933 C2957 0.950 . S
H2934 C2958 0.950 . S
H2935 C2959 0.951 . S
H2936 C2961 0.951 . S
H2937 C2963 0.950 . S
H2938 C2964 0.950 . S
H2939 C2966 0.950 . S
H2940 C2969 0.950 . S
H2941 C2970 0.950 . S
H2942 C2972 0.950 . S
H2943 C2973 0.950 . S
C2944 H2926 0.951 . S
C2944 C2945 1.366 . S
C2944 C2946 1.388 . S
C2945 C2944 1.366 . S
C2945 C2949 1.385 . S
C2946 H2927 0.951 . S
C2946 C2944 1.388 . S
C2946 C2947 1.366 . S
C2947 C2946 1.366 . S
C2947 C2948 1.414 . S
C2947 C2950 1.499 . S
C2948 H2928 0.950 . S
C2948 C2947 1.414 . S
C2948 C2949 1.374 . S
C2949 H2929 0.950 . S
C2949 C2945 1.385 . S
C2949 C2948 1.374 . S
C2950 C2947 1.499 . S
C2950 C2951 1.373 . S
C2950 C2952 1.389 . S
C2951 H2930 0.950 . S
C2951 C2950 1.373 . S
C2951 C2967 1.377 . S
C2952 C2950 1.389 . S
C2952 C2953 1.524 . S
C2952 C2966 1.377 . S
C2953 C2952 1.524 . S
C2953 C2954 1.397 . S
C2953 C2958 1.363 . S
C2954 H2931 0.950 . S
C2954 C2953 1.397 . S
C2954 C2955 1.334 . S
C2955 H2932 0.950 . S
C2955 C2954 1.334 . S
C2955 C2956 1.287 . S
C2956 C2955 1.287 . S
C2956 C2957 1.524 . S
C2956 H2975 0.913 . S
C2957 H2933 0.950 . S
C2957 C2956 1.524 . S
C2957 C2958 1.415 . S
C2958 H2934 0.950 . S
C2958 C2953 1.363 . S
C2958 C2957 1.415 . S
C2959 H2935 0.951 . S
C2959 C2960 1.366 . S
C2959 C2961 1.388 . S
C2960 C2959 1.366 . S
C2960 C2964 1.385 . S
C2961 H2936 0.951 . S
C2961 C2959 1.388 . S
C2961 C2962 1.366 . S
C2962 C2961 1.366 . S
C2962 C2963 1.414 . S
C2962 C2965 1.499 . S
C2963 H2937 0.950 . S
C2963 C2962 1.414 . S
C2963 C2964 1.374 . S
C2964 H2938 0.950 . S
C2964 C2960 1.385 . S
C2964 C2963 1.374 . S
C2965 C2962 1.499 . S
C2965 C2966 1.373 . S
C2965 C2967 1.389 . S
C2966 H2939 0.950 . S
C2966 C2952 1.377 . S
C2966 C2965 1.373 . S
C2967 C2951 1.377 . S
C2967 C2965 1.389 . S
C2967 C2968 1.524 . S
C2968 C2967 1.524 . S
C2968 C2969 1.397 . S
C2968 C2973 1.363 . S
C2969 H2940 0.950 . S
C2969 C2968 1.397 . S
C2969 C2970 1.334 . S
C2970 H2941 0.950 . S
C2970 C2969 1.334 . S
C2970 C2971 1.287 . S
C2971 C2970 1.287 . S
C2971 C2972 1.524 . S
C2971 H2974 0.999 . S
C2972 H2942 0.950 . S
C2972 C2971 1.524 . S
C2972 C2973 1.415 . S
C2973 H2943 0.950 . S
C2973 C2968 1.363 . S
C2973 C2972 1.415 . S
H2974 C2971 0.999 . S
H2975 C2956 0.913 . S
H2976 C2994 0.951 . S
H2977 C2996 0.951 . S
H2978 C2998 0.950 . S
H2979 C2999 0.950 . S
H2980 C3001 0.950 . S
H2981 C3004 0.950 . S
H2982 C3005 0.950 . S
H2983 C3007 0.950 . S
H2984 C3008 0.950 . S
H2985 C3009 0.951 . S
H2986 C3011 0.951 . S
H2987 C3013 0.950 . S
H2988 C3014 0.950 . S
H2989 C3016 0.950 . S
H2990 C3019 0.950 . S
H2991 C3020 0.950 . S
H2992 C3022 0.950 . S
H2993 C3023 0.950 . S
C2994 H2976 0.951 . S
C2994 C2995 1.366 1_556 S
C2994 C2996 1.388 . S
C2995 C2994 1.366 1_554 S
C2995 C2999 1.385 . S
C2996 H2977 0.951 . S
C2996 C2994 1.388 . S
C2996 C2997 1.366 . S
C2997 C2996 1.366 . S
C2997 C2998 1.414 1_556 S
C2997 C3000 1.499 . S
C2998 H2978 0.950 . S
C2998 C2997 1.414 1_554 S
C2998 C2999 1.374 . S
C2999 H2979 0.950 . S
C2999 C2995 1.385 . S
C2999 C2998 1.374 . S
C3000 C2997 1.499 . S
C3000 C3001 1.373 1_556 S
C3000 C3002 1.389 . S
C3001 H2980 0.950 . S
C3001 C3000 1.373 1_554 S
C3001 C3017 1.377 . S
C3002 C3000 1.389 . S
C3002 C3003 1.524 . S
C3002 C3016 1.377 . S
C3003 C3002 1.524 . S
C3003 C3004 1.397 . S
C3003 C3008 1.363 . S
C3004 H2981 0.950 . S
C3004 C3003 1.397 . S
C3004 C3005 1.334 . S
C3005 H2982 0.950 . S
C3005 C3004 1.334 . S
C3005 C3006 1.287 . S
C3006 C3005 1.287 . S
C3006 C3007 1.524 . S
C3006 H3025 0.913 . S
C3007 H2983 0.950 . S
C3007 C3006 1.524 . S
C3007 C3008 1.415 . S
C3008 H2984 0.950 . S
C3008 C3003 1.363 . S
C3008 C3007 1.415 . S
C3009 H2985 0.951 . S
C3009 C3010 1.366 . S
C3009 C3011 1.388 . S
C3010 C3009 1.366 . S
C3010 C3014 1.385 . S
C3011 H2986 0.951 . S
C3011 C3009 1.388 . S
C3011 C3012 1.366 . S
C3012 C3011 1.366 . S
C3012 C3013 1.414 . S
C3012 C3015 1.499 . S
C3013 H2987 0.950 . S
C3013 C3012 1.414 . S
C3013 C3014 1.374 . S
C3014 H2988 0.950 . S
C3014 C3010 1.385 . S
C3014 C3013 1.374 . S
C3015 C3012 1.499 . S
C3015 C3016 1.373 . S
C3015 C3017 1.389 1_556 S
C3016 H2989 0.950 . S
C3016 C3002 1.377 . S
C3016 C3015 1.373 . S
C3017 C3001 1.377 . S
C3017 C3015 1.389 1_554 S
C3017 C3018 1.524 . S
C3018 C3017 1.524 . S
C3018 C3019 1.397 . S
C3018 C3023 1.363 . S
C3019 H2990 0.950 . S
C3019 C3018 1.397 . S
C3019 C3020 1.334 . S
C3020 H2991 0.950 . S
C3020 C3019 1.334 . S
C3020 C3021 1.287 . S
C3021 C3020 1.287 . S
C3021 C3022 1.524 . S
C3021 H3024 0.999 . S
C3022 H2992 0.950 . S
C3022 C3021 1.524 . S
C3022 C3023 1.415 . S
C3023 H2993 0.950 . S
C3023 C3018 1.363 . S
C3023 C3022 1.415 . S
H3024 C3021 0.999 . S
H3025 C3006 0.913 . S
H3026 C3044 0.951 . S
H3027 C3046 0.951 . S
H3028 C3048 0.950 . S
H3029 C3049 0.950 . S
H3030 C3051 0.950 . S
H3031 C3054 0.950 1_554 S
H3032 C3055 0.950 . S
H3033 C3057 0.950 . S
H3034 C3058 0.950 . S
H3035 C3059 0.951 . S
H3036 C3061 0.951 . S
H3037 C3063 0.950 . S
H3038 C3064 0.950 . S
H3039 C3066 0.945 . S
H3040 C3069 0.950 . S
H3041 C3070 0.950 . S
H3042 C3072 0.950 . S
H3043 C3073 0.950 . S
C3044 H3026 0.951 . S
C3044 C3045 1.366 . S
C3044 C3046 1.388 . S
C3045 C3044 1.366 . S
C3045 C3049 1.385 . S
C3046 H3027 0.951 . S
C3046 C3044 1.388 . S
C3046 C3047 1.366 . S
C3047 C3046 1.366 . S
C3047 C3048 1.414 . S
C3047 C3050 1.499 . S
C3048 H3028 0.950 . S
C3048 C3047 1.414 . S
C3048 C3049 1.374 . S
C3049 H3029 0.950 . S
C3049 C3045 1.385 . S
C3049 C3048 1.374 . S
C3050 C3047 1.499 . S
C3050 C3051 1.373 . S
C3050 C3052 1.389 . S
C3051 H3030 0.950 . S
C3051 C3050 1.373 . S
C3051 C3067 1.377 . S
C3052 C3050 1.389 . S
C3052 C3053 1.524 1_554 S
C3052 C3066 1.377 . S
C3053 C3052 1.524 1_556 S
C3053 C3054 1.397 . S
C3053 C3058 1.363 . S
C3054 H3031 0.950 1_556 S
C3054 C3053 1.397 . S
C3054 C3055 1.334 . S
C3055 H3032 0.950 . S
C3055 C3054 1.334 . S
C3055 C3056 1.287 . S
C3056 C3055 1.287 . S
C3056 C3057 1.524 . S
C3056 H3075 0.913 . S
C3057 H3033 0.950 . S
C3057 C3056 1.524 . S
C3057 C3058 1.415 . S
C3058 H3034 0.950 . S
C3058 C3053 1.363 . S
C3058 C3057 1.415 . S
C3059 H3035 0.951 . S
C3059 C3060 1.366 . S
C3059 C3061 1.388 . S
C3060 C3059 1.366 . S
C3060 C3064 1.385 . S
C3061 H3036 0.951 . S
C3061 C3059 1.388 . S
C3061 C3062 1.366 . S
C3062 C3061 1.366 . S
C3062 C3063 1.414 . S
C3062 C3065 1.499 . S
C3063 H3037 0.950 . S
C3063 C3062 1.414 . S
C3063 C3064 1.374 . S
C3064 H3038 0.950 . S
C3064 C3060 1.385 . S
C3064 C3063 1.374 . S
C3065 C3062 1.499 . S
C3065 C3066 1.373 . S
C3065 C3067 1.389 . S
C3066 H3039 0.945 . S
C3066 C3052 1.377 . S
C3066 C3065 1.373 . S
C3067 C3051 1.377 . S
C3067 C3065 1.389 . S
C3067 C3068 1.524 . S
C3068 C3067 1.524 . S
C3068 C3069 1.397 . S
C3068 C3073 1.363 . S
C3069 H3040 0.950 . S
C3069 C3068 1.397 . S
C3069 C3070 1.334 . S
C3070 H3041 0.950 . S
C3070 C3069 1.334 . S
C3070 C3071 1.287 . S
C3071 C3070 1.287 . S
C3071 C3072 1.524 . S
C3071 H3074 0.999 . S
C3072 H3042 0.950 . S
C3072 C3071 1.524 . S
C3072 C3073 1.415 . S
C3073 H3043 0.950 . S
C3073 C3068 1.363 . S
C3073 C3072 1.415 . S
H3074 C3071 0.999 . S
H3075 C3056 0.913 . S
H3076 C3094 0.951 . S
H3077 C3096 0.951 . S
H3078 C3098 0.950 . S
H3079 C3099 0.950 . S
H3080 C3101 0.950 . S
H3081 C3104 0.950 . S
H3082 C3105 0.950 . S
H3083 C3107 0.950 . S
H3084 C3108 0.950 . S
H3085 C3109 0.951 . S
H3086 C3111 0.951 . S
H3087 C3113 0.950 . S
H3088 C3114 0.950 . S
H3089 C3116 0.950 . S
H3090 C3119 0.950 . S
H3091 C3120 0.950 . S
H3092 C3122 0.950 . S
H3093 C3123 0.950 . S
C3094 H3076 0.951 . S
C3094 C3095 1.366 . S
C3094 C3096 1.388 . S
C3095 C3094 1.366 . S
C3095 C3099 1.385 . S
C3096 H3077 0.951 . S
C3096 C3094 1.388 . S
C3096 C3097 1.366 . S
C3097 C3096 1.366 . S
C3097 C3098 1.414 . S
C3097 C3100 1.499 . S
C3098 H3078 0.950 . S
C3098 C3097 1.414 . S
C3098 C3099 1.374 . S
C3099 H3079 0.950 . S
C3099 C3095 1.385 . S
C3099 C3098 1.374 . S
C3100 C3097 1.499 . S
C3100 C3101 1.373 . S
C3100 C3102 1.389 . S
C3101 H3080 0.950 . S
C3101 C3100 1.373 . S
C3101 C3117 1.377 . S
C3102 C3100 1.389 . S
C3102 C3103 1.524 . S
C3102 C3116 1.377 . S
C3103 C3102 1.524 . S
C3103 C3104 1.397 . S
C3103 C3108 1.363 . S
C3104 H3081 0.950 . S
C3104 C3103 1.397 . S
C3104 C3105 1.334 . S
C3105 H3082 0.950 . S
C3105 C3104 1.334 . S
C3105 C3106 1.287 . S
C3106 C3105 1.287 . S
C3106 C3107 1.524 . S
C3106 H3125 0.913 . S
C3107 H3083 0.950 . S
C3107 C3106 1.524 . S
C3107 C3108 1.415 . S
C3108 H3084 0.950 . S
C3108 C3103 1.363 . S
C3108 C3107 1.415 . S
C3109 H3085 0.951 . S
C3109 C3110 1.366 . S
C3109 C3111 1.388 . S
C3110 C3109 1.366 . S
C3110 C3114 1.385 . S
C3111 H3086 0.951 . S
C3111 C3109 1.388 . S
C3111 C3112 1.366 . S
C3112 C3111 1.366 . S
C3112 C3113 1.414 . S
C3112 C3115 1.499 . S
C3113 H3087 0.950 . S
C3113 C3112 1.414 . S
C3113 C3114 1.374 . S
C3114 H3088 0.950 . S
C3114 C3110 1.385 . S
C3114 C3113 1.374 . S
C3115 C3112 1.499 . S
C3115 C3116 1.373 . S
C3115 C3117 1.389 . S
C3116 H3089 0.950 . S
C3116 C3102 1.377 . S
C3116 C3115 1.373 . S
C3117 C3101 1.377 . S
C3117 C3115 1.389 . S
C3117 C3118 1.524 . S
C3118 C3117 1.524 . S
C3118 C3119 1.397 . S
C3118 C3123 1.363 . S
C3119 H3090 0.950 . S
C3119 C3118 1.397 . S
C3119 C3120 1.334 . S
C3120 H3091 0.950 . S
C3120 C3119 1.334 . S
C3120 C3121 1.287 . S
C3121 C3120 1.287 . S
C3121 C3122 1.524 . S
C3121 H3124 0.999 . S
C3122 H3092 0.950 . S
C3122 C3121 1.524 . S
C3122 C3123 1.415 . S
C3123 H3093 0.950 . S
C3123 C3118 1.363 . S
C3123 C3122 1.415 . S
H3124 C3121 0.999 . S
H3125 C3106 0.913 . S
H3126 C3144 0.951 . S
H3127 C3146 0.951 . S
H3128 C3148 0.950 . S
H3129 C3149 0.950 . S
H3130 C3151 0.950 . S
H3131 C3154 0.950 . S
H3132 C3155 0.950 . S
H3133 C3157 0.950 . S
H3134 C3158 0.950 . S
H3135 C3159 0.951 . S
H3136 C3161 0.951 . S
H3137 C3163 0.950 . S
H3138 C3164 0.950 . S
H3139 C3166 0.950 . S
H3140 C3169 0.950 . S
H3141 C3170 0.950 . S
H3142 C3172 0.950 . S
H3143 C3173 0.950 . S
C3144 H3126 0.951 . S
C3144 C3145 1.366 . S
C3144 C3146 1.388 . S
C3145 C3144 1.366 . S
C3145 C3149 1.385 . S
C3146 H3127 0.951 . S
C3146 C3144 1.388 . S
C3146 C3147 1.366 . S
C3147 C3146 1.366 . S
C3147 C3148 1.414 . S
C3147 C3150 1.499 . S
C3148 H3128 0.950 . S
C3148 C3147 1.414 . S
C3148 C3149 1.374 . S
C3149 H3129 0.950 . S
C3149 C3145 1.385 . S
C3149 C3148 1.374 . S
C3150 C3147 1.499 . S
C3150 C3151 1.373 . S
C3150 C3152 1.389 . S
C3151 H3130 0.950 . S
C3151 C3150 1.373 . S
C3151 C3167 1.377 . S
C3152 C3150 1.389 . S
C3152 C3153 1.524 . S
C3152 C3166 1.377 . S
C3153 C3152 1.524 . S
C3153 C3154 1.397 . S
C3153 C3158 1.363 . S
C3154 H3131 0.950 . S
C3154 C3153 1.397 . S
C3154 C3155 1.334 . S
C3155 H3132 0.950 . S
C3155 C3154 1.334 . S
C3155 C3156 1.287 . S
C3156 C3155 1.287 . S
C3156 C3157 1.524 . S
C3156 H3175 0.913 . S
C3157 H3133 0.950 . S
C3157 C3156 1.524 . S
C3157 C3158 1.415 . S
C3158 H3134 0.950 . S
C3158 C3153 1.363 . S
C3158 C3157 1.415 . S
C3159 H3135 0.951 . S
C3159 C3160 1.366 . S
C3159 C3161 1.388 . S
C3160 C3159 1.366 . S
C3160 C3164 1.385 . S
C3161 H3136 0.951 . S
C3161 C3159 1.388 . S
C3161 C3162 1.366 . S
C3162 C3161 1.366 . S
C3162 C3163 1.414 . S
C3162 C3165 1.499 . S
C3163 H3137 0.950 . S
C3163 C3162 1.414 . S
C3163 C3164 1.374 . S
C3164 H3138 0.950 . S
C3164 C3160 1.385 . S
C3164 C3163 1.374 . S
C3165 C3162 1.499 . S
C3165 C3166 1.373 . S
C3165 C3167 1.389 . S
C3166 H3139 0.950 . S
C3166 C3152 1.377 . S
C3166 C3165 1.373 . S
C3167 C3151 1.377 . S
C3167 C3165 1.389 . S
C3167 C3168 1.524 . S
C3168 C3167 1.524 . S
C3168 C3169 1.397 . S
C3168 C3173 1.363 . S
C3169 H3140 0.950 . S
C3169 C3168 1.397 . S
C3169 C3170 1.334 . S
C3170 H3141 0.950 . S
C3170 C3169 1.334 . S
C3170 C3171 1.287 . S
C3171 C3170 1.287 . S
C3171 C3172 1.524 . S
C3171 H3174 0.999 . S
C3172 H3142 0.950 . S
C3172 C3171 1.524 . S
C3172 C3173 1.415 . S
C3173 H3143 0.950 . S
C3173 C3168 1.363 . S
C3173 C3172 1.415 . S
H3174 C3171 0.999 . S
H3175 C3156 0.913 . S
H3176 C3194 0.951 . S
H3177 C3196 0.951 . S
H3178 C3198 0.950 . S
H3179 C3199 0.950 . S
H3180 C3201 0.950 . S
H3181 C3204 0.950 . S
H3182 C3205 0.950 . S
H3183 C3207 0.950 . S
H3184 C3208 0.950 . S
H3185 C3209 0.951 . S
H3186 C3211 0.951 . S
H3187 C3213 0.950 . S
H3188 C3214 0.950 . S
H3189 C3216 0.950 . S
H3190 C3219 0.950 . S
H3191 C3220 0.950 . S
H3192 C3222 0.950 . S
H3193 C3223 0.950 . S
C3194 H3176 0.951 . S
C3194 C3195 1.366 . S
C3194 C3196 1.388 . S
C3195 C3194 1.366 . S
C3195 C3199 1.385 . S
C3196 H3177 0.951 . S
C3196 C3194 1.388 . S
C3196 C3197 1.366 . S
C3197 C3196 1.366 . S
C3197 C3198 1.414 . S
C3197 C3200 1.499 . S
C3198 H3178 0.950 . S
C3198 C3197 1.414 . S
C3198 C3199 1.374 . S
C3199 H3179 0.950 . S
C3199 C3195 1.385 . S
C3199 C3198 1.374 . S
C3200 C3197 1.499 . S
C3200 C3201 1.373 . S
C3200 C3202 1.389 . S
C3201 H3180 0.950 . S
C3201 C3200 1.373 . S
C3201 C3217 1.377 . S
C3202 C3200 1.389 . S
C3202 C3203 1.524 . S
C3202 C3216 1.377 . S
C3203 C3202 1.524 . S
C3203 C3204 1.397 . S
C3203 C3208 1.363 . S
C3204 H3181 0.950 . S
C3204 C3203 1.397 . S
C3204 C3205 1.334 . S
C3205 H3182 0.950 . S
C3205 C3204 1.334 . S
C3205 C3206 1.287 . S
C3206 C3205 1.287 . S
C3206 C3207 1.524 . S
C3206 H3225 0.913 . S
C3207 H3183 0.950 . S
C3207 C3206 1.524 . S
C3207 C3208 1.415 . S
C3208 H3184 0.950 . S
C3208 C3203 1.363 . S
C3208 C3207 1.415 . S
C3209 H3185 0.951 . S
C3209 C3210 1.366 . S
C3209 C3211 1.388 . S
C3210 C3209 1.366 . S
C3210 C3214 1.385 . S
C3211 H3186 0.951 . S
C3211 C3209 1.388 . S
C3211 C3212 1.366 . S
C3212 C3211 1.366 . S
C3212 C3213 1.414 . S
C3212 C3215 1.499 . S
C3213 H3187 0.950 . S
C3213 C3212 1.414 . S
C3213 C3214 1.374 . S
C3214 H3188 0.950 . S
C3214 C3210 1.385 . S
C3214 C3213 1.374 . S
C3215 C3212 1.499 . S
C3215 C3216 1.373 . S
C3215 C3217 1.389 . S
C3216 H3189 0.950 . S
C3216 C3202 1.377 . S
C3216 C3215 1.373 . S
C3217 C3201 1.377 . S
C3217 C3215 1.389 . S
C3217 C3218 1.524 . S
C3218 C3217 1.524 . S
C3218 C3219 1.397 . S
C3218 C3223 1.363 . S
C3219 H3190 0.950 . S
C3219 C3218 1.397 . S
C3219 C3220 1.334 . S
C3220 H3191 0.950 . S
C3220 C3219 1.334 . S
C3220 C3221 1.287 . S
C3221 C3220 1.287 . S
C3221 C3222 1.524 . S
C3221 H3224 0.999 . S
C3222 H3192 0.950 . S
C3222 C3221 1.524 . S
C3222 C3223 1.415 . S
C3223 H3193 0.950 . S
C3223 C3218 1.363 . S
C3223 C3222 1.415 . S
H3224 C3221 0.999 . S
H3225 C3206 0.913 . S
H3226 C3244 0.951 . S
H3227 C3246 0.951 . S
H3228 C3248 0.950 . S
H3229 C3249 0.950 . S
H3230 C3251 0.950 . S
H3231 C3254 0.950 . S
H3232 C3255 0.950 . S
H3233 C3257 0.909 1_545 S
H3234 C3258 0.950 . S
H3235 C3259 0.951 . S
H3236 C3261 0.951 . S
H3237 C3263 0.950 . S
H3238 C3264 0.950 1_545 S
H3239 C3266 0.950 . S
H3240 C3269 0.950 . S
H3241 C3270 0.950 . S
H3242 C3272 0.950 . S
H3243 C3273 0.950 . S
C3244 H3226 0.951 . S
C3244 C3245 1.366 . S
C3244 C3246 1.388 . S
C3245 C3244 1.366 . S
C3245 C3249 1.385 . S
C3246 H3227 0.951 . S
C3246 C3244 1.388 . S
C3246 C3247 1.366 . S
C3247 C3246 1.366 . S
C3247 C3248 1.414 . S
C3247 C3250 1.499 . S
C3248 H3228 0.950 . S
C3248 C3247 1.414 . S
C3248 C3249 1.374 . S
C3249 H3229 0.950 . S
C3249 C3245 1.385 . S
C3249 C3248 1.374 . S
C3250 C3247 1.499 . S
C3250 C3251 1.373 . S
C3250 C3252 1.389 . S
C3251 H3230 0.950 . S
C3251 C3250 1.373 . S
C3251 C3267 1.377 . S
C3252 C3250 1.389 . S
C3252 C3253 1.524 . S
C3252 C3266 1.377 . S
C3253 C3252 1.524 . S
C3253 C3254 1.397 . S
C3253 C3258 1.363 . S
C3254 H3231 0.950 . S
C3254 C3253 1.397 . S
C3254 C3255 1.334 . S
C3255 H3232 0.950 . S
C3255 C3254 1.334 . S
C3255 C3256 1.287 . S
C3256 C3255 1.287 . S
C3256 C3257 1.549 . S
C3256 H3275 0.927 . S
C3257 H3233 0.909 1_565 S
C3257 C3256 1.549 . S
C3257 C3258 1.438 . S
C3258 H3234 0.950 . S
C3258 C3253 1.363 . S
C3258 C3257 1.438 . S
C3259 H3235 0.951 . S
C3259 C3260 1.366 . S
C3259 C3261 1.388 . S
C3260 C3259 1.366 . S
C3260 C3264 1.385 . S
C3261 H3236 0.951 . S
C3261 C3259 1.388 . S
C3261 C3262 1.366 . S
C3262 C3261 1.366 . S
C3262 C3263 1.414 . S
C3262 C3265 1.499 . S
C3263 H3237 0.950 . S
C3263 C3262 1.414 . S
C3263 C3264 1.374 . S
C3264 H3238 0.950 1_565 S
C3264 C3260 1.385 . S
C3264 C3263 1.374 . S
C3265 C3262 1.499 . S
C3265 C3266 1.373 . S
C3265 C3267 1.389 . S
C3266 H3239 0.950 . S
C3266 C3252 1.377 . S
C3266 C3265 1.373 . S
C3267 C3251 1.377 . S
C3267 C3265 1.389 . S
C3267 C3268 1.524 . S
C3268 C3267 1.524 . S
C3268 C3269 1.397 . S
C3268 C3273 1.363 . S
C3269 H3240 0.950 . S
C3269 C3268 1.397 . S
C3269 C3270 1.334 . S
C3270 H3241 0.950 . S
C3270 C3269 1.334 . S
C3270 C3271 1.287 . S
C3271 C3270 1.287 . S
C3271 C3272 1.524 . S
C3271 H3274 0.999 . S
C3272 H3242 0.950 . S
C3272 C3271 1.524 . S
C3272 C3273 1.415 . S
C3273 H3243 0.950 . S
C3273 C3268 1.363 . S
C3273 C3272 1.415 . S
H3274 C3271 0.999 . S
H3275 C3256 0.927 . S
H3276 C3294 0.951 . S
H3277 C3296 0.951 . S
H3278 C3298 0.950 . S
H3279 C3299 0.950 . S
H3280 C3301 0.950 . S
H3281 C3304 0.950 . S
H3282 C3305 0.950 . S
H3283 C3307 0.950 . S
H3284 C3308 0.950 . S
H3285 C3309 0.951 . S
H3286 C3311 0.951 . S
H3287 C3313 0.950 . S
H3288 C3314 0.950 . S
H3289 C3316 0.950 . S
H3290 C3319 0.950 . S
H3291 C3320 0.950 . S
H3292 C3322 0.950 . S
H3293 C3323 0.950 . S
C3294 H3276 0.951 . S
C3294 C3295 1.366 . S
C3294 C3296 1.388 . S
C3295 C3294 1.366 . S
C3295 C3299 1.385 . S
C3296 H3277 0.951 . S
C3296 C3294 1.388 . S
C3296 C3297 1.366 . S
C3297 C3296 1.366 . S
C3297 C3298 1.414 . S
C3297 C3300 1.499 . S
C3298 H3278 0.950 . S
C3298 C3297 1.414 . S
C3298 C3299 1.374 . S
C3299 H3279 0.950 . S
C3299 C3295 1.385 . S
C3299 C3298 1.374 . S
C3300 C3297 1.499 . S
C3300 C3301 1.373 . S
C3300 C3302 1.389 . S
C3301 H3280 0.950 . S
C3301 C3300 1.373 . S
C3301 C3317 1.377 . S
C3302 C3300 1.389 . S
C3302 C3303 1.524 . S
C3302 C3316 1.377 . S
C3303 C3302 1.524 . S
C3303 C3304 1.397 . S
C3303 C3308 1.363 . S
C3304 H3281 0.950 . S
C3304 C3303 1.397 . S
C3304 C3305 1.334 . S
C3305 H3282 0.950 . S
C3305 C3304 1.334 . S
C3305 C3306 1.287 . S
C3306 C3305 1.287 . S
C3306 C3307 1.524 . S
C3306 H3325 0.913 . S
C3307 H3283 0.950 . S
C3307 C3306 1.524 . S
C3307 C3308 1.415 . S
C3308 H3284 0.950 . S
C3308 C3303 1.363 . S
C3308 C3307 1.415 . S
C3309 H3285 0.951 . S
C3309 C3310 1.366 . S
C3309 C3311 1.388 . S
C3310 C3309 1.366 . S
C3310 C3314 1.385 . S
C3311 H3286 0.951 . S
C3311 C3309 1.388 . S
C3311 C3312 1.366 . S
C3312 C3311 1.366 . S
C3312 C3313 1.414 . S
C3312 C3315 1.499 . S
C3313 H3287 0.950 . S
C3313 C3312 1.414 . S
C3313 C3314 1.374 . S
C3314 H3288 0.950 . S
C3314 C3310 1.385 . S
C3314 C3313 1.374 . S
C3315 C3312 1.499 . S
C3315 C3316 1.373 . S
C3315 C3317 1.389 . S
C3316 H3289 0.950 . S
C3316 C3302 1.377 . S
C3316 C3315 1.373 . S
C3317 C3301 1.377 . S
C3317 C3315 1.389 . S
C3317 C3318 1.524 . S
C3318 C3317 1.524 . S
C3318 C3319 1.397 . S
C3318 C3323 1.363 . S
C3319 H3290 0.950 . S
C3319 C3318 1.397 . S
C3319 C3320 1.334 . S
C3320 H3291 0.950 . S
C3320 C3319 1.334 . S
C3320 C3321 1.287 . S
C3321 C3320 1.287 . S
C3321 C3322 1.524 . S
C3321 H3324 0.999 . S
C3322 H3292 0.950 . S
C3322 C3321 1.524 . S
C3322 C3323 1.415 . S
C3323 H3293 0.950 . S
C3323 C3318 1.363 . S
C3323 C3322 1.415 . S
H3324 C3321 0.999 . S
H3325 C3306 0.913 . S
H3326 C3344 0.951 . S
H3327 C3346 0.951 . S
H3328 C3348 0.950 . S
H3329 C3349 0.950 . S
H3330 C3351 0.950 . S
H3331 C3354 0.950 . S
H3332 C3355 0.950 . S
H3333 C3357 0.950 . S
H3334 C3358 0.950 . S
H3335 C3359 0.951 . S
H3336 C3361 0.951 . S
H3337 C3363 0.950 . S
H3338 C3364 0.950 . S
H3339 C3366 0.950 . S
H3340 C3369 0.950 . S
H3341 C3370 0.950 . S
H3342 C3372 0.950 . S
H3343 C3373 0.950 . S
C3344 H3326 0.951 . S
C3344 C3345 1.366 . S
C3344 C3346 1.388 . S
C3345 C3344 1.366 . S
C3345 C3349 1.385 . S
C3346 H3327 0.951 . S
C3346 C3344 1.388 . S
C3346 C3347 1.366 . S
C3347 C3346 1.366 . S
C3347 C3348 1.414 . S
C3347 C3350 1.499 . S
C3348 H3328 0.950 . S
C3348 C3347 1.414 . S
C3348 C3349 1.374 . S
C3349 H3329 0.950 . S
C3349 C3345 1.385 . S
C3349 C3348 1.374 . S
C3350 C3347 1.499 . S
C3350 C3351 1.373 . S
C3350 C3352 1.389 . S
C3351 H3330 0.950 . S
C3351 C3350 1.373 . S
C3351 C3367 1.377 . S
C3352 C3350 1.389 . S
C3352 C3353 1.524 . S
C3352 C3366 1.377 . S
C3353 C3352 1.524 . S
C3353 C3354 1.397 . S
C3353 C3358 1.363 . S
C3354 H3331 0.950 . S
C3354 C3353 1.397 . S
C3354 C3355 1.334 . S
C3355 H3332 0.950 . S
C3355 C3354 1.334 . S
C3355 C3356 1.287 . S
C3356 C3355 1.287 . S
C3356 C3357 1.524 . S
C3356 H3375 0.913 . S
C3357 H3333 0.950 . S
C3357 C3356 1.524 . S
C3357 C3358 1.415 . S
C3358 H3334 0.950 . S
C3358 C3353 1.363 . S
C3358 C3357 1.415 . S
C3359 H3335 0.951 . S
C3359 C3360 1.366 . S
C3359 C3361 1.388 . S
C3360 C3359 1.366 . S
C3360 C3364 1.385 . S
C3361 H3336 0.951 . S
C3361 C3359 1.388 . S
C3361 C3362 1.366 . S
C3362 C3361 1.366 . S
C3362 C3363 1.414 . S
C3362 C3365 1.499 . S
C3363 H3337 0.950 . S
C3363 C3362 1.414 . S
C3363 C3364 1.374 . S
C3364 H3338 0.950 . S
C3364 C3360 1.385 . S
C3364 C3363 1.374 . S
C3365 C3362 1.499 . S
C3365 C3366 1.373 . S
C3365 C3367 1.389 . S
C3366 H3339 0.950 . S
C3366 C3352 1.377 . S
C3366 C3365 1.373 . S
C3367 C3351 1.377 . S
C3367 C3365 1.389 . S
C3367 C3368 1.524 . S
C3368 C3367 1.524 . S
C3368 C3369 1.397 . S
C3368 C3373 1.363 . S
C3369 H3340 0.950 . S
C3369 C3368 1.397 . S
C3369 C3370 1.334 . S
C3370 H3341 0.950 . S
C3370 C3369 1.334 . S
C3370 C3371 1.287 . S
C3371 C3370 1.287 . S
C3371 C3372 1.524 . S
C3371 H3374 0.999 . S
C3372 H3342 0.950 . S
C3372 C3371 1.524 . S
C3372 C3373 1.415 . S
C3373 H3343 0.950 . S
C3373 C3368 1.363 . S
C3373 C3372 1.415 . S
H3374 C3371 0.999 . S
H3375 C3356 0.913 . S
H3376 C3394 0.951 . S
H3377 C3396 0.951 . S
H3378 C3398 0.950 . S
H3379 C3399 0.950 . S
H3380 C3401 0.950 . S
H3381 C3404 0.950 . S
H3382 C3405 0.950 . S
H3383 C3407 0.950 . S
H3384 C3408 0.950 . S
H3385 C3409 0.951 . S
H3386 C3411 0.951 . S
H3387 C3413 0.950 . S
H3388 C3414 0.950 . S
H3389 C3416 0.950 . S
H3390 C3419 0.950 . S
H3391 C3420 0.950 . S
H3392 C3422 0.950 . S
H3393 C3423 0.950 . S
C3394 H3376 0.951 . S
C3394 C3395 1.366 . S
C3394 C3396 1.388 . S
C3395 C3394 1.366 . S
C3395 C3399 1.385 . S
C3396 H3377 0.951 . S
C3396 C3394 1.388 . S
C3396 C3397 1.366 . S
C3397 C3396 1.366 . S
C3397 C3398 1.414 . S
C3397 C3400 1.499 . S
C3398 H3378 0.950 . S
C3398 C3397 1.414 . S
C3398 C3399 1.374 . S
C3399 H3379 0.950 . S
C3399 C3395 1.385 . S
C3399 C3398 1.374 . S
C3400 C3397 1.499 . S
C3400 C3401 1.373 . S
C3400 C3402 1.389 . S
C3401 H3380 0.950 . S
C3401 C3400 1.373 . S
C3401 C3417 1.377 . S
C3402 C3400 1.389 . S
C3402 C3403 1.524 . S
C3402 C3416 1.377 . S
C3403 C3402 1.524 . S
C3403 C3404 1.397 . S
C3403 C3408 1.363 . S
C3404 H3381 0.950 . S
C3404 C3403 1.397 . S
C3404 C3405 1.334 . S
C3405 H3382 0.950 . S
C3405 C3404 1.334 . S
C3405 C3406 1.287 . S
C3406 C3405 1.287 . S
C3406 C3407 1.524 . S
C3406 H3425 0.913 . S
C3407 H3383 0.950 . S
C3407 C3406 1.524 . S
C3407 C3408 1.415 . S
C3408 H3384 0.950 . S
C3408 C3403 1.363 . S
C3408 C3407 1.415 . S
C3409 H3385 0.951 . S
C3409 C3410 1.366 . S
C3409 C3411 1.388 . S
C3410 C3409 1.366 . S
C3410 C3414 1.385 . S
C3411 H3386 0.951 . S
C3411 C3409 1.388 . S
C3411 C3412 1.366 . S
C3412 C3411 1.366 . S
C3412 C3413 1.414 . S
C3412 C3415 1.499 . S
C3413 H3387 0.950 . S
C3413 C3412 1.414 . S
C3413 C3414 1.374 . S
C3414 H3388 0.950 . S
C3414 C3410 1.385 . S
C3414 C3413 1.374 . S
C3415 C3412 1.499 . S
C3415 C3416 1.373 . S
C3415 C3417 1.389 . S
C3416 H3389 0.950 . S
C3416 C3402 1.377 . S
C3416 C3415 1.373 . S
C3417 C3401 1.377 . S
C3417 C3415 1.389 . S
C3417 C3418 1.524 . S
C3418 C3417 1.524 . S
C3418 C3419 1.397 . S
C3418 C3423 1.363 . S
C3419 H3390 0.950 . S
C3419 C3418 1.397 . S
C3419 C3420 1.334 . S
C3420 H3391 0.950 . S
C3420 C3419 1.334 . S
C3420 C3421 1.287 . S
C3421 C3420 1.287 . S
C3421 C3422 1.524 . S
C3421 H3424 0.999 . S
C3422 H3392 0.950 . S
C3422 C3421 1.524 . S
C3422 C3423 1.415 . S
C3423 H3393 0.950 . S
C3423 C3418 1.363 . S
C3423 C3422 1.415 . S
H3424 C3421 0.999 . S
H3425 C3406 0.913 . S
H3426 C3444 0.951 . S
H3427 C3446 0.951 . S
H3428 C3448 0.950 . S
H3429 C3449 0.950 . S
H3430 C3451 0.950 . S
H3431 C3454 0.950 . S
H3432 C3455 0.950 . S
H3433 C3457 0.950 . S
H3434 C3458 0.950 . S
H3435 C3459 0.951 . S
H3436 C3461 0.951 . S
H3437 C3463 0.950 . S
H3438 C3464 0.950 . S
H3439 C3466 0.950 . S
H3440 C3469 0.950 . S
H3441 C3470 0.950 . S
H3442 C3472 0.950 . S
H3443 C3473 0.950 . S
C3444 H3426 0.951 . S
C3444 C3445 1.366 . S
C3444 C3446 1.388 . S
C3445 C3444 1.366 . S
C3445 C3449 1.385 . S
C3446 H3427 0.951 . S
C3446 C3444 1.388 . S
C3446 C3447 1.366 . S
C3447 C3446 1.366 . S
C3447 C3448 1.414 . S
C3447 C3450 1.499 . S
C3448 H3428 0.950 . S
C3448 C3447 1.414 . S
C3448 C3449 1.374 . S
C3449 H3429 0.950 . S
C3449 C3445 1.385 . S
C3449 C3448 1.374 . S
C3450 C3447 1.499 . S
C3450 C3451 1.373 . S
C3450 C3452 1.389 . S
C3451 H3430 0.950 . S
C3451 C3450 1.373 . S
C3451 C3467 1.377 . S
C3452 C3450 1.389 . S
C3452 C3453 1.524 . S
C3452 C3466 1.377 . S
C3453 C3452 1.524 . S
C3453 C3454 1.397 . S
C3453 C3458 1.363 . S
C3454 H3431 0.950 . S
C3454 C3453 1.397 . S
C3454 C3455 1.334 . S
C3455 H3432 0.950 . S
C3455 C3454 1.334 . S
C3455 C3456 1.287 . S
C3456 C3455 1.287 . S
C3456 C3457 1.524 . S
C3456 H3475 0.913 . S
C3457 H3433 0.950 . S
C3457 C3456 1.524 . S
C3457 C3458 1.415 . S
C3458 H3434 0.950 . S
C3458 C3453 1.363 . S
C3458 C3457 1.415 . S
C3459 H3435 0.951 . S
C3459 C3460 1.366 . S
C3459 C3461 1.388 . S
C3460 C3459 1.366 . S
C3460 C3464 1.385 . S
C3461 H3436 0.951 . S
C3461 C3459 1.388 . S
C3461 C3462 1.366 . S
C3462 C3461 1.366 . S
C3462 C3463 1.414 . S
C3462 C3465 1.499 . S
C3463 H3437 0.950 . S
C3463 C3462 1.414 . S
C3463 C3464 1.374 . S
C3464 H3438 0.950 . S
C3464 C3460 1.385 . S
C3464 C3463 1.374 . S
C3465 C3462 1.499 . S
C3465 C3466 1.373 . S
C3465 C3467 1.389 . S
C3466 H3439 0.950 . S
C3466 C3452 1.377 . S
C3466 C3465 1.373 . S
C3467 C3451 1.377 . S
C3467 C3465 1.389 . S
C3467 C3468 1.524 . S
C3468 C3467 1.524 . S
C3468 C3469 1.397 . S
C3468 C3473 1.363 . S
C3469 H3440 0.950 . S
C3469 C3468 1.397 . S
C3469 C3470 1.334 . S
C3470 H3441 0.950 . S
C3470 C3469 1.334 . S
C3470 C3471 1.287 . S
C3471 C3470 1.287 . S
C3471 C3472 1.524 . S
C3471 H3474 0.999 . S
C3472 H3442 0.950 . S
C3472 C3471 1.524 . S
C3472 C3473 1.415 . S
C3473 H3443 0.950 . S
C3473 C3468 1.363 . S
C3473 C3472 1.415 . S
H3474 C3471 0.999 . S
H3475 C3456 0.913 . S
H3476 C3494 0.951 . S
H3477 C3496 0.951 . S
H3478 C3498 0.950 . S
H3479 C3499 0.950 . S
H3480 C3501 0.950 1_655 S
H3481 C3504 0.950 . S
H3482 C3505 0.950 . S
H3483 C3507 0.950 . S
H3484 C3508 0.950 . S
H3485 C3509 0.951 1_655 S
H3486 C3511 0.951 1_655 S
H3487 C3513 0.950 . S
H3488 C3514 0.950 . S
H3489 C3516 0.950 . S
H3490 C3519 0.950 . S
H3491 C3520 0.950 . S
H3492 C3522 0.950 . S
H3493 C3523 0.950 . S
C3494 H3476 0.951 . S
C3494 C3495 1.366 . S
C3494 C3496 1.388 . S
C3495 C3494 1.366 . S
C3495 C3499 1.385 1_455 S
C3496 H3477 0.951 . S
C3496 C3494 1.388 . S
C3496 C3497 1.366 . S
C3497 C3496 1.366 . S
C3497 C3498 1.414 1_455 S
C3497 C3500 1.499 . S
C3498 H3478 0.950 . S
C3498 C3497 1.414 1_655 S
C3498 C3499 1.374 . S
C3499 H3479 0.950 . S
C3499 C3495 1.385 1_655 S
C3499 C3498 1.374 . S
C3500 C3497 1.499 . S
C3500 C3501 1.373 . S
C3500 C3502 1.389 . S
C3501 H3480 0.950 1_455 S
C3501 C3500 1.373 . S
C3501 C3517 1.377 . S
C3502 C3500 1.389 . S
C3502 C3503 1.524 . S
C3502 C3516 1.377 . S
C3503 C3502 1.524 . S
C3503 C3504 1.397 . S
C3503 C3508 1.363 . S
C3504 H3481 0.950 . S
C3504 C3503 1.397 . S
C3504 C3505 1.334 . S
C3505 H3482 0.950 . S
C3505 C3504 1.334 . S
C3505 C3506 1.287 . S
C3506 C3505 1.287 . S
C3506 C3507 1.524 . S
C3506 H3525 0.913 . S
C3507 H3483 0.950 . S
C3507 C3506 1.524 . S
C3507 C3508 1.415 . S
C3508 H3484 0.950 . S
C3508 C3503 1.363 . S
C3508 C3507 1.415 . S
C3509 H3485 0.951 1_455 S
C3509 C3510 1.366 . S
C3509 C3511 1.388 . S
C3510 C3509 1.366 . S
C3510 C3514 1.385 . S
C3511 H3486 0.951 1_455 S
C3511 C3509 1.388 . S
C3511 C3512 1.366 . S
C3512 C3511 1.366 . S
C3512 C3513 1.414 . S
C3512 C3515 1.499 . S
C3513 H3487 0.950 . S
C3513 C3512 1.414 . S
C3513 C3514 1.374 . S
C3514 H3488 0.950 . S
C3514 C3510 1.385 . S
C3514 C3513 1.374 . S
C3515 C3512 1.499 . S
C3515 C3516 1.373 . S
C3515 C3517 1.389 . S
C3516 H3489 0.950 . S
C3516 C3502 1.377 . S
C3516 C3515 1.373 . S
C3517 C3501 1.377 . S
C3517 C3515 1.389 . S
C3517 C3518 1.524 1_455 S
C3518 C3517 1.524 1_655 S
C3518 C3519 1.397 1_655 S
C3518 C3523 1.363 . S
C3519 H3490 0.950 . S
C3519 C3518 1.397 1_455 S
C3519 C3520 1.334 1_455 S
C3520 H3491 0.950 . S
C3520 C3519 1.334 1_655 S
C3520 C3521 1.287 . S
C3521 C3520 1.287 . S
C3521 C3522 1.524 . S
C3521 H3524 0.999 . S
C3522 H3492 0.950 . S
C3522 C3521 1.524 . S
C3522 C3523 1.415 . S
C3523 H3493 0.950 . S
C3523 C3518 1.363 . S
C3523 C3522 1.415 . S
H3524 C3521 0.999 . S
H3525 C3506 0.913 . S
H3526 C3544 0.951 . S
H3527 C3546 0.951 . S
H3528 C3548 0.950 . S
H3529 C3549 0.950 . S
H3530 C3551 0.950 . S
H3531 C3554 0.950 . S
H3532 C3555 0.940 1_455 S
H3533 C3557 0.950 . S
H3534 C3558 0.950 . S
H3535 C3559 0.951 . S
H3536 C3561 0.951 . S
H3537 C3563 0.950 . S
H3538 C3564 0.950 . S
H3539 C3566 0.950 . S
H3540 C3569 0.950 . S
H3541 C3570 0.950 . S
H3542 C3572 0.950 . S
H3543 C3573 0.950 . S
C3544 H3526 0.951 . S
C3544 C3545 1.366 . S
C3544 C3546 1.388 . S
C3545 C3544 1.366 . S
C3545 C3549 1.385 . S
C3546 H3527 0.951 . S
C3546 C3544 1.388 . S
C3546 C3547 1.366 1_455 S
C3547 C3546 1.366 1_655 S
C3547 C3548 1.414 . S
C3547 C3550 1.499 . S
C3548 H3528 0.950 . S
C3548 C3547 1.414 . S
C3548 C3549 1.374 1_655 S
C3549 H3529 0.950 . S
C3549 C3545 1.385 . S
C3549 C3548 1.374 1_455 S
C3550 C3547 1.499 . S
C3550 C3551 1.373 . S
C3550 C3552 1.389 . S
C3551 H3530 0.950 . S
C3551 C3550 1.373 . S
C3551 C3567 1.377 . S
C3552 C3550 1.389 . S
C3552 C3553 1.524 . S
C3552 C3566 1.377 . S
C3553 C3552 1.524 . S
C3553 C3554 1.397 . S
C3553 C3558 1.363 . S
C3554 H3531 0.950 . S
C3554 C3553 1.397 . S
C3554 C3555 1.354 . S
C3555 H3532 0.940 1_655 S
C3555 C3554 1.354 . S
C3555 C3556 1.279 1_655 S
C3556 C3555 1.279 1_455 S
C3556 C3557 1.524 . S
C3556 H3575 0.913 . S
C3557 H3533 0.950 . S
C3557 C3556 1.524 . S
C3557 C3558 1.415 1_455 S
C3558 H3534 0.950 . S
C3558 C3553 1.363 . S
C3558 C3557 1.415 1_655 S
C3559 H3535 0.951 . S
C3559 C3560 1.366 . S
C3559 C3561 1.388 . S
C3560 C3559 1.366 . S
C3560 C3564 1.385 . S
C3561 H3536 0.951 . S
C3561 C3559 1.388 . S
C3561 C3562 1.366 . S
C3562 C3561 1.366 . S
C3562 C3563 1.414 . S
C3562 C3565 1.499 . S
C3563 H3537 0.950 . S
C3563 C3562 1.414 . S
C3563 C3564 1.374 . S
C3564 H3538 0.950 . S
C3564 C3560 1.385 . S
C3564 C3563 1.374 . S
C3565 C3562 1.499 . S
C3565 C3566 1.373 . S
C3565 C3567 1.389 . S
C3566 H3539 0.950 . S
C3566 C3552 1.377 . S
C3566 C3565 1.373 . S
C3567 C3551 1.377 . S
C3567 C3565 1.389 . S
C3567 C3568 1.524 . S
C3568 C3567 1.524 . S
C3568 C3569 1.397 . S
C3568 C3573 1.363 . S
C3569 H3540 0.950 . S
C3569 C3568 1.397 . S
C3569 C3570 1.334 . S
C3570 H3541 0.950 . S
C3570 C3569 1.334 . S
C3570 C3571 1.287 . S
C3571 C3570 1.287 . S
C3571 C3572 1.524 . S
C3571 H3574 0.999 . S
C3572 H3542 0.950 . S
C3572 C3571 1.524 . S
C3572 C3573 1.415 . S
C3573 H3543 0.950 . S
C3573 C3568 1.363 . S
C3573 C3572 1.415 . S
H3574 C3571 0.999 . S
H3575 C3556 0.913 . S
H3576 C3594 0.951 . S
H3577 C3596 0.951 . S
H3578 C3598 0.950 . S
H3579 C3599 0.950 . S
H3580 C3601 0.950 . S
H3581 C3604 0.950 . S
H3582 C3605 0.950 . S
H3583 C3607 0.950 . S
H3584 C3608 0.950 . S
H3585 C3609 0.951 . S
H3586 C3611 0.951 . S
H3587 C3613 0.950 . S
H3588 C3614 0.950 . S
H3589 C3616 0.950 . S
H3590 C3619 0.950 . S
H3591 C3620 0.950 . S
H3592 C3622 0.950 . S
H3593 C3623 0.950 . S
C3594 H3576 0.951 . S
C3594 C3595 1.366 . S
C3594 C3596 1.388 . S
C3595 C3594 1.366 . S
C3595 C3599 1.385 . S
C3596 H3577 0.951 . S
C3596 C3594 1.388 . S
C3596 C3597 1.366 . S
C3597 C3596 1.366 . S
C3597 C3598 1.414 . S
C3597 C3600 1.499 . S
C3598 H3578 0.950 . S
C3598 C3597 1.414 . S
C3598 C3599 1.374 . S
C3599 H3579 0.950 . S
C3599 C3595 1.385 . S
C3599 C3598 1.374 . S
C3600 C3597 1.499 . S
C3600 C3601 1.373 . S
C3600 C3602 1.389 . S
C3601 H3580 0.950 . S
C3601 C3600 1.373 . S
C3601 C3617 1.377 . S
C3602 C3600 1.389 . S
C3602 C3603 1.524 . S
C3602 C3616 1.377 . S
C3603 C3602 1.524 . S
C3603 C3604 1.397 . S
C3603 C3608 1.363 . S
C3604 H3581 0.950 . S
C3604 C3603 1.397 . S
C3604 C3605 1.334 . S
C3605 H3582 0.950 . S
C3605 C3604 1.334 . S
C3605 C3606 1.287 . S
C3606 C3605 1.287 . S
C3606 C3607 1.524 . S
C3606 H3625 0.913 . S
C3607 H3583 0.950 . S
C3607 C3606 1.524 . S
C3607 C3608 1.415 . S
C3608 H3584 0.950 . S
C3608 C3603 1.363 . S
C3608 C3607 1.415 . S
C3609 H3585 0.951 . S
C3609 C3610 1.366 . S
C3609 C3611 1.388 . S
C3610 C3609 1.366 . S
C3610 C3614 1.385 . S
C3611 H3586 0.951 . S
C3611 C3609 1.388 . S
C3611 C3612 1.366 . S
C3612 C3611 1.366 . S
C3612 C3613 1.414 . S
C3612 C3615 1.499 . S
C3613 H3587 0.950 . S
C3613 C3612 1.414 . S
C3613 C3614 1.374 . S
C3614 H3588 0.950 . S
C3614 C3610 1.385 . S
C3614 C3613 1.374 . S
C3615 C3612 1.499 . S
C3615 C3616 1.373 . S
C3615 C3617 1.389 . S
C3616 H3589 0.950 . S
C3616 C3602 1.377 . S
C3616 C3615 1.373 . S
C3617 C3601 1.377 . S
C3617 C3615 1.389 . S
C3617 C3618 1.524 . S
C3618 C3617 1.524 . S
C3618 C3619 1.397 . S
C3618 C3623 1.363 . S
C3619 H3590 0.950 . S
C3619 C3618 1.397 . S
C3619 C3620 1.334 . S
C3620 H3591 0.950 . S
C3620 C3619 1.334 . S
C3620 C3621 1.287 . S
C3621 C3620 1.287 . S
C3621 C3622 1.524 . S
C3621 H3624 0.999 . S
C3622 H3592 0.950 . S
C3622 C3621 1.524 . S
C3622 C3623 1.415 . S
C3623 H3593 0.950 . S
C3623 C3618 1.363 . S
C3623 C3622 1.415 . S
H3624 C3621 0.999 . S
H3625 C3606 0.913 . S
H3626 C3644 0.951 . S
H3627 C3646 0.951 . S
H3628 C3648 0.950 . S
H3629 C3649 0.950 . S
H3630 C3651 0.950 . S
H3631 C3654 0.950 . S
H3632 C3655 0.950 . S
H3633 C3657 0.950 . S
H3634 C3658 0.950 . S
H3635 C3659 0.951 . S
H3636 C3661 0.951 . S
H3637 C3663 0.950 . S
H3638 C3664 0.950 . S
H3639 C3666 0.950 . S
H3640 C3669 0.950 . S
H3641 C3670 0.950 . S
H3642 C3672 0.950 . S
H3643 C3673 0.950 . S
C3644 H3626 0.951 . S
C3644 C3645 1.366 . S
C3644 C3646 1.388 . S
C3645 C3644 1.366 . S
C3645 C3649 1.385 . S
C3646 H3627 0.951 . S
C3646 C3644 1.388 . S
C3646 C3647 1.366 . S
C3647 C3646 1.366 . S
C3647 C3648 1.414 . S
C3647 C3650 1.499 . S
C3648 H3628 0.950 . S
C3648 C3647 1.414 . S
C3648 C3649 1.374 . S
C3649 H3629 0.950 . S
C3649 C3645 1.385 . S
C3649 C3648 1.374 . S
C3650 C3647 1.499 . S
C3650 C3651 1.373 . S
C3650 C3652 1.389 . S
C3651 H3630 0.950 . S
C3651 C3650 1.373 . S
C3651 C3667 1.377 . S
C3652 C3650 1.389 . S
C3652 C3653 1.524 . S
C3652 C3666 1.377 . S
C3653 C3652 1.524 . S
C3653 C3654 1.397 . S
C3653 C3658 1.363 . S
C3654 H3631 0.950 . S
C3654 C3653 1.397 . S
C3654 C3655 1.334 . S
C3655 H3632 0.950 . S
C3655 C3654 1.334 . S
C3655 C3656 1.287 . S
C3656 C3655 1.287 . S
C3656 C3657 1.524 . S
C3656 H3675 0.913 . S
C3657 H3633 0.950 . S
C3657 C3656 1.524 . S
C3657 C3658 1.415 . S
C3658 H3634 0.950 . S
C3658 C3653 1.363 . S
C3658 C3657 1.415 . S
C3659 H3635 0.951 . S
C3659 C3660 1.366 . S
C3659 C3661 1.388 . S
C3660 C3659 1.366 . S
C3660 C3664 1.385 . S
C3661 H3636 0.951 . S
C3661 C3659 1.388 . S
C3661 C3662 1.366 . S
C3662 C3661 1.366 . S
C3662 C3663 1.414 . S
C3662 C3665 1.499 . S
C3663 H3637 0.950 . S
C3663 C3662 1.414 . S
C3663 C3664 1.374 . S
C3664 H3638 0.950 . S
C3664 C3660 1.385 . S
C3664 C3663 1.374 . S
C3665 C3662 1.499 . S
C3665 C3666 1.373 . S
C3665 C3667 1.389 . S
C3666 H3639 0.950 . S
C3666 C3652 1.377 . S
C3666 C3665 1.373 . S
C3667 C3651 1.377 . S
C3667 C3665 1.389 . S
C3667 C3668 1.524 . S
C3668 C3667 1.524 . S
C3668 C3669 1.397 . S
C3668 C3673 1.363 . S
C3669 H3640 0.950 . S
C3669 C3668 1.397 . S
C3669 C3670 1.334 . S
C3670 H3641 0.950 . S
C3670 C3669 1.334 . S
C3670 C3671 1.287 . S
C3671 C3670 1.287 . S
C3671 C3672 1.524 . S
C3671 H3674 0.999 . S
C3672 H3642 0.950 . S
C3672 C3671 1.524 . S
C3672 C3673 1.415 . S
C3673 H3643 0.950 . S
C3673 C3668 1.363 . S
C3673 C3672 1.415 . S
H3674 C3671 0.999 . S
H3675 C3656 0.913 . S
H3676 C3694 0.951 . S
H3677 C3696 0.951 . S
H3678 C3698 0.950 . S
H3679 C3699 0.950 . S
H3680 C3701 0.950 . S
H3681 C3704 0.950 . S
H3682 C3705 0.950 . S
H3683 C3707 0.950 . S
H3684 C3708 0.950 . S
H3685 C3709 0.951 . S
H3686 C3711 0.951 . S
H3687 C3713 0.950 . S
H3688 C3714 0.950 . S
H3689 C3716 0.950 . S
H3690 C3719 0.950 . S
H3691 C3720 0.950 1_455 S
H3692 C3722 0.950 . S
H3693 C3723 0.950 . S
C3694 H3676 0.951 . S
C3694 C3695 1.366 . S
C3694 C3696 1.388 . S
C3695 C3694 1.366 . S
C3695 C3699 1.385 . S
C3696 H3677 0.951 . S
C3696 C3694 1.388 . S
C3696 C3697 1.366 . S
C3697 C3696 1.366 . S
C3697 C3698 1.414 . S
C3697 C3700 1.499 . S
C3698 H3678 0.950 . S
C3698 C3697 1.414 . S
C3698 C3699 1.374 . S
C3699 H3679 0.950 . S
C3699 C3695 1.385 . S
C3699 C3698 1.374 . S
C3700 C3697 1.499 . S
C3700 C3701 1.373 . S
C3700 C3702 1.389 . S
C3701 H3680 0.950 . S
C3701 C3700 1.373 . S
C3701 C3717 1.377 . S
C3702 C3700 1.389 . S
C3702 C3703 1.524 . S
C3702 C3716 1.377 . S
C3703 C3702 1.524 . S
C3703 C3704 1.397 . S
C3703 C3708 1.363 . S
C3704 H3681 0.950 . S
C3704 C3703 1.397 . S
C3704 C3705 1.334 . S
C3705 H3682 0.950 . S
C3705 C3704 1.334 . S
C3705 C3706 1.287 . S
C3706 C3705 1.287 . S
C3706 C3707 1.524 . S
C3706 H3725 0.913 . S
C3707 H3683 0.950 . S
C3707 C3706 1.524 . S
C3707 C3708 1.415 . S
C3708 H3684 0.950 . S
C3708 C3703 1.363 . S
C3708 C3707 1.415 . S
C3709 H3685 0.951 . S
C3709 C3710 1.366 . S
C3709 C3711 1.388 . S
C3710 C3709 1.366 . S
C3710 C3714 1.385 . S
C3711 H3686 0.951 . S
C3711 C3709 1.388 . S
C3711 C3712 1.366 . S
C3712 C3711 1.366 . S
C3712 C3713 1.414 . S
C3712 C3715 1.499 . S
C3713 H3687 0.950 . S
C3713 C3712 1.414 . S
C3713 C3714 1.374 . S
C3714 H3688 0.950 . S
C3714 C3710 1.385 . S
C3714 C3713 1.374 . S
C3715 C3712 1.499 . S
C3715 C3716 1.373 . S
C3715 C3717 1.389 . S
C3716 H3689 0.950 . S
C3716 C3702 1.377 . S
C3716 C3715 1.373 . S
C3717 C3701 1.377 . S
C3717 C3715 1.389 . S
C3717 C3718 1.524 . S
C3718 C3717 1.524 . S
C3718 C3719 1.397 . S
C3718 C3723 1.363 1_455 S
C3719 H3690 0.950 . S
C3719 C3718 1.397 . S
C3719 C3720 1.334 1_455 S
C3720 H3691 0.950 1_655 S
C3720 C3719 1.334 1_655 S
C3720 C3721 1.287 . S
C3721 C3720 1.287 . S
C3721 C3722 1.524 . S
C3721 H3724 0.999 . S
C3722 H3692 0.950 . S
C3722 C3721 1.524 . S
C3722 C3723 1.415 . S
C3723 H3693 0.950 . S
C3723 C3718 1.363 1_655 S
C3723 C3722 1.415 . S
H3724 C3721 0.999 . S
H3725 C3706 0.913 . S
H3726 C3744 0.951 . S
H3727 C3746 0.951 . S
H3728 C3748 0.950 . S
H3729 C3749 0.950 . S
H3730 C3751 0.950 . S
H3731 C3754 0.950 . S
H3732 C3755 0.950 . S
H3733 C3757 0.950 . S
H3734 C3758 0.950 . S
H3735 C3759 0.951 . S
H3736 C3761 0.951 . S
H3737 C3763 0.950 . S
H3738 C3764 0.950 . S
H3739 C3766 0.950 . S
H3740 C3769 0.950 . S
H3741 C3770 0.950 . S
H3742 C3772 0.950 . S
H3743 C3773 0.950 . S
C3744 H3726 0.951 . S
C3744 C3745 1.366 . S
C3744 C3746 1.388 . S
C3745 C3744 1.366 . S
C3745 C3749 1.385 . S
C3746 H3727 0.951 . S
C3746 C3744 1.388 . S
C3746 C3747 1.366 . S
C3747 C3746 1.366 . S
C3747 C3748 1.414 . S
C3747 C3750 1.499 . S
C3748 H3728 0.950 . S
C3748 C3747 1.414 . S
C3748 C3749 1.374 . S
C3749 H3729 0.950 . S
C3749 C3745 1.385 . S
C3749 C3748 1.374 . S
C3750 C3747 1.499 . S
C3750 C3751 1.373 . S
C3750 C3752 1.389 . S
C3751 H3730 0.950 . S
C3751 C3750 1.373 . S
C3751 C3767 1.377 . S
C3752 C3750 1.389 . S
C3752 C3753 1.524 . S
C3752 C3766 1.377 . S
C3753 C3752 1.524 . S
C3753 C3754 1.397 . S
C3753 C3758 1.363 . S
C3754 H3731 0.950 . S
C3754 C3753 1.397 . S
C3754 C3755 1.334 . S
C3755 H3732 0.950 . S
C3755 C3754 1.334 . S
C3755 C3756 1.287 . S
C3756 C3755 1.287 . S
C3756 C3757 1.524 . S
C3756 H3775 0.913 . S
C3757 H3733 0.950 . S
C3757 C3756 1.524 . S
C3757 C3758 1.415 . S
C3758 H3734 0.950 . S
C3758 C3753 1.363 . S
C3758 C3757 1.415 . S
C3759 H3735 0.951 . S
C3759 C3760 1.366 . S
C3759 C3761 1.388 . S
C3760 C3759 1.366 . S
C3760 C3764 1.385 . S
C3761 H3736 0.951 . S
C3761 C3759 1.388 . S
C3761 C3762 1.366 . S
C3762 C3761 1.366 . S
C3762 C3763 1.414 . S
C3762 C3765 1.499 . S
C3763 H3737 0.950 . S
C3763 C3762 1.414 . S
C3763 C3764 1.374 . S
C3764 H3738 0.950 . S
C3764 C3760 1.385 . S
C3764 C3763 1.374 . S
C3765 C3762 1.499 . S
C3765 C3766 1.373 . S
C3765 C3767 1.389 . S
C3766 H3739 0.950 . S
C3766 C3752 1.377 . S
C3766 C3765 1.373 . S
C3767 C3751 1.377 . S
C3767 C3765 1.389 . S
C3767 C3768 1.524 . S
C3768 C3767 1.524 . S
C3768 C3769 1.397 . S
C3768 C3773 1.363 . S
C3769 H3740 0.950 . S
C3769 C3768 1.397 . S
C3769 C3770 1.334 . S
C3770 H3741 0.950 . S
C3770 C3769 1.334 . S
C3770 C3771 1.287 . S
C3771 C3770 1.287 . S
C3771 C3772 1.524 . S
C3771 H3774 0.999 . S
C3772 H3742 0.950 . S
C3772 C3771 1.524 . S
C3772 C3773 1.415 . S
C3773 H3743 0.950 . S
C3773 C3768 1.363 . S
C3773 C3772 1.415 . S
H3774 C3771 0.999 . S
H3775 C3756 0.913 . S
H3776 C3794 0.951 . S
H3777 C3796 0.951 . S
H3778 C3798 0.950 . S
H3779 C3799 0.950 . S
H3780 C3801 0.950 . S
H3781 C3804 0.950 . S
H3782 C3805 0.950 . S
H3783 C3807 0.950 . S
H3784 C3808 0.950 . S
H3785 C3809 0.951 . S
H3786 C3811 0.951 . S
H3787 C3813 0.950 . S
H3788 C3814 0.950 . S
H3789 C3816 0.950 . S
H3790 C3819 0.950 . S
H3791 C3820 0.950 . S
H3792 C3822 0.950 . S
H3793 C3823 0.950 . S
C3794 H3776 0.951 . S
C3794 C3795 1.366 . S
C3794 C3796 1.388 . S
C3795 C3794 1.366 . S
C3795 C3799 1.385 . S
C3796 H3777 0.951 . S
C3796 C3794 1.388 . S
C3796 C3797 1.366 . S
C3797 C3796 1.366 . S
C3797 C3798 1.414 . S
C3797 C3800 1.499 . S
C3798 H3778 0.950 . S
C3798 C3797 1.414 . S
C3798 C3799 1.374 . S
C3799 H3779 0.950 . S
C3799 C3795 1.385 . S
C3799 C3798 1.374 . S
C3800 C3797 1.499 . S
C3800 C3801 1.373 . S
C3800 C3802 1.389 . S
C3801 H3780 0.950 . S
C3801 C3800 1.373 . S
C3801 C3817 1.377 . S
C3802 C3800 1.389 . S
C3802 C3803 1.524 . S
C3802 C3816 1.377 . S
C3803 C3802 1.524 . S
C3803 C3804 1.397 . S
C3803 C3808 1.363 . S
C3804 H3781 0.950 . S
C3804 C3803 1.397 . S
C3804 C3805 1.334 . S
C3805 H3782 0.950 . S
C3805 C3804 1.334 . S
C3805 C3806 1.287 . S
C3806 C3805 1.287 . S
C3806 C3807 1.524 . S
C3806 H3825 0.913 . S
C3807 H3783 0.950 . S
C3807 C3806 1.524 . S
C3807 C3808 1.415 . S
C3808 H3784 0.950 . S
C3808 C3803 1.363 . S
C3808 C3807 1.415 . S
C3809 H3785 0.951 . S
C3809 C3810 1.366 . S
C3809 C3811 1.388 . S
C3810 C3809 1.366 . S
C3810 C3814 1.385 . S
C3811 H3786 0.951 . S
C3811 C3809 1.388 . S
C3811 C3812 1.366 . S
C3812 C3811 1.366 . S
C3812 C3813 1.414 . S
C3812 C3815 1.499 . S
C3813 H3787 0.950 . S
C3813 C3812 1.414 . S
C3813 C3814 1.374 . S
C3814 H3788 0.950 . S
C3814 C3810 1.385 . S
C3814 C3813 1.374 . S
C3815 C3812 1.499 . S
C3815 C3816 1.373 . S
C3815 C3817 1.389 . S
C3816 H3789 0.950 . S
C3816 C3802 1.377 . S
C3816 C3815 1.373 . S
C3817 C3801 1.377 . S
C3817 C3815 1.389 . S
C3817 C3818 1.524 . S
C3818 C3817 1.524 . S
C3818 C3819 1.397 . S
C3818 C3823 1.363 . S
C3819 H3790 0.950 . S
C3819 C3818 1.397 . S
C3819 C3820 1.334 . S
C3820 H3791 0.950 . S
C3820 C3819 1.334 . S
C3820 C3821 1.287 . S
C3821 C3820 1.287 . S
C3821 C3822 1.524 . S
C3821 H3824 0.999 . S
C3822 H3792 0.950 . S
C3822 C3821 1.524 . S
C3822 C3823 1.415 . S
C3823 H3793 0.950 . S
C3823 C3818 1.363 . S
C3823 C3822 1.415 . S
H3824 C3821 0.999 . S
H3825 C3806 0.913 . S
H3826 C3844 0.951 . S
H3827 C3846 0.951 . S
H3828 C3848 0.950 . S
H3829 C3849 0.950 . S
H3830 C3851 0.950 . S
H3831 C3854 0.950 . S
H3832 C3855 0.950 . S
H3833 C3857 0.950 . S
H3834 C3858 0.950 . S
H3835 C3859 0.951 . S
H3836 C3861 0.951 . S
H3837 C3863 0.950 . S
H3838 C3864 0.950 . S
H3839 C3866 0.950 . S
H3840 C3869 0.950 . S
H3841 C3870 0.950 . S
H3842 C3872 0.950 . S
H3843 C3873 0.950 . S
C3844 H3826 0.951 . S
C3844 C3845 1.366 . S
C3844 C3846 1.388 . S
C3845 C3844 1.366 . S
C3845 C3849 1.385 . S
C3846 H3827 0.951 . S
C3846 C3844 1.388 . S
C3846 C3847 1.366 . S
C3847 C3846 1.366 . S
C3847 C3848 1.414 . S
C3847 C3850 1.499 . S
C3848 H3828 0.950 . S
C3848 C3847 1.414 . S
C3848 C3849 1.374 . S
C3849 H3829 0.950 . S
C3849 C3845 1.385 . S
C3849 C3848 1.374 . S
C3850 C3847 1.499 . S
C3850 C3851 1.373 . S
C3850 C3852 1.389 . S
C3851 H3830 0.950 . S
C3851 C3850 1.373 . S
C3851 C3867 1.377 . S
C3852 C3850 1.389 . S
C3852 C3853 1.524 . S
C3852 C3866 1.377 . S
C3853 C3852 1.524 . S
C3853 C3854 1.397 . S
C3853 C3858 1.363 . S
C3854 H3831 0.950 . S
C3854 C3853 1.397 . S
C3854 C3855 1.334 . S
C3855 H3832 0.950 . S
C3855 C3854 1.334 . S
C3855 C3856 1.287 . S
C3856 C3855 1.287 . S
C3856 C3857 1.524 . S
C3856 H3875 0.913 . S
C3857 H3833 0.950 . S
C3857 C3856 1.524 . S
C3857 C3858 1.415 . S
C3858 H3834 0.950 . S
C3858 C3853 1.363 . S
C3858 C3857 1.415 . S
C3859 H3835 0.951 . S
C3859 C3860 1.366 . S
C3859 C3861 1.388 . S
C3860 C3859 1.366 . S
C3860 C3864 1.385 . S
C3861 H3836 0.951 . S
C3861 C3859 1.388 . S
C3861 C3862 1.366 . S
C3862 C3861 1.366 . S
C3862 C3863 1.414 . S
C3862 C3865 1.499 . S
C3863 H3837 0.950 . S
C3863 C3862 1.414 . S
C3863 C3864 1.374 . S
C3864 H3838 0.950 . S
C3864 C3860 1.385 . S
C3864 C3863 1.374 . S
C3865 C3862 1.499 . S
C3865 C3866 1.373 . S
C3865 C3867 1.389 . S
C3866 H3839 0.950 . S
C3866 C3852 1.377 . S
C3866 C3865 1.373 . S
C3867 C3851 1.377 . S
C3867 C3865 1.389 . S
C3867 C3868 1.524 . S
C3868 C3867 1.524 . S
C3868 C3869 1.397 . S
C3868 C3873 1.363 . S
C3869 H3840 0.950 . S
C3869 C3868 1.397 . S
C3869 C3870 1.334 . S
C3870 H3841 0.950 . S
C3870 C3869 1.334 . S
C3870 C3871 1.287 . S
C3871 C3870 1.287 . S
C3871 C3872 1.524 . S
C3871 H3874 0.999 . S
C3872 H3842 0.950 . S
C3872 C3871 1.524 . S
C3872 C3873 1.415 . S
C3873 H3843 0.950 . S
C3873 C3868 1.363 . S
C3873 C3872 1.415 . S
H3874 C3871 0.999 . S
H3875 C3856 0.913 . S
H3876 C3894 0.951 . S
H3877 C3896 0.951 . S
H3878 C3898 0.950 . S
H3879 C3899 0.950 . S
H3880 C3901 0.950 . S
H3881 C3904 0.950 . S
H3882 C3905 0.950 . S
H3883 C3907 0.950 . S
H3884 C3908 0.950 . S
H3885 C3909 0.951 . S
H3886 C3911 0.951 . S
H3887 C3913 0.950 . S
H3888 C3914 0.950 . S
H3889 C3916 0.950 . S
H3890 C3919 0.950 . S
H3891 C3920 0.950 . S
H3892 C3922 0.950 . S
H3893 C3923 0.950 . S
C3894 H3876 0.951 . S
C3894 C3895 1.366 . S
C3894 C3896 1.388 . S
C3895 C3894 1.366 . S
C3895 C3899 1.385 . S
C3896 H3877 0.951 . S
C3896 C3894 1.388 . S
C3896 C3897 1.366 . S
C3897 C3896 1.366 . S
C3897 C3898 1.414 . S
C3897 C3900 1.499 . S
C3898 H3878 0.950 . S
C3898 C3897 1.414 . S
C3898 C3899 1.374 . S
C3899 H3879 0.950 . S
C3899 C3895 1.385 . S
C3899 C3898 1.374 . S
C3900 C3897 1.499 . S
C3900 C3901 1.373 . S
C3900 C3902 1.389 . S
C3901 H3880 0.950 . S
C3901 C3900 1.373 . S
C3901 C3917 1.377 . S
C3902 C3900 1.389 . S
C3902 C3903 1.524 . S
C3902 C3916 1.377 . S
C3903 C3902 1.524 . S
C3903 C3904 1.397 . S
C3903 C3908 1.363 . S
C3904 H3881 0.950 . S
C3904 C3903 1.397 . S
C3904 C3905 1.334 . S
C3905 H3882 0.950 . S
C3905 C3904 1.334 . S
C3905 C3906 1.287 . S
C3906 C3905 1.287 . S
C3906 C3907 1.524 . S
C3906 H3925 0.913 . S
C3907 H3883 0.950 . S
C3907 C3906 1.524 . S
C3907 C3908 1.415 . S
C3908 H3884 0.950 . S
C3908 C3903 1.363 . S
C3908 C3907 1.415 . S
C3909 H3885 0.951 . S
C3909 C3910 1.366 . S
C3909 C3911 1.388 . S
C3910 C3909 1.366 . S
C3910 C3914 1.385 . S
C3911 H3886 0.951 . S
C3911 C3909 1.388 . S
C3911 C3912 1.366 . S
C3912 C3911 1.366 . S
C3912 C3913 1.414 . S
C3912 C3915 1.499 . S
C3913 H3887 0.950 . S
C3913 C3912 1.414 . S
C3913 C3914 1.374 . S
C3914 H3888 0.950 . S
C3914 C3910 1.385 . S
C3914 C3913 1.374 . S
C3915 C3912 1.499 . S
C3915 C3916 1.373 . S
C3915 C3917 1.389 . S
C3916 H3889 0.950 . S
C3916 C3902 1.377 . S
C3916 C3915 1.373 . S
C3917 C3901 1.377 . S
C3917 C3915 1.389 . S
C3917 C3918 1.524 . S
C3918 C3917 1.524 . S
C3918 C3919 1.397 . S
C3918 C3923 1.363 . S
C3919 H3890 0.950 . S
C3919 C3918 1.397 . S
C3919 C3920 1.334 . S
C3920 H3891 0.950 . S
C3920 C3919 1.334 . S
C3920 C3921 1.287 . S
C3921 C3920 1.287 . S
C3921 C3922 1.524 . S
C3921 H3924 0.999 . S
C3922 H3892 0.950 . S
C3922 C3921 1.524 . S
C3922 C3923 1.415 . S
C3923 H3893 0.950 . S
C3923 C3918 1.363 . S
C3923 C3922 1.415 . S
H3924 C3921 0.999 . S
H3925 C3906 0.913 . S
H3926 C3944 0.951 . S
H3927 C3946 0.951 . S
H3928 C3948 0.950 . S
H3929 C3949 0.950 . S
H3930 C3951 0.950 . S
H3931 C3954 0.950 . S
H3932 C3955 0.950 . S
H3933 C3957 0.950 . S
H3934 C3958 0.950 . S
H3935 C3959 0.951 . S
H3936 C3961 0.951 . S
H3937 C3963 0.950 . S
H3938 C3964 0.950 . S
H3939 C3966 0.950 . S
H3940 C3969 0.950 . S
H3941 C3970 0.950 . S
H3942 C3972 0.950 . S
H3943 C3973 0.950 . S
C3944 H3926 0.951 . S
C3944 C3945 1.366 . S
C3944 C3946 1.388 . S
C3945 C3944 1.366 . S
C3945 C3949 1.385 . S
C3946 H3927 0.951 . S
C3946 C3944 1.388 . S
C3946 C3947 1.366 . S
C3947 C3946 1.366 . S
C3947 C3948 1.414 . S
C3947 C3950 1.499 . S
C3948 H3928 0.950 . S
C3948 C3947 1.414 . S
C3948 C3949 1.374 . S
C3949 H3929 0.950 . S
C3949 C3945 1.385 . S
C3949 C3948 1.374 . S
C3950 C3947 1.499 . S
C3950 C3951 1.373 . S
C3950 C3952 1.389 . S
C3951 H3930 0.950 . S
C3951 C3950 1.373 . S
C3951 C3967 1.377 . S
C3952 C3950 1.389 . S
C3952 C3953 1.524 . S
C3952 C3966 1.377 . S
C3953 C3952 1.524 . S
C3953 C3954 1.397 . S
C3953 C3958 1.363 . S
C3954 H3931 0.950 . S
C3954 C3953 1.397 . S
C3954 C3955 1.334 . S
C3955 H3932 0.950 . S
C3955 C3954 1.334 . S
C3955 C3956 1.287 . S
C3956 C3955 1.287 . S
C3956 C3957 1.524 . S
C3956 H3975 0.913 . S
C3957 H3933 0.950 . S
C3957 C3956 1.524 . S
C3957 C3958 1.415 . S
C3958 H3934 0.950 . S
C3958 C3953 1.363 . S
C3958 C3957 1.415 . S
C3959 H3935 0.951 . S
C3959 C3960 1.366 . S
C3959 C3961 1.388 . S
C3960 C3959 1.366 . S
C3960 C3964 1.385 . S
C3961 H3936 0.951 . S
C3961 C3959 1.388 . S
C3961 C3962 1.366 . S
C3962 C3961 1.366 . S
C3962 C3963 1.414 . S
C3962 C3965 1.499 . S
C3963 H3937 0.950 . S
C3963 C3962 1.414 . S
C3963 C3964 1.374 . S
C3964 H3938 0.950 . S
C3964 C3960 1.385 . S
C3964 C3963 1.374 . S
C3965 C3962 1.499 . S
C3965 C3966 1.373 . S
C3965 C3967 1.389 . S
C3966 H3939 0.950 . S
C3966 C3952 1.377 . S
C3966 C3965 1.373 . S
C3967 C3951 1.377 . S
C3967 C3965 1.389 . S
C3967 C3968 1.524 . S
C3968 C3967 1.524 . S
C3968 C3969 1.397 . S
C3968 C3973 1.363 . S
C3969 H3940 0.950 . S
C3969 C3968 1.397 . S
C3969 C3970 1.334 . S
C3970 H3941 0.950 . S
C3970 C3969 1.334 . S
C3970 C3971 1.287 . S
C3971 C3970 1.287 . S
C3971 C3972 1.524 . S
C3971 H3974 0.999 . S
C3972 H3942 0.950 . S
C3972 C3971 1.524 . S
C3972 C3973 1.415 . S
C3973 H3943 0.950 . S
C3973 C3968 1.363 . S
C3973 C3972 1.415 . S
H3974 C3971 0.999 . S
H3975 C3956 0.913 . S
H3976 C3994 0.951 . S
H3977 C3996 0.951 . S
H3978 C3998 0.950 . S
H3979 C3999 0.950 . S
H3980 C4001 0.950 . S
H3981 C4004 0.950 . S
H3982 C4005 0.950 . S
H3983 C4007 0.950 . S
H3984 C4008 0.950 . S
H3985 C4009 0.951 . S
H3986 C4011 0.951 . S
H3987 C4013 0.950 . S
H3988 C4014 0.950 . S
H3989 C4016 0.950 . S
H3990 C4019 0.950 . S
H3991 C4020 0.950 . S
H3992 C4022 0.950 . S
H3993 C4023 0.950 . S
C3994 H3976 0.951 . S
C3994 C3995 1.366 . S
C3994 C3996 1.388 . S
C3995 C3994 1.366 . S
C3995 C3999 1.385 . S
C3996 H3977 0.951 . S
C3996 C3994 1.388 . S
C3996 C3997 1.366 . S
C3997 C3996 1.366 . S
C3997 C3998 1.414 . S
C3997 C4000 1.499 . S
C3998 H3978 0.950 . S
C3998 C3997 1.414 . S
C3998 C3999 1.374 . S
C3999 H3979 0.950 . S
C3999 C3995 1.385 . S
C3999 C3998 1.374 . S
C4000 C3997 1.499 . S
C4000 C4001 1.373 . S
C4000 C4002 1.389 . S
C4001 H3980 0.950 . S
C4001 C4000 1.373 . S
C4001 C4017 1.377 . S
C4002 C4000 1.389 . S
C4002 C4003 1.524 . S
C4002 C4016 1.377 . S
C4003 C4002 1.524 . S
C4003 C4004 1.397 . S
C4003 C4008 1.363 . S
C4004 H3981 0.950 . S
C4004 C4003 1.397 . S
C4004 C4005 1.334 . S
C4005 H3982 0.950 . S
C4005 C4004 1.334 . S
C4005 C4006 1.287 . S
C4006 C4005 1.287 . S
C4006 C4007 1.524 . S
C4006 H4025 0.913 . S
C4007 H3983 0.950 . S
C4007 C4006 1.524 . S
C4007 C4008 1.415 . S
C4008 H3984 0.950 . S
C4008 C4003 1.363 . S
C4008 C4007 1.415 . S
C4009 H3985 0.951 . S
C4009 C4010 1.366 . S
C4009 C4011 1.388 . S
C4010 C4009 1.366 . S
C4010 C4014 1.385 . S
C4011 H3986 0.951 . S
C4011 C4009 1.388 . S
C4011 C4012 1.366 . S
C4012 C4011 1.366 . S
C4012 C4013 1.414 . S
C4012 C4015 1.499 . S
C4013 H3987 0.950 . S
C4013 C4012 1.414 . S
C4013 C4014 1.374 . S
C4014 H3988 0.950 . S
C4014 C4010 1.385 . S
C4014 C4013 1.374 . S
C4015 C4012 1.499 . S
C4015 C4016 1.373 . S
C4015 C4017 1.389 . S
C4016 H3989 0.950 . S
C4016 C4002 1.377 . S
C4016 C4015 1.373 . S
C4017 C4001 1.377 . S
C4017 C4015 1.389 . S
C4017 C4018 1.524 . S
C4018 C4017 1.524 . S
C4018 C4019 1.397 . S
C4018 C4023 1.363 . S
C4019 H3990 0.950 . S
C4019 C4018 1.397 . S
C4019 C4020 1.334 . S
C4020 H3991 0.950 . S
C4020 C4019 1.334 . S
C4020 C4021 1.287 . S
C4021 C4020 1.287 . S
C4021 C4022 1.524 . S
C4021 H4024 0.999 . S
C4022 H3992 0.950 . S
C4022 C4021 1.524 . S
C4022 C4023 1.415 . S
C4023 H3993 0.950 . S
C4023 C4018 1.363 . S
C4023 C4022 1.415 . S
H4024 C4021 0.999 . S
H4025 C4006 0.913 . S
H4026 C4044 0.951 . S
H4027 C4046 0.951 . S
H4028 C4048 0.950 . S
H4029 C4049 0.950 . S
H4030 C4051 0.950 . S
H4031 C4054 0.950 . S
H4032 C4055 0.950 . S
H4033 C4057 0.950 . S
H4034 C4058 0.950 . S
H4035 C4059 0.951 . S
H4036 C4061 0.951 . S
H4037 C4063 0.950 . S
H4038 C4064 0.950 . S
H4039 C4066 0.950 . S
H4040 C4069 0.950 . S
H4041 C4070 0.950 . S
H4042 C4072 0.950 . S
H4043 C4073 0.950 . S
C4044 H4026 0.951 . S
C4044 C4045 1.366 . S
C4044 C4046 1.388 . S
C4045 C4044 1.366 . S
C4045 C4049 1.385 . S
C4046 H4027 0.951 . S
C4046 C4044 1.388 . S
C4046 C4047 1.366 . S
C4047 C4046 1.366 . S
C4047 C4048 1.414 . S
C4047 C4050 1.499 . S
C4048 H4028 0.950 . S
C4048 C4047 1.414 . S
C4048 C4049 1.374 . S
C4049 H4029 0.950 . S
C4049 C4045 1.385 . S
C4049 C4048 1.374 . S
C4050 C4047 1.499 . S
C4050 C4051 1.373 . S
C4050 C4052 1.389 . S
C4051 H4030 0.950 . S
C4051 C4050 1.373 . S
C4051 C4067 1.377 . S
C4052 C4050 1.389 . S
C4052 C4053 1.524 . S
C4052 C4066 1.377 . S
C4053 C4052 1.524 . S
C4053 C4054 1.397 . S
C4053 C4058 1.363 . S
C4054 H4031 0.950 . S
C4054 C4053 1.397 . S
C4054 C4055 1.334 . S
C4055 H4032 0.950 . S
C4055 C4054 1.334 . S
C4055 C4056 1.287 . S
C4056 C4055 1.287 . S
C4056 C4057 1.524 . S
C4056 H4075 0.913 . S
C4057 H4033 0.950 . S
C4057 C4056 1.524 . S
C4057 C4058 1.415 . S
C4058 H4034 0.950 . S
C4058 C4053 1.363 . S
C4058 C4057 1.415 . S
C4059 H4035 0.951 . S
C4059 C4060 1.366 . S
C4059 C4061 1.388 . S
C4060 C4059 1.366 . S
C4060 C4064 1.385 . S
C4061 H4036 0.951 . S
C4061 C4059 1.388 . S
C4061 C4062 1.366 . S
C4062 C4061 1.366 . S
C4062 C4063 1.414 . S
C4062 C4065 1.499 . S
C4063 H4037 0.950 . S
C4063 C4062 1.414 . S
C4063 C4064 1.374 . S
C4064 H4038 0.950 . S
C4064 C4060 1.385 . S
C4064 C4063 1.374 . S
C4065 C4062 1.499 . S
C4065 C4066 1.373 . S
C4065 C4067 1.389 . S
C4066 H4039 0.950 . S
C4066 C4052 1.377 . S
C4066 C4065 1.373 . S
C4067 C4051 1.377 . S
C4067 C4065 1.389 . S
C4067 C4068 1.524 . S
C4068 C4067 1.524 . S
C4068 C4069 1.397 . S
C4068 C4073 1.363 . S
C4069 H4040 0.950 . S
C4069 C4068 1.397 . S
C4069 C4070 1.334 . S
C4070 H4041 0.950 . S
C4070 C4069 1.334 . S
C4070 C4071 1.287 . S
C4071 C4070 1.287 . S
C4071 C4072 1.524 . S
C4071 H4074 0.999 . S
C4072 H4042 0.950 . S
C4072 C4071 1.524 . S
C4072 C4073 1.415 . S
C4073 H4043 0.950 . S
C4073 C4068 1.363 . S
C4073 C4072 1.415 . S
H4074 C4071 0.999 . S
H4075 C4056 0.913 . S
H4076 C4094 0.951 . S
H4077 C4096 0.951 . S
H4078 C4098 0.950 . S
H4079 C4099 0.950 . S
H4080 C4101 0.950 . S
H4081 C4104 0.950 . S
H4082 C4105 0.950 . S
H4083 C4107 0.950 . S
H4084 C4108 0.950 . S
H4085 C4109 0.951 . S
H4086 C4111 0.951 . S
H4087 C4113 0.950 . S
H4088 C4114 0.950 . S
H4089 C4116 0.950 . S
H4090 C4119 0.950 . S
H4091 C4120 0.950 . S
H4092 C4122 0.950 . S
H4093 C4123 0.950 . S
C4094 H4076 0.951 . S
C4094 C4095 1.366 . S
C4094 C4096 1.388 . S
C4095 C4094 1.366 . S
C4095 C4099 1.385 . S
C4096 H4077 0.951 . S
C4096 C4094 1.388 . S
C4096 C4097 1.366 . S
C4097 C4096 1.366 . S
C4097 C4098 1.414 . S
C4097 C4100 1.499 . S
C4098 H4078 0.950 . S
C4098 C4097 1.414 . S
C4098 C4099 1.374 . S
C4099 H4079 0.950 . S
C4099 C4095 1.385 . S
C4099 C4098 1.374 . S
C4100 C4097 1.499 . S
C4100 C4101 1.373 . S
C4100 C4102 1.389 . S
C4101 H4080 0.950 . S
C4101 C4100 1.373 . S
C4101 C4117 1.377 . S
C4102 C4100 1.389 . S
C4102 C4103 1.524 . S
C4102 C4116 1.377 . S
C4103 C4102 1.524 . S
C4103 C4104 1.397 . S
C4103 C4108 1.363 . S
C4104 H4081 0.950 . S
C4104 C4103 1.397 . S
C4104 C4105 1.334 . S
C4105 H4082 0.950 . S
C4105 C4104 1.334 . S
C4105 C4106 1.287 . S
C4106 C4105 1.287 . S
C4106 C4107 1.524 . S
C4106 H4125 0.913 . S
C4107 H4083 0.950 . S
C4107 C4106 1.524 . S
C4107 C4108 1.415 . S
C4108 H4084 0.950 . S
C4108 C4103 1.363 . S
C4108 C4107 1.415 . S
C4109 H4085 0.951 . S
C4109 C4110 1.366 . S
C4109 C4111 1.388 . S
C4110 C4109 1.366 . S
C4110 C4114 1.385 . S
C4111 H4086 0.951 . S
C4111 C4109 1.388 . S
C4111 C4112 1.366 . S
C4112 C4111 1.366 . S
C4112 C4113 1.414 . S
C4112 C4115 1.499 . S
C4113 H4087 0.950 . S
C4113 C4112 1.414 . S
C4113 C4114 1.374 . S
C4114 H4088 0.950 . S
C4114 C4110 1.385 . S
C4114 C4113 1.374 . S
C4115 C4112 1.499 . S
C4115 C4116 1.373 . S
C4115 C4117 1.389 . S
C4116 H4089 0.950 . S
C4116 C4102 1.377 . S
C4116 C4115 1.373 . S
C4117 C4101 1.377 . S
C4117 C4115 1.389 . S
C4117 C4118 1.524 . S
C4118 C4117 1.524 . S
C4118 C4119 1.397 . S
C4118 C4123 1.363 . S
C4119 H4090 0.950 . S
C4119 C4118 1.397 . S
C4119 C4120 1.334 . S
C4120 H4091 0.950 . S
C4120 C4119 1.334 . S
C4120 C4121 1.287 . S
C4121 C4120 1.287 . S
C4121 C4122 1.524 . S
C4121 H4124 0.999 . S
C4122 H4092 0.950 . S
C4122 C4121 1.524 . S
C4122 C4123 1.415 . S
C4123 H4093 0.950 . S
C4123 C4118 1.363 . S
C4123 C4122 1.415 . S
H4124 C4121 0.999 . S
H4125 C4106 0.913 . S
H4126 C4144 0.951 . S
H4127 C4146 0.951 . S
H4128 C4148 0.950 . S
H4129 C4149 0.950 . S
H4130 C4151 0.950 . S
H4131 C4154 0.950 . S
H4132 C4155 0.950 . S
H4133 C4157 0.950 . S
H4134 C4158 0.950 . S
H4135 C4159 0.951 . S
H4136 C4161 0.951 . S
H4137 C4163 0.950 . S
H4138 C4164 0.950 . S
H4139 C4166 0.950 . S
H4140 C4169 0.950 . S
H4141 C4170 0.950 . S
H4142 C4172 0.950 . S
H4143 C4173 0.950 . S
C4144 H4126 0.951 . S
C4144 C4145 1.366 . S
C4144 C4146 1.388 . S
C4145 C4144 1.366 . S
C4145 C4149 1.385 . S
C4146 H4127 0.951 . S
C4146 C4144 1.388 . S
C4146 C4147 1.366 . S
C4147 C4146 1.366 . S
C4147 C4148 1.414 . S
C4147 C4150 1.499 . S
C4148 H4128 0.950 . S
C4148 C4147 1.414 . S
C4148 C4149 1.374 . S
C4149 H4129 0.950 . S
C4149 C4145 1.385 . S
C4149 C4148 1.374 . S
C4150 C4147 1.499 . S
C4150 C4151 1.373 . S
C4150 C4152 1.389 . S
C4151 H4130 0.950 . S
C4151 C4150 1.373 . S
C4151 C4167 1.377 . S
C4152 C4150 1.389 . S
C4152 C4153 1.524 . S
C4152 C4166 1.377 . S
C4153 C4152 1.524 . S
C4153 C4154 1.397 . S
C4153 C4158 1.363 . S
C4154 H4131 0.950 . S
C4154 C4153 1.397 . S
C4154 C4155 1.334 . S
C4155 H4132 0.950 . S
C4155 C4154 1.334 . S
C4155 C4156 1.287 . S
C4156 C4155 1.287 . S
C4156 C4157 1.524 . S
C4156 H4175 0.913 . S
C4157 H4133 0.950 . S
C4157 C4156 1.524 . S
C4157 C4158 1.415 . S
C4158 H4134 0.950 . S
C4158 C4153 1.363 . S
C4158 C4157 1.415 . S
C4159 H4135 0.951 . S
C4159 C4160 1.366 . S
C4159 C4161 1.388 . S
C4160 C4159 1.366 . S
C4160 C4164 1.385 . S
C4161 H4136 0.951 . S
C4161 C4159 1.388 . S
C4161 C4162 1.366 . S
C4162 C4161 1.366 . S
C4162 C4163 1.414 . S
C4162 C4165 1.499 . S
C4163 H4137 0.950 . S
C4163 C4162 1.414 . S
C4163 C4164 1.374 . S
C4164 H4138 0.950 . S
C4164 C4160 1.385 . S
C4164 C4163 1.374 . S
C4165 C4162 1.499 . S
C4165 C4166 1.373 . S
C4165 C4167 1.389 . S
C4166 H4139 0.950 . S
C4166 C4152 1.377 . S
C4166 C4165 1.373 . S
C4167 C4151 1.377 . S
C4167 C4165 1.389 . S
C4167 C4168 1.524 . S
C4168 C4167 1.524 . S
C4168 C4169 1.397 . S
C4168 C4173 1.363 . S
C4169 H4140 0.950 . S
C4169 C4168 1.397 . S
C4169 C4170 1.334 . S
C4170 H4141 0.950 . S
C4170 C4169 1.334 . S
C4170 C4171 1.287 . S
C4171 C4170 1.287 . S
C4171 C4172 1.524 . S
C4171 H4174 0.999 . S
C4172 H4142 0.950 . S
C4172 C4171 1.524 . S
C4172 C4173 1.415 . S
C4173 H4143 0.950 . S
C4173 C4168 1.363 . S
C4173 C4172 1.415 . S
H4174 C4171 0.999 . S
H4175 C4156 0.913 . S
H4176 C4194 0.951 . S
H4177 C4196 0.951 . S
H4178 C4198 0.950 . S
H4179 C4199 0.950 . S
H4180 C4201 0.950 . S
H4181 C4204 0.950 . S
H4182 C4205 0.950 . S
H4183 C4207 0.950 . S
H4184 C4208 0.950 . S
H4185 C4209 0.951 . S
H4186 C4211 0.951 . S
H4187 C4213 0.950 . S
H4188 C4214 0.950 . S
H4189 C4216 0.950 . S
H4190 C4219 0.950 . S
H4191 C4220 0.950 . S
H4192 C4222 0.950 . S
H4193 C4223 0.950 . S
C4194 H4176 0.951 . S
C4194 C4195 1.366 . S
C4194 C4196 1.388 . S
C4195 C4194 1.366 . S
C4195 C4199 1.385 . S
C4196 H4177 0.951 . S
C4196 C4194 1.388 . S
C4196 C4197 1.366 . S
C4197 C4196 1.366 . S
C4197 C4198 1.414 . S
C4197 C4200 1.499 . S
C4198 H4178 0.950 . S
C4198 C4197 1.414 . S
C4198 C4199 1.374 . S
C4199 H4179 0.950 . S
C4199 C4195 1.385 . S
C4199 C4198 1.374 . S
C4200 C4197 1.499 . S
C4200 C4201 1.373 . S
C4200 C4202 1.389 . S
C4201 H4180 0.950 . S
C4201 C4200 1.373 . S
C4201 C4217 1.377 . S
C4202 C4200 1.389 . S
C4202 C4203 1.524 . S
C4202 C4216 1.377 . S
C4203 C4202 1.524 . S
C4203 C4204 1.397 . S
C4203 C4208 1.363 . S
C4204 H4181 0.950 . S
C4204 C4203 1.397 . S
C4204 C4205 1.334 . S
C4205 H4182 0.950 . S
C4205 C4204 1.334 . S
C4205 C4206 1.287 . S
C4206 C4205 1.287 . S
C4206 C4207 1.524 . S
C4206 H4225 0.913 . S
C4207 H4183 0.950 . S
C4207 C4206 1.524 . S
C4207 C4208 1.415 . S
C4208 H4184 0.950 . S
C4208 C4203 1.363 . S
C4208 C4207 1.415 . S
C4209 H4185 0.951 . S
C4209 C4210 1.366 . S
C4209 C4211 1.388 . S
C4210 C4209 1.366 . S
C4210 C4214 1.385 . S
C4211 H4186 0.951 . S
C4211 C4209 1.388 . S
C4211 C4212 1.366 . S
C4212 C4211 1.366 . S
C4212 C4213 1.414 . S
C4212 C4215 1.499 . S
C4213 H4187 0.950 . S
C4213 C4212 1.414 . S
C4213 C4214 1.374 . S
C4214 H4188 0.950 . S
C4214 C4210 1.385 . S
C4214 C4213 1.374 . S
C4215 C4212 1.499 . S
C4215 C4216 1.373 . S
C4215 C4217 1.389 . S
C4216 H4189 0.950 . S
C4216 C4202 1.377 . S
C4216 C4215 1.373 . S
C4217 C4201 1.377 . S
C4217 C4215 1.389 . S
C4217 C4218 1.524 . S
C4218 C4217 1.524 . S
C4218 C4219 1.397 . S
C4218 C4223 1.363 . S
C4219 H4190 0.950 . S
C4219 C4218 1.397 . S
C4219 C4220 1.334 . S
C4220 H4191 0.950 . S
C4220 C4219 1.334 . S
C4220 C4221 1.287 . S
C4221 C4220 1.287 . S
C4221 C4222 1.524 . S
C4221 H4224 0.999 . S
C4222 H4192 0.950 . S
C4222 C4221 1.524 . S
C4222 C4223 1.415 . S
C4223 H4193 0.950 . S
C4223 C4218 1.363 . S
C4223 C4222 1.415 . S
H4224 C4221 0.999 . S
H4225 C4206 0.913 . S
H4226 C4244 0.951 . S
H4227 C4246 0.951 . S
H4228 C4248 0.950 . S
H4229 C4249 0.950 . S
H4230 C4251 0.950 . S
H4231 C4254 0.950 . S
H4232 C4255 0.950 . S
H4233 C4257 0.950 . S
H4234 C4258 0.950 . S
H4235 C4259 0.951 . S
H4236 C4261 0.951 . S
H4237 C4263 0.950 . S
H4238 C4264 0.950 . S
H4239 C4266 0.950 . S
H4240 C4269 0.950 . S
H4241 C4270 0.950 . S
H4242 C4272 0.950 . S
H4243 C4273 0.950 . S
C4244 H4226 0.951 . S
C4244 C4245 1.366 . S
C4244 C4246 1.388 . S
C4245 C4244 1.366 . S
C4245 C4249 1.385 . S
C4246 H4227 0.951 . S
C4246 C4244 1.388 . S
C4246 C4247 1.366 . S
C4247 C4246 1.366 . S
C4247 C4248 1.414 . S
C4247 C4250 1.499 . S
C4248 H4228 0.950 . S
C4248 C4247 1.414 . S
C4248 C4249 1.374 . S
C4249 H4229 0.950 . S
C4249 C4245 1.385 . S
C4249 C4248 1.374 . S
C4250 C4247 1.499 . S
C4250 C4251 1.373 . S
C4250 C4252 1.389 . S
C4251 H4230 0.950 . S
C4251 C4250 1.373 . S
C4251 C4267 1.377 . S
C4252 C4250 1.389 . S
C4252 C4253 1.524 . S
C4252 C4266 1.377 . S
C4253 C4252 1.524 . S
C4253 C4254 1.397 . S
C4253 C4258 1.363 . S
C4254 H4231 0.950 . S
C4254 C4253 1.397 . S
C4254 C4255 1.334 . S
C4255 H4232 0.950 . S
C4255 C4254 1.334 . S
C4255 C4256 1.287 . S
C4256 C4255 1.287 . S
C4256 C4257 1.524 . S
C4256 H4275 0.913 . S
C4257 H4233 0.950 . S
C4257 C4256 1.524 . S
C4257 C4258 1.415 . S
C4258 H4234 0.950 . S
C4258 C4253 1.363 . S
C4258 C4257 1.415 . S
C4259 H4235 0.951 . S
C4259 C4260 1.366 . S
C4259 C4261 1.388 . S
C4260 C4259 1.366 . S
C4260 C4264 1.385 . S
C4261 H4236 0.951 . S
C4261 C4259 1.388 . S
C4261 C4262 1.366 . S
C4262 C4261 1.366 . S
C4262 C4263 1.414 . S
C4262 C4265 1.499 . S
C4263 H4237 0.950 . S
C4263 C4262 1.414 . S
C4263 C4264 1.374 . S
C4264 H4238 0.950 . S
C4264 C4260 1.385 . S
C4264 C4263 1.374 . S
C4265 C4262 1.499 . S
C4265 C4266 1.373 . S
C4265 C4267 1.389 . S
C4266 H4239 0.950 . S
C4266 C4252 1.377 . S
C4266 C4265 1.373 . S
C4267 C4251 1.377 . S
C4267 C4265 1.389 . S
C4267 C4268 1.524 . S
C4268 C4267 1.524 . S
C4268 C4269 1.397 . S
C4268 C4273 1.363 . S
C4269 H4240 0.950 . S
C4269 C4268 1.397 . S
C4269 C4270 1.334 . S
C4270 H4241 0.950 . S
C4270 C4269 1.334 . S
C4270 C4271 1.287 . S
C4271 C4270 1.287 . S
C4271 C4272 1.524 . S
C4271 H4274 0.999 . S
C4272 H4242 0.950 . S
C4272 C4271 1.524 . S
C4272 C4273 1.415 . S
C4273 H4243 0.950 . S
C4273 C4268 1.363 . S
C4273 C4272 1.415 . S
H4274 C4271 0.999 . S
H4275 C4256 0.913 . S
H4276 C4294 0.951 . S
H4277 C4296 0.951 . S
H4278 C4298 0.950 . S
H4279 C4299 0.950 1_545 S
H4280 C4301 0.950 . S
H4281 C4304 0.950 . S
H4282 C4305 0.950 . S
H4283 C4307 0.950 . S
H4284 C4308 0.950 . S
H4285 C4309 0.951 . S
H4286 C4311 0.951 . S
H4287 C4313 0.950 . S
H4288 C4314 0.950 . S
H4289 C4316 0.950 . S
H4290 C4319 0.950 . S
H4291 C4320 0.950 . S
H4292 C4322 0.950 . S
H4293 C4323 0.950 . S
C4294 H4276 0.951 . S
C4294 C4295 1.366 . S
C4294 C4296 1.388 . S
C4295 C4294 1.366 . S
C4295 C4299 1.385 . S
C4296 H4277 0.951 . S
C4296 C4294 1.388 . S
C4296 C4297 1.366 . S
C4297 C4296 1.366 . S
C4297 C4298 1.414 . S
C4297 C4300 1.499 . S
C4298 H4278 0.950 . S
C4298 C4297 1.414 . S
C4298 C4299 1.374 . S
C4299 H4279 0.950 1_565 S
C4299 C4295 1.385 . S
C4299 C4298 1.374 . S
C4300 C4297 1.499 . S
C4300 C4301 1.373 . S
C4300 C4302 1.389 . S
C4301 H4280 0.950 . S
C4301 C4300 1.373 . S
C4301 C4317 1.377 . S
C4302 C4300 1.389 . S
C4302 C4303 1.524 . S
C4302 C4316 1.377 . S
C4303 C4302 1.524 . S
C4303 C4304 1.397 . S
C4303 C4308 1.363 . S
C4304 H4281 0.950 . S
C4304 C4303 1.397 . S
C4304 C4305 1.334 . S
C4305 H4282 0.950 . S
C4305 C4304 1.334 . S
C4305 C4306 1.287 . S
C4306 C4305 1.287 . S
C4306 C4307 1.524 . S
C4306 H4325 0.913 . S
C4307 H4283 0.950 . S
C4307 C4306 1.524 . S
C4307 C4308 1.415 . S
C4308 H4284 0.950 . S
C4308 C4303 1.363 . S
C4308 C4307 1.415 . S
C4309 H4285 0.951 . S
C4309 C4310 1.366 . S
C4309 C4311 1.388 . S
C4310 C4309 1.366 . S
C4310 C4314 1.385 . S
C4311 H4286 0.951 . S
C4311 C4309 1.388 . S
C4311 C4312 1.366 . S
C4312 C4311 1.366 . S
C4312 C4313 1.414 . S
C4312 C4315 1.499 . S
C4313 H4287 0.950 . S
C4313 C4312 1.414 . S
C4313 C4314 1.374 . S
C4314 H4288 0.950 . S
C4314 C4310 1.385 . S
C4314 C4313 1.374 . S
C4315 C4312 1.499 . S
C4315 C4316 1.373 . S
C4315 C4317 1.389 . S
C4316 H4289 0.950 . S
C4316 C4302 1.377 . S
C4316 C4315 1.373 . S
C4317 C4301 1.377 . S
C4317 C4315 1.389 . S
C4317 C4318 1.524 . S
C4318 C4317 1.524 . S
C4318 C4319 1.397 . S
C4318 C4323 1.363 . S
C4319 H4290 0.950 . S
C4319 C4318 1.397 . S
C4319 C4320 1.334 . S
C4320 H4291 0.950 . S
C4320 C4319 1.334 . S
C4320 C4321 1.287 . S
C4321 C4320 1.287 . S
C4321 C4322 1.524 . S
C4321 H4324 0.999 . S
C4322 H4292 0.950 . S
C4322 C4321 1.524 . S
C4322 C4323 1.415 . S
C4323 H4293 0.950 . S
C4323 C4318 1.363 . S
C4323 C4322 1.415 . S
H4324 C4321 0.999 . S
H4325 C4306 0.913 . S
H4326 C4344 0.951 . S
H4327 C4346 0.951 . S
H4328 C4348 0.950 . S
H4329 C4349 0.950 . S
H4330 C4351 0.950 . S
H4331 C4354 0.950 . S
H4332 C4355 0.950 . S
H4333 C4357 0.950 . S
H4334 C4358 0.950 . S
H4335 C4359 0.982 . S
H4336 C4361 0.951 . S
H4337 C4363 0.950 . S
H4338 C4364 0.950 . S
H4339 C4366 0.950 . S
H4340 C4369 0.950 . S
H4341 C4370 0.950 . S
H4342 C4372 0.950 . S
H4343 C4373 0.950 . S
C4344 H4326 0.951 . S
C4344 C4345 1.366 . S
C4344 C4346 1.388 . S
C4345 C4344 1.366 . S
C4345 C4349 1.385 . S
C4346 H4327 0.951 . S
C4346 C4344 1.388 . S
C4346 C4347 1.366 . S
C4347 C4346 1.366 . S
C4347 C4348 1.414 . S
C4347 C4350 1.499 . S
C4348 H4328 0.950 . S
C4348 C4347 1.414 . S
C4348 C4349 1.374 . S
C4349 H4329 0.950 . S
C4349 C4345 1.385 . S
C4349 C4348 1.374 . S
C4350 C4347 1.499 . S
C4350 C4351 1.373 . S
C4350 C4352 1.389 . S
C4351 H4330 0.950 . S
C4351 C4350 1.373 . S
C4351 C4367 1.377 . S
C4352 C4350 1.389 . S
C4352 C4353 1.524 . S
C4352 C4366 1.377 . S
C4353 C4352 1.524 . S
C4353 C4354 1.397 . S
C4353 C4358 1.363 . S
C4354 H4331 0.950 . S
C4354 C4353 1.397 . S
C4354 C4355 1.334 . S
C4355 H4332 0.950 . S
C4355 C4354 1.334 . S
C4355 C4356 1.287 . S
C4356 C4355 1.287 . S
C4356 C4357 1.524 . S
C4356 H4375 0.913 . S
C4357 H4333 0.950 . S
C4357 C4356 1.524 . S
C4357 C4358 1.415 . S
C4358 H4334 0.950 . S
C4358 C4353 1.363 . S
C4358 C4357 1.415 . S
C4359 H4335 0.982 . S
C4359 C4360 1.366 . S
C4359 C4361 1.388 . S
C4360 C4359 1.366 . S
C4360 C4364 1.386 . S
C4361 H4336 0.951 . S
C4361 C4359 1.388 . S
C4361 C4362 1.366 . S
C4362 C4361 1.366 . S
C4362 C4363 1.414 . S
C4362 C4365 1.499 . S
C4363 H4337 0.950 . S
C4363 C4362 1.414 . S
C4363 C4364 1.374 . S
C4364 H4338 0.950 . S
C4364 C4360 1.386 . S
C4364 C4363 1.374 . S
C4365 C4362 1.499 . S
C4365 C4366 1.373 . S
C4365 C4367 1.389 . S
C4366 H4339 0.950 . S
C4366 C4352 1.377 . S
C4366 C4365 1.373 . S
C4367 C4351 1.377 . S
C4367 C4365 1.389 . S
C4367 C4368 1.524 . S
C4368 C4367 1.524 . S
C4368 C4369 1.397 . S
C4368 C4373 1.363 1_554 S
C4369 H4340 0.950 . S
C4369 C4368 1.397 . S
C4369 C4370 1.334 . S
C4370 H4341 0.950 . S
C4370 C4369 1.334 . S
C4370 C4371 1.287 1_554 S
C4371 C4370 1.287 1_556 S
C4371 C4372 1.524 . S
C4371 H4374 0.999 . S
C4372 H4342 0.950 . S
C4372 C4371 1.524 . S
C4372 C4373 1.415 . S
C4373 H4343 0.950 . S
C4373 C4368 1.363 1_556 S
C4373 C4372 1.415 . S
H4374 C4371 0.999 . S
H4375 C4356 0.913 . S
H4376 C4394 0.951 . S
H4377 C4396 0.951 . S
H4378 C4398 0.950 . S
H4379 C4399 0.950 . S
H4380 C4401 0.950 . S
H4381 C4404 0.950 . S
H4382 C4405 0.950 . S
H4383 C4407 0.950 . S
H4384 C4408 0.950 . S
H4385 C4409 0.951 . S
H4386 C4411 0.951 . S
H4387 C4413 0.950 . S
H4388 C4414 0.950 . S
H4389 C4416 0.950 . S
H4390 C4419 0.950 . S
H4391 C4420 0.950 . S
H4392 C4422 0.950 . S
H4393 C4423 0.950 . S
C4394 H4376 0.951 . S
C4394 C4395 1.366 . S
C4394 C4396 1.388 . S
C4395 C4394 1.366 . S
C4395 C4399 1.385 . S
C4396 H4377 0.951 . S
C4396 C4394 1.388 . S
C4396 C4397 1.366 . S
C4397 C4396 1.366 . S
C4397 C4398 1.414 . S
C4397 C4400 1.499 . S
C4398 H4378 0.950 . S
C4398 C4397 1.414 . S
C4398 C4399 1.374 . S
C4399 H4379 0.950 . S
C4399 C4395 1.385 . S
C4399 C4398 1.374 . S
C4400 C4397 1.499 . S
C4400 C4401 1.373 . S
C4400 C4402 1.389 . S
C4401 H4380 0.950 . S
C4401 C4400 1.373 . S
C4401 C4417 1.377 . S
C4402 C4400 1.389 . S
C4402 C4403 1.524 . S
C4402 C4416 1.377 . S
C4403 C4402 1.524 . S
C4403 C4404 1.397 . S
C4403 C4408 1.363 . S
C4404 H4381 0.950 . S
C4404 C4403 1.397 . S
C4404 C4405 1.334 . S
C4405 H4382 0.950 . S
C4405 C4404 1.334 . S
C4405 C4406 1.287 . S
C4406 C4405 1.287 . S
C4406 C4407 1.524 . S
C4406 H4425 0.913 . S
C4407 H4383 0.950 . S
C4407 C4406 1.524 . S
C4407 C4408 1.415 . S
C4408 H4384 0.950 . S
C4408 C4403 1.363 . S
C4408 C4407 1.415 . S
C4409 H4385 0.951 . S
C4409 C4410 1.366 . S
C4409 C4411 1.388 . S
C4410 C4409 1.366 . S
C4410 C4414 1.385 . S
C4411 H4386 0.951 . S
C4411 C4409 1.388 . S
C4411 C4412 1.366 . S
C4412 C4411 1.366 . S
C4412 C4413 1.414 . S
C4412 C4415 1.499 . S
C4413 H4387 0.950 . S
C4413 C4412 1.414 . S
C4413 C4414 1.374 . S
C4414 H4388 0.950 . S
C4414 C4410 1.385 . S
C4414 C4413 1.374 . S
C4415 C4412 1.499 . S
C4415 C4416 1.373 . S
C4415 C4417 1.389 . S
C4416 H4389 0.950 . S
C4416 C4402 1.377 . S
C4416 C4415 1.373 . S
C4417 C4401 1.377 . S
C4417 C4415 1.389 . S
C4417 C4418 1.524 . S
C4418 C4417 1.524 . S
C4418 C4419 1.397 . S
C4418 C4423 1.363 . S
C4419 H4390 0.950 . S
C4419 C4418 1.397 . S
C4419 C4420 1.334 . S
C4420 H4391 0.950 . S
C4420 C4419 1.334 . S
C4420 C4421 1.287 . S
C4421 C4420 1.287 . S
C4421 C4422 1.524 . S
C4421 H4424 0.999 . S
C4422 H4392 0.950 . S
C4422 C4421 1.524 . S
C4422 C4423 1.415 . S
C4423 H4393 0.950 . S
C4423 C4418 1.363 . S
C4423 C4422 1.415 . S
H4424 C4421 0.999 . S
H4425 C4406 0.913 . S
H4426 C4444 0.951 . S
H4427 C4446 0.951 . S
H4428 C4448 0.950 . S
H4429 C4449 0.950 . S
H4430 C4451 0.950 . S
H4431 C4454 0.950 . S
H4432 C4455 0.950 . S
H4433 C4457 0.950 . S
H4434 C4458 0.950 . S
H4435 C4459 0.951 . S
H4436 C4461 0.951 . S
H4437 C4463 0.950 . S
H4438 C4464 0.950 . S
H4439 C4466 0.950 . S
H4440 C4469 0.950 . S
H4441 C4470 0.950 1_556 S
H4442 C4472 0.950 . S
H4443 C4473 0.950 . S
C4444 H4426 0.951 . S
C4444 C4445 1.366 . S
C4444 C4446 1.388 . S
C4445 C4444 1.366 . S
C4445 C4449 1.385 . S
C4446 H4427 0.951 . S
C4446 C4444 1.388 . S
C4446 C4447 1.366 . S
C4447 C4446 1.366 . S
C4447 C4448 1.414 . S
C4447 C4450 1.499 . S
C4448 H4428 0.950 . S
C4448 C4447 1.414 . S
C4448 C4449 1.374 . S
C4449 H4429 0.950 . S
C4449 C4445 1.385 . S
C4449 C4448 1.374 . S
C4450 C4447 1.499 . S
C4450 C4451 1.373 . S
C4450 C4452 1.389 . S
C4451 H4430 0.950 . S
C4451 C4450 1.373 . S
C4451 C4467 1.377 . S
C4452 C4450 1.389 . S
C4452 C4453 1.524 . S
C4452 C4466 1.377 . S
C4453 C4452 1.524 . S
C4453 C4454 1.397 . S
C4453 C4458 1.363 . S
C4454 H4431 0.950 . S
C4454 C4453 1.397 . S
C4454 C4455 1.334 . S
C4455 H4432 0.950 . S
C4455 C4454 1.334 . S
C4455 C4456 1.287 . S
C4456 C4455 1.287 . S
C4456 C4457 1.524 . S
C4456 H4475 0.913 . S
C4457 H4433 0.950 . S
C4457 C4456 1.524 . S
C4457 C4458 1.415 . S
C4458 H4434 0.950 . S
C4458 C4453 1.363 . S
C4458 C4457 1.415 . S
C4459 H4435 0.951 . S
C4459 C4460 1.366 . S
C4459 C4461 1.388 . S
C4460 C4459 1.366 . S
C4460 C4464 1.385 . S
C4461 H4436 0.951 . S
C4461 C4459 1.388 . S
C4461 C4462 1.366 . S
C4462 C4461 1.366 . S
C4462 C4463 1.414 . S
C4462 C4465 1.499 . S
C4463 H4437 0.950 . S
C4463 C4462 1.414 . S
C4463 C4464 1.374 . S
C4464 H4438 0.950 . S
C4464 C4460 1.385 . S
C4464 C4463 1.374 . S
C4465 C4462 1.499 . S
C4465 C4466 1.373 . S
C4465 C4467 1.389 . S
C4466 H4439 0.950 . S
C4466 C4452 1.377 . S
C4466 C4465 1.373 . S
C4467 C4451 1.377 . S
C4467 C4465 1.389 . S
C4467 C4468 1.524 . S
C4468 C4467 1.524 . S
C4468 C4469 1.397 . S
C4468 C4473 1.363 . S
C4469 H4440 0.950 . S
C4469 C4468 1.397 . S
C4469 C4470 1.334 . S
C4470 H4441 0.950 1_554 S
C4470 C4469 1.334 . S
C4470 C4471 1.287 . S
C4471 C4470 1.287 . S
C4471 C4472 1.524 . S
C4471 H4474 0.970 1_655 S
C4472 H4442 0.950 . S
C4472 C4471 1.524 . S
C4472 C4473 1.415 . S
C4473 H4443 0.950 . S
C4473 C4468 1.363 . S
C4473 C4472 1.415 . S
H4474 C4471 0.970 1_455 S
H4475 C4456 0.913 . S
H4476 C4494 0.951 . S
H4477 C4496 0.951 . S
H4478 C4498 0.950 . S
H4479 C4499 0.950 . S
H4480 C4501 0.950 . S
H4481 C4504 0.950 . S
H4482 C4505 0.950 . S
H4483 C4507 0.950 . S
H4484 C4508 0.950 . S
H4485 C4509 0.951 . S
H4486 C4511 0.951 . S
H4487 C4513 0.950 . S
H4488 C4514 0.950 . S
H4489 C4516 0.950 . S
H4490 C4519 0.950 . S
H4491 C4520 0.950 . S
H4492 C4522 0.950 . S
H4493 C4523 0.950 . S
C4494 H4476 0.951 . S
C4494 C4495 1.366 . S
C4494 C4496 1.388 . S
C4495 C4494 1.366 . S
C4495 C4499 1.385 . S
C4496 H4477 0.951 . S
C4496 C4494 1.388 . S
C4496 C4497 1.366 . S
C4497 C4496 1.366 . S
C4497 C4498 1.414 . S
C4497 C4500 1.499 . S
C4498 H4478 0.950 . S
C4498 C4497 1.414 . S
C4498 C4499 1.374 . S
C4499 H4479 0.950 . S
C4499 C4495 1.385 . S
C4499 C4498 1.374 . S
C4500 C4497 1.499 . S
C4500 C4501 1.373 . S
C4500 C4502 1.389 . S
C4501 H4480 0.950 . S
C4501 C4500 1.373 . S
C4501 C4517 1.377 . S
C4502 C4500 1.389 . S
C4502 C4503 1.524 . S
C4502 C4516 1.377 . S
C4503 C4502 1.524 . S
C4503 C4504 1.397 . S
C4503 C4508 1.363 . S
C4504 H4481 0.950 . S
C4504 C4503 1.397 . S
C4504 C4505 1.334 . S
C4505 H4482 0.950 . S
C4505 C4504 1.334 . S
C4505 C4506 1.287 . S
C4506 C4505 1.287 . S
C4506 C4507 1.524 . S
C4506 H4525 0.913 . S
C4507 H4483 0.950 . S
C4507 C4506 1.524 . S
C4507 C4508 1.415 . S
C4508 H4484 0.950 . S
C4508 C4503 1.363 . S
C4508 C4507 1.415 . S
C4509 H4485 0.951 . S
C4509 C4510 1.366 . S
C4509 C4511 1.388 . S
C4510 C4509 1.366 . S
C4510 C4514 1.385 . S
C4511 H4486 0.951 . S
C4511 C4509 1.388 . S
C4511 C4512 1.366 . S
C4512 C4511 1.366 . S
C4512 C4513 1.414 . S
C4512 C4515 1.499 . S
C4513 H4487 0.950 . S
C4513 C4512 1.414 . S
C4513 C4514 1.374 . S
C4514 H4488 0.950 . S
C4514 C4510 1.385 . S
C4514 C4513 1.374 . S
C4515 C4512 1.499 . S
C4515 C4516 1.373 . S
C4515 C4517 1.389 . S
C4516 H4489 0.950 . S
C4516 C4502 1.377 . S
C4516 C4515 1.373 . S
C4517 C4501 1.377 . S
C4517 C4515 1.389 . S
C4517 C4518 1.524 . S
C4518 C4517 1.524 . S
C4518 C4519 1.397 . S
C4518 C4523 1.363 . S
C4519 H4490 0.950 . S
C4519 C4518 1.397 . S
C4519 C4520 1.334 . S
C4520 H4491 0.950 . S
C4520 C4519 1.334 . S
C4520 C4521 1.287 . S
C4521 C4520 1.287 . S
C4521 C4522 1.524 . S
C4521 H4524 0.999 . S
C4522 H4492 0.950 . S
C4522 C4521 1.524 . S
C4522 C4523 1.415 . S
C4523 H4493 0.950 . S
C4523 C4518 1.363 . S
C4523 C4522 1.415 . S
H4524 C4521 0.999 . S
H4525 C4506 0.913 . S
H4526 C4544 0.951 . S
H4527 C4546 0.951 . S
H4528 C4548 0.950 . S
H4529 C4549 0.950 . S
H4530 C4551 0.950 . S
H4531 C4554 0.950 . S
H4532 C4555 0.950 . S
H4533 C4557 0.950 . S
H4534 C4558 0.950 . S
H4535 C4559 0.951 . S
H4536 C4561 0.951 . S
H4537 C4563 0.950 . S
H4538 C4564 0.950 . S
H4539 C4566 0.950 . S
H4540 C4569 0.950 . S
H4541 C4570 0.950 . S
H4542 C4572 0.950 . S
H4543 C4573 0.950 . S
C4544 H4526 0.951 . S
C4544 C4545 1.366 . S
C4544 C4546 1.388 1_545 S
C4545 C4544 1.366 . S
C4545 C4549 1.385 1_545 S
C4546 H4527 0.951 . S
C4546 C4544 1.388 1_565 S
C4546 C4547 1.366 . S
C4547 C4546 1.366 . S
C4547 C4548 1.414 . S
C4547 C4550 1.499 . S
C4548 H4528 0.950 . S
C4548 C4547 1.414 . S
C4548 C4549 1.374 . S
C4549 H4529 0.950 . S
C4549 C4545 1.385 1_565 S
C4549 C4548 1.374 . S
C4550 C4547 1.499 . S
C4550 C4551 1.373 . S
C4550 C4552 1.389 . S
C4551 H4530 0.950 . S
C4551 C4550 1.373 . S
C4551 C4567 1.377 . S
C4552 C4550 1.389 . S
C4552 C4553 1.524 . S
C4552 C4566 1.377 . S
C4553 C4552 1.524 . S
C4553 C4554 1.397 . S
C4553 C4558 1.363 . S
C4554 H4531 0.950 . S
C4554 C4553 1.397 . S
C4554 C4555 1.334 . S
C4555 H4532 0.950 . S
C4555 C4554 1.334 . S
C4555 C4556 1.287 . S
C4556 C4555 1.287 . S
C4556 C4557 1.524 . S
C4556 H4575 0.913 . S
C4557 H4533 0.950 . S
C4557 C4556 1.524 . S
C4557 C4558 1.415 . S
C4558 H4534 0.950 . S
C4558 C4553 1.363 . S
C4558 C4557 1.415 . S
C4559 H4535 0.951 . S
C4559 C4560 1.366 . S
C4559 C4561 1.388 . S
C4560 C4559 1.366 . S
C4560 C4564 1.385 . S
C4561 H4536 0.951 . S
C4561 C4559 1.388 . S
C4561 C4562 1.366 . S
C4562 C4561 1.366 . S
C4562 C4563 1.414 . S
C4562 C4565 1.499 . S
C4563 H4537 0.950 . S
C4563 C4562 1.414 . S
C4563 C4564 1.374 . S
C4564 H4538 0.950 . S
C4564 C4560 1.385 . S
C4564 C4563 1.374 . S
C4565 C4562 1.499 . S
C4565 C4566 1.373 . S
C4565 C4567 1.389 . S
C4566 H4539 0.950 . S
C4566 C4552 1.377 . S
C4566 C4565 1.373 . S
C4567 C4551 1.377 . S
C4567 C4565 1.389 . S
C4567 C4568 1.524 . S
C4568 C4567 1.524 . S
C4568 C4569 1.397 . S
C4568 C4573 1.363 . S
C4569 H4540 0.950 . S
C4569 C4568 1.397 . S
C4569 C4570 1.334 . S
C4570 H4541 0.950 . S
C4570 C4569 1.334 . S
C4570 C4571 1.287 . S
C4571 C4570 1.287 . S
C4571 C4572 1.524 . S
C4571 H4574 0.999 . S
C4572 H4542 0.950 . S
C4572 C4571 1.524 . S
C4572 C4573 1.415 . S
C4573 H4543 0.950 . S
C4573 C4568 1.363 . S
C4573 C4572 1.415 . S
H4574 C4571 0.999 . S
H4575 C4556 0.913 . S
H4576 C4594 0.951 . S
H4577 C4596 0.951 . S
H4578 C4598 0.950 . S
H4579 C4599 0.950 . S
H4580 C4601 0.950 . S
H4581 C4604 0.950 . S
H4582 C4605 0.950 . S
H4583 C4607 0.950 . S
H4584 C4608 0.950 . S
H4585 C4609 0.951 . S
H4586 C4611 0.951 . S
H4587 C4613 0.950 . S
H4588 C4614 0.950 . S
H4589 C4616 0.950 . S
H4590 C4619 0.950 . S
H4591 C4620 0.950 . S
H4592 C4622 0.950 . S
H4593 C4623 0.950 . S
C4594 H4576 0.951 . S
C4594 C4595 1.366 . S
C4594 C4596 1.388 . S
C4595 C4594 1.366 . S
C4595 C4599 1.385 . S
C4596 H4577 0.951 . S
C4596 C4594 1.388 . S
C4596 C4597 1.366 . S
C4597 C4596 1.366 . S
C4597 C4598 1.414 . S
C4597 C4600 1.499 . S
C4598 H4578 0.950 . S
C4598 C4597 1.414 . S
C4598 C4599 1.374 . S
C4599 H4579 0.950 . S
C4599 C4595 1.385 . S
C4599 C4598 1.374 . S
C4600 C4597 1.499 . S
C4600 C4601 1.373 . S
C4600 C4602 1.389 . S
C4601 H4580 0.950 . S
C4601 C4600 1.373 . S
C4601 C4617 1.377 . S
C4602 C4600 1.389 . S
C4602 C4603 1.524 . S
C4602 C4616 1.377 . S
C4603 C4602 1.524 . S
C4603 C4604 1.397 . S
C4603 C4608 1.363 . S
C4604 H4581 0.950 . S
C4604 C4603 1.397 . S
C4604 C4605 1.334 . S
C4605 H4582 0.950 . S
C4605 C4604 1.334 . S
C4605 C4606 1.287 . S
C4606 C4605 1.287 . S
C4606 C4607 1.524 . S
C4606 H4625 0.913 . S
C4607 H4583 0.950 . S
C4607 C4606 1.524 . S
C4607 C4608 1.415 . S
C4608 H4584 0.950 . S
C4608 C4603 1.363 . S
C4608 C4607 1.415 . S
C4609 H4585 0.951 . S
C4609 C4610 1.366 . S
C4609 C4611 1.388 . S
C4610 C4609 1.366 . S
C4610 C4614 1.385 . S
C4611 H4586 0.951 . S
C4611 C4609 1.388 . S
C4611 C4612 1.366 . S
C4612 C4611 1.366 . S
C4612 C4613 1.414 . S
C4612 C4615 1.499 . S
C4613 H4587 0.950 . S
C4613 C4612 1.414 . S
C4613 C4614 1.374 . S
C4614 H4588 0.950 . S
C4614 C4610 1.385 . S
C4614 C4613 1.374 . S
C4615 C4612 1.499 . S
C4615 C4616 1.373 . S
C4615 C4617 1.389 . S
C4616 H4589 0.950 . S
C4616 C4602 1.377 . S
C4616 C4615 1.373 . S
C4617 C4601 1.377 . S
C4617 C4615 1.389 . S
C4617 C4618 1.524 . S
C4618 C4617 1.524 . S
C4618 C4619 1.397 . S
C4618 C4623 1.363 . S
C4619 H4590 0.950 . S
C4619 C4618 1.397 . S
C4619 C4620 1.334 . S
C4620 H4591 0.950 . S
C4620 C4619 1.334 . S
C4620 C4621 1.287 . S
C4621 C4620 1.287 . S
C4621 C4622 1.524 . S
C4621 H4624 0.999 . S
C4622 H4592 0.950 . S
C4622 C4621 1.524 . S
C4622 C4623 1.415 . S
C4623 H4593 0.950 . S
C4623 C4618 1.363 . S
C4623 C4622 1.415 . S
H4624 C4621 0.999 . S
H4625 C4606 0.913 . S
H4626 C4644 0.951 . S
H4627 C4646 0.951 . S
H4628 C4648 0.950 . S
H4629 C4649 0.950 . S
H4630 C4651 0.950 . S
H4631 C4654 0.950 . S
H4632 C4655 0.950 . S
H4633 C4657 0.950 . S
H4634 C4658 0.950 . S
H4635 C4659 0.951 . S
H4636 C4661 0.951 . S
H4637 C4663 0.950 . S
H4638 C4664 0.950 . S
H4639 C4666 0.950 . S
H4640 C4669 0.950 . S
H4641 C4670 0.950 . S
H4642 C4672 0.950 . S
H4643 C4673 0.950 . S
C4644 H4626 0.951 . S
C4644 C4645 1.366 . S
C4644 C4646 1.388 . S
C4645 C4644 1.366 . S
C4645 C4649 1.385 . S
C4646 H4627 0.951 . S
C4646 C4644 1.388 . S
C4646 C4647 1.366 . S
C4647 C4646 1.366 . S
C4647 C4648 1.414 . S
C4647 C4650 1.499 . S
C4648 H4628 0.950 . S
C4648 C4647 1.414 . S
C4648 C4649 1.374 . S
C4649 H4629 0.950 . S
C4649 C4645 1.385 . S
C4649 C4648 1.374 . S
C4650 C4647 1.499 . S
C4650 C4651 1.373 . S
C4650 C4652 1.389 . S
C4651 H4630 0.950 . S
C4651 C4650 1.373 . S
C4651 C4667 1.377 . S
C4652 C4650 1.389 . S
C4652 C4653 1.524 . S
C4652 C4666 1.377 . S
C4653 C4652 1.524 . S
C4653 C4654 1.397 . S
C4653 C4658 1.363 . S
C4654 H4631 0.950 . S
C4654 C4653 1.397 . S
C4654 C4655 1.334 . S
C4655 H4632 0.950 . S
C4655 C4654 1.334 . S
C4655 C4656 1.287 . S
C4656 C4655 1.287 . S
C4656 C4657 1.524 . S
C4656 H4675 0.913 . S
C4657 H4633 0.950 . S
C4657 C4656 1.524 . S
C4657 C4658 1.415 . S
C4658 H4634 0.950 . S
C4658 C4653 1.363 . S
C4658 C4657 1.415 . S
C4659 H4635 0.951 . S
C4659 C4660 1.366 . S
C4659 C4661 1.388 . S
C4660 C4659 1.366 . S
C4660 C4664 1.385 . S
C4661 H4636 0.951 . S
C4661 C4659 1.388 . S
C4661 C4662 1.366 . S
C4662 C4661 1.366 . S
C4662 C4663 1.414 . S
C4662 C4665 1.499 . S
C4663 H4637 0.950 . S
C4663 C4662 1.414 . S
C4663 C4664 1.374 . S
C4664 H4638 0.950 . S
C4664 C4660 1.385 . S
C4664 C4663 1.374 . S
C4665 C4662 1.499 . S
C4665 C4666 1.373 . S
C4665 C4667 1.389 . S
C4666 H4639 0.950 . S
C4666 C4652 1.377 . S
C4666 C4665 1.373 . S
C4667 C4651 1.377 . S
C4667 C4665 1.389 . S
C4667 C4668 1.524 . S
C4668 C4667 1.524 . S
C4668 C4669 1.397 . S
C4668 C4673 1.363 . S
C4669 H4640 0.950 . S
C4669 C4668 1.397 . S
C4669 C4670 1.334 . S
C4670 H4641 0.950 . S
C4670 C4669 1.334 . S
C4670 C4671 1.287 . S
C4671 C4670 1.287 . S
C4671 C4672 1.524 . S
C4671 H4674 0.999 . S
C4672 H4642 0.950 . S
C4672 C4671 1.524 . S
C4672 C4673 1.415 . S
C4673 H4643 0.950 . S
C4673 C4668 1.363 . S
C4673 C4672 1.415 . S
H4674 C4671 0.999 . S
H4675 C4656 0.913 . S
H4676 C4694 0.951 . S
H4677 C4696 0.951 . S
H4678 C4698 0.950 . S
H4679 C4699 0.950 . S
H4680 C4701 0.950 . S
H4681 C4704 0.950 . S
H4682 C4705 0.950 . S
H4683 C4707 0.950 . S
H4684 C4708 0.950 . S
H4685 C4709 0.951 . S
H4686 C4711 0.951 . S
H4687 C4713 0.950 . S
H4688 C4714 0.950 . S
H4689 C4716 0.950 . S
H4690 C4719 0.950 . S
H4691 C4720 0.950 . S
H4692 C4722 0.950 . S
H4693 C4723 0.950 . S
C4694 H4676 0.951 . S
C4694 C4695 1.366 . S
C4694 C4696 1.388 . S
C4695 C4694 1.366 . S
C4695 C4699 1.385 . S
C4696 H4677 0.951 . S
C4696 C4694 1.388 . S
C4696 C4697 1.366 . S
C4697 C4696 1.366 . S
C4697 C4698 1.414 . S
C4697 C4700 1.499 . S
C4698 H4678 0.950 . S
C4698 C4697 1.414 . S
C4698 C4699 1.374 . S
C4699 H4679 0.950 . S
C4699 C4695 1.385 . S
C4699 C4698 1.374 . S
C4700 C4697 1.499 . S
C4700 C4701 1.373 . S
C4700 C4702 1.389 . S
C4701 H4680 0.950 . S
C4701 C4700 1.373 . S
C4701 C4717 1.377 . S
C4702 C4700 1.389 . S
C4702 C4703 1.524 . S
C4702 C4716 1.377 . S
C4703 C4702 1.524 . S
C4703 C4704 1.397 . S
C4703 C4708 1.363 . S
C4704 H4681 0.950 . S
C4704 C4703 1.397 . S
C4704 C4705 1.334 . S
C4705 H4682 0.950 . S
C4705 C4704 1.334 . S
C4705 C4706 1.287 . S
C4706 C4705 1.287 . S
C4706 C4707 1.524 . S
C4706 H4725 0.913 . S
C4707 H4683 0.950 . S
C4707 C4706 1.524 . S
C4707 C4708 1.415 . S
C4708 H4684 0.950 . S
C4708 C4703 1.363 . S
C4708 C4707 1.415 . S
C4709 H4685 0.951 . S
C4709 C4710 1.366 . S
C4709 C4711 1.388 . S
C4710 C4709 1.366 . S
C4710 C4714 1.385 . S
C4711 H4686 0.951 . S
C4711 C4709 1.388 . S
C4711 C4712 1.366 . S
C4712 C4711 1.366 . S
C4712 C4713 1.414 . S
C4712 C4715 1.499 . S
C4713 H4687 0.950 . S
C4713 C4712 1.414 . S
C4713 C4714 1.374 . S
C4714 H4688 0.950 . S
C4714 C4710 1.385 . S
C4714 C4713 1.374 . S
C4715 C4712 1.499 . S
C4715 C4716 1.373 . S
C4715 C4717 1.389 . S
C4716 H4689 0.950 . S
C4716 C4702 1.377 . S
C4716 C4715 1.373 . S
C4717 C4701 1.377 . S
C4717 C4715 1.389 . S
C4717 C4718 1.524 . S
C4718 C4717 1.524 . S
C4718 C4719 1.397 . S
C4718 C4723 1.363 . S
C4719 H4690 0.950 . S
C4719 C4718 1.397 . S
C4719 C4720 1.334 . S
C4720 H4691 0.950 . S
C4720 C4719 1.334 . S
C4720 C4721 1.287 1_455 S
C4721 C4720 1.287 1_655 S
C4721 C4722 1.524 . S
C4721 H4724 0.999 . S
C4722 H4692 0.950 . S
C4722 C4721 1.524 . S
C4722 C4723 1.415 1_655 S
C4723 H4693 0.950 . S
C4723 C4718 1.363 . S
C4723 C4722 1.415 1_455 S
H4724 C4721 0.999 . S
H4725 C4706 0.913 . S
H4726 C4744 0.951 . S
H4727 C4746 0.951 . S
H4728 C4748 0.950 . S
H4729 C4749 0.950 . S
H4730 C4751 0.950 . S
H4731 C4754 0.950 . S
H4732 C4755 0.950 . S
H4733 C4757 0.950 . S
H4734 C4758 0.950 . S
H4735 C4759 0.951 . S
H4736 C4761 0.951 . S
H4737 C4763 0.950 . S
H4738 C4764 0.950 . S
H4739 C4766 0.950 . S
H4740 C4769 0.950 . S
H4741 C4770 0.950 . S
H4742 C4772 0.950 . S
H4743 C4773 0.950 . S
C4744 H4726 0.951 . S
C4744 C4745 1.366 . S
C4744 C4746 1.388 . S
C4745 C4744 1.366 . S
C4745 C4749 1.385 . S
C4746 H4727 0.951 . S
C4746 C4744 1.388 . S
C4746 C4747 1.366 . S
C4747 C4746 1.366 . S
C4747 C4748 1.414 . S
C4747 C4750 1.499 . S
C4748 H4728 0.950 . S
C4748 C4747 1.414 . S
C4748 C4749 1.374 . S
C4749 H4729 0.950 . S
C4749 C4745 1.385 . S
C4749 C4748 1.374 . S
C4750 C4747 1.499 . S
C4750 C4751 1.373 . S
C4750 C4752 1.389 . S
C4751 H4730 0.950 . S
C4751 C4750 1.373 . S
C4751 C4767 1.377 . S
C4752 C4750 1.389 . S
C4752 C4753 1.524 . S
C4752 C4766 1.377 . S
C4753 C4752 1.524 . S
C4753 C4754 1.397 . S
C4753 C4758 1.363 . S
C4754 H4731 0.950 . S
C4754 C4753 1.397 . S
C4754 C4755 1.334 . S
C4755 H4732 0.950 . S
C4755 C4754 1.334 . S
C4755 C4756 1.287 . S
C4756 C4755 1.287 . S
C4756 C4757 1.524 . S
C4756 H4775 0.913 . S
C4757 H4733 0.950 . S
C4757 C4756 1.524 . S
C4757 C4758 1.415 . S
C4758 H4734 0.950 . S
C4758 C4753 1.363 . S
C4758 C4757 1.415 . S
C4759 H4735 0.951 . S
C4759 C4760 1.366 . S
C4759 C4761 1.388 . S
C4760 C4759 1.366 . S
C4760 C4764 1.385 . S
C4761 H4736 0.951 . S
C4761 C4759 1.388 . S
C4761 C4762 1.366 . S
C4762 C4761 1.366 . S
C4762 C4763 1.414 . S
C4762 C4765 1.499 . S
C4763 H4737 0.950 . S
C4763 C4762 1.414 . S
C4763 C4764 1.374 . S
C4764 H4738 0.950 . S
C4764 C4760 1.385 . S
C4764 C4763 1.374 . S
C4765 C4762 1.499 . S
C4765 C4766 1.373 . S
C4765 C4767 1.389 . S
C4766 H4739 0.950 . S
C4766 C4752 1.377 . S
C4766 C4765 1.373 . S
C4767 C4751 1.377 . S
C4767 C4765 1.389 . S
C4767 C4768 1.524 . S
C4768 C4767 1.524 . S
C4768 C4769 1.397 . S
C4768 C4773 1.363 . S
C4769 H4740 0.950 . S
C4769 C4768 1.397 . S
C4769 C4770 1.334 . S
C4770 H4741 0.950 . S
C4770 C4769 1.334 . S
C4770 C4771 1.287 . S
C4771 C4770 1.287 . S
C4771 C4772 1.524 . S
C4771 H4774 0.999 . S
C4772 H4742 0.950 . S
C4772 C4771 1.524 . S
C4772 C4773 1.415 . S
C4773 H4743 0.950 . S
C4773 C4768 1.363 . S
C4773 C4772 1.415 . S
H4774 C4771 0.999 . S
H4775 C4756 0.913 . S
H4776 C4794 0.951 . S
H4777 C4796 0.951 . S
H4778 C4798 0.950 . S
H4779 C4799 0.950 . S
H4780 C4801 0.950 . S
H4781 C4804 0.950 . S
H4782 C4805 0.950 . S
H4783 C4807 0.950 . S
H4784 C4808 0.950 . S
H4785 C4809 0.951 1_554 S
H4786 C4811 0.951 . S
H4787 C4813 0.950 . S
H4788 C4814 0.950 . S
H4789 C4816 0.950 . S
H4790 C4819 0.950 . S
H4791 C4820 0.950 . S
H4792 C4822 0.950 . S
H4793 C4823 0.950 . S
C4794 H4776 0.951 . S
C4794 C4795 1.366 . S
C4794 C4796 1.388 . S
C4795 C4794 1.366 . S
C4795 C4799 1.385 . S
C4796 H4777 0.951 . S
C4796 C4794 1.388 . S
C4796 C4797 1.366 . S
C4797 C4796 1.366 . S
C4797 C4798 1.414 . S
C4797 C4800 1.499 . S
C4798 H4778 0.950 . S
C4798 C4797 1.414 . S
C4798 C4799 1.374 . S
C4799 H4779 0.950 . S
C4799 C4795 1.385 . S
C4799 C4798 1.374 . S
C4800 C4797 1.499 . S
C4800 C4801 1.373 . S
C4800 C4802 1.389 . S
C4801 H4780 0.950 . S
C4801 C4800 1.373 . S
C4801 C4817 1.377 . S
C4802 C4800 1.389 . S
C4802 C4803 1.524 . S
C4802 C4816 1.377 . S
C4803 C4802 1.524 . S
C4803 C4804 1.397 . S
C4803 C4808 1.363 . S
C4804 H4781 0.950 . S
C4804 C4803 1.397 . S
C4804 C4805 1.334 . S
C4805 H4782 0.950 . S
C4805 C4804 1.334 . S
C4805 C4806 1.287 . S
C4806 C4805 1.287 . S
C4806 C4807 1.524 . S
C4806 H4825 0.913 . S
C4807 H4783 0.950 . S
C4807 C4806 1.524 . S
C4807 C4808 1.415 . S
C4808 H4784 0.950 . S
C4808 C4803 1.363 . S
C4808 C4807 1.415 . S
C4809 H4785 0.951 1_556 S
C4809 C4810 1.366 . S
C4809 C4811 1.388 . S
C4810 C4809 1.366 . S
C4810 C4814 1.385 . S
C4811 H4786 0.951 . S
C4811 C4809 1.388 . S
C4811 C4812 1.366 . S
C4812 C4811 1.366 . S
C4812 C4813 1.414 . S
C4812 C4815 1.499 . S
C4813 H4787 0.950 . S
C4813 C4812 1.414 . S
C4813 C4814 1.374 . S
C4814 H4788 0.950 . S
C4814 C4810 1.385 . S
C4814 C4813 1.374 . S
C4815 C4812 1.499 . S
C4815 C4816 1.373 . S
C4815 C4817 1.389 . S
C4816 H4789 0.950 . S
C4816 C4802 1.377 . S
C4816 C4815 1.373 . S
C4817 C4801 1.377 . S
C4817 C4815 1.389 . S
C4817 C4818 1.524 . S
C4818 C4817 1.524 . S
C4818 C4819 1.397 . S
C4818 C4823 1.363 . S
C4819 H4790 0.950 . S
C4819 C4818 1.397 . S
C4819 C4820 1.334 . S
C4820 H4791 0.950 . S
C4820 C4819 1.334 . S
C4820 C4821 1.287 . S
C4821 C4820 1.287 . S
C4821 C4822 1.524 . S
C4821 H4824 0.999 . S
C4822 H4792 0.950 . S
C4822 C4821 1.524 . S
C4822 C4823 1.415 . S
C4823 H4793 0.950 . S
C4823 C4818 1.363 . S
C4823 C4822 1.415 . S
H4824 C4821 0.999 . S
H4825 C4806 0.913 . S
H4826 C4844 0.951 . S
H4827 C4846 0.951 . S
H4828 C4848 0.950 . S
H4829 C4849 0.950 . S
H4830 C4851 0.950 . S
H4831 C4854 0.950 . S
H4832 C4855 0.950 . S
H4833 C4857 0.950 . S
H4834 C4858 0.950 . S
H4835 C4859 0.951 . S
H4836 C4861 0.951 . S
H4837 C4863 0.950 . S
H4838 C4864 0.950 . S
H4839 C4866 0.950 . S
H4840 C4869 0.950 . S
H4841 C4870 0.950 . S
H4842 C4872 0.950 . S
H4843 C4873 0.950 . S
C4844 H4826 0.951 . S
C4844 C4845 1.366 . S
C4844 C4846 1.388 . S
C4845 C4844 1.366 . S
C4845 C4849 1.385 . S
C4846 H4827 0.951 . S
C4846 C4844 1.388 . S
C4846 C4847 1.366 . S
C4847 C4846 1.366 . S
C4847 C4848 1.414 . S
C4847 C4850 1.499 . S
C4848 H4828 0.950 . S
C4848 C4847 1.414 . S
C4848 C4849 1.374 . S
C4849 H4829 0.950 . S
C4849 C4845 1.385 . S
C4849 C4848 1.374 . S
C4850 C4847 1.499 . S
C4850 C4851 1.373 . S
C4850 C4852 1.389 . S
C4851 H4830 0.950 . S
C4851 C4850 1.373 . S
C4851 C4867 1.377 . S
C4852 C4850 1.389 . S
C4852 C4853 1.524 . S
C4852 C4866 1.377 . S
C4853 C4852 1.524 . S
C4853 C4854 1.397 . S
C4853 C4858 1.363 . S
C4854 H4831 0.950 . S
C4854 C4853 1.397 . S
C4854 C4855 1.334 . S
C4855 H4832 0.950 . S
C4855 C4854 1.334 . S
C4855 C4856 1.287 . S
C4856 C4855 1.287 . S
C4856 C4857 1.524 . S
C4856 H4875 0.913 . S
C4857 H4833 0.950 . S
C4857 C4856 1.524 . S
C4857 C4858 1.415 . S
C4858 H4834 0.950 . S
C4858 C4853 1.363 . S
C4858 C4857 1.415 . S
C4859 H4835 0.951 . S
C4859 C4860 1.366 . S
C4859 C4861 1.388 . S
C4860 C4859 1.366 . S
C4860 C4864 1.385 . S
C4861 H4836 0.951 . S
C4861 C4859 1.388 . S
C4861 C4862 1.366 . S
C4862 C4861 1.366 . S
C4862 C4863 1.414 . S
C4862 C4865 1.499 . S
C4863 H4837 0.950 . S
C4863 C4862 1.414 . S
C4863 C4864 1.374 . S
C4864 H4838 0.950 . S
C4864 C4860 1.385 . S
C4864 C4863 1.374 . S
C4865 C4862 1.499 . S
C4865 C4866 1.373 . S
C4865 C4867 1.389 . S
C4866 H4839 0.950 . S
C4866 C4852 1.377 . S
C4866 C4865 1.373 . S
C4867 C4851 1.377 . S
C4867 C4865 1.389 . S
C4867 C4868 1.524 . S
C4868 C4867 1.524 . S
C4868 C4869 1.397 . S
C4868 C4873 1.363 . S
C4869 H4840 0.950 . S
C4869 C4868 1.397 . S
C4869 C4870 1.334 . S
C4870 H4841 0.950 . S
C4870 C4869 1.334 . S
C4870 C4871 1.287 . S
C4871 C4870 1.287 . S
C4871 C4872 1.524 . S
C4871 H4874 0.999 . S
C4872 H4842 0.950 . S
C4872 C4871 1.524 . S
C4872 C4873 1.415 . S
C4873 H4843 0.950 . S
C4873 C4868 1.363 . S
C4873 C4872 1.415 . S
H4874 C4871 0.999 . S
H4875 C4856 0.913 . S
H4876 C4894 0.951 . S
H4877 C4896 0.951 . S
H4878 C4898 0.950 . S
H4879 C4899 0.950 . S
H4880 C4901 0.950 . S
H4881 C4904 0.950 . S
H4882 C4905 0.950 . S
H4883 C4907 0.950 . S
H4884 C4908 0.950 . S
H4885 C4909 0.951 . S
H4886 C4911 0.951 . S
H4887 C4913 0.950 . S
H4888 C4914 0.950 . S
H4889 C4916 0.950 . S
H4890 C4919 0.950 . S
H4891 C4920 0.950 1_655 S
H4892 C4922 0.950 . S
H4893 C4923 0.950 . S
C4894 H4876 0.951 . S
C4894 C4895 1.366 . S
C4894 C4896 1.388 . S
C4895 C4894 1.366 . S
C4895 C4899 1.385 . S
C4896 H4877 0.951 . S
C4896 C4894 1.388 . S
C4896 C4897 1.366 . S
C4897 C4896 1.366 . S
C4897 C4898 1.414 . S
C4897 C4900 1.499 . S
C4898 H4878 0.950 . S
C4898 C4897 1.414 . S
C4898 C4899 1.374 . S
C4899 H4879 0.950 . S
C4899 C4895 1.385 . S
C4899 C4898 1.374 . S
C4900 C4897 1.499 . S
C4900 C4901 1.373 . S
C4900 C4902 1.389 . S
C4901 H4880 0.950 . S
C4901 C4900 1.373 . S
C4901 C4917 1.377 . S
C4902 C4900 1.389 . S
C4902 C4903 1.524 . S
C4902 C4916 1.377 . S
C4903 C4902 1.524 . S
C4903 C4904 1.397 . S
C4903 C4908 1.363 . S
C4904 H4881 0.950 . S
C4904 C4903 1.397 . S
C4904 C4905 1.334 . S
C4905 H4882 0.950 . S
C4905 C4904 1.334 . S
C4905 C4906 1.287 . S
C4906 C4905 1.287 . S
C4906 C4907 1.524 . S
C4906 H4925 0.913 . S
C4907 H4883 0.950 . S
C4907 C4906 1.524 . S
C4907 C4908 1.415 . S
C4908 H4884 0.950 . S
C4908 C4903 1.363 . S
C4908 C4907 1.415 . S
C4909 H4885 0.951 . S
C4909 C4910 1.366 . S
C4909 C4911 1.388 . S
C4910 C4909 1.366 . S
C4910 C4914 1.385 . S
C4911 H4886 0.951 . S
C4911 C4909 1.388 . S
C4911 C4912 1.366 . S
C4912 C4911 1.366 . S
C4912 C4913 1.414 . S
C4912 C4915 1.499 . S
C4913 H4887 0.950 . S
C4913 C4912 1.414 . S
C4913 C4914 1.374 . S
C4914 H4888 0.950 . S
C4914 C4910 1.385 . S
C4914 C4913 1.374 . S
C4915 C4912 1.499 . S
C4915 C4916 1.373 . S
C4915 C4917 1.389 . S
C4916 H4889 0.950 . S
C4916 C4902 1.377 . S
C4916 C4915 1.373 . S
C4917 C4901 1.377 . S
C4917 C4915 1.389 . S
C4917 C4918 1.524 . S
C4918 C4917 1.524 . S
C4918 C4919 1.397 . S
C4918 C4923 1.363 . S
C4919 H4890 0.950 . S
C4919 C4918 1.397 . S
C4919 C4920 1.334 . S
C4920 H4891 0.950 1_455 S
C4920 C4919 1.334 . S
C4920 C4921 1.287 . S
C4921 C4920 1.287 . S
C4921 C4922 1.524 . S
C4921 H4924 0.999 . S
C4922 H4892 0.950 . S
C4922 C4921 1.524 . S
C4922 C4923 1.415 . S
C4923 H4893 0.950 . S
C4923 C4918 1.363 . S
C4923 C4922 1.415 . S
H4924 C4921 0.999 . S
H4925 C4906 0.913 . S
H4926 C4944 0.951 . S
H4927 C4946 0.951 . S
H4928 C4948 0.950 . S
H4929 C4949 0.950 . S
H4930 C4951 0.950 . S
H4931 C4954 0.950 . S
H4932 C4955 0.950 . S
H4933 C4957 0.950 . S
H4934 C4958 0.950 . S
H4935 C4959 0.951 . S
H4936 C4961 0.951 . S
H4937 C4963 0.950 . S
H4938 C4964 0.950 . S
H4939 C4966 0.950 . S
H4940 C4969 0.950 . S
H4941 C4970 0.950 . S
H4942 C4972 0.950 . S
H4943 C4973 0.950 . S
C4944 H4926 0.951 . S
C4944 C4945 1.366 . S
C4944 C4946 1.388 . S
C4945 C4944 1.366 . S
C4945 C4949 1.385 . S
C4946 H4927 0.951 . S
C4946 C4944 1.388 . S
C4946 C4947 1.366 . S
C4947 C4946 1.366 . S
C4947 C4948 1.414 . S
C4947 C4950 1.499 . S
C4948 H4928 0.950 . S
C4948 C4947 1.414 . S
C4948 C4949 1.374 . S
C4949 H4929 0.950 . S
C4949 C4945 1.385 . S
C4949 C4948 1.374 . S
C4950 C4947 1.499 . S
C4950 C4951 1.373 . S
C4950 C4952 1.389 . S
C4951 H4930 0.950 . S
C4951 C4950 1.373 . S
C4951 C4967 1.377 . S
C4952 C4950 1.389 . S
C4952 C4953 1.524 . S
C4952 C4966 1.377 . S
C4953 C4952 1.524 . S
C4953 C4954 1.397 . S
C4953 C4958 1.363 . S
C4954 H4931 0.950 . S
C4954 C4953 1.397 . S
C4954 C4955 1.334 . S
C4955 H4932 0.950 . S
C4955 C4954 1.334 . S
C4955 C4956 1.287 . S
C4956 C4955 1.287 . S
C4956 C4957 1.524 . S
C4956 H4975 0.913 . S
C4957 H4933 0.950 . S
C4957 C4956 1.524 . S
C4957 C4958 1.415 . S
C4958 H4934 0.950 . S
C4958 C4953 1.363 . S
C4958 C4957 1.415 . S
C4959 H4935 0.951 . S
C4959 C4960 1.366 . S
C4959 C4961 1.388 . S
C4960 C4959 1.366 . S
C4960 C4964 1.385 . S
C4961 H4936 0.951 . S
C4961 C4959 1.388 . S
C4961 C4962 1.366 . S
C4962 C4961 1.366 . S
C4962 C4963 1.414 . S
C4962 C4965 1.499 . S
C4963 H4937 0.950 . S
C4963 C4962 1.414 . S
C4963 C4964 1.374 . S
C4964 H4938 0.950 . S
C4964 C4960 1.385 . S
C4964 C4963 1.374 . S
C4965 C4962 1.499 . S
C4965 C4966 1.373 . S
C4965 C4967 1.389 . S
C4966 H4939 0.950 . S
C4966 C4952 1.377 . S
C4966 C4965 1.373 . S
C4967 C4951 1.377 . S
C4967 C4965 1.389 . S
C4967 C4968 1.524 . S
C4968 C4967 1.524 . S
C4968 C4969 1.397 . S
C4968 C4973 1.363 . S
C4969 H4940 0.950 . S
C4969 C4968 1.397 . S
C4969 C4970 1.334 . S
C4970 H4941 0.950 . S
C4970 C4969 1.334 . S
C4970 C4971 1.287 . S
C4971 C4970 1.287 . S
C4971 C4972 1.524 . S
C4971 H4974 0.999 . S
C4972 H4942 0.950 . S
C4972 C4971 1.524 . S
C4972 C4973 1.415 . S
C4973 H4943 0.950 . S
C4973 C4968 1.363 . S
C4973 C4972 1.415 . S
H4974 C4971 0.999 . S
H4975 C4956 0.913 . S
H4976 C4994 0.951 . S
H4977 C4996 0.951 . S
H4978 C4998 0.950 . S
H4979 C4999 0.950 . S
H4980 C5001 0.950 . S
H4981 C5004 0.950 . S
H4982 C5005 0.950 . S
H4983 C5007 0.950 . S
H4984 C5008 0.950 . S
H4985 C5009 0.951 . S
H4986 C5011 0.951 . S
H4987 C5013 0.950 . S
H4988 C5014 0.950 . S
H4989 C5016 0.950 . S
H4990 C5019 0.950 . S
H4991 C5020 0.950 . S
H4992 C5022 0.950 . S
H4993 C5023 0.950 . S
C4994 H4976 0.951 . S
C4994 C4995 1.366 . S
C4994 C4996 1.388 . S
C4995 C4994 1.366 . S
C4995 C4999 1.385 . S
C4996 H4977 0.951 . S
C4996 C4994 1.388 . S
C4996 C4997 1.366 . S
C4997 C4996 1.366 . S
C4997 C4998 1.414 . S
C4997 C5000 1.499 . S
C4998 H4978 0.950 . S
C4998 C4997 1.414 . S
C4998 C4999 1.374 . S
C4999 H4979 0.950 . S
C4999 C4995 1.385 . S
C4999 C4998 1.374 . S
C5000 C4997 1.499 . S
C5000 C5001 1.373 . S
C5000 C5002 1.389 . S
C5001 H4980 0.950 . S
C5001 C5000 1.373 . S
C5001 C5017 1.377 . S
C5002 C5000 1.389 . S
C5002 C5003 1.524 . S
C5002 C5016 1.377 . S
C5003 C5002 1.524 . S
C5003 C5004 1.397 . S
C5003 C5008 1.363 . S
C5004 H4981 0.950 . S
C5004 C5003 1.397 . S
C5004 C5005 1.334 . S
C5005 H4982 0.950 . S
C5005 C5004 1.334 . S
C5005 C5006 1.287 . S
C5006 C5005 1.287 . S
C5006 C5007 1.524 . S
C5006 H5025 0.913 . S
C5007 H4983 0.950 . S
C5007 C5006 1.524 . S
C5007 C5008 1.415 . S
C5008 H4984 0.950 . S
C5008 C5003 1.363 . S
C5008 C5007 1.415 . S
C5009 H4985 0.951 . S
C5009 C5010 1.366 . S
C5009 C5011 1.388 . S
C5010 C5009 1.366 . S
C5010 C5014 1.385 . S
C5011 H4986 0.951 . S
C5011 C5009 1.388 . S
C5011 C5012 1.366 . S
C5012 C5011 1.366 . S
C5012 C5013 1.414 . S
C5012 C5015 1.499 . S
C5013 H4987 0.950 . S
C5013 C5012 1.414 . S
C5013 C5014 1.374 . S
C5014 H4988 0.950 . S
C5014 C5010 1.385 . S
C5014 C5013 1.374 . S
C5015 C5012 1.499 . S
C5015 C5016 1.373 . S
C5015 C5017 1.389 . S
C5016 H4989 0.950 . S
C5016 C5002 1.377 . S
C5016 C5015 1.373 . S
C5017 C5001 1.377 . S
C5017 C5015 1.389 . S
C5017 C5018 1.524 . S
C5018 C5017 1.524 . S
C5018 C5019 1.397 . S
C5018 C5023 1.363 . S
C5019 H4990 0.950 . S
C5019 C5018 1.397 . S
C5019 C5020 1.334 . S
C5020 H4991 0.950 . S
C5020 C5019 1.334 . S
C5020 C5021 1.287 . S
C5021 C5020 1.287 . S
C5021 C5022 1.524 . S
C5021 H5024 0.999 . S
C5022 H4992 0.950 . S
C5022 C5021 1.524 . S
C5022 C5023 1.415 . S
C5023 H4993 0.950 . S
C5023 C5018 1.363 . S
C5023 C5022 1.415 . S
H5024 C5021 0.999 . S
H5025 C5006 0.913 . S
H5026 C5044 0.951 . S
H5027 C5046 0.951 . S
H5028 C5048 0.950 . S
H5029 C5049 0.950 . S
H5030 C5051 0.950 . S
H5031 C5054 0.950 . S
H5032 C5055 0.950 . S
H5033 C5057 0.950 . S
H5034 C5058 0.950 . S
H5035 C5059 0.951 . S
H5036 C5061 0.951 . S
H5037 C5063 0.950 . S
H5038 C5064 0.950 . S
H5039 C5066 0.950 . S
H5040 C5069 0.950 . S
H5041 C5070 0.950 . S
H5042 C5072 0.950 . S
H5043 C5073 0.950 . S
C5044 H5026 0.951 . S
C5044 C5045 1.366 . S
C5044 C5046 1.388 . S
C5045 C5044 1.366 . S
C5045 C5049 1.385 . S
C5046 H5027 0.951 . S
C5046 C5044 1.388 . S
C5046 C5047 1.366 . S
C5047 C5046 1.366 . S
C5047 C5048 1.414 . S
C5047 C5050 1.499 . S
C5048 H5028 0.950 . S
C5048 C5047 1.414 . S
C5048 C5049 1.374 . S
C5049 H5029 0.950 . S
C5049 C5045 1.385 . S
C5049 C5048 1.374 . S
C5050 C5047 1.499 . S
C5050 C5051 1.373 . S
C5050 C5052 1.389 . S
C5051 H5030 0.950 . S
C5051 C5050 1.373 . S
C5051 C5067 1.377 . S
C5052 C5050 1.389 . S
C5052 C5053 1.524 . S
C5052 C5066 1.377 . S
C5053 C5052 1.524 . S
C5053 C5054 1.397 . S
C5053 C5058 1.363 . S
C5054 H5031 0.950 . S
C5054 C5053 1.397 . S
C5054 C5055 1.334 . S
C5055 H5032 0.950 . S
C5055 C5054 1.334 . S
C5055 C5056 1.287 . S
C5056 C5055 1.287 . S
C5056 C5057 1.524 . S
C5056 H5075 0.913 . S
C5057 H5033 0.950 . S
C5057 C5056 1.524 . S
C5057 C5058 1.415 . S
C5058 H5034 0.950 . S
C5058 C5053 1.363 . S
C5058 C5057 1.415 . S
C5059 H5035 0.951 . S
C5059 C5060 1.366 . S
C5059 C5061 1.388 . S
C5060 C5059 1.366 . S
C5060 C5064 1.385 . S
C5061 H5036 0.951 . S
C5061 C5059 1.388 . S
C5061 C5062 1.366 . S
C5062 C5061 1.366 . S
C5062 C5063 1.414 . S
C5062 C5065 1.499 . S
C5063 H5037 0.950 . S
C5063 C5062 1.414 . S
C5063 C5064 1.374 . S
C5064 H5038 0.950 . S
C5064 C5060 1.385 . S
C5064 C5063 1.374 . S
C5065 C5062 1.499 . S
C5065 C5066 1.373 . S
C5065 C5067 1.389 . S
C5066 H5039 0.950 . S
C5066 C5052 1.377 . S
C5066 C5065 1.373 . S
C5067 C5051 1.377 . S
C5067 C5065 1.389 . S
C5067 C5068 1.524 . S
C5068 C5067 1.524 . S
C5068 C5069 1.397 . S
C5068 C5073 1.363 . S
C5069 H5040 0.950 . S
C5069 C5068 1.397 . S
C5069 C5070 1.334 . S
C5070 H5041 0.950 . S
C5070 C5069 1.334 . S
C5070 C5071 1.287 . S
C5071 C5070 1.287 . S
C5071 C5072 1.524 . S
C5071 H5074 0.999 . S
C5072 H5042 0.950 . S
C5072 C5071 1.524 . S
C5072 C5073 1.415 . S
C5073 H5043 0.950 . S
C5073 C5068 1.363 . S
C5073 C5072 1.415 . S
H5074 C5071 0.999 . S
H5075 C5056 0.913 . S
H5076 C5094 0.951 . S
H5077 C5096 0.951 . S
H5078 C5098 0.950 . S
H5079 C5099 0.950 . S
H5080 C5101 0.950 . S
H5081 C5104 0.950 . S
H5082 C5105 0.950 . S
H5083 C5107 0.950 . S
H5084 C5108 0.950 . S
H5085 C5109 0.951 . S
H5086 C5111 0.951 . S
H5087 C5113 0.950 . S
H5088 C5114 0.950 . S
H5089 C5116 0.950 . S
H5090 C5119 0.950 . S
H5091 C5120 0.950 . S
H5092 C5122 0.950 . S
H5093 C5123 0.950 . S
C5094 H5076 0.951 . S
C5094 C5095 1.366 . S
C5094 C5096 1.388 . S
C5095 C5094 1.366 . S
C5095 C5099 1.385 . S
C5096 H5077 0.951 . S
C5096 C5094 1.388 . S
C5096 C5097 1.366 . S
C5097 C5096 1.366 . S
C5097 C5098 1.414 . S
C5097 C5100 1.499 . S
C5098 H5078 0.950 . S
C5098 C5097 1.414 . S
C5098 C5099 1.374 . S
C5099 H5079 0.950 . S
C5099 C5095 1.385 . S
C5099 C5098 1.374 . S
C5100 C5097 1.499 . S
C5100 C5101 1.373 1_655 S
C5100 C5102 1.390 . S
C5101 H5080 0.950 . S
C5101 C5100 1.373 1_455 S
C5101 C5117 1.377 . S
C5102 C5100 1.390 . S
C5102 C5103 1.524 . S
C5102 C5116 1.377 . S
C5103 C5102 1.524 . S
C5103 C5104 1.397 . S
C5103 C5108 1.363 . S
C5104 H5081 0.950 . S
C5104 C5103 1.397 . S
C5104 C5105 1.334 . S
C5105 H5082 0.950 . S
C5105 C5104 1.334 . S
C5105 C5106 1.287 . S
C5106 C5105 1.287 . S
C5106 C5107 1.524 . S
C5106 H5125 0.913 . S
C5107 H5083 0.950 . S
C5107 C5106 1.524 . S
C5107 C5108 1.415 . S
C5108 H5084 0.950 . S
C5108 C5103 1.363 . S
C5108 C5107 1.415 . S
C5109 H5085 0.951 . S
C5109 C5110 1.366 . S
C5109 C5111 1.388 . S
C5110 C5109 1.366 . S
C5110 C5114 1.385 . S
C5111 H5086 0.951 . S
C5111 C5109 1.388 . S
C5111 C5112 1.366 . S
C5112 C5111 1.366 . S
C5112 C5113 1.414 . S
C5112 C5115 1.499 . S
C5113 H5087 0.950 . S
C5113 C5112 1.414 . S
C5113 C5114 1.374 . S
C5114 H5088 0.950 . S
C5114 C5110 1.385 . S
C5114 C5113 1.374 . S
C5115 C5112 1.499 . S
C5115 C5116 1.373 1_455 S
C5115 C5117 1.389 . S
C5116 H5089 0.950 . S
C5116 C5102 1.377 . S
C5116 C5115 1.373 1_655 S
C5117 C5101 1.377 . S
C5117 C5115 1.389 . S
C5117 C5118 1.524 . S
C5118 C5117 1.524 . S
C5118 C5119 1.397 . S
C5118 C5123 1.363 . S
C5119 H5090 0.950 . S
C5119 C5118 1.397 . S
C5119 C5120 1.334 . S
C5120 H5091 0.950 . S
C5120 C5119 1.334 . S
C5120 C5121 1.287 . S
C5121 C5120 1.287 . S
C5121 C5122 1.524 . S
C5121 H5124 0.999 . S
C5122 H5092 0.950 . S
C5122 C5121 1.524 . S
C5122 C5123 1.415 . S
C5123 H5093 0.950 . S
C5123 C5118 1.363 . S
C5123 C5122 1.415 . S
H5124 C5121 0.999 . S
H5125 C5106 0.913 . S
H5126 C5144 0.951 . S
H5127 C5146 0.951 . S
H5128 C5148 0.950 . S
H5129 C5149 0.950 . S
H5130 C5151 0.950 . S
H5131 C5154 0.950 . S
H5132 C5155 0.950 . S
H5133 C5157 0.950 . S
H5134 C5158 0.950 . S
H5135 C5159 0.951 . S
H5136 C5161 0.951 . S
H5137 C5163 0.950 . S
H5138 C5164 0.950 . S
H5139 C5166 0.950 . S
H5140 C5169 0.950 . S
H5141 C5170 0.950 . S
H5142 C5172 0.950 . S
H5143 C5173 0.950 . S
C5144 H5126 0.951 . S
C5144 C5145 1.366 . S
C5144 C5146 1.388 . S
C5145 C5144 1.366 . S
C5145 C5149 1.385 . S
C5146 H5127 0.951 . S
C5146 C5144 1.388 . S
C5146 C5147 1.366 . S
C5147 C5146 1.366 . S
C5147 C5148 1.414 . S
C5147 C5150 1.499 . S
C5148 H5128 0.950 . S
C5148 C5147 1.414 . S
C5148 C5149 1.374 . S
C5149 H5129 0.950 . S
C5149 C5145 1.385 . S
C5149 C5148 1.374 . S
C5150 C5147 1.499 . S
C5150 C5151 1.373 . S
C5150 C5152 1.389 . S
C5151 H5130 0.950 . S
C5151 C5150 1.373 . S
C5151 C5167 1.377 . S
C5152 C5150 1.389 . S
C5152 C5153 1.524 . S
C5152 C5166 1.377 . S
C5153 C5152 1.524 . S
C5153 C5154 1.397 . S
C5153 C5158 1.363 . S
C5154 H5131 0.950 . S
C5154 C5153 1.397 . S
C5154 C5155 1.334 . S
C5155 H5132 0.950 . S
C5155 C5154 1.334 . S
C5155 C5156 1.287 . S
C5156 C5155 1.287 . S
C5156 C5157 1.524 . S
C5156 H5175 0.913 . S
C5157 H5133 0.950 . S
C5157 C5156 1.524 . S
C5157 C5158 1.415 . S
C5158 H5134 0.950 . S
C5158 C5153 1.363 . S
C5158 C5157 1.415 . S
C5159 H5135 0.951 . S
C5159 C5160 1.366 . S
C5159 C5161 1.388 . S
C5160 C5159 1.366 . S
C5160 C5164 1.385 . S
C5161 H5136 0.951 . S
C5161 C5159 1.388 . S
C5161 C5162 1.366 . S
C5162 C5161 1.366 . S
C5162 C5163 1.414 . S
C5162 C5165 1.499 . S
C5163 H5137 0.950 . S
C5163 C5162 1.414 . S
C5163 C5164 1.374 . S
C5164 H5138 0.950 . S
C5164 C5160 1.385 . S
C5164 C5163 1.374 . S
C5165 C5162 1.499 . S
C5165 C5166 1.373 . S
C5165 C5167 1.389 . S
C5166 H5139 0.950 . S
C5166 C5152 1.377 . S
C5166 C5165 1.373 . S
C5167 C5151 1.377 . S
C5167 C5165 1.389 . S
C5167 C5168 1.524 . S
C5168 C5167 1.524 . S
C5168 C5169 1.397 . S
C5168 C5173 1.363 . S
C5169 H5140 0.950 . S
C5169 C5168 1.397 . S
C5169 C5170 1.334 . S
C5170 H5141 0.950 . S
C5170 C5169 1.334 . S
C5170 C5171 1.287 . S
C5171 C5170 1.287 . S
C5171 C5172 1.524 . S
C5171 H5174 0.999 . S
C5172 H5142 0.950 . S
C5172 C5171 1.524 . S
C5172 C5173 1.415 . S
C5173 H5143 0.950 . S
C5173 C5168 1.363 . S
C5173 C5172 1.415 . S
H5174 C5171 0.999 . S
H5175 C5156 0.913 . S
H5176 C5194 0.951 . S
H5177 C5196 0.951 . S
H5178 C5198 0.950 . S
H5179 C5199 0.950 . S
H5180 C5201 0.950 . S
H5181 C5204 0.950 . S
H5182 C5205 0.950 . S
H5183 C5207 0.950 . S
H5184 C5208 0.950 . S
H5185 C5209 0.951 . S
H5186 C5211 0.951 . S
H5187 C5213 0.950 . S
H5188 C5214 0.950 . S
H5189 C5216 0.950 . S
H5190 C5219 0.950 . S
H5191 C5220 0.950 . S
H5192 C5222 0.950 . S
H5193 C5223 0.950 . S
C5194 H5176 0.951 . S
C5194 C5195 1.366 . S
C5194 C5196 1.388 . S
C5195 C5194 1.366 . S
C5195 C5199 1.385 . S
C5196 H5177 0.951 . S
C5196 C5194 1.388 . S
C5196 C5197 1.366 . S
C5197 C5196 1.366 . S
C5197 C5198 1.414 . S
C5197 C5200 1.499 . S
C5198 H5178 0.950 . S
C5198 C5197 1.414 . S
C5198 C5199 1.374 . S
C5199 H5179 0.950 . S
C5199 C5195 1.385 . S
C5199 C5198 1.374 . S
C5200 C5197 1.499 . S
C5200 C5201 1.373 . S
C5200 C5202 1.389 . S
C5201 H5180 0.950 . S
C5201 C5200 1.373 . S
C5201 C5217 1.377 . S
C5202 C5200 1.389 . S
C5202 C5203 1.524 . S
C5202 C5216 1.377 . S
C5203 C5202 1.524 . S
C5203 C5204 1.397 . S
C5203 C5208 1.363 . S
C5204 H5181 0.950 . S
C5204 C5203 1.397 . S
C5204 C5205 1.334 . S
C5205 H5182 0.950 . S
C5205 C5204 1.334 . S
C5205 C5206 1.287 . S
C5206 C5205 1.287 . S
C5206 C5207 1.524 . S
C5206 H5225 0.913 . S
C5207 H5183 0.950 . S
C5207 C5206 1.524 . S
C5207 C5208 1.415 . S
C5208 H5184 0.950 . S
C5208 C5203 1.363 . S
C5208 C5207 1.415 . S
C5209 H5185 0.951 . S
C5209 C5210 1.366 . S
C5209 C5211 1.388 . S
C5210 C5209 1.366 . S
C5210 C5214 1.385 . S
C5211 H5186 0.951 . S
C5211 C5209 1.388 . S
C5211 C5212 1.366 . S
C5212 C5211 1.366 . S
C5212 C5213 1.414 . S
C5212 C5215 1.499 . S
C5213 H5187 0.950 . S
C5213 C5212 1.414 . S
C5213 C5214 1.374 . S
C5214 H5188 0.950 . S
C5214 C5210 1.385 . S
C5214 C5213 1.374 . S
C5215 C5212 1.499 . S
C5215 C5216 1.373 . S
C5215 C5217 1.389 . S
C5216 H5189 0.950 . S
C5216 C5202 1.377 . S
C5216 C5215 1.373 . S
C5217 C5201 1.377 . S
C5217 C5215 1.389 . S
C5217 C5218 1.524 . S
C5218 C5217 1.524 . S
C5218 C5219 1.397 . S
C5218 C5223 1.363 . S
C5219 H5190 0.950 . S
C5219 C5218 1.397 . S
C5219 C5220 1.334 . S
C5220 H5191 0.950 . S
C5220 C5219 1.334 . S
C5220 C5221 1.287 . S
C5221 C5220 1.287 . S
C5221 C5222 1.524 . S
C5221 H5224 0.999 . S
C5222 H5192 0.950 . S
C5222 C5221 1.524 . S
C5222 C5223 1.415 . S
C5223 H5193 0.950 . S
C5223 C5218 1.363 . S
C5223 C5222 1.415 . S
H5224 C5221 0.999 . S
H5225 C5206 0.913 . S
H5226 C5244 0.951 . S
H5227 C5246 0.951 . S
H5228 C5248 0.950 . S
H5229 C5249 0.950 . S
H5230 C5251 0.950 . S
H5231 C5254 0.950 . S
H5232 C5255 0.950 . S
H5233 C5257 0.950 . S
H5234 C5258 0.950 . S
H5235 C5259 0.951 . S
H5236 C5261 0.951 . S
H5237 C5263 0.950 . S
H5238 C5264 0.950 . S
H5239 C5266 0.950 . S
H5240 C5269 0.950 . S
H5241 C5270 0.950 . S
H5242 C5272 0.950 . S
H5243 C5273 0.950 . S
C5244 H5226 0.951 . S
C5244 C5245 1.366 . S
C5244 C5246 1.388 . S
C5245 C5244 1.366 . S
C5245 C5249 1.385 . S
C5246 H5227 0.951 . S
C5246 C5244 1.388 . S
C5246 C5247 1.366 . S
C5247 C5246 1.366 . S
C5247 C5248 1.414 . S
C5247 C5250 1.499 . S
C5248 H5228 0.950 . S
C5248 C5247 1.414 . S
C5248 C5249 1.374 . S
C5249 H5229 0.950 . S
C5249 C5245 1.385 . S
C5249 C5248 1.374 . S
C5250 C5247 1.499 . S
C5250 C5251 1.373 . S
C5250 C5252 1.389 . S
C5251 H5230 0.950 . S
C5251 C5250 1.373 . S
C5251 C5267 1.377 . S
C5252 C5250 1.389 . S
C5252 C5253 1.524 . S
C5252 C5266 1.377 . S
C5253 C5252 1.524 . S
C5253 C5254 1.397 . S
C5253 C5258 1.363 . S
C5254 H5231 0.950 . S
C5254 C5253 1.397 . S
C5254 C5255 1.334 . S
C5255 H5232 0.950 . S
C5255 C5254 1.334 . S
C5255 C5256 1.287 . S
C5256 C5255 1.287 . S
C5256 C5257 1.524 . S
C5256 H5275 0.913 . S
C5257 H5233 0.950 . S
C5257 C5256 1.524 . S
C5257 C5258 1.415 . S
C5258 H5234 0.950 . S
C5258 C5253 1.363 . S
C5258 C5257 1.415 . S
C5259 H5235 0.951 . S
C5259 C5260 1.366 . S
C5259 C5261 1.388 . S
C5260 C5259 1.366 . S
C5260 C5264 1.385 . S
C5261 H5236 0.951 . S
C5261 C5259 1.388 . S
C5261 C5262 1.366 . S
C5262 C5261 1.366 . S
C5262 C5263 1.414 . S
C5262 C5265 1.499 . S
C5263 H5237 0.950 . S
C5263 C5262 1.414 . S
C5263 C5264 1.374 . S
C5264 H5238 0.950 . S
C5264 C5260 1.385 . S
C5264 C5263 1.374 . S
C5265 C5262 1.499 . S
C5265 C5266 1.373 . S
C5265 C5267 1.389 . S
C5266 H5239 0.950 . S
C5266 C5252 1.377 . S
C5266 C5265 1.373 . S
C5267 C5251 1.377 . S
C5267 C5265 1.389 . S
C5267 C5268 1.524 . S
C5268 C5267 1.524 . S
C5268 C5269 1.397 . S
C5268 C5273 1.363 . S
C5269 H5240 0.950 . S
C5269 C5268 1.397 . S
C5269 C5270 1.334 . S
C5270 H5241 0.950 . S
C5270 C5269 1.334 . S
C5270 C5271 1.287 . S
C5271 C5270 1.287 . S
C5271 C5272 1.524 . S
C5271 H5274 0.999 . S
C5272 H5242 0.950 . S
C5272 C5271 1.524 . S
C5272 C5273 1.415 . S
C5273 H5243 0.950 . S
C5273 C5268 1.363 . S
C5273 C5272 1.415 . S
H5274 C5271 0.999 . S
H5275 C5256 0.913 . S
H5276 C5294 0.951 . S
H5277 C5296 0.951 . S
H5278 C5298 0.950 . S
H5279 C5299 0.950 . S
H5280 C5301 0.950 . S
H5281 C5304 0.950 . S
H5282 C5305 0.950 . S
H5283 C5307 0.950 . S
H5284 C5308 0.950 . S
H5285 C5309 0.951 . S
H5286 C5311 0.951 . S
H5287 C5313 0.950 . S
H5288 C5314 0.950 . S
H5289 C5316 0.950 . S
H5290 C5319 0.950 . S
H5291 C5320 0.950 . S
H5292 C5322 0.950 . S
H5293 C5323 0.950 . S
C5294 H5276 0.951 . S
C5294 C5295 1.366 . S
C5294 C5296 1.388 . S
C5295 C5294 1.366 . S
C5295 C5299 1.385 . S
C5296 H5277 0.951 . S
C5296 C5294 1.388 . S
C5296 C5297 1.366 . S
C5297 C5296 1.366 . S
C5297 C5298 1.414 . S
C5297 C5300 1.499 . S
C5298 H5278 0.950 . S
C5298 C5297 1.414 . S
C5298 C5299 1.374 . S
C5299 H5279 0.950 . S
C5299 C5295 1.385 . S
C5299 C5298 1.374 . S
C5300 C5297 1.499 . S
C5300 C5301 1.373 1_655 S
C5300 C5302 1.389 . S
C5301 H5280 0.950 . S
C5301 C5300 1.373 1_455 S
C5301 C5317 1.377 . S
C5302 C5300 1.389 . S
C5302 C5303 1.524 . S
C5302 C5316 1.377 . S
C5303 C5302 1.524 . S
C5303 C5304 1.397 . S
C5303 C5308 1.363 . S
C5304 H5281 0.950 . S
C5304 C5303 1.397 . S
C5304 C5305 1.334 . S
C5305 H5282 0.950 . S
C5305 C5304 1.334 . S
C5305 C5306 1.287 . S
C5306 C5305 1.287 . S
C5306 C5307 1.524 . S
C5306 H5325 0.913 . S
C5307 H5283 0.950 . S
C5307 C5306 1.524 . S
C5307 C5308 1.415 . S
C5308 H5284 0.950 . S
C5308 C5303 1.363 . S
C5308 C5307 1.415 . S
C5309 H5285 0.951 . S
C5309 C5310 1.366 . S
C5309 C5311 1.388 . S
C5310 C5309 1.366 . S
C5310 C5314 1.385 1_455 S
C5311 H5286 0.951 . S
C5311 C5309 1.388 . S
C5311 C5312 1.366 1_455 S
C5312 C5311 1.366 1_655 S
C5312 C5313 1.414 . S
C5312 C5315 1.499 . S
C5313 H5287 0.950 . S
C5313 C5312 1.414 . S
C5313 C5314 1.374 . S
C5314 H5288 0.950 . S
C5314 C5310 1.385 1_655 S
C5314 C5313 1.374 . S
C5315 C5312 1.499 . S
C5315 C5316 1.373 . S
C5315 C5317 1.389 1_655 S
C5316 H5289 0.950 . S
C5316 C5302 1.377 . S
C5316 C5315 1.373 . S
C5317 C5301 1.377 . S
C5317 C5315 1.389 1_455 S
C5317 C5318 1.524 . S
C5318 C5317 1.524 . S
C5318 C5319 1.397 . S
C5318 C5323 1.363 . S
C5319 H5290 0.950 . S
C5319 C5318 1.397 . S
C5319 C5320 1.334 . S
C5320 H5291 0.950 . S
C5320 C5319 1.334 . S
C5320 C5321 1.287 . S
C5321 C5320 1.287 . S
C5321 C5322 1.524 . S
C5321 H5324 0.999 . S
C5322 H5292 0.950 . S
C5322 C5321 1.524 . S
C5322 C5323 1.415 . S
C5323 H5293 0.950 . S
C5323 C5318 1.363 . S
C5323 C5322 1.415 . S
H5324 C5321 0.999 . S
H5325 C5306 0.913 . S
H5326 C5344 0.951 . S
H5327 C5346 0.951 . S
H5328 C5348 0.950 . S
H5329 C5349 0.950 . S
H5330 C5351 0.950 . S
H5331 C5354 0.950 . S
H5332 C5355 0.950 . S
H5333 C5357 0.950 . S
H5334 C5358 0.950 . S
H5335 C5359 0.951 . S
H5336 C5361 0.951 . S
H5337 C5363 0.950 . S
H5338 C5364 0.950 . S
H5339 C5366 0.950 . S
H5340 C5369 0.950 . S
H5341 C5370 0.950 . S
H5342 C5372 0.950 . S
H5343 C5373 0.950 . S
C5344 H5326 0.951 . S
C5344 C5345 1.366 . S
C5344 C5346 1.388 . S
C5345 C5344 1.366 . S
C5345 C5349 1.385 . S
C5346 H5327 0.951 . S
C5346 C5344 1.388 . S
C5346 C5347 1.366 . S
C5347 C5346 1.366 . S
C5347 C5348 1.414 . S
C5347 C5350 1.499 . S
C5348 H5328 0.950 . S
C5348 C5347 1.414 . S
C5348 C5349 1.374 . S
C5349 H5329 0.950 . S
C5349 C5345 1.385 . S
C5349 C5348 1.374 . S
C5350 C5347 1.499 . S
C5350 C5351 1.373 . S
C5350 C5352 1.389 . S
C5351 H5330 0.950 . S
C5351 C5350 1.373 . S
C5351 C5367 1.377 . S
C5352 C5350 1.389 . S
C5352 C5353 1.524 . S
C5352 C5366 1.377 . S
C5353 C5352 1.524 . S
C5353 C5354 1.397 . S
C5353 C5358 1.363 . S
C5354 H5331 0.950 . S
C5354 C5353 1.397 . S
C5354 C5355 1.334 . S
C5355 H5332 0.950 . S
C5355 C5354 1.334 . S
C5355 C5356 1.287 . S
C5356 C5355 1.287 . S
C5356 C5357 1.524 . S
C5356 H5375 0.913 . S
C5357 H5333 0.950 . S
C5357 C5356 1.524 . S
C5357 C5358 1.415 . S
C5358 H5334 0.950 . S
C5358 C5353 1.363 . S
C5358 C5357 1.415 . S
C5359 H5335 0.951 . S
C5359 C5360 1.366 . S
C5359 C5361 1.388 . S
C5360 C5359 1.366 . S
C5360 C5364 1.385 . S
C5361 H5336 0.951 . S
C5361 C5359 1.388 . S
C5361 C5362 1.366 . S
C5362 C5361 1.366 . S
C5362 C5363 1.414 . S
C5362 C5365 1.499 . S
C5363 H5337 0.950 . S
C5363 C5362 1.414 . S
C5363 C5364 1.374 . S
C5364 H5338 0.950 . S
C5364 C5360 1.385 . S
C5364 C5363 1.374 . S
C5365 C5362 1.499 . S
C5365 C5366 1.373 . S
C5365 C5367 1.389 . S
C5366 H5339 0.950 . S
C5366 C5352 1.377 . S
C5366 C5365 1.373 . S
C5367 C5351 1.377 . S
C5367 C5365 1.389 . S
C5367 C5368 1.524 . S
C5368 C5367 1.524 . S
C5368 C5369 1.397 . S
C5368 C5373 1.363 . S
C5369 H5340 0.950 . S
C5369 C5368 1.397 . S
C5369 C5370 1.334 . S
C5370 H5341 0.950 . S
C5370 C5369 1.334 . S
C5370 C5371 1.287 . S
C5371 C5370 1.287 . S
C5371 C5372 1.524 . S
C5371 H5374 0.999 . S
C5372 H5342 0.950 . S
C5372 C5371 1.524 . S
C5372 C5373 1.415 . S
C5373 H5343 0.950 . S
C5373 C5368 1.363 . S
C5373 C5372 1.415 . S
H5374 C5371 0.999 . S
H5375 C5356 0.913 . S
H5376 C5394 0.951 . S
H5377 C5396 0.951 . S
H5378 C5398 0.950 . S
H5379 C5399 0.950 . S
H5380 C5401 0.950 . S
H5381 C5404 0.950 . S
H5382 C5405 0.950 . S
H5383 C5407 0.950 . S
H5384 C5408 0.950 . S
H5385 C5409 0.951 . S
H5386 C5411 0.951 . S
H5387 C5413 0.950 . S
H5388 C5414 0.950 . S
H5389 C5416 0.950 . S
H5390 C5419 0.950 . S
H5391 C5420 0.950 . S
H5392 C5422 0.950 . S
H5393 C5423 0.950 . S
C5394 H5376 0.951 . S
C5394 C5395 1.366 . S
C5394 C5396 1.388 . S
C5395 C5394 1.366 . S
C5395 C5399 1.385 . S
C5396 H5377 0.951 . S
C5396 C5394 1.388 . S
C5396 C5397 1.366 . S
C5397 C5396 1.366 . S
C5397 C5398 1.414 . S
C5397 C5400 1.499 . S
C5398 H5378 0.950 . S
C5398 C5397 1.414 . S
C5398 C5399 1.374 . S
C5399 H5379 0.950 . S
C5399 C5395 1.385 . S
C5399 C5398 1.374 . S
C5400 C5397 1.499 . S
C5400 C5401 1.373 . S
C5400 C5402 1.389 . S
C5401 H5380 0.950 . S
C5401 C5400 1.373 . S
C5401 C5417 1.377 . S
C5402 C5400 1.389 . S
C5402 C5403 1.524 . S
C5402 C5416 1.377 . S
C5403 C5402 1.524 . S
C5403 C5404 1.397 . S
C5403 C5408 1.363 . S
C5404 H5381 0.950 . S
C5404 C5403 1.397 . S
C5404 C5405 1.334 . S
C5405 H5382 0.950 . S
C5405 C5404 1.334 . S
C5405 C5406 1.287 . S
C5406 C5405 1.287 . S
C5406 C5407 1.524 . S
C5406 H5425 0.913 . S
C5407 H5383 0.950 . S
C5407 C5406 1.524 . S
C5407 C5408 1.415 . S
C5408 H5384 0.950 . S
C5408 C5403 1.363 . S
C5408 C5407 1.415 . S
C5409 H5385 0.951 . S
C5409 C5410 1.366 . S
C5409 C5411 1.388 . S
C5410 C5409 1.366 . S
C5410 C5414 1.385 . S
C5411 H5386 0.951 . S
C5411 C5409 1.388 . S
C5411 C5412 1.366 . S
C5412 C5411 1.366 . S
C5412 C5413 1.414 . S
C5412 C5415 1.499 . S
C5413 H5387 0.950 . S
C5413 C5412 1.414 . S
C5413 C5414 1.374 . S
C5414 H5388 0.950 . S
C5414 C5410 1.385 . S
C5414 C5413 1.374 . S
C5415 C5412 1.499 . S
C5415 C5416 1.373 . S
C5415 C5417 1.389 . S
C5416 H5389 0.950 . S
C5416 C5402 1.377 . S
C5416 C5415 1.373 . S
C5417 C5401 1.377 . S
C5417 C5415 1.389 . S
C5417 C5418 1.524 . S
C5418 C5417 1.524 . S
C5418 C5419 1.397 . S
C5418 C5423 1.363 . S
C5419 H5390 0.950 . S
C5419 C5418 1.397 . S
C5419 C5420 1.334 . S
C5420 H5391 0.950 . S
C5420 C5419 1.334 . S
C5420 C5421 1.287 . S
C5421 C5420 1.287 . S
C5421 C5422 1.524 . S
C5421 H5424 0.999 . S
C5422 H5392 0.950 . S
C5422 C5421 1.524 . S
C5422 C5423 1.415 . S
C5423 H5393 0.950 . S
C5423 C5418 1.363 . S
C5423 C5422 1.415 . S
H5424 C5421 0.999 . S
H5425 C5406 0.913 . S
H5426 C5444 0.951 . S
H5427 C5446 0.951 . S
H5428 C5448 0.950 . S
H5429 C5449 0.950 . S
H5430 C5451 0.950 . S
H5431 C5454 0.950 . S
H5432 C5455 0.950 . S
H5433 C5457 0.950 . S
H5434 C5458 0.950 . S
H5435 C5459 0.951 . S
H5436 C5461 0.935 1_545 S
H5437 C5463 0.950 . S
H5438 C5464 0.950 . S
H5439 C5466 0.950 . S
H5440 C5469 0.950 . S
H5441 C5470 0.950 . S
H5442 C5472 0.950 1_545 S
H5443 C5473 0.950 . S
C5444 H5426 0.951 . S
C5444 C5445 1.366 . S
C5444 C5446 1.388 . S
C5445 C5444 1.366 . S
C5445 C5449 1.385 . S
C5446 H5427 0.951 . S
C5446 C5444 1.388 . S
C5446 C5447 1.366 . S
C5447 C5446 1.366 . S
C5447 C5448 1.414 . S
C5447 C5450 1.499 . S
C5448 H5428 0.950 . S
C5448 C5447 1.414 . S
C5448 C5449 1.374 . S
C5449 H5429 0.950 . S
C5449 C5445 1.385 . S
C5449 C5448 1.374 . S
C5450 C5447 1.499 . S
C5450 C5451 1.373 . S
C5450 C5452 1.389 . S
C5451 H5430 0.950 . S
C5451 C5450 1.373 . S
C5451 C5467 1.377 . S
C5452 C5450 1.389 . S
C5452 C5453 1.524 . S
C5452 C5466 1.377 . S
C5453 C5452 1.524 . S
C5453 C5454 1.397 . S
C5453 C5458 1.363 . S
C5454 H5431 0.950 . S
C5454 C5453 1.397 . S
C5454 C5455 1.334 . S
C5455 H5432 0.950 . S
C5455 C5454 1.334 . S
C5455 C5456 1.287 . S
C5456 C5455 1.287 . S
C5456 C5457 1.524 . S
C5456 H5475 0.913 . S
C5457 H5433 0.950 . S
C5457 C5456 1.524 . S
C5457 C5458 1.415 . S
C5458 H5434 0.950 . S
C5458 C5453 1.363 . S
C5458 C5457 1.415 . S
C5459 H5435 0.951 . S
C5459 C5460 1.366 1_545 S
C5459 C5461 1.388 1_545 S
C5460 C5459 1.366 1_565 S
C5460 C5464 1.385 . S
C5461 H5436 0.935 1_565 S
C5461 C5459 1.388 1_565 S
C5461 C5462 1.366 . S
C5462 C5461 1.366 . S
C5462 C5463 1.414 . S
C5462 C5465 1.499 . S
C5463 H5437 0.950 . S
C5463 C5462 1.414 . S
C5463 C5464 1.374 . S
C5464 H5438 0.950 . S
C5464 C5460 1.385 . S
C5464 C5463 1.374 . S
C5465 C5462 1.499 . S
C5465 C5466 1.373 . S
C5465 C5467 1.389 . S
C5466 H5439 0.950 . S
C5466 C5452 1.377 . S
C5466 C5465 1.373 . S
C5467 C5451 1.377 . S
C5467 C5465 1.389 . S
C5467 C5468 1.524 . S
C5468 C5467 1.524 . S
C5468 C5469 1.397 . S
C5468 C5473 1.363 . S
C5469 H5440 0.950 . S
C5469 C5468 1.397 . S
C5469 C5470 1.334 . S
C5470 H5441 0.950 . S
C5470 C5469 1.334 . S
C5470 C5471 1.287 . S
C5471 C5470 1.287 . S
C5471 C5472 1.524 . S
C5471 H5474 0.999 . S
C5472 H5442 0.950 1_565 S
C5472 C5471 1.524 . S
C5472 C5473 1.415 . S
C5473 H5443 0.950 . S
C5473 C5468 1.363 . S
C5473 C5472 1.415 . S
H5474 C5471 0.999 . S
H5475 C5456 0.913 . S
H5476 C5494 0.951 . S
H5477 C5496 0.951 . S
H5478 C5498 0.950 . S
H5479 C5499 0.950 . S
H5480 C5501 0.950 . S
H5481 C5504 0.950 . S
H5482 C5505 0.950 . S
H5483 C5507 0.950 . S
H5484 C5508 0.950 . S
H5485 C5509 0.951 . S
H5486 C5511 0.951 . S
H5487 C5513 0.950 . S
H5488 C5514 0.950 . S
H5489 C5516 0.950 . S
H5490 C5519 0.950 . S
H5491 C5520 0.950 . S
H5492 C5522 0.950 . S
H5493 C5523 0.950 . S
C5494 H5476 0.951 . S
C5494 C5495 1.366 . S
C5494 C5496 1.388 . S
C5495 C5494 1.366 . S
C5495 C5499 1.385 . S
C5496 H5477 0.951 . S
C5496 C5494 1.388 . S
C5496 C5497 1.366 . S
C5497 C5496 1.366 . S
C5497 C5498 1.414 . S
C5497 C5500 1.499 . S
C5498 H5478 0.950 . S
C5498 C5497 1.414 . S
C5498 C5499 1.374 . S
C5499 H5479 0.950 . S
C5499 C5495 1.385 . S
C5499 C5498 1.374 . S
C5500 C5497 1.499 . S
C5500 C5501 1.373 . S
C5500 C5502 1.389 . S
C5501 H5480 0.950 . S
C5501 C5500 1.373 . S
C5501 C5517 1.377 . S
C5502 C5500 1.389 . S
C5502 C5503 1.524 . S
C5502 C5516 1.377 . S
C5503 C5502 1.524 . S
C5503 C5504 1.397 . S
C5503 C5508 1.363 . S
C5504 H5481 0.950 . S
C5504 C5503 1.397 . S
C5504 C5505 1.334 . S
C5505 H5482 0.950 . S
C5505 C5504 1.334 . S
C5505 C5506 1.287 . S
C5506 C5505 1.287 . S
C5506 C5507 1.524 . S
C5506 H5525 0.913 . S
C5507 H5483 0.950 . S
C5507 C5506 1.524 . S
C5507 C5508 1.415 . S
C5508 H5484 0.950 . S
C5508 C5503 1.363 . S
C5508 C5507 1.415 . S
C5509 H5485 0.951 . S
C5509 C5510 1.366 . S
C5509 C5511 1.388 . S
C5510 C5509 1.366 . S
C5510 C5514 1.385 . S
C5511 H5486 0.951 . S
C5511 C5509 1.388 . S
C5511 C5512 1.366 . S
C5512 C5511 1.366 . S
C5512 C5513 1.414 . S
C5512 C5515 1.499 . S
C5513 H5487 0.950 . S
C5513 C5512 1.414 . S
C5513 C5514 1.374 . S
C5514 H5488 0.950 . S
C5514 C5510 1.385 . S
C5514 C5513 1.374 . S
C5515 C5512 1.499 . S
C5515 C5516 1.373 . S
C5515 C5517 1.389 . S
C5516 H5489 0.950 . S
C5516 C5502 1.377 . S
C5516 C5515 1.373 . S
C5517 C5501 1.377 . S
C5517 C5515 1.389 . S
C5517 C5518 1.524 . S
C5518 C5517 1.524 . S
C5518 C5519 1.397 . S
C5518 C5523 1.363 . S
C5519 H5490 0.950 . S
C5519 C5518 1.397 . S
C5519 C5520 1.334 . S
C5520 H5491 0.950 . S
C5520 C5519 1.334 . S
C5520 C5521 1.287 . S
C5521 C5520 1.287 . S
C5521 C5522 1.524 . S
C5521 H5524 0.999 . S
C5522 H5492 0.950 . S
C5522 C5521 1.524 . S
C5522 C5523 1.415 . S
C5523 H5493 0.950 . S
C5523 C5518 1.363 . S
C5523 C5522 1.415 . S
H5524 C5521 0.999 . S
H5525 C5506 0.913 . S
H5526 C5544 0.951 . S
H5527 C5546 0.951 . S
H5528 C5548 0.950 . S
H5529 C5549 0.950 . S
H5530 C5551 0.950 . S
H5531 C5554 0.950 . S
H5532 C5555 0.950 . S
H5533 C5557 0.950 . S
H5534 C5558 0.950 . S
H5535 C5559 0.951 . S
H5536 C5561 0.951 . S
H5537 C5563 0.932 1_556 S
H5538 C5564 0.950 . S
H5539 C5566 0.950 . S
H5540 C5569 0.950 . S
H5541 C5570 0.950 . S
H5542 C5572 0.950 . S
H5543 C5573 0.950 . S
C5544 H5526 0.951 . S
C5544 C5545 1.366 . S
C5544 C5546 1.388 . S
C5545 C5544 1.366 . S
C5545 C5549 1.385 1_556 S
C5546 H5527 0.951 . S
C5546 C5544 1.388 . S
C5546 C5547 1.366 1_556 S
C5547 C5546 1.366 1_554 S
C5547 C5548 1.414 . S
C5547 C5550 1.499 . S
C5548 H5528 0.950 . S
C5548 C5547 1.414 . S
C5548 C5549 1.374 . S
C5549 H5529 0.950 . S
C5549 C5545 1.385 1_554 S
C5549 C5548 1.374 . S
C5550 C5547 1.499 . S
C5550 C5551 1.373 . S
C5550 C5552 1.389 1_554 S
C5551 H5530 0.950 . S
C5551 C5550 1.373 . S
C5551 C5567 1.377 . S
C5552 C5550 1.389 1_556 S
C5552 C5553 1.524 . S
C5552 C5566 1.377 . S
C5553 C5552 1.524 . S
C5553 C5554 1.397 . S
C5553 C5558 1.363 . S
C5554 H5531 0.950 . S
C5554 C5553 1.397 . S
C5554 C5555 1.334 . S
C5555 H5532 0.950 . S
C5555 C5554 1.334 . S
C5555 C5556 1.287 . S
C5556 C5555 1.287 . S
C5556 C5557 1.524 . S
C5556 H5575 0.913 . S
C5557 H5533 0.950 . S
C5557 C5556 1.524 . S
C5557 C5558 1.415 . S
C5558 H5534 0.950 . S
C5558 C5553 1.363 . S
C5558 C5557 1.415 . S
C5559 H5535 0.951 . S
C5559 C5560 1.366 . S
C5559 C5561 1.388 . S
C5560 C5559 1.366 . S
C5560 C5564 1.385 . S
C5561 H5536 0.951 . S
C5561 C5559 1.388 . S
C5561 C5562 1.366 . S
C5562 C5561 1.366 . S
C5562 C5563 1.414 . S
C5562 C5565 1.499 . S
C5563 H5537 0.932 1_554 S
C5563 C5562 1.414 . S
C5563 C5564 1.374 . S
C5564 H5538 0.950 . S
C5564 C5560 1.385 . S
C5564 C5563 1.374 . S
C5565 C5562 1.499 . S
C5565 C5566 1.373 1_554 S
C5565 C5567 1.389 . S
C5566 H5539 0.950 . S
C5566 C5552 1.377 . S
C5566 C5565 1.373 1_556 S
C5567 C5551 1.377 . S
C5567 C5565 1.389 . S
C5567 C5568 1.524 . S
C5568 C5567 1.524 . S
C5568 C5569 1.397 . S
C5568 C5573 1.363 . S
C5569 H5540 0.950 . S
C5569 C5568 1.397 . S
C5569 C5570 1.334 . S
C5570 H5541 0.950 . S
C5570 C5569 1.334 . S
C5570 C5571 1.287 . S
C5571 C5570 1.287 . S
C5571 C5572 1.524 . S
C5571 H5574 0.999 . S
C5572 H5542 0.950 . S
C5572 C5571 1.524 . S
C5572 C5573 1.415 . S
C5573 H5543 0.950 . S
C5573 C5568 1.363 . S
C5573 C5572 1.415 . S
H5574 C5571 0.999 . S
H5575 C5556 0.913 . S
H5576 C5594 0.951 . S
H5577 C5596 0.951 . S
H5578 C5598 0.950 . S
H5579 C5599 0.950 . S
H5580 C5601 0.950 . S
H5581 C5604 0.950 . S
H5582 C5605 0.950 . S
H5583 C5607 0.950 . S
H5584 C5608 0.950 . S
H5585 C5609 0.951 . S
H5586 C5611 0.951 . S
H5587 C5613 0.950 . S
H5588 C5614 0.950 . S
H5589 C5616 0.950 . S
H5590 C5619 0.950 . S
H5591 C5620 0.950 . S
H5592 C5622 0.950 . S
H5593 C5623 0.950 . S
C5594 H5576 0.951 . S
C5594 C5595 1.366 . S
C5594 C5596 1.388 . S
C5595 C5594 1.366 . S
C5595 C5599 1.385 . S
C5596 H5577 0.951 . S
C5596 C5594 1.388 . S
C5596 C5597 1.366 . S
C5597 C5596 1.366 . S
C5597 C5598 1.414 . S
C5597 C5600 1.499 . S
C5598 H5578 0.950 . S
C5598 C5597 1.414 . S
C5598 C5599 1.374 . S
C5599 H5579 0.950 . S
C5599 C5595 1.385 . S
C5599 C5598 1.374 . S
C5600 C5597 1.499 . S
C5600 C5601 1.373 . S
C5600 C5602 1.389 . S
C5601 H5580 0.950 . S
C5601 C5600 1.373 . S
C5601 C5617 1.377 . S
C5602 C5600 1.389 . S
C5602 C5603 1.524 . S
C5602 C5616 1.377 . S
C5603 C5602 1.524 . S
C5603 C5604 1.397 . S
C5603 C5608 1.363 . S
C5604 H5581 0.950 . S
C5604 C5603 1.397 . S
C5604 C5605 1.334 . S
C5605 H5582 0.950 . S
C5605 C5604 1.334 . S
C5605 C5606 1.287 . S
C5606 C5605 1.287 . S
C5606 C5607 1.524 . S
C5606 H5625 0.913 . S
C5607 H5583 0.950 . S
C5607 C5606 1.524 . S
C5607 C5608 1.415 . S
C5608 H5584 0.950 . S
C5608 C5603 1.363 . S
C5608 C5607 1.415 . S
C5609 H5585 0.951 . S
C5609 C5610 1.366 . S
C5609 C5611 1.388 . S
C5610 C5609 1.366 . S
C5610 C5614 1.385 . S
C5611 H5586 0.951 . S
C5611 C5609 1.388 . S
C5611 C5612 1.366 . S
C5612 C5611 1.366 . S
C5612 C5613 1.414 . S
C5612 C5615 1.499 . S
C5613 H5587 0.950 . S
C5613 C5612 1.414 . S
C5613 C5614 1.374 . S
C5614 H5588 0.950 . S
C5614 C5610 1.385 . S
C5614 C5613 1.374 . S
C5615 C5612 1.499 . S
C5615 C5616 1.373 . S
C5615 C5617 1.389 . S
C5616 H5589 0.950 . S
C5616 C5602 1.377 . S
C5616 C5615 1.373 . S
C5617 C5601 1.377 . S
C5617 C5615 1.389 . S
C5617 C5618 1.524 . S
C5618 C5617 1.524 . S
C5618 C5619 1.397 . S
C5618 C5623 1.363 . S
C5619 H5590 0.950 . S
C5619 C5618 1.397 . S
C5619 C5620 1.334 . S
C5620 H5591 0.950 . S
C5620 C5619 1.334 . S
C5620 C5621 1.287 . S
C5621 C5620 1.287 . S
C5621 C5622 1.524 . S
C5621 H5624 0.999 . S
C5622 H5592 0.950 . S
C5622 C5621 1.524 . S
C5622 C5623 1.415 . S
C5623 H5593 0.950 . S
C5623 C5618 1.363 . S
C5623 C5622 1.415 . S
H5624 C5621 0.999 . S
H5625 C5606 0.913 . S
H5626 C5644 0.951 . S
H5627 C5646 0.951 . S
H5628 C5648 0.950 1_556 S
H5629 C5649 0.950 1_556 S
H5630 C5651 0.901 1_556 S
H5631 C5654 0.950 . S
H5632 C5655 0.950 . S
H5633 C5657 0.950 . S
H5634 C5658 0.950 . S
H5635 C5659 0.951 1_556 S
H5636 C5661 0.951 1_556 S
H5637 C5663 0.950 . S
H5638 C5664 0.950 . S
H5639 C5666 0.950 . S
H5640 C5669 0.897 1_554 S
H5641 C5670 0.950 . S
H5642 C5672 0.950 . S
H5643 C5673 0.950 . S
C5644 H5626 0.951 . S
C5644 C5645 1.366 . S
C5644 C5646 1.388 . S
C5645 C5644 1.366 . S
C5645 C5649 1.385 . S
C5646 H5627 0.951 . S
C5646 C5644 1.388 . S
C5646 C5647 1.366 . S
C5647 C5646 1.366 . S
C5647 C5648 1.414 . S
C5647 C5650 1.499 . S
C5648 H5628 0.950 1_554 S
C5648 C5647 1.414 . S
C5648 C5649 1.374 . S
C5649 H5629 0.950 1_554 S
C5649 C5645 1.385 . S
C5649 C5648 1.374 . S
C5650 C5647 1.499 . S
C5650 C5651 1.373 . S
C5650 C5652 1.389 . S
C5651 H5630 0.901 1_554 S
C5651 C5650 1.373 . S
C5651 C5667 1.377 . S
C5652 C5650 1.389 . S
C5652 C5653 1.524 . S
C5652 C5666 1.377 . S
C5653 C5652 1.524 . S
C5653 C5654 1.397 . S
C5653 C5658 1.363 . S
C5654 H5631 0.950 . S
C5654 C5653 1.397 . S
C5654 C5655 1.334 . S
C5655 H5632 0.950 . S
C5655 C5654 1.334 . S
C5655 C5656 1.287 . S
C5656 C5655 1.287 . S
C5656 C5657 1.524 . S
C5656 H5675 0.913 . S
C5657 H5633 0.950 . S
C5657 C5656 1.524 . S
C5657 C5658 1.415 . S
C5658 H5634 0.950 . S
C5658 C5653 1.363 . S
C5658 C5657 1.415 . S
C5659 H5635 0.951 1_554 S
C5659 C5660 1.366 . S
C5659 C5661 1.388 . S
C5660 C5659 1.366 . S
C5660 C5664 1.385 . S
C5661 H5636 0.951 1_554 S
C5661 C5659 1.388 . S
C5661 C5662 1.366 . S
C5662 C5661 1.366 . S
C5662 C5663 1.414 . S
C5662 C5665 1.499 . S
C5663 H5637 0.950 . S
C5663 C5662 1.414 . S
C5663 C5664 1.374 . S
C5664 H5638 0.950 . S
C5664 C5660 1.385 . S
C5664 C5663 1.374 . S
C5665 C5662 1.499 . S
C5665 C5666 1.373 . S
C5665 C5667 1.389 . S
C5666 H5639 0.950 . S
C5666 C5652 1.377 . S
C5666 C5665 1.373 . S
C5667 C5651 1.377 . S
C5667 C5665 1.389 . S
C5667 C5668 1.524 1_554 S
C5668 C5667 1.524 1_556 S
C5668 C5669 1.411 . S
C5668 C5673 1.363 . S
C5669 H5640 0.897 1_556 S
C5669 C5668 1.411 . S
C5669 C5670 1.373 . S
C5670 H5641 0.950 . S
C5670 C5669 1.373 . S
C5670 C5671 1.287 . S
C5671 C5670 1.287 . S
C5671 C5672 1.524 . S
C5671 H5674 0.999 . S
C5672 H5642 0.950 . S
C5672 C5671 1.524 . S
C5672 C5673 1.415 . S
C5673 H5643 0.950 . S
C5673 C5668 1.363 . S
C5673 C5672 1.415 . S
H5674 C5671 0.999 . S
H5675 C5656 0.913 . S
H5676 C5694 0.951 . S
H5677 C5696 0.951 . S
H5678 C5698 0.950 . S
H5679 C5699 0.950 . S
H5680 C5701 0.950 . S
H5681 C5704 0.950 . S
H5682 C5705 0.950 . S
H5683 C5707 0.950 . S
H5684 C5708 0.950 . S
H5685 C5709 0.951 . S
H5686 C5711 0.951 . S
H5687 C5713 0.950 . S
H5688 C5714 0.950 . S
H5689 C5716 0.950 . S
H5690 C5719 0.950 . S
H5691 C5720 0.950 . S
H5692 C5722 0.950 . S
H5693 C5723 0.950 . S
C5694 H5676 0.951 . S
C5694 C5695 1.366 . S
C5694 C5696 1.388 . S
C5695 C5694 1.366 . S
C5695 C5699 1.385 . S
C5696 H5677 0.951 . S
C5696 C5694 1.388 . S
C5696 C5697 1.366 . S
C5697 C5696 1.366 . S
C5697 C5698 1.414 . S
C5697 C5700 1.499 . S
C5698 H5678 0.950 . S
C5698 C5697 1.414 . S
C5698 C5699 1.374 . S
C5699 H5679 0.950 . S
C5699 C5695 1.385 . S
C5699 C5698 1.374 . S
C5700 C5697 1.499 . S
C5700 C5701 1.373 . S
C5700 C5702 1.389 . S
C5701 H5680 0.950 . S
C5701 C5700 1.373 . S
C5701 C5717 1.377 . S
C5702 C5700 1.389 . S
C5702 C5703 1.524 . S
C5702 C5716 1.377 . S
C5703 C5702 1.524 . S
C5703 C5704 1.397 . S
C5703 C5708 1.363 . S
C5704 H5681 0.950 . S
C5704 C5703 1.397 . S
C5704 C5705 1.334 . S
C5705 H5682 0.950 . S
C5705 C5704 1.334 . S
C5705 C5706 1.287 . S
C5706 C5705 1.287 . S
C5706 C5707 1.524 . S
C5706 H5725 0.913 . S
C5707 H5683 0.950 . S
C5707 C5706 1.524 . S
C5707 C5708 1.415 . S
C5708 H5684 0.950 . S
C5708 C5703 1.363 . S
C5708 C5707 1.415 . S
C5709 H5685 0.951 . S
C5709 C5710 1.366 . S
C5709 C5711 1.388 . S
C5710 C5709 1.366 . S
C5710 C5714 1.385 . S
C5711 H5686 0.951 . S
C5711 C5709 1.388 . S
C5711 C5712 1.366 . S
C5712 C5711 1.366 . S
C5712 C5713 1.414 . S
C5712 C5715 1.499 . S
C5713 H5687 0.950 . S
C5713 C5712 1.414 . S
C5713 C5714 1.374 . S
C5714 H5688 0.950 . S
C5714 C5710 1.385 . S
C5714 C5713 1.374 . S
C5715 C5712 1.499 . S
C5715 C5716 1.373 . S
C5715 C5717 1.389 . S
C5716 H5689 0.950 . S
C5716 C5702 1.377 . S
C5716 C5715 1.373 . S
C5717 C5701 1.377 . S
C5717 C5715 1.389 . S
C5717 C5718 1.524 . S
C5718 C5717 1.524 . S
C5718 C5719 1.397 . S
C5718 C5723 1.363 . S
C5719 H5690 0.950 . S
C5719 C5718 1.397 . S
C5719 C5720 1.334 . S
C5720 H5691 0.950 . S
C5720 C5719 1.334 . S
C5720 C5721 1.287 . S
C5721 C5720 1.287 . S
C5721 C5722 1.524 . S
C5721 H5724 0.999 . S
C5722 H5692 0.950 . S
C5722 C5721 1.524 . S
C5722 C5723 1.415 . S
C5723 H5693 0.950 . S
C5723 C5718 1.363 . S
C5723 C5722 1.415 . S
H5724 C5721 0.999 . S
H5725 C5706 0.913 . S
H5726 C5744 0.951 . S
H5727 C5746 0.951 . S
H5728 C5748 0.950 . S
H5729 C5749 0.950 . S
H5730 C5751 0.950 . S
H5731 C5754 0.950 . S
H5732 C5755 0.950 . S
H5733 C5757 0.950 . S
H5734 C5758 0.950 . S
H5735 C5759 0.951 . S
H5736 C5761 0.951 . S
H5737 C5763 0.950 . S
H5738 C5764 0.950 . S
H5739 C5766 0.950 . S
H5740 C5769 0.950 . S
H5741 C5770 0.950 . S
H5742 C5772 0.950 . S
H5743 C5773 0.950 . S
C5744 H5726 0.951 . S
C5744 C5745 1.366 . S
C5744 C5746 1.388 . S
C5745 C5744 1.366 . S
C5745 C5749 1.385 . S
C5746 H5727 0.951 . S
C5746 C5744 1.388 . S
C5746 C5747 1.366 . S
C5747 C5746 1.366 . S
C5747 C5748 1.414 . S
C5747 C5750 1.499 . S
C5748 H5728 0.950 . S
C5748 C5747 1.414 . S
C5748 C5749 1.374 . S
C5749 H5729 0.950 . S
C5749 C5745 1.385 . S
C5749 C5748 1.374 . S
C5750 C5747 1.499 . S
C5750 C5751 1.373 . S
C5750 C5752 1.389 . S
C5751 H5730 0.950 . S
C5751 C5750 1.373 . S
C5751 C5767 1.377 . S
C5752 C5750 1.389 . S
C5752 C5753 1.524 . S
C5752 C5766 1.377 . S
C5753 C5752 1.524 . S
C5753 C5754 1.397 . S
C5753 C5758 1.363 . S
C5754 H5731 0.950 . S
C5754 C5753 1.397 . S
C5754 C5755 1.334 . S
C5755 H5732 0.950 . S
C5755 C5754 1.334 . S
C5755 C5756 1.287 . S
C5756 C5755 1.287 . S
C5756 C5757 1.524 . S
C5756 H5775 0.913 . S
C5757 H5733 0.950 . S
C5757 C5756 1.524 . S
C5757 C5758 1.415 . S
C5758 H5734 0.950 . S
C5758 C5753 1.363 . S
C5758 C5757 1.415 . S
C5759 H5735 0.951 . S
C5759 C5760 1.366 . S
C5759 C5761 1.388 . S
C5760 C5759 1.366 . S
C5760 C5764 1.385 . S
C5761 H5736 0.951 . S
C5761 C5759 1.388 . S
C5761 C5762 1.366 . S
C5762 C5761 1.366 . S
C5762 C5763 1.414 . S
C5762 C5765 1.499 . S
C5763 H5737 0.950 . S
C5763 C5762 1.414 . S
C5763 C5764 1.374 . S
C5764 H5738 0.950 . S
C5764 C5760 1.385 . S
C5764 C5763 1.374 . S
C5765 C5762 1.499 . S
C5765 C5766 1.373 . S
C5765 C5767 1.389 . S
C5766 H5739 0.950 . S
C5766 C5752 1.377 . S
C5766 C5765 1.373 . S
C5767 C5751 1.377 . S
C5767 C5765 1.389 . S
C5767 C5768 1.524 . S
C5768 C5767 1.524 . S
C5768 C5769 1.397 . S
C5768 C5773 1.363 . S
C5769 H5740 0.950 . S
C5769 C5768 1.397 . S
C5769 C5770 1.334 . S
C5770 H5741 0.950 . S
C5770 C5769 1.334 . S
C5770 C5771 1.287 . S
C5771 C5770 1.287 . S
C5771 C5772 1.524 . S
C5771 H5774 0.999 . S
C5772 H5742 0.950 . S
C5772 C5771 1.524 . S
C5772 C5773 1.415 . S
C5773 H5743 0.950 . S
C5773 C5768 1.363 . S
C5773 C5772 1.415 . S
H5774 C5771 0.999 . S
H5775 C5756 0.913 . S
C995 C109 1.676 1_455 S
C1010 C358 1.680 . S
C1045 C65 1.073 . S
C1060 C378 1.053 . S
C1095 C75 0.529 . S
C1110 C425 0.534 . S
C1160 C482 0.962 . S
C1145 C84 0.962 . S
C1195 C25 2.629 . S
C1210 C499 2.621 . S
C1260 C558 1.622 . S
C1245 C28 1.616 . S
C1310 C591 2.730 . S
C1295 C47 2.733 . S
C1345 C9 2.512 . S
C1360 C638 2.494 . S
C1410 C351 1.462 . S
C1395 C233 1.461 . S
C1445 C249 1.236 . S
C1460 C379 1.225 . S
C1510 C418 0.611 . S
C1495 C275 0.602 . S
C1560 C478 2.025 . S
C1545 C173 2.020 . S
C1595 C224 0.271 . S
C1610 C505 0.294 . S
C1660 C551 2.347 . S
C1645 C243 2.359 . S
C1710 C602 0.465 . S
C1695 C266 0.432 1_565 S
C1760 C631 2.239 . S
C1745 C179 2.235 . S
C1810 C362 1.660 . S
C1795 C163 1.676 . S
C1845 C289 2.264 . S
C1860 C658 2.234 . S
C1910 C722 1.099 . S
C1895 C333 1.098 . S
C1960 C758 1.201 1_655 S
C1945 C308 1.187 . S
C1995 C123 1.097 . S
C2010 C642 1.108 . S
C2045 C126 2.602 . S
C2060 C419 2.609 . S
C2095 C327 1.437 . S
C2110 C791 1.447 . S
C2160 C825 0.213 . S
C2145 C299 0.186 . S
C2210 C339 1.693 . S
C2195 C67 1.701 . S
C2260 C831 1.097 . S
C2245 C98 1.099 . S
C2295 C89 0.560 . S
C2310 C442 0.565 . S
C2345 C79 1.014 . S
C2360 C785 1.003 . S
C2410 C518 2.674 . S
C2395 C11 2.682 . S
C2445 C51 1.654 . S
C2460 C699 1.645 . S
C2510 C578 2.788 1_556 S
C2495 C33 2.792 . S
C2560 C859 2.483 . S
C2545 C14 2.501 1_655 S
C2610 C338 1.432 . S
C2595 C140 1.426 . S
C2660 C838 1.272 . S
C2645 C319 1.282 . S
C2695 C112 0.635 . S
C2710 C431 0.640 . S
C2745 C285 2.051 . S
C2760 C779 2.059 . S
C2795 C149 0.302 . S
C2810 C522 0.325 . S
C2860 C698 2.402 . S
C2845 C313 2.415 . S
C2895 C121 0.326 . S
C2910 C585 0.427 1_565 S
C2945 C291 2.279 . S
C2960 C858 2.284 . S
C2995 C182 1.644 . S
C3010 C345 1.632 . S
C3045 C168 2.269 . S
C3060 C671 2.253 . S
C3095 C263 1.130 . S
C3110 C545 1.122 . S
C3145 C247 1.271 . S
C3160 C739 1.259 . S
C3210 C865 1.092 . S
C3195 C277 1.097 . S
C3245 C219 2.647 . S
C3260 C438 2.639 1_565 S
C3310 C458 1.503 . S
C3295 C257 1.494 . S
C3360 C402 0.214 . S
C3345 C201 0.173 . S
C3395 C81 1.681 . S
C3410 C918 1.681 . S
C3460 C818 1.053 . S
C3445 C93 1.073 . S
C3495 C103 0.528 . S
C3510 C945 0.538 . S
C3545 C56 0.962 . S
C3560 C802 0.962 . S
C3595 C53 2.630 . S
C3610 C659 2.621 . S
C3660 C718 1.622 . S
C3645 C0 1.616 1_655 S
C3710 C751 2.729 . S
C3695 C19 2.733 . S
C3760 C878 2.494 . S
C3745 C37 2.512 . S
C3810 C911 1.462 . S
C3795 C261 1.461 . S
C3845 C193 1.236 . S
C3860 C819 1.229 . S
C3910 C938 0.609 . S
C3895 C205 0.601 . S
C3960 C798 2.026 . S
C3945 C215 2.020 . S
C4010 C665 0.292 . S
C3995 C252 0.273 . S
C4045 C187 2.359 . S
C4060 C711 2.343 . S
C4110 C762 0.464 . S
C4095 C196 0.424 . S
C4145 C221 2.235 . S
C4160 C871 2.239 . S
C4210 C922 1.660 . S
C4195 C317 1.677 . S
C4245 C135 2.264 . S
C4260 C498 2.234 . S
C4310 C562 1.099 . S
C4295 C151 1.098 1_565 S
C4360 C598 1.201 1_565 S
C4345 C154 1.188 . S
C4410 C882 1.108 . S
C4395 C305 1.098 . S
C4445 C280 2.603 . S
C4460 C939 2.609 1_655 S
C4510 C471 1.447 . S
C4495 C145 1.437 . S
C4560 C385 0.211 . S
C4545 C117 0.183 . S
C4595 C95 1.702 . S
C4610 C899 1.693 . S
C4660 C391 1.095 . S
C4645 C70 1.091 . S
C4695 C61 0.560 . S
C4710 C962 0.564 . S
C4745 C107 1.013 . S
C4760 C465 0.995 . S
C4795 C39 2.682 . S
C4810 C678 2.674 1_556 S
C4860 C539 1.645 . S
C4845 C23 1.653 . S
C4895 C5 2.792 . S
C4910 C738 2.787 . S
C4945 C42 2.500 . S
C4960 C619 2.483 . S
C5010 C898 1.431 . S
C4995 C322 1.426 . S
C5045 C165 1.282 . S
C5060 C398 1.272 . S
C5110 C951 0.639 . S
C5095 C294 0.634 . S
C5145 C131 2.051 . S
C5160 C459 2.059 . S
C5195 C331 0.303 . S
C5210 C682 0.325 . S
C5260 C538 2.402 . S
C5245 C159 2.415 1_556 S
C5295 C303 0.326 . S
C5310 C745 0.427 . S
C5360 C618 2.284 . S
C5345 C137 2.279 . S
C5410 C905 1.631 . S
C5395 C238 1.643 . S
C5460 C511 2.252 1_665 S
C5445 C210 2.269 . S
C5495 C235 1.131 . S
C5510 C705 1.123 . S
C5560 C579 1.260 . S
C5545 C191 1.270 . S
C5595 C207 1.089 . S
C5610 C625 1.091 . S
C5645 C177 2.647 . S
C5660 C958 2.639 . S
C5710 C778 1.503 . S
C5695 C229 1.494 . S
C5760 C842 0.213 . S
C5745 C271 0.164 . S
