# Generated by pormake.
# Topology pth, (4,4)-cn, num edge types: 1
# Building blocks:
#     Node 0, Type 0, BuildingBlock: QUQFOY_clean_sbu_3, # of connection points: 4
#     Node 1, Type 0, BuildingBlock: QUQFOY_clean_sbu_3, # of connection points: 4
#     Node 2, Type 0, BuildingBlock: QUQFOY_clean_sbu_3, # of connection points: 4
#     Node 3, Type 1, BuildingBlock: MUDLON_clean_sbu_0, # of connection points: 4
#     Node 4, Type 1, BuildingBlock: MUDLON_clean_sbu_0, # of connection points: 4
#     Node 5, Type 1, BuildingBlock: MUDLON_clean_sbu_0, # of connection points: 4
#     Edge 6, Type (0, 1), BuildingBlock: TEMPAE_clean_linker_10, # of connection points: 2
#     Edge 7, Type (0, 1), BuildingBlock: TEMPAE_clean_linker_10, # of connection points: 2
#     Edge 8, Type (0, 1), BuildingBlock: TEMPAE_clean_linker_10, # of connection points: 2
#     Edge 9, Type (0, 1), BuildingBlock: TEMPAE_clean_linker_10, # of connection points: 2
#     Edge 10, Type (0, 1), BuildingBlock: TEMPAE_clean_linker_10, # of connection points: 2
#     Edge 11, Type (0, 1), BuildingBlock: TEMPAE_clean_linker_10, # of connection points: 2
#     Edge 12, Type (0, 1), BuildingBlock: TEMPAE_clean_linker_10, # of connection points: 2
#     Edge 13, Type (0, 1), BuildingBlock: TEMPAE_clean_linker_10, # of connection points: 2
#     Edge 14, Type (0, 1), BuildingBlock: TEMPAE_clean_linker_10, # of connection points: 2
#     Edge 15, Type (0, 1), BuildingBlock: TEMPAE_clean_linker_10, # of connection points: 2
#     Edge 16, Type (0, 1), BuildingBlock: TEMPAE_clean_linker_10, # of connection points: 2
#     Edge 17, Type (0, 1), BuildingBlock: TEMPAE_clean_linker_10, # of connection points: 2
# Relax obj value: 0.015
# Max RMSD: 0.070
# Mean RMSD: 0.054
data_MOF--net-pth--node1-QUQFOY_clean_sbu_3--node2-MUDLON_clean_sbu_0--edge1-TEMPAE_clean_linker_10
_symmetry_space_group_name_H-M    P1
_symmetry_Int_Tables_number       1
_symmetry_cell_setting            triclinic
loop_
_symmetry_equiv_pos_as_xyz
'x, y, z'
_cell_length_a     23.152178
_cell_length_b     23.069921
_cell_length_c     62.923712
_cell_angle_alpha  89.93055
_cell_angle_beta   90.897579
_cell_angle_gamma 120.73518
loop_
_atom_site_label
_atom_site_type_symbol
_atom_site_fract_x
_atom_site_fract_y
_atom_site_fract_z
_atom_type_partial_charge
C0 C 0.99174 0.21795 0.10576 0.0
O1 O 0.96661 0.21892 0.08775 0.0
Cd2 Cd 0.9641 0.15543 0.05719 0.0
O3 O 0.01753 0.18109 0.1087 0.0
Cd4 Cd 0.03566 0.09765 0.08919 0.0
C5 C 0.13195 0.20929 0.0507 0.0
O6 O 0.92781 0.04541 0.07053 0.0
O7 O 0.99156 0.00684 0.06201 0.0
O8 O 0.00962 0.02927 0.12128 0.0
C9 C 0.93617 0.00487 0.05931 0.0
O10 O 0.07897 0.20817 0.0442 0.0
C11 C 0.0666 0.03409 0.12316 0.0
O12 O 0.13084 0.17597 0.06703 0.0
O13 O 0.10943 0.06804 0.10908 0.0
C14 C 0.1726 0.11113 0.43871 0.0
O15 O 0.21242 0.1502 0.42472 0.0
Cd16 Cd 0.17448 0.18189 0.39351 0.0
O17 O 0.11064 0.09349 0.43807 0.0
Cd18 Cd 0.03554 0.12116 0.41673 0.0
C19 C 0.04149 0.02636 0.37701 0.0
O20 O 0.11429 0.23569 0.40351 0.0
O21 O 0.01711 0.18024 0.38787 0.0
O22 O 0.00375 0.15432 0.44932 0.0
C23 C 0.07308 0.23484 0.38976 0.0
O24 O 0.10065 0.07645 0.37451 0.0
C25 C 0.94087 0.11449 0.447 0.0
O26 O 0.00509 0.02634 0.39204 0.0
O27 O 0.92155 0.07612 0.43071 0.0
C28 C 0.89501 0.09587 0.73668 0.0
O29 O 0.89164 0.12496 0.75333 0.0
Cd30 Cd 0.96324 0.14791 0.784 0.0
O31 O 0.94129 0.08172 0.73498 0.0
Cd32 Cd 0.04117 0.09702 0.7558 0.0
C33 C 0.93595 0.98773 0.79246 0.0
O34 O 0.07827 0.20613 0.77363 0.0
O35 O 0.1208 0.14775 0.78533 0.0
O36 O 0.10552 0.13942 0.72322 0.0
C37 C 0.11974 0.2021 0.78609 0.0
O38 O 0.9288 0.03676 0.79799 0.0
C39 C 0.12874 0.1001 0.72337 0.0
O40 O 0.97241 0.99326 0.77668 0.0
O41 O 0.11018 0.05787 0.73846 0.0
Mg42 Mg 0.05655 0.62711 0.25726 0.0
C43 C 0.13209 0.56349 0.27684 0.0
O44 O 0.12317 0.53763 0.25765 0.0
C45 C 0.12047 0.77543 0.24257 0.0
O46 O 0.11002 0.78766 0.26209 0.0
C47 C 0.04981 0.55316 0.21877 0.0
O48 O 0.10767 0.61009 0.21796 0.0
O49 O 0.01199 0.54352 0.23449 0.0
O50 O 0.11551 0.60734 0.28031 0.0
O51 O 0.98812 0.64067 0.27698 0.0
C52 C 0.96026 0.67359 0.27123 0.0
O53 O 0.96227 0.68994 0.25113 0.0
O54 O 0.10904 0.71693 0.23776 0.0
Mg55 Mg 0.49821 0.04756 0.58322 0.0
C56 C 0.41199 0.97907 0.54354 0.0
O57 O 0.46994 0.99544 0.53519 0.0
C58 C 0.59159 0.05918 0.61498 0.0
O59 O 0.61128 0.11883 0.60685 0.0
C60 C 0.40617 0.06254 0.60919 0.0
O61 O 0.37845 -0.00155 0.6041 0.0
O62 O 0.46433 0.10385 0.60209 0.0
O63 O 0.40888 0.98436 0.56356 0.0
O64 O 0.58188 0.09716 0.56117 0.0
C65 C 0.60675 0.05997 0.55762 0.0
O66 O 0.58062 0.00164 0.56732 0.0
O67 O 0.5368 0.00907 0.60796 0.0
Mg68 Mg 0.55751 0.57928 0.9196 0.0
C69 C 0.41647 0.51647 0.90116 0.0
O70 O 0.40163 0.4913 0.92039 0.0
C71 C 0.64052 0.72082 0.93769 0.0
O72 O 0.67122 0.73073 0.9195 0.0
C73 C 0.5282 0.49978 0.95994 0.0
O74 O 0.57256 0.56017 0.96713 0.0
O75 O 0.51778 0.49096 0.93996 0.0
O76 O 0.47727 0.55962 0.89709 0.0
O77 O 0.64536 0.60467 0.90071 0.0
C78 C 0.63794 0.59274 0.88081 0.0
O79 O 0.57692 0.55384 0.873 0.0
O80 O 0.58757 0.66436 0.94093 0.0
C81 C 0.95801 0.29661 0.12091 0.0
C82 C 0.99158 0.26063 0.12337 0.0
C83 C 0.96013 0.33977 0.137 0.0
C84 C 0.99707 0.34758 0.15599 0.0
C85 C 0.0292 0.30978 0.15889 0.0
C86 C 0.02594 0.26665 0.14258 0.0
C87 C 0.92491 0.37893 0.13335 0.0
C88 C 0.06936 0.31695 0.17888 0.0
C89 C 0.07519 0.51558 0.18491 0.0
C90 C 0.03287 0.50057 0.20235 0.0
C91 C 0.0635 0.46638 0.16968 0.0
C92 C 0.00791 0.40025 0.17184 0.0
C93 C 0.96405 0.38483 0.18915 0.0
C94 C 0.97705 0.43528 0.20424 0.0
C95 C 0.11143 0.48506 0.15144 0.0
C96 C 0.90411 0.31488 0.19188 0.0
H97 H 0.93074 0.29187 0.10623 0.0
H98 H 0.05177 0.23888 0.1447 0.0
H99 H 0.89296 0.37327 0.14707 0.0
H100 H 0.96275 0.4334 0.13195 0.0
H101 H 0.89302 0.36235 0.11868 0.0
H102 H 0.08661 0.28001 0.17943 0.0
H103 H 0.11411 0.36854 0.1798 0.0
H104 H 0.03894 0.31008 0.19313 0.0
H105 H 0.11828 0.56594 0.18322 0.0
H106 H 0.94418 0.42328 0.21768 0.0
H107 H 0.08362 0.47463 0.13607 0.0
H108 H 0.13525 0.45379 0.15185 0.0
H109 H 0.15172 0.53906 0.15191 0.0
H110 H 0.87173 0.29926 0.17735 0.0
H111 H 0.87343 0.31168 0.20572 0.0
H112 H 0.92126 0.27828 0.1941 0.0
C113 C 0.91641 0.15523 0.48066 0.0
C114 C 0.89279 0.11331 0.46258 0.0
C115 C 0.87185 0.15353 0.49589 0.0
C116 C 0.80189 0.10888 0.49299 0.0
C117 C 0.7776 0.06781 0.47448 0.0
C118 C 0.82332 0.07044 0.45952 0.0
C119 C 0.89984 0.19792 0.51543 0.0
C120 C 0.70336 0.01954 0.47079 0.0
C121 C 0.6932 0.04068 0.54167 0.0
C122 C 0.66042 0.07772 0.54197 0.0
C123 C 0.74007 0.05136 0.52607 0.0
C124 C 0.7547 0.1003 0.51022 0.0
C125 C 0.7232 0.13927 0.5107 0.0
C126 C 0.67645 0.12765 0.52665 0.0
C127 C 0.77286 0.00908 0.52631 0.0
C128 C 0.73763 0.19194 0.49407 0.0
H129 H 0.96999 0.18882 0.48312 0.0
H130 H 0.80461 0.03823 0.44553 0.0
H131 H 0.87439 0.22713 0.51771 0.0
H132 H 0.89004 0.1661 0.5297 0.0
H133 H 0.95484 0.2337 0.5145 0.0
H134 H 0.69222 0.99503 0.45487 0.0
H135 H 0.68432 0.97966 0.48306 0.0
H136 H 0.67526 0.0464 0.47231 0.0
H137 H 0.6816 0.00235 0.55355 0.0
H138 H 0.65114 0.15627 0.52675 0.0
H139 H 0.82836 0.04211 0.52675 0.0
H140 H 0.75917 0.9783 0.51153 0.0
H141 H 0.75761 0.97467 0.54014 0.0
H142 H 0.79248 0.22827 0.49337 0.0
H143 H 0.7116 0.22022 0.49723 0.0
H144 H 0.7212 0.16747 0.47819 0.0
C145 C 0.91507 0.87265 0.80256 0.0
C146 C 0.89923 0.9236 0.8044 0.0
C147 C 0.88 0.81245 0.81421 0.0
C148 C 0.82738 0.80278 0.8277 0.0
C149 C 0.81113 0.85396 0.82947 0.0
C150 C 0.84736 0.91359 0.81794 0.0
C151 C 0.89931 0.75939 0.81216 0.0
C152 C 0.7549 0.84565 0.84346 0.0
C153 C 0.68053 0.63505 0.84439 0.0
C154 C 0.69357 0.63588 0.86629 0.0
C155 C 0.72664 0.68629 0.83111 0.0
C156 C 0.78764 0.73923 0.83988 0.0
C157 C 0.8041 0.73642 0.86148 0.0
C158 C 0.75673 0.68493 0.87447 0.0
C159 C 0.70688 0.68719 0.80818 0.0
C160 C 0.86912 0.7911 0.87139 0.0
H161 H 0.95526 0.88009 0.79221 0.0
H162 H 0.83429 0.9523 0.81941 0.0
H163 H 0.91336 0.74877 0.82801 0.0
H164 H 0.85578 0.71156 0.80613 0.0
H165 H 0.94205 0.77498 0.80128 0.0
H166 H 0.74818 0.88999 0.84288 0.0
H167 H 0.70689 0.80027 0.83844 0.0
H168 H 0.76525 0.83809 0.86019 0.0
H169 H 0.63222 0.59704 0.83782 0.0
H170 H 0.76773 0.68564 0.89131 0.0
H171 H 0.74972 0.70098 0.79757 0.0
H172 H 0.69224 0.72584 0.80624 0.0
H173 H 0.66379 0.63766 0.80296 0.0
H174 H 0.91177 0.80543 0.86061 0.0
H175 H 0.88018 0.77524 0.88687 0.0
H176 H 0.86561 0.83668 0.87417 0.0
C177 C 0.03015 0.95372 0.15355 0.0
C178 C 0.08205 0.00163 0.14094 0.0
C179 C 0.04345 0.92169 0.17028 0.0
C180 C 0.11049 0.93867 0.17476 0.0
C181 C 0.16333 0.9879 0.16233 0.0
C182 C 0.14842 0.01841 0.14544 0.0
C183 C 0.98551 0.86879 0.18295 0.0
C184 C 0.23549 0.00808 0.16683 0.0
C185 C 0.13547 0.88534 0.22972 0.0
C186 C 0.13021 0.82323 0.22524 0.0
C187 C 0.13303 0.92554 0.21332 0.0
C188 C 0.12433 0.9027 0.19197 0.0
C189 C 0.12272 0.8419 0.18728 0.0
C190 C 0.1262 0.80323 0.20393 0.0
C191 C 0.13624 0.99072 0.21894 0.0
C192 C 0.11301 0.81539 0.16477 0.0
H193 H 0.97875 0.94041 0.15014 0.0
H194 H 0.18884 0.05576 0.13585 0.0
H195 H 0.98344 0.8198 0.18159 0.0
H196 H 0.99299 0.88312 0.20002 0.0
H197 H 0.93638 0.86166 0.17752 0.0
H198 H 0.27103 0.04936 0.15633 0.0
H199 H 0.24912 0.02479 0.18362 0.0
H200 H 0.24189 0.96402 0.16457 0.0
H201 H 0.1389 0.90143 0.24611 0.0
H202 H 0.12231 0.75547 0.20023 0.0
H203 H 0.08609 0.98499 0.21628 0.0
H204 H 0.17207 0.03204 0.20856 0.0
H205 H 0.15168 0.00565 0.2358 0.0
H206 H 0.06211 0.80151 0.15883 0.0
H207 H 0.11831 0.77028 0.1636 0.0
H208 H 0.1499 0.8549 0.15413 0.0
C209 C 0.15704 0.02069 0.4642 0.0
C210 C 0.19851 0.08469 0.45546 0.0
C211 C 0.18279 0.99343 0.47899 0.0
C212 C 0.25108 0.0319 0.48561 0.0
C213 C 0.29251 0.09735 0.47727 0.0
C214 C 0.26599 0.12247 0.46209 0.0
C215 C 0.13752 0.92289 0.48709 0.0
C216 C 0.36515 0.14085 0.48428 0.0
C217 C 0.31788 0.00075 0.53718 0.0
C218 C 0.35854 0.97665 0.52961 0.0
C219 C 0.27945 0.01554 0.52313 0.0
C220 C 0.2803 0.00427 0.50105 0.0
C221 C 0.31628 0.97403 0.49359 0.0
C222 C 0.35574 0.96146 0.50792 0.0
C223 C 0.24283 0.04873 0.53177 0.0
C224 C 0.3168 0.95913 0.47026 0.0
H225 H 0.10498 0.99103 0.45895 0.0
H226 H 0.29811 0.17211 0.45548 0.0
H227 H 0.15765 0.8903 0.48243 0.0
H228 H 0.13636 0.92315 0.5047 0.0
H229 H 0.08526 0.90013 0.48076 0.0
H230 H 0.38947 0.19192 0.47716 0.0
H231 H 0.36874 0.14634 0.50185 0.0
H232 H 0.39381 0.11644 0.47967 0.0
H233 H 0.32002 0.0131 0.5539 0.0
H234 H 0.38676 0.94251 0.50199 0.0
H235 H 0.19106 0.02473 0.52504 0.0
H236 H 0.26947 0.10252 0.52703 0.0
H237 H 0.24011 0.04636 0.54939 0.0
H238 H 0.26519 0.93449 0.46333 0.0
H239 H 0.33793 0.9261 0.46749 0.0
H240 H 0.34776 0.00705 0.46164 0.0
C241 C 0.15316 0.31111 0.80495 0.0
C242 C 0.1616 0.25565 0.80184 0.0
C243 C 0.19137 0.36056 0.82047 0.0
C244 C 0.23923 0.35444 0.83304 0.0
C245 C 0.24852 0.29906 0.82972 0.0
C246 C 0.20956 0.25039 0.81423 0.0
C247 C 0.17997 0.41878 0.82361 0.0
C248 C 0.29931 0.29077 0.84269 0.0
C249 C 0.38666 0.49941 0.8623 0.0
C250 C 0.36656 0.4844 0.88352 0.0
C251 C 0.34389 0.46014 0.8455 0.0
C252 C 0.27935 0.40482 0.84999 0.0
C253 C 0.25686 0.39281 0.87122 0.0
C254 C 0.30077 0.43267 0.88773 0.0
C255 C 0.36977 0.47484 0.82309 0.0
C256 C 0.18813 0.33484 0.87668 0.0
H257 H 0.1161 0.31544 0.79546 0.0
H258 H 0.21661 0.20788 0.81188 0.0
H259 H 0.16236 0.41785 0.83997 0.0
H260 H 0.22787 0.46732 0.82182 0.0
H261 H 0.14228 0.41733 0.81213 0.0
H262 H 0.30135 0.24559 0.83782 0.0
H263 H 0.35009 0.33595 0.84102 0.0
H264 H 0.28661 0.28621 0.85977 0.0
H265 H 0.43724 0.53953 0.85884 0.0
H266 H 0.2845 0.42106 0.90404 0.0
H267 H 0.33151 0.4738 0.81201 0.0
H268 H 0.38013 0.43526 0.81775 0.0
H269 H 0.41681 0.52462 0.82189 0.0
H270 H 0.14915 0.33366 0.86591 0.0
H271 H 0.17482 0.33783 0.89337 0.0
H272 H 0.18702 0.28655 0.8745 0.0
C273 C 0.79527 0.0962 0.72075 0.0
C274 C 0.8451 0.079 0.71911 0.0
C275 C 0.74981 0.0839 0.70393 0.0
C276 C 0.754 0.05349 0.68493 0.0
C277 C 0.80231 0.03345 0.68346 0.0
C278 C 0.84738 0.04655 0.70054 0.0
C279 C 0.69925 0.10632 0.70614 0.0
C280 C 0.80827 0.00072 0.66351 0.0
C281 C 0.60886 0.99632 0.64491 0.0
C282 C 0.6336 0.05314 0.63186 0.0
C283 C 0.64815 0.99449 0.66197 0.0
C284 C 0.7135 0.0506 0.66588 0.0
C285 C 0.73938 0.10678 0.6522 0.0
C286 C 0.69921 0.10734 0.63544 0.0
C287 C 0.61903 0.93361 0.67618 0.0
C288 C 0.80887 0.16755 0.65566 0.0
H289 H 0.79259 0.12079 0.73505 0.0
H290 H 0.88523 0.03247 0.69915 0.0
H291 H 0.71173 0.14851 0.69509 0.0
H292 H 0.64811 0.06457 0.70175 0.0
H293 H 0.69833 0.1235 0.72255 0.0
H294 H 0.84274 0.98094 0.66577 0.0
H295 H 0.75822 0.95871 0.6583 0.0
H296 H 0.82765 0.03816 0.6505 0.0
H297 H 0.55829 0.95425 0.6422 0.0
H298 H 0.7192 0.15116 0.62528 0.0
H299 H 0.61119 0.94786 0.69225 0.0
H300 H 0.6546 0.91507 0.67801 0.0
H301 H 0.57021 0.89183 0.66995 0.0
H302 H 0.81139 0.19185 0.67113 0.0
H303 H 0.82275 0.20564 0.64293 0.0
H304 H 0.84687 0.15188 0.65629 0.0
C305 C 0.89401 0.91373 0.03167 0.0
C306 C 0.88757 0.96346 0.04227 0.0
C307 C 0.8498 0.87583 0.01496 0.0
C308 C 0.79841 0.88856 0.00852 0.0
C309 C 0.7914 0.93846 0.01924 0.0
C310 C 0.83582 0.97503 0.03609 0.0
C311 C 0.85843 0.82246 0.00409 0.0
C312 C 0.73774 0.95396 0.01269 0.0
C313 C 0.73266 0.83132 0.95216 0.0
C314 C 0.67465 0.7686 0.95564 0.0
C315 C 0.77174 0.87246 0.96927 0.0
C316 C 0.75276 0.84997 0.99036 0.0
C317 C 0.6925 0.78826 0.99397 0.0
C318 C 0.65392 0.74855 0.97657 0.0
C319 C 0.83501 0.93854 0.96476 0.0
C320 C 0.67068 0.76233 0.0162 0.0
H321 H 0.93374 0.90441 0.03642 0.0
H322 H 0.83077 0.01368 0.04415 0.0
H323 H 0.81103 0.77294 0.00478 0.0
H324 H 0.8697 0.83507 0.98707 0.0
H325 H 0.89955 0.81736 0.01143 0.0
H326 H 0.73834 0.99363 0.02285 0.0
H327 H 0.745 0.97107 0.99594 0.0
H328 H 0.68737 0.90775 0.01353 0.0
H329 H 0.74883 0.8474 0.93605 0.0
H330 H 0.6092 0.70016 0.97944 0.0
H331 H 0.87956 0.93528 0.96958 0.0
H332 H 0.83652 0.9799 0.97419 0.0
H333 H 0.8392 0.95187 0.94766 0.0
H334 H 0.70727 0.75053 0.0236 0.0
H335 H 0.62004 0.71609 0.01637 0.0
H336 H 0.67003 0.80148 0.02623 0.0
C337 C 0.94848 0.91599 0.36182 0.0
C338 C 0.01622 0.96786 0.36222 0.0
C339 C 0.92519 0.86118 0.34756 0.0
C340 C 0.97087 0.85796 0.33358 0.0
C341 C 0.0392 0.91012 0.33398 0.0
C342 C 0.06085 0.9643 0.34818 0.0
C343 C 0.85188 0.80685 0.3474 0.0
C344 C 0.08989 0.90857 0.31949 0.0
C345 C 0.95313 0.69981 0.30933 0.0
C346 C 0.94422 0.70899 0.28772 0.0
C347 C 0.9559 0.74481 0.32487 0.0
C348 C 0.94895 0.79998 0.31867 0.0
C349 C 0.93273 0.80525 0.29723 0.0
C350 C 0.93069 0.75974 0.28198 0.0
C351 C 0.97307 0.73705 0.34754 0.0
C352 C 0.92376 0.8626 0.29 0.0
H353 H 0.91357 0.91844 0.37253 0.0
H354 H 0.11332 0.00382 0.34837 0.0
H355 H 0.82969 0.80207 0.33128 0.0
H356 H 0.84665 0.75748 0.35125 0.0
H357 H 0.82254 0.81736 0.35897 0.0
H358 H 0.14119 0.953 0.32185 0.0
H359 H 0.09203 0.86223 0.32236 0.0
H360 H 0.07439 0.90721 0.30263 0.0
H361 H 0.96273 0.66022 0.31402 0.0
H362 H 0.92299 0.76692 0.26537 0.0
H363 H 0.94201 0.74584 0.35884 0.0
H364 H 0.02649 0.77524 0.35101 0.0
H365 H 0.96578 0.68624 0.35045 0.0
H366 H 0.89365 0.87205 0.30152 0.0
H367 H 0.89887 0.8525 0.27408 0.0
H368 H 0.97373 0.90934 0.28905 0.0
C369 C 0.18931 0.14632 0.6892 0.0
C370 C 0.17522 0.10368 0.70673 0.0
C371 C 0.23157 0.14881 0.67298 0.0
C372 C 0.26081 0.10797 0.67436 0.0
C373 C 0.24846 0.06643 0.69235 0.0
C374 C 0.20564 0.06459 0.70827 0.0
C375 C 0.243 0.19334 0.65401 0.0
C376 C 0.2789 0.02232 0.6945 0.0
C377 C 0.29987 0.04313 0.62458 0.0
C378 C 0.37015 0.08264 0.62391 0.0
C379 C 0.26372 0.05299 0.64037 0.0
C380 C 0.29868 0.10326 0.65612 0.0
C381 C 0.36951 0.14557 0.655 0.0
C382 C 0.40454 0.13501 0.63877 0.0
C383 C 0.18823 0.00742 0.64071 0.0
C384 C 0.40854 0.19964 0.67153 0.0
H385 H 0.16625 0.17695 0.68791 0.0
H386 H 0.19553 0.03197 0.72184 0.0
H387 H 0.29754 0.22556 0.65101 0.0
H388 H 0.21952 0.16155 0.63962 0.0
H389 H 0.22143 0.22626 0.65616 0.0
H390 H 0.26892 0.99723 0.7102 0.0
H391 H 0.25789 0.98284 0.6819 0.0
H392 H 0.33405 0.05269 0.69231 0.0
H393 H 0.27302 0.00295 0.61299 0.0
H394 H 0.4589 0.16531 0.63838 0.0
H395 H 0.16361 0.03782 0.64166 0.0
H396 H 0.17384 0.97509 0.65501 0.0
H397 H 0.16828 0.97427 0.62642 0.0
H398 H 0.3859 0.23154 0.67364 0.0
H399 H 0.46215 0.23244 0.66729 0.0
H400 H 0.40621 0.17576 0.68706 0.0
C401 C 0.20165 0.29909 0.02462 0.0
C402 C 0.19496 0.24894 0.03871 0.0
C403 C 0.25986 0.33609 0.01264 0.0
C404 C 0.31252 0.32202 0.0145 0.0
C405 C 0.30619 0.27138 0.02865 0.0
C406 C 0.24768 0.2358 0.04074 0.0
C407 C 0.26497 0.39042 0.998 0.0
C408 C 0.36082 0.25429 0.03082 0.0
C409 C 0.42879 0.3853 0.9673 0.0
C410 C 0.48033 0.44821 0.97484 0.0
C411 C 0.37595 0.34143 0.98051 0.0
C412 C 0.3742 0.36129 0.00167 0.0
C413 C 0.42827 0.42275 0.00975 0.0
C414 C 0.48088 0.46518 0.9963 0.0
C415 C 0.3199 0.27572 0.9714 0.0
C416 C 0.42824 0.44613 0.03216 0.0
H417 H 0.16137 0.30986 0.02302 0.0
H418 H 0.24269 0.19676 0.05147 0.0
H419 H 0.31017 0.43955 0.00226 0.0
H420 H 0.27074 0.37858 0.98136 0.0
H421 H 0.22013 0.396 0.9987 0.0
H422 H 0.34814 0.21342 0.04247 0.0
H423 H 0.36954 0.23821 0.01518 0.0
H424 H 0.40872 0.29958 0.03594 0.0
H425 H 0.4281 0.37149 0.95079 0.0
H426 H 0.52051 0.51353 0.00235 0.0
H427 H 0.27414 0.27916 0.96907 0.0
H428 H 0.30719 0.23376 0.98256 0.0
H429 H 0.33319 0.26327 0.95585 0.0
H430 H 0.38827 0.45891 0.03351 0.0
H431 H 0.4771 0.49129 0.03675 0.0
H432 H 0.41691 0.40536 0.04367 0.0
C433 C 0.15727 0.34645 0.37409 0.0
C434 C 0.09109 0.29178 0.37511 0.0
C435 C 0.17483 0.3984 0.35927 0.0
C436 C 0.12492 0.39562 0.34528 0.0
C437 C 0.05781 0.34128 0.34662 0.0
C438 C 0.04183 0.29009 0.36145 0.0
C439 C 0.24689 0.45541 0.35826 0.0
C440 C 0.00286 0.33653 0.33212 0.0
C441 C 0.13673 0.54489 0.31595 0.0
C442 C 0.1456 0.5306 0.29498 0.0
C443 C 0.1347 0.50408 0.33286 0.0
C444 C 0.14212 0.44794 0.32871 0.0
C445 C 0.15689 0.43685 0.30787 0.0
C446 C 0.15837 0.47825 0.29126 0.0
C447 C 0.11925 0.51794 0.35485 0.0
C448 C 0.16598 0.37807 0.30279 0.0
H449 H 0.19564 0.34801 0.38457 0.0
H450 H 0.99051 0.24823 0.36221 0.0
H451 H 0.26793 0.45457 0.34262 0.0
H452 H 0.24954 0.50464 0.35968 0.0
H453 H 0.27892 0.45217 0.37098 0.0
H454 H 0.95287 0.29211 0.33565 0.0
H455 H 0.99973 0.38274 0.33367 0.0
H456 H 0.01469 0.33288 0.31533 0.0
H457 H 0.12726 0.58549 0.31906 0.0
H458 H 0.16603 0.46722 0.27516 0.0
H459 H 0.1525 0.51406 0.36693 0.0
H460 H 0.06669 0.47961 0.35874 0.0
H461 H 0.12503 0.56868 0.35612 0.0
H462 H 0.20023 0.37478 0.3146 0.0
H463 H 0.18641 0.3819 0.28666 0.0
H464 H 0.11673 0.33043 0.30361 0.0
loop_
_geom_bond_atom_site_label_1
_geom_bond_atom_site_label_2
_geom_bond_distance
_geom_bond_site_symmetry_2
_ccdc_geom_bond_type
C0 O1 1.306 . S
C0 O3 1.160 . S
O1 C0 1.306 . S
O1 Cd2 2.228 1_455 S
Cd2 O1 2.228 1_655 S
Cd2 O6 2.273 . S
Cd2 O10 2.277 1_655 S
O3 C0 1.160 . S
O3 Cd4 2.203 . S
Cd4 O3 2.203 . S
Cd4 O6 2.411 1_455 S
Cd4 O7 2.333 . S
Cd4 O8 2.352 . S
Cd4 O12 2.277 . S
Cd4 O13 2.356 . S
C5 O10 1.209 . S
C5 O12 1.226 . S
O6 Cd2 2.273 . S
O6 Cd4 2.411 1_655 S
O6 C9 1.320 . S
O7 Cd4 2.333 . S
O7 C9 1.214 1_455 S
O8 Cd4 2.352 . S
O8 C11 1.258 . S
C9 O6 1.320 . S
C9 O7 1.214 1_655 S
O10 Cd2 2.277 1_455 S
O10 C5 1.209 . S
C11 O8 1.258 . S
C11 O13 1.282 . S
O12 Cd4 2.277 . S
O12 C5 1.226 . S
O13 Cd4 2.356 . S
O13 C11 1.282 . S
C14 O15 1.306 . S
C14 O17 1.160 . S
O15 C14 1.306 . S
O15 Cd16 2.228 . S
Cd16 O15 2.228 . S
Cd16 O20 2.273 . S
Cd16 O24 2.277 . S
O17 C14 1.160 . S
O17 Cd18 2.203 . S
Cd18 O17 2.203 . S
Cd18 O20 2.411 . S
Cd18 O21 2.333 1_455 S
Cd18 O22 2.352 1_455 S
Cd18 O26 2.277 1_445 S
Cd18 O27 2.356 1_455 S
C19 O24 1.208 . S
C19 O26 1.226 1_445 S
O20 Cd16 2.273 . S
O20 Cd18 2.411 . S
O20 C23 1.320 . S
O21 Cd18 2.333 1_655 S
O21 C23 1.214 1_655 S
O22 Cd18 2.352 1_655 S
O22 C25 1.258 . S
C23 O20 1.320 . S
C23 O21 1.214 1_455 S
O24 Cd16 2.277 . S
O24 C19 1.208 . S
C25 O22 1.258 . S
C25 O27 1.282 . S
O26 Cd18 2.277 1_665 S
O26 C19 1.226 1_665 S
O27 Cd18 2.356 1_655 S
O27 C25 1.282 . S
C28 O29 1.306 . S
C28 O31 1.160 . S
O29 C28 1.306 . S
O29 Cd30 2.228 . S
Cd30 O29 2.228 . S
Cd30 O34 2.273 1_655 S
Cd30 O38 2.277 . S
O31 C28 1.160 . S
O31 Cd32 2.203 1_655 S
Cd32 O31 2.203 1_455 S
Cd32 O34 2.411 . S
Cd32 O35 2.333 . S
Cd32 O36 2.352 . S
Cd32 O40 2.277 1_445 S
Cd32 O41 2.356 . S
C33 O38 1.209 . S
C33 O40 1.226 1_545 S
O34 Cd30 2.273 1_455 S
O34 Cd32 2.411 . S
O34 C37 1.320 . S
O35 Cd32 2.333 . S
O35 C37 1.214 . S
O36 Cd32 2.352 . S
O36 C39 1.258 . S
C37 O34 1.320 . S
C37 O35 1.214 . S
O38 Cd30 2.277 . S
O38 C33 1.209 . S
C39 O36 1.258 . S
C39 O41 1.282 . S
O40 Cd32 2.277 1_665 S
O40 C33 1.226 1_565 S
O41 Cd32 2.356 . S
O41 C39 1.282 . S
Mg42 O49 2.141 . S
Mg42 O50 2.048 . S
Mg42 O51 2.048 . S
Mg42 O54 2.141 . S
C43 O44 1.313 1_455 S
C43 O50 1.195 . S
O44 C43 1.313 1_655 S
C45 O46 1.245 1_455 S
C45 O54 1.289 . S
O46 C45 1.245 1_655 S
C47 O48 1.245 1_455 S
C47 O49 1.289 . S
O48 C47 1.245 1_655 S
O49 Mg42 2.141 . S
O49 C47 1.289 . S
O50 Mg42 2.048 . S
O50 C43 1.195 . S
O51 Mg42 2.048 . S
O51 C52 1.195 . S
C52 O51 1.195 . S
C52 O53 1.313 1_455 S
O53 C52 1.313 1_655 S
O54 Mg42 2.141 . S
O54 C45 1.289 . S
Mg55 O62 2.141 . S
Mg55 O63 2.048 . S
Mg55 O64 2.048 . S
Mg55 O67 2.141 . S
C56 O57 1.313 . S
C56 O63 1.195 . S
O57 C56 1.313 . S
C58 O59 1.245 . S
C58 O67 1.289 . S
O59 C58 1.245 . S
C60 O61 1.245 . S
C60 O62 1.289 . S
O61 C60 1.245 . S
O62 Mg55 2.141 . S
O62 C60 1.289 . S
O63 Mg55 2.048 . S
O63 C56 1.195 . S
O64 Mg55 2.048 . S
O64 C65 1.195 . S
C65 O64 1.195 . S
C65 O66 1.313 . S
O66 C65 1.313 . S
O67 Mg55 2.141 . S
O67 C58 1.289 . S
Mg68 O75 2.141 . S
Mg68 O76 2.048 . S
Mg68 O77 2.048 . S
Mg68 O80 2.141 . S
C69 O70 1.313 . S
C69 O76 1.195 . S
O70 C69 1.313 . S
C71 O72 1.245 . S
C71 O80 1.289 . S
O72 C71 1.245 . S
C73 O74 1.245 . S
C73 O75 1.289 . S
O74 C73 1.245 . S
O75 Mg68 2.141 . S
O75 C73 1.289 . S
O76 Mg68 2.048 . S
O76 C69 1.195 . S
O77 Mg68 2.048 . S
O77 C78 1.195 . S
C78 O77 1.195 . S
C78 O79 1.313 . S
O79 C78 1.313 . S
O80 Mg68 2.141 . S
O80 C71 1.289 . S
C81 C82 1.391 1_655 S
C81 C83 1.394 . S
C81 H97 0.931 . S
C82 C81 1.391 1_455 S
C82 C86 1.376 . S
C83 C81 1.394 . S
C83 C84 1.369 1_655 S
C83 C87 1.531 . S
C84 C83 1.369 1_455 S
C84 C85 1.410 . S
C84 C92 1.503 . S
C85 C84 1.410 . S
C85 C86 1.392 . S
C85 C88 1.511 . S
C86 C82 1.376 . S
C86 C85 1.392 . S
C86 H98 0.929 . S
C87 C83 1.531 . S
C87 H99 0.960 . S
C87 H100 0.962 . S
C87 H101 0.960 . S
C88 C85 1.511 . S
C88 H102 0.961 . S
C88 H103 0.961 . S
C88 H104 0.961 . S
C89 C90 1.370 . S
C89 C91 1.363 . S
C89 H105 0.931 . S
C90 C89 1.370 . S
C90 C94 1.408 . S
C91 C89 1.363 . S
C91 C92 1.370 . S
C91 C95 1.524 . S
C92 C84 1.503 . S
C92 C91 1.370 . S
C92 C93 1.403 . S
C93 C92 1.403 . S
C93 C94 1.404 . S
C93 C96 1.539 . S
C94 C90 1.408 . S
C94 C93 1.404 . S
C94 H106 0.930 . S
C95 C91 1.524 . S
C95 H107 0.956 1_455 S
C95 H108 0.961 . S
C95 H109 0.961 . S
C96 C93 1.539 . S
C96 H110 0.958 . S
C96 H111 0.961 . S
C96 H112 0.960 . S
H97 C81 0.931 . S
H98 C86 0.929 . S
H99 C87 0.960 . S
H100 C87 0.962 . S
H101 C87 0.960 . S
H102 C88 0.961 . S
H103 C88 0.961 . S
H104 C88 0.961 . S
H105 C89 0.931 . S
H106 C94 0.930 . S
H107 C95 0.956 1_655 S
H108 C95 0.961 . S
H109 C95 0.961 . S
H110 C96 0.958 . S
H111 C96 0.961 . S
H112 C96 0.960 . S
C113 C114 1.391 . S
C113 C115 1.394 . S
C113 H129 0.931 . S
C114 C113 1.391 . S
C114 C118 1.376 . S
C115 C113 1.394 . S
C115 C116 1.369 . S
C115 C119 1.531 . S
C116 C115 1.369 . S
C116 C117 1.410 . S
C116 C124 1.503 . S
C117 C116 1.410 . S
C117 C118 1.392 . S
C117 C120 1.511 . S
C118 C114 1.376 . S
C118 C117 1.392 . S
C118 H130 0.929 . S
C119 C115 1.531 . S
C119 H131 0.960 . S
C119 H132 0.962 . S
C119 H133 0.960 . S
C120 C117 1.511 . S
C120 H134 0.961 . S
C120 H135 0.961 . S
C120 H136 0.961 . S
C121 C122 1.370 . S
C121 C123 1.363 . S
C121 H137 0.938 . S
C122 C121 1.370 . S
C122 C126 1.408 . S
C123 C121 1.363 . S
C123 C124 1.370 . S
C123 C127 1.524 1_545 S
C124 C116 1.503 . S
C124 C123 1.370 . S
C124 C125 1.403 . S
C125 C124 1.403 . S
C125 C126 1.404 . S
C125 C128 1.539 . S
C126 C122 1.408 . S
C126 C125 1.404 . S
C126 H138 0.930 . S
C127 C123 1.524 1_565 S
C127 H139 0.956 . S
C127 H140 0.961 . S
C127 H141 0.961 . S
C128 C125 1.539 . S
C128 H142 0.958 . S
C128 H143 0.961 . S
C128 H144 0.960 . S
H129 C113 0.931 . S
H130 C118 0.929 . S
H131 C119 0.960 . S
H132 C119 0.962 . S
H133 C119 0.960 . S
H134 C120 0.961 . S
H135 C120 0.961 . S
H136 C120 0.961 . S
H137 C121 0.938 . S
H138 C126 0.930 . S
H139 C127 0.956 . S
H140 C127 0.961 . S
H141 C127 0.961 . S
H142 C128 0.958 . S
H143 C128 0.961 . S
H144 C128 0.960 . S
C145 C146 1.391 . S
C145 C147 1.394 . S
C145 H161 0.931 . S
C146 C145 1.391 . S
C146 C150 1.376 . S
C147 C145 1.394 . S
C147 C148 1.369 . S
C147 C151 1.531 . S
C148 C147 1.369 . S
C148 C149 1.410 . S
C148 C156 1.503 . S
C149 C148 1.410 . S
C149 C150 1.392 . S
C149 C152 1.511 . S
C150 C146 1.376 . S
C150 C149 1.392 . S
C150 H162 0.929 1_565 S
C151 C147 1.531 . S
C151 H163 0.960 . S
C151 H164 0.962 . S
C151 H165 0.960 . S
C152 C149 1.511 . S
C152 H166 0.961 . S
C152 H167 0.961 . S
C152 H168 0.961 . S
C153 C154 1.370 . S
C153 C155 1.363 . S
C153 H169 0.931 . S
C154 C153 1.370 . S
C154 C158 1.408 . S
C155 C153 1.363 . S
C155 C156 1.370 . S
C155 C159 1.524 . S
C156 C148 1.503 . S
C156 C155 1.370 . S
C156 C157 1.403 . S
C157 C156 1.403 . S
C157 C158 1.404 . S
C157 C160 1.539 . S
C158 C154 1.408 . S
C158 C157 1.404 . S
C158 H170 0.930 . S
C159 C155 1.524 . S
C159 H171 0.956 . S
C159 H172 0.961 . S
C159 H173 0.961 . S
C160 C157 1.539 . S
C160 H174 0.958 . S
C160 H175 0.961 . S
C160 H176 0.960 . S
H161 C145 0.931 . S
H162 C150 0.929 1_545 S
H163 C151 0.960 . S
H164 C151 0.962 . S
H165 C151 0.960 . S
H166 C152 0.961 . S
H167 C152 0.961 . S
H168 C152 0.961 . S
H169 C153 0.931 . S
H170 C158 0.930 . S
H171 C159 0.956 . S
H172 C159 0.961 . S
H173 C159 0.961 . S
H174 C160 0.958 . S
H175 C160 0.961 . S
H176 C160 0.960 . S
C177 C178 1.391 1_655 S
C177 C179 1.394 . S
C177 H193 0.931 . S
C178 C177 1.391 1_455 S
C178 C182 1.376 . S
C179 C177 1.394 . S
C179 C180 1.369 1_655 S
C179 C183 1.531 . S
C180 C179 1.369 1_455 S
C180 C181 1.410 . S
C180 C188 1.503 . S
C181 C180 1.410 . S
C181 C182 1.392 . S
C181 C184 1.511 . S
C182 C178 1.376 . S
C182 C181 1.392 . S
C182 H194 0.934 . S
C183 C179 1.531 . S
C183 H195 0.960 . S
C183 H196 0.962 . S
C183 H197 0.960 . S
C184 C181 1.511 . S
C184 H198 0.961 . S
C184 H199 0.961 . S
C184 H200 0.961 . S
C185 C186 1.370 . S
C185 C187 1.363 . S
C185 H201 0.931 . S
C186 C185 1.370 . S
C186 C190 1.408 . S
C187 C185 1.363 . S
C187 C188 1.370 . S
C187 C191 1.524 . S
C188 C180 1.503 . S
C188 C187 1.370 . S
C188 C189 1.403 . S
C189 C188 1.403 . S
C189 C190 1.404 . S
C189 C192 1.539 . S
C190 C186 1.408 . S
C190 C189 1.404 . S
C190 H202 0.930 . S
C191 C187 1.524 . S
C191 H203 0.956 . S
C191 H204 0.961 . S
C191 H205 0.961 . S
C192 C189 1.539 . S
C192 H206 0.958 . S
C192 H207 0.961 . S
C192 H208 0.960 . S
H193 C177 0.931 . S
H194 C182 0.934 . S
H195 C183 0.960 . S
H196 C183 0.962 . S
H197 C183 0.960 . S
H198 C184 0.961 . S
H199 C184 0.961 . S
H200 C184 0.961 . S
H201 C185 0.931 . S
H202 C190 0.930 . S
H203 C191 0.956 . S
H204 C191 0.961 . S
H205 C191 0.961 . S
H206 C192 0.958 . S
H207 C192 0.961 . S
H208 C192 0.960 . S
C209 C210 1.391 . S
C209 C211 1.394 . S
C209 H225 0.931 . S
C210 C209 1.391 . S
C210 C214 1.376 . S
C211 C209 1.394 . S
C211 C212 1.369 . S
C211 C215 1.531 . S
C212 C211 1.369 . S
C212 C213 1.410 . S
C212 C220 1.503 . S
C213 C212 1.410 . S
C213 C214 1.392 . S
C213 C216 1.511 . S
C214 C210 1.376 . S
C214 C213 1.392 . S
C214 H226 0.929 . S
C215 C211 1.531 . S
C215 H227 0.960 . S
C215 H228 0.962 . S
C215 H229 0.960 . S
C216 C213 1.511 . S
C216 H230 0.961 . S
C216 H231 0.961 . S
C216 H232 0.961 . S
C217 C218 1.370 . S
C217 C219 1.363 . S
C217 H233 0.931 . S
C218 C217 1.370 . S
C218 C222 1.408 . S
C219 C217 1.363 . S
C219 C220 1.370 . S
C219 C223 1.524 . S
C220 C212 1.503 . S
C220 C219 1.370 . S
C220 C221 1.403 . S
C221 C220 1.403 . S
C221 C222 1.404 . S
C221 C224 1.539 1_545 S
C222 C218 1.408 . S
C222 C221 1.404 . S
C222 H234 0.930 1_545 S
C223 C219 1.524 . S
C223 H235 0.956 . S
C223 H236 0.961 . S
C223 H237 0.961 . S
C224 C221 1.539 1_565 S
C224 H238 0.958 . S
C224 H239 0.961 . S
C224 H240 0.960 . S
H225 C209 0.931 . S
H226 C214 0.929 . S
H227 C215 0.960 . S
H228 C215 0.962 . S
H229 C215 0.960 . S
H230 C216 0.961 . S
H231 C216 0.961 . S
H232 C216 0.961 . S
H233 C217 0.931 . S
H234 C222 0.930 1_565 S
H235 C223 0.956 . S
H236 C223 0.961 . S
H237 C223 0.961 . S
H238 C224 0.958 . S
H239 C224 0.961 . S
H240 C224 0.960 . S
C241 C242 1.391 . S
C241 C243 1.394 . S
C241 H257 0.931 . S
C242 C241 1.391 . S
C242 C246 1.376 . S
C243 C241 1.394 . S
C243 C244 1.369 . S
C243 C247 1.531 . S
C244 C243 1.369 . S
C244 C245 1.410 . S
C244 C252 1.503 . S
C245 C244 1.410 . S
C245 C246 1.392 . S
C245 C248 1.511 . S
C246 C242 1.376 . S
C246 C245 1.392 . S
C246 H258 0.929 . S
C247 C243 1.531 . S
C247 H259 0.960 . S
C247 H260 0.962 . S
C247 H261 0.960 . S
C248 C245 1.511 . S
C248 H262 0.961 . S
C248 H263 0.961 . S
C248 H264 0.961 . S
C249 C250 1.370 . S
C249 C251 1.363 . S
C249 H265 0.931 . S
C250 C249 1.370 . S
C250 C254 1.408 . S
C251 C249 1.363 . S
C251 C252 1.370 . S
C251 C255 1.524 . S
C252 C244 1.503 . S
C252 C251 1.370 . S
C252 C253 1.403 . S
C253 C252 1.403 . S
C253 C254 1.404 . S
C253 C256 1.539 . S
C254 C250 1.408 . S
C254 C253 1.404 . S
C254 H266 0.930 . S
C255 C251 1.524 . S
C255 H267 0.956 . S
C255 H268 0.961 . S
C255 H269 0.961 . S
C256 C253 1.539 . S
C256 H270 0.958 . S
C256 H271 0.961 . S
C256 H272 0.960 . S
H257 C241 0.931 . S
H258 C246 0.929 . S
H259 C247 0.960 . S
H260 C247 0.962 . S
H261 C247 0.960 . S
H262 C248 0.961 . S
H263 C248 0.961 . S
H264 C248 0.961 . S
H265 C249 0.931 . S
H266 C254 0.930 . S
H267 C255 0.956 . S
H268 C255 0.961 . S
H269 C255 0.961 . S
H270 C256 0.958 . S
H271 C256 0.961 . S
H272 C256 0.960 . S
C273 C274 1.391 . S
C273 C275 1.394 . S
C273 H289 0.931 . S
C274 C273 1.391 . S
C274 C278 1.376 . S
C275 C273 1.394 . S
C275 C276 1.369 . S
C275 C279 1.531 . S
C276 C275 1.369 . S
C276 C277 1.410 . S
C276 C284 1.503 . S
C277 C276 1.410 . S
C277 C278 1.392 . S
C277 C280 1.511 1_545 S
C278 C274 1.376 . S
C278 C277 1.392 . S
C278 H290 0.929 . S
C279 C275 1.531 . S
C279 H291 0.960 . S
C279 H292 0.962 . S
C279 H293 0.960 . S
C280 C277 1.511 1_565 S
C280 H294 0.961 . S
C280 H295 0.961 . S
C280 H296 0.961 . S
C281 C282 1.370 . S
C281 C283 1.363 . S
C281 H297 0.931 . S
C282 C281 1.370 . S
C282 C286 1.408 . S
C283 C281 1.363 . S
C283 C284 1.370 . S
C283 C287 1.524 . S
C284 C276 1.503 . S
C284 C283 1.370 . S
C284 C285 1.403 . S
C285 C284 1.403 . S
C285 C286 1.404 . S
C285 C288 1.539 . S
C286 C282 1.408 . S
C286 C285 1.404 . S
C286 H298 0.930 . S
C287 C283 1.524 . S
C287 H299 0.956 . S
C287 H300 0.961 . S
C287 H301 0.961 . S
C288 C285 1.539 . S
C288 H302 0.958 . S
C288 H303 0.961 . S
C288 H304 0.960 . S
H289 C273 0.931 . S
H290 C278 0.929 . S
H291 C279 0.960 . S
H292 C279 0.962 . S
H293 C279 0.960 . S
H294 C280 0.961 . S
H295 C280 0.961 . S
H296 C280 0.961 . S
H297 C281 0.931 . S
H298 C286 0.930 . S
H299 C287 0.956 . S
H300 C287 0.961 . S
H301 C287 0.961 . S
H302 C288 0.958 . S
H303 C288 0.961 . S
H304 C288 0.960 . S
C305 C306 1.391 . S
C305 C307 1.394 . S
C305 H321 0.931 . S
C306 C305 1.391 . S
C306 C310 1.376 1_565 S
C307 C305 1.394 . S
C307 C308 1.369 . S
C307 C311 1.531 . S
C308 C307 1.369 . S
C308 C309 1.410 . S
C308 C316 1.503 1_554 S
C309 C308 1.410 . S
C309 C310 1.392 1_565 S
C309 C312 1.511 1_554 S
C310 C306 1.376 1_545 S
C310 C309 1.392 1_545 S
C310 H322 0.929 . S
C311 C307 1.531 . S
C311 H323 0.960 . S
C311 H324 0.962 . S
C311 H325 0.960 . S
C312 C309 1.511 1_556 S
C312 H326 0.961 1_565 S
C312 H327 0.961 . S
C312 H328 0.960 . S
C313 C314 1.370 . S
C313 C315 1.363 . S
C313 H329 0.931 . S
C314 C313 1.370 . S
C314 C318 1.408 . S
C315 C313 1.363 . S
C315 C316 1.370 . S
C315 C319 1.524 . S
C316 C308 1.503 1_556 S
C316 C315 1.370 . S
C316 C317 1.405 . S
C317 C316 1.405 . S
C317 C318 1.430 . S
C317 C320 1.513 1_556 S
C318 C314 1.408 . S
C318 C317 1.430 . S
C318 H330 0.930 . S
C319 C315 1.524 . S
C319 H331 0.956 . S
C319 H332 0.961 . S
C319 H333 0.961 . S
C320 C317 1.513 1_554 S
C320 H334 0.958 . S
C320 H335 0.961 . S
C320 H336 0.960 . S
H321 C305 0.931 . S
H322 C310 0.929 . S
H323 C311 0.960 . S
H324 C311 0.962 . S
H325 C311 0.960 . S
H326 C312 0.961 1_545 S
H327 C312 0.961 . S
H328 C312 0.960 . S
H329 C313 0.931 . S
H330 C318 0.930 . S
H331 C319 0.956 . S
H332 C319 0.961 . S
H333 C319 0.961 . S
H334 C320 0.958 . S
H335 C320 0.961 . S
H336 C320 0.960 . S
C337 C338 1.387 . S
C337 C339 1.402 . S
C337 H353 0.927 1_455 S
C338 C337 1.387 . S
C338 C342 1.376 . S
C339 C337 1.402 . S
C339 C340 1.369 . S
C339 C343 1.531 1_455 S
C340 C339 1.369 . S
C340 C341 1.410 . S
C340 C348 1.503 . S
C341 C340 1.410 . S
C341 C342 1.392 . S
C341 C344 1.511 . S
C342 C338 1.376 . S
C342 C341 1.392 . S
C342 H354 0.929 1_565 S
C343 C339 1.531 1_655 S
C343 H355 0.960 . S
C343 H356 0.962 1_655 S
C343 H357 0.960 . S
C344 C341 1.511 . S
C344 H358 0.961 . S
C344 H359 0.961 . S
C344 H360 0.961 . S
C345 C346 1.370 . S
C345 C347 1.363 . S
C345 H361 0.931 . S
C346 C345 1.370 . S
C346 C350 1.408 1_455 S
C347 C345 1.363 . S
C347 C348 1.370 . S
C347 C351 1.524 . S
C348 C340 1.503 . S
C348 C347 1.370 . S
C348 C349 1.403 1_455 S
C349 C348 1.403 1_655 S
C349 C350 1.404 . S
C349 C352 1.539 . S
C350 C346 1.408 1_655 S
C350 C349 1.404 . S
C350 H362 0.930 . S
C351 C347 1.524 . S
C351 H363 0.956 . S
C351 H364 0.961 . S
C351 H365 0.961 . S
C352 C349 1.539 . S
C352 H366 0.958 . S
C352 H367 0.961 . S
C352 H368 0.960 . S
H353 C337 0.927 1_655 S
H354 C342 0.929 1_545 S
H355 C343 0.960 . S
H356 C343 0.962 1_455 S
H357 C343 0.960 . S
H358 C344 0.961 . S
H359 C344 0.961 . S
H360 C344 0.961 . S
H361 C345 0.931 . S
H362 C350 0.930 . S
H363 C351 0.956 . S
H364 C351 0.961 . S
H365 C351 0.961 . S
H366 C352 0.958 . S
H367 C352 0.961 . S
H368 C352 0.960 . S
C369 C370 1.391 . S
C369 C371 1.394 . S
C369 H385 0.931 . S
C370 C369 1.391 . S
C370 C374 1.376 . S
C371 C369 1.394 . S
C371 C372 1.369 . S
C371 C375 1.531 . S
C372 C371 1.369 . S
C372 C373 1.410 . S
C372 C380 1.503 . S
C373 C372 1.410 . S
C373 C374 1.392 . S
C373 C376 1.511 . S
C374 C370 1.376 . S
C374 C373 1.392 . S
C374 H386 0.929 . S
C375 C371 1.531 . S
C375 H387 0.960 . S
C375 H388 0.962 . S
C375 H389 0.960 . S
C376 C373 1.511 . S
C376 H390 0.961 . S
C376 H391 0.961 . S
C376 H392 0.961 . S
C377 C378 1.370 . S
C377 C379 1.363 . S
C377 H393 0.931 . S
C378 C377 1.370 . S
C378 C382 1.408 . S
C379 C377 1.363 . S
C379 C380 1.370 . S
C379 C383 1.524 1_545 S
C380 C372 1.503 . S
C380 C379 1.370 . S
C380 C381 1.403 . S
C381 C380 1.403 . S
C381 C382 1.404 . S
C381 C384 1.539 . S
C382 C378 1.408 . S
C382 C381 1.404 . S
C382 H394 0.930 . S
C383 C379 1.524 1_565 S
C383 H395 0.956 1_565 S
C383 H396 0.961 . S
C383 H397 0.961 . S
C384 C381 1.539 . S
C384 H398 0.958 . S
C384 H399 0.961 . S
C384 H400 0.960 . S
H385 C369 0.931 . S
H386 C374 0.929 . S
H387 C375 0.960 . S
H388 C375 0.962 . S
H389 C375 0.960 . S
H390 C376 0.961 . S
H391 C376 0.961 . S
H392 C376 0.961 . S
H393 C377 0.931 . S
H394 C382 0.930 . S
H395 C383 0.956 1_545 S
H396 C383 0.961 . S
H397 C383 0.961 . S
H398 C384 0.958 . S
H399 C384 0.961 . S
H400 C384 0.960 . S
C401 C402 1.391 . S
C401 C403 1.394 . S
C401 H417 0.931 . S
C402 C401 1.391 . S
C402 C406 1.376 . S
C403 C401 1.394 . S
C403 C404 1.369 . S
C403 C407 1.531 . S
C404 C403 1.369 . S
C404 C405 1.410 . S
C404 C412 1.503 1_554 S
C405 C404 1.410 . S
C405 C406 1.392 . S
C405 C408 1.511 1_554 S
C406 C402 1.376 . S
C406 C405 1.392 . S
C406 H418 0.929 . S
C407 C403 1.531 . S
C407 H419 0.960 . S
C407 H420 0.962 . S
C407 H421 0.960 . S
C408 C405 1.511 1_556 S
C408 H422 0.961 . S
C408 H423 0.961 . S
C408 H424 0.956 1_556 S
C409 C410 1.370 . S
C409 C411 1.363 . S
C409 H425 0.931 . S
C410 C409 1.370 . S
C410 C414 1.408 . S
C411 C409 1.363 . S
C411 C412 1.370 . S
C411 C415 1.524 . S
C412 C404 1.503 1_556 S
C412 C411 1.370 . S
C412 C413 1.403 1_556 S
C413 C412 1.403 1_554 S
C413 C414 1.407 1_554 S
C413 C416 1.536 . S
C414 C410 1.408 . S
C414 C413 1.407 1_556 S
C414 H426 0.930 . S
C415 C411 1.524 . S
C415 H427 0.956 . S
C415 H428 0.961 . S
C415 H429 0.961 . S
C416 C413 1.536 . S
C416 H430 0.958 . S
C416 H431 0.961 . S
C416 H432 0.960 . S
H417 C401 0.931 . S
H418 C406 0.929 . S
H419 C407 0.960 . S
H420 C407 0.962 . S
H421 C407 0.960 . S
H422 C408 0.961 . S
H423 C408 0.961 . S
H424 C408 0.956 1_554 S
H425 C409 0.931 . S
H426 C414 0.930 . S
H427 C415 0.956 . S
H428 C415 0.961 . S
H429 C415 0.961 . S
H430 C416 0.958 . S
H431 C416 0.961 . S
H432 C416 0.960 . S
C433 C434 1.391 . S
C433 C435 1.394 . S
C433 H449 0.931 . S
C434 C433 1.391 . S
C434 C438 1.376 1_455 S
C435 C433 1.394 . S
C435 C436 1.369 . S
C435 C439 1.531 . S
C436 C435 1.369 . S
C436 C437 1.410 1_455 S
C436 C444 1.503 . S
C437 C436 1.410 1_655 S
C437 C438 1.392 . S
C437 C440 1.511 . S
C438 C434 1.376 1_655 S
C438 C437 1.392 . S
C438 H450 0.929 . S
C439 C435 1.531 . S
C439 H451 0.960 . S
C439 H452 0.962 . S
C439 H453 0.960 . S
C440 C437 1.511 . S
C440 H454 0.961 . S
C440 H455 0.961 . S
C440 H456 0.961 . S
C441 C442 1.370 . S
C441 C443 1.363 . S
C441 H457 0.931 . S
C442 C441 1.370 . S
C442 C446 1.408 . S
C443 C441 1.363 . S
C443 C444 1.370 . S
C443 C447 1.524 . S
C444 C436 1.503 . S
C444 C443 1.370 . S
C444 C445 1.403 . S
C445 C444 1.403 . S
C445 C446 1.404 . S
C445 C448 1.539 1_455 S
C446 C442 1.408 . S
C446 C445 1.404 . S
C446 H458 0.930 . S
C447 C443 1.524 . S
C447 H459 0.956 . S
C447 H460 0.961 . S
C447 H461 0.961 . S
C448 C445 1.539 1_655 S
C448 H462 0.958 1_655 S
C448 H463 0.961 . S
C448 H464 0.960 . S
H449 C433 0.931 . S
H450 C438 0.929 . S
H451 C439 0.960 . S
H452 C439 0.962 . S
H453 C439 0.960 . S
H454 C440 0.961 . S
H455 C440 0.961 . S
H456 C440 0.961 . S
H457 C441 0.931 . S
H458 C446 0.930 . S
H459 C447 0.956 . S
H460 C447 0.961 . S
H461 C447 0.961 . S
H462 C448 0.958 1_455 S
H463 C448 0.961 . S
H464 C448 0.960 . S
C90 C47 1.395 . S
C82 C0 1.405 . S
C114 C25 1.479 . S
C122 C65 1.480 . S
C146 C33 1.496 1_565 S
C154 C78 1.497 . S
C178 C11 1.367 1_565 S
C186 C45 1.360 . S
C218 C56 1.479 . S
C210 C14 1.479 . S
C242 C37 1.482 . S
C250 C69 1.487 . S
C282 C58 1.406 . S
C274 C28 1.417 . S
C306 C9 1.433 1_565 S
C314 C71 1.425 . S
C346 C52 1.506 . S
C338 C19 1.520 1_565 S
C378 C60 1.407 . S
C370 C39 1.410 . S
C410 C73 1.416 . S
C402 C5 1.440 . S
C434 C23 1.528 . S
C442 C43 1.535 . S
