# Generated by pormake.
# Topology nia, (6,6)-cn, num edge types: 1
# Building blocks:
#     Node 0, Type 0, BuildingBlock: BETDAH_clean_sbu_0, # of connection points: 6
#     Node 1, Type 0, BuildingBlock: BETDAH_clean_sbu_0, # of connection points: 6
#     Node 2, Type 1, BuildingBlock: MIDCAF_clean_sbu_0, # of connection points: 6
#     Node 3, Type 1, BuildingBlock: MIDCAF_clean_sbu_0, # of connection points: 6
#     Edge 4, Type (0, 1), BuildingBlock: ZUJKAS_clean_linker_0, # of connection points: 2
#     Edge 5, Type (0, 1), BuildingBlock: ZUJKAS_clean_linker_0, # of connection points: 2
#     Edge 6, Type (0, 1), BuildingBlock: ZUJKAS_clean_linker_0, # of connection points: 2
#     Edge 7, Type (0, 1), BuildingBlock: ZUJKAS_clean_linker_0, # of connection points: 2
#     Edge 8, Type (0, 1), BuildingBlock: ZUJKAS_clean_linker_0, # of connection points: 2
#     Edge 9, Type (0, 1), BuildingBlock: ZUJKAS_clean_linker_0, # of connection points: 2
#     Edge 10, Type (0, 1), BuildingBlock: ZUJKAS_clean_linker_0, # of connection points: 2
#     Edge 11, Type (0, 1), BuildingBlock: ZUJKAS_clean_linker_0, # of connection points: 2
#     Edge 12, Type (0, 1), BuildingBlock: ZUJKAS_clean_linker_0, # of connection points: 2
#     Edge 13, Type (0, 1), BuildingBlock: ZUJKAS_clean_linker_0, # of connection points: 2
#     Edge 14, Type (0, 1), BuildingBlock: ZUJKAS_clean_linker_0, # of connection points: 2
#     Edge 15, Type (0, 1), BuildingBlock: ZUJKAS_clean_linker_0, # of connection points: 2
# Relax obj value: 0.294
# Max RMSD: 0.261
# Mean RMSD: 0.240
data_MOF--net-nia--node1-BETDAH_clean_sbu_0--node2-MIDCAF_clean_sbu_0--edge1-ZUJKAS_clean_linker_0
_symmetry_space_group_name_H-M    P1
_symmetry_Int_Tables_number       1
_symmetry_cell_setting            triclinic
loop_
_symmetry_equiv_pos_as_xyz
'x, y, z'
_cell_length_a     31.871907
_cell_length_b     34.933012
_cell_length_c     43.009987
_cell_angle_alpha  75.434249
_cell_angle_beta   99.274869
_cell_angle_gamma 127.05448
loop_
_atom_site_label
_atom_site_type_symbol
_atom_site_fract_x
_atom_site_fract_y
_atom_site_fract_z
_atom_type_partial_charge
Ho0 Ho 0.06962 0.05259 0.02565 0.0
Ho1 Ho 0.98086 0.95125 0.99933 0.0
C2 C 0.98004 0.04622 0.97523 0.0
C3 C 0.15365 0.13577 0.03488 0.0
C4 C 0.1678 0.16512 0.0588 0.0
C5 C 0.2197 0.20575 0.06163 0.0
C6 C 0.23316 0.23281 0.08515 0.0
C7 C 0.19478 0.21934 0.10614 0.0
C8 C 0.14289 0.17835 0.10322 0.0
C9 C 0.12954 0.15159 0.0797 0.0
C10 C 0.97947 0.9932 0.06136 0.0
C11 C 0.06777 0.95594 0.05172 0.0
C12 C 0.90058 0.86882 0.98706 0.0
C13 C 0.89638 0.84045 0.96517 0.0
C14 C 0.87183 0.7901 0.97528 0.0
C15 C 0.87505 0.76445 0.95666 0.0
C16 C 0.9031 0.78895 0.92772 0.0
C17 C 0.92603 0.83903 0.91715 0.0
C18 C 0.92275 0.86456 0.93569 0.0
C19 C 0.07264 0.01035 0.96484 0.0
O20 O 0.02982 0.07475 0.98467 0.0
O21 O 0.95149 0.99779 0.98284 0.0
O22 O 0.14741 0.09422 0.04641 0.0
O23 O 0.1164 0.13143 0.01447 0.0
O24 O 0.02012 0.03522 0.06719 0.0
O25 O 0.99096 0.98661 0.03766 0.0
O26 O 0.01902 0.9279 0.04062 0.0
O27 O 0.09669 0.00445 0.04487 0.0
O28 O 0.90794 0.91048 0.97337 0.0
O29 O 0.93118 0.87233 0.01223 0.0
O30 O 0.03274 0.9679 0.9593 0.0
O31 O 0.05925 0.01729 0.98742 0.0
H32 H 0.24968 0.21654 0.04566 0.0
H33 H 0.27331 0.2647 0.08654 0.0
H34 H 0.11261 0.16682 0.11923 0.0
H35 H 0.08931 0.12031 0.07787 0.0
H36 H 0.85191 0.77104 0.99812 0.0
H37 H 0.85731 0.72589 0.9655 0.0
H38 H 0.94716 0.85864 0.89473 0.0
H39 H 0.94235 0.90352 0.92739 0.0
Ho40 Ho 0.99747 0.02375 0.52074 0.0
Ho41 Ho 0.05664 0.98732 0.50005 0.0
C42 C 0.95493 0.96693 0.46133 0.0
C43 C 0.96491 0.07451 0.52463 0.0
C44 C 0.94201 0.08011 0.5486 0.0
C45 C 0.92197 0.10758 0.53859 0.0
C46 C 0.90107 0.11461 0.56089 0.0
C47 C 0.89984 0.09427 0.59372 0.0
C48 C 0.91985 0.06648 0.6037 0.0
C49 C 0.94068 0.05932 0.58125 0.0
C50 C 0.96025 0.93079 0.55411 0.0
C51 C 0.09338 0.03501 0.56459 0.0
C52 C 0.10428 0.95008 0.49524 0.0
C53 C 0.12333 0.94188 0.4706 0.0
C54 C 0.14906 0.91952 0.48037 0.0
C55 C 0.16803 0.91136 0.45762 0.0
C56 C 0.16158 0.92545 0.4246 0.0
C57 C 0.1354 0.9477 0.41484 0.0
C58 C 0.11648 0.956 0.43773 0.0
C59 C 0.07672 0.0731 0.46418 0.0
O60 O 0.96307 0.00313 0.47238 0.0
O61 O 0.98111 0.94796 0.4727 0.0
O62 O 0.01382 0.08963 0.52972 0.0
O63 O 0.93517 0.03291 0.51472 0.0
O64 O 0.94429 0.95558 0.55842 0.0
O65 O 0.99468 0.95785 0.53282 0.0
O66 O 0.09301 0.00716 0.54833 0.0
O67 O 0.06278 0.0498 0.55696 0.0
O68 O 0.05315 0.92452 0.49755 0.0
O69 O 0.12892 0.99569 0.49763 0.0
O70 O 0.07603 0.04153 0.45298 0.0
O71 O 0.07008 0.05882 0.49416 0.0
H72 H 0.92297 0.12405 0.51348 0.0
H73 H 0.88684 0.1369 0.55248 0.0
H74 H 0.91914 0.05009 0.62877 0.0
H75 H 0.95598 0.03788 0.58934 0.0
H76 H 0.15439 0.90823 0.50569 0.0
H77 H 0.1871 0.8933 0.46593 0.0
H78 H 0.13007 0.95912 0.38957 0.0
H79 H 0.09664 0.97339 0.42986 0.0
Zn80 Zn 0.36986 0.70926 0.16856 0.0
Zn81 Zn 0.39205 0.67657 0.31339 0.0
Zn82 Zn 0.37903 0.68367 0.25266 0.0
C83 C 0.48997 0.7222 0.28961 0.0
C84 C 0.32125 0.57967 0.30498 0.0
O85 O 0.33861 0.7204 0.23457 0.0
O86 O 0.33535 0.73581 0.18062 0.0
C87 C 0.47672 0.7451 0.20132 0.0
O88 O 0.46407 0.72196 0.2633 0.0
O89 O 0.46661 0.70105 0.31614 0.0
O90 O 0.34007 0.60527 0.32637 0.0
O91 O 0.33215 0.60171 0.27527 0.0
O92 O 0.44839 0.74299 0.17645 0.0
O93 O 0.45726 0.72538 0.22992 0.0
O94 O 0.3447 0.64261 0.21825 0.0
O95 O 0.32423 0.63696 0.16788 0.0
C96 C 0.32325 0.61682 0.19689 0.0
O97 O 0.35005 0.7193 0.26756 0.0
O98 O 0.37515 0.72093 0.31855 0.0
C99 C 0.3252 0.73713 0.20744 0.0
C100 C 0.35422 0.73224 0.29405 0.0
Zn101 Zn 0.6882 0.31841 0.83394 0.0
Zn102 Zn 0.6651 0.3335 0.70967 0.0
Zn103 Zn 0.67534 0.32583 0.77226 0.0
C104 C 0.73146 0.42962 0.71667 0.0
C105 C 0.56489 0.28392 0.73493 0.0
O106 O 0.71373 0.28681 0.792 0.0
O107 O 0.70341 0.26912 0.84458 0.0
C108 C 0.7578 0.4166 0.80434 0.0
O109 O 0.71932 0.40672 0.74627 0.0
O110 O 0.71556 0.40537 0.69476 0.0
O111 O 0.589 0.30471 0.70861 0.0
O112 O 0.59014 0.28608 0.76181 0.0
O113 O 0.75048 0.38787 0.83088 0.0
O114 O 0.72934 0.40047 0.77955 0.0
O115 O 0.59631 0.28622 0.79529 0.0
O116 O 0.61847 0.29851 0.84511 0.0
C117 C 0.58346 0.28234 0.82354 0.0
O118 O 0.70439 0.28887 0.75864 0.0
O119 O 0.68445 0.2899 0.70683 0.0
C120 C 0.71847 0.26609 0.8205 0.0
C121 C 0.70263 0.27696 0.7322 0.0
H122 H 0.02181 0.85776 0.07347 0.0
H123 H 0.0614 0.81921 0.10716 0.0
H124 H 0.20739 0.9613 0.10998 0.0
H125 H 0.16795 0.00018 0.07696 0.0
H126 H 0.14315 0.82204 0.09518 0.0
H127 H 0.19084 0.89998 0.20379 0.0
H128 H 0.14827 0.9041 0.17212 0.0
H129 H 0.21859 0.94603 0.16803 0.0
C130 C 0.06222 0.88092 0.08145 0.0
C131 C 0.09147 0.9322 0.07252 0.0
C132 C 0.08484 0.85876 0.10077 0.0
C133 C 0.13715 0.88726 0.11176 0.0
C134 C 0.16655 0.93843 0.10268 0.0
H135 H 0.36438 0.83255 0.2004 0.0
H136 H 0.31536 0.86775 0.18066 0.0
C137 C 0.14395 0.96064 0.08348 0.0
C138 C 0.16176 0.86344 0.13114 0.0
H139 H 0.23015 0.86051 0.20072 0.0
C140 C 0.16162 0.83007 0.11841 0.0
C141 C 0.18618 0.874 0.16147 0.0
C142 C 0.1856 0.90762 0.17732 0.0
C143 C 0.1863 0.80808 0.1346 0.0
C144 C 0.21116 0.81899 0.16477 0.0
C145 C 0.21102 0.85206 0.17767 0.0
C146 C 0.23924 0.7978 0.18241 0.0
C147 C 0.18706 0.77461 0.11865 0.0
C148 C 0.21252 0.74688 0.19169 0.0
C149 C 0.2405 0.72687 0.20303 0.0
C150 C 0.29552 0.75744 0.20599 0.0
C151 C 0.32186 0.80833 0.19902 0.0
C152 C 0.29389 0.82838 0.18753 0.0
H153 H 0.1776 0.77934 0.09257 0.0
H154 H 0.2261 0.78128 0.12167 0.0
H155 H 0.1572 0.73603 0.12991 0.0
H156 H 0.17029 0.72256 0.18853 0.0
H157 H 0.21949 0.68752 0.20763 0.0
H158 H 0.14476 0.99632 0.59742 0.0
H159 H 0.2134 0.02836 0.63854 0.0
H160 H 0.19828 0.14455 0.63319 0.0
H161 H 0.12833 0.11172 0.59287 0.0
H162 H 0.30469 0.11277 0.62937 0.0
H163 H 0.21095 0.1097 0.72837 0.0
H164 H 0.17324 0.07705 0.69624 0.0
H165 H 0.20301 0.14143 0.69076 0.0
C166 C 0.15537 0.0282 0.6054 0.0
C167 C 0.13117 0.05155 0.59176 0.0
C168 C 0.19456 0.04643 0.629 0.0
C169 C 0.21069 0.08856 0.63939 0.0
C170 C 0.18562 0.11123 0.62637 0.0
H171 H 0.50361 0.31366 0.70869 0.0
H172 H 0.41134 0.26111 0.69183 0.0
C173 C 0.14587 0.09262 0.60304 0.0
C174 C 0.25772 0.11193 0.66075 0.0
H175 H 0.30585 0.16297 0.72785 0.0
C176 C 0.30453 0.12287 0.65119 0.0
C177 C 0.25781 0.12542 0.68924 0.0
C178 C 0.20837 0.11232 0.70193 0.0
C179 C 0.35154 0.14822 0.6686 0.0
C180 C 0.35197 0.16311 0.69637 0.0
C181 C 0.30522 0.15149 0.70648 0.0
C182 C 0.40186 0.19343 0.71361 0.0
C183 C 0.40105 0.16039 0.65662 0.0
C184 C 0.42612 0.17257 0.73253 0.0
C185 C 0.47865 0.20253 0.74227 0.0
C186 C 0.50722 0.25359 0.73345 0.0
C187 C 0.48183 0.27434 0.71635 0.0
C188 C 0.4293 0.24442 0.70671 0.0
H189 H 0.39497 0.15 0.63304 0.0
H190 H 0.43277 0.20018 0.65423 0.0
H191 H 0.41465 0.14065 0.67429 0.0
H192 H 0.40563 0.13327 0.73777 0.0
H193 H 0.49804 0.18584 0.7545 0.0
H194 H 0.28183 0.25869 0.14539 0.0
H195 H 0.30669 0.3133 0.18182 0.0
H196 H 0.16323 0.30165 0.15701 0.0
H197 H 0.13829 0.24747 0.12073 0.0
H198 H 0.32307 0.4003 0.15947 0.0
H199 H 0.17144 0.29492 0.25295 0.0
H200 H 0.18135 0.26573 0.22857 0.0
H201 H 0.14193 0.28791 0.2137 0.0
C202 C 0.25535 0.26734 0.14807 0.0
C203 C 0.20817 0.24891 0.13021 0.0
C204 C 0.26929 0.29799 0.16912 0.0
C205 C 0.23617 0.31045 0.17267 0.0
C206 C 0.18843 0.29104 0.15552 0.0
H207 H 0.23468 0.53828 0.17709 0.0
H208 H 0.21552 0.4574 0.18372 0.0
C209 C 0.17444 0.26039 0.13458 0.0
C210 C 0.25498 0.35002 0.1896 0.0
H211 H 0.21322 0.38295 0.23914 0.0
C212 C 0.30019 0.3963 0.17776 0.0
C213 C 0.22481 0.34458 0.21332 0.0
C214 C 0.17745 0.29539 0.22807 0.0
C215 C 0.31324 0.43802 0.18673 0.0
C216 C 0.2807 0.43278 0.20861 0.0
C217 C 0.23794 0.38634 0.22244 0.0
C218 C 0.28539 0.47554 0.21246 0.0
C219 C 0.3588 0.4877 0.17055 0.0
C220 C 0.32996 0.51114 0.22739 0.0
C221 C 0.34072 0.55691 0.22365 0.0
C222 C 0.30684 0.56697 0.20502 0.0
C223 C 0.26079 0.53057 0.19165 0.0
C224 C 0.24977 0.48465 0.19567 0.0
H225 H 0.37682 0.4853 0.15174 0.0
H226 H 0.34559 0.51117 0.15931 0.0
H227 H 0.38956 0.506 0.18874 0.0
H228 H 0.35782 0.50447 0.2402 0.0
H229 H 0.37692 0.5852 0.23372 0.0
H230 H 0.81148 0.09154 0.58786 0.0
H231 H 0.78255 0.11574 0.62366 0.0
H232 H 0.91139 0.14182 0.6886 0.0
H233 H 0.94125 0.11826 0.65265 0.0
H234 H 0.77441 0.0796 0.7059 0.0
H235 H 0.90963 0.27482 0.64548 0.0
H236 H 0.8788 0.22701 0.62261 0.0
H237 H 0.92814 0.2336 0.65219 0.0
C238 C 0.83354 0.10214 0.60984 0.0
C239 C 0.87897 0.10345 0.61727 0.0
C240 C 0.81671 0.11557 0.63035 0.0
C241 C 0.84495 0.13054 0.65863 0.0
C242 C 0.88907 0.13012 0.66687 0.0
H243 H 0.79541 0.2932 0.75596 0.0
H244 H 0.83341 0.25326 0.74658 0.0
C245 C 0.90592 0.11653 0.64638 0.0
C246 C 0.83044 0.1504 0.67788 0.0
H247 H 0.84799 0.25582 0.68103 0.0
C248 C 0.79101 0.11821 0.70094 0.0
C249 C 0.85249 0.20077 0.6714 0.0
C250 C 0.89474 0.23641 0.64663 0.0
C251 C 0.77152 0.13507 0.71677 0.0
C252 C 0.79159 0.18505 0.70895 0.0
C253 C 0.83288 0.21754 0.68709 0.0
C254 C 0.76602 0.20339 0.71972 0.0
C255 C 0.72874 0.09925 0.74116 0.0
C256 C 0.71557 0.18823 0.70801 0.0
C257 C 0.69413 0.211 0.71328 0.0
C258 C 0.72256 0.24892 0.73067 0.0
C259 C 0.77224 0.26295 0.74342 0.0
C260 C 0.79403 0.2405 0.73783 0.0
H261 H 0.7277 0.06605 0.75082 0.0
H262 H 0.73426 0.11638 0.76141 0.0
H263 H 0.69014 0.08771 0.72954 0.0
H264 H 0.69381 0.16044 0.69339 0.0
H265 H 0.65592 0.19994 0.70297 0.0
H266 H 0.95678 0.00963 0.11246 0.0
H267 H 0.87331 0.96168 0.14016 0.0
H268 H 0.80408 0.85788 0.07759 0.0
H269 H 0.88795 0.90686 0.04913 0.0
H270 H 0.74068 0.88095 0.08292 0.0
H271 H 0.80422 0.83725 0.20551 0.0
H272 H 0.84401 0.90188 0.19013 0.0
H273 H 0.84465 0.86202 0.17085 0.0
C274 C 0.92393 0.97632 0.10476 0.0
C275 C 0.92895 0.96186 0.07871 0.0
C276 C 0.87624 0.94862 0.12086 0.0
C277 C 0.83241 0.9054 0.11157 0.0
C278 C 0.83738 0.89079 0.08549 0.0
H279 H 0.53668 0.71068 0.22077 0.0
H280 H 0.62407 0.74768 0.2004 0.0
C281 C 0.88527 0.9187 0.06925 0.0
C282 C 0.7808 0.87764 0.12772 0.0
H283 H 0.72293 0.82907 0.20142 0.0
C284 C 0.73678 0.86915 0.10881 0.0
C285 C 0.77505 0.8613 0.1615 0.0
C286 C 0.81939 0.86559 0.18312 0.0
C287 C 0.68803 0.84663 0.12267 0.0
C288 C 0.68325 0.83347 0.15661 0.0
C289 C 0.72663 0.84002 0.1755 0.0
C290 C 0.63366 0.81347 0.1726 0.0
C291 C 0.642 0.83678 0.10059 0.0
C292 C 0.61117 0.8391 0.16532 0.0
C293 C 0.56128 0.81777 0.17649 0.0
C294 C 0.5334 0.77103 0.19613 0.0
C295 C 0.55757 0.74695 0.20582 0.0
C296 C 0.60734 0.76798 0.19404 0.0
H297 H 0.64722 0.83388 0.07655 0.0
H298 H 0.60453 0.80248 0.11073 0.0
H299 H 0.63894 0.86759 0.0971 0.0
H300 H 0.63134 0.87497 0.14989 0.0
H301 H 0.54356 0.83715 0.16881 0.0
H302 H 0.89152 0.87759 0.60329 0.0
H303 H 0.85902 0.79593 0.63427 0.0
H304 H 0.95303 0.78831 0.57773 0.0
H305 H 0.98691 0.87116 0.54713 0.0
H306 H 0.80198 0.71068 0.61717 0.0
H307 H 0.9906 0.74367 0.66564 0.0
H308 H 0.98567 0.79289 0.64577 0.0
H309 H 0.98919 0.75856 0.6226 0.0
C310 C 0.90572 0.85877 0.59758 0.0
C311 C 0.94207 0.88112 0.57277 0.0
C312 C 0.88695 0.81184 0.61535 0.0
C313 C 0.90394 0.78569 0.60893 0.0
C314 C 0.94015 0.80787 0.58393 0.0
H315 H 0.80865 0.48762 0.67235 0.0
H316 H 0.85155 0.57438 0.64896 0.0
C317 C 0.95927 0.85519 0.56619 0.0
C318 C 0.88187 0.73471 0.62762 0.0
H319 H 0.91532 0.6605 0.67277 0.0
C320 C 0.82692 0.69997 0.62952 0.0
C321 C 0.91401 0.72021 0.64396 0.0
C322 C 0.97311 0.75589 0.64471 0.0
C323 C 0.80345 0.6514 0.64639 0.0
C324 C 0.83556 0.63675 0.66239 0.0
C325 C 0.8905 0.67148 0.66067 0.0
C326 C 0.81287 0.58497 0.67935 0.0
C327 C 0.7443 0.61576 0.64603 0.0
C328 C 0.77783 0.56177 0.70512 0.0
C329 C 0.75317 0.51179 0.71866 0.0
C330 C 0.76347 0.48408 0.70698 0.0
C331 C 0.8001 0.50794 0.68211 0.0
C332 C 0.8247 0.55767 0.66866 0.0
H333 H 0.72603 0.62942 0.62676 0.0
H334 H 0.73178 0.57976 0.64258 0.0
H335 H 0.729 0.61019 0.6694 0.0
H336 H 0.76845 0.58199 0.71421 0.0
H337 H 0.72396 0.49426 0.73699 0.0
H338 H 0.11198 0.889 0.36998 0.0
H339 H 0.14126 0.86475 0.33426 0.0
H340 H 0.28425 0.91463 0.39014 0.0
H341 H 0.25596 0.93992 0.42543 0.0
H342 H 0.29552 0.93789 0.31986 0.0
H343 H 0.14138 0.74173 0.36944 0.0
H344 H 0.12075 0.78087 0.35355 0.0
H345 H 0.1608 0.79003 0.38931 0.0
C346 C 0.15011 0.8957 0.37425 0.0
C347 C 0.18138 0.91577 0.40077 0.0
C348 C 0.16659 0.88156 0.35396 0.0
C349 C 0.21452 0.88734 0.35989 0.0
C350 C 0.24701 0.90971 0.38528 0.0
H351 H 0.40046 0.80764 0.32489 0.0
H352 H 0.36426 0.84917 0.33314 0.0
C353 C 0.23059 0.92374 0.40556 0.0
C354 C 0.22945 0.86679 0.34149 0.0
H355 H 0.20268 0.75868 0.33506 0.0
C356 C 0.27482 0.89871 0.32271 0.0
C357 C 0.20212 0.81569 0.34514 0.0
C358 C 0.15368 0.77984 0.36556 0.0
C359 C 0.29468 0.88076 0.30841 0.0
C360 C 0.26912 0.82972 0.31371 0.0
C361 C 0.22218 0.79781 0.33102 0.0
C362 C 0.29337 0.8087 0.30504 0.0
C363 C 0.34335 0.91663 0.28825 0.0
C364 C 0.26508 0.77144 0.28705 0.0
C365 C 0.28545 0.74715 0.28282 0.0
C366 C 0.33439 0.76001 0.2963 0.0
C367 C 0.36287 0.79757 0.31395 0.0
C368 C 0.34252 0.82169 0.3183 0.0
H369 H 0.34682 0.95079 0.27722 0.0
H370 H 0.37855 0.92659 0.3038 0.0
H371 H 0.34331 0.90073 0.26889 0.0
H372 H 0.22661 0.76017 0.27716 0.0
H373 H 0.26194 0.71687 0.27032 0.0
H374 H 0.10111 0.99029 0.91844 0.0
H375 H 0.18651 0.03842 0.89275 0.0
H376 H 0.24681 0.14838 0.94911 0.0
H377 H 0.16129 0.09941 0.97552 0.0
H378 H 0.24277 0.12781 0.856 0.0
H379 H 0.35771 0.12434 0.96666 0.0
H380 H 0.28681 0.08619 0.96586 0.0
H381 H 0.32318 0.14947 0.96856 0.0
C382 C 0.13263 0.02468 0.92546 0.0
C383 C 0.12462 0.04095 0.94917 0.0
C384 C 0.18148 0.05225 0.91068 0.0
C385 C 0.22369 0.09678 0.91927 0.0
C386 C 0.21543 0.11362 0.94256 0.0
H387 H 0.5501 0.30937 0.86217 0.0
H388 H 0.46181 0.2653 0.88278 0.0
C389 C 0.16644 0.08583 0.95751 0.0
C390 C 0.27589 0.1253 0.9036 0.0
H391 H 0.40622 0.17545 0.91926 0.0
C392 C 0.27849 0.13812 0.86986 0.0
C393 C 0.32266 0.13857 0.92152 0.0
C394 C 0.32256 0.12355 0.95762 0.0
C395 C 0.32643 0.16465 0.85369 0.0
C396 C 0.37324 0.17836 0.87167 0.0
C397 C 0.37055 0.1653 0.90538 0.0
C398 C 0.42574 0.20699 0.85637 0.0
C399 C 0.32661 0.17875 0.81753 0.0
C400 C 0.43531 0.18935 0.83433 0.0
C401 C 0.48608 0.21489 0.82232 0.0
C402 C 0.52824 0.25842 0.83214 0.0
C403 C 0.51835 0.27621 0.85383 0.0
C404 C 0.46784 0.25093 0.86572 0.0
H405 H 0.29109 0.17712 0.80812 0.0
H406 H 0.36207 0.21622 0.8091 0.0
H407 H 0.32692 0.15287 0.80716 0.0
H408 H 0.40408 0.15483 0.82742 0.0
H409 H 0.493 0.1991 0.80697 0.0
H410 H 0.10953 0.15442 0.48693 0.0
H411 H 0.14664 0.2377 0.45583 0.0
H412 H 0.12418 0.18791 0.36848 0.0
H413 H 0.08756 0.105 0.39938 0.0
H414 H 0.23832 0.2955 0.41391 0.0
H415 H 0.0596 0.26606 0.34713 0.0
H416 H 0.05619 0.22528 0.38379 0.0
H417 H 0.07337 0.22319 0.34684 0.0
C418 C 0.11197 0.16113 0.46107 0.0
C419 C 0.09552 0.12299 0.44564 0.0
C420 C 0.13332 0.2088 0.44329 0.0
C421 C 0.13787 0.21925 0.40967 0.0
C422 C 0.12052 0.18092 0.39425 0.0
H423 H 0.26583 0.50261 0.2707 0.0
H424 H 0.22319 0.41473 0.29308 0.0
C425 C 0.09975 0.13347 0.41201 0.0
C426 C 0.16322 0.27057 0.39099 0.0
H427 H 0.13961 0.34459 0.33438 0.0
C428 C 0.21665 0.30615 0.39655 0.0
C429 C 0.13544 0.28456 0.36779 0.0
C430 C 0.07787 0.24801 0.36101 0.0
C431 C 0.24288 0.35505 0.37985 0.0
C432 C 0.21472 0.36977 0.35757 0.0
C433 C 0.16147 0.33382 0.35139 0.0
C434 C 0.2391 0.42279 0.34282 0.0
C435 C 0.30102 0.39037 0.38605 0.0
C436 C 0.26098 0.45671 0.36292 0.0
C437 C 0.28626 0.50656 0.3502 0.0
C438 C 0.29021 0.52492 0.31668 0.0
C439 C 0.26578 0.49061 0.29638 0.0
C440 C 0.24068 0.44011 0.30929 0.0
H441 H 0.31979 0.37105 0.39403 0.0
H442 H 0.32139 0.41864 0.36426 0.0
H443 H 0.30688 0.40888 0.40553 0.0
H444 H 0.25888 0.44468 0.38878 0.0
H445 H 0.30334 0.53087 0.36711 0.0
H446 H 0.87555 0.00137 0.95973 0.0
H447 H 0.83309 0.03867 0.9288 0.0
H448 H 0.9832 0.17985 0.91564 0.0
H449 H 0.02629 0.14291 0.94678 0.0
H450 H 0.83884 0.11903 0.9443 0.0
H451 H 0.91495 0.16395 0.82302 0.0
H452 H 0.91331 0.11831 0.85512 0.0
H453 H 0.96229 0.18206 0.85549 0.0
C454 C 0.8998 0.04034 0.95015 0.0
C455 C 0.95453 0.06907 0.95581 0.0
C456 C 0.87532 0.0616 0.93246 0.0
C457 C 0.90495 0.11195 0.91961 0.0
C458 C 0.9596 0.14079 0.92496 0.0
H459 H 0.82158 0.30626 0.81323 0.0
H460 H 0.86674 0.2677 0.83527 0.0
C461 C 0.98414 0.11962 0.94294 0.0
C462 C 0.87812 0.13435 0.90187 0.0
H463 H 0.86362 0.19047 0.82766 0.0
C464 C 0.84412 0.13453 0.91878 0.0
C465 C 0.88535 0.15488 0.86864 0.0
C466 C 0.92065 0.1547 0.84928 0.0
C467 C 0.81773 0.15525 0.90352 0.0
C468 C 0.82398 0.17497 0.87006 0.0
C469 C 0.85835 0.17506 0.85318 0.0
C470 C 0.79589 0.19644 0.85258 0.0
C471 C 0.78458 0.15706 0.92373 0.0
C472 C 0.74078 0.16884 0.85354 0.0
C473 C 0.71508 0.19088 0.841 0.0
C474 C 0.74373 0.24061 0.82639 0.0
C475 C 0.79845 0.26754 0.82364 0.0
C476 C 0.82428 0.24559 0.83646 0.0
H477 H 0.79609 0.15395 0.94954 0.0
H478 H 0.78793 0.19158 0.91562 0.0
H479 H 0.74277 0.12592 0.92164 0.0
H480 H 0.71774 0.1306 0.86513 0.0
H481 H 0.67296 0.16954 0.84383 0.0
H482 H 0.91871 0.01358 0.41865 0.0
H483 H 0.8516 0.98149 0.37673 0.0
H484 H 0.83541 0.84563 0.40261 0.0
H485 H 0.90428 0.87835 0.44379 0.0
H486 H 0.82824 0.87072 0.33809 0.0
H487 H 0.69898 0.88661 0.39817 0.0
H488 H 0.76129 0.9438 0.38687 0.0
H489 H 0.75849 0.89583 0.41673 0.0
C490 C 0.90102 0.97692 0.41535 0.0
C491 C 0.91623 0.94822 0.43487 0.0
C492 C 0.86254 0.95857 0.3914 0.0
C493 C 0.83749 0.91069 0.38699 0.0
C494 C 0.85401 0.88261 0.40564 0.0
H495 H 0.5471 0.69082 0.32194 0.0
H496 H 0.64037 0.7425 0.33629 0.0
C497 C 0.89323 0.90128 0.42925 0.0
C498 C 0.79214 0.88886 0.36432 0.0
H499 H 0.66812 0.8589 0.3493 0.0
C500 C 0.79341 0.86849 0.34039 0.0
C501 C 0.74644 0.88565 0.36739 0.0
C502 C 0.74083 0.90367 0.39384 0.0
C503 C 0.7499 0.84439 0.3199 0.0
C504 C 0.70441 0.84093 0.32335 0.0
C505 C 0.70365 0.86251 0.34646 0.0
C506 C 0.65428 0.80916 0.30683 0.0
C507 C 0.75203 0.82183 0.29511 0.0
C508 C 0.63204 0.8293 0.28431 0.0
C509 C 0.57886 0.79955 0.27559 0.0
C510 C 0.54743 0.74979 0.29003 0.0
C511 C 0.57081 0.72914 0.3105 0.0
C512 C 0.62401 0.75856 0.31863 0.0
H513 H 0.79282 0.83513 0.29134 0.0
H514 H 0.72776 0.78148 0.30318 0.0
H515 H 0.73537 0.83001 0.27182 0.0
H516 H 0.65479 0.8684 0.27524 0.0
H517 H 0.56137 0.81621 0.26 0.0
H518 H 0.99287 0.81978 0.90011 0.0
H519 H 1.00377 0.7751 0.87008 0.0
H520 H 0.83993 0.65457 0.88381 0.0
H521 H 0.8285 0.69889 0.91339 0.0
H522 H 0.92728 0.63774 0.90228 0.0
H523 H 0.92907 0.73509 0.77762 0.0
H524 H 0.96595 0.76772 0.80991 0.0
H525 H 0.89569 0.73343 0.80864 0.0
C526 C 0.95907 0.78396 0.89636 0.0
C527 C 0.90976 0.76271 0.90906 0.0
C528 C 0.96548 0.75858 0.87935 0.0
C529 C 0.92262 0.71181 0.87482 0.0
C530 C 0.87343 0.69073 0.88723 0.0
H531 H 0.74208 0.48637 0.79303 0.0
H532 H 0.80519 0.56973 0.80243 0.0
C533 C 0.867 0.71591 0.90422 0.0
C534 C 0.92785 0.68312 0.85794 0.0
H535 H 0.90494 0.65499 0.78391 0.0
C536 C 0.92431 0.64209 0.87631 0.0
C537 C 0.92456 0.68966 0.82415 0.0
C538 C 0.92914 0.73388 0.80368 0.0
C539 C 0.91095 0.60416 0.86203 0.0
C540 C 0.90197 0.60824 0.82837 0.0
C541 C 0.9118 0.65203 0.80966 0.0
C542 C 0.87028 0.5641 0.81401 0.0
C543 C 0.90071 0.55794 0.88354 0.0
C544 C 0.88672 0.5343 0.81574 0.0
C545 C 0.85037 0.48651 0.81059 0.0
C546 C 0.79794 0.46886 0.80275 0.0
C547 C 0.78274 0.49997 0.79823 0.0
C548 C 0.81878 0.54744 0.80369 0.0
H549 H 0.90481 0.55945 0.90944 0.0
H550 H 0.86042 0.52587 0.8792 0.0
H551 H 0.92915 0.55211 0.87816 0.0
H552 H 0.92647 0.54676 0.82321 0.0
H553 H 0.86248 0.46259 0.81426 0.0
loop_
_geom_bond_atom_site_label_1
_geom_bond_atom_site_label_2
_geom_bond_distance
_geom_bond_site_symmetry_2
_ccdc_geom_bond_type
Ho0 C3 2.811 . S
Ho0 O20 2.322 . S
Ho0 O22 2.378 . S
Ho0 O23 2.524 . S
Ho0 O24 2.381 1_445 S
Ho0 O25 2.669 1_445 S
Ho0 O27 2.346 1_545 S
Ho0 O31 2.305 1_554 S
Ho1 C12 2.811 . S
Ho1 O21 2.346 1_565 S
Ho1 O25 2.305 1_556 S
Ho1 O26 2.322 1_656 S
Ho1 O28 2.378 . S
Ho1 O29 2.524 . S
Ho1 O30 2.381 1_665 S
Ho1 O31 2.669 1_665 S
C2 O20 1.259 1_656 S
C2 O21 1.268 . S
C3 Ho0 2.811 . S
C3 C4 1.488 . S
C3 O22 1.215 . S
C3 O23 1.289 . S
C4 C3 1.488 . S
C4 C5 1.348 . S
C4 C9 1.413 . S
C5 C4 1.348 . S
C5 C6 1.442 . S
C5 H32 0.930 . S
C6 C5 1.442 . S
C6 C7 1.381 . S
C6 H33 0.931 . S
C7 C6 1.381 . S
C7 C8 1.321 . S
C8 C7 1.321 . S
C8 C9 1.403 . S
C8 H34 0.934 . S
C9 C4 1.413 . S
C9 C8 1.403 . S
C9 H35 0.930 . S
C10 O24 1.275 . S
C10 O25 1.256 . S
C11 O26 1.259 . S
C11 O27 1.268 . S
C12 Ho1 2.811 . S
C12 C13 1.488 . S
C12 O28 1.215 . S
C12 O29 1.289 . S
C13 C12 1.488 . S
C13 C14 1.348 . S
C13 C18 1.413 . S
C14 C13 1.348 . S
C14 C15 1.442 . S
C14 H36 0.930 . S
C15 C14 1.442 . S
C15 C16 1.381 . S
C15 H37 0.931 . S
C16 C15 1.381 . S
C16 C17 1.321 . S
C17 C16 1.321 . S
C17 C18 1.403 . S
C17 H38 0.934 . S
C18 C13 1.413 . S
C18 C17 1.403 . S
C18 H39 0.930 . S
C19 O30 1.275 . S
C19 O31 1.256 . S
O20 Ho0 2.322 . S
O20 C2 1.259 1_454 S
O21 Ho1 2.346 1_545 S
O21 C2 1.268 . S
O22 Ho0 2.378 . S
O22 C3 1.215 . S
O23 Ho0 2.524 . S
O23 C3 1.289 . S
O24 Ho0 2.381 1_665 S
O24 C10 1.275 . S
O25 Ho0 2.669 1_665 S
O25 Ho1 2.305 1_554 S
O25 C10 1.256 . S
O26 Ho1 2.322 1_454 S
O26 C11 1.259 . S
O27 Ho0 2.346 1_565 S
O27 C11 1.268 . S
O28 Ho1 2.378 . S
O28 C12 1.215 . S
O29 Ho1 2.524 . S
O29 C12 1.289 . S
O30 Ho1 2.381 1_445 S
O30 C19 1.275 . S
O31 Ho0 2.305 1_556 S
O31 Ho1 2.669 1_445 S
O31 C19 1.256 . S
H32 C5 0.930 . S
H33 C6 0.931 . S
H34 C8 0.934 . S
H35 C9 0.930 . S
H36 C14 0.930 . S
H37 C15 0.931 . S
H38 C17 0.934 . S
H39 C18 0.930 . S
Ho40 C43 2.811 1_455 S
Ho40 O60 2.322 1_445 S
Ho40 O62 2.378 1_455 S
Ho40 O63 2.524 1_455 S
Ho40 O64 2.381 1_445 S
Ho40 O65 2.669 1_545 S
Ho40 O67 2.346 . S
Ho40 O71 2.305 . S
Ho41 C52 2.811 . S
Ho41 O61 2.346 1_455 S
Ho41 O65 2.305 . S
Ho41 O66 2.322 1_565 S
Ho41 O68 2.378 1_565 S
Ho41 O69 2.524 . S
Ho41 O70 2.381 1_565 S
Ho41 O71 2.669 1_565 S
C42 O60 1.259 . S
C42 O61 1.268 . S
C43 Ho40 2.811 1_655 S
C43 C44 1.488 . S
C43 O62 1.215 . S
C43 O63 1.289 . S
C44 C43 1.488 . S
C44 C45 1.348 . S
C44 C49 1.413 . S
C45 C44 1.348 . S
C45 C46 1.442 . S
C45 H72 0.930 . S
C46 C45 1.442 . S
C46 C47 1.381 . S
C46 H73 0.931 . S
C47 C46 1.381 . S
C47 C48 1.321 . S
C48 C47 1.321 . S
C48 C49 1.403 . S
C48 H74 0.934 . S
C49 C44 1.413 . S
C49 C48 1.403 . S
C49 H75 0.930 . S
C50 O64 1.275 . S
C50 O65 1.256 1_655 S
C51 O66 1.259 . S
C51 O67 1.268 . S
C52 Ho41 2.811 . S
C52 C53 1.488 . S
C52 O68 1.215 1_565 S
C52 O69 1.289 . S
C53 C52 1.488 . S
C53 C54 1.348 . S
C53 C58 1.413 . S
C54 C53 1.348 . S
C54 C55 1.442 . S
C54 H76 0.930 . S
C55 C54 1.442 . S
C55 C56 1.381 . S
C55 H77 0.931 . S
C56 C55 1.381 . S
C56 C57 1.321 . S
C57 C56 1.321 . S
C57 C58 1.403 . S
C57 H78 0.934 . S
C58 C53 1.413 . S
C58 C57 1.403 . S
C58 H79 0.930 1_565 S
C59 O70 1.275 . S
C59 O71 1.256 . S
O60 Ho40 2.322 1_665 S
O60 C42 1.259 . S
O61 Ho41 2.346 1_655 S
O61 C42 1.268 . S
O62 Ho40 2.378 1_655 S
O62 C43 1.215 . S
O63 Ho40 2.524 1_655 S
O63 C43 1.289 . S
O64 Ho40 2.381 1_665 S
O64 C50 1.275 . S
O65 Ho40 2.669 1_565 S
O65 Ho41 2.305 . S
O65 C50 1.256 1_455 S
O66 Ho41 2.322 1_545 S
O66 C51 1.259 . S
O67 Ho40 2.346 . S
O67 C51 1.268 . S
O68 Ho41 2.378 1_545 S
O68 C52 1.215 1_545 S
O69 Ho41 2.524 . S
O69 C52 1.289 . S
O70 Ho41 2.381 1_545 S
O70 C59 1.275 . S
O71 Ho40 2.305 . S
O71 Ho41 2.669 1_545 S
O71 C59 1.256 . S
H72 C45 0.930 . S
H73 C46 0.931 . S
H74 C48 0.934 . S
H75 C49 0.930 . S
H76 C54 0.930 . S
H77 C55 0.931 . S
H78 C57 0.934 . S
H79 C58 0.930 1_545 S
Zn80 O86 1.920 . S
Zn80 O92 1.898 . S
Zn80 O95 1.905 . S
Zn81 O89 1.905 . S
Zn81 O90 1.898 . S
Zn81 O98 1.920 . S
Zn82 O85 2.080 . S
Zn82 O88 2.114 . S
Zn82 O91 2.120 . S
Zn82 O93 2.120 . S
Zn82 O94 2.114 . S
Zn82 O97 2.080 . S
C83 O88 1.166 . S
C83 O89 1.182 . S
C84 O90 1.167 . S
C84 O91 1.299 . S
O85 Zn82 2.080 . S
O85 C99 1.305 . S
O86 Zn80 1.920 . S
O86 C99 1.234 . S
C87 O92 1.167 . S
C87 O93 1.299 . S
O88 Zn82 2.114 . S
O88 C83 1.166 . S
O89 Zn81 1.905 . S
O89 C83 1.182 . S
O90 Zn81 1.898 . S
O90 C84 1.167 . S
O91 Zn82 2.120 . S
O91 C84 1.299 . S
O92 Zn80 1.898 . S
O92 C87 1.167 . S
O93 Zn82 2.120 . S
O93 C87 1.299 . S
O94 Zn82 2.114 . S
O94 C96 1.166 . S
O95 Zn80 1.905 . S
O95 C96 1.182 . S
C96 O94 1.166 . S
C96 O95 1.182 . S
O97 Zn82 2.080 . S
O97 C100 1.305 . S
O98 Zn81 1.920 . S
O98 C100 1.234 . S
C99 O85 1.305 . S
C99 O86 1.234 . S
C100 O97 1.305 . S
C100 O98 1.234 . S
Zn101 O107 1.920 . S
Zn101 O113 1.898 . S
Zn101 O116 1.905 . S
Zn102 O110 1.905 . S
Zn102 O111 1.898 . S
Zn102 O119 1.920 . S
Zn103 O106 2.080 . S
Zn103 O109 2.114 . S
Zn103 O112 2.120 . S
Zn103 O114 2.120 . S
Zn103 O115 2.114 . S
Zn103 O118 2.080 . S
C104 O109 1.166 . S
C104 O110 1.182 . S
C105 O111 1.167 . S
C105 O112 1.299 . S
O106 Zn103 2.080 . S
O106 C120 1.305 . S
O107 Zn101 1.920 . S
O107 C120 1.234 . S
C108 O113 1.167 . S
C108 O114 1.299 . S
O109 Zn103 2.114 . S
O109 C104 1.166 . S
O110 Zn102 1.905 . S
O110 C104 1.182 . S
O111 Zn102 1.898 . S
O111 C105 1.167 . S
O112 Zn103 2.120 . S
O112 C105 1.299 . S
O113 Zn101 1.898 . S
O113 C108 1.167 . S
O114 Zn103 2.120 . S
O114 C108 1.299 . S
O115 Zn103 2.114 . S
O115 C117 1.166 . S
O116 Zn101 1.905 . S
O116 C117 1.182 . S
C117 O115 1.166 . S
C117 O116 1.182 . S
O118 Zn103 2.080 . S
O118 C121 1.305 . S
O119 Zn102 1.920 . S
O119 C121 1.234 . S
C120 O106 1.305 . S
C120 O107 1.234 . S
C121 O118 1.305 . S
C121 O119 1.234 . S
H122 C130 0.929 . S
H123 C132 0.930 . S
H124 C134 0.930 . S
H125 C137 0.929 . S
H126 C140 0.930 . S
H127 C142 0.960 . S
H128 C142 0.960 . S
H129 C142 0.960 . S
C130 H122 0.929 . S
C130 C131 1.377 . S
C130 C132 1.384 . S
C131 C130 1.377 . S
C131 C137 1.390 . S
C132 H123 0.930 . S
C132 C130 1.384 . S
C132 C133 1.372 . S
C133 C132 1.372 . S
C133 C134 1.400 . S
C133 C138 1.490 . S
C134 H124 0.930 . S
C134 C133 1.400 . S
C134 C137 1.386 . S
H135 C151 0.930 . S
H136 C152 0.931 . S
C137 H125 0.929 . S
C137 C131 1.390 . S
C137 C134 1.386 . S
C138 C133 1.490 . S
C138 C140 1.395 . S
C138 C141 1.403 . S
H139 C145 0.930 . S
C140 H126 0.930 . S
C140 C138 1.395 . S
C140 C143 1.403 . S
C141 C138 1.403 . S
C141 C142 1.524 . S
C141 C145 1.400 . S
C142 H127 0.960 . S
C142 H128 0.960 . S
C142 H129 0.960 . S
C142 C141 1.524 . S
C143 C140 1.403 . S
C143 C144 1.392 . S
C143 C147 1.495 . S
C144 C143 1.392 . S
C144 C145 1.385 . S
C144 C146 1.478 . S
C145 H139 0.930 . S
C145 C141 1.400 . S
C145 C144 1.385 . S
C146 C144 1.478 . S
C146 C148 1.381 . S
C146 C152 1.383 . S
C147 C143 1.495 . S
C147 H153 0.959 . S
C147 H154 0.961 . S
C147 H155 0.960 . S
C148 C146 1.381 . S
C148 C149 1.394 . S
C148 H156 0.930 . S
C149 C148 1.394 . S
C149 C150 1.383 . S
C149 H157 0.929 . S
C150 C149 1.383 . S
C150 C151 1.377 . S
C151 H135 0.930 . S
C151 C150 1.377 . S
C151 C152 1.379 . S
C152 H136 0.931 . S
C152 C146 1.383 . S
C152 C151 1.379 . S
H153 C147 0.959 . S
H154 C147 0.961 . S
H155 C147 0.960 . S
H156 C148 0.930 . S
H157 C149 0.929 . S
H158 C166 0.929 1_565 S
H159 C168 0.930 . S
H160 C170 0.930 . S
H161 C173 0.929 . S
H162 C176 0.930 . S
H163 C178 0.960 . S
H164 C178 0.960 . S
H165 C178 0.960 . S
C166 H158 0.929 1_545 S
C166 C167 1.377 . S
C166 C168 1.384 . S
C167 C166 1.377 . S
C167 C173 1.390 . S
C168 H159 0.930 . S
C168 C166 1.384 . S
C168 C169 1.372 . S
C169 C168 1.372 . S
C169 C170 1.400 . S
C169 C174 1.490 . S
C170 H160 0.930 . S
C170 C169 1.400 . S
C170 C173 1.386 . S
H171 C187 0.930 . S
H172 C188 0.931 . S
C173 H161 0.929 . S
C173 C167 1.390 . S
C173 C170 1.386 . S
C174 C169 1.490 . S
C174 C176 1.395 . S
C174 C177 1.403 . S
H175 C181 0.930 . S
C176 H162 0.930 . S
C176 C174 1.395 . S
C176 C179 1.403 . S
C177 C174 1.403 . S
C177 C178 1.524 . S
C177 C181 1.400 . S
C178 H163 0.960 . S
C178 H164 0.960 . S
C178 H165 0.960 . S
C178 C177 1.524 . S
C179 C176 1.403 . S
C179 C180 1.392 . S
C179 C183 1.495 . S
C180 C179 1.392 . S
C180 C181 1.385 . S
C180 C182 1.478 . S
C181 H175 0.930 . S
C181 C177 1.400 . S
C181 C180 1.385 . S
C182 C180 1.478 . S
C182 C184 1.381 . S
C182 C188 1.383 . S
C183 C179 1.495 . S
C183 H189 0.959 . S
C183 H190 0.961 . S
C183 H191 0.960 . S
C184 C182 1.381 . S
C184 C185 1.394 . S
C184 H192 0.930 . S
C185 C184 1.394 . S
C185 C186 1.383 . S
C185 H193 0.929 . S
C186 C185 1.383 . S
C186 C187 1.377 . S
C187 H171 0.930 . S
C187 C186 1.377 . S
C187 C188 1.379 . S
C188 H172 0.931 . S
C188 C182 1.383 . S
C188 C187 1.379 . S
H189 C183 0.959 . S
H190 C183 0.961 . S
H191 C183 0.960 . S
H192 C184 0.930 . S
H193 C185 0.929 . S
H194 C202 0.929 . S
H195 C204 0.930 . S
H196 C206 0.930 . S
H197 C209 0.929 . S
H198 C212 0.930 . S
H199 C214 0.960 . S
H200 C214 0.960 . S
H201 C214 0.960 . S
C202 H194 0.929 . S
C202 C203 1.377 . S
C202 C204 1.384 . S
C203 C202 1.377 . S
C203 C209 1.390 . S
C204 H195 0.930 . S
C204 C202 1.384 . S
C204 C205 1.372 . S
C205 C204 1.372 . S
C205 C206 1.400 . S
C205 C210 1.490 . S
C206 H196 0.930 . S
C206 C205 1.400 . S
C206 C209 1.386 . S
H207 C223 0.930 . S
H208 C224 0.931 . S
C209 H197 0.929 . S
C209 C203 1.390 . S
C209 C206 1.386 . S
C210 C205 1.490 . S
C210 C212 1.395 . S
C210 C213 1.403 . S
H211 C217 0.930 . S
C212 H198 0.930 . S
C212 C210 1.395 . S
C212 C215 1.403 . S
C213 C210 1.403 . S
C213 C214 1.524 . S
C213 C217 1.400 . S
C214 H199 0.960 . S
C214 H200 0.960 . S
C214 H201 0.960 . S
C214 C213 1.524 . S
C215 C212 1.403 . S
C215 C216 1.392 . S
C215 C219 1.495 . S
C216 C215 1.392 . S
C216 C217 1.385 . S
C216 C218 1.478 . S
C217 H211 0.930 . S
C217 C213 1.400 . S
C217 C216 1.385 . S
C218 C216 1.478 . S
C218 C220 1.381 . S
C218 C224 1.383 . S
C219 C215 1.495 . S
C219 H225 0.959 . S
C219 H226 0.961 . S
C219 H227 0.960 . S
C220 C218 1.381 . S
C220 C221 1.394 . S
C220 H228 0.930 . S
C221 C220 1.394 . S
C221 C222 1.383 . S
C221 H229 0.929 . S
C222 C221 1.383 . S
C222 C223 1.377 . S
C223 H207 0.930 . S
C223 C222 1.377 . S
C223 C224 1.379 . S
C224 H208 0.931 . S
C224 C218 1.383 . S
C224 C223 1.379 . S
H225 C219 0.959 . S
H226 C219 0.961 . S
H227 C219 0.960 . S
H228 C220 0.930 . S
H229 C221 0.929 . S
H230 C238 0.929 . S
H231 C240 0.930 . S
H232 C242 0.930 . S
H233 C245 0.929 . S
H234 C248 0.930 . S
H235 C250 0.960 . S
H236 C250 0.960 . S
H237 C250 0.960 . S
C238 H230 0.929 . S
C238 C239 1.377 . S
C238 C240 1.384 . S
C239 C238 1.377 . S
C239 C245 1.390 . S
C240 H231 0.930 . S
C240 C238 1.384 . S
C240 C241 1.372 . S
C241 C240 1.372 . S
C241 C242 1.400 . S
C241 C246 1.490 . S
C242 H232 0.930 . S
C242 C241 1.400 . S
C242 C245 1.386 . S
H243 C259 0.930 . S
H244 C260 0.931 . S
C245 H233 0.929 . S
C245 C239 1.390 . S
C245 C242 1.386 . S
C246 C241 1.490 . S
C246 C248 1.395 . S
C246 C249 1.403 . S
H247 C253 0.930 . S
C248 H234 0.930 . S
C248 C246 1.395 . S
C248 C251 1.403 . S
C249 C246 1.403 . S
C249 C250 1.524 . S
C249 C253 1.400 . S
C250 H235 0.960 . S
C250 H236 0.960 . S
C250 H237 0.960 . S
C250 C249 1.524 . S
C251 C248 1.403 . S
C251 C252 1.392 . S
C251 C255 1.495 . S
C252 C251 1.392 . S
C252 C253 1.385 . S
C252 C254 1.478 . S
C253 H247 0.930 . S
C253 C249 1.400 . S
C253 C252 1.385 . S
C254 C252 1.478 . S
C254 C256 1.381 . S
C254 C260 1.383 . S
C255 C251 1.495 . S
C255 H261 0.959 . S
C255 H262 0.961 . S
C255 H263 0.960 . S
C256 C254 1.381 . S
C256 C257 1.394 . S
C256 H264 0.930 . S
C257 C256 1.394 . S
C257 C258 1.383 . S
C257 H265 0.929 . S
C258 C257 1.383 . S
C258 C259 1.377 . S
C259 H243 0.930 . S
C259 C258 1.377 . S
C259 C260 1.379 . S
C260 H244 0.931 . S
C260 C254 1.383 . S
C260 C259 1.379 . S
H261 C255 0.959 . S
H262 C255 0.961 . S
H263 C255 0.960 . S
H264 C256 0.930 . S
H265 C257 0.929 . S
H266 C274 0.929 . S
H267 C276 0.930 . S
H268 C278 0.930 . S
H269 C281 0.929 . S
H270 C284 0.930 . S
H271 C286 0.960 . S
H272 C286 0.960 . S
H273 C286 0.960 . S
C274 H266 0.929 . S
C274 C275 1.377 . S
C274 C276 1.384 . S
C275 C274 1.377 . S
C275 C281 1.390 . S
C276 H267 0.930 . S
C276 C274 1.384 . S
C276 C277 1.372 . S
C277 C276 1.372 . S
C277 C278 1.400 . S
C277 C282 1.490 . S
C278 H268 0.930 . S
C278 C277 1.400 . S
C278 C281 1.386 . S
H279 C295 0.930 . S
H280 C296 0.931 . S
C281 H269 0.929 . S
C281 C275 1.390 . S
C281 C278 1.386 . S
C282 C277 1.490 . S
C282 C284 1.395 . S
C282 C285 1.403 . S
H283 C289 0.930 . S
C284 H270 0.930 . S
C284 C282 1.395 . S
C284 C287 1.403 . S
C285 C282 1.403 . S
C285 C286 1.524 . S
C285 C289 1.400 . S
C286 H271 0.960 . S
C286 H272 0.960 . S
C286 H273 0.960 . S
C286 C285 1.524 . S
C287 C284 1.403 . S
C287 C288 1.392 . S
C287 C291 1.495 . S
C288 C287 1.392 . S
C288 C289 1.385 . S
C288 C290 1.478 . S
C289 H283 0.930 . S
C289 C285 1.400 . S
C289 C288 1.385 . S
C290 C288 1.478 . S
C290 C292 1.381 . S
C290 C296 1.383 . S
C291 C287 1.495 . S
C291 H297 0.959 . S
C291 H298 0.961 . S
C291 H299 0.960 . S
C292 C290 1.381 . S
C292 C293 1.394 . S
C292 H300 0.930 . S
C293 C292 1.394 . S
C293 C294 1.383 . S
C293 H301 0.929 . S
C294 C293 1.383 . S
C294 C295 1.377 . S
C295 H279 0.930 . S
C295 C294 1.377 . S
C295 C296 1.379 . S
C296 H280 0.931 . S
C296 C290 1.383 . S
C296 C295 1.379 . S
H297 C291 0.959 . S
H298 C291 0.961 . S
H299 C291 0.960 . S
H300 C292 0.930 . S
H301 C293 0.929 . S
H302 C310 0.929 . S
H303 C312 0.930 . S
H304 C314 0.930 . S
H305 C317 0.929 . S
H306 C320 0.930 . S
H307 C322 0.960 . S
H308 C322 0.960 . S
H309 C322 0.960 . S
C310 H302 0.929 . S
C310 C311 1.377 . S
C310 C312 1.384 . S
C311 C310 1.377 . S
C311 C317 1.390 . S
C312 H303 0.930 . S
C312 C310 1.384 . S
C312 C313 1.372 . S
C313 C312 1.372 . S
C313 C314 1.400 . S
C313 C318 1.490 . S
C314 H304 0.930 . S
C314 C313 1.400 . S
C314 C317 1.386 . S
H315 C331 0.930 . S
H316 C332 0.931 . S
C317 H305 0.929 . S
C317 C311 1.390 . S
C317 C314 1.386 . S
C318 C313 1.490 . S
C318 C320 1.395 . S
C318 C321 1.403 . S
H319 C325 0.930 . S
C320 H306 0.930 . S
C320 C318 1.395 . S
C320 C323 1.403 . S
C321 C318 1.403 . S
C321 C322 1.524 . S
C321 C325 1.400 . S
C322 H307 0.960 . S
C322 H308 0.960 . S
C322 H309 0.960 . S
C322 C321 1.524 . S
C323 C320 1.403 . S
C323 C324 1.392 . S
C323 C327 1.495 . S
C324 C323 1.392 . S
C324 C325 1.385 . S
C324 C326 1.478 . S
C325 H319 0.930 . S
C325 C321 1.400 . S
C325 C324 1.385 . S
C326 C324 1.478 . S
C326 C328 1.381 . S
C326 C332 1.383 . S
C327 C323 1.495 . S
C327 H333 0.959 . S
C327 H334 0.961 . S
C327 H335 0.960 . S
C328 C326 1.381 . S
C328 C329 1.394 . S
C328 H336 0.930 . S
C329 C328 1.394 . S
C329 C330 1.383 . S
C329 H337 0.929 . S
C330 C329 1.383 . S
C330 C331 1.377 . S
C331 H315 0.930 . S
C331 C330 1.377 . S
C331 C332 1.379 . S
C332 H316 0.931 . S
C332 C326 1.383 . S
C332 C331 1.379 . S
H333 C327 0.959 . S
H334 C327 0.961 . S
H335 C327 0.960 . S
H336 C328 0.930 . S
H337 C329 0.929 . S
H338 C346 0.929 . S
H339 C348 0.930 . S
H340 C350 0.930 . S
H341 C353 0.929 . S
H342 C356 0.930 . S
H343 C358 0.960 . S
H344 C358 0.960 . S
H345 C358 0.960 . S
C346 H338 0.929 . S
C346 C347 1.377 . S
C346 C348 1.384 . S
C347 C346 1.377 . S
C347 C353 1.390 . S
C348 H339 0.930 . S
C348 C346 1.384 . S
C348 C349 1.372 . S
C349 C348 1.372 . S
C349 C350 1.400 . S
C349 C354 1.490 . S
C350 H340 0.930 . S
C350 C349 1.400 . S
C350 C353 1.386 . S
H351 C367 0.930 . S
H352 C368 0.931 . S
C353 H341 0.929 . S
C353 C347 1.390 . S
C353 C350 1.386 . S
C354 C349 1.490 . S
C354 C356 1.395 . S
C354 C357 1.403 . S
H355 C361 0.930 . S
C356 H342 0.930 . S
C356 C354 1.395 . S
C356 C359 1.403 . S
C357 C354 1.403 . S
C357 C358 1.524 . S
C357 C361 1.400 . S
C358 H343 0.960 . S
C358 H344 0.960 . S
C358 H345 0.960 . S
C358 C357 1.524 . S
C359 C356 1.403 . S
C359 C360 1.392 . S
C359 C363 1.495 . S
C360 C359 1.392 . S
C360 C361 1.385 . S
C360 C362 1.478 . S
C361 H355 0.930 . S
C361 C357 1.400 . S
C361 C360 1.385 . S
C362 C360 1.478 . S
C362 C364 1.381 . S
C362 C368 1.383 . S
C363 C359 1.495 . S
C363 H369 0.959 . S
C363 H370 0.961 . S
C363 H371 0.960 . S
C364 C362 1.381 . S
C364 C365 1.394 . S
C364 H372 0.930 . S
C365 C364 1.394 . S
C365 C366 1.383 . S
C365 H373 0.929 . S
C366 C365 1.383 . S
C366 C367 1.377 . S
C367 H351 0.930 . S
C367 C366 1.377 . S
C367 C368 1.379 . S
C368 H352 0.931 . S
C368 C362 1.383 . S
C368 C367 1.379 . S
H369 C363 0.959 . S
H370 C363 0.961 . S
H371 C363 0.960 . S
H372 C364 0.930 . S
H373 C365 0.929 . S
H374 C382 0.929 . S
H375 C384 0.930 . S
H376 C386 0.930 . S
H377 C389 0.929 . S
H378 C392 0.930 . S
H379 C394 0.960 . S
H380 C394 0.960 . S
H381 C394 0.960 . S
C382 H374 0.929 . S
C382 C383 1.377 . S
C382 C384 1.384 . S
C383 C382 1.377 . S
C383 C389 1.390 . S
C384 H375 0.930 . S
C384 C382 1.384 . S
C384 C385 1.372 . S
C385 C384 1.372 . S
C385 C386 1.400 . S
C385 C390 1.490 . S
C386 H376 0.930 . S
C386 C385 1.400 . S
C386 C389 1.386 . S
H387 C403 0.930 . S
H388 C404 0.931 . S
C389 H377 0.929 . S
C389 C383 1.390 . S
C389 C386 1.386 . S
C390 C385 1.490 . S
C390 C392 1.395 . S
C390 C393 1.403 . S
H391 C397 0.930 . S
C392 H378 0.930 . S
C392 C390 1.395 . S
C392 C395 1.403 . S
C393 C390 1.403 . S
C393 C394 1.524 . S
C393 C397 1.400 . S
C394 H379 0.960 . S
C394 H380 0.960 . S
C394 H381 0.960 . S
C394 C393 1.524 . S
C395 C392 1.403 . S
C395 C396 1.392 . S
C395 C399 1.495 . S
C396 C395 1.392 . S
C396 C397 1.385 . S
C396 C398 1.478 . S
C397 H391 0.930 . S
C397 C393 1.400 . S
C397 C396 1.385 . S
C398 C396 1.478 . S
C398 C400 1.381 . S
C398 C404 1.383 . S
C399 C395 1.495 . S
C399 H405 0.959 . S
C399 H406 0.961 . S
C399 H407 0.960 . S
C400 C398 1.381 . S
C400 C401 1.394 . S
C400 H408 0.930 . S
C401 C400 1.394 . S
C401 C402 1.383 . S
C401 H409 0.929 . S
C402 C401 1.383 . S
C402 C403 1.377 . S
C403 H387 0.930 . S
C403 C402 1.377 . S
C403 C404 1.379 . S
C404 H388 0.931 . S
C404 C398 1.383 . S
C404 C403 1.379 . S
H405 C399 0.959 . S
H406 C399 0.961 . S
H407 C399 0.960 . S
H408 C400 0.930 . S
H409 C401 0.929 . S
H410 C418 0.929 . S
H411 C420 0.930 . S
H412 C422 0.930 . S
H413 C425 0.929 . S
H414 C428 0.930 . S
H415 C430 0.960 . S
H416 C430 0.960 . S
H417 C430 0.960 . S
C418 H410 0.929 . S
C418 C419 1.377 . S
C418 C420 1.384 . S
C419 C418 1.377 . S
C419 C425 1.390 . S
C420 H411 0.930 . S
C420 C418 1.384 . S
C420 C421 1.372 . S
C421 C420 1.372 . S
C421 C422 1.400 . S
C421 C426 1.490 . S
C422 H412 0.930 . S
C422 C421 1.400 . S
C422 C425 1.386 . S
H423 C439 0.930 . S
H424 C440 0.931 . S
C425 H413 0.929 . S
C425 C419 1.390 . S
C425 C422 1.386 . S
C426 C421 1.490 . S
C426 C428 1.395 . S
C426 C429 1.403 . S
H427 C433 0.930 . S
C428 H414 0.930 . S
C428 C426 1.395 . S
C428 C431 1.403 . S
C429 C426 1.403 . S
C429 C430 1.524 . S
C429 C433 1.400 . S
C430 H415 0.960 . S
C430 H416 0.960 . S
C430 H417 0.960 . S
C430 C429 1.524 . S
C431 C428 1.403 . S
C431 C432 1.392 . S
C431 C435 1.495 . S
C432 C431 1.392 . S
C432 C433 1.385 . S
C432 C434 1.478 . S
C433 H427 0.930 . S
C433 C429 1.400 . S
C433 C432 1.385 . S
C434 C432 1.478 . S
C434 C436 1.381 . S
C434 C440 1.383 . S
C435 C431 1.495 . S
C435 H441 0.959 . S
C435 H442 0.961 . S
C435 H443 0.960 . S
C436 C434 1.381 . S
C436 C437 1.394 . S
C436 H444 0.930 . S
C437 C436 1.394 . S
C437 C438 1.383 . S
C437 H445 0.929 . S
C438 C437 1.383 . S
C438 C439 1.377 . S
C439 H423 0.930 . S
C439 C438 1.377 . S
C439 C440 1.379 . S
C440 H424 0.931 . S
C440 C434 1.383 . S
C440 C439 1.379 . S
H441 C435 0.959 . S
H442 C435 0.961 . S
H443 C435 0.960 . S
H444 C436 0.930 . S
H445 C437 0.929 . S
H446 C454 0.929 . S
H447 C456 0.930 . S
H448 C458 0.930 . S
H449 C461 0.929 1_455 S
H450 C464 0.930 . S
H451 C466 0.960 . S
H452 C466 0.960 . S
H453 C466 0.960 . S
C454 H446 0.929 . S
C454 C455 1.377 . S
C454 C456 1.384 . S
C455 C454 1.377 . S
C455 C461 1.390 . S
C456 H447 0.930 . S
C456 C454 1.384 . S
C456 C457 1.372 . S
C457 C456 1.372 . S
C457 C458 1.400 . S
C457 C462 1.490 . S
C458 H448 0.930 . S
C458 C457 1.400 . S
C458 C461 1.386 . S
H459 C475 0.930 . S
H460 C476 0.931 . S
C461 H449 0.929 1_655 S
C461 C455 1.390 . S
C461 C458 1.386 . S
C462 C457 1.490 . S
C462 C464 1.395 . S
C462 C465 1.403 . S
H463 C469 0.930 . S
C464 H450 0.930 . S
C464 C462 1.395 . S
C464 C467 1.403 . S
C465 C462 1.403 . S
C465 C466 1.524 . S
C465 C469 1.400 . S
C466 H451 0.960 . S
C466 H452 0.960 . S
C466 H453 0.960 . S
C466 C465 1.524 . S
C467 C464 1.403 . S
C467 C468 1.392 . S
C467 C471 1.495 . S
C468 C467 1.392 . S
C468 C469 1.385 . S
C468 C470 1.478 . S
C469 H463 0.930 . S
C469 C465 1.400 . S
C469 C468 1.385 . S
C470 C468 1.478 . S
C470 C472 1.381 . S
C470 C476 1.383 . S
C471 C467 1.495 . S
C471 H477 0.959 . S
C471 H478 0.961 . S
C471 H479 0.960 . S
C472 C470 1.381 . S
C472 C473 1.394 . S
C472 H480 0.930 . S
C473 C472 1.394 . S
C473 C474 1.383 . S
C473 H481 0.929 . S
C474 C473 1.383 . S
C474 C475 1.377 . S
C475 H459 0.930 . S
C475 C474 1.377 . S
C475 C476 1.379 . S
C476 H460 0.931 . S
C476 C470 1.383 . S
C476 C475 1.379 . S
H477 C471 0.959 . S
H478 C471 0.961 . S
H479 C471 0.960 . S
H480 C472 0.930 . S
H481 C473 0.929 . S
H482 C490 0.929 1_545 S
H483 C492 0.930 . S
H484 C494 0.930 . S
H485 C497 0.929 . S
H486 C500 0.930 . S
H487 C502 0.960 . S
H488 C502 0.960 . S
H489 C502 0.960 . S
C490 H482 0.929 1_565 S
C490 C491 1.377 . S
C490 C492 1.384 . S
C491 C490 1.377 . S
C491 C497 1.390 . S
C492 H483 0.930 . S
C492 C490 1.384 . S
C492 C493 1.372 . S
C493 C492 1.372 . S
C493 C494 1.400 . S
C493 C498 1.490 . S
C494 H484 0.930 . S
C494 C493 1.400 . S
C494 C497 1.386 . S
H495 C511 0.930 . S
H496 C512 0.931 . S
C497 H485 0.929 . S
C497 C491 1.390 . S
C497 C494 1.386 . S
C498 C493 1.490 . S
C498 C500 1.395 . S
C498 C501 1.403 . S
H499 C505 0.930 . S
C500 H486 0.930 . S
C500 C498 1.395 . S
C500 C503 1.403 . S
C501 C498 1.403 . S
C501 C502 1.524 . S
C501 C505 1.400 . S
C502 H487 0.960 . S
C502 H488 0.960 . S
C502 H489 0.960 . S
C502 C501 1.524 . S
C503 C500 1.403 . S
C503 C504 1.392 . S
C503 C507 1.495 . S
C504 C503 1.392 . S
C504 C505 1.385 . S
C504 C506 1.478 . S
C505 H499 0.930 . S
C505 C501 1.400 . S
C505 C504 1.385 . S
C506 C504 1.478 . S
C506 C508 1.381 . S
C506 C512 1.383 . S
C507 C503 1.495 . S
C507 H513 0.959 . S
C507 H514 0.961 . S
C507 H515 0.960 . S
C508 C506 1.381 . S
C508 C509 1.394 . S
C508 H516 0.930 . S
C509 C508 1.394 . S
C509 C510 1.383 . S
C509 H517 0.929 . S
C510 C509 1.383 . S
C510 C511 1.377 . S
C511 H495 0.930 . S
C511 C510 1.377 . S
C511 C512 1.379 . S
C512 H496 0.931 . S
C512 C506 1.383 . S
C512 C511 1.379 . S
H513 C507 0.959 . S
H514 C507 0.961 . S
H515 C507 0.960 . S
H516 C508 0.930 . S
H517 C509 0.929 . S
H518 C526 0.929 . S
H519 C528 0.930 . S
H520 C530 0.930 . S
H521 C533 0.929 . S
H522 C536 0.930 . S
H523 C538 0.960 . S
H524 C538 0.960 . S
H525 C538 0.960 . S
C526 H518 0.929 . S
C526 C527 1.377 . S
C526 C528 1.384 . S
C527 C526 1.377 . S
C527 C533 1.390 . S
C528 H519 0.930 . S
C528 C526 1.384 . S
C528 C529 1.372 . S
C529 C528 1.372 . S
C529 C530 1.400 . S
C529 C534 1.490 . S
C530 H520 0.930 . S
C530 C529 1.400 . S
C530 C533 1.386 . S
H531 C547 0.930 . S
H532 C548 0.931 . S
C533 H521 0.929 . S
C533 C527 1.390 . S
C533 C530 1.386 . S
C534 C529 1.490 . S
C534 C536 1.395 . S
C534 C537 1.403 . S
H535 C541 0.930 . S
C536 H522 0.930 . S
C536 C534 1.395 . S
C536 C539 1.403 . S
C537 C534 1.403 . S
C537 C538 1.524 . S
C537 C541 1.400 . S
C538 H523 0.960 . S
C538 H524 0.960 . S
C538 H525 0.960 . S
C538 C537 1.524 . S
C539 C536 1.403 . S
C539 C540 1.392 . S
C539 C543 1.495 . S
C540 C539 1.392 . S
C540 C541 1.385 . S
C540 C542 1.478 . S
C541 H535 0.930 . S
C541 C537 1.400 . S
C541 C540 1.385 . S
C542 C540 1.478 . S
C542 C544 1.381 . S
C542 C548 1.383 . S
C543 C539 1.495 . S
C543 H549 0.959 . S
C543 H550 0.961 . S
C543 H551 0.960 . S
C544 C542 1.381 . S
C544 C545 1.394 . S
C544 H552 0.930 . S
C545 C544 1.394 . S
C545 C546 1.383 . S
C545 H553 0.929 . S
C546 C545 1.383 . S
C546 C547 1.377 . S
C547 H531 0.930 . S
C547 C546 1.377 . S
C547 C548 1.379 . S
C548 H532 0.931 . S
C548 C542 1.383 . S
C548 C547 1.379 . S
H549 C543 0.959 . S
H550 C543 0.961 . S
H551 C543 0.960 . S
H552 C544 0.930 . S
H553 C545 0.929 . S
C131 C11 1.903 . S
C150 C99 1.804 . S
C167 C51 1.125 . S
C186 C105 1.041 . S
C203 C7 0.745 . S
C222 C96 0.678 . S
C239 C47 1.261 . S
C258 C121 1.161 . S
C275 C10 2.102 . S
C294 C87 1.970 . S
C330 C104 2.288 . S
C311 C50 2.383 . S
C347 C56 1.157 . S
C366 C100 1.125 . S
C402 C117 1.803 . S
C383 C19 1.863 . S
C438 C84 2.129 . S
C419 C59 2.248 . S
C474 C120 1.971 . S
C455 C2 2.063 . S
C510 C83 1.302 . S
C491 C42 1.338 . S
C546 C108 0.691 . S
C527 C16 0.750 . S
