# Generated by pormake.
# Topology anh, (6,3)-cn, num edge types: 1
# Building blocks:
#     Node 0, Type 0, BuildingBlock: INOVEN_clean_sbu_0, # of connection points: 6
#     Node 1, Type 0, BuildingBlock: INOVEN_clean_sbu_0, # of connection points: 6
#     Node 2, Type 0, BuildingBlock: INOVEN_clean_sbu_0, # of connection points: 6
#     Node 3, Type 1, BuildingBlock: OLANEW_clean_sbu_2, # of connection points: 3
#     Node 4, Type 1, BuildingBlock: OLANEW_clean_sbu_2, # of connection points: 3
#     Node 5, Type 1, BuildingBlock: OLANEW_clean_sbu_2, # of connection points: 3
#     Node 6, Type 1, BuildingBlock: OLANEW_clean_sbu_2, # of connection points: 3
#     Node 7, Type 1, BuildingBlock: OLANEW_clean_sbu_2, # of connection points: 3
#     Node 8, Type 1, BuildingBlock: OLANEW_clean_sbu_2, # of connection points: 3
#     Edge 9, Type (0, 1), BuildingBlock: MIFKUJ_clean_linker_0, # of connection points: 2
#     Edge 10, Type (0, 1), BuildingBlock: MIFKUJ_clean_linker_0, # of connection points: 2
#     Edge 11, Type (0, 1), BuildingBlock: MIFKUJ_clean_linker_0, # of connection points: 2
#     Edge 12, Type (0, 1), BuildingBlock: MIFKUJ_clean_linker_0, # of connection points: 2
#     Edge 13, Type (0, 1), BuildingBlock: MIFKUJ_clean_linker_0, # of connection points: 2
#     Edge 14, Type (0, 1), BuildingBlock: MIFKUJ_clean_linker_0, # of connection points: 2
#     Edge 15, Type (0, 1), BuildingBlock: MIFKUJ_clean_linker_0, # of connection points: 2
#     Edge 16, Type (0, 1), BuildingBlock: MIFKUJ_clean_linker_0, # of connection points: 2
#     Edge 17, Type (0, 1), BuildingBlock: MIFKUJ_clean_linker_0, # of connection points: 2
#     Edge 18, Type (0, 1), BuildingBlock: MIFKUJ_clean_linker_0, # of connection points: 2
#     Edge 19, Type (0, 1), BuildingBlock: MIFKUJ_clean_linker_0, # of connection points: 2
#     Edge 20, Type (0, 1), BuildingBlock: MIFKUJ_clean_linker_0, # of connection points: 2
#     Edge 21, Type (0, 1), BuildingBlock: MIFKUJ_clean_linker_0, # of connection points: 2
#     Edge 22, Type (0, 1), BuildingBlock: MIFKUJ_clean_linker_0, # of connection points: 2
#     Edge 23, Type (0, 1), BuildingBlock: MIFKUJ_clean_linker_0, # of connection points: 2
#     Edge 24, Type (0, 1), BuildingBlock: MIFKUJ_clean_linker_0, # of connection points: 2
#     Edge 25, Type (0, 1), BuildingBlock: MIFKUJ_clean_linker_0, # of connection points: 2
#     Edge 26, Type (0, 1), BuildingBlock: MIFKUJ_clean_linker_0, # of connection points: 2
# Relax obj value: 0.112
# Max RMSD: 0.158
# Mean RMSD: 0.111
data_MOF--net-anh--node1-INOVEN_clean_sbu_0--node2-OLANEW_clean_sbu_2--edge1-MIFKUJ_clean_linker_0
_symmetry_space_group_name_H-M    P1
_symmetry_Int_Tables_number       1
_symmetry_cell_setting            triclinic
loop_
_symmetry_equiv_pos_as_xyz
'x, y, z'
_cell_length_a     46.293258
_cell_length_b     50.489947
_cell_length_c     65.217048
_cell_angle_alpha  92.500771
_cell_angle_beta   89.746775
_cell_angle_gamma 128.34539
loop_
_atom_site_label
_atom_site_type_symbol
_atom_site_fract_x
_atom_site_fract_y
_atom_site_fract_z
_atom_type_partial_charge
Gd0 Gd 0.03129 0.50484 0.13928 0.0
Gd1 Gd 0.99914 0.53848 0.15644 0.0
C2 C 0.08569 0.58665 0.14995 0.0
C3 C 0.06401 0.48834 0.11631 0.0
C4 C 0.10121 0.49847 0.11502 0.0
C5 C 0.12701 0.51707 0.13129 0.0
C6 C 0.11069 0.48858 0.09757 0.0
C7 C 0.1709 0.51379 0.11316 0.0
C8 C 0.14533 0.4964 0.09655 0.0
C9 C 0.16155 0.52456 0.13041 0.0
C10 C 0.02844 0.50644 0.18041 0.0
C11 C 0.94603 0.4564 0.14864 0.0
C12 C 0.96654 0.55779 0.17692 0.0
C13 C 0.9284 0.54244 0.18192 0.0
C14 C 0.92076 0.55961 0.19541 0.0
C15 C 0.8994 0.51076 0.173 0.0
C16 C 0.85509 0.5135 0.19086 0.0
C17 C 0.86303 0.49626 0.17753 0.0
C18 C 0.88428 0.54531 0.19979 0.0
C19 C 1.00214 0.53512 0.11509 0.0
O20 O 0.08065 0.56066 0.13986 0.0
O21 O 0.05875 0.58329 0.15989 0.0
O22 O 0.04598 0.47235 0.13263 0.0
O23 O 0.06041 0.51108 0.11151 0.0
O24 O 0.02754 0.48368 0.16972 0.0
O25 O 0.03618 0.5297 0.16925 0.0
O26 O 0.95181 0.48261 0.1589 0.0
O27 O 0.97144 0.45989 0.1369 0.0
O28 O 0.97439 0.56339 0.15755 0.0
O29 O 0.98038 0.54474 0.18539 0.0
O30 O 0.00836 0.56077 0.12546 0.0
O31 O 0.99311 0.51224 0.12691 0.0
H32 H 0.12007 0.52502 0.14486 0.0
H33 H 0.09111 0.47444 0.08483 0.0
H34 H 0.15187 0.48841 0.08284 0.0
H35 H 0.18034 0.53769 0.14356 0.0
H36 H 0.94295 0.58416 0.20239 0.0
H37 H 0.90494 0.49755 0.16228 0.0
H38 H 0.84106 0.472 0.17015 0.0
H39 H 0.87886 0.55906 0.21013 0.0
Gd40 Gd 0.54672 0.02585 0.50312 0.0
Gd41 Gd 0.49665 0.04205 0.49045 0.0
C42 C 0.45969 0.96489 0.49189 0.0
C43 C 0.57568 0.00141 0.51984 0.0
C44 C 0.56657 0.96788 0.52146 0.0
C45 C 0.592 0.96312 0.51483 0.0
C46 C 0.53304 0.94058 0.5294 0.0
C47 C 0.55097 0.90449 0.52429 0.0
C48 C 0.52541 0.90921 0.53088 0.0
C49 C 0.58425 0.93174 0.51615 0.0
C50 C 0.54566 0.0345 0.46276 0.0
C51 C 0.58449 0.10305 0.50009 0.0
C52 C 0.46809 0.06729 0.47438 0.0
C53 C 0.4758 0.1005 0.47587 0.0
C54 C 0.44957 0.10284 0.48444 0.0
C55 C 0.50934 0.13009 0.46959 0.0
C56 C 0.49074 0.16393 0.48136 0.0
C57 C 0.51669 0.16144 0.47229 0.0
C58 C 0.45697 0.13415 0.48725 0.0
C59 C 0.49823 0.03366 0.53084 0.0
O60 O 0.48965 0.975 0.5024 0.0
O61 O 0.45795 0.98655 0.48253 0.0
O62 O 0.5839 0.01346 0.50156 0.0
O63 O 0.55534 0.00722 0.52984 0.0
O64 O 0.57498 0.04425 0.47299 0.0
O65 O 0.51799 0.01897 0.47397 0.0
O66 O 0.5534 0.09284 0.49099 0.0
O67 O 0.58744 0.08181 0.50898 0.0
O68 O 0.45579 0.05008 0.49096 0.0
O69 O 0.49209 0.06565 0.46502 0.0
O70 O 0.4687 0.02345 0.52068 0.0
O71 O 0.52572 0.04934 0.51953 0.0
H72 H 0.61804 0.9838 0.50868 0.0
H73 H 0.51275 0.9434 0.5345 0.0
H74 H 0.49939 0.88859 0.53705 0.0
H75 H 0.60469 0.92902 0.51119 0.0
H76 H 0.4235 0.08045 0.48939 0.0
H77 H 0.53013 0.12916 0.46282 0.0
H78 H 0.54275 0.18373 0.46727 0.0
H79 H 0.43652 0.13503 0.49456 0.0
Gd80 Gd 0.58333 0.55736 0.85928 0.0
Gd81 Gd 0.52833 0.48212 0.86492 0.0
C82 C 0.49479 0.52081 0.86241 0.0
C83 C 0.61739 0.61697 0.84568 0.0
C84 C 0.6064 0.63734 0.83966 0.0
C85 C 0.6302 0.67229 0.84417 0.0
C86 C 0.57172 0.62213 0.83038 0.0
C87 C 0.58457 0.67677 0.83055 0.0
C88 C 0.56092 0.64169 0.82585 0.0
C89 C 0.61942 0.69186 0.83968 0.0
C90 C 0.57228 0.53942 0.89846 0.0
C91 C 0.61736 0.51898 0.86293 0.0
C92 C 0.4955 0.42222 0.8776 0.0
C93 C 0.504 0.39852 0.87631 0.0
C94 C 0.47638 0.36481 0.86966 0.0
C95 C 0.54 0.4097 0.87994 0.0
C96 C 0.52093 0.35405 0.86917 0.0
C97 C 0.54838 0.38768 0.87639 0.0
C98 C 0.48472 0.34279 0.8661 0.0
C99 C 0.53767 0.49975 0.8258 0.0
O100 O 0.52749 0.54628 0.85567 0.0
O101 O 0.48944 0.4941 0.86974 0.0
O102 O 0.61523 0.61142 0.86524 0.0
O103 O 0.60528 0.59018 0.83379 0.0
O104 O 0.60427 0.56433 0.8919 0.0
O105 O 0.54797 0.52683 0.88442 0.0
O106 O 0.58338 0.49172 0.8664 0.0
O107 O 0.62465 0.54779 0.85837 0.0
O108 O 0.48698 0.42787 0.86009 0.0
O109 O 0.51744 0.44972 0.88943 0.0
O110 O 0.50617 0.47503 0.83288 0.0
O111 O 0.56298 0.51245 0.83933 0.0
H112 H 0.65693 0.68438 0.8515 0.0
H113 H 0.55284 0.59513 0.82678 0.0
H114 H 0.5341 0.62932 0.81859 0.0
H115 H 0.63807 0.71869 0.84381 0.0
H116 H 0.44853 0.35577 0.86659 0.0
H117 H 0.56191 0.43562 0.88509 0.0
H118 H 0.57645 0.39716 0.87903 0.0
H119 H 0.46301 0.31727 0.86018 0.0
O120 O 0.54084 0.05934 0.23305 0.0
Cd121 Cd 0.54371 0.06293 0.19566 0.0
O122 O 0.49992 0.00386 0.23488 0.0
Cd123 Cd 0.48337 0.98561 0.20279 0.0
O124 O 0.44071 0.93826 0.18544 0.0
C125 C 0.43497 0.91179 0.19153 0.0
O126 O 0.45614 0.91508 0.20645 0.0
C127 C 0.52197 0.03325 0.24361 0.0
C128 C 0.60783 0.12597 0.18498 0.0
O129 O 0.57795 0.12164 0.18858 0.0
O130 O 0.60736 0.10044 0.18622 0.0
O131 O 0.56411 0.53243 0.59683 0.0
Cd132 Cd 0.56172 0.53064 0.55925 0.0
O133 O 0.52436 0.5424 0.60159 0.0
Cd134 Cd 0.5229 0.556 0.57043 0.0
O135 O 0.5222 0.59328 0.55489 0.0
C136 C 0.51213 0.60712 0.56632 0.0
O137 O 0.50248 0.59717 0.58513 0.0
C138 C 0.54477 0.53594 0.60877 0.0
C139 C 0.55217 0.47326 0.54295 0.0
O140 O 0.5844 0.50107 0.54715 0.0
O141 O 0.52444 0.47263 0.54626 0.0
O142 O 0.08932 0.52129 0.89643 0.0
Cd143 Cd 0.12034 0.52183 0.8648 0.0
O144 O 0.04621 0.52417 0.88501 0.0
Cd145 Cd 0.99767 0.5241 0.88773 0.0
O146 O 0.95047 0.52607 0.88711 0.0
C147 C 0.91862 0.5014 0.87974 0.0
O148 O 0.91343 0.47395 0.8726 0.0
C149 C 0.06284 0.52244 0.89985 0.0
C150 C 0.1834 0.52433 0.86844 0.0
O151 O 0.18661 0.55141 0.86788 0.0
O152 O 0.15062 0.49618 0.86805 0.0
O153 O 0.0796 0.54479 0.40879 0.0
Cd154 Cd 0.08315 0.55194 0.44623 0.0
O155 O 0.02027 0.50951 0.41278 0.0
Cd156 Cd 0.9616 0.47 0.40598 0.0
O157 O 0.90779 0.42648 0.41577 0.0
C158 C 0.90778 0.40571 0.42611 0.0
O159 O 0.93908 0.41107 0.42927 0.0
C160 C 0.04734 0.5245 0.40083 0.0
C161 C 0.14303 0.6172 0.45948 0.0
O162 O 0.14528 0.59312 0.4589 0.0
O163 O 0.11242 0.61031 0.45394 0.0
O164 O 0.46788 0.94079 0.74898 0.0
Cd165 Cd 0.46401 0.92959 0.78534 0.0
O166 O 0.50388 0.99423 0.75914 0.0
Cd167 Cd 0.53381 0.04854 0.75702 0.0
O168 O 0.54766 0.09659 0.76842 0.0
C169 C 0.52449 0.09369 0.78064 0.0
O170 O 0.4951 0.06319 0.78475 0.0
C171 C 0.48756 0.97163 0.74459 0.0
C172 C 0.48176 0.8874 0.79313 0.0
O173 O 0.44817 0.87528 0.79007 0.0
O174 O 0.50687 0.91945 0.79249 0.0
O175 O 0.44393 0.37364 0.09764 0.0
Cd176 Cd 0.42217 0.34858 0.13094 0.0
O177 O 0.47898 0.42229 0.11517 0.0
Cd178 Cd 0.50984 0.47702 0.1176 0.0
O179 O 0.49105 0.50723 0.11722 0.0
C180 C 0.46355 0.49403 0.10498 0.0
O181 O 0.45283 0.46717 0.09348 0.0
C182 C 0.4677 0.40567 0.09795 0.0
C183 C 0.48322 0.37034 0.15504 0.0
O184 O 0.46429 0.3415 0.14516 0.0
O185 O 0.47254 0.38837 0.15405 0.0
H186 H 0.23949 0.56862 0.12832 0.0
H187 H 0.29582 0.574 0.12981 0.0
H188 H 0.23814 0.4757 0.09865 0.0
H189 H 0.18168 0.46935 0.09809 0.0
H190 H 0.27575 0.4807 0.13064 0.0
H191 H 0.30029 0.55207 0.07446 0.0
H192 H 0.30882 0.60028 0.0592 0.0
H193 H 0.39742 0.66906 0.10253 0.0
H194 H 0.38911 0.62118 0.1182 0.0
H195 H 0.39824 0.46436 0.08473 0.0
H196 H 0.35638 0.47792 0.08865 0.0
H197 H 0.4341 0.56205 0.13061 0.0
H198 H 0.47671 0.54865 0.12676 0.0
H199 H 0.39363 0.57254 0.09984 0.0
H200 H 0.37324 0.50073 0.15316 0.0
H201 H 0.36521 0.45206 0.16723 0.0
H202 H 0.26843 0.38386 0.12872 0.0
H203 H 0.27623 0.43217 0.11418 0.0
C204 C 0.23879 0.54809 0.12188 0.0
C205 C 0.206 0.51858 0.11301 0.0
C206 C 0.27111 0.55136 0.12257 0.0
C207 C 0.27125 0.52533 0.11423 0.0
C208 C 0.2387 0.49612 0.10519 0.0
C209 C 0.20647 0.49272 0.10465 0.0
C210 C 0.30465 0.52748 0.11527 0.0
C211 C 0.30146 0.50079 0.12386 0.0
C212 C 0.33871 0.55433 0.10714 0.0
C213 C 0.34379 0.58305 0.09764 0.0
C214 C 0.3214 0.57746 0.08082 0.0
C215 C 0.32623 0.60472 0.07209 0.0
C216 C 0.35356 0.6377 0.07994 0.0
C217 C 0.37621 0.6435 0.09649 0.0
C218 C 0.37147 0.61632 0.1053 0.0
C219 C 0.40685 0.48609 0.09458 0.0
C220 C 0.44068 0.50525 0.10559 0.0
C221 C 0.38285 0.49379 0.09677 0.0
C222 C 0.39208 0.52073 0.11007 0.0
C223 C 0.42661 0.54115 0.12029 0.0
C224 C 0.45076 0.53336 0.11813 0.0
C225 C 0.36387 0.52508 0.11439 0.0
C226 C 0.3681 0.55291 0.10696 0.0
C227 C 0.33062 0.49928 0.12357 0.0
C228 C 0.32547 0.4701 0.13249 0.0
C229 C 0.35039 0.47537 0.14759 0.0
C230 C 0.34586 0.44784 0.15566 0.0
C231 C 0.31636 0.41489 0.14885 0.0
C232 C 0.29128 0.4094 0.13398 0.0
C233 C 0.29571 0.43685 0.12584 0.0
H234 H 0.31291 0.3936 0.15511 0.0
H235 H 0.35725 0.65878 0.07315 0.0
H236 H 0.58692 0.1566 0.49076 0.0
H237 H 0.64122 0.21286 0.48218 0.0
H238 H 0.71062 0.18564 0.49592 0.0
H239 H 0.65658 0.12971 0.50514 0.0
H240 H 0.7444 0.25007 0.50745 0.0
H241 H 0.67645 0.17771 0.44618 0.0
H242 H 0.62181 0.14207 0.42285 0.0
H243 H 0.61921 0.22493 0.41688 0.0
H244 H 0.67346 0.26089 0.44038 0.0
H245 H 0.89801 0.35435 0.44595 0.0
H246 H 0.84232 0.30734 0.46179 0.0
H247 H 0.78483 0.34497 0.44345 0.0
H248 H 0.84038 0.39178 0.42708 0.0
H249 H 0.74313 0.27933 0.43598 0.0
H250 H 0.81355 0.35348 0.49397 0.0
H251 H 0.86815 0.39046 0.51708 0.0
H252 H 0.86593 0.30648 0.52975 0.0
H253 H 0.8116 0.26907 0.50649 0.0
C254 C 0.61382 0.16281 0.49232 0.0
C255 C 0.61746 0.1386 0.4984 0.0
C256 C 0.64481 0.19493 0.48732 0.0
C257 C 0.67987 0.20314 0.48789 0.0
C258 C 0.6838 0.17978 0.49525 0.0
C259 C 0.65287 0.1478 0.50052 0.0
C260 C 0.71207 0.23494 0.47947 0.0
C261 C 0.74424 0.25639 0.49178 0.0
C262 C 0.71151 0.24369 0.45921 0.0
C263 C 0.67882 0.2219 0.44515 0.0
C264 C 0.66405 0.18824 0.44 0.0
C265 C 0.63317 0.16799 0.42674 0.0
C266 C 0.6171 0.18128 0.41841 0.0
C267 C 0.63172 0.21472 0.42336 0.0
C268 C 0.66251 0.23503 0.43663 0.0
C269 C 0.87354 0.35268 0.44528 0.0
C270 C 0.87364 0.37685 0.43529 0.0
C271 C 0.84177 0.3259 0.45449 0.0
C272 C 0.80957 0.32296 0.45416 0.0
C273 C 0.80943 0.34684 0.44399 0.0
C274 C 0.84118 0.37355 0.43463 0.0
C275 C 0.77575 0.29426 0.46382 0.0
C276 C 0.74326 0.27332 0.45173 0.0
C277 C 0.77599 0.28612 0.4843 0.0
C278 C 0.80865 0.30853 0.49835 0.0
C279 C 0.82486 0.34295 0.50156 0.0
C280 C 0.85574 0.36398 0.51471 0.0
C281 C 0.87054 0.35084 0.52485 0.0
C282 C 0.85444 0.31662 0.52188 0.0
C283 C 0.82358 0.29548 0.50873 0.0
H284 H 0.89444 0.36717 0.53502 0.0
H285 H 0.59346 0.1658 0.40802 0.0
H286 H 0.51644 0.66027 0.83575 0.0
H287 H 0.49761 0.69506 0.82946 0.0
H288 H 0.60718 0.7752 0.81021 0.0
H289 H 0.62608 0.74037 0.81599 0.0
H290 H 0.57946 0.79736 0.83803 0.0
H291 H 0.54037 0.72766 0.77524 0.0
H292 H 0.50725 0.67314 0.75534 0.0
H293 H 0.40452 0.64259 0.7791 0.0
H294 H 0.43713 0.69672 0.79944 0.0
H295 H 0.54996 0.90347 0.79318 0.0
H296 H 0.56576 0.86659 0.79984 0.0
H297 H 0.45131 0.78434 0.80968 0.0
H298 H 0.43515 0.82086 0.80231 0.0
H299 H 0.47966 0.76174 0.7878 0.0
H300 H 0.51588 0.82937 0.85022 0.0
H301 H 0.54711 0.88175 0.87219 0.0
H302 H 0.65227 0.9141 0.8516 0.0
H303 H 0.62163 0.8621 0.82929 0.0
C304 C 0.53642 0.68511 0.8299 0.0
C305 C 0.57279 0.69752 0.82634 0.0
C306 C 0.52565 0.705 0.82642 0.0
C307 C 0.551 0.73762 0.81932 0.0
C308 C 0.58728 0.75013 0.81579 0.0
C309 C 0.59804 0.73022 0.81916 0.0
C310 C 0.53982 0.75886 0.81562 0.0
C311 C 0.55796 0.78984 0.82688 0.0
C312 C 0.51094 0.74838 0.80156 0.0
C313 C 0.49124 0.71612 0.78901 0.0
C314 C 0.51075 0.70923 0.77633 0.0
C315 C 0.49207 0.6784 0.76496 0.0
C316 C 0.45382 0.65439 0.76599 0.0
C317 C 0.43415 0.6612 0.77834 0.0
C318 C 0.45272 0.69195 0.78978 0.0
C319 C 0.52815 0.87755 0.79679 0.0
C320 C 0.49132 0.8651 0.79729 0.0
C321 C 0.53724 0.85651 0.8007 0.0
C322 C 0.50981 0.82281 0.80561 0.0
C323 C 0.47296 0.81026 0.80597 0.0
C324 C 0.46378 0.83118 0.8018 0.0
C325 C 0.51956 0.8006 0.81009 0.0
C326 C 0.50112 0.76936 0.79901 0.0
C327 C 0.54788 0.81064 0.82453 0.0
C328 C 0.56642 0.84197 0.83793 0.0
C329 C 0.54565 0.84777 0.85025 0.0
C330 C 0.56325 0.87737 0.86279 0.0
C331 C 0.60164 0.90127 0.86325 0.0
C332 C 0.62253 0.89558 0.85121 0.0
C333 C 0.60506 0.86603 0.83863 0.0
H334 H 0.61522 0.92417 0.87297 0.0
H335 H 0.43941 0.63053 0.75719 0.0
H336 H 0.82427 0.54511 0.18933 0.0
H337 H 0.75887 0.51911 0.19065 0.0
H338 H 0.73304 0.42291 0.2017 0.0
H339 H 0.79845 0.44876 0.20005 0.0
H340 H 0.69355 0.41745 0.17049 0.0
H341 H 0.72219 0.46775 0.23903 0.0
H342 H 0.75677 0.51426 0.26559 0.0
H343 H 0.72653 0.56817 0.23549 0.0
H344 H 0.69217 0.5222 0.2086 0.0
H345 H 0.50396 0.33439 0.16964 0.0
H346 H 0.56474 0.35688 0.18342 0.0
H347 H 0.60239 0.45859 0.17725 0.0
H348 H 0.54118 0.43621 0.16451 0.0
H349 H 0.6344 0.45797 0.20954 0.0
H350 H 0.61519 0.41502 0.13925 0.0
H351 H 0.58341 0.37205 0.11054 0.0
H352 H 0.59925 0.30852 0.14165 0.0
H353 H 0.63075 0.35097 0.17066 0.0
C354 C 0.80471 0.51861 0.19252 0.0
C355 C 0.81632 0.49887 0.19447 0.0
C356 C 0.76735 0.50378 0.19334 0.0
C357 C 0.74107 0.46909 0.19642 0.0
C358 C 0.75286 0.44971 0.19929 0.0
C359 C 0.79014 0.46445 0.19829 0.0
C360 C 0.70119 0.45234 0.19435 0.0
C361 C 0.68042 0.42581 0.17939 0.0
C362 C 0.68442 0.46406 0.20544 0.0
C363 C 0.70477 0.49159 0.22172 0.0
C364 C 0.7231 0.48961 0.238 0.0
C365 C 0.74263 0.51587 0.25313 0.0
C366 C 0.7439 0.54417 0.25221 0.0
C367 C 0.72554 0.54623 0.23619 0.0
C368 C 0.70597 0.52005 0.22102 0.0
C369 C 0.52505 0.36153 0.17159 0.0
C370 C 0.51805 0.38358 0.16582 0.0
C371 C 0.5598 0.37436 0.17937 0.0
C372 C 0.58843 0.40943 0.18086 0.0
C373 C 0.58081 0.43145 0.17618 0.0
C374 C 0.54583 0.41863 0.16885 0.0
C375 C 0.6269 0.42317 0.18565 0.0
C376 C 0.64742 0.44922 0.20096 0.0
C377 C 0.6438 0.41148 0.17465 0.0
C378 C 0.62492 0.38597 0.15721 0.0
C379 C 0.61166 0.39178 0.14002 0.0
C380 C 0.59374 0.36754 0.12369 0.0
C381 C 0.58921 0.33752 0.1243 0.0
C382 C 0.6027 0.33174 0.14122 0.0
C383 C 0.6206 0.35588 0.1576 0.0
H384 H 0.57533 0.31879 0.11164 0.0
H385 H 0.75905 0.56448 0.26393 0.0
H386 H 0.39345 0.93461 0.47199 0.0
H387 H 0.34044 0.87467 0.46997 0.0
H388 H 0.40008 0.85274 0.50651 0.0
H389 H 0.45355 0.9127 0.50843 0.0
H390 H 0.36464 0.80813 0.47395 0.0
H391 H 0.33372 0.8527 0.52788 0.0
H392 H 0.32497 0.89199 0.54449 0.0
H393 H 0.24183 0.8624 0.49897 0.0
H394 H 0.25048 0.82329 0.48189 0.0
H395 H 0.20435 0.63781 0.48161 0.0
H396 H 0.25826 0.69587 0.4911 0.0
H397 H 0.20864 0.73335 0.46035 0.0
H398 H 0.15403 0.67539 0.45173 0.0
H399 H 0.24088 0.76929 0.49415 0.0
H400 H 0.2784 0.73089 0.43782 0.0
H401 H 0.28722 0.69163 0.42113 0.0
H402 H 0.35719 0.70919 0.4717 0.0
H403 H 0.34899 0.74873 0.48863 0.0
C404 C 0.39538 0.9171 0.4796 0.0
C405 C 0.42773 0.92849 0.49042 0.0
C406 C 0.36495 0.88285 0.47853 0.0
C407 C 0.36616 0.85934 0.48834 0.0
C408 C 0.39855 0.87051 0.49891 0.0
C409 C 0.42904 0.9048 0.5 0.0
C410 C 0.33368 0.82304 0.48723 0.0
C411 C 0.33767 0.79954 0.47867 0.0
C412 C 0.29846 0.81192 0.4932 0.0
C413 C 0.29296 0.83524 0.50352 0.0
C414 C 0.31376 0.85474 0.52132 0.0
C415 C 0.30878 0.87696 0.53084 0.0
C416 C 0.28291 0.87974 0.52277 0.0
C417 C 0.26188 0.86024 0.50519 0.0
C418 C 0.26678 0.83801 0.49561 0.0
C419 C 0.20493 0.65847 0.47697 0.0
C420 C 0.17513 0.65212 0.46582 0.0
C421 C 0.23582 0.69165 0.48231 0.0
C422 C 0.23789 0.71907 0.47607 0.0
C423 C 0.20775 0.71266 0.46532 0.0
C424 C 0.17658 0.67951 0.46035 0.0
C425 C 0.27158 0.75448 0.4803 0.0
C426 C 0.26787 0.77783 0.48955 0.0
C427 C 0.30706 0.76549 0.47495 0.0
C428 C 0.31286 0.74252 0.46453 0.0
C429 C 0.29568 0.72636 0.44536 0.0
C430 C 0.30064 0.70414 0.43584 0.0
C431 C 0.32282 0.69797 0.44534 0.0
C432 C 0.34022 0.71415 0.46432 0.0
C433 C 0.33551 0.73653 0.47385 0.0
H434 H 0.32652 0.68066 0.43799 0.0
H435 H 0.2791 0.89695 0.53015 0.0
H436 H 0.58294 0.36982 0.85067 0.0
H437 H 0.59452 0.33082 0.83847 0.0
H438 H 0.49068 0.24748 0.86221 0.0
H439 H 0.47979 0.28643 0.87539 0.0
H440 H 0.54112 0.23904 0.86774 0.0
H441 H 0.50004 0.26912 0.81125 0.0
H442 H 0.50436 0.3092 0.78854 0.0
H443 H 0.61132 0.34365 0.77004 0.0
H444 H 0.60778 0.30403 0.79285 0.0
H445 H 0.47877 0.0948 0.80641 0.0
H446 H 0.48854 0.14385 0.8233 0.0
H447 H 0.59362 0.20984 0.79465 0.0
H448 H 0.58379 0.16061 0.77732 0.0
H449 H 0.55468 0.23315 0.79251 0.0
H450 H 0.59031 0.19548 0.84534 0.0
H451 H 0.58416 0.15416 0.86767 0.0
H452 H 0.48637 0.13298 0.89295 0.0
H453 H 0.49162 0.17383 0.87057 0.0
C454 C 0.56294 0.34331 0.85374 0.0
C455 C 0.53011 0.33118 0.86375 0.0
C456 C 0.56947 0.321 0.84655 0.0
C457 C 0.54309 0.28613 0.84902 0.0
C458 C 0.51131 0.27424 0.85998 0.0
C459 C 0.50492 0.29652 0.86732 0.0
C460 C 0.54707 0.26155 0.83915 0.0
C461 C 0.54398 0.23767 0.85129 0.0
C462 C 0.55186 0.26035 0.81775 0.0
C463 C 0.55383 0.28391 0.80391 0.0
C464 C 0.52457 0.2854 0.80243 0.0
C465 C 0.52686 0.30801 0.78953 0.0
C466 C 0.55815 0.32903 0.7779 0.0
C467 C 0.58714 0.3274 0.77909 0.0
C468 C 0.585 0.30487 0.79199 0.0
C469 C 0.50403 0.11969 0.80368 0.0
C470 C 0.53058 0.12377 0.79058 0.0
C471 C 0.50966 0.14774 0.81347 0.0
C472 C 0.54211 0.18047 0.81054 0.0
C473 C 0.5685 0.18476 0.79723 0.0
C474 C 0.56284 0.15663 0.78736 0.0
C475 C 0.54764 0.21003 0.82103 0.0
C476 C 0.55254 0.23486 0.80902 0.0
C477 C 0.54436 0.21201 0.84254 0.0
C478 C 0.54127 0.18761 0.85618 0.0
C479 C 0.56736 0.18187 0.85557 0.0
C480 C 0.56405 0.15854 0.86825 0.0
C481 C 0.53487 0.14092 0.8817 0.0
C482 C 0.50897 0.14665 0.88253 0.0
C483 C 0.51213 0.16993 0.86987 0.0
H484 H 0.53235 0.12286 0.8915 0.0
H485 H 0.55988 0.34653 0.76792 0.0
H486 H 0.56177 0.86973 0.49611 0.0
H487 H 0.55321 0.81734 0.50068 0.0
H488 H 0.51529 0.81282 0.56191 0.0
H489 H 0.52408 0.86528 0.55752 0.0
H490 H 0.56931 0.80494 0.56027 0.0
H491 H 0.45529 0.76021 0.52438 0.0
H492 H 0.41785 0.75624 0.49582 0.0
H493 H 0.46791 0.72887 0.45363 0.0
H494 H 0.5061 0.7332 0.4819 0.0
H495 H 0.49534 0.64277 0.58836 0.0
H496 H 0.50083 0.69152 0.57821 0.0
H497 H 0.537 0.68473 0.51856 0.0
H498 H 0.53149 0.63545 0.52862 0.0
H499 H 0.48709 0.69898 0.51684 0.0
H500 H 0.59977 0.74215 0.55152 0.0
H501 H 0.63958 0.74751 0.57911 0.0
H502 H 0.59513 0.77949 0.62227 0.0
H503 H 0.5546 0.77382 0.59498 0.0
C504 C 0.55152 0.85749 0.51052 0.0
C505 C 0.54363 0.87163 0.52647 0.0
C506 C 0.54641 0.82747 0.51305 0.0
C507 C 0.53348 0.81113 0.5316 0.0
C508 C 0.52524 0.82501 0.54746 0.0
C509 C 0.53003 0.85484 0.54488 0.0
C510 C 0.53001 0.78038 0.5349 0.0
C511 C 0.55099 0.78166 0.55093 0.0
C512 C 0.50717 0.75043 0.52219 0.0
C513 C 0.48388 0.74742 0.50523 0.0
C514 C 0.45855 0.75362 0.50899 0.0
C515 C 0.43715 0.75126 0.49285 0.0
C516 C 0.44061 0.74244 0.4729 0.0
C517 C 0.46533 0.73577 0.46908 0.0
C518 C 0.48684 0.73816 0.48516 0.0
C519 C 0.50427 0.65139 0.57301 0.0
C520 C 0.51328 0.63534 0.55936 0.0
C521 C 0.50744 0.67936 0.56725 0.0
C522 C 0.51977 0.69201 0.54773 0.0
C523 C 0.52753 0.67539 0.53373 0.0
C524 C 0.52448 0.64733 0.53953 0.0
C525 C 0.52579 0.7234 0.54252 0.0
C526 C 0.50548 0.72233 0.52611 0.0
C527 C 0.54955 0.75375 0.55474 0.0
C528 C 0.5739 0.75725 0.57123 0.0
C529 C 0.59824 0.75004 0.56693 0.0
C530 C 0.62099 0.75319 0.58251 0.0
C531 C 0.61982 0.76376 0.60244 0.0
C532 C 0.59597 0.77127 0.60682 0.0
C533 C 0.57313 0.76812 0.5913 0.0
H534 H 0.63746 0.76619 0.61448 0.0
H535 H 0.42412 0.74072 0.46041 0.0
H536 H 0.61489 0.46409 0.85382 0.0
H537 H 0.6652 0.46069 0.85581 0.0
H538 H 0.73897 0.56505 0.87848 0.0
H539 H 0.68926 0.56909 0.87486 0.0
H540 H 0.77561 0.55702 0.85523 0.0
H541 H 0.69378 0.4861 0.90942 0.0
H542 H 0.63451 0.4384 0.92312 0.0
H543 H 0.63339 0.3686 0.88248 0.0
H544 H 0.69245 0.41582 0.86837 0.0
H545 H 0.91816 0.5539 0.89297 0.0
H546 H 0.86727 0.55669 0.89034 0.0
H547 H 0.79835 0.45651 0.86109 0.0
H548 H 0.84866 0.45335 0.86396 0.0
H549 H 0.75934 0.46165 0.88755 0.0
H550 H 0.83884 0.52938 0.83371 0.0
H551 H 0.89723 0.57512 0.8183 0.0
H552 H 0.90157 0.64904 0.85651 0.0
H553 H 0.84342 0.60367 0.87234 0.0
C554 C 0.6419 0.48633 0.85919 0.0
C555 C 0.64803 0.51687 0.8642 0.0
C556 C 0.67074 0.48429 0.86057 0.0
C557 C 0.70616 0.51233 0.8679 0.0
C558 C 0.71217 0.5429 0.87281 0.0
C559 C 0.68364 0.54523 0.87078 0.0
C560 C 0.73715 0.51029 0.87011 0.0
C561 C 0.77201 0.53639 0.86268 0.0
C562 C 0.73276 0.48287 0.8791 0.0
C563 C 0.69744 0.45453 0.88777 0.0
C564 C 0.68084 0.4606 0.90337 0.0
C565 C 0.64731 0.43365 0.91122 0.0
C566 C 0.63026 0.40054 0.90371 0.0
C567 C 0.64668 0.39426 0.88832 0.0
C568 C 0.68019 0.42109 0.88041 0.0
C569 C 0.89217 0.53244 0.88599 0.0
C570 C 0.88776 0.50346 0.87861 0.0
C571 C 0.86304 0.53412 0.8844 0.0
C572 C 0.82881 0.50696 0.87527 0.0
C573 C 0.82429 0.47786 0.86819 0.0
C574 C 0.85329 0.47615 0.8698 0.0
C575 C 0.79769 0.50864 0.87304 0.0
C576 C 0.76288 0.48242 0.88034 0.0
C577 C 0.80201 0.53579 0.86383 0.0
C578 C 0.837 0.56311 0.85437 0.0
C579 C 0.85241 0.55537 0.83895 0.0
C580 C 0.88543 0.58123 0.83011 0.0
C581 C 0.90315 0.61496 0.83647 0.0
C582 C 0.88784 0.62289 0.85163 0.0
C583 C 0.85484 0.59712 0.86053 0.0
H584 H 0.92871 0.63494 0.82961 0.0
H585 H 0.60425 0.37975 0.90978 0.0
H586 H 0.14981 0.60325 0.13401 0.0
H587 H 0.21189 0.65736 0.13851 0.0
H588 H 0.16814 0.69921 0.1734 0.0
H589 H 0.10631 0.64543 0.1692 0.0
H590 H 0.24396 0.7223 0.12845 0.0
H591 H 0.22651 0.74802 0.21334 0.0
H592 H 0.1914 0.71569 0.24332 0.0
H593 H 0.18462 0.63135 0.21938 0.0
H594 H 0.22015 0.66334 0.18943 0.0
H595 H 0.38105 0.8949 0.16354 0.0
H596 H 0.32488 0.83817 0.15361 0.0
H597 H 0.3599 0.79465 0.19184 0.0
H598 H 0.41575 0.85108 0.20198 0.0
H599 H 0.29144 0.76916 0.19958 0.0
H600 H 0.35921 0.78633 0.13964 0.0
H601 H 0.39634 0.81602 0.10956 0.0
H602 H 0.3075 0.81049 0.08368 0.0
H603 H 0.27 0.78116 0.11375 0.0
C604 C 0.15335 0.62402 0.14255 0.0
C605 C 0.12306 0.61985 0.15141 0.0
C606 C 0.18886 0.65497 0.14504 0.0
C607 C 0.1947 0.68218 0.15651 0.0
C608 C 0.16435 0.6784 0.16476 0.0
C609 C 0.12896 0.64758 0.1623 0.0
C610 C 0.23255 0.71421 0.16059 0.0
C611 C 0.25441 0.73259 0.14399 0.0
C612 C 0.24651 0.72723 0.18087 0.0
C613 C 0.22572 0.708 0.19905 0.0
C614 C 0.21769 0.72264 0.21453 0.0
C615 C 0.19769 0.70436 0.23151 0.0
C616 C 0.18569 0.67145 0.23322 0.0
C617 C 0.19381 0.6568 0.218 0.0
C618 C 0.21386 0.67498 0.20101 0.0
C619 C 0.37703 0.87323 0.16962 0.0
C620 C 0.40283 0.87758 0.18365 0.0
C621 C 0.34494 0.84079 0.16387 0.0
C622 C 0.33816 0.8121 0.17195 0.0
C623 C 0.36443 0.81638 0.18546 0.0
C624 C 0.39644 0.84873 0.19121 0.0
C625 C 0.30269 0.77782 0.16744 0.0
C626 C 0.28116 0.75895 0.18401 0.0
C627 C 0.28946 0.76414 0.14715 0.0
C628 C 0.31192 0.78182 0.12905 0.0
C629 C 0.3477 0.7917 0.12762 0.0
C630 C 0.36879 0.80841 0.11055 0.0
C631 C 0.35432 0.81521 0.09474 0.0
C632 C 0.31869 0.80524 0.09595 0.0
C633 C 0.29749 0.78854 0.11299 0.0
H634 H 0.37069 0.82815 0.08154 0.0
H635 H 0.17016 0.65733 0.24636 0.0
H636 H 0.44366 0.17943 0.47798 0.0
H637 H 0.45617 0.23312 0.48691 0.0
H638 H 0.56942 0.2786 0.50177 0.0
H639 H 0.55662 0.22441 0.49394 0.0
H640 H 0.54385 0.29608 0.53041 0.0
H641 H 0.543 0.29567 0.45713 0.0
H642 H 0.51846 0.27264 0.42187 0.0
H643 H 0.42429 0.26785 0.43468 0.0
H644 H 0.44802 0.29042 0.47012 0.0
H645 H 0.60485 0.46486 0.53815 0.0
H646 H 0.59612 0.41374 0.52599 0.0
H647 H 0.47959 0.36128 0.51741 0.0
H648 H 0.48807 0.41232 0.52954 0.0
H649 H 0.50909 0.34894 0.48482 0.0
H650 H 0.50995 0.34774 0.55863 0.0
H651 H 0.53547 0.37132 0.59368 0.0
H652 H 0.6316 0.38014 0.57917 0.0
H653 H 0.60686 0.35703 0.54392 0.0
C654 C 0.47122 0.20075 0.48325 0.0
C655 C 0.49908 0.19742 0.48528 0.0
C656 C 0.47846 0.23164 0.48811 0.0
C657 C 0.51389 0.26014 0.49479 0.0
C658 C 0.54189 0.25705 0.49659 0.0
C659 C 0.5346 0.22607 0.49189 0.0
C660 C 0.52129 0.29272 0.50069 0.0
C661 C 0.53682 0.3079 0.52027 0.0
C662 C 0.51142 0.30789 0.48768 0.0
C663 C 0.49715 0.29447 0.46634 0.0
C664 C 0.51693 0.28948 0.45248 0.0
C665 C 0.50318 0.27654 0.43245 0.0
C666 C 0.4698 0.26871 0.42606 0.0
C667 C 0.45013 0.27389 0.43967 0.0
C668 C 0.46374 0.28679 0.45972 0.0
C669 C 0.57737 0.4425 0.53361 0.0
C670 C 0.54712 0.44265 0.53491 0.0
C671 C 0.57242 0.41327 0.52672 0.0
C672 C 0.53715 0.3836 0.52097 0.0
C673 C 0.50704 0.38388 0.52179 0.0
C674 C 0.51192 0.41305 0.52879 0.0
C675 C 0.53155 0.35209 0.51447 0.0
C676 C 0.51631 0.33714 0.49484 0.0
C677 C 0.54189 0.33723 0.52736 0.0
C678 C 0.55673 0.35099 0.54857 0.0
C679 C 0.53667 0.35497 0.56286 0.0
C680 C 0.55096 0.3682 0.58278 0.0
C681 C 0.58518 0.37732 0.58863 0.0
C682 C 0.60512 0.37312 0.5746 0.0
C683 C 0.59097 0.35993 0.55466 0.0
H684 H 0.5962 0.38755 0.60406 0.0
H685 H 0.4592 0.2587 0.41055 0.0
H686 H 0.42207 0.47048 0.86998 0.0
H687 H 0.37125 0.4733 0.87033 0.0
H688 H 0.44577 0.57796 0.85535 0.0
H689 H 0.49695 0.57533 0.85487 0.0
H690 H 0.3987 0.56695 0.88665 0.0
H691 H 0.38801 0.52042 0.81918 0.0
H692 H 0.38396 0.4811 0.79329 0.0
H693 H 0.28417 0.39747 0.81946 0.0
H694 H 0.28792 0.43626 0.84573 0.0
H695 H 0.25622 0.57948 0.86526 0.0
H696 H 0.30984 0.58069 0.86382 0.0
H697 H 0.23943 0.47303 0.87084 0.0
H698 H 0.18561 0.47156 0.87175 0.0
H699 H 0.2865 0.48794 0.84249 0.0
H700 H 0.29833 0.534 0.91081 0.0
H701 H 0.30283 0.5731 0.93711 0.0
H702 H 0.40049 0.6573 0.90975 0.0
H703 H 0.39631 0.61872 0.88312 0.0
C704 C 0.42779 0.49415 0.86672 0.0
C705 C 0.46378 0.52266 0.86237 0.0
C706 C 0.39856 0.49568 0.86686 0.0
C707 C 0.40446 0.52578 0.86275 0.0
C708 C 0.44041 0.55442 0.85858 0.0
C709 C 0.46967 0.55282 0.85823 0.0
C710 C 0.37304 0.52714 0.86291 0.0
C711 C 0.37439 0.55002 0.87677 0.0
C712 C 0.34089 0.50463 0.85036 0.0
C713 C 0.33845 0.48122 0.83455 0.0
C714 C 0.36537 0.49361 0.81953 0.0
C715 C 0.3631 0.47143 0.80476 0.0
C716 C 0.33388 0.4368 0.80476 0.0
C717 C 0.30681 0.4243 0.8195 0.0
C718 C 0.30898 0.44638 0.83432 0.0
C719 C 0.25211 0.55606 0.86665 0.0
C720 C 0.21644 0.52543 0.86871 0.0
C721 C 0.28294 0.5568 0.8659 0.0
C722 C 0.27905 0.52701 0.86746 0.0
C723 C 0.24343 0.49643 0.86959 0.0
C724 C 0.21257 0.49563 0.87021 0.0
C725 C 0.31181 0.52748 0.86645 0.0
C726 C 0.31077 0.50495 0.85238 0.0
C727 C 0.34421 0.55027 0.87886 0.0
C728 C 0.34678 0.57351 0.89485 0.0
C729 C 0.3206 0.56088 0.91031 0.0
C730 C 0.32312 0.58294 0.92529 0.0
C731 C 0.35187 0.61767 0.92507 0.0
C732 C 0.37821 0.6304 0.90989 0.0
C733 C 0.3758 0.60845 0.89486 0.0
H734 H 0.35377 0.63471 0.93669 0.0
H735 H 0.33216 0.41966 0.79331 0.0
H736 H 0.9306 0.39525 0.14009 0.0
H737 H 0.87295 0.33908 0.14521 0.0
H738 H 0.82276 0.38399 0.16612 0.0
H739 H 0.8809 0.44018 0.16204 0.0
H740 H 0.80391 0.3376 0.18991 0.0
H741 H 0.8042 0.34091 0.11653 0.0
H742 H 0.8293 0.34859 0.08195 0.0
H743 H 0.83545 0.26819 0.08977 0.0
H744 H 0.81083 0.26031 0.12452 0.0
H745 H 0.61897 0.18589 0.18452 0.0
H746 H 0.6758 0.24154 0.17714 0.0
H747 H 0.73081 0.19799 0.1666 0.0
H748 H 0.67402 0.14215 0.17392 0.0
H749 H 0.74638 0.24291 0.13722 0.0
H750 H 0.74545 0.24058 0.21106 0.0
H751 H 0.71883 0.2331 0.24517 0.0
H752 H 0.7118 0.31252 0.23538 0.0
H753 H 0.73792 0.32016 0.20108 0.0
C754 C 0.90719 0.39316 0.14562 0.0
C755 C 0.91034 0.42226 0.15054 0.0
C756 C 0.87409 0.36094 0.14845 0.0
C757 C 0.84308 0.35705 0.15573 0.0
C758 C 0.84616 0.38615 0.16048 0.0
C759 C 0.87946 0.41837 0.15805 0.0
C760 C 0.80786 0.32283 0.15914 0.0
C761 C 0.79111 0.31713 0.17821 0.0
C762 C 0.79134 0.29566 0.14413 0.0
C763 C 0.80598 0.30024 0.1232 0.0
C764 C 0.81114 0.32502 0.11093 0.0
C765 C 0.82524 0.32938 0.09129 0.0
C766 C 0.83405 0.30895 0.08368 0.0
C767 C 0.82866 0.28403 0.09568 0.0
C768 C 0.81459 0.27958 0.11534 0.0
C769 C 0.6431 0.18808 0.18058 0.0
C770 C 0.64197 0.15956 0.1799 0.0
C771 C 0.67561 0.21995 0.17642 0.0
C772 C 0.70766 0.22398 0.17151 0.0
C773 C 0.70642 0.19546 0.17038 0.0
C774 C 0.67396 0.16359 0.17464 0.0
C775 C 0.74259 0.25802 0.16784 0.0
C776 C 0.75925 0.26357 0.1488 0.0
C777 C 0.75883 0.28517 0.18276 0.0
C778 C 0.7433 0.28071 0.20342 0.0
C779 C 0.73796 0.25627 0.21611 0.0
C780 C 0.72301 0.25203 0.23549 0.0
C781 C 0.71354 0.27226 0.24242 0.0
C782 C 0.7191 0.29683 0.22999 0.0
C783 C 0.734 0.30115 0.21059 0.0
H784 H 0.70197 0.26894 0.25743 0.0
H785 H 0.84498 0.31237 0.06848 0.0
H786 H 0.99462 0.48472 0.09201 0.0
H787 H 1.00239 0.48252 0.05493 0.0
H788 H 0.02144 0.57712 0.05018 0.0
H789 H 0.01498 0.58009 0.08742 0.0
H790 H 0.97004 0.52164 0.01863 0.0
H791 H 0.09135 0.58406 0.04998 0.0
H792 H 0.13747 0.59318 0.07451 0.0
H793 H 0.12065 0.50471 0.04871 0.0
H794 H 0.07364 0.49451 0.02437 0.0
H795 H 0.04224 0.55811 0.91796 0.0
H796 H 0.02931 0.56003 0.9542 0.0
H797 H 0.04587 0.48679 0.96617 0.0
H798 H 0.06045 0.48612 0.93019 0.0
H799 H 0.07879 0.53276 0.9946 0.0
H800 H 0.95732 0.46847 0.96377 0.0
H801 H 0.91029 0.4575 0.93914 0.0
H802 H 0.92518 0.54571 0.96358 0.0
H803 H 0.9727 0.5575 0.98817 0.0
C804 C 1.00055 0.50508 0.08307 0.0
C805 C 1.00472 0.53281 0.0926 0.0
C806 C 1.0048 0.5037 0.06191 0.0
C807 C 0.01255 0.5297 0.04988 0.0
C808 C 0.01539 0.55681 0.05923 0.0
C809 C 0.01186 0.55853 0.08047 0.0
C810 C 0.01945 0.52928 0.02772 0.0
C811 C 0.99398 0.52442 0.01329 0.0
C812 C 0.05028 0.53219 0.02089 0.0
C813 C 0.07862 0.5383 0.0355 0.0
C814 C 0.09712 0.5663 0.0497 0.0
C815 C 0.12347 0.57169 0.06355 0.0
C816 C 0.13193 0.5495 0.06319 0.0
C817 C 0.11402 0.52185 0.04899 0.0
C818 C 0.08748 0.51622 0.03518 0.0
C819 C 0.04247 0.54202 0.92829 0.0
C820 C 0.05189 0.52166 0.92126 0.0
C821 C 0.03508 0.54311 0.94902 0.0
C822 C 0.03603 0.52316 0.96299 0.0
C823 C 0.04499 0.50248 0.9558 0.0
C824 C 0.05315 0.50197 0.93522 0.0
C825 C 0.02907 0.52461 0.9852 0.0
C826 C 0.05467 0.5298 0.99976 0.0
C827 C 0.99807 0.52155 0.99211 0.0
C828 C 0.96883 0.51404 0.97769 0.0
C829 C 0.95069 0.48562 0.96383 0.0
C830 C 0.92394 0.47926 0.94987 0.0
C831 C 0.91484 0.50096 0.94975 0.0
C832 C 0.9323 0.52896 0.96367 0.0
C833 C 0.95912 0.53547 0.97764 0.0
H834 H 0.89421 0.49605 0.93889 0.0
H835 H 0.15245 0.55381 0.07388 0.0
H836 H 0.60368 0.07026 0.43759 0.0
H837 H 0.6019 0.07519 0.40055 0.0
H838 H 0.48315 0.01145 0.40085 0.0
H839 H 0.48488 0.00702 0.43802 0.0
H840 H 0.57213 0.02725 0.37041 0.0
H841 H 0.45355 0.03636 0.36224 0.0
H842 H 0.42485 0.05564 0.38336 0.0
H843 H 0.5259 0.12444 0.41845 0.0
H844 H 0.55551 0.1062 0.39719 0.0
H845 H 0.49477 0.98294 0.27024 0.0
H846 H 0.50117 0.98831 0.30761 0.0
H847 H 0.56302 0.09623 0.3061 0.0
H848 H 0.55695 0.09121 0.2685 0.0
H849 H 0.50802 0.06504 0.337 0.0
H850 H 0.61001 0.07063 0.31333 0.0
H851 H 0.63965 0.05162 0.29293 0.0
H852 H 0.57567 0.95732 0.3226 0.0
H853 H 0.54525 0.97559 0.34297 0.0
C854 C 0.57722 0.05742 0.42975 0.0
C855 C 0.54441 0.03817 0.44059 0.0
C856 C 0.57623 0.06019 0.4086 0.0
C857 C 0.54242 0.0438 0.39795 0.0
C858 C 0.50958 0.02465 0.40881 0.0
C859 C 0.51058 0.02205 0.43 0.0
C860 C 0.54158 0.04607 0.37539 0.0
C861 C 0.55819 0.03562 0.36315 0.0
C862 C 0.52375 0.05737 0.36593 0.0
C863 C 0.5067 0.06971 0.37819 0.0
C864 C 0.4698 0.05586 0.37431 0.0
C865 C 0.45335 0.06659 0.38632 0.0
C866 C 0.47354 0.09122 0.40225 0.0
C867 C 0.51031 0.10537 0.4061 0.0
C868 C 0.52695 0.09489 0.39405 0.0
C869 C 0.50968 0.00789 0.27779 0.0
C870 C 0.52553 0.03671 0.26634 0.0
C871 C 0.51329 0.01085 0.29917 0.0
C872 C 0.53268 0.04265 0.30957 0.0
C873 C 0.5479 0.07145 0.29831 0.0
C874 C 0.5446 0.06857 0.27684 0.0
C875 C 0.53794 0.0456 0.33218 0.0
C876 C 0.52211 0.05692 0.34437 0.0
C877 C 0.55673 0.03536 0.34169 0.0
C878 C 0.57514 0.02438 0.32955 0.0
C879 C 0.60206 0.04574 0.31539 0.0
C880 C 0.61904 0.03512 0.30385 0.0
C881 C 0.6095 0.00326 0.30644 0.0
C882 C 0.58302 0.98199 0.3206 0.0
C883 C 0.56593 0.99248 0.33216 0.0
H884 H 0.62267 0.99508 0.29749 0.0
H885 H 0.46069 0.09934 0.41161 0.0
H886 H 0.60191 0.53457 0.80487 0.0
H887 H 0.60933 0.54609 0.76815 0.0
H888 H 0.49338 0.49752 0.76174 0.0
H889 H 0.48565 0.48524 0.79814 0.0
H890 H 0.5668 0.49302 0.73437 0.0
H891 H 0.49013 0.54926 0.72898 0.0
H892 H 0.4799 0.58415 0.75039 0.0
H893 H 0.58224 0.63009 0.78323 0.0
H894 H 0.59328 0.59581 0.7619 0.0
H895 H 0.49508 0.52437 0.63715 0.0
H896 H 0.4988 0.52181 0.67425 0.0
H897 H 0.60365 0.54193 0.66842 0.0
H898 H 0.5992 0.54295 0.63117 0.0
H899 H 0.5426 0.56543 0.70283 0.0
H900 H 0.6184 0.50798 0.70639 0.0
H901 H 0.62483 0.46996 0.68559 0.0
H902 H 0.51847 0.42166 0.65706 0.0
H903 H 0.51123 0.4591 0.67786 0.0
C904 C 0.57812 0.52656 0.7956 0.0
C905 C 0.54318 0.50888 0.80421 0.0
C906 C 0.58237 0.53305 0.7747 0.0
C907 C 0.5519 0.5227 0.76234 0.0
C908 C 0.51722 0.50583 0.77108 0.0
C909 C 0.51284 0.49877 0.79182 0.0
C910 C 0.55561 0.52811 0.74007 0.0
C911 C 0.56228 0.50936 0.72743 0.0
C912 C 0.54857 0.54867 0.73114 0.0
C913 C 0.54234 0.5697 0.74393 0.0
C914 C 0.5105 0.56688 0.74072 0.0
C915 C 0.50454 0.58653 0.75287 0.0
C916 C 0.53031 0.60922 0.76822 0.0
C917 C 0.56216 0.61236 0.77143 0.0
C918 C 0.56825 0.59277 0.75934 0.0
C919 C 0.5188 0.52799 0.64376 0.0
C920 C 0.54671 0.5336 0.63121 0.0
C921 C 0.52099 0.52668 0.665 0.0
C922 C 0.55133 0.53134 0.67422 0.0
C923 C 0.57954 0.53747 0.66171 0.0
C924 C 0.57702 0.53814 0.6404 0.0
C925 C 0.5533 0.52989 0.69688 0.0
C926 C 0.54757 0.54934 0.70966 0.0
C927 C 0.56065 0.50954 0.70595 0.0
C928 C 0.56451 0.48663 0.69351 0.0
C929 C 0.59636 0.48918 0.69572 0.0
C930 C 0.60014 0.46774 0.68392 0.0
C931 C 0.57214 0.4435 0.66996 0.0
C932 C 0.54021 0.44055 0.66782 0.0
C933 C 0.53627 0.46189 0.67959 0.0
H934 H 0.57513 0.42696 0.66083 0.0
H935 H 0.52567 0.62444 0.77758 0.0
H936 H 0.44045 0.9887 0.55409 0.0
H937 H 0.44136 0.9804 0.5906 0.0
H938 H 0.55916 0.0595 0.59379 0.0
H939 H 0.55846 0.06662 0.55687 0.0
H940 H 0.54359 0.0115 0.61594 0.0
H941 H 0.49546 0.07168 0.61172 0.0
H942 H 0.45465 0.08372 0.59926 0.0
H943 H 0.36055 0.98967 0.62117 0.0
H944 H 0.40075 0.97685 0.63353 0.0
H945 H 0.54615 0.02715 0.72618 0.0
H946 H 0.55045 0.04047 0.69003 0.0
H947 H 0.43954 0.94894 0.67817 0.0
H948 H 0.43508 0.9355 0.71423 0.0
H949 H 0.45507 0.00784 0.66142 0.0
H950 H 0.50605 0.94838 0.66443 0.0
H951 H 0.54893 0.93914 0.67748 0.0
H952 H 0.64099 0.03705 0.65871 0.0
H953 H 0.59862 0.04706 0.64581 0.0
C954 C 0.46652 0.00428 0.5626 0.0
C955 C 0.49933 0.02854 0.55279 0.0
C956 C 0.46702 0.99969 0.5835 0.0
C957 C 0.5002 0.01994 0.59514 0.0
C958 C 0.53318 0.04373 0.5852 0.0
C959 C 0.53277 0.04786 0.56415 0.0
C960 C 0.50032 0.01609 0.61762 0.0
C961 C 0.52464 0.0113 0.62591 0.0
C962 C 0.47538 0.01547 0.6307 0.0
C963 C 0.45111 0.02319 0.62341 0.0
C964 C 0.46604 0.05347 0.61377 0.0
C965 C 0.44302 0.06045 0.60674 0.0
C966 C 0.40503 0.03744 0.60938 0.0
C967 C 0.38999 0.00745 0.61912 0.0
C968 C 0.41288 1.00034 0.62616 0.0
C969 C 0.5225 0.0102 0.71593 0.0
C970 C 0.4901 0.98053 0.72304 0.0
C971 C 0.52513 0.01765 0.69527 0.0
C972 C 0.49532 0.99564 0.68148 0.0
C973 C 0.4628 0.96625 0.68861 0.0
C974 C 0.46035 0.95857 0.70916 0.0
C975 C 0.49795 0.00292 0.65951 0.0
C976 C 0.47417 0.00837 0.65138 0.0
C977 C 0.52374 0.00468 0.64668 0.0
C978 C 0.54919 0.99862 0.65437 0.0
C979 C 0.53544 0.96806 0.66326 0.0
C980 C 0.55965 0.96266 0.67059 0.0
C981 C 0.59766 0.98753 0.66898 0.0
C982 C 0.61154 0.01783 0.65998 0.0
C983 C 0.58744 0.02337 0.65264 0.0
H984 H 0.61636 0.9833 0.67466 0.0
H985 H 0.38725 0.04289 0.60392 0.0
H986 H 0.62081 0.56443 0.93115 0.0
H987 H 0.60648 0.54663 0.96662 0.0
H988 H 0.49139 0.47303 0.94902 0.0
H989 H 0.50542 0.49115 0.91385 0.0
H990 H 0.49989 0.50637 0.98443 0.0
H991 H 0.54651 0.4505 0.95529 0.0
H992 H 0.59274 0.44909 0.93767 0.0
H993 H 0.67145 0.51141 0.98683 0.0
H994 H 0.62578 0.51371 0.00456 0.0
H995 H 0.42793 0.38786 0.06228 0.0
H996 H 0.44935 0.41663 0.02991 0.0
H997 H 0.55765 0.49132 0.0574 0.0
H998 H 0.5363 0.4627 0.08984 0.0
H999 H 0.55747 0.46311 0.01887 0.0
H1000 H 0.51244 0.5198 0.04778 0.0
H1001 H 0.46902 0.52636 0.06421 0.0
H1002 H 0.38852 0.46326 0.01596 0.0
H1003 H 0.43185 0.45692 0.999 0.0
C1004 C 0.5925 0.54451 0.93493 0.0
C1005 C 0.56425 0.52903 0.9198 0.0
C1006 C 0.58435 0.5343 0.95513 0.0
C1007 C 0.54789 0.5083 0.96041 0.0
C1008 C 0.51968 0.49315 0.94531 0.0
C1009 C 0.52778 0.5034 0.92519 0.0
C1010 C 0.53881 0.49643 0.98159 0.0
C1011 C 0.51225 0.49662 0.99187 0.0
C1012 C 0.5557 0.48462 0.99153 0.0
C1013 C 0.58286 0.48257 0.98114 0.0
C1014 C 0.57374 0.46407 0.96228 0.0
C1015 C 0.59986 0.46311 0.95228 0.0
C1016 C 0.63509 0.48023 0.96111 0.0
C1017 C 0.64418 0.49821 0.98 0.0
C1018 C 0.61819 0.49935 0.99003 0.0
C1019 C 0.45624 0.41052 0.06142 0.0
C1020 C 0.48037 0.42332 0.07858 0.0
C1021 C 0.46837 0.42701 0.043 0.0
C1022 C 0.50498 0.45625 0.04137 0.0
C1023 C 0.52923 0.46893 0.05844 0.0
C1024 C 0.51695 0.45272 0.07696 0.0
C1025 C 0.51813 0.47256 0.0215 0.0
C1026 C 0.54537 0.47312 0.01147 0.0
C1027 C 0.50191 0.48507 0.01175 0.0
C1028 C 0.47522 0.48762 0.02225 0.0
C1029 C 0.48535 0.50706 0.04079 0.0
C1030 C 0.46081 0.51087 0.05014 0.0
C1031 C 0.4259 0.49501 0.04123 0.0
C1032 C 0.41554 0.47547 0.02287 0.0
C1033 C 0.44015 0.47192 0.01331 0.0
H1034 H 0.40695 0.498 0.0485 0.0
H1035 H 0.65534 0.47955 0.95334 0.0
H1036 H 0.08027 0.51512 0.20567 0.0
H1037 H 0.08112 0.51652 0.24332 0.0
H1038 H 0.97902 0.50232 0.24316 0.0
H1039 H 0.97865 0.50141 0.20553 0.0
H1040 H 0.02385 0.54776 0.27221 0.0
H1041 H 0.98187 0.43682 0.25172 0.0
H1042 H 0.98336 0.39401 0.23329 0.0
H1043 H 0.08576 0.43424 0.2642 0.0
H1044 H 0.08514 0.47762 0.28261 0.0
H1045 H 0.98812 0.50639 0.37722 0.0
H1046 H 0.98189 0.50061 0.3397 0.0
H1047 H 0.08944 0.52592 0.33589 0.0
H1048 H 0.09557 0.53119 0.37337 0.0
H1049 H 0.03815 0.47241 0.30906 0.0
H1050 H 0.07978 0.58484 0.32856 0.0
H1051 H 0.07623 0.62634 0.34709 0.0
H1052 H 0.97089 0.58068 0.31803 0.0
H1053 H 0.97359 0.53859 0.29953 0.0
C1054 C 0.05828 0.51261 0.21378 0.0
C1055 C 0.02979 0.50886 0.20293 0.0
C1056 C 0.05859 0.51317 0.23523 0.0
C1057 C 0.02989 0.50914 0.24611 0.0
C1058 C 1.00155 0.50565 0.23515 0.0
C1059 C 1.00147 0.50543 0.2137 0.0
C1060 C 0.0294 0.50846 0.26888 0.0
C1061 C 0.02641 0.5309 0.28023 0.0
C1062 C 0.03319 0.48677 0.27942 0.0
C1063 C 0.03362 0.46067 0.26841 0.0
C1064 C 1.00485 0.43671 0.25448 0.0
C1065 C 1.00551 0.41231 0.24405 0.0
C1066 C 0.03468 0.41146 0.24753 0.0
C1067 C 0.0632 0.43496 0.2615 0.0
C1068 C 0.06269 0.45944 0.27195 0.0
C1069 C 0.01003 0.50991 0.36843 0.0
C1070 C 0.04212 0.5188 0.37826 0.0
C1071 C 0.00664 0.50702 0.34698 0.0
C1072 C 0.03531 0.51304 0.33502 0.0
C1073 C 0.06698 0.52113 0.34483 0.0
C1074 C 0.07048 0.52425 0.36623 0.0
C1075 C 0.03293 0.51187 0.31228 0.0
C1076 C 0.03538 0.48909 0.30097 0.0
C1077 C 0.02829 0.533 0.30178 0.0
C1078 C 0.02671 0.55835 0.31284 0.0
C1079 C 0.05572 0.58347 0.32626 0.0
C1080 C 0.05389 0.60713 0.33673 0.0
C1081 C 0.02331 0.60608 0.33379 0.0
C1082 C 0.99453 0.58142 0.32032 0.0
C1083 C 0.99621 0.55768 0.30983 0.0
H1084 H 0.02194 0.62443 0.3419 0.0
H1085 H 0.03514 0.39255 0.23945 0.0
loop_
_geom_bond_atom_site_label_1
_geom_bond_atom_site_label_2
_geom_bond_distance
_geom_bond_site_symmetry_2
_ccdc_geom_bond_type
Gd0 C3 2.818 . S
Gd0 O20 2.377 . S
Gd0 O22 2.448 . S
Gd0 O23 2.506 . S
Gd0 O24 2.435 . S
Gd0 O25 2.717 . S
Gd0 O27 2.395 1_455 S
Gd0 O31 2.327 . S
Gd1 C12 2.818 1_455 S
Gd1 O21 2.395 . S
Gd1 O25 2.327 . S
Gd1 O26 2.377 1_455 S
Gd1 O28 2.448 1_455 S
Gd1 O29 2.506 1_455 S
Gd1 O30 2.435 . S
Gd1 O31 2.717 . S
C2 O20 1.240 . S
C2 O21 1.240 . S
C3 Gd0 2.818 . S
C3 C4 1.510 . S
C3 O22 1.249 . S
C3 O23 1.252 . S
C4 C3 1.510 . S
C4 C5 1.404 . S
C4 C6 1.352 . S
C5 C4 1.404 . S
C5 C9 1.389 . S
C5 H32 0.930 . S
C6 C4 1.352 . S
C6 C8 1.374 . S
C6 H33 0.931 . S
C7 C8 1.359 . S
C7 C9 1.364 . S
C8 C6 1.374 . S
C8 C7 1.359 . S
C8 H34 0.931 . S
C9 C5 1.389 . S
C9 C7 1.364 . S
C9 H35 0.931 . S
C10 O24 1.256 . S
C10 O25 1.257 . S
C11 O26 1.240 . S
C11 O27 1.240 . S
C12 Gd1 2.818 1_655 S
C12 C13 1.510 . S
C12 O28 1.249 . S
C12 O29 1.252 . S
C13 C12 1.510 . S
C13 C14 1.404 . S
C13 C15 1.352 . S
C14 C13 1.404 . S
C14 C18 1.389 . S
C14 H36 0.930 . S
C15 C13 1.352 . S
C15 C17 1.374 . S
C15 H37 0.931 . S
C16 C17 1.359 . S
C16 C18 1.364 . S
C17 C15 1.374 . S
C17 C16 1.359 . S
C17 H38 0.931 . S
C18 C14 1.389 . S
C18 C16 1.364 . S
C18 H39 0.931 . S
C19 O30 1.256 . S
C19 O31 1.257 . S
O20 Gd0 2.377 . S
O20 C2 1.240 . S
O21 Gd1 2.395 . S
O21 C2 1.240 . S
O22 Gd0 2.448 . S
O22 C3 1.249 . S
O23 Gd0 2.506 . S
O23 C3 1.252 . S
O24 Gd0 2.435 . S
O24 C10 1.256 . S
O25 Gd0 2.717 . S
O25 Gd1 2.327 . S
O25 C10 1.257 . S
O26 Gd1 2.377 1_655 S
O26 C11 1.240 . S
O27 Gd0 2.395 1_655 S
O27 C11 1.240 . S
O28 Gd1 2.448 1_655 S
O28 C12 1.249 . S
O29 Gd1 2.506 1_655 S
O29 C12 1.252 . S
O30 Gd1 2.435 . S
O30 C19 1.256 . S
O31 Gd0 2.327 . S
O31 Gd1 2.717 . S
O31 C19 1.257 . S
H32 C5 0.930 . S
H33 C6 0.931 . S
H34 C8 0.931 . S
H35 C9 0.931 . S
H36 C14 0.930 . S
H37 C15 0.931 . S
H38 C17 0.931 . S
H39 C18 0.931 . S
Gd40 C43 2.818 . S
Gd40 O60 2.377 . S
Gd40 O62 2.448 . S
Gd40 O63 2.506 . S
Gd40 O64 2.435 . S
Gd40 O65 2.717 1_565 S
Gd40 O67 2.395 1_565 S
Gd40 O71 2.327 1_565 S
Gd41 C52 2.818 . S
Gd41 O61 2.395 1_545 S
Gd41 O65 2.327 . S
Gd41 O66 2.377 . S
Gd41 O68 2.448 . S
Gd41 O69 2.506 . S
Gd41 O70 2.435 . S
Gd41 O71 2.717 . S
C42 O60 1.240 . S
C42 O61 1.240 . S
C43 Gd40 2.818 . S
C43 C44 1.510 . S
C43 O62 1.249 . S
C43 O63 1.252 . S
C44 C43 1.510 . S
C44 C45 1.404 . S
C44 C46 1.352 . S
C45 C44 1.404 . S
C45 C49 1.389 . S
C45 H72 0.930 . S
C46 C44 1.352 . S
C46 C48 1.374 . S
C46 H73 0.931 . S
C47 C48 1.359 . S
C47 C49 1.364 . S
C48 C46 1.374 . S
C48 C47 1.359 . S
C48 H74 0.931 . S
C49 C45 1.389 . S
C49 C47 1.364 . S
C49 H75 0.931 . S
C50 O64 1.256 1_545 S
C50 O65 1.257 . S
C51 O66 1.240 . S
C51 O67 1.240 . S
C52 Gd41 2.818 . S
C52 C53 1.510 . S
C52 O68 1.249 . S
C52 O69 1.252 . S
C53 C52 1.510 . S
C53 C54 1.404 . S
C53 C55 1.352 . S
C54 C53 1.404 . S
C54 C58 1.389 . S
C54 H76 0.930 . S
C55 C53 1.352 . S
C55 C57 1.374 . S
C55 H77 0.931 . S
C56 C57 1.359 . S
C56 C58 1.364 . S
C57 C55 1.374 . S
C57 C56 1.359 . S
C57 H78 0.931 . S
C58 C54 1.389 . S
C58 C56 1.364 . S
C58 H79 0.931 . S
C59 O70 1.256 . S
C59 O71 1.257 . S
O60 Gd40 2.377 . S
O60 C42 1.240 . S
O61 Gd41 2.395 1_565 S
O61 C42 1.240 . S
O62 Gd40 2.448 . S
O62 C43 1.249 . S
O63 Gd40 2.506 . S
O63 C43 1.252 . S
O64 Gd40 2.435 . S
O64 C50 1.256 1_565 S
O65 Gd40 2.717 1_545 S
O65 Gd41 2.327 . S
O65 C50 1.257 . S
O66 Gd41 2.377 . S
O66 C51 1.240 . S
O67 Gd40 2.395 1_545 S
O67 C51 1.240 . S
O68 Gd41 2.448 . S
O68 C52 1.249 . S
O69 Gd41 2.506 . S
O69 C52 1.252 . S
O70 Gd41 2.435 . S
O70 C59 1.256 . S
O71 Gd40 2.327 1_545 S
O71 Gd41 2.717 . S
O71 C59 1.257 . S
H72 C45 0.930 . S
H73 C46 0.931 . S
H74 C48 0.931 . S
H75 C49 0.931 . S
H76 C54 0.930 . S
H77 C55 0.931 . S
H78 C57 0.931 . S
H79 C58 0.931 . S
Gd80 C83 2.818 . S
Gd80 O100 2.377 . S
Gd80 O102 2.448 . S
Gd80 O103 2.506 . S
Gd80 O104 2.435 . S
Gd80 O105 2.717 . S
Gd80 O107 2.395 . S
Gd80 O111 2.327 . S
Gd81 C92 2.818 . S
Gd81 O101 2.395 . S
Gd81 O105 2.327 . S
Gd81 O106 2.377 . S
Gd81 O108 2.448 . S
Gd81 O109 2.506 . S
Gd81 O110 2.435 . S
Gd81 O111 2.717 . S
C82 O100 1.240 . S
C82 O101 1.240 . S
C83 Gd80 2.818 . S
C83 C84 1.510 . S
C83 O102 1.249 . S
C83 O103 1.252 . S
C84 C83 1.510 . S
C84 C85 1.404 . S
C84 C86 1.352 . S
C85 C84 1.404 . S
C85 C89 1.389 . S
C85 H112 0.930 . S
C86 C84 1.352 . S
C86 C88 1.374 . S
C86 H113 0.931 . S
C87 C88 1.359 . S
C87 C89 1.364 . S
C88 C86 1.374 . S
C88 C87 1.359 . S
C88 H114 0.931 . S
C89 C85 1.389 . S
C89 C87 1.364 . S
C89 H115 0.931 . S
C90 O104 1.256 . S
C90 O105 1.257 . S
C91 O106 1.240 . S
C91 O107 1.240 . S
C92 Gd81 2.818 . S
C92 C93 1.510 . S
C92 O108 1.249 . S
C92 O109 1.252 . S
C93 C92 1.510 . S
C93 C94 1.404 . S
C93 C95 1.352 . S
C94 C93 1.404 . S
C94 C98 1.389 . S
C94 H116 0.930 . S
C95 C93 1.352 . S
C95 C97 1.374 . S
C95 H117 0.931 . S
C96 C97 1.359 . S
C96 C98 1.364 . S
C97 C95 1.374 . S
C97 C96 1.359 . S
C97 H118 0.931 . S
C98 C94 1.389 . S
C98 C96 1.364 . S
C98 H119 0.931 . S
C99 O110 1.256 . S
C99 O111 1.257 . S
O100 Gd80 2.377 . S
O100 C82 1.240 . S
O101 Gd81 2.395 . S
O101 C82 1.240 . S
O102 Gd80 2.448 . S
O102 C83 1.249 . S
O103 Gd80 2.506 . S
O103 C83 1.252 . S
O104 Gd80 2.435 . S
O104 C90 1.256 . S
O105 Gd80 2.717 . S
O105 Gd81 2.327 . S
O105 C90 1.257 . S
O106 Gd81 2.377 . S
O106 C91 1.240 . S
O107 Gd80 2.395 . S
O107 C91 1.240 . S
O108 Gd81 2.448 . S
O108 C92 1.249 . S
O109 Gd81 2.506 . S
O109 C92 1.252 . S
O110 Gd81 2.435 . S
O110 C99 1.256 . S
O111 Gd80 2.327 . S
O111 Gd81 2.717 . S
O111 C99 1.257 . S
H112 C85 0.930 . S
H113 C86 0.931 . S
H114 C88 0.931 . S
H115 C89 0.931 . S
H116 C94 0.930 . S
H117 C95 0.931 . S
H118 C97 0.931 . S
H119 C98 0.931 . S
O120 Cd121 2.300 . S
O120 C127 1.275 . S
Cd121 O120 2.300 . S
Cd121 O129 2.381 . S
Cd121 O130 2.378 . S
O122 Cd123 2.385 1_545 S
O122 C127 1.255 . S
Cd123 O122 2.385 1_565 S
Cd123 O124 2.317 . S
O124 Cd123 2.317 . S
O124 C125 1.232 . S
C125 O124 1.232 . S
C125 O126 1.218 . S
O126 C125 1.218 . S
C127 O120 1.275 . S
C127 O122 1.255 . S
C128 O129 1.258 . S
C128 O130 1.256 . S
O129 Cd121 2.381 . S
O129 C128 1.258 . S
O130 Cd121 2.378 . S
O130 C128 1.256 . S
O131 Cd132 2.300 . S
O131 C138 1.275 . S
Cd132 O131 2.300 . S
Cd132 O140 2.381 . S
Cd132 O141 2.378 . S
O133 Cd134 2.385 . S
O133 C138 1.255 . S
Cd134 O133 2.385 . S
Cd134 O135 2.317 . S
O135 Cd134 2.317 . S
O135 C136 1.232 . S
C136 O135 1.232 . S
C136 O137 1.218 . S
O137 C136 1.218 . S
C138 O131 1.275 . S
C138 O133 1.255 . S
C139 O140 1.258 . S
C139 O141 1.256 . S
O140 Cd132 2.381 . S
O140 C139 1.258 . S
O141 Cd132 2.378 . S
O141 C139 1.256 . S
O142 Cd143 2.300 . S
O142 C149 1.275 . S
Cd143 O142 2.300 . S
Cd143 O151 2.381 . S
Cd143 O152 2.378 . S
O144 Cd145 2.385 1_455 S
O144 C149 1.255 . S
Cd145 O144 2.385 1_655 S
Cd145 O146 2.317 . S
O146 Cd145 2.317 . S
O146 C147 1.232 . S
C147 O146 1.232 . S
C147 O148 1.218 . S
O148 C147 1.218 . S
C149 O142 1.275 . S
C149 O144 1.255 . S
C150 O151 1.258 . S
C150 O152 1.256 . S
O151 Cd143 2.381 . S
O151 C150 1.258 . S
O152 Cd143 2.378 . S
O152 C150 1.256 . S
O153 Cd154 2.300 . S
O153 C160 1.275 1_455 S
Cd154 O153 2.300 . S
Cd154 O162 2.381 . S
Cd154 O163 2.378 . S
O155 Cd156 2.385 . S
O155 C160 1.255 . S
Cd156 O155 2.385 . S
Cd156 O157 2.317 . S
O157 Cd156 2.317 . S
O157 C158 1.232 . S
C158 O157 1.232 . S
C158 O159 1.218 . S
O159 C158 1.218 . S
C160 O153 1.275 1_655 S
C160 O155 1.255 . S
C161 O162 1.258 . S
C161 O163 1.256 . S
O162 Cd154 2.381 . S
O162 C161 1.258 . S
O163 Cd154 2.378 . S
O163 C161 1.256 . S
O164 Cd165 2.300 . S
O164 C171 1.275 1_565 S
Cd165 O164 2.300 . S
Cd165 O173 2.381 . S
Cd165 O174 2.378 . S
O166 Cd167 2.385 . S
O166 C171 1.255 . S
Cd167 O166 2.385 . S
Cd167 O168 2.317 . S
O168 Cd167 2.317 . S
O168 C169 1.232 . S
C169 O168 1.232 . S
C169 O170 1.218 . S
O170 C169 1.218 . S
C171 O164 1.275 1_545 S
C171 O166 1.255 . S
C172 O173 1.258 . S
C172 O174 1.256 . S
O173 Cd165 2.381 . S
O173 C172 1.258 . S
O174 Cd165 2.378 . S
O174 C172 1.256 . S
O175 Cd176 2.300 . S
O175 C182 1.275 . S
Cd176 O175 2.300 . S
Cd176 O184 2.381 . S
Cd176 O185 2.378 . S
O177 Cd178 2.385 . S
O177 C182 1.255 . S
Cd178 O177 2.385 . S
Cd178 O179 2.317 . S
O179 Cd178 2.317 . S
O179 C180 1.232 . S
C180 O179 1.232 . S
C180 O181 1.218 . S
O181 C180 1.218 . S
C182 O175 1.275 . S
C182 O177 1.255 . S
C183 O184 1.258 . S
C183 O185 1.256 . S
O184 Cd176 2.381 . S
O184 C183 1.258 . S
O185 Cd176 2.378 . S
O185 C183 1.256 . S
H186 C204 0.951 . S
H187 C206 0.951 . S
H188 C208 0.950 . S
H189 C209 0.950 . S
H190 C211 0.950 . S
H191 C214 0.950 . S
H192 C215 0.950 . S
H193 C217 0.950 . S
H194 C218 0.950 . S
H195 C219 0.951 . S
H196 C221 0.951 . S
H197 C223 0.950 . S
H198 C224 0.950 . S
H199 C226 0.950 . S
H200 C229 0.950 . S
H201 C230 0.950 . S
H202 C232 0.950 . S
H203 C233 0.950 . S
C204 H186 0.951 . S
C204 C205 1.366 . S
C204 C206 1.388 . S
C205 C204 1.366 . S
C205 C209 1.385 . S
C206 H187 0.951 . S
C206 C204 1.388 . S
C206 C207 1.366 . S
C207 C206 1.366 . S
C207 C208 1.414 . S
C207 C210 1.499 . S
C208 H188 0.950 . S
C208 C207 1.414 . S
C208 C209 1.374 . S
C209 H189 0.950 . S
C209 C205 1.385 . S
C209 C208 1.374 . S
C210 C207 1.499 . S
C210 C211 1.373 . S
C210 C212 1.389 . S
C211 H190 0.950 . S
C211 C210 1.373 . S
C211 C227 1.377 . S
C212 C210 1.389 . S
C212 C213 1.524 . S
C212 C226 1.377 . S
C213 C212 1.524 . S
C213 C214 1.397 . S
C213 C218 1.363 . S
C214 H191 0.950 . S
C214 C213 1.397 . S
C214 C215 1.334 . S
C215 H192 0.950 . S
C215 C214 1.334 . S
C215 C216 1.287 . S
C216 C215 1.287 . S
C216 C217 1.524 . S
C216 H235 0.913 . S
C217 H193 0.950 . S
C217 C216 1.524 . S
C217 C218 1.415 . S
C218 H194 0.950 . S
C218 C213 1.363 . S
C218 C217 1.415 . S
C219 H195 0.951 . S
C219 C220 1.366 . S
C219 C221 1.388 . S
C220 C219 1.366 . S
C220 C224 1.385 . S
C221 H196 0.951 . S
C221 C219 1.388 . S
C221 C222 1.366 . S
C222 C221 1.366 . S
C222 C223 1.414 . S
C222 C225 1.499 . S
C223 H197 0.950 . S
C223 C222 1.414 . S
C223 C224 1.374 . S
C224 H198 0.950 . S
C224 C220 1.385 . S
C224 C223 1.374 . S
C225 C222 1.499 . S
C225 C226 1.373 . S
C225 C227 1.389 . S
C226 H199 0.950 . S
C226 C212 1.377 . S
C226 C225 1.373 . S
C227 C211 1.377 . S
C227 C225 1.389 . S
C227 C228 1.524 . S
C228 C227 1.524 . S
C228 C229 1.397 . S
C228 C233 1.363 . S
C229 H200 0.950 . S
C229 C228 1.397 . S
C229 C230 1.334 . S
C230 H201 0.950 . S
C230 C229 1.334 . S
C230 C231 1.287 . S
C231 C230 1.287 . S
C231 C232 1.524 . S
C231 H234 0.999 . S
C232 H202 0.950 . S
C232 C231 1.524 . S
C232 C233 1.415 . S
C233 H203 0.950 . S
C233 C228 1.363 . S
C233 C232 1.415 . S
H234 C231 0.999 . S
H235 C216 0.913 . S
H236 C254 0.951 . S
H237 C256 0.951 . S
H238 C258 0.950 . S
H239 C259 0.950 . S
H240 C261 0.950 . S
H241 C264 0.950 . S
H242 C265 0.950 . S
H243 C267 0.950 . S
H244 C268 0.950 . S
H245 C269 0.951 . S
H246 C271 0.951 . S
H247 C273 0.950 . S
H248 C274 0.950 . S
H249 C276 0.950 . S
H250 C279 0.950 . S
H251 C280 0.950 . S
H252 C282 0.950 . S
H253 C283 0.950 . S
C254 H236 0.951 . S
C254 C255 1.366 . S
C254 C256 1.388 . S
C255 C254 1.366 . S
C255 C259 1.385 . S
C256 H237 0.951 . S
C256 C254 1.388 . S
C256 C257 1.366 . S
C257 C256 1.366 . S
C257 C258 1.414 . S
C257 C260 1.499 . S
C258 H238 0.950 . S
C258 C257 1.414 . S
C258 C259 1.374 . S
C259 H239 0.950 . S
C259 C255 1.385 . S
C259 C258 1.374 . S
C260 C257 1.499 . S
C260 C261 1.373 . S
C260 C262 1.389 . S
C261 H240 0.950 . S
C261 C260 1.373 . S
C261 C277 1.377 . S
C262 C260 1.389 . S
C262 C263 1.524 . S
C262 C276 1.377 . S
C263 C262 1.524 . S
C263 C264 1.397 . S
C263 C268 1.363 . S
C264 H241 0.950 . S
C264 C263 1.397 . S
C264 C265 1.334 . S
C265 H242 0.950 . S
C265 C264 1.334 . S
C265 C266 1.287 . S
C266 C265 1.287 . S
C266 C267 1.524 . S
C266 H285 0.913 . S
C267 H243 0.950 . S
C267 C266 1.524 . S
C267 C268 1.415 . S
C268 H244 0.950 . S
C268 C263 1.363 . S
C268 C267 1.415 . S
C269 H245 0.951 . S
C269 C270 1.366 . S
C269 C271 1.388 . S
C270 C269 1.366 . S
C270 C274 1.385 . S
C271 H246 0.951 . S
C271 C269 1.388 . S
C271 C272 1.366 . S
C272 C271 1.366 . S
C272 C273 1.414 . S
C272 C275 1.499 . S
C273 H247 0.950 . S
C273 C272 1.414 . S
C273 C274 1.374 . S
C274 H248 0.950 . S
C274 C270 1.385 . S
C274 C273 1.374 . S
C275 C272 1.499 . S
C275 C276 1.373 . S
C275 C277 1.389 . S
C276 H249 0.950 . S
C276 C262 1.377 . S
C276 C275 1.373 . S
C277 C261 1.377 . S
C277 C275 1.389 . S
C277 C278 1.524 . S
C278 C277 1.524 . S
C278 C279 1.397 . S
C278 C283 1.363 . S
C279 H250 0.950 . S
C279 C278 1.397 . S
C279 C280 1.334 . S
C280 H251 0.950 . S
C280 C279 1.334 . S
C280 C281 1.287 . S
C281 C280 1.287 . S
C281 C282 1.524 . S
C281 H284 0.999 . S
C282 H252 0.950 . S
C282 C281 1.524 . S
C282 C283 1.415 . S
C283 H253 0.950 . S
C283 C278 1.363 . S
C283 C282 1.415 . S
H284 C281 0.999 . S
H285 C266 0.913 . S
H286 C304 0.951 . S
H287 C306 0.951 . S
H288 C308 0.950 . S
H289 C309 0.950 . S
H290 C311 0.950 . S
H291 C314 0.950 . S
H292 C315 0.950 . S
H293 C317 0.950 . S
H294 C318 0.950 . S
H295 C319 0.951 . S
H296 C321 0.951 . S
H297 C323 0.950 . S
H298 C324 0.950 . S
H299 C326 0.950 . S
H300 C329 0.950 . S
H301 C330 0.950 . S
H302 C332 0.950 . S
H303 C333 0.950 . S
C304 H286 0.951 . S
C304 C305 1.366 . S
C304 C306 1.388 . S
C305 C304 1.366 . S
C305 C309 1.385 . S
C306 H287 0.951 . S
C306 C304 1.388 . S
C306 C307 1.366 . S
C307 C306 1.366 . S
C307 C308 1.414 . S
C307 C310 1.499 . S
C308 H288 0.950 . S
C308 C307 1.414 . S
C308 C309 1.374 . S
C309 H289 0.950 . S
C309 C305 1.385 . S
C309 C308 1.374 . S
C310 C307 1.499 . S
C310 C311 1.373 . S
C310 C312 1.389 . S
C311 H290 0.950 . S
C311 C310 1.373 . S
C311 C327 1.377 . S
C312 C310 1.389 . S
C312 C313 1.524 . S
C312 C326 1.377 . S
C313 C312 1.524 . S
C313 C314 1.397 . S
C313 C318 1.363 . S
C314 H291 0.950 . S
C314 C313 1.397 . S
C314 C315 1.334 . S
C315 H292 0.950 . S
C315 C314 1.334 . S
C315 C316 1.287 . S
C316 C315 1.287 . S
C316 C317 1.524 . S
C316 H335 0.913 . S
C317 H293 0.950 . S
C317 C316 1.524 . S
C317 C318 1.415 . S
C318 H294 0.950 . S
C318 C313 1.363 . S
C318 C317 1.415 . S
C319 H295 0.951 . S
C319 C320 1.366 . S
C319 C321 1.388 . S
C320 C319 1.366 . S
C320 C324 1.385 . S
C321 H296 0.951 . S
C321 C319 1.388 . S
C321 C322 1.366 . S
C322 C321 1.366 . S
C322 C323 1.414 . S
C322 C325 1.499 . S
C323 H297 0.950 . S
C323 C322 1.414 . S
C323 C324 1.374 . S
C324 H298 0.950 . S
C324 C320 1.385 . S
C324 C323 1.374 . S
C325 C322 1.499 . S
C325 C326 1.373 . S
C325 C327 1.389 . S
C326 H299 0.950 . S
C326 C312 1.377 . S
C326 C325 1.373 . S
C327 C311 1.377 . S
C327 C325 1.389 . S
C327 C328 1.524 . S
C328 C327 1.524 . S
C328 C329 1.397 . S
C328 C333 1.363 . S
C329 H300 0.950 . S
C329 C328 1.397 . S
C329 C330 1.334 . S
C330 H301 0.950 . S
C330 C329 1.334 . S
C330 C331 1.287 . S
C331 C330 1.287 . S
C331 C332 1.524 . S
C331 H334 0.999 . S
C332 H302 0.950 . S
C332 C331 1.524 . S
C332 C333 1.415 . S
C333 H303 0.950 . S
C333 C328 1.363 . S
C333 C332 1.415 . S
H334 C331 0.999 . S
H335 C316 0.913 . S
H336 C354 0.951 . S
H337 C356 0.951 . S
H338 C358 0.950 . S
H339 C359 0.950 . S
H340 C361 0.950 . S
H341 C364 0.950 . S
H342 C365 0.950 . S
H343 C367 0.950 . S
H344 C368 0.950 . S
H345 C369 0.951 . S
H346 C371 0.951 . S
H347 C373 0.950 . S
H348 C374 0.950 . S
H349 C376 0.950 . S
H350 C379 0.950 . S
H351 C380 0.950 . S
H352 C382 0.950 . S
H353 C383 0.950 . S
C354 H336 0.951 . S
C354 C355 1.366 . S
C354 C356 1.388 . S
C355 C354 1.366 . S
C355 C359 1.385 . S
C356 H337 0.951 . S
C356 C354 1.388 . S
C356 C357 1.366 . S
C357 C356 1.366 . S
C357 C358 1.414 . S
C357 C360 1.499 . S
C358 H338 0.950 . S
C358 C357 1.414 . S
C358 C359 1.374 . S
C359 H339 0.950 . S
C359 C355 1.385 . S
C359 C358 1.374 . S
C360 C357 1.499 . S
C360 C361 1.373 . S
C360 C362 1.389 . S
C361 H340 0.950 . S
C361 C360 1.373 . S
C361 C377 1.377 . S
C362 C360 1.389 . S
C362 C363 1.524 . S
C362 C376 1.377 . S
C363 C362 1.524 . S
C363 C364 1.397 . S
C363 C368 1.363 . S
C364 H341 0.950 . S
C364 C363 1.397 . S
C364 C365 1.334 . S
C365 H342 0.950 . S
C365 C364 1.334 . S
C365 C366 1.287 . S
C366 C365 1.287 . S
C366 C367 1.524 . S
C366 H385 0.913 . S
C367 H343 0.950 . S
C367 C366 1.524 . S
C367 C368 1.415 . S
C368 H344 0.950 . S
C368 C363 1.363 . S
C368 C367 1.415 . S
C369 H345 0.951 . S
C369 C370 1.366 . S
C369 C371 1.388 . S
C370 C369 1.366 . S
C370 C374 1.385 . S
C371 H346 0.951 . S
C371 C369 1.388 . S
C371 C372 1.366 . S
C372 C371 1.366 . S
C372 C373 1.414 . S
C372 C375 1.499 . S
C373 H347 0.950 . S
C373 C372 1.414 . S
C373 C374 1.374 . S
C374 H348 0.950 . S
C374 C370 1.385 . S
C374 C373 1.374 . S
C375 C372 1.499 . S
C375 C376 1.373 . S
C375 C377 1.389 . S
C376 H349 0.950 . S
C376 C362 1.377 . S
C376 C375 1.373 . S
C377 C361 1.377 . S
C377 C375 1.389 . S
C377 C378 1.524 . S
C378 C377 1.524 . S
C378 C379 1.397 . S
C378 C383 1.363 . S
C379 H350 0.950 . S
C379 C378 1.397 . S
C379 C380 1.334 . S
C380 H351 0.950 . S
C380 C379 1.334 . S
C380 C381 1.287 . S
C381 C380 1.287 . S
C381 C382 1.524 . S
C381 H384 0.999 . S
C382 H352 0.950 . S
C382 C381 1.524 . S
C382 C383 1.415 . S
C383 H353 0.950 . S
C383 C378 1.363 . S
C383 C382 1.415 . S
H384 C381 0.999 . S
H385 C366 0.913 . S
H386 C404 0.951 . S
H387 C406 0.951 . S
H388 C408 0.950 . S
H389 C409 0.950 . S
H390 C411 0.950 . S
H391 C414 0.950 . S
H392 C415 0.950 . S
H393 C417 0.950 . S
H394 C418 0.950 . S
H395 C419 0.951 . S
H396 C421 0.951 . S
H397 C423 0.950 . S
H398 C424 0.950 . S
H399 C426 0.950 . S
H400 C429 0.950 . S
H401 C430 0.950 . S
H402 C432 0.950 . S
H403 C433 0.950 . S
C404 H386 0.951 . S
C404 C405 1.366 . S
C404 C406 1.388 . S
C405 C404 1.366 . S
C405 C409 1.385 . S
C406 H387 0.951 . S
C406 C404 1.388 . S
C406 C407 1.366 . S
C407 C406 1.366 . S
C407 C408 1.414 . S
C407 C410 1.499 . S
C408 H388 0.950 . S
C408 C407 1.414 . S
C408 C409 1.374 . S
C409 H389 0.950 . S
C409 C405 1.385 . S
C409 C408 1.374 . S
C410 C407 1.499 . S
C410 C411 1.373 . S
C410 C412 1.389 . S
C411 H390 0.950 . S
C411 C410 1.373 . S
C411 C427 1.377 . S
C412 C410 1.389 . S
C412 C413 1.524 . S
C412 C426 1.377 . S
C413 C412 1.524 . S
C413 C414 1.397 . S
C413 C418 1.363 . S
C414 H391 0.950 . S
C414 C413 1.397 . S
C414 C415 1.334 . S
C415 H392 0.950 . S
C415 C414 1.334 . S
C415 C416 1.287 . S
C416 C415 1.287 . S
C416 C417 1.524 . S
C416 H435 0.913 . S
C417 H393 0.950 . S
C417 C416 1.524 . S
C417 C418 1.415 . S
C418 H394 0.950 . S
C418 C413 1.363 . S
C418 C417 1.415 . S
C419 H395 0.951 . S
C419 C420 1.366 . S
C419 C421 1.388 . S
C420 C419 1.366 . S
C420 C424 1.385 . S
C421 H396 0.951 . S
C421 C419 1.388 . S
C421 C422 1.366 . S
C422 C421 1.366 . S
C422 C423 1.414 . S
C422 C425 1.499 . S
C423 H397 0.950 . S
C423 C422 1.414 . S
C423 C424 1.374 . S
C424 H398 0.950 . S
C424 C420 1.385 . S
C424 C423 1.374 . S
C425 C422 1.499 . S
C425 C426 1.373 . S
C425 C427 1.389 . S
C426 H399 0.950 . S
C426 C412 1.377 . S
C426 C425 1.373 . S
C427 C411 1.377 . S
C427 C425 1.389 . S
C427 C428 1.524 . S
C428 C427 1.524 . S
C428 C429 1.397 . S
C428 C433 1.363 . S
C429 H400 0.950 . S
C429 C428 1.397 . S
C429 C430 1.334 . S
C430 H401 0.950 . S
C430 C429 1.334 . S
C430 C431 1.287 . S
C431 C430 1.287 . S
C431 C432 1.524 . S
C431 H434 0.999 . S
C432 H402 0.950 . S
C432 C431 1.524 . S
C432 C433 1.415 . S
C433 H403 0.950 . S
C433 C428 1.363 . S
C433 C432 1.415 . S
H434 C431 0.999 . S
H435 C416 0.913 . S
H436 C454 0.951 . S
H437 C456 0.951 . S
H438 C458 0.950 . S
H439 C459 0.950 . S
H440 C461 0.950 . S
H441 C464 0.950 . S
H442 C465 0.950 . S
H443 C467 0.950 . S
H444 C468 0.950 . S
H445 C469 0.951 . S
H446 C471 0.951 . S
H447 C473 0.950 . S
H448 C474 0.950 . S
H449 C476 0.950 . S
H450 C479 0.950 . S
H451 C480 0.950 . S
H452 C482 0.950 . S
H453 C483 0.950 . S
C454 H436 0.951 . S
C454 C455 1.366 . S
C454 C456 1.388 . S
C455 C454 1.366 . S
C455 C459 1.385 . S
C456 H437 0.951 . S
C456 C454 1.388 . S
C456 C457 1.366 . S
C457 C456 1.366 . S
C457 C458 1.414 . S
C457 C460 1.499 . S
C458 H438 0.950 . S
C458 C457 1.414 . S
C458 C459 1.374 . S
C459 H439 0.950 . S
C459 C455 1.385 . S
C459 C458 1.374 . S
C460 C457 1.499 . S
C460 C461 1.373 . S
C460 C462 1.389 . S
C461 H440 0.950 . S
C461 C460 1.373 . S
C461 C477 1.377 . S
C462 C460 1.389 . S
C462 C463 1.524 . S
C462 C476 1.377 . S
C463 C462 1.524 . S
C463 C464 1.397 . S
C463 C468 1.363 . S
C464 H441 0.950 . S
C464 C463 1.397 . S
C464 C465 1.334 . S
C465 H442 0.950 . S
C465 C464 1.334 . S
C465 C466 1.287 . S
C466 C465 1.287 . S
C466 C467 1.524 . S
C466 H485 0.913 . S
C467 H443 0.950 . S
C467 C466 1.524 . S
C467 C468 1.415 . S
C468 H444 0.950 . S
C468 C463 1.363 . S
C468 C467 1.415 . S
C469 H445 0.951 . S
C469 C470 1.366 . S
C469 C471 1.388 . S
C470 C469 1.366 . S
C470 C474 1.385 . S
C471 H446 0.951 . S
C471 C469 1.388 . S
C471 C472 1.366 . S
C472 C471 1.366 . S
C472 C473 1.414 . S
C472 C475 1.499 . S
C473 H447 0.950 . S
C473 C472 1.414 . S
C473 C474 1.374 . S
C474 H448 0.950 . S
C474 C470 1.385 . S
C474 C473 1.374 . S
C475 C472 1.499 . S
C475 C476 1.373 . S
C475 C477 1.389 . S
C476 H449 0.950 . S
C476 C462 1.377 . S
C476 C475 1.373 . S
C477 C461 1.377 . S
C477 C475 1.389 . S
C477 C478 1.524 . S
C478 C477 1.524 . S
C478 C479 1.397 . S
C478 C483 1.363 . S
C479 H450 0.950 . S
C479 C478 1.397 . S
C479 C480 1.334 . S
C480 H451 0.950 . S
C480 C479 1.334 . S
C480 C481 1.287 . S
C481 C480 1.287 . S
C481 C482 1.524 . S
C481 H484 0.999 . S
C482 H452 0.950 . S
C482 C481 1.524 . S
C482 C483 1.415 . S
C483 H453 0.950 . S
C483 C478 1.363 . S
C483 C482 1.415 . S
H484 C481 0.999 . S
H485 C466 0.913 . S
H486 C504 0.951 . S
H487 C506 0.951 . S
H488 C508 0.950 . S
H489 C509 0.950 . S
H490 C511 0.950 . S
H491 C514 0.950 . S
H492 C515 0.950 . S
H493 C517 0.950 . S
H494 C518 0.950 . S
H495 C519 0.951 . S
H496 C521 0.951 . S
H497 C523 0.950 . S
H498 C524 0.950 . S
H499 C526 0.950 . S
H500 C529 0.950 . S
H501 C530 0.950 . S
H502 C532 0.950 . S
H503 C533 0.950 . S
C504 H486 0.951 . S
C504 C505 1.366 . S
C504 C506 1.388 . S
C505 C504 1.366 . S
C505 C509 1.385 . S
C506 H487 0.951 . S
C506 C504 1.388 . S
C506 C507 1.366 . S
C507 C506 1.366 . S
C507 C508 1.414 . S
C507 C510 1.499 . S
C508 H488 0.950 . S
C508 C507 1.414 . S
C508 C509 1.374 . S
C509 H489 0.950 . S
C509 C505 1.385 . S
C509 C508 1.374 . S
C510 C507 1.499 . S
C510 C511 1.373 . S
C510 C512 1.389 . S
C511 H490 0.950 . S
C511 C510 1.373 . S
C511 C527 1.377 . S
C512 C510 1.389 . S
C512 C513 1.524 . S
C512 C526 1.377 . S
C513 C512 1.524 . S
C513 C514 1.397 . S
C513 C518 1.363 . S
C514 H491 0.950 . S
C514 C513 1.397 . S
C514 C515 1.334 . S
C515 H492 0.950 . S
C515 C514 1.334 . S
C515 C516 1.287 . S
C516 C515 1.287 . S
C516 C517 1.524 . S
C516 H535 0.913 . S
C517 H493 0.950 . S
C517 C516 1.524 . S
C517 C518 1.415 . S
C518 H494 0.950 . S
C518 C513 1.363 . S
C518 C517 1.415 . S
C519 H495 0.951 . S
C519 C520 1.366 . S
C519 C521 1.388 . S
C520 C519 1.366 . S
C520 C524 1.385 . S
C521 H496 0.951 . S
C521 C519 1.388 . S
C521 C522 1.366 . S
C522 C521 1.366 . S
C522 C523 1.414 . S
C522 C525 1.499 . S
C523 H497 0.950 . S
C523 C522 1.414 . S
C523 C524 1.374 . S
C524 H498 0.950 . S
C524 C520 1.385 . S
C524 C523 1.374 . S
C525 C522 1.499 . S
C525 C526 1.373 . S
C525 C527 1.389 . S
C526 H499 0.950 . S
C526 C512 1.377 . S
C526 C525 1.373 . S
C527 C511 1.377 . S
C527 C525 1.389 . S
C527 C528 1.524 . S
C528 C527 1.524 . S
C528 C529 1.397 . S
C528 C533 1.363 . S
C529 H500 0.950 . S
C529 C528 1.397 . S
C529 C530 1.334 . S
C530 H501 0.950 . S
C530 C529 1.334 . S
C530 C531 1.287 . S
C531 C530 1.287 . S
C531 C532 1.524 . S
C531 H534 0.999 . S
C532 H502 0.950 . S
C532 C531 1.524 . S
C532 C533 1.415 . S
C533 H503 0.950 . S
C533 C528 1.363 . S
C533 C532 1.415 . S
H534 C531 0.999 . S
H535 C516 0.913 . S
H536 C554 0.951 . S
H537 C556 0.951 . S
H538 C558 0.950 . S
H539 C559 0.950 . S
H540 C561 0.950 . S
H541 C564 0.950 . S
H542 C565 0.950 . S
H543 C567 0.950 . S
H544 C568 0.950 . S
H545 C569 0.951 . S
H546 C571 0.951 . S
H547 C573 0.950 . S
H548 C574 0.950 . S
H549 C576 0.950 . S
H550 C579 0.950 . S
H551 C580 0.950 . S
H552 C582 0.950 . S
H553 C583 0.950 . S
C554 H536 0.951 . S
C554 C555 1.366 . S
C554 C556 1.388 . S
C555 C554 1.366 . S
C555 C559 1.385 . S
C556 H537 0.951 . S
C556 C554 1.388 . S
C556 C557 1.366 . S
C557 C556 1.366 . S
C557 C558 1.414 . S
C557 C560 1.499 . S
C558 H538 0.950 . S
C558 C557 1.414 . S
C558 C559 1.374 . S
C559 H539 0.950 . S
C559 C555 1.385 . S
C559 C558 1.374 . S
C560 C557 1.499 . S
C560 C561 1.373 . S
C560 C562 1.389 . S
C561 H540 0.950 . S
C561 C560 1.373 . S
C561 C577 1.377 . S
C562 C560 1.389 . S
C562 C563 1.524 . S
C562 C576 1.377 . S
C563 C562 1.524 . S
C563 C564 1.397 . S
C563 C568 1.363 . S
C564 H541 0.950 . S
C564 C563 1.397 . S
C564 C565 1.334 . S
C565 H542 0.950 . S
C565 C564 1.334 . S
C565 C566 1.287 . S
C566 C565 1.287 . S
C566 C567 1.524 . S
C566 H585 0.913 . S
C567 H543 0.950 . S
C567 C566 1.524 . S
C567 C568 1.415 . S
C568 H544 0.950 . S
C568 C563 1.363 . S
C568 C567 1.415 . S
C569 H545 0.951 . S
C569 C570 1.366 . S
C569 C571 1.388 . S
C570 C569 1.366 . S
C570 C574 1.385 . S
C571 H546 0.951 . S
C571 C569 1.388 . S
C571 C572 1.366 . S
C572 C571 1.366 . S
C572 C573 1.414 . S
C572 C575 1.499 . S
C573 H547 0.950 . S
C573 C572 1.414 . S
C573 C574 1.374 . S
C574 H548 0.950 . S
C574 C570 1.385 . S
C574 C573 1.374 . S
C575 C572 1.499 . S
C575 C576 1.373 . S
C575 C577 1.389 . S
C576 H549 0.950 . S
C576 C562 1.377 . S
C576 C575 1.373 . S
C577 C561 1.377 . S
C577 C575 1.389 . S
C577 C578 1.524 . S
C578 C577 1.524 . S
C578 C579 1.397 . S
C578 C583 1.363 . S
C579 H550 0.950 . S
C579 C578 1.397 . S
C579 C580 1.334 . S
C580 H551 0.950 . S
C580 C579 1.334 . S
C580 C581 1.287 . S
C581 C580 1.287 . S
C581 C582 1.524 . S
C581 H584 0.999 . S
C582 H552 0.950 . S
C582 C581 1.524 . S
C582 C583 1.415 . S
C583 H553 0.950 . S
C583 C578 1.363 . S
C583 C582 1.415 . S
H584 C581 0.999 . S
H585 C566 0.913 . S
H586 C604 0.951 . S
H587 C606 0.951 . S
H588 C608 0.950 . S
H589 C609 0.950 . S
H590 C611 0.950 . S
H591 C614 0.950 . S
H592 C615 0.950 . S
H593 C617 0.950 . S
H594 C618 0.950 . S
H595 C619 0.951 . S
H596 C621 0.951 . S
H597 C623 0.950 . S
H598 C624 0.950 . S
H599 C626 0.950 . S
H600 C629 0.950 . S
H601 C630 0.950 . S
H602 C632 0.950 . S
H603 C633 0.950 . S
C604 H586 0.951 . S
C604 C605 1.366 . S
C604 C606 1.388 . S
C605 C604 1.366 . S
C605 C609 1.385 . S
C606 H587 0.951 . S
C606 C604 1.388 . S
C606 C607 1.366 . S
C607 C606 1.366 . S
C607 C608 1.414 . S
C607 C610 1.499 . S
C608 H588 0.950 . S
C608 C607 1.414 . S
C608 C609 1.374 . S
C609 H589 0.950 . S
C609 C605 1.385 . S
C609 C608 1.374 . S
C610 C607 1.499 . S
C610 C611 1.373 . S
C610 C612 1.389 . S
C611 H590 0.950 . S
C611 C610 1.373 . S
C611 C627 1.377 . S
C612 C610 1.389 . S
C612 C613 1.524 . S
C612 C626 1.377 . S
C613 C612 1.524 . S
C613 C614 1.397 . S
C613 C618 1.363 . S
C614 H591 0.950 . S
C614 C613 1.397 . S
C614 C615 1.334 . S
C615 H592 0.950 . S
C615 C614 1.334 . S
C615 C616 1.287 . S
C616 C615 1.287 . S
C616 C617 1.524 . S
C616 H635 0.913 . S
C617 H593 0.950 . S
C617 C616 1.524 . S
C617 C618 1.415 . S
C618 H594 0.950 . S
C618 C613 1.363 . S
C618 C617 1.415 . S
C619 H595 0.951 . S
C619 C620 1.366 . S
C619 C621 1.388 . S
C620 C619 1.366 . S
C620 C624 1.385 . S
C621 H596 0.951 . S
C621 C619 1.388 . S
C621 C622 1.366 . S
C622 C621 1.366 . S
C622 C623 1.414 . S
C622 C625 1.499 . S
C623 H597 0.950 . S
C623 C622 1.414 . S
C623 C624 1.374 . S
C624 H598 0.950 . S
C624 C620 1.385 . S
C624 C623 1.374 . S
C625 C622 1.499 . S
C625 C626 1.373 . S
C625 C627 1.389 . S
C626 H599 0.950 . S
C626 C612 1.377 . S
C626 C625 1.373 . S
C627 C611 1.377 . S
C627 C625 1.389 . S
C627 C628 1.524 . S
C628 C627 1.524 . S
C628 C629 1.397 . S
C628 C633 1.363 . S
C629 H600 0.950 . S
C629 C628 1.397 . S
C629 C630 1.334 . S
C630 H601 0.950 . S
C630 C629 1.334 . S
C630 C631 1.287 . S
C631 C630 1.287 . S
C631 C632 1.524 . S
C631 H634 0.999 . S
C632 H602 0.950 . S
C632 C631 1.524 . S
C632 C633 1.415 . S
C633 H603 0.950 . S
C633 C628 1.363 . S
C633 C632 1.415 . S
H634 C631 0.999 . S
H635 C616 0.913 . S
H636 C654 0.951 . S
H637 C656 0.951 . S
H638 C658 0.950 . S
H639 C659 0.950 . S
H640 C661 0.950 . S
H641 C664 0.950 . S
H642 C665 0.950 . S
H643 C667 0.950 . S
H644 C668 0.950 . S
H645 C669 0.951 . S
H646 C671 0.951 . S
H647 C673 0.950 . S
H648 C674 0.950 . S
H649 C676 0.950 . S
H650 C679 0.950 . S
H651 C680 0.950 . S
H652 C682 0.950 . S
H653 C683 0.950 . S
C654 H636 0.951 . S
C654 C655 1.366 . S
C654 C656 1.388 . S
C655 C654 1.366 . S
C655 C659 1.385 . S
C656 H637 0.951 . S
C656 C654 1.388 . S
C656 C657 1.366 . S
C657 C656 1.366 . S
C657 C658 1.414 . S
C657 C660 1.499 . S
C658 H638 0.950 . S
C658 C657 1.414 . S
C658 C659 1.374 . S
C659 H639 0.950 . S
C659 C655 1.385 . S
C659 C658 1.374 . S
C660 C657 1.499 . S
C660 C661 1.373 . S
C660 C662 1.389 . S
C661 H640 0.950 . S
C661 C660 1.373 . S
C661 C677 1.377 . S
C662 C660 1.389 . S
C662 C663 1.524 . S
C662 C676 1.377 . S
C663 C662 1.524 . S
C663 C664 1.397 . S
C663 C668 1.363 . S
C664 H641 0.950 . S
C664 C663 1.397 . S
C664 C665 1.334 . S
C665 H642 0.950 . S
C665 C664 1.334 . S
C665 C666 1.287 . S
C666 C665 1.287 . S
C666 C667 1.524 . S
C666 H685 0.913 . S
C667 H643 0.950 . S
C667 C666 1.524 . S
C667 C668 1.415 . S
C668 H644 0.950 . S
C668 C663 1.363 . S
C668 C667 1.415 . S
C669 H645 0.951 . S
C669 C670 1.366 . S
C669 C671 1.388 . S
C670 C669 1.366 . S
C670 C674 1.385 . S
C671 H646 0.951 . S
C671 C669 1.388 . S
C671 C672 1.366 . S
C672 C671 1.366 . S
C672 C673 1.414 . S
C672 C675 1.499 . S
C673 H647 0.950 . S
C673 C672 1.414 . S
C673 C674 1.374 . S
C674 H648 0.950 . S
C674 C670 1.385 . S
C674 C673 1.374 . S
C675 C672 1.499 . S
C675 C676 1.373 . S
C675 C677 1.389 . S
C676 H649 0.950 . S
C676 C662 1.377 . S
C676 C675 1.373 . S
C677 C661 1.377 . S
C677 C675 1.389 . S
C677 C678 1.524 . S
C678 C677 1.524 . S
C678 C679 1.397 . S
C678 C683 1.363 . S
C679 H650 0.950 . S
C679 C678 1.397 . S
C679 C680 1.334 . S
C680 H651 0.950 . S
C680 C679 1.334 . S
C680 C681 1.287 . S
C681 C680 1.287 . S
C681 C682 1.524 . S
C681 H684 0.999 . S
C682 H652 0.950 . S
C682 C681 1.524 . S
C682 C683 1.415 . S
C683 H653 0.950 . S
C683 C678 1.363 . S
C683 C682 1.415 . S
H684 C681 0.999 . S
H685 C666 0.913 . S
H686 C704 0.951 . S
H687 C706 0.951 . S
H688 C708 0.950 . S
H689 C709 0.950 . S
H690 C711 0.950 . S
H691 C714 0.950 . S
H692 C715 0.950 . S
H693 C717 0.950 . S
H694 C718 0.950 . S
H695 C719 0.951 . S
H696 C721 0.951 . S
H697 C723 0.950 . S
H698 C724 0.950 . S
H699 C726 0.950 . S
H700 C729 0.950 . S
H701 C730 0.950 . S
H702 C732 0.950 . S
H703 C733 0.950 . S
C704 H686 0.951 . S
C704 C705 1.366 . S
C704 C706 1.388 . S
C705 C704 1.366 . S
C705 C709 1.385 . S
C706 H687 0.951 . S
C706 C704 1.388 . S
C706 C707 1.366 . S
C707 C706 1.366 . S
C707 C708 1.414 . S
C707 C710 1.499 . S
C708 H688 0.950 . S
C708 C707 1.414 . S
C708 C709 1.374 . S
C709 H689 0.950 . S
C709 C705 1.385 . S
C709 C708 1.374 . S
C710 C707 1.499 . S
C710 C711 1.373 . S
C710 C712 1.389 . S
C711 H690 0.950 . S
C711 C710 1.373 . S
C711 C727 1.377 . S
C712 C710 1.389 . S
C712 C713 1.524 . S
C712 C726 1.377 . S
C713 C712 1.524 . S
C713 C714 1.397 . S
C713 C718 1.363 . S
C714 H691 0.950 . S
C714 C713 1.397 . S
C714 C715 1.334 . S
C715 H692 0.950 . S
C715 C714 1.334 . S
C715 C716 1.287 . S
C716 C715 1.287 . S
C716 C717 1.524 . S
C716 H735 0.913 . S
C717 H693 0.950 . S
C717 C716 1.524 . S
C717 C718 1.415 . S
C718 H694 0.950 . S
C718 C713 1.363 . S
C718 C717 1.415 . S
C719 H695 0.951 . S
C719 C720 1.366 . S
C719 C721 1.388 . S
C720 C719 1.366 . S
C720 C724 1.385 . S
C721 H696 0.951 . S
C721 C719 1.388 . S
C721 C722 1.366 . S
C722 C721 1.366 . S
C722 C723 1.414 . S
C722 C725 1.499 . S
C723 H697 0.950 . S
C723 C722 1.414 . S
C723 C724 1.374 . S
C724 H698 0.950 . S
C724 C720 1.385 . S
C724 C723 1.374 . S
C725 C722 1.499 . S
C725 C726 1.373 . S
C725 C727 1.389 . S
C726 H699 0.950 . S
C726 C712 1.377 . S
C726 C725 1.373 . S
C727 C711 1.377 . S
C727 C725 1.389 . S
C727 C728 1.524 . S
C728 C727 1.524 . S
C728 C729 1.397 . S
C728 C733 1.363 . S
C729 H700 0.950 . S
C729 C728 1.397 . S
C729 C730 1.334 . S
C730 H701 0.950 . S
C730 C729 1.334 . S
C730 C731 1.287 . S
C731 C730 1.287 . S
C731 C732 1.524 . S
C731 H734 0.999 . S
C732 H702 0.950 . S
C732 C731 1.524 . S
C732 C733 1.415 . S
C733 H703 0.950 . S
C733 C728 1.363 . S
C733 C732 1.415 . S
H734 C731 0.999 . S
H735 C716 0.913 . S
H736 C754 0.951 . S
H737 C756 0.951 . S
H738 C758 0.950 . S
H739 C759 0.950 . S
H740 C761 0.950 . S
H741 C764 0.950 . S
H742 C765 0.950 . S
H743 C767 0.950 . S
H744 C768 0.950 . S
H745 C769 0.951 . S
H746 C771 0.951 . S
H747 C773 0.950 . S
H748 C774 0.950 . S
H749 C776 0.950 . S
H750 C779 0.950 . S
H751 C780 0.950 . S
H752 C782 0.950 . S
H753 C783 0.950 . S
C754 H736 0.951 . S
C754 C755 1.366 . S
C754 C756 1.388 . S
C755 C754 1.366 . S
C755 C759 1.385 . S
C756 H737 0.951 . S
C756 C754 1.388 . S
C756 C757 1.366 . S
C757 C756 1.366 . S
C757 C758 1.414 . S
C757 C760 1.499 . S
C758 H738 0.950 . S
C758 C757 1.414 . S
C758 C759 1.374 . S
C759 H739 0.950 . S
C759 C755 1.385 . S
C759 C758 1.374 . S
C760 C757 1.499 . S
C760 C761 1.373 . S
C760 C762 1.389 . S
C761 H740 0.950 . S
C761 C760 1.373 . S
C761 C777 1.377 . S
C762 C760 1.389 . S
C762 C763 1.524 . S
C762 C776 1.377 . S
C763 C762 1.524 . S
C763 C764 1.397 . S
C763 C768 1.363 . S
C764 H741 0.950 . S
C764 C763 1.397 . S
C764 C765 1.334 . S
C765 H742 0.950 . S
C765 C764 1.334 . S
C765 C766 1.287 . S
C766 C765 1.287 . S
C766 C767 1.524 . S
C766 H785 0.913 . S
C767 H743 0.950 . S
C767 C766 1.524 . S
C767 C768 1.415 . S
C768 H744 0.950 . S
C768 C763 1.363 . S
C768 C767 1.415 . S
C769 H745 0.951 . S
C769 C770 1.366 . S
C769 C771 1.388 . S
C770 C769 1.366 . S
C770 C774 1.385 . S
C771 H746 0.951 . S
C771 C769 1.388 . S
C771 C772 1.366 . S
C772 C771 1.366 . S
C772 C773 1.414 . S
C772 C775 1.499 . S
C773 H747 0.950 . S
C773 C772 1.414 . S
C773 C774 1.374 . S
C774 H748 0.950 . S
C774 C770 1.385 . S
C774 C773 1.374 . S
C775 C772 1.499 . S
C775 C776 1.373 . S
C775 C777 1.389 . S
C776 H749 0.950 . S
C776 C762 1.377 . S
C776 C775 1.373 . S
C777 C761 1.377 . S
C777 C775 1.389 . S
C777 C778 1.524 . S
C778 C777 1.524 . S
C778 C779 1.397 . S
C778 C783 1.363 . S
C779 H750 0.950 . S
C779 C778 1.397 . S
C779 C780 1.334 . S
C780 H751 0.950 . S
C780 C779 1.334 . S
C780 C781 1.287 . S
C781 C780 1.287 . S
C781 C782 1.524 . S
C781 H784 0.999 . S
C782 H752 0.950 . S
C782 C781 1.524 . S
C782 C783 1.415 . S
C783 H753 0.950 . S
C783 C778 1.363 . S
C783 C782 1.415 . S
H784 C781 0.999 . S
H785 C766 0.913 . S
H786 C804 0.951 . S
H787 C806 0.951 . S
H788 C808 0.950 . S
H789 C809 0.950 . S
H790 C811 0.950 1_655 S
H791 C814 0.950 . S
H792 C815 0.950 . S
H793 C817 0.950 . S
H794 C818 0.950 . S
H795 C819 0.951 . S
H796 C821 0.951 . S
H797 C823 0.950 . S
H798 C824 0.950 . S
H799 C826 0.950 . S
H800 C829 0.950 . S
H801 C830 0.950 . S
H802 C832 0.950 . S
H803 C833 0.950 . S
C804 H786 0.951 . S
C804 C805 1.366 . S
C804 C806 1.388 . S
C805 C804 1.366 . S
C805 C809 1.385 . S
C806 H787 0.951 . S
C806 C804 1.388 . S
C806 C807 1.366 . S
C807 C806 1.366 . S
C807 C808 1.414 . S
C807 C810 1.499 . S
C808 H788 0.950 . S
C808 C807 1.414 . S
C808 C809 1.374 . S
C809 H789 0.950 . S
C809 C805 1.385 . S
C809 C808 1.374 . S
C810 C807 1.499 . S
C810 C811 1.373 . S
C810 C812 1.389 . S
C811 H790 0.950 1_455 S
C811 C810 1.373 . S
C811 C827 1.377 . S
C812 C810 1.389 . S
C812 C813 1.524 . S
C812 C826 1.377 . S
C813 C812 1.524 . S
C813 C814 1.397 . S
C813 C818 1.363 . S
C814 H791 0.950 . S
C814 C813 1.397 . S
C814 C815 1.334 . S
C815 H792 0.950 . S
C815 C814 1.334 . S
C815 C816 1.287 . S
C816 C815 1.287 . S
C816 C817 1.524 . S
C816 H835 0.913 . S
C817 H793 0.950 . S
C817 C816 1.524 . S
C817 C818 1.415 . S
C818 H794 0.950 . S
C818 C813 1.363 . S
C818 C817 1.415 . S
C819 H795 0.951 . S
C819 C820 1.366 . S
C819 C821 1.388 . S
C820 C819 1.366 . S
C820 C824 1.385 . S
C821 H796 0.951 . S
C821 C819 1.388 . S
C821 C822 1.366 . S
C822 C821 1.366 . S
C822 C823 1.414 . S
C822 C825 1.501 . S
C823 H797 0.950 . S
C823 C822 1.414 . S
C823 C824 1.374 . S
C824 H798 0.950 . S
C824 C820 1.385 . S
C824 C823 1.374 . S
C825 C822 1.501 . S
C825 C826 1.372 1_556 S
C825 C827 1.388 1_556 S
C826 H799 0.950 . S
C826 C812 1.377 . S
C826 C825 1.372 1_554 S
C827 C811 1.377 . S
C827 C825 1.388 1_554 S
C827 C828 1.524 1_455 S
C828 C827 1.524 1_655 S
C828 C829 1.397 1_554 S
C828 C833 1.363 . S
C829 H800 0.950 . S
C829 C828 1.397 1_556 S
C829 C830 1.334 . S
C830 H801 0.950 . S
C830 C829 1.334 . S
C830 C831 1.287 . S
C831 C830 1.287 . S
C831 C832 1.524 1_556 S
C831 H834 0.999 . S
C832 H802 0.950 . S
C832 C831 1.524 1_554 S
C832 C833 1.415 . S
C833 H803 0.950 . S
C833 C828 1.363 . S
C833 C832 1.415 . S
H834 C831 0.999 . S
H835 C816 0.913 . S
H836 C854 0.951 . S
H837 C856 0.951 . S
H838 C858 0.950 . S
H839 C859 0.950 . S
H840 C861 0.950 1_565 S
H841 C864 0.908 1_565 S
H842 C865 0.950 . S
H843 C867 0.950 . S
H844 C868 0.950 . S
H845 C869 0.951 . S
H846 C871 0.951 . S
H847 C873 0.950 . S
H848 C874 0.950 . S
H849 C876 0.950 . S
H850 C879 0.950 . S
H851 C880 0.950 . S
H852 C882 0.950 . S
H853 C883 0.950 . S
C854 H836 0.951 . S
C854 C855 1.366 . S
C854 C856 1.388 . S
C855 C854 1.366 . S
C855 C859 1.385 1_545 S
C856 H837 0.951 . S
C856 C854 1.388 . S
C856 C857 1.366 . S
C857 C856 1.366 . S
C857 C858 1.414 1_545 S
C857 C860 1.499 . S
C858 H838 0.950 . S
C858 C857 1.414 1_565 S
C858 C859 1.374 . S
C859 H839 0.950 . S
C859 C855 1.385 1_565 S
C859 C858 1.374 . S
C860 C857 1.499 . S
C860 C861 1.373 . S
C860 C862 1.389 . S
C861 H840 0.950 1_545 S
C861 C860 1.373 . S
C861 C877 1.377 . S
C862 C860 1.389 . S
C862 C863 1.524 . S
C862 C876 1.377 . S
C863 C862 1.524 . S
C863 C864 1.397 . S
C863 C868 1.363 . S
C864 H841 0.908 1_545 S
C864 C863 1.397 . S
C864 C865 1.334 . S
C865 H842 0.950 . S
C865 C864 1.334 . S
C865 C866 1.287 . S
C866 C865 1.287 . S
C866 C867 1.524 . S
C866 H885 0.913 . S
C867 H843 0.950 . S
C867 C866 1.524 . S
C867 C868 1.415 . S
C868 H844 0.950 . S
C868 C863 1.363 . S
C868 C867 1.415 . S
C869 H845 0.951 . S
C869 C870 1.366 1_565 S
C869 C871 1.388 . S
C870 C869 1.366 1_545 S
C870 C874 1.385 . S
C871 H846 0.951 . S
C871 C869 1.388 . S
C871 C872 1.366 1_565 S
C872 C871 1.366 1_545 S
C872 C873 1.414 . S
C872 C875 1.499 . S
C873 H847 0.950 . S
C873 C872 1.414 . S
C873 C874 1.374 . S
C874 H848 0.950 . S
C874 C870 1.385 . S
C874 C873 1.374 . S
C875 C872 1.499 . S
C875 C876 1.373 . S
C875 C877 1.389 . S
C876 H849 0.950 . S
C876 C862 1.377 . S
C876 C875 1.373 . S
C877 C861 1.377 . S
C877 C875 1.389 . S
C877 C878 1.524 1_545 S
C878 C877 1.524 1_565 S
C878 C879 1.397 1_565 S
C878 C883 1.363 . S
C879 H850 0.950 . S
C879 C878 1.397 1_545 S
C879 C880 1.334 . S
C880 H851 0.950 . S
C880 C879 1.334 . S
C880 C881 1.287 1_545 S
C881 C880 1.287 1_565 S
C881 C882 1.524 . S
C881 H884 0.999 . S
C882 H852 0.950 . S
C882 C881 1.524 . S
C882 C883 1.415 . S
C883 H853 0.950 . S
C883 C878 1.363 . S
C883 C882 1.415 . S
H884 C881 0.999 . S
H885 C866 0.913 . S
H886 C904 0.951 . S
H887 C906 0.951 . S
H888 C908 0.950 . S
H889 C909 0.950 . S
H890 C911 0.950 . S
H891 C914 0.950 . S
H892 C915 0.950 . S
H893 C917 0.950 . S
H894 C918 0.950 . S
H895 C919 0.951 . S
H896 C921 0.951 . S
H897 C923 0.950 . S
H898 C924 0.950 . S
H899 C926 0.950 . S
H900 C929 0.950 . S
H901 C930 0.950 . S
H902 C932 0.950 . S
H903 C933 0.950 . S
C904 H886 0.951 . S
C904 C905 1.366 . S
C904 C906 1.388 . S
C905 C904 1.366 . S
C905 C909 1.385 . S
C906 H887 0.951 . S
C906 C904 1.388 . S
C906 C907 1.366 . S
C907 C906 1.366 . S
C907 C908 1.414 . S
C907 C910 1.499 . S
C908 H888 0.950 . S
C908 C907 1.414 . S
C908 C909 1.374 . S
C909 H889 0.950 . S
C909 C905 1.385 . S
C909 C908 1.374 . S
C910 C907 1.499 . S
C910 C911 1.373 . S
C910 C912 1.389 . S
C911 H890 0.950 . S
C911 C910 1.373 . S
C911 C927 1.377 . S
C912 C910 1.389 . S
C912 C913 1.524 . S
C912 C926 1.377 . S
C913 C912 1.524 . S
C913 C914 1.397 . S
C913 C918 1.363 . S
C914 H891 0.950 . S
C914 C913 1.397 . S
C914 C915 1.334 . S
C915 H892 0.950 . S
C915 C914 1.334 . S
C915 C916 1.287 . S
C916 C915 1.287 . S
C916 C917 1.524 . S
C916 H935 0.913 . S
C917 H893 0.950 . S
C917 C916 1.524 . S
C917 C918 1.415 . S
C918 H894 0.950 . S
C918 C913 1.363 . S
C918 C917 1.415 . S
C919 H895 0.951 . S
C919 C920 1.366 . S
C919 C921 1.388 . S
C920 C919 1.366 . S
C920 C924 1.385 . S
C921 H896 0.951 . S
C921 C919 1.388 . S
C921 C922 1.366 . S
C922 C921 1.366 . S
C922 C923 1.414 . S
C922 C925 1.499 . S
C923 H897 0.950 . S
C923 C922 1.414 . S
C923 C924 1.374 . S
C924 H898 0.950 . S
C924 C920 1.385 . S
C924 C923 1.374 . S
C925 C922 1.499 . S
C925 C926 1.373 . S
C925 C927 1.389 . S
C926 H899 0.950 . S
C926 C912 1.377 . S
C926 C925 1.373 . S
C927 C911 1.377 . S
C927 C925 1.389 . S
C927 C928 1.524 . S
C928 C927 1.524 . S
C928 C929 1.397 . S
C928 C933 1.363 . S
C929 H900 0.950 . S
C929 C928 1.397 . S
C929 C930 1.334 . S
C930 H901 0.950 . S
C930 C929 1.334 . S
C930 C931 1.287 . S
C931 C930 1.287 . S
C931 C932 1.524 . S
C931 H934 0.999 . S
C932 H902 0.950 . S
C932 C931 1.524 . S
C932 C933 1.415 . S
C933 H903 0.950 . S
C933 C928 1.363 . S
C933 C932 1.415 . S
H934 C931 0.999 . S
H935 C916 0.913 . S
H936 C954 0.951 . S
H937 C956 0.951 . S
H938 C958 0.950 . S
H939 C959 0.950 . S
H940 C961 0.950 . S
H941 C964 0.950 1_545 S
H942 C965 0.950 . S
H943 C967 0.950 . S
H944 C968 0.950 . S
H945 C969 0.951 . S
H946 C971 0.951 . S
H947 C973 0.950 . S
H948 C974 0.950 . S
H949 C976 0.950 . S
H950 C979 0.950 . S
H951 C980 0.950 . S
H952 C982 0.950 . S
H953 C983 0.950 . S
C954 H936 0.951 . S
C954 C955 1.366 1_565 S
C954 C956 1.388 . S
C955 C954 1.366 1_545 S
C955 C959 1.385 . S
C956 H937 0.951 . S
C956 C954 1.388 . S
C956 C957 1.366 1_565 S
C957 C956 1.366 1_545 S
C957 C958 1.414 . S
C957 C960 1.499 . S
C958 H938 0.950 . S
C958 C957 1.414 . S
C958 C959 1.374 . S
C959 H939 0.950 . S
C959 C955 1.385 . S
C959 C958 1.374 . S
C960 C957 1.499 . S
C960 C961 1.373 . S
C960 C962 1.389 1_545 S
C961 H940 0.950 . S
C961 C960 1.373 . S
C961 C977 1.377 . S
C962 C960 1.389 1_565 S
C962 C963 1.524 . S
C962 C976 1.377 . S
C963 C962 1.524 . S
C963 C964 1.397 . S
C963 C968 1.363 . S
C964 H941 0.950 1_565 S
C964 C963 1.397 . S
C964 C965 1.334 . S
C965 H942 0.950 . S
C965 C964 1.334 . S
C965 C966 1.287 . S
C966 C965 1.287 . S
C966 C967 1.524 . S
C966 H985 0.913 . S
C967 H943 0.950 . S
C967 C966 1.524 . S
C967 C968 1.415 . S
C968 H944 0.950 . S
C968 C963 1.363 . S
C968 C967 1.415 . S
C969 H945 0.951 . S
C969 C970 1.366 . S
C969 C971 1.388 . S
C970 C969 1.366 . S
C970 C974 1.385 1_545 S
C971 H946 0.951 . S
C971 C969 1.388 . S
C971 C972 1.366 . S
C972 C971 1.366 . S
C972 C973 1.414 1_545 S
C972 C975 1.499 . S
C973 H947 0.950 . S
C973 C972 1.414 1_565 S
C973 C974 1.374 . S
C974 H948 0.950 . S
C974 C970 1.385 1_565 S
C974 C973 1.374 . S
C975 C972 1.499 . S
C975 C976 1.373 1_545 S
C975 C977 1.389 . S
C976 H949 0.950 . S
C976 C962 1.377 . S
C976 C975 1.373 1_565 S
C977 C961 1.377 . S
C977 C975 1.389 . S
C977 C978 1.524 . S
C978 C977 1.524 . S
C978 C979 1.397 . S
C978 C983 1.363 . S
C979 H950 0.950 . S
C979 C978 1.397 . S
C979 C980 1.334 . S
C980 H951 0.950 . S
C980 C979 1.334 . S
C980 C981 1.287 . S
C981 C980 1.287 . S
C981 C982 1.524 . S
C981 H984 0.999 . S
C982 H952 0.950 . S
C982 C981 1.524 . S
C982 C983 1.415 . S
C983 H953 0.950 . S
C983 C978 1.363 . S
C983 C982 1.415 . S
H984 C981 0.999 . S
H985 C966 0.913 . S
H986 C1004 0.951 . S
H987 C1006 0.951 . S
H988 C1008 0.950 . S
H989 C1009 0.950 . S
H990 C1011 0.950 . S
H991 C1014 0.950 . S
H992 C1015 0.950 . S
H993 C1017 0.950 . S
H994 C1018 0.950 . S
H995 C1019 0.951 . S
H996 C1021 0.951 . S
H997 C1023 0.950 . S
H998 C1024 0.950 . S
H999 C1026 0.950 1_554 S
H1000 C1029 0.950 . S
H1001 C1030 0.950 . S
H1002 C1032 0.950 . S
H1003 C1033 0.950 . S
C1004 H986 0.951 . S
C1004 C1005 1.366 . S
C1004 C1006 1.388 . S
C1005 C1004 1.366 . S
C1005 C1009 1.385 . S
C1006 H987 0.951 . S
C1006 C1004 1.388 . S
C1006 C1007 1.366 . S
C1007 C1006 1.366 . S
C1007 C1008 1.414 . S
C1007 C1010 1.499 . S
C1008 H988 0.950 . S
C1008 C1007 1.414 . S
C1008 C1009 1.374 . S
C1009 H989 0.950 . S
C1009 C1005 1.385 . S
C1009 C1008 1.374 . S
C1010 C1007 1.499 . S
C1010 C1011 1.373 . S
C1010 C1012 1.389 . S
C1011 H990 0.950 . S
C1011 C1010 1.373 . S
C1011 C1027 1.377 . S
C1012 C1010 1.389 . S
C1012 C1013 1.524 . S
C1012 C1026 1.377 . S
C1013 C1012 1.524 . S
C1013 C1014 1.397 . S
C1013 C1018 1.363 . S
C1014 H991 0.950 . S
C1014 C1013 1.397 . S
C1014 C1015 1.334 . S
C1015 H992 0.950 . S
C1015 C1014 1.334 . S
C1015 C1016 1.287 . S
C1016 C1015 1.287 . S
C1016 C1017 1.524 . S
C1016 H1035 0.913 . S
C1017 H993 0.950 . S
C1017 C1016 1.524 . S
C1017 C1018 1.415 . S
C1018 H994 0.950 . S
C1018 C1013 1.363 . S
C1018 C1017 1.415 . S
C1019 H995 0.951 . S
C1019 C1020 1.366 . S
C1019 C1021 1.388 . S
C1020 C1019 1.366 . S
C1020 C1024 1.385 . S
C1021 H996 0.951 . S
C1021 C1019 1.388 . S
C1021 C1022 1.366 . S
C1022 C1021 1.366 . S
C1022 C1023 1.414 . S
C1022 C1025 1.499 . S
C1023 H997 0.950 . S
C1023 C1022 1.414 . S
C1023 C1024 1.374 . S
C1024 H998 0.950 . S
C1024 C1020 1.385 . S
C1024 C1023 1.374 . S
C1025 C1022 1.499 . S
C1025 C1026 1.373 1_554 S
C1025 C1027 1.389 1_554 S
C1026 H999 0.950 1_556 S
C1026 C1012 1.377 . S
C1026 C1025 1.373 1_556 S
C1027 C1011 1.377 . S
C1027 C1025 1.389 1_556 S
C1027 C1028 1.524 . S
C1028 C1027 1.524 . S
C1028 C1029 1.397 1_556 S
C1028 C1033 1.363 . S
C1029 H1000 0.950 . S
C1029 C1028 1.397 1_554 S
C1029 C1030 1.334 . S
C1030 H1001 0.950 . S
C1030 C1029 1.334 . S
C1030 C1031 1.287 . S
C1031 C1030 1.287 . S
C1031 C1032 1.524 1_554 S
C1031 H1034 0.999 . S
C1032 H1002 0.950 . S
C1032 C1031 1.524 1_556 S
C1032 C1033 1.415 . S
C1033 H1003 0.950 . S
C1033 C1028 1.363 . S
C1033 C1032 1.415 . S
H1034 C1031 0.999 . S
H1035 C1016 0.913 . S
H1036 C1054 0.951 . S
H1037 C1056 0.951 . S
H1038 C1058 0.950 . S
H1039 C1059 0.950 . S
H1040 C1061 0.950 . S
H1041 C1064 0.950 . S
H1042 C1065 0.950 . S
H1043 C1067 0.950 . S
H1044 C1068 0.950 . S
H1045 C1069 0.951 . S
H1046 C1071 0.951 . S
H1047 C1073 0.950 . S
H1048 C1074 0.950 . S
H1049 C1076 0.950 . S
H1050 C1079 0.950 . S
H1051 C1080 0.950 . S
H1052 C1082 0.950 . S
H1053 C1083 0.950 . S
C1054 H1036 0.951 . S
C1054 C1055 1.366 . S
C1054 C1056 1.388 . S
C1055 C1054 1.366 . S
C1055 C1059 1.385 1_455 S
C1056 H1037 0.951 . S
C1056 C1054 1.388 . S
C1056 C1057 1.366 . S
C1057 C1056 1.366 . S
C1057 C1058 1.414 1_455 S
C1057 C1060 1.499 . S
C1058 H1038 0.950 . S
C1058 C1057 1.414 1_655 S
C1058 C1059 1.374 . S
C1059 H1039 0.950 . S
C1059 C1055 1.385 1_655 S
C1059 C1058 1.374 . S
C1060 C1057 1.499 . S
C1060 C1061 1.373 . S
C1060 C1062 1.389 . S
C1061 H1040 0.950 . S
C1061 C1060 1.373 . S
C1061 C1077 1.377 . S
C1062 C1060 1.389 . S
C1062 C1063 1.524 . S
C1062 C1076 1.377 . S
C1063 C1062 1.524 . S
C1063 C1064 1.397 1_455 S
C1063 C1068 1.363 . S
C1064 H1041 0.950 . S
C1064 C1063 1.397 1_655 S
C1064 C1065 1.334 . S
C1065 H1042 0.950 . S
C1065 C1064 1.334 . S
C1065 C1066 1.287 . S
C1066 C1065 1.287 . S
C1066 C1067 1.524 1_655 S
C1066 H1085 0.913 . S
C1067 H1043 0.950 . S
C1067 C1066 1.524 1_455 S
C1067 C1068 1.415 . S
C1068 H1044 0.950 . S
C1068 C1063 1.363 . S
C1068 C1067 1.415 . S
C1069 H1045 0.951 . S
C1069 C1070 1.366 . S
C1069 C1071 1.388 . S
C1070 C1069 1.366 . S
C1070 C1074 1.385 1_655 S
C1071 H1046 0.951 . S
C1071 C1069 1.388 . S
C1071 C1072 1.367 . S
C1072 C1071 1.367 . S
C1072 C1073 1.412 1_655 S
C1072 C1075 1.498 1_655 S
C1073 H1047 0.950 . S
C1073 C1072 1.412 1_455 S
C1073 C1074 1.374 . S
C1074 H1048 0.950 . S
C1074 C1070 1.385 1_455 S
C1074 C1073 1.374 . S
C1075 C1072 1.498 1_455 S
C1075 C1076 1.373 . S
C1075 C1077 1.389 . S
C1076 H1049 0.950 . S
C1076 C1062 1.377 . S
C1076 C1075 1.373 . S
C1077 C1061 1.377 . S
C1077 C1075 1.389 . S
C1077 C1078 1.524 . S
C1078 C1077 1.524 . S
C1078 C1079 1.397 . S
C1078 C1083 1.363 1_455 S
C1079 H1050 0.950 . S
C1079 C1078 1.397 . S
C1079 C1080 1.334 . S
C1080 H1051 0.950 . S
C1080 C1079 1.334 . S
C1080 C1081 1.287 . S
C1081 C1080 1.287 . S
C1081 C1082 1.524 1_455 S
C1081 H1084 0.999 . S
C1082 H1052 0.950 . S
C1082 C1081 1.524 1_655 S
C1082 C1083 1.415 . S
C1083 H1053 0.950 . S
C1083 C1078 1.363 1_655 S
C1083 C1082 1.415 . S
H1084 C1081 0.999 . S
H1085 C1066 0.913 . S
C205 C7 0.616 . S
C220 C180 0.721 . S
C255 C51 2.053 . S
C270 C158 1.778 . S
C305 C87 0.975 . S
C320 C172 0.961 . S
C355 C16 0.237 . S
C370 C183 0.263 . S
C420 C161 1.763 . S
C405 C42 1.810 . S
C470 C169 1.221 . S
C455 C96 1.438 . S
C505 C47 1.354 . S
C520 C136 1.156 . S
C555 C91 3.300 . S
C570 C147 2.945 . S
C605 C2 2.168 . S
C620 C125 1.846 . S
C670 C139 1.031 . S
C655 C56 1.044 . S
C720 C150 2.724 . S
C705 C82 2.782 . S
C755 C11 1.708 . S
C770 C128 1.665 . S
C820 C149 1.637 . S
C805 C19 1.644 . S
C855 C50 1.415 . S
C870 C127 1.404 . S
C905 C99 1.511 . S
C920 C138 1.484 . S
C970 C171 1.451 . S
C955 C59 1.466 . S
C1020 C182 1.233 . S
C1005 C90 1.272 . S
C1055 C10 1.436 . S
C1070 C160 1.407 . S
