# Generated by pormake.
# Topology bcu-b, (8,8)-cn, num edge types: 1
# Building blocks:
#     Node 0, Type 0, BuildingBlock: TAGTUT_clean_sbu_3, # of connection points: 8
#     Node 1, Type 1, BuildingBlock: VETTIZ_charged_sbu_0, # of connection points: 8
#     Edge 2, Type (0, 1), BuildingBlock: FUNLAD_clean_linker_1, # of connection points: 2
#     Edge 3, Type (0, 1), BuildingBlock: FUNLAD_clean_linker_1, # of connection points: 2
#     Edge 4, Type (0, 1), BuildingBlock: FUNLAD_clean_linker_1, # of connection points: 2
#     Edge 5, Type (0, 1), BuildingBlock: FUNLAD_clean_linker_1, # of connection points: 2
#     Edge 6, Type (0, 1), BuildingBlock: FUNLAD_clean_linker_1, # of connection points: 2
#     Edge 7, Type (0, 1), BuildingBlock: FUNLAD_clean_linker_1, # of connection points: 2
#     Edge 8, Type (0, 1), BuildingBlock: FUNLAD_clean_linker_1, # of connection points: 2
#     Edge 9, Type (0, 1), BuildingBlock: FUNLAD_clean_linker_1, # of connection points: 2
# Relax obj value: 0.021
# Max RMSD: 0.103
# Mean RMSD: 0.075
data_MOF--net-bcu-b--node1-TAGTUT_clean_sbu_3--node2-VETTIZ_charged_sbu_0--edge1-FUNLAD_clean_linker_1
_symmetry_space_group_name_H-M    P1
_symmetry_Int_Tables_number       1
_symmetry_cell_setting            triclinic
loop_
_symmetry_equiv_pos_as_xyz
'x, y, z'
_cell_length_a     19.769323
_cell_length_b     20.498952
_cell_length_c     20.965881
_cell_angle_alpha  89.80992
_cell_angle_beta   90.147754
_cell_angle_gamma 99.129162
loop_
_atom_site_label
_atom_site_type_symbol
_atom_site_fract_x
_atom_site_fract_y
_atom_site_fract_z
_atom_type_partial_charge
C0 C 0.13162 0.11751 0.08094 0.0
C1 C 0.21794 0.88464 0.09952 0.0
C2 C 0.13552 0.85875 0.91012 0.0
Mg3 Mg 0.99635 0.15223 0.00341 0.0
Mg4 Mg 0.86835 0.03405 0.96862 0.0
O5 O 0.96256 0.06494 0.96204 0.0
Mg6 Mg 0.02539 0.01017 0.00276 0.0
O7 O 0.09261 0.95988 0.04299 0.0
Mg8 Mg 0.17768 0.99932 0.99537 0.0
Mg9 Mg 0.0714 0.86747 0.04073 0.0
C10 C 0.91752 0.90505 0.91634 0.0
O11 O 0.94507 0.9611 0.07565 0.0
O12 O 0.92001 0.19541 0.9335 0.0
O13 O 0.96921 0.85717 0.08115 0.0
O14 O 0.91036 0.1395 0.08121 0.0
O15 O 0.83618 0.11007 0.9117 0.0
O16 O 0.83555 0.04758 0.06392 0.0
O17 O 0.10796 0.05491 0.93253 0.0
O18 O 0.0827 0.15794 0.92884 0.0
C19 C 0.11999 0.11487 0.91226 0.0
C20 C 0.86375 0.17053 0.9052 0.0
O21 O 0.97929 0.92511 0.93504 0.0
O22 O 0.23634 0.93708 0.06565 0.0
O23 O 0.8678 0.93634 0.92902 0.0
O24 O 0.17142 0.91449 0.92331 0.0
O25 O 0.15716 0.85165 0.09785 0.0
O26 O 0.08704 0.8323 0.94623 0.0
O27 O 0.06817 0.09823 0.06657 0.0
O28 O 0.17909 0.08555 0.06345 0.0
C29 C 0.85758 0.09812 0.09757 0.0
C30 C 0.93133 0.90064 0.09442 0.0
Fe31 Fe 0.52477 0.57798 0.50375 0.0
O32 O 0.47512 0.49391 0.54009 0.0
Fe33 Fe 0.67611 0.5353 0.44717 0.0
Fe34 Fe 0.37496 0.47535 0.54643 0.0
O35 O 0.57607 0.51911 0.45393 0.0
O36 O 0.57551 0.5127 0.45237 0.0
O37 O 0.47525 0.4878 0.53951 0.0
Fe38 Fe 0.52725 0.42836 0.49042 0.0
C39 C 0.41996 0.6093 0.60582 0.0
O40 O 0.45625 0.57547 0.43029 0.0
O41 O 0.35859 0.55058 0.48411 0.0
O42 O 0.58939 0.3778 0.43237 0.0
O43 O 0.66102 0.46126 0.37973 0.0
O44 O 0.65608 0.61399 0.39237 0.0
O45 O 0.58241 0.65949 0.45784 0.0
O46 O 0.35874 0.41017 0.47225 0.0
O47 O 0.45619 0.41855 0.41671 0.0
C48 C 0.62454 0.66206 0.40999 0.0
O49 O 0.59769 0.43351 0.5639 0.0
O50 O 0.6948 0.46261 0.50968 0.0
O51 O 0.46445 0.6295 0.56148 0.0
O52 O 0.39154 0.5483 0.61468 0.0
C53 C 0.39262 0.57656 0.43635 0.0
C54 C 0.3913 0.40279 0.42136 0.0
C55 C 0.42545 0.34675 0.58544 0.0
O56 O 0.39301 0.39515 0.60058 0.0
O57 O 0.46979 0.34806 0.53918 0.0
C58 C 0.63314 0.39989 0.38756 0.0
O59 O 0.69052 0.60179 0.52199 0.0
O60 O 0.59356 0.58332 0.57757 0.0
C61 C 0.66254 0.4389 0.55901 0.0
C62 C 0.65751 0.60347 0.5739 0.0
H63 H 0.19591 0.21316 0.08759 0.0
C64 C 0.15523 0.18087 0.11226 0.0
H65 H 0.11398 0.15079 0.20142 0.0
H66 H 0.38665 0.22424 0.35542 0.0
H67 H 0.35818 0.10578 0.37071 0.0
H68 H 0.2621 0.04101 0.31206 0.0
H69 H 0.19325 0.09409 0.23895 0.0
C70 C 0.15015 0.18684 0.17563 0.0
C71 C 0.20724 0.22723 0.21196 0.0
C72 C 0.24799 0.19477 0.25388 0.0
C73 C 0.30463 0.23172 0.28657 0.0
C74 C 0.34339 0.19844 0.32914 0.0
C75 C 0.32776 0.13042 0.33824 0.0
C76 C 0.27362 0.094 0.30529 0.0
C77 C 0.23418 0.12539 0.26353 0.0
H78 H 0.29425 0.37338 0.37119 0.0
C79 C 0.34921 0.37353 0.36752 0.0
H80 H 0.42621 0.33545 0.31642 0.0
H81 H 0.13913 0.30645 0.13791 0.0
H82 H 0.17617 0.42266 0.11426 0.0
H83 H 0.28147 0.48338 0.16269 0.0
H84 H 0.34798 0.42936 0.23826 0.0
C85 C 0.37244 0.34062 0.31929 0.0
C86 C 0.32138 0.30075 0.27665 0.0
C87 C 0.28344 0.3325 0.2321 0.0
C88 C 0.22517 0.29628 0.20111 0.0
C89 C 0.18585 0.33061 0.16012 0.0
C90 C 0.20619 0.39745 0.1466 0.0
C91 C 0.26517 0.43181 0.17426 0.0
C92 C 0.30287 0.40028 0.21744 0.0
H93 H 0.7734 0.07433 0.16713 0.0
C94 C 0.81584 0.11195 0.15283 0.0
H95 H 0.86176 0.21155 0.16254 0.0
H96 H 0.58423 0.30514 0.23755 0.0
H97 H 0.58153 0.32326 0.12301 0.0
H98 H 0.66488 0.28187 0.0524 0.0
H99 H 0.75042 0.22105 0.09565 0.0
C100 C 0.82232 0.1722 0.17923 0.0
C101 C 0.76822 0.19118 0.22139 0.0
C102 C 0.71941 0.22761 0.19541 0.0
C103 C 0.6728 0.2533 0.23623 0.0
C104 C 0.62262 0.28702 0.20877 0.0
C105 C 0.62011 0.29718 0.14313 0.0
C106 C 0.66694 0.27375 0.10337 0.0
C107 C 0.71596 0.23914 0.12888 0.0
H108 H 0.69358 0.37459 0.30665 0.0
C109 C 0.65763 0.35311 0.34312 0.0
H110 H 0.60881 0.26381 0.38445 0.0
H111 H 0.84763 0.11443 0.28473 0.0
H112 H 0.84629 0.09168 0.39858 0.0
H113 H 0.76793 0.13903 0.46996 0.0
H114 H 0.69043 0.20958 0.42826 0.0
C115 C 0.6422 0.28692 0.34694 0.0
C116 C 0.67721 0.24528 0.30331 0.0
C117 C 0.72169 0.20365 0.32862 0.0
C118 C 0.76718 0.17638 0.28746 0.0
C119 C 0.81211 0.1362 0.31393 0.0
C120 C 0.81187 0.12281 0.37912 0.0
C121 C 0.76778 0.14959 0.41935 0.0
C122 C 0.72348 0.18997 0.39476 0.0
H123 H 0.85519 0.82525 0.13905 0.0
C124 C 0.87003 0.87836 0.13315 0.0
H125 H 0.85209 0.97214 0.16407 0.0
H126 H 0.59775 0.72001 0.23266 0.0
H127 H 0.56646 0.72584 0.12043 0.0
H128 H 0.63239 0.80805 0.04859 0.0
H129 H 0.73001 0.88511 0.08866 0.0
C130 C 0.83534 0.91918 0.16503 0.0
C131 C 0.78044 0.8901 0.20984 0.0
C132 C 0.72258 0.84736 0.18629 0.0
C133 C 0.68474 0.8002 0.22755 0.0
C134 C 0.62846 0.75635 0.20271 0.0
C135 C 0.60992 0.75945 0.13869 0.0
C136 C 0.64704 0.80577 0.09824 0.0
C137 C 0.70294 0.84933 0.12153 0.0
H138 H 0.61554 0.7668 0.38997 0.0
C139 C 0.6398 0.72537 0.37496 0.0
H140 H 0.7082 0.69159 0.31037 0.0
H141 H 0.87406 0.97968 0.27269 0.0
H142 H 0.89943 0.98005 0.38633 0.0
H143 H 0.83626 0.89598 0.45785 0.0
H144 H 0.74671 0.81162 0.41658 0.0
C145 C 0.68492 0.7331 0.32677 0.0
C146 C 0.70498 0.79626 0.29199 0.0
C147 C 0.75576 0.84595 0.31761 0.0
C148 C 0.79299 0.8938 0.27629 0.0
C149 C 0.84489 0.94192 0.30216 0.0
C150 C 0.85973 0.94274 0.36718 0.0
C151 C 0.82405 0.89543 0.40749 0.0
C152 C 0.77284 0.84723 0.38321 0.0
H153 H 0.32148 0.86295 0.12369 0.0
C154 C 0.26874 0.8581 0.13982 0.0
H155 H 0.19502 0.81912 0.20757 0.0
H156 H 0.29264 0.55983 0.28777 0.0
H157 H 0.1852 0.52108 0.23422 0.0
H158 H 0.12677 0.59749 0.17159 0.0
H159 H 0.17376 0.71357 0.16435 0.0
C160 C 0.24807 0.82264 0.19244 0.0
C161 C 0.28926 0.77698 0.22448 0.0
C162 C 0.26206 0.70854 0.22689 0.0
C163 C 0.29603 0.66425 0.26262 0.0
C164 C 0.26785 0.5962 0.26343 0.0
C165 C 0.20671 0.57297 0.23196 0.0
C166 C 0.17367 0.61602 0.19687 0.0
C167 C 0.20107 0.68282 0.19363 0.0
H168 H 0.30551 0.62076 0.39942 0.0
C169 C 0.3581 0.61444 0.3898 0.0
H170 H 0.44345 0.63893 0.32895 0.0
H171 H 0.35424 0.90532 0.23266 0.0
H172 H 0.46218 0.94393 0.28547 0.0
H173 H 0.52424 0.86619 0.34273 0.0
H174 H 0.47792 0.74974 0.34872 0.0
C175 C 0.39037 0.64362 0.33814 0.0
C176 C 0.35736 0.68835 0.29602 0.0
C177 C 0.38658 0.75611 0.29085 0.0
C178 C 0.35182 0.80076 0.25613 0.0
C179 C 0.37969 0.8688 0.25591 0.0
C180 C 0.44144 0.89178 0.28657 0.0
C181 C 0.47629 0.84806 0.31894 0.0
C182 C 0.44916 0.78114 0.32175 0.0
H183 H 0.12873 0.77034 0.84916 0.0
C184 C 0.15735 0.81941 0.85752 0.0
H185 H 0.24728 0.88663 0.83557 0.0
H186 H 0.35697 0.60484 0.78931 0.0
H187 H 0.35308 0.59661 0.90468 0.0
H188 H 0.30376 0.67807 0.96881 0.0
H189 H 0.2576 0.76774 0.91802 0.0
C190 C 0.21754 0.83801 0.8277 0.0
C191 C 0.24958 0.79056 0.78919 0.0
C192 C 0.27735 0.73895 0.81998 0.0
C193 C 0.30678 0.69266 0.78315 0.0
C194 C 0.33375 0.64129 0.81496 0.0
C195 C 0.33211 0.6361 0.8812 0.0
C196 C 0.30429 0.6819 0.91729 0.0
C197 C 0.27745 0.73295 0.88738 0.0
H198 H 0.42488 0.71007 0.64517 0.0
C199 C 0.39609 0.66026 0.64568 0.0
H200 H 0.30737 0.59809 0.67878 0.0
H201 H 0.20653 0.88723 0.71665 0.0
H202 H 0.21245 0.897 0.60123 0.0
H203 H 0.26086 0.81514 0.53683 0.0
H204 H 0.30438 0.7236 0.58723 0.0
C205 C 0.33675 0.64762 0.67798 0.0
C206 C 0.30974 0.69887 0.71586 0.0
C207 C 0.28357 0.75154 0.68518 0.0
C208 C 0.25423 0.79795 0.72213 0.0
C209 C 0.22897 0.85044 0.69069 0.0
C210 C 0.23196 0.85658 0.62454 0.0
C211 C 0.25932 0.81053 0.58828 0.0
C212 C 0.28456 0.75836 0.61792 0.0
H213 H 0.1874 0.19028 0.8586 0.0
C214 C 0.1787 0.13789 0.87047 0.0
H215 H 0.2113 0.04588 0.85324 0.0
H216 H 0.31124 0.1863 0.58689 0.0
H217 H 0.23165 0.09069 0.55103 0.0
H218 H 0.17188 0.01084 0.62854 0.0
H219 H 0.19113 0.02638 0.7426 0.0
C220 C 0.21999 0.09887 0.84486 0.0
C221 C 0.274 0.12899 0.79938 0.0
C222 C 0.26493 0.11727 0.73319 0.0
C223 C 0.30004 0.16299 0.68853 0.0
C224 C 0.28652 0.15277 0.62274 0.0
C225 C 0.24096 0.09811 0.6016 0.0
C226 C 0.20726 0.05313 0.64525 0.0
C227 C 0.21856 0.06262 0.71043 0.0
H228 H 0.43753 0.24439 0.61337 0.0
C229 C 0.41002 0.28507 0.62343 0.0
H230 H 0.3357 0.31972 0.68082 0.0
H231 H 0.31784 0.1526 0.92165 0.0
H232 H 0.40527 0.24253 0.95766 0.0
H233 H 0.46659 0.32184 0.88045 0.0
H234 H 0.44099 0.31174 0.76685 0.0
C235 C 0.36217 0.27864 0.66951 0.0
C236 C 0.34509 0.21918 0.71069 0.0
C237 C 0.3619 0.22474 0.77631 0.0
C238 C 0.32649 0.17936 0.82075 0.0
C239 C 0.34294 0.18668 0.88628 0.0
C240 C 0.39308 0.2377 0.90735 0.0
C241 C 0.42761 0.28237 0.86387 0.0
C242 C 0.4123 0.27627 0.79901 0.0
H243 H 0.78344 0.18433 0.83678 0.0
C244 C 0.82842 0.21024 0.86124 0.0
H245 H 0.89188 0.30296 0.87256 0.0
H246 H 0.72471 0.2931 0.59234 0.0
H247 H 0.80341 0.22033 0.56008 0.0
H248 H 0.88841 0.18871 0.63574 0.0
H249 H 0.89399 0.22888 0.74467 0.0
C250 C 0.84863 0.27443 0.84798 0.0
C251 C 0.80993 0.30691 0.79919 0.0
C252 C 0.81038 0.28667 0.73455 0.0
C253 C 0.76429 0.30818 0.68992 0.0
C254 C 0.76148 0.28189 0.62732 0.0
C255 C 0.80587 0.23928 0.60829 0.0
C256 C 0.85351 0.22128 0.65094 0.0
C257 C 0.85586 0.24439 0.71341 0.0
H258 H 0.75894 0.42449 0.60517 0.0
C259 C 0.70351 0.41527 0.61051 0.0
H260 H 0.62114 0.3716 0.6684 0.0
H261 H 0.79822 0.35708 0.91845 0.0
H262 H 0.72279 0.43391 0.95016 0.0
H263 H 0.64696 0.47593 0.87162 0.0
H264 H 0.64562 0.44116 0.76104 0.0
C265 C 0.67625 0.38038 0.6611 0.0
C266 C 0.72124 0.35399 0.70881 0.0
C267 C 0.7223 0.37578 0.77302 0.0
C268 C 0.76661 0.3521 0.81826 0.0
C269 C 0.7657 0.3737 0.88225 0.0
C270 C 0.72273 0.4178 0.90103 0.0
C271 C 0.67996 0.44141 0.85682 0.0
C272 C 0.67968 0.421 0.79347 0.0
H273 H 0.94778 0.82641 0.85537 0.0
C274 C 0.9044 0.84765 0.87296 0.0
H275 H 0.79821 0.84946 0.86492 0.0
H276 H 0.77086 0.775 0.57736 0.0
H277 H 0.78618 0.89447 0.56876 0.0
H278 H 0.82307 0.96482 0.66167 0.0
H279 H 0.84415 0.91613 0.76397 0.0
C280 C 0.84144 0.82688 0.84921 0.0
C281 C 0.83005 0.784 0.792 0.0
C282 C 0.81924 0.81332 0.73223 0.0
C283 C 0.7987 0.77286 0.67854 0.0
C284 C 0.78686 0.80342 0.6197 0.0
C285 C 0.79556 0.87196 0.61402 0.0
C286 C 0.81619 0.91157 0.66637 0.0
C287 C 0.82793 0.88292 0.72488 0.0
H288 H 0.66181 0.63995 0.67287 0.0
C289 C 0.69247 0.63522 0.63062 0.0
H290 H 0.7903 0.65956 0.58829 0.0
H291 H 0.85132 0.71252 0.89846 0.0
H292 H 0.84131 0.59289 0.90573 0.0
H293 H 0.80915 0.52289 0.81153 0.0
H294 H 0.78424 0.57163 0.70998 0.0
C295 C 0.75915 0.66163 0.63064 0.0
C296 C 0.78879 0.70318 0.68485 0.0
C297 C 0.80355 0.67388 0.74355 0.0
C298 C 0.82387 0.71441 0.79743 0.0
C299 C 0.83649 0.68395 0.85596 0.0
C300 C 0.83091 0.61544 0.86074 0.0
C301 C 0.81244 0.57595 0.80776 0.0
C302 C 0.79838 0.60451 0.7498 0.0
loop_
_geom_bond_atom_site_label_1
_geom_bond_atom_site_label_2
_geom_bond_distance
_geom_bond_site_symmetry_2
_ccdc_geom_bond_type
C0 O27 1.312 . S
C0 O28 1.208 . S
C1 O22 1.331 . S
C1 O25 1.244 . S
C2 O24 1.264 . S
C2 O26 1.273 . S
Mg3 O5 1.936 . S
Mg3 O12 2.081 . S
Mg3 O14 2.023 1_556 S
Mg3 O18 2.031 1_655 S
Mg3 O27 2.291 1_656 S
Mg4 O5 1.963 . S
Mg4 O15 1.942 . S
Mg4 O16 1.955 1_556 S
Mg4 O23 1.986 1_545 S
O5 Mg3 1.936 . S
O5 Mg4 1.963 . S
O5 Mg6 1.915 1_656 S
Mg6 O5 1.915 1_454 S
Mg6 O7 1.915 1_545 S
Mg6 O11 2.012 1_445 S
Mg6 O17 2.115 1_554 S
Mg6 O21 2.012 1_444 S
Mg6 O27 2.115 . S
O7 Mg6 1.915 1_565 S
O7 Mg8 1.936 . S
O7 Mg9 1.963 . S
Mg8 O7 1.936 . S
Mg8 O17 2.291 1_564 S
Mg8 O22 2.081 . S
Mg8 O24 2.023 1_554 S
Mg8 O28 2.031 1_565 S
Mg9 O7 1.963 . S
Mg9 O13 1.986 1_455 S
Mg9 O25 1.942 . S
Mg9 O26 1.955 1_554 S
C10 O21 1.191 . S
C10 O23 1.307 . S
O11 Mg6 2.012 1_665 S
O11 C30 1.191 . S
O12 Mg3 2.081 . S
O12 C20 1.331 . S
O13 Mg9 1.986 1_655 S
O13 C30 1.307 . S
O14 Mg3 2.023 1_554 S
O14 C29 1.264 . S
O15 Mg4 1.942 . S
O15 C20 1.244 . S
O16 Mg4 1.955 1_554 S
O16 C29 1.273 . S
O17 Mg6 2.115 1_556 S
O17 Mg8 2.291 1_546 S
O17 C19 1.312 . S
O18 Mg3 2.031 1_455 S
O18 C19 1.208 . S
C19 O17 1.312 . S
C19 O18 1.208 . S
C20 O12 1.331 . S
C20 O15 1.244 . S
O21 Mg6 2.012 1_666 S
O21 C10 1.191 . S
O22 C1 1.331 . S
O22 Mg8 2.081 . S
O23 Mg4 1.986 1_565 S
O23 C10 1.307 . S
O24 C2 1.264 . S
O24 Mg8 2.023 1_556 S
O25 C1 1.244 . S
O25 Mg9 1.942 . S
O26 C2 1.273 . S
O26 Mg9 1.955 1_556 S
O27 C0 1.312 . S
O27 Mg3 2.291 1_454 S
O27 Mg6 2.115 . S
O28 C0 1.208 . S
O28 Mg8 2.031 1_545 S
C29 O14 1.264 . S
C29 O16 1.273 . S
C30 O11 1.191 . S
C30 O13 1.307 . S
Fe31 O32 1.886 . S
Fe31 O35 1.715 . S
Fe31 O40 2.077 . S
Fe31 O45 1.935 . S
Fe31 O51 2.077 . S
Fe31 O60 1.935 . S
O32 Fe31 1.886 . S
O32 Fe34 1.715 . S
Fe33 O35 1.886 . S
Fe33 O36 1.715 . S
Fe33 O43 1.935 . S
Fe33 O44 2.077 . S
Fe33 O50 1.935 . S
Fe33 O59 2.077 . S
Fe34 O32 1.715 . S
Fe34 O37 1.886 . S
Fe34 O41 1.935 . S
Fe34 O46 2.077 . S
Fe34 O52 1.935 . S
Fe34 O56 2.077 . S
O35 Fe31 1.715 . S
O35 Fe33 1.886 . S
O36 Fe33 1.715 . S
O36 Fe38 1.886 . S
O37 Fe34 1.886 . S
O37 Fe38 1.715 . S
Fe38 O36 1.886 . S
Fe38 O37 1.715 . S
Fe38 O42 2.077 . S
Fe38 O47 1.935 . S
Fe38 O49 2.077 . S
Fe38 O57 1.935 . S
C39 O51 1.381 . S
C39 O52 1.421 . S
O40 Fe31 2.077 . S
O40 C53 1.381 . S
O41 Fe34 1.935 . S
O41 C53 1.421 . S
O42 Fe38 2.077 . S
O42 C58 1.381 . S
O43 Fe33 1.935 . S
O43 C58 1.421 . S
O44 Fe33 2.077 . S
O44 C48 1.381 . S
O45 Fe31 1.935 . S
O45 C48 1.421 . S
O46 Fe34 2.077 . S
O46 C54 1.381 . S
O47 Fe38 1.935 . S
O47 C54 1.421 . S
C48 O44 1.381 . S
C48 O45 1.421 . S
O49 Fe38 2.077 . S
O49 C61 1.381 . S
O50 Fe33 1.935 . S
O50 C61 1.421 . S
O51 Fe31 2.077 . S
O51 C39 1.381 . S
O52 Fe34 1.935 . S
O52 C39 1.421 . S
C53 O40 1.381 . S
C53 O41 1.421 . S
C54 O46 1.381 . S
C54 O47 1.421 . S
C55 O56 1.381 . S
C55 O57 1.421 . S
O56 Fe34 2.077 . S
O56 C55 1.381 . S
O57 Fe38 1.935 . S
O57 C55 1.421 . S
C58 O42 1.381 . S
C58 O43 1.421 . S
O59 Fe33 2.077 . S
O59 C62 1.381 . S
O60 Fe31 1.935 . S
O60 C62 1.421 . S
C61 O49 1.381 . S
C61 O50 1.421 . S
C62 O59 1.381 . S
C62 O60 1.421 . S
H63 C64 0.951 . S
C64 H63 0.951 . S
C64 C70 1.265 . S
H65 C70 0.950 . S
H66 C74 0.949 . S
H67 C75 0.950 . S
H68 C76 0.951 . S
H69 C77 0.951 . S
C70 C64 1.265 . S
C70 H65 0.950 . S
C70 C71 1.478 . S
C71 C70 1.478 . S
C71 C72 1.397 . S
C71 C88 1.394 . S
C72 C71 1.397 . S
C72 C73 1.438 . S
C72 C77 1.429 . S
C73 C72 1.438 . S
C73 C74 1.428 . S
C73 C86 1.394 . S
C74 H66 0.949 . S
C74 C73 1.428 . S
C74 C75 1.345 . S
C75 H67 0.950 . S
C75 C74 1.345 . S
C75 C76 1.424 . S
C76 H68 0.951 . S
C76 C75 1.424 . S
C76 C77 1.347 . S
C77 H69 0.951 . S
C77 C72 1.429 . S
C77 C76 1.347 . S
H78 C79 0.951 . S
C79 H78 0.951 . S
C79 C85 1.265 . S
H80 C85 0.950 . S
H81 C89 0.949 . S
H82 C90 0.950 . S
H83 C91 0.951 . S
H84 C92 0.951 . S
C85 C79 1.265 . S
C85 H80 0.950 . S
C85 C86 1.478 . S
C86 C73 1.394 . S
C86 C85 1.478 . S
C86 C87 1.397 . S
C87 C86 1.397 . S
C87 C88 1.438 . S
C87 C92 1.429 . S
C88 C71 1.394 . S
C88 C87 1.438 . S
C88 C89 1.428 . S
C89 H81 0.949 . S
C89 C88 1.428 . S
C89 C90 1.345 . S
C90 H82 0.950 . S
C90 C89 1.345 . S
C90 C91 1.424 . S
C91 H83 0.951 . S
C91 C90 1.424 . S
C91 C92 1.347 . S
C92 H84 0.951 . S
C92 C87 1.429 . S
C92 C91 1.347 . S
H93 C94 0.951 . S
C94 H93 0.951 . S
C94 C100 1.265 . S
H95 C100 0.950 . S
H96 C104 0.949 . S
H97 C105 0.950 . S
H98 C106 0.951 . S
H99 C107 0.951 . S
C100 C94 1.265 . S
C100 H95 0.950 . S
C100 C101 1.478 . S
C101 C100 1.478 . S
C101 C102 1.397 . S
C101 C118 1.394 . S
C102 C101 1.397 . S
C102 C103 1.438 . S
C102 C107 1.429 . S
C103 C102 1.438 . S
C103 C104 1.428 . S
C103 C116 1.394 . S
C104 H96 0.949 . S
C104 C103 1.428 . S
C104 C105 1.345 . S
C105 H97 0.950 . S
C105 C104 1.345 . S
C105 C106 1.424 . S
C106 H98 0.951 . S
C106 C105 1.424 . S
C106 C107 1.347 . S
C107 H99 0.951 . S
C107 C102 1.429 . S
C107 C106 1.347 . S
H108 C109 0.951 . S
C109 H108 0.951 . S
C109 C115 1.265 . S
H110 C115 0.950 . S
H111 C119 0.949 . S
H112 C120 0.950 . S
H113 C121 0.951 . S
H114 C122 0.951 . S
C115 C109 1.265 . S
C115 H110 0.950 . S
C115 C116 1.478 . S
C116 C103 1.394 . S
C116 C115 1.478 . S
C116 C117 1.397 . S
C117 C116 1.397 . S
C117 C118 1.438 . S
C117 C122 1.429 . S
C118 C101 1.394 . S
C118 C117 1.438 . S
C118 C119 1.428 . S
C119 H111 0.949 . S
C119 C118 1.428 . S
C119 C120 1.345 . S
C120 H112 0.950 . S
C120 C119 1.345 . S
C120 C121 1.424 . S
C121 H113 0.951 . S
C121 C120 1.424 . S
C121 C122 1.347 . S
C122 H114 0.951 . S
C122 C117 1.429 . S
C122 C121 1.347 . S
H123 C124 0.951 . S
C124 H123 0.951 . S
C124 C130 1.265 . S
H125 C130 0.950 . S
H126 C134 0.949 . S
H127 C135 0.950 . S
H128 C136 0.951 . S
H129 C137 0.951 . S
C130 C124 1.265 . S
C130 H125 0.950 . S
C130 C131 1.478 . S
C131 C130 1.478 . S
C131 C132 1.397 . S
C131 C148 1.394 . S
C132 C131 1.397 . S
C132 C133 1.438 . S
C132 C137 1.429 . S
C133 C132 1.438 . S
C133 C134 1.428 . S
C133 C146 1.394 . S
C134 H126 0.949 . S
C134 C133 1.428 . S
C134 C135 1.345 . S
C135 H127 0.950 . S
C135 C134 1.345 . S
C135 C136 1.424 . S
C136 H128 0.951 . S
C136 C135 1.424 . S
C136 C137 1.347 . S
C137 H129 0.951 . S
C137 C132 1.429 . S
C137 C136 1.347 . S
H138 C139 0.951 . S
C139 H138 0.951 . S
C139 C145 1.265 . S
H140 C145 0.950 . S
H141 C149 0.949 . S
H142 C150 0.950 . S
H143 C151 0.951 . S
H144 C152 0.951 . S
C145 C139 1.265 . S
C145 H140 0.950 . S
C145 C146 1.478 . S
C146 C133 1.394 . S
C146 C145 1.478 . S
C146 C147 1.397 . S
C147 C146 1.397 . S
C147 C148 1.438 . S
C147 C152 1.429 . S
C148 C131 1.394 . S
C148 C147 1.438 . S
C148 C149 1.428 . S
C149 H141 0.949 . S
C149 C148 1.428 . S
C149 C150 1.345 . S
C150 H142 0.950 . S
C150 C149 1.345 . S
C150 C151 1.424 . S
C151 H143 0.951 . S
C151 C150 1.424 . S
C151 C152 1.347 . S
C152 H144 0.951 . S
C152 C147 1.429 . S
C152 C151 1.347 . S
H153 C154 0.951 . S
C154 H153 0.951 . S
C154 C160 1.265 . S
H155 C160 0.950 . S
H156 C164 0.949 . S
H157 C165 0.950 . S
H158 C166 0.951 . S
H159 C167 0.951 . S
C160 C154 1.265 . S
C160 H155 0.950 . S
C160 C161 1.478 . S
C161 C160 1.478 . S
C161 C162 1.397 . S
C161 C178 1.394 . S
C162 C161 1.397 . S
C162 C163 1.438 . S
C162 C167 1.429 . S
C163 C162 1.438 . S
C163 C164 1.428 . S
C163 C176 1.394 . S
C164 H156 0.949 . S
C164 C163 1.428 . S
C164 C165 1.345 . S
C165 H157 0.950 . S
C165 C164 1.345 . S
C165 C166 1.424 . S
C166 H158 0.951 . S
C166 C165 1.424 . S
C166 C167 1.347 . S
C167 H159 0.951 . S
C167 C162 1.429 . S
C167 C166 1.347 . S
H168 C169 0.951 . S
C169 H168 0.951 . S
C169 C175 1.265 . S
H170 C175 0.950 . S
H171 C179 0.949 . S
H172 C180 0.950 . S
H173 C181 0.951 . S
H174 C182 0.951 . S
C175 C169 1.265 . S
C175 H170 0.950 . S
C175 C176 1.478 . S
C176 C163 1.394 . S
C176 C175 1.478 . S
C176 C177 1.397 . S
C177 C176 1.397 . S
C177 C178 1.438 . S
C177 C182 1.429 . S
C178 C161 1.394 . S
C178 C177 1.438 . S
C178 C179 1.428 . S
C179 H171 0.949 . S
C179 C178 1.428 . S
C179 C180 1.345 . S
C180 H172 0.950 . S
C180 C179 1.345 . S
C180 C181 1.424 . S
C181 H173 0.951 . S
C181 C180 1.424 . S
C181 C182 1.347 . S
C182 H174 0.951 . S
C182 C177 1.429 . S
C182 C181 1.347 . S
H183 C184 0.951 . S
C184 H183 0.951 . S
C184 C190 1.265 . S
H185 C190 0.950 . S
H186 C194 0.949 . S
H187 C195 0.950 . S
H188 C196 0.951 . S
H189 C197 0.951 . S
C190 C184 1.265 . S
C190 H185 0.950 . S
C190 C191 1.478 . S
C191 C190 1.478 . S
C191 C192 1.397 . S
C191 C208 1.394 . S
C192 C191 1.397 . S
C192 C193 1.438 . S
C192 C197 1.429 . S
C193 C192 1.438 . S
C193 C194 1.428 . S
C193 C206 1.394 . S
C194 H186 0.949 . S
C194 C193 1.428 . S
C194 C195 1.345 . S
C195 H187 0.950 . S
C195 C194 1.345 . S
C195 C196 1.424 . S
C196 H188 0.951 . S
C196 C195 1.424 . S
C196 C197 1.347 . S
C197 H189 0.951 . S
C197 C192 1.429 . S
C197 C196 1.347 . S
H198 C199 0.951 . S
C199 H198 0.951 . S
C199 C205 1.265 . S
H200 C205 0.950 . S
H201 C209 0.949 . S
H202 C210 0.950 . S
H203 C211 0.951 . S
H204 C212 0.951 . S
C205 C199 1.265 . S
C205 H200 0.950 . S
C205 C206 1.478 . S
C206 C193 1.394 . S
C206 C205 1.478 . S
C206 C207 1.397 . S
C207 C206 1.397 . S
C207 C208 1.438 . S
C207 C212 1.429 . S
C208 C191 1.394 . S
C208 C207 1.438 . S
C208 C209 1.428 . S
C209 H201 0.949 . S
C209 C208 1.428 . S
C209 C210 1.345 . S
C210 H202 0.950 . S
C210 C209 1.345 . S
C210 C211 1.424 . S
C211 H203 0.951 . S
C211 C210 1.424 . S
C211 C212 1.347 . S
C212 H204 0.951 . S
C212 C207 1.429 . S
C212 C211 1.347 . S
H213 C214 0.951 . S
C214 H213 0.951 . S
C214 C220 1.265 . S
H215 C220 0.950 . S
H216 C224 0.949 . S
H217 C225 0.950 . S
H218 C226 0.951 . S
H219 C227 0.951 . S
C220 C214 1.265 . S
C220 H215 0.950 . S
C220 C221 1.478 . S
C221 C220 1.478 . S
C221 C222 1.397 . S
C221 C238 1.394 . S
C222 C221 1.397 . S
C222 C223 1.438 . S
C222 C227 1.429 . S
C223 C222 1.438 . S
C223 C224 1.428 . S
C223 C236 1.394 . S
C224 H216 0.949 . S
C224 C223 1.428 . S
C224 C225 1.345 . S
C225 H217 0.950 . S
C225 C224 1.345 . S
C225 C226 1.424 . S
C226 H218 0.951 . S
C226 C225 1.424 . S
C226 C227 1.347 . S
C227 H219 0.951 . S
C227 C222 1.429 . S
C227 C226 1.347 . S
H228 C229 0.951 . S
C229 H228 0.951 . S
C229 C235 1.265 . S
H230 C235 0.950 . S
H231 C239 0.949 . S
H232 C240 0.950 . S
H233 C241 0.951 . S
H234 C242 0.951 . S
C235 C229 1.265 . S
C235 H230 0.950 . S
C235 C236 1.478 . S
C236 C223 1.394 . S
C236 C235 1.478 . S
C236 C237 1.397 . S
C237 C236 1.397 . S
C237 C238 1.438 . S
C237 C242 1.429 . S
C238 C221 1.394 . S
C238 C237 1.438 . S
C238 C239 1.428 . S
C239 H231 0.949 . S
C239 C238 1.428 . S
C239 C240 1.345 . S
C240 H232 0.950 . S
C240 C239 1.345 . S
C240 C241 1.424 . S
C241 H233 0.951 . S
C241 C240 1.424 . S
C241 C242 1.347 . S
C242 H234 0.951 . S
C242 C237 1.429 . S
C242 C241 1.347 . S
H243 C244 0.951 . S
C244 H243 0.951 . S
C244 C250 1.265 . S
H245 C250 0.950 . S
H246 C254 0.949 . S
H247 C255 0.950 . S
H248 C256 0.951 . S
H249 C257 0.951 . S
C250 C244 1.265 . S
C250 H245 0.950 . S
C250 C251 1.478 . S
C251 C250 1.478 . S
C251 C252 1.397 . S
C251 C268 1.394 . S
C252 C251 1.397 . S
C252 C253 1.438 . S
C252 C257 1.429 . S
C253 C252 1.438 . S
C253 C254 1.428 . S
C253 C266 1.394 . S
C254 H246 0.949 . S
C254 C253 1.428 . S
C254 C255 1.345 . S
C255 H247 0.950 . S
C255 C254 1.345 . S
C255 C256 1.424 . S
C256 H248 0.951 . S
C256 C255 1.424 . S
C256 C257 1.347 . S
C257 H249 0.951 . S
C257 C252 1.429 . S
C257 C256 1.347 . S
H258 C259 0.951 . S
C259 H258 0.951 . S
C259 C265 1.265 . S
H260 C265 0.950 . S
H261 C269 0.949 . S
H262 C270 0.950 . S
H263 C271 0.951 . S
H264 C272 0.951 . S
C265 C259 1.265 . S
C265 H260 0.950 . S
C265 C266 1.478 . S
C266 C253 1.394 . S
C266 C265 1.478 . S
C266 C267 1.397 . S
C267 C266 1.397 . S
C267 C268 1.438 . S
C267 C272 1.429 . S
C268 C251 1.394 . S
C268 C267 1.438 . S
C268 C269 1.428 . S
C269 H261 0.949 . S
C269 C268 1.428 . S
C269 C270 1.345 . S
C270 H262 0.950 . S
C270 C269 1.345 . S
C270 C271 1.424 . S
C271 H263 0.951 . S
C271 C270 1.424 . S
C271 C272 1.347 . S
C272 H264 0.951 . S
C272 C267 1.429 . S
C272 C271 1.347 . S
H273 C274 0.951 . S
C274 H273 0.951 . S
C274 C280 1.265 . S
H275 C280 0.950 . S
H276 C284 0.949 . S
H277 C285 0.950 . S
H278 C286 0.951 . S
H279 C287 0.951 . S
C280 C274 1.265 . S
C280 H275 0.950 . S
C280 C281 1.478 . S
C281 C280 1.478 . S
C281 C282 1.397 . S
C281 C298 1.394 . S
C282 C281 1.397 . S
C282 C283 1.438 . S
C282 C287 1.429 . S
C283 C282 1.438 . S
C283 C284 1.428 . S
C283 C296 1.394 . S
C284 H276 0.949 . S
C284 C283 1.428 . S
C284 C285 1.345 . S
C285 H277 0.950 . S
C285 C284 1.345 . S
C285 C286 1.424 . S
C286 H278 0.951 . S
C286 C285 1.424 . S
C286 C287 1.347 . S
C287 H279 0.951 . S
C287 C282 1.429 . S
C287 C286 1.347 . S
H288 C289 0.951 . S
C289 H288 0.951 . S
C289 C295 1.265 . S
H290 C295 0.950 . S
H291 C299 0.949 . S
H292 C300 0.950 . S
H293 C301 0.951 . S
H294 C302 0.951 . S
C295 C289 1.265 . S
C295 H290 0.950 . S
C295 C296 1.478 . S
C296 C283 1.394 . S
C296 C295 1.478 . S
C296 C297 1.397 . S
C297 C296 1.397 . S
C297 C298 1.438 . S
C297 C302 1.429 . S
C298 C281 1.394 . S
C298 C297 1.438 . S
C298 C299 1.428 . S
C299 H291 0.949 . S
C299 C298 1.428 . S
C299 C300 1.345 . S
C300 H292 0.950 . S
C300 C299 1.345 . S
C300 C301 1.424 . S
C301 H293 0.951 . S
C301 C300 1.424 . S
C301 C302 1.347 . S
C302 H294 0.951 . S
C302 C297 1.429 . S
C302 C301 1.347 . S
C64 C0 1.283 . S
C79 C54 1.331 . S
C94 C29 1.594 . S
C109 C58 1.564 . S
C124 C30 1.314 . S
C139 C48 1.339 . S
C154 C1 1.513 . S
C169 C53 1.480 . S
C184 C2 1.617 . S
C199 C39 1.609 . S
C229 C55 1.355 . S
C214 C19 1.307 . S
C244 C20 1.496 . S
C259 C61 1.484 . S
C289 C62 1.327 . S
C274 C10 1.360 . S
