# Generated by pormake.
# Topology iac, (4,6)-cn, num edge types: 1
# Building blocks:
#     Node 0, Type 0, BuildingBlock: CEKHIL_clean_sbu_0, # of connection points: 4
#     Node 1, Type 0, BuildingBlock: CEKHIL_clean_sbu_0, # of connection points: 4
#     Node 2, Type 0, BuildingBlock: CEKHIL_clean_sbu_0, # of connection points: 4
#     Node 3, Type 0, BuildingBlock: CEKHIL_clean_sbu_0, # of connection points: 4
#     Node 4, Type 0, BuildingBlock: CEKHIL_clean_sbu_0, # of connection points: 4
#     Node 5, Type 0, BuildingBlock: CEKHIL_clean_sbu_0, # of connection points: 4
#     Node 6, Type 0, BuildingBlock: CEKHIL_clean_sbu_0, # of connection points: 4
#     Node 7, Type 0, BuildingBlock: CEKHIL_clean_sbu_0, # of connection points: 4
#     Node 8, Type 0, BuildingBlock: CEKHIL_clean_sbu_0, # of connection points: 4
#     Node 9, Type 0, BuildingBlock: CEKHIL_clean_sbu_0, # of connection points: 4
#     Node 10, Type 0, BuildingBlock: CEKHIL_clean_sbu_0, # of connection points: 4
#     Node 11, Type 0, BuildingBlock: CEKHIL_clean_sbu_0, # of connection points: 4
#     Node 12, Type 0, BuildingBlock: CEKHIL_clean_sbu_0, # of connection points: 4
#     Node 13, Type 0, BuildingBlock: CEKHIL_clean_sbu_0, # of connection points: 4
#     Node 14, Type 0, BuildingBlock: CEKHIL_clean_sbu_0, # of connection points: 4
#     Node 15, Type 0, BuildingBlock: CEKHIL_clean_sbu_0, # of connection points: 4
#     Node 16, Type 0, BuildingBlock: CEKHIL_clean_sbu_0, # of connection points: 4
#     Node 17, Type 0, BuildingBlock: CEKHIL_clean_sbu_0, # of connection points: 4
#     Node 18, Type 0, BuildingBlock: CEKHIL_clean_sbu_0, # of connection points: 4
#     Node 19, Type 0, BuildingBlock: CEKHIL_clean_sbu_0, # of connection points: 4
#     Node 20, Type 0, BuildingBlock: CEKHIL_clean_sbu_0, # of connection points: 4
#     Node 21, Type 0, BuildingBlock: CEKHIL_clean_sbu_0, # of connection points: 4
#     Node 22, Type 0, BuildingBlock: CEKHIL_clean_sbu_0, # of connection points: 4
#     Node 23, Type 0, BuildingBlock: CEKHIL_clean_sbu_0, # of connection points: 4
#     Node 24, Type 1, BuildingBlock: LEVNOQ01_clean_sbu_1, # of connection points: 6
#     Node 25, Type 1, BuildingBlock: LEVNOQ01_clean_sbu_1, # of connection points: 6
#     Node 26, Type 1, BuildingBlock: LEVNOQ01_clean_sbu_1, # of connection points: 6
#     Node 27, Type 1, BuildingBlock: LEVNOQ01_clean_sbu_1, # of connection points: 6
#     Node 28, Type 1, BuildingBlock: LEVNOQ01_clean_sbu_1, # of connection points: 6
#     Node 29, Type 1, BuildingBlock: LEVNOQ01_clean_sbu_1, # of connection points: 6
#     Node 30, Type 1, BuildingBlock: LEVNOQ01_clean_sbu_1, # of connection points: 6
#     Node 31, Type 1, BuildingBlock: LEVNOQ01_clean_sbu_1, # of connection points: 6
#     Node 32, Type 1, BuildingBlock: LEVNOQ01_clean_sbu_1, # of connection points: 6
#     Node 33, Type 1, BuildingBlock: LEVNOQ01_clean_sbu_1, # of connection points: 6
#     Node 34, Type 1, BuildingBlock: LEVNOQ01_clean_sbu_1, # of connection points: 6
#     Node 35, Type 1, BuildingBlock: LEVNOQ01_clean_sbu_1, # of connection points: 6
#     Node 36, Type 1, BuildingBlock: LEVNOQ01_clean_sbu_1, # of connection points: 6
#     Node 37, Type 1, BuildingBlock: LEVNOQ01_clean_sbu_1, # of connection points: 6
#     Node 38, Type 1, BuildingBlock: LEVNOQ01_clean_sbu_1, # of connection points: 6
#     Node 39, Type 1, BuildingBlock: LEVNOQ01_clean_sbu_1, # of connection points: 6
#     Edge 40, Type (0, 1), None
#     Edge 41, Type (0, 1), None
#     Edge 42, Type (0, 1), None
#     Edge 43, Type (0, 1), None
#     Edge 44, Type (0, 1), None
#     Edge 45, Type (0, 1), None
#     Edge 46, Type (0, 1), None
#     Edge 47, Type (0, 1), None
#     Edge 48, Type (0, 1), None
#     Edge 49, Type (0, 1), None
#     Edge 50, Type (0, 1), None
#     Edge 51, Type (0, 1), None
#     Edge 52, Type (0, 1), None
#     Edge 53, Type (0, 1), None
#     Edge 54, Type (0, 1), None
#     Edge 55, Type (0, 1), None
#     Edge 56, Type (0, 1), None
#     Edge 57, Type (0, 1), None
#     Edge 58, Type (0, 1), None
#     Edge 59, Type (0, 1), None
#     Edge 60, Type (0, 1), None
#     Edge 61, Type (0, 1), None
#     Edge 62, Type (0, 1), None
#     Edge 63, Type (0, 1), None
#     Edge 64, Type (0, 1), None
#     Edge 65, Type (0, 1), None
#     Edge 66, Type (0, 1), None
#     Edge 67, Type (0, 1), None
#     Edge 68, Type (0, 1), None
#     Edge 69, Type (0, 1), None
#     Edge 70, Type (0, 1), None
#     Edge 71, Type (0, 1), None
#     Edge 72, Type (0, 1), None
#     Edge 73, Type (0, 1), None
#     Edge 74, Type (0, 1), None
#     Edge 75, Type (0, 1), None
#     Edge 76, Type (0, 1), None
#     Edge 77, Type (0, 1), None
#     Edge 78, Type (0, 1), None
#     Edge 79, Type (0, 1), None
#     Edge 80, Type (0, 1), None
#     Edge 81, Type (0, 1), None
#     Edge 82, Type (0, 1), None
#     Edge 83, Type (0, 1), None
#     Edge 84, Type (0, 1), None
#     Edge 85, Type (0, 1), None
#     Edge 86, Type (0, 1), None
#     Edge 87, Type (0, 1), None
#     Edge 88, Type (0, 1), None
#     Edge 89, Type (0, 1), None
#     Edge 90, Type (0, 1), None
#     Edge 91, Type (0, 1), None
#     Edge 92, Type (0, 1), None
#     Edge 93, Type (0, 1), None
#     Edge 94, Type (0, 1), None
#     Edge 95, Type (0, 1), None
#     Edge 96, Type (0, 1), None
#     Edge 97, Type (0, 1), None
#     Edge 98, Type (0, 1), None
#     Edge 99, Type (0, 1), None
#     Edge 100, Type (0, 1), None
#     Edge 101, Type (0, 1), None
#     Edge 102, Type (0, 1), None
#     Edge 103, Type (0, 1), None
#     Edge 104, Type (0, 1), None
#     Edge 105, Type (0, 1), None
#     Edge 106, Type (0, 1), None
#     Edge 107, Type (0, 1), None
#     Edge 108, Type (0, 1), None
#     Edge 109, Type (0, 1), None
#     Edge 110, Type (0, 1), None
#     Edge 111, Type (0, 1), None
#     Edge 112, Type (0, 1), None
#     Edge 113, Type (0, 1), None
#     Edge 114, Type (0, 1), None
#     Edge 115, Type (0, 1), None
#     Edge 116, Type (0, 1), None
#     Edge 117, Type (0, 1), None
#     Edge 118, Type (0, 1), None
#     Edge 119, Type (0, 1), None
#     Edge 120, Type (0, 1), None
#     Edge 121, Type (0, 1), None
#     Edge 122, Type (0, 1), None
#     Edge 123, Type (0, 1), None
#     Edge 124, Type (0, 1), None
#     Edge 125, Type (0, 1), None
#     Edge 126, Type (0, 1), None
#     Edge 127, Type (0, 1), None
#     Edge 128, Type (0, 1), None
#     Edge 129, Type (0, 1), None
#     Edge 130, Type (0, 1), None
#     Edge 131, Type (0, 1), None
#     Edge 132, Type (0, 1), None
#     Edge 133, Type (0, 1), None
#     Edge 134, Type (0, 1), None
#     Edge 135, Type (0, 1), None
# Relax obj value: 0.093
# Max RMSD: 0.167
# Mean RMSD: 0.088
data_MOF--net-iac--node1-CEKHIL_clean_sbu_0--node2-LEVNOQ01_clean_sbu_1--edge1-none
_symmetry_space_group_name_H-M    P1
_symmetry_Int_Tables_number       1
_symmetry_cell_setting            triclinic
loop_
_symmetry_equiv_pos_as_xyz
'x, y, z'
_cell_length_a     25.577049
_cell_length_b     24.842434
_cell_length_c     24.313136
_cell_angle_alpha  89.504746
_cell_angle_beta   89.48027
_cell_angle_gamma 89.680613
loop_
_atom_site_label
_atom_site_type_symbol
_atom_site_fract_x
_atom_site_fract_y
_atom_site_fract_z
_atom_type_partial_charge
Co0 Co 0.98888 0.25405 0.12377 0.0
O1 O 0.91289 0.25067 0.12086 0.0
O2 O 0.96003 0.23879 0.1955 0.0
C3 C 0.0057 0.32856 0.07021 0.0
O4 O 0.06663 0.25652 0.14793 0.0
Co5 Co 0.05796 0.23313 0.0225 0.0
O6 O 0.11642 0.25356 0.07165 0.0
C7 C 0.98583 0.15002 0.05903 0.0
C8 C 0.91465 0.23597 0.17248 0.0
C9 C 0.11134 0.26116 0.12327 0.0
O10 O 0.98742 0.17319 0.1065 0.0
O11 O 0.00937 0.16989 0.01707 0.0
O12 O 0.99036 0.33384 0.12126 0.0
O13 O 0.00308 0.27986 0.05241 0.0
Co14 Co 0.00526 0.76581 0.37297 0.0
O15 O 0.07589 0.75016 0.39447 0.0
O16 O 0.04841 0.75573 0.30812 0.0
C17 C 0.98471 0.83211 0.43027 0.0
O18 O 0.93736 0.78171 0.33493 0.0
Co19 Co 0.91049 0.7486 0.4539 0.0
O20 O 0.87037 0.78682 0.39539 0.0
C21 C 0.98635 0.66398 0.4239 0.0
C22 C 0.08561 0.7439 0.34222 0.0
C23 C 0.89003 0.79424 0.34753 0.0
O24 O -0.00764 0.68739 0.37728 0.0
O25 O 0.95745 0.68361 0.46215 0.0
O26 O 0.01225 0.84296 0.38601 0.0
O27 O 0.9776 0.78226 0.44148 0.0
Co28 Co 0.48883 0.75408 0.62349 0.0
O29 O 0.41283 0.75075 0.62067 0.0
O30 O 0.46005 0.73879 0.69525 0.0
C31 C 0.50572 0.82862 0.56998 0.0
O32 O 0.56658 0.75647 0.64758 0.0
Co33 Co 0.55779 0.73313 0.52214 0.0
O34 O 0.61631 0.75348 0.57126 0.0
C35 C 0.48571 0.65004 0.55876 0.0
C36 C 0.41464 0.73601 0.67228 0.0
C37 C 0.61127 0.76107 0.62287 0.0
O38 O 0.48734 0.67323 0.60622 0.0
O39 O 0.50919 0.66989 0.51676 0.0
O40 O 0.49038 0.83387 0.62103 0.0
O41 O 0.50301 0.77995 0.55214 0.0
Co42 Co 0.50468 0.26533 0.87321 0.0
O43 O 0.57542 0.25027 0.89474 0.0
O44 O 0.548 0.25573 0.80836 0.0
C45 C 0.48342 0.33139 0.93072 0.0
O46 O 0.43684 0.28076 0.83501 0.0
Co47 Co 0.40978 0.24732 0.95376 0.0
O48 O 0.36983 0.28595 0.8954 0.0
C49 C 0.48659 0.16345 0.92402 0.0
C50 C 0.58525 0.24415 0.84248 0.0
C51 C 0.38957 0.29348 0.8476 0.0
O52 O 0.49245 0.18682 0.87737 0.0
O53 O 0.4574 0.18286 0.96215 0.0
O54 O 0.51091 0.34249 0.88648 0.0
O55 O 0.4767 0.28146 0.9418 0.0
Co56 Co 0.12565 0.9712 0.27071 0.0
O57 O 0.1197 0.8942 0.25644 0.0
O58 O 0.19286 0.93838 0.27027 0.0
C59 C 0.06172 0.98891 0.33273 0.0
O60 O 0.15483 0.04522 0.28693 0.0
Co61 Co 0.0496 0.0627 0.24308 0.0
O62 O 0.10203 0.11536 0.27161 0.0
C63 C 0.08225 0.98504 0.15961 0.0
C64 C 0.17094 0.89482 0.25416 0.0
C65 C 0.14541 0.09587 0.28791 0.0
O66 O 0.12524 0.97946 0.18689 0.0
O67 O 0.04408 0.01277 0.17876 0.0
O68 O 0.10508 0.96624 0.34948 0.0
O69 O 0.0566 -0.00726 0.28039 0.0
Co70 Co 0.23921 0.87785 0.47622 0.0
O71 O 0.1703 0.8519 0.49287 0.0
O72 O 0.19241 0.93817 0.48416 0.0
C73 C 0.26059 0.82006 0.40976 0.0
O74 O 0.30528 0.91935 0.45909 0.0
Co75 Co 0.33744 0.80576 0.49474 0.0
O76 O 0.37454 0.86359 0.45317 0.0
C77 C 0.26441 0.83614 0.58451 0.0
C78 C 0.1574 0.9024 0.49719 0.0
C79 C 0.35338 0.90979 0.44666 0.0
O80 O 0.25166 0.87823 0.55706 0.0
O81 O 0.29547 0.8001 0.56529 0.0
O82 O 0.23239 0.86242 0.39789 0.0
O83 O 0.2696 0.81167 0.46098 0.0
Co84 Co 0.37288 0.01326 0.76562 0.0
O85 O 0.39821 0.08503 0.75058 0.0
O86 O 0.31462 0.06219 0.75859 0.0
C87 C 0.42727 0.9887 0.83236 0.0
O88 O 0.33299 0.9446 0.78113 0.0
Co89 Co 0.44363 0.91207 0.74596 0.0
O90 O 0.38779 0.87364 0.78757 0.0
C91 C 0.41139 0.98694 0.65658 0.0
C92 C 0.34925 0.09886 0.74717 0.0
C93 C 0.34269 0.89505 0.79346 0.0
O94 O 0.37176 0.00164 0.68494 0.0
O95 O 0.44664 0.95488 0.67518 0.0
O96 O 0.38665 0.01857 0.84393 0.0
O97 O 0.4371 0.98114 0.78108 0.0
Co98 Co 0.26725 0.11875 0.97468 0.0
O99 O 0.34286 0.12536 0.98399 0.0
O100 O 0.29915 0.04975 0.97722 0.0
C101 C 0.24497 0.17897 0.90783 0.0
O102 O 0.1953 0.08711 0.96603 0.0
Co103 Co 0.17813 0.19709 0.00148 0.0
O104 O 0.12654 0.14045 0.98089 0.0
C105 C 0.25731 0.16866 0.08416 0.0
C106 C 0.34222 0.07274 0.98967 0.0
C107 C 0.14592 0.09544 0.96634 0.0
O108 O 0.26449 0.12377 0.05875 0.0
O109 O 0.22799 0.2055 0.06419 0.0
O110 O 0.26781 0.13356 0.89503 0.0
O111 O 0.2439 0.18932 0.95974 0.0
Co112 Co 0.73871 0.37813 0.9766 0.0
O113 O 0.66987 0.35219 -0.00666 0.0
O114 O 0.69188 0.43849 0.98475 0.0
C115 C 0.75995 0.32047 0.90999 0.0
O116 O 0.80481 0.41956 0.95935 0.0
Co117 Co 0.83694 0.30574 -0.00526 0.0
O118 O 0.87392 0.3636 0.95309 0.0
C119 C 0.76418 0.33613 0.08474 0.0
C120 C 0.6569 0.40268 -0.00237 0.0
C121 C 0.85286 0.40986 0.94673 0.0
O122 O 0.7514 0.37829 0.05741 0.0
O123 O 0.79515 0.30008 0.06539 0.0
O124 O 0.73167 0.3628 0.89825 0.0
O125 O 0.76904 0.312 0.96118 0.0
Co126 Co 0.8725 0.51338 0.26563 0.0
O127 O 0.89791 0.58513 0.25097 0.0
O128 O 0.81425 0.56232 0.25861 0.0
C129 C 0.92671 0.48867 0.33246 0.0
O130 O 0.83262 0.44467 0.28082 0.0
Co131 Co 0.94337 0.41236 0.24582 0.0
O132 O 0.88762 0.37391 0.28757 0.0
C133 C 0.91126 0.48734 0.15648 0.0
C134 C 0.84897 0.599 0.24747 0.0
C135 C 0.84246 0.3952 0.29335 0.0
O136 O 0.87164 0.50208 0.18484 0.0
O137 O 0.94646 0.4552 0.17508 0.0
O138 O 0.88603 0.51846 0.34402 0.0
O139 O 0.93668 0.48128 0.28118 0.0
Co140 Co 0.7672 0.61871 0.4747 0.0
O141 O 0.84279 0.62541 0.48399 0.0
O142 O 0.79915 0.54973 0.47734 0.0
C143 C 0.74493 0.67887 0.40781 0.0
O144 O 0.69525 0.58704 0.46609 0.0
Co145 Co 0.67808 0.69705 0.50145 0.0
O146 O 0.62649 0.64038 0.48095 0.0
C147 C 0.75737 0.66879 0.58406 0.0
C148 C 0.8422 0.5728 0.48975 0.0
C149 C 0.64587 0.59537 0.46642 0.0
O150 O 0.76445 0.62383 0.55877 0.0
O151 O 0.7281 0.70563 0.564 0.0
O152 O 0.76774 0.63345 0.39505 0.0
O153 O 0.74385 0.68925 0.45971 0.0
Co154 Co 0.62594 0.47125 0.77046 0.0
O155 O 0.61992 0.39428 0.75632 0.0
O156 O 0.69314 0.43851 0.76985 0.0
C157 C 0.56221 0.48881 0.83261 0.0
O158 O 0.65505 0.54533 0.78656 0.0
Co159 Co 0.54963 0.56262 0.74302 0.0
O160 O 0.602 0.61535 0.77157 0.0
C161 C 0.58219 0.48495 0.65953 0.0
C162 C 0.67115 0.39492 0.7539 0.0
C163 C 0.64548 0.59595 0.78769 0.0
O164 O 0.62527 0.47948 0.68667 0.0
O165 O 0.54402 0.51263 0.67876 0.0
O166 O 0.60568 0.46626 0.84926 0.0
O167 O 0.55693 0.49266 0.78029 0.0
Co168 Co 0.02436 0.74629 0.86792 0.0
O169 O 0.0997 0.75186 0.87471 0.0
O170 O 0.05977 0.72925 0.79925 0.0
C171 C 0.01775 0.82973 0.91014 0.0
O172 O 0.94915 0.73619 0.83924 0.0
Co173 Co 0.94296 0.75553 0.9624 0.0
O174 O 0.88906 0.73766 0.90706 0.0
C175 C 0.00588 0.66349 0.94759 0.0
C176 C 0.10258 0.74561 0.82187 0.0
C177 C 0.90191 0.72965 0.85702 0.0
O178 O 0.02104 0.66978 0.89739 0.0
O179 O 0.00379 0.70553 0.97695 0.0
O180 O 0.02308 0.8247 0.85731 0.0
O181 O 0.00982 0.78428 0.93528 0.0
Co182 Co 0.98552 0.25537 0.62926 0.0
O183 O 0.91366 0.25716 0.60971 0.0
O184 O 0.94282 0.22946 0.69072 0.0
C185 C 0.98914 0.34021 0.59809 0.0
O186 O 0.05506 0.24812 0.66708 0.0
Co187 Co 0.07783 0.27976 0.55523 0.0
O188 O 0.11983 0.23646 0.60715 0.0
C189 C 0.02635 0.17343 0.55263 0.0
C190 C 0.90373 0.24535 0.66068 0.0
C191 C 0.09897 0.22669 0.65362 0.0
O192 O -0.00291 0.18364 0.59465 0.0
O193 O 0.05566 0.20801 0.52865 0.0
O194 O 0.97841 0.3295 0.64913 0.0
O195 O 0.00526 0.30069 0.56803 0.0
Co196 Co 0.52436 0.24616 0.3681 0.0
O197 O 0.59969 0.25171 0.37491 0.0
O198 O 0.55977 0.229 0.29946 0.0
C199 C 0.51773 0.32966 0.41017 0.0
O200 O 0.44915 0.23604 0.33946 0.0
Co201 Co 0.44298 0.25559 0.46264 0.0
O202 O 0.3891 0.23763 0.40732 0.0
C203 C 0.50591 0.16356 0.44793 0.0
C204 C 0.60258 0.24539 0.32208 0.0
C205 C 0.40193 0.22953 0.3573 0.0
O206 O 0.52104 0.16972 0.39771 0.0
O207 O 0.50387 0.20567 0.47719 0.0
O208 O 0.5231 0.32455 0.35736 0.0
O209 O 0.50982 0.28425 0.43539 0.0
Co210 Co 0.48553 0.75507 0.12929 0.0
O211 O 0.41363 0.75695 0.10997 0.0
O212 O 0.443 0.72952 0.191 0.0
C213 C 0.48914 0.83981 0.09779 0.0
O214 O 0.55517 0.74784 0.1669 0.0
Co215 Co 0.57762 0.77911 0.05493 0.0
O216 O 0.61994 0.7363 0.10692 0.0
C217 C 0.526 0.67274 0.05293 0.0
C218 C 0.40386 0.74536 0.16102 0.0
C219 C 0.59918 0.72663 0.15345 0.0
O220 O 0.49679 0.68313 0.09494 0.0
O221 O 0.55545 0.70718 0.02893 0.0
O222 O 0.47863 0.82929 0.14892 0.0
O223 O 0.5051 0.80017 0.06781 0.0
Co224 Co 0.86995 0.02337 0.74352 0.0
O225 O 0.87778 0.09944 0.75504 0.0
O226 O 0.80974 0.06262 0.71623 0.0
C227 C 0.89333 0.00701 0.83258 0.0
O228 O 0.84339 0.94838 0.72559 0.0
Co229 Co 0.95344 0.93322 0.76497 0.0
O230 O 0.89679 0.88022 0.74826 0.0
C231 C 0.95664 0.00436 0.67382 0.0
C232 C 0.82881 0.10372 0.74177 0.0
C233 C 0.85338 0.8978 0.72952 0.0
O234 O 0.90989 0.02319 0.67137 0.0
O235 O 0.97586 -0.00061 0.72155 0.0
O236 O 0.84545 0.01736 0.81923 0.0
O237 O 0.92591 0.00209 0.79191 0.0
Co238 Co 0.75977 0.10212 0.48653 0.0
O239 O 0.83146 0.12076 0.49009 0.0
O240 O 0.79775 0.04431 0.52188 0.0
C241 C 0.75942 0.12503 0.39691 0.0
O242 O 0.69029 0.06604 0.48924 0.0
Co243 Co 0.66892 0.17302 0.4505 0.0
O244 O 0.62653 0.12522 0.49896 0.0
C245 C 0.71442 0.18455 0.56119 0.0
C246 C 0.83872 0.07147 0.50666 0.0
C247 C 0.6478 0.08085 0.51258 0.0
O248 O 0.74258 0.14165 0.5563 0.0
O249 O 0.68831 0.20567 0.52188 0.0
O250 O 0.77293 0.07704 0.41259 0.0
O251 O 0.74234 0.15726 0.43449 0.0
Co252 Co 0.62584 0.98882 0.2569 0.0
O253 O 0.59572 0.91958 0.26922 0.0
O254 O 0.67079 0.93491 0.22501 0.0
C255 C 0.61223 0.00268 0.3459 0.0
O256 O 0.67104 0.05226 0.23694 0.0
Co257 Co 0.57296 0.0945 0.28249 0.0
O258 O 0.62225 0.12591 0.22847 0.0
C259 C 0.54608 0.03505 0.18308 0.0
C260 C 0.63934 0.90116 0.24948 0.0
C261 C 0.66274 0.09884 0.21581 0.0
O262 O 0.58405 0.00155 0.18929 0.0
O263 O 0.53191 0.06951 0.21892 0.0
O264 O 0.6563 0.98322 0.32836 0.0
O265 O 0.58011 0.02108 0.30942 0.0
Co266 Co 0.72052 0.87807 0.00685 0.0
O267 O 0.64506 0.87867 0.00096 0.0
O268 O 0.69352 0.94891 0.02052 0.0
C269 C 0.73087 0.82907 0.92819 0.0
O270 O 0.79638 0.89831 0.01525 0.0
Co271 Co 0.80115 0.77915 0.00537 0.0
O272 O 0.85843 0.8346 0.00874 0.0
C273 C 0.7374 0.80751 0.09509 0.0
C274 C 0.64855 0.93078 0.00561 0.0
C275 C 0.84437 0.88327 0.01735 0.0
O276 O 0.7215 0.85594 0.08672 0.0
O277 O 0.73661 0.77661 0.05382 0.0
O278 O 0.72313 0.88078 0.92507 0.0
O279 O 0.73479 0.80951 0.97724 0.0
Co280 Co 0.25919 0.60262 0.98578 0.0
O281 O 0.33069 0.62166 0.98841 0.0
O282 O 0.29755 0.54496 0.02068 0.0
C283 C 0.25832 0.62529 0.89626 0.0
O284 O 0.18992 0.5663 0.98926 0.0
Co285 Co 0.16817 0.67334 0.95065 0.0
O286 O 0.12614 0.62541 -0.00069 0.0
C287 C 0.21447 0.68501 0.06086 0.0
C288 C 0.33815 0.5723 0.0046 0.0
C289 C 0.14747 0.58102 0.01272 0.0
O290 O 0.24259 0.64213 0.05569 0.0
O291 O 0.18808 0.70615 0.02179 0.0
O292 O 0.27173 0.57728 0.9119 0.0
O293 O 0.24141 0.65765 0.93384 0.0
Co294 Co 0.12603 0.48843 0.7564 0.0
O295 O 0.09568 0.41925 0.76803 0.0
O296 O 0.17102 0.43463 0.72433 0.0
C297 C 0.11215 0.50167 0.84552 0.0
O298 O 0.17136 0.55199 0.73713 0.0
Co299 Co 0.07314 0.59398 0.78285 0.0
O300 O 0.12248 0.62563 0.72904 0.0
C301 C 0.04649 0.53529 0.68279 0.0
C302 C 0.13939 0.40084 0.74852 0.0
C303 C 0.16296 0.59863 0.71616 0.0
O304 O 0.0845 0.50178 0.68872 0.0
O305 O 0.03225 0.56938 0.71898 0.0
O306 O 0.1562 0.48216 0.828 0.0
O307 O 0.08019 0.52032 0.80904 0.0
Co308 Co 0.22036 0.37875 0.50687 0.0
O309 O 0.1449 0.37957 0.50107 0.0
O310 O 0.19362 0.44984 0.51986 0.0
C311 C 0.23058 0.3291 0.42857 0.0
O312 O 0.29629 0.39871 0.51506 0.0
Co313 Co 0.30039 0.27933 0.50638 0.0
O314 O 0.35797 0.33454 0.50918 0.0
C315 C 0.23687 0.3088 0.59576 0.0
C316 C 0.14855 0.4317 0.50522 0.0
C317 C 0.34418 0.38338 0.51732 0.0
O318 O 0.22139 0.35731 0.58698 0.0
O319 O 0.23574 0.27762 0.55474 0.0
O320 O 0.22298 0.38081 0.42508 0.0
O321 O 0.23431 0.30987 0.47778 0.0
Co322 Co 0.37108 0.52312 0.24387 0.0
O323 O 0.37905 0.59918 0.25549 0.0
O324 O 0.31155 0.56277 0.21535 0.0
C325 C 0.39313 0.50684 0.3331 0.0
O326 O 0.34451 0.44824 0.22525 0.0
Co327 Co 0.45331 0.43117 0.2684 0.0
O328 O 0.39665 0.37929 0.24913 0.0
C329 C 0.4588 0.50289 0.17755 0.0
C330 C 0.33031 0.60373 0.24139 0.0
C331 C 0.35397 0.39753 0.22926 0.0
O332 O 0.41267 0.52282 0.17312 0.0
O333 O 0.47635 0.49747 0.226 0.0
O334 O 0.34541 0.51739 0.31917 0.0
O335 O 0.42608 0.50114 0.29296 0.0
O336 O 0.87719 0.03164 0.92474 0.0
Mg337 Mg 0.88108 0.0439 0.0129 0.0
O338 O 0.95691 -0.00075 0.90441 0.0
Mg339 Mg -0.00343 0.98801 0.99061 0.0
O340 O 0.95706 0.06158 0.02674 0.0
O341 O 0.89724 0.11847 0.05432 0.0
O342 O 0.03419 0.97952 0.07719 0.0
O343 O 0.06469 0.04879 0.97278 0.0
Mg344 Mg 0.11186 0.92964 0.98767 0.0
O345 O 0.03781 0.91366 0.95856 0.0
O346 O 0.11287 0.94107 0.07691 0.0
O347 O 0.13658 0.00314 0.95025 0.0
O348 O 0.10161 0.85629 0.9438 0.0
C349 C 0.88231 0.92635 0.02967 0.0
C350 C 0.91033 0.01259 0.89027 0.0
C351 C 0.94621 0.10743 0.04884 0.0
C352 C 0.07611 0.96567 0.10217 0.0
C353 C 0.11287 0.04757 0.95862 0.0
C354 C 0.05307 0.8687 0.93734 0.0
O355 O 0.86374 0.9689 0.05131 0.0
O356 O 0.92744 0.92659 0.00679 0.0
O357 O 0.28413 0.73191 0.38983 0.0
Mg358 Mg 0.24315 0.66623 0.35809 0.0
O359 O 0.25457 0.78252 0.32204 0.0
Mg360 Mg 0.23812 0.73806 0.24215 0.0
O361 O 0.25518 0.6563 0.27423 0.0
O362 O 0.30205 0.6123 0.33371 0.0
O363 O 0.22006 0.70025 0.15719 0.0
O364 O 0.32436 0.73654 0.21144 0.0
Mg365 Mg 0.26171 0.82967 0.14501 0.0
O366 O 0.2187 0.81992 0.21331 0.0
O367 O 0.23336 0.76764 0.09643 0.0
O368 O 0.34045 0.81245 0.16566 0.0
O369 O 0.21624 0.89665 0.16909 0.0
C370 C 0.13632 0.7228 0.32337 0.0
C371 C 0.27173 0.77754 0.3705 0.0
C372 C 0.29606 0.62776 0.28376 0.0
C373 C 0.22194 0.71911 0.10797 0.0
C374 C 0.35528 0.76702 0.18455 0.0
C375 C 0.20001 0.86777 0.20996 0.0
O376 O 0.16341 0.69575 0.35786 0.0
O377 O 0.15354 0.73573 0.27548 0.0
O378 O 0.61615 0.94307 0.42067 0.0
Mg379 Mg 0.60882 0.92538 0.50481 0.0
O380 O 0.54955 0.00118 0.41726 0.0
Mg381 Mg 0.50223 -0.00421 0.49707 0.0
O382 O 0.53256 0.91384 0.52614 0.0
O383 O 0.5918 0.8506 0.5393 0.0
O384 O 0.45917 -0.00762 0.57586 0.0
O385 O 0.43443 0.94936 0.45961 0.0
Mg386 Mg 0.39168 0.06645 0.49316 0.0
O387 O 0.46943 0.07624 0.47397 0.0
O388 O 0.38639 0.04124 0.57918 0.0
O389 O 0.36616 0.00266 0.44215 0.0
O390 O 0.41558 0.14367 0.46347 0.0
C391 C 0.61605 0.03918 0.53886 0.0
C392 C 0.59143 0.98123 0.39726 0.0
C393 C 0.54403 0.86618 0.54457 0.0
C394 C 0.41859 0.00817 0.60099 0.0
C395 C 0.38786 0.95641 0.44255 0.0
C396 C 0.46263 0.12552 0.45911 0.0
O397 O 0.6375 -0.00669 0.54517 0.0
O398 O 0.56708 0.04462 0.53329 0.0
O399 O 0.37589 0.31529 0.75567 0.0
Mg400 Mg 0.35983 0.26973 0.68442 0.0
O401 O 0.31071 0.27924 0.80457 0.0
Mg402 Mg 0.2448 0.25007 0.7503 0.0
O403 O 0.28213 0.28029 0.67767 0.0
O404 O 0.32972 0.30484 0.60902 0.0
O405 O 0.1791 0.22393 0.69568 0.0
O406 O 0.20138 0.33035 0.75018 0.0
Mg407 Mg 0.13004 0.23557 0.81623 0.0
O408 O 0.20749 0.22048 0.82569 0.0
O409 O 0.11002 0.19469 0.74336 0.0
O410 O 0.12481 0.31848 0.79338 0.0
O411 O 0.15481 0.20138 0.89315 0.0
C412 C 0.3335 0.15375 0.73167 0.0
C413 C 0.35473 0.30275 0.8016 0.0
C414 C 0.2837 0.30112 0.62986 0.0
C415 C 0.13224 0.20745 0.69803 0.0
C416 C 0.15584 0.34662 0.76381 0.0
C417 C 0.20171 0.20039 0.87391 0.0
O418 O 0.36606 0.18447 0.70657 0.0
O419 O 0.2881 0.16975 0.74639 0.0
O420 O 0.95082 0.85675 0.51614 0.0
Mg421 Mg 0.0001 0.88356 0.57954 0.0
O422 O 0.98747 0.91865 0.46384 0.0
Mg423 Mg 0.00475 -0.00353 0.50563 0.0
O424 O 0.98622 0.96418 0.58795 0.0
O425 O 0.96917 0.91068 0.65679 0.0
O426 O 0.02513 0.079 0.54123 0.0
O427 O 0.91963 0.02637 0.51426 0.0
Mg428 Mg 0.96849 0.08211 0.41413 0.0
O429 O 0.01836 0.0195 0.41707 0.0
O430 O -0.00311 0.13425 0.47414 0.0
O431 O 0.89326 0.05357 0.43278 0.0
O432 O 0.00704 0.06574 0.3406 0.0
C433 C 0.1058 0.91812 0.51776 0.0
C434 C 0.96768 0.87259 0.46956 0.0
C435 C 0.97029 0.95904 0.63769 0.0
C436 C 0.01611 0.12592 0.52143 0.0
C437 C 0.88394 0.04388 0.48311 0.0
C438 C 0.02993 0.02648 0.36586 0.0
O439 O 0.07929 0.8836 0.54552 0.0
O440 O 0.08818 0.96476 0.50521 0.0
O441 O 0.30283 0.6154 0.8124 0.0
Mg442 Mg 0.31938 0.62485 0.72731 0.0
O443 O 0.25715 0.69135 0.82604 0.0
Mg444 Mg 0.25799 0.74141 0.74606 0.0
O445 O 0.33289 0.70513 0.71445 0.0
O446 O 0.39236 0.64509 0.69174 0.0
O447 O 0.26003 0.78698 0.66618 0.0
O448 O 0.30529 0.81052 0.78217 0.0
Mg449 Mg 0.1891 0.85468 0.74775 0.0
O450 O 0.18084 0.77603 0.77208 0.0
O451 O 0.20957 0.85961 0.66107 0.0
O452 O 0.25296 0.88172 0.79506 0.0
O453 O 0.11635 0.83313 0.784 0.0
C454 C 0.20801 0.62852 0.69572 0.0
C455 C 0.27365 0.64524 0.84206 0.0
C456 C 0.37832 0.6949 0.69368 0.0
C457 C 0.24326 0.82774 0.64003 0.0
C458 C 0.29778 0.85925 0.79682 0.0
C459 C 0.13453 0.78516 0.79098 0.0
O460 O 0.25003 0.60248 0.68635 0.0
O461 O 0.20848 0.67668 0.71205 0.0
O462 O 0.42421 0.90591 0.09688 0.0
Mg463 Mg 0.40403 0.98814 0.10676 0.0
O464 O 0.49089 0.91414 0.03749 0.0
Mg465 Mg 0.49299 0.00069 0.00564 0.0
O466 O 0.41389 0.02418 0.03353 0.0
O467 O 0.33998 0.03323 0.07818 0.0
O468 O 0.49633 0.08586 0.97668 0.0
O469 O 0.45464 0.98535 0.92312 0.0
Mg470 Mg 0.56884 0.00881 0.89508 0.0
O471 O 0.57257 0.98093 0.97443 0.0
O472 O 0.5403 0.0903 0.89708 0.0
O473 O 0.51096 0.96154 0.85789 0.0
O474 O 0.64116 0.97601 0.9199 0.0
C475 C 0.51064 0.02699 0.13868 0.0
C476 C 0.46497 0.88739 0.0731 0.0
C477 C 0.36813 0.04542 0.03574 0.0
C478 C 0.51042 0.11101 0.93345 0.0
C479 C 0.46462 0.97176 0.87392 0.0
C480 C 0.61961 0.96446 0.96655 0.0
O481 O 0.46277 0.02315 0.15214 0.0
O482 O 0.52818 0.01946 0.08997 0.0
O483 O 0.32129 0.22155 0.12241 0.0
Mg484 Mg 0.28129 0.29604 0.1373 0.0
O485 O 0.2619 0.18969 0.17716 0.0
Mg486 Mg 0.2479 0.24924 0.25266 0.0
O487 O 0.29505 0.32129 0.21604 0.0
O488 O 0.3227 0.36771 0.14304 0.0
O489 O 0.22781 0.30439 0.33125 0.0
O490 O 0.33037 0.24179 0.29685 0.0
Mg491 Mg 0.26153 0.17657 0.34491 0.0
O492 O 0.20427 0.17267 0.28593 0.0
O493 O 0.25035 0.24429 0.39519 0.0
O494 O 0.3428 0.16188 0.33103 0.0
O495 O 0.21096 0.11287 0.35457 0.0
C496 C 0.16056 0.27476 0.15312 0.0
C497 C 0.28849 0.18482 0.13278 0.0
C498 C 0.32139 0.36152 0.19573 0.0
C499 C 0.23691 0.2918 0.38179 0.0
C500 C 0.36064 0.20828 0.32057 0.0
C501 C 0.18663 0.13021 0.31156 0.0
O502 O 0.1986 0.29038 0.12287 0.0
O503 O 0.1673 0.26409 0.20448 0.0
O504 O 0.39331 0.55596 0.9308 0.0
Mg505 Mg 0.46943 0.58241 0.91359 0.0
O506 O 0.41811 0.52585 0.01196 0.0
Mg507 Mg 0.50305 0.49594 0.00524 0.0
O508 O 0.51836 0.51891 0.91677 0.0
O509 O 0.50874 0.56641 0.84068 0.0
O510 O 0.58698 0.46451 0.00548 0.0
O511 O 0.48544 0.41807 0.96364 0.0
Mg512 Mg 0.50081 0.38578 0.07904 0.0
O513 O 0.48564 0.46607 0.08958 0.0
O514 O 0.57917 0.38346 0.04581 0.0
O515 O 0.45053 0.3563 0.01728 0.0
O516 O 0.47699 0.41028 0.15905 0.0
C517 C 0.51537 0.62552 0.0214 0.0
C518 C 0.38324 0.54495 0.98074 0.0
C519 C 0.53055 0.52638 0.86576 0.0
C520 C 0.60524 0.41814 0.0181 0.0
C521 C 0.46627 0.37184 0.97013 0.0
C522 C 0.47339 0.45878 0.1403 0.0
O523 O 0.49727 0.63436 0.97374 0.0
O524 O 0.52342 0.57837 0.041 0.0
O525 O 0.80304 0.11512 0.31251 0.0
Mg526 Mg 0.81929 0.12477 0.22733 0.0
O527 O 0.75752 0.19111 0.32655 0.0
Mg528 Mg 0.75805 0.24132 0.2464 0.0
O529 O 0.83291 0.20509 0.21467 0.0
O530 O 0.89228 0.14503 0.19176 0.0
O531 O 0.75996 0.28692 0.16644 0.0
O532 O 0.80526 0.31055 0.28235 0.0
Mg533 Mg 0.68896 0.3545 0.24796 0.0
O534 O 0.68083 0.27586 0.27234 0.0
O535 O 0.70939 0.35946 0.16133 0.0
O536 O 0.75278 0.38165 0.29521 0.0
O537 O 0.61623 0.33288 0.28412 0.0
C538 C 0.70795 0.12863 0.19569 0.0
C539 C 0.77413 0.14497 0.34246 0.0
C540 C 0.87831 0.19485 0.19385 0.0
C541 C 0.74312 0.32765 0.14028 0.0
C542 C 0.79765 0.35929 0.2969 0.0
C543 C 0.63449 0.28494 0.29118 0.0
O544 O 0.74991 0.1025 0.18627 0.0
O545 O 0.7086 0.17663 0.21245 0.0
O546 O 0.92434 0.40641 0.59729 0.0
Mg547 Mg 0.90411 0.48861 0.60708 0.0
O548 O 0.99086 0.41446 0.53763 0.0
Mg549 Mg -0.00719 0.50101 0.50555 0.0
O550 O 0.91384 0.52436 0.53374 0.0
O551 O 0.84 0.53361 0.57843 0.0
O552 O -0.00409 0.58624 0.47647 0.0
O553 O 0.95415 0.48551 0.42321 0.0
Mg554 Mg 0.06828 0.50911 0.39467 0.0
O555 O 0.07234 0.48148 0.47407 0.0
O556 O 0.03962 0.59058 0.39671 0.0
O557 O 0.01037 0.46149 0.35796 0.0
O558 O 0.14079 0.47662 0.41935 0.0
C559 C 0.01094 0.52745 0.63845 0.0
C560 C 0.96504 0.38783 0.57344 0.0
C561 C 0.8681 0.54562 0.5359 0.0
C562 C 0.00988 0.61136 0.43318 0.0
C563 C 0.96406 0.47176 0.37403 0.0
C564 C 0.11943 0.46517 0.46612 0.0
O565 O 0.96309 0.5237 0.65205 0.0
O566 O 0.02833 0.51984 0.5897 0.0
O567 O 0.62476 0.8184 0.29359 0.0
Mg568 Mg 0.6301 0.73537 0.31607 0.0
O569 O 0.70146 0.83077 0.25072 0.0
Mg570 Mg 0.74496 0.75045 0.25045 0.0
O571 O 0.70758 0.72061 0.32573 0.0
O572 O 0.65474 0.70097 0.39291 0.0
O573 O 0.78796 0.67 0.24648 0.0
O574 O 0.81108 0.7796 0.3047 0.0
Mg575 Mg 0.86005 0.76956 0.18456 0.0
O576 O 0.78238 0.78023 0.17757 0.0
O577 O 0.86616 0.68453 0.20714 0.0
O578 O 0.87605 0.81567 0.25551 0.0
O579 O 0.83021 0.80331 0.10848 0.0
C580 C 0.63252 0.70765 0.19789 0.0
C581 C 0.65584 0.84685 0.26438 0.0
C582 C 0.70172 0.70033 0.37386 0.0
C583 C 0.8334 0.65391 0.23201 0.0
C584 C 0.85506 0.80321 0.30154 0.0
C585 C 0.78414 0.80012 0.12934 0.0
O586 O 0.61032 0.69451 0.24311 0.0
O587 O 0.67922 0.72457 0.19577 0.0
O588 O 0.7842 0.2326 0.88986 0.0
Mg589 Mg 0.74286 0.16684 0.85885 0.0
O590 O 0.75418 0.2831 0.82217 0.0
Mg591 Mg 0.73793 0.23836 0.74237 0.0
O592 O 0.7546 0.15699 0.77516 0.0
O593 O 0.80102 0.11204 0.83428 0.0
O594 O 0.71997 0.20014 0.6575 0.0
O595 O 0.8243 0.23665 0.71151 0.0
Mg596 Mg 0.76144 0.3296 0.64457 0.0
O597 O 0.71872 0.32 0.713 0.0
O598 O 0.73291 0.26737 0.59645 0.0
O599 O 0.84016 0.31227 0.66504 0.0
O600 O 0.71611 0.39665 0.66867 0.0
C601 C 0.63606 0.22326 0.82369 0.0
C602 C 0.77146 0.27817 0.87061 0.0
C603 C 0.79509 0.12785 0.78442 0.0
C604 C 0.72168 0.21884 0.60821 0.0
C605 C 0.85507 0.26696 0.68417 0.0
C606 C 0.70005 0.36784 0.70965 0.0
O607 O 0.66314 0.1963 0.85827 0.0
O608 O 0.6533 0.23618 0.77579 0.0
O609 O 0.82124 0.72186 0.62224 0.0
Mg610 Mg 0.78127 0.79652 0.63636 0.0
O611 O 0.76199 0.68975 0.67705 0.0
Mg612 Mg 0.74779 0.74941 0.75236 0.0
O613 O 0.79469 0.82132 0.7154 0.0
O614 O 0.82282 0.86814 0.64299 0.0
O615 O 0.72763 0.80468 0.83078 0.0
O616 O 0.83026 0.74212 0.7967 0.0
Mg617 Mg 0.76168 0.67671 0.8443 0.0
O618 O 0.7042 0.67283 0.78562 0.0
O619 O 0.7507 0.74451 0.89444 0.0
O620 O 0.84293 0.66202 0.83031 0.0
O621 O 0.71111 0.61303 0.85424 0.0
C622 C 0.66049 0.77474 0.65269 0.0
C623 C 0.78856 0.68501 0.63265 0.0
C624 C 0.82114 0.86172 0.69564 0.0
C625 C 0.73708 0.79201 0.88122 0.0
C626 C 0.86063 0.70854 0.82019 0.0
C627 C 0.68666 0.63036 0.8113 0.0
O628 O 0.69846 0.79051 0.6224 0.0
O629 O 0.66725 0.76404 0.70404 0.0
O630 O 0.63651 0.50307 0.45036 0.0
Mg631 Mg 0.61178 0.42956 0.48769 0.0
O632 O 0.56459 0.54873 0.4728 0.0
Mg633 Mg 0.49644 0.48795 0.49068 0.0
O634 O 0.53774 0.41362 0.45854 0.0
O635 O 0.60158 0.35626 0.4438 0.0
O636 O 0.42735 0.42648 0.50675 0.0
O637 O 0.45649 0.49922 0.40483 0.0
Mg638 Mg 0.38087 0.54382 0.51315 0.0
O639 O 0.45689 0.56155 0.52665 0.0
O640 O 0.36388 0.46878 0.55162 0.0
O641 O 0.37669 0.53153 0.42512 0.0
O642 O 0.39712 0.61847 0.55429 0.0
C643 C 0.57599 0.46557 0.60213 0.0
C644 C 0.6128 0.5475 0.45869 0.0
C645 C 0.55303 0.36866 0.43733 0.0
C646 C 0.38228 0.42627 0.52974 0.0
C647 C 0.40986 0.51243 0.39074 0.0
C648 C 0.44608 0.60744 0.54869 0.0
O649 O 0.61274 0.44093 0.57689 0.0
O650 O 0.53409 0.47946 0.57716 0.0
O651 O 0.11606 0.44252 0.92066 0.0
Mg652 Mg 0.10863 0.42532 0.00489 0.0
O653 O 0.0494 0.50055 0.91687 0.0
Mg654 Mg 0.00202 0.49561 -0.00321 0.0
O655 O 0.03235 0.41372 0.02619 0.0
O656 O 0.09176 0.35067 0.03963 0.0
O657 O 0.959 0.49253 0.07568 0.0
O658 O 0.93404 0.44921 0.95953 0.0
Mg659 Mg 0.89163 0.56646 -0.00717 0.0
O660 O 0.96937 0.57614 0.97352 0.0
O661 O 0.88629 0.5415 0.07894 0.0
O662 O 0.8659 0.50268 0.94198 0.0
O663 O 0.91554 0.64359 0.96298 0.0
C664 C 0.11577 0.5392 0.03873 0.0
C665 C 0.0913 0.48048 0.89699 0.0
C666 C 0.04395 0.36614 0.04476 0.0
C667 C 0.91847 0.50847 0.10083 0.0
C668 C 0.88747 0.45637 0.94249 0.0
C669 C 0.96259 0.62542 0.95863 0.0
O670 O 0.13734 0.49338 0.045 0.0
O671 O 0.06684 0.54449 0.03277 0.0
loop_
_geom_bond_atom_site_label_1
_geom_bond_atom_site_label_2
_geom_bond_distance
_geom_bond_site_symmetry_2
_ccdc_geom_bond_type
Co0 O1 2.216 . S
Co0 O2 2.091 . S
Co0 O4 2.004 1_655 S
Co0 O10 2.021 . S
Co0 O12 2.137 . S
Co0 O13 2.244 1_655 S
O1 Co0 2.216 . S
O1 C8 1.247 . S
O2 Co0 2.091 . S
O2 C8 1.261 . S
C3 O12 1.247 1_455 S
C3 O13 1.272 . S
O4 Co0 2.004 1_455 S
O4 C9 1.259 . S
Co5 O6 2.061 . S
Co5 O11 2.052 . S
Co5 O13 2.135 . S
O6 Co5 2.061 . S
O6 C9 1.235 . S
C7 O10 1.238 1_455 S
C7 O11 1.241 . S
C8 O1 1.247 . S
C8 O2 1.261 . S
C9 O4 1.259 . S
C9 O6 1.235 . S
O10 Co0 2.021 . S
O10 C7 1.238 1_655 S
O11 Co5 2.052 . S
O11 C7 1.241 . S
O12 Co0 2.137 . S
O12 C3 1.247 1_655 S
O13 Co0 2.244 1_455 S
O13 C3 1.272 . S
O13 Co5 2.135 . S
Co14 O15 2.216 . S
Co14 O16 2.091 . S
Co14 O18 2.004 1_455 S
Co14 O24 2.021 . S
Co14 O26 2.137 . S
Co14 O27 2.244 1_455 S
O15 Co14 2.216 . S
O15 C22 1.247 . S
O16 Co14 2.091 . S
O16 C22 1.261 . S
C17 O26 1.247 . S
C17 O27 1.272 1_455 S
O18 Co14 2.004 1_655 S
O18 C23 1.259 . S
Co19 O20 2.061 . S
Co19 O25 2.052 . S
Co19 O27 2.135 . S
O20 Co19 2.061 . S
O20 C23 1.235 . S
C21 O24 1.238 1_655 S
C21 O25 1.241 . S
C22 O15 1.247 . S
C22 O16 1.261 . S
C23 O18 1.259 . S
C23 O20 1.235 . S
O24 Co14 2.021 . S
O24 C21 1.238 1_455 S
O25 Co19 2.052 . S
O25 C21 1.241 . S
O26 Co14 2.137 . S
O26 C17 1.247 . S
O27 Co14 2.244 1_655 S
O27 C17 1.272 1_655 S
O27 Co19 2.135 . S
Co28 O29 2.216 . S
Co28 O30 2.091 . S
Co28 O32 2.004 . S
Co28 O38 2.021 . S
Co28 O40 2.137 . S
Co28 O41 2.244 . S
O29 Co28 2.216 . S
O29 C36 1.247 . S
O30 Co28 2.091 . S
O30 C36 1.261 . S
C31 O40 1.247 . S
C31 O41 1.272 . S
O32 Co28 2.004 . S
O32 C37 1.259 . S
Co33 O34 2.061 . S
Co33 O39 2.052 . S
Co33 O41 2.135 . S
O34 Co33 2.061 . S
O34 C37 1.235 . S
C35 O38 1.238 . S
C35 O39 1.241 . S
C36 O29 1.247 . S
C36 O30 1.261 . S
C37 O32 1.259 . S
C37 O34 1.235 . S
O38 Co28 2.021 . S
O38 C35 1.238 . S
O39 Co33 2.052 . S
O39 C35 1.241 . S
O40 Co28 2.137 . S
O40 C31 1.247 . S
O41 Co28 2.244 . S
O41 C31 1.272 . S
O41 Co33 2.135 . S
Co42 O43 2.216 . S
Co42 O44 2.091 . S
Co42 O46 2.004 . S
Co42 O52 2.021 . S
Co42 O54 2.137 . S
Co42 O55 2.244 . S
O43 Co42 2.216 . S
O43 C50 1.247 . S
O44 Co42 2.091 . S
O44 C50 1.261 . S
C45 O54 1.247 . S
C45 O55 1.272 . S
O46 Co42 2.004 . S
O46 C51 1.259 . S
Co47 O48 2.061 . S
Co47 O53 2.052 . S
Co47 O55 2.135 . S
O48 Co47 2.061 . S
O48 C51 1.235 . S
C49 O52 1.238 . S
C49 O53 1.241 . S
C50 O43 1.247 . S
C50 O44 1.261 . S
C51 O46 1.259 . S
C51 O48 1.235 . S
O52 Co42 2.021 . S
O52 C49 1.238 . S
O53 Co47 2.052 . S
O53 C49 1.241 . S
O54 Co42 2.137 . S
O54 C45 1.247 . S
O55 Co42 2.244 . S
O55 C45 1.272 . S
O55 Co47 2.135 . S
Co56 O57 2.216 . S
Co56 O58 2.091 . S
Co56 O60 2.004 1_565 S
Co56 O66 2.021 . S
Co56 O68 2.137 . S
Co56 O69 2.244 1_565 S
O57 Co56 2.216 . S
O57 C64 1.247 . S
O58 Co56 2.091 . S
O58 C64 1.261 . S
C59 O68 1.247 1_545 S
C59 O69 1.272 . S
O60 Co56 2.004 1_545 S
O60 C65 1.259 . S
Co61 O62 2.061 . S
Co61 O67 2.052 . S
Co61 O69 2.135 . S
O62 Co61 2.061 . S
O62 C65 1.235 . S
C63 O66 1.238 1_545 S
C63 O67 1.241 . S
C64 O57 1.247 . S
C64 O58 1.261 . S
C65 O60 1.259 . S
C65 O62 1.235 . S
O66 Co56 2.021 . S
O66 C63 1.238 1_565 S
O67 Co61 2.052 . S
O67 C63 1.241 . S
O68 Co56 2.137 . S
O68 C59 1.247 1_565 S
O69 Co56 2.244 1_545 S
O69 C59 1.272 . S
O69 Co61 2.135 . S
Co70 O71 2.216 . S
Co70 O72 2.091 . S
Co70 O74 2.004 . S
Co70 O80 2.021 . S
Co70 O82 2.137 . S
Co70 O83 2.244 . S
O71 Co70 2.216 . S
O71 C78 1.247 . S
O72 Co70 2.091 . S
O72 C78 1.261 . S
C73 O82 1.247 . S
C73 O83 1.272 . S
O74 Co70 2.004 . S
O74 C79 1.259 . S
Co75 O76 2.061 . S
Co75 O81 2.052 . S
Co75 O83 2.135 . S
O76 Co75 2.061 . S
O76 C79 1.235 . S
C77 O80 1.238 . S
C77 O81 1.241 . S
C78 O71 1.247 . S
C78 O72 1.261 . S
C79 O74 1.259 . S
C79 O76 1.235 . S
O80 Co70 2.021 . S
O80 C77 1.238 . S
O81 Co75 2.052 . S
O81 C77 1.241 . S
O82 Co70 2.137 . S
O82 C73 1.247 . S
O83 Co70 2.244 . S
O83 C73 1.272 . S
O83 Co75 2.135 . S
Co84 O85 2.216 . S
Co84 O86 2.091 . S
Co84 O88 2.004 1_545 S
Co84 O94 2.021 . S
Co84 O96 2.137 . S
Co84 O97 2.244 1_545 S
O85 Co84 2.216 . S
O85 C92 1.247 . S
O86 Co84 2.091 . S
O86 C92 1.261 . S
C87 O96 1.247 . S
C87 O97 1.272 1_545 S
O88 Co84 2.004 1_565 S
O88 C93 1.259 . S
Co89 O90 2.061 . S
Co89 O95 2.052 . S
Co89 O97 2.135 . S
O90 Co89 2.061 . S
O90 C93 1.235 . S
C91 O94 1.238 1_565 S
C91 O95 1.241 . S
C92 O85 1.247 . S
C92 O86 1.261 . S
C93 O88 1.259 . S
C93 O90 1.235 . S
O94 Co84 2.021 . S
O94 C91 1.238 1_545 S
O95 Co89 2.052 . S
O95 C91 1.241 . S
O96 Co84 2.137 . S
O96 C87 1.247 . S
O97 Co84 2.244 1_565 S
O97 C87 1.272 1_565 S
O97 Co89 2.135 . S
Co98 O99 2.216 1_556 S
Co98 O100 2.091 1_556 S
Co98 O102 2.004 . S
Co98 O108 2.021 1_556 S
Co98 O110 2.137 . S
Co98 O111 2.244 . S
O99 Co98 2.216 1_554 S
O99 C106 1.247 . S
O100 Co98 2.091 1_554 S
O100 C106 1.261 . S
C101 O110 1.247 . S
C101 O111 1.272 . S
O102 Co98 2.004 . S
O102 C107 1.259 1_556 S
Co103 O104 2.061 . S
Co103 O109 2.052 . S
Co103 O111 2.135 1_554 S
O104 Co103 2.061 . S
O104 C107 1.235 . S
C105 O108 1.238 . S
C105 O109 1.241 . S
C106 O99 1.247 . S
C106 O100 1.261 . S
C107 O102 1.259 1_554 S
C107 O104 1.235 . S
O108 Co98 2.021 1_554 S
O108 C105 1.238 . S
O109 Co103 2.052 . S
O109 C105 1.241 . S
O110 Co98 2.137 . S
O110 C101 1.247 . S
O111 Co98 2.244 . S
O111 C101 1.272 . S
O111 Co103 2.135 1_556 S
Co112 O113 2.217 . S
Co112 O114 2.091 1_556 S
Co112 O116 2.004 . S
Co112 O122 2.021 1_556 S
Co112 O124 2.137 . S
Co112 O125 2.244 . S
O113 Co112 2.217 . S
O113 C120 1.245 1_556 S
O114 Co112 2.091 1_554 S
O114 C120 1.261 . S
C115 O124 1.247 . S
C115 O125 1.272 . S
O116 Co112 2.004 . S
O116 C121 1.259 1_556 S
Co117 O118 2.061 . S
Co117 O123 2.052 . S
Co117 O125 2.135 1_554 S
O118 Co117 2.061 . S
O118 C121 1.235 . S
C119 O122 1.238 . S
C119 O123 1.241 . S
C120 O113 1.245 1_554 S
C120 O114 1.261 . S
C121 O116 1.259 1_554 S
C121 O118 1.235 . S
O122 Co112 2.021 1_554 S
O122 C119 1.238 . S
O123 Co117 2.052 . S
O123 C119 1.241 . S
O124 Co112 2.137 . S
O124 C115 1.247 . S
O125 Co112 2.244 . S
O125 C115 1.272 . S
O125 Co117 2.135 1_556 S
Co126 O127 2.216 . S
Co126 O128 2.091 . S
Co126 O130 2.004 . S
Co126 O136 2.021 . S
Co126 O138 2.137 . S
Co126 O139 2.244 . S
O127 Co126 2.216 . S
O127 C134 1.247 . S
O128 Co126 2.091 . S
O128 C134 1.261 . S
C129 O138 1.247 . S
C129 O139 1.272 . S
O130 Co126 2.004 . S
O130 C135 1.259 . S
Co131 O132 2.061 . S
Co131 O137 2.052 . S
Co131 O139 2.135 . S
O132 Co131 2.061 . S
O132 C135 1.235 . S
C133 O136 1.238 . S
C133 O137 1.241 . S
C134 O127 1.247 . S
C134 O128 1.261 . S
C135 O130 1.259 . S
C135 O132 1.235 . S
O136 Co126 2.021 . S
O136 C133 1.238 . S
O137 Co131 2.052 . S
O137 C133 1.241 . S
O138 Co126 2.137 . S
O138 C129 1.247 . S
O139 Co126 2.244 . S
O139 C129 1.272 . S
O139 Co131 2.135 . S
Co140 O141 2.216 . S
Co140 O142 2.091 . S
Co140 O144 2.004 . S
Co140 O150 2.021 . S
Co140 O152 2.137 . S
Co140 O153 2.244 . S
O141 Co140 2.216 . S
O141 C148 1.247 . S
O142 Co140 2.091 . S
O142 C148 1.261 . S
C143 O152 1.247 . S
C143 O153 1.272 . S
O144 Co140 2.004 . S
O144 C149 1.259 . S
Co145 O146 2.061 . S
Co145 O151 2.052 . S
Co145 O153 2.135 . S
O146 Co145 2.061 . S
O146 C149 1.235 . S
C147 O150 1.238 . S
C147 O151 1.241 . S
C148 O141 1.247 . S
C148 O142 1.261 . S
C149 O144 1.259 . S
C149 O146 1.235 . S
O150 Co140 2.021 . S
O150 C147 1.238 . S
O151 Co145 2.052 . S
O151 C147 1.241 . S
O152 Co140 2.137 . S
O152 C143 1.247 . S
O153 Co140 2.244 . S
O153 C143 1.272 . S
O153 Co145 2.135 . S
Co154 O155 2.216 . S
Co154 O156 2.091 . S
Co154 O158 2.004 . S
Co154 O164 2.021 . S
Co154 O166 2.137 . S
Co154 O167 2.244 . S
O155 Co154 2.216 . S
O155 C162 1.247 . S
O156 Co154 2.091 . S
O156 C162 1.261 . S
C157 O166 1.247 . S
C157 O167 1.272 . S
O158 Co154 2.004 . S
O158 C163 1.259 . S
Co159 O160 2.061 . S
Co159 O165 2.052 . S
Co159 O167 2.135 . S
O160 Co159 2.061 . S
O160 C163 1.235 . S
C161 O164 1.238 . S
C161 O165 1.241 . S
C162 O155 1.247 . S
C162 O156 1.261 . S
C163 O158 1.259 . S
C163 O160 1.235 . S
O164 Co154 2.021 . S
O164 C161 1.238 . S
O165 Co159 2.052 . S
O165 C161 1.241 . S
O166 Co154 2.137 . S
O166 C157 1.247 . S
O167 Co154 2.244 . S
O167 C157 1.272 . S
O167 Co159 2.135 . S
Co168 O169 2.216 . S
Co168 O170 2.091 . S
Co168 O172 2.004 1_455 S
Co168 O178 2.021 . S
Co168 O180 2.137 . S
Co168 O181 2.244 1_455 S
O169 Co168 2.216 . S
O169 C176 1.247 . S
O170 Co168 2.091 . S
O170 C176 1.261 . S
C171 O180 1.247 . S
C171 O181 1.272 1_455 S
O172 Co168 2.004 1_655 S
O172 C177 1.259 . S
Co173 O174 2.061 . S
Co173 O179 2.052 . S
Co173 O181 2.135 . S
O174 Co173 2.061 . S
O174 C177 1.235 . S
C175 O178 1.235 1_655 S
C175 O179 1.245 . S
C176 O169 1.247 . S
C176 O170 1.261 . S
C177 O172 1.259 . S
C177 O174 1.235 . S
O178 Co168 2.021 . S
O178 C175 1.235 1_455 S
O179 Co173 2.052 . S
O179 C175 1.245 . S
O180 Co168 2.137 . S
O180 C171 1.247 . S
O181 Co168 2.244 1_655 S
O181 C171 1.272 1_655 S
O181 Co173 2.135 . S
Co182 O183 2.216 . S
Co182 O184 2.091 . S
Co182 O186 2.004 1_655 S
Co182 O192 2.021 . S
Co182 O194 2.137 . S
Co182 O195 2.244 1_655 S
O183 Co182 2.216 . S
O183 C190 1.247 . S
O184 Co182 2.091 . S
O184 C190 1.261 . S
C185 O194 1.247 1_455 S
C185 O195 1.272 . S
O186 Co182 2.004 1_455 S
O186 C191 1.259 . S
Co187 O188 2.061 . S
Co187 O193 2.052 . S
Co187 O195 2.135 . S
O188 Co187 2.061 . S
O188 C191 1.235 . S
C189 O192 1.238 1_455 S
C189 O193 1.241 . S
C190 O183 1.247 . S
C190 O184 1.261 . S
C191 O186 1.259 . S
C191 O188 1.235 . S
O192 Co182 2.021 . S
O192 C189 1.238 1_655 S
O193 Co187 2.052 . S
O193 C189 1.241 . S
O194 Co182 2.137 . S
O194 C185 1.247 1_655 S
O195 Co182 2.244 1_455 S
O195 C185 1.272 . S
O195 Co187 2.135 . S
Co196 O197 2.216 . S
Co196 O198 2.091 . S
Co196 O200 2.004 . S
Co196 O206 2.021 . S
Co196 O208 2.137 . S
Co196 O209 2.244 . S
O197 Co196 2.216 . S
O197 C204 1.247 . S
O198 Co196 2.091 . S
O198 C204 1.261 . S
C199 O208 1.247 . S
C199 O209 1.272 . S
O200 Co196 2.004 . S
O200 C205 1.259 . S
Co201 O202 2.061 . S
Co201 O207 2.052 . S
Co201 O209 2.135 . S
O202 Co201 2.061 . S
O202 C205 1.235 . S
C203 O206 1.238 . S
C203 O207 1.241 . S
C204 O197 1.247 . S
C204 O198 1.261 . S
C205 O200 1.259 . S
C205 O202 1.235 . S
O206 Co196 2.021 . S
O206 C203 1.238 . S
O207 Co201 2.052 . S
O207 C203 1.241 . S
O208 Co196 2.137 . S
O208 C199 1.247 . S
O209 Co196 2.244 . S
O209 C199 1.272 . S
O209 Co201 2.135 . S
Co210 O211 2.216 . S
Co210 O212 2.091 . S
Co210 O214 2.004 . S
Co210 O220 2.021 . S
Co210 O222 2.137 . S
Co210 O223 2.244 . S
O211 Co210 2.216 . S
O211 C218 1.247 . S
O212 Co210 2.091 . S
O212 C218 1.261 . S
C213 O222 1.247 . S
C213 O223 1.272 . S
O214 Co210 2.004 . S
O214 C219 1.259 . S
Co215 O216 2.061 . S
Co215 O221 2.052 . S
Co215 O223 2.135 . S
O216 Co215 2.061 . S
O216 C219 1.235 . S
C217 O220 1.238 . S
C217 O221 1.241 . S
C218 O211 1.247 . S
C218 O212 1.261 . S
C219 O214 1.259 . S
C219 O216 1.235 . S
O220 Co210 2.021 . S
O220 C217 1.238 . S
O221 Co215 2.052 . S
O221 C217 1.241 . S
O222 Co210 2.137 . S
O222 C213 1.247 . S
O223 Co210 2.244 . S
O223 C213 1.272 . S
O223 Co215 2.135 . S
Co224 O225 2.216 . S
Co224 O226 2.091 . S
Co224 O228 2.004 1_545 S
Co224 O234 2.021 . S
Co224 O236 2.137 . S
Co224 O237 2.244 1_545 S
O225 Co224 2.216 . S
O225 C232 1.247 . S
O226 Co224 2.091 . S
O226 C232 1.261 . S
C227 O236 1.252 . S
C227 O237 1.268 1_545 S
O228 Co224 2.004 1_565 S
O228 C233 1.259 . S
Co229 O230 2.061 . S
Co229 O235 2.052 . S
Co229 O237 2.135 . S
O230 Co229 2.061 . S
O230 C233 1.235 . S
C231 O234 1.238 1_565 S
C231 O235 1.241 . S
C232 O225 1.247 . S
C232 O226 1.261 . S
C233 O228 1.259 . S
C233 O230 1.235 . S
O234 Co224 2.021 . S
O234 C231 1.238 1_545 S
O235 Co229 2.052 . S
O235 C231 1.241 . S
O236 Co224 2.137 . S
O236 C227 1.252 . S
O237 Co224 2.244 1_565 S
O237 C227 1.268 1_565 S
O237 Co229 2.135 . S
Co238 O239 2.216 . S
Co238 O240 2.091 . S
Co238 O242 2.004 . S
Co238 O248 2.021 . S
Co238 O250 2.137 . S
Co238 O251 2.244 . S
O239 Co238 2.216 . S
O239 C246 1.247 . S
O240 Co238 2.091 . S
O240 C246 1.261 . S
C241 O250 1.247 . S
C241 O251 1.272 . S
O242 Co238 2.004 . S
O242 C247 1.259 . S
Co243 O244 2.061 . S
Co243 O249 2.052 . S
Co243 O251 2.135 . S
O244 Co243 2.061 . S
O244 C247 1.235 . S
C245 O248 1.238 . S
C245 O249 1.241 . S
C246 O239 1.247 . S
C246 O240 1.261 . S
C247 O242 1.259 . S
C247 O244 1.235 . S
O248 Co238 2.021 . S
O248 C245 1.238 . S
O249 Co243 2.052 . S
O249 C245 1.241 . S
O250 Co238 2.137 . S
O250 C241 1.247 . S
O251 Co238 2.244 . S
O251 C241 1.272 . S
O251 Co243 2.135 . S
Co252 O253 2.216 . S
Co252 O254 2.091 . S
Co252 O256 2.004 1_565 S
Co252 O262 2.021 . S
Co252 O264 2.137 . S
Co252 O265 2.244 1_565 S
O253 Co252 2.216 . S
O253 C260 1.247 . S
O254 Co252 2.091 . S
O254 C260 1.261 . S
C255 O264 1.247 1_545 S
C255 O265 1.272 . S
O256 Co252 2.004 1_545 S
O256 C261 1.259 . S
Co257 O258 2.061 . S
Co257 O263 2.052 . S
Co257 O265 2.135 . S
O258 Co257 2.061 . S
O258 C261 1.235 . S
C259 O262 1.238 1_545 S
C259 O263 1.241 . S
C260 O253 1.247 . S
C260 O254 1.261 . S
C261 O256 1.259 . S
C261 O258 1.235 . S
O262 Co252 2.021 . S
O262 C259 1.238 1_565 S
O263 Co257 2.052 . S
O263 C259 1.241 . S
O264 Co252 2.137 . S
O264 C255 1.247 1_565 S
O265 Co252 2.244 1_545 S
O265 C255 1.272 . S
O265 Co257 2.135 . S
Co266 O267 2.216 . S
Co266 O268 2.091 . S
Co266 O270 2.004 . S
Co266 O276 2.021 . S
Co266 O278 2.137 1_554 S
Co266 O279 2.244 1_554 S
O267 Co266 2.216 . S
O267 C274 1.247 . S
O268 Co266 2.091 . S
O268 C274 1.261 . S
C269 O278 1.247 . S
C269 O279 1.272 . S
O270 Co266 2.004 . S
O270 C275 1.259 . S
Co271 O272 2.061 . S
Co271 O277 2.052 . S
Co271 O279 2.135 1_554 S
O272 Co271 2.061 . S
O272 C275 1.235 . S
C273 O276 1.238 . S
C273 O277 1.241 . S
C274 O267 1.247 . S
C274 O268 1.261 . S
C275 O270 1.259 . S
C275 O272 1.235 . S
O276 Co266 2.021 . S
O276 C273 1.238 . S
O277 Co271 2.052 . S
O277 C273 1.241 . S
O278 Co266 2.137 1_556 S
O278 C269 1.247 . S
O279 Co266 2.244 1_556 S
O279 C269 1.272 . S
O279 Co271 2.135 1_556 S
Co280 O281 2.216 . S
Co280 O282 2.090 1_556 S
Co280 O284 2.004 . S
Co280 O290 2.021 1_556 S
Co280 O292 2.137 . S
Co280 O293 2.244 . S
O281 Co280 2.216 . S
O281 C288 1.247 1_556 S
O282 Co280 2.090 1_554 S
O282 C288 1.261 . S
C283 O292 1.247 . S
C283 O293 1.272 . S
O284 Co280 2.004 . S
O284 C289 1.259 . S
Co285 O286 2.061 1_556 S
Co285 O291 2.047 1_556 S
Co285 O293 2.138 . S
O286 Co285 2.061 1_554 S
O286 C289 1.235 1_554 S
C287 O290 1.238 . S
C287 O291 1.241 . S
C288 O281 1.247 1_554 S
C288 O282 1.261 . S
C289 O284 1.259 . S
C289 O286 1.235 1_556 S
O290 Co280 2.021 1_554 S
O290 C287 1.238 . S
O291 Co285 2.047 1_554 S
O291 C287 1.241 . S
O292 Co280 2.137 . S
O292 C283 1.247 . S
O293 Co280 2.244 . S
O293 C283 1.272 . S
O293 Co285 2.138 . S
Co294 O295 2.216 . S
Co294 O296 2.091 . S
Co294 O298 2.004 . S
Co294 O304 2.021 . S
Co294 O306 2.137 . S
Co294 O307 2.244 . S
O295 Co294 2.216 . S
O295 C302 1.247 . S
O296 Co294 2.091 . S
O296 C302 1.261 . S
C297 O306 1.247 . S
C297 O307 1.272 . S
O298 Co294 2.004 . S
O298 C303 1.259 . S
Co299 O300 2.061 . S
Co299 O305 2.052 . S
Co299 O307 2.135 . S
O300 Co299 2.061 . S
O300 C303 1.235 . S
C301 O304 1.238 . S
C301 O305 1.241 . S
C302 O295 1.247 . S
C302 O296 1.261 . S
C303 O298 1.259 . S
C303 O300 1.235 . S
O304 Co294 2.021 . S
O304 C301 1.238 . S
O305 Co299 2.052 . S
O305 C301 1.241 . S
O306 Co294 2.137 . S
O306 C297 1.247 . S
O307 Co294 2.244 . S
O307 C297 1.272 . S
O307 Co299 2.135 . S
Co308 O309 2.216 . S
Co308 O310 2.091 . S
Co308 O312 2.004 . S
Co308 O318 2.021 . S
Co308 O320 2.137 . S
Co308 O321 2.244 . S
O309 Co308 2.216 . S
O309 C316 1.247 . S
O310 Co308 2.091 . S
O310 C316 1.261 . S
C311 O320 1.247 . S
C311 O321 1.272 . S
O312 Co308 2.004 . S
O312 C317 1.259 . S
Co313 O314 2.061 . S
Co313 O319 2.052 . S
Co313 O321 2.135 . S
O314 Co313 2.061 . S
O314 C317 1.235 . S
C315 O318 1.238 . S
C315 O319 1.241 . S
C316 O309 1.247 . S
C316 O310 1.261 . S
C317 O312 1.259 . S
C317 O314 1.235 . S
O318 Co308 2.021 . S
O318 C315 1.238 . S
O319 Co313 2.052 . S
O319 C315 1.241 . S
O320 Co308 2.137 . S
O320 C311 1.247 . S
O321 Co308 2.244 . S
O321 C311 1.272 . S
O321 Co313 2.135 . S
Co322 O323 2.216 . S
Co322 O324 2.091 . S
Co322 O326 2.004 . S
Co322 O332 2.021 . S
Co322 O334 2.137 . S
Co322 O335 2.244 . S
O323 Co322 2.216 . S
O323 C330 1.247 . S
O324 Co322 2.091 . S
O324 C330 1.261 . S
C325 O334 1.247 . S
C325 O335 1.272 . S
O326 Co322 2.004 . S
O326 C331 1.259 . S
Co327 O328 2.061 . S
Co327 O333 2.052 . S
Co327 O335 2.135 . S
O328 Co327 2.061 . S
O328 C331 1.235 . S
C329 O332 1.238 . S
C329 O333 1.241 . S
C330 O323 1.247 . S
C330 O324 1.261 . S
C331 O326 1.259 . S
C331 O328 1.235 . S
O332 Co322 2.021 . S
O332 C329 1.238 . S
O333 Co327 2.052 . S
O333 C329 1.241 . S
O334 Co322 2.137 . S
O334 C325 1.247 . S
O335 Co322 2.244 . S
O335 C325 1.272 . S
O335 Co327 2.135 . S
O336 Mg337 1.990 . S
O336 C350 1.253 . S
Mg337 O336 1.990 . S
Mg337 O340 2.180 1_556 S
Mg337 O341 2.117 1_556 S
Mg337 O355 2.030 . S
O338 Mg339 2.072 1_656 S
O338 C350 1.260 . S
Mg339 O338 2.072 1_454 S
Mg339 O340 2.099 1_455 S
Mg339 O342 2.079 1_545 S
Mg339 O343 2.072 1_554 S
Mg339 O345 2.099 1_544 S
Mg339 O356 2.079 1_445 S
O340 Mg337 2.180 1_554 S
O340 Mg339 2.099 1_655 S
O340 C351 1.279 . S
O341 Mg337 2.117 1_554 S
O341 C351 1.250 . S
O342 Mg339 2.079 1_565 S
O342 C352 1.264 . S
O343 Mg339 2.072 1_556 S
O343 C353 1.260 . S
Mg344 O345 2.180 1_554 S
Mg344 O346 2.030 . S
Mg344 O347 1.990 1_554 S
Mg344 O348 2.117 1_554 S
O345 Mg339 2.099 1_566 S
O345 Mg344 2.180 1_556 S
O345 C354 1.279 . S
O346 Mg344 2.030 . S
O346 C352 1.248 . S
O347 Mg344 1.990 1_556 S
O347 C353 1.253 1_565 S
O348 Mg344 2.117 1_556 S
O348 C354 1.250 . S
C349 O355 1.248 1_564 S
C349 O356 1.264 . S
C350 O336 1.253 . S
C350 O338 1.260 . S
C351 O340 1.279 . S
C351 O341 1.250 . S
C352 O342 1.264 . S
C352 O346 1.248 . S
C353 O343 1.260 . S
C353 O347 1.253 1_545 S
C354 O345 1.279 . S
C354 O348 1.250 . S
O355 Mg337 2.030 . S
O355 C349 1.248 1_546 S
O356 Mg339 2.079 1_665 S
O356 C349 1.264 . S
O357 Mg358 1.990 . S
O357 C371 1.253 . S
Mg358 O357 1.990 . S
Mg358 O361 2.180 . S
Mg358 O362 2.117 . S
Mg358 O376 2.030 . S
O359 Mg360 2.072 . S
O359 C371 1.260 . S
Mg360 O359 2.072 . S
Mg360 O361 2.099 . S
Mg360 O363 2.079 . S
Mg360 O364 2.072 . S
Mg360 O366 2.099 . S
Mg360 O377 2.079 . S
O361 Mg358 2.180 . S
O361 Mg360 2.099 . S
O361 C372 1.279 . S
O362 Mg358 2.117 . S
O362 C372 1.250 . S
O363 Mg360 2.079 . S
O363 C373 1.264 . S
O364 Mg360 2.072 . S
O364 C374 1.260 . S
Mg365 O366 2.180 . S
Mg365 O367 2.030 . S
Mg365 O368 1.990 . S
Mg365 O369 2.117 . S
O366 Mg360 2.099 . S
O366 Mg365 2.180 . S
O366 C375 1.279 . S
O367 Mg365 2.030 . S
O367 C373 1.248 . S
O368 Mg365 1.990 . S
O368 C374 1.253 . S
O369 Mg365 2.117 . S
O369 C375 1.250 . S
C370 O376 1.248 . S
C370 O377 1.264 . S
C371 O357 1.253 . S
C371 O359 1.260 . S
C372 O361 1.279 . S
C372 O362 1.250 . S
C373 O363 1.264 . S
C373 O367 1.248 . S
C374 O364 1.260 . S
C374 O368 1.253 . S
C375 O366 1.279 . S
C375 O369 1.250 . S
O376 Mg358 2.030 . S
O376 C370 1.248 . S
O377 Mg360 2.079 . S
O377 C370 1.264 . S
O378 Mg379 1.990 . S
O378 C392 1.253 . S
Mg379 O378 1.990 . S
Mg379 O382 2.180 . S
Mg379 O383 2.117 . S
Mg379 O397 2.024 1_565 S
O380 Mg381 2.072 . S
O380 C392 1.260 1_545 S
Mg381 O380 2.072 . S
Mg381 O382 2.099 1_545 S
Mg381 O384 2.079 . S
Mg381 O385 2.072 1_545 S
Mg381 O387 2.099 . S
Mg381 O398 2.079 . S
O382 Mg379 2.180 . S
O382 Mg381 2.099 1_565 S
O382 C393 1.279 . S
O383 Mg379 2.117 . S
O383 C393 1.250 . S
O384 Mg381 2.079 . S
O384 C394 1.264 . S
O385 Mg381 2.072 1_565 S
O385 C395 1.260 . S
Mg386 O387 2.180 . S
Mg386 O388 2.030 . S
Mg386 O389 1.990 . S
Mg386 O390 2.117 . S
O387 Mg381 2.099 . S
O387 Mg386 2.180 . S
O387 C396 1.279 . S
O388 Mg386 2.030 . S
O388 C394 1.248 . S
O389 Mg386 1.990 . S
O389 C395 1.253 1_545 S
O390 Mg386 2.117 . S
O390 C396 1.250 . S
C391 O397 1.252 . S
C391 O398 1.264 . S
C392 O378 1.253 . S
C392 O380 1.260 1_565 S
C393 O382 1.279 . S
C393 O383 1.250 . S
C394 O384 1.264 . S
C394 O388 1.248 . S
C395 O385 1.260 . S
C395 O389 1.253 1_565 S
C396 O387 1.279 . S
C396 O390 1.250 . S
O397 Mg379 2.024 1_545 S
O397 C391 1.252 . S
O398 Mg381 2.079 . S
O398 C391 1.264 . S
O399 Mg400 1.990 . S
O399 C413 1.253 . S
Mg400 O399 1.990 . S
Mg400 O403 2.180 . S
Mg400 O404 2.117 . S
Mg400 O418 2.030 . S
O401 Mg402 2.072 . S
O401 C413 1.260 . S
Mg402 O401 2.072 . S
Mg402 O403 2.099 . S
Mg402 O405 2.079 . S
Mg402 O406 2.072 . S
Mg402 O408 2.099 . S
Mg402 O419 2.079 . S
O403 Mg400 2.180 . S
O403 Mg402 2.099 . S
O403 C414 1.279 . S
O404 Mg400 2.117 . S
O404 C414 1.250 . S
O405 Mg402 2.079 . S
O405 C415 1.264 . S
O406 Mg402 2.072 . S
O406 C416 1.260 . S
Mg407 O408 2.180 . S
Mg407 O409 2.030 . S
Mg407 O410 1.990 . S
Mg407 O411 2.117 . S
O408 Mg402 2.099 . S
O408 Mg407 2.180 . S
O408 C417 1.279 . S
O409 Mg407 2.030 . S
O409 C415 1.248 . S
O410 Mg407 1.990 . S
O410 C416 1.253 . S
O411 Mg407 2.117 . S
O411 C417 1.250 . S
C412 O418 1.248 . S
C412 O419 1.264 . S
C413 O399 1.253 . S
C413 O401 1.260 . S
C414 O403 1.279 . S
C414 O404 1.250 . S
C415 O405 1.264 . S
C415 O409 1.248 . S
C416 O406 1.260 . S
C416 O410 1.253 . S
C417 O408 1.279 . S
C417 O411 1.250 . S
O418 Mg400 2.030 . S
O418 C412 1.248 . S
O419 Mg402 2.079 . S
O419 C412 1.264 . S
O420 Mg421 1.990 1_655 S
O420 C434 1.253 . S
Mg421 O420 1.990 1_455 S
Mg421 O424 2.180 1_455 S
Mg421 O425 2.117 1_455 S
Mg421 O439 2.030 . S
O422 Mg423 2.070 1_665 S
O422 C434 1.262 . S
Mg423 O422 2.070 1_445 S
Mg423 O424 2.099 1_445 S
Mg423 O426 2.079 . S
Mg423 O427 2.072 1_455 S
Mg423 O429 2.099 . S
Mg423 O440 2.079 1_545 S
O424 Mg421 2.180 1_655 S
O424 Mg423 2.099 1_665 S
O424 C435 1.279 . S
O425 Mg421 2.117 1_655 S
O425 C435 1.250 . S
O426 Mg423 2.079 . S
O426 C436 1.264 . S
O427 Mg423 2.072 1_655 S
O427 C437 1.260 . S
Mg428 O429 2.180 1_655 S
Mg428 O430 2.030 . S
Mg428 O431 1.990 . S
Mg428 O432 2.117 1_655 S
O429 Mg423 2.099 . S
O429 Mg428 2.180 1_455 S
O429 C438 1.279 . S
O430 Mg428 2.030 . S
O430 C436 1.248 1_655 S
O431 Mg428 1.990 . S
O431 C437 1.253 . S
O432 Mg428 2.117 1_455 S
O432 C438 1.250 . S
C433 O439 1.248 . S
C433 O440 1.264 . S
C434 O420 1.253 . S
C434 O422 1.262 . S
C435 O424 1.279 . S
C435 O425 1.250 . S
C436 O426 1.264 . S
C436 O430 1.248 1_455 S
C437 O427 1.260 . S
C437 O431 1.253 . S
C438 O429 1.279 . S
C438 O432 1.250 . S
O439 Mg421 2.030 . S
O439 C433 1.248 . S
O440 Mg423 2.079 1_565 S
O440 C433 1.264 . S
O441 Mg442 1.990 . S
O441 C455 1.253 . S
Mg442 O441 1.990 . S
Mg442 O445 2.180 . S
Mg442 O446 2.117 . S
Mg442 O460 2.030 . S
O443 Mg444 2.072 . S
O443 C455 1.260 . S
Mg444 O443 2.072 . S
Mg444 O445 2.099 . S
Mg444 O447 2.079 . S
Mg444 O448 2.072 . S
Mg444 O450 2.099 . S
Mg444 O461 2.079 . S
O445 Mg442 2.180 . S
O445 Mg444 2.099 . S
O445 C456 1.279 . S
O446 Mg442 2.117 . S
O446 C456 1.250 . S
O447 Mg444 2.079 . S
O447 C457 1.264 . S
O448 Mg444 2.072 . S
O448 C458 1.260 . S
Mg449 O450 2.180 . S
Mg449 O451 2.030 . S
Mg449 O452 1.990 . S
Mg449 O453 2.117 . S
O450 Mg444 2.099 . S
O450 Mg449 2.180 . S
O450 C459 1.279 . S
O451 Mg449 2.030 . S
O451 C457 1.248 . S
O452 Mg449 1.990 . S
O452 C458 1.253 . S
O453 Mg449 2.117 . S
O453 C459 1.250 . S
C454 O460 1.248 . S
C454 O461 1.264 . S
C455 O441 1.253 . S
C455 O443 1.260 . S
C456 O445 1.279 . S
C456 O446 1.250 . S
C457 O447 1.264 . S
C457 O451 1.248 . S
C458 O448 1.260 . S
C458 O452 1.253 . S
C459 O450 1.279 . S
C459 O453 1.250 . S
O460 Mg442 2.030 . S
O460 C454 1.248 . S
O461 Mg444 2.079 . S
O461 C454 1.264 . S
O462 Mg463 1.990 . S
O462 C476 1.253 . S
Mg463 O462 1.990 . S
Mg463 O466 2.180 1_565 S
Mg463 O467 2.117 1_565 S
Mg463 O481 2.030 . S
O464 Mg465 2.072 1_565 S
O464 C476 1.260 . S
Mg465 O464 2.072 1_545 S
Mg465 O466 2.099 . S
Mg465 O468 2.079 1_554 S
Mg465 O469 2.072 1_544 S
Mg465 O471 2.099 1_544 S
Mg465 O482 2.079 . S
O466 Mg463 2.180 1_545 S
O466 Mg465 2.099 . S
O466 C477 1.279 . S
O467 Mg463 2.117 1_545 S
O467 C477 1.250 . S
O468 Mg465 2.079 1_556 S
O468 C478 1.264 . S
O469 Mg465 2.072 1_566 S
O469 C479 1.260 . S
Mg470 O471 2.180 1_545 S
Mg470 O472 2.030 . S
Mg470 O473 1.990 1_545 S
Mg470 O474 2.117 1_545 S
O471 Mg465 2.099 1_566 S
O471 Mg470 2.180 1_565 S
O471 C480 1.279 . S
O472 Mg470 2.030 . S
O472 C478 1.248 . S
O473 Mg470 1.990 1_565 S
O473 C479 1.253 . S
O474 Mg470 2.117 1_565 S
O474 C480 1.250 . S
C475 O481 1.248 1_545 S
C475 O482 1.264 . S
C476 O462 1.253 . S
C476 O464 1.260 . S
C477 O466 1.279 . S
C477 O467 1.250 . S
C478 O468 1.264 . S
C478 O472 1.248 . S
C479 O469 1.260 . S
C479 O473 1.253 . S
C480 O471 1.279 . S
C480 O474 1.250 . S
O481 Mg463 2.030 . S
O481 C475 1.248 1_565 S
O482 Mg465 2.079 . S
O482 C475 1.264 . S
O483 Mg484 1.990 . S
O483 C497 1.253 . S
Mg484 O483 1.990 . S
Mg484 O487 2.180 . S
Mg484 O488 2.117 . S
Mg484 O502 2.030 . S
O485 Mg486 2.072 . S
O485 C497 1.260 . S
Mg486 O485 2.072 . S
Mg486 O487 2.099 . S
Mg486 O489 2.079 . S
Mg486 O490 2.072 . S
Mg486 O492 2.099 . S
Mg486 O503 2.079 . S
O487 Mg484 2.180 . S
O487 Mg486 2.099 . S
O487 C498 1.279 . S
O488 Mg484 2.117 . S
O488 C498 1.250 . S
O489 Mg486 2.079 . S
O489 C499 1.264 . S
O490 Mg486 2.072 . S
O490 C500 1.260 . S
Mg491 O492 2.180 . S
Mg491 O493 2.030 . S
Mg491 O494 1.990 . S
Mg491 O495 2.117 . S
O492 Mg486 2.099 . S
O492 Mg491 2.180 . S
O492 C501 1.279 . S
O493 Mg491 2.030 . S
O493 C499 1.248 . S
O494 Mg491 1.990 . S
O494 C500 1.253 . S
O495 Mg491 2.117 . S
O495 C501 1.250 . S
C496 O502 1.248 . S
C496 O503 1.264 . S
C497 O483 1.253 . S
C497 O485 1.260 . S
C498 O487 1.279 . S
C498 O488 1.250 . S
C499 O489 1.264 . S
C499 O493 1.248 . S
C500 O490 1.260 . S
C500 O494 1.253 . S
C501 O492 1.279 . S
C501 O495 1.250 . S
O502 Mg484 2.030 . S
O502 C496 1.248 . S
O503 Mg486 2.079 . S
O503 C496 1.264 . S
O504 Mg505 1.990 . S
O504 C518 1.253 . S
Mg505 O504 1.990 . S
Mg505 O508 2.180 . S
Mg505 O509 2.117 . S
Mg505 O523 2.032 . S
O506 Mg507 2.072 . S
O506 C518 1.260 1_554 S
Mg507 O506 2.072 . S
Mg507 O508 2.099 1_554 S
Mg507 O510 2.079 . S
Mg507 O511 2.072 1_554 S
Mg507 O513 2.099 . S
Mg507 O524 2.079 . S
O508 Mg505 2.180 . S
O508 Mg507 2.099 1_556 S
O508 C519 1.279 . S
O509 Mg505 2.117 . S
O509 C519 1.250 . S
O510 Mg507 2.079 . S
O510 C520 1.264 . S
O511 Mg507 2.072 1_556 S
O511 C521 1.260 . S
Mg512 O513 2.180 . S
Mg512 O514 2.030 . S
Mg512 O515 1.990 . S
Mg512 O516 2.117 . S
O513 Mg507 2.099 . S
O513 Mg512 2.180 . S
O513 C522 1.279 . S
O514 Mg512 2.030 . S
O514 C520 1.248 . S
O515 Mg512 1.990 . S
O515 C521 1.253 1_554 S
O516 Mg512 2.117 . S
O516 C522 1.250 . S
C517 O523 1.246 1_554 S
C517 O524 1.264 . S
C518 O504 1.253 . S
C518 O506 1.260 1_556 S
C519 O508 1.279 . S
C519 O509 1.250 . S
C520 O510 1.264 . S
C520 O514 1.248 . S
C521 O511 1.260 . S
C521 O515 1.253 1_556 S
C522 O513 1.279 . S
C522 O516 1.250 . S
O523 Mg505 2.032 . S
O523 C517 1.246 1_556 S
O524 Mg507 2.079 . S
O524 C517 1.264 . S
O525 Mg526 1.990 . S
O525 C539 1.253 . S
Mg526 O525 1.990 . S
Mg526 O529 2.180 . S
Mg526 O530 2.117 . S
Mg526 O544 2.030 . S
O527 Mg528 2.072 . S
O527 C539 1.260 . S
Mg528 O527 2.072 . S
Mg528 O529 2.099 . S
Mg528 O531 2.079 . S
Mg528 O532 2.072 . S
Mg528 O534 2.099 . S
Mg528 O545 2.079 . S
O529 Mg526 2.180 . S
O529 Mg528 2.099 . S
O529 C540 1.279 . S
O530 Mg526 2.117 . S
O530 C540 1.250 . S
O531 Mg528 2.079 . S
O531 C541 1.264 . S
O532 Mg528 2.072 . S
O532 C542 1.260 . S
Mg533 O534 2.180 . S
Mg533 O535 2.030 . S
Mg533 O536 1.990 . S
Mg533 O537 2.117 . S
O534 Mg528 2.099 . S
O534 Mg533 2.180 . S
O534 C543 1.279 . S
O535 Mg533 2.030 . S
O535 C541 1.248 . S
O536 Mg533 1.990 . S
O536 C542 1.253 . S
O537 Mg533 2.117 . S
O537 C543 1.250 . S
C538 O544 1.248 . S
C538 O545 1.264 . S
C539 O525 1.253 . S
C539 O527 1.260 . S
C540 O529 1.279 . S
C540 O530 1.250 . S
C541 O531 1.264 . S
C541 O535 1.248 . S
C542 O532 1.260 . S
C542 O536 1.253 . S
C543 O534 1.279 . S
C543 O537 1.250 . S
O544 Mg526 2.030 . S
O544 C538 1.248 . S
O545 Mg528 2.079 . S
O545 C538 1.264 . S
O546 Mg547 1.990 . S
O546 C560 1.253 . S
Mg547 O546 1.990 . S
Mg547 O550 2.180 . S
Mg547 O551 2.117 . S
Mg547 O565 2.030 . S
O548 Mg549 2.072 . S
O548 C560 1.260 1_455 S
Mg549 O548 2.072 . S
Mg549 O550 2.099 1_455 S
Mg549 O552 2.079 . S
Mg549 O553 2.072 1_455 S
Mg549 O555 2.099 . S
Mg549 O566 2.079 . S
O550 Mg547 2.180 . S
O550 Mg549 2.099 1_655 S
O550 C561 1.279 . S
O551 Mg547 2.117 . S
O551 C561 1.250 . S
O552 Mg549 2.079 . S
O552 C562 1.264 . S
O553 Mg549 2.072 1_655 S
O553 C563 1.260 . S
Mg554 O555 2.180 . S
Mg554 O556 2.030 . S
Mg554 O557 1.990 . S
Mg554 O558 2.117 . S
O555 Mg549 2.099 . S
O555 Mg554 2.180 . S
O555 C564 1.279 . S
O556 Mg554 2.030 . S
O556 C562 1.248 . S
O557 Mg554 1.990 . S
O557 C563 1.253 1_455 S
O558 Mg554 2.117 . S
O558 C564 1.250 . S
C559 O565 1.248 1_455 S
C559 O566 1.264 . S
C560 O546 1.253 . S
C560 O548 1.260 1_655 S
C561 O550 1.279 . S
C561 O551 1.250 . S
C562 O552 1.264 . S
C562 O556 1.248 . S
C563 O553 1.260 . S
C563 O557 1.253 1_655 S
C564 O555 1.279 . S
C564 O558 1.250 . S
O565 Mg547 2.030 . S
O565 C559 1.248 1_655 S
O566 Mg549 2.079 . S
O566 C559 1.264 . S
O567 Mg568 1.990 . S
O567 C581 1.253 . S
Mg568 O567 1.990 . S
Mg568 O571 2.180 . S
Mg568 O572 2.117 . S
Mg568 O586 2.030 . S
O569 Mg570 2.072 . S
O569 C581 1.260 . S
Mg570 O569 2.072 . S
Mg570 O571 2.099 . S
Mg570 O573 2.079 . S
Mg570 O574 2.072 . S
Mg570 O576 2.099 . S
Mg570 O587 2.079 . S
O571 Mg568 2.180 . S
O571 Mg570 2.099 . S
O571 C582 1.279 . S
O572 Mg568 2.117 . S
O572 C582 1.250 . S
O573 Mg570 2.079 . S
O573 C583 1.264 . S
O574 Mg570 2.072 . S
O574 C584 1.260 . S
Mg575 O576 2.180 . S
Mg575 O577 2.030 . S
Mg575 O578 1.990 . S
Mg575 O579 2.117 . S
O576 Mg570 2.099 . S
O576 Mg575 2.180 . S
O576 C585 1.279 . S
O577 Mg575 2.030 . S
O577 C583 1.248 . S
O578 Mg575 1.990 . S
O578 C584 1.253 . S
O579 Mg575 2.117 . S
O579 C585 1.250 . S
C580 O586 1.248 . S
C580 O587 1.264 . S
C581 O567 1.253 . S
C581 O569 1.260 . S
C582 O571 1.279 . S
C582 O572 1.250 . S
C583 O573 1.264 . S
C583 O577 1.248 . S
C584 O574 1.260 . S
C584 O578 1.253 . S
C585 O576 1.279 . S
C585 O579 1.250 . S
O586 Mg568 2.030 . S
O586 C580 1.248 . S
O587 Mg570 2.079 . S
O587 C580 1.264 . S
O588 Mg589 1.990 . S
O588 C602 1.253 . S
Mg589 O588 1.990 . S
Mg589 O592 2.180 . S
Mg589 O593 2.117 . S
Mg589 O607 2.030 . S
O590 Mg591 2.072 . S
O590 C602 1.260 . S
Mg591 O590 2.072 . S
Mg591 O592 2.099 . S
Mg591 O594 2.079 . S
Mg591 O595 2.072 . S
Mg591 O597 2.099 . S
Mg591 O608 2.079 . S
O592 Mg589 2.180 . S
O592 Mg591 2.099 . S
O592 C603 1.279 . S
O593 Mg589 2.117 . S
O593 C603 1.250 . S
O594 Mg591 2.079 . S
O594 C604 1.264 . S
O595 Mg591 2.072 . S
O595 C605 1.260 . S
Mg596 O597 2.180 . S
Mg596 O598 2.030 . S
Mg596 O599 1.990 . S
Mg596 O600 2.117 . S
O597 Mg591 2.099 . S
O597 Mg596 2.180 . S
O597 C606 1.279 . S
O598 Mg596 2.030 . S
O598 C604 1.248 . S
O599 Mg596 1.990 . S
O599 C605 1.253 . S
O600 Mg596 2.117 . S
O600 C606 1.250 . S
C601 O607 1.248 . S
C601 O608 1.264 . S
C602 O588 1.253 . S
C602 O590 1.260 . S
C603 O592 1.279 . S
C603 O593 1.250 . S
C604 O594 1.264 . S
C604 O598 1.248 . S
C605 O595 1.260 . S
C605 O599 1.253 . S
C606 O597 1.279 . S
C606 O600 1.250 . S
O607 Mg589 2.030 . S
O607 C601 1.248 . S
O608 Mg591 2.079 . S
O608 C601 1.264 . S
O609 Mg610 1.990 . S
O609 C623 1.253 . S
Mg610 O609 1.990 . S
Mg610 O613 2.180 . S
Mg610 O614 2.117 . S
Mg610 O628 2.030 . S
O611 Mg612 2.072 . S
O611 C623 1.260 . S
Mg612 O611 2.072 . S
Mg612 O613 2.099 . S
Mg612 O615 2.079 . S
Mg612 O616 2.072 . S
Mg612 O618 2.099 . S
Mg612 O629 2.079 . S
O613 Mg610 2.180 . S
O613 Mg612 2.099 . S
O613 C624 1.279 . S
O614 Mg610 2.117 . S
O614 C624 1.250 . S
O615 Mg612 2.079 . S
O615 C625 1.264 . S
O616 Mg612 2.072 . S
O616 C626 1.260 . S
Mg617 O618 2.180 . S
Mg617 O619 2.030 . S
Mg617 O620 1.990 . S
Mg617 O621 2.117 . S
O618 Mg612 2.099 . S
O618 Mg617 2.180 . S
O618 C627 1.279 . S
O619 Mg617 2.030 . S
O619 C625 1.248 . S
O620 Mg617 1.990 . S
O620 C626 1.253 . S
O621 Mg617 2.117 . S
O621 C627 1.250 . S
C622 O628 1.248 . S
C622 O629 1.264 . S
C623 O609 1.253 . S
C623 O611 1.260 . S
C624 O613 1.279 . S
C624 O614 1.250 . S
C625 O615 1.264 . S
C625 O619 1.248 . S
C626 O616 1.260 . S
C626 O620 1.253 . S
C627 O618 1.279 . S
C627 O621 1.250 . S
O628 Mg610 2.030 . S
O628 C622 1.248 . S
O629 Mg612 2.079 . S
O629 C622 1.264 . S
O630 Mg631 1.990 . S
O630 C644 1.253 . S
Mg631 O630 1.990 . S
Mg631 O634 2.180 . S
Mg631 O635 2.117 . S
Mg631 O649 2.030 . S
O632 Mg633 2.072 . S
O632 C644 1.260 . S
Mg633 O632 2.072 . S
Mg633 O634 2.099 . S
Mg633 O636 2.079 . S
Mg633 O637 2.072 . S
Mg633 O639 2.099 . S
Mg633 O650 2.079 . S
O634 Mg631 2.180 . S
O634 Mg633 2.099 . S
O634 C645 1.279 . S
O635 Mg631 2.117 . S
O635 C645 1.250 . S
O636 Mg633 2.079 . S
O636 C646 1.264 . S
O637 Mg633 2.072 . S
O637 C647 1.260 . S
Mg638 O639 2.180 . S
Mg638 O640 2.030 . S
Mg638 O641 1.990 . S
Mg638 O642 2.117 . S
O639 Mg633 2.099 . S
O639 Mg638 2.180 . S
O639 C648 1.279 . S
O640 Mg638 2.030 . S
O640 C646 1.248 . S
O641 Mg638 1.990 . S
O641 C647 1.253 . S
O642 Mg638 2.117 . S
O642 C648 1.250 . S
C643 O649 1.248 . S
C643 O650 1.264 . S
C644 O630 1.253 . S
C644 O632 1.260 . S
C645 O634 1.279 . S
C645 O635 1.250 . S
C646 O636 1.264 . S
C646 O640 1.248 . S
C647 O637 1.260 . S
C647 O641 1.253 . S
C648 O639 1.279 . S
C648 O642 1.250 . S
O649 Mg631 2.030 . S
O649 C643 1.248 . S
O650 Mg633 2.079 . S
O650 C643 1.264 . S
O651 Mg652 1.990 . S
O651 C665 1.253 . S
Mg652 O651 1.990 . S
Mg652 O655 2.180 1_556 S
Mg652 O656 2.117 1_556 S
Mg652 O670 2.030 . S
O653 Mg654 2.072 1_556 S
O653 C665 1.260 . S
Mg654 O653 2.072 1_554 S
Mg654 O655 2.099 . S
Mg654 O657 2.079 1_455 S
Mg654 O658 2.072 1_454 S
Mg654 O660 2.099 1_454 S
Mg654 O671 2.079 . S
O655 Mg652 2.180 1_554 S
O655 Mg654 2.099 . S
O655 C666 1.279 . S
O656 Mg652 2.117 1_554 S
O656 C666 1.250 . S
O657 Mg654 2.079 1_655 S
O657 C667 1.264 . S
O658 Mg654 2.072 1_656 S
O658 C668 1.260 . S
Mg659 O660 2.180 1_554 S
Mg659 O661 2.030 . S
Mg659 O662 1.990 1_554 S
Mg659 O663 2.117 1_554 S
O660 Mg654 2.099 1_656 S
O660 Mg659 2.180 1_556 S
O660 C669 1.279 . S
O661 Mg659 2.030 . S
O661 C667 1.248 . S
O662 Mg659 1.990 1_556 S
O662 C668 1.253 . S
O663 Mg659 2.117 1_556 S
O663 C669 1.250 . S
C664 O670 1.248 1_554 S
C664 O671 1.264 . S
C665 O651 1.253 . S
C665 O653 1.260 . S
C666 O655 1.279 . S
C666 O656 1.250 . S
C667 O657 1.264 . S
C667 O661 1.248 . S
C668 O658 1.260 . S
C668 O662 1.253 . S
C669 O660 1.279 . S
C669 O663 1.250 . S
O670 Mg652 2.030 . S
O670 C664 1.248 1_556 S
O671 Mg654 2.079 . S
O671 C664 1.264 . S
C351 C7 1.614 1_655 S
C22 C370 1.362 . S
C31 C393 1.680 . S
C413 C51 1.574 . S
C17 C434 1.497 1_455 S
C456 C36 1.794 . S
C478 C49 1.503 . S
C9 C496 1.427 . S
C63 C352 1.476 1_545 S
C73 C371 1.545 . S
C394 C91 1.446 1_545 S
C417 C101 1.762 . S
C59 C438 1.892 . S
C457 C77 1.439 . S
C479 C87 1.487 1_565 S
C497 C105 1.469 . S
C353 C107 1.602 1_556 S
C520 C120 1.354 . S
C135 C542 1.611 . S
C561 C148 1.746 . S
C65 C501 1.714 . S
C395 C79 1.626 . S
C134 C583 1.268 . S
C606 C162 1.732 . S
C171 C354 1.638 . S
C605 C190 1.306 . S
C203 C396 1.547 . S
C219 C580 1.570 . S
C436 C189 1.211 . S
C543 C204 1.636 . S
C476 C213 1.439 . S
C626 C177 1.563 . S
C350 C227 1.529 . S
C245 C604 1.205 . S
C392 C255 1.313 1_565 S
C273 C585 1.497 . S
C231 C435 1.465 . S
C241 C539 1.344 . S
C475 C259 1.230 . S
C269 C625 1.389 . S
C275 C349 1.468 . S
C288 C518 1.337 1_554 S
C303 C454 1.583 . S
C316 C564 1.719 . S
C624 C233 1.718 . S
C391 C247 1.528 . S
C416 C302 1.299 . S
C372 C330 1.703 . S
C35 C648 1.614 . S
C601 C50 1.362 . S
C666 C3 1.680 . S
C23 C584 1.574 . S
C45 C521 1.497 . S
C540 C8 1.794 . S
C562 C21 1.503 1_455 S
C622 C37 1.427 . S
C643 C161 1.476 . S
C115 C602 1.545 . S
C133 C667 1.446 . S
C582 C143 1.762 . S
C519 C157 1.892 . S
C119 C541 1.438 . S
C563 C129 1.487 . S
C147 C623 1.468 . S
C644 C149 1.602 . S
C433 C78 1.354 . S
C458 C93 1.611 . S
C106 C477 1.746 . S
C627 C163 1.714 . S
C121 C668 1.626 1_554 S
C412 C92 1.268 . S
C375 C64 1.732 . S
C199 C645 1.638 . S
C374 C218 1.306 . S
C669 C175 1.552 . S
C191 C415 1.570 . S
C217 C517 1.211 . S
C176 C459 1.636 . S
C185 C560 1.439 1_455 S
C205 C500 1.563 . S
C647 C325 1.522 . S
C287 C373 1.205 . S
C665 C297 1.313 . S
C315 C414 1.497 . S
C329 C522 1.465 . S
C455 C283 1.344 . S
C301 C559 1.230 . S
C499 C311 1.389 . S
C646 C317 1.468 . S
C437 C246 1.337 . S
C261 C538 1.583 . S
C480 C274 1.719 1_556 S
C498 C331 1.718 . S
C289 C664 1.528 1_556 S
C581 C260 1.299 . S
C603 C232 1.703 . S
