# Generated by pormake.
# Topology pth, (4,4)-cn, num edge types: 1
# Building blocks:
#     Node 0, Type 0, BuildingBlock: CEKHIL_clean_sbu_0, # of connection points: 4
#     Node 1, Type 0, BuildingBlock: CEKHIL_clean_sbu_0, # of connection points: 4
#     Node 2, Type 0, BuildingBlock: CEKHIL_clean_sbu_0, # of connection points: 4
#     Node 3, Type 1, BuildingBlock: KOZSID_clean_sbu_0, # of connection points: 4
#     Node 4, Type 1, BuildingBlock: KOZSID_clean_sbu_0, # of connection points: 4
#     Node 5, Type 1, BuildingBlock: KOZSID_clean_sbu_0, # of connection points: 4
#     Edge 6, Type (0, 1), BuildingBlock: XUDNAN_clean_linker_2, # of connection points: 2
#     Edge 7, Type (0, 1), BuildingBlock: XUDNAN_clean_linker_2, # of connection points: 2
#     Edge 8, Type (0, 1), BuildingBlock: XUDNAN_clean_linker_2, # of connection points: 2
#     Edge 9, Type (0, 1), BuildingBlock: XUDNAN_clean_linker_2, # of connection points: 2
#     Edge 10, Type (0, 1), BuildingBlock: XUDNAN_clean_linker_2, # of connection points: 2
#     Edge 11, Type (0, 1), BuildingBlock: XUDNAN_clean_linker_2, # of connection points: 2
#     Edge 12, Type (0, 1), BuildingBlock: XUDNAN_clean_linker_2, # of connection points: 2
#     Edge 13, Type (0, 1), BuildingBlock: XUDNAN_clean_linker_2, # of connection points: 2
#     Edge 14, Type (0, 1), BuildingBlock: XUDNAN_clean_linker_2, # of connection points: 2
#     Edge 15, Type (0, 1), BuildingBlock: XUDNAN_clean_linker_2, # of connection points: 2
#     Edge 16, Type (0, 1), BuildingBlock: XUDNAN_clean_linker_2, # of connection points: 2
#     Edge 17, Type (0, 1), BuildingBlock: XUDNAN_clean_linker_2, # of connection points: 2
# Relax obj value: 0.006
# Max RMSD: 0.056
# Mean RMSD: 0.040
data_MOF--net-pth--node1-CEKHIL_clean_sbu_0--node2-KOZSID_clean_sbu_0--edge1-XUDNAN_clean_linker_2
_symmetry_space_group_name_H-M    P1
_symmetry_Int_Tables_number       1
_symmetry_cell_setting            triclinic
loop_
_symmetry_equiv_pos_as_xyz
'x, y, z'
_cell_length_a     26.169641
_cell_length_b     26.269994
_cell_length_c     60.808952
_cell_angle_alpha  88.421229
_cell_angle_beta   87.393401
_cell_angle_gamma 120.35299
loop_
_atom_site_label
_atom_site_type_symbol
_atom_site_fract_x
_atom_site_fract_y
_atom_site_fract_z
_atom_type_partial_charge
Co0 Co 0.07142 0.05449 0.05188 0.0
O1 O 0.04211 0.99726 0.07691 0.0
O2 O 0.10827 0.00672 0.05073 0.0
C3 C 0.08702 0.13309 0.07107 0.0
O4 O 0.11588 0.10851 0.02438 0.0
Co5 Co 0.00983 0.12061 0.03604 0.0
O6 O 0.08833 0.1762 0.02057 0.0
C7 C 0.96254 0.9968 0.02456 0.0
C8 C 0.077 0.9795 0.06893 0.0
C9 C 0.12346 0.15736 0.01576 0.0
O10 O 0.00544 0.99645 0.034 0.0
O11 O 0.95504 0.04138 0.0242 0.0
O12 O 0.12603 0.11633 0.07008 0.0
O13 O 0.03813 0.09974 0.0619 0.0
Co14 Co 0.04996 0.0843 0.36636 0.0
O15 O 0.014 0.10906 0.34432 0.0
O16 O 0.09521 0.16883 0.3608 0.0
C17 C 0.04329 0.00607 0.34895 0.0
O18 O 0.10401 0.07842 0.38836 0.0
Co19 Co 0.98559 0.9649 0.39333 0.0
O20 O 0.06439 0.98671 0.40382 0.0
C21 C 0.95664 0.05642 0.40417 0.0
C22 C 0.05649 0.16272 0.34693 0.0
C23 C 0.10744 0.03959 0.40062 0.0
O24 O 0.99949 0.09337 0.3905 0.0
O25 O 0.94178 1.00206 0.40689 0.0
O26 O 0.08611 0.0595 0.34323 0.0
O27 O 1.00392 1.00219 0.36361 0.0
Co28 Co 0.0625 0.05285 0.70198 0.0
O29 O 0.12878 0.09316 0.67996 0.0
O30 O 0.10228 0.00839 0.69812 0.0
C31 C 0.99477 0.063 0.68331 0.0
O32 O 0.99599 0.99476 0.7243 0.0
Co33 Co 1.0043 0.11501 0.72595 0.0
O34 O 0.94507 0.03495 0.73896 0.0
C35 C 0.12424 0.14358 0.73615 0.0
C36 C 0.13831 0.04972 0.68357 0.0
C37 C 0.95262 0.99111 0.73654 0.0
O38 O 0.1167 0.09788 0.72609 0.0
O39 O 0.08694 0.16147 0.73599 0.0
O40 O 0.00648 0.02173 0.67868 0.0
O41 O 0.02798 0.09948 0.6973 0.0
C42 C 0.13424 0.68341 0.17536 0.0
C43 C 0.18994 0.73083 0.16853 0.0
C44 C 0.22985 0.72568 0.18062 0.0
C45 C 0.19653 0.67588 0.19419 0.0
N46 N 0.1376 0.64874 0.19156 0.0
Co47 Co 0.07339 0.57574 0.20847 0.0
N48 N 0.1321 0.57036 0.22717 0.0
C49 C 0.19142 0.60836 0.22623 0.0
C50 C 0.22083 0.59243 0.24037 0.0
C51 C 0.17785 0.54121 0.25108 0.0
C52 C 0.1242 0.52895 0.24298 0.0
N53 N 0.00936 0.5018 0.225 0.0
C54 C 0.01275 0.4668 0.24108 0.0
C55 C 0.95706 0.41933 0.24787 0.0
C56 C 0.91733 0.4237 0.23538 0.0
C57 C 0.95067 0.47352 0.22182 0.0
N58 N 0.01448 0.58204 0.19018 0.0
C59 C 0.95497 0.54517 0.19159 0.0
C60 C 0.92575 0.56078 0.1772 0.0
C61 C 0.96907 0.61098 0.16599 0.0
C62 C 0.02249 0.62331 0.17429 0.0
N63 N 0.08331 0.52591 0.18641 0.0
C64 C 0.0977 0.45244 0.15636 0.0
C65 C 0.04229 0.44741 0.16093 0.0
C66 C 0.03608 0.48385 0.17595 0.0
C67 C 0.14564 0.4955 0.16712 0.0
C68 C 0.13774 0.53176 0.18159 0.0
N69 N 0.06357 0.62562 0.23052 0.0
C70 C 1.0003 0.64809 0.25356 0.0
C71 C 0.04939 0.69819 0.26093 0.0
C72 C 0.10575 0.7111 0.25278 0.0
C73 C 0.11177 0.67453 0.23782 0.0
C74 C 0.00829 0.61282 0.23855 0.0
H75 H 0.15597 0.68681 0.23241 0.0
H76 H 0.96899 0.57554 0.2336 0.0
H77 H 0.99253 0.477 0.17886 0.0
H78 H 0.17649 0.56393 0.18881 0.0
C79 C 0.21886 0.65579 0.21054 0.0
C80 C 0.07956 0.67425 0.1663 0.0
C81 C 0.06731 0.47679 0.25052 0.0
C82 C 0.92799 0.49555 0.2063 0.0
H83 H 0.20068 0.76615 0.15632 0.0
H84 H 0.2774 0.75549 0.17997 0.0
H85 H 0.26814 0.61448 0.24219 0.0
H86 H 0.18557 0.51532 0.26318 0.0
H87 H 0.94607 0.38503 0.26056 0.0
H88 H 0.86973 0.39416 0.23616 0.0
H89 H 0.87858 0.53819 0.17506 0.0
H90 H 0.96204 0.63556 0.1531 0.0
H91 H 1.00359 0.41581 0.15289 0.0
H92 H 0.18945 0.50107 0.16477 0.0
H93 H 0.95555 0.63633 0.25911 0.0
H94 H 0.14532 0.74882 0.25817 0.0
C95 C 0.45337 0.01292 0.57581 0.0
C96 C 0.40822 0.95579 0.58214 0.0
C97 C 0.41869 0.91863 0.5701 0.0
C98 C 0.46904 0.95484 0.55698 0.0
N99 N 0.49157 0.01305 0.55986 0.0
Co100 Co 0.56256 0.0806 0.54307 0.0
N101 N 0.57617 0.02561 0.52466 0.0
C102 C 0.54259 0.96596 0.52558 0.0
C103 C 0.56094 0.93992 0.51044 0.0
C104 C 0.6096 0.98556 0.49925 0.0
C105 C 0.61874 0.03713 0.50845 0.0
N106 N 0.63385 0.14823 0.5264 0.0
C107 C 0.67289 0.14832 0.51082 0.0
C108 C 0.71888 0.20539 0.50494 0.0
C109 C 0.70802 0.24257 0.5168 0.0
C110 C 0.65671 0.20645 0.52944 0.0
N111 N 0.54865 0.13569 0.56139 0.0
C112 C 0.58143 0.19544 0.56014 0.0
C113 C 0.56197 0.22152 0.57485 0.0
C114 C 0.51348 0.17585 0.58612 0.0
C115 C 0.50577 0.12419 0.57747 0.0
N116 N 0.61516 0.07776 0.56523 0.0
C117 C 0.69166 0.07543 0.59623 0.0
C118 C 0.69472 0.12822 0.58947 0.0
C119 C 0.6566 0.12839 0.57418 0.0
C120 C 0.64979 0.02365 0.587 0.0
C121 C 0.61205 0.02574 0.57175 0.0
N122 N 0.50996 0.08347 0.5209 0.0
C123 C 0.47783 0.13929 0.49897 0.0
C124 C 0.43321 0.08787 0.49042 0.0
C125 C 0.42812 0.03418 0.49738 0.0
C126 C 0.46644 0.033 0.51248 0.0
C127 C 0.51543 0.13615 0.51389 0.0
H128 H 0.45983 0.99062 0.5171 0.0
H129 H 0.54837 0.17704 0.51964 0.0
H130 H 0.66177 0.17025 0.56984 0.0
H131 H 0.58063 0.98474 0.56549 0.0
C132 C 0.49415 0.9356 0.54094 0.0
C133 C 0.45722 0.06543 0.58519 0.0
C134 C 0.66889 0.09573 0.5014 0.0
C135 C 0.63072 0.2258 0.54512 0.0
H136 H 0.37088 0.94216 0.59398 0.0
H137 H 0.39197 0.87091 0.57049 0.0
H138 H 0.54126 0.89328 0.50785 0.0
H139 H 0.63537 0.98106 0.48583 0.0
H140 H 0.75709 0.21907 0.49355 0.0
H141 H 0.73512 0.29023 0.51662 0.0
H142 H 0.58093 0.26823 0.57716 0.0
H143 H 0.487 0.18029 0.59927 0.0
H144 H 0.72698 0.16978 0.5958 0.0
H145 H 0.64532 0.9815 0.59182 0.0
H146 H 0.48345 0.18209 0.49449 0.0
H147 H 0.39511 0.99301 0.49106 0.0
C148 C 0.66384 0.61449 0.8438 0.0
C149 C 0.71718 0.61565 0.8398 0.0
C150 C 0.72036 0.5811 0.8563 0.0
C151 C 0.66923 0.56095 0.86949 0.0
N152 N 0.63346 0.5799 0.8622 0.0
Co153 Co 0.55816 0.56473 0.87786 0.0
N154 N 0.55198 0.49812 0.8964 0.0
C155 C 0.59662 0.48817 0.89998 0.0
C156 C 0.5798 0.43984 0.91409 0.0
C157 C 0.52084 0.41811 0.91982 0.0
C158 C 0.5049 0.4544 0.90874 0.0
N159 N 0.48344 0.54994 0.89391 0.0
C160 C 0.44133 0.50119 0.906 0.0
C161 C 0.39377 0.50798 0.91277 0.0
C162 C 0.40768 0.56344 0.90531 0.0
C163 C 0.46221 0.58715 0.89409 0.0
N164 N 0.5641 0.63123 0.8592 0.0
C165 C 0.53303 0.65864 0.86291 0.0
C166 C 0.54475 0.70177 0.84696 0.0
C167 C 0.58655 0.70232 0.83244 0.0
C168 C 0.59875 0.65989 0.84055 0.0
N169 N 0.51177 0.50893 0.85594 0.0
C170 C 0.43844 0.42108 0.82784 0.0
C171 C 0.42514 0.46389 0.83488 0.0
C172 C 0.46259 0.50762 0.84855 0.0
C173 C 0.49086 0.42506 0.83474 0.0
C174 C 0.52628 0.46859 0.84889 0.0
N175 N 0.6045 0.62007 0.89998 0.0
C176 C 0.69024 0.71095 0.90919 0.0
C177 C 0.67696 0.69372 0.93168 0.0
C178 C 0.62535 0.63993 0.93801 0.0
C179 C 0.58948 0.6042 0.92197 0.0
C180 C 0.65373 0.67348 0.89364 0.0
H181 H 0.55025 0.56299 0.92741 0.0
H182 H 0.66642 0.68728 0.87646 0.0
H183 H 0.45067 0.53942 0.85361 0.0
H184 H 0.56493 0.46885 0.85444 0.0
C185 C 0.65067 0.51978 0.88746 0.0
C186 C 0.64749 0.65244 0.83139 0.0
C187 C 0.44643 0.44925 0.9119 0.0
C188 C 0.48785 0.6375 0.87974 0.0
H189 H 0.75134 0.64036 0.82676 0.0
H190 H 0.75561 0.57155 0.85833 0.0
H191 H 0.60668 0.4216 0.91916 0.0
H192 H 0.49309 0.38042 0.93113 0.0
H193 H 0.35266 0.47617 0.92176 0.0
H194 H 0.37958 0.58259 0.90669 0.0
H195 H 0.5242 0.72851 0.84569 0.0
H196 H 0.60637 0.7314 0.81775 0.0
H197 H 0.38518 0.46311 0.83048 0.0
H198 H 0.50472 0.39465 0.82944 0.0
H199 H 0.72981 0.75209 0.90356 0.0
H200 H 0.61297 0.62532 0.95525 0.0
H201 H 0.00905 0.15284 0.09573 0.0
H202 H 0.19215 0.23708 0.06956 0.0
H203 H 0.21323 0.32953 0.08675 0.0
H204 H 0.99045 0.2808 0.09148 0.0
H205 H 0.94724 0.26276 0.11744 0.0
H206 H 0.94527 0.20476 0.10168 0.0
H207 H 0.97676 0.16704 0.13532 0.0
H208 H 0.97858 0.22473 0.15119 0.0
H209 H 0.04336 0.21739 0.14819 0.0
H210 H 0.21358 0.41311 0.10619 0.0
H211 H 0.19726 0.47893 0.1296 0.0
H212 H 0.01651 0.33669 0.14701 0.0
C213 C 0.05336 0.19106 0.09346 0.0
C214 C 0.09897 0.1883 0.08116 0.0
C215 C 0.15673 0.23853 0.07892 0.0
C216 C 0.16897 0.29121 0.08853 0.0
C217 C 0.12318 0.29252 0.1007 0.0
C218 C 0.06674 0.24353 0.10348 0.0
C219 C 0.02677 0.25542 0.1187 0.0
C220 C 0.97433 0.25066 0.1066 0.0
C221 C 0.00511 0.21367 0.13959 0.0
C222 C 0.06949 0.31878 0.12398 0.0
C223 C 0.12453 0.33952 0.11314 0.0
C224 C 0.1709 0.397 0.11504 0.0
C225 C 0.1612 0.43399 0.12866 0.0
C226 C 0.10584 0.41332 0.14075 0.0
C227 C 0.05932 0.35473 0.13805 0.0
H228 H 0.9039 0.01971 0.44606 0.0
H229 H 0.9272 0.13752 0.39022 0.0
H230 H 0.85807 0.16286 0.40932 0.0
H231 H 0.75185 0.96417 0.45938 0.0
H232 H 0.7567 0.96325 0.48884 0.0
H233 H 0.80937 0.95583 0.47117 0.0
H234 H 0.89626 0.04546 0.48815 0.0
H235 H 0.84381 0.0528 0.50603 0.0
H236 H 0.89767 0.11478 0.48827 0.0
H237 H 0.77666 0.1653 0.43277 0.0
H238 H 0.70055 0.15601 0.46095 0.0
H239 H 0.73983 0.04666 0.50335 0.0
C240 C 0.89494 0.05137 0.43798 0.0
C241 C 0.92066 0.07652 0.41662 0.0
C242 C 0.90822 0.11803 0.40662 0.0
C243 C 0.8688 0.13243 0.4173 0.0
C244 C 0.84334 0.10603 0.4382 0.0
C245 C 0.85699 0.06744 0.44865 0.0
C246 C 0.82429 0.04581 0.47124 0.0
C247 C 0.78312 0.97826 0.47273 0.0
C248 C 0.86813 0.06593 0.4895 0.0
C249 C 0.78899 0.07709 0.47166 0.0
C250 C 0.79999 0.11104 0.45234 0.0
C251 C 0.76887 0.1401 0.44819 0.0
C252 C 0.72584 0.13468 0.46427 0.0
C253 C 0.71525 0.10168 0.48447 0.0
C254 C 0.74765 0.07288 0.48817 0.0
H255 H 0.88922 0.97061 0.77629 0.0
H256 H 0.91677 0.88097 0.72221 0.0
H257 H 0.83988 0.78455 0.73995 0.0
H258 H 0.87024 0.86206 0.81897 0.0
H259 H 0.81546 0.86967 0.83527 0.0
H260 H 0.87141 0.9313 0.81796 0.0
H261 H 0.78913 0.939 0.79861 0.0
H262 H 0.73294 0.87701 0.81573 0.0
H263 H 0.73221 0.87524 0.78613 0.0
H264 H 0.75566 0.69773 0.76298 0.0
H265 H 0.67934 0.62748 0.79139 0.0
H266 H 0.71414 0.77339 0.83185 0.0
C267 C 0.87904 0.93066 0.76819 0.0
C268 C 0.9087 0.93327 0.74779 0.0
C269 C 0.89473 0.87998 0.73787 0.0
C270 C 0.8509 0.82504 0.74776 0.0
C271 C 0.82215 0.82401 0.7678 0.0
C272 C 0.83642 0.87541 0.7781 0.0
C273 C 0.80088 0.86209 0.80003 0.0
C274 C 0.84195 0.88248 0.81919 0.0
C275 C 0.76146 0.89 0.80012 0.0
C276 C 0.76387 0.7953 0.80036 0.0
C277 C 0.77614 0.77412 0.78151 0.0
C278 C 0.74604 0.71387 0.77786 0.0
C279 C 0.70272 0.67434 0.794 0.0
C280 C 0.69045 0.69511 0.81362 0.0
C281 C 0.72191 0.75639 0.81682 0.0
H282 H 0.03435 0.92822 0.11089 0.0
H283 H 0.12954 0.92066 0.05191 0.0
H284 H 0.13791 0.84013 0.07 0.0
H285 H 0.12119 0.90449 0.14939 0.0
H286 H 0.0594 0.86018 0.16909 0.0
H287 H 0.05854 0.91554 0.15122 0.0
H288 H 0.95833 0.83615 0.13731 0.0
H289 H 0.95896 0.78052 0.15512 0.0
H290 H 0.95249 0.77087 0.12595 0.0
H291 H 0.1361 0.76028 0.09444 0.0
H292 H 0.12789 0.68974 0.12425 0.0
H293 H 0.03763 0.75128 0.1679 0.0
C294 C 0.05662 0.90935 0.10174 0.0
C295 C 0.0811 0.93063 0.07992 0.0
C296 C 0.11046 0.90516 0.06862 0.0
C297 C 0.11532 0.85926 0.07874 0.0
C298 C 0.09094 0.83944 0.10027 0.0
C299 C 0.06242 0.86382 0.1117 0.0
C300 C 0.04187 0.83565 0.13494 0.0
C301 C 0.07207 0.88172 0.15218 0.0
C302 C 0.97387 0.80392 0.13853 0.0
C303 C 0.06345 0.79183 0.1348 0.0
C304 C 0.09121 0.79441 0.11456 0.0
C305 C 0.1146 0.758 0.11036 0.0
C306 C 0.10982 0.71818 0.12733 0.0
C307 C 0.08245 0.71551 0.14827 0.0
C308 C 0.05879 0.75265 0.15199 0.0
H309 H 0.12558 0.97902 0.43424 0.0
H310 H 0.21611 0.14006 0.39188 0.0
H311 H 0.30909 0.16902 0.40976 0.0
H312 H 0.19984 0.04429 0.48306 0.0
H313 H 0.20309 0.98029 0.49234 0.0
H314 H 0.14396 0.97168 0.4759 0.0
H315 H 0.17185 0.91625 0.4476 0.0
H316 H 0.2312 0.92488 0.46391 0.0
H317 H 0.24672 0.95106 0.43532 0.0
H318 H 0.39292 0.17977 0.43192 0.0
H319 H 0.46013 0.17361 0.45754 0.0
H320 H 0.31392 0.00781 0.48674 0.0
C321 C 0.16495 0.02032 0.42864 0.0
C322 C 0.16335 0.05714 0.41154 0.0
C323 C 0.21595 0.11107 0.40493 0.0
C324 C 0.26911 0.12786 0.41496 0.0
C325 C 0.26907 0.09053 0.43172 0.0
C326 C 0.21828 0.03805 0.43861 0.0
C327 C 0.22989 0.00657 0.45731 0.0
C328 C 0.19194 1.00037 0.4784 0.0
C329 C 0.21929 0.94611 0.45063 0.0
C330 C 0.2952 0.04942 0.45981 0.0
C331 C 0.31699 0.09742 0.44483 0.0
C332 C 0.37617 0.14259 0.44384 0.0
C333 C 0.41398 0.13885 0.45863 0.0
C334 C 0.39262 0.09046 0.47442 0.0
C335 C 0.33221 0.04515 0.47482 0.0
H336 H 0.17698 0.25951 0.74634 0.0
H337 H 0.19133 0.10289 0.75523 0.0
H338 H 0.27507 0.15715 0.77888 0.0
H339 H 0.3364 0.36526 0.74354 0.0
H340 H 0.32728 0.41977 0.75775 0.0
H341 H 0.26976 0.36872 0.74123 0.0
H342 H 0.1935 0.33563 0.77493 0.0
H343 H 0.25082 0.38623 0.79159 0.0
H344 H 0.20767 0.30886 0.80021 0.0
H345 H 0.35179 0.22707 0.80431 0.0
H346 H 0.41984 0.30754 0.82654 0.0
H347 H 0.3614 0.42142 0.79781 0.0
C348 C 0.19788 0.2366 0.75315 0.0
C349 C 0.17726 0.17671 0.74904 0.0
C350 C 0.20636 0.1487 0.7581 0.0
C351 C 0.25384 0.17916 0.77161 0.0
C352 C 0.27242 0.23795 0.77558 0.0
C353 C 0.24588 0.26659 0.7663 0.0
C354 C 0.27434 0.32996 0.77292 0.0
C355 C 0.3037 0.37349 0.75265 0.0
C356 C 0.22886 0.34077 0.78567 0.0
C357 C 0.32033 0.33232 0.78778 0.0
C358 C 0.31836 0.27879 0.78921 0.0
C359 C 0.3545 0.26954 0.80292 0.0
C360 C 0.39364 0.31611 0.8154 0.0
C361 C 0.39738 0.37205 0.81398 0.0
C362 C 0.36005 0.3797 0.79972 0.0
H363 H 0.93001 0.00693 0.64786 0.0
H364 H 0.94916 0.13027 0.69736 0.0
H365 H 0.87017 0.14169 0.6817 0.0
H366 H 0.90791 0.08435 0.60353 0.0
H367 H 0.85421 0.01887 0.59092 0.0
H368 H 0.9096 0.01681 0.60682 0.0
H369 H 0.82699 0.92936 0.63155 0.0
H370 H 0.7713 0.93122 0.61573 0.0
H371 H 0.76881 0.93705 0.64518 0.0
H372 H 0.79193 0.14282 0.66037 0.0
H373 H 0.72098 0.13619 0.63374 0.0
H374 H 0.7527 0.01451 0.59683 0.0
C375 C 0.91704 0.0358 0.65552 0.0
C376 C 0.94565 0.06748 0.67395 0.0
C377 C 0.92797 0.10546 0.6833 0.0
C378 C 0.88295 0.11216 0.67455 0.0
C379 C 0.85597 0.0808 0.65633 0.0
C380 C 0.87231 0.04348 0.64682 0.0
C381 C 0.83778 0.01727 0.62665 0.0
C382 C 0.8799 0.03543 0.60575 0.0
C383 C 0.79891 0.94971 0.62999 0.0
C384 C 0.80005 0.04617 0.62625 0.0
C385 C 0.81111 0.08226 0.64365 0.0
C386 C 0.7829 0.11473 0.64666 0.0
C387 C 0.74288 0.11092 0.63134 0.0
C388 C 0.73142 0.0752 0.61305 0.0
C389 C 0.75998 0.04177 0.61071 0.0
H390 H 0.89312 0.98964 0.99076 0.0
H391 H 0.93671 0.883 0.03297 0.0
H392 H 0.86654 0.79382 0.0145 0.0
H393 H 0.7374 0.88289 0.98778 0.0
H394 H 0.73626 0.90145 0.95912 0.0
H395 H 0.78819 0.95659 0.9762 0.0
H396 H 0.87527 0.97453 0.94883 0.0
H397 H 0.82363 0.91948 0.93166 0.0
H398 H 0.88402 0.91307 0.94169 0.0
H399 H 0.79021 0.71584 0.99184 0.0
H400 H 0.71888 0.65586 0.96483 0.0
H401 H 0.72863 0.81365 0.936 0.0
C402 C 0.88757 0.94746 0.99623 0.0
C403 C 0.92012 0.94327 0.01346 0.0
C404 C 0.91231 0.88735 0.01984 0.0
C405 C 0.8724 0.8364 0.00949 0.0
C406 C 0.84109 0.84209 0.99257 0.0
C407 C 0.84865 0.89627 0.98582 0.0
C408 C 0.8114 0.89061 0.96661 0.0
C409 C 0.7656 0.90897 0.97281 0.0
C410 C 0.85095 0.92655 0.94598 0.0
C411 C 0.78154 0.82475 0.96366 0.0
C412 C 0.79882 0.79751 0.97896 0.0
C413 C 0.77649 0.73674 0.97975 0.0
C414 C 0.73578 0.70299 0.96443 0.0
C415 C 0.71821 0.73006 0.94834 0.0
C416 C 0.74156 0.79182 0.94802 0.0
H417 H 0.11027 0.99995 0.3137 0.0
H418 H 0.965 0.8911 0.36215 0.0
H419 H 0.95292 0.8014 0.34558 0.0
H420 H 0.04614 0.9102 0.26823 0.0
H421 H 0.11533 0.92089 0.25617 0.0
H422 H 0.11482 0.97698 0.27239 0.0
H423 H 0.18949 0.9725 0.29777 0.0
H424 H 0.19028 0.91642 0.28159 0.0
H425 H 0.17199 0.90266 0.3109 0.0
H426 H 0.95425 0.72327 0.32331 0.0
H427 H 0.96917 0.66181 0.29682 0.0
H428 H 0.11224 0.82019 0.26202 0.0
C429 C 0.07632 0.95721 0.32093 0.0
C430 C 0.03867 0.95265 0.3393 0.0
C431 C 0.99441 0.89586 0.34812 0.0
C432 C 0.98721 0.84454 0.33883 0.0
C433 C 0.02453 0.85047 0.32064 0.0
C434 C 0.06829 0.90528 0.31176 0.0
C435 C 0.10128 0.89902 0.29177 0.0
C436 C 0.09393 0.92852 0.27091 0.0
C437 C 0.16717 0.92414 0.29575 0.0
C438 C 0.06896 0.83224 0.29077 0.0
C439 C 0.02497 0.80519 0.30763 0.0
C440 C 0.98855 0.74397 0.31002 0.0
C441 C 0.99712 0.7094 0.29476 0.0
C442 C 0.04169 0.73589 0.27719 0.0
C443 C 0.0782 0.79833 0.27535 0.0
H444 H 0.19481 0.10029 0.64277 0.0
H445 H 0.19434 0.99342 0.69853 0.0
H446 H 0.27762 0.98857 0.67998 0.0
H447 H 0.22257 0.01995 0.60146 0.0
H448 H 0.26894 0.08427 0.5833 0.0
H449 H 0.21159 0.08241 0.60144 0.0
H450 H 0.28958 0.1792 0.6179 0.0
H451 H 0.34719 0.18125 0.59984 0.0
H452 H 0.35379 0.18287 0.62922 0.0
H453 H 0.36265 0.99731 0.65584 0.0
H454 H 0.43772 0.01161 0.62625 0.0
H455 H 0.37789 0.10511 0.5847 0.0
C456 C 0.21263 0.07628 0.6511 0.0
C457 C 0.18846 0.04759 0.67218 0.0
C458 C 0.21219 0.01572 0.6824 0.0
C459 C 0.25964 0.01289 0.67203 0.0
C460 C 0.28238 0.04142 0.65124 0.0
C461 C 0.25927 0.07192 0.64074 0.0
C462 C 0.28993 0.09597 0.61792 0.0
C463 C 0.24561 0.06903 0.59997 0.0
C464 C 0.32202 0.16385 0.61612 0.0
C465 C 0.33388 0.07437 0.61729 0.0
C466 C 0.3293 0.04369 0.63681 0.0
C467 C 0.36624 0.02077 0.64041 0.0
C468 C 0.40862 0.02897 0.62355 0.0
C469 C 0.41303 0.05882 0.60319 0.0
C470 C 0.37518 0.08189 0.6001 0.0
H471 H 0.19844 0.27708 0.01111 0.0
H472 H 0.15856 0.11339 0.98192 0.0
H473 H 0.23656 0.16994 0.95195 0.0
H474 H 0.23077 0.36672 0.96165 0.0
H475 H 0.29211 0.43164 0.97181 0.0
H476 H 0.23278 0.37851 0.99075 0.0
H477 H 0.30846 0.36711 0.0133 0.0
H478 H 0.36808 0.42065 0.99454 0.0
H479 H 0.35878 0.3484 0.99955 0.0
H480 H 0.31434 0.24575 0.92363 0.0
H481 H 0.39348 0.3338 0.90168 0.0
H482 H 0.39106 0.44627 0.95203 0.0
C483 C 0.20632 0.25329 0.99839 0.0
C484 C 0.17229 0.19101 0.99863 0.0
C485 C 0.1843 0.16114 0.98198 0.0
C486 C 0.22829 0.19289 0.96487 0.0
C487 C 0.26082 0.2544 0.96498 0.0
C488 C 0.25124 0.28419 0.98158 0.0
C489 C 0.29396 0.35021 0.97839 0.0
C490 C 0.26038 0.38372 0.97548 0.0
C491 C 0.33474 0.37291 0.99759 0.0
C492 C 0.32822 0.35307 0.95718 0.0
C493 C 0.30796 0.29746 0.94952 0.0
C494 C 0.3309 0.28942 0.9296 0.0
C495 C 0.37564 0.33953 0.91723 0.0
C496 C 0.39742 0.39678 0.92493 0.0
C497 C 0.37412 0.40321 0.94541 0.0
H498 H 0.02195 0.17341 0.30558 0.0
H499 H 0.09825 0.2706 0.36331 0.0
H500 H 0.10402 0.35931 0.3457 0.0
H501 H 0.11598 0.29418 0.26647 0.0
H502 H 0.05962 0.27613 0.24724 0.0
H503 H 0.0571 0.21869 0.26494 0.0
H504 H 0.95036 0.18809 0.27964 0.0
H505 H 0.9527 0.24566 0.26203 0.0
H506 H 0.93631 0.24256 0.29132 0.0
H507 H 0.09995 0.43701 0.32232 0.0
H508 H 0.09679 0.50217 0.29289 0.0
H509 H 0.03235 0.35887 0.24873 0.0
C510 C 0.03935 0.2133 0.31452 0.0
C511 C 0.05924 0.21511 0.33589 0.0
C512 C 0.08282 0.26833 0.34694 0.0
C513 C 0.08599 0.31885 0.33712 0.0
C514 C 0.06632 0.31589 0.31603 0.0
C515 C 0.04425 0.26483 0.30469 0.0
C516 C 0.02995 0.27503 0.28161 0.0
C517 C 0.06794 0.26545 0.26403 0.0
C518 C 0.96337 0.23547 0.27847 0.0
C519 C 0.04748 0.33965 0.28181 0.0
C520 C 0.06736 0.36197 0.30199 0.0
C521 C 0.08496 0.42018 0.30639 0.0
C522 C 0.08307 0.45684 0.28963 0.0
C523 C 0.06499 0.43567 0.26856 0.0
C524 C 0.04652 0.37612 0.2647 0.0
loop_
_geom_bond_atom_site_label_1
_geom_bond_atom_site_label_2
_geom_bond_distance
_geom_bond_site_symmetry_2
_ccdc_geom_bond_type
Co0 O1 2.216 1_545 S
Co0 O2 2.091 . S
Co0 O4 2.004 . S
Co0 O10 2.021 . S
Co0 O12 2.137 . S
Co0 O13 2.244 . S
O1 Co0 2.216 1_565 S
O1 C8 1.247 . S
O2 Co0 2.091 . S
O2 C8 1.261 1_545 S
C3 O12 1.247 . S
C3 O13 1.272 . S
O4 Co0 2.004 . S
O4 C9 1.259 . S
Co5 O6 2.076 . S
Co5 O11 2.052 1_455 S
Co5 O13 2.135 . S
O6 Co5 2.076 . S
O6 C9 1.249 . S
C7 O10 1.233 1_655 S
C7 O11 1.252 . S
C8 O1 1.247 . S
C8 O2 1.261 1_565 S
C9 O4 1.259 . S
C9 O6 1.249 . S
O10 Co0 2.021 . S
O10 C7 1.233 1_455 S
O11 Co5 2.052 1_655 S
O11 C7 1.252 . S
O12 Co0 2.137 . S
O12 C3 1.247 . S
O13 Co0 2.244 . S
O13 C3 1.272 . S
O13 Co5 2.135 . S
Co14 O15 2.216 . S
Co14 O16 2.091 . S
Co14 O18 2.004 . S
Co14 O24 2.021 . S
Co14 O26 2.137 . S
Co14 O27 2.244 . S
O15 Co14 2.216 . S
O15 C22 1.247 . S
O16 Co14 2.091 . S
O16 C22 1.261 . S
C17 O26 1.247 . S
C17 O27 1.272 . S
O18 Co14 2.004 . S
O18 C23 1.259 . S
Co19 O20 2.061 1_665 S
Co19 O25 2.052 1_565 S
Co19 O27 2.135 1_665 S
O20 Co19 2.061 1_445 S
O20 C23 1.235 . S
C21 O24 1.238 1_655 S
C21 O25 1.241 . S
C22 O15 1.247 . S
C22 O16 1.261 . S
C23 O18 1.259 . S
C23 O20 1.235 . S
O24 Co14 2.021 . S
O24 C21 1.238 1_455 S
O25 Co19 2.052 1_545 S
O25 C21 1.241 . S
O26 Co14 2.137 . S
O26 C17 1.247 . S
O27 Co14 2.244 . S
O27 C17 1.272 . S
O27 Co19 2.135 1_445 S
Co28 O29 2.216 . S
Co28 O30 2.092 1_545 S
Co28 O32 2.004 1_545 S
Co28 O38 2.021 . S
Co28 O40 2.137 . S
Co28 O41 2.244 . S
O29 Co28 2.216 . S
O29 C36 1.247 . S
O30 Co28 2.092 1_565 S
O30 C36 1.262 1_565 S
C31 O40 1.247 1_655 S
C31 O41 1.272 1_655 S
O32 Co28 2.004 1_565 S
O32 C37 1.259 1_455 S
Co33 O34 2.061 . S
Co33 O39 2.052 1_655 S
Co33 O41 2.135 1_655 S
O34 Co33 2.061 . S
O34 C37 1.235 1_545 S
C35 O38 1.238 . S
C35 O39 1.241 . S
C36 O29 1.247 . S
C36 O30 1.262 1_545 S
C37 O32 1.259 1_655 S
C37 O34 1.235 1_565 S
O38 Co28 2.021 . S
O38 C35 1.238 . S
O39 Co33 2.052 1_455 S
O39 C35 1.241 . S
O40 Co28 2.137 . S
O40 C31 1.247 1_455 S
O41 Co28 2.244 . S
O41 C31 1.272 1_455 S
O41 Co33 2.135 1_455 S
C42 C43 1.443 . S
C42 N46 1.376 . S
C42 C80 1.389 . S
C43 C42 1.443 . S
C43 C44 1.340 . S
C43 H83 0.951 . S
C44 C43 1.340 . S
C44 C45 1.439 . S
C44 H84 0.950 . S
C45 C44 1.439 . S
C45 N46 1.374 . S
C45 C79 1.395 . S
N46 C42 1.376 . S
N46 C45 1.374 . S
N46 Co47 2.008 . S
Co47 N46 2.008 . S
Co47 N48 1.995 . S
Co47 N53 2.008 1_455 S
Co47 N58 1.995 1_455 S
Co47 N63 2.282 . S
Co47 N69 2.282 . S
N48 Co47 1.995 . S
N48 C49 1.376 . S
N48 C52 1.383 . S
C49 N48 1.376 . S
C49 C50 1.446 . S
C49 C79 1.391 . S
C50 C49 1.446 . S
C50 C51 1.339 . S
C50 H85 0.949 . S
C51 C50 1.339 . S
C51 C52 1.439 . S
C51 H86 0.950 . S
C52 N48 1.383 . S
C52 C51 1.439 . S
C52 C81 1.392 . S
N53 Co47 2.008 1_655 S
N53 C54 1.376 . S
N53 C57 1.374 . S
C54 N53 1.376 . S
C54 C55 1.443 . S
C54 C81 1.389 1_655 S
C55 C54 1.443 . S
C55 C56 1.340 . S
C55 H87 0.951 . S
C56 C55 1.340 . S
C56 C57 1.439 . S
C56 H88 0.950 . S
C57 N53 1.374 . S
C57 C56 1.439 . S
C57 C82 1.395 . S
N58 Co47 1.995 1_655 S
N58 C59 1.376 . S
N58 C62 1.383 . S
C59 N58 1.376 . S
C59 C60 1.446 . S
C59 C82 1.391 . S
C60 C59 1.446 . S
C60 C61 1.339 . S
C60 H89 0.949 . S
C61 C60 1.339 . S
C61 C62 1.439 . S
C61 H90 0.950 . S
C62 N58 1.383 . S
C62 C61 1.439 . S
C62 C80 1.392 1_655 S
N63 Co47 2.282 . S
N63 C66 1.332 1_455 S
N63 C68 1.332 . S
C64 C65 1.386 1_455 S
C64 C67 1.388 . S
C65 C64 1.386 1_655 S
C65 C66 1.382 . S
C65 H91 0.950 . S
C66 N63 1.332 1_655 S
C66 C65 1.382 . S
C66 H77 0.952 . S
C67 C64 1.388 . S
C67 C68 1.382 . S
C67 H92 0.950 . S
C68 N63 1.332 . S
C68 C67 1.382 . S
C68 H78 0.948 . S
N69 Co47 2.282 . S
N69 C73 1.332 . S
N69 C74 1.332 1_455 S
C70 C71 1.388 1_655 S
C70 C74 1.382 . S
C70 H93 0.950 . S
C71 C70 1.388 1_455 S
C71 C72 1.386 . S
C72 C71 1.386 . S
C72 C73 1.382 . S
C72 H94 0.950 . S
C73 N69 1.332 . S
C73 C72 1.382 . S
C73 H75 0.952 . S
C74 N69 1.332 1_655 S
C74 C70 1.382 . S
C74 H76 0.948 . S
H75 C73 0.952 . S
H76 C74 0.948 . S
H77 C66 0.952 . S
H78 C68 0.948 . S
C79 C45 1.395 . S
C79 C49 1.391 . S
C80 C42 1.389 . S
C80 C62 1.392 1_455 S
C81 C52 1.392 . S
C81 C54 1.389 1_455 S
C82 C57 1.395 . S
C82 C59 1.391 . S
H83 C43 0.951 . S
H84 C44 0.950 . S
H85 C50 0.949 . S
H86 C51 0.950 . S
H87 C55 0.951 . S
H88 C56 0.950 . S
H89 C60 0.949 . S
H90 C61 0.950 . S
H91 C65 0.950 . S
H92 C67 0.950 . S
H93 C70 0.950 . S
H94 C72 0.950 . S
C95 C96 1.443 1_545 S
C95 N99 1.376 . S
C95 C133 1.389 . S
C96 C95 1.443 1_565 S
C96 C97 1.340 . S
C96 H136 0.951 . S
C97 C96 1.340 . S
C97 C98 1.439 . S
C97 H137 0.950 . S
C98 C97 1.439 . S
C98 N99 1.374 1_565 S
C98 C132 1.395 . S
N99 C95 1.376 . S
N99 C98 1.374 1_545 S
N99 Co100 2.008 . S
Co100 N99 2.008 . S
Co100 N101 1.995 . S
Co100 N106 2.008 . S
Co100 N111 1.995 . S
Co100 N116 2.282 . S
Co100 N122 2.282 . S
N101 Co100 1.995 . S
N101 C102 1.376 1_545 S
N101 C105 1.383 . S
C102 N101 1.376 1_565 S
C102 C103 1.446 . S
C102 C132 1.391 . S
C103 C102 1.446 . S
C103 C104 1.339 . S
C103 H138 0.949 . S
C104 C103 1.339 . S
C104 C105 1.439 1_565 S
C104 H139 0.950 . S
C105 N101 1.383 . S
C105 C104 1.439 1_545 S
C105 C134 1.392 . S
N106 Co100 2.008 . S
N106 C107 1.376 . S
N106 C110 1.374 . S
C107 N106 1.376 . S
C107 C108 1.443 . S
C107 C134 1.389 . S
C108 C107 1.443 . S
C108 C109 1.340 . S
C108 H140 0.951 . S
C109 C108 1.340 . S
C109 C110 1.439 . S
C109 H141 0.950 . S
C110 N106 1.374 . S
C110 C109 1.439 . S
C110 C135 1.395 . S
N111 Co100 1.995 . S
N111 C112 1.376 . S
N111 C115 1.383 . S
C112 N111 1.376 . S
C112 C113 1.446 . S
C112 C135 1.391 . S
C113 C112 1.446 . S
C113 C114 1.339 . S
C113 H142 0.949 . S
C114 C113 1.339 . S
C114 C115 1.439 . S
C114 H143 0.950 . S
C115 N111 1.383 . S
C115 C114 1.439 . S
C115 C133 1.392 . S
N116 Co100 2.282 . S
N116 C119 1.332 . S
N116 C121 1.332 . S
C117 C118 1.386 . S
C117 C120 1.388 . S
C118 C117 1.386 . S
C118 C119 1.382 . S
C118 H144 0.950 . S
C119 N116 1.332 . S
C119 C118 1.382 . S
C119 H130 0.952 . S
C120 C117 1.388 . S
C120 C121 1.382 . S
C120 H145 0.950 1_545 S
C121 N116 1.332 . S
C121 C120 1.382 . S
C121 H131 0.948 1_545 S
N122 Co100 2.282 . S
N122 C126 1.332 . S
N122 C127 1.332 . S
C123 C124 1.388 . S
C123 C127 1.382 . S
C123 H146 0.950 . S
C124 C123 1.388 . S
C124 C125 1.386 . S
C125 C124 1.386 . S
C125 C126 1.382 . S
C125 H147 0.950 1_545 S
C126 N122 1.332 . S
C126 C125 1.382 . S
C126 H128 0.952 . S
C127 N122 1.332 . S
C127 C123 1.382 . S
C127 H129 0.948 . S
H128 C126 0.952 . S
H129 C127 0.948 . S
H130 C119 0.952 . S
H131 C121 0.948 1_565 S
C132 C98 1.395 . S
C132 C102 1.391 . S
C133 C95 1.389 . S
C133 C115 1.392 . S
C134 C105 1.392 . S
C134 C107 1.389 . S
C135 C110 1.395 . S
C135 C112 1.391 . S
H136 C96 0.951 . S
H137 C97 0.950 . S
H138 C103 0.949 . S
H139 C104 0.950 . S
H140 C108 0.951 . S
H141 C109 0.950 . S
H142 C113 0.949 . S
H143 C114 0.950 . S
H144 C118 0.950 . S
H145 C120 0.950 1_565 S
H146 C123 0.950 . S
H147 C125 0.950 1_565 S
C148 C149 1.443 . S
C148 N152 1.376 . S
C148 C186 1.389 . S
C149 C148 1.443 . S
C149 C150 1.340 . S
C149 H189 0.951 . S
C150 C149 1.340 . S
C150 C151 1.439 . S
C150 H190 0.950 . S
C151 C150 1.439 . S
C151 N152 1.374 . S
C151 C185 1.395 . S
N152 C148 1.376 . S
N152 C151 1.374 . S
N152 Co153 2.008 . S
Co153 N152 2.008 . S
Co153 N154 1.995 . S
Co153 N159 2.008 . S
Co153 N164 1.995 . S
Co153 N169 2.282 . S
Co153 N175 2.282 . S
N154 Co153 1.995 . S
N154 C155 1.376 . S
N154 C158 1.383 . S
C155 N154 1.376 . S
C155 C156 1.446 . S
C155 C185 1.391 . S
C156 C155 1.446 . S
C156 C157 1.339 . S
C156 H191 0.949 . S
C157 C156 1.339 . S
C157 C158 1.439 . S
C157 H192 0.950 . S
C158 N154 1.383 . S
C158 C157 1.439 . S
C158 C187 1.392 . S
N159 Co153 2.008 . S
N159 C160 1.376 . S
N159 C163 1.374 . S
C160 N159 1.376 . S
C160 C161 1.443 . S
C160 C187 1.389 . S
C161 C160 1.443 . S
C161 C162 1.340 . S
C161 H193 0.951 . S
C162 C161 1.340 . S
C162 C163 1.439 . S
C162 H194 0.950 . S
C163 N159 1.374 . S
C163 C162 1.439 . S
C163 C188 1.395 . S
N164 Co153 1.995 . S
N164 C165 1.376 . S
N164 C168 1.383 . S
C165 N164 1.376 . S
C165 C166 1.446 . S
C165 C188 1.391 . S
C166 C165 1.446 . S
C166 C167 1.339 . S
C166 H195 0.949 . S
C167 C166 1.339 . S
C167 C168 1.439 . S
C167 H196 0.950 . S
C168 N164 1.383 . S
C168 C167 1.439 . S
C168 C186 1.392 . S
N169 Co153 2.282 . S
N169 C172 1.332 . S
N169 C174 1.332 . S
C170 C171 1.386 . S
C170 C173 1.388 . S
C171 C170 1.386 . S
C171 C172 1.382 . S
C171 H197 0.950 . S
C172 N169 1.332 . S
C172 C171 1.382 . S
C172 H183 0.952 . S
C173 C170 1.388 . S
C173 C174 1.382 . S
C173 H198 0.950 . S
C174 N169 1.332 . S
C174 C173 1.382 . S
C174 H184 0.948 . S
N175 Co153 2.282 . S
N175 C179 1.332 . S
N175 C180 1.332 . S
C176 C177 1.388 . S
C176 C180 1.382 . S
C176 H199 0.950 . S
C177 C176 1.388 . S
C177 C178 1.386 . S
C178 C177 1.386 . S
C178 C179 1.382 . S
C178 H200 0.950 . S
C179 N175 1.332 . S
C179 C178 1.382 . S
C179 H181 0.952 . S
C180 N175 1.332 . S
C180 C176 1.382 . S
C180 H182 0.948 . S
H181 C179 0.952 . S
H182 C180 0.948 . S
H183 C172 0.952 . S
H184 C174 0.948 . S
C185 C151 1.395 . S
C185 C155 1.391 . S
C186 C148 1.389 . S
C186 C168 1.392 . S
C187 C158 1.392 . S
C187 C160 1.389 . S
C188 C163 1.395 . S
C188 C165 1.391 . S
H189 C149 0.951 . S
H190 C150 0.950 . S
H191 C156 0.949 . S
H192 C157 0.950 . S
H193 C161 0.951 . S
H194 C162 0.950 . S
H195 C166 0.949 . S
H196 C167 0.950 . S
H197 C171 0.950 . S
H198 C173 0.950 . S
H199 C176 0.950 . S
H200 C178 0.950 . S
H201 C213 0.930 1_655 S
H202 C215 0.930 . S
H203 C216 0.930 . S
H204 C220 0.959 . S
H205 C220 0.959 . S
H206 C220 0.961 . S
H207 C221 0.960 . S
H208 C221 0.961 1_655 S
H209 C221 0.959 . S
H210 C224 0.929 . S
H211 C225 0.931 . S
H212 C227 0.930 1_655 S
C213 H201 0.930 1_455 S
C213 C214 1.399 . S
C213 C218 1.399 . S
C214 C213 1.399 . S
C214 C215 1.376 . S
C215 H202 0.930 . S
C215 C214 1.376 . S
C215 C216 1.388 . S
C216 H203 0.930 . S
C216 C215 1.388 . S
C216 C217 1.390 . S
C217 C216 1.390 . S
C217 C218 1.394 . S
C217 C223 1.465 . S
C218 C213 1.399 . S
C218 C217 1.394 . S
C218 C219 1.516 1_455 S
C219 C218 1.516 1_655 S
C219 C220 1.502 . S
C219 C221 1.561 1_655 S
C219 C222 1.526 1_655 S
C220 H204 0.959 . S
C220 H205 0.959 . S
C220 H206 0.961 . S
C220 C219 1.502 . S
C221 H207 0.960 . S
C221 H208 0.961 1_455 S
C221 H209 0.959 . S
C221 C219 1.561 1_455 S
C222 C219 1.526 1_455 S
C222 C223 1.396 . S
C222 C227 1.390 . S
C223 C217 1.465 . S
C223 C222 1.396 . S
C223 C224 1.399 . S
C224 H210 0.929 . S
C224 C223 1.399 . S
C224 C225 1.385 . S
C225 H211 0.931 . S
C225 C224 1.385 . S
C225 C226 1.389 . S
C226 C225 1.389 . S
C226 C227 1.387 . S
C227 H212 0.930 1_455 S
C227 C222 1.390 . S
C227 C226 1.387 . S
H228 C240 0.930 . S
H229 C242 0.930 . S
H230 C243 0.930 . S
H231 C247 0.959 . S
H232 C247 0.959 . S
H233 C247 0.961 . S
H234 C248 0.960 . S
H235 C248 0.961 . S
H236 C248 0.959 . S
H237 C251 0.929 . S
H238 C252 0.931 . S
H239 C254 0.930 . S
C240 H228 0.930 . S
C240 C241 1.399 . S
C240 C245 1.399 . S
C241 C240 1.399 . S
C241 C242 1.376 . S
C242 H229 0.930 . S
C242 C241 1.376 . S
C242 C243 1.388 . S
C243 H230 0.930 . S
C243 C242 1.388 . S
C243 C244 1.390 . S
C244 C243 1.390 . S
C244 C245 1.394 . S
C244 C250 1.465 . S
C245 C240 1.399 . S
C245 C244 1.394 . S
C245 C246 1.516 . S
C246 C245 1.516 . S
C246 C247 1.502 1_545 S
C246 C248 1.561 . S
C246 C249 1.526 . S
C247 H231 0.959 . S
C247 H232 0.959 . S
C247 H233 0.961 . S
C247 C246 1.502 1_565 S
C248 H234 0.960 . S
C248 H235 0.961 . S
C248 H236 0.959 . S
C248 C246 1.561 . S
C249 C246 1.526 . S
C249 C250 1.396 . S
C249 C254 1.390 . S
C250 C244 1.465 . S
C250 C249 1.396 . S
C250 C251 1.399 . S
C251 H237 0.929 . S
C251 C250 1.399 . S
C251 C252 1.385 . S
C252 H238 0.931 . S
C252 C251 1.385 . S
C252 C253 1.389 . S
C253 C252 1.389 . S
C253 C254 1.387 . S
C254 H239 0.930 . S
C254 C249 1.390 . S
C254 C253 1.387 . S
H255 C267 0.930 . S
H256 C269 0.930 . S
H257 C270 0.930 . S
H258 C274 0.959 . S
H259 C274 0.959 . S
H260 C274 0.961 . S
H261 C275 0.960 . S
H262 C275 0.961 . S
H263 C275 0.959 . S
H264 C278 0.929 . S
H265 C279 0.931 . S
H266 C281 0.930 . S
C267 H255 0.930 . S
C267 C268 1.399 . S
C267 C272 1.399 . S
C268 C267 1.399 . S
C268 C269 1.376 . S
C269 H256 0.930 . S
C269 C268 1.376 . S
C269 C270 1.388 . S
C270 H257 0.930 . S
C270 C269 1.388 . S
C270 C271 1.390 . S
C271 C270 1.390 . S
C271 C272 1.394 . S
C271 C277 1.465 . S
C272 C267 1.399 . S
C272 C271 1.394 . S
C272 C273 1.516 . S
C273 C272 1.516 . S
C273 C274 1.502 . S
C273 C275 1.561 . S
C273 C276 1.526 . S
C274 H258 0.959 . S
C274 H259 0.959 . S
C274 H260 0.961 . S
C274 C273 1.502 . S
C275 H261 0.960 . S
C275 H262 0.961 . S
C275 H263 0.959 . S
C275 C273 1.561 . S
C276 C273 1.526 . S
C276 C277 1.396 . S
C276 C281 1.390 . S
C277 C271 1.465 . S
C277 C276 1.396 . S
C277 C278 1.399 . S
C278 H264 0.929 . S
C278 C277 1.399 . S
C278 C279 1.385 . S
C279 H265 0.931 . S
C279 C278 1.385 . S
C279 C280 1.389 . S
C280 C279 1.389 . S
C280 C281 1.387 . S
C281 H266 0.930 . S
C281 C276 1.390 . S
C281 C280 1.387 . S
H282 C294 0.930 . S
H283 C296 0.931 . S
H284 C297 0.930 . S
H285 C301 0.959 . S
H286 C301 0.959 . S
H287 C301 0.961 . S
H288 C302 0.960 . S
H289 C302 0.961 . S
H290 C302 0.959 . S
H291 C305 0.929 . S
H292 C306 0.931 . S
H293 C308 0.930 . S
C294 H282 0.930 . S
C294 C295 1.399 . S
C294 C299 1.399 . S
C295 C294 1.399 . S
C295 C296 1.376 1_455 S
C296 H283 0.931 . S
C296 C295 1.376 1_655 S
C296 C297 1.388 . S
C297 H284 0.930 . S
C297 C296 1.388 . S
C297 C298 1.390 1_655 S
C298 C297 1.390 1_455 S
C298 C299 1.394 . S
C298 C304 1.465 . S
C299 C294 1.399 . S
C299 C298 1.394 . S
C299 C300 1.516 . S
C300 C299 1.516 . S
C300 C301 1.502 . S
C300 C302 1.561 . S
C300 C303 1.526 . S
C301 H285 0.959 . S
C301 H286 0.959 . S
C301 H287 0.961 . S
C301 C300 1.502 . S
C302 H288 0.960 . S
C302 H289 0.961 . S
C302 H290 0.959 . S
C302 C300 1.561 . S
C303 C300 1.526 . S
C303 C304 1.396 . S
C303 C308 1.390 . S
C304 C298 1.465 . S
C304 C303 1.396 . S
C304 C305 1.399 1_455 S
C305 H291 0.929 . S
C305 C304 1.399 1_655 S
C305 C306 1.385 . S
C306 H292 0.931 . S
C306 C305 1.385 . S
C306 C307 1.389 1_655 S
C307 C306 1.389 1_455 S
C307 C308 1.387 . S
C308 H293 0.930 . S
C308 C303 1.390 . S
C308 C307 1.387 . S
H309 C321 0.930 . S
H310 C323 0.930 . S
H311 C324 0.930 . S
H312 C328 0.959 . S
H313 C328 0.959 . S
H314 C328 0.961 . S
H315 C329 0.960 . S
H316 C329 0.961 . S
H317 C329 0.959 1_545 S
H318 C332 0.929 . S
H319 C333 0.931 . S
H320 C335 0.930 . S
C321 H309 0.930 . S
C321 C322 1.399 . S
C321 C326 1.399 . S
C322 C321 1.399 . S
C322 C323 1.376 . S
C323 H310 0.930 . S
C323 C322 1.376 . S
C323 C324 1.388 . S
C324 H311 0.930 . S
C324 C323 1.388 . S
C324 C325 1.390 . S
C325 C324 1.390 . S
C325 C326 1.394 . S
C325 C331 1.465 . S
C326 C321 1.399 . S
C326 C325 1.394 . S
C326 C327 1.516 . S
C327 C326 1.516 . S
C327 C328 1.502 1_545 S
C327 C329 1.561 1_545 S
C327 C330 1.526 . S
C328 H312 0.959 . S
C328 H313 0.959 . S
C328 H314 0.961 . S
C328 C327 1.502 1_565 S
C329 H315 0.960 . S
C329 H316 0.961 . S
C329 H317 0.959 1_565 S
C329 C327 1.561 1_565 S
C330 C327 1.526 . S
C330 C331 1.396 . S
C330 C335 1.390 . S
C331 C325 1.465 . S
C331 C330 1.396 . S
C331 C332 1.399 . S
C332 H318 0.929 . S
C332 C331 1.399 . S
C332 C333 1.385 . S
C333 H319 0.931 . S
C333 C332 1.385 . S
C333 C334 1.389 . S
C334 C333 1.389 . S
C334 C335 1.387 . S
C335 H320 0.930 . S
C335 C330 1.390 . S
C335 C334 1.387 . S
H336 C348 0.930 . S
H337 C350 0.930 . S
H338 C351 0.930 . S
H339 C355 0.959 . S
H340 C355 0.959 . S
H341 C355 0.961 . S
H342 C356 0.960 . S
H343 C356 0.961 . S
H344 C356 0.959 . S
H345 C359 0.929 . S
H346 C360 0.931 . S
H347 C362 0.930 . S
C348 H336 0.930 . S
C348 C349 1.399 . S
C348 C353 1.399 . S
C349 C348 1.399 . S
C349 C350 1.376 . S
C350 H337 0.930 . S
C350 C349 1.376 . S
C350 C351 1.388 . S
C351 H338 0.930 . S
C351 C350 1.388 . S
C351 C352 1.390 . S
C352 C351 1.390 . S
C352 C353 1.394 . S
C352 C358 1.465 . S
C353 C348 1.399 . S
C353 C352 1.394 . S
C353 C354 1.516 . S
C354 C353 1.516 . S
C354 C355 1.502 . S
C354 C356 1.561 . S
C354 C357 1.526 . S
C355 H339 0.959 . S
C355 H340 0.959 . S
C355 H341 0.961 . S
C355 C354 1.502 . S
C356 H342 0.960 . S
C356 H343 0.961 . S
C356 H344 0.959 . S
C356 C354 1.561 . S
C357 C354 1.526 . S
C357 C358 1.396 . S
C357 C362 1.390 . S
C358 C352 1.465 . S
C358 C357 1.396 . S
C358 C359 1.399 . S
C359 H345 0.929 . S
C359 C358 1.399 . S
C359 C360 1.385 . S
C360 H346 0.931 . S
C360 C359 1.385 . S
C360 C361 1.389 . S
C361 C360 1.389 . S
C361 C362 1.387 . S
C362 H347 0.930 . S
C362 C357 1.390 . S
C362 C361 1.387 . S
H363 C375 0.930 1_565 S
H364 C377 0.930 . S
H365 C378 0.930 . S
H366 C382 0.959 1_545 S
H367 C382 0.959 . S
H368 C382 0.961 . S
H369 C383 0.960 . S
H370 C383 0.961 . S
H371 C383 0.959 . S
H372 C386 0.929 . S
H373 C387 0.931 . S
H374 C389 0.930 1_565 S
C375 H363 0.930 1_545 S
C375 C376 1.399 . S
C375 C380 1.399 . S
C376 C375 1.399 . S
C376 C377 1.376 . S
C377 H364 0.930 . S
C377 C376 1.376 . S
C377 C378 1.388 . S
C378 H365 0.930 . S
C378 C377 1.388 . S
C378 C379 1.390 . S
C379 C378 1.390 . S
C379 C380 1.394 . S
C379 C385 1.465 . S
C380 C375 1.399 . S
C380 C379 1.394 . S
C380 C381 1.516 1_545 S
C381 C380 1.516 1_565 S
C381 C382 1.502 . S
C381 C383 1.561 . S
C381 C384 1.526 1_565 S
C382 H366 0.959 1_565 S
C382 H367 0.959 . S
C382 H368 0.961 . S
C382 C381 1.502 . S
C383 H369 0.960 . S
C383 H370 0.961 . S
C383 H371 0.959 . S
C383 C381 1.561 . S
C384 C381 1.526 1_545 S
C384 C385 1.396 . S
C384 C389 1.390 . S
C385 C379 1.465 . S
C385 C384 1.396 . S
C385 C386 1.399 . S
C386 H372 0.929 . S
C386 C385 1.399 . S
C386 C387 1.385 . S
C387 H373 0.931 . S
C387 C386 1.385 . S
C387 C388 1.389 . S
C388 C387 1.389 . S
C388 C389 1.387 . S
C389 H374 0.930 1_545 S
C389 C384 1.390 . S
C389 C388 1.387 . S
H390 C402 0.882 1_554 S
H391 C404 0.930 1_445 S
H392 C405 0.930 . S
H393 C409 0.959 . S
H394 C409 0.959 . S
H395 C409 0.961 1_554 S
H396 C410 0.960 1_554 S
H397 C410 0.961 . S
H398 C410 0.959 . S
H399 C413 0.929 . S
H400 C414 0.931 . S
H401 C416 0.930 . S
C402 H390 0.882 1_556 S
C402 C403 1.407 . S
C402 C407 1.441 . S
C403 C402 1.407 . S
C403 C404 1.376 . S
C404 H391 0.930 1_665 S
C404 C403 1.376 . S
C404 C405 1.388 . S
C405 H392 0.930 . S
C405 C404 1.388 . S
C405 C406 1.390 . S
C406 C405 1.390 . S
C406 C407 1.394 . S
C406 C412 1.465 . S
C407 C402 1.441 . S
C407 C406 1.394 . S
C407 C408 1.516 . S
C408 C407 1.516 . S
C408 C409 1.502 . S
C408 C410 1.561 . S
C408 C411 1.526 . S
C409 H393 0.959 . S
C409 H394 0.959 . S
C409 H395 0.961 1_556 S
C409 C408 1.502 . S
C410 H396 0.960 1_556 S
C410 H397 0.961 . S
C410 H398 0.959 . S
C410 C408 1.561 . S
C411 C408 1.526 . S
C411 C412 1.396 . S
C411 C416 1.390 . S
C412 C406 1.465 . S
C412 C411 1.396 . S
C412 C413 1.399 . S
C413 H399 0.929 . S
C413 C412 1.399 . S
C413 C414 1.385 . S
C414 H400 0.931 . S
C414 C413 1.385 . S
C414 C415 1.389 . S
C415 C414 1.389 . S
C415 C416 1.387 . S
C416 H401 0.930 . S
C416 C411 1.390 . S
C416 C415 1.387 . S
H417 C429 0.930 . S
H418 C431 0.930 . S
H419 C432 0.930 . S
H420 C436 0.959 . S
H421 C436 0.959 . S
H422 C436 0.961 . S
H423 C437 0.960 . S
H424 C437 0.961 . S
H425 C437 0.959 . S
H426 C440 0.929 . S
H427 C441 0.931 . S
H428 C443 0.930 . S
C429 H417 0.930 . S
C429 C430 1.399 . S
C429 C434 1.399 . S
C430 C429 1.399 . S
C430 C431 1.376 1_455 S
C431 H418 0.930 . S
C431 C430 1.376 1_655 S
C431 C432 1.388 . S
C432 H419 0.930 . S
C432 C431 1.388 . S
C432 C433 1.390 1_655 S
C433 C432 1.390 1_455 S
C433 C434 1.394 . S
C433 C439 1.460 . S
C434 C429 1.399 . S
C434 C433 1.394 . S
C434 C435 1.516 . S
C435 C434 1.516 . S
C435 C436 1.502 . S
C435 C437 1.561 . S
C435 C438 1.526 . S
C436 H420 0.959 . S
C436 H421 0.959 . S
C436 H422 0.961 . S
C436 C435 1.502 . S
C437 H423 0.960 . S
C437 H424 0.961 . S
C437 H425 0.959 . S
C437 C435 1.561 . S
C438 C435 1.526 . S
C438 C439 1.410 . S
C438 C443 1.390 . S
C439 C433 1.460 . S
C439 C438 1.410 . S
C439 C440 1.392 1_455 S
C440 H426 0.929 . S
C440 C439 1.392 1_655 S
C440 C441 1.385 . S
C441 H427 0.931 . S
C441 C440 1.385 . S
C441 C442 1.389 1_655 S
C442 C441 1.389 1_455 S
C442 C443 1.387 . S
C443 H428 0.930 . S
C443 C438 1.390 . S
C443 C442 1.387 . S
H444 C456 0.930 . S
H445 C458 0.930 . S
H446 C459 0.930 . S
H447 C463 0.959 . S
H448 C463 0.959 . S
H449 C463 0.961 . S
H450 C464 0.960 . S
H451 C464 0.961 . S
H452 C464 0.959 . S
H453 C467 0.929 . S
H454 C468 0.931 1_565 S
H455 C470 0.930 . S
C456 H444 0.930 . S
C456 C457 1.399 . S
C456 C461 1.399 . S
C457 C456 1.399 . S
C457 C458 1.376 1_545 S
C458 H445 0.930 . S
C458 C457 1.376 1_565 S
C458 C459 1.388 . S
C459 H446 0.930 . S
C459 C458 1.388 . S
C459 C460 1.390 1_565 S
C460 C459 1.390 1_545 S
C460 C461 1.394 . S
C460 C466 1.465 . S
C461 C456 1.399 . S
C461 C460 1.394 . S
C461 C462 1.516 . S
C462 C461 1.516 . S
C462 C463 1.502 . S
C462 C464 1.561 . S
C462 C465 1.526 . S
C463 H447 0.959 . S
C463 H448 0.959 . S
C463 H449 0.961 . S
C463 C462 1.502 . S
C464 H450 0.960 . S
C464 H451 0.961 . S
C464 H452 0.959 . S
C464 C462 1.561 . S
C465 C462 1.526 . S
C465 C466 1.396 . S
C465 C470 1.390 . S
C466 C460 1.465 . S
C466 C465 1.396 . S
C466 C467 1.399 1_545 S
C467 H453 0.929 . S
C467 C466 1.399 1_565 S
C467 C468 1.385 1_565 S
C468 H454 0.931 1_545 S
C468 C467 1.385 1_545 S
C468 C469 1.389 . S
C469 C468 1.389 . S
C469 C470 1.387 . S
C470 H455 0.930 . S
C470 C465 1.390 . S
C470 C469 1.387 . S
H471 C483 0.930 1_554 S
H472 C485 0.930 . S
H473 C486 0.930 . S
H474 C490 0.959 . S
H475 C490 0.959 . S
H476 C490 0.961 . S
H477 C491 0.960 1_554 S
H478 C491 0.961 . S
H479 C491 0.959 . S
H480 C494 0.929 . S
H481 C495 0.931 . S
H482 C497 0.930 . S
C483 H471 0.930 1_556 S
C483 C484 1.399 . S
C483 C488 1.399 . S
C484 C483 1.399 . S
C484 C485 1.376 . S
C485 H472 0.930 . S
C485 C484 1.376 . S
C485 C486 1.388 . S
C486 H473 0.930 . S
C486 C485 1.388 . S
C486 C487 1.390 . S
C487 C486 1.390 . S
C487 C488 1.394 . S
C487 C493 1.465 . S
C488 C483 1.399 . S
C488 C487 1.394 . S
C488 C489 1.516 . S
C489 C488 1.516 . S
C489 C490 1.502 . S
C489 C491 1.561 . S
C489 C492 1.526 . S
C490 H474 0.959 . S
C490 H475 0.959 . S
C490 H476 0.961 . S
C490 C489 1.502 . S
C491 H477 0.960 1_556 S
C491 H478 0.961 . S
C491 H479 0.959 . S
C491 C489 1.561 . S
C492 C489 1.526 . S
C492 C493 1.396 . S
C492 C497 1.390 . S
C493 C487 1.465 . S
C493 C492 1.396 . S
C493 C494 1.399 . S
C494 H480 0.929 . S
C494 C493 1.399 . S
C494 C495 1.385 . S
C495 H481 0.931 . S
C495 C494 1.385 . S
C495 C496 1.389 . S
C496 C495 1.389 . S
C496 C497 1.387 . S
C497 H482 0.930 . S
C497 C492 1.390 . S
C497 C496 1.387 . S
H498 C510 0.930 1_655 S
H499 C512 0.930 . S
H500 C513 0.930 . S
H501 C517 0.959 1_455 S
H502 C517 0.959 . S
H503 C517 0.961 . S
H504 C518 0.960 . S
H505 C518 0.961 . S
H506 C518 0.959 . S
H507 C521 0.929 . S
H508 C522 0.931 . S
H509 C524 0.930 1_655 S
C510 H498 0.930 1_455 S
C510 C511 1.399 . S
C510 C515 1.399 . S
C511 C510 1.399 . S
C511 C512 1.376 . S
C512 H499 0.930 . S
C512 C511 1.376 . S
C512 C513 1.388 . S
C513 H500 0.930 . S
C513 C512 1.388 . S
C513 C514 1.390 . S
C514 C513 1.390 . S
C514 C515 1.394 . S
C514 C520 1.465 . S
C515 C510 1.399 . S
C515 C514 1.394 . S
C515 C516 1.516 1_455 S
C516 C515 1.516 1_655 S
C516 C517 1.502 . S
C516 C518 1.561 . S
C516 C519 1.526 1_655 S
C517 H501 0.959 1_655 S
C517 H502 0.959 . S
C517 H503 0.961 . S
C517 C516 1.502 . S
C518 H504 0.960 . S
C518 H505 0.961 . S
C518 H506 0.959 . S
C518 C516 1.561 . S
C519 C516 1.526 1_455 S
C519 C520 1.396 . S
C519 C524 1.390 . S
C520 C514 1.465 . S
C520 C519 1.396 . S
C520 C521 1.399 . S
C521 H507 0.929 . S
C521 C520 1.399 . S
C521 C522 1.385 . S
C522 H508 0.931 . S
C522 C521 1.385 . S
C522 C523 1.389 . S
C523 C522 1.389 . S
C523 C524 1.387 . S
C524 H509 0.930 1_455 S
C524 C519 1.390 . S
C524 C523 1.387 . S
C226 C64 1.482 . S
C214 C3 1.481 . S
C241 C21 1.524 . S
C253 C134 1.514 . S
C268 C37 1.464 . S
C280 C186 1.494 . S
C295 C8 1.496 . S
C307 C80 1.497 . S
C334 C124 1.498 . S
C322 C23 1.503 . S
C349 C35 1.453 . S
C361 C170 1.500 . S
C388 C117 1.479 . S
C376 C31 1.488 . S
C403 C7 1.449 1_566 S
C415 C177 1.500 . S
C442 C71 1.490 . S
C430 C17 1.497 1_565 S
C469 C133 1.462 . S
C457 C36 1.469 . S
C496 C187 1.502 . S
C484 C9 1.500 1_556 S
C511 C22 1.497 . S
C523 C81 1.488 . S
