# Generated by pormake.
# Topology zzz, (3,6)-cn, num edge types: 1
# Building blocks:
#     Node 0, Type 0, BuildingBlock: OLANEW_clean_sbu_2, # of connection points: 3
#     Node 1, Type 0, BuildingBlock: OLANEW_clean_sbu_2, # of connection points: 3
#     Node 2, Type 0, BuildingBlock: OLANEW_clean_sbu_2, # of connection points: 3
#     Node 3, Type 0, BuildingBlock: OLANEW_clean_sbu_2, # of connection points: 3
#     Node 4, Type 0, BuildingBlock: OLANEW_clean_sbu_2, # of connection points: 3
#     Node 5, Type 0, BuildingBlock: OLANEW_clean_sbu_2, # of connection points: 3
#     Node 6, Type 0, BuildingBlock: OLANEW_clean_sbu_2, # of connection points: 3
#     Node 7, Type 0, BuildingBlock: OLANEW_clean_sbu_2, # of connection points: 3
#     Node 8, Type 1, BuildingBlock: FUNLAD_clean_sbu_0, # of connection points: 6
#     Node 9, Type 1, BuildingBlock: FUNLAD_clean_sbu_0, # of connection points: 6
#     Node 10, Type 1, BuildingBlock: FUNLAD_clean_sbu_0, # of connection points: 6
#     Node 11, Type 1, BuildingBlock: FUNLAD_clean_sbu_0, # of connection points: 6
#     Edge 12, Type (0, 1), BuildingBlock: TEMPAE_clean_linker_10, # of connection points: 2
#     Edge 13, Type (0, 1), BuildingBlock: TEMPAE_clean_linker_10, # of connection points: 2
#     Edge 14, Type (0, 1), BuildingBlock: TEMPAE_clean_linker_10, # of connection points: 2
#     Edge 15, Type (0, 1), BuildingBlock: TEMPAE_clean_linker_10, # of connection points: 2
#     Edge 16, Type (0, 1), BuildingBlock: TEMPAE_clean_linker_10, # of connection points: 2
#     Edge 17, Type (0, 1), BuildingBlock: TEMPAE_clean_linker_10, # of connection points: 2
#     Edge 18, Type (0, 1), BuildingBlock: TEMPAE_clean_linker_10, # of connection points: 2
#     Edge 19, Type (0, 1), BuildingBlock: TEMPAE_clean_linker_10, # of connection points: 2
#     Edge 20, Type (0, 1), BuildingBlock: TEMPAE_clean_linker_10, # of connection points: 2
#     Edge 21, Type (0, 1), BuildingBlock: TEMPAE_clean_linker_10, # of connection points: 2
#     Edge 22, Type (0, 1), BuildingBlock: TEMPAE_clean_linker_10, # of connection points: 2
#     Edge 23, Type (0, 1), BuildingBlock: TEMPAE_clean_linker_10, # of connection points: 2
#     Edge 24, Type (0, 1), BuildingBlock: TEMPAE_clean_linker_10, # of connection points: 2
#     Edge 25, Type (0, 1), BuildingBlock: TEMPAE_clean_linker_10, # of connection points: 2
#     Edge 26, Type (0, 1), BuildingBlock: TEMPAE_clean_linker_10, # of connection points: 2
#     Edge 27, Type (0, 1), BuildingBlock: TEMPAE_clean_linker_10, # of connection points: 2
#     Edge 28, Type (0, 1), BuildingBlock: TEMPAE_clean_linker_10, # of connection points: 2
#     Edge 29, Type (0, 1), BuildingBlock: TEMPAE_clean_linker_10, # of connection points: 2
#     Edge 30, Type (0, 1), BuildingBlock: TEMPAE_clean_linker_10, # of connection points: 2
#     Edge 31, Type (0, 1), BuildingBlock: TEMPAE_clean_linker_10, # of connection points: 2
#     Edge 32, Type (0, 1), BuildingBlock: TEMPAE_clean_linker_10, # of connection points: 2
#     Edge 33, Type (0, 1), BuildingBlock: TEMPAE_clean_linker_10, # of connection points: 2
#     Edge 34, Type (0, 1), BuildingBlock: TEMPAE_clean_linker_10, # of connection points: 2
#     Edge 35, Type (0, 1), BuildingBlock: TEMPAE_clean_linker_10, # of connection points: 2
# Relax obj value: 0.111
# Max RMSD: 0.173
# Mean RMSD: 0.095
data_MOF--net-zzz--node1-OLANEW_clean_sbu_2--node2-FUNLAD_clean_sbu_0--edge1-TEMPAE_clean_linker_10
_symmetry_space_group_name_H-M    P1
_symmetry_Int_Tables_number       1
_symmetry_cell_setting            triclinic
loop_
_symmetry_equiv_pos_as_xyz
'x, y, z'
_cell_length_a     54.948148
_cell_length_b     60.082794
_cell_length_c     19.289135
_cell_angle_alpha  85.791587
_cell_angle_beta   85.735155
_cell_angle_gamma 90.41388
loop_
_atom_site_label
_atom_site_type_symbol
_atom_site_fract_x
_atom_site_fract_y
_atom_site_fract_z
_atom_type_partial_charge
O0 O 0.82725 0.40334 0.06298 0.0
Cd1 Cd 0.789 0.38749 0.11871 0.0
O2 O 0.83693 0.41254 0.16532 0.0
Cd3 Cd 0.85915 0.4289 0.23682 0.0
O4 O 0.88254 0.4424 0.31059 0.0
C5 C 0.89866 0.45732 0.29143 0.0
O6 O 0.90112 0.46495 0.22566 0.0
C7 C 0.84233 0.41211 0.10013 0.0
C8 C 0.74852 0.40226 0.04998 0.0
O9 O 0.75669 0.41317 0.0982 0.0
O10 O 0.75958 0.38441 0.03409 0.0
O11 O 0.88522 0.81248 0.87344 0.0
Cd12 Cd 0.85776 0.78015 0.87992 0.0
O13 O 0.89141 0.80862 0.98502 0.0
Cd14 Cd 0.90651 0.82277 0.07387 0.0
O15 O 0.91911 0.84562 0.14674 0.0
C16 C 0.91742 0.86649 0.13175 0.0
O17 O 0.90823 0.87343 0.07313 0.0
C18 C 0.89552 0.81894 0.92538 0.0
C19 C 0.88347 0.74064 0.86791 0.0
O20 O 0.87579 0.74676 0.92787 0.0
O21 O 0.87895 0.75315 0.81381 0.0
O22 O 0.7156 0.02899 0.99733 0.0
Cd23 Cd 0.74976 0.02596 0.07129 0.0
O24 O 0.69571 0.05098 0.06734 0.0
Cd25 Cd 0.71778 0.043 0.15469 0.0
O26 O 0.69894 0.0264 0.248 0.0
C27 C 0.68292 0.01216 0.23532 0.0
O28 O 0.68115 0.00748 0.17038 0.0
C29 C 0.69742 0.04134 0.01076 0.0
C30 C 0.79439 0.02329 0.99368 0.0
O31 O 0.78237 0.00562 0.0172 0.0
O32 O 0.78522 0.04223 0.0067 0.0
O33 O 0.59426 0.6788 0.88567 0.0
Cd34 Cd 0.62241 0.70789 0.91284 0.0
O35 O 0.59896 0.66379 0.99054 0.0
Cd36 Cd 0.59496 0.63676 0.07265 0.0
O37 O 0.58916 0.61053 0.15636 0.0
C38 C 0.59447 0.61437 0.21738 0.0
O39 O 0.60364 0.63399 0.2279 0.0
C40 C 0.58908 0.66336 0.93309 0.0
C41 C 0.60179 0.74985 0.89498 0.0
O42 O 0.61478 0.74165 0.84529 0.0
O43 O 0.59866 0.73818 0.95338 0.0
O44 O 0.21048 0.64538 0.46742 0.0
Cd45 Cd 0.24712 0.65972 0.39961 0.0
O46 O 0.20765 0.62604 0.37669 0.0
Cd47 Cd 0.19265 0.60042 0.31686 0.0
O48 O 0.17323 0.58254 0.24335 0.0
C49 C 0.15798 0.56694 0.26309 0.0
O50 O 0.15446 0.56072 0.32983 0.0
C51 C 0.19945 0.63061 0.43735 0.0
C52 C 0.28485 0.63205 0.43763 0.0
O53 O 0.28286 0.65153 0.46025 0.0
O54 O 0.26959 0.62596 0.39552 0.0
O55 O 0.11541 0.19844 0.59114 0.0
Cd56 Cd 0.13633 0.2327 0.541 0.0
O57 O 0.10564 0.19674 0.4837 0.0
Cd58 Cd 0.0913 0.1779 0.40335 0.0
O59 O 0.083 0.15243 0.33405 0.0
C60 C 0.09057 0.13274 0.34727 0.0
O61 O 0.10302 0.12853 0.40222 0.0
C62 C 0.10462 0.18837 0.54627 0.0
C63 C 0.12357 0.27192 0.60277 0.0
O64 O 0.10952 0.26313 0.56191 0.0
O65 O 0.1434 0.26192 0.61599 0.0
O66 O 0.29992 0.91957 0.47871 0.0
Cd67 Cd 0.26079 0.90997 0.43629 0.0
O68 O 0.30139 0.94958 0.40611 0.0
Cd69 Cd 0.32296 0.97724 0.3526 0.0
O70 O 0.34991 0.99221 0.27364 0.0
C71 C 0.34532 0.99116 0.21035 0.0
O72 O 0.32432 0.9825 0.19673 0.0
C73 C 0.31096 0.93721 0.45262 0.0
C74 C 0.22137 0.92817 0.51106 0.0
O75 O 0.22891 0.90853 0.52825 0.0
O76 O 0.23266 0.93925 0.4589 0.0
O77 O 0.51462 0.31387 0.34053 0.0
Cd78 Cd 0.5195 0.28266 0.26734 0.0
O79 O 0.4748 0.31265 0.3366 0.0
Cd80 Cd 0.43978 0.32959 0.34502 0.0
O81 O 0.42473 0.35775 0.28574 0.0
C82 C 0.4186 0.35417 0.22529 0.0
O83 O 0.41851 0.33352 0.20706 0.0
C84 C 0.49374 0.32169 0.35696 0.0
C85 C 0.51203 0.24207 0.34492 0.0
O86 O 0.53305 0.25171 0.33835 0.0
O87 O 0.49451 0.25168 0.31464 0.0
C88 C 0.00059 0.95402 0.79713 0.0
N89 N 0.99659 0.98321 0.59495 0.0
C90 C 0.00633 0.96405 0.57214 0.0
C91 C 0.9986 0.95533 0.51241 0.0
C92 C 0.98031 0.96614 0.47634 0.0
C93 C 0.97071 0.98604 0.50018 0.0
C94 C 0.97933 0.99445 0.55971 0.0
Zn95 Zn 0.00684 0.99289 0.68844 0.0
C96 C 0.96541 0.00861 0.77795 0.0
N97 N 0.02858 0.00939 0.88663 0.0
C98 C 0.0461 0.99835 0.92139 0.0
C99 C 0.01799 0.02797 0.91107 0.0
C100 C 0.02492 0.03617 0.97236 0.0
C101 C 0.04335 0.02551 0.00812 0.0
C102 C 0.05402 0.00635 0.98234 0.0
Zn103 Zn 0.01855 -4e-05 0.79295 0.0
O104 O 0.99794 0.96037 0.73385 0.0
C105 C 0.05974 0.98347 0.70395 0.0
O106 O 0.00965 0.96742 0.83658 0.0
H107 H 0.00454 0.03686 0.88209 0.0
H108 H 0.01959 0.95503 0.60151 0.0
H109 H 0.05431 0.98364 0.90106 0.0
O110 O 0.04286 0.98301 0.66258 0.0
O111 O 0.055 0.99022 0.76438 0.0
H112 H 0.97176 0.0096 0.57878 0.0
O113 O 0.02677 0.03262 0.74871 0.0
O114 O 0.0162 0.02563 0.64467 0.0
O115 O 0.98222 0.00905 0.81956 0.0
O116 O 0.97052 0.00281 0.71654 0.0
C117 C 0.02444 0.03912 0.68541 0.0
H118 H 0.00613 0.93974 0.49632 0.0
H119 H 0.95653 0.9948 0.47358 0.0
H120 H 0.01664 0.05125 0.99015 0.0
H121 H 0.06842 0.99783 0.00867 0.0
C122 C 0.4698 0.97995 0.63488 0.0
N123 N 0.49869 0.04424 0.64585 0.0
C124 C 0.4939 0.04776 0.57778 0.0
C125 C 0.49224 0.06939 0.54734 0.0
C126 C 0.49593 0.08768 0.58691 0.0
C127 C 0.50005 0.08355 0.65775 0.0
C128 C 0.50128 0.06158 0.68636 0.0
Zn129 Zn 0.50476 0.01236 0.68377 0.0
C130 C 0.47668 -0.00021 0.81883 0.0
N131 N 0.51881 0.94556 0.75846 0.0
C132 C 0.51865 0.92922 0.71328 0.0
C133 C 0.52451 0.94109 0.82548 0.0
C134 C 0.531 0.91955 0.84881 0.0
C135 C 0.53145 0.90247 0.8028 0.0
C136 C 0.52486 0.90745 0.73452 0.0
Zn137 Zn 0.51201 0.97748 0.72256 0.0
O138 O 0.47538 0.00058 0.63053 0.0
C139 C 0.54065 0.99026 0.58872 0.0
O140 O 0.48222 0.96619 0.67036 0.0
H141 H 0.52447 0.95434 0.86054 0.0
H142 H 0.49202 0.03376 0.54634 0.0
H143 H 0.51422 0.93318 0.66012 0.0
O144 O 0.52918 0.00829 0.59624 0.0
O145 O 0.53663 0.9739 0.6338 0.0
H146 H 0.50512 0.0584 0.74035 0.0
O147 O 0.54137 0.98914 0.77491 0.0
O148 O 0.53452 0.02362 0.7366 0.0
O149 O 0.48783 0.9816 0.81057 0.0
O150 O 0.48035 0.01609 0.77315 0.0
C151 C 0.54708 0.00973 0.77122 0.0
H152 H 0.48854 0.07175 0.49294 0.0
H153 H 0.50323 0.09711 0.69012 0.0
H154 H 0.53579 0.91632 0.90204 0.0
H155 H 0.52529 0.89482 0.69718 0.0
C156 C 0.49679 0.45238 0.65298 0.0
N157 N 0.4532 0.50878 0.682 0.0
C158 C 0.45213 0.51285 0.612 0.0
C159 C 0.43248 0.52421 0.58527 0.0
C160 C 0.41304 0.53081 0.63057 0.0
C161 C 0.41407 0.52527 0.70256 0.0
C162 C 0.43455 0.51455 0.72728 0.0
Zn163 Zn 0.48449 0.49531 0.71748 0.0
C164 C 0.47647 0.46494 0.84321 0.0
N165 N 0.5514 0.46823 0.78245 0.0
C166 C 0.56911 0.46043 0.7377 0.0
C167 C 0.55434 0.46824 0.85188 0.0
C168 C 0.57573 0.46027 0.87879 0.0
C169 C 0.5944 0.45226 0.83391 0.0
C170 C 0.59091 0.45239 0.76245 0.0
Zn171 Zn 0.51988 0.48107 0.74709 0.0
O172 O 0.48098 0.46775 0.65472 0.0
C173 C 0.52782 0.51155 0.62158 0.0
O174 O 0.51532 0.45357 0.68826 0.0
H175 H 0.54015 0.47467 0.88653 0.0
H176 H 0.46688 0.50783 0.57651 0.0
H177 H 0.56638 0.46057 0.68272 0.0
O178 O 0.50497 0.51315 0.63488 0.0
O179 O 0.53983 0.49846 0.66057 0.0
H180 H 0.43569 0.51115 0.78276 0.0
O181 O 0.52408 0.50881 0.80511 0.0
O182 O 0.48889 0.5229 0.77938 0.0
O183 O 0.49953 0.46393 0.83238 0.0
O184 O 0.46452 0.47721 0.80172 0.0
C185 C 0.50851 0.52423 0.81002 0.0
H186 H 0.43309 0.52831 0.52962 0.0
H187 H 0.39939 0.52933 0.73987 0.0
H188 H 0.57781 0.46078 0.93406 0.0
H189 H 0.6048 0.44619 0.72619 0.0
C190 C 0.0641 0.53704 0.69622 0.0
N191 N 0.05686 0.46799 0.75675 0.0
C192 C 0.06999 0.46529 0.6954 0.0
C193 C 0.08056 0.44477 0.68259 0.0
C194 C 0.07697 0.42647 0.73234 0.0
C195 C 0.06378 0.42998 0.79593 0.0
C196 C 0.05418 0.45097 0.80741 0.0
Zn197 Zn 0.03866 0.49732 0.77028 0.0
C198 C 0.05297 0.51945 0.8936 0.0
N199 N -0.00085 0.55752 0.79734 0.0
C200 C 0.9935 0.57051 0.74005 0.0
C201 C 0.99282 0.5636 0.86284 0.0
C202 C 0.98055 0.58353 0.87256 0.0
C203 C 0.97431 0.59703 0.81434 0.0
C204 C 0.98077 0.59032 0.74745 0.0
Zn205 Zn 0.01767 0.52848 0.7845 0.0
O206 O 0.06685 0.51619 0.70963 0.0
C207 C 0.00363 0.5059 0.66089 0.0
O208 O 0.04483 0.54624 0.72011 0.0
H209 H 0.99728 0.55298 0.90771 0.0
H210 H 0.07187 0.47891 0.65545 0.0
H211 H 0.99891 0.56554 0.68846 0.0
O212 O 0.02045 0.49291 0.67966 0.0
O213 O 0.99817 0.52245 0.69625 0.0
H214 H 0.04392 0.4534 0.85621 0.0
O215 O 0.99064 0.51075 0.84919 0.0
O216 O 0.00965 0.47951 0.83106 0.0
O217 O 0.03759 0.53357 0.87205 0.0
O218 O 0.05684 0.50199 0.8612 0.0
C219 C 0.99168 0.48967 0.859 0.0
H220 H 0.09112 0.44331 0.63353 0.0
H221 H 0.06008 0.41654 0.83586 0.0
H222 H 0.97568 0.58821 0.92493 0.0
H223 H 0.97634 0.60048 0.70145 0.0
C224 C 0.18507 0.92384 0.59751 0.0
C225 C 0.19964 0.93741 0.54839 0.0
C226 C 0.16324 0.93177 0.62865 0.0
C227 C 0.15592 0.95385 0.61063 0.0
C228 C 0.17111 0.96796 0.56354 0.0
C229 C 0.19274 0.95954 0.53273 0.0
C230 C 0.14745 0.91618 0.67831 0.0
C231 C 0.16402 0.99167 0.54349 0.0
C232 C 0.08814 0.96551 0.61862 0.0
C233 C 0.08446 0.97593 0.68125 0.0
C234 C 0.11127 0.95818 0.59551 0.0
C235 C 0.13134 0.96148 0.63566 0.0
C236 C 0.12783 0.97201 0.69892 0.0
C237 C 0.10436 0.97904 0.7212 0.0
C238 C 0.11419 0.94686 0.528 0.0
C239 C 0.14888 0.97594 0.74273 0.0
H240 H 0.1903 0.90673 0.61003 0.0
H241 H 0.204 0.97019 0.49527 0.0
H242 H 0.14239 0.92419 0.72726 0.0
H243 H 0.13026 0.91243 0.65447 0.0
H244 H 0.15667 0.90019 0.69143 0.0
H245 H 0.17891 0.00112 0.51173 0.0
H246 H 0.1477 0.9916 0.51292 0.0
H247 H 0.1591 0.00061 0.59079 0.0
H248 H 0.07286 0.96293 0.58754 0.0
H249 H 0.10166 0.98711 0.76957 0.0
H250 H 0.12175 0.92993 0.53752 0.0
H251 H 0.12731 0.95646 0.49049 0.0
H252 H 0.09665 0.9453 0.5035 0.0
H253 H 0.15738 0.95983 0.75825 0.0
H254 H 0.14311 0.98436 0.79056 0.0
H255 H 0.16312 0.98638 0.71178 0.0
C256 C 0.52625 0.21173 0.42734 0.0
C257 C 0.50827 0.22026 0.38517 0.0
C258 C 0.52338 0.19069 0.46369 0.0
C259 C 0.50216 0.17777 0.45695 0.0
C260 C 0.48375 0.18644 0.41545 0.0
C261 C 0.48696 0.20767 0.38034 0.0
C262 C 0.54329 0.18208 0.50814 0.0
C263 C 0.461 0.17302 0.40643 0.0
C264 C 0.50813 0.11507 0.48603 0.0
C265 C 0.49679 0.11078 0.55338 0.0
C266 C 0.50965 0.13674 0.45379 0.0
C267 C 0.49992 0.15468 0.4901 0.0
C268 C 0.48847 0.15055 0.55808 0.0
C269 C 0.48694 0.12862 0.58882 0.0
C270 C 0.52191 0.14047 0.38107 0.0
C271 C 0.47805 0.16933 0.59848 0.0
H272 H 0.54268 0.22147 0.43171 0.0
H273 H 0.47301 0.21416 0.34776 0.0
H274 H 0.53551 0.1769 0.56167 0.0
H275 H 0.55164 0.16712 0.48616 0.0
H276 H 0.5579 0.19476 0.51141 0.0
H277 H 0.44791 0.18257 0.37498 0.0
H278 H 0.46603 0.15769 0.38025 0.0
H279 H 0.4517 0.16765 0.45802 0.0
H280 H 0.51628 0.10151 0.45877 0.0
H281 H 0.47793 0.12543 0.64054 0.0
H282 H 0.53821 0.15144 0.38169 0.0
H283 H 0.50932 0.14906 0.34584 0.0
H284 H 0.52773 0.12461 0.35904 0.0
H285 H 0.49266 0.18166 0.60522 0.0
H286 H 0.46968 0.16331 0.65077 0.0
H287 H 0.464 0.17821 0.56905 0.0
C288 C 0.32766 0.62348 0.46307 0.0
C289 C 0.30333 0.61653 0.46266 0.0
C290 C 0.34527 0.60881 0.48827 0.0
C291 C 0.33803 0.58713 0.51663 0.0
C292 C 0.31333 0.58021 0.51707 0.0
C293 C 0.29634 0.59488 0.48857 0.0
C294 C 0.37161 0.61646 0.48439 0.0
C295 C 0.3047 0.55762 0.54949 0.0
C296 C 0.3857 0.54211 0.53481 0.0
C297 C 0.39254 0.5442 0.60292 0.0
C298 C 0.3682 0.55611 0.50582 0.0
C299 C 0.35625 0.57186 0.54694 0.0
C300 C 0.36204 0.57335 0.61669 0.0
C301 C 0.38045 0.55991 0.64327 0.0
C302 C 0.363 0.55444 0.43054 0.0
C303 C 0.34902 0.58941 0.66305 0.0
H304 H 0.33294 0.64025 0.44263 0.0
H305 H 0.27738 0.58973 0.48883 0.0
H306 H 0.37771 0.61722 0.53768 0.0
H307 H 0.3834 0.60432 0.45757 0.0
H308 H 0.37446 0.63319 0.45621 0.0
H309 H 0.28478 0.55497 0.54652 0.0
H310 H 0.31455 0.54419 0.5231 0.0
H311 H 0.30883 0.55591 0.60507 0.0
H312 H 0.39416 0.52967 0.50341 0.0
H313 H 0.38566 0.56219 0.69533 0.0
H314 H 0.36647 0.57086 0.401 0.0
H315 H 0.34352 0.55008 0.4269 0.0
H316 H 0.37441 0.54174 0.405 0.0
H317 H 0.3538 0.60682 0.64354 0.0
H318 H 0.35386 0.5869 0.71795 0.0
H319 H 0.32896 0.5874 0.66198 0.0
C320 C 0.13628 0.30897 0.63931 0.0
C321 C 0.11762 0.29362 0.63064 0.0
C322 C 0.13082 0.33055 0.65872 0.0
C323 C 0.10614 0.33661 0.67206 0.0
C324 C 0.08729 0.32076 0.66662 0.0
C325 C 0.09325 0.29957 0.64466 0.0
C326 C 0.15139 0.34718 0.66171 0.0
C327 C 0.06081 0.32631 0.68264 0.0
C328 C 0.09216 0.38819 0.77045 0.0
C329 C 0.08582 0.40372 0.71678 0.0
C330 C 0.09871 0.36628 0.75686 0.0
C331 C 0.09989 0.35989 0.68757 0.0
C332 C 0.09446 0.37561 0.63282 0.0
C333 C 0.08705 0.39711 0.64817 0.0
C334 C 0.10379 0.34982 0.81688 0.0
C335 C 0.09611 0.36963 0.55789 0.0
H336 H 0.15513 0.30443 0.6278 0.0
H337 H 0.07883 0.28764 0.63839 0.0
H338 H 0.14963 0.36115 0.62148 0.0
H339 H 0.15038 0.35444 0.71303 0.0
H340 H 0.16961 0.33957 0.65271 0.0
H341 H 0.04862 0.31148 0.68261 0.0
H342 H 0.05828 0.33331 0.73431 0.0
H343 H 0.05506 0.33922 0.64328 0.0
H344 H 0.0919 0.39304 0.82346 0.0
H345 H 0.08171 0.40853 0.60612 0.0
H346 H 0.12253 0.34325 0.80922 0.0
H347 H 0.091 0.33537 0.81881 0.0
H348 H 0.10187 0.35735 0.86788 0.0
H349 H 0.1142 0.36238 0.5441 0.0
H350 H 0.0934 0.38431 0.52089 0.0
H351 H 0.08207 0.35681 0.55089 0.0
C352 C 0.83047 0.04124 0.92374 0.0
C353 C 0.81845 0.02186 0.95427 0.0
C354 C 0.85383 0.04022 0.88933 0.0
C355 C 0.8655 0.01937 0.88591 0.0
C356 C 0.85321 -0.00031 0.91514 0.0
C357 C 0.8298 0.00117 0.94873 0.0
C358 C 0.86628 0.06154 0.85833 0.0
C359 C 0.86513 0.97715 0.91295 0.0
C360 C 0.92081 0.01196 0.75934 0.0
C361 C 0.93996 0.01324 0.80315 0.0
C362 C 0.89645 0.01448 0.78503 0.0
C363 C 0.89118 0.01824 0.85619 0.0
C364 C 0.91048 0.0201 0.90013 0.0
C365 C 0.9346 0.01767 0.87305 0.0
C366 C 0.87633 0.01259 0.73653 0.0
C367 C 0.90563 0.024 0.9764 0.0
H368 H 0.82176 0.05728 0.92741 0.0
H369 H 0.82063 0.98612 0.97209 0.0
H370 H 0.88256 0.06491 0.88687 0.0
H371 H 0.87275 0.05982 0.80313 0.0
H372 H 0.85404 0.07614 0.86071 0.0
H373 H 0.85265 0.96334 0.9348 0.0
H374 H 0.8713 0.97399 0.85852 0.0
H375 H 0.88155 0.97688 0.94321 0.0
H376 H 0.9248 0.00857 0.70527 0.0
H377 H 0.94926 0.01871 0.90737 0.0
H378 H 0.86441 0.0274 0.73833 0.0
H379 H 0.86473 0.99772 0.75372 0.0
H380 H 0.88353 0.01108 0.68174 0.0
H381 H 0.89469 0.03928 0.98227 0.0
H382 H 0.92273 0.0258 0.00293 0.0
H383 H 0.89482 0.00982 0.0034 0.0
C384 C 0.57462 0.78007 0.9373 0.0
C385 C 0.5907 0.77211 0.88506 0.0
C386 C 0.5639 0.80112 0.92819 0.0
C387 C 0.56954 0.81454 0.86558 0.0
C388 C 0.5858 0.80662 0.81277 0.0
C389 C 0.59612 0.78547 0.82306 0.0
C390 C 0.54653 0.80899 0.98544 0.0
C391 C 0.59234 0.82052 0.7454 0.0
C392 C 0.52759 0.86086 0.80636 0.0
C393 C 0.53997 0.87984 0.82437 0.0
C394 C 0.5366 0.83941 0.82151 0.0
C395 C 0.55858 0.83694 0.85502 0.0
C396 C 0.57078 0.856 0.87509 0.0
C397 C 0.56128 0.87724 0.85965 0.0
C398 C 0.52295 0.81944 0.79997 0.0
C399 C 0.59434 0.85403 0.91058 0.0
H400 H 0.57029 0.76981 0.98528 0.0
H401 H 0.60855 0.77946 0.78251 0.0
H402 H 0.55353 0.82472 0.00377 0.0
H403 H 0.52852 0.81265 0.96508 0.0
H404 H 0.54389 0.79645 0.03072 0.0
H405 H 0.60538 0.81197 0.70974 0.0
H406 H 0.57563 0.82437 0.71813 0.0
H407 H 0.60059 0.83666 0.75655 0.0
H408 H 0.51094 0.86282 0.7798 0.0
H409 H 0.57105 0.89189 0.87296 0.0
H410 H 0.51926 0.80708 0.84521 0.0
H411 H 0.53432 0.81111 0.7598 0.0
H412 H 0.50534 0.82411 0.77843 0.0
H413 H 0.59198 0.84219 0.95756 0.0
H414 H 0.6008 0.87034 0.92635 0.0
H415 H 0.60873 0.84725 0.87481 0.0
C416 C 0.7154 0.42992 0.0303 0.0
C417 C 0.72671 0.40986 0.01451 0.0
C418 C 0.69432 0.43699 0.9986 0.0
C419 C 0.68424 0.42363 0.95016 0.0
C420 C 0.69573 0.40351 0.93332 0.0
C421 C 0.71685 0.39688 0.9656 0.0
C422 C 0.68264 0.45861 0.01767 0.0
C423 C 0.68547 0.38881 0.88205 0.0
C424 C 0.61684 0.43052 0.92415 0.0
C425 C 0.61746 0.44417 0.86184 0.0
C426 C 0.63845 0.42352 0.953 0.0
C427 C 0.66125 0.43039 0.9188 0.0
C428 C 0.66201 0.44394 0.85541 0.0
C429 C 0.64009 0.45063 0.82758 0.0
C430 C 0.63687 0.40895 0.02044 0.0
C431 C 0.68598 0.45168 0.81767 0.0
H432 H 0.72294 0.44008 0.06785 0.0
H433 H 0.72547 0.38137 0.95306 0.0
H434 H 0.68093 0.46984 0.97004 0.0
H435 H 0.66394 0.45524 0.04215 0.0
H436 H 0.69323 0.46746 0.05436 0.0
H437 H 0.69695 0.37399 0.87316 0.0
H438 H 0.66683 0.38298 0.90156 0.0
H439 H 0.68389 0.39845 0.83133 0.0
H440 H 0.59939 0.42525 0.95034 0.0
H441 H 0.64066 0.46139 0.77984 0.0
H442 H 0.64563 0.41761 0.06115 0.0
H443 H 0.64692 0.39324 0.01323 0.0
H444 H 0.61772 0.40469 0.03965 0.0
H445 H 0.69618 0.46199 0.85145 0.0
H446 H 0.68344 0.46168 0.76801 0.0
H447 H 0.69746 0.4371 0.8061 0.0
C448 C 0.91276 0.71697 0.80175 0.0
C449 C 0.8971 0.71969 0.86119 0.0
C450 C 0.92586 0.69721 0.79461 0.0
C451 C 0.9227 0.67954 0.84735 0.0
C452 C 0.90674 0.68213 0.90724 0.0
C453 C 0.89437 0.70232 0.91387 0.0
C454 C 0.94316 0.69526 0.73079 0.0
C455 C 0.90247 0.66348 0.9638 0.0
C456 C 0.93857 0.6214 0.79473 0.0
C457 C 0.96105 0.61804 0.8233 0.0
C458 C 0.92568 0.64121 0.80316 0.0
C459 C 0.9359 0.65824 0.83945 0.0
C460 C 0.95877 0.65497 0.86776 0.0
C461 C 0.97095 0.63474 0.86009 0.0
C462 C 0.90109 0.64387 0.77363 0.0
C463 C 0.97052 0.67293 0.9053 0.0
H464 H 0.91505 0.73046 0.76117 0.0
H465 H 0.88214 0.70433 0.95968 0.0
H466 H 0.96172 0.69125 0.74664 0.0
H467 H 0.93718 0.68141 0.70082 0.0
H468 H 0.94424 0.71085 0.6959 0.0
H469 H 0.88917 0.66804 0.00649 0.0
H470 H 0.89554 0.64839 0.94135 0.0
H471 H 0.91991 0.65895 0.98634 0.0
H472 H 0.93092 0.60834 0.76668 0.0
H473 H 0.98846 0.6321 0.88169 0.0
H474 H 0.90163 0.65826 0.73407 0.0
H475 H 0.88705 0.64744 0.81559 0.0
H476 H 0.89536 0.62874 0.74894 0.0
H477 H 0.97292 0.68844 0.87039 0.0
H478 H 0.9886 0.6679 0.923 0.0
H479 H 0.95851 0.67697 0.95135 0.0
C480 C 0.10298 0.14975 0.6038 0.0
C481 C 0.09178 0.1669 0.5653 0.0
C482 C 0.09127 0.12892 0.61937 0.0
C483 C 0.06745 0.12551 0.59807 0.0
C484 C 0.05594 0.143 0.56014 0.0
C485 C 0.06841 0.16339 0.54333 0.0
C486 C 0.10446 0.1105 0.65813 0.0
C487 C 0.03031 0.14032 0.53842 0.0
C488 C 0.04452 0.06574 0.5928 0.0
C489 C 0.03285 0.0618 0.65962 0.0
C490 C 0.05567 0.0865 0.57159 0.0
C491 C 0.05438 0.10388 0.61757 0.0
C492 C 0.04143 0.10027 0.68375 0.0
C493 C 0.0312 0.07915 0.70443 0.0
C494 C 0.06969 0.08948 0.50127 0.0
C495 C 0.03886 0.11856 0.73341 0.0
H496 H 0.12115 0.15247 0.62017 0.0
H497 H 0.05971 0.17678 0.51399 0.0
H498 H 0.09442 0.10585 0.70922 0.0
H499 H 0.10511 0.0954 0.62819 0.0
H500 H 0.12341 0.11542 0.66734 0.0
H501 H 0.02376 0.15573 0.51065 0.0
H502 H 0.02947 0.12645 0.50378 0.0
H503 H 0.01763 0.13594 0.58502 0.0
H504 H 0.04601 0.05224 0.55843 0.0
H505 H 0.02204 0.07612 0.75608 0.0
H506 H 0.08907 0.09355 0.50797 0.0
H507 H 0.06224 0.10362 0.46962 0.0
H508 H 0.06898 0.07429 0.47189 0.0
H509 H 0.05697 0.12268 0.75127 0.0
H510 H 0.02629 0.11369 0.77993 0.0
H511 H 0.03195 0.13394 0.70655 0.0
C512 C 0.35495 0.92932 0.46284 0.0
C513 C 0.33493 0.94311 0.47511 0.0
C514 C 0.37796 0.93495 0.48404 0.0
C515 C 0.38059 0.95432 0.52065 0.0
C516 C 0.36023 0.96817 0.53347 0.0
C517 C 0.3377 0.96259 0.50926 0.0
C518 C 0.39943 0.92023 0.46721 0.0
C519 C 0.36209 0.98857 0.57421 0.0
C520 C 0.43228 0.95644 0.63999 0.0
C521 C 0.44801 0.9723 0.60309 0.0
C522 C 0.41027 0.95039 0.61364 0.0
C523 C 0.4044 0.9598 0.54756 0.0
C524 C 0.42079 0.97514 0.50877 0.0
C525 C 0.44221 0.9816 0.53778 0.0
C526 C 0.39288 0.93461 0.65768 0.0
C527 C 0.41558 0.98489 0.43707 0.0
H528 H 0.35265 0.91435 0.43574 0.0
H529 H 0.32204 0.97314 0.51861 0.0
H530 H 0.41462 0.93038 0.43951 0.0
H531 H 0.40626 0.91261 0.51605 0.0
H532 H 0.39467 0.90666 0.43432 0.0
H533 H 0.34438 0.99724 0.58107 0.0
H534 H 0.36841 0.98371 0.62646 0.0
H535 H 0.37576 0.00052 0.54728 0.0
H536 H 0.43672 0.94948 0.69093 0.0
H537 H 0.45451 0.9938 0.50925 0.0
H538 H 0.38898 0.91981 0.62901 0.0
H539 H 0.37526 0.94303 0.66884 0.0
H540 H 0.4002 0.92881 0.70798 0.0
H541 H 0.41131 0.97135 0.40355 0.0
H542 H 0.43121 0.99494 0.41126 0.0
H543 H 0.39937 0.99575 0.4408 0.0
C544 C 0.50955 0.35876 0.38395 0.0
C545 C 0.49183 0.34179 0.3964 0.0
C546 C 0.50876 0.37748 0.42335 0.0
C547 C 0.49014 0.37893 0.4776 0.0
C548 C 0.47202 0.36193 0.48983 0.0
C549 C 0.47301 0.34359 0.44869 0.0
C550 C 0.52817 0.39546 0.40795 0.0
C551 C 0.45217 0.36268 0.54807 0.0
C552 C 0.50643 0.41349 0.62457 0.0
C553 C 0.49398 0.43335 0.6098 0.0
C554 C 0.50474 0.39545 0.58301 0.0
C555 C 0.49066 0.39749 0.52438 0.0
C556 C 0.47787 0.41744 0.50946 0.0
C557 C 0.47948 0.43509 0.55287 0.0
C558 C 0.51828 0.37429 0.60142 0.0
C559 C 0.46302 0.42033 0.44669 0.0
H560 H 0.52407 0.35737 0.3433 0.0
H561 H 0.45958 0.33023 0.45918 0.0
H562 H 0.51959 0.41205 0.40073 0.0
H563 H 0.53966 0.39595 0.45274 0.0
H564 H 0.54018 0.39268 0.36054 0.0
H565 H 0.43868 0.34881 0.54816 0.0
H566 H 0.46042 0.36163 0.59898 0.0
H567 H 0.44239 0.37875 0.5436 0.0
H568 H 0.51749 0.412 0.6689 0.0
H569 H 0.46993 0.45048 0.54111 0.0
H570 H 0.53247 0.37138 0.55917 0.0
H571 H 0.50554 0.35975 0.6063 0.0
H572 H 0.52726 0.37495 0.65099 0.0
H573 H 0.4751 0.41916 0.3984 0.0
H574 H 0.45359 0.43663 0.44349 0.0
H575 H 0.44916 0.40676 0.44826 0.0
C576 C 0.17839 0.61255 0.54597 0.0
C577 C 0.17856 0.61802 0.47408 0.0
C578 C 0.15954 0.59939 0.58135 0.0
C579 C 0.14029 0.59174 0.54394 0.0
C580 C 0.14004 0.59774 0.47163 0.0
C581 C 0.1592 0.61086 0.43755 0.0
C582 C 0.16038 0.59343 0.65857 0.0
C583 C 0.11952 0.59032 0.43037 0.0
C584 C 0.104 0.54091 0.62397 0.0
C585 C 0.0833 0.5508 0.65504 0.0
C586 C 0.12254 0.55403 0.58665 0.0
C587 C 0.12037 0.57756 0.58074 0.0
C588 C 0.09942 0.5876 0.61135 0.0
C589 C 0.08112 0.57411 0.64792 0.0
C590 C 0.14457 0.54275 0.55408 0.0
C591 C 0.09649 0.61264 0.60648 0.0
H592 H 0.19336 0.61811 0.57428 0.0
H593 H 0.15885 0.61574 0.38247 0.0
H594 H 0.14357 0.59915 0.68709 0.0
H595 H 0.16105 0.57503 0.66871 0.0
H596 H 0.17644 0.60097 0.68013 0.0
H597 H 0.12232 0.596 0.3742 0.0
H598 H 0.11783 0.57185 0.43533 0.0
H599 H 0.10196 0.59698 0.45159 0.0
H600 H 0.10578 0.52292 0.62901 0.0
H601 H 0.0652 0.58192 0.67181 0.0
H602 H 0.16131 0.54844 0.5767 0.0
H603 H 0.14669 0.5475 0.49724 0.0
H604 H 0.14325 0.52427 0.56215 0.0
H605 H 0.11139 0.62054 0.63219 0.0
H606 H 0.07873 0.61777 0.63137 0.0
H607 H 0.09791 0.61926 0.55111 0.0
C608 C 0.90498 0.85801 0.87913 0.0
C609 C 0.91202 0.83852 0.91617 0.0
C610 C 0.92091 0.87646 0.86714 0.0
C611 C 0.94474 0.87502 0.89056 0.0
C612 C 0.95184 0.85537 0.92853 0.0
C613 C 0.93522 0.83741 0.94165 0.0
C614 C 0.91236 0.89738 0.82837 0.0
C615 C 0.97725 0.85296 0.95268 0.0
C616 C 0.98897 0.91462 0.78269 0.0
C617 C 0.99024 0.93229 0.82578 0.0
C618 C 0.97556 0.89514 0.80527 0.0
C619 C 0.96246 0.89369 0.87155 0.0
C620 C 0.96459 0.91112 0.91642 0.0
C621 C 0.97878 0.93012 0.89331 0.0
C622 C 0.97442 0.87662 0.75672 0.0
C623 C 0.95055 0.91044 0.98679 0.0
H624 H 0.88695 0.85882 0.85979 0.0
H625 H 0.94069 0.82216 0.96958 0.0
H626 H 0.91553 0.91212 0.85814 0.0
H627 H 0.92299 0.90011 0.77723 0.0
H628 H 0.89267 0.89647 0.81913 0.0
H629 H 0.97944 0.8371 0.9849 0.0
H630 H 0.99069 0.8534 0.90668 0.0
H631 H 0.98178 0.86709 0.98349 0.0
H632 H 0.99794 0.91627 0.73053 0.0
H633 H 0.97955 0.94391 0.92638 0.0
H634 H 0.95602 0.87599 0.73685 0.0
H635 H 0.9775 0.86024 0.78496 0.0
H636 H 0.98813 0.87901 0.7114 0.0
H637 H 0.9307 0.91103 0.97969 0.0
H638 H 0.95543 0.92461 0.01721 0.0
H639 H 0.95397 0.89461 0.0176 0.0
C640 C 0.67823 0.03201 0.90252 0.0
C641 C 0.67665 0.04209 0.96598 0.0
C642 C 0.65743 0.02927 0.86575 0.0
C643 C 0.63453 0.03653 0.89366 0.0
C644 C 0.6331 0.04791 0.95544 0.0
C645 C 0.65421 0.0507 0.99059 0.0
C646 C 0.65973 0.01743 0.79922 0.0
C647 C 0.609 0.05577 0.98715 0.0
C648 C 0.57989 0.03794 0.78364 0.0
C649 C 0.56879 0.01717 0.80439 0.0
C650 C 0.60143 0.04449 0.81187 0.0
C651 C 0.61179 0.03007 0.86273 0.0
C652 C 0.60037 0.00929 0.88479 0.0
C653 C 0.57912 0.00303 0.85495 0.0
C654 C 0.61329 0.06664 0.78655 0.0
C655 C 0.61065 0.9936 0.93978 0.0
H656 H 0.69553 0.02548 0.88285 0.0
H657 H 0.65278 0.05855 0.03953 0.0
H658 H 0.65112 0.00062 0.80855 0.0
H659 H 0.65001 0.0267 0.75797 0.0
H660 H 0.67908 0.01546 0.77979 0.0
H661 H 0.61134 0.06639 0.03103 0.0
H662 H 0.59895 0.06535 0.9473 0.0
H663 H 0.59748 0.04108 0.00698 0.0
H664 H 0.57207 0.04886 0.74413 0.0
H665 H 0.57055 0.987 0.87137 0.0
H666 H 0.63199 0.06392 0.76311 0.0
H667 H 0.61508 0.07709 0.83103 0.0
H668 H 0.60279 0.07601 0.74717 0.0
H669 H 0.6293 0.98856 0.92174 0.0
H670 H 0.59921 0.9783 0.95227 0.0
H671 H 0.61212 0.00217 0.98834 0.0
C672 C 0.57405 0.63638 0.85363 0.0
C673 C 0.57303 0.64458 0.91985 0.0
C674 C 0.56033 0.61751 0.84118 0.0
C675 C 0.54492 0.60684 0.89607 0.0
C676 C 0.54281 0.61581 0.96205 0.0
C677 C 0.55698 0.63458 0.97321 0.0
C678 C 0.56322 0.60838 0.77014 0.0
C679 C 0.5262 0.60519 0.02137 0.0
C680 C 0.50142 0.56414 0.83552 0.0
C681 C 0.51499 0.54456 0.84387 0.0
C682 C 0.51016 0.58447 0.8564 0.0
C683 C 0.53302 0.58516 0.88568 0.0
C684 C 0.54591 0.56516 0.89855 0.0
C685 C 0.53667 0.54512 0.87784 0.0
C686 C 0.49566 0.60539 0.84324 0.0
C687 C 0.57032 0.56512 0.9298 0.0
H688 H 0.58632 0.64423 0.81218 0.0
H689 H 0.5555 0.64143 0.02375 0.0
H690 H 0.57155 0.59161 0.77459 0.0
H691 H 0.54513 0.6064 0.74925 0.0
H692 H 0.57489 0.61932 0.73212 0.0
H693 H 0.5245 0.61564 0.06663 0.0
H694 H 0.50775 0.60222 0.00383 0.0
H695 H 0.53348 0.58872 0.03896 0.0
H696 H 0.48458 0.56383 0.80964 0.0
H697 H 0.54715 0.53002 0.8853 0.0
H698 H 0.50466 0.61574 0.79845 0.0
H699 H 0.49501 0.61553 0.88914 0.0
H700 H 0.47669 0.60158 0.83111 0.0
H701 H 0.584 0.57428 0.89286 0.0
H702 H 0.57704 0.54796 0.94149 0.0
H703 H 0.56912 0.57385 0.97861 0.0
C704 C 0.88661 0.42199 0.10267 0.0
C705 C 0.86528 0.4223 0.06703 0.0
C706 C 0.90825 0.4322 0.07208 0.0
C707 C 0.90863 0.44258 0.00371 0.0
C708 C 0.88731 0.44238 0.96674 0.0
C709 C 0.8659 0.4322 0.99885 0.0
C710 C 0.93066 0.43195 0.11293 0.0
C711 C 0.88703 0.45319 0.8936 0.0
C712 C 0.95459 0.4885 0.94222 0.0
C713 C 0.97158 0.47717 0.90026 0.0
C714 C 0.93447 0.47725 0.9781 0.0
C715 C 0.93107 0.45417 0.97112 0.0
C716 C 0.94847 0.44251 0.93024 0.0
C717 C 0.96864 0.45414 0.8956 0.0
C718 C 0.91653 0.49018 0.02219 0.0
C719 C 0.94536 0.41793 0.92117 0.0
H720 H 0.88654 0.41343 0.15405 0.0
H721 H 0.84948 0.43232 0.97094 0.0
H722 H 0.94554 0.42294 0.0853 0.0
H723 H 0.93731 0.44926 0.11695 0.0
H724 H 0.9271 0.42383 0.16638 0.0
H725 H 0.8692 0.45094 0.87121 0.0
H726 H 0.89094 0.47134 0.89364 0.0
H727 H 0.90153 0.44606 0.85906 0.0
H728 H 0.95689 0.50627 0.94657 0.0
H729 H 0.98169 0.44531 0.86315 0.0
H730 H 0.91405 0.48206 0.07583 0.0
H731 H 0.89845 0.49018 8e-05 0.0
H732 H 0.92252 0.50776 0.02525 0.0
H733 H 0.94285 0.40842 0.97273 0.0
H734 H 0.96122 0.41106 0.89098 0.0
H735 H 0.92871 0.41519 0.89356 0.0
C736 C 0.09063 0.09253 0.32083 0.0
C737 C 0.08525 0.11483 0.30166 0.0
C738 C 0.08484 0.07535 0.27901 0.0
C739 C 0.07409 0.08074 0.21562 0.0
C740 C 0.06916 0.10328 0.19522 0.0
C741 C 0.07458 0.12001 0.23879 0.0
C742 C 0.08994 0.05147 0.30303 0.0
C743 C 0.05804 0.10974 0.12738 0.0
C744 C 0.07677 0.043 0.06639 0.0
C745 C 0.05244 0.03573 0.06866 0.0
C746 C 0.08453 0.05674 0.11645 0.0
C747 C 0.06758 0.06297 0.17036 0.0
C748 C 0.04347 0.0542 0.17575 0.0
C749 C 0.0361 0.04088 0.12422 0.0
C750 C 0.1103 0.06595 0.10843 0.0
C751 C 0.02503 0.06003 0.23337 0.0
H752 H 0.09914 0.08842 0.36893 0.0
H753 H 0.07054 0.13722 0.22329 0.0
H754 H 0.07277 0.04146 0.30734 0.0
H755 H 0.10265 0.04399 0.26409 0.0
H756 H 0.098 0.05007 0.3543 0.0
H757 H 0.05625 0.1281 0.11792 0.0
H758 H 0.06943 0.10348 0.08316 0.0
H759 H 0.03968 0.10194 0.1277 0.0
H760 H 0.0893 0.03914 0.02292 0.0
H761 H 0.01729 0.03513 0.12586 0.0
H762 H 0.11881 0.06421 0.15886 0.0
H763 H 0.10996 0.08403 0.09198 0.0
H764 H 0.12193 0.0575 0.06899 0.0
H765 H 0.03306 0.05821 0.28455 0.0
H766 H 0.00832 0.04938 0.23595 0.0
H767 H 0.01966 0.07771 0.22442 0.0
C768 C 0.38748 0.00464 0.16747 0.0
C769 C 0.36429 0.99706 0.15311 0.0
C770 C 0.40636 0.00781 0.11432 0.0
C771 C 0.40195 0.00319 0.0454 0.0
C772 C 0.37829 0.99656 0.03008 0.0
C773 C 0.35974 0.99364 0.08405 0.0
C774 C 0.4313 0.01511 0.13254 0.0
C775 C 0.37285 0.99144 0.95725 0.0
C776 C 0.44617 0.02128 0.88996 0.0
C777 C 0.4588 0.00143 0.8796 0.0
C778 C 0.4281 0.02238 0.94513 0.0
C779 C 0.42247 0.00315 0.99055 0.0
C780 C 0.4356 0.98327 0.98138 0.0
C781 C 0.45362 0.98267 0.92623 0.0
C782 C 0.41462 0.04392 0.95373 0.0
C783 C 0.4301 0.96236 0.02856 0.0
H784 H 0.39112 0.00745 0.22061 0.0
H785 H 0.34185 0.98792 0.07233 0.0
H786 H 0.44421 0.0011 0.12763 0.0
H787 H 0.43844 0.02911 0.09577 0.0
H788 H 0.43106 0.02043 0.18654 0.0
H789 H 0.35311 0.98818 0.9529 0.0
H790 H 0.37888 0.00551 0.91927 0.0
H791 H 0.38315 0.9765 0.94217 0.0
H792 H 0.45013 0.03588 0.85436 0.0
H793 H 0.46331 0.96727 0.91885 0.0
H794 H 0.41507 0.04877 0.00803 0.0
H795 H 0.39518 0.04157 0.94376 0.0
H796 H 0.42246 0.05782 0.91756 0.0
H797 H 0.43155 0.96588 0.08376 0.0
H798 H 0.44263 0.94854 0.0161 0.0
H799 H 0.41109 0.95666 0.0236 0.0
C800 C 0.4165 0.36868 0.10132 0.0
C801 C 0.4177 0.37299 0.17149 0.0
C802 C 0.42174 0.38552 0.04792 0.0
C803 C 0.42809 0.40719 0.06526 0.0
C804 C 0.42675 0.41219 0.13601 0.0
C805 C 0.42163 0.39498 0.18842 0.0
C806 C 0.42282 0.37951 0.97311 0.0
C807 C 0.43291 0.4352 0.15661 0.0
C808 C 0.47735 0.43645 0.9435 0.0
C809 C 0.46387 0.45123 0.90223 0.0
C810 C 0.46586 0.42237 0.99731 0.0
C811 C 0.44021 0.42316 0.01077 0.0
C812 C 0.42649 0.43845 0.97066 0.0
C813 C 0.43848 0.45228 0.9165 0.0
C814 C 0.4812 0.40626 0.03877 0.0
C815 C 0.39915 0.4399 0.9841 0.0
H816 H 0.41315 0.35181 0.0877 0.0
H817 H 0.42223 0.39855 0.24256 0.0
H818 H 0.41402 0.39248 0.93993 0.0
H819 H 0.44219 0.37857 0.95276 0.0
H820 H 0.41384 0.36315 0.96791 0.0
H821 H 0.4266 0.43745 0.2117 0.0
H822 H 0.45299 0.43781 0.15048 0.0
H823 H 0.42462 0.44825 0.12242 0.0
H824 H 0.49696 0.43554 0.93302 0.0
H825 H 0.42795 0.46373 0.88498 0.0
H826 H 0.47538 0.38885 0.03239 0.0
H827 H 0.47854 0.40899 0.09507 0.0
H828 H 0.50098 0.40802 0.02238 0.0
H829 H 0.39042 0.42414 0.97151 0.0
H830 H 0.39144 0.45397 0.95245 0.0
H831 H 0.39425 0.44199 0.04007 0.0
C832 C 0.14832 0.56279 0.14017 0.0
C833 C 0.14319 0.55713 0.21164 0.0
C834 C 0.13353 0.55497 0.09079 0.0
C835 C 0.11303 0.5412 0.11338 0.0
C836 C 0.1081 0.53491 0.18526 0.0
C837 C 0.12328 0.54293 0.23361 0.0
C838 C 0.13947 0.56194 0.01452 0.0
C839 C 0.08639 0.52026 0.21122 0.0
C840 C 0.06244 0.54308 0.98981 0.0
C841 C 0.06703 0.5239 0.95382 0.0
C842 C 0.07677 0.54847 0.04354 0.0
C843 C 0.0962 0.53437 0.06168 0.0
C844 C 0.10043 0.51461 0.02721 0.0
C845 C 0.08577 0.50959 0.97368 0.0
C846 C 0.07163 0.56966 0.07929 0.0
C847 C 0.12096 0.49917 0.04521 0.0
H848 H 0.16374 0.57365 0.12268 0.0
H849 H 0.11919 0.53849 0.28875 0.0
H850 H 0.14109 0.54702 0.98393 0.0
H851 H 0.12445 0.57216 0.99426 0.0
H852 H 0.15673 0.57181 0.00529 0.0
H853 H 0.08594 0.51578 0.26822 0.0
H854 H 0.06929 0.52904 0.19978 0.0
H855 H 0.08666 0.50469 0.18364 0.0
H856 H 0.04792 0.55417 0.97512 0.0
H857 H 0.0894 0.49471 0.94629 0.0
H858 H 0.08729 0.58146 0.0678 0.0
H859 H 0.06949 0.566 0.13664 0.0
H860 H 0.0549 0.57804 0.06221 0.0
H861 H 0.13874 0.50785 0.03133 0.0
H862 H 0.12068 0.48365 0.01731 0.0
H863 H 0.11988 0.49458 0.10212 0.0
C864 C 0.93467 0.87527 0.24325 0.0
C865 C 0.92583 0.88273 0.17936 0.0
C866 C 0.94287 0.89043 0.28861 0.0
C867 C 0.9426 0.91362 0.26919 0.0
C868 C 0.93374 0.92128 0.20478 0.0
C869 C 0.92516 0.90575 0.16106 0.0
C870 C 0.95189 0.8816 0.35733 0.0
C871 C 0.9335 0.94584 0.18179 0.0
C872 C 0.94513 0.95136 0.41805 0.0
C873 C 0.97026 0.95557 0.41745 0.0
C874 C 0.9357 0.93837 0.36842 0.0
C875 C 0.9518 0.9297 0.31653 0.0
C876 C 0.97702 0.93499 0.31342 0.0
C877 C 0.98599 0.94771 0.36437 0.0
C878 C 0.90873 0.9329 0.37392 0.0
C879 C 0.9947 0.92644 0.25809 0.0
H880 H 0.93512 0.85753 0.25806 0.0
H881 H 0.91806 0.91169 0.11228 0.0
H882 H 0.97132 0.88645 0.35964 0.0
H883 H 0.94138 0.88908 0.40098 0.0
H884 H 0.95024 0.86314 0.36552 0.0
H885 H 0.92653 0.94902 0.12941 0.0
H886 H 0.92192 0.95486 0.21982 0.0
H887 H 0.95223 0.95298 0.1804 0.0
H888 H 0.933 0.95724 0.45953 0.0
H889 H 0.00542 0.95111 0.36368 0.0
H890 H 0.9059 0.91479 0.38825 0.0
H891 H 0.90099 0.93662 0.32293 0.0
H892 H 0.89844 0.94235 0.41367 0.0
H893 H 0.99616 0.90805 0.26674 0.0
H894 H 0.01322 0.93395 0.25847 0.0
H895 H 0.98797 0.93005 0.20567 0.0
C896 C 0.64468 0.99039 0.27291 0.0
C897 C 0.66405 0.0038 0.2901 0.0
C898 C 0.62467 0.98511 0.32096 0.0
C899 C 0.62407 0.99338 0.38784 0.0
C900 C 0.64424 0.00575 0.407 0.0
C901 C 0.664 0.01083 0.35784 0.0
C902 C 0.60357 0.9718 0.29867 0.0
C903 C 0.64436 0.01468 0.47814 0.0
C904 C 0.56334 0.00697 0.48032 0.0
C905 C 0.56028 0.98935 0.53218 0.0
C906 C 0.58365 0.00804 0.43174 0.0
C907 C 0.60142 0.99113 0.43517 0.0
C908 C 0.59796 0.97281 0.48551 0.0
C909 C 0.57736 0.9721 0.53341 0.0
C910 C 0.58653 0.02775 0.37831 0.0
C911 C 0.61649 0.95445 0.49061 0.0
H912 H 0.64461 0.98474 0.22084 0.0
H913 H 0.67896 0.02107 0.37173 0.0
H914 H 0.59801 0.9582 0.33888 0.0
H915 H 0.58761 0.98282 0.29294 0.0
H916 H 0.60806 0.96439 0.24825 0.0
H917 H 0.66235 0.02205 0.48727 0.0
H918 H 0.63031 0.02774 0.4833 0.0
H919 H 0.63967 0.0012 0.51952 0.0
H920 H 0.55015 0.0203 0.47877 0.0
H921 H 0.57516 0.95846 0.57347 0.0
H922 H 0.58928 0.0219 0.32509 0.0
H923 H 0.60294 0.0377 0.38735 0.0
H924 H 0.57045 0.03885 0.38029 0.0
H925 H 0.62072 0.94786 0.4389 0.0
H926 H 0.61008 0.94042 0.52844 0.0
H927 H 0.63376 0.96125 0.50734 0.0
C928 C 0.58021 0.57622 0.26472 0.0
C929 C 0.58877 0.59757 0.2765 0.0
C930 C 0.57276 0.5608 0.32055 0.0
C931 C 0.57371 0.56697 0.38973 0.0
C932 C 0.58329 0.58814 0.40199 0.0
C933 C 0.59079 0.60316 0.34519 0.0
C934 C 0.56281 0.53831 0.30544 0.0
C935 C 0.58443 0.59536 0.47505 0.0
C936 C 0.5263 0.54111 0.52464 0.0
C937 C 0.53991 0.52529 0.56186 0.0
C938 C 0.53714 0.55469 0.4686 0.0
C939 C 0.56224 0.55233 0.44877 0.0
C940 C 0.57612 0.53628 0.48557 0.0
C941 C 0.56479 0.52296 0.54201 0.0
C942 C 0.52171 0.57169 0.43095 0.0
C943 C 0.60288 0.53324 0.46537 0.0
H944 H 0.5788 0.57169 0.21178 0.0
H945 H 0.59747 0.61959 0.35477 0.0
H946 H 0.57148 0.52479 0.33687 0.0
H947 H 0.54292 0.53741 0.32036 0.0
H948 H 0.5658 0.53516 0.24942 0.0
H949 H 0.59441 0.61147 0.47594 0.0
H950 H 0.56563 0.59727 0.49901 0.0
H951 H 0.59347 0.58248 0.50802 0.0
H952 H 0.50707 0.54308 0.5396 0.0
H953 H 0.57539 0.51073 0.57046 0.0
H954 H 0.52194 0.56851 0.37498 0.0
H955 H 0.52939 0.5887 0.43391 0.0
H956 H 0.50245 0.5714 0.45306 0.0
H957 H 0.60545 0.52917 0.41013 0.0
H958 H 0.611 0.51977 0.4985 0.0
H959 H 0.61304 0.54903 0.46984 0.0
C960 C 0.91153 0.45774 0.41302 0.0
C961 C 0.91455 0.4658 0.34274 0.0
C962 C 0.92653 0.46537 0.46226 0.0
C963 C 0.94504 0.48145 0.44082 0.0
C964 C 0.94815 0.48974 0.37008 0.0
C965 C 0.93286 0.48182 0.32183 0.0
C966 C 0.92267 0.45608 0.53725 0.0
C967 C 0.96774 0.50686 0.34532 0.0
C968 C 0.96902 0.51329 0.58512 0.0
C969 C 0.98982 0.50103 0.60055 0.0
C970 C 0.95466 0.50755 0.53169 0.0
C971 C 0.96134 0.48919 0.49265 0.0
C972 C 0.98282 0.47729 0.50624 0.0
C973 C 0.99677 0.48333 0.56009 0.0
C974 C 0.93189 0.52063 0.51867 0.0
C975 C 0.99064 0.4577 0.46549 0.0
H976 H 0.89745 0.44537 0.42972 0.0
H977 H 0.93534 0.48812 0.26763 0.0
H978 H 0.93946 0.44767 0.5535 0.0
H979 H 0.919 0.46984 0.57177 0.0
H980 H 0.90723 0.4439 0.54562 0.0
H981 H 0.96755 0.51188 0.28878 0.0
H982 H 0.96531 0.52196 0.37482 0.0
H983 H 0.98597 0.50006 0.35545 0.0
H984 H 0.96355 0.52702 0.61601 0.0
H985 H 0.01291 0.47385 0.57131 0.0
H986 H 0.91557 0.50971 0.53177 0.0
H987 H 0.93186 0.52639 0.46271 0.0
H988 H 0.93015 0.53537 0.55016 0.0
H989 H 0.97693 0.44399 0.47599 0.0
H990 H 0.00869 0.45122 0.47916 0.0
H991 H 0.99159 0.46253 0.40873 0.0
loop_
_geom_bond_atom_site_label_1
_geom_bond_atom_site_label_2
_geom_bond_distance
_geom_bond_site_symmetry_2
_ccdc_geom_bond_type
O0 Cd1 2.300 . S
O0 C7 1.275 . S
Cd1 O0 2.300 . S
Cd1 O9 2.381 . S
Cd1 O10 2.378 . S
O2 Cd3 2.385 . S
O2 C7 1.255 . S
Cd3 O2 2.385 . S
Cd3 O4 2.317 . S
O4 Cd3 2.317 . S
O4 C5 1.232 . S
C5 O4 1.232 . S
C5 O6 1.218 . S
O6 C5 1.218 . S
C7 O0 1.275 . S
C7 O2 1.255 . S
C8 O9 1.258 . S
C8 O10 1.256 . S
O9 Cd1 2.381 . S
O9 C8 1.258 . S
O10 Cd1 2.378 . S
O10 C8 1.256 . S
O11 Cd12 2.300 . S
O11 C18 1.275 . S
Cd12 O11 2.300 . S
Cd12 O20 2.381 . S
Cd12 O21 2.378 . S
O13 Cd14 2.385 1_656 S
O13 C18 1.255 . S
Cd14 O13 2.385 1_454 S
Cd14 O15 2.317 1_455 S
O15 Cd14 2.317 1_655 S
O15 C16 1.232 . S
C16 O15 1.232 . S
C16 O17 1.218 . S
O17 C16 1.218 . S
C18 O11 1.275 . S
C18 O13 1.255 . S
C19 O20 1.258 . S
C19 O21 1.256 . S
O20 Cd12 2.381 . S
O20 C19 1.258 . S
O21 Cd12 2.378 . S
O21 C19 1.256 . S
O22 Cd23 2.300 1_566 S
O22 C29 1.275 1_566 S
Cd23 O22 2.300 1_544 S
Cd23 O31 2.381 1_544 S
Cd23 O32 2.378 . S
O24 Cd25 2.385 . S
O24 C29 1.255 . S
Cd25 O24 2.385 . S
Cd25 O26 2.317 . S
O26 Cd25 2.317 . S
O26 C27 1.232 . S
C27 O26 1.232 . S
C27 O28 1.218 . S
O28 C27 1.218 . S
C29 O22 1.275 1_544 S
C29 O24 1.255 . S
C30 O31 1.258 1_544 S
C30 O32 1.256 . S
O31 Cd23 2.381 1_566 S
O31 C30 1.258 1_566 S
O32 Cd23 2.378 . S
O32 C30 1.256 . S
O33 Cd34 2.300 1_556 S
O33 C40 1.275 1_556 S
Cd34 O33 2.300 1_554 S
Cd34 O42 2.381 1_554 S
Cd34 O43 2.378 . S
O35 Cd36 2.385 . S
O35 C40 1.255 . S
Cd36 O35 2.385 . S
Cd36 O37 2.317 . S
O37 Cd36 2.317 . S
O37 C38 1.232 . S
C38 O37 1.232 . S
C38 O39 1.218 . S
O39 C38 1.218 . S
C40 O33 1.275 1_554 S
C40 O35 1.255 . S
C41 O42 1.258 1_554 S
C41 O43 1.256 . S
O42 Cd34 2.381 1_556 S
O42 C41 1.258 1_556 S
O43 Cd34 2.378 . S
O43 C41 1.256 . S
O44 Cd45 2.300 . S
O44 C51 1.275 . S
Cd45 O44 2.300 . S
Cd45 O53 2.381 . S
Cd45 O54 2.378 . S
O46 Cd47 2.385 . S
O46 C51 1.255 . S
Cd47 O46 2.385 . S
Cd47 O48 2.317 . S
O48 Cd47 2.317 . S
O48 C49 1.232 . S
C49 O48 1.232 . S
C49 O50 1.218 . S
O50 C49 1.218 . S
C51 O44 1.275 . S
C51 O46 1.255 . S
C52 O53 1.258 . S
C52 O54 1.256 . S
O53 Cd45 2.381 . S
O53 C52 1.258 . S
O54 Cd45 2.378 . S
O54 C52 1.256 . S
O55 Cd56 2.300 . S
O55 C62 1.275 . S
Cd56 O55 2.300 . S
Cd56 O64 2.381 . S
Cd56 O65 2.378 . S
O57 Cd58 2.385 . S
O57 C62 1.255 . S
Cd58 O57 2.385 . S
Cd58 O59 2.317 . S
O59 Cd58 2.317 . S
O59 C60 1.232 . S
C60 O59 1.232 . S
C60 O61 1.218 . S
O61 C60 1.218 . S
C62 O55 1.275 . S
C62 O57 1.255 . S
C63 O64 1.258 . S
C63 O65 1.256 . S
O64 Cd56 2.381 . S
O64 C63 1.258 . S
O65 Cd56 2.378 . S
O65 C63 1.256 . S
O66 Cd67 2.300 1_565 S
O66 C73 1.275 1_565 S
Cd67 O66 2.300 1_545 S
Cd67 O75 2.381 1_545 S
Cd67 O76 2.378 . S
O68 Cd69 2.385 . S
O68 C73 1.255 . S
Cd69 O68 2.385 . S
Cd69 O70 2.317 . S
O70 Cd69 2.317 . S
O70 C71 1.232 . S
C71 O70 1.232 . S
C71 O72 1.218 . S
O72 C71 1.218 . S
C73 O66 1.275 1_545 S
C73 O68 1.255 . S
C74 O75 1.258 1_545 S
C74 O76 1.256 . S
O75 Cd67 2.381 1_565 S
O75 C74 1.258 1_565 S
O76 Cd67 2.378 . S
O76 C74 1.256 . S
O77 Cd78 2.300 . S
O77 C84 1.275 . S
Cd78 O77 2.300 . S
Cd78 O86 2.381 . S
Cd78 O87 2.378 . S
O79 Cd80 2.385 . S
O79 C84 1.255 . S
Cd80 O79 2.385 . S
Cd80 O81 2.317 . S
O81 Cd80 2.317 . S
O81 C82 1.232 . S
C82 O81 1.232 . S
C82 O83 1.218 . S
O83 C82 1.218 . S
C84 O77 1.275 . S
C84 O79 1.255 . S
C85 O86 1.258 . S
C85 O87 1.256 . S
O86 Cd78 2.381 . S
O86 C85 1.258 . S
O87 Cd78 2.378 . S
O87 C85 1.256 . S
C88 O104 1.251 . S
C88 O106 1.254 . S
N89 C90 1.333 . S
N89 C94 1.307 1_455 S
N89 Zn95 2.020 . S
C90 N89 1.333 . S
C90 C91 1.379 . S
C90 H108 0.952 . S
C91 C90 1.379 . S
C91 C92 1.390 1_455 S
C91 H118 0.949 . S
C92 C91 1.390 1_655 S
C92 C93 1.357 . S
C93 C92 1.357 . S
C93 C94 1.370 . S
C93 H119 0.950 . S
C94 N89 1.307 1_655 S
C94 C93 1.370 . S
C94 H112 0.948 . S
Zn95 N89 2.020 . S
Zn95 O104 2.039 . S
Zn95 O110 2.034 . S
Zn95 O114 2.025 1_565 S
Zn95 O116 2.024 1_455 S
C96 O115 1.246 . S
C96 O116 1.249 1_545 S
N97 C98 1.307 . S
N97 C99 1.333 . S
N97 Zn103 2.020 . S
C98 N97 1.307 . S
C98 C102 1.370 . S
C98 H109 0.948 . S
C99 N97 1.333 . S
C99 C100 1.379 . S
C99 H107 0.952 . S
C100 C99 1.379 . S
C100 C101 1.390 . S
C100 H120 0.949 . S
C101 C100 1.390 . S
C101 C102 1.357 . S
C102 C98 1.370 . S
C102 C101 1.357 . S
C102 H121 0.950 1_556 S
Zn103 N97 2.020 . S
Zn103 O106 2.025 1_545 S
Zn103 O111 2.024 . S
Zn103 O113 2.039 . S
Zn103 O115 2.034 1_455 S
O104 C88 1.251 . S
O104 Zn95 2.039 . S
C105 O110 1.246 . S
C105 O111 1.249 1_565 S
O106 C88 1.254 . S
O106 Zn103 2.025 1_565 S
H107 C99 0.952 . S
H108 C90 0.952 . S
H109 C98 0.948 . S
O110 Zn95 2.034 . S
O110 C105 1.246 . S
O111 Zn103 2.024 . S
O111 C105 1.249 1_545 S
H112 C94 0.948 . S
O113 Zn103 2.039 . S
O113 C117 1.251 . S
O114 Zn95 2.025 1_545 S
O114 C117 1.254 . S
O115 C96 1.246 . S
O115 Zn103 2.034 1_655 S
O116 Zn95 2.024 1_655 S
O116 C96 1.249 1_565 S
C117 O113 1.251 . S
C117 O114 1.254 . S
H118 C91 0.949 . S
H119 C93 0.950 . S
H120 C100 0.949 . S
H121 C102 0.950 1_554 S
C122 O138 1.251 1_565 S
C122 O140 1.254 . S
N123 C124 1.333 . S
N123 C128 1.307 . S
N123 Zn129 2.020 . S
C124 N123 1.333 . S
C124 C125 1.379 . S
C124 H142 0.952 . S
C125 C124 1.379 . S
C125 C126 1.390 . S
C125 H152 0.949 . S
C126 C125 1.390 . S
C126 C127 1.357 . S
C127 C126 1.357 . S
C127 C128 1.370 . S
C127 H153 0.950 . S
C128 N123 1.307 . S
C128 C127 1.370 . S
C128 H146 0.948 . S
Zn129 N123 2.020 . S
Zn129 O138 2.039 . S
Zn129 O144 2.034 . S
Zn129 O148 2.025 . S
Zn129 O150 2.024 . S
C130 O149 1.246 1_545 S
C130 O150 1.249 . S
N131 C132 1.307 . S
N131 C133 1.333 . S
N131 Zn137 2.020 . S
C132 N131 1.307 . S
C132 C136 1.370 . S
C132 H143 0.948 . S
C133 N131 1.333 . S
C133 C134 1.379 . S
C133 H141 0.952 . S
C134 C133 1.379 . S
C134 C135 1.390 . S
C134 H154 0.949 . S
C135 C134 1.390 . S
C135 C136 1.357 . S
C136 C132 1.370 . S
C136 C135 1.357 . S
C136 H155 0.950 . S
Zn137 N131 2.020 . S
Zn137 O140 2.025 . S
Zn137 O145 2.024 . S
Zn137 O147 2.039 . S
Zn137 O149 2.034 . S
O138 C122 1.251 1_545 S
O138 Zn129 2.039 . S
C139 O144 1.246 1_565 S
C139 O145 1.249 . S
O140 C122 1.254 . S
O140 Zn137 2.025 . S
H141 C133 0.952 . S
H142 C124 0.952 . S
H143 C132 0.948 . S
O144 Zn129 2.034 . S
O144 C139 1.246 1_545 S
O145 Zn137 2.024 . S
O145 C139 1.249 . S
H146 C128 0.948 . S
O147 Zn137 2.039 . S
O147 C151 1.251 1_565 S
O148 Zn129 2.025 . S
O148 C151 1.254 . S
O149 C130 1.246 1_565 S
O149 Zn137 2.034 . S
O150 Zn129 2.024 . S
O150 C130 1.249 . S
C151 O147 1.251 1_545 S
C151 O148 1.254 . S
H152 C125 0.949 . S
H153 C127 0.950 . S
H154 C134 0.949 . S
H155 C136 0.950 . S
C156 O172 1.251 . S
C156 O174 1.254 . S
N157 C158 1.333 . S
N157 C162 1.307 . S
N157 Zn163 2.020 . S
C158 N157 1.333 . S
C158 C159 1.379 . S
C158 H176 0.952 . S
C159 C158 1.379 . S
C159 C160 1.390 . S
C159 H186 0.949 . S
C160 C159 1.390 . S
C160 C161 1.357 . S
C161 C160 1.357 . S
C161 C162 1.370 . S
C161 H187 0.950 . S
C162 N157 1.307 . S
C162 C161 1.370 . S
C162 H180 0.948 . S
Zn163 N157 2.020 . S
Zn163 O172 2.039 . S
Zn163 O178 2.034 . S
Zn163 O182 2.025 . S
Zn163 O184 2.024 . S
C164 O183 1.246 . S
C164 O184 1.249 . S
N165 C166 1.307 . S
N165 C167 1.333 . S
N165 Zn171 2.020 . S
C166 N165 1.307 . S
C166 C170 1.370 . S
C166 H177 0.948 . S
C167 N165 1.333 . S
C167 C168 1.379 . S
C167 H175 0.952 . S
C168 C167 1.379 . S
C168 C169 1.390 . S
C168 H188 0.949 . S
C169 C168 1.390 . S
C169 C170 1.357 . S
C170 C166 1.370 . S
C170 C169 1.357 . S
C170 H189 0.950 . S
Zn171 N165 2.020 . S
Zn171 O174 2.025 . S
Zn171 O179 2.024 . S
Zn171 O181 2.039 . S
Zn171 O183 2.034 . S
O172 C156 1.251 . S
O172 Zn163 2.039 . S
C173 O178 1.246 . S
C173 O179 1.249 . S
O174 C156 1.254 . S
O174 Zn171 2.025 . S
H175 C167 0.952 . S
H176 C158 0.952 . S
H177 C166 0.948 . S
O178 Zn163 2.034 . S
O178 C173 1.246 . S
O179 Zn171 2.024 . S
O179 C173 1.249 . S
H180 C162 0.948 . S
O181 Zn171 2.039 . S
O181 C185 1.251 . S
O182 Zn163 2.025 . S
O182 C185 1.254 . S
O183 C164 1.246 . S
O183 Zn171 2.034 . S
O184 Zn163 2.024 . S
O184 C164 1.249 . S
C185 O181 1.251 . S
C185 O182 1.254 . S
H186 C159 0.949 . S
H187 C161 0.950 . S
H188 C168 0.949 . S
H189 C170 0.950 . S
C190 O206 1.251 . S
C190 O208 1.254 . S
N191 C192 1.333 . S
N191 C196 1.307 . S
N191 Zn197 2.020 . S
C192 N191 1.333 . S
C192 C193 1.379 . S
C192 H210 0.952 . S
C193 C192 1.379 . S
C193 C194 1.390 . S
C193 H220 0.949 . S
C194 C193 1.390 . S
C194 C195 1.357 . S
C195 C194 1.357 . S
C195 C196 1.370 . S
C195 H221 0.950 . S
C196 N191 1.307 . S
C196 C195 1.370 . S
C196 H214 0.948 . S
Zn197 N191 2.020 . S
Zn197 O206 2.039 . S
Zn197 O212 2.034 1_455 S
Zn197 O216 2.025 1_455 S
Zn197 O218 2.024 . S
C198 O217 1.246 . S
C198 O218 1.249 . S
N199 C200 1.307 . S
N199 C201 1.326 1_455 S
N199 Zn205 2.020 . S
C200 N199 1.307 . S
C200 C204 1.370 . S
C200 H211 0.948 . S
C201 N199 1.326 1_655 S
C201 C202 1.382 . S
C201 H209 0.957 . S
C202 C201 1.382 . S
C202 C203 1.390 1_655 S
C202 H222 0.949 . S
C203 C202 1.390 1_455 S
C203 C204 1.357 . S
C204 C200 1.370 . S
C204 C203 1.357 . S
C204 H223 0.950 . S
Zn205 N199 2.020 . S
Zn205 O208 2.025 . S
Zn205 O213 2.024 1_455 S
Zn205 O215 2.039 1_455 S
Zn205 O217 2.034 . S
O206 C190 1.251 . S
O206 Zn197 2.039 . S
C207 O212 1.246 . S
C207 O213 1.249 . S
O208 C190 1.254 . S
O208 Zn205 2.025 . S
H209 C201 0.957 . S
H210 C192 0.952 . S
H211 C200 0.948 . S
O212 Zn197 2.034 1_655 S
O212 C207 1.246 . S
O213 Zn205 2.024 1_655 S
O213 C207 1.249 . S
H214 C196 0.948 . S
O215 Zn205 2.039 1_655 S
O215 C219 1.251 . S
O216 Zn197 2.025 1_655 S
O216 C219 1.254 . S
O217 C198 1.246 . S
O217 Zn205 2.034 . S
O218 Zn197 2.024 . S
O218 C198 1.249 . S
C219 O215 1.251 . S
C219 O216 1.254 . S
H220 C193 0.949 . S
H221 C195 0.950 . S
H222 C202 0.949 . S
H223 C204 0.950 . S
C224 C225 1.391 . S
C224 C226 1.394 . S
C224 H240 0.931 . S
C225 C224 1.391 . S
C225 C229 1.376 1_565 S
C226 C224 1.394 . S
C226 C227 1.369 . S
C226 C230 1.531 . S
C227 C226 1.369 . S
C227 C228 1.410 1_565 S
C227 C235 1.503 . S
C228 C227 1.410 1_545 S
C228 C229 1.392 . S
C228 C231 1.511 . S
C229 C225 1.376 1_545 S
C229 C228 1.392 . S
C229 H241 0.929 . S
C230 C226 1.531 . S
C230 H242 0.960 . S
C230 H243 0.962 . S
C230 H244 0.960 . S
C231 C228 1.511 . S
C231 H245 0.961 . S
C231 H246 0.961 . S
C231 H247 0.961 . S
C232 C233 1.370 1_545 S
C232 C234 1.363 . S
C232 H248 0.931 . S
C233 C232 1.370 1_565 S
C233 C237 1.408 . S
C234 C232 1.363 . S
C234 C235 1.370 1_545 S
C234 C238 1.524 . S
C235 C227 1.503 . S
C235 C234 1.370 1_565 S
C235 C236 1.403 . S
C236 C235 1.403 . S
C236 C237 1.404 . S
C236 C239 1.539 . S
C237 C233 1.408 . S
C237 C236 1.404 . S
C237 H249 0.930 . S
C238 C234 1.524 . S
C238 H250 0.956 . S
C238 H251 0.961 . S
C238 H252 0.961 . S
C239 C236 1.539 . S
C239 H253 0.958 . S
C239 H254 0.961 . S
C239 H255 0.960 . S
H240 C224 0.931 . S
H241 C229 0.929 . S
H242 C230 0.960 . S
H243 C230 0.962 . S
H244 C230 0.960 . S
H245 C231 0.961 . S
H246 C231 0.961 . S
H247 C231 0.961 . S
H248 C232 0.931 . S
H249 C237 0.930 . S
H250 C238 0.956 . S
H251 C238 0.961 . S
H252 C238 0.961 . S
H253 C239 0.958 . S
H254 C239 0.961 . S
H255 C239 0.960 . S
C256 C257 1.391 . S
C256 C258 1.394 . S
C256 H272 0.931 . S
C257 C256 1.391 . S
C257 C261 1.376 . S
C258 C256 1.394 . S
C258 C259 1.369 . S
C258 C262 1.531 . S
C259 C258 1.369 . S
C259 C260 1.410 . S
C259 C267 1.503 . S
C260 C259 1.410 . S
C260 C261 1.392 . S
C260 C263 1.511 . S
C261 C257 1.376 . S
C261 C260 1.392 . S
C261 H273 0.929 . S
C262 C258 1.531 . S
C262 H274 0.960 . S
C262 H275 0.962 . S
C262 H276 0.960 . S
C263 C260 1.511 . S
C263 H277 0.961 . S
C263 H278 0.961 . S
C263 H279 0.961 . S
C264 C265 1.370 . S
C264 C266 1.363 . S
C264 H280 0.931 . S
C265 C264 1.370 . S
C265 C269 1.408 . S
C266 C264 1.363 . S
C266 C267 1.370 . S
C266 C270 1.524 . S
C267 C259 1.503 . S
C267 C266 1.370 . S
C267 C268 1.403 . S
C268 C267 1.403 . S
C268 C269 1.404 . S
C268 C271 1.539 . S
C269 C265 1.408 . S
C269 C268 1.404 . S
C269 H281 0.930 . S
C270 C266 1.524 . S
C270 H282 0.956 . S
C270 H283 0.961 . S
C270 H284 0.961 . S
C271 C268 1.539 . S
C271 H285 0.958 . S
C271 H286 0.961 . S
C271 H287 0.960 . S
H272 C256 0.931 . S
H273 C261 0.929 . S
H274 C262 0.960 . S
H275 C262 0.962 . S
H276 C262 0.960 . S
H277 C263 0.961 . S
H278 C263 0.961 . S
H279 C263 0.961 . S
H280 C264 0.931 . S
H281 C269 0.930 . S
H282 C270 0.956 . S
H283 C270 0.961 . S
H284 C270 0.961 . S
H285 C271 0.958 . S
H286 C271 0.961 . S
H287 C271 0.960 . S
C288 C289 1.391 . S
C288 C290 1.394 . S
C288 H304 0.931 . S
C289 C288 1.391 . S
C289 C293 1.376 . S
C290 C288 1.394 . S
C290 C291 1.369 . S
C290 C294 1.531 . S
C291 C290 1.369 . S
C291 C292 1.410 . S
C291 C299 1.503 . S
C292 C291 1.410 . S
C292 C293 1.392 . S
C292 C295 1.511 . S
C293 C289 1.376 . S
C293 C292 1.392 . S
C293 H305 0.929 . S
C294 C290 1.531 . S
C294 H306 0.960 . S
C294 H307 0.962 . S
C294 H308 0.960 . S
C295 C292 1.511 . S
C295 H309 0.961 . S
C295 H310 0.961 . S
C295 H311 0.961 . S
C296 C297 1.370 . S
C296 C298 1.363 . S
C296 H312 0.931 . S
C297 C296 1.370 . S
C297 C301 1.408 . S
C298 C296 1.363 . S
C298 C299 1.370 . S
C298 C302 1.524 . S
C299 C291 1.503 . S
C299 C298 1.370 . S
C299 C300 1.403 . S
C300 C299 1.403 . S
C300 C301 1.404 . S
C300 C303 1.539 . S
C301 C297 1.408 . S
C301 C300 1.404 . S
C301 H313 0.930 . S
C302 C298 1.524 . S
C302 H314 0.956 . S
C302 H315 0.961 . S
C302 H316 0.961 . S
C303 C300 1.539 . S
C303 H317 0.958 . S
C303 H318 0.961 . S
C303 H319 0.960 . S
H304 C288 0.931 . S
H305 C293 0.929 . S
H306 C294 0.960 . S
H307 C294 0.962 . S
H308 C294 0.960 . S
H309 C295 0.961 . S
H310 C295 0.961 . S
H311 C295 0.961 . S
H312 C296 0.931 . S
H313 C301 0.930 . S
H314 C302 0.956 . S
H315 C302 0.961 . S
H316 C302 0.961 . S
H317 C303 0.958 . S
H318 C303 0.961 . S
H319 C303 0.960 . S
C320 C321 1.391 . S
C320 C322 1.394 . S
C320 H336 0.931 . S
C321 C320 1.391 . S
C321 C325 1.376 . S
C322 C320 1.394 . S
C322 C323 1.369 . S
C322 C326 1.531 . S
C323 C322 1.369 . S
C323 C324 1.410 . S
C323 C331 1.503 . S
C324 C323 1.410 . S
C324 C325 1.392 . S
C324 C327 1.511 . S
C325 C321 1.376 . S
C325 C324 1.392 . S
C325 H337 0.929 . S
C326 C322 1.531 . S
C326 H338 0.960 . S
C326 H339 0.962 . S
C326 H340 0.960 . S
C327 C324 1.511 . S
C327 H341 0.961 1_455 S
C327 H342 0.961 . S
C327 H343 0.961 . S
C328 C329 1.370 . S
C328 C330 1.363 . S
C328 H344 0.931 . S
C329 C328 1.370 . S
C329 C333 1.408 . S
C330 C328 1.363 . S
C330 C331 1.370 . S
C330 C334 1.524 . S
C331 C323 1.503 . S
C331 C330 1.370 . S
C331 C332 1.403 . S
C332 C331 1.403 . S
C332 C333 1.404 . S
C332 C335 1.539 . S
C333 C329 1.408 . S
C333 C332 1.404 . S
C333 H345 0.930 . S
C334 C330 1.524 . S
C334 H346 0.956 . S
C334 H347 0.961 . S
C334 H348 0.961 . S
C335 C332 1.539 . S
C335 H349 0.958 . S
C335 H350 0.961 . S
C335 H351 0.960 . S
H336 C320 0.931 . S
H337 C325 0.929 . S
H338 C326 0.960 . S
H339 C326 0.962 . S
H340 C326 0.960 . S
H341 C327 0.961 1_655 S
H342 C327 0.961 . S
H343 C327 0.961 . S
H344 C328 0.931 . S
H345 C333 0.930 . S
H346 C334 0.956 . S
H347 C334 0.961 . S
H348 C334 0.961 . S
H349 C335 0.958 . S
H350 C335 0.961 . S
H351 C335 0.960 . S
C352 C353 1.364 1_544 S
C352 C354 1.394 1_554 S
C352 H368 0.931 . S
C353 C352 1.364 1_566 S
C353 C357 1.407 . S
C354 C352 1.394 1_556 S
C354 C355 1.369 1_545 S
C354 C358 1.531 1_556 S
C355 C354 1.369 1_565 S
C355 C356 1.410 . S
C355 C363 1.503 . S
C356 C355 1.410 . S
C356 C357 1.392 . S
C356 C359 1.511 . S
C357 C353 1.407 . S
C357 C356 1.392 . S
C357 H369 0.929 . S
C358 C354 1.531 1_554 S
C358 H370 0.960 1_554 S
C358 H371 0.962 1_554 S
C358 H372 0.960 . S
C359 C356 1.511 . S
C359 H373 0.961 . S
C359 H374 0.961 . S
C359 H375 0.961 . S
C360 C361 1.370 . S
C360 C362 1.363 . S
C360 H376 0.931 . S
C361 C360 1.370 . S
C361 C365 1.408 1_545 S
C362 C360 1.363 . S
C362 C363 1.370 1_545 S
C362 C366 1.524 . S
C363 C355 1.503 . S
C363 C362 1.370 1_565 S
C363 C364 1.403 . S
C364 C363 1.403 . S
C364 C365 1.404 . S
C364 C367 1.539 . S
C365 C361 1.408 1_565 S
C365 C364 1.404 . S
C365 H377 0.930 . S
C366 C362 1.524 . S
C366 H378 0.956 . S
C366 H379 0.961 . S
C366 H380 0.961 . S
C367 C364 1.539 . S
C367 H381 0.958 1_556 S
C367 H382 0.961 . S
C367 H383 0.960 . S
H368 C352 0.931 . S
H369 C357 0.929 . S
H370 C358 0.960 1_556 S
H371 C358 0.962 1_556 S
H372 C358 0.960 . S
H373 C359 0.961 . S
H374 C359 0.961 . S
H375 C359 0.961 . S
H376 C360 0.931 . S
H377 C365 0.930 . S
H378 C366 0.956 . S
H379 C366 0.961 . S
H380 C366 0.961 . S
H381 C367 0.958 1_554 S
H382 C367 0.961 . S
H383 C367 0.960 . S
C384 C385 1.391 1_554 S
C384 C386 1.394 1_554 S
C384 H400 0.931 . S
C385 C384 1.391 1_556 S
C385 C389 1.376 . S
C386 C384 1.394 1_556 S
C386 C387 1.369 . S
C386 C390 1.531 1_556 S
C387 C386 1.369 . S
C387 C388 1.410 . S
C387 C395 1.503 . S
C388 C387 1.410 . S
C388 C389 1.392 . S
C388 C391 1.511 . S
C389 C385 1.376 . S
C389 C388 1.392 . S
C389 H401 0.929 . S
C390 C386 1.531 1_554 S
C390 H402 0.960 1_554 S
C390 H403 0.962 . S
C390 H404 0.960 . S
C391 C388 1.511 . S
C391 H405 0.961 . S
C391 H406 0.961 . S
C391 H407 0.961 . S
C392 C393 1.370 . S
C392 C394 1.363 . S
C392 H408 0.931 . S
C393 C392 1.370 . S
C393 C397 1.408 . S
C394 C392 1.363 . S
C394 C395 1.370 . S
C394 C398 1.524 . S
C395 C387 1.503 . S
C395 C394 1.370 . S
C395 C396 1.403 . S
C396 C395 1.403 . S
C396 C397 1.404 . S
C396 C399 1.539 . S
C397 C393 1.408 . S
C397 C396 1.404 . S
C397 H409 0.930 . S
C398 C394 1.524 . S
C398 H410 0.956 1_556 S
C398 H411 0.961 . S
C398 H412 0.961 . S
C399 C396 1.539 . S
C399 H413 0.958 . S
C399 H414 0.961 . S
C399 H415 0.960 . S
H400 C384 0.931 . S
H401 C389 0.929 . S
H402 C390 0.960 1_556 S
H403 C390 0.962 . S
H404 C390 0.960 . S
H405 C391 0.961 . S
H406 C391 0.961 . S
H407 C391 0.961 . S
H408 C392 0.931 . S
H409 C397 0.930 . S
H410 C398 0.956 1_554 S
H411 C398 0.961 . S
H412 C398 0.961 . S
H413 C399 0.958 . S
H414 C399 0.961 . S
H415 C399 0.960 . S
C416 C417 1.391 . S
C416 C418 1.394 1_554 S
C416 H432 0.931 . S
C417 C416 1.391 . S
C417 C421 1.376 . S
C418 C416 1.394 1_556 S
C418 C419 1.369 . S
C418 C422 1.531 . S
C419 C418 1.369 . S
C419 C420 1.410 . S
C419 C427 1.503 . S
C420 C419 1.410 . S
C420 C421 1.392 1_556 S
C420 C423 1.511 . S
C421 C417 1.376 . S
C421 C420 1.392 1_554 S
C421 H433 0.929 . S
C422 C418 1.531 . S
C422 H434 0.960 . S
C422 H435 0.962 1_556 S
C422 H436 0.960 1_556 S
C423 C420 1.511 . S
C423 H437 0.961 . S
C423 H438 0.961 . S
C423 H439 0.961 . S
C424 C425 1.370 . S
C424 C426 1.363 . S
C424 H440 0.931 . S
C425 C424 1.370 . S
C425 C429 1.408 . S
C426 C424 1.363 . S
C426 C427 1.370 . S
C426 C430 1.524 1_556 S
C427 C419 1.503 . S
C427 C426 1.370 . S
C427 C428 1.403 . S
C428 C427 1.403 . S
C428 C429 1.404 . S
C428 C431 1.539 . S
C429 C425 1.408 . S
C429 C428 1.404 . S
C429 H441 0.930 . S
C430 C426 1.524 1_554 S
C430 H442 0.956 . S
C430 H443 0.961 . S
C430 H444 0.961 . S
C431 C428 1.539 . S
C431 H445 0.958 . S
C431 H446 0.961 . S
C431 H447 0.960 . S
H432 C416 0.931 . S
H433 C421 0.929 . S
H434 C422 0.960 . S
H435 C422 0.962 1_554 S
H436 C422 0.960 1_554 S
H437 C423 0.961 . S
H438 C423 0.961 . S
H439 C423 0.961 . S
H440 C424 0.931 . S
H441 C429 0.930 . S
H442 C430 0.956 . S
H443 C430 0.961 . S
H444 C430 0.961 . S
H445 C431 0.958 . S
H446 C431 0.961 . S
H447 C431 0.960 . S
C448 C449 1.391 . S
C448 C450 1.404 . S
C448 H464 0.931 1_655 S
C449 C448 1.391 . S
C449 C453 1.376 . S
C450 C448 1.404 . S
C450 C451 1.403 . S
C450 C454 1.486 1_655 S
C451 C450 1.403 . S
C451 C452 1.410 . S
C451 C459 1.503 . S
C452 C451 1.410 . S
C452 C453 1.392 . S
C452 C455 1.511 . S
C453 C449 1.376 . S
C453 C452 1.392 . S
C453 H465 0.929 . S
C454 C450 1.486 1_455 S
C454 H466 0.960 . S
C454 H467 0.962 . S
C454 H468 0.960 . S
C455 C452 1.511 . S
C455 H469 0.961 . S
C455 H470 0.961 . S
C455 H471 0.961 . S
C456 C457 1.370 . S
C456 C458 1.363 . S
C456 H472 0.931 . S
C457 C456 1.370 . S
C457 C461 1.408 . S
C458 C456 1.363 . S
C458 C459 1.370 . S
C458 C462 1.524 . S
C459 C451 1.503 . S
C459 C458 1.370 . S
C459 C460 1.403 . S
C460 C459 1.403 . S
C460 C461 1.404 . S
C460 C463 1.539 . S
C461 C457 1.408 . S
C461 C460 1.404 . S
C461 H473 0.930 1_655 S
C462 C458 1.524 . S
C462 H474 0.956 . S
C462 H475 0.961 . S
C462 H476 0.961 . S
C463 C460 1.539 . S
C463 H477 0.958 1_655 S
C463 H478 0.961 1_556 S
C463 H479 0.960 . S
H464 C448 0.931 1_455 S
H465 C453 0.929 . S
H466 C454 0.960 . S
H467 C454 0.962 . S
H468 C454 0.960 . S
H469 C455 0.961 . S
H470 C455 0.961 . S
H471 C455 0.961 . S
H472 C456 0.931 . S
H473 C461 0.930 1_455 S
H474 C462 0.956 . S
H475 C462 0.961 . S
H476 C462 0.961 . S
H477 C463 0.958 1_455 S
H478 C463 0.961 1_554 S
H479 C463 0.960 . S
C480 C481 1.391 . S
C480 C482 1.394 . S
C480 H496 0.931 . S
C481 C480 1.391 . S
C481 C485 1.376 . S
C482 C480 1.394 . S
C482 C483 1.369 . S
C482 C486 1.531 . S
C483 C482 1.369 . S
C483 C484 1.410 . S
C483 C491 1.503 . S
C484 C483 1.410 . S
C484 C485 1.392 . S
C484 C487 1.511 . S
C485 C481 1.376 . S
C485 C484 1.392 . S
C485 H497 0.929 . S
C486 C482 1.531 . S
C486 H498 0.960 . S
C486 H499 0.962 . S
C486 H500 0.960 . S
C487 C484 1.511 . S
C487 H501 0.961 . S
C487 H502 0.961 . S
C487 H503 0.961 . S
C488 C489 1.370 . S
C488 C490 1.363 . S
C488 H504 0.931 . S
C489 C488 1.370 . S
C489 C493 1.408 . S
C490 C488 1.363 . S
C490 C491 1.370 . S
C490 C494 1.524 . S
C491 C483 1.503 . S
C491 C490 1.370 . S
C491 C492 1.403 . S
C492 C491 1.403 . S
C492 C493 1.404 . S
C492 C495 1.539 1_455 S
C493 C489 1.408 . S
C493 C492 1.404 . S
C493 H505 0.930 1_455 S
C494 C490 1.524 . S
C494 H506 0.956 . S
C494 H507 0.961 . S
C494 H508 0.961 . S
C495 C492 1.539 1_655 S
C495 H509 0.958 1_655 S
C495 H510 0.961 . S
C495 H511 0.960 1_655 S
H496 C480 0.931 . S
H497 C485 0.929 . S
H498 C486 0.960 . S
H499 C486 0.962 . S
H500 C486 0.960 . S
H501 C487 0.961 . S
H502 C487 0.961 . S
H503 C487 0.961 . S
H504 C488 0.931 . S
H505 C493 0.930 1_655 S
H506 C494 0.956 . S
H507 C494 0.961 . S
H508 C494 0.961 . S
H509 C495 0.958 1_455 S
H510 C495 0.961 . S
H511 C495 0.960 1_455 S
C512 C513 1.413 . S
C512 C514 1.394 . S
C512 H528 0.931 . S
C513 C512 1.413 . S
C513 C517 1.355 1_565 S
C514 C512 1.394 . S
C514 C515 1.369 . S
C514 C518 1.531 . S
C515 C514 1.369 . S
C515 C516 1.410 1_565 S
C515 C523 1.503 . S
C516 C515 1.410 1_545 S
C516 C517 1.392 . S
C516 C519 1.511 . S
C517 C513 1.355 1_545 S
C517 C516 1.392 . S
C517 H529 0.929 . S
C518 C514 1.531 . S
C518 H530 0.960 . S
C518 H531 0.962 . S
C518 H532 0.960 . S
C519 C516 1.511 . S
C519 H533 0.961 . S
C519 H534 0.961 . S
C519 H535 0.961 . S
C520 C521 1.380 . S
C520 C522 1.363 1_565 S
C520 H536 0.923 1_565 S
C521 C520 1.380 . S
C521 C525 1.408 . S
C522 C520 1.363 1_545 S
C522 C523 1.369 1_545 S
C522 C526 1.526 . S
C523 C515 1.503 . S
C523 C522 1.369 1_565 S
C523 C524 1.403 . S
C524 C523 1.403 . S
C524 C525 1.404 . S
C524 C527 1.539 . S
C525 C521 1.408 . S
C525 C524 1.404 . S
C525 H537 0.930 . S
C526 C522 1.526 . S
C526 H538 0.956 1_545 S
C526 H539 0.961 . S
C526 H540 0.961 . S
C527 C524 1.539 . S
C527 H541 0.958 . S
C527 H542 0.961 . S
C527 H543 0.960 . S
H528 C512 0.931 . S
H529 C517 0.929 . S
H530 C518 0.960 . S
H531 C518 0.962 . S
H532 C518 0.960 . S
H533 C519 0.961 . S
H534 C519 0.961 . S
H535 C519 0.961 . S
H536 C520 0.923 1_545 S
H537 C525 0.930 . S
H538 C526 0.956 1_565 S
H539 C526 0.961 . S
H540 C526 0.961 . S
H541 C527 0.958 . S
H542 C527 0.961 . S
H543 C527 0.960 . S
C544 C545 1.391 . S
C544 C546 1.394 . S
C544 H560 0.931 . S
C545 C544 1.391 . S
C545 C549 1.376 . S
C546 C544 1.394 . S
C546 C547 1.369 . S
C546 C550 1.531 . S
C547 C546 1.369 . S
C547 C548 1.410 . S
C547 C555 1.503 . S
C548 C547 1.410 . S
C548 C549 1.392 . S
C548 C551 1.511 . S
C549 C545 1.376 . S
C549 C548 1.392 . S
C549 H561 0.929 . S
C550 C546 1.531 . S
C550 H562 0.960 . S
C550 H563 0.962 . S
C550 H564 0.960 . S
C551 C548 1.511 . S
C551 H565 0.961 . S
C551 H566 0.961 . S
C551 H567 0.961 . S
C552 C553 1.370 . S
C552 C554 1.363 . S
C552 H568 0.931 . S
C553 C552 1.370 . S
C553 C557 1.408 . S
C554 C552 1.363 . S
C554 C555 1.370 . S
C554 C558 1.524 . S
C555 C547 1.503 . S
C555 C554 1.370 . S
C555 C556 1.403 . S
C556 C555 1.403 . S
C556 C557 1.404 . S
C556 C559 1.539 . S
C557 C553 1.408 . S
C557 C556 1.404 . S
C557 H569 0.930 . S
C558 C554 1.524 . S
C558 H570 0.956 . S
C558 H571 0.961 . S
C558 H572 0.961 . S
C559 C556 1.539 . S
C559 H573 0.958 . S
C559 H574 0.961 . S
C559 H575 0.960 . S
H560 C544 0.931 . S
H561 C549 0.929 . S
H562 C550 0.960 . S
H563 C550 0.962 . S
H564 C550 0.960 . S
H565 C551 0.961 . S
H566 C551 0.961 . S
H567 C551 0.961 . S
H568 C552 0.931 . S
H569 C557 0.930 . S
H570 C558 0.956 . S
H571 C558 0.961 . S
H572 C558 0.961 . S
H573 C559 0.958 . S
H574 C559 0.961 . S
H575 C559 0.960 . S
C576 C577 1.391 . S
C576 C578 1.394 . S
C576 H592 0.931 . S
C577 C576 1.391 . S
C577 C581 1.376 . S
C578 C576 1.394 . S
C578 C579 1.369 . S
C578 C582 1.531 . S
C579 C578 1.369 . S
C579 C580 1.410 . S
C579 C587 1.503 . S
C580 C579 1.410 . S
C580 C581 1.392 . S
C580 C583 1.511 . S
C581 C577 1.376 . S
C581 C580 1.392 . S
C581 H593 0.929 . S
C582 C578 1.531 . S
C582 H594 0.960 . S
C582 H595 0.962 . S
C582 H596 0.960 . S
C583 C580 1.511 . S
C583 H597 0.961 . S
C583 H598 0.961 . S
C583 H599 0.961 . S
C584 C585 1.370 . S
C584 C586 1.363 . S
C584 H600 0.931 . S
C585 C584 1.370 . S
C585 C589 1.408 . S
C586 C584 1.363 . S
C586 C587 1.370 . S
C586 C590 1.524 . S
C587 C579 1.503 . S
C587 C586 1.370 . S
C587 C588 1.403 . S
C588 C587 1.403 . S
C588 C589 1.404 . S
C588 C591 1.539 . S
C589 C585 1.408 . S
C589 C588 1.404 . S
C589 H601 0.930 . S
C590 C586 1.524 . S
C590 H602 0.956 . S
C590 H603 0.961 . S
C590 H604 0.961 . S
C591 C588 1.539 . S
C591 H605 0.958 . S
C591 H606 0.961 . S
C591 H607 0.960 . S
H592 C576 0.931 . S
H593 C581 0.929 . S
H594 C582 0.960 . S
H595 C582 0.962 . S
H596 C582 0.960 . S
H597 C583 0.961 . S
H598 C583 0.961 . S
H599 C583 0.961 . S
H600 C584 0.931 . S
H601 C589 0.930 . S
H602 C590 0.956 . S
H603 C590 0.961 . S
H604 C590 0.961 . S
H605 C591 0.958 . S
H606 C591 0.961 . S
H607 C591 0.960 . S
C608 C609 1.391 . S
C608 C610 1.394 . S
C608 H624 0.931 . S
C609 C608 1.391 . S
C609 C613 1.376 . S
C610 C608 1.394 . S
C610 C611 1.369 . S
C610 C614 1.531 . S
C611 C610 1.369 . S
C611 C612 1.436 . S
C611 C619 1.503 . S
C612 C611 1.436 . S
C612 C613 1.410 . S
C612 C615 1.469 1_655 S
C613 C609 1.376 . S
C613 C612 1.410 . S
C613 H625 0.929 . S
C614 C610 1.531 . S
C614 H626 0.960 . S
C614 H627 0.962 . S
C614 H628 0.960 . S
C615 C612 1.469 1_455 S
C615 H629 0.961 . S
C615 H630 0.961 . S
C615 H631 0.961 . S
C616 C617 1.370 . S
C616 C618 1.363 1_455 S
C616 H632 0.931 . S
C617 C616 1.370 . S
C617 C621 1.408 . S
C618 C616 1.363 1_655 S
C618 C619 1.370 . S
C618 C622 1.524 . S
C619 C611 1.503 . S
C619 C618 1.370 . S
C619 C620 1.403 1_655 S
C620 C619 1.403 1_455 S
C620 C621 1.404 . S
C620 C623 1.539 . S
C621 C617 1.408 . S
C621 C620 1.404 . S
C621 H633 0.930 . S
C622 C618 1.524 . S
C622 H634 0.956 . S
C622 H635 0.961 . S
C622 H636 0.961 . S
C623 C620 1.539 . S
C623 H637 0.958 1_456 S
C623 H638 0.961 1_556 S
C623 H639 0.960 1_556 S
H624 C608 0.931 . S
H625 C613 0.929 . S
H626 C614 0.960 . S
H627 C614 0.962 . S
H628 C614 0.960 . S
H629 C615 0.961 . S
H630 C615 0.961 . S
H631 C615 0.961 . S
H632 C616 0.931 . S
H633 C621 0.930 . S
H634 C622 0.956 . S
H635 C622 0.961 . S
H636 C622 0.961 . S
H637 C623 0.958 1_654 S
H638 C623 0.961 1_554 S
H639 C623 0.960 1_554 S
C640 C641 1.391 . S
C640 C642 1.394 . S
C640 H656 0.931 . S
C641 C640 1.391 . S
C641 C645 1.376 1_566 S
C642 C640 1.394 . S
C642 C643 1.369 . S
C642 C646 1.531 . S
C643 C642 1.369 . S
C643 C644 1.403 1_566 S
C643 C651 1.503 . S
C644 C643 1.403 1_544 S
C644 C645 1.396 . S
C644 C647 1.515 . S
C645 C641 1.376 1_544 S
C645 C644 1.396 . S
C645 H657 0.929 . S
C646 C642 1.531 . S
C646 H658 0.960 . S
C646 H659 0.962 . S
C646 H660 0.960 . S
C647 C644 1.515 . S
C647 H661 0.961 . S
C647 H662 0.961 . S
C647 H663 0.961 . S
C648 C649 1.370 . S
C648 C650 1.363 . S
C648 H664 0.931 . S
C649 C648 1.370 . S
C649 C653 1.408 1_545 S
C650 C648 1.363 . S
C650 C651 1.369 1_545 S
C650 C654 1.524 . S
C651 C643 1.503 . S
C651 C650 1.369 1_565 S
C651 C652 1.404 . S
C652 C651 1.404 . S
C652 C653 1.404 . S
C652 C655 1.539 . S
C653 C649 1.408 1_565 S
C653 C652 1.404 . S
C653 H665 0.930 . S
C654 C650 1.524 . S
C654 H666 0.956 . S
C654 H667 0.961 . S
C654 H668 0.961 . S
C655 C652 1.539 . S
C655 H669 0.958 . S
C655 H670 0.961 . S
C655 H671 0.960 . S
H656 C640 0.931 . S
H657 C645 0.929 . S
H658 C646 0.960 . S
H659 C646 0.962 . S
H660 C646 0.960 . S
H661 C647 0.961 . S
H662 C647 0.961 . S
H663 C647 0.961 . S
H664 C648 0.931 . S
H665 C653 0.930 . S
H666 C654 0.956 . S
H667 C654 0.961 . S
H668 C654 0.961 . S
H669 C655 0.958 . S
H670 C655 0.961 . S
H671 C655 0.960 . S
C672 C673 1.391 1_556 S
C672 C674 1.394 . S
C672 H688 0.931 . S
C673 C672 1.391 1_554 S
C673 C677 1.376 . S
C674 C672 1.394 . S
C674 C675 1.369 . S
C674 C678 1.531 . S
C675 C674 1.369 . S
C675 C676 1.410 . S
C675 C683 1.503 . S
C676 C675 1.410 . S
C676 C677 1.392 1_556 S
C676 C679 1.511 1_556 S
C677 C673 1.376 . S
C677 C676 1.392 1_554 S
C677 H689 0.929 . S
C678 C674 1.531 . S
C678 H690 0.960 . S
C678 H691 0.962 . S
C678 H692 0.960 . S
C679 C676 1.511 1_554 S
C679 H693 0.961 . S
C679 H694 0.961 1_554 S
C679 H695 0.961 . S
C680 C681 1.370 . S
C680 C682 1.363 . S
C680 H696 0.931 . S
C681 C680 1.370 . S
C681 C685 1.408 . S
C682 C680 1.363 . S
C682 C683 1.370 . S
C682 C686 1.524 . S
C683 C675 1.503 . S
C683 C682 1.370 . S
C683 C684 1.403 . S
C684 C683 1.403 . S
C684 C685 1.404 . S
C684 C687 1.539 1_556 S
C685 C681 1.408 . S
C685 C684 1.404 . S
C685 H697 0.930 . S
C686 C682 1.524 . S
C686 H698 0.956 . S
C686 H699 0.961 . S
C686 H700 0.961 . S
C687 C684 1.539 1_554 S
C687 H701 0.958 . S
C687 H702 0.961 . S
C687 H703 0.960 . S
H688 C672 0.931 . S
H689 C677 0.929 . S
H690 C678 0.960 . S
H691 C678 0.962 . S
H692 C678 0.960 . S
H693 C679 0.961 . S
H694 C679 0.961 1_556 S
H695 C679 0.961 . S
H696 C680 0.931 . S
H697 C685 0.930 . S
H698 C686 0.956 . S
H699 C686 0.961 . S
H700 C686 0.961 . S
H701 C687 0.958 . S
H702 C687 0.961 . S
H703 C687 0.960 . S
C704 C705 1.391 1_556 S
C704 C706 1.394 . S
C704 H720 0.931 . S
C705 C704 1.391 1_554 S
C705 C709 1.376 . S
C706 C704 1.394 . S
C706 C707 1.369 . S
C706 C710 1.531 . S
C707 C706 1.369 . S
C707 C708 1.410 1_556 S
C707 C715 1.503 . S
C708 C707 1.410 1_554 S
C708 C709 1.392 . S
C708 C711 1.511 . S
C709 C705 1.376 . S
C709 C708 1.392 . S
C709 H721 0.929 . S
C710 C706 1.531 . S
C710 H722 0.960 . S
C710 H723 0.962 . S
C710 H724 0.960 . S
C711 C708 1.511 . S
C711 H725 0.961 . S
C711 H726 0.961 . S
C711 H727 0.961 . S
C712 C713 1.370 . S
C712 C714 1.363 . S
C712 H728 0.931 . S
C713 C712 1.370 . S
C713 C717 1.408 . S
C714 C712 1.363 . S
C714 C715 1.370 . S
C714 C718 1.524 . S
C715 C707 1.503 . S
C715 C714 1.370 . S
C715 C716 1.403 . S
C716 C715 1.403 . S
C716 C717 1.404 . S
C716 C719 1.539 . S
C717 C713 1.408 . S
C717 C716 1.404 . S
C717 H729 0.930 . S
C718 C714 1.524 . S
C718 H730 0.956 . S
C718 H731 0.961 1_556 S
C718 H732 0.961 . S
C719 C716 1.539 . S
C719 H733 0.958 . S
C719 H734 0.961 . S
C719 H735 0.960 . S
H720 C704 0.931 . S
H721 C709 0.929 . S
H722 C710 0.960 . S
H723 C710 0.962 . S
H724 C710 0.960 . S
H725 C711 0.961 . S
H726 C711 0.961 . S
H727 C711 0.961 . S
H728 C712 0.931 . S
H729 C717 0.930 . S
H730 C718 0.956 . S
H731 C718 0.961 1_554 S
H732 C718 0.961 . S
H733 C719 0.958 . S
H734 C719 0.961 . S
H735 C719 0.960 . S
C736 C737 1.391 . S
C736 C738 1.394 . S
C736 H752 0.931 . S
C737 C736 1.391 . S
C737 C741 1.376 . S
C738 C736 1.394 . S
C738 C739 1.369 . S
C738 C742 1.531 . S
C739 C738 1.369 . S
C739 C740 1.410 . S
C739 C747 1.503 . S
C740 C739 1.410 . S
C740 C741 1.392 . S
C740 C743 1.511 . S
C741 C737 1.376 . S
C741 C740 1.392 . S
C741 H753 0.929 . S
C742 C738 1.531 . S
C742 H754 0.960 . S
C742 H755 0.962 . S
C742 H756 0.960 . S
C743 C740 1.511 . S
C743 H757 0.961 . S
C743 H758 0.961 . S
C743 H759 0.961 . S
C744 C745 1.370 . S
C744 C746 1.363 . S
C744 H760 0.931 . S
C745 C744 1.370 . S
C745 C749 1.408 . S
C746 C744 1.363 . S
C746 C747 1.370 . S
C746 C750 1.524 . S
C747 C739 1.503 . S
C747 C746 1.370 . S
C747 C748 1.403 . S
C748 C747 1.403 . S
C748 C749 1.404 . S
C748 C751 1.539 . S
C749 C745 1.408 . S
C749 C748 1.404 . S
C749 H761 0.930 . S
C750 C746 1.524 . S
C750 H762 0.956 . S
C750 H763 0.961 . S
C750 H764 0.961 . S
C751 C748 1.539 . S
C751 H765 0.958 1_455 S
C751 H766 0.961 1_455 S
C751 H767 0.960 . S
H752 C736 0.931 . S
H753 C741 0.929 . S
H754 C742 0.960 . S
H755 C742 0.962 . S
H756 C742 0.960 . S
H757 C743 0.961 . S
H758 C743 0.961 . S
H759 C743 0.961 . S
H760 C744 0.931 . S
H761 C749 0.930 . S
H762 C750 0.956 . S
H763 C750 0.961 . S
H764 C750 0.961 . S
H765 C751 0.958 1_655 S
H766 C751 0.961 1_655 S
H767 C751 0.960 . S
C768 C769 1.391 1_545 S
C768 C770 1.394 . S
C768 H784 0.931 . S
C769 C768 1.391 1_565 S
C769 C773 1.376 . S
C770 C768 1.394 . S
C770 C771 1.369 1_545 S
C770 C774 1.531 . S
C771 C770 1.369 1_565 S
C771 C772 1.410 . S
C771 C779 1.503 . S
C772 C771 1.410 . S
C772 C773 1.392 . S
C772 C775 1.511 1_554 S
C773 C769 1.376 . S
C773 C772 1.392 . S
C773 H785 0.929 . S
C774 C770 1.531 . S
C774 H786 0.960 1_545 S
C774 H787 0.962 . S
C774 H788 0.960 . S
C775 C772 1.511 1_556 S
C775 H789 0.961 . S
C775 H790 0.961 . S
C775 H791 0.961 . S
C776 C777 1.370 . S
C776 C778 1.363 . S
C776 H792 0.931 . S
C777 C776 1.370 . S
C777 C781 1.408 1_545 S
C778 C776 1.363 . S
C778 C779 1.370 1_546 S
C778 C782 1.524 . S
C779 C771 1.503 . S
C779 C778 1.370 1_564 S
C779 C780 1.403 1_554 S
C780 C779 1.403 1_556 S
C780 C781 1.404 . S
C780 C783 1.539 1_556 S
C781 C777 1.408 1_565 S
C781 C780 1.404 . S
C781 H793 0.930 . S
C782 C778 1.524 . S
C782 H794 0.956 1_556 S
C782 H795 0.961 . S
C782 H796 0.961 . S
C783 C780 1.539 1_554 S
C783 H797 0.958 . S
C783 H798 0.961 . S
C783 H799 0.960 . S
H784 C768 0.931 . S
H785 C773 0.929 . S
H786 C774 0.960 1_565 S
H787 C774 0.962 . S
H788 C774 0.960 . S
H789 C775 0.961 . S
H790 C775 0.961 . S
H791 C775 0.961 . S
H792 C776 0.931 . S
H793 C781 0.930 . S
H794 C782 0.956 1_554 S
H795 C782 0.961 . S
H796 C782 0.961 . S
H797 C783 0.958 . S
H798 C783 0.961 . S
H799 C783 0.960 . S
C800 C801 1.391 . S
C800 C802 1.394 . S
C800 H816 0.931 . S
C801 C800 1.391 . S
C801 C805 1.376 . S
C802 C800 1.394 . S
C802 C803 1.369 . S
C802 C806 1.531 . S
C803 C802 1.369 . S
C803 C804 1.410 . S
C803 C811 1.503 1_554 S
C804 C803 1.410 . S
C804 C805 1.392 . S
C804 C807 1.511 . S
C805 C801 1.376 . S
C805 C804 1.392 . S
C805 H817 0.929 . S
C806 C802 1.531 . S
C806 H818 0.960 1_554 S
C806 H819 0.962 . S
C806 H820 0.960 . S
C807 C804 1.511 . S
C807 H821 0.961 . S
C807 H822 0.961 . S
C807 H823 0.961 . S
C808 C809 1.370 . S
C808 C810 1.363 1_556 S
C808 H824 0.931 . S
C809 C808 1.370 . S
C809 C813 1.408 . S
C810 C808 1.363 1_554 S
C810 C811 1.370 1_554 S
C810 C814 1.524 . S
C811 C803 1.503 1_556 S
C811 C810 1.370 1_556 S
C811 C812 1.403 . S
C812 C811 1.403 . S
C812 C813 1.404 . S
C812 C815 1.539 . S
C813 C809 1.408 . S
C813 C812 1.404 . S
C813 H825 0.930 . S
C814 C810 1.524 . S
C814 H826 0.956 . S
C814 H827 0.961 . S
C814 H828 0.961 . S
C815 C812 1.539 . S
C815 H829 0.958 . S
C815 H830 0.961 . S
C815 H831 0.960 . S
H816 C800 0.931 . S
H817 C805 0.929 . S
H818 C806 0.960 1_556 S
H819 C806 0.962 . S
H820 C806 0.960 . S
H821 C807 0.961 . S
H822 C807 0.961 . S
H823 C807 0.961 . S
H824 C808 0.931 . S
H825 C813 0.930 . S
H826 C814 0.956 . S
H827 C814 0.961 . S
H828 C814 0.961 . S
H829 C815 0.958 . S
H830 C815 0.961 . S
H831 C815 0.960 . S
C832 C833 1.391 . S
C832 C834 1.394 . S
C832 H848 0.931 . S
C833 C832 1.391 . S
C833 C837 1.376 . S
C834 C832 1.394 . S
C834 C835 1.369 . S
C834 C838 1.531 1_554 S
C835 C834 1.369 . S
C835 C836 1.410 . S
C835 C843 1.503 1_554 S
C836 C835 1.410 . S
C836 C837 1.392 . S
C836 C839 1.511 . S
C837 C833 1.376 . S
C837 C836 1.392 . S
C837 H849 0.929 . S
C838 C834 1.531 1_556 S
C838 H850 0.960 . S
C838 H851 0.962 . S
C838 H852 0.960 . S
C839 C836 1.511 . S
C839 H853 0.961 . S
C839 H854 0.961 . S
C839 H855 0.961 . S
C840 C841 1.370 . S
C840 C842 1.363 . S
C840 H856 0.931 . S
C841 C840 1.370 . S
C841 C845 1.408 . S
C842 C840 1.363 . S
C842 C843 1.370 . S
C842 C846 1.524 . S
C843 C835 1.503 1_556 S
C843 C842 1.370 . S
C843 C844 1.403 . S
C844 C843 1.403 . S
C844 C845 1.404 . S
C844 C847 1.539 1_556 S
C845 C841 1.408 . S
C845 C844 1.404 . S
C845 H857 0.930 . S
C846 C842 1.524 . S
C846 H858 0.956 . S
C846 H859 0.961 . S
C846 H860 0.961 . S
C847 C844 1.539 1_554 S
C847 H861 0.958 . S
C847 H862 0.961 . S
C847 H863 0.960 . S
H848 C832 0.931 . S
H849 C837 0.929 . S
H850 C838 0.960 . S
H851 C838 0.962 . S
H852 C838 0.960 . S
H853 C839 0.961 . S
H854 C839 0.961 . S
H855 C839 0.961 . S
H856 C840 0.931 . S
H857 C845 0.930 . S
H858 C846 0.956 . S
H859 C846 0.961 . S
H860 C846 0.961 . S
H861 C847 0.958 . S
H862 C847 0.961 . S
H863 C847 0.960 . S
C864 C865 1.391 . S
C864 C866 1.394 . S
C864 H880 0.931 . S
C865 C864 1.391 . S
C865 C869 1.376 . S
C866 C864 1.394 . S
C866 C867 1.369 . S
C866 C870 1.531 1_655 S
C867 C866 1.369 . S
C867 C868 1.410 . S
C867 C875 1.503 . S
C868 C867 1.410 . S
C868 C869 1.392 . S
C868 C871 1.511 . S
C869 C865 1.376 . S
C869 C868 1.392 . S
C869 H881 0.929 . S
C870 C866 1.531 1_455 S
C870 H882 0.960 . S
C870 H883 0.962 . S
C870 H884 0.960 . S
C871 C868 1.511 . S
C871 H885 0.961 . S
C871 H886 0.961 . S
C871 H887 0.961 . S
C872 C873 1.370 . S
C872 C874 1.363 . S
C872 H888 0.931 1_655 S
C873 C872 1.370 . S
C873 C877 1.408 . S
C874 C872 1.363 . S
C874 C875 1.370 . S
C874 C878 1.524 1_655 S
C875 C867 1.503 . S
C875 C874 1.370 . S
C875 C876 1.403 . S
C876 C875 1.403 . S
C876 C877 1.404 . S
C876 C879 1.539 . S
C877 C873 1.408 . S
C877 C876 1.404 . S
C877 H889 0.930 . S
C878 C874 1.524 1_455 S
C878 H890 0.956 . S
C878 H891 0.961 1_455 S
C878 H892 0.961 . S
C879 C876 1.539 . S
C879 H893 0.958 . S
C879 H894 0.961 . S
C879 H895 0.960 . S
H880 C864 0.931 . S
H881 C869 0.929 . S
H882 C870 0.960 . S
H883 C870 0.962 . S
H884 C870 0.960 . S
H885 C871 0.961 . S
H886 C871 0.961 . S
H887 C871 0.961 . S
H888 C872 0.931 1_455 S
H889 C877 0.930 . S
H890 C878 0.956 . S
H891 C878 0.961 1_655 S
H892 C878 0.961 . S
H893 C879 0.958 . S
H894 C879 0.961 . S
H895 C879 0.960 . S
C896 C897 1.391 1_545 S
C896 C898 1.394 . S
C896 H912 0.931 . S
C897 C896 1.391 1_565 S
C897 C901 1.376 . S
C898 C896 1.394 . S
C898 C899 1.369 1_545 S
C898 C902 1.531 . S
C899 C898 1.369 1_565 S
C899 C900 1.410 . S
C899 C907 1.503 . S
C900 C899 1.410 . S
C900 C901 1.392 . S
C900 C903 1.511 . S
C901 C897 1.376 . S
C901 C900 1.392 . S
C901 H913 0.929 . S
C902 C898 1.531 . S
C902 H914 0.960 . S
C902 H915 0.962 . S
C902 H916 0.960 . S
C903 C900 1.511 . S
C903 H917 0.961 . S
C903 H918 0.961 . S
C903 H919 0.961 . S
C904 C905 1.370 1_545 S
C904 C906 1.363 . S
C904 H920 0.931 . S
C905 C904 1.370 1_565 S
C905 C909 1.408 . S
C906 C904 1.363 . S
C906 C907 1.370 1_545 S
C906 C910 1.524 . S
C907 C899 1.503 . S
C907 C906 1.370 1_565 S
C907 C908 1.403 . S
C908 C907 1.403 . S
C908 C909 1.404 . S
C908 C911 1.539 . S
C909 C905 1.408 . S
C909 C908 1.404 . S
C909 H921 0.930 . S
C910 C906 1.524 . S
C910 H922 0.956 . S
C910 H923 0.961 . S
C910 H924 0.961 . S
C911 C908 1.539 . S
C911 H925 0.958 . S
C911 H926 0.961 . S
C911 H927 0.960 . S
H912 C896 0.931 . S
H913 C901 0.929 . S
H914 C902 0.960 . S
H915 C902 0.962 . S
H916 C902 0.960 . S
H917 C903 0.961 . S
H918 C903 0.961 . S
H919 C903 0.961 . S
H920 C904 0.931 . S
H921 C909 0.930 . S
H922 C910 0.956 . S
H923 C910 0.961 . S
H924 C910 0.961 . S
H925 C911 0.958 . S
H926 C911 0.961 . S
H927 C911 0.960 . S
C928 C929 1.391 . S
C928 C930 1.394 . S
C928 H944 0.931 . S
C929 C928 1.391 . S
C929 C933 1.376 . S
C930 C928 1.394 . S
C930 C931 1.369 . S
C930 C934 1.531 . S
C931 C930 1.369 . S
C931 C932 1.410 . S
C931 C939 1.503 . S
C932 C931 1.410 . S
C932 C933 1.392 . S
C932 C935 1.511 . S
C933 C929 1.376 . S
C933 C932 1.392 . S
C933 H945 0.929 . S
C934 C930 1.531 . S
C934 H946 0.960 . S
C934 H947 0.962 . S
C934 H948 0.960 . S
C935 C932 1.511 . S
C935 H949 0.961 . S
C935 H950 0.961 . S
C935 H951 0.961 . S
C936 C937 1.370 . S
C936 C938 1.363 . S
C936 H952 0.931 . S
C937 C936 1.370 . S
C937 C941 1.408 . S
C938 C936 1.363 . S
C938 C939 1.370 . S
C938 C942 1.524 . S
C939 C931 1.503 . S
C939 C938 1.370 . S
C939 C940 1.403 . S
C940 C939 1.403 . S
C940 C941 1.404 . S
C940 C943 1.539 . S
C941 C937 1.408 . S
C941 C940 1.404 . S
C941 H953 0.930 . S
C942 C938 1.524 . S
C942 H954 0.956 . S
C942 H955 0.961 . S
C942 H956 0.961 . S
C943 C940 1.539 . S
C943 H957 0.958 . S
C943 H958 0.961 . S
C943 H959 0.960 . S
H944 C928 0.931 . S
H945 C933 0.929 . S
H946 C934 0.960 . S
H947 C934 0.962 . S
H948 C934 0.960 . S
H949 C935 0.961 . S
H950 C935 0.961 . S
H951 C935 0.961 . S
H952 C936 0.931 . S
H953 C941 0.930 . S
H954 C942 0.956 . S
H955 C942 0.961 . S
H956 C942 0.961 . S
H957 C943 0.958 . S
H958 C943 0.961 . S
H959 C943 0.960 . S
C960 C961 1.391 . S
C960 C962 1.394 . S
C960 H976 0.931 . S
C961 C960 1.391 . S
C961 C965 1.376 . S
C962 C960 1.394 . S
C962 C963 1.369 . S
C962 C966 1.531 . S
C963 C962 1.369 . S
C963 C964 1.410 . S
C963 C971 1.503 . S
C964 C963 1.410 . S
C964 C965 1.392 . S
C964 C967 1.511 . S
C965 C961 1.376 . S
C965 C964 1.392 . S
C965 H977 0.929 . S
C966 C962 1.531 . S
C966 H978 0.960 . S
C966 H979 0.962 . S
C966 H980 0.960 . S
C967 C964 1.511 . S
C967 H981 0.961 . S
C967 H982 0.961 . S
C967 H983 0.961 . S
C968 C969 1.370 . S
C968 C970 1.363 . S
C968 H984 0.931 . S
C969 C968 1.370 . S
C969 C973 1.408 . S
C970 C968 1.363 . S
C970 C971 1.370 . S
C970 C974 1.524 . S
C971 C963 1.503 . S
C971 C970 1.370 . S
C971 C972 1.403 . S
C972 C971 1.403 . S
C972 C973 1.404 . S
C972 C975 1.539 . S
C973 C969 1.408 . S
C973 C972 1.404 . S
C973 H985 0.930 . S
C974 C970 1.524 . S
C974 H986 0.956 . S
C974 H987 0.961 . S
C974 H988 0.961 . S
C975 C972 1.539 . S
C975 H989 0.958 . S
C975 H990 0.961 . S
C975 H991 0.960 . S
H976 C960 0.931 . S
H977 C965 0.929 . S
H978 C966 0.960 . S
H979 C966 0.962 . S
H980 C966 0.960 . S
H981 C967 0.961 . S
H982 C967 0.961 . S
H983 C967 0.961 . S
H984 C968 0.931 . S
H985 C973 0.930 . S
H986 C974 0.956 . S
H987 C974 0.961 . S
H988 C974 0.961 . S
H989 C975 0.958 . S
H990 C975 0.961 . S
H991 C975 0.960 . S
C225 C74 1.818 1_565 S
C233 C105 1.835 . S
C265 C126 1.531 . S
C257 C85 1.511 . S
C297 C160 1.341 . S
C289 C52 1.325 . S
C329 C194 1.547 . S
C321 C63 1.557 . S
C361 C96 1.832 . S
C353 C30 1.817 1_566 S
C385 C41 1.515 1_556 S
C393 C135 1.537 . S
C417 C8 1.305 . S
C425 C169 1.346 . S
C449 C19 1.516 . S
C457 C203 1.547 1_655 S
C489 C117 0.564 . S
C481 C62 0.533 . S
C521 C122 1.014 . S
C513 C73 1.012 1_565 S
C553 C156 0.939 . S
C545 C84 0.956 . S
C577 C51 0.541 . S
C585 C190 0.414 . S
C609 C18 0.578 . S
C617 C88 0.581 . S
C649 C151 1.009 . S
C641 C29 1.026 1_566 S
C681 C185 0.947 . S
C673 C40 0.953 . S
C705 C7 0.484 . S
C713 C219 0.394 . S
C737 C60 1.206 . S
C745 C101 1.301 1_554 S
C769 C71 1.500 1_565 S
C777 C130 1.750 . S
C809 C164 1.537 . S
C801 C82 1.339 . S
C841 C198 1.594 . S
C833 C49 1.231 . S
C865 C16 1.060 . S
C873 C92 1.317 . S
C905 C139 1.752 . S
C897 C27 1.507 1_565 S
C937 C173 1.537 . S
C929 C38 1.244 . S
C961 C5 1.306 . S
C969 C207 1.591 . S
