# Generated by pormake.
# Topology nia, (6,6)-cn, num edge types: 1
# Building blocks:
#     Node 0, Type 0, BuildingBlock: KUMBOL_clean_sbu_1, # of connection points: 6
#     Node 1, Type 0, BuildingBlock: KUMBOL_clean_sbu_1, # of connection points: 6
#     Node 2, Type 1, BuildingBlock: MIDCAF_clean_sbu_0, # of connection points: 6
#     Node 3, Type 1, BuildingBlock: MIDCAF_clean_sbu_0, # of connection points: 6
#     Edge 4, Type (0, 1), BuildingBlock: FUNLAD_clean_linker_0, # of connection points: 2
#     Edge 5, Type (0, 1), BuildingBlock: FUNLAD_clean_linker_0, # of connection points: 2
#     Edge 6, Type (0, 1), BuildingBlock: FUNLAD_clean_linker_0, # of connection points: 2
#     Edge 7, Type (0, 1), BuildingBlock: FUNLAD_clean_linker_0, # of connection points: 2
#     Edge 8, Type (0, 1), BuildingBlock: FUNLAD_clean_linker_0, # of connection points: 2
#     Edge 9, Type (0, 1), BuildingBlock: FUNLAD_clean_linker_0, # of connection points: 2
#     Edge 10, Type (0, 1), BuildingBlock: FUNLAD_clean_linker_0, # of connection points: 2
#     Edge 11, Type (0, 1), BuildingBlock: FUNLAD_clean_linker_0, # of connection points: 2
#     Edge 12, Type (0, 1), BuildingBlock: FUNLAD_clean_linker_0, # of connection points: 2
#     Edge 13, Type (0, 1), BuildingBlock: FUNLAD_clean_linker_0, # of connection points: 2
#     Edge 14, Type (0, 1), BuildingBlock: FUNLAD_clean_linker_0, # of connection points: 2
#     Edge 15, Type (0, 1), BuildingBlock: FUNLAD_clean_linker_0, # of connection points: 2
# Relax obj value: 0.168
# Max RMSD: 0.275
# Mean RMSD: 0.199
data_MOF--net-nia--node1-KUMBOL_clean_sbu_1--node2-MIDCAF_clean_sbu_0--edge1-FUNLAD_clean_linker_0
_symmetry_space_group_name_H-M    P1
_symmetry_Int_Tables_number       1
_symmetry_cell_setting            triclinic
loop_
_symmetry_equiv_pos_as_xyz
'x, y, z'
_cell_length_a     32.675231
_cell_length_b     32.586155
_cell_length_c     34.953509
_cell_angle_alpha  89.981708
_cell_angle_beta   90.001852
_cell_angle_gamma 134.25817
loop_
_atom_site_label
_atom_site_type_symbol
_atom_site_fract_x
_atom_site_fract_y
_atom_site_fract_z
_atom_type_partial_charge
C0 C 0.87471 0.90056 0.93052 0.0
C1 C 0.77743 0.83044 0.95392 0.0
C2 C 0.83461 0.88348 0.95774 0.0
C3 C 0.76225 0.79366 0.9236 0.0
C4 C 0.85935 0.86504 0.89913 0.0
C5 C 0.80316 0.81091 0.89627 0.0
N6 N 0.92896 0.95248 0.93464 0.0
C7 C 0.96881 0.97405 0.90668 0.0
C8 C 0.90083 0.88537 0.8714 0.0
C9 C 0.95557 0.94048 0.8749 0.0
Gd10 Gd 0.01764 0.97504 0.07017 0.0
Gd11 Gd 0.94949 0.00418 0.9904 0.0
N12 N 0.85085 0.92011 0.98671 0.0
C13 C 0.73691 0.81681 0.97996 0.0
C14 C 0.81052 0.90917 1.00994 0.0
C15 C 0.75335 0.8569 1.00759 0.0
H16 H 0.82199 0.94078 0.03021 0.0
H17 H 0.7219 0.84789 0.02679 0.0
H18 H 0.1578 0.08212 0.05637 0.0
H19 H 0.01129 0.0164 0.90975 0.0
H20 H 0.24151 0.17158 0.08898 0.0
H21 H 0.69252 0.77652 0.97802 0.0
H22 H 0.71869 0.75241 0.92051 0.0
H23 H 0.91734 0.89466 0.13891 0.0
H24 H 0.89077 0.85933 0.84688 0.0
H25 H -0.01238 0.95696 0.85328 0.0
H26 H 0.16386 0.17193 0.20569 0.0
H27 H 0.79064 0.78258 0.87266 0.0
H28 H 0.96938 0.00247 0.23557 0.0
H29 H 0.89704 0.90884 0.203 0.0
N30 N -0.0034 0.98131 0.13311 0.0
C31 C 0.03872 0.03134 0.15174 0.0
C32 C 0.94772 0.9365 0.15198 0.0
C33 C 0.97765 -0.00306 0.20695 0.0
C34 C 0.93669 0.94406 0.18865 0.0
C35 C 0.03022 0.04084 0.18901 0.0
H36 H 0.06922 0.101 0.23619 0.0
N37 N 0.09926 0.05938 0.09958 0.0
C38 C 0.09204 0.07118 0.13475 0.0
C39 C 0.1924 0.15854 0.13725 0.0
C40 C 0.13824 0.12164 0.15431 0.0
C41 C 0.15236 0.09344 0.08365 0.0
C42 C 0.19963 0.14391 0.10203 0.0
O43 O 0.96509 0.94763 0.9811 0.0
O44 O 0.93945 0.90037 0.0373 0.0
O45 O 0.05419 0.94235 0.05247 0.0
O46 O 0.02936 0.93393 0.11128 0.0
O47 O 0.91506 0.984 0.051 0.0
O48 O 0.92264 0.92255 0.07241 0.0
O49 O 0.05456 0.06417 0.05908 0.0
O50 O 0.97867 0.05313 0.04593 0.0
O51 O 0.90542 0.02651 0.96661 0.0
O52 O -0.00455 0.08058 0.95606 0.0
O53 O 0.06493 0.00998 1.01324 0.0
O54 O 0.04447 0.05878 0.98434 0.0
C55 C 0.93937 0.90039 0.99989 0.0
C56 C 0.89913 0.94277 0.07386 0.0
C57 C 0.01958 0.86063 0.0864 0.0
C58 C 0.01845 0.78874 0.10839 0.0
C59 C 0.94215 0.7612 0.0677 0.0
C60 C 0.96816 0.81792 0.06676 0.0
C61 C 0.96709 0.74658 0.08829 0.0
C62 C 0.04437 0.84585 0.10737 0.0
C63 C 0.04731 0.9205 0.08585 0.0
C64 C 0.12912 0.13293 0.19045 0.0
C65 C 0.07517 0.09262 0.20776 0.0
H66 H 0.22902 0.19776 0.15135 0.0
C67 C 0.02724 0.07988 0.06351 0.0
C68 C 0.07548 0.04672 0.98791 0.0
C69 C 0.96242 0.12576 0.95866 0.0
C70 C 0.94254 0.18311 0.94095 0.0
C71 C 0.01792 0.21966 0.98677 0.0
C72 C 0.00569 0.16937 0.98351 0.0
C73 C -0.01279 0.22691 0.96539 0.0
C74 C 0.93042 0.13234 0.93811 0.0
C75 C 0.95186 0.07443 0.95215 0.0
H76 H 0.90253 0.72846 0.05242 0.0
H77 H 0.94812 0.82832 0.05076 0.0
H78 H 0.946 0.70224 0.08874 0.0
H79 H 0.08432 0.87901 0.12231 0.0
H80 H 0.05189 0.25353 1.00555 0.0
H81 H 0.03058 0.16495 0.99992 0.0
H82 H -0.00082 0.26726 0.96778 0.0
H83 H 0.89603 0.0975 0.91998 0.0
C84 C 0.08516 0.11128 0.62307 0.0
C85 C 0.15299 0.20742 0.59715 0.0
C86 C 0.10005 0.14982 0.59513 0.0
C87 C 0.192 0.22446 0.6262 0.0
C88 C 0.12296 0.12858 0.65327 0.0
C89 C 0.17704 0.18508 0.65418 0.0
N90 N 0.03307 0.05677 0.62096 0.0
C91 C 0.01379 0.01854 0.64974 0.0
C92 C 0.10488 0.0887 0.68183 0.0
C93 C 0.04971 0.03369 0.68036 0.0
Gd94 Gd 0.01022 0.96893 0.48387 0.0
Gd95 Gd 0.97803 0.03243 0.56644 0.0
N96 N 0.06131 0.13178 0.56741 0.0
C97 C 0.16426 0.24654 0.57073 0.0
C98 C 0.06992 0.17091 0.54408 0.0
C99 C 0.12198 0.22843 0.54466 0.0
H100 H 0.03671 0.1582 0.52504 0.0
H101 H 0.12918 0.25887 0.52528 0.0
H102 H 0.89935 0.82686 0.4855 0.0
H103 H 0.97138 0.97581 0.64826 0.0
H104 H 0.81151 0.75194 0.44771 0.0
H105 H 0.20439 0.2912 0.5713 0.0
H106 H 0.23321 0.26834 0.62787 0.0
H107 H 0.10329 0.0753 0.42142 0.0
H108 H 0.13273 0.10025 0.70546 0.0
H109 H 0.03498 0.00287 0.70263 0.0
H110 H 0.82858 0.85431 0.33957 0.0
H111 H 0.20707 0.19904 0.67684 0.0
H112 H 0.01008 0.04681 0.32155 0.0
H113 H 0.10063 0.10746 0.35809 0.0
N114 N 0.01426 0.00015 0.42196 0.0
C115 C 0.96555 0.96411 0.40104 0.0
C116 C 0.06333 0.04932 0.40599 0.0
C117 C 0.01084 0.03309 0.34956 0.0
C118 C 0.06207 0.06736 0.37004 0.0
C119 C 0.96215 0.97981 0.36445 0.0
H120 H 0.9077 0.95217 0.31522 0.0
N121 N 0.92858 0.89438 0.44828 0.0
C122 C 0.9213 0.90911 0.41453 0.0
C123 C 0.83149 0.81129 0.40482 0.0
C124 C 0.87212 0.86819 0.39209 0.0
C125 C 0.89151 0.83831 0.4594 0.0
C126 C 0.84187 0.79606 0.4382 0.0
O127 O 0.03471 0.01675 0.57422 0.0
O128 O 0.08291 0.0463 0.51809 0.0
O129 O 0.04627 0.93635 0.50326 0.0
O130 O 0.04828 0.95298 0.44334 0.0
O131 O -0.0075 0.06387 0.50557 0.0
O132 O 0.05851 0.06319 0.48432 0.0
O133 O 0.92032 0.92632 0.49872 0.0
O134 O 0.92599 -0.00109 0.51207 0.0
O135 O 0.9584 0.07672 0.59434 0.0
O136 O 0.89878 0.98474 0.59783 0.0
O137 O 0.97021 0.91509 0.53823 0.0
O138 O 0.93099 0.93964 0.57688 0.0
C139 C 0.08203 0.04318 0.55542 0.0
C140 C 0.03359 0.0818 0.48195 0.0
C141 C 0.12434 0.9668 0.46713 0.0
C142 C 0.19376 0.96362 0.44751 0.0
C143 C 0.22511 0.04745 0.48031 0.0
C144 C 0.16872 0.0218 0.48228 0.0
C145 C 0.23765 0.01854 0.46319 0.0
C146 C 0.13703 0.93809 0.44947 0.0
C147 C 0.06469 0.93884 0.46953 0.0
C148 C 0.86647 0.88486 0.35698 0.0
C149 C 0.91149 0.94062 0.34314 0.0
H150 H 0.79307 0.77852 0.38843 0.0
C151 C 0.90013 0.94957 0.49593 0.0
C152 C 0.93918 0.90631 0.56771 0.0
C153 C 0.86071 0.02512 0.59448 0.0
C154 C 0.80975 0.0538 0.60553 0.0
C155 C 0.78246 -0.00994 0.55277 0.0
C156 C 0.82538 -0.00756 0.56286 0.0
C157 C 0.77467 0.02055 0.57385 0.0
C158 C 0.85258 0.0555 0.61584 0.0
C159 C 0.90748 0.0296 0.60453 0.0
H160 H 0.25918 0.08979 0.49218 0.0
H161 H 0.15979 0.04478 0.49567 0.0
H162 H 0.2817 0.03923 0.462 0.0
H163 H 0.10262 0.89541 0.43803 0.0
H164 H 0.75531 0.96469 0.52841 0.0
H165 H 0.83103 0.96892 0.54587 0.0
H166 H 0.74095 0.01788 0.56549 0.0
H167 H 0.88049 0.08152 0.63984 0.0
Zn168 Zn 0.36134 0.65919 0.19978 0.0
Zn169 Zn 0.32318 0.63224 0.34682 0.0
Zn170 Zn 0.34229 0.64579 0.27347 0.0
C171 C 0.44001 0.69943 0.33663 0.0
C172 C 0.25944 0.52375 0.31937 0.0
O173 O 0.30411 0.67631 0.24952 0.0
O174 O 0.31691 0.67761 0.18722 0.0
C175 C 0.46758 0.73271 0.23224 0.0
O176 O 0.4263 0.69732 0.30162 0.0
O177 O 0.40206 0.67191 0.36231 0.0
O178 O 0.26412 0.54811 0.34944 0.0
O179 O 0.28685 0.55339 0.28883 0.0
O180 O 0.44512 0.723 0.19997 0.0
O181 O 0.4361 0.70623 0.26226 0.0
O182 O 0.29674 0.56033 0.24918 0.0
O183 O 0.32766 0.58075 0.18933 0.0
C184 C 0.29874 0.5446 0.21597 0.0
O185 O 0.30541 0.68097 0.28955 0.0
O186 O 0.29851 0.67236 0.35257 0.0
C187 C 0.29723 0.68431 0.21488 0.0
C188 C 0.29309 0.68892 0.32208 0.0
Zn189 Zn 0.63635 0.33675 0.84868 0.0
Zn190 Zn 0.64007 0.35179 0.70145 0.0
Zn191 Zn 0.63573 0.34607 0.77529 0.0
C192 C 0.687 0.45778 0.72781 0.0
C193 C 0.52511 0.26852 0.72082 0.0
O194 O 0.67607 0.31494 0.79197 0.0
O195 O 0.65595 0.29163 0.85323 0.0
C196 C 0.70789 0.45298 0.83309 0.0
O197 O 0.68261 0.43558 0.75992 0.0
O198 O 0.668 0.42864 0.69744 0.0
O199 O 0.55736 0.28473 0.69248 0.0
O200 O 0.54659 0.28895 0.7544 0.0
O201 O 0.69729 0.42026 0.85953 0.0
O202 O 0.68612 0.4326 0.79957 0.0
O203 O 0.54557 0.2888 0.7946 0.0
O204 O 0.55671 0.29877 0.85741 0.0
C205 C 0.52481 0.2793 0.82843 0.0
O206 O 0.67689 0.31825 0.75173 0.0
O207 O 0.69317 0.34311 0.6907 0.0
C208 C 0.67787 0.29405 0.82256 0.0
C209 C 0.69789 0.32259 0.71897 0.0
C210 C 0.05027 0.73777 0.11207 0.0
C211 C 0.04585 0.77348 0.1293 0.0
C212 C 0.07827 0.7253 0.13075 0.0
C213 C 0.10257 0.74831 0.16714 0.0
C214 C 0.09629 0.78217 0.18505 0.0
C215 C 0.06867 0.79515 0.16616 0.0
C216 C 0.13552 0.73823 0.18627 0.0
C217 C 0.16965 0.73701 0.16599 0.0
C218 C 0.20455 0.72776 0.18245 0.0
C219 C 0.25188 0.74737 0.16138 0.0
C220 C 0.28295 0.73494 0.17308 0.0
C221 C 0.26729 0.70215 0.2061 0.0
H222 H 0.15262 0.67957 0.23283 0.0
C223 C 0.22066 0.68336 0.22789 0.0
C224 C 0.18959 0.69633 0.21628 0.0
H225 H 0.20697 0.65697 0.25299 0.0
H226 H 0.03321 0.72049 0.0837 0.0
H227 H 0.08101 0.69774 0.11657 0.0
H228 H 0.11413 0.79989 0.21323 0.0
H229 H 0.06515 0.82212 0.18036 0.0
H230 H 0.13456 0.73566 0.21729 0.0
H231 H 0.17418 0.7455 0.13542 0.0
H232 H 0.26432 0.77156 0.13522 0.0
H233 H 0.31874 0.7501 0.1557 0.0
C234 C 0.18561 0.11381 0.57201 0.0
C235 C 0.13044 0.05911 0.5762 0.0
C236 C 0.23006 0.13069 0.59529 0.0
C237 C 0.21999 0.09245 0.62235 0.0
C238 C 0.16517 0.03717 0.6255 0.0
C239 C 0.12048 0.02098 0.60312 0.0
C240 C 0.26678 0.10845 0.64611 0.0
C241 C 0.30544 0.15977 0.66337 0.0
C242 C 0.3564 0.17903 0.68353 0.0
C243 C 0.38197 0.2201 0.71279 0.0
C244 C 0.43505 0.24573 0.72787 0.0
C245 C 0.46375 0.23139 0.7133 0.0
H246 H 0.36586 0.13145 0.64787 0.0
C247 C 0.43691 0.18829 0.68549 0.0
C248 C 0.38361 0.16206 0.67089 0.0
H249 H 0.45861 0.17706 0.67351 0.0
H250 H 0.19383 0.144 0.55171 0.0
H251 H 0.27234 0.17328 0.59187 0.0
H252 H 0.15665 0.00692 0.64589 0.0
H253 H 0.07801 0.97862 0.60688 0.0
H254 H 0.26834 0.07652 0.65024 0.0
H255 H 0.30004 0.18913 0.66221 0.0
H256 H 0.36198 0.23408 0.72287 0.0
H257 H 0.45541 0.27961 0.74883 0.0
C258 C 0.11277 0.17658 0.08847 0.0
C259 C 0.05323 0.13087 0.08673 0.0
C260 C 0.13776 0.22429 0.11127 0.0
C261 C 0.10354 0.22732 0.13293 0.0
C262 C 0.04383 0.182 0.13038 0.0
C263 C 0.01886 0.13416 0.10753 0.0
C264 C 0.12871 0.27885 0.15596 0.0
C265 C 0.18271 0.3159 0.16931 0.0
C266 C 0.21178 0.37288 0.1853 0.0
C267 C 0.27013 0.41879 0.17754 0.0
C268 C 0.29842 0.47433 0.18848 0.0
C269 C 0.26936 0.48493 0.20845 0.0
H270 H 0.1382 0.34828 0.21374 0.0
C271 C 0.21171 0.43883 0.21817 0.0
C272 C 0.18291 0.38306 0.20649 0.0
H273 H 0.18857 0.44619 0.2336 0.0
H274 H 0.14011 0.17579 0.07176 0.0
H275 H 0.18381 0.25917 0.11088 0.0
H276 H 0.0164 0.18355 0.14619 0.0
H277 H 0.97272 0.09947 0.1065 0.0
H278 H 0.10253 0.28764 0.1605 0.0
H279 H 0.20884 0.30705 0.16505 0.0
H280 H 0.29343 0.41205 0.16152 0.0
H281 H 0.34299 0.50929 0.18082 0.0
C282 C 0.79409 0.11886 0.60721 0.0
C283 C 0.80222 0.08751 0.62704 0.0
C284 C 0.78531 0.14935 0.62703 0.0
C285 C 0.78464 0.14947 0.6673 0.0
C286 C 0.79259 0.11801 0.68718 0.0
C287 C 0.80186 0.08776 0.66727 0.0
C288 C 0.77218 0.17915 0.68884 0.0
C289 C 0.78648 0.22648 0.67522 0.0
C290 C 0.76813 0.25353 0.69205 0.0
C291 C 0.79245 0.3066 0.67721 0.0
C292 C 0.77123 0.33021 0.68748 0.0
C293 C 0.72538 0.30154 0.71312 0.0
H294 H 0.70271 0.18441 0.73074 0.0
C295 C 0.70232 0.24963 0.72934 0.0
C296 C 0.72349 0.22576 0.71899 0.0
H297 H 0.66601 0.22603 0.74848 0.0
H298 H 0.79443 0.11976 0.57622 0.0
H299 H 0.77755 0.17151 0.61059 0.0
H300 H 0.79155 0.11676 0.71817 0.0
H301 H 0.80742 0.06349 0.68333 0.0
H302 H 0.75098 0.16139 0.71631 0.0
H303 H 0.81225 0.24618 0.64939 0.0
H304 H 0.82671 0.32901 0.6564 0.0
H305 H 0.78965 0.37023 0.67445 0.0
C306 C 0.84271 0.95066 0.11549 0.0
C307 C 0.8523 0.91767 0.10134 0.0
C308 C 0.79865 0.92733 0.14158 0.0
C309 C 0.76308 0.87021 0.15419 0.0
C310 C 0.77283 0.83736 0.13981 0.0
C311 C 0.81686 0.86075 0.11368 0.0
C312 C 0.71263 0.84166 0.17952 0.0
C313 C 0.70213 0.8693 0.1989 0.0
C314 C 0.64525 0.83819 0.21578 0.0
C315 C 0.62147 0.86059 0.21018 0.0
C316 C 0.56401 0.82752 0.2185 0.0
C317 C 0.52998 0.77234 0.23383 0.0
H318 H 0.63003 0.76686 0.2393 0.0
C319 C 0.55497 0.75195 0.24301 0.0
C320 C 0.6123 0.78457 0.23382 0.0
H321 H 0.52919 0.70926 0.25463 0.0
H322 H 0.8693 -0.00534 0.10634 0.0
H323 H 0.7922 0.9541 0.15079 0.0
H324 H 0.74581 0.7931 0.14848 0.0
H325 H 0.82283 0.83407 0.10286 0.0
H326 H 0.6807 0.79509 0.18014 0.0
H327 H 0.73254 0.91565 0.19833 0.0
H328 H 0.64613 0.90195 0.19661 0.0
H329 H 0.54529 0.84376 0.211 0.0
C330 C 0.87841 0.84357 0.62398 0.0
C331 C 0.914 0.85713 0.59328 0.0
C332 C 0.8566 0.79864 0.64897 0.0
C333 C 0.86981 0.76612 0.64376 0.0
C334 C 0.90594 0.78019 0.61346 0.0
C335 C 0.92752 0.82487 0.58838 0.0
C336 C 0.84629 0.71683 0.66879 0.0
C337 C 0.79575 0.6846 0.68699 0.0
C338 C 0.76724 0.62844 0.7042 0.0
C339 C 0.70846 0.58222 0.69815 0.0
C340 C 0.68169 0.52676 0.70804 0.0
C341 C 0.71284 0.51682 0.72533 0.0
H342 H 0.843 0.65417 0.72944 0.0
C343 C 0.77054 0.56338 0.73445 0.0
C344 C 0.79781 0.61899 0.72368 0.0
H345 H 0.79523 0.5564 0.74773 0.0
H346 H 0.86756 0.86784 0.62896 0.0
H347 H 0.83009 0.79011 0.67255 0.0
H348 H 0.917 0.75603 0.60883 0.0
H349 H 0.95523 0.83433 0.56535 0.0
H350 H 0.86821 0.70274 0.66867 0.0
H351 H 0.77059 0.69482 0.68413 0.0
H352 H 0.68394 0.58848 0.68347 0.0
H353 H 0.63708 0.49124 0.70076 0.0
C354 C 0.18344 0.90393 0.39513 0.0
C355 C 0.2069 0.93216 0.4305 0.0
C356 C 0.19467 0.87281 0.37994 0.0
C357 C 0.22909 0.86891 0.40016 0.0
C358 C 0.2525 0.89726 0.43541 0.0
C359 C 0.24199 0.92894 0.45026 0.0
C360 C 0.23804 0.8323 0.38716 0.0
C361 C 0.23736 0.81958 0.3503 0.0
C362 C 0.24652 0.78222 0.34007 0.0
C363 C 0.28004 0.79503 0.3082 0.0
C364 C 0.29387 0.76348 0.30107 0.0
C365 C 0.27316 0.71789 0.32525 0.0
H366 H 0.19597 0.72254 0.38692 0.0
C367 C 0.23686 0.70316 0.35566 0.0
C368 C 0.22353 0.73475 0.36292 0.0
H369 H 0.21974 0.66783 0.37454 0.0
H370 H 0.15629 0.90581 0.37928 0.0
H371 H 0.17494 0.85048 0.35309 0.0
H372 H 0.27869 0.89448 0.45174 0.0
H373 H 0.26009 0.94967 0.47778 0.0
H374 H 0.24784 0.81671 0.40924 0.0
H375 H 0.23358 0.83935 0.32745 0.0
H376 H 0.29772 0.83106 0.28992 0.0
H377 H 0.32245 0.77612 0.27769 0.0
C378 C 0.15079 0.05568 0.95702 0.0
C379 C 0.12471 0.07598 0.96172 0.0
C380 C 0.19732 0.08351 0.93226 0.0
C381 C 0.21893 0.13247 0.91182 0.0
C382 C 0.19267 0.15249 0.9164 0.0
C383 C 0.14578 0.12431 0.94076 0.0
C384 C 0.27234 0.16722 0.889 0.0
C385 C 0.29163 0.14596 0.87255 0.0
C386 C 0.35058 0.18361 0.85701 0.0
C387 C 0.36296 0.16342 0.82821 0.0
C388 C 0.41963 0.19588 0.81684 0.0
C389 C 0.46459 0.2484 0.83473 0.0
H390 H 0.38849 0.25378 0.89665 0.0
C391 C 0.45203 0.26915 0.86267 0.0
C392 C 0.39583 0.23735 0.87363 0.0
H393 H 0.48608 0.30944 0.87703 0.0
H394 H 0.13545 0.01839 0.9726 0.0
H395 H 0.21743 0.06775 0.93028 0.0
H396 H 0.2089 0.19051 0.90139 0.0
H397 H 0.12679 0.14117 0.94367 0.0
H398 H 0.29742 0.21271 0.88643 0.0
H399 H 0.26446 0.09994 0.87158 0.0
H400 H 0.32892 0.12189 0.81524 0.0
H401 H 0.42847 0.17872 0.7956 0.0
C402 C 0.10952 0.1678 0.44156 0.0
C403 C 0.05208 0.12468 0.45277 0.0
C404 C 0.12668 0.2097 0.41512 0.0
C405 C 0.08643 0.20892 0.39928 0.0
C406 C 0.02889 0.16496 0.41019 0.0
C407 C 0.01194 0.12347 0.43668 0.0
C408 C 0.1029 0.25604 0.37489 0.0
C409 C 0.15439 0.29696 0.35815 0.0
C410 C 0.17394 0.35057 0.34188 0.0
C411 C 0.22125 0.38453 0.31703 0.0
C412 C 0.24682 0.43978 0.30682 0.0
C413 C 0.22556 0.46197 0.32149 0.0
H414 H 0.11577 0.34853 0.37465 0.0
C415 C 0.17653 0.42699 0.34454 0.0
C416 C 0.151 0.37205 0.35467 0.0
H417 H 0.15972 0.44341 0.35656 0.0
H418 H 0.14137 0.16998 0.45398 0.0
H419 H 0.17166 0.24347 0.40844 0.0
H420 H -0.00303 0.16339 0.39883 0.0
H421 H 0.96733 0.09056 0.44479 0.0
H422 H 0.07118 0.25792 0.37186 0.0
H423 H 0.18461 0.29287 0.35779 0.0
H424 H 0.24013 0.36937 0.30696 0.0
H425 H 0.28535 0.4664 0.28964 0.0
C426 C 0.8996 0.22364 0.93313 0.0
C427 C 0.90881 0.19029 0.9186 0.0
C428 C 0.86773 0.23002 0.91251 0.0
C429 C 0.84308 0.20215 0.87728 0.0
C430 C 0.8513 0.16831 0.86278 0.0
C431 C 0.8847 0.16329 0.88282 0.0
C432 C 0.80567 0.2053 0.85691 0.0
C433 C 0.82086 0.25536 0.85206 0.0
C434 C 0.78074 0.25915 0.83828 0.0
C435 C 0.80193 0.30762 0.81758 0.0
C436 C 0.7669 0.31687 0.80989 0.0
C437 C 0.71055 0.27841 0.82361 0.0
H438 H 0.70603 0.18183 0.86677 0.0
C439 C 0.68869 0.22894 0.84314 0.0
C440 C 0.72327 0.21899 0.85005 0.0
H441 H 0.64549 0.19907 0.85429 0.0
H442 H 0.9158 0.24392 0.96089 0.0
H443 H 0.86075 0.25527 0.92474 0.0
H444 H 0.83242 0.14629 0.8357 0.0
H445 H 0.89165 0.13835 0.87 0.0
H446 H 0.76482 0.16577 0.84623 0.0
H447 H 0.86388 0.29509 0.85969 0.0
H448 H 0.8462 0.33935 0.80853 0.0
H449 H 0.78481 0.35572 0.79521 0.0
C450 C 0.83412 0.94497 0.45519 0.0
C451 C 0.84444 0.91704 0.47737 0.0
C452 C 0.78143 0.91339 0.43684 0.0
C453 C 0.73809 0.85343 0.44096 0.0
C454 C 0.74843 0.82598 0.46372 0.0
C455 C 0.80118 0.85738 0.48152 0.0
C456 C 0.68033 0.81824 0.42424 0.0
C457 C 0.66961 0.83071 0.39117 0.0
C458 C 0.61091 0.79471 0.37511 0.0
C459 C 0.60097 0.81805 0.34717 0.0
C460 C 0.54561 0.78666 0.33342 0.0
C461 C 0.49936 0.73143 0.34745 0.0
H462 H 0.56987 0.71662 0.40723 0.0
C463 C 0.50947 0.7072 0.37408 0.0
C464 C 0.56454 0.73797 0.38736 0.0
H465 H 0.47452 0.66418 0.3848 0.0
H466 H 0.86693 -0.00892 0.45177 0.0
H467 H 0.77435 0.93608 0.42035 0.0
H468 H 0.71555 0.77994 0.46771 0.0
H469 H 0.80786 0.83502 0.499 0.0
H470 H 0.64574 0.78006 0.44018 0.0
H471 H 0.70484 0.86925 0.3756 0.0
H472 H 0.63582 0.86123 0.33671 0.0
H473 H 0.53869 0.80634 0.31302 0.0
C474 C 0.86594 0.79629 0.98382 0.0
C475 C 0.9208 0.85097 0.9786 0.0
C476 C 0.84675 0.75083 0.96042 0.0
C477 C 0.88282 0.75942 0.93217 0.0
C478 C 0.93819 0.81384 0.92784 0.0
C479 C 0.95669 0.85949 0.9504 0.0
C480 C 0.86486 0.7115 0.90852 0.0
C481 C 0.81216 0.67147 0.89347 0.0
C482 C 0.79221 0.62002 0.87338 0.0
C483 C 0.74984 0.59342 0.84503 0.0
C484 C 0.72516 0.54074 0.82942 0.0
C485 C 0.74171 0.5134 0.8426 0.0
H486 H 0.84243 0.61246 0.90727 0.0
C487 C 0.78556 0.54104 0.86983 0.0
C488 C 0.8108 0.59391 0.88493 0.0
H489 H 0.79873 0.52056 0.88066 0.0
H490 H 0.83747 0.7892 1.00514 0.0
H491 H 0.80415 0.70891 0.96479 0.0
H492 H 0.96682 0.82124 0.90651 0.0
H493 H -0.00086 0.90158 0.94583 0.0
H494 H 0.89658 0.71019 0.90259 0.0
H495 H 0.78253 0.67626 0.89622 0.0
H496 H 0.73457 0.61253 0.83583 0.0
H497 H 0.69071 0.51977 0.80894 0.0
loop_
_geom_bond_atom_site_label_1
_geom_bond_atom_site_label_2
_geom_bond_distance
_geom_bond_site_symmetry_2
_ccdc_geom_bond_type
C0 C2 1.422 . S
C0 C4 1.415 . S
C0 N6 1.377 1_565 S
C1 C2 1.421 . S
C1 C3 1.417 . S
C1 C13 1.422 . S
C2 C0 1.422 . S
C2 C1 1.421 . S
C2 N12 1.359 . S
C3 C1 1.417 . S
C3 C5 1.329 . S
C3 H22 0.930 . S
C4 C0 1.415 . S
C4 C5 1.437 . S
C4 C8 1.413 1_665 S
C5 C3 1.329 . S
C5 C4 1.437 . S
C5 H27 0.929 . S
N6 C0 1.377 1_545 S
N6 C7 1.325 1_655 S
N6 Gd11 2.626 . S
C7 N6 1.325 1_455 S
C7 C9 1.378 . S
C7 H19 0.929 . S
C8 C4 1.413 1_445 S
C8 C9 1.348 . S
C8 H24 0.931 1_545 S
C9 C7 1.378 . S
C9 C8 1.348 . S
C9 H25 0.930 . S
Gd10 N30 2.622 . S
Gd10 N37 2.570 1_565 S
Gd10 O44 2.333 1_454 S
Gd10 O45 2.468 . S
Gd10 O46 2.427 . S
Gd10 O48 2.388 1_455 S
Gd10 O49 2.386 1_565 S
Gd10 O53 2.307 1_564 S
Gd10 C63 2.805 . S
Gd11 N6 2.626 . S
Gd11 N12 2.570 1_545 S
Gd11 O43 2.386 1_545 S
Gd11 O47 2.307 1_546 S
Gd11 O50 2.353 1_656 S
Gd11 O51 2.468 . S
Gd11 O52 2.427 1_655 S
Gd11 O54 2.388 1_655 S
Gd11 C75 2.805 . S
N12 C2 1.359 . S
N12 Gd11 2.570 1_565 S
N12 C14 1.343 . S
C13 C1 1.422 . S
C13 C15 1.321 . S
C13 H21 0.931 . S
C14 N12 1.343 . S
C14 C15 1.390 . S
C14 H16 0.931 . S
C15 C13 1.321 . S
C15 C14 1.390 . S
C15 H17 0.930 . S
H16 C14 0.931 . S
H17 C15 0.930 . S
H18 C41 0.931 . S
H19 C7 0.929 . S
H20 C42 0.930 . S
H21 C13 0.931 . S
H22 C3 0.930 . S
H23 C32 0.929 . S
H24 C8 0.931 1_565 S
H25 C9 0.930 . S
H26 C64 0.930 . S
H27 C5 0.929 . S
H28 C33 0.931 . S
H29 C34 0.930 . S
N30 Gd10 2.622 . S
N30 C31 1.369 1_565 S
N30 C32 1.338 1_455 S
C31 N30 1.369 1_545 S
C31 C35 1.415 . S
C31 C38 1.422 . S
C32 H23 0.929 . S
C32 N30 1.338 1_655 S
C32 C34 1.378 . S
C33 H28 0.931 . S
C33 C34 1.348 1_545 S
C33 C35 1.413 1_655 S
C34 H29 0.930 . S
C34 C32 1.378 . S
C34 C33 1.348 1_565 S
C35 C31 1.415 . S
C35 C33 1.413 1_455 S
C35 C65 1.437 . S
H36 C65 0.929 . S
N37 Gd10 2.570 1_545 S
N37 C38 1.359 . S
N37 C41 1.343 . S
C38 C31 1.422 . S
C38 N37 1.359 . S
C38 C40 1.421 . S
C39 C40 1.422 . S
C39 C42 1.321 . S
C39 H66 0.931 . S
C40 C38 1.421 . S
C40 C39 1.422 . S
C40 C64 1.417 . S
C41 H18 0.931 . S
C41 N37 1.343 . S
C41 C42 1.390 . S
C42 H20 0.930 . S
C42 C39 1.321 . S
C42 C41 1.390 . S
O43 Gd11 2.386 1_565 S
O43 C55 1.265 . S
O44 Gd10 2.333 1_656 S
O44 C55 1.267 . S
O45 Gd10 2.468 . S
O45 C63 1.263 . S
O46 Gd10 2.427 . S
O46 C63 1.252 . S
O47 Gd11 2.307 1_564 S
O47 C56 1.261 . S
O48 Gd10 2.388 1_655 S
O48 C56 1.252 . S
O49 Gd10 2.386 1_545 S
O49 C67 1.265 . S
O50 Gd11 2.353 1_454 S
O50 C67 1.242 . S
O51 Gd11 2.468 . S
O51 C75 1.263 . S
O52 Gd11 2.427 1_455 S
O52 C75 1.252 1_455 S
O53 Gd10 2.307 1_546 S
O53 C68 1.261 . S
O54 Gd11 2.388 1_455 S
O54 C68 1.252 . S
C55 O43 1.265 . S
C55 O44 1.267 . S
C56 O47 1.261 . S
C56 O48 1.252 . S
C57 C60 1.394 . S
C57 C62 1.370 . S
C57 C63 1.500 . S
C58 C61 1.383 . S
C58 C62 1.395 . S
C59 C60 1.396 . S
C59 C61 1.365 . S
C59 H76 0.929 . S
C60 C57 1.394 . S
C60 C59 1.396 . S
C60 H77 0.930 1_455 S
C61 C58 1.383 . S
C61 C59 1.365 . S
C61 H78 0.931 . S
C62 C57 1.370 . S
C62 C58 1.395 . S
C62 H79 0.930 . S
C63 Gd10 2.805 . S
C63 O45 1.263 . S
C63 O46 1.252 . S
C63 C57 1.500 . S
C64 H26 0.930 . S
C64 C40 1.417 . S
C64 C65 1.329 . S
C65 C35 1.437 . S
C65 H36 0.929 . S
C65 C64 1.329 . S
H66 C39 0.931 . S
C67 O49 1.265 . S
C67 O50 1.242 . S
C68 O53 1.261 . S
C68 O54 1.252 . S
C69 C72 1.394 . S
C69 C74 1.370 . S
C69 C75 1.500 . S
C70 C73 1.383 . S
C70 C74 1.395 . S
C71 C72 1.396 . S
C71 C73 1.365 . S
C71 H80 0.929 . S
C72 C69 1.394 . S
C72 C71 1.396 . S
C72 H81 0.930 1_655 S
C73 C70 1.383 . S
C73 C71 1.365 . S
C73 H82 0.931 . S
C74 C69 1.370 . S
C74 C70 1.395 . S
C74 H83 0.930 . S
C75 Gd11 2.805 . S
C75 O51 1.263 . S
C75 O52 1.252 1_655 S
C75 C69 1.500 . S
H76 C59 0.929 . S
H77 C60 0.930 1_655 S
H78 C61 0.931 . S
H79 C62 0.930 . S
H80 C71 0.929 . S
H81 C72 0.930 1_455 S
H82 C73 0.931 . S
H83 C74 0.930 . S
C84 C86 1.422 . S
C84 C88 1.415 . S
C84 N90 1.363 1_455 S
C85 C86 1.421 . S
C85 C87 1.417 . S
C85 C97 1.422 . S
C86 C84 1.422 . S
C86 C85 1.421 . S
C86 N96 1.359 . S
C87 C85 1.417 . S
C87 C89 1.329 . S
C87 H106 0.930 . S
C88 C84 1.415 . S
C88 C89 1.437 . S
C88 C92 1.413 . S
C89 C87 1.329 . S
C89 C88 1.437 . S
C89 H111 0.929 . S
N90 C84 1.363 1_655 S
N90 C91 1.337 1_545 S
N90 Gd95 2.626 . S
C91 N90 1.337 1_565 S
C91 C93 1.378 . S
C91 H103 0.929 . S
C92 C88 1.413 . S
C92 C93 1.348 1_445 S
C92 H108 0.925 1_545 S
C93 C91 1.378 . S
C93 C92 1.348 1_665 S
C93 H109 0.930 . S
Gd94 N114 2.622 1_565 S
Gd94 N121 2.570 1_455 S
Gd94 O128 2.353 1_565 S
Gd94 O129 2.468 . S
Gd94 O130 2.427 1_565 S
Gd94 O132 2.388 1_565 S
Gd94 O133 2.386 1_455 S
Gd94 O137 2.307 1_455 S
Gd94 C147 2.805 . S
Gd95 N90 2.626 . S
Gd95 N96 2.570 1_655 S
Gd95 O127 2.386 1_655 S
Gd95 O131 2.307 1_655 S
Gd95 O134 2.353 1_545 S
Gd95 O135 2.468 . S
Gd95 O136 2.427 . S
Gd95 O138 2.388 1_545 S
Gd95 C159 2.805 . S
N96 C86 1.359 . S
N96 Gd95 2.570 1_455 S
N96 C98 1.343 . S
C97 C85 1.422 . S
C97 C99 1.321 . S
C97 H105 0.931 . S
C98 N96 1.343 . S
C98 C99 1.390 . S
C98 H100 0.931 . S
C99 C97 1.321 . S
C99 C98 1.390 . S
C99 H101 0.930 . S
H100 C98 0.931 . S
H101 C99 0.930 . S
H102 C125 0.931 . S
H103 C91 0.929 . S
H104 C126 0.930 . S
H105 C97 0.931 . S
H106 C87 0.930 . S
H107 C116 0.929 . S
H108 C92 0.925 1_565 S
H109 C93 0.930 . S
H110 C148 0.930 . S
H111 C89 0.929 . S
H112 C117 0.931 . S
H113 C118 0.930 . S
N114 Gd94 2.622 1_545 S
N114 C115 1.369 1_445 S
N114 C116 1.338 . S
C115 N114 1.369 1_665 S
C115 C119 1.415 . S
C115 C122 1.422 . S
C116 H107 0.929 . S
C116 N114 1.338 . S
C116 C118 1.378 . S
C117 H112 0.931 . S
C117 C118 1.348 . S
C117 C119 1.413 1_445 S
C118 H113 0.930 . S
C118 C116 1.378 . S
C118 C117 1.348 . S
C119 C115 1.415 . S
C119 C117 1.413 1_665 S
C119 C149 1.437 . S
H120 C149 0.929 . S
N121 Gd94 2.570 1_655 S
N121 C122 1.359 . S
N121 C125 1.343 . S
C122 C115 1.422 . S
C122 N121 1.359 . S
C122 C124 1.421 . S
C123 C124 1.422 . S
C123 C126 1.321 . S
C123 H150 0.931 . S
C124 C122 1.421 . S
C124 C123 1.422 . S
C124 C148 1.417 . S
C125 H102 0.931 . S
C125 N121 1.343 . S
C125 C126 1.390 . S
C126 H104 0.930 . S
C126 C123 1.321 . S
C126 C125 1.390 . S
O127 Gd95 2.386 1_455 S
O127 C139 1.265 . S
O128 Gd94 2.353 1_545 S
O128 C139 1.242 . S
O129 Gd94 2.468 . S
O129 C147 1.263 . S
O130 Gd94 2.427 1_545 S
O130 C147 1.252 1_545 S
O131 Gd95 2.307 1_455 S
O131 C140 1.261 . S
O132 Gd94 2.388 1_545 S
O132 C140 1.252 . S
O133 Gd94 2.386 1_655 S
O133 C151 1.265 . S
O134 Gd95 2.353 1_565 S
O134 C151 1.242 . S
O135 Gd95 2.468 . S
O135 C159 1.263 . S
O136 Gd95 2.427 . S
O136 C159 1.252 . S
O137 Gd94 2.307 1_655 S
O137 C152 1.261 . S
O138 Gd95 2.388 1_565 S
O138 C152 1.252 . S
C139 O127 1.265 . S
C139 O128 1.242 . S
C140 O131 1.261 . S
C140 O132 1.252 . S
C141 C144 1.394 . S
C141 C146 1.370 . S
C141 C147 1.500 . S
C142 C145 1.383 . S
C142 C146 1.395 . S
C143 C144 1.396 . S
C143 C145 1.365 . S
C143 H160 0.929 1_565 S
C144 C141 1.394 . S
C144 C143 1.396 . S
C144 H161 0.930 1_565 S
C145 C142 1.383 . S
C145 C143 1.365 . S
C145 H162 0.931 . S
C146 C141 1.370 . S
C146 C142 1.395 . S
C146 H163 0.930 . S
C147 Gd94 2.805 . S
C147 O129 1.263 . S
C147 O130 1.252 1_565 S
C147 C141 1.500 . S
C148 H110 0.930 . S
C148 C124 1.417 . S
C148 C149 1.329 . S
C149 C119 1.437 . S
C149 H120 0.929 . S
C149 C148 1.329 . S
H150 C123 0.931 . S
C151 O133 1.265 . S
C151 O134 1.242 . S
C152 O137 1.261 . S
C152 O138 1.252 . S
C153 C156 1.394 . S
C153 C158 1.370 . S
C153 C159 1.500 . S
C154 C157 1.383 . S
C154 C158 1.395 . S
C155 C156 1.396 . S
C155 C157 1.365 . S
C155 H164 0.929 . S
C156 C153 1.394 . S
C156 C155 1.396 . S
C156 H165 0.930 . S
C157 C154 1.383 . S
C157 C155 1.365 . S
C157 H166 0.931 . S
C158 C153 1.370 . S
C158 C154 1.395 . S
C158 H167 0.930 . S
C159 Gd95 2.805 . S
C159 O135 1.263 . S
C159 O136 1.252 . S
C159 C153 1.500 . S
H160 C143 0.929 1_545 S
H161 C144 0.930 1_545 S
H162 C145 0.931 . S
H163 C146 0.930 . S
H164 C155 0.929 . S
H165 C156 0.930 . S
H166 C157 0.931 . S
H167 C158 0.930 . S
Zn168 O174 1.920 . S
Zn168 O180 1.898 . S
Zn168 O183 1.905 . S
Zn169 O177 1.905 . S
Zn169 O178 1.898 . S
Zn169 O186 1.920 . S
Zn170 O173 2.080 . S
Zn170 O176 2.114 . S
Zn170 O179 2.120 . S
Zn170 O181 2.120 . S
Zn170 O182 2.114 . S
Zn170 O185 2.080 . S
C171 O176 1.166 . S
C171 O177 1.182 . S
C172 O178 1.167 . S
C172 O179 1.299 . S
O173 Zn170 2.080 . S
O173 C187 1.305 . S
O174 Zn168 1.920 . S
O174 C187 1.234 . S
C175 O180 1.167 . S
C175 O181 1.299 . S
O176 Zn170 2.114 . S
O176 C171 1.166 . S
O177 Zn169 1.905 . S
O177 C171 1.182 . S
O178 Zn169 1.898 . S
O178 C172 1.167 . S
O179 Zn170 2.120 . S
O179 C172 1.299 . S
O180 Zn168 1.898 . S
O180 C175 1.167 . S
O181 Zn170 2.120 . S
O181 C175 1.299 . S
O182 Zn170 2.114 . S
O182 C184 1.166 . S
O183 Zn168 1.905 . S
O183 C184 1.182 . S
C184 O182 1.166 . S
C184 O183 1.182 . S
O185 Zn170 2.080 . S
O185 C188 1.305 . S
O186 Zn169 1.920 . S
O186 C188 1.234 . S
C187 O173 1.305 . S
C187 O174 1.234 . S
C188 O185 1.305 . S
C188 O186 1.234 . S
Zn189 O195 1.920 . S
Zn189 O201 1.898 . S
Zn189 O204 1.905 . S
Zn190 O198 1.905 . S
Zn190 O199 1.898 . S
Zn190 O207 1.920 . S
Zn191 O194 2.080 . S
Zn191 O197 2.114 . S
Zn191 O200 2.120 . S
Zn191 O202 2.120 . S
Zn191 O203 2.114 . S
Zn191 O206 2.080 . S
C192 O197 1.166 . S
C192 O198 1.182 . S
C193 O199 1.167 . S
C193 O200 1.299 . S
O194 Zn191 2.080 . S
O194 C208 1.305 . S
O195 Zn189 1.920 . S
O195 C208 1.234 . S
C196 O201 1.167 . S
C196 O202 1.299 . S
O197 Zn191 2.114 . S
O197 C192 1.166 . S
O198 Zn190 1.905 . S
O198 C192 1.182 . S
O199 Zn190 1.898 . S
O199 C193 1.167 . S
O200 Zn191 2.120 . S
O200 C193 1.299 . S
O201 Zn189 1.898 . S
O201 C196 1.167 . S
O202 Zn191 2.120 . S
O202 C196 1.299 . S
O203 Zn191 2.114 . S
O203 C205 1.166 . S
O204 Zn189 1.905 . S
O204 C205 1.182 . S
C205 O203 1.166 . S
C205 O204 1.182 . S
O206 Zn191 2.080 . S
O206 C209 1.305 . S
O207 Zn190 1.920 . S
O207 C209 1.234 . S
C208 O194 1.305 . S
C208 O195 1.234 . S
C209 O206 1.305 . S
C209 O207 1.234 . S
C210 C211 1.386 . S
C210 C212 1.383 . S
C210 H226 0.951 . S
C211 C210 1.386 . S
C211 C215 1.383 . S
C212 C210 1.383 . S
C212 C213 1.402 . S
C212 H227 0.951 . S
C213 C212 1.402 . S
C213 C214 1.375 . S
C213 C216 1.481 . S
C214 C213 1.375 . S
C214 C215 1.367 . S
C214 H228 0.951 . S
C215 C211 1.383 . S
C215 C214 1.367 . S
C215 H229 0.950 . S
C216 C213 1.481 . S
C216 C217 1.297 . S
C216 H230 0.950 . S
C217 C216 1.297 . S
C217 C218 1.479 . S
C217 H231 0.950 . S
C218 C217 1.479 . S
C218 C219 1.375 . S
C218 C224 1.404 . S
C219 C218 1.375 . S
C219 C220 1.369 . S
C219 H232 0.950 . S
C220 C219 1.369 . S
C220 C221 1.392 . S
C220 H233 0.951 . S
C221 C220 1.392 . S
C221 C223 1.384 . S
H222 C224 0.949 . S
C223 C221 1.384 . S
C223 C224 1.385 . S
C223 H225 0.950 . S
C224 C218 1.404 . S
C224 H222 0.949 . S
C224 C223 1.385 . S
H225 C223 0.950 . S
H226 C210 0.951 . S
H227 C212 0.951 . S
H228 C214 0.951 . S
H229 C215 0.950 . S
H230 C216 0.950 . S
H231 C217 0.950 . S
H232 C219 0.950 . S
H233 C220 0.951 . S
C234 C235 1.386 . S
C234 C236 1.383 . S
C234 H250 0.951 . S
C235 C234 1.386 . S
C235 C239 1.383 . S
C236 C234 1.383 . S
C236 C237 1.402 . S
C236 H251 0.951 . S
C237 C236 1.402 . S
C237 C238 1.375 . S
C237 C240 1.481 . S
C238 C237 1.375 . S
C238 C239 1.367 . S
C238 H252 0.951 . S
C239 C235 1.383 . S
C239 C238 1.367 . S
C239 H253 0.950 . S
C240 C237 1.481 . S
C240 C241 1.297 . S
C240 H254 0.950 . S
C241 C240 1.297 . S
C241 C242 1.479 . S
C241 H255 0.950 . S
C242 C241 1.479 . S
C242 C243 1.375 . S
C242 C248 1.404 . S
C243 C242 1.375 . S
C243 C244 1.369 . S
C243 H256 0.950 . S
C244 C243 1.369 . S
C244 C245 1.392 . S
C244 H257 0.951 . S
C245 C244 1.392 . S
C245 C247 1.384 . S
H246 C248 0.949 . S
C247 C245 1.384 . S
C247 C248 1.385 . S
C247 H249 0.950 . S
C248 C242 1.404 . S
C248 H246 0.949 . S
C248 C247 1.385 . S
H249 C247 0.950 . S
H250 C234 0.951 . S
H251 C236 0.951 . S
H252 C238 0.951 . S
H253 C239 0.950 . S
H254 C240 0.950 . S
H255 C241 0.950 . S
H256 C243 0.950 . S
H257 C244 0.951 . S
C258 C259 1.386 . S
C258 C260 1.383 . S
C258 H274 0.951 . S
C259 C258 1.386 . S
C259 C263 1.383 . S
C260 C258 1.383 . S
C260 C261 1.402 . S
C260 H275 0.951 . S
C261 C260 1.402 . S
C261 C262 1.375 . S
C261 C264 1.481 . S
C262 C261 1.375 . S
C262 C263 1.367 . S
C262 H276 0.951 . S
C263 C259 1.383 . S
C263 C262 1.367 . S
C263 H277 0.950 . S
C264 C261 1.481 . S
C264 C265 1.297 . S
C264 H278 0.950 . S
C265 C264 1.297 . S
C265 C266 1.479 . S
C265 H279 0.950 . S
C266 C265 1.479 . S
C266 C267 1.375 . S
C266 C272 1.404 . S
C267 C266 1.375 . S
C267 C268 1.369 . S
C267 H280 0.950 . S
C268 C267 1.369 . S
C268 C269 1.392 . S
C268 H281 0.951 . S
C269 C268 1.392 . S
C269 C271 1.384 . S
H270 C272 0.949 . S
C271 C269 1.384 . S
C271 C272 1.385 . S
C271 H273 0.950 . S
C272 C266 1.404 . S
C272 H270 0.949 . S
C272 C271 1.385 . S
H273 C271 0.950 . S
H274 C258 0.951 . S
H275 C260 0.951 . S
H276 C262 0.951 . S
H277 C263 0.950 . S
H278 C264 0.950 . S
H279 C265 0.950 . S
H280 C267 0.950 . S
H281 C268 0.951 . S
C282 C283 1.386 . S
C282 C284 1.383 . S
C282 H298 0.951 . S
C283 C282 1.386 . S
C283 C287 1.383 . S
C284 C282 1.383 . S
C284 C285 1.402 . S
C284 H299 0.951 . S
C285 C284 1.402 . S
C285 C286 1.375 . S
C285 C288 1.481 . S
C286 C285 1.375 . S
C286 C287 1.367 . S
C286 H300 0.951 . S
C287 C283 1.383 . S
C287 C286 1.367 . S
C287 H301 0.950 . S
C288 C285 1.481 . S
C288 C289 1.297 . S
C288 H302 0.950 . S
C289 C288 1.297 . S
C289 C290 1.479 . S
C289 H303 0.950 . S
C290 C289 1.479 . S
C290 C291 1.375 . S
C290 C296 1.404 . S
C291 C290 1.375 . S
C291 C292 1.369 . S
C291 H304 0.950 . S
C292 C291 1.369 . S
C292 C293 1.392 . S
C292 H305 0.951 . S
C293 C292 1.392 . S
C293 C295 1.384 . S
H294 C296 0.949 . S
C295 C293 1.384 . S
C295 C296 1.385 . S
C295 H297 0.950 . S
C296 C290 1.404 . S
C296 H294 0.949 . S
C296 C295 1.385 . S
H297 C295 0.950 . S
H298 C282 0.951 . S
H299 C284 0.951 . S
H300 C286 0.951 . S
H301 C287 0.950 . S
H302 C288 0.950 . S
H303 C289 0.950 . S
H304 C291 0.950 . S
H305 C292 0.951 . S
C306 C307 1.386 . S
C306 C308 1.383 . S
C306 H322 0.951 . S
C307 C306 1.386 . S
C307 C311 1.383 . S
C308 C306 1.383 . S
C308 C309 1.402 . S
C308 H323 0.951 . S
C309 C308 1.402 . S
C309 C310 1.375 . S
C309 C312 1.481 . S
C310 C309 1.375 . S
C310 C311 1.367 . S
C310 H324 0.951 . S
C311 C307 1.383 . S
C311 C310 1.367 . S
C311 H325 0.950 . S
C312 C309 1.481 . S
C312 C313 1.297 . S
C312 H326 0.950 . S
C313 C312 1.297 . S
C313 C314 1.479 . S
C313 H327 0.950 . S
C314 C313 1.479 . S
C314 C315 1.375 . S
C314 C320 1.404 . S
C315 C314 1.375 . S
C315 C316 1.369 . S
C315 H328 0.950 . S
C316 C315 1.369 . S
C316 C317 1.392 . S
C316 H329 0.951 . S
C317 C316 1.392 . S
C317 C319 1.384 . S
H318 C320 0.949 . S
C319 C317 1.384 . S
C319 C320 1.385 . S
C319 H321 0.950 . S
C320 C314 1.404 . S
C320 H318 0.949 . S
C320 C319 1.385 . S
H321 C319 0.950 . S
H322 C306 0.951 . S
H323 C308 0.951 . S
H324 C310 0.951 . S
H325 C311 0.950 . S
H326 C312 0.950 . S
H327 C313 0.950 . S
H328 C315 0.950 . S
H329 C316 0.951 . S
C330 C331 1.386 . S
C330 C332 1.383 . S
C330 H346 0.951 . S
C331 C330 1.386 . S
C331 C335 1.383 . S
C332 C330 1.383 . S
C332 C333 1.402 . S
C332 H347 0.951 . S
C333 C332 1.402 . S
C333 C334 1.375 . S
C333 C336 1.481 . S
C334 C333 1.375 . S
C334 C335 1.367 . S
C334 H348 0.951 . S
C335 C331 1.383 . S
C335 C334 1.367 . S
C335 H349 0.950 . S
C336 C333 1.481 . S
C336 C337 1.297 . S
C336 H350 0.950 . S
C337 C336 1.297 . S
C337 C338 1.479 . S
C337 H351 0.950 . S
C338 C337 1.479 . S
C338 C339 1.375 . S
C338 C344 1.404 . S
C339 C338 1.375 . S
C339 C340 1.369 . S
C339 H352 0.950 . S
C340 C339 1.369 . S
C340 C341 1.392 . S
C340 H353 0.951 . S
C341 C340 1.392 . S
C341 C343 1.384 . S
H342 C344 0.949 . S
C343 C341 1.384 . S
C343 C344 1.385 . S
C343 H345 0.950 . S
C344 C338 1.404 . S
C344 H342 0.949 . S
C344 C343 1.385 . S
H345 C343 0.950 . S
H346 C330 0.951 . S
H347 C332 0.951 . S
H348 C334 0.951 . S
H349 C335 0.950 . S
H350 C336 0.950 . S
H351 C337 0.950 . S
H352 C339 0.950 . S
H353 C340 0.951 . S
C354 C355 1.386 . S
C354 C356 1.383 . S
C354 H370 0.951 . S
C355 C354 1.386 . S
C355 C359 1.383 . S
C356 C354 1.383 . S
C356 C357 1.402 . S
C356 H371 0.951 . S
C357 C356 1.402 . S
C357 C358 1.375 . S
C357 C360 1.481 . S
C358 C357 1.375 . S
C358 C359 1.367 . S
C358 H372 0.951 . S
C359 C355 1.383 . S
C359 C358 1.367 . S
C359 H373 0.950 . S
C360 C357 1.481 . S
C360 C361 1.297 . S
C360 H374 0.950 . S
C361 C360 1.297 . S
C361 C362 1.479 . S
C361 H375 0.950 . S
C362 C361 1.479 . S
C362 C363 1.375 . S
C362 C368 1.404 . S
C363 C362 1.375 . S
C363 C364 1.369 . S
C363 H376 0.950 . S
C364 C363 1.369 . S
C364 C365 1.392 . S
C364 H377 0.951 . S
C365 C364 1.392 . S
C365 C367 1.384 . S
H366 C368 0.949 . S
C367 C365 1.384 . S
C367 C368 1.385 . S
C367 H369 0.950 . S
C368 C362 1.404 . S
C368 H366 0.949 . S
C368 C367 1.385 . S
H369 C367 0.950 . S
H370 C354 0.951 . S
H371 C356 0.951 . S
H372 C358 0.951 . S
H373 C359 0.950 . S
H374 C360 0.950 . S
H375 C361 0.950 . S
H376 C363 0.950 . S
H377 C364 0.951 . S
C378 C379 1.386 . S
C378 C380 1.383 . S
C378 H394 0.951 . S
C379 C378 1.386 . S
C379 C383 1.383 . S
C380 C378 1.383 . S
C380 C381 1.402 . S
C380 H395 0.951 . S
C381 C380 1.402 . S
C381 C382 1.375 . S
C381 C384 1.481 . S
C382 C381 1.375 . S
C382 C383 1.367 . S
C382 H396 0.951 . S
C383 C379 1.383 . S
C383 C382 1.367 . S
C383 H397 0.950 . S
C384 C381 1.481 . S
C384 C385 1.297 . S
C384 H398 0.950 . S
C385 C384 1.297 . S
C385 C386 1.479 . S
C385 H399 0.950 . S
C386 C385 1.479 . S
C386 C387 1.375 . S
C386 C392 1.404 . S
C387 C386 1.375 . S
C387 C388 1.369 . S
C387 H400 0.950 . S
C388 C387 1.369 . S
C388 C389 1.392 . S
C388 H401 0.951 . S
C389 C388 1.392 . S
C389 C391 1.384 . S
H390 C392 0.949 . S
C391 C389 1.384 . S
C391 C392 1.385 . S
C391 H393 0.950 . S
C392 C386 1.404 . S
C392 H390 0.949 . S
C392 C391 1.385 . S
H393 C391 0.950 . S
H394 C378 0.951 . S
H395 C380 0.951 . S
H396 C382 0.951 . S
H397 C383 0.950 . S
H398 C384 0.950 . S
H399 C385 0.950 . S
H400 C387 0.950 . S
H401 C388 0.951 . S
C402 C403 1.386 . S
C402 C404 1.383 . S
C402 H418 0.951 . S
C403 C402 1.386 . S
C403 C407 1.383 . S
C404 C402 1.383 . S
C404 C405 1.402 . S
C404 H419 0.951 . S
C405 C404 1.402 . S
C405 C406 1.375 . S
C405 C408 1.481 . S
C406 C405 1.375 . S
C406 C407 1.367 . S
C406 H420 0.951 . S
C407 C403 1.383 . S
C407 C406 1.367 . S
C407 H421 0.950 . S
C408 C405 1.481 . S
C408 C409 1.297 . S
C408 H422 0.950 . S
C409 C408 1.297 . S
C409 C410 1.479 . S
C409 H423 0.950 . S
C410 C409 1.479 . S
C410 C411 1.375 . S
C410 C416 1.404 . S
C411 C410 1.375 . S
C411 C412 1.369 . S
C411 H424 0.950 . S
C412 C411 1.369 . S
C412 C413 1.392 . S
C412 H425 0.951 . S
C413 C412 1.392 . S
C413 C415 1.384 . S
H414 C416 0.949 . S
C415 C413 1.384 . S
C415 C416 1.385 . S
C415 H417 0.950 . S
C416 C410 1.404 . S
C416 H414 0.949 . S
C416 C415 1.385 . S
H417 C415 0.950 . S
H418 C402 0.951 . S
H419 C404 0.951 . S
H420 C406 0.951 . S
H421 C407 0.950 . S
H422 C408 0.950 . S
H423 C409 0.950 . S
H424 C411 0.950 . S
H425 C412 0.951 . S
C426 C427 1.386 . S
C426 C428 1.383 . S
C426 H442 0.951 . S
C427 C426 1.386 . S
C427 C431 1.383 . S
C428 C426 1.383 . S
C428 C429 1.402 . S
C428 H443 0.951 . S
C429 C428 1.402 . S
C429 C430 1.375 . S
C429 C432 1.481 . S
C430 C429 1.375 . S
C430 C431 1.367 . S
C430 H444 0.951 . S
C431 C427 1.383 . S
C431 C430 1.367 . S
C431 H445 0.950 . S
C432 C429 1.481 . S
C432 C433 1.297 . S
C432 H446 0.950 . S
C433 C432 1.297 . S
C433 C434 1.479 . S
C433 H447 0.950 . S
C434 C433 1.479 . S
C434 C435 1.375 . S
C434 C440 1.404 . S
C435 C434 1.375 . S
C435 C436 1.369 . S
C435 H448 0.950 . S
C436 C435 1.369 . S
C436 C437 1.392 . S
C436 H449 0.951 . S
C437 C436 1.392 . S
C437 C439 1.384 . S
H438 C440 0.949 . S
C439 C437 1.384 . S
C439 C440 1.385 . S
C439 H441 0.950 . S
C440 C434 1.404 . S
C440 H438 0.949 . S
C440 C439 1.385 . S
H441 C439 0.950 . S
H442 C426 0.951 . S
H443 C428 0.951 . S
H444 C430 0.951 . S
H445 C431 0.950 . S
H446 C432 0.950 . S
H447 C433 0.950 . S
H448 C435 0.950 . S
H449 C436 0.951 . S
C450 C451 1.386 . S
C450 C452 1.383 . S
C450 H466 0.951 . S
C451 C450 1.386 . S
C451 C455 1.383 . S
C452 C450 1.383 . S
C452 C453 1.402 . S
C452 H467 0.951 . S
C453 C452 1.402 . S
C453 C454 1.375 . S
C453 C456 1.481 . S
C454 C453 1.375 . S
C454 C455 1.367 . S
C454 H468 0.951 . S
C455 C451 1.383 . S
C455 C454 1.367 . S
C455 H469 0.950 . S
C456 C453 1.481 . S
C456 C457 1.297 . S
C456 H470 0.950 . S
C457 C456 1.297 . S
C457 C458 1.479 . S
C457 H471 0.950 . S
C458 C457 1.479 . S
C458 C459 1.375 . S
C458 C464 1.404 . S
C459 C458 1.375 . S
C459 C460 1.369 . S
C459 H472 0.950 . S
C460 C459 1.369 . S
C460 C461 1.392 . S
C460 H473 0.951 . S
C461 C460 1.392 . S
C461 C463 1.384 . S
H462 C464 0.949 . S
C463 C461 1.384 . S
C463 C464 1.385 . S
C463 H465 0.950 . S
C464 C458 1.404 . S
C464 H462 0.949 . S
C464 C463 1.385 . S
H465 C463 0.950 . S
H466 C450 0.951 . S
H467 C452 0.951 . S
H468 C454 0.951 . S
H469 C455 0.950 . S
H470 C456 0.950 . S
H471 C457 0.950 . S
H472 C459 0.950 . S
H473 C460 0.951 . S
C474 C475 1.386 . S
C474 C476 1.383 . S
C474 H490 0.951 . S
C475 C474 1.386 . S
C475 C479 1.383 . S
C476 C474 1.383 . S
C476 C477 1.402 . S
C476 H491 0.951 . S
C477 C476 1.402 . S
C477 C478 1.375 . S
C477 C480 1.481 . S
C478 C477 1.375 . S
C478 C479 1.367 . S
C478 H492 0.951 . S
C479 C475 1.383 . S
C479 C478 1.367 . S
C479 H493 0.950 . S
C480 C477 1.481 . S
C480 C481 1.297 . S
C480 H494 0.950 . S
C481 C480 1.297 . S
C481 C482 1.479 . S
C481 H495 0.950 . S
C482 C481 1.479 . S
C482 C483 1.375 . S
C482 C488 1.404 . S
C483 C482 1.375 . S
C483 C484 1.369 . S
C483 H496 0.950 . S
C484 C483 1.369 . S
C484 C485 1.392 . S
C484 H497 0.951 . S
C485 C484 1.392 . S
C485 C487 1.384 . S
H486 C488 0.949 . S
C487 C485 1.384 . S
C487 C488 1.385 . S
C487 H489 0.950 . S
C488 C482 1.404 . S
C488 H486 0.949 . S
C488 C487 1.385 . S
H489 C487 0.950 . S
H490 C474 0.951 . S
H491 C476 0.951 . S
H492 C478 0.951 . S
H493 C479 0.950 . S
H494 C480 0.950 . S
H495 C481 0.950 . S
H496 C483 0.950 . S
H497 C484 0.951 . S
C211 C58 1.138 . S
C221 C187 1.231 . S
C235 C139 1.513 . S
C245 C193 1.427 . S
C259 C67 1.602 . S
C269 C184 1.398 . S
C283 C154 1.145 . S
C293 C209 1.207 . S
C307 C56 1.571 . S
C317 C175 1.367 . S
C341 C192 1.483 . S
C331 C152 1.621 . S
C355 C142 1.162 . S
C365 C188 1.308 . S
C389 C205 1.564 . S
C379 C68 1.594 . S
C413 C172 1.491 . S
C403 C140 1.581 . S
C437 C208 1.215 . S
C427 C70 1.144 . S
C461 C171 1.448 . S
C451 C151 1.605 . S
C485 C196 1.455 . S
C475 C55 1.518 . S
