# Generated by pormake.
# Topology soc, (4,6)-cn, num edge types: 1
# Building blocks:
#     Node 0, Type 0, BuildingBlock: ESEHIV_clean_sbu_0, # of connection points: 4
#     Node 1, Type 0, BuildingBlock: ESEHIV_clean_sbu_0, # of connection points: 4
#     Node 2, Type 0, BuildingBlock: ESEHIV_clean_sbu_0, # of connection points: 4
#     Node 3, Type 0, BuildingBlock: ESEHIV_clean_sbu_0, # of connection points: 4
#     Node 4, Type 0, BuildingBlock: ESEHIV_clean_sbu_0, # of connection points: 4
#     Node 5, Type 0, BuildingBlock: ESEHIV_clean_sbu_0, # of connection points: 4
#     Node 6, Type 0, BuildingBlock: ESEHIV_clean_sbu_0, # of connection points: 4
#     Node 7, Type 0, BuildingBlock: ESEHIV_clean_sbu_0, # of connection points: 4
#     Node 8, Type 0, BuildingBlock: ESEHIV_clean_sbu_0, # of connection points: 4
#     Node 9, Type 0, BuildingBlock: ESEHIV_clean_sbu_0, # of connection points: 4
#     Node 10, Type 0, BuildingBlock: ESEHIV_clean_sbu_0, # of connection points: 4
#     Node 11, Type 0, BuildingBlock: ESEHIV_clean_sbu_0, # of connection points: 4
#     Node 12, Type 1, BuildingBlock: INOVEN_clean_sbu_0, # of connection points: 6
#     Node 13, Type 1, BuildingBlock: INOVEN_clean_sbu_0, # of connection points: 6
#     Node 14, Type 1, BuildingBlock: INOVEN_clean_sbu_0, # of connection points: 6
#     Node 15, Type 1, BuildingBlock: INOVEN_clean_sbu_0, # of connection points: 6
#     Node 16, Type 1, BuildingBlock: INOVEN_clean_sbu_0, # of connection points: 6
#     Node 17, Type 1, BuildingBlock: INOVEN_clean_sbu_0, # of connection points: 6
#     Node 18, Type 1, BuildingBlock: INOVEN_clean_sbu_0, # of connection points: 6
#     Node 19, Type 1, BuildingBlock: INOVEN_clean_sbu_0, # of connection points: 6
#     Edge 20, Type (0, 1), BuildingBlock: UVAHIK_clean_linker_0, # of connection points: 2
#     Edge 21, Type (0, 1), BuildingBlock: UVAHIK_clean_linker_0, # of connection points: 2
#     Edge 22, Type (0, 1), BuildingBlock: UVAHIK_clean_linker_0, # of connection points: 2
#     Edge 23, Type (0, 1), BuildingBlock: UVAHIK_clean_linker_0, # of connection points: 2
#     Edge 24, Type (0, 1), BuildingBlock: UVAHIK_clean_linker_0, # of connection points: 2
#     Edge 25, Type (0, 1), BuildingBlock: UVAHIK_clean_linker_0, # of connection points: 2
#     Edge 26, Type (0, 1), BuildingBlock: UVAHIK_clean_linker_0, # of connection points: 2
#     Edge 27, Type (0, 1), BuildingBlock: UVAHIK_clean_linker_0, # of connection points: 2
#     Edge 28, Type (0, 1), BuildingBlock: UVAHIK_clean_linker_0, # of connection points: 2
#     Edge 29, Type (0, 1), BuildingBlock: UVAHIK_clean_linker_0, # of connection points: 2
#     Edge 30, Type (0, 1), BuildingBlock: UVAHIK_clean_linker_0, # of connection points: 2
#     Edge 31, Type (0, 1), BuildingBlock: UVAHIK_clean_linker_0, # of connection points: 2
#     Edge 32, Type (0, 1), BuildingBlock: UVAHIK_clean_linker_0, # of connection points: 2
#     Edge 33, Type (0, 1), BuildingBlock: UVAHIK_clean_linker_0, # of connection points: 2
#     Edge 34, Type (0, 1), BuildingBlock: UVAHIK_clean_linker_0, # of connection points: 2
#     Edge 35, Type (0, 1), BuildingBlock: UVAHIK_clean_linker_0, # of connection points: 2
#     Edge 36, Type (0, 1), BuildingBlock: UVAHIK_clean_linker_0, # of connection points: 2
#     Edge 37, Type (0, 1), BuildingBlock: UVAHIK_clean_linker_0, # of connection points: 2
#     Edge 38, Type (0, 1), BuildingBlock: UVAHIK_clean_linker_0, # of connection points: 2
#     Edge 39, Type (0, 1), BuildingBlock: UVAHIK_clean_linker_0, # of connection points: 2
#     Edge 40, Type (0, 1), BuildingBlock: UVAHIK_clean_linker_0, # of connection points: 2
#     Edge 41, Type (0, 1), BuildingBlock: UVAHIK_clean_linker_0, # of connection points: 2
#     Edge 42, Type (0, 1), BuildingBlock: UVAHIK_clean_linker_0, # of connection points: 2
#     Edge 43, Type (0, 1), BuildingBlock: UVAHIK_clean_linker_0, # of connection points: 2
#     Edge 44, Type (0, 1), BuildingBlock: UVAHIK_clean_linker_0, # of connection points: 2
#     Edge 45, Type (0, 1), BuildingBlock: UVAHIK_clean_linker_0, # of connection points: 2
#     Edge 46, Type (0, 1), BuildingBlock: UVAHIK_clean_linker_0, # of connection points: 2
#     Edge 47, Type (0, 1), BuildingBlock: UVAHIK_clean_linker_0, # of connection points: 2
#     Edge 48, Type (0, 1), BuildingBlock: UVAHIK_clean_linker_0, # of connection points: 2
#     Edge 49, Type (0, 1), BuildingBlock: UVAHIK_clean_linker_0, # of connection points: 2
#     Edge 50, Type (0, 1), BuildingBlock: UVAHIK_clean_linker_0, # of connection points: 2
#     Edge 51, Type (0, 1), BuildingBlock: UVAHIK_clean_linker_0, # of connection points: 2
#     Edge 52, Type (0, 1), BuildingBlock: UVAHIK_clean_linker_0, # of connection points: 2
#     Edge 53, Type (0, 1), BuildingBlock: UVAHIK_clean_linker_0, # of connection points: 2
#     Edge 54, Type (0, 1), BuildingBlock: UVAHIK_clean_linker_0, # of connection points: 2
#     Edge 55, Type (0, 1), BuildingBlock: UVAHIK_clean_linker_0, # of connection points: 2
#     Edge 56, Type (0, 1), BuildingBlock: UVAHIK_clean_linker_0, # of connection points: 2
#     Edge 57, Type (0, 1), BuildingBlock: UVAHIK_clean_linker_0, # of connection points: 2
#     Edge 58, Type (0, 1), BuildingBlock: UVAHIK_clean_linker_0, # of connection points: 2
#     Edge 59, Type (0, 1), BuildingBlock: UVAHIK_clean_linker_0, # of connection points: 2
#     Edge 60, Type (0, 1), BuildingBlock: UVAHIK_clean_linker_0, # of connection points: 2
#     Edge 61, Type (0, 1), BuildingBlock: UVAHIK_clean_linker_0, # of connection points: 2
#     Edge 62, Type (0, 1), BuildingBlock: UVAHIK_clean_linker_0, # of connection points: 2
#     Edge 63, Type (0, 1), BuildingBlock: UVAHIK_clean_linker_0, # of connection points: 2
#     Edge 64, Type (0, 1), BuildingBlock: UVAHIK_clean_linker_0, # of connection points: 2
#     Edge 65, Type (0, 1), BuildingBlock: UVAHIK_clean_linker_0, # of connection points: 2
#     Edge 66, Type (0, 1), BuildingBlock: UVAHIK_clean_linker_0, # of connection points: 2
#     Edge 67, Type (0, 1), BuildingBlock: UVAHIK_clean_linker_0, # of connection points: 2
# Relax obj value: 0.148
# Max RMSD: 0.247
# Mean RMSD: 0.164
data_MOF--net-soc--node1-ESEHIV_clean_sbu_0--node2-INOVEN_clean_sbu_0--edge1-UVAHIK_clean_linker_0
_symmetry_space_group_name_H-M    P1
_symmetry_Int_Tables_number       1
_symmetry_cell_setting            triclinic
loop_
_symmetry_equiv_pos_as_xyz
'x, y, z'
_cell_length_a     63.592303
_cell_length_b     62.416271
_cell_length_c     55.904245
_cell_angle_alpha  83.541583
_cell_angle_beta   84.696485
_cell_angle_gamma 73.32036
loop_
_atom_site_label
_atom_site_type_symbol
_atom_site_fract_x
_atom_site_fract_y
_atom_site_fract_z
_atom_type_partial_charge
Cu0 Cu 0.04393 0.02428 0.33864 0.0
N1 N 0.05889 0.03664 0.35802 0.0
N2 N 0.07965 0.05715 0.36848 0.0
C3 C 0.06937 0.05234 0.35052 0.0
C4 C 0.07534 0.04392 0.38806 0.0
C5 C 0.06253 0.03129 0.38154 0.0
O6 O 0.06538 1.00008 0.32323 0.0
C7 C 1.00945 0.04775 0.30855 0.0
O8 O 1.00496 0.02835 0.31013 0.0
H9 H 0.06992 0.05959 0.33204 0.0
H10 H 0.05653 0.0189 0.39303 0.0
N11 N 1.02413 0.01138 0.35734 0.0
N12 N 1.00064 0.99044 0.3656 0.0
C13 C 1.0184 0.99345 0.35189 0.0
C14 C 1.00982 0.01991 0.37541 0.0
C15 C 0.99535 0.00699 0.38062 0.0
C16 C 0.0825 1.00188 0.31043 0.0
O17 O 0.08514 0.02191 0.30408 0.0
H18 H 1.02645 0.98366 0.33716 0.0
H19 H 1.0091 0.03524 0.38317 0.0
O20 O 1.02685 0.04879 0.31742 0.0
H21 H 0.08098 0.04337 0.40585 0.0
H22 H 0.98118 0.0105 0.39336 0.0
Cu23 Cu 0.0477 0.03478 0.73344 0.0
N24 N 0.0354 0.01944 0.71434 0.0
N25 N 1.01526 0.99752 0.70601 0.0
C26 C 1.02025 0.00882 0.72286 0.0
C27 C 0.02787 1.00117 0.68603 0.0
C28 C 0.04031 0.01471 0.69124 0.0
O29 O 1.02359 0.05377 0.75263 0.0
C30 C 0.08661 1.00198 0.73641 0.0
O31 O 0.08628 0.00896 0.71335 0.0
H32 H 1.01372 0.0087 0.74144 0.0
H33 H 0.05251 0.02011 0.67925 0.0
N34 N 0.0613 0.05465 0.71546 0.0
N35 N 0.08075 0.07961 0.70931 0.0
C36 C 0.07414 0.0646 0.72524 0.0
C37 C 0.05961 0.06364 0.69243 0.0
C38 C 0.07179 0.07898 0.68851 0.0
C39 C 1.00825 0.06603 0.73978 0.0
O40 O 1.01003 0.06398 0.71648 0.0
H41 H 0.07837 0.06092 0.74386 0.0
H42 H 0.04973 0.05988 0.67962 0.0
O43 O 0.07055 0.01167 0.7505 0.0
H44 H 0.02831 0.99434 0.66898 0.0
H45 H 0.07332 0.08937 0.67195 0.0
Cu46 Cu 0.31672 0.04462 0.08086 0.0
N47 N 0.32549 0.01609 0.07007 0.0
N48 N 0.32283 0.98462 0.05671 0.0
C49 C 0.3119 0.00526 0.06329 0.0
C50 C 0.34426 0.9826 0.05932 0.0
C51 C 0.34584 1.00205 0.06755 0.0
O52 O 0.28698 0.04964 0.0958 0.0
C53 C 0.3236 0.06461 0.03229 0.0
O54 O 0.33171 0.04382 0.02672 0.0
H55 H 0.29429 0.01251 0.06341 0.0
H56 H 0.36075 0.00578 0.07123 0.0
N57 N 0.33503 0.04709 0.10394 0.0
N58 N 0.34743 0.06248 0.13181 0.0
C59 C 0.33469 0.06629 0.11294 0.0
C60 C 0.34866 0.03058 0.11742 0.0
C61 C 0.35621 0.04004 0.13481 0.0
C62 C 0.27727 0.03687 0.10916 0.0
O63 O 0.25619 0.04491 0.11498 0.0
H64 H 0.32425 0.0826 0.10673 0.0
H65 H 0.35185 0.01283 0.11567 0.0
O66 O 0.31657 0.06819 0.05405 0.0
H67 H 0.35797 0.96836 0.05514 0.0
H68 H 0.36673 0.03112 0.149 0.0
Cu69 Cu 0.07187 0.29989 0.08115 0.0
N70 N 0.08339 0.31762 0.05732 0.0
N71 N 0.1015 0.32701 0.02329 0.0
C72 C 0.09528 0.31038 0.03711 0.0
C73 C 0.09298 0.34548 0.0354 0.0
C74 C 0.08182 0.33963 0.05634 0.0
O75 O 0.09339 0.28744 0.10573 0.0
C76 C 0.05043 0.2666 0.07265 0.0
O77 O 0.04573 0.26486 0.09605 0.0
H78 H 0.09967 0.29305 0.03303 0.0
H79 H 0.0732 0.35062 0.06989 0.0
N80 N 0.04683 0.31772 0.09707 0.0
N81 N 1.0131 0.32774 0.11557 0.0
C82 C 1.02608 0.31608 0.09809 0.0
C83 C 0.04688 0.33138 0.11401 0.0
C84 C 1.02615 0.33762 0.12539 0.0
C85 C 0.11418 0.28318 0.10156 0.0
O86 O 0.12231 0.28403 0.07912 0.0
H87 H 1.02085 0.30572 0.08699 0.0
H88 H 0.06138 0.33522 0.11889 0.0
O89 O 0.06299 0.27858 0.06399 0.0
H90 H 0.09451 0.36211 0.02957 0.0
H91 H 1.0216 0.34726 0.14092 0.0
Cu92 Cu 0.7988 0.99333 1.00353 0.0
N93 N 0.81908 1.00348 0.98256 0.0
N94 N 0.83092 0.02901 0.95817 0.0
C95 C 0.81923 0.02509 0.9787 0.0
C96 C 0.83853 0.00906 0.9487 0.0
C97 C 0.83121 0.99329 0.96386 0.0
O98 O 0.78614 0.01677 0.02531 0.0
C99 C 0.77061 0.97059 0.9866 0.0
O100 O 0.77121 0.95991 0.00826 0.0
H101 H 0.80897 0.03818 0.98925 0.0
H102 H 0.83283 0.9762 0.96028 0.0
N103 N 0.81243 0.96683 0.02166 0.0
N104 N 0.81693 0.93892 0.0511 0.0
C105 C 0.80537 0.96003 0.04387 0.0
C106 C 0.82918 0.94955 0.01465 0.0
C107 C 0.83197 0.93226 0.03278 0.0
C108 C 0.80011 0.01972 0.03866 0.0
O109 O 0.82029 0.0064 0.03719 0.0
H110 H 0.79115 0.96987 0.05386 0.0
H111 H 0.83813 0.94921 0.99723 0.0
O112 O 0.77905 0.98694 0.98243 0.0
H113 H 0.84734 0.00645 0.93128 0.0
H114 H 0.84373 0.91585 0.03226 0.0
Cu115 Cu 0.02896 0.73323 1.00424 0.0
N116 N 1.01494 0.71932 0.98499 0.0
N117 N 0.99054 0.71486 0.96085 0.0
C118 C 0.99715 0.72955 0.97229 0.0
C119 C 1.00481 0.69464 0.96649 0.0
C120 C 1.01989 0.69745 0.98123 0.0
O121 O 1.00666 0.74923 0.0279 0.0
C122 C 0.05609 0.76323 0.98576 0.0
O123 O 0.0533 0.77107 0.00702 0.0
H124 H 0.98895 0.74736 0.97188 0.0
H125 H 0.03348 0.68444 0.9887 0.0
N126 N 0.05011 0.71227 0.02274 0.0
N127 N 0.07791 0.70046 0.04726 0.0
C128 C 0.0676 0.71668 0.03084 0.0
C129 C 0.04943 0.69234 0.03439 0.0
C130 C 0.06654 0.68504 0.04958 0.0
C131 C 0.99543 0.73685 0.03934 0.0
O132 O 0.9989 0.71645 0.03293 0.0
H133 H 0.07184 0.73223 0.02608 0.0
H134 H 0.03676 0.68421 0.03298 0.0
O135 O 0.04546 0.74972 0.98153 0.0
H136 H 1.00452 0.67895 0.9602 0.0
H137 H 0.06987 0.66999 0.06193 0.0
Cu138 Cu 0.53816 0.51976 0.86105 0.0
N139 N 0.55501 0.53202 0.8781 0.0
N140 N 0.57504 0.55408 0.88629 0.0
C141 C 0.56023 0.55141 0.87189 0.0
C142 C 0.57911 0.53572 0.9023 0.0
C143 C 0.56672 0.52214 0.89719 0.0
O144 O 0.55846 0.49822 0.84087 0.0
C145 C 0.49751 0.54342 0.84012 0.0
O146 O 0.49315 0.52394 0.84379 0.0
H147 H 0.55429 0.56262 0.85622 0.0
H148 H 0.56684 0.50582 0.90616 0.0
N149 N 0.52348 0.50336 0.88284 0.0
N150 N 0.50649 0.4774 0.89721 0.0
C151 C 0.51762 0.4853 0.87813 0.0
C152 C 0.51603 0.50704 0.90573 0.0
C153 C 0.5055 0.49105 0.91467 0.0
C154 C 0.57624 0.50148 0.83085 0.0
O155 O 0.57927 0.52146 0.83048 0.0
H156 H 0.52077 0.47872 0.86066 0.0
H157 H 0.51789 0.52056 0.91513 0.0
O158 O 0.51646 0.54458 0.84454 0.0
H159 H 0.59059 0.5321 0.91634 0.0
H160 H 0.49763 0.48973 0.93256 0.0
Cu161 Cu 0.55233 0.53794 0.23064 0.0
N162 N 0.53801 0.52283 0.21342 0.0
N163 N 0.51728 0.5008 0.20681 0.0
C164 C 0.52537 0.50982 0.2235 0.0
C165 C 0.52526 0.50849 0.18533 0.0
C166 C 0.53806 0.52205 0.18947 0.0
O167 O 0.53058 0.55732 0.2518 0.0
C168 C 0.58991 0.50358 0.23097 0.0
O169 O 0.58671 0.50878 0.2079 0.0
H170 H 0.52198 0.50737 0.24278 0.0
H171 H 0.54691 0.53057 0.17601 0.0
N172 N 0.56558 0.55702 0.21065 0.0
N173 N 0.58847 0.57827 0.2003 0.0
C174 C 0.58427 0.56131 0.21533 0.0
C175 C 0.55755 0.57178 0.19199 0.0
C176 C 0.57168 0.58495 0.18554 0.0
C177 C 0.5119 0.56711 0.24337 0.0
O178 O 0.50799 0.56284 0.22201 0.0
H179 H 0.59385 0.55306 0.23049 0.0
H180 H 0.54204 0.57354 0.1844 0.0
O181 O 0.57605 0.51481 0.24614 0.0
H182 H 0.52239 0.50439 0.16784 0.0
H183 H 0.56944 0.59876 0.17157 0.0
Cu184 Cu 0.82894 0.5463 0.55793 0.0
N185 N 0.84635 0.55452 0.53183 0.0
N186 N 0.85603 0.57459 0.49923 0.0
C187 C 0.8424 0.57482 0.51928 0.0
C188 C 0.86909 0.5533 0.49925 0.0
C189 C 0.86303 0.54096 0.51934 0.0
O190 O 0.81777 0.57134 0.57806 0.0
C191 C 0.81258 0.51693 0.53689 0.0
O192 O 0.83319 0.50508 0.53856 0.0
H193 H 0.82894 0.58911 0.52404 0.0
H194 H 0.86966 0.52312 0.52388 0.0
N195 N 0.84537 0.5219 0.57719 0.0
N196 N 0.85266 0.49058 0.60223 0.0
C197 C 0.83685 0.50793 0.59256 0.0
C198 C 0.86735 0.51331 0.5774 0.0
C199 C 0.8719 0.49389 0.59278 0.0
C200 C 0.83193 0.57563 0.59009 0.0
O201 O 0.8526 0.56383 0.58736 0.0
H202 H 0.81937 0.50987 0.59562 0.0
H203 H 0.87922 0.5204 0.56677 0.0
O204 O 0.80631 0.53645 0.54445 0.0
H205 H 0.88173 0.54695 0.48544 0.0
H206 H 0.88807 0.48296 0.59654 0.0
Cu207 Cu 0.56357 0.79191 0.56866 0.0
N208 N 0.58434 0.77504 0.54657 0.0
N209 N 0.60996 0.76721 0.51585 0.0
C210 C 0.59794 0.78302 0.53025 0.0
C211 C 0.60354 0.7486 0.52356 0.0
C212 C 0.58781 0.75347 0.54236 0.0
O213 O 0.57974 0.80382 0.58952 0.0
C214 C 0.53563 0.80723 0.53211 0.0
O215 O 0.54312 0.78583 0.52873 0.0
H216 H 0.59878 0.80017 0.52893 0.0
H217 H 0.57903 0.74223 0.55175 0.0
N218 N 0.54772 0.77475 0.58848 0.0
N219 N 0.52047 0.76627 0.6127 0.0
C220 C 0.52676 0.7822 0.59765 0.0
C221 C 0.55501 0.75344 0.5982 0.0
C222 C 0.53827 0.74813 0.61297 0.0
C223 C 0.597 0.78987 0.5977 0.0
O224 O 0.60237 0.7691 0.59185 0.0
H225 H 0.51644 0.79908 0.5935 0.0
H226 H 0.57154 0.7427 0.59534 0.0
O227 O 0.54226 0.81459 0.54953 0.0
H228 H 0.6092 0.7327 0.51571 0.0
H229 H 0.53943 0.73236 0.62375 0.0
Cu230 Cu 0.2858 0.50448 0.51782 0.0
N231 N 0.30276 0.52164 0.49946 0.0
N232 N 0.31065 0.54966 0.47464 0.0
C233 C 0.29465 0.54073 0.48521 0.0
C234 C 0.32956 0.53557 0.48273 0.0
C235 C 0.32466 0.51841 0.49798 0.0
O236 O 0.26766 0.52447 0.54049 0.0
C237 C 0.27751 0.49029 0.47488 0.0
O238 O 0.29626 0.49464 0.46793 0.0
H239 H 0.27725 0.54803 0.48298 0.0
H240 H 0.33627 0.50466 0.50745 0.0
N241 N 0.30246 0.47884 0.53581 0.0
N242 N 0.31062 0.44972 0.56425 0.0
C243 C 0.2961 0.46955 0.5573 0.0
C244 C 0.32163 0.46441 0.5289 0.0
C245 C 0.32673 0.44655 0.54636 0.0
C246 C 0.27904 0.53088 0.55433 0.0
O247 O 0.30053 0.52244 0.55267 0.0
H248 H 0.28064 0.47675 0.56711 0.0
H249 H 0.33088 0.46633 0.51196 0.0
O250 O 0.26923 0.49391 0.49621 0.0
H251 H 0.34589 0.53734 0.47786 0.0
H252 H 0.34111 0.4322 0.54571 0.0
Cu253 Cu 0.52992 0.24537 0.52038 0.0
N254 N 0.55259 0.22961 0.49971 0.0
N255 N 0.58364 0.22252 0.47586 0.0
C256 C 0.56933 0.2374 0.48957 0.0
C257 C 0.57535 0.20473 0.47722 0.0
C258 C 0.5562 0.20917 0.4919 0.0
O259 O 0.54261 0.26493 0.53618 0.0
C260 C 0.49515 0.24549 0.49438 0.0
O261 O 0.50318 0.22411 0.50144 0.0
H262 H 0.5708 0.2538 0.49217 0.0
H263 H 0.54574 0.19821 0.49653 0.0
N264 N 0.52149 0.22656 0.54563 0.0
N265 N 0.50463 0.217 0.58041 0.0
C266 C 0.50696 0.23394 0.56404 0.0
C267 C 0.52874 0.20414 0.55052 0.0
C268 C 0.51825 0.19817 0.5719 0.0
C269 C 0.56014 0.25401 0.54651 0.0
O270 O 0.56709 0.23214 0.54564 0.0
H271 H 0.49832 0.25148 0.56536 0.0
H272 H 0.54111 0.19293 0.53968 0.0
O273 O 0.50433 0.25941 0.50098 0.0
H274 H 0.5827 0.18943 0.46857 0.0
H275 H 0.52093 0.18139 0.58083 0.0
Gd276 Gd 0.28226 0.27036 0.3213 0.0
Gd277 Gd 0.30737 0.29362 0.28586 0.0
C278 C 0.31294 0.24047 0.28274 0.0
C279 C 0.25177 0.25701 0.34738 0.0
C280 C 0.23965 0.24013 0.34764 0.0
C281 C 0.23074 0.23245 0.36967 0.0
C282 C 0.23665 0.23173 0.32632 0.0
C283 C 0.21552 0.20838 0.34918 0.0
C284 C 0.22461 0.21603 0.32708 0.0
C285 C 0.21881 0.21672 0.37047 0.0
C286 C 0.32265 0.26795 0.33549 0.0
C287 C 0.27748 0.32344 0.32487 0.0
C288 C 0.33739 0.30729 0.25914 0.0
C289 C 0.34983 0.32425 0.2579 0.0
C290 C 0.34236 0.34515 0.24451 0.0
C291 C 0.37013 0.31908 0.26845 0.0
C292 C 0.37545 0.35511 0.25178 0.0
C293 C 0.38275 0.33434 0.26549 0.0
C294 C 0.35497 0.36041 0.24157 0.0
C295 C 0.26714 0.29475 0.27165 0.0
O296 O 0.29507 0.24246 0.29728 0.0
O297 O 0.32178 0.25733 0.2777 0.0
O298 O 0.27263 0.24937 0.35146 0.0
O299 O 0.24773 0.27347 0.33022 0.0
O300 O 0.31344 0.25173 0.33904 0.0
O301 O 0.30971 0.2851 0.3252 0.0
O302 O 0.29496 0.3214 0.30977 0.0
O303 O 0.26863 0.30661 0.33045 0.0
O304 O 0.31643 0.31458 0.25539 0.0
O305 O 0.34181 0.2907 0.27612 0.0
O306 O 0.2757 0.31144 0.26789 0.0
O307 O 0.28056 0.27821 0.28205 0.0
H308 H 0.23287 0.23877 0.3863 0.0
H309 H 0.24355 0.23735 0.30913 0.0
H310 H 0.22258 0.20976 0.3104 0.0
H311 H 0.2118 0.21142 0.38773 0.0
H312 H 0.32691 0.3496 0.23592 0.0
H313 H 0.37655 0.30301 0.27859 0.0
H314 H 0.39857 0.32954 0.27333 0.0
H315 H 0.34869 0.37636 0.23116 0.0
Gd316 Gd 0.80208 0.29164 0.30844 0.0
Gd317 Gd 0.79177 0.2606 0.27509 0.0
C318 C 0.76905 0.2624 0.3295 0.0
C319 C 0.80373 0.32199 0.33548 0.0
C320 C 0.79269 0.33737 0.35402 0.0
C321 C 0.80307 0.33569 0.37549 0.0
C322 C 0.77378 0.35528 0.3496 0.0
C323 C 0.77687 0.3704 0.38718 0.0
C324 C 0.76593 0.37162 0.36605 0.0
C325 C 0.79529 0.35195 0.39186 0.0
C326 C 0.834 0.25267 0.30298 0.0
C327 C 0.82432 0.28954 0.25463 0.0
C328 C 0.78573 0.22785 0.25458 0.0
C329 C 0.78379 0.21868 0.23187 0.0
C330 C 0.76562 0.21063 0.22989 0.0
C331 C 0.80072 0.21541 0.21348 0.0
C332 C 0.78203 0.19459 0.19247 0.0
C333 C 0.79982 0.20351 0.19396 0.0
C334 C 0.7647 0.19877 0.21041 0.0
C335 C 0.76825 0.30443 0.2692 0.0
O336 O 0.77661 0.27951 0.33252 0.0
O337 O 0.77441 0.25149 0.30992 0.0
O338 O 0.81025 0.3004 0.34217 0.0
O339 O 0.79696 0.32665 0.3135 0.0
O340 O 0.83777 0.27154 0.30552 0.0
O341 O 0.81359 0.25495 0.30488 0.0
O342 O 0.8201 0.27006 0.2541 0.0
O343 O 0.8153 0.30298 0.27179 0.0
O344 O 0.76955 0.2446 0.26178 0.0
O345 O 0.80515 0.22897 0.25945 0.0
O346 O 0.77494 0.29179 0.2515 0.0
O347 O 0.77341 0.29301 0.28882 0.0
H348 H 0.81786 0.32226 0.37917 0.0
H349 H 0.76545 0.35708 0.33313 0.0
H350 H 0.75155 0.38543 0.36199 0.0
H351 H 0.80442 0.35057 0.40764 0.0
H352 H 0.75247 0.21273 0.24397 0.0
H353 H 0.81495 0.22142 0.21452 0.0
H354 H 0.8133 0.2009 0.18027 0.0
H355 H 0.75089 0.19196 0.21007 0.0
Gd356 Gd 0.80423 0.74898 0.27638 0.0
Gd357 Gd 0.80664 0.79522 0.2873 0.0
C358 C 0.76921 0.77673 0.31565 0.0
C359 C 0.80112 0.70846 0.27689 0.0
C360 C 0.78436 0.69862 0.26986 0.0
C361 C 0.7713 0.70872 0.25049 0.0
C362 C 0.78119 0.67907 0.28271 0.0
C363 C 0.7523 0.67953 0.25662 0.0
C364 C 0.7653 0.66962 0.2762 0.0
C365 C 0.75553 0.69922 0.24387 0.0
C366 C 0.78259 0.78353 0.24588 0.0
C367 C 0.84191 0.76736 0.24806 0.0
C368 C 0.809 0.83597 0.28742 0.0
C369 C 0.8253 0.84683 0.29347 0.0
C370 C 0.81805 0.86691 0.30464 0.0
C371 C 0.84797 0.83699 0.28927 0.0
C372 C 0.85593 0.86719 0.30763 0.0
C373 C 0.86316 0.84716 0.29617 0.0
C374 C 0.8332 0.87699 0.31169 0.0
C375 C 0.82837 0.76036 0.31747 0.0
O376 O 0.78126 0.75683 0.30955 0.0
O377 O 0.77325 0.79534 0.30508 0.0
O378 O 0.81125 0.71803 0.25934 0.0
O379 O 0.79575 0.72005 0.29569 0.0
O380 O 0.79062 0.7631 0.24034 0.0
O381 O 0.78376 0.78399 0.26814 0.0
O382 O 0.83044 0.78735 0.25456 0.0
O383 O 0.83743 0.74885 0.25832 0.0
O384 O 0.80051 0.82546 0.30557 0.0
O385 O 0.81363 0.82489 0.26821 0.0
O386 O 0.81986 0.78056 0.32355 0.0
O387 O 0.82729 0.76026 0.29519 0.0
H388 H 0.77336 0.72392 0.24037 0.0
H389 H 0.79098 0.67114 0.29784 0.0
H390 H 0.76304 0.65468 0.2867 0.0
H391 H 0.74609 0.70718 0.22851 0.0
H392 H 0.80062 0.87471 0.3081 0.0
H393 H 0.85394 0.82134 0.28091 0.0
H394 H 0.88056 0.83909 0.29301 0.0
H395 H 0.82711 0.89255 0.3202 0.0
Gd396 Gd 0.28677 0.78475 0.2666 0.0
Gd397 Gd 0.32175 0.79143 0.29716 0.0
C398 C 0.30989 0.82551 0.25091 0.0
C399 C 0.25397 0.78917 0.24037 0.0
C400 C 0.24336 0.77745 0.22581 0.0
C401 C 0.24222 0.75539 0.23236 0.0
C402 C 0.23379 0.78909 0.20482 0.0
C403 C 0.22187 0.75695 0.1969 0.0
C404 C 0.22317 0.77901 0.19054 0.0
C405 C 0.23148 0.74524 0.21804 0.0
C406 C 0.32671 0.75487 0.26067 0.0
C407 C 0.29882 0.75076 0.31302 0.0
C408 C 0.35458 0.78729 0.32313 0.0
C409 C 0.36607 0.8 0.33527 0.0
C410 C 0.35476 0.81989 0.34574 0.0
C411 C 0.38862 0.79089 0.33816 0.0
C412 C 0.38836 0.82054 0.36318 0.0
C413 C 0.39966 0.80101 0.35195 0.0
C414 C 0.36582 0.83007 0.3596 0.0
C415 C 0.28159 0.82101 0.30326 0.0
O416 O 0.29232 0.81809 0.25107 0.0
O417 O 0.32581 0.81587 0.26556 0.0
O418 O 0.25292 0.78482 0.26385 0.0
O419 O 0.27293 0.79189 0.23165 0.0
O420 O 0.30829 0.75075 0.25789 0.0
O421 O 0.32325 0.77536 0.26373 0.0
O422 O 0.31642 0.75813 0.3126 0.0
O423 O 0.28268 0.76059 0.29868 0.0
O424 O 0.35641 0.7886 0.29951 0.0
O425 O 0.3349 0.78708 0.33216 0.0
O426 O 0.29991 0.82549 0.30575 0.0
O427 O 0.28528 0.8005 0.30019 0.0
H428 H 0.24956 0.74607 0.24849 0.0
H429 H 0.23437 0.80617 0.19953 0.0
H430 H 0.21561 0.7887 0.17469 0.0
H431 H 0.23089 0.72819 0.22336 0.0
H432 H 0.33732 0.82723 0.34369 0.0
H433 H 0.39759 0.77547 0.33038 0.0
H434 H 0.41689 0.79296 0.35459 0.0
H435 H 0.35667 0.84522 0.36775 0.0
Gd436 Gd 0.29024 0.78871 0.80892 0.0
Gd437 Gd 0.28291 0.75171 0.78373 0.0
C438 C 0.25251 0.7641 0.83154 0.0
C439 C 0.28655 0.82484 0.82941 0.0
C440 C 0.28433 0.83196 0.85402 0.0
C441 C 0.30162 0.83833 0.86229 0.0
C442 C 0.26516 0.83308 0.86917 0.0
C443 C 0.28071 0.84704 0.90031 0.0
C444 C 0.26335 0.84066 0.89211 0.0
C445 C 0.29989 0.84568 0.8852 0.0
C446 C 0.31919 0.74829 0.81999 0.0
C447 C 0.32081 0.77495 0.76299 0.0
C448 C 0.28561 0.71726 0.76071 0.0
C449 C 0.2718 0.70619 0.74983 0.0
C450 C 0.25277 0.71863 0.73831 0.0
C451 C 0.27905 0.68289 0.74891 0.0
C452 C 0.24982 0.68469 0.72288 0.0
C453 C 0.26818 0.67221 0.7356 0.0
C454 C 0.24189 0.70795 0.7249 0.0
C455 C 0.25435 0.79264 0.77369 0.0
O456 O 0.26171 0.78059 0.832 0.0
O457 O 0.25924 0.74911 0.81552 0.0
O458 O 0.30546 0.81109 0.82302 0.0
O459 O 0.2698 0.81996 0.82172 0.0
O460 O 0.32349 0.76735 0.8197 0.0
O461 O 0.29901 0.75149 0.81703 0.0
O462 O 0.31584 0.75574 0.7681 0.0
O463 O 0.30914 0.79293 0.77348 0.0
O464 O 0.28472 0.71633 0.78428 0.0
O465 O 0.2867 0.73674 0.75014 0.0
O466 O 0.24911 0.77394 0.7751 0.0
O467 O 0.27473 0.78866 0.77565 0.0
H468 H 0.31645 0.83785 0.85088 0.0
H469 H 0.25152 0.82831 0.86329 0.0
H470 H 0.2484 0.84155 0.90341 0.0
H471 H 0.31335 0.85093 0.89083 0.0
H472 H 0.24683 0.73667 0.73893 0.0
H473 H 0.29374 0.67305 0.75762 0.0
H474 H 0.27495 0.65435 0.73418 0.0
H475 H 0.22767 0.71798 0.71553 0.0
Gd476 Gd 0.29985 0.24792 0.79663 0.0
Gd477 Gd 0.31118 0.28596 0.81382 0.0
C478 C 0.26237 0.28495 0.82507 0.0
C479 C 0.28713 0.21287 0.79172 0.0
C480 C 0.26767 0.20645 0.78628 0.0
C481 C 0.25514 0.21706 0.76663 0.0
C482 C 0.26251 0.18825 0.80004 0.0
C483 C 0.23362 0.1901 0.77354 0.0
C484 C 0.24561 0.18019 0.79381 0.0
C485 C 0.23827 0.20892 0.7603 0.0
C486 C 0.29636 0.28347 0.7628 0.0
C487 C 0.34814 0.25015 0.7835 0.0
C488 C 0.32465 0.32029 0.81982 0.0
C489 C 0.34346 0.32545 0.82909 0.0
C490 C 0.34944 0.3186 0.85294 0.0
C491 C 0.35476 0.33871 0.81424 0.0
C492 C 0.37684 0.33937 0.8473 0.0
C493 C 0.37135 0.34554 0.82322 0.0
C494 C 0.36593 0.32557 0.86198 0.0
C495 C 0.3156 0.24972 0.8471 0.0
O496 O 0.26958 0.26377 0.82014 0.0
O497 O 0.27459 0.29876 0.81894 0.0
O498 O 0.29637 0.22335 0.77417 0.0
O499 O 0.28663 0.22069 0.81257 0.0
O500 O 0.30258 0.26266 0.75823 0.0
O501 O 0.29038 0.28482 0.78491 0.0
O502 O 0.3407 0.27111 0.78909 0.0
O503 O 0.33639 0.23586 0.78959 0.0
O504 O 0.31168 0.31229 0.83553 0.0
O505 O 0.32824 0.31073 0.79963 0.0
O506 O 0.30909 0.27037 0.85216 0.0
O507 O 0.32123 0.24904 0.82492 0.0
H508 H 0.25877 0.23121 0.75575 0.0
H509 H 0.27192 0.17989 0.81532 0.0
H510 H 0.24215 0.16597 0.8047 0.0
H511 H 0.22944 0.21687 0.74452 0.0
H512 H 0.34109 0.30826 0.8648 0.0
H513 H 0.35035 0.34428 0.79584 0.0
H514 H 0.37929 0.35638 0.81156 0.0
H515 H 0.36998 0.32039 0.88054 0.0
Gd516 Gd 0.77959 0.28126 0.79152 0.0
Gd517 Gd 0.81647 0.29008 0.82201 0.0
C518 C 0.8108 0.31242 0.76765 0.0
C519 C 0.74186 0.28633 0.7742 0.0
C520 C 0.73013 0.28725 0.75216 0.0
C521 C 0.73396 0.26852 0.73885 0.0
C522 C 0.71316 0.30657 0.74575 0.0
C523 C 0.70333 0.28812 0.7139 0.0
C524 C 0.69997 0.30703 0.72685 0.0
C525 C 0.72075 0.26897 0.71995 0.0
C526 C 0.82006 0.2528 0.78137 0.0
C527 C 0.79318 0.2509 0.84106 0.0
C528 C 0.84804 0.29144 0.84731 0.0
C529 C 0.86587 0.28078 0.8637 0.0
C530 C 0.88514 0.28767 0.8603 0.0
C531 C 0.86326 0.26604 0.88395 0.0
C532 C 0.89854 0.26647 0.89793 0.0
C533 C 0.87948 0.2589 0.90086 0.0
C534 C 0.90122 0.28069 0.87716 0.0
C535 C 0.77656 0.32106 0.82141 0.0
O536 O 0.79188 0.30737 0.76752 0.0
O537 O 0.82442 0.30495 0.78523 0.0
O538 O 0.75449 0.26686 0.78256 0.0
O539 O 0.74965 0.30322 0.77673 0.0
O540 O 0.80256 0.25322 0.77069 0.0
O541 O 0.81473 0.26804 0.79544 0.0
O542 O 0.81049 0.25862 0.84121 0.0
O543 O 0.77734 0.25943 0.82596 0.0
O544 O 0.82756 0.29473 0.85596 0.0
O545 O 0.85112 0.28725 0.82455 0.0
O546 O 0.795 0.32582 0.82212 0.0
O547 O 0.77999 0.30007 0.8225 0.0
H548 H 0.74678 0.25329 0.74343 0.0
H549 H 0.7097 0.32119 0.7558 0.0
H550 H 0.68699 0.3222 0.72253 0.0
H551 H 0.72373 0.25398 0.71063 0.0
H552 H 0.8874 0.29926 0.84498 0.0
H553 H 0.8485 0.26051 0.88703 0.0
H554 H 0.87692 0.24769 0.91638 0.0
H555 H 0.91534 0.28728 0.87433 0.0
Gd556 Gd 0.76404 0.7772 0.79523 0.0
Gd557 Gd 0.80368 0.79255 0.76516 0.0
C558 C 0.79542 0.74578 0.75545 0.0
C559 C 0.72582 0.77104 0.80668 0.0
C560 C 0.71526 0.75294 0.81415 0.0
C561 C 0.72034 0.73866 0.83538 0.0
C562 C 0.69909 0.75051 0.80007 0.0
C563 C 0.69273 0.72017 0.82856 0.0
C564 C 0.68802 0.73426 0.80711 0.0
C565 C 0.70917 0.72244 0.84252 0.0
C566 C 0.80298 0.7598 0.81684 0.0
C567 C 0.77453 0.82229 0.80746 0.0
C568 C 0.8383 0.80451 0.74909 0.0
C569 C 0.85275 0.81805 0.75384 0.0
C570 C 0.84424 0.84071 0.75842 0.0
C571 C 0.87558 0.80885 0.75086 0.0
C572 C 0.88118 0.84537 0.75409 0.0
C573 C 0.88968 0.82233 0.75108 0.0
C574 C 0.85834 0.85425 0.75851 0.0
C575 C 0.76597 0.80039 0.74294 0.0
O576 O 0.77654 0.75098 0.7687 0.0
O577 O 0.80988 0.75763 0.75397 0.0
O578 O 0.73768 0.77586 0.82222 0.0
O579 O 0.73433 0.77176 0.78441 0.0
O580 O 0.78482 0.7553 0.82533 0.0
O581 O 0.7989 0.77194 0.79752 0.0
O582 O 0.79296 0.81735 0.79343 0.0
O583 O 0.75976 0.81087 0.80874 0.0
O584 O 0.81838 0.81549 0.74292 0.0
O585 O 0.83925 0.78589 0.76301 0.0
O586 O 0.78539 0.79574 0.73193 0.0
O587 O 0.76731 0.80228 0.765 0.0
H588 H 0.73273 0.74017 0.84664 0.0
H589 H 0.69489 0.76133 0.78362 0.0
H590 H 0.67576 0.73273 0.79569 0.0
H591 H 0.71307 0.71201 0.85924 0.0
H592 H 0.82666 0.84822 0.76086 0.0
H593 H 0.88248 0.7914 0.74736 0.0
H594 H 0.90721 0.81484 0.74816 0.0
H595 H 0.85122 0.87193 0.76078 0.0
C596 C 0.09027 0.09034 0.34844 0.0
C597 C 0.09307 0.07251 0.36673 0.0
C598 C 0.10359 0.10489 0.34635 0.0
C599 C 0.15703 0.10899 0.36376 0.0
H600 H 0.13185 0.17274 0.34729 0.0
C601 C 0.20481 0.17437 0.36861 0.0
C602 C 0.20235 0.19201 0.35014 0.0
C603 C 0.19184 0.15951 0.37013 0.0
C604 C 0.1392 0.15495 0.35161 0.0
H605 H 0.11224 0.05614 0.39719 0.0
H606 H 0.13511 0.08177 0.39387 0.0
H607 H 0.10832 0.14766 0.35138 0.0
H608 H 0.18437 0.20777 0.31871 0.0
H609 H 0.1619 0.18167 0.32118 0.0
H610 H 0.18788 0.11634 0.36414 0.0
C611 C 0.12277 0.08432 0.38092 0.0
C612 C 0.1257 0.14055 0.35397 0.0
C613 C 0.10944 0.06976 0.38301 0.0
C614 C 0.1868 0.19426 0.33304 0.0
C615 C 0.17375 0.17945 0.33462 0.0
C616 C 0.17052 0.1234 0.36145 0.0
C617 C 0.12007 0.10203 0.36251 0.0
C618 C 0.13444 0.11738 0.36008 0.0
C619 C 0.17603 0.16197 0.35326 0.0
C620 C 0.16176 0.14656 0.35536 0.0
H621 H 0.07769 0.09318 0.33575 0.0
H622 H 0.10117 0.1182 0.33181 0.0
H623 H 0.1644 0.0912 0.36808 0.0
H624 H 0.2168 0.17202 0.38193 0.0
H625 H 0.19391 0.14636 0.38482 0.0
C626 C 0.97135 0.06781 0.29614 0.0
C627 C 0.99236 0.06871 0.30111 0.0
C628 C 0.95412 0.08751 0.29289 0.0
C629 C 0.94084 0.14934 0.28039 0.0
H630 H 0.8862 0.14897 0.31728 0.0
C631 C 0.87362 0.23122 0.29886 0.0
C632 C 0.85143 0.23138 0.30004 0.0
C633 C 0.89038 0.21124 0.29665 0.0
C634 C 0.90116 0.14934 0.3065 0.0
H635 H 1.01193 0.0912 0.3053 0.0
H636 H 0.9819 0.12556 0.29939 0.0
H637 H 0.91635 0.11457 0.31664 0.0
H638 H 0.82932 0.21077 0.29958 0.0
H639 H 0.85857 0.17582 0.29512 0.0
H640 H 0.92571 0.18409 0.27023 0.0
C641 C 0.97876 0.10959 0.29805 0.0
C642 C 0.9185 0.12957 0.30617 0.0
C643 C 0.99599 0.08986 0.30148 0.0
C644 C 0.84629 0.21114 0.29868 0.0
C645 C 0.86309 0.1911 0.29632 0.0
C646 C 0.92344 0.16908 0.28056 0.0
C647 C 0.95748 0.10861 0.29433 0.0
C648 C 0.93864 0.12937 0.29334 0.0
C649 C 0.88539 0.19085 0.2954 0.0
C650 C 0.90343 0.16945 0.29388 0.0
H651 H 0.96793 0.05184 0.29566 0.0
H652 H 0.93802 0.08618 0.28967 0.0
H653 H 0.95604 0.14969 0.27007 0.0
H654 H 0.8781 0.24656 0.29991 0.0
H655 H 0.90727 0.21175 0.29646 0.0
C656 C 0.9727 0.97045 0.38046 0.0
C657 C 0.98797 0.97521 0.36225 0.0
C658 C 0.95939 0.95695 0.37653 0.0
C659 C 0.95432 0.91491 0.33732 0.0
H660 H 0.8919 0.93669 0.35461 0.0
C661 C 0.89036 0.87973 0.30028 0.0
C662 C 0.87198 0.87782 0.31547 0.0
C663 C 0.90512 0.89025 0.30745 0.0
C664 C 0.90932 0.93013 0.34999 0.0
H665 H 1.00111 0.96904 0.32555 0.0
H666 H 0.97827 0.94543 0.319 0.0
H667 H 0.91681 0.95691 0.36513 0.0
H668 H 0.8551 0.88482 0.35044 0.0
H669 H 0.88096 0.90291 0.3631 0.0
H670 H 0.94688 0.88816 0.32213 0.0
C671 C 0.97673 0.952 0.3364 0.0
C672 C 0.92361 0.94175 0.35603 0.0
C673 C 0.98992 0.96559 0.34024 0.0
C674 C 0.8689 0.88636 0.33815 0.0
C675 C 0.88372 0.89676 0.34539 0.0
C676 C 0.94005 0.9032 0.3314 0.0
C677 C 0.96114 0.94773 0.35437 0.0
C678 C 0.94623 0.93443 0.34951 0.0
C679 C 0.90195 0.89899 0.33007 0.0
C680 C 0.91732 0.91081 0.3374 0.0
H681 H 0.97092 0.97723 0.39775 0.0
H682 H 0.9477 0.95373 0.39085 0.0
H683 H 0.97171 0.90866 0.33234 0.0
H684 H 0.89305 0.87355 0.28259 0.0
H685 H 0.91875 0.89198 0.29501 0.0
C686 C 0.11866 0.98231 0.28968 0.0
C687 C 0.10084 0.98143 0.30627 0.0
C688 C 0.13703 0.96354 0.28784 0.0
C689 C 0.16867 0.91621 0.32466 0.0
H690 H 0.19452 0.89029 0.26516 0.0
C691 C 0.25773 0.85893 0.31224 0.0
C692 C 0.25982 0.8379 0.30403 0.0
C693 C 0.23751 0.87543 0.31235 0.0
C694 C 0.18738 0.89735 0.28188 0.0
H695 H 0.08816 0.95988 0.33354 0.0
H696 H 0.12043 0.92746 0.33072 0.0
H697 H 0.16037 0.92133 0.26466 0.0
H698 H 0.24236 0.81767 0.28962 0.0
H699 H 0.20703 0.84696 0.28885 0.0
H700 H 0.19605 0.89288 0.34175 0.0
C701 C 0.12005 0.94261 0.319 0.0
C702 C 0.16798 0.91512 0.28157 0.0
C703 C 0.10155 0.96117 0.3205 0.0
C704 C 0.24125 0.83372 0.2959 0.0
C705 C 0.22109 0.85046 0.29544 0.0
C706 C 0.18829 0.89885 0.32487 0.0
C707 C 0.13809 0.9437 0.30291 0.0
C708 C 0.15843 0.92467 0.30299 0.0
C709 C 0.21906 0.87144 0.30373 0.0
C710 C 0.19782 0.88925 0.3035 0.0
H711 H 0.11863 0.99765 0.27847 0.0
H712 H 0.15078 0.96481 0.27534 0.0
H713 H 0.16172 0.92338 0.34138 0.0
H714 H 0.27176 0.86265 0.31862 0.0
H715 H 0.23637 0.89149 0.31877 0.0
C716 C 0.10513 0.9718 0.76818 0.0
C717 C 0.10501 0.9825 0.74465 0.0
C718 C 0.12219 0.95249 0.77462 0.0
C719 C 0.17889 0.91977 0.7536 0.0
H720 H 0.16413 0.86959 0.79141 0.0
C721 C 0.24484 0.83474 0.77263 0.0
C722 C 0.23821 0.81517 0.77234 0.0
C723 C 0.22924 0.85586 0.77217 0.0
C724 C 0.16855 0.88337 0.78067 0.0
H725 H 0.12306 0.98142 0.70965 0.0
H726 H 0.15206 0.94811 0.72059 0.0
H727 H 0.13594 0.90528 0.78545 0.0
H728 H 0.21011 0.80237 0.77109 0.0
H729 H 0.18309 0.83902 0.76939 0.0
H730 H 0.21113 0.89767 0.74768 0.0
C731 C 0.13939 0.95461 0.73434 0.0
C732 C 0.15241 0.90402 0.77757 0.0
C733 C 0.12251 0.97373 0.72797 0.0
C734 C 0.21573 0.81715 0.77138 0.0
C735 C 0.20018 0.83822 0.7707 0.0
C736 C 0.19496 0.89913 0.75653 0.0
C737 C 0.1395 0.94357 0.75767 0.0
C738 C 0.15723 0.92239 0.76355 0.0
C739 C 0.20665 0.85793 0.77115 0.0
C740 C 0.18995 0.88047 0.76973 0.0
H741 H 0.09191 0.97809 0.78146 0.0
H742 H 0.1218 0.94455 0.79283 0.0
H743 H 0.18341 0.93362 0.74307 0.0
H744 H 0.26206 0.83373 0.77337 0.0
H745 H 0.23492 0.87055 0.77283 0.0
C746 C 0.10794 0.10075 0.69595 0.0
C747 C 0.094 0.09367 0.71417 0.0
C748 C 0.12196 0.113 0.70134 0.0
C749 C 0.14967 0.1218 0.75264 0.0
H750 H 0.16104 0.1721 0.71151 0.0
C751 C 0.22136 0.15667 0.76667 0.0
C752 C 0.21707 0.18013 0.76569 0.0
C753 C 0.20595 0.14708 0.75949 0.0
C754 C 0.15791 0.15816 0.72323 0.0
H755 H 0.08274 0.09525 0.75193 0.0
H756 H 0.10711 0.11642 0.76131 0.0
H757 H 0.13408 0.15424 0.70051 0.0
H758 H 0.19321 0.21191 0.75612 0.0
H759 H 0.16623 0.19505 0.74343 0.0
H760 H 0.17326 0.12568 0.77544 0.0
C761 C 0.10764 0.11207 0.74299 0.0
C762 C 0.14265 0.14782 0.71682 0.0
C763 C 0.09371 0.09989 0.73762 0.0
C764 C 0.19709 0.19379 0.75694 0.0
C765 C 0.18165 0.18415 0.74965 0.0
C766 C 0.16493 0.13201 0.75895 0.0
C767 C 0.12224 0.11838 0.72506 0.0
C768 C 0.13835 0.12956 0.73152 0.0
C769 C 0.18586 0.16069 0.75106 0.0
C770 C 0.16928 0.15026 0.74431 0.0
H771 H 0.10856 0.09616 0.67774 0.0
H772 H 0.13311 0.11754 0.68716 0.0
H773 H 0.14692 0.10759 0.7642 0.0
H774 H 0.2368 0.14565 0.77274 0.0
H775 H 0.20984 0.12895 0.76036 0.0
C776 C 0.99015 0.09426 0.77001 0.0
C777 C 0.9892 0.08349 0.74949 0.0
C778 C 0.97306 0.11326 0.77613 0.0
C779 C 0.92985 0.15855 0.74625 0.0
H780 H 0.90255 0.17006 0.81019 0.0
C781 C 0.84536 0.22148 0.76015 0.0
C782 C 0.84159 0.23578 0.77869 0.0
C783 C 0.86491 0.20426 0.75808 0.0
C784 C 0.91025 0.16723 0.79228 0.0
H785 H 0.96891 0.08314 0.72049 0.0
H786 H 0.93939 0.11558 0.73127 0.0
H787 H 0.93367 0.13654 0.80482 0.0
H788 H 0.85528 0.24323 0.80979 0.0
H789 H 0.88975 0.21286 0.80621 0.0
H790 H 0.90641 0.18879 0.73353 0.0
C791 C 0.95344 0.10997 0.74227 0.0
C792 C 0.92805 0.14803 0.78921 0.0
C793 C 0.97036 0.09123 0.73619 0.0
C794 C 0.85789 0.23257 0.79516 0.0
C795 C 0.87749 0.21509 0.79324 0.0
C796 C 0.91218 0.17759 0.74929 0.0
C797 C 0.95484 0.12171 0.7618 0.0
C798 C 0.93763 0.14316 0.76603 0.0
C799 C 0.88122 0.20074 0.77462 0.0
C800 C 0.90175 0.1819 0.77222 0.0
H801 H 1.00449 0.08871 0.78057 0.0
H802 H 0.97457 0.12188 0.79137 0.0
H803 H 0.93722 0.15566 0.72822 0.0
H804 H 0.83303 0.22343 0.74731 0.0
H805 H 0.86705 0.19335 0.74376 0.0
C806 C 1.0042 0.96486 0.69581 0.0
C807 C 1.00078 0.98322 0.70955 0.0
C808 C 0.99103 0.95017 0.70047 0.0
C809 C 0.93801 0.94502 0.7305 0.0
H810 H 0.96652 0.88111 0.73069 0.0
C811 C 0.89259 0.87835 0.76495 0.0
C812 C 0.89587 0.86036 0.75067 0.0
C813 C 0.9056 0.89321 0.7605 0.0
C814 C 0.95828 0.89891 0.73052 0.0
H815 H 0.98022 1.00104 0.73828 0.0
H816 H 0.95761 0.97525 0.7467 0.0
H817 H 0.9883 0.90767 0.72085 0.0
H818 H 0.91535 0.84406 0.72037 0.0
H819 H 0.93809 0.86976 0.71284 0.0
H820 H 0.908 0.9362 0.74026 0.0
C821 C 0.97038 0.97222 0.73225 0.0
C822 C 0.97075 0.91414 0.7248 0.0
C823 C 0.98353 0.98688 0.7276 0.0
C824 C 0.91266 0.85742 0.73208 0.0
C825 C 0.92568 0.87221 0.72769 0.0
C826 C 0.92555 0.92977 0.73627 0.0
C827 C 0.97412 0.95354 0.71893 0.0
C828 C 0.96076 0.93738 0.72467 0.0
C829 C 0.92219 0.89038 0.7417 0.0
C830 C 0.93554 0.90655 0.73629 0.0
H831 H 1.0174 0.96145 0.68189 0.0
H832 H 0.99415 0.93611 0.68964 0.0
H833 H 0.92975 0.96281 0.73026 0.0
H834 H 0.87997 0.88095 0.77957 0.0
H835 H 0.90272 0.90688 0.77182 0.0
C836 C 0.35027 0.10002 0.1376 0.0
C837 C 0.34871 0.07881 0.14738 0.0
C838 C 0.34985 0.11654 0.15269 0.0
C839 C 0.35221 0.12603 0.21743 0.0
H840 H 0.32232 0.18732 0.19474 0.0
C841 C 0.31554 0.20047 0.27719 0.0
C842 C 0.32142 0.2203 0.26934 0.0
C843 C 0.3218 0.18219 0.26317 0.0
C844 C 0.33087 0.17029 0.20121 0.0
H845 H 0.34557 0.05805 0.18042 0.0
H846 H 0.34374 0.08709 0.2069 0.0
H847 H 0.32736 0.15752 0.16847 0.0
H848 H 0.33889 0.23632 0.24092 0.0
H849 H 0.34924 0.20459 0.21619 0.0
H850 H 0.35445 0.13908 0.25078 0.0
C851 C 0.34613 0.09091 0.18764 0.0
C852 C 0.33394 0.15316 0.1861 0.0
C853 C 0.34708 0.07423 0.17251 0.0
C854 C 0.33417 0.22126 0.24752 0.0
C855 C 0.34002 0.20317 0.23331 0.0
C856 C 0.34869 0.14317 0.23273 0.0
C857 C 0.34725 0.11242 0.17794 0.0
C858 C 0.34468 0.13075 0.19395 0.0
C859 C 0.33365 0.18362 0.24086 0.0
C860 C 0.33802 0.16543 0.2247 0.0
H861 H 0.35177 0.10378 0.11824 0.0
H862 H 0.35139 0.13261 0.14445 0.0
H863 H 0.36089 0.10912 0.22405 0.0
H864 H 0.30575 0.19924 0.29394 0.0
H865 H 0.31661 0.1673 0.26927 0.0
C866 C 0.9781 0.34256 0.13962 0.0
C867 C 0.9915 0.32634 0.12501 0.0
C868 C 0.95832 0.33991 0.15096 0.0
C869 C 0.93145 0.29532 0.17182 0.0
H870 H 0.87958 0.34517 0.18184 0.0
C871 C 0.85149 0.28112 0.21903 0.0
C872 C 0.84074 0.29571 0.23658 0.0
C873 C 0.86839 0.28585 0.2034 0.0
C874 C 0.89399 0.33109 0.17933 0.0
H875 H 0.99386 0.29487 0.11031 0.0
H876 H 0.95928 0.29065 0.12944 0.0
H877 H 0.91163 0.35175 0.15785 0.0
H878 H 0.83898 0.32714 0.25087 0.0
H879 H 0.86854 0.3353 0.22371 0.0
H880 H 0.914 0.27469 0.19345 0.0
C881 C 0.96429 0.30524 0.13253 0.0
C882 C 0.91237 0.33487 0.16558 0.0
C883 C 0.98407 0.30785 0.12125 0.0
C884 C 0.84686 0.31552 0.23757 0.0
C885 C 0.86377 0.32027 0.22191 0.0
C886 C 0.9131 0.29155 0.1855 0.0
C887 C 0.95137 0.32097 0.14795 0.0
C888 C 0.93138 0.31703 0.16173 0.0
C889 C 0.875 0.3053 0.20489 0.0
C890 C 0.89416 0.30938 0.18953 0.0
H891 H 0.98309 0.35716 0.14269 0.0
H892 H 0.94887 0.35233 0.16277 0.0
H893 H 0.94592 0.28124 0.16969 0.0
H894 H 0.84718 0.26575 0.21763 0.0
H895 H 0.87642 0.27414 0.19025 0.0
C896 C 0.81488 0.90239 0.07162 0.0
C897 C 0.81207 0.92546 0.07238 0.0
C898 C 0.8087 0.8896 0.0917 0.0
C899 C 0.79955 0.8861 0.15718 0.0
H900 H 0.76516 0.84624 0.1464 0.0
C901 C 0.77582 0.82493 0.23403 0.0
C902 C 0.77977 0.80294 0.2276 0.0
C903 C 0.77619 0.84256 0.21621 0.0
C904 C 0.77483 0.8572 0.14973 0.0
H905 H 0.80125 0.95309 0.09498 0.0
H906 H 0.79072 0.93054 0.1304 0.0
H907 H 0.77408 0.87149 0.11307 0.0
H908 H 0.7861 0.78229 0.19759 0.0
H909 H 0.78685 0.81267 0.16682 0.0
H910 H 0.80111 0.87111 0.19363 0.0
C911 C 0.79754 0.92248 0.11413 0.0
C912 C 0.77992 0.87166 0.13064 0.0
C913 C 0.80345 0.93537 0.09388 0.0
C914 C 0.78301 0.79907 0.20312 0.0
C915 C 0.78331 0.81657 0.18542 0.0
C916 C 0.79464 0.87142 0.1763 0.0
C917 C 0.79981 0.89955 0.11309 0.0
C918 C 0.79275 0.88588 0.13402 0.0
C919 C 0.78026 0.83848 0.1917 0.0
C920 C 0.78269 0.8564 0.17262 0.0
H921 H 0.82126 0.89434 0.05526 0.0
H922 H 0.81086 0.87189 0.09051 0.0
H923 H 0.80949 0.89689 0.16024 0.0
H924 H 0.77307 0.82836 0.2528 0.0
H925 H 0.77355 0.85931 0.22162 0.0
C926 C 0.0961 0.69294 0.08591 0.0
C927 C 0.09531 0.70151 0.06155 0.0
C928 C 0.11149 0.69636 0.10041 0.0
C929 C 0.14593 0.73486 0.10302 0.0
H930 H 0.17316 0.69166 0.15446 0.0
C931 C 0.21231 0.75037 0.15625 0.0
C932 C 0.21014 0.74666 0.18153 0.0
C933 C 0.19975 0.74275 0.14171 0.0
C934 C 0.16556 0.70394 0.14026 0.0
H935 H 0.11091 0.71912 0.03295 0.0
H936 H 0.13801 0.72466 0.05792 0.0
H937 H 0.14889 0.68194 0.12859 0.0
H938 H 0.19358 0.73119 0.21125 0.0
H939 H 0.17166 0.71774 0.18576 0.0
H940 H 0.16252 0.75684 0.11459 0.0
C941 C 0.12634 0.71591 0.06614 0.0
C942 C 0.15162 0.69839 0.12543 0.0
C943 C 0.11088 0.71266 0.05175 0.0
C944 C 0.19577 0.73422 0.19185 0.0
C945 C 0.18318 0.72653 0.17724 0.0
C946 C 0.1599 0.74033 0.11769 0.0
C947 C 0.12653 0.7083 0.09082 0.0
C948 C 0.14166 0.71379 0.10656 0.0
C949 C 0.18469 0.73115 0.15201 0.0
C950 C 0.16994 0.72495 0.13646 0.0
H951 H 0.08419 0.68447 0.09405 0.0
H952 H 0.11099 0.69041 0.11935 0.0
H953 H 0.13815 0.74741 0.08913 0.0
H954 H 0.22359 0.75943 0.14765 0.0
H955 H 0.20167 0.74616 0.12232 0.0
C956 C 0.29199 0.97528 0.04016 0.0
C957 C 0.31359 0.96863 0.04782 0.0
C958 C 0.2836 0.96028 0.02999 0.0
C959 C 0.29414 0.90008 0.01943 0.0
H960 H 0.26553 0.92537 0.96026 0.0
C961 C 0.29644 0.85016 0.93874 0.0
C962 C 0.27862 0.85642 0.92388 0.0
C963 C 0.29602 0.86166 0.95885 0.0
C964 C 0.273 0.91806 0.97702 0.0
H965 H 0.34265 0.94024 0.05207 0.0
H966 H 0.32838 0.9145 0.03343 0.0
H967 H 0.27376 0.95002 0.98633 0.0
H968 H 0.24578 0.87857 0.91933 0.0
H969 H 0.24498 0.89863 0.95466 0.0
H970 H 0.2943 0.86793 0.00927 0.0
C971 C 0.31782 0.93128 0.03559 0.0
C972 C 0.27775 0.93223 0.99201 0.0
C973 C 0.32617 0.94623 0.04596 0.0
C974 C 0.25974 0.87337 0.93048 0.0
C975 C 0.25935 0.88495 0.95058 0.0
C976 C 0.28945 0.88587 1.00433 0.0
C977 C 0.2966 0.93828 0.02701 0.0
C978 C 0.28889 0.92338 0.01308 0.0
C979 C 0.2778 0.87971 0.96448 0.0
C980 C 0.27935 0.89468 0.98265 0.0
H981 H 0.28162 0.99225 0.04123 0.0
H982 H 0.26704 0.96611 0.02396 0.0
H983 H 0.30237 0.89278 0.03576 0.0
H984 H 0.31108 0.83695 0.93423 0.0
H985 H 0.31056 0.8573 0.96908 0.0
C986 C 0.11781 0.30678 0.98721 0.0
C987 C 0.11502 0.32514 1.00088 0.0
C988 C 0.13164 0.30443 0.96613 0.0
C989 C 0.17853 0.32302 0.93554 0.0
H990 H 0.16539 0.29692 0.88093 0.0
C991 C 0.23559 0.31388 0.84891 0.0
C992 C 0.24159 0.29256 0.84014 0.0
C993 C 0.21811 0.31974 0.86626 0.0
C994 C 0.16932 0.30416 0.89608 0.0
H995 H 0.12456 0.35566 1.00244 0.0
H996 H 0.14803 0.35192 0.96544 0.0
H997 H 0.13882 0.30376 0.91563 0.0
H998 H 0.23305 0.26114 0.8418 0.0
H999 H 0.2025 0.27144 0.87197 0.0
H1000 H 0.20903 0.32335 0.91605 0.0
C1001 C 0.13984 0.33906 0.97131 0.0
C1002 C 0.15412 0.30803 0.91602 0.0
C1003 C 0.1261 0.34135 0.99248 0.0
C1004 C 0.22889 0.27771 0.84814 0.0
C1005 C 0.21133 0.28363 0.86542 0.0
C1006 C 0.19363 0.3193 0.91556 0.0
C1007 C 0.143 0.32044 0.95797 0.0
C1008 C 0.15861 0.31732 0.93614 0.0
C1009 C 0.20612 0.30448 0.87517 0.0
C1010 C 0.1893 0.30965 0.89567 0.0
H1011 H 0.10937 0.2941 0.99276 0.0
H1012 H 0.13379 0.28974 0.95653 0.0
H1013 H 0.18281 0.32979 0.95082 0.0
H1014 H 0.24493 0.32578 0.84313 0.0
H1015 H 0.21429 0.33607 0.87311 0.0
C1016 C 0.82528 0.05591 0.92195 0.0
C1017 C 0.83008 0.05086 0.94631 0.0
C1018 C 0.82115 0.07798 0.91141 0.0
C1019 C 0.83099 0.13185 0.91428 0.0
H1020 H 0.77422 0.15767 0.88722 0.0
C1021 C 0.80461 0.22476 0.87771 0.0
C1022 C 0.79307 0.23021 0.85663 0.0
C1023 C 0.8076 0.20362 0.89041 0.0
C1024 C 0.79027 0.15071 0.89434 0.0
H1025 H 0.83523 0.06448 0.97848 0.0
H1026 H 0.82883 0.10313 0.95972 0.0
H1027 H 0.78431 0.11867 0.90436 0.0
H1028 H 0.77511 0.21807 0.83259 0.0
H1029 H 0.78101 0.18096 0.85405 0.0
H1030 H 0.83758 0.1633 0.90344 0.0
C1031 C 0.82798 0.09004 0.94896 0.0
C1032 C 0.79598 0.12839 0.90424 0.0
C1033 C 0.83164 0.06805 0.95964 0.0
C1034 C 0.78384 0.21444 0.84898 0.0
C1035 C 0.78723 0.19311 0.86137 0.0
C1036 C 0.82551 0.15403 0.90393 0.0
C1037 C 0.82221 0.09525 0.92492 0.0
C1038 C 0.81637 0.1188 0.91427 0.0
C1039 C 0.79958 0.18723 0.88198 0.0
C1040 C 0.80505 0.16381 0.89381 0.0
H1041 H 0.82367 0.043 0.91142 0.0
H1042 H 0.81682 0.08164 0.8928 0.0
H1043 H 0.84687 0.12473 0.92183 0.0
H1044 H 0.81179 0.23668 0.8841 0.0
H1045 H 0.81663 0.20003 0.90657 0.0
C1046 C 0.9602 0.7037 0.94566 0.0
C1047 C 0.97198 0.71958 0.94603 0.0
C1048 C 0.94222 0.70818 0.93135 0.0
C1049 C 0.91808 0.74145 0.87709 0.0
H1050 H 0.86378 0.73028 0.90522 0.0
C1051 C 0.8384 0.76715 0.82474 0.0
C1052 C 0.82357 0.75408 0.82954 0.0
C1053 C 0.85685 0.76288 0.83836 0.0
C1054 C 0.87888 0.73313 0.89682 0.0
H1055 H 0.97425 0.75251 0.93133 0.0
H1056 H 0.94299 0.76023 0.90596 0.0
H1057 H 0.89509 0.72292 0.9299 0.0
H1058 H 0.81664 0.72601 0.8519 0.0
H1059 H 0.84921 0.71779 0.87489 0.0
H1060 H 0.90223 0.75106 0.84383 0.0
C1061 C 0.94764 0.74435 0.91692 0.0
C1062 C 0.89683 0.72903 0.91111 0.0
C1063 C 0.96542 0.74002 0.93158 0.0
C1064 C 0.8278 0.73637 0.84784 0.0
C1065 C 0.8464 0.73184 0.8612 0.0
C1066 C 0.90022 0.74524 0.86265 0.0
C1067 C 0.93576 0.72852 0.91672 0.0
C1068 C 0.91664 0.73314 0.90144 0.0
C1069 C 0.86107 0.74525 0.85698 0.0
C1070 C 0.88031 0.74113 0.87228 0.0
H1071 H 0.96472 0.68789 0.95672 0.0
H1072 H 0.9335 0.69558 0.93149 0.0
H1073 H 0.9332 0.74458 0.86905 0.0
H1074 H 0.83528 0.78123 0.81109 0.0
H1075 H 0.86741 0.77388 0.83472 0.0
C1076 C 0.12019 0.28575 0.14504 0.0
C1077 C 0.12889 0.28046 0.12166 0.0
C1078 C 0.1341 0.28575 0.16315 0.0
C1079 C 0.19221 0.26526 0.18021 0.0
H1080 H 0.17587 0.31606 0.21885 0.0
C1081 C 0.24503 0.27184 0.25699 0.0
C1082 C 0.24903 0.29276 0.25776 0.0
C1083 C 0.2293 0.26955 0.24217 0.0
C1084 C 0.18072 0.30177 0.20821 0.0
H1085 H 0.1592 0.27026 0.09938 0.0
H1086 H 0.18334 0.27004 0.1309 0.0
H1087 H 0.15089 0.31279 0.18967 0.0
H1088 H 0.23915 0.32783 0.24415 0.0
H1089 H 0.21163 0.32393 0.21842 0.0
H1090 H 0.22221 0.25446 0.19841 0.0
C1091 C 0.16577 0.27419 0.13529 0.0
C1092 C 0.16627 0.29977 0.19162 0.0
C1093 C 0.15188 0.27439 0.11715 0.0
C1094 C 0.23645 0.31149 0.24397 0.0
C1095 C 0.2206 0.30925 0.22928 0.0
C1096 C 0.20657 0.26716 0.19694 0.0
C1097 C 0.15708 0.28024 0.15844 0.0
C1098 C 0.17191 0.28161 0.17719 0.0
C1099 C 0.21703 0.28818 0.22789 0.0
C1100 C 0.20114 0.28557 0.211 0.0
H1101 H 0.10258 0.29058 0.14919 0.0
H1102 H 0.12682 0.29023 0.18084 0.0
H1103 H 0.19705 0.25096 0.16957 0.0
H1104 H 0.25443 0.25707 0.26742 0.0
H1105 H 0.22681 0.25314 0.24183 0.0
C1106 C 0.08002 0.75465 0.94759 0.0
C1107 C 0.07447 0.76646 0.96836 0.0
C1108 C 0.09896 0.75516 0.93285 0.0
C1109 C 0.14068 0.78638 0.91687 0.0
H1110 H 0.177 0.72939 0.89627 0.0
C1111 C 0.22669 0.77791 0.86714 0.0
C1112 C 0.23324 0.76329 0.8487 0.0
C1113 C 0.20767 0.7783 0.88218 0.0
C1114 C 0.16698 0.74554 0.90151 0.0
H1115 H 0.08435 0.78878 0.98925 0.0
H1116 H 0.11726 0.78988 0.96333 0.0
H1117 H 0.14287 0.73096 0.92054 0.0
H1118 H 0.22472 0.73755 0.83182 0.0
H1119 H 0.19152 0.73849 0.85758 0.0
H1120 H 0.16457 0.80107 0.89754 0.0
C1121 C 0.1069 0.78017 0.9585 0.0
C1122 C 0.14734 0.74643 0.91553 0.0
C1123 C 0.088 0.77953 0.9734 0.0
C1124 C 0.22037 0.74889 0.84593 0.0
C1125 C 0.20128 0.74938 0.86086 0.0
C1126 C 0.16025 0.78554 0.90266 0.0
C1127 C 0.11289 0.76761 0.9383 0.0
C1128 C 0.13387 0.76685 0.92337 0.0
C1129 C 0.19451 0.7642 0.87914 0.0
C1130 C 0.17372 0.7651 0.89469 0.0
H1131 H 0.07007 0.7444 0.94303 0.0
H1132 H 0.10282 0.74559 0.91723 0.0
H1133 H 0.13063 0.80244 0.92238 0.0
H1134 H 0.23616 0.78924 0.8699 0.0
H1135 H 0.20335 0.78965 0.89627 0.0
C1136 C 0.31452 0.10613 0.01851 0.0
C1137 C 0.32271 0.08361 0.01318 0.0
C1138 C 0.31377 0.12381 1.00035 0.0
C1139 C 0.33719 0.13679 0.93827 0.0
H1140 H 0.28787 0.19039 0.93859 0.0
C1141 C 0.32455 0.2079 0.85903 0.0
C1142 C 0.31689 0.23013 0.86532 0.0
C1143 C 0.32527 0.18973 0.87661 0.0
C1144 C 0.30191 0.17566 0.9383 0.0
H1145 H 0.33644 0.06223 0.98429 0.0
H1146 H 0.33489 0.09282 0.95282 0.0
H1147 H 0.28917 0.15979 0.97008 0.0
H1148 H 0.30401 0.25066 0.89503 0.0
H1149 H 0.30545 0.21928 0.9255 0.0
H1150 H 0.3499 0.15271 0.90644 0.0
C1151 C 0.32934 0.09694 0.97108 0.0
C1152 C 0.30267 0.15805 0.95647 0.0
C1153 C 0.3301 0.07931 0.98919 0.0
C1154 C 0.30999 0.23376 0.88953 0.0
C1155 C 0.31066 0.2157 0.90703 0.0
C1156 C 0.33641 0.15441 0.92007 0.0
C1157 C 0.32118 0.11949 0.97632 0.0
C1158 C 0.32036 0.13834 0.95682 0.0
C1159 C 0.31825 0.19338 0.9009 0.0
C1160 C 0.31882 0.17418 0.91986 0.0
H1161 H 0.30875 0.11014 0.03675 0.0
H1162 H 0.30763 0.14089 1.00526 0.0
H1163 H 0.35126 0.12209 0.93801 0.0
H1164 H 0.32988 0.20455 0.84051 0.0
H1165 H 0.33102 0.17284 0.8711 0.0
C1166 C 1.01757 0.25436 0.06452 0.0
C1167 C 0.03729 0.25941 0.05601 0.0
C1168 C 1.00328 0.25131 0.04839 0.0
C1169 C 0.99903 0.24016 0.98543 0.0
H1170 H 0.93809 0.27451 0.99535 0.0
C1171 C 0.93751 0.25803 0.91046 0.0
C1172 C 0.915 0.26077 0.91686 0.0
C1173 C 0.95261 0.25501 0.92813 0.0
C1174 C 0.95491 0.26441 0.99245 0.0
H1175 H 0.05788 0.26408 0.02382 0.0
H1176 H 0.03313 0.25839 0.99576 0.0
H1177 H 0.96421 0.27359 0.02488 0.0
H1178 H 0.8911 0.26161 0.94733 0.0
H1179 H 0.91747 0.25535 0.97802 0.0
H1180 H 0.9898 0.23087 0.95307 0.0
C1181 C 0.02869 0.25687 0.01492 0.0
C1182 C 0.96995 0.26395 0.00943 0.0
C1183 C 0.04286 0.26017 0.03103 0.0
C1184 C 0.90825 0.25942 0.94156 0.0
C1185 C 0.92341 0.25619 0.95925 0.0
C1186 C 0.98394 0.24041 0.96855 0.0
C1187 C 1.00844 0.25297 0.02335 0.0
C1188 C 0.99226 0.25205 1.00602 0.0
C1189 C 0.94577 0.25437 0.95282 0.0
C1190 C 0.96167 0.25279 0.97162 0.0
H1191 H 1.01265 0.25375 0.0836 0.0
H1192 H 0.98795 0.24807 0.0555 0.0
H1193 H 1.01604 0.23061 0.98238 0.0
H1194 H 0.94351 0.25853 0.8917 0.0
H1195 H 0.96957 0.25389 0.92228 0.0
C1196 C 0.75469 0.94311 0.97031 0.0
C1197 C 0.7649 0.96053 0.96611 0.0
C1198 C 0.75269 0.93104 0.95137 0.0
C1199 C 0.7814 0.91291 0.8946 0.0
H1200 H 0.72947 0.89544 0.884 0.0
C1201 C 0.78254 0.85692 0.81869 0.0
C1202 C 0.77072 0.84086 0.82322 0.0
C1203 C 0.77992 0.87357 0.83445 0.0
C1204 C 0.74424 0.89988 0.88686 0.0
H1205 H 0.78014 0.97953 0.93841 0.0
H1206 H 0.77687 0.95829 0.90554 0.0
H1207 H 0.72776 0.92084 0.91477 0.0
H1208 H 0.74676 0.8298 0.8479 0.0
H1209 H 0.7428 0.85811 0.87575 0.0
H1210 H 0.79829 0.89131 0.86771 0.0
C1211 C 0.77042 0.95399 0.9235 0.0
C1212 C 0.74317 0.91457 0.90443 0.0
C1213 C 0.77213 0.96627 0.94233 0.0
C1214 C 0.75599 0.84203 0.84371 0.0
C1215 C 0.75363 0.85843 0.85968 0.0
C1216 C 0.78259 0.89796 0.87733 0.0
C1217 C 0.76114 0.93592 0.9279 0.0
C1218 C 0.76175 0.9212 0.90852 0.0
C1219 C 0.76569 0.87436 0.85543 0.0
C1220 C 0.76406 0.89111 0.87322 0.0
H1221 H 0.74896 0.93824 0.98839 0.0
H1222 H 0.74552 0.91715 0.95533 0.0
H1223 H 0.79611 0.91742 0.8976 0.0
H1224 H 0.79391 0.85662 0.80297 0.0
H1225 H 0.78914 0.88577 0.83015 0.0
C1226 C 0.97521 0.76483 0.06949 0.0
C1227 C 0.97991 0.74359 0.06067 0.0
C1228 C 0.96121 0.76978 0.09046 0.0
C1229 C 0.9412 0.7411 0.14566 0.0
H1230 H 0.89109 0.7938 0.14855 0.0
C1231 C 0.87056 0.74525 0.21915 0.0
C1232 C 0.8596 0.76589 0.22832 0.0
C1233 C 0.88627 0.74409 0.19966 0.0
C1234 C 0.90521 0.77914 0.14826 0.0
H1235 H 0.97302 0.71116 0.06695 0.0
H1236 H 0.94927 0.71968 0.10292 0.0
H1237 H 0.91681 0.78984 0.11281 0.0
H1238 H 0.85693 0.80155 0.22416 0.0
H1239 H 0.88457 0.79946 0.19056 0.0
H1240 H 0.92985 0.73024 0.18086 0.0
C1241 C 0.95641 0.73249 0.09395 0.0
C1242 C 0.91994 0.77691 0.12772 0.0
C1243 C 0.97003 0.72768 0.0731 0.0
C1244 C 0.865 0.78532 0.21762 0.0
C1245 C 0.88078 0.78416 0.19816 0.0
C1246 C 0.92663 0.74339 0.16617 0.0
C1247 C 0.95197 0.75344 0.10313 0.0
C1248 C 0.93783 0.75759 0.12596 0.0
C1249 C 0.8916 0.76353 0.18879 0.0
C1250 C 0.90811 0.76217 0.16761 0.0
H1251 H 0.98249 0.77748 0.06038 0.0
H1252 H 0.95803 0.78613 0.09708 0.0
H1253 H 0.95502 0.72618 0.14507 0.0
H1254 H 0.86673 0.72995 0.22673 0.0
H1255 H 0.89387 0.72793 0.19278 0.0
C1256 C 0.27885 0.99635 0.11346 0.0
C1257 C 0.28818 0.01328 0.11782 0.0
C1258 C 0.28552 0.97486 0.12556 0.0
C1259 C 0.31009 0.94608 0.18253 0.0
H1260 H 0.30737 0.8929 0.15462 0.0
C1261 C 0.32613 0.85781 0.23703 0.0
C1262 C 0.31094 0.84581 0.23441 0.0
C1263 C 0.32626 0.87739 0.22189 0.0
C1264 C 0.30812 0.90759 0.16276 0.0
H1265 H 0.31136 0.0211 0.13884 0.0
H1266 H 0.32389 0.98326 0.15939 0.0
H1267 H 0.30371 0.92795 0.12911 0.0
H1268 H 0.28417 0.84502 0.21339 0.0
H1269 H 0.28456 0.87875 0.18712 0.0
H1270 H 0.31443 0.92558 0.21622 0.0
C1271 C 0.31142 0.98652 0.14646 0.0
C1272 C 0.30598 0.92778 0.1481 0.0
C1273 C 0.30471 0.00809 0.13424 0.0
C1274 C 0.29614 0.85374 0.21603 0.0
C1275 C 0.29644 0.87308 0.20079 0.0
C1276 C 0.31241 0.9258 0.19716 0.0
C1277 C 0.30153 0.96969 0.14274 0.0
C1278 C 0.30645 0.94751 0.15782 0.0
C1279 C 0.31141 0.88528 0.20353 0.0
C1280 C 0.311 0.90638 0.18759 0.0
H1281 H 0.26569 1.00004 0.10131 0.0
H1282 H 0.27716 0.96269 0.12236 0.0
H1283 H 0.31026 0.96085 0.19089 0.0
H1284 H 0.33774 0.85228 0.25099 0.0
H1285 H 0.33811 0.88627 0.22446 0.0
C1286 C 0.77448 0.05506 0.05452 0.0
C1287 C 0.79506 0.03882 0.05387 0.0
C1288 C 0.77091 0.07375 0.06783 0.0
C1289 C 0.80176 0.10759 0.09184 0.0
H1290 H 0.75124 0.12643 0.13678 0.0
C1291 C 0.80175 0.16346 0.16675 0.0
C1292 C 0.78224 0.17963 0.17338 0.0
C1293 C 0.8018 0.14827 0.15018 0.0
C1294 C 0.76528 0.12165 0.12401 0.0
H1295 H 0.82776 0.02924 0.06734 0.0
H1296 H 0.82154 0.06147 0.09017 0.0
H1297 H 0.75347 0.09613 0.11155 0.0
H1298 H 0.74752 0.1928 0.16716 0.0
H1299 H 0.74764 0.16627 0.13812 0.0
H1300 H 0.81374 0.13279 0.10425 0.0
C1301 C 0.80824 0.06004 0.08023 0.0
C1302 C 0.76654 0.10427 0.10958 0.0
C1303 C 0.81173 0.04144 0.0672 0.0
C1304 C 0.76281 0.18041 0.16267 0.0
C1305 C 0.76286 0.16518 0.14605 0.0
C1306 C 0.80046 0.12496 0.10611 0.0
C1307 C 0.78794 0.0766 0.08046 0.0
C1308 C 0.78507 0.09669 0.09378 0.0
C1309 C 0.78234 0.1488 0.13971 0.0
C1310 C 0.78247 0.13187 0.12281 0.0
H1311 H 0.7613 0.05354 0.04445 0.0
H1312 H 0.75506 0.08625 0.06772 0.0
H1313 H 0.81604 0.10244 0.07946 0.0
H1314 H 0.81692 0.16201 0.17497 0.0
H1315 H 0.81703 0.13563 0.14613 0.0
C1316 C 0.60778 0.56715 0.88971 0.0
C1317 C 0.586 0.57156 0.88325 0.0
C1318 C 0.61889 0.58368 0.88524 0.0
C1319 C 0.61767 0.63609 0.84657 0.0
H1320 H 0.65847 0.64247 0.89091 0.0
C1321 C 0.6576 0.7089 0.83328 0.0
C1322 C 0.68029 0.70345 0.83638 0.0
C1323 C 0.64592 0.69311 0.83998 0.0
C1324 C 0.64726 0.64075 0.87828 0.0
H1325 H 0.55852 0.59707 0.86797 0.0
H1326 H 0.57775 0.62604 0.86046 0.0
H1327 H 0.63801 0.6147 0.90128 0.0
H1328 H 0.70842 0.67704 0.84916 0.0
H1329 H 0.68793 0.6495 0.8611 0.0
H1330 H 0.62684 0.66219 0.82363 0.0
C1331 C 0.58645 0.60963 0.86845 0.0
C1332 C 0.63554 0.62483 0.88419 0.0
C1333 C 0.5754 0.59306 0.8728 0.0
C1334 C 0.69093 0.6819 0.84677 0.0
C1335 C 0.6792 0.66611 0.85359 0.0
C1336 C 0.62928 0.65206 0.84073 0.0
C1337 C 0.60844 0.60506 0.87432 0.0
C1338 C 0.62062 0.62229 0.86839 0.0
C1339 C 0.6566 0.6715 0.85008 0.0
C1340 C 0.64422 0.65456 0.85649 0.0
H1341 H 0.61652 0.55068 0.89749 0.0
H1342 H 0.6359 0.57946 0.8897 0.0
H1343 H 0.60666 0.6343 0.83373 0.0
H1344 H 0.64877 0.72548 0.82583 0.0
H1345 H 0.62845 0.69789 0.83743 0.0
C1346 C 0.48287 0.58556 0.83391 0.0
C1347 C 0.47951 0.56421 0.83431 0.0
C1348 C 0.46526 0.60506 0.83126 0.0
C1349 C 0.40751 0.62709 0.81277 0.0
H1350 H 0.40529 0.67395 0.85369 0.0
C1351 C 0.33152 0.70584 0.82151 0.0
C1352 C 0.33632 0.72638 0.82215 0.0
C1353 C 0.34842 0.68552 0.82283 0.0
C1354 C 0.40571 0.66116 0.84193 0.0
H1355 H 0.45496 0.5468 0.83133 0.0
H1356 H 0.42435 0.5807 0.8268 0.0
H1357 H 0.43609 0.64015 0.85499 0.0
H1358 H 0.36257 0.74171 0.82448 0.0
H1359 H 0.39171 0.70669 0.82664 0.0
H1360 H 0.37702 0.64825 0.79973 0.0
C1361 C 0.44062 0.58243 0.8284 0.0
C1362 C 0.42346 0.64174 0.84264 0.0
C1363 C 0.45822 0.56293 0.83109 0.0
C1364 C 0.35824 0.72618 0.82416 0.0
C1365 C 0.37501 0.70602 0.82552 0.0
C1366 C 0.3897 0.64659 0.81205 0.0
C1367 C 0.4438 0.60376 0.82891 0.0
C1368 C 0.42474 0.62448 0.82795 0.0
C1369 C 0.3704 0.68537 0.82494 0.0
C1370 C 0.38866 0.66398 0.82648 0.0
H1371 H 0.49902 0.58724 0.83629 0.0
H1372 H 0.46844 0.6212 0.83129 0.0
H1373 H 0.40798 0.61424 0.80106 0.0
H1374 H 0.31479 0.70549 0.81996 0.0
H1375 H 0.34423 0.66993 0.8225 0.0
C1376 C 0.50333 0.44321 0.88104 0.0
C1377 C 0.49625 0.45946 0.89776 0.0
C1378 C 0.49209 0.42719 0.87987 0.0
C1379 C 0.43717 0.41882 0.89483 0.0
H1380 H 0.46596 0.35928 0.87494 0.0
C1381 C 0.38787 0.35782 0.87973 0.0
C1382 C 0.39285 0.34857 0.8574 0.0
C1383 C 0.4018 0.3686 0.88817 0.0
C1384 C 0.45772 0.37586 0.88051 0.0
H1385 H 0.4723 0.47072 0.92724 0.0
H1386 H 0.45318 0.44235 0.92574 0.0
H1387 H 0.48815 0.38303 0.88421 0.0
H1388 H 0.41684 0.34234 0.827 0.0
H1389 H 0.44121 0.36122 0.84173 0.0
H1390 H 0.40677 0.41172 0.8909 0.0
C1391 C 0.46713 0.44238 0.91308 0.0
C1392 C 0.47041 0.3895 0.88576 0.0
C1393 C 0.47829 0.45853 0.91413 0.0
C1394 C 0.4125 0.3495 0.84417 0.0
C1395 C 0.42654 0.36011 0.8527 0.0
C1396 C 0.42452 0.40512 0.88979 0.0
C1397 C 0.47359 0.42683 0.89557 0.0
C1398 C 0.46028 0.41133 0.89253 0.0
C1399 C 0.42109 0.37018 0.87455 0.0
C1400 C 0.43466 0.38366 0.88216 0.0
H1401 H 0.51736 0.44305 0.86848 0.0
H1402 H 0.49747 0.41563 0.86602 0.0
H1403 H 0.42877 0.43564 0.89957 0.0
H1404 H 0.37275 0.35753 0.89024 0.0
H1405 H 0.39729 0.37606 0.90516 0.0
C1406 C 0.59364 0.45989 0.82864 0.0
C1407 C 0.59499 0.48213 0.82401 0.0
C1408 C 0.61242 0.44167 0.82575 0.0
C1409 C 0.67256 0.42839 0.82734 0.0
H1410 H 0.67426 0.37289 0.80125 0.0
C1411 C 0.75446 0.36085 0.81369 0.0
C1412 C 0.75502 0.3382 0.81915 0.0
C1413 C 0.73444 0.37758 0.81265 0.0
C1414 C 0.67401 0.38818 0.80885 0.0
H1415 H 0.61697 0.50249 0.81129 0.0
H1416 H 0.64946 0.47088 0.80613 0.0
H1417 H 0.64008 0.4036 0.80168 0.0
H1418 H 0.73501 0.31518 0.82725 0.0
H1419 H 0.69978 0.34455 0.82593 0.0
H1420 H 0.70611 0.41313 0.83504 0.0
C1421 C 0.63401 0.46749 0.81241 0.0
C1422 C 0.65442 0.40581 0.80902 0.0
C1423 C 0.61529 0.48564 0.81521 0.0
C1424 C 0.73505 0.33253 0.82302 0.0
C1425 C 0.71489 0.34938 0.82214 0.0
C1426 C 0.69199 0.41082 0.82732 0.0
C1427 C 0.63297 0.44528 0.81828 0.0
C1428 C 0.65354 0.42623 0.81806 0.0
C1429 C 0.71434 0.3722 0.81732 0.0
C1430 C 0.69313 0.39053 0.81784 0.0
H1431 H 0.57829 0.45653 0.83547 0.0
H1432 H 0.61103 0.4248 0.83047 0.0
H1433 H 0.67236 0.44364 0.83502 0.0
H1434 H 0.76957 0.36574 0.81032 0.0
H1435 H 0.73478 0.39482 0.80823 0.0
C1436 C 0.61364 0.47785 0.26252 0.0
C1437 C 0.60941 0.485 0.23823 0.0
C1438 C 0.63216 0.45996 0.26849 0.0
C1439 C 0.68625 0.42727 0.24177 0.0
H1440 H 0.68065 0.38008 0.29117 0.0
C1441 C 0.74602 0.33806 0.24484 0.0
C1442 C 0.75244 0.32706 0.2674 0.0
C1443 C 0.72999 0.35882 0.24329 0.0
C1444 C 0.68258 0.39327 0.27754 0.0
H1445 H 0.6214 0.47886 0.20124 0.0
H1446 H 0.653 0.44799 0.21155 0.0
H1447 H 0.64983 0.41386 0.28541 0.0
H1448 H 0.74759 0.32938 0.30604 0.0
H1449 H 0.7195 0.36561 0.30332 0.0
H1450 H 0.71869 0.40643 0.23339 0.0
C1451 C 0.64244 0.45627 0.22608 0.0
C1452 C 0.66492 0.41266 0.27428 0.0
C1453 C 0.62409 0.47396 0.22017 0.0
C1454 C 0.74288 0.33744 0.28838 0.0
C1455 C 0.72672 0.35812 0.28685 0.0
C1456 C 0.70378 0.40788 0.24493 0.0
C1457 C 0.64682 0.44901 0.25027 0.0
C1458 C 0.66636 0.42968 0.25596 0.0
C1459 C 0.71994 0.36898 0.26428 0.0
C1460 C 0.70202 0.39044 0.26251 0.0
H1461 H 0.60265 0.48598 0.27686 0.0
H1462 H 0.6351 0.45482 0.28733 0.0
H1463 H 0.68815 0.44025 0.22787 0.0
H1464 H 0.75311 0.33045 0.22839 0.0
H1465 H 0.725 0.36664 0.22564 0.0
C1466 C 0.60231 0.61184 0.1965 0.0
C1467 C 0.60579 0.5886 0.20204 0.0
C1468 C 0.61845 0.62208 0.20041 0.0
C1469 C 0.67765 0.61067 0.20951 0.0
H1470 H 0.65884 0.66447 0.24353 0.0
C1471 C 0.73963 0.64594 0.25039 0.0
C1472 C 0.7355 0.66939 0.24945 0.0
C1473 C 0.72393 0.63645 0.24351 0.0
C1474 C 0.66439 0.64967 0.23369 0.0
H1475 H 0.62928 0.55778 0.21497 0.0
H1476 H 0.65745 0.5756 0.22175 0.0
H1477 H 0.63152 0.64752 0.23234 0.0
H1478 H 0.71133 0.7012 0.24074 0.0
H1479 H 0.68435 0.68471 0.228 0.0
H1480 H 0.7105 0.61282 0.21073 0.0
C1481 C 0.64225 0.58593 0.21445 0.0
C1482 C 0.64869 0.63994 0.22729 0.0
C1483 C 0.62605 0.57574 0.21075 0.0
C1484 C 0.71525 0.68309 0.24142 0.0
C1485 C 0.6996 0.6736 0.23441 0.0
C1486 C 0.69335 0.62049 0.21575 0.0
C1487 C 0.63851 0.60927 0.20968 0.0
C1488 C 0.65515 0.62023 0.2153 0.0
C1489 C 0.70372 0.65015 0.23537 0.0
C1490 C 0.68695 0.64002 0.22811 0.0
H1491 H 0.58682 0.62223 0.18995 0.0
H1492 H 0.61517 0.64008 0.19634 0.0
H1493 H 0.68312 0.59564 0.20002 0.0
H1494 H 0.75512 0.63484 0.25619 0.0
H1495 H 0.72759 0.61833 0.24482 0.0
C1496 C 0.50061 0.6023 0.26483 0.0
C1497 C 0.49509 0.58469 0.25567 0.0
C1498 C 0.48404 0.62145 0.27132 0.0
C1499 C 0.42423 0.64318 0.28605 0.0
H1500 H 0.42887 0.69913 0.25116 0.0
C1501 C 0.34769 0.7145 0.26329 0.0
C1502 C 0.34769 0.73698 0.2634 0.0
C1503 C 0.36691 0.69708 0.26655 0.0
C1504 C 0.42743 0.6838 0.26146 0.0
H1505 H 0.46817 0.57264 0.2473 0.0
H1506 H 0.43937 0.60543 0.25946 0.0
H1507 H 0.46069 0.66589 0.25124 0.0
H1508 H 0.36801 0.75887 0.26665 0.0
H1509 H 0.4019 0.72822 0.27266 0.0
H1510 H 0.39097 0.66074 0.29593 0.0
C1511 C 0.45635 0.60469 0.26149 0.0
C1512 C 0.44569 0.66475 0.26151 0.0
C1513 C 0.47283 0.5859 0.25452 0.0
C1514 C 0.3675 0.74169 0.26667 0.0
C1515 C 0.3869 0.72414 0.26997 0.0
C1516 C 0.4061 0.66219 0.28618 0.0
C1517 C 0.46174 0.62298 0.26929 0.0
C1518 C 0.44402 0.64405 0.27314 0.0
C1519 C 0.38678 0.70157 0.27011 0.0
C1520 C 0.40718 0.68255 0.27313 0.0
H1521 H 0.51769 0.60189 0.26549 0.0
H1522 H 0.48866 0.63529 0.27731 0.0
H1523 H 0.42255 0.62754 0.29545 0.0
H1524 H 0.33272 0.71027 0.26074 0.0
H1525 H 0.36621 0.68002 0.26592 0.0
C1526 C 0.48998 0.48404 0.19308 0.0
C1527 C 0.50312 0.48611 0.21114 0.0
C1528 C 0.47611 0.47001 0.19742 0.0
C1529 C 0.46687 0.42193 0.23833 0.0
H1530 H 0.40884 0.44123 0.2134 0.0
C1531 C 0.4017 0.37388 0.26589 0.0
C1532 C 0.38947 0.37083 0.24747 0.0
C1533 C 0.41532 0.38815 0.26157 0.0
C1534 C 0.42507 0.4355 0.2203 0.0
H1535 H 0.51206 0.47453 0.24789 0.0
H1536 H 0.48756 0.45067 0.25561 0.0
H1537 H 0.43313 0.46552 0.2055 0.0
H1538 H 0.38224 0.38034 0.20993 0.0
H1539 H 0.40583 0.40531 0.2025 0.0
H1540 H 0.45874 0.39197 0.25324 0.0
C1541 C 0.48816 0.45969 0.23796 0.0
C1542 C 0.43903 0.44941 0.21573 0.0
C1543 C 0.50205 0.47367 0.23361 0.0
C1544 C 0.39109 0.38257 0.22468 0.0
C1545 C 0.40466 0.39688 0.22039 0.0
C1546 C 0.45288 0.40806 0.24296 0.0
C1547 C 0.47499 0.45768 0.21994 0.0
C1548 C 0.46013 0.44281 0.22468 0.0
C1549 C 0.41703 0.39978 0.23874 0.0
C1550 C 0.43182 0.41466 0.23399 0.0
H1551 H 0.49017 0.49346 0.17563 0.0
H1552 H 0.46641 0.46868 0.18301 0.0
H1553 H 0.48312 0.41611 0.24517 0.0
H1554 H 0.40061 0.36538 0.28376 0.0
H1555 H 0.42437 0.39026 0.27622 0.0
C1556 C 0.80646 0.61081 0.60618 0.0
C1557 C 0.82572 0.59281 0.60774 0.0
C1558 C 0.80163 0.62734 0.62256 0.0
C1559 C 0.81255 0.6372 0.68323 0.0
H1560 H 0.80138 0.69992 0.65912 0.0
C1561 C 0.78793 0.71066 0.74501 0.0
C1562 C 0.79956 0.7269 0.74007 0.0
C1563 C 0.79035 0.69401 0.72931 0.0
C1564 C 0.80447 0.68246 0.66609 0.0
H1565 H 0.85462 0.57773 0.62807 0.0
H1566 H 0.84592 0.60609 0.65675 0.0
H1567 H 0.80581 0.67139 0.63083 0.0
H1568 H 0.82287 0.7383 0.7147 0.0
H1569 H 0.82685 0.70938 0.6872 0.0
H1570 H 0.81126 0.64821 0.71846 0.0
C1571 C 0.83467 0.6076 0.64283 0.0
C1572 C 0.80679 0.66619 0.64994 0.0
C1573 C 0.8397 0.59142 0.62627 0.0
C1574 C 0.81383 0.72595 0.71919 0.0
C1575 C 0.81594 0.70953 0.70328 0.0
C1576 C 0.80986 0.6535 0.69941 0.0
C1577 C 0.8157 0.62584 0.64108 0.0
C1578 C 0.81117 0.64335 0.65832 0.0
C1579 C 0.80413 0.69347 0.7081 0.0
C1580 C 0.80611 0.67627 0.69099 0.0
H1581 H 0.79541 0.61235 0.59206 0.0
H1582 H 0.78685 0.64122 0.62085 0.0
H1583 H 0.81584 0.61973 0.6902 0.0
H1584 H 0.77676 0.71093 0.76089 0.0
H1585 H 0.78099 0.6819 0.73346 0.0
C1586 C 0.4864 0.78927 0.63327 0.0
C1587 C 0.49968 0.76829 0.62659 0.0
C1588 C 0.46676 0.79095 0.64762 0.0
C1589 C 0.43833 0.75624 0.69019 0.0
H1590 H 0.38654 0.80649 0.67985 0.0
C1591 C 0.35383 0.75575 0.73724 0.0
C1592 C 0.3405 0.77559 0.74651 0.0
C1593 C 0.37288 0.75576 0.72256 0.0
C1594 C 0.40093 0.79246 0.68316 0.0
H1595 H 0.50202 0.73278 0.62914 0.0
H1596 H 0.46792 0.73569 0.65379 0.0
H1597 H 0.42017 0.80477 0.6542 0.0
H1598 H 0.3368 0.81114 0.74719 0.0
H1599 H 0.37015 0.81117 0.72145 0.0
H1600 H 0.41912 0.74383 0.71898 0.0
C1601 C 0.47289 0.75084 0.64851 0.0
C1602 C 0.42026 0.79147 0.66843 0.0
C1603 C 0.49252 0.74915 0.63427 0.0
C1604 C 0.34662 0.79556 0.74036 0.0
C1605 C 0.36571 0.79559 0.72551 0.0
C1606 C 0.41903 0.75719 0.70481 0.0
C1607 C 0.4598 0.77172 0.65564 0.0
C1608 C 0.43922 0.77323 0.67161 0.0
C1609 C 0.37922 0.77562 0.7166 0.0
C1610 C 0.39998 0.77521 0.7014 0.0
H1611 H 0.49144 0.80435 0.62795 0.0
H1612 H 0.45731 0.8073 0.6529 0.0
H1613 H 0.45267 0.7422 0.69366 0.0
H1614 H 0.34969 0.74003 0.74148 0.0
H1615 H 0.3826 0.74014 0.71574 0.0
C1616 C 0.29653 0.44217 0.60657 0.0
C1617 C 0.30875 0.43439 0.58539 0.0
C1618 C 0.29502 0.42723 0.62704 0.0
C1619 C 0.32242 0.36925 0.65414 0.0
H1620 H 0.26828 0.37672 0.69447 0.0
C1621 C 0.30679 0.29755 0.72114 0.0
C1622 C 0.29704 0.30239 0.74425 0.0
C1623 C 0.30816 0.31476 0.70327 0.0
C1624 C 0.28361 0.37454 0.68357 0.0
H1625 H 0.32834 0.40446 0.56918 0.0
H1626 H 0.32553 0.37862 0.60436 0.0
H1627 H 0.2706 0.40439 0.66038 0.0
H1628 H 0.28098 0.32929 0.76667 0.0
H1629 H 0.2831 0.35966 0.73512 0.0
H1630 H 0.33527 0.33919 0.67694 0.0
C1631 C 0.31758 0.39633 0.60556 0.0
C1632 C 0.28497 0.39045 0.66398 0.0
C1633 C 0.31918 0.41123 0.58522 0.0
C1634 C 0.28853 0.32502 0.74902 0.0
C1635 C 0.28969 0.34239 0.73092 0.0
C1636 C 0.321 0.35334 0.67355 0.0
C1637 C 0.30561 0.40405 0.62691 0.0
C1638 C 0.30432 0.38787 0.64871 0.0
C1639 C 0.29969 0.33744 0.70783 0.0
C1640 C 0.30149 0.35554 0.68836 0.0
H1641 H 0.28843 0.45988 0.60749 0.0
H1642 H 0.28584 0.43395 0.64312 0.0
H1643 H 0.33782 0.36688 0.64336 0.0
H1644 H 0.31355 0.28032 0.7168 0.0
H1645 H 0.31568 0.31025 0.68568 0.0
C1646 C 0.56429 0.27942 0.57673 0.0
C1647 C 0.57353 0.26472 0.55886 0.0
C1648 C 0.57792 0.28499 0.59205 0.0
C1649 C 0.63371 0.26102 0.61495 0.0
H1650 H 0.62288 0.31789 0.64219 0.0
C1651 C 0.6965 0.27715 0.67377 0.0
C1652 C 0.68831 0.28805 0.6948 0.0
C1653 C 0.68229 0.27619 0.65644 0.0
C1654 C 0.62604 0.30184 0.63486 0.0
H1655 H 0.60408 0.24574 0.54175 0.0
H1656 H 0.6277 0.2561 0.56747 0.0
H1657 H 0.59831 0.31371 0.61285 0.0
H1658 H 0.6585 0.30663 0.71382 0.0
H1659 H 0.63382 0.30503 0.68358 0.0
H1660 H 0.66126 0.24904 0.63688 0.0
C1661 C 0.61006 0.26274 0.57046 0.0
C1662 C 0.61193 0.29945 0.61804 0.0
C1663 C 0.59652 0.257 0.55549 0.0
C1664 C 0.66551 0.29836 0.69774 0.0
C1665 C 0.6513 0.29744 0.68037 0.0
C1666 C 0.64777 0.26342 0.63161 0.0
C1667 C 0.601 0.27604 0.58962 0.0
C1668 C 0.61568 0.27902 0.60771 0.0
C1669 C 0.65946 0.28611 0.65961 0.0
C1670 C 0.64425 0.28387 0.64175 0.0
H1671 H 0.54659 0.28536 0.57988 0.0
H1672 H 0.57033 0.29526 0.6066 0.0
H1673 H 0.63684 0.24481 0.608 0.0
H1674 H 0.71395 0.26939 0.6706 0.0
H1675 H 0.68925 0.26768 0.64049 0.0
C1676 C 0.79943 0.48433 0.53095 0.0
C1677 C 0.79775 0.50725 0.52562 0.0
C1678 C 0.78906 0.47345 0.51729 0.0
C1679 C 0.7757 0.47479 0.4559 0.0
H1680 H 0.74909 0.42766 0.48157 0.0
C1681 C 0.76418 0.41154 0.39403 0.0
C1682 C 0.77035 0.38891 0.4035 0.0
C1683 C 0.76102 0.42886 0.40906 0.0
C1684 C 0.75658 0.44068 0.47405 0.0
H1685 H 0.78332 0.53706 0.50243 0.0
H1686 H 0.76547 0.51779 0.47788 0.0
H1687 H 0.75482 0.45339 0.50849 0.0
H1688 H 0.77647 0.36696 0.43657 0.0
H1689 H 0.77186 0.39687 0.46247 0.0
H1690 H 0.77888 0.46133 0.42183 0.0
C1691 C 0.77458 0.50837 0.49294 0.0
C1692 C 0.75969 0.45553 0.48948 0.0
C1693 C 0.78462 0.51942 0.50705 0.0
C1694 C 0.77214 0.38415 0.42854 0.0
C1695 C 0.76915 0.40142 0.44351 0.0
C1696 C 0.77283 0.45978 0.4405 0.0
C1697 C 0.77715 0.48514 0.49762 0.0
C1698 C 0.76985 0.47234 0.4807 0.0
C1699 C 0.76407 0.42402 0.43393 0.0
C1700 C 0.76385 0.44207 0.4495 0.0
H1701 H 0.80957 0.47457 0.54512 0.0
H1702 H 0.79156 0.45553 0.52121 0.0
H1703 H 0.78381 0.4874 0.44864 0.0
H1704 H 0.76274 0.41591 0.37484 0.0
H1705 H 0.75673 0.44605 0.40104 0.0
C1706 C 0.62573 0.79101 0.4845 0.0
C1707 C 0.62561 0.76969 0.49583 0.0
C1708 C 0.64047 0.79319 0.46465 0.0
C1709 C 0.67457 0.76099 0.41607 0.0
H1710 H 0.70583 0.80648 0.41008 0.0
C1711 C 0.74809 0.75759 0.34685 0.0
C1712 C 0.75133 0.77766 0.33511 0.0
C1713 C 0.73195 0.75793 0.36568 0.0
C1714 C 0.69701 0.79388 0.41124 0.0
H1715 H 0.64177 0.734 0.49527 0.0
H1716 H 0.66704 0.7378 0.4608 0.0
H1717 H 0.67945 0.80468 0.44445 0.0
H1718 H 0.73987 0.81395 0.33417 0.0
H1719 H 0.71134 0.81458 0.36692 0.0
H1720 H 0.6919 0.75018 0.38297 0.0
C1721 C 0.65549 0.75286 0.46701 0.0
C1722 C 0.68189 0.79282 0.43102 0.0
C1723 C 0.6409 0.75068 0.48688 0.0
C1724 C 0.73784 0.79816 0.34274 0.0
C1725 C 0.72157 0.79851 0.36166 0.0
C1726 C 0.68954 0.76211 0.3963 0.0
C1727 C 0.6554 0.77411 0.45548 0.0
C1728 C 0.6707 0.77614 0.43388 0.0
C1729 C 0.71839 0.77836 0.3734 0.0
C1730 C 0.70127 0.77833 0.39374 0.0
H1731 H 0.61416 0.80607 0.49057 0.0
H1732 H 0.6398 0.80981 0.45613 0.0
H1733 H 0.66591 0.74823 0.41735 0.0
H1734 H 0.75823 0.74142 0.34172 0.0
H1735 H 0.73042 0.74204 0.37449 0.0
C1736 C 0.32448 0.58146 0.45572 0.0
C1737 C 0.30815 0.57002 0.45844 0.0
C1738 C 0.32214 0.60113 0.44015 0.0
C1739 C 0.29201 0.63384 0.38763 0.0
H1740 H 0.31212 0.68182 0.40735 0.0
C1741 C 0.28042 0.7209 0.33091 0.0
C1742 C 0.29815 0.73036 0.32957 0.0
C1743 C 0.28035 0.7016 0.34661 0.0
C1744 C 0.3066 0.66854 0.40138 0.0
H1745 H 0.27658 0.57051 0.44629 0.0
H1746 H 0.27237 0.60494 0.41944 0.0
H1747 H 0.31452 0.64798 0.43443 0.0
H1748 H 0.32987 0.72649 0.34365 0.0
H1749 H 0.32979 0.69323 0.37048 0.0
H1750 H 0.28419 0.65451 0.35447 0.0
C1751 C 0.28711 0.59856 0.42929 0.0
C1752 C 0.308 0.64904 0.41697 0.0
C1753 C 0.28942 0.57888 0.44496 0.0
C1754 C 0.31579 0.71993 0.34422 0.0
C1755 C 0.3157 0.7008 0.35983 0.0
C1756 C 0.29061 0.65342 0.37198 0.0
C1757 C 0.30341 0.61005 0.42672 0.0
C1758 C 0.30098 0.63125 0.41027 0.0
C1759 C 0.29797 0.69136 0.36142 0.0
C1760 C 0.29815 0.67095 0.37851 0.0
H1761 H 0.33905 0.57541 0.46585 0.0
H1762 H 0.33522 0.60923 0.43847 0.0
H1763 H 0.28661 0.62048 0.38169 0.0
H1764 H 0.26657 0.72839 0.31989 0.0
H1765 H 0.26634 0.69492 0.34741 0.0
C1766 C 0.46492 0.23633 0.47586 0.0
C1767 C 0.47609 0.25224 0.47876 0.0
C1768 C 0.4477 0.24134 0.46056 0.0
C1769 C 0.42376 0.27798 0.40763 0.0
H1770 H 0.37473 0.25344 0.42775 0.0
C1771 C 0.34803 0.288 0.34958 0.0
C1772 C 0.34123 0.26843 0.34956 0.0
C1773 C 0.36431 0.28855 0.36477 0.0
C1774 C 0.38835 0.26032 0.42174 0.0
H1775 H 0.47763 0.28617 0.46764 0.0
H1776 H 0.44717 0.29507 0.44061 0.0
H1777 H 0.40245 0.25083 0.45594 0.0
H1778 H 0.34688 0.23388 0.36471 0.0
H1779 H 0.37497 0.23484 0.39097 0.0
H1780 H 0.40946 0.2873 0.37322 0.0
C1781 C 0.452 0.27858 0.45033 0.0
C1782 C 0.40428 0.25884 0.43795 0.0
C1783 C 0.46933 0.27355 0.46593 0.0
C1784 C 0.35155 0.24929 0.36441 0.0
C1785 C 0.3676 0.24989 0.37961 0.0
C1786 C 0.40765 0.27957 0.39134 0.0
C1787 C 0.44092 0.26248 0.44751 0.0
C1788 C 0.42257 0.26705 0.43098 0.0
C1789 C 0.37394 0.2696 0.38038 0.0
C1790 C 0.39005 0.27018 0.39803 0.0
H1791 H 0.46958 0.21971 0.48533 0.0
H1792 H 0.43995 0.22833 0.4586 0.0
H1793 H 0.43763 0.28444 0.4016 0.0
H1794 H 0.34043 0.30301 0.33828 0.0
H1795 H 0.36883 0.304 0.36487 0.0
C1796 C 0.60345 0.81283 0.62933 0.0
C1797 C 0.61159 0.79639 0.61295 0.0
C1798 C 0.61759 0.8172 0.6449 0.0
C1799 C 0.67476 0.81486 0.64987 0.0
H1800 H 0.66735 0.80162 0.7191 0.0
C1801 C 0.74812 0.79421 0.70777 0.0
C1802 C 0.74583 0.80198 0.73073 0.0
C1803 C 0.72976 0.79645 0.6949 0.0
C1804 C 0.66947 0.80583 0.69987 0.0
H1805 H 0.64089 0.77217 0.59952 0.0
H1806 H 0.66549 0.78036 0.62585 0.0
H1807 H 0.63813 0.80165 0.69324 0.0
H1808 H 0.72239 0.81774 0.75858 0.0
H1809 H 0.68988 0.82199 0.73576 0.0
H1810 H 0.70596 0.81892 0.65606 0.0
C1811 C 0.64822 0.7896 0.627 0.0
C1812 C 0.65274 0.80584 0.68511 0.0
C1813 C 0.63411 0.7849 0.61197 0.0
C1814 C 0.7246 0.81163 0.74087 0.0
C1815 C 0.70603 0.81401 0.72782 0.0
C1816 C 0.69127 0.81513 0.66454 0.0
C1817 C 0.64013 0.80561 0.64377 0.0
C1818 C 0.65559 0.80966 0.65991 0.0
C1819 C 0.70847 0.80678 0.70445 0.0
C1820 C 0.68925 0.80978 0.68965 0.0
H1821 H 0.58612 0.82181 0.63057 0.0
H1822 H 0.611 0.82964 0.65769 0.0
H1823 H 0.67726 0.81807 0.63052 0.0
H1824 H 0.76424 0.78638 0.6996 0.0
H1825 H 0.73233 0.78999 0.67736 0.0
C1826 C 0.61396 0.24062 0.46909 0.0
C1827 C 0.60353 0.2252 0.46268 0.0
C1828 C 0.63285 0.24368 0.45595 0.0
C1829 C 0.66309 0.235 0.39631 0.0
H1830 H 0.71037 0.24596 0.42786 0.0
C1831 C 0.74443 0.23811 0.34421 0.0
C1832 C 0.75271 0.25611 0.34758 0.0
C1833 C 0.72736 0.23348 0.35953 0.0
C1834 C 0.69722 0.24308 0.4188 0.0
H1835 H 0.60521 0.20069 0.43743 0.0
H1836 H 0.63841 0.20556 0.41501 0.0
H1837 H 0.67847 0.23923 0.45204 0.0
H1838 H 0.75 0.2828 0.37042 0.0
H1839 H 0.72011 0.27461 0.39727 0.0
H1840 H 0.68185 0.23873 0.36312 0.0
C1841 C 0.63172 0.21563 0.42995 0.0
C1842 C 0.67891 0.23926 0.43263 0.0
C1843 C 0.61278 0.21263 0.44303 0.0
C1844 C 0.74405 0.26881 0.36729 0.0
C1845 C 0.72694 0.26409 0.38272 0.0
C1846 C 0.68141 0.23868 0.38254 0.0
C1847 C 0.64191 0.23134 0.4361 0.0
C1848 C 0.6616 0.23516 0.42155 0.0
C1849 C 0.71811 0.24666 0.37867 0.0
C1850 C 0.69872 0.24273 0.3936 0.0
H1851 H 0.60761 0.25034 0.48433 0.0
H1852 H 0.6401 0.25606 0.46112 0.0
H1853 H 0.64991 0.2324 0.38708 0.0
H1854 H 0.75077 0.22783 0.32936 0.0
H1855 H 0.72122 0.21967 0.35619 0.0
C1856 C 0.84759 0.61511 0.48608 0.0
C1857 C 0.85515 0.59267 0.48053 0.0
C1858 C 0.84579 0.63269 0.46785 0.0
C1859 C 0.86397 0.64619 0.40427 0.0
H1860 H 0.81329 0.69825 0.40886 0.0
C1861 C 0.84036 0.71859 0.32751 0.0
C1862 C 0.83383 0.7404 0.335 0.0
C1863 C 0.84386 0.69989 0.34461 0.0
C1864 C 0.82763 0.6839 0.40741 0.0
H1865 H 0.86675 0.57111 0.45144 0.0
H1866 H 0.8634 0.60174 0.41961 0.0
H1867 H 0.81769 0.66703 0.43999 0.0
H1868 H 0.82636 0.75982 0.36605 0.0
H1869 H 0.83252 0.72736 0.39574 0.0
H1870 H 0.87368 0.66317 0.37143 0.0
C1871 C 0.85924 0.60579 0.4381 0.0
C1872 C 0.8302 0.66602 0.42531 0.0
C1873 C 0.86116 0.58821 0.45637 0.0
C1874 C 0.83132 0.7432 0.35976 0.0
C1875 C 0.8347 0.72461 0.37677 0.0
C1876 C 0.86131 0.66408 0.38625 0.0
C1877 C 0.85136 0.62826 0.44359 0.0
C1878 C 0.84851 0.64703 0.42413 0.0
C1879 C 0.84074 0.70276 0.36942 0.0
C1880 C 0.84323 0.68322 0.38779 0.0
H1881 H 0.84316 0.61909 0.50455 0.0
H1882 H 0.84011 0.64978 0.47282 0.0
H1883 H 0.87838 0.63192 0.40289 0.0
H1884 H 0.84233 0.716 0.3085 0.0
H1885 H 0.84841 0.68323 0.33843 0.0
C1886 C 0.49856 0.83364 0.52432 0.0
C1887 C 0.51959 0.8217 0.51563 0.0
C1888 C 0.4817 0.84237 0.5084 0.0
C1889 C 0.46991 0.85451 0.44352 0.0
H1890 H 0.42114 0.82929 0.46216 0.0
C1891 C 0.42196 0.82988 0.37423 0.0
C1892 C 0.39992 0.82991 0.37965 0.0
C1893 C 0.43377 0.83584 0.39101 0.0
C1894 C 0.43427 0.837 0.45674 0.0
H1895 H 0.54004 0.81071 0.48371 0.0
H1896 H 0.51102 0.82648 0.45593 0.0
H1897 H 0.44705 0.82877 0.49177 0.0
H1898 H 0.37271 0.83743 0.40668 0.0
H1899 H 0.39313 0.84847 0.43569 0.0
H1900 H 0.45756 0.86215 0.4083 0.0
C1901 C 0.50734 0.82914 0.47486 0.0
C1902 C 0.44915 0.8367 0.4738 0.0
C1903 C 0.52397 0.82007 0.49075 0.0
C1904 C 0.38963 0.83729 0.40181 0.0
C1905 C 0.40143 0.84337 0.4186 0.0
C1906 C 0.45493 0.855 0.42651 0.0
C1907 C 0.48581 0.83962 0.48358 0.0
C1908 C 0.46759 0.84469 0.46714 0.0
C1909 C 0.42383 0.84217 0.41367 0.0
C1910 C 0.43738 0.84546 0.43265 0.0
H1911 H 0.49477 0.83477 0.54352 0.0
H1912 H 0.46525 0.8504 0.5156 0.0
H1913 H 0.48384 0.86102 0.43794 0.0
H1914 H 0.43032 0.82465 0.35719 0.0
H1915 H 0.45102 0.83446 0.38657 0.0
C1916 C 0.25753 0.46243 0.46775 0.0
C1917 C 0.26812 0.47882 0.45868 0.0
C1918 C 0.25324 0.44824 0.45219 0.0
C1919 C 0.2771 0.42523 0.39514 0.0
H1920 H 0.22772 0.4 0.39868 0.0
C1921 C 0.27517 0.36352 0.32835 0.0
C1922 C 0.2696 0.34394 0.33784 0.0
C1923 C 0.27078 0.38192 0.34192 0.0
C1924 C 0.24166 0.40684 0.39758 0.0
H1925 H 0.28051 0.49479 0.42618 0.0
H1926 H 0.27246 0.47068 0.39912 0.0
H1927 H 0.22707 0.42922 0.42492 0.0
H1928 H 0.25392 0.3287 0.36851 0.0
H1929 H 0.24671 0.36074 0.39258 0.0
H1930 H 0.29207 0.40272 0.3685 0.0
C1931 C 0.26812 0.46816 0.41821 0.0
C1932 C 0.24127 0.42356 0.41258 0.0
C1933 C 0.27261 0.48207 0.4337 0.0
C1934 C 0.25839 0.3436 0.36071 0.0
C1935 C 0.25421 0.36199 0.37447 0.0
C1936 C 0.27752 0.4086 0.38031 0.0
C1937 C 0.25934 0.45041 0.42737 0.0
C1938 C 0.25897 0.43302 0.41139 0.0
C1939 C 0.261 0.38109 0.3655 0.0
C1940 C 0.2598 0.39923 0.38119 0.0
H1941 H 0.25398 0.45953 0.48697 0.0
H1942 H 0.24646 0.43472 0.45981 0.0
H1943 H 0.29131 0.43163 0.39423 0.0
H1944 H 0.28353 0.36443 0.31063 0.0
H1945 H 0.27568 0.39659 0.33417 0.0
C1946 C 0.48588 0.23854 0.61457 0.0
C1947 C 0.49099 0.21887 0.60262 0.0
C1948 C 0.47229 0.24064 0.63579 0.0
C1949 C 0.44858 0.20804 0.68545 0.0
H1950 H 0.40597 0.26578 0.69298 0.0
C1951 C 0.37459 0.22309 0.75716 0.0
C1952 C 0.36849 0.24368 0.76755 0.0
C1953 C 0.39151 0.21875 0.73892 0.0
C1954 C 0.41798 0.24962 0.69136 0.0
H1955 H 0.48589 0.1859 0.60375 0.0
H1956 H 0.46187 0.18965 0.64067 0.0
H1957 H 0.43111 0.26085 0.65727 0.0
H1958 H 0.3764 0.27523 0.76796 0.0
H1959 H 0.40594 0.26754 0.73647 0.0
H1960 H 0.43498 0.1968 0.7195 0.0
C1961 C 0.46869 0.20334 0.63383 0.0
C1962 C 0.43243 0.24679 0.67084 0.0
C1963 C 0.48242 0.20119 0.61263 0.0
C1964 C 0.38052 0.25925 0.76026 0.0
C1965 C 0.39738 0.25493 0.74206 0.0
C1966 C 0.434 0.21087 0.706 0.0
C1967 C 0.4633 0.22318 0.64559 0.0
C1968 C 0.44797 0.22599 0.66761 0.0
C1969 C 0.40265 0.23492 0.73067 0.0
C1970 C 0.41858 0.23174 0.70922 0.0
H1971 H 0.49258 0.25228 0.60767 0.0
H1972 H 0.46892 0.25597 0.64461 0.0
H1973 H 0.46049 0.19186 0.6837 0.0
H1974 H 0.36564 0.21073 0.76229 0.0
H1975 H 0.39511 0.2032 0.73047 0.0
C1976 C 0.86409 0.4502 0.61624 0.0
C1977 C 0.84939 0.47169 0.61785 0.0
C1978 C 0.86034 0.43172 0.63071 0.0
C1979 C 0.81641 0.4131 0.66857 0.0
H1980 H 0.86574 0.36704 0.69505 0.0
C1981 C 0.83411 0.33714 0.74992 0.0
C1982 C 0.81656 0.32808 0.74793 0.0
C1983 C 0.8387 0.35316 0.73232 0.0
C1984 C 0.85174 0.37981 0.68794 0.0
H1985 H 0.81962 0.4908 0.63625 0.0
H1986 H 0.81335 0.45876 0.662 0.0
H1987 H 0.87236 0.3985 0.66875 0.0
H1988 H 0.79052 0.32826 0.72536 0.0
H1989 H 0.79889 0.35586 0.69428 0.0
H1990 H 0.79573 0.395 0.68872 0.0
C1991 C 0.82742 0.45597 0.64907 0.0
C1992 C 0.85557 0.39774 0.67255 0.0
C1993 C 0.83105 0.47438 0.63443 0.0
C1994 C 0.80408 0.33499 0.72754 0.0
C1995 C 0.80879 0.35093 0.70979 0.0
C1996 C 0.81257 0.39528 0.68413 0.0
C1997 C 0.84193 0.43435 0.6473 0.0
C1998 C 0.83794 0.41475 0.66286 0.0
C1999 C 0.82599 0.36043 0.71213 0.0
C2000 C 0.83017 0.37852 0.69422 0.0
H2001 H 0.87818 0.44759 0.60336 0.0
H2002 H 0.87169 0.4153 0.62857 0.0
H2003 H 0.80244 0.42565 0.66111 0.0
H2004 H 0.84401 0.33234 0.76544 0.0
H2005 H 0.85181 0.36035 0.735 0.0
C2006 C 0.283 0.55778 0.58198 0.0
C2007 C 0.2691 0.54881 0.57052 0.0
C2008 C 0.27432 0.57542 0.59636 0.0
C2009 C 0.22807 0.60203 0.63508 0.0
H2010 H 0.25562 0.65058 0.62585 0.0
C2011 C 0.23929 0.65166 0.71106 0.0
C2012 C 0.24082 0.67373 0.70556 0.0
C2013 C 0.23527 0.6397 0.69313 0.0
C2014 C 0.2473 0.63751 0.62848 0.0
H2015 H 0.23507 0.55104 0.56564 0.0
H2016 H 0.21974 0.58198 0.59157 0.0
H2017 H 0.2633 0.62319 0.5963 0.0
H2018 H 0.23747 0.70114 0.67733 0.0
H2019 H 0.22998 0.68045 0.64624 0.0
H2020 H 0.21278 0.61589 0.6679 0.0
C2021 C 0.23742 0.57528 0.58901 0.0
C2022 C 0.25189 0.62169 0.61161 0.0
C2023 C 0.24618 0.55765 0.57422 0.0
C2024 C 0.23636 0.6842 0.68224 0.0
C2025 C 0.23228 0.67226 0.66433 0.0
C2026 C 0.22353 0.61786 0.65211 0.0
C2027 C 0.2515 0.58449 0.59988 0.0
C2028 C 0.24296 0.60338 0.61519 0.0
C2029 C 0.23264 0.64957 0.66932 0.0
C2030 C 0.23368 0.63536 0.64937 0.0
H2031 H 0.30072 0.5514 0.57962 0.0
H2032 H 0.28553 0.58193 0.60489 0.0
H2033 H 0.221 0.58802 0.63823 0.0
H2034 H 0.24228 0.64325 0.72896 0.0
H2035 H 0.23575 0.62224 0.69761 0.0
loop_
_geom_bond_atom_site_label_1
_geom_bond_atom_site_label_2
_geom_bond_distance
_geom_bond_site_symmetry_2
_ccdc_geom_bond_type
Cu0 N1 1.999 . S
Cu0 O6 1.974 1_545 S
Cu0 N11 1.985 1_545 S
Cu0 O20 1.959 . S
N1 Cu0 1.999 . S
N1 C3 1.263 . S
N1 C5 1.389 . S
N2 C3 1.358 . S
N2 C4 1.400 . S
C3 N1 1.263 . S
C3 N2 1.358 . S
C3 H9 0.930 . S
C4 N2 1.400 . S
C4 C5 1.351 . S
C4 H21 0.930 . S
C5 N1 1.389 . S
C5 C4 1.351 . S
C5 H10 0.930 . S
O6 Cu0 1.974 1_565 S
O6 C16 1.282 . S
C7 O8 1.261 1_655 S
C7 O20 1.251 1_655 S
O8 C7 1.261 1_455 S
H9 C3 0.930 . S
H10 C5 0.930 . S
N11 Cu0 1.985 1_565 S
N11 C13 1.335 1_455 S
N11 C14 1.390 . S
N12 C13 1.345 . S
N12 C15 1.336 1_655 S
C13 N11 1.335 1_655 S
C13 N12 1.345 . S
C13 H18 0.930 . S
C14 N11 1.390 . S
C14 C15 1.346 . S
C14 H19 0.930 . S
C15 N12 1.336 1_455 S
C15 C14 1.346 . S
C15 H22 0.929 . S
C16 O6 1.282 . S
C16 O17 1.216 . S
O17 C16 1.216 . S
H18 C13 0.930 . S
H19 C14 0.930 . S
O20 Cu0 1.959 . S
O20 C7 1.251 1_455 S
H21 C4 0.930 . S
H22 C15 0.929 . S
Cu23 N24 1.999 1_455 S
Cu23 O29 1.974 1_455 S
Cu23 N34 1.985 . S
Cu23 O43 1.959 . S
N24 Cu23 1.999 1_655 S
N24 C26 1.263 . S
N24 C28 1.389 1_645 S
N25 C26 1.358 1_565 S
N25 C27 1.400 . S
C26 N24 1.263 . S
C26 N25 1.358 1_545 S
C26 H32 0.930 . S
C27 N25 1.400 . S
C27 C28 1.351 1_655 S
C27 H44 0.930 . S
C28 N24 1.389 1_465 S
C28 C27 1.351 1_455 S
C28 H33 0.930 . S
O29 Cu23 1.974 1_655 S
O29 C39 1.282 . S
C30 O31 1.261 . S
C30 O43 1.251 . S
O31 C30 1.261 . S
H32 C26 0.930 . S
H33 C28 0.930 . S
N34 Cu23 1.985 . S
N34 C36 1.335 . S
N34 C37 1.390 . S
N35 C36 1.345 . S
N35 C38 1.336 . S
C36 N34 1.335 . S
C36 N35 1.345 . S
C36 H41 0.930 . S
C37 N34 1.390 . S
C37 C38 1.346 . S
C37 H42 0.930 . S
C38 N35 1.336 . S
C38 C37 1.346 . S
C38 H45 0.929 . S
C39 O29 1.282 . S
C39 O40 1.216 . S
O40 C39 1.216 . S
H41 C36 0.930 . S
H42 C37 0.930 . S
O43 Cu23 1.959 . S
O43 C30 1.251 . S
H44 C27 0.930 . S
H45 C38 0.929 . S
Cu46 N47 1.999 . S
Cu46 O52 1.974 . S
Cu46 N57 1.985 . S
Cu46 O66 1.959 . S
N47 Cu46 1.999 . S
N47 C49 1.294 . S
N47 C51 1.389 . S
N48 C49 1.341 1_565 S
N48 C50 1.400 1_565 S
C49 N47 1.294 . S
C49 N48 1.341 1_545 S
C49 H55 0.918 1_545 S
C50 N48 1.400 1_545 S
C50 C51 1.351 . S
C50 H67 0.930 1_544 S
C51 N47 1.389 . S
C51 C50 1.351 . S
C51 H56 0.930 . S
O52 Cu46 1.974 . S
O52 C62 1.282 . S
C53 O54 1.261 . S
C53 O66 1.251 . S
O54 C53 1.261 . S
H55 C49 0.918 1_565 S
H56 C51 0.930 . S
N57 Cu46 1.985 . S
N57 C59 1.335 . S
N57 C60 1.390 . S
N58 C59 1.345 . S
N58 C61 1.336 . S
C59 N57 1.335 . S
C59 N58 1.345 . S
C59 H64 0.930 . S
C60 N57 1.390 . S
C60 C61 1.346 . S
C60 H65 0.930 . S
C61 N58 1.336 . S
C61 C60 1.346 . S
C61 H68 0.929 . S
C62 O52 1.282 . S
C62 O63 1.216 . S
O63 C62 1.216 . S
H64 C59 0.930 . S
H65 C60 0.930 . S
O66 Cu46 1.959 . S
O66 C53 1.251 . S
H67 C50 0.930 1_566 S
H68 C61 0.929 . S
Cu69 N70 1.999 . S
Cu69 O75 1.974 . S
Cu69 N80 1.985 . S
Cu69 O89 1.959 . S
N70 Cu69 1.999 . S
N70 C72 1.263 . S
N70 C74 1.389 . S
N71 C72 1.358 . S
N71 C73 1.400 1_554 S
C72 N70 1.263 . S
C72 N71 1.358 . S
C72 H78 0.930 . S
C73 N71 1.400 1_556 S
C73 C74 1.351 1_556 S
C73 H90 0.930 . S
C74 N70 1.389 . S
C74 C73 1.351 1_554 S
C74 H79 0.930 . S
O75 Cu69 1.974 . S
O75 C85 1.282 . S
C76 O77 1.261 . S
C76 O89 1.251 . S
O77 C76 1.261 . S
H78 C72 0.930 . S
H79 C74 0.930 . S
N80 Cu69 1.985 . S
N80 C82 1.335 1_455 S
N80 C83 1.390 . S
N81 C82 1.345 . S
N81 C84 1.358 . S
C82 N80 1.335 1_655 S
C82 N81 1.345 . S
C82 H87 0.930 . S
C83 N80 1.390 . S
C83 C84 1.322 1_455 S
C83 H88 0.930 . S
C84 N81 1.358 . S
C84 C83 1.322 1_655 S
C84 H91 0.932 . S
C85 O75 1.282 . S
C85 O86 1.216 . S
O86 C85 1.216 . S
H87 C82 0.930 . S
H88 C83 0.930 . S
O89 Cu69 1.959 . S
O89 C76 1.251 . S
H90 C73 0.930 . S
H91 C84 0.932 . S
Cu92 N93 1.999 1_554 S
Cu92 O98 1.974 . S
Cu92 N103 1.985 1_545 S
Cu92 O112 1.959 1_544 S
N93 Cu92 1.999 1_556 S
N93 C95 1.263 . S
N93 C97 1.389 . S
N94 C95 1.358 . S
N94 C96 1.400 . S
C95 N93 1.263 . S
C95 N94 1.358 . S
C95 H101 0.930 . S
C96 N94 1.400 . S
C96 C97 1.351 . S
C96 H113 0.930 . S
C97 N93 1.389 . S
C97 C96 1.351 . S
C97 H102 0.930 . S
O98 Cu92 1.974 . S
O98 C108 1.282 . S
C99 O100 1.261 . S
C99 O112 1.251 . S
O100 C99 1.261 . S
H101 C95 0.930 . S
H102 C97 0.930 . S
N103 Cu92 1.985 1_565 S
N103 C105 1.335 . S
N103 C106 1.390 . S
N104 C105 1.345 . S
N104 C107 1.336 . S
C105 N103 1.335 . S
C105 N104 1.345 . S
C105 H110 0.930 . S
C106 N103 1.390 . S
C106 C107 1.346 . S
C106 H111 0.930 . S
C107 N104 1.336 . S
C107 C106 1.346 . S
C107 H114 0.929 . S
C108 O98 1.282 . S
C108 O109 1.216 . S
O109 C108 1.216 . S
H110 C105 0.930 . S
H111 C106 0.930 . S
O112 Cu92 1.959 1_566 S
O112 C99 1.251 . S
H113 C96 0.930 . S
H114 C107 0.929 . S
Cu115 N116 1.999 1_454 S
Cu115 O121 1.974 1_455 S
Cu115 N126 1.985 . S
Cu115 O135 1.959 1_554 S
N116 Cu115 1.999 1_656 S
N116 C118 1.263 . S
N116 C120 1.393 . S
N117 C118 1.358 . S
N117 C119 1.400 . S
C118 N116 1.263 . S
C118 N117 1.358 . S
C118 H124 0.956 . S
C119 N117 1.400 . S
C119 C120 1.377 . S
C119 H136 0.930 . S
C120 N116 1.393 . S
C120 C119 1.377 . S
C120 H125 0.905 1_655 S
O121 Cu115 1.974 1_655 S
O121 C131 1.282 . S
C122 O123 1.261 . S
C122 O135 1.251 . S
O123 C122 1.261 . S
H124 C118 0.956 . S
H125 C120 0.905 1_455 S
N126 Cu115 1.985 . S
N126 C128 1.335 . S
N126 C129 1.390 . S
N127 C128 1.345 . S
N127 C130 1.336 . S
C128 N126 1.335 . S
C128 N127 1.345 . S
C128 H133 0.930 . S
C129 N126 1.390 . S
C129 C130 1.346 . S
C129 H134 0.930 . S
C130 N127 1.336 . S
C130 C129 1.346 . S
C130 H137 0.929 . S
C131 O121 1.282 . S
C131 O132 1.216 . S
O132 C131 1.216 . S
H133 C128 0.930 . S
H134 C129 0.930 . S
O135 Cu115 1.959 1_556 S
O135 C122 1.251 . S
H136 C119 0.930 . S
H137 C130 0.929 . S
Cu138 N139 1.999 . S
Cu138 O144 1.974 . S
Cu138 N149 1.985 . S
Cu138 O158 1.959 . S
N139 Cu138 1.999 . S
N139 C141 1.263 . S
N139 C143 1.389 . S
N140 C141 1.358 . S
N140 C142 1.400 . S
C141 N139 1.263 . S
C141 N140 1.358 . S
C141 H147 0.930 . S
C142 N140 1.400 . S
C142 C143 1.351 . S
C142 H159 0.930 . S
C143 N139 1.389 . S
C143 C142 1.351 . S
C143 H148 0.930 . S
O144 Cu138 1.974 . S
O144 C154 1.282 . S
C145 O146 1.261 . S
C145 O158 1.251 . S
O146 C145 1.261 . S
H147 C141 0.930 . S
H148 C143 0.930 . S
N149 Cu138 1.985 . S
N149 C151 1.335 . S
N149 C152 1.390 . S
N150 C151 1.345 . S
N150 C153 1.336 . S
C151 N149 1.335 . S
C151 N150 1.345 . S
C151 H156 0.930 . S
C152 N149 1.390 . S
C152 C153 1.346 . S
C152 H157 0.930 . S
C153 N150 1.336 . S
C153 C152 1.346 . S
C153 H160 0.929 . S
C154 O144 1.282 . S
C154 O155 1.216 . S
O155 C154 1.216 . S
H156 C151 0.930 . S
H157 C152 0.930 . S
O158 Cu138 1.959 . S
O158 C145 1.251 . S
H159 C142 0.930 . S
H160 C153 0.929 . S
Cu161 N162 1.999 . S
Cu161 O167 1.974 . S
Cu161 N172 1.985 . S
Cu161 O181 1.959 . S
N162 Cu161 1.999 . S
N162 C164 1.263 . S
N162 C166 1.389 . S
N163 C164 1.358 . S
N163 C165 1.400 . S
C164 N162 1.263 . S
C164 N163 1.358 . S
C164 H170 0.930 . S
C165 N163 1.400 . S
C165 C166 1.351 . S
C165 H182 0.930 . S
C166 N162 1.389 . S
C166 C165 1.351 . S
C166 H171 0.930 . S
O167 Cu161 1.974 . S
O167 C177 1.282 . S
C168 O169 1.261 . S
C168 O181 1.251 . S
O169 C168 1.261 . S
H170 C164 0.930 . S
H171 C166 0.930 . S
N172 Cu161 1.985 . S
N172 C174 1.335 . S
N172 C175 1.390 . S
N173 C174 1.345 . S
N173 C176 1.336 . S
C174 N172 1.335 . S
C174 N173 1.345 . S
C174 H179 0.930 . S
C175 N172 1.390 . S
C175 C176 1.346 . S
C175 H180 0.930 . S
C176 N173 1.336 . S
C176 C175 1.346 . S
C176 H183 0.929 . S
C177 O167 1.282 . S
C177 O178 1.216 . S
O178 C177 1.216 . S
H179 C174 0.930 . S
H180 C175 0.930 . S
O181 Cu161 1.959 . S
O181 C168 1.251 . S
H182 C165 0.930 . S
H183 C176 0.929 . S
Cu184 N185 1.999 . S
Cu184 O190 1.974 . S
Cu184 N195 1.985 . S
Cu184 O204 1.959 . S
N185 Cu184 1.999 . S
N185 C187 1.263 . S
N185 C189 1.389 . S
N186 C187 1.358 . S
N186 C188 1.400 . S
C187 N185 1.263 . S
C187 N186 1.358 . S
C187 H193 0.930 . S
C188 N186 1.400 . S
C188 C189 1.351 . S
C188 H205 0.930 . S
C189 N185 1.389 . S
C189 C188 1.351 . S
C189 H194 0.930 . S
O190 Cu184 1.974 . S
O190 C200 1.282 . S
C191 O192 1.261 . S
C191 O204 1.251 . S
O192 C191 1.261 . S
H193 C187 0.930 . S
H194 C189 0.930 . S
N195 Cu184 1.985 . S
N195 C197 1.335 . S
N195 C198 1.390 . S
N196 C197 1.345 . S
N196 C199 1.336 . S
C197 N195 1.335 . S
C197 N196 1.345 . S
C197 H202 0.930 . S
C198 N195 1.390 . S
C198 C199 1.346 . S
C198 H203 0.930 . S
C199 N196 1.336 . S
C199 C198 1.346 . S
C199 H206 0.929 . S
C200 O190 1.282 . S
C200 O201 1.216 . S
O201 C200 1.216 . S
H202 C197 0.930 . S
H203 C198 0.930 . S
O204 Cu184 1.959 . S
O204 C191 1.251 . S
H205 C188 0.930 . S
H206 C199 0.929 . S
Cu207 N208 1.999 . S
Cu207 O213 1.974 . S
Cu207 N218 1.985 . S
Cu207 O227 1.959 . S
N208 Cu207 1.999 . S
N208 C210 1.263 . S
N208 C212 1.389 . S
N209 C210 1.358 . S
N209 C211 1.400 . S
C210 N208 1.263 . S
C210 N209 1.358 . S
C210 H216 0.930 . S
C211 N209 1.400 . S
C211 C212 1.351 . S
C211 H228 0.930 . S
C212 N208 1.389 . S
C212 C211 1.351 . S
C212 H217 0.930 . S
O213 Cu207 1.974 . S
O213 C223 1.282 . S
C214 O215 1.261 . S
C214 O227 1.251 . S
O215 C214 1.261 . S
H216 C210 0.930 . S
H217 C212 0.930 . S
N218 Cu207 1.985 . S
N218 C220 1.335 . S
N218 C221 1.390 . S
N219 C220 1.345 . S
N219 C222 1.336 . S
C220 N218 1.335 . S
C220 N219 1.345 . S
C220 H225 0.930 . S
C221 N218 1.390 . S
C221 C222 1.346 . S
C221 H226 0.930 . S
C222 N219 1.336 . S
C222 C221 1.346 . S
C222 H229 0.929 . S
C223 O213 1.282 . S
C223 O224 1.216 . S
O224 C223 1.216 . S
H225 C220 0.930 . S
H226 C221 0.930 . S
O227 Cu207 1.959 . S
O227 C214 1.251 . S
H228 C211 0.930 . S
H229 C222 0.929 . S
Cu230 N231 1.999 . S
Cu230 O236 1.974 . S
Cu230 N241 1.985 . S
Cu230 O250 1.959 . S
N231 Cu230 1.999 . S
N231 C233 1.263 . S
N231 C235 1.389 . S
N232 C233 1.358 . S
N232 C234 1.400 . S
C233 N231 1.263 . S
C233 N232 1.358 . S
C233 H239 0.930 . S
C234 N232 1.400 . S
C234 C235 1.351 . S
C234 H251 0.930 . S
C235 N231 1.389 . S
C235 C234 1.351 . S
C235 H240 0.930 . S
O236 Cu230 1.974 . S
O236 C246 1.282 . S
C237 O238 1.261 . S
C237 O250 1.251 . S
O238 C237 1.261 . S
H239 C233 0.930 . S
H240 C235 0.930 . S
N241 Cu230 1.985 . S
N241 C243 1.335 . S
N241 C244 1.390 . S
N242 C243 1.345 . S
N242 C245 1.336 . S
C243 N241 1.335 . S
C243 N242 1.345 . S
C243 H248 0.930 . S
C244 N241 1.390 . S
C244 C245 1.346 . S
C244 H249 0.930 . S
C245 N242 1.336 . S
C245 C244 1.346 . S
C245 H252 0.929 . S
C246 O236 1.282 . S
C246 O247 1.216 . S
O247 C246 1.216 . S
H248 C243 0.930 . S
H249 C244 0.930 . S
O250 Cu230 1.959 . S
O250 C237 1.251 . S
H251 C234 0.930 . S
H252 C245 0.929 . S
Cu253 N254 1.999 . S
Cu253 O259 1.974 . S
Cu253 N264 1.985 . S
Cu253 O273 1.959 . S
N254 Cu253 1.999 . S
N254 C256 1.263 . S
N254 C258 1.389 . S
N255 C256 1.358 . S
N255 C257 1.400 . S
C256 N254 1.263 . S
C256 N255 1.358 . S
C256 H262 0.930 . S
C257 N255 1.400 . S
C257 C258 1.351 . S
C257 H274 0.930 . S
C258 N254 1.389 . S
C258 C257 1.351 . S
C258 H263 0.930 . S
O259 Cu253 1.974 . S
O259 C269 1.282 . S
C260 O261 1.261 . S
C260 O273 1.251 . S
O261 C260 1.261 . S
H262 C256 0.930 . S
H263 C258 0.930 . S
N264 Cu253 1.985 . S
N264 C266 1.335 . S
N264 C267 1.390 . S
N265 C266 1.345 . S
N265 C268 1.336 . S
C266 N264 1.335 . S
C266 N265 1.345 . S
C266 H271 0.930 . S
C267 N264 1.390 . S
C267 C268 1.346 . S
C267 H272 0.930 . S
C268 N265 1.336 . S
C268 C267 1.346 . S
C268 H275 0.929 . S
C269 O259 1.282 . S
C269 O270 1.216 . S
O270 C269 1.216 . S
H271 C266 0.930 . S
H272 C267 0.930 . S
O273 Cu253 1.959 . S
O273 C260 1.251 . S
H274 C257 0.930 . S
H275 C268 0.929 . S
Gd276 C279 2.818 . S
Gd276 O296 2.377 . S
Gd276 O298 2.448 . S
Gd276 O299 2.506 . S
Gd276 O300 2.435 . S
Gd276 O301 2.717 . S
Gd276 O303 2.395 . S
Gd276 O307 2.327 . S
Gd277 C288 2.818 . S
Gd277 O297 2.395 . S
Gd277 O301 2.327 . S
Gd277 O302 2.377 . S
Gd277 O304 2.448 . S
Gd277 O305 2.506 . S
Gd277 O306 2.435 . S
Gd277 O307 2.717 . S
C278 O296 1.240 . S
C278 O297 1.240 . S
C279 Gd276 2.818 . S
C279 C280 1.510 . S
C279 O298 1.249 . S
C279 O299 1.252 . S
C280 C279 1.510 . S
C280 C281 1.404 . S
C280 C282 1.352 . S
C281 C280 1.404 . S
C281 C285 1.389 . S
C281 H308 0.930 . S
C282 C280 1.352 . S
C282 C284 1.374 . S
C282 H309 0.931 . S
C283 C284 1.359 . S
C283 C285 1.364 . S
C284 C282 1.374 . S
C284 C283 1.359 . S
C284 H310 0.931 . S
C285 C281 1.389 . S
C285 C283 1.364 . S
C285 H311 0.931 . S
C286 O300 1.256 . S
C286 O301 1.257 . S
C287 O302 1.240 . S
C287 O303 1.240 . S
C288 Gd277 2.818 . S
C288 C289 1.510 . S
C288 O304 1.249 . S
C288 O305 1.252 . S
C289 C288 1.510 . S
C289 C290 1.404 . S
C289 C291 1.352 . S
C290 C289 1.404 . S
C290 C294 1.389 . S
C290 H312 0.930 . S
C291 C289 1.352 . S
C291 C293 1.374 . S
C291 H313 0.931 . S
C292 C293 1.359 . S
C292 C294 1.364 . S
C293 C291 1.374 . S
C293 C292 1.359 . S
C293 H314 0.931 . S
C294 C290 1.389 . S
C294 C292 1.364 . S
C294 H315 0.931 . S
C295 O306 1.256 . S
C295 O307 1.257 . S
O296 Gd276 2.377 . S
O296 C278 1.240 . S
O297 Gd277 2.395 . S
O297 C278 1.240 . S
O298 Gd276 2.448 . S
O298 C279 1.249 . S
O299 Gd276 2.506 . S
O299 C279 1.252 . S
O300 Gd276 2.435 . S
O300 C286 1.256 . S
O301 Gd276 2.717 . S
O301 Gd277 2.327 . S
O301 C286 1.257 . S
O302 Gd277 2.377 . S
O302 C287 1.240 . S
O303 Gd276 2.395 . S
O303 C287 1.240 . S
O304 Gd277 2.448 . S
O304 C288 1.249 . S
O305 Gd277 2.506 . S
O305 C288 1.252 . S
O306 Gd277 2.435 . S
O306 C295 1.256 . S
O307 Gd276 2.327 . S
O307 Gd277 2.717 . S
O307 C295 1.257 . S
H308 C281 0.930 . S
H309 C282 0.931 . S
H310 C284 0.931 . S
H311 C285 0.931 . S
H312 C290 0.930 . S
H313 C291 0.931 . S
H314 C293 0.931 . S
H315 C294 0.931 . S
Gd316 C319 2.818 . S
Gd316 O336 2.377 . S
Gd316 O338 2.448 . S
Gd316 O339 2.506 . S
Gd316 O340 2.435 . S
Gd316 O341 2.717 . S
Gd316 O343 2.395 . S
Gd316 O347 2.327 . S
Gd317 C328 2.818 . S
Gd317 O337 2.395 . S
Gd317 O341 2.327 . S
Gd317 O342 2.377 . S
Gd317 O344 2.448 . S
Gd317 O345 2.506 . S
Gd317 O346 2.435 . S
Gd317 O347 2.717 . S
C318 O336 1.240 . S
C318 O337 1.240 . S
C319 Gd316 2.818 . S
C319 C320 1.510 . S
C319 O338 1.249 . S
C319 O339 1.252 . S
C320 C319 1.510 . S
C320 C321 1.404 . S
C320 C322 1.352 . S
C321 C320 1.404 . S
C321 C325 1.389 . S
C321 H348 0.930 . S
C322 C320 1.352 . S
C322 C324 1.374 . S
C322 H349 0.931 . S
C323 C324 1.359 . S
C323 C325 1.364 . S
C324 C322 1.374 . S
C324 C323 1.359 . S
C324 H350 0.931 . S
C325 C321 1.389 . S
C325 C323 1.364 . S
C325 H351 0.931 . S
C326 O340 1.256 . S
C326 O341 1.257 . S
C327 O342 1.240 . S
C327 O343 1.240 . S
C328 Gd317 2.818 . S
C328 C329 1.510 . S
C328 O344 1.249 . S
C328 O345 1.252 . S
C329 C328 1.510 . S
C329 C330 1.404 . S
C329 C331 1.352 . S
C330 C329 1.404 . S
C330 C334 1.389 . S
C330 H352 0.930 . S
C331 C329 1.352 . S
C331 C333 1.374 . S
C331 H353 0.931 . S
C332 C333 1.359 . S
C332 C334 1.364 . S
C333 C331 1.374 . S
C333 C332 1.359 . S
C333 H354 0.931 . S
C334 C330 1.389 . S
C334 C332 1.364 . S
C334 H355 0.931 . S
C335 O346 1.256 . S
C335 O347 1.257 . S
O336 Gd316 2.377 . S
O336 C318 1.240 . S
O337 Gd317 2.395 . S
O337 C318 1.240 . S
O338 Gd316 2.448 . S
O338 C319 1.249 . S
O339 Gd316 2.506 . S
O339 C319 1.252 . S
O340 Gd316 2.435 . S
O340 C326 1.256 . S
O341 Gd316 2.717 . S
O341 Gd317 2.327 . S
O341 C326 1.257 . S
O342 Gd317 2.377 . S
O342 C327 1.240 . S
O343 Gd316 2.395 . S
O343 C327 1.240 . S
O344 Gd317 2.448 . S
O344 C328 1.249 . S
O345 Gd317 2.506 . S
O345 C328 1.252 . S
O346 Gd317 2.435 . S
O346 C335 1.256 . S
O347 Gd316 2.327 . S
O347 Gd317 2.717 . S
O347 C335 1.257 . S
H348 C321 0.930 . S
H349 C322 0.931 . S
H350 C324 0.931 . S
H351 C325 0.931 . S
H352 C330 0.930 . S
H353 C331 0.931 . S
H354 C333 0.931 . S
H355 C334 0.931 . S
Gd356 C359 2.818 . S
Gd356 O376 2.377 . S
Gd356 O378 2.448 . S
Gd356 O379 2.506 . S
Gd356 O380 2.435 . S
Gd356 O381 2.717 . S
Gd356 O383 2.395 . S
Gd356 O387 2.327 . S
Gd357 C368 2.818 . S
Gd357 O377 2.395 . S
Gd357 O381 2.327 . S
Gd357 O382 2.377 . S
Gd357 O384 2.448 . S
Gd357 O385 2.506 . S
Gd357 O386 2.435 . S
Gd357 O387 2.717 . S
C358 O376 1.240 . S
C358 O377 1.240 . S
C359 Gd356 2.818 . S
C359 C360 1.510 . S
C359 O378 1.249 . S
C359 O379 1.252 . S
C360 C359 1.510 . S
C360 C361 1.404 . S
C360 C362 1.352 . S
C361 C360 1.404 . S
C361 C365 1.389 . S
C361 H388 0.930 . S
C362 C360 1.352 . S
C362 C364 1.374 . S
C362 H389 0.931 . S
C363 C364 1.359 . S
C363 C365 1.364 . S
C364 C362 1.374 . S
C364 C363 1.359 . S
C364 H390 0.931 . S
C365 C361 1.389 . S
C365 C363 1.364 . S
C365 H391 0.931 . S
C366 O380 1.256 . S
C366 O381 1.257 . S
C367 O382 1.240 . S
C367 O383 1.240 . S
C368 Gd357 2.818 . S
C368 C369 1.510 . S
C368 O384 1.249 . S
C368 O385 1.252 . S
C369 C368 1.510 . S
C369 C370 1.404 . S
C369 C371 1.352 . S
C370 C369 1.404 . S
C370 C374 1.389 . S
C370 H392 0.930 . S
C371 C369 1.352 . S
C371 C373 1.374 . S
C371 H393 0.931 . S
C372 C373 1.359 . S
C372 C374 1.364 . S
C373 C371 1.374 . S
C373 C372 1.359 . S
C373 H394 0.931 . S
C374 C370 1.389 . S
C374 C372 1.364 . S
C374 H395 0.931 . S
C375 O386 1.256 . S
C375 O387 1.257 . S
O376 Gd356 2.377 . S
O376 C358 1.240 . S
O377 Gd357 2.395 . S
O377 C358 1.240 . S
O378 Gd356 2.448 . S
O378 C359 1.249 . S
O379 Gd356 2.506 . S
O379 C359 1.252 . S
O380 Gd356 2.435 . S
O380 C366 1.256 . S
O381 Gd356 2.717 . S
O381 Gd357 2.327 . S
O381 C366 1.257 . S
O382 Gd357 2.377 . S
O382 C367 1.240 . S
O383 Gd356 2.395 . S
O383 C367 1.240 . S
O384 Gd357 2.448 . S
O384 C368 1.249 . S
O385 Gd357 2.506 . S
O385 C368 1.252 . S
O386 Gd357 2.435 . S
O386 C375 1.256 . S
O387 Gd356 2.327 . S
O387 Gd357 2.717 . S
O387 C375 1.257 . S
H388 C361 0.930 . S
H389 C362 0.931 . S
H390 C364 0.931 . S
H391 C365 0.931 . S
H392 C370 0.930 . S
H393 C371 0.931 . S
H394 C373 0.931 . S
H395 C374 0.931 . S
Gd396 C399 2.818 . S
Gd396 O416 2.377 . S
Gd396 O418 2.448 . S
Gd396 O419 2.506 . S
Gd396 O420 2.435 . S
Gd396 O421 2.717 . S
Gd396 O423 2.395 . S
Gd396 O427 2.327 . S
Gd397 C408 2.818 . S
Gd397 O417 2.395 . S
Gd397 O421 2.327 . S
Gd397 O422 2.377 . S
Gd397 O424 2.448 . S
Gd397 O425 2.506 . S
Gd397 O426 2.435 . S
Gd397 O427 2.717 . S
C398 O416 1.240 . S
C398 O417 1.240 . S
C399 Gd396 2.818 . S
C399 C400 1.510 . S
C399 O418 1.249 . S
C399 O419 1.252 . S
C400 C399 1.510 . S
C400 C401 1.404 . S
C400 C402 1.352 . S
C401 C400 1.404 . S
C401 C405 1.389 . S
C401 H428 0.930 . S
C402 C400 1.352 . S
C402 C404 1.374 . S
C402 H429 0.931 . S
C403 C404 1.359 . S
C403 C405 1.364 . S
C404 C402 1.374 . S
C404 C403 1.359 . S
C404 H430 0.931 . S
C405 C401 1.389 . S
C405 C403 1.364 . S
C405 H431 0.931 . S
C406 O420 1.256 . S
C406 O421 1.257 . S
C407 O422 1.240 . S
C407 O423 1.240 . S
C408 Gd397 2.818 . S
C408 C409 1.510 . S
C408 O424 1.249 . S
C408 O425 1.252 . S
C409 C408 1.510 . S
C409 C410 1.404 . S
C409 C411 1.352 . S
C410 C409 1.404 . S
C410 C414 1.389 . S
C410 H432 0.930 . S
C411 C409 1.352 . S
C411 C413 1.374 . S
C411 H433 0.931 . S
C412 C413 1.359 . S
C412 C414 1.364 . S
C413 C411 1.374 . S
C413 C412 1.359 . S
C413 H434 0.931 . S
C414 C410 1.389 . S
C414 C412 1.364 . S
C414 H435 0.931 . S
C415 O426 1.256 . S
C415 O427 1.257 . S
O416 Gd396 2.377 . S
O416 C398 1.240 . S
O417 Gd397 2.395 . S
O417 C398 1.240 . S
O418 Gd396 2.448 . S
O418 C399 1.249 . S
O419 Gd396 2.506 . S
O419 C399 1.252 . S
O420 Gd396 2.435 . S
O420 C406 1.256 . S
O421 Gd396 2.717 . S
O421 Gd397 2.327 . S
O421 C406 1.257 . S
O422 Gd397 2.377 . S
O422 C407 1.240 . S
O423 Gd396 2.395 . S
O423 C407 1.240 . S
O424 Gd397 2.448 . S
O424 C408 1.249 . S
O425 Gd397 2.506 . S
O425 C408 1.252 . S
O426 Gd397 2.435 . S
O426 C415 1.256 . S
O427 Gd396 2.327 . S
O427 Gd397 2.717 . S
O427 C415 1.257 . S
H428 C401 0.930 . S
H429 C402 0.931 . S
H430 C404 0.931 . S
H431 C405 0.931 . S
H432 C410 0.930 . S
H433 C411 0.931 . S
H434 C413 0.931 . S
H435 C414 0.931 . S
Gd436 C439 2.818 . S
Gd436 O456 2.377 . S
Gd436 O458 2.448 . S
Gd436 O459 2.506 . S
Gd436 O460 2.435 . S
Gd436 O461 2.717 . S
Gd436 O463 2.395 . S
Gd436 O467 2.327 . S
Gd437 C448 2.818 . S
Gd437 O457 2.395 . S
Gd437 O461 2.327 . S
Gd437 O462 2.377 . S
Gd437 O464 2.448 . S
Gd437 O465 2.506 . S
Gd437 O466 2.435 . S
Gd437 O467 2.717 . S
C438 O456 1.240 . S
C438 O457 1.240 . S
C439 Gd436 2.818 . S
C439 C440 1.510 . S
C439 O458 1.249 . S
C439 O459 1.252 . S
C440 C439 1.510 . S
C440 C441 1.404 . S
C440 C442 1.352 . S
C441 C440 1.404 . S
C441 C445 1.389 . S
C441 H468 0.930 . S
C442 C440 1.352 . S
C442 C444 1.374 . S
C442 H469 0.931 . S
C443 C444 1.359 . S
C443 C445 1.364 . S
C444 C442 1.374 . S
C444 C443 1.359 . S
C444 H470 0.931 . S
C445 C441 1.389 . S
C445 C443 1.364 . S
C445 H471 0.931 . S
C446 O460 1.256 . S
C446 O461 1.257 . S
C447 O462 1.240 . S
C447 O463 1.240 . S
C448 Gd437 2.818 . S
C448 C449 1.510 . S
C448 O464 1.249 . S
C448 O465 1.252 . S
C449 C448 1.510 . S
C449 C450 1.404 . S
C449 C451 1.352 . S
C450 C449 1.404 . S
C450 C454 1.389 . S
C450 H472 0.930 . S
C451 C449 1.352 . S
C451 C453 1.374 . S
C451 H473 0.931 . S
C452 C453 1.359 . S
C452 C454 1.364 . S
C453 C451 1.374 . S
C453 C452 1.359 . S
C453 H474 0.931 . S
C454 C450 1.389 . S
C454 C452 1.364 . S
C454 H475 0.931 . S
C455 O466 1.256 . S
C455 O467 1.257 . S
O456 Gd436 2.377 . S
O456 C438 1.240 . S
O457 Gd437 2.395 . S
O457 C438 1.240 . S
O458 Gd436 2.448 . S
O458 C439 1.249 . S
O459 Gd436 2.506 . S
O459 C439 1.252 . S
O460 Gd436 2.435 . S
O460 C446 1.256 . S
O461 Gd436 2.717 . S
O461 Gd437 2.327 . S
O461 C446 1.257 . S
O462 Gd437 2.377 . S
O462 C447 1.240 . S
O463 Gd436 2.395 . S
O463 C447 1.240 . S
O464 Gd437 2.448 . S
O464 C448 1.249 . S
O465 Gd437 2.506 . S
O465 C448 1.252 . S
O466 Gd437 2.435 . S
O466 C455 1.256 . S
O467 Gd436 2.327 . S
O467 Gd437 2.717 . S
O467 C455 1.257 . S
H468 C441 0.930 . S
H469 C442 0.931 . S
H470 C444 0.931 . S
H471 C445 0.931 . S
H472 C450 0.930 . S
H473 C451 0.931 . S
H474 C453 0.931 . S
H475 C454 0.931 . S
Gd476 C479 2.818 . S
Gd476 O496 2.377 . S
Gd476 O498 2.448 . S
Gd476 O499 2.506 . S
Gd476 O500 2.435 . S
Gd476 O501 2.717 . S
Gd476 O503 2.395 . S
Gd476 O507 2.327 . S
Gd477 C488 2.818 . S
Gd477 O497 2.395 . S
Gd477 O501 2.327 . S
Gd477 O502 2.377 . S
Gd477 O504 2.448 . S
Gd477 O505 2.506 . S
Gd477 O506 2.435 . S
Gd477 O507 2.717 . S
C478 O496 1.240 . S
C478 O497 1.240 . S
C479 Gd476 2.818 . S
C479 C480 1.510 . S
C479 O498 1.249 . S
C479 O499 1.252 . S
C480 C479 1.510 . S
C480 C481 1.404 . S
C480 C482 1.352 . S
C481 C480 1.404 . S
C481 C485 1.389 . S
C481 H508 0.930 . S
C482 C480 1.352 . S
C482 C484 1.374 . S
C482 H509 0.931 . S
C483 C484 1.359 . S
C483 C485 1.364 . S
C484 C482 1.374 . S
C484 C483 1.359 . S
C484 H510 0.931 . S
C485 C481 1.389 . S
C485 C483 1.364 . S
C485 H511 0.931 . S
C486 O500 1.256 . S
C486 O501 1.257 . S
C487 O502 1.240 . S
C487 O503 1.240 . S
C488 Gd477 2.818 . S
C488 C489 1.510 . S
C488 O504 1.249 . S
C488 O505 1.252 . S
C489 C488 1.510 . S
C489 C490 1.404 . S
C489 C491 1.352 . S
C490 C489 1.404 . S
C490 C494 1.389 . S
C490 H512 0.930 . S
C491 C489 1.352 . S
C491 C493 1.374 . S
C491 H513 0.931 . S
C492 C493 1.359 . S
C492 C494 1.364 . S
C493 C491 1.374 . S
C493 C492 1.359 . S
C493 H514 0.931 . S
C494 C490 1.389 . S
C494 C492 1.364 . S
C494 H515 0.931 . S
C495 O506 1.256 . S
C495 O507 1.257 . S
O496 Gd476 2.377 . S
O496 C478 1.240 . S
O497 Gd477 2.395 . S
O497 C478 1.240 . S
O498 Gd476 2.448 . S
O498 C479 1.249 . S
O499 Gd476 2.506 . S
O499 C479 1.252 . S
O500 Gd476 2.435 . S
O500 C486 1.256 . S
O501 Gd476 2.717 . S
O501 Gd477 2.327 . S
O501 C486 1.257 . S
O502 Gd477 2.377 . S
O502 C487 1.240 . S
O503 Gd476 2.395 . S
O503 C487 1.240 . S
O504 Gd477 2.448 . S
O504 C488 1.249 . S
O505 Gd477 2.506 . S
O505 C488 1.252 . S
O506 Gd477 2.435 . S
O506 C495 1.256 . S
O507 Gd476 2.327 . S
O507 Gd477 2.717 . S
O507 C495 1.257 . S
H508 C481 0.930 . S
H509 C482 0.931 . S
H510 C484 0.931 . S
H511 C485 0.931 . S
H512 C490 0.930 . S
H513 C491 0.931 . S
H514 C493 0.931 . S
H515 C494 0.931 . S
Gd516 C519 2.818 . S
Gd516 O536 2.377 . S
Gd516 O538 2.448 . S
Gd516 O539 2.506 . S
Gd516 O540 2.435 . S
Gd516 O541 2.717 . S
Gd516 O543 2.395 . S
Gd516 O547 2.327 . S
Gd517 C528 2.818 . S
Gd517 O537 2.395 . S
Gd517 O541 2.327 . S
Gd517 O542 2.377 . S
Gd517 O544 2.448 . S
Gd517 O545 2.506 . S
Gd517 O546 2.435 . S
Gd517 O547 2.717 . S
C518 O536 1.240 . S
C518 O537 1.240 . S
C519 Gd516 2.818 . S
C519 C520 1.510 . S
C519 O538 1.249 . S
C519 O539 1.252 . S
C520 C519 1.510 . S
C520 C521 1.404 . S
C520 C522 1.352 . S
C521 C520 1.404 . S
C521 C525 1.389 . S
C521 H548 0.930 . S
C522 C520 1.352 . S
C522 C524 1.374 . S
C522 H549 0.931 . S
C523 C524 1.359 . S
C523 C525 1.364 . S
C524 C522 1.374 . S
C524 C523 1.359 . S
C524 H550 0.931 . S
C525 C521 1.389 . S
C525 C523 1.364 . S
C525 H551 0.931 . S
C526 O540 1.256 . S
C526 O541 1.257 . S
C527 O542 1.240 . S
C527 O543 1.240 . S
C528 Gd517 2.818 . S
C528 C529 1.510 . S
C528 O544 1.249 . S
C528 O545 1.252 . S
C529 C528 1.510 . S
C529 C530 1.404 . S
C529 C531 1.352 . S
C530 C529 1.404 . S
C530 C534 1.389 . S
C530 H552 0.930 . S
C531 C529 1.352 . S
C531 C533 1.374 . S
C531 H553 0.931 . S
C532 C533 1.359 . S
C532 C534 1.364 . S
C533 C531 1.374 . S
C533 C532 1.359 . S
C533 H554 0.931 . S
C534 C530 1.389 . S
C534 C532 1.364 . S
C534 H555 0.931 . S
C535 O546 1.256 . S
C535 O547 1.257 . S
O536 Gd516 2.377 . S
O536 C518 1.240 . S
O537 Gd517 2.395 . S
O537 C518 1.240 . S
O538 Gd516 2.448 . S
O538 C519 1.249 . S
O539 Gd516 2.506 . S
O539 C519 1.252 . S
O540 Gd516 2.435 . S
O540 C526 1.256 . S
O541 Gd516 2.717 . S
O541 Gd517 2.327 . S
O541 C526 1.257 . S
O542 Gd517 2.377 . S
O542 C527 1.240 . S
O543 Gd516 2.395 . S
O543 C527 1.240 . S
O544 Gd517 2.448 . S
O544 C528 1.249 . S
O545 Gd517 2.506 . S
O545 C528 1.252 . S
O546 Gd517 2.435 . S
O546 C535 1.256 . S
O547 Gd516 2.327 . S
O547 Gd517 2.717 . S
O547 C535 1.257 . S
H548 C521 0.930 . S
H549 C522 0.931 . S
H550 C524 0.931 . S
H551 C525 0.931 . S
H552 C530 0.930 . S
H553 C531 0.931 . S
H554 C533 0.931 . S
H555 C534 0.931 . S
Gd556 C559 2.818 . S
Gd556 O576 2.377 . S
Gd556 O578 2.448 . S
Gd556 O579 2.506 . S
Gd556 O580 2.435 . S
Gd556 O581 2.717 . S
Gd556 O583 2.395 . S
Gd556 O587 2.327 . S
Gd557 C568 2.818 . S
Gd557 O577 2.395 . S
Gd557 O581 2.327 . S
Gd557 O582 2.377 . S
Gd557 O584 2.448 . S
Gd557 O585 2.506 . S
Gd557 O586 2.435 . S
Gd557 O587 2.717 . S
C558 O576 1.240 . S
C558 O577 1.240 . S
C559 Gd556 2.818 . S
C559 C560 1.510 . S
C559 O578 1.249 . S
C559 O579 1.252 . S
C560 C559 1.510 . S
C560 C561 1.404 . S
C560 C562 1.352 . S
C561 C560 1.404 . S
C561 C565 1.389 . S
C561 H588 0.930 . S
C562 C560 1.352 . S
C562 C564 1.374 . S
C562 H589 0.931 . S
C563 C564 1.359 . S
C563 C565 1.364 . S
C564 C562 1.374 . S
C564 C563 1.359 . S
C564 H590 0.931 . S
C565 C561 1.389 . S
C565 C563 1.364 . S
C565 H591 0.931 . S
C566 O580 1.256 . S
C566 O581 1.257 . S
C567 O582 1.240 . S
C567 O583 1.240 . S
C568 Gd557 2.818 . S
C568 C569 1.510 . S
C568 O584 1.249 . S
C568 O585 1.252 . S
C569 C568 1.510 . S
C569 C570 1.404 . S
C569 C571 1.352 . S
C570 C569 1.404 . S
C570 C574 1.389 . S
C570 H592 0.930 . S
C571 C569 1.352 . S
C571 C573 1.374 . S
C571 H593 0.931 . S
C572 C573 1.359 . S
C572 C574 1.364 . S
C573 C571 1.374 . S
C573 C572 1.359 . S
C573 H594 0.931 . S
C574 C570 1.389 . S
C574 C572 1.364 . S
C574 H595 0.931 . S
C575 O586 1.256 . S
C575 O587 1.257 . S
O576 Gd556 2.377 . S
O576 C558 1.240 . S
O577 Gd557 2.395 . S
O577 C558 1.240 . S
O578 Gd556 2.448 . S
O578 C559 1.249 . S
O579 Gd556 2.506 . S
O579 C559 1.252 . S
O580 Gd556 2.435 . S
O580 C566 1.256 . S
O581 Gd556 2.717 . S
O581 Gd557 2.327 . S
O581 C566 1.257 . S
O582 Gd557 2.377 . S
O582 C567 1.240 . S
O583 Gd556 2.395 . S
O583 C567 1.240 . S
O584 Gd557 2.448 . S
O584 C568 1.249 . S
O585 Gd557 2.506 . S
O585 C568 1.252 . S
O586 Gd557 2.435 . S
O586 C575 1.256 . S
O587 Gd556 2.327 . S
O587 Gd557 2.717 . S
O587 C575 1.257 . S
H588 C561 0.930 . S
H589 C562 0.931 . S
H590 C564 0.931 . S
H591 C565 0.931 . S
H592 C570 0.930 . S
H593 C571 0.931 . S
H594 C573 0.931 . S
H595 C574 0.931 . S
C596 C597 1.349 . S
C596 C598 1.327 . S
C596 H621 0.950 . S
C597 C596 1.349 . S
C597 C613 1.349 . S
C598 C596 1.327 . S
C598 C617 1.429 . S
C598 H622 0.950 . S
C599 C616 1.574 . S
C599 C618 1.368 . S
C599 H623 0.949 . S
H600 C604 0.949 . S
C601 C602 1.349 . S
C601 C603 1.327 . S
C601 H624 0.950 . S
C602 C601 1.349 . S
C602 C614 1.349 . S
C603 C601 1.327 . S
C603 C619 1.429 . S
C603 H625 0.950 . S
C604 H600 0.949 . S
C604 C612 1.574 . S
C604 C620 1.368 . S
H605 C613 0.950 . S
H606 C611 0.950 . S
H607 C612 0.949 . S
H608 C614 0.950 . S
H609 C615 0.950 . S
H610 C616 0.949 . S
C611 H606 0.950 . S
C611 C613 1.327 . S
C611 C617 1.429 . S
C612 C604 1.574 . S
C612 H607 0.949 . S
C612 C618 1.368 . S
C613 C597 1.349 . S
C613 H605 0.950 . S
C613 C611 1.327 . S
C614 C602 1.349 . S
C614 H608 0.950 . S
C614 C615 1.327 . S
C615 H609 0.950 . S
C615 C614 1.327 . S
C615 C619 1.429 . S
C616 C599 1.574 . S
C616 H610 0.949 . S
C616 C620 1.368 . S
C617 C598 1.429 . S
C617 C611 1.429 . S
C617 C618 1.523 . S
C618 C599 1.368 . S
C618 C612 1.368 . S
C618 C617 1.523 . S
C619 C603 1.429 . S
C619 C615 1.429 . S
C619 C620 1.523 . S
C620 C604 1.368 . S
C620 C616 1.368 . S
C620 C619 1.523 . S
H621 C596 0.950 . S
H622 C598 0.950 . S
H623 C599 0.949 . S
H624 C601 0.950 . S
H625 C603 0.950 . S
C626 C627 1.349 . S
C626 C628 1.327 . S
C626 H651 0.950 . S
C627 C626 1.349 . S
C627 C643 1.349 . S
C628 C626 1.327 . S
C628 C647 1.429 . S
C628 H652 0.950 . S
C629 C646 1.574 . S
C629 C648 1.368 . S
C629 H653 0.949 . S
H630 C634 0.949 . S
C631 C632 1.349 . S
C631 C633 1.327 . S
C631 H654 0.950 . S
C632 C631 1.349 . S
C632 C644 1.349 . S
C633 C631 1.327 . S
C633 C649 1.429 . S
C633 H655 0.950 . S
C634 H630 0.949 . S
C634 C642 1.574 . S
C634 C650 1.368 . S
H635 C643 0.950 . S
H636 C641 0.950 . S
H637 C642 0.949 . S
H638 C644 0.950 . S
H639 C645 0.950 . S
H640 C646 0.949 . S
C641 H636 0.950 . S
C641 C643 1.327 . S
C641 C647 1.429 . S
C642 C634 1.574 . S
C642 H637 0.949 . S
C642 C648 1.368 . S
C643 C627 1.349 . S
C643 H635 0.950 . S
C643 C641 1.327 . S
C644 C632 1.349 . S
C644 H638 0.950 . S
C644 C645 1.327 . S
C645 H639 0.950 . S
C645 C644 1.327 . S
C645 C649 1.429 . S
C646 C629 1.574 . S
C646 H640 0.949 . S
C646 C650 1.368 . S
C647 C628 1.429 . S
C647 C641 1.429 . S
C647 C648 1.523 . S
C648 C629 1.368 . S
C648 C642 1.368 . S
C648 C647 1.523 . S
C649 C633 1.429 . S
C649 C645 1.429 . S
C649 C650 1.523 . S
C650 C634 1.368 . S
C650 C646 1.368 . S
C650 C649 1.523 . S
H651 C626 0.950 . S
H652 C628 0.950 . S
H653 C629 0.949 . S
H654 C631 0.950 . S
H655 C633 0.950 . S
C656 C657 1.349 . S
C656 C658 1.327 . S
C656 H681 0.950 . S
C657 C656 1.349 . S
C657 C673 1.349 . S
C658 C656 1.327 . S
C658 C677 1.429 . S
C658 H682 0.950 . S
C659 C676 1.574 . S
C659 C678 1.368 . S
C659 H683 0.949 . S
H660 C664 0.949 . S
C661 C662 1.349 . S
C661 C663 1.327 . S
C661 H684 0.950 . S
C662 C661 1.349 . S
C662 C674 1.349 . S
C663 C661 1.327 . S
C663 C679 1.429 . S
C663 H685 0.950 . S
C664 H660 0.949 . S
C664 C672 1.574 . S
C664 C680 1.368 . S
H665 C673 0.950 . S
H666 C671 0.950 . S
H667 C672 0.949 . S
H668 C674 0.950 . S
H669 C675 0.950 . S
H670 C676 0.949 . S
C671 H666 0.950 . S
C671 C673 1.327 . S
C671 C677 1.429 . S
C672 C664 1.574 . S
C672 H667 0.949 . S
C672 C678 1.368 . S
C673 C657 1.349 . S
C673 H665 0.950 . S
C673 C671 1.327 . S
C674 C662 1.349 . S
C674 H668 0.950 . S
C674 C675 1.327 . S
C675 H669 0.950 . S
C675 C674 1.327 . S
C675 C679 1.429 . S
C676 C659 1.574 . S
C676 H670 0.949 . S
C676 C680 1.368 . S
C677 C658 1.429 . S
C677 C671 1.429 . S
C677 C678 1.523 . S
C678 C659 1.368 . S
C678 C672 1.368 . S
C678 C677 1.523 . S
C679 C663 1.429 . S
C679 C675 1.429 . S
C679 C680 1.523 . S
C680 C664 1.368 . S
C680 C676 1.368 . S
C680 C679 1.523 . S
H681 C656 0.950 . S
H682 C658 0.950 . S
H683 C659 0.949 . S
H684 C661 0.950 . S
H685 C663 0.950 . S
C686 C687 1.349 . S
C686 C688 1.327 . S
C686 H711 0.950 . S
C687 C686 1.349 . S
C687 C703 1.349 . S
C688 C686 1.327 . S
C688 C707 1.429 . S
C688 H712 0.950 . S
C689 C706 1.574 . S
C689 C708 1.368 . S
C689 H713 0.949 . S
H690 C694 0.949 . S
C691 C692 1.349 . S
C691 C693 1.327 . S
C691 H714 0.950 . S
C692 C691 1.349 . S
C692 C704 1.349 . S
C693 C691 1.327 . S
C693 C709 1.429 . S
C693 H715 0.950 . S
C694 H690 0.949 . S
C694 C702 1.574 . S
C694 C710 1.368 . S
H695 C703 0.950 . S
H696 C701 0.950 . S
H697 C702 0.949 . S
H698 C704 0.950 . S
H699 C705 0.950 . S
H700 C706 0.949 . S
C701 H696 0.950 . S
C701 C703 1.327 . S
C701 C707 1.429 . S
C702 C694 1.574 . S
C702 H697 0.949 . S
C702 C708 1.368 . S
C703 C687 1.349 . S
C703 H695 0.950 . S
C703 C701 1.327 . S
C704 C692 1.349 . S
C704 H698 0.950 . S
C704 C705 1.327 . S
C705 H699 0.950 . S
C705 C704 1.327 . S
C705 C709 1.429 . S
C706 C689 1.574 . S
C706 H700 0.949 . S
C706 C710 1.368 . S
C707 C688 1.429 . S
C707 C701 1.429 . S
C707 C708 1.523 . S
C708 C689 1.368 . S
C708 C702 1.368 . S
C708 C707 1.523 . S
C709 C693 1.429 . S
C709 C705 1.429 . S
C709 C710 1.523 . S
C710 C694 1.368 . S
C710 C706 1.368 . S
C710 C709 1.523 . S
H711 C686 0.950 . S
H712 C688 0.950 . S
H713 C689 0.949 . S
H714 C691 0.950 . S
H715 C693 0.950 . S
C716 C717 1.349 . S
C716 C718 1.327 . S
C716 H741 0.950 . S
C717 C716 1.349 . S
C717 C733 1.349 . S
C718 C716 1.327 . S
C718 C737 1.429 . S
C718 H742 0.950 . S
C719 C736 1.574 . S
C719 C738 1.368 . S
C719 H743 0.949 . S
H720 C724 0.949 . S
C721 C722 1.349 . S
C721 C723 1.327 . S
C721 H744 0.950 . S
C722 C721 1.349 . S
C722 C734 1.349 . S
C723 C721 1.327 . S
C723 C739 1.429 . S
C723 H745 0.950 . S
C724 H720 0.949 . S
C724 C732 1.574 . S
C724 C740 1.368 . S
H725 C733 0.950 . S
H726 C731 0.950 . S
H727 C732 0.949 . S
H728 C734 0.950 . S
H729 C735 0.950 . S
H730 C736 0.949 . S
C731 H726 0.950 . S
C731 C733 1.327 . S
C731 C737 1.429 . S
C732 C724 1.574 . S
C732 H727 0.949 . S
C732 C738 1.368 . S
C733 C717 1.349 . S
C733 H725 0.950 . S
C733 C731 1.327 . S
C734 C722 1.349 . S
C734 H728 0.950 . S
C734 C735 1.327 . S
C735 H729 0.950 . S
C735 C734 1.327 . S
C735 C739 1.429 . S
C736 C719 1.574 . S
C736 H730 0.949 . S
C736 C740 1.368 . S
C737 C718 1.429 . S
C737 C731 1.429 . S
C737 C738 1.523 . S
C738 C719 1.368 . S
C738 C732 1.368 . S
C738 C737 1.523 . S
C739 C723 1.429 . S
C739 C735 1.429 . S
C739 C740 1.523 . S
C740 C724 1.368 . S
C740 C736 1.368 . S
C740 C739 1.523 . S
H741 C716 0.950 . S
H742 C718 0.950 . S
H743 C719 0.949 . S
H744 C721 0.950 . S
H745 C723 0.950 . S
C746 C747 1.349 . S
C746 C748 1.327 . S
C746 H771 0.950 . S
C747 C746 1.349 . S
C747 C763 1.349 . S
C748 C746 1.327 . S
C748 C767 1.429 . S
C748 H772 0.950 . S
C749 C766 1.574 . S
C749 C768 1.368 . S
C749 H773 0.949 . S
H750 C754 0.949 . S
C751 C752 1.349 . S
C751 C753 1.327 . S
C751 H774 0.950 . S
C752 C751 1.349 . S
C752 C764 1.349 . S
C753 C751 1.327 . S
C753 C769 1.429 . S
C753 H775 0.950 . S
C754 H750 0.949 . S
C754 C762 1.574 . S
C754 C770 1.368 . S
H755 C763 0.950 . S
H756 C761 0.950 . S
H757 C762 0.949 . S
H758 C764 0.950 . S
H759 C765 0.950 . S
H760 C766 0.949 . S
C761 H756 0.950 . S
C761 C763 1.327 . S
C761 C767 1.429 . S
C762 C754 1.574 . S
C762 H757 0.949 . S
C762 C768 1.368 . S
C763 C747 1.349 . S
C763 H755 0.950 . S
C763 C761 1.327 . S
C764 C752 1.349 . S
C764 H758 0.950 . S
C764 C765 1.327 . S
C765 H759 0.950 . S
C765 C764 1.327 . S
C765 C769 1.429 . S
C766 C749 1.574 . S
C766 H760 0.949 . S
C766 C770 1.368 . S
C767 C748 1.429 . S
C767 C761 1.429 . S
C767 C768 1.523 . S
C768 C749 1.368 . S
C768 C762 1.368 . S
C768 C767 1.523 . S
C769 C753 1.429 . S
C769 C765 1.429 . S
C769 C770 1.523 . S
C770 C754 1.368 . S
C770 C766 1.368 . S
C770 C769 1.523 . S
H771 C746 0.950 . S
H772 C748 0.950 . S
H773 C749 0.949 . S
H774 C751 0.950 . S
H775 C753 0.950 . S
C776 C777 1.349 . S
C776 C778 1.327 . S
C776 H801 0.950 . S
C777 C776 1.349 . S
C777 C793 1.349 . S
C778 C776 1.327 . S
C778 C797 1.429 . S
C778 H802 0.950 . S
C779 C796 1.574 . S
C779 C798 1.368 . S
C779 H803 0.949 . S
H780 C784 0.949 . S
C781 C782 1.349 . S
C781 C783 1.327 . S
C781 H804 0.950 . S
C782 C781 1.349 . S
C782 C794 1.349 . S
C783 C781 1.327 . S
C783 C799 1.429 . S
C783 H805 0.950 . S
C784 H780 0.949 . S
C784 C792 1.574 . S
C784 C800 1.368 . S
H785 C793 0.950 . S
H786 C791 0.950 . S
H787 C792 0.949 . S
H788 C794 0.950 . S
H789 C795 0.950 . S
H790 C796 0.949 . S
C791 H786 0.950 . S
C791 C793 1.327 . S
C791 C797 1.429 . S
C792 C784 1.574 . S
C792 H787 0.949 . S
C792 C798 1.368 . S
C793 C777 1.349 . S
C793 H785 0.950 . S
C793 C791 1.327 . S
C794 C782 1.349 . S
C794 H788 0.950 . S
C794 C795 1.327 . S
C795 H789 0.950 . S
C795 C794 1.327 . S
C795 C799 1.429 . S
C796 C779 1.574 . S
C796 H790 0.949 . S
C796 C800 1.368 . S
C797 C778 1.429 . S
C797 C791 1.429 . S
C797 C798 1.523 . S
C798 C779 1.368 . S
C798 C792 1.368 . S
C798 C797 1.523 . S
C799 C783 1.429 . S
C799 C795 1.429 . S
C799 C800 1.523 . S
C800 C784 1.368 . S
C800 C796 1.368 . S
C800 C799 1.523 . S
H801 C776 0.950 . S
H802 C778 0.950 . S
H803 C779 0.949 . S
H804 C781 0.950 . S
H805 C783 0.950 . S
C806 C807 1.349 . S
C806 C808 1.327 . S
C806 H831 0.950 . S
C807 C806 1.349 . S
C807 C823 1.342 1_565 S
C808 C806 1.327 . S
C808 C827 1.429 . S
C808 H832 0.950 . S
C809 C826 1.574 . S
C809 C828 1.368 . S
C809 H833 0.949 . S
H810 C814 0.949 . S
C811 C812 1.349 . S
C811 C813 1.327 . S
C811 H834 0.950 . S
C812 C811 1.349 . S
C812 C824 1.349 . S
C813 C811 1.327 . S
C813 C829 1.429 . S
C813 H835 0.950 . S
C814 H810 0.949 . S
C814 C822 1.574 . S
C814 C830 1.368 . S
H815 C823 0.978 . S
H816 C821 0.950 . S
H817 C822 0.949 . S
H818 C824 0.950 . S
H819 C825 0.950 . S
H820 C826 0.949 . S
C821 H816 0.950 . S
C821 C823 1.307 1_565 S
C821 C827 1.429 . S
C822 C814 1.574 . S
C822 H817 0.949 . S
C822 C828 1.368 . S
C823 C807 1.342 1_545 S
C823 H815 0.978 . S
C823 C821 1.307 1_545 S
C824 C812 1.349 . S
C824 H818 0.950 . S
C824 C825 1.327 . S
C825 H819 0.950 . S
C825 C824 1.327 . S
C825 C829 1.429 . S
C826 C809 1.574 . S
C826 H820 0.949 . S
C826 C830 1.368 . S
C827 C808 1.429 . S
C827 C821 1.429 . S
C827 C828 1.523 . S
C828 C809 1.368 . S
C828 C822 1.368 . S
C828 C827 1.523 . S
C829 C813 1.429 . S
C829 C825 1.429 . S
C829 C830 1.523 . S
C830 C814 1.368 . S
C830 C826 1.368 . S
C830 C829 1.523 . S
H831 C806 0.950 . S
H832 C808 0.950 . S
H833 C809 0.949 . S
H834 C811 0.950 . S
H835 C813 0.950 . S
C836 C837 1.349 . S
C836 C838 1.327 . S
C836 H861 0.950 . S
C837 C836 1.349 . S
C837 C853 1.349 . S
C838 C836 1.327 . S
C838 C857 1.429 . S
C838 H862 0.950 . S
C839 C856 1.574 . S
C839 C858 1.368 . S
C839 H863 0.949 . S
H840 C844 0.949 . S
C841 C842 1.349 . S
C841 C843 1.327 . S
C841 H864 0.950 . S
C842 C841 1.349 . S
C842 C854 1.349 . S
C843 C841 1.327 . S
C843 C859 1.429 . S
C843 H865 0.950 . S
C844 H840 0.949 . S
C844 C852 1.574 . S
C844 C860 1.368 . S
H845 C853 0.950 . S
H846 C851 0.950 . S
H847 C852 0.949 . S
H848 C854 0.950 . S
H849 C855 0.950 . S
H850 C856 0.949 . S
C851 H846 0.950 . S
C851 C853 1.327 . S
C851 C857 1.429 . S
C852 C844 1.574 . S
C852 H847 0.949 . S
C852 C858 1.368 . S
C853 C837 1.349 . S
C853 H845 0.950 . S
C853 C851 1.327 . S
C854 C842 1.349 . S
C854 H848 0.950 . S
C854 C855 1.327 . S
C855 H849 0.950 . S
C855 C854 1.327 . S
C855 C859 1.429 . S
C856 C839 1.574 . S
C856 H850 0.949 . S
C856 C860 1.368 . S
C857 C838 1.429 . S
C857 C851 1.429 . S
C857 C858 1.523 . S
C858 C839 1.368 . S
C858 C852 1.368 . S
C858 C857 1.523 . S
C859 C843 1.429 . S
C859 C855 1.429 . S
C859 C860 1.523 . S
C860 C844 1.368 . S
C860 C856 1.368 . S
C860 C859 1.523 . S
H861 C836 0.950 . S
H862 C838 0.950 . S
H863 C839 0.949 . S
H864 C841 0.950 . S
H865 C843 0.950 . S
C866 C867 1.349 . S
C866 C868 1.327 . S
C866 H891 0.950 . S
C867 C866 1.349 . S
C867 C883 1.349 . S
C868 C866 1.327 . S
C868 C887 1.429 . S
C868 H892 0.950 . S
C869 C886 1.574 . S
C869 C888 1.368 . S
C869 H893 0.949 . S
H870 C874 0.949 . S
C871 C872 1.349 . S
C871 C873 1.327 . S
C871 H894 0.950 . S
C872 C871 1.349 . S
C872 C884 1.349 . S
C873 C871 1.327 . S
C873 C889 1.429 . S
C873 H895 0.950 . S
C874 H870 0.949 . S
C874 C882 1.574 . S
C874 C890 1.368 . S
H875 C883 0.950 . S
H876 C881 0.950 . S
H877 C882 0.949 . S
H878 C884 0.950 . S
H879 C885 0.950 . S
H880 C886 0.949 . S
C881 H876 0.950 . S
C881 C883 1.327 . S
C881 C887 1.429 . S
C882 C874 1.574 . S
C882 H877 0.949 . S
C882 C888 1.368 . S
C883 C867 1.349 . S
C883 H875 0.950 . S
C883 C881 1.327 . S
C884 C872 1.349 . S
C884 H878 0.950 . S
C884 C885 1.327 . S
C885 H879 0.950 . S
C885 C884 1.327 . S
C885 C889 1.429 . S
C886 C869 1.574 . S
C886 H880 0.949 . S
C886 C890 1.368 . S
C887 C868 1.429 . S
C887 C881 1.429 . S
C887 C888 1.523 . S
C888 C869 1.368 . S
C888 C882 1.368 . S
C888 C887 1.523 . S
C889 C873 1.429 . S
C889 C885 1.429 . S
C889 C890 1.523 . S
C890 C874 1.368 . S
C890 C886 1.368 . S
C890 C889 1.523 . S
H891 C866 0.950 . S
H892 C868 0.950 . S
H893 C869 0.949 . S
H894 C871 0.950 . S
H895 C873 0.950 . S
C896 C897 1.349 . S
C896 C898 1.327 . S
C896 H921 0.950 . S
C897 C896 1.349 . S
C897 C913 1.349 . S
C898 C896 1.327 . S
C898 C917 1.429 . S
C898 H922 0.950 . S
C899 C916 1.574 . S
C899 C918 1.368 . S
C899 H923 0.949 . S
H900 C904 0.949 . S
C901 C902 1.349 . S
C901 C903 1.327 . S
C901 H924 0.950 . S
C902 C901 1.349 . S
C902 C914 1.349 . S
C903 C901 1.327 . S
C903 C919 1.429 . S
C903 H925 0.950 . S
C904 H900 0.949 . S
C904 C912 1.574 . S
C904 C920 1.368 . S
H905 C913 0.950 . S
H906 C911 0.950 . S
H907 C912 0.949 . S
H908 C914 0.950 . S
H909 C915 0.950 . S
H910 C916 0.949 . S
C911 H906 0.950 . S
C911 C913 1.327 . S
C911 C917 1.429 . S
C912 C904 1.574 . S
C912 H907 0.949 . S
C912 C918 1.368 . S
C913 C897 1.349 . S
C913 H905 0.950 . S
C913 C911 1.327 . S
C914 C902 1.349 . S
C914 H908 0.950 . S
C914 C915 1.327 . S
C915 H909 0.950 . S
C915 C914 1.327 . S
C915 C919 1.429 . S
C916 C899 1.574 . S
C916 H910 0.949 . S
C916 C920 1.368 . S
C917 C898 1.429 . S
C917 C911 1.429 . S
C917 C918 1.523 . S
C918 C899 1.368 . S
C918 C912 1.368 . S
C918 C917 1.523 . S
C919 C903 1.429 . S
C919 C915 1.429 . S
C919 C920 1.523 . S
C920 C904 1.368 . S
C920 C916 1.368 . S
C920 C919 1.523 . S
H921 C896 0.950 . S
H922 C898 0.950 . S
H923 C899 0.949 . S
H924 C901 0.950 . S
H925 C903 0.950 . S
C926 C927 1.349 . S
C926 C928 1.327 . S
C926 H951 0.950 . S
C927 C926 1.349 . S
C927 C943 1.349 . S
C928 C926 1.327 . S
C928 C947 1.429 . S
C928 H952 0.950 . S
C929 C946 1.574 . S
C929 C948 1.368 . S
C929 H953 0.949 . S
H930 C934 0.949 . S
C931 C932 1.349 . S
C931 C933 1.327 . S
C931 H954 0.950 . S
C932 C931 1.349 . S
C932 C944 1.349 . S
C933 C931 1.327 . S
C933 C949 1.429 . S
C933 H955 0.950 . S
C934 H930 0.949 . S
C934 C942 1.574 . S
C934 C950 1.368 . S
H935 C943 0.950 . S
H936 C941 0.950 . S
H937 C942 0.949 . S
H938 C944 0.950 . S
H939 C945 0.950 . S
H940 C946 0.949 . S
C941 H936 0.950 . S
C941 C943 1.327 . S
C941 C947 1.429 . S
C942 C934 1.574 . S
C942 H937 0.949 . S
C942 C948 1.368 . S
C943 C927 1.349 . S
C943 H935 0.950 . S
C943 C941 1.327 . S
C944 C932 1.349 . S
C944 H938 0.950 . S
C944 C945 1.327 . S
C945 H939 0.950 . S
C945 C944 1.327 . S
C945 C949 1.429 . S
C946 C929 1.574 . S
C946 H940 0.949 . S
C946 C950 1.368 . S
C947 C928 1.429 . S
C947 C941 1.429 . S
C947 C948 1.523 . S
C948 C929 1.368 . S
C948 C942 1.368 . S
C948 C947 1.523 . S
C949 C933 1.429 . S
C949 C945 1.429 . S
C949 C950 1.523 . S
C950 C934 1.368 . S
C950 C946 1.368 . S
C950 C949 1.523 . S
H951 C926 0.950 . S
H952 C928 0.950 . S
H953 C929 0.949 . S
H954 C931 0.950 . S
H955 C933 0.950 . S
C956 C957 1.397 . S
C956 C958 1.296 1_554 S
C956 H981 0.934 1_554 S
C957 C956 1.397 . S
C957 C973 1.349 . S
C958 C956 1.296 1_556 S
C958 C977 1.429 . S
C958 H982 0.950 . S
C959 C976 1.574 . S
C959 C978 1.368 . S
C959 H983 0.949 1_556 S
H960 C964 0.949 . S
C961 C962 1.349 . S
C961 C963 1.327 . S
C961 H984 0.950 . S
C962 C961 1.349 . S
C962 C974 1.349 . S
C963 C961 1.327 . S
C963 C979 1.429 . S
C963 H985 0.950 . S
C964 H960 0.949 . S
C964 C972 1.574 . S
C964 C980 1.368 . S
H965 C973 0.950 . S
H966 C971 0.950 . S
H967 C972 0.949 . S
H968 C974 0.950 . S
H969 C975 0.950 . S
H970 C976 0.949 . S
C971 H966 0.950 . S
C971 C973 1.327 . S
C971 C977 1.429 1_554 S
C972 C964 1.574 . S
C972 H967 0.949 . S
C972 C978 1.368 . S
C973 C957 1.349 . S
C973 H965 0.950 . S
C973 C971 1.327 . S
C974 C962 1.349 . S
C974 H968 0.950 . S
C974 C975 1.327 . S
C975 H969 0.950 . S
C975 C974 1.327 . S
C975 C979 1.429 . S
C976 C959 1.574 . S
C976 H970 0.949 . S
C976 C980 1.368 . S
C977 C958 1.429 . S
C977 C971 1.429 1_556 S
C977 C978 1.523 . S
C978 C959 1.368 . S
C978 C972 1.368 . S
C978 C977 1.523 . S
C979 C963 1.429 . S
C979 C975 1.429 . S
C979 C980 1.523 . S
C980 C964 1.368 . S
C980 C976 1.368 . S
C980 C979 1.523 . S
H981 C956 0.934 1_556 S
H982 C958 0.950 . S
H983 C959 0.949 1_554 S
H984 C961 0.950 . S
H985 C963 0.950 . S
C986 C987 1.349 . S
C986 C988 1.327 . S
C986 H1011 0.950 . S
C987 C986 1.349 . S
C987 C1003 1.349 . S
C988 C986 1.327 . S
C988 C1007 1.429 . S
C988 H1012 0.950 . S
C989 C1006 1.574 . S
C989 C1008 1.368 . S
C989 H1013 0.949 . S
H990 C994 0.949 . S
C991 C992 1.349 . S
C991 C993 1.327 . S
C991 H1014 0.950 . S
C992 C991 1.349 . S
C992 C1004 1.349 . S
C993 C991 1.327 . S
C993 C1009 1.429 . S
C993 H1015 0.950 . S
C994 H990 0.949 . S
C994 C1002 1.574 . S
C994 C1010 1.368 . S
H995 C1003 0.950 . S
H996 C1001 0.950 . S
H997 C1002 0.949 . S
H998 C1004 0.950 . S
H999 C1005 0.950 . S
H1000 C1006 0.949 . S
C1001 H996 0.950 . S
C1001 C1003 1.327 . S
C1001 C1007 1.429 . S
C1002 C994 1.574 . S
C1002 H997 0.949 . S
C1002 C1008 1.368 . S
C1003 C987 1.349 . S
C1003 H995 0.950 . S
C1003 C1001 1.327 . S
C1004 C992 1.349 . S
C1004 H998 0.950 . S
C1004 C1005 1.327 . S
C1005 H999 0.950 . S
C1005 C1004 1.327 . S
C1005 C1009 1.429 . S
C1006 C989 1.574 . S
C1006 H1000 0.949 . S
C1006 C1010 1.368 . S
C1007 C988 1.429 . S
C1007 C1001 1.429 . S
C1007 C1008 1.523 . S
C1008 C989 1.368 . S
C1008 C1002 1.368 . S
C1008 C1007 1.523 . S
C1009 C993 1.429 . S
C1009 C1005 1.429 . S
C1009 C1010 1.523 . S
C1010 C994 1.368 . S
C1010 C1006 1.368 . S
C1010 C1009 1.523 . S
H1011 C986 0.950 . S
H1012 C988 0.950 . S
H1013 C989 0.949 . S
H1014 C991 0.950 . S
H1015 C993 0.950 . S
C1016 C1017 1.349 . S
C1016 C1018 1.327 . S
C1016 H1041 0.950 . S
C1017 C1016 1.349 . S
C1017 C1033 1.349 . S
C1018 C1016 1.327 . S
C1018 C1037 1.429 . S
C1018 H1042 0.950 . S
C1019 C1036 1.574 . S
C1019 C1038 1.368 . S
C1019 H1043 0.949 . S
H1020 C1024 0.949 . S
C1021 C1022 1.349 . S
C1021 C1023 1.327 . S
C1021 H1044 0.950 . S
C1022 C1021 1.349 . S
C1022 C1034 1.349 . S
C1023 C1021 1.327 . S
C1023 C1039 1.429 . S
C1023 H1045 0.950 . S
C1024 H1020 0.949 . S
C1024 C1032 1.574 . S
C1024 C1040 1.368 . S
H1025 C1033 0.950 . S
H1026 C1031 0.950 . S
H1027 C1032 0.949 . S
H1028 C1034 0.950 . S
H1029 C1035 0.950 . S
H1030 C1036 0.949 . S
C1031 H1026 0.950 . S
C1031 C1033 1.327 . S
C1031 C1037 1.429 . S
C1032 C1024 1.574 . S
C1032 H1027 0.949 . S
C1032 C1038 1.368 . S
C1033 C1017 1.349 . S
C1033 H1025 0.950 . S
C1033 C1031 1.327 . S
C1034 C1022 1.349 . S
C1034 H1028 0.950 . S
C1034 C1035 1.327 . S
C1035 H1029 0.950 . S
C1035 C1034 1.327 . S
C1035 C1039 1.429 . S
C1036 C1019 1.574 . S
C1036 H1030 0.949 . S
C1036 C1040 1.368 . S
C1037 C1018 1.429 . S
C1037 C1031 1.429 . S
C1037 C1038 1.523 . S
C1038 C1019 1.368 . S
C1038 C1032 1.368 . S
C1038 C1037 1.523 . S
C1039 C1023 1.429 . S
C1039 C1035 1.429 . S
C1039 C1040 1.523 . S
C1040 C1024 1.368 . S
C1040 C1036 1.368 . S
C1040 C1039 1.523 . S
H1041 C1016 0.950 . S
H1042 C1018 0.950 . S
H1043 C1019 0.949 . S
H1044 C1021 0.950 . S
H1045 C1023 0.950 . S
C1046 C1047 1.349 . S
C1046 C1048 1.327 . S
C1046 H1071 0.950 . S
C1047 C1046 1.349 . S
C1047 C1063 1.349 . S
C1048 C1046 1.327 . S
C1048 C1067 1.429 . S
C1048 H1072 0.950 . S
C1049 C1066 1.574 . S
C1049 C1068 1.368 . S
C1049 H1073 0.949 . S
H1050 C1054 0.949 . S
C1051 C1052 1.349 . S
C1051 C1053 1.327 . S
C1051 H1074 0.950 . S
C1052 C1051 1.349 . S
C1052 C1064 1.349 . S
C1053 C1051 1.327 . S
C1053 C1069 1.429 . S
C1053 H1075 0.950 . S
C1054 H1050 0.949 . S
C1054 C1062 1.574 . S
C1054 C1070 1.368 . S
H1055 C1063 0.950 . S
H1056 C1061 0.950 . S
H1057 C1062 0.949 . S
H1058 C1064 0.950 . S
H1059 C1065 0.950 . S
H1060 C1066 0.949 . S
C1061 H1056 0.950 . S
C1061 C1063 1.327 . S
C1061 C1067 1.429 . S
C1062 C1054 1.574 . S
C1062 H1057 0.949 . S
C1062 C1068 1.368 . S
C1063 C1047 1.349 . S
C1063 H1055 0.950 . S
C1063 C1061 1.327 . S
C1064 C1052 1.349 . S
C1064 H1058 0.950 . S
C1064 C1065 1.327 . S
C1065 H1059 0.950 . S
C1065 C1064 1.327 . S
C1065 C1069 1.429 . S
C1066 C1049 1.574 . S
C1066 H1060 0.949 . S
C1066 C1070 1.368 . S
C1067 C1048 1.429 . S
C1067 C1061 1.429 . S
C1067 C1068 1.523 . S
C1068 C1049 1.368 . S
C1068 C1062 1.368 . S
C1068 C1067 1.523 . S
C1069 C1053 1.429 . S
C1069 C1065 1.429 . S
C1069 C1070 1.523 . S
C1070 C1054 1.368 . S
C1070 C1066 1.368 . S
C1070 C1069 1.523 . S
H1071 C1046 0.950 . S
H1072 C1048 0.950 . S
H1073 C1049 0.949 . S
H1074 C1051 0.950 . S
H1075 C1053 0.950 . S
C1076 C1077 1.349 . S
C1076 C1078 1.327 . S
C1076 H1101 0.950 . S
C1077 C1076 1.349 . S
C1077 C1093 1.349 . S
C1078 C1076 1.327 . S
C1078 C1097 1.429 . S
C1078 H1102 0.950 . S
C1079 C1096 1.574 . S
C1079 C1098 1.368 . S
C1079 H1103 0.949 . S
H1080 C1084 0.949 . S
C1081 C1082 1.349 . S
C1081 C1083 1.327 . S
C1081 H1104 0.950 . S
C1082 C1081 1.349 . S
C1082 C1094 1.349 . S
C1083 C1081 1.327 . S
C1083 C1099 1.429 . S
C1083 H1105 0.950 . S
C1084 H1080 0.949 . S
C1084 C1092 1.574 . S
C1084 C1100 1.368 . S
H1085 C1093 0.950 . S
H1086 C1091 0.950 . S
H1087 C1092 0.949 . S
H1088 C1094 0.950 . S
H1089 C1095 0.950 . S
H1090 C1096 0.949 . S
C1091 H1086 0.950 . S
C1091 C1093 1.327 . S
C1091 C1097 1.429 . S
C1092 C1084 1.574 . S
C1092 H1087 0.949 . S
C1092 C1098 1.368 . S
C1093 C1077 1.349 . S
C1093 H1085 0.950 . S
C1093 C1091 1.327 . S
C1094 C1082 1.349 . S
C1094 H1088 0.950 . S
C1094 C1095 1.327 . S
C1095 H1089 0.950 . S
C1095 C1094 1.327 . S
C1095 C1099 1.429 . S
C1096 C1079 1.574 . S
C1096 H1090 0.949 . S
C1096 C1100 1.368 . S
C1097 C1078 1.429 . S
C1097 C1091 1.429 . S
C1097 C1098 1.523 . S
C1098 C1079 1.368 . S
C1098 C1092 1.368 . S
C1098 C1097 1.523 . S
C1099 C1083 1.429 . S
C1099 C1095 1.429 . S
C1099 C1100 1.523 . S
C1100 C1084 1.368 . S
C1100 C1096 1.368 . S
C1100 C1099 1.523 . S
H1101 C1076 0.950 . S
H1102 C1078 0.950 . S
H1103 C1079 0.949 . S
H1104 C1081 0.950 . S
H1105 C1083 0.950 . S
C1106 C1107 1.349 . S
C1106 C1108 1.327 . S
C1106 H1131 0.950 . S
C1107 C1106 1.349 . S
C1107 C1123 1.349 . S
C1108 C1106 1.327 . S
C1108 C1127 1.429 . S
C1108 H1132 0.950 . S
C1109 C1126 1.574 . S
C1109 C1128 1.368 . S
C1109 H1133 0.949 . S
H1110 C1114 0.949 . S
C1111 C1112 1.349 . S
C1111 C1113 1.327 . S
C1111 H1134 0.950 . S
C1112 C1111 1.349 . S
C1112 C1124 1.349 . S
C1113 C1111 1.327 . S
C1113 C1129 1.429 . S
C1113 H1135 0.950 . S
C1114 H1110 0.949 . S
C1114 C1122 1.574 . S
C1114 C1130 1.368 . S
H1115 C1123 0.950 . S
H1116 C1121 0.950 . S
H1117 C1122 0.949 . S
H1118 C1124 0.950 . S
H1119 C1125 0.950 . S
H1120 C1126 0.949 . S
C1121 H1116 0.950 . S
C1121 C1123 1.327 . S
C1121 C1127 1.429 . S
C1122 C1114 1.574 . S
C1122 H1117 0.949 . S
C1122 C1128 1.368 . S
C1123 C1107 1.349 . S
C1123 H1115 0.950 . S
C1123 C1121 1.327 . S
C1124 C1112 1.349 . S
C1124 H1118 0.950 . S
C1124 C1125 1.327 . S
C1125 H1119 0.950 . S
C1125 C1124 1.327 . S
C1125 C1129 1.429 . S
C1126 C1109 1.574 . S
C1126 H1120 0.949 . S
C1126 C1130 1.368 . S
C1127 C1108 1.429 . S
C1127 C1121 1.429 . S
C1127 C1128 1.523 . S
C1128 C1109 1.368 . S
C1128 C1122 1.368 . S
C1128 C1127 1.523 . S
C1129 C1113 1.429 . S
C1129 C1125 1.429 . S
C1129 C1130 1.523 . S
C1130 C1114 1.368 . S
C1130 C1126 1.368 . S
C1130 C1129 1.523 . S
H1131 C1106 0.950 . S
H1132 C1108 0.950 . S
H1133 C1109 0.949 . S
H1134 C1111 0.950 . S
H1135 C1113 0.950 . S
C1136 C1137 1.349 . S
C1136 C1138 1.327 1_554 S
C1136 H1161 0.950 . S
C1137 C1136 1.349 . S
C1137 C1153 1.349 1_554 S
C1138 C1136 1.327 1_556 S
C1138 C1157 1.429 . S
C1138 H1162 0.950 . S
C1139 C1156 1.574 . S
C1139 C1158 1.368 . S
C1139 H1163 0.949 . S
H1140 C1144 0.949 . S
C1141 C1142 1.349 . S
C1141 C1143 1.327 . S
C1141 H1164 0.950 . S
C1142 C1141 1.349 . S
C1142 C1154 1.349 . S
C1143 C1141 1.327 . S
C1143 C1159 1.429 . S
C1143 H1165 0.950 . S
C1144 H1140 0.949 . S
C1144 C1152 1.574 . S
C1144 C1160 1.368 . S
H1145 C1153 0.950 . S
H1146 C1151 0.950 . S
H1147 C1152 0.949 . S
H1148 C1154 0.950 . S
H1149 C1155 0.950 . S
H1150 C1156 0.949 . S
C1151 H1146 0.950 . S
C1151 C1153 1.327 . S
C1151 C1157 1.429 . S
C1152 C1144 1.574 . S
C1152 H1147 0.949 . S
C1152 C1158 1.368 . S
C1153 C1137 1.349 1_556 S
C1153 H1145 0.950 . S
C1153 C1151 1.327 . S
C1154 C1142 1.349 . S
C1154 H1148 0.950 . S
C1154 C1155 1.327 . S
C1155 H1149 0.950 . S
C1155 C1154 1.327 . S
C1155 C1159 1.429 . S
C1156 C1139 1.574 . S
C1156 H1150 0.949 . S
C1156 C1160 1.368 . S
C1157 C1138 1.429 . S
C1157 C1151 1.429 . S
C1157 C1158 1.523 . S
C1158 C1139 1.368 . S
C1158 C1152 1.368 . S
C1158 C1157 1.523 . S
C1159 C1143 1.429 . S
C1159 C1155 1.429 . S
C1159 C1160 1.523 . S
C1160 C1144 1.368 . S
C1160 C1156 1.368 . S
C1160 C1159 1.523 . S
H1161 C1136 0.950 . S
H1162 C1138 0.950 . S
H1163 C1139 0.949 . S
H1164 C1141 0.950 . S
H1165 C1143 0.950 . S
C1166 C1167 1.349 . S
C1166 C1168 1.327 . S
C1166 H1191 0.950 . S
C1167 C1166 1.349 . S
C1167 C1183 1.349 1_554 S
C1168 C1166 1.327 . S
C1168 C1187 1.429 1_554 S
C1168 H1192 0.950 . S
C1169 C1186 1.574 . S
C1169 C1188 1.368 . S
C1169 H1193 0.949 . S
H1170 C1174 0.949 . S
C1171 C1172 1.349 . S
C1171 C1173 1.327 . S
C1171 H1194 0.950 . S
C1172 C1171 1.349 . S
C1172 C1184 1.349 . S
C1173 C1171 1.327 . S
C1173 C1189 1.429 . S
C1173 H1195 0.950 . S
C1174 H1170 0.949 . S
C1174 C1182 1.574 . S
C1174 C1190 1.368 . S
H1175 C1183 0.950 . S
H1176 C1181 0.950 . S
H1177 C1182 0.949 . S
H1178 C1184 0.950 . S
H1179 C1185 0.950 . S
H1180 C1186 0.949 . S
C1181 H1176 0.950 . S
C1181 C1183 1.327 . S
C1181 C1187 1.429 . S
C1182 C1174 1.574 . S
C1182 H1177 0.949 . S
C1182 C1188 1.368 . S
C1183 C1167 1.349 1_556 S
C1183 H1175 0.950 . S
C1183 C1181 1.327 . S
C1184 C1172 1.349 . S
C1184 H1178 0.950 . S
C1184 C1185 1.327 . S
C1185 H1179 0.950 . S
C1185 C1184 1.327 . S
C1185 C1189 1.429 . S
C1186 C1169 1.574 . S
C1186 H1180 0.949 . S
C1186 C1190 1.368 . S
C1187 C1168 1.429 1_556 S
C1187 C1181 1.429 . S
C1187 C1188 1.523 . S
C1188 C1169 1.368 . S
C1188 C1182 1.368 . S
C1188 C1187 1.523 . S
C1189 C1173 1.429 . S
C1189 C1185 1.429 . S
C1189 C1190 1.523 . S
C1190 C1174 1.368 . S
C1190 C1186 1.368 . S
C1190 C1189 1.523 . S
H1191 C1166 0.950 . S
H1192 C1168 0.950 . S
H1193 C1169 0.949 . S
H1194 C1171 0.950 . S
H1195 C1173 0.950 . S
C1196 C1197 1.349 . S
C1196 C1198 1.327 . S
C1196 H1221 0.950 . S
C1197 C1196 1.349 . S
C1197 C1213 1.349 . S
C1198 C1196 1.327 . S
C1198 C1217 1.429 . S
C1198 H1222 0.950 . S
C1199 C1216 1.574 . S
C1199 C1218 1.368 . S
C1199 H1223 0.949 . S
H1200 C1204 0.949 . S
C1201 C1202 1.349 . S
C1201 C1203 1.327 . S
C1201 H1224 0.950 . S
C1202 C1201 1.349 . S
C1202 C1214 1.349 . S
C1203 C1201 1.327 . S
C1203 C1219 1.429 . S
C1203 H1225 0.950 . S
C1204 H1200 0.949 . S
C1204 C1212 1.574 . S
C1204 C1220 1.368 . S
H1205 C1213 0.950 . S
H1206 C1211 0.950 . S
H1207 C1212 0.949 . S
H1208 C1214 0.950 . S
H1209 C1215 0.950 . S
H1210 C1216 0.949 . S
C1211 H1206 0.950 . S
C1211 C1213 1.327 . S
C1211 C1217 1.429 . S
C1212 C1204 1.574 . S
C1212 H1207 0.949 . S
C1212 C1218 1.368 . S
C1213 C1197 1.349 . S
C1213 H1205 0.950 . S
C1213 C1211 1.327 . S
C1214 C1202 1.349 . S
C1214 H1208 0.950 . S
C1214 C1215 1.327 . S
C1215 H1209 0.950 . S
C1215 C1214 1.327 . S
C1215 C1219 1.429 . S
C1216 C1199 1.574 . S
C1216 H1210 0.949 . S
C1216 C1220 1.368 . S
C1217 C1198 1.429 . S
C1217 C1211 1.429 . S
C1217 C1218 1.523 . S
C1218 C1199 1.368 . S
C1218 C1212 1.368 . S
C1218 C1217 1.523 . S
C1219 C1203 1.429 . S
C1219 C1215 1.429 . S
C1219 C1220 1.523 . S
C1220 C1204 1.368 . S
C1220 C1216 1.368 . S
C1220 C1219 1.523 . S
H1221 C1196 0.950 . S
H1222 C1198 0.950 . S
H1223 C1199 0.949 . S
H1224 C1201 0.950 . S
H1225 C1203 0.950 . S
C1226 C1227 1.349 . S
C1226 C1228 1.327 . S
C1226 H1251 0.950 . S
C1227 C1226 1.349 . S
C1227 C1243 1.349 . S
C1228 C1226 1.327 . S
C1228 C1247 1.429 . S
C1228 H1252 0.950 . S
C1229 C1246 1.574 . S
C1229 C1248 1.368 . S
C1229 H1253 0.949 . S
H1230 C1234 0.949 . S
C1231 C1232 1.349 . S
C1231 C1233 1.327 . S
C1231 H1254 0.950 . S
C1232 C1231 1.349 . S
C1232 C1244 1.349 . S
C1233 C1231 1.327 . S
C1233 C1249 1.429 . S
C1233 H1255 0.950 . S
C1234 H1230 0.949 . S
C1234 C1242 1.574 . S
C1234 C1250 1.368 . S
H1235 C1243 0.950 . S
H1236 C1241 0.950 . S
H1237 C1242 0.949 . S
H1238 C1244 0.950 . S
H1239 C1245 0.950 . S
H1240 C1246 0.949 . S
C1241 H1236 0.950 . S
C1241 C1243 1.327 . S
C1241 C1247 1.429 . S
C1242 C1234 1.574 . S
C1242 H1237 0.949 . S
C1242 C1248 1.368 . S
C1243 C1227 1.349 . S
C1243 H1235 0.950 . S
C1243 C1241 1.327 . S
C1244 C1232 1.349 . S
C1244 H1238 0.950 . S
C1244 C1245 1.327 . S
C1245 H1239 0.950 . S
C1245 C1244 1.327 . S
C1245 C1249 1.429 . S
C1246 C1229 1.574 . S
C1246 H1240 0.949 . S
C1246 C1250 1.368 . S
C1247 C1228 1.429 . S
C1247 C1241 1.429 . S
C1247 C1248 1.523 . S
C1248 C1229 1.368 . S
C1248 C1242 1.368 . S
C1248 C1247 1.523 . S
C1249 C1233 1.429 . S
C1249 C1245 1.429 . S
C1249 C1250 1.523 . S
C1250 C1234 1.368 . S
C1250 C1246 1.368 . S
C1250 C1249 1.523 . S
H1251 C1226 0.950 . S
H1252 C1228 0.950 . S
H1253 C1229 0.949 . S
H1254 C1231 0.950 . S
H1255 C1233 0.950 . S
C1256 C1257 1.349 . S
C1256 C1258 1.327 . S
C1256 H1281 0.950 . S
C1257 C1256 1.349 . S
C1257 C1273 1.349 . S
C1258 C1256 1.327 . S
C1258 C1277 1.429 . S
C1258 H1282 0.950 . S
C1259 C1276 1.574 . S
C1259 C1278 1.368 . S
C1259 H1283 0.949 . S
H1260 C1264 0.949 . S
C1261 C1262 1.349 . S
C1261 C1263 1.327 . S
C1261 H1284 0.950 . S
C1262 C1261 1.349 . S
C1262 C1274 1.349 . S
C1263 C1261 1.327 . S
C1263 C1279 1.429 . S
C1263 H1285 0.950 . S
C1264 H1260 0.949 . S
C1264 C1272 1.574 . S
C1264 C1280 1.368 . S
H1265 C1273 0.950 . S
H1266 C1271 0.950 . S
H1267 C1272 0.949 . S
H1268 C1274 0.950 . S
H1269 C1275 0.950 . S
H1270 C1276 0.949 . S
C1271 H1266 0.950 . S
C1271 C1273 1.327 . S
C1271 C1277 1.429 . S
C1272 C1264 1.574 . S
C1272 H1267 0.949 . S
C1272 C1278 1.368 . S
C1273 C1257 1.349 . S
C1273 H1265 0.950 . S
C1273 C1271 1.327 . S
C1274 C1262 1.349 . S
C1274 H1268 0.950 . S
C1274 C1275 1.327 . S
C1275 H1269 0.950 . S
C1275 C1274 1.327 . S
C1275 C1279 1.429 . S
C1276 C1259 1.574 . S
C1276 H1270 0.949 . S
C1276 C1280 1.368 . S
C1277 C1258 1.429 . S
C1277 C1271 1.429 . S
C1277 C1278 1.523 . S
C1278 C1259 1.368 . S
C1278 C1272 1.368 . S
C1278 C1277 1.523 . S
C1279 C1263 1.429 . S
C1279 C1275 1.429 . S
C1279 C1280 1.523 . S
C1280 C1264 1.368 . S
C1280 C1276 1.368 . S
C1280 C1279 1.523 . S
H1281 C1256 0.950 . S
H1282 C1258 0.950 . S
H1283 C1259 0.949 . S
H1284 C1261 0.950 . S
H1285 C1263 0.950 . S
C1286 C1287 1.349 . S
C1286 C1288 1.327 . S
C1286 H1311 0.950 . S
C1287 C1286 1.349 . S
C1287 C1303 1.349 . S
C1288 C1286 1.327 . S
C1288 C1307 1.429 . S
C1288 H1312 0.950 . S
C1289 C1306 1.574 . S
C1289 C1308 1.368 . S
C1289 H1313 0.949 . S
H1290 C1294 0.949 . S
C1291 C1292 1.349 . S
C1291 C1293 1.327 . S
C1291 H1314 0.950 . S
C1292 C1291 1.349 . S
C1292 C1304 1.349 . S
C1293 C1291 1.327 . S
C1293 C1309 1.429 . S
C1293 H1315 0.950 . S
C1294 H1290 0.949 . S
C1294 C1302 1.574 . S
C1294 C1310 1.368 . S
H1295 C1303 0.950 . S
H1296 C1301 0.950 . S
H1297 C1302 0.949 . S
H1298 C1304 0.950 . S
H1299 C1305 0.950 . S
H1300 C1306 0.949 . S
C1301 H1296 0.950 . S
C1301 C1303 1.327 . S
C1301 C1307 1.429 . S
C1302 C1294 1.574 . S
C1302 H1297 0.949 . S
C1302 C1308 1.368 . S
C1303 C1287 1.349 . S
C1303 H1295 0.950 . S
C1303 C1301 1.327 . S
C1304 C1292 1.349 . S
C1304 H1298 0.950 . S
C1304 C1305 1.327 . S
C1305 H1299 0.950 . S
C1305 C1304 1.327 . S
C1305 C1309 1.429 . S
C1306 C1289 1.574 . S
C1306 H1300 0.949 . S
C1306 C1310 1.368 . S
C1307 C1288 1.429 . S
C1307 C1301 1.429 . S
C1307 C1308 1.523 . S
C1308 C1289 1.368 . S
C1308 C1302 1.368 . S
C1308 C1307 1.523 . S
C1309 C1293 1.429 . S
C1309 C1305 1.429 . S
C1309 C1310 1.523 . S
C1310 C1294 1.368 . S
C1310 C1306 1.368 . S
C1310 C1309 1.523 . S
H1311 C1286 0.950 . S
H1312 C1288 0.950 . S
H1313 C1289 0.949 . S
H1314 C1291 0.950 . S
H1315 C1293 0.950 . S
C1316 C1317 1.349 . S
C1316 C1318 1.327 . S
C1316 H1341 0.950 . S
C1317 C1316 1.349 . S
C1317 C1333 1.349 . S
C1318 C1316 1.327 . S
C1318 C1337 1.429 . S
C1318 H1342 0.950 . S
C1319 C1336 1.574 . S
C1319 C1338 1.368 . S
C1319 H1343 0.949 . S
H1320 C1324 0.949 . S
C1321 C1322 1.349 . S
C1321 C1323 1.327 . S
C1321 H1344 0.950 . S
C1322 C1321 1.349 . S
C1322 C1334 1.349 . S
C1323 C1321 1.327 . S
C1323 C1339 1.429 . S
C1323 H1345 0.950 . S
C1324 H1320 0.949 . S
C1324 C1332 1.574 . S
C1324 C1340 1.368 . S
H1325 C1333 0.950 . S
H1326 C1331 0.950 . S
H1327 C1332 0.949 . S
H1328 C1334 0.950 . S
H1329 C1335 0.950 . S
H1330 C1336 0.949 . S
C1331 H1326 0.950 . S
C1331 C1333 1.327 . S
C1331 C1337 1.429 . S
C1332 C1324 1.574 . S
C1332 H1327 0.949 . S
C1332 C1338 1.368 . S
C1333 C1317 1.349 . S
C1333 H1325 0.950 . S
C1333 C1331 1.327 . S
C1334 C1322 1.349 . S
C1334 H1328 0.950 . S
C1334 C1335 1.327 . S
C1335 H1329 0.950 . S
C1335 C1334 1.327 . S
C1335 C1339 1.429 . S
C1336 C1319 1.574 . S
C1336 H1330 0.949 . S
C1336 C1340 1.368 . S
C1337 C1318 1.429 . S
C1337 C1331 1.429 . S
C1337 C1338 1.523 . S
C1338 C1319 1.368 . S
C1338 C1332 1.368 . S
C1338 C1337 1.523 . S
C1339 C1323 1.429 . S
C1339 C1335 1.429 . S
C1339 C1340 1.523 . S
C1340 C1324 1.368 . S
C1340 C1336 1.368 . S
C1340 C1339 1.523 . S
H1341 C1316 0.950 . S
H1342 C1318 0.950 . S
H1343 C1319 0.949 . S
H1344 C1321 0.950 . S
H1345 C1323 0.950 . S
C1346 C1347 1.349 . S
C1346 C1348 1.327 . S
C1346 H1371 0.950 . S
C1347 C1346 1.349 . S
C1347 C1363 1.349 . S
C1348 C1346 1.327 . S
C1348 C1367 1.429 . S
C1348 H1372 0.950 . S
C1349 C1366 1.574 . S
C1349 C1368 1.368 . S
C1349 H1373 0.949 . S
H1350 C1354 0.949 . S
C1351 C1352 1.349 . S
C1351 C1353 1.327 . S
C1351 H1374 0.950 . S
C1352 C1351 1.349 . S
C1352 C1364 1.349 . S
C1353 C1351 1.327 . S
C1353 C1369 1.429 . S
C1353 H1375 0.950 . S
C1354 H1350 0.949 . S
C1354 C1362 1.574 . S
C1354 C1370 1.368 . S
H1355 C1363 0.950 . S
H1356 C1361 0.950 . S
H1357 C1362 0.949 . S
H1358 C1364 0.950 . S
H1359 C1365 0.950 . S
H1360 C1366 0.949 . S
C1361 H1356 0.950 . S
C1361 C1363 1.327 . S
C1361 C1367 1.429 . S
C1362 C1354 1.574 . S
C1362 H1357 0.949 . S
C1362 C1368 1.368 . S
C1363 C1347 1.349 . S
C1363 H1355 0.950 . S
C1363 C1361 1.327 . S
C1364 C1352 1.349 . S
C1364 H1358 0.950 . S
C1364 C1365 1.327 . S
C1365 H1359 0.950 . S
C1365 C1364 1.327 . S
C1365 C1369 1.429 . S
C1366 C1349 1.574 . S
C1366 H1360 0.949 . S
C1366 C1370 1.368 . S
C1367 C1348 1.429 . S
C1367 C1361 1.429 . S
C1367 C1368 1.523 . S
C1368 C1349 1.368 . S
C1368 C1362 1.368 . S
C1368 C1367 1.523 . S
C1369 C1353 1.429 . S
C1369 C1365 1.429 . S
C1369 C1370 1.523 . S
C1370 C1354 1.368 . S
C1370 C1366 1.368 . S
C1370 C1369 1.523 . S
H1371 C1346 0.950 . S
H1372 C1348 0.950 . S
H1373 C1349 0.949 . S
H1374 C1351 0.950 . S
H1375 C1353 0.950 . S
C1376 C1377 1.349 . S
C1376 C1378 1.327 . S
C1376 H1401 0.950 . S
C1377 C1376 1.349 . S
C1377 C1393 1.349 . S
C1378 C1376 1.327 . S
C1378 C1397 1.429 . S
C1378 H1402 0.950 . S
C1379 C1396 1.574 . S
C1379 C1398 1.368 . S
C1379 H1403 0.949 . S
H1380 C1384 0.949 . S
C1381 C1382 1.349 . S
C1381 C1383 1.327 . S
C1381 H1404 0.950 . S
C1382 C1381 1.349 . S
C1382 C1394 1.349 . S
C1383 C1381 1.327 . S
C1383 C1399 1.429 . S
C1383 H1405 0.950 . S
C1384 H1380 0.949 . S
C1384 C1392 1.574 . S
C1384 C1400 1.368 . S
H1385 C1393 0.950 . S
H1386 C1391 0.950 . S
H1387 C1392 0.949 . S
H1388 C1394 0.950 . S
H1389 C1395 0.950 . S
H1390 C1396 0.949 . S
C1391 H1386 0.950 . S
C1391 C1393 1.327 . S
C1391 C1397 1.429 . S
C1392 C1384 1.574 . S
C1392 H1387 0.949 . S
C1392 C1398 1.368 . S
C1393 C1377 1.349 . S
C1393 H1385 0.950 . S
C1393 C1391 1.327 . S
C1394 C1382 1.349 . S
C1394 H1388 0.950 . S
C1394 C1395 1.327 . S
C1395 H1389 0.950 . S
C1395 C1394 1.327 . S
C1395 C1399 1.429 . S
C1396 C1379 1.574 . S
C1396 H1390 0.949 . S
C1396 C1400 1.368 . S
C1397 C1378 1.429 . S
C1397 C1391 1.429 . S
C1397 C1398 1.523 . S
C1398 C1379 1.368 . S
C1398 C1392 1.368 . S
C1398 C1397 1.523 . S
C1399 C1383 1.429 . S
C1399 C1395 1.429 . S
C1399 C1400 1.523 . S
C1400 C1384 1.368 . S
C1400 C1396 1.368 . S
C1400 C1399 1.523 . S
H1401 C1376 0.950 . S
H1402 C1378 0.950 . S
H1403 C1379 0.949 . S
H1404 C1381 0.950 . S
H1405 C1383 0.950 . S
C1406 C1407 1.349 . S
C1406 C1408 1.327 . S
C1406 H1431 0.950 . S
C1407 C1406 1.349 . S
C1407 C1423 1.349 . S
C1408 C1406 1.327 . S
C1408 C1427 1.429 . S
C1408 H1432 0.950 . S
C1409 C1426 1.574 . S
C1409 C1428 1.368 . S
C1409 H1433 0.949 . S
H1410 C1414 0.949 . S
C1411 C1412 1.349 . S
C1411 C1413 1.327 . S
C1411 H1434 0.950 . S
C1412 C1411 1.349 . S
C1412 C1424 1.349 . S
C1413 C1411 1.327 . S
C1413 C1429 1.429 . S
C1413 H1435 0.950 . S
C1414 H1410 0.949 . S
C1414 C1422 1.574 . S
C1414 C1430 1.368 . S
H1415 C1423 0.950 . S
H1416 C1421 0.950 . S
H1417 C1422 0.949 . S
H1418 C1424 0.950 . S
H1419 C1425 0.950 . S
H1420 C1426 0.949 . S
C1421 H1416 0.950 . S
C1421 C1423 1.327 . S
C1421 C1427 1.429 . S
C1422 C1414 1.574 . S
C1422 H1417 0.949 . S
C1422 C1428 1.368 . S
C1423 C1407 1.349 . S
C1423 H1415 0.950 . S
C1423 C1421 1.327 . S
C1424 C1412 1.349 . S
C1424 H1418 0.950 . S
C1424 C1425 1.327 . S
C1425 H1419 0.950 . S
C1425 C1424 1.327 . S
C1425 C1429 1.429 . S
C1426 C1409 1.574 . S
C1426 H1420 0.949 . S
C1426 C1430 1.368 . S
C1427 C1408 1.429 . S
C1427 C1421 1.429 . S
C1427 C1428 1.523 . S
C1428 C1409 1.368 . S
C1428 C1422 1.368 . S
C1428 C1427 1.523 . S
C1429 C1413 1.429 . S
C1429 C1425 1.429 . S
C1429 C1430 1.523 . S
C1430 C1414 1.368 . S
C1430 C1426 1.368 . S
C1430 C1429 1.523 . S
H1431 C1406 0.950 . S
H1432 C1408 0.950 . S
H1433 C1409 0.949 . S
H1434 C1411 0.950 . S
H1435 C1413 0.950 . S
C1436 C1437 1.349 . S
C1436 C1438 1.327 . S
C1436 H1461 0.950 . S
C1437 C1436 1.349 . S
C1437 C1453 1.349 . S
C1438 C1436 1.327 . S
C1438 C1457 1.429 . S
C1438 H1462 0.950 . S
C1439 C1456 1.574 . S
C1439 C1458 1.368 . S
C1439 H1463 0.949 . S
H1440 C1444 0.949 . S
C1441 C1442 1.349 . S
C1441 C1443 1.327 . S
C1441 H1464 0.950 . S
C1442 C1441 1.349 . S
C1442 C1454 1.349 . S
C1443 C1441 1.327 . S
C1443 C1459 1.429 . S
C1443 H1465 0.950 . S
C1444 H1440 0.949 . S
C1444 C1452 1.574 . S
C1444 C1460 1.368 . S
H1445 C1453 0.950 . S
H1446 C1451 0.950 . S
H1447 C1452 0.949 . S
H1448 C1454 0.950 . S
H1449 C1455 0.950 . S
H1450 C1456 0.949 . S
C1451 H1446 0.950 . S
C1451 C1453 1.327 . S
C1451 C1457 1.429 . S
C1452 C1444 1.574 . S
C1452 H1447 0.949 . S
C1452 C1458 1.368 . S
C1453 C1437 1.349 . S
C1453 H1445 0.950 . S
C1453 C1451 1.327 . S
C1454 C1442 1.349 . S
C1454 H1448 0.950 . S
C1454 C1455 1.327 . S
C1455 H1449 0.950 . S
C1455 C1454 1.327 . S
C1455 C1459 1.429 . S
C1456 C1439 1.574 . S
C1456 H1450 0.949 . S
C1456 C1460 1.368 . S
C1457 C1438 1.429 . S
C1457 C1451 1.429 . S
C1457 C1458 1.523 . S
C1458 C1439 1.368 . S
C1458 C1452 1.368 . S
C1458 C1457 1.523 . S
C1459 C1443 1.429 . S
C1459 C1455 1.429 . S
C1459 C1460 1.523 . S
C1460 C1444 1.368 . S
C1460 C1456 1.368 . S
C1460 C1459 1.523 . S
H1461 C1436 0.950 . S
H1462 C1438 0.950 . S
H1463 C1439 0.949 . S
H1464 C1441 0.950 . S
H1465 C1443 0.950 . S
C1466 C1467 1.349 . S
C1466 C1468 1.327 . S
C1466 H1491 0.950 . S
C1467 C1466 1.349 . S
C1467 C1483 1.349 . S
C1468 C1466 1.327 . S
C1468 C1487 1.429 . S
C1468 H1492 0.950 . S
C1469 C1486 1.574 . S
C1469 C1488 1.368 . S
C1469 H1493 0.949 . S
H1470 C1474 0.949 . S
C1471 C1472 1.349 . S
C1471 C1473 1.327 . S
C1471 H1494 0.950 . S
C1472 C1471 1.349 . S
C1472 C1484 1.349 . S
C1473 C1471 1.327 . S
C1473 C1489 1.429 . S
C1473 H1495 0.950 . S
C1474 H1470 0.949 . S
C1474 C1482 1.574 . S
C1474 C1490 1.368 . S
H1475 C1483 0.950 . S
H1476 C1481 0.950 . S
H1477 C1482 0.949 . S
H1478 C1484 0.950 . S
H1479 C1485 0.950 . S
H1480 C1486 0.949 . S
C1481 H1476 0.950 . S
C1481 C1483 1.327 . S
C1481 C1487 1.429 . S
C1482 C1474 1.574 . S
C1482 H1477 0.949 . S
C1482 C1488 1.368 . S
C1483 C1467 1.349 . S
C1483 H1475 0.950 . S
C1483 C1481 1.327 . S
C1484 C1472 1.349 . S
C1484 H1478 0.950 . S
C1484 C1485 1.327 . S
C1485 H1479 0.950 . S
C1485 C1484 1.327 . S
C1485 C1489 1.429 . S
C1486 C1469 1.574 . S
C1486 H1480 0.949 . S
C1486 C1490 1.368 . S
C1487 C1468 1.429 . S
C1487 C1481 1.429 . S
C1487 C1488 1.523 . S
C1488 C1469 1.368 . S
C1488 C1482 1.368 . S
C1488 C1487 1.523 . S
C1489 C1473 1.429 . S
C1489 C1485 1.429 . S
C1489 C1490 1.523 . S
C1490 C1474 1.368 . S
C1490 C1486 1.368 . S
C1490 C1489 1.523 . S
H1491 C1466 0.950 . S
H1492 C1468 0.950 . S
H1493 C1469 0.949 . S
H1494 C1471 0.950 . S
H1495 C1473 0.950 . S
C1496 C1497 1.349 . S
C1496 C1498 1.327 . S
C1496 H1521 0.950 . S
C1497 C1496 1.349 . S
C1497 C1513 1.349 . S
C1498 C1496 1.327 . S
C1498 C1517 1.429 . S
C1498 H1522 0.950 . S
C1499 C1516 1.574 . S
C1499 C1518 1.368 . S
C1499 H1523 0.949 . S
H1500 C1504 0.949 . S
C1501 C1502 1.349 . S
C1501 C1503 1.327 . S
C1501 H1524 0.950 . S
C1502 C1501 1.349 . S
C1502 C1514 1.349 . S
C1503 C1501 1.327 . S
C1503 C1519 1.429 . S
C1503 H1525 0.950 . S
C1504 H1500 0.949 . S
C1504 C1512 1.574 . S
C1504 C1520 1.368 . S
H1505 C1513 0.950 . S
H1506 C1511 0.950 . S
H1507 C1512 0.949 . S
H1508 C1514 0.950 . S
H1509 C1515 0.950 . S
H1510 C1516 0.949 . S
C1511 H1506 0.950 . S
C1511 C1513 1.327 . S
C1511 C1517 1.429 . S
C1512 C1504 1.574 . S
C1512 H1507 0.949 . S
C1512 C1518 1.368 . S
C1513 C1497 1.349 . S
C1513 H1505 0.950 . S
C1513 C1511 1.327 . S
C1514 C1502 1.349 . S
C1514 H1508 0.950 . S
C1514 C1515 1.327 . S
C1515 H1509 0.950 . S
C1515 C1514 1.327 . S
C1515 C1519 1.429 . S
C1516 C1499 1.574 . S
C1516 H1510 0.949 . S
C1516 C1520 1.368 . S
C1517 C1498 1.429 . S
C1517 C1511 1.429 . S
C1517 C1518 1.523 . S
C1518 C1499 1.368 . S
C1518 C1512 1.368 . S
C1518 C1517 1.523 . S
C1519 C1503 1.429 . S
C1519 C1515 1.429 . S
C1519 C1520 1.523 . S
C1520 C1504 1.368 . S
C1520 C1516 1.368 . S
C1520 C1519 1.523 . S
H1521 C1496 0.950 . S
H1522 C1498 0.950 . S
H1523 C1499 0.949 . S
H1524 C1501 0.950 . S
H1525 C1503 0.950 . S
C1526 C1527 1.349 . S
C1526 C1528 1.327 . S
C1526 H1551 0.950 . S
C1527 C1526 1.349 . S
C1527 C1543 1.349 . S
C1528 C1526 1.327 . S
C1528 C1547 1.429 . S
C1528 H1552 0.950 . S
C1529 C1546 1.574 . S
C1529 C1548 1.368 . S
C1529 H1553 0.949 . S
H1530 C1534 0.949 . S
C1531 C1532 1.349 . S
C1531 C1533 1.327 . S
C1531 H1554 0.950 . S
C1532 C1531 1.349 . S
C1532 C1544 1.349 . S
C1533 C1531 1.327 . S
C1533 C1549 1.429 . S
C1533 H1555 0.950 . S
C1534 H1530 0.949 . S
C1534 C1542 1.574 . S
C1534 C1550 1.368 . S
H1535 C1543 0.950 . S
H1536 C1541 0.950 . S
H1537 C1542 0.949 . S
H1538 C1544 0.950 . S
H1539 C1545 0.950 . S
H1540 C1546 0.949 . S
C1541 H1536 0.950 . S
C1541 C1543 1.327 . S
C1541 C1547 1.429 . S
C1542 C1534 1.574 . S
C1542 H1537 0.949 . S
C1542 C1548 1.368 . S
C1543 C1527 1.349 . S
C1543 H1535 0.950 . S
C1543 C1541 1.327 . S
C1544 C1532 1.349 . S
C1544 H1538 0.950 . S
C1544 C1545 1.327 . S
C1545 H1539 0.950 . S
C1545 C1544 1.327 . S
C1545 C1549 1.429 . S
C1546 C1529 1.574 . S
C1546 H1540 0.949 . S
C1546 C1550 1.368 . S
C1547 C1528 1.429 . S
C1547 C1541 1.429 . S
C1547 C1548 1.523 . S
C1548 C1529 1.368 . S
C1548 C1542 1.368 . S
C1548 C1547 1.523 . S
C1549 C1533 1.429 . S
C1549 C1545 1.429 . S
C1549 C1550 1.523 . S
C1550 C1534 1.368 . S
C1550 C1546 1.368 . S
C1550 C1549 1.523 . S
H1551 C1526 0.950 . S
H1552 C1528 0.950 . S
H1553 C1529 0.949 . S
H1554 C1531 0.950 . S
H1555 C1533 0.950 . S
C1556 C1557 1.349 . S
C1556 C1558 1.327 . S
C1556 H1581 0.950 . S
C1557 C1556 1.349 . S
C1557 C1573 1.349 . S
C1558 C1556 1.327 . S
C1558 C1577 1.429 . S
C1558 H1582 0.950 . S
C1559 C1576 1.574 . S
C1559 C1578 1.368 . S
C1559 H1583 0.949 . S
H1560 C1564 0.949 . S
C1561 C1562 1.349 . S
C1561 C1563 1.327 . S
C1561 H1584 0.950 . S
C1562 C1561 1.349 . S
C1562 C1574 1.349 . S
C1563 C1561 1.327 . S
C1563 C1579 1.429 . S
C1563 H1585 0.950 . S
C1564 H1560 0.949 . S
C1564 C1572 1.574 . S
C1564 C1580 1.368 . S
H1565 C1573 0.950 . S
H1566 C1571 0.950 . S
H1567 C1572 0.949 . S
H1568 C1574 0.950 . S
H1569 C1575 0.950 . S
H1570 C1576 0.949 . S
C1571 H1566 0.950 . S
C1571 C1573 1.327 . S
C1571 C1577 1.429 . S
C1572 C1564 1.574 . S
C1572 H1567 0.949 . S
C1572 C1578 1.368 . S
C1573 C1557 1.349 . S
C1573 H1565 0.950 . S
C1573 C1571 1.327 . S
C1574 C1562 1.349 . S
C1574 H1568 0.950 . S
C1574 C1575 1.327 . S
C1575 H1569 0.950 . S
C1575 C1574 1.327 . S
C1575 C1579 1.429 . S
C1576 C1559 1.574 . S
C1576 H1570 0.949 . S
C1576 C1580 1.368 . S
C1577 C1558 1.429 . S
C1577 C1571 1.429 . S
C1577 C1578 1.523 . S
C1578 C1559 1.368 . S
C1578 C1572 1.368 . S
C1578 C1577 1.523 . S
C1579 C1563 1.429 . S
C1579 C1575 1.429 . S
C1579 C1580 1.523 . S
C1580 C1564 1.368 . S
C1580 C1576 1.368 . S
C1580 C1579 1.523 . S
H1581 C1556 0.950 . S
H1582 C1558 0.950 . S
H1583 C1559 0.949 . S
H1584 C1561 0.950 . S
H1585 C1563 0.950 . S
C1586 C1587 1.349 . S
C1586 C1588 1.327 . S
C1586 H1611 0.950 . S
C1587 C1586 1.349 . S
C1587 C1603 1.349 . S
C1588 C1586 1.327 . S
C1588 C1607 1.429 . S
C1588 H1612 0.950 . S
C1589 C1606 1.574 . S
C1589 C1608 1.368 . S
C1589 H1613 0.949 . S
H1590 C1594 0.949 . S
C1591 C1592 1.349 . S
C1591 C1593 1.327 . S
C1591 H1614 0.950 . S
C1592 C1591 1.349 . S
C1592 C1604 1.349 . S
C1593 C1591 1.327 . S
C1593 C1609 1.429 . S
C1593 H1615 0.950 . S
C1594 H1590 0.949 . S
C1594 C1602 1.574 . S
C1594 C1610 1.368 . S
H1595 C1603 0.950 . S
H1596 C1601 0.950 . S
H1597 C1602 0.949 . S
H1598 C1604 0.950 . S
H1599 C1605 0.950 . S
H1600 C1606 0.949 . S
C1601 H1596 0.950 . S
C1601 C1603 1.327 . S
C1601 C1607 1.429 . S
C1602 C1594 1.574 . S
C1602 H1597 0.949 . S
C1602 C1608 1.368 . S
C1603 C1587 1.349 . S
C1603 H1595 0.950 . S
C1603 C1601 1.327 . S
C1604 C1592 1.349 . S
C1604 H1598 0.950 . S
C1604 C1605 1.327 . S
C1605 H1599 0.950 . S
C1605 C1604 1.327 . S
C1605 C1609 1.429 . S
C1606 C1589 1.574 . S
C1606 H1600 0.949 . S
C1606 C1610 1.368 . S
C1607 C1588 1.429 . S
C1607 C1601 1.429 . S
C1607 C1608 1.523 . S
C1608 C1589 1.368 . S
C1608 C1602 1.368 . S
C1608 C1607 1.523 . S
C1609 C1593 1.429 . S
C1609 C1605 1.429 . S
C1609 C1610 1.523 . S
C1610 C1594 1.368 . S
C1610 C1606 1.368 . S
C1610 C1609 1.523 . S
H1611 C1586 0.950 . S
H1612 C1588 0.950 . S
H1613 C1589 0.949 . S
H1614 C1591 0.950 . S
H1615 C1593 0.950 . S
C1616 C1617 1.349 . S
C1616 C1618 1.327 . S
C1616 H1641 0.950 . S
C1617 C1616 1.349 . S
C1617 C1633 1.349 . S
C1618 C1616 1.327 . S
C1618 C1637 1.429 . S
C1618 H1642 0.950 . S
C1619 C1636 1.574 . S
C1619 C1638 1.368 . S
C1619 H1643 0.949 . S
H1620 C1624 0.949 . S
C1621 C1622 1.349 . S
C1621 C1623 1.327 . S
C1621 H1644 0.950 . S
C1622 C1621 1.349 . S
C1622 C1634 1.349 . S
C1623 C1621 1.327 . S
C1623 C1639 1.429 . S
C1623 H1645 0.950 . S
C1624 H1620 0.949 . S
C1624 C1632 1.574 . S
C1624 C1640 1.368 . S
H1625 C1633 0.950 . S
H1626 C1631 0.950 . S
H1627 C1632 0.949 . S
H1628 C1634 0.950 . S
H1629 C1635 0.950 . S
H1630 C1636 0.949 . S
C1631 H1626 0.950 . S
C1631 C1633 1.327 . S
C1631 C1637 1.429 . S
C1632 C1624 1.574 . S
C1632 H1627 0.949 . S
C1632 C1638 1.368 . S
C1633 C1617 1.349 . S
C1633 H1625 0.950 . S
C1633 C1631 1.327 . S
C1634 C1622 1.349 . S
C1634 H1628 0.950 . S
C1634 C1635 1.327 . S
C1635 H1629 0.950 . S
C1635 C1634 1.327 . S
C1635 C1639 1.429 . S
C1636 C1619 1.574 . S
C1636 H1630 0.949 . S
C1636 C1640 1.368 . S
C1637 C1618 1.429 . S
C1637 C1631 1.429 . S
C1637 C1638 1.523 . S
C1638 C1619 1.368 . S
C1638 C1632 1.368 . S
C1638 C1637 1.523 . S
C1639 C1623 1.429 . S
C1639 C1635 1.429 . S
C1639 C1640 1.523 . S
C1640 C1624 1.368 . S
C1640 C1636 1.368 . S
C1640 C1639 1.523 . S
H1641 C1616 0.950 . S
H1642 C1618 0.950 . S
H1643 C1619 0.949 . S
H1644 C1621 0.950 . S
H1645 C1623 0.950 . S
C1646 C1647 1.349 . S
C1646 C1648 1.327 . S
C1646 H1671 0.950 . S
C1647 C1646 1.349 . S
C1647 C1663 1.349 . S
C1648 C1646 1.327 . S
C1648 C1667 1.429 . S
C1648 H1672 0.950 . S
C1649 C1666 1.574 . S
C1649 C1668 1.368 . S
C1649 H1673 0.949 . S
H1650 C1654 0.949 . S
C1651 C1652 1.349 . S
C1651 C1653 1.327 . S
C1651 H1674 0.950 . S
C1652 C1651 1.349 . S
C1652 C1664 1.349 . S
C1653 C1651 1.327 . S
C1653 C1669 1.429 . S
C1653 H1675 0.950 . S
C1654 H1650 0.949 . S
C1654 C1662 1.574 . S
C1654 C1670 1.368 . S
H1655 C1663 0.950 . S
H1656 C1661 0.950 . S
H1657 C1662 0.949 . S
H1658 C1664 0.950 . S
H1659 C1665 0.950 . S
H1660 C1666 0.949 . S
C1661 H1656 0.950 . S
C1661 C1663 1.327 . S
C1661 C1667 1.429 . S
C1662 C1654 1.574 . S
C1662 H1657 0.949 . S
C1662 C1668 1.368 . S
C1663 C1647 1.349 . S
C1663 H1655 0.950 . S
C1663 C1661 1.327 . S
C1664 C1652 1.349 . S
C1664 H1658 0.950 . S
C1664 C1665 1.327 . S
C1665 H1659 0.950 . S
C1665 C1664 1.327 . S
C1665 C1669 1.429 . S
C1666 C1649 1.574 . S
C1666 H1660 0.949 . S
C1666 C1670 1.368 . S
C1667 C1648 1.429 . S
C1667 C1661 1.429 . S
C1667 C1668 1.523 . S
C1668 C1649 1.368 . S
C1668 C1662 1.368 . S
C1668 C1667 1.523 . S
C1669 C1653 1.429 . S
C1669 C1665 1.429 . S
C1669 C1670 1.523 . S
C1670 C1654 1.368 . S
C1670 C1666 1.368 . S
C1670 C1669 1.523 . S
H1671 C1646 0.950 . S
H1672 C1648 0.950 . S
H1673 C1649 0.949 . S
H1674 C1651 0.950 . S
H1675 C1653 0.950 . S
C1676 C1677 1.349 . S
C1676 C1678 1.327 . S
C1676 H1701 0.950 . S
C1677 C1676 1.349 . S
C1677 C1693 1.349 . S
C1678 C1676 1.327 . S
C1678 C1697 1.429 . S
C1678 H1702 0.950 . S
C1679 C1696 1.574 . S
C1679 C1698 1.368 . S
C1679 H1703 0.949 . S
H1680 C1684 0.949 . S
C1681 C1682 1.349 . S
C1681 C1683 1.327 . S
C1681 H1704 0.950 . S
C1682 C1681 1.349 . S
C1682 C1694 1.349 . S
C1683 C1681 1.327 . S
C1683 C1699 1.429 . S
C1683 H1705 0.950 . S
C1684 H1680 0.949 . S
C1684 C1692 1.574 . S
C1684 C1700 1.368 . S
H1685 C1693 0.950 . S
H1686 C1691 0.950 . S
H1687 C1692 0.949 . S
H1688 C1694 0.950 . S
H1689 C1695 0.950 . S
H1690 C1696 0.949 . S
C1691 H1686 0.950 . S
C1691 C1693 1.327 . S
C1691 C1697 1.429 . S
C1692 C1684 1.574 . S
C1692 H1687 0.949 . S
C1692 C1698 1.368 . S
C1693 C1677 1.349 . S
C1693 H1685 0.950 . S
C1693 C1691 1.327 . S
C1694 C1682 1.349 . S
C1694 H1688 0.950 . S
C1694 C1695 1.327 . S
C1695 H1689 0.950 . S
C1695 C1694 1.327 . S
C1695 C1699 1.429 . S
C1696 C1679 1.574 . S
C1696 H1690 0.949 . S
C1696 C1700 1.368 . S
C1697 C1678 1.429 . S
C1697 C1691 1.429 . S
C1697 C1698 1.523 . S
C1698 C1679 1.368 . S
C1698 C1692 1.368 . S
C1698 C1697 1.523 . S
C1699 C1683 1.429 . S
C1699 C1695 1.429 . S
C1699 C1700 1.523 . S
C1700 C1684 1.368 . S
C1700 C1696 1.368 . S
C1700 C1699 1.523 . S
H1701 C1676 0.950 . S
H1702 C1678 0.950 . S
H1703 C1679 0.949 . S
H1704 C1681 0.950 . S
H1705 C1683 0.950 . S
C1706 C1707 1.349 . S
C1706 C1708 1.327 . S
C1706 H1731 0.950 . S
C1707 C1706 1.349 . S
C1707 C1723 1.349 . S
C1708 C1706 1.327 . S
C1708 C1727 1.429 . S
C1708 H1732 0.950 . S
C1709 C1726 1.574 . S
C1709 C1728 1.368 . S
C1709 H1733 0.949 . S
H1710 C1714 0.949 . S
C1711 C1712 1.349 . S
C1711 C1713 1.327 . S
C1711 H1734 0.950 . S
C1712 C1711 1.349 . S
C1712 C1724 1.349 . S
C1713 C1711 1.327 . S
C1713 C1729 1.429 . S
C1713 H1735 0.950 . S
C1714 H1710 0.949 . S
C1714 C1722 1.574 . S
C1714 C1730 1.368 . S
H1715 C1723 0.950 . S
H1716 C1721 0.950 . S
H1717 C1722 0.949 . S
H1718 C1724 0.950 . S
H1719 C1725 0.950 . S
H1720 C1726 0.949 . S
C1721 H1716 0.950 . S
C1721 C1723 1.327 . S
C1721 C1727 1.429 . S
C1722 C1714 1.574 . S
C1722 H1717 0.949 . S
C1722 C1728 1.368 . S
C1723 C1707 1.349 . S
C1723 H1715 0.950 . S
C1723 C1721 1.327 . S
C1724 C1712 1.349 . S
C1724 H1718 0.950 . S
C1724 C1725 1.327 . S
C1725 H1719 0.950 . S
C1725 C1724 1.327 . S
C1725 C1729 1.429 . S
C1726 C1709 1.574 . S
C1726 H1720 0.949 . S
C1726 C1730 1.368 . S
C1727 C1708 1.429 . S
C1727 C1721 1.429 . S
C1727 C1728 1.523 . S
C1728 C1709 1.368 . S
C1728 C1722 1.368 . S
C1728 C1727 1.523 . S
C1729 C1713 1.429 . S
C1729 C1725 1.429 . S
C1729 C1730 1.523 . S
C1730 C1714 1.368 . S
C1730 C1726 1.368 . S
C1730 C1729 1.523 . S
H1731 C1706 0.950 . S
H1732 C1708 0.950 . S
H1733 C1709 0.949 . S
H1734 C1711 0.950 . S
H1735 C1713 0.950 . S
C1736 C1737 1.349 . S
C1736 C1738 1.327 . S
C1736 H1761 0.950 . S
C1737 C1736 1.349 . S
C1737 C1753 1.349 . S
C1738 C1736 1.327 . S
C1738 C1757 1.429 . S
C1738 H1762 0.950 . S
C1739 C1756 1.574 . S
C1739 C1758 1.368 . S
C1739 H1763 0.949 . S
H1740 C1744 0.949 . S
C1741 C1742 1.349 . S
C1741 C1743 1.327 . S
C1741 H1764 0.950 . S
C1742 C1741 1.349 . S
C1742 C1754 1.349 . S
C1743 C1741 1.327 . S
C1743 C1759 1.429 . S
C1743 H1765 0.950 . S
C1744 H1740 0.949 . S
C1744 C1752 1.574 . S
C1744 C1760 1.368 . S
H1745 C1753 0.950 . S
H1746 C1751 0.950 . S
H1747 C1752 0.949 . S
H1748 C1754 0.950 . S
H1749 C1755 0.950 . S
H1750 C1756 0.949 . S
C1751 H1746 0.950 . S
C1751 C1753 1.327 . S
C1751 C1757 1.429 . S
C1752 C1744 1.574 . S
C1752 H1747 0.949 . S
C1752 C1758 1.368 . S
C1753 C1737 1.349 . S
C1753 H1745 0.950 . S
C1753 C1751 1.327 . S
C1754 C1742 1.349 . S
C1754 H1748 0.950 . S
C1754 C1755 1.327 . S
C1755 H1749 0.950 . S
C1755 C1754 1.327 . S
C1755 C1759 1.429 . S
C1756 C1739 1.574 . S
C1756 H1750 0.949 . S
C1756 C1760 1.368 . S
C1757 C1738 1.429 . S
C1757 C1751 1.429 . S
C1757 C1758 1.523 . S
C1758 C1739 1.368 . S
C1758 C1752 1.368 . S
C1758 C1757 1.523 . S
C1759 C1743 1.429 . S
C1759 C1755 1.429 . S
C1759 C1760 1.523 . S
C1760 C1744 1.368 . S
C1760 C1756 1.368 . S
C1760 C1759 1.523 . S
H1761 C1736 0.950 . S
H1762 C1738 0.950 . S
H1763 C1739 0.949 . S
H1764 C1741 0.950 . S
H1765 C1743 0.950 . S
C1766 C1767 1.349 . S
C1766 C1768 1.327 . S
C1766 H1791 0.950 . S
C1767 C1766 1.349 . S
C1767 C1783 1.349 . S
C1768 C1766 1.327 . S
C1768 C1787 1.429 . S
C1768 H1792 0.950 . S
C1769 C1786 1.574 . S
C1769 C1788 1.368 . S
C1769 H1793 0.949 . S
H1770 C1774 0.949 . S
C1771 C1772 1.349 . S
C1771 C1773 1.327 . S
C1771 H1794 0.950 . S
C1772 C1771 1.349 . S
C1772 C1784 1.349 . S
C1773 C1771 1.327 . S
C1773 C1789 1.429 . S
C1773 H1795 0.950 . S
C1774 H1770 0.949 . S
C1774 C1782 1.574 . S
C1774 C1790 1.368 . S
H1775 C1783 0.950 . S
H1776 C1781 0.950 . S
H1777 C1782 0.949 . S
H1778 C1784 0.950 . S
H1779 C1785 0.950 . S
H1780 C1786 0.949 . S
C1781 H1776 0.950 . S
C1781 C1783 1.327 . S
C1781 C1787 1.429 . S
C1782 C1774 1.574 . S
C1782 H1777 0.949 . S
C1782 C1788 1.368 . S
C1783 C1767 1.349 . S
C1783 H1775 0.950 . S
C1783 C1781 1.327 . S
C1784 C1772 1.349 . S
C1784 H1778 0.950 . S
C1784 C1785 1.327 . S
C1785 H1779 0.950 . S
C1785 C1784 1.327 . S
C1785 C1789 1.429 . S
C1786 C1769 1.574 . S
C1786 H1780 0.949 . S
C1786 C1790 1.368 . S
C1787 C1768 1.429 . S
C1787 C1781 1.429 . S
C1787 C1788 1.523 . S
C1788 C1769 1.368 . S
C1788 C1782 1.368 . S
C1788 C1787 1.523 . S
C1789 C1773 1.429 . S
C1789 C1785 1.429 . S
C1789 C1790 1.523 . S
C1790 C1774 1.368 . S
C1790 C1786 1.368 . S
C1790 C1789 1.523 . S
H1791 C1766 0.950 . S
H1792 C1768 0.950 . S
H1793 C1769 0.949 . S
H1794 C1771 0.950 . S
H1795 C1773 0.950 . S
C1796 C1797 1.349 . S
C1796 C1798 1.327 . S
C1796 H1821 0.950 . S
C1797 C1796 1.349 . S
C1797 C1813 1.349 . S
C1798 C1796 1.327 . S
C1798 C1817 1.429 . S
C1798 H1822 0.950 . S
C1799 C1816 1.574 . S
C1799 C1818 1.368 . S
C1799 H1823 0.949 . S
H1800 C1804 0.949 . S
C1801 C1802 1.349 . S
C1801 C1803 1.327 . S
C1801 H1824 0.950 . S
C1802 C1801 1.349 . S
C1802 C1814 1.349 . S
C1803 C1801 1.327 . S
C1803 C1819 1.429 . S
C1803 H1825 0.950 . S
C1804 H1800 0.949 . S
C1804 C1812 1.574 . S
C1804 C1820 1.368 . S
H1805 C1813 0.950 . S
H1806 C1811 0.950 . S
H1807 C1812 0.949 . S
H1808 C1814 0.950 . S
H1809 C1815 0.950 . S
H1810 C1816 0.949 . S
C1811 H1806 0.950 . S
C1811 C1813 1.327 . S
C1811 C1817 1.429 . S
C1812 C1804 1.574 . S
C1812 H1807 0.949 . S
C1812 C1818 1.368 . S
C1813 C1797 1.349 . S
C1813 H1805 0.950 . S
C1813 C1811 1.327 . S
C1814 C1802 1.349 . S
C1814 H1808 0.950 . S
C1814 C1815 1.327 . S
C1815 H1809 0.950 . S
C1815 C1814 1.327 . S
C1815 C1819 1.429 . S
C1816 C1799 1.574 . S
C1816 H1810 0.949 . S
C1816 C1820 1.368 . S
C1817 C1798 1.429 . S
C1817 C1811 1.429 . S
C1817 C1818 1.523 . S
C1818 C1799 1.368 . S
C1818 C1812 1.368 . S
C1818 C1817 1.523 . S
C1819 C1803 1.429 . S
C1819 C1815 1.429 . S
C1819 C1820 1.523 . S
C1820 C1804 1.368 . S
C1820 C1816 1.368 . S
C1820 C1819 1.523 . S
H1821 C1796 0.950 . S
H1822 C1798 0.950 . S
H1823 C1799 0.949 . S
H1824 C1801 0.950 . S
H1825 C1803 0.950 . S
C1826 C1827 1.349 . S
C1826 C1828 1.327 . S
C1826 H1851 0.950 . S
C1827 C1826 1.349 . S
C1827 C1843 1.349 . S
C1828 C1826 1.327 . S
C1828 C1847 1.429 . S
C1828 H1852 0.950 . S
C1829 C1846 1.574 . S
C1829 C1848 1.368 . S
C1829 H1853 0.949 . S
H1830 C1834 0.949 . S
C1831 C1832 1.349 . S
C1831 C1833 1.327 . S
C1831 H1854 0.950 . S
C1832 C1831 1.349 . S
C1832 C1844 1.349 . S
C1833 C1831 1.327 . S
C1833 C1849 1.429 . S
C1833 H1855 0.950 . S
C1834 H1830 0.949 . S
C1834 C1842 1.574 . S
C1834 C1850 1.368 . S
H1835 C1843 0.950 . S
H1836 C1841 0.950 . S
H1837 C1842 0.949 . S
H1838 C1844 0.950 . S
H1839 C1845 0.950 . S
H1840 C1846 0.949 . S
C1841 H1836 0.950 . S
C1841 C1843 1.327 . S
C1841 C1847 1.429 . S
C1842 C1834 1.574 . S
C1842 H1837 0.949 . S
C1842 C1848 1.368 . S
C1843 C1827 1.349 . S
C1843 H1835 0.950 . S
C1843 C1841 1.327 . S
C1844 C1832 1.349 . S
C1844 H1838 0.950 . S
C1844 C1845 1.327 . S
C1845 H1839 0.950 . S
C1845 C1844 1.327 . S
C1845 C1849 1.429 . S
C1846 C1829 1.574 . S
C1846 H1840 0.949 . S
C1846 C1850 1.368 . S
C1847 C1828 1.429 . S
C1847 C1841 1.429 . S
C1847 C1848 1.523 . S
C1848 C1829 1.368 . S
C1848 C1842 1.368 . S
C1848 C1847 1.523 . S
C1849 C1833 1.429 . S
C1849 C1845 1.429 . S
C1849 C1850 1.523 . S
C1850 C1834 1.368 . S
C1850 C1846 1.368 . S
C1850 C1849 1.523 . S
H1851 C1826 0.950 . S
H1852 C1828 0.950 . S
H1853 C1829 0.949 . S
H1854 C1831 0.950 . S
H1855 C1833 0.950 . S
C1856 C1857 1.349 . S
C1856 C1858 1.327 . S
C1856 H1881 0.950 . S
C1857 C1856 1.349 . S
C1857 C1873 1.349 . S
C1858 C1856 1.327 . S
C1858 C1877 1.429 . S
C1858 H1882 0.950 . S
C1859 C1876 1.574 . S
C1859 C1878 1.368 . S
C1859 H1883 0.949 . S
H1860 C1864 0.949 . S
C1861 C1862 1.349 . S
C1861 C1863 1.327 . S
C1861 H1884 0.950 . S
C1862 C1861 1.349 . S
C1862 C1874 1.349 . S
C1863 C1861 1.327 . S
C1863 C1879 1.429 . S
C1863 H1885 0.950 . S
C1864 H1860 0.949 . S
C1864 C1872 1.574 . S
C1864 C1880 1.368 . S
H1865 C1873 0.950 . S
H1866 C1871 0.950 . S
H1867 C1872 0.949 . S
H1868 C1874 0.950 . S
H1869 C1875 0.950 . S
H1870 C1876 0.949 . S
C1871 H1866 0.950 . S
C1871 C1873 1.327 . S
C1871 C1877 1.429 . S
C1872 C1864 1.574 . S
C1872 H1867 0.949 . S
C1872 C1878 1.368 . S
C1873 C1857 1.349 . S
C1873 H1865 0.950 . S
C1873 C1871 1.327 . S
C1874 C1862 1.349 . S
C1874 H1868 0.950 . S
C1874 C1875 1.327 . S
C1875 H1869 0.950 . S
C1875 C1874 1.327 . S
C1875 C1879 1.429 . S
C1876 C1859 1.574 . S
C1876 H1870 0.949 . S
C1876 C1880 1.368 . S
C1877 C1858 1.429 . S
C1877 C1871 1.429 . S
C1877 C1878 1.523 . S
C1878 C1859 1.368 . S
C1878 C1872 1.368 . S
C1878 C1877 1.523 . S
C1879 C1863 1.429 . S
C1879 C1875 1.429 . S
C1879 C1880 1.523 . S
C1880 C1864 1.368 . S
C1880 C1876 1.368 . S
C1880 C1879 1.523 . S
H1881 C1856 0.950 . S
H1882 C1858 0.950 . S
H1883 C1859 0.949 . S
H1884 C1861 0.950 . S
H1885 C1863 0.950 . S
C1886 C1887 1.349 . S
C1886 C1888 1.327 . S
C1886 H1911 0.950 . S
C1887 C1886 1.349 . S
C1887 C1903 1.349 . S
C1888 C1886 1.327 . S
C1888 C1907 1.429 . S
C1888 H1912 0.950 . S
C1889 C1906 1.574 . S
C1889 C1908 1.368 . S
C1889 H1913 0.949 . S
H1890 C1894 0.949 . S
C1891 C1892 1.349 . S
C1891 C1893 1.327 . S
C1891 H1914 0.950 . S
C1892 C1891 1.349 . S
C1892 C1904 1.349 . S
C1893 C1891 1.327 . S
C1893 C1909 1.429 . S
C1893 H1915 0.950 . S
C1894 H1890 0.949 . S
C1894 C1902 1.574 . S
C1894 C1910 1.368 . S
H1895 C1903 0.950 . S
H1896 C1901 0.950 . S
H1897 C1902 0.949 . S
H1898 C1904 0.950 . S
H1899 C1905 0.950 . S
H1900 C1906 0.949 . S
C1901 H1896 0.950 . S
C1901 C1903 1.327 . S
C1901 C1907 1.429 . S
C1902 C1894 1.574 . S
C1902 H1897 0.949 . S
C1902 C1908 1.368 . S
C1903 C1887 1.349 . S
C1903 H1895 0.950 . S
C1903 C1901 1.327 . S
C1904 C1892 1.349 . S
C1904 H1898 0.950 . S
C1904 C1905 1.327 . S
C1905 H1899 0.950 . S
C1905 C1904 1.327 . S
C1905 C1909 1.429 . S
C1906 C1889 1.574 . S
C1906 H1900 0.949 . S
C1906 C1910 1.368 . S
C1907 C1888 1.429 . S
C1907 C1901 1.429 . S
C1907 C1908 1.523 . S
C1908 C1889 1.368 . S
C1908 C1902 1.368 . S
C1908 C1907 1.523 . S
C1909 C1893 1.429 . S
C1909 C1905 1.429 . S
C1909 C1910 1.523 . S
C1910 C1894 1.368 . S
C1910 C1906 1.368 . S
C1910 C1909 1.523 . S
H1911 C1886 0.950 . S
H1912 C1888 0.950 . S
H1913 C1889 0.949 . S
H1914 C1891 0.950 . S
H1915 C1893 0.950 . S
C1916 C1917 1.349 . S
C1916 C1918 1.327 . S
C1916 H1941 0.950 . S
C1917 C1916 1.349 . S
C1917 C1933 1.349 . S
C1918 C1916 1.327 . S
C1918 C1937 1.429 . S
C1918 H1942 0.950 . S
C1919 C1936 1.574 . S
C1919 C1938 1.368 . S
C1919 H1943 0.949 . S
H1920 C1924 0.949 . S
C1921 C1922 1.349 . S
C1921 C1923 1.327 . S
C1921 H1944 0.950 . S
C1922 C1921 1.349 . S
C1922 C1934 1.349 . S
C1923 C1921 1.327 . S
C1923 C1939 1.429 . S
C1923 H1945 0.950 . S
C1924 H1920 0.949 . S
C1924 C1932 1.574 . S
C1924 C1940 1.368 . S
H1925 C1933 0.950 . S
H1926 C1931 0.950 . S
H1927 C1932 0.949 . S
H1928 C1934 0.950 . S
H1929 C1935 0.950 . S
H1930 C1936 0.949 . S
C1931 H1926 0.950 . S
C1931 C1933 1.327 . S
C1931 C1937 1.429 . S
C1932 C1924 1.574 . S
C1932 H1927 0.949 . S
C1932 C1938 1.368 . S
C1933 C1917 1.349 . S
C1933 H1925 0.950 . S
C1933 C1931 1.327 . S
C1934 C1922 1.349 . S
C1934 H1928 0.950 . S
C1934 C1935 1.327 . S
C1935 H1929 0.950 . S
C1935 C1934 1.327 . S
C1935 C1939 1.429 . S
C1936 C1919 1.574 . S
C1936 H1930 0.949 . S
C1936 C1940 1.368 . S
C1937 C1918 1.429 . S
C1937 C1931 1.429 . S
C1937 C1938 1.523 . S
C1938 C1919 1.368 . S
C1938 C1932 1.368 . S
C1938 C1937 1.523 . S
C1939 C1923 1.429 . S
C1939 C1935 1.429 . S
C1939 C1940 1.523 . S
C1940 C1924 1.368 . S
C1940 C1936 1.368 . S
C1940 C1939 1.523 . S
H1941 C1916 0.950 . S
H1942 C1918 0.950 . S
H1943 C1919 0.949 . S
H1944 C1921 0.950 . S
H1945 C1923 0.950 . S
C1946 C1947 1.349 . S
C1946 C1948 1.327 . S
C1946 H1971 0.950 . S
C1947 C1946 1.349 . S
C1947 C1963 1.349 . S
C1948 C1946 1.327 . S
C1948 C1967 1.429 . S
C1948 H1972 0.950 . S
C1949 C1966 1.574 . S
C1949 C1968 1.368 . S
C1949 H1973 0.949 . S
H1950 C1954 0.949 . S
C1951 C1952 1.349 . S
C1951 C1953 1.327 . S
C1951 H1974 0.950 . S
C1952 C1951 1.349 . S
C1952 C1964 1.349 . S
C1953 C1951 1.327 . S
C1953 C1969 1.429 . S
C1953 H1975 0.950 . S
C1954 H1950 0.949 . S
C1954 C1962 1.574 . S
C1954 C1970 1.368 . S
H1955 C1963 0.950 . S
H1956 C1961 0.950 . S
H1957 C1962 0.949 . S
H1958 C1964 0.950 . S
H1959 C1965 0.950 . S
H1960 C1966 0.949 . S
C1961 H1956 0.950 . S
C1961 C1963 1.327 . S
C1961 C1967 1.429 . S
C1962 C1954 1.574 . S
C1962 H1957 0.949 . S
C1962 C1968 1.368 . S
C1963 C1947 1.349 . S
C1963 H1955 0.950 . S
C1963 C1961 1.327 . S
C1964 C1952 1.349 . S
C1964 H1958 0.950 . S
C1964 C1965 1.327 . S
C1965 H1959 0.950 . S
C1965 C1964 1.327 . S
C1965 C1969 1.429 . S
C1966 C1949 1.574 . S
C1966 H1960 0.949 . S
C1966 C1970 1.368 . S
C1967 C1948 1.429 . S
C1967 C1961 1.429 . S
C1967 C1968 1.523 . S
C1968 C1949 1.368 . S
C1968 C1962 1.368 . S
C1968 C1967 1.523 . S
C1969 C1953 1.429 . S
C1969 C1965 1.429 . S
C1969 C1970 1.523 . S
C1970 C1954 1.368 . S
C1970 C1966 1.368 . S
C1970 C1969 1.523 . S
H1971 C1946 0.950 . S
H1972 C1948 0.950 . S
H1973 C1949 0.949 . S
H1974 C1951 0.950 . S
H1975 C1953 0.950 . S
C1976 C1977 1.349 . S
C1976 C1978 1.327 . S
C1976 H2001 0.950 . S
C1977 C1976 1.349 . S
C1977 C1993 1.349 . S
C1978 C1976 1.327 . S
C1978 C1997 1.429 . S
C1978 H2002 0.950 . S
C1979 C1996 1.574 . S
C1979 C1998 1.368 . S
C1979 H2003 0.949 . S
H1980 C1984 0.949 . S
C1981 C1982 1.349 . S
C1981 C1983 1.327 . S
C1981 H2004 0.950 . S
C1982 C1981 1.349 . S
C1982 C1994 1.349 . S
C1983 C1981 1.327 . S
C1983 C1999 1.429 . S
C1983 H2005 0.950 . S
C1984 H1980 0.949 . S
C1984 C1992 1.574 . S
C1984 C2000 1.368 . S
H1985 C1993 0.950 . S
H1986 C1991 0.950 . S
H1987 C1992 0.949 . S
H1988 C1994 0.950 . S
H1989 C1995 0.950 . S
H1990 C1996 0.949 . S
C1991 H1986 0.950 . S
C1991 C1993 1.327 . S
C1991 C1997 1.429 . S
C1992 C1984 1.574 . S
C1992 H1987 0.949 . S
C1992 C1998 1.368 . S
C1993 C1977 1.349 . S
C1993 H1985 0.950 . S
C1993 C1991 1.327 . S
C1994 C1982 1.349 . S
C1994 H1988 0.950 . S
C1994 C1995 1.327 . S
C1995 H1989 0.950 . S
C1995 C1994 1.327 . S
C1995 C1999 1.429 . S
C1996 C1979 1.574 . S
C1996 H1990 0.949 . S
C1996 C2000 1.368 . S
C1997 C1978 1.429 . S
C1997 C1991 1.429 . S
C1997 C1998 1.523 . S
C1998 C1979 1.368 . S
C1998 C1992 1.368 . S
C1998 C1997 1.523 . S
C1999 C1983 1.429 . S
C1999 C1995 1.429 . S
C1999 C2000 1.523 . S
C2000 C1984 1.368 . S
C2000 C1996 1.368 . S
C2000 C1999 1.523 . S
H2001 C1976 0.950 . S
H2002 C1978 0.950 . S
H2003 C1979 0.949 . S
H2004 C1981 0.950 . S
H2005 C1983 0.950 . S
C2006 C2007 1.349 . S
C2006 C2008 1.327 . S
C2006 H2031 0.950 . S
C2007 C2006 1.349 . S
C2007 C2023 1.349 . S
C2008 C2006 1.327 . S
C2008 C2027 1.429 . S
C2008 H2032 0.950 . S
C2009 C2026 1.574 . S
C2009 C2028 1.368 . S
C2009 H2033 0.949 . S
H2010 C2014 0.949 . S
C2011 C2012 1.349 . S
C2011 C2013 1.327 . S
C2011 H2034 0.950 . S
C2012 C2011 1.349 . S
C2012 C2024 1.349 . S
C2013 C2011 1.327 . S
C2013 C2029 1.429 . S
C2013 H2035 0.950 . S
C2014 H2010 0.949 . S
C2014 C2022 1.574 . S
C2014 C2030 1.368 . S
H2015 C2023 0.950 . S
H2016 C2021 0.950 . S
H2017 C2022 0.949 . S
H2018 C2024 0.950 . S
H2019 C2025 0.950 . S
H2020 C2026 0.949 . S
C2021 H2016 0.950 . S
C2021 C2023 1.327 . S
C2021 C2027 1.429 . S
C2022 C2014 1.574 . S
C2022 H2017 0.949 . S
C2022 C2028 1.368 . S
C2023 C2007 1.349 . S
C2023 H2015 0.950 . S
C2023 C2021 1.327 . S
C2024 C2012 1.349 . S
C2024 H2018 0.950 . S
C2024 C2025 1.327 . S
C2025 H2019 0.950 . S
C2025 C2024 1.327 . S
C2025 C2029 1.429 . S
C2026 C2009 1.574 . S
C2026 H2020 0.949 . S
C2026 C2030 1.368 . S
C2027 C2008 1.429 . S
C2027 C2021 1.429 . S
C2027 C2028 1.523 . S
C2028 C2009 1.368 . S
C2028 C2022 1.368 . S
C2028 C2027 1.523 . S
C2029 C2013 1.429 . S
C2029 C2025 1.429 . S
C2029 C2030 1.523 . S
C2030 C2014 1.368 . S
C2030 C2026 1.368 . S
C2030 C2029 1.523 . S
H2031 C2006 0.950 . S
H2032 C2008 0.950 . S
H2033 C2009 0.949 . S
H2034 C2011 0.950 . S
H2035 C2013 0.950 . S
C602 C283 1.406 . S
C597 N2 1.389 . S
C632 C326 2.770 . S
C627 C7 2.796 . S
C662 C372 1.679 . S
C657 N12 1.587 . S
C687 C16 1.881 . S
C692 C415 1.906 . S
C722 C455 2.851 . S
C717 C30 2.862 1_565 S
C752 C483 1.480 . S
C747 N35 1.442 . S
C777 C39 2.043 . S
C782 C526 2.003 . S
C812 C572 1.264 . S
C807 N25 1.198 . S
C842 C278 1.149 . S
C837 N58 1.116 . S
C867 N81 1.856 . S
C872 C327 1.862 . S
C902 C366 1.378 . S
C897 N104 1.356 . S
C927 N127 1.060 . S
C932 C403 1.061 . S
C962 C443 0.682 . S
C957 N48 0.677 . S
C992 C478 1.582 . S
C987 N71 1.548 1_556 S
C1017 N94 1.090 . S
C1022 C527 1.078 . S
C1052 C566 1.968 . S
C1047 N117 1.973 . S
C1077 C85 2.513 . S
C1082 C295 2.466 . S
C1107 C122 2.347 . S
C1112 C438 2.320 . S
C1137 C53 1.999 . S
C1142 C495 1.948 . S
C1172 C532 1.310 . S
C1167 C76 1.339 1_655 S
C1202 C567 1.739 . S
C1197 C99 1.746 . S
C1232 C367 1.991 . S
C1227 C131 1.982 . S
C1262 C398 1.467 . S
C1257 C62 1.485 1_565 S
C1287 C108 0.957 . S
C1292 C332 0.946 . S
C1322 C563 1.467 . S
C1317 N140 1.454 . S
C1347 C145 2.792 . S
C1352 C446 2.764 . S
C1382 C492 1.575 . S
C1377 N150 1.484 . S
C1407 C154 1.888 . S
C1412 C535 1.913 . S
C1442 C335 2.854 . S
C1437 C168 2.867 . S
C1467 N173 1.332 . S
C1472 C363 1.371 . S
C1502 C406 2.005 . S
C1497 C177 2.048 . S
C1532 C292 1.333 . S
C1527 N163 1.258 . S
C1562 C558 1.609 . S
C1557 C200 1.603 . S
C1592 C447 2.159 . S
C1587 N219 2.153 . S
C1617 N242 1.599 . S
C1622 C486 1.629 . S
C1652 C523 1.308 . S
C1647 C269 1.353 . S
C1682 C323 0.962 . S
C1677 C191 0.980 . S
C1707 N209 1.797 . S
C1712 C358 1.836 . S
C1737 N232 1.402 . S
C1742 C407 1.390 . S
C1767 C260 2.514 . S
C1772 C286 2.472 . S
C1797 C223 2.222 . S
C1802 C575 2.179 . S
C1827 N255 1.886 . S
C1832 C318 1.908 . S
C1857 N186 1.483 . S
C1862 C375 1.482 . S
C1892 C412 1.010 . S
C1887 C214 1.029 . S
C1922 C287 1.427 . S
C1917 C237 1.429 . S
C1952 C487 1.561 . S
C1947 N265 1.504 . S
C1982 C518 1.108 . S
C1977 N196 1.107 . S
C2012 C452 0.659 . S
C2007 C246 0.652 . S
