# Generated by pormake.
# Topology csq, (4,8)-cn, num edge types: 1
# Building blocks:
#     Node 0, Type 0, BuildingBlock: KOZSID_clean_sbu_0, # of connection points: 4
#     Node 1, Type 0, BuildingBlock: KOZSID_clean_sbu_0, # of connection points: 4
#     Node 2, Type 0, BuildingBlock: KOZSID_clean_sbu_0, # of connection points: 4
#     Node 3, Type 0, BuildingBlock: KOZSID_clean_sbu_0, # of connection points: 4
#     Node 4, Type 0, BuildingBlock: KOZSID_clean_sbu_0, # of connection points: 4
#     Node 5, Type 0, BuildingBlock: KOZSID_clean_sbu_0, # of connection points: 4
#     Node 6, Type 1, BuildingBlock: TAGTUT_clean_sbu_3, # of connection points: 8
#     Node 7, Type 1, BuildingBlock: TAGTUT_clean_sbu_3, # of connection points: 8
#     Node 8, Type 1, BuildingBlock: TAGTUT_clean_sbu_3, # of connection points: 8
#     Edge 9, Type (0, 1), BuildingBlock: EZIPEK_clean_linker_0, # of connection points: 2
#     Edge 10, Type (0, 1), BuildingBlock: EZIPEK_clean_linker_0, # of connection points: 2
#     Edge 11, Type (0, 1), BuildingBlock: EZIPEK_clean_linker_0, # of connection points: 2
#     Edge 12, Type (0, 1), BuildingBlock: EZIPEK_clean_linker_0, # of connection points: 2
#     Edge 13, Type (0, 1), BuildingBlock: EZIPEK_clean_linker_0, # of connection points: 2
#     Edge 14, Type (0, 1), BuildingBlock: EZIPEK_clean_linker_0, # of connection points: 2
#     Edge 15, Type (0, 1), BuildingBlock: EZIPEK_clean_linker_0, # of connection points: 2
#     Edge 16, Type (0, 1), BuildingBlock: EZIPEK_clean_linker_0, # of connection points: 2
#     Edge 17, Type (0, 1), BuildingBlock: EZIPEK_clean_linker_0, # of connection points: 2
#     Edge 18, Type (0, 1), BuildingBlock: EZIPEK_clean_linker_0, # of connection points: 2
#     Edge 19, Type (0, 1), BuildingBlock: EZIPEK_clean_linker_0, # of connection points: 2
#     Edge 20, Type (0, 1), BuildingBlock: EZIPEK_clean_linker_0, # of connection points: 2
#     Edge 21, Type (0, 1), BuildingBlock: EZIPEK_clean_linker_0, # of connection points: 2
#     Edge 22, Type (0, 1), BuildingBlock: EZIPEK_clean_linker_0, # of connection points: 2
#     Edge 23, Type (0, 1), BuildingBlock: EZIPEK_clean_linker_0, # of connection points: 2
#     Edge 24, Type (0, 1), BuildingBlock: EZIPEK_clean_linker_0, # of connection points: 2
#     Edge 25, Type (0, 1), BuildingBlock: EZIPEK_clean_linker_0, # of connection points: 2
#     Edge 26, Type (0, 1), BuildingBlock: EZIPEK_clean_linker_0, # of connection points: 2
#     Edge 27, Type (0, 1), BuildingBlock: EZIPEK_clean_linker_0, # of connection points: 2
#     Edge 28, Type (0, 1), BuildingBlock: EZIPEK_clean_linker_0, # of connection points: 2
#     Edge 29, Type (0, 1), BuildingBlock: EZIPEK_clean_linker_0, # of connection points: 2
#     Edge 30, Type (0, 1), BuildingBlock: EZIPEK_clean_linker_0, # of connection points: 2
#     Edge 31, Type (0, 1), BuildingBlock: EZIPEK_clean_linker_0, # of connection points: 2
#     Edge 32, Type (0, 1), BuildingBlock: EZIPEK_clean_linker_0, # of connection points: 2
# Relax obj value: 0.035
# Max RMSD: 0.126
# Mean RMSD: 0.042
data_MOF--net-csq--node1-KOZSID_clean_sbu_0--node2-TAGTUT_clean_sbu_3--edge1-EZIPEK_clean_linker_0
_symmetry_space_group_name_H-M    P1
_symmetry_Int_Tables_number       1
_symmetry_cell_setting            triclinic
loop_
_symmetry_equiv_pos_as_xyz
'x, y, z'
_cell_length_a     44.074802
_cell_length_b     43.355684
_cell_length_c     15.842632
_cell_angle_alpha  86.867426
_cell_angle_beta   99.156179
_cell_angle_gamma 119.82683
loop_
_atom_site_label
_atom_site_type_symbol
_atom_site_fract_x
_atom_site_fract_y
_atom_site_fract_z
_atom_type_partial_charge
C0 C 0.31438 0.52641 0.32767 0.0
C1 C 0.33847 0.5625 0.3361 0.0
C2 C 0.32437 0.57892 0.28033 0.0
C3 C 0.29274 0.55189 0.24086 0.0
N4 N 0.2854 0.51931 0.26963 0.0
Co5 Co 0.24577 0.47205 0.22073 0.0
N6 N 0.22797 0.49523 0.12905 0.0
C7 C 0.24031 0.53052 0.11978 0.0
C8 C 0.22065 0.53821 0.05509 0.0
C9 C 0.19385 0.50591 0.02209 0.0
C10 C 0.19887 0.48028 0.06847 0.0
N11 N 0.20773 0.42458 0.17 0.0
C12 C 0.18278 0.41658 0.10048 0.0
C13 C 0.16238 0.38015 0.08411 0.0
C14 C 0.17446 0.36447 0.14703 0.0
C15 C 0.20152 0.39214 0.1974 0.0
N16 N 0.26237 0.44875 0.31448 0.0
C17 C 0.24689 0.41381 0.33214 0.0
C18 C 0.26425 0.40618 0.40249 0.0
C19 C 0.29295 0.43811 0.43039 0.0
C20 C 0.29136 0.46334 0.37479 0.0
N21 N 0.21317 0.47334 0.29422 0.0
C22 C 0.16428 0.47583 0.38674 0.0
C23 C 0.16221 0.44351 0.36928 0.0
C24 C 0.18688 0.44287 0.32379 0.0
C25 C 0.19155 0.5068 0.35906 0.0
C26 C 0.21541 0.505 0.31357 0.0
N27 N 0.27831 0.47149 0.14697 0.0
C28 C 0.31018 0.4448 0.10038 0.0
C29 C 0.33141 0.47592 0.05912 0.0
C30 C 0.32386 0.50358 0.05734 0.0
C31 C 0.29729 0.50072 0.10054 0.0
C32 C 0.28403 0.4432 0.14427 0.0
H33 H 0.2931 0.52293 0.09682 0.0
H34 H 0.26961 0.41949 0.17817 0.0
H35 H 0.18379 0.41736 0.31221 0.0
H36 H 0.23518 0.52977 0.29411 0.0
C37 C 0.27059 0.55571 0.17237 0.0
C38 C 0.32044 0.49947 0.37342 0.0
C39 C 0.17464 0.44212 0.05499 0.0
C40 C 0.21948 0.38851 0.27451 0.0
H41 H 0.36388 0.57538 0.37696 0.0
H42 H 0.3364 0.60703 0.26756 0.0
H43 H 0.225 0.56419 0.03502 0.0
H44 H 0.17275 0.5017 0.97054 0.0
H45 H 0.14011 0.36637 0.03398 0.0
H46 H 0.16395 0.33626 0.15671 0.0
H47 H 0.25804 0.38026 0.42729 0.0
H48 H 0.31378 0.4421 0.48253 0.0
H49 H 0.14152 0.41883 0.39019 0.0
H50 H 0.19422 0.53242 0.37172 0.0
H51 H 0.31446 0.42226 0.10085 0.0
H52 H 0.3387 0.52753 0.02322 0.0
C53 C 0.83103 0.3016 0.04281 0.0
C54 C 0.86496 0.30597 0.0568 0.0
C55 C 0.86657 0.28614 0.12556 0.0
C56 C 0.83385 0.27092 0.15026 0.0
N57 N 0.81133 0.27936 0.10049 0.0
Co58 Co 0.76363 0.26717 0.12394 0.0
N59 N 0.76223 0.2301 0.20559 0.0
C60 C 0.79021 0.22745 0.24479 0.0
C61 C 0.78104 0.1992 0.29828 0.0
C62 C 0.74498 0.18307 0.29235 0.0
C63 C 0.73427 0.20251 0.2353 0.0
N64 N 0.71603 0.25461 0.14827 0.0
C65 C 0.69162 0.22434 0.18064 0.0
C66 C 0.66068 0.2252 0.18216 0.0
C67 C 0.6661 0.25728 0.14996 0.0
C68 C 0.69989 0.2741 0.13026 0.0
N69 N 0.7651 0.30467 0.04304 0.0
C70 C 0.74324 0.31835 0.03517 0.0
C71 C 0.74931 0.3425 0.97127 0.0
C72 C 0.77718 0.34474 0.93799 0.0
C73 C 0.78698 0.32217 0.98454 0.0
N74 N 0.74116 0.23168 0.03034 0.0
C75 C 0.69533 0.17164 0.92572 0.0
C76 C 0.69384 0.20309 0.91343 0.0
C77 C 0.71601 0.23227 0.9685 0.0
C78 C 0.72335 0.17253 0.98386 0.0
C79 C 0.7469 0.20341 0.0328 0.0
N80 N 0.78611 0.30234 0.21817 0.0
C81 C 0.8373 0.35676 0.27362 0.0
C82 C 0.83183 0.34573 0.35662 0.0
C83 C 0.80095 0.31452 0.36998 0.0
C84 C 0.7779 0.29331 0.29901 0.0
C85 C 0.81416 0.33472 0.2055 0.0
H86 H 0.75494 0.26849 0.30986 0.0
H87 H 0.82086 0.34273 0.14318 0.0
H88 H 0.71099 0.25418 0.96405 0.0
H89 H 0.76797 0.20326 0.07749 0.0
C90 C 0.82308 0.2477 0.21782 0.0
C91 C 0.82034 0.32254 0.9814 0.0
C92 C 0.69777 0.19532 0.21434 0.0
C93 C 0.71416 0.3039 0.07924 0.0
H94 H 0.88697 0.32297 0.02367 0.0
H95 H 0.88913 0.28363 0.15491 0.0
H96 H 0.79826 0.19043 0.33428 0.0
H97 H 0.72848 0.1597 0.32604 0.0
H98 H 0.63668 0.20474 0.20375 0.0
H99 H 0.64695 0.26633 0.13791 0.0
H100 H 0.73475 0.35628 0.9501 0.0
H101 H 0.78987 0.3622 0.88785 0.0
H102 H 0.6734 0.20399 0.86704 0.0
H103 H 0.7259 0.14901 0.99519 0.0
H104 H 0.86076 0.38112 0.26156 0.0
H105 H 0.79583 0.30575 0.4341 0.0
C106 C 0.55474 0.71819 0.14533 0.0
C107 C 0.58537 0.71597 0.16723 0.0
C108 C 0.6096 0.74032 0.11983 0.0
C109 C 0.59268 0.7563 0.07246 0.0
N110 N 0.55937 0.74405 0.08774 0.0
Co111 Co 0.52599 0.76012 0.0302 0.0
N112 N 0.56471 0.80275 0.98237 0.0
C113 C 0.59748 0.80829 0.98008 0.0
C114 C 0.61811 0.83874 0.9396 0.0
C115 C 0.597 0.8533 0.9135 0.0
C116 C 0.56456 0.83087 0.93988 0.0
N117 N 0.49243 0.77545 0.97011 0.0
C118 C 0.49854 0.80616 0.93026 0.0
C119 C 0.46698 0.80575 0.89964 0.0
C120 C 0.44027 0.77335 0.91815 0.0
C121 C 0.45682 0.75595 0.95987 0.0
N122 N 0.48748 0.71814 0.08051 0.0
C123 C 0.45248 0.70554 0.05781 0.0
C124 C 0.43198 0.67583 0.10074 0.0
C125 C 0.45541 0.66873 0.1533 0.0
C126 C 0.48905 0.69469 0.13961 0.0
N127 N 0.5347 0.78872 0.13157 0.0
C128 C 0.54908 0.83654 0.26262 0.0
C129 C 0.51433 0.81468 0.22313 0.0
C130 C 0.50764 0.79059 0.15831 0.0
C131 C 0.57613 0.83212 0.24044 0.0
C132 C 0.56844 0.8084 0.17391 0.0
N133 N 0.51798 0.73174 0.92854 0.0
C134 C 0.51333 0.67865 0.87583 0.0
C135 C 0.52817 0.69654 0.8046 0.0
C136 C 0.53368 0.73081 0.79032 0.0
C137 C 0.52738 0.74764 0.85259 0.0
C138 C 0.50827 0.69667 0.9367 0.0
H139 H 0.53233 0.77419 0.84115 0.0
H140 H 0.49854 0.68254 0.99226 0.0
H141 H 0.48077 0.77462 0.12772 0.0
H142 H 0.59016 0.8073 0.15456 0.0
C143 C 0.6085 0.78544 0.02082 0.0
C144 C 0.52112 0.69295 0.17474 0.0
C145 C 0.53333 0.83516 0.91446 0.0
C146 C 0.43999 0.72364 0.00034 0.0
H147 H 0.58958 0.69808 0.21155 0.0
H148 H 0.63655 0.74612 0.12097 0.0
H149 H 0.64525 0.8491 0.93003 0.0
H150 H 0.60429 0.87715 0.87693 0.0
H151 H 0.46349 0.82655 0.86674 0.0
H152 H 0.41215 0.76405 0.90515 0.0
H153 H 0.4034 0.66103 0.0945 0.0
H154 H 0.44845 0.64626 0.19473 0.0
H155 H 0.4928 0.8174 0.23946 0.0
H156 H 0.60331 0.84875 0.27001 0.0
H157 H 0.50768 0.65152 0.88687 0.0
H158 H 0.54403 0.74482 0.73382 0.0
C159 C 0.85606 0.58916 0.16192 0.0
C160 C 0.88024 0.62442 0.18539 0.0
C161 C 0.86581 0.64419 0.1465 0.0
C162 C 0.83372 0.61993 0.1021 0.0
N163 N 0.82698 0.58616 0.11121 0.0
Co164 Co 0.78382 0.54284 0.05954 0.0
N165 N 0.77049 0.57118 0.97344 0.0
C166 C 0.78522 0.6069 0.97463 0.0
C167 C 0.76936 0.61907 0.91059 0.0
C168 C 0.74216 0.58916 0.86772 0.0
C169 C 0.74292 0.56026 0.9083 0.0
N170 N 0.73989 0.49908 0.00961 0.0
C171 C 0.71545 0.49479 0.94074 0.0
C172 C 0.68867 0.4596 0.92865 0.0
C173 C 0.69566 0.44135 0.99468 0.0
C174 C 0.72634 0.46632 0.04246 0.0
N175 N 0.79777 0.51455 0.1432 0.0
C176 C 0.77752 0.48025 0.16233 0.0
C177 C 0.79624 0.46679 0.21286 0.0
C178 C 0.83038 0.49416 0.22597 0.0
C179 C 0.8305 0.52322 0.18392 0.0
N180 N 0.75761 0.54898 0.1412 0.0
C181 C 0.72024 0.55814 0.25584 0.0
C182 C 0.75051 0.55561 0.28621 0.0
C183 C 0.76904 0.55138 0.22761 0.0
C184 C 0.7098 0.55724 0.16814 0.0
C185 C 0.72876 0.5528 0.11248 0.0
N186 N 0.81116 0.5375 0.98039 0.0
C187 C 0.83391 0.50271 0.92932 0.0
C188 C 0.86175 0.53347 0.9016 0.0
C189 C 0.86236 0.56578 0.90844 0.0
C190 C 0.83664 0.56716 0.94699 0.0
C191 C 0.80891 0.5053 0.96863 0.0
H192 H 0.83852 0.59265 0.95337 0.0
H193 H 0.7888 0.48144 0.99289 0.0
H194 H 0.79264 0.5502 0.25245 0.0
H195 H 0.71959 0.55258 0.04633 0.0
C196 C 0.81334 0.62803 0.0379 0.0
C197 C 0.86147 0.55919 0.18822 0.0
C198 C 0.71269 0.52387 0.89675 0.0
C199 C 0.74424 0.45942 0.11493 0.0
H200 H 0.90594 0.63479 0.22459 0.0
H201 H 0.87823 0.6729 0.14635 0.0
H202 H 0.77584 0.64633 0.89866 0.0
H203 H 0.72248 0.58867 0.81654 0.0
H204 H 0.66533 0.44883 0.88035 0.0
H205 H 0.67999 0.41335 0.00704 0.0
H206 H 0.78681 0.43957 0.23214 0.0
H207 H 0.85262 0.49249 0.2612 0.0
H208 H 0.75943 0.55648 0.35425 0.0
H209 H 0.68658 0.55934 0.14257 0.0
H210 H 0.83217 0.4771 0.923 0.0
H211 H 0.88301 0.58995 0.88548 0.0
C212 C 0.29998 0.83983 0.20432 0.0
C213 C 0.29849 0.87055 0.21582 0.0
C214 C 0.26823 0.86627 0.16615 0.0
C215 C 0.25288 0.83326 0.12764 0.0
N216 N 0.27124 0.81606 0.15084 0.0
Co217 Co 0.25869 0.76829 0.10623 0.0
N218 N 0.20963 0.7575 0.05707 0.0
C219 C 0.19734 0.78056 0.04979 0.0
C220 C 0.16192 0.76503 0.01825 0.0
C221 C 0.15119 0.72999 0.00358 0.0
C222 C 0.18092 0.72626 0.02602 0.0
N223 N 0.24714 0.72177 0.05662 0.0
C224 C 0.21619 0.69534 0.01609 0.0
C225 C 0.22092 0.66924 0.98289 0.0
C226 C 0.25596 0.67955 0.00391 0.0
C227 C 0.27066 0.71134 0.04781 0.0
N228 N 0.30706 0.7781 0.15954 0.0
C229 C 0.32302 0.75982 0.14403 0.0
C230 C 0.35656 0.77295 0.18842 0.0
C231 C 0.3625 0.80172 0.23432 0.0
C232 C 0.33211 0.80451 0.21506 0.0
N233 N 0.24072 0.74604 0.21202 0.0
C234 C 0.20353 0.70811 0.34427 0.0
C235 C 0.22316 0.69669 0.30706 0.0
C236 C 0.2422 0.71649 0.24187 0.0
C237 C 0.2054 0.74029 0.31947 0.0
C238 C 0.22352 0.75842 0.25257 0.0
N239 N 0.27593 0.79086 0.00016 0.0
C240 C 0.31997 0.84105 0.93536 0.0
C241 C 0.29565 0.83506 0.86156 0.0
C242 C 0.2623 0.80465 0.85451 0.0
C243 C 0.25337 0.78222 0.92407 0.0
C244 C 0.30959 0.81875 0.00367 0.0
H245 H 0.22763 0.75893 0.91716 0.0
H246 H 0.32856 0.82545 0.06025 0.0
H247 H 0.25654 0.70686 0.21292 0.0
H248 H 0.2215 0.78128 0.23092 0.0
C249 C 0.21898 0.81561 0.08034 0.0
C250 C 0.33034 0.83552 0.24051 0.0
C251 C 0.18206 0.69425 0.00578 0.0
C252 C 0.3054 0.73 0.08934 0.0
H253 H 0.31747 0.89381 0.25527 0.0
H254 H 0.25814 0.88463 0.16074 0.0
H255 H 0.14571 0.77757 0.00804 0.0
H256 H 0.12483 0.70981 0.97647 0.0
H257 H 0.20119 0.64528 0.94679 0.0
H258 H 0.26901 0.66526 0.99017 0.0
H259 H 0.37469 0.76305 0.18682 0.0
H260 H 0.38699 0.81952 0.27445 0.0
H261 H 0.22225 0.6718 0.32492 0.0
H262 H 0.19034 0.74975 0.34662 0.0
H263 H 0.34634 0.86404 0.94192 0.0
H264 H 0.24313 0.7989 0.79713 0.0
C265 C 0.51874 0.20615 0.29912 0.0
C266 C 0.55082 0.2102 0.34067 0.0
C267 C 0.57603 0.2446 0.33012 0.0
C268 C 0.5583 0.2595 0.28139 0.0
N269 N 0.52345 0.23653 0.25999 0.0
Co270 Co 0.48912 0.24515 0.17896 0.0
N271 N 0.52787 0.28865 0.13475 0.0
C272 C 0.56215 0.30591 0.1709 0.0
C273 C 0.58308 0.33465 0.12583 0.0
C274 C 0.56057 0.33613 0.05768 0.0
C275 C 0.52701 0.30825 0.06548 0.0
N276 N 0.45465 0.25338 0.09662 0.0
C277 C 0.46001 0.27666 0.03193 0.0
C278 C 0.42835 0.27441 0.99345 0.0
C279 C 0.40249 0.24961 0.03664 0.0
C280 C 0.41965 0.23801 0.09877 0.0
N281 N 0.45058 0.20236 0.22448 0.0
C282 C 0.41647 0.19408 0.216 0.0
C283 C 0.39626 0.16428 0.25922 0.0
C284 C 0.41912 0.15314 0.29763 0.0
C285 C 0.45201 0.17675 0.275 0.0
N286 N 0.48732 0.27405 0.26658 0.0
C287 C 0.48279 0.31512 0.38814 0.0
C288 C 0.4826 0.32436 0.30258 0.0
C289 C 0.48465 0.30343 0.24317 0.0
C290 C 0.48455 0.28448 0.4124 0.0
C291 C 0.48702 0.26435 0.35039 0.0
N292 N 0.49061 0.21574 0.09244 0.0
C293 C 0.46006 0.16496 0.99566 0.0
C294 C 0.49234 0.16878 0.98253 0.0
C295 C 0.52379 0.19714 0.02266 0.0
C296 C 0.52234 0.22038 0.07738 0.0
C297 C 0.45977 0.18887 0.05049 0.0
H298 H 0.54694 0.24139 0.10934 0.0
H299 H 0.43455 0.18496 0.06085 0.0
H300 H 0.48358 0.31083 0.1781 0.0
H301 H 0.48847 0.24089 0.37025 0.0
C302 C 0.57448 0.29169 0.24001 0.0
C303 C 0.48404 0.17429 0.30349 0.0
C304 C 0.49477 0.30509 0.01419 0.0
C305 C 0.40365 0.21174 0.15749 0.0
H306 H 0.55583 0.19051 0.37471 0.0
H307 H 0.60425 0.25661 0.35102 0.0
H308 H 0.61141 0.35211 0.14004 0.0
H309 H 0.56772 0.35629 0.00966 0.0
H310 H 0.42456 0.29022 0.942 0.0
H311 H 0.37459 0.24132 0.02472 0.0
H312 H 0.36808 0.15149 0.26036 0.0
H313 H 0.41234 0.13015 0.33723 0.0
H314 H 0.48104 0.34785 0.28177 0.0
H315 H 0.48464 0.27665 0.47849 0.0
H316 H 0.43528 0.14314 0.96534 0.0
H317 H 0.54917 0.20062 0.01379 0.0
C318 C 0.06088 0.478 0.57108 0.0
C319 C 0.04814 0.42368 0.86539 0.0
C320 C 0.94509 0.41881 0.83287 0.0
Mg321 Mg 0.02812 0.5265 0.47772 0.0
Mg322 Mg 0.02096 0.58395 0.59361 0.0
O323 O 0.01045 0.53718 0.57553 0.0
Mg324 Mg 0.02037 0.50918 0.66827 0.0
O325 O 0.02901 0.47773 0.75262 0.0
Mg326 Mg 0.99934 0.43015 0.69005 0.0
Mg327 Mg 0.02243 0.4787 0.86594 0.0
C328 C 0.97693 0.54339 0.74596 0.0
O329 O 0.0656 0.55723 0.75408 0.0
O330 O 0.99658 0.54895 0.38981 0.0
O331 O 0.05218 0.5364 0.88495 0.0
O332 O 0.07728 0.58171 0.49026 0.0
O333 O 0.9914 0.58572 0.47454 0.0
O334 O 0.07657 0.61857 0.58225 0.0
O335 O 0.97575 0.4587 0.60106 0.0
O336 O 0.97738 0.47204 0.46434 0.0
C337 C 0.96304 0.45072 0.52281 0.0
C338 C 0.98479 0.56982 0.4026 0.0
O339 O 0.98236 0.51696 0.74106 0.0
O340 O 0.02925 0.41048 0.79229 0.0
O341 O 0.99185 0.57187 0.70304 0.0
O342 O 0.95325 0.4111 0.76654 0.0
O343 O 0.04884 0.44925 0.9042 0.0
O344 O 0.96745 0.44591 0.88047 0.0
O345 O 0.05624 0.50442 0.58187 0.0
O346 O 0.04397 0.44868 0.60825 0.0
C347 C 0.09195 0.61167 0.53013 0.0
C348 C 0.06991 0.56165 0.83612 0.0
C349 C 0.49499 0.05542 0.45153 0.0
C350 C 0.60235 0.06508 0.36458 0.0
C351 C 0.56199 0.95362 0.44408 0.0
Mg352 Mg 0.44451 0.0101 0.58781 0.0
Mg353 Mg 0.47213 0.98181 0.76486 0.0
O354 O 0.46917 0.98415 0.6468 0.0
Mg355 Mg 0.51095 0.00257 0.58535 0.0
O356 O 0.54877 0.02201 0.51103 0.0
Mg357 Mg 0.52058 0.002 0.39563 0.0
Mg358 Mg 0.59283 0.02501 0.53484 0.0
C359 C 0.51829 0.94687 0.73228 0.0
O360 O 0.55399 0.04064 0.69514 0.0
O361 O 0.39561 0.9715 0.64944 0.0
O362 O 0.60463 0.0473 0.66084 0.0
O363 O 0.46368 0.0501 0.70244 0.0
O364 O 0.41608 0.95068 0.76496 0.0
O365 O 0.49109 0.03449 0.81301 0.0
O366 O 0.47405 0.96513 0.47106 0.0
O367 O 0.42587 0.96898 0.4796 0.0
C368 C 0.44153 0.95583 0.44564 0.0
C369 C 0.39077 0.95112 0.71351 0.0
O370 O 0.52258 0.95906 0.65595 0.0
O371 O 0.56952 0.04441 0.33576 0.0
O372 O 0.50312 0.95515 0.78259 0.0
O373 O 0.53968 0.9612 0.40035 0.0
O374 O 0.61671 0.06233 0.43917 0.0
O375 O 0.58486 0.97356 0.50557 0.0
O376 O 0.4954 0.04429 0.52812 0.0
O377 O 0.5033 0.04316 0.39329 0.0
C378 C 0.4808 0.05568 0.77852 0.0
C379 C 0.58777 0.05303 0.71127 0.0
C380 C 0.53913 0.5828 0.71991 0.0
C381 C 0.43768 0.47808 0.87575 0.0
C382 C 0.48693 0.4183 0.8139 0.0
Mg383 Mg 0.57776 0.5773 0.56655 0.0
Mg384 Mg 0.52998 0.51273 0.4218 0.0
O385 O 0.54826 0.52512 0.53774 0.0
Mg386 Mg 0.51556 0.509 0.62551 0.0
O387 O 0.4847 0.49544 0.71587 0.0
Mg388 Mg 0.51985 0.50851 0.82066 0.0
Mg389 Mg 0.4458 0.44904 0.71005 0.0
C390 C 0.49353 0.43798 0.51306 0.0
O391 O 0.46784 0.50378 0.53573 0.0
O392 O 0.61562 0.57678 0.47874 0.0
O393 O 0.42209 0.45578 0.58458 0.0
O394 O 0.54916 0.59379 0.45204 0.0
O395 O 0.58074 0.53159 0.38296 0.0
O396 O 0.50961 0.54717 0.36708 0.0
O397 O 0.56014 0.51346 0.72932 0.0
O398 O 0.60484 0.56022 0.67837 0.0
C399 C 0.59329 0.53544 0.73226 0.0
C400 C 0.61123 0.55666 0.41571 0.0
O401 O 0.49818 0.4521 0.58653 0.0
O402 O 0.47148 0.49988 0.88995 0.0
O403 O 0.49998 0.45564 0.4439 0.0
O404 O 0.50641 0.44998 0.84566 0.0
O405 O 0.42359 0.4549 0.81436 0.0
O406 O 0.46305 0.41123 0.74898 0.0
O407 O 0.53556 0.56679 0.65118 0.0
O408 O 0.53343 0.56649 0.79055 0.0
C409 C 0.52498 0.58031 0.38697 0.0
C410 C 0.43474 0.4815 0.53281 0.0
C411 C 0.10495 0.47165 0.38762 0.0
C412 C 0.138 0.47761 0.43316 0.0
C413 C 0.12277 0.491 0.56445 0.0
C414 C 0.08839 0.4815 0.52093 0.0
N415 N 0.04518 0.45929 0.39354 0.0
N416 N 0.17726 0.48941 0.56667 0.0
C417 C 0.07909 0.47097 0.43303 0.0
C418 C 0.14666 0.48648 0.52209 0.0
N419 N 0.09864 0.46754 0.3005 0.0
N420 N 0.13269 0.50479 0.6462 0.0
H421 H 0.19553 0.48675 0.53771 0.0
H422 H 0.18339 0.4918 0.63305 0.0
H423 H 0.11575 0.50802 0.67932 0.0
H424 H 0.15839 0.51563 0.67894 0.0
H425 H 0.07677 0.46686 0.26235 0.0
H426 H 0.11676 0.46758 0.26536 0.0
H427 H 0.03535 0.44717 0.33287 0.0
H428 H 0.02607 0.45973 0.42386 0.0
C429 C 0.65541 0.12919 0.20163 0.0
C430 C 0.66909 0.1621 0.24639 0.0
C431 C 0.6322 0.13102 0.35667 0.0
C432 C 0.6227 0.09791 0.31858 0.0
N433 N 0.62639 0.06473 0.20758 0.0
N434 N 0.67468 0.19384 0.37373 0.0
C435 C 0.63433 0.09671 0.24123 0.0
C436 C 0.65847 0.16295 0.32572 0.0
N437 N 0.66243 0.12918 0.12093 0.0
N438 N 0.61544 0.13199 0.42128 0.0
H439 H 0.69428 0.21788 0.35388 0.0
H440 H 0.6708 0.19498 0.4364 0.0
H441 H 0.59549 0.10916 0.44477 0.0
H442 H 0.61869 0.15551 0.44538 0.0
H443 H 0.6509 0.1066 0.0812 0.0
H444 H 0.67752 0.15273 0.09118 0.0
H445 H 0.63727 0.06222 0.15645 0.0
H446 H 0.61049 0.04052 0.23448 0.0
C447 C 0.52272 0.63489 0.19036 0.0
C448 C 0.51829 0.66148 0.22667 0.0
C449 C 0.50833 0.62823 0.35989 0.0
C450 C 0.51835 0.60518 0.32808 0.0
N451 N 0.54057 0.59029 0.21587 0.0
N452 N 0.5101 0.68515 0.35 0.0
C453 C 0.52662 0.6092 0.2437 0.0
C454 C 0.51179 0.6585 0.31256 0.0
N455 N 0.52313 0.63396 0.10462 0.0
N456 N 0.49445 0.62046 0.43435 0.0
H457 H 0.51234 0.70759 0.31741 0.0
H458 H 0.50921 0.68633 0.415 0.0
H459 H 0.49045 0.59771 0.46793 0.0
H460 H 0.48346 0.63415 0.45721 0.0
H461 H 0.52185 0.61277 0.07313 0.0
H462 H 0.52186 0.65294 0.06377 0.0
H463 H 0.55113 0.59541 0.15904 0.0
H464 H 0.5447 0.57167 0.25259 0.0
C465 C 0.89475 0.55802 0.32966 0.0
C466 C 0.89525 0.56615 0.24231 0.0
C467 C 0.95759 0.58127 0.25967 0.0
C468 C 0.95443 0.56745 0.34292 0.0
N469 N 0.9157 0.53142 0.44341 0.0
N470 N 0.92689 0.5857 0.12156 0.0
C471 C 0.92182 0.5527 0.3742 0.0
C472 C 0.92673 0.57804 0.20628 0.0
N473 N 0.86827 0.55501 0.37005 0.0
N474 N 0.98983 0.59764 0.23262 0.0
H475 H 0.90487 0.58404 0.08167 0.0
H476 H 0.94806 0.59188 0.08972 0.0
H477 H 0.01236 0.59936 0.27016 0.0
H478 H 0.99471 0.61116 0.17565 0.0
H479 H 0.86847 0.55138 0.43574 0.0
H480 H 0.8483 0.55983 0.33957 0.0
H481 H 0.89067 0.51685 0.46157 0.0
H482 H 0.93417 0.52463 0.47468 0.0
C483 C 0.38408 0.89741 0.25062 0.0
C484 C 0.36217 0.86557 0.29149 0.0
C485 C 0.40045 0.8905 0.42873 0.0
C486 C 0.41887 0.92376 0.38991 0.0
N487 N 0.42959 0.95971 0.26555 0.0
N488 N 0.34851 0.83158 0.41924 0.0
C489 C 0.41133 0.92733 0.30105 0.0
C490 C 0.37036 0.8619 0.38049 0.0
N491 N 0.37913 0.89884 0.16349 0.0
N492 N 0.41191 0.88647 0.51186 0.0
H493 H 0.32613 0.81021 0.38602 0.0
H494 H 0.35115 0.82809 0.48492 0.0
H495 H 0.43351 0.90715 0.5491 0.0
H496 H 0.402 0.86222 0.5422 0.0
H497 H 0.39646 0.91957 0.12916 0.0
H498 H 0.35873 0.8781 0.12459 0.0
H499 H 0.42243 0.96576 0.20374 0.0
H500 H 0.45148 0.98122 0.29974 0.0
C501 C 0.5152 0.36575 0.49459 0.0
C502 C 0.48255 0.33922 0.45026 0.0
C503 C 0.45399 0.37363 0.47186 0.0
C504 C 0.48728 0.40139 0.50936 0.0
N505 N 0.54682 0.42051 0.58009 0.0
N506 N 0.41933 0.31231 0.41815 0.0
C507 C 0.51689 0.39609 0.52947 0.0
C508 C 0.45127 0.34124 0.44698 0.0
N509 N 0.54507 0.36327 0.49724 0.0
N510 N 0.4256 0.37903 0.45688 0.0
H511 H 0.41718 0.28841 0.40008 0.0
H512 H 0.39509 0.31089 0.41876 0.0
H513 H 0.42684 0.40207 0.47809 0.0
H514 H 0.40134 0.36144 0.42157 0.0
H515 H 0.57052 0.38393 0.5179 0.0
H516 H 0.54466 0.3409 0.47478 0.0
H517 H 0.56801 0.41655 0.60376 0.0
H518 H 0.54931 0.4435 0.60527 0.0
C519 C 0.51846 0.85936 0.77358 0.0
C520 C 0.53574 0.86585 0.8598 0.0
C521 C 0.55267 0.92897 0.84502 0.0
C522 C 0.52958 0.92077 0.76597 0.0
N523 N 0.48674 0.87653 0.65953 0.0
N524 N 0.56896 0.90726 0.97889 0.0
C525 C 0.51187 0.88565 0.73059 0.0
C526 C 0.55324 0.90096 0.89546 0.0
N527 N 0.50814 0.82797 0.73287 0.0
N528 N 0.57393 0.96372 0.87188 0.0
H529 H 0.57047 0.88762 0.01705 0.0
H530 H 0.57852 0.93126 0.01166 0.0
H531 H 0.57368 0.98463 0.83647 0.0
H532 H 0.5939 0.972 0.92454 0.0
H533 H 0.4981 0.8229 0.66795 0.0
H534 H 0.51277 0.80832 0.76228 0.0
H535 H 0.46977 0.85032 0.63768 0.0
H536 H 0.4813 0.89487 0.62531 0.0
C537 C 0.65255 0.51724 0.905 0.0
C538 C 0.67721 0.51821 0.85503 0.0
C539 C 0.63842 0.51731 0.72565 0.0
C540 C 0.61909 0.52524 0.77604 0.0
N541 N 0.60819 0.53388 0.91455 0.0
N542 N 0.69299 0.51781 0.71654 0.0
C543 C 0.62598 0.52516 0.86608 0.0
C544 C 0.66974 0.51747 0.76481 0.0
N545 N 0.65333 0.50734 0.98817 0.0
N546 N 0.62617 0.50847 0.64084 0.0
H547 H 0.71524 0.51593 0.74303 0.0
H548 H 0.69121 0.52189 0.65093 0.0
H549 H 0.60266 0.50701 0.61045 0.0
H550 H 0.63712 0.49868 0.60361 0.0
H551 H 0.63409 0.50345 0.02469 0.0
H552 H 0.67043 0.49866 0.01759 0.0
H553 H 0.61511 0.53826 0.98058 0.0
H554 H 0.5882 0.53934 0.88789 0.0
C555 C 0.13878 0.62909 0.00755 0.0
C556 C 0.14991 0.66157 0.96468 0.0
C557 C 0.10453 0.62946 0.84184 0.0
C558 C 0.09775 0.59643 0.87887 0.0
N559 N 0.1184 0.56678 0.98822 0.0
N560 N 0.14846 0.69113 0.83127 0.0
C561 C 0.11744 0.59667 0.95976 0.0
C562 C 0.13427 0.66142 0.87893 0.0
N563 N 0.14955 0.62912 0.0933 0.0
N564 N 0.08204 0.63084 0.77384 0.0
H565 H 0.17069 0.7149 0.85498 0.0
H566 H 0.13998 0.69099 0.7659 0.0
H567 H 0.05876 0.60846 0.74809 0.0
H568 H 0.08449 0.65472 0.7498 0.0
H569 H 0.13975 0.60603 0.1286 0.0
H570 H 0.1655 0.65255 0.1301 0.0
H571 H 0.1347 0.56678 0.04367 0.0
H572 H 0.10703 0.54347 0.95106 0.0
C573 C 0.49846 0.14729 0.84523 0.0
C574 C 0.49286 0.14144 0.9316 0.0
C575 C 0.47687 0.07929 0.91539 0.0
C576 C 0.48578 0.08567 0.8313 0.0
N577 N 0.51159 0.12793 0.72239 0.0
N578 N 0.48633 0.105 0.05521 0.0
C579 C 0.4984 0.12033 0.79779 0.0
C580 C 0.48523 0.10844 0.96873 0.0
N581 N 0.50302 0.17819 0.80796 0.0
N582 N 0.45809 0.04533 0.94264 0.0
H583 H 0.49319 0.12618 0.09645 0.0
H584 H 0.48422 0.08235 0.08634 0.0
H585 H 0.44845 0.02281 0.90362 0.0
H586 H 0.44827 0.03958 0.0006 0.0
H587 H 0.50317 0.18226 0.74258 0.0
H588 H 0.50408 0.19885 0.84149 0.0
H589 H 0.52463 0.15359 0.69966 0.0
H590 H 0.51294 0.10918 0.68727 0.0
C591 C 0.35113 0.46789 0.92538 0.0
C592 C 0.3597 0.47878 0.01243 0.0
C593 C 0.42004 0.48933 0.01334 0.0
C594 C 0.41237 0.4811 0.92411 0.0
N595 N 0.37362 0.47663 0.79221 0.0
N596 N 0.40642 0.51317 0.12723 0.0
C597 C 0.37871 0.47436 0.87913 0.0
C598 C 0.39541 0.49354 0.0531 0.0
N599 N 0.31676 0.45181 0.88596 0.0
N600 N 0.44979 0.49177 0.06137 0.0
H601 H 0.39004 0.51994 0.15257 0.0
H602 H 0.4328 0.52661 0.15617 0.0
H603 H 0.46754 0.4869 0.03648 0.0
H604 H 0.45466 0.49486 0.12783 0.0
H605 H 0.30889 0.44007 0.82487 0.0
H606 H 0.29583 0.44775 0.91656 0.0
H607 H 0.35064 0.47498 0.75762 0.0
H608 H 0.39399 0.48511 0.75611 0.0
C609 C 0.85878 0.33496 0.86908 0.0
C610 C 0.847 0.34853 0.92791 0.0
C611 C 0.89237 0.40871 0.89793 0.0
C612 C 0.90946 0.39448 0.85774 0.0
N613 N 0.91085 0.34124 0.82256 0.0
N614 N 0.85727 0.3999 0.00811 0.0
C615 C 0.89299 0.35681 0.8464 0.0
C616 C 0.86484 0.38591 0.94476 0.0
N617 N 0.83813 0.30068 0.83864 0.0
N618 N 0.90165 0.4437 0.88993 0.0
H619 H 0.83801 0.38461 0.0459 0.0
H620 H 0.87236 0.42664 0.02753 0.0
H621 H 0.92004 0.46066 0.85131 0.0
H622 H 0.88772 0.45433 0.91253 0.0
H623 H 0.84452 0.29035 0.7907 0.0
H624 H 0.81304 0.28402 0.85518 0.0
H625 H 0.90044 0.31376 0.82084 0.0
H626 H 0.9375 0.35514 0.81596 0.0
C627 C 0.91909 0.53228 0.91513 0.0
C628 C 0.8897 0.53211 0.86241 0.0
C629 C 0.91524 0.53314 0.73501 0.0
C630 C 0.94673 0.53816 0.78772 0.0
N631 N 0.98018 0.54567 0.92809 0.0
N632 N 0.86035 0.53442 0.72219 0.0
C633 C 0.94902 0.53836 0.87798 0.0
C634 C 0.88793 0.53304 0.77232 0.0
N635 N 0.9181 0.52595 0.00035 0.0
N636 N 0.91082 0.52703 0.64911 0.0
H637 H 0.83859 0.53199 0.74629 0.0
H638 H 0.85996 0.54007 0.6574 0.0
H639 H 0.93019 0.52699 0.61924 0.0
H640 H 0.88683 0.51869 0.60903 0.0
H641 H 0.93698 0.52211 0.04063 0.0
H642 H 0.89679 0.52161 0.02965 0.0
H643 H 0.9849 0.54995 0.99407 0.0
H644 H 0.00238 0.55026 0.9025 0.0
C645 C 0.31823 0.85899 0.72366 0.0
C646 C 0.30559 0.86286 0.79682 0.0
C647 C 0.33866 0.92754 0.78938 0.0
C648 C 0.35467 0.92355 0.72356 0.0
N649 N 0.35086 0.88815 0.60657 0.0
N650 N 0.29278 0.89863 0.87963 0.0
C651 C 0.341 0.89005 0.68267 0.0
C652 C 0.31174 0.89661 0.82196 0.0
N653 N 0.31092 0.82611 0.69809 0.0
N654 N 0.35081 0.9606 0.82364 0.0
H655 H 0.27302 0.87585 0.90392 0.0
H656 H 0.29443 0.92223 0.89749 0.0
H657 H 0.3697 0.98359 0.79792 0.0
H658 H 0.34306 0.96517 0.87821 0.0
H659 H 0.32297 0.82199 0.65179 0.0
H660 H 0.29365 0.80283 0.72594 0.0
H661 H 0.33948 0.86477 0.56989 0.0
H662 H 0.36788 0.91079 0.5762 0.0
C663 C 0.49293 0.33394 0.87076 0.0
C664 C 0.49663 0.33581 0.96138 0.0
C665 C 0.48862 0.38784 0.95163 0.0
C666 C 0.48905 0.38878 0.86221 0.0
N667 N 0.49709 0.36555 0.73777 0.0
N668 N 0.50999 0.37241 0.08701 0.0
C669 C 0.49265 0.36253 0.82176 0.0
C670 C 0.49817 0.36512 0.00161 0.0
N671 N 0.48942 0.30481 0.83162 0.0
N672 N 0.47748 0.40741 0.98893 0.0
H673 H 0.52096 0.35907 0.12481 0.0
H674 H 0.51387 0.39513 0.11729 0.0
H675 H 0.46787 0.42272 0.95423 0.0
H676 H 0.47364 0.40487 0.05276 0.0
H677 H 0.48276 0.30001 0.76572 0.0
H678 H 0.49112 0.28431 0.86578 0.0
H679 H 0.50328 0.34925 0.70691 0.0
H680 H 0.49753 0.38634 0.70077 0.0
C681 C 0.10902 0.41736 0.04262 0.0
C682 C 0.13931 0.42897 0.00223 0.0
C683 C 0.10445 0.42322 0.86203 0.0
C684 C 0.07459 0.41355 0.90315 0.0
N685 N 0.04499 0.38947 0.02492 0.0
N686 N 0.16385 0.43204 0.87466 0.0
C687 C 0.07579 0.40617 0.9911 0.0
C688 C 0.13625 0.42802 0.91206 0.0
N689 N 0.11233 0.41893 0.12977 0.0
N690 N 0.10348 0.43057 0.77696 0.0
H691 H 0.18773 0.43618 0.91006 0.0
H692 H 0.16201 0.42814 0.80934 0.0
H693 H 0.08052 0.42583 0.73631 0.0
H694 H 0.1259 0.44273 0.74696 0.0
H695 H 0.0917 0.41405 0.16232 0.0
H696 H 0.13641 0.42758 0.1698 0.0
H697 H 0.04346 0.3808 0.08751 0.0
H698 H 0.02046 0.38125 0.98688 0.0
C699 C 0.67295 0.11354 0.84491 0.0
C700 C 0.66595 0.13763 0.88329 0.0
C701 C 0.60347 0.1026 0.8208 0.0
C702 C 0.61039 0.07733 0.78669 0.0
N703 N 0.64906 0.05192 0.80669 0.0
N704 N 0.62103 0.14456 0.93716 0.0
C705 C 0.64418 0.08035 0.81327 0.0
C706 C 0.63007 0.12872 0.88123 0.0
N707 N 0.70633 0.12282 0.83226 0.0
N708 N 0.57327 0.104 0.79311 0.0
H709 H 0.63928 0.16261 0.98533 0.0
H710 H 0.59476 0.13645 0.94181 0.0
H711 H 0.55287 0.0869 0.74736 0.0
H712 H 0.57003 0.12483 0.81113 0.0
H713 H 0.7115 0.10628 0.79882 0.0
H714 H 0.72785 0.14836 0.84512 0.0
H715 H 0.67306 0.05291 0.82989 0.0
H716 H 0.62808 0.02662 0.78748 0.0
C717 C 0.57054 0.67724 0.78247 0.0
C718 C 0.53951 0.67889 0.75044 0.0
C719 C 0.51335 0.62215 0.67469 0.0
C720 C 0.54254 0.61834 0.71484 0.0
N721 N 0.60297 0.6453 0.78402 0.0
N722 N 0.48827 0.66116 0.64451 0.0
C723 C 0.57274 0.64718 0.76064 0.0
C724 C 0.51353 0.65427 0.68778 0.0
N725 N 0.5964 0.70318 0.83857 0.0
N726 N 0.48425 0.59417 0.63057 0.0
H727 H 0.48832 0.68475 0.65502 0.0
H728 H 0.46954 0.64547 0.59366 0.0
H729 H 0.48308 0.57033 0.61752 0.0
H730 H 0.46062 0.59405 0.60898 0.0
H731 H 0.61792 0.70183 0.87259 0.0
H732 H 0.59559 0.72601 0.85246 0.0
H733 H 0.6268 0.66632 0.81284 0.0
H734 H 0.60482 0.62331 0.768 0.0
C735 C 0.49708 0.14452 0.43527 0.0
C736 C 0.48128 0.14178 0.3487 0.0
C737 C 0.46182 0.07812 0.34948 0.0
C738 C 0.48537 0.08337 0.42659 0.0
N739 N 0.53095 0.12493 0.53471 0.0
N740 N 0.4492 0.10501 0.22075 0.0
C741 C 0.50416 0.11732 0.46844 0.0
C742 C 0.46341 0.10816 0.30511 0.0
N743 N 0.50566 0.17315 0.48549 0.0
N744 N 0.43789 0.04438 0.31914 0.0
H745 H 0.45052 0.12645 0.1851 0.0
H746 H 0.43872 0.08166 0.1843 0.0
H747 H 0.43531 0.02205 0.35283 0.0
H748 H 0.41819 0.03875 0.26668 0.0
H749 H 0.51515 0.17498 0.55071 0.0
H750 H 0.49992 0.19309 0.46347 0.0
H751 H 0.54781 0.15067 0.56003 0.0
H752 H 0.5383 0.10643 0.55945 0.0
C753 C 0.37236 0.49281 0.35848 0.0
C754 C 0.35669 0.50599 0.40735 0.0
C755 C 0.39755 0.50955 0.53472 0.0
C756 C 0.41008 0.49236 0.48728 0.0
N757 N 0.41698 0.47606 0.35209 0.0
N758 N 0.35397 0.52786 0.54032 0.0
C759 C 0.39989 0.48667 0.39831 0.0
C760 C 0.36987 0.51559 0.49471 0.0
N761 N 0.35882 0.48375 0.27478 0.0
N762 N 0.41268 0.52059 0.61757 0.0
H763 H 0.33445 0.53364 0.51147 0.0
H764 H 0.35886 0.53105 0.60658 0.0
H765 H 0.43264 0.51611 0.64967 0.0
H766 H 0.40745 0.53637 0.65325 0.0
H767 H 0.36344 0.46733 0.23962 0.0
H768 H 0.34246 0.49273 0.2419 0.0
H769 H 0.41336 0.47491 0.28556 0.0
H770 H 0.43682 0.47064 0.38043 0.0
C771 C 0.86406 0.39649 0.46212 0.0
C772 C 0.86109 0.36579 0.4263 0.0
C773 C 0.92435 0.3876 0.47056 0.0
C774 C 0.92775 0.41945 0.50065 0.0
N775 N 0.90076 0.45082 0.54798 0.0
N776 N 0.88482 0.32703 0.4154 0.0
C777 C 0.89745 0.42264 0.50455 0.0
C778 C 0.89015 0.35956 0.43781 0.0
N779 N 0.8354 0.40146 0.45066 0.0
N780 N 0.95394 0.38487 0.47042 0.0
H781 H 0.85986 0.30621 0.39101 0.0
H782 H 0.90418 0.31962 0.42716 0.0
H783 H 0.97913 0.40451 0.49744 0.0
H784 H 0.95395 0.36401 0.44097 0.0
H785 H 0.83666 0.42525 0.46502 0.0
H786 H 0.81027 0.38183 0.4232 0.0
H787 H 0.87934 0.45303 0.55974 0.0
H788 H 0.925 0.47086 0.57836 0.0
C789 C 0.57384 0.90196 0.28391 0.0
C790 C 0.55761 0.86727 0.31743 0.0
C791 C 0.5495 0.89047 0.4446 0.0
C792 C 0.56546 0.92482 0.41016 0.0
N793 N 0.60183 0.96539 0.31155 0.0
N794 N 0.5368 0.82924 0.43611 0.0
C795 C 0.58072 0.93121 0.33462 0.0
C796 C 0.54762 0.86174 0.40017 0.0
N797 N 0.58065 0.90676 0.20158 0.0
N798 N 0.53522 0.88527 0.518 0.0
H799 H 0.5353 0.80786 0.40472 0.0
H800 H 0.53199 0.82413 0.49899 0.0
H801 H 0.53787 0.90628 0.55349 0.0
H802 H 0.51969 0.8603 0.54167 0.0
H803 H 0.58839 0.93074 0.17059 0.0
H804 H 0.57582 0.88609 0.16148 0.0
H805 H 0.61665 0.97186 0.26178 0.0
H806 H 0.60733 0.98752 0.34757 0.0
C807 C 0.6709 0.52702 0.34224 0.0
C808 C 0.69737 0.55933 0.31344 0.0
C809 C 0.66869 0.59106 0.35542 0.0
C810 C 0.64259 0.55884 0.38612 0.0
N811 N 0.624 0.49822 0.42827 0.0
N812 N 0.72631 0.62311 0.30853 0.0
C813 C 0.64535 0.52747 0.38565 0.0
C814 C 0.69788 0.59175 0.32574 0.0
N815 N 0.66904 0.49556 0.32427 0.0
N816 N 0.66444 0.6203 0.34938 0.0
H817 H 0.74789 0.6242 0.28641 0.0
H818 H 0.73001 0.64796 0.32343 0.0
H819 H 0.64305 0.62063 0.36856 0.0
H820 H 0.6805 0.64335 0.31896 0.0
H821 H 0.64754 0.47076 0.33294 0.0
H822 H 0.68789 0.49405 0.29512 0.0
H823 H 0.62748 0.47616 0.43808 0.0
H824 H 0.60491 0.49716 0.46139 0.0
C825 C 0.13989 0.67008 0.35936 0.0
C826 C 0.17588 0.68401 0.39624 0.0
C827 C 0.15733 0.65281 0.52894 0.0
C828 C 0.12164 0.64113 0.49323 0.0
N829 N 0.07964 0.64627 0.38412 0.0
N830 N 0.21949 0.69332 0.51987 0.0
C831 C 0.11324 0.65237 0.41159 0.0
C832 C 0.18487 0.67677 0.48238 0.0
N833 N 0.13095 0.67225 0.27333 0.0
N834 N 0.1647 0.64036 0.60603 0.0
H835 H 0.24011 0.71062 0.48703 0.0
H836 H 0.22757 0.69183 0.58465 0.0
H837 H 0.14502 0.62408 0.6425 0.0
H838 H 0.18982 0.64474 0.63174 0.0
H839 H 0.10497 0.65913 0.24184 0.0
H840 H 0.14953 0.68404 0.23161 0.0
H841 H 0.07288 0.65705 0.32881 0.0
H842 H 0.05937 0.63361 0.42117 0.0
loop_
_geom_bond_atom_site_label_1
_geom_bond_atom_site_label_2
_geom_bond_distance
_geom_bond_site_symmetry_2
_ccdc_geom_bond_type
C0 C1 1.443 . S
C0 N4 1.376 . S
C0 C38 1.389 . S
C1 C0 1.443 . S
C1 C2 1.340 . S
C1 H41 0.951 . S
C2 C1 1.340 . S
C2 C3 1.439 . S
C2 H42 0.950 . S
C3 C2 1.439 . S
C3 N4 1.374 . S
C3 C37 1.395 . S
N4 C0 1.376 . S
N4 C3 1.374 . S
N4 Co5 2.008 . S
Co5 N4 2.008 . S
Co5 N6 1.995 . S
Co5 N11 2.008 . S
Co5 N16 1.995 . S
Co5 N21 2.282 . S
Co5 N27 2.282 . S
N6 Co5 1.995 . S
N6 C7 1.376 . S
N6 C10 1.383 . S
C7 N6 1.376 . S
C7 C8 1.446 . S
C7 C37 1.391 . S
C8 C7 1.446 . S
C8 C9 1.339 . S
C8 H43 0.949 . S
C9 C8 1.339 . S
C9 C10 1.439 . S
C9 H44 0.950 . S
C10 N6 1.383 . S
C10 C9 1.439 . S
C10 C39 1.392 . S
N11 Co5 2.008 . S
N11 C12 1.376 . S
N11 C15 1.374 . S
C12 N11 1.376 . S
C12 C13 1.443 . S
C12 C39 1.389 . S
C13 C12 1.443 . S
C13 C14 1.340 . S
C13 H45 0.951 . S
C14 C13 1.340 . S
C14 C15 1.439 . S
C14 H46 0.950 . S
C15 N11 1.374 . S
C15 C14 1.439 . S
C15 C40 1.395 . S
N16 Co5 1.995 . S
N16 C17 1.376 . S
N16 C20 1.383 . S
C17 N16 1.376 . S
C17 C18 1.446 . S
C17 C40 1.391 . S
C18 C17 1.446 . S
C18 C19 1.339 . S
C18 H47 0.949 . S
C19 C18 1.339 . S
C19 C20 1.439 . S
C19 H48 0.950 . S
C20 N16 1.383 . S
C20 C19 1.439 . S
C20 C38 1.392 . S
N21 Co5 2.282 . S
N21 C24 1.332 . S
N21 C26 1.332 . S
C22 C23 1.386 . S
C22 C25 1.388 . S
C23 C22 1.386 . S
C23 C24 1.382 . S
C23 H49 0.950 . S
C24 N21 1.332 . S
C24 C23 1.382 . S
C24 H35 0.952 . S
C25 C22 1.388 . S
C25 C26 1.382 . S
C25 H50 0.950 . S
C26 N21 1.332 . S
C26 C25 1.382 . S
C26 H36 0.948 . S
N27 Co5 2.282 . S
N27 C31 1.332 . S
N27 C32 1.332 . S
C28 C29 1.388 . S
C28 C32 1.382 . S
C28 H51 0.950 . S
C29 C28 1.388 . S
C29 C30 1.386 . S
C30 C29 1.386 . S
C30 C31 1.382 . S
C30 H52 0.950 . S
C31 N27 1.332 . S
C31 C30 1.382 . S
C31 H33 0.952 . S
C32 N27 1.332 . S
C32 C28 1.382 . S
C32 H34 0.948 . S
H33 C31 0.952 . S
H34 C32 0.948 . S
H35 C24 0.952 . S
H36 C26 0.948 . S
C37 C3 1.395 . S
C37 C7 1.391 . S
C38 C0 1.389 . S
C38 C20 1.392 . S
C39 C10 1.392 . S
C39 C12 1.389 . S
C40 C15 1.395 . S
C40 C17 1.391 . S
H41 C1 0.951 . S
H42 C2 0.950 . S
H43 C8 0.949 . S
H44 C9 0.950 . S
H45 C13 0.951 . S
H46 C14 0.950 . S
H47 C18 0.949 . S
H48 C19 0.950 . S
H49 C23 0.950 . S
H50 C25 0.950 . S
H51 C28 0.950 . S
H52 C30 0.950 . S
C53 C54 1.443 . S
C53 N57 1.376 . S
C53 C91 1.389 . S
C54 C53 1.443 . S
C54 C55 1.340 . S
C54 H94 0.951 . S
C55 C54 1.340 . S
C55 C56 1.439 . S
C55 H95 0.950 . S
C56 C55 1.439 . S
C56 N57 1.374 . S
C56 C90 1.395 . S
N57 C53 1.376 . S
N57 C56 1.374 . S
N57 Co58 2.008 . S
Co58 N57 2.008 . S
Co58 N59 1.995 . S
Co58 N64 2.008 . S
Co58 N69 1.995 . S
Co58 N74 2.282 . S
Co58 N80 2.282 . S
N59 Co58 1.995 . S
N59 C60 1.376 . S
N59 C63 1.383 . S
C60 N59 1.376 . S
C60 C61 1.446 . S
C60 C90 1.391 . S
C61 C60 1.446 . S
C61 C62 1.339 . S
C61 H96 0.949 . S
C62 C61 1.339 . S
C62 C63 1.439 . S
C62 H97 0.950 . S
C63 N59 1.383 . S
C63 C62 1.439 . S
C63 C92 1.392 . S
N64 Co58 2.008 . S
N64 C65 1.376 . S
N64 C68 1.374 . S
C65 N64 1.376 . S
C65 C66 1.443 . S
C65 C92 1.389 . S
C66 C65 1.443 . S
C66 C67 1.340 . S
C66 H98 0.951 . S
C67 C66 1.340 . S
C67 C68 1.439 . S
C67 H99 0.950 . S
C68 N64 1.374 . S
C68 C67 1.439 . S
C68 C93 1.395 . S
N69 Co58 1.995 . S
N69 C70 1.376 . S
N69 C73 1.383 . S
C70 N69 1.376 . S
C70 C71 1.446 . S
C70 C93 1.391 . S
C71 C70 1.446 . S
C71 C72 1.339 1_554 S
C71 H100 0.949 1_554 S
C72 C71 1.339 1_556 S
C72 C73 1.439 1_556 S
C72 H101 0.950 . S
C73 N69 1.383 . S
C73 C72 1.439 1_554 S
C73 C91 1.392 . S
N74 Co58 2.282 . S
N74 C77 1.332 1_554 S
N74 C79 1.332 . S
C75 C76 1.386 . S
C75 C78 1.388 . S
C76 C75 1.386 . S
C76 C77 1.382 . S
C76 H102 0.950 . S
C77 N74 1.332 1_556 S
C77 C76 1.382 . S
C77 H88 0.952 . S
C78 C75 1.388 . S
C78 C79 1.382 1_556 S
C78 H103 0.950 . S
C79 N74 1.332 . S
C79 C78 1.382 1_554 S
C79 H89 0.948 . S
N80 Co58 2.282 . S
N80 C84 1.332 . S
N80 C85 1.332 . S
C81 C82 1.388 . S
C81 C85 1.382 . S
C81 H104 0.950 . S
C82 C81 1.388 . S
C82 C83 1.386 . S
C83 C82 1.386 . S
C83 C84 1.382 . S
C83 H105 0.950 . S
C84 N80 1.332 . S
C84 C83 1.382 . S
C84 H86 0.952 . S
C85 N80 1.332 . S
C85 C81 1.382 . S
C85 H87 0.948 . S
H86 C84 0.952 . S
H87 C85 0.948 . S
H88 C77 0.952 . S
H89 C79 0.948 . S
C90 C56 1.395 . S
C90 C60 1.391 . S
C91 C53 1.389 . S
C91 C73 1.392 . S
C92 C63 1.392 . S
C92 C65 1.389 . S
C93 C68 1.395 . S
C93 C70 1.391 . S
H94 C54 0.951 . S
H95 C55 0.950 . S
H96 C61 0.949 . S
H97 C62 0.950 . S
H98 C66 0.951 . S
H99 C67 0.950 . S
H100 C71 0.949 1_556 S
H101 C72 0.950 . S
H102 C76 0.950 . S
H103 C78 0.950 . S
H104 C81 0.950 . S
H105 C83 0.950 . S
C106 C107 1.443 . S
C106 N110 1.376 . S
C106 C144 1.389 . S
C107 C106 1.443 . S
C107 C108 1.340 . S
C107 H147 0.951 . S
C108 C107 1.340 . S
C108 C109 1.439 . S
C108 H148 0.950 . S
C109 C108 1.439 . S
C109 N110 1.374 . S
C109 C143 1.395 . S
N110 C106 1.376 . S
N110 C109 1.374 . S
N110 Co111 2.008 . S
Co111 N110 2.008 . S
Co111 N112 1.995 1_554 S
Co111 N117 2.008 1_554 S
Co111 N122 1.995 . S
Co111 N127 2.282 . S
Co111 N133 2.282 1_554 S
N112 Co111 1.995 1_556 S
N112 C113 1.376 . S
N112 C116 1.383 . S
C113 N112 1.376 . S
C113 C114 1.454 . S
C113 C143 1.384 1_556 S
C114 C113 1.454 . S
C114 C115 1.339 . S
C114 H149 0.949 . S
C115 C114 1.339 . S
C115 C116 1.439 . S
C115 H150 0.950 . S
C116 N112 1.383 . S
C116 C115 1.439 . S
C116 C145 1.392 . S
N117 Co111 2.008 1_556 S
N117 C118 1.376 . S
N117 C121 1.374 . S
C118 N117 1.376 . S
C118 C119 1.443 . S
C118 C145 1.389 . S
C119 C118 1.443 . S
C119 C120 1.340 . S
C119 H151 0.951 . S
C120 C119 1.340 . S
C120 C121 1.439 . S
C120 H152 0.950 . S
C121 N117 1.374 . S
C121 C120 1.439 . S
C121 C146 1.395 1_556 S
N122 Co111 1.995 . S
N122 C123 1.376 . S
N122 C126 1.383 . S
C123 N122 1.376 . S
C123 C124 1.446 . S
C123 C146 1.391 . S
C124 C123 1.446 . S
C124 C125 1.339 . S
C124 H153 0.949 . S
C125 C124 1.339 . S
C125 C126 1.439 . S
C125 H154 0.950 . S
C126 N122 1.383 . S
C126 C125 1.439 . S
C126 C144 1.392 . S
N127 Co111 2.282 . S
N127 C130 1.332 . S
N127 C132 1.332 . S
C128 C129 1.386 . S
C128 C131 1.388 . S
C129 C128 1.386 . S
C129 C130 1.382 . S
C129 H155 0.950 . S
C130 N127 1.332 . S
C130 C129 1.382 . S
C130 H141 0.952 . S
C131 C128 1.388 . S
C131 C132 1.382 . S
C131 H156 0.950 . S
C132 N127 1.332 . S
C132 C131 1.382 . S
C132 H142 0.948 . S
N133 Co111 2.282 1_556 S
N133 C137 1.332 . S
N133 C138 1.332 . S
C134 C135 1.388 . S
C134 C138 1.382 . S
C134 H157 0.950 . S
C135 C134 1.388 . S
C135 C136 1.386 . S
C136 C135 1.386 . S
C136 C137 1.382 . S
C136 H158 0.950 . S
C137 N133 1.332 . S
C137 C136 1.382 . S
C137 H139 0.952 . S
C138 N133 1.332 . S
C138 C134 1.382 . S
C138 H140 0.948 . S
H139 C137 0.952 . S
H140 C138 0.948 . S
H141 C130 0.952 . S
H142 C132 0.948 . S
C143 C109 1.395 . S
C143 C113 1.384 1_554 S
C144 C106 1.389 . S
C144 C126 1.392 . S
C145 C116 1.392 . S
C145 C118 1.389 . S
C146 C121 1.395 1_554 S
C146 C123 1.391 . S
H147 C107 0.951 . S
H148 C108 0.950 . S
H149 C114 0.949 . S
H150 C115 0.950 . S
H151 C119 0.951 . S
H152 C120 0.950 . S
H153 C124 0.949 . S
H154 C125 0.950 . S
H155 C129 0.950 . S
H156 C131 0.950 . S
H157 C134 0.950 . S
H158 C136 0.950 . S
C159 C160 1.443 . S
C159 N163 1.376 . S
C159 C197 1.389 . S
C160 C159 1.443 . S
C160 C161 1.340 . S
C160 H200 0.951 . S
C161 C160 1.340 . S
C161 C162 1.439 . S
C161 H201 0.950 . S
C162 C161 1.439 . S
C162 N163 1.374 . S
C162 C196 1.395 . S
N163 C159 1.376 . S
N163 C162 1.374 . S
N163 Co164 2.008 . S
Co164 N163 2.008 . S
Co164 N165 1.995 1_554 S
Co164 N170 2.008 1_554 S
Co164 N175 1.995 . S
Co164 N180 2.282 . S
Co164 N186 2.282 1_554 S
N165 Co164 1.995 1_556 S
N165 C166 1.376 . S
N165 C169 1.383 . S
C166 N165 1.376 . S
C166 C167 1.446 . S
C166 C196 1.391 1_556 S
C167 C166 1.446 . S
C167 C168 1.339 . S
C167 H202 0.949 . S
C168 C167 1.339 . S
C168 C169 1.439 . S
C168 H203 0.950 . S
C169 N165 1.383 . S
C169 C168 1.439 . S
C169 C198 1.392 . S
N170 Co164 2.008 1_556 S
N170 C171 1.376 . S
N170 C174 1.374 . S
C171 N170 1.376 . S
C171 C172 1.443 . S
C171 C198 1.389 . S
C172 C171 1.443 . S
C172 C173 1.340 . S
C172 H204 0.951 . S
C173 C172 1.340 . S
C173 C174 1.439 . S
C173 H205 0.950 . S
C174 N170 1.374 . S
C174 C173 1.439 . S
C174 C199 1.395 1_556 S
N175 Co164 1.995 . S
N175 C176 1.376 . S
N175 C179 1.383 . S
C176 N175 1.376 . S
C176 C177 1.446 . S
C176 C199 1.391 . S
C177 C176 1.446 . S
C177 C178 1.339 . S
C177 H206 0.949 . S
C178 C177 1.339 . S
C178 C179 1.439 . S
C178 H207 0.950 . S
C179 N175 1.383 . S
C179 C178 1.439 . S
C179 C197 1.392 . S
N180 Co164 2.282 . S
N180 C183 1.332 . S
N180 C185 1.332 . S
C181 C182 1.386 . S
C181 C184 1.388 . S
C182 C181 1.386 . S
C182 C183 1.382 . S
C182 H208 0.950 . S
C183 N180 1.332 . S
C183 C182 1.382 . S
C183 H194 0.952 . S
C184 C181 1.388 . S
C184 C185 1.382 . S
C184 H209 0.950 . S
C185 N180 1.332 . S
C185 C184 1.382 . S
C185 H195 0.948 . S
N186 Co164 2.282 1_556 S
N186 C190 1.332 . S
N186 C191 1.332 . S
C187 C188 1.388 . S
C187 C191 1.382 . S
C187 H210 0.950 . S
C188 C187 1.388 . S
C188 C189 1.386 . S
C189 C188 1.386 . S
C189 C190 1.382 . S
C189 H211 0.950 . S
C190 N186 1.332 . S
C190 C189 1.382 . S
C190 H192 0.952 . S
C191 N186 1.332 . S
C191 C187 1.382 . S
C191 H193 0.948 . S
H192 C190 0.952 . S
H193 C191 0.948 . S
H194 C183 0.952 . S
H195 C185 0.948 . S
C196 C162 1.395 . S
C196 C166 1.391 1_554 S
C197 C159 1.389 . S
C197 C179 1.392 . S
C198 C169 1.392 . S
C198 C171 1.389 . S
C199 C174 1.395 1_554 S
C199 C176 1.391 . S
H200 C160 0.951 . S
H201 C161 0.950 . S
H202 C167 0.949 . S
H203 C168 0.950 . S
H204 C172 0.951 . S
H205 C173 0.950 . S
H206 C177 0.949 . S
H207 C178 0.950 . S
H208 C182 0.950 . S
H209 C184 0.950 . S
H210 C187 0.950 . S
H211 C189 0.950 . S
C212 C213 1.443 . S
C212 N216 1.376 . S
C212 C250 1.389 . S
C213 C212 1.443 . S
C213 C214 1.340 . S
C213 H253 0.951 . S
C214 C213 1.340 . S
C214 C215 1.439 . S
C214 H254 0.950 . S
C215 C214 1.439 . S
C215 N216 1.374 . S
C215 C249 1.395 . S
N216 C212 1.376 . S
N216 C215 1.374 . S
N216 Co217 2.008 . S
Co217 N216 2.008 . S
Co217 N218 1.995 . S
Co217 N223 2.008 . S
Co217 N228 1.995 . S
Co217 N233 2.282 . S
Co217 N239 2.282 . S
N218 Co217 1.995 . S
N218 C219 1.376 . S
N218 C222 1.383 1_554 S
C219 N218 1.376 . S
C219 C220 1.446 1_554 S
C219 C249 1.391 . S
C220 C219 1.446 1_556 S
C220 C221 1.339 . S
C220 H255 0.949 . S
C221 C220 1.339 . S
C221 C222 1.439 . S
C221 H256 0.950 . S
C222 N218 1.383 1_556 S
C222 C221 1.439 . S
C222 C251 1.392 . S
N223 Co217 2.008 . S
N223 C224 1.376 . S
N223 C227 1.374 . S
C224 N223 1.376 . S
C224 C225 1.443 . S
C224 C251 1.389 1_554 S
C225 C224 1.443 . S
C225 C226 1.340 . S
C225 H257 0.951 1_554 S
C226 C225 1.340 . S
C226 C227 1.439 . S
C226 H258 0.950 . S
C227 N223 1.374 . S
C227 C226 1.439 . S
C227 C252 1.395 . S
N228 Co217 1.995 . S
N228 C229 1.376 . S
N228 C232 1.383 . S
C229 N228 1.376 . S
C229 C230 1.446 . S
C229 C252 1.391 . S
C230 C229 1.446 . S
C230 C231 1.339 . S
C230 H259 0.949 . S
C231 C230 1.339 . S
C231 C232 1.439 . S
C231 H260 0.950 . S
C232 N228 1.383 . S
C232 C231 1.439 . S
C232 C250 1.392 . S
N233 Co217 2.282 . S
N233 C236 1.332 . S
N233 C238 1.332 . S
C234 C235 1.386 . S
C234 C237 1.388 . S
C235 C234 1.386 . S
C235 C236 1.382 . S
C235 H261 0.950 . S
C236 N233 1.332 . S
C236 C235 1.382 . S
C236 H247 0.952 . S
C237 C234 1.388 . S
C237 C238 1.382 . S
C237 H262 0.950 . S
C238 N233 1.332 . S
C238 C237 1.382 . S
C238 H248 0.948 . S
N239 Co217 2.282 . S
N239 C243 1.332 1_554 S
N239 C244 1.332 . S
C240 C241 1.388 . S
C240 C244 1.382 1_556 S
C240 H263 0.950 . S
C241 C240 1.388 . S
C241 C242 1.386 . S
C242 C241 1.386 . S
C242 C243 1.382 . S
C242 H264 0.950 . S
C243 N239 1.332 1_556 S
C243 C242 1.382 . S
C243 H245 0.952 . S
C244 N239 1.332 . S
C244 C240 1.382 1_554 S
C244 H246 0.948 . S
H245 C243 0.952 . S
H246 C244 0.948 . S
H247 C236 0.952 . S
H248 C238 0.948 . S
C249 C215 1.395 . S
C249 C219 1.391 . S
C250 C212 1.389 . S
C250 C232 1.392 . S
C251 C222 1.392 . S
C251 C224 1.389 1_556 S
C252 C227 1.395 . S
C252 C229 1.391 . S
H253 C213 0.951 . S
H254 C214 0.950 . S
H255 C220 0.949 . S
H256 C221 0.950 . S
H257 C225 0.951 1_556 S
H258 C226 0.950 . S
H259 C230 0.949 . S
H260 C231 0.950 . S
H261 C235 0.950 . S
H262 C237 0.950 . S
H263 C240 0.950 . S
H264 C242 0.950 . S
C265 C266 1.443 . S
C265 N269 1.376 . S
C265 C303 1.389 . S
C266 C265 1.443 . S
C266 C267 1.340 . S
C266 H306 0.951 . S
C267 C266 1.340 . S
C267 C268 1.439 . S
C267 H307 0.950 . S
C268 C267 1.439 . S
C268 N269 1.374 . S
C268 C302 1.395 . S
N269 C265 1.376 . S
N269 C268 1.374 . S
N269 Co270 2.008 . S
Co270 N269 2.008 . S
Co270 N271 1.995 . S
Co270 N276 2.008 . S
Co270 N281 1.995 . S
Co270 N286 2.282 . S
Co270 N292 2.282 . S
N271 Co270 1.995 . S
N271 C272 1.376 . S
N271 C275 1.383 . S
C272 N271 1.376 . S
C272 C273 1.446 . S
C272 C302 1.391 . S
C273 C272 1.446 . S
C273 C274 1.339 . S
C273 H308 0.949 . S
C274 C273 1.339 . S
C274 C275 1.439 . S
C274 H309 0.950 . S
C275 N271 1.383 . S
C275 C274 1.439 . S
C275 C304 1.392 . S
N276 Co270 2.008 . S
N276 C277 1.376 . S
N276 C280 1.374 . S
C277 N276 1.376 . S
C277 C278 1.443 . S
C277 C304 1.389 . S
C278 C277 1.443 . S
C278 C279 1.340 . S
C278 H310 0.951 1_554 S
C279 C278 1.340 . S
C279 C280 1.439 . S
C279 H311 0.950 . S
C280 N276 1.374 . S
C280 C279 1.439 . S
C280 C305 1.395 . S
N281 Co270 1.995 . S
N281 C282 1.376 . S
N281 C285 1.383 . S
C282 N281 1.376 . S
C282 C283 1.446 . S
C282 C305 1.391 . S
C283 C282 1.446 . S
C283 C284 1.339 . S
C283 H312 0.949 . S
C284 C283 1.339 . S
C284 C285 1.439 . S
C284 H313 0.950 . S
C285 N281 1.383 . S
C285 C284 1.439 . S
C285 C303 1.392 . S
N286 Co270 2.282 . S
N286 C289 1.332 . S
N286 C291 1.332 . S
C287 C288 1.386 . S
C287 C290 1.388 . S
C288 C287 1.386 . S
C288 C289 1.382 . S
C288 H314 0.950 . S
C289 N286 1.332 . S
C289 C288 1.382 . S
C289 H300 0.952 . S
C290 C287 1.388 . S
C290 C291 1.382 . S
C290 H315 0.950 . S
C291 N286 1.332 . S
C291 C290 1.382 . S
C291 H301 0.948 . S
N292 Co270 2.282 . S
N292 C296 1.332 . S
N292 C297 1.332 . S
C293 C294 1.388 1_554 S
C293 C297 1.382 . S
C293 H316 0.950 1_554 S
C294 C293 1.388 1_556 S
C294 C295 1.385 1_556 S
C295 C294 1.385 1_554 S
C295 C296 1.385 . S
C295 H317 0.948 1_554 S
C296 N292 1.332 . S
C296 C295 1.385 . S
C296 H298 0.952 . S
C297 N292 1.332 . S
C297 C293 1.382 . S
C297 H299 0.948 . S
H298 C296 0.952 . S
H299 C297 0.948 . S
H300 C289 0.952 . S
H301 C291 0.948 . S
C302 C268 1.395 . S
C302 C272 1.391 . S
C303 C265 1.389 . S
C303 C285 1.392 . S
C304 C275 1.392 . S
C304 C277 1.389 . S
C305 C280 1.395 . S
C305 C282 1.391 . S
H306 C266 0.951 . S
H307 C267 0.950 . S
H308 C273 0.949 . S
H309 C274 0.950 . S
H310 C278 0.951 1_556 S
H311 C279 0.950 . S
H312 C283 0.949 . S
H313 C284 0.950 . S
H314 C288 0.950 . S
H315 C290 0.950 . S
H316 C293 0.950 1_556 S
H317 C295 0.948 1_556 S
C318 O345 1.312 . S
C318 O346 1.208 . S
C319 O340 1.331 . S
C319 O343 1.244 . S
C320 O342 1.264 . S
C320 O344 1.273 . S
Mg321 O323 1.936 1_455 S
Mg321 O330 2.081 1_455 S
Mg321 O332 2.023 . S
Mg321 O336 2.031 1_455 S
Mg321 O345 2.291 . S
Mg322 O323 1.963 . S
Mg322 O333 1.942 . S
Mg322 O334 1.955 1_655 S
Mg322 O341 1.986 . S
O323 Mg321 1.936 1_655 S
O323 Mg322 1.963 . S
O323 Mg324 1.915 1_655 S
Mg324 O323 1.915 1_455 S
Mg324 O325 1.915 . S
Mg324 O329 2.013 . S
Mg324 O335 2.114 1_455 S
Mg324 O339 2.013 1_455 S
Mg324 O345 2.114 . S
O325 Mg324 1.915 . S
O325 Mg326 1.936 . S
O325 Mg327 1.963 . S
Mg326 O325 1.936 . S
Mg326 O335 2.291 1_455 S
Mg326 O340 2.081 . S
Mg326 O342 2.023 1_455 S
Mg326 O346 2.031 . S
Mg327 O325 1.963 . S
Mg327 O331 1.986 . S
Mg327 O343 1.942 . S
Mg327 O344 1.955 1_455 S
C328 O339 1.191 . S
C328 O341 1.307 . S
O329 Mg324 2.013 . S
O329 C348 1.191 . S
O330 Mg321 2.081 1_655 S
O330 C338 1.331 . S
O331 Mg327 1.986 . S
O331 C348 1.307 . S
O332 Mg321 2.023 . S
O332 C347 1.264 . S
O333 Mg322 1.942 . S
O333 C338 1.244 . S
O334 Mg322 1.955 1_455 S
O334 C347 1.273 . S
O335 Mg324 2.114 1_655 S
O335 Mg326 2.291 1_655 S
O335 C337 1.312 . S
O336 Mg321 2.031 1_655 S
O336 C337 1.208 . S
C337 O335 1.312 . S
C337 O336 1.208 . S
C338 O330 1.331 . S
C338 O333 1.244 . S
O339 Mg324 2.013 1_655 S
O339 C328 1.191 . S
O340 C319 1.331 . S
O340 Mg326 2.081 . S
O341 Mg322 1.986 . S
O341 C328 1.307 . S
O342 C320 1.264 . S
O342 Mg326 2.023 1_655 S
O343 C319 1.244 . S
O343 Mg327 1.942 . S
O344 C320 1.273 . S
O344 Mg327 1.955 1_655 S
O345 C318 1.312 . S
O345 Mg321 2.291 . S
O345 Mg324 2.114 . S
O346 C318 1.208 . S
O346 Mg326 2.031 . S
C347 O332 1.264 . S
C347 O334 1.273 . S
C348 O329 1.191 . S
C348 O331 1.307 . S
C349 O376 1.312 . S
C349 O377 1.208 . S
C350 O371 1.331 . S
C350 O374 1.244 . S
C351 O373 1.264 . S
C351 O375 1.273 . S
Mg352 O354 1.936 1_545 S
Mg352 O361 2.081 1_545 S
Mg352 O363 2.023 . S
Mg352 O367 2.031 1_545 S
Mg352 O376 2.291 . S
Mg353 O354 1.963 . S
Mg353 O364 1.942 . S
Mg353 O365 1.955 1_565 S
Mg353 O372 1.986 . S
O354 Mg352 1.936 1_565 S
O354 Mg353 1.963 . S
O354 Mg355 1.915 1_565 S
Mg355 O354 1.915 1_545 S
Mg355 O356 1.915 . S
Mg355 O360 2.013 . S
Mg355 O366 2.114 1_545 S
Mg355 O370 2.013 1_545 S
Mg355 O376 2.114 . S
O356 Mg355 1.915 . S
O356 Mg357 1.936 . S
O356 Mg358 1.963 . S
Mg357 O356 1.936 . S
Mg357 O366 2.291 1_545 S
Mg357 O371 2.081 . S
Mg357 O373 2.023 1_545 S
Mg357 O377 2.031 . S
Mg358 O356 1.963 . S
Mg358 O362 1.986 . S
Mg358 O374 1.942 . S
Mg358 O375 1.955 1_545 S
C359 O370 1.191 . S
C359 O372 1.307 . S
O360 Mg355 2.013 . S
O360 C379 1.191 . S
O361 Mg352 2.081 1_565 S
O361 C369 1.331 . S
O362 Mg358 1.986 . S
O362 C379 1.307 . S
O363 Mg352 2.023 . S
O363 C378 1.264 . S
O364 Mg353 1.942 . S
O364 C369 1.244 . S
O365 Mg353 1.955 1_545 S
O365 C378 1.273 . S
O366 Mg355 2.114 1_565 S
O366 Mg357 2.291 1_565 S
O366 C368 1.312 . S
O367 Mg352 2.031 1_565 S
O367 C368 1.208 . S
C368 O366 1.312 . S
C368 O367 1.208 . S
C369 O361 1.331 . S
C369 O364 1.244 . S
O370 Mg355 2.013 1_565 S
O370 C359 1.191 . S
O371 C350 1.331 . S
O371 Mg357 2.081 . S
O372 Mg353 1.986 . S
O372 C359 1.307 . S
O373 C351 1.264 . S
O373 Mg357 2.023 1_565 S
O374 C350 1.244 . S
O374 Mg358 1.942 . S
O375 C351 1.273 . S
O375 Mg358 1.955 1_565 S
O376 C349 1.312 . S
O376 Mg352 2.291 . S
O376 Mg355 2.114 . S
O377 C349 1.208 . S
O377 Mg357 2.031 . S
C378 O363 1.264 . S
C378 O365 1.273 . S
C379 O360 1.191 . S
C379 O362 1.307 . S
C380 O407 1.312 . S
C380 O408 1.208 . S
C381 O402 1.331 . S
C381 O405 1.244 . S
C382 O404 1.264 . S
C382 O406 1.273 . S
Mg383 O385 1.936 . S
Mg383 O392 2.081 . S
Mg383 O394 2.023 . S
Mg383 O398 2.031 . S
Mg383 O407 2.291 . S
Mg384 O385 1.963 . S
Mg384 O395 1.942 . S
Mg384 O396 1.955 . S
Mg384 O403 1.986 . S
O385 Mg383 1.936 . S
O385 Mg384 1.963 . S
O385 Mg386 1.915 . S
Mg386 O385 1.915 . S
Mg386 O387 1.915 . S
Mg386 O391 2.013 . S
Mg386 O397 2.114 . S
Mg386 O401 2.013 . S
Mg386 O407 2.114 . S
O387 Mg386 1.915 . S
O387 Mg388 1.936 . S
O387 Mg389 1.963 . S
Mg388 O387 1.936 . S
Mg388 O397 2.291 . S
Mg388 O402 2.081 . S
Mg388 O404 2.023 . S
Mg388 O408 2.031 . S
Mg389 O387 1.963 . S
Mg389 O393 1.986 . S
Mg389 O405 1.942 . S
Mg389 O406 1.955 . S
C390 O401 1.191 . S
C390 O403 1.307 . S
O391 Mg386 2.013 . S
O391 C410 1.191 . S
O392 Mg383 2.081 . S
O392 C400 1.331 . S
O393 Mg389 1.986 . S
O393 C410 1.307 . S
O394 Mg383 2.023 . S
O394 C409 1.264 . S
O395 Mg384 1.942 . S
O395 C400 1.244 . S
O396 Mg384 1.955 . S
O396 C409 1.273 . S
O397 Mg386 2.114 . S
O397 Mg388 2.291 . S
O397 C399 1.312 . S
O398 Mg383 2.031 . S
O398 C399 1.208 . S
C399 O397 1.312 . S
C399 O398 1.208 . S
C400 O392 1.331 . S
C400 O395 1.244 . S
O401 Mg386 2.013 . S
O401 C390 1.191 . S
O402 C381 1.331 . S
O402 Mg388 2.081 . S
O403 Mg384 1.986 . S
O403 C390 1.307 . S
O404 C382 1.264 . S
O404 Mg388 2.023 . S
O405 C381 1.244 . S
O405 Mg389 1.942 . S
O406 C382 1.273 . S
O406 Mg389 1.955 . S
O407 C380 1.312 . S
O407 Mg383 2.291 . S
O407 Mg386 2.114 . S
O408 C380 1.208 . S
O408 Mg388 2.031 . S
C409 O394 1.264 . S
C409 O396 1.273 . S
C410 O391 1.191 . S
C410 O393 1.307 . S
C411 C412 1.363 . S
C411 C417 1.379 . S
C411 N419 1.356 . S
C412 C411 1.363 . S
C412 C418 1.363 . S
C413 C414 1.363 . S
C413 C418 1.379 . S
C413 N420 1.356 . S
C414 C413 1.363 . S
C414 C417 1.363 . S
N415 C417 1.356 . S
N415 H427 0.984 . S
N415 H428 0.985 . S
N416 C418 1.356 . S
N416 H421 0.984 . S
N416 H422 0.985 . S
C417 C411 1.379 . S
C417 C414 1.363 . S
C417 N415 1.356 . S
C418 C412 1.363 . S
C418 C413 1.379 . S
C418 N416 1.356 . S
N419 C411 1.356 . S
N419 H425 0.984 . S
N419 H426 0.984 . S
N420 C413 1.356 . S
N420 H423 0.984 . S
N420 H424 0.985 . S
H421 N416 0.984 . S
H422 N416 0.985 . S
H423 N420 0.984 . S
H424 N420 0.985 . S
H425 N419 0.984 . S
H426 N419 0.984 . S
H427 N415 0.984 . S
H428 N415 0.985 . S
C429 C430 1.363 . S
C429 C435 1.379 . S
C429 N437 1.356 . S
C430 C429 1.363 . S
C430 C436 1.363 . S
C431 C432 1.363 . S
C431 C436 1.379 . S
C431 N438 1.356 . S
C432 C431 1.363 . S
C432 C435 1.363 . S
N433 C435 1.356 . S
N433 H445 0.984 . S
N433 H446 0.985 . S
N434 C436 1.356 . S
N434 H439 0.984 . S
N434 H440 0.985 . S
C435 C429 1.379 . S
C435 C432 1.363 . S
C435 N433 1.356 . S
C436 C430 1.363 . S
C436 C431 1.379 . S
C436 N434 1.356 . S
N437 C429 1.356 . S
N437 H443 0.984 . S
N437 H444 0.984 . S
N438 C431 1.356 . S
N438 H441 0.984 . S
N438 H442 0.985 . S
H439 N434 0.984 . S
H440 N434 0.985 . S
H441 N438 0.984 . S
H442 N438 0.985 . S
H443 N437 0.984 . S
H444 N437 0.984 . S
H445 N433 0.984 . S
H446 N433 0.985 . S
C447 C448 1.363 . S
C447 C453 1.379 . S
C447 N455 1.356 . S
C448 C447 1.363 . S
C448 C454 1.363 . S
C449 C450 1.363 . S
C449 C454 1.379 . S
C449 N456 1.356 . S
C450 C449 1.363 . S
C450 C453 1.363 . S
N451 C453 1.356 . S
N451 H463 0.984 . S
N451 H464 0.985 . S
N452 C454 1.356 . S
N452 H457 0.984 . S
N452 H458 0.985 . S
C453 C447 1.379 . S
C453 C450 1.363 . S
C453 N451 1.356 . S
C454 C448 1.363 . S
C454 C449 1.379 . S
C454 N452 1.356 . S
N455 C447 1.356 . S
N455 H461 0.984 . S
N455 H462 0.984 . S
N456 C449 1.356 . S
N456 H459 0.984 . S
N456 H460 0.985 . S
H457 N452 0.984 . S
H458 N452 0.985 . S
H459 N456 0.984 . S
H460 N456 0.985 . S
H461 N455 0.984 . S
H462 N455 0.984 . S
H463 N451 0.984 . S
H464 N451 0.985 . S
C465 C466 1.363 . S
C465 C471 1.379 . S
C465 N473 1.356 . S
C466 C465 1.363 . S
C466 C472 1.363 . S
C467 C468 1.363 . S
C467 C472 1.379 . S
C467 N474 1.356 . S
C468 C467 1.363 . S
C468 C471 1.363 . S
N469 C471 1.356 . S
N469 H481 0.984 . S
N469 H482 0.985 . S
N470 C472 1.356 . S
N470 H475 0.984 . S
N470 H476 0.985 . S
C471 C465 1.379 . S
C471 C468 1.363 . S
C471 N469 1.356 . S
C472 C466 1.363 . S
C472 C467 1.379 . S
C472 N470 1.356 . S
N473 C465 1.356 . S
N473 H479 0.984 . S
N473 H480 0.984 . S
N474 C467 1.356 . S
N474 H477 0.984 . S
N474 H478 0.985 . S
H475 N470 0.984 . S
H476 N470 0.985 . S
H477 N474 0.984 . S
H478 N474 0.985 . S
H479 N473 0.984 . S
H480 N473 0.984 . S
H481 N469 0.984 . S
H482 N469 0.985 . S
C483 C484 1.363 . S
C483 C489 1.379 . S
C483 N491 1.356 . S
C484 C483 1.363 . S
C484 C490 1.363 . S
C485 C486 1.363 . S
C485 C490 1.379 . S
C485 N492 1.356 . S
C486 C485 1.363 . S
C486 C489 1.363 . S
N487 C489 1.356 . S
N487 H499 0.984 . S
N487 H500 0.985 . S
N488 C490 1.356 . S
N488 H493 0.984 . S
N488 H494 0.985 . S
C489 C483 1.379 . S
C489 C486 1.363 . S
C489 N487 1.356 . S
C490 C484 1.363 . S
C490 C485 1.379 . S
C490 N488 1.356 . S
N491 C483 1.356 . S
N491 H497 0.984 . S
N491 H498 0.984 . S
N492 C485 1.356 . S
N492 H495 0.984 . S
N492 H496 0.985 . S
H493 N488 0.984 . S
H494 N488 0.985 . S
H495 N492 0.984 . S
H496 N492 0.985 . S
H497 N491 0.984 . S
H498 N491 0.984 . S
H499 N487 0.984 . S
H500 N487 0.985 . S
C501 C502 1.363 . S
C501 C507 1.379 . S
C501 N509 1.356 . S
C502 C501 1.363 . S
C502 C508 1.363 . S
C503 C504 1.363 . S
C503 C508 1.379 . S
C503 N510 1.356 . S
C504 C503 1.363 . S
C504 C507 1.363 . S
N505 C507 1.356 . S
N505 H517 0.984 . S
N505 H518 0.985 . S
N506 C508 1.356 . S
N506 H511 0.984 . S
N506 H512 0.985 . S
C507 C501 1.379 . S
C507 C504 1.363 . S
C507 N505 1.356 . S
C508 C502 1.363 . S
C508 C503 1.379 . S
C508 N506 1.356 . S
N509 C501 1.356 . S
N509 H515 0.984 . S
N509 H516 0.984 . S
N510 C503 1.356 . S
N510 H513 0.984 . S
N510 H514 0.985 . S
H511 N506 0.984 . S
H512 N506 0.985 . S
H513 N510 0.984 . S
H514 N510 0.985 . S
H515 N509 0.984 . S
H516 N509 0.984 . S
H517 N505 0.984 . S
H518 N505 0.985 . S
C519 C520 1.363 . S
C519 C525 1.379 . S
C519 N527 1.356 . S
C520 C519 1.363 . S
C520 C526 1.363 . S
C521 C522 1.363 . S
C521 C526 1.379 . S
C521 N528 1.356 . S
C522 C521 1.363 . S
C522 C525 1.363 . S
N523 C525 1.356 . S
N523 H535 0.984 . S
N523 H536 0.985 . S
N524 C526 1.356 . S
N524 H529 0.984 . S
N524 H530 0.985 . S
C525 C519 1.379 . S
C525 C522 1.363 . S
C525 N523 1.356 . S
C526 C520 1.363 . S
C526 C521 1.379 . S
C526 N524 1.356 . S
N527 C519 1.356 . S
N527 H533 0.984 . S
N527 H534 0.984 . S
N528 C521 1.356 . S
N528 H531 0.984 . S
N528 H532 0.985 . S
H529 N524 0.984 . S
H530 N524 0.985 . S
H531 N528 0.984 . S
H532 N528 0.985 . S
H533 N527 0.984 . S
H534 N527 0.984 . S
H535 N523 0.984 . S
H536 N523 0.985 . S
C537 C538 1.363 . S
C537 C543 1.379 . S
C537 N545 1.356 . S
C538 C537 1.363 . S
C538 C544 1.363 . S
C539 C540 1.363 . S
C539 C544 1.379 . S
C539 N546 1.356 . S
C540 C539 1.363 . S
C540 C543 1.363 . S
N541 C543 1.356 . S
N541 H553 0.984 . S
N541 H554 0.985 . S
N542 C544 1.356 . S
N542 H547 0.984 . S
N542 H548 0.985 . S
C543 C537 1.379 . S
C543 C540 1.363 . S
C543 N541 1.356 . S
C544 C538 1.363 . S
C544 C539 1.379 . S
C544 N542 1.356 . S
N545 C537 1.356 . S
N545 H551 0.984 . S
N545 H552 0.984 . S
N546 C539 1.356 . S
N546 H549 0.984 . S
N546 H550 0.985 . S
H547 N542 0.984 . S
H548 N542 0.985 . S
H549 N546 0.984 . S
H550 N546 0.985 . S
H551 N545 0.984 . S
H552 N545 0.984 . S
H553 N541 0.984 . S
H554 N541 0.985 . S
C555 C556 1.363 . S
C555 C561 1.379 . S
C555 N563 1.356 1_556 S
C556 C555 1.363 . S
C556 C562 1.363 . S
C557 C558 1.363 . S
C557 C562 1.379 . S
C557 N564 1.356 . S
C558 C557 1.363 . S
C558 C561 1.363 . S
N559 C561 1.356 . S
N559 H571 0.984 . S
N559 H572 0.985 . S
N560 C562 1.356 . S
N560 H565 0.984 . S
N560 H566 0.985 . S
C561 C555 1.379 . S
C561 C558 1.363 . S
C561 N559 1.356 . S
C562 C556 1.363 . S
C562 C557 1.379 . S
C562 N560 1.356 . S
N563 C555 1.356 1_554 S
N563 H569 0.984 . S
N563 H570 0.984 . S
N564 C557 1.356 . S
N564 H567 0.984 . S
N564 H568 0.985 . S
H565 N560 0.984 . S
H566 N560 0.985 . S
H567 N564 0.984 . S
H568 N564 0.985 . S
H569 N563 0.984 . S
H570 N563 0.984 . S
H571 N559 0.984 . S
H572 N559 0.985 . S
C573 C574 1.363 . S
C573 C579 1.379 . S
C573 N581 1.356 . S
C574 C573 1.363 . S
C574 C580 1.363 . S
C575 C576 1.363 . S
C575 C580 1.379 . S
C575 N582 1.356 . S
C576 C575 1.363 . S
C576 C579 1.363 . S
N577 C579 1.356 . S
N577 H589 0.984 . S
N577 H590 0.985 . S
N578 C580 1.356 1_554 S
N578 H583 0.984 . S
N578 H584 0.985 . S
C579 C573 1.379 . S
C579 C576 1.363 . S
C579 N577 1.356 . S
C580 C574 1.363 . S
C580 C575 1.379 . S
C580 N578 1.356 1_556 S
N581 C573 1.356 . S
N581 H587 0.984 . S
N581 H588 0.984 . S
N582 C575 1.356 . S
N582 H585 0.984 . S
N582 H586 0.985 . S
H583 N578 0.984 . S
H584 N578 0.985 . S
H585 N582 0.984 . S
H586 N582 0.985 . S
H587 N581 0.984 . S
H588 N581 0.984 . S
H589 N577 0.984 . S
H590 N577 0.985 . S
C591 C592 1.363 1_556 S
C591 C597 1.379 . S
C591 N599 1.356 . S
C592 C591 1.363 1_554 S
C592 C598 1.363 . S
C593 C594 1.363 . S
C593 C598 1.379 1_556 S
C593 N600 1.356 . S
C594 C593 1.363 . S
C594 C597 1.363 . S
N595 C597 1.356 . S
N595 H607 0.984 . S
N595 H608 0.985 . S
N596 C598 1.356 . S
N596 H601 0.984 . S
N596 H602 0.985 . S
C597 C591 1.379 . S
C597 C594 1.363 . S
C597 N595 1.356 . S
C598 C592 1.363 . S
C598 C593 1.379 1_554 S
C598 N596 1.356 . S
N599 C591 1.356 . S
N599 H605 0.984 . S
N599 H606 0.984 . S
N600 C593 1.356 . S
N600 H603 0.984 . S
N600 H604 0.985 1_556 S
H601 N596 0.984 . S
H602 N596 0.985 . S
H603 N600 0.984 . S
H604 N600 0.985 1_554 S
H605 N599 0.984 . S
H606 N599 0.984 . S
H607 N595 0.984 . S
H608 N595 0.985 . S
C609 C610 1.363 . S
C609 C615 1.379 . S
C609 N617 1.356 . S
C610 C609 1.363 . S
C610 C616 1.363 . S
C611 C612 1.363 . S
C611 C616 1.379 . S
C611 N618 1.356 . S
C612 C611 1.363 . S
C612 C615 1.363 . S
N613 C615 1.356 . S
N613 H625 0.984 . S
N613 H626 0.985 . S
N614 C616 1.356 1_554 S
N614 H619 0.984 . S
N614 H620 0.985 . S
C615 C609 1.379 . S
C615 C612 1.363 . S
C615 N613 1.356 . S
C616 C610 1.363 . S
C616 C611 1.379 . S
C616 N614 1.356 1_556 S
N617 C609 1.356 . S
N617 H623 0.984 . S
N617 H624 0.984 . S
N618 C611 1.356 . S
N618 H621 0.984 . S
N618 H622 0.985 . S
H619 N614 0.984 . S
H620 N614 0.985 . S
H621 N618 0.984 . S
H622 N618 0.985 . S
H623 N617 0.984 . S
H624 N617 0.984 . S
H625 N613 0.984 . S
H626 N613 0.985 . S
C627 C628 1.363 . S
C627 C633 1.379 . S
C627 N635 1.356 . S
C628 C627 1.363 . S
C628 C634 1.363 . S
C629 C630 1.363 . S
C629 C634 1.379 . S
C629 N636 1.356 . S
C630 C629 1.363 . S
C630 C633 1.363 . S
N631 C633 1.356 . S
N631 H643 0.984 . S
N631 H644 0.985 . S
N632 C634 1.356 . S
N632 H637 0.984 . S
N632 H638 0.985 . S
C633 C627 1.379 . S
C633 C630 1.363 . S
C633 N631 1.356 . S
C634 C628 1.363 . S
C634 C629 1.379 . S
C634 N632 1.356 . S
N635 C627 1.356 . S
N635 H641 0.984 . S
N635 H642 0.984 . S
N636 C629 1.356 . S
N636 H639 0.984 . S
N636 H640 0.985 . S
H637 N632 0.984 . S
H638 N632 0.985 . S
H639 N636 0.984 . S
H640 N636 0.985 . S
H641 N635 0.984 . S
H642 N635 0.984 . S
H643 N631 0.984 . S
H644 N631 0.985 . S
C645 C646 1.363 . S
C645 C651 1.379 . S
C645 N653 1.356 . S
C646 C645 1.363 . S
C646 C652 1.363 . S
C647 C648 1.363 . S
C647 C652 1.379 . S
C647 N654 1.356 . S
C648 C647 1.363 . S
C648 C651 1.363 . S
N649 C651 1.356 . S
N649 H661 0.984 . S
N649 H662 0.985 . S
N650 C652 1.356 . S
N650 H655 0.984 . S
N650 H656 0.985 . S
C651 C645 1.379 . S
C651 C648 1.363 . S
C651 N649 1.356 . S
C652 C646 1.363 . S
C652 C647 1.379 . S
C652 N650 1.356 . S
N653 C645 1.356 . S
N653 H659 0.984 . S
N653 H660 0.984 . S
N654 C647 1.356 . S
N654 H657 0.984 . S
N654 H658 0.985 . S
H655 N650 0.984 . S
H656 N650 0.985 . S
H657 N654 0.984 . S
H658 N654 0.985 . S
H659 N653 0.984 . S
H660 N653 0.984 . S
H661 N649 0.984 . S
H662 N649 0.985 . S
C663 C664 1.363 . S
C663 C669 1.379 . S
C663 N671 1.356 . S
C664 C663 1.363 . S
C664 C670 1.363 . S
C665 C666 1.363 . S
C665 C670 1.379 . S
C665 N672 1.356 . S
C666 C665 1.363 . S
C666 C669 1.363 . S
N667 C669 1.356 . S
N667 H679 0.984 . S
N667 H680 0.985 . S
N668 C670 1.356 1_554 S
N668 H673 0.984 . S
N668 H674 0.985 . S
C669 C663 1.379 . S
C669 C666 1.363 . S
C669 N667 1.356 . S
C670 C664 1.363 . S
C670 C665 1.379 . S
C670 N668 1.356 1_556 S
N671 C663 1.356 . S
N671 H677 0.984 . S
N671 H678 0.984 . S
N672 C665 1.356 . S
N672 H675 0.984 . S
N672 H676 0.985 . S
H673 N668 0.984 . S
H674 N668 0.985 . S
H675 N672 0.984 . S
H676 N672 0.985 . S
H677 N671 0.984 . S
H678 N671 0.984 . S
H679 N667 0.984 . S
H680 N667 0.985 . S
C681 C682 1.363 . S
C681 C687 1.379 . S
C681 N689 1.356 . S
C682 C681 1.363 . S
C682 C688 1.363 1_554 S
C683 C684 1.363 . S
C683 C688 1.379 . S
C683 N690 1.356 . S
C684 C683 1.363 . S
C684 C687 1.363 1_556 S
N685 C687 1.356 . S
N685 H697 0.984 . S
N685 H698 0.985 1_554 S
N686 C688 1.356 . S
N686 H691 0.984 1_556 S
N686 H692 0.985 . S
C687 C681 1.379 . S
C687 C684 1.363 1_554 S
C687 N685 1.356 . S
C688 C682 1.363 1_556 S
C688 C683 1.379 . S
C688 N686 1.356 . S
N689 C681 1.356 . S
N689 H695 0.984 . S
N689 H696 0.984 . S
N690 C683 1.356 . S
N690 H693 0.984 . S
N690 H694 0.985 . S
H691 N686 0.984 1_554 S
H692 N686 0.985 . S
H693 N690 0.984 . S
H694 N690 0.985 . S
H695 N689 0.984 . S
H696 N689 0.984 . S
H697 N685 0.984 . S
H698 N685 0.985 1_556 S
C699 C700 1.363 . S
C699 C705 1.379 . S
C699 N707 1.356 . S
C700 C699 1.363 . S
C700 C706 1.363 . S
C701 C702 1.363 . S
C701 C706 1.379 . S
C701 N708 1.356 . S
C702 C701 1.363 . S
C702 C705 1.363 . S
N703 C705 1.356 . S
N703 H715 0.984 . S
N703 H716 0.985 . S
N704 C706 1.356 . S
N704 H709 0.984 . S
N704 H710 0.985 . S
C705 C699 1.379 . S
C705 C702 1.363 . S
C705 N703 1.356 . S
C706 C700 1.363 . S
C706 C701 1.379 . S
C706 N704 1.356 . S
N707 C699 1.356 . S
N707 H713 0.984 . S
N707 H714 0.984 . S
N708 C701 1.356 . S
N708 H711 0.984 . S
N708 H712 0.985 . S
H709 N704 0.984 . S
H710 N704 0.985 . S
H711 N708 0.984 . S
H712 N708 0.985 . S
H713 N707 0.984 . S
H714 N707 0.984 . S
H715 N703 0.984 . S
H716 N703 0.985 . S
C717 C718 1.363 . S
C717 C723 1.379 . S
C717 N725 1.356 . S
C718 C717 1.363 . S
C718 C724 1.363 . S
C719 C720 1.363 . S
C719 C724 1.379 . S
C719 N726 1.356 . S
C720 C719 1.363 . S
C720 C723 1.363 . S
N721 C723 1.356 . S
N721 H733 0.984 . S
N721 H734 0.985 . S
N722 C724 1.356 . S
N722 H727 0.984 . S
N722 H728 0.985 . S
C723 C717 1.379 . S
C723 C720 1.363 . S
C723 N721 1.356 . S
C724 C718 1.363 . S
C724 C719 1.379 . S
C724 N722 1.356 . S
N725 C717 1.356 . S
N725 H731 0.984 . S
N725 H732 0.984 . S
N726 C719 1.356 . S
N726 H729 0.984 . S
N726 H730 0.985 . S
H727 N722 0.984 . S
H728 N722 0.985 . S
H729 N726 0.984 . S
H730 N726 0.985 . S
H731 N725 0.984 . S
H732 N725 0.984 . S
H733 N721 0.984 . S
H734 N721 0.985 . S
C735 C736 1.363 . S
C735 C741 1.379 . S
C735 N743 1.356 . S
C736 C735 1.363 . S
C736 C742 1.363 . S
C737 C738 1.363 . S
C737 C742 1.379 . S
C737 N744 1.356 . S
C738 C737 1.363 . S
C738 C741 1.363 . S
N739 C741 1.356 . S
N739 H751 0.984 . S
N739 H752 0.985 . S
N740 C742 1.356 . S
N740 H745 0.984 . S
N740 H746 0.985 . S
C741 C735 1.379 . S
C741 C738 1.363 . S
C741 N739 1.356 . S
C742 C736 1.363 . S
C742 C737 1.379 . S
C742 N740 1.356 . S
N743 C735 1.356 . S
N743 H749 0.984 . S
N743 H750 0.984 . S
N744 C737 1.356 . S
N744 H747 0.984 . S
N744 H748 0.985 . S
H745 N740 0.984 . S
H746 N740 0.985 . S
H747 N744 0.984 . S
H748 N744 0.985 . S
H749 N743 0.984 . S
H750 N743 0.984 . S
H751 N739 0.984 . S
H752 N739 0.985 . S
C753 C754 1.363 . S
C753 C759 1.379 . S
C753 N761 1.356 . S
C754 C753 1.363 . S
C754 C760 1.363 . S
C755 C756 1.363 . S
C755 C760 1.379 . S
C755 N762 1.356 . S
C756 C755 1.363 . S
C756 C759 1.363 . S
N757 C759 1.356 . S
N757 H769 0.984 . S
N757 H770 0.985 . S
N758 C760 1.356 . S
N758 H763 0.984 . S
N758 H764 0.985 . S
C759 C753 1.379 . S
C759 C756 1.363 . S
C759 N757 1.356 . S
C760 C754 1.363 . S
C760 C755 1.379 . S
C760 N758 1.356 . S
N761 C753 1.356 . S
N761 H767 0.984 . S
N761 H768 0.984 . S
N762 C755 1.356 . S
N762 H765 0.984 . S
N762 H766 0.985 . S
H763 N758 0.984 . S
H764 N758 0.985 . S
H765 N762 0.984 . S
H766 N762 0.985 . S
H767 N761 0.984 . S
H768 N761 0.984 . S
H769 N757 0.984 . S
H770 N757 0.985 . S
C771 C772 1.363 . S
C771 C777 1.379 . S
C771 N779 1.356 . S
C772 C771 1.363 . S
C772 C778 1.363 . S
C773 C774 1.363 . S
C773 C778 1.379 . S
C773 N780 1.356 . S
C774 C773 1.363 . S
C774 C777 1.363 . S
N775 C777 1.356 . S
N775 H787 0.984 . S
N775 H788 0.985 . S
N776 C778 1.356 . S
N776 H781 0.984 . S
N776 H782 0.985 . S
C777 C771 1.379 . S
C777 C774 1.363 . S
C777 N775 1.356 . S
C778 C772 1.363 . S
C778 C773 1.379 . S
C778 N776 1.356 . S
N779 C771 1.356 . S
N779 H785 0.984 . S
N779 H786 0.984 . S
N780 C773 1.356 . S
N780 H783 0.984 . S
N780 H784 0.985 . S
H781 N776 0.984 . S
H782 N776 0.985 . S
H783 N780 0.984 . S
H784 N780 0.985 . S
H785 N779 0.984 . S
H786 N779 0.984 . S
H787 N775 0.984 . S
H788 N775 0.985 . S
C789 C790 1.363 . S
C789 C795 1.379 . S
C789 N797 1.356 . S
C790 C789 1.363 . S
C790 C796 1.363 . S
C791 C792 1.363 . S
C791 C796 1.379 . S
C791 N798 1.356 . S
C792 C791 1.363 . S
C792 C795 1.363 . S
N793 C795 1.356 . S
N793 H805 0.984 1_565 S
N793 H806 0.985 . S
N794 C796 1.356 . S
N794 H799 0.984 . S
N794 H800 0.985 . S
C795 C789 1.379 . S
C795 C792 1.363 . S
C795 N793 1.356 . S
C796 C790 1.363 . S
C796 C791 1.379 . S
C796 N794 1.356 . S
N797 C789 1.356 . S
N797 H803 0.984 . S
N797 H804 0.984 . S
N798 C791 1.356 . S
N798 H801 0.984 . S
N798 H802 0.985 . S
H799 N794 0.984 . S
H800 N794 0.985 . S
H801 N798 0.984 . S
H802 N798 0.985 . S
H803 N797 0.984 . S
H804 N797 0.984 . S
H805 N793 0.984 1_545 S
H806 N793 0.985 . S
C807 C808 1.363 . S
C807 C813 1.379 . S
C807 N815 1.356 . S
C808 C807 1.363 . S
C808 C814 1.363 . S
C809 C810 1.363 . S
C809 C814 1.379 . S
C809 N816 1.356 . S
C810 C809 1.363 . S
C810 C813 1.363 . S
N811 C813 1.356 . S
N811 H823 0.984 . S
N811 H824 0.985 . S
N812 C814 1.356 . S
N812 H817 0.984 . S
N812 H818 0.985 . S
C813 C807 1.379 . S
C813 C810 1.363 . S
C813 N811 1.356 . S
C814 C808 1.363 . S
C814 C809 1.379 . S
C814 N812 1.356 . S
N815 C807 1.356 . S
N815 H821 0.984 . S
N815 H822 0.984 . S
N816 C809 1.356 . S
N816 H819 0.984 . S
N816 H820 0.985 . S
H817 N812 0.984 . S
H818 N812 0.985 . S
H819 N816 0.984 . S
H820 N816 0.985 . S
H821 N815 0.984 . S
H822 N815 0.984 . S
H823 N811 0.984 . S
H824 N811 0.985 . S
C825 C826 1.363 . S
C825 C831 1.379 . S
C825 N833 1.356 . S
C826 C825 1.363 . S
C826 C832 1.363 . S
C827 C828 1.363 . S
C827 C832 1.379 . S
C827 N834 1.356 . S
C828 C827 1.363 . S
C828 C831 1.363 . S
N829 C831 1.356 . S
N829 H841 0.984 . S
N829 H842 0.985 . S
N830 C832 1.356 . S
N830 H835 0.984 . S
N830 H836 0.985 . S
C831 C825 1.379 . S
C831 C828 1.363 . S
C831 N829 1.356 . S
C832 C826 1.363 . S
C832 C827 1.379 . S
C832 N830 1.356 . S
N833 C825 1.356 . S
N833 H839 0.984 . S
N833 H840 0.984 . S
N834 C827 1.356 . S
N834 H837 0.984 . S
N834 H838 0.985 . S
H835 N830 0.984 . S
H836 N830 0.985 . S
H837 N834 0.984 . S
H838 N834 0.985 . S
H839 N833 0.984 . S
H840 N833 0.984 . S
H841 N829 0.984 . S
H842 N829 0.985 . S
C412 C22 1.835 . S
C414 C318 1.732 . S
C430 C92 1.762 . S
C432 C350 1.725 . S
C450 C409 1.935 . S
C448 C144 2.002 . S
C468 C338 1.529 . S
C466 C197 1.567 . S
C484 C250 1.938 . S
C486 C368 1.829 . S
C504 C390 1.383 . S
C502 C287 1.386 . S
C522 C359 1.874 . S
C520 C145 1.893 . S
C538 C198 1.557 . S
C540 C399 1.468 . S
C558 C348 1.881 . S
C556 C251 1.894 . S
C574 C294 1.497 . S
C576 C378 1.448 . S
C592 C29 1.739 . S
C594 C381 1.695 . S
C612 C320 1.819 . S
C610 C91 1.838 1_556 S
C630 C328 1.533 . S
C628 C188 1.594 . S
C648 C369 1.246 . S
C646 C241 1.280 . S
C666 C382 1.777 . S
C664 C304 1.828 1_556 S
C684 C319 1.381 . S
C682 C39 1.405 . S
C702 C379 1.392 . S
C700 C75 1.442 . S
C718 C135 1.236 . S
C720 C380 1.216 . S
C738 C349 1.647 . S
C736 C303 1.689 . S
C756 C410 1.265 . S
C754 C38 1.315 . S
C774 C337 1.392 . S
C772 C82 1.476 . S
C792 C351 1.320 . S
C790 C128 1.358 . S
C808 C181 1.591 . S
C810 C400 1.549 . S
C826 C234 1.382 . S
C828 C347 1.351 . S
