# Generated by pormake.
# Topology wbl, (4,4)-cn, num edge types: 1
# Building blocks:
#     Node 0, Type 0, BuildingBlock: MUDLON_clean_sbu_0, # of connection points: 4
#     Node 1, Type 0, BuildingBlock: MUDLON_clean_sbu_0, # of connection points: 4
#     Node 2, Type 0, BuildingBlock: MUDLON_clean_sbu_0, # of connection points: 4
#     Node 3, Type 0, BuildingBlock: MUDLON_clean_sbu_0, # of connection points: 4
#     Node 4, Type 0, BuildingBlock: MUDLON_clean_sbu_0, # of connection points: 4
#     Node 5, Type 0, BuildingBlock: MUDLON_clean_sbu_0, # of connection points: 4
#     Node 6, Type 0, BuildingBlock: MUDLON_clean_sbu_0, # of connection points: 4
#     Node 7, Type 0, BuildingBlock: MUDLON_clean_sbu_0, # of connection points: 4
#     Node 8, Type 1, BuildingBlock: CEKHIL_clean_sbu_0, # of connection points: 4
#     Node 9, Type 1, BuildingBlock: CEKHIL_clean_sbu_0, # of connection points: 4
#     Node 10, Type 1, BuildingBlock: CEKHIL_clean_sbu_0, # of connection points: 4
#     Node 11, Type 1, BuildingBlock: CEKHIL_clean_sbu_0, # of connection points: 4
#     Node 12, Type 1, BuildingBlock: CEKHIL_clean_sbu_0, # of connection points: 4
#     Node 13, Type 1, BuildingBlock: CEKHIL_clean_sbu_0, # of connection points: 4
#     Node 14, Type 1, BuildingBlock: CEKHIL_clean_sbu_0, # of connection points: 4
#     Node 15, Type 1, BuildingBlock: CEKHIL_clean_sbu_0, # of connection points: 4
#     Edge 16, Type (0, 1), BuildingBlock: OJICUG_clean_linker_0, # of connection points: 2
#     Edge 17, Type (0, 1), BuildingBlock: OJICUG_clean_linker_0, # of connection points: 2
#     Edge 18, Type (0, 1), BuildingBlock: OJICUG_clean_linker_0, # of connection points: 2
#     Edge 19, Type (0, 1), BuildingBlock: OJICUG_clean_linker_0, # of connection points: 2
#     Edge 20, Type (0, 1), BuildingBlock: OJICUG_clean_linker_0, # of connection points: 2
#     Edge 21, Type (0, 1), BuildingBlock: OJICUG_clean_linker_0, # of connection points: 2
#     Edge 22, Type (0, 1), BuildingBlock: OJICUG_clean_linker_0, # of connection points: 2
#     Edge 23, Type (0, 1), BuildingBlock: OJICUG_clean_linker_0, # of connection points: 2
#     Edge 24, Type (0, 1), BuildingBlock: OJICUG_clean_linker_0, # of connection points: 2
#     Edge 25, Type (0, 1), BuildingBlock: OJICUG_clean_linker_0, # of connection points: 2
#     Edge 26, Type (0, 1), BuildingBlock: OJICUG_clean_linker_0, # of connection points: 2
#     Edge 27, Type (0, 1), BuildingBlock: OJICUG_clean_linker_0, # of connection points: 2
#     Edge 28, Type (0, 1), BuildingBlock: OJICUG_clean_linker_0, # of connection points: 2
#     Edge 29, Type (0, 1), BuildingBlock: OJICUG_clean_linker_0, # of connection points: 2
#     Edge 30, Type (0, 1), BuildingBlock: OJICUG_clean_linker_0, # of connection points: 2
#     Edge 31, Type (0, 1), BuildingBlock: OJICUG_clean_linker_0, # of connection points: 2
#     Edge 32, Type (0, 1), BuildingBlock: OJICUG_clean_linker_0, # of connection points: 2
#     Edge 33, Type (0, 1), BuildingBlock: OJICUG_clean_linker_0, # of connection points: 2
#     Edge 34, Type (0, 1), BuildingBlock: OJICUG_clean_linker_0, # of connection points: 2
#     Edge 35, Type (0, 1), BuildingBlock: OJICUG_clean_linker_0, # of connection points: 2
#     Edge 36, Type (0, 1), BuildingBlock: OJICUG_clean_linker_0, # of connection points: 2
#     Edge 37, Type (0, 1), BuildingBlock: OJICUG_clean_linker_0, # of connection points: 2
#     Edge 38, Type (0, 1), BuildingBlock: OJICUG_clean_linker_0, # of connection points: 2
#     Edge 39, Type (0, 1), BuildingBlock: OJICUG_clean_linker_0, # of connection points: 2
#     Edge 40, Type (0, 1), BuildingBlock: OJICUG_clean_linker_0, # of connection points: 2
#     Edge 41, Type (0, 1), BuildingBlock: OJICUG_clean_linker_0, # of connection points: 2
#     Edge 42, Type (0, 1), BuildingBlock: OJICUG_clean_linker_0, # of connection points: 2
#     Edge 43, Type (0, 1), BuildingBlock: OJICUG_clean_linker_0, # of connection points: 2
#     Edge 44, Type (0, 1), BuildingBlock: OJICUG_clean_linker_0, # of connection points: 2
#     Edge 45, Type (0, 1), BuildingBlock: OJICUG_clean_linker_0, # of connection points: 2
#     Edge 46, Type (0, 1), BuildingBlock: OJICUG_clean_linker_0, # of connection points: 2
#     Edge 47, Type (0, 1), BuildingBlock: OJICUG_clean_linker_0, # of connection points: 2
# Relax obj value: 0.230
# Max RMSD: 0.220
# Mean RMSD: 0.174
data_MOF--net-wbl--node1-MUDLON_clean_sbu_0--node2-CEKHIL_clean_sbu_0--edge1-OJICUG_clean_linker_0
_symmetry_space_group_name_H-M    P1
_symmetry_Int_Tables_number       1
_symmetry_cell_setting            triclinic
loop_
_symmetry_equiv_pos_as_xyz
'x, y, z'
_cell_length_a     25.365677
_cell_length_b     25.500632
_cell_length_c     55.533963
_cell_angle_alpha  90.276863
_cell_angle_beta   90.076123
_cell_angle_gamma 89.940339
loop_
_atom_site_label
_atom_site_type_symbol
_atom_site_fract_x
_atom_site_fract_y
_atom_site_fract_z
_atom_type_partial_charge
Mg0 Mg 0.02209 0.03978 0.33736 0.0
C1 C 0.99605 0.96632 0.37563 0.0
O2 O 0.95633 0.99937 0.37673 0.0
C3 C 0.9389 0.09716 0.30896 0.0
O4 O 0.97829 0.13017 0.30662 0.0
C5 C 0.11073 0.99887 0.30741 0.0
O6 O 0.08794 0.95508 0.31411 0.0
O7 O 0.09049 0.04238 0.3139 0.0
O8 O 0.02531 0.96722 0.35712 0.0
O9 O 0.02835 0.09286 0.36802 0.0
C10 C 0.98843 0.11904 0.37496 0.0
O11 O 0.94627 0.12056 0.36127 0.0
O12 O 0.94693 0.05389 0.3197 0.0
Mg13 Mg 0.1107 0.54051 0.59323 0.0
C14 C 0.19085 0.50108 0.62659 0.0
O15 O 0.16143 0.45893 0.62449 0.0
C16 C 0.04117 0.46831 0.56533 0.0
O17 O 0.00838 0.50642 0.57087 0.0
C18 C 0.14765 0.63585 0.56741 0.0
O19 O 0.19247 0.61194 0.57191 0.0
O20 O 0.10488 0.61437 0.57406 0.0
O21 O 0.18674 0.53622 0.61056 0.0
O22 O 0.06386 0.53955 0.62585 0.0
C23 C 0.04439 0.49626 0.63276 0.0
O24 O 0.0456 0.45554 0.61824 0.0
O25 O 0.08936 0.47275 0.57142 0.0
Mg26 Mg 0.63806 0.60339 0.84247 0.0
C27 C 0.58922 0.68993 0.86858 0.0
O28 O 0.54841 0.66278 0.86101 0.0
C29 C 0.72072 0.53308 0.82456 0.0
O30 O 0.68637 0.50115 0.83438 0.0
C31 C 0.54816 0.62021 0.80799 0.0
O32 O 0.57523 0.66317 0.80392 0.0
O33 O 0.56652 0.58656 0.82259 0.0
O34 O 0.63379 0.68066 0.85897 0.0
O35 O 0.64148 0.55886 0.87533 0.0
C36 C 0.67562 0.57838 0.88954 0.0
O37 O 0.70498 0.61745 0.88207 0.0
O38 O 0.71025 0.58191 0.82402 0.0
Mg39 Mg 0.56302 0.13953 0.09087 0.0
C40 C 0.60346 0.09923 0.1375 0.0
O41 O 0.56856 0.06264 0.13266 0.0
C42 C 0.59777 0.03782 0.06808 0.0
O43 O 0.6404 0.04911 0.08053 0.0
C44 C 0.63829 0.21765 0.07202 0.0
O45 O 0.66985 0.18026 0.07955 0.0
O46 O 0.58866 0.21076 0.07331 0.0
O47 O 0.6158 0.13141 0.12108 0.0
O48 O 0.49087 0.14576 0.11142 0.0
C49 C 0.4627 0.10478 0.11328 0.0
O50 O 0.46774 0.0677 0.09694 0.0
O51 O 0.55972 0.07015 0.06814 0.0
Mg52 Mg 0.15417 0.55057 0.93498 0.0
C53 C 0.18876 0.61717 0.8949 0.0
O54 O 0.23376 0.60631 0.90548 0.0
C55 C 0.03938 0.56022 0.94548 0.0
O56 O 0.04215 0.57998 0.92371 0.0
C57 C 0.22502 0.62683 0.96023 0.0
O58 O 0.18694 0.65816 0.95314 0.0
O59 O 0.22113 0.57786 0.95597 0.0
O60 O 0.14597 0.60278 0.90471 0.0
O61 O 0.16728 0.48089 0.9134 0.0
C62 C 0.12607 0.45594 0.90717 0.0
O63 O 0.08371 0.46074 0.92056 0.0
O64 O 0.08154 0.54472 0.95558 0.0
Mg65 Mg 0.65497 0.64252 0.18736 0.0
C66 C 0.60172 0.68115 0.14494 0.0
O67 O 0.62179 0.72326 0.15509 0.0
C68 C 0.62076 0.53558 0.20564 0.0
O69 O 0.58007 0.54498 0.19163 0.0
C70 C 0.58028 0.72031 0.20923 0.0
O71 O 0.54776 0.68225 0.20336 0.0
O72 O 0.62956 0.71331 0.20622 0.0
O73 O 0.60622 0.63723 0.15547 0.0
O74 O 0.72882 0.6502 0.16854 0.0
C75 C 0.74832 0.6069 0.16141 0.0
O76 O 0.73581 0.56416 0.1732 0.0
O77 O 0.65604 0.57051 0.20816 0.0
Mg78 Mg 0.5283 0.10731 0.43064 0.0
C79 C 0.57728 0.19634 0.40533 0.0
O80 O 0.61919 0.17492 0.4151 0.0
C81 C 0.43786 0.04703 0.45083 0.0
O82 O 0.47049 0.00887 0.44518 0.0
C83 C 0.61645 0.13135 0.46603 0.0
O84 O 0.58853 0.17437 0.46885 0.0
O85 O 0.59901 0.09536 0.45221 0.0
O86 O 0.53195 0.18141 0.41218 0.0
O87 O 0.52876 0.05914 0.39847 0.0
C88 C 0.48552 0.05995 0.38685 0.0
O89 O 0.44444 0.08315 0.39658 0.0
O90 O 0.45299 0.09421 0.44826 0.0
Mg91 Mg 0.07538 0.02645 0.67832 0.0
C92 C 0.12552 0.06314 0.63321 0.0
O93 O 0.09887 0.1055 0.63905 0.0
C94 C 0.04799 0.11378 0.71397 0.0
O95 O 0.00571 0.08495 0.71721 0.0
C96 C 0.14043 0.94052 0.69739 0.0
O97 O 0.17538 0.97273 0.68822 0.0
O98 O 0.09203 0.95376 0.69707 0.0
O99 O 0.12971 0.02667 0.64856 0.0
O100 O 0.00402 0.02665 0.65668 0.0
C101 C 0.98513 0.07082 0.65049 0.0
O102 O 0.99794 0.11251 0.66318 0.0
O103 O 0.08363 0.09766 0.69963 0.0
Co104 Co 0.49833 0.74002 0.01248 0.0
O105 O 0.45718 0.67951 0.00436 0.0
O106 O 0.4306 0.76143 -0.00061 0.0
C107 C 0.52316 0.71255 0.04909 0.0
O108 O 0.53062 0.8118 0.02022 0.0
Co109 Co 0.61837 0.72618 0.01878 0.0
O110 O 0.61358 0.79726 0.03297 0.0
C111 C 0.5751 0.73106 0.96989 0.0
C112 C 0.42045 0.71146 0.99754 0.0
C113 C 0.57431 0.82764 0.02975 0.0
O114 O 0.52956 0.74018 0.97913 0.0
O115 O 0.61595 0.72121 0.98265 0.0
O116 O 0.4776 0.73461 0.04588 0.0
O117 O 0.54977 0.70218 0.02972 0.0
Co118 Co 0.39486 0.99125 0.24352 0.0
O119 O 0.33593 0.03476 0.25247 0.0
O120 O 0.33954 0.94864 0.25712 0.0
C121 C 0.40697 0.02737 0.207 0.0
O122 O 0.44763 0.93284 0.23582 0.0
Co123 Co 0.50485 0.03832 0.23502 0.0
O124 O 0.52536 0.96685 0.22457 0.0
C125 C 0.46732 0.02553 0.28465 0.0
C126 C 0.31317 0.99211 0.25971 0.0
C127 C 0.49531 0.92769 0.22814 0.0
O128 O 0.42645 0.0016 0.27646 0.0
O129 O 0.50214 0.04624 0.27102 0.0
O130 O 0.37184 0.99098 0.21011 0.0
O131 O 0.4308 0.04355 0.22627 0.0
Co132 Co 0.15066 0.91162 0.49777 0.0
O133 O 0.10595 0.86056 0.51319 0.0
O134 O 0.19318 0.85763 0.51221 0.0
C135 C 0.10302 0.91583 0.46355 0.0
O136 O 0.21082 0.95397 0.48346 0.0
Co137 Co 0.1129 0.02175 0.48229 0.0
O138 O 0.18448 0.03141 0.46873 0.0
C139 C 0.13432 1.00026 0.53364 0.0
C140 C 0.14917 0.83614 0.51888 0.0
C141 C 0.22033 0.99761 0.47282 0.0
O142 O 0.15325 0.95485 0.5282 0.0
O143 O 0.11271 0.03059 0.51819 0.0
O144 O 0.13755 0.87868 0.46647 0.0
O145 O 0.0967 0.94737 0.48156 0.0
Co146 Co 0.23735 0.67065 0.75611 0.0
O147 O 0.17646 0.70878 0.74502 0.0
O148 O 0.2593 0.72944 0.73686 0.0
C149 C 0.21128 0.66412 0.79461 0.0
O150 O 0.31012 0.64345 0.76534 0.0
Co151 Co 0.22868 0.55803 0.77604 0.0
O152 O 0.30214 0.56976 0.787 0.0
C153 C 0.22576 0.57442 0.72353 0.0
C154 C 0.20947 0.74091 0.73506 0.0
C155 C 0.32988 0.60696 0.77852 0.0
O156 O 0.23516 0.62356 0.72681 0.0
O157 O 0.21824 0.54242 0.74089 0.0
O158 O 0.23371 0.70661 0.78696 0.0
O159 O 0.201 0.62887 0.77843 0.0
Co160 Co 0.93039 0.19612 0.51203 0.0
O161 O 0.99245 0.23554 0.52048 0.0
O162 O 0.91055 0.26046 0.52822 0.0
C163 C 0.95465 0.17857 0.47388 0.0
O164 O 0.85669 0.16761 0.50499 0.0
Co165 Co 0.93752 0.07875 0.49907 0.0
O166 O 0.8635 0.0875 0.4883 0.0
C167 C 0.94427 0.11053 0.54996 0.0
C168 C 0.96075 0.27077 0.52918 0.0
C169 C 0.8362 0.12731 0.49447 0.0
O170 O 0.93361 0.15792 0.54374 0.0
O171 O 0.95128 0.07348 0.53465 0.0
O172 O 0.93304 0.22312 0.47948 0.0
O173 O 0.96538 0.14784 0.49175 0.0
Co174 Co 0.99107 0.42071 0.76993 0.0
O175 O 0.95414 0.48244 0.78055 0.0
O176 O 0.92794 0.40099 0.78717 0.0
C177 C 0.0041 0.44812 0.73206 0.0
O178 O 0.01734 0.34774 0.76049 0.0
Co179 Co 0.10745 0.42769 0.75468 0.0
O180 O 0.09549 0.35597 0.74191 0.0
C181 C 0.08187 0.42807 0.80621 0.0
C182 C 0.91884 0.45108 0.78924 0.0
C183 C 0.05604 0.32847 0.74829 0.0
O184 O 0.03335 0.41957 0.80068 0.0
O185 O 0.11758 0.43637 0.79041 0.0
O186 O 0.95974 0.42697 0.73832 0.0
O187 O 0.03752 0.45674 0.74931 0.0
Co188 Co 0.75254 0.4879 0.02074 0.0
O189 O 0.69281 0.45354 0.03473 0.0
O190 O 0.77386 0.42126 0.03428 0.0
C191 C 0.71263 0.5088 0.98603 0.0
O192 O 0.82297 0.51198 0.00652 0.0
Co193 Co 0.74577 0.60714 0.00967 0.0
O194 O 0.8087 0.59122 0.98995 0.0
C195 C 0.7621 0.57284 0.05962 0.0
C196 C 0.7243 0.41505 0.0397 0.0
C197 C 0.83718 0.55063 0.99308 0.0
O198 O 0.76735 0.52522 0.05217 0.0
O199 O 0.74967 0.61079 0.04571 0.0
O200 O 0.7318 0.46214 0.98913 0.0
O201 O 0.71331 0.53922 0.00474 0.0
Co202 Co 0.65409 0.25648 0.27054 0.0
O203 O 0.60558 0.30841 0.25869 0.0
O204 O 0.69184 0.30954 0.25267 0.0
C205 C 0.62197 0.25465 0.30829 0.0
O206 O 0.71649 0.21077 0.28051 0.0
Co207 Co 0.61344 0.14877 0.28846 0.0
O208 O 0.68746 0.13766 0.29866 0.0
C209 C 0.62362 0.16747 0.23627 0.0
C210 C 0.64621 0.33202 0.24967 0.0
C211 C 0.72479 0.16735 0.2917 0.0
O212 O 0.64408 0.21278 0.24053 0.0
O213 O 0.60549 0.13777 0.25284 0.0
O214 O 0.65546 0.29053 0.30203 0.0
O215 O 0.60567 0.22409 0.29121 0.0
C216 C 0.18613 0.94883 0.28935 0.0
C217 C 0.16118 0.99713 0.29402 0.0
H218 H 0.25373 0.90932 0.27492 0.0
C219 C 0.18594 0.04357 0.28661 0.0
H220 H 0.16816 0.91228 0.29483 0.0
C221 C 0.23495 0.04178 0.27514 0.0
C222 C 0.26034 0.99356 0.27092 0.0
H223 H 0.16779 0.08139 0.2899 0.0
H224 H 0.25324 0.07833 0.26988 0.0
C225 C 0.23524 0.94708 0.27798 0.0
C226 C 0.10004 0.71345 0.55 0.0
C227 C 0.14754 0.6873 0.55514 0.0
H228 H 0.06326 0.78114 0.53456 0.0
C229 C 0.19541 0.71096 0.54857 0.0
H230 H 0.0625 0.69633 0.55486 0.0
C231 C 0.19584 0.75948 0.53702 0.0
C232 C 0.14842 0.7855 0.53176 0.0
H233 H 0.23275 0.692 0.55229 0.0
H234 H 0.23344 0.77644 0.53211 0.0
C235 C 0.10049 0.76207 0.53841 0.0
C236 C 0.47132 0.65401 0.78421 0.0
C237 C 0.49396 0.61446 0.79844 0.0
H238 H 0.40191 0.68277 0.76674 0.0
C239 C 0.46303 0.57106 0.80487 0.0
H240 H 0.49408 0.68795 0.77892 0.0
C241 C 0.41015 0.56816 0.79798 0.0
C242 C 0.38691 0.60853 0.78442 0.0
H243 H 0.47924 0.53984 0.81578 0.0
H244 H 0.38729 0.5346 0.80368 0.0
C245 C 0.41838 0.65107 0.77726 0.0
C246 C 0.63505 0.95117 0.05581 0.0
C247 C 0.59219 0.98591 0.05627 0.0
H248 H 0.66318 0.87477 0.04702 0.0
C249 C 0.54354 0.96927 0.04667 0.0
H250 H 0.67311 0.96271 0.06293 0.0
C251 C 0.53759 0.91826 0.03751 0.0
C252 C 0.58022 0.88299 0.03776 0.0
H253 H 0.50966 0.99516 0.04679 0.0
H254 H 0.4994 0.90618 0.03075 0.0
C255 C 0.6292 0.9005 0.04667 0.0
C256 C 0.28099 0.70351 0.97282 0.0
C257 C 0.27393 0.64888 0.97077 0.0
H258 H 0.333 0.76642 0.98278 0.0
C259 C 0.31508 0.61553 0.97787 0.0
H260 H 0.25008 0.73034 0.96743 0.0
C261 C 0.36234 0.63619 0.98657 0.0
C262 C 0.36975 0.69074 0.98838 0.0
H263 H 0.31105 0.57333 0.9765 0.0
H264 H 0.39327 0.60917 0.99176 0.0
C265 C 0.32851 0.72426 0.98153 0.0
C266 C 0.59219 0.81693 0.216 0.0
C267 C 0.55917 0.77274 0.2158 0.0
H268 H 0.59804 0.90019 0.21974 0.0
C269 C 0.50499 0.77975 0.2202 0.0
H270 H 0.63403 0.81303 0.21254 0.0
C271 C 0.48421 0.82987 0.22437 0.0
C272 C 0.51705 0.87424 0.22401 0.0
H273 H 0.47841 0.74653 0.22014 0.0
H274 H 0.44227 0.83385 0.22754 0.0
C275 C 0.57138 0.86704 0.21994 0.0
C276 C 0.34355 0.07422 0.45663 0.0
C277 C 0.38249 0.03496 0.45718 0.0
H278 H 0.26177 0.09316 0.46068 0.0
C279 C 0.36749 0.98326 0.46248 0.0
H280 H 0.35373 0.11437 0.45239 0.0
C281 C 0.31482 0.97108 0.46725 0.0
C282 C 0.27575 0.01022 0.46657 0.0
H283 H 0.39647 0.95206 0.46294 0.0
H284 H 0.30477 0.93087 0.47142 0.0
C285 C 0.29073 0.06193 0.46115 0.0
C286 C 0.12076 0.85269 0.7156 0.0
C287 C 0.15752 0.88891 0.70671 0.0
H288 H 0.10832 0.77715 0.73128 0.0
C289 C 0.2112 0.87503 0.70629 0.0
H290 H 0.07911 0.86203 0.71603 0.0
C291 C 0.2279 0.82638 0.71489 0.0
C292 C 0.1913 0.79047 0.7241 0.0
H293 H 0.24058 0.90187 0.69944 0.0
H294 H 0.26962 0.81728 0.71463 0.0
C295 C 0.1375 0.80394 0.7242 0.0
C296 C 0.81103 0.54624 0.80727 0.0
C297 C 0.77159 0.51229 0.8156 0.0
H298 H 0.88868 0.55351 0.79273 0.0
C299 C 0.78165 0.458 0.8159 0.0
H300 H 0.80469 0.58825 0.80695 0.0
C301 C 0.82986 0.43804 0.8078 0.0
C302 C 0.86909 0.47196 0.7993 0.0
H303 H 0.75218 0.43073 0.8223 0.0
H304 H 0.83615 0.39602 0.80798 0.0
C305 C 0.85929 0.52629 0.79925 0.0
C306 C 0.62731 0.31099 0.05913 0.0
C307 C 0.66049 0.26812 0.06376 0.0
H308 H 0.62157 0.39107 0.04834 0.0
C309 C 0.71533 0.27443 0.06117 0.0
H310 H 0.58497 0.30761 0.06111 0.0
C311 C 0.73644 0.32245 0.05384 0.0
C312 C 0.70315 0.36516 0.04909 0.0
H313 H 0.74202 0.24218 0.06469 0.0
H314 H 0.77873 0.32593 0.05167 0.0
C315 C 0.6484 0.35898 0.05196 0.0
C316 C 0.87467 0.1633 0.2928 0.0
C317 C 0.88442 0.11388 0.30306 0.0
H318 H 0.81689 0.2192 0.28129 0.0
C319 C 0.84133 0.08219 0.30928 0.0
H320 H 0.90698 0.1888 0.28787 0.0
C321 C 0.78975 0.09978 0.30573 0.0
C322 C 0.77984 0.14948 0.29575 0.0
H323 H 0.84733 0.04402 0.31733 0.0
H324 H 0.75764 0.07424 0.31089 0.0
C325 C 0.82297 0.18087 0.28915 0.0
C326 C 0.96619 0.41026 0.55288 0.0
C327 C 0.02081 0.41835 0.5553 0.0
H328 H 0.90432 0.35713 0.54305 0.0
C329 C 0.05539 0.37731 0.54922 0.0
H330 H 0.93841 0.44094 0.55754 0.0
C331 C 0.03577 0.32929 0.54091 0.0
C332 C 0.98115 0.32113 0.53866 0.0
H333 H 0.09764 0.38216 0.55096 0.0
H334 H 0.06348 0.2985 0.53631 0.0
C335 C 0.94657 0.36211 0.54473 0.0
C336 C 0.69366 0.17137 0.48771 0.0
C337 C 0.67103 0.12836 0.47558 0.0
H338 H 0.76336 0.20498 0.50317 0.0
C339 C 0.70242 0.08402 0.47097 0.0
H340 H 0.67062 0.20619 0.49155 0.0
C341 C 0.7556 0.08337 0.47758 0.0
C342 C 0.77883 0.12706 0.48896 0.0
H343 H 0.68631 0.05016 0.46171 0.0
H344 H 0.7787 0.04883 0.47329 0.0
C345 C 0.74696 0.17074 0.49432 0.0
C346 C 0.0958 0.1986 0.72009 0.0
C347 C 0.05147 0.16715 0.72455 0.0
H348 H 0.13207 0.27361 0.72405 0.0
C349 C 0.00946 0.18839 0.73794 0.0
H350 H 0.12893 0.18353 0.70989 0.0
C351 C 0.01116 0.24044 0.74609 0.0
C352 C 0.05493 0.27234 0.74102 0.0
H353 H 0.9747 0.16521 0.7417 0.0
H354 H 0.97774 0.25589 0.75596 0.0
C355 C 0.09751 0.25046 0.72821 0.0
C356 C 0.98147 0.52556 0.97864 0.0
C357 C 0.98773 0.55566 0.95764 0.0
H358 H 0.92839 0.49939 0.00625 0.0
C359 C 0.94375 0.58161 0.94803 0.0
H360 H 0.01464 0.50475 0.98635 0.0
C361 C 0.89496 0.57882 0.95942 0.0
C362 C 0.88863 0.54951 0.98059 0.0
H363 H 0.94705 0.60489 0.93183 0.0
H364 H 0.86207 0.59995 0.95162 0.0
C365 C 0.93213 0.52215 0.98993 0.0
C366 C 0.58418 0.44957 0.21931 0.0
C367 C 0.62737 0.48355 0.21697 0.0
H368 H 0.55633 0.37512 0.23158 0.0
C369 C 0.67728 0.46671 0.2249 0.0
H370 H 0.54529 0.46134 0.21332 0.0
C371 C 0.68383 0.41686 0.23492 0.0
C372 C 0.64042 0.38328 0.23762 0.0
H373 H 0.71145 0.49183 0.22313 0.0
H374 H 0.72265 0.40503 0.24098 0.0
C375 C 0.59055 0.40016 0.22973 0.0
C376 C 0.06231 0.91165 0.39793 0.0
C377 C 0.01751 0.94428 0.39821 0.0
H378 H 0.12465 0.87664 0.41857 0.0
C379 C 0.99859 0.96292 0.42043 0.0
H380 H 0.07787 0.89674 0.38108 0.0
C381 C 0.02601 0.95255 0.44164 0.0
C382 C 0.07229 0.92235 0.44121 0.0
H383 H 0.96434 0.98827 0.42137 0.0
H384 H 0.01157 0.96936 0.45834 0.0
C385 C 0.08927 0.9004 0.41933 0.0
C386 C 0.22754 0.56804 0.65524 0.0
C387 C 0.20995 0.51657 0.65083 0.0
H388 H 0.24581 0.62686 0.68153 0.0
C389 C 0.20235 0.48296 0.67051 0.0
H390 H 0.23385 0.59503 0.64052 0.0
C391 C 0.20878 0.50135 0.69407 0.0
C392 C 0.22314 0.5538 0.69852 0.0
H393 H 0.18874 0.4431 0.66782 0.0
H394 H 0.20066 0.47482 0.70877 0.0
C395 C 0.23392 0.58648 0.67881 0.0
C396 C 0.63248 0.71999 0.90692 0.0
C397 C 0.5866 0.71368 0.89296 0.0
H398 H 0.66498 0.72975 0.94231 0.0
C399 C 0.53731 0.72046 0.90407 0.0
H400 H 0.67113 0.71543 0.89892 0.0
C401 C 0.53378 0.72861 0.92889 0.0
C402 C 0.5795 0.72994 0.94324 0.0
H403 H 0.50118 0.71632 0.89381 0.0
H404 H 0.49498 0.73107 0.93695 0.0
C405 C 0.62895 0.72769 0.93186 0.0
C406 C 0.40828 0.04666 0.13947 0.0
C407 C 0.44101 0.09074 0.13712 0.0
H408 H 0.37185 0.99208 0.16342 0.0
C409 C 0.45986 0.11571 0.15809 0.0
H410 H 0.39342 0.02642 0.12367 0.0
C411 C 0.44855 0.09531 0.18082 0.0
C412 C 0.41743 0.05011 0.18307 0.0
H413 H 0.4858 0.14933 0.15696 0.0
H414 H 0.46504 0.1144 0.19658 0.0
C415 C 0.39631 0.02675 0.16222 0.0
C416 C 0.22729 0.67067 0.86207 0.0
C417 C 0.18932 0.63452 0.86973 0.0
H418 H 0.26322 0.70914 0.83212 0.0
C419 C 0.15686 0.60971 0.85263 0.0
H420 H 0.25311 0.6897 0.87498 0.0
C421 C 0.16379 0.61945 0.82809 0.0
C422 C 0.20225 0.65517 0.82042 0.0
H423 H 0.12804 0.58081 0.85813 0.0
H424 H 0.13947 0.5987 0.81513 0.0
C425 C 0.23314 0.68156 0.83762 0.0
C426 C 0.5438 0.72663 0.11593 0.0
C427 C 0.57865 0.68541 0.12081 0.0
H428 H 0.49849 0.76686 0.08933 0.0
C429 C 0.59563 0.65261 0.10195 0.0
H430 H 0.53087 0.75276 0.1302 0.0
C431 C 0.57852 0.66175 0.07833 0.0
C432 C 0.5432 0.70285 0.07354 0.0
H433 H 0.62353 0.62128 0.10535 0.0
H434 H 0.5925 0.63659 0.06392 0.0
C435 C 0.52556 0.73476 0.09258 0.0
C436 C 0.52737 0.0497 0.34636 0.0
C437 C 0.48312 0.04422 0.36131 0.0
H438 H 0.55696 0.04898 0.31023 0.0
C439 C 0.43459 0.02994 0.35108 0.0
H440 H 0.56508 0.06151 0.35378 0.0
C441 C 0.42996 0.02239 0.32627 0.0
C442 C 0.47358 0.03002 0.31109 0.0
H443 H 0.39984 0.02575 0.36223 0.0
H444 H 0.39167 0.01232 0.31892 0.0
C445 C 0.52254 0.0431 0.32142 0.0
C446 C 0.11493 0.08352 0.58959 0.0
C447 C 0.13585 0.0511 0.60761 0.0
H448 H 0.09745 0.09275 0.55227 0.0
C449 C 0.15972 0.00342 0.60092 0.0
H450 H 0.09584 0.12028 0.59411 0.0
C451 C 0.16036 0.98733 0.57684 0.0
C452 C 0.13712 0.0186 0.55895 0.0
H453 H 0.17611 0.9775 0.61441 0.0
H454 H 0.17782 0.94974 0.57238 0.0
C455 C 0.11546 0.06742 0.56555 0.0
C456 C 0.67348 0.50774 0.92048 0.0
C457 C 0.68069 0.56055 0.91449 0.0
H458 H 0.67912 0.44968 0.94814 0.0
C459 C 0.69475 0.59674 0.93251 0.0
H460 H 0.66268 0.47922 0.90682 0.0
C461 C 0.70207 0.5804 0.95616 0.0
C462 C 0.69778 0.52718 0.96194 0.0
H463 H 0.70058 0.63769 0.92827 0.0
H464 H 0.71319 0.60915 0.96963 0.0
C465 C 0.68289 0.49098 0.94402 0.0
C466 C 0.5948 0.08225 0.18164 0.0
C467 C 0.61557 0.11258 0.16286 0.0
H468 H 0.58098 0.07571 0.21943 0.0
C469 C 0.64163 0.15971 0.16856 0.0
H470 H 0.57431 0.04585 0.17789 0.0
C471 C 0.64461 0.17734 0.19237 0.0
C472 C 0.62194 0.14807 0.21107 0.0
H473 H 0.65798 0.18415 0.15453 0.0
H474 H 0.66394 0.21439 0.19602 0.0
C475 C 0.5981 0.09972 0.20546 0.0
C476 C 0.01112 0.11125 0.41866 0.0
C477 C 0.98469 0.13778 0.40006 0.0
H478 H 0.02123 0.10242 0.45682 0.0
C479 C 0.94959 0.17839 0.40593 0.0
H480 H 0.03776 0.07916 0.41464 0.0
C481 C 0.94064 0.192 0.42995 0.0
C482 C 0.96568 0.16447 0.4486 0.0
H483 H 0.92843 0.19914 0.39194 0.0
H484 H 0.91304 0.22331 0.43391 0.0
C485 C 0.00123 0.12411 0.44278 0.0
C486 C 0.06005 0.51316 0.67655 0.0
C487 C 0.03101 0.48814 0.65823 0.0
H488 H 0.07551 0.51882 0.7145 0.0
C489 C 0.99333 0.45039 0.66439 0.0
H490 H 0.09017 0.54167 0.67217 0.0
C491 C 0.98459 0.43787 0.68845 0.0
C492 C 0.01432 0.4619 0.70678 0.0
H493 H 0.97095 0.43017 0.65055 0.0
H494 H 0.95517 0.40855 0.69266 0.0
C495 C 0.0522 0.49965 0.70068 0.0
C496 C 0.54817 0.20715 0.36289 0.0
C497 C 0.58304 0.22092 0.38156 0.0
H498 H 0.53404 0.20607 0.32486 0.0
C499 C 0.62846 0.24994 0.37616 0.0
H500 H 0.51336 0.18386 0.36647 0.0
C501 C 0.63987 0.26329 0.35235 0.0
C502 C 0.60678 0.24644 0.33356 0.0
H503 H 0.65618 0.26043 0.39024 0.0
H504 H 0.67596 0.28434 0.34854 0.0
C505 C 0.56031 0.21924 0.33905 0.0
C506 C 0.94871 0.12771 0.61789 0.0
C507 C 0.96559 0.07799 0.62555 0.0
H508 H 0.92895 0.17707 0.58821 0.0
C509 C 0.97152 0.03787 0.60828 0.0
H510 H 0.94383 0.15953 0.63068 0.0
C511 C 0.96348 0.04804 0.58381 0.0
C512 C 0.9491 0.09852 0.57604 0.0
H513 H 0.98495 0.99921 0.61348 0.0
H514 H 0.97015 0.01666 0.57096 0.0
C515 C 0.94055 0.13786 0.59345 0.0
C516 C 0.15745 0.45275 0.86429 0.0
C517 C 0.11976 0.43905 0.88174 0.0
H518 H 0.17499 0.46057 0.82676 0.0
C519 C 0.07181 0.41701 0.87408 0.0
H520 H 0.1947 0.47015 0.86953 0.0
C521 C 0.06028 0.41207 0.84959 0.0
C522 C 0.09655 0.42879 0.8321 0.0
H523 H 0.04196 0.40587 0.88702 0.0
H524 H 0.02218 0.39651 0.8444 0.0
C525 C 0.14596 0.44766 0.83973 0.0
C526 C 0.77863 0.55206 0.1267 0.0
C527 C 0.7648 0.60161 0.13595 0.0
H528 H 0.78856 0.50396 0.09541 0.0
C529 C 0.75718 0.64328 0.11982 0.0
H530 H 0.78508 0.51918 0.13863 0.0
C531 C 0.75876 0.63448 0.09498 0.0
C532 C 0.76822 0.58387 0.08573 0.0
H533 H 0.74646 0.68199 0.12628 0.0
H534 H 0.74998 0.6669 0.0831 0.0
C535 C 0.78027 0.54325 0.10187 0.0
loop_
_geom_bond_atom_site_label_1
_geom_bond_atom_site_label_2
_geom_bond_distance
_geom_bond_site_symmetry_2
_ccdc_geom_bond_type
Mg0 O7 2.141 . S
Mg0 O8 2.048 1_545 S
Mg0 O9 2.048 1_455 S
Mg0 O12 2.141 1_455 S
C1 O2 1.313 . S
C1 O8 1.195 . S
O2 C1 1.313 . S
C3 O4 1.245 . S
C3 O12 1.289 . S
O4 C3 1.245 . S
C5 O6 1.245 . S
C5 O7 1.289 1_565 S
O6 C5 1.245 . S
O7 Mg0 2.141 . S
O7 C5 1.289 1_545 S
O8 Mg0 2.048 1_565 S
O8 C1 1.195 . S
O9 Mg0 2.048 1_655 S
O9 C10 1.195 . S
C10 O9 1.195 . S
C10 O11 1.313 1_545 S
O11 C10 1.313 1_565 S
O12 Mg0 2.141 1_655 S
O12 C3 1.289 . S
Mg13 O20 2.141 . S
Mg13 O21 2.048 . S
Mg13 O22 2.048 . S
Mg13 O25 2.141 . S
C14 O15 1.313 . S
C14 O21 1.195 . S
O15 C14 1.313 . S
C16 O17 1.245 . S
C16 O25 1.289 . S
O17 C16 1.245 . S
C18 O19 1.245 . S
C18 O20 1.289 . S
O19 C18 1.245 . S
O20 Mg13 2.141 . S
O20 C18 1.289 . S
O21 Mg13 2.048 . S
O21 C14 1.195 . S
O22 Mg13 2.048 . S
O22 C23 1.195 . S
C23 O22 1.195 . S
C23 O24 1.313 . S
O24 C23 1.313 . S
O25 Mg13 2.141 . S
O25 C16 1.289 . S
Mg26 O33 2.141 . S
Mg26 O34 2.048 . S
Mg26 O35 2.048 . S
Mg26 O38 2.141 . S
C27 O28 1.313 . S
C27 O34 1.195 . S
O28 C27 1.313 . S
C29 O30 1.245 . S
C29 O38 1.289 . S
O30 C29 1.245 . S
C31 O32 1.245 . S
C31 O33 1.289 . S
O32 C31 1.245 . S
O33 Mg26 2.141 . S
O33 C31 1.289 . S
O34 Mg26 2.048 . S
O34 C27 1.195 . S
O35 Mg26 2.048 . S
O35 C36 1.195 . S
C36 O35 1.195 . S
C36 O37 1.313 . S
O37 C36 1.313 . S
O38 Mg26 2.141 . S
O38 C29 1.289 . S
Mg39 O46 2.141 . S
Mg39 O47 2.048 . S
Mg39 O48 2.048 . S
Mg39 O51 2.141 . S
C40 O41 1.313 . S
C40 O47 1.195 . S
O41 C40 1.313 . S
C42 O43 1.245 . S
C42 O51 1.289 . S
O43 C42 1.245 . S
C44 O45 1.245 . S
C44 O46 1.289 . S
O45 C44 1.245 . S
O46 Mg39 2.141 . S
O46 C44 1.289 . S
O47 Mg39 2.048 . S
O47 C40 1.195 . S
O48 Mg39 2.048 . S
O48 C49 1.195 . S
C49 O48 1.195 . S
C49 O50 1.313 . S
O50 C49 1.313 . S
O51 Mg39 2.141 . S
O51 C42 1.289 . S
Mg52 O59 2.141 . S
Mg52 O60 2.048 . S
Mg52 O61 2.048 . S
Mg52 O64 2.141 . S
C53 O54 1.313 . S
C53 O60 1.195 . S
O54 C53 1.313 . S
C55 O56 1.245 . S
C55 O64 1.289 . S
O56 C55 1.245 . S
C57 O58 1.245 . S
C57 O59 1.289 . S
O58 C57 1.245 . S
O59 Mg52 2.141 . S
O59 C57 1.289 . S
O60 Mg52 2.048 . S
O60 C53 1.195 . S
O61 Mg52 2.048 . S
O61 C62 1.195 . S
C62 O61 1.195 . S
C62 O63 1.313 . S
O63 C62 1.313 . S
O64 Mg52 2.141 . S
O64 C55 1.289 . S
Mg65 O72 2.141 . S
Mg65 O73 2.048 . S
Mg65 O74 2.048 . S
Mg65 O77 2.141 . S
C66 O67 1.313 . S
C66 O73 1.195 . S
O67 C66 1.313 . S
C68 O69 1.245 . S
C68 O77 1.289 . S
O69 C68 1.245 . S
C70 O71 1.245 . S
C70 O72 1.289 . S
O71 C70 1.245 . S
O72 Mg65 2.141 . S
O72 C70 1.289 . S
O73 Mg65 2.048 . S
O73 C66 1.195 . S
O74 Mg65 2.048 . S
O74 C75 1.195 . S
C75 O74 1.195 . S
C75 O76 1.313 . S
O76 C75 1.313 . S
O77 Mg65 2.141 . S
O77 C68 1.289 . S
Mg78 O85 2.141 . S
Mg78 O86 2.048 . S
Mg78 O87 2.048 . S
Mg78 O90 2.141 . S
C79 O80 1.313 . S
C79 O86 1.195 . S
O80 C79 1.313 . S
C81 O82 1.245 . S
C81 O90 1.289 . S
O82 C81 1.245 . S
C83 O84 1.245 . S
C83 O85 1.289 . S
O84 C83 1.245 . S
O85 Mg78 2.141 . S
O85 C83 1.289 . S
O86 Mg78 2.048 . S
O86 C79 1.195 . S
O87 Mg78 2.048 . S
O87 C88 1.195 . S
C88 O87 1.195 . S
C88 O89 1.313 . S
O89 C88 1.313 . S
O90 Mg78 2.141 . S
O90 C81 1.289 . S
Mg91 O98 2.141 1_655 S
Mg91 O99 2.048 1_655 S
Mg91 O100 2.048 1_565 S
Mg91 O103 2.141 1_565 S
C92 O93 1.313 . S
C92 O99 1.195 . S
O93 C92 1.313 . S
C94 O95 1.245 1_655 S
C94 O103 1.289 . S
O95 C94 1.245 1_455 S
C96 O97 1.245 . S
C96 O98 1.289 . S
O97 C96 1.245 . S
O98 Mg91 2.141 1_455 S
O98 C96 1.289 . S
O99 Mg91 2.048 1_455 S
O99 C92 1.195 . S
O100 Mg91 2.048 1_545 S
O100 C101 1.195 . S
C101 O100 1.195 . S
C101 O102 1.313 1_655 S
O102 C101 1.313 1_455 S
O103 Mg91 2.141 1_545 S
O103 C94 1.289 . S
Co104 O105 2.216 1_554 S
Co104 O106 2.091 1_554 S
Co104 O108 2.004 . S
Co104 O114 2.021 1_554 S
Co104 O116 2.137 . S
Co104 O117 2.244 . S
O105 Co104 2.216 1_556 S
O105 C112 1.247 . S
O106 Co104 2.091 1_556 S
O106 C112 1.261 . S
C107 O116 1.247 . S
C107 O117 1.272 . S
O108 Co104 2.004 . S
O108 C113 1.259 . S
Co109 O110 2.061 . S
Co109 O115 2.052 1_554 S
Co109 O117 2.135 . S
O110 Co109 2.061 . S
O110 C113 1.235 . S
C111 O114 1.238 . S
C111 O115 1.241 . S
C112 O105 1.247 . S
C112 O106 1.261 . S
C113 O108 1.259 . S
C113 O110 1.235 . S
O114 Co104 2.021 1_556 S
O114 C111 1.238 . S
O115 Co109 2.052 1_556 S
O115 C111 1.241 . S
O116 Co104 2.137 . S
O116 C107 1.247 . S
O117 Co104 2.244 . S
O117 C107 1.272 . S
O117 Co109 2.135 . S
Co118 O119 2.216 . S
Co118 O120 2.091 . S
Co118 O122 2.004 . S
Co118 O128 2.021 . S
Co118 O130 2.137 . S
Co118 O131 2.244 . S
O119 Co118 2.216 . S
O119 C126 1.247 . S
O120 Co118 2.091 . S
O120 C126 1.261 . S
C121 O130 1.247 . S
C121 O131 1.272 . S
O122 Co118 2.004 . S
O122 C127 1.259 . S
Co123 O124 2.061 . S
Co123 O129 2.052 . S
Co123 O131 2.135 . S
O124 Co123 2.061 . S
O124 C127 1.235 . S
C125 O128 1.238 . S
C125 O129 1.241 . S
C126 O119 1.247 . S
C126 O120 1.261 . S
C127 O122 1.259 . S
C127 O124 1.235 . S
O128 Co118 2.021 . S
O128 C125 1.238 . S
O129 Co123 2.052 . S
O129 C125 1.241 . S
O130 Co118 2.137 . S
O130 C121 1.247 . S
O131 Co118 2.244 . S
O131 C121 1.272 . S
O131 Co123 2.135 . S
Co132 O133 2.216 . S
Co132 O134 2.091 . S
Co132 O136 2.004 . S
Co132 O142 2.021 . S
Co132 O144 2.137 . S
Co132 O145 2.244 . S
O133 Co132 2.216 . S
O133 C140 1.247 . S
O134 Co132 2.091 . S
O134 C140 1.261 . S
C135 O144 1.247 . S
C135 O145 1.272 . S
O136 Co132 2.004 . S
O136 C141 1.259 . S
Co137 O138 2.061 . S
Co137 O143 2.052 . S
Co137 O145 2.135 . S
O138 Co137 2.061 . S
O138 C141 1.235 . S
C139 O142 1.238 . S
C139 O143 1.241 . S
C140 O133 1.247 . S
C140 O134 1.261 . S
C141 O136 1.259 . S
C141 O138 1.235 . S
O142 Co132 2.021 . S
O142 C139 1.238 . S
O143 Co137 2.052 . S
O143 C139 1.241 . S
O144 Co132 2.137 . S
O144 C135 1.247 . S
O145 Co132 2.244 . S
O145 C135 1.272 . S
O145 Co137 2.135 . S
Co146 O147 2.216 . S
Co146 O148 2.091 . S
Co146 O150 2.004 . S
Co146 O156 2.021 . S
Co146 O158 2.137 . S
Co146 O159 2.244 . S
O147 Co146 2.216 . S
O147 C154 1.247 . S
O148 Co146 2.091 . S
O148 C154 1.261 . S
C149 O158 1.247 . S
C149 O159 1.272 . S
O150 Co146 2.004 . S
O150 C155 1.259 . S
Co151 O152 2.061 . S
Co151 O157 2.052 . S
Co151 O159 2.135 . S
O152 Co151 2.061 . S
O152 C155 1.235 . S
C153 O156 1.238 . S
C153 O157 1.241 . S
C154 O147 1.247 . S
C154 O148 1.261 . S
C155 O150 1.259 . S
C155 O152 1.235 . S
O156 Co146 2.021 . S
O156 C153 1.238 . S
O157 Co151 2.052 . S
O157 C153 1.241 . S
O158 Co146 2.137 . S
O158 C149 1.247 . S
O159 Co146 2.244 . S
O159 C149 1.272 . S
O159 Co151 2.135 . S
Co160 O161 2.216 . S
Co160 O162 2.091 . S
Co160 O164 2.004 . S
Co160 O170 2.021 . S
Co160 O172 2.137 . S
Co160 O173 2.244 . S
O161 Co160 2.216 . S
O161 C168 1.247 . S
O162 Co160 2.091 . S
O162 C168 1.261 . S
C163 O172 1.247 . S
C163 O173 1.272 . S
O164 Co160 2.004 . S
O164 C169 1.259 . S
Co165 O166 2.061 . S
Co165 O171 2.052 . S
Co165 O173 2.135 . S
O166 Co165 2.061 . S
O166 C169 1.235 . S
C167 O170 1.238 . S
C167 O171 1.241 . S
C168 O161 1.247 . S
C168 O162 1.261 . S
C169 O164 1.259 . S
C169 O166 1.235 . S
O170 Co160 2.021 . S
O170 C167 1.238 . S
O171 Co165 2.052 . S
O171 C167 1.241 . S
O172 Co160 2.137 . S
O172 C163 1.247 . S
O173 Co160 2.244 . S
O173 C163 1.272 . S
O173 Co165 2.135 . S
Co174 O175 2.216 . S
Co174 O176 2.091 . S
Co174 O178 2.004 . S
Co174 O184 2.021 . S
Co174 O186 2.137 . S
Co174 O187 2.244 1_655 S
O175 Co174 2.216 . S
O175 C182 1.247 . S
O176 Co174 2.091 . S
O176 C182 1.261 . S
C177 O186 1.247 . S
C177 O187 1.272 1_655 S
O178 Co174 2.004 . S
O178 C183 1.259 . S
Co179 O180 2.061 . S
Co179 O185 2.052 . S
Co179 O187 2.135 . S
O180 Co179 2.061 . S
O180 C183 1.235 1_455 S
C181 O184 1.238 1_455 S
C181 O185 1.241 . S
C182 O175 1.247 . S
C182 O176 1.261 . S
C183 O178 1.259 . S
C183 O180 1.235 1_655 S
O184 Co174 2.021 . S
O184 C181 1.238 1_655 S
O185 Co179 2.052 . S
O185 C181 1.241 . S
O186 Co174 2.137 . S
O186 C177 1.247 . S
O187 Co174 2.244 1_455 S
O187 C177 1.272 1_455 S
O187 Co179 2.135 . S
Co188 O189 2.216 . S
Co188 O190 2.091 . S
Co188 O192 2.004 . S
Co188 O198 2.021 . S
Co188 O200 2.137 1_554 S
Co188 O201 2.244 1_554 S
O189 Co188 2.216 . S
O189 C196 1.247 . S
O190 Co188 2.091 . S
O190 C196 1.261 . S
C191 O200 1.247 . S
C191 O201 1.272 . S
O192 Co188 2.004 . S
O192 C197 1.259 . S
Co193 O194 2.061 . S
Co193 O199 2.052 . S
Co193 O201 2.135 1_554 S
O194 Co193 2.061 . S
O194 C197 1.235 . S
C195 O198 1.238 . S
C195 O199 1.241 . S
C196 O189 1.247 . S
C196 O190 1.261 . S
C197 O192 1.259 . S
C197 O194 1.235 . S
O198 Co188 2.021 . S
O198 C195 1.238 . S
O199 Co193 2.052 . S
O199 C195 1.241 . S
O200 Co188 2.137 1_556 S
O200 C191 1.247 . S
O201 Co188 2.244 1_556 S
O201 C191 1.272 . S
O201 Co193 2.135 1_556 S
Co202 O203 2.216 . S
Co202 O204 2.091 . S
Co202 O206 2.004 . S
Co202 O212 2.021 . S
Co202 O214 2.137 . S
Co202 O215 2.244 . S
O203 Co202 2.216 . S
O203 C210 1.247 . S
O204 Co202 2.091 . S
O204 C210 1.261 . S
C205 O214 1.247 . S
C205 O215 1.272 . S
O206 Co202 2.004 . S
O206 C211 1.259 . S
Co207 O208 2.061 . S
Co207 O213 2.052 . S
Co207 O215 2.135 . S
O208 Co207 2.061 . S
O208 C211 1.235 . S
C209 O212 1.238 . S
C209 O213 1.241 . S
C210 O203 1.247 . S
C210 O204 1.261 . S
C211 O206 1.259 . S
C211 O208 1.235 . S
O212 Co202 2.021 . S
O212 C209 1.238 . S
O213 Co207 2.052 . S
O213 C209 1.241 . S
O214 Co202 2.137 . S
O214 C205 1.247 . S
O215 Co202 2.244 . S
O215 C205 1.272 . S
O215 Co207 2.135 . S
C216 C217 1.387 . S
C216 H220 0.950 . S
C216 C225 1.390 . S
C217 C216 1.387 . S
C217 C219 1.387 . S
H218 C225 0.950 . S
C219 C217 1.387 . S
C219 C221 1.390 . S
C219 H223 0.950 1_565 S
H220 C216 0.950 . S
C221 C219 1.390 . S
C221 C222 1.387 . S
C221 H224 0.950 1_565 S
C222 C221 1.387 . S
C222 C225 1.387 . S
H223 C219 0.950 1_545 S
H224 C221 0.950 1_545 S
C225 C216 1.390 . S
C225 H218 0.950 . S
C225 C222 1.387 . S
C226 C227 1.387 . S
C226 H230 0.950 . S
C226 C235 1.390 . S
C227 C226 1.387 . S
C227 C229 1.387 . S
H228 C235 0.950 . S
C229 C227 1.387 . S
C229 C231 1.390 . S
C229 H233 0.950 . S
H230 C226 0.950 . S
C231 C229 1.390 . S
C231 C232 1.387 . S
C231 H234 0.950 . S
C232 C231 1.387 . S
C232 C235 1.387 . S
H233 C229 0.950 . S
H234 C231 0.950 . S
C235 C226 1.390 . S
C235 H228 0.950 . S
C235 C232 1.387 . S
C236 C237 1.387 . S
C236 H240 0.950 . S
C236 C245 1.390 . S
C237 C236 1.387 . S
C237 C239 1.387 . S
H238 C245 0.950 . S
C239 C237 1.387 . S
C239 C241 1.390 . S
C239 H243 0.950 . S
H240 C236 0.950 . S
C241 C239 1.390 . S
C241 C242 1.387 . S
C241 H244 0.950 . S
C242 C241 1.387 . S
C242 C245 1.387 . S
H243 C239 0.950 . S
H244 C241 0.950 . S
C245 C236 1.390 . S
C245 H238 0.950 . S
C245 C242 1.387 . S
C246 C247 1.387 . S
C246 H250 0.950 . S
C246 C255 1.390 1_545 S
C247 C246 1.387 . S
C247 C249 1.387 . S
H248 C255 0.950 . S
C249 C247 1.387 . S
C249 C251 1.390 1_545 S
C249 H253 0.950 . S
H250 C246 0.950 . S
C251 C249 1.390 1_565 S
C251 C252 1.387 . S
C251 H254 0.950 . S
C252 C251 1.387 . S
C252 C255 1.387 . S
H253 C249 0.950 . S
H254 C251 0.950 . S
C255 C246 1.390 1_565 S
C255 H248 0.950 . S
C255 C252 1.387 . S
C256 C257 1.387 . S
C256 H260 0.950 1_556 S
C256 C265 1.394 . S
C257 C256 1.387 . S
C257 C259 1.387 . S
H258 C265 0.938 1_554 S
C259 C257 1.387 . S
C259 C261 1.390 . S
C259 H263 0.950 . S
H260 C256 0.950 1_554 S
C261 C259 1.390 . S
C261 C262 1.387 . S
C261 H264 0.950 . S
C262 C261 1.387 . S
C262 C265 1.395 . S
H263 C259 0.950 . S
H264 C261 0.950 . S
C265 C256 1.394 . S
C265 H258 0.938 1_556 S
C265 C262 1.395 . S
C266 C267 1.387 . S
C266 H270 0.950 . S
C266 C275 1.390 . S
C267 C266 1.387 . S
C267 C269 1.387 . S
H268 C275 0.950 . S
C269 C267 1.387 . S
C269 C271 1.390 . S
C269 H273 0.950 . S
H270 C266 0.950 . S
C271 C269 1.390 . S
C271 C272 1.387 . S
C271 H274 0.950 . S
C272 C271 1.387 . S
C272 C275 1.387 . S
H273 C269 0.950 . S
H274 C271 0.950 . S
C275 C266 1.390 . S
C275 H268 0.950 . S
C275 C272 1.387 . S
C276 C277 1.387 . S
C276 H280 0.950 . S
C276 C285 1.390 1_545 S
C277 C276 1.387 . S
C277 C279 1.387 . S
H278 C285 0.950 . S
C279 C277 1.387 . S
C279 C281 1.388 1_545 S
C279 H283 0.950 . S
H280 C276 0.950 . S
C281 C279 1.388 1_565 S
C281 C282 1.390 . S
C281 H284 0.950 . S
C282 C281 1.390 . S
C282 C285 1.387 . S
H283 C279 0.950 . S
H284 C281 0.950 . S
C285 C276 1.390 1_565 S
C285 H278 0.950 . S
C285 C282 1.387 . S
C286 C287 1.387 . S
C286 H290 0.950 . S
C286 C295 1.390 . S
C287 C286 1.387 . S
C287 C289 1.387 . S
H288 C295 0.950 . S
C289 C287 1.387 . S
C289 C291 1.390 . S
C289 H293 0.950 . S
H290 C286 0.950 . S
C291 C289 1.390 . S
C291 C292 1.387 . S
C291 H294 0.950 . S
C292 C291 1.387 . S
C292 C295 1.387 . S
H293 C289 0.950 . S
H294 C291 0.950 . S
C295 C286 1.390 . S
C295 H288 0.950 . S
C295 C292 1.387 . S
C296 C297 1.387 . S
C296 H300 0.950 . S
C296 C305 1.390 . S
C297 C296 1.387 . S
C297 C299 1.387 . S
H298 C305 0.950 . S
C299 C297 1.387 . S
C299 C301 1.390 . S
C299 H303 0.950 . S
H300 C296 0.950 . S
C301 C299 1.390 . S
C301 C302 1.387 . S
C301 H304 0.950 . S
C302 C301 1.387 . S
C302 C305 1.387 . S
H303 C299 0.950 . S
H304 C301 0.950 . S
C305 C296 1.390 . S
C305 H298 0.950 . S
C305 C302 1.387 . S
C306 C307 1.387 . S
C306 H310 0.950 . S
C306 C315 1.390 . S
C307 C306 1.387 . S
C307 C309 1.387 . S
H308 C315 0.950 . S
C309 C307 1.387 . S
C309 C311 1.390 . S
C309 H313 0.950 . S
H310 C306 0.950 . S
C311 C309 1.390 . S
C311 C312 1.387 . S
C311 H314 0.950 . S
C312 C311 1.387 . S
C312 C315 1.387 . S
H313 C309 0.950 . S
H314 C311 0.950 . S
C315 C306 1.390 . S
C315 H308 0.950 . S
C315 C312 1.387 . S
C316 C317 1.387 . S
C316 H320 0.950 . S
C316 C325 1.390 . S
C317 C316 1.387 . S
C317 C319 1.387 . S
H318 C325 0.950 . S
C319 C317 1.387 . S
C319 C321 1.390 . S
C319 H323 0.950 . S
H320 C316 0.950 . S
C321 C319 1.390 . S
C321 C322 1.387 . S
C321 H324 0.950 . S
C322 C321 1.387 . S
C322 C325 1.387 . S
H323 C319 0.950 . S
H324 C321 0.950 . S
C325 C316 1.390 . S
C325 H318 0.950 . S
C325 C322 1.387 . S
C326 C327 1.387 . S
C326 H330 0.950 . S
C326 C335 1.390 1_455 S
C327 C326 1.387 . S
C327 C329 1.387 . S
H328 C335 0.950 . S
C329 C327 1.387 . S
C329 C331 1.390 1_455 S
C329 H333 0.950 . S
H330 C326 0.950 . S
C331 C329 1.390 1_655 S
C331 C332 1.387 . S
C331 H334 0.950 . S
C332 C331 1.387 . S
C332 C335 1.387 . S
H333 C329 0.950 . S
H334 C331 0.950 . S
C335 C326 1.390 1_655 S
C335 H328 0.950 . S
C335 C332 1.387 . S
C336 C337 1.387 . S
C336 H340 0.950 . S
C336 C345 1.390 . S
C337 C336 1.387 . S
C337 C339 1.387 . S
H338 C345 0.950 . S
C339 C337 1.387 . S
C339 C341 1.390 . S
C339 H343 0.950 . S
H340 C336 0.950 . S
C341 C339 1.390 . S
C341 C342 1.387 . S
C341 H344 0.950 . S
C342 C341 1.387 . S
C342 C345 1.387 . S
H343 C339 0.950 . S
H344 C341 0.950 . S
C345 C336 1.390 . S
C345 H338 0.950 . S
C345 C342 1.387 . S
C346 C347 1.387 . S
C346 H350 0.950 . S
C346 C355 1.390 . S
C347 C346 1.387 . S
C347 C349 1.387 1_655 S
H348 C355 0.950 . S
C349 C347 1.387 1_455 S
C349 C351 1.390 . S
C349 H353 0.950 . S
H350 C346 0.950 . S
C351 C349 1.390 . S
C351 C352 1.387 1_455 S
C351 H354 0.950 . S
C352 C351 1.387 1_655 S
C352 C355 1.387 . S
H353 C349 0.950 . S
H354 C351 0.950 . S
C355 C346 1.390 . S
C355 H348 0.950 . S
C355 C352 1.387 . S
C356 C357 1.361 1_554 S
C356 H360 0.963 . S
C356 C365 1.404 . S
C357 C356 1.361 1_556 S
C357 C359 1.387 . S
H358 C365 0.950 . S
C359 C357 1.387 . S
C359 C361 1.390 1_455 S
C359 H363 0.950 . S
H360 C356 0.963 . S
C361 C359 1.390 1_655 S
C361 C362 1.356 1_556 S
C361 H364 0.950 . S
C362 C361 1.356 1_554 S
C362 C365 1.404 1_655 S
H363 C359 0.950 . S
H364 C361 0.950 . S
C365 C356 1.404 . S
C365 H358 0.950 . S
C365 C362 1.404 1_455 S
C366 C367 1.387 . S
C366 H370 0.950 . S
C366 C375 1.390 . S
C367 C366 1.387 . S
C367 C369 1.387 . S
H368 C375 0.950 . S
C369 C367 1.387 . S
C369 C371 1.390 . S
C369 H373 0.950 . S
H370 C366 0.950 . S
C371 C369 1.390 . S
C371 C372 1.387 . S
C371 H374 0.950 . S
C372 C371 1.387 . S
C372 C375 1.387 . S
H373 C369 0.950 . S
H374 C371 0.950 . S
C375 C366 1.390 . S
C375 H368 0.950 . S
C375 C372 1.387 . S
C376 C377 1.387 . S
C376 H380 0.950 . S
C376 C385 1.390 . S
C377 C376 1.387 . S
C377 C379 1.387 . S
H378 C385 0.950 . S
C379 C377 1.387 . S
C379 C381 1.390 . S
C379 H383 0.950 . S
H380 C376 0.950 . S
C381 C379 1.390 . S
C381 C382 1.387 . S
C381 H384 0.950 . S
C382 C381 1.387 . S
C382 C385 1.387 . S
H383 C379 0.950 . S
H384 C381 0.950 . S
C385 C376 1.390 . S
C385 H378 0.950 . S
C385 C382 1.387 . S
C386 C387 1.387 . S
C386 H390 0.950 . S
C386 C395 1.390 . S
C387 C386 1.387 . S
C387 C389 1.387 . S
H388 C395 0.950 . S
C389 C387 1.387 . S
C389 C391 1.390 . S
C389 H393 0.950 . S
H390 C386 0.950 . S
C391 C389 1.390 . S
C391 C392 1.387 . S
C391 H394 0.950 . S
C392 C391 1.387 . S
C392 C395 1.387 . S
H393 C389 0.950 . S
H394 C391 0.950 . S
C395 C386 1.390 . S
C395 H388 0.950 . S
C395 C392 1.387 . S
C396 C397 1.387 . S
C396 H400 0.950 . S
C396 C405 1.390 . S
C397 C396 1.387 . S
C397 C399 1.387 . S
H398 C405 0.950 . S
C399 C397 1.387 . S
C399 C401 1.390 . S
C399 H403 0.950 . S
H400 C396 0.950 . S
C401 C399 1.390 . S
C401 C402 1.387 . S
C401 H404 0.950 . S
C402 C401 1.387 . S
C402 C405 1.387 . S
H403 C399 0.950 . S
H404 C401 0.950 . S
C405 C396 1.390 . S
C405 H398 0.950 . S
C405 C402 1.387 . S
C406 C407 1.387 . S
C406 H410 0.950 . S
C406 C415 1.390 1_545 S
C407 C406 1.387 . S
C407 C409 1.387 . S
H408 C415 0.950 . S
C409 C407 1.387 . S
C409 C411 1.390 . S
C409 H413 0.950 . S
H410 C406 0.950 . S
C411 C409 1.390 . S
C411 C412 1.387 . S
C411 H414 0.950 . S
C412 C411 1.387 . S
C412 C415 1.387 1_545 S
H413 C409 0.950 . S
H414 C411 0.950 . S
C415 C406 1.390 1_565 S
C415 H408 0.950 . S
C415 C412 1.387 1_565 S
C416 C417 1.387 . S
C416 H420 0.950 . S
C416 C425 1.390 . S
C417 C416 1.387 . S
C417 C419 1.387 . S
H418 C425 0.950 . S
C419 C417 1.387 . S
C419 C421 1.390 . S
C419 H423 0.950 . S
H420 C416 0.950 . S
C421 C419 1.390 . S
C421 C422 1.387 . S
C421 H424 0.950 . S
C422 C421 1.387 . S
C422 C425 1.387 . S
H423 C419 0.950 . S
H424 C421 0.950 . S
C425 C416 1.390 . S
C425 H418 0.950 . S
C425 C422 1.387 . S
C426 C427 1.387 . S
C426 H430 0.950 . S
C426 C435 1.390 . S
C427 C426 1.387 . S
C427 C429 1.387 . S
H428 C435 0.950 . S
C429 C427 1.387 . S
C429 C431 1.390 . S
C429 H433 0.950 . S
H430 C426 0.950 . S
C431 C429 1.390 . S
C431 C432 1.387 . S
C431 H434 0.950 . S
C432 C431 1.387 . S
C432 C435 1.387 . S
H433 C429 0.950 . S
H434 C431 0.950 . S
C435 C426 1.390 . S
C435 H428 0.950 . S
C435 C432 1.387 . S
C436 C437 1.387 . S
C436 H440 0.950 . S
C436 C445 1.390 . S
C437 C436 1.387 . S
C437 C439 1.387 . S
H438 C445 0.950 1_565 S
C439 C437 1.387 . S
C439 C441 1.390 . S
C439 H443 0.950 . S
H440 C436 0.950 . S
C441 C439 1.390 . S
C441 C442 1.395 . S
C441 H444 0.950 . S
C442 C441 1.395 . S
C442 C445 1.389 . S
H443 C439 0.950 . S
H444 C441 0.950 . S
C445 C436 1.390 . S
C445 H438 0.950 1_545 S
C445 C442 1.389 . S
C446 C447 1.387 . S
C446 H450 0.950 . S
C446 C455 1.390 . S
C447 C446 1.387 . S
C447 C449 1.387 . S
H448 C455 0.950 . S
C449 C447 1.387 . S
C449 C451 1.390 . S
C449 H453 0.950 . S
H450 C446 0.950 . S
C451 C449 1.390 . S
C451 C452 1.387 . S
C451 H454 0.950 . S
C452 C451 1.387 . S
C452 C455 1.387 . S
H453 C449 0.950 . S
H454 C451 0.950 . S
C455 C446 1.390 . S
C455 H448 0.950 . S
C455 C452 1.387 . S
C456 C457 1.387 . S
C456 H460 0.950 . S
C456 C465 1.390 . S
C457 C456 1.387 . S
C457 C459 1.387 . S
H458 C465 0.950 . S
C459 C457 1.387 . S
C459 C461 1.390 . S
C459 H463 0.950 . S
H460 C456 0.950 . S
C461 C459 1.390 . S
C461 C462 1.387 . S
C461 H464 0.950 . S
C462 C461 1.387 . S
C462 C465 1.387 . S
H463 C459 0.950 . S
H464 C461 0.950 . S
C465 C456 1.390 . S
C465 H458 0.950 . S
C465 C462 1.387 . S
C466 C467 1.387 . S
C466 H470 0.950 . S
C466 C475 1.390 . S
C467 C466 1.387 . S
C467 C469 1.387 . S
H468 C475 0.950 . S
C469 C467 1.387 . S
C469 C471 1.390 . S
C469 H473 0.950 . S
H470 C466 0.950 . S
C471 C469 1.390 . S
C471 C472 1.387 . S
C471 H474 0.950 . S
C472 C471 1.387 . S
C472 C475 1.387 . S
H473 C469 0.950 . S
H474 C471 0.950 . S
C475 C466 1.390 . S
C475 H468 0.950 . S
C475 C472 1.387 . S
C476 C477 1.387 . S
C476 H480 0.950 . S
C476 C485 1.390 . S
C477 C476 1.387 . S
C477 C479 1.387 . S
H478 C485 0.950 . S
C479 C477 1.387 . S
C479 C481 1.390 . S
C479 H483 0.950 . S
H480 C476 0.950 . S
C481 C479 1.390 . S
C481 C482 1.387 . S
C481 H484 0.950 . S
C482 C481 1.387 . S
C482 C485 1.387 . S
H483 C479 0.950 . S
H484 C481 0.950 . S
C485 C476 1.390 . S
C485 H478 0.950 . S
C485 C482 1.387 . S
C486 C487 1.387 . S
C486 H490 0.950 . S
C486 C495 1.390 . S
C487 C486 1.387 . S
C487 C489 1.387 . S
H488 C495 0.950 . S
C489 C487 1.387 . S
C489 C491 1.390 . S
C489 H493 0.950 . S
H490 C486 0.950 . S
C491 C489 1.390 . S
C491 C492 1.387 . S
C491 H494 0.950 1_455 S
C492 C491 1.387 . S
C492 C495 1.387 . S
H493 C489 0.950 . S
H494 C491 0.950 1_655 S
C495 C486 1.390 . S
C495 H488 0.950 . S
C495 C492 1.387 . S
C496 C497 1.387 . S
C496 H500 0.950 . S
C496 C505 1.390 . S
C497 C496 1.387 . S
C497 C499 1.387 . S
H498 C505 0.950 . S
C499 C497 1.387 . S
C499 C501 1.390 . S
C499 H503 0.950 . S
H500 C496 0.950 . S
C501 C499 1.390 . S
C501 C502 1.387 . S
C501 H504 0.950 . S
C502 C501 1.387 . S
C502 C505 1.387 . S
H503 C499 0.950 . S
H504 C501 0.950 . S
C505 C496 1.390 . S
C505 H498 0.950 . S
C505 C502 1.387 . S
C506 C507 1.387 . S
C506 H510 0.950 . S
C506 C515 1.390 . S
C507 C506 1.387 . S
C507 C509 1.387 . S
H508 C515 0.950 . S
C509 C507 1.387 . S
C509 C511 1.390 . S
C509 H513 0.950 . S
H510 C506 0.950 . S
C511 C509 1.390 . S
C511 C512 1.387 . S
C511 H514 0.950 . S
C512 C511 1.387 . S
C512 C515 1.387 . S
H513 C509 0.950 . S
H514 C511 0.950 . S
C515 C506 1.390 . S
C515 H508 0.950 . S
C515 C512 1.387 . S
C516 C517 1.387 . S
C516 H520 0.950 . S
C516 C525 1.390 . S
C517 C516 1.387 . S
C517 C519 1.387 . S
H518 C525 0.950 . S
C519 C517 1.387 . S
C519 C521 1.390 . S
C519 H523 0.950 . S
H520 C516 0.950 . S
C521 C519 1.390 . S
C521 C522 1.387 . S
C521 H524 0.950 . S
C522 C521 1.387 . S
C522 C525 1.387 . S
H523 C519 0.950 . S
H524 C521 0.950 . S
C525 C516 1.390 . S
C525 H518 0.950 . S
C525 C522 1.387 . S
C526 C527 1.387 . S
C526 H530 0.950 . S
C526 C535 1.390 . S
C527 C526 1.387 . S
C527 C529 1.387 . S
H528 C535 0.950 . S
C529 C527 1.387 . S
C529 C531 1.390 . S
C529 H533 0.950 . S
H530 C526 0.950 . S
C531 C529 1.390 . S
C531 C532 1.387 . S
C531 H534 0.950 . S
C532 C531 1.387 . S
C532 C535 1.387 . S
H533 C529 0.950 . S
H534 C531 0.950 . S
C535 C526 1.390 . S
C535 H528 0.950 . S
C535 C532 1.387 . S
C222 C126 1.396 . S
C217 C5 1.390 . S
C232 C140 1.411 . S
C227 C18 1.410 . S
C242 C155 1.386 . S
C237 C31 1.406 . S
C247 C42 1.313 . S
C252 C113 1.354 . S
C257 C57 1.463 . S
C262 C112 1.512 . S
C267 C70 1.478 . S
C272 C127 1.470 . S
C282 C141 1.482 . S
C277 C81 1.533 . S
C292 C154 1.520 . S
C287 C96 1.475 . S
C297 C29 1.513 . S
C302 C182 1.509 . S
C312 C196 1.520 . S
C307 C44 1.475 . S
C317 C3 1.523 . S
C322 C211 1.464 . S
C332 C168 1.518 . S
C327 C16 1.524 . S
C337 C83 1.390 . S
C342 C169 1.367 . S
C347 C94 1.326 . S
C352 C183 1.373 . S
C362 C197 1.398 . S
C357 C55 1.339 . S
C367 C68 1.350 . S
C372 C210 1.425 . S
C382 C135 1.433 . S
C377 C1 1.444 . S
C392 C153 1.412 . S
C387 C14 1.448 . S
C397 C27 1.441 . S
C402 C111 1.408 . S
C407 C49 1.439 . S
C412 C121 1.427 1_545 S
C417 C53 1.649 . S
C422 C149 1.751 . S
C432 C107 1.760 . S
C427 C66 1.653 . S
C442 C125 1.726 1_545 S
C437 C88 1.746 . S
C452 C139 1.734 . S
C447 C92 1.651 . S
C462 C191 1.749 . S
C457 C36 1.745 . S
C472 C209 1.722 . S
C467 C40 1.640 . S
C477 C10 1.745 . S
C482 C163 1.751 . S
C492 C177 1.754 1_455 S
C487 C23 1.748 . S
C502 C205 1.434 . S
C497 C79 1.445 . S
C507 C101 1.444 . S
C512 C167 1.409 . S
C522 C181 1.412 . S
C517 C62 1.444 . S
C532 C195 1.421 . S
C527 C75 1.453 . S
