# Generated by pormake.
# Topology iac, (4,6)-cn, num edge types: 1
# Building blocks:
#     Node 0, Type 0, BuildingBlock: QUQFOY_clean_sbu_3, # of connection points: 4
#     Node 1, Type 0, BuildingBlock: QUQFOY_clean_sbu_3, # of connection points: 4
#     Node 2, Type 0, BuildingBlock: QUQFOY_clean_sbu_3, # of connection points: 4
#     Node 3, Type 0, BuildingBlock: QUQFOY_clean_sbu_3, # of connection points: 4
#     Node 4, Type 0, BuildingBlock: QUQFOY_clean_sbu_3, # of connection points: 4
#     Node 5, Type 0, BuildingBlock: QUQFOY_clean_sbu_3, # of connection points: 4
#     Node 6, Type 0, BuildingBlock: QUQFOY_clean_sbu_3, # of connection points: 4
#     Node 7, Type 0, BuildingBlock: QUQFOY_clean_sbu_3, # of connection points: 4
#     Node 8, Type 0, BuildingBlock: QUQFOY_clean_sbu_3, # of connection points: 4
#     Node 9, Type 0, BuildingBlock: QUQFOY_clean_sbu_3, # of connection points: 4
#     Node 10, Type 0, BuildingBlock: QUQFOY_clean_sbu_3, # of connection points: 4
#     Node 11, Type 0, BuildingBlock: QUQFOY_clean_sbu_3, # of connection points: 4
#     Node 12, Type 0, BuildingBlock: QUQFOY_clean_sbu_3, # of connection points: 4
#     Node 13, Type 0, BuildingBlock: QUQFOY_clean_sbu_3, # of connection points: 4
#     Node 14, Type 0, BuildingBlock: QUQFOY_clean_sbu_3, # of connection points: 4
#     Node 15, Type 0, BuildingBlock: QUQFOY_clean_sbu_3, # of connection points: 4
#     Node 16, Type 0, BuildingBlock: QUQFOY_clean_sbu_3, # of connection points: 4
#     Node 17, Type 0, BuildingBlock: QUQFOY_clean_sbu_3, # of connection points: 4
#     Node 18, Type 0, BuildingBlock: QUQFOY_clean_sbu_3, # of connection points: 4
#     Node 19, Type 0, BuildingBlock: QUQFOY_clean_sbu_3, # of connection points: 4
#     Node 20, Type 0, BuildingBlock: QUQFOY_clean_sbu_3, # of connection points: 4
#     Node 21, Type 0, BuildingBlock: QUQFOY_clean_sbu_3, # of connection points: 4
#     Node 22, Type 0, BuildingBlock: QUQFOY_clean_sbu_3, # of connection points: 4
#     Node 23, Type 0, BuildingBlock: QUQFOY_clean_sbu_3, # of connection points: 4
#     Node 24, Type 1, BuildingBlock: LEVNOQ01_clean_sbu_1, # of connection points: 6
#     Node 25, Type 1, BuildingBlock: LEVNOQ01_clean_sbu_1, # of connection points: 6
#     Node 26, Type 1, BuildingBlock: LEVNOQ01_clean_sbu_1, # of connection points: 6
#     Node 27, Type 1, BuildingBlock: LEVNOQ01_clean_sbu_1, # of connection points: 6
#     Node 28, Type 1, BuildingBlock: LEVNOQ01_clean_sbu_1, # of connection points: 6
#     Node 29, Type 1, BuildingBlock: LEVNOQ01_clean_sbu_1, # of connection points: 6
#     Node 30, Type 1, BuildingBlock: LEVNOQ01_clean_sbu_1, # of connection points: 6
#     Node 31, Type 1, BuildingBlock: LEVNOQ01_clean_sbu_1, # of connection points: 6
#     Node 32, Type 1, BuildingBlock: LEVNOQ01_clean_sbu_1, # of connection points: 6
#     Node 33, Type 1, BuildingBlock: LEVNOQ01_clean_sbu_1, # of connection points: 6
#     Node 34, Type 1, BuildingBlock: LEVNOQ01_clean_sbu_1, # of connection points: 6
#     Node 35, Type 1, BuildingBlock: LEVNOQ01_clean_sbu_1, # of connection points: 6
#     Node 36, Type 1, BuildingBlock: LEVNOQ01_clean_sbu_1, # of connection points: 6
#     Node 37, Type 1, BuildingBlock: LEVNOQ01_clean_sbu_1, # of connection points: 6
#     Node 38, Type 1, BuildingBlock: LEVNOQ01_clean_sbu_1, # of connection points: 6
#     Node 39, Type 1, BuildingBlock: LEVNOQ01_clean_sbu_1, # of connection points: 6
#     Edge 40, Type (0, 1), BuildingBlock: KIFKEQ_clean_linker_1, # of connection points: 2
#     Edge 41, Type (0, 1), BuildingBlock: KIFKEQ_clean_linker_1, # of connection points: 2
#     Edge 42, Type (0, 1), BuildingBlock: KIFKEQ_clean_linker_1, # of connection points: 2
#     Edge 43, Type (0, 1), BuildingBlock: KIFKEQ_clean_linker_1, # of connection points: 2
#     Edge 44, Type (0, 1), BuildingBlock: KIFKEQ_clean_linker_1, # of connection points: 2
#     Edge 45, Type (0, 1), BuildingBlock: KIFKEQ_clean_linker_1, # of connection points: 2
#     Edge 46, Type (0, 1), BuildingBlock: KIFKEQ_clean_linker_1, # of connection points: 2
#     Edge 47, Type (0, 1), BuildingBlock: KIFKEQ_clean_linker_1, # of connection points: 2
#     Edge 48, Type (0, 1), BuildingBlock: KIFKEQ_clean_linker_1, # of connection points: 2
#     Edge 49, Type (0, 1), BuildingBlock: KIFKEQ_clean_linker_1, # of connection points: 2
#     Edge 50, Type (0, 1), BuildingBlock: KIFKEQ_clean_linker_1, # of connection points: 2
#     Edge 51, Type (0, 1), BuildingBlock: KIFKEQ_clean_linker_1, # of connection points: 2
#     Edge 52, Type (0, 1), BuildingBlock: KIFKEQ_clean_linker_1, # of connection points: 2
#     Edge 53, Type (0, 1), BuildingBlock: KIFKEQ_clean_linker_1, # of connection points: 2
#     Edge 54, Type (0, 1), BuildingBlock: KIFKEQ_clean_linker_1, # of connection points: 2
#     Edge 55, Type (0, 1), BuildingBlock: KIFKEQ_clean_linker_1, # of connection points: 2
#     Edge 56, Type (0, 1), BuildingBlock: KIFKEQ_clean_linker_1, # of connection points: 2
#     Edge 57, Type (0, 1), BuildingBlock: KIFKEQ_clean_linker_1, # of connection points: 2
#     Edge 58, Type (0, 1), BuildingBlock: KIFKEQ_clean_linker_1, # of connection points: 2
#     Edge 59, Type (0, 1), BuildingBlock: KIFKEQ_clean_linker_1, # of connection points: 2
#     Edge 60, Type (0, 1), BuildingBlock: KIFKEQ_clean_linker_1, # of connection points: 2
#     Edge 61, Type (0, 1), BuildingBlock: KIFKEQ_clean_linker_1, # of connection points: 2
#     Edge 62, Type (0, 1), BuildingBlock: KIFKEQ_clean_linker_1, # of connection points: 2
#     Edge 63, Type (0, 1), BuildingBlock: KIFKEQ_clean_linker_1, # of connection points: 2
#     Edge 64, Type (0, 1), BuildingBlock: KIFKEQ_clean_linker_1, # of connection points: 2
#     Edge 65, Type (0, 1), BuildingBlock: KIFKEQ_clean_linker_1, # of connection points: 2
#     Edge 66, Type (0, 1), BuildingBlock: KIFKEQ_clean_linker_1, # of connection points: 2
#     Edge 67, Type (0, 1), BuildingBlock: KIFKEQ_clean_linker_1, # of connection points: 2
#     Edge 68, Type (0, 1), BuildingBlock: KIFKEQ_clean_linker_1, # of connection points: 2
#     Edge 69, Type (0, 1), BuildingBlock: KIFKEQ_clean_linker_1, # of connection points: 2
#     Edge 70, Type (0, 1), BuildingBlock: KIFKEQ_clean_linker_1, # of connection points: 2
#     Edge 71, Type (0, 1), BuildingBlock: KIFKEQ_clean_linker_1, # of connection points: 2
#     Edge 72, Type (0, 1), BuildingBlock: KIFKEQ_clean_linker_1, # of connection points: 2
#     Edge 73, Type (0, 1), BuildingBlock: KIFKEQ_clean_linker_1, # of connection points: 2
#     Edge 74, Type (0, 1), BuildingBlock: KIFKEQ_clean_linker_1, # of connection points: 2
#     Edge 75, Type (0, 1), BuildingBlock: KIFKEQ_clean_linker_1, # of connection points: 2
#     Edge 76, Type (0, 1), BuildingBlock: KIFKEQ_clean_linker_1, # of connection points: 2
#     Edge 77, Type (0, 1), BuildingBlock: KIFKEQ_clean_linker_1, # of connection points: 2
#     Edge 78, Type (0, 1), BuildingBlock: KIFKEQ_clean_linker_1, # of connection points: 2
#     Edge 79, Type (0, 1), BuildingBlock: KIFKEQ_clean_linker_1, # of connection points: 2
#     Edge 80, Type (0, 1), BuildingBlock: KIFKEQ_clean_linker_1, # of connection points: 2
#     Edge 81, Type (0, 1), BuildingBlock: KIFKEQ_clean_linker_1, # of connection points: 2
#     Edge 82, Type (0, 1), BuildingBlock: KIFKEQ_clean_linker_1, # of connection points: 2
#     Edge 83, Type (0, 1), BuildingBlock: KIFKEQ_clean_linker_1, # of connection points: 2
#     Edge 84, Type (0, 1), BuildingBlock: KIFKEQ_clean_linker_1, # of connection points: 2
#     Edge 85, Type (0, 1), BuildingBlock: KIFKEQ_clean_linker_1, # of connection points: 2
#     Edge 86, Type (0, 1), BuildingBlock: KIFKEQ_clean_linker_1, # of connection points: 2
#     Edge 87, Type (0, 1), BuildingBlock: KIFKEQ_clean_linker_1, # of connection points: 2
#     Edge 88, Type (0, 1), BuildingBlock: KIFKEQ_clean_linker_1, # of connection points: 2
#     Edge 89, Type (0, 1), BuildingBlock: KIFKEQ_clean_linker_1, # of connection points: 2
#     Edge 90, Type (0, 1), BuildingBlock: KIFKEQ_clean_linker_1, # of connection points: 2
#     Edge 91, Type (0, 1), BuildingBlock: KIFKEQ_clean_linker_1, # of connection points: 2
#     Edge 92, Type (0, 1), BuildingBlock: KIFKEQ_clean_linker_1, # of connection points: 2
#     Edge 93, Type (0, 1), BuildingBlock: KIFKEQ_clean_linker_1, # of connection points: 2
#     Edge 94, Type (0, 1), BuildingBlock: KIFKEQ_clean_linker_1, # of connection points: 2
#     Edge 95, Type (0, 1), BuildingBlock: KIFKEQ_clean_linker_1, # of connection points: 2
#     Edge 96, Type (0, 1), BuildingBlock: KIFKEQ_clean_linker_1, # of connection points: 2
#     Edge 97, Type (0, 1), BuildingBlock: KIFKEQ_clean_linker_1, # of connection points: 2
#     Edge 98, Type (0, 1), BuildingBlock: KIFKEQ_clean_linker_1, # of connection points: 2
#     Edge 99, Type (0, 1), BuildingBlock: KIFKEQ_clean_linker_1, # of connection points: 2
#     Edge 100, Type (0, 1), BuildingBlock: KIFKEQ_clean_linker_1, # of connection points: 2
#     Edge 101, Type (0, 1), BuildingBlock: KIFKEQ_clean_linker_1, # of connection points: 2
#     Edge 102, Type (0, 1), BuildingBlock: KIFKEQ_clean_linker_1, # of connection points: 2
#     Edge 103, Type (0, 1), BuildingBlock: KIFKEQ_clean_linker_1, # of connection points: 2
#     Edge 104, Type (0, 1), BuildingBlock: KIFKEQ_clean_linker_1, # of connection points: 2
#     Edge 105, Type (0, 1), BuildingBlock: KIFKEQ_clean_linker_1, # of connection points: 2
#     Edge 106, Type (0, 1), BuildingBlock: KIFKEQ_clean_linker_1, # of connection points: 2
#     Edge 107, Type (0, 1), BuildingBlock: KIFKEQ_clean_linker_1, # of connection points: 2
#     Edge 108, Type (0, 1), BuildingBlock: KIFKEQ_clean_linker_1, # of connection points: 2
#     Edge 109, Type (0, 1), BuildingBlock: KIFKEQ_clean_linker_1, # of connection points: 2
#     Edge 110, Type (0, 1), BuildingBlock: KIFKEQ_clean_linker_1, # of connection points: 2
#     Edge 111, Type (0, 1), BuildingBlock: KIFKEQ_clean_linker_1, # of connection points: 2
#     Edge 112, Type (0, 1), BuildingBlock: KIFKEQ_clean_linker_1, # of connection points: 2
#     Edge 113, Type (0, 1), BuildingBlock: KIFKEQ_clean_linker_1, # of connection points: 2
#     Edge 114, Type (0, 1), BuildingBlock: KIFKEQ_clean_linker_1, # of connection points: 2
#     Edge 115, Type (0, 1), BuildingBlock: KIFKEQ_clean_linker_1, # of connection points: 2
#     Edge 116, Type (0, 1), BuildingBlock: KIFKEQ_clean_linker_1, # of connection points: 2
#     Edge 117, Type (0, 1), BuildingBlock: KIFKEQ_clean_linker_1, # of connection points: 2
#     Edge 118, Type (0, 1), BuildingBlock: KIFKEQ_clean_linker_1, # of connection points: 2
#     Edge 119, Type (0, 1), BuildingBlock: KIFKEQ_clean_linker_1, # of connection points: 2
#     Edge 120, Type (0, 1), BuildingBlock: KIFKEQ_clean_linker_1, # of connection points: 2
#     Edge 121, Type (0, 1), BuildingBlock: KIFKEQ_clean_linker_1, # of connection points: 2
#     Edge 122, Type (0, 1), BuildingBlock: KIFKEQ_clean_linker_1, # of connection points: 2
#     Edge 123, Type (0, 1), BuildingBlock: KIFKEQ_clean_linker_1, # of connection points: 2
#     Edge 124, Type (0, 1), BuildingBlock: KIFKEQ_clean_linker_1, # of connection points: 2
#     Edge 125, Type (0, 1), BuildingBlock: KIFKEQ_clean_linker_1, # of connection points: 2
#     Edge 126, Type (0, 1), BuildingBlock: KIFKEQ_clean_linker_1, # of connection points: 2
#     Edge 127, Type (0, 1), BuildingBlock: KIFKEQ_clean_linker_1, # of connection points: 2
#     Edge 128, Type (0, 1), BuildingBlock: KIFKEQ_clean_linker_1, # of connection points: 2
#     Edge 129, Type (0, 1), BuildingBlock: KIFKEQ_clean_linker_1, # of connection points: 2
#     Edge 130, Type (0, 1), BuildingBlock: KIFKEQ_clean_linker_1, # of connection points: 2
#     Edge 131, Type (0, 1), BuildingBlock: KIFKEQ_clean_linker_1, # of connection points: 2
#     Edge 132, Type (0, 1), BuildingBlock: KIFKEQ_clean_linker_1, # of connection points: 2
#     Edge 133, Type (0, 1), BuildingBlock: KIFKEQ_clean_linker_1, # of connection points: 2
#     Edge 134, Type (0, 1), BuildingBlock: KIFKEQ_clean_linker_1, # of connection points: 2
#     Edge 135, Type (0, 1), BuildingBlock: KIFKEQ_clean_linker_1, # of connection points: 2
# Relax obj value: 0.089
# Max RMSD: 0.169
# Mean RMSD: 0.086
data_MOF--net-iac--node1-QUQFOY_clean_sbu_3--node2-LEVNOQ01_clean_sbu_1--edge1-KIFKEQ_clean_linker_1
_symmetry_space_group_name_H-M    P1
_symmetry_Int_Tables_number       1
_symmetry_cell_setting            triclinic
loop_
_symmetry_equiv_pos_as_xyz
'x, y, z'
_cell_length_a     55.236075
_cell_length_b     56.220248
_cell_length_c     55.810389
_cell_angle_alpha  90.995565
_cell_angle_beta   89.858102
_cell_angle_gamma 90.561829
loop_
_atom_site_label
_atom_site_type_symbol
_atom_site_fract_x
_atom_site_fract_y
_atom_site_fract_z
_atom_type_partial_charge
C0 C 0.94637 0.24012 0.14446 0.0
O1 O 0.95882 0.22842 0.15924 0.0
Cd2 Cd 0.00235 0.22552 0.15896 0.0
O3 O 0.95638 0.25092 0.12718 0.0
Cd4 Cd -0.00339 0.25765 0.10973 0.0
C5 C 0.00944 0.19827 0.10366 0.0
O6 O 0.01607 0.26396 0.14819 0.0
O7 O 0.03941 0.26677 0.11739 0.0
O8 O 0.97799 0.29549 0.10236 0.0
C9 C 0.03722 0.26713 0.14001 0.0
O10 O 0.01152 0.19802 0.12637 0.0
C11 C 0.98486 0.29725 0.08076 0.0
O12 O 0.00262 0.21699 0.09299 0.0
O13 O -0.0028 0.28012 0.07209 0.0
C14 C 0.94491 0.75259 0.33603 0.0
O15 O 0.9574 0.75834 0.31784 0.0
Cd16 Cd 4e-05 0.76457 0.31791 0.0
O17 O 0.95509 0.74686 0.3555 0.0
Cd18 Cd -0.00382 0.74139 0.37128 0.0
C19 C -0.00111 0.80132 0.36761 0.0
O20 O 0.01639 0.72953 0.33472 0.0
O21 O 0.03974 0.74045 0.36381 0.0
O22 O 0.98125 0.70537 0.38933 0.0
C23 C 0.03772 0.73275 0.34241 0.0
O24 O 0.00194 0.79944 0.34501 0.0
C25 C 0.98995 0.70992 0.40998 0.0
O26 O -0.00398 0.78304 0.38046 0.0
O27 O 0.00178 0.72928 0.4127 0.0
C28 C 0.44604 0.74798 0.65252 0.0
O29 O 0.45884 0.73727 0.66776 0.0
Cd30 Cd 0.50082 0.72822 0.6632 0.0
O31 O 0.45516 0.7551 0.63292 0.0
Cd32 Cd 0.49498 0.75784 0.61307 0.0
C33 C 0.50301 0.69815 0.60826 0.0
O34 O 0.51617 0.76504 0.65001 0.0
O35 O 0.53936 0.76061 0.61935 0.0
O36 O 0.48076 0.79743 0.60548 0.0
C37 C 0.53744 0.76427 0.64176 0.0
O38 O 0.50595 0.69861 0.63092 0.0
C39 C 0.48562 0.79743 0.58328 0.0
O40 O 0.49695 0.71685 0.59717 0.0
O41 O 0.49505 0.77865 0.57447 0.0
C42 C 0.45366 0.23385 0.84414 0.0
O43 O 0.46647 0.2416 0.82696 0.0
Cd44 Cd 0.50678 0.25691 0.83068 0.0
O45 O 0.46229 0.23204 0.86509 0.0
Cd46 Cd 0.50151 0.23711 0.88473 0.0
C47 C 0.49585 0.29654 0.87634 0.0
O48 O 0.5263 0.22526 0.85068 0.0
O49 O 0.54574 0.23838 0.88168 0.0
O50 O 0.48849 0.20187 0.90512 0.0
C51 C 0.54644 0.22984 0.86053 0.0
O52 O 0.50229 0.294 0.85451 0.0
C53 C 0.49485 0.20904 0.9259 0.0
O54 O 0.4937 0.2787 0.88989 0.0
O55 O 0.50485 0.22945 0.92764 0.0
C56 C 0.09559 0.00514 0.29907 0.0
O57 O 0.08029 0.01886 0.28971 0.0
Cd58 Cd 0.07676 0.02431 0.2472 0.0
O59 O 0.11088 -0.00602 0.28629 0.0
Cd60 Cd 0.12342 0.98925 0.24466 0.0
C61 C 0.13249 0.04845 0.23448 0.0
O62 O 0.08273 0.9862 0.22861 0.0
O63 O 0.11188 0.98665 0.20275 0.0
O64 O 0.12837 0.94874 0.25714 0.0
C65 C 0.08929 0.98586 0.20685 0.0
O66 O 0.1096 0.05065 0.23575 0.0
C67 C 0.15056 0.94708 0.2516 0.0
O68 O 0.14256 0.02858 0.23861 0.0
O69 O 0.16038 0.96509 0.24187 0.0
C70 C 0.2954 0.91099 0.48801 0.0
O71 O 0.28218 0.92516 0.47652 0.0
Cd72 Cd 0.23924 0.92266 0.472 0.0
O73 O 0.28653 0.89293 0.49842 0.0
Cd74 Cd 0.24668 0.87351 0.50053 0.0
C75 C 0.24651 0.87271 0.43923 0.0
O76 O 0.22297 0.90864 0.50893 0.0
O77 O 0.20266 0.87741 0.49811 0.0
O78 O 0.25804 0.85813 0.53951 0.0
C79 C 0.20251 0.8989 0.50538 0.0
O80 O 0.23742 0.89343 0.43932 0.0
C81 C 0.25116 0.83687 0.53507 0.0
O82 O 0.2527 0.86277 0.4586 0.0
O83 O 0.24248 0.83252 0.51436 0.0
C84 C 0.41175 0.98269 0.79479 0.0
O85 O 0.42848 0.97144 0.7839 0.0
Cd86 Cd 0.43094 0.96554 0.74112 0.0
O87 O 0.39528 -0.00683 0.78324 0.0
Cd88 Cd 0.38151 9e-05 0.74262 0.0
C89 C 0.37507 0.93962 0.73909 0.0
O90 O 0.42094 0.00319 0.72482 0.0
O91 O 0.39112 0.00408 0.70001 0.0
O92 O 0.36818 0.03875 0.75706 0.0
C93 C 0.41382 0.00424 0.70332 0.0
O94 O 0.39776 0.93685 0.73617 0.0
C95 C 0.34689 0.03655 0.74864 0.0
O96 O 0.36599 0.96015 0.74217 0.0
O97 O 0.34184 0.01737 0.73724 0.0
C98 C 0.28644 0.07133 -0.00655 0.0
O99 O 0.27056 0.05841 0.00352 0.0
Cd100 Cd 0.23203 0.07537 0.01382 0.0
O101 O 0.28138 0.09231 0.98717 0.0
Cd102 Cd 0.24858 0.12085 0.98436 0.0
C103 C 0.25082 0.12598 0.04479 0.0
O104 O 0.2169 0.09181 0.97722 0.0
O105 O 0.20462 0.12785 0.98282 0.0
O106 O 0.2663 0.12397 0.94508 0.0
C107 C 0.19942 0.10629 0.9779 0.0
O108 O 0.24168 0.1051 0.04547 0.0
C109 C 0.26715 0.14651 0.94499 0.0
O110 O 0.25552 0.13568 0.02484 0.0
O111 O 0.25905 0.15743 0.96345 0.0
C112 C 0.80125 0.40053 0.9916 0.0
O113 O 0.79135 0.42001 0.9862 0.0
Cd114 Cd 0.74952 0.42238 0.97561 0.0
O115 O 0.78863 0.38186 -0.00488 0.0
Cd116 Cd 0.74544 0.37007 -0.00159 0.0
C117 C 0.7477 0.37311 0.9378 0.0
O118 O 0.72758 0.40828 0.00946 0.0
O119 O 0.70278 0.38131 -0.00381 0.0
O120 O 0.75639 0.35418 0.03705 0.0
C121 C 0.70594 0.40214 0.00481 0.0
O122 O 0.74698 0.39569 0.9402 0.0
C123 C 0.74707 0.33366 0.03363 0.0
O124 O 0.74791 0.35983 0.95608 0.0
O125 O 0.73658 0.32988 0.01363 0.0
C126 C 0.91645 0.48024 0.28391 0.0
O127 O 0.93086 0.47234 0.26793 0.0
Cd128 Cd 0.92036 0.47304 0.22602 0.0
O129 O 0.89748 0.49134 0.27817 0.0
Cd130 Cd 0.87496 0.50549 0.24427 0.0
C131 C 0.86522 0.44671 0.23537 0.0
O132 O 0.90799 0.51271 0.21674 0.0
O133 O 0.87173 0.51314 0.20206 0.0
O134 O 0.86939 0.54243 0.26595 0.0
C135 C 0.89431 0.51577 0.19881 0.0
O136 O 0.8864 0.44473 0.22651 0.0
C137 C 0.84657 0.54281 0.26307 0.0
O138 O 0.85748 0.46658 0.24322 0.0
O139 O 0.83689 0.52535 0.25179 0.0
C140 C 0.78229 0.57301 0.48452 0.0
O141 O 0.76784 0.56058 0.49699 0.0
Cd142 Cd 0.73114 0.5782 0.51229 0.0
O143 O 0.77751 0.59457 0.48021 0.0
Cd144 Cd 0.74704 0.62536 0.48578 0.0
C145 C 0.75316 0.62523 0.54625 0.0
O146 O 0.71449 0.59744 0.47784 0.0
O147 O 0.70291 0.633 0.48696 0.0
O148 O 0.76411 0.63261 0.44688 0.0
C149 C 0.69727 0.612 0.4803 0.0
O150 O 0.74204 0.60527 0.54594 0.0
C151 C 0.76353 0.65511 0.44832 0.0
O152 O 0.75839 0.63563 0.5268 0.0
O153 O 0.75512 0.66422 0.46759 0.0
C154 C 0.58725 0.493 0.7965 0.0
O155 O 0.57112 0.50252 0.78373 0.0
Cd156 Cd 0.57672 0.51135 0.74214 0.0
O157 O 0.60747 0.48701 0.78747 0.0
Cd158 Cd 0.62779 0.48461 0.74845 0.0
C159 C 0.62991 0.54427 0.74098 0.0
O160 O 0.59159 0.47507 0.72543 0.0
O161 O 0.62378 0.48212 0.70479 0.0
O162 O 0.63744 0.44651 0.76476 0.0
C163 C 0.60144 0.47674 0.70504 0.0
O164 O 0.60714 0.5431 0.73744 0.0
C165 C 0.65976 0.44683 0.75947 0.0
O166 O 0.64166 0.52596 0.74719 0.0
O167 O 0.66768 0.46498 0.7485 0.0
C168 C 0.96908 0.75369 0.8251 0.0
O169 O 0.98499 0.76508 0.81339 0.0
Cd170 Cd 0.02267 0.77487 0.83188 0.0
O171 O 0.97375 0.74614 0.84602 0.0
Cd172 Cd 0.00698 0.74393 0.87605 0.0
C173 C 0.00083 0.80304 0.8832 0.0
O174 O 0.03796 0.73781 0.84621 0.0
O175 O 0.05101 0.74594 0.88189 0.0
O176 O -0.00768 0.70358 0.87889 0.0
C177 C 0.05557 0.7388 0.8607 0.0
O178 O 0.01039 0.80401 0.86245 0.0
C179 C -0.00288 0.70105 0.9009 0.0
O180 O -0.00293 0.7831 0.89314 0.0
O181 O 0.00505 0.7193 0.91225 0.0
C182 C 0.96997 0.24652 0.65834 0.0
O183 O 0.98591 0.238 0.67206 0.0
Cd184 Cd 0.02714 0.23275 0.65883 0.0
O185 O 0.97528 0.25247 0.63704 0.0
Cd186 Cd 0.00742 0.25535 0.60688 0.0
C187 C 0.01594 0.19569 0.61008 0.0
O188 O 0.03606 0.26729 0.63591 0.0
O189 O 0.05127 0.26162 0.6008 0.0
O190 O 0.98505 0.29021 0.59841 0.0
C191 C 0.05474 0.26666 0.62275 0.0
O192 O 0.02507 0.19862 0.63091 0.0
C193 C 0.9871 0.28894 0.57578 0.0
O194 O 0.00719 0.21307 0.59865 0.0
O195 O -0.0013 0.27138 0.567 0.0
C196 C 0.47144 0.2512 0.32168 0.0
O197 O 0.48742 0.26265 0.31016 0.0
Cd198 Cd 0.52344 0.27383 0.33136 0.0
O199 O 0.4757 0.24438 0.3429 0.0
Cd200 Cd 0.50716 0.24311 0.3742 0.0
C201 C 0.49881 0.30192 0.38131 0.0
O202 O 0.5407 0.23803 0.34742 0.0
O203 O 0.55056 0.24841 0.38375 0.0
O204 O 0.50167 0.20055 0.37639 0.0
C205 C 0.55695 0.24041 0.3633 0.0
O206 O 0.50862 0.30323 0.3607 0.0
C207 C 0.4953 0.20018 0.39818 0.0
O208 O 0.49591 0.2819 0.39129 0.0
O209 O 0.49387 0.22008 0.40924 0.0
C210 C 0.47607 0.74992 0.17205 0.0
O211 O 0.49317 0.74173 0.18458 0.0
Cd212 Cd 0.53272 0.73404 0.16772 0.0
O213 O 0.47972 0.75574 0.15035 0.0
Cd214 Cd 0.50997 0.75859 0.11807 0.0
C215 C 0.51307 0.69833 0.12075 0.0
O216 O 0.54312 0.76748 0.14373 0.0
O217 O 0.55314 0.75943 0.10725 0.0
O218 O 0.49158 0.7959 0.10827 0.0
C219 C 0.55987 0.76431 0.12848 0.0
O220 O 0.52485 0.70016 0.14034 0.0
C221 C 0.49125 0.79221 0.08574 0.0
O222 O 0.50493 0.71658 0.11031 0.0
O223 O 0.49938 0.77243 0.07801 0.0
C224 C 0.92363 0.98876 0.77538 0.0
O225 O 0.93602 0.97586 0.76117 0.0
Cd226 Cd 0.91832 0.96302 0.72415 0.0
O227 O 0.9028 -0.00392 0.76924 0.0
Cd228 Cd 0.8738 -0.00395 0.73547 0.0
C229 C 0.86553 0.93771 0.74586 0.0
O230 O 0.90533 -0.00076 0.70581 0.0
O231 O 0.86916 -0.00696 0.69209 0.0
O232 O 0.87041 0.03735 0.74736 0.0
C233 C 0.89103 -0.00124 0.68808 0.0
O234 O 0.88689 0.93533 0.73761 0.0
C235 C 0.8484 0.03949 0.74142 0.0
O236 O 0.85574 0.95811 0.74716 0.0
O237 O 0.83732 0.02072 0.73442 0.0
C238 C 0.77018 0.08321 0.49336 0.0
O239 O 0.75171 0.07016 0.49718 0.0
Cd240 Cd 0.7119 0.08573 0.5039 0.0
O241 O 0.76816 0.10568 0.49122 0.0
Cd242 Cd 0.73882 0.13875 0.49095 0.0
C243 C 0.72851 0.12569 0.54937 0.0
O244 O 0.70621 0.11581 0.47543 0.0
O245 O 0.69594 0.14964 0.49053 0.0
O246 O 0.75944 0.15181 0.45518 0.0
C247 C 0.68935 0.12993 0.48121 0.0
O248 O 0.7168 0.10729 0.54204 0.0
C249 C 0.75787 0.17394 0.45981 0.0
O250 O 0.73969 0.13935 0.53486 0.0
O251 O 0.74869 0.17997 0.47992 0.0
C252 C 0.56148 -0.00609 0.26652 0.0
O253 O 0.55137 0.00685 0.25115 0.0
Cd254 Cd 0.57291 0.01859 0.21524 0.0
O255 O 0.58327 0.98742 0.26366 0.0
Cd256 Cd 0.61719 -0.00714 0.23626 0.0
C257 C 0.61736 0.05229 0.24114 0.0
O258 O 0.59844 0.98822 0.19754 0.0
O259 O 0.63359 0.00595 0.19857 0.0
O260 O 0.63045 0.95264 0.23436 0.0
C261 C 0.61676 -0.00368 0.18629 0.0
O262 O 0.59907 0.05176 0.22728 0.0
C263 C 0.64954 0.95584 0.24657 0.0
O264 O 0.62628 0.03317 0.24905 0.0
O265 O 0.65372 0.97661 0.25497 0.0
C266 C 0.7755 0.90166 0.0025 0.0
O267 O 0.76364 0.91546 0.9892 0.0
Cd268 Cd 0.72077 0.91383 0.98155 0.0
O269 O 0.76492 0.88468 0.0133 0.0
Cd270 Cd 0.72302 0.86801 0.01467 0.0
C271 C 0.7198 0.8595 0.95382 0.0
O272 O 0.70004 0.90457 0.01796 0.0
O273 O 0.67956 0.87206 0.01208 0.0
O274 O 0.72711 0.86159 0.05701 0.0
C275 C 0.67953 0.89429 0.01618 0.0
O276 O 0.71623 0.88175 0.95226 0.0
C277 C 0.72234 0.83947 0.05618 0.0
O278 O 0.72432 0.85017 0.97402 0.0
O279 O 0.71896 0.83004 0.03557 0.0
C280 C 0.27173 0.56534 0.98852 0.0
O281 O 0.25392 0.55378 -0.00297 0.0
Cd282 Cd 0.2159 0.57254 0.00723 0.0
O283 O 0.26973 0.58743 0.98421 0.0
Cd284 Cd 0.23946 0.61981 0.98676 0.0
C285 C 0.23727 0.61498 0.04685 0.0
O286 O 0.20171 0.59874 0.97676 0.0
O287 O 0.19869 0.63303 -0.00543 0.0
O288 O 0.25311 0.63171 0.94736 0.0
C289 C 0.1882 0.61541 0.98453 0.0
O290 O 0.22397 0.59666 0.0431 0.0
C291 C 0.25447 0.65385 0.95208 0.0
O292 O 0.24742 0.6258 0.02952 0.0
O293 O 0.24973 0.66043 0.97347 0.0
C294 C 0.07786 0.48995 0.77683 0.0
O295 O 0.06241 0.4984 0.76252 0.0
Cd296 Cd 0.07292 0.50808 0.72186 0.0
O297 O 0.09914 0.485 0.76974 0.0
Cd298 Cd 0.12729 0.48308 0.73623 0.0
C299 C 0.12372 0.54311 0.73319 0.0
O300 O 0.09666 0.47548 0.70825 0.0
O301 O 0.13189 0.48017 0.69241 0.0
O302 O 0.13703 0.44624 0.75377 0.0
C303 C 0.10919 0.47819 0.68946 0.0
O304 O 0.10187 0.54144 0.72587 0.0
C305 C 0.15982 0.44942 0.75369 0.0
O306 O 0.13565 0.52484 0.73907 0.0
O307 O 0.16798 0.46848 0.74456 0.0
C308 C 0.2829 0.40496 0.50017 0.0
O309 O 0.27087 0.42079 0.48961 0.0
Cd310 Cd 0.2283 0.41817 0.48124 0.0
O311 O 0.27233 0.38643 0.50803 0.0
Cd312 Cd 0.22995 0.37154 0.50981 0.0
C313 C 0.22546 0.36605 0.44929 0.0
O314 O 0.20813 0.40847 0.51794 0.0
O315 O 0.18677 0.37686 0.5098 0.0
O316 O 0.23823 0.36335 0.55102 0.0
C317 C 0.18752 0.39828 0.51715 0.0
O318 O 0.223 0.38853 0.44929 0.0
C319 C 0.2296 0.34236 0.5507 0.0
O320 O 0.22961 0.35525 0.46875 0.0
O321 O 0.22269 0.33392 0.53053 0.0
C322 C 0.42309 0.49324 0.27653 0.0
O323 O 0.43475 0.47896 0.2631 0.0
Cd324 Cd 0.41611 0.46504 0.22691 0.0
O325 O 0.40257 0.50097 0.27005 0.0
Cd326 Cd 0.3744 0.49846 0.23562 0.0
C327 C 0.36329 0.44191 0.25015 0.0
O328 O 0.40435 0.49915 0.20379 0.0
O329 O 0.36786 0.48911 0.19345 0.0
O330 O 0.37215 0.54094 0.24287 0.0
C331 C 0.38877 0.49621 0.18728 0.0
O332 O 0.38439 0.43841 0.24167 0.0
C333 C 0.35003 0.54263 0.23724 0.0
O334 O 0.35431 0.46267 0.25061 0.0
O335 O 0.33859 0.52341 0.23254 0.0
O336 O 0.94545 0.02859 0.95829 0.0
Mg337 Mg 0.93698 0.03139 -0.00439 0.0
O338 O 0.97727 0.00449 0.9602 0.0
Mg339 Mg 0.98827 0.00013 -0.00023 0.0
O340 O 0.96994 0.03377 0.01057 0.0
O341 O 0.94409 0.06275 0.01601 0.0
O342 O -0.00161 -0.00355 0.03991 0.0
O343 O 0.0226 0.02345 0.99201 0.0
Mg344 Mg 0.03788 0.96957 0.00731 0.0
O345 O 0.00684 0.96603 0.98832 0.0
O346 O 0.02764 0.96989 0.04385 0.0
O347 O 0.05519 0.00046 -0.00613 0.0
O348 O 0.03538 0.93873 0.98626 0.0
C349 C 0.93134 0.98003 0.01211 0.0
C350 C 0.96185 0.01613 0.94819 0.0
C351 C 0.96532 0.05434 0.01963 0.0
C352 C 0.01189 0.98368 0.05289 0.0
C353 C 0.04538 0.02033 0.98979 0.0
C354 C 0.01445 0.94605 0.97964 0.0
O355 O 0.92152 0.00035 0.01092 0.0
O356 O 0.95372 0.97688 0.00714 0.0
O357 O 0.25549 0.74202 0.30882 0.0
Mg358 Mg 0.24123 0.71167 0.29091 0.0
O359 O 0.25591 0.76652 0.27787 0.0
Mg360 Mg 0.24904 0.74457 0.24262 0.0
O361 O 0.25884 0.70993 0.25936 0.0
O362 O 0.26079 0.6806 0.28502 0.0
O363 O 0.24221 0.72216 0.20786 0.0
O364 O 0.28976 0.75013 0.23254 0.0
Mg365 Mg 0.25371 0.77581 0.19283 0.0
O366 O 0.23874 0.77892 0.22568 0.0
O367 O 0.23786 0.74524 0.17624 0.0
O368 O 0.2912 0.77355 0.20065 0.0
O369 O 0.23487 0.80747 0.19944 0.0
C370 C 0.19519 0.72649 0.2656 0.0
C371 C 0.25863 0.7626 0.30021 0.0
C372 C 0.26637 0.68904 0.2644 0.0
C373 C 0.23726 0.72487 0.18575 0.0
C374 C 0.30169 0.76197 0.21698 0.0
C375 C 0.23089 0.79969 0.22067 0.0
O376 O 0.20431 0.713 0.28114 0.0
O377 O 0.20828 0.73954 0.25212 0.0
O378 O 0.56071 0.97506 0.45276 0.0
Mg379 Mg 0.56719 0.96783 0.48985 0.0
O380 O 0.52546 -0.00583 0.45529 0.0
Mg381 Mg 0.51243 -0.00593 0.4947 0.0
O382 O 0.53321 0.96168 0.50114 0.0
O383 O 0.55999 0.93369 0.50488 0.0
O384 O 0.50286 0.98874 0.53608 0.0
O385 O 0.48094 0.9704 0.48296 0.0
Mg386 Mg 0.47931 0.01656 0.51404 0.0
O387 O 0.49268 0.03021 0.48353 0.0
O388 O 0.4993 0.02608 0.54491 0.0
O389 O 0.45751 0.98481 0.51152 0.0
O390 O 0.46076 0.04517 0.50377 0.0
C391 C 0.56579 0.01701 0.51369 0.0
C392 C 0.54321 0.98596 0.44301 0.0
C393 C 0.53803 0.94062 0.50768 0.0
C394 C 0.50285 0.0053 0.55188 0.0
C395 C 0.46172 0.96929 0.49534 0.0
C396 C 0.47619 0.04646 0.48645 0.0
O397 O 0.57815 -0.00185 0.51094 0.0
O398 O 0.54377 0.01799 0.50709 0.0
O399 O 0.30958 0.26093 0.74653 0.0
Mg400 Mg 0.29523 0.24215 0.71681 0.0
O401 O 0.28011 0.24986 0.77126 0.0
Mg402 Mg 0.24498 0.24206 0.74944 0.0
O403 O 0.26103 0.25335 0.71445 0.0
O404 O 0.28659 0.2584 0.68458 0.0
O405 O 0.21044 0.23462 0.72765 0.0
O406 O 0.23347 0.28073 0.7577 0.0
Mg407 Mg 0.19424 0.24341 0.78319 0.0
O408 O 0.22754 0.22942 0.78301 0.0
O409 O 0.17796 0.23056 0.75092 0.0
O410 O 0.20314 0.28039 0.78433 0.0
O411 O 0.20242 0.22175 0.81254 0.0
C412 C 0.2749 0.19317 0.73196 0.0
C413 C 0.30135 0.2583 0.76758 0.0
C414 C 0.26498 0.26055 0.69304 0.0
C415 C 0.18795 0.23008 0.73036 0.0
C416 C 0.21896 0.29145 0.77202 0.0
C417 C 0.22365 0.21963 0.80324 0.0
O418 O 0.29129 0.20463 0.72079 0.0
O419 O 0.25742 0.20362 0.74266 0.0
O420 O 0.97668 0.93312 0.48994 0.0
Mg421 Mg 0.99101 0.94902 0.52171 0.0
O422 O 0.97991 0.9645 0.4662 0.0
Mg423 Mg 0.99012 -0.00183 0.48847 0.0
O424 O 0.97681 0.98178 0.52201 0.0
O425 O 0.96875 0.95721 0.55125 0.0
O426 O 0.00136 0.03226 0.51014 0.0
O427 O 0.95103 0.0123 0.48297 0.0
Mg428 Mg 0.98939 0.04675 0.45343 0.0
O429 O 0.00272 0.01391 0.45486 0.0
O430 O 0.00543 0.06226 0.48458 0.0
O431 O 0.95142 0.04099 0.45588 0.0
O432 O 0.01103 0.03584 0.42386 0.0
C433 C 0.04016 0.96986 0.50754 0.0
C434 C 0.97492 0.94257 0.46948 0.0
C435 C 0.96593 0.97774 0.54184 0.0
C436 C 0.00751 0.0537 0.50545 0.0
C437 C 0.94001 0.02719 0.46991 0.0
C438 C 0.01396 0.01625 0.43502 0.0
O439 O 0.02894 0.95585 0.52147 0.0
O440 O 0.02911 0.98421 0.49394 0.0
O441 O 0.2801 0.71219 0.7859 0.0
Mg442 Mg 0.28085 0.69947 0.74985 0.0
O443 O 0.25063 0.73905 0.78363 0.0
Mg444 Mg 0.24308 0.74569 0.74271 0.0
O445 O 0.27783 0.72957 0.7316 0.0
O446 O 0.30937 0.70683 0.72574 0.0
O447 O 0.23694 0.7519 0.70202 0.0
O448 O 0.26232 0.78235 0.74577 0.0
Mg449 Mg 0.20375 0.78851 0.72958 0.0
O450 O 0.2082 0.76229 0.75315 0.0
O451 O 0.20361 0.77231 0.69477 0.0
O452 O 0.23501 0.80973 0.73635 0.0
O453 O 0.17634 0.78525 0.75579 0.0
C454 C 0.22842 0.68728 0.73623 0.0
C455 C 0.26577 0.72703 0.79578 0.0
C456 C 0.29779 0.72581 0.72055 0.0
C457 C 0.22166 0.76036 0.68736 0.0
C458 C 0.25635 0.80398 0.74245 0.0
C459 C 0.18864 0.76793 0.76415 0.0
O460 O 0.24995 0.67981 0.73843 0.0
O461 O 0.22305 0.70927 0.73868 0.0
O462 O 0.47372 0.95883 0.04516 0.0
Mg463 Mg 0.47424 -0.00549 0.05943 0.0
O464 O 0.48891 0.96258 0.00801 0.0
Mg465 Mg 0.49356 0.00321 0.00205 0.0
O466 O 0.46584 0.01061 0.02934 0.0
O467 O 0.44164 0.01497 0.05998 0.0
O468 O 0.49707 0.04419 -0.00128 0.0
O469 O 0.46325 0.00084 0.97378 0.0
Mg470 Mg 0.51513 0.02142 0.94975 0.0
O471 O 0.5219 -0.00372 0.97416 0.0
O472 O 0.52108 0.05403 0.96838 0.0
O473 O 0.47863 0.01475 0.93966 0.0
O474 O 0.5441 -0.00145 0.94163 0.0
C475 C 0.52699 0.01006 0.05195 0.0
C476 C 0.48038 0.94995 0.02501 0.0
C477 C 0.44604 0.01876 0.03773 0.0
C478 C 0.5093 0.0596 0.98718 0.0
C479 C 0.46106 0.00659 0.9519 0.0
C480 C 0.54013 0.98875 0.96198 0.0
O481 O 0.5093 0.00914 0.06659 0.0
O482 O 0.52449 0.00594 0.02956 0.0
O483 O 0.26407 0.25259 0.18145 0.0
Mg484 Mg 0.24758 0.28157 0.19984 0.0
O485 O 0.25719 0.22685 0.21053 0.0
Mg486 Mg 0.24714 0.2464 0.24636 0.0
O487 O 0.26018 0.28233 0.23375 0.0
O488 O 0.2666 0.31243 0.2095 0.0
O489 O 0.23648 0.26659 0.28215 0.0
O490 O 0.28691 0.24117 0.25885 0.0
Mg491 Mg 0.24939 0.21396 0.2919 0.0
O492 O 0.23551 0.20893 0.25835 0.0
O493 O 0.23076 0.24055 0.31099 0.0
O494 O 0.28748 0.21641 0.28936 0.0
O495 O 0.23329 0.18149 0.28667 0.0
C496 C 0.19734 0.26649 0.21805 0.0
C497 C 0.26389 0.23146 0.18917 0.0
C498 C 0.26924 0.30321 0.23028 0.0
C499 C 0.22973 0.26161 0.30342 0.0
C500 C 0.29847 0.2293 0.27431 0.0
C501 C 0.22894 0.18783 0.265 0.0
O502 O 0.20968 0.27971 0.20426 0.0
O503 O 0.20736 0.25266 0.23303 0.0
O504 O 0.45297 0.53022 0.95755 0.0
Mg505 Mg 0.48896 0.54404 0.95833 0.0
O506 O 0.45625 0.50479 0.9876 0.0
Mg507 Mg 0.49746 0.49871 -0.00391 0.0
O508 O 0.50931 0.51512 0.96236 0.0
O509 O 0.51521 0.53776 0.93132 0.0
O510 O 0.5387 0.49293 0.00403 0.0
O511 O 0.4956 0.46219 0.97611 0.0
Mg512 Mg 0.5094 0.4558 0.03439 0.0
O513 O 0.48535 0.48188 0.02977 0.0
O514 O 0.54356 0.47298 0.03767 0.0
O515 O 0.50493 0.4346 0.00276 0.0
O516 O 0.48191 0.45812 0.06044 0.0
C517 C 0.50074 0.55727 0.01092 0.0
C518 C 0.44345 0.51585 0.97232 0.0
C519 C 0.5211 0.51922 0.9431 0.0
C520 C 0.55229 0.48494 0.02053 0.0
C521 C 0.49935 0.44052 0.98155 0.0
C522 C 0.47372 0.47578 0.04862 0.0
O523 O 0.49763 0.56415 0.98955 0.0
O524 O 0.50019 0.53523 0.01632 0.0
O525 O 0.78444 0.22303 0.29228 0.0
Mg526 Mg 0.7859 0.20659 0.25807 0.0
O527 O 0.75138 0.24472 0.28642 0.0
Mg528 Mg 0.74483 0.24747 0.24453 0.0
O529 O 0.7815 0.23384 0.23556 0.0
O530 O 0.81475 0.2127 0.23427 0.0
O531 O 0.73928 0.25076 0.20297 0.0
O532 O 0.76037 0.2855 0.24627 0.0
Mg533 Mg 0.70269 0.28747 0.22993 0.0
O534 O 0.70764 0.26028 0.25228 0.0
O535 O 0.70696 0.27261 0.19493 0.0
O536 O 0.73088 0.31158 0.24021 0.0
O537 O 0.67295 0.279 0.25213 0.0
C538 C 0.73499 0.18818 0.24531 0.0
C539 C 0.76772 0.23641 0.30021 0.0
C540 C 0.80221 0.22986 0.22594 0.0
C541 C 0.72443 0.2596 0.18803 0.0
C542 C 0.75284 0.30685 0.24501 0.0
C543 C 0.68623 0.26258 0.26084 0.0
O544 O 0.7567 0.18256 0.25013 0.0
O545 O 0.72871 0.2098 0.24316 0.0
O546 O 0.95798 0.46432 0.54347 0.0
Mg547 Mg 0.95498 0.5017 0.55071 0.0
O548 O 0.98485 0.46447 0.51338 0.0
Mg549 Mg 0.99025 0.5032 0.50104 0.0
O550 O 0.95539 0.51357 0.51709 0.0
O551 O 0.92386 0.52053 0.53985 0.0
O552 O -0.00537 0.54205 0.48927 0.0
O553 O 0.96972 0.49224 0.4664 0.0
Mg554 Mg 0.02613 0.50843 0.45276 0.0
O555 O 0.02601 0.49335 0.48515 0.0
O556 O 0.02242 0.54548 0.46053 0.0
O557 O -0.00363 0.49094 0.43619 0.0
O558 O 0.05759 0.48963 0.46133 0.0
C559 C 0.00677 0.52004 0.55725 0.0
C560 C 0.97137 0.45346 0.52827 0.0
C561 C 0.93414 0.5221 0.51922 0.0
C562 C 0.0076 0.55472 0.4754 0.0
C563 C 0.97535 0.48718 0.44473 0.0
C564 C 0.04727 0.48507 0.48145 0.0
O565 O 0.98575 0.51873 0.56656 0.0
O566 O 0.01075 0.51375 0.53552 0.0
O567 O 0.6877 0.77996 0.27658 0.0
Mg568 Mg 0.68477 0.74183 0.27786 0.0
O569 O 0.72302 0.78305 0.25717 0.0
Mg570 Mg 0.74171 0.74696 0.25469 0.0
O571 O 0.71924 0.73372 0.28415 0.0
O572 O 0.69179 0.72285 0.31003 0.0
O573 O 0.76124 0.71134 0.25371 0.0
O574 O 0.76884 0.76039 0.28375 0.0
Mg575 Mg 0.7977 0.75656 0.23593 0.0
O576 O 0.76384 0.75956 0.22379 0.0
O577 O 0.79964 0.71946 0.24396 0.0
O578 O 0.79865 0.78006 0.266 0.0
O579 O 0.79455 0.76846 0.20046 0.0
C580 C 0.69264 0.72491 0.22552 0.0
C581 C 0.70423 0.79241 0.26662 0.0
C582 C 0.71425 0.72391 0.30401 0.0
C583 C 0.78308 0.70486 0.25029 0.0
C584 C 0.78726 0.77423 0.28483 0.0
C585 C 0.77147 0.76664 0.20336 0.0
O586 O 0.67886 0.72474 0.24388 0.0
O587 O 0.71422 0.73323 0.22642 0.0
O588 O 0.78018 0.25587 0.80522 0.0
Mg589 Mg 0.76464 0.22213 0.79751 0.0
O590 O 0.76308 0.27337 0.77424 0.0
Mg591 Mg 0.7519 0.24505 0.74492 0.0
O592 O 0.77079 0.21494 0.7627 0.0
O593 O 0.78512 0.19167 0.7906 0.0
O594 O 0.7399 0.21693 0.71578 0.0
O595 O 0.78722 0.25225 0.72453 0.0
Mg596 Mg 0.74022 0.2679 0.69141 0.0
O597 O 0.73448 0.27526 0.72643 0.0
O598 O 0.72228 0.23497 0.68529 0.0
O599 O 0.77908 0.26672 0.68851 0.0
O600 O 0.72156 0.29977 0.69917 0.0
C601 C 0.71038 0.22718 0.78511 0.0
C602 C 0.77426 0.27453 0.79426 0.0
C603 C 0.78217 0.19597 0.76821 0.0
C604 C 0.72768 0.21619 0.69634 0.0
C605 C 0.79413 0.25981 0.70417 0.0
C606 C 0.72419 0.29492 0.72146 0.0
O607 O 0.72626 0.21983 0.79967 0.0
O608 O 0.71619 0.23719 0.76547 0.0
O609 O 0.75144 0.75434 0.68386 0.0
Mg610 Mg 0.73787 0.78181 0.70676 0.0
O611 O 0.75378 0.72656 0.71159 0.0
Mg612 Mg 0.74501 0.74317 0.74921 0.0
O613 O 0.75616 0.78028 0.73807 0.0
O614 O 0.75797 0.81216 0.71537 0.0
O615 O 0.73589 0.75978 0.78689 0.0
O616 O 0.78554 0.73823 0.7598 0.0
Mg617 Mg 0.75124 0.70469 0.79228 0.0
O618 O 0.73425 0.70605 0.76022 0.0
O619 O 0.73542 0.73145 0.81425 0.0
O620 O 0.78874 0.70849 0.78534 0.0
O621 O 0.73214 0.67394 0.78249 0.0
C622 C 0.69144 0.763 0.72759 0.0
C623 C 0.75573 0.73306 0.68982 0.0
C624 C 0.7644 0.80148 0.73454 0.0
C625 C 0.73216 0.7529 0.80833 0.0
C626 C 0.79837 0.72434 0.77235 0.0
C627 C 0.72617 0.68472 0.76323 0.0
O628 O 0.70085 0.77968 0.71558 0.0
O629 O 0.70436 0.74799 0.73864 0.0
O630 O 0.55772 0.50364 0.4801 0.0
Mg631 Mg 0.54516 0.4709 0.49385 0.0
O632 O 0.52446 0.52449 0.48797 0.0
Mg633 Mg 0.49304 0.49827 0.49813 0.0
O634 O 0.51122 0.46621 0.48102 0.0
O635 O 0.54053 0.44123 0.47146 0.0
O636 O 0.46142 0.47199 0.50826 0.0
O637 O 0.47622 0.50485 0.46108 0.0
Mg638 Mg 0.44025 0.52495 0.50316 0.0
O639 O 0.47474 0.53041 0.51423 0.0
O640 O 0.42917 0.49298 0.51932 0.0
O641 O 0.44148 0.52427 0.46482 0.0
O642 O 0.44607 0.55591 0.52386 0.0
C643 C 0.52679 0.47946 0.54461 0.0
C644 C 0.5464 0.5232 0.48081 0.0
C645 C 0.51816 0.44725 0.46973 0.0
C646 C 0.44011 0.4733 0.51719 0.0
C647 C 0.45777 0.51462 0.45184 0.0
C648 C 0.46847 0.54989 0.52489 0.0
O649 O 0.54197 0.46836 0.53157 0.0
O650 O 0.5098 0.4917 0.53565 0.0
O651 O 0.05765 0.47634 0.9678 0.0
Mg652 Mg 0.05481 0.48063 0.00637 0.0
O653 O 0.02053 0.48884 0.95917 0.0
Mg654 Mg -0.00211 0.49662 0.99205 0.0
O655 O 0.02011 0.47155 0.01284 0.0
O656 O 0.04907 0.45106 0.0291 0.0
O657 O 0.97446 0.50496 0.02482 0.0
O658 O 0.97315 0.46379 0.9832 0.0
Mg659 Mg 0.94247 0.50855 0.97354 0.0
O660 O 0.97624 0.52172 0.9705 0.0
O661 O 0.93679 0.51095 0.01173 0.0
O662 O 0.94373 0.47369 0.95852 0.0
O663 O 0.9461 0.53937 0.95267 0.0
C664 C 0.043 0.53322 0.01214 0.0
C665 C 0.04134 0.48161 0.95268 0.0
C666 C 0.02631 0.45364 0.02522 0.0
C667 C 0.95216 0.5095 0.02868 0.0
C668 C 0.95565 0.45797 0.96931 0.0
C669 C 0.96876 0.53907 0.95797 0.0
O670 O 0.05685 0.51661 0.01873 0.0
O671 O 0.02302 0.52892 0.00131 0.0
H672 H 0.0025 0.18938 0.05559 0.0
H673 H 0.0251 0.15594 0.12094 0.0
H674 H 0.00182 0.15059 0.0353 0.0
H675 H 0.02442 0.11732 0.10058 0.0
H676 H 0.00326 0.07913 0.00152 0.0
H677 H 0.02365 0.11295 0.0216 0.0
H678 H 0.98636 0.09609 0.08741 0.0
H679 H 0.96595 0.06278 0.0672 0.0
C680 C 0.00786 0.17389 0.06548 0.0
C681 C 0.01324 0.17573 0.09004 0.0
C682 C 0.0077 0.15168 0.05379 0.0
C683 C 0.01284 0.13091 0.06646 0.0
C684 C 0.02013 0.133 0.09046 0.0
C685 C 0.02041 0.15517 0.10211 0.0
C686 C 0.00031 0.08219 0.02052 0.0
C687 C 0.98319 0.06857 0.03298 0.0
C688 C 0.01178 0.10158 0.03194 0.0
C689 C 0.00636 0.10731 0.05597 0.0
C690 C 0.99106 0.09205 0.06894 0.0
C691 C 0.97935 0.07298 0.05744 0.0
H692 H 0.04118 0.71113 0.29836 0.0
H693 H 0.08094 0.75539 0.349 0.0
H694 H 0.07608 0.71176 0.27103 0.0
H695 H 0.11529 0.7564 0.3216 0.0
H696 H 0.16884 0.76703 0.26453 0.0
H697 H 0.12651 0.77059 0.27736 0.0
H698 H 0.1201 0.69406 0.2794 0.0
H699 H 0.16242 0.69054 0.26728 0.0
C700 C 0.05726 0.72112 0.30352 0.0
C701 C 0.05852 0.73298 0.32587 0.0
C702 C 0.07704 0.72162 0.28785 0.0
C703 C 0.09808 0.73446 0.29411 0.0
C704 C 0.09904 0.74679 0.31617 0.0
C705 C 0.07954 0.7459 0.33199 0.0
C706 C 0.15804 0.75102 0.26679 0.0
C707 C 0.16876 0.72853 0.26531 0.0
C708 C 0.13394 0.75305 0.27419 0.0
C709 C 0.12031 0.73259 0.27958 0.0
C710 C 0.13026 0.71007 0.27527 0.0
C711 C 0.15444 0.70806 0.26844 0.0
H712 H 0.46624 0.83948 0.59845 0.0
H713 H 0.49789 0.80469 0.53639 0.0
H714 H 0.46902 0.87762 0.57846 0.0
H715 H 0.50071 0.8429 0.51648 0.0
H716 H 0.53156 0.93159 0.55444 0.0
H717 H 0.50865 0.8984 0.57104 0.0
H718 H 0.48155 0.88023 0.50041 0.0
H719 H 0.50456 0.91383 0.48392 0.0
C720 C 0.47329 0.83988 0.58033 0.0
C721 C 0.48249 0.8192 0.56921 0.0
C722 C 0.47479 0.86172 0.5689 0.0
C723 C 0.4854 0.86327 0.5461 0.0
C724 C 0.49235 0.84224 0.53403 0.0
C725 C 0.49094 0.82037 0.54551 0.0
C726 C 0.52001 0.92096 0.5427 0.0
C727 C 0.51977 0.9249 0.51805 0.0
C728 C 0.50679 0.90205 0.55215 0.0
C729 C 0.4935 0.88659 0.53694 0.0
C730 C 0.49181 0.89177 0.51245 0.0
C731 C 0.50484 0.91093 0.50306 0.0
H732 H 0.41734 0.2474 0.87408 0.0
H733 H 0.43175 0.21383 0.80538 0.0
H734 H 0.37538 0.25435 0.8619 0.0
H735 H 0.3898 0.22022 0.79359 0.0
H736 H 0.34489 0.28125 0.76774 0.0
H737 H 0.37906 0.27133 0.79293 0.0
H738 H 0.33249 0.2282 0.83701 0.0
H739 H 0.29827 0.23756 0.8112 0.0
C740 C 0.41119 0.24053 0.85686 0.0
C741 C 0.42766 0.23058 0.84035 0.0
C742 C 0.3873 0.24453 0.84998 0.0
C743 C 0.37989 0.23823 0.82675 0.0
C744 C 0.3955 0.22548 0.8115 0.0
C745 C 0.41936 0.22183 0.81819 0.0
C746 C 0.34166 0.27036 0.78327 0.0
C747 C 0.31892 0.25982 0.78735 0.0
C748 C 0.36121 0.26465 0.7976 0.0
C749 C 0.35822 0.24864 0.81637 0.0
C750 C 0.33505 0.24047 0.82244 0.0
C751 C 0.31545 0.24606 0.80789 0.0
H752 H 0.98944 0.84394 0.34625 0.0
H753 H 0.00114 0.8118 0.41506 0.0
H754 H 0.9781 0.88128 0.36666 0.0
H755 H 0.98995 0.84865 0.43508 0.0
H756 H 0.94684 0.90278 0.4681 0.0
H757 H 0.95002 0.87031 0.43882 0.0
H758 H -0.00242 0.91332 0.39546 0.0
H759 H -0.00609 0.9461 0.42461 0.0
C760 C 0.98994 0.84495 0.36564 0.0
C761 C -0.0041 0.82489 0.37909 0.0
C762 C 0.98329 0.86619 0.37724 0.0
C763 C 0.98243 0.86749 0.40237 0.0
C764 C 0.98966 0.84783 0.41566 0.0
C765 C -0.00369 0.8268 0.40418 0.0
C766 C 0.95725 0.90558 0.45189 0.0
C767 C 0.97054 0.92667 0.44876 0.0
C768 C 0.95914 0.88702 0.43521 0.0
C769 C 0.97465 0.88917 0.41537 0.0
C770 C 0.98562 0.91123 0.41072 0.0
C771 C 0.98349 0.92998 0.42735 0.0
H772 H 0.42613 0.75186 0.6968 0.0
H773 H 0.40908 0.75788 0.62164 0.0
H774 H 0.3842 0.75931 0.70709 0.0
H775 H 0.36652 0.76502 0.63207 0.0
H776 H 0.30528 0.71626 0.67376 0.0
H777 H 0.33847 0.73337 0.6509 0.0
H778 H 0.34808 0.78781 0.7057 0.0
H779 H 0.31452 0.77057 0.72843 0.0
C780 C 0.41341 0.75499 0.68248 0.0
C781 C 0.42073 0.75378 0.65842 0.0
C782 C 0.38946 0.75977 0.68839 0.0
C783 C 0.37215 0.76306 0.67036 0.0
C784 C 0.37959 0.76281 0.64628 0.0
C785 C 0.40381 0.75848 0.64035 0.0
C786 C 0.31353 0.73276 0.68011 0.0
C787 C 0.30785 0.742 0.70288 0.0
C788 C 0.33249 0.74264 0.667 0.0
C789 C 0.34628 0.76143 0.67696 0.0
C790 C 0.33787 0.7731 0.69784 0.0
C791 C 0.31863 0.76335 0.7108 0.0
H792 H 0.46207 0.17345 0.93126 0.0
H793 H 0.52177 0.20921 0.96695 0.0
H794 H 0.46349 0.14177 0.96018 0.0
H795 H 0.52347 0.17703 -0.00403 0.0
H796 H 0.46997 0.08277 0.00516 0.0
H797 H 0.46312 0.12559 0.00271 0.0
H798 H 0.5376 0.13604 0.98125 0.0
H799 H 0.54426 0.09346 0.98329 0.0
C800 C 0.47504 0.17484 0.94576 0.0
C801 C 0.49219 0.19338 0.94659 0.0
C802 C 0.47565 0.15686 0.96256 0.0
C803 C 0.49373 0.15687 0.98023 0.0
C804 C 0.50939 0.17664 0.98249 0.0
C805 C 0.50848 0.19494 0.96586 0.0
C806 C 0.4851 0.09439 0.00094 0.0
C807 C 0.50745 0.08494 -0.00629 0.0
C808 C 0.48118 0.11886 -0.0004 0.0
C809 C 0.4997 0.13402 0.99138 0.0
C810 C 0.52299 0.12482 0.98765 0.0
C811 C 0.52676 0.1004 0.98855 0.0
H812 H 0.0409 0.25252 0.18642 0.0
H813 H 0.0819 0.2839 0.1288 0.0
H814 H 0.07756 0.25246 0.21135 0.0
H815 H 0.11807 0.28419 0.1537 0.0
H816 H 0.17088 0.30529 0.20917 0.0
H817 H 0.1294 0.30619 0.19466 0.0
H818 H 0.12225 0.23069 0.20583 0.0
H819 H 0.16421 0.22972 0.22057 0.0
C820 C 0.05764 0.25964 0.17922 0.0
C821 C 0.05862 0.2683 0.15572 0.0
C822 C 0.07854 0.25946 0.19341 0.0
C823 C 0.10047 0.26845 0.18443 0.0
C824 C 0.10127 0.27739 0.16109 0.0
C825 C 0.08062 0.27717 0.14683 0.0
C826 C 0.16029 0.28896 0.20913 0.0
C827 C 0.17081 0.26735 0.21556 0.0
C828 C 0.13659 0.28951 0.20083 0.0
C829 C 0.12292 0.26846 0.19876 0.0
C830 C 0.13254 0.24715 0.20732 0.0
C831 C 0.15645 0.24659 0.21574 0.0
H832 H 0.09713 0.00692 0.16427 0.0
H833 H 0.0419 0.97145 0.20581 0.0
H834 H 0.06888 0.01042 0.1311 0.0
H835 H 0.01368 0.97429 0.17195 0.0
H836 H 0.01166 0.94853 0.08531 0.0
H837 H 0.02279 0.95269 0.12752 0.0
H838 H 0.02395 0.02908 0.12111 0.0
H839 H 0.01187 0.02493 0.07895 0.0
C840 C 0.07889 -3e-05 0.16631 0.0
C841 C 0.07173 0.98859 0.18738 0.0
C842 C 0.06265 0.00231 0.1475 0.0
C843 C 0.03912 -0.00713 0.14921 0.0
C844 C 0.03169 0.98194 0.17046 0.0
C845 C 0.04782 0.98016 0.18963 0.0
C846 C 0.01324 0.9662 0.09326 0.0
C847 C 0.01123 0.98641 0.07905 0.0
C848 C 0.01944 0.96858 0.11737 0.0
C849 C 0.02435 0.99118 0.12733 0.0
C850 C 0.02013 0.0115 0.11371 0.0
C851 C 0.01325 0.00913 0.0897 0.0
H852 H 0.22003 0.87281 0.39788 0.0
H853 H 0.28587 0.84651 0.42884 0.0
H854 H 0.2281 0.84985 0.3611 0.0
H855 H 0.2948 0.82482 0.39185 0.0
H856 H 0.27717 0.7594 0.34483 0.0
H857 H 0.27773 0.78967 0.37596 0.0
H858 H 0.25213 0.84138 0.32566 0.0
H859 H 0.25078 0.81034 0.29431 0.0
C860 C 0.23641 0.86241 0.39659 0.0
C861 C 0.25196 0.86072 0.4163 0.0
C862 C 0.24122 0.84951 0.37548 0.0
C863 C 0.26193 0.83517 0.37367 0.0
C864 C 0.27833 0.8351 0.39288 0.0
C865 C 0.27322 0.84745 0.41408 0.0
C866 C 0.27202 0.77729 0.34023 0.0
C867 C 0.26359 0.78242 0.31721 0.0
C868 C 0.27256 0.7948 0.35809 0.0
C869 C 0.26483 0.818 0.3534 0.0
C870 C 0.25788 0.82359 0.32992 0.0
C871 C 0.25734 0.80591 0.31192 0.0
H872 H 0.46006 0.98747 0.70358 0.0
H873 H 0.40569 0.01679 0.65731 0.0
H874 H 0.48777 0.98365 0.6692 0.0
H875 H 0.43349 0.01313 0.62327 0.0
H876 H 0.51044 0.03586 0.58924 0.0
H877 H 0.49236 0.03276 0.62904 0.0
H878 H 0.46826 0.96129 0.61206 0.0
H879 H 0.48643 0.96417 0.57206 0.0
C880 C 0.45412 -0.0068 0.68614 0.0
C881 C 0.43081 0.00252 0.68304 0.0
C882 C 0.46986 0.99084 0.66659 0.0
C883 C 0.46247 -0.00205 0.64387 0.0
C884 C 0.4393 0.00734 0.64075 0.0
C885 C 0.42351 0.00949 0.66016 0.0
C886 C 0.50212 0.01914 0.5943 0.0
C887 C 0.49945 0.0004 0.57749 0.0
C888 C 0.49185 0.01741 0.61703 0.0
C889 C 0.47895 -0.00312 0.62326 0.0
C890 C 0.47833 0.97721 0.60746 0.0
C891 C 0.48876 0.97887 0.58468 0.0
H892 H 0.28735 0.12765 0.90431 0.0
H893 H 0.26366 0.19392 0.93646 0.0
H894 H 0.28938 0.14636 0.86527 0.0
H895 H 0.265 0.21239 0.89761 0.0
H896 H 0.23109 0.1727 0.80951 0.0
H897 H 0.25435 0.15574 0.84195 0.0
H898 H 0.28181 0.22587 0.86104 0.0
H899 H 0.25743 0.24268 0.82915 0.0
C900 C 0.28312 0.14636 0.90313 0.0
C901 C 0.27451 0.15917 0.92322 0.0
C902 C 0.2843 0.15706 0.88078 0.0
C903 C 0.27672 0.18064 0.87818 0.0
C904 C 0.27099 0.19417 0.89886 0.0
C905 C 0.26996 0.18353 0.9212 0.0
C906 C 0.2429 0.18421 0.82012 0.0
C907 C 0.24287 0.20881 0.81695 0.0
C908 C 0.25638 0.17457 0.83862 0.0
C909 C 0.26971 0.18954 0.85435 0.0
C910 C 0.27142 0.21394 0.8495 0.0
C911 C 0.25769 0.22354 0.83118 0.0
H912 H 0.08961 0.03663 0.33581 0.0
H913 H 0.09679 0.96172 0.31939 0.0
H914 H 0.07871 0.02729 0.37699 0.0
H915 H 0.08453 0.95226 0.3605 0.0
H916 H 0.00586 0.98218 0.40134 0.0
H917 H 0.03688 0.96875 0.37326 0.0
H918 H 0.09203 0.00102 0.41812 0.0
H919 H 0.06093 0.01352 0.44677 0.0
C920 C 0.08948 0.01823 0.34128 0.0
C921 C 0.09379 -0.00011 0.32462 0.0
C922 C 0.08355 0.01286 0.36483 0.0
C923 C 0.08106 0.98905 0.37183 0.0
C924 C 0.0868 0.97069 0.35555 0.0
C925 C 0.0936 0.97613 0.33212 0.0
C926 C 0.02473 0.98471 0.40607 0.0
C927 C 0.03121 -0.00113 0.42593 0.0
C928 C 0.04252 0.97702 0.39004 0.0
C929 C 0.06668 0.98433 0.39344 0.0
C930 C 0.07349 -0.00479 0.41524 0.0
C931 C 0.05571 0.00242 0.43153 0.0
H932 H 0.27602 0.8383 0.57723 0.0
H933 H 0.22685 0.79426 0.53538 0.0
H934 H 0.27157 0.8114 0.61079 0.0
H935 H 0.22217 0.76744 0.56922 0.0
H936 H 0.2662 0.75673 0.66643 0.0
H937 H 0.277 0.76875 0.62591 0.0
H938 H 0.20131 0.77744 0.60942 0.0
H939 H 0.1905 0.76575 0.64997 0.0
C940 C 0.26462 0.82263 0.57505 0.0
C941 C 0.25151 0.81858 0.55381 0.0
C942 C 0.26223 0.8071 0.5942 0.0
C943 C 0.24643 0.78738 0.59263 0.0
C944 C 0.23439 0.78256 0.57091 0.0
C945 C 0.23709 0.79791 0.55158 0.0
C946 C 0.25181 0.76037 0.65391 0.0
C947 C 0.22749 0.76062 0.66148 0.0
C948 C 0.25803 0.7674 0.63076 0.0
C949 C 0.24001 0.77432 0.61465 0.0
C950 C 0.21558 0.77214 0.62143 0.0
C951 C 0.20938 0.76553 0.64469 0.0
H952 H 0.37937 0.00608 0.82361 0.0
H953 H 0.44109 0.95939 0.8257 0.0
H954 H 0.37874 0.00803 0.86731 0.0
H955 H 0.44044 0.96148 0.8692 0.0
H956 H 0.43306 0.03803 0.92932 0.0
H957 H 0.41018 0.02823 0.89329 0.0
H958 H 0.41753 0.95339 0.90772 0.0
H959 H 0.44032 0.96344 0.94409 0.0
C960 C 0.39264 -0.00397 0.83336 0.0
C961 C 0.41061 0.98292 0.8212 0.0
C962 C 0.39208 -0.003 0.85836 0.0
C963 C 0.40935 0.98475 0.87162 0.0
C964 C 0.42654 0.97071 0.85946 0.0
C965 C 0.4272 0.96984 0.83451 0.0
C966 C 0.42845 0.01957 0.92552 0.0
C967 C 0.43864 0.00143 0.93899 0.0
C968 C 0.41536 0.0139 0.90489 0.0
C969 C 0.41279 0.99003 0.8974 0.0
C970 C 0.41967 0.97193 0.91299 0.0
C971 C 0.4325 0.97765 0.93386 0.0
H972 H 0.26136 0.17318 0.05014 0.0
H973 H 0.25247 0.10877 0.09049 0.0
H974 H 0.26897 0.19547 0.08689 0.0
H975 H 0.26111 0.13104 0.12752 0.0
H976 H 0.24282 0.18739 0.1876 0.0
H977 H 0.24298 0.15945 0.1537 0.0
H978 H 0.29638 0.20323 0.11809 0.0
H979 H 0.29507 0.23173 0.15142 0.0
C980 C 0.26135 0.16369 0.06687 0.0
C981 C 0.25616 0.13921 0.06736 0.0
C982 C 0.266 0.17646 0.08802 0.0
C983 C 0.2659 0.16508 0.11029 0.0
C984 C 0.2611 0.14046 0.11076 0.0
C985 C 0.25618 0.12768 0.08953 0.0
C986 C 0.25499 0.1907 0.17274 0.0
C987 C 0.26861 0.2119 0.17188 0.0
C988 C 0.25513 0.17466 0.15328 0.0
C989 C 0.26921 0.17938 0.13279 0.0
C990 C 0.28465 0.19945 0.13315 0.0
C991 C 0.28411 0.21568 0.15234 0.0
H992 H 0.18454 0.06206 0.96416 0.0
H993 H 0.15729 0.13139 0.98422 0.0
H994 H 0.14359 0.04654 0.96209 0.0
H995 H 0.11572 0.11576 0.98178 0.0
H996 H 0.05564 0.06221 0.01314 0.0
H997 H 0.09092 0.08781 0.00552 0.0
H998 H 0.10599 0.04725 0.94077 0.0
H999 H 0.07154 0.02121 0.94914 0.0
C1000 C 0.16973 0.0741 0.96781 0.0
C1001 C 0.17418 0.09788 0.9746 0.0
C1002 C 0.14615 0.06526 0.96636 0.0
C1003 C 0.12629 0.07993 0.97164 0.0
C1004 C 0.13064 0.10398 0.97772 0.0
C1005 C 0.15441 0.11292 0.97907 0.0
C1006 C 0.06611 0.05939 -0.00309 0.0
C1007 C 0.06125 0.03973 0.98182 0.0
C1008 C 0.08628 0.07402 -0.00751 0.0
C1009 C 0.10163 0.06915 0.97285 0.0
C1010 C 0.09493 0.05105 0.9564 0.0
C1011 C 0.07513 0.03627 0.96105 0.0
H1012 H 0.70502 0.44514 0.02863 0.0
H1013 H 0.66187 0.39838 0.9833 0.0
H1014 H 0.67141 0.47336 0.03079 0.0
H1015 H 0.62874 0.42664 0.98512 0.0
H1016 H 0.58684 0.48307 0.05523 0.0
H1017 H 0.62802 0.46861 0.04964 0.0
H1018 H 0.61864 0.47009 0.97294 0.0
H1019 H 0.57752 0.48491 0.97846 0.0
C1020 C 0.68847 0.441 0.01898 0.0
C1021 C 0.68598 0.41947 0.00595 0.0
C1022 C 0.66935 0.45718 0.02015 0.0
C1023 C 0.64765 0.45231 0.00785 0.0
C1024 C 0.64544 0.43106 -0.00561 0.0
C1025 C 0.66431 0.41474 -0.0064 0.0
C1026 C 0.59392 0.48123 0.03718 0.0
C1027 C 0.57884 0.48467 0.01729 0.0
C1028 C 0.61751 0.47299 0.03399 0.0
C1029 C 0.62623 0.46774 0.01087 0.0
C1030 C 0.61214 0.47372 0.99095 0.0
C1031 C 0.58868 0.48236 -0.00586 0.0
H1032 H 0.87015 0.40268 0.21413 0.0
H1033 H 0.82636 0.44253 0.26477 0.0
H1034 H 0.84413 0.36778 0.2199 0.0
H1035 H 0.80107 0.40771 0.27101 0.0
H1036 H 0.74287 0.35414 0.24668 0.0
H1037 H 0.77147 0.38704 0.24638 0.0
H1038 H 0.83094 0.33779 0.24937 0.0
H1039 H 0.80217 0.30451 0.24914 0.0
C1040 C 0.85509 0.40393 0.22654 0.0
C1041 C 0.84996 0.42543 0.2386 0.0
C1042 C 0.84038 0.38393 0.23004 0.0
C1043 C 0.82051 0.38514 0.24578 0.0
C1044 C 0.81598 0.40642 0.25842 0.0
C1045 C 0.83045 0.42637 0.25476 0.0
C1046 C 0.76201 0.35024 0.24749 0.0
C1047 C 0.77025 0.32671 0.24769 0.0
C1048 C 0.77841 0.36914 0.24748 0.0
C1049 C 0.80342 0.36494 0.24775 0.0
C1050 C 0.81174 0.34146 0.24884 0.0
C1051 C 0.79527 0.32247 0.24887 0.0
H1052 H 0.8002 0.52837 0.4914 0.0
H1053 H 0.8174 0.59568 0.45874 0.0
H1054 H 0.84186 0.51585 0.48545 0.0
H1055 H 0.8591 0.58308 0.45296 0.0
H1056 H 0.91594 0.49681 0.48179 0.0
H1057 H 0.87986 0.50825 0.45945 0.0
H1058 H 0.88545 0.57916 0.49019 0.0
H1059 H 0.92086 0.56745 0.51277 0.0
C1060 C 0.81266 0.54022 0.48236 0.0
C1061 C 0.80572 0.5633 0.47631 0.0
C1062 C 0.83648 0.53293 0.47864 0.0
C1063 C 0.85373 0.54865 0.46895 0.0
C1064 C 0.84615 0.57072 0.46057 0.0
C1065 C 0.82231 0.57796 0.46413 0.0
C1066 C 0.91009 0.51515 0.48266 0.0
C1067 C 0.92073 0.53131 0.499 0.0
C1068 C 0.88946 0.52165 0.47 0.0
C1069 C 0.87966 0.54442 0.47347 0.0
C1070 C 0.89262 0.5615 0.4871 0.0
C1071 C 0.91287 0.55486 0.50009 0.0
H1072 H 0.11905 0.09488 0.23768 0.0
H1073 H 0.1793 0.05008 0.21817 0.0
H1074 H 0.14459 0.1299 0.23393 0.0
H1075 H 0.20477 0.08538 0.21317 0.0
H1076 H 0.24407 0.14299 0.26042 0.0
H1077 H 0.22199 0.10979 0.24298 0.0
H1078 H 0.16962 0.15824 0.21402 0.0
H1079 H 0.19205 0.19186 0.23233 0.0
C1080 C 0.13766 0.09254 0.23202 0.0
C1081 C 0.14738 0.06967 0.22895 0.0
C1082 C 0.15228 0.11273 0.22951 0.0
C1083 C 0.17692 0.11055 0.22357 0.0
C1084 C 0.18603 0.08771 0.21836 0.0
C1085 C 0.17149 0.06746 0.22129 0.0
C1086 C 0.22822 0.1466 0.24971 0.0
C1087 C 0.21932 0.16977 0.24817 0.0
C1088 C 0.2156 0.12752 0.23944 0.0
C1089 C 0.19363 0.13118 0.22749 0.0
C1090 C 0.1862 0.15477 0.2236 0.0
C1091 C 0.19906 0.17403 0.23387 0.0
H1092 H 0.32693 0.91109 0.52522 0.0
H1093 H 0.32261 0.91675 0.44842 0.0
H1094 H 0.37041 0.91851 0.52349 0.0
H1095 H 0.36635 0.92206 0.44611 0.0
H1096 H 0.43201 0.97218 0.45779 0.0
H1097 H 0.39308 0.95239 0.4535 0.0
H1098 H 0.40962 0.90826 0.51411 0.0
H1099 H 0.44801 0.92979 0.51924 0.0
C1100 C 0.33552 0.91352 0.50795 0.0
C1101 C 0.32167 0.91404 0.48704 0.0
C1102 C 0.36049 0.91738 0.50681 0.0
C1103 C 0.37206 0.92109 0.48462 0.0
C1104 C 0.35809 0.92 0.46357 0.0
C1105 C 0.33307 0.91695 0.46483 0.0
C1106 C 0.42748 0.95775 0.46968 0.0
C1107 C 0.44255 0.95248 0.4889 0.0
C1108 C 0.40518 0.94625 0.46724 0.0
C1109 C 0.39781 0.92899 0.48382 0.0
C1110 C 0.41431 0.92201 0.50153 0.0
C1111 C 0.43638 0.93402 0.50432 0.0
H1112 H 0.80021 0.55315 0.25029 0.0
H1113 H 0.86155 0.5807 0.29034 0.0
H1114 H 0.7818 0.59244 0.25179 0.0
H1115 H 0.84294 0.61979 0.29211 0.0
H1116 H 0.82765 0.68508 0.24575 0.0
H1117 H 0.83945 0.64498 0.25538 0.0
H1118 H 0.76593 0.62823 0.27609 0.0
H1119 H 0.75384 0.66872 0.2664 0.0
C1120 C 0.80937 0.56739 0.26008 0.0
C1121 C 0.83261 0.56412 0.2696 0.0
C1122 C 0.79878 0.58983 0.26101 0.0
C1123 C 0.8113 0.60916 0.27154 0.0
C1124 C 0.83323 0.60521 0.28341 0.0
C1125 C 0.84384 0.58285 0.28243 0.0
C1126 C 0.81392 0.67296 0.25239 0.0
C1127 C 0.78979 0.6801 0.25524 0.0
C1128 C 0.82076 0.65005 0.25816 0.0
C1129 C 0.80366 0.63371 0.26688 0.0
C1130 C 0.77945 0.64061 0.26952 0.0
C1131 C 0.77257 0.6637 0.26387 0.0
H1132 H 0.64996 0.41076 0.78997 0.0
H1133 H 0.70366 0.43568 0.73969 0.0
H1134 H 0.67004 0.37241 0.79143 0.0
H1135 H 0.72343 0.39715 0.74067 0.0
H1136 H 0.75538 0.32669 0.7413 0.0
H1137 H 0.74428 0.36458 0.7605 0.0
H1138 H 0.66908 0.34248 0.75939 0.0
H1139 H 0.68041 0.30483 0.74046 0.0
C1140 C 0.66633 0.40818 0.77957 0.0
C1141 C 0.67491 0.42595 0.7642 0.0
C1142 C 0.67783 0.38622 0.78044 0.0
C1143 C 0.69801 0.38155 0.76583 0.0
C1144 C 0.70797 0.40016 0.75226 0.0
C1145 C 0.69654 0.42222 0.75152 0.0
C1146 C 0.73664 0.32968 0.7462 0.0
C1147 C 0.71866 0.31305 0.73966 0.0
C1148 C 0.73027 0.35138 0.75696 0.0
C1149 C 0.70578 0.35669 0.76116 0.0
C1150 C 0.68813 0.33893 0.75664 0.0
C1151 C 0.69453 0.31735 0.74578 0.0
H1152 H -0.00625 0.84629 0.86322 0.0
H1153 H -0.00755 0.8106 0.93113 0.0
H1154 H 0.98687 0.88421 0.8837 0.0
H1155 H 0.98646 0.84867 0.95176 0.0
H1156 H 0.02526 0.94149 0.93302 0.0
H1157 H 0.01391 0.90804 0.90722 0.0
H1158 H 0.96315 0.88396 0.96096 0.0
H1159 H 0.9751 0.91768 0.98697 0.0
C1160 C -0.00812 0.84653 0.88255 0.0
C1161 C -0.00583 0.82552 0.89563 0.0
C1162 C 0.98787 0.86827 0.89428 0.0
C1163 C 0.9864 0.86959 0.91941 0.0
C1164 C 0.98721 0.84834 0.93237 0.0
C1165 C 0.99093 0.82651 0.92058 0.0
C1166 C 0.01088 0.92962 0.93878 0.0
C1167 C 0.00097 0.93201 0.96178 0.0
C1168 C 0.00433 0.91039 0.92403 0.0
C1169 C 0.98791 0.893 0.93219 0.0
C1170 C 0.97617 0.89681 0.95435 0.0
C1171 C 0.98271 0.91622 0.96909 0.0
H1172 H 0.94691 0.22447 0.69556 0.0
H1173 H 0.93646 0.27613 0.64019 0.0
H1174 H 0.90444 0.22833 0.70729 0.0
H1175 H 0.89458 0.28074 0.65244 0.0
H1176 H 0.81507 0.2622 0.65994 0.0
H1177 H 0.85779 0.25917 0.65002 0.0
H1178 H 0.87506 0.25403 0.72527 0.0
H1179 H 0.83211 0.25609 0.73512 0.0
C1180 C 0.93562 0.23686 0.68613 0.0
C1181 C 0.94489 0.24979 0.66681 0.0
C1182 C 0.91134 0.23917 0.6929 0.0
C1183 C 0.89601 0.25469 0.68064 0.0
C1184 C 0.90565 0.26818 0.66187 0.0
C1185 C 0.92973 0.26563 0.65493 0.0
C1186 C 0.82799 0.26059 0.67439 0.0
C1187 C 0.82022 0.25945 0.69831 0.0
C1188 C 0.85253 0.25894 0.66872 0.0
C1189 C 0.86992 0.25646 0.68687 0.0
C1190 C 0.86215 0.25559 0.71083 0.0
C1191 C 0.83754 0.25695 0.71648 0.0
H1192 H 0.51864 0.15876 0.39014 0.0
H1193 H 0.46177 0.19041 0.43266 0.0
H1194 H 0.51278 0.12128 0.41039 0.0
H1195 H 0.45413 0.15234 0.45162 0.0
H1196 H 0.46466 0.09081 0.50122 0.0
H1197 H 0.46836 0.12739 0.47939 0.0
H1198 H 0.49092 0.0874 0.41628 0.0
H1199 H 0.48914 0.05082 0.43924 0.0
C1200 C 0.50455 0.15747 0.40362 0.0
C1201 C 0.49078 0.17742 0.41007 0.0
C1202 C 0.50095 0.13586 0.41509 0.0
C1203 C 0.48294 0.13348 0.43281 0.0
C1204 C 0.46864 0.15346 0.43862 0.0
C1205 C 0.47283 0.1753 0.42767 0.0
C1206 C 0.47026 0.08985 0.48261 0.0
C1207 C 0.47661 0.06803 0.47187 0.0
C1208 C 0.47221 0.1109 0.46993 0.0
C1209 C 0.47988 0.11066 0.44587 0.0
C1210 C 0.48549 0.08855 0.4349 0.0
C1211 C 0.48427 0.06749 0.44792 0.0
H1212 H 0.57831 0.77105 0.17298 0.0
H1213 H 0.59709 0.74495 0.10203 0.0
H1214 H 0.61562 0.75478 0.18854 0.0
H1215 H 0.63484 0.72865 0.11797 0.0
H1216 H 0.70482 0.74412 0.1825 0.0
H1217 H 0.67546 0.75155 0.15087 0.0
H1218 H 0.62529 0.7027 0.18378 0.0
H1219 H 0.6542 0.69578 0.21572 0.0
C1220 C 0.59059 0.76223 0.16062 0.0
C1221 C 0.5846 0.75892 0.1364 0.0
C1222 C 0.61184 0.75283 0.16955 0.0
C1223 C 0.62755 0.74008 0.15444 0.0
C1224 C 0.62269 0.73822 0.12987 0.0
C1225 C 0.60122 0.74762 0.12085 0.0
C1226 C 0.68802 0.73409 0.18233 0.0
C1227 C 0.68127 0.72021 0.20204 0.0
C1228 C 0.6713 0.73827 0.16416 0.0
C1229 C 0.6481 0.72808 0.16544 0.0
C1230 C 0.64311 0.71087 0.18272 0.0
C1231 C 0.65961 0.70698 0.201 0.0
H1232 H -0.00464 0.18294 0.56762 0.0
H1233 H 0.03767 0.15488 0.62569 0.0
H1234 H -0.00111 0.14535 0.54598 0.0
H1235 H 0.04088 0.11677 0.60364 0.0
H1236 H 0.03638 0.09258 0.50072 0.0
H1237 H 0.04231 0.12461 0.5301 0.0
H1238 H 0.00376 0.08397 0.58307 0.0
H1239 H -0.00232 0.05171 0.55351 0.0
C1240 C 0.00533 0.16875 0.57585 0.0
C1241 C 0.01648 0.17202 0.59826 0.0
C1242 C 0.00737 0.14727 0.56341 0.0
C1243 C 0.02047 0.12853 0.57309 0.0
C1244 C 0.03083 0.13118 0.59589 0.0
C1245 C 0.02894 0.1529 0.60841 0.0
C1246 C 0.02968 0.09017 0.51879 0.0
C1247 C 0.01601 0.06991 0.52474 0.0
C1248 C 0.03324 0.10841 0.53559 0.0
C1249 C 0.0232 0.10669 0.55858 0.0
C1250 C 0.01172 0.08551 0.5654 0.0
C1251 C 0.00818 0.06713 0.5485 0.0
H1252 H 0.59733 0.26726 0.37255 0.0
H1253 H 0.57302 0.20091 0.34058 0.0
H1254 H 0.63644 0.26286 0.35265 0.0
H1255 H 0.61257 0.19551 0.32187 0.0
H1256 H 0.64974 0.23118 0.25578 0.0
H1257 H 0.62419 0.21673 0.28775 0.0
H1258 H 0.67429 0.24619 0.34017 0.0
H1259 H 0.69963 0.26119 0.30747 0.0
C1260 C 0.60081 0.25124 0.36208 0.0
C1261 C 0.58217 0.23477 0.3574 0.0
C1262 C 0.62329 0.24854 0.35081 0.0
C1263 C 0.62743 0.22911 0.33505 0.0
C1264 C 0.60972 0.21104 0.33325 0.0
C1265 C 0.58711 0.21409 0.34395 0.0
C1266 C 0.65575 0.23361 0.27414 0.0
C1267 C 0.67643 0.24721 0.27938 0.0
C1268 C 0.64119 0.22523 0.2926 0.0
C1269 C 0.64691 0.23067 0.31669 0.0
C1270 C 0.66917 0.24206 0.32184 0.0
C1271 C 0.68382 0.25038 0.30322 0.0
H1272 H 0.50373 0.79808 0.03865 0.0
H1273 H 0.46162 0.82897 0.09635 0.0
H1274 H 0.49682 0.83352 0.01462 0.0
H1275 H 0.45471 0.86397 0.07266 0.0
H1276 H 0.51533 0.91789 0.01314 0.0
H1277 H 0.51309 0.87508 0.02046 0.0
H1278 H 0.43695 0.88137 0.03714 0.0
H1279 H 0.43958 0.92413 0.03075 0.0
C1280 C 0.4925 0.81216 0.04592 0.0
C1281 C 0.48347 0.81101 0.06946 0.0
C1282 C 0.48863 0.83242 0.03223 0.0
C1283 C 0.47531 0.85157 0.04175 0.0
C1284 C 0.46482 0.84947 0.06461 0.0
C1285 C 0.46895 0.82948 0.07833 0.0
C1286 C 0.498 0.90985 0.0175 0.0
C1287 C 0.47772 0.92411 0.02183 0.0
C1288 C 0.49664 0.88537 0.02161 0.0
C1289 C 0.47494 0.87499 0.02992 0.0
C1290 C 0.45402 0.88897 0.03129 0.0
C1291 C 0.45549 0.91338 0.02757 0.0
H1292 H 0.93184 0.72818 0.84426 0.0
H1293 H 0.95146 0.76908 0.78212 0.0
H1294 H 0.89194 0.72084 0.82745 0.0
H1295 H 0.91128 0.7614 0.76511 0.0
H1296 H 0.82501 0.76477 0.76372 0.0
H1297 H 0.86771 0.77167 0.77367 0.0
H1298 H 0.87406 0.69816 0.79382 0.0
H1299 H 0.83158 0.69142 0.78439 0.0
C1300 C 0.92771 0.7355 0.82694 0.0
C1301 C 0.9449 0.74913 0.81452 0.0
C1302 C 0.90486 0.73115 0.81721 0.0
C1303 C 0.89858 0.74031 0.79482 0.0
C1304 C 0.91563 0.75414 0.78241 0.0
C1305 C 0.93864 0.75844 0.79213 0.0
C1306 C 0.83572 0.75 0.76976 0.0
C1307 C 0.8249 0.72766 0.77367 0.0
C1308 C 0.86014 0.75395 0.77546 0.0
C1309 C 0.87405 0.73556 0.78501 0.0
C1310 C 0.86362 0.71282 0.78709 0.0
C1311 C 0.83931 0.70894 0.78158 0.0
H1312 H 0.9676 0.97751 0.79501 0.0
H1313 H 0.90043 0.01357 0.81061 0.0
H1314 H 0.98153 0.98637 0.83582 0.0
H1315 H 0.91395 0.02173 0.85111 0.0
H1316 H 0.94689 0.04944 0.9171 0.0
H1317 H 0.94223 0.04504 0.87391 0.0
H1318 H 0.97199 0.97431 0.87668 0.0
H1319 H 0.97762 0.97919 0.91993 0.0
C1320 C 0.95587 0.98739 0.80707 0.0
C1321 C 0.9329 -0.00515 0.79956 0.0
C1322 C 0.96381 0.99237 0.83044 0.0
C1323 C 0.94893 0.0049 0.84666 0.0
C1324 C 0.92613 0.01253 0.83895 0.0
C1325 C 0.91826 0.00765 0.81571 0.0
C1326 C 0.95275 0.03309 0.90841 0.0
C1327 C 0.9622 0.01449 0.92184 0.0
C1328 C 0.95002 0.03053 0.8837 0.0
C1329 C 0.95621 0.00912 0.87195 0.0
C1330 C 0.96711 0.99105 0.88518 0.0
C1331 C 0.97022 -0.00622 0.90994 0.0
H1332 H 0.69405 0.11403 0.58236 0.0
H1333 H 0.76267 0.15067 0.57461 0.0
H1334 H 0.6918 0.12759 0.62426 0.0
H1335 H 0.76063 0.16367 0.61651 0.0
H1336 H 0.75776 0.1782 0.69365 0.0
H1337 H 0.75749 0.14805 0.66145 0.0
H1338 H 0.68811 0.17317 0.63774 0.0
H1339 H 0.68864 0.2036 0.66942 0.0
C1340 C 0.70889 0.12452 0.58976 0.0
C1341 C 0.72841 0.1316 0.57521 0.0
C1342 C 0.7076 0.13215 0.6137 0.0
C1343 C 0.72613 0.14644 0.62358 0.0
C1344 C 0.7463 0.15233 0.6094 0.0
C1345 C 0.74732 0.14517 0.58536 0.0
C1346 C 0.74198 0.17656 0.68222 0.0
C1347 C 0.72339 0.19338 0.68368 0.0
C1348 C 0.74191 0.15942 0.66376 0.0
C1349 C 0.72295 0.15861 0.64701 0.0
C1350 C 0.7029 0.17342 0.65047 0.0
C1351 C 0.70322 0.19085 0.66855 0.0
H1352 H 0.53191 0.02338 0.29239 0.0
H1353 H 0.56619 0.95475 0.29357 0.0
H1354 H 0.52416 0.02109 0.33548 0.0
H1355 H 0.55776 0.95202 0.33628 0.0
H1356 H 0.57917 0.97393 0.41169 0.0
H1357 H 0.57802 0.97404 0.36831 0.0
H1358 H 0.50534 0.0017 0.37055 0.0
H1359 H 0.50659 0.00204 0.41439 0.0
C1360 C 0.53686 0.00738 0.30168 0.0
C1361 C 0.54995 0.98938 0.28983 0.0
C1362 C 0.53251 0.0061 0.32636 0.0
C1363 C 0.54102 0.98669 0.33937 0.0
C1364 C 0.55169 0.96755 0.32687 0.0
C1365 C 0.55629 0.96898 0.30239 0.0
C1366 C 0.5629 0.98008 0.40305 0.0
C1367 C 0.54289 0.98777 0.41657 0.0
C1368 C 0.56216 0.97992 0.37811 0.0
C1369 C 0.54136 0.98734 0.36597 0.0
C1370 C 0.52156 -0.00424 0.3794 0.0
C1371 C 0.52231 -0.00405 0.4045 0.0
H1372 H 0.72378 0.85657 0.10198 0.0
H1373 H 0.71736 0.79114 0.06059 0.0
H1374 H 0.72622 0.83405 0.13857 0.0
H1375 H 0.71965 0.76844 0.09757 0.0
H1376 H 0.72924 0.79157 0.20336 0.0
H1377 H 0.70796 0.80549 0.16767 0.0
H1378 H 0.75653 0.76461 0.12263 0.0
H1379 H 0.77763 0.75116 0.15798 0.0
C1380 C 0.7225 0.83735 0.10073 0.0
C1381 C 0.72101 0.82558 0.07837 0.0
C1382 C 0.72351 0.82444 0.12179 0.0
C1383 C 0.7232 0.79947 0.12093 0.0
C1384 C 0.72007 0.78769 0.09869 0.0
C1385 C 0.71891 0.80066 0.07756 0.0
C1386 C 0.73479 0.78515 0.1858 0.0
C1387 C 0.75522 0.77074 0.18316 0.0
C1388 C 0.72269 0.79306 0.16544 0.0
C1389 C 0.73077 0.78632 0.14237 0.0
C1390 C 0.74974 0.76999 0.1401 0.0
C1391 C 0.762 0.76248 0.16031 0.0
H1392 H 0.86362 0.00952 0.64894 0.0
H1393 H 0.93745 0.00459 0.67356 0.0
H1394 H 0.87826 0.01862 0.60872 0.0
H1395 H 0.95203 0.01259 0.63368 0.0
H1396 H 0.98063 0.01695 0.56607 0.0
H1397 H 0.95827 0.03537 0.59917 0.0
H1398 H 0.89547 0.99261 0.57991 0.0
H1399 H 0.91756 0.97575 0.54623 0.0
C1400 C 0.88295 0.01046 0.64576 0.0
C1401 C 0.89944 0.00573 0.66415 0.0
C1402 C 0.89133 0.01585 0.62281 0.0
C1403 C 0.91632 0.01618 0.61782 0.0
C1404 C 0.93268 0.01293 0.63675 0.0
C1405 C 0.92432 0.00787 0.65964 0.0
C1406 C 0.96151 0.01305 0.56797 0.0
C1407 C 0.95064 -0.0048 0.55384 0.0
C1408 C 0.94879 0.02315 0.58717 0.0
C1409 C 0.92539 0.01474 0.59279 0.0
C1410 C 0.91347 -0.00053 0.57632 0.0
C1411 C 0.92612 0.98966 0.557 0.0
H1412 H 0.73639 0.21678 0.45256 0.0
H1413 H 0.7912 0.16977 0.42428 0.0
H1414 H 0.73941 0.24085 0.41634 0.0
H1415 H 0.79462 0.19394 0.38862 0.0
H1416 H 0.80541 0.24306 0.33052 0.0
H1417 H 0.80537 0.23546 0.37341 0.0
H1418 H 0.72753 0.22815 0.3722 0.0
H1419 H 0.72763 0.23564 0.32912 0.0
C1420 C 0.74965 0.21209 0.43899 0.0
C1421 C 0.76356 0.19141 0.44114 0.0
C1422 C 0.75124 0.22575 0.41826 0.0
C1423 C 0.76723 0.21927 0.3997 0.0
C1424 C 0.78233 0.19955 0.40273 0.0
C1425 C 0.78034 0.18565 0.42311 0.0
C1426 C 0.78821 0.24071 0.33959 0.0
C1427 C 0.7665 0.23979 0.32649 0.0
C1428 C 0.78821 0.2363 0.36411 0.0
C1429 C 0.76651 0.23085 0.37603 0.0
C1430 C 0.74452 0.23246 0.36349 0.0
C1431 C 0.74453 0.23688 0.33883 0.0
H1432 H 0.63414 0.03259 0.15937 0.0
H1433 H 0.59867 0.96392 0.15462 0.0
H1434 H 0.62441 0.03957 0.11726 0.0
H1435 H 0.58987 0.97042 0.11251 0.0
H1436 H 0.56768 0.98508 0.04188 0.0
H1437 H 0.60333 0.98326 0.06781 0.0
H1438 H 0.57622 0.04257 0.10976 0.0
H1439 H 0.54038 0.04368 0.08455 0.0
C1440 C 0.62519 0.01862 0.14901 0.0
C1441 C 0.61649 -0.002 0.16014 0.0
C1442 C 0.61988 0.02253 0.12495 0.0
C1443 C 0.60642 0.00554 0.11177 0.0
C1444 C 0.6005 0.98369 0.12223 0.0
C1445 C 0.60517 0.98009 0.14638 0.0
C1446 C 0.56997 -0.00168 0.05601 0.0
C1447 C 0.55124 0.01412 0.06177 0.0
C1448 C 0.59038 -0.00262 0.0707 0.0
C1449 C 0.59231 0.01264 0.0908 0.0
C1450 C 0.57522 0.03071 0.09426 0.0
C1451 C 0.55458 0.03119 0.08005 0.0
H1452 H 0.70846 0.87303 0.90829 0.0
H1453 H 0.72955 0.81206 0.94925 0.0
H1454 H 0.70785 0.84843 0.87186 0.0
H1455 H 0.72946 0.78771 0.91285 0.0
H1456 H 0.74105 0.80099 0.81014 0.0
H1457 H 0.73572 0.8277 0.84481 0.0
H1458 H 0.70207 0.77041 0.88384 0.0
H1459 H 0.70806 0.74372 0.84964 0.0
C1460 C 0.71298 0.85439 0.90956 0.0
C1461 C 0.71902 0.84449 0.93175 0.0
C1462 C 0.71272 0.84033 0.88863 0.0
C1463 C 0.71847 0.81608 0.88943 0.0
C1464 C 0.72445 0.80623 0.91164 0.0
C1465 C 0.72467 0.82023 0.93253 0.0
C1466 C 0.73215 0.79428 0.82601 0.0
C1467 C 0.72534 0.77019 0.82735 0.0
C1468 C 0.72907 0.80956 0.84586 0.0
C1469 C 0.71892 0.80103 0.86728 0.0
C1470 C 0.71059 0.77736 0.86789 0.0
C1471 C 0.71389 0.7621 0.84823 0.0
H1472 H 0.80374 0.89202 0.04139 0.0
H1473 H 0.80668 0.92011 0.9699 0.0
H1474 H 0.84651 0.90309 0.04726 0.0
H1475 H 0.84931 0.93037 0.9755 0.0
H1476 H 0.92811 0.93854 0.98644 0.0
H1477 H 0.89297 0.91147 0.98585 0.0
H1478 H 0.86297 0.94889 0.04704 0.0
H1479 H 0.89753 0.97633 0.04708 0.0
C1480 C 0.81366 0.90003 0.02678 0.0
C1481 C 0.80186 0.90554 0.00531 0.0
C1482 C 0.83808 0.90625 0.03012 0.0
C1483 C 0.85118 0.91736 0.01175 0.0
C1484 C 0.83972 0.92149 0.98981 0.0
C1485 C 0.81525 0.91588 0.98671 0.0
C1486 C 0.91447 0.94031 0.00033 0.0
C1487 C 0.91528 0.95957 0.01667 0.0
C1488 C 0.89438 0.92492 -7e-05 0.0
C1489 C 0.87525 0.92828 0.01629 0.0
C1490 C 0.87753 0.94584 0.03434 0.0
C1491 C 0.89724 0.96157 0.03433 0.0
H1492 H 0.31006 0.58189 0.96275 0.0
H1493 H 0.28703 0.5222 0.00521 0.0
H1494 H 0.34973 0.56424 0.95781 0.0
H1495 H 0.32715 0.50439 0.00017 0.0
H1496 H 0.41395 0.5066 0.01088 0.0
H1497 H 0.37039 0.51428 0.01356 0.0
H1498 H 0.36911 0.52961 0.93804 0.0
H1499 H 0.41241 0.5224 0.93545 0.0
C1500 C 0.31338 0.56487 0.97088 0.0
C1501 C 0.29533 0.5535 0.98437 0.0
C1502 C 0.33612 0.55464 0.9679 0.0
C1503 C 0.34156 0.53281 0.97846 0.0
C1504 C 0.3235 0.52124 0.99185 0.0
C1505 C 0.30052 0.53139 -0.00539 0.0
C1506 C 0.40419 0.51094 -0.00526 0.0
C1507 C 0.41666 0.51434 0.97304 0.0
C1508 C 0.37925 0.51535 -0.00373 0.0
C1509 C 0.36645 0.52312 0.97611 0.0
C1510 C 0.37859 0.52426 0.95401 0.0
C1511 C 0.40338 0.52002 0.95251 0.0
H1512 H 0.1714 0.55131 0.74169 0.0
H1513 H 0.10491 0.58726 0.72432 0.0
H1514 H 0.19356 0.58846 0.73862 0.0
H1515 H 0.12758 0.62492 0.72144 0.0
H1516 H 0.18299 0.685 0.7553 0.0
H1517 H 0.15422 0.65185 0.75185 0.0
H1518 H 0.20286 0.61594 0.70288 0.0
H1519 H 0.23148 0.64917 0.70631 0.0
C1520 C 0.16144 0.56715 0.73733 0.0
C1521 C 0.13639 0.56629 0.73311 0.0
C1522 C 0.17422 0.58839 0.73536 0.0
C1523 C 0.16228 0.60931 0.72933 0.0
C1524 C 0.13712 0.60885 0.7259 0.0
C1525 C 0.12423 0.58739 0.7276 0.0
C1526 C 0.18703 0.67052 0.74311 0.0
C1527 C 0.20934 0.6696 0.7311 0.0
C1528 C 0.17064 0.65152 0.74119 0.0
C1529 C 0.17654 0.6314 0.72728 0.0
C1530 C 0.19811 0.63124 0.71393 0.0
C1531 C 0.21444 0.65015 0.71592 0.0
H1532 H 0.18079 0.44607 0.5176 0.0
H1533 H 0.14395 0.37931 0.52991 0.0
H1534 H 0.14257 0.46665 0.51981 0.0
H1535 H 0.10552 0.40003 0.53363 0.0
H1536 H 0.0486 0.43744 0.48526 0.0
H1537 H 0.08071 0.41556 0.50439 0.0
H1538 H 0.10755 0.48112 0.53698 0.0
H1539 H 0.07664 0.50298 0.51564 0.0
C1540 C 0.16452 0.43593 0.52151 0.0
C1541 C 0.16514 0.41111 0.52288 0.0
C1542 C 0.14252 0.44774 0.52311 0.0
C1543 C 0.12071 0.43498 0.52655 0.0
C1544 C 0.12181 0.41035 0.53031 0.0
C1545 C 0.14379 0.39848 0.52819 0.0
C1546 C 0.0609 0.44689 0.49725 0.0
C1547 C 0.06025 0.47169 0.49933 0.0
C1548 C 0.07929 0.4344 0.50839 0.0
C1549 C 0.09722 0.44665 0.52183 0.0
C1550 C 0.09453 0.47121 0.52619 0.0
C1551 C 0.07659 0.48372 0.51442 0.0
H1552 H 0.88409 0.89496 0.75871 0.0
H1553 H 0.81666 0.93236 0.75147 0.0
H1554 H 0.86187 0.85863 0.76813 0.0
H1555 H 0.79439 0.89596 0.75975 0.0
H1556 H 0.75436 0.83211 0.77107 0.0
H1557 H 0.78151 0.86437 0.78415 0.0
H1558 H 0.83981 0.83173 0.7439 0.0
H1559 H 0.81285 0.79938 0.7319 0.0
C1560 C 0.86449 0.89542 0.75922 0.0
C1561 C 0.85207 0.91638 0.75384 0.0
C1562 C 0.85175 0.8746 0.76467 0.0
C1563 C 0.82629 0.87415 0.76445 0.0
C1564 C 0.81397 0.89556 0.76046 0.0
C1565 C 0.82672 0.91646 0.75538 0.0
C1566 C 0.77336 0.83128 0.76627 0.0
C1567 C 0.78169 0.81344 0.75057 0.0
C1568 C 0.78883 0.84992 0.77338 0.0
C1569 C 0.81265 0.85115 0.76439 0.0
C1570 C 0.82165 0.83154 0.75121 0.0
C1571 C 0.80622 0.81285 0.74433 0.0
H1572 H 0.6698 0.08937 0.46286 0.0
H1573 H 0.65477 0.148 0.51171 0.0
H1574 H 0.63575 0.06728 0.47941 0.0
H1575 H 0.62041 0.12553 0.52826 0.0
H1576 H 0.55043 0.06246 0.5071 0.0
H1577 H 0.57719 0.09701 0.50354 0.0
H1578 H 0.6361 0.05675 0.53231 0.0
H1579 H 0.60969 0.02198 0.53558 0.0
C1580 C 0.65884 0.09778 0.47667 0.0
C1581 C 0.66515 0.12018 0.48627 0.0
C1582 C 0.63954 0.0851 0.48623 0.0
C1583 C 0.62619 0.09464 0.50543 0.0
C1584 C 0.63086 0.11788 0.51364 0.0
C1585 C 0.65032 0.13069 0.50403 0.0
C1586 C 0.56881 0.06124 0.51368 0.0
C1587 C 0.57837 0.03927 0.5206 0.0
C1588 C 0.58399 0.0811 0.51178 0.0
C1589 C 0.60858 0.07909 0.51718 0.0
C1590 C 0.6171 0.0584 0.52788 0.0
C1591 C 0.60206 0.03851 0.52956 0.0
H1592 H 0.14746 0.41534 0.78491 0.0
H1593 H 0.2079 0.44215 0.74381 0.0
H1594 H 0.17028 0.38048 0.79479 0.0
H1595 H 0.23132 0.40692 0.7541 0.0
H1596 H 0.23202 0.32318 0.73782 0.0
H1597 H 0.22562 0.36601 0.73933 0.0
H1598 H 0.20351 0.36131 0.81349 0.0
H1599 H 0.2088 0.31835 0.81153 0.0
C1600 C 0.16591 0.41397 0.77843 0.0
C1601 C 0.17574 0.43105 0.76311 0.0
C1602 C 0.17919 0.3941 0.78438 0.0
C1603 C 0.20259 0.39081 0.77505 0.0
C1604 C 0.21321 0.40889 0.7613 0.0
C1605 C 0.19987 0.42901 0.75546 0.0
C1606 C 0.2263 0.33143 0.75455 0.0
C1607 C 0.22007 0.31751 0.77428 0.0
C1608 C 0.2229 0.356 0.75554 0.0
C1609 C 0.21354 0.36695 0.7764 0.0
C1610 C 0.21013 0.35326 0.79699 0.0
C1611 C 0.21304 0.3287 0.79584 0.0
H1612 H 0.36373 0.58424 0.25884 0.0
H1613 H 0.31163 0.55386 0.20927 0.0
H1614 H 0.34499 0.62289 0.25528 0.0
H1615 H 0.29358 0.59291 0.20444 0.0
H1616 H 0.3131 0.69122 0.24925 0.0
H1617 H 0.33572 0.65705 0.23366 0.0
H1618 H 0.26868 0.61681 0.22795 0.0
H1619 H 0.24655 0.65118 0.2423 0.0
C1620 C 0.34841 0.58597 0.24692 0.0
C1621 C 0.33873 0.56603 0.23479 0.0
C1622 C 0.33789 0.60824 0.2445 0.0
C1623 C 0.31773 0.61116 0.22948 0.0
C1624 C 0.3088 0.59129 0.21646 0.0
C1625 C 0.31903 0.56889 0.21931 0.0
C1626 C 0.30329 0.67544 0.2433 0.0
C1627 C 0.27829 0.67354 0.24691 0.0
C1628 C 0.31618 0.65573 0.2348 0.0
C1629 C 0.30414 0.63386 0.23036 0.0
C1630 C 0.27869 0.6332 0.23117 0.0
C1631 C 0.26591 0.6529 0.23944 0.0
H1632 H 0.49324 0.68817 0.56096 0.0
H1633 H 0.52087 0.65653 0.62529 0.0
H1634 H 0.49474 0.64955 0.54052 0.0
H1635 H 0.52271 0.61803 0.60468 0.0
H1636 H 0.47214 0.55668 0.5725 0.0
H1637 H 0.48905 0.59191 0.59244 0.0
H1638 H 0.51858 0.61533 0.52493 0.0
H1639 H 0.50152 0.57968 0.50508 0.0
C1640 C 0.50002 0.67309 0.57062 0.0
C1641 C 0.50637 0.67536 0.59493 0.0
C1642 C 0.50116 0.65098 0.55882 0.0
C1643 C 0.50872 0.63068 0.57104 0.0
C1644 C 0.51653 0.63328 0.59488 0.0
C1645 C 0.51535 0.65535 0.60669 0.0
C1646 C 0.48322 0.56884 0.56222 0.0
C1647 C 0.48568 0.56562 0.53742 0.0
C1648 C 0.4929 0.58906 0.57357 0.0
C1649 C 0.50481 0.60664 0.56017 0.0
C1650 C 0.50921 0.60224 0.53565 0.0
C1651 C 0.49972 0.58178 0.52434 0.0
H1652 H 0.59177 0.23075 0.8791 0.0
H1653 H 0.55294 0.22403 0.81214 0.0
H1654 H 0.63001 0.22782 0.85752 0.0
H1655 H 0.59154 0.22126 0.79044 0.0
H1656 H 0.67104 0.25123 0.76808 0.0
H1657 H 0.62957 0.24972 0.78396 0.0
H1658 H 0.65054 0.19488 0.83273 0.0
H1659 H 0.69163 0.19636 0.81718 0.0
C1660 C 0.59142 0.22859 0.85978 0.0
C1661 C 0.56943 0.22751 0.84731 0.0
C1662 C 0.61328 0.22681 0.84744 0.0
C1663 C 0.61362 0.22415 0.82238 0.0
C1664 C 0.59167 0.2233 0.80978 0.0
C1665 C 0.56968 0.22475 0.8222 0.0
C1666 C 0.66663 0.23859 0.78189 0.0
C1667 C 0.68467 0.22431 0.7918 0.0
C1668 C 0.64294 0.23768 0.79089 0.0
C1669 C 0.63712 0.22248 0.80983 0.0
C1670 C 0.65476 0.20709 0.81846 0.0
C1671 C 0.67827 0.208 0.80957 0.0
H1672 H 0.95694 0.33483 0.09446 0.0
H1673 H 0.00392 0.31006 0.03746 0.0
H1674 H 0.95786 0.37467 0.07792 0.0
H1675 H 0.00498 0.34998 0.02106 0.0
H1676 H 0.00352 0.42371 -0.00577 0.0
H1677 H 0.98456 0.38545 0.00396 0.0
H1678 H -0.00605 0.40161 0.07937 0.0
H1679 H 0.01307 0.43953 0.06947 0.0
C1680 C 0.96704 0.33775 0.07809 0.0
C1681 C 0.9809 0.31947 0.06759 0.0
C1682 C 0.96753 0.36058 0.06864 0.0
C1683 C 0.98185 0.36555 0.04849 0.0
C1684 C -0.00627 0.3467 0.0366 0.0
C1685 C -0.00674 0.32384 0.04607 0.0
C1686 C 0.00063 0.41934 0.01286 0.0
C1687 C 0.00935 0.43447 0.03119 0.0
C1688 C 0.99001 0.39742 0.01841 0.0
C1689 C 0.98783 0.3905 0.0424 0.0
C1690 C -0.00497 0.40656 0.06072 0.0
C1691 C 0.006 0.42824 0.05514 0.0
H1692 H 0.91785 0.76539 0.29792 0.0
H1693 H 0.91204 0.74687 0.37268 0.0
H1694 H 0.87529 0.77537 0.29761 0.0
H1695 H 0.86876 0.75666 0.37201 0.0
H1696 H 0.79404 0.74055 0.31795 0.0
H1697 H 0.83109 0.73749 0.34098 0.0
H1698 H 0.84965 0.8099 0.32379 0.0
H1699 H 0.81232 0.81309 0.30089 0.0
C1700 C 0.90751 0.76335 0.31428 0.0
C1701 C 0.91841 0.75554 0.33537 0.0
C1702 C 0.8832 0.76936 0.31417 0.0
C1703 C 0.86915 0.76753 0.33504 0.0
C1704 C 0.87953 0.75868 0.35592 0.0
C1705 C 0.90413 0.75289 0.35615 0.0
C1706 C 0.80493 0.75645 0.32073 0.0
C1707 C 0.80054 0.77697 0.30745 0.0
C1708 C 0.82632 0.75461 0.3338 0.0
C1709 C 0.84331 0.77327 0.3335 0.0
C1710 C 0.83676 0.79524 0.324 0.0
C1711 C 0.81543 0.79708 0.31092 0.0
H1712 H 0.46845 0.3068 0.91525 0.0
H1713 H 0.51307 0.33992 0.86125 0.0
H1714 H 0.46682 0.34424 0.93753 0.0
H1715 H 0.51142 0.37776 0.88399 0.0
H1716 H 0.48327 0.44357 0.93489 0.0
H1717 H 0.47952 0.41083 0.90528 0.0
H1718 H 0.50709 0.36204 0.95719 0.0
H1719 H 0.51125 0.39415 0.98634 0.0
C1720 C 0.47762 0.3222 0.90794 0.0
C1721 C 0.49144 0.32033 0.88686 0.0
C1722 C 0.47656 0.34362 0.92066 0.0
C1723 C 0.48932 0.36361 0.9126 0.0
C1724 C 0.50145 0.36247 0.89047 0.0
C1725 C 0.50246 0.34087 0.87758 0.0
C1726 C 0.48876 0.42589 0.93984 0.0
C1727 C 0.49743 0.42147 0.96304 0.0
C1728 C 0.48658 0.40725 0.92293 0.0
C1729 C 0.49274 0.38402 0.92919 0.0
C1730 C 0.50186 0.37979 0.95212 0.0
C1731 C 0.50422 0.39824 0.9688 0.0
H1732 H 0.91811 0.2786 0.13607 0.0
H1733 H 0.91567 0.20642 0.16126 0.0
H1734 H 0.87529 0.2835 0.14714 0.0
H1735 H 0.87298 0.211 0.17135 0.0
H1736 H 0.79843 0.21479 0.18024 0.0
H1737 H 0.82962 0.22246 0.1502 0.0
H1738 H 0.85894 0.27899 0.19496 0.0
H1739 H 0.8278 0.27112 0.22508 0.0
C1740 C 0.90822 0.26363 0.14335 0.0
C1741 C 0.92009 0.24217 0.14804 0.0
C1742 C 0.88383 0.26644 0.14955 0.0
C1743 C 0.8709 0.24753 0.15971 0.0
C1744 C 0.88249 0.2257 0.16309 0.0
C1745 C 0.90693 0.22313 0.15758 0.0
C1746 C 0.81059 0.22985 0.18289 0.0
C1747 C 0.81104 0.24229 0.20486 0.0
C1748 C 0.82843 0.23419 0.16575 0.0
C1749 C 0.84684 0.25095 0.1706 0.0
C1750 C 0.84486 0.26601 0.19085 0.0
C1751 C 0.82705 0.26155 0.20807 0.0
H1752 H 0.01931 0.70578 0.44895 0.0
H1753 H 0.95674 0.67429 0.41406 0.0
H1754 H 0.02202 0.67118 0.4748 0.0
H1755 H 0.95926 0.64004 0.44 0.0
H1756 H 0.96755 0.57982 0.48878 0.0
H1757 H 0.96049 0.62218 0.48239 0.0
H1758 H 0.03387 0.63029 0.45669 0.0
H1759 H 0.04082 0.58814 0.46269 0.0
C1760 C 0.00569 0.69186 0.44735 0.0
C1761 C 0.98818 0.69234 0.42916 0.0
C1762 C 0.00722 0.67213 0.46215 0.0
C1763 C 0.991 0.65291 0.45919 0.0
C1764 C 0.97193 0.65467 0.44275 0.0
C1765 C 0.97064 0.67415 0.42772 0.0
C1766 C 0.98232 0.59083 0.48233 0.0
C1767 C 0.00458 0.5807 0.47573 0.0
C1768 C 0.97828 0.61501 0.47876 0.0
C1769 C -0.00338 0.62941 0.46903 0.0
C1770 C 0.0195 0.61964 0.46445 0.0
C1771 C 0.02339 0.59546 0.46759 0.0
H1772 H 0.58225 0.74669 0.63151 0.0
H1773 H 0.53932 0.77714 0.68893 0.0
H1774 H 0.61609 0.74226 0.65914 0.0
H1775 H 0.57341 0.77302 0.71646 0.0
H1776 H 0.65702 0.79664 0.73199 0.0
H1777 H 0.61626 0.79406 0.7153 0.0
H1778 H 0.62661 0.71946 0.6992 0.0
H1779 H 0.66733 0.72192 0.7166 0.0
C1780 C 0.58007 0.75247 0.65 0.0
C1781 C 0.55827 0.76245 0.65804 0.0
C1782 C 0.59928 0.7496 0.66587 0.0
C1783 C 0.59714 0.757 0.68995 0.0
C1784 C 0.57537 0.76701 0.69801 0.0
C1785 C 0.556 0.7695 0.68224 0.0
C1786 C 0.65013 0.77948 0.72586 0.0
C1787 C 0.66518 0.75951 0.72541 0.0
C1788 C 0.62687 0.778 0.7163 0.0
C1789 C 0.61858 0.75666 0.70566 0.0
C1790 C 0.63279 0.73614 0.70717 0.0
C1791 C 0.65591 0.73749 0.71729 0.0
H1792 H 0.55825 0.45434 0.69643 0.0
H1793 H 0.61126 0.50125 0.66463 0.0
H1794 H 0.53392 0.45571 0.65964 0.0
H1795 H 0.58658 0.50322 0.62845 0.0
H1796 H 0.52341 0.51642 0.57665 0.0
H1797 H 0.53743 0.51668 0.61843 0.0
H1798 H 0.5513 0.4414 0.61279 0.0
H1799 H 0.53823 0.44127 0.57094 0.0
C1800 C 0.56455 0.46505 0.68167 0.0
C1801 C 0.58674 0.47742 0.68314 0.0
C1802 C 0.55061 0.46594 0.66082 0.0
C1803 C 0.55835 0.47982 0.64156 0.0
C1804 C 0.58017 0.49268 0.6433 0.0
C1805 C 0.59439 0.49129 0.66382 0.0
C1806 C 0.52886 0.49987 0.5846 0.0
C1807 C 0.53001 0.47886 0.5707 0.0
C1808 C 0.53687 0.50003 0.60837 0.0
C1809 C 0.54536 0.47904 0.61858 0.0
C1810 C 0.54463 0.45771 0.60525 0.0
C1811 C 0.5373 0.45767 0.58137 0.0
H1812 H 0.74734 0.39501 0.89398 0.0
H1813 H 0.75537 0.32644 0.92691 0.0
H1814 H 0.75695 0.37689 0.85474 0.0
H1815 H 0.76514 0.30881 0.88813 0.0
H1816 H 0.80853 0.28773 0.8267 0.0
H1817 H 0.80292 0.31654 0.85933 0.0
H1818 H 0.73713 0.34059 0.82646 0.0
H1819 H 0.7426 0.31151 0.7938 0.0
C1820 C 0.75098 0.37613 0.89287 0.0
C1821 C 0.75079 0.3622 0.91365 0.0
C1822 C 0.75652 0.36586 0.87046 0.0
C1823 C 0.76233 0.34165 0.86863 0.0
C1824 C 0.76129 0.32767 0.88921 0.0
C1825 C 0.75549 0.33776 0.9114 0.0
C1826 C 0.79342 0.29983 0.8259 0.0
C1827 C 0.77586 0.29721 0.80788 0.0
C1828 C 0.79016 0.31622 0.84461 0.0
C1829 C 0.76931 0.33029 0.8456 0.0
C1830 C 0.75332 0.32987 0.82607 0.0
C1831 C 0.75657 0.31336 0.80727 0.0
H1832 H 0.8711 0.53384 0.16047 0.0
H1833 H 0.93945 0.50483 0.18257 0.0
H1834 H 0.88573 0.53566 0.11934 0.0
H1835 H 0.95376 0.50547 0.14129 0.0
H1836 H 0.97945 0.52314 0.06717 0.0
H1837 H 0.96614 0.52854 0.10851 0.0
H1838 H 0.89327 0.50837 0.08774 0.0
H1839 H 0.90643 0.5041 0.04629 0.0
C1840 C 0.88929 0.5279 0.15648 0.0
C1841 C 0.90412 0.51904 0.17458 0.0
C1842 C 0.89762 0.52877 0.13291 0.0
C1843 C 0.9208 0.5204 0.12691 0.0
C1844 C 0.93592 0.51233 0.14527 0.0
C1845 C 0.92772 0.51184 0.16892 0.0
C1846 C 0.96057 0.51997 0.07148 0.0
C1847 C 0.94397 0.51313 0.05358 0.0
C1848 C 0.95296 0.52298 0.09517 0.0
C1849 C 0.92865 0.51883 0.1015 0.0
C1850 C 0.91203 0.51218 0.08347 0.0
C1851 C 0.91958 0.50954 0.05972 0.0
H1852 H 0.78729 0.64078 0.40786 0.0
H1853 H 0.75298 0.70177 0.44102 0.0
H1854 H 0.78659 0.66035 0.36926 0.0
H1855 H 0.75183 0.72112 0.40242 0.0
H1856 H 0.74437 0.75094 0.33129 0.0
H1857 H 0.76839 0.73734 0.36521 0.0
H1858 H 0.74878 0.66458 0.34705 0.0
H1859 H 0.72499 0.67836 0.3134 0.0
C1860 C 0.78019 0.65864 0.40702 0.0
C1861 C 0.76944 0.66948 0.42723 0.0
C1862 C 0.77982 0.66983 0.38492 0.0
C1863 C 0.76857 0.69196 0.38268 0.0
C1864 C 0.76062 0.70404 0.40351 0.0
C1865 C 0.7611 0.69288 0.42566 0.0
C1866 C 0.74599 0.73202 0.33425 0.0
C1867 C 0.73299 0.71557 0.32008 0.0
C1868 C 0.7596 0.72426 0.35362 0.0
C1869 C 0.76034 0.69993 0.35893 0.0
C1870 C 0.74889 0.68342 0.34332 0.0
C1871 C 0.73511 0.69123 0.32416 0.0
H1872 H 0.61983 0.48566 0.83242 0.0
H1873 H 0.54316 0.48764 0.81744 0.0
H1874 H 0.61091 0.47983 0.87498 0.0
H1875 H 0.53437 0.48144 0.85952 0.0
H1876 H 0.51569 0.47308 0.92968 0.0
H1877 H 0.53871 0.45488 0.89681 0.0
H1878 H 0.59087 0.5125 0.90145 0.0
H1879 H 0.5676 0.53066 0.93382 0.0
C1880 C 0.60111 0.48441 0.83815 0.0
C1881 C 0.58215 0.48767 0.82178 0.0
C1882 C 0.59607 0.4808 0.86239 0.0
C1883 C 0.572 0.47987 0.87047 0.0
C1884 C 0.55312 0.48157 0.85376 0.0
C1885 C 0.55813 0.48562 0.82972 0.0
C1886 C 0.53288 0.48093 0.92463 0.0
C1887 C 0.53975 0.50338 0.93365 0.0
C1888 C 0.54601 0.4706 0.9058 0.0
C1889 C 0.56608 0.48274 0.89616 0.0
C1890 C 0.57537 0.50286 0.90839 0.0
C1891 C 0.56202 0.51334 0.92688 0.0
H1892 H 0.72133 0.29173 0.03599 0.0
H1893 H 0.77421 0.33473 0.07428 0.0
H1894 H 0.71868 0.26491 0.07005 0.0
H1895 H 0.77154 0.30815 0.1081 0.0
H1896 H 0.76859 0.25698 0.16599 0.0
H1897 H 0.77749 0.26791 0.12464 0.0
H1898 H 0.70086 0.27228 0.11033 0.0
H1899 H 0.69207 0.26129 0.15144 0.0
C1900 C 0.73268 0.29523 0.05148 0.0
C1901 C 0.74765 0.31558 0.05263 0.0
C1902 C 0.73116 0.27988 0.07096 0.0
C1903 C 0.74483 0.28443 0.09183 0.0
C1904 C 0.76096 0.30393 0.09224 0.0
C1905 C 0.76229 0.31935 0.07293 0.0
C1906 C 0.75368 0.25929 0.15372 0.0
C1907 C 0.72964 0.25856 0.16201 0.0
C1908 C 0.75876 0.26579 0.1301 0.0
C1909 C 0.73988 0.27139 0.11432 0.0
C1910 C 0.71584 0.26806 0.12195 0.0
C1911 C 0.71078 0.26184 0.14558 0.0
H1912 H 0.95788 0.4645 0.30483 0.0
H1913 H 0.88417 0.48488 0.32055 0.0
H1914 H 0.96501 0.45891 0.34732 0.0
H1915 H 0.89107 0.47857 0.36298 0.0
H1916 H 0.93397 0.50831 0.431 0.0
H1917 H 0.91393 0.50048 0.39278 0.0
H1918 H 0.9563 0.43675 0.38283 0.0
H1919 H 0.97704 0.44541 0.42057 0.0
C1920 C 0.94313 0.46745 0.31733 0.0
C1921 C 0.92068 0.47559 0.30943 0.0
C1922 C 0.94705 0.46393 0.34167 0.0
C1923 C 0.92852 0.46824 0.35854 0.0
C1924 C 0.90574 0.47534 0.35046 0.0
C1925 C 0.90188 0.47906 0.32616 0.0
C1926 C 0.93811 0.4921 0.42109 0.0
C1927 C 0.95716 0.47763 0.42822 0.0
C1928 C 0.9267 0.48757 0.39918 0.0
C1929 C 0.93419 0.4684 0.38444 0.0
C1930 C 0.95076 0.45205 0.39347 0.0
C1931 C 0.96242 0.45683 0.41512 0.0
H1932 H 0.7324 0.6178 0.59014 0.0
H1933 H 0.78712 0.65987 0.55462 0.0
H1934 H 0.73787 0.64181 0.6266 0.0
H1935 H 0.79329 0.68326 0.59126 0.0
H1936 H 0.7659 0.74165 0.64296 0.0
H1937 H 0.76962 0.71308 0.61029 0.0
H1938 H 0.76232 0.65542 0.6601 0.0
H1939 H 0.7579 0.68432 0.69307 0.0
C1940 C 0.74599 0.63183 0.59029 0.0
C1941 C 0.75896 0.63728 0.56937 0.0
C1942 C 0.74925 0.64552 0.61126 0.0
C1943 C 0.76575 0.66476 0.61178 0.0
C1944 C 0.77997 0.669 0.59132 0.0
C1945 C 0.77648 0.65555 0.57032 0.0
C1946 C 0.76536 0.7229 0.6471 0.0
C1947 C 0.76134 0.71533 0.67065 0.0
C1948 C 0.76773 0.70643 0.6283 0.0
C1949 C 0.76622 0.68187 0.63248 0.0
C1950 C 0.76327 0.6742 0.6562 0.0
C1951 C 0.76091 0.69077 0.67512 0.0
H1952 H 0.65524 0.63648 0.48989 0.0
H1953 H 0.6821 0.56994 0.46108 0.0
H1954 H 0.61351 0.62165 0.48493 0.0
H1955 H 0.64111 0.55526 0.45643 0.0
H1956 H 0.55416 0.56269 0.50877 0.0
H1957 H 0.58832 0.59038 0.50441 0.0
H1958 H 0.60383 0.55958 0.43462 0.0
H1959 H 0.57055 0.53129 0.43967 0.0
C1960 C 0.65224 0.61884 0.48229 0.0
C1961 C 0.67194 0.60429 0.47605 0.0
C1962 C 0.6284 0.61038 0.47947 0.0
C1963 C 0.62394 0.58737 0.47007 0.0
C1964 C 0.64375 0.57326 0.4632 0.0
C1965 C 0.66737 0.58159 0.46615 0.0
C1966 C 0.56434 0.56257 0.49215 0.0
C1967 C 0.56015 0.54475 0.4747 0.0
C1968 C 0.5839 0.5784 0.48961 0.0
C1969 C 0.59924 0.57664 0.46948 0.0
C1970 C 0.59279 0.56089 0.45066 0.0
C1971 C 0.57364 0.54483 0.45341 0.0
H1972 H 0.15991 0.88707 0.48369 0.0
H1973 H 0.19519 0.94303 0.52509 0.0
H1974 H 0.12327 0.91082 0.48191 0.0
H1975 H 0.15809 0.96662 0.52367 0.0
H1976 H 0.07176 0.96778 0.5444 0.0
H1977 H 0.1141 0.95554 0.54211 0.0
H1978 H 0.10973 0.95333 0.46488 0.0
H1979 H 0.06747 0.96619 0.46719 0.0
C1980 C 0.15983 0.90444 0.4924 0.0
C1981 C 0.1803 0.91315 0.50468 0.0
C1982 C 0.13899 0.91812 0.49111 0.0
C1983 C 0.13809 0.94058 0.50242 0.0
C1984 C 0.15852 0.94939 0.51468 0.0
C1985 C 0.17959 0.93587 0.51559 0.0
C1986 C 0.08015 0.96542 0.52696 0.0
C1987 C 0.06655 0.96782 0.50597 0.0
C1988 C 0.10431 0.95854 0.52565 0.0
C1989 C 0.11495 0.95337 0.50334 0.0
C1990 C 0.1018 0.95724 0.48226 0.0
C1991 C 0.07777 0.96469 0.48357 0.0
H1992 H 0.38399 0.89342 0.72512 0.0
H1993 H 0.33011 0.9386 0.75839 0.0
H1994 H 0.35625 0.8593 0.72838 0.0
H1995 H 0.30305 0.90474 0.76217 0.0
H1996 H 0.25064 0.85032 0.7312 0.0
H1997 H 0.2807 0.88175 0.73179 0.0
H1998 H 0.33402 0.83313 0.75838 0.0
H1999 H 0.30359 0.80107 0.75773 0.0
C2000 C 0.36635 0.89602 0.7332 0.0
C2001 C 0.35899 0.91873 0.741 0.0
C2002 C 0.35062 0.87651 0.73527 0.0
C2003 C 0.32748 0.87951 0.7453 0.0
C2004 C 0.32061 0.90204 0.75392 0.0
C2005 C 0.33611 0.92144 0.75166 0.0
C2006 C 0.26867 0.84618 0.73737 0.0
C2007 C 0.27474 0.8231 0.74432 0.0
C2008 C 0.2859 0.86429 0.73777 0.0
C2009 C 0.30961 0.85987 0.74523 0.0
C2010 C 0.31584 0.83688 0.75236 0.0
C2011 C 0.29846 0.81861 0.75202 0.0
H2012 H 0.30383 0.02659 0.00066 0.0
H2013 H 0.32596 0.09737 0.98003 0.0
H2014 H 0.34624 0.01509 0.00277 0.0
H2015 H 0.36828 0.08581 0.98245 0.0
H2016 H 0.42412 -0.0023 -0.00023 0.0
H2017 H 0.38735 0.01106 0.97984 0.0
H2018 H 0.38906 0.07564 0.02293 0.0
H2019 H 0.42583 0.0622 0.04271 0.0
C2020 C 0.31768 0.03952 -0.0039 0.0
C2021 C 0.31157 0.063 0.99069 0.0
C2022 C 0.34193 0.03288 -0.00292 0.0
C2023 C 0.36041 0.04967 -0.00709 0.0
C2024 C 0.3543 0.07263 0.98584 0.0
C2025 C 0.33007 0.07919 0.98454 0.0
C2026 C 0.41719 0.01522 0.00409 0.0
C2027 C 0.42773 0.02918 0.02241 0.0
C2028 C 0.3961 0.02271 -0.00708 0.0
C2029 C 0.38545 0.0443 -7e-05 0.0
C2030 C 0.39711 0.05904 0.01702 0.0
C2031 C 0.41799 0.05137 0.02842 0.0
H2032 H 0.61135 0.58677 0.72631 0.0
H2033 H 0.67825 0.55328 0.74641 0.0
H2034 H 0.63309 0.62438 0.72091 0.0
H2035 H 0.6997 0.59068 0.74142 0.0
H2036 H 0.73932 0.65386 0.72812 0.0
H2037 H 0.71384 0.62078 0.71396 0.0
H2038 H 0.65196 0.65303 0.74863 0.0
H2039 H 0.67745 0.68628 0.76203 0.0
C2040 C 0.63068 0.58738 0.7295 0.0
C2041 C 0.64301 0.56704 0.7371 0.0
C2042 C 0.64312 0.60891 0.72629 0.0
C2043 C 0.66816 0.61054 0.73052 0.0
C2044 C 0.68052 0.59001 0.73745 0.0
C2045 C 0.66813 0.56856 0.74067 0.0
C2046 C 0.72 0.65445 0.73145 0.0
C2047 C 0.71022 0.6724 0.74613 0.0
C2048 C 0.70546 0.63538 0.72368 0.0
C2049 C 0.68107 0.63387 0.73091 0.0
C2050 C 0.67067 0.65354 0.74283 0.0
C2051 C 0.68522 0.67269 0.75044 0.0
H2052 H 0.83189 0.43295 0.01153 0.0
H2053 H 0.83008 0.36591 0.97268 0.0
H2054 H 0.8759 0.43418 0.00799 0.0
H2055 H 0.87442 0.36768 0.96816 0.0
H2056 H 0.93171 0.432 0.93497 0.0
H2057 H 0.89711 0.40618 0.94363 0.0
H2058 H 0.91651 0.40703 0.01842 0.0
H2059 H 0.95094 0.43276 0.00989 0.0
C2060 C 0.84103 0.41827 0.00266 0.0
C2061 C 0.82778 0.39937 -0.00761 0.0
C2062 C 0.86617 0.41883 0.0008 0.0
C2063 C 0.87845 0.40083 0.98807 0.0
C2064 C 0.8653 0.3815 0.97838 0.0
C2065 C 0.84007 0.38056 0.98093 0.0
C2066 C 0.92946 0.42541 0.95298 0.0
C2067 C 0.9438 0.43457 0.97179 0.0
C2068 C 0.9097 0.41058 0.95793 0.0
C2069 C 0.90402 0.40511 0.98175 0.0
C2070 C 0.9206 0.41108 -7e-05 0.0
C2071 C 0.94047 0.4257 -0.00504 0.0
H2072 H 0.30482 0.04131 0.72373 0.0
H2073 H 0.34957 0.07608 0.77757 0.0
H2074 H 0.28013 0.07712 0.72133 0.0
H2075 H 0.32441 0.11154 0.77544 0.0
H2076 H 0.29878 0.16319 0.70174 0.0
H2077 H 0.30937 0.1219 0.70889 0.0
H2078 H 0.26938 0.12372 0.77536 0.0
H2079 H 0.25806 0.1651 0.76801 0.0
C2080 C 0.30896 0.0563 0.73552 0.0
C2081 C 0.3294 0.05614 0.75048 0.0
C2082 C 0.29475 0.07664 0.73422 0.0
C2083 C 0.30047 0.09678 0.74828 0.0
C2084 C 0.31961 0.09598 0.76467 0.0
C2085 C 0.33409 0.07582 0.76569 0.0
C2086 C 0.29169 0.15463 0.71757 0.0
C2087 C 0.27768 0.16732 0.73435 0.0
C2088 C 0.29766 0.13105 0.72157 0.0
C2089 C 0.29003 0.11989 0.74256 0.0
C2090 C 0.27522 0.1321 0.75897 0.0
C2091 C 0.26877 0.15565 0.75471 0.0
H2092 H 0.19736 0.93678 0.23948 0.0
H2093 H 0.13384 0.90724 0.27367 0.0
H2094 H 0.2174 0.89855 0.2424 0.0
H2095 H 0.15404 0.86906 0.2769 0.0
H2096 H 0.25294 0.83124 0.25034 0.0
H2097 H 0.23409 0.86698 0.26731 0.0
H2098 H 0.16394 0.84009 0.24504 0.0
H2099 H 0.18293 0.80439 0.22854 0.0
C2100 C 0.18785 0.92225 0.24799 0.0
C2101 C 0.16386 0.92487 0.25583 0.0
C2102 C 0.19942 0.90039 0.24995 0.0
C2103 C 0.18723 0.88072 0.25981 0.0
C2104 C 0.16378 0.8838 0.269 0.0
C2105 C 0.15222 0.90566 0.26706 0.0
C2106 C 0.23338 0.83257 0.25024 0.0
C2107 C 0.21924 0.81526 0.23834 0.0
C2108 C 0.22263 0.85308 0.25967 0.0
C2109 C 0.19762 0.85659 0.25702 0.0
C2110 C 0.18324 0.83793 0.24746 0.0
C2111 C 0.19404 0.81744 0.23803 0.0
H2112 H 0.48535 0.34338 0.36095 0.0
H2113 H 0.49473 0.31046 0.42956 0.0
H2114 H 0.47802 0.3815 0.38096 0.0
H2115 H 0.48862 0.34878 0.44963 0.0
H2116 H 0.4814 0.41826 0.48419 0.0
H2117 H 0.46635 0.38353 0.46132 0.0
H2118 H 0.50621 0.40755 0.39929 0.0
H2119 H 0.52054 0.44196 0.42202 0.0
C2120 C 0.4857 0.34429 0.38036 0.0
C2121 C 0.4912 0.3241 0.3937 0.0
C2122 C 0.48146 0.36614 0.39184 0.0
C2123 C 0.4832 0.36842 0.41691 0.0
C2124 C 0.48692 0.34776 0.43032 0.0
C2125 C 0.49071 0.32578 0.41882 0.0
C2126 C 0.48581 0.41656 0.46531 0.0
C2127 C 0.50202 0.43259 0.4547 0.0
C2128 C 0.47753 0.39654 0.4523 0.0
C2129 C 0.48549 0.39238 0.42859 0.0
C2130 C 0.49952 0.41006 0.4174 0.0
C2131 C 0.5078 0.42988 0.4304 0.0
H2132 H 0.43553 0.76272 0.1484 0.0
H2133 H 0.46044 0.74145 0.21818 0.0
H2134 H 0.39475 0.76613 0.1638 0.0
H2135 H 0.41896 0.74522 0.23378 0.0
H2136 H 0.33241 0.72805 0.23426 0.0
H2137 H 0.37622 0.72562 0.22697 0.0
H2138 H 0.37468 0.79393 0.19283 0.0
H2139 H 0.33134 0.79614 0.1996 0.0
C2140 C 0.43238 0.75897 0.16713 0.0
C2141 C 0.45136 0.75209 0.18211 0.0
C2142 C 0.40895 0.761 0.17597 0.0
C2143 C 0.40377 0.75633 0.20008 0.0
C2144 C 0.42253 0.74898 0.21513 0.0
C2145 C 0.44621 0.74694 0.20622 0.0
C2146 C 0.3416 0.74269 0.22564 0.0
C2147 C 0.32842 0.762 0.21697 0.0
C2148 C 0.36662 0.74134 0.22154 0.0
C2149 C 0.37866 0.75936 0.20886 0.0
C2150 C 0.36573 0.77952 0.20212 0.0
C2151 C 0.34091 0.78078 0.20601 0.0
H2152 H 0.0172 0.68641 0.94308 0.0
H2153 H 0.97438 0.66185 0.88273 0.0
H2154 H 0.01847 0.64566 0.95799 0.0
H2155 H 0.97508 0.62171 0.89772 0.0
H2156 H 0.98915 0.54926 0.91523 0.0
H2157 H 0.00174 0.5889 0.90257 0.0
H2158 H -0.00787 0.61551 0.9751 0.0
H2159 H 0.9807 0.57553 0.98771 0.0
C2160 C 0.00781 0.67239 0.9332 0.0
C2161 C -0.00432 0.6773 0.91175 0.0
C2162 C 0.00866 0.64906 0.94164 0.0
C2163 C -0.00265 0.6303 0.92877 0.0
C2164 C 0.98471 0.63551 0.90769 0.0
C2165 C 0.98398 0.65864 0.89925 0.0
C2166 C 0.99084 0.56343 0.92855 0.0
C2167 C 0.98402 0.55961 0.95233 0.0
C2168 C -0.00231 0.58617 0.92133 0.0
C2169 C -0.00291 0.60553 0.93768 0.0
C2170 C -0.0073 0.60106 0.96203 0.0
C2171 C 0.9862 0.57819 0.96929 0.0
H2172 H 0.09567 0.24708 0.60289 0.0
H2173 H 0.06746 0.27978 0.66773 0.0
H2174 H 0.13139 0.23404 0.62509 0.0
H2175 H 0.10282 0.26676 0.68958 0.0
H2176 H 0.14216 0.21203 0.72785 0.0
H2177 H 0.11257 0.22049 0.69697 0.0
H2178 H 0.16828 0.25345 0.65413 0.0
H2179 H 0.19816 0.24481 0.68497 0.0
C2180 C 0.0974 0.252 0.62166 0.0
C2181 C 0.07865 0.26403 0.63379 0.0
C2182 C 0.1177 0.24443 0.63429 0.0
C2183 C 0.11924 0.24882 0.65904 0.0
C2184 C 0.10156 0.26265 0.67057 0.0
C2185 C 0.08147 0.27023 0.65805 0.0
C2186 C 0.14828 0.22041 0.71155 0.0
C2187 C 0.1723 0.22836 0.70908 0.0
C2188 C 0.13137 0.22527 0.69394 0.0
C2189 C 0.13821 0.23816 0.67367 0.0
C2190 C 0.16268 0.24363 0.66977 0.0
C2191 C 0.17971 0.23866 0.68741 0.0
H2192 H 0.48038 0.68673 0.0863 0.0
H2193 H 0.53757 0.65691 0.12885 0.0
H2194 H 0.47795 0.65013 0.06268 0.0
H2195 H 0.53511 0.61999 0.10474 0.0
H2196 H 0.50136 0.55231 0.06007 0.0
H2197 H 0.50388 0.58455 0.09034 0.0
H2198 H 0.51211 0.63571 0.03406 0.0
H2199 H 0.5095 0.60418 0.00414 0.0
C2200 C 0.49229 0.67227 0.09077 0.0
C2201 C 0.50952 0.67486 0.10908 0.0
C2202 C 0.49084 0.65132 0.07727 0.0
C2203 C 0.50664 0.63254 0.08171 0.0
C2204 C 0.52278 0.63433 0.10105 0.0
C2205 C 0.52421 0.65542 0.11472 0.0
C2206 C 0.50385 0.57044 0.05425 0.0
C2207 C 0.50464 0.57574 0.02969 0.0
C2208 C 0.50538 0.58878 0.07153 0.0
C2209 C 0.50765 0.61252 0.06437 0.0
C2210 C 0.50977 0.61756 0.03996 0.0
C2211 C 0.50828 0.59944 0.02284 0.0
H2212 H 0.06903 0.71954 0.81788 0.0
H2213 H 0.09811 0.74581 0.8852 0.0
H2214 H 0.10949 0.71748 0.80132 0.0
H2215 H 0.13908 0.74346 0.86858 0.0
H2216 H 0.17989 0.78794 0.80747 0.0
H2217 H 0.15391 0.77131 0.83828 0.0
H2218 H 0.15157 0.70425 0.79914 0.0
H2219 H 0.1776 0.72161 0.76819 0.0
C2220 C 0.08417 0.72438 0.82933 0.0
C2221 C 0.08039 0.73364 0.85253 0.0
C2222 C 0.10747 0.7228 0.81996 0.0
C2223 C 0.12751 0.73057 0.83357 0.0
C2224 C 0.12392 0.7376 0.85761 0.0
C2225 C 0.1005 0.7391 0.86705 0.0
C2226 C 0.17464 0.76934 0.80611 0.0
C2227 C 0.18037 0.75583 0.78563 0.0
C2228 C 0.15994 0.75968 0.82383 0.0
C2229 C 0.15029 0.73657 0.82092 0.0
C2230 C 0.15856 0.72218 0.80176 0.0
C2231 C 0.17354 0.73187 0.78417 0.0
H2232 H 0.95279 0.32077 0.588 0.0
H2233 H 0.00209 0.30162 0.53083 0.0
H2234 H 0.9456 0.35858 0.5696 0.0
H2235 H -0.00563 0.33972 0.5117 0.0
H2236 H 0.00827 0.42277 0.5184 0.0
H2237 H 0.00744 0.37959 0.52265 0.0
H2238 H 0.93085 0.38224 0.53871 0.0
H2239 H 0.93215 0.42538 0.53583 0.0
C2240 C 0.96156 0.32443 0.57104 0.0
C2241 C 0.97838 0.30855 0.56109 0.0
C2242 C 0.95727 0.34609 0.5603 0.0
C2243 C 0.96969 0.35239 0.53929 0.0
C2244 C 0.98488 0.33555 0.52812 0.0
C2245 C 0.98914 0.31369 0.53893 0.0
C2246 C 0.99126 0.41399 0.52256 0.0
C2247 C 0.97045 0.42731 0.5275 0.0
C2248 C 0.99067 0.38924 0.52472 0.0
C2249 C 0.96913 0.37747 0.53142 0.0
C2250 C 0.94787 0.39079 0.53419 0.0
C2251 C 0.94861 0.41548 0.53259 0.0
H2252 H 0.43429 0.22641 0.34157 0.0
H2253 H 0.45399 0.265 0.27795 0.0
H2254 H 0.39391 0.22012 0.326 0.0
H2255 H 0.41321 0.2581 0.26194 0.0
H2256 H 0.32787 0.26685 0.26261 0.0
H2257 H 0.37134 0.27081 0.27051 0.0
H2258 H 0.37232 0.19845 0.29541 0.0
H2259 H 0.32899 0.19493 0.28846 0.0
C2260 C 0.43011 0.23332 0.32408 0.0
C2261 C 0.4474 0.24624 0.31103 0.0
C2262 C 0.40693 0.22953 0.31503 0.0
C2263 C 0.40038 0.23842 0.29261 0.0
C2264 C 0.41771 0.25113 0.27932 0.0
C2265 C 0.44106 0.25496 0.28844 0.0
C2266 C 0.33755 0.25174 0.26942 0.0
C2267 C 0.32508 0.23076 0.27538 0.0
C2268 C 0.36242 0.25395 0.27384 0.0
C2269 C 0.37516 0.23508 0.28402 0.0
C2270 C 0.36289 0.21353 0.2882 0.0
C2271 C 0.3381 0.21148 0.28416 0.0
H2272 H 0.41087 0.53149 0.30441 0.0
H2273 H 0.45577 0.46901 0.30317 0.0
H2274 H 0.42199 0.5393 0.34601 0.0
H2275 H 0.46608 0.47615 0.34511 0.0
H2276 H 0.49152 0.50239 0.4179 0.0
H2277 H 0.48619 0.50015 0.37457 0.0
H2278 H 0.41184 0.52219 0.38313 0.0
H2279 H 0.41745 0.5253 0.42618 0.0
C2280 C 0.42322 0.51949 0.31303 0.0
C2281 C 0.43227 0.49953 0.30064 0.0
C2282 C 0.42947 0.52386 0.33692 0.0
C2283 C 0.4446 0.50814 0.34908 0.0
C2284 C 0.45455 0.48876 0.3363 0.0
C2285 C 0.44857 0.48459 0.31226 0.0
C2286 C 0.4741 0.50695 0.41048 0.0
C2287 C 0.45491 0.51406 0.4255 0.0
C2288 C 0.47101 0.50556 0.38565 0.0
C2289 C 0.4486 0.51103 0.3753 0.0
C2290 C 0.42951 0.51834 0.39037 0.0
C2291 C 0.43267 0.51996 0.41513 0.0
H2292 H 0.27028 0.64743 0.06399 0.0
H2293 H 0.20746 0.60614 0.08491 0.0
H2294 H 0.26851 0.66936 0.10218 0.0
H2295 H 0.20573 0.62847 0.12295 0.0
H2296 H 0.21154 0.72279 0.14437 0.0
H2297 H 0.21164 0.6907 0.11429 0.0
H2298 H 0.25481 0.64782 0.16078 0.0
H2299 H 0.25452 0.67985 0.19131 0.0
C2300 C 0.25643 0.64271 0.07689 0.0
C2301 C 0.23887 0.62526 0.07134 0.0
C2302 C 0.25553 0.65514 0.09872 0.0
C2303 C 0.23704 0.65039 0.11525 0.0
C2304 C 0.22027 0.63212 0.11044 0.0
C2305 C 0.22129 0.61947 0.08868 0.0
C2306 C 0.22055 0.70632 0.14845 0.0
C2307 C 0.23321 0.70387 0.17004 0.0
C2308 C 0.22054 0.68802 0.1313 0.0
C2309 C 0.23331 0.66708 0.1354 0.0
C2310 C 0.24476 0.66388 0.15747 0.0
C2311 C 0.24452 0.68214 0.17485 0.0
H2312 H 0.0329 0.48961 0.79768 0.0
H2313 H 0.109 0.48164 0.81325 0.0
H2314 H 0.02342 0.48443 0.84 0.0
H2315 H 0.0997 0.47753 0.85543 0.0
H2316 H 0.07467 0.45426 0.92859 0.0
H2317 H 0.08221 0.45321 0.88535 0.0
H2318 H 0.02778 0.50704 0.87588 0.0
H2319 H 0.01965 0.50727 0.9185 0.0
C2320 C 0.04757 0.48682 0.81013 0.0
C2321 C 0.07167 0.48617 0.80218 0.0
C2322 C 0.04219 0.48393 0.83437 0.0
C2323 C 0.06084 0.48069 0.85113 0.0
C2324 C 0.08487 0.47959 0.84301 0.0
C2325 C 0.09021 0.48217 0.81881 0.0
C2326 C 0.06432 0.46573 0.91715 0.0
C2327 C 0.04652 0.48072 0.92682 0.0
C2328 C 0.06863 0.4652 0.89244 0.0
C2329 C 0.05547 0.47995 0.87713 0.0
C2330 C 0.0378 0.49499 0.88699 0.0
C2331 C 0.03327 0.49525 0.9115 0.0
H2332 H 0.20728 0.29913 0.55726 0.0
H2333 H 0.2444 0.35637 0.59509 0.0
H2334 H 0.20294 0.2777 0.59488 0.0
H2335 H 0.24057 0.33501 0.63218 0.0
H2336 H 0.2355 0.29904 0.6977 0.0
H2337 H 0.21581 0.31841 0.66396 0.0
H2338 H 0.23315 0.25799 0.6183 0.0
H2339 H 0.25229 0.23894 0.65186 0.0
C2340 C 0.21446 0.30713 0.57358 0.0
C2341 C 0.22661 0.32919 0.57316 0.0
C2342 C 0.21178 0.29499 0.59512 0.0
C2343 C 0.22126 0.30469 0.61658 0.0
C2344 C 0.23253 0.3272 0.61617 0.0
C2345 C 0.23515 0.33928 0.59475 0.0
C2346 C 0.23394 0.28957 0.6807 0.0
C2347 C 0.24568 0.26787 0.677 0.0
C2348 C 0.22288 0.30064 0.66136 0.0
C2349 C 0.22365 0.29005 0.63828 0.0
C2350 C 0.2323 0.26674 0.63571 0.0
C2351 C 0.24341 0.25583 0.65491 0.0
H2352 H 0.35992 0.48963 0.14784 0.0
H2353 H 0.43021 0.5161 0.17009 0.0
H2354 H 0.3714 0.49495 0.10592 0.0
H2355 H 0.44167 0.52118 0.12855 0.0
H2356 H 0.43094 0.4546 0.05724 0.0
H2357 H 0.40111 0.46921 0.08562 0.0
H2358 H 0.43741 0.5377 0.08777 0.0
H2359 H 0.46729 0.52277 0.05882 0.0
C2360 C 0.37767 0.49689 0.1438 0.0
C2361 C 0.3945 0.5017 0.16215 0.0
C2362 C 0.38411 0.50019 0.11984 0.0
C2363 C 0.40745 0.50838 0.1139 0.0
C2364 C 0.42343 0.51512 0.13244 0.0
C2365 C 0.41705 0.51174 0.1563 0.0
C2366 C 0.43174 0.47315 0.06284 0.0
C2367 C 0.45155 0.48746 0.05657 0.0
C2368 C 0.41455 0.48164 0.07901 0.0
C2369 C 0.41743 0.50437 0.08954 0.0
C2370 C 0.43509 0.51993 0.08024 0.0
C2371 C 0.45214 0.51147 0.06368 0.0
H2372 H 0.28083 0.64597 0.91184 0.0
H2373 H 0.23922 0.69997 0.94875 0.0
H2374 H 0.28522 0.67175 0.87748 0.0
H2375 H 0.24317 0.72582 0.91376 0.0
H2376 H 0.30463 0.72405 0.82487 0.0
H2377 H 0.30419 0.71265 0.86678 0.0
H2378 H 0.22647 0.71954 0.8685 0.0
H2379 H 0.22689 0.7312 0.82629 0.0
C2380 C 0.27293 0.66353 0.91272 0.0
C2381 C 0.25972 0.67097 0.93293 0.0
C2382 C 0.27552 0.67835 0.89309 0.0
C2383 C 0.26458 0.70081 0.89301 0.0
C2384 C 0.2518 0.7086 0.91343 0.0
C2385 C 0.24967 0.69389 0.93342 0.0
C2386 C 0.28752 0.72395 0.83441 0.0
C2387 C 0.26575 0.72806 0.82226 0.0
C2388 C 0.28729 0.7174 0.85838 0.0
C2389 C 0.26527 0.71473 0.87068 0.0
C2390 C 0.24369 0.72148 0.85939 0.0
C2391 C 0.24393 0.72817 0.83527 0.0
H2392 H 0.06118 0.48014 0.68051 0.0
H2393 H 0.13107 0.49679 0.64959 0.0
H2394 H 0.04138 0.49948 0.6476 0.0
H2395 H 0.11091 0.51628 0.6162 0.0
H2396 H 0.05318 0.50621 0.55091 0.0
H2397 H 0.0831 0.50193 0.58234 0.0
H2398 H 0.03686 0.54077 0.63139 0.0
H2399 H 0.00673 0.54467 0.59985 0.0
C2400 C 0.07233 0.48786 0.66661 0.0
C2401 C 0.09766 0.48698 0.66765 0.0
C2402 C 0.06099 0.49932 0.64796 0.0
C2403 C 0.07468 0.51001 0.62979 0.0
C2404 C 0.10003 0.50848 0.63025 0.0
C2405 C 0.11148 0.49712 0.64916 0.0
C2406 C 0.04994 0.51477 0.56803 0.0
C2407 C 0.02744 0.52507 0.57317 0.0
C2408 C 0.06709 0.51235 0.58606 0.0
C2409 C 0.06183 0.52035 0.60941 0.0
C2410 C 0.04095 0.5339 0.61359 0.0
C2411 C 0.02374 0.53611 0.59559 0.0
H2412 H 0.22777 0.31791 0.44257 0.0
H2413 H 0.21858 0.38331 0.40412 0.0
H2414 H 0.22473 0.29543 0.40512 0.0
H2415 H 0.21525 0.36058 0.3665 0.0
H2416 H 0.24546 0.30803 0.3054 0.0
H2417 H 0.24153 0.33549 0.33975 0.0
H2418 H 0.19438 0.28501 0.37469 0.0
H2419 H 0.19874 0.25755 0.34081 0.0
C2420 C 0.22497 0.3275 0.42616 0.0
C2421 C 0.2234 0.35241 0.42641 0.0
C2422 C 0.22302 0.31459 0.40468 0.0
C2423 C 0.21948 0.32622 0.38287 0.0
C2424 C 0.21802 0.35114 0.38301 0.0
C2425 C 0.21986 0.36411 0.40459 0.0
C2426 C 0.23375 0.30315 0.32016 0.0
C2427 C 0.22278 0.28051 0.32071 0.0
C2428 C 0.23152 0.31883 0.33983 0.0
C2429 C 0.21816 0.31209 0.36018 0.0
C2430 C 0.20537 0.29039 0.35958 0.0
C2431 C 0.20775 0.27473 0.34012 0.0
H2432 H 0.31635 0.37279 0.51598 0.0
H2433 H 0.30893 0.44564 0.49361 0.0
H2434 H 0.35957 0.3803 0.52424 0.0
H2435 H 0.35159 0.45285 0.50202 0.0
H2436 H 0.41089 0.46504 0.55512 0.0
H2437 H 0.37459 0.43999 0.55347 0.0
H2438 H 0.39866 0.40929 0.48635 0.0
H2439 H 0.43531 0.43419 0.48809 0.0
C2440 C 0.3239 0.3903 0.51275 0.0
C2441 C 0.30918 0.40866 0.5042 0.0
C2442 C 0.34854 0.39449 0.51743 0.0
C2443 C 0.3586 0.41711 0.51375 0.0
C2444 C 0.34406 0.43525 0.50492 0.0
C2445 C 0.31966 0.43108 0.5001 0.0
C2446 C 0.40913 0.45193 0.54075 0.0
C2447 C 0.42563 0.45171 0.52157 0.0
C2448 C 0.3884 0.4376 0.53984 0.0
C2449 C 0.38391 0.423 0.51971 0.0
C2450 C 0.40197 0.42031 0.50215 0.0
C2451 C 0.42293 0.43452 0.50318 0.0
H2452 H 0.78209 0.03577 0.49453 0.0
H2453 H 0.81332 0.10626 0.48815 0.0
H2454 H 0.82246 0.01851 0.48924 0.0
H2455 H 0.85314 0.08902 0.48296 0.0
H2456 H 0.91071 0.05195 0.44058 0.0
H2457 H 0.86881 0.06267 0.44734 0.0
H2458 H 0.8668 0.02027 0.51104 0.0
H2459 H 0.9093 0.00938 0.50442 0.0
C2460 C 0.79749 0.04757 0.49212 0.0
C2461 C 0.79443 0.0724 0.49134 0.0
C2462 C 0.82053 0.03767 0.48923 0.0
C2463 C 0.84071 0.05247 0.48537 0.0
C2464 C 0.83773 0.07723 0.48548 0.0
C2465 C 0.8149 0.08708 0.48845 0.0
C2466 C 0.9014 0.0446 0.45591 0.0
C2467 C 0.91351 0.03013 0.47219 0.0
C2468 C 0.87738 0.0508 0.45976 0.0
C2469 C 0.86483 0.04263 0.4799 0.0
C2470 C 0.87622 0.02682 0.49539 0.0
C2471 C 0.90048 0.02063 0.49159 0.0
H2472 H 0.61143 0.09443 0.21824 0.0
H2473 H 0.65315 0.06112 0.27366 0.0
H2474 H 0.63871 0.12879 0.21976 0.0
H2475 H 0.68006 0.09562 0.27542 0.0
H2476 H 0.68591 0.19368 0.24286 0.0
H2477 H 0.65487 0.16257 0.24442 0.0
H2478 H 0.71058 0.10922 0.24623 0.0
H2479 H 0.74159 0.14016 0.24506 0.0
C2480 C 0.62604 0.09469 0.23116 0.0
C2481 C 0.63044 0.0749 0.24553 0.0
C2482 C 0.64164 0.11436 0.23201 0.0
C2483 C 0.66178 0.11457 0.24732 0.0
C2484 C 0.66502 0.0956 0.263 0.0
C2485 C 0.64952 0.07594 0.26209 0.0
C2486 C 0.69154 0.17529 0.2434 0.0
C2487 C 0.71623 0.16937 0.24397 0.0
C2488 C 0.67375 0.15753 0.24432 0.0
C2489 C 0.68035 0.13356 0.24584 0.0
C2490 C 0.705 0.12762 0.24568 0.0
C2491 C 0.72275 0.14533 0.24479 0.0
H2492 H 0.63323 0.87686 0.0153 0.0
H2493 H 0.67486 0.94235 0.01339 0.0
H2494 H 0.59655 0.89877 0.00547 0.0
H2495 H 0.63823 0.96398 0.00337 0.0
H2496 H 0.58265 0.97542 0.94193 0.0
H2497 H 0.61451 0.95233 0.96002 0.0
H2498 H 0.56947 0.9403 0.02197 0.0
H2499 H 0.53734 0.96414 0.00411 0.0
C2500 C 0.63445 0.89596 0.01325 0.0
C2501 C 0.65695 0.90788 0.01462 0.0
C2502 C 0.61347 0.90842 0.00781 0.0
C2503 C 0.61485 0.93285 0.00349 0.0
C2504 C 0.63694 0.94504 0.00654 0.0
C2505 C 0.65783 0.93267 0.01223 0.0
C2506 C 0.57931 0.96774 0.95931 0.0
C2507 C 0.55757 0.97182 0.97173 0.0
C2508 C 0.59762 0.95466 0.96967 0.0
C2509 C 0.59443 0.94509 -0.00753 0.0
C2510 C 0.57224 0.9478 0.00442 0.0
C2511 C 0.55394 0.96133 -0.00582 0.0
H2512 H 0.38043 0.40112 0.26911 0.0
H2513 H 0.31413 0.43636 0.25076 0.0
H2514 H 0.35772 0.36484 0.2776 0.0
H2515 H 0.29147 0.39986 0.25788 0.0
H2516 H 0.25208 0.33444 0.26353 0.0
H2517 H 0.27548 0.36803 0.28003 0.0
H2518 H 0.34088 0.33687 0.25104 0.0
H2519 H 0.31748 0.30335 0.23558 0.0
C2520 C 0.36093 0.40112 0.26708 0.0
C2521 C 0.34907 0.42134 0.25873 0.0
C2522 C 0.3479 0.38033 0.27194 0.0
C2523 C 0.32278 0.37911 0.26795 0.0
C2524 C 0.31074 0.40002 0.2614 0.0
C2525 C 0.32374 0.42097 0.25703 0.0
C2526 C 0.27164 0.33429 0.26199 0.0
C2527 C 0.28314 0.31646 0.24844 0.0
C2528 C 0.28503 0.35368 0.27106 0.0
C2529 C 0.31001 0.35565 0.26623 0.0
C2530 C 0.32175 0.33615 0.25524 0.0
C2531 C 0.30837 0.31677 0.24637 0.0
H2532 H 0.15905 0.58587 0.95792 0.0
H2533 H 0.15767 0.63804 0.01565 0.0
H2534 H 0.11633 0.57676 0.96512 0.0
H2535 H 0.11509 0.62836 0.02326 0.0
H2536 H 0.0711 0.55447 0.04637 0.0
H2537 H 0.10178 0.58477 0.03837 0.0
H2538 H 0.0712 0.59524 0.9683 0.0
H2539 H 0.04 0.56537 0.97658 0.0
C2540 C 0.14949 0.59569 0.9718 0.0
C2541 C 0.16171 0.6124 0.98639 0.0
C2542 C 0.125 0.5907 0.97576 0.0
C2543 C 0.11248 0.602 -0.00533 0.0
C2544 C 0.12434 0.61961 0.00846 0.0
C2545 C 0.14869 0.62501 0.00414 0.0
C2546 C 0.0701 0.56423 0.02983 0.0
C2547 C 0.05351 0.55736 0.01194 0.0
C2548 C 0.08766 0.58157 0.02523 0.0
C2549 C 0.08907 0.59187 0.00253 0.0
C2550 C 0.07051 0.58735 0.98587 0.0
C2551 C 0.05257 0.57038 0.9907 0.0
H2552 H 0.67148 0.94338 0.28826 0.0
H2553 H 0.66323 0.92321 0.21373 0.0
H2554 H 0.69121 0.90516 0.29579 0.0
H2555 H 0.68338 0.88568 0.22099 0.0
H2556 H 0.6742 0.82016 0.2939 0.0
H2557 H 0.66861 0.86305 0.29137 0.0
H2558 H 0.72342 0.86651 0.23626 0.0
H2559 H 0.72932 0.82365 0.23884 0.0
C2560 C 0.67464 0.9311 0.27343 0.0
C2561 C 0.66576 0.93587 0.25051 0.0
C2562 C 0.6858 0.90935 0.27771 0.0
C2563 C 0.6887 0.89261 0.25894 0.0
C2564 C 0.68154 0.89839 0.23569 0.0
C2565 C 0.66991 0.91973 0.23157 0.0
C2566 C 0.68526 0.83009 0.28143 0.0
C2567 C 0.70189 0.81849 0.26627 0.0
C2568 C 0.6823 0.85465 0.28026 0.0
C2569 C 0.69569 0.86795 0.26371 0.0
C2570 C 0.71299 0.85656 0.24922 0.0
C2571 C 0.71621 0.83205 0.25062 0.0
H2572 H 0.80721 0.05233 0.71784 0.0
H2573 H 0.86487 0.08028 0.76258 0.0
H2574 H 0.79099 0.09245 0.71406 0.0
H2575 H 0.84844 0.11989 0.75956 0.0
H2576 H 0.75473 0.15988 0.75111 0.0
H2577 H 0.77066 0.12146 0.73837 0.0
H2578 H 0.84243 0.15255 0.73392 0.0
H2579 H 0.82634 0.19068 0.74788 0.0
C2580 C 0.81623 0.067 0.72708 0.0
C2581 C 0.83719 0.06318 0.74067 0.0
C2582 C 0.80706 0.08998 0.72478 0.0
C2583 C 0.81861 0.10952 0.73615 0.0
C2584 C 0.83946 0.10548 0.74988 0.0
C2585 C 0.84869 0.08265 0.75199 0.0
C2586 C 0.77369 0.15865 0.74626 0.0
C2587 C 0.78942 0.17797 0.75052 0.0
C2588 C 0.7829 0.13662 0.73904 0.0
C2589 C 0.80798 0.13372 0.73598 0.0
C2590 C 0.82312 0.15403 0.73695 0.0
C2591 C 0.81393 0.17596 0.74452 0.0
loop_
_geom_bond_atom_site_label_1
_geom_bond_atom_site_label_2
_geom_bond_distance
_geom_bond_site_symmetry_2
_ccdc_geom_bond_type
C0 O1 1.306 . S
C0 O3 1.160 . S
O1 C0 1.306 . S
O1 Cd2 2.228 1_655 S
Cd2 O1 2.228 1_455 S
Cd2 O6 2.273 . S
Cd2 O10 2.277 . S
O3 C0 1.160 . S
O3 Cd4 2.203 1_655 S
Cd4 O3 2.203 1_455 S
Cd4 O6 2.411 . S
Cd4 O7 2.333 . S
Cd4 O8 2.352 . S
Cd4 O12 2.277 . S
Cd4 O13 2.356 . S
C5 O10 1.209 . S
C5 O12 1.226 . S
O6 Cd2 2.273 . S
O6 Cd4 2.411 . S
O6 C9 1.320 . S
O7 Cd4 2.333 . S
O7 C9 1.214 . S
O8 Cd4 2.352 . S
O8 C11 1.258 . S
C9 O6 1.320 . S
C9 O7 1.214 . S
O10 Cd2 2.277 . S
O10 C5 1.209 . S
C11 O8 1.258 . S
C11 O13 1.282 . S
O12 Cd4 2.277 . S
O12 C5 1.226 . S
O13 Cd4 2.356 . S
O13 C11 1.282 . S
C14 O15 1.306 . S
C14 O17 1.160 . S
O15 C14 1.306 . S
O15 Cd16 2.228 1_655 S
Cd16 O15 2.228 1_455 S
Cd16 O20 2.273 . S
Cd16 O24 2.277 . S
O17 C14 1.160 . S
O17 Cd18 2.203 1_655 S
Cd18 O17 2.203 1_455 S
Cd18 O20 2.411 . S
Cd18 O21 2.333 . S
Cd18 O22 2.352 . S
Cd18 O26 2.277 . S
Cd18 O27 2.356 . S
C19 O24 1.209 . S
C19 O26 1.226 . S
O20 Cd16 2.273 . S
O20 Cd18 2.411 . S
O20 C23 1.320 . S
O21 Cd18 2.333 . S
O21 C23 1.214 . S
O22 Cd18 2.352 . S
O22 C25 1.258 . S
C23 O20 1.320 . S
C23 O21 1.214 . S
O24 Cd16 2.277 . S
O24 C19 1.209 . S
C25 O22 1.258 . S
C25 O27 1.282 . S
O26 Cd18 2.277 . S
O26 C19 1.226 . S
O27 Cd18 2.356 . S
O27 C25 1.282 . S
C28 O29 1.306 . S
C28 O31 1.160 . S
O29 C28 1.306 . S
O29 Cd30 2.228 . S
Cd30 O29 2.228 . S
Cd30 O34 2.273 . S
Cd30 O38 2.277 . S
O31 C28 1.160 . S
O31 Cd32 2.203 . S
Cd32 O31 2.203 . S
Cd32 O34 2.411 . S
Cd32 O35 2.333 . S
Cd32 O36 2.352 . S
Cd32 O40 2.277 . S
Cd32 O41 2.356 . S
C33 O38 1.209 . S
C33 O40 1.226 . S
O34 Cd30 2.273 . S
O34 Cd32 2.411 . S
O34 C37 1.320 . S
O35 Cd32 2.333 . S
O35 C37 1.214 . S
O36 Cd32 2.352 . S
O36 C39 1.258 . S
C37 O34 1.320 . S
C37 O35 1.214 . S
O38 Cd30 2.277 . S
O38 C33 1.209 . S
C39 O36 1.258 . S
C39 O41 1.282 . S
O40 Cd32 2.277 . S
O40 C33 1.226 . S
O41 Cd32 2.356 . S
O41 C39 1.282 . S
C42 O43 1.306 . S
C42 O45 1.160 . S
O43 C42 1.306 . S
O43 Cd44 2.228 . S
Cd44 O43 2.228 . S
Cd44 O48 2.273 . S
Cd44 O52 2.277 . S
O45 C42 1.160 . S
O45 Cd46 2.203 . S
Cd46 O45 2.203 . S
Cd46 O48 2.411 . S
Cd46 O49 2.333 . S
Cd46 O50 2.352 . S
Cd46 O54 2.277 . S
Cd46 O55 2.356 . S
C47 O52 1.209 . S
C47 O54 1.226 . S
O48 Cd44 2.273 . S
O48 Cd46 2.411 . S
O48 C51 1.320 . S
O49 Cd46 2.333 . S
O49 C51 1.214 . S
O50 Cd46 2.352 . S
O50 C53 1.258 . S
C51 O48 1.320 . S
C51 O49 1.214 . S
O52 Cd44 2.277 . S
O52 C47 1.209 . S
C53 O50 1.258 . S
C53 O55 1.282 . S
O54 Cd46 2.277 . S
O54 C47 1.226 . S
O55 Cd46 2.356 . S
O55 C53 1.282 . S
C56 O57 1.306 . S
C56 O59 1.166 . S
O57 C56 1.306 . S
O57 Cd58 2.228 . S
Cd58 O57 2.228 . S
Cd58 O62 2.273 . S
Cd58 O66 2.277 . S
O59 C56 1.166 . S
O59 Cd60 2.203 1_545 S
Cd60 O59 2.203 1_565 S
Cd60 O62 2.411 1_565 S
Cd60 O63 2.333 . S
Cd60 O64 2.352 . S
Cd60 O68 2.277 1_565 S
Cd60 O69 2.356 . S
C61 O66 1.209 . S
C61 O68 1.226 . S
O62 Cd58 2.273 . S
O62 Cd60 2.411 1_545 S
O62 C65 1.320 . S
O63 Cd60 2.333 . S
O63 C65 1.214 1_565 S
O64 Cd60 2.352 . S
O64 C67 1.258 . S
C65 O62 1.320 . S
C65 O63 1.214 1_545 S
O66 Cd58 2.277 . S
O66 C61 1.209 . S
C67 O64 1.258 . S
C67 O69 1.282 . S
O68 Cd60 2.277 1_545 S
O68 C61 1.226 . S
O69 Cd60 2.356 . S
O69 C67 1.282 . S
C70 O71 1.306 . S
C70 O73 1.160 . S
O71 C70 1.306 . S
O71 Cd72 2.228 . S
Cd72 O71 2.228 . S
Cd72 O76 2.273 . S
Cd72 O80 2.277 . S
O73 C70 1.160 . S
O73 Cd74 2.203 . S
Cd74 O73 2.203 . S
Cd74 O76 2.411 . S
Cd74 O77 2.333 . S
Cd74 O78 2.352 . S
Cd74 O82 2.277 . S
Cd74 O83 2.356 . S
C75 O80 1.209 . S
C75 O82 1.226 . S
O76 Cd72 2.273 . S
O76 Cd74 2.411 . S
O76 C79 1.320 . S
O77 Cd74 2.333 . S
O77 C79 1.214 . S
O78 Cd74 2.352 . S
O78 C81 1.258 . S
C79 O76 1.320 . S
C79 O77 1.214 . S
O80 Cd72 2.277 . S
O80 C75 1.209 . S
C81 O78 1.258 . S
C81 O83 1.282 . S
O82 Cd74 2.277 . S
O82 C75 1.226 . S
O83 Cd74 2.356 . S
O83 C81 1.282 . S
C84 O85 1.306 1_545 S
C84 O87 1.160 . S
O85 C84 1.306 1_565 S
O85 Cd86 2.228 . S
Cd86 O85 2.228 . S
Cd86 O90 2.273 1_565 S
Cd86 O94 2.277 . S
O87 C84 1.160 . S
O87 Cd88 2.203 . S
Cd88 O87 2.203 . S
Cd88 O90 2.411 . S
Cd88 O91 2.333 . S
Cd88 O92 2.352 . S
Cd88 O96 2.277 1_545 S
Cd88 O97 2.356 . S
C89 O94 1.209 . S
C89 O96 1.226 . S
O90 Cd86 2.273 1_545 S
O90 Cd88 2.411 . S
O90 C93 1.320 . S
O91 Cd88 2.333 . S
O91 C93 1.214 . S
O92 Cd88 2.352 . S
O92 C95 1.258 . S
C93 O90 1.320 . S
C93 O91 1.214 . S
O94 Cd86 2.277 . S
O94 C89 1.209 . S
C95 O92 1.258 . S
C95 O97 1.282 . S
O96 Cd88 2.277 1_565 S
O96 C89 1.226 . S
O97 Cd88 2.356 . S
O97 C95 1.282 . S
C98 O99 1.306 . S
C98 O101 1.160 . S
O99 C98 1.306 . S
O99 Cd100 2.228 . S
Cd100 O99 2.228 . S
Cd100 O104 2.273 . S
Cd100 O108 2.277 . S
O101 C98 1.160 . S
O101 Cd102 2.204 . S
Cd102 O101 2.204 . S
Cd102 O104 2.412 . S
Cd102 O105 2.333 . S
Cd102 O106 2.343 1_554 S
Cd102 O110 2.283 . S
Cd102 O111 2.351 1_554 S
C103 O108 1.209 . S
C103 O110 1.226 . S
O104 Cd100 2.273 . S
O104 Cd102 2.412 . S
O104 C107 1.320 . S
O105 Cd102 2.333 . S
O105 C107 1.215 . S
O106 Cd102 2.343 1_556 S
O106 C109 1.258 . S
C107 O104 1.320 . S
C107 O105 1.215 . S
O108 Cd100 2.277 . S
O108 C103 1.209 . S
C109 O106 1.258 . S
C109 O111 1.282 . S
O110 Cd102 2.283 . S
O110 C103 1.226 . S
O111 Cd102 2.351 1_556 S
O111 C109 1.282 . S
C112 O113 1.288 1_554 S
C112 O115 1.174 . S
O113 C112 1.288 1_556 S
O113 Cd114 2.228 . S
Cd114 O113 2.228 . S
Cd114 O118 2.273 1_556 S
Cd114 O122 2.277 . S
O115 C112 1.174 . S
O115 Cd116 2.203 . S
Cd116 O115 2.203 . S
Cd116 O118 2.411 . S
Cd116 O119 2.333 . S
Cd116 O120 2.352 . S
Cd116 O124 2.277 1_554 S
Cd116 O125 2.356 . S
C117 O122 1.209 . S
C117 O124 1.226 . S
O118 Cd114 2.273 1_554 S
O118 Cd116 2.411 . S
O118 C121 1.320 . S
O119 Cd116 2.333 . S
O119 C121 1.214 . S
O120 Cd116 2.352 . S
O120 C123 1.258 . S
C121 O118 1.320 . S
C121 O119 1.214 . S
O122 Cd114 2.277 . S
O122 C117 1.209 . S
C123 O120 1.258 . S
C123 O125 1.282 . S
O124 Cd116 2.277 1_556 S
O124 C117 1.226 . S
O125 Cd116 2.356 . S
O125 C123 1.282 . S
C126 O127 1.306 . S
C126 O129 1.160 . S
O127 C126 1.306 . S
O127 Cd128 2.228 . S
Cd128 O127 2.228 . S
Cd128 O132 2.273 . S
Cd128 O136 2.277 . S
O129 C126 1.160 . S
O129 Cd130 2.203 . S
Cd130 O129 2.203 . S
Cd130 O132 2.411 . S
Cd130 O133 2.333 . S
Cd130 O134 2.352 . S
Cd130 O138 2.277 . S
Cd130 O139 2.356 . S
C131 O136 1.209 . S
C131 O138 1.226 . S
O132 Cd128 2.273 . S
O132 Cd130 2.411 . S
O132 C135 1.320 . S
O133 Cd130 2.333 . S
O133 C135 1.214 . S
O134 Cd130 2.352 . S
O134 C137 1.258 . S
C135 O132 1.320 . S
C135 O133 1.214 . S
O136 Cd128 2.277 . S
O136 C131 1.209 . S
C137 O134 1.258 . S
C137 O139 1.282 . S
O138 Cd130 2.277 . S
O138 C131 1.226 . S
O139 Cd130 2.356 . S
O139 C137 1.282 . S
C140 O141 1.306 . S
C140 O143 1.160 . S
O141 C140 1.306 . S
O141 Cd142 2.228 . S
Cd142 O141 2.228 . S
Cd142 O146 2.273 . S
Cd142 O150 2.277 . S
O143 C140 1.160 . S
O143 Cd144 2.203 . S
Cd144 O143 2.203 . S
Cd144 O146 2.411 . S
Cd144 O147 2.333 . S
Cd144 O148 2.352 . S
Cd144 O152 2.277 . S
Cd144 O153 2.356 . S
C145 O150 1.209 . S
C145 O152 1.226 . S
O146 Cd142 2.273 . S
O146 Cd144 2.411 . S
O146 C149 1.320 . S
O147 Cd144 2.333 . S
O147 C149 1.214 . S
O148 Cd144 2.352 . S
O148 C151 1.258 . S
C149 O146 1.320 . S
C149 O147 1.214 . S
O150 Cd142 2.277 . S
O150 C145 1.209 . S
C151 O148 1.258 . S
C151 O153 1.282 . S
O152 Cd144 2.277 . S
O152 C145 1.226 . S
O153 Cd144 2.356 . S
O153 C151 1.282 . S
C154 O155 1.306 . S
C154 O157 1.160 . S
O155 C154 1.306 . S
O155 Cd156 2.228 . S
Cd156 O155 2.228 . S
Cd156 O160 2.273 . S
Cd156 O164 2.277 . S
O157 C154 1.160 . S
O157 Cd158 2.203 . S
Cd158 O157 2.203 . S
Cd158 O160 2.411 . S
Cd158 O161 2.333 . S
Cd158 O162 2.352 . S
Cd158 O166 2.277 . S
Cd158 O167 2.356 . S
C159 O164 1.209 . S
C159 O166 1.226 . S
O160 Cd156 2.273 . S
O160 Cd158 2.411 . S
O160 C163 1.320 . S
O161 Cd158 2.333 . S
O161 C163 1.214 . S
O162 Cd158 2.352 . S
O162 C165 1.258 . S
C163 O160 1.320 . S
C163 O161 1.214 . S
O164 Cd156 2.277 . S
O164 C159 1.209 . S
C165 O162 1.258 . S
C165 O167 1.282 . S
O166 Cd158 2.277 . S
O166 C159 1.226 . S
O167 Cd158 2.356 . S
O167 C165 1.282 . S
C168 O169 1.306 . S
C168 O171 1.160 . S
O169 C168 1.306 . S
O169 Cd170 2.228 1_655 S
Cd170 O169 2.228 1_455 S
Cd170 O174 2.273 . S
Cd170 O178 2.277 . S
O171 C168 1.160 . S
O171 Cd172 2.203 1_655 S
Cd172 O171 2.203 1_455 S
Cd172 O174 2.411 . S
Cd172 O175 2.333 . S
Cd172 O176 2.352 . S
Cd172 O180 2.277 . S
Cd172 O181 2.356 . S
C173 O178 1.209 . S
C173 O180 1.226 . S
O174 Cd170 2.273 . S
O174 Cd172 2.411 . S
O174 C177 1.320 . S
O175 Cd172 2.333 . S
O175 C177 1.214 . S
O176 Cd172 2.352 . S
O176 C179 1.258 . S
C177 O174 1.320 . S
C177 O175 1.214 . S
O178 Cd170 2.277 . S
O178 C173 1.209 . S
C179 O176 1.258 . S
C179 O181 1.282 . S
O180 Cd172 2.277 . S
O180 C173 1.226 . S
O181 Cd172 2.356 . S
O181 C179 1.282 . S
C182 O183 1.306 . S
C182 O185 1.160 . S
O183 C182 1.306 . S
O183 Cd184 2.228 1_655 S
Cd184 O183 2.228 1_455 S
Cd184 O188 2.273 . S
Cd184 O192 2.277 . S
O185 C182 1.160 . S
O185 Cd186 2.203 1_655 S
Cd186 O185 2.203 1_455 S
Cd186 O188 2.411 . S
Cd186 O189 2.333 . S
Cd186 O190 2.352 . S
Cd186 O194 2.277 . S
Cd186 O195 2.356 . S
C187 O192 1.209 . S
C187 O194 1.226 . S
O188 Cd184 2.273 . S
O188 Cd186 2.411 . S
O188 C191 1.320 . S
O189 Cd186 2.333 . S
O189 C191 1.214 . S
O190 Cd186 2.352 . S
O190 C193 1.258 . S
C191 O188 1.320 . S
C191 O189 1.214 . S
O192 Cd184 2.277 . S
O192 C187 1.209 . S
C193 O190 1.258 . S
C193 O195 1.282 . S
O194 Cd186 2.277 . S
O194 C187 1.226 . S
O195 Cd186 2.356 . S
O195 C193 1.282 . S
C196 O197 1.306 . S
C196 O199 1.160 . S
O197 C196 1.306 . S
O197 Cd198 2.228 . S
Cd198 O197 2.228 . S
Cd198 O202 2.273 . S
Cd198 O206 2.277 . S
O199 C196 1.160 . S
O199 Cd200 2.203 . S
Cd200 O199 2.203 . S
Cd200 O202 2.411 . S
Cd200 O203 2.333 . S
Cd200 O204 2.352 . S
Cd200 O208 2.277 . S
Cd200 O209 2.356 . S
C201 O206 1.209 . S
C201 O208 1.226 . S
O202 Cd198 2.273 . S
O202 Cd200 2.411 . S
O202 C205 1.320 . S
O203 Cd200 2.333 . S
O203 C205 1.214 . S
O204 Cd200 2.352 . S
O204 C207 1.258 . S
C205 O202 1.320 . S
C205 O203 1.214 . S
O206 Cd198 2.277 . S
O206 C201 1.209 . S
C207 O204 1.258 . S
C207 O209 1.282 . S
O208 Cd200 2.277 . S
O208 C201 1.226 . S
O209 Cd200 2.356 . S
O209 C207 1.282 . S
C210 O211 1.306 . S
C210 O213 1.160 . S
O211 C210 1.306 . S
O211 Cd212 2.228 . S
Cd212 O211 2.228 . S
Cd212 O216 2.273 . S
Cd212 O220 2.277 . S
O213 C210 1.160 . S
O213 Cd214 2.203 . S
Cd214 O213 2.203 . S
Cd214 O216 2.411 . S
Cd214 O217 2.333 . S
Cd214 O218 2.352 . S
Cd214 O222 2.277 . S
Cd214 O223 2.356 . S
C215 O220 1.209 . S
C215 O222 1.226 . S
O216 Cd212 2.273 . S
O216 Cd214 2.411 . S
O216 C219 1.320 . S
O217 Cd214 2.333 . S
O217 C219 1.214 . S
O218 Cd214 2.352 . S
O218 C221 1.258 . S
C219 O216 1.320 . S
C219 O217 1.214 . S
O220 Cd212 2.277 . S
O220 C215 1.209 . S
C221 O218 1.258 . S
C221 O223 1.282 . S
O222 Cd214 2.277 . S
O222 C215 1.226 . S
O223 Cd214 2.356 . S
O223 C221 1.282 . S
C224 O225 1.306 . S
C224 O227 1.160 1_565 S
O225 C224 1.306 . S
O225 Cd226 2.228 . S
Cd226 O225 2.228 . S
Cd226 O230 2.273 . S
Cd226 O234 2.277 . S
O227 C224 1.160 1_545 S
O227 Cd228 2.203 . S
Cd228 O227 2.203 . S
Cd228 O230 2.411 1_545 S
Cd228 O231 2.333 . S
Cd228 O232 2.352 . S
Cd228 O236 2.277 1_545 S
Cd228 O237 2.356 . S
C229 O234 1.209 . S
C229 O236 1.226 . S
O230 Cd226 2.273 . S
O230 Cd228 2.411 1_565 S
O230 C233 1.320 1_565 S
O231 Cd228 2.333 . S
O231 C233 1.214 . S
O232 Cd228 2.352 . S
O232 C235 1.258 . S
C233 O230 1.320 1_545 S
C233 O231 1.214 . S
O234 Cd226 2.277 . S
O234 C229 1.209 . S
C235 O232 1.258 . S
C235 O237 1.282 . S
O236 Cd228 2.277 1_565 S
O236 C229 1.226 . S
O237 Cd228 2.356 . S
O237 C235 1.282 . S
C238 O239 1.306 . S
C238 O241 1.160 . S
O239 C238 1.306 . S
O239 Cd240 2.228 . S
Cd240 O239 2.228 . S
Cd240 O244 2.273 . S
Cd240 O248 2.277 . S
O241 C238 1.160 . S
O241 Cd242 2.203 . S
Cd242 O241 2.203 . S
Cd242 O244 2.411 . S
Cd242 O245 2.333 . S
Cd242 O246 2.352 . S
Cd242 O250 2.277 . S
Cd242 O251 2.356 . S
C243 O248 1.209 . S
C243 O250 1.226 . S
O244 Cd240 2.273 . S
O244 Cd242 2.411 . S
O244 C247 1.320 . S
O245 Cd242 2.333 . S
O245 C247 1.214 . S
O246 Cd242 2.352 . S
O246 C249 1.258 . S
C247 O244 1.320 . S
C247 O245 1.214 . S
O248 Cd240 2.277 . S
O248 C243 1.209 . S
C249 O246 1.258 . S
C249 O251 1.282 . S
O250 Cd242 2.277 . S
O250 C243 1.226 . S
O251 Cd242 2.356 . S
O251 C249 1.282 . S
C252 O253 1.306 . S
C252 O255 1.160 . S
O253 C252 1.306 . S
O253 Cd254 2.228 . S
Cd254 O253 2.228 . S
Cd254 O258 2.273 . S
Cd254 O262 2.277 . S
O255 C252 1.160 . S
O255 Cd256 2.203 1_545 S
Cd256 O255 2.203 1_565 S
Cd256 O258 2.409 1_565 S
Cd256 O259 2.333 . S
Cd256 O260 2.370 . S
Cd256 O264 2.262 1_565 S
Cd256 O265 2.369 . S
C257 O262 1.209 . S
C257 O264 1.226 . S
O258 Cd254 2.273 . S
O258 Cd256 2.409 1_545 S
O258 C261 1.320 . S
O259 Cd256 2.333 . S
O259 C261 1.214 1_565 S
O260 Cd256 2.370 . S
O260 C263 1.258 . S
C261 O258 1.320 . S
C261 O259 1.214 1_545 S
O262 Cd254 2.277 . S
O262 C257 1.209 . S
C263 O260 1.258 . S
C263 O265 1.282 . S
O264 Cd256 2.262 1_545 S
O264 C257 1.226 . S
O265 Cd256 2.369 . S
O265 C263 1.282 . S
C266 O267 1.306 1_554 S
C266 O269 1.160 . S
O267 C266 1.306 1_556 S
O267 Cd268 2.228 . S
Cd268 O267 2.228 . S
Cd268 O272 2.273 1_556 S
Cd268 O276 2.277 . S
O269 C266 1.160 . S
O269 Cd270 2.203 . S
Cd270 O269 2.203 . S
Cd270 O272 2.411 . S
Cd270 O273 2.333 . S
Cd270 O274 2.352 . S
Cd270 O278 2.277 1_554 S
Cd270 O279 2.356 . S
C271 O276 1.209 . S
C271 O278 1.226 . S
O272 Cd268 2.273 1_554 S
O272 Cd270 2.411 . S
O272 C275 1.320 . S
O273 Cd270 2.333 . S
O273 C275 1.214 . S
O274 Cd270 2.352 . S
O274 C277 1.258 . S
C275 O272 1.320 . S
C275 O273 1.214 . S
O276 Cd268 2.277 . S
O276 C271 1.209 . S
C277 O274 1.258 . S
C277 O279 1.282 . S
O278 Cd270 2.277 1_556 S
O278 C271 1.226 . S
O279 Cd270 2.356 . S
O279 C277 1.282 . S
C280 O281 1.306 . S
C280 O283 1.160 1_554 S
O281 C280 1.306 . S
O281 Cd282 2.228 . S
Cd282 O281 2.228 . S
Cd282 O286 2.273 . S
Cd282 O290 2.277 . S
O283 C280 1.160 1_556 S
O283 Cd284 2.203 . S
Cd284 O283 2.203 . S
Cd284 O286 2.411 1_556 S
Cd284 O287 2.333 . S
Cd284 O288 2.352 . S
Cd284 O292 2.277 1_556 S
Cd284 O293 2.356 . S
C285 O290 1.209 . S
C285 O292 1.226 . S
O286 Cd282 2.273 . S
O286 Cd284 2.411 1_554 S
O286 C289 1.318 1_554 S
O287 Cd284 2.333 . S
O287 C289 1.217 . S
O288 Cd284 2.352 . S
O288 C291 1.258 . S
C289 O286 1.318 1_556 S
C289 O287 1.217 . S
O290 Cd282 2.277 . S
O290 C285 1.209 . S
C291 O288 1.258 . S
C291 O293 1.282 . S
O292 Cd284 2.277 1_554 S
O292 C285 1.226 . S
O293 Cd284 2.356 . S
O293 C291 1.282 . S
C294 O295 1.306 . S
C294 O297 1.160 . S
O295 C294 1.306 . S
O295 Cd296 2.228 . S
Cd296 O295 2.228 . S
Cd296 O300 2.273 . S
Cd296 O304 2.277 . S
O297 C294 1.160 . S
O297 Cd298 2.203 . S
Cd298 O297 2.203 . S
Cd298 O300 2.411 . S
Cd298 O301 2.333 . S
Cd298 O302 2.352 . S
Cd298 O306 2.277 . S
Cd298 O307 2.356 . S
C299 O304 1.209 . S
C299 O306 1.226 . S
O300 Cd296 2.273 . S
O300 Cd298 2.411 . S
O300 C303 1.320 . S
O301 Cd298 2.333 . S
O301 C303 1.214 . S
O302 Cd298 2.352 . S
O302 C305 1.258 . S
C303 O300 1.320 . S
C303 O301 1.214 . S
O304 Cd296 2.277 . S
O304 C299 1.209 . S
C305 O302 1.258 . S
C305 O307 1.282 . S
O306 Cd298 2.277 . S
O306 C299 1.226 . S
O307 Cd298 2.356 . S
O307 C305 1.282 . S
C308 O309 1.306 . S
C308 O311 1.160 . S
O309 C308 1.306 . S
O309 Cd310 2.228 . S
Cd310 O309 2.228 . S
Cd310 O314 2.273 . S
Cd310 O318 2.277 . S
O311 C308 1.160 . S
O311 Cd312 2.203 . S
Cd312 O311 2.203 . S
Cd312 O314 2.411 . S
Cd312 O315 2.333 . S
Cd312 O316 2.352 . S
Cd312 O320 2.277 . S
Cd312 O321 2.356 . S
C313 O318 1.209 . S
C313 O320 1.226 . S
O314 Cd310 2.273 . S
O314 Cd312 2.411 . S
O314 C317 1.320 . S
O315 Cd312 2.333 . S
O315 C317 1.214 . S
O316 Cd312 2.352 . S
O316 C319 1.258 . S
C317 O314 1.320 . S
C317 O315 1.214 . S
O318 Cd310 2.277 . S
O318 C313 1.209 . S
C319 O316 1.258 . S
C319 O321 1.282 . S
O320 Cd312 2.277 . S
O320 C313 1.226 . S
O321 Cd312 2.356 . S
O321 C319 1.282 . S
C322 O323 1.306 . S
C322 O325 1.160 . S
O323 C322 1.306 . S
O323 Cd324 2.228 . S
Cd324 O323 2.228 . S
Cd324 O328 2.273 . S
Cd324 O332 2.277 . S
O325 C322 1.160 . S
O325 Cd326 2.203 . S
Cd326 O325 2.203 . S
Cd326 O328 2.411 . S
Cd326 O329 2.333 . S
Cd326 O330 2.352 . S
Cd326 O334 2.277 . S
Cd326 O335 2.356 . S
C327 O332 1.209 . S
C327 O334 1.226 . S
O328 Cd324 2.273 . S
O328 Cd326 2.411 . S
O328 C331 1.320 . S
O329 Cd326 2.333 . S
O329 C331 1.214 . S
O330 Cd326 2.352 . S
O330 C333 1.258 . S
C331 O328 1.320 . S
C331 O329 1.214 . S
O332 Cd324 2.277 . S
O332 C327 1.209 . S
C333 O330 1.258 . S
C333 O335 1.282 . S
O334 Cd326 2.277 . S
O334 C327 1.226 . S
O335 Cd326 2.356 . S
O335 C333 1.282 . S
O336 Mg337 1.990 . S
O336 C350 1.253 . S
Mg337 O336 1.990 . S
Mg337 O340 2.180 1_556 S
Mg337 O341 2.117 1_556 S
Mg337 O355 2.030 1_556 S
O338 Mg339 2.072 1_656 S
O338 C350 1.260 . S
Mg339 O338 2.072 1_454 S
Mg339 O340 2.099 1_455 S
Mg339 O342 2.079 1_545 S
Mg339 O343 2.081 . S
Mg339 O345 2.098 1_545 S
Mg339 O356 2.079 1_445 S
O340 Mg337 2.180 1_554 S
O340 Mg339 2.099 1_655 S
O340 C351 1.279 . S
O341 Mg337 2.117 1_554 S
O341 C351 1.250 . S
O342 Mg339 2.079 1_565 S
O342 C352 1.264 . S
O343 Mg339 2.081 . S
O343 C353 1.256 1_554 S
Mg344 O345 2.179 . S
Mg344 O346 2.030 . S
Mg344 O347 1.990 1_554 S
Mg344 O348 2.117 1_554 S
O345 Mg339 2.098 1_565 S
O345 Mg344 2.179 . S
O345 C354 1.282 1_554 S
O346 Mg344 2.030 . S
O346 C352 1.248 . S
O347 Mg344 1.990 1_556 S
O347 C353 1.253 1_565 S
O348 Mg344 2.117 1_556 S
O348 C354 1.250 . S
C349 O355 1.248 1_565 S
C349 O356 1.264 . S
C350 O336 1.253 . S
C350 O338 1.260 . S
C351 O340 1.279 . S
C351 O341 1.250 . S
C352 O342 1.264 . S
C352 O346 1.248 . S
C353 O343 1.256 1_556 S
C353 O347 1.253 1_545 S
C354 O345 1.282 1_556 S
C354 O348 1.250 . S
O355 Mg337 2.030 1_554 S
O355 C349 1.248 1_545 S
O356 Mg339 2.079 1_665 S
O356 C349 1.264 . S
O357 Mg358 1.990 . S
O357 C371 1.253 . S
Mg358 O357 1.990 . S
Mg358 O361 2.180 . S
Mg358 O362 2.117 . S
Mg358 O376 2.030 . S
O359 Mg360 2.072 . S
O359 C371 1.260 . S
Mg360 O359 2.072 . S
Mg360 O361 2.099 . S
Mg360 O363 2.079 . S
Mg360 O364 2.072 . S
Mg360 O366 2.099 . S
Mg360 O377 2.079 . S
O361 Mg358 2.180 . S
O361 Mg360 2.099 . S
O361 C372 1.279 . S
O362 Mg358 2.117 . S
O362 C372 1.250 . S
O363 Mg360 2.079 . S
O363 C373 1.264 . S
O364 Mg360 2.072 . S
O364 C374 1.260 . S
Mg365 O366 2.180 . S
Mg365 O367 2.030 . S
Mg365 O368 1.990 . S
Mg365 O369 2.117 . S
O366 Mg360 2.099 . S
O366 Mg365 2.180 . S
O366 C375 1.279 . S
O367 Mg365 2.030 . S
O367 C373 1.248 . S
O368 Mg365 1.990 . S
O368 C374 1.253 . S
O369 Mg365 2.117 . S
O369 C375 1.250 . S
C370 O376 1.248 . S
C370 O377 1.264 . S
C371 O357 1.253 . S
C371 O359 1.260 . S
C372 O361 1.279 . S
C372 O362 1.250 . S
C373 O363 1.264 . S
C373 O367 1.248 . S
C374 O364 1.260 . S
C374 O368 1.253 . S
C375 O366 1.279 . S
C375 O369 1.250 . S
O376 Mg358 2.030 . S
O376 C370 1.248 . S
O377 Mg360 2.079 . S
O377 C370 1.264 . S
O378 Mg379 1.990 . S
O378 C392 1.253 . S
Mg379 O378 1.990 . S
Mg379 O382 2.180 . S
Mg379 O383 2.117 . S
Mg379 O397 2.030 1_565 S
O380 Mg381 2.072 . S
O380 C392 1.260 1_545 S
Mg381 O380 2.072 . S
Mg381 O382 2.099 1_545 S
Mg381 O384 2.079 . S
Mg381 O385 2.072 1_545 S
Mg381 O387 2.099 . S
Mg381 O398 2.079 . S
O382 Mg379 2.180 . S
O382 Mg381 2.099 1_565 S
O382 C393 1.279 . S
O383 Mg379 2.117 . S
O383 C393 1.250 . S
O384 Mg381 2.079 . S
O384 C394 1.264 . S
O385 Mg381 2.072 1_565 S
O385 C395 1.260 . S
Mg386 O387 2.180 . S
Mg386 O388 2.030 . S
Mg386 O389 1.990 . S
Mg386 O390 2.117 . S
O387 Mg381 2.099 . S
O387 Mg386 2.180 . S
O387 C396 1.279 . S
O388 Mg386 2.030 . S
O388 C394 1.248 . S
O389 Mg386 1.990 . S
O389 C395 1.253 1_545 S
O390 Mg386 2.117 . S
O390 C396 1.250 . S
C391 O397 1.248 . S
C391 O398 1.264 . S
C392 O378 1.253 . S
C392 O380 1.260 1_565 S
C393 O382 1.279 . S
C393 O383 1.250 . S
C394 O384 1.264 . S
C394 O388 1.248 . S
C395 O385 1.260 . S
C395 O389 1.253 1_565 S
C396 O387 1.279 . S
C396 O390 1.250 . S
O397 Mg379 2.030 1_545 S
O397 C391 1.248 . S
O398 Mg381 2.079 . S
O398 C391 1.264 . S
O399 Mg400 1.990 . S
O399 C413 1.253 . S
Mg400 O399 1.990 . S
Mg400 O403 2.180 . S
Mg400 O404 2.117 . S
Mg400 O418 2.030 . S
O401 Mg402 2.072 . S
O401 C413 1.260 . S
Mg402 O401 2.072 . S
Mg402 O403 2.099 . S
Mg402 O405 2.079 . S
Mg402 O406 2.072 . S
Mg402 O408 2.099 . S
Mg402 O419 2.079 . S
O403 Mg400 2.180 . S
O403 Mg402 2.099 . S
O403 C414 1.279 . S
O404 Mg400 2.117 . S
O404 C414 1.250 . S
O405 Mg402 2.079 . S
O405 C415 1.264 . S
O406 Mg402 2.072 . S
O406 C416 1.260 . S
Mg407 O408 2.180 . S
Mg407 O409 2.030 . S
Mg407 O410 1.990 . S
Mg407 O411 2.117 . S
O408 Mg402 2.099 . S
O408 Mg407 2.180 . S
O408 C417 1.279 . S
O409 Mg407 2.030 . S
O409 C415 1.248 . S
O410 Mg407 1.990 . S
O410 C416 1.253 . S
O411 Mg407 2.117 . S
O411 C417 1.250 . S
C412 O418 1.248 . S
C412 O419 1.264 . S
C413 O399 1.253 . S
C413 O401 1.260 . S
C414 O403 1.279 . S
C414 O404 1.250 . S
C415 O405 1.264 . S
C415 O409 1.248 . S
C416 O406 1.260 . S
C416 O410 1.253 . S
C417 O408 1.279 . S
C417 O411 1.250 . S
O418 Mg400 2.030 . S
O418 C412 1.248 . S
O419 Mg402 2.079 . S
O419 C412 1.264 . S
O420 Mg421 1.990 1_655 S
O420 C434 1.254 . S
Mg421 O420 1.990 1_455 S
Mg421 O424 2.180 . S
Mg421 O425 2.117 1_455 S
Mg421 O439 2.030 . S
O422 Mg423 2.072 1_565 S
O422 C434 1.258 1_455 S
Mg423 O422 2.072 1_545 S
Mg423 O424 2.099 1_545 S
Mg423 O426 2.079 . S
Mg423 O427 2.072 1_455 S
Mg423 O429 2.099 . S
Mg423 O440 2.079 1_545 S
O424 Mg421 2.180 . S
O424 Mg423 2.099 1_565 S
O424 C435 1.279 1_455 S
O425 Mg421 2.117 1_655 S
O425 C435 1.250 . S
O426 Mg423 2.079 . S
O426 C436 1.264 . S
O427 Mg423 2.072 1_655 S
O427 C437 1.260 . S
Mg428 O429 2.164 1_655 S
Mg428 O430 2.027 1_655 S
Mg428 O431 2.019 . S
Mg428 O432 2.110 1_655 S
O429 Mg423 2.099 . S
O429 Mg428 2.164 1_455 S
O429 C438 1.279 . S
O430 Mg428 2.027 1_455 S
O430 C436 1.248 . S
O431 Mg428 2.019 . S
O431 C437 1.253 . S
O432 Mg428 2.110 1_455 S
O432 C438 1.250 . S
C433 O439 1.248 . S
C433 O440 1.264 . S
C434 O420 1.254 . S
C434 O422 1.258 1_655 S
C435 O424 1.279 1_655 S
C435 O425 1.250 . S
C436 O426 1.264 . S
C436 O430 1.248 . S
C437 O427 1.260 . S
C437 O431 1.253 . S
C438 O429 1.279 . S
C438 O432 1.250 . S
O439 Mg421 2.030 . S
O439 C433 1.248 . S
O440 Mg423 2.079 1_565 S
O440 C433 1.264 . S
O441 Mg442 1.990 . S
O441 C455 1.253 . S
Mg442 O441 1.990 . S
Mg442 O445 2.180 . S
Mg442 O446 2.117 . S
Mg442 O460 2.030 . S
O443 Mg444 2.072 . S
O443 C455 1.260 . S
Mg444 O443 2.072 . S
Mg444 O445 2.099 . S
Mg444 O447 2.079 . S
Mg444 O448 2.072 . S
Mg444 O450 2.099 . S
Mg444 O461 2.079 . S
O445 Mg442 2.180 . S
O445 Mg444 2.099 . S
O445 C456 1.279 . S
O446 Mg442 2.117 . S
O446 C456 1.250 . S
O447 Mg444 2.079 . S
O447 C457 1.264 . S
O448 Mg444 2.072 . S
O448 C458 1.260 . S
Mg449 O450 2.180 . S
Mg449 O451 2.030 . S
Mg449 O452 1.990 . S
Mg449 O453 2.117 . S
O450 Mg444 2.099 . S
O450 Mg449 2.180 . S
O450 C459 1.279 . S
O451 Mg449 2.030 . S
O451 C457 1.248 . S
O452 Mg449 1.990 . S
O452 C458 1.253 . S
O453 Mg449 2.117 . S
O453 C459 1.250 . S
C454 O460 1.248 . S
C454 O461 1.264 . S
C455 O441 1.253 . S
C455 O443 1.260 . S
C456 O445 1.279 . S
C456 O446 1.250 . S
C457 O447 1.264 . S
C457 O451 1.248 . S
C458 O448 1.260 . S
C458 O452 1.253 . S
C459 O450 1.279 . S
C459 O453 1.250 . S
O460 Mg442 2.030 . S
O460 C454 1.248 . S
O461 Mg444 2.079 . S
O461 C454 1.264 . S
O462 Mg463 1.990 . S
O462 C476 1.253 . S
Mg463 O462 1.990 . S
Mg463 O466 2.180 1_565 S
Mg463 O467 2.117 1_565 S
Mg463 O481 2.030 . S
O464 Mg465 2.072 1_565 S
O464 C476 1.260 . S
Mg465 O464 2.072 1_545 S
Mg465 O466 2.099 . S
Mg465 O468 2.079 1_554 S
Mg465 O469 2.071 1_554 S
Mg465 O471 2.092 1_544 S
Mg465 O482 2.079 . S
O466 Mg463 2.180 1_545 S
O466 Mg465 2.099 . S
O466 C477 1.279 . S
O467 Mg463 2.117 1_545 S
O467 C477 1.250 . S
O468 Mg465 2.079 1_556 S
O468 C478 1.264 . S
O469 Mg465 2.071 1_556 S
O469 C479 1.261 1_545 S
Mg470 O471 2.169 1_545 S
Mg470 O472 2.030 . S
Mg470 O473 1.990 1_545 S
Mg470 O474 2.117 1_545 S
O471 Mg465 2.092 1_566 S
O471 Mg470 2.169 1_565 S
O471 C480 1.306 . S
O472 Mg470 2.030 . S
O472 C478 1.248 . S
O473 Mg470 1.990 1_565 S
O473 C479 1.253 . S
O474 Mg470 2.117 1_565 S
O474 C480 1.250 . S
C475 O481 1.246 1_545 S
C475 O482 1.264 . S
C476 O462 1.253 . S
C476 O464 1.260 . S
C477 O466 1.279 . S
C477 O467 1.250 . S
C478 O468 1.264 . S
C478 O472 1.248 . S
C479 O469 1.261 1_565 S
C479 O473 1.253 . S
C480 O471 1.306 . S
C480 O474 1.250 . S
O481 Mg463 2.030 . S
O481 C475 1.246 1_565 S
O482 Mg465 2.079 . S
O482 C475 1.264 . S
O483 Mg484 1.990 . S
O483 C497 1.253 . S
Mg484 O483 1.990 . S
Mg484 O487 2.180 . S
Mg484 O488 2.117 . S
Mg484 O502 2.030 . S
O485 Mg486 2.072 . S
O485 C497 1.260 . S
Mg486 O485 2.072 . S
Mg486 O487 2.099 . S
Mg486 O489 2.079 . S
Mg486 O490 2.072 . S
Mg486 O492 2.099 . S
Mg486 O503 2.079 . S
O487 Mg484 2.180 . S
O487 Mg486 2.099 . S
O487 C498 1.279 . S
O488 Mg484 2.117 . S
O488 C498 1.250 . S
O489 Mg486 2.079 . S
O489 C499 1.264 . S
O490 Mg486 2.072 . S
O490 C500 1.260 . S
Mg491 O492 2.180 . S
Mg491 O493 2.030 . S
Mg491 O494 1.990 . S
Mg491 O495 2.117 . S
O492 Mg486 2.099 . S
O492 Mg491 2.180 . S
O492 C501 1.279 . S
O493 Mg491 2.030 . S
O493 C499 1.248 . S
O494 Mg491 1.990 . S
O494 C500 1.253 . S
O495 Mg491 2.117 . S
O495 C501 1.250 . S
C496 O502 1.248 . S
C496 O503 1.264 . S
C497 O483 1.253 . S
C497 O485 1.260 . S
C498 O487 1.279 . S
C498 O488 1.250 . S
C499 O489 1.264 . S
C499 O493 1.248 . S
C500 O490 1.260 . S
C500 O494 1.253 . S
C501 O492 1.279 . S
C501 O495 1.250 . S
O502 Mg484 2.030 . S
O502 C496 1.248 . S
O503 Mg486 2.079 . S
O503 C496 1.264 . S
O504 Mg505 1.990 . S
O504 C518 1.253 . S
Mg505 O504 1.990 . S
Mg505 O508 2.180 . S
Mg505 O509 2.117 . S
Mg505 O523 2.030 1_556 S
O506 Mg507 2.072 . S
O506 C518 1.260 1_554 S
Mg507 O506 2.072 . S
Mg507 O508 2.099 1_554 S
Mg507 O510 2.079 . S
Mg507 O511 2.072 1_554 S
Mg507 O513 2.099 . S
Mg507 O524 2.079 . S
O508 Mg505 2.180 . S
O508 Mg507 2.099 1_556 S
O508 C519 1.279 . S
O509 Mg505 2.117 . S
O509 C519 1.250 . S
O510 Mg507 2.079 . S
O510 C520 1.264 . S
O511 Mg507 2.072 1_556 S
O511 C521 1.260 . S
Mg512 O513 2.180 . S
Mg512 O514 2.030 . S
Mg512 O515 1.990 . S
Mg512 O516 2.117 . S
O513 Mg507 2.099 . S
O513 Mg512 2.180 . S
O513 C522 1.279 . S
O514 Mg512 2.030 . S
O514 C520 1.248 . S
O515 Mg512 1.990 . S
O515 C521 1.253 1_554 S
O516 Mg512 2.117 . S
O516 C522 1.250 . S
C517 O523 1.248 . S
C517 O524 1.264 . S
C518 O504 1.253 . S
C518 O506 1.260 1_556 S
C519 O508 1.279 . S
C519 O509 1.250 . S
C520 O510 1.264 . S
C520 O514 1.248 . S
C521 O511 1.260 . S
C521 O515 1.253 1_556 S
C522 O513 1.279 . S
C522 O516 1.250 . S
O523 Mg505 2.030 1_554 S
O523 C517 1.248 . S
O524 Mg507 2.079 . S
O524 C517 1.264 . S
O525 Mg526 1.990 . S
O525 C539 1.253 . S
Mg526 O525 1.990 . S
Mg526 O529 2.180 . S
Mg526 O530 2.117 . S
Mg526 O544 2.030 . S
O527 Mg528 2.072 . S
O527 C539 1.260 . S
Mg528 O527 2.072 . S
Mg528 O529 2.099 . S
Mg528 O531 2.079 . S
Mg528 O532 2.072 . S
Mg528 O534 2.099 . S
Mg528 O545 2.079 . S
O529 Mg526 2.180 . S
O529 Mg528 2.099 . S
O529 C540 1.279 . S
O530 Mg526 2.117 . S
O530 C540 1.250 . S
O531 Mg528 2.079 . S
O531 C541 1.264 . S
O532 Mg528 2.072 . S
O532 C542 1.260 . S
Mg533 O534 2.180 . S
Mg533 O535 2.030 . S
Mg533 O536 1.990 . S
Mg533 O537 2.117 . S
O534 Mg528 2.099 . S
O534 Mg533 2.180 . S
O534 C543 1.279 . S
O535 Mg533 2.030 . S
O535 C541 1.248 . S
O536 Mg533 1.990 . S
O536 C542 1.253 . S
O537 Mg533 2.117 . S
O537 C543 1.250 . S
C538 O544 1.248 . S
C538 O545 1.264 . S
C539 O525 1.253 . S
C539 O527 1.260 . S
C540 O529 1.279 . S
C540 O530 1.250 . S
C541 O531 1.264 . S
C541 O535 1.248 . S
C542 O532 1.260 . S
C542 O536 1.253 . S
C543 O534 1.279 . S
C543 O537 1.250 . S
O544 Mg526 2.030 . S
O544 C538 1.248 . S
O545 Mg528 2.079 . S
O545 C538 1.264 . S
O546 Mg547 1.990 . S
O546 C560 1.253 . S
Mg547 O546 1.990 . S
Mg547 O550 2.180 . S
Mg547 O551 2.117 . S
Mg547 O565 2.030 1_655 S
O548 Mg549 2.072 . S
O548 C560 1.260 1_455 S
Mg549 O548 2.072 . S
Mg549 O550 2.099 1_455 S
Mg549 O552 2.079 . S
Mg549 O553 2.072 1_455 S
Mg549 O555 2.099 . S
Mg549 O566 2.079 . S
O550 Mg547 2.180 . S
O550 Mg549 2.099 1_655 S
O550 C561 1.279 . S
O551 Mg547 2.117 . S
O551 C561 1.250 . S
O552 Mg549 2.079 . S
O552 C562 1.264 . S
O553 Mg549 2.072 1_655 S
O553 C563 1.260 . S
Mg554 O555 2.180 . S
Mg554 O556 2.030 . S
Mg554 O557 1.990 . S
Mg554 O558 2.117 . S
O555 Mg549 2.099 . S
O555 Mg554 2.180 . S
O555 C564 1.279 . S
O556 Mg554 2.030 . S
O556 C562 1.248 . S
O557 Mg554 1.990 . S
O557 C563 1.253 1_455 S
O558 Mg554 2.117 . S
O558 C564 1.250 . S
C559 O565 1.248 . S
C559 O566 1.264 . S
C560 O546 1.253 . S
C560 O548 1.260 1_655 S
C561 O550 1.279 . S
C561 O551 1.250 . S
C562 O552 1.264 . S
C562 O556 1.248 . S
C563 O553 1.260 . S
C563 O557 1.253 1_655 S
C564 O555 1.279 . S
C564 O558 1.250 . S
O565 Mg547 2.030 1_455 S
O565 C559 1.248 . S
O566 Mg549 2.079 . S
O566 C559 1.264 . S
O567 Mg568 1.990 . S
O567 C581 1.253 . S
Mg568 O567 1.990 . S
Mg568 O571 2.180 . S
Mg568 O572 2.117 . S
Mg568 O586 2.030 . S
O569 Mg570 2.072 . S
O569 C581 1.260 . S
Mg570 O569 2.072 . S
Mg570 O571 2.099 . S
Mg570 O573 2.079 . S
Mg570 O574 2.072 . S
Mg570 O576 2.099 . S
Mg570 O587 2.079 . S
O571 Mg568 2.180 . S
O571 Mg570 2.099 . S
O571 C582 1.279 . S
O572 Mg568 2.117 . S
O572 C582 1.250 . S
O573 Mg570 2.079 . S
O573 C583 1.264 . S
O574 Mg570 2.072 . S
O574 C584 1.260 . S
Mg575 O576 2.180 . S
Mg575 O577 2.030 . S
Mg575 O578 1.990 . S
Mg575 O579 2.117 . S
O576 Mg570 2.099 . S
O576 Mg575 2.180 . S
O576 C585 1.279 . S
O577 Mg575 2.030 . S
O577 C583 1.248 . S
O578 Mg575 1.990 . S
O578 C584 1.253 . S
O579 Mg575 2.117 . S
O579 C585 1.250 . S
C580 O586 1.248 . S
C580 O587 1.264 . S
C581 O567 1.253 . S
C581 O569 1.260 . S
C582 O571 1.279 . S
C582 O572 1.250 . S
C583 O573 1.264 . S
C583 O577 1.248 . S
C584 O574 1.260 . S
C584 O578 1.253 . S
C585 O576 1.279 . S
C585 O579 1.250 . S
O586 Mg568 2.030 . S
O586 C580 1.248 . S
O587 Mg570 2.079 . S
O587 C580 1.264 . S
O588 Mg589 1.990 . S
O588 C602 1.253 . S
Mg589 O588 1.990 . S
Mg589 O592 2.180 . S
Mg589 O593 2.117 . S
Mg589 O607 2.030 . S
O590 Mg591 2.072 . S
O590 C602 1.260 . S
Mg591 O590 2.072 . S
Mg591 O592 2.099 . S
Mg591 O594 2.079 . S
Mg591 O595 2.072 . S
Mg591 O597 2.099 . S
Mg591 O608 2.079 . S
O592 Mg589 2.180 . S
O592 Mg591 2.099 . S
O592 C603 1.279 . S
O593 Mg589 2.117 . S
O593 C603 1.250 . S
O594 Mg591 2.079 . S
O594 C604 1.264 . S
O595 Mg591 2.072 . S
O595 C605 1.260 . S
Mg596 O597 2.180 . S
Mg596 O598 2.030 . S
Mg596 O599 1.990 . S
Mg596 O600 2.117 . S
O597 Mg591 2.099 . S
O597 Mg596 2.180 . S
O597 C606 1.279 . S
O598 Mg596 2.030 . S
O598 C604 1.248 . S
O599 Mg596 1.990 . S
O599 C605 1.253 . S
O600 Mg596 2.117 . S
O600 C606 1.250 . S
C601 O607 1.248 . S
C601 O608 1.264 . S
C602 O588 1.253 . S
C602 O590 1.260 . S
C603 O592 1.279 . S
C603 O593 1.250 . S
C604 O594 1.264 . S
C604 O598 1.248 . S
C605 O595 1.260 . S
C605 O599 1.253 . S
C606 O597 1.279 . S
C606 O600 1.250 . S
O607 Mg589 2.030 . S
O607 C601 1.248 . S
O608 Mg591 2.079 . S
O608 C601 1.264 . S
O609 Mg610 1.990 . S
O609 C623 1.253 . S
Mg610 O609 1.990 . S
Mg610 O613 2.180 . S
Mg610 O614 2.117 . S
Mg610 O628 2.030 . S
O611 Mg612 2.072 . S
O611 C623 1.260 . S
Mg612 O611 2.072 . S
Mg612 O613 2.099 . S
Mg612 O615 2.079 . S
Mg612 O616 2.072 . S
Mg612 O618 2.099 . S
Mg612 O629 2.079 . S
O613 Mg610 2.180 . S
O613 Mg612 2.099 . S
O613 C624 1.279 . S
O614 Mg610 2.117 . S
O614 C624 1.250 . S
O615 Mg612 2.079 . S
O615 C625 1.264 . S
O616 Mg612 2.072 . S
O616 C626 1.260 . S
Mg617 O618 2.180 . S
Mg617 O619 2.030 . S
Mg617 O620 1.990 . S
Mg617 O621 2.117 . S
O618 Mg612 2.099 . S
O618 Mg617 2.180 . S
O618 C627 1.279 . S
O619 Mg617 2.030 . S
O619 C625 1.248 . S
O620 Mg617 1.990 . S
O620 C626 1.253 . S
O621 Mg617 2.117 . S
O621 C627 1.250 . S
C622 O628 1.248 . S
C622 O629 1.264 . S
C623 O609 1.253 . S
C623 O611 1.260 . S
C624 O613 1.279 . S
C624 O614 1.250 . S
C625 O615 1.264 . S
C625 O619 1.248 . S
C626 O616 1.260 . S
C626 O620 1.253 . S
C627 O618 1.279 . S
C627 O621 1.250 . S
O628 Mg610 2.030 . S
O628 C622 1.248 . S
O629 Mg612 2.079 . S
O629 C622 1.264 . S
O630 Mg631 1.990 . S
O630 C644 1.253 . S
Mg631 O630 1.990 . S
Mg631 O634 2.180 . S
Mg631 O635 2.117 . S
Mg631 O649 2.030 . S
O632 Mg633 2.072 . S
O632 C644 1.260 . S
Mg633 O632 2.072 . S
Mg633 O634 2.099 . S
Mg633 O636 2.079 . S
Mg633 O637 2.072 . S
Mg633 O639 2.099 . S
Mg633 O650 2.079 . S
O634 Mg631 2.180 . S
O634 Mg633 2.099 . S
O634 C645 1.279 . S
O635 Mg631 2.117 . S
O635 C645 1.250 . S
O636 Mg633 2.079 . S
O636 C646 1.264 . S
O637 Mg633 2.072 . S
O637 C647 1.260 . S
Mg638 O639 2.180 . S
Mg638 O640 2.030 . S
Mg638 O641 1.990 . S
Mg638 O642 2.117 . S
O639 Mg633 2.099 . S
O639 Mg638 2.180 . S
O639 C648 1.279 . S
O640 Mg638 2.030 . S
O640 C646 1.248 . S
O641 Mg638 1.990 . S
O641 C647 1.253 . S
O642 Mg638 2.117 . S
O642 C648 1.250 . S
C643 O649 1.248 . S
C643 O650 1.264 . S
C644 O630 1.253 . S
C644 O632 1.260 . S
C645 O634 1.279 . S
C645 O635 1.250 . S
C646 O636 1.264 . S
C646 O640 1.248 . S
C647 O637 1.260 . S
C647 O641 1.253 . S
C648 O639 1.279 . S
C648 O642 1.250 . S
O649 Mg631 2.030 . S
O649 C643 1.248 . S
O650 Mg633 2.079 . S
O650 C643 1.264 . S
O651 Mg652 1.990 . S
O651 C665 1.253 . S
Mg652 O651 1.990 . S
Mg652 O655 2.180 1_556 S
Mg652 O656 2.117 1_556 S
Mg652 O670 2.030 . S
O653 Mg654 2.072 1_556 S
O653 C665 1.260 . S
Mg654 O653 2.072 1_554 S
Mg654 O655 2.099 . S
Mg654 O657 2.079 1_455 S
Mg654 O658 2.071 1_454 S
Mg654 O660 2.096 1_454 S
Mg654 O671 2.079 . S
O655 Mg652 2.180 1_554 S
O655 Mg654 2.099 . S
O655 C666 1.279 . S
O656 Mg652 2.117 1_554 S
O656 C666 1.250 . S
O657 Mg654 2.079 1_655 S
O657 C667 1.264 . S
O658 Mg654 2.071 1_656 S
O658 C668 1.261 . S
Mg659 O660 2.176 1_554 S
Mg659 O661 2.030 . S
Mg659 O662 1.990 1_554 S
Mg659 O663 2.117 1_554 S
O660 Mg654 2.096 1_656 S
O660 Mg659 2.176 1_556 S
O660 C669 1.288 . S
O661 Mg659 2.030 . S
O661 C667 1.248 . S
O662 Mg659 1.990 1_556 S
O662 C668 1.253 . S
O663 Mg659 2.117 1_556 S
O663 C669 1.250 . S
C664 O670 1.248 1_554 S
C664 O671 1.264 . S
C665 O651 1.253 . S
C665 O653 1.260 . S
C666 O655 1.279 . S
C666 O656 1.250 . S
C667 O657 1.264 . S
C667 O661 1.248 . S
C668 O658 1.261 . S
C668 O662 1.253 . S
C669 O660 1.288 . S
C669 O663 1.250 . S
O670 Mg652 2.030 . S
O670 C664 1.248 1_556 S
O671 Mg654 2.079 . S
O671 C664 1.264 . S
H672 C680 0.950 . S
H673 C685 0.950 . S
H674 C682 0.950 . S
H675 C684 0.950 . S
H676 C686 0.950 . S
H677 C688 0.950 . S
H678 C690 0.950 . S
H679 C691 0.950 . S
C680 H672 0.950 . S
C680 C681 1.386 1_655 S
C680 C682 1.391 . S
C681 C680 1.386 1_455 S
C681 C685 1.393 . S
C682 H674 0.950 . S
C682 C680 1.391 . S
C682 C683 1.373 1_655 S
C683 C682 1.373 1_455 S
C683 C684 1.427 . S
C683 C689 1.490 1_455 S
C684 H675 0.950 . S
C684 C683 1.427 . S
C684 C685 1.391 . S
C685 H673 0.950 . S
C685 C681 1.393 . S
C685 C684 1.391 . S
C686 H676 0.950 . S
C686 C687 1.386 1_455 S
C686 C688 1.391 . S
C687 C686 1.386 1_655 S
C687 C691 1.393 . S
C688 H677 0.950 . S
C688 C686 1.391 . S
C688 C689 1.396 1_455 S
C689 C683 1.490 1_655 S
C689 C688 1.396 1_655 S
C689 C690 1.402 . S
C690 H678 0.950 . S
C690 C689 1.402 . S
C690 C691 1.391 . S
C691 H679 0.950 . S
C691 C687 1.393 . S
C691 C690 1.391 . S
H692 C700 0.950 . S
H693 C705 0.950 . S
H694 C702 0.950 . S
H695 C704 0.950 . S
H696 C706 0.950 . S
H697 C708 0.950 . S
H698 C710 0.950 . S
H699 C711 0.950 . S
C700 H692 0.950 . S
C700 C701 1.386 . S
C700 C702 1.391 . S
C701 C700 1.386 . S
C701 C705 1.393 . S
C702 H694 0.950 . S
C702 C700 1.391 . S
C702 C703 1.400 . S
C703 C702 1.400 . S
C703 C704 1.398 . S
C703 C709 1.491 . S
C704 H695 0.950 . S
C704 C703 1.398 . S
C704 C705 1.391 . S
C705 H693 0.950 . S
C705 C701 1.393 . S
C705 C704 1.391 . S
C706 H696 0.950 . S
C706 C707 1.386 . S
C706 C708 1.391 . S
C707 C706 1.386 . S
C707 C711 1.393 . S
C708 H697 0.950 . S
C708 C706 1.391 . S
C708 C709 1.400 . S
C709 C703 1.491 . S
C709 C708 1.400 . S
C709 C710 1.398 . S
C710 H698 0.950 . S
C710 C709 1.398 . S
C710 C711 1.391 . S
C711 H699 0.950 . S
C711 C707 1.393 . S
C711 C710 1.391 . S
H712 C720 0.950 . S
H713 C725 0.950 . S
H714 C722 0.950 . S
H715 C724 0.950 . S
H716 C726 0.950 . S
H717 C728 0.950 . S
H718 C730 0.950 . S
H719 C731 0.950 . S
C720 H712 0.950 . S
C720 C721 1.386 . S
C720 C722 1.391 . S
C721 C720 1.386 . S
C721 C725 1.393 . S
C722 H714 0.950 . S
C722 C720 1.391 . S
C722 C723 1.400 . S
C723 C722 1.400 . S
C723 C724 1.398 . S
C723 C729 1.491 . S
C724 H715 0.950 . S
C724 C723 1.398 . S
C724 C725 1.391 . S
C725 H713 0.950 . S
C725 C721 1.393 . S
C725 C724 1.391 . S
C726 H716 0.950 . S
C726 C727 1.386 . S
C726 C728 1.391 . S
C727 C726 1.386 . S
C727 C731 1.393 . S
C728 H717 0.950 . S
C728 C726 1.391 . S
C728 C729 1.400 . S
C729 C723 1.491 . S
C729 C728 1.400 . S
C729 C730 1.398 . S
C730 H718 0.950 . S
C730 C729 1.398 . S
C730 C731 1.391 . S
C731 H719 0.950 . S
C731 C727 1.393 . S
C731 C730 1.391 . S
H732 C740 0.950 . S
H733 C745 0.950 . S
H734 C742 0.950 . S
H735 C744 0.950 . S
H736 C746 0.950 . S
H737 C748 0.950 . S
H738 C750 0.950 . S
H739 C751 0.950 . S
C740 H732 0.950 . S
C740 C741 1.386 . S
C740 C742 1.391 . S
C741 C740 1.386 . S
C741 C745 1.393 . S
C742 H734 0.950 . S
C742 C740 1.391 . S
C742 C743 1.400 . S
C743 C742 1.400 . S
C743 C744 1.398 . S
C743 C749 1.491 . S
C744 H735 0.950 . S
C744 C743 1.398 . S
C744 C745 1.391 . S
C745 H733 0.950 . S
C745 C741 1.393 . S
C745 C744 1.391 . S
C746 H736 0.950 . S
C746 C747 1.386 . S
C746 C748 1.391 . S
C747 C746 1.386 . S
C747 C751 1.393 . S
C748 H737 0.950 . S
C748 C746 1.391 . S
C748 C749 1.400 . S
C749 C743 1.491 . S
C749 C748 1.400 . S
C749 C750 1.398 . S
C750 H738 0.950 . S
C750 C749 1.398 . S
C750 C751 1.391 . S
C751 H739 0.950 . S
C751 C747 1.393 . S
C751 C750 1.391 . S
H752 C760 0.950 . S
H753 C765 0.959 . S
H754 C762 0.950 . S
H755 C764 0.950 . S
H756 C766 0.950 . S
H757 C768 0.950 . S
H758 C770 0.950 . S
H759 C771 0.950 . S
C760 H752 0.950 . S
C760 C761 1.386 . S
C760 C762 1.391 . S
C761 C760 1.386 . S
C761 C765 1.382 1_455 S
C762 H754 0.950 . S
C762 C760 1.391 . S
C762 C763 1.400 . S
C763 C762 1.400 . S
C763 C764 1.398 1_455 S
C763 C769 1.491 . S
C764 H755 0.950 . S
C764 C763 1.398 1_655 S
C764 C765 1.395 . S
C765 H753 0.959 . S
C765 C761 1.382 1_655 S
C765 C764 1.395 . S
C766 H756 0.950 . S
C766 C767 1.384 1_655 S
C766 C768 1.391 . S
C767 C766 1.384 1_455 S
C767 C771 1.396 . S
C768 H757 0.950 . S
C768 C766 1.391 . S
C768 C769 1.400 1_655 S
C769 C763 1.491 . S
C769 C768 1.400 1_455 S
C769 C770 1.398 . S
C770 H758 0.950 . S
C770 C769 1.398 . S
C770 C771 1.391 . S
C771 H759 0.950 . S
C771 C767 1.396 . S
C771 C770 1.391 . S
H772 C780 0.950 . S
H773 C785 0.950 . S
H774 C782 0.950 . S
H775 C784 0.950 . S
H776 C786 0.950 . S
H777 C788 0.950 . S
H778 C790 0.950 . S
H779 C791 0.950 . S
C780 H772 0.950 . S
C780 C781 1.386 . S
C780 C782 1.391 . S
C781 C780 1.386 . S
C781 C785 1.393 . S
C782 H774 0.950 . S
C782 C780 1.391 . S
C782 C783 1.400 . S
C783 C782 1.400 . S
C783 C784 1.398 . S
C783 C789 1.491 . S
C784 H775 0.950 . S
C784 C783 1.398 . S
C784 C785 1.391 . S
C785 H773 0.950 . S
C785 C781 1.393 . S
C785 C784 1.391 . S
C786 H776 0.950 . S
C786 C787 1.386 . S
C786 C788 1.391 . S
C787 C786 1.386 . S
C787 C791 1.393 . S
C788 H777 0.950 . S
C788 C786 1.391 . S
C788 C789 1.400 . S
C789 C783 1.491 . S
C789 C788 1.400 . S
C789 C790 1.398 . S
C790 H778 0.950 . S
C790 C789 1.398 . S
C790 C791 1.391 . S
C791 H779 0.950 . S
C791 C787 1.393 . S
C791 C790 1.391 . S
H792 C800 0.950 . S
H793 C805 0.950 . S
H794 C802 0.950 . S
H795 C804 0.950 . S
H796 C806 0.950 . S
H797 C808 0.950 . S
H798 C810 0.950 . S
H799 C811 0.950 . S
C800 H792 0.950 . S
C800 C801 1.386 . S
C800 C802 1.391 . S
C801 C800 1.386 . S
C801 C805 1.393 . S
C802 H794 0.950 . S
C802 C800 1.391 . S
C802 C803 1.400 . S
C803 C802 1.400 . S
C803 C804 1.398 . S
C803 C809 1.491 . S
C804 H795 0.950 . S
C804 C803 1.398 . S
C804 C805 1.391 . S
C805 H793 0.950 . S
C805 C801 1.393 . S
C805 C804 1.391 . S
C806 H796 0.950 . S
C806 C807 1.386 . S
C806 C808 1.391 . S
C807 C806 1.386 . S
C807 C811 1.393 . S
C808 H797 0.950 . S
C808 C806 1.391 . S
C808 C809 1.400 . S
C809 C803 1.491 . S
C809 C808 1.400 . S
C809 C810 1.398 . S
C810 H798 0.950 . S
C810 C809 1.398 . S
C810 C811 1.391 . S
C811 H799 0.950 . S
C811 C807 1.393 . S
C811 C810 1.391 . S
H812 C820 0.950 . S
H813 C825 0.950 . S
H814 C822 0.950 . S
H815 C824 0.950 . S
H816 C826 0.950 . S
H817 C828 0.950 . S
H818 C830 0.950 . S
H819 C831 0.950 . S
C820 H812 0.950 . S
C820 C821 1.386 . S
C820 C822 1.391 . S
C821 C820 1.386 . S
C821 C825 1.393 . S
C822 H814 0.950 . S
C822 C820 1.391 . S
C822 C823 1.400 . S
C823 C822 1.400 . S
C823 C824 1.398 . S
C823 C829 1.491 . S
C824 H815 0.950 . S
C824 C823 1.398 . S
C824 C825 1.391 . S
C825 H813 0.950 . S
C825 C821 1.393 . S
C825 C824 1.391 . S
C826 H816 0.950 . S
C826 C827 1.386 . S
C826 C828 1.391 . S
C827 C826 1.386 . S
C827 C831 1.393 . S
C828 H817 0.950 . S
C828 C826 1.391 . S
C828 C829 1.400 . S
C829 C823 1.491 . S
C829 C828 1.400 . S
C829 C830 1.398 . S
C830 H818 0.950 . S
C830 C829 1.398 . S
C830 C831 1.391 . S
C831 H819 0.950 . S
C831 C827 1.393 . S
C831 C830 1.391 . S
H832 C840 0.950 . S
H833 C845 0.952 . S
H834 C842 0.951 . S
H835 C844 0.952 . S
H836 C846 0.950 . S
H837 C848 0.950 . S
H838 C850 0.952 . S
H839 C851 0.950 . S
C840 H832 0.950 . S
C840 C841 1.386 . S
C840 C842 1.391 1_545 S
C841 C840 1.386 . S
C841 C845 1.394 . S
C842 H834 0.951 . S
C842 C840 1.391 1_565 S
C842 C843 1.400 . S
C843 C842 1.400 . S
C843 C844 1.398 . S
C843 C849 1.491 . S
C844 H835 0.952 . S
C844 C843 1.398 . S
C844 C845 1.390 1_565 S
C845 H833 0.952 . S
C845 C841 1.394 . S
C845 C844 1.390 1_545 S
C846 H836 0.950 . S
C846 C847 1.386 . S
C846 C848 1.391 . S
C847 C846 1.386 . S
C847 C851 1.393 . S
C848 H837 0.950 . S
C848 C846 1.391 . S
C848 C849 1.400 . S
C849 C843 1.491 . S
C849 C848 1.400 . S
C849 C850 1.398 . S
C850 H838 0.952 . S
C850 C849 1.398 . S
C850 C851 1.391 . S
C851 H839 0.950 . S
C851 C847 1.393 . S
C851 C850 1.391 . S
H852 C860 0.950 . S
H853 C865 0.950 . S
H854 C862 0.950 . S
H855 C864 0.950 . S
H856 C866 0.950 . S
H857 C868 0.950 . S
H858 C870 0.950 . S
H859 C871 0.950 . S
C860 H852 0.950 . S
C860 C861 1.386 . S
C860 C862 1.391 . S
C861 C860 1.386 . S
C861 C865 1.393 . S
C862 H854 0.950 . S
C862 C860 1.391 . S
C862 C863 1.400 . S
C863 C862 1.400 . S
C863 C864 1.398 . S
C863 C869 1.491 . S
C864 H855 0.950 . S
C864 C863 1.398 . S
C864 C865 1.391 . S
C865 H853 0.950 . S
C865 C861 1.393 . S
C865 C864 1.391 . S
C866 H856 0.950 . S
C866 C867 1.386 . S
C866 C868 1.391 . S
C867 C866 1.386 . S
C867 C871 1.393 . S
C868 H857 0.950 . S
C868 C866 1.391 . S
C868 C869 1.400 . S
C869 C863 1.491 . S
C869 C868 1.400 . S
C869 C870 1.398 . S
C870 H858 0.950 . S
C870 C869 1.398 . S
C870 C871 1.391 . S
C871 H859 0.950 . S
C871 C867 1.393 . S
C871 C870 1.391 . S
H872 C880 0.950 . S
H873 C885 0.950 . S
H874 C882 0.950 . S
H875 C884 0.950 . S
H876 C886 0.950 . S
H877 C888 0.950 . S
H878 C890 0.950 . S
H879 C891 0.950 . S
C880 H872 0.950 . S
C880 C881 1.386 1_565 S
C880 C882 1.391 . S
C881 C880 1.386 1_545 S
C881 C885 1.393 . S
C882 H874 0.950 . S
C882 C880 1.391 . S
C882 C883 1.400 1_565 S
C883 C882 1.400 1_545 S
C883 C884 1.398 . S
C883 C889 1.491 . S
C884 H875 0.950 . S
C884 C883 1.398 . S
C884 C885 1.391 . S
C885 H873 0.950 . S
C885 C881 1.393 . S
C885 C884 1.391 . S
C886 H876 0.950 . S
C886 C887 1.386 . S
C886 C888 1.391 . S
C887 C886 1.386 . S
C887 C891 1.393 1_545 S
C888 H877 0.950 . S
C888 C886 1.391 . S
C888 C889 1.400 . S
C889 C883 1.491 . S
C889 C888 1.400 . S
C889 C890 1.398 1_545 S
C890 H878 0.950 . S
C890 C889 1.398 1_565 S
C890 C891 1.391 . S
C891 H879 0.950 . S
C891 C887 1.393 1_565 S
C891 C890 1.391 . S
H892 C900 0.950 . S
H893 C905 0.950 . S
H894 C902 0.950 . S
H895 C904 0.950 . S
H896 C906 0.950 . S
H897 C908 0.950 . S
H898 C910 0.950 . S
H899 C911 0.950 . S
C900 H892 0.950 . S
C900 C901 1.386 . S
C900 C902 1.391 . S
C901 C900 1.386 . S
C901 C905 1.393 . S
C902 H894 0.950 . S
C902 C900 1.391 . S
C902 C903 1.400 . S
C903 C902 1.400 . S
C903 C904 1.398 . S
C903 C909 1.491 . S
C904 H895 0.950 . S
C904 C903 1.398 . S
C904 C905 1.391 . S
C905 H893 0.950 . S
C905 C901 1.393 . S
C905 C904 1.391 . S
C906 H896 0.950 . S
C906 C907 1.386 . S
C906 C908 1.391 . S
C907 C906 1.386 . S
C907 C911 1.393 . S
C908 H897 0.950 . S
C908 C906 1.391 . S
C908 C909 1.400 . S
C909 C903 1.491 . S
C909 C908 1.400 . S
C909 C910 1.398 . S
C910 H898 0.950 . S
C910 C909 1.398 . S
C910 C911 1.391 . S
C911 H899 0.950 . S
C911 C907 1.393 . S
C911 C910 1.391 . S
H912 C920 0.950 . S
H913 C925 0.950 . S
H914 C922 0.950 . S
H915 C924 0.950 . S
H916 C926 0.950 . S
H917 C928 0.950 . S
H918 C930 0.950 . S
H919 C931 0.950 . S
C920 H912 0.950 . S
C920 C921 1.386 . S
C920 C922 1.391 . S
C921 C920 1.386 . S
C921 C925 1.393 1_545 S
C922 H914 0.950 . S
C922 C920 1.391 . S
C922 C923 1.400 . S
C923 C922 1.400 . S
C923 C924 1.398 1_545 S
C923 C929 1.491 . S
C924 H915 0.950 . S
C924 C923 1.398 1_565 S
C924 C925 1.391 . S
C925 H913 0.950 . S
C925 C921 1.393 1_565 S
C925 C924 1.391 . S
C926 H916 0.950 . S
C926 C927 1.386 1_565 S
C926 C928 1.391 . S
C927 C926 1.386 1_545 S
C927 C931 1.393 . S
C928 H917 0.950 . S
C928 C926 1.391 . S
C928 C929 1.400 1_565 S
C929 C923 1.491 . S
C929 C928 1.400 1_545 S
C929 C930 1.398 . S
C930 H918 0.950 . S
C930 C929 1.398 . S
C930 C931 1.391 . S
C931 H919 0.950 . S
C931 C927 1.393 . S
C931 C930 1.391 . S
H932 C940 0.950 . S
H933 C945 0.950 . S
H934 C942 0.950 . S
H935 C944 0.950 . S
H936 C946 0.950 . S
H937 C948 0.950 . S
H938 C950 0.950 . S
H939 C951 0.950 . S
C940 H932 0.950 . S
C940 C941 1.386 . S
C940 C942 1.391 . S
C941 C940 1.386 . S
C941 C945 1.393 . S
C942 H934 0.950 . S
C942 C940 1.391 . S
C942 C943 1.400 . S
C943 C942 1.400 . S
C943 C944 1.398 . S
C943 C949 1.491 . S
C944 H935 0.950 . S
C944 C943 1.398 . S
C944 C945 1.391 . S
C945 H933 0.950 . S
C945 C941 1.393 . S
C945 C944 1.391 . S
C946 H936 0.950 . S
C946 C947 1.386 . S
C946 C948 1.391 . S
C947 C946 1.386 . S
C947 C951 1.393 . S
C948 H937 0.950 . S
C948 C946 1.391 . S
C948 C949 1.400 . S
C949 C943 1.491 . S
C949 C948 1.400 . S
C949 C950 1.398 . S
C950 H938 0.950 . S
C950 C949 1.398 . S
C950 C951 1.391 . S
C951 H939 0.950 . S
C951 C947 1.393 . S
C951 C950 1.391 . S
H952 C960 0.950 . S
H953 C965 0.950 . S
H954 C962 0.950 . S
H955 C964 0.950 . S
H956 C966 0.950 . S
H957 C968 0.950 . S
H958 C970 0.950 . S
H959 C971 0.950 . S
C960 H952 0.950 . S
C960 C961 1.386 1_565 S
C960 C962 1.391 . S
C961 C960 1.386 1_545 S
C961 C965 1.393 . S
C962 H954 0.950 . S
C962 C960 1.391 . S
C962 C963 1.371 1_565 S
C963 C962 1.371 1_545 S
C963 C964 1.430 . S
C963 C969 1.487 1_545 S
C964 H955 0.950 . S
C964 C963 1.430 . S
C964 C965 1.391 . S
C965 H953 0.950 . S
C965 C961 1.393 . S
C965 C964 1.391 . S
C966 H956 0.950 . S
C966 C967 1.386 1_545 S
C966 C968 1.391 . S
C967 C966 1.386 1_565 S
C967 C971 1.393 . S
C968 H957 0.950 . S
C968 C966 1.391 . S
C968 C969 1.381 1_545 S
C969 C963 1.487 1_565 S
C969 C968 1.381 1_565 S
C969 C970 1.420 . S
C970 H958 0.950 . S
C970 C969 1.420 . S
C970 C971 1.391 . S
C971 H959 0.950 . S
C971 C967 1.393 . S
C971 C970 1.391 . S
H972 C980 0.950 . S
H973 C985 0.950 . S
H974 C982 0.950 . S
H975 C984 0.950 . S
H976 C986 0.950 . S
H977 C988 0.950 . S
H978 C990 0.950 . S
H979 C991 0.950 . S
C980 H972 0.950 . S
C980 C981 1.386 . S
C980 C982 1.391 . S
C981 C980 1.386 . S
C981 C985 1.393 . S
C982 H974 0.950 . S
C982 C980 1.391 . S
C982 C983 1.400 . S
C983 C982 1.400 . S
C983 C984 1.398 . S
C983 C989 1.491 . S
C984 H975 0.950 . S
C984 C983 1.398 . S
C984 C985 1.391 . S
C985 H973 0.950 . S
C985 C981 1.393 . S
C985 C984 1.391 . S
C986 H976 0.950 . S
C986 C987 1.386 . S
C986 C988 1.391 . S
C987 C986 1.386 . S
C987 C991 1.393 . S
C988 H977 0.950 . S
C988 C986 1.391 . S
C988 C989 1.400 . S
C989 C983 1.491 . S
C989 C988 1.400 . S
C989 C990 1.398 . S
C990 H978 0.950 . S
C990 C989 1.398 . S
C990 C991 1.391 . S
C991 H979 0.950 . S
C991 C987 1.393 . S
C991 C990 1.391 . S
H992 C1000 0.950 . S
H993 C1005 0.950 . S
H994 C1002 0.950 . S
H995 C1004 0.950 . S
H996 C1006 0.950 . S
H997 C1008 0.950 . S
H998 C1010 0.950 . S
H999 C1011 0.950 . S
C1000 H992 0.950 . S
C1000 C1001 1.386 1_556 S
C1000 C1002 1.391 . S
C1001 C1000 1.386 1_554 S
C1001 C1005 1.393 . S
C1002 H994 0.950 . S
C1002 C1000 1.391 . S
C1002 C1003 1.400 1_556 S
C1003 C1002 1.400 1_554 S
C1003 C1004 1.398 . S
C1003 C1009 1.491 1_554 S
C1004 H995 0.950 . S
C1004 C1003 1.398 . S
C1004 C1005 1.391 . S
C1005 H993 0.950 . S
C1005 C1001 1.393 . S
C1005 C1004 1.391 . S
C1006 H996 0.950 . S
C1006 C1007 1.386 1_554 S
C1006 C1008 1.391 . S
C1007 C1006 1.386 1_556 S
C1007 C1011 1.393 . S
C1008 H997 0.950 . S
C1008 C1006 1.391 . S
C1008 C1009 1.400 1_554 S
C1009 C1003 1.491 1_556 S
C1009 C1008 1.400 1_556 S
C1009 C1010 1.398 . S
C1010 H998 0.950 . S
C1010 C1009 1.398 . S
C1010 C1011 1.391 . S
C1011 H999 0.950 . S
C1011 C1007 1.393 . S
C1011 C1010 1.391 . S
H1012 C1020 0.950 . S
H1013 C1025 0.950 . S
H1014 C1022 0.950 . S
H1015 C1024 0.950 . S
H1016 C1026 0.950 . S
H1017 C1028 0.950 . S
H1018 C1030 0.950 . S
H1019 C1031 0.951 . S
C1020 H1012 0.950 . S
C1020 C1021 1.386 1_556 S
C1020 C1022 1.391 . S
C1021 C1020 1.386 1_554 S
C1021 C1025 1.393 . S
C1022 H1014 0.950 . S
C1022 C1020 1.391 . S
C1022 C1023 1.400 1_556 S
C1023 C1022 1.400 1_554 S
C1023 C1024 1.398 . S
C1023 C1029 1.491 . S
C1024 H1015 0.950 . S
C1024 C1023 1.398 . S
C1024 C1025 1.391 . S
C1025 H1013 0.950 . S
C1025 C1021 1.393 . S
C1025 C1024 1.391 . S
C1026 H1016 0.950 . S
C1026 C1027 1.386 . S
C1026 C1028 1.391 . S
C1027 C1026 1.386 . S
C1027 C1031 1.392 1_554 S
C1028 H1017 0.950 . S
C1028 C1026 1.391 . S
C1028 C1029 1.400 . S
C1029 C1023 1.491 . S
C1029 C1028 1.400 . S
C1029 C1030 1.398 1_554 S
C1030 H1018 0.950 . S
C1030 C1029 1.398 1_556 S
C1030 C1031 1.391 . S
C1031 H1019 0.951 . S
C1031 C1027 1.392 1_556 S
C1031 C1030 1.391 . S
H1032 C1040 0.950 . S
H1033 C1045 0.950 . S
H1034 C1042 0.950 . S
H1035 C1044 0.950 . S
H1036 C1046 0.950 . S
H1037 C1048 0.950 . S
H1038 C1050 0.950 . S
H1039 C1051 0.950 . S
C1040 H1032 0.950 . S
C1040 C1041 1.386 . S
C1040 C1042 1.391 . S
C1041 C1040 1.386 . S
C1041 C1045 1.393 . S
C1042 H1034 0.950 . S
C1042 C1040 1.391 . S
C1042 C1043 1.400 . S
C1043 C1042 1.400 . S
C1043 C1044 1.398 . S
C1043 C1049 1.491 . S
C1044 H1035 0.950 . S
C1044 C1043 1.398 . S
C1044 C1045 1.391 . S
C1045 H1033 0.950 . S
C1045 C1041 1.393 . S
C1045 C1044 1.391 . S
C1046 H1036 0.950 . S
C1046 C1047 1.386 . S
C1046 C1048 1.391 . S
C1047 C1046 1.386 . S
C1047 C1051 1.393 . S
C1048 H1037 0.950 . S
C1048 C1046 1.391 . S
C1048 C1049 1.400 . S
C1049 C1043 1.491 . S
C1049 C1048 1.400 . S
C1049 C1050 1.398 . S
C1050 H1038 0.950 . S
C1050 C1049 1.398 . S
C1050 C1051 1.391 . S
C1051 H1039 0.950 . S
C1051 C1047 1.393 . S
C1051 C1050 1.391 . S
H1052 C1060 0.950 . S
H1053 C1065 0.950 . S
H1054 C1062 0.950 . S
H1055 C1064 0.950 . S
H1056 C1066 0.950 . S
H1057 C1068 0.950 . S
H1058 C1070 0.950 . S
H1059 C1071 0.950 . S
C1060 H1052 0.950 . S
C1060 C1061 1.386 . S
C1060 C1062 1.391 . S
C1061 C1060 1.386 . S
C1061 C1065 1.393 . S
C1062 H1054 0.950 . S
C1062 C1060 1.391 . S
C1062 C1063 1.400 . S
C1063 C1062 1.400 . S
C1063 C1064 1.398 . S
C1063 C1069 1.491 . S
C1064 H1055 0.950 . S
C1064 C1063 1.398 . S
C1064 C1065 1.391 . S
C1065 H1053 0.950 . S
C1065 C1061 1.393 . S
C1065 C1064 1.391 . S
C1066 H1056 0.950 . S
C1066 C1067 1.386 . S
C1066 C1068 1.391 . S
C1067 C1066 1.386 . S
C1067 C1071 1.393 . S
C1068 H1057 0.950 . S
C1068 C1066 1.391 . S
C1068 C1069 1.400 . S
C1069 C1063 1.491 . S
C1069 C1068 1.400 . S
C1069 C1070 1.398 . S
C1070 H1058 0.950 . S
C1070 C1069 1.398 . S
C1070 C1071 1.391 . S
C1071 H1059 0.950 . S
C1071 C1067 1.393 . S
C1071 C1070 1.391 . S
H1072 C1080 0.950 . S
H1073 C1085 0.950 . S
H1074 C1082 0.950 . S
H1075 C1084 0.950 . S
H1076 C1086 0.950 . S
H1077 C1088 0.950 . S
H1078 C1090 0.950 . S
H1079 C1091 0.950 . S
C1080 H1072 0.950 . S
C1080 C1081 1.386 . S
C1080 C1082 1.391 . S
C1081 C1080 1.386 . S
C1081 C1085 1.393 . S
C1082 H1074 0.950 . S
C1082 C1080 1.391 . S
C1082 C1083 1.400 . S
C1083 C1082 1.400 . S
C1083 C1084 1.398 . S
C1083 C1089 1.491 . S
C1084 H1075 0.950 . S
C1084 C1083 1.398 . S
C1084 C1085 1.391 . S
C1085 H1073 0.950 . S
C1085 C1081 1.393 . S
C1085 C1084 1.391 . S
C1086 H1076 0.950 . S
C1086 C1087 1.386 . S
C1086 C1088 1.391 . S
C1087 C1086 1.386 . S
C1087 C1091 1.393 . S
C1088 H1077 0.950 . S
C1088 C1086 1.391 . S
C1088 C1089 1.400 . S
C1089 C1083 1.491 . S
C1089 C1088 1.400 . S
C1089 C1090 1.398 . S
C1090 H1078 0.950 . S
C1090 C1089 1.398 . S
C1090 C1091 1.391 . S
C1091 H1079 0.950 . S
C1091 C1087 1.393 . S
C1091 C1090 1.391 . S
H1092 C1100 0.950 . S
H1093 C1105 0.950 . S
H1094 C1102 0.950 . S
H1095 C1104 0.950 . S
H1096 C1106 0.950 . S
H1097 C1108 0.950 . S
H1098 C1110 0.950 . S
H1099 C1111 0.950 . S
C1100 H1092 0.950 . S
C1100 C1101 1.386 . S
C1100 C1102 1.391 . S
C1101 C1100 1.386 . S
C1101 C1105 1.393 . S
C1102 H1094 0.950 . S
C1102 C1100 1.391 . S
C1102 C1103 1.400 . S
C1103 C1102 1.400 . S
C1103 C1104 1.398 . S
C1103 C1109 1.491 . S
C1104 H1095 0.950 . S
C1104 C1103 1.398 . S
C1104 C1105 1.391 . S
C1105 H1093 0.950 . S
C1105 C1101 1.393 . S
C1105 C1104 1.391 . S
C1106 H1096 0.950 . S
C1106 C1107 1.386 . S
C1106 C1108 1.391 . S
C1107 C1106 1.386 . S
C1107 C1111 1.393 . S
C1108 H1097 0.950 . S
C1108 C1106 1.391 . S
C1108 C1109 1.400 . S
C1109 C1103 1.491 . S
C1109 C1108 1.400 . S
C1109 C1110 1.398 . S
C1110 H1098 0.950 . S
C1110 C1109 1.398 . S
C1110 C1111 1.391 . S
C1111 H1099 0.950 . S
C1111 C1107 1.393 . S
C1111 C1110 1.391 . S
H1112 C1120 0.950 . S
H1113 C1125 0.950 . S
H1114 C1122 0.950 . S
H1115 C1124 0.950 . S
H1116 C1126 0.950 . S
H1117 C1128 0.950 . S
H1118 C1130 0.950 . S
H1119 C1131 0.950 . S
C1120 H1112 0.950 . S
C1120 C1121 1.386 . S
C1120 C1122 1.391 . S
C1121 C1120 1.386 . S
C1121 C1125 1.393 . S
C1122 H1114 0.950 . S
C1122 C1120 1.391 . S
C1122 C1123 1.400 . S
C1123 C1122 1.400 . S
C1123 C1124 1.398 . S
C1123 C1129 1.491 . S
C1124 H1115 0.950 . S
C1124 C1123 1.398 . S
C1124 C1125 1.391 . S
C1125 H1113 0.950 . S
C1125 C1121 1.393 . S
C1125 C1124 1.391 . S
C1126 H1116 0.950 . S
C1126 C1127 1.386 . S
C1126 C1128 1.391 . S
C1127 C1126 1.386 . S
C1127 C1131 1.393 . S
C1128 H1117 0.950 . S
C1128 C1126 1.391 . S
C1128 C1129 1.400 . S
C1129 C1123 1.491 . S
C1129 C1128 1.400 . S
C1129 C1130 1.398 . S
C1130 H1118 0.950 . S
C1130 C1129 1.398 . S
C1130 C1131 1.391 . S
C1131 H1119 0.950 . S
C1131 C1127 1.393 . S
C1131 C1130 1.391 . S
H1132 C1140 0.950 . S
H1133 C1145 0.950 . S
H1134 C1142 0.950 . S
H1135 C1144 0.950 . S
H1136 C1146 0.950 . S
H1137 C1148 0.950 . S
H1138 C1150 0.950 . S
H1139 C1151 0.950 . S
C1140 H1132 0.950 . S
C1140 C1141 1.386 . S
C1140 C1142 1.391 . S
C1141 C1140 1.386 . S
C1141 C1145 1.393 . S
C1142 H1134 0.950 . S
C1142 C1140 1.391 . S
C1142 C1143 1.400 . S
C1143 C1142 1.400 . S
C1143 C1144 1.398 . S
C1143 C1149 1.491 . S
C1144 H1135 0.950 . S
C1144 C1143 1.398 . S
C1144 C1145 1.391 . S
C1145 H1133 0.950 . S
C1145 C1141 1.393 . S
C1145 C1144 1.391 . S
C1146 H1136 0.950 . S
C1146 C1147 1.386 . S
C1146 C1148 1.391 . S
C1147 C1146 1.386 . S
C1147 C1151 1.393 . S
C1148 H1137 0.950 . S
C1148 C1146 1.391 . S
C1148 C1149 1.400 . S
C1149 C1143 1.491 . S
C1149 C1148 1.400 . S
C1149 C1150 1.398 . S
C1150 H1138 0.950 . S
C1150 C1149 1.398 . S
C1150 C1151 1.391 . S
C1151 H1139 0.950 . S
C1151 C1147 1.393 . S
C1151 C1150 1.391 . S
H1152 C1160 0.950 . S
H1153 C1165 0.950 . S
H1154 C1162 0.950 . S
H1155 C1164 0.950 . S
H1156 C1166 0.950 . S
H1157 C1168 0.950 . S
H1158 C1170 0.950 . S
H1159 C1171 0.950 . S
C1160 H1152 0.950 . S
C1160 C1161 1.386 1_655 S
C1160 C1162 1.391 . S
C1161 C1160 1.386 1_455 S
C1161 C1165 1.393 . S
C1162 H1154 0.950 . S
C1162 C1160 1.391 . S
C1162 C1163 1.400 1_655 S
C1163 C1162 1.400 1_455 S
C1163 C1164 1.398 . S
C1163 C1169 1.491 . S
C1164 H1155 0.950 . S
C1164 C1163 1.398 . S
C1164 C1165 1.391 . S
C1165 H1153 0.950 . S
C1165 C1161 1.393 . S
C1165 C1164 1.391 . S
C1166 H1156 0.950 . S
C1166 C1167 1.386 . S
C1166 C1168 1.391 . S
C1167 C1166 1.386 . S
C1167 C1171 1.393 1_455 S
C1168 H1157 0.950 . S
C1168 C1166 1.391 . S
C1168 C1169 1.400 . S
C1169 C1163 1.491 . S
C1169 C1168 1.400 . S
C1169 C1170 1.398 1_455 S
C1170 H1158 0.950 . S
C1170 C1169 1.398 1_655 S
C1170 C1171 1.391 . S
C1171 H1159 0.950 . S
C1171 C1167 1.393 1_655 S
C1171 C1170 1.391 . S
H1172 C1180 0.950 . S
H1173 C1185 0.950 . S
H1174 C1182 0.950 . S
H1175 C1184 0.950 . S
H1176 C1186 0.950 . S
H1177 C1188 0.950 . S
H1178 C1190 0.950 . S
H1179 C1191 0.950 . S
C1180 H1172 0.950 . S
C1180 C1181 1.386 . S
C1180 C1182 1.391 . S
C1181 C1180 1.386 . S
C1181 C1185 1.393 . S
C1182 H1174 0.950 . S
C1182 C1180 1.391 . S
C1182 C1183 1.400 . S
C1183 C1182 1.400 . S
C1183 C1184 1.398 . S
C1183 C1189 1.491 . S
C1184 H1175 0.950 . S
C1184 C1183 1.398 . S
C1184 C1185 1.391 . S
C1185 H1173 0.950 . S
C1185 C1181 1.393 . S
C1185 C1184 1.391 . S
C1186 H1176 0.950 . S
C1186 C1187 1.386 . S
C1186 C1188 1.391 . S
C1187 C1186 1.386 . S
C1187 C1191 1.393 . S
C1188 H1177 0.950 . S
C1188 C1186 1.391 . S
C1188 C1189 1.400 . S
C1189 C1183 1.491 . S
C1189 C1188 1.400 . S
C1189 C1190 1.398 . S
C1190 H1178 0.950 . S
C1190 C1189 1.398 . S
C1190 C1191 1.391 . S
C1191 H1179 0.950 . S
C1191 C1187 1.393 . S
C1191 C1190 1.391 . S
H1192 C1200 0.950 . S
H1193 C1205 0.950 . S
H1194 C1202 0.950 . S
H1195 C1204 0.950 . S
H1196 C1206 0.950 . S
H1197 C1208 0.950 . S
H1198 C1210 0.950 . S
H1199 C1211 0.950 . S
C1200 H1192 0.950 . S
C1200 C1201 1.386 . S
C1200 C1202 1.391 . S
C1201 C1200 1.386 . S
C1201 C1205 1.393 . S
C1202 H1194 0.950 . S
C1202 C1200 1.391 . S
C1202 C1203 1.400 . S
C1203 C1202 1.400 . S
C1203 C1204 1.398 . S
C1203 C1209 1.491 . S
C1204 H1195 0.950 . S
C1204 C1203 1.398 . S
C1204 C1205 1.391 . S
C1205 H1193 0.950 . S
C1205 C1201 1.393 . S
C1205 C1204 1.391 . S
C1206 H1196 0.950 . S
C1206 C1207 1.386 . S
C1206 C1208 1.391 . S
C1207 C1206 1.386 . S
C1207 C1211 1.393 . S
C1208 H1197 0.950 . S
C1208 C1206 1.391 . S
C1208 C1209 1.400 . S
C1209 C1203 1.491 . S
C1209 C1208 1.400 . S
C1209 C1210 1.398 . S
C1210 H1198 0.950 . S
C1210 C1209 1.398 . S
C1210 C1211 1.391 . S
C1211 H1199 0.950 . S
C1211 C1207 1.393 . S
C1211 C1210 1.391 . S
H1212 C1220 0.950 . S
H1213 C1225 0.950 . S
H1214 C1222 0.950 . S
H1215 C1224 0.950 . S
H1216 C1226 0.950 . S
H1217 C1228 0.950 . S
H1218 C1230 0.950 . S
H1219 C1231 0.950 . S
C1220 H1212 0.950 . S
C1220 C1221 1.386 . S
C1220 C1222 1.391 . S
C1221 C1220 1.386 . S
C1221 C1225 1.393 . S
C1222 H1214 0.950 . S
C1222 C1220 1.391 . S
C1222 C1223 1.400 . S
C1223 C1222 1.400 . S
C1223 C1224 1.398 . S
C1223 C1229 1.491 . S
C1224 H1215 0.950 . S
C1224 C1223 1.398 . S
C1224 C1225 1.391 . S
C1225 H1213 0.950 . S
C1225 C1221 1.393 . S
C1225 C1224 1.391 . S
C1226 H1216 0.950 . S
C1226 C1227 1.386 . S
C1226 C1228 1.391 . S
C1227 C1226 1.386 . S
C1227 C1231 1.393 . S
C1228 H1217 0.950 . S
C1228 C1226 1.391 . S
C1228 C1229 1.400 . S
C1229 C1223 1.491 . S
C1229 C1228 1.400 . S
C1229 C1230 1.398 . S
C1230 H1218 0.950 . S
C1230 C1229 1.398 . S
C1230 C1231 1.391 . S
C1231 H1219 0.950 . S
C1231 C1227 1.393 . S
C1231 C1230 1.391 . S
H1232 C1240 0.950 . S
H1233 C1245 0.950 . S
H1234 C1242 0.950 . S
H1235 C1244 0.950 . S
H1236 C1246 0.950 . S
H1237 C1248 0.950 . S
H1238 C1250 0.950 . S
H1239 C1251 0.950 . S
C1240 H1232 0.950 . S
C1240 C1241 1.386 1_655 S
C1240 C1242 1.391 . S
C1241 C1240 1.386 1_455 S
C1241 C1245 1.393 . S
C1242 H1234 0.950 . S
C1242 C1240 1.391 . S
C1242 C1243 1.400 1_655 S
C1243 C1242 1.400 1_455 S
C1243 C1244 1.398 . S
C1243 C1249 1.491 . S
C1244 H1235 0.950 . S
C1244 C1243 1.398 . S
C1244 C1245 1.391 . S
C1245 H1233 0.950 . S
C1245 C1241 1.393 . S
C1245 C1244 1.391 . S
C1246 H1236 0.950 . S
C1246 C1247 1.386 . S
C1246 C1248 1.391 . S
C1247 C1246 1.386 . S
C1247 C1251 1.393 1_455 S
C1248 H1237 0.950 . S
C1248 C1246 1.391 . S
C1248 C1249 1.400 . S
C1249 C1243 1.491 . S
C1249 C1248 1.400 . S
C1249 C1250 1.398 1_455 S
C1250 H1238 0.950 . S
C1250 C1249 1.398 1_655 S
C1250 C1251 1.391 . S
C1251 H1239 0.950 . S
C1251 C1247 1.393 1_655 S
C1251 C1250 1.391 . S
H1252 C1260 0.950 . S
H1253 C1265 0.950 . S
H1254 C1262 0.950 . S
H1255 C1264 0.950 . S
H1256 C1266 0.950 . S
H1257 C1268 0.950 . S
H1258 C1270 0.950 . S
H1259 C1271 0.950 . S
C1260 H1252 0.950 . S
C1260 C1261 1.386 . S
C1260 C1262 1.391 . S
C1261 C1260 1.386 . S
C1261 C1265 1.393 . S
C1262 H1254 0.950 . S
C1262 C1260 1.391 . S
C1262 C1263 1.400 . S
C1263 C1262 1.400 . S
C1263 C1264 1.398 . S
C1263 C1269 1.491 . S
C1264 H1255 0.950 . S
C1264 C1263 1.398 . S
C1264 C1265 1.391 . S
C1265 H1253 0.950 . S
C1265 C1261 1.393 . S
C1265 C1264 1.391 . S
C1266 H1256 0.950 . S
C1266 C1267 1.386 . S
C1266 C1268 1.391 . S
C1267 C1266 1.386 . S
C1267 C1271 1.393 . S
C1268 H1257 0.950 . S
C1268 C1266 1.391 . S
C1268 C1269 1.400 . S
C1269 C1263 1.491 . S
C1269 C1268 1.400 . S
C1269 C1270 1.398 . S
C1270 H1258 0.950 . S
C1270 C1269 1.398 . S
C1270 C1271 1.391 . S
C1271 H1259 0.950 . S
C1271 C1267 1.393 . S
C1271 C1270 1.391 . S
H1272 C1280 0.950 . S
H1273 C1285 0.950 . S
H1274 C1282 0.950 . S
H1275 C1284 0.950 . S
H1276 C1286 0.950 . S
H1277 C1288 0.950 . S
H1278 C1290 0.950 . S
H1279 C1291 0.950 . S
C1280 H1272 0.950 . S
C1280 C1281 1.386 . S
C1280 C1282 1.391 . S
C1281 C1280 1.386 . S
C1281 C1285 1.393 . S
C1282 H1274 0.950 . S
C1282 C1280 1.391 . S
C1282 C1283 1.400 . S
C1283 C1282 1.400 . S
C1283 C1284 1.398 . S
C1283 C1289 1.491 . S
C1284 H1275 0.950 . S
C1284 C1283 1.398 . S
C1284 C1285 1.391 . S
C1285 H1273 0.950 . S
C1285 C1281 1.393 . S
C1285 C1284 1.391 . S
C1286 H1276 0.950 . S
C1286 C1287 1.386 . S
C1286 C1288 1.391 . S
C1287 C1286 1.386 . S
C1287 C1291 1.393 . S
C1288 H1277 0.950 . S
C1288 C1286 1.391 . S
C1288 C1289 1.400 . S
C1289 C1283 1.491 . S
C1289 C1288 1.400 . S
C1289 C1290 1.398 . S
C1290 H1278 0.950 . S
C1290 C1289 1.398 . S
C1290 C1291 1.391 . S
C1291 H1279 0.950 . S
C1291 C1287 1.393 . S
C1291 C1290 1.391 . S
H1292 C1300 0.950 . S
H1293 C1305 0.950 . S
H1294 C1302 0.950 . S
H1295 C1304 0.950 . S
H1296 C1306 0.950 . S
H1297 C1308 0.950 . S
H1298 C1310 0.950 . S
H1299 C1311 0.950 . S
C1300 H1292 0.950 . S
C1300 C1301 1.386 . S
C1300 C1302 1.391 . S
C1301 C1300 1.386 . S
C1301 C1305 1.393 . S
C1302 H1294 0.950 . S
C1302 C1300 1.391 . S
C1302 C1303 1.400 . S
C1303 C1302 1.400 . S
C1303 C1304 1.398 . S
C1303 C1309 1.491 . S
C1304 H1295 0.950 . S
C1304 C1303 1.398 . S
C1304 C1305 1.391 . S
C1305 H1293 0.950 . S
C1305 C1301 1.393 . S
C1305 C1304 1.391 . S
C1306 H1296 0.950 . S
C1306 C1307 1.386 . S
C1306 C1308 1.391 . S
C1307 C1306 1.386 . S
C1307 C1311 1.393 . S
C1308 H1297 0.950 . S
C1308 C1306 1.391 . S
C1308 C1309 1.400 . S
C1309 C1303 1.491 . S
C1309 C1308 1.400 . S
C1309 C1310 1.398 . S
C1310 H1298 0.950 . S
C1310 C1309 1.398 . S
C1310 C1311 1.391 . S
C1311 H1299 0.950 . S
C1311 C1307 1.393 . S
C1311 C1310 1.391 . S
H1312 C1320 0.950 . S
H1313 C1325 0.950 . S
H1314 C1322 0.950 . S
H1315 C1324 0.950 . S
H1316 C1326 0.950 . S
H1317 C1328 0.950 . S
H1318 C1330 0.950 . S
H1319 C1331 0.942 1_455 S
C1320 H1312 0.950 . S
C1320 C1321 1.386 1_565 S
C1320 C1322 1.391 . S
C1321 C1320 1.386 1_545 S
C1321 C1325 1.393 . S
C1322 H1314 0.950 . S
C1322 C1320 1.391 . S
C1322 C1323 1.400 1_565 S
C1323 C1322 1.400 1_545 S
C1323 C1324 1.398 . S
C1323 C1329 1.491 . S
C1324 H1315 0.950 . S
C1324 C1323 1.398 . S
C1324 C1325 1.391 . S
C1325 H1313 0.950 . S
C1325 C1321 1.393 . S
C1325 C1324 1.391 . S
C1326 H1316 0.950 . S
C1326 C1327 1.386 . S
C1326 C1328 1.391 . S
C1327 C1326 1.386 . S
C1327 C1331 1.393 1_545 S
C1328 H1317 0.950 . S
C1328 C1326 1.391 . S
C1328 C1329 1.400 . S
C1329 C1323 1.491 . S
C1329 C1328 1.400 . S
C1329 C1330 1.398 1_545 S
C1330 H1318 0.950 . S
C1330 C1329 1.398 1_565 S
C1330 C1331 1.391 . S
C1331 H1319 0.942 1_655 S
C1331 C1327 1.393 1_565 S
C1331 C1330 1.391 . S
H1332 C1340 0.950 . S
H1333 C1345 0.950 . S
H1334 C1342 0.950 . S
H1335 C1344 0.950 . S
H1336 C1346 0.950 . S
H1337 C1348 0.950 . S
H1338 C1350 0.950 . S
H1339 C1351 0.950 . S
C1340 H1332 0.950 . S
C1340 C1341 1.386 . S
C1340 C1342 1.391 . S
C1341 C1340 1.386 . S
C1341 C1345 1.393 . S
C1342 H1334 0.950 . S
C1342 C1340 1.391 . S
C1342 C1343 1.400 . S
C1343 C1342 1.400 . S
C1343 C1344 1.398 . S
C1343 C1349 1.491 . S
C1344 H1335 0.950 . S
C1344 C1343 1.398 . S
C1344 C1345 1.391 . S
C1345 H1333 0.950 . S
C1345 C1341 1.393 . S
C1345 C1344 1.391 . S
C1346 H1336 0.950 . S
C1346 C1347 1.386 . S
C1346 C1348 1.391 . S
C1347 C1346 1.386 . S
C1347 C1351 1.393 . S
C1348 H1337 0.950 . S
C1348 C1346 1.391 . S
C1348 C1349 1.400 . S
C1349 C1343 1.491 . S
C1349 C1348 1.400 . S
C1349 C1350 1.398 . S
C1350 H1338 0.950 . S
C1350 C1349 1.398 . S
C1350 C1351 1.391 . S
C1351 H1339 0.950 . S
C1351 C1347 1.393 . S
C1351 C1350 1.391 . S
H1352 C1360 0.950 . S
H1353 C1365 0.950 . S
H1354 C1362 0.950 . S
H1355 C1364 0.950 . S
H1356 C1366 0.950 . S
H1357 C1368 0.950 . S
H1358 C1370 0.950 . S
H1359 C1371 0.950 . S
C1360 H1352 0.950 . S
C1360 C1361 1.386 . S
C1360 C1362 1.391 . S
C1361 C1360 1.386 . S
C1361 C1365 1.393 1_545 S
C1362 H1354 0.950 . S
C1362 C1360 1.391 . S
C1362 C1363 1.400 . S
C1363 C1362 1.400 . S
C1363 C1364 1.398 1_545 S
C1363 C1369 1.491 . S
C1364 H1355 0.950 . S
C1364 C1363 1.398 1_565 S
C1364 C1365 1.391 . S
C1365 H1353 0.950 . S
C1365 C1361 1.393 1_565 S
C1365 C1364 1.391 . S
C1366 H1356 0.950 . S
C1366 C1367 1.384 . S
C1366 C1368 1.391 . S
C1367 C1366 1.384 . S
C1367 C1371 1.394 1_565 S
C1368 H1357 0.950 . S
C1368 C1366 1.391 . S
C1368 C1369 1.400 1_565 S
C1369 C1363 1.491 . S
C1369 C1368 1.400 1_545 S
C1369 C1370 1.398 . S
C1370 H1358 0.950 . S
C1370 C1369 1.398 . S
C1370 C1371 1.391 . S
C1371 H1359 0.950 . S
C1371 C1367 1.394 1_545 S
C1371 C1370 1.391 . S
H1372 C1380 0.950 . S
H1373 C1385 0.950 . S
H1374 C1382 0.950 . S
H1375 C1384 0.950 . S
H1376 C1386 0.950 . S
H1377 C1388 0.950 . S
H1378 C1390 0.950 . S
H1379 C1391 0.950 . S
C1380 H1372 0.950 . S
C1380 C1381 1.386 . S
C1380 C1382 1.391 . S
C1381 C1380 1.386 . S
C1381 C1385 1.393 . S
C1382 H1374 0.950 . S
C1382 C1380 1.391 . S
C1382 C1383 1.400 . S
C1383 C1382 1.400 . S
C1383 C1384 1.398 . S
C1383 C1389 1.491 . S
C1384 H1375 0.950 . S
C1384 C1383 1.398 . S
C1384 C1385 1.391 . S
C1385 H1373 0.950 . S
C1385 C1381 1.393 . S
C1385 C1384 1.391 . S
C1386 H1376 0.950 . S
C1386 C1387 1.386 . S
C1386 C1388 1.391 . S
C1387 C1386 1.386 . S
C1387 C1391 1.393 . S
C1388 H1377 0.950 . S
C1388 C1386 1.391 . S
C1388 C1389 1.400 . S
C1389 C1383 1.491 . S
C1389 C1388 1.400 . S
C1389 C1390 1.398 . S
C1390 H1378 0.950 . S
C1390 C1389 1.398 . S
C1390 C1391 1.391 . S
C1391 H1379 0.950 . S
C1391 C1387 1.393 . S
C1391 C1390 1.391 . S
H1392 C1400 0.950 . S
H1393 C1405 0.950 . S
H1394 C1402 0.950 . S
H1395 C1404 0.950 . S
H1396 C1406 0.950 . S
H1397 C1408 0.950 . S
H1398 C1410 0.950 . S
H1399 C1411 0.950 . S
C1400 H1392 0.950 . S
C1400 C1401 1.388 1_545 S
C1400 C1402 1.391 . S
C1401 C1400 1.388 1_565 S
C1401 C1405 1.391 . S
C1402 H1394 0.950 . S
C1402 C1400 1.391 . S
C1402 C1403 1.400 1_545 S
C1403 C1402 1.400 1_565 S
C1403 C1404 1.398 . S
C1403 C1409 1.491 . S
C1404 H1395 0.950 . S
C1404 C1403 1.398 . S
C1404 C1405 1.391 . S
C1405 H1393 0.950 . S
C1405 C1401 1.391 . S
C1405 C1404 1.391 . S
C1406 H1396 0.950 . S
C1406 C1407 1.386 . S
C1406 C1408 1.391 . S
C1407 C1406 1.386 . S
C1407 C1411 1.393 1_565 S
C1408 H1397 0.950 . S
C1408 C1406 1.391 . S
C1408 C1409 1.400 . S
C1409 C1403 1.491 . S
C1409 C1408 1.400 . S
C1409 C1410 1.398 1_565 S
C1410 H1398 0.950 . S
C1410 C1409 1.398 1_545 S
C1410 C1411 1.391 . S
C1411 H1399 0.950 . S
C1411 C1407 1.393 1_545 S
C1411 C1410 1.391 . S
H1412 C1420 0.950 . S
H1413 C1425 0.950 . S
H1414 C1422 0.950 . S
H1415 C1424 0.950 . S
H1416 C1426 0.950 . S
H1417 C1428 0.950 . S
H1418 C1430 0.950 . S
H1419 C1431 0.950 . S
C1420 H1412 0.950 . S
C1420 C1421 1.386 . S
C1420 C1422 1.391 . S
C1421 C1420 1.386 . S
C1421 C1425 1.393 . S
C1422 H1414 0.950 . S
C1422 C1420 1.391 . S
C1422 C1423 1.400 . S
C1423 C1422 1.400 . S
C1423 C1424 1.398 . S
C1423 C1429 1.491 . S
C1424 H1415 0.950 . S
C1424 C1423 1.398 . S
C1424 C1425 1.391 . S
C1425 H1413 0.950 . S
C1425 C1421 1.393 . S
C1425 C1424 1.391 . S
C1426 H1416 0.950 . S
C1426 C1427 1.386 . S
C1426 C1428 1.391 . S
C1427 C1426 1.386 . S
C1427 C1431 1.393 . S
C1428 H1417 0.950 . S
C1428 C1426 1.391 . S
C1428 C1429 1.400 . S
C1429 C1423 1.491 . S
C1429 C1428 1.400 . S
C1429 C1430 1.398 . S
C1430 H1418 0.950 . S
C1430 C1429 1.398 . S
C1430 C1431 1.391 . S
C1431 H1419 0.950 . S
C1431 C1427 1.393 . S
C1431 C1430 1.391 . S
H1432 C1440 0.950 . S
H1433 C1445 0.950 . S
H1434 C1442 0.950 . S
H1435 C1444 0.950 . S
H1436 C1446 0.950 . S
H1437 C1448 0.950 . S
H1438 C1450 0.950 . S
H1439 C1451 0.950 . S
C1440 H1432 0.950 . S
C1440 C1441 1.386 . S
C1440 C1442 1.391 . S
C1441 C1440 1.386 . S
C1441 C1445 1.393 1_545 S
C1442 H1434 0.950 . S
C1442 C1440 1.391 . S
C1442 C1443 1.400 . S
C1443 C1442 1.400 . S
C1443 C1444 1.398 1_545 S
C1443 C1449 1.491 . S
C1444 H1435 0.950 . S
C1444 C1443 1.398 1_565 S
C1444 C1445 1.391 . S
C1445 H1433 0.950 . S
C1445 C1441 1.393 1_565 S
C1445 C1444 1.391 . S
C1446 H1436 0.950 . S
C1446 C1447 1.386 1_565 S
C1446 C1448 1.391 . S
C1447 C1446 1.386 1_545 S
C1447 C1451 1.393 . S
C1448 H1437 0.950 . S
C1448 C1446 1.391 . S
C1448 C1449 1.400 1_565 S
C1449 C1443 1.491 . S
C1449 C1448 1.400 1_545 S
C1449 C1450 1.398 . S
C1450 H1438 0.950 . S
C1450 C1449 1.398 . S
C1450 C1451 1.391 . S
C1451 H1439 0.950 . S
C1451 C1447 1.393 . S
C1451 C1450 1.391 . S
H1452 C1460 0.950 . S
H1453 C1465 0.950 . S
H1454 C1462 0.950 . S
H1455 C1464 0.950 . S
H1456 C1466 0.950 . S
H1457 C1468 0.950 . S
H1458 C1470 0.950 . S
H1459 C1471 0.950 . S
C1460 H1452 0.950 . S
C1460 C1461 1.386 . S
C1460 C1462 1.391 . S
C1461 C1460 1.386 . S
C1461 C1465 1.393 . S
C1462 H1454 0.950 . S
C1462 C1460 1.391 . S
C1462 C1463 1.400 . S
C1463 C1462 1.400 . S
C1463 C1464 1.398 . S
C1463 C1469 1.491 . S
C1464 H1455 0.950 . S
C1464 C1463 1.398 . S
C1464 C1465 1.391 . S
C1465 H1453 0.950 . S
C1465 C1461 1.393 . S
C1465 C1464 1.391 . S
C1466 H1456 0.950 . S
C1466 C1467 1.386 . S
C1466 C1468 1.391 . S
C1467 C1466 1.386 . S
C1467 C1471 1.393 . S
C1468 H1457 0.950 . S
C1468 C1466 1.391 . S
C1468 C1469 1.400 . S
C1469 C1463 1.491 . S
C1469 C1468 1.400 . S
C1469 C1470 1.398 . S
C1470 H1458 0.950 . S
C1470 C1469 1.398 . S
C1470 C1471 1.391 . S
C1471 H1459 0.950 . S
C1471 C1467 1.393 . S
C1471 C1470 1.391 . S
H1472 C1480 0.950 . S
H1473 C1485 0.950 . S
H1474 C1482 0.950 . S
H1475 C1484 0.950 . S
H1476 C1486 0.950 . S
H1477 C1488 0.950 . S
H1478 C1490 0.950 . S
H1479 C1491 0.950 . S
C1480 H1472 0.950 . S
C1480 C1481 1.386 . S
C1480 C1482 1.391 . S
C1481 C1480 1.386 . S
C1481 C1485 1.393 1_554 S
C1482 H1474 0.950 . S
C1482 C1480 1.391 . S
C1482 C1483 1.400 . S
C1483 C1482 1.400 . S
C1483 C1484 1.398 1_554 S
C1483 C1489 1.491 . S
C1484 H1475 0.950 . S
C1484 C1483 1.398 1_556 S
C1484 C1485 1.391 . S
C1485 H1473 0.950 . S
C1485 C1481 1.393 1_556 S
C1485 C1484 1.391 . S
C1486 H1476 0.950 . S
C1486 C1487 1.386 1_556 S
C1486 C1488 1.391 . S
C1487 C1486 1.386 1_554 S
C1487 C1491 1.393 . S
C1488 H1477 0.950 . S
C1488 C1486 1.391 . S
C1488 C1489 1.400 1_556 S
C1489 C1483 1.491 . S
C1489 C1488 1.400 1_554 S
C1489 C1490 1.398 . S
C1490 H1478 0.950 . S
C1490 C1489 1.398 . S
C1490 C1491 1.391 . S
C1491 H1479 0.950 . S
C1491 C1487 1.393 . S
C1491 C1490 1.391 . S
H1492 C1500 0.950 . S
H1493 C1505 0.950 . S
H1494 C1502 0.950 . S
H1495 C1504 0.950 . S
H1496 C1506 0.950 . S
H1497 C1508 0.950 . S
H1498 C1510 0.950 . S
H1499 C1511 0.950 . S
C1500 H1492 0.950 . S
C1500 C1501 1.386 1_556 S
C1500 C1502 1.391 . S
C1501 C1500 1.386 1_554 S
C1501 C1505 1.393 . S
C1502 H1494 0.950 . S
C1502 C1500 1.391 . S
C1502 C1503 1.420 . S
C1503 C1502 1.420 . S
C1503 C1504 1.378 1_556 S
C1503 C1509 1.491 . S
C1504 H1495 0.950 . S
C1504 C1503 1.378 1_554 S
C1504 C1505 1.391 . S
C1505 H1493 0.950 . S
C1505 C1501 1.393 . S
C1505 C1504 1.391 . S
C1506 H1496 0.950 . S
C1506 C1507 1.386 1_554 S
C1506 C1508 1.391 . S
C1507 C1506 1.386 1_556 S
C1507 C1511 1.393 . S
C1508 H1497 0.950 . S
C1508 C1506 1.391 . S
C1508 C1509 1.400 1_554 S
C1509 C1503 1.491 . S
C1509 C1508 1.400 1_556 S
C1509 C1510 1.398 . S
C1510 H1498 0.950 . S
C1510 C1509 1.398 . S
C1510 C1511 1.391 . S
C1511 H1499 0.950 . S
C1511 C1507 1.393 . S
C1511 C1510 1.391 . S
H1512 C1520 0.950 . S
H1513 C1525 0.950 . S
H1514 C1522 0.950 . S
H1515 C1524 0.950 . S
H1516 C1526 0.950 . S
H1517 C1528 0.950 . S
H1518 C1530 0.950 . S
H1519 C1531 0.950 . S
C1520 H1512 0.950 . S
C1520 C1521 1.386 . S
C1520 C1522 1.391 . S
C1521 C1520 1.386 . S
C1521 C1525 1.393 . S
C1522 H1514 0.950 . S
C1522 C1520 1.391 . S
C1522 C1523 1.400 . S
C1523 C1522 1.400 . S
C1523 C1524 1.398 . S
C1523 C1529 1.491 . S
C1524 H1515 0.950 . S
C1524 C1523 1.398 . S
C1524 C1525 1.391 . S
C1525 H1513 0.950 . S
C1525 C1521 1.393 . S
C1525 C1524 1.391 . S
C1526 H1516 0.950 . S
C1526 C1527 1.386 . S
C1526 C1528 1.391 . S
C1527 C1526 1.386 . S
C1527 C1531 1.393 . S
C1528 H1517 0.950 . S
C1528 C1526 1.391 . S
C1528 C1529 1.400 . S
C1529 C1523 1.491 . S
C1529 C1528 1.400 . S
C1529 C1530 1.398 . S
C1530 H1518 0.950 . S
C1530 C1529 1.398 . S
C1530 C1531 1.391 . S
C1531 H1519 0.950 . S
C1531 C1527 1.393 . S
C1531 C1530 1.391 . S
H1532 C1540 0.950 . S
H1533 C1545 0.950 . S
H1534 C1542 0.950 . S
H1535 C1544 0.950 . S
H1536 C1546 0.950 . S
H1537 C1548 0.950 . S
H1538 C1550 0.950 . S
H1539 C1551 0.950 . S
C1540 H1532 0.950 . S
C1540 C1541 1.386 . S
C1540 C1542 1.391 . S
C1541 C1540 1.386 . S
C1541 C1545 1.393 . S
C1542 H1534 0.950 . S
C1542 C1540 1.391 . S
C1542 C1543 1.400 . S
C1543 C1542 1.400 . S
C1543 C1544 1.398 . S
C1543 C1549 1.491 . S
C1544 H1535 0.950 . S
C1544 C1543 1.398 . S
C1544 C1545 1.391 . S
C1545 H1533 0.950 . S
C1545 C1541 1.393 . S
C1545 C1544 1.391 . S
C1546 H1536 0.950 . S
C1546 C1547 1.386 . S
C1546 C1548 1.391 . S
C1547 C1546 1.386 . S
C1547 C1551 1.393 . S
C1548 H1537 0.950 . S
C1548 C1546 1.391 . S
C1548 C1549 1.400 . S
C1549 C1543 1.491 . S
C1549 C1548 1.400 . S
C1549 C1550 1.398 . S
C1550 H1538 0.950 . S
C1550 C1549 1.398 . S
C1550 C1551 1.391 . S
C1551 H1539 0.950 . S
C1551 C1547 1.393 . S
C1551 C1550 1.391 . S
H1552 C1560 0.950 . S
H1553 C1565 0.950 . S
H1554 C1562 0.950 . S
H1555 C1564 0.950 . S
H1556 C1566 0.950 . S
H1557 C1568 0.950 . S
H1558 C1570 0.950 . S
H1559 C1571 0.950 . S
C1560 H1552 0.950 . S
C1560 C1561 1.386 . S
C1560 C1562 1.391 . S
C1561 C1560 1.386 . S
C1561 C1565 1.393 . S
C1562 H1554 0.950 . S
C1562 C1560 1.391 . S
C1562 C1563 1.400 . S
C1563 C1562 1.400 . S
C1563 C1564 1.398 . S
C1563 C1569 1.491 . S
C1564 H1555 0.950 . S
C1564 C1563 1.398 . S
C1564 C1565 1.391 . S
C1565 H1553 0.950 . S
C1565 C1561 1.393 . S
C1565 C1564 1.391 . S
C1566 H1556 0.950 . S
C1566 C1567 1.386 . S
C1566 C1568 1.391 . S
C1567 C1566 1.386 . S
C1567 C1571 1.393 . S
C1568 H1557 0.950 . S
C1568 C1566 1.391 . S
C1568 C1569 1.400 . S
C1569 C1563 1.491 . S
C1569 C1568 1.400 . S
C1569 C1570 1.398 . S
C1570 H1558 0.950 . S
C1570 C1569 1.398 . S
C1570 C1571 1.391 . S
C1571 H1559 0.950 . S
C1571 C1567 1.393 . S
C1571 C1570 1.391 . S
H1572 C1580 0.950 . S
H1573 C1585 0.950 . S
H1574 C1582 0.950 . S
H1575 C1584 0.950 . S
H1576 C1586 0.950 . S
H1577 C1588 0.950 . S
H1578 C1590 0.950 . S
H1579 C1591 0.950 . S
C1580 H1572 0.950 . S
C1580 C1581 1.386 . S
C1580 C1582 1.391 . S
C1581 C1580 1.386 . S
C1581 C1585 1.393 . S
C1582 H1574 0.950 . S
C1582 C1580 1.391 . S
C1582 C1583 1.400 . S
C1583 C1582 1.400 . S
C1583 C1584 1.398 . S
C1583 C1589 1.491 . S
C1584 H1575 0.950 . S
C1584 C1583 1.398 . S
C1584 C1585 1.391 . S
C1585 H1573 0.950 . S
C1585 C1581 1.393 . S
C1585 C1584 1.391 . S
C1586 H1576 0.950 . S
C1586 C1587 1.386 . S
C1586 C1588 1.391 . S
C1587 C1586 1.386 . S
C1587 C1591 1.393 . S
C1588 H1577 0.950 . S
C1588 C1586 1.391 . S
C1588 C1589 1.400 . S
C1589 C1583 1.491 . S
C1589 C1588 1.400 . S
C1589 C1590 1.398 . S
C1590 H1578 0.950 . S
C1590 C1589 1.398 . S
C1590 C1591 1.391 . S
C1591 H1579 0.950 . S
C1591 C1587 1.393 . S
C1591 C1590 1.391 . S
H1592 C1600 0.950 . S
H1593 C1605 0.950 . S
H1594 C1602 0.950 . S
H1595 C1604 0.950 . S
H1596 C1606 0.950 . S
H1597 C1608 0.950 . S
H1598 C1610 0.950 . S
H1599 C1611 0.950 . S
C1600 H1592 0.950 . S
C1600 C1601 1.386 . S
C1600 C1602 1.391 . S
C1601 C1600 1.386 . S
C1601 C1605 1.393 . S
C1602 H1594 0.950 . S
C1602 C1600 1.391 . S
C1602 C1603 1.400 . S
C1603 C1602 1.400 . S
C1603 C1604 1.398 . S
C1603 C1609 1.491 . S
C1604 H1595 0.950 . S
C1604 C1603 1.398 . S
C1604 C1605 1.391 . S
C1605 H1593 0.950 . S
C1605 C1601 1.393 . S
C1605 C1604 1.391 . S
C1606 H1596 0.950 . S
C1606 C1607 1.386 . S
C1606 C1608 1.391 . S
C1607 C1606 1.386 . S
C1607 C1611 1.393 . S
C1608 H1597 0.950 . S
C1608 C1606 1.391 . S
C1608 C1609 1.400 . S
C1609 C1603 1.491 . S
C1609 C1608 1.400 . S
C1609 C1610 1.398 . S
C1610 H1598 0.950 . S
C1610 C1609 1.398 . S
C1610 C1611 1.391 . S
C1611 H1599 0.950 . S
C1611 C1607 1.393 . S
C1611 C1610 1.391 . S
H1612 C1620 0.950 . S
H1613 C1625 0.950 . S
H1614 C1622 0.950 . S
H1615 C1624 0.950 . S
H1616 C1626 0.950 . S
H1617 C1628 0.950 . S
H1618 C1630 0.950 . S
H1619 C1631 0.950 . S
C1620 H1612 0.950 . S
C1620 C1621 1.386 . S
C1620 C1622 1.391 . S
C1621 C1620 1.386 . S
C1621 C1625 1.393 . S
C1622 H1614 0.950 . S
C1622 C1620 1.391 . S
C1622 C1623 1.400 . S
C1623 C1622 1.400 . S
C1623 C1624 1.398 . S
C1623 C1629 1.491 . S
C1624 H1615 0.950 . S
C1624 C1623 1.398 . S
C1624 C1625 1.391 . S
C1625 H1613 0.950 . S
C1625 C1621 1.393 . S
C1625 C1624 1.391 . S
C1626 H1616 0.950 . S
C1626 C1627 1.386 . S
C1626 C1628 1.391 . S
C1627 C1626 1.386 . S
C1627 C1631 1.393 . S
C1628 H1617 0.950 . S
C1628 C1626 1.391 . S
C1628 C1629 1.400 . S
C1629 C1623 1.491 . S
C1629 C1628 1.400 . S
C1629 C1630 1.398 . S
C1630 H1618 0.950 . S
C1630 C1629 1.398 . S
C1630 C1631 1.391 . S
C1631 H1619 0.950 . S
C1631 C1627 1.393 . S
C1631 C1630 1.391 . S
H1632 C1640 0.950 . S
H1633 C1645 0.950 . S
H1634 C1642 0.950 . S
H1635 C1644 0.950 . S
H1636 C1646 0.950 . S
H1637 C1648 0.950 . S
H1638 C1650 0.950 . S
H1639 C1651 0.950 . S
C1640 H1632 0.950 . S
C1640 C1641 1.386 . S
C1640 C1642 1.391 . S
C1641 C1640 1.386 . S
C1641 C1645 1.393 . S
C1642 H1634 0.950 . S
C1642 C1640 1.391 . S
C1642 C1643 1.400 . S
C1643 C1642 1.400 . S
C1643 C1644 1.398 . S
C1643 C1649 1.491 . S
C1644 H1635 0.950 . S
C1644 C1643 1.398 . S
C1644 C1645 1.391 . S
C1645 H1633 0.950 . S
C1645 C1641 1.393 . S
C1645 C1644 1.391 . S
C1646 H1636 0.950 . S
C1646 C1647 1.386 . S
C1646 C1648 1.391 . S
C1647 C1646 1.386 . S
C1647 C1651 1.393 . S
C1648 H1637 0.950 . S
C1648 C1646 1.391 . S
C1648 C1649 1.400 . S
C1649 C1643 1.491 . S
C1649 C1648 1.400 . S
C1649 C1650 1.398 . S
C1650 H1638 0.950 . S
C1650 C1649 1.398 . S
C1650 C1651 1.391 . S
C1651 H1639 0.950 . S
C1651 C1647 1.393 . S
C1651 C1650 1.391 . S
H1652 C1660 0.950 . S
H1653 C1665 0.950 . S
H1654 C1662 0.950 . S
H1655 C1664 0.950 . S
H1656 C1666 0.950 . S
H1657 C1668 0.950 . S
H1658 C1670 0.950 . S
H1659 C1671 0.950 . S
C1660 H1652 0.950 . S
C1660 C1661 1.386 . S
C1660 C1662 1.391 . S
C1661 C1660 1.386 . S
C1661 C1665 1.393 . S
C1662 H1654 0.950 . S
C1662 C1660 1.391 . S
C1662 C1663 1.400 . S
C1663 C1662 1.400 . S
C1663 C1664 1.398 . S
C1663 C1669 1.491 . S
C1664 H1655 0.950 . S
C1664 C1663 1.398 . S
C1664 C1665 1.391 . S
C1665 H1653 0.950 . S
C1665 C1661 1.393 . S
C1665 C1664 1.391 . S
C1666 H1656 0.950 . S
C1666 C1667 1.386 . S
C1666 C1668 1.391 . S
C1667 C1666 1.386 . S
C1667 C1671 1.393 . S
C1668 H1657 0.950 . S
C1668 C1666 1.391 . S
C1668 C1669 1.400 . S
C1669 C1663 1.491 . S
C1669 C1668 1.400 . S
C1669 C1670 1.398 . S
C1670 H1658 0.950 . S
C1670 C1669 1.398 . S
C1670 C1671 1.391 . S
C1671 H1659 0.950 . S
C1671 C1667 1.393 . S
C1671 C1670 1.391 . S
H1672 C1680 0.950 . S
H1673 C1685 0.950 . S
H1674 C1682 0.950 . S
H1675 C1684 0.950 . S
H1676 C1686 0.950 . S
H1677 C1688 0.950 . S
H1678 C1690 0.950 . S
H1679 C1691 0.950 . S
C1680 H1672 0.950 . S
C1680 C1681 1.386 1_655 S
C1680 C1682 1.391 . S
C1681 C1680 1.386 1_455 S
C1681 C1685 1.393 . S
C1682 H1674 0.950 . S
C1682 C1680 1.391 . S
C1682 C1683 1.400 1_655 S
C1683 C1682 1.400 1_455 S
C1683 C1684 1.398 . S
C1683 C1689 1.491 . S
C1684 H1675 0.950 . S
C1684 C1683 1.398 . S
C1684 C1685 1.391 . S
C1685 H1673 0.950 . S
C1685 C1681 1.393 . S
C1685 C1684 1.391 . S
C1686 H1676 0.950 . S
C1686 C1687 1.386 . S
C1686 C1688 1.391 . S
C1687 C1686 1.386 . S
C1687 C1691 1.393 1_455 S
C1688 H1677 0.950 . S
C1688 C1686 1.391 . S
C1688 C1689 1.400 . S
C1689 C1683 1.491 . S
C1689 C1688 1.400 . S
C1689 C1690 1.398 1_455 S
C1690 H1678 0.950 . S
C1690 C1689 1.398 1_655 S
C1690 C1691 1.391 . S
C1691 H1679 0.950 . S
C1691 C1687 1.393 1_655 S
C1691 C1690 1.391 . S
H1692 C1700 0.950 . S
H1693 C1705 0.950 . S
H1694 C1702 0.950 . S
H1695 C1704 0.950 . S
H1696 C1706 0.950 . S
H1697 C1708 0.950 . S
H1698 C1710 0.950 . S
H1699 C1711 0.950 . S
C1700 H1692 0.950 . S
C1700 C1701 1.386 . S
C1700 C1702 1.391 . S
C1701 C1700 1.386 . S
C1701 C1705 1.393 . S
C1702 H1694 0.950 . S
C1702 C1700 1.391 . S
C1702 C1703 1.400 . S
C1703 C1702 1.400 . S
C1703 C1704 1.398 . S
C1703 C1709 1.491 . S
C1704 H1695 0.950 . S
C1704 C1703 1.398 . S
C1704 C1705 1.391 . S
C1705 H1693 0.950 . S
C1705 C1701 1.393 . S
C1705 C1704 1.391 . S
C1706 H1696 0.950 . S
C1706 C1707 1.386 . S
C1706 C1708 1.391 . S
C1707 C1706 1.386 . S
C1707 C1711 1.393 . S
C1708 H1697 0.950 . S
C1708 C1706 1.391 . S
C1708 C1709 1.400 . S
C1709 C1703 1.491 . S
C1709 C1708 1.400 . S
C1709 C1710 1.398 . S
C1710 H1698 0.950 . S
C1710 C1709 1.398 . S
C1710 C1711 1.391 . S
C1711 H1699 0.950 . S
C1711 C1707 1.393 . S
C1711 C1710 1.391 . S
H1712 C1720 0.950 . S
H1713 C1725 0.950 . S
H1714 C1722 0.950 . S
H1715 C1724 0.950 . S
H1716 C1726 0.950 . S
H1717 C1728 0.950 . S
H1718 C1730 0.950 . S
H1719 C1731 0.950 . S
C1720 H1712 0.950 . S
C1720 C1721 1.386 . S
C1720 C1722 1.391 . S
C1721 C1720 1.386 . S
C1721 C1725 1.393 . S
C1722 H1714 0.950 . S
C1722 C1720 1.391 . S
C1722 C1723 1.400 . S
C1723 C1722 1.400 . S
C1723 C1724 1.398 . S
C1723 C1729 1.491 . S
C1724 H1715 0.950 . S
C1724 C1723 1.398 . S
C1724 C1725 1.391 . S
C1725 H1713 0.950 . S
C1725 C1721 1.393 . S
C1725 C1724 1.391 . S
C1726 H1716 0.950 . S
C1726 C1727 1.386 . S
C1726 C1728 1.391 . S
C1727 C1726 1.386 . S
C1727 C1731 1.393 . S
C1728 H1717 0.950 . S
C1728 C1726 1.391 . S
C1728 C1729 1.400 . S
C1729 C1723 1.491 . S
C1729 C1728 1.400 . S
C1729 C1730 1.398 . S
C1730 H1718 0.950 . S
C1730 C1729 1.398 . S
C1730 C1731 1.391 . S
C1731 H1719 0.950 . S
C1731 C1727 1.393 . S
C1731 C1730 1.391 . S
H1732 C1740 0.950 . S
H1733 C1745 0.950 . S
H1734 C1742 0.950 . S
H1735 C1744 0.950 . S
H1736 C1746 0.950 . S
H1737 C1748 0.950 . S
H1738 C1750 0.950 . S
H1739 C1751 0.950 . S
C1740 H1732 0.950 . S
C1740 C1741 1.386 . S
C1740 C1742 1.391 . S
C1741 C1740 1.386 . S
C1741 C1745 1.393 . S
C1742 H1734 0.950 . S
C1742 C1740 1.391 . S
C1742 C1743 1.400 . S
C1743 C1742 1.400 . S
C1743 C1744 1.398 . S
C1743 C1749 1.491 . S
C1744 H1735 0.950 . S
C1744 C1743 1.398 . S
C1744 C1745 1.391 . S
C1745 H1733 0.950 . S
C1745 C1741 1.393 . S
C1745 C1744 1.391 . S
C1746 H1736 0.950 . S
C1746 C1747 1.386 . S
C1746 C1748 1.391 . S
C1747 C1746 1.386 . S
C1747 C1751 1.393 . S
C1748 H1737 0.950 . S
C1748 C1746 1.391 . S
C1748 C1749 1.400 . S
C1749 C1743 1.491 . S
C1749 C1748 1.400 . S
C1749 C1750 1.398 . S
C1750 H1738 0.950 . S
C1750 C1749 1.398 . S
C1750 C1751 1.391 . S
C1751 H1739 0.950 . S
C1751 C1747 1.393 . S
C1751 C1750 1.391 . S
H1752 C1760 0.950 . S
H1753 C1765 0.967 . S
H1754 C1762 0.950 . S
H1755 C1764 0.940 1_655 S
H1756 C1766 0.950 . S
H1757 C1768 0.956 . S
H1758 C1770 0.950 . S
H1759 C1771 0.950 . S
C1760 H1752 0.950 . S
C1760 C1761 1.386 . S
C1760 C1762 1.391 . S
C1761 C1760 1.386 . S
C1761 C1765 1.381 1_455 S
C1762 H1754 0.950 . S
C1762 C1760 1.391 . S
C1762 C1763 1.400 . S
C1763 C1762 1.400 . S
C1763 C1764 1.412 . S
C1763 C1769 1.491 . S
C1764 H1755 0.940 1_455 S
C1764 C1763 1.412 . S
C1764 C1765 1.387 1_455 S
C1765 H1753 0.967 . S
C1765 C1761 1.381 1_655 S
C1765 C1764 1.387 1_655 S
C1766 H1756 0.950 . S
C1766 C1767 1.386 . S
C1766 C1768 1.391 . S
C1767 C1766 1.386 . S
C1767 C1771 1.393 . S
C1768 H1757 0.956 . S
C1768 C1766 1.391 . S
C1768 C1769 1.400 . S
C1769 C1763 1.491 . S
C1769 C1768 1.400 . S
C1769 C1770 1.398 . S
C1770 H1758 0.950 . S
C1770 C1769 1.398 . S
C1770 C1771 1.391 . S
C1771 H1759 0.950 . S
C1771 C1767 1.393 . S
C1771 C1770 1.391 . S
H1772 C1780 0.950 . S
H1773 C1785 0.950 . S
H1774 C1782 0.950 . S
H1775 C1784 0.950 . S
H1776 C1786 0.950 . S
H1777 C1788 0.950 . S
H1778 C1790 0.950 . S
H1779 C1791 0.950 . S
C1780 H1772 0.950 . S
C1780 C1781 1.386 . S
C1780 C1782 1.391 . S
C1781 C1780 1.386 . S
C1781 C1785 1.393 . S
C1782 H1774 0.950 . S
C1782 C1780 1.391 . S
C1782 C1783 1.400 . S
C1783 C1782 1.400 . S
C1783 C1784 1.398 . S
C1783 C1789 1.491 . S
C1784 H1775 0.950 . S
C1784 C1783 1.398 . S
C1784 C1785 1.391 . S
C1785 H1773 0.950 . S
C1785 C1781 1.393 . S
C1785 C1784 1.391 . S
C1786 H1776 0.950 . S
C1786 C1787 1.386 . S
C1786 C1788 1.391 . S
C1787 C1786 1.386 . S
C1787 C1791 1.393 . S
C1788 H1777 0.950 . S
C1788 C1786 1.391 . S
C1788 C1789 1.400 . S
C1789 C1783 1.491 . S
C1789 C1788 1.400 . S
C1789 C1790 1.398 . S
C1790 H1778 0.950 . S
C1790 C1789 1.398 . S
C1790 C1791 1.391 . S
C1791 H1779 0.950 . S
C1791 C1787 1.393 . S
C1791 C1790 1.391 . S
H1792 C1800 0.950 . S
H1793 C1805 0.950 . S
H1794 C1802 0.950 . S
H1795 C1804 0.950 . S
H1796 C1806 0.950 . S
H1797 C1808 0.950 . S
H1798 C1810 0.950 . S
H1799 C1811 0.950 . S
C1800 H1792 0.950 . S
C1800 C1801 1.386 . S
C1800 C1802 1.391 . S
C1801 C1800 1.386 . S
C1801 C1805 1.393 . S
C1802 H1794 0.950 . S
C1802 C1800 1.391 . S
C1802 C1803 1.400 . S
C1803 C1802 1.400 . S
C1803 C1804 1.398 . S
C1803 C1809 1.491 . S
C1804 H1795 0.950 . S
C1804 C1803 1.398 . S
C1804 C1805 1.391 . S
C1805 H1793 0.950 . S
C1805 C1801 1.393 . S
C1805 C1804 1.391 . S
C1806 H1796 0.950 . S
C1806 C1807 1.386 . S
C1806 C1808 1.391 . S
C1807 C1806 1.386 . S
C1807 C1811 1.393 . S
C1808 H1797 0.950 . S
C1808 C1806 1.391 . S
C1808 C1809 1.400 . S
C1809 C1803 1.491 . S
C1809 C1808 1.400 . S
C1809 C1810 1.398 . S
C1810 H1798 0.950 . S
C1810 C1809 1.398 . S
C1810 C1811 1.391 . S
C1811 H1799 0.950 . S
C1811 C1807 1.393 . S
C1811 C1810 1.391 . S
H1812 C1820 0.950 . S
H1813 C1825 0.950 . S
H1814 C1822 0.950 . S
H1815 C1824 0.950 . S
H1816 C1826 0.950 . S
H1817 C1828 0.950 . S
H1818 C1830 0.950 . S
H1819 C1831 0.950 . S
C1820 H1812 0.950 . S
C1820 C1821 1.386 . S
C1820 C1822 1.391 . S
C1821 C1820 1.386 . S
C1821 C1825 1.393 . S
C1822 H1814 0.950 . S
C1822 C1820 1.391 . S
C1822 C1823 1.400 . S
C1823 C1822 1.400 . S
C1823 C1824 1.398 . S
C1823 C1829 1.491 . S
C1824 H1815 0.950 . S
C1824 C1823 1.398 . S
C1824 C1825 1.391 . S
C1825 H1813 0.950 . S
C1825 C1821 1.393 . S
C1825 C1824 1.391 . S
C1826 H1816 0.950 . S
C1826 C1827 1.386 . S
C1826 C1828 1.391 . S
C1827 C1826 1.386 . S
C1827 C1831 1.393 . S
C1828 H1817 0.950 . S
C1828 C1826 1.391 . S
C1828 C1829 1.400 . S
C1829 C1823 1.491 . S
C1829 C1828 1.400 . S
C1829 C1830 1.398 . S
C1830 H1818 0.950 . S
C1830 C1829 1.398 . S
C1830 C1831 1.391 . S
C1831 H1819 0.950 . S
C1831 C1827 1.393 . S
C1831 C1830 1.391 . S
H1832 C1840 0.950 . S
H1833 C1845 0.950 . S
H1834 C1842 0.950 . S
H1835 C1844 0.950 . S
H1836 C1846 0.950 1_455 S
H1837 C1848 0.950 . S
H1838 C1850 0.950 . S
H1839 C1851 0.950 . S
C1840 H1832 0.950 . S
C1840 C1841 1.386 . S
C1840 C1842 1.391 . S
C1841 C1840 1.386 . S
C1841 C1845 1.393 . S
C1842 H1834 0.950 . S
C1842 C1840 1.391 . S
C1842 C1843 1.400 . S
C1843 C1842 1.400 . S
C1843 C1844 1.398 . S
C1843 C1849 1.491 . S
C1844 H1835 0.950 . S
C1844 C1843 1.398 . S
C1844 C1845 1.391 . S
C1845 H1833 0.950 . S
C1845 C1841 1.393 . S
C1845 C1844 1.391 . S
C1846 H1836 0.950 1_655 S
C1846 C1847 1.386 . S
C1846 C1848 1.391 . S
C1847 C1846 1.386 . S
C1847 C1851 1.393 . S
C1848 H1837 0.950 . S
C1848 C1846 1.391 . S
C1848 C1849 1.400 . S
C1849 C1843 1.491 . S
C1849 C1848 1.400 . S
C1849 C1850 1.398 . S
C1850 H1838 0.950 . S
C1850 C1849 1.398 . S
C1850 C1851 1.391 . S
C1851 H1839 0.950 . S
C1851 C1847 1.393 . S
C1851 C1850 1.391 . S
H1852 C1860 0.950 . S
H1853 C1865 0.950 . S
H1854 C1862 0.950 . S
H1855 C1864 0.950 . S
H1856 C1866 0.950 . S
H1857 C1868 0.950 . S
H1858 C1870 0.950 . S
H1859 C1871 0.950 . S
C1860 H1852 0.950 . S
C1860 C1861 1.386 . S
C1860 C1862 1.391 . S
C1861 C1860 1.386 . S
C1861 C1865 1.393 . S
C1862 H1854 0.950 . S
C1862 C1860 1.391 . S
C1862 C1863 1.400 . S
C1863 C1862 1.400 . S
C1863 C1864 1.398 . S
C1863 C1869 1.491 . S
C1864 H1855 0.950 . S
C1864 C1863 1.398 . S
C1864 C1865 1.391 . S
C1865 H1853 0.950 . S
C1865 C1861 1.393 . S
C1865 C1864 1.391 . S
C1866 H1856 0.950 . S
C1866 C1867 1.386 . S
C1866 C1868 1.391 . S
C1867 C1866 1.386 . S
C1867 C1871 1.393 . S
C1868 H1857 0.950 . S
C1868 C1866 1.391 . S
C1868 C1869 1.400 . S
C1869 C1863 1.491 . S
C1869 C1868 1.400 . S
C1869 C1870 1.398 . S
C1870 H1858 0.950 . S
C1870 C1869 1.398 . S
C1870 C1871 1.391 . S
C1871 H1859 0.950 . S
C1871 C1867 1.393 . S
C1871 C1870 1.391 . S
H1872 C1880 0.950 . S
H1873 C1885 0.950 . S
H1874 C1882 0.950 . S
H1875 C1884 0.950 . S
H1876 C1886 0.950 . S
H1877 C1888 0.950 . S
H1878 C1890 0.950 . S
H1879 C1891 0.950 . S
C1880 H1872 0.950 . S
C1880 C1881 1.386 . S
C1880 C1882 1.391 . S
C1881 C1880 1.386 . S
C1881 C1885 1.393 . S
C1882 H1874 0.950 . S
C1882 C1880 1.391 . S
C1882 C1883 1.400 . S
C1883 C1882 1.400 . S
C1883 C1884 1.398 . S
C1883 C1889 1.491 . S
C1884 H1875 0.950 . S
C1884 C1883 1.398 . S
C1884 C1885 1.391 . S
C1885 H1873 0.950 . S
C1885 C1881 1.393 . S
C1885 C1884 1.391 . S
C1886 H1876 0.950 . S
C1886 C1887 1.386 . S
C1886 C1888 1.391 . S
C1887 C1886 1.386 . S
C1887 C1891 1.393 . S
C1888 H1877 0.950 . S
C1888 C1886 1.391 . S
C1888 C1889 1.400 . S
C1889 C1883 1.491 . S
C1889 C1888 1.400 . S
C1889 C1890 1.398 . S
C1890 H1878 0.950 . S
C1890 C1889 1.398 . S
C1890 C1891 1.391 . S
C1891 H1879 0.950 . S
C1891 C1887 1.393 . S
C1891 C1890 1.391 . S
H1892 C1900 0.950 . S
H1893 C1905 0.950 . S
H1894 C1902 0.950 . S
H1895 C1904 0.950 . S
H1896 C1906 0.950 . S
H1897 C1908 0.950 . S
H1898 C1910 0.950 . S
H1899 C1911 0.950 . S
C1900 H1892 0.950 . S
C1900 C1901 1.386 . S
C1900 C1902 1.391 . S
C1901 C1900 1.386 . S
C1901 C1905 1.393 . S
C1902 H1894 0.950 . S
C1902 C1900 1.391 . S
C1902 C1903 1.400 . S
C1903 C1902 1.400 . S
C1903 C1904 1.398 . S
C1903 C1909 1.491 . S
C1904 H1895 0.950 . S
C1904 C1903 1.398 . S
C1904 C1905 1.391 . S
C1905 H1893 0.950 . S
C1905 C1901 1.393 . S
C1905 C1904 1.391 . S
C1906 H1896 0.950 . S
C1906 C1907 1.386 . S
C1906 C1908 1.391 . S
C1907 C1906 1.386 . S
C1907 C1911 1.393 . S
C1908 H1897 0.950 . S
C1908 C1906 1.391 . S
C1908 C1909 1.400 . S
C1909 C1903 1.491 . S
C1909 C1908 1.400 . S
C1909 C1910 1.398 . S
C1910 H1898 0.950 . S
C1910 C1909 1.398 . S
C1910 C1911 1.391 . S
C1911 H1899 0.950 . S
C1911 C1907 1.393 . S
C1911 C1910 1.391 . S
H1912 C1920 0.950 . S
H1913 C1925 0.950 . S
H1914 C1922 0.950 . S
H1915 C1924 0.950 . S
H1916 C1926 0.950 . S
H1917 C1928 0.950 . S
H1918 C1930 0.950 . S
H1919 C1931 0.950 1_455 S
C1920 H1912 0.950 . S
C1920 C1921 1.386 . S
C1920 C1922 1.391 . S
C1921 C1920 1.386 . S
C1921 C1925 1.393 . S
C1922 H1914 0.950 . S
C1922 C1920 1.391 . S
C1922 C1923 1.400 . S
C1923 C1922 1.400 . S
C1923 C1924 1.398 . S
C1923 C1929 1.491 . S
C1924 H1915 0.950 . S
C1924 C1923 1.398 . S
C1924 C1925 1.391 . S
C1925 H1913 0.950 . S
C1925 C1921 1.393 . S
C1925 C1924 1.391 . S
C1926 H1916 0.950 . S
C1926 C1927 1.386 . S
C1926 C1928 1.391 . S
C1927 C1926 1.386 . S
C1927 C1931 1.393 . S
C1928 H1917 0.950 . S
C1928 C1926 1.391 . S
C1928 C1929 1.400 . S
C1929 C1923 1.491 . S
C1929 C1928 1.400 . S
C1929 C1930 1.398 . S
C1930 H1918 0.950 . S
C1930 C1929 1.398 . S
C1930 C1931 1.391 . S
C1931 H1919 0.950 1_655 S
C1931 C1927 1.393 . S
C1931 C1930 1.391 . S
H1932 C1940 0.950 . S
H1933 C1945 0.950 . S
H1934 C1942 0.950 . S
H1935 C1944 0.950 . S
H1936 C1946 0.950 . S
H1937 C1948 0.950 . S
H1938 C1950 0.950 . S
H1939 C1951 0.950 . S
C1940 H1932 0.950 . S
C1940 C1941 1.386 . S
C1940 C1942 1.391 . S
C1941 C1940 1.386 . S
C1941 C1945 1.393 . S
C1942 H1934 0.950 . S
C1942 C1940 1.391 . S
C1942 C1943 1.400 . S
C1943 C1942 1.400 . S
C1943 C1944 1.398 . S
C1943 C1949 1.491 . S
C1944 H1935 0.950 . S
C1944 C1943 1.398 . S
C1944 C1945 1.391 . S
C1945 H1933 0.950 . S
C1945 C1941 1.393 . S
C1945 C1944 1.391 . S
C1946 H1936 0.950 . S
C1946 C1947 1.386 . S
C1946 C1948 1.391 . S
C1947 C1946 1.386 . S
C1947 C1951 1.393 . S
C1948 H1937 0.950 . S
C1948 C1946 1.391 . S
C1948 C1949 1.400 . S
C1949 C1943 1.491 . S
C1949 C1948 1.400 . S
C1949 C1950 1.398 . S
C1950 H1938 0.950 . S
C1950 C1949 1.398 . S
C1950 C1951 1.391 . S
C1951 H1939 0.950 . S
C1951 C1947 1.393 . S
C1951 C1950 1.391 . S
H1952 C1960 0.950 . S
H1953 C1965 0.950 . S
H1954 C1962 0.950 . S
H1955 C1964 0.950 . S
H1956 C1966 0.950 . S
H1957 C1968 0.950 . S
H1958 C1970 0.950 . S
H1959 C1971 0.950 . S
C1960 H1952 0.950 . S
C1960 C1961 1.386 . S
C1960 C1962 1.391 . S
C1961 C1960 1.386 . S
C1961 C1965 1.393 . S
C1962 H1954 0.950 . S
C1962 C1960 1.391 . S
C1962 C1963 1.400 . S
C1963 C1962 1.400 . S
C1963 C1964 1.398 . S
C1963 C1969 1.491 . S
C1964 H1955 0.950 . S
C1964 C1963 1.398 . S
C1964 C1965 1.391 . S
C1965 H1953 0.950 . S
C1965 C1961 1.393 . S
C1965 C1964 1.391 . S
C1966 H1956 0.950 . S
C1966 C1967 1.386 . S
C1966 C1968 1.391 . S
C1967 C1966 1.386 . S
C1967 C1971 1.393 . S
C1968 H1957 0.950 . S
C1968 C1966 1.391 . S
C1968 C1969 1.400 . S
C1969 C1963 1.491 . S
C1969 C1968 1.400 . S
C1969 C1970 1.398 . S
C1970 H1958 0.950 . S
C1970 C1969 1.398 . S
C1970 C1971 1.391 . S
C1971 H1959 0.950 . S
C1971 C1967 1.393 . S
C1971 C1970 1.391 . S
H1972 C1980 0.950 . S
H1973 C1985 0.950 . S
H1974 C1982 0.950 . S
H1975 C1984 0.950 . S
H1976 C1986 0.950 1_545 S
H1977 C1988 0.950 . S
H1978 C1990 0.950 . S
H1979 C1991 0.950 . S
C1980 H1972 0.950 . S
C1980 C1981 1.386 . S
C1980 C1982 1.391 . S
C1981 C1980 1.386 . S
C1981 C1985 1.393 . S
C1982 H1974 0.950 . S
C1982 C1980 1.391 . S
C1982 C1983 1.400 . S
C1983 C1982 1.400 . S
C1983 C1984 1.398 . S
C1983 C1989 1.491 . S
C1984 H1975 0.950 . S
C1984 C1983 1.398 . S
C1984 C1985 1.391 . S
C1985 H1973 0.950 . S
C1985 C1981 1.393 . S
C1985 C1984 1.391 . S
C1986 H1976 0.950 1_565 S
C1986 C1987 1.386 . S
C1986 C1988 1.391 . S
C1987 C1986 1.386 . S
C1987 C1991 1.393 . S
C1988 H1977 0.950 . S
C1988 C1986 1.391 . S
C1988 C1989 1.400 . S
C1989 C1983 1.491 . S
C1989 C1988 1.400 . S
C1989 C1990 1.398 . S
C1990 H1978 0.950 . S
C1990 C1989 1.398 . S
C1990 C1991 1.391 . S
C1991 H1979 0.950 . S
C1991 C1987 1.393 . S
C1991 C1990 1.391 . S
H1992 C2000 0.950 . S
H1993 C2005 0.950 . S
H1994 C2002 0.950 . S
H1995 C2004 0.950 . S
H1996 C2006 0.950 . S
H1997 C2008 0.950 . S
H1998 C2010 0.950 . S
H1999 C2011 0.950 . S
C2000 H1992 0.950 . S
C2000 C2001 1.386 . S
C2000 C2002 1.391 . S
C2001 C2000 1.386 . S
C2001 C2005 1.393 . S
C2002 H1994 0.950 . S
C2002 C2000 1.391 . S
C2002 C2003 1.400 . S
C2003 C2002 1.400 . S
C2003 C2004 1.398 . S
C2003 C2009 1.491 . S
C2004 H1995 0.950 . S
C2004 C2003 1.398 . S
C2004 C2005 1.391 . S
C2005 H1993 0.950 . S
C2005 C2001 1.393 . S
C2005 C2004 1.391 . S
C2006 H1996 0.950 . S
C2006 C2007 1.386 . S
C2006 C2008 1.391 . S
C2007 C2006 1.386 . S
C2007 C2011 1.393 . S
C2008 H1997 0.950 . S
C2008 C2006 1.391 . S
C2008 C2009 1.400 . S
C2009 C2003 1.491 . S
C2009 C2008 1.400 . S
C2009 C2010 1.398 . S
C2010 H1998 0.950 . S
C2010 C2009 1.398 . S
C2010 C2011 1.391 . S
C2011 H1999 0.950 . S
C2011 C2007 1.393 . S
C2011 C2010 1.391 . S
H2012 C2020 0.950 . S
H2013 C2025 0.950 . S
H2014 C2022 0.950 . S
H2015 C2024 0.950 . S
H2016 C2026 0.950 . S
H2017 C2028 0.950 . S
H2018 C2030 0.950 . S
H2019 C2031 0.950 . S
C2020 H2012 0.950 . S
C2020 C2021 1.386 . S
C2020 C2022 1.391 . S
C2021 C2020 1.386 . S
C2021 C2025 1.393 1_554 S
C2022 H2014 0.950 . S
C2022 C2020 1.391 . S
C2022 C2023 1.400 . S
C2023 C2022 1.400 . S
C2023 C2024 1.398 1_554 S
C2023 C2029 1.491 . S
C2024 H2015 0.950 . S
C2024 C2023 1.398 1_556 S
C2024 C2025 1.391 . S
C2025 H2013 0.950 . S
C2025 C2021 1.393 1_556 S
C2025 C2024 1.391 . S
C2026 H2016 0.950 . S
C2026 C2027 1.386 1_556 S
C2026 C2028 1.391 . S
C2027 C2026 1.386 1_554 S
C2027 C2031 1.393 . S
C2028 H2017 0.950 . S
C2028 C2026 1.391 . S
C2028 C2029 1.400 1_556 S
C2029 C2023 1.491 . S
C2029 C2028 1.400 1_554 S
C2029 C2030 1.398 . S
C2030 H2018 0.950 . S
C2030 C2029 1.398 . S
C2030 C2031 1.391 . S
C2031 H2019 0.950 . S
C2031 C2027 1.393 . S
C2031 C2030 1.391 . S
H2032 C2040 0.950 . S
H2033 C2045 0.950 . S
H2034 C2042 0.950 . S
H2035 C2044 0.950 . S
H2036 C2046 0.950 . S
H2037 C2048 0.950 . S
H2038 C2050 0.950 . S
H2039 C2051 0.950 . S
C2040 H2032 0.950 . S
C2040 C2041 1.386 . S
C2040 C2042 1.391 . S
C2041 C2040 1.386 . S
C2041 C2045 1.393 . S
C2042 H2034 0.950 . S
C2042 C2040 1.391 . S
C2042 C2043 1.400 . S
C2043 C2042 1.400 . S
C2043 C2044 1.398 . S
C2043 C2049 1.491 . S
C2044 H2035 0.950 . S
C2044 C2043 1.398 . S
C2044 C2045 1.391 . S
C2045 H2033 0.950 . S
C2045 C2041 1.393 . S
C2045 C2044 1.391 . S
C2046 H2036 0.950 . S
C2046 C2047 1.386 . S
C2046 C2048 1.391 . S
C2047 C2046 1.386 . S
C2047 C2051 1.393 . S
C2048 H2037 0.950 . S
C2048 C2046 1.391 . S
C2048 C2049 1.400 . S
C2049 C2043 1.491 . S
C2049 C2048 1.400 . S
C2049 C2050 1.398 . S
C2050 H2038 0.950 . S
C2050 C2049 1.398 . S
C2050 C2051 1.391 . S
C2051 H2039 0.950 . S
C2051 C2047 1.393 . S
C2051 C2050 1.391 . S
H2052 C2060 0.950 . S
H2053 C2065 0.950 . S
H2054 C2062 0.950 . S
H2055 C2064 0.950 . S
H2056 C2066 0.950 . S
H2057 C2068 0.950 . S
H2058 C2070 0.950 . S
H2059 C2071 0.950 . S
C2060 H2052 0.950 . S
C2060 C2061 1.386 . S
C2060 C2062 1.391 . S
C2061 C2060 1.386 . S
C2061 C2065 1.393 1_554 S
C2062 H2054 0.950 . S
C2062 C2060 1.391 . S
C2062 C2063 1.396 . S
C2063 C2062 1.396 . S
C2063 C2064 1.402 1_554 S
C2063 C2069 1.491 1_554 S
C2064 H2055 0.950 . S
C2064 C2063 1.402 1_556 S
C2064 C2065 1.391 . S
C2065 H2053 0.950 . S
C2065 C2061 1.393 1_556 S
C2065 C2064 1.391 . S
C2066 H2056 0.950 . S
C2066 C2067 1.386 . S
C2066 C2068 1.391 . S
C2067 C2066 1.386 . S
C2067 C2071 1.393 1_556 S
C2068 H2057 0.950 . S
C2068 C2066 1.391 . S
C2068 C2069 1.400 . S
C2069 C2063 1.491 1_556 S
C2069 C2068 1.400 . S
C2069 C2070 1.398 1_556 S
C2070 H2058 0.950 . S
C2070 C2069 1.398 1_554 S
C2070 C2071 1.391 . S
C2071 H2059 0.950 . S
C2071 C2067 1.393 1_554 S
C2071 C2070 1.391 . S
H2072 C2080 0.950 . S
H2073 C2085 0.950 . S
H2074 C2082 0.950 . S
H2075 C2084 0.950 . S
H2076 C2086 0.950 . S
H2077 C2088 0.950 . S
H2078 C2090 0.950 . S
H2079 C2091 0.950 . S
C2080 H2072 0.950 . S
C2080 C2081 1.386 . S
C2080 C2082 1.391 . S
C2081 C2080 1.386 . S
C2081 C2085 1.393 . S
C2082 H2074 0.950 . S
C2082 C2080 1.391 . S
C2082 C2083 1.400 . S
C2083 C2082 1.400 . S
C2083 C2084 1.398 . S
C2083 C2089 1.491 . S
C2084 H2075 0.950 . S
C2084 C2083 1.398 . S
C2084 C2085 1.391 . S
C2085 H2073 0.950 . S
C2085 C2081 1.393 . S
C2085 C2084 1.391 . S
C2086 H2076 0.950 . S
C2086 C2087 1.386 . S
C2086 C2088 1.391 . S
C2087 C2086 1.386 . S
C2087 C2091 1.393 . S
C2088 H2077 0.950 . S
C2088 C2086 1.391 . S
C2088 C2089 1.400 . S
C2089 C2083 1.491 . S
C2089 C2088 1.400 . S
C2089 C2090 1.398 . S
C2090 H2078 0.950 . S
C2090 C2089 1.398 . S
C2090 C2091 1.391 . S
C2091 H2079 0.950 . S
C2091 C2087 1.393 . S
C2091 C2090 1.391 . S
H2092 C2100 0.950 . S
H2093 C2105 0.950 . S
H2094 C2102 0.950 . S
H2095 C2104 0.950 . S
H2096 C2106 0.950 . S
H2097 C2108 0.950 . S
H2098 C2110 0.950 . S
H2099 C2111 0.950 . S
C2100 H2092 0.950 . S
C2100 C2101 1.386 . S
C2100 C2102 1.391 . S
C2101 C2100 1.386 . S
C2101 C2105 1.393 . S
C2102 H2094 0.950 . S
C2102 C2100 1.391 . S
C2102 C2103 1.400 . S
C2103 C2102 1.400 . S
C2103 C2104 1.398 . S
C2103 C2109 1.491 . S
C2104 H2095 0.950 . S
C2104 C2103 1.398 . S
C2104 C2105 1.391 . S
C2105 H2093 0.950 . S
C2105 C2101 1.393 . S
C2105 C2104 1.391 . S
C2106 H2096 0.950 . S
C2106 C2107 1.386 . S
C2106 C2108 1.391 . S
C2107 C2106 1.386 . S
C2107 C2111 1.393 . S
C2108 H2097 0.950 . S
C2108 C2106 1.391 . S
C2108 C2109 1.400 . S
C2109 C2103 1.491 . S
C2109 C2108 1.400 . S
C2109 C2110 1.398 . S
C2110 H2098 0.950 . S
C2110 C2109 1.398 . S
C2110 C2111 1.391 . S
C2111 H2099 0.950 . S
C2111 C2107 1.393 . S
C2111 C2110 1.391 . S
H2112 C2120 0.950 . S
H2113 C2125 0.950 . S
H2114 C2122 0.950 . S
H2115 C2124 0.950 . S
H2116 C2126 0.950 . S
H2117 C2128 0.950 . S
H2118 C2130 0.950 . S
H2119 C2131 0.950 . S
C2120 H2112 0.950 . S
C2120 C2121 1.386 . S
C2120 C2122 1.391 . S
C2121 C2120 1.386 . S
C2121 C2125 1.393 . S
C2122 H2114 0.950 . S
C2122 C2120 1.391 . S
C2122 C2123 1.400 . S
C2123 C2122 1.400 . S
C2123 C2124 1.398 . S
C2123 C2129 1.491 . S
C2124 H2115 0.950 . S
C2124 C2123 1.398 . S
C2124 C2125 1.391 . S
C2125 H2113 0.950 . S
C2125 C2121 1.393 . S
C2125 C2124 1.391 . S
C2126 H2116 0.950 . S
C2126 C2127 1.386 . S
C2126 C2128 1.391 . S
C2127 C2126 1.386 . S
C2127 C2131 1.393 . S
C2128 H2117 0.950 . S
C2128 C2126 1.391 . S
C2128 C2129 1.400 . S
C2129 C2123 1.491 . S
C2129 C2128 1.400 . S
C2129 C2130 1.398 . S
C2130 H2118 0.950 . S
C2130 C2129 1.398 . S
C2130 C2131 1.391 . S
C2131 H2119 0.950 . S
C2131 C2127 1.393 . S
C2131 C2130 1.391 . S
H2132 C2140 0.950 . S
H2133 C2145 0.950 . S
H2134 C2142 0.950 . S
H2135 C2144 0.950 . S
H2136 C2146 0.950 . S
H2137 C2148 0.950 . S
H2138 C2150 0.950 . S
H2139 C2151 0.950 . S
C2140 H2132 0.950 . S
C2140 C2141 1.386 . S
C2140 C2142 1.391 . S
C2141 C2140 1.386 . S
C2141 C2145 1.393 . S
C2142 H2134 0.950 . S
C2142 C2140 1.391 . S
C2142 C2143 1.400 . S
C2143 C2142 1.400 . S
C2143 C2144 1.398 . S
C2143 C2149 1.491 . S
C2144 H2135 0.950 . S
C2144 C2143 1.398 . S
C2144 C2145 1.391 . S
C2145 H2133 0.950 . S
C2145 C2141 1.393 . S
C2145 C2144 1.391 . S
C2146 H2136 0.950 . S
C2146 C2147 1.386 . S
C2146 C2148 1.391 . S
C2147 C2146 1.386 . S
C2147 C2151 1.393 . S
C2148 H2137 0.950 . S
C2148 C2146 1.391 . S
C2148 C2149 1.400 . S
C2149 C2143 1.491 . S
C2149 C2148 1.400 . S
C2149 C2150 1.398 . S
C2150 H2138 0.950 . S
C2150 C2149 1.398 . S
C2150 C2151 1.391 . S
C2151 H2139 0.950 . S
C2151 C2147 1.393 . S
C2151 C2150 1.391 . S
H2152 C2160 0.950 . S
H2153 C2165 0.950 . S
H2154 C2162 0.950 . S
H2155 C2164 0.950 . S
H2156 C2166 0.950 . S
H2157 C2168 0.950 . S
H2158 C2170 0.950 . S
H2159 C2171 0.950 . S
C2160 H2152 0.950 . S
C2160 C2161 1.386 . S
C2160 C2162 1.391 . S
C2161 C2160 1.386 . S
C2161 C2165 1.393 1_455 S
C2162 H2154 0.950 . S
C2162 C2160 1.391 . S
C2162 C2163 1.400 . S
C2163 C2162 1.400 . S
C2163 C2164 1.398 1_455 S
C2163 C2169 1.491 . S
C2164 H2155 0.950 . S
C2164 C2163 1.398 1_655 S
C2164 C2165 1.391 . S
C2165 H2153 0.950 . S
C2165 C2161 1.393 1_655 S
C2165 C2164 1.391 . S
C2166 H2156 0.950 . S
C2166 C2167 1.386 . S
C2166 C2168 1.391 . S
C2167 C2166 1.386 . S
C2167 C2171 1.393 1_655 S
C2168 H2157 0.950 . S
C2168 C2166 1.391 . S
C2168 C2169 1.397 1_655 S
C2169 C2163 1.491 . S
C2169 C2168 1.397 1_455 S
C2169 C2170 1.401 . S
C2170 H2158 0.950 . S
C2170 C2169 1.401 . S
C2170 C2171 1.391 . S
C2171 H2159 0.950 . S
C2171 C2167 1.393 1_455 S
C2171 C2170 1.391 . S
H2172 C2180 0.950 . S
H2173 C2185 0.950 . S
H2174 C2182 0.950 . S
H2175 C2184 0.950 . S
H2176 C2186 0.950 . S
H2177 C2188 0.950 . S
H2178 C2190 0.950 . S
H2179 C2191 0.950 . S
C2180 H2172 0.950 . S
C2180 C2181 1.386 . S
C2180 C2182 1.391 . S
C2181 C2180 1.386 . S
C2181 C2185 1.393 . S
C2182 H2174 0.950 . S
C2182 C2180 1.391 . S
C2182 C2183 1.400 . S
C2183 C2182 1.400 . S
C2183 C2184 1.398 . S
C2183 C2189 1.491 . S
C2184 H2175 0.950 . S
C2184 C2183 1.398 . S
C2184 C2185 1.391 . S
C2185 H2173 0.950 . S
C2185 C2181 1.393 . S
C2185 C2184 1.391 . S
C2186 H2176 0.950 . S
C2186 C2187 1.386 . S
C2186 C2188 1.391 . S
C2187 C2186 1.386 . S
C2187 C2191 1.393 . S
C2188 H2177 0.950 . S
C2188 C2186 1.391 . S
C2188 C2189 1.400 . S
C2189 C2183 1.491 . S
C2189 C2188 1.400 . S
C2189 C2190 1.398 . S
C2190 H2178 0.950 . S
C2190 C2189 1.398 . S
C2190 C2191 1.391 . S
C2191 H2179 0.950 . S
C2191 C2187 1.393 . S
C2191 C2190 1.391 . S
H2192 C2200 0.950 . S
H2193 C2205 0.950 . S
H2194 C2202 0.950 . S
H2195 C2204 0.950 . S
H2196 C2206 0.950 . S
H2197 C2208 0.950 . S
H2198 C2210 0.950 . S
H2199 C2211 0.950 . S
C2200 H2192 0.950 . S
C2200 C2201 1.386 . S
C2200 C2202 1.391 . S
C2201 C2200 1.386 . S
C2201 C2205 1.393 . S
C2202 H2194 0.950 . S
C2202 C2200 1.391 . S
C2202 C2203 1.400 . S
C2203 C2202 1.400 . S
C2203 C2204 1.398 . S
C2203 C2209 1.491 . S
C2204 H2195 0.950 . S
C2204 C2203 1.398 . S
C2204 C2205 1.391 . S
C2205 H2193 0.950 . S
C2205 C2201 1.393 . S
C2205 C2204 1.391 . S
C2206 H2196 0.950 . S
C2206 C2207 1.386 . S
C2206 C2208 1.391 . S
C2207 C2206 1.386 . S
C2207 C2211 1.393 . S
C2208 H2197 0.950 . S
C2208 C2206 1.391 . S
C2208 C2209 1.400 . S
C2209 C2203 1.491 . S
C2209 C2208 1.400 . S
C2209 C2210 1.398 . S
C2210 H2198 0.950 . S
C2210 C2209 1.398 . S
C2210 C2211 1.391 . S
C2211 H2199 0.950 . S
C2211 C2207 1.393 . S
C2211 C2210 1.391 . S
H2212 C2220 0.950 . S
H2213 C2225 0.950 . S
H2214 C2222 0.950 . S
H2215 C2224 0.950 . S
H2216 C2226 0.950 . S
H2217 C2228 0.950 . S
H2218 C2230 0.950 . S
H2219 C2231 0.950 . S
C2220 H2212 0.950 . S
C2220 C2221 1.386 . S
C2220 C2222 1.391 . S
C2221 C2220 1.386 . S
C2221 C2225 1.393 . S
C2222 H2214 0.950 . S
C2222 C2220 1.391 . S
C2222 C2223 1.400 . S
C2223 C2222 1.400 . S
C2223 C2224 1.398 . S
C2223 C2229 1.491 . S
C2224 H2215 0.950 . S
C2224 C2223 1.398 . S
C2224 C2225 1.391 . S
C2225 H2213 0.950 . S
C2225 C2221 1.393 . S
C2225 C2224 1.391 . S
C2226 H2216 0.950 . S
C2226 C2227 1.386 . S
C2226 C2228 1.391 . S
C2227 C2226 1.386 . S
C2227 C2231 1.393 . S
C2228 H2217 0.950 . S
C2228 C2226 1.391 . S
C2228 C2229 1.400 . S
C2229 C2223 1.491 . S
C2229 C2228 1.400 . S
C2229 C2230 1.398 . S
C2230 H2218 0.950 . S
C2230 C2229 1.398 . S
C2230 C2231 1.391 . S
C2231 H2219 0.950 . S
C2231 C2227 1.393 . S
C2231 C2230 1.391 . S
H2232 C2240 0.950 . S
H2233 C2245 0.950 . S
H2234 C2242 0.950 . S
H2235 C2244 0.950 . S
H2236 C2246 0.950 . S
H2237 C2248 0.950 . S
H2238 C2250 0.950 . S
H2239 C2251 0.950 . S
C2240 H2232 0.950 . S
C2240 C2241 1.386 1_655 S
C2240 C2242 1.391 . S
C2241 C2240 1.386 1_455 S
C2241 C2245 1.393 . S
C2242 H2234 0.950 . S
C2242 C2240 1.391 . S
C2242 C2243 1.400 1_655 S
C2243 C2242 1.400 1_455 S
C2243 C2244 1.398 . S
C2243 C2249 1.489 1_455 S
C2244 H2235 0.950 . S
C2244 C2243 1.398 . S
C2244 C2245 1.391 . S
C2245 H2233 0.950 . S
C2245 C2241 1.393 . S
C2245 C2244 1.391 . S
C2246 H2236 0.950 . S
C2246 C2247 1.386 1_455 S
C2246 C2248 1.391 . S
C2247 C2246 1.386 1_655 S
C2247 C2251 1.393 . S
C2248 H2237 0.950 . S
C2248 C2246 1.391 . S
C2248 C2249 1.385 1_455 S
C2249 C2243 1.489 1_655 S
C2249 C2248 1.385 1_655 S
C2249 C2250 1.416 . S
C2250 H2238 0.950 . S
C2250 C2249 1.416 . S
C2250 C2251 1.391 . S
C2251 H2239 0.950 . S
C2251 C2247 1.393 . S
C2251 C2250 1.391 . S
H2252 C2260 0.950 . S
H2253 C2265 0.950 . S
H2254 C2262 0.950 . S
H2255 C2264 0.950 . S
H2256 C2266 0.950 . S
H2257 C2268 0.950 . S
H2258 C2270 0.950 . S
H2259 C2271 0.950 . S
C2260 H2252 0.950 . S
C2260 C2261 1.386 . S
C2260 C2262 1.391 . S
C2261 C2260 1.386 . S
C2261 C2265 1.393 . S
C2262 H2254 0.950 . S
C2262 C2260 1.391 . S
C2262 C2263 1.400 . S
C2263 C2262 1.400 . S
C2263 C2264 1.398 . S
C2263 C2269 1.491 . S
C2264 H2255 0.950 . S
C2264 C2263 1.398 . S
C2264 C2265 1.391 . S
C2265 H2253 0.950 . S
C2265 C2261 1.393 . S
C2265 C2264 1.391 . S
C2266 H2256 0.950 . S
C2266 C2267 1.386 . S
C2266 C2268 1.391 . S
C2267 C2266 1.386 . S
C2267 C2271 1.393 . S
C2268 H2257 0.950 . S
C2268 C2266 1.391 . S
C2268 C2269 1.400 . S
C2269 C2263 1.491 . S
C2269 C2268 1.400 . S
C2269 C2270 1.398 . S
C2270 H2258 0.950 . S
C2270 C2269 1.398 . S
C2270 C2271 1.391 . S
C2271 H2259 0.950 . S
C2271 C2267 1.393 . S
C2271 C2270 1.391 . S
H2272 C2280 0.950 . S
H2273 C2285 0.950 . S
H2274 C2282 0.950 . S
H2275 C2284 0.950 . S
H2276 C2286 0.950 . S
H2277 C2288 0.950 . S
H2278 C2290 0.950 . S
H2279 C2291 0.950 . S
C2280 H2272 0.950 . S
C2280 C2281 1.386 . S
C2280 C2282 1.391 . S
C2281 C2280 1.386 . S
C2281 C2285 1.393 . S
C2282 H2274 0.950 . S
C2282 C2280 1.391 . S
C2282 C2283 1.400 . S
C2283 C2282 1.400 . S
C2283 C2284 1.398 . S
C2283 C2289 1.491 . S
C2284 H2275 0.950 . S
C2284 C2283 1.398 . S
C2284 C2285 1.391 . S
C2285 H2273 0.950 . S
C2285 C2281 1.393 . S
C2285 C2284 1.391 . S
C2286 H2276 0.950 . S
C2286 C2287 1.386 . S
C2286 C2288 1.391 . S
C2287 C2286 1.386 . S
C2287 C2291 1.393 . S
C2288 H2277 0.950 . S
C2288 C2286 1.391 . S
C2288 C2289 1.400 . S
C2289 C2283 1.491 . S
C2289 C2288 1.400 . S
C2289 C2290 1.398 . S
C2290 H2278 0.950 . S
C2290 C2289 1.398 . S
C2290 C2291 1.391 . S
C2291 H2279 0.950 . S
C2291 C2287 1.393 . S
C2291 C2290 1.391 . S
H2292 C2300 0.950 . S
H2293 C2305 0.950 . S
H2294 C2302 0.950 . S
H2295 C2304 0.950 . S
H2296 C2306 0.950 . S
H2297 C2308 0.950 . S
H2298 C2310 0.950 . S
H2299 C2311 0.950 . S
C2300 H2292 0.950 . S
C2300 C2301 1.386 . S
C2300 C2302 1.391 . S
C2301 C2300 1.386 . S
C2301 C2305 1.393 . S
C2302 H2294 0.950 . S
C2302 C2300 1.391 . S
C2302 C2303 1.400 . S
C2303 C2302 1.400 . S
C2303 C2304 1.398 . S
C2303 C2309 1.491 . S
C2304 H2295 0.950 . S
C2304 C2303 1.398 . S
C2304 C2305 1.391 . S
C2305 H2293 0.950 . S
C2305 C2301 1.393 . S
C2305 C2304 1.391 . S
C2306 H2296 0.950 . S
C2306 C2307 1.386 . S
C2306 C2308 1.391 . S
C2307 C2306 1.386 . S
C2307 C2311 1.393 . S
C2308 H2297 0.950 . S
C2308 C2306 1.391 . S
C2308 C2309 1.400 . S
C2309 C2303 1.491 . S
C2309 C2308 1.400 . S
C2309 C2310 1.398 . S
C2310 H2298 0.950 . S
C2310 C2309 1.398 . S
C2310 C2311 1.391 . S
C2311 H2299 0.950 . S
C2311 C2307 1.393 . S
C2311 C2310 1.391 . S
H2312 C2320 0.950 . S
H2313 C2325 0.950 . S
H2314 C2322 0.950 . S
H2315 C2324 0.950 . S
H2316 C2326 0.950 . S
H2317 C2328 0.950 . S
H2318 C2330 0.950 . S
H2319 C2331 0.950 . S
C2320 H2312 0.950 . S
C2320 C2321 1.386 . S
C2320 C2322 1.391 . S
C2321 C2320 1.386 . S
C2321 C2325 1.393 . S
C2322 H2314 0.950 . S
C2322 C2320 1.391 . S
C2322 C2323 1.400 . S
C2323 C2322 1.400 . S
C2323 C2324 1.398 . S
C2323 C2329 1.491 . S
C2324 H2315 0.950 . S
C2324 C2323 1.398 . S
C2324 C2325 1.391 . S
C2325 H2313 0.950 . S
C2325 C2321 1.393 . S
C2325 C2324 1.391 . S
C2326 H2316 0.950 . S
C2326 C2327 1.386 . S
C2326 C2328 1.391 . S
C2327 C2326 1.386 . S
C2327 C2331 1.393 . S
C2328 H2317 0.950 . S
C2328 C2326 1.391 . S
C2328 C2329 1.400 . S
C2329 C2323 1.491 . S
C2329 C2328 1.400 . S
C2329 C2330 1.398 . S
C2330 H2318 0.950 . S
C2330 C2329 1.398 . S
C2330 C2331 1.391 . S
C2331 H2319 0.950 . S
C2331 C2327 1.393 . S
C2331 C2330 1.391 . S
H2332 C2340 0.950 . S
H2333 C2345 0.950 . S
H2334 C2342 0.950 . S
H2335 C2344 0.950 . S
H2336 C2346 0.950 . S
H2337 C2348 0.950 . S
H2338 C2350 0.950 . S
H2339 C2351 0.950 . S
C2340 H2332 0.950 . S
C2340 C2341 1.386 . S
C2340 C2342 1.391 . S
C2341 C2340 1.386 . S
C2341 C2345 1.393 . S
C2342 H2334 0.950 . S
C2342 C2340 1.391 . S
C2342 C2343 1.400 . S
C2343 C2342 1.400 . S
C2343 C2344 1.398 . S
C2343 C2349 1.491 . S
C2344 H2335 0.950 . S
C2344 C2343 1.398 . S
C2344 C2345 1.391 . S
C2345 H2333 0.950 . S
C2345 C2341 1.393 . S
C2345 C2344 1.391 . S
C2346 H2336 0.950 . S
C2346 C2347 1.386 . S
C2346 C2348 1.391 . S
C2347 C2346 1.386 . S
C2347 C2351 1.393 . S
C2348 H2337 0.950 . S
C2348 C2346 1.391 . S
C2348 C2349 1.400 . S
C2349 C2343 1.491 . S
C2349 C2348 1.400 . S
C2349 C2350 1.398 . S
C2350 H2338 0.950 . S
C2350 C2349 1.398 . S
C2350 C2351 1.391 . S
C2351 H2339 0.950 . S
C2351 C2347 1.393 . S
C2351 C2350 1.391 . S
H2352 C2360 0.950 . S
H2353 C2365 0.950 . S
H2354 C2362 0.950 . S
H2355 C2364 0.950 . S
H2356 C2366 0.950 . S
H2357 C2368 0.950 . S
H2358 C2370 0.950 . S
H2359 C2371 0.950 . S
C2360 H2352 0.950 . S
C2360 C2361 1.386 . S
C2360 C2362 1.391 . S
C2361 C2360 1.386 . S
C2361 C2365 1.393 . S
C2362 H2354 0.950 . S
C2362 C2360 1.391 . S
C2362 C2363 1.400 . S
C2363 C2362 1.400 . S
C2363 C2364 1.398 . S
C2363 C2369 1.491 . S
C2364 H2355 0.950 . S
C2364 C2363 1.398 . S
C2364 C2365 1.391 . S
C2365 H2353 0.950 . S
C2365 C2361 1.393 . S
C2365 C2364 1.391 . S
C2366 H2356 0.950 . S
C2366 C2367 1.386 . S
C2366 C2368 1.391 . S
C2367 C2366 1.386 . S
C2367 C2371 1.393 . S
C2368 H2357 0.950 . S
C2368 C2366 1.391 . S
C2368 C2369 1.400 . S
C2369 C2363 1.491 . S
C2369 C2368 1.400 . S
C2369 C2370 1.398 . S
C2370 H2358 0.950 . S
C2370 C2369 1.398 . S
C2370 C2371 1.391 . S
C2371 H2359 0.950 . S
C2371 C2367 1.393 . S
C2371 C2370 1.391 . S
H2372 C2380 0.950 . S
H2373 C2385 0.950 . S
H2374 C2382 0.950 . S
H2375 C2384 0.950 . S
H2376 C2386 0.950 . S
H2377 C2388 0.950 . S
H2378 C2390 0.950 . S
H2379 C2391 0.950 . S
C2380 H2372 0.950 . S
C2380 C2381 1.386 . S
C2380 C2382 1.391 . S
C2381 C2380 1.386 . S
C2381 C2385 1.393 . S
C2382 H2374 0.950 . S
C2382 C2380 1.391 . S
C2382 C2383 1.400 . S
C2383 C2382 1.400 . S
C2383 C2384 1.398 . S
C2383 C2389 1.491 . S
C2384 H2375 0.950 . S
C2384 C2383 1.398 . S
C2384 C2385 1.391 . S
C2385 H2373 0.950 . S
C2385 C2381 1.393 . S
C2385 C2384 1.391 . S
C2386 H2376 0.950 . S
C2386 C2387 1.386 . S
C2386 C2388 1.391 . S
C2387 C2386 1.386 . S
C2387 C2391 1.393 . S
C2388 H2377 0.950 . S
C2388 C2386 1.391 . S
C2388 C2389 1.400 . S
C2389 C2383 1.491 . S
C2389 C2388 1.400 . S
C2389 C2390 1.398 . S
C2390 H2378 0.950 . S
C2390 C2389 1.398 . S
C2390 C2391 1.391 . S
C2391 H2379 0.950 . S
C2391 C2387 1.393 . S
C2391 C2390 1.391 . S
H2392 C2400 0.950 . S
H2393 C2405 0.950 . S
H2394 C2402 0.950 . S
H2395 C2404 0.950 . S
H2396 C2406 0.950 . S
H2397 C2408 0.950 . S
H2398 C2410 0.950 . S
H2399 C2411 0.950 . S
C2400 H2392 0.950 . S
C2400 C2401 1.386 . S
C2400 C2402 1.391 . S
C2401 C2400 1.386 . S
C2401 C2405 1.393 . S
C2402 H2394 0.950 . S
C2402 C2400 1.391 . S
C2402 C2403 1.400 . S
C2403 C2402 1.400 . S
C2403 C2404 1.398 . S
C2403 C2409 1.491 . S
C2404 H2395 0.950 . S
C2404 C2403 1.398 . S
C2404 C2405 1.391 . S
C2405 H2393 0.950 . S
C2405 C2401 1.393 . S
C2405 C2404 1.391 . S
C2406 H2396 0.950 . S
C2406 C2407 1.386 . S
C2406 C2408 1.391 . S
C2407 C2406 1.386 . S
C2407 C2411 1.393 . S
C2408 H2397 0.950 . S
C2408 C2406 1.391 . S
C2408 C2409 1.400 . S
C2409 C2403 1.491 . S
C2409 C2408 1.400 . S
C2409 C2410 1.398 . S
C2410 H2398 0.950 . S
C2410 C2409 1.398 . S
C2410 C2411 1.391 . S
C2411 H2399 0.950 . S
C2411 C2407 1.393 . S
C2411 C2410 1.391 . S
H2412 C2420 0.950 . S
H2413 C2425 0.950 . S
H2414 C2422 0.950 . S
H2415 C2424 0.950 . S
H2416 C2426 0.950 . S
H2417 C2428 0.950 . S
H2418 C2430 0.950 . S
H2419 C2431 0.950 . S
C2420 H2412 0.950 . S
C2420 C2421 1.386 . S
C2420 C2422 1.391 . S
C2421 C2420 1.386 . S
C2421 C2425 1.393 . S
C2422 H2414 0.950 . S
C2422 C2420 1.391 . S
C2422 C2423 1.400 . S
C2423 C2422 1.400 . S
C2423 C2424 1.398 . S
C2423 C2429 1.491 . S
C2424 H2415 0.950 . S
C2424 C2423 1.398 . S
C2424 C2425 1.391 . S
C2425 H2413 0.950 . S
C2425 C2421 1.393 . S
C2425 C2424 1.391 . S
C2426 H2416 0.950 . S
C2426 C2427 1.386 . S
C2426 C2428 1.391 . S
C2427 C2426 1.386 . S
C2427 C2431 1.393 . S
C2428 H2417 0.950 . S
C2428 C2426 1.391 . S
C2428 C2429 1.400 . S
C2429 C2423 1.491 . S
C2429 C2428 1.400 . S
C2429 C2430 1.398 . S
C2430 H2418 0.950 . S
C2430 C2429 1.398 . S
C2430 C2431 1.391 . S
C2431 H2419 0.950 . S
C2431 C2427 1.393 . S
C2431 C2430 1.391 . S
H2432 C2440 0.950 . S
H2433 C2445 0.950 . S
H2434 C2442 0.950 . S
H2435 C2444 0.950 . S
H2436 C2446 0.950 . S
H2437 C2448 0.950 . S
H2438 C2450 0.950 . S
H2439 C2451 0.950 . S
C2440 H2432 0.950 . S
C2440 C2441 1.386 . S
C2440 C2442 1.391 . S
C2441 C2440 1.386 . S
C2441 C2445 1.393 . S
C2442 H2434 0.950 . S
C2442 C2440 1.391 . S
C2442 C2443 1.400 . S
C2443 C2442 1.400 . S
C2443 C2444 1.398 . S
C2443 C2449 1.491 . S
C2444 H2435 0.950 . S
C2444 C2443 1.398 . S
C2444 C2445 1.391 . S
C2445 H2433 0.950 . S
C2445 C2441 1.393 . S
C2445 C2444 1.391 . S
C2446 H2436 0.950 . S
C2446 C2447 1.386 . S
C2446 C2448 1.391 . S
C2447 C2446 1.386 . S
C2447 C2451 1.393 . S
C2448 H2437 0.950 . S
C2448 C2446 1.391 . S
C2448 C2449 1.400 . S
C2449 C2443 1.491 . S
C2449 C2448 1.400 . S
C2449 C2450 1.398 . S
C2450 H2438 0.950 . S
C2450 C2449 1.398 . S
C2450 C2451 1.391 . S
C2451 H2439 0.950 . S
C2451 C2447 1.393 . S
C2451 C2450 1.391 . S
H2452 C2460 0.950 . S
H2453 C2465 0.950 . S
H2454 C2462 0.950 . S
H2455 C2464 0.950 . S
H2456 C2466 0.950 . S
H2457 C2468 0.950 . S
H2458 C2470 0.950 . S
H2459 C2471 0.950 . S
C2460 H2452 0.950 . S
C2460 C2461 1.386 . S
C2460 C2462 1.391 . S
C2461 C2460 1.386 . S
C2461 C2465 1.393 . S
C2462 H2454 0.950 . S
C2462 C2460 1.391 . S
C2462 C2463 1.400 . S
C2463 C2462 1.400 . S
C2463 C2464 1.398 . S
C2463 C2469 1.491 . S
C2464 H2455 0.950 . S
C2464 C2463 1.398 . S
C2464 C2465 1.391 . S
C2465 H2453 0.950 . S
C2465 C2461 1.393 . S
C2465 C2464 1.391 . S
C2466 H2456 0.950 . S
C2466 C2467 1.386 . S
C2466 C2468 1.391 . S
C2467 C2466 1.386 . S
C2467 C2471 1.393 . S
C2468 H2457 0.950 . S
C2468 C2466 1.391 . S
C2468 C2469 1.400 . S
C2469 C2463 1.491 . S
C2469 C2468 1.400 . S
C2469 C2470 1.398 . S
C2470 H2458 0.950 . S
C2470 C2469 1.398 . S
C2470 C2471 1.391 . S
C2471 H2459 0.950 . S
C2471 C2467 1.393 . S
C2471 C2470 1.391 . S
H2472 C2480 0.950 . S
H2473 C2485 0.950 . S
H2474 C2482 0.950 . S
H2475 C2484 0.950 . S
H2476 C2486 0.950 . S
H2477 C2488 0.950 . S
H2478 C2490 0.950 . S
H2479 C2491 0.950 . S
C2480 H2472 0.950 . S
C2480 C2481 1.386 . S
C2480 C2482 1.391 . S
C2481 C2480 1.386 . S
C2481 C2485 1.393 . S
C2482 H2474 0.950 . S
C2482 C2480 1.391 . S
C2482 C2483 1.400 . S
C2483 C2482 1.400 . S
C2483 C2484 1.398 . S
C2483 C2489 1.491 . S
C2484 H2475 0.950 . S
C2484 C2483 1.398 . S
C2484 C2485 1.391 . S
C2485 H2473 0.950 . S
C2485 C2481 1.393 . S
C2485 C2484 1.391 . S
C2486 H2476 0.950 . S
C2486 C2487 1.386 . S
C2486 C2488 1.391 . S
C2487 C2486 1.386 . S
C2487 C2491 1.393 . S
C2488 H2477 0.950 . S
C2488 C2486 1.391 . S
C2488 C2489 1.400 . S
C2489 C2483 1.491 . S
C2489 C2488 1.400 . S
C2489 C2490 1.398 . S
C2490 H2478 0.950 . S
C2490 C2489 1.398 . S
C2490 C2491 1.391 . S
C2491 H2479 0.950 . S
C2491 C2487 1.393 . S
C2491 C2490 1.391 . S
H2492 C2500 0.950 . S
H2493 C2505 0.950 . S
H2494 C2502 0.950 . S
H2495 C2504 0.950 . S
H2496 C2506 0.950 . S
H2497 C2508 0.950 . S
H2498 C2510 0.950 . S
H2499 C2511 0.950 . S
C2500 H2492 0.950 . S
C2500 C2501 1.386 . S
C2500 C2502 1.391 . S
C2501 C2500 1.386 . S
C2501 C2505 1.393 1_554 S
C2502 H2494 0.950 . S
C2502 C2500 1.391 . S
C2502 C2503 1.400 . S
C2503 C2502 1.400 . S
C2503 C2504 1.398 1_554 S
C2503 C2509 1.487 1_554 S
C2504 H2495 0.950 . S
C2504 C2503 1.398 1_556 S
C2504 C2505 1.391 . S
C2505 H2493 0.950 . S
C2505 C2501 1.393 1_556 S
C2505 C2504 1.391 . S
C2506 H2496 0.950 . S
C2506 C2507 1.386 . S
C2506 C2508 1.391 . S
C2507 C2506 1.386 . S
C2507 C2511 1.393 1_556 S
C2508 H2497 0.950 . S
C2508 C2506 1.391 . S
C2508 C2509 1.442 . S
C2509 C2503 1.487 1_556 S
C2509 C2508 1.442 . S
C2509 C2510 1.362 1_556 S
C2510 H2498 0.950 . S
C2510 C2509 1.362 1_554 S
C2510 C2511 1.391 . S
C2511 H2499 0.950 . S
C2511 C2507 1.393 1_554 S
C2511 C2510 1.391 . S
H2512 C2520 0.950 . S
H2513 C2525 0.950 . S
H2514 C2522 0.950 . S
H2515 C2524 0.950 . S
H2516 C2526 0.950 . S
H2517 C2528 0.950 . S
H2518 C2530 0.950 . S
H2519 C2531 0.950 . S
C2520 H2512 0.950 . S
C2520 C2521 1.386 . S
C2520 C2522 1.391 . S
C2521 C2520 1.386 . S
C2521 C2525 1.393 . S
C2522 H2514 0.950 . S
C2522 C2520 1.391 . S
C2522 C2523 1.400 . S
C2523 C2522 1.400 . S
C2523 C2524 1.398 . S
C2523 C2529 1.491 . S
C2524 H2515 0.950 . S
C2524 C2523 1.398 . S
C2524 C2525 1.391 . S
C2525 H2513 0.950 . S
C2525 C2521 1.393 . S
C2525 C2524 1.391 . S
C2526 H2516 0.950 . S
C2526 C2527 1.386 . S
C2526 C2528 1.391 . S
C2527 C2526 1.386 . S
C2527 C2531 1.393 . S
C2528 H2517 0.950 . S
C2528 C2526 1.391 . S
C2528 C2529 1.400 . S
C2529 C2523 1.491 . S
C2529 C2528 1.400 . S
C2529 C2530 1.398 . S
C2530 H2518 0.950 . S
C2530 C2529 1.398 . S
C2530 C2531 1.391 . S
C2531 H2519 0.950 . S
C2531 C2527 1.393 . S
C2531 C2530 1.391 . S
H2532 C2540 0.950 . S
H2533 C2545 0.950 . S
H2534 C2542 0.950 . S
H2535 C2544 0.950 . S
H2536 C2546 0.950 . S
H2537 C2548 0.950 . S
H2538 C2550 0.950 . S
H2539 C2551 0.950 . S
C2540 H2532 0.950 . S
C2540 C2541 1.386 1_556 S
C2540 C2542 1.391 . S
C2541 C2540 1.386 1_554 S
C2541 C2545 1.393 . S
C2542 H2534 0.950 . S
C2542 C2540 1.391 . S
C2542 C2543 1.400 1_556 S
C2543 C2542 1.400 1_554 S
C2543 C2544 1.398 . S
C2543 C2549 1.491 . S
C2544 H2535 0.950 . S
C2544 C2543 1.398 . S
C2544 C2545 1.391 . S
C2545 H2533 0.950 . S
C2545 C2541 1.393 . S
C2545 C2544 1.391 . S
C2546 H2536 0.950 . S
C2546 C2547 1.386 . S
C2546 C2548 1.391 . S
C2547 C2546 1.386 . S
C2547 C2551 1.393 1_554 S
C2548 H2537 0.950 . S
C2548 C2546 1.391 . S
C2548 C2549 1.400 . S
C2549 C2543 1.491 . S
C2549 C2548 1.400 . S
C2549 C2550 1.398 1_554 S
C2550 H2538 0.950 . S
C2550 C2549 1.398 1_556 S
C2550 C2551 1.391 . S
C2551 H2539 0.950 . S
C2551 C2547 1.393 1_556 S
C2551 C2550 1.391 . S
H2552 C2560 0.950 . S
H2553 C2565 0.950 . S
H2554 C2562 0.950 . S
H2555 C2564 0.950 . S
H2556 C2566 0.950 . S
H2557 C2568 0.950 . S
H2558 C2570 0.950 . S
H2559 C2571 0.950 . S
C2560 H2552 0.950 . S
C2560 C2561 1.386 . S
C2560 C2562 1.391 . S
C2561 C2560 1.386 . S
C2561 C2565 1.393 . S
C2562 H2554 0.950 . S
C2562 C2560 1.391 . S
C2562 C2563 1.400 . S
C2563 C2562 1.400 . S
C2563 C2564 1.398 . S
C2563 C2569 1.491 . S
C2564 H2555 0.950 . S
C2564 C2563 1.398 . S
C2564 C2565 1.391 . S
C2565 H2553 0.950 . S
C2565 C2561 1.393 . S
C2565 C2564 1.391 . S
C2566 H2556 0.950 . S
C2566 C2567 1.386 . S
C2566 C2568 1.391 . S
C2567 C2566 1.386 . S
C2567 C2571 1.393 . S
C2568 H2557 0.950 . S
C2568 C2566 1.391 . S
C2568 C2569 1.400 . S
C2569 C2563 1.491 . S
C2569 C2568 1.400 . S
C2569 C2570 1.398 . S
C2570 H2558 0.950 . S
C2570 C2569 1.398 . S
C2570 C2571 1.391 . S
C2571 H2559 0.950 . S
C2571 C2567 1.393 . S
C2571 C2570 1.391 . S
H2572 C2580 0.950 . S
H2573 C2585 0.950 . S
H2574 C2582 0.950 . S
H2575 C2584 0.950 . S
H2576 C2586 0.950 . S
H2577 C2588 0.950 . S
H2578 C2590 0.950 . S
H2579 C2591 0.950 . S
C2580 H2572 0.950 . S
C2580 C2581 1.386 . S
C2580 C2582 1.391 . S
C2581 C2580 1.386 . S
C2581 C2585 1.393 . S
C2582 H2574 0.950 . S
C2582 C2580 1.391 . S
C2582 C2583 1.400 . S
C2583 C2582 1.400 . S
C2583 C2584 1.398 . S
C2583 C2589 1.491 . S
C2584 H2575 0.950 . S
C2584 C2583 1.398 . S
C2584 C2585 1.391 . S
C2585 H2573 0.950 . S
C2585 C2581 1.393 . S
C2585 C2584 1.391 . S
C2586 H2576 0.950 . S
C2586 C2587 1.386 . S
C2586 C2588 1.391 . S
C2587 C2586 1.386 . S
C2587 C2591 1.393 . S
C2588 H2577 0.950 . S
C2588 C2586 1.391 . S
C2588 C2589 1.400 . S
C2589 C2583 1.491 . S
C2589 C2588 1.400 . S
C2589 C2590 1.398 . S
C2590 H2578 0.950 . S
C2590 C2589 1.398 . S
C2590 C2591 1.391 . S
C2591 H2579 0.950 . S
C2591 C2587 1.393 . S
C2591 C2590 1.391 . S
C687 C351 1.256 . S
C681 C5 1.364 . S
C701 C23 1.223 . S
C707 C370 1.171 . S
C721 C39 1.310 . S
C727 C393 1.221 . S
C747 C413 1.332 . S
C741 C42 1.350 . S
C761 C19 1.376 . S
C767 C434 1.341 1_455 S
C787 C456 1.282 . S
C781 C28 1.402 . S
C807 C478 1.129 . S
C801 C53 1.173 . S
C821 C9 1.330 . S
C827 C496 1.295 . S
C841 C65 1.359 . S
C847 C352 1.321 . S
C861 C75 1.377 . S
C867 C371 1.336 . S
C887 C394 1.243 . S
C881 C93 1.258 . S
C907 C417 1.251 . S
C901 C109 1.354 . S
C921 C56 1.417 . S
C927 C438 1.333 . S
C947 C457 1.069 . S
C941 C81 1.110 . S
C967 C479 1.370 . S
C961 C84 1.384 . S
C987 C497 1.283 . S
C981 C103 1.314 . S
C1007 C353 1.283 . S
C1001 C107 1.309 . S
C1027 C520 1.178 . S
C1021 C121 1.203 . S
C1041 C131 1.394 . S
C1047 C542 1.362 . S
C1067 C561 1.333 . S
C1061 C140 1.411 . S
C1081 C61 1.377 . S
C1087 C501 1.282 . S
C1107 C395 1.313 . S
C1101 C70 1.348 . S
C1121 C137 1.169 . S
C1127 C583 1.135 . S
C1147 C606 1.193 . S
C1141 C165 1.287 . S
C1161 C173 1.317 . S
C1167 C354 1.224 . S
C1187 C605 1.218 . S
C1181 C182 1.246 . S
C1201 C207 1.360 . S
C1207 C396 1.262 . S
C1221 C219 1.225 . S
C1227 C580 1.176 . S
C1247 C436 1.219 . S
C1241 C187 1.245 . S
C1267 C543 1.245 . S
C1261 C205 1.372 . S
C1287 C476 1.246 . S
C1281 C221 1.265 . S
C1307 C626 1.340 . S
C1301 C168 1.366 . S
C1327 C350 1.370 . S
C1321 C224 1.398 1_545 S
C1341 C243 1.225 . S
C1347 C604 1.179 . S
C1367 C392 1.256 . S
C1361 C252 1.285 . S
C1381 C277 1.280 . S
C1387 C585 1.183 . S
C1401 C233 1.412 1_565 S
C1407 C435 1.291 . S
C1421 C249 1.231 . S
C1427 C539 1.195 . S
C1447 C475 1.207 . S
C1441 C261 1.258 . S
C1461 C271 1.255 . S
C1467 C625 1.209 . S
C1481 C266 1.242 . S
C1487 C349 1.189 . S
C1501 C280 1.300 . S
C1507 C518 1.278 . S
C1521 C299 1.256 . S
C1527 C454 1.203 . S
C1541 C317 1.352 . S
C1547 C564 1.270 . S
C1567 C624 1.202 . S
C1561 C229 1.330 . S
C1587 C391 1.172 . S
C1581 C247 1.223 . S
C1607 C416 1.228 . S
C1601 C305 1.254 . S
C1627 C372 1.244 . S
C1621 C333 1.353 . S
C1641 C33 1.365 . S
C1647 C648 1.235 . S
C1667 C601 1.172 . S
C1661 C51 1.215 . S
C1687 C666 1.224 . S
C1681 C11 1.310 . S
C1701 C14 1.362 . S
C1707 C584 1.331 . S
C1721 C47 1.379 . S
C1727 C521 1.339 . S
C1747 C540 1.288 . S
C1741 C0 1.405 . S
C1767 C562 1.140 . S
C1761 C25 1.181 . S
C1787 C622 1.291 . S
C1781 C37 1.325 . S
C1807 C643 1.307 . S
C1801 C163 1.367 . S
C1821 C117 1.376 . S
C1827 C602 1.339 . S
C1841 C135 1.258 . S
C1847 C667 1.221 . S
C1867 C582 1.277 . S
C1861 C151 1.345 . S
C1887 C519 1.334 . S
C1881 C154 1.417 . S
C1901 C123 1.114 . S
C1907 C541 1.072 . S
C1927 C563 1.364 . S
C1921 C126 1.391 . S
C1941 C145 1.314 . S
C1947 C623 1.273 . S
C1967 C644 1.285 . S
C1961 C149 1.303 . S
C1987 C433 1.166 . S
C1981 C79 1.196 . S
C2007 C458 1.369 . S
C2001 C89 1.393 . S
C2021 C98 1.411 . S
C2027 C477 1.329 . S
C2047 C627 1.280 . S
C2041 C159 1.378 . S
C2061 C112 1.352 . S
C2067 C668 1.313 . S
C2087 C412 1.146 . S
C2081 C95 1.169 . S
C2107 C375 1.196 . S
C2101 C67 1.281 . S
C2121 C201 1.318 . S
C2127 C645 1.212 . S
C2147 C374 1.210 . S
C2141 C210 1.245 . S
C2167 C669 1.283 . S
C2161 C179 1.360 . S
C2181 C191 1.226 . S
C2187 C415 1.205 . S
C2201 C215 1.244 . S
C2207 C517 1.199 . S
C2221 C177 1.376 . S
C2227 C459 1.282 . S
C2241 C193 1.269 . S
C2247 C560 1.243 . S
C2261 C196 1.367 . S
C2267 C500 1.344 . S
C2287 C647 1.365 . S
C2281 C322 1.397 . S
C2301 C285 1.220 . S
C2307 C373 1.194 . S
C2327 C665 1.254 . S
C2321 C294 1.284 . S
C2341 C319 1.271 . S
C2347 C414 1.208 . S
C2361 C331 1.413 . S
C2367 C522 1.303 . S
C2387 C455 1.201 . S
C2381 C291 1.240 . S
C2401 C303 1.260 . S
C2407 C559 1.211 . S
C2427 C499 1.203 . S
C2421 C313 1.254 . S
C2447 C646 1.218 . S
C2441 C308 1.232 . S
C2467 C437 1.275 . S
C2461 C238 1.299 . S
C2481 C257 1.258 . S
C2487 C538 1.206 . S
C2507 C480 1.263 . S
C2501 C275 1.354 . S
C2527 C498 1.218 . S
C2521 C327 1.329 . S
C2541 C289 1.223 1_554 S
C2547 C664 1.195 . S
C2567 C581 1.238 . S
C2561 C263 1.254 . S
C2587 C603 1.254 . S
C2581 C235 1.347 . S
