# Generated by pormake.
# Topology ocu, (6,8)-cn, num edge types: 1
# Building blocks:
#     Node 0, Type 0, BuildingBlock: BETDEL_clean_sbu_0, # of connection points: 6
#     Node 1, Type 0, BuildingBlock: BETDEL_clean_sbu_0, # of connection points: 6
#     Node 2, Type 0, BuildingBlock: BETDEL_clean_sbu_0, # of connection points: 6
#     Node 3, Type 0, BuildingBlock: BETDEL_clean_sbu_0, # of connection points: 6
#     Node 4, Type 0, BuildingBlock: BETDEL_clean_sbu_0, # of connection points: 6
#     Node 5, Type 0, BuildingBlock: BETDEL_clean_sbu_0, # of connection points: 6
#     Node 6, Type 0, BuildingBlock: BETDEL_clean_sbu_0, # of connection points: 6
#     Node 7, Type 0, BuildingBlock: BETDEL_clean_sbu_0, # of connection points: 6
#     Node 8, Type 1, BuildingBlock: TAGTUT_clean_sbu_1, # of connection points: 8
#     Node 9, Type 1, BuildingBlock: TAGTUT_clean_sbu_1, # of connection points: 8
#     Node 10, Type 1, BuildingBlock: TAGTUT_clean_sbu_1, # of connection points: 8
#     Node 11, Type 1, BuildingBlock: TAGTUT_clean_sbu_1, # of connection points: 8
#     Node 12, Type 1, BuildingBlock: TAGTUT_clean_sbu_1, # of connection points: 8
#     Node 13, Type 1, BuildingBlock: TAGTUT_clean_sbu_1, # of connection points: 8
#     Edge 14, Type (0, 1), BuildingBlock: CIFDUS_clean_linker_0, # of connection points: 2
#     Edge 15, Type (0, 1), BuildingBlock: CIFDUS_clean_linker_0, # of connection points: 2
#     Edge 16, Type (0, 1), BuildingBlock: CIFDUS_clean_linker_0, # of connection points: 2
#     Edge 17, Type (0, 1), BuildingBlock: CIFDUS_clean_linker_0, # of connection points: 2
#     Edge 18, Type (0, 1), BuildingBlock: CIFDUS_clean_linker_0, # of connection points: 2
#     Edge 19, Type (0, 1), BuildingBlock: CIFDUS_clean_linker_0, # of connection points: 2
#     Edge 20, Type (0, 1), BuildingBlock: CIFDUS_clean_linker_0, # of connection points: 2
#     Edge 21, Type (0, 1), BuildingBlock: CIFDUS_clean_linker_0, # of connection points: 2
#     Edge 22, Type (0, 1), BuildingBlock: CIFDUS_clean_linker_0, # of connection points: 2
#     Edge 23, Type (0, 1), BuildingBlock: CIFDUS_clean_linker_0, # of connection points: 2
#     Edge 24, Type (0, 1), BuildingBlock: CIFDUS_clean_linker_0, # of connection points: 2
#     Edge 25, Type (0, 1), BuildingBlock: CIFDUS_clean_linker_0, # of connection points: 2
#     Edge 26, Type (0, 1), BuildingBlock: CIFDUS_clean_linker_0, # of connection points: 2
#     Edge 27, Type (0, 1), BuildingBlock: CIFDUS_clean_linker_0, # of connection points: 2
#     Edge 28, Type (0, 1), BuildingBlock: CIFDUS_clean_linker_0, # of connection points: 2
#     Edge 29, Type (0, 1), BuildingBlock: CIFDUS_clean_linker_0, # of connection points: 2
#     Edge 30, Type (0, 1), BuildingBlock: CIFDUS_clean_linker_0, # of connection points: 2
#     Edge 31, Type (0, 1), BuildingBlock: CIFDUS_clean_linker_0, # of connection points: 2
#     Edge 32, Type (0, 1), BuildingBlock: CIFDUS_clean_linker_0, # of connection points: 2
#     Edge 33, Type (0, 1), BuildingBlock: CIFDUS_clean_linker_0, # of connection points: 2
#     Edge 34, Type (0, 1), BuildingBlock: CIFDUS_clean_linker_0, # of connection points: 2
#     Edge 35, Type (0, 1), BuildingBlock: CIFDUS_clean_linker_0, # of connection points: 2
#     Edge 36, Type (0, 1), BuildingBlock: CIFDUS_clean_linker_0, # of connection points: 2
#     Edge 37, Type (0, 1), BuildingBlock: CIFDUS_clean_linker_0, # of connection points: 2
#     Edge 38, Type (0, 1), BuildingBlock: CIFDUS_clean_linker_0, # of connection points: 2
#     Edge 39, Type (0, 1), BuildingBlock: CIFDUS_clean_linker_0, # of connection points: 2
#     Edge 40, Type (0, 1), BuildingBlock: CIFDUS_clean_linker_0, # of connection points: 2
#     Edge 41, Type (0, 1), BuildingBlock: CIFDUS_clean_linker_0, # of connection points: 2
#     Edge 42, Type (0, 1), BuildingBlock: CIFDUS_clean_linker_0, # of connection points: 2
#     Edge 43, Type (0, 1), BuildingBlock: CIFDUS_clean_linker_0, # of connection points: 2
#     Edge 44, Type (0, 1), BuildingBlock: CIFDUS_clean_linker_0, # of connection points: 2
#     Edge 45, Type (0, 1), BuildingBlock: CIFDUS_clean_linker_0, # of connection points: 2
#     Edge 46, Type (0, 1), BuildingBlock: CIFDUS_clean_linker_0, # of connection points: 2
#     Edge 47, Type (0, 1), BuildingBlock: CIFDUS_clean_linker_0, # of connection points: 2
#     Edge 48, Type (0, 1), BuildingBlock: CIFDUS_clean_linker_0, # of connection points: 2
#     Edge 49, Type (0, 1), BuildingBlock: CIFDUS_clean_linker_0, # of connection points: 2
#     Edge 50, Type (0, 1), BuildingBlock: CIFDUS_clean_linker_0, # of connection points: 2
#     Edge 51, Type (0, 1), BuildingBlock: CIFDUS_clean_linker_0, # of connection points: 2
#     Edge 52, Type (0, 1), BuildingBlock: CIFDUS_clean_linker_0, # of connection points: 2
#     Edge 53, Type (0, 1), BuildingBlock: CIFDUS_clean_linker_0, # of connection points: 2
#     Edge 54, Type (0, 1), BuildingBlock: CIFDUS_clean_linker_0, # of connection points: 2
#     Edge 55, Type (0, 1), BuildingBlock: CIFDUS_clean_linker_0, # of connection points: 2
#     Edge 56, Type (0, 1), BuildingBlock: CIFDUS_clean_linker_0, # of connection points: 2
#     Edge 57, Type (0, 1), BuildingBlock: CIFDUS_clean_linker_0, # of connection points: 2
#     Edge 58, Type (0, 1), BuildingBlock: CIFDUS_clean_linker_0, # of connection points: 2
#     Edge 59, Type (0, 1), BuildingBlock: CIFDUS_clean_linker_0, # of connection points: 2
#     Edge 60, Type (0, 1), BuildingBlock: CIFDUS_clean_linker_0, # of connection points: 2
#     Edge 61, Type (0, 1), BuildingBlock: CIFDUS_clean_linker_0, # of connection points: 2
# Relax obj value: 0.089
# Max RMSD: 0.258
# Mean RMSD: 0.146
data_MOF--net-ocu--node1-BETDEL_clean_sbu_0--node2-TAGTUT_clean_sbu_1--edge1-CIFDUS_clean_linker_0
_symmetry_space_group_name_H-M    P1
_symmetry_Int_Tables_number       1
_symmetry_cell_setting            triclinic
loop_
_symmetry_equiv_pos_as_xyz
'x, y, z'
_cell_length_a     33.899556
_cell_length_b     32.844575
_cell_length_c     34.562477
_cell_angle_alpha  91.673043
_cell_angle_beta   93.541763
_cell_angle_gamma 107.92545
loop_
_atom_site_label
_atom_site_type_symbol
_atom_site_fract_x
_atom_site_fract_y
_atom_site_fract_z
_atom_type_partial_charge
Dy0 Dy 0.29164 0.25495 0.26838 0.0
C1 C 0.16249 0.2666 0.16889 0.0
C2 C 0.34723 0.22861 0.31195 0.0
Dy3 Dy 0.21905 0.24 0.21132 0.0
O4 O 0.34984 0.26874 0.30847 0.0
O5 O 0.3135 0.20384 0.29372 0.0
O6 O 0.32263 0.32142 0.25008 0.0
O7 O 0.2851 0.27493 0.20934 0.0
C8 C 0.30564 0.3142 0.21471 0.0
C9 C 0.20553 0.18155 0.26632 0.0
O10 O 0.2555 0.20911 0.17307 0.0
O11 O 0.30449 0.21018 0.22295 0.0
O12 O 0.1598 0.22645 0.1725 0.0
O13 O 0.19697 0.2912 0.18605 0.0
O14 O 0.18793 0.17368 0.23116 0.0
O15 O 0.22579 0.22085 0.27056 0.0
O16 O 0.2554 0.28609 0.30631 0.0
O17 O 0.20712 0.28594 0.2561 0.0
C18 C 0.28862 0.19879 0.18668 0.0
C19 C 0.22289 0.29718 0.29238 0.0
Dy20 Dy 0.80736 0.22055 0.24123 0.0
C21 C 0.67254 0.27856 0.18423 0.0
C22 C 0.86627 0.18785 0.27148 0.0
Dy23 Dy 0.7349 0.2548 0.22085 0.0
O24 O 0.83584 0.16785 0.2466 0.0
O25 O 0.86437 0.22588 0.28046 0.0
O26 O 0.80692 0.19948 0.1789 0.0
O27 O 0.75124 0.19888 0.20255 0.0
C28 C 0.76759 0.19396 0.17177 0.0
C29 C 0.77492 0.28342 0.29024 0.0
O30 O 0.7008 0.19773 0.25222 0.0
O31 O 0.76007 0.18658 0.28122 0.0
O32 O 0.69897 0.30126 0.21139 0.0
O33 O 0.6804 0.24298 0.17674 0.0
O34 O 0.73548 0.27756 0.28258 0.0
O35 O 0.79106 0.27717 0.25959 0.0
O36 O 0.84337 0.27971 0.21537 0.0
O37 O 0.78596 0.29398 0.18546 0.0
C38 C 0.71921 0.17843 0.2773 0.0
C39 C 0.82685 0.30136 0.19117 0.0
Dy40 Dy 0.73344 0.75119 0.26392 0.0
C41 C 0.83369 0.73973 0.13804 0.0
C42 C 0.69429 0.77497 0.3226 0.0
Dy43 Dy 0.7943 0.75826 0.19918 0.0
O44 O 0.68376 0.7365 0.30647 0.0
O45 O 0.72568 0.80006 0.30651 0.0
O46 O 0.70196 0.68162 0.24703 0.0
O47 O 0.72936 0.72519 0.20551 0.0
C48 C 0.71286 0.68621 0.21153 0.0
C49 C 0.81466 0.82251 0.25276 0.0
O50 O 0.7543 0.79418 0.17075 0.0
O51 O 0.71085 0.79296 0.22077 0.0
O52 O 0.79393 0.72703 0.14091 0.0
O53 O 0.85254 0.76282 0.16891 0.0
O54 O 0.82551 0.82791 0.2173 0.0
O55 O 0.79827 0.78339 0.25784 0.0
O56 O 0.77919 0.72208 0.2939 0.0
O57 O 0.80887 0.70847 0.23797 0.0
C58 C 0.72353 0.8051 0.18578 0.0
C59 C 0.80311 0.70332 0.27568 0.0
Dy60 Dy 0.29638 0.72347 0.24348 0.0
C61 C 0.18775 0.82293 0.2638 0.0
C62 C 0.34169 0.67346 0.22006 0.0
Dy63 Dy 0.23137 0.77324 0.23654 0.0
O64 O 0.35726 0.71317 0.23297 0.0
O65 O 0.30173 0.66093 0.22188 0.0
O66 O 0.31354 0.74719 0.30592 0.0
O67 O 0.2922 0.7835 0.26546 0.0
C68 C 0.30128 0.78082 0.30082 0.0
C69 C 0.22635 0.71476 0.17972 0.0
O70 O 0.28085 0.81733 0.20631 0.0
O71 O 0.31938 0.7705 0.19713 0.0
O72 O 0.17212 0.7902 0.23921 0.0
O73 O 0.22711 0.82915 0.27148 0.0
O74 O 0.21411 0.74837 0.17408 0.0
O75 O 0.23572 0.7132 0.21509 0.0
O76 O 0.24575 0.67891 0.27298 0.0
O77 O 0.20526 0.72419 0.2798 0.0
C78 C 0.31193 0.80743 0.1915 0.0
C79 C 0.21342 0.68787 0.28621 0.0
Dy80 Dy 0.28789 0.73202 0.7501 0.0
C81 C 0.14429 0.78762 0.70786 0.0
C82 C 0.35243 0.70723 0.78001 0.0
Dy83 Dy 0.21155 0.76787 0.73775 0.0
O84 O 0.32084 0.68289 0.75827 0.0
O85 O 0.34863 0.7451 0.78561 0.0
O86 O 0.286 0.71511 0.68637 0.0
O87 O 0.23209 0.71752 0.71213 0.0
C88 C 0.24783 0.71538 0.6804 0.0
C89 C 0.25323 0.78489 0.80729 0.0
O90 O 0.17974 0.70537 0.76027 0.0
O91 O 0.2385 0.68961 0.78544 0.0
O92 O 0.15069 0.751 0.70246 0.0
O93 O 0.17505 0.8139 0.7293 0.0
O94 O 0.21498 0.78516 0.802 0.0
O95 O 0.26781 0.7825 0.77515 0.0
O96 O 0.31867 0.79464 0.72416 0.0
O97 O 0.25834 0.80938 0.70138 0.0
C98 C 0.19748 0.68233 0.78165 0.0
C99 C 0.29928 0.81738 0.70364 0.0
Dy100 Dy 0.22075 0.23933 0.77716 0.0
C101 C 0.33642 0.2644 0.65816 0.0
C102 C 0.179 0.24419 0.84087 0.0
Dy103 Dy 0.2865 0.26581 0.71653 0.0
O104 O 0.1611 0.23011 0.80653 0.0
O105 O 0.2189 0.25494 0.83991 0.0
O106 O 0.20251 0.16972 0.75795 0.0
O107 O 0.22685 0.21739 0.71907 0.0
C108 C 0.21782 0.17784 0.7243 0.0
C109 C 0.29053 0.32635 0.77123 0.0
O110 O 0.23693 0.29022 0.68772 0.0
O111 O 0.1932 0.28047 0.73849 0.0
O112 O 0.34946 0.27478 0.69432 0.0
O113 O 0.2965 0.25652 0.65395 0.0
O114 O 0.30355 0.33512 0.73689 0.0
O115 O 0.28135 0.2866 0.77505 0.0
O116 O 0.26738 0.21074 0.80387 0.0
O117 O 0.31048 0.21937 0.7528 0.0
C118 C 0.20356 0.29464 0.70355 0.0
C119 C 0.29926 0.20406 0.78727 0.0
Dy120 Dy 0.77955 0.22013 0.74601 0.0
C121 C 0.71853 0.36355 0.76553 0.0
C122 C 0.80854 0.15534 0.72362 0.0
Dy123 Dy 0.74987 0.30078 0.74238 0.0
O124 O 0.827 0.18524 0.75006 0.0
O125 O 0.77335 0.1599 0.71119 0.0
O126 O 0.78565 0.22723 0.81145 0.0
O127 O 0.79476 0.28102 0.77753 0.0
C128 C 0.79133 0.26835 0.8114 0.0
C129 C 0.7378 0.25326 0.67653 0.0
O130 O 0.8142 0.33006 0.7261 0.0
O131 O 0.82565 0.26536 0.71067 0.0
O132 O 0.6992 0.33104 0.74194 0.0
O133 O 0.75623 0.36318 0.77404 0.0
O134 O 0.74295 0.2943 0.67722 0.0
O135 O 0.73462 0.24005 0.71035 0.0
O136 O 0.71513 0.19085 0.7619 0.0
O137 O 0.70484 0.25563 0.77894 0.0
C138 C 0.83636 0.30775 0.71056 0.0
C139 C 0.69348 0.21318 0.77819 0.0
Dy140 Dy 0.79389 0.73976 0.76709 0.0
C141 C 0.68365 0.80069 0.67981 0.0
C142 C 0.83975 0.69458 0.8018 0.0
Dy143 Dy 0.72242 0.75003 0.71525 0.0
O144 O 0.85243 0.7361 0.79962 0.0
O145 O 0.8017 0.67879 0.78729 0.0
O146 O 0.83729 0.80297 0.7495 0.0
O147 O 0.78881 0.7662 0.71108 0.0
C148 C 0.81711 0.80156 0.7159 0.0
C149 C 0.69836 0.68688 0.76444 0.0
O150 O 0.74536 0.71092 0.67162 0.0
O151 O 0.78764 0.6909 0.71752 0.0
O152 O 0.6671 0.7593 0.68149 0.0
O153 O 0.72128 0.81323 0.69562 0.0
O154 O 0.67803 0.68714 0.73118 0.0
O155 O 0.72698 0.72206 0.77058 0.0
O156 O 0.76838 0.77593 0.81137 0.0
O157 O 0.72645 0.79716 0.76604 0.0
C158 C 0.7704 0.68794 0.68154 0.0
C159 C 0.74325 0.79904 0.80205 0.0
C160 C 0.91621 0.08422 0.55041 0.0
C161 C 0.97278 0.09885 0.43791 0.0
C162 C 0.93364 0.926 0.44238 0.0
Mg163 Mg 1.00362 0.09416 0.52228 0.0
O164 O 0.97899 0.0349 0.51466 0.0
Mg165 Mg 0.92407 0.00994 0.48503 0.0
Mg166 Mg 1.00795 0.99709 0.49254 0.0
O167 O 0.03678 0.95799 0.47209 0.0
Mg168 Mg 0.01086 0.89905 0.47664 0.0
Mg169 Mg 0.09184 0.98423 0.5024 0.0
C170 C 0.0786 0.06335 0.55326 0.0
C171 C 0.08039 0.0501 0.4368 0.0
O172 O 0.90013 0.05328 0.52504 0.0
O173 O 0.95534 0.10382 0.55496 0.0
O174 O 0.94423 0.0632 0.44146 0.0
O175 O 1.00051 0.11649 0.46517 0.0
O176 O 0.06175 0.0934 0.55286 0.0
O177 O 0.06244 0.0279 0.53398 0.0
C178 C 0.93632 0.94229 0.54781 0.0
O179 O 0.97424 0.95115 0.53893 0.0
O180 O 0.911 0.95901 0.53043 0.0
O181 O 0.11304 0.93639 0.46533 0.0
O182 O 0.05585 0.88186 0.44464 0.0
O183 O 0.07518 0.93797 0.55102 0.0
C184 C 0.0949 0.90166 0.44471 0.0
O185 O 0.01655 0.88442 0.53641 0.0
O186 O 0.95018 0.89652 0.45005 0.0
C187 C 0.04675 0.9049 0.56031 0.0
O188 O 0.9524 0.96578 0.45093 0.0
O189 O 0.04267 0.04339 0.44597 0.0
O190 O 0.10434 0.03185 0.45426 0.0
C191 C 0.406 0.087 0.03797 0.0
C192 C 0.43619 0.08963 0.91884 0.0
C193 C 0.44193 0.92027 0.94419 0.0
Mg194 Mg 0.48958 0.09945 -0.00184 0.0
O195 O 0.47647 0.04005 0.00088 0.0
Mg196 Mg 0.41931 0.0056 0.97978 0.0
Mg197 Mg 0.5121 0.00348 0.98353 0.0
O198 O 0.54731 0.96664 0.9662 0.0
Mg199 Mg 0.53302 0.90711 0.97087 0.0
Mg200 Mg 0.6048 0.00172 0.98615 0.0
C201 C 0.58163 0.0877 0.02154 0.0
C202 C 0.56995 0.05242 0.91839 0.0
O203 O 0.3916 0.05078 0.01828 0.0
O204 O 0.44423 0.11008 0.03711 0.0
O205 O 0.41659 0.05124 0.92778 0.0
O206 O 0.46797 0.11279 0.94007 0.0
O207 O 0.55616 0.10965 0.01564 0.0
O208 O 0.57034 0.04636 0.01747 0.0
C209 C 0.45268 0.95282 0.0467 0.0
O210 O 0.48928 0.96234 0.03475 0.0
O211 O 0.4238 0.9655 0.03055 0.0
O212 O 0.63081 0.95574 0.9473 0.0
O213 O 0.57864 0.89432 0.9334 0.0
O214 O 0.60856 0.95667 0.03871 0.0
C215 C 0.61625 0.91804 0.9303 0.0
O216 O 0.5554 0.89596 0.02973 0.0
O217 O 0.46619 0.89704 0.95093 0.0
C218 C 0.58854 0.91907 0.04934 0.0
O219 O 0.45443 0.96143 0.94939 0.0
O220 O 0.53408 0.04351 0.93173 0.0
O221 O 0.59959 0.0406 0.93403 0.0
C222 C 0.96509 0.63358 0.01267 0.0
C223 C 0.98798 0.58826 0.9026 0.0
C224 C 0.9236 0.43037 0.95966 0.0
Mg225 Mg 0.03456 0.60205 0.98221 0.0
O226 O 0.99979 0.5506 -0.0007 0.0
Mg227 Mg 0.94111 0.53154 0.97625 0.0
Mg228 Mg 0.0137 0.49669 -0.00898 0.0
O229 O 0.02698 0.44277 0.98275 0.0
Mg230 Mg 0.99064 0.39204 -0.00057 0.0
Mg231 Mg 0.08532 0.4604 0.00594 0.0
C232 C 0.10324 0.56327 0.02034 0.0
C233 C 0.08395 0.51192 0.92812 0.0
O234 O 0.93901 0.59723 0.00061 0.0
O235 O 1.00442 0.64233 0.01042 0.0
O236 O 0.95849 0.56204 0.91895 0.0
O237 O 0.02313 0.60632 0.92093 0.0
O238 O 0.09235 0.59381 0.0051 0.0
O239 O 0.07703 0.52613 0.02498 0.0
C240 C 0.94357 0.48039 0.05408 0.0
O241 O 0.97757 0.47427 0.04497 0.0
O242 O 0.92534 0.50149 0.03299 0.0
O243 O 0.08529 0.39332 0.98108 0.0
O244 O 0.01868 0.35095 0.9711 0.0
O245 O 0.06735 0.42984 0.06358 0.0
C246 C 0.05771 0.35786 0.96873 0.0
O247 O 1.00224 0.38592 0.05998 0.0
O248 O 0.93305 0.39942 0.97559 0.0
C249 C 0.03717 0.40331 0.07887 0.0
O250 O 0.95068 0.4673 0.95683 0.0
O251 O 0.05018 0.51877 0.93708 0.0
O252 O 0.10157 0.4903 0.94925 0.0
C253 C 0.43238 0.60647 0.03327 0.0
C254 C 0.4627 0.58472 0.91535 0.0
C255 C 0.42722 0.42288 0.95046 0.0
Mg256 Mg 0.50905 0.59739 -0.00522 0.0
O257 O 0.48171 0.54102 0.00821 0.0
Mg258 Mg 0.42401 0.51404 0.98374 0.0
Mg259 Mg 0.50677 0.49757 -0.00933 0.0
O260 O 0.53239 0.45495 0.97235 0.0
Mg261 Mg 0.50738 0.39613 0.9773 0.0
Mg262 Mg 0.59056 0.48251 -0.00477 0.0
C263 C 0.58708 0.57209 0.02909 0.0
C264 C 0.57392 0.54326 0.92779 0.0
O265 O 0.41062 0.56908 0.01886 0.0
O266 O 0.47068 0.62384 0.02719 0.0
O267 O 0.43541 0.55419 0.92986 0.0
O268 O 0.49662 0.60541 0.93448 0.0
O269 O 0.57117 0.60096 0.01784 0.0
O270 O 0.56662 0.53206 0.02672 0.0
C271 C 0.43811 0.45387 0.05312 0.0
O272 O 0.47498 0.45811 0.04262 0.0
O273 O 0.41446 0.47236 0.03563 0.0
O274 O 0.60662 0.43218 0.95671 0.0
O275 O 0.54768 0.37859 0.93918 0.0
O276 O 0.58019 0.438 0.04633 0.0
C277 C 0.5865 0.39777 0.93647 0.0
O278 O 0.5226 0.38202 0.03557 0.0
O279 O 0.44395 0.39337 0.95759 0.0
C280 C 0.55466 0.40346 0.05707 0.0
O281 O 0.44754 0.4628 0.95502 0.0
O282 O 0.53697 0.53701 0.93855 0.0
O283 O 0.59898 0.52638 0.94506 0.0
C284 C 0.90218 0.58272 0.54607 0.0
C285 C 0.92456 0.58743 0.42631 0.0
C286 C 0.93537 0.41401 0.45481 0.0
Mg287 Mg 0.98311 0.59598 0.50346 0.0
O288 O 0.96951 0.53681 0.50307 0.0
Mg289 Mg 0.91165 0.50192 0.48545 0.0
Mg290 Mg 1.00494 0.49967 0.48886 0.0
O291 O 0.04049 0.46182 0.47494 0.0
Mg292 Mg 0.02772 0.40293 0.48242 0.0
Mg293 Mg 0.09775 0.49828 0.49345 0.0
C294 C 0.0748 0.58485 0.52704 0.0
C295 C 0.06287 0.5448 0.42282 0.0
O296 O 0.88536 0.54812 0.52457 0.0
O297 O 0.94084 0.604 0.54555 0.0
O298 O 0.90705 0.54738 0.43224 0.0
O299 O 0.95561 0.61038 0.44863 0.0
O300 O 0.04987 0.60734 0.52105 0.0
O301 O 0.06292 0.54372 0.52183 0.0
C302 C 0.9478 0.45537 0.55592 0.0
O303 O 0.98367 0.46383 0.54273 0.0
O304 O 0.91773 0.4654 0.53893 0.0
O305 O 0.12442 0.45085 0.4576 0.0
O306 O 0.0716 0.39033 0.44286 0.0
O307 O 0.10304 0.45762 0.54752 0.0
C308 C 0.10953 0.41344 0.4401 0.0
O309 O 0.05454 0.39358 0.54079 0.0
O310 O 0.96053 0.3923 0.46378 0.0
C311 C 0.08678 0.41978 0.55941 0.0
O312 O 0.94664 0.45545 0.45624 0.0
O313 O 0.02662 0.53666 0.43521 0.0
O314 O 0.09198 0.53371 0.44031 0.0
C315 C 0.4264 0.11912 0.52658 0.0
C316 C 0.46618 0.09392 0.41748 0.0
C317 C 0.43148 0.92977 0.45983 0.0
Mg318 Mg 0.50767 0.10901 0.4991 0.0
O319 O 0.48147 0.05246 0.51078 0.0
Mg320 Mg 0.42493 0.02385 0.48478 0.0
Mg321 Mg 0.50893 0.00952 0.49668 0.0
O322 O 0.53697 0.96678 0.48263 0.0
Mg323 Mg 0.51292 0.90924 0.49238 0.0
Mg324 Mg 0.59322 0.99617 0.50918 0.0
C325 C 0.58676 0.08835 0.53543 0.0
C326 C 0.57778 0.04903 0.43502 0.0
O327 O 0.40674 0.0808 0.51288 0.0
O328 O 0.4658 0.13577 0.52573 0.0
O329 O 0.43839 0.06212 0.42994 0.0
O330 O 0.49839 0.11515 0.43871 0.0
O331 O 0.56948 0.11603 0.52397 0.0
O332 O 0.56737 0.04796 0.53334 0.0
C333 C 0.44037 0.9703 0.5587 0.0
O334 O 0.47709 0.97366 0.54863 0.0
O335 O 0.41612 0.98683 0.53937 0.0
O336 O 0.61348 0.94224 0.47994 0.0
O337 O 0.55689 0.88537 0.46442 0.0
O338 O 0.57985 0.95665 0.56314 0.0
C339 C 0.59611 0.90435 0.46446 0.0
O340 O 0.52136 0.90214 0.55275 0.0
O341 O 0.45045 0.90286 0.46963 0.0
C342 C 0.55263 0.92386 0.57484 0.0
O343 O 0.44989 0.97045 0.46084 0.0
O344 O 0.54071 0.04535 0.44428 0.0
O345 O 0.60204 0.03353 0.45539 0.0
H346 H 0.12366 0.14798 0.28099 0.0
H347 H 0.24796 0.16094 0.32772 0.0
H348 H 0.22044 0.12274 0.38472 0.0
H349 H 0.16126 0.08525 0.4212 0.0
H350 H 0.03658 0.0757 0.37748 0.0
H351 H 0.06387 0.11361 0.32 0.0
C352 C 0.14458 0.14197 0.30353 0.0
C353 C 0.18787 0.15641 0.29972 0.0
C354 C 0.12844 0.12108 0.33702 0.0
C355 C 0.21466 0.14964 0.32967 0.0
C356 C 0.19887 0.12794 0.36237 0.0
C357 C 0.13991 0.09155 0.39924 0.0
C358 C 0.09676 0.07722 0.40375 0.0
C359 C 0.15586 0.11353 0.36639 0.0
C360 C 0.06986 0.08632 0.37501 0.0
C361 C 0.08549 0.10778 0.34193 0.0
H362 H 0.93035 0.22465 0.3247 0.0
H363 H 0.86397 0.10501 0.26233 0.0
H364 H 0.89862 0.06683 0.30516 0.0
H365 H 0.93698 0.06609 0.36721 0.0
H366 H 1.00199 0.18528 0.43093 0.0
H367 H 0.97985 0.22521 0.38002 0.0
C368 C 0.92431 0.19039 0.32003 0.0
C369 C 0.89403 0.16737 0.2913 0.0
C370 C 0.94385 0.16858 0.34512 0.0
C371 C 0.88679 0.12319 0.28482 0.0
C372 C 0.90648 0.10133 0.30931 0.0
C373 C 0.94704 0.10085 0.36948 0.0
C374 C 0.96988 0.12271 0.40312 0.0
C375 C 0.93341 0.12344 0.34067 0.0
C376 C 0.98386 0.16774 0.4054 0.0
C377 C 0.97095 0.19059 0.37648 0.0
H378 H 0.80159 0.80956 0.32766 0.0
H379 H 0.86119 0.90688 0.25053 0.0
H380 H 0.89625 0.95478 0.3065 0.0
H381 H 0.92028 0.9616 0.3759 0.0
H382 H 0.86383 0.8606 0.45082 0.0
H383 H 0.81473 0.82234 0.39734 0.0
C384 C 0.82095 0.84183 0.323 0.0
C385 C 0.82925 0.85465 0.2852 0.0
C386 C 0.84126 0.86849 0.35502 0.0
C387 C 0.85484 0.89629 0.27953 0.0
C388 C 0.8748 0.92358 0.31147 0.0
C389 C 0.89593 0.93218 0.38075 0.0
C390 C 0.89554 0.91343 0.41677 0.0
C391 C 0.86974 0.90913 0.34926 0.0
C392 C 0.86444 0.87523 0.42307 0.0
C393 C 0.83685 0.85319 0.39244 0.0
H394 H 0.2184 0.87756 0.32511 0.0
H395 H 0.10332 0.80485 0.26171 0.0
H396 H 0.0641 0.8212 0.31405 0.0
H397 H 0.06335 0.85255 0.37909 0.0
H398 H 0.17912 0.92302 0.44299 0.0
H399 H 0.21769 0.90952 0.38932 0.0
C400 C 0.18467 0.86589 0.32239 0.0
C401 C 0.16359 0.84019 0.28973 0.0
C402 C 0.16273 0.8738 0.35306 0.0
C403 C 0.12002 0.82506 0.28656 0.0
C404 C 0.09774 0.83388 0.31664 0.0
C405 C 0.09705 0.86441 0.38158 0.0
C406 C 0.11842 0.88836 0.41513 0.0
C407 C 0.1189 0.85728 0.35041 0.0
C408 C 0.16203 0.90422 0.41757 0.0
C409 C 0.18404 0.89688 0.38681 0.0
H410 H 0.13232 0.865 0.71052 0.0
H411 H 0.08243 0.7372 0.65783 0.0
H412 H 0.03825 0.76153 0.61147 0.0
H413 H 0.02587 0.82175 0.57793 0.0
H414 H 0.08156 0.95041 0.62715 0.0
H415 H 0.11036 0.92323 0.6835 0.0
C416 C 0.11096 0.84235 0.68951 0.0
C417 C 0.1111 0.79977 0.68683 0.0
C418 C 0.08692 0.85687 0.66215 0.0
C419 C 0.08309 0.77039 0.65993 0.0
C420 C 0.05796 0.78428 0.63336 0.0
C421 C 0.04308 0.84358 0.60168 0.0
C422 C 0.05243 0.88791 0.59829 0.0
C423 C 0.06131 0.82787 0.63294 0.0
C424 C 0.07468 0.91611 0.62908 0.0
C425 C 0.09131 0.90062 0.66115 0.0
H426 H 0.15997 0.09934 0.7176 0.0
H427 H 0.25805 0.18385 0.65854 0.0
H428 H 0.22627 0.14939 0.59586 0.0
H429 H 0.16032 0.10887 0.55893 0.0
H430 H 0.06374 0.02181 0.61843 0.0
H431 H 0.10544 0.04231 0.68016 0.0
C432 C 0.17518 0.10903 0.69115 0.0
C433 C 0.20942 0.14613 0.69171 0.0
C434 C 0.15653 0.08883 0.65546 0.0
C435 C 0.22988 0.15743 0.65779 0.0
C436 C 0.21189 0.13744 0.62215 0.0
C437 C 0.14945 0.09328 0.58524 0.0
C438 C 0.10924 0.06483 0.58496 0.0
C439 C 0.17342 0.10543 0.62054 0.0
C440 C 0.0949 0.04416 0.61866 0.0
C441 C 0.11851 0.05604 0.65389 0.0
H442 H 0.78053 0.11092 0.6555 0.0
H443 H 0.88694 0.15143 0.73889 0.0
H444 H 0.93013 0.13287 0.69158 0.0
H445 H 0.93898 0.11279 0.62474 0.0
H446 H 0.833 0.07342 0.54081 0.0
H447 H 0.78817 0.08503 0.59009 0.0
C448 C 0.81293 0.11462 0.66363 0.0
C449 C 0.83075 0.1327 0.7004 0.0
C450 C 0.83778 0.10552 0.63589 0.0
C451 C 0.87266 0.13744 0.71069 0.0
C452 C 0.89743 0.12741 0.68352 0.0
C453 C 0.90613 0.10714 0.61713 0.0
C454 C 0.88937 0.09333 0.57907 0.0
C455 C 0.88062 0.11306 0.64564 0.0
C456 C 0.84659 0.08475 0.56985 0.0
C457 C 0.82098 0.09105 0.59802 0.0
H458 H 0.8978 0.84997 0.70639 0.0
H459 H 0.77448 0.80825 0.6489 0.0
H460 H 0.80011 0.84767 0.59232 0.0
H461 H 0.8574 0.89386 0.55856 0.0
H462 H 0.98238 0.93016 0.61203 0.0
H463 H 0.95676 0.89214 0.66993 0.0
C464 C 0.87656 0.84998 0.68162 0.0
C465 C 0.83387 0.82746 0.68258 0.0
C466 C 0.89202 0.8711 0.64802 0.0
C467 C 0.80707 0.82653 0.64965 0.0
C468 C 0.82184 0.84866 0.61696 0.0
C469 C 0.87911 0.89325 0.58278 0.0
C470 C 0.92173 0.91498 0.58093 0.0
C471 C 0.8642 0.87103 0.61577 0.0
C472 C 0.94945 0.91342 0.61248 0.0
C473 C 0.93473 0.892 0.64579 0.0
H474 H 0.26381 0.13856 0.12342 0.0
H475 H 0.37221 0.21998 0.19088 0.0
H476 H 0.41723 0.19401 0.1515 0.0
H477 H 0.42721 0.14792 0.09821 0.0
H478 H 0.32021 0.06229 0.03239 0.0
H479 H 0.27414 0.0896 0.07037 0.0
C480 C 0.29725 0.15065 0.12938 0.0
C481 C 0.31424 0.18139 0.16044 0.0
C482 C 0.32364 0.13458 0.10682 0.0
C483 C 0.35785 0.19619 0.16764 0.0
C484 C 0.38389 0.18138 0.14495 0.0
C485 C 0.39381 0.13512 0.09203 0.0
C486 C 0.37758 0.10299 0.06208 0.0
C487 C 0.36731 0.15047 0.11455 0.0
C488 C 0.33397 0.08684 0.05515 0.0
C489 C 0.30744 0.10262 0.07691 0.0
H490 H 0.81022 0.36782 0.15649 0.0
H491 H 0.90817 0.3116 0.1805 0.0
H492 H 0.95549 0.36665 0.14496 0.0
H493 H 0.96732 0.42752 0.10317 0.0
H494 H 0.86848 0.48189 0.0773 0.0
H495 H 0.82402 0.43216 0.11898 0.0
C496 C 0.8419 0.36764 0.15392 0.0
C497 C 0.85545 0.33539 0.17052 0.0
C498 C 0.86901 0.39938 0.13355 0.0
C499 C 0.89686 0.33601 0.16771 0.0
C500 C 0.92402 0.3675 0.14748 0.0
C501 C 0.93616 0.42852 0.10669 0.0
C502 C 0.92095 0.45735 0.08607 0.0
C503 C 0.91019 0.3989 0.12973 0.0
C504 C 0.88093 0.45949 0.09226 0.0
C505 C 0.85524 0.43085 0.1159 0.0
H506 H 0.64042 0.80335 0.17725 0.0
H507 H 0.76165 0.86872 0.1396 0.0
H508 H 0.73189 0.91224 0.09799 0.0
H509 H 0.67107 0.92997 0.06895 0.0
H510 H 0.54857 0.86024 0.10069 0.0
H511 H 0.57872 0.82114 0.14742 0.0
C512 C 0.66037 0.82741 0.16024 0.0
C513 C 0.7036 0.83259 0.16206 0.0
C514 C 0.64262 0.85185 0.13496 0.0
C515 C 0.72849 0.86365 0.13904 0.0
C516 C 0.7114 0.88876 0.11511 0.0
C517 C 0.65092 0.90682 0.0866 0.0
C518 C 0.60738 0.89894 0.08149 0.0
C519 C 0.66847 0.88299 0.11242 0.0
C520 C 0.58206 0.86762 0.10404 0.0
C521 C 0.59939 0.84498 0.13077 0.0
H522 H 0.23653 0.70677 0.10292 0.0
H523 H 0.18671 0.63509 0.20086 0.0
H524 H 0.15285 0.57181 0.15834 0.0
H525 H 0.12428 0.54399 0.0925 0.0
H526 H 0.17446 0.61504 -0.00549 0.0
H527 H 0.22354 0.67007 0.03767 0.0
C528 C 0.21892 0.67696 0.11478 0.0
C529 C 0.21264 0.6757 0.15439 0.0
C530 C 0.20004 0.64042 0.09023 0.0
C531 C 0.19104 0.6368 0.17008 0.0
C532 C 0.1718 0.60056 0.14586 0.0
C533 C 0.1476 0.5702 0.08057 0.0
C534 C 0.14479 0.57666 0.04075 0.0
C535 C 0.17429 0.60273 0.10567 0.0
C536 C 0.17563 0.61017 0.02539 0.0
C537 C 0.20308 0.64213 0.05007 0.0
H538 H 0.26997 0.8608 0.84656 0.0
H539 H 0.29783 0.74146 0.84535 0.0
H540 H 0.35654 0.77183 0.89339 0.0
H541 H 0.40552 0.83516 0.92732 0.0
H542 H 0.38157 0.95684 0.9233 0.0
H543 H 0.31535 0.92271 0.88656 0.0
C544 C 0.28815 0.84124 0.858 0.0
C545 C 0.28001 0.79917 0.84295 0.0
C546 C 0.32284 0.85956 0.88423 0.0
C547 C 0.30393 0.774 0.8569 0.0
C548 C 0.33751 0.79142 0.88412 0.0
C549 C 0.3856 0.85421 0.91902 0.0
C550 C 0.39891 0.89866 0.92774 0.0
C551 C 0.34825 0.83469 0.89668 0.0
C552 C 0.37236 0.92263 0.91695 0.0
C553 C 0.33446 0.90315 0.89574 0.0
H554 H 0.0972 0.23572 0.8452 0.0
H555 H 0.21668 0.28032 0.91012 0.0
H556 H 0.1882 0.31623 0.9587 0.0
H557 H 0.13231 0.34387 0.97714 0.0
H558 H 0.01256 0.29932 0.91268 0.0
H559 H 0.03794 0.25412 0.86988 0.0
C560 C 0.11659 0.2524 0.87052 0.0
C561 C 0.15896 0.25614 0.87384 0.0
C562 C 0.10017 0.27351 0.89812 0.0
C563 C 0.18393 0.27746 0.90682 0.0
C564 C 0.16778 0.2982 0.93452 0.0
C565 C 0.11168 0.32377 0.95406 0.0
C566 C 0.07105 0.32552 0.94752 0.0
C567 C 0.12643 0.29796 0.92954 0.0
C568 C 0.04419 0.2987 0.9181 0.0
C569 C 0.05868 0.27296 0.8935 0.0
H570 H 0.65255 0.12852 0.77205 0.0
H571 H 0.65524 0.24592 0.83324 0.0
H572 H 0.60817 0.20502 0.87903 0.0
H573 H 0.57808 0.13565 0.90869 0.0
H574 H 0.5815 0.01946 0.84988 0.0
H575 H 0.61372 0.05986 0.79571 0.0
C576 C 0.64231 0.14522 0.79502 0.0
C577 C 0.65823 0.18994 0.80003 0.0
C578 C 0.61647 0.12158 0.82178 0.0
C579 C 0.64385 0.21132 0.82919 0.0
C580 C 0.61709 0.18798 0.85549 0.0
C581 C 0.58466 0.11937 0.88327 0.0
C582 C 0.57776 0.07507 0.88273 0.0
C583 C 0.60489 0.14307 0.85315 0.0
C584 C 0.58668 0.05374 0.85034 0.0
C585 C 0.6053 0.07679 0.81965 0.0
H586 H 0.92352 0.71965 0.8199 0.0
H587 H 0.81393 0.60881 0.8067 0.0
H588 H 0.8552 0.56256 0.82498 0.0
H589 H 0.91948 0.5551 0.85383 0.0
H590 H 0.02807 0.66615 0.87382 0.0
H591 H 0.99125 0.71008 0.8409 0.0
C592 C 0.90886 0.68538 0.82106 0.0
C593 C 0.86569 0.66773 0.81308 0.0
C594 C 0.93281 0.65884 0.83189 0.0
C595 C 0.84704 0.62321 0.8136 0.0
C596 C 0.87064 0.59665 0.82366 0.0
C597 C 0.93558 0.58866 0.84992 0.0
C598 C 0.97579 0.60765 0.86763 0.0
C599 C 0.91326 0.61428 0.83394 0.0
C600 C 0.99676 0.65078 0.86112 0.0
C601 C 0.97541 0.67619 0.84302 0.0
H602 H 0.15752 0.34503 0.18447 0.0
H603 H 0.09131 0.22439 0.12376 0.0
H604 H 0.03751 0.25474 0.0989 0.0
H605 H 0.01632 0.3186 0.08679 0.0
H606 H 0.08677 0.44025 0.14342 0.0
H607 H 0.13073 0.4058 0.17983 0.0
C608 C 0.13122 0.32528 0.16588 0.0
C609 C 0.12879 0.28301 0.15484 0.0
C610 C 0.10082 0.34291 0.15192 0.0
C611 C 0.09408 0.25733 0.13181 0.0
C612 C 0.06331 0.27459 0.11791 0.0
C613 C 0.04004 0.33717 0.10848 0.0
C614 C 0.04857 0.38189 0.11245 0.0
C615 C 0.06706 0.31772 0.1269 0.0
C616 C 0.07966 0.40577 0.14018 0.0
C617 C 0.10526 0.38621 0.16031 0.0
H618 H 0.21577 0.61828 0.8201 0.0
H619 H 0.11575 0.67051 0.79148 0.0
H620 H 0.07003 0.61868 0.83042 0.0
H621 H 0.05984 0.56249 0.87686 0.0
H622 H 0.15976 0.51071 0.90662 0.0
H623 H 0.20328 0.55731 0.86217 0.0
C624 C 0.18393 0.61813 0.82222 0.0
C625 C 0.16955 0.64857 0.80328 0.0
C626 C 0.1575 0.58815 0.84478 0.0
C627 C 0.12792 0.64758 0.80588 0.0
C628 C 0.10156 0.61792 0.82819 0.0
C629 C 0.09097 0.56116 0.87343 0.0
C630 C 0.10669 0.53393 0.89576 0.0
C631 C 0.11626 0.58863 0.84837 0.0
C632 C 0.14685 0.53178 0.89016 0.0
C633 C 0.17199 0.55861 0.86487 0.0
H634 H 0.38378 0.21245 0.79909 0.0
H635 H 0.26198 0.13157 0.82294 0.0
H636 H 0.2929 0.0866 0.86147 0.0
H637 H 0.35432 0.07236 0.89276 0.0
H638 H 0.47664 0.15615 0.87463 0.0
H639 H 0.44624 0.1969 0.82989 0.0
C640 C 0.36406 0.18464 0.81228 0.0
C641 C 0.32033 0.17555 0.80774 0.0
C642 C 0.38231 0.1592 0.83582 0.0
C643 C 0.29556 0.13963 0.82579 0.0
C644 C 0.31328 0.11373 0.84795 0.0
C645 C 0.37449 0.09895 0.87842 0.0
C646 C 0.41799 0.1105 0.88696 0.0
C647 C 0.35661 0.12343 0.85374 0.0
C648 C 0.4432 0.14602 0.86862 0.0
C649 C 0.42572 0.1696 0.84305 0.0
H650 H 0.82063 0.35434 0.81285 0.0
H651 H 0.78069 0.24806 0.88685 0.0
H652 H 0.80684 0.29667 0.94425 0.0
H653 H 0.85504 0.36477 0.97074 0.0
H654 H 0.9027 0.46789 0.895 0.0
H655 H 0.85618 0.42647 0.84126 0.0
C656 C 0.81628 0.34204 0.84157 0.0
C657 C 0.79957 0.29774 0.84586 0.0
C658 C 0.83242 0.36989 0.87406 0.0
C659 C 0.79432 0.28202 0.88307 0.0
C660 C 0.80905 0.30981 0.91577 0.0
C661 C 0.85411 0.37876 0.94276 0.0
C662 C 0.88358 0.41828 0.93618 0.0
C663 C 0.83025 0.35328 0.91138 0.0
C664 C 0.88101 0.43703 0.90052 0.0
C665 C 0.85499 0.41298 0.86957 0.0
H666 H 0.71234 0.86651 0.79426 0.0
H667 H 0.73527 0.78107 0.8789 0.0
H668 H 0.6983 0.80984 0.92605 0.0
H669 H 0.65536 0.85685 0.94229 0.0
H670 H 0.63633 0.94487 0.8586 0.0
H671 H 0.67547 0.91778 0.81237 0.0
C672 C 0.70987 0.85459 0.82323 0.0
C673 C 0.72691 0.82157 0.83282 0.0
C674 C 0.6887 0.8716 0.85041 0.0
C675 C 0.72316 0.80673 0.87064 0.0
C676 C 0.70158 0.82297 0.8976 0.0
C677 C 0.66012 0.87025 0.91402 0.0
C678 C 0.64266 0.90275 0.90382 0.0
C679 C 0.68359 0.85498 0.88769 0.0
C680 C 0.64934 0.91992 0.86716 0.0
C681 C 0.67173 0.90435 0.84068 0.0
H682 H 0.9164 0.75474 0.13156 0.0
H683 H 0.79534 0.69092 0.07417 0.0
H684 H 0.82642 0.65616 0.02684 0.0
H685 H 0.88649 0.63727 0.00678 0.0
H686 H 1.00782 0.69935 0.06438 0.0
H687 H 0.97831 0.74206 0.10613 0.0
C688 C 0.89706 0.7338 0.10826 0.0
C689 C 0.85375 0.72483 0.10654 0.0
C690 C 0.91509 0.71341 0.08139 0.0
C691 C 0.82882 0.69792 0.07619 0.0
C692 C 0.84651 0.67797 0.04918 0.0
C693 C 0.90659 0.66052 0.02814 0.0
C694 C 0.94905 0.6646 0.03299 0.0
C695 C 0.88939 0.68441 0.05229 0.0
C696 C 0.9749 0.69546 0.06023 0.0
C697 C 0.95803 0.71972 0.08427 0.0
H698 H 0.37581 0.80032 0.14966 0.0
H699 H 0.31366 0.89004 0.18711 0.0
H700 H 0.35865 0.94552 0.15128 0.0
H701 H 0.40941 0.96658 0.10385 0.0
H702 H 0.47003 0.87831 0.06168 0.0
H703 H 0.43318 0.82469 0.10606 0.0
C704 C 0.37231 0.83205 0.15004 0.0
C705 C 0.34071 0.84061 0.17023 0.0
C706 C 0.39827 0.86418 0.12895 0.0
C707 C 0.33697 0.8821 0.17105 0.0
C708 C 0.36293 0.91412 0.15084 0.0
C709 C 0.4152 0.93588 0.10509 0.0
C710 C 0.44165 0.92582 0.07963 0.0
C711 C 0.39281 0.90518 0.129 0.0
C712 C 0.44967 0.88646 0.0814 0.0
C713 C 0.42819 0.85574 0.10627 0.0
H714 H 0.73233 0.22229 0.11137 0.0
H715 H 0.7476 0.10826 0.15954 0.0
H716 H 0.69488 0.06342 0.11125 0.0
H717 H 0.63703 0.0575 0.06256 0.0
H718 H 0.62142 0.17252 0.01574 0.0
H719 H 0.68235 0.21617 0.0554 0.0
C720 C 0.72475 0.18765 0.11038 0.0
C721 C 0.74321 0.16819 0.13846 0.0
C722 C 0.69422 0.16237 0.08302 0.0
C723 C 0.73348 0.12348 0.13768 0.0
C724 C 0.70332 0.09798 0.1103 0.0
C725 C 0.64771 0.09198 0.0602 0.0
C726 C 0.62419 0.1118 0.03705 0.0
C727 C 0.68236 0.1171 0.08376 0.0
C728 C 0.63853 0.15654 0.03405 0.0
C729 C 0.67332 0.18161 0.05677 0.0
H730 H 0.61671 0.64161 0.77267 0.0
H731 H 0.73996 0.67371 0.82965 0.0
H732 H 0.71227 0.63236 0.88475 0.0
H733 H 0.65345 0.58774 0.91716 0.0
H734 H 0.52883 0.55975 0.86427 0.0
H735 H 0.55633 0.59967 0.80765 0.0
C736 C 0.63745 0.63909 0.797 0.0
C737 C 0.68061 0.65974 0.79657 0.0
C738 C 0.62095 0.61658 0.82956 0.0
C739 C 0.70691 0.65729 0.8288 0.0
C740 C 0.69101 0.63395 0.86051 0.0
C741 C 0.63219 0.59032 0.89326 0.0
C742 C 0.58915 0.57038 0.89479 0.0
C743 C 0.64816 0.61356 0.86123 0.0
C744 C 0.56206 0.57481 0.86387 0.0
C745 C 0.57784 0.5974 0.83139 0.0
H746 H 0.35685 0.62657 0.77848 0.0
H747 H 0.42012 0.75477 0.82568 0.0
H748 H 0.46739 0.7281 0.86647 0.0
H749 H 0.48257 0.66719 0.89617 0.0
H750 H 0.41403 0.53844 0.8538 0.0
H751 H 0.37777 0.56633 0.80281 0.0
C752 C 0.38153 0.64871 0.79716 0.0
C753 C 0.38484 0.69238 0.79957 0.0
C754 C 0.40757 0.63294 0.82139 0.0
C755 C 0.4169 0.7209 0.82369 0.0
C756 C 0.44385 0.70567 0.84701 0.0
C757 C 0.46074 0.64534 0.87492 0.0
C758 C 0.45068 0.60092 0.87871 0.0
C759 C 0.43842 0.66157 0.84716 0.0
C760 C 0.42201 0.57281 0.85139 0.0
C761 C 0.40108 0.58873 0.8225 0.0
H762 H 0.28527 0.30841 0.84609 0.0
H763 H 0.32642 0.41338 0.77125 0.0
H764 H 0.36534 0.45942 0.82679 0.0
H765 H 0.40054 0.46226 0.89178 0.0
H766 H 0.36214 0.35359 0.96335 0.0
H767 H 0.30626 0.31713 0.91462 0.0
C768 C 0.30053 0.34187 0.84215 0.0
C769 C 0.30325 0.35731 0.80473 0.0
C770 C 0.32341 0.36736 0.87377 0.0
C771 C 0.32445 0.40066 0.79988 0.0
C772 C 0.34673 0.4269 0.83158 0.0
C773 C 0.37872 0.43141 0.89733 0.0
C774 C 0.38573 0.40986 0.93031 0.0
C775 C 0.34849 0.40962 0.86811 0.0
C776 C 0.35747 0.37013 0.93762 0.0
C777 C 0.32587 0.34923 0.90968 0.0
H778 H 0.64025 0.32827 0.78395 0.0
H779 H 0.74953 0.43714 0.81082 0.0
H780 H 0.71858 0.45655 0.86804 0.0
H781 H 0.66252 0.4394 0.91212 0.0
H782 H 0.55576 0.32684 0.88721 0.0
H783 H 0.58478 0.31087 0.828 0.0
C784 C 0.65681 0.35697 0.8017 0.0
C785 C 0.69665 0.38189 0.79296 0.0
C786 C 0.64002 0.36621 0.83553 0.0
C787 C 0.71839 0.41815 0.81676 0.0
C788 C 0.70102 0.42874 0.8497 0.0
C789 C 0.64573 0.41107 0.89405 0.0
C790 C 0.60701 0.38431 0.90422 0.0
C791 C 0.66233 0.4023 0.85986 0.0
C792 C 0.58568 0.3479 0.88023 0.0
C793 C 0.60201 0.33897 0.84614 0.0
H794 H 0.6603 0.35576 0.19169 0.0
H795 H 0.61349 0.23293 0.12907 0.0
H796 H 0.56551 0.25912 0.0887 0.0
H797 H 0.54419 0.31964 0.0657 0.0
H798 H 0.59649 0.44438 0.12399 0.0
H799 H 0.63415 0.41461 0.1724 0.0
C800 C 0.63913 0.3346 0.16957 0.0
C801 C 0.64055 0.2927 0.16299 0.0
C802 C 0.61257 0.35026 0.14584 0.0
C803 C 0.61304 0.26545 0.13437 0.0
C804 C 0.58563 0.2804 0.11134 0.0
C805 C 0.56276 0.33996 0.08975 0.0
C806 C 0.56762 0.38405 0.09146 0.0
C807 C 0.58603 0.3231 0.11608 0.0
C808 C 0.59234 0.4103 0.12227 0.0
C809 C 0.61412 0.39337 0.14968 0.0
H810 H 0.71835 0.69811 0.13562 0.0
H811 H 0.67224 0.60074 0.21695 0.0
H812 H 0.6366 0.54978 0.16313 0.0
H813 H 0.608 0.53944 0.095 0.0
H814 H 0.65376 0.63929 0.01564 0.0
H815 H 0.70383 0.68186 0.06644 0.0
C816 C 0.70261 0.66515 0.14159 0.0
C817 C 0.69798 0.65308 0.17999 0.0
C818 C 0.68257 0.63649 0.11078 0.0
C819 C 0.67578 0.61072 0.18743 0.0
C820 C 0.65559 0.58164 0.15673 0.0
C821 C 0.6303 0.56963 0.08848 0.0
C822 C 0.62687 0.58697 0.05222 0.0
C823 C 0.65722 0.59492 0.11844 0.0
C824 C 0.65574 0.6259 0.04372 0.0
C825 C 0.68389 0.6504 0.07283 0.0
H826 H 0.40139 0.71349 0.17451 0.0
H827 H 0.32228 0.5887 0.20108 0.0
H828 H 0.34076 0.55706 0.1426 0.0
H829 H 0.37651 0.56591 0.0826 0.0
H830 H 0.45404 0.69124 0.05509 0.0
H831 H 0.43756 0.72228 0.11476 0.0
C832 C 0.38923 0.67917 0.16805 0.0
C833 C 0.36123 0.65313 0.19213 0.0
C834 C 0.3983 0.66178 0.13358 0.0
C835 C 0.34456 0.60899 0.18307 0.0
C836 C 0.35453 0.59112 0.14942 0.0
C837 C 0.38905 0.60017 0.08923 0.0
C838 C 0.41592 0.62643 0.06434 0.0
C839 C 0.38049 0.61745 0.12399 0.0
C840 C 0.43285 0.67056 0.07372 0.0
C841 C 0.42391 0.68818 0.10799 0.0
H842 H 0.38792 0.35505 0.20692 0.0
H843 H 0.26587 0.32954 0.14897 0.0
H844 H 0.29625 0.37009 0.094 0.0
H845 H 0.35719 0.41279 0.06253 0.0
H846 H 0.48024 0.43397 0.11705 0.0
H847 H 0.45001 0.39447 0.17296 0.0
C848 C 0.36805 0.35881 0.18236 0.0
C849 C 0.32453 0.3402 0.18233 0.0
C850 C 0.38599 0.38093 0.15015 0.0
C851 C 0.29925 0.3441 0.14989 0.0
C852 C 0.31667 0.36713 0.11841 0.0
C853 C 0.37752 0.40881 0.08663 0.0
C854 C 0.42099 0.42686 0.08578 0.0
C855 C 0.35995 0.38566 0.11824 0.0
C856 C 0.44676 0.42054 0.11693 0.0
C857 C 0.42942 0.39814 0.14899 0.0
H858 H 0.83514 0.65569 0.69044 0.0
H859 H 0.7416 0.66623 0.60432 0.0
H860 H 0.77164 0.63149 0.55512 0.0
H861 H 0.82773 0.60129 0.53573 0.0
H862 H 0.92332 0.59758 0.62258 0.0
H863 H 0.88924 0.6261 0.67204 0.0
C864 C 0.82074 0.6501 0.66105 0.0
C865 C 0.7857 0.66354 0.65147 0.0
C866 C 0.8389 0.6313 0.63278 0.0
C867 C 0.76833 0.65622 0.61285 0.0
C868 C 0.78567 0.63639 0.5846 0.0
C869 C 0.84065 0.60625 0.5656 0.0
C870 C 0.87799 0.59692 0.57548 0.0
C871 C 0.82136 0.62418 0.59406 0.0
C872 C 0.89472 0.60434 0.61419 0.0
C873 C 0.87523 0.62073 0.64253 0.0
H874 H 0.3802 0.83516 0.68564 0.0
H875 H 0.27271 0.8792 0.67076 0.0
H876 H 0.30876 0.93287 0.62758 0.0
H877 H 0.36761 0.96309 0.58983 0.0
H878 H 0.47579 0.92059 0.60317 0.0
H879 H 0.44283 0.87088 0.65152 0.0
C880 C 0.36489 0.85684 0.6733 0.0
C881 C 0.32357 0.85262 0.68097 0.0
C882 C 0.38572 0.88766 0.64799 0.0
C883 C 0.30425 0.88116 0.66491 0.0
C884 C 0.32484 0.91201 0.64021 0.0
C885 C 0.38429 0.94322 0.60337 0.0
C886 C 0.42374 0.94468 0.59195 0.0
C887 C 0.3651 0.9148 0.63084 0.0
C888 C 0.44506 0.91937 0.61065 0.0
C889 C 0.4262 0.89099 0.6384 0.0
H890 H 0.22421 0.37035 0.66603 0.0
H891 H 0.11915 0.26295 0.68885 0.0
H892 H 0.0731 0.29145 0.6478 0.0
H893 H 0.06288 0.34611 0.60242 0.0
H894 H 0.16783 0.457 0.58597 0.0
H895 H 0.21264 0.42857 0.62731 0.0
C896 C 0.19119 0.35329 0.6622 0.0
C897 C 0.17543 0.31418 0.68038 0.0
C898 C 0.16445 0.37075 0.6395 0.0
C899 C 0.13233 0.29302 0.67535 0.0
C900 C 0.10589 0.30936 0.65171 0.0
C901 C 0.09537 0.36445 0.60833 0.0
C902 C 0.11139 0.40397 0.59047 0.0
C903 C 0.12153 0.34815 0.63326 0.0
C904 C 0.1539 0.42681 0.59901 0.0
C905 C 0.17997 0.41036 0.62264 0.0
H906 H 0.70967 0.16689 0.67352 0.0
H907 H 0.73522 0.27565 0.60144 0.0
H908 H 0.69835 0.22903 0.54563 0.0
H909 H 0.6466 0.16126 0.52256 0.0
H910 H 0.61832 0.05366 0.59605 0.0
H911 H 0.67111 0.09524 0.64556 0.0
C912 C 0.70873 0.18013 0.64528 0.0
C913 C 0.72444 0.2246 0.64157 0.0
C914 C 0.68705 0.15329 0.61369 0.0
C915 C 0.72263 0.24152 0.60496 0.0
C916 C 0.70163 0.2149 0.57312 0.0
C917 C 0.65307 0.14652 0.54891 0.0
C918 C 0.62792 0.10517 0.55643 0.0
C919 C 0.68183 0.17123 0.57781 0.0
C920 C 0.63706 0.08572 0.58997 0.0
C921 C 0.66679 0.10969 0.61847 0.0
H922 H 0.79291 0.26917 0.36483 0.0
H923 H 0.80949 0.36783 0.28243 0.0
H924 H 0.85443 0.42069 0.33056 0.0
H925 H 0.89623 0.43611 0.39264 0.0
H926 H 0.88544 0.33585 0.47283 0.0
H927 H 0.83008 0.28662 0.4299 0.0
C928 C 0.80604 0.30243 0.3579 0.0
C929 C 0.79859 0.31498 0.32051 0.0
C930 C 0.83265 0.33226 0.38539 0.0
C931 C 0.81543 0.35785 0.31125 0.0
C932 C 0.84094 0.38795 0.33869 0.0
C933 C 0.8807 0.40394 0.40127 0.0
C934 C 0.89468 0.38948 0.43567 0.0
C935 C 0.8507 0.37526 0.37548 0.0
C936 C 0.87496 0.34753 0.44636 0.0
C937 C 0.84367 0.3193 0.42168 0.0
H938 H 0.72178 0.84944 0.36474 0.0
H939 H 0.61831 0.7332 0.34788 0.0
H940 H 0.57941 0.76202 0.39307 0.0
H941 H 0.57316 0.82265 0.43294 0.0
H942 H 0.67735 0.93885 0.44908 0.0
H943 H 0.71783 0.90735 0.40878 0.0
C944 C 0.69082 0.83031 0.37125 0.0
C945 C 0.67255 0.78962 0.35285 0.0
C946 C 0.6688 0.84711 0.39692 0.0
C947 C 0.63278 0.76475 0.36174 0.0
C948 C 0.61056 0.78126 0.38741 0.0
C949 C 0.60483 0.84098 0.42794 0.0
C950 C 0.62193 0.88327 0.44364 0.0
C951 C 0.62797 0.82279 0.40449 0.0
C952 C 0.66323 0.90634 0.43722 0.0
C953 C 0.68645 0.88842 0.41408 0.0
H954 H 0.14582 0.69422 0.32157 0.0
H955 H 0.2119 0.60523 0.29232 0.0
H956 H 0.16264 0.54909 0.32452 0.0
H957 H 0.10726 0.5281 0.36776 0.0
H958 H 0.04448 0.61731 0.40308 0.0
H959 H 0.08452 0.6701 0.35983 0.0
C960 C 0.14933 0.66251 0.32214 0.0
C961 C 0.18306 0.65421 0.30547 0.0
C962 C 0.12109 0.63033 0.34112 0.0
C963 C 0.18683 0.6128 0.3058 0.0
C964 C 0.15846 0.5805 0.32383 0.0
C965 C 0.10161 0.55874 0.36505 0.0
C966 C 0.07379 0.56947 0.38856 0.0
C967 C 0.12631 0.5893 0.34242 0.0
C968 C 0.06589 0.60868 0.3849 0.0
C969 C 0.08926 0.63897 0.36081 0.0
H970 H 0.35082 0.14899 0.30167 0.0
H971 H 0.41717 0.27221 0.35787 0.0
H972 H 0.46865 0.24193 0.38805 0.0
H973 H 0.48734 0.17827 0.40577 0.0
H974 H 0.41638 0.05418 0.35373 0.0
H975 H 0.37521 0.08752 0.31247 0.0
C976 C 0.37668 0.16931 0.3204 0.0
C977 C 0.37983 0.21235 0.32865 0.0
C978 C 0.40556 0.15167 0.33759 0.0
C979 C 0.41392 0.23872 0.35194 0.0
C980 C 0.44333 0.22148 0.3689 0.0
C981 C 0.46395 0.15868 0.38432 0.0
C982 C 0.45436 0.11379 0.38303 0.0
C983 C 0.43863 0.17769 0.36285 0.0
C984 C 0.42401 0.08877 0.35525 0.0
C985 C 0.40012 0.10775 0.33216 0.0
H986 H 0.60075 0.7849 0.66299 0.0
H987 H 0.71907 0.88471 0.6702 0.0
H988 H 0.68527 0.9366 0.64923 0.0
H989 H 0.62452 0.9509 0.62008 0.0
H990 H 0.5066 0.85044 0.60712 0.0
H991 H 0.53715 0.80248 0.64183 0.0
C992 C 0.61892 0.81802 0.65989 0.0
C993 C 0.66225 0.83089 0.66697 0.0
C994 C 0.59929 0.84777 0.64768 0.0
C995 C 0.68563 0.87401 0.66406 0.0
C996 C 0.66635 0.90379 0.65245 0.0
C997 C 0.60507 0.91892 0.62574 0.0
C998 C 0.56394 0.90363 0.60952 0.0
C999 C 0.62343 0.89072 0.64311 0.0
C1000 C 0.5388 0.86266 0.61842 0.0
C1001 C 0.55639 0.83494 0.6377 0.0
H1002 H 0.64085 0.17058 0.29834 0.0
H1003 H 0.74144 0.11624 0.31368 0.0
H1004 H 0.70434 0.06905 0.36129 0.0
H1005 H 0.64692 0.04732 0.4019 0.0
H1006 H 0.54592 0.10101 0.38932 0.0
H1007 H 0.57937 0.14406 0.33684 0.0
C1008 C 0.6543 0.14801 0.31181 0.0
C1009 C 0.69406 0.14729 0.30292 0.0
C1010 C 0.633 0.12121 0.33979 0.0
C1011 C 0.71118 0.11791 0.32049 0.0
C1012 C 0.68999 0.09082 0.34766 0.0
C1013 C 0.63196 0.06836 0.3878 0.0
C1014 C 0.59443 0.07182 0.40037 0.0
C1015 C 0.65146 0.09298 0.35815 0.0
C1016 C 0.57514 0.09836 0.38084 0.0
C1017 C 0.59431 0.12295 0.35077 0.0
H1018 H 0.83161 0.71238 0.35283 0.0
H1019 H 0.82452 0.63358 0.24927 0.0
H1020 H 0.85933 0.58944 0.28535 0.0
H1021 H 0.89285 0.57276 0.34758 0.0
H1022 H 0.90487 0.6572 0.44855 0.0
H1023 H 0.86774 0.6986 0.41282 0.0
C1024 C 0.8375 0.68546 0.33808 0.0
C1025 C 0.82483 0.67642 0.29817 0.0
C1026 C 0.85887 0.66084 0.35885 0.0
C1027 C 0.83367 0.64162 0.27981 0.0
C1028 C 0.85366 0.61617 0.30058 0.0
C1029 C 0.8874 0.60023 0.36169 0.0
C1030 C 0.90208 0.61155 0.4011 0.0
C1031 C 0.8666 0.62534 0.34028 0.0
C1032 C 0.89459 0.64764 0.41839 0.0
C1033 C 0.87305 0.67147 0.39793 0.0
H1034 H 0.29992 0.78074 0.37888 0.0
H1035 H 0.32666 0.86447 0.28367 0.0
H1036 H 0.36076 0.92556 0.32872 0.0
H1037 H 0.39789 0.94973 0.39287 0.0
H1038 H 0.37094 0.86576 0.48779 0.0
H1039 H 0.32008 0.81102 0.44582 0.0
C1040 C 0.31228 0.81263 0.36828 0.0
C1041 C 0.31232 0.81812 0.32831 0.0
C1042 C 0.33164 0.84762 0.39433 0.0
C1043 C 0.32719 0.85953 0.31453 0.0
C1044 C 0.34668 0.89449 0.34023 0.0
C1045 C 0.37913 0.92043 0.40476 0.0
C1046 C 0.3888 0.91094 0.44274 0.0
C1047 C 0.35123 0.88836 0.37999 0.0
C1048 C 0.36425 0.87315 0.45821 0.0
C1049 C 0.33569 0.84158 0.4341 0.0
H1050 H 0.24897 0.35813 0.35447 0.0
H1051 H 0.13938 0.27661 0.28873 0.0
H1052 H 0.09525 0.30376 0.32833 0.0
H1053 H 0.08661 0.35111 0.38124 0.0
H1054 H 0.19506 0.43712 0.44485 0.0
H1055 H 0.24005 0.40831 0.40688 0.0
C1056 C 0.21546 0.34631 0.34895 0.0
C1057 C 0.19778 0.31521 0.3184 0.0
C1058 C 0.18971 0.3631 0.37152 0.0
C1059 C 0.15415 0.30068 0.31165 0.0
C1060 C 0.12866 0.31616 0.33444 0.0
C1061 C 0.12009 0.3636 0.38694 0.0
C1062 C 0.13712 0.39628 0.41621 0.0
C1063 C 0.14595 0.34748 0.36436 0.0
C1064 C 0.18078 0.41214 0.42257 0.0
C1065 C 0.20667 0.39553 0.40084 0.0
H1066 H 0.30482 0.20654 0.59883 0.0
H1067 H 0.42046 0.28664 0.65614 0.0
H1068 H 0.45896 0.25019 0.61753 0.0
H1069 H 0.45874 0.19095 0.57307 0.0
H1070 H 0.34241 0.10608 0.52063 0.0
H1071 H 0.30479 0.14874 0.55244 0.0
C1072 C 0.33852 0.21663 0.6022 0.0
C1073 C 0.36001 0.24929 0.62996 0.0
C1074 C 0.36004 0.19408 0.58152 0.0
C1075 C 0.40351 0.26172 0.63466 0.0
C1076 C 0.42537 0.24066 0.61288 0.0
C1077 C 0.42517 0.18191 0.56825 0.0
C1078 C 0.40336 0.14525 0.54466 0.0
C1079 C 0.40382 0.20599 0.58714 0.0
C1080 C 0.35987 0.13391 0.53894 0.0
C1081 C 0.3384 0.15839 0.55694 0.0
H1082 H 0.87135 0.3933 0.70888 0.0
H1083 H 0.87935 0.27326 0.6614 0.0
H1084 H 0.92358 0.31101 0.61232 0.0
H1085 H 0.94721 0.37619 0.57516 0.0
H1086 H 0.93198 0.49392 0.61962 0.0
H1087 H 0.90383 0.45936 0.6779 0.0
C1088 C 0.88337 0.37541 0.68827 0.0
C1089 C 0.87106 0.33057 0.68793 0.0
C1090 C 0.9072 0.397 0.65931 0.0
C1091 C 0.88781 0.30788 0.66179 0.0
C1092 C 0.91293 0.32939 0.63357 0.0
C1093 C 0.93884 0.39425 0.59833 0.0
C1094 C 0.94108 0.43704 0.59362 0.0
C1095 C 0.92091 0.37364 0.63082 0.0
C1096 C 0.93008 0.46069 0.62314 0.0
C1097 C 0.91391 0.44097 0.65622 0.0
H1098 H 0.23828 0.64396 0.63613 0.0
H1099 H 0.20109 0.75787 0.64403 0.0
H1100 H 0.14822 0.72982 0.59034 0.0
H1101 H 0.10639 0.66893 0.54902 0.0
H1102 H 0.13769 0.55095 0.54665 0.0
H1103 H 0.19999 0.5849 0.58927 0.0
C1104 C 0.21922 0.66288 0.62519 0.0
C1105 C 0.22284 0.70251 0.6437 0.0
C1106 C 0.18783 0.64568 0.59553 0.0
C1107 C 0.19808 0.72697 0.63013 0.0
C1108 C 0.16802 0.71097 0.59953 0.0
C1109 C 0.12712 0.65068 0.55713 0.0
C1110 C 0.11688 0.60717 0.54512 0.0
C1111 C 0.16156 0.66966 0.58317 0.0
C1112 C 0.14453 0.58436 0.55565 0.0
C1113 C 0.18008 0.6037 0.58026 0.0
loop_
_geom_bond_atom_site_label_1
_geom_bond_atom_site_label_2
_geom_bond_distance
_geom_bond_site_symmetry_2
_ccdc_geom_bond_type
Dy0 O4 2.398 . S
Dy0 O5 2.491 . S
Dy0 O6 2.403 . S
Dy0 O7 2.664 . S
Dy0 O11 2.326 . S
Dy0 O15 2.310 . S
Dy0 O16 2.351 . S
C1 O12 1.185 . S
C1 O13 1.355 . S
C2 O4 1.185 . S
C2 O5 1.355 . S
Dy3 O7 2.310 . S
Dy3 O10 2.351 . S
Dy3 O12 2.398 . S
Dy3 O13 2.491 . S
Dy3 O14 2.403 . S
Dy3 O15 2.664 . S
Dy3 O17 2.326 . S
O4 Dy0 2.398 . S
O4 C2 1.185 . S
O5 Dy0 2.491 . S
O5 C2 1.355 . S
O6 Dy0 2.403 . S
O6 C8 1.254 . S
O7 Dy0 2.664 . S
O7 Dy3 2.310 . S
O7 C8 1.268 . S
C8 O6 1.254 . S
C8 O7 1.268 . S
C9 O14 1.254 . S
C9 O15 1.268 . S
O10 Dy3 2.351 . S
O10 C18 1.249 . S
O11 Dy0 2.326 . S
O11 C18 1.267 . S
O12 C1 1.185 . S
O12 Dy3 2.398 . S
O13 C1 1.355 . S
O13 Dy3 2.491 . S
O14 Dy3 2.403 . S
O14 C9 1.254 . S
O15 Dy0 2.310 . S
O15 Dy3 2.664 . S
O15 C9 1.268 . S
O16 Dy0 2.351 . S
O16 C19 1.249 . S
O17 Dy3 2.326 . S
O17 C19 1.267 . S
C18 O10 1.249 . S
C18 O11 1.267 . S
C19 O16 1.249 . S
C19 O17 1.267 . S
Dy20 O24 2.398 . S
Dy20 O25 2.491 . S
Dy20 O26 2.403 . S
Dy20 O27 2.664 . S
Dy20 O31 2.326 . S
Dy20 O35 2.310 . S
Dy20 O36 2.351 . S
C21 O32 1.185 . S
C21 O33 1.355 . S
C22 O24 1.185 . S
C22 O25 1.355 . S
Dy23 O27 2.310 . S
Dy23 O30 2.351 . S
Dy23 O32 2.398 . S
Dy23 O33 2.491 . S
Dy23 O34 2.403 . S
Dy23 O35 2.664 . S
Dy23 O37 2.326 . S
O24 Dy20 2.398 . S
O24 C22 1.185 . S
O25 Dy20 2.491 . S
O25 C22 1.355 . S
O26 Dy20 2.403 . S
O26 C28 1.254 . S
O27 Dy20 2.664 . S
O27 Dy23 2.310 . S
O27 C28 1.268 . S
C28 O26 1.254 . S
C28 O27 1.268 . S
C29 O34 1.254 . S
C29 O35 1.268 . S
O30 Dy23 2.351 . S
O30 C38 1.249 . S
O31 Dy20 2.326 . S
O31 C38 1.267 . S
O32 C21 1.185 . S
O32 Dy23 2.398 . S
O33 C21 1.355 . S
O33 Dy23 2.491 . S
O34 Dy23 2.403 . S
O34 C29 1.254 . S
O35 Dy20 2.310 . S
O35 Dy23 2.664 . S
O35 C29 1.268 . S
O36 Dy20 2.351 . S
O36 C39 1.249 . S
O37 Dy23 2.326 . S
O37 C39 1.267 . S
C38 O30 1.249 . S
C38 O31 1.267 . S
C39 O36 1.249 . S
C39 O37 1.267 . S
Dy40 O44 2.398 . S
Dy40 O45 2.491 . S
Dy40 O46 2.403 . S
Dy40 O47 2.664 . S
Dy40 O51 2.326 . S
Dy40 O55 2.310 . S
Dy40 O56 2.351 . S
C41 O52 1.185 . S
C41 O53 1.355 . S
C42 O44 1.185 . S
C42 O45 1.355 . S
Dy43 O47 2.310 . S
Dy43 O50 2.351 . S
Dy43 O52 2.398 . S
Dy43 O53 2.491 . S
Dy43 O54 2.403 . S
Dy43 O55 2.664 . S
Dy43 O57 2.326 . S
O44 Dy40 2.398 . S
O44 C42 1.185 . S
O45 Dy40 2.491 . S
O45 C42 1.355 . S
O46 Dy40 2.403 . S
O46 C48 1.254 . S
O47 Dy40 2.664 . S
O47 Dy43 2.310 . S
O47 C48 1.268 . S
C48 O46 1.254 . S
C48 O47 1.268 . S
C49 O54 1.254 . S
C49 O55 1.268 . S
O50 Dy43 2.351 . S
O50 C58 1.249 . S
O51 Dy40 2.326 . S
O51 C58 1.267 . S
O52 C41 1.185 . S
O52 Dy43 2.398 . S
O53 C41 1.355 . S
O53 Dy43 2.491 . S
O54 Dy43 2.403 . S
O54 C49 1.254 . S
O55 Dy40 2.310 . S
O55 Dy43 2.664 . S
O55 C49 1.268 . S
O56 Dy40 2.351 . S
O56 C59 1.249 . S
O57 Dy43 2.326 . S
O57 C59 1.267 . S
C58 O50 1.249 . S
C58 O51 1.267 . S
C59 O56 1.249 . S
C59 O57 1.267 . S
Dy60 O64 2.398 . S
Dy60 O65 2.491 . S
Dy60 O66 2.403 . S
Dy60 O67 2.664 . S
Dy60 O71 2.326 . S
Dy60 O75 2.310 . S
Dy60 O76 2.351 . S
C61 O72 1.185 . S
C61 O73 1.355 . S
C62 O64 1.185 . S
C62 O65 1.355 . S
Dy63 O67 2.310 . S
Dy63 O70 2.351 . S
Dy63 O72 2.398 . S
Dy63 O73 2.491 . S
Dy63 O74 2.403 . S
Dy63 O75 2.664 . S
Dy63 O77 2.326 . S
O64 Dy60 2.398 . S
O64 C62 1.185 . S
O65 Dy60 2.491 . S
O65 C62 1.355 . S
O66 Dy60 2.403 . S
O66 C68 1.254 . S
O67 Dy60 2.664 . S
O67 Dy63 2.310 . S
O67 C68 1.268 . S
C68 O66 1.254 . S
C68 O67 1.268 . S
C69 O74 1.254 . S
C69 O75 1.268 . S
O70 Dy63 2.351 . S
O70 C78 1.249 . S
O71 Dy60 2.326 . S
O71 C78 1.267 . S
O72 C61 1.185 . S
O72 Dy63 2.398 . S
O73 C61 1.355 . S
O73 Dy63 2.491 . S
O74 Dy63 2.403 . S
O74 C69 1.254 . S
O75 Dy60 2.310 . S
O75 Dy63 2.664 . S
O75 C69 1.268 . S
O76 Dy60 2.351 . S
O76 C79 1.249 . S
O77 Dy63 2.326 . S
O77 C79 1.267 . S
C78 O70 1.249 . S
C78 O71 1.267 . S
C79 O76 1.249 . S
C79 O77 1.267 . S
Dy80 O84 2.398 . S
Dy80 O85 2.491 . S
Dy80 O86 2.403 . S
Dy80 O87 2.664 . S
Dy80 O91 2.326 . S
Dy80 O95 2.310 . S
Dy80 O96 2.351 . S
C81 O92 1.185 . S
C81 O93 1.355 . S
C82 O84 1.185 . S
C82 O85 1.355 . S
Dy83 O87 2.310 . S
Dy83 O90 2.351 . S
Dy83 O92 2.398 . S
Dy83 O93 2.491 . S
Dy83 O94 2.403 . S
Dy83 O95 2.664 . S
Dy83 O97 2.326 . S
O84 Dy80 2.398 . S
O84 C82 1.185 . S
O85 Dy80 2.491 . S
O85 C82 1.355 . S
O86 Dy80 2.403 . S
O86 C88 1.254 . S
O87 Dy80 2.664 . S
O87 Dy83 2.310 . S
O87 C88 1.268 . S
C88 O86 1.254 . S
C88 O87 1.268 . S
C89 O94 1.254 . S
C89 O95 1.268 . S
O90 Dy83 2.351 . S
O90 C98 1.249 . S
O91 Dy80 2.326 . S
O91 C98 1.267 . S
O92 C81 1.185 . S
O92 Dy83 2.398 . S
O93 C81 1.355 . S
O93 Dy83 2.491 . S
O94 Dy83 2.403 . S
O94 C89 1.254 . S
O95 Dy80 2.310 . S
O95 Dy83 2.664 . S
O95 C89 1.268 . S
O96 Dy80 2.351 . S
O96 C99 1.249 . S
O97 Dy83 2.326 . S
O97 C99 1.267 . S
C98 O90 1.249 . S
C98 O91 1.267 . S
C99 O96 1.249 . S
C99 O97 1.267 . S
Dy100 O104 2.398 . S
Dy100 O105 2.491 . S
Dy100 O106 2.403 . S
Dy100 O107 2.664 . S
Dy100 O111 2.326 . S
Dy100 O115 2.310 . S
Dy100 O116 2.351 . S
C101 O112 1.185 . S
C101 O113 1.355 . S
C102 O104 1.185 . S
C102 O105 1.355 . S
Dy103 O107 2.310 . S
Dy103 O110 2.351 . S
Dy103 O112 2.398 . S
Dy103 O113 2.491 . S
Dy103 O114 2.403 . S
Dy103 O115 2.664 . S
Dy103 O117 2.326 . S
O104 Dy100 2.398 . S
O104 C102 1.185 . S
O105 Dy100 2.491 . S
O105 C102 1.355 . S
O106 Dy100 2.403 . S
O106 C108 1.254 . S
O107 Dy100 2.664 . S
O107 Dy103 2.310 . S
O107 C108 1.268 . S
C108 O106 1.254 . S
C108 O107 1.268 . S
C109 O114 1.254 . S
C109 O115 1.268 . S
O110 Dy103 2.351 . S
O110 C118 1.249 . S
O111 Dy100 2.326 . S
O111 C118 1.267 . S
O112 C101 1.185 . S
O112 Dy103 2.398 . S
O113 C101 1.355 . S
O113 Dy103 2.491 . S
O114 Dy103 2.403 . S
O114 C109 1.254 . S
O115 Dy100 2.310 . S
O115 Dy103 2.664 . S
O115 C109 1.268 . S
O116 Dy100 2.351 . S
O116 C119 1.249 . S
O117 Dy103 2.326 . S
O117 C119 1.267 . S
C118 O110 1.249 . S
C118 O111 1.267 . S
C119 O116 1.249 . S
C119 O117 1.267 . S
Dy120 O124 2.398 . S
Dy120 O125 2.491 . S
Dy120 O126 2.403 . S
Dy120 O127 2.664 . S
Dy120 O131 2.326 . S
Dy120 O135 2.310 . S
Dy120 O136 2.351 . S
C121 O132 1.185 . S
C121 O133 1.355 . S
C122 O124 1.185 . S
C122 O125 1.355 . S
Dy123 O127 2.310 . S
Dy123 O130 2.351 . S
Dy123 O132 2.398 . S
Dy123 O133 2.491 . S
Dy123 O134 2.403 . S
Dy123 O135 2.664 . S
Dy123 O137 2.326 . S
O124 Dy120 2.398 . S
O124 C122 1.185 . S
O125 Dy120 2.491 . S
O125 C122 1.355 . S
O126 Dy120 2.403 . S
O126 C128 1.254 . S
O127 Dy120 2.664 . S
O127 Dy123 2.310 . S
O127 C128 1.268 . S
C128 O126 1.254 . S
C128 O127 1.268 . S
C129 O134 1.254 . S
C129 O135 1.268 . S
O130 Dy123 2.351 . S
O130 C138 1.249 . S
O131 Dy120 2.326 . S
O131 C138 1.267 . S
O132 C121 1.185 . S
O132 Dy123 2.398 . S
O133 C121 1.355 . S
O133 Dy123 2.491 . S
O134 Dy123 2.403 . S
O134 C129 1.254 . S
O135 Dy120 2.310 . S
O135 Dy123 2.664 . S
O135 C129 1.268 . S
O136 Dy120 2.351 . S
O136 C139 1.249 . S
O137 Dy123 2.326 . S
O137 C139 1.267 . S
C138 O130 1.249 . S
C138 O131 1.267 . S
C139 O136 1.249 . S
C139 O137 1.267 . S
Dy140 O144 2.398 . S
Dy140 O145 2.491 . S
Dy140 O146 2.403 . S
Dy140 O147 2.664 . S
Dy140 O151 2.326 . S
Dy140 O155 2.310 . S
Dy140 O156 2.351 . S
C141 O152 1.185 . S
C141 O153 1.355 . S
C142 O144 1.185 . S
C142 O145 1.355 . S
Dy143 O147 2.310 . S
Dy143 O150 2.351 . S
Dy143 O152 2.398 . S
Dy143 O153 2.491 . S
Dy143 O154 2.403 . S
Dy143 O155 2.664 . S
Dy143 O157 2.326 . S
O144 Dy140 2.398 . S
O144 C142 1.185 . S
O145 Dy140 2.491 . S
O145 C142 1.355 . S
O146 Dy140 2.403 . S
O146 C148 1.254 . S
O147 Dy140 2.664 . S
O147 Dy143 2.310 . S
O147 C148 1.268 . S
C148 O146 1.254 . S
C148 O147 1.268 . S
C149 O154 1.254 . S
C149 O155 1.268 . S
O150 Dy143 2.351 . S
O150 C158 1.249 . S
O151 Dy140 2.326 . S
O151 C158 1.267 . S
O152 C141 1.185 . S
O152 Dy143 2.398 . S
O153 C141 1.355 . S
O153 Dy143 2.491 . S
O154 Dy143 2.403 . S
O154 C149 1.254 . S
O155 Dy140 2.310 . S
O155 Dy143 2.664 . S
O155 C149 1.268 . S
O156 Dy140 2.351 . S
O156 C159 1.249 . S
O157 Dy143 2.326 . S
O157 C159 1.267 . S
C158 O150 1.249 . S
C158 O151 1.267 . S
C159 O156 1.249 . S
C159 O157 1.267 . S
C160 O172 1.241 . S
C160 O173 1.280 . S
C161 O174 1.277 . S
C161 O175 1.245 . S
C162 O186 1.247 . S
C162 O188 1.289 . S
Mg163 O164 1.926 . S
Mg163 O173 1.984 . S
Mg163 O175 1.988 . S
Mg163 O176 2.061 1_655 S
O164 Mg163 1.926 . S
O164 Mg165 1.989 . S
O164 Mg166 1.917 1_655 S
Mg165 O164 1.989 . S
Mg165 O172 2.051 . S
Mg165 O174 2.050 . S
Mg165 O180 2.029 1_545 S
Mg165 O188 2.229 1_545 S
Mg166 O164 1.917 1_455 S
Mg166 O167 1.917 1_545 S
Mg166 O177 2.106 . S
Mg166 O179 2.078 1_445 S
Mg166 O188 2.106 1_445 S
Mg166 O189 2.079 . S
O167 Mg166 1.917 1_565 S
O167 Mg168 1.926 . S
O167 Mg169 1.988 . S
Mg168 O167 1.926 . S
Mg168 O182 1.984 . S
Mg168 O185 1.988 . S
Mg168 O186 2.061 1_455 S
Mg169 O167 1.988 . S
Mg169 O177 2.234 1_565 S
Mg169 O181 2.046 . S
Mg169 O183 2.045 . S
Mg169 O190 2.035 1_565 S
C170 O176 1.247 . S
C170 O177 1.289 . S
C171 O189 1.245 . S
C171 O190 1.274 . S
O172 C160 1.241 . S
O172 Mg165 2.051 . S
O173 C160 1.280 . S
O173 Mg163 1.984 . S
O174 C161 1.277 . S
O174 Mg165 2.050 . S
O175 C161 1.245 . S
O175 Mg163 1.988 . S
O176 Mg163 2.061 1_455 S
O176 C170 1.247 . S
O177 Mg166 2.106 . S
O177 Mg169 2.234 1_545 S
O177 C170 1.289 . S
C178 O179 1.245 . S
C178 O180 1.274 . S
O179 Mg166 2.078 1_665 S
O179 C178 1.245 . S
O180 Mg165 2.029 1_565 S
O180 C178 1.274 . S
O181 Mg169 2.046 . S
O181 C184 1.241 . S
O182 Mg168 1.984 . S
O182 C184 1.280 . S
O183 Mg169 2.045 . S
O183 C187 1.277 . S
C184 O181 1.241 . S
C184 O182 1.280 . S
O185 Mg168 1.988 . S
O185 C187 1.245 . S
O186 C162 1.247 . S
O186 Mg168 2.061 1_655 S
C187 O183 1.277 . S
C187 O185 1.245 . S
O188 C162 1.289 . S
O188 Mg165 2.229 1_565 S
O188 Mg166 2.106 1_665 S
O189 Mg166 2.079 . S
O189 C171 1.245 . S
O190 Mg169 2.035 1_545 S
O190 C171 1.274 . S
C191 O203 1.241 . S
C191 O204 1.280 . S
C192 O205 1.277 . S
C192 O206 1.245 . S
C193 O217 1.247 . S
C193 O219 1.289 . S
Mg194 O195 1.926 . S
Mg194 O204 1.984 . S
Mg194 O206 1.988 1_554 S
Mg194 O207 2.061 . S
O195 Mg194 1.926 . S
O195 Mg196 1.989 1_554 S
O195 Mg197 1.917 . S
Mg196 O195 1.989 1_556 S
Mg196 O203 2.051 1_556 S
Mg196 O205 2.050 . S
Mg196 O211 2.029 1_546 S
Mg196 O219 2.229 1_545 S
Mg197 O195 1.917 . S
Mg197 O198 1.916 1_544 S
Mg197 O208 2.107 . S
Mg197 O210 2.079 1_545 S
Mg197 O219 2.106 1_544 S
Mg197 O220 2.079 1_554 S
O198 Mg197 1.916 1_566 S
O198 Mg199 1.926 . S
O198 Mg200 1.988 1_556 S
Mg199 O198 1.926 . S
Mg199 O213 1.984 . S
Mg199 O216 1.988 1_556 S
Mg199 O217 2.061 . S
Mg200 O198 1.988 1_554 S
Mg200 O208 2.234 1_565 S
Mg200 O212 2.046 1_554 S
Mg200 O214 2.045 . S
Mg200 O221 2.035 1_564 S
C201 O207 1.247 . S
C201 O208 1.289 . S
C202 O220 1.245 . S
C202 O221 1.274 . S
O203 C191 1.241 . S
O203 Mg196 2.051 1_554 S
O204 C191 1.280 . S
O204 Mg194 1.984 . S
O205 C192 1.277 . S
O205 Mg196 2.050 . S
O206 C192 1.245 . S
O206 Mg194 1.988 1_556 S
O207 Mg194 2.061 . S
O207 C201 1.247 . S
O208 Mg197 2.107 . S
O208 Mg200 2.234 1_545 S
O208 C201 1.289 . S
C209 O210 1.245 . S
C209 O211 1.274 . S
O210 Mg197 2.079 1_565 S
O210 C209 1.245 . S
O211 Mg196 2.029 1_564 S
O211 C209 1.274 . S
O212 Mg200 2.046 1_556 S
O212 C215 1.241 . S
O213 Mg199 1.984 . S
O213 C215 1.280 . S
O214 Mg200 2.045 . S
O214 C218 1.277 . S
C215 O212 1.241 . S
C215 O213 1.280 . S
O216 Mg199 1.988 1_554 S
O216 C218 1.245 . S
O217 C193 1.247 . S
O217 Mg199 2.061 . S
C218 O214 1.277 . S
C218 O216 1.245 . S
O219 C193 1.289 . S
O219 Mg196 2.229 1_565 S
O219 Mg197 2.106 1_566 S
O220 Mg197 2.079 1_556 S
O220 C202 1.245 . S
O221 Mg200 2.035 1_546 S
O221 C202 1.274 . S
C222 O234 1.241 . S
C222 O235 1.280 . S
C223 O236 1.277 . S
C223 O237 1.245 . S
C224 O248 1.247 . S
C224 O250 1.289 . S
Mg225 O226 1.926 . S
Mg225 O235 1.984 . S
Mg225 O237 1.988 1_554 S
Mg225 O238 2.061 1_655 S
O226 Mg225 1.926 . S
O226 Mg227 1.986 1_554 S
O226 Mg228 1.917 1_655 S
Mg227 O226 1.986 1_556 S
Mg227 O234 2.042 1_556 S
Mg227 O236 2.041 . S
Mg227 O242 2.038 1_556 S
Mg227 O250 2.238 . S
Mg228 O226 1.917 1_455 S
Mg228 O229 1.917 1_554 S
Mg228 O239 2.107 . S
Mg228 O241 2.079 1_455 S
Mg228 O250 2.106 1_454 S
Mg228 O251 2.078 1_554 S
O229 Mg228 1.917 1_556 S
O229 Mg230 1.926 . S
O229 Mg231 1.986 1_556 S
Mg230 O229 1.926 . S
Mg230 O244 1.984 . S
Mg230 O247 1.988 1_556 S
Mg230 O248 2.061 1_455 S
Mg231 O229 1.986 1_554 S
Mg231 O239 2.238 . S
Mg231 O243 2.042 1_554 S
Mg231 O245 2.041 . S
Mg231 O252 2.038 1_554 S
C232 O238 1.247 . S
C232 O239 1.289 . S
C233 O251 1.245 . S
C233 O252 1.274 . S
O234 C222 1.241 . S
O234 Mg227 2.042 1_554 S
O235 C222 1.280 . S
O235 Mg225 1.984 . S
O236 C223 1.277 . S
O236 Mg227 2.041 . S
O237 C223 1.245 . S
O237 Mg225 1.988 1_556 S
O238 Mg225 2.061 1_455 S
O238 C232 1.247 . S
O239 Mg228 2.107 . S
O239 Mg231 2.238 . S
O239 C232 1.289 . S
C240 O241 1.245 . S
C240 O242 1.274 . S
O241 Mg228 2.079 1_655 S
O241 C240 1.245 . S
O242 Mg227 2.038 1_554 S
O242 C240 1.274 . S
O243 Mg231 2.042 1_556 S
O243 C246 1.241 . S
O244 Mg230 1.984 . S
O244 C246 1.280 . S
O245 Mg231 2.041 . S
O245 C249 1.277 . S
C246 O243 1.241 . S
C246 O244 1.280 . S
O247 Mg230 1.988 1_554 S
O247 C249 1.245 . S
O248 C224 1.247 . S
O248 Mg230 2.061 1_655 S
C249 O245 1.277 . S
C249 O247 1.245 . S
O250 C224 1.289 . S
O250 Mg227 2.238 . S
O250 Mg228 2.106 1_656 S
O251 Mg228 2.078 1_556 S
O251 C233 1.245 . S
O252 Mg231 2.038 1_556 S
O252 C233 1.274 . S
C253 O265 1.241 . S
C253 O266 1.280 . S
C254 O267 1.277 . S
C254 O268 1.245 . S
C255 O279 1.247 . S
C255 O281 1.289 . S
Mg256 O257 1.926 . S
Mg256 O266 1.984 . S
Mg256 O268 1.988 1_554 S
Mg256 O269 2.061 . S
O257 Mg256 1.926 . S
O257 Mg258 1.986 1_554 S
O257 Mg259 1.917 . S
Mg258 O257 1.986 1_556 S
Mg258 O265 2.042 1_556 S
Mg258 O267 2.041 . S
Mg258 O273 2.038 1_556 S
Mg258 O281 2.238 . S
Mg259 O257 1.917 . S
Mg259 O260 1.917 1_554 S
Mg259 O270 2.107 . S
Mg259 O272 2.079 . S
Mg259 O281 2.106 1_554 S
Mg259 O282 2.078 1_554 S
O260 Mg259 1.917 1_556 S
O260 Mg261 1.926 . S
O260 Mg262 1.986 1_556 S
Mg261 O260 1.926 . S
Mg261 O275 1.984 . S
Mg261 O278 1.988 1_556 S
Mg261 O279 2.061 . S
Mg262 O260 1.986 1_554 S
Mg262 O270 2.238 . S
Mg262 O274 2.042 1_554 S
Mg262 O276 2.041 . S
Mg262 O283 2.038 1_554 S
C263 O269 1.247 . S
C263 O270 1.289 . S
C264 O282 1.245 . S
C264 O283 1.274 . S
O265 C253 1.241 . S
O265 Mg258 2.042 1_554 S
O266 C253 1.280 . S
O266 Mg256 1.984 . S
O267 C254 1.277 . S
O267 Mg258 2.041 . S
O268 C254 1.245 . S
O268 Mg256 1.988 1_556 S
O269 Mg256 2.061 . S
O269 C263 1.247 . S
O270 Mg259 2.107 . S
O270 Mg262 2.238 . S
O270 C263 1.289 . S
C271 O272 1.245 . S
C271 O273 1.274 . S
O272 Mg259 2.079 . S
O272 C271 1.245 . S
O273 Mg258 2.038 1_554 S
O273 C271 1.274 . S
O274 Mg262 2.042 1_556 S
O274 C277 1.241 . S
O275 Mg261 1.984 . S
O275 C277 1.280 . S
O276 Mg262 2.041 . S
O276 C280 1.277 . S
C277 O274 1.241 . S
C277 O275 1.280 . S
O278 Mg261 1.988 1_554 S
O278 C280 1.245 . S
O279 C255 1.247 . S
O279 Mg261 2.061 . S
C280 O276 1.277 . S
C280 O278 1.245 . S
O281 C255 1.289 . S
O281 Mg258 2.238 . S
O281 Mg259 2.106 1_556 S
O282 Mg259 2.078 1_556 S
O282 C264 1.245 . S
O283 Mg262 2.038 1_556 S
O283 C264 1.274 . S
C284 O296 1.241 . S
C284 O297 1.280 . S
C285 O298 1.277 . S
C285 O299 1.245 . S
C286 O310 1.247 . S
C286 O312 1.289 . S
Mg287 O288 1.926 . S
Mg287 O297 1.984 . S
Mg287 O299 1.988 . S
Mg287 O300 2.061 1_655 S
O288 Mg287 1.926 . S
O288 Mg289 1.986 . S
O288 Mg290 1.917 1_655 S
Mg289 O288 1.986 . S
Mg289 O296 2.042 . S
Mg289 O298 2.041 . S
Mg289 O304 2.038 . S
Mg289 O312 2.238 . S
Mg290 O288 1.917 1_455 S
Mg290 O291 1.917 . S
Mg290 O301 2.106 . S
Mg290 O303 2.079 1_455 S
Mg290 O312 2.106 1_455 S
Mg290 O313 2.079 . S
O291 Mg290 1.917 . S
O291 Mg292 1.926 . S
O291 Mg293 1.986 . S
Mg292 O291 1.926 . S
Mg292 O306 1.984 . S
Mg292 O309 1.988 . S
Mg292 O310 2.061 1_455 S
Mg293 O291 1.986 . S
Mg293 O301 2.238 . S
Mg293 O305 2.042 . S
Mg293 O307 2.041 . S
Mg293 O314 2.038 . S
C294 O300 1.247 . S
C294 O301 1.289 . S
C295 O313 1.245 . S
C295 O314 1.274 . S
O296 C284 1.241 . S
O296 Mg289 2.042 . S
O297 C284 1.280 . S
O297 Mg287 1.984 . S
O298 C285 1.277 . S
O298 Mg289 2.041 . S
O299 C285 1.245 . S
O299 Mg287 1.988 . S
O300 Mg287 2.061 1_455 S
O300 C294 1.247 . S
O301 Mg290 2.106 . S
O301 Mg293 2.238 . S
O301 C294 1.289 . S
C302 O303 1.245 . S
C302 O304 1.274 . S
O303 Mg290 2.079 1_655 S
O303 C302 1.245 . S
O304 Mg289 2.038 . S
O304 C302 1.274 . S
O305 Mg293 2.042 . S
O305 C308 1.241 . S
O306 Mg292 1.984 . S
O306 C308 1.280 . S
O307 Mg293 2.041 . S
O307 C311 1.277 . S
C308 O305 1.241 . S
C308 O306 1.280 . S
O309 Mg292 1.988 . S
O309 C311 1.245 . S
O310 C286 1.247 . S
O310 Mg292 2.061 1_655 S
C311 O307 1.277 . S
C311 O309 1.245 . S
O312 C286 1.289 . S
O312 Mg289 2.238 . S
O312 Mg290 2.106 1_655 S
O313 Mg290 2.079 . S
O313 C295 1.245 . S
O314 Mg293 2.038 . S
O314 C295 1.274 . S
C315 O327 1.241 . S
C315 O328 1.280 . S
C316 O329 1.277 . S
C316 O330 1.245 . S
C317 O341 1.247 . S
C317 O343 1.289 . S
Mg318 O319 1.926 . S
Mg318 O328 1.984 . S
Mg318 O330 1.988 . S
Mg318 O331 2.061 . S
O319 Mg318 1.926 . S
O319 Mg320 1.989 . S
O319 Mg321 1.917 . S
Mg320 O319 1.989 . S
Mg320 O327 2.051 . S
Mg320 O329 2.050 . S
Mg320 O335 2.029 1_545 S
Mg320 O343 2.229 1_545 S
Mg321 O319 1.917 . S
Mg321 O322 1.917 1_545 S
Mg321 O332 2.106 . S
Mg321 O334 2.078 1_545 S
Mg321 O343 2.106 1_545 S
Mg321 O344 2.079 . S
O322 Mg321 1.917 1_565 S
O322 Mg323 1.926 . S
O322 Mg324 1.988 . S
Mg323 O322 1.926 . S
Mg323 O337 1.984 . S
Mg323 O340 1.988 . S
Mg323 O341 2.061 . S
Mg324 O322 1.988 . S
Mg324 O332 2.234 1_565 S
Mg324 O336 2.046 . S
Mg324 O338 2.045 . S
Mg324 O345 2.035 1_565 S
C325 O331 1.247 . S
C325 O332 1.289 . S
C326 O344 1.245 . S
C326 O345 1.274 . S
O327 C315 1.241 . S
O327 Mg320 2.051 . S
O328 C315 1.280 . S
O328 Mg318 1.984 . S
O329 C316 1.277 . S
O329 Mg320 2.050 . S
O330 C316 1.245 . S
O330 Mg318 1.988 . S
O331 Mg318 2.061 . S
O331 C325 1.247 . S
O332 Mg321 2.106 . S
O332 Mg324 2.234 1_545 S
O332 C325 1.289 . S
C333 O334 1.245 . S
C333 O335 1.274 . S
O334 Mg321 2.078 1_565 S
O334 C333 1.245 . S
O335 Mg320 2.029 1_565 S
O335 C333 1.274 . S
O336 Mg324 2.046 . S
O336 C339 1.241 . S
O337 Mg323 1.984 . S
O337 C339 1.280 . S
O338 Mg324 2.045 . S
O338 C342 1.277 . S
C339 O336 1.241 . S
C339 O337 1.280 . S
O340 Mg323 1.988 . S
O340 C342 1.245 . S
O341 C317 1.247 . S
O341 Mg323 2.061 . S
C342 O338 1.277 . S
C342 O340 1.245 . S
O343 C317 1.289 . S
O343 Mg320 2.229 1_565 S
O343 Mg321 2.106 1_565 S
O344 Mg321 2.079 . S
O344 C326 1.245 . S
O345 Mg324 2.035 1_545 S
O345 C326 1.274 . S
H346 C352 0.930 . S
H347 C355 0.930 . S
H348 C356 0.930 . S
H349 C357 0.930 . S
H350 C360 0.930 . S
H351 C361 0.930 . S
C352 H346 0.930 . S
C352 C353 1.355 . S
C352 C354 1.415 . S
C353 C352 1.355 . S
C353 C355 1.419 . S
C354 C352 1.415 . S
C354 C359 1.425 . S
C354 C361 1.409 . S
C355 H347 0.930 . S
C355 C353 1.419 . S
C355 C356 1.362 . S
C356 H348 0.930 . S
C356 C355 1.362 . S
C356 C359 1.409 . S
C357 H349 0.930 . S
C357 C358 1.355 . S
C357 C359 1.415 . S
C358 C357 1.355 . S
C358 C360 1.419 . S
C359 C354 1.425 . S
C359 C356 1.409 . S
C359 C357 1.415 . S
C360 H350 0.930 . S
C360 C358 1.419 . S
C360 C361 1.362 . S
C361 H351 0.930 . S
C361 C354 1.409 . S
C361 C360 1.362 . S
H362 C368 0.930 . S
H363 C371 0.930 . S
H364 C372 0.930 . S
H365 C373 0.930 . S
H366 C376 0.930 . S
H367 C377 0.930 . S
C368 H362 0.930 . S
C368 C369 1.355 . S
C368 C370 1.415 . S
C369 C368 1.355 . S
C369 C371 1.419 . S
C370 C368 1.415 . S
C370 C375 1.425 . S
C370 C377 1.409 . S
C371 H363 0.930 . S
C371 C369 1.419 . S
C371 C372 1.362 . S
C372 H364 0.930 . S
C372 C371 1.362 . S
C372 C375 1.409 . S
C373 H365 0.930 . S
C373 C374 1.355 . S
C373 C375 1.415 . S
C374 C373 1.355 . S
C374 C376 1.419 . S
C375 C370 1.425 . S
C375 C372 1.409 . S
C375 C373 1.415 . S
C376 H366 0.930 . S
C376 C374 1.419 . S
C376 C377 1.362 . S
C377 H367 0.930 . S
C377 C370 1.409 . S
C377 C376 1.362 . S
H378 C384 0.930 . S
H379 C387 0.930 . S
H380 C388 0.930 . S
H381 C389 0.930 . S
H382 C392 0.930 . S
H383 C393 0.930 . S
C384 H378 0.930 . S
C384 C385 1.355 . S
C384 C386 1.415 . S
C385 C384 1.355 . S
C385 C387 1.419 . S
C386 C384 1.415 . S
C386 C391 1.425 . S
C386 C393 1.409 . S
C387 H379 0.930 . S
C387 C385 1.419 . S
C387 C388 1.362 . S
C388 H380 0.930 . S
C388 C387 1.362 . S
C388 C391 1.409 . S
C389 H381 0.930 . S
C389 C390 1.355 . S
C389 C391 1.415 . S
C390 C389 1.355 . S
C390 C392 1.419 . S
C391 C386 1.425 . S
C391 C388 1.409 . S
C391 C389 1.415 . S
C392 H382 0.930 . S
C392 C390 1.419 . S
C392 C393 1.362 . S
C393 H383 0.930 . S
C393 C386 1.409 . S
C393 C392 1.362 . S
H394 C400 0.930 . S
H395 C403 0.930 . S
H396 C404 0.930 . S
H397 C405 0.930 . S
H398 C408 0.930 . S
H399 C409 0.930 . S
C400 H394 0.930 . S
C400 C401 1.355 . S
C400 C402 1.415 . S
C401 C400 1.355 . S
C401 C403 1.419 . S
C402 C400 1.415 . S
C402 C407 1.425 . S
C402 C409 1.409 . S
C403 H395 0.930 . S
C403 C401 1.419 . S
C403 C404 1.362 . S
C404 H396 0.930 . S
C404 C403 1.362 . S
C404 C407 1.409 . S
C405 H397 0.930 . S
C405 C406 1.355 . S
C405 C407 1.415 . S
C406 C405 1.355 . S
C406 C408 1.419 . S
C407 C402 1.425 . S
C407 C404 1.409 . S
C407 C405 1.415 . S
C408 H398 0.930 . S
C408 C406 1.419 . S
C408 C409 1.362 . S
C409 H399 0.930 . S
C409 C402 1.409 . S
C409 C408 1.362 . S
H410 C416 0.930 . S
H411 C419 0.930 . S
H412 C420 0.930 . S
H413 C421 0.930 . S
H414 C424 0.930 . S
H415 C425 0.930 . S
C416 H410 0.930 . S
C416 C417 1.355 . S
C416 C418 1.415 . S
C417 C416 1.355 . S
C417 C419 1.419 . S
C418 C416 1.415 . S
C418 C423 1.425 . S
C418 C425 1.409 . S
C419 H411 0.930 . S
C419 C417 1.419 . S
C419 C420 1.362 . S
C420 H412 0.930 . S
C420 C419 1.362 . S
C420 C423 1.409 . S
C421 H413 0.930 . S
C421 C422 1.355 . S
C421 C423 1.415 . S
C422 C421 1.355 . S
C422 C424 1.419 . S
C423 C418 1.425 . S
C423 C420 1.409 . S
C423 C421 1.415 . S
C424 H414 0.930 . S
C424 C422 1.419 . S
C424 C425 1.362 . S
C425 H415 0.930 . S
C425 C418 1.409 . S
C425 C424 1.362 . S
H426 C432 0.930 . S
H427 C435 0.930 . S
H428 C436 0.930 . S
H429 C437 0.930 . S
H430 C440 0.930 . S
H431 C441 0.930 . S
C432 H426 0.930 . S
C432 C433 1.355 . S
C432 C434 1.415 . S
C433 C432 1.355 . S
C433 C435 1.419 . S
C434 C432 1.415 . S
C434 C439 1.425 . S
C434 C441 1.409 . S
C435 H427 0.930 . S
C435 C433 1.419 . S
C435 C436 1.362 . S
C436 H428 0.930 . S
C436 C435 1.362 . S
C436 C439 1.409 . S
C437 H429 0.930 . S
C437 C438 1.355 . S
C437 C439 1.415 . S
C438 C437 1.355 . S
C438 C440 1.419 . S
C439 C434 1.425 . S
C439 C436 1.409 . S
C439 C437 1.415 . S
C440 H430 0.930 . S
C440 C438 1.419 . S
C440 C441 1.362 . S
C441 H431 0.930 . S
C441 C434 1.409 . S
C441 C440 1.362 . S
H442 C448 0.930 . S
H443 C451 0.930 . S
H444 C452 0.930 . S
H445 C453 0.930 . S
H446 C456 0.930 . S
H447 C457 0.930 . S
C448 H442 0.930 . S
C448 C449 1.355 . S
C448 C450 1.415 . S
C449 C448 1.355 . S
C449 C451 1.419 . S
C450 C448 1.415 . S
C450 C455 1.425 . S
C450 C457 1.409 . S
C451 H443 0.930 . S
C451 C449 1.419 . S
C451 C452 1.362 . S
C452 H444 0.930 . S
C452 C451 1.362 . S
C452 C455 1.409 . S
C453 H445 0.930 . S
C453 C454 1.355 . S
C453 C455 1.415 . S
C454 C453 1.355 . S
C454 C456 1.419 . S
C455 C450 1.425 . S
C455 C452 1.409 . S
C455 C453 1.415 . S
C456 H446 0.930 . S
C456 C454 1.419 . S
C456 C457 1.362 . S
C457 H447 0.930 . S
C457 C450 1.409 . S
C457 C456 1.362 . S
H458 C464 0.930 . S
H459 C467 0.930 . S
H460 C468 0.930 . S
H461 C469 0.930 . S
H462 C472 0.930 . S
H463 C473 0.930 . S
C464 H458 0.930 . S
C464 C465 1.355 . S
C464 C466 1.415 . S
C465 C464 1.355 . S
C465 C467 1.419 . S
C466 C464 1.415 . S
C466 C471 1.425 . S
C466 C473 1.409 . S
C467 H459 0.930 . S
C467 C465 1.419 . S
C467 C468 1.362 . S
C468 H460 0.930 . S
C468 C467 1.362 . S
C468 C471 1.409 . S
C469 H461 0.930 . S
C469 C470 1.355 . S
C469 C471 1.415 . S
C470 C469 1.355 . S
C470 C472 1.419 . S
C471 C466 1.425 . S
C471 C468 1.409 . S
C471 C469 1.415 . S
C472 H462 0.930 . S
C472 C470 1.419 . S
C472 C473 1.362 . S
C473 H463 0.930 . S
C473 C466 1.409 . S
C473 C472 1.362 . S
H474 C480 0.930 . S
H475 C483 0.930 . S
H476 C484 0.930 . S
H477 C485 0.930 . S
H478 C488 0.930 . S
H479 C489 0.930 . S
C480 H474 0.930 . S
C480 C481 1.355 . S
C480 C482 1.415 . S
C481 C480 1.355 . S
C481 C483 1.419 . S
C482 C480 1.415 . S
C482 C487 1.425 . S
C482 C489 1.409 . S
C483 H475 0.930 . S
C483 C481 1.419 . S
C483 C484 1.362 . S
C484 H476 0.930 . S
C484 C483 1.362 . S
C484 C487 1.409 . S
C485 H477 0.930 . S
C485 C486 1.355 . S
C485 C487 1.415 . S
C486 C485 1.355 . S
C486 C488 1.419 . S
C487 C482 1.425 . S
C487 C484 1.409 . S
C487 C485 1.415 . S
C488 H478 0.930 . S
C488 C486 1.419 . S
C488 C489 1.362 . S
C489 H479 0.930 . S
C489 C482 1.409 . S
C489 C488 1.362 . S
H490 C496 0.930 . S
H491 C499 0.930 . S
H492 C500 0.930 . S
H493 C501 0.930 . S
H494 C504 0.930 . S
H495 C505 0.930 . S
C496 H490 0.930 . S
C496 C497 1.355 . S
C496 C498 1.415 . S
C497 C496 1.355 . S
C497 C499 1.419 . S
C498 C496 1.415 . S
C498 C503 1.425 . S
C498 C505 1.409 . S
C499 H491 0.930 . S
C499 C497 1.419 . S
C499 C500 1.362 . S
C500 H492 0.930 . S
C500 C499 1.362 . S
C500 C503 1.409 . S
C501 H493 0.930 . S
C501 C502 1.355 . S
C501 C503 1.415 . S
C502 C501 1.355 . S
C502 C504 1.419 . S
C503 C498 1.425 . S
C503 C500 1.409 . S
C503 C501 1.415 . S
C504 H494 0.930 . S
C504 C502 1.419 . S
C504 C505 1.362 . S
C505 H495 0.930 . S
C505 C498 1.409 . S
C505 C504 1.362 . S
H506 C512 0.930 . S
H507 C515 0.930 . S
H508 C516 0.930 . S
H509 C517 0.930 . S
H510 C520 0.930 . S
H511 C521 0.930 . S
C512 H506 0.930 . S
C512 C513 1.355 . S
C512 C514 1.415 . S
C513 C512 1.355 . S
C513 C515 1.419 . S
C514 C512 1.415 . S
C514 C519 1.425 . S
C514 C521 1.409 . S
C515 H507 0.930 . S
C515 C513 1.419 . S
C515 C516 1.362 . S
C516 H508 0.930 . S
C516 C515 1.362 . S
C516 C519 1.409 . S
C517 H509 0.930 . S
C517 C518 1.355 . S
C517 C519 1.415 . S
C518 C517 1.355 . S
C518 C520 1.419 . S
C519 C514 1.425 . S
C519 C516 1.409 . S
C519 C517 1.415 . S
C520 H510 0.930 . S
C520 C518 1.419 . S
C520 C521 1.362 . S
C521 H511 0.930 . S
C521 C514 1.409 . S
C521 C520 1.362 . S
H522 C528 0.930 . S
H523 C531 0.930 . S
H524 C532 0.930 . S
H525 C533 0.930 . S
H526 C536 0.930 . S
H527 C537 0.930 . S
C528 H522 0.930 . S
C528 C529 1.355 . S
C528 C530 1.415 . S
C529 C528 1.355 . S
C529 C531 1.419 . S
C530 C528 1.415 . S
C530 C535 1.425 . S
C530 C537 1.409 . S
C531 H523 0.930 . S
C531 C529 1.419 . S
C531 C532 1.362 . S
C532 H524 0.930 . S
C532 C531 1.362 . S
C532 C535 1.409 . S
C533 H525 0.930 . S
C533 C534 1.355 . S
C533 C535 1.415 . S
C534 C533 1.355 . S
C534 C536 1.419 . S
C535 C530 1.425 . S
C535 C532 1.409 . S
C535 C533 1.415 . S
C536 H526 0.930 . S
C536 C534 1.419 . S
C536 C537 1.362 . S
C537 H527 0.930 . S
C537 C530 1.409 . S
C537 C536 1.362 . S
H538 C544 0.930 . S
H539 C547 0.930 . S
H540 C548 0.930 . S
H541 C549 0.930 . S
H542 C552 0.930 . S
H543 C553 0.930 . S
C544 H538 0.930 . S
C544 C545 1.355 . S
C544 C546 1.415 . S
C545 C544 1.355 . S
C545 C547 1.419 . S
C546 C544 1.415 . S
C546 C551 1.425 . S
C546 C553 1.409 . S
C547 H539 0.930 . S
C547 C545 1.419 . S
C547 C548 1.362 . S
C548 H540 0.930 . S
C548 C547 1.362 . S
C548 C551 1.409 . S
C549 H541 0.930 . S
C549 C550 1.355 . S
C549 C551 1.415 . S
C550 C549 1.355 . S
C550 C552 1.419 . S
C551 C546 1.425 . S
C551 C548 1.409 . S
C551 C549 1.415 . S
C552 H542 0.930 . S
C552 C550 1.419 . S
C552 C553 1.362 . S
C553 H543 0.930 . S
C553 C546 1.409 . S
C553 C552 1.362 . S
H554 C560 0.930 . S
H555 C563 0.930 . S
H556 C564 0.930 . S
H557 C565 0.930 . S
H558 C568 0.930 . S
H559 C569 0.930 . S
C560 H554 0.930 . S
C560 C561 1.355 . S
C560 C562 1.415 . S
C561 C560 1.355 . S
C561 C563 1.419 . S
C562 C560 1.415 . S
C562 C567 1.425 . S
C562 C569 1.409 . S
C563 H555 0.930 . S
C563 C561 1.419 . S
C563 C564 1.362 . S
C564 H556 0.930 . S
C564 C563 1.362 . S
C564 C567 1.409 . S
C565 H557 0.930 . S
C565 C566 1.355 . S
C565 C567 1.415 . S
C566 C565 1.355 . S
C566 C568 1.419 . S
C567 C562 1.425 . S
C567 C564 1.409 . S
C567 C565 1.415 . S
C568 H558 0.930 . S
C568 C566 1.419 . S
C568 C569 1.362 . S
C569 H559 0.930 . S
C569 C562 1.409 . S
C569 C568 1.362 . S
H570 C576 0.930 . S
H571 C579 0.930 . S
H572 C580 0.930 . S
H573 C581 0.930 . S
H574 C584 0.930 . S
H575 C585 0.930 . S
C576 H570 0.930 . S
C576 C577 1.355 . S
C576 C578 1.415 . S
C577 C576 1.355 . S
C577 C579 1.419 . S
C578 C576 1.415 . S
C578 C583 1.425 . S
C578 C585 1.409 . S
C579 H571 0.930 . S
C579 C577 1.419 . S
C579 C580 1.362 . S
C580 H572 0.930 . S
C580 C579 1.362 . S
C580 C583 1.409 . S
C581 H573 0.930 . S
C581 C582 1.355 . S
C581 C583 1.415 . S
C582 C581 1.355 . S
C582 C584 1.419 . S
C583 C578 1.425 . S
C583 C580 1.409 . S
C583 C581 1.415 . S
C584 H574 0.930 . S
C584 C582 1.419 . S
C584 C585 1.362 . S
C585 H575 0.930 . S
C585 C578 1.409 . S
C585 C584 1.362 . S
H586 C592 0.930 . S
H587 C595 0.930 . S
H588 C596 0.930 . S
H589 C597 0.930 . S
H590 C600 0.930 . S
H591 C601 0.930 . S
C592 H586 0.930 . S
C592 C593 1.355 . S
C592 C594 1.415 . S
C593 C592 1.355 . S
C593 C595 1.419 . S
C594 C592 1.415 . S
C594 C599 1.425 . S
C594 C601 1.409 . S
C595 H587 0.930 . S
C595 C593 1.419 . S
C595 C596 1.362 . S
C596 H588 0.930 . S
C596 C595 1.362 . S
C596 C599 1.409 . S
C597 H589 0.930 . S
C597 C598 1.355 . S
C597 C599 1.415 . S
C598 C597 1.355 . S
C598 C600 1.419 . S
C599 C594 1.425 . S
C599 C596 1.409 . S
C599 C597 1.415 . S
C600 H590 0.930 . S
C600 C598 1.419 . S
C600 C601 1.362 . S
C601 H591 0.930 . S
C601 C594 1.409 . S
C601 C600 1.362 . S
H602 C608 0.930 . S
H603 C611 0.930 . S
H604 C612 0.930 . S
H605 C613 0.930 . S
H606 C616 0.930 . S
H607 C617 0.930 . S
C608 H602 0.930 . S
C608 C609 1.355 . S
C608 C610 1.415 . S
C609 C608 1.355 . S
C609 C611 1.419 . S
C610 C608 1.415 . S
C610 C615 1.425 . S
C610 C617 1.409 . S
C611 H603 0.930 . S
C611 C609 1.419 . S
C611 C612 1.362 . S
C612 H604 0.930 . S
C612 C611 1.362 . S
C612 C615 1.409 . S
C613 H605 0.930 . S
C613 C614 1.355 . S
C613 C615 1.415 . S
C614 C613 1.355 . S
C614 C616 1.419 . S
C615 C610 1.425 . S
C615 C612 1.409 . S
C615 C613 1.415 . S
C616 H606 0.930 . S
C616 C614 1.419 . S
C616 C617 1.362 . S
C617 H607 0.930 . S
C617 C610 1.409 . S
C617 C616 1.362 . S
H618 C624 0.930 . S
H619 C627 0.930 . S
H620 C628 0.930 . S
H621 C629 0.930 . S
H622 C632 0.930 . S
H623 C633 0.930 . S
C624 H618 0.930 . S
C624 C625 1.355 . S
C624 C626 1.415 . S
C625 C624 1.355 . S
C625 C627 1.419 . S
C626 C624 1.415 . S
C626 C631 1.425 . S
C626 C633 1.409 . S
C627 H619 0.930 . S
C627 C625 1.419 . S
C627 C628 1.362 . S
C628 H620 0.930 . S
C628 C627 1.362 . S
C628 C631 1.409 . S
C629 H621 0.930 . S
C629 C630 1.355 . S
C629 C631 1.415 . S
C630 C629 1.355 . S
C630 C632 1.419 . S
C631 C626 1.425 . S
C631 C628 1.409 . S
C631 C629 1.415 . S
C632 H622 0.930 . S
C632 C630 1.419 . S
C632 C633 1.362 . S
C633 H623 0.930 . S
C633 C626 1.409 . S
C633 C632 1.362 . S
H634 C640 0.930 . S
H635 C643 0.930 . S
H636 C644 0.930 . S
H637 C645 0.930 . S
H638 C648 0.930 . S
H639 C649 0.930 . S
C640 H634 0.930 . S
C640 C641 1.355 . S
C640 C642 1.415 . S
C641 C640 1.355 . S
C641 C643 1.419 . S
C642 C640 1.415 . S
C642 C647 1.425 . S
C642 C649 1.409 . S
C643 H635 0.930 . S
C643 C641 1.419 . S
C643 C644 1.362 . S
C644 H636 0.930 . S
C644 C643 1.362 . S
C644 C647 1.409 . S
C645 H637 0.930 . S
C645 C646 1.355 . S
C645 C647 1.415 . S
C646 C645 1.355 . S
C646 C648 1.419 . S
C647 C642 1.425 . S
C647 C644 1.409 . S
C647 C645 1.415 . S
C648 H638 0.930 . S
C648 C646 1.419 . S
C648 C649 1.362 . S
C649 H639 0.930 . S
C649 C642 1.409 . S
C649 C648 1.362 . S
H650 C656 0.930 . S
H651 C659 0.930 . S
H652 C660 0.930 . S
H653 C661 0.930 . S
H654 C664 0.930 . S
H655 C665 0.930 . S
C656 H650 0.930 . S
C656 C657 1.355 . S
C656 C658 1.415 . S
C657 C656 1.355 . S
C657 C659 1.419 . S
C658 C656 1.415 . S
C658 C663 1.425 . S
C658 C665 1.409 . S
C659 H651 0.930 . S
C659 C657 1.419 . S
C659 C660 1.362 . S
C660 H652 0.930 . S
C660 C659 1.362 . S
C660 C663 1.409 . S
C661 H653 0.930 . S
C661 C662 1.355 . S
C661 C663 1.415 . S
C662 C661 1.355 . S
C662 C664 1.419 . S
C663 C658 1.425 . S
C663 C660 1.409 . S
C663 C661 1.415 . S
C664 H654 0.930 . S
C664 C662 1.419 . S
C664 C665 1.362 . S
C665 H655 0.930 . S
C665 C658 1.409 . S
C665 C664 1.362 . S
H666 C672 0.930 . S
H667 C675 0.930 . S
H668 C676 0.930 . S
H669 C677 0.930 . S
H670 C680 0.930 . S
H671 C681 0.930 . S
C672 H666 0.930 . S
C672 C673 1.355 . S
C672 C674 1.415 . S
C673 C672 1.355 . S
C673 C675 1.419 . S
C674 C672 1.415 . S
C674 C679 1.425 . S
C674 C681 1.409 . S
C675 H667 0.930 . S
C675 C673 1.419 . S
C675 C676 1.362 . S
C676 H668 0.930 . S
C676 C675 1.362 . S
C676 C679 1.409 . S
C677 H669 0.930 . S
C677 C678 1.355 . S
C677 C679 1.415 . S
C678 C677 1.355 . S
C678 C680 1.419 . S
C679 C674 1.425 . S
C679 C676 1.409 . S
C679 C677 1.415 . S
C680 H670 0.930 . S
C680 C678 1.419 . S
C680 C681 1.362 . S
C681 H671 0.930 . S
C681 C674 1.409 . S
C681 C680 1.362 . S
H682 C688 0.930 . S
H683 C691 0.930 . S
H684 C692 0.930 . S
H685 C693 0.930 . S
H686 C696 0.930 . S
H687 C697 0.930 . S
C688 H682 0.930 . S
C688 C689 1.355 . S
C688 C690 1.415 . S
C689 C688 1.355 . S
C689 C691 1.419 . S
C690 C688 1.415 . S
C690 C695 1.425 . S
C690 C697 1.409 . S
C691 H683 0.930 . S
C691 C689 1.419 . S
C691 C692 1.362 . S
C692 H684 0.930 . S
C692 C691 1.362 . S
C692 C695 1.409 . S
C693 H685 0.930 . S
C693 C694 1.355 . S
C693 C695 1.415 . S
C694 C693 1.355 . S
C694 C696 1.419 . S
C695 C690 1.425 . S
C695 C692 1.409 . S
C695 C693 1.415 . S
C696 H686 0.930 . S
C696 C694 1.419 . S
C696 C697 1.362 . S
C697 H687 0.930 . S
C697 C690 1.409 . S
C697 C696 1.362 . S
H698 C704 0.930 . S
H699 C707 0.930 . S
H700 C708 0.930 . S
H701 C709 0.930 . S
H702 C712 0.930 . S
H703 C713 0.930 . S
C704 H698 0.930 . S
C704 C705 1.355 . S
C704 C706 1.415 . S
C705 C704 1.355 . S
C705 C707 1.419 . S
C706 C704 1.415 . S
C706 C711 1.425 . S
C706 C713 1.409 . S
C707 H699 0.930 . S
C707 C705 1.419 . S
C707 C708 1.362 . S
C708 H700 0.930 . S
C708 C707 1.362 . S
C708 C711 1.409 . S
C709 H701 0.930 . S
C709 C710 1.355 . S
C709 C711 1.415 . S
C710 C709 1.355 . S
C710 C712 1.419 . S
C711 C706 1.425 . S
C711 C708 1.409 . S
C711 C709 1.415 . S
C712 H702 0.930 . S
C712 C710 1.419 . S
C712 C713 1.362 . S
C713 H703 0.930 . S
C713 C706 1.409 . S
C713 C712 1.362 . S
H714 C720 0.930 . S
H715 C723 0.930 . S
H716 C724 0.930 . S
H717 C725 0.930 . S
H718 C728 0.930 . S
H719 C729 0.930 . S
C720 H714 0.930 . S
C720 C721 1.355 . S
C720 C722 1.415 . S
C721 C720 1.355 . S
C721 C723 1.419 . S
C722 C720 1.415 . S
C722 C727 1.425 . S
C722 C729 1.409 . S
C723 H715 0.930 . S
C723 C721 1.419 . S
C723 C724 1.362 . S
C724 H716 0.930 . S
C724 C723 1.362 . S
C724 C727 1.409 . S
C725 H717 0.930 . S
C725 C726 1.355 . S
C725 C727 1.415 . S
C726 C725 1.355 . S
C726 C728 1.419 . S
C727 C722 1.425 . S
C727 C724 1.409 . S
C727 C725 1.415 . S
C728 H718 0.930 . S
C728 C726 1.419 . S
C728 C729 1.362 . S
C729 H719 0.930 . S
C729 C722 1.409 . S
C729 C728 1.362 . S
H730 C736 0.930 . S
H731 C739 0.930 . S
H732 C740 0.930 . S
H733 C741 0.930 . S
H734 C744 0.930 . S
H735 C745 0.930 . S
C736 H730 0.930 . S
C736 C737 1.355 . S
C736 C738 1.415 . S
C737 C736 1.355 . S
C737 C739 1.419 . S
C738 C736 1.415 . S
C738 C743 1.425 . S
C738 C745 1.409 . S
C739 H731 0.930 . S
C739 C737 1.419 . S
C739 C740 1.362 . S
C740 H732 0.930 . S
C740 C739 1.362 . S
C740 C743 1.409 . S
C741 H733 0.930 . S
C741 C742 1.355 . S
C741 C743 1.415 . S
C742 C741 1.355 . S
C742 C744 1.419 . S
C743 C738 1.425 . S
C743 C740 1.409 . S
C743 C741 1.415 . S
C744 H734 0.930 . S
C744 C742 1.419 . S
C744 C745 1.362 . S
C745 H735 0.930 . S
C745 C738 1.409 . S
C745 C744 1.362 . S
H746 C752 0.930 . S
H747 C755 0.930 . S
H748 C756 0.930 . S
H749 C757 0.930 . S
H750 C760 0.930 . S
H751 C761 0.930 . S
C752 H746 0.930 . S
C752 C753 1.355 . S
C752 C754 1.415 . S
C753 C752 1.355 . S
C753 C755 1.419 . S
C754 C752 1.415 . S
C754 C759 1.425 . S
C754 C761 1.409 . S
C755 H747 0.930 . S
C755 C753 1.419 . S
C755 C756 1.362 . S
C756 H748 0.930 . S
C756 C755 1.362 . S
C756 C759 1.409 . S
C757 H749 0.930 . S
C757 C758 1.355 . S
C757 C759 1.415 . S
C758 C757 1.355 . S
C758 C760 1.419 . S
C759 C754 1.425 . S
C759 C756 1.409 . S
C759 C757 1.415 . S
C760 H750 0.930 . S
C760 C758 1.419 . S
C760 C761 1.362 . S
C761 H751 0.930 . S
C761 C754 1.409 . S
C761 C760 1.362 . S
H762 C768 0.930 . S
H763 C771 0.930 . S
H764 C772 0.930 . S
H765 C773 0.930 . S
H766 C776 0.930 . S
H767 C777 0.930 . S
C768 H762 0.930 . S
C768 C769 1.355 . S
C768 C770 1.415 . S
C769 C768 1.355 . S
C769 C771 1.419 . S
C770 C768 1.415 . S
C770 C775 1.425 . S
C770 C777 1.409 . S
C771 H763 0.930 . S
C771 C769 1.419 . S
C771 C772 1.362 . S
C772 H764 0.930 . S
C772 C771 1.362 . S
C772 C775 1.409 . S
C773 H765 0.930 . S
C773 C774 1.355 . S
C773 C775 1.415 . S
C774 C773 1.355 . S
C774 C776 1.419 . S
C775 C770 1.425 . S
C775 C772 1.409 . S
C775 C773 1.415 . S
C776 H766 0.930 . S
C776 C774 1.419 . S
C776 C777 1.362 . S
C777 H767 0.930 . S
C777 C770 1.409 . S
C777 C776 1.362 . S
H778 C784 0.930 . S
H779 C787 0.930 . S
H780 C788 0.930 . S
H781 C789 0.930 . S
H782 C792 0.930 . S
H783 C793 0.930 . S
C784 H778 0.930 . S
C784 C785 1.355 . S
C784 C786 1.415 . S
C785 C784 1.355 . S
C785 C787 1.419 . S
C786 C784 1.415 . S
C786 C791 1.425 . S
C786 C793 1.409 . S
C787 H779 0.930 . S
C787 C785 1.419 . S
C787 C788 1.362 . S
C788 H780 0.930 . S
C788 C787 1.362 . S
C788 C791 1.409 . S
C789 H781 0.930 . S
C789 C790 1.355 . S
C789 C791 1.415 . S
C790 C789 1.355 . S
C790 C792 1.419 . S
C791 C786 1.425 . S
C791 C788 1.409 . S
C791 C789 1.415 . S
C792 H782 0.930 . S
C792 C790 1.419 . S
C792 C793 1.362 . S
C793 H783 0.930 . S
C793 C786 1.409 . S
C793 C792 1.362 . S
H794 C800 0.930 . S
H795 C803 0.930 . S
H796 C804 0.930 . S
H797 C805 0.930 . S
H798 C808 0.930 . S
H799 C809 0.930 . S
C800 H794 0.930 . S
C800 C801 1.355 . S
C800 C802 1.415 . S
C801 C800 1.355 . S
C801 C803 1.419 . S
C802 C800 1.415 . S
C802 C807 1.425 . S
C802 C809 1.409 . S
C803 H795 0.930 . S
C803 C801 1.419 . S
C803 C804 1.362 . S
C804 H796 0.930 . S
C804 C803 1.362 . S
C804 C807 1.409 . S
C805 H797 0.930 . S
C805 C806 1.355 . S
C805 C807 1.415 . S
C806 C805 1.355 . S
C806 C808 1.419 . S
C807 C802 1.425 . S
C807 C804 1.409 . S
C807 C805 1.415 . S
C808 H798 0.930 . S
C808 C806 1.419 . S
C808 C809 1.362 . S
C809 H799 0.930 . S
C809 C802 1.409 . S
C809 C808 1.362 . S
H810 C816 0.930 . S
H811 C819 0.930 . S
H812 C820 0.930 . S
H813 C821 0.930 . S
H814 C824 0.930 . S
H815 C825 0.930 . S
C816 H810 0.930 . S
C816 C817 1.355 . S
C816 C818 1.415 . S
C817 C816 1.355 . S
C817 C819 1.419 . S
C818 C816 1.415 . S
C818 C823 1.425 . S
C818 C825 1.409 . S
C819 H811 0.930 . S
C819 C817 1.419 . S
C819 C820 1.362 . S
C820 H812 0.930 . S
C820 C819 1.362 . S
C820 C823 1.409 . S
C821 H813 0.930 . S
C821 C822 1.355 . S
C821 C823 1.415 . S
C822 C821 1.355 . S
C822 C824 1.419 . S
C823 C818 1.425 . S
C823 C820 1.409 . S
C823 C821 1.415 . S
C824 H814 0.930 . S
C824 C822 1.419 . S
C824 C825 1.362 . S
C825 H815 0.930 . S
C825 C818 1.409 . S
C825 C824 1.362 . S
H826 C832 0.930 . S
H827 C835 0.930 . S
H828 C836 0.930 . S
H829 C837 0.930 . S
H830 C840 0.930 . S
H831 C841 0.930 . S
C832 H826 0.930 . S
C832 C833 1.355 . S
C832 C834 1.415 . S
C833 C832 1.355 . S
C833 C835 1.419 . S
C834 C832 1.415 . S
C834 C839 1.425 . S
C834 C841 1.409 . S
C835 H827 0.930 . S
C835 C833 1.419 . S
C835 C836 1.362 . S
C836 H828 0.930 . S
C836 C835 1.362 . S
C836 C839 1.409 . S
C837 H829 0.930 . S
C837 C838 1.355 . S
C837 C839 1.415 . S
C838 C837 1.355 . S
C838 C840 1.419 . S
C839 C834 1.425 . S
C839 C836 1.409 . S
C839 C837 1.415 . S
C840 H830 0.930 . S
C840 C838 1.419 . S
C840 C841 1.362 . S
C841 H831 0.930 . S
C841 C834 1.409 . S
C841 C840 1.362 . S
H842 C848 0.930 . S
H843 C851 0.930 . S
H844 C852 0.930 . S
H845 C853 0.930 . S
H846 C856 0.930 . S
H847 C857 0.930 . S
C848 H842 0.930 . S
C848 C849 1.355 . S
C848 C850 1.415 . S
C849 C848 1.355 . S
C849 C851 1.419 . S
C850 C848 1.415 . S
C850 C855 1.425 . S
C850 C857 1.409 . S
C851 H843 0.930 . S
C851 C849 1.419 . S
C851 C852 1.362 . S
C852 H844 0.930 . S
C852 C851 1.362 . S
C852 C855 1.409 . S
C853 H845 0.930 . S
C853 C854 1.355 . S
C853 C855 1.415 . S
C854 C853 1.355 . S
C854 C856 1.419 . S
C855 C850 1.425 . S
C855 C852 1.409 . S
C855 C853 1.415 . S
C856 H846 0.930 . S
C856 C854 1.419 . S
C856 C857 1.362 . S
C857 H847 0.930 . S
C857 C850 1.409 . S
C857 C856 1.362 . S
H858 C864 0.930 . S
H859 C867 0.930 . S
H860 C868 0.930 . S
H861 C869 0.930 . S
H862 C872 0.930 . S
H863 C873 0.930 . S
C864 H858 0.930 . S
C864 C865 1.355 . S
C864 C866 1.415 . S
C865 C864 1.355 . S
C865 C867 1.419 . S
C866 C864 1.415 . S
C866 C871 1.425 . S
C866 C873 1.409 . S
C867 H859 0.930 . S
C867 C865 1.419 . S
C867 C868 1.362 . S
C868 H860 0.930 . S
C868 C867 1.362 . S
C868 C871 1.409 . S
C869 H861 0.930 . S
C869 C870 1.355 . S
C869 C871 1.415 . S
C870 C869 1.355 . S
C870 C872 1.419 . S
C871 C866 1.425 . S
C871 C868 1.409 . S
C871 C869 1.415 . S
C872 H862 0.930 . S
C872 C870 1.419 . S
C872 C873 1.362 . S
C873 H863 0.930 . S
C873 C866 1.409 . S
C873 C872 1.362 . S
H874 C880 0.930 . S
H875 C883 0.930 . S
H876 C884 0.930 . S
H877 C885 0.930 . S
H878 C888 0.930 . S
H879 C889 0.930 . S
C880 H874 0.930 . S
C880 C881 1.355 . S
C880 C882 1.415 . S
C881 C880 1.355 . S
C881 C883 1.419 . S
C882 C880 1.415 . S
C882 C887 1.425 . S
C882 C889 1.409 . S
C883 H875 0.930 . S
C883 C881 1.419 . S
C883 C884 1.362 . S
C884 H876 0.930 . S
C884 C883 1.362 . S
C884 C887 1.409 . S
C885 H877 0.930 . S
C885 C886 1.355 . S
C885 C887 1.415 . S
C886 C885 1.355 . S
C886 C888 1.419 . S
C887 C882 1.425 . S
C887 C884 1.409 . S
C887 C885 1.415 . S
C888 H878 0.930 . S
C888 C886 1.419 . S
C888 C889 1.362 . S
C889 H879 0.930 . S
C889 C882 1.409 . S
C889 C888 1.362 . S
H890 C896 0.930 . S
H891 C899 0.930 . S
H892 C900 0.930 . S
H893 C901 0.930 . S
H894 C904 0.930 . S
H895 C905 0.930 . S
C896 H890 0.930 . S
C896 C897 1.355 . S
C896 C898 1.415 . S
C897 C896 1.355 . S
C897 C899 1.419 . S
C898 C896 1.415 . S
C898 C903 1.425 . S
C898 C905 1.409 . S
C899 H891 0.930 . S
C899 C897 1.419 . S
C899 C900 1.362 . S
C900 H892 0.930 . S
C900 C899 1.362 . S
C900 C903 1.409 . S
C901 H893 0.930 . S
C901 C902 1.355 . S
C901 C903 1.415 . S
C902 C901 1.355 . S
C902 C904 1.419 . S
C903 C898 1.425 . S
C903 C900 1.409 . S
C903 C901 1.415 . S
C904 H894 0.930 . S
C904 C902 1.419 . S
C904 C905 1.362 . S
C905 H895 0.930 . S
C905 C898 1.409 . S
C905 C904 1.362 . S
H906 C912 0.930 . S
H907 C915 0.930 . S
H908 C916 0.930 . S
H909 C917 0.930 . S
H910 C920 0.930 . S
H911 C921 0.930 . S
C912 H906 0.930 . S
C912 C913 1.355 . S
C912 C914 1.415 . S
C913 C912 1.355 . S
C913 C915 1.419 . S
C914 C912 1.415 . S
C914 C919 1.425 . S
C914 C921 1.409 . S
C915 H907 0.930 . S
C915 C913 1.419 . S
C915 C916 1.362 . S
C916 H908 0.930 . S
C916 C915 1.362 . S
C916 C919 1.409 . S
C917 H909 0.930 . S
C917 C918 1.355 . S
C917 C919 1.415 . S
C918 C917 1.355 . S
C918 C920 1.419 . S
C919 C914 1.425 . S
C919 C916 1.409 . S
C919 C917 1.415 . S
C920 H910 0.930 . S
C920 C918 1.419 . S
C920 C921 1.362 . S
C921 H911 0.930 . S
C921 C914 1.409 . S
C921 C920 1.362 . S
H922 C928 0.930 . S
H923 C931 0.930 . S
H924 C932 0.930 . S
H925 C933 0.930 . S
H926 C936 0.930 . S
H927 C937 0.930 . S
C928 H922 0.930 . S
C928 C929 1.355 . S
C928 C930 1.415 . S
C929 C928 1.355 . S
C929 C931 1.419 . S
C930 C928 1.415 . S
C930 C935 1.425 . S
C930 C937 1.409 . S
C931 H923 0.930 . S
C931 C929 1.419 . S
C931 C932 1.362 . S
C932 H924 0.930 . S
C932 C931 1.362 . S
C932 C935 1.409 . S
C933 H925 0.930 . S
C933 C934 1.355 . S
C933 C935 1.415 . S
C934 C933 1.355 . S
C934 C936 1.419 . S
C935 C930 1.425 . S
C935 C932 1.409 . S
C935 C933 1.415 . S
C936 H926 0.930 . S
C936 C934 1.419 . S
C936 C937 1.362 . S
C937 H927 0.930 . S
C937 C930 1.409 . S
C937 C936 1.362 . S
H938 C944 0.930 . S
H939 C947 0.930 . S
H940 C948 0.930 . S
H941 C949 0.930 . S
H942 C952 0.930 . S
H943 C953 0.930 . S
C944 H938 0.930 . S
C944 C945 1.355 . S
C944 C946 1.415 . S
C945 C944 1.355 . S
C945 C947 1.419 . S
C946 C944 1.415 . S
C946 C951 1.425 . S
C946 C953 1.409 . S
C947 H939 0.930 . S
C947 C945 1.419 . S
C947 C948 1.362 . S
C948 H940 0.930 . S
C948 C947 1.362 . S
C948 C951 1.409 . S
C949 H941 0.930 . S
C949 C950 1.355 . S
C949 C951 1.415 . S
C950 C949 1.355 . S
C950 C952 1.419 . S
C951 C946 1.425 . S
C951 C948 1.409 . S
C951 C949 1.415 . S
C952 H942 0.930 . S
C952 C950 1.419 . S
C952 C953 1.362 . S
C953 H943 0.930 . S
C953 C946 1.409 . S
C953 C952 1.362 . S
H954 C960 0.930 . S
H955 C963 0.930 . S
H956 C964 0.930 . S
H957 C965 0.930 . S
H958 C968 0.930 . S
H959 C969 0.930 . S
C960 H954 0.930 . S
C960 C961 1.355 . S
C960 C962 1.415 . S
C961 C960 1.355 . S
C961 C963 1.419 . S
C962 C960 1.415 . S
C962 C967 1.425 . S
C962 C969 1.409 . S
C963 H955 0.930 . S
C963 C961 1.419 . S
C963 C964 1.362 . S
C964 H956 0.930 . S
C964 C963 1.362 . S
C964 C967 1.409 . S
C965 H957 0.930 . S
C965 C966 1.355 . S
C965 C967 1.415 . S
C966 C965 1.355 . S
C966 C968 1.419 . S
C967 C962 1.425 . S
C967 C964 1.409 . S
C967 C965 1.415 . S
C968 H958 0.930 . S
C968 C966 1.419 . S
C968 C969 1.362 . S
C969 H959 0.930 . S
C969 C962 1.409 . S
C969 C968 1.362 . S
H970 C976 0.930 . S
H971 C979 0.930 . S
H972 C980 0.930 . S
H973 C981 0.930 . S
H974 C984 0.930 . S
H975 C985 0.930 . S
C976 H970 0.930 . S
C976 C977 1.355 . S
C976 C978 1.415 . S
C977 C976 1.355 . S
C977 C979 1.419 . S
C978 C976 1.415 . S
C978 C983 1.425 . S
C978 C985 1.409 . S
C979 H971 0.930 . S
C979 C977 1.419 . S
C979 C980 1.362 . S
C980 H972 0.930 . S
C980 C979 1.362 . S
C980 C983 1.409 . S
C981 H973 0.930 . S
C981 C982 1.355 . S
C981 C983 1.415 . S
C982 C981 1.355 . S
C982 C984 1.419 . S
C983 C978 1.425 . S
C983 C980 1.409 . S
C983 C981 1.415 . S
C984 H974 0.930 . S
C984 C982 1.419 . S
C984 C985 1.362 . S
C985 H975 0.930 . S
C985 C978 1.409 . S
C985 C984 1.362 . S
H986 C992 0.930 . S
H987 C995 0.930 . S
H988 C996 0.930 . S
H989 C997 0.930 . S
H990 C1000 0.930 . S
H991 C1001 0.930 . S
C992 H986 0.930 . S
C992 C993 1.355 . S
C992 C994 1.415 . S
C993 C992 1.355 . S
C993 C995 1.419 . S
C994 C992 1.415 . S
C994 C999 1.425 . S
C994 C1001 1.409 . S
C995 H987 0.930 . S
C995 C993 1.419 . S
C995 C996 1.362 . S
C996 H988 0.930 . S
C996 C995 1.362 . S
C996 C999 1.409 . S
C997 H989 0.930 . S
C997 C998 1.355 . S
C997 C999 1.415 . S
C998 C997 1.355 . S
C998 C1000 1.419 . S
C999 C994 1.425 . S
C999 C996 1.409 . S
C999 C997 1.415 . S
C1000 H990 0.930 . S
C1000 C998 1.419 . S
C1000 C1001 1.362 . S
C1001 H991 0.930 . S
C1001 C994 1.409 . S
C1001 C1000 1.362 . S
H1002 C1008 0.930 . S
H1003 C1011 0.930 . S
H1004 C1012 0.930 . S
H1005 C1013 0.930 . S
H1006 C1016 0.930 . S
H1007 C1017 0.930 . S
C1008 H1002 0.930 . S
C1008 C1009 1.355 . S
C1008 C1010 1.415 . S
C1009 C1008 1.355 . S
C1009 C1011 1.419 . S
C1010 C1008 1.415 . S
C1010 C1015 1.425 . S
C1010 C1017 1.409 . S
C1011 H1003 0.930 . S
C1011 C1009 1.419 . S
C1011 C1012 1.362 . S
C1012 H1004 0.930 . S
C1012 C1011 1.362 . S
C1012 C1015 1.409 . S
C1013 H1005 0.930 . S
C1013 C1014 1.355 . S
C1013 C1015 1.415 . S
C1014 C1013 1.355 . S
C1014 C1016 1.419 . S
C1015 C1010 1.425 . S
C1015 C1012 1.409 . S
C1015 C1013 1.415 . S
C1016 H1006 0.930 . S
C1016 C1014 1.419 . S
C1016 C1017 1.362 . S
C1017 H1007 0.930 . S
C1017 C1010 1.409 . S
C1017 C1016 1.362 . S
H1018 C1024 0.930 . S
H1019 C1027 0.930 . S
H1020 C1028 0.930 . S
H1021 C1029 0.930 . S
H1022 C1032 0.930 . S
H1023 C1033 0.930 . S
C1024 H1018 0.930 . S
C1024 C1025 1.355 . S
C1024 C1026 1.415 . S
C1025 C1024 1.355 . S
C1025 C1027 1.419 . S
C1026 C1024 1.415 . S
C1026 C1031 1.425 . S
C1026 C1033 1.409 . S
C1027 H1019 0.930 . S
C1027 C1025 1.419 . S
C1027 C1028 1.362 . S
C1028 H1020 0.930 . S
C1028 C1027 1.362 . S
C1028 C1031 1.409 . S
C1029 H1021 0.930 . S
C1029 C1030 1.355 . S
C1029 C1031 1.415 . S
C1030 C1029 1.355 . S
C1030 C1032 1.419 . S
C1031 C1026 1.425 . S
C1031 C1028 1.409 . S
C1031 C1029 1.415 . S
C1032 H1022 0.930 . S
C1032 C1030 1.419 . S
C1032 C1033 1.362 . S
C1033 H1023 0.930 . S
C1033 C1026 1.409 . S
C1033 C1032 1.362 . S
H1034 C1040 0.930 . S
H1035 C1043 0.930 . S
H1036 C1044 0.930 . S
H1037 C1045 0.930 . S
H1038 C1048 0.930 . S
H1039 C1049 0.930 . S
C1040 H1034 0.930 . S
C1040 C1041 1.355 . S
C1040 C1042 1.415 . S
C1041 C1040 1.355 . S
C1041 C1043 1.419 . S
C1042 C1040 1.415 . S
C1042 C1047 1.425 . S
C1042 C1049 1.409 . S
C1043 H1035 0.930 . S
C1043 C1041 1.419 . S
C1043 C1044 1.362 . S
C1044 H1036 0.930 . S
C1044 C1043 1.362 . S
C1044 C1047 1.409 . S
C1045 H1037 0.930 . S
C1045 C1046 1.355 . S
C1045 C1047 1.415 . S
C1046 C1045 1.355 . S
C1046 C1048 1.419 . S
C1047 C1042 1.425 . S
C1047 C1044 1.409 . S
C1047 C1045 1.415 . S
C1048 H1038 0.930 . S
C1048 C1046 1.419 . S
C1048 C1049 1.362 . S
C1049 H1039 0.930 . S
C1049 C1042 1.409 . S
C1049 C1048 1.362 . S
H1050 C1056 0.930 . S
H1051 C1059 0.930 . S
H1052 C1060 0.930 . S
H1053 C1061 0.930 . S
H1054 C1064 0.930 . S
H1055 C1065 0.930 . S
C1056 H1050 0.930 . S
C1056 C1057 1.355 . S
C1056 C1058 1.415 . S
C1057 C1056 1.355 . S
C1057 C1059 1.419 . S
C1058 C1056 1.415 . S
C1058 C1063 1.425 . S
C1058 C1065 1.409 . S
C1059 H1051 0.930 . S
C1059 C1057 1.419 . S
C1059 C1060 1.362 . S
C1060 H1052 0.930 . S
C1060 C1059 1.362 . S
C1060 C1063 1.409 . S
C1061 H1053 0.930 . S
C1061 C1062 1.355 . S
C1061 C1063 1.415 . S
C1062 C1061 1.355 . S
C1062 C1064 1.419 . S
C1063 C1058 1.425 . S
C1063 C1060 1.409 . S
C1063 C1061 1.415 . S
C1064 H1054 0.930 . S
C1064 C1062 1.419 . S
C1064 C1065 1.362 . S
C1065 H1055 0.930 . S
C1065 C1058 1.409 . S
C1065 C1064 1.362 . S
H1066 C1072 0.930 . S
H1067 C1075 0.930 . S
H1068 C1076 0.930 . S
H1069 C1077 0.930 . S
H1070 C1080 0.930 . S
H1071 C1081 0.930 . S
C1072 H1066 0.930 . S
C1072 C1073 1.355 . S
C1072 C1074 1.415 . S
C1073 C1072 1.355 . S
C1073 C1075 1.419 . S
C1074 C1072 1.415 . S
C1074 C1079 1.425 . S
C1074 C1081 1.409 . S
C1075 H1067 0.930 . S
C1075 C1073 1.419 . S
C1075 C1076 1.362 . S
C1076 H1068 0.930 . S
C1076 C1075 1.362 . S
C1076 C1079 1.409 . S
C1077 H1069 0.930 . S
C1077 C1078 1.355 . S
C1077 C1079 1.415 . S
C1078 C1077 1.355 . S
C1078 C1080 1.419 . S
C1079 C1074 1.425 . S
C1079 C1076 1.409 . S
C1079 C1077 1.415 . S
C1080 H1070 0.930 . S
C1080 C1078 1.419 . S
C1080 C1081 1.362 . S
C1081 H1071 0.930 . S
C1081 C1074 1.409 . S
C1081 C1080 1.362 . S
H1082 C1088 0.930 . S
H1083 C1091 0.930 . S
H1084 C1092 0.930 . S
H1085 C1093 0.930 . S
H1086 C1096 0.930 . S
H1087 C1097 0.930 . S
C1088 H1082 0.930 . S
C1088 C1089 1.355 . S
C1088 C1090 1.415 . S
C1089 C1088 1.355 . S
C1089 C1091 1.419 . S
C1090 C1088 1.415 . S
C1090 C1095 1.425 . S
C1090 C1097 1.409 . S
C1091 H1083 0.930 . S
C1091 C1089 1.419 . S
C1091 C1092 1.362 . S
C1092 H1084 0.930 . S
C1092 C1091 1.362 . S
C1092 C1095 1.409 . S
C1093 H1085 0.930 . S
C1093 C1094 1.355 . S
C1093 C1095 1.415 . S
C1094 C1093 1.355 . S
C1094 C1096 1.419 . S
C1095 C1090 1.425 . S
C1095 C1092 1.409 . S
C1095 C1093 1.415 . S
C1096 H1086 0.930 . S
C1096 C1094 1.419 . S
C1096 C1097 1.362 . S
C1097 H1087 0.930 . S
C1097 C1090 1.409 . S
C1097 C1096 1.362 . S
H1098 C1104 0.930 . S
H1099 C1107 0.930 . S
H1100 C1108 0.930 . S
H1101 C1109 0.930 . S
H1102 C1112 0.930 . S
H1103 C1113 0.930 . S
C1104 H1098 0.930 . S
C1104 C1105 1.355 . S
C1104 C1106 1.415 . S
C1105 C1104 1.355 . S
C1105 C1107 1.419 . S
C1106 C1104 1.415 . S
C1106 C1111 1.425 . S
C1106 C1113 1.409 . S
C1107 H1099 0.930 . S
C1107 C1105 1.419 . S
C1107 C1108 1.362 . S
C1108 H1100 0.930 . S
C1108 C1107 1.362 . S
C1108 C1111 1.409 . S
C1109 H1101 0.930 . S
C1109 C1110 1.355 . S
C1109 C1111 1.415 . S
C1110 C1109 1.355 . S
C1110 C1112 1.419 . S
C1111 C1106 1.425 . S
C1111 C1108 1.409 . S
C1111 C1109 1.415 . S
C1112 H1102 0.930 . S
C1112 C1110 1.419 . S
C1112 C1113 1.362 . S
C1113 H1103 0.930 . S
C1113 C1106 1.409 . S
C1113 C1112 1.362 . S
C358 C171 1.580 . S
C353 C9 1.599 . S
C374 C161 1.293 . S
C369 C22 1.320 . S
C390 C162 1.001 . S
C385 C49 0.947 . S
C401 C61 1.309 . S
C406 C184 1.293 . S
C417 C81 1.296 . S
C422 C187 1.294 . S
C438 C170 0.965 . S
C433 C108 0.994 . S
C449 C122 1.234 . S
C454 C160 1.217 . S
C465 C148 1.589 . S
C470 C178 1.561 . S
C486 C191 2.106 . S
C481 C18 2.100 . S
C497 C39 1.456 . S
C502 C240 1.411 . S
C518 C218 2.175 . S
C513 C58 2.193 . S
C534 C232 0.935 . S
C529 C69 0.924 . S
C545 C89 0.967 . S
C550 C193 0.981 . S
C566 C246 1.234 . S
C561 C102 1.328 . S
C577 C139 1.461 . S
C582 C202 1.406 . S
C593 C142 1.328 . S
C598 C223 1.361 . S
C609 C1 1.361 . S
C614 C249 1.343 . S
C625 C98 1.459 . S
C630 C233 1.412 . S
C646 C192 2.191 . S
C641 C119 2.201 . S
C662 C224 0.942 . S
C657 C128 0.924 . S
C673 C159 2.087 . S
C678 C215 2.117 . S
C689 C41 1.291 . S
C694 C222 1.316 . S
C710 C209 1.403 . S
C705 C78 1.457 . S
C721 C28 0.955 . S
C726 C201 0.911 . S
C737 C149 1.588 . S
C742 C264 1.556 . S
C753 C82 1.295 . S
C758 C254 1.304 . S
C774 C255 0.982 . S
C769 C109 0.939 . S
C790 C277 1.270 . S
C785 C121 1.264 . S
C801 C21 1.297 . S
C806 C280 1.310 . S
C822 C263 0.981 . S
C817 C48 0.939 . S
C833 C62 1.252 . S
C838 C253 1.256 . S
C849 C8 1.624 . S
C854 C271 1.600 . S
C865 C158 2.096 . S
C870 C284 2.140 . S
C886 C333 1.399 . S
C881 C99 1.433 . S
C897 C118 2.177 . S
C902 C311 2.170 . S
C913 C129 0.977 . S
C918 C325 0.888 . S
C934 C286 0.921 . S
C929 C29 0.920 . S
C945 C42 1.297 . S
C950 C339 1.323 . S
C966 C295 1.465 . S
C961 C79 1.464 . S
C982 C316 1.353 . S
C977 C2 1.355 . S
C998 C342 1.366 . S
C993 C141 1.327 . S
C1009 C38 1.432 . S
C1014 C326 1.395 . S
C1025 C59 2.201 . S
C1030 C285 2.187 . S
C1046 C317 0.867 . S
C1041 C68 0.952 . S
C1057 C19 2.094 . S
C1062 C308 2.108 . S
C1073 C101 1.348 . S
C1078 C315 1.256 . S
C1094 C302 1.469 . S
C1089 C138 1.471 . S
C1110 C294 0.979 . S
C1105 C88 0.968 . S
