# Generated by pormake.
# Topology anh, (6,3)-cn, num edge types: 1
# Building blocks:
#     Node 0, Type 0, BuildingBlock: BETFAJ_clean_sbu_0, # of connection points: 6
#     Node 1, Type 0, BuildingBlock: BETFAJ_clean_sbu_0, # of connection points: 6
#     Node 2, Type 0, BuildingBlock: BETFAJ_clean_sbu_0, # of connection points: 6
#     Node 3, Type 1, BuildingBlock: OLANEW_clean_sbu_2, # of connection points: 3
#     Node 4, Type 1, BuildingBlock: OLANEW_clean_sbu_2, # of connection points: 3
#     Node 5, Type 1, BuildingBlock: OLANEW_clean_sbu_2, # of connection points: 3
#     Node 6, Type 1, BuildingBlock: OLANEW_clean_sbu_2, # of connection points: 3
#     Node 7, Type 1, BuildingBlock: OLANEW_clean_sbu_2, # of connection points: 3
#     Node 8, Type 1, BuildingBlock: OLANEW_clean_sbu_2, # of connection points: 3
#     Edge 9, Type (0, 1), BuildingBlock: ZUJKAS_clean_linker_0, # of connection points: 2
#     Edge 10, Type (0, 1), BuildingBlock: ZUJKAS_clean_linker_0, # of connection points: 2
#     Edge 11, Type (0, 1), BuildingBlock: ZUJKAS_clean_linker_0, # of connection points: 2
#     Edge 12, Type (0, 1), BuildingBlock: ZUJKAS_clean_linker_0, # of connection points: 2
#     Edge 13, Type (0, 1), BuildingBlock: ZUJKAS_clean_linker_0, # of connection points: 2
#     Edge 14, Type (0, 1), BuildingBlock: ZUJKAS_clean_linker_0, # of connection points: 2
#     Edge 15, Type (0, 1), BuildingBlock: ZUJKAS_clean_linker_0, # of connection points: 2
#     Edge 16, Type (0, 1), BuildingBlock: ZUJKAS_clean_linker_0, # of connection points: 2
#     Edge 17, Type (0, 1), BuildingBlock: ZUJKAS_clean_linker_0, # of connection points: 2
#     Edge 18, Type (0, 1), BuildingBlock: ZUJKAS_clean_linker_0, # of connection points: 2
#     Edge 19, Type (0, 1), BuildingBlock: ZUJKAS_clean_linker_0, # of connection points: 2
#     Edge 20, Type (0, 1), BuildingBlock: ZUJKAS_clean_linker_0, # of connection points: 2
#     Edge 21, Type (0, 1), BuildingBlock: ZUJKAS_clean_linker_0, # of connection points: 2
#     Edge 22, Type (0, 1), BuildingBlock: ZUJKAS_clean_linker_0, # of connection points: 2
#     Edge 23, Type (0, 1), BuildingBlock: ZUJKAS_clean_linker_0, # of connection points: 2
#     Edge 24, Type (0, 1), BuildingBlock: ZUJKAS_clean_linker_0, # of connection points: 2
#     Edge 25, Type (0, 1), BuildingBlock: ZUJKAS_clean_linker_0, # of connection points: 2
#     Edge 26, Type (0, 1), BuildingBlock: ZUJKAS_clean_linker_0, # of connection points: 2
# Relax obj value: 0.113
# Max RMSD: 0.154
# Mean RMSD: 0.109
data_MOF--net-anh--node1-BETFAJ_clean_sbu_0--node2-OLANEW_clean_sbu_2--edge1-ZUJKAS_clean_linker_0
_symmetry_space_group_name_H-M    P1
_symmetry_Int_Tables_number       1
_symmetry_cell_setting            triclinic
loop_
_symmetry_equiv_pos_as_xyz
'x, y, z'
_cell_length_a     46.183259
_cell_length_b     50.636465
_cell_length_c     65.418313
_cell_angle_alpha  91.654734
_cell_angle_beta   89.711441
_cell_angle_gamma 128.36105
loop_
_atom_site_label
_atom_site_type_symbol
_atom_site_fract_x
_atom_site_fract_y
_atom_site_fract_z
_atom_type_partial_charge
Sm0 Sm 0.02743 0.48996 0.13668 0.0
Sm1 Sm 0.98679 0.51959 0.15477 0.0
C2 C 0.06828 0.47844 0.11641 0.0
C3 C 0.10599 0.49054 0.12027 0.0
C4 C 0.11905 0.47501 0.11038 0.0
C5 C 0.15367 0.48441 0.11571 0.0
C6 C 0.17557 0.50942 0.13108 0.0
C7 C 0.16264 0.52552 0.14053 0.0
C8 C 0.12809 0.51605 0.13522 0.0
C9 C 0.02141 0.49084 0.17841 0.0
C10 C 0.07579 0.57277 0.14652 0.0
C11 C 0.95352 0.53335 0.18062 0.0
C12 C 0.91612 0.52286 0.18275 0.0
C13 C 0.90206 0.51995 0.20231 0.0
C14 C 0.86575 0.5082 0.20459 0.0
C15 C 0.84312 0.49937 0.18729 0.0
C16 C 0.85738 0.50236 0.16772 0.0
C17 C 0.89353 0.51382 0.16546 0.0
C18 C 0.97949 0.51068 0.11245 0.0
C19 C 0.93915 0.43839 0.14281 0.0
O20 O 0.06511 0.50134 0.11118 0.0
O21 O 0.0444 0.4582 0.13014 0.0
O22 O 0.02773 0.51312 0.16669 0.0
O23 O 0.02153 0.46841 0.16838 0.0
O24 O 0.07473 0.54764 0.13877 0.0
O25 O 0.04661 0.56823 0.15447 0.0
O26 O 0.95663 0.50969 0.18356 0.0
O27 O 0.97254 0.55224 0.16506 0.0
O28 O 0.99416 0.50371 0.12483 0.0
O29 O 0.9666 0.52361 0.12282 0.0
O30 O 0.94266 0.46172 0.15491 0.0
O31 O 0.96634 0.44482 0.1312 0.0
H32 H 0.1021 0.45502 0.09896 0.0
H33 H 0.16268 0.47126 0.10833 0.0
H34 H 0.17904 0.54514 0.15221 0.0
H35 H 0.11821 0.52808 0.14317 0.0
H36 H 0.91908 0.52651 0.21581 0.0
H37 H 0.85547 0.50631 0.21983 0.0
H38 H 0.84035 0.49527 0.15415 0.0
H39 H 0.9037 0.5153 0.15024 0.0
Sm40 Sm 0.54023 0.01918 0.49642 0.0
Sm41 Sm 0.49074 0.0364 0.48402 0.0
C42 C 0.56972 0.99436 0.51419 0.0
C43 C 0.56359 0.96219 0.51428 0.0
C44 C 0.57224 0.95323 0.53193 0.0
C45 C 0.56735 0.9231 0.53222 0.0
C46 C 0.55384 0.90138 0.51478 0.0
C47 C 0.54456 0.91025 0.49719 0.0
C48 C 0.54926 0.94032 0.49697 0.0
C49 C 0.53838 0.02645 0.45515 0.0
C50 C 0.45176 0.95795 0.48559 0.0
C51 C 0.4603 0.06202 0.46869 0.0
C52 C 0.46625 0.09423 0.47067 0.0
C53 C 0.5007 0.12516 0.46677 0.0
C54 C 0.50609 0.15542 0.46971 0.0
C55 C 0.47723 0.15543 0.47672 0.0
C56 C 0.44267 0.12434 0.48036 0.0
C57 C 0.43724 0.09411 0.47729 0.0
C58 C 0.4941 0.02947 0.52531 0.0
C59 C 0.58002 0.09729 0.49208 0.0
O60 O 0.54427 0.9947 0.52273 0.0
O61 O 0.582 0.0109 0.49723 0.0
O62 O 0.51068 0.01163 0.46659 0.0
O63 O 0.56789 0.03612 0.4651 0.0
O64 O 0.48166 0.96748 0.4958 0.0
O65 O 0.45028 0.97999 0.47648 0.0
O66 O 0.48542 0.06219 0.45918 0.0
O67 O 0.44802 0.04369 0.48493 0.0
O68 O 0.52114 0.04465 0.51351 0.0
O69 O 0.46392 0.0185 0.51567 0.0
O70 O 0.54957 0.0871 0.48227 0.0
O71 O 0.58158 0.07612 0.50228 0.0
H72 H 0.58294 0.96963 0.5455 0.0
H73 H 0.57402 0.91678 0.54617 0.0
H74 H 0.53436 0.89431 0.48344 0.0
H75 H 0.54208 0.94666 0.48322 0.0
H76 H 0.52361 0.12607 0.46162 0.0
H77 H 0.5329 0.17881 0.46646 0.0
H78 H 0.41996 0.12332 0.48607 0.0
H79 H 0.41047 0.07059 0.48046 0.0
Sm80 Sm 0.56919 0.55585 0.85145 0.0
Sm81 Sm 0.51606 0.47668 0.86238 0.0
C82 C 0.59999 0.61567 0.83617 0.0
C83 C 0.59072 0.63832 0.83286 0.0
C84 C 0.55526 0.62592 0.82636 0.0
C85 C 0.54724 0.64807 0.82341 0.0
C86 C 0.57447 0.68301 0.82704 0.0
C87 C 0.60981 0.69513 0.83377 0.0
C88 C 0.61783 0.67302 0.83659 0.0
C89 C 0.56493 0.54055 0.89169 0.0
C90 C 0.47848 0.51434 0.85841 0.0
C91 C 0.48556 0.42012 0.88163 0.0
C92 C 0.48679 0.39203 0.8782 0.0
C93 C 0.47582 0.3688 0.89348 0.0
C94 C 0.47902 0.3432 0.8905 0.0
C95 C 0.49338 0.34057 0.8722 0.0
C96 C 0.50393 0.36382 0.85686 0.0
C97 C 0.50081 0.38935 0.85987 0.0
C98 C 0.52676 0.48476 0.82059 0.0
C99 C 0.60648 0.51893 0.85509 0.0
O100 O 0.58221 0.58775 0.82495 0.0
O101 O 0.60459 0.61159 0.85521 0.0
O102 O 0.53836 0.52545 0.87902 0.0
O103 O 0.59505 0.56626 0.88362 0.0
O104 O 0.51069 0.54173 0.85218 0.0
O105 O 0.47415 0.48727 0.86442 0.0
O106 O 0.51701 0.44877 0.88751 0.0
O107 O 0.46802 0.42351 0.86755 0.0
O108 O 0.5401 0.50689 0.83462 0.0
O109 O 0.50549 0.4554 0.82871 0.0
O110 O 0.57578 0.49386 0.86404 0.0
O111 O 0.60918 0.54363 0.84626 0.0
H112 H 0.53377 0.59917 0.8235 0.0
H113 H 0.51986 0.63783 0.81803 0.0
H114 H 0.63126 0.72173 0.83712 0.0
H115 H 0.64526 0.68304 0.84179 0.0
H116 H 0.46529 0.37075 0.9078 0.0
H117 H 0.47103 0.32597 0.90271 0.0
H118 H 0.51454 0.36225 0.84247 0.0
H119 H 0.50967 0.40724 0.84795 0.0
O120 O 0.54143 0.03873 0.2249 0.0
Cd121 Cd 0.54361 0.0401 0.18751 0.0
O122 O 0.48344 0.9933 0.22815 0.0
Cd123 Cd 0.46643 0.97501 0.19644 0.0
O124 O 0.42072 0.93023 0.17916 0.0
C125 C 0.42019 0.90494 0.17653 0.0
O126 O 0.4488 0.90736 0.18273 0.0
C127 C 0.51412 0.01814 0.23612 0.0
C128 C 0.60658 0.10305 0.17537 0.0
O129 O 0.57623 0.09802 0.17896 0.0
O130 O 0.60711 0.07822 0.17723 0.0
O131 O 0.53746 0.51154 0.5915 0.0
Cd132 Cd 0.53501 0.51236 0.55422 0.0
O133 O 0.52539 0.54679 0.59772 0.0
Cd134 Cd 0.52075 0.55731 0.56627 0.0
O135 O 0.51451 0.58865 0.54758 0.0
C136 C 0.54305 0.61661 0.54143 0.0
O137 O 0.57567 0.62461 0.54494 0.0
C138 C 0.53241 0.52782 0.60415 0.0
C139 C 0.52609 0.45644 0.53712 0.0
O140 O 0.55829 0.48403 0.54134 0.0
O141 O 0.49811 0.45545 0.54067 0.0
O142 O 0.07342 0.51526 0.89478 0.0
Cd143 Cd 0.105 0.5173 0.86318 0.0
O144 O 0.03032 0.51762 0.88277 0.0
Cd145 Cd 0.98068 0.51605 0.88316 0.0
O146 O 0.9303 0.51303 0.88121 0.0
C147 C 0.93065 0.53528 0.87226 0.0
O148 O 0.96162 0.56065 0.86418 0.0
C149 C 0.0463 0.51566 0.89788 0.0
C150 C 0.16653 0.51758 0.86707 0.0
O151 O 0.17077 0.54511 0.8668 0.0
O152 O 0.13336 0.48994 0.86618 0.0
O153 O 0.08387 0.53414 0.40401 0.0
Cd154 Cd 0.09297 0.54017 0.44108 0.0
O155 O 0.025 0.50349 0.41026 0.0
Cd156 Cd 0.96546 0.46776 0.40485 0.0
O157 O 0.91143 0.4243 0.41485 0.0
C158 C 0.91232 0.41016 0.43031 0.0
O159 O 0.94455 0.42248 0.43849 0.0
C160 C 0.05081 0.51659 0.39734 0.0
C161 C 0.14916 0.60693 0.45274 0.0
O162 O 0.15591 0.58618 0.44933 0.0
O163 O 0.1157 0.59594 0.45083 0.0
O164 O 0.50457 0.98 0.75102 0.0
Cd165 Cd 0.50591 0.97513 0.78803 0.0
O166 O 0.52945 0.03383 0.75245 0.0
Cd167 Cd 0.52748 0.04029 0.78545 0.0
O168 O 0.52269 0.07008 0.80805 0.0
C169 C 0.54598 0.1019 0.8067 0.0
O170 O 0.57224 0.11431 0.79315 0.0
C171 C 0.5173 0.00711 0.74204 0.0
C172 C 0.51484 0.92673 0.79659 0.0
O173 O 0.48259 0.91876 0.79519 0.0
O174 O 0.54281 0.95761 0.79422 0.0
O175 O 0.48367 0.45778 0.11166 0.0
Cd176 Cd 0.46155 0.44654 0.14711 0.0
O177 O 0.54098 0.50372 0.11729 0.0
Cd178 Cd 0.52827 0.51174 0.14763 0.0
O179 O 0.4955 0.52089 0.16557 0.0
C180 C 0.50039 0.54796 0.16216 0.0
O181 O 0.52711 0.56974 0.14996 0.0
C182 C 0.51601 0.48046 0.10514 0.0
C183 C 0.50405 0.43626 0.17036 0.0
O184 O 0.51014 0.4646 0.17084 0.0
O185 O 0.47654 0.41198 0.1596 0.0
H186 H 0.22922 0.51714 0.10739 0.0
H187 H 0.28564 0.52707 0.11897 0.0
H188 H 0.25843 0.53019 0.18169 0.0
H189 H 0.20174 0.51989 0.17029 0.0
H190 H 0.33456 0.58204 0.17169 0.0
H191 H 0.28358 0.45367 0.14728 0.0
H192 H 0.28113 0.47614 0.12751 0.0
H193 H 0.25344 0.46487 0.14991 0.0
C194 C 0.23518 0.51984 0.12364 0.0
C195 C 0.21092 0.51752 0.13792 0.0
C196 C 0.26742 0.52558 0.13022 0.0
C197 C 0.27582 0.52891 0.15117 0.0
C198 C 0.25232 0.52765 0.16546 0.0
H199 H 0.44059 0.50676 0.18637 0.0
H200 H 0.38663 0.50498 0.18927 0.0
C201 C 0.22006 0.5219 0.15889 0.0
C202 C 0.3086 0.53266 0.15811 0.0
H203 H 0.34761 0.49358 0.15561 0.0
C204 C 0.33739 0.56262 0.16841 0.0
C205 C 0.31171 0.50693 0.15421 0.0
C206 C 0.28069 0.47344 0.1443 0.0
C207 C 0.37015 0.5682 0.174 0.0
C208 C 0.37417 0.5433 0.1689 0.0
C209 C 0.34459 0.51273 0.15948 0.0
C210 C 0.40958 0.54912 0.1714 0.0
C211 C 0.40018 0.60073 0.18515 0.0
C212 C 0.44092 0.5753 0.16108 0.0
C213 C 0.47187 0.57652 0.1595 0.0
C214 C 0.47175 0.55123 0.16794 0.0
C215 C 0.44142 0.52647 0.17956 0.0
C216 C 0.41057 0.52542 0.18125 0.0
H217 H 0.38854 0.61113 0.19404 0.0
H218 H 0.41619 0.5972 0.19572 0.0
H219 H 0.41939 0.61962 0.17383 0.0
H220 H 0.44055 0.59347 0.15301 0.0
H221 H 0.4948 0.59596 0.15047 0.0
H222 H 0.58837 0.14624 0.46967 0.0
H223 H 0.64564 0.20178 0.46267 0.0
H224 H 0.70529 0.18424 0.50305 0.0
H225 H 0.64811 0.12819 0.50989 0.0
H226 H 0.69821 0.25816 0.48691 0.0
H227 H 0.75742 0.20223 0.44864 0.0
H228 H 0.70938 0.17738 0.45532 0.0
H229 H 0.74378 0.19003 0.47458 0.0
C230 C 0.61354 0.15424 0.47727 0.0
C231 C 0.61372 0.13256 0.49014 0.0
C232 C 0.64627 0.18605 0.47325 0.0
C233 C 0.67978 0.19679 0.482 0.0
C234 C 0.67979 0.17606 0.49578 0.0
H235 H 0.90621 0.37219 0.46131 0.0
H236 H 0.84978 0.3218 0.47507 0.0
C237 C 0.64706 0.14412 0.49975 0.0
C238 C 0.71478 0.22894 0.47583 0.0
H239 H 0.7958 0.26157 0.45163 0.0
C240 C 0.71961 0.25897 0.47923 0.0
C241 C 0.74249 0.2298 0.46568 0.0
C242 C 0.73801 0.19815 0.46064 0.0
C243 C 0.75163 0.28994 0.47289 0.0
C244 C 0.77921 0.29072 0.46272 0.0
C245 C 0.77456 0.26079 0.4595 0.0
C246 C 0.81302 0.32224 0.45501 0.0
C247 C 0.75592 0.32163 0.47725 0.0
C248 C 0.81094 0.339 0.43908 0.0
C249 C 0.84318 0.36775 0.43108 0.0
C250 C 0.87799 0.38015 0.43889 0.0
C251 C 0.87986 0.36335 0.45496 0.0
C252 C 0.84766 0.33457 0.46287 0.0
H253 H 0.73649 0.31791 0.48912 0.0
H254 H 0.78459 0.34264 0.48239 0.0
H255 H 0.75013 0.32915 0.46303 0.0
H256 H 0.78442 0.32948 0.43259 0.0
H257 H 0.84081 0.38009 0.41869 0.0
H258 H 0.61974 0.74597 0.81111 0.0
H259 H 0.60726 0.7858 0.80694 0.0
H260 H 0.49758 0.71341 0.83014 0.0
H261 H 0.51048 0.674 0.83542 0.0
H262 H 0.55614 0.78093 0.78358 0.0
H263 H 0.53405 0.79582 0.86523 0.0
H264 H 0.55333 0.77533 0.85721 0.0
H265 H 0.50428 0.75298 0.85561 0.0
C266 C 0.59315 0.73864 0.81568 0.0
C267 C 0.56628 0.70682 0.82383 0.0
C268 C 0.58595 0.76138 0.8131 0.0
C269 C 0.55173 0.75287 0.81856 0.0
C270 C 0.5245 0.72087 0.82626 0.0
H271 H 0.4617 0.86063 0.80588 0.0
H272 H 0.46975 0.81778 0.81116 0.0
C273 C 0.53176 0.69816 0.82899 0.0
C274 C 0.54452 0.77735 0.81575 0.0
H275 H 0.52141 0.82175 0.84112 0.0
C276 C 0.54863 0.78989 0.79618 0.0
C277 C 0.53472 0.78906 0.83221 0.0
C278 C 0.53166 0.77788 0.85379 0.0
C279 C 0.54308 0.81367 0.79261 0.0
C280 C 0.53336 0.82535 0.80905 0.0
C281 C 0.52879 0.8126 0.82856 0.0
C282 C 0.52866 0.85142 0.8063 0.0
C283 C 0.54737 0.826 0.77124 0.0
C284 C 0.55925 0.88458 0.80214 0.0
C285 C 0.55482 0.90914 0.79925 0.0
C286 C 0.51966 0.90094 0.8004 0.0
C287 C 0.48912 0.86774 0.80482 0.0
C288 C 0.49365 0.84324 0.80787 0.0
H289 H 0.54767 0.80974 0.75961 0.0
H290 H 0.52465 0.82694 0.76737 0.0
H291 H 0.57382 0.85193 0.77038 0.0
H292 H 0.58656 0.89143 0.80111 0.0
H293 H 0.57891 0.93446 0.79589 0.0
H294 H 0.80924 0.51927 0.1664 0.0
H295 H 0.74543 0.49822 0.16921 0.0
H296 H 0.72624 0.43049 0.21574 0.0
H297 H 0.7905 0.45187 0.21316 0.0
H298 H 0.68252 0.43324 0.16213 0.0
H299 H 0.68744 0.4771 0.24198 0.0
H300 H 0.72866 0.49236 0.22798 0.0
H301 H 0.70144 0.45116 0.23848 0.0
C302 C 0.79143 0.49991 0.17723 0.0
C303 C 0.80474 0.48717 0.18955 0.0
C304 C 0.75505 0.48796 0.17887 0.0
C305 C 0.73123 0.463 0.1928 0.0
C306 C 0.74438 0.4502 0.20517 0.0
H307 H 0.50048 0.38019 0.17176 0.0
H308 H 0.55078 0.37888 0.1814 0.0
C309 C 0.781 0.46238 0.20366 0.0
C310 C 0.69245 0.4501 0.1937 0.0
H311 H 0.63154 0.44987 0.22361 0.0
C312 C 0.67109 0.43641 0.17563 0.0
C313 C 0.67781 0.45434 0.21138 0.0
C314 C 0.7 0.46975 0.23105 0.0
C315 C 0.63626 0.42862 0.17436 0.0
C316 C 0.62194 0.43371 0.19189 0.0
C317 C 0.64249 0.44572 0.21029 0.0
C318 C 0.58867 0.43176 0.19045 0.0
C319 C 0.61638 0.41726 0.15387 0.0
C320 C 0.59246 0.46125 0.19377 0.0
C321 C 0.56371 0.46195 0.18862 0.0
C322 C 0.5307 0.43318 0.17991 0.0
C323 C 0.52578 0.40287 0.1782 0.0
C324 C 0.55453 0.40212 0.18359 0.0
H325 H 0.63445 0.42072 0.14119 0.0
H326 H 0.59239 0.39009 0.15419 0.0
H327 H 0.60599 0.43143 0.15044 0.0
H328 H 0.6185 0.48438 0.19916 0.0
H329 H 0.56829 0.48564 0.19031 0.0
H330 H 0.38234 0.92958 0.47126 0.0
H331 H 0.32971 0.86969 0.46799 0.0
H332 H 0.39653 0.84455 0.49181 0.0
H333 H 0.44905 0.9044 0.49564 0.0
H334 H 0.32325 0.82141 0.44488 0.0
H335 H 0.30575 0.7882 0.52646 0.0
H336 H 0.33445 0.83128 0.51848 0.0
H337 H 0.35151 0.80754 0.51752 0.0
C338 C 0.3858 0.91133 0.47593 0.0
C339 C 0.41983 0.92174 0.48378 0.0
C340 C 0.35568 0.87712 0.47407 0.0
C341 C 0.35901 0.85268 0.47998 0.0
C342 C 0.39304 0.86299 0.48767 0.0
H343 H 0.22133 0.63638 0.46162 0.0
H344 H 0.27168 0.69621 0.46898 0.0
C345 C 0.42311 0.89722 0.48971 0.0
C346 C 0.32736 0.81642 0.47713 0.0
H347 H 0.272 0.7423 0.50202 0.0
C348 C 0.31188 0.80419 0.45741 0.0
C349 C 0.31255 0.794 0.49351 0.0
C350 C 0.32666 0.80594 0.51522 0.0
C351 C 0.2824 0.77002 0.45357 0.0
C352 C 0.26806 0.74762 0.46987 0.0
C353 C 0.28332 0.75971 0.48959 0.0
C354 C 0.23726 0.71142 0.46656 0.0
C355 C 0.26704 0.75787 0.43208 0.0
C356 C 0.20132 0.70036 0.46309 0.0
C357 C 0.17248 0.66625 0.45898 0.0
C358 C 0.17925 0.64272 0.45818 0.0
C359 C 0.21526 0.6539 0.46205 0.0
C360 C 0.24402 0.68799 0.4663 0.0
H361 H 0.28442 0.77754 0.42071 0.0
H362 H 0.26472 0.73523 0.42779 0.0
H363 H 0.23889 0.75055 0.43132 0.0
H364 H 0.19569 0.7182 0.46335 0.0
H365 H 0.14505 0.65844 0.45609 0.0
H366 H 0.55117 0.34692 0.85454 0.0
H367 H 0.55737 0.30299 0.84782 0.0
H368 H 0.45325 0.23069 0.87686 0.0
H369 H 0.44607 0.27429 0.88297 0.0
H370 H 0.55959 0.26258 0.87463 0.0
H371 H 0.43904 0.18534 0.82107 0.0
H372 H 0.45859 0.22794 0.82894 0.0
H373 H 0.42932 0.19396 0.8459 0.0
C374 C 0.52933 0.3216 0.85931 0.0
C375 C 0.49787 0.31406 0.86907 0.0
C376 C 0.53311 0.29659 0.85562 0.0
C377 C 0.50554 0.26347 0.86156 0.0
C378 C 0.47455 0.25596 0.87181 0.0
H379 H 0.48974 0.08461 0.83231 0.0
H380 H 0.47967 0.12241 0.84871 0.0
C381 C 0.47069 0.281 0.87548 0.0
C382 C 0.50937 0.23697 0.85675 0.0
H383 H 0.47178 0.16488 0.82792 0.0
C384 C 0.54027 0.24109 0.86453 0.0
C385 C 0.48405 0.20889 0.84361 0.0
C386 C 0.45102 0.20375 0.83423 0.0
C387 C 0.54686 0.21816 0.85928 0.0
C388 C 0.52215 0.19068 0.84566 0.0
C389 C 0.49062 0.18594 0.83841 0.0
C390 C 0.52986 0.16801 0.83749 0.0
C391 C 0.58029 0.22367 0.8683 0.0
C392 C 0.56147 0.18113 0.82584 0.0
C393 C 0.56729 0.15968 0.81647 0.0
C394 C 0.54147 0.12458 0.81845 0.0
C395 C 0.51022 0.11152 0.83054 0.0
C396 C 0.50439 0.13306 0.83989 0.0
H397 H 0.58953 0.23885 0.88286 0.0
H398 H 0.57455 0.19932 0.87121 0.0
H399 H 0.60335 0.23765 0.85739 0.0
H400 H 0.5811 0.20794 0.82341 0.0
H401 H 0.59158 0.1706 0.80722 0.0
H402 H 0.60057 0.8923 0.53248 0.0
H403 H 0.59376 0.84054 0.5335 0.0
H404 H 0.49282 0.7877 0.49795 0.0
H405 H 0.49867 0.83921 0.49732 0.0
H406 H 0.52659 0.77502 0.54896 0.0
H407 H 0.56236 0.7699 0.46823 0.0
H408 H 0.57718 0.80877 0.48087 0.0
H409 H 0.52989 0.7779 0.47291 0.0
C410 C 0.57667 0.86966 0.52503 0.0
C411 C 0.55006 0.86996 0.51491 0.0
C412 C 0.57302 0.84017 0.5255 0.0
C413 C 0.54297 0.81048 0.51568 0.0
C414 C 0.51646 0.81056 0.5054 0.0
H415 H 0.48082 0.61173 0.53748 0.0
H416 H 0.47768 0.65668 0.52903 0.0
C417 C 0.51994 0.84004 0.50503 0.0
C418 C 0.53895 0.77923 0.51692 0.0
H419 H 0.5481 0.72646 0.48944 0.0
C420 C 0.53095 0.76417 0.53593 0.0
C421 C 0.54491 0.76544 0.49988 0.0
C422 C 0.55426 0.78127 0.47928 0.0
C423 C 0.52916 0.73578 0.53844 0.0
C424 C 0.53536 0.72205 0.52144 0.0
C425 C 0.54308 0.73694 0.50236 0.0
C426 C 0.53619 0.69353 0.52369 0.0
C427 C 0.5218 0.72127 0.5594 0.0
C428 C 0.56991 0.69909 0.52269 0.0
C429 C 0.57187 0.67351 0.52752 0.0
C430 C 0.54004 0.64188 0.53336 0.0
C431 C 0.5059 0.63583 0.53316 0.0
C432 C 0.50402 0.66149 0.52839 0.0
H433 H 0.52369 0.73814 0.57152 0.0
H434 H 0.4936 0.69675 0.55955 0.0
H435 H 0.5417 0.71664 0.56317 0.0
H436 H 0.59502 0.72367 0.51904 0.0
H437 H 0.59855 0.67896 0.52741 0.0
H438 H 0.67651 0.56717 0.8407 0.0
H439 H 0.73049 0.56869 0.84309 0.0
H440 H 0.66537 0.47445 0.87395 0.0
H441 H 0.61133 0.47242 0.87139 0.0
H442 H 0.76597 0.57019 0.8775 0.0
H443 H 0.71316 0.45575 0.82988 0.0
H444 H 0.69122 0.47534 0.83014 0.0
H445 H 0.68324 0.44834 0.85041 0.0
C446 C 0.67351 0.54657 0.84783 0.0
C447 C 0.63931 0.5196 0.85576 0.0
C448 C 0.70451 0.54753 0.84923 0.0
C449 C 0.70204 0.52144 0.85843 0.0
C450 C 0.66796 0.49453 0.86636 0.0
H451 H 0.86066 0.48572 0.88629 0.0
H452 H 0.80558 0.48257 0.88345 0.0
C453 C 0.63701 0.49354 0.86499 0.0
C454 C 0.73533 0.52295 0.86043 0.0
H455 H 0.76876 0.48008 0.84875 0.0
C456 C 0.76662 0.55057 0.8711 0.0
C457 C 0.73628 0.49728 0.85222 0.0
C458 C 0.70433 0.46765 0.83986 0.0
C459 C 0.7984 0.55297 0.87404 0.0
C460 C 0.7994 0.52736 0.86577 0.0
C461 C 0.76808 0.49968 0.85516 0.0
C462 C 0.83295 0.52924 0.86757 0.0
C463 C 0.83035 0.58261 0.8864 0.0
C464 C 0.86667 0.55623 0.85938 0.0
C465 C 0.89816 0.5581 0.86098 0.0
C466 C 0.8968 0.53291 0.87074 0.0
C467 C 0.86287 0.50565 0.87875 0.0
C468 C 0.83129 0.50379 0.87711 0.0
H469 H 0.8215 0.59447 0.89639 0.0
H470 H 0.8435 0.57493 0.89608 0.0
H471 H 0.85142 0.60193 0.87584 0.0
H472 H 0.86862 0.57582 0.85154 0.0
H473 H 0.92362 0.57937 0.85448 0.0
H474 H 0.14508 0.59183 0.13985 0.0
H475 H 0.20414 0.64866 0.14291 0.0
H476 H 0.14664 0.68876 0.15712 0.0
H477 H 0.08768 0.6321 0.15467 0.0
H478 H 0.23279 0.70628 0.12272 0.0
H479 H 0.21824 0.72572 0.20477 0.0
H480 H 0.18812 0.68505 0.19178 0.0
H481 H 0.18035 0.71555 0.18934 0.0
C482 C 0.14497 0.61272 0.14363 0.0
C483 C 0.1116 0.60731 0.14726 0.0
C484 C 0.17878 0.64522 0.14535 0.0
C485 C 0.17989 0.67291 0.15068 0.0
C486 C 0.14657 0.6677 0.15358 0.0
H487 H 0.35197 0.88793 0.16951 0.0
H488 H 0.29423 0.8318 0.16137 0.0
C489 C 0.11282 0.63524 0.15206 0.0
C490 C 0.21583 0.70722 0.1533 0.0
H491 H 0.2672 0.77396 0.18734 0.0
C492 C 0.2404 0.72101 0.13688 0.0
C493 C 0.22588 0.72638 0.17184 0.0
C494 C 0.20195 0.71232 0.1905 0.0
C495 C 0.27433 0.7537 0.13838 0.0
C496 C 0.2839 0.77298 0.15676 0.0
C497 C 0.25953 0.75918 0.17319 0.0
C498 C 0.31942 0.80737 0.15953 0.0
C499 C 0.29951 0.76768 0.12024 0.0
C500 C 0.35273 0.81221 0.16099 0.0
C501 C 0.38576 0.84422 0.16576 0.0
C502 C 0.38607 0.87196 0.16914 0.0
C503 C 0.35277 0.86717 0.16695 0.0
C504 C 0.31973 0.83511 0.16234 0.0
H505 H 0.28527 0.75219 0.10604 0.0
H506 H 0.31032 0.79394 0.11768 0.0
H507 H 0.32346 0.76819 0.12334 0.0
H508 H 0.35298 0.79103 0.15912 0.0
H509 H 0.41088 0.847 0.16734 0.0
H510 H 0.42929 0.16916 0.46952 0.0
H511 H 0.43815 0.22112 0.47808 0.0
H512 H 0.54766 0.26687 0.50125 0.0
H513 H 0.53878 0.21477 0.49336 0.0
H514 H 0.45793 0.25347 0.51972 0.0
H515 H 0.55924 0.33572 0.46022 0.0
H516 H 0.52895 0.29026 0.45769 0.0
H517 H 0.56855 0.31181 0.4745 0.0
C518 C 0.45523 0.19018 0.47652 0.0
C519 C 0.4833 0.18766 0.48077 0.0
C520 C 0.4603 0.21991 0.48127 0.0
C521 C 0.49365 0.24784 0.4901 0.0
C522 C 0.52192 0.24571 0.49413 0.0
H523 H 0.57876 0.44782 0.53323 0.0
H524 H 0.57008 0.39696 0.52157 0.0
C525 C 0.51681 0.21592 0.48953 0.0
C526 C 0.49822 0.27868 0.49605 0.0
H527 H 0.54654 0.36168 0.48533 0.0
C528 C 0.47713 0.27713 0.51216 0.0
C529 C 0.52352 0.30944 0.48623 0.0
C530 C 0.54627 0.3121 0.46859 0.0
C531 C 0.48115 0.30579 0.51902 0.0
C532 C 0.50622 0.3366 0.50907 0.0
C533 C 0.52726 0.33806 0.49289 0.0
C534 C 0.51145 0.36771 0.51546 0.0
C535 C 0.45935 0.30298 0.53726 0.0
C536 C 0.48154 0.36842 0.51549 0.0
C537 C 0.48634 0.39735 0.52233 0.0
C538 C 0.52129 0.42632 0.52897 0.0
C539 C 0.55145 0.42591 0.52827 0.0
C540 C 0.54655 0.39687 0.52159 0.0
H541 H 0.44991 0.28094 0.54652 0.0
H542 H 0.47596 0.32607 0.54729 0.0
H543 H 0.43448 0.29962 0.53186 0.0
H544 H 0.4544 0.34654 0.51031 0.0
H545 H 0.46262 0.39696 0.52249 0.0
H546 H 0.40629 0.46213 0.8673 0.0
H547 H 0.35379 0.46278 0.86907 0.0
H548 H 0.42456 0.56739 0.85352 0.0
H549 H 0.47731 0.56709 0.85172 0.0
H550 H 0.37711 0.5515 0.88765 0.0
H551 H 0.29904 0.46581 0.82037 0.0
H552 H 0.3132 0.45018 0.83891 0.0
H553 H 0.34749 0.48658 0.82472 0.0
C554 C 0.4108 0.48531 0.86417 0.0
C555 C 0.44623 0.51452 0.85929 0.0
C556 C 0.38061 0.48557 0.86511 0.0
C557 C 0.38502 0.51502 0.86121 0.0
C558 C 0.42036 0.54431 0.85651 0.0
H559 H 0.24008 0.57165 0.86451 0.0
H560 H 0.29283 0.57138 0.86349 0.0
C561 C 0.45054 0.54404 0.85544 0.0
C562 C 0.35297 0.51544 0.86238 0.0
H563 H 0.26875 0.4812 0.84061 0.0
C564 C 0.35346 0.53623 0.87732 0.0
C565 C 0.32198 0.49541 0.84898 0.0
C566 C 0.32031 0.4734 0.83221 0.0
C567 C 0.32363 0.53705 0.87948 0.0
C568 C 0.29268 0.51719 0.86596 0.0
C569 C 0.29228 0.49643 0.85101 0.0
C570 C 0.2605 0.51757 0.86698 0.0
C571 C 0.32521 0.5585 0.89663 0.0
C572 C 0.22435 0.48737 0.86875 0.0
C573 C 0.19398 0.48741 0.86907 0.0
C574 C 0.19894 0.51768 0.86762 0.0
C575 C 0.23515 0.5479 0.86589 0.0
C576 C 0.26549 0.54781 0.86543 0.0
H577 H 0.34448 0.56353 0.90908 0.0
H578 H 0.33535 0.58313 0.89062 0.0
H579 H 0.29751 0.54628 0.90322 0.0
H580 H 0.21958 0.46365 0.86987 0.0
H581 H 0.16655 0.46363 0.87035 0.0
H582 H 0.87301 0.41804 0.15763 0.0
H583 H 0.81639 0.3605 0.16105 0.0
H584 H 0.8688 0.32207 0.13303 0.0
H585 H 0.92548 0.37981 0.12902 0.0
H586 H 0.79777 0.28742 0.11944 0.0
H587 H 0.8026 0.29834 0.20408 0.0
H588 H 0.8025 0.3299 0.19242 0.0
H589 H 0.84089 0.32952 0.1886 0.0
C590 C 0.87253 0.3974 0.15209 0.0
C591 C 0.90395 0.40355 0.14324 0.0
C592 C 0.84015 0.36446 0.15419 0.0
C593 C 0.83863 0.33691 0.14782 0.0
C594 C 0.86944 0.34294 0.13823 0.0
H595 H 0.6728 0.12018 0.16276 0.0
H596 H 0.72905 0.1764 0.15488 0.0
C597 C 0.90181 0.37597 0.13593 0.0
C598 C 0.80505 0.30191 0.15142 0.0
H599 H 0.74683 0.24992 0.18889 0.0
C600 C 0.78679 0.27914 0.13464 0.0
C601 C 0.79086 0.291 0.1713 0.0
C602 C 0.81043 0.31335 0.19015 0.0
C603 C 0.75419 0.24613 0.13715 0.0
C604 C 0.73959 0.23567 0.15693 0.0
C605 C 0.758 0.2582 0.17372 0.0
C606 C 0.70509 0.20141 0.16058 0.0
C607 C 0.73505 0.22277 0.11866 0.0
C608 C 0.6731 0.19695 0.16646 0.0
C609 C 0.64089 0.1649 0.17086 0.0
C610 C 0.64024 0.13674 0.16975 0.0
C611 C 0.67236 0.14131 0.16376 0.0
C612 C 0.70448 0.17337 0.15918 0.0
H613 H 0.74693 0.23612 0.10412 0.0
H614 H 0.73783 0.20254 0.1192 0.0
H615 H 0.70511 0.21057 0.11873 0.0
H616 H 0.67315 0.21836 0.16773 0.0
H617 H 0.61671 0.1623 0.17549 0.0
H618 H 0.95836 0.53472 0.08434 0.0
H619 H 0.96311 0.53325 0.04699 0.0
H620 H 0.00875 0.48091 0.05266 0.0
H621 H 1.0036 0.48194 0.0899 0.0
H622 H 0.02795 0.56133 0.02467 0.0
H623 H 0.92666 0.42347 0.00929 0.0
H624 H 0.92832 0.44335 0.03312 0.0
H625 H 0.96063 0.43523 0.02857 0.0
C626 C 0.96908 0.52263 0.07757 0.0
C627 C 0.98072 0.50851 0.08996 0.0
C628 C 0.97182 0.52186 0.05627 0.0
C629 C 0.98586 0.50662 0.04703 0.0
C630 C 0.99721 0.49226 0.05942 0.0
H631 H 0.05255 0.48569 0.9294 0.0
H632 H 0.03541 0.48381 0.965 0.0
C633 C 0.99456 0.49311 0.0807 0.0
C634 C 0.99039 0.50713 0.02453 0.0
H635 H 0.96718 0.45628 0.98213 0.0
C636 C 0.01434 0.5384 0.01529 0.0
C637 C 0.97259 0.47716 0.01236 0.0
C638 C 0.94533 0.44289 0.02128 0.0
C639 C 0.02217 0.54052 0.99435 0.0
C640 C 1.00499 0.51051 0.98225 0.0
C641 C 0.98033 0.47925 0.99142 0.0
C642 C 0.01395 0.51095 0.96037 0.0
C643 C 0.04996 0.57481 0.98555 0.0
C644 C 0.00718 0.52649 0.94582 0.0
C645 C 0.01717 0.52776 0.9254 0.0
C646 C 0.03369 0.51316 0.91913 0.0
C647 C 0.03986 0.49718 0.93371 0.0
C648 C 0.02995 0.49597 0.95406 0.0
H649 H 0.06667 0.59467 0.99769 0.0
H650 H 0.06895 0.57473 0.97511 0.0
H651 H 0.03518 0.58157 0.97661 0.0
H652 H 0.99451 0.53792 0.9503 0.0
H653 H 0.01304 0.54113 0.91475 0.0
H654 H 0.47711 0.99812 0.43086 0.0
H655 H 0.47478 -0.00028 0.3935 0.0
H656 H 0.59366 0.0622 0.39194 0.0
H657 H 0.59606 0.05994 0.42915 0.0
H658 H 0.50462 0.05235 0.36777 0.0
H659 H 0.56345 0.98605 0.35215 0.0
H660 H 0.54792 0.9878 0.37715 0.0
H661 H 0.5924 0.02313 0.36835 0.0
C662 C 0.5027 0.01212 0.42251 0.0
C663 C 0.53674 0.02854 0.43281 0.0
C664 C 0.50135 0.01307 0.4012 0.0
C665 C 0.534 0.03049 0.3899 0.0
C666 C 0.56807 0.04785 0.40029 0.0
H667 H 0.57744 0.06105 0.25928 0.0
H668 H 0.58311 0.06636 0.2967 0.0
C669 C 0.56942 0.04669 0.42154 0.0
C670 C 0.53242 0.03047 0.36726 0.0
H671 H 0.55583 0.00932 0.32368 0.0
C672 C 0.51573 0.04287 0.35813 0.0
C673 C 0.54691 0.01804 0.35471 0.0
C674 C 0.56336 0.0027 0.36356 0.0
C675 C 0.51344 0.04344 0.33677 0.0
C676 C 0.52804 0.03114 0.32428 0.0
C677 C 0.54496 0.01898 0.33337 0.0
C678 C 0.52453 0.02918 0.30173 0.0
C679 C 0.49568 0.05739 0.32767 0.0
C680 C 0.48974 0.00639 0.29226 0.0
C681 C 0.48641 0.00309 0.27097 0.0
C682 C 0.51784 0.02261 0.2587 0.0
C683 C 0.55268 0.04573 0.26826 0.0
C684 C 0.55599 0.04879 0.28962 0.0
H685 H 0.49301 0.07236 0.33913 0.0
H686 H 0.51192 0.07354 0.31461 0.0
H687 H 0.46763 0.03622 0.32182 0.0
H688 H 0.46521 0.99071 0.30138 0.0
H689 H 0.45916 0.98506 0.26413 0.0
H690 H 0.57583 0.54386 0.80113 0.0
H691 H 0.579 0.55304 0.76426 0.0
H692 H 0.49107 0.44691 0.75328 0.0
H693 H 0.48713 0.43791 0.79005 0.0
H694 H 0.59169 0.52447 0.73128 0.0
H695 H 0.45291 0.49179 0.72541 0.0
H696 H 0.47642 0.50057 0.7496 0.0
H697 H 0.45291 0.46001 0.73688 0.0
C698 C 0.55691 0.52269 0.79084 0.0
C699 C 0.53065 0.49041 0.79843 0.0
C700 C 0.55895 0.52784 0.76981 0.0
C701 C 0.53473 0.50075 0.75611 0.0
C702 C 0.50943 0.46828 0.76364 0.0
H703 H 0.5454 0.48883 0.6238 0.0
H704 H 0.54775 0.48349 0.66072 0.0
C705 C 0.50736 0.46316 0.78462 0.0
C706 C 0.5356 0.5063 0.73393 0.0
H707 H 0.48239 0.49747 0.69414 0.0
C708 C 0.56789 0.51872 0.72314 0.0
C709 C 0.50464 0.49918 0.72344 0.0
C710 C 0.46986 0.48745 0.73443 0.0
C711 C 0.56977 0.52355 0.70198 0.0
C712 C 0.53834 0.51526 0.69138 0.0
C713 C 0.50633 0.50348 0.70227 0.0
C714 C 0.5381 0.51911 0.66902 0.0
C715 C 0.60551 0.53791 0.69123 0.0
C716 C 0.53119 0.54038 0.66146 0.0
C717 C 0.52954 0.54329 0.64042 0.0
C718 C 0.53461 0.52484 0.62647 0.0
C719 C 0.54153 0.5035 0.6341 0.0
C720 C 0.54313 0.50059 0.6552 0.0
H721 H 0.62931 0.55086 0.70215 0.0
H722 H 0.60346 0.51714 0.68328 0.0
H723 H 0.61112 0.55607 0.67961 0.0
H724 H 0.52704 0.55476 0.67187 0.0
H725 H 0.52414 0.55995 0.63511 0.0
H726 H 0.55602 0.05451 0.54813 0.0
H727 H 0.55962 0.04736 0.58467 0.0
H728 H 0.44102 0.98603 0.58821 0.0
H729 H 0.43736 0.99372 0.55181 0.0
H730 H 0.47535 0.0338 0.61846 0.0
H731 H 0.53422 0.96612 0.6141 0.0
H732 H 0.5612 0.00516 0.60104 0.0
H733 H 0.51514 0.97139 0.59203 0.0
C734 C 0.53074 0.03939 0.55671 0.0
C735 C 0.49641 0.02471 0.5472 0.0
C736 C 0.5328 0.03507 0.57753 0.0
C737 C 0.50053 0.01569 0.58909 0.0
C738 C 0.46623 0.00093 0.57955 0.0
H739 H 0.48473 0.95355 0.71452 0.0
H740 H 0.48041 0.95466 0.67727 0.0
C741 C 0.46418 0.00537 0.55878 0.0
C742 C 0.5026 0.01235 0.61138 0.0
H743 H 0.53409 0.98741 0.64716 0.0
C744 C 0.488 0.02346 0.62472 0.0
C745 C 0.51865 0.99843 0.61952 0.0
C746 C 0.53286 0.98427 0.60593 0.0
C747 C 0.48972 0.02175 0.64598 0.0
C748 C 0.50728 0.00928 0.65416 0.0
C749 C 0.52107 0.99735 0.64084 0.0
C750 C 0.51174 0.00873 0.67652 0.0
C751 C 0.47233 0.03298 0.65948 0.0
C752 C 0.53162 0.03883 0.68834 0.0
C753 C 0.53397 0.03829 0.70957 0.0
C754 C 0.51681 0.00762 0.71941 0.0
C755 C 0.49815 0.97758 0.70744 0.0
C756 C 0.49566 0.97816 0.68616 0.0
H757 H 0.45135 0.03266 0.65096 0.0
H758 H 0.45895 0.01665 0.67285 0.0
H759 H 0.49405 0.05919 0.66521 0.0
H760 H 0.54499 0.06278 0.68115 0.0
H761 H 0.54894 0.06194 0.71827 0.0
H762 H 0.62001 0.56968 0.92037 0.0
H763 H 0.61456 0.55515 0.95633 0.0
H764 H 0.49783 0.47534 0.94709 0.0
H765 H 0.50313 0.48966 0.91111 0.0
H766 H 0.56918 0.55657 0.98431 0.0
H767 H 0.53246 0.42936 0.97796 0.0
H768 H 0.55289 0.45838 0.95726 0.0
H769 H 0.50456 0.43471 0.96243 0.0
C770 C 0.59328 0.54883 0.92598 0.0
C771 C 0.56199 0.53078 0.91303 0.0
C772 C 0.59023 0.54053 0.94647 0.0
C773 C 0.55591 0.5139 0.95426 0.0
C774 C 0.5247 0.49552 0.94126 0.0
H775 H 0.46689 0.44146 0.07382 0.0
H776 H 0.47865 0.44855 0.03713 0.0
C777 C 0.52772 0.50386 0.92077 0.0
C778 C 0.55221 0.5072 0.97635 0.0
H779 H 0.52602 0.44681 0.01075 0.0
C780 C 0.56011 0.53271 0.99013 0.0
C781 C 0.54008 0.47594 0.9838 0.0
C782 C 0.53228 0.44807 0.96964 0.0
C783 C 0.55536 0.52756 0.0112 0.0
C784 C 0.5432 0.49628 0.01871 0.0
C785 C 0.53551 0.4708 0.00493 0.0
C786 C 0.53717 0.48941 0.04078 0.0
C787 C 0.56223 0.55528 0.02516 0.0
C788 C 0.56645 0.50923 0.05493 0.0
C789 C 0.55982 0.50544 0.0759 0.0
C790 C 0.52381 0.48148 0.08308 0.0
C791 C 0.49492 0.46026 0.06882 0.0
C792 C 0.50157 0.46423 0.04784 0.0
H793 H 0.5625 0.57406 0.01658 0.0
H794 H 0.54082 0.54483 0.03708 0.0
H795 H 0.58951 0.56868 0.03291 0.0
H796 H 0.59428 0.52831 0.04975 0.0
H797 H 0.58277 0.52191 0.08646 0.0
H798 H 0.02561 0.53858 0.20203 0.0
H799 H 0.02498 0.54217 0.23946 0.0
H800 H 0.01376 0.45123 0.24279 0.0
H801 H 0.01309 0.44691 0.20544 0.0
H802 H 0.96937 0.45213 0.26991 0.0
H803 H 0.11236 0.57262 0.27555 0.0
H804 H 0.08129 0.57435 0.26042 0.0
H805 H 0.09294 0.5479 0.25201 0.0
C806 C 0.02268 0.51923 0.21077 0.0
C807 C 0.01956 0.49255 0.20088 0.0
C808 C 0.0226 0.52144 0.23214 0.0
C809 C 0.02001 0.4973 0.24392 0.0
C810 C 0.01592 0.47019 0.234 0.0
H811 H 0.09262 0.51686 0.36791 0.0
H812 H 0.08238 0.51096 0.33091 0.0
C813 C 0.01567 0.46782 0.21267 0.0
C814 C 0.02249 0.50054 0.26658 0.0
H815 H 0.07992 0.55135 0.30639 0.0
C816 C 0.99347 0.47386 0.27793 0.0
C817 C 0.05418 0.52874 0.27697 0.0
C818 C 0.08714 0.55741 0.26565 0.0
C819 C 0.99541 0.47446 0.29938 0.0
C820 C 0.02691 0.50285 0.30976 0.0
C821 C 0.05571 0.52968 0.29841 0.0
C822 C 0.03161 0.50472 0.33231 0.0
C823 C 0.96431 0.4442 0.31065 0.0
C824 C 1.00646 0.50315 0.34544 0.0
C825 C 0.01209 0.5062 0.36666 0.0
C826 C 0.04317 0.5112 0.37507 0.0
C827 C 0.06834 0.5129 0.36188 0.0
C828 C 0.06254 0.50956 0.34074 0.0
H829 H 0.94709 0.42149 0.30036 0.0
H830 H 0.97511 0.43841 0.32343 0.0
H831 H 0.94621 0.44964 0.31716 0.0
H832 H 0.98295 0.50037 0.33927 0.0
H833 H 0.99288 0.5059 0.37639 0.0
loop_
_geom_bond_atom_site_label_1
_geom_bond_atom_site_label_2
_geom_bond_distance
_geom_bond_site_symmetry_2
_ccdc_geom_bond_type
Sm0 C2 2.846 . S
Sm0 O20 2.543 . S
Sm0 O21 2.450 . S
Sm0 O22 2.681 . S
Sm0 O23 2.464 . S
Sm0 O24 2.396 . S
Sm0 O28 2.386 . S
Sm0 O31 2.408 1_455 S
Sm1 C11 2.846 . S
Sm1 O22 2.386 1_655 S
Sm1 O25 2.408 1_655 S
Sm1 O26 2.543 . S
Sm1 O27 2.450 . S
Sm1 O28 2.681 1_655 S
Sm1 O29 2.459 1_655 S
Sm1 O30 2.396 . S
C2 Sm0 2.846 . S
C2 C3 1.506 . S
C2 O20 1.261 . S
C2 O21 1.242 . S
C3 C2 1.506 . S
C3 C4 1.358 . S
C3 C8 1.382 . S
C4 C3 1.358 . S
C4 C5 1.385 . S
C4 H32 0.930 . S
C5 C4 1.385 . S
C5 C6 1.395 . S
C5 H33 0.929 . S
C6 C5 1.395 . S
C6 C7 1.335 . S
C7 C6 1.335 . S
C7 C8 1.398 . S
C7 H34 0.930 . S
C8 C3 1.382 . S
C8 C7 1.398 . S
C8 H35 0.929 . S
C9 O22 1.271 . S
C9 O23 1.251 . S
C10 O24 1.252 . S
C10 O25 1.272 . S
C11 Sm1 2.846 . S
C11 C12 1.506 . S
C11 O26 1.261 . S
C11 O27 1.242 . S
C12 C11 1.506 . S
C12 C13 1.358 . S
C12 C17 1.382 . S
C13 C12 1.358 . S
C13 C14 1.385 . S
C13 H36 0.930 . S
C14 C13 1.385 . S
C14 C15 1.395 . S
C14 H37 0.929 . S
C15 C14 1.395 . S
C15 C16 1.335 . S
C16 C15 1.335 . S
C16 C17 1.398 . S
C16 H38 0.930 . S
C17 C12 1.382 . S
C17 C16 1.398 . S
C17 H39 0.929 . S
C18 O28 1.271 . S
C18 O29 1.275 . S
C19 O30 1.252 . S
C19 O31 1.272 . S
O20 Sm0 2.543 . S
O20 C2 1.261 . S
O21 Sm0 2.450 . S
O21 C2 1.242 . S
O22 Sm0 2.681 . S
O22 Sm1 2.386 1_455 S
O22 C9 1.271 . S
O23 Sm0 2.464 . S
O23 C9 1.251 . S
O24 Sm0 2.396 . S
O24 C10 1.252 . S
O25 Sm1 2.408 1_455 S
O25 C10 1.272 . S
O26 Sm1 2.543 . S
O26 C11 1.261 . S
O27 Sm1 2.450 . S
O27 C11 1.242 . S
O28 Sm0 2.386 . S
O28 Sm1 2.681 1_455 S
O28 C18 1.271 . S
O29 Sm1 2.459 1_455 S
O29 C18 1.275 . S
O30 Sm1 2.396 . S
O30 C19 1.252 . S
O31 Sm0 2.408 1_655 S
O31 C19 1.272 . S
H32 C4 0.930 . S
H33 C5 0.929 . S
H34 C7 0.930 . S
H35 C8 0.929 . S
H36 C13 0.930 . S
H37 C14 0.929 . S
H38 C16 0.930 . S
H39 C17 0.929 . S
Sm40 C42 2.846 . S
Sm40 O60 2.543 . S
Sm40 O61 2.450 . S
Sm40 O62 2.681 1_565 S
Sm40 O63 2.464 . S
Sm40 O64 2.396 . S
Sm40 O68 2.386 1_565 S
Sm40 O71 2.408 1_565 S
Sm41 C51 2.846 . S
Sm41 O62 2.386 . S
Sm41 O65 2.408 1_545 S
Sm41 O66 2.543 . S
Sm41 O67 2.450 . S
Sm41 O68 2.681 . S
Sm41 O69 2.464 . S
Sm41 O70 2.396 . S
C42 Sm40 2.846 . S
C42 C43 1.506 . S
C42 O60 1.261 . S
C42 O61 1.242 . S
C43 C42 1.506 . S
C43 C44 1.358 . S
C43 C48 1.382 . S
C44 C43 1.358 . S
C44 C45 1.385 . S
C44 H72 0.930 . S
C45 C44 1.385 . S
C45 C46 1.395 . S
C45 H73 0.929 . S
C46 C45 1.395 . S
C46 C47 1.335 . S
C47 C46 1.335 . S
C47 C48 1.398 . S
C47 H74 0.930 . S
C48 C43 1.382 . S
C48 C47 1.398 . S
C48 H75 0.929 . S
C49 O62 1.271 . S
C49 O63 1.251 1_545 S
C50 O64 1.252 . S
C50 O65 1.272 . S
C51 Sm41 2.846 . S
C51 C52 1.506 . S
C51 O66 1.261 . S
C51 O67 1.242 . S
C52 C51 1.506 . S
C52 C53 1.358 . S
C52 C57 1.382 . S
C53 C52 1.358 . S
C53 C54 1.385 . S
C53 H76 0.930 . S
C54 C53 1.385 . S
C54 C55 1.395 . S
C54 H77 0.929 . S
C55 C54 1.395 . S
C55 C56 1.335 . S
C56 C55 1.335 . S
C56 C57 1.398 . S
C56 H78 0.930 . S
C57 C52 1.382 . S
C57 C56 1.398 . S
C57 H79 0.929 . S
C58 O68 1.271 . S
C58 O69 1.251 . S
C59 O70 1.252 . S
C59 O71 1.272 . S
O60 Sm40 2.543 . S
O60 C42 1.261 . S
O61 Sm40 2.450 . S
O61 C42 1.242 . S
O62 Sm40 2.681 1_545 S
O62 Sm41 2.386 . S
O62 C49 1.271 . S
O63 Sm40 2.464 . S
O63 C49 1.251 1_565 S
O64 Sm40 2.396 . S
O64 C50 1.252 . S
O65 Sm41 2.408 1_565 S
O65 C50 1.272 . S
O66 Sm41 2.543 . S
O66 C51 1.261 . S
O67 Sm41 2.450 . S
O67 C51 1.242 . S
O68 Sm40 2.386 1_545 S
O68 Sm41 2.681 . S
O68 C58 1.271 . S
O69 Sm41 2.464 . S
O69 C58 1.251 . S
O70 Sm41 2.396 . S
O70 C59 1.252 . S
O71 Sm40 2.408 1_545 S
O71 C59 1.272 . S
H72 C44 0.930 . S
H73 C45 0.929 . S
H74 C47 0.930 . S
H75 C48 0.929 . S
H76 C53 0.930 . S
H77 C54 0.929 . S
H78 C56 0.930 . S
H79 C57 0.929 . S
Sm80 C82 2.846 . S
Sm80 O100 2.543 . S
Sm80 O101 2.450 . S
Sm80 O102 2.681 . S
Sm80 O103 2.464 . S
Sm80 O104 2.396 . S
Sm80 O108 2.386 . S
Sm80 O111 2.408 . S
Sm81 C91 2.846 . S
Sm81 O102 2.386 . S
Sm81 O105 2.408 . S
Sm81 O106 2.543 . S
Sm81 O107 2.450 . S
Sm81 O108 2.681 . S
Sm81 O109 2.464 . S
Sm81 O110 2.396 . S
C82 Sm80 2.846 . S
C82 C83 1.506 . S
C82 O100 1.261 . S
C82 O101 1.242 . S
C83 C82 1.506 . S
C83 C84 1.358 . S
C83 C88 1.382 . S
C84 C83 1.358 . S
C84 C85 1.385 . S
C84 H112 0.930 . S
C85 C84 1.385 . S
C85 C86 1.395 . S
C85 H113 0.929 . S
C86 C85 1.395 . S
C86 C87 1.335 . S
C87 C86 1.335 . S
C87 C88 1.398 . S
C87 H114 0.930 . S
C88 C83 1.382 . S
C88 C87 1.398 . S
C88 H115 0.929 . S
C89 O102 1.271 . S
C89 O103 1.251 . S
C90 O104 1.252 . S
C90 O105 1.272 . S
C91 Sm81 2.846 . S
C91 C92 1.506 . S
C91 O106 1.261 . S
C91 O107 1.242 . S
C92 C91 1.506 . S
C92 C93 1.358 . S
C92 C97 1.382 . S
C93 C92 1.358 . S
C93 C94 1.385 . S
C93 H116 0.930 . S
C94 C93 1.385 . S
C94 C95 1.395 . S
C94 H117 0.929 . S
C95 C94 1.395 . S
C95 C96 1.335 . S
C96 C95 1.335 . S
C96 C97 1.398 . S
C96 H118 0.930 . S
C97 C92 1.382 . S
C97 C96 1.398 . S
C97 H119 0.929 . S
C98 O108 1.271 . S
C98 O109 1.251 . S
C99 O110 1.252 . S
C99 O111 1.272 . S
O100 Sm80 2.543 . S
O100 C82 1.261 . S
O101 Sm80 2.450 . S
O101 C82 1.242 . S
O102 Sm80 2.681 . S
O102 Sm81 2.386 . S
O102 C89 1.271 . S
O103 Sm80 2.464 . S
O103 C89 1.251 . S
O104 Sm80 2.396 . S
O104 C90 1.252 . S
O105 Sm81 2.408 . S
O105 C90 1.272 . S
O106 Sm81 2.543 . S
O106 C91 1.261 . S
O107 Sm81 2.450 . S
O107 C91 1.242 . S
O108 Sm80 2.386 . S
O108 Sm81 2.681 . S
O108 C98 1.271 . S
O109 Sm81 2.464 . S
O109 C98 1.251 . S
O110 Sm81 2.396 . S
O110 C99 1.252 . S
O111 Sm80 2.408 . S
O111 C99 1.272 . S
H112 C84 0.930 . S
H113 C85 0.929 . S
H114 C87 0.930 . S
H115 C88 0.929 . S
H116 C93 0.930 . S
H117 C94 0.929 . S
H118 C96 0.930 . S
H119 C97 0.929 . S
O120 Cd121 2.300 . S
O120 C127 1.275 . S
Cd121 O120 2.300 . S
Cd121 O129 2.381 . S
Cd121 O130 2.378 . S
O122 Cd123 2.385 . S
O122 C127 1.255 1_565 S
Cd123 O122 2.385 . S
Cd123 O124 2.317 . S
O124 Cd123 2.317 . S
O124 C125 1.232 . S
C125 O124 1.232 . S
C125 O126 1.218 . S
O126 C125 1.218 . S
C127 O120 1.275 . S
C127 O122 1.255 1_545 S
C128 O129 1.258 . S
C128 O130 1.256 . S
O129 Cd121 2.381 . S
O129 C128 1.258 . S
O130 Cd121 2.378 . S
O130 C128 1.256 . S
O131 Cd132 2.300 . S
O131 C138 1.275 . S
Cd132 O131 2.300 . S
Cd132 O140 2.381 . S
Cd132 O141 2.378 . S
O133 Cd134 2.385 . S
O133 C138 1.255 . S
Cd134 O133 2.385 . S
Cd134 O135 2.317 . S
O135 Cd134 2.317 . S
O135 C136 1.232 . S
C136 O135 1.232 . S
C136 O137 1.218 . S
O137 C136 1.218 . S
C138 O131 1.275 . S
C138 O133 1.255 . S
C139 O140 1.258 . S
C139 O141 1.256 . S
O140 Cd132 2.381 . S
O140 C139 1.258 . S
O141 Cd132 2.378 . S
O141 C139 1.256 . S
O142 Cd143 2.300 . S
O142 C149 1.275 . S
Cd143 O142 2.300 . S
Cd143 O151 2.381 . S
Cd143 O152 2.378 . S
O144 Cd145 2.385 1_455 S
O144 C149 1.255 . S
Cd145 O144 2.385 1_655 S
Cd145 O146 2.317 . S
O146 Cd145 2.317 . S
O146 C147 1.232 . S
C147 O146 1.232 . S
C147 O148 1.218 . S
O148 C147 1.218 . S
C149 O142 1.275 . S
C149 O144 1.255 . S
C150 O151 1.258 . S
C150 O152 1.256 . S
O151 Cd143 2.381 . S
O151 C150 1.258 . S
O152 Cd143 2.378 . S
O152 C150 1.256 . S
O153 Cd154 2.300 . S
O153 C160 1.275 1_455 S
Cd154 O153 2.300 . S
Cd154 O162 2.381 . S
Cd154 O163 2.378 . S
O155 Cd156 2.385 . S
O155 C160 1.255 . S
Cd156 O155 2.385 . S
Cd156 O157 2.317 . S
O157 Cd156 2.317 . S
O157 C158 1.232 . S
C158 O157 1.232 . S
C158 O159 1.218 . S
O159 C158 1.218 . S
C160 O153 1.275 1_655 S
C160 O155 1.255 . S
C161 O162 1.258 . S
C161 O163 1.256 . S
O162 Cd154 2.381 . S
O162 C161 1.258 . S
O163 Cd154 2.378 . S
O163 C161 1.256 . S
O164 Cd165 2.300 . S
O164 C171 1.275 1_565 S
Cd165 O164 2.300 . S
Cd165 O173 2.381 . S
Cd165 O174 2.378 . S
O166 Cd167 2.385 . S
O166 C171 1.255 . S
Cd167 O166 2.385 . S
Cd167 O168 2.317 . S
O168 Cd167 2.317 . S
O168 C169 1.232 . S
C169 O168 1.232 . S
C169 O170 1.218 . S
O170 C169 1.218 . S
C171 O164 1.275 1_545 S
C171 O166 1.255 . S
C172 O173 1.258 . S
C172 O174 1.256 . S
O173 Cd165 2.381 . S
O173 C172 1.258 . S
O174 Cd165 2.378 . S
O174 C172 1.256 . S
O175 Cd176 2.300 . S
O175 C182 1.275 . S
Cd176 O175 2.300 . S
Cd176 O184 2.381 . S
Cd176 O185 2.378 . S
O177 Cd178 2.385 . S
O177 C182 1.255 . S
Cd178 O177 2.385 . S
Cd178 O179 2.317 . S
O179 Cd178 2.317 . S
O179 C180 1.232 . S
C180 O179 1.232 . S
C180 O181 1.218 . S
O181 C180 1.218 . S
C182 O175 1.275 . S
C182 O177 1.255 . S
C183 O184 1.258 . S
C183 O185 1.256 . S
O184 Cd176 2.381 . S
O184 C183 1.258 . S
O185 Cd176 2.378 . S
O185 C183 1.256 . S
H186 C194 0.929 . S
H187 C196 0.930 . S
H188 C198 0.930 . S
H189 C201 0.929 . S
H190 C204 0.930 . S
H191 C206 0.960 . S
H192 C206 0.960 . S
H193 C206 0.960 . S
C194 H186 0.929 . S
C194 C195 1.377 . S
C194 C196 1.384 . S
C195 C194 1.377 . S
C195 C201 1.390 . S
C196 H187 0.930 . S
C196 C194 1.384 . S
C196 C197 1.372 . S
C197 C196 1.372 . S
C197 C198 1.400 . S
C197 C202 1.490 . S
C198 H188 0.930 . S
C198 C197 1.400 . S
C198 C201 1.386 . S
H199 C215 0.930 . S
H200 C216 0.931 . S
C201 H189 0.929 . S
C201 C195 1.390 . S
C201 C198 1.386 . S
C202 C197 1.490 . S
C202 C204 1.395 . S
C202 C205 1.403 . S
H203 C209 0.930 . S
C204 H190 0.930 . S
C204 C202 1.395 . S
C204 C207 1.403 . S
C205 C202 1.403 . S
C205 C206 1.524 . S
C205 C209 1.400 . S
C206 H191 0.960 . S
C206 H192 0.960 . S
C206 H193 0.960 . S
C206 C205 1.524 . S
C207 C204 1.403 . S
C207 C208 1.392 . S
C207 C211 1.495 . S
C208 C207 1.392 . S
C208 C209 1.385 . S
C208 C210 1.478 . S
C209 H203 0.930 . S
C209 C205 1.400 . S
C209 C208 1.385 . S
C210 C208 1.478 . S
C210 C212 1.381 . S
C210 C216 1.383 . S
C211 C207 1.495 . S
C211 H217 0.959 . S
C211 H218 0.961 . S
C211 H219 0.960 . S
C212 C210 1.381 . S
C212 C213 1.394 . S
C212 H220 0.930 . S
C213 C212 1.394 . S
C213 C214 1.383 . S
C213 H221 0.929 . S
C214 C213 1.383 . S
C214 C215 1.377 . S
C215 H199 0.930 . S
C215 C214 1.377 . S
C215 C216 1.379 . S
C216 H200 0.931 . S
C216 C210 1.383 . S
C216 C215 1.379 . S
H217 C211 0.959 . S
H218 C211 0.961 . S
H219 C211 0.960 . S
H220 C212 0.930 . S
H221 C213 0.929 . S
H222 C230 0.929 . S
H223 C232 0.930 . S
H224 C234 0.930 . S
H225 C237 0.929 . S
H226 C240 0.930 . S
H227 C242 0.960 . S
H228 C242 0.960 . S
H229 C242 0.960 . S
C230 H222 0.929 . S
C230 C231 1.377 . S
C230 C232 1.384 . S
C231 C230 1.377 . S
C231 C237 1.390 . S
C232 H223 0.930 . S
C232 C230 1.384 . S
C232 C233 1.372 . S
C233 C232 1.372 . S
C233 C234 1.400 . S
C233 C238 1.490 . S
C234 H224 0.930 . S
C234 C233 1.400 . S
C234 C237 1.386 . S
H235 C251 0.930 . S
H236 C252 0.931 . S
C237 H225 0.929 . S
C237 C231 1.390 . S
C237 C234 1.386 . S
C238 C233 1.490 . S
C238 C240 1.395 . S
C238 C241 1.403 . S
H239 C245 0.930 . S
C240 H226 0.930 . S
C240 C238 1.395 . S
C240 C243 1.403 . S
C241 C238 1.403 . S
C241 C242 1.524 . S
C241 C245 1.400 . S
C242 H227 0.960 . S
C242 H228 0.960 . S
C242 H229 0.960 . S
C242 C241 1.524 . S
C243 C240 1.403 . S
C243 C244 1.392 . S
C243 C247 1.495 . S
C244 C243 1.392 . S
C244 C245 1.385 . S
C244 C246 1.478 . S
C245 H239 0.930 . S
C245 C241 1.400 . S
C245 C244 1.385 . S
C246 C244 1.478 . S
C246 C248 1.381 . S
C246 C252 1.383 . S
C247 C243 1.495 . S
C247 H253 0.959 . S
C247 H254 0.961 . S
C247 H255 0.960 . S
C248 C246 1.381 . S
C248 C249 1.394 . S
C248 H256 0.930 . S
C249 C248 1.394 . S
C249 C250 1.383 . S
C249 H257 0.929 . S
C250 C249 1.383 . S
C250 C251 1.377 . S
C251 H235 0.930 . S
C251 C250 1.377 . S
C251 C252 1.379 . S
C252 H236 0.931 . S
C252 C246 1.383 . S
C252 C251 1.379 . S
H253 C247 0.959 . S
H254 C247 0.961 . S
H255 C247 0.960 . S
H256 C248 0.930 . S
H257 C249 0.929 . S
H258 C266 0.929 . S
H259 C268 0.930 . S
H260 C270 0.930 . S
H261 C273 0.929 . S
H262 C276 0.930 . S
H263 C278 0.960 . S
H264 C278 0.960 . S
H265 C278 0.960 . S
C266 H258 0.929 . S
C266 C267 1.377 . S
C266 C268 1.384 . S
C267 C266 1.377 . S
C267 C273 1.390 . S
C268 H259 0.930 . S
C268 C266 1.384 . S
C268 C269 1.372 . S
C269 C268 1.372 . S
C269 C270 1.400 . S
C269 C274 1.490 . S
C270 H260 0.930 . S
C270 C269 1.400 . S
C270 C273 1.386 . S
H271 C287 0.930 . S
H272 C288 0.931 . S
C273 H261 0.929 . S
C273 C267 1.390 . S
C273 C270 1.386 . S
C274 C269 1.490 . S
C274 C276 1.395 . S
C274 C277 1.403 . S
H275 C281 0.930 . S
C276 H262 0.930 . S
C276 C274 1.395 . S
C276 C279 1.403 . S
C277 C274 1.403 . S
C277 C278 1.524 . S
C277 C281 1.400 . S
C278 H263 0.960 . S
C278 H264 0.960 . S
C278 H265 0.960 . S
C278 C277 1.524 . S
C279 C276 1.403 . S
C279 C280 1.392 . S
C279 C283 1.495 . S
C280 C279 1.392 . S
C280 C281 1.385 . S
C280 C282 1.478 . S
C281 H275 0.930 . S
C281 C277 1.400 . S
C281 C280 1.385 . S
C282 C280 1.478 . S
C282 C284 1.381 . S
C282 C288 1.383 . S
C283 C279 1.495 . S
C283 H289 0.959 . S
C283 H290 0.961 . S
C283 H291 0.960 . S
C284 C282 1.381 . S
C284 C285 1.394 . S
C284 H292 0.930 . S
C285 C284 1.394 . S
C285 C286 1.383 . S
C285 H293 0.929 . S
C286 C285 1.383 . S
C286 C287 1.377 . S
C287 H271 0.930 . S
C287 C286 1.377 . S
C287 C288 1.379 . S
C288 H272 0.931 . S
C288 C282 1.383 . S
C288 C287 1.379 . S
H289 C283 0.959 . S
H290 C283 0.961 . S
H291 C283 0.960 . S
H292 C284 0.930 . S
H293 C285 0.929 . S
H294 C302 0.929 . S
H295 C304 0.930 . S
H296 C306 0.930 . S
H297 C309 0.929 . S
H298 C312 0.930 . S
H299 C314 0.960 . S
H300 C314 0.960 . S
H301 C314 0.960 . S
C302 H294 0.929 . S
C302 C303 1.377 . S
C302 C304 1.384 . S
C303 C302 1.377 . S
C303 C309 1.390 . S
C304 H295 0.930 . S
C304 C302 1.384 . S
C304 C305 1.372 . S
C305 C304 1.372 . S
C305 C306 1.400 . S
C305 C310 1.490 . S
C306 H296 0.930 . S
C306 C305 1.400 . S
C306 C309 1.386 . S
H307 C323 0.930 . S
H308 C324 0.931 . S
C309 H297 0.929 . S
C309 C303 1.390 . S
C309 C306 1.386 . S
C310 C305 1.490 . S
C310 C312 1.395 . S
C310 C313 1.403 . S
H311 C317 0.930 . S
C312 H298 0.930 . S
C312 C310 1.395 . S
C312 C315 1.403 . S
C313 C310 1.403 . S
C313 C314 1.524 . S
C313 C317 1.400 . S
C314 H299 0.960 . S
C314 H300 0.960 . S
C314 H301 0.960 . S
C314 C313 1.524 . S
C315 C312 1.403 . S
C315 C316 1.392 . S
C315 C319 1.495 . S
C316 C315 1.392 . S
C316 C317 1.385 . S
C316 C318 1.478 . S
C317 H311 0.930 . S
C317 C313 1.400 . S
C317 C316 1.385 . S
C318 C316 1.478 . S
C318 C320 1.381 . S
C318 C324 1.383 . S
C319 C315 1.495 . S
C319 H325 0.959 . S
C319 H326 0.961 . S
C319 H327 0.960 . S
C320 C318 1.381 . S
C320 C321 1.394 . S
C320 H328 0.930 . S
C321 C320 1.394 . S
C321 C322 1.383 . S
C321 H329 0.929 . S
C322 C321 1.383 . S
C322 C323 1.377 . S
C323 H307 0.930 . S
C323 C322 1.377 . S
C323 C324 1.379 . S
C324 H308 0.931 . S
C324 C318 1.383 . S
C324 C323 1.379 . S
H325 C319 0.959 . S
H326 C319 0.961 . S
H327 C319 0.960 . S
H328 C320 0.930 . S
H329 C321 0.929 . S
H330 C338 0.929 . S
H331 C340 0.930 . S
H332 C342 0.930 . S
H333 C345 0.929 . S
H334 C348 0.930 . S
H335 C350 0.960 . S
H336 C350 0.960 . S
H337 C350 0.960 . S
C338 H330 0.929 . S
C338 C339 1.377 . S
C338 C340 1.384 . S
C339 C338 1.377 . S
C339 C345 1.390 . S
C340 H331 0.930 . S
C340 C338 1.384 . S
C340 C341 1.372 . S
C341 C340 1.372 . S
C341 C342 1.400 . S
C341 C346 1.490 . S
C342 H332 0.930 . S
C342 C341 1.400 . S
C342 C345 1.386 . S
H343 C359 0.930 . S
H344 C360 0.931 . S
C345 H333 0.929 . S
C345 C339 1.390 . S
C345 C342 1.386 . S
C346 C341 1.490 . S
C346 C348 1.395 . S
C346 C349 1.403 . S
H347 C353 0.930 . S
C348 H334 0.930 . S
C348 C346 1.395 . S
C348 C351 1.403 . S
C349 C346 1.403 . S
C349 C350 1.524 . S
C349 C353 1.400 . S
C350 H335 0.960 . S
C350 H336 0.960 . S
C350 H337 0.960 . S
C350 C349 1.524 . S
C351 C348 1.403 . S
C351 C352 1.392 . S
C351 C355 1.495 . S
C352 C351 1.392 . S
C352 C353 1.385 . S
C352 C354 1.478 . S
C353 H347 0.930 . S
C353 C349 1.400 . S
C353 C352 1.385 . S
C354 C352 1.478 . S
C354 C356 1.381 . S
C354 C360 1.383 . S
C355 C351 1.495 . S
C355 H361 0.959 . S
C355 H362 0.961 . S
C355 H363 0.960 . S
C356 C354 1.381 . S
C356 C357 1.394 . S
C356 H364 0.930 . S
C357 C356 1.394 . S
C357 C358 1.383 . S
C357 H365 0.929 . S
C358 C357 1.383 . S
C358 C359 1.377 . S
C359 H343 0.930 . S
C359 C358 1.377 . S
C359 C360 1.379 . S
C360 H344 0.931 . S
C360 C354 1.383 . S
C360 C359 1.379 . S
H361 C355 0.959 . S
H362 C355 0.961 . S
H363 C355 0.960 . S
H364 C356 0.930 . S
H365 C357 0.929 . S
H366 C374 0.929 . S
H367 C376 0.930 . S
H368 C378 0.930 . S
H369 C381 0.929 . S
H370 C384 0.930 . S
H371 C386 0.960 . S
H372 C386 0.960 . S
H373 C386 0.960 . S
C374 H366 0.929 . S
C374 C375 1.377 . S
C374 C376 1.384 . S
C375 C374 1.377 . S
C375 C381 1.390 . S
C376 H367 0.930 . S
C376 C374 1.384 . S
C376 C377 1.372 . S
C377 C376 1.372 . S
C377 C378 1.400 . S
C377 C382 1.490 . S
C378 H368 0.930 . S
C378 C377 1.400 . S
C378 C381 1.386 . S
H379 C395 0.930 . S
H380 C396 0.931 . S
C381 H369 0.929 . S
C381 C375 1.390 . S
C381 C378 1.386 . S
C382 C377 1.490 . S
C382 C384 1.395 . S
C382 C385 1.403 . S
H383 C389 0.930 . S
C384 H370 0.930 . S
C384 C382 1.395 . S
C384 C387 1.403 . S
C385 C382 1.403 . S
C385 C386 1.524 . S
C385 C389 1.400 . S
C386 H371 0.960 . S
C386 H372 0.960 . S
C386 H373 0.960 . S
C386 C385 1.524 . S
C387 C384 1.403 . S
C387 C388 1.392 . S
C387 C391 1.495 . S
C388 C387 1.392 . S
C388 C389 1.385 . S
C388 C390 1.478 . S
C389 H383 0.930 . S
C389 C385 1.400 . S
C389 C388 1.385 . S
C390 C388 1.478 . S
C390 C392 1.381 . S
C390 C396 1.383 . S
C391 C387 1.495 . S
C391 H397 0.959 . S
C391 H398 0.961 . S
C391 H399 0.960 . S
C392 C390 1.381 . S
C392 C393 1.394 . S
C392 H400 0.930 . S
C393 C392 1.394 . S
C393 C394 1.383 . S
C393 H401 0.929 . S
C394 C393 1.383 . S
C394 C395 1.377 . S
C395 H379 0.930 . S
C395 C394 1.377 . S
C395 C396 1.379 . S
C396 H380 0.931 . S
C396 C390 1.383 . S
C396 C395 1.379 . S
H397 C391 0.959 . S
H398 C391 0.961 . S
H399 C391 0.960 . S
H400 C392 0.930 . S
H401 C393 0.929 . S
H402 C410 0.929 . S
H403 C412 0.930 . S
H404 C414 0.930 . S
H405 C417 0.929 . S
H406 C420 0.930 . S
H407 C422 0.960 . S
H408 C422 0.960 . S
H409 C422 0.960 . S
C410 H402 0.929 . S
C410 C411 1.377 . S
C410 C412 1.384 . S
C411 C410 1.377 . S
C411 C417 1.390 . S
C412 H403 0.930 . S
C412 C410 1.384 . S
C412 C413 1.372 . S
C413 C412 1.372 . S
C413 C414 1.400 . S
C413 C418 1.490 . S
C414 H404 0.930 . S
C414 C413 1.400 . S
C414 C417 1.386 . S
H415 C431 0.930 . S
H416 C432 0.931 . S
C417 H405 0.929 . S
C417 C411 1.390 . S
C417 C414 1.386 . S
C418 C413 1.490 . S
C418 C420 1.395 . S
C418 C421 1.403 . S
H419 C425 0.930 . S
C420 H406 0.930 . S
C420 C418 1.395 . S
C420 C423 1.403 . S
C421 C418 1.403 . S
C421 C422 1.524 . S
C421 C425 1.400 . S
C422 H407 0.960 . S
C422 H408 0.960 . S
C422 H409 0.960 . S
C422 C421 1.524 . S
C423 C420 1.403 . S
C423 C424 1.392 . S
C423 C427 1.495 . S
C424 C423 1.392 . S
C424 C425 1.385 . S
C424 C426 1.478 . S
C425 H419 0.930 . S
C425 C421 1.400 . S
C425 C424 1.385 . S
C426 C424 1.478 . S
C426 C428 1.381 . S
C426 C432 1.383 . S
C427 C423 1.495 . S
C427 H433 0.959 . S
C427 H434 0.961 . S
C427 H435 0.960 . S
C428 C426 1.381 . S
C428 C429 1.394 . S
C428 H436 0.930 . S
C429 C428 1.394 . S
C429 C430 1.383 . S
C429 H437 0.929 . S
C430 C429 1.383 . S
C430 C431 1.377 . S
C431 H415 0.930 . S
C431 C430 1.377 . S
C431 C432 1.379 . S
C432 H416 0.931 . S
C432 C426 1.383 . S
C432 C431 1.379 . S
H433 C427 0.959 . S
H434 C427 0.961 . S
H435 C427 0.960 . S
H436 C428 0.930 . S
H437 C429 0.929 . S
H438 C446 0.929 . S
H439 C448 0.930 . S
H440 C450 0.930 . S
H441 C453 0.929 . S
H442 C456 0.930 . S
H443 C458 0.960 . S
H444 C458 0.960 . S
H445 C458 0.960 . S
C446 H438 0.929 . S
C446 C447 1.377 . S
C446 C448 1.384 . S
C447 C446 1.377 . S
C447 C453 1.390 . S
C448 H439 0.930 . S
C448 C446 1.384 . S
C448 C449 1.372 . S
C449 C448 1.372 . S
C449 C450 1.400 . S
C449 C454 1.490 . S
C450 H440 0.930 . S
C450 C449 1.400 . S
C450 C453 1.386 . S
H451 C467 0.930 . S
H452 C468 0.931 . S
C453 H441 0.929 . S
C453 C447 1.390 . S
C453 C450 1.386 . S
C454 C449 1.490 . S
C454 C456 1.395 . S
C454 C457 1.403 . S
H455 C461 0.930 . S
C456 H442 0.930 . S
C456 C454 1.395 . S
C456 C459 1.403 . S
C457 C454 1.403 . S
C457 C458 1.524 . S
C457 C461 1.400 . S
C458 H443 0.960 . S
C458 H444 0.960 . S
C458 H445 0.960 . S
C458 C457 1.524 . S
C459 C456 1.403 . S
C459 C460 1.392 . S
C459 C463 1.495 . S
C460 C459 1.392 . S
C460 C461 1.385 . S
C460 C462 1.478 . S
C461 H455 0.930 . S
C461 C457 1.400 . S
C461 C460 1.385 . S
C462 C460 1.478 . S
C462 C464 1.381 . S
C462 C468 1.383 . S
C463 C459 1.495 . S
C463 H469 0.959 . S
C463 H470 0.961 . S
C463 H471 0.960 . S
C464 C462 1.381 . S
C464 C465 1.394 . S
C464 H472 0.930 . S
C465 C464 1.394 . S
C465 C466 1.383 . S
C465 H473 0.929 . S
C466 C465 1.383 . S
C466 C467 1.377 . S
C467 H451 0.930 . S
C467 C466 1.377 . S
C467 C468 1.379 . S
C468 H452 0.931 . S
C468 C462 1.383 . S
C468 C467 1.379 . S
H469 C463 0.959 . S
H470 C463 0.961 . S
H471 C463 0.960 . S
H472 C464 0.930 . S
H473 C465 0.929 . S
H474 C482 0.929 . S
H475 C484 0.930 . S
H476 C486 0.930 . S
H477 C489 0.929 . S
H478 C492 0.930 . S
H479 C494 0.960 . S
H480 C494 0.960 . S
H481 C494 0.960 . S
C482 H474 0.929 . S
C482 C483 1.377 . S
C482 C484 1.384 . S
C483 C482 1.377 . S
C483 C489 1.390 . S
C484 H475 0.930 . S
C484 C482 1.384 . S
C484 C485 1.372 . S
C485 C484 1.372 . S
C485 C486 1.400 . S
C485 C490 1.490 . S
C486 H476 0.930 . S
C486 C485 1.400 . S
C486 C489 1.386 . S
H487 C503 0.930 . S
H488 C504 0.931 . S
C489 H477 0.929 . S
C489 C483 1.390 . S
C489 C486 1.386 . S
C490 C485 1.490 . S
C490 C492 1.395 . S
C490 C493 1.403 . S
H491 C497 0.930 . S
C492 H478 0.930 . S
C492 C490 1.395 . S
C492 C495 1.403 . S
C493 C490 1.403 . S
C493 C494 1.524 . S
C493 C497 1.400 . S
C494 H479 0.960 . S
C494 H480 0.960 . S
C494 H481 0.960 . S
C494 C493 1.524 . S
C495 C492 1.403 . S
C495 C496 1.392 . S
C495 C499 1.495 . S
C496 C495 1.392 . S
C496 C497 1.385 . S
C496 C498 1.478 . S
C497 H491 0.930 . S
C497 C493 1.400 . S
C497 C496 1.385 . S
C498 C496 1.478 . S
C498 C500 1.381 . S
C498 C504 1.383 . S
C499 C495 1.495 . S
C499 H505 0.959 . S
C499 H506 0.961 . S
C499 H507 0.960 . S
C500 C498 1.381 . S
C500 C501 1.394 . S
C500 H508 0.930 . S
C501 C500 1.394 . S
C501 C502 1.383 . S
C501 H509 0.929 . S
C502 C501 1.383 . S
C502 C503 1.377 . S
C503 H487 0.930 . S
C503 C502 1.377 . S
C503 C504 1.379 . S
C504 H488 0.931 . S
C504 C498 1.383 . S
C504 C503 1.379 . S
H505 C499 0.959 . S
H506 C499 0.961 . S
H507 C499 0.960 . S
H508 C500 0.930 . S
H509 C501 0.929 . S
H510 C518 0.929 . S
H511 C520 0.930 . S
H512 C522 0.930 . S
H513 C525 0.929 . S
H514 C528 0.930 . S
H515 C530 0.960 . S
H516 C530 0.960 . S
H517 C530 0.960 . S
C518 H510 0.929 . S
C518 C519 1.377 . S
C518 C520 1.384 . S
C519 C518 1.377 . S
C519 C525 1.390 . S
C520 H511 0.930 . S
C520 C518 1.384 . S
C520 C521 1.372 . S
C521 C520 1.372 . S
C521 C522 1.400 . S
C521 C526 1.490 . S
C522 H512 0.930 . S
C522 C521 1.400 . S
C522 C525 1.386 . S
H523 C539 0.930 . S
H524 C540 0.931 . S
C525 H513 0.929 . S
C525 C519 1.390 . S
C525 C522 1.386 . S
C526 C521 1.490 . S
C526 C528 1.395 . S
C526 C529 1.403 . S
H527 C533 0.930 . S
C528 H514 0.930 . S
C528 C526 1.395 . S
C528 C531 1.403 . S
C529 C526 1.403 . S
C529 C530 1.524 . S
C529 C533 1.400 . S
C530 H515 0.960 . S
C530 H516 0.960 . S
C530 H517 0.960 . S
C530 C529 1.524 . S
C531 C528 1.403 . S
C531 C532 1.392 . S
C531 C535 1.495 . S
C532 C531 1.392 . S
C532 C533 1.385 . S
C532 C534 1.478 . S
C533 H527 0.930 . S
C533 C529 1.400 . S
C533 C532 1.385 . S
C534 C532 1.478 . S
C534 C536 1.381 . S
C534 C540 1.383 . S
C535 C531 1.495 . S
C535 H541 0.959 . S
C535 H542 0.961 . S
C535 H543 0.960 . S
C536 C534 1.381 . S
C536 C537 1.394 . S
C536 H544 0.930 . S
C537 C536 1.394 . S
C537 C538 1.383 . S
C537 H545 0.929 . S
C538 C537 1.383 . S
C538 C539 1.377 . S
C539 H523 0.930 . S
C539 C538 1.377 . S
C539 C540 1.379 . S
C540 H524 0.931 . S
C540 C534 1.383 . S
C540 C539 1.379 . S
H541 C535 0.959 . S
H542 C535 0.961 . S
H543 C535 0.960 . S
H544 C536 0.930 . S
H545 C537 0.929 . S
H546 C554 0.929 . S
H547 C556 0.930 . S
H548 C558 0.930 . S
H549 C561 0.929 . S
H550 C564 0.930 . S
H551 C566 0.960 . S
H552 C566 0.960 . S
H553 C566 0.960 . S
C554 H546 0.929 . S
C554 C555 1.377 . S
C554 C556 1.384 . S
C555 C554 1.377 . S
C555 C561 1.390 . S
C556 H547 0.930 . S
C556 C554 1.384 . S
C556 C557 1.372 . S
C557 C556 1.372 . S
C557 C558 1.400 . S
C557 C562 1.490 . S
C558 H548 0.930 . S
C558 C557 1.400 . S
C558 C561 1.386 . S
H559 C575 0.930 . S
H560 C576 0.931 . S
C561 H549 0.929 . S
C561 C555 1.390 . S
C561 C558 1.386 . S
C562 C557 1.490 . S
C562 C564 1.395 . S
C562 C565 1.403 . S
H563 C569 0.930 . S
C564 H550 0.930 . S
C564 C562 1.395 . S
C564 C567 1.403 . S
C565 C562 1.403 . S
C565 C566 1.524 . S
C565 C569 1.400 . S
C566 H551 0.960 . S
C566 H552 0.960 . S
C566 H553 0.960 . S
C566 C565 1.524 . S
C567 C564 1.403 . S
C567 C568 1.392 . S
C567 C571 1.495 . S
C568 C567 1.392 . S
C568 C569 1.385 . S
C568 C570 1.478 . S
C569 H563 0.930 . S
C569 C565 1.400 . S
C569 C568 1.385 . S
C570 C568 1.478 . S
C570 C572 1.381 . S
C570 C576 1.383 . S
C571 C567 1.495 . S
C571 H577 0.959 . S
C571 H578 0.961 . S
C571 H579 0.960 . S
C572 C570 1.381 . S
C572 C573 1.394 . S
C572 H580 0.930 . S
C573 C572 1.394 . S
C573 C574 1.383 . S
C573 H581 0.929 . S
C574 C573 1.383 . S
C574 C575 1.377 . S
C575 H559 0.930 . S
C575 C574 1.377 . S
C575 C576 1.379 . S
C576 H560 0.931 . S
C576 C570 1.383 . S
C576 C575 1.379 . S
H577 C571 0.959 . S
H578 C571 0.961 . S
H579 C571 0.960 . S
H580 C572 0.930 . S
H581 C573 0.929 . S
H582 C590 0.929 . S
H583 C592 0.930 . S
H584 C594 0.930 . S
H585 C597 0.929 . S
H586 C600 0.930 . S
H587 C602 0.960 . S
H588 C602 0.960 . S
H589 C602 0.960 . S
C590 H582 0.929 . S
C590 C591 1.377 . S
C590 C592 1.384 . S
C591 C590 1.377 . S
C591 C597 1.390 . S
C592 H583 0.930 . S
C592 C590 1.384 . S
C592 C593 1.372 . S
C593 C592 1.372 . S
C593 C594 1.400 . S
C593 C598 1.490 . S
C594 H584 0.930 . S
C594 C593 1.400 . S
C594 C597 1.386 . S
H595 C611 0.930 . S
H596 C612 0.931 . S
C597 H585 0.929 . S
C597 C591 1.390 . S
C597 C594 1.386 . S
C598 C593 1.490 . S
C598 C600 1.395 . S
C598 C601 1.403 . S
H599 C605 0.930 . S
C600 H586 0.930 . S
C600 C598 1.395 . S
C600 C603 1.403 . S
C601 C598 1.403 . S
C601 C602 1.524 . S
C601 C605 1.400 . S
C602 H587 0.960 . S
C602 H588 0.960 . S
C602 H589 0.960 . S
C602 C601 1.524 . S
C603 C600 1.403 . S
C603 C604 1.392 . S
C603 C607 1.495 . S
C604 C603 1.392 . S
C604 C605 1.385 . S
C604 C606 1.478 . S
C605 H599 0.930 . S
C605 C601 1.400 . S
C605 C604 1.385 . S
C606 C604 1.478 . S
C606 C608 1.381 . S
C606 C612 1.383 . S
C607 C603 1.495 . S
C607 H613 0.959 . S
C607 H614 0.961 . S
C607 H615 0.960 . S
C608 C606 1.381 . S
C608 C609 1.394 . S
C608 H616 0.930 . S
C609 C608 1.394 . S
C609 C610 1.383 . S
C609 H617 0.929 . S
C610 C609 1.383 . S
C610 C611 1.377 . S
C611 H595 0.930 . S
C611 C610 1.377 . S
C611 C612 1.379 . S
C612 H596 0.931 . S
C612 C606 1.383 . S
C612 C611 1.379 . S
H613 C607 0.959 . S
H614 C607 0.961 . S
H615 C607 0.960 . S
H616 C608 0.930 . S
H617 C609 0.929 . S
H618 C626 0.929 1_655 S
H619 C628 0.930 1_655 S
H620 C630 0.930 . S
H621 C633 0.929 . S
H622 C636 0.930 . S
H623 C638 0.960 1_655 S
H624 C638 0.960 1_655 S
H625 C638 0.960 . S
C626 H618 0.929 1_455 S
C626 C627 1.377 . S
C626 C628 1.384 . S
C627 C626 1.377 . S
C627 C633 1.390 . S
C628 H619 0.930 1_455 S
C628 C626 1.384 . S
C628 C629 1.372 . S
C629 C628 1.372 . S
C629 C630 1.400 . S
C629 C634 1.490 . S
C630 H620 0.930 . S
C630 C629 1.400 . S
C630 C633 1.386 . S
H631 C647 0.930 . S
H632 C648 0.931 . S
C633 H621 0.929 . S
C633 C627 1.390 . S
C633 C630 1.386 . S
C634 C629 1.490 . S
C634 C636 1.395 . S
C634 C637 1.403 . S
H635 C641 0.930 1_556 S
C636 H622 0.930 . S
C636 C634 1.395 . S
C636 C639 1.403 . S
C637 C634 1.403 . S
C637 C638 1.524 . S
C637 C641 1.400 . S
C638 H623 0.960 1_455 S
C638 H624 0.960 1_455 S
C638 H625 0.960 . S
C638 C637 1.524 . S
C639 C636 1.403 . S
C639 C640 1.366 1_554 S
C639 C643 1.495 . S
C640 C639 1.366 1_556 S
C640 C641 1.367 1_556 S
C640 C642 1.523 . S
C641 H635 0.930 1_554 S
C641 C637 1.400 . S
C641 C640 1.367 1_554 S
C642 C640 1.523 . S
C642 C644 1.381 . S
C642 C648 1.383 . S
C643 C639 1.495 . S
C643 H649 0.959 . S
C643 H650 0.961 1_554 S
C643 H651 0.960 1_554 S
C644 C642 1.381 . S
C644 C645 1.394 . S
C644 H652 0.930 1_455 S
C645 C644 1.394 . S
C645 C646 1.383 . S
C645 H653 0.929 1_455 S
C646 C645 1.383 . S
C646 C647 1.377 . S
C647 H631 0.930 . S
C647 C646 1.377 . S
C647 C648 1.379 . S
C648 H632 0.931 . S
C648 C642 1.383 . S
C648 C647 1.379 . S
H649 C643 0.959 . S
H650 C643 0.961 1_556 S
H651 C643 0.960 1_556 S
H652 C644 0.930 1_655 S
H653 C645 0.929 1_655 S
H654 C662 0.929 . S
H655 C664 0.930 . S
H656 C666 0.930 . S
H657 C669 0.929 . S
H658 C672 0.930 . S
H659 C674 0.960 . S
H660 C674 0.960 1_565 S
H661 C674 0.960 . S
C662 H654 0.929 . S
C662 C663 1.377 1_565 S
C662 C664 1.384 . S
C663 C662 1.377 1_545 S
C663 C669 1.390 . S
C664 H655 0.930 . S
C664 C662 1.384 . S
C664 C665 1.372 1_565 S
C665 C664 1.372 1_545 S
C665 C666 1.400 . S
C665 C670 1.490 . S
C666 H656 0.930 . S
C666 C665 1.400 . S
C666 C669 1.386 . S
H667 C683 0.930 . S
H668 C684 0.931 . S
C669 H657 0.929 . S
C669 C663 1.390 . S
C669 C666 1.386 . S
C670 C665 1.490 . S
C670 C672 1.395 . S
C670 C673 1.403 . S
H671 C677 0.930 . S
C672 H658 0.930 . S
C672 C670 1.395 . S
C672 C675 1.403 . S
C673 C670 1.403 . S
C673 C674 1.524 . S
C673 C677 1.400 . S
C674 H659 0.960 . S
C674 H660 0.960 1_545 S
C674 H661 0.960 . S
C674 C673 1.524 . S
C675 C672 1.403 . S
C675 C676 1.392 . S
C675 C679 1.495 . S
C676 C675 1.392 . S
C676 C677 1.385 . S
C676 C678 1.478 . S
C677 H671 0.930 . S
C677 C673 1.400 . S
C677 C676 1.385 . S
C678 C676 1.478 . S
C678 C680 1.381 1_545 S
C678 C684 1.383 . S
C679 C675 1.495 . S
C679 H685 0.959 . S
C679 H686 0.961 . S
C679 H687 0.960 1_545 S
C680 C678 1.381 1_565 S
C680 C681 1.394 . S
C680 H688 0.930 . S
C681 C680 1.394 . S
C681 C682 1.383 1_565 S
C681 H689 0.929 . S
C682 C681 1.383 1_545 S
C682 C683 1.377 . S
C683 H667 0.930 . S
C683 C682 1.377 . S
C683 C684 1.379 . S
C684 H668 0.931 . S
C684 C678 1.383 . S
C684 C683 1.379 . S
H685 C679 0.959 . S
H686 C679 0.961 . S
H687 C679 0.960 1_565 S
H688 C680 0.930 . S
H689 C681 0.929 . S
H690 C698 0.929 . S
H691 C700 0.930 . S
H692 C702 0.930 . S
H693 C705 0.929 . S
H694 C708 0.930 . S
H695 C710 0.960 . S
H696 C710 0.960 . S
H697 C710 0.960 . S
C698 H690 0.929 . S
C698 C699 1.377 . S
C698 C700 1.384 . S
C699 C698 1.377 . S
C699 C705 1.390 . S
C700 H691 0.930 . S
C700 C698 1.384 . S
C700 C701 1.372 . S
C701 C700 1.372 . S
C701 C702 1.400 . S
C701 C706 1.490 . S
C702 H692 0.930 . S
C702 C701 1.400 . S
C702 C705 1.386 . S
H703 C719 0.930 . S
H704 C720 0.931 . S
C705 H693 0.929 . S
C705 C699 1.390 . S
C705 C702 1.386 . S
C706 C701 1.490 . S
C706 C708 1.395 . S
C706 C709 1.403 . S
H707 C713 0.930 . S
C708 H694 0.930 . S
C708 C706 1.395 . S
C708 C711 1.403 . S
C709 C706 1.403 . S
C709 C710 1.524 . S
C709 C713 1.400 . S
C710 H695 0.960 . S
C710 H696 0.960 . S
C710 H697 0.960 . S
C710 C709 1.524 . S
C711 C708 1.403 . S
C711 C712 1.392 . S
C711 C715 1.495 . S
C712 C711 1.392 . S
C712 C713 1.385 . S
C712 C714 1.478 . S
C713 H707 0.930 . S
C713 C709 1.400 . S
C713 C712 1.385 . S
C714 C712 1.478 . S
C714 C716 1.381 . S
C714 C720 1.383 . S
C715 C711 1.495 . S
C715 H721 0.959 . S
C715 H722 0.961 . S
C715 H723 0.960 . S
C716 C714 1.381 . S
C716 C717 1.394 . S
C716 H724 0.930 . S
C717 C716 1.394 . S
C717 C718 1.383 . S
C717 H725 0.929 . S
C718 C717 1.383 . S
C718 C719 1.377 . S
C719 H703 0.930 . S
C719 C718 1.377 . S
C719 C720 1.379 . S
C720 H704 0.931 . S
C720 C714 1.383 . S
C720 C719 1.379 . S
H721 C715 0.959 . S
H722 C715 0.961 . S
H723 C715 0.960 . S
H724 C716 0.930 . S
H725 C717 0.929 . S
H726 C734 0.929 . S
H727 C736 0.930 . S
H728 C738 0.930 . S
H729 C741 0.911 . S
H730 C744 0.930 . S
H731 C746 0.960 . S
H732 C746 0.960 . S
H733 C746 0.960 . S
C734 H726 0.929 . S
C734 C735 1.377 . S
C734 C736 1.384 . S
C735 C734 1.377 . S
C735 C741 1.390 . S
C736 H727 0.930 . S
C736 C734 1.384 . S
C736 C737 1.372 . S
C737 C736 1.372 . S
C737 C738 1.400 . S
C737 C742 1.490 . S
C738 H728 0.930 . S
C738 C737 1.400 . S
C738 C741 1.386 . S
H739 C755 0.930 . S
H740 C756 0.931 . S
C741 H729 0.911 . S
C741 C735 1.390 . S
C741 C738 1.386 . S
C742 C737 1.490 . S
C742 C744 1.395 . S
C742 C745 1.403 1_545 S
H743 C749 0.930 . S
C744 H730 0.930 . S
C744 C742 1.395 . S
C744 C747 1.403 . S
C745 C742 1.403 1_565 S
C745 C746 1.524 . S
C745 C749 1.400 . S
C746 H731 0.960 . S
C746 H732 0.960 . S
C746 H733 0.960 . S
C746 C745 1.524 . S
C747 C744 1.403 . S
C747 C748 1.392 . S
C747 C751 1.495 . S
C748 C747 1.392 . S
C748 C749 1.385 1_545 S
C748 C750 1.478 . S
C749 H743 0.930 . S
C749 C745 1.400 . S
C749 C748 1.385 1_565 S
C750 C748 1.478 . S
C750 C752 1.381 . S
C750 C756 1.383 . S
C751 C747 1.495 . S
C751 H757 0.959 . S
C751 H758 0.961 . S
C751 H759 0.960 . S
C752 C750 1.381 . S
C752 C753 1.394 . S
C752 H760 0.930 . S
C753 C752 1.394 . S
C753 C754 1.383 . S
C753 H761 0.929 . S
C754 C753 1.383 . S
C754 C755 1.377 . S
C755 H739 0.930 . S
C755 C754 1.377 . S
C755 C756 1.379 . S
C756 H740 0.931 . S
C756 C750 1.383 . S
C756 C755 1.379 . S
H757 C751 0.959 . S
H758 C751 0.961 . S
H759 C751 0.960 . S
H760 C752 0.930 . S
H761 C753 0.929 . S
H762 C770 0.929 . S
H763 C772 0.930 . S
H764 C774 0.930 . S
H765 C777 0.929 . S
H766 C780 0.930 . S
H767 C782 0.960 . S
H768 C782 0.960 . S
H769 C782 0.960 . S
C770 H762 0.929 . S
C770 C771 1.377 . S
C770 C772 1.384 . S
C771 C770 1.377 . S
C771 C777 1.390 . S
C772 H763 0.930 . S
C772 C770 1.384 . S
C772 C773 1.372 . S
C773 C772 1.372 . S
C773 C774 1.400 . S
C773 C778 1.490 . S
C774 H764 0.930 . S
C774 C773 1.400 . S
C774 C777 1.386 . S
H775 C791 0.930 . S
H776 C792 0.931 . S
C777 H765 0.929 . S
C777 C771 1.390 . S
C777 C774 1.386 . S
C778 C773 1.490 . S
C778 C780 1.395 . S
C778 C781 1.403 . S
H779 C785 0.930 . S
C780 H766 0.930 . S
C780 C778 1.395 . S
C780 C783 1.403 . S
C781 C778 1.403 . S
C781 C782 1.524 . S
C781 C785 1.400 . S
C782 H767 0.960 . S
C782 H768 0.960 . S
C782 H769 0.960 . S
C782 C781 1.524 . S
C783 C780 1.403 . S
C783 C784 1.392 1_556 S
C783 C787 1.495 1_556 S
C784 C783 1.392 1_554 S
C784 C785 1.385 1_554 S
C784 C786 1.478 . S
C785 H779 0.930 . S
C785 C781 1.400 . S
C785 C784 1.385 1_556 S
C786 C784 1.478 . S
C786 C788 1.381 . S
C786 C792 1.383 . S
C787 C783 1.495 1_554 S
C787 H793 0.959 1_554 S
C787 H794 0.961 . S
C787 H795 0.960 . S
C788 C786 1.381 . S
C788 C789 1.394 . S
C788 H796 0.930 . S
C789 C788 1.394 . S
C789 C790 1.383 . S
C789 H797 0.929 . S
C790 C789 1.383 . S
C790 C791 1.377 . S
C791 H775 0.930 . S
C791 C790 1.377 . S
C791 C792 1.379 . S
C792 H776 0.931 . S
C792 C786 1.383 . S
C792 C791 1.379 . S
H793 C787 0.959 1_556 S
H794 C787 0.961 . S
H795 C787 0.960 . S
H796 C788 0.930 . S
H797 C789 0.929 . S
H798 C806 0.915 1_655 S
H799 C808 0.930 . S
H800 C810 0.930 . S
H801 C813 0.929 . S
H802 C816 0.930 . S
H803 C818 0.960 . S
H804 C818 0.960 . S
H805 C818 0.960 . S
C806 H798 0.915 1_455 S
C806 C807 1.394 . S
C806 C808 1.382 1_455 S
C807 C806 1.394 . S
C807 C813 1.390 . S
C808 H799 0.930 . S
C808 C806 1.382 1_655 S
C808 C809 1.372 1_655 S
C809 C808 1.372 1_455 S
C809 C810 1.400 . S
C809 C814 1.490 . S
C810 H800 0.930 . S
C810 C809 1.400 . S
C810 C813 1.386 . S
H811 C827 0.930 1_455 S
H812 C828 0.931 1_455 S
C813 H801 0.929 . S
C813 C807 1.390 . S
C813 C810 1.386 . S
C814 C809 1.490 . S
C814 C816 1.395 1_455 S
C814 C817 1.403 . S
H815 C821 0.930 . S
C816 H802 0.930 . S
C816 C814 1.395 1_655 S
C816 C819 1.403 . S
C817 C814 1.403 . S
C817 C818 1.524 . S
C817 C821 1.400 . S
C818 H803 0.960 . S
C818 H804 0.960 . S
C818 H805 0.960 . S
C818 C817 1.524 . S
C819 C816 1.403 . S
C819 C820 1.392 . S
C819 C823 1.495 . S
C820 C819 1.392 . S
C820 C821 1.385 1_655 S
C820 C822 1.478 . S
C821 H815 0.930 . S
C821 C817 1.400 . S
C821 C820 1.385 1_455 S
C822 C820 1.478 . S
C822 C824 1.381 . S
C822 C828 1.383 . S
C823 C819 1.495 . S
C823 H829 0.959 . S
C823 H830 0.961 . S
C823 H831 0.960 . S
C824 C822 1.381 . S
C824 C825 1.394 . S
C824 H832 0.930 . S
C825 C824 1.394 . S
C825 C826 1.383 . S
C825 H833 0.929 . S
C826 C825 1.383 . S
C826 C827 1.377 . S
C827 H811 0.930 1_655 S
C827 C826 1.377 . S
C827 C828 1.379 . S
C828 H812 0.931 1_655 S
C828 C822 1.383 . S
C828 C827 1.379 . S
H829 C823 0.959 . S
H830 C823 0.961 . S
H831 C823 0.960 . S
H832 C824 0.930 . S
H833 C825 0.929 . S
C195 C6 0.559 . S
C214 C180 0.623 . S
C231 C59 2.065 . S
C250 C158 1.778 . S
C267 C86 0.980 . S
C286 C172 0.929 . S
C303 C15 0.259 . S
C322 C183 0.203 . S
C358 C161 1.733 . S
C339 C50 1.788 . S
C394 C169 1.165 . S
C375 C95 1.412 . S
C411 C46 1.363 . S
C430 C136 1.111 . S
C447 C99 3.285 . S
C466 C147 2.923 . S
C483 C10 2.134 . S
C502 C125 1.800 . S
C538 C139 0.981 . S
C519 C55 1.025 . S
C574 C150 2.747 . S
C555 C90 2.802 . S
C591 C19 1.719 . S
C610 C128 1.686 . S
C646 C149 1.654 . S
C627 C18 1.639 . S
C663 C49 1.410 . S
C682 C127 1.427 . S
C699 C98 1.502 . S
C718 C138 1.494 . S
C754 C171 1.445 . S
C735 C58 1.469 . S
C790 C182 1.200 . S
C771 C89 1.259 . S
C807 C9 1.427 . S
C826 C160 1.411 . S
