# Generated by pormake.
# Topology pth, (4,4)-cn, num edge types: 1
# Building blocks:
#     Node 0, Type 0, BuildingBlock: KUFVIS_clean_sbu_0, # of connection points: 4
#     Node 1, Type 0, BuildingBlock: KUFVIS_clean_sbu_0, # of connection points: 4
#     Node 2, Type 0, BuildingBlock: KUFVIS_clean_sbu_0, # of connection points: 4
#     Node 3, Type 1, BuildingBlock: KOZSID_clean_sbu_0, # of connection points: 4
#     Node 4, Type 1, BuildingBlock: KOZSID_clean_sbu_0, # of connection points: 4
#     Node 5, Type 1, BuildingBlock: KOZSID_clean_sbu_0, # of connection points: 4
#     Edge 6, Type (0, 1), BuildingBlock: OJICUG_clean_linker_0, # of connection points: 2
#     Edge 7, Type (0, 1), BuildingBlock: OJICUG_clean_linker_0, # of connection points: 2
#     Edge 8, Type (0, 1), BuildingBlock: OJICUG_clean_linker_0, # of connection points: 2
#     Edge 9, Type (0, 1), BuildingBlock: OJICUG_clean_linker_0, # of connection points: 2
#     Edge 10, Type (0, 1), BuildingBlock: OJICUG_clean_linker_0, # of connection points: 2
#     Edge 11, Type (0, 1), BuildingBlock: OJICUG_clean_linker_0, # of connection points: 2
#     Edge 12, Type (0, 1), BuildingBlock: OJICUG_clean_linker_0, # of connection points: 2
#     Edge 13, Type (0, 1), BuildingBlock: OJICUG_clean_linker_0, # of connection points: 2
#     Edge 14, Type (0, 1), BuildingBlock: OJICUG_clean_linker_0, # of connection points: 2
#     Edge 15, Type (0, 1), BuildingBlock: OJICUG_clean_linker_0, # of connection points: 2
#     Edge 16, Type (0, 1), BuildingBlock: OJICUG_clean_linker_0, # of connection points: 2
#     Edge 17, Type (0, 1), BuildingBlock: OJICUG_clean_linker_0, # of connection points: 2
# Relax obj value: 0.011
# Max RMSD: 0.089
# Mean RMSD: 0.053
data_MOF--net-pth--node1-KUFVIS_clean_sbu_0--node2-KOZSID_clean_sbu_0--edge1-OJICUG_clean_linker_0
_symmetry_space_group_name_H-M    P1
_symmetry_Int_Tables_number       1
_symmetry_cell_setting            triclinic
loop_
_symmetry_equiv_pos_as_xyz
'x, y, z'
_cell_length_a     19.803375
_cell_length_b     19.844843
_cell_length_c     45.923936
_cell_angle_alpha  86.957809
_cell_angle_beta   88.633162
_cell_angle_gamma 120.15603
loop_
_atom_site_label
_atom_site_type_symbol
_atom_site_fract_x
_atom_site_fract_y
_atom_site_fract_z
_atom_type_partial_charge
Mn0 Mn 0.11043 0.06395 0.0435 0.0
Mn1 Mn 0.01943 0.13707 1.0023 0.0
C2 C 0.03245 0.99404 0.0065 0.0
C3 C 0.11309 0.98566 0.08302 0.0
C4 C 0.19263 0.194 0.99391 0.0
O5 O 0.11461 0.14868 0.06853 0.0
O6 O 0.05119 0.19064 0.03923 0.0
C7 C 0.87747 0.08236 0.04124 0.0
N8 N 0.91096 0.08524 0.01461 0.0
C9 C 0.78493 0.00924 0.99492 0.0
C10 C 0.74908 0.00589 0.02209 0.0
C11 C 0.79557 0.04243 0.04536 0.0
C12 C 0.86678 0.05008 0.99209 0.0
H13 H 0.91297 0.11028 0.05919 0.0
C14 C 0.08632 0.19315 0.06265 0.0
O15 O 0.17698 0.04075 0.06945 0.0
O16 O 0.04796 0.97936 0.075 0.0
N17 N 0.98482 0.09 0.96619 0.0
C18 C 0.0284 0.09406 0.94203 0.0
C19 C 0.9907 0.05816 0.91706 0.0
C20 C 0.9087 0.01895 0.91712 0.0
C21 C 0.86513 0.01596 0.94218 0.0
C22 C 0.90593 0.05306 0.96638 0.0
H23 H 0.09137 0.12365 0.94193 0.0
O24 O 0.08718 0.98186 0.01551 0.0
O25 O 0.02536 0.04749 0.01908 0.0
O26 O 0.19488 0.14945 0.01451 0.0
O27 O 0.12999 0.19323 0.98734 0.0
C28 C 0.78276 0.97634 0.94429 0.0
C29 C 0.74267 0.97267 0.97068 0.0
H30 H 0.68593 0.97491 0.02539 0.0
H31 H 0.76833 0.03978 0.06643 0.0
H32 H 0.02474 0.06041 0.89786 0.0
H33 H 0.8798 0.99075 0.89791 0.0
H34 H 0.74963 0.94748 0.92588 0.0
H35 H 0.6793 0.94087 0.97218 0.0
Mn36 Mn 0.07118 0.08857 0.37667 0.0
Mn37 Mn 0.16594 0.25071 0.41347 0.0
C38 C 0.15086 0.09372 0.41384 0.0
C39 C 0.06675 0.0103 0.33931 0.0
C40 C 0.99347 0.13379 0.42495 0.0
O41 O 0.06664 0.17079 0.34919 0.0
O42 O 0.12819 0.27405 0.37644 0.0
C43 C 0.30215 0.34092 0.37128 0.0
N44 N 0.27273 0.30867 0.39883 0.0
C45 C 0.402 0.35698 0.41584 0.0
C46 C 0.4337 0.39111 0.38768 0.0
C47 C 0.38352 0.3829 0.3653 0.0
C48 C 0.32047 0.31616 0.42053 0.0
H49 H 0.26383 0.3346 0.35399 0.0
C50 C 0.09224 0.2426 0.35365 0.0
O51 O 1.00324 1.00052 0.35243 0.0
O52 O 0.13208 0.06849 0.34656 0.0
N53 N 0.20618 0.23707 0.44942 0.0
C54 C 0.16621 0.1964 0.47486 0.0
C55 C 0.2078 0.19643 0.49921 0.0
C56 C 0.28997 0.23868 0.49722 0.0
C57 C 0.3298 0.2806 0.47088 0.0
C58 C 0.28522 0.27867 0.44738 0.0
H59 H 0.1031 0.16336 0.47644 0.0
O60 O 0.09471 0.02729 0.40655 0.0
O61 O 0.1581 0.15559 0.3995 0.0
O62 O 0.98879 0.08904 0.40508 0.0
O63 O 0.05737 0.19436 0.4305 0.0
C64 C 0.41199 0.32286 0.46684 0.0
C65 C 0.44807 0.3608 0.43931 0.0
H66 H 0.49642 0.42322 0.38294 0.0
H67 H 0.40754 0.40877 0.34348 0.0
H68 H 0.17662 0.16366 0.51943 0.0
H69 H 0.32185 0.23796 0.51596 0.0
H70 H 0.448 0.32564 0.48464 0.0
H71 H 0.51129 0.39209 0.43636 0.0
Mn72 Mn 0.12536 0.06958 0.71059 0.0
Mn73 Mn 0.05124 0.16398 0.74707 0.0
C74 C 0.19453 0.15013 0.74689 0.0
C75 C 0.20206 0.06344 0.67236 0.0
C76 C 0.99267 0.99067 0.75856 0.0
O77 O 0.04107 0.06342 0.68409 0.0
O78 O 1.00026 0.13283 0.70923 0.0
C79 C 0.11133 0.30613 0.70677 0.0
N80 N 0.10553 0.2724 0.73402 0.0
C81 C 0.18116 0.39807 0.75332 0.0
C82 C 0.18746 0.43417 0.7255 0.0
C83 C 0.15259 0.38797 0.70212 0.0
C84 C 0.13909 0.31629 0.75666 0.0
H85 H 0.08474 0.27083 0.68875 0.0
C86 C 0.99838 0.0943 0.68738 0.0
O87 O 0.14765 1.00072 0.68685 0.0
O88 O 0.20954 0.12947 0.67901 0.0
N89 N 0.09576 0.19802 0.78378 0.0
C90 C 0.08969 0.15418 0.80864 0.0
C91 C 0.12399 0.1915 0.83384 0.0
C92 C 0.16384 0.27343 0.83328 0.0
C93 C 0.16915 0.3173 0.80747 0.0
C94 C 0.1335 0.27687 0.78307 0.0
H95 H 0.05977 0.09128 0.80913 0.0
O96 O 0.2073 0.09516 0.73954 0.0
O97 O 0.14121 0.15622 0.73294 0.0
O98 O 0.0397 0.98743 0.73996 0.0
O99 O 0.99218 0.05348 0.76285 0.0
C100 C 0.20982 0.39961 0.80482 0.0
C101 C 0.21613 0.43998 0.77774 0.0
H102 H 0.21951 0.49726 0.72179 0.0
H103 H 0.15756 0.4154 0.68055 0.0
H104 H 0.12007 0.15722 0.85361 0.0
H105 H 0.19084 0.30203 0.85268 0.0
H106 H 0.23757 0.43245 0.82337 0.0
H107 H 0.24882 0.50328 0.77585 0.0
C108 C 0.1738 0.73859 0.16784 0.0
C109 C 0.24836 0.80115 0.1601 0.0
C110 C 0.29956 0.78698 0.17464 0.0
C111 C 0.25391 0.71765 0.19079 0.0
N112 N 0.17642 0.68566 0.18716 0.0
Co113 Co 0.08941 0.5915 0.21011 0.0
N114 N 0.16489 0.57805 0.23478 0.0
C115 C 0.24382 0.62211 0.23232 0.0
C116 C 0.28082 0.59658 0.25083 0.0
C117 C 0.22211 0.5316 0.26591 0.0
C118 C 0.15224 0.52149 0.2558 0.0
N119 N 1.00227 0.49824 0.23343 0.0
C120 C 1.00469 0.44982 0.25495 0.0
C121 C 0.93016 0.3916 0.26504 0.0
C122 C 0.87885 0.40272 0.24905 0.0
C123 C 0.92466 0.46707 0.23027 0.0
N124 N 0.01411 0.60442 0.18516 0.0
C125 C 0.93548 0.55706 0.18618 0.0
C126 C 0.89911 0.5807 0.16654 0.0
C127 C 0.95773 0.64808 0.15255 0.0
C128 C 0.0268 0.66237 0.16475 0.0
N129 N 0.09515 0.52054 0.18203 0.0
C130 C 0.09983 0.41518 0.14379 0.0
C131 C 0.02899 0.40738 0.15381 0.0
C132 C 0.028 0.45976 0.17267 0.0
C133 C 0.16873 0.47666 0.1534 0.0
C134 C 0.16512 0.5287 0.17218 0.0
N135 N 0.08316 0.66227 0.23794 0.0
C136 C 0.00875 0.71451 0.2603 0.0
C137 C 0.07588 0.77501 0.27134 0.0
C138 C 0.1464 0.77571 0.26623 0.0
C139 C 0.14873 0.7195 0.2496 0.0
C140 C 0.01349 0.65896 0.24425 0.0
H141 H 0.20442 0.72411 0.24609 0.0
H142 H 0.96001 0.61483 0.23658 0.0
H143 H 0.97176 0.44923 0.17945 0.0
H144 H 0.2196 0.57505 0.17838 0.0
C145 C 0.2816 0.6858 0.21178 0.0
C146 C 0.10219 0.73366 0.15728 0.0
C147 C 0.0758 0.45579 0.26622 0.0
C148 C 0.89697 0.49561 0.20785 0.0
H149 H 0.26471 0.85345 0.14629 0.0
H150 H 0.36236 0.82481 0.17463 0.0
H151 H 0.34312 0.62131 0.25269 0.0
H152 H 0.23014 0.49498 0.28209 0.0
H153 H 0.91458 0.34511 0.28188 0.0
H154 H 0.8157 0.36685 0.25041 0.0
H155 H 0.83704 0.55381 0.16355 0.0
H156 H 0.95007 0.68385 0.13585 0.0
H157 H 0.97388 0.36027 0.14731 0.0
H158 H 0.2252 0.48561 0.146 0.0
H159 H 0.95249 0.71062 0.26328 0.0
H160 H 0.19999 0.81944 0.27495 0.0
C161 C 0.43967 0.99645 0.58762 0.0
C162 C 0.38077 0.92178 0.59762 0.0
C163 C 0.39476 0.87047 0.58386 0.0
C164 C 0.46048 0.9161 0.56602 0.0
N165 N 0.4901 0.99373 0.56773 0.0
Co166 Co 0.58069 0.08015 0.54313 0.0
N167 N 0.59306 1.00402 0.51958 0.0
C168 C 0.54754 0.92529 0.52228 0.0
C169 C 0.57219 0.88786 0.50439 0.0
C170 C 0.63809 0.94599 0.48959 0.0
C171 C 0.64974 0.01606 0.4992 0.0
N172 N 0.67232 0.16651 0.51905 0.0
C173 C 0.72119 0.16336 0.49861 0.0
C174 C 0.77863 0.23759 0.48763 0.0
C175 C 0.76743 0.28945 0.50233 0.0
C176 C 0.70375 0.24421 0.52122 0.0
N177 N 0.56712 0.15637 0.56608 0.0
C178 C 0.61119 0.23526 0.56284 0.0
C179 C 0.58744 0.27243 0.58124 0.0
C180 C 0.52314 0.21395 0.59673 0.0
C181 C 0.51073 0.14407 0.58661 0.0
N182 N 0.65488 0.07824 0.57141 0.0
C183 C 0.76838 0.07847 0.60805 0.0
C184 C 0.76665 0.14694 0.60072 0.0
C185 C 0.71037 0.14558 0.58254 0.0
C186 C 0.71056 0.00938 0.5972 0.0
C187 C 0.65467 0.01047 0.5793 0.0
N188 N 0.50659 0.08233 0.51494 0.0
C189 C 0.46088 0.15514 0.48571 0.0
C190 C 0.39237 0.08656 0.48035 0.0
C191 C 0.3835 0.01559 0.49163 0.0
C192 C 0.44124 0.01476 0.50839 0.0
C193 C 0.5165 0.15178 0.50299 0.0
H194 H 0.43104 0.95873 0.51617 0.0
H195 H 0.56625 0.20637 0.50682 0.0
H196 H 0.71355 0.2001 0.57762 0.0
H197 H 0.61248 0.95585 0.57181 0.0
C198 C 0.48837 0.888 0.54438 0.0
C199 C 0.44288 0.068 0.59639 0.0
C200 C 0.71805 0.09203 0.48988 0.0
C201 C 0.67338 0.27278 0.54181 0.0
H202 H 0.33071 0.90531 0.61236 0.0
H203 H 0.35857 0.80741 0.58539 0.0
H204 H 0.54752 0.82551 0.50335 0.0
H205 H 0.67474 0.93705 0.47433 0.0
H206 H 0.82494 0.2527 0.47114 0.0
H207 H 0.80254 0.35258 0.49997 0.0
H208 H 0.61299 0.33471 0.58283 0.0
H209 H 0.48851 0.22211 0.61323 0.0
H210 H 0.80832 0.20186 0.60908 0.0
H211 H 0.70896 0.95457 0.60197 0.0
H212 H 0.47071 0.21155 0.4773 0.0
H213 H 0.33224 0.9607 0.48748 0.0
C214 C 0.75162 0.64204 0.83244 0.0
C215 C 0.81144 0.62981 0.82294 0.0
C216 C 0.79958 0.5631 0.83786 0.0
C217 C 0.73385 0.53859 0.85574 0.0
N218 N 0.70211 0.58493 0.85283 0.0
Co219 Co 0.61056 0.5746 0.87675 0.0
N220 N 0.60063 0.48357 0.90187 0.0
C221 C 0.64742 0.45229 0.90015 0.0
C222 C 0.62331 0.38704 0.91875 0.0
C223 C 0.55639 0.37503 0.93291 0.0
C224 C 0.54363 0.43424 0.92223 0.0
N225 N 0.51858 0.56389 0.90029 0.0
C226 C 0.47066 0.50824 0.92128 0.0
C227 C 0.41289 0.52225 0.93185 0.0
C228 C 0.42274 0.58722 0.91621 0.0
C229 C 0.48606 0.60951 0.89724 0.0
N230 N 0.62086 0.66606 0.85201 0.0
C231 C 0.57473 0.69807 0.85388 0.0
C232 C 0.59669 0.761 0.83427 0.0
C233 C 0.66199 0.77115 0.81943 0.0
C234 C 0.67655 0.71399 0.83112 0.0
N235 N 0.53714 0.50069 0.84946 0.0
C236 C 0.4251 0.38819 0.81493 0.0
C237 C 0.42293 0.45542 0.82084 0.0
C238 C 0.47862 0.51012 0.83819 0.0
C239 C 0.48573 0.37951 0.82581 0.0
C240 C 0.54109 0.43632 0.84254 0.0
N241 N 0.68404 0.64843 0.90403 0.0
C242 C 0.72882 0.76307 0.93142 0.0
C243 C 0.79605 0.7611 0.93852 0.0
C244 C 0.80496 0.70036 0.92884 0.0
C245 C 0.74842 0.64475 0.91208 0.0
C246 C 0.67433 0.70702 0.91414 0.0
H247 H 0.75874 0.5999 0.90561 0.0
H248 H 0.62551 0.7131 0.90887 0.0
H249 H 0.4723 0.55888 0.84256 0.0
H250 H 0.58596 0.42624 0.84993 0.0
C251 C 0.70713 0.47909 0.87818 0.0
C252 C 0.74689 0.71116 0.82304 0.0
C253 C 0.47407 0.43842 0.93049 0.0
C254 C 0.51372 0.67024 0.87531 0.0
H255 H 0.86055 0.6666 0.80772 0.0
H256 H 0.837 0.53796 0.83697 0.0
H257 H 0.64891 0.35008 0.92063 0.0
H258 H 0.5198 0.32628 0.94845 0.0
H259 H 0.36688 0.48762 0.94854 0.0
H260 H 0.38659 0.61364 0.91784 0.0
H261 H 0.5698 0.79667 0.83167 0.0
H262 H 0.69646 0.81698 0.80253 0.0
H263 H 0.37733 0.46499 0.81273 0.0
H264 H 0.49086 0.32918 0.82128 0.0
H265 H 0.71906 0.80874 0.93856 0.0
H266 H 0.85524 0.69534 0.93432 0.0
C267 C 0.14178 0.27019 0.10713 0.0
C268 C 0.09228 0.25058 0.08366 0.0
H269 H 0.18399 0.33845 0.14442 0.0
C270 C 0.04773 0.28743 0.07995 0.0
H271 H 0.17719 0.24335 0.11062 0.0
C272 C 0.05155 0.34125 0.09917 0.0
C273 C 0.10029 0.36056 0.12273 0.0
H274 H 0.00889 0.2743 0.06222 0.0
H275 H 0.01613 0.36803 0.0955 0.0
C276 C 0.14615 0.32509 0.12636 0.0
C277 C 0.92635 0.14183 0.47053 0.0
C278 C 0.9214 0.11705 0.4421 0.0
H279 H 0.86556 0.15127 0.50798 0.0
C280 C 0.84809 0.08116 0.42977 0.0
H281 H 0.98183 0.16984 0.48069 0.0
C282 C 0.78183 0.07255 0.4452 0.0
C283 C 0.78715 0.0975 0.47358 0.0
H284 H 0.84251 0.0624 0.40779 0.0
H285 H 0.72662 0.04741 0.43483 0.0
C286 C 0.8599 0.13142 0.48617 0.0
C287 C 0.90158 0.84508 0.76361 0.0
C288 C 0.93406 0.9179 0.77571 0.0
H289 H 0.8149 0.72287 0.76867 0.0
C290 C 0.90695 0.92123 0.80388 0.0
H291 H 0.9205 0.84081 0.7418 0.0
C292 C 0.84869 0.8535 0.81955 0.0
C293 C 0.8146 0.78117 0.80715 0.0
H294 H 0.93043 0.97631 0.81382 0.0
H295 H 0.82869 0.85788 0.84117 0.0
C296 C 0.84146 0.77759 0.77899 0.0
C297 C 0.06653 0.89731 0.12929 0.0
C298 C 0.11337 0.92501 0.10311 0.0
H299 H 0.02874 0.81688 0.16751 0.0
C300 C 0.15581 0.88927 0.09468 0.0
H301 H 0.03237 0.92321 0.13603 0.0
C302 C 0.15064 0.82622 0.11183 0.0
C303 C 0.10592 0.79988 0.13853 0.0
H304 H 0.19078 0.90823 0.07422 0.0
H305 H 0.18183 0.79803 0.10425 0.0
C306 C 0.06404 0.83628 0.14713 0.0
C307 C 0.19279 0.04578 0.45729 0.0
C308 C 0.21263 0.09514 0.43166 0.0
H309 H 0.23419 0.00556 0.49312 0.0
C310 C 0.29147 0.13949 0.4215 0.0
H311 H 0.13215 0.00963 0.46517 0.0
C312 C 0.34989 0.1374 0.43741 0.0
C313 C 0.33038 0.0891 0.46341 0.0
H314 H 0.30785 0.17526 0.40107 0.0
H315 H 0.41024 0.17255 0.42909 0.0
C316 C 0.2511 0.04311 0.47312 0.0
C317 C 0.28602 0.29023 0.75516 0.0
C318 C 0.25012 0.21097 0.76504 0.0
H319 H 0.36836 0.40865 0.76346 0.0
C320 C 0.27359 0.19002 0.7909 0.0
H321 H 0.27137 0.30752 0.73458 0.0
C322 C 0.32991 0.24759 0.8072 0.0
C323 C 0.36454 0.32723 0.79775 0.0
H324 H 0.24793 0.12909 0.79859 0.0
H325 H 0.34604 0.22982 0.82732 0.0
C326 C 0.34184 0.34794 0.77156 0.0
C327 C 0.96154 0.14875 0.64455 0.0
C328 C 0.94316 0.0861 0.66497 0.0
H329 H 0.92228 0.19469 0.61 0.0
C330 C 0.86847 0.01937 0.66593 0.0
H331 H 0.01876 0.201 0.64357 0.0
C332 C 0.81219 0.01609 0.64716 0.0
C333 C 0.82957 0.07956 0.62697 0.0
H334 H 0.85279 0.97087 0.68189 0.0
H335 H 0.75427 0.96485 0.64925 0.0
C336 C 0.90571 0.14531 0.62559 0.0
C337 C 0.99385 0.91252 0.96364 0.0
C338 C 0.97221 0.93738 0.98838 0.0
H339 H 0.95497 0.83865 0.92803 0.0
C340 C 0.89264 0.9023 0.99725 0.0
H341 H 0.05501 0.9376 0.95676 0.0
C342 C 0.83534 0.84592 0.98088 0.0
C343 C 0.85671 0.82194 0.95573 0.0
H344 H 0.87477 0.91811 0.017 0.0
H345 H 0.7744 0.82009 0.98819 0.0
C346 C 0.93666 0.85572 0.94735 0.0
C347 C 1.0014 0.87658 0.32054 0.0
C348 C 0.06617 0.95266 0.31979 0.0
H349 H 0.95441 0.76063 0.30718 0.0
C350 C 0.13334 0.97067 0.3024 0.0
H351 H 0.94917 0.8604 0.33406 0.0
C352 C 0.13608 0.91372 0.28644 0.0
C353 C 0.07217 0.83663 0.2878 0.0
H354 H 0.18431 0.02879 0.30134 0.0
H355 H 0.18856 0.93049 0.27301 0.0
C356 C 1.00455 0.81922 0.30499 0.0
C357 C 0.27993 0.10162 0.62435 0.0
C358 C 0.25949 0.06085 0.65202 0.0
H359 H 0.35182 0.13285 0.58454 0.0
C360 C 0.29869 0.02172 0.66123 0.0
H361 H 0.25094 0.13282 0.61692 0.0
C362 C 0.35865 0.02481 0.64339 0.0
C363 C 0.37821 0.06405 0.61541 0.0
H364 H 0.28499 0.9912 0.68273 0.0
H365 H 0.3901 0.9968 0.65153 0.0
C366 C 0.3377 0.10189 0.60597 0.0
C367 C 0.33861 0.28471 0.99014 0.0
C368 C 0.26628 0.25145 0.97708 0.0
H369 H 0.46088 0.37177 0.98594 0.0
C370 C 0.26411 0.27719 0.94816 0.0
H371 H 0.34206 0.2668 0.01249 0.0
C372 C 0.33226 0.33532 0.93279 0.0
C373 C 0.40395 0.37043 0.94616 0.0
H374 H 0.20949 0.25298 0.93743 0.0
H375 H 0.32867 0.35453 0.91064 0.0
C376 C 0.4066 0.34451 0.97496 0.0
C377 C 0.09709 0.36858 0.33847 0.0
C378 C 0.08145 0.29387 0.33155 0.0
H379 H 0.10607 0.47719 0.32338 0.0
C380 C 0.05796 0.27067 0.30333 0.0
H381 H 0.11459 0.38855 0.35998 0.0
C382 C 0.05328 0.32212 0.28232 0.0
C383 C 0.0714 0.39735 0.28921 0.0
H384 H 0.04531 0.2137 0.2972 0.0
H385 H 0.03767 0.30407 0.26046 0.0
C386 C 0.09184 0.41945 0.3176 0.0
loop_
_geom_bond_atom_site_label_1
_geom_bond_atom_site_label_2
_geom_bond_distance
_geom_bond_site_symmetry_2
_ccdc_geom_bond_type
Mn0 O5 2.095 . S
Mn0 O15 2.162 1_545 S
Mn0 O16 2.297 1_545 S
Mn0 O24 2.385 1_545 S
Mn0 O25 2.209 . S
Mn0 O26 2.094 . S
Mn1 O6 2.121 . S
Mn1 N8 2.257 1_454 S
Mn1 N17 2.282 1_554 S
Mn1 O25 2.215 . S
Mn1 O27 2.117 1_554 S
C2 O24 1.234 . S
C2 O25 1.283 1_565 S
C3 O15 1.281 . S
C3 O16 1.236 . S
C4 O26 1.240 1_556 S
C4 O27 1.264 . S
O5 Mn0 2.095 . S
O5 C14 1.250 . S
O6 Mn1 2.121 . S
O6 C14 1.258 . S
C7 N8 1.326 1_554 S
C7 C11 1.460 . S
C7 H13 0.929 . S
N8 Mn1 2.257 1_656 S
N8 C7 1.326 1_556 S
N8 C12 1.362 . S
C9 C10 1.258 . S
C9 C12 1.431 . S
C9 C29 1.449 . S
C10 C9 1.258 . S
C10 C11 1.477 1_556 S
C10 H30 0.931 . S
C11 C7 1.460 . S
C11 C10 1.477 1_554 S
C11 H31 0.930 . S
C12 N8 1.362 . S
C12 C9 1.431 . S
C12 C22 1.476 . S
H13 C7 0.929 . S
C14 O5 1.250 . S
C14 O6 1.258 . S
O15 Mn0 2.162 1_565 S
O15 C3 1.281 . S
O16 Mn0 2.297 1_565 S
O16 C3 1.236 . S
N17 Mn1 2.282 1_556 S
N17 C18 1.328 . S
N17 C22 1.318 1_455 S
C18 N17 1.328 . S
C18 C19 1.457 . S
C18 H23 0.929 . S
C19 C18 1.457 . S
C19 C20 1.291 1_455 S
C19 H32 0.931 . S
C20 C19 1.291 1_655 S
C20 C21 1.373 . S
C20 H33 0.929 . S
C21 C20 1.373 . S
C21 C22 1.396 . S
C21 C28 1.403 . S
C22 C12 1.476 . S
C22 N17 1.318 1_655 S
C22 C21 1.396 . S
H23 C18 0.929 . S
O24 Mn0 2.385 1_565 S
O24 C2 1.234 . S
O25 Mn0 2.209 . S
O25 Mn1 2.215 . S
O25 C2 1.283 1_545 S
O26 Mn0 2.094 . S
O26 C4 1.240 1_554 S
O27 Mn1 2.117 1_556 S
O27 C4 1.264 . S
C28 C21 1.403 . S
C28 C29 1.399 . S
C28 H34 0.929 . S
C29 C9 1.449 . S
C29 C28 1.399 . S
C29 H35 0.930 . S
H30 C10 0.931 . S
H31 C11 0.930 . S
H32 C19 0.931 . S
H33 C20 0.929 . S
H34 C28 0.929 . S
H35 C29 0.930 . S
Mn36 O41 2.095 . S
Mn36 O51 2.162 1_445 S
Mn36 O52 2.297 . S
Mn36 O60 2.385 . S
Mn36 O61 2.209 . S
Mn36 O62 2.094 1_455 S
Mn37 O42 2.121 . S
Mn37 N44 2.257 . S
Mn37 N53 2.282 . S
Mn37 O61 2.215 . S
Mn37 O63 2.117 . S
C38 O60 1.234 . S
C38 O61 1.283 . S
C39 O51 1.281 1_455 S
C39 O52 1.236 1_565 S
C40 O62 1.240 . S
C40 O63 1.264 1_655 S
O41 Mn36 2.095 . S
O41 C50 1.250 . S
O42 Mn37 2.121 . S
O42 C50 1.258 . S
C43 N44 1.326 . S
C43 C47 1.460 . S
C43 H49 0.929 . S
N44 Mn37 2.257 . S
N44 C43 1.326 . S
N44 C48 1.362 . S
C45 C46 1.258 . S
C45 C48 1.431 . S
C45 C65 1.449 . S
C46 C45 1.258 . S
C46 C47 1.477 . S
C46 H66 0.931 . S
C47 C43 1.460 . S
C47 C46 1.477 . S
C47 H67 0.930 . S
C48 N44 1.362 . S
C48 C45 1.431 . S
C48 C58 1.476 . S
H49 C43 0.929 . S
C50 O41 1.250 . S
C50 O42 1.258 . S
O51 Mn36 2.162 1_665 S
O51 C39 1.281 1_655 S
O52 Mn36 2.297 . S
O52 C39 1.236 1_545 S
N53 Mn37 2.282 . S
N53 C54 1.328 . S
N53 C58 1.318 . S
C54 N53 1.328 . S
C54 C55 1.457 . S
C54 H59 0.929 . S
C55 C54 1.457 . S
C55 C56 1.291 . S
C55 H68 0.931 . S
C56 C55 1.291 . S
C56 C57 1.373 . S
C56 H69 0.929 . S
C57 C56 1.373 . S
C57 C58 1.396 . S
C57 C64 1.403 . S
C58 C48 1.476 . S
C58 N53 1.318 . S
C58 C57 1.396 . S
H59 C54 0.929 . S
O60 Mn36 2.385 . S
O60 C38 1.234 . S
O61 Mn36 2.209 . S
O61 Mn37 2.215 . S
O61 C38 1.283 . S
O62 Mn36 2.094 1_655 S
O62 C40 1.240 . S
O63 Mn37 2.117 . S
O63 C40 1.264 1_455 S
C64 C57 1.403 . S
C64 C65 1.399 . S
C64 H70 0.929 . S
C65 C45 1.449 . S
C65 C64 1.399 . S
C65 H71 0.930 . S
H66 C46 0.931 . S
H67 C47 0.930 . S
H68 C55 0.931 . S
H69 C56 0.929 . S
H70 C64 0.929 . S
H71 C65 0.930 . S
Mn72 O77 2.095 . S
Mn72 O87 2.162 1_545 S
Mn72 O88 2.297 . S
Mn72 O96 2.385 . S
Mn72 O97 2.209 . S
Mn72 O98 2.094 1_545 S
Mn73 O78 2.121 1_455 S
Mn73 N80 2.257 . S
Mn73 N89 2.282 . S
Mn73 O97 2.215 . S
Mn73 O99 2.119 1_445 S
C74 O96 1.234 . S
C74 O97 1.283 . S
C75 O87 1.281 1_545 S
C75 O88 1.236 . S
C76 O98 1.240 1_655 S
C76 O99 1.262 . S
O77 Mn72 2.095 . S
O77 C86 1.250 1_455 S
O78 Mn73 2.121 1_655 S
O78 C86 1.258 . S
C79 N80 1.326 . S
C79 C83 1.460 . S
C79 H85 0.929 . S
N80 Mn73 2.257 . S
N80 C79 1.326 . S
N80 C84 1.362 . S
C81 C82 1.258 . S
C81 C84 1.431 . S
C81 C101 1.449 . S
C82 C81 1.258 . S
C82 C83 1.477 . S
C82 H102 0.931 . S
C83 C79 1.460 . S
C83 C82 1.477 . S
C83 H103 0.930 . S
C84 N80 1.362 . S
C84 C81 1.431 . S
C84 C94 1.476 . S
H85 C79 0.929 . S
C86 O77 1.250 1_655 S
C86 O78 1.258 . S
O87 Mn72 2.162 1_565 S
O87 C75 1.281 1_565 S
O88 Mn72 2.297 . S
O88 C75 1.236 . S
N89 Mn73 2.282 . S
N89 C90 1.328 . S
N89 C94 1.318 . S
C90 N89 1.328 . S
C90 C91 1.457 . S
C90 H95 0.929 . S
C91 C90 1.457 . S
C91 C92 1.291 . S
C91 H104 0.931 . S
C92 C91 1.291 . S
C92 C93 1.373 . S
C92 H105 0.929 . S
C93 C92 1.373 . S
C93 C94 1.396 . S
C93 C100 1.403 . S
C94 C84 1.476 . S
C94 N89 1.318 . S
C94 C93 1.396 . S
H95 C90 0.929 . S
O96 Mn72 2.385 . S
O96 C74 1.234 . S
O97 Mn72 2.209 . S
O97 Mn73 2.215 . S
O97 C74 1.283 . S
O98 Mn72 2.094 1_565 S
O98 C76 1.240 1_455 S
O99 Mn73 2.119 1_665 S
O99 C76 1.262 . S
C100 C93 1.403 . S
C100 C101 1.399 . S
C100 H106 0.929 . S
C101 C81 1.449 . S
C101 C100 1.399 . S
C101 H107 0.930 . S
H102 C82 0.931 . S
H103 C83 0.930 . S
H104 C91 0.931 . S
H105 C92 0.929 . S
H106 C100 0.929 . S
H107 C101 0.930 . S
C108 C109 1.443 . S
C108 N112 1.376 . S
C108 C146 1.389 . S
C109 C108 1.443 . S
C109 C110 1.340 . S
C109 H149 0.951 . S
C110 C109 1.340 . S
C110 C111 1.439 . S
C110 H150 0.950 . S
C111 C110 1.439 . S
C111 N112 1.374 . S
C111 C145 1.395 . S
N112 C108 1.376 . S
N112 C111 1.374 . S
N112 Co113 2.008 . S
Co113 N112 2.008 . S
Co113 N114 1.995 . S
Co113 N119 2.008 1_455 S
Co113 N124 1.995 1_455 S
Co113 N129 2.282 . S
Co113 N135 2.282 . S
N114 Co113 1.995 . S
N114 C115 1.376 . S
N114 C118 1.383 . S
C115 N114 1.376 . S
C115 C116 1.446 . S
C115 C145 1.391 . S
C116 C115 1.446 . S
C116 C117 1.339 . S
C116 H151 0.949 . S
C117 C116 1.339 . S
C117 C118 1.439 . S
C117 H152 0.950 . S
C118 N114 1.383 . S
C118 C117 1.439 . S
C118 C147 1.392 . S
N119 Co113 2.008 1_655 S
N119 C120 1.376 . S
N119 C123 1.374 . S
C120 N119 1.376 . S
C120 C121 1.443 . S
C120 C147 1.389 1_655 S
C121 C120 1.443 . S
C121 C122 1.340 . S
C121 H153 0.951 . S
C122 C121 1.340 . S
C122 C123 1.439 . S
C122 H154 0.950 . S
C123 N119 1.374 . S
C123 C122 1.439 . S
C123 C148 1.395 . S
N124 Co113 1.995 1_655 S
N124 C125 1.376 . S
N124 C128 1.383 1_655 S
C125 N124 1.376 . S
C125 C126 1.446 . S
C125 C148 1.391 . S
C126 C125 1.446 . S
C126 C127 1.339 . S
C126 H155 0.949 . S
C127 C126 1.339 . S
C127 C128 1.439 1_655 S
C127 H156 0.950 . S
C128 N124 1.383 1_455 S
C128 C127 1.439 1_455 S
C128 C146 1.392 . S
N129 Co113 2.282 . S
N129 C132 1.332 . S
N129 C134 1.332 . S
C130 C131 1.386 . S
C130 C133 1.388 . S
C131 C130 1.386 . S
C131 C132 1.382 . S
C131 H157 0.950 1_455 S
C132 N129 1.332 . S
C132 C131 1.382 . S
C132 H143 0.952 1_455 S
C133 C130 1.388 . S
C133 C134 1.382 . S
C133 H158 0.950 . S
C134 N129 1.332 . S
C134 C133 1.382 . S
C134 H144 0.948 . S
N135 Co113 2.282 . S
N135 C139 1.332 . S
N135 C140 1.332 1_455 S
C136 C137 1.388 1_655 S
C136 C140 1.382 . S
C136 H159 0.950 . S
C137 C136 1.388 1_455 S
C137 C138 1.386 . S
C138 C137 1.386 . S
C138 C139 1.382 . S
C138 H160 0.950 . S
C139 N135 1.332 . S
C139 C138 1.382 . S
C139 H141 0.952 . S
C140 N135 1.332 1_655 S
C140 C136 1.382 . S
C140 H142 0.948 . S
H141 C139 0.952 . S
H142 C140 0.948 . S
H143 C132 0.952 1_655 S
H144 C134 0.948 . S
C145 C111 1.395 . S
C145 C115 1.391 . S
C146 C108 1.389 . S
C146 C128 1.392 . S
C147 C118 1.392 . S
C147 C120 1.389 1_455 S
C148 C123 1.395 . S
C148 C125 1.391 . S
H149 C109 0.951 . S
H150 C110 0.950 . S
H151 C116 0.949 . S
H152 C117 0.950 . S
H153 C121 0.951 . S
H154 C122 0.950 . S
H155 C126 0.949 . S
H156 C127 0.950 . S
H157 C131 0.950 1_655 S
H158 C133 0.950 . S
H159 C136 0.950 . S
H160 C138 0.950 . S
C161 C162 1.443 1_545 S
C161 N165 1.376 . S
C161 C199 1.389 . S
C162 C161 1.443 1_565 S
C162 C163 1.340 . S
C162 H202 0.951 . S
C163 C162 1.340 . S
C163 C164 1.439 . S
C163 H203 0.950 . S
C164 C163 1.439 . S
C164 N165 1.374 1_565 S
C164 C198 1.395 . S
N165 C161 1.376 . S
N165 C164 1.374 1_545 S
N165 Co166 2.008 . S
Co166 N165 2.008 . S
Co166 N167 1.995 . S
Co166 N172 2.008 . S
Co166 N177 1.995 . S
Co166 N182 2.282 . S
Co166 N188 2.282 . S
N167 Co166 1.995 . S
N167 C168 1.376 1_545 S
N167 C171 1.383 . S
C168 N167 1.376 1_565 S
C168 C169 1.446 . S
C168 C198 1.391 . S
C169 C168 1.446 . S
C169 C170 1.339 . S
C169 H204 0.949 . S
C170 C169 1.339 . S
C170 C171 1.439 1_565 S
C170 H205 0.950 . S
C171 N167 1.383 . S
C171 C170 1.439 1_545 S
C171 C200 1.392 . S
N172 Co166 2.008 . S
N172 C173 1.376 . S
N172 C176 1.374 . S
C173 N172 1.376 . S
C173 C174 1.443 . S
C173 C200 1.389 . S
C174 C173 1.443 . S
C174 C175 1.340 . S
C174 H206 0.951 . S
C175 C174 1.340 . S
C175 C176 1.439 . S
C175 H207 0.950 . S
C176 N172 1.374 . S
C176 C175 1.439 . S
C176 C201 1.395 . S
N177 Co166 1.995 . S
N177 C178 1.376 . S
N177 C181 1.383 . S
C178 N177 1.376 . S
C178 C179 1.446 . S
C178 C201 1.391 . S
C179 C178 1.446 . S
C179 C180 1.339 . S
C179 H208 0.949 . S
C180 C179 1.339 . S
C180 C181 1.439 . S
C180 H209 0.950 . S
C181 N177 1.383 . S
C181 C180 1.439 . S
C181 C199 1.392 . S
N182 Co166 2.282 . S
N182 C185 1.332 . S
N182 C187 1.332 . S
C183 C184 1.386 . S
C183 C186 1.388 . S
C184 C183 1.386 . S
C184 C185 1.382 . S
C184 H210 0.950 . S
C185 N182 1.332 . S
C185 C184 1.382 . S
C185 H196 0.952 . S
C186 C183 1.388 . S
C186 C187 1.382 . S
C186 H211 0.950 . S
C187 N182 1.332 . S
C187 C186 1.382 . S
C187 H197 0.948 . S
N188 Co166 2.282 . S
N188 C192 1.332 . S
N188 C193 1.332 . S
C189 C190 1.388 . S
C189 C193 1.382 . S
C189 H212 0.950 . S
C190 C189 1.388 . S
C190 C191 1.386 . S
C191 C190 1.386 . S
C191 C192 1.382 . S
C191 H213 0.950 . S
C192 N188 1.332 . S
C192 C191 1.382 . S
C192 H194 0.952 . S
C193 N188 1.332 . S
C193 C189 1.382 . S
C193 H195 0.948 . S
H194 C192 0.952 . S
H195 C193 0.948 . S
H196 C185 0.952 . S
H197 C187 0.948 . S
C198 C164 1.395 . S
C198 C168 1.391 . S
C199 C161 1.389 . S
C199 C181 1.392 . S
C200 C171 1.392 . S
C200 C173 1.389 . S
C201 C176 1.395 . S
C201 C178 1.391 . S
H202 C162 0.951 . S
H203 C163 0.950 . S
H204 C169 0.949 . S
H205 C170 0.950 . S
H206 C174 0.951 . S
H207 C175 0.950 . S
H208 C179 0.949 . S
H209 C180 0.950 . S
H210 C184 0.950 . S
H211 C186 0.950 . S
H212 C189 0.950 . S
H213 C191 0.950 . S
C214 C215 1.443 . S
C214 N218 1.376 . S
C214 C252 1.389 . S
C215 C214 1.443 . S
C215 C216 1.340 . S
C215 H255 0.951 . S
C216 C215 1.340 . S
C216 C217 1.439 . S
C216 H256 0.950 . S
C217 C216 1.439 . S
C217 N218 1.374 . S
C217 C251 1.395 . S
N218 C214 1.376 . S
N218 C217 1.374 . S
N218 Co219 2.008 . S
Co219 N218 2.008 . S
Co219 N220 1.995 . S
Co219 N225 2.008 . S
Co219 N230 1.995 . S
Co219 N235 2.282 . S
Co219 N241 2.282 . S
N220 Co219 1.995 . S
N220 C221 1.376 . S
N220 C224 1.383 . S
C221 N220 1.376 . S
C221 C222 1.446 . S
C221 C251 1.391 . S
C222 C221 1.446 . S
C222 C223 1.339 . S
C222 H257 0.949 . S
C223 C222 1.339 . S
C223 C224 1.439 . S
C223 H258 0.950 . S
C224 N220 1.383 . S
C224 C223 1.439 . S
C224 C253 1.392 . S
N225 Co219 2.008 . S
N225 C226 1.376 . S
N225 C229 1.374 . S
C226 N225 1.376 . S
C226 C227 1.443 . S
C226 C253 1.389 . S
C227 C226 1.443 . S
C227 C228 1.340 . S
C227 H259 0.951 . S
C228 C227 1.340 . S
C228 C229 1.439 . S
C228 H260 0.950 . S
C229 N225 1.374 . S
C229 C228 1.439 . S
C229 C254 1.395 . S
N230 Co219 1.995 . S
N230 C231 1.376 . S
N230 C234 1.383 . S
C231 N230 1.376 . S
C231 C232 1.446 . S
C231 C254 1.391 . S
C232 C231 1.446 . S
C232 C233 1.339 . S
C232 H261 0.949 . S
C233 C232 1.339 . S
C233 C234 1.439 . S
C233 H262 0.950 . S
C234 N230 1.383 . S
C234 C233 1.439 . S
C234 C252 1.392 . S
N235 Co219 2.282 . S
N235 C238 1.332 . S
N235 C240 1.332 . S
C236 C237 1.386 . S
C236 C239 1.388 . S
C237 C236 1.386 . S
C237 C238 1.382 . S
C237 H263 0.950 . S
C238 N235 1.332 . S
C238 C237 1.382 . S
C238 H249 0.952 . S
C239 C236 1.388 . S
C239 C240 1.382 . S
C239 H264 0.950 . S
C240 N235 1.332 . S
C240 C239 1.382 . S
C240 H250 0.948 . S
N241 Co219 2.282 . S
N241 C245 1.332 . S
N241 C246 1.332 . S
C242 C243 1.388 . S
C242 C246 1.382 . S
C242 H265 0.950 . S
C243 C242 1.388 . S
C243 C244 1.386 . S
C244 C243 1.386 . S
C244 C245 1.382 . S
C244 H266 0.950 . S
C245 N241 1.332 . S
C245 C244 1.382 . S
C245 H247 0.952 . S
C246 N241 1.332 . S
C246 C242 1.382 . S
C246 H248 0.948 . S
H247 C245 0.952 . S
H248 C246 0.948 . S
H249 C238 0.952 . S
H250 C240 0.948 . S
C251 C217 1.395 . S
C251 C221 1.391 . S
C252 C214 1.389 . S
C252 C234 1.392 . S
C253 C224 1.392 . S
C253 C226 1.389 . S
C254 C229 1.395 . S
C254 C231 1.391 . S
H255 C215 0.951 . S
H256 C216 0.950 . S
H257 C222 0.949 . S
H258 C223 0.950 . S
H259 C227 0.951 . S
H260 C228 0.950 . S
H261 C232 0.949 . S
H262 C233 0.950 . S
H263 C237 0.950 . S
H264 C239 0.950 . S
H265 C242 0.950 . S
H266 C244 0.950 . S
C267 C268 1.387 . S
C267 H271 0.950 . S
C267 C276 1.390 . S
C268 C267 1.387 . S
C268 C270 1.387 . S
H269 C276 0.950 . S
C270 C268 1.387 . S
C270 C272 1.390 . S
C270 H274 0.950 . S
H271 C267 0.950 . S
C272 C270 1.390 . S
C272 C273 1.387 . S
C272 H275 0.950 . S
C273 C272 1.387 . S
C273 C276 1.387 . S
H274 C270 0.950 . S
H275 C272 0.950 . S
C276 C267 1.390 . S
C276 H269 0.950 . S
C276 C273 1.387 . S
C277 C278 1.387 . S
C277 H281 0.950 1_545 S
C277 C286 1.390 . S
C278 C277 1.387 . S
C278 C280 1.387 . S
H279 C286 0.950 . S
C280 C278 1.387 . S
C280 C282 1.390 . S
C280 H284 0.950 . S
H281 C277 0.950 1_565 S
C282 C280 1.390 . S
C282 C283 1.387 . S
C282 H285 0.950 . S
C283 C282 1.387 . S
C283 C286 1.387 . S
H284 C280 0.950 . S
H285 C282 0.950 . S
C286 C277 1.390 . S
C286 H279 0.950 . S
C286 C283 1.387 . S
C287 C288 1.387 . S
C287 H291 0.950 . S
C287 C296 1.390 . S
C288 C287 1.387 . S
C288 C290 1.387 . S
H289 C296 0.950 . S
C290 C288 1.387 . S
C290 C292 1.390 . S
C290 H294 0.950 . S
H291 C287 0.950 . S
C292 C290 1.390 . S
C292 C293 1.387 . S
C292 H295 0.950 . S
C293 C292 1.387 . S
C293 C296 1.387 . S
H294 C290 0.950 . S
H295 C292 0.950 . S
C296 C287 1.390 . S
C296 H289 0.950 . S
C296 C293 1.387 . S
C297 C298 1.387 . S
C297 H301 0.950 . S
C297 C306 1.390 . S
C298 C297 1.387 . S
C298 C300 1.387 . S
H299 C306 0.950 1_655 S
C300 C298 1.387 . S
C300 C302 1.390 . S
C300 H304 0.950 . S
H301 C297 0.950 . S
C302 C300 1.390 . S
C302 C303 1.387 . S
C302 H305 0.950 . S
C303 C302 1.387 . S
C303 C306 1.387 . S
H304 C300 0.950 . S
H305 C302 0.950 . S
C306 C297 1.390 . S
C306 H299 0.950 1_455 S
C306 C303 1.387 . S
C307 C308 1.387 . S
C307 H311 0.954 . S
C307 C316 1.390 . S
C308 C307 1.387 . S
C308 C310 1.387 . S
H309 C316 0.950 . S
C310 C308 1.387 . S
C310 C312 1.390 . S
C310 H314 0.950 . S
H311 C307 0.954 . S
C312 C310 1.390 . S
C312 C313 1.387 . S
C312 H315 0.950 . S
C313 C312 1.387 . S
C313 C316 1.387 . S
H314 C310 0.950 . S
H315 C312 0.950 . S
C316 C307 1.390 . S
C316 H309 0.950 . S
C316 C313 1.387 . S
C317 C318 1.387 . S
C317 H321 0.950 . S
C317 C326 1.390 . S
C318 C317 1.387 . S
C318 C320 1.387 . S
H319 C326 0.950 . S
C320 C318 1.387 . S
C320 C322 1.390 . S
C320 H324 0.950 . S
H321 C317 0.950 . S
C322 C320 1.390 . S
C322 C323 1.387 . S
C322 H325 0.950 . S
C323 C322 1.387 . S
C323 C326 1.387 . S
H324 C320 0.950 . S
H325 C322 0.950 . S
C326 C317 1.390 . S
C326 H319 0.950 . S
C326 C323 1.387 . S
C327 C328 1.387 . S
C327 H331 0.950 1_655 S
C327 C336 1.390 . S
C328 C327 1.387 . S
C328 C330 1.387 . S
H329 C336 0.950 . S
C330 C328 1.387 . S
C330 C332 1.390 . S
C330 H334 0.950 1_545 S
H331 C327 0.950 1_455 S
C332 C330 1.390 . S
C332 C333 1.387 . S
C332 H335 0.950 1_545 S
C333 C332 1.387 . S
C333 C336 1.387 . S
H334 C330 0.950 1_565 S
H335 C332 0.950 1_565 S
C336 C327 1.390 . S
C336 H329 0.950 . S
C336 C333 1.387 . S
C337 C338 1.387 . S
C337 H341 0.950 . S
C337 C346 1.390 . S
C338 C337 1.387 . S
C338 C340 1.387 . S
H339 C346 0.950 . S
C340 C338 1.387 . S
C340 C342 1.390 . S
C340 H344 0.950 . S
H341 C337 0.950 . S
C342 C340 1.390 . S
C342 C343 1.387 . S
C342 H345 0.950 . S
C343 C342 1.387 . S
C343 C346 1.387 . S
H344 C340 0.950 . S
H345 C342 0.950 . S
C346 C337 1.390 . S
C346 H339 0.950 . S
C346 C343 1.387 . S
C347 C348 1.387 . S
C347 H351 0.953 . S
C347 C356 1.390 . S
C348 C347 1.387 . S
C348 C350 1.387 . S
H349 C356 0.950 . S
C350 C348 1.387 . S
C350 C352 1.390 . S
C350 H354 0.950 . S
H351 C347 0.953 . S
C352 C350 1.390 . S
C352 C353 1.387 . S
C352 H355 0.950 . S
C353 C352 1.387 . S
C353 C356 1.387 . S
H354 C350 0.950 . S
H355 C352 0.950 . S
C356 C347 1.390 . S
C356 H349 0.950 . S
C356 C353 1.387 . S
C357 C358 1.387 . S
C357 H361 0.950 . S
C357 C366 1.390 . S
C358 C357 1.387 . S
C358 C360 1.387 . S
H359 C366 0.950 . S
C360 C358 1.387 . S
C360 C362 1.390 . S
C360 H364 0.950 1_545 S
H361 C357 0.950 . S
C362 C360 1.390 . S
C362 C363 1.387 . S
C362 H365 0.950 1_545 S
C363 C362 1.387 . S
C363 C366 1.387 . S
H364 C360 0.950 1_565 S
H365 C362 0.950 1_565 S
C366 C357 1.390 . S
C366 H359 0.950 . S
C366 C363 1.387 . S
C367 C368 1.387 . S
C367 H371 0.950 1_556 S
C367 C376 1.390 . S
C368 C367 1.387 . S
C368 C370 1.387 . S
H369 C376 0.950 . S
C370 C368 1.387 . S
C370 C372 1.390 . S
C370 H374 0.950 . S
H371 C367 0.950 1_554 S
C372 C370 1.390 . S
C372 C373 1.387 . S
C372 H375 0.950 . S
C373 C372 1.387 . S
C373 C376 1.387 . S
H374 C370 0.950 . S
H375 C372 0.950 . S
C376 C367 1.390 . S
C376 H369 0.950 . S
C376 C373 1.387 . S
C377 C378 1.387 . S
C377 H381 0.950 . S
C377 C386 1.390 . S
C378 C377 1.387 . S
C378 C380 1.387 . S
H379 C386 0.950 . S
C380 C378 1.387 . S
C380 C382 1.390 . S
C380 H384 0.950 . S
H381 C377 0.950 . S
C382 C380 1.390 . S
C382 C383 1.387 . S
C382 H385 0.950 . S
C383 C382 1.387 . S
C383 C386 1.387 . S
H384 C380 0.950 . S
H385 C382 0.950 . S
C386 C377 1.390 . S
C386 H379 0.950 . S
C386 C383 1.387 . S
C273 C130 1.491 . S
C268 C14 1.450 . S
C278 C40 1.501 . S
C283 C200 1.523 . S
C288 C76 1.473 . S
C293 C252 1.489 . S
C298 C3 1.482 . S
C303 C146 1.479 . S
C313 C190 1.510 . S
C308 C38 1.500 . S
C318 C74 1.465 . S
C323 C236 1.482 . S
C333 C183 1.473 . S
C328 C86 1.431 . S
C338 C2 1.466 1_656 S
C343 C243 1.483 . S
C353 C137 1.470 . S
C348 C39 1.471 . S
C363 C199 1.488 . S
C358 C75 1.495 . S
C373 C253 1.493 . S
C368 C4 1.474 . S
C378 C50 1.447 . S
C383 C147 1.493 . S
