# Generated by pormake.
# Topology eea, (3,6)-cn, num edge types: 1
# Building blocks:
#     Node 0, Type 0, BuildingBlock: WUSLED_clean_sbu_0, # of connection points: 3
#     Node 1, Type 0, BuildingBlock: WUSLED_clean_sbu_0, # of connection points: 3
#     Node 2, Type 0, BuildingBlock: WUSLED_clean_sbu_0, # of connection points: 3
#     Node 3, Type 0, BuildingBlock: WUSLED_clean_sbu_0, # of connection points: 3
#     Node 4, Type 0, BuildingBlock: WUSLED_clean_sbu_0, # of connection points: 3
#     Node 5, Type 0, BuildingBlock: WUSLED_clean_sbu_0, # of connection points: 3
#     Node 6, Type 0, BuildingBlock: WUSLED_clean_sbu_0, # of connection points: 3
#     Node 7, Type 0, BuildingBlock: WUSLED_clean_sbu_0, # of connection points: 3
#     Node 8, Type 0, BuildingBlock: WUSLED_clean_sbu_0, # of connection points: 3
#     Node 9, Type 0, BuildingBlock: WUSLED_clean_sbu_0, # of connection points: 3
#     Node 10, Type 0, BuildingBlock: WUSLED_clean_sbu_0, # of connection points: 3
#     Node 11, Type 0, BuildingBlock: WUSLED_clean_sbu_0, # of connection points: 3
#     Node 12, Type 0, BuildingBlock: WUSLED_clean_sbu_0, # of connection points: 3
#     Node 13, Type 0, BuildingBlock: WUSLED_clean_sbu_0, # of connection points: 3
#     Node 14, Type 0, BuildingBlock: WUSLED_clean_sbu_0, # of connection points: 3
#     Node 15, Type 0, BuildingBlock: WUSLED_clean_sbu_0, # of connection points: 3
#     Node 16, Type 0, BuildingBlock: WUSLED_clean_sbu_0, # of connection points: 3
#     Node 17, Type 0, BuildingBlock: WUSLED_clean_sbu_0, # of connection points: 3
#     Node 18, Type 1, BuildingBlock: CIFDUS_clean_sbu_1, # of connection points: 6
#     Node 19, Type 1, BuildingBlock: CIFDUS_clean_sbu_1, # of connection points: 6
#     Node 20, Type 1, BuildingBlock: CIFDUS_clean_sbu_1, # of connection points: 6
#     Node 21, Type 1, BuildingBlock: CIFDUS_clean_sbu_1, # of connection points: 6
#     Node 22, Type 1, BuildingBlock: CIFDUS_clean_sbu_1, # of connection points: 6
#     Node 23, Type 1, BuildingBlock: CIFDUS_clean_sbu_1, # of connection points: 6
#     Node 24, Type 1, BuildingBlock: CIFDUS_clean_sbu_1, # of connection points: 6
#     Node 25, Type 1, BuildingBlock: CIFDUS_clean_sbu_1, # of connection points: 6
#     Node 26, Type 1, BuildingBlock: CIFDUS_clean_sbu_1, # of connection points: 6
#     Edge 27, Type (0, 1), BuildingBlock: TEMPAE_clean_linker_10, # of connection points: 2
#     Edge 28, Type (0, 1), BuildingBlock: TEMPAE_clean_linker_10, # of connection points: 2
#     Edge 29, Type (0, 1), BuildingBlock: TEMPAE_clean_linker_10, # of connection points: 2
#     Edge 30, Type (0, 1), BuildingBlock: TEMPAE_clean_linker_10, # of connection points: 2
#     Edge 31, Type (0, 1), BuildingBlock: TEMPAE_clean_linker_10, # of connection points: 2
#     Edge 32, Type (0, 1), BuildingBlock: TEMPAE_clean_linker_10, # of connection points: 2
#     Edge 33, Type (0, 1), BuildingBlock: TEMPAE_clean_linker_10, # of connection points: 2
#     Edge 34, Type (0, 1), BuildingBlock: TEMPAE_clean_linker_10, # of connection points: 2
#     Edge 35, Type (0, 1), BuildingBlock: TEMPAE_clean_linker_10, # of connection points: 2
#     Edge 36, Type (0, 1), BuildingBlock: TEMPAE_clean_linker_10, # of connection points: 2
#     Edge 37, Type (0, 1), BuildingBlock: TEMPAE_clean_linker_10, # of connection points: 2
#     Edge 38, Type (0, 1), BuildingBlock: TEMPAE_clean_linker_10, # of connection points: 2
#     Edge 39, Type (0, 1), BuildingBlock: TEMPAE_clean_linker_10, # of connection points: 2
#     Edge 40, Type (0, 1), BuildingBlock: TEMPAE_clean_linker_10, # of connection points: 2
#     Edge 41, Type (0, 1), BuildingBlock: TEMPAE_clean_linker_10, # of connection points: 2
#     Edge 42, Type (0, 1), BuildingBlock: TEMPAE_clean_linker_10, # of connection points: 2
#     Edge 43, Type (0, 1), BuildingBlock: TEMPAE_clean_linker_10, # of connection points: 2
#     Edge 44, Type (0, 1), BuildingBlock: TEMPAE_clean_linker_10, # of connection points: 2
#     Edge 45, Type (0, 1), BuildingBlock: TEMPAE_clean_linker_10, # of connection points: 2
#     Edge 46, Type (0, 1), BuildingBlock: TEMPAE_clean_linker_10, # of connection points: 2
#     Edge 47, Type (0, 1), BuildingBlock: TEMPAE_clean_linker_10, # of connection points: 2
#     Edge 48, Type (0, 1), BuildingBlock: TEMPAE_clean_linker_10, # of connection points: 2
#     Edge 49, Type (0, 1), BuildingBlock: TEMPAE_clean_linker_10, # of connection points: 2
#     Edge 50, Type (0, 1), BuildingBlock: TEMPAE_clean_linker_10, # of connection points: 2
#     Edge 51, Type (0, 1), BuildingBlock: TEMPAE_clean_linker_10, # of connection points: 2
#     Edge 52, Type (0, 1), BuildingBlock: TEMPAE_clean_linker_10, # of connection points: 2
#     Edge 53, Type (0, 1), BuildingBlock: TEMPAE_clean_linker_10, # of connection points: 2
#     Edge 54, Type (0, 1), BuildingBlock: TEMPAE_clean_linker_10, # of connection points: 2
#     Edge 55, Type (0, 1), BuildingBlock: TEMPAE_clean_linker_10, # of connection points: 2
#     Edge 56, Type (0, 1), BuildingBlock: TEMPAE_clean_linker_10, # of connection points: 2
#     Edge 57, Type (0, 1), BuildingBlock: TEMPAE_clean_linker_10, # of connection points: 2
#     Edge 58, Type (0, 1), BuildingBlock: TEMPAE_clean_linker_10, # of connection points: 2
#     Edge 59, Type (0, 1), BuildingBlock: TEMPAE_clean_linker_10, # of connection points: 2
#     Edge 60, Type (0, 1), BuildingBlock: TEMPAE_clean_linker_10, # of connection points: 2
#     Edge 61, Type (0, 1), BuildingBlock: TEMPAE_clean_linker_10, # of connection points: 2
#     Edge 62, Type (0, 1), BuildingBlock: TEMPAE_clean_linker_10, # of connection points: 2
#     Edge 63, Type (0, 1), BuildingBlock: TEMPAE_clean_linker_10, # of connection points: 2
#     Edge 64, Type (0, 1), BuildingBlock: TEMPAE_clean_linker_10, # of connection points: 2
#     Edge 65, Type (0, 1), BuildingBlock: TEMPAE_clean_linker_10, # of connection points: 2
#     Edge 66, Type (0, 1), BuildingBlock: TEMPAE_clean_linker_10, # of connection points: 2
#     Edge 67, Type (0, 1), BuildingBlock: TEMPAE_clean_linker_10, # of connection points: 2
#     Edge 68, Type (0, 1), BuildingBlock: TEMPAE_clean_linker_10, # of connection points: 2
#     Edge 69, Type (0, 1), BuildingBlock: TEMPAE_clean_linker_10, # of connection points: 2
#     Edge 70, Type (0, 1), BuildingBlock: TEMPAE_clean_linker_10, # of connection points: 2
#     Edge 71, Type (0, 1), BuildingBlock: TEMPAE_clean_linker_10, # of connection points: 2
#     Edge 72, Type (0, 1), BuildingBlock: TEMPAE_clean_linker_10, # of connection points: 2
#     Edge 73, Type (0, 1), BuildingBlock: TEMPAE_clean_linker_10, # of connection points: 2
#     Edge 74, Type (0, 1), BuildingBlock: TEMPAE_clean_linker_10, # of connection points: 2
#     Edge 75, Type (0, 1), BuildingBlock: TEMPAE_clean_linker_10, # of connection points: 2
#     Edge 76, Type (0, 1), BuildingBlock: TEMPAE_clean_linker_10, # of connection points: 2
#     Edge 77, Type (0, 1), BuildingBlock: TEMPAE_clean_linker_10, # of connection points: 2
#     Edge 78, Type (0, 1), BuildingBlock: TEMPAE_clean_linker_10, # of connection points: 2
#     Edge 79, Type (0, 1), BuildingBlock: TEMPAE_clean_linker_10, # of connection points: 2
#     Edge 80, Type (0, 1), BuildingBlock: TEMPAE_clean_linker_10, # of connection points: 2
# Relax obj value: 0.097
# Max RMSD: 0.179
# Mean RMSD: 0.090
data_MOF--net-eea--node1-WUSLED_clean_sbu_0--node2-CIFDUS_clean_sbu_1--edge1-TEMPAE_clean_linker_10
_symmetry_space_group_name_H-M    P1
_symmetry_Int_Tables_number       1
_symmetry_cell_setting            triclinic
loop_
_symmetry_equiv_pos_as_xyz
'x, y, z'
_cell_length_a     71.819094
_cell_length_b     71.599999
_cell_length_c     71.19193
_cell_angle_alpha  89.806431
_cell_angle_beta   90.152097
_cell_angle_gamma 119.9258
loop_
_atom_site_label
_atom_site_type_symbol
_atom_site_fract_x
_atom_site_fract_y
_atom_site_fract_z
_atom_type_partial_charge
C0 C 0.24624 0.16666 0.38241 0.0
C1 C 0.24644 0.1789 0.39786 0.0
C2 C 0.23674 0.20017 0.37754 0.0
C3 C 0.24167 0.19546 0.39545 0.0
C4 C 0.23751 0.18848 0.36199 0.0
C5 C 0.24216 0.17182 0.36443 0.0
U6 U 0.26281 0.13399 0.41306 0.0
O7 O 0.24575 0.09944 0.41987 0.0
O8 O 0.2775 0.11413 0.4064 0.0
C9 C 0.26104 0.09645 0.41306 0.0
C10 C 0.24882 0.14767 0.38512 0.0
C11 C 0.25409 0.07622 0.40279 0.0
C12 C 0.2398 0.05295 0.37543 0.0
C13 C 0.24674 0.07298 0.38413 0.0
C14 C 0.24752 0.03956 0.40398 0.0
C15 C 0.24016 0.03601 0.38531 0.0
C16 C 0.25442 0.05941 0.41255 0.0
C17 C 0.28554 0.15594 0.46193 0.0
C18 C 0.28439 0.13441 0.48888 0.0
C19 C 0.30664 0.1733 0.48981 0.0
C20 C 0.30005 0.17465 0.4716 0.0
C21 C 0.29864 0.15319 0.49871 0.0
C22 C 0.27801 0.13575 0.47056 0.0
C23 C 0.27769 0.15789 0.4433 0.0
O24 O 0.2687 0.15145 0.38615 0.0
O25 O 0.23616 0.134 0.39793 0.0
O26 O 0.25714 0.1448 0.44015 0.0
O27 O 0.2899 0.15963 0.42893 0.0
H28 H 0.24971 0.17526 0.41185 0.0
H29 H 0.24151 0.20438 0.40765 0.0
H30 H 0.23367 0.19162 0.34803 0.0
H31 H 0.24195 0.16255 0.35235 0.0
H32 H 0.23435 0.05078 0.36099 0.0
H33 H 0.24633 0.08582 0.37638 0.0
H34 H 0.24765 0.02684 0.41215 0.0
H35 H 0.25988 0.06157 0.427 0.0
H36 H 0.27814 0.11872 0.49541 0.0
H37 H 0.31749 0.18802 0.49716 0.0
H38 H 0.30598 0.19036 0.46519 0.0
H39 H 0.26691 0.12108 0.46328 0.0
C40 C 0.92842 0.16706 0.37447 0.0
C41 C 0.93853 0.1859 0.38531 0.0
C42 C 0.97106 0.19943 0.36627 0.0
C43 C 0.95964 0.20199 0.3812 0.0
C44 C 0.96058 0.18062 0.35531 0.0
C45 C 0.93951 0.16468 0.35936 0.0
U46 U 0.8791 0.1361 0.40687 0.0
O47 O 0.8448 0.11631 0.39918 0.0
O48 O 0.86152 0.10153 0.41329 0.0
C49 C 0.8436 0.09847 0.40553 0.0
C50 C 0.90684 0.14911 0.37904 0.0
C51 C 0.83185 0.07881 0.39408 0.0
C52 C 0.83115 0.05222 0.37235 0.0
C53 C 0.84207 0.07284 0.38047 0.0
C54 C 0.79955 0.04389 0.39068 0.0
C55 C 0.80998 0.03746 0.3778 0.0
C56 C 0.81038 0.06439 0.39871 0.0
C57 C 0.87797 0.15792 0.45606 0.0
C58 C 0.85422 0.13666 0.48157 0.0
C59 C 0.87946 0.17462 0.48611 0.0
C60 C 0.88665 0.17613 0.46763 0.0
C61 C 0.86346 0.15478 0.49349 0.0
C62 C 0.86143 0.13822 0.46302 0.0
C63 C 0.88754 0.15962 0.43737 0.0
O64 O 0.90617 0.13617 0.39247 0.0
O65 O 0.89122 0.15362 0.3801 0.0
O66 O 0.87716 0.16145 0.42288 0.0
O67 O 0.89486 0.14635 0.43436 0.0
H68 H 0.93022 0.18803 0.39707 0.0
H69 H 0.96703 0.21638 0.38976 0.0
H70 H 0.96885 0.17785 0.34391 0.0
H71 H 0.932 0.15019 0.3509 0.0
H72 H 0.83946 0.04749 0.36245 0.0
H73 H 0.85868 0.08373 0.37674 0.0
H74 H 0.78327 0.03269 0.39512 0.0
H75 H 0.80227 0.06862 0.40925 0.0
H76 H 0.84193 0.12112 0.48676 0.0
H77 H 0.8866 0.18902 0.49467 0.0
H78 H 0.89938 0.19149 0.4625 0.0
H79 H 0.85452 0.12395 0.45428 0.0
C80 C 0.848 0.76561 0.37583 0.0
C81 C 0.82794 0.75476 0.38485 0.0
C82 C 0.81584 0.77641 0.36752 0.0
C83 C 0.81198 0.76005 0.38067 0.0
C84 C 0.83596 0.787 0.35851 0.0
C85 C 0.85175 0.7816 0.36258 0.0
U86 U 0.87756 0.74512 0.40799 0.0
O87 O 0.89726 0.73047 0.40054 0.0
O88 O 0.91185 0.76142 0.41543 0.0
C89 C 0.91491 0.74658 0.40761 0.0
C90 C 0.86569 0.76143 0.38038 0.0
C91 C 0.93502 0.75439 0.39688 0.0
C92 C 0.95721 0.7693 0.36893 0.0
C93 C 0.93738 0.76153 0.37817 0.0
C94 C 0.97227 0.7629 0.39704 0.0
C95 C 0.97494 0.77008 0.37829 0.0
C96 C 0.95257 0.75511 0.40614 0.0
C97 C 0.85093 0.72026 0.45635 0.0
C98 C 0.86405 0.70693 0.48171 0.0
C99 C 0.83323 0.71151 0.48671 0.0
C100 C 0.83472 0.71865 0.46824 0.0
C101 C 0.84786 0.70558 0.49379 0.0
C102 C 0.86561 0.71428 0.46311 0.0
C103 C 0.85229 0.72922 0.4374 0.0
O104 O 0.87838 0.77302 0.39413 0.0
O105 O 0.86108 0.74119 0.38086 0.0
O106 O 0.85145 0.71741 0.42296 0.0
O107 O 0.86632 0.74977 0.43531 0.0
H108 H 0.82471 0.74237 0.3952 0.0
H109 H 0.79663 0.75129 0.38773 0.0
H110 H 0.83983 0.79993 0.34861 0.0
H111 H 0.86715 0.79027 0.35556 0.0
H112 H 0.95859 0.77454 0.35447 0.0
H113 H 0.924 0.76117 0.37078 0.0
H114 H 0.98554 0.76366 0.40492 0.0
H115 H 0.95113 0.74982 0.42061 0.0
H116 H 0.87548 0.70232 0.48659 0.0
H117 H 0.82085 0.7112 0.49557 0.0
H118 H 0.82335 0.72335 0.46332 0.0
H119 H 0.87831 0.71547 0.45412 0.0
C120 C 0.08776 0.24946 0.64196 0.0
C121 C 0.07734 0.2582 0.63141 0.0
C122 C 0.04451 0.23717 0.64969 0.0
C123 C 0.05588 0.25219 0.63534 0.0
C124 C 0.0553 0.22904 0.66048 0.0
C125 C 0.07667 0.23516 0.65667 0.0
U126 U 0.13779 0.26833 0.60996 0.0
O127 O 0.17203 0.28324 0.61811 0.0
O128 O 0.15573 0.25147 0.60462 0.0
C129 C 0.17342 0.26648 0.61255 0.0
C130 C 0.1096 0.2537 0.6375 0.0
C131 C 0.18491 0.25889 0.62493 0.0
C132 C 0.18529 0.23193 0.64573 0.0
C133 C 0.17398 0.24064 0.63654 0.0
C134 C 0.21863 0.26032 0.63275 0.0
C135 C 0.20769 0.24153 0.64366 0.0
C136 C 0.20734 0.26883 0.62342 0.0
C137 C 0.13774 0.29074 0.56004 0.0
C138 C 0.1655 0.30223 0.53608 0.0
C139 C 0.13109 0.2988 0.52835 0.0
C140 C 0.12422 0.2925 0.54681 0.0
C141 C 0.15179 0.30368 0.52262 0.0
C142 C 0.15851 0.29575 0.55462 0.0
C143 C 0.12914 0.28278 0.57901 0.0
O144 O 0.11068 0.24135 0.62445 0.0
O145 O 0.12496 0.27394 0.63618 0.0
O146 O 0.13963 0.29524 0.5933 0.0
O147 O 0.12243 0.26231 0.58218 0.0
H148 H 0.08559 0.26921 0.61993 0.0
H149 H 0.04794 0.25865 0.62673 0.0
H150 H 0.04709 0.21768 0.67176 0.0
H151 H 0.08442 0.22828 0.665 0.0
H152 H 0.17653 0.21745 0.65411 0.0
H153 H 0.15668 0.23268 0.63795 0.0
H154 H 0.23584 0.26785 0.63072 0.0
H155 H 0.21607 0.28275 0.61439 0.0
H156 H 0.18165 0.30612 0.53233 0.0
H157 H 0.11986 0.29926 0.51845 0.0
H158 H 0.10809 0.28859 0.55069 0.0
H159 H 0.1692 0.29447 0.56464 0.0
C160 C 0.76449 0.84167 0.63919 0.0
C161 C 0.75272 0.82136 0.63068 0.0
C162 C 0.77665 0.81004 0.64468 0.0
C163 C 0.7587 0.80565 0.63347 0.0
C164 C 0.7882 0.83041 0.65323 0.0
C165 C 0.78215 0.84598 0.65053 0.0
U166 U 0.74171 0.87091 0.60965 0.0
O167 O 0.72654 0.88965 0.61902 0.0
O168 O 0.75661 0.90528 0.60293 0.0
C169 C 0.74226 0.90781 0.61226 0.0
C170 C 0.75945 0.85903 0.63593 0.0
C171 C 0.75093 0.92706 0.62438 0.0
C172 C 0.7805 0.95514 0.64231 0.0
C173 C 0.77046 0.93465 0.63408 0.0
C174 C 0.75087 0.96 0.63253 0.0
C175 C 0.77114 0.96832 0.64109 0.0
C176 C 0.74092 0.9396 0.6242 0.0
C177 C 0.71684 0.84851 0.56105 0.0
C178 C 0.71732 0.86909 0.5336 0.0
C179 C 0.69625 0.83012 0.5332 0.0
C180 C 0.70276 0.82944 0.55161 0.0
C181 C 0.70387 0.84993 0.52375 0.0
C182 C 0.72368 0.86838 0.55208 0.0
C183 C 0.72577 0.84719 0.57939 0.0
O184 O 0.77039 0.87251 0.62237 0.0
O185 O 0.73904 0.85362 0.63609 0.0
O186 O 0.71413 0.84493 0.59437 0.0
O187 O 0.74632 0.86091 0.58181 0.0
H188 H 0.73905 0.81771 0.6218 0.0
H189 H 0.74924 0.79006 0.62688 0.0
H190 H 0.80228 0.83456 0.66169 0.0
H191 H 0.79152 0.86161 0.6571 0.0
H192 H 0.79596 0.961 0.64907 0.0
H193 H 0.77842 0.92519 0.63451 0.0
H194 H 0.74329 0.96977 0.63127 0.0
H195 H 0.7259 0.93408 0.61674 0.0
H196 H 0.72365 0.88463 0.52681 0.0
H197 H 0.68549 0.81506 0.52629 0.0
H198 H 0.69725 0.81395 0.55831 0.0
H199 H 0.73455 0.88333 0.55911 0.0
C200 C 0.08829 0.84315 0.6373 0.0
C201 C 0.07658 0.82501 0.62582 0.0
C202 C 0.04531 0.81259 0.64628 0.0
C203 C 0.05525 0.80976 0.63035 0.0
C204 C 0.05733 0.83057 0.65783 0.0
C205 C 0.07857 0.84564 0.65339 0.0
U206 U 0.13802 0.87283 0.60482 0.0
O207 O 0.15709 0.90738 0.59884 0.0
O208 O 0.17238 0.89115 0.61293 0.0
C209 C 0.17447 0.90952 0.60701 0.0
C210 C 0.11023 0.86031 0.63259 0.0
C211 C 0.18638 0.92875 0.61906 0.0
C212 C 0.18827 0.95977 0.63484 0.0
C213 C 0.17612 0.939 0.62738 0.0
C214 C 0.22104 0.95955 0.62741 0.0
C215 C 0.21083 0.97046 0.63437 0.0
C216 C 0.2089 0.9389 0.61973 0.0
C217 C 0.13811 0.85197 0.55504 0.0
C218 C 0.16573 0.87177 0.53156 0.0
C219 C 0.13371 0.83845 0.52315 0.0
C220 C 0.12615 0.83632 0.54154 0.0
C221 C 0.15341 0.85637 0.51781 0.0
C222 C 0.15808 0.86964 0.55003 0.0
C223 C 0.12866 0.85009 0.57378 0.0
O224 O 0.12507 0.85472 0.63121 0.0
O225 O 0.11162 0.87384 0.61943 0.0
O226 O 0.12222 0.86398 0.57725 0.0
O227 O 0.13865 0.84728 0.58807 0.0
H228 H 0.08379 0.82286 0.61327 0.0
H229 H 0.04635 0.7961 0.62114 0.0
H230 H 0.05025 0.83305 0.67032 0.0
H231 H 0.08736 0.8595 0.66243 0.0
H232 H 0.18009 0.96788 0.64025 0.0
H233 H 0.15877 0.93151 0.62715 0.0
H234 H 0.23842 0.96753 0.62684 0.0
H235 H 0.21717 0.93136 0.61331 0.0
H236 H 0.18094 0.88578 0.52791 0.0
H237 H 0.12401 0.82607 0.51306 0.0
H238 H 0.11071 0.82258 0.54514 0.0
H239 H 0.16751 0.88195 0.56028 0.0
C240 C 0.90928 0.49968 0.71511 0.0
C241 C 0.90546 0.50997 0.73016 0.0
C242 C 0.8968 0.53082 0.70831 0.0
C243 C 0.89918 0.5253 0.72678 0.0
C244 C 0.90188 0.52144 0.69328 0.0
C245 C 0.90796 0.50592 0.69667 0.0
U246 U 0.92826 0.46816 0.74561 0.0
O247 O 0.94183 0.44752 0.73801 0.0
O248 O 0.91124 0.43389 0.75336 0.0
C249 C 0.92578 0.4303 0.74571 0.0
C250 C 0.91261 0.48116 0.71838 0.0
C251 C 0.91778 0.4094 0.73629 0.0
C252 C 0.90475 0.38549 0.70924 0.0
C253 C 0.91228 0.40602 0.71716 0.0
C254 C 0.90807 0.37187 0.73951 0.0
C255 C 0.90269 0.3682 0.72036 0.0
C256 C 0.91555 0.39219 0.74731 0.0
C257 C 0.95379 0.49039 0.79355 0.0
C258 C 0.95727 0.46847 0.81801 0.0
C259 C 0.97193 0.50676 0.82283 0.0
C260 C 0.96489 0.50858 0.80495 0.0
C261 C 0.96805 0.48666 0.82969 0.0
C262 C 0.95023 0.47033 0.80007 0.0
C263 C 0.94515 0.4925 0.77537 0.0
O264 O 0.9326 0.4852 0.71858 0.0
O265 O 0.90082 0.46792 0.73181 0.0
O266 O 0.9244 0.47968 0.77307 0.0
O267 O 0.95643 0.49378 0.76042 0.0
H268 H 0.90659 0.50559 0.74453 0.0
H269 H 0.89571 0.53252 0.73864 0.0
H270 H 0.90017 0.52535 0.6789 0.0
H271 H 0.91087 0.49821 0.68486 0.0
H272 H 0.90087 0.38324 0.69441 0.0
H273 H 0.91385 0.41914 0.70842 0.0
H274 H 0.90631 0.35893 0.7486 0.0
H275 H 0.9196 0.39447 0.76212 0.0
H276 H 0.95421 0.4528 0.82275 0.0
H277 H 0.97985 0.52105 0.8315 0.0
H278 H 0.96771 0.52417 0.80018 0.0
H279 H 0.94172 0.45608 0.79142 0.0
C280 C 0.59565 0.50133 0.7079 0.0
C281 C 0.60846 0.51544 0.72214 0.0
C282 C 0.63898 0.53251 0.70063 0.0
C283 C 0.62992 0.53091 0.71853 0.0
C284 C 0.62575 0.51886 0.68626 0.0
C285 C 0.60433 0.50342 0.68989 0.0
U286 U 0.54552 0.47014 0.73916 0.0
O287 O 0.51135 0.45042 0.73101 0.0
O288 O 0.52775 0.43559 0.7456 0.0
C289 C 0.50995 0.43259 0.73763 0.0
C290 C 0.5739 0.48325 0.71183 0.0
C291 C 0.49802 0.41274 0.72647 0.0
C292 C 0.49693 0.38553 0.70529 0.0
C293 C 0.50806 0.40633 0.71305 0.0
C294 C 0.46552 0.37788 0.72362 0.0
C295 C 0.47576 0.37102 0.71093 0.0
C296 C 0.47654 0.39857 0.73126 0.0
C297 C 0.54337 0.492 0.78808 0.0
C298 C 0.52074 0.47073 0.81417 0.0
C299 C 0.54302 0.50942 0.81722 0.0
C300 C 0.55042 0.51067 0.79886 0.0
C301 C 0.52845 0.48939 0.82532 0.0
C302 C 0.52814 0.47203 0.79572 0.0
C303 C 0.55333 0.49366 0.76959 0.0
O304 O 0.57276 0.47012 0.72528 0.0
O305 O 0.55826 0.48776 0.71246 0.0
O306 O 0.54331 0.49554 0.75485 0.0
O307 O 0.56072 0.4804 0.76686 0.0
H308 H 0.60204 0.51414 0.73614 0.0
H309 H 0.63951 0.54145 0.72983 0.0
H310 H 0.63216 0.51952 0.67237 0.0
H311 H 0.59469 0.49264 0.67873 0.0
H312 H 0.5051 0.38046 0.69555 0.0
H313 H 0.52468 0.41701 0.70921 0.0
H314 H 0.44925 0.36689 0.72821 0.0
H315 H 0.46857 0.40314 0.74167 0.0
H316 H 0.50959 0.45503 0.8199 0.0
H317 H 0.54892 0.52419 0.82515 0.0
H318 H 0.5621 0.52625 0.7932 0.0
H319 H 0.52244 0.4574 0.78761 0.0
C320 C 0.51285 0.09629 0.70804 0.0
C321 C 0.49855 0.09491 0.7221 0.0
C322 C 0.48178 0.10863 0.70031 0.0
C323 C 0.48313 0.10097 0.71826 0.0
C324 C 0.49577 0.10931 0.68617 0.0
C325 C 0.51111 0.1032 0.69002 0.0
U326 U 0.5435 0.07719 0.74006 0.0
O327 O 0.5629 0.06211 0.73271 0.0
O328 O 0.57795 0.09373 0.74651 0.0
C329 C 0.58084 0.07878 0.73867 0.0
C330 C 0.53074 0.09232 0.71216 0.0
C331 C 0.60005 0.08645 0.72666 0.0
C332 C 0.62848 0.11418 0.70739 0.0
C333 C 0.60835 0.10562 0.71614 0.0
C334 C 0.63164 0.08397 0.71874 0.0
C335 C 0.64065 0.10377 0.70908 0.0
C336 C 0.61161 0.07547 0.72745 0.0
C337 C 0.51852 0.05477 0.78958 0.0
C338 C 0.52559 0.03469 0.81356 0.0
C339 C 0.50607 0.05303 0.82155 0.0
C340 C 0.50791 0.0602 0.80307 0.0
C341 C 0.51469 0.04003 0.82709 0.0
C342 C 0.52749 0.04199 0.7949 0.0
C343 C 0.51937 0.06268 0.77024 0.0
O344 O 0.54397 0.10445 0.72542 0.0
O345 O 0.52602 0.07209 0.71326 0.0
O346 O 0.51804 0.05018 0.75619 0.0
O347 O 0.53317 0.08315 0.76732 0.0
H348 H 0.4996 0.08957 0.73613 0.0
H349 H 0.47236 0.09979 0.72941 0.0
H350 H 0.49538 0.11525 0.67225 0.0
H351 H 0.52207 0.10447 0.67901 0.0
H352 H 0.63492 0.12944 0.70006 0.0
H353 H 0.59968 0.11438 0.71528 0.0
H354 H 0.64031 0.07525 0.71996 0.0
H355 H 0.6055 0.06065 0.73543 0.0
H356 H 0.53237 0.02464 0.81732 0.0
H357 H 0.49803 0.05794 0.83158 0.0
H358 H 0.50095 0.0701 0.79928 0.0
H359 H 0.5358 0.03761 0.7847 0.0
C360 C 0.75491 0.58564 0.97338 0.0
C361 C 0.74077 0.58315 0.95869 0.0
C362 C 0.71234 0.57589 0.98129 0.0
C363 C 0.71969 0.57827 0.9626 0.0
C364 C 0.72691 0.57925 0.99593 0.0
C365 C 0.74792 0.58402 0.99199 0.0
U366 U 0.80492 0.60192 0.94253 0.0
O367 O 0.83902 0.61611 0.95081 0.0
O368 O 0.82209 0.58418 0.93762 0.0
C369 C 0.83993 0.599 0.94552 0.0
C370 C 0.77634 0.58828 0.96972 0.0
C371 C 0.85114 0.59129 0.9581 0.0
C372 C 0.85131 0.56412 0.97878 0.0
C373 C 0.84003 0.57263 0.96922 0.0
C374 C 0.88488 0.59339 0.96706 0.0
C375 C 0.87385 0.57427 0.97757 0.0
C376 C 0.87364 0.60174 0.9574 0.0
C377 C 0.80639 0.6256 0.89283 0.0
C378 C 0.83212 0.63257 0.8678 0.0
C379 C 0.80245 0.63896 0.86249 0.0
C380 C 0.7954 0.63241 0.88088 0.0
C381 C 0.82082 0.639 0.85557 0.0
C382 C 0.82492 0.62587 0.88625 0.0
C383 C 0.79733 0.61732 0.91161 0.0
O384 O 0.77705 0.57561 0.95677 0.0
O385 O 0.79255 0.60813 0.96877 0.0
O386 O 0.80774 0.62941 0.92609 0.0
O387 O 0.79019 0.59672 0.91452 0.0
H388 H 0.74582 0.58434 0.9442 0.0
H389 H 0.70895 0.57562 0.95094 0.0
H390 H 0.72204 0.578 0.01047 0.0
H391 H 0.75861 0.58596 1.00353 0.0
H392 H 0.84241 0.54942 0.98685 0.0
H393 H 0.82266 0.56427 0.97001 0.0
H394 H 0.90219 0.60141 0.96563 0.0
H395 H 0.88253 0.61599 0.94877 0.0
H396 H 0.84651 0.63268 0.86314 0.0
H397 H 0.79304 0.64338 0.85354 0.0
H398 H 0.781 0.63222 0.88568 0.0
H399 H 0.83365 0.62066 0.89528 0.0
C400 C 0.42761 0.17238 0.97457 0.0
C401 C 0.41987 0.15457 0.96247 0.0
C402 C 0.44037 0.14122 0.9796 0.0
C403 C 0.42609 0.139 0.96506 0.0
C404 C 0.44748 0.15874 0.99198 0.0
C405 C 0.44113 0.17412 0.9895 0.0
U406 U 0.40739 0.20288 0.94388 0.0
O407 O 0.39267 0.22244 0.95194 0.0
O408 O 0.42356 0.23732 0.93705 0.0
C409 C 0.40878 0.24026 0.94509 0.0
C410 C 0.4234 0.19025 0.9711 0.0
C411 C 0.41676 0.2602 0.95613 0.0
C412 C 0.44201 0.28667 0.97827 0.0
C413 C 0.43216 0.26587 0.97047 0.0
C414 C 0.42059 0.29582 0.95799 0.0
C415 C 0.43666 0.30193 0.97166 0.0
C416 C 0.41067 0.27513 0.95036 0.0
C417 C 0.38379 0.18034 0.89498 0.0
C418 C 0.38075 0.20117 0.86927 0.0
C419 C 0.3689 0.16332 0.86497 0.0
C420 C 0.37463 0.16205 0.8835 0.0
C421 C 0.37234 0.18301 0.85743 0.0
C422 C 0.38646 0.19985 0.88789 0.0
C423 C 0.39204 0.179 0.91361 0.0
O424 O 0.43511 0.20366 0.95776 0.0
O425 O 0.40316 0.1854 0.97055 0.0
O426 O 0.38006 0.17721 0.9282 0.0
O427 O 0.41257 0.19252 0.91637 0.0
H428 H 0.4095 0.15302 0.95078 0.0
H429 H 0.42037 0.12567 0.9553 0.0
H430 H 0.45819 0.16068 1.0035 0.0
H431 H 0.44725 0.18774 0.99898 0.0
H432 H 0.45447 0.29115 0.98877 0.0
H433 H 0.43716 0.2546 0.97504 0.0
H434 H 0.41629 0.30738 0.95268 0.0
H435 H 0.39894 0.27111 0.93925 0.0
H436 H 0.38367 0.21659 0.86396 0.0
H437 H 0.362 0.14889 0.85645 0.0
H438 H 0.37241 0.14684 0.88874 0.0
H439 H 0.39354 0.21418 0.89656 0.0
C440 C 0.75307 0.17598 0.97018 0.0
C441 C 0.74048 0.15873 0.95808 0.0
C442 C 0.71027 0.14553 0.97992 0.0
C443 C 0.71923 0.14354 0.96296 0.0
C444 C 0.72325 0.16254 0.99211 0.0
C445 C 0.74438 0.17756 0.98728 0.0
U446 U 0.80258 0.20598 0.93732 0.0
O447 O 0.82119 0.24071 0.93156 0.0
O448 O 0.83694 0.22455 0.94502 0.0
C449 C 0.83894 0.2428 0.93886 0.0
C450 C 0.77481 0.19331 0.96512 0.0
C451 C 0.85204 0.26234 0.95007 0.0
C452 C 0.8561 0.2887 0.97361 0.0
C453 C 0.84359 0.26854 0.96501 0.0
C454 C 0.88563 0.29621 0.95275 0.0
C455 C 0.87718 0.30298 0.96732 0.0
C456 C 0.87321 0.27614 0.9443 0.0
C457 C 0.8057 0.18648 0.88821 0.0
C458 C 0.8276 0.20972 0.86266 0.0
C459 C 0.81156 0.17099 0.86004 0.0
C460 C 0.80246 0.16845 0.87789 0.0
C461 C 0.82392 0.19163 0.85212 0.0
C462 C 0.81873 0.20719 0.88063 0.0
C463 C 0.7946 0.18338 0.90637 0.0
O464 O 0.78996 0.18814 0.9639 0.0
O465 O 0.77577 0.20641 0.9517 0.0
O466 O 0.7872 0.19655 0.90962 0.0
O467 O 0.80391 0.18042 0.9211 0.0
H468 H 0.7469 0.15728 0.94476 0.0
H469 H 0.70963 0.13067 0.95323 0.0
H470 H 0.717 0.16435 0.00539 0.0
H471 H 0.75386 0.19073 0.99681 0.0
H472 H 0.84919 0.29323 0.98499 0.0
H473 H 0.82723 0.25807 0.96968 0.0
H474 H 0.90159 0.30677 0.9473 0.0
H475 H 0.87996 0.2717 0.93269 0.0
H476 H 0.83716 0.2258 0.85691 0.0
H477 H 0.80829 0.15676 0.85214 0.0
H478 H 0.79247 0.15236 0.88347 0.0
H479 H 0.82164 0.22137 0.88841 0.0
C480 C 0.57722 0.83334 0.04896 0.0
C481 C 0.57363 0.84308 0.06458 0.0
C482 C 0.56482 0.86472 0.04389 0.0
C483 C 0.5673 0.85852 0.06205 0.0
C484 C 0.56939 0.85569 0.02831 0.0
C485 C 0.57541 0.84003 0.03083 0.0
U486 U 0.59584 0.80054 0.07808 0.0
O487 O 0.58038 0.76562 0.0823 0.0
O488 O 0.61256 0.78298 0.0696 0.0
C489 C 0.5964 0.76427 0.07488 0.0
C490 C 0.5813 0.8152 0.05126 0.0
C491 C 0.59075 0.74521 0.06311 0.0
C492 C 0.56451 0.71423 0.04515 0.0
C493 C 0.5716 0.73484 0.05261 0.0
C494 C 0.59607 0.71467 0.05779 0.0
C495 C 0.5763 0.70365 0.04835 0.0
C496 C 0.60326 0.73529 0.06499 0.0
C497 C 0.61669 0.81902 0.12827 0.0
C498 C 0.62097 0.79667 0.1518 0.0
C499 C 0.63164 0.83376 0.15892 0.0
C500 C 0.62536 0.83629 0.14092 0.0
C501 C 0.62931 0.81391 0.16454 0.0
C502 C 0.61475 0.79923 0.13371 0.0
C503 C 0.60884 0.82177 0.1099 0.0
O504 O 0.60154 0.82017 0.05246 0.0
O505 O 0.56884 0.80038 0.06343 0.0
O506 O 0.58863 0.8079 0.10615 0.0
O507 O 0.62165 0.82551 0.0955 0.0
H508 H 0.57509 0.83827 0.0787 0.0
H509 H 0.56401 0.86541 0.07426 0.0
H510 H 0.56747 0.86015 0.01418 0.0
H511 H 0.57807 0.83269 0.01861 0.0
H512 H 0.54921 0.70603 0.03791 0.0
H513 H 0.56162 0.74215 0.05102 0.0
H514 H 0.60553 0.70694 0.06028 0.0
H515 H 0.61803 0.74295 0.07306 0.0
H516 H 0.61902 0.78123 0.15595 0.0
H517 H 0.63794 0.8472 0.16861 0.0
H518 H 0.62691 0.85163 0.137 0.0
H519 H 0.60808 0.78571 0.12411 0.0
C520 C 0.26154 0.83338 0.04026 0.0
C521 C 0.27354 0.85126 0.05193 0.0
C522 C 0.30443 0.8641 0.03087 0.0
C523 C 0.29481 0.86656 0.04722 0.0
C524 C 0.29203 0.84647 0.01904 0.0
C525 C 0.27085 0.83133 0.0237 0.0
U526 U 0.2124 0.80312 0.07348 0.0
O527 O 0.17794 0.78391 0.06599 0.0
O528 O 0.19433 0.76849 0.07961 0.0
C529 C 0.17637 0.76591 0.07234 0.0
C530 C 0.23986 0.81589 0.04538 0.0
C531 C 0.16331 0.74591 0.06159 0.0
C532 C 0.15999 0.71745 0.04073 0.0
C533 C 0.17214 0.73849 0.04787 0.0
C534 C 0.13004 0.71153 0.06037 0.0
C535 C 0.13909 0.7036 0.04745 0.0
C536 C 0.14198 0.73251 0.06726 0.0
C537 C 0.21155 0.82449 0.12297 0.0
C538 C 0.18944 0.80304 0.14924 0.0
C539 C 0.21112 0.8418 0.15218 0.0
C540 C 0.2184 0.84313 0.13374 0.0
C541 C 0.19685 0.8217 0.16036 0.0
C542 C 0.1967 0.80443 0.13073 0.0
C543 C 0.2212 0.82629 0.10426 0.0
O544 O 0.23913 0.80285 0.05875 0.0
O545 O 0.2246 0.82088 0.04678 0.0
O546 O 0.21109 0.82863 0.08981 0.0
O547 O 0.22823 0.81283 0.101 0.0
H548 H 0.26666 0.8531 0.06483 0.0
H549 H 0.30395 0.87987 0.0567 0.0
H550 H 0.29879 0.84424 0.00623 0.0
H551 H 0.26184 0.81767 0.0145 0.0
H552 H 0.16728 0.71162 0.03077 0.0
H553 H 0.18862 0.74855 0.04336 0.0
H554 H 0.11394 0.70119 0.06568 0.0
H555 H 0.1349 0.73789 0.07785 0.0
H556 H 0.17855 0.78728 0.15502 0.0
H557 H 0.2168 0.85657 0.16007 0.0
H558 H 0.22977 0.85878 0.128 0.0
H559 H 0.19116 0.7898 0.12264 0.0
C560 C 0.17831 0.42919 0.04165 0.0
C561 C 0.16799 0.43349 0.05636 0.0
C562 C 0.14753 0.44187 0.03378 0.0
C563 C 0.15283 0.43985 0.05245 0.0
C564 C 0.15712 0.43653 0.01913 0.0
C565 C 0.17244 0.43035 0.02305 0.0
U566 U 0.20936 0.40988 0.07286 0.0
O567 O 0.22874 0.39494 0.06508 0.0
O568 O 0.2438 0.42618 0.07954 0.0
C569 C 0.24657 0.41111 0.07181 0.0
C570 C 0.19639 0.4253 0.04535 0.0
C571 C 0.2665 0.4187 0.06091 0.0
C572 C 0.2892 0.43539 0.03351 0.0
C573 C 0.26912 0.42681 0.0425 0.0
C574 C 0.30384 0.42757 0.06118 0.0
C575 C 0.30682 0.43623 0.043 0.0
C576 C 0.2839 0.41885 0.06998 0.0
C577 C 0.18486 0.38641 0.12206 0.0
C578 C 0.20268 0.3836 0.15022 0.0
C579 C 0.1644 0.37046 0.15055 0.0
C580 C 0.1653 0.37641 0.13174 0.0
C581 C 0.1831 0.37424 0.1602 0.0
C582 C 0.20357 0.3897 0.13131 0.0
C583 C 0.18526 0.39491 0.10307 0.0
O584 O 0.20988 0.43731 0.05852 0.0
O585 O 0.19181 0.40509 0.04611 0.0
O586 O 0.18365 0.38268 0.08871 0.0
O587 O 0.19923 0.41539 0.10037 0.0
H588 H 0.1721 0.43253 0.07085 0.0
H589 H 0.14541 0.44346 0.06405 0.0
H590 H 0.15341 0.43793 0.00462 0.0
H591 H 0.1802 0.42711 0.01149 0.0
H592 H 0.29116 0.44198 0.01947 0.0
H593 H 0.25587 0.4269 0.03528 0.0
H594 H 0.31709 0.42781 0.06871 0.0
H595 H 0.2822 0.41264 0.08416 0.0
H596 H 0.21734 0.38643 0.15706 0.0
H597 H 0.14909 0.36362 0.15771 0.0
H598 H 0.15072 0.37387 0.12489 0.0
H599 H 0.21887 0.3974 0.12407 0.0
C600 C 0.42141 0.91596 0.30831 0.0
C601 C 0.41072 0.92388 0.2971 0.0
C602 C 0.37807 0.9035 0.31575 0.0
C603 C 0.38921 0.91779 0.30089 0.0
C604 C 0.38916 0.89625 0.32721 0.0
C605 C 0.41057 0.90245 0.32353 0.0
U606 U 0.47158 0.93504 0.27654 0.0
O607 O 0.50575 0.95005 0.28473 0.0
O608 O 0.48966 0.91827 0.27123 0.0
C609 C 0.50739 0.93352 0.27889 0.0
C610 C 0.44326 0.92015 0.30396 0.0
C611 C 0.51963 0.92637 0.29071 0.0
C612 C 0.5233 0.90672 0.31719 0.0
C613 C 0.51148 0.91451 0.30739 0.0
C614 C 0.55138 0.92274 0.29378 0.0
C615 C 0.5434 0.91061 0.3104 0.0
C616 C 0.5397 0.93056 0.28417 0.0
C617 C 0.47219 0.95817 0.22686 0.0
C618 C 0.49873 0.96649 0.20226 0.0
C619 C 0.46744 0.96995 0.19603 0.0
C620 C 0.46039 0.96349 0.21444 0.0
C621 C 0.48663 0.97139 0.18955 0.0
C622 C 0.49154 0.95987 0.22073 0.0
C623 C 0.46317 0.94984 0.24566 0.0
O624 O 0.44439 0.90793 0.29082 0.0
O625 O 0.45865 0.94039 0.30281 0.0
O626 O 0.47336 0.9621 0.26013 0.0
O627 O 0.45654 0.92936 0.24864 0.0
H628 H 0.41879 0.93428 0.28522 0.0
H629 H 0.38105 0.92357 0.29177 0.0
H630 H 0.38113 0.88547 0.33888 0.0
H631 H 0.41855 0.89621 0.33236 0.0
H632 H 0.51667 0.89762 0.33 0.0
H633 H 0.49593 0.91103 0.31266 0.0
H634 H 0.56643 0.92569 0.28774 0.0
H635 H 0.54619 0.93949 0.27123 0.0
H636 H 0.51374 0.9677 0.19795 0.0
H637 H 0.45741 0.97316 0.18672 0.0
H638 H 0.44535 0.96218 0.21888 0.0
H639 H 0.50091 0.95583 0.23012 0.0
C640 C 0.09232 0.50512 0.30664 0.0
C641 C 0.08517 0.48742 0.29447 0.0
C642 C 0.10507 0.47412 0.31255 0.0
C643 C 0.09138 0.4719 0.29751 0.0
C644 C 0.11134 0.49135 0.32512 0.0
C645 C 0.10497 0.50666 0.3222 0.0
U646 U 0.07382 0.53574 0.27422 0.0
O647 O 0.06235 0.55842 0.28097 0.0
O648 O 0.09209 0.56935 0.26481 0.0
C649 C 0.07893 0.57469 0.27273 0.0
C650 C 0.0891 0.52343 0.30225 0.0
C651 C 0.08924 0.59606 0.28178 0.0
C652 C 0.09887 0.62012 0.30869 0.0
C653 C 0.08919 0.59912 0.30128 0.0
C654 C 0.10883 0.63485 0.27728 0.0
C655 C 0.10865 0.63824 0.29669 0.0
C656 C 0.09918 0.61408 0.26997 0.0
C657 C 0.04944 0.51242 0.22607 0.0
C658 C 0.03991 0.53134 0.20288 0.0
C659 C 0.04467 0.50154 0.19335 0.0
C660 C 0.04916 0.49877 0.21191 0.0
C661 C 0.04036 0.51809 0.18853 0.0
C662 C 0.04458 0.52863 0.22152 0.0
C663 C 0.0567 0.51051 0.24499 0.0
O664 O 0.10093 0.53565 0.28836 0.0
O665 O 0.06918 0.51963 0.30173 0.0
O666 O 0.04527 0.51071 0.25934 0.0
O667 O 0.07748 0.52238 0.24769 0.0
H668 H 0.0755 0.48605 0.28229 0.0
H669 H 0.08633 0.45878 0.28762 0.0
H670 H 0.12162 0.49326 0.33698 0.0
H671 H 0.11067 0.52021 0.33171 0.0
H672 H 0.09831 0.62215 0.3237 0.0
H673 H 0.0816 0.58542 0.31069 0.0
H674 H 0.11652 0.64831 0.26763 0.0
H675 H 0.09943 0.61209 0.2549 0.0
H676 H 0.03668 0.54424 0.1996 0.0
H677 H 0.04476 0.49082 0.1827 0.0
H678 H 0.05295 0.48623 0.21514 0.0
H679 H 0.04491 0.53948 0.23226 0.0
C680 C 0.41916 0.50907 0.30255 0.0
C681 C 0.4048 0.49538 0.28884 0.0
C682 C 0.37636 0.47842 0.31239 0.0
C683 C 0.38361 0.48017 0.29372 0.0
C684 C 0.39109 0.49178 0.32612 0.0
C685 C 0.41223 0.50691 0.32123 0.0
U686 U 0.46794 0.53924 0.2693 0.0
O687 O 0.4862 0.57386 0.26301 0.0
O688 O 0.50254 0.55811 0.27615 0.0
C689 C 0.50423 0.5762 0.26989 0.0
C690 C 0.44084 0.52673 0.29763 0.0
C691 C 0.5176 0.59601 0.28071 0.0
C692 C 0.52224 0.62285 0.30398 0.0
C693 C 0.50957 0.60246 0.2958 0.0
C694 C 0.5511 0.63011 0.28241 0.0
C695 C 0.54306 0.63711 0.29713 0.0
C696 C 0.53854 0.60982 0.27437 0.0
C697 C 0.46812 0.51785 0.21992 0.0
C698 C 0.49766 0.53578 0.19768 0.0
C699 C 0.46308 0.50701 0.18716 0.0
C700 C 0.4551 0.50454 0.20542 0.0
C701 C 0.48435 0.52283 0.18302 0.0
C702 C 0.48955 0.53343 0.216 0.0
C703 C 0.45854 0.51585 0.23864 0.0
O704 O 0.45612 0.52178 0.29619 0.0
O705 O 0.44159 0.53985 0.28432 0.0
O706 O 0.45161 0.52937 0.24196 0.0
O707 O 0.46877 0.51353 0.253 0.0
H708 H 0.40983 0.49673 0.27433 0.0
H709 H 0.37288 0.46986 0.28283 0.0
H710 H 0.38613 0.49108 0.34057 0.0
H711 H 0.42305 0.51739 0.332 0.0
H712 H 0.51564 0.62754 0.31551 0.0
H713 H 0.4934 0.59201 0.3009 0.0
H714 H 0.56686 0.64064 0.27654 0.0
H715 H 0.54496 0.6052 0.26264 0.0
H716 H 0.51411 0.54809 0.19485 0.0
H717 H 0.45257 0.49658 0.17621 0.0
H718 H 0.43855 0.49241 0.20817 0.0
H719 H 0.49985 0.54397 0.227 0.0
O720 O 0.47586 0.97784 0.00761 0.0
Mn721 Mn 0.50735 0.00398 0.00852 0.0
O722 O 0.46528 0.98402 0.03484 0.0
Mn723 Mn 0.48674 0.01275 0.03494 0.0
O724 O 0.53914 0.03085 0.00913 0.0
O725 O 0.5181 0.98247 1.00343 0.0
Mn726 Mn 0.53709 0.99548 0.98529 0.0
O727 O 0.50463 0.0093 0.97939 0.0
O728 O 0.55982 0.02053 0.99392 0.0
O729 O 0.51071 0.99702 0.03736 0.0
O730 O 0.50787 0.0215 0.05254 0.0
O731 O 0.53805 0.97127 0.98839 0.0
O732 O 0.52403 0.99755 0.96407 0.0
C733 C 0.48519 0.03541 0.01965 0.0
C734 C 0.46188 0.97205 0.02072 0.0
C735 C 0.55758 0.03428 1.00329 0.0
C736 C 0.52398 0.96791 1.00128 0.0
C737 C 0.51128 0.0049 0.9641 0.0
C738 C 0.51394 0.00796 0.05244 0.0
O739 O 0.49571 0.02609 0.01254 0.0
O740 O 0.47524 0.02902 0.03557 0.0
O741 O 0.03147 0.49608 0.00912 0.0
Mn742 Mn 0.00769 0.50477 0.00888 0.0
O743 O 0.02246 0.48072 0.0369 0.0
Mn744 Mn 0.99473 0.47656 0.03472 0.0
O745 O 0.98406 0.51428 0.00775 0.0
O746 O 0.03143 0.53628 1.00408 0.0
Mn747 Mn 0.02357 0.54125 0.98193 0.0
O748 O 1.00139 0.49582 0.98017 0.0
O749 O 0.99748 0.54001 0.98539 0.0
O750 O 0.01486 0.51518 0.03783 0.0
O751 O 0.98538 0.49086 0.04953 0.0
O752 O 0.04775 0.56614 0.98673 0.0
O753 O 0.02431 0.52401 0.9634 0.0
C754 C 0.97254 0.45189 0.02001 0.0
C755 C 0.03525 0.4872 0.02307 0.0
C756 C 0.98269 0.52815 0.99697 0.0
C757 C 0.04694 0.55635 1.00231 0.0
C758 C 0.01042 0.50431 0.96446 0.0
C759 C 1.00189 0.50855 0.05177 0.0
O760 O 0.9829 0.47124 0.01181 0.0
O761 O 0.97715 0.44923 0.03704 0.0
O762 O 0.53999 0.51429 1.00345 0.0
Mn763 Mn 0.50724 0.50472 0.00485 0.0
O764 O 0.55363 0.54177 0.98267 0.0
Mn765 Mn 0.52848 0.54273 0.97911 0.0
O766 O 0.4744 0.4951 0.00651 0.0
O767 O 0.49973 0.47228 0.00768 0.0
Mn768 Mn 0.49028 0.47075 0.03093 0.0
O769 O 0.51055 0.51349 0.03401 0.0
O770 O 0.46554 0.47275 0.03105 0.0
O771 O 0.50351 0.49668 0.97557 0.0
O772 O 0.51051 0.52653 0.96033 0.0
O773 O 0.48606 0.4445 0.02854 0.0
O774 O 0.51169 0.48683 0.04743 0.0
C775 C 0.5202 0.55685 1.00045 0.0
C776 C 0.55571 0.52903 0.99393 0.0
C777 C 0.46059 0.48242 0.01867 0.0
C778 C 0.49407 0.45213 0.01213 0.0
C779 C 0.5142 0.50535 0.04866 0.0
C780 C 0.50343 0.5065 0.96039 0.0
O781 O 0.51531 0.53657 1.00109 0.0
O782 O 0.52857 0.56713 0.98493 0.0
O783 O 0.14184 0.31416 0.34078 0.0
Mn784 Mn 0.17415 0.33812 0.34202 0.0
O785 O 0.13188 0.32236 0.36733 0.0
Mn786 Mn 0.15596 0.34967 0.36751 0.0
O787 O 0.20703 0.36165 0.34205 0.0
O788 O 0.18243 0.31406 0.33938 0.0
Mn789 Mn 0.19359 0.32188 0.3168 0.0
O790 O 0.17301 0.34479 0.31259 0.0
O791 O 0.21784 0.34893 0.3182 0.0
O792 O 0.17617 0.33053 0.37096 0.0
O793 O 0.17631 0.35676 0.38567 0.0
O794 O 0.19718 0.29947 0.32072 0.0
O795 O 0.17292 0.31715 0.29973 0.0
C796 C 0.15605 0.37326 0.35251 0.0
C797 C 0.12766 0.31006 0.35335 0.0
C798 C 0.22169 0.36319 0.33065 0.0
C799 C 0.18811 0.29939 0.33647 0.0
C800 C 0.17059 0.33325 0.29797 0.0
C801 C 0.18049 0.34188 0.38587 0.0
O802 O 0.16545 0.36292 0.34504 0.0
O803 O 0.14681 0.36773 0.36875 0.0
O804 O 0.69953 0.83207 0.34148 0.0
Mn805 Mn 0.67341 0.83759 0.34305 0.0
O806 O 0.69259 0.81168 0.36679 0.0
Mn807 Mn 0.66452 0.80585 0.36771 0.0
O808 O 0.64711 0.8432 0.34416 0.0
O809 O 0.69521 0.87046 0.33976 0.0
Mn810 Mn 0.68372 0.87548 0.31973 0.0
O811 O 0.66761 0.8303 0.31368 0.0
O812 O 0.65686 0.87142 0.32486 0.0
O813 O 0.67958 0.84647 0.37219 0.0
O814 O 0.65652 0.81726 0.38655 0.0
O815 O 0.70608 0.90146 0.32388 0.0
O816 O 0.68583 0.86178 0.29918 0.0
C817 C 0.64125 0.78327 0.35186 0.0
C818 C 0.70474 0.82186 0.35322 0.0
C819 C 0.64337 0.85698 0.33577 0.0
C820 C 0.70896 0.89124 0.33764 0.0
C821 C 0.67457 0.84155 0.2985 0.0
C822 C 0.66869 0.83716 0.38697 0.0
O823 O 0.65103 0.80364 0.34577 0.0
O824 O 0.64754 0.77826 0.36717 0.0
O825 O 0.20612 0.84237 0.33787 0.0
Mn826 Mn 0.1749 0.83773 0.33877 0.0
O827 O 0.21445 0.85853 0.31021 0.0
Mn828 Mn 0.1933 0.86615 0.31184 0.0
O829 O 0.14353 0.83457 0.3389 0.0
O830 O 0.16338 0.80419 0.34369 0.0
Mn831 Mn 0.1456 0.80436 0.36129 0.0
O832 O 0.18115 0.84762 0.36747 0.0
O833 O 0.12172 0.80221 0.35065 0.0
O834 O 0.16931 0.82661 0.31 0.0
O835 O 0.1704 0.8538 0.29608 0.0
O836 O 0.14362 0.7798 0.36647 0.0
O837 O 0.15473 0.8204 0.38242 0.0
C838 C 0.19763 0.89134 0.32716 0.0
C839 C 0.21914 0.85048 0.32403 0.0
C840 C 0.12445 0.81883 0.34224 0.0
C841 C 0.15467 0.78442 0.35109 0.0
C842 C 0.17122 0.83863 0.38272 0.0
C843 C 0.16506 0.83441 0.29543 0.0
O844 O 0.18725 0.87174 0.33487 0.0
O845 O 0.20517 0.8939 0.31027 0.0
O846 O 0.81013 0.64641 0.6774 0.0
Mn847 Mn 0.84217 0.67146 0.67522 0.0
O848 O 0.8005 0.65892 0.70223 0.0
Mn849 Mn 0.82397 0.68666 0.70182 0.0
O850 O 0.8744 0.69769 0.67362 0.0
O851 O 0.85342 0.65019 0.67184 0.0
Mn852 Mn 0.87218 0.6613 0.65322 0.0
O853 O 0.83788 0.67409 0.64604 0.0
O854 O 0.89528 0.6843 0.66408 0.0
O855 O 0.84622 0.66688 0.70422 0.0
O856 O 0.84611 0.69364 0.71825 0.0
O857 O 0.86452 0.63317 0.65381 0.0
O858 O 0.86201 0.66773 0.63208 0.0
C859 C 0.82409 0.70708 0.68202 0.0
C860 C 0.79614 0.6446 0.68969 0.0
C861 C 0.89304 0.69961 0.6705 0.0
C862 C 0.85131 0.63168 0.66686 0.0
C863 C 0.84714 0.67226 0.63128 0.0
C864 C 0.85036 0.67872 0.7188 0.0
O865 O 0.83126 0.69377 0.67789 0.0
O866 O 0.81773 0.7074 0.69899 0.0
O867 O 0.36268 0.16005 0.67873 0.0
Mn868 Mn 0.33923 0.16968 0.67729 0.0
O869 O 0.34841 0.1325 0.69911 0.0
Mn870 Mn 0.3225 0.13169 0.70159 0.0
O871 O 0.31594 0.17948 0.67551 0.0
O872 O 0.36428 0.20196 0.67483 0.0
Mn873 Mn 0.35626 0.20477 0.65179 0.0
O874 O 0.3343 0.16174 0.64822 0.0
O875 O 0.32983 0.20328 0.65202 0.0
O876 O 0.343 0.17705 0.70671 0.0
O877 O 0.31981 0.14672 0.72078 0.0
O878 O 0.37854 0.23066 0.65496 0.0
O879 O 0.36064 0.18914 0.63402 0.0
C880 C 0.29945 0.11727 0.68142 0.0
C881 C 0.36356 0.14515 0.68825 0.0
C882 C 0.31482 0.1926 0.66371 0.0
C883 C 0.37897 0.22219 0.67097 0.0
C884 C 0.3453 0.17017 0.63334 0.0
C885 C 0.33265 0.16668 0.72149 0.0
O886 O 0.31481 0.13757 0.67971 0.0
O887 O 0.29892 0.1069 0.69656 0.0
O888 O 0.87285 0.17702 0.67262 0.0
Mn889 Mn 0.84094 0.1703 0.67213 0.0
O890 O 0.88068 0.19328 0.64505 0.0
Mn891 Mn 0.8585 0.19953 0.64669 0.0
O892 O 0.80889 0.16453 0.67112 0.0
O893 O 0.83137 0.13746 0.67575 0.0
Mn894 Mn 0.81305 0.13257 0.69435 0.0
O895 O 0.84319 0.17793 0.70145 0.0
O896 O 0.7894 0.1338 0.68685 0.0
O897 O 0.83782 0.16072 0.643 0.0
O898 O 0.83608 0.18698 0.6304 0.0
O899 O 0.81051 0.10699 0.69249 0.0
O900 O 0.82568 0.14634 0.71597 0.0
C901 C 0.86198 0.22405 0.66242 0.0
C902 C 0.88586 0.18561 0.65886 0.0
C903 C 0.79076 0.14923 0.67715 0.0
C904 C 0.82437 0.11677 0.67918 0.0
C905 C 0.83669 0.16658 0.7166 0.0
C906 C 0.83264 0.16824 0.62882 0.0
O907 O 0.85171 0.20426 0.66976 0.0
O908 O 0.86958 0.22721 0.64552 0.0
C909 C 0.34081 0.87096 0.02071 0.0
C910 C 0.3276 0.87912 0.02661 0.0
C911 C 0.36291 0.88464 0.0176 0.0
C912 C 0.37214 0.90711 0.02035 0.0
C913 C 0.35876 0.91554 0.02565 0.0
C914 C 0.33671 0.90145 0.02884 0.0
C915 C 0.37654 0.8749 0.01216 0.0
C916 C 0.36784 0.93943 0.02844 0.0
C917 C 0.43026 0.94138 0.03582 0.0
C918 C 0.44039 0.95248 0.0193 0.0
C919 C 0.40833 0.9259 0.03609 0.0
C920 C 0.39599 0.92158 0.01946 0.0
C921 C 0.40634 0.93198 1.00248 0.0
C922 C 0.42851 0.94723 1.00256 0.0
C923 C 0.39817 0.915 0.05445 0.0
C924 C 0.39375 0.92791 0.98449 0.0
H925 H 0.33399 0.85371 0.01913 0.0
H926 H 0.32659 0.90793 0.03312 0.0
H927 H 0.38659 0.88336 0.99978 0.0
H928 H 0.38758 0.87688 0.02389 0.0
H929 H 0.36667 0.85746 0.00887 0.0
H930 H 0.3551 0.9436 0.03102 0.0
H931 H 0.379 0.94497 0.0406 0.0
H932 H 0.37721 0.94844 0.01591 0.0
H933 H 0.43939 0.94544 0.0488 0.0
H934 H 0.4362 0.95603 0.98983 0.0
H935 H 0.38874 0.89727 0.05257 0.0
H936 H 0.3869 0.92037 0.05921 0.0
H937 H 0.4103 0.9187 0.06567 0.0
H938 H 0.38416 0.91037 0.98165 0.0
H939 H 0.40431 0.93601 0.97224 0.0
H940 H 0.38226 0.93393 0.98593 0.0
C941 C 0.1352 0.4686 0.03913 0.0
C942 C 0.13268 0.4503 0.0297 0.0
C943 C 0.12094 0.4764 0.03612 0.0
C944 C 0.10342 0.46546 0.0236 0.0
C945 C 0.10119 0.44738 0.01355 0.0
C946 C 0.11594 0.44012 0.01661 0.0
C947 C 0.12419 0.49591 0.04692 0.0
C948 C 0.08266 0.4351 1.0002 0.0
C949 C 0.05319 0.46774 0.03611 0.0
C950 C 0.05325 0.48243 0.02293 0.0
C951 C 0.06917 0.46194 0.03618 0.0
C952 C 0.08606 0.47125 0.02292 0.0
C953 C 0.08641 0.48622 0.0096 0.0
C954 C 0.06989 0.49151 0.00964 0.0
C955 C 0.06789 0.44568 0.05048 0.0
C956 C 0.10435 0.4968 0.99545 0.0
H957 H 0.14836 0.47682 0.04897 0.0
H958 H 0.1139 0.42599 0.00926 0.0
H959 H 0.12337 0.50771 0.0373 0.0
H960 H 0.11116 0.491 0.05742 0.0
H961 H 0.13985 0.50401 0.05442 0.0
H962 H 0.08393 0.42226 0.99258 0.0
H963 H 0.06733 0.42755 0.00813 0.0
H964 H 0.0819 0.44624 0.98977 0.0
H965 H 0.04035 0.46038 0.04634 0.0
H966 H 0.0701 0.50283 0.99939 0.0
H967 H 0.08228 0.45314 0.05967 0.0
H968 H 0.06769 0.43188 0.04325 0.0
H969 H 0.05336 0.43943 0.05946 0.0
H970 H 0.11988 0.50645 1.00288 0.0
H971 H 0.10199 0.50753 0.98564 0.0
H972 H 0.10561 0.48438 0.98718 0.0
C973 C 0.56102 0.67292 0.02538 0.0
C974 C 0.56712 0.68048 0.04375 0.0
C975 C 0.5526 0.65095 0.02114 0.0
C976 C 0.54947 0.6361 0.03577 0.0
C977 C 0.55529 0.64372 0.05438 0.0
C978 C 0.56432 0.66583 0.05808 0.0
C979 C 0.54741 0.6437 1.00097 0.0
C980 C 0.55188 0.62849 0.07041 0.0
C981 C 0.51057 0.57804 0.02165 0.0
C982 C 0.52475 0.57073 0.01697 0.0
C983 C 0.51824 0.5987 0.02942 0.0
C984 C 0.54069 0.61274 0.03147 0.0
C985 C 0.55488 0.6048 0.02798 0.0
C986 C 0.54661 0.58364 0.02144 0.0
C987 C 0.50242 0.60606 0.03397 0.0
C988 C 0.57897 0.61933 0.0288 0.0
H989 H 0.56327 0.68428 0.01429 0.0
H990 H 0.5689 0.67167 0.07233 0.0
H991 H 0.55542 0.63448 0.99689 0.0
H992 H 0.52986 0.63281 0.99936 0.0
H993 H 0.55251 0.65747 0.99111 0.0
H994 H 0.55584 0.63675 0.08424 0.0
H995 H 0.53491 0.61524 0.07063 0.0
H996 H 0.56206 0.62103 0.06845 0.0
H997 H 0.49378 0.56841 0.01777 0.0
H998 H 0.55771 0.5783 0.01723 0.0
H999 H 0.50227 0.61643 0.02244 0.0
H1000 H 0.50709 0.61571 0.04708 0.0
H1001 H 0.48587 0.5922 0.03562 0.0
H1002 H 0.58421 0.63024 0.01641 0.0
H1003 H 0.58756 0.61003 0.02858 0.0
H1004 H 0.58394 0.6296 0.0415 0.0
C1005 C 0.88039 0.33765 0.97901 0.0
C1006 C 0.89009 0.32525 0.97504 0.0
C1007 C 0.89265 0.35916 0.98505 0.0
C1008 C 0.91518 0.36859 0.98715 0.0
C1009 C 0.92502 0.35606 0.98347 0.0
C1010 C 0.91239 0.33462 0.9775 0.0
C1011 C 0.88147 0.37177 0.98927 0.0
C1012 C 0.94883 0.36512 0.9864 0.0
C1013 C 0.9532 0.42957 0.99115 0.0
C1014 C 0.95568 0.43197 0.01068 0.0
C1015 C 0.9393 0.40912 0.9832 0.0
C1016 C 0.92821 0.39076 0.99504 0.0
C1017 C 0.93028 0.39335 0.0147 0.0
C1018 C 0.94338 0.41385 0.02218 0.0
C1019 C 0.93694 0.40695 0.96215 0.0
C1020 C 0.91918 0.37444 0.02805 0.0
H1021 H 0.86324 0.33071 0.97703 0.0
H1022 H 0.92002 0.32508 0.9749 0.0
H1023 H 0.88314 0.37593 1.0044 0.0
H1024 H 0.88911 0.38714 0.98127 0.0
H1025 H 0.86408 0.36264 0.98575 0.0
H1026 H 0.95415 0.35355 0.98232 0.0
H1027 H 0.95804 0.38012 0.97809 0.0
H1028 H 0.9529 0.36938 1.00142 0.0
H1029 H 0.96254 0.44337 0.98214 0.0
H1030 H 0.94461 0.41541 0.03733 0.0
H1031 H 0.91967 0.39841 0.95824 0.0
H1032 H 0.94384 0.39708 0.95697 0.0
H1033 H 0.94513 0.42283 0.95493 0.0
H1034 H 0.9018 0.36905 0.02861 0.0
H1035 H 0.92573 0.37863 0.04255 0.0
H1036 H 0.92083 0.36061 0.02325 0.0
C1037 C 0.67838 0.55447 1.00009 0.0
C1038 C 0.6894 0.56908 0.98545 0.0
C1039 C 0.65654 0.54714 1.00361 0.0
C1040 C 0.64526 0.55433 0.9921 0.0
C1041 C 0.65635 0.56938 0.97755 0.0
C1042 C 0.67824 0.57662 0.97446 0.0
C1043 C 0.64543 0.53132 0.01941 0.0
C1044 C 0.64499 0.57762 0.96504 0.0
C1045 C 0.58458 0.52091 0.98577 0.0
C1046 C 0.57759 0.5326 0.99642 0.0
C1047 C 0.60653 0.52729 0.98485 0.0
C1048 C 0.62175 0.54579 0.99484 0.0
C1049 C 0.61451 0.55699 0.00636 0.0
C1050 C 0.59251 0.55037 0.00686 0.0
C1051 C 0.61354 0.51496 0.97234 0.0
C1052 C 0.63009 0.57659 0.01744 0.0
H1053 H 0.68667 0.54827 0.00855 0.0
H1054 H 0.68662 0.58822 0.96338 0.0
H1055 H 0.63672 0.53695 0.02854 0.0
H1056 H 0.63334 0.51552 0.01352 0.0
H1057 H 0.65687 0.52893 0.0282 0.0
H1058 H 0.65593 0.58947 0.95449 0.0
H1059 H 0.63159 0.56395 0.95752 0.0
H1060 H 0.6379 0.58539 0.97365 0.0
H1061 H 0.573 0.50744 0.9774 0.0
H1062 H 0.58703 0.55959 0.01484 0.0
H1063 H 0.62401 0.5104 0.98024 0.0
H1064 H 0.62312 0.52538 0.96045 0.0
H1065 H 0.59968 0.50013 0.96655 0.0
H1066 H 0.64084 0.57294 0.02597 0.0
H1067 H 0.62175 0.58234 0.02693 0.0
H1068 H 0.64039 0.58986 0.00767 0.0
C1069 C 0.47065 0.13378 0.9841 0.0
C1070 C 0.44859 0.1259 0.98158 0.0
C1071 C 0.47873 0.11975 0.98712 0.0
C1072 C 0.46439 0.09724 0.988 0.0
C1073 C 0.44214 0.08915 0.98488 0.0
C1074 C 0.43453 0.10357 0.98151 0.0
C1075 C 0.50255 0.12911 0.99024 0.0
C1076 C 0.42618 0.06535 0.98633 0.0
C1077 C 0.48387 0.05618 0.99106 0.0
C1078 C 0.48386 0.05343 0.01056 0.0
C1079 C 0.47827 0.07098 0.98333 0.0
C1080 C 0.47208 0.08272 0.99541 0.0
C1081 C 0.47287 0.08046 0.01506 0.0
C1082 C 0.47924 0.06638 0.02228 0.0
C1083 C 0.47834 0.07358 0.96231 0.0
C1084 C 0.46617 0.09227 0.02861 0.0
H1085 H 0.48163 0.15102 0.98391 0.0
H1086 H 0.41746 0.09742 0.97967 0.0
H1087 H 0.50568 0.12772 0.0053 0.0
H1088 H 0.50857 0.12004 0.98208 0.0
H1089 H 0.51183 0.14639 0.98619 0.0
H1090 H 0.40975 0.06146 0.98201 0.0
H1091 H 0.43131 0.05602 0.97748 0.0
H1092 H 0.42553 0.05995 1.00107 0.0
H1093 H 0.48738 0.04626 0.9819 0.0
H1094 H 0.47962 0.06479 0.03741 0.0
H1095 H 0.48706 0.09093 0.95848 0.0
H1096 H 0.46159 0.06672 0.95718 0.0
H1097 H 0.4859 0.06538 0.95499 0.0
H1098 H 0.47719 0.10989 0.02741 0.0
H1099 H 0.46625 0.08746 0.04345 0.0
H1100 H 0.44976 0.08907 0.02515 0.0
C1101 C 0.67458 0.13863 0.992 0.0
C1102 C 0.6873 0.13052 0.98475 0.0
C1103 C 0.65292 0.12488 0.99671 0.0
C1104 C 0.64364 0.10239 0.99418 0.0
C1105 C 0.65641 0.09404 0.98696 0.0
C1106 C 0.67805 0.1082 0.98226 0.0
C1107 C 0.63988 0.13447 1.00418 0.0
C1108 C 0.64716 0.07015 0.98402 0.0
C1109 C 0.59183 0.06127 0.01849 0.0
C1110 C 0.57689 0.05578 1.00389 0.0
C1111 C 0.61346 0.0774 0.01594 0.0
C1112 C 0.62032 0.08766 0.99819 0.0
C1113 C 0.60497 0.08283 0.98377 0.0
C1114 C 0.58346 0.06714 0.98689 0.0
C1115 C 0.62924 0.08239 0.03178 0.0
C1116 C 0.61152 0.0929 0.96451 0.0
H1117 H 0.68151 0.15588 0.99372 0.0
H1118 H 0.6878 0.10179 0.97683 0.0
H1119 H 0.62622 0.13059 0.9946 0.0
H1120 H 0.63301 0.12731 0.01807 0.0
H1121 H 0.64958 0.15226 0.0057 0.0
H1122 H 0.65932 0.06619 0.97873 0.0
H1123 H 0.64053 0.06138 0.99742 0.0
H1124 H 0.63371 0.06411 0.97381 0.0
H1125 H 0.58695 0.05198 0.03141 0.0
H1126 H 0.57205 0.06234 0.97538 0.0
H1127 H 0.63946 0.10007 0.03358 0.0
H1128 H 0.64004 0.07595 0.02837 0.0
H1129 H 0.62105 0.07519 0.04529 0.0
H1130 H 0.62139 0.11069 0.9656 0.0
H1131 H 0.59743 0.08882 0.95538 0.0
H1132 H 0.62152 0.08711 0.95758 0.0
C1133 C 0.87997 0.54291 0.98163 0.0
C1134 C 0.88591 0.56429 0.98588 0.0
C1135 C 0.89327 0.53441 0.98652 0.0
C1136 C 0.91288 0.54748 0.99614 0.0
C1137 C 0.91801 0.56849 1.00182 0.0
C1138 C 0.90463 0.57672 0.99642 0.0
C1139 C 0.88723 0.51207 0.97995 0.0
C1140 C 0.93848 0.58291 0.01236 0.0
C1141 C 0.94888 0.5247 0.01203 0.0
C1142 C 0.96354 0.53117 0.99708 0.0
C1143 C 0.93201 0.52956 0.01198 0.0
C1144 C 0.92983 0.54112 0.99665 0.0
C1145 C 0.94431 0.54716 0.98143 0.0
C1146 C 0.96073 0.54206 0.98181 0.0
C1147 C 0.91685 0.52282 0.02845 0.0
C1148 C 0.94276 0.55944 0.96473 0.0
H1149 H 0.86559 0.53327 0.97338 0.0
H1150 H 0.90918 0.59319 0.9999 0.0
H1151 H 0.89773 0.51329 0.96805 0.0
H1152 H 0.88971 0.50292 0.99133 0.0
H1153 H 0.87025 0.50286 0.97518 0.0
H1154 H 0.93839 0.59713 0.01846 0.0
H1155 H 0.94098 0.57386 0.02384 0.0
H1156 H 0.95235 0.58874 1.00265 0.0
H1157 H 0.95086 0.51634 0.02391 0.0
H1158 H 0.97165 0.54694 0.96997 0.0
H1159 H 0.89994 0.51403 0.02352 0.0
H1160 H 0.91917 0.53734 0.03603 0.0
H1161 H 0.91945 0.5124 0.03847 0.0
H1162 H 0.9266 0.55034 0.95822 0.0
H1163 H 0.95498 0.56247 0.95381 0.0
H1164 H 0.94499 0.5752 0.96937 0.0
C1165 C 0.44493 0.33203 0.99408 0.0
C1166 C 0.44916 0.32485 0.97723 0.0
C1167 C 0.45501 0.35422 0.99815 0.0
C1168 C 0.46965 0.36944 0.98505 0.0
C1169 C 0.47453 0.36204 0.96838 0.0
C1170 C 0.4641 0.33985 0.96461 0.0
C1171 C 0.44943 0.36139 0.01615 0.0
C1172 C 0.49034 0.37762 0.95429 0.0
C1173 C 0.47569 0.42537 0.98726 0.0
C1174 C 0.49371 0.43627 0.99889 0.0
C1175 C 0.46818 0.40383 0.98197 0.0
C1176 C 0.4791 0.39308 0.98835 0.0
C1177 C 0.49838 0.4047 0.99872 0.0
C1178 C 0.50539 0.42612 1.0039 0.0
C1179 C 0.44749 0.39202 0.971 0.0
C1180 C 0.5106 0.39401 0.00585 0.0
H1181 H 0.43325 0.32036 1.00375 0.0
H1182 H 0.46727 0.33418 0.95157 0.0
H1183 H 0.46426 0.37222 0.02409 0.0
H1184 H 0.44127 0.37069 0.01284 0.0
H1185 H 0.43873 0.34757 0.02532 0.0
H1186 H 0.49344 0.36926 0.94264 0.0
H1187 H 0.48407 0.38772 0.94826 0.0
H1188 H 0.50581 0.38863 0.96131 0.0
H1189 H 0.46614 0.43286 0.98398 0.0
H1190 H 0.51887 0.43425 0.01347 0.0
H1191 H 0.43478 0.37965 0.98012 0.0
H1192 H 0.44951 0.38349 0.95888 0.0
H1193 H 0.44191 0.40303 0.96573 0.0
H1194 H 0.50177 0.38328 0.01783 0.0
H1195 H 0.52697 0.40599 0.01076 0.0
H1196 H 0.51198 0.3839 0.99478 0.0
C1197 C 0.12292 0.6651 0.05696 0.0
C1198 C 0.12737 0.68033 0.04272 0.0
C1199 C 0.11091 0.64289 0.05329 0.0
C1200 C 0.10263 0.63569 0.03505 0.0
C1201 C 0.1073 0.65107 0.02052 0.0
C1202 C 0.11986 0.67325 0.0245 0.0
C1203 C 0.10694 0.62713 0.069 0.0
C1204 C 0.09849 0.64413 1.00093 0.0
C1205 C 0.08257 0.57902 0.01643 0.0
C1206 C 0.06027 0.57012 0.01775 0.0
C1207 C 0.09673 0.59976 0.02341 0.0
C1208 C 0.08831 0.61215 0.03128 0.0
C1209 C 0.06583 0.60248 0.03408 0.0
C1210 C 0.05213 0.5814 0.02761 0.0
C1211 C 0.12058 0.60906 0.02077 0.0
C1212 C 0.05602 0.61517 0.04193 0.0
H1213 H 0.12886 0.67065 0.07103 0.0
H1214 H 0.12324 0.68506 0.01353 0.0
H1215 H 0.08948 0.61748 0.07199 0.0
H1216 H 0.11234 0.61571 0.06471 0.0
H1217 H 0.11542 0.63531 0.08214 0.0
H1218 H 0.10351 0.65805 0.99126 0.0
H1219 H 0.104 0.63339 0.99506 0.0
H1220 H 0.08067 0.63479 1.00139 0.0
H1221 H 0.08891 0.57061 0.00835 0.0
H1222 H 0.03488 0.57486 0.0281 0.0
H1223 H 0.12958 0.61842 0.0333 0.0
H1224 H 0.12605 0.62021 0.00857 0.0
H1225 H 0.12471 0.59627 0.0181 0.0
H1226 H 0.06429 0.62355 0.05503 0.0
H1227 H 0.03861 0.6048 0.0449 0.0
H1228 H 0.05805 0.62772 0.03162 0.0
C1229 C 0.34573 0.46357 0.04462 0.0
C1230 C 0.32871 0.44685 0.03475 0.0
C1231 C 0.36711 0.47169 0.03899 0.0
C1232 C 0.37169 0.46264 0.02323 0.0
C1233 C 0.35445 0.44661 0.01251 0.0
C1234 C 0.3331 0.43895 0.01836 0.0
C1235 C 0.38485 0.48882 0.05083 0.0
C1236 C 0.35855 0.43639 0.99572 0.0
C1237 C 0.43072 0.48943 0.00807 0.0
C1238 C 0.43778 0.47743 0.01849 0.0
C1239 C 0.40904 0.48448 0.00891 0.0
C1240 C 0.39417 0.46712 0.02031 0.0
C1241 C 0.40115 0.45463 0.0303 0.0
C1242 C 0.42267 0.45992 0.02927 0.0
C1243 C 0.40211 0.49806 0.99799 0.0
C1244 C 0.38599 0.43592 0.04258 0.0
H1245 H 0.3423 0.46974 0.05724 0.0
H1246 H 0.31994 0.42593 0.01078 0.0
H1247 H 0.39288 0.48155 0.05892 0.0
H1248 H 0.39717 0.50167 0.0418 0.0
H1249 H 0.37869 0.49626 0.06091 0.0
H1250 H 0.34383 0.42703 0.98711 0.0
H1251 H 0.37136 0.44881 0.98672 0.0
H1252 H 0.36417 0.42529 1.00058 0.0
H1253 H 0.44215 0.50285 0.99958 0.0
H1254 H 0.42767 0.4502 0.03718 0.0
H1255 H 0.39688 0.50652 0.00784 0.0
H1256 H 0.38813 0.48765 0.98896 0.0
H1257 H 0.41521 0.51025 0.98903 0.0
H1258 H 0.38015 0.44184 0.05428 0.0
H1259 H 0.39372 0.42716 0.04868 0.0
H1260 H 0.37175 0.42433 0.03436 0.0
C1261 C 0.53581 0.87389 0.04814 0.0
C1262 C 0.55617 0.87948 0.04114 0.0
C1263 C 0.52657 0.88682 0.04449 0.0
C1264 C 0.53815 0.90599 0.03391 0.0
C1265 C 0.55907 0.91206 0.02733 0.0
C1266 C 0.56771 0.89856 0.03083 0.0
C1267 C 0.50411 0.87955 0.05134 0.0
C1268 C 0.5721 0.93251 0.01617 0.0
C1269 C 0.51165 0.9296 1.00366 0.0
C1270 C 0.51737 0.94885 0.01316 0.0
C1271 C 0.51707 0.9147 0.01087 0.0
C1272 C 0.5279 0.91888 0.02831 0.0
C1273 C 0.53103 0.93684 0.03912 0.0
C1274 C 0.52578 0.95175 0.03135 0.0
C1275 C 0.5135 0.89593 0.99873 0.0
C1276 C 0.5421 0.94165 0.05796 0.0
H1277 H 0.52682 0.85898 0.05594 0.0
H1278 H 0.58347 0.90287 0.02546 0.0
H1279 H 0.50368 0.89279 0.059 0.0
H1280 H 0.49311 0.87539 0.03913 0.0
H1281 H 0.49795 0.86525 0.0607 0.0
H1282 H 0.58859 0.93564 0.01319 0.0
H1283 H 0.56395 0.93143 1.00262 0.0
H1284 H 0.5733 0.94649 0.02393 0.0
H1285 H 0.50549 0.92757 0.98943 0.0
H1286 H 0.53062 0.96682 0.03855 0.0
H1287 H 0.50687 0.88089 0.00713 0.0
H1288 H 0.52912 0.89906 0.99287 0.0
H1289 H 0.50243 0.89333 0.98683 0.0
H1290 H 0.53638 0.9267 0.06636 0.0
H1291 H 0.53942 0.95332 0.0661 0.0
H1292 H 0.55964 0.9487 0.05579 0.0
C1293 C 1.00196 0.2206 0.34406 0.0
C1294 C 0.99403 0.21576 0.36253 0.0
C1295 C 0.02376 0.23523 0.34043 0.0
C1296 C 0.03803 0.24543 0.3556 0.0
C1297 C 0.03012 0.24081 0.37425 0.0
C1298 C 0.00831 0.22602 0.37748 0.0
C1299 C 0.03149 0.23982 0.32035 0.0
C1300 C 0.04474 0.25151 0.39084 0.0
C1301 C 0.09889 0.27123 0.35086 0.0
C1302 C 0.10509 0.29311 0.35069 0.0
C1303 C 0.07696 0.25535 0.35172 0.0
C1304 C 0.06108 0.26164 0.35214 0.0
C1305 C 0.06741 0.28375 0.35084 0.0
C1306 C 0.08933 0.29918 0.35033 0.0
C1307 C 0.07084 0.23195 0.35318 0.0
C1308 C 0.05111 0.29121 0.35093 0.0
H1309 H 0.99108 0.21308 0.33237 0.0
H1310 H 1.00253 0.22219 0.3918 0.0
H1311 H 0.03856 0.25726 0.31728 0.0
H1312 H 0.04434 0.23573 0.3182 0.0
H1313 H 0.01837 0.23056 0.31013 0.0
H1314 H 0.03615 0.24604 0.40446 0.0
H1315 H 0.05815 0.24801 0.39075 0.0
H1316 H 0.05193 0.26925 0.38982 0.0
H1317 H 0.11114 0.2666 0.35134 0.0
H1318 H 0.09423 0.31618 0.35018 0.0
H1319 H 0.05829 0.22224 0.34267 0.0
H1320 H 0.06395 0.22568 0.36728 0.0
H1321 H 0.08482 0.22956 0.35104 0.0
H1322 H 0.03859 0.28245 0.34013 0.0
H1323 H 0.05858 0.30879 0.34824 0.0
H1324 H 0.04294 0.28757 0.36477 0.0
C1325 C 0.78631 0.78346 0.37795 0.0
C1326 C 0.79941 0.78302 0.36354 0.0
C1327 C 0.77155 0.7906 0.37457 0.0
C1328 C 0.76996 0.79782 0.35639 0.0
C1329 C 0.78296 0.79727 0.34174 0.0
C1330 C 0.79735 0.78975 0.34544 0.0
C1331 C 0.75768 0.79048 0.39053 0.0
C1332 C 0.78173 0.80473 0.32216 0.0
C1333 C 0.71748 0.79659 0.34572 0.0
C1334 C 0.72264 0.8178 0.34971 0.0
C1335 C 0.73292 0.79011 0.34708 0.0
C1336 C 0.75414 0.80522 0.35263 0.0
C1337 C 0.75972 0.827 0.35573 0.0
C1338 C 0.74382 0.83303 0.35435 0.0
C1339 C 0.72612 0.76674 0.34374 0.0
C1340 C 0.78219 0.84364 0.36151 0.0
H1341 H 0.78786 0.77863 0.39204 0.0
H1342 H 0.80697 0.78909 0.33404 0.0
H1343 H 0.76094 0.8071 0.39319 0.0
H1344 H 0.74046 0.78061 0.38669 0.0
H1345 H 0.7605 0.78395 0.40373 0.0
H1346 H 0.79298 0.8034 0.31231 0.0
H1347 H 0.76517 0.79506 0.31657 0.0
H1348 H 0.78554 0.82177 0.32253 0.0
H1349 H 0.70095 0.78473 0.34252 0.0
H1350 H 0.74766 0.84928 0.3579 0.0
H1351 H 0.72671 0.75915 0.35718 0.0
H1352 H 0.7373 0.76538 0.33387 0.0
H1353 H 0.70956 0.75749 0.33796 0.0
H1354 H 0.78543 0.84003 0.37592 0.0
H1355 H 0.78458 0.86021 0.36133 0.0
H1356 H 0.79415 0.84308 0.35204 0.0
C1357 C 0.21413 0.00441 0.36561 0.0
C1358 C 0.23286 0.01453 0.37658 0.0
C1359 C 0.20654 0.98352 0.35844 0.0
C1360 C 0.21792 0.97249 0.36237 0.0
C1361 C 0.23699 0.98279 0.37317 0.0
C1362 C 0.24423 0.00363 0.38007 0.0
C1363 C 0.18642 0.97329 0.34659 0.0
C1364 C 0.25011 0.97201 0.37707 0.0
C1365 C 0.19329 0.91171 0.35456 0.0
C1366 C 0.2018 0.91146 0.33693 0.0
C1367 C 0.19791 0.93148 0.36293 0.0
C1368 C 0.2114 0.95125 0.35349 0.0
C1369 C 0.21989 0.95095 0.33573 0.0
C1370 C 0.21498 0.93124 0.32775 0.0
C1371 C 0.18856 0.93131 0.3819 0.0
C1372 C 0.23445 0.9715 0.32512 0.0
H1373 H 0.20519 0.01265 0.36291 0.0
H1374 H 0.259 0.0115 0.38813 0.0
H1375 H 0.19013 0.96987 0.33233 0.0
H1376 H 0.17443 0.95764 0.35285 0.0
H1377 H 0.17911 0.98372 0.34523 0.0
H1378 H 0.26391 0.98169 0.38657 0.0
H1379 H 0.23986 0.95593 0.38351 0.0
H1380 H 0.2564 0.96948 0.36367 0.0
H1381 H 0.18309 0.89662 0.36174 0.0
H1382 H 0.22184 0.93156 0.31414 0.0
H1383 H 0.17932 0.93992 0.38109 0.0
H1384 H 0.20171 0.94003 0.39221 0.0
H1385 H 0.17783 0.91469 0.38718 0.0
H1386 H 0.22572 0.98024 0.32184 0.0
H1387 H 0.24039 0.96844 0.31174 0.0
H1388 H 0.24854 0.98232 0.33388 0.0
C1389 C 0.57851 0.66905 0.30646 0.0
C1390 C 0.55613 0.65954 0.30455 0.0
C1391 C 0.59121 0.69048 0.31245 0.0
C1392 C 0.58136 0.70286 0.31674 0.0
C1393 C 0.55878 0.69336 0.31499 0.0
C1394 C 0.54646 0.67188 0.3089 0.0
C1395 C 0.61512 0.69967 0.31473 0.0
C1396 C 0.54761 0.70588 0.31969 0.0
C1397 C 0.61026 0.74632 0.35311 0.0
C1398 C 0.62305 0.76477 0.34216 0.0
C1399 C 0.59654 0.72635 0.34501 0.0
C1400 C 0.59439 0.7247 0.32529 0.0
C1401 C 0.6057 0.74359 0.31407 0.0
C1402 C 0.62023 0.76347 0.32263 0.0
C1403 C 0.5855 0.70674 0.35762 0.0
C1404 C 0.60316 0.74253 0.29301 0.0
H1405 H 0.58616 0.6596 0.3035 0.0
H1406 H 0.52925 0.66486 0.30725 0.0
H1407 H 0.624 0.71488 0.30663 0.0
H1408 H 0.61963 0.70359 0.32972 0.0
H1409 H 0.62045 0.68832 0.30998 0.0
H1410 H 0.52997 0.69625 0.31749 0.0
H1411 H 0.55069 0.7112 0.33454 0.0
H1412 H 0.55419 0.7206 0.31084 0.0
H1413 H 0.6119 0.74716 0.36828 0.0
H1414 H 0.63 0.77756 0.31405 0.0
H1415 H 0.5914 0.69544 0.35435 0.0
H1416 H 0.56792 0.69803 0.35513 0.0
H1417 H 0.58846 0.71093 0.37276 0.0
H1418 H 0.6105 0.73343 0.28701 0.0
H1419 H 0.61092 0.75881 0.2865 0.0
H1420 H 0.58587 0.73376 0.28918 0.0
C1421 C 0.34602 0.90875 0.31903 0.0
C1422 C 0.35465 0.89498 0.31871 0.0
C1423 C 0.32382 0.90054 0.32156 0.0
C1424 C 0.30985 0.87798 0.32343 0.0
C1425 C 0.31857 0.86409 0.32328 0.0
C1426 C 0.34081 0.87274 0.32104 0.0
C1427 C 0.31526 0.91597 0.32194 0.0
C1428 C 0.30432 0.83997 0.32486 0.0
C1429 C 0.25263 0.85738 0.34139 0.0
C1430 C 0.24122 0.85361 0.32448 0.0
C1431 C 0.27495 0.865 0.34134 0.0
C1432 C 0.28602 0.86878 0.32401 0.0
C1433 C 0.27431 0.864 0.30699 0.0
C1434 C 0.25218 0.85655 0.30745 0.0
C1435 C 0.28686 0.86996 0.35979 0.0
C1436 C 0.2853 0.86754 0.28819 0.0
H1437 H 0.35667 0.92595 0.31742 0.0
H1438 H 0.34735 0.86199 0.3206 0.0
H1439 H 0.30444 0.91289 0.30976 0.0
H1440 H 0.30562 0.91336 0.33485 0.0
H1441 H 0.32831 0.93308 0.32148 0.0
H1442 H 0.31368 0.83146 0.3255 0.0
H1443 H 0.29415 0.83583 0.33761 0.0
H1444 H 0.29337 0.83388 0.31257 0.0
H1445 H 0.24439 0.85552 0.35459 0.0
H1446 H 0.2435 0.85372 0.29431 0.0
H1447 H 0.29784 0.88761 0.36097 0.0
H1448 H 0.29693 0.86222 0.36043 0.0
H1449 H 0.2758 0.86446 0.37202 0.0
H1450 H 0.29675 0.88497 0.28612 0.0
H1451 H 0.2737 0.86176 0.27632 0.0
H1452 H 0.29468 0.85907 0.28774 0.0
C1453 C 0.13625 0.46816 0.31687 0.0
C1454 C 0.11404 0.45947 0.31461 0.0
C1455 C 0.14517 0.45484 0.31976 0.0
C1456 C 0.13153 0.43223 0.32086 0.0
C1457 C 0.10909 0.4233 0.31806 0.0
C1458 C 0.10065 0.43703 0.31473 0.0
C1459 C 0.16914 0.46509 0.32247 0.0
C1460 C 0.09385 0.39938 0.31987 0.0
C1461 C 0.15325 0.39294 0.32371 0.0
C1462 C 0.15441 0.39105 0.34323 0.0
C1463 C 0.14663 0.40699 0.31603 0.0
C1464 C 0.14022 0.41851 0.32816 0.0
C1465 C 0.14206 0.41703 0.34778 0.0
C1466 C 0.14987 0.4041 0.35492 0.0
C1467 C 0.14587 0.40902 0.29501 0.0
C1468 C 0.13488 0.42836 0.36143 0.0
H1469 H 0.14669 0.4855 0.31652 0.0
H1470 H 0.08346 0.43029 0.31306 0.0
H1471 H 0.17276 0.46435 0.33752 0.0
H1472 H 0.17548 0.45621 0.31442 0.0
H1473 H 0.17779 0.48226 0.31801 0.0
H1474 H 0.07717 0.3948 0.31576 0.0
H1475 H 0.0993 0.39031 0.31102 0.0
H1476 H 0.0937 0.39432 0.33465 0.0
H1477 H 0.15664 0.38294 0.31455 0.0
H1478 H 0.15115 0.40323 0.37004 0.0
H1479 H 0.15315 0.42622 0.29088 0.0
H1480 H 0.12892 0.40066 0.29021 0.0
H1481 H 0.15447 0.4019 0.28768 0.0
H1482 H 0.14546 0.44605 0.36024 0.0
H1483 H 0.13524 0.42362 0.37625 0.0
H1484 H 0.11827 0.42463 0.35811 0.0
C1485 C 0.34808 0.45164 0.33445 0.0
C1486 C 0.35343 0.46316 0.31743 0.0
C1487 C 0.32657 0.43691 0.3391 0.0
C1488 C 0.30994 0.43346 0.3264 0.0
C1489 C 0.31518 0.44548 0.30947 0.0
C1490 C 0.33678 0.46016 0.30523 0.0
C1491 C 0.32175 0.42438 0.35725 0.0
C1492 C 0.29801 0.44221 0.29544 0.0
C1493 C 0.26041 0.37814 0.32341 0.0
C1494 C 0.24435 0.38122 0.33163 0.0
C1495 C 0.28173 0.3948 0.32216 0.0
C1496 C 0.28754 0.41532 0.32944 0.0
C1497 C 0.27172 0.41849 0.3385 0.0
C1498 C 0.25023 0.40134 0.33954 0.0
C1499 C 0.29791 0.39051 0.31242 0.0
C1500 C 0.27745 0.44012 0.34666 0.0
H1501 H 0.36076 0.45365 0.34396 0.0
H1502 H 0.34062 0.46929 0.29225 0.0
H1503 H 0.30859 0.42491 0.3649 0.0
H1504 H 0.31624 0.40723 0.35414 0.0
H1505 H 0.33605 0.43068 0.36657 0.0
H1506 H 0.30448 0.45395 0.28365 0.0
H1507 H 0.29061 0.4257 0.28955 0.0
H1508 H 0.28507 0.44375 0.30245 0.0
H1509 H 0.25626 0.36258 0.31757 0.0
H1510 H 0.23802 0.40387 0.34601 0.0
H1511 H 0.31184 0.3948 0.32177 0.0
H1512 H 0.30407 0.40072 0.29965 0.0
H1513 H 0.29095 0.37339 0.30818 0.0
H1514 H 0.29055 0.44504 0.35712 0.0
H1515 H 0.2635 0.43994 0.35356 0.0
H1516 H 0.28353 0.45253 0.33541 0.0
C1517 C 0.57837 0.91292 0.31967 0.0
C1518 C 0.55579 0.90141 0.31981 0.0
C1519 C 0.59039 0.90338 0.3256 0.0
C1520 C 0.5797 0.88188 0.33233 0.0
C1521 C 0.55702 0.87077 0.33402 0.0
C1522 C 0.54532 0.88056 0.32758 0.0
C1523 C 0.61454 0.91597 0.32359 0.0
C1524 C 0.54505 0.84814 0.34174 0.0
C1525 C 0.61063 0.85319 0.32109 0.0
C1526 C 0.62265 0.85644 0.33751 0.0
C1527 C 0.59544 0.86001 0.31973 0.0
C1528 C 0.59215 0.87042 0.33521 0.0
C1529 C 0.60298 0.87211 0.35239 0.0
C1530 C 0.61829 0.86525 0.35329 0.0
C1531 C 0.58444 0.85788 0.30111 0.0
C1532 C 0.59978 0.88275 0.36935 0.0
H1533 H 0.58675 0.92928 0.31433 0.0
H1534 H 0.52793 0.87142 0.32786 0.0
H1535 H 0.62235 0.91589 0.33703 0.0
H1536 H 0.61963 0.90822 0.31286 0.0
H1537 H 0.62052 0.93296 0.31933 0.0
H1538 H 0.528 0.84295 0.34483 0.0
H1539 H 0.54548 0.83682 0.33137 0.0
H1540 H 0.55287 0.84689 0.35478 0.0
H1541 H 0.61437 0.84682 0.30876 0.0
H1542 H 0.62799 0.86832 0.36583 0.0
H1543 H 0.59061 0.8741 0.29477 0.0
H1544 H 0.56688 0.85079 0.3031 0.0
H1545 H 0.58722 0.8477 0.29104 0.0
H1546 H 0.60963 0.90051 0.36781 0.0
H1547 H 0.60482 0.87805 0.38247 0.0
H1548 H 0.58274 0.87856 0.37071 0.0
C1549 C 0.13062 0.66715 0.32045 0.0
C1550 C 0.11827 0.66072 0.30394 0.0
C1551 C 0.13989 0.6885 0.32701 0.0
C1552 C 0.13679 0.70379 0.3168 0.0
C1553 C 0.1246 0.69742 0.30002 0.0
C1554 C 0.1154 0.67603 0.29391 0.0
C1555 C 0.15231 0.69451 0.34523 0.0
C1556 C 0.12035 0.71296 0.28897 0.0
C1557 C 0.13139 0.74609 0.34357 0.0
C1558 C 0.15121 0.76504 0.34057 0.0
C1559 C 0.12705 0.72623 0.3365 0.0
C1560 C 0.14255 0.72502 0.32529 0.0
C1561 C 0.1624 0.74409 0.32147 0.0
C1562 C 0.16661 0.76404 0.32926 0.0
C1563 C 0.10567 0.70652 0.34108 0.0
C1564 C 0.17918 0.74328 0.30942 0.0
H1565 H 0.13307 0.65551 0.32823 0.0
H1566 H 0.10548 0.67117 0.28139 0.0
H1567 H 0.16826 0.7091 0.34321 0.0
H1568 H 0.14361 0.69847 0.35594 0.0
H1569 H 0.15464 0.6813 0.35078 0.0
H1570 H 0.11268 0.70625 0.27518 0.0
H1571 H 0.10955 0.71683 0.29711 0.0
H1572 H 0.13555 0.72829 0.28655 0.0
H1573 H 0.119 0.74663 0.35183 0.0
H1574 H 0.1819 0.77853 0.32688 0.0
H1575 H 0.10821 0.69381 0.34748 0.0
H1576 H 0.09622 0.69978 0.32803 0.0
H1577 H 0.09592 0.71012 0.35095 0.0
H1578 H 0.18509 0.73342 0.31654 0.0
H1579 H 0.19306 0.75958 0.30663 0.0
H1580 H 0.17205 0.73537 0.29582 0.0
C1581 C 0.78622 0.00776 0.35583 0.0
C1582 C 0.79927 0.01465 0.37184 0.0
C1583 C 0.7736 0.98565 0.35171 0.0
C1584 C 0.77397 0.97017 0.36401 0.0
C1585 C 0.78792 0.97726 0.37972 0.0
C1586 C 0.80033 0.99942 0.38349 0.0
C1587 C 0.75919 0.97885 0.33465 0.0
C1588 C 0.78907 0.96139 0.39299 0.0
C1589 C 0.7219 0.91634 0.36401 0.0
C1590 C 0.72633 0.9047 0.35073 0.0
C1591 C 0.73766 0.93729 0.36927 0.0
C1592 C 0.75847 0.94667 0.36126 0.0
C1593 C 0.76364 0.93405 0.34942 0.0
C1594 C 0.74745 0.91325 0.34422 0.0
C1595 C 0.73137 0.95017 0.38184 0.0
C1596 C 0.78559 0.94319 0.34066 0.0
H1597 H 0.78537 0.01962 0.34692 0.0
H1598 H 0.81038 0.00487 0.39593 0.0
H1599 H 0.76189 0.96759 0.32594 0.0
H1600 H 0.74213 0.97013 0.33915 0.0
H1601 H 0.76192 0.9928 0.3258 0.0
H1602 H 0.80216 0.96947 0.40349 0.0
H1603 H 0.77359 0.95221 0.40056 0.0
H1604 H 0.79167 0.94959 0.38502 0.0
H1605 H 0.70543 0.91012 0.36856 0.0
H1606 H 0.75077 0.90462 0.33346 0.0
H1607 H 0.73088 0.96303 0.37348 0.0
H1608 H 0.74344 0.95815 0.39313 0.0
H1609 H 0.71535 0.94 0.38837 0.0
H1610 H 0.78687 0.95364 0.32862 0.0
H1611 H 0.78845 0.93025 0.33539 0.0
H1612 H 0.79843 0.95322 0.35085 0.0
C1613 C 1.00458 0.79674 0.35706 0.0
C1614 C 0.99637 0.77867 0.36897 0.0
C1615 C 0.02549 0.80594 0.34959 0.0
C1616 C 0.03865 0.79707 0.3543 0.0
C1617 C 0.03023 0.77845 0.36583 0.0
C1618 C 0.00922 0.76941 0.37284 0.0
C1619 C 0.03369 0.82545 0.33701 0.0
C1620 C 0.0436 0.76834 0.37122 0.0
C1621 C 0.08871 0.8064 0.32823 0.0
C1622 C 0.10501 0.82064 0.34036 0.0
C1623 C 0.06704 0.79999 0.33165 0.0
C1624 C 0.06152 0.80754 0.34789 0.0
C1625 C 0.07811 0.82318 0.35938 0.0
C1626 C 0.09967 0.82968 0.35536 0.0
C1627 C 0.04999 0.78359 0.31884 0.0
C1628 C 0.07304 0.83134 0.37707 0.0
H1629 H 0.99493 0.80414 0.35401 0.0
H1630 H 1.00293 0.75513 0.38159 0.0
H1631 H 0.04736 0.83949 0.34389 0.0
H1632 H 0.03978 0.82254 0.32366 0.0
H1633 H 0.02108 0.82963 0.33371 0.0
H1634 H 0.03462 0.75381 0.38019 0.0
H1635 H 0.04908 0.76368 0.35844 0.0
H1636 H 0.05816 0.78021 0.37895 0.0
H1637 H 0.09273 0.79884 0.317 0.0
H1638 H 0.11215 0.84003 0.36516 0.0
H1639 H 0.03729 0.78777 0.31603 0.0
H1640 H 0.04223 0.76753 0.32573 0.0
H1641 H 0.05683 0.78232 0.30524 0.0
H1642 H 0.06106 0.83645 0.37418 0.0
H1643 H 0.0876 0.8451 0.38331 0.0
H1644 H 0.06591 0.81813 0.38759 0.0
C1645 C 0.21427 0.21617 0.38757 0.0
C1646 C 0.22953 0.21625 0.37523 0.0
C1647 C 0.20599 0.23008 0.38481 0.0
C1648 C 0.21317 0.2445 0.3694 0.0
C1649 C 0.22914 0.24519 0.35726 0.0
C1650 C 0.23704 0.23099 0.36027 0.0
C1651 C 0.1889 0.22873 0.39794 0.0
C1652 C 0.23743 0.26049 0.34075 0.0
C1653 C 0.1776 0.26258 0.3456 0.0
C1654 C 0.18755 0.28432 0.35076 0.0
C1655 C 0.185 0.24908 0.35245 0.0
C1656 C 0.20271 0.2575 0.36493 0.0
C1657 C 0.21143 0.27888 0.37167 0.0
C1658 C 0.20371 0.29209 0.36446 0.0
C1659 C 0.17526 0.22647 0.34479 0.0
C1660 C 0.23025 0.28845 0.38503 0.0
H1661 H 0.20819 0.20465 0.39902 0.0
H1662 H 0.249 0.23129 0.35082 0.0
H1663 H 0.19331 0.245 0.4032 0.0
H1664 H 0.17349 0.22247 0.39022 0.0
H1665 H 0.18633 0.218 0.41014 0.0
H1666 H 0.25087 0.26007 0.33345 0.0
H1667 H 0.22425 0.25623 0.3305 0.0
H1668 H 0.24305 0.27722 0.34547 0.0
H1669 H 0.16554 0.25677 0.33458 0.0
H1670 H 0.2119 0.30909 0.36799 0.0
H1671 H 0.17185 0.21474 0.35632 0.0
H1672 H 0.18685 0.22549 0.33514 0.0
H1673 H 0.16014 0.2216 0.33693 0.0
H1674 H 0.22776 0.27705 0.39662 0.0
H1675 H 0.23297 0.30388 0.39112 0.0
H1676 H 0.24499 0.29157 0.3774 0.0
C1677 C 0.66937 0.55943 0.68033 0.0
C1678 C 0.6623 0.54771 0.69719 0.0
C1679 C 0.69131 0.57396 0.67714 0.0
C1680 C 0.70661 0.57682 0.69109 0.0
C1681 C 0.69961 0.56466 0.70793 0.0
C1682 C 0.67761 0.5503 0.71076 0.0
C1683 C 0.69804 0.58677 0.65909 0.0
C1684 C 0.71532 0.56728 0.72324 0.0
C1685 C 0.76708 0.60669 0.68096 0.0
C1686 C 0.77336 0.62693 0.68879 0.0
C1687 C 0.74529 0.59019 0.68123 0.0
C1688 C 0.72953 0.59424 0.68921 0.0
C1689 C 0.73579 0.61489 0.69644 0.0
C1690 C 0.75748 0.63083 0.6962 0.0
C1691 C 0.73915 0.56832 0.67341 0.0
C1692 C 0.71963 0.62014 0.70483 0.0
H1693 H 0.65768 0.55767 0.6698 0.0
H1694 H 0.6724 0.54102 0.72366 0.0
H1695 H 0.70504 0.60417 0.66223 0.0
H1696 H 0.71067 0.58477 0.65202 0.0
H1697 H 0.68436 0.58186 0.64923 0.0
H1698 H 0.70756 0.55547 0.73483 0.0
H1699 H 0.72856 0.56535 0.71738 0.0
H1700 H 0.72262 0.58376 0.72919 0.0
H1701 H 0.77919 0.6036 0.67509 0.0
H1702 H 0.762 0.64656 0.70189 0.0
H1703 H 0.72663 0.56374 0.66243 0.0
H1704 H 0.73216 0.55601 0.68471 0.0
H1705 H 0.75311 0.56785 0.66725 0.0
H1706 H 0.70661 0.61658 0.69459 0.0
H1707 H 0.72702 0.63731 0.70908 0.0
H1708 H 0.71209 0.60992 0.71739 0.0
C1709 C 0.46243 0.1282 0.71011 0.0
C1710 C 0.46627 0.11639 0.69648 0.0
C1711 C 0.44743 0.13506 0.70702 0.0
C1712 C 0.43597 0.13013 0.68984 0.0
C1713 C 0.44033 0.11894 0.67573 0.0
C1714 C 0.45534 0.11215 0.67923 0.0
C1715 C 0.44323 0.14684 0.7225 0.0
C1716 C 0.4285 0.11336 0.65721 0.0
C1717 C 0.37971 0.1218 0.69339 0.0
C1718 C 0.38222 0.14151 0.68689 0.0
C1719 C 0.39692 0.11787 0.69395 0.0
C1720 C 0.41742 0.13397 0.68778 0.0
C1721 C 0.42007 0.15366 0.68054 0.0
C1722 C 0.40239 0.15723 0.68016 0.0
C1723 C 0.3932 0.09659 0.70169 0.0
C1724 C 0.44166 0.17115 0.67369 0.0
H1725 H 0.47111 0.13204 0.7233 0.0
H1726 H 0.45804 0.10295 0.66862 0.0
H1727 H 0.44419 0.16179 0.71696 0.0
H1728 H 0.42673 0.13654 0.72805 0.0
H1729 H 0.45478 0.15114 0.73432 0.0
H1730 H 0.4353 0.10667 0.64699 0.0
H1731 H 0.41135 0.10126 0.65953 0.0
H1732 H 0.42906 0.12784 0.65096 0.0
H1733 H 0.36416 0.10931 0.69834 0.0
H1734 H 0.40451 0.17246 0.67509 0.0
H1735 H 0.40314 0.0994 0.71446 0.0
H1736 H 0.39818 0.08846 0.69126 0.0
H1737 H 0.37611 0.08551 0.70541 0.0
H1738 H 0.45283 0.17797 0.68578 0.0
H1739 H 0.44061 0.18441 0.66655 0.0
H1740 H 0.44873 0.16441 0.66383 0.0
C1741 C 0.90499 0.33447 0.71805 0.0
C1742 C 0.89521 0.34635 0.71236 0.0
C1743 C 0.89777 0.31353 0.71144 0.0
C1744 C 0.88041 0.30413 0.69862 0.0
C1745 C 0.8705 0.31602 0.69268 0.0
C1746 C 0.878 0.33698 0.69963 0.0
C1747 C 0.90924 0.30173 0.71773 0.0
C1748 C 0.85223 0.30673 0.67872 0.0
C1749 C 0.88156 0.26386 0.6652 0.0
C1750 C 0.86614 0.24383 0.67275 0.0
C1751 C 0.88587 0.28334 0.67327 0.0
C1752 C 0.87471 0.28315 0.68961 0.0
C1753 C 0.85923 0.26311 0.69757 0.0
C1754 C 0.85512 0.24357 0.68905 0.0
C1755 C 0.9026 0.3042 0.66428 0.0
C1756 C 0.84708 0.2624 0.71503 0.0
H1757 H 0.91861 0.34171 0.72754 0.0
H1758 H 0.87023 0.34594 0.69526 0.0
H1759 H 0.8975 0.28547 0.72308 0.0
H1760 H 0.9176 0.2995 0.70559 0.0
H1761 H 0.92129 0.31054 0.72889 0.0
H1762 H 0.84594 0.31782 0.6758 0.0
H1763 H 0.85765 0.3032 0.66529 0.0
H1764 H 0.83892 0.29125 0.68412 0.0
H1765 H 0.89053 0.26449 0.65277 0.0
H1766 H 0.84321 0.22825 0.69498 0.0
H1767 H 0.91598 0.31337 0.67426 0.0
H1768 H 0.8955 0.31444 0.66078 0.0
H1769 H 0.90937 0.3015 0.65122 0.0
H1770 H 0.8585 0.27026 0.72681 0.0
H1771 H 0.83516 0.24566 0.71923 0.0
H1772 H 0.83859 0.2716 0.7127 0.0
C1773 C 0.23776 1.00105 0.65418 0.0
C1774 C 0.22354 0.99371 0.63894 0.0
C1775 C 0.24977 0.0232 0.65838 0.0
C1776 C 0.24792 0.03834 0.64672 0.0
C1777 C 0.2339 0.03089 0.63106 0.0
C1778 C 0.22171 0.00867 0.6275 0.0
C1779 C 0.26421 0.03037 0.67543 0.0
C1780 C 0.23177 0.04642 0.61807 0.0
C1781 C 0.26334 0.09147 0.67063 0.0
C1782 C 0.28522 0.10383 0.66622 0.0
C1783 C 0.25065 0.07054 0.66352 0.0
C1784 C 0.25998 0.06185 0.65141 0.0
C1785 C 0.28142 0.0752 0.64517 0.0
C1786 C 0.29382 0.09609 0.65268 0.0
C1787 C 0.22795 0.05698 0.67067 0.0
C1788 C 0.29195 0.06673 0.63207 0.0
H1789 H 0.23919 0.98943 0.66297 0.0
H1790 H 0.21088 0.00293 0.61556 0.0
H1791 H 0.28101 0.04172 0.67119 0.0
H1792 H 0.25923 0.0391 0.68522 0.0
H1793 H 0.2638 0.01662 0.68308 0.0
H1794 H 0.22069 0.03809 0.60616 0.0
H1795 H 0.22573 0.05563 0.62597 0.0
H1796 H 0.24777 0.05824 0.61235 0.0
H1797 H 0.25681 0.09717 0.68148 0.0
H1798 H 0.31087 0.10528 0.64962 0.0
H1799 H 0.2273 0.04473 0.68065 0.0
H1800 H 0.21676 0.04825 0.65897 0.0
H1801 H 0.22223 0.06683 0.67803 0.0
H1802 H 0.29611 0.05592 0.63998 0.0
H1803 H 0.30692 0.07997 0.62583 0.0
H1804 H 0.28084 0.05715 0.62057 0.0
C1805 C 0.01291 0.24294 0.6541 0.0
C1806 C 0.02116 0.22889 0.6528 0.0
C1807 C 0.99078 0.23499 0.65681 0.0
C1808 C 0.9765 0.21243 0.65788 0.0
C1809 C 0.98482 0.19823 0.65676 0.0
C1810 C 0.007 0.20662 0.65435 0.0
C1811 C 0.98263 0.25071 0.65822 0.0
C1812 C 0.9702 0.1741 0.65745 0.0
C1813 C 0.91931 0.19182 0.67596 0.0
C1814 C 0.90808 0.1891 0.65911 0.0
C1815 C 0.94157 0.1991 0.67585 0.0
C1816 C 0.95273 0.20362 0.65851 0.0
C1817 C 0.94119 0.19995 0.6415 0.0
C1818 C 0.91912 0.1928 0.64203 0.0
C1819 C 0.95331 0.20283 0.69428 0.0
C1820 C 0.95226 0.20427 0.62267 0.0
H1821 H 0.02381 0.26017 0.6531 0.0
H1822 H 0.01323 0.19566 0.65315 0.0
H1823 H 0.97193 0.24849 0.64615 0.0
H1824 H 0.97298 0.24756 0.6712 0.0
H1825 H 0.9959 0.26772 0.65836 0.0
H1826 H 0.97929 0.1653 0.6575 0.0
H1827 H 0.95996 0.16947 0.67018 0.0
H1828 H 0.95933 0.16881 0.64509 0.0
H1829 H 0.91098 0.18927 0.68922 0.0
H1830 H 0.91057 0.19069 0.62892 0.0
H1831 H 0.96456 0.22034 0.69614 0.0
H1832 H 0.96306 0.19474 0.69432 0.0
H1833 H 0.94215 0.19686 0.70645 0.0
H1834 H 0.96403 0.22171 0.62126 0.0
H1835 H 0.94076 0.19938 0.61075 0.0
H1836 H 0.9613 0.19549 0.62159 0.0
C1837 C 0.78292 0.78065 0.63231 0.0
C1838 C 0.78363 0.79372 0.64729 0.0
C1839 C 0.79004 0.76567 0.63452 0.0
C1840 C 0.79811 0.76367 0.65212 0.0
C1841 C 0.79883 0.77677 0.66731 0.0
C1842 C 0.79156 0.79153 0.66473 0.0
C1843 C 0.78884 0.75191 0.61804 0.0
C1844 C 0.80694 0.77495 0.68644 0.0
C1845 C 0.79596 0.7119 0.66742 0.0
C1846 C 0.8178 0.718 0.66789 0.0
C1847 C 0.78919 0.72623 0.66145 0.0
C1848 C 0.80462 0.74704 0.65514 0.0
C1849 C 0.82648 0.75249 0.65373 0.0
C1850 C 0.83292 0.73799 0.66044 0.0
C1851 C 0.76584 0.71984 0.66377 0.0
C1852 C 0.84331 0.77429 0.64657 0.0
H1853 H 0.77709 0.78235 0.61872 0.0
H1854 H 0.79182 0.80121 0.67651 0.0
H1855 H 0.80486 0.75366 0.6154 0.0
H1856 H 0.77765 0.73468 0.62129 0.0
H1857 H 0.78324 0.75619 0.60502 0.0
H1858 H 0.80704 0.78673 0.69662 0.0
H1859 H 0.79665 0.75847 0.69214 0.0
H1860 H 0.82349 0.77762 0.68531 0.0
H1861 H 0.7843 0.6966 0.67362 0.0
H1862 H 0.84984 0.74297 0.66123 0.0
H1863 H 0.75963 0.72362 0.6509 0.0
H1864 H 0.76428 0.7292 0.67545 0.0
H1865 H 0.75557 0.70241 0.667 0.0
H1866 H 0.83771 0.77846 0.63352 0.0
H1867 H 0.8588 0.77489 0.64371 0.0
H1868 H 0.84614 0.78675 0.65719 0.0
C1869 C 0.00859 0.80525 0.65543 0.0
C1870 C 0.02233 0.79733 0.65068 0.0
C1871 C 0.98688 0.79123 0.65977 0.0
C1872 C 0.97868 0.7687 0.65954 0.0
C1873 C 0.99251 0.76059 0.65487 0.0
C1874 C 0.01413 0.775 0.65039 0.0
C1875 C 0.97265 0.80052 0.66441 0.0
C1876 C 0.98443 0.73666 0.65452 0.0
C1877 C 0.92683 0.729 0.68453 0.0
C1878 C 0.91246 0.72095 0.66944 0.0
C1879 C 0.94824 0.74551 0.68174 0.0
C1880 C 0.95543 0.75354 0.66334 0.0
C1881 C 0.94059 0.74604 0.64826 0.0
C1882 C 0.91928 0.72996 0.65154 0.0
C1883 C 0.96347 0.75335 0.69823 0.0
C1884 C 0.94754 0.7538 0.62839 0.0
H1885 H 0.01477 0.8225 0.65547 0.0
H1886 H 0.02472 0.76881 0.64689 0.0
H1887 H 0.95921 0.79466 0.65418 0.0
H1888 H 0.96546 0.79499 0.67853 0.0
H1889 H 0.98154 0.81842 0.66417 0.0
H1890 H 0.99733 0.73297 0.65107 0.0
H1891 H 0.97752 0.72943 0.66838 0.0
H1892 H 0.9714 0.72878 0.64397 0.0
H1893 H 0.9217 0.72157 0.69825 0.0
H1894 H 0.90826 0.72321 0.63979 0.0
H1895 H 0.9728 0.77122 0.69842 0.0
H1896 H 0.97513 0.74755 0.69689 0.0
H1897 H 0.9549 0.74754 0.71183 0.0
H1898 H 0.95653 0.77166 0.62784 0.0
H1899 H 0.93369 0.74777 0.61856 0.0
H1900 H 0.95851 0.74815 0.62339 0.0
C1901 C 0.21456 0.21058 0.64519 0.0
C1902 C 0.21959 0.23114 0.65135 0.0
C1903 C 0.22782 0.20192 0.6497 0.0
C1904 C 0.24635 0.21393 0.66097 0.0
C1905 C 0.25053 0.23403 0.66838 0.0
C1906 C 0.23732 0.24256 0.66322 0.0
C1907 C 0.22294 0.1807 0.64112 0.0
C1908 C 0.26981 0.24724 0.68073 0.0
C1909 C 0.28005 0.18863 0.67695 0.0
C1910 C 0.29628 0.19661 0.66325 0.0
C1911 C 0.26352 0.19394 0.67646 0.0
C1912 C 0.26326 0.20754 0.662 0.0
C1913 C 0.27944 0.21534 0.6481 0.0
C1914 C 0.29553 0.20976 0.64886 0.0
C1915 C 0.24655 0.18534 0.69155 0.0
C1916 C 0.27997 0.22986 0.63237 0.0
H1917 H 0.20097 0.20182 0.63586 0.0
H1918 H 0.24119 0.25845 0.66804 0.0
H1919 H 0.23485 0.18366 0.62993 0.0
H1920 H 0.22431 0.17015 0.6518 0.0
H1921 H 0.20662 0.17206 0.63482 0.0
H1922 H 0.26874 0.26041 0.68795 0.0
H1923 H 0.27148 0.23691 0.69146 0.0
H1924 H 0.28459 0.25455 0.67203 0.0
H1925 H 0.28043 0.17854 0.68815 0.0
H1926 H 0.30777 0.21602 0.63804 0.0
H1927 H 0.23032 0.17665 0.68511 0.0
H1928 H 0.24746 0.19895 0.69972 0.0
H1929 H 0.24838 0.17426 0.70136 0.0
H1930 H 0.26467 0.22183 0.62437 0.0
H1931 H 0.29343 0.2342 0.62244 0.0
H1932 H 0.28166 0.24495 0.63828 0.0
C1933 C 0.77321 1.00066 0.65697 0.0
C1934 C 0.7833 0.99134 0.64694 0.0
C1935 C 0.78409 0.02283 0.66104 0.0
C1936 C 0.80544 0.03615 0.65454 0.0
C1937 C 0.81583 0.02672 0.64482 0.0
C1938 C 0.80471 0.00445 0.64124 0.0
C1939 C 0.77265 0.03205 0.67212 0.0
C1940 C 0.83852 0.04027 0.63772 0.0
C1941 C 0.81965 0.09485 0.65107 0.0
C1942 C 0.82994 0.10282 0.66833 0.0
C1943 C 0.81316 0.07356 0.64557 0.0
C1944 C 0.81668 0.05994 0.65783 0.0
C1945 C 0.82912 0.06875 0.67426 0.0
C1946 C 0.83605 0.09025 0.67901 0.0
C1947 C 0.80066 0.06503 0.62756 0.0
C1948 C 0.83279 0.05492 0.68815 0.0
H1949 H 0.75674 0.99058 0.66157 0.0
H1950 H 0.81253 0.9974 0.63332 0.0
H1951 H 0.7826 0.04131 0.68432 0.0
H1952 H 0.77024 0.04338 0.66318 0.0
H1953 H 0.75674 0.01934 0.67734 0.0
H1954 H 0.84457 0.03042 0.63085 0.0
H1955 H 0.8392 0.05229 0.62745 0.0
H1956 H 0.84946 0.04934 0.64947 0.0
H1957 H 0.81443 0.10427 0.64296 0.0
H1958 H 0.84358 0.09621 0.69259 0.0
H1959 H 0.78336 0.05463 0.63086 0.0
H1960 H 0.80598 0.05499 0.61996 0.0
H1961 H 0.8025 0.07825 0.61815 0.0
H1962 H 0.81802 0.04557 0.69667 0.0
H1963 H 0.84627 0.06483 0.69788 0.0
H1964 H 0.83618 0.04323 0.68097 0.0
C1965 C 0.45221 0.34085 0.68925 0.0
C1966 C 0.4649 0.34805 0.70546 0.0
C1967 C 0.43971 0.31866 0.68538 0.0
C1968 C 0.43985 0.30342 0.69813 0.0
C1969 C 0.4533 0.31081 0.71415 0.0
C1970 C 0.46559 0.33304 0.71766 0.0
C1971 C 0.42584 0.31152 0.66798 0.0
C1972 C 0.4542 0.2952 0.7279 0.0
C1973 C 0.38911 0.24829 0.69674 0.0
C1974 C 0.39515 0.23712 0.68433 0.0
C1975 C 0.40388 0.26956 0.70219 0.0
C1976 C 0.42517 0.2798 0.69512 0.0
C1977 C 0.43181 0.26779 0.68403 0.0
C1978 C 0.41671 0.24662 0.6788 0.0
C1979 C 0.39613 0.28175 0.71406 0.0
C1980 C 0.45425 0.27792 0.6761 0.0
H1981 H 0.45162 0.35254 0.67992 0.0
H1982 H 0.47536 0.33873 0.73025 0.0
H1983 H 0.42913 0.30045 0.65961 0.0
H1984 H 0.40864 0.3025 0.67206 0.0
H1985 H 0.42854 0.32533 0.65894 0.0
H1986 H 0.4665 0.30353 0.739 0.0
H1987 H 0.4383 0.28549 0.73471 0.0
H1988 H 0.45786 0.28384 0.72043 0.0
H1989 H 0.37231 0.24133 0.7005 0.0
H1990 H 0.42125 0.23829 0.66869 0.0
H1991 H 0.39533 0.2942 0.70533 0.0
H1992 H 0.40755 0.29019 0.72571 0.0
H1993 H 0.37995 0.27099 0.72008 0.0
H1994 H 0.45573 0.28862 0.66419 0.0
H1995 H 0.45802 0.26558 0.67084 0.0
H1996 H 0.46639 0.28794 0.68679 0.0
C1997 C 0.66873 0.12417 0.68425 0.0
C1998 C 0.66311 0.11392 0.70186 0.0
C1999 C 0.68986 0.13323 0.67734 0.0
C2000 C 0.70574 0.13201 0.68826 0.0
C2001 C 0.70025 0.12216 0.70622 0.0
C2002 C 0.67911 0.11334 0.71279 0.0
C2003 C 0.69506 0.1436 0.65815 0.0
C2004 C 0.71659 0.12041 0.71839 0.0
C2005 C 0.75276 0.12913 0.66781 0.0
C2006 C 0.77022 0.14869 0.67379 0.0
C2007 C 0.73155 0.12417 0.67111 0.0
C2008 C 0.72764 0.13925 0.68054 0.0
C2009 C 0.74519 0.15991 0.68494 0.0
C2010 C 0.76639 0.16439 0.6816 0.0
C2011 C 0.7135 0.10187 0.66631 0.0
C2012 C 0.74167 0.17656 0.69469 0.0
H2013 H 0.65648 0.12465 0.67568 0.0
H2014 H 0.67509 0.10594 0.72659 0.0
H2015 H 0.70955 0.15984 0.65887 0.0
H2016 H 0.69874 0.13382 0.64841 0.0
H2017 H 0.68156 0.14511 0.65219 0.0
H2018 H 0.70989 0.11282 0.73222 0.0
H2019 H 0.72248 0.11067 0.71111 0.0
H2020 H 0.73067 0.13663 0.72085 0.0
H2021 H 0.75575 0.11687 0.66202 0.0
H2022 H 0.77985 0.17934 0.6866 0.0
H2023 H 0.70011 0.10271 0.65935 0.0
H2024 H 0.70709 0.09237 0.67943 0.0
H2025 H 0.71892 0.09312 0.65697 0.0
H2026 H 0.72824 0.17762 0.68803 0.0
H2027 H 0.75632 0.19275 0.69443 0.0
H2028 H 0.73721 0.17175 0.70956 0.0
C2029 C 0.89705 0.56206 0.69175 0.0
C2030 C 0.88763 0.54513 0.70479 0.0
C2031 C 0.88808 0.57528 0.68815 0.0
C2032 C 0.86903 0.57126 0.69759 0.0
C2033 C 0.85947 0.55413 0.71069 0.0
C2034 C 0.86893 0.54139 0.71421 0.0
C2035 C 0.89891 0.59346 0.67413 0.0
C2036 C 0.83896 0.54899 0.7207 0.0
C2037 C 0.85841 0.61833 0.69634 0.0
C2038 C 0.84608 0.61376 0.67992 0.0
C2039 C 0.86492 0.60394 0.70307 0.0
C2040 C 0.85878 0.58453 0.69321 0.0
C2041 C 0.84418 0.57875 0.67802 0.0
C2042 C 0.83777 0.59331 0.67176 0.0
C2043 C 0.88025 0.61062 0.71948 0.0
C2044 C 0.8372 0.55831 0.66701 0.0
H2045 H 0.91153 0.56505 0.68447 0.0
H2046 H 0.86138 0.52808 0.72406 0.0
H2047 H 0.88787 0.59083 0.66224 0.0
H2048 H 0.90275 0.60895 0.68081 0.0
H2049 H 0.91398 0.5949 0.66847 0.0
H2050 H 0.83386 0.53553 0.73089 0.0
H2051 H 0.84106 0.56342 0.72829 0.0
H2052 H 0.82589 0.54454 0.71029 0.0
H2053 H 0.86529 0.63426 0.70248 0.0
H2054 H 0.82862 0.5899 0.65882 0.0
H2055 H 0.89665 0.61572 0.71424 0.0
H2056 H 0.87565 0.59691 0.72926 0.0
H2057 H 0.88079 0.62424 0.72737 0.0
H2058 H 0.85083 0.56012 0.65834 0.0
H2059 H 0.8235 0.55462 0.6575 0.0
H2060 H 0.83253 0.54441 0.67657 0.0
C2061 C 0.50294 0.96717 0.15958 0.0
C2062 C 0.49338 0.97717 0.16946 0.0
C2063 C 0.5082 0.97152 0.14042 0.0
C2064 C 0.50354 0.98598 0.13069 0.0
C2065 C 0.49419 0.99639 0.14059 0.0
C2066 C 0.48942 0.99201 0.15981 0.0
C2067 C 0.51847 0.96035 0.13049 0.0
C2068 C 0.48874 0.01181 0.13081 0.0
C2069 C 0.53022 0.01216 0.08413 0.0
C2070 C 0.51441 0.99915 0.0711 0.0
C2071 C 0.5274 0.00743 0.10349 0.0
C2072 C 0.50789 0.98978 0.11004 0.0
C2073 C 0.49208 0.97629 0.09684 0.0
C2074 C 0.49569 0.98096 0.07753 0.0
C2075 C 0.54482 0.02201 0.11699 0.0
C2076 C 0.47072 0.95783 0.10317 0.0
H2077 H 0.50585 0.95545 0.16668 0.0
H2078 H 0.48245 1.00022 0.16727 0.0
H2079 H 0.50757 0.9497 0.11933 0.0
H2080 H 0.53356 0.97245 0.12355 0.0
H2081 H 0.52218 0.95049 0.14023 0.0
H2082 H 0.48199 0.01897 0.14059 0.0
H2083 H 0.50328 0.02505 0.12409 0.0
H2084 H 0.47684 0.00324 0.1195 0.0
H2085 H 0.54434 0.02666 0.07924 0.0
H2086 H 0.48304 0.97141 0.06756 0.0
H2087 H 0.54841 0.01233 0.12702 0.0
H2088 H 0.53928 0.03138 0.12532 0.0
H2089 H 0.55987 0.03351 0.10961 0.0
H2090 H 0.47318 0.94674 0.11238 0.0
H2091 H 0.46036 0.94852 0.09116 0.0
H2092 H 0.46206 0.96416 0.11154 0.0
C2093 C 0.02004 0.52491 0.16306 0.0
C2094 C 0.03701 0.52167 0.16847 0.0
C2095 C 0.01579 0.52639 0.14395 0.0
C2096 C 0.02888 0.52469 0.12995 0.0
C2097 C 0.04663 0.52245 0.13543 0.0
C2098 C 0.05046 0.52098 0.15457 0.0
C2099 C 0.99649 0.52843 0.13875 0.0
C2100 C 0.06082 0.52023 0.12106 0.0
C2101 C 1.00187 0.49693 0.08464 0.0
C2102 C 0.00939 0.51399 0.07157 0.0
C2103 C 0.00799 0.50035 0.10349 0.0
C2104 C 0.02199 0.5215 0.10984 0.0
C2105 C 0.02979 0.53895 0.09688 0.0
C2106 C 0.02359 0.53497 0.07775 0.0
C2107 C 0.9996 0.48112 0.11656 0.0
C2108 C 0.04452 0.56174 0.1033 0.0
H2109 H 0.00951 0.52536 0.17371 0.0
H2110 H 0.06384 0.51885 0.15867 0.0
H2111 H 1.00072 0.54076 0.1276 0.0
H2112 H 0.98367 0.51285 0.13308 0.0
H2113 H 0.98992 0.53279 0.15102 0.0
H2114 H 0.0753 0.52104 0.12753 0.0
H2115 H 0.05161 0.50452 0.11377 0.0
H2116 H 0.06603 0.53306 0.11025 0.0
H2117 H 0.9913 0.48051 0.08006 0.0
H2118 H 0.02953 0.54818 0.06778 0.0
H2119 H 0.99075 0.4831 0.12841 0.0
H2120 H 0.0132 0.4799 0.12262 0.0
H2121 H 0.98867 0.4657 0.10935 0.0
H2122 H 0.03641 0.56608 0.11428 0.0
H2123 H 0.0493 0.57354 0.09158 0.0
H2124 H 0.05921 0.56306 0.10975 0.0
C2125 C 0.47977 0.52747 0.1488 0.0
C2126 C 0.49215 0.52585 0.16329 0.0
C2127 C 0.48556 0.52813 0.12988 0.0
C2128 C 0.50405 0.52684 0.12526 0.0
C2129 C 0.51717 0.5262 0.1399 0.0
C2130 C 0.51114 0.52586 0.15876 0.0
C2131 C 0.47102 0.52874 0.11483 0.0
C2132 C 0.53679 0.52441 0.13562 0.0
C2133 C 0.49987 0.49584 0.08103 0.0
C2134 C 0.51225 0.51214 0.06796 0.0
C2135 C 0.49722 0.50054 0.09951 0.0
C2136 C 0.50733 0.52222 0.10545 0.0
C2137 C 0.51974 0.53894 0.0924 0.0
C2138 C 0.52187 0.53372 0.07364 0.0
C2139 C 0.4834 0.48212 0.11265 0.0
C2140 C 0.5308 0.56224 0.09832 0.0
H2141 H 0.46521 0.52772 0.15227 0.0
H2142 H 0.5207 0.52452 0.16993 0.0
H2143 H 0.48057 0.54069 0.10381 0.0
H2144 H 0.46214 0.51273 0.10796 0.0
H2145 H 0.45913 0.5328 0.12062 0.0
H2146 H 0.54665 0.52665 0.14836 0.0
H2147 H 0.53174 0.50826 0.12969 0.0
H2148 H 0.5469 0.53654 0.12493 0.0
H2149 H 0.49182 0.4791 0.07672 0.0
H2150 H 0.53129 0.54637 0.06362 0.0
H2151 H 0.46982 0.48388 0.11789 0.0
H2152 H 0.49293 0.48239 0.12503 0.0
H2153 H 0.47671 0.46614 0.10577 0.0
H2154 H 0.51883 0.56633 0.10381 0.0
H2155 H 0.53971 0.57337 0.08656 0.0
H2156 H 0.54223 0.56492 0.1099 0.0
C2157 C 0.96046 0.46745 0.86085 0.0
C2158 C 0.9744 0.48473 0.84928 0.0
C2159 C 0.96524 0.46674 0.87992 0.0
C2160 C 0.98434 0.48377 0.88769 0.0
C2161 C 0.99895 0.5007 0.87586 0.0
C2162 C 0.99385 0.50093 0.85684 0.0
C2163 C 0.9493 0.44832 0.89197 0.0
C2164 C 0.01951 0.51922 0.8835 0.0
C2165 C 0.9863 0.50066 0.9384 0.0
C2166 C 0.99993 0.49417 0.9466 0.0
C2167 C 0.98033 0.4965 0.91945 0.0
C2168 C 0.988 0.48532 0.90843 0.0
C2169 C 1.00069 0.47752 0.91699 0.0
C2170 C 0.00676 0.4823 0.93599 0.0
C2171 C 0.96708 0.50542 0.91092 0.0
C2172 C 0.00884 0.46523 0.9058 0.0
H2173 H 0.94532 0.45492 0.85522 0.0
H2174 H 1.00494 0.51411 0.84794 0.0
H2175 H 0.95763 0.44219 0.90109 0.0
H2176 H 0.94087 0.45409 0.90128 0.0
H2177 H 0.93709 0.43479 0.88339 0.0
H2178 H 0.03007 0.53001 0.8722 0.0
H2179 H 0.01563 0.52887 0.89323 0.0
H2180 H 0.02856 0.5131 0.89164 0.0
H2181 H 0.98143 0.51026 0.94658 0.0
H2182 H 0.01765 0.47769 0.94227 0.0
H2183 H 0.95304 0.49258 0.90332 0.0
H2184 H 0.97692 0.51813 0.90052 0.0
H2185 H 0.96123 0.5125 0.92164 0.0
H2186 H 0.9955 0.45205 0.89782 0.0
H2187 H 0.01642 0.45824 0.9149 0.0
H2188 H 0.0209 0.47617 0.89543 0.0
C2189 C 0.53723 0.50119 0.85898 0.0
C2190 C 0.52205 0.48804 0.84549 0.0
C2191 C 0.53154 0.50072 0.87791 0.0
C2192 C 0.51014 0.48652 0.88372 0.0
C2193 C 0.49484 0.4728 0.87031 0.0
C2194 C 0.50093 0.47377 0.85138 0.0
C2195 C 0.54838 0.51586 0.89161 0.0
C2196 C 0.47188 0.45745 0.87588 0.0
C2197 C 0.5044 0.48045 0.93709 0.0
C2198 C 0.49911 0.49632 0.94149 0.0
C2199 C 0.50652 0.47584 0.91818 0.0
C2200 C 0.50361 0.4876 0.90347 0.0
C2201 C 0.49667 0.50239 0.9079 0.0
C2202 C 0.4942 0.50627 0.92675 0.0
C2203 C 0.51334 0.45949 0.91399 0.0
C2204 C 0.49374 0.51565 0.89285 0.0
H2205 H 0.5537 0.51193 0.85474 0.0
H2206 H 0.489 0.46367 0.84111 0.0
H2207 H 0.54342 0.52698 0.89764 0.0
H2208 H 0.54995 0.50661 0.90342 0.0
H2209 H 0.56438 0.52563 0.88493 0.0
H2210 H 0.46249 0.44639 0.86427 0.0
H2211 H 0.47141 0.44772 0.88822 0.0
H2212 H 0.46394 0.4667 0.88005 0.0
H2213 H 0.50836 0.47276 0.94833 0.0
H2214 H 0.48995 0.51847 0.92999 0.0
H2215 H 0.53046 0.46795 0.9097 0.0
H2216 H 0.50381 0.44897 0.90216 0.0
H2217 H 0.51146 0.44926 0.92641 0.0
H2218 H 0.50962 0.52726 0.88679 0.0
H2219 H 0.4863 0.52488 0.89842 0.0
H2220 H 0.4836 0.50522 0.88125 0.0
C2221 C 0.4931 0.02651 0.85675 0.0
C2222 C 0.51228 0.03253 0.84701 0.0
C2223 C 0.4911 0.02159 0.87599 0.0
C2224 C 0.50859 0.02235 0.88584 0.0
C2225 C 0.52769 0.02744 0.87597 0.0
C2226 C 0.52934 0.03255 0.85669 0.0
C2227 C 0.47036 0.01592 0.88588 0.0
C2228 C 0.54655 0.02791 0.88585 0.0
C2229 C 0.5123 0.02987 0.93909 0.0
C2230 C 0.50527 0.00882 0.94531 0.0
C2231 C 0.51311 0.03448 0.91974 0.0
C2232 C 0.50674 0.01764 0.90642 0.0
C2233 C 0.49875 0.99625 0.91278 0.0
C2234 C 0.49815 0.99214 0.9321 0.0
C2235 C 0.52183 0.05752 0.9135 0.0
C2236 C 0.4919 0.97781 0.89917 0.0
H2237 H 0.47959 0.02586 0.84933 0.0
H2238 H 0.54424 0.0372 0.84936 0.0
H2239 H 0.46366 0.99993 0.89275 0.0
H2240 H 0.4735 0.02788 0.89708 0.0
H2241 H 0.45808 0.01557 0.87613 0.0
H2242 H 0.55982 0.03112 0.87602 0.0
H2243 H 0.5528 0.0406 0.89679 0.0
H2244 H 0.54139 0.01231 0.89304 0.0
H2245 H 0.51855 0.04288 0.94923 0.0
H2246 H 0.49328 0.97595 0.93691 0.0
H2247 H 0.51034 0.05868 0.90379 0.0
H2248 H 0.53705 0.06306 0.90566 0.0
H2249 H 0.52501 0.06856 0.92553 0.0
H2250 H 0.47947 0.97708 0.88943 0.0
H2251 H 0.48538 0.96202 0.90643 0.0
H2252 H 0.50582 0.98043 0.8905 0.0
C2253 C 0.17118 0.30232 0.49352 0.0
C2254 C 0.15857 0.30956 0.50256 0.0
C2255 C 0.17663 0.30676 0.4744 0.0
C2256 C 0.1691 0.31849 0.46387 0.0
C2257 C 0.15661 0.32608 0.47293 0.0
C2258 C 0.15168 0.32171 0.49211 0.0
C2259 C 0.1903 0.29873 0.46539 0.0
C2260 C 0.14816 0.33861 0.4623 0.0
C2261 C 0.1953 0.34761 0.41824 0.0
C2262 C 0.18119 0.33342 0.40468 0.0
C2263 C 0.19226 0.34242 0.43747 0.0
C2264 C 0.17422 0.32284 0.44339 0.0
C2265 C 0.16034 0.30809 0.42968 0.0
C2266 C 0.16414 0.31345 0.41047 0.0
C2267 C 0.20765 0.3585 0.45152 0.0
C2268 C 0.14059 0.28734 0.43534 0.0
H2269 H 0.17641 0.29271 0.50127 0.0
H2270 H 0.14235 0.32783 0.49893 0.0
H2271 H 0.18114 0.28722 0.454 0.0
H2272 H 0.20472 0.31239 0.45889 0.0
H2273 H 0.19561 0.29058 0.47563 0.0
H2274 H 0.13867 0.34338 0.47138 0.0
H2275 H 0.16167 0.35338 0.45611 0.0
H2276 H 0.13781 0.32874 0.45052 0.0
H2277 H 0.20814 0.3633 0.41382 0.0
H2278 H 0.15274 0.30279 0.40009 0.0
H2279 H 0.21275 0.35037 0.46193 0.0
H2280 H 0.1995 0.36576 0.45935 0.0
H2281 H 0.22216 0.37167 0.44465 0.0
H2282 H 0.14498 0.27804 0.44509 0.0
H2283 H 0.13206 0.27707 0.42305 0.0
H2284 H 0.12934 0.29104 0.44294 0.0
C2285 C 0.69765 0.83499 0.49093 0.0
C2286 C 0.69863 0.85056 0.50349 0.0
C2287 C 0.69316 0.83552 0.47178 0.0
C2288 C 0.68987 0.85222 0.46483 0.0
C2289 C 0.6909 0.86802 0.47736 0.0
C2290 C 0.69514 0.86694 0.49652 0.0
C2291 C 0.69188 0.81812 0.45899 0.0
C2292 C 0.68735 0.88598 0.47053 0.0
C2293 C 0.69551 0.8596 0.41165 0.0
C2294 C 0.67408 0.84686 0.40592 0.0
C2295 C 0.70087 0.86256 0.43091 0.0
C2296 C 0.68443 0.85248 0.4446 0.0
C2297 C 0.66271 0.841 0.43879 0.0
C2298 C 0.65784 0.83849 0.41958 0.0
C2299 C 0.7242 0.8751 0.43659 0.0
C2300 C 0.64464 0.82972 0.45277 0.0
H2301 H 0.7007 0.82248 0.496 0.0
H2302 H 0.69552 0.87887 0.50608 0.0
H2303 H 0.67591 0.80962 0.45207 0.0
H2304 H 0.70412 0.82544 0.44774 0.0
H2305 H 0.69447 0.80606 0.46665 0.0
H2306 H 0.68955 0.89752 0.48188 0.0
H2307 H 0.69868 0.89491 0.45896 0.0
H2308 H 0.67085 0.87916 0.4648 0.0
H2309 H 0.70815 0.86578 0.40119 0.0
H2310 H 0.64126 0.82848 0.41518 0.0
H2311 H 0.72929 0.86385 0.44217 0.0
H2312 H 0.72653 0.88663 0.44796 0.0
H2313 H 0.73478 0.88412 0.42459 0.0
H2314 H 0.64537 0.8159 0.45909 0.0
H2315 H 0.62861 0.82352 0.44615 0.0
H2316 H 0.64628 0.84074 0.46436 0.0
C2317 C 0.14568 0.8543 0.48329 0.0
C2318 C 0.16058 0.859 0.49784 0.0
C2319 C 0.1515 0.85497 0.4644 0.0
C2320 C 0.17289 0.86067 0.45978 0.0
C2321 C 0.18827 0.86636 0.47435 0.0
C2322 C 0.18194 0.86546 0.4932 0.0
C2323 C 0.13441 0.8484 0.44944 0.0
C2324 C 0.21119 0.87251 0.47006 0.0
C2325 C 0.17575 0.83263 0.41597 0.0
C2326 C 0.17867 0.84755 0.40179 0.0
C2327 C 0.17485 0.8371 0.43493 0.0
C2328 C 0.17803 0.85753 0.44011 0.0
C2329 C 0.18343 0.8736 0.42607 0.0
C2330 C 0.18336 0.86832 0.40691 0.0
C2331 C 0.1683 0.81912 0.44911 0.0
C2332 C 0.1878 0.89583 0.43118 0.0
H2333 H 0.12924 0.84972 0.48671 0.0
H2334 H 0.19355 0.86903 0.50434 0.0
H2335 H 0.13985 0.86085 0.43826 0.0
H2336 H 0.13148 0.83318 0.44278 0.0
H2337 H 0.11896 0.8459 0.4552 0.0
H2338 H 0.2217 0.87871 0.48264 0.0
H2339 H 0.21176 0.85826 0.46474 0.0
H2340 H 0.21775 0.88497 0.45886 0.0
H2341 H 0.17222 0.81655 0.41207 0.0
H2342 H 0.18548 0.87987 0.39605 0.0
H2343 H 0.15198 0.81417 0.45448 0.0
H2344 H 0.17938 0.82463 0.4613 0.0
H2345 H 0.16801 0.80473 0.44298 0.0
H2346 H 0.17248 0.89518 0.43484 0.0
H2347 H 0.19539 0.90742 0.41941 0.0
H2348 H 0.19844 0.9019 0.44368 0.0
C2349 C 0.61879 0.80389 0.19792 0.0
C2350 C 0.63466 0.81119 0.18404 0.0
C2351 C 0.62411 0.80444 0.217 0.0
C2352 C 0.64584 0.81246 0.22227 0.0
C2353 C 0.6617 0.81857 0.20809 0.0
C2354 C 0.65593 0.81803 0.18912 0.0
C2355 C 0.60675 0.79823 0.23156 0.0
C2356 C 0.68504 0.82728 0.21302 0.0
C2357 C 0.66461 0.84628 0.26628 0.0
C2358 C 0.66631 0.83255 0.27951 0.0
C2359 C 0.65784 0.83976 0.24788 0.0
C2360 C 0.65254 0.8188 0.24219 0.0
C2361 C 0.65372 0.80452 0.25545 0.0
C2362 C 0.66042 0.8115 0.27411 0.0
C2363 C 0.65654 0.85554 0.23448 0.0
C2364 C 0.64821 0.78207 0.24979 0.0
H2365 H 0.60236 0.79879 0.19389 0.0
H2366 H 0.66818 0.82379 0.17831 0.0
H2367 H 0.60817 0.7882 0.24275 0.0
H2368 H 0.60859 0.81301 0.2383 0.0
H2369 H 0.59042 0.78925 0.2253 0.0
H2370 H 0.69469 0.82798 0.2006 0.0
H2371 H 0.69183 0.84382 0.21874 0.0
H2372 H 0.68669 0.8172 0.22404 0.0
H2373 H 0.66853 0.86242 0.27033 0.0
H2374 H 0.66152 0.80076 0.28425 0.0
H2375 H 0.64006 0.84851 0.22866 0.0
H2376 H 0.66764 0.85895 0.22251 0.0
H2377 H 0.66075 0.87108 0.24133 0.0
H2378 H 0.63148 0.77311 0.24445 0.0
H2379 H 0.64987 0.77289 0.26166 0.0
H2380 H 0.65888 0.78291 0.23818 0.0
C2381 C 0.16921 0.80558 0.18627 0.0
C2382 C 0.19025 0.82029 0.1805 0.0
C2383 C 0.16285 0.80444 0.20514 0.0
C2384 C 0.17779 0.81844 0.21864 0.0
C2385 C 0.19912 0.83315 0.21295 0.0
C2386 C 0.20509 0.83379 0.19407 0.0
C2387 C 0.13998 0.78857 0.21055 0.0
C2388 C 0.21554 0.84866 0.22674 0.0
C2389 C 0.15829 0.83545 0.26131 0.0
C2390 C 0.16286 0.82537 0.27618 0.0
C2391 C 0.16257 0.8329 0.24258 0.0
C2392 C 0.17079 0.81911 0.23831 0.0
C2393 C 0.17365 0.80733 0.25304 0.0
C2394 C 0.16989 0.81077 0.27186 0.0
C2395 C 0.15987 0.84632 0.22755 0.0
C2396 C 0.18182 0.79202 0.24898 0.0
H2397 H 0.15751 0.79524 0.17595 0.0
H2398 H 0.2215 0.84492 0.18993 0.0
H2399 H 0.13973 0.77879 0.22278 0.0
H2400 H 0.13162 0.79737 0.21483 0.0
H2401 H 0.13084 0.77755 0.19883 0.0
H2402 H 0.23154 0.85881 0.22018 0.0
H2403 H 0.21001 0.85939 0.23263 0.0
H2404 H 0.21735 0.83966 0.23866 0.0
H2405 H 0.15284 0.84675 0.26444 0.0
H2406 H 0.17368 0.80304 0.28318 0.0
H2407 H 0.14992 0.83597 0.21583 0.0
H2408 H 0.17582 0.85801 0.22166 0.0
H2409 H 0.15229 0.85546 0.23303 0.0
H2410 H 0.17231 0.78085 0.2375 0.0
H2411 H 0.18106 0.78242 0.26155 0.0
H2412 H 0.19874 0.80123 0.24416 0.0
C2413 C 0.16404 0.35091 0.18819 0.0
C2414 C 0.18204 0.36915 0.18072 0.0
C2415 C 0.16204 0.3466 0.20757 0.0
C2416 C 0.17856 0.36069 0.21993 0.0
C2417 C 0.197 0.37888 0.2125 0.0
C2418 C 0.19847 0.38296 0.19304 0.0
C2419 C 0.14234 0.32673 0.2148 0.0
C2420 C 0.21533 0.39388 0.22509 0.0
C2421 C 0.16583 0.35585 0.27266 0.0
C2422 C 0.17277 0.34158 0.27838 0.0
C2423 C 0.16782 0.36252 0.25366 0.0
C2424 C 0.17739 0.35513 0.24032 0.0
C2425 C 0.18516 0.34147 0.24626 0.0
C2426 C 0.18266 0.33484 0.26501 0.0
C2427 C 0.15937 0.37712 0.2477 0.0
C2428 C 0.19578 0.33338 0.23275 0.0
H2429 H 0.15146 0.33982 0.17885 0.0
H2430 H 0.21237 0.39719 0.18753 0.0
H2431 H 0.14703 0.3155 0.22112 0.0
H2432 H 0.13457 0.33121 0.22599 0.0
H2433 H 0.13038 0.31808 0.20352 0.0
H2434 H 0.22826 0.40767 0.21725 0.0
H2435 H 0.20934 0.40022 0.23633 0.0
H2436 H 0.22234 0.38492 0.23207 0.0
H2437 H 0.15845 0.36136 0.28285 0.0
H2438 H 0.1887 0.32427 0.26918 0.0
H2439 H 0.14683 0.36906 0.23676 0.0
H2440 H 0.17249 0.39209 0.24138 0.0
H2441 H 0.15237 0.38149 0.25962 0.0
H2442 H 0.18383 0.32247 0.22232 0.0
H2443 H 0.20269 0.32445 0.23999 0.0
H2444 H 0.2088 0.34702 0.22488 0.0
C2445 C 0.83578 0.63414 0.82507 0.0
C2446 C 0.82758 0.64504 0.83553 0.0
C2447 C 0.84115 0.63891 0.80597 0.0
C2448 C 0.83799 0.65475 0.79691 0.0
C2449 C 0.82994 0.66598 0.8074 0.0
C2450 C 0.82505 0.66115 0.82654 0.0
C2451 C 0.84994 0.62676 0.79539 0.0
C2452 C 0.82601 0.6828 0.7983 0.0
C2453 C 0.86573 0.68162 0.75087 0.0
C2454 C 0.84961 0.66978 0.73768 0.0
C2455 C 0.8626 0.67618 0.7701 0.0
C2456 C 0.8425 0.65916 0.77636 0.0
C2457 C 0.82629 0.64698 0.76299 0.0
C2458 C 0.83019 0.65222 0.74381 0.0
C2459 C 0.88048 0.68925 0.7838 0.0
C2460 C 0.80434 0.6293 0.76902 0.0
H2461 H 0.83754 0.62145 0.83166 0.0
H2462 H 0.81913 0.67001 0.83446 0.0
H2463 H 0.83861 0.61704 0.78409 0.0
H2464 H 0.86538 0.63827 0.78858 0.0
H2465 H 0.85263 0.61582 0.80467 0.0
H2466 H 0.81996 0.69029 0.80845 0.0
H2467 H 0.84106 0.69569 0.79195 0.0
H2468 H 0.81409 0.67537 0.7868 0.0
H2469 H 0.88049 0.69558 0.74621 0.0
H2470 H 0.8174 0.64357 0.7337 0.0
H2471 H 0.88314 0.67842 0.79323 0.0
H2472 H 0.87595 0.699 0.79275 0.0
H2473 H 0.8958 0.7003 0.77656 0.0
H2474 H 0.80578 0.61716 0.77765 0.0
H2475 H 0.79366 0.62102 0.75687 0.0
H2476 H 0.79658 0.63619 0.77791 0.0
C2477 C 0.37285 0.17361 0.82355 0.0
C2478 C 0.36786 0.18459 0.83716 0.0
C2479 C 0.36805 0.17411 0.80449 0.0
C2480 C 0.35824 0.18613 0.79871 0.0
C2481 C 0.35376 0.1978 0.81225 0.0
C2482 C 0.35854 0.19684 0.8313 0.0
C2483 C 0.37281 0.16111 0.79063 0.0
C2484 C 0.34328 0.21076 0.80669 0.0
C2485 C 0.3581 0.19333 0.74546 0.0
C2486 C 0.33786 0.17597 0.74074 0.0
C2487 C 0.36452 0.19787 0.76447 0.0
C2488 C 0.35061 0.18443 0.7789 0.0
C2489 C 0.32974 0.16782 0.77417 0.0
C2490 C 0.32351 0.16419 0.7553 0.0
C2491 C 0.38662 0.21623 0.76906 0.0
C2492 C 0.31452 0.15261 0.78887 0.0
H2493 H 0.38047 0.16448 0.82782 0.0
H2494 H 0.35446 0.20525 0.84168 0.0
H2495 H 0.35759 0.14844 0.78429 0.0
H2496 H 0.38297 0.1716 0.77904 0.0
H2497 H 0.38115 0.15323 0.79727 0.0
H2498 H 0.34298 0.22077 0.81845 0.0
H2499 H 0.35191 0.22144 0.79462 0.0
H2500 H 0.32651 0.19976 0.80211 0.0
H2501 H 0.36932 0.20251 0.73438 0.0
H2502 H 0.30771 0.15089 0.75188 0.0
H2503 H 0.39707 0.20971 0.77357 0.0
H2504 H 0.38582 0.22585 0.7809 0.0
H2505 H 0.39421 0.22703 0.7568 0.0
H2506 H 0.32125 0.14293 0.79495 0.0
H2507 H 0.29838 0.14136 0.78301 0.0
H2508 H 0.31261 0.16174 0.80052 0.0
C2509 C 0.82657 0.20553 0.81937 0.0
C2510 C 0.83164 0.19404 0.83243 0.0
C2511 C 0.83096 0.20541 0.80016 0.0
C2512 C 0.84098 0.19381 0.79389 0.0
C2513 C 0.84756 0.18352 0.80726 0.0
C2514 C 0.84255 0.18352 0.82634 0.0
C2515 C 0.82314 0.2161 0.78643 0.0
C2516 C 0.85845 0.17113 0.80127 0.0
C2517 C 0.82121 0.16392 0.74802 0.0
C2518 C 0.83824 0.17596 0.73554 0.0
C2519 C 0.822 0.16974 0.76679 0.0
C2520 C 0.84024 0.18846 0.77354 0.0
C2521 C 0.85726 0.20138 0.76096 0.0
C2522 C 0.85606 0.195 0.74196 0.0
C2523 C 0.80338 0.15539 0.77949 0.0
C2524 C 0.87686 0.22153 0.76774 0.0
H2525 H 0.81798 0.21354 0.82403 0.0
H2526 H 0.84666 0.17479 0.83645 0.0
H2527 H 0.83559 0.22536 0.77572 0.0
H2528 H 0.80877 0.20355 0.77894 0.0
H2529 H 0.81868 0.22709 0.79355 0.0
H2530 H 0.86575 0.16725 0.81337 0.0
H2531 H 0.84649 0.15579 0.79457 0.0
H2532 H 0.87114 0.18044 0.79075 0.0
H2533 H 0.80708 0.14942 0.74315 0.0
H2534 H 0.86924 0.2044 0.73242 0.0
H2535 H 0.79688 0.16486 0.78627 0.0
H2536 H 0.80895 0.14865 0.79081 0.0
H2537 H 0.7901 0.14174 0.77181 0.0
H2538 H 0.87207 0.23259 0.77416 0.0
H2539 H 0.88844 0.23015 0.75622 0.0
H2540 H 0.88505 0.21733 0.77882 0.0
C2541 C 0.32605 0.16262 0.52412 0.0
C2542 C 0.30448 0.15197 0.51849 0.0
C2543 C 0.33169 0.1627 0.54304 0.0
C2544 C 0.31533 0.15227 0.5567 0.0
C2545 C 0.29352 0.14118 0.551 0.0
C2546 C 0.28837 0.14099 0.53192 0.0
C2547 C 0.35513 0.17462 0.5485 0.0
C2548 C 0.27559 0.13048 0.56515 0.0
C2549 C 0.33208 0.14456 0.60587 0.0
C2550 C 0.33507 0.16326 0.61474 0.0
C2551 C 0.3251 0.14037 0.587 0.0
C2552 C 0.32097 0.15517 0.57706 0.0
C2553 C 0.32309 0.17353 0.5864 0.0
C2554 C 0.33009 0.17731 0.60505 0.0
C2555 C 0.32297 0.12063 0.57747 0.0
C2556 C 0.31876 0.18971 0.5765 0.0
H2557 H 0.33851 0.17103 0.51371 0.0
H2558 H 0.27167 0.13298 0.5276 0.0
H2559 H 0.35864 0.18907 0.55686 0.0
H2560 H 0.35896 0.16426 0.55744 0.0
H2561 H 0.36589 0.17992 0.53605 0.0
H2562 H 0.25962 0.12101 0.55834 0.0
H2563 H 0.27834 0.11965 0.57448 0.0
H2564 H 0.27531 0.14295 0.57417 0.0
H2565 H 0.33596 0.13375 0.61339 0.0
H2566 H 0.33227 0.19172 0.61202 0.0
H2567 H 0.33508 0.12561 0.56609 0.0
H2568 H 0.3069 0.11129 0.57084 0.0
H2569 H 0.32531 0.10997 0.5874 0.0
H2570 H 0.33079 0.19789 0.56521 0.0
H2571 H 0.31954 0.20219 0.58621 0.0
H2572 H 0.30268 0.18145 0.56978 0.0
C2573 C 0.83541 0.14046 0.5191 0.0
C2574 C 0.85699 0.15305 0.51365 0.0
C2575 C 0.82921 0.1394 0.538 0.0
C2576 C 0.84491 0.15132 0.55183 0.0
C2577 C 0.86677 0.16367 0.54648 0.0
C2578 C 0.87253 0.16427 0.52754 0.0
C2579 C 0.80575 0.12608 0.54307 0.0
C2580 C 0.88405 0.17693 0.56064 0.0
C2581 C 0.82936 0.17219 0.59439 0.0
C2582 C 0.83132 0.16024 0.60925 0.0
C2583 C 0.83333 0.16913 0.57574 0.0
C2584 C 0.83839 0.15291 0.57145 0.0
C2585 C 0.83866 0.13952 0.58609 0.0
C2586 C 0.83543 0.14353 0.6049 0.0
C2587 C 0.83352 0.18429 0.5608 0.0
C2588 C 0.84325 0.12157 0.58194 0.0
H2589 H 0.82324 0.13187 0.50851 0.0
H2590 H 0.8893 0.17369 0.5236 0.0
H2591 H 0.80368 0.11556 0.55529 0.0
H2592 H 0.79951 0.13686 0.54721 0.0
H2593 H 0.7959 0.11589 0.5312 0.0
H2594 H 0.90039 0.18491 0.55437 0.0
H2595 H 0.8811 0.18954 0.56656 0.0
H2596 H 0.88361 0.16662 0.57248 0.0
H2597 H 0.82603 0.18506 0.59745 0.0
H2598 H 0.837 0.1342 0.61618 0.0
H2599 H 0.82265 0.17508 0.54907 0.0
H2600 H 0.84995 0.19387 0.5549 0.0
H2601 H 0.82856 0.19563 0.56636 0.0
H2602 H 0.83275 0.11136 0.57037 0.0
H2603 H 0.84073 0.11124 0.59444 0.0
H2604 H 0.86011 0.12845 0.57719 0.0
C2605 C 0.82617 0.68664 0.52251 0.0
C2606 C 0.84635 0.69878 0.51389 0.0
C2607 C 0.8243 0.68184 0.54179 0.0
C2608 C 0.84305 0.68899 0.55281 0.0
C2609 C 0.86349 0.70051 0.54412 0.0
C2610 C 0.8649 0.70538 0.52481 0.0
C2611 C 0.80222 0.66925 0.55041 0.0
C2612 C 0.88389 0.70785 0.55525 0.0
C2613 C 0.84115 0.69351 0.60622 0.0
C2614 C 0.8409 0.6747 0.61202 0.0
C2615 C 0.84127 0.69816 0.58691 0.0
C2616 C 0.84124 0.68369 0.57327 0.0
C2617 C 0.83998 0.66424 0.5792 0.0
C2618 C 0.8397 0.65997 0.59843 0.0
C2619 C 0.8425 0.71902 0.58109 0.0
C2620 C 0.84013 0.64842 0.56527 0.0
H2621 H 0.8117 0.68092 0.51417 0.0
H2622 H 0.88057 0.71485 0.51841 0.0
H2623 H 0.80011 0.65424 0.55695 0.0
H2624 H 0.80043 0.67888 0.56171 0.0
H2625 H 0.78921 0.66488 0.53993 0.0
H2626 H 0.89849 0.71619 0.54635 0.0
H2627 H 0.88497 0.71898 0.56656 0.0
H2628 H 0.8837 0.69382 0.56212 0.0
H2629 H 0.8426 0.70515 0.61667 0.0
H2630 H 0.83976 0.6455 0.60292 0.0
H2631 H 0.82961 0.71582 0.57081 0.0
H2632 H 0.85809 0.72953 0.57405 0.0
H2633 H 0.84099 0.72785 0.59326 0.0
H2634 H 0.82693 0.64355 0.55494 0.0
H2635 H 0.83837 0.6337 0.5722 0.0
H2636 H 0.85544 0.65618 0.5573 0.0
loop_
_geom_bond_atom_site_label_1
_geom_bond_atom_site_label_2
_geom_bond_distance
_geom_bond_site_symmetry_2
_ccdc_geom_bond_type
C0 C1 1.264 . S
C0 C5 1.479 . S
C0 C10 1.465 . S
C1 C0 1.264 . S
C1 C3 1.339 . S
C1 H28 0.931 . S
C2 C3 1.395 . S
C2 C4 1.320 . S
C3 C1 1.339 . S
C3 C2 1.395 . S
C3 H29 0.929 . S
C4 C2 1.320 . S
C4 C5 1.405 . S
C4 H30 0.930 . S
C5 C0 1.479 . S
C5 C4 1.405 . S
C5 H31 0.931 . S
U6 O7 2.454 . S
U6 O8 2.458 . S
U6 C9 2.984 . S
U6 C10 2.847 . S
U6 C23 2.882 . S
U6 O24 2.441 . S
U6 O25 2.420 . S
U6 O26 2.455 . S
U6 O27 2.449 . S
O7 U6 2.454 . S
O7 C9 1.353 . S
O8 U6 2.458 . S
O8 C9 1.286 . S
C9 U6 2.984 . S
C9 O7 1.353 . S
C9 O8 1.286 . S
C9 C11 1.363 . S
C10 C0 1.465 . S
C10 U6 2.847 . S
C10 O24 1.249 . S
C10 O25 1.202 . S
C11 C9 1.363 . S
C11 C13 1.408 . S
C11 C16 1.342 . S
C12 C13 1.310 . S
C12 C15 1.461 . S
C12 H32 0.932 . S
C13 C11 1.408 . S
C13 C12 1.310 . S
C13 H33 0.930 . S
C14 C15 1.474 . S
C14 C16 1.285 . S
C14 H34 0.929 . S
C15 C12 1.461 . S
C15 C14 1.474 . S
C16 C11 1.342 . S
C16 C14 1.285 . S
C16 H35 0.930 . S
C17 C20 1.424 . S
C17 C22 1.245 . S
C17 C23 1.428 . S
C18 C21 1.260 . S
C18 C22 1.477 . S
C18 H36 0.932 . S
C19 C20 1.384 . S
C19 C21 1.479 . S
C19 H37 0.929 . S
C20 C17 1.424 . S
C20 C19 1.384 . S
C20 H38 0.928 . S
C21 C18 1.260 . S
C21 C19 1.479 . S
C22 C17 1.245 . S
C22 C18 1.477 . S
C22 H39 0.932 . S
C23 U6 2.882 . S
C23 C17 1.428 . S
C23 O26 1.301 . S
C23 O27 1.282 . S
O24 U6 2.441 . S
O24 C10 1.249 . S
O25 U6 2.420 . S
O25 C10 1.202 . S
O26 U6 2.455 . S
O26 C23 1.301 . S
O27 U6 2.449 . S
O27 C23 1.282 . S
H28 C1 0.931 . S
H29 C3 0.929 . S
H30 C4 0.930 . S
H31 C5 0.931 . S
H32 C12 0.932 . S
H33 C13 0.930 . S
H34 C14 0.929 . S
H35 C16 0.930 . S
H36 C18 0.932 . S
H37 C19 0.929 . S
H38 C20 0.928 . S
H39 C22 0.932 . S
C40 C41 1.264 . S
C40 C45 1.479 . S
C40 C50 1.465 . S
C41 C40 1.264 . S
C41 C43 1.339 . S
C41 H68 0.931 . S
C42 C43 1.395 . S
C42 C44 1.320 . S
C43 C41 1.339 . S
C43 C42 1.395 . S
C43 H69 0.929 . S
C44 C42 1.320 . S
C44 C45 1.405 . S
C44 H70 0.930 . S
C45 C40 1.479 . S
C45 C44 1.405 . S
C45 H71 0.931 . S
U46 O47 2.454 . S
U46 O48 2.458 . S
U46 C49 2.984 . S
U46 C50 2.847 . S
U46 C63 2.882 . S
U46 O64 2.441 . S
U46 O65 2.420 . S
U46 O66 2.455 . S
U46 O67 2.449 . S
O47 U46 2.454 . S
O47 C49 1.353 . S
O48 U46 2.458 . S
O48 C49 1.286 . S
C49 U46 2.984 . S
C49 O47 1.353 . S
C49 O48 1.286 . S
C49 C51 1.363 . S
C50 C40 1.465 . S
C50 U46 2.847 . S
C50 O64 1.249 . S
C50 O65 1.202 . S
C51 C49 1.363 . S
C51 C53 1.408 . S
C51 C56 1.342 . S
C52 C53 1.310 . S
C52 C55 1.461 . S
C52 H72 0.932 . S
C53 C51 1.408 . S
C53 C52 1.310 . S
C53 H73 0.930 . S
C54 C55 1.474 . S
C54 C56 1.285 . S
C54 H74 0.929 . S
C55 C52 1.461 . S
C55 C54 1.474 . S
C56 C51 1.342 . S
C56 C54 1.285 . S
C56 H75 0.930 . S
C57 C60 1.424 . S
C57 C62 1.245 . S
C57 C63 1.428 . S
C58 C61 1.260 . S
C58 C62 1.477 . S
C58 H76 0.932 . S
C59 C60 1.384 . S
C59 C61 1.479 . S
C59 H77 0.929 . S
C60 C57 1.424 . S
C60 C59 1.384 . S
C60 H78 0.928 . S
C61 C58 1.260 . S
C61 C59 1.479 . S
C62 C57 1.245 . S
C62 C58 1.477 . S
C62 H79 0.932 . S
C63 U46 2.882 . S
C63 C57 1.428 . S
C63 O66 1.301 . S
C63 O67 1.282 . S
O64 U46 2.441 . S
O64 C50 1.249 . S
O65 U46 2.420 . S
O65 C50 1.202 . S
O66 U46 2.455 . S
O66 C63 1.301 . S
O67 U46 2.449 . S
O67 C63 1.282 . S
H68 C41 0.931 . S
H69 C43 0.929 . S
H70 C44 0.930 . S
H71 C45 0.931 . S
H72 C52 0.932 . S
H73 C53 0.930 . S
H74 C54 0.929 . S
H75 C56 0.930 . S
H76 C58 0.932 . S
H77 C59 0.929 . S
H78 C60 0.928 . S
H79 C62 0.932 . S
C80 C81 1.264 . S
C80 C85 1.479 . S
C80 C90 1.465 . S
C81 C80 1.264 . S
C81 C83 1.339 . S
C81 H108 0.931 . S
C82 C83 1.395 . S
C82 C84 1.320 . S
C83 C81 1.339 . S
C83 C82 1.395 . S
C83 H109 0.929 . S
C84 C82 1.320 . S
C84 C85 1.405 . S
C84 H110 0.930 . S
C85 C80 1.479 . S
C85 C84 1.405 . S
C85 H111 0.931 . S
U86 O87 2.454 . S
U86 O88 2.458 . S
U86 C89 2.984 . S
U86 C90 2.847 . S
U86 C103 2.882 . S
U86 O104 2.441 . S
U86 O105 2.420 . S
U86 O106 2.455 . S
U86 O107 2.449 . S
O87 U86 2.454 . S
O87 C89 1.353 . S
O88 U86 2.458 . S
O88 C89 1.286 . S
C89 U86 2.984 . S
C89 O87 1.353 . S
C89 O88 1.286 . S
C89 C91 1.363 . S
C90 C80 1.465 . S
C90 U86 2.847 . S
C90 O104 1.249 . S
C90 O105 1.202 . S
C91 C89 1.363 . S
C91 C93 1.408 . S
C91 C96 1.342 . S
C92 C93 1.310 . S
C92 C95 1.461 . S
C92 H112 0.932 . S
C93 C91 1.408 . S
C93 C92 1.310 . S
C93 H113 0.930 . S
C94 C95 1.474 . S
C94 C96 1.285 . S
C94 H114 0.929 . S
C95 C92 1.461 . S
C95 C94 1.474 . S
C96 C91 1.342 . S
C96 C94 1.285 . S
C96 H115 0.930 . S
C97 C100 1.424 . S
C97 C102 1.245 . S
C97 C103 1.428 . S
C98 C101 1.260 . S
C98 C102 1.477 . S
C98 H116 0.932 . S
C99 C100 1.384 . S
C99 C101 1.479 . S
C99 H117 0.929 . S
C100 C97 1.424 . S
C100 C99 1.384 . S
C100 H118 0.928 . S
C101 C98 1.260 . S
C101 C99 1.479 . S
C102 C97 1.245 . S
C102 C98 1.477 . S
C102 H119 0.932 . S
C103 U86 2.882 . S
C103 C97 1.428 . S
C103 O106 1.301 . S
C103 O107 1.282 . S
O104 U86 2.441 . S
O104 C90 1.249 . S
O105 U86 2.420 . S
O105 C90 1.202 . S
O106 U86 2.455 . S
O106 C103 1.301 . S
O107 U86 2.449 . S
O107 C103 1.282 . S
H108 C81 0.931 . S
H109 C83 0.929 . S
H110 C84 0.930 . S
H111 C85 0.931 . S
H112 C92 0.932 . S
H113 C93 0.930 . S
H114 C94 0.929 . S
H115 C96 0.930 . S
H116 C98 0.932 . S
H117 C99 0.929 . S
H118 C100 0.928 . S
H119 C102 0.932 . S
C120 C121 1.264 . S
C120 C125 1.479 . S
C120 C130 1.465 . S
C121 C120 1.264 . S
C121 C123 1.339 . S
C121 H148 0.931 . S
C122 C123 1.395 . S
C122 C124 1.320 . S
C123 C121 1.339 . S
C123 C122 1.395 . S
C123 H149 0.929 . S
C124 C122 1.320 . S
C124 C125 1.405 . S
C124 H150 0.930 . S
C125 C120 1.479 . S
C125 C124 1.405 . S
C125 H151 0.931 . S
U126 O127 2.454 . S
U126 O128 2.458 . S
U126 C129 2.984 . S
U126 C130 2.847 . S
U126 C143 2.882 . S
U126 O144 2.441 . S
U126 O145 2.420 . S
U126 O146 2.455 . S
U126 O147 2.449 . S
O127 U126 2.454 . S
O127 C129 1.353 . S
O128 U126 2.458 . S
O128 C129 1.286 . S
C129 U126 2.984 . S
C129 O127 1.353 . S
C129 O128 1.286 . S
C129 C131 1.363 . S
C130 C120 1.465 . S
C130 U126 2.847 . S
C130 O144 1.249 . S
C130 O145 1.202 . S
C131 C129 1.363 . S
C131 C133 1.408 . S
C131 C136 1.342 . S
C132 C133 1.310 . S
C132 C135 1.461 . S
C132 H152 0.932 . S
C133 C131 1.408 . S
C133 C132 1.310 . S
C133 H153 0.930 . S
C134 C135 1.474 . S
C134 C136 1.285 . S
C134 H154 0.929 . S
C135 C132 1.461 . S
C135 C134 1.474 . S
C136 C131 1.342 . S
C136 C134 1.285 . S
C136 H155 0.930 . S
C137 C140 1.424 . S
C137 C142 1.245 . S
C137 C143 1.428 . S
C138 C141 1.260 . S
C138 C142 1.477 . S
C138 H156 0.932 . S
C139 C140 1.384 . S
C139 C141 1.479 . S
C139 H157 0.929 . S
C140 C137 1.424 . S
C140 C139 1.384 . S
C140 H158 0.928 . S
C141 C138 1.260 . S
C141 C139 1.479 . S
C142 C137 1.245 . S
C142 C138 1.477 . S
C142 H159 0.932 . S
C143 U126 2.882 . S
C143 C137 1.428 . S
C143 O146 1.301 . S
C143 O147 1.282 . S
O144 U126 2.441 . S
O144 C130 1.249 . S
O145 U126 2.420 . S
O145 C130 1.202 . S
O146 U126 2.455 . S
O146 C143 1.301 . S
O147 U126 2.449 . S
O147 C143 1.282 . S
H148 C121 0.931 . S
H149 C123 0.929 . S
H150 C124 0.930 . S
H151 C125 0.931 . S
H152 C132 0.932 . S
H153 C133 0.930 . S
H154 C134 0.929 . S
H155 C136 0.930 . S
H156 C138 0.932 . S
H157 C139 0.929 . S
H158 C140 0.928 . S
H159 C142 0.932 . S
C160 C161 1.264 . S
C160 C165 1.479 . S
C160 C170 1.465 . S
C161 C160 1.264 . S
C161 C163 1.339 . S
C161 H188 0.931 . S
C162 C163 1.395 . S
C162 C164 1.320 . S
C163 C161 1.339 . S
C163 C162 1.395 . S
C163 H189 0.929 . S
C164 C162 1.320 . S
C164 C165 1.405 . S
C164 H190 0.930 . S
C165 C160 1.479 . S
C165 C164 1.405 . S
C165 H191 0.931 . S
U166 O167 2.454 . S
U166 O168 2.458 . S
U166 C169 2.984 . S
U166 C170 2.847 . S
U166 C183 2.882 . S
U166 O184 2.441 . S
U166 O185 2.420 . S
U166 O186 2.455 . S
U166 O187 2.449 . S
O167 U166 2.454 . S
O167 C169 1.353 . S
O168 U166 2.458 . S
O168 C169 1.286 . S
C169 U166 2.984 . S
C169 O167 1.353 . S
C169 O168 1.286 . S
C169 C171 1.363 . S
C170 C160 1.465 . S
C170 U166 2.847 . S
C170 O184 1.249 . S
C170 O185 1.202 . S
C171 C169 1.363 . S
C171 C173 1.408 . S
C171 C176 1.342 . S
C172 C173 1.310 . S
C172 C175 1.461 . S
C172 H192 0.932 . S
C173 C171 1.408 . S
C173 C172 1.310 . S
C173 H193 0.930 . S
C174 C175 1.474 . S
C174 C176 1.285 . S
C174 H194 0.929 . S
C175 C172 1.461 . S
C175 C174 1.474 . S
C176 C171 1.342 . S
C176 C174 1.285 . S
C176 H195 0.930 . S
C177 C180 1.424 . S
C177 C182 1.245 . S
C177 C183 1.428 . S
C178 C181 1.260 . S
C178 C182 1.477 . S
C178 H196 0.932 . S
C179 C180 1.384 . S
C179 C181 1.479 . S
C179 H197 0.929 . S
C180 C177 1.424 . S
C180 C179 1.384 . S
C180 H198 0.928 . S
C181 C178 1.260 . S
C181 C179 1.479 . S
C182 C177 1.245 . S
C182 C178 1.477 . S
C182 H199 0.932 . S
C183 U166 2.882 . S
C183 C177 1.428 . S
C183 O186 1.301 . S
C183 O187 1.282 . S
O184 U166 2.441 . S
O184 C170 1.249 . S
O185 U166 2.420 . S
O185 C170 1.202 . S
O186 U166 2.455 . S
O186 C183 1.301 . S
O187 U166 2.449 . S
O187 C183 1.282 . S
H188 C161 0.931 . S
H189 C163 0.929 . S
H190 C164 0.930 . S
H191 C165 0.931 . S
H192 C172 0.932 . S
H193 C173 0.930 . S
H194 C174 0.929 . S
H195 C176 0.930 . S
H196 C178 0.932 . S
H197 C179 0.929 . S
H198 C180 0.928 . S
H199 C182 0.932 . S
C200 C201 1.264 . S
C200 C205 1.479 . S
C200 C210 1.465 . S
C201 C200 1.264 . S
C201 C203 1.339 . S
C201 H228 0.931 . S
C202 C203 1.395 . S
C202 C204 1.320 . S
C203 C201 1.339 . S
C203 C202 1.395 . S
C203 H229 0.929 . S
C204 C202 1.320 . S
C204 C205 1.405 . S
C204 H230 0.930 . S
C205 C200 1.479 . S
C205 C204 1.405 . S
C205 H231 0.931 . S
U206 O207 2.454 . S
U206 O208 2.458 . S
U206 C209 2.984 . S
U206 C210 2.847 . S
U206 C223 2.882 . S
U206 O224 2.441 . S
U206 O225 2.420 . S
U206 O226 2.455 . S
U206 O227 2.449 . S
O207 U206 2.454 . S
O207 C209 1.353 . S
O208 U206 2.458 . S
O208 C209 1.286 . S
C209 U206 2.984 . S
C209 O207 1.353 . S
C209 O208 1.286 . S
C209 C211 1.363 . S
C210 C200 1.465 . S
C210 U206 2.847 . S
C210 O224 1.249 . S
C210 O225 1.202 . S
C211 C209 1.363 . S
C211 C213 1.408 . S
C211 C216 1.342 . S
C212 C213 1.310 . S
C212 C215 1.461 . S
C212 H232 0.932 . S
C213 C211 1.408 . S
C213 C212 1.310 . S
C213 H233 0.930 . S
C214 C215 1.474 . S
C214 C216 1.285 . S
C214 H234 0.929 . S
C215 C212 1.461 . S
C215 C214 1.474 . S
C216 C211 1.342 . S
C216 C214 1.285 . S
C216 H235 0.930 . S
C217 C220 1.424 . S
C217 C222 1.245 . S
C217 C223 1.428 . S
C218 C221 1.260 . S
C218 C222 1.477 . S
C218 H236 0.932 . S
C219 C220 1.384 . S
C219 C221 1.479 . S
C219 H237 0.929 . S
C220 C217 1.424 . S
C220 C219 1.384 . S
C220 H238 0.928 . S
C221 C218 1.260 . S
C221 C219 1.479 . S
C222 C217 1.245 . S
C222 C218 1.477 . S
C222 H239 0.932 . S
C223 U206 2.882 . S
C223 C217 1.428 . S
C223 O226 1.301 . S
C223 O227 1.282 . S
O224 U206 2.441 . S
O224 C210 1.249 . S
O225 U206 2.420 . S
O225 C210 1.202 . S
O226 U206 2.455 . S
O226 C223 1.301 . S
O227 U206 2.449 . S
O227 C223 1.282 . S
H228 C201 0.931 . S
H229 C203 0.929 . S
H230 C204 0.930 . S
H231 C205 0.931 . S
H232 C212 0.932 . S
H233 C213 0.930 . S
H234 C214 0.929 . S
H235 C216 0.930 . S
H236 C218 0.932 . S
H237 C219 0.929 . S
H238 C220 0.928 . S
H239 C222 0.932 . S
C240 C241 1.264 . S
C240 C245 1.479 . S
C240 C250 1.465 . S
C241 C240 1.264 . S
C241 C243 1.339 . S
C241 H268 0.931 . S
C242 C243 1.395 . S
C242 C244 1.320 . S
C243 C241 1.339 . S
C243 C242 1.395 . S
C243 H269 0.929 . S
C244 C242 1.320 . S
C244 C245 1.405 . S
C244 H270 0.930 . S
C245 C240 1.479 . S
C245 C244 1.405 . S
C245 H271 0.931 . S
U246 O247 2.454 . S
U246 O248 2.458 . S
U246 C249 2.984 . S
U246 C250 2.847 . S
U246 C263 2.882 . S
U246 O264 2.441 . S
U246 O265 2.420 . S
U246 O266 2.455 . S
U246 O267 2.449 . S
O247 U246 2.454 . S
O247 C249 1.353 . S
O248 U246 2.458 . S
O248 C249 1.286 . S
C249 U246 2.984 . S
C249 O247 1.353 . S
C249 O248 1.286 . S
C249 C251 1.363 . S
C250 C240 1.465 . S
C250 U246 2.847 . S
C250 O264 1.249 . S
C250 O265 1.202 . S
C251 C249 1.363 . S
C251 C253 1.408 . S
C251 C256 1.342 . S
C252 C253 1.310 . S
C252 C255 1.461 . S
C252 H272 0.932 . S
C253 C251 1.408 . S
C253 C252 1.310 . S
C253 H273 0.930 . S
C254 C255 1.474 . S
C254 C256 1.285 . S
C254 H274 0.929 . S
C255 C252 1.461 . S
C255 C254 1.474 . S
C256 C251 1.342 . S
C256 C254 1.285 . S
C256 H275 0.930 . S
C257 C260 1.424 . S
C257 C262 1.245 . S
C257 C263 1.428 . S
C258 C261 1.260 . S
C258 C262 1.477 . S
C258 H276 0.932 . S
C259 C260 1.384 . S
C259 C261 1.479 . S
C259 H277 0.929 . S
C260 C257 1.424 . S
C260 C259 1.384 . S
C260 H278 0.928 . S
C261 C258 1.260 . S
C261 C259 1.479 . S
C262 C257 1.245 . S
C262 C258 1.477 . S
C262 H279 0.932 . S
C263 U246 2.882 . S
C263 C257 1.428 . S
C263 O266 1.301 . S
C263 O267 1.282 . S
O264 U246 2.441 . S
O264 C250 1.249 . S
O265 U246 2.420 . S
O265 C250 1.202 . S
O266 U246 2.455 . S
O266 C263 1.301 . S
O267 U246 2.449 . S
O267 C263 1.282 . S
H268 C241 0.931 . S
H269 C243 0.929 . S
H270 C244 0.930 . S
H271 C245 0.931 . S
H272 C252 0.932 . S
H273 C253 0.930 . S
H274 C254 0.929 . S
H275 C256 0.930 . S
H276 C258 0.932 . S
H277 C259 0.929 . S
H278 C260 0.928 . S
H279 C262 0.932 . S
C280 C281 1.264 . S
C280 C285 1.479 . S
C280 C290 1.465 . S
C281 C280 1.264 . S
C281 C283 1.339 . S
C281 H308 0.931 . S
C282 C283 1.395 . S
C282 C284 1.320 . S
C283 C281 1.339 . S
C283 C282 1.395 . S
C283 H309 0.929 . S
C284 C282 1.320 . S
C284 C285 1.405 . S
C284 H310 0.930 . S
C285 C280 1.479 . S
C285 C284 1.405 . S
C285 H311 0.931 . S
U286 O287 2.454 . S
U286 O288 2.458 . S
U286 C289 2.984 . S
U286 C290 2.847 . S
U286 C303 2.882 . S
U286 O304 2.441 . S
U286 O305 2.420 . S
U286 O306 2.455 . S
U286 O307 2.449 . S
O287 U286 2.454 . S
O287 C289 1.353 . S
O288 U286 2.458 . S
O288 C289 1.286 . S
C289 U286 2.984 . S
C289 O287 1.353 . S
C289 O288 1.286 . S
C289 C291 1.363 . S
C290 C280 1.465 . S
C290 U286 2.847 . S
C290 O304 1.249 . S
C290 O305 1.202 . S
C291 C289 1.363 . S
C291 C293 1.408 . S
C291 C296 1.342 . S
C292 C293 1.310 . S
C292 C295 1.461 . S
C292 H312 0.932 . S
C293 C291 1.408 . S
C293 C292 1.310 . S
C293 H313 0.930 . S
C294 C295 1.474 . S
C294 C296 1.285 . S
C294 H314 0.929 . S
C295 C292 1.461 . S
C295 C294 1.474 . S
C296 C291 1.342 . S
C296 C294 1.285 . S
C296 H315 0.930 . S
C297 C300 1.424 . S
C297 C302 1.245 . S
C297 C303 1.428 . S
C298 C301 1.260 . S
C298 C302 1.477 . S
C298 H316 0.932 . S
C299 C300 1.384 . S
C299 C301 1.479 . S
C299 H317 0.929 . S
C300 C297 1.424 . S
C300 C299 1.384 . S
C300 H318 0.928 . S
C301 C298 1.260 . S
C301 C299 1.479 . S
C302 C297 1.245 . S
C302 C298 1.477 . S
C302 H319 0.932 . S
C303 U286 2.882 . S
C303 C297 1.428 . S
C303 O306 1.301 . S
C303 O307 1.282 . S
O304 U286 2.441 . S
O304 C290 1.249 . S
O305 U286 2.420 . S
O305 C290 1.202 . S
O306 U286 2.455 . S
O306 C303 1.301 . S
O307 U286 2.449 . S
O307 C303 1.282 . S
H308 C281 0.931 . S
H309 C283 0.929 . S
H310 C284 0.930 . S
H311 C285 0.931 . S
H312 C292 0.932 . S
H313 C293 0.930 . S
H314 C294 0.929 . S
H315 C296 0.930 . S
H316 C298 0.932 . S
H317 C299 0.929 . S
H318 C300 0.928 . S
H319 C302 0.932 . S
C320 C321 1.264 . S
C320 C325 1.479 . S
C320 C330 1.465 . S
C321 C320 1.264 . S
C321 C323 1.339 . S
C321 H348 0.931 . S
C322 C323 1.395 . S
C322 C324 1.320 . S
C323 C321 1.339 . S
C323 C322 1.395 . S
C323 H349 0.929 . S
C324 C322 1.320 . S
C324 C325 1.405 . S
C324 H350 0.930 . S
C325 C320 1.479 . S
C325 C324 1.405 . S
C325 H351 0.931 . S
U326 O327 2.454 . S
U326 O328 2.458 . S
U326 C329 2.984 . S
U326 C330 2.847 . S
U326 C343 2.882 . S
U326 O344 2.441 . S
U326 O345 2.420 . S
U326 O346 2.455 . S
U326 O347 2.449 . S
O327 U326 2.454 . S
O327 C329 1.353 . S
O328 U326 2.458 . S
O328 C329 1.286 . S
C329 U326 2.984 . S
C329 O327 1.353 . S
C329 O328 1.286 . S
C329 C331 1.363 . S
C330 C320 1.465 . S
C330 U326 2.847 . S
C330 O344 1.249 . S
C330 O345 1.202 . S
C331 C329 1.363 . S
C331 C333 1.408 . S
C331 C336 1.342 . S
C332 C333 1.310 . S
C332 C335 1.461 . S
C332 H352 0.932 . S
C333 C331 1.408 . S
C333 C332 1.310 . S
C333 H353 0.930 . S
C334 C335 1.474 . S
C334 C336 1.285 . S
C334 H354 0.929 . S
C335 C332 1.461 . S
C335 C334 1.474 . S
C336 C331 1.342 . S
C336 C334 1.285 . S
C336 H355 0.930 . S
C337 C340 1.424 . S
C337 C342 1.245 . S
C337 C343 1.428 . S
C338 C341 1.260 . S
C338 C342 1.477 . S
C338 H356 0.932 . S
C339 C340 1.384 . S
C339 C341 1.479 . S
C339 H357 0.929 . S
C340 C337 1.424 . S
C340 C339 1.384 . S
C340 H358 0.928 . S
C341 C338 1.260 . S
C341 C339 1.479 . S
C342 C337 1.245 . S
C342 C338 1.477 . S
C342 H359 0.932 . S
C343 U326 2.882 . S
C343 C337 1.428 . S
C343 O346 1.301 . S
C343 O347 1.282 . S
O344 U326 2.441 . S
O344 C330 1.249 . S
O345 U326 2.420 . S
O345 C330 1.202 . S
O346 U326 2.455 . S
O346 C343 1.301 . S
O347 U326 2.449 . S
O347 C343 1.282 . S
H348 C321 0.931 . S
H349 C323 0.929 . S
H350 C324 0.930 . S
H351 C325 0.931 . S
H352 C332 0.932 . S
H353 C333 0.930 . S
H354 C334 0.929 . S
H355 C336 0.930 . S
H356 C338 0.932 . S
H357 C339 0.929 . S
H358 C340 0.928 . S
H359 C342 0.932 . S
C360 C361 1.264 . S
C360 C365 1.479 . S
C360 C370 1.465 . S
C361 C360 1.264 . S
C361 C363 1.339 . S
C361 H388 0.931 . S
C362 C363 1.395 . S
C362 C364 1.320 . S
C363 C361 1.339 . S
C363 C362 1.395 . S
C363 H389 0.929 . S
C364 C362 1.320 . S
C364 C365 1.405 . S
C364 H390 0.930 1_556 S
C365 C360 1.479 . S
C365 C364 1.405 . S
C365 H391 0.931 . S
U366 O367 2.454 . S
U366 O368 2.458 . S
U366 C369 2.984 . S
U366 C370 2.847 . S
U366 C383 2.882 . S
U366 O384 2.441 . S
U366 O385 2.420 . S
U366 O386 2.455 . S
U366 O387 2.449 . S
O367 U366 2.454 . S
O367 C369 1.353 . S
O368 U366 2.458 . S
O368 C369 1.286 . S
C369 U366 2.984 . S
C369 O367 1.353 . S
C369 O368 1.286 . S
C369 C371 1.363 . S
C370 C360 1.465 . S
C370 U366 2.847 . S
C370 O384 1.249 . S
C370 O385 1.202 . S
C371 C369 1.363 . S
C371 C373 1.408 . S
C371 C376 1.342 . S
C372 C373 1.310 . S
C372 C375 1.461 . S
C372 H392 0.932 1_556 S
C373 C371 1.408 . S
C373 C372 1.310 . S
C373 H393 0.930 . S
C374 C375 1.474 . S
C374 C376 1.285 . S
C374 H394 0.929 . S
C375 C372 1.461 . S
C375 C374 1.474 . S
C376 C371 1.342 . S
C376 C374 1.285 . S
C376 H395 0.930 . S
C377 C380 1.424 . S
C377 C382 1.245 . S
C377 C383 1.428 . S
C378 C381 1.260 . S
C378 C382 1.477 . S
C378 H396 0.932 . S
C379 C380 1.384 . S
C379 C381 1.479 . S
C379 H397 0.929 . S
C380 C377 1.424 . S
C380 C379 1.384 . S
C380 H398 0.928 . S
C381 C378 1.260 . S
C381 C379 1.479 . S
C382 C377 1.245 . S
C382 C378 1.477 . S
C382 H399 0.932 . S
C383 U366 2.882 . S
C383 C377 1.428 . S
C383 O386 1.301 . S
C383 O387 1.282 . S
O384 U366 2.441 . S
O384 C370 1.249 . S
O385 U366 2.420 . S
O385 C370 1.202 . S
O386 U366 2.455 . S
O386 C383 1.301 . S
O387 U366 2.449 . S
O387 C383 1.282 . S
H388 C361 0.931 . S
H389 C363 0.929 . S
H390 C364 0.930 1_554 S
H391 C365 0.931 . S
H392 C372 0.932 1_554 S
H393 C373 0.930 . S
H394 C374 0.929 . S
H395 C376 0.930 . S
H396 C378 0.932 . S
H397 C379 0.929 . S
H398 C380 0.928 . S
H399 C382 0.932 . S
C400 C401 1.264 . S
C400 C405 1.479 . S
C400 C410 1.465 . S
C401 C400 1.264 . S
C401 C403 1.339 . S
C401 H428 0.931 . S
C402 C403 1.395 . S
C402 C404 1.320 . S
C403 C401 1.339 . S
C403 C402 1.395 . S
C403 H429 0.929 . S
C404 C402 1.320 . S
C404 C405 1.405 . S
C404 H430 0.930 1_556 S
C405 C400 1.479 . S
C405 C404 1.405 . S
C405 H431 0.931 . S
U406 O407 2.454 . S
U406 O408 2.458 . S
U406 C409 2.984 . S
U406 C410 2.847 . S
U406 C423 2.882 . S
U406 O424 2.441 . S
U406 O425 2.420 . S
U406 O426 2.455 . S
U406 O427 2.449 . S
O407 U406 2.454 . S
O407 C409 1.353 . S
O408 U406 2.458 . S
O408 C409 1.286 . S
C409 U406 2.984 . S
C409 O407 1.353 . S
C409 O408 1.286 . S
C409 C411 1.363 . S
C410 C400 1.465 . S
C410 U406 2.847 . S
C410 O424 1.249 . S
C410 O425 1.202 . S
C411 C409 1.363 . S
C411 C413 1.408 . S
C411 C416 1.342 . S
C412 C413 1.310 . S
C412 C415 1.461 . S
C412 H432 0.932 1_556 S
C413 C411 1.408 . S
C413 C412 1.310 . S
C413 H433 0.930 . S
C414 C415 1.474 . S
C414 C416 1.285 . S
C414 H434 0.929 . S
C415 C412 1.461 . S
C415 C414 1.474 . S
C416 C411 1.342 . S
C416 C414 1.285 . S
C416 H435 0.930 . S
C417 C420 1.424 . S
C417 C422 1.245 . S
C417 C423 1.428 . S
C418 C421 1.260 . S
C418 C422 1.477 . S
C418 H436 0.932 . S
C419 C420 1.384 . S
C419 C421 1.479 . S
C419 H437 0.929 . S
C420 C417 1.424 . S
C420 C419 1.384 . S
C420 H438 0.928 . S
C421 C418 1.260 . S
C421 C419 1.479 . S
C422 C417 1.245 . S
C422 C418 1.477 . S
C422 H439 0.932 . S
C423 U406 2.882 . S
C423 C417 1.428 . S
C423 O426 1.301 . S
C423 O427 1.282 . S
O424 U406 2.441 . S
O424 C410 1.249 . S
O425 U406 2.420 . S
O425 C410 1.202 . S
O426 U406 2.455 . S
O426 C423 1.301 . S
O427 U406 2.449 . S
O427 C423 1.282 . S
H428 C401 0.931 . S
H429 C403 0.929 . S
H430 C404 0.930 1_554 S
H431 C405 0.931 . S
H432 C412 0.932 1_554 S
H433 C413 0.930 . S
H434 C414 0.929 . S
H435 C416 0.930 . S
H436 C418 0.932 . S
H437 C419 0.929 . S
H438 C420 0.928 . S
H439 C422 0.932 . S
C440 C441 1.264 . S
C440 C445 1.479 . S
C440 C450 1.465 . S
C441 C440 1.264 . S
C441 C443 1.339 . S
C441 H468 0.931 . S
C442 C443 1.395 . S
C442 C444 1.320 . S
C443 C441 1.339 . S
C443 C442 1.395 . S
C443 H469 0.929 . S
C444 C442 1.320 . S
C444 C445 1.405 . S
C444 H470 0.930 1_556 S
C445 C440 1.479 . S
C445 C444 1.405 . S
C445 H471 0.931 . S
U446 O447 2.454 . S
U446 O448 2.458 . S
U446 C449 2.984 . S
U446 C450 2.847 . S
U446 C463 2.882 . S
U446 O464 2.441 . S
U446 O465 2.420 . S
U446 O466 2.455 . S
U446 O467 2.449 . S
O447 U446 2.454 . S
O447 C449 1.353 . S
O448 U446 2.458 . S
O448 C449 1.286 . S
C449 U446 2.984 . S
C449 O447 1.353 . S
C449 O448 1.286 . S
C449 C451 1.363 . S
C450 C440 1.465 . S
C450 U446 2.847 . S
C450 O464 1.249 . S
C450 O465 1.202 . S
C451 C449 1.363 . S
C451 C453 1.408 . S
C451 C456 1.342 . S
C452 C453 1.310 . S
C452 C455 1.461 . S
C452 H472 0.932 1_556 S
C453 C451 1.408 . S
C453 C452 1.310 . S
C453 H473 0.930 . S
C454 C455 1.474 . S
C454 C456 1.285 . S
C454 H474 0.929 . S
C455 C452 1.461 . S
C455 C454 1.474 . S
C456 C451 1.342 . S
C456 C454 1.285 . S
C456 H475 0.930 . S
C457 C460 1.424 . S
C457 C462 1.245 . S
C457 C463 1.428 . S
C458 C461 1.260 . S
C458 C462 1.477 . S
C458 H476 0.932 . S
C459 C460 1.384 . S
C459 C461 1.479 . S
C459 H477 0.929 . S
C460 C457 1.424 . S
C460 C459 1.384 . S
C460 H478 0.928 . S
C461 C458 1.260 . S
C461 C459 1.479 . S
C462 C457 1.245 . S
C462 C458 1.477 . S
C462 H479 0.932 . S
C463 U446 2.882 . S
C463 C457 1.428 . S
C463 O466 1.301 . S
C463 O467 1.282 . S
O464 U446 2.441 . S
O464 C450 1.249 . S
O465 U446 2.420 . S
O465 C450 1.202 . S
O466 U446 2.455 . S
O466 C463 1.301 . S
O467 U446 2.449 . S
O467 C463 1.282 . S
H468 C441 0.931 . S
H469 C443 0.929 . S
H470 C444 0.930 1_554 S
H471 C445 0.931 . S
H472 C452 0.932 1_554 S
H473 C453 0.930 . S
H474 C454 0.929 . S
H475 C456 0.930 . S
H476 C458 0.932 . S
H477 C459 0.929 . S
H478 C460 0.928 . S
H479 C462 0.932 . S
C480 C481 1.264 . S
C480 C485 1.479 . S
C480 C490 1.465 . S
C481 C480 1.264 . S
C481 C483 1.339 . S
C481 H508 0.931 . S
C482 C483 1.395 . S
C482 C484 1.320 . S
C483 C481 1.339 . S
C483 C482 1.395 . S
C483 H509 0.929 . S
C484 C482 1.320 . S
C484 C485 1.405 . S
C484 H510 0.930 . S
C485 C480 1.479 . S
C485 C484 1.405 . S
C485 H511 0.931 . S
U486 O487 2.454 . S
U486 O488 2.458 . S
U486 C489 2.984 . S
U486 C490 2.847 . S
U486 C503 2.882 . S
U486 O504 2.441 . S
U486 O505 2.420 . S
U486 O506 2.455 . S
U486 O507 2.449 . S
O487 U486 2.454 . S
O487 C489 1.353 . S
O488 U486 2.458 . S
O488 C489 1.286 . S
C489 U486 2.984 . S
C489 O487 1.353 . S
C489 O488 1.286 . S
C489 C491 1.363 . S
C490 C480 1.465 . S
C490 U486 2.847 . S
C490 O504 1.249 . S
C490 O505 1.202 . S
C491 C489 1.363 . S
C491 C493 1.408 . S
C491 C496 1.342 . S
C492 C493 1.310 . S
C492 C495 1.461 . S
C492 H512 0.932 . S
C493 C491 1.408 . S
C493 C492 1.310 . S
C493 H513 0.930 . S
C494 C495 1.474 . S
C494 C496 1.285 . S
C494 H514 0.929 . S
C495 C492 1.461 . S
C495 C494 1.474 . S
C496 C491 1.342 . S
C496 C494 1.285 . S
C496 H515 0.930 . S
C497 C500 1.424 . S
C497 C502 1.245 . S
C497 C503 1.428 . S
C498 C501 1.260 . S
C498 C502 1.477 . S
C498 H516 0.932 . S
C499 C500 1.384 . S
C499 C501 1.479 . S
C499 H517 0.929 . S
C500 C497 1.424 . S
C500 C499 1.384 . S
C500 H518 0.928 . S
C501 C498 1.260 . S
C501 C499 1.479 . S
C502 C497 1.245 . S
C502 C498 1.477 . S
C502 H519 0.932 . S
C503 U486 2.882 . S
C503 C497 1.428 . S
C503 O506 1.301 . S
C503 O507 1.282 . S
O504 U486 2.441 . S
O504 C490 1.249 . S
O505 U486 2.420 . S
O505 C490 1.202 . S
O506 U486 2.455 . S
O506 C503 1.301 . S
O507 U486 2.449 . S
O507 C503 1.282 . S
H508 C481 0.931 . S
H509 C483 0.929 . S
H510 C484 0.930 . S
H511 C485 0.931 . S
H512 C492 0.932 . S
H513 C493 0.930 . S
H514 C494 0.929 . S
H515 C496 0.930 . S
H516 C498 0.932 . S
H517 C499 0.929 . S
H518 C500 0.928 . S
H519 C502 0.932 . S
C520 C521 1.264 . S
C520 C525 1.479 . S
C520 C530 1.465 . S
C521 C520 1.264 . S
C521 C523 1.339 . S
C521 H548 0.931 . S
C522 C523 1.395 . S
C522 C524 1.320 . S
C523 C521 1.339 . S
C523 C522 1.395 . S
C523 H549 0.929 . S
C524 C522 1.320 . S
C524 C525 1.405 . S
C524 H550 0.930 . S
C525 C520 1.479 . S
C525 C524 1.405 . S
C525 H551 0.931 . S
U526 O527 2.454 . S
U526 O528 2.458 . S
U526 C529 2.984 . S
U526 C530 2.847 . S
U526 C543 2.882 . S
U526 O544 2.441 . S
U526 O545 2.420 . S
U526 O546 2.455 . S
U526 O547 2.449 . S
O527 U526 2.454 . S
O527 C529 1.353 . S
O528 U526 2.458 . S
O528 C529 1.286 . S
C529 U526 2.984 . S
C529 O527 1.353 . S
C529 O528 1.286 . S
C529 C531 1.363 . S
C530 C520 1.465 . S
C530 U526 2.847 . S
C530 O544 1.249 . S
C530 O545 1.202 . S
C531 C529 1.363 . S
C531 C533 1.408 . S
C531 C536 1.342 . S
C532 C533 1.310 . S
C532 C535 1.461 . S
C532 H552 0.932 . S
C533 C531 1.408 . S
C533 C532 1.310 . S
C533 H553 0.930 . S
C534 C535 1.474 . S
C534 C536 1.285 . S
C534 H554 0.929 . S
C535 C532 1.461 . S
C535 C534 1.474 . S
C536 C531 1.342 . S
C536 C534 1.285 . S
C536 H555 0.930 . S
C537 C540 1.424 . S
C537 C542 1.245 . S
C537 C543 1.428 . S
C538 C541 1.260 . S
C538 C542 1.477 . S
C538 H556 0.932 . S
C539 C540 1.384 . S
C539 C541 1.479 . S
C539 H557 0.929 . S
C540 C537 1.424 . S
C540 C539 1.384 . S
C540 H558 0.928 . S
C541 C538 1.260 . S
C541 C539 1.479 . S
C542 C537 1.245 . S
C542 C538 1.477 . S
C542 H559 0.932 . S
C543 U526 2.882 . S
C543 C537 1.428 . S
C543 O546 1.301 . S
C543 O547 1.282 . S
O544 U526 2.441 . S
O544 C530 1.249 . S
O545 U526 2.420 . S
O545 C530 1.202 . S
O546 U526 2.455 . S
O546 C543 1.301 . S
O547 U526 2.449 . S
O547 C543 1.282 . S
H548 C521 0.931 . S
H549 C523 0.929 . S
H550 C524 0.930 . S
H551 C525 0.931 . S
H552 C532 0.932 . S
H553 C533 0.930 . S
H554 C534 0.929 . S
H555 C536 0.930 . S
H556 C538 0.932 . S
H557 C539 0.929 . S
H558 C540 0.928 . S
H559 C542 0.932 . S
C560 C561 1.264 . S
C560 C565 1.479 . S
C560 C570 1.465 . S
C561 C560 1.264 . S
C561 C563 1.339 . S
C561 H588 0.931 . S
C562 C563 1.395 . S
C562 C564 1.320 . S
C563 C561 1.339 . S
C563 C562 1.395 . S
C563 H589 0.929 . S
C564 C562 1.320 . S
C564 C565 1.405 . S
C564 H590 0.930 . S
C565 C560 1.479 . S
C565 C564 1.405 . S
C565 H591 0.931 . S
U566 O567 2.454 . S
U566 O568 2.458 . S
U566 C569 2.984 . S
U566 C570 2.847 . S
U566 C583 2.882 . S
U566 O584 2.441 . S
U566 O585 2.420 . S
U566 O586 2.455 . S
U566 O587 2.449 . S
O567 U566 2.454 . S
O567 C569 1.353 . S
O568 U566 2.458 . S
O568 C569 1.286 . S
C569 U566 2.984 . S
C569 O567 1.353 . S
C569 O568 1.286 . S
C569 C571 1.363 . S
C570 C560 1.465 . S
C570 U566 2.847 . S
C570 O584 1.249 . S
C570 O585 1.202 . S
C571 C569 1.363 . S
C571 C573 1.408 . S
C571 C576 1.342 . S
C572 C573 1.310 . S
C572 C575 1.461 . S
C572 H592 0.932 . S
C573 C571 1.408 . S
C573 C572 1.310 . S
C573 H593 0.930 . S
C574 C575 1.474 . S
C574 C576 1.285 . S
C574 H594 0.929 . S
C575 C572 1.461 . S
C575 C574 1.474 . S
C576 C571 1.342 . S
C576 C574 1.285 . S
C576 H595 0.930 . S
C577 C580 1.424 . S
C577 C582 1.245 . S
C577 C583 1.428 . S
C578 C581 1.260 . S
C578 C582 1.477 . S
C578 H596 0.932 . S
C579 C580 1.384 . S
C579 C581 1.479 . S
C579 H597 0.929 . S
C580 C577 1.424 . S
C580 C579 1.384 . S
C580 H598 0.928 . S
C581 C578 1.260 . S
C581 C579 1.479 . S
C582 C577 1.245 . S
C582 C578 1.477 . S
C582 H599 0.932 . S
C583 U566 2.882 . S
C583 C577 1.428 . S
C583 O586 1.301 . S
C583 O587 1.282 . S
O584 U566 2.441 . S
O584 C570 1.249 . S
O585 U566 2.420 . S
O585 C570 1.202 . S
O586 U566 2.455 . S
O586 C583 1.301 . S
O587 U566 2.449 . S
O587 C583 1.282 . S
H588 C561 0.931 . S
H589 C563 0.929 . S
H590 C564 0.930 . S
H591 C565 0.931 . S
H592 C572 0.932 . S
H593 C573 0.930 . S
H594 C574 0.929 . S
H595 C576 0.930 . S
H596 C578 0.932 . S
H597 C579 0.929 . S
H598 C580 0.928 . S
H599 C582 0.932 . S
C600 C601 1.264 . S
C600 C605 1.479 . S
C600 C610 1.465 . S
C601 C600 1.264 . S
C601 C603 1.339 . S
C601 H628 0.931 . S
C602 C603 1.395 . S
C602 C604 1.320 . S
C603 C601 1.339 . S
C603 C602 1.395 . S
C603 H629 0.929 . S
C604 C602 1.320 . S
C604 C605 1.405 . S
C604 H630 0.930 . S
C605 C600 1.479 . S
C605 C604 1.405 . S
C605 H631 0.931 . S
U606 O607 2.454 . S
U606 O608 2.458 . S
U606 C609 2.984 . S
U606 C610 2.847 . S
U606 C623 2.882 . S
U606 O624 2.441 . S
U606 O625 2.420 . S
U606 O626 2.455 . S
U606 O627 2.449 . S
O607 U606 2.454 . S
O607 C609 1.353 . S
O608 U606 2.458 . S
O608 C609 1.286 . S
C609 U606 2.984 . S
C609 O607 1.353 . S
C609 O608 1.286 . S
C609 C611 1.363 . S
C610 C600 1.465 . S
C610 U606 2.847 . S
C610 O624 1.249 . S
C610 O625 1.202 . S
C611 C609 1.363 . S
C611 C613 1.408 . S
C611 C616 1.342 . S
C612 C613 1.310 . S
C612 C615 1.461 . S
C612 H632 0.932 . S
C613 C611 1.408 . S
C613 C612 1.310 . S
C613 H633 0.930 . S
C614 C615 1.474 . S
C614 C616 1.285 . S
C614 H634 0.929 . S
C615 C612 1.461 . S
C615 C614 1.474 . S
C616 C611 1.342 . S
C616 C614 1.285 . S
C616 H635 0.930 . S
C617 C620 1.424 . S
C617 C622 1.245 . S
C617 C623 1.428 . S
C618 C621 1.260 . S
C618 C622 1.477 . S
C618 H636 0.932 . S
C619 C620 1.384 . S
C619 C621 1.479 . S
C619 H637 0.929 . S
C620 C617 1.424 . S
C620 C619 1.384 . S
C620 H638 0.928 . S
C621 C618 1.260 . S
C621 C619 1.479 . S
C622 C617 1.245 . S
C622 C618 1.477 . S
C622 H639 0.932 . S
C623 U606 2.882 . S
C623 C617 1.428 . S
C623 O626 1.301 . S
C623 O627 1.282 . S
O624 U606 2.441 . S
O624 C610 1.249 . S
O625 U606 2.420 . S
O625 C610 1.202 . S
O626 U606 2.455 . S
O626 C623 1.301 . S
O627 U606 2.449 . S
O627 C623 1.282 . S
H628 C601 0.931 . S
H629 C603 0.929 . S
H630 C604 0.930 . S
H631 C605 0.931 . S
H632 C612 0.932 . S
H633 C613 0.930 . S
H634 C614 0.929 . S
H635 C616 0.930 . S
H636 C618 0.932 . S
H637 C619 0.929 . S
H638 C620 0.928 . S
H639 C622 0.932 . S
C640 C641 1.264 . S
C640 C645 1.479 . S
C640 C650 1.465 . S
C641 C640 1.264 . S
C641 C643 1.339 . S
C641 H668 0.931 . S
C642 C643 1.395 . S
C642 C644 1.320 . S
C643 C641 1.339 . S
C643 C642 1.395 . S
C643 H669 0.929 . S
C644 C642 1.320 . S
C644 C645 1.405 . S
C644 H670 0.930 . S
C645 C640 1.479 . S
C645 C644 1.405 . S
C645 H671 0.931 . S
U646 O647 2.454 . S
U646 O648 2.458 . S
U646 C649 2.984 . S
U646 C650 2.847 . S
U646 C663 2.882 . S
U646 O664 2.441 . S
U646 O665 2.420 . S
U646 O666 2.455 . S
U646 O667 2.449 . S
O647 U646 2.454 . S
O647 C649 1.353 . S
O648 U646 2.458 . S
O648 C649 1.286 . S
C649 U646 2.984 . S
C649 O647 1.353 . S
C649 O648 1.286 . S
C649 C651 1.363 . S
C650 C640 1.465 . S
C650 U646 2.847 . S
C650 O664 1.249 . S
C650 O665 1.202 . S
C651 C649 1.363 . S
C651 C653 1.408 . S
C651 C656 1.342 . S
C652 C653 1.310 . S
C652 C655 1.461 . S
C652 H672 0.932 . S
C653 C651 1.408 . S
C653 C652 1.310 . S
C653 H673 0.930 . S
C654 C655 1.474 . S
C654 C656 1.285 . S
C654 H674 0.929 . S
C655 C652 1.461 . S
C655 C654 1.474 . S
C656 C651 1.342 . S
C656 C654 1.285 . S
C656 H675 0.930 . S
C657 C660 1.424 . S
C657 C662 1.245 . S
C657 C663 1.428 . S
C658 C661 1.260 . S
C658 C662 1.477 . S
C658 H676 0.932 . S
C659 C660 1.384 . S
C659 C661 1.479 . S
C659 H677 0.929 . S
C660 C657 1.424 . S
C660 C659 1.384 . S
C660 H678 0.928 . S
C661 C658 1.260 . S
C661 C659 1.479 . S
C662 C657 1.245 . S
C662 C658 1.477 . S
C662 H679 0.932 . S
C663 U646 2.882 . S
C663 C657 1.428 . S
C663 O666 1.301 . S
C663 O667 1.282 . S
O664 U646 2.441 . S
O664 C650 1.249 . S
O665 U646 2.420 . S
O665 C650 1.202 . S
O666 U646 2.455 . S
O666 C663 1.301 . S
O667 U646 2.449 . S
O667 C663 1.282 . S
H668 C641 0.931 . S
H669 C643 0.929 . S
H670 C644 0.930 . S
H671 C645 0.931 . S
H672 C652 0.932 . S
H673 C653 0.930 . S
H674 C654 0.929 . S
H675 C656 0.930 . S
H676 C658 0.932 . S
H677 C659 0.929 . S
H678 C660 0.928 . S
H679 C662 0.932 . S
C680 C681 1.264 . S
C680 C685 1.479 . S
C680 C690 1.465 . S
C681 C680 1.264 . S
C681 C683 1.339 . S
C681 H708 0.931 . S
C682 C683 1.395 . S
C682 C684 1.320 . S
C683 C681 1.339 . S
C683 C682 1.395 . S
C683 H709 0.929 . S
C684 C682 1.320 . S
C684 C685 1.405 . S
C684 H710 0.930 . S
C685 C680 1.479 . S
C685 C684 1.405 . S
C685 H711 0.931 . S
U686 O687 2.454 . S
U686 O688 2.458 . S
U686 C689 2.984 . S
U686 C690 2.847 . S
U686 C703 2.882 . S
U686 O704 2.441 . S
U686 O705 2.420 . S
U686 O706 2.455 . S
U686 O707 2.449 . S
O687 U686 2.454 . S
O687 C689 1.353 . S
O688 U686 2.458 . S
O688 C689 1.286 . S
C689 U686 2.984 . S
C689 O687 1.353 . S
C689 O688 1.286 . S
C689 C691 1.363 . S
C690 C680 1.465 . S
C690 U686 2.847 . S
C690 O704 1.249 . S
C690 O705 1.202 . S
C691 C689 1.363 . S
C691 C693 1.408 . S
C691 C696 1.342 . S
C692 C693 1.310 . S
C692 C695 1.461 . S
C692 H712 0.932 . S
C693 C691 1.408 . S
C693 C692 1.310 . S
C693 H713 0.930 . S
C694 C695 1.474 . S
C694 C696 1.285 . S
C694 H714 0.929 . S
C695 C692 1.461 . S
C695 C694 1.474 . S
C696 C691 1.342 . S
C696 C694 1.285 . S
C696 H715 0.930 . S
C697 C700 1.424 . S
C697 C702 1.245 . S
C697 C703 1.428 . S
C698 C701 1.260 . S
C698 C702 1.477 . S
C698 H716 0.932 . S
C699 C700 1.384 . S
C699 C701 1.479 . S
C699 H717 0.929 . S
C700 C697 1.424 . S
C700 C699 1.384 . S
C700 H718 0.928 . S
C701 C698 1.260 . S
C701 C699 1.479 . S
C702 C697 1.245 . S
C702 C698 1.477 . S
C702 H719 0.932 . S
C703 U686 2.882 . S
C703 C697 1.428 . S
C703 O706 1.301 . S
C703 O707 1.282 . S
O704 U686 2.441 . S
O704 C690 1.249 . S
O705 U686 2.420 . S
O705 C690 1.202 . S
O706 U686 2.455 . S
O706 C703 1.301 . S
O707 U686 2.449 . S
O707 C703 1.282 . S
H708 C681 0.931 . S
H709 C683 0.929 . S
H710 C684 0.930 . S
H711 C685 0.931 . S
H712 C692 0.932 . S
H713 C693 0.930 . S
H714 C694 0.929 . S
H715 C696 0.930 . S
H716 C698 0.932 . S
H717 C699 0.929 . S
H718 C700 0.928 . S
H719 C702 0.932 . S
O720 Mn721 2.163 1_565 S
O720 C734 1.244 . S
Mn721 O720 2.163 1_545 S
Mn721 O724 2.160 . S
Mn721 O725 2.221 1_545 S
Mn721 O727 2.163 1_554 S
Mn721 O729 2.160 . S
Mn721 O739 2.221 . S
O722 Mn723 2.087 1_565 S
O722 C734 1.256 . S
Mn723 O722 2.087 1_545 S
Mn723 O730 2.089 . S
Mn723 O739 2.290 . S
Mn723 O740 2.251 . S
O724 Mn721 2.160 . S
O724 C735 1.239 1_554 S
O725 Mn721 2.221 1_565 S
O725 Mn726 2.290 1_554 S
O725 C736 1.290 . S
Mn726 O725 2.290 1_556 S
Mn726 O728 2.089 1_565 S
Mn726 O731 2.251 . S
Mn726 O732 2.087 . S
O727 Mn721 2.163 1_556 S
O727 C737 1.244 . S
O728 Mn726 2.089 1_545 S
O728 C735 1.256 . S
O729 Mn721 2.160 . S
O729 C738 1.239 . S
O730 Mn723 2.089 . S
O730 C738 1.256 . S
O731 Mn726 2.251 . S
O731 C736 1.194 1_556 S
O732 Mn726 2.087 . S
O732 C737 1.256 1_565 S
C733 O739 1.278 . S
C733 O740 1.241 . S
C734 O720 1.244 . S
C734 O722 1.256 . S
C735 O724 1.239 1_556 S
C735 O728 1.256 . S
C736 O725 1.290 . S
C736 O731 1.194 1_554 S
C737 O727 1.244 . S
C737 O732 1.256 1_545 S
C738 O729 1.239 . S
C738 O730 1.256 . S
O739 Mn721 2.221 . S
O739 Mn723 2.290 . S
O739 C733 1.278 . S
O740 Mn723 2.251 . S
O740 C733 1.241 . S
O741 Mn742 2.117 1_455 S
O741 C755 1.244 . S
Mn742 O741 2.117 1_655 S
Mn742 O745 2.206 . S
Mn742 O746 2.217 1_655 S
Mn742 O748 2.163 1_554 S
Mn742 O750 2.163 . S
Mn742 O760 2.229 . S
O743 Mn744 2.087 1_455 S
O743 C755 1.256 . S
Mn744 O743 2.087 1_655 S
Mn744 O751 2.089 1_655 S
Mn744 O760 2.290 . S
Mn744 O761 2.251 . S
O745 Mn742 2.206 . S
O745 C756 1.239 1_554 S
O746 Mn742 2.217 1_455 S
O746 Mn747 2.290 1_554 S
O746 C757 1.278 . S
Mn747 O746 2.290 1_556 S
Mn747 O749 2.089 1_455 S
Mn747 O752 2.251 . S
Mn747 O753 2.087 . S
O748 Mn742 2.163 1_556 S
O748 C758 1.244 1_655 S
O749 Mn747 2.089 1_655 S
O749 C756 1.256 . S
O750 Mn742 2.163 . S
O750 C759 1.239 1_655 S
O751 Mn744 2.089 1_455 S
O751 C759 1.256 . S
O752 Mn747 2.251 . S
O752 C757 1.241 1_556 S
O753 Mn747 2.087 . S
O753 C758 1.256 . S
C754 O760 1.278 . S
C754 O761 1.241 . S
C755 O741 1.244 . S
C755 O743 1.256 . S
C756 O745 1.239 1_556 S
C756 O749 1.256 . S
C757 O746 1.278 . S
C757 O752 1.241 1_554 S
C758 O748 1.244 1_455 S
C758 O753 1.256 . S
C759 O750 1.239 1_455 S
C759 O751 1.256 . S
O760 Mn742 2.229 . S
O760 Mn744 2.290 . S
O760 C754 1.278 . S
O761 Mn744 2.251 . S
O761 C754 1.241 . S
O762 Mn763 2.163 . S
O762 C776 1.244 . S
Mn763 O762 2.163 . S
Mn763 O766 2.159 1_556 S
Mn763 O767 2.221 1_556 S
Mn763 O769 2.154 1_556 S
Mn763 O771 2.168 . S
Mn763 O781 2.222 . S
O764 Mn765 2.087 . S
O764 C776 1.256 . S
Mn765 O764 2.087 . S
Mn765 O772 2.089 . S
Mn765 O781 2.290 . S
Mn765 O782 2.250 1_556 S
O766 Mn763 2.159 1_554 S
O766 C777 1.246 . S
O767 Mn763 2.221 1_554 S
O767 Mn768 2.290 . S
O767 C778 1.278 . S
Mn768 O767 2.290 . S
Mn768 O770 2.089 . S
Mn768 O773 2.251 . S
Mn768 O774 2.087 . S
O769 Mn763 2.154 1_554 S
O769 C779 1.244 . S
O770 Mn768 2.089 . S
O770 C777 1.256 . S
O771 Mn763 2.168 . S
O771 C780 1.239 . S
O772 Mn765 2.089 . S
O772 C780 1.256 . S
O773 Mn768 2.251 . S
O773 C778 1.241 . S
O774 Mn768 2.087 . S
O774 C779 1.256 . S
C775 O781 1.278 1_554 S
C775 O782 1.241 . S
C776 O762 1.244 . S
C776 O764 1.256 . S
C777 O766 1.246 . S
C777 O770 1.256 . S
C778 O767 1.278 . S
C778 O773 1.241 . S
C779 O769 1.244 . S
C779 O774 1.256 . S
C780 O771 1.239 . S
C780 O772 1.256 . S
O781 Mn763 2.222 . S
O781 Mn765 2.290 . S
O781 C775 1.278 1_556 S
O782 Mn765 2.250 1_554 S
O782 C775 1.241 . S
O783 Mn784 2.163 . S
O783 C797 1.244 . S
Mn784 O783 2.163 . S
Mn784 O787 2.160 . S
Mn784 O788 2.221 . S
Mn784 O790 2.163 . S
Mn784 O792 2.160 . S
Mn784 O802 2.221 . S
O785 Mn786 2.087 . S
O785 C797 1.256 . S
Mn786 O785 2.087 . S
Mn786 O793 2.089 . S
Mn786 O802 2.290 . S
Mn786 O803 2.251 . S
O787 Mn784 2.160 . S
O787 C798 1.239 . S
O788 Mn784 2.221 . S
O788 Mn789 2.290 . S
O788 C799 1.278 . S
Mn789 O788 2.290 . S
Mn789 O791 2.089 . S
Mn789 O794 2.251 . S
Mn789 O795 2.087 . S
O790 Mn784 2.163 . S
O790 C800 1.244 . S
O791 Mn789 2.089 . S
O791 C798 1.256 . S
O792 Mn784 2.160 . S
O792 C801 1.239 . S
O793 Mn786 2.089 . S
O793 C801 1.256 . S
O794 Mn789 2.251 . S
O794 C799 1.241 . S
O795 Mn789 2.087 . S
O795 C800 1.256 . S
C796 O802 1.278 . S
C796 O803 1.241 . S
C797 O783 1.244 . S
C797 O785 1.256 . S
C798 O787 1.239 . S
C798 O791 1.256 . S
C799 O788 1.278 . S
C799 O794 1.241 . S
C800 O790 1.244 . S
C800 O795 1.256 . S
C801 O792 1.239 . S
C801 O793 1.256 . S
O802 Mn784 2.221 . S
O802 Mn786 2.290 . S
O802 C796 1.278 . S
O803 Mn786 2.251 . S
O803 C796 1.241 . S
O804 Mn805 2.163 . S
O804 C818 1.244 . S
Mn805 O804 2.163 . S
Mn805 O808 2.160 . S
Mn805 O809 2.221 . S
Mn805 O811 2.163 . S
Mn805 O813 2.160 . S
Mn805 O823 2.221 . S
O806 Mn807 2.087 . S
O806 C818 1.256 . S
Mn807 O806 2.087 . S
Mn807 O814 2.089 . S
Mn807 O823 2.290 . S
Mn807 O824 2.251 . S
O808 Mn805 2.160 . S
O808 C819 1.239 . S
O809 Mn805 2.221 . S
O809 Mn810 2.290 . S
O809 C820 1.278 . S
Mn810 O809 2.290 . S
Mn810 O812 2.089 . S
Mn810 O815 2.251 . S
Mn810 O816 2.087 . S
O811 Mn805 2.163 . S
O811 C821 1.244 . S
O812 Mn810 2.089 . S
O812 C819 1.256 . S
O813 Mn805 2.160 . S
O813 C822 1.239 . S
O814 Mn807 2.089 . S
O814 C822 1.256 . S
O815 Mn810 2.251 . S
O815 C820 1.241 . S
O816 Mn810 2.087 . S
O816 C821 1.256 . S
C817 O823 1.278 . S
C817 O824 1.241 . S
C818 O804 1.244 . S
C818 O806 1.256 . S
C819 O808 1.239 . S
C819 O812 1.256 . S
C820 O809 1.278 . S
C820 O815 1.241 . S
C821 O811 1.244 . S
C821 O816 1.256 . S
C822 O813 1.239 . S
C822 O814 1.256 . S
O823 Mn805 2.221 . S
O823 Mn807 2.290 . S
O823 C817 1.278 . S
O824 Mn807 2.251 . S
O824 C817 1.241 . S
O825 Mn826 2.163 . S
O825 C839 1.244 . S
Mn826 O825 2.163 . S
Mn826 O829 2.160 . S
Mn826 O830 2.221 . S
Mn826 O832 2.163 . S
Mn826 O834 2.160 . S
Mn826 O844 2.221 . S
O827 Mn828 2.087 . S
O827 C839 1.256 . S
Mn828 O827 2.087 . S
Mn828 O835 2.089 . S
Mn828 O844 2.290 . S
Mn828 O845 2.251 . S
O829 Mn826 2.160 . S
O829 C840 1.239 . S
O830 Mn826 2.221 . S
O830 Mn831 2.290 . S
O830 C841 1.278 . S
Mn831 O830 2.290 . S
Mn831 O833 2.089 . S
Mn831 O836 2.251 . S
Mn831 O837 2.087 . S
O832 Mn826 2.163 . S
O832 C842 1.244 . S
O833 Mn831 2.089 . S
O833 C840 1.256 . S
O834 Mn826 2.160 . S
O834 C843 1.239 . S
O835 Mn828 2.089 . S
O835 C843 1.256 . S
O836 Mn831 2.251 . S
O836 C841 1.241 . S
O837 Mn831 2.087 . S
O837 C842 1.256 . S
C838 O844 1.278 . S
C838 O845 1.241 . S
C839 O825 1.244 . S
C839 O827 1.256 . S
C840 O829 1.239 . S
C840 O833 1.256 . S
C841 O830 1.278 . S
C841 O836 1.241 . S
C842 O832 1.244 . S
C842 O837 1.256 . S
C843 O834 1.239 . S
C843 O835 1.256 . S
O844 Mn826 2.221 . S
O844 Mn828 2.290 . S
O844 C838 1.278 . S
O845 Mn828 2.251 . S
O845 C838 1.241 . S
O846 Mn847 2.163 . S
O846 C860 1.244 . S
Mn847 O846 2.163 . S
Mn847 O850 2.160 . S
Mn847 O851 2.221 . S
Mn847 O853 2.163 . S
Mn847 O855 2.160 . S
Mn847 O865 2.221 . S
O848 Mn849 2.087 . S
O848 C860 1.256 . S
Mn849 O848 2.087 . S
Mn849 O856 2.089 . S
Mn849 O865 2.290 . S
Mn849 O866 2.251 . S
O850 Mn847 2.160 . S
O850 C861 1.239 . S
O851 Mn847 2.221 . S
O851 Mn852 2.290 . S
O851 C862 1.278 . S
Mn852 O851 2.290 . S
Mn852 O854 2.089 . S
Mn852 O857 2.251 . S
Mn852 O858 2.087 . S
O853 Mn847 2.163 . S
O853 C863 1.244 . S
O854 Mn852 2.089 . S
O854 C861 1.256 . S
O855 Mn847 2.160 . S
O855 C864 1.239 . S
O856 Mn849 2.089 . S
O856 C864 1.256 . S
O857 Mn852 2.251 . S
O857 C862 1.241 . S
O858 Mn852 2.087 . S
O858 C863 1.256 . S
C859 O865 1.278 . S
C859 O866 1.241 . S
C860 O846 1.244 . S
C860 O848 1.256 . S
C861 O850 1.239 . S
C861 O854 1.256 . S
C862 O851 1.278 . S
C862 O857 1.241 . S
C863 O853 1.244 . S
C863 O858 1.256 . S
C864 O855 1.239 . S
C864 O856 1.256 . S
O865 Mn847 2.221 . S
O865 Mn849 2.290 . S
O865 C859 1.278 . S
O866 Mn849 2.251 . S
O866 C859 1.241 . S
O867 Mn868 2.163 . S
O867 C881 1.244 . S
Mn868 O867 2.163 . S
Mn868 O871 2.160 . S
Mn868 O872 2.221 . S
Mn868 O874 2.163 . S
Mn868 O876 2.160 . S
Mn868 O886 2.221 . S
O869 Mn870 2.087 . S
O869 C881 1.256 . S
Mn870 O869 2.087 . S
Mn870 O877 2.089 . S
Mn870 O886 2.290 . S
Mn870 O887 2.251 . S
O871 Mn868 2.160 . S
O871 C882 1.239 . S
O872 Mn868 2.221 . S
O872 Mn873 2.290 . S
O872 C883 1.278 . S
Mn873 O872 2.290 . S
Mn873 O875 2.089 . S
Mn873 O878 2.251 . S
Mn873 O879 2.087 . S
O874 Mn868 2.163 . S
O874 C884 1.244 . S
O875 Mn873 2.089 . S
O875 C882 1.256 . S
O876 Mn868 2.160 . S
O876 C885 1.239 . S
O877 Mn870 2.089 . S
O877 C885 1.256 . S
O878 Mn873 2.251 . S
O878 C883 1.241 . S
O879 Mn873 2.087 . S
O879 C884 1.256 . S
C880 O886 1.278 . S
C880 O887 1.241 . S
C881 O867 1.244 . S
C881 O869 1.256 . S
C882 O871 1.239 . S
C882 O875 1.256 . S
C883 O872 1.278 . S
C883 O878 1.241 . S
C884 O874 1.244 . S
C884 O879 1.256 . S
C885 O876 1.239 . S
C885 O877 1.256 . S
O886 Mn868 2.221 . S
O886 Mn870 2.290 . S
O886 C880 1.278 . S
O887 Mn870 2.251 . S
O887 C880 1.241 . S
O888 Mn889 2.163 . S
O888 C902 1.244 . S
Mn889 O888 2.163 . S
Mn889 O892 2.160 . S
Mn889 O893 2.221 . S
Mn889 O895 2.163 . S
Mn889 O897 2.160 . S
Mn889 O907 2.221 . S
O890 Mn891 2.087 . S
O890 C902 1.256 . S
Mn891 O890 2.087 . S
Mn891 O898 2.089 . S
Mn891 O907 2.290 . S
Mn891 O908 2.251 . S
O892 Mn889 2.160 . S
O892 C903 1.239 . S
O893 Mn889 2.221 . S
O893 Mn894 2.290 . S
O893 C904 1.278 . S
Mn894 O893 2.290 . S
Mn894 O896 2.089 . S
Mn894 O899 2.251 . S
Mn894 O900 2.087 . S
O895 Mn889 2.163 . S
O895 C905 1.244 . S
O896 Mn894 2.089 . S
O896 C903 1.256 . S
O897 Mn889 2.160 . S
O897 C906 1.239 . S
O898 Mn891 2.089 . S
O898 C906 1.256 . S
O899 Mn894 2.251 . S
O899 C904 1.241 . S
O900 Mn894 2.087 . S
O900 C905 1.256 . S
C901 O907 1.278 . S
C901 O908 1.241 . S
C902 O888 1.244 . S
C902 O890 1.256 . S
C903 O892 1.239 . S
C903 O896 1.256 . S
C904 O893 1.278 . S
C904 O899 1.241 . S
C905 O895 1.244 . S
C905 O900 1.256 . S
C906 O897 1.239 . S
C906 O898 1.256 . S
O907 Mn889 2.221 . S
O907 Mn891 2.290 . S
O907 C901 1.278 . S
O908 Mn891 2.251 . S
O908 C901 1.241 . S
C909 C910 1.391 . S
C909 C911 1.394 . S
C909 H925 0.931 . S
C910 C909 1.391 . S
C910 C914 1.376 . S
C911 C909 1.394 . S
C911 C912 1.369 . S
C911 C915 1.531 . S
C912 C911 1.369 . S
C912 C913 1.410 . S
C912 C920 1.503 . S
C913 C912 1.410 . S
C913 C914 1.392 . S
C913 C916 1.511 . S
C914 C910 1.376 . S
C914 C913 1.392 . S
C914 H926 0.929 . S
C915 C911 1.531 . S
C915 H927 0.976 . S
C915 H928 0.962 . S
C915 H929 0.960 . S
C916 C913 1.511 . S
C916 H930 0.961 . S
C916 H931 0.961 . S
C916 H932 0.961 . S
C917 C918 1.370 . S
C917 C919 1.363 . S
C917 H933 0.931 . S
C918 C917 1.370 . S
C918 C922 1.408 1_554 S
C919 C917 1.363 . S
C919 C920 1.370 . S
C919 C923 1.524 . S
C920 C912 1.503 . S
C920 C919 1.370 . S
C920 C921 1.403 1_554 S
C921 C920 1.403 1_556 S
C921 C922 1.404 . S
C921 C924 1.539 . S
C922 C918 1.408 1_556 S
C922 C921 1.404 . S
C922 H934 0.930 . S
C923 C919 1.524 . S
C923 H935 0.956 . S
C923 H936 0.961 . S
C923 H937 0.961 . S
C924 C921 1.539 . S
C924 H938 0.958 . S
C924 H939 0.961 . S
C924 H940 0.960 . S
H925 C909 0.931 . S
H926 C914 0.929 . S
H927 C915 0.976 . S
H928 C915 0.962 . S
H929 C915 0.960 . S
H930 C916 0.961 . S
H931 C916 0.961 . S
H932 C916 0.961 . S
H933 C917 0.931 . S
H934 C922 0.930 . S
H935 C923 0.956 . S
H936 C923 0.961 . S
H937 C923 0.961 . S
H938 C924 0.958 . S
H939 C924 0.961 . S
H940 C924 0.960 . S
C941 C942 1.391 . S
C941 C943 1.394 . S
C941 H957 0.931 . S
C942 C941 1.391 . S
C942 C946 1.376 . S
C943 C941 1.394 . S
C943 C944 1.369 . S
C943 C947 1.531 . S
C944 C943 1.369 . S
C944 C945 1.410 . S
C944 C952 1.503 . S
C945 C944 1.410 . S
C945 C946 1.392 . S
C945 C948 1.511 1_554 S
C946 C942 1.376 . S
C946 C945 1.392 . S
C946 H958 0.929 . S
C947 C943 1.531 . S
C947 H959 0.960 . S
C947 H960 0.962 . S
C947 H961 0.960 . S
C948 C945 1.511 1_556 S
C948 H962 0.961 . S
C948 H963 0.961 . S
C948 H964 0.961 . S
C949 C950 1.370 . S
C949 C951 1.363 . S
C949 H965 0.931 . S
C950 C949 1.370 . S
C950 C954 1.408 . S
C951 C949 1.363 . S
C951 C952 1.370 . S
C951 C955 1.524 . S
C952 C944 1.503 . S
C952 C951 1.370 . S
C952 C953 1.403 . S
C953 C952 1.403 . S
C953 C954 1.404 . S
C953 C956 1.539 1_554 S
C954 C950 1.408 . S
C954 C953 1.404 . S
C954 H966 0.930 1_554 S
C955 C951 1.524 . S
C955 H967 0.956 . S
C955 H968 0.961 . S
C955 H969 0.961 . S
C956 C953 1.539 1_556 S
C956 H970 0.958 . S
C956 H971 0.961 . S
C956 H972 0.960 . S
H957 C941 0.931 . S
H958 C946 0.929 . S
H959 C947 0.960 . S
H960 C947 0.962 . S
H961 C947 0.960 . S
H962 C948 0.961 . S
H963 C948 0.961 . S
H964 C948 0.961 . S
H965 C949 0.931 . S
H966 C954 0.930 1_556 S
H967 C955 0.956 . S
H968 C955 0.961 . S
H969 C955 0.961 . S
H970 C956 0.958 . S
H971 C956 0.961 . S
H972 C956 0.960 . S
C973 C974 1.391 . S
C973 C975 1.394 . S
C973 H989 0.931 1_554 S
C974 C973 1.391 . S
C974 C978 1.376 . S
C975 C973 1.394 . S
C975 C976 1.376 . S
C975 C979 1.523 1_554 S
C976 C975 1.376 . S
C976 C977 1.410 . S
C976 C984 1.503 . S
C977 C976 1.410 . S
C977 C978 1.392 . S
C977 C980 1.511 . S
C978 C974 1.376 . S
C978 C977 1.392 . S
C978 H990 0.929 . S
C979 C975 1.523 1_556 S
C979 H991 0.960 . S
C979 H992 0.962 . S
C979 H993 0.960 . S
C980 C977 1.511 . S
C980 H994 0.961 . S
C980 H995 0.961 . S
C980 H996 0.961 . S
C981 C982 1.370 . S
C981 C983 1.363 . S
C981 H997 0.931 . S
C982 C981 1.370 . S
C982 C986 1.408 . S
C983 C981 1.363 . S
C983 C984 1.370 . S
C983 C987 1.524 . S
C984 C976 1.503 . S
C984 C983 1.370 . S
C984 C985 1.403 . S
C985 C984 1.403 . S
C985 C986 1.404 . S
C985 C988 1.548 . S
C986 C982 1.408 . S
C986 C985 1.404 . S
C986 H998 0.930 . S
C987 C983 1.524 . S
C987 H999 0.956 . S
C987 H1000 0.961 . S
C987 H1001 0.961 . S
C988 C985 1.548 . S
C988 H1002 0.928 1_554 S
C988 H1003 0.968 . S
C988 H1004 0.975 . S
H989 C973 0.931 1_556 S
H990 C978 0.929 . S
H991 C979 0.960 . S
H992 C979 0.962 . S
H993 C979 0.960 . S
H994 C980 0.961 . S
H995 C980 0.961 . S
H996 C980 0.961 . S
H997 C981 0.931 . S
H998 C986 0.930 . S
H999 C987 0.956 . S
H1000 C987 0.961 . S
H1001 C987 0.961 . S
H1002 C988 0.928 1_556 S
H1003 C988 0.968 . S
H1004 C988 0.975 . S
C1005 C1006 1.391 . S
C1005 C1007 1.394 . S
C1005 H1021 0.937 . S
C1006 C1005 1.391 . S
C1006 C1010 1.376 . S
C1007 C1005 1.394 . S
C1007 C1008 1.369 . S
C1007 C1011 1.531 1_556 S
C1008 C1007 1.369 . S
C1008 C1009 1.410 . S
C1008 C1016 1.503 . S
C1009 C1008 1.410 . S
C1009 C1010 1.392 . S
C1009 C1012 1.511 . S
C1010 C1006 1.376 . S
C1010 C1009 1.392 . S
C1010 H1022 0.929 . S
C1011 C1007 1.531 1_554 S
C1011 H1023 0.960 . S
C1011 H1024 0.962 1_554 S
C1011 H1025 0.960 . S
C1012 C1009 1.511 . S
C1012 H1026 0.961 . S
C1012 H1027 0.961 . S
C1012 H1028 0.961 . S
C1013 C1014 1.370 . S
C1013 C1015 1.363 . S
C1013 H1029 0.931 . S
C1014 C1013 1.370 . S
C1014 C1018 1.408 1_556 S
C1015 C1013 1.363 . S
C1015 C1016 1.370 . S
C1015 C1019 1.524 . S
C1016 C1008 1.503 . S
C1016 C1015 1.370 . S
C1016 C1017 1.403 1_556 S
C1017 C1016 1.403 1_554 S
C1017 C1018 1.404 . S
C1017 C1020 1.539 . S
C1018 C1014 1.408 1_554 S
C1018 C1017 1.404 . S
C1018 H1030 0.930 . S
C1019 C1015 1.524 . S
C1019 H1031 0.956 . S
C1019 H1032 0.961 . S
C1019 H1033 0.961 . S
C1020 C1017 1.539 . S
C1020 H1034 0.958 . S
C1020 H1035 0.961 . S
C1020 H1036 0.960 . S
H1021 C1005 0.937 . S
H1022 C1010 0.929 . S
H1023 C1011 0.960 . S
H1024 C1011 0.962 1_556 S
H1025 C1011 0.960 . S
H1026 C1012 0.961 . S
H1027 C1012 0.961 . S
H1028 C1012 0.961 . S
H1029 C1013 0.931 . S
H1030 C1018 0.930 . S
H1031 C1019 0.956 . S
H1032 C1019 0.961 . S
H1033 C1019 0.961 . S
H1034 C1020 0.958 . S
H1035 C1020 0.961 . S
H1036 C1020 0.960 . S
C1037 C1038 1.391 1_554 S
C1037 C1039 1.394 . S
C1037 H1053 0.931 . S
C1038 C1037 1.391 1_556 S
C1038 C1042 1.376 . S
C1039 C1037 1.394 . S
C1039 C1040 1.369 1_554 S
C1039 C1043 1.531 . S
C1040 C1039 1.369 1_556 S
C1040 C1041 1.410 . S
C1040 C1048 1.503 . S
C1041 C1040 1.410 . S
C1041 C1042 1.392 . S
C1041 C1044 1.511 . S
C1042 C1038 1.376 . S
C1042 C1041 1.392 . S
C1042 H1054 0.929 . S
C1043 C1039 1.531 . S
C1043 H1055 0.960 . S
C1043 H1056 0.962 . S
C1043 H1057 0.960 . S
C1044 C1041 1.511 . S
C1044 H1058 0.961 . S
C1044 H1059 0.961 . S
C1044 H1060 0.961 . S
C1045 C1046 1.370 . S
C1045 C1047 1.363 . S
C1045 H1061 0.931 . S
C1046 C1045 1.370 . S
C1046 C1050 1.408 1_556 S
C1047 C1045 1.363 . S
C1047 C1048 1.370 . S
C1047 C1051 1.524 . S
C1048 C1040 1.503 . S
C1048 C1047 1.370 . S
C1048 C1049 1.403 1_556 S
C1049 C1048 1.403 1_554 S
C1049 C1050 1.404 . S
C1049 C1052 1.539 . S
C1050 C1046 1.408 1_554 S
C1050 C1049 1.404 . S
C1050 H1062 0.930 . S
C1051 C1047 1.524 . S
C1051 H1063 0.956 . S
C1051 H1064 0.961 . S
C1051 H1065 0.961 . S
C1052 C1049 1.539 . S
C1052 H1066 0.958 . S
C1052 H1067 0.961 . S
C1052 H1068 0.960 . S
H1053 C1037 0.931 . S
H1054 C1042 0.929 . S
H1055 C1043 0.960 . S
H1056 C1043 0.962 . S
H1057 C1043 0.960 . S
H1058 C1044 0.961 . S
H1059 C1044 0.961 . S
H1060 C1044 0.961 . S
H1061 C1045 0.931 . S
H1062 C1050 0.930 . S
H1063 C1051 0.956 . S
H1064 C1051 0.961 . S
H1065 C1051 0.961 . S
H1066 C1052 0.958 . S
H1067 C1052 0.961 . S
H1068 C1052 0.960 . S
C1069 C1070 1.391 . S
C1069 C1071 1.394 . S
C1069 H1085 0.931 . S
C1070 C1069 1.391 . S
C1070 C1074 1.376 . S
C1071 C1069 1.394 . S
C1071 C1072 1.369 . S
C1071 C1075 1.531 1_556 S
C1072 C1071 1.369 . S
C1072 C1073 1.410 . S
C1072 C1080 1.503 . S
C1073 C1072 1.410 . S
C1073 C1074 1.392 . S
C1073 C1076 1.511 . S
C1074 C1070 1.376 . S
C1074 C1073 1.392 . S
C1074 H1086 0.929 . S
C1075 C1071 1.531 1_554 S
C1075 H1087 0.960 . S
C1075 H1088 0.962 1_554 S
C1075 H1089 0.960 . S
C1076 C1073 1.511 . S
C1076 H1090 0.961 . S
C1076 H1091 0.961 . S
C1076 H1092 0.961 . S
C1077 C1078 1.370 . S
C1077 C1079 1.363 . S
C1077 H1093 0.931 . S
C1078 C1077 1.370 . S
C1078 C1082 1.408 1_556 S
C1079 C1077 1.363 . S
C1079 C1080 1.370 . S
C1079 C1083 1.524 . S
C1080 C1072 1.503 . S
C1080 C1079 1.370 . S
C1080 C1081 1.403 1_556 S
C1081 C1080 1.403 1_554 S
C1081 C1082 1.404 . S
C1081 C1084 1.539 . S
C1082 C1078 1.408 1_554 S
C1082 C1081 1.404 . S
C1082 H1094 0.930 . S
C1083 C1079 1.524 . S
C1083 H1095 0.956 . S
C1083 H1096 0.961 . S
C1083 H1097 0.961 . S
C1084 C1081 1.539 . S
C1084 H1098 0.958 . S
C1084 H1099 0.961 . S
C1084 H1100 0.960 . S
H1085 C1069 0.931 . S
H1086 C1074 0.929 . S
H1087 C1075 0.960 . S
H1088 C1075 0.962 1_556 S
H1089 C1075 0.960 . S
H1090 C1076 0.961 . S
H1091 C1076 0.961 . S
H1092 C1076 0.961 . S
H1093 C1077 0.931 . S
H1094 C1082 0.930 . S
H1095 C1083 0.956 . S
H1096 C1083 0.961 . S
H1097 C1083 0.961 . S
H1098 C1084 0.958 . S
H1099 C1084 0.961 . S
H1100 C1084 0.960 . S
C1101 C1102 1.391 . S
C1101 C1103 1.394 . S
C1101 H1117 0.931 . S
C1102 C1101 1.391 . S
C1102 C1106 1.376 . S
C1103 C1101 1.394 . S
C1103 C1104 1.369 . S
C1103 C1107 1.531 . S
C1104 C1103 1.369 . S
C1104 C1105 1.410 . S
C1104 C1112 1.503 . S
C1105 C1104 1.410 . S
C1105 C1106 1.392 . S
C1105 C1108 1.511 . S
C1106 C1102 1.376 . S
C1106 C1105 1.392 . S
C1106 H1118 0.929 . S
C1107 C1103 1.531 . S
C1107 H1119 0.960 . S
C1107 H1120 0.962 1_556 S
C1107 H1121 0.960 . S
C1108 C1105 1.511 . S
C1108 H1122 0.961 . S
C1108 H1123 0.961 . S
C1108 H1124 0.961 . S
C1109 C1110 1.370 1_554 S
C1109 C1111 1.363 . S
C1109 H1125 0.931 . S
C1110 C1109 1.370 1_556 S
C1110 C1114 1.408 . S
C1111 C1109 1.363 . S
C1111 C1112 1.370 1_554 S
C1111 C1115 1.524 . S
C1112 C1104 1.503 . S
C1112 C1111 1.370 1_556 S
C1112 C1113 1.403 . S
C1113 C1112 1.403 . S
C1113 C1114 1.404 . S
C1113 C1116 1.539 . S
C1114 C1110 1.408 . S
C1114 C1113 1.404 . S
C1114 H1126 0.930 . S
C1115 C1111 1.524 . S
C1115 H1127 0.956 . S
C1115 H1128 0.961 . S
C1115 H1129 0.961 . S
C1116 C1113 1.539 . S
C1116 H1130 0.958 . S
C1116 H1131 0.961 . S
C1116 H1132 0.960 . S
H1117 C1101 0.931 . S
H1118 C1106 0.929 . S
H1119 C1107 0.960 . S
H1120 C1107 0.962 1_554 S
H1121 C1107 0.960 . S
H1122 C1108 0.961 . S
H1123 C1108 0.961 . S
H1124 C1108 0.961 . S
H1125 C1109 0.931 . S
H1126 C1114 0.930 . S
H1127 C1115 0.956 . S
H1128 C1115 0.961 . S
H1129 C1115 0.961 . S
H1130 C1116 0.958 . S
H1131 C1116 0.961 . S
H1132 C1116 0.960 . S
C1133 C1134 1.391 . S
C1133 C1135 1.394 . S
C1133 H1149 0.931 . S
C1134 C1133 1.391 . S
C1134 C1138 1.376 . S
C1135 C1133 1.394 . S
C1135 C1136 1.369 . S
C1135 C1139 1.531 . S
C1136 C1135 1.369 . S
C1136 C1137 1.410 . S
C1136 C1144 1.503 . S
C1137 C1136 1.410 . S
C1137 C1138 1.392 . S
C1137 C1140 1.511 1_556 S
C1138 C1134 1.376 . S
C1138 C1137 1.392 . S
C1138 H1150 0.929 1_556 S
C1139 C1135 1.531 . S
C1139 H1151 0.960 . S
C1139 H1152 0.962 . S
C1139 H1153 0.960 . S
C1140 C1137 1.511 1_554 S
C1140 H1154 0.961 . S
C1140 H1155 0.961 . S
C1140 H1156 0.961 . S
C1141 C1142 1.370 1_554 S
C1141 C1143 1.363 . S
C1141 H1157 0.931 . S
C1142 C1141 1.370 1_556 S
C1142 C1146 1.408 . S
C1143 C1141 1.363 . S
C1143 C1144 1.370 1_554 S
C1143 C1147 1.524 . S
C1144 C1136 1.503 . S
C1144 C1143 1.370 1_556 S
C1144 C1145 1.403 . S
C1145 C1144 1.403 . S
C1145 C1146 1.404 . S
C1145 C1148 1.539 . S
C1146 C1142 1.408 . S
C1146 C1145 1.404 . S
C1146 H1158 0.930 . S
C1147 C1143 1.524 . S
C1147 H1159 0.956 . S
C1147 H1160 0.961 . S
C1147 H1161 0.961 . S
C1148 C1145 1.539 . S
C1148 H1162 0.958 . S
C1148 H1163 0.961 . S
C1148 H1164 0.960 . S
H1149 C1133 0.931 . S
H1150 C1138 0.929 1_554 S
H1151 C1139 0.960 . S
H1152 C1139 0.962 . S
H1153 C1139 0.960 . S
H1154 C1140 0.961 . S
H1155 C1140 0.961 . S
H1156 C1140 0.961 . S
H1157 C1141 0.931 . S
H1158 C1146 0.930 . S
H1159 C1147 0.956 . S
H1160 C1147 0.961 . S
H1161 C1147 0.961 . S
H1162 C1148 0.958 . S
H1163 C1148 0.961 . S
H1164 C1148 0.960 . S
C1165 C1166 1.391 1_554 S
C1165 C1167 1.394 . S
C1165 H1181 0.931 . S
C1166 C1165 1.391 1_556 S
C1166 C1170 1.376 . S
C1167 C1165 1.394 . S
C1167 C1168 1.369 1_554 S
C1167 C1171 1.531 . S
C1168 C1167 1.369 1_556 S
C1168 C1169 1.410 . S
C1168 C1176 1.503 . S
C1169 C1168 1.410 . S
C1169 C1170 1.392 . S
C1169 C1172 1.511 . S
C1170 C1166 1.376 . S
C1170 C1169 1.392 . S
C1170 H1182 0.929 . S
C1171 C1167 1.531 . S
C1171 H1183 0.960 . S
C1171 H1184 0.962 . S
C1171 H1185 0.960 . S
C1172 C1169 1.511 . S
C1172 H1186 0.961 . S
C1172 H1187 0.961 . S
C1172 H1188 0.961 . S
C1173 C1174 1.370 . S
C1173 C1175 1.363 . S
C1173 H1189 0.931 . S
C1174 C1173 1.370 . S
C1174 C1178 1.408 1_556 S
C1175 C1173 1.363 . S
C1175 C1176 1.370 . S
C1175 C1179 1.524 . S
C1176 C1168 1.503 . S
C1176 C1175 1.370 . S
C1176 C1177 1.403 1_556 S
C1177 C1176 1.403 1_554 S
C1177 C1178 1.404 . S
C1177 C1180 1.539 . S
C1178 C1174 1.408 1_554 S
C1178 C1177 1.404 . S
C1178 H1190 0.930 . S
C1179 C1175 1.524 . S
C1179 H1191 0.956 . S
C1179 H1192 0.961 . S
C1179 H1193 0.961 . S
C1180 C1177 1.539 . S
C1180 H1194 0.958 . S
C1180 H1195 0.961 . S
C1180 H1196 0.960 . S
H1181 C1165 0.931 . S
H1182 C1170 0.929 . S
H1183 C1171 0.960 . S
H1184 C1171 0.962 . S
H1185 C1171 0.960 . S
H1186 C1172 0.961 . S
H1187 C1172 0.961 . S
H1188 C1172 0.961 . S
H1189 C1173 0.931 . S
H1190 C1178 0.930 . S
H1191 C1179 0.956 . S
H1192 C1179 0.961 . S
H1193 C1179 0.961 . S
H1194 C1180 0.958 . S
H1195 C1180 0.961 . S
H1196 C1180 0.960 . S
C1197 C1198 1.391 . S
C1197 C1199 1.394 . S
C1197 H1213 0.931 . S
C1198 C1197 1.391 . S
C1198 C1202 1.427 . S
C1199 C1197 1.394 . S
C1199 C1200 1.369 . S
C1199 C1203 1.531 . S
C1200 C1199 1.369 . S
C1200 C1201 1.369 1_554 S
C1200 C1208 1.503 . S
C1201 C1200 1.369 1_556 S
C1201 C1202 1.388 1_556 S
C1201 C1204 1.556 . S
C1202 C1198 1.427 . S
C1202 C1201 1.388 1_554 S
C1202 H1214 0.883 1_554 S
C1203 C1199 1.531 . S
C1203 H1215 0.960 . S
C1203 H1216 0.962 . S
C1203 H1217 0.960 . S
C1204 C1201 1.556 . S
C1204 H1218 0.961 . S
C1204 H1219 0.961 . S
C1204 H1220 0.961 . S
C1205 C1206 1.370 . S
C1205 C1207 1.363 . S
C1205 H1221 0.931 . S
C1206 C1205 1.370 . S
C1206 C1210 1.408 . S
C1207 C1205 1.363 . S
C1207 C1208 1.370 . S
C1207 C1211 1.524 . S
C1208 C1200 1.503 . S
C1208 C1207 1.370 . S
C1208 C1209 1.403 . S
C1209 C1208 1.403 . S
C1209 C1210 1.404 . S
C1209 C1212 1.539 . S
C1210 C1206 1.408 . S
C1210 C1209 1.404 . S
C1210 H1222 0.930 . S
C1211 C1207 1.524 . S
C1211 H1223 0.956 . S
C1211 H1224 0.961 1_554 S
C1211 H1225 0.961 . S
C1212 C1209 1.539 . S
C1212 H1226 0.958 . S
C1212 H1227 0.961 . S
C1212 H1228 0.960 . S
H1213 C1197 0.931 . S
H1214 C1202 0.883 1_556 S
H1215 C1203 0.960 . S
H1216 C1203 0.962 . S
H1217 C1203 0.960 . S
H1218 C1204 0.961 . S
H1219 C1204 0.961 . S
H1220 C1204 0.961 . S
H1221 C1205 0.931 . S
H1222 C1210 0.930 . S
H1223 C1211 0.956 . S
H1224 C1211 0.961 1_556 S
H1225 C1211 0.961 . S
H1226 C1212 0.958 . S
H1227 C1212 0.961 . S
H1228 C1212 0.960 . S
C1229 C1230 1.391 . S
C1229 C1231 1.394 . S
C1229 H1245 0.931 . S
C1230 C1229 1.391 . S
C1230 C1234 1.376 . S
C1231 C1229 1.394 . S
C1231 C1232 1.369 . S
C1231 C1235 1.531 . S
C1232 C1231 1.369 . S
C1232 C1233 1.410 . S
C1232 C1240 1.503 . S
C1233 C1232 1.410 . S
C1233 C1234 1.392 . S
C1233 C1236 1.511 1_554 S
C1234 C1230 1.376 . S
C1234 C1233 1.392 . S
C1234 H1246 0.950 . S
C1235 C1231 1.531 . S
C1235 H1247 0.960 . S
C1235 H1248 0.962 . S
C1235 H1249 0.960 . S
C1236 C1233 1.511 1_556 S
C1236 H1250 0.961 . S
C1236 H1251 0.961 . S
C1236 H1252 0.961 . S
C1237 C1238 1.370 . S
C1237 C1239 1.363 . S
C1237 H1253 0.931 1_554 S
C1238 C1237 1.370 . S
C1238 C1242 1.408 . S
C1239 C1237 1.363 . S
C1239 C1240 1.370 . S
C1239 C1243 1.524 1_554 S
C1240 C1232 1.503 . S
C1240 C1239 1.370 . S
C1240 C1241 1.403 . S
C1241 C1240 1.403 . S
C1241 C1242 1.404 . S
C1241 C1244 1.539 . S
C1242 C1238 1.408 . S
C1242 C1241 1.404 . S
C1242 H1254 0.930 . S
C1243 C1239 1.524 1_556 S
C1243 H1255 0.956 1_556 S
C1243 H1256 0.961 . S
C1243 H1257 0.961 . S
C1244 C1241 1.539 . S
C1244 H1258 0.958 . S
C1244 H1259 0.961 . S
C1244 H1260 0.960 . S
H1245 C1229 0.931 . S
H1246 C1234 0.950 . S
H1247 C1235 0.960 . S
H1248 C1235 0.962 . S
H1249 C1235 0.960 . S
H1250 C1236 0.961 . S
H1251 C1236 0.961 . S
H1252 C1236 0.961 . S
H1253 C1237 0.931 1_556 S
H1254 C1242 0.930 . S
H1255 C1243 0.956 1_554 S
H1256 C1243 0.961 . S
H1257 C1243 0.961 . S
H1258 C1244 0.958 . S
H1259 C1244 0.961 . S
H1260 C1244 0.960 . S
C1261 C1262 1.391 . S
C1261 C1263 1.394 . S
C1261 H1277 0.931 . S
C1262 C1261 1.391 . S
C1262 C1266 1.376 . S
C1263 C1261 1.394 . S
C1263 C1264 1.369 . S
C1263 C1267 1.531 . S
C1264 C1263 1.369 . S
C1264 C1265 1.410 . S
C1264 C1272 1.503 . S
C1265 C1264 1.410 . S
C1265 C1266 1.392 . S
C1265 C1268 1.511 . S
C1266 C1262 1.376 . S
C1266 C1265 1.392 . S
C1266 H1278 0.929 . S
C1267 C1263 1.531 . S
C1267 H1279 0.960 . S
C1267 H1280 0.962 . S
C1267 H1281 0.960 . S
C1268 C1265 1.511 . S
C1268 H1282 0.961 . S
C1268 H1283 0.961 . S
C1268 H1284 0.961 . S
C1269 C1270 1.370 1_556 S
C1269 C1271 1.367 . S
C1269 H1285 0.931 . S
C1270 C1269 1.370 1_554 S
C1270 C1274 1.408 . S
C1271 C1269 1.367 . S
C1271 C1272 1.352 1_556 S
C1271 C1275 1.540 . S
C1272 C1264 1.503 . S
C1272 C1271 1.352 1_554 S
C1272 C1273 1.403 . S
C1273 C1272 1.403 . S
C1273 C1274 1.404 . S
C1273 C1276 1.539 . S
C1274 C1270 1.408 . S
C1274 C1273 1.404 . S
C1274 H1286 0.930 . S
C1275 C1271 1.540 . S
C1275 H1287 0.956 . S
C1275 H1288 0.961 . S
C1275 H1289 0.961 . S
C1276 C1273 1.539 . S
C1276 H1290 0.958 . S
C1276 H1291 0.961 . S
C1276 H1292 0.960 . S
H1277 C1261 0.931 . S
H1278 C1266 0.929 . S
H1279 C1267 0.960 . S
H1280 C1267 0.962 . S
H1281 C1267 0.960 . S
H1282 C1268 0.961 . S
H1283 C1268 0.961 . S
H1284 C1268 0.961 . S
H1285 C1269 0.931 . S
H1286 C1274 0.930 . S
H1287 C1275 0.956 . S
H1288 C1275 0.961 . S
H1289 C1275 0.961 . S
H1290 C1276 0.958 . S
H1291 C1276 0.961 . S
H1292 C1276 0.960 . S
C1293 C1294 1.391 1_455 S
C1293 C1295 1.394 . S
C1293 H1309 0.931 1_455 S
C1294 C1293 1.391 1_655 S
C1294 C1298 1.376 1_655 S
C1295 C1293 1.394 . S
C1295 C1296 1.369 . S
C1295 C1299 1.531 . S
C1296 C1295 1.369 . S
C1296 C1297 1.410 . S
C1296 C1304 1.503 . S
C1297 C1296 1.410 . S
C1297 C1298 1.392 . S
C1297 C1300 1.511 . S
C1298 C1294 1.376 1_455 S
C1298 C1297 1.392 . S
C1298 H1310 0.929 1_455 S
C1299 C1295 1.531 . S
C1299 H1311 0.960 . S
C1299 H1312 0.962 . S
C1299 H1313 0.960 . S
C1300 C1297 1.511 . S
C1300 H1314 0.961 . S
C1300 H1315 0.961 . S
C1300 H1316 0.961 . S
C1301 C1302 1.370 . S
C1301 C1303 1.363 . S
C1301 H1317 0.931 . S
C1302 C1301 1.370 . S
C1302 C1306 1.408 . S
C1303 C1301 1.363 . S
C1303 C1304 1.370 . S
C1303 C1307 1.524 . S
C1304 C1296 1.503 . S
C1304 C1303 1.370 . S
C1304 C1305 1.403 . S
C1305 C1304 1.403 . S
C1305 C1306 1.404 . S
C1305 C1308 1.539 . S
C1306 C1302 1.408 . S
C1306 C1305 1.404 . S
C1306 H1318 0.930 . S
C1307 C1303 1.524 . S
C1307 H1319 0.956 . S
C1307 H1320 0.961 . S
C1307 H1321 0.961 . S
C1308 C1305 1.539 . S
C1308 H1322 0.958 . S
C1308 H1323 0.961 . S
C1308 H1324 0.960 . S
H1309 C1293 0.931 1_655 S
H1310 C1298 0.929 1_655 S
H1311 C1299 0.960 . S
H1312 C1299 0.962 . S
H1313 C1299 0.960 . S
H1314 C1300 0.961 . S
H1315 C1300 0.961 . S
H1316 C1300 0.961 . S
H1317 C1301 0.931 . S
H1318 C1306 0.930 . S
H1319 C1307 0.956 . S
H1320 C1307 0.961 . S
H1321 C1307 0.961 . S
H1322 C1308 0.958 . S
H1323 C1308 0.961 . S
H1324 C1308 0.960 . S
C1325 C1326 1.391 . S
C1325 C1327 1.394 . S
C1325 H1341 0.931 . S
C1326 C1325 1.391 . S
C1326 C1330 1.376 . S
C1327 C1325 1.394 . S
C1327 C1328 1.369 . S
C1327 C1331 1.531 . S
C1328 C1327 1.369 . S
C1328 C1329 1.410 . S
C1328 C1336 1.503 . S
C1329 C1328 1.410 . S
C1329 C1330 1.392 . S
C1329 C1332 1.511 . S
C1330 C1326 1.376 . S
C1330 C1329 1.392 . S
C1330 H1342 0.929 . S
C1331 C1327 1.531 . S
C1331 H1343 0.960 . S
C1331 H1344 0.962 . S
C1331 H1345 0.960 . S
C1332 C1329 1.511 . S
C1332 H1346 0.961 . S
C1332 H1347 0.961 . S
C1332 H1348 0.961 . S
C1333 C1334 1.370 . S
C1333 C1335 1.363 . S
C1333 H1349 0.931 . S
C1334 C1333 1.370 . S
C1334 C1338 1.408 . S
C1335 C1333 1.363 . S
C1335 C1336 1.370 . S
C1335 C1339 1.524 . S
C1336 C1328 1.503 . S
C1336 C1335 1.370 . S
C1336 C1337 1.403 . S
C1337 C1336 1.403 . S
C1337 C1338 1.404 . S
C1337 C1340 1.539 . S
C1338 C1334 1.408 . S
C1338 C1337 1.404 . S
C1338 H1350 0.930 . S
C1339 C1335 1.524 . S
C1339 H1351 0.956 . S
C1339 H1352 0.961 . S
C1339 H1353 0.961 . S
C1340 C1337 1.539 . S
C1340 H1354 0.958 . S
C1340 H1355 0.961 . S
C1340 H1356 0.960 . S
H1341 C1325 0.931 . S
H1342 C1330 0.929 . S
H1343 C1331 0.960 . S
H1344 C1331 0.962 . S
H1345 C1331 0.960 . S
H1346 C1332 0.961 . S
H1347 C1332 0.961 . S
H1348 C1332 0.961 . S
H1349 C1333 0.931 . S
H1350 C1338 0.930 . S
H1351 C1339 0.956 . S
H1352 C1339 0.961 . S
H1353 C1339 0.961 . S
H1354 C1340 0.958 . S
H1355 C1340 0.961 . S
H1356 C1340 0.960 . S
C1357 C1358 1.391 . S
C1357 C1359 1.394 1_545 S
C1357 H1373 0.931 . S
C1358 C1357 1.391 . S
C1358 C1362 1.376 . S
C1359 C1357 1.394 1_565 S
C1359 C1360 1.369 . S
C1359 C1363 1.531 . S
C1360 C1359 1.369 . S
C1360 C1361 1.410 . S
C1360 C1368 1.503 . S
C1361 C1360 1.410 . S
C1361 C1362 1.392 1_565 S
C1361 C1364 1.511 . S
C1362 C1358 1.376 . S
C1362 C1361 1.392 1_545 S
C1362 H1374 0.929 . S
C1363 C1359 1.531 . S
C1363 H1375 0.960 . S
C1363 H1376 0.962 . S
C1363 H1377 0.960 . S
C1364 C1361 1.511 . S
C1364 H1378 0.961 . S
C1364 H1379 0.961 . S
C1364 H1380 0.961 . S
C1365 C1366 1.370 . S
C1365 C1367 1.363 . S
C1365 H1381 0.931 . S
C1366 C1365 1.370 . S
C1366 C1370 1.408 . S
C1367 C1365 1.363 . S
C1367 C1368 1.370 . S
C1367 C1371 1.524 . S
C1368 C1360 1.503 . S
C1368 C1367 1.370 . S
C1368 C1369 1.403 . S
C1369 C1368 1.403 . S
C1369 C1370 1.404 . S
C1369 C1372 1.539 . S
C1370 C1366 1.408 . S
C1370 C1369 1.404 . S
C1370 H1382 0.930 . S
C1371 C1367 1.524 . S
C1371 H1383 0.956 . S
C1371 H1384 0.961 . S
C1371 H1385 0.961 . S
C1372 C1369 1.539 . S
C1372 H1386 0.958 . S
C1372 H1387 0.961 . S
C1372 H1388 0.960 . S
H1373 C1357 0.931 . S
H1374 C1362 0.929 . S
H1375 C1363 0.960 . S
H1376 C1363 0.962 . S
H1377 C1363 0.960 . S
H1378 C1364 0.961 . S
H1379 C1364 0.961 . S
H1380 C1364 0.961 . S
H1381 C1365 0.931 . S
H1382 C1370 0.930 . S
H1383 C1371 0.956 . S
H1384 C1371 0.961 . S
H1385 C1371 0.961 . S
H1386 C1372 0.958 . S
H1387 C1372 0.961 . S
H1388 C1372 0.960 . S
C1389 C1390 1.391 . S
C1389 C1391 1.394 . S
C1389 H1405 0.931 . S
C1390 C1389 1.391 . S
C1390 C1394 1.376 . S
C1391 C1389 1.394 . S
C1391 C1392 1.369 . S
C1391 C1395 1.531 . S
C1392 C1391 1.369 . S
C1392 C1393 1.410 . S
C1392 C1400 1.503 . S
C1393 C1392 1.410 . S
C1393 C1394 1.392 . S
C1393 C1396 1.511 . S
C1394 C1390 1.376 . S
C1394 C1393 1.392 . S
C1394 H1406 0.929 . S
C1395 C1391 1.531 . S
C1395 H1407 0.960 . S
C1395 H1408 0.962 . S
C1395 H1409 0.960 . S
C1396 C1393 1.511 . S
C1396 H1410 0.961 . S
C1396 H1411 0.961 . S
C1396 H1412 0.961 . S
C1397 C1398 1.370 . S
C1397 C1399 1.363 . S
C1397 H1413 0.931 . S
C1398 C1397 1.370 . S
C1398 C1402 1.408 . S
C1399 C1397 1.363 . S
C1399 C1400 1.370 . S
C1399 C1403 1.524 . S
C1400 C1392 1.503 . S
C1400 C1399 1.370 . S
C1400 C1401 1.403 . S
C1401 C1400 1.403 . S
C1401 C1402 1.404 . S
C1401 C1404 1.539 . S
C1402 C1398 1.408 . S
C1402 C1401 1.404 . S
C1402 H1414 0.930 . S
C1403 C1399 1.524 . S
C1403 H1415 0.956 . S
C1403 H1416 0.961 . S
C1403 H1417 0.961 . S
C1404 C1401 1.539 . S
C1404 H1418 0.958 . S
C1404 H1419 0.961 . S
C1404 H1420 0.960 . S
H1405 C1389 0.931 . S
H1406 C1394 0.929 . S
H1407 C1395 0.960 . S
H1408 C1395 0.962 . S
H1409 C1395 0.960 . S
H1410 C1396 0.961 . S
H1411 C1396 0.961 . S
H1412 C1396 0.961 . S
H1413 C1397 0.931 . S
H1414 C1402 0.930 . S
H1415 C1403 0.956 . S
H1416 C1403 0.961 . S
H1417 C1403 0.961 . S
H1418 C1404 0.958 . S
H1419 C1404 0.961 . S
H1420 C1404 0.960 . S
C1421 C1422 1.391 . S
C1421 C1423 1.394 . S
C1421 H1437 0.931 . S
C1422 C1421 1.391 . S
C1422 C1426 1.376 . S
C1423 C1421 1.394 . S
C1423 C1424 1.369 . S
C1423 C1427 1.531 . S
C1424 C1423 1.369 . S
C1424 C1425 1.410 . S
C1424 C1432 1.503 . S
C1425 C1424 1.410 . S
C1425 C1426 1.392 . S
C1425 C1428 1.511 . S
C1426 C1422 1.376 . S
C1426 C1425 1.392 . S
C1426 H1438 0.929 . S
C1427 C1423 1.531 . S
C1427 H1439 0.960 . S
C1427 H1440 0.962 . S
C1427 H1441 0.960 . S
C1428 C1425 1.511 . S
C1428 H1442 0.961 . S
C1428 H1443 0.961 . S
C1428 H1444 0.961 . S
C1429 C1430 1.370 . S
C1429 C1431 1.363 . S
C1429 H1445 0.931 . S
C1430 C1429 1.370 . S
C1430 C1434 1.408 . S
C1431 C1429 1.363 . S
C1431 C1432 1.370 . S
C1431 C1435 1.524 . S
C1432 C1424 1.503 . S
C1432 C1431 1.370 . S
C1432 C1433 1.403 . S
C1433 C1432 1.403 . S
C1433 C1434 1.404 . S
C1433 C1436 1.539 . S
C1434 C1430 1.408 . S
C1434 C1433 1.404 . S
C1434 H1446 0.930 . S
C1435 C1431 1.524 . S
C1435 H1447 0.956 . S
C1435 H1448 0.961 . S
C1435 H1449 0.961 . S
C1436 C1433 1.539 . S
C1436 H1450 0.958 . S
C1436 H1451 0.961 . S
C1436 H1452 0.960 . S
H1437 C1421 0.931 . S
H1438 C1426 0.929 . S
H1439 C1427 0.960 . S
H1440 C1427 0.962 . S
H1441 C1427 0.960 . S
H1442 C1428 0.961 . S
H1443 C1428 0.961 . S
H1444 C1428 0.961 . S
H1445 C1429 0.931 . S
H1446 C1434 0.930 . S
H1447 C1435 0.956 . S
H1448 C1435 0.961 . S
H1449 C1435 0.961 . S
H1450 C1436 0.958 . S
H1451 C1436 0.961 . S
H1452 C1436 0.960 . S
C1453 C1454 1.391 . S
C1453 C1455 1.394 . S
C1453 H1469 0.931 . S
C1454 C1453 1.391 . S
C1454 C1458 1.376 . S
C1455 C1453 1.394 . S
C1455 C1456 1.369 . S
C1455 C1459 1.531 . S
C1456 C1455 1.369 . S
C1456 C1457 1.410 . S
C1456 C1464 1.503 . S
C1457 C1456 1.410 . S
C1457 C1458 1.392 . S
C1457 C1460 1.511 . S
C1458 C1454 1.376 . S
C1458 C1457 1.392 . S
C1458 H1470 0.929 . S
C1459 C1455 1.531 . S
C1459 H1471 0.960 . S
C1459 H1472 0.962 . S
C1459 H1473 0.960 . S
C1460 C1457 1.511 . S
C1460 H1474 0.961 . S
C1460 H1475 0.961 . S
C1460 H1476 0.961 . S
C1461 C1462 1.370 . S
C1461 C1463 1.363 . S
C1461 H1477 0.931 . S
C1462 C1461 1.370 . S
C1462 C1466 1.408 . S
C1463 C1461 1.363 . S
C1463 C1464 1.370 . S
C1463 C1467 1.524 . S
C1464 C1456 1.503 . S
C1464 C1463 1.370 . S
C1464 C1465 1.403 . S
C1465 C1464 1.403 . S
C1465 C1466 1.404 . S
C1465 C1468 1.539 . S
C1466 C1462 1.408 . S
C1466 C1465 1.404 . S
C1466 H1478 0.930 . S
C1467 C1463 1.524 . S
C1467 H1479 0.956 . S
C1467 H1480 0.961 . S
C1467 H1481 0.961 . S
C1468 C1465 1.539 . S
C1468 H1482 0.958 . S
C1468 H1483 0.961 . S
C1468 H1484 0.960 . S
H1469 C1453 0.931 . S
H1470 C1458 0.929 . S
H1471 C1459 0.960 . S
H1472 C1459 0.962 . S
H1473 C1459 0.960 . S
H1474 C1460 0.961 . S
H1475 C1460 0.961 . S
H1476 C1460 0.961 . S
H1477 C1461 0.931 . S
H1478 C1466 0.930 . S
H1479 C1467 0.956 . S
H1480 C1467 0.961 . S
H1481 C1467 0.961 . S
H1482 C1468 0.958 . S
H1483 C1468 0.961 . S
H1484 C1468 0.960 . S
C1485 C1486 1.391 . S
C1485 C1487 1.394 . S
C1485 H1501 0.931 . S
C1486 C1485 1.391 . S
C1486 C1490 1.376 . S
C1487 C1485 1.394 . S
C1487 C1488 1.369 . S
C1487 C1491 1.531 . S
C1488 C1487 1.369 . S
C1488 C1489 1.410 . S
C1488 C1496 1.503 . S
C1489 C1488 1.410 . S
C1489 C1490 1.392 . S
C1489 C1492 1.511 . S
C1490 C1486 1.376 . S
C1490 C1489 1.392 . S
C1490 H1502 0.929 . S
C1491 C1487 1.531 . S
C1491 H1503 0.960 . S
C1491 H1504 0.962 . S
C1491 H1505 0.960 . S
C1492 C1489 1.511 . S
C1492 H1506 0.961 . S
C1492 H1507 0.961 . S
C1492 H1508 0.961 . S
C1493 C1494 1.370 . S
C1493 C1495 1.363 . S
C1493 H1509 0.931 . S
C1494 C1493 1.370 . S
C1494 C1498 1.408 . S
C1495 C1493 1.363 . S
C1495 C1496 1.370 . S
C1495 C1499 1.524 . S
C1496 C1488 1.503 . S
C1496 C1495 1.370 . S
C1496 C1497 1.403 . S
C1497 C1496 1.403 . S
C1497 C1498 1.404 . S
C1497 C1500 1.539 . S
C1498 C1494 1.408 . S
C1498 C1497 1.404 . S
C1498 H1510 0.930 . S
C1499 C1495 1.524 . S
C1499 H1511 0.956 . S
C1499 H1512 0.961 . S
C1499 H1513 0.961 . S
C1500 C1497 1.539 . S
C1500 H1514 0.958 . S
C1500 H1515 0.961 . S
C1500 H1516 0.960 . S
H1501 C1485 0.931 . S
H1502 C1490 0.929 . S
H1503 C1491 0.960 . S
H1504 C1491 0.962 . S
H1505 C1491 0.960 . S
H1506 C1492 0.961 . S
H1507 C1492 0.961 . S
H1508 C1492 0.961 . S
H1509 C1493 0.931 . S
H1510 C1498 0.930 . S
H1511 C1499 0.956 . S
H1512 C1499 0.961 . S
H1513 C1499 0.961 . S
H1514 C1500 0.958 . S
H1515 C1500 0.961 . S
H1516 C1500 0.960 . S
C1517 C1518 1.391 . S
C1517 C1519 1.394 . S
C1517 H1533 0.931 . S
C1518 C1517 1.391 . S
C1518 C1522 1.376 . S
C1519 C1517 1.394 . S
C1519 C1520 1.369 . S
C1519 C1523 1.531 . S
C1520 C1519 1.369 . S
C1520 C1521 1.410 . S
C1520 C1528 1.503 . S
C1521 C1520 1.410 . S
C1521 C1522 1.392 . S
C1521 C1524 1.511 . S
C1522 C1518 1.376 . S
C1522 C1521 1.392 . S
C1522 H1534 0.929 . S
C1523 C1519 1.531 . S
C1523 H1535 0.960 . S
C1523 H1536 0.962 . S
C1523 H1537 0.960 . S
C1524 C1521 1.511 . S
C1524 H1538 0.961 . S
C1524 H1539 0.961 . S
C1524 H1540 0.961 . S
C1525 C1526 1.370 . S
C1525 C1527 1.363 . S
C1525 H1541 0.931 . S
C1526 C1525 1.370 . S
C1526 C1530 1.408 . S
C1527 C1525 1.363 . S
C1527 C1528 1.370 . S
C1527 C1531 1.524 . S
C1528 C1520 1.503 . S
C1528 C1527 1.370 . S
C1528 C1529 1.403 . S
C1529 C1528 1.403 . S
C1529 C1530 1.404 . S
C1529 C1532 1.539 . S
C1530 C1526 1.408 . S
C1530 C1529 1.404 . S
C1530 H1542 0.930 . S
C1531 C1527 1.524 . S
C1531 H1543 0.956 . S
C1531 H1544 0.961 . S
C1531 H1545 0.961 . S
C1532 C1529 1.539 . S
C1532 H1546 0.958 . S
C1532 H1547 0.961 . S
C1532 H1548 0.960 . S
H1533 C1517 0.931 . S
H1534 C1522 0.929 . S
H1535 C1523 0.960 . S
H1536 C1523 0.962 . S
H1537 C1523 0.960 . S
H1538 C1524 0.961 . S
H1539 C1524 0.961 . S
H1540 C1524 0.961 . S
H1541 C1525 0.931 . S
H1542 C1530 0.930 . S
H1543 C1531 0.956 . S
H1544 C1531 0.961 . S
H1545 C1531 0.961 . S
H1546 C1532 0.958 . S
H1547 C1532 0.961 . S
H1548 C1532 0.960 . S
C1549 C1550 1.391 . S
C1549 C1551 1.394 . S
C1549 H1565 0.931 . S
C1550 C1549 1.391 . S
C1550 C1554 1.376 . S
C1551 C1549 1.394 . S
C1551 C1552 1.369 . S
C1551 C1555 1.531 . S
C1552 C1551 1.369 . S
C1552 C1553 1.410 . S
C1552 C1560 1.503 . S
C1553 C1552 1.410 . S
C1553 C1554 1.392 . S
C1553 C1556 1.511 . S
C1554 C1550 1.376 . S
C1554 C1553 1.392 . S
C1554 H1566 0.929 . S
C1555 C1551 1.531 . S
C1555 H1567 0.960 . S
C1555 H1568 0.962 . S
C1555 H1569 0.960 . S
C1556 C1553 1.511 . S
C1556 H1570 0.961 . S
C1556 H1571 0.961 . S
C1556 H1572 0.961 . S
C1557 C1558 1.370 . S
C1557 C1559 1.363 . S
C1557 H1573 0.931 . S
C1558 C1557 1.370 . S
C1558 C1562 1.408 . S
C1559 C1557 1.363 . S
C1559 C1560 1.370 . S
C1559 C1563 1.524 . S
C1560 C1552 1.503 . S
C1560 C1559 1.370 . S
C1560 C1561 1.403 . S
C1561 C1560 1.403 . S
C1561 C1562 1.404 . S
C1561 C1564 1.539 . S
C1562 C1558 1.408 . S
C1562 C1561 1.404 . S
C1562 H1574 0.930 . S
C1563 C1559 1.524 . S
C1563 H1575 0.956 . S
C1563 H1576 0.961 . S
C1563 H1577 0.961 . S
C1564 C1561 1.539 . S
C1564 H1578 0.958 . S
C1564 H1579 0.961 . S
C1564 H1580 0.960 . S
H1565 C1549 0.931 . S
H1566 C1554 0.929 . S
H1567 C1555 0.960 . S
H1568 C1555 0.962 . S
H1569 C1555 0.960 . S
H1570 C1556 0.961 . S
H1571 C1556 0.961 . S
H1572 C1556 0.961 . S
H1573 C1557 0.931 . S
H1574 C1562 0.930 . S
H1575 C1563 0.956 . S
H1576 C1563 0.961 . S
H1577 C1563 0.961 . S
H1578 C1564 0.958 . S
H1579 C1564 0.961 . S
H1580 C1564 0.960 . S
C1581 C1582 1.391 . S
C1581 C1583 1.394 1_545 S
C1581 H1597 0.931 . S
C1582 C1581 1.391 . S
C1582 C1586 1.376 1_545 S
C1583 C1581 1.394 1_565 S
C1583 C1584 1.369 . S
C1583 C1587 1.531 . S
C1584 C1583 1.369 . S
C1584 C1585 1.410 . S
C1584 C1592 1.503 . S
C1585 C1584 1.410 . S
C1585 C1586 1.392 . S
C1585 C1588 1.511 . S
C1586 C1582 1.376 1_565 S
C1586 C1585 1.392 . S
C1586 H1598 0.929 1_565 S
C1587 C1583 1.531 . S
C1587 H1599 0.960 . S
C1587 H1600 0.962 . S
C1587 H1601 0.960 . S
C1588 C1585 1.511 . S
C1588 H1602 0.961 . S
C1588 H1603 0.961 . S
C1588 H1604 0.961 . S
C1589 C1590 1.370 . S
C1589 C1591 1.363 . S
C1589 H1605 0.931 . S
C1590 C1589 1.370 . S
C1590 C1594 1.408 . S
C1591 C1589 1.363 . S
C1591 C1592 1.370 . S
C1591 C1595 1.524 . S
C1592 C1584 1.503 . S
C1592 C1591 1.370 . S
C1592 C1593 1.403 . S
C1593 C1592 1.403 . S
C1593 C1594 1.404 . S
C1593 C1596 1.539 . S
C1594 C1590 1.408 . S
C1594 C1593 1.404 . S
C1594 H1606 0.930 . S
C1595 C1591 1.524 . S
C1595 H1607 0.956 . S
C1595 H1608 0.961 . S
C1595 H1609 0.961 . S
C1596 C1593 1.539 . S
C1596 H1610 0.958 . S
C1596 H1611 0.961 . S
C1596 H1612 0.960 . S
H1597 C1581 0.931 . S
H1598 C1586 0.929 1_545 S
H1599 C1587 0.960 . S
H1600 C1587 0.962 . S
H1601 C1587 0.960 . S
H1602 C1588 0.961 . S
H1603 C1588 0.961 . S
H1604 C1588 0.961 . S
H1605 C1589 0.931 . S
H1606 C1594 0.930 . S
H1607 C1595 0.956 . S
H1608 C1595 0.961 . S
H1609 C1595 0.961 . S
H1610 C1596 0.958 . S
H1611 C1596 0.961 . S
H1612 C1596 0.960 . S
C1613 C1614 1.391 . S
C1613 C1615 1.388 1_655 S
C1613 H1629 0.936 . S
C1614 C1613 1.391 . S
C1614 C1618 1.378 1_655 S
C1615 C1613 1.388 1_455 S
C1615 C1616 1.369 . S
C1615 C1619 1.531 . S
C1616 C1615 1.369 . S
C1616 C1617 1.410 . S
C1616 C1624 1.503 . S
C1617 C1616 1.410 . S
C1617 C1618 1.390 . S
C1617 C1620 1.511 . S
C1618 C1614 1.378 1_455 S
C1618 C1617 1.390 . S
C1618 H1630 0.929 1_455 S
C1619 C1615 1.531 . S
C1619 H1631 0.960 . S
C1619 H1632 0.962 . S
C1619 H1633 0.960 . S
C1620 C1617 1.511 . S
C1620 H1634 0.961 . S
C1620 H1635 0.961 . S
C1620 H1636 0.961 . S
C1621 C1622 1.370 . S
C1621 C1623 1.363 . S
C1621 H1637 0.931 . S
C1622 C1621 1.370 . S
C1622 C1626 1.408 . S
C1623 C1621 1.363 . S
C1623 C1624 1.370 . S
C1623 C1627 1.524 . S
C1624 C1616 1.503 . S
C1624 C1623 1.370 . S
C1624 C1625 1.403 . S
C1625 C1624 1.403 . S
C1625 C1626 1.404 . S
C1625 C1628 1.539 . S
C1626 C1622 1.408 . S
C1626 C1625 1.404 . S
C1626 H1638 0.930 . S
C1627 C1623 1.524 . S
C1627 H1639 0.956 . S
C1627 H1640 0.961 . S
C1627 H1641 0.961 . S
C1628 C1625 1.539 . S
C1628 H1642 0.958 . S
C1628 H1643 0.961 . S
C1628 H1644 0.960 . S
H1629 C1613 0.936 . S
H1630 C1618 0.929 1_655 S
H1631 C1619 0.960 . S
H1632 C1619 0.962 . S
H1633 C1619 0.960 . S
H1634 C1620 0.961 . S
H1635 C1620 0.961 . S
H1636 C1620 0.961 . S
H1637 C1621 0.931 . S
H1638 C1626 0.930 . S
H1639 C1627 0.956 . S
H1640 C1627 0.961 . S
H1641 C1627 0.961 . S
H1642 C1628 0.958 . S
H1643 C1628 0.961 . S
H1644 C1628 0.960 . S
C1645 C1646 1.391 . S
C1645 C1647 1.394 . S
C1645 H1661 0.931 . S
C1646 C1645 1.391 . S
C1646 C1650 1.376 . S
C1647 C1645 1.394 . S
C1647 C1648 1.369 . S
C1647 C1651 1.531 . S
C1648 C1647 1.369 . S
C1648 C1649 1.410 . S
C1648 C1656 1.503 . S
C1649 C1648 1.410 . S
C1649 C1650 1.392 . S
C1649 C1652 1.511 . S
C1650 C1646 1.376 . S
C1650 C1649 1.392 . S
C1650 H1662 0.929 . S
C1651 C1647 1.531 . S
C1651 H1663 0.960 . S
C1651 H1664 0.962 . S
C1651 H1665 0.960 . S
C1652 C1649 1.511 . S
C1652 H1666 0.961 . S
C1652 H1667 0.961 . S
C1652 H1668 0.961 . S
C1653 C1654 1.370 . S
C1653 C1655 1.363 . S
C1653 H1669 0.931 . S
C1654 C1653 1.370 . S
C1654 C1658 1.408 . S
C1655 C1653 1.363 . S
C1655 C1656 1.370 . S
C1655 C1659 1.524 . S
C1656 C1648 1.503 . S
C1656 C1655 1.370 . S
C1656 C1657 1.403 . S
C1657 C1656 1.403 . S
C1657 C1658 1.404 . S
C1657 C1660 1.539 . S
C1658 C1654 1.408 . S
C1658 C1657 1.404 . S
C1658 H1670 0.930 . S
C1659 C1655 1.524 . S
C1659 H1671 0.956 . S
C1659 H1672 0.961 . S
C1659 H1673 0.961 . S
C1660 C1657 1.539 . S
C1660 H1674 0.958 . S
C1660 H1675 0.961 . S
C1660 H1676 0.960 . S
H1661 C1645 0.931 . S
H1662 C1650 0.929 . S
H1663 C1651 0.960 . S
H1664 C1651 0.962 . S
H1665 C1651 0.960 . S
H1666 C1652 0.961 . S
H1667 C1652 0.961 . S
H1668 C1652 0.961 . S
H1669 C1653 0.931 . S
H1670 C1658 0.930 . S
H1671 C1659 0.956 . S
H1672 C1659 0.961 . S
H1673 C1659 0.961 . S
H1674 C1660 0.958 . S
H1675 C1660 0.961 . S
H1676 C1660 0.960 . S
C1677 C1678 1.391 . S
C1677 C1679 1.394 . S
C1677 H1693 0.931 . S
C1678 C1677 1.391 . S
C1678 C1682 1.376 . S
C1679 C1677 1.394 . S
C1679 C1680 1.369 . S
C1679 C1683 1.531 . S
C1680 C1679 1.369 . S
C1680 C1681 1.410 . S
C1680 C1688 1.503 . S
C1681 C1680 1.410 . S
C1681 C1682 1.392 . S
C1681 C1684 1.511 . S
C1682 C1678 1.376 . S
C1682 C1681 1.392 . S
C1682 H1694 0.929 . S
C1683 C1679 1.531 . S
C1683 H1695 0.960 . S
C1683 H1696 0.962 . S
C1683 H1697 0.960 . S
C1684 C1681 1.511 . S
C1684 H1698 0.961 . S
C1684 H1699 0.961 . S
C1684 H1700 0.961 . S
C1685 C1686 1.370 . S
C1685 C1687 1.363 . S
C1685 H1701 0.931 . S
C1686 C1685 1.370 . S
C1686 C1690 1.408 . S
C1687 C1685 1.363 . S
C1687 C1688 1.370 . S
C1687 C1691 1.524 . S
C1688 C1680 1.503 . S
C1688 C1687 1.370 . S
C1688 C1689 1.403 . S
C1689 C1688 1.403 . S
C1689 C1690 1.404 . S
C1689 C1692 1.539 . S
C1690 C1686 1.408 . S
C1690 C1689 1.404 . S
C1690 H1702 0.930 . S
C1691 C1687 1.524 . S
C1691 H1703 0.956 . S
C1691 H1704 0.961 . S
C1691 H1705 0.961 . S
C1692 C1689 1.539 . S
C1692 H1706 0.958 . S
C1692 H1707 0.961 . S
C1692 H1708 0.960 . S
H1693 C1677 0.931 . S
H1694 C1682 0.929 . S
H1695 C1683 0.960 . S
H1696 C1683 0.962 . S
H1697 C1683 0.960 . S
H1698 C1684 0.961 . S
H1699 C1684 0.961 . S
H1700 C1684 0.961 . S
H1701 C1685 0.931 . S
H1702 C1690 0.930 . S
H1703 C1691 0.956 . S
H1704 C1691 0.961 . S
H1705 C1691 0.961 . S
H1706 C1692 0.958 . S
H1707 C1692 0.961 . S
H1708 C1692 0.960 . S
C1709 C1710 1.391 . S
C1709 C1711 1.394 . S
C1709 H1725 0.931 . S
C1710 C1709 1.391 . S
C1710 C1714 1.376 . S
C1711 C1709 1.394 . S
C1711 C1712 1.369 . S
C1711 C1715 1.531 . S
C1712 C1711 1.369 . S
C1712 C1713 1.410 . S
C1712 C1720 1.503 . S
C1713 C1712 1.410 . S
C1713 C1714 1.392 . S
C1713 C1716 1.511 . S
C1714 C1710 1.376 . S
C1714 C1713 1.392 . S
C1714 H1726 0.929 . S
C1715 C1711 1.531 . S
C1715 H1727 0.960 . S
C1715 H1728 0.962 . S
C1715 H1729 0.960 . S
C1716 C1713 1.511 . S
C1716 H1730 0.961 . S
C1716 H1731 0.961 . S
C1716 H1732 0.961 . S
C1717 C1718 1.370 . S
C1717 C1719 1.363 . S
C1717 H1733 0.931 . S
C1718 C1717 1.370 . S
C1718 C1722 1.408 . S
C1719 C1717 1.363 . S
C1719 C1720 1.370 . S
C1719 C1723 1.524 . S
C1720 C1712 1.503 . S
C1720 C1719 1.370 . S
C1720 C1721 1.403 . S
C1721 C1720 1.403 . S
C1721 C1722 1.404 . S
C1721 C1724 1.539 . S
C1722 C1718 1.408 . S
C1722 C1721 1.404 . S
C1722 H1734 0.930 . S
C1723 C1719 1.524 . S
C1723 H1735 0.956 . S
C1723 H1736 0.961 . S
C1723 H1737 0.961 . S
C1724 C1721 1.539 . S
C1724 H1738 0.958 . S
C1724 H1739 0.961 . S
C1724 H1740 0.960 . S
H1725 C1709 0.931 . S
H1726 C1714 0.929 . S
H1727 C1715 0.960 . S
H1728 C1715 0.962 . S
H1729 C1715 0.960 . S
H1730 C1716 0.961 . S
H1731 C1716 0.961 . S
H1732 C1716 0.961 . S
H1733 C1717 0.931 . S
H1734 C1722 0.930 . S
H1735 C1723 0.956 . S
H1736 C1723 0.961 . S
H1737 C1723 0.961 . S
H1738 C1724 0.958 . S
H1739 C1724 0.961 . S
H1740 C1724 0.960 . S
C1741 C1742 1.391 . S
C1741 C1743 1.394 . S
C1741 H1757 0.931 . S
C1742 C1741 1.391 . S
C1742 C1746 1.376 . S
C1743 C1741 1.394 . S
C1743 C1744 1.369 . S
C1743 C1747 1.531 . S
C1744 C1743 1.369 . S
C1744 C1745 1.410 . S
C1744 C1752 1.503 . S
C1745 C1744 1.410 . S
C1745 C1746 1.392 . S
C1745 C1748 1.511 . S
C1746 C1742 1.376 . S
C1746 C1745 1.392 . S
C1746 H1758 0.929 . S
C1747 C1743 1.531 . S
C1747 H1759 0.960 . S
C1747 H1760 0.962 . S
C1747 H1761 0.960 . S
C1748 C1745 1.511 . S
C1748 H1762 0.961 . S
C1748 H1763 0.961 . S
C1748 H1764 0.961 . S
C1749 C1750 1.370 . S
C1749 C1751 1.363 . S
C1749 H1765 0.931 . S
C1750 C1749 1.370 . S
C1750 C1754 1.408 . S
C1751 C1749 1.363 . S
C1751 C1752 1.370 . S
C1751 C1755 1.524 . S
C1752 C1744 1.503 . S
C1752 C1751 1.370 . S
C1752 C1753 1.403 . S
C1753 C1752 1.403 . S
C1753 C1754 1.404 . S
C1753 C1756 1.539 . S
C1754 C1750 1.408 . S
C1754 C1753 1.404 . S
C1754 H1766 0.930 . S
C1755 C1751 1.524 . S
C1755 H1767 0.956 . S
C1755 H1768 0.961 . S
C1755 H1769 0.961 . S
C1756 C1753 1.539 . S
C1756 H1770 0.958 . S
C1756 H1771 0.961 . S
C1756 H1772 0.960 . S
H1757 C1741 0.931 . S
H1758 C1746 0.929 . S
H1759 C1747 0.960 . S
H1760 C1747 0.962 . S
H1761 C1747 0.960 . S
H1762 C1748 0.961 . S
H1763 C1748 0.961 . S
H1764 C1748 0.961 . S
H1765 C1749 0.931 . S
H1766 C1754 0.930 . S
H1767 C1755 0.956 . S
H1768 C1755 0.961 . S
H1769 C1755 0.961 . S
H1770 C1756 0.958 . S
H1771 C1756 0.961 . S
H1772 C1756 0.960 . S
C1773 C1774 1.391 . S
C1773 C1775 1.394 1_565 S
C1773 H1789 0.931 . S
C1774 C1773 1.391 . S
C1774 C1778 1.376 1_565 S
C1775 C1773 1.394 1_545 S
C1775 C1776 1.369 . S
C1775 C1779 1.531 . S
C1776 C1775 1.369 . S
C1776 C1777 1.410 . S
C1776 C1784 1.503 . S
C1777 C1776 1.410 . S
C1777 C1778 1.392 . S
C1777 C1780 1.511 . S
C1778 C1774 1.376 1_545 S
C1778 C1777 1.392 . S
C1778 H1790 0.929 1_545 S
C1779 C1775 1.531 . S
C1779 H1791 0.960 . S
C1779 H1792 0.962 . S
C1779 H1793 0.960 . S
C1780 C1777 1.511 . S
C1780 H1794 0.961 . S
C1780 H1795 0.961 . S
C1780 H1796 0.961 . S
C1781 C1782 1.370 . S
C1781 C1783 1.363 . S
C1781 H1797 0.931 . S
C1782 C1781 1.370 . S
C1782 C1786 1.408 . S
C1783 C1781 1.363 . S
C1783 C1784 1.370 . S
C1783 C1787 1.524 . S
C1784 C1776 1.503 . S
C1784 C1783 1.370 . S
C1784 C1785 1.403 . S
C1785 C1784 1.403 . S
C1785 C1786 1.404 . S
C1785 C1788 1.539 . S
C1786 C1782 1.408 . S
C1786 C1785 1.404 . S
C1786 H1798 0.930 . S
C1787 C1783 1.524 . S
C1787 H1799 0.956 . S
C1787 H1800 0.961 . S
C1787 H1801 0.961 . S
C1788 C1785 1.539 . S
C1788 H1802 0.958 . S
C1788 H1803 0.961 . S
C1788 H1804 0.960 . S
H1789 C1773 0.931 . S
H1790 C1778 0.929 1_565 S
H1791 C1779 0.960 . S
H1792 C1779 0.962 . S
H1793 C1779 0.960 . S
H1794 C1780 0.961 . S
H1795 C1780 0.961 . S
H1796 C1780 0.961 . S
H1797 C1781 0.931 . S
H1798 C1786 0.930 . S
H1799 C1787 0.956 . S
H1800 C1787 0.961 . S
H1801 C1787 0.961 . S
H1802 C1788 0.958 . S
H1803 C1788 0.961 . S
H1804 C1788 0.960 . S
C1805 C1806 1.391 . S
C1805 C1807 1.394 1_455 S
C1805 H1821 0.931 . S
C1806 C1805 1.391 . S
C1806 C1810 1.382 . S
C1807 C1805 1.394 1_655 S
C1807 C1808 1.369 . S
C1807 C1811 1.531 . S
C1808 C1807 1.369 . S
C1808 C1809 1.410 . S
C1808 C1816 1.503 . S
C1809 C1808 1.410 . S
C1809 C1810 1.345 1_655 S
C1809 C1812 1.511 . S
C1810 C1806 1.382 . S
C1810 C1809 1.345 1_455 S
C1810 H1822 0.973 . S
C1811 C1807 1.531 . S
C1811 H1823 0.960 . S
C1811 H1824 0.962 . S
C1811 H1825 0.960 . S
C1812 C1809 1.511 . S
C1812 H1826 0.961 . S
C1812 H1827 0.961 . S
C1812 H1828 0.961 . S
C1813 C1814 1.370 . S
C1813 C1815 1.363 . S
C1813 H1829 0.931 . S
C1814 C1813 1.370 . S
C1814 C1818 1.408 . S
C1815 C1813 1.363 . S
C1815 C1816 1.370 . S
C1815 C1819 1.524 . S
C1816 C1808 1.503 . S
C1816 C1815 1.370 . S
C1816 C1817 1.403 . S
C1817 C1816 1.403 . S
C1817 C1818 1.404 . S
C1817 C1820 1.539 . S
C1818 C1814 1.408 . S
C1818 C1817 1.404 . S
C1818 H1830 0.930 . S
C1819 C1815 1.524 . S
C1819 H1831 0.956 . S
C1819 H1832 0.961 . S
C1819 H1833 0.961 . S
C1820 C1817 1.539 . S
C1820 H1834 0.958 . S
C1820 H1835 0.961 . S
C1820 H1836 0.960 . S
H1821 C1805 0.931 . S
H1822 C1810 0.973 . S
H1823 C1811 0.960 . S
H1824 C1811 0.962 . S
H1825 C1811 0.960 . S
H1826 C1812 0.961 . S
H1827 C1812 0.961 . S
H1828 C1812 0.961 . S
H1829 C1813 0.931 . S
H1830 C1818 0.930 . S
H1831 C1819 0.956 . S
H1832 C1819 0.961 . S
H1833 C1819 0.961 . S
H1834 C1820 0.958 . S
H1835 C1820 0.961 . S
H1836 C1820 0.960 . S
C1837 C1838 1.391 . S
C1837 C1839 1.394 . S
C1837 H1853 0.931 . S
C1838 C1837 1.391 . S
C1838 C1842 1.376 . S
C1839 C1837 1.394 . S
C1839 C1840 1.369 . S
C1839 C1843 1.531 . S
C1840 C1839 1.369 . S
C1840 C1841 1.410 . S
C1840 C1848 1.503 . S
C1841 C1840 1.410 . S
C1841 C1842 1.392 . S
C1841 C1844 1.511 . S
C1842 C1838 1.376 . S
C1842 C1841 1.392 . S
C1842 H1854 0.929 . S
C1843 C1839 1.531 . S
C1843 H1855 0.960 . S
C1843 H1856 0.962 . S
C1843 H1857 0.960 . S
C1844 C1841 1.511 . S
C1844 H1858 0.961 . S
C1844 H1859 0.961 . S
C1844 H1860 0.961 . S
C1845 C1846 1.370 . S
C1845 C1847 1.363 . S
C1845 H1861 0.931 . S
C1846 C1845 1.370 . S
C1846 C1850 1.408 . S
C1847 C1845 1.363 . S
C1847 C1848 1.370 . S
C1847 C1851 1.524 . S
C1848 C1840 1.503 . S
C1848 C1847 1.370 . S
C1848 C1849 1.403 . S
C1849 C1848 1.403 . S
C1849 C1850 1.404 . S
C1849 C1852 1.539 . S
C1850 C1846 1.408 . S
C1850 C1849 1.404 . S
C1850 H1862 0.930 . S
C1851 C1847 1.524 . S
C1851 H1863 0.956 . S
C1851 H1864 0.961 . S
C1851 H1865 0.961 . S
C1852 C1849 1.539 . S
C1852 H1866 0.958 . S
C1852 H1867 0.961 . S
C1852 H1868 0.960 . S
H1853 C1837 0.931 . S
H1854 C1842 0.929 . S
H1855 C1843 0.960 . S
H1856 C1843 0.962 . S
H1857 C1843 0.960 . S
H1858 C1844 0.961 . S
H1859 C1844 0.961 . S
H1860 C1844 0.961 . S
H1861 C1845 0.931 . S
H1862 C1850 0.930 . S
H1863 C1851 0.956 . S
H1864 C1851 0.961 . S
H1865 C1851 0.961 . S
H1866 C1852 0.958 . S
H1867 C1852 0.961 . S
H1868 C1852 0.960 . S
C1869 C1870 1.391 . S
C1869 C1871 1.394 1_455 S
C1869 H1885 0.931 . S
C1870 C1869 1.391 . S
C1870 C1874 1.376 . S
C1871 C1869 1.394 1_655 S
C1871 C1872 1.369 . S
C1871 C1875 1.531 . S
C1872 C1871 1.369 . S
C1872 C1873 1.410 . S
C1872 C1880 1.503 . S
C1873 C1872 1.410 . S
C1873 C1874 1.392 1_655 S
C1873 C1876 1.511 . S
C1874 C1870 1.376 . S
C1874 C1873 1.392 1_455 S
C1874 H1886 0.929 . S
C1875 C1871 1.531 . S
C1875 H1887 0.960 . S
C1875 H1888 0.962 . S
C1875 H1889 0.960 . S
C1876 C1873 1.511 . S
C1876 H1890 0.961 . S
C1876 H1891 0.961 . S
C1876 H1892 0.961 . S
C1877 C1878 1.370 . S
C1877 C1879 1.363 . S
C1877 H1893 0.931 . S
C1878 C1877 1.370 . S
C1878 C1882 1.408 . S
C1879 C1877 1.363 . S
C1879 C1880 1.370 . S
C1879 C1883 1.524 . S
C1880 C1872 1.503 . S
C1880 C1879 1.370 . S
C1880 C1881 1.403 . S
C1881 C1880 1.403 . S
C1881 C1882 1.404 . S
C1881 C1884 1.539 . S
C1882 C1878 1.408 . S
C1882 C1881 1.404 . S
C1882 H1894 0.930 . S
C1883 C1879 1.524 . S
C1883 H1895 0.956 . S
C1883 H1896 0.961 . S
C1883 H1897 0.961 . S
C1884 C1881 1.539 . S
C1884 H1898 0.958 . S
C1884 H1899 0.961 . S
C1884 H1900 0.960 . S
H1885 C1869 0.931 . S
H1886 C1874 0.929 . S
H1887 C1875 0.960 . S
H1888 C1875 0.962 . S
H1889 C1875 0.960 . S
H1890 C1876 0.961 . S
H1891 C1876 0.961 . S
H1892 C1876 0.961 . S
H1893 C1877 0.931 . S
H1894 C1882 0.930 . S
H1895 C1883 0.956 . S
H1896 C1883 0.961 . S
H1897 C1883 0.961 . S
H1898 C1884 0.958 . S
H1899 C1884 0.961 . S
H1900 C1884 0.960 . S
C1901 C1902 1.391 . S
C1901 C1903 1.394 . S
C1901 H1917 0.931 . S
C1902 C1901 1.391 . S
C1902 C1906 1.376 . S
C1903 C1901 1.394 . S
C1903 C1904 1.369 . S
C1903 C1907 1.531 . S
C1904 C1903 1.369 . S
C1904 C1905 1.410 . S
C1904 C1912 1.503 . S
C1905 C1904 1.410 . S
C1905 C1906 1.392 . S
C1905 C1908 1.511 . S
C1906 C1902 1.376 . S
C1906 C1905 1.392 . S
C1906 H1918 0.929 . S
C1907 C1903 1.531 . S
C1907 H1919 0.960 . S
C1907 H1920 0.962 . S
C1907 H1921 0.960 . S
C1908 C1905 1.511 . S
C1908 H1922 0.961 . S
C1908 H1923 0.961 . S
C1908 H1924 0.961 . S
C1909 C1910 1.370 . S
C1909 C1911 1.363 . S
C1909 H1925 0.931 . S
C1910 C1909 1.370 . S
C1910 C1914 1.408 . S
C1911 C1909 1.363 . S
C1911 C1912 1.370 . S
C1911 C1915 1.524 . S
C1912 C1904 1.503 . S
C1912 C1911 1.370 . S
C1912 C1913 1.403 . S
C1913 C1912 1.403 . S
C1913 C1914 1.404 . S
C1913 C1916 1.539 . S
C1914 C1910 1.408 . S
C1914 C1913 1.404 . S
C1914 H1926 0.930 . S
C1915 C1911 1.524 . S
C1915 H1927 0.956 . S
C1915 H1928 0.961 . S
C1915 H1929 0.961 . S
C1916 C1913 1.539 . S
C1916 H1930 0.958 . S
C1916 H1931 0.961 . S
C1916 H1932 0.960 . S
H1917 C1901 0.931 . S
H1918 C1906 0.929 . S
H1919 C1907 0.960 . S
H1920 C1907 0.962 . S
H1921 C1907 0.960 . S
H1922 C1908 0.961 . S
H1923 C1908 0.961 . S
H1924 C1908 0.961 . S
H1925 C1909 0.931 . S
H1926 C1914 0.930 . S
H1927 C1915 0.956 . S
H1928 C1915 0.961 . S
H1929 C1915 0.961 . S
H1930 C1916 0.958 . S
H1931 C1916 0.961 . S
H1932 C1916 0.960 . S
C1933 C1934 1.352 1_545 S
C1933 C1935 1.439 . S
C1933 H1949 0.927 1_545 S
C1934 C1933 1.352 1_565 S
C1934 C1938 1.376 1_565 S
C1935 C1933 1.439 . S
C1935 C1936 1.369 . S
C1935 C1939 1.531 . S
C1936 C1935 1.369 . S
C1936 C1937 1.410 . S
C1936 C1944 1.503 . S
C1937 C1936 1.410 . S
C1937 C1938 1.392 . S
C1937 C1940 1.511 . S
C1938 C1934 1.376 1_545 S
C1938 C1937 1.392 . S
C1938 H1950 0.929 1_545 S
C1939 C1935 1.531 . S
C1939 H1951 0.960 . S
C1939 H1952 0.962 . S
C1939 H1953 0.960 . S
C1940 C1937 1.511 . S
C1940 H1954 0.961 . S
C1940 H1955 0.961 . S
C1940 H1956 0.961 . S
C1941 C1942 1.370 . S
C1941 C1943 1.363 . S
C1941 H1957 0.931 . S
C1942 C1941 1.370 . S
C1942 C1946 1.408 . S
C1943 C1941 1.363 . S
C1943 C1944 1.370 . S
C1943 C1947 1.524 . S
C1944 C1936 1.503 . S
C1944 C1943 1.370 . S
C1944 C1945 1.403 . S
C1945 C1944 1.403 . S
C1945 C1946 1.404 . S
C1945 C1948 1.539 . S
C1946 C1942 1.408 . S
C1946 C1945 1.404 . S
C1946 H1958 0.930 . S
C1947 C1943 1.524 . S
C1947 H1959 0.956 . S
C1947 H1960 0.961 . S
C1947 H1961 0.961 . S
C1948 C1945 1.539 . S
C1948 H1962 0.958 . S
C1948 H1963 0.961 . S
C1948 H1964 0.960 . S
H1949 C1933 0.927 1_565 S
H1950 C1938 0.929 1_565 S
H1951 C1939 0.960 . S
H1952 C1939 0.962 . S
H1953 C1939 0.960 . S
H1954 C1940 0.961 . S
H1955 C1940 0.961 . S
H1956 C1940 0.961 . S
H1957 C1941 0.931 . S
H1958 C1946 0.930 . S
H1959 C1947 0.956 . S
H1960 C1947 0.961 . S
H1961 C1947 0.961 . S
H1962 C1948 0.958 . S
H1963 C1948 0.961 . S
H1964 C1948 0.960 . S
C1965 C1966 1.391 . S
C1965 C1967 1.394 . S
C1965 H1981 0.931 . S
C1966 C1965 1.391 . S
C1966 C1970 1.376 . S
C1967 C1965 1.394 . S
C1967 C1968 1.369 . S
C1967 C1971 1.531 . S
C1968 C1967 1.369 . S
C1968 C1969 1.410 . S
C1968 C1976 1.503 . S
C1969 C1968 1.410 . S
C1969 C1970 1.392 . S
C1969 C1972 1.511 . S
C1970 C1966 1.376 . S
C1970 C1969 1.392 . S
C1970 H1982 0.929 . S
C1971 C1967 1.531 . S
C1971 H1983 0.960 . S
C1971 H1984 0.962 . S
C1971 H1985 0.960 . S
C1972 C1969 1.511 . S
C1972 H1986 0.961 . S
C1972 H1987 0.961 . S
C1972 H1988 0.961 . S
C1973 C1974 1.370 . S
C1973 C1975 1.363 . S
C1973 H1989 0.931 . S
C1974 C1973 1.370 . S
C1974 C1978 1.408 . S
C1975 C1973 1.363 . S
C1975 C1976 1.370 . S
C1975 C1979 1.524 . S
C1976 C1968 1.503 . S
C1976 C1975 1.370 . S
C1976 C1977 1.403 . S
C1977 C1976 1.403 . S
C1977 C1978 1.404 . S
C1977 C1980 1.539 . S
C1978 C1974 1.408 . S
C1978 C1977 1.404 . S
C1978 H1990 0.930 . S
C1979 C1975 1.524 . S
C1979 H1991 0.956 . S
C1979 H1992 0.961 . S
C1979 H1993 0.961 . S
C1980 C1977 1.539 . S
C1980 H1994 0.958 . S
C1980 H1995 0.961 . S
C1980 H1996 0.960 . S
H1981 C1965 0.931 . S
H1982 C1970 0.929 . S
H1983 C1971 0.960 . S
H1984 C1971 0.962 . S
H1985 C1971 0.960 . S
H1986 C1972 0.961 . S
H1987 C1972 0.961 . S
H1988 C1972 0.961 . S
H1989 C1973 0.931 . S
H1990 C1978 0.930 . S
H1991 C1979 0.956 . S
H1992 C1979 0.961 . S
H1993 C1979 0.961 . S
H1994 C1980 0.958 . S
H1995 C1980 0.961 . S
H1996 C1980 0.960 . S
C1997 C1998 1.391 . S
C1997 C1999 1.394 . S
C1997 H2013 0.931 . S
C1998 C1997 1.391 . S
C1998 C2002 1.376 . S
C1999 C1997 1.394 . S
C1999 C2000 1.369 . S
C1999 C2003 1.531 . S
C2000 C1999 1.369 . S
C2000 C2001 1.410 . S
C2000 C2008 1.503 . S
C2001 C2000 1.410 . S
C2001 C2002 1.392 . S
C2001 C2004 1.511 . S
C2002 C1998 1.376 . S
C2002 C2001 1.392 . S
C2002 H2014 0.929 . S
C2003 C1999 1.531 . S
C2003 H2015 0.960 . S
C2003 H2016 0.962 . S
C2003 H2017 0.960 . S
C2004 C2001 1.511 . S
C2004 H2018 0.961 . S
C2004 H2019 0.961 . S
C2004 H2020 0.961 . S
C2005 C2006 1.370 . S
C2005 C2007 1.363 . S
C2005 H2021 0.931 . S
C2006 C2005 1.370 . S
C2006 C2010 1.408 . S
C2007 C2005 1.363 . S
C2007 C2008 1.370 . S
C2007 C2011 1.524 . S
C2008 C2000 1.503 . S
C2008 C2007 1.370 . S
C2008 C2009 1.403 . S
C2009 C2008 1.403 . S
C2009 C2010 1.404 . S
C2009 C2012 1.539 . S
C2010 C2006 1.408 . S
C2010 C2009 1.404 . S
C2010 H2022 0.930 . S
C2011 C2007 1.524 . S
C2011 H2023 0.956 . S
C2011 H2024 0.961 . S
C2011 H2025 0.961 . S
C2012 C2009 1.539 . S
C2012 H2026 0.958 . S
C2012 H2027 0.961 . S
C2012 H2028 0.960 . S
H2013 C1997 0.931 . S
H2014 C2002 0.929 . S
H2015 C2003 0.960 . S
H2016 C2003 0.962 . S
H2017 C2003 0.960 . S
H2018 C2004 0.961 . S
H2019 C2004 0.961 . S
H2020 C2004 0.961 . S
H2021 C2005 0.931 . S
H2022 C2010 0.930 . S
H2023 C2011 0.956 . S
H2024 C2011 0.961 . S
H2025 C2011 0.961 . S
H2026 C2012 0.958 . S
H2027 C2012 0.961 . S
H2028 C2012 0.960 . S
C2029 C2030 1.391 . S
C2029 C2031 1.394 . S
C2029 H2045 0.931 . S
C2030 C2029 1.391 . S
C2030 C2034 1.376 . S
C2031 C2029 1.394 . S
C2031 C2032 1.369 . S
C2031 C2035 1.531 . S
C2032 C2031 1.369 . S
C2032 C2033 1.410 . S
C2032 C2040 1.503 . S
C2033 C2032 1.410 . S
C2033 C2034 1.392 . S
C2033 C2036 1.511 . S
C2034 C2030 1.376 . S
C2034 C2033 1.392 . S
C2034 H2046 0.929 . S
C2035 C2031 1.531 . S
C2035 H2047 0.960 . S
C2035 H2048 0.962 . S
C2035 H2049 0.960 . S
C2036 C2033 1.511 . S
C2036 H2050 0.961 . S
C2036 H2051 0.961 . S
C2036 H2052 0.961 . S
C2037 C2038 1.370 . S
C2037 C2039 1.363 . S
C2037 H2053 0.931 . S
C2038 C2037 1.370 . S
C2038 C2042 1.408 . S
C2039 C2037 1.363 . S
C2039 C2040 1.370 . S
C2039 C2043 1.524 . S
C2040 C2032 1.503 . S
C2040 C2039 1.370 . S
C2040 C2041 1.403 . S
C2041 C2040 1.403 . S
C2041 C2042 1.404 . S
C2041 C2044 1.539 . S
C2042 C2038 1.408 . S
C2042 C2041 1.404 . S
C2042 H2054 0.930 . S
C2043 C2039 1.524 . S
C2043 H2055 0.956 . S
C2043 H2056 0.961 . S
C2043 H2057 0.961 . S
C2044 C2041 1.539 . S
C2044 H2058 0.958 . S
C2044 H2059 0.961 . S
C2044 H2060 0.960 . S
H2045 C2029 0.931 . S
H2046 C2034 0.929 . S
H2047 C2035 0.960 . S
H2048 C2035 0.962 . S
H2049 C2035 0.960 . S
H2050 C2036 0.961 . S
H2051 C2036 0.961 . S
H2052 C2036 0.961 . S
H2053 C2037 0.931 . S
H2054 C2042 0.930 . S
H2055 C2043 0.956 . S
H2056 C2043 0.961 . S
H2057 C2043 0.961 . S
H2058 C2044 0.958 . S
H2059 C2044 0.961 . S
H2060 C2044 0.960 . S
C2061 C2062 1.391 . S
C2061 C2063 1.394 . S
C2061 H2077 0.931 . S
C2062 C2061 1.391 . S
C2062 C2066 1.376 . S
C2063 C2061 1.394 . S
C2063 C2064 1.369 . S
C2063 C2067 1.531 . S
C2064 C2063 1.369 . S
C2064 C2065 1.410 . S
C2064 C2072 1.503 . S
C2065 C2064 1.410 . S
C2065 C2066 1.392 . S
C2065 C2068 1.511 1_565 S
C2066 C2062 1.376 . S
C2066 C2065 1.392 . S
C2066 H2078 0.929 1_565 S
C2067 C2063 1.531 . S
C2067 H2079 0.960 . S
C2067 H2080 0.962 . S
C2067 H2081 0.960 . S
C2068 C2065 1.511 1_545 S
C2068 H2082 0.961 . S
C2068 H2083 0.961 . S
C2068 H2084 0.961 . S
C2069 C2070 1.365 1_545 S
C2069 C2071 1.363 . S
C2069 H2085 0.931 . S
C2070 C2069 1.365 1_565 S
C2070 C2074 1.422 . S
C2071 C2069 1.363 . S
C2071 C2072 1.370 1_545 S
C2071 C2075 1.524 . S
C2072 C2064 1.503 . S
C2072 C2071 1.370 1_565 S
C2072 C2073 1.403 . S
C2073 C2072 1.403 . S
C2073 C2074 1.404 . S
C2073 C2076 1.539 . S
C2074 C2070 1.422 . S
C2074 C2073 1.404 . S
C2074 H2086 0.930 . S
C2075 C2071 1.524 . S
C2075 H2087 0.956 . S
C2075 H2088 0.961 . S
C2075 H2089 0.961 . S
C2076 C2073 1.539 . S
C2076 H2090 0.958 . S
C2076 H2091 0.961 . S
C2076 H2092 0.960 . S
H2077 C2061 0.931 . S
H2078 C2066 0.929 1_545 S
H2079 C2067 0.960 . S
H2080 C2067 0.962 . S
H2081 C2067 0.960 . S
H2082 C2068 0.961 . S
H2083 C2068 0.961 . S
H2084 C2068 0.961 . S
H2085 C2069 0.931 . S
H2086 C2074 0.930 . S
H2087 C2075 0.956 . S
H2088 C2075 0.961 . S
H2089 C2075 0.961 . S
H2090 C2076 0.958 . S
H2091 C2076 0.961 . S
H2092 C2076 0.960 . S
C2093 C2094 1.391 . S
C2093 C2095 1.394 . S
C2093 H2109 0.931 1_455 S
C2094 C2093 1.391 . S
C2094 C2098 1.376 . S
C2095 C2093 1.394 . S
C2095 C2096 1.369 . S
C2095 C2099 1.531 1_455 S
C2096 C2095 1.369 . S
C2096 C2097 1.410 . S
C2096 C2104 1.503 . S
C2097 C2096 1.410 . S
C2097 C2098 1.392 . S
C2097 C2100 1.511 . S
C2098 C2094 1.376 . S
C2098 C2097 1.392 . S
C2098 H2110 0.929 . S
C2099 C2095 1.531 1_655 S
C2099 H2111 0.960 . S
C2099 H2112 0.962 . S
C2099 H2113 0.960 . S
C2100 C2097 1.511 . S
C2100 H2114 0.961 . S
C2100 H2115 0.961 . S
C2100 H2116 0.961 . S
C2101 C2102 1.370 1_655 S
C2101 C2103 1.363 1_655 S
C2101 H2117 0.931 . S
C2102 C2101 1.370 1_455 S
C2102 C2106 1.408 . S
C2103 C2101 1.363 1_455 S
C2103 C2104 1.370 . S
C2103 C2107 1.524 1_455 S
C2104 C2096 1.503 . S
C2104 C2103 1.370 . S
C2104 C2105 1.403 . S
C2105 C2104 1.403 . S
C2105 C2106 1.404 . S
C2105 C2108 1.539 . S
C2106 C2102 1.408 . S
C2106 C2105 1.404 . S
C2106 H2118 0.930 . S
C2107 C2103 1.524 1_655 S
C2107 H2119 0.956 . S
C2107 H2120 0.961 1_655 S
C2107 H2121 0.961 . S
C2108 C2105 1.539 . S
C2108 H2122 0.958 . S
C2108 H2123 0.961 . S
C2108 H2124 0.960 . S
H2109 C2093 0.931 1_655 S
H2110 C2098 0.929 . S
H2111 C2099 0.960 . S
H2112 C2099 0.962 . S
H2113 C2099 0.960 . S
H2114 C2100 0.961 . S
H2115 C2100 0.961 . S
H2116 C2100 0.961 . S
H2117 C2101 0.931 . S
H2118 C2106 0.930 . S
H2119 C2107 0.956 . S
H2120 C2107 0.961 1_455 S
H2121 C2107 0.961 . S
H2122 C2108 0.958 . S
H2123 C2108 0.961 . S
H2124 C2108 0.960 . S
C2125 C2126 1.391 . S
C2125 C2127 1.394 . S
C2125 H2141 0.931 . S
C2126 C2125 1.391 . S
C2126 C2130 1.376 . S
C2127 C2125 1.394 . S
C2127 C2128 1.369 . S
C2127 C2131 1.531 . S
C2128 C2127 1.369 . S
C2128 C2129 1.410 . S
C2128 C2136 1.503 . S
C2129 C2128 1.410 . S
C2129 C2130 1.392 . S
C2129 C2132 1.511 . S
C2130 C2126 1.376 . S
C2130 C2129 1.392 . S
C2130 H2142 0.929 . S
C2131 C2127 1.531 . S
C2131 H2143 0.960 . S
C2131 H2144 0.962 . S
C2131 H2145 0.960 . S
C2132 C2129 1.511 . S
C2132 H2146 0.961 . S
C2132 H2147 0.961 . S
C2132 H2148 0.961 . S
C2133 C2134 1.370 . S
C2133 C2135 1.363 . S
C2133 H2149 0.931 . S
C2134 C2133 1.370 . S
C2134 C2138 1.408 . S
C2135 C2133 1.363 . S
C2135 C2136 1.370 . S
C2135 C2139 1.524 . S
C2136 C2128 1.503 . S
C2136 C2135 1.370 . S
C2136 C2137 1.403 . S
C2137 C2136 1.403 . S
C2137 C2138 1.404 . S
C2137 C2140 1.539 . S
C2138 C2134 1.408 . S
C2138 C2137 1.404 . S
C2138 H2150 0.930 . S
C2139 C2135 1.524 . S
C2139 H2151 0.956 . S
C2139 H2152 0.961 . S
C2139 H2153 0.961 . S
C2140 C2137 1.539 . S
C2140 H2154 0.958 . S
C2140 H2155 0.961 . S
C2140 H2156 0.960 . S
H2141 C2125 0.931 . S
H2142 C2130 0.929 . S
H2143 C2131 0.960 . S
H2144 C2131 0.962 . S
H2145 C2131 0.960 . S
H2146 C2132 0.961 . S
H2147 C2132 0.961 . S
H2148 C2132 0.961 . S
H2149 C2133 0.931 . S
H2150 C2138 0.930 . S
H2151 C2139 0.956 . S
H2152 C2139 0.961 . S
H2153 C2139 0.961 . S
H2154 C2140 0.958 . S
H2155 C2140 0.961 . S
H2156 C2140 0.960 . S
C2157 C2158 1.391 . S
C2157 C2159 1.394 . S
C2157 H2173 0.931 . S
C2158 C2157 1.391 . S
C2158 C2162 1.376 . S
C2159 C2157 1.394 . S
C2159 C2160 1.369 . S
C2159 C2163 1.531 . S
C2160 C2159 1.369 . S
C2160 C2161 1.410 1_655 S
C2160 C2168 1.503 . S
C2161 C2160 1.410 1_455 S
C2161 C2162 1.392 1_455 S
C2161 C2164 1.511 . S
C2162 C2158 1.376 . S
C2162 C2161 1.392 1_655 S
C2162 H2174 0.929 1_655 S
C2163 C2159 1.531 . S
C2163 H2175 0.960 . S
C2163 H2176 0.962 . S
C2163 H2177 0.960 . S
C2164 C2161 1.511 . S
C2164 H2178 0.961 . S
C2164 H2179 0.961 . S
C2164 H2180 0.961 . S
C2165 C2166 1.370 . S
C2165 C2167 1.363 . S
C2165 H2181 0.931 . S
C2166 C2165 1.370 . S
C2166 C2170 1.408 1_655 S
C2167 C2165 1.363 . S
C2167 C2168 1.370 . S
C2167 C2171 1.524 . S
C2168 C2160 1.503 . S
C2168 C2167 1.370 . S
C2168 C2169 1.403 . S
C2169 C2168 1.403 . S
C2169 C2170 1.404 1_655 S
C2169 C2172 1.539 1_655 S
C2170 C2166 1.408 1_455 S
C2170 C2169 1.404 1_455 S
C2170 H2182 0.930 . S
C2171 C2167 1.524 . S
C2171 H2183 0.956 . S
C2171 H2184 0.961 . S
C2171 H2185 0.961 . S
C2172 C2169 1.539 1_455 S
C2172 H2186 0.958 1_455 S
C2172 H2187 0.961 . S
C2172 H2188 0.960 . S
H2173 C2157 0.931 . S
H2174 C2162 0.929 1_455 S
H2175 C2163 0.960 . S
H2176 C2163 0.962 . S
H2177 C2163 0.960 . S
H2178 C2164 0.961 . S
H2179 C2164 0.961 . S
H2180 C2164 0.961 . S
H2181 C2165 0.931 . S
H2182 C2170 0.930 . S
H2183 C2171 0.956 . S
H2184 C2171 0.961 . S
H2185 C2171 0.961 . S
H2186 C2172 0.958 1_655 S
H2187 C2172 0.961 . S
H2188 C2172 0.960 . S
C2189 C2190 1.391 . S
C2189 C2191 1.394 . S
C2189 H2205 0.931 . S
C2190 C2189 1.391 . S
C2190 C2194 1.376 . S
C2191 C2189 1.394 . S
C2191 C2192 1.369 . S
C2191 C2195 1.531 . S
C2192 C2191 1.369 . S
C2192 C2193 1.410 . S
C2192 C2200 1.503 . S
C2193 C2192 1.410 . S
C2193 C2194 1.392 . S
C2193 C2196 1.511 . S
C2194 C2190 1.376 . S
C2194 C2193 1.392 . S
C2194 H2206 0.929 . S
C2195 C2191 1.531 . S
C2195 H2207 0.960 . S
C2195 H2208 0.962 . S
C2195 H2209 0.960 . S
C2196 C2193 1.511 . S
C2196 H2210 0.961 . S
C2196 H2211 0.961 . S
C2196 H2212 0.961 . S
C2197 C2198 1.370 . S
C2197 C2199 1.363 . S
C2197 H2213 0.931 . S
C2198 C2197 1.370 . S
C2198 C2202 1.408 . S
C2199 C2197 1.363 . S
C2199 C2200 1.370 . S
C2199 C2203 1.524 . S
C2200 C2192 1.503 . S
C2200 C2199 1.370 . S
C2200 C2201 1.403 . S
C2201 C2200 1.403 . S
C2201 C2202 1.404 . S
C2201 C2204 1.539 . S
C2202 C2198 1.408 . S
C2202 C2201 1.404 . S
C2202 H2214 0.930 . S
C2203 C2199 1.524 . S
C2203 H2215 0.956 . S
C2203 H2216 0.961 . S
C2203 H2217 0.961 . S
C2204 C2201 1.539 . S
C2204 H2218 0.958 . S
C2204 H2219 0.961 . S
C2204 H2220 0.960 . S
H2205 C2189 0.931 . S
H2206 C2194 0.929 . S
H2207 C2195 0.960 . S
H2208 C2195 0.962 . S
H2209 C2195 0.960 . S
H2210 C2196 0.961 . S
H2211 C2196 0.961 . S
H2212 C2196 0.961 . S
H2213 C2197 0.931 . S
H2214 C2202 0.930 . S
H2215 C2203 0.956 . S
H2216 C2203 0.961 . S
H2217 C2203 0.961 . S
H2218 C2204 0.958 . S
H2219 C2204 0.961 . S
H2220 C2204 0.960 . S
C2221 C2222 1.391 . S
C2221 C2223 1.394 . S
C2221 H2237 0.931 . S
C2222 C2221 1.391 . S
C2222 C2226 1.376 . S
C2223 C2221 1.394 . S
C2223 C2224 1.369 . S
C2223 C2227 1.531 . S
C2224 C2223 1.369 . S
C2224 C2225 1.410 . S
C2224 C2232 1.503 . S
C2225 C2224 1.410 . S
C2225 C2226 1.392 . S
C2225 C2228 1.511 . S
C2226 C2222 1.376 . S
C2226 C2225 1.392 . S
C2226 H2238 0.929 . S
C2227 C2223 1.531 . S
C2227 H2239 0.960 . S
C2227 H2240 0.962 . S
C2227 H2241 0.960 . S
C2228 C2225 1.511 . S
C2228 H2242 0.961 . S
C2228 H2243 0.961 . S
C2228 H2244 0.961 1_545 S
C2229 C2230 1.370 . S
C2229 C2231 1.363 . S
C2229 H2245 0.931 . S
C2230 C2229 1.370 . S
C2230 C2234 1.408 1_545 S
C2231 C2229 1.363 . S
C2231 C2232 1.370 . S
C2231 C2235 1.524 . S
C2232 C2224 1.503 . S
C2232 C2231 1.370 . S
C2232 C2233 1.403 1_545 S
C2233 C2232 1.403 1_565 S
C2233 C2234 1.404 . S
C2233 C2236 1.539 . S
C2234 C2230 1.408 1_565 S
C2234 C2233 1.404 . S
C2234 H2246 0.930 . S
C2235 C2231 1.524 . S
C2235 H2247 0.956 . S
C2235 H2248 0.961 . S
C2235 H2249 0.961 . S
C2236 C2233 1.539 . S
C2236 H2250 0.958 . S
C2236 H2251 0.961 . S
C2236 H2252 0.960 . S
H2237 C2221 0.931 . S
H2238 C2226 0.929 . S
H2239 C2227 0.960 . S
H2240 C2227 0.962 . S
H2241 C2227 0.960 . S
H2242 C2228 0.961 . S
H2243 C2228 0.961 . S
H2244 C2228 0.961 1_565 S
H2245 C2229 0.931 . S
H2246 C2234 0.930 . S
H2247 C2235 0.956 . S
H2248 C2235 0.961 . S
H2249 C2235 0.961 . S
H2250 C2236 0.958 . S
H2251 C2236 0.961 . S
H2252 C2236 0.960 . S
C2253 C2254 1.391 . S
C2253 C2255 1.394 . S
C2253 H2269 0.931 . S
C2254 C2253 1.391 . S
C2254 C2258 1.376 . S
C2255 C2253 1.394 . S
C2255 C2256 1.369 . S
C2255 C2259 1.531 . S
C2256 C2255 1.369 . S
C2256 C2257 1.410 . S
C2256 C2264 1.503 . S
C2257 C2256 1.410 . S
C2257 C2258 1.392 . S
C2257 C2260 1.511 . S
C2258 C2254 1.376 . S
C2258 C2257 1.392 . S
C2258 H2270 0.929 . S
C2259 C2255 1.531 . S
C2259 H2271 0.960 . S
C2259 H2272 0.962 . S
C2259 H2273 0.960 . S
C2260 C2257 1.511 . S
C2260 H2274 0.961 . S
C2260 H2275 0.961 . S
C2260 H2276 0.961 . S
C2261 C2262 1.370 . S
C2261 C2263 1.363 . S
C2261 H2277 0.931 . S
C2262 C2261 1.370 . S
C2262 C2266 1.408 . S
C2263 C2261 1.363 . S
C2263 C2264 1.370 . S
C2263 C2267 1.524 . S
C2264 C2256 1.503 . S
C2264 C2263 1.370 . S
C2264 C2265 1.403 . S
C2265 C2264 1.403 . S
C2265 C2266 1.404 . S
C2265 C2268 1.539 . S
C2266 C2262 1.408 . S
C2266 C2265 1.404 . S
C2266 H2278 0.930 . S
C2267 C2263 1.524 . S
C2267 H2279 0.956 . S
C2267 H2280 0.961 . S
C2267 H2281 0.961 . S
C2268 C2265 1.539 . S
C2268 H2282 0.958 . S
C2268 H2283 0.961 . S
C2268 H2284 0.960 . S
H2269 C2253 0.931 . S
H2270 C2258 0.929 . S
H2271 C2259 0.960 . S
H2272 C2259 0.962 . S
H2273 C2259 0.960 . S
H2274 C2260 0.961 . S
H2275 C2260 0.961 . S
H2276 C2260 0.961 . S
H2277 C2261 0.931 . S
H2278 C2266 0.930 . S
H2279 C2267 0.956 . S
H2280 C2267 0.961 . S
H2281 C2267 0.961 . S
H2282 C2268 0.958 . S
H2283 C2268 0.961 . S
H2284 C2268 0.960 . S
C2285 C2286 1.391 . S
C2285 C2287 1.394 . S
C2285 H2301 0.931 . S
C2286 C2285 1.391 . S
C2286 C2290 1.376 . S
C2287 C2285 1.394 . S
C2287 C2288 1.369 . S
C2287 C2291 1.531 . S
C2288 C2287 1.369 . S
C2288 C2289 1.410 . S
C2288 C2296 1.503 . S
C2289 C2288 1.410 . S
C2289 C2290 1.392 . S
C2289 C2292 1.511 . S
C2290 C2286 1.376 . S
C2290 C2289 1.392 . S
C2290 H2302 0.929 . S
C2291 C2287 1.531 . S
C2291 H2303 0.960 . S
C2291 H2304 0.962 . S
C2291 H2305 0.960 . S
C2292 C2289 1.511 . S
C2292 H2306 0.961 . S
C2292 H2307 0.961 . S
C2292 H2308 0.961 . S
C2293 C2294 1.370 . S
C2293 C2295 1.363 . S
C2293 H2309 0.931 . S
C2294 C2293 1.370 . S
C2294 C2298 1.408 . S
C2295 C2293 1.363 . S
C2295 C2296 1.370 . S
C2295 C2299 1.524 . S
C2296 C2288 1.503 . S
C2296 C2295 1.370 . S
C2296 C2297 1.403 . S
C2297 C2296 1.403 . S
C2297 C2298 1.404 . S
C2297 C2300 1.539 . S
C2298 C2294 1.408 . S
C2298 C2297 1.404 . S
C2298 H2310 0.930 . S
C2299 C2295 1.524 . S
C2299 H2311 0.956 . S
C2299 H2312 0.961 . S
C2299 H2313 0.961 . S
C2300 C2297 1.539 . S
C2300 H2314 0.958 . S
C2300 H2315 0.961 . S
C2300 H2316 0.960 . S
H2301 C2285 0.931 . S
H2302 C2290 0.929 . S
H2303 C2291 0.960 . S
H2304 C2291 0.962 . S
H2305 C2291 0.960 . S
H2306 C2292 0.961 . S
H2307 C2292 0.961 . S
H2308 C2292 0.961 . S
H2309 C2293 0.931 . S
H2310 C2298 0.930 . S
H2311 C2299 0.956 . S
H2312 C2299 0.961 . S
H2313 C2299 0.961 . S
H2314 C2300 0.958 . S
H2315 C2300 0.961 . S
H2316 C2300 0.960 . S
C2317 C2318 1.391 . S
C2317 C2319 1.394 . S
C2317 H2333 0.931 . S
C2318 C2317 1.391 . S
C2318 C2322 1.376 . S
C2319 C2317 1.394 . S
C2319 C2320 1.369 . S
C2319 C2323 1.531 . S
C2320 C2319 1.369 . S
C2320 C2321 1.410 . S
C2320 C2328 1.503 . S
C2321 C2320 1.410 . S
C2321 C2322 1.392 . S
C2321 C2324 1.511 . S
C2322 C2318 1.376 . S
C2322 C2321 1.392 . S
C2322 H2334 0.929 . S
C2323 C2319 1.531 . S
C2323 H2335 0.960 . S
C2323 H2336 0.962 . S
C2323 H2337 0.960 . S
C2324 C2321 1.511 . S
C2324 H2338 0.961 . S
C2324 H2339 0.961 . S
C2324 H2340 0.961 . S
C2325 C2326 1.370 . S
C2325 C2327 1.363 . S
C2325 H2341 0.931 . S
C2326 C2325 1.370 . S
C2326 C2330 1.408 . S
C2327 C2325 1.363 . S
C2327 C2328 1.370 . S
C2327 C2331 1.524 . S
C2328 C2320 1.503 . S
C2328 C2327 1.370 . S
C2328 C2329 1.403 . S
C2329 C2328 1.403 . S
C2329 C2330 1.404 . S
C2329 C2332 1.539 . S
C2330 C2326 1.408 . S
C2330 C2329 1.404 . S
C2330 H2342 0.930 . S
C2331 C2327 1.524 . S
C2331 H2343 0.956 . S
C2331 H2344 0.961 . S
C2331 H2345 0.961 . S
C2332 C2329 1.539 . S
C2332 H2346 0.958 . S
C2332 H2347 0.961 . S
C2332 H2348 0.960 . S
H2333 C2317 0.931 . S
H2334 C2322 0.929 . S
H2335 C2323 0.960 . S
H2336 C2323 0.962 . S
H2337 C2323 0.960 . S
H2338 C2324 0.961 . S
H2339 C2324 0.961 . S
H2340 C2324 0.961 . S
H2341 C2325 0.931 . S
H2342 C2330 0.930 . S
H2343 C2331 0.956 . S
H2344 C2331 0.961 . S
H2345 C2331 0.961 . S
H2346 C2332 0.958 . S
H2347 C2332 0.961 . S
H2348 C2332 0.960 . S
C2349 C2350 1.391 . S
C2349 C2351 1.394 . S
C2349 H2365 0.931 . S
C2350 C2349 1.391 . S
C2350 C2354 1.376 . S
C2351 C2349 1.394 . S
C2351 C2352 1.369 . S
C2351 C2355 1.531 . S
C2352 C2351 1.369 . S
C2352 C2353 1.410 . S
C2352 C2360 1.503 . S
C2353 C2352 1.410 . S
C2353 C2354 1.392 . S
C2353 C2356 1.511 . S
C2354 C2350 1.376 . S
C2354 C2353 1.392 . S
C2354 H2366 0.929 . S
C2355 C2351 1.531 . S
C2355 H2367 0.960 . S
C2355 H2368 0.962 . S
C2355 H2369 0.960 . S
C2356 C2353 1.511 . S
C2356 H2370 0.961 . S
C2356 H2371 0.961 . S
C2356 H2372 0.961 . S
C2357 C2358 1.370 . S
C2357 C2359 1.363 . S
C2357 H2373 0.931 . S
C2358 C2357 1.370 . S
C2358 C2362 1.408 . S
C2359 C2357 1.363 . S
C2359 C2360 1.370 . S
C2359 C2363 1.524 . S
C2360 C2352 1.503 . S
C2360 C2359 1.370 . S
C2360 C2361 1.403 . S
C2361 C2360 1.403 . S
C2361 C2362 1.404 . S
C2361 C2364 1.539 . S
C2362 C2358 1.408 . S
C2362 C2361 1.404 . S
C2362 H2374 0.930 . S
C2363 C2359 1.524 . S
C2363 H2375 0.956 . S
C2363 H2376 0.961 . S
C2363 H2377 0.961 . S
C2364 C2361 1.539 . S
C2364 H2378 0.958 . S
C2364 H2379 0.961 . S
C2364 H2380 0.960 . S
H2365 C2349 0.931 . S
H2366 C2354 0.929 . S
H2367 C2355 0.960 . S
H2368 C2355 0.962 . S
H2369 C2355 0.960 . S
H2370 C2356 0.961 . S
H2371 C2356 0.961 . S
H2372 C2356 0.961 . S
H2373 C2357 0.931 . S
H2374 C2362 0.930 . S
H2375 C2363 0.956 . S
H2376 C2363 0.961 . S
H2377 C2363 0.961 . S
H2378 C2364 0.958 . S
H2379 C2364 0.961 . S
H2380 C2364 0.960 . S
C2381 C2382 1.391 . S
C2381 C2383 1.394 . S
C2381 H2397 0.931 . S
C2382 C2381 1.391 . S
C2382 C2386 1.376 . S
C2383 C2381 1.394 . S
C2383 C2384 1.369 . S
C2383 C2387 1.531 . S
C2384 C2383 1.369 . S
C2384 C2385 1.410 . S
C2384 C2392 1.503 . S
C2385 C2384 1.410 . S
C2385 C2386 1.392 . S
C2385 C2388 1.511 . S
C2386 C2382 1.376 . S
C2386 C2385 1.392 . S
C2386 H2398 0.929 . S
C2387 C2383 1.531 . S
C2387 H2399 0.960 . S
C2387 H2400 0.962 . S
C2387 H2401 0.960 . S
C2388 C2385 1.511 . S
C2388 H2402 0.961 . S
C2388 H2403 0.961 . S
C2388 H2404 0.961 . S
C2389 C2390 1.370 . S
C2389 C2391 1.363 . S
C2389 H2405 0.931 . S
C2390 C2389 1.370 . S
C2390 C2394 1.408 . S
C2391 C2389 1.363 . S
C2391 C2392 1.370 . S
C2391 C2395 1.524 . S
C2392 C2384 1.503 . S
C2392 C2391 1.370 . S
C2392 C2393 1.403 . S
C2393 C2392 1.403 . S
C2393 C2394 1.404 . S
C2393 C2396 1.539 . S
C2394 C2390 1.408 . S
C2394 C2393 1.404 . S
C2394 H2406 0.930 . S
C2395 C2391 1.524 . S
C2395 H2407 0.956 . S
C2395 H2408 0.961 . S
C2395 H2409 0.961 . S
C2396 C2393 1.539 . S
C2396 H2410 0.958 . S
C2396 H2411 0.961 . S
C2396 H2412 0.960 . S
H2397 C2381 0.931 . S
H2398 C2386 0.929 . S
H2399 C2387 0.960 . S
H2400 C2387 0.962 . S
H2401 C2387 0.960 . S
H2402 C2388 0.961 . S
H2403 C2388 0.961 . S
H2404 C2388 0.961 . S
H2405 C2389 0.931 . S
H2406 C2394 0.930 . S
H2407 C2395 0.956 . S
H2408 C2395 0.961 . S
H2409 C2395 0.961 . S
H2410 C2396 0.958 . S
H2411 C2396 0.961 . S
H2412 C2396 0.960 . S
C2413 C2414 1.391 . S
C2413 C2415 1.394 . S
C2413 H2429 0.931 . S
C2414 C2413 1.391 . S
C2414 C2418 1.376 . S
C2415 C2413 1.394 . S
C2415 C2416 1.369 . S
C2415 C2419 1.531 . S
C2416 C2415 1.369 . S
C2416 C2417 1.410 . S
C2416 C2424 1.503 . S
C2417 C2416 1.410 . S
C2417 C2418 1.392 . S
C2417 C2420 1.511 . S
C2418 C2414 1.376 . S
C2418 C2417 1.392 . S
C2418 H2430 0.929 . S
C2419 C2415 1.531 . S
C2419 H2431 0.960 . S
C2419 H2432 0.962 . S
C2419 H2433 0.960 . S
C2420 C2417 1.511 . S
C2420 H2434 0.961 . S
C2420 H2435 0.961 . S
C2420 H2436 0.961 . S
C2421 C2422 1.370 . S
C2421 C2423 1.363 . S
C2421 H2437 0.931 . S
C2422 C2421 1.370 . S
C2422 C2426 1.408 . S
C2423 C2421 1.363 . S
C2423 C2424 1.370 . S
C2423 C2427 1.524 . S
C2424 C2416 1.503 . S
C2424 C2423 1.370 . S
C2424 C2425 1.403 . S
C2425 C2424 1.403 . S
C2425 C2426 1.404 . S
C2425 C2428 1.539 . S
C2426 C2422 1.408 . S
C2426 C2425 1.404 . S
C2426 H2438 0.930 . S
C2427 C2423 1.524 . S
C2427 H2439 0.956 . S
C2427 H2440 0.961 . S
C2427 H2441 0.961 . S
C2428 C2425 1.539 . S
C2428 H2442 0.958 . S
C2428 H2443 0.961 . S
C2428 H2444 0.960 . S
H2429 C2413 0.931 . S
H2430 C2418 0.929 . S
H2431 C2419 0.960 . S
H2432 C2419 0.962 . S
H2433 C2419 0.960 . S
H2434 C2420 0.961 . S
H2435 C2420 0.961 . S
H2436 C2420 0.961 . S
H2437 C2421 0.931 . S
H2438 C2426 0.930 . S
H2439 C2427 0.956 . S
H2440 C2427 0.961 . S
H2441 C2427 0.961 . S
H2442 C2428 0.958 . S
H2443 C2428 0.961 . S
H2444 C2428 0.960 . S
C2445 C2446 1.391 . S
C2445 C2447 1.394 . S
C2445 H2461 0.931 . S
C2446 C2445 1.391 . S
C2446 C2450 1.376 . S
C2447 C2445 1.394 . S
C2447 C2448 1.369 . S
C2447 C2451 1.531 . S
C2448 C2447 1.369 . S
C2448 C2449 1.410 . S
C2448 C2456 1.503 . S
C2449 C2448 1.410 . S
C2449 C2450 1.392 . S
C2449 C2452 1.511 . S
C2450 C2446 1.376 . S
C2450 C2449 1.392 . S
C2450 H2462 0.929 . S
C2451 C2447 1.531 . S
C2451 H2463 0.960 . S
C2451 H2464 0.962 . S
C2451 H2465 0.960 . S
C2452 C2449 1.511 . S
C2452 H2466 0.961 . S
C2452 H2467 0.961 . S
C2452 H2468 0.961 . S
C2453 C2454 1.370 . S
C2453 C2455 1.363 . S
C2453 H2469 0.931 . S
C2454 C2453 1.370 . S
C2454 C2458 1.408 . S
C2455 C2453 1.363 . S
C2455 C2456 1.370 . S
C2455 C2459 1.524 . S
C2456 C2448 1.503 . S
C2456 C2455 1.370 . S
C2456 C2457 1.403 . S
C2457 C2456 1.403 . S
C2457 C2458 1.404 . S
C2457 C2460 1.539 . S
C2458 C2454 1.408 . S
C2458 C2457 1.404 . S
C2458 H2470 0.930 . S
C2459 C2455 1.524 . S
C2459 H2471 0.956 . S
C2459 H2472 0.961 . S
C2459 H2473 0.961 . S
C2460 C2457 1.539 . S
C2460 H2474 0.958 . S
C2460 H2475 0.961 . S
C2460 H2476 0.960 . S
H2461 C2445 0.931 . S
H2462 C2450 0.929 . S
H2463 C2451 0.960 . S
H2464 C2451 0.962 . S
H2465 C2451 0.960 . S
H2466 C2452 0.961 . S
H2467 C2452 0.961 . S
H2468 C2452 0.961 . S
H2469 C2453 0.931 . S
H2470 C2458 0.930 . S
H2471 C2459 0.956 . S
H2472 C2459 0.961 . S
H2473 C2459 0.961 . S
H2474 C2460 0.958 . S
H2475 C2460 0.961 . S
H2476 C2460 0.960 . S
C2477 C2478 1.391 . S
C2477 C2479 1.394 . S
C2477 H2493 0.931 . S
C2478 C2477 1.391 . S
C2478 C2482 1.376 . S
C2479 C2477 1.394 . S
C2479 C2480 1.369 . S
C2479 C2483 1.531 . S
C2480 C2479 1.369 . S
C2480 C2481 1.410 . S
C2480 C2488 1.503 . S
C2481 C2480 1.410 . S
C2481 C2482 1.392 . S
C2481 C2484 1.511 . S
C2482 C2478 1.376 . S
C2482 C2481 1.392 . S
C2482 H2494 0.929 . S
C2483 C2479 1.531 . S
C2483 H2495 0.960 . S
C2483 H2496 0.962 . S
C2483 H2497 0.960 . S
C2484 C2481 1.511 . S
C2484 H2498 0.961 . S
C2484 H2499 0.961 . S
C2484 H2500 0.961 . S
C2485 C2486 1.370 . S
C2485 C2487 1.363 . S
C2485 H2501 0.931 . S
C2486 C2485 1.370 . S
C2486 C2490 1.408 . S
C2487 C2485 1.363 . S
C2487 C2488 1.370 . S
C2487 C2491 1.524 . S
C2488 C2480 1.503 . S
C2488 C2487 1.370 . S
C2488 C2489 1.403 . S
C2489 C2488 1.403 . S
C2489 C2490 1.404 . S
C2489 C2492 1.539 . S
C2490 C2486 1.408 . S
C2490 C2489 1.404 . S
C2490 H2502 0.930 . S
C2491 C2487 1.524 . S
C2491 H2503 0.956 . S
C2491 H2504 0.961 . S
C2491 H2505 0.961 . S
C2492 C2489 1.539 . S
C2492 H2506 0.958 . S
C2492 H2507 0.961 . S
C2492 H2508 0.960 . S
H2493 C2477 0.931 . S
H2494 C2482 0.929 . S
H2495 C2483 0.960 . S
H2496 C2483 0.962 . S
H2497 C2483 0.960 . S
H2498 C2484 0.961 . S
H2499 C2484 0.961 . S
H2500 C2484 0.961 . S
H2501 C2485 0.931 . S
H2502 C2490 0.930 . S
H2503 C2491 0.956 . S
H2504 C2491 0.961 . S
H2505 C2491 0.961 . S
H2506 C2492 0.958 . S
H2507 C2492 0.961 . S
H2508 C2492 0.960 . S
C2509 C2510 1.391 . S
C2509 C2511 1.394 . S
C2509 H2525 0.931 . S
C2510 C2509 1.391 . S
C2510 C2514 1.376 . S
C2511 C2509 1.394 . S
C2511 C2512 1.369 . S
C2511 C2515 1.531 . S
C2512 C2511 1.369 . S
C2512 C2513 1.410 . S
C2512 C2520 1.503 . S
C2513 C2512 1.410 . S
C2513 C2514 1.392 . S
C2513 C2516 1.511 . S
C2514 C2510 1.376 . S
C2514 C2513 1.392 . S
C2514 H2526 0.929 . S
C2515 C2511 1.531 . S
C2515 H2527 0.960 . S
C2515 H2528 0.962 . S
C2515 H2529 0.960 . S
C2516 C2513 1.511 . S
C2516 H2530 0.961 . S
C2516 H2531 0.961 . S
C2516 H2532 0.961 . S
C2517 C2518 1.370 . S
C2517 C2519 1.363 . S
C2517 H2533 0.931 . S
C2518 C2517 1.370 . S
C2518 C2522 1.408 . S
C2519 C2517 1.363 . S
C2519 C2520 1.370 . S
C2519 C2523 1.524 . S
C2520 C2512 1.503 . S
C2520 C2519 1.370 . S
C2520 C2521 1.403 . S
C2521 C2520 1.403 . S
C2521 C2522 1.404 . S
C2521 C2524 1.539 . S
C2522 C2518 1.408 . S
C2522 C2521 1.404 . S
C2522 H2534 0.930 . S
C2523 C2519 1.524 . S
C2523 H2535 0.956 . S
C2523 H2536 0.961 . S
C2523 H2537 0.961 . S
C2524 C2521 1.539 . S
C2524 H2538 0.958 . S
C2524 H2539 0.961 . S
C2524 H2540 0.960 . S
H2525 C2509 0.931 . S
H2526 C2514 0.929 . S
H2527 C2515 0.960 . S
H2528 C2515 0.962 . S
H2529 C2515 0.960 . S
H2530 C2516 0.961 . S
H2531 C2516 0.961 . S
H2532 C2516 0.961 . S
H2533 C2517 0.931 . S
H2534 C2522 0.930 . S
H2535 C2523 0.956 . S
H2536 C2523 0.961 . S
H2537 C2523 0.961 . S
H2538 C2524 0.958 . S
H2539 C2524 0.961 . S
H2540 C2524 0.960 . S
C2541 C2542 1.391 . S
C2541 C2543 1.394 . S
C2541 H2557 0.931 . S
C2542 C2541 1.391 . S
C2542 C2546 1.376 . S
C2543 C2541 1.394 . S
C2543 C2544 1.369 . S
C2543 C2547 1.531 . S
C2544 C2543 1.369 . S
C2544 C2545 1.410 . S
C2544 C2552 1.503 . S
C2545 C2544 1.410 . S
C2545 C2546 1.392 . S
C2545 C2548 1.511 . S
C2546 C2542 1.376 . S
C2546 C2545 1.392 . S
C2546 H2558 0.929 . S
C2547 C2543 1.531 . S
C2547 H2559 0.960 . S
C2547 H2560 0.962 . S
C2547 H2561 0.960 . S
C2548 C2545 1.511 . S
C2548 H2562 0.961 . S
C2548 H2563 0.961 . S
C2548 H2564 0.961 . S
C2549 C2550 1.370 . S
C2549 C2551 1.363 . S
C2549 H2565 0.931 . S
C2550 C2549 1.370 . S
C2550 C2554 1.408 . S
C2551 C2549 1.363 . S
C2551 C2552 1.370 . S
C2551 C2555 1.524 . S
C2552 C2544 1.503 . S
C2552 C2551 1.370 . S
C2552 C2553 1.403 . S
C2553 C2552 1.403 . S
C2553 C2554 1.404 . S
C2553 C2556 1.539 . S
C2554 C2550 1.408 . S
C2554 C2553 1.404 . S
C2554 H2566 0.930 . S
C2555 C2551 1.524 . S
C2555 H2567 0.956 . S
C2555 H2568 0.961 . S
C2555 H2569 0.961 . S
C2556 C2553 1.539 . S
C2556 H2570 0.958 . S
C2556 H2571 0.961 . S
C2556 H2572 0.960 . S
H2557 C2541 0.931 . S
H2558 C2546 0.929 . S
H2559 C2547 0.960 . S
H2560 C2547 0.962 . S
H2561 C2547 0.960 . S
H2562 C2548 0.961 . S
H2563 C2548 0.961 . S
H2564 C2548 0.961 . S
H2565 C2549 0.931 . S
H2566 C2554 0.930 . S
H2567 C2555 0.956 . S
H2568 C2555 0.961 . S
H2569 C2555 0.961 . S
H2570 C2556 0.958 . S
H2571 C2556 0.961 . S
H2572 C2556 0.960 . S
C2573 C2574 1.391 . S
C2573 C2575 1.394 . S
C2573 H2589 0.931 . S
C2574 C2573 1.391 . S
C2574 C2578 1.376 . S
C2575 C2573 1.394 . S
C2575 C2576 1.369 . S
C2575 C2579 1.531 . S
C2576 C2575 1.369 . S
C2576 C2577 1.410 . S
C2576 C2584 1.503 . S
C2577 C2576 1.410 . S
C2577 C2578 1.392 . S
C2577 C2580 1.511 . S
C2578 C2574 1.376 . S
C2578 C2577 1.392 . S
C2578 H2590 0.929 . S
C2579 C2575 1.531 . S
C2579 H2591 0.960 . S
C2579 H2592 0.962 . S
C2579 H2593 0.960 . S
C2580 C2577 1.511 . S
C2580 H2594 0.961 . S
C2580 H2595 0.961 . S
C2580 H2596 0.961 . S
C2581 C2582 1.370 . S
C2581 C2583 1.363 . S
C2581 H2597 0.931 . S
C2582 C2581 1.370 . S
C2582 C2586 1.408 . S
C2583 C2581 1.363 . S
C2583 C2584 1.370 . S
C2583 C2587 1.524 . S
C2584 C2576 1.503 . S
C2584 C2583 1.370 . S
C2584 C2585 1.403 . S
C2585 C2584 1.403 . S
C2585 C2586 1.404 . S
C2585 C2588 1.539 . S
C2586 C2582 1.408 . S
C2586 C2585 1.404 . S
C2586 H2598 0.930 . S
C2587 C2583 1.524 . S
C2587 H2599 0.956 . S
C2587 H2600 0.961 . S
C2587 H2601 0.961 . S
C2588 C2585 1.539 . S
C2588 H2602 0.958 . S
C2588 H2603 0.961 . S
C2588 H2604 0.960 . S
H2589 C2573 0.931 . S
H2590 C2578 0.929 . S
H2591 C2579 0.960 . S
H2592 C2579 0.962 . S
H2593 C2579 0.960 . S
H2594 C2580 0.961 . S
H2595 C2580 0.961 . S
H2596 C2580 0.961 . S
H2597 C2581 0.931 . S
H2598 C2586 0.930 . S
H2599 C2587 0.956 . S
H2600 C2587 0.961 . S
H2601 C2587 0.961 . S
H2602 C2588 0.958 . S
H2603 C2588 0.961 . S
H2604 C2588 0.960 . S
C2605 C2606 1.391 . S
C2605 C2607 1.394 . S
C2605 H2621 0.931 . S
C2606 C2605 1.391 . S
C2606 C2610 1.376 . S
C2607 C2605 1.394 . S
C2607 C2608 1.369 . S
C2607 C2611 1.531 . S
C2608 C2607 1.369 . S
C2608 C2609 1.410 . S
C2608 C2616 1.503 . S
C2609 C2608 1.410 . S
C2609 C2610 1.392 . S
C2609 C2612 1.511 . S
C2610 C2606 1.376 . S
C2610 C2609 1.392 . S
C2610 H2622 0.929 . S
C2611 C2607 1.531 . S
C2611 H2623 0.960 . S
C2611 H2624 0.962 . S
C2611 H2625 0.960 . S
C2612 C2609 1.511 . S
C2612 H2626 0.961 . S
C2612 H2627 0.961 . S
C2612 H2628 0.961 . S
C2613 C2614 1.370 . S
C2613 C2615 1.363 . S
C2613 H2629 0.931 . S
C2614 C2613 1.370 . S
C2614 C2618 1.408 . S
C2615 C2613 1.363 . S
C2615 C2616 1.370 . S
C2615 C2619 1.524 . S
C2616 C2608 1.503 . S
C2616 C2615 1.370 . S
C2616 C2617 1.403 . S
C2617 C2616 1.403 . S
C2617 C2618 1.404 . S
C2617 C2620 1.539 . S
C2618 C2614 1.408 . S
C2618 C2617 1.404 . S
C2618 H2630 0.930 . S
C2619 C2615 1.524 . S
C2619 H2631 0.956 . S
C2619 H2632 0.961 . S
C2619 H2633 0.961 . S
C2620 C2617 1.539 . S
C2620 H2634 0.958 . S
C2620 H2635 0.961 . S
C2620 H2636 0.960 . S
H2621 C2605 0.931 . S
H2622 C2610 0.929 . S
H2623 C2611 0.960 . S
H2624 C2611 0.962 . S
H2625 C2611 0.960 . S
H2626 C2612 0.961 . S
H2627 C2612 0.961 . S
H2628 C2612 0.961 . S
H2629 C2613 0.931 . S
H2630 C2618 0.930 . S
H2631 C2619 0.956 . S
H2632 C2619 0.961 . S
H2633 C2619 0.961 . S
H2634 C2620 0.958 . S
H2635 C2620 0.961 . S
H2636 C2620 0.960 . S
C910 C522 1.505 . S
C918 C734 1.400 . S
C942 C562 1.485 . S
C950 C755 1.400 . S
C974 C495 1.424 . S
C982 C775 1.159 . S
C1006 C455 1.459 . S
C1014 C754 1.169 1_556 S
C1046 C776 1.401 . S
C1038 C362 1.529 . S
C1070 C402 1.475 . S
C1078 C733 1.167 1_556 S
C1110 C735 1.362 . S
C1102 C442 1.381 . S
C1142 C756 1.308 . S
C1134 C375 1.370 . S
C1166 C415 1.476 . S
C1174 C778 1.236 1_556 S
C1198 C535 1.428 . S
C1206 C757 1.165 . S
C1230 C575 1.336 . S
C1238 C777 1.264 . S
C1270 C736 1.254 . S
C1262 C482 1.408 . S
C1302 C797 1.387 . S
C1294 C42 1.498 . S
C1326 C82 1.476 . S
C1334 C818 1.407 . S
C1358 C15 1.430 . S
C1366 C838 1.154 . S
C1390 C695 1.403 . S
C1398 C817 1.226 . S
C1422 C602 1.511 . S
C1430 C839 1.417 . S
C1454 C642 1.475 . S
C1462 C796 1.167 . S
C1486 C682 1.386 . S
C1494 C798 1.389 . S
C1518 C615 1.406 . S
C1526 C819 1.327 . S
C1558 C841 1.251 . S
C1550 C655 1.453 . S
C1582 C55 1.422 . S
C1590 C820 1.200 . S
C1622 C840 1.284 . S
C1614 C95 1.315 . S
C1646 C2 1.427 . S
C1654 C799 1.207 . S
C1686 C860 1.390 . S
C1678 C282 1.494 . S
C1710 C322 1.481 . S
C1718 C881 1.405 . S
C1750 C901 1.212 . S
C1742 C255 1.377 . S
C1782 C880 1.197 . S
C1774 C215 1.430 . S
C1814 C902 1.415 . S
C1806 C122 1.511 . S
C1838 C162 1.455 . S
C1846 C859 1.221 . S
C1870 C202 1.386 . S
C1878 C861 1.360 . S
C1902 C135 1.372 . S
C1910 C882 1.307 . S
C1942 C904 1.217 . S
C1934 C175 1.491 . S
C1966 C295 1.423 . S
C1974 C883 1.199 . S
C1998 C335 1.320 . S
C2006 C903 1.294 . S
C2030 C242 1.417 . S
C2038 C862 1.214 . S
C2062 C621 1.421 . S
C2070 C738 1.359 1_565 S
C2102 C759 1.434 . S
C2094 C661 1.465 . S
C2126 C701 1.488 . S
C2134 C779 1.526 . S
C2158 C261 1.554 . S
C2166 C758 1.559 1_655 S
C2190 C301 1.472 . S
C2198 C780 1.430 . S
C2230 C737 1.485 . S
C2222 C341 1.524 . S
C2254 C141 1.421 . S
C2262 C801 1.370 . S
C2286 C181 1.466 . S
C2294 C822 1.427 . S
C2318 C221 1.480 . S
C2326 C842 1.526 . S
C2350 C501 1.538 . S
C2358 C821 1.562 . S
C2390 C843 1.431 . S
C2382 C541 1.476 . S
C2414 C581 1.525 . S
C2422 C800 1.480 . S
C2446 C381 1.421 . S
C2454 C864 1.367 . S
C2478 C421 1.466 . S
C2486 C885 1.420 . S
C2518 C905 1.525 . S
C2510 C461 1.497 . S
C2542 C21 1.541 . S
C2550 C884 1.542 . S
C2574 C61 1.476 . S
C2582 C906 1.433 . S
C2606 C101 1.525 . S
C2614 C863 1.482 . S
