# Generated by pormake.
# Topology iac, (4,6)-cn, num edge types: 1
# Building blocks:
#     Node 0, Type 0, BuildingBlock: GALJAG_clean_sbu_0, # of connection points: 4
#     Node 1, Type 0, BuildingBlock: GALJAG_clean_sbu_0, # of connection points: 4
#     Node 2, Type 0, BuildingBlock: GALJAG_clean_sbu_0, # of connection points: 4
#     Node 3, Type 0, BuildingBlock: GALJAG_clean_sbu_0, # of connection points: 4
#     Node 4, Type 0, BuildingBlock: GALJAG_clean_sbu_0, # of connection points: 4
#     Node 5, Type 0, BuildingBlock: GALJAG_clean_sbu_0, # of connection points: 4
#     Node 6, Type 0, BuildingBlock: GALJAG_clean_sbu_0, # of connection points: 4
#     Node 7, Type 0, BuildingBlock: GALJAG_clean_sbu_0, # of connection points: 4
#     Node 8, Type 0, BuildingBlock: GALJAG_clean_sbu_0, # of connection points: 4
#     Node 9, Type 0, BuildingBlock: GALJAG_clean_sbu_0, # of connection points: 4
#     Node 10, Type 0, BuildingBlock: GALJAG_clean_sbu_0, # of connection points: 4
#     Node 11, Type 0, BuildingBlock: GALJAG_clean_sbu_0, # of connection points: 4
#     Node 12, Type 0, BuildingBlock: GALJAG_clean_sbu_0, # of connection points: 4
#     Node 13, Type 0, BuildingBlock: GALJAG_clean_sbu_0, # of connection points: 4
#     Node 14, Type 0, BuildingBlock: GALJAG_clean_sbu_0, # of connection points: 4
#     Node 15, Type 0, BuildingBlock: GALJAG_clean_sbu_0, # of connection points: 4
#     Node 16, Type 0, BuildingBlock: GALJAG_clean_sbu_0, # of connection points: 4
#     Node 17, Type 0, BuildingBlock: GALJAG_clean_sbu_0, # of connection points: 4
#     Node 18, Type 0, BuildingBlock: GALJAG_clean_sbu_0, # of connection points: 4
#     Node 19, Type 0, BuildingBlock: GALJAG_clean_sbu_0, # of connection points: 4
#     Node 20, Type 0, BuildingBlock: GALJAG_clean_sbu_0, # of connection points: 4
#     Node 21, Type 0, BuildingBlock: GALJAG_clean_sbu_0, # of connection points: 4
#     Node 22, Type 0, BuildingBlock: GALJAG_clean_sbu_0, # of connection points: 4
#     Node 23, Type 0, BuildingBlock: GALJAG_clean_sbu_0, # of connection points: 4
#     Node 24, Type 1, BuildingBlock: JUFBIX_clean_sbu_0, # of connection points: 6
#     Node 25, Type 1, BuildingBlock: JUFBIX_clean_sbu_0, # of connection points: 6
#     Node 26, Type 1, BuildingBlock: JUFBIX_clean_sbu_0, # of connection points: 6
#     Node 27, Type 1, BuildingBlock: JUFBIX_clean_sbu_0, # of connection points: 6
#     Node 28, Type 1, BuildingBlock: JUFBIX_clean_sbu_0, # of connection points: 6
#     Node 29, Type 1, BuildingBlock: JUFBIX_clean_sbu_0, # of connection points: 6
#     Node 30, Type 1, BuildingBlock: JUFBIX_clean_sbu_0, # of connection points: 6
#     Node 31, Type 1, BuildingBlock: JUFBIX_clean_sbu_0, # of connection points: 6
#     Node 32, Type 1, BuildingBlock: JUFBIX_clean_sbu_0, # of connection points: 6
#     Node 33, Type 1, BuildingBlock: JUFBIX_clean_sbu_0, # of connection points: 6
#     Node 34, Type 1, BuildingBlock: JUFBIX_clean_sbu_0, # of connection points: 6
#     Node 35, Type 1, BuildingBlock: JUFBIX_clean_sbu_0, # of connection points: 6
#     Node 36, Type 1, BuildingBlock: JUFBIX_clean_sbu_0, # of connection points: 6
#     Node 37, Type 1, BuildingBlock: JUFBIX_clean_sbu_0, # of connection points: 6
#     Node 38, Type 1, BuildingBlock: JUFBIX_clean_sbu_0, # of connection points: 6
#     Node 39, Type 1, BuildingBlock: JUFBIX_clean_sbu_0, # of connection points: 6
#     Edge 40, Type (0, 1), BuildingBlock: XUDNAN_clean_linker_2, # of connection points: 2
#     Edge 41, Type (0, 1), BuildingBlock: XUDNAN_clean_linker_2, # of connection points: 2
#     Edge 42, Type (0, 1), BuildingBlock: XUDNAN_clean_linker_2, # of connection points: 2
#     Edge 43, Type (0, 1), BuildingBlock: XUDNAN_clean_linker_2, # of connection points: 2
#     Edge 44, Type (0, 1), BuildingBlock: XUDNAN_clean_linker_2, # of connection points: 2
#     Edge 45, Type (0, 1), BuildingBlock: XUDNAN_clean_linker_2, # of connection points: 2
#     Edge 46, Type (0, 1), BuildingBlock: XUDNAN_clean_linker_2, # of connection points: 2
#     Edge 47, Type (0, 1), BuildingBlock: XUDNAN_clean_linker_2, # of connection points: 2
#     Edge 48, Type (0, 1), BuildingBlock: XUDNAN_clean_linker_2, # of connection points: 2
#     Edge 49, Type (0, 1), BuildingBlock: XUDNAN_clean_linker_2, # of connection points: 2
#     Edge 50, Type (0, 1), BuildingBlock: XUDNAN_clean_linker_2, # of connection points: 2
#     Edge 51, Type (0, 1), BuildingBlock: XUDNAN_clean_linker_2, # of connection points: 2
#     Edge 52, Type (0, 1), BuildingBlock: XUDNAN_clean_linker_2, # of connection points: 2
#     Edge 53, Type (0, 1), BuildingBlock: XUDNAN_clean_linker_2, # of connection points: 2
#     Edge 54, Type (0, 1), BuildingBlock: XUDNAN_clean_linker_2, # of connection points: 2
#     Edge 55, Type (0, 1), BuildingBlock: XUDNAN_clean_linker_2, # of connection points: 2
#     Edge 56, Type (0, 1), BuildingBlock: XUDNAN_clean_linker_2, # of connection points: 2
#     Edge 57, Type (0, 1), BuildingBlock: XUDNAN_clean_linker_2, # of connection points: 2
#     Edge 58, Type (0, 1), BuildingBlock: XUDNAN_clean_linker_2, # of connection points: 2
#     Edge 59, Type (0, 1), BuildingBlock: XUDNAN_clean_linker_2, # of connection points: 2
#     Edge 60, Type (0, 1), BuildingBlock: XUDNAN_clean_linker_2, # of connection points: 2
#     Edge 61, Type (0, 1), BuildingBlock: XUDNAN_clean_linker_2, # of connection points: 2
#     Edge 62, Type (0, 1), BuildingBlock: XUDNAN_clean_linker_2, # of connection points: 2
#     Edge 63, Type (0, 1), BuildingBlock: XUDNAN_clean_linker_2, # of connection points: 2
#     Edge 64, Type (0, 1), BuildingBlock: XUDNAN_clean_linker_2, # of connection points: 2
#     Edge 65, Type (0, 1), BuildingBlock: XUDNAN_clean_linker_2, # of connection points: 2
#     Edge 66, Type (0, 1), BuildingBlock: XUDNAN_clean_linker_2, # of connection points: 2
#     Edge 67, Type (0, 1), BuildingBlock: XUDNAN_clean_linker_2, # of connection points: 2
#     Edge 68, Type (0, 1), BuildingBlock: XUDNAN_clean_linker_2, # of connection points: 2
#     Edge 69, Type (0, 1), BuildingBlock: XUDNAN_clean_linker_2, # of connection points: 2
#     Edge 70, Type (0, 1), BuildingBlock: XUDNAN_clean_linker_2, # of connection points: 2
#     Edge 71, Type (0, 1), BuildingBlock: XUDNAN_clean_linker_2, # of connection points: 2
#     Edge 72, Type (0, 1), BuildingBlock: XUDNAN_clean_linker_2, # of connection points: 2
#     Edge 73, Type (0, 1), BuildingBlock: XUDNAN_clean_linker_2, # of connection points: 2
#     Edge 74, Type (0, 1), BuildingBlock: XUDNAN_clean_linker_2, # of connection points: 2
#     Edge 75, Type (0, 1), BuildingBlock: XUDNAN_clean_linker_2, # of connection points: 2
#     Edge 76, Type (0, 1), BuildingBlock: XUDNAN_clean_linker_2, # of connection points: 2
#     Edge 77, Type (0, 1), BuildingBlock: XUDNAN_clean_linker_2, # of connection points: 2
#     Edge 78, Type (0, 1), BuildingBlock: XUDNAN_clean_linker_2, # of connection points: 2
#     Edge 79, Type (0, 1), BuildingBlock: XUDNAN_clean_linker_2, # of connection points: 2
#     Edge 80, Type (0, 1), BuildingBlock: XUDNAN_clean_linker_2, # of connection points: 2
#     Edge 81, Type (0, 1), BuildingBlock: XUDNAN_clean_linker_2, # of connection points: 2
#     Edge 82, Type (0, 1), BuildingBlock: XUDNAN_clean_linker_2, # of connection points: 2
#     Edge 83, Type (0, 1), BuildingBlock: XUDNAN_clean_linker_2, # of connection points: 2
#     Edge 84, Type (0, 1), BuildingBlock: XUDNAN_clean_linker_2, # of connection points: 2
#     Edge 85, Type (0, 1), BuildingBlock: XUDNAN_clean_linker_2, # of connection points: 2
#     Edge 86, Type (0, 1), BuildingBlock: XUDNAN_clean_linker_2, # of connection points: 2
#     Edge 87, Type (0, 1), BuildingBlock: XUDNAN_clean_linker_2, # of connection points: 2
#     Edge 88, Type (0, 1), BuildingBlock: XUDNAN_clean_linker_2, # of connection points: 2
#     Edge 89, Type (0, 1), BuildingBlock: XUDNAN_clean_linker_2, # of connection points: 2
#     Edge 90, Type (0, 1), BuildingBlock: XUDNAN_clean_linker_2, # of connection points: 2
#     Edge 91, Type (0, 1), BuildingBlock: XUDNAN_clean_linker_2, # of connection points: 2
#     Edge 92, Type (0, 1), BuildingBlock: XUDNAN_clean_linker_2, # of connection points: 2
#     Edge 93, Type (0, 1), BuildingBlock: XUDNAN_clean_linker_2, # of connection points: 2
#     Edge 94, Type (0, 1), BuildingBlock: XUDNAN_clean_linker_2, # of connection points: 2
#     Edge 95, Type (0, 1), BuildingBlock: XUDNAN_clean_linker_2, # of connection points: 2
#     Edge 96, Type (0, 1), BuildingBlock: XUDNAN_clean_linker_2, # of connection points: 2
#     Edge 97, Type (0, 1), BuildingBlock: XUDNAN_clean_linker_2, # of connection points: 2
#     Edge 98, Type (0, 1), BuildingBlock: XUDNAN_clean_linker_2, # of connection points: 2
#     Edge 99, Type (0, 1), BuildingBlock: XUDNAN_clean_linker_2, # of connection points: 2
#     Edge 100, Type (0, 1), BuildingBlock: XUDNAN_clean_linker_2, # of connection points: 2
#     Edge 101, Type (0, 1), BuildingBlock: XUDNAN_clean_linker_2, # of connection points: 2
#     Edge 102, Type (0, 1), BuildingBlock: XUDNAN_clean_linker_2, # of connection points: 2
#     Edge 103, Type (0, 1), BuildingBlock: XUDNAN_clean_linker_2, # of connection points: 2
#     Edge 104, Type (0, 1), BuildingBlock: XUDNAN_clean_linker_2, # of connection points: 2
#     Edge 105, Type (0, 1), BuildingBlock: XUDNAN_clean_linker_2, # of connection points: 2
#     Edge 106, Type (0, 1), BuildingBlock: XUDNAN_clean_linker_2, # of connection points: 2
#     Edge 107, Type (0, 1), BuildingBlock: XUDNAN_clean_linker_2, # of connection points: 2
#     Edge 108, Type (0, 1), BuildingBlock: XUDNAN_clean_linker_2, # of connection points: 2
#     Edge 109, Type (0, 1), BuildingBlock: XUDNAN_clean_linker_2, # of connection points: 2
#     Edge 110, Type (0, 1), BuildingBlock: XUDNAN_clean_linker_2, # of connection points: 2
#     Edge 111, Type (0, 1), BuildingBlock: XUDNAN_clean_linker_2, # of connection points: 2
#     Edge 112, Type (0, 1), BuildingBlock: XUDNAN_clean_linker_2, # of connection points: 2
#     Edge 113, Type (0, 1), BuildingBlock: XUDNAN_clean_linker_2, # of connection points: 2
#     Edge 114, Type (0, 1), BuildingBlock: XUDNAN_clean_linker_2, # of connection points: 2
#     Edge 115, Type (0, 1), BuildingBlock: XUDNAN_clean_linker_2, # of connection points: 2
#     Edge 116, Type (0, 1), BuildingBlock: XUDNAN_clean_linker_2, # of connection points: 2
#     Edge 117, Type (0, 1), BuildingBlock: XUDNAN_clean_linker_2, # of connection points: 2
#     Edge 118, Type (0, 1), BuildingBlock: XUDNAN_clean_linker_2, # of connection points: 2
#     Edge 119, Type (0, 1), BuildingBlock: XUDNAN_clean_linker_2, # of connection points: 2
#     Edge 120, Type (0, 1), BuildingBlock: XUDNAN_clean_linker_2, # of connection points: 2
#     Edge 121, Type (0, 1), BuildingBlock: XUDNAN_clean_linker_2, # of connection points: 2
#     Edge 122, Type (0, 1), BuildingBlock: XUDNAN_clean_linker_2, # of connection points: 2
#     Edge 123, Type (0, 1), BuildingBlock: XUDNAN_clean_linker_2, # of connection points: 2
#     Edge 124, Type (0, 1), BuildingBlock: XUDNAN_clean_linker_2, # of connection points: 2
#     Edge 125, Type (0, 1), BuildingBlock: XUDNAN_clean_linker_2, # of connection points: 2
#     Edge 126, Type (0, 1), BuildingBlock: XUDNAN_clean_linker_2, # of connection points: 2
#     Edge 127, Type (0, 1), BuildingBlock: XUDNAN_clean_linker_2, # of connection points: 2
#     Edge 128, Type (0, 1), BuildingBlock: XUDNAN_clean_linker_2, # of connection points: 2
#     Edge 129, Type (0, 1), BuildingBlock: XUDNAN_clean_linker_2, # of connection points: 2
#     Edge 130, Type (0, 1), BuildingBlock: XUDNAN_clean_linker_2, # of connection points: 2
#     Edge 131, Type (0, 1), BuildingBlock: XUDNAN_clean_linker_2, # of connection points: 2
#     Edge 132, Type (0, 1), BuildingBlock: XUDNAN_clean_linker_2, # of connection points: 2
#     Edge 133, Type (0, 1), BuildingBlock: XUDNAN_clean_linker_2, # of connection points: 2
#     Edge 134, Type (0, 1), BuildingBlock: XUDNAN_clean_linker_2, # of connection points: 2
#     Edge 135, Type (0, 1), BuildingBlock: XUDNAN_clean_linker_2, # of connection points: 2
# Relax obj value: 0.259
# Max RMSD: 0.236
# Mean RMSD: 0.155
data_MOF--net-iac--node1-GALJAG_clean_sbu_0--node2-JUFBIX_clean_sbu_0--edge1-XUDNAN_clean_linker_2
_symmetry_space_group_name_H-M    P1
_symmetry_Int_Tables_number       1
_symmetry_cell_setting            triclinic
loop_
_symmetry_equiv_pos_as_xyz
'x, y, z'
_cell_length_a     54.248269
_cell_length_b     55.600265
_cell_length_c     55.126594
_cell_angle_alpha  89.250672
_cell_angle_beta   88.18056
_cell_angle_gamma 88.687369
loop_
_atom_site_label
_atom_site_type_symbol
_atom_site_fract_x
_atom_site_fract_y
_atom_site_fract_z
_atom_type_partial_charge
In0 In 0.0331 0.28382 0.15296 0.0
O1 O 0.03097 0.26284 0.11639 0.0
O2 O 0.03792 0.24189 0.14742 0.0
C3 C 0.03048 0.3291 0.12943 0.0
C4 C 0.98738 0.28076 0.17621 0.0
C5 C 0.07266 0.28175 0.18412 0.0
O6 O 0.05007 0.31638 0.12975 0.0
O7 O 0.01273 0.31904 0.14044 0.0
O8 O 0.05067 0.27729 0.19058 0.0
O9 O 0.07493 0.28755 0.16195 0.0
C10 C 0.0339 0.24181 0.12503 0.0
O11 O 1.00427 0.29333 0.18458 0.0
O12 O 0.99375 0.27021 0.1568 0.0
In13 In 0.04349 0.76779 0.41821 0.0
O14 O 0.05988 0.79139 0.388 0.0
O15 O 0.08273 0.76391 0.40313 0.0
C16 C 1.00048 0.7797 0.39791 0.0
C17 C 0.04682 0.71997 0.42615 0.0
C18 C 0.04444 0.79314 0.45917 0.0
O19 O 0.01717 0.76736 0.38718 0.0
O20 O 0.00515 0.78551 0.41927 0.0
O21 O 0.03023 0.77571 0.45683 0.0
O22 O 0.05847 0.79743 0.44097 0.0
C23 C 0.08048 0.78048 0.38747 0.0
O24 O 0.05657 0.73492 0.43966 0.0
O25 O 0.03501 0.72912 0.40891 0.0
In26 In 0.53188 0.78525 0.65073 0.0
O27 O 0.53066 0.80792 0.61511 0.0
O28 O 0.52884 0.82765 0.64748 0.0
C29 C 0.53335 0.74164 0.62558 0.0
C30 C 0.57699 0.7877 0.67378 0.0
C31 C 0.48472 0.78556 0.6721 0.0
O32 O 0.53485 0.76223 0.61578 0.0
O33 O 0.5323 0.74256 0.6485 0.0
O34 O 0.50343 0.79052 0.68404 0.0
O35 O 0.49001 0.78079 0.65027 0.0
C36 C 0.52902 0.8285 0.62454 0.0
O37 O 0.55812 0.77861 0.684 0.0
O38 O 0.57317 0.79475 0.65236 0.0
In39 In 0.54353 0.2768 0.90439 0.0
O40 O 0.57314 0.26677 0.87606 0.0
O41 O 0.5845 0.28177 0.90913 0.0
C42 C 0.50781 0.27846 0.87185 0.0
C43 C 0.54447 0.23735 0.93288 0.0
C44 C 0.53175 0.32006 0.92321 0.0
O45 O 0.5296 0.28462 0.86678 0.0
O46 O 0.50429 0.27018 0.8931 0.0
O47 O 0.52454 0.30074 0.93301 0.0
O48 O 0.54554 0.31746 0.90456 0.0
C49 C 0.59074 0.27314 0.88875 0.0
O50 O 0.54805 0.25815 0.9407 0.0
O51 O 0.53939 0.23647 0.91071 0.0
In52 In 0.15529 1.00243 0.30326 0.0
O53 O 0.18084 0.97988 0.32681 0.0
O54 O 0.18151 0.97362 0.28869 0.0
C55 C 0.18551 0.03986 0.30195 0.0
C56 C 0.12654 0.0088 0.26498 0.0
C57 C 0.11839 0.99445 0.33546 0.0
O58 O 0.18278 0.02642 0.28404 0.0
O59 O 0.17283 0.03448 0.3208 0.0
O60 O 0.12813 0.01476 0.33264 0.0
O61 O 0.12788 0.97785 0.3226 0.0
C62 C 0.19024 0.96836 0.30911 0.0
O63 O 0.13756 0.98898 0.26915 0.0
O64 O 0.13041 0.0252 0.27986 0.0
In65 In 0.26334 0.87721 0.52679 0.0
O66 O 0.24992 0.91351 0.51212 0.0
O67 O 0.22315 0.89016 0.52759 0.0
C68 C 0.30683 0.89458 0.51099 0.0
C69 C 0.25914 0.86984 0.57518 0.0
C70 C 0.26223 0.83615 0.5016 0.0
O71 O 0.30151 0.89171 0.53329 0.0
O72 O 0.29046 0.88825 0.49684 0.0
O73 O 0.27821 0.83983 0.5172 0.0
O74 O 0.24627 0.85287 0.49934 0.0
C75 C 0.2276 0.91032 0.51786 0.0
O76 O 0.25491 0.8537 0.56009 0.0
O77 O 0.26587 0.88955 0.56588 0.0
In78 In 0.40272 0.0488 0.76919 0.0
O79 O 0.37387 0.0784 0.76345 0.0
O80 O 0.40012 0.08342 0.79061 0.0
C81 C 0.37458 0.01266 0.7854 0.0
C82 C 0.41153 0.04917 0.72095 0.0
C83 C 0.44522 0.04269 0.79238 0.0
O84 O 0.37335 0.03319 0.79497 0.0
O85 O 0.39004 0.01051 0.76792 0.0
O86 O 0.43968 0.06189 0.7812 0.0
O87 O 0.42955 0.02632 0.79135 0.0
C88 C 0.38221 0.09206 0.77914 0.0
O89 O 0.42827 0.05134 0.73601 0.0
O90 O 0.3903 0.04623 0.73018 0.0
In91 In 0.27178 0.1627 0.03456 0.0
O92 O 0.29623 0.13209 0.01729 0.0
O93 O 0.31438 0.15691 0.03853 0.0
C94 C 0.22945 0.13517 0.03852 0.0
C95 C 0.27344 0.18147 0.08136 0.0
C96 C 0.27123 0.19196 0.99299 0.0
O97 O 0.25093 0.12736 0.0427 0.0
O98 O 0.22886 0.15722 0.0326 0.0
O99 O 0.27841 0.19883 0.01334 0.0
O100 O 0.26389 0.17061 0.9936 0.0
C101 C 0.31642 0.13825 0.02582 0.0
O102 O 0.26667 0.19415 0.0634 0.0
O103 O 0.27855 0.15998 0.07568 0.0
In104 In 0.77734 0.39041 0.0437 0.0
O105 O 0.76825 0.36597 0.07578 0.0
O106 O 0.78005 0.40122 0.0832 0.0
C107 C 0.78591 0.35739 0.00944 0.0
C108 C 0.73239 0.40928 0.03572 0.0
C109 C 0.81912 0.41367 0.0333 0.0
O110 O 0.79014 0.35303 0.03149 0.0
O111 O 0.77657 0.37794 0.00508 0.0
O112 O 0.79816 0.42384 0.0319 0.0
O113 O 0.81898 0.3922 0.04093 0.0
C114 C 0.77257 0.3814 0.09155 0.0
O115 O 0.75098 0.42215 0.03825 0.0
O116 O 0.7366 0.3869 0.03685 0.0
In117 In 0.89783 0.54477 0.25862 0.0
O118 O 0.92575 0.56813 0.23934 0.0
O119 O 0.90477 0.54507 0.21779 0.0
C120 C 0.92848 0.53767 0.29511 0.0
C121 C 0.86439 0.5805 0.26142 0.0
C122 C 0.88084 0.50003 0.26204 0.0
O123 O 0.93489 0.53425 0.27324 0.0
O124 O 0.90673 0.54584 0.29858 0.0
O125 O 0.8681 0.51807 0.26894 0.0
O126 O 0.90134 0.50473 0.2519 0.0
C127 C 0.92113 0.56085 0.21848 0.0
O128 O 0.86144 0.56228 0.24847 0.0
O129 O 0.88365 0.58005 0.27373 0.0
In130 In 0.77262 0.66245 0.53532 0.0
O131 O 0.79431 0.62799 0.523 0.0
O132 O 0.81502 0.6547 0.53896 0.0
C133 C 0.72672 0.64106 0.53454 0.0
C134 C 0.77245 0.68125 0.58239 0.0
C135 C 0.77596 0.68981 0.4923 0.0
O136 O 0.74582 0.63019 0.54192 0.0
O137 O 0.73053 0.66268 0.52833 0.0
O138 O 0.76643 0.66936 0.49381 0.0
O139 O 0.78355 0.69682 0.51246 0.0
C140 C 0.81529 0.6342 0.52949 0.0
O141 O 0.77213 0.69459 0.5636 0.0
O142 O 0.77208 0.65919 0.57735 0.0
In143 In 0.65472 0.50833 0.80409 0.0
O144 O 0.68928 0.49133 0.82006 0.0
O145 O 0.65987 0.46849 0.8117 0.0
C146 C 0.68551 0.54454 0.79537 0.0
C147 C 0.63513 0.49947 0.76113 0.0
C148 C 0.61929 0.52182 0.83682 0.0
O149 O 0.68175 0.53581 0.81638 0.0
O150 O 0.67453 0.53428 0.77868 0.0
O151 O 0.62539 0.50005 0.83368 0.0
O152 O 0.63095 0.53645 0.82351 0.0
C153 C 0.68146 0.47018 0.81926 0.0
O154 O 0.62566 0.5145 0.7758 0.0
O155 O 0.65429 0.48863 0.76825 0.0
In156 In 0.02413 0.78781 0.91192 0.0
O157 O 0.04524 0.77679 0.87622 0.0
O158 O 0.06642 0.79175 0.9033 0.0
C159 C 0.97741 0.78603 0.8919 0.0
C160 C 0.03048 0.7456 0.93963 0.0
C161 C 0.02477 0.83454 0.93077 0.0
O162 O 0.99646 0.79226 0.87984 0.0
O163 O 0.98172 0.78146 0.91392 0.0
O164 O 0.02062 0.81622 0.94404 0.0
O165 O 0.02773 0.82926 0.90866 0.0
C166 C 0.06638 0.78308 0.8823 0.0
O167 O 0.03685 0.76615 0.94639 0.0
O168 O 0.02059 0.74625 0.91924 0.0
In169 In 0.01915 0.28957 0.62657 0.0
O170 O 0.01088 0.31872 0.59908 0.0
O171 O 0.02444 0.32984 0.63282 0.0
C172 C 0.01785 0.25504 0.59302 0.0
C173 C 0.06089 0.27657 0.6487 0.0
C174 C 0.97521 0.2917 0.65012 0.0
O175 O 0.03222 0.27248 0.59084 0.0
O176 O 1.00472 0.25467 0.6123 0.0
O177 O 0.99504 0.28983 0.66155 0.0
O178 O 0.97781 0.29149 0.62735 0.0
C179 C 0.01586 0.33591 0.61258 0.0
O180 O 0.03988 0.27123 0.65746 0.0
O181 O 0.06065 0.28885 0.6293 0.0
In182 In 0.52274 0.28895 0.40955 0.0
O183 O 0.54679 0.28029 0.37519 0.0
O184 O 0.56602 0.29139 0.40538 0.0
C185 C 0.48017 0.29367 0.38297 0.0
C186 C 0.51907 0.24293 0.43047 0.0
C187 C 0.52193 0.33176 0.43584 0.0
O188 O 0.50135 0.29965 0.37514 0.0
O189 O 0.48 0.28615 0.40474 0.0
O190 O 0.52088 0.31102 0.44551 0.0
O191 O 0.52266 0.33112 0.41298 0.0
C192 C 0.56748 0.28478 0.38359 0.0
O193 O 0.52944 0.25987 0.44101 0.0
O194 O 0.51087 0.24932 0.4102 0.0
In195 In 0.51111 0.80209 0.13612 0.0
O196 O 0.53804 0.78882 0.10653 0.0
O197 O 0.50593 0.76846 0.11444 0.0
C198 C 0.49782 0.8451 0.11735 0.0
C199 C 0.47258 0.78588 0.16274 0.0
C200 C 0.54871 0.804 0.16655 0.0
O201 O 0.50958 0.82943 0.10502 0.0
O202 O 0.493 0.8391 0.13906 0.0
O203 O 0.54101 0.78473 0.15817 0.0
O204 O 0.53784 0.82286 0.15905 0.0
C205 C 0.52607 0.77018 0.10249 0.0
O206 O 0.49396 0.7871 0.17078 0.0
O207 O 0.47052 0.79255 0.14089 0.0
In208 In 0.92436 0.05573 0.74925 0.0
O209 O 0.94921 0.04243 0.71864 0.0
O210 O 0.94836 0.08007 0.72541 0.0
C211 C 0.95708 0.05675 0.7843 0.0
C212 C 0.88636 0.08715 0.74769 0.0
C213 C 0.90035 0.01453 0.75561 0.0
O214 O 0.95518 0.03896 0.77059 0.0
O215 O 0.94225 0.07414 0.78041 0.0
O216 O 0.90421 0.0237 0.73481 0.0
O217 O 0.90815 0.02636 0.77299 0.0
C218 C 0.95767 0.06284 0.71335 0.0
O219 O 0.89795 0.08267 0.76677 0.0
O220 O 0.894 0.07575 0.72919 0.0
In221 In 0.793 0.15554 0.51618 0.0
O222 O 0.80969 0.11876 0.52537 0.0
O223 O 0.83356 0.14848 0.52412 0.0
C224 C 0.75346 0.12806 0.52357 0.0
C225 C 0.78419 0.19264 0.54634 0.0
C226 C 0.80164 0.17106 0.47021 0.0
O227 O 0.75878 0.14462 0.53778 0.0
O228 O 0.76794 0.12556 0.50531 0.0
O229 O 0.78105 0.16308 0.47731 0.0
O230 O 0.81751 0.17162 0.48634 0.0
C231 C 0.83125 0.12617 0.52746 0.0
O232 O 0.77519 0.19217 0.52552 0.0
O233 O 0.79806 0.17488 0.55139 0.0
In234 In 0.65205 0.01504 0.29154 0.0
O235 O 0.6844 0.98853 0.28677 0.0
O236 O 0.65148 0.9765 0.30459 0.0
C237 C 0.68272 0.04881 0.27511 0.0
C238 C 0.6149 0.01818 0.26057 0.0
C239 C 0.63708 0.02287 0.33741 0.0
O240 O 0.67945 0.0299 0.26329 0.0
O241 O 0.67089 0.05023 0.29513 0.0
O242 O 0.62224 0.02015 0.32055 0.0
O243 O 0.65959 0.02249 0.33096 0.0
C244 C 0.67344 0.97174 0.29794 0.0
O245 O 0.62664 0.9987 0.2643 0.0
O246 O 0.622 0.03587 0.2723 0.0
In247 In 0.77705 0.90919 0.03143 0.0
O248 O 0.75521 0.94288 0.04647 0.0
O249 O 0.7364 0.92061 0.02315 0.0
C250 C 0.82144 0.93386 0.02839 0.0
C251 C 0.77396 0.87803 0.07208 0.0
C252 C 0.77551 0.89048 0.98464 0.0
O253 O 0.80368 0.93991 0.04258 0.0
O254 O 0.81701 0.9155 0.01613 0.0
O255 O 0.77865 0.87713 0.0032 0.0
O256 O 0.7735 0.91253 0.98982 0.0
C257 C 0.73528 0.93911 0.03608 0.0
O258 O 0.75772 0.8803 0.0563 0.0
O259 O 0.79266 0.89036 0.06688 0.0
In260 In 0.30745 0.66918 0.0164 0.0
O261 O 0.30913 0.70006 0.04289 0.0
O262 O 0.27418 0.69206 0.02895 0.0
C263 C 0.31162 0.68163 0.96904 0.0
C264 C 0.35265 0.65568 0.03119 0.0
C265 C 0.27622 0.63273 0.02306 0.0
O266 O 0.30414 0.69616 0.98516 0.0
O267 O 0.31709 0.66085 0.97679 0.0
O268 O 0.28392 0.64463 0.04052 0.0
O269 O 0.28434 0.63919 1.00234 0.0
C270 C 0.28633 0.70504 0.04262 0.0
O271 O 0.33433 0.64221 0.03303 0.0
O272 O 0.34816 0.67621 0.02223 0.0
In273 In 0.14648 0.52054 0.78675 0.0
O274 O 0.17315 0.49066 0.77514 0.0
O275 O 0.13648 0.48124 0.7855 0.0
C276 C 0.18367 0.55034 0.77595 0.0
C277 C 0.11023 0.53615 0.7585 0.0
C278 C 0.13436 0.51884 0.83416 0.0
O279 O 0.17132 0.54086 0.75979 0.0
O280 O 0.1772 0.54492 0.79744 0.0
O281 O 0.11939 0.52643 0.81859 0.0
O282 O 0.15548 0.51297 0.82583 0.0
C283 C 0.15778 0.4742 0.77869 0.0
O284 O 0.11805 0.54901 0.77524 0.0
O285 O 0.12043 0.51562 0.7566 0.0
In286 In 0.27928 0.40729 0.53132 0.0
O287 O 0.27812 0.37158 0.5536 0.0
O288 O 0.27955 0.4031 0.57411 0.0
C289 C 0.28235 0.38187 0.48781 0.0
C290 C 0.23131 0.42617 0.53244 0.0
C291 C 0.32045 0.43669 0.52906 0.0
O292 O 0.28652 0.37284 0.50846 0.0
O293 O 0.27781 0.40423 0.4886 0.0
O294 O 0.29935 0.44289 0.5219 0.0
O295 O 0.32125 0.41537 0.53725 0.0
C296 C 0.27844 0.38041 0.57454 0.0
O297 O 0.24921 0.43783 0.53993 0.0
O298 O 0.23765 0.40557 0.52499 0.0
In299 In 0.39131 0.56316 0.25456 0.0
O300 O 0.41423 0.54113 0.22759 0.0
O301 O 0.42741 0.57554 0.23705 0.0
C302 C 0.40644 0.57754 0.29804 0.0
C303 C 0.35705 0.59479 0.23795 0.0
C304 C 0.37309 0.51907 0.26066 0.0
O305 O 0.42102 0.57485 0.27998 0.0
O306 O 0.38419 0.57368 0.29395 0.0
O307 O 0.36895 0.53184 0.2421 0.0
O308 O 0.38696 0.52826 0.27575 0.0
C309 C 0.43095 0.55647 0.22506 0.0
O310 O 0.35468 0.58321 0.25755 0.0
O311 O 0.37715 0.59085 0.22649 0.0
Co312 Co 0.02341 0.04656 0.01292 0.0
C313 C 0.01462 0.07936 0.0508 0.0
Co314 Co 0.02465 0.02881 0.04814 0.0
C315 C 0.01848 0.05238 0.96153 0.0
C316 C 0.02878 0.08498 0.97835 0.0
N317 N 0.02273 0.06194 0.98325 0.0
N318 N 0.02175 0.06848 0.94335 0.0
C319 C 0.02798 0.08911 0.95377 0.0
H320 H 0.01326 0.03392 0.95903 0.0
H321 H 0.03417 0.09778 0.9917 0.0
C322 C 0.0337 0.99668 0.0089 0.0
N323 N 0.02595 0.0139 0.07796 0.0
C324 C 0.03552 0.02303 0.09797 0.0
C325 C 0.01807 0.99189 0.08472 0.0
N326 N 0.03399 0.00767 0.11697 0.0
C327 C 0.02319 0.98792 0.10878 0.0
C328 C 0.97787 0.02624 0.0279 0.0
O329 O 0.03323 0.01669 0.9974 0.0
O330 O 0.0308 0.99732 0.03197 0.0
O331 O 0.98937 0.02256 0.04747 0.0
O332 O 0.98918 0.03717 0.01046 0.0
O333 O 0.01861 0.06072 0.06404 0.0
H334 H 0.00929 0.97952 0.0729 0.0
H335 H 0.04403 0.04044 0.09844 0.0
O336 O 0.01363 0.07626 0.02808 0.0
O337 O 0.05742 0.05581 0.01527 0.0
O338 O 0.06005 0.03485 0.04885 0.0
C339 C 0.07022 0.04866 0.03298 0.0
H340 H 0.03235 0.10569 0.94423 0.0
H341 H 0.0192 0.9719 0.11945 0.0
Co342 Co 0.27555 0.77146 0.28256 0.0
C343 C 0.26618 0.7385 0.24682 0.0
Co344 Co 0.26457 0.78782 0.24767 0.0
C345 C 0.27481 0.76495 0.33396 0.0
C346 C 0.2962 0.73698 0.31656 0.0
N347 N 0.28268 0.75708 0.31199 0.0
N348 N 0.28289 0.75073 0.35222 0.0
C349 C 0.29642 0.73305 0.3413 0.0
H350 H 0.26379 0.78124 0.33644 0.0
H351 H 0.30538 0.72598 0.30281 0.0
C352 C 0.27429 0.82079 0.28335 0.0
N353 N 0.25759 0.80257 0.21821 0.0
C354 C 0.24636 0.793 0.19922 0.0
C355 C 0.26746 0.82309 0.20934 0.0
N356 N 0.24945 0.80629 0.17878 0.0
C357 C 0.26266 0.82529 0.18507 0.0
C358 C 0.22512 0.78028 0.2783 0.0
O359 O 0.27902 0.80234 0.29629 0.0
O360 O 0.26771 0.81813 0.2617 0.0
O361 O 0.23054 0.78833 0.25715 0.0
O362 O 0.24212 0.77216 0.29163 0.0
O363 O 0.26182 0.75702 0.23387 0.0
H364 H 0.27939 0.83451 0.21922 0.0
H365 H 0.23844 0.7753 0.19961 0.0
O366 O 0.27199 0.74095 0.26877 0.0
O367 O 0.30918 0.77074 0.27312 0.0
O368 O 0.29843 0.78721 0.23852 0.0
C369 C 0.31508 0.77864 0.25208 0.0
H370 H 0.30587 0.71837 0.35046 0.0
H371 H 0.27028 0.83853 0.17253 0.0
Co372 Co 0.50224 0.02956 0.51463 0.0
C373 C 0.51448 0.0782 0.50725 0.0
Co374 Co 0.53184 0.04035 0.538 0.0
C375 C 0.45979 0.00443 0.50061 0.0
C376 C 0.47358 0.02706 0.47184 0.0
N377 N 0.47733 0.0205 0.49509 0.0
N378 N 0.44528 1.00047 0.48172 0.0
C379 C 0.45386 0.01476 0.46355 0.0
H380 H 0.45832 0.99518 0.51797 0.0
H381 H 0.48481 0.03957 0.46143 0.0
C382 C 0.51935 0.99136 0.54452 0.0
N383 N 0.55732 0.04929 0.55702 0.0
C384 C 0.57891 0.05751 0.54807 0.0
C385 C 0.56069 0.04599 0.58101 0.0
N386 N 0.59586 0.05881 0.56517 0.0
C387 C 0.5846 0.05188 0.5861 0.0
C388 C 0.48595 0.04674 0.55921 0.0
O389 O 0.505 0.99721 0.52748 0.0
O390 O 0.53294 0.00765 0.55274 0.0
O391 O 0.50876 0.05011 0.5619 0.0
O392 O 0.47886 0.0376 0.5397 0.0
O393 O 0.53061 0.07314 0.52306 0.0
H394 H 0.54722 0.03839 0.59363 0.0
H395 H 0.58273 0.06116 0.52899 0.0
O396 O 0.49983 0.0617 0.50176 0.0
O397 O 0.52533 0.02162 0.48973 0.0
O398 O 0.55499 0.03031 0.51374 0.0
C399 C 0.54816 0.02322 0.49338 0.0
H400 H 0.44656 0.01618 0.44553 0.0
H401 H 0.59347 0.04961 0.60332 0.0
Co402 Co 0.28692 0.29683 0.78628 0.0
C403 C 0.27386 0.29926 0.73784 0.0
Co404 Co 0.25681 0.27217 0.77975 0.0
C405 C 0.33347 0.3088 0.80414 0.0
C406 C 0.31738 0.33867 0.78501 0.0
N407 N 0.31287 0.3161 0.79298 0.0
N408 N 0.35095 0.3256 0.80303 0.0
C409 C 0.34095 0.34452 0.79106 0.0
H410 H 0.33623 0.2908 0.81143 0.0
H411 H 0.30487 0.34961 0.77439 0.0
C412 C 0.27029 0.27011 0.82827 0.0
N413 N 0.23068 0.25309 0.77234 0.0
C414 C 0.21449 0.25872 0.75504 0.0
C415 C 0.22412 0.23107 0.78056 0.0
N416 N 0.19844 0.24115 0.75174 0.0
C417 C 0.20411 0.22365 0.76783 0.0
C418 C 0.30205 0.25039 0.7739 0.0
O419 O 0.28517 0.2859 0.81997 0.0
O420 O 0.2551 0.26135 0.81371 0.0
O421 O 0.27912 0.24678 0.77276 0.0
O422 O 0.30936 0.2712 0.77892 0.0
O423 O 0.25923 0.28311 0.74574 0.0
H424 H 0.23376 0.22078 0.79424 0.0
H425 H 0.21474 0.27527 0.74448 0.0
O426 O 0.28856 0.30801 0.75272 0.0
O427 O 0.2646 0.32195 0.79347 0.0
O428 O 0.23425 0.29776 0.78678 0.0
C429 C 0.24167 0.31847 0.79203 0.0
H430 H 0.35029 0.36098 0.78625 0.0
H431 H 0.19525 0.20642 0.76941 0.0
Co432 Co 0.02883 0.0084 0.53028 0.0
C433 C 0.04122 0.04131 0.56497 0.0
Co434 Co 0.03979 0.04373 0.51552 0.0
C435 C 0.02979 0.95723 0.53451 0.0
C436 C 0.00954 0.97321 0.5643 0.0
N437 N 0.0221 0.97858 0.54351 0.0
N438 N 0.02261 0.9386 0.54879 0.0
C439 C 0.00978 0.9486 0.56758 0.0
H440 H 0.04018 0.9555 0.51753 0.0
H441 H 1.0009 0.98633 0.57635 0.0
C442 C 0.02774 0.01107 0.48059 0.0
N443 N 0.04624 0.07396 0.50294 0.0
C444 C 0.034 0.09397 0.51038 0.0
C445 C 0.06271 0.08167 0.48584 0.0
N446 N 0.04178 0.1138 0.49862 0.0
C447 C 0.06017 0.10641 0.48333 0.0
C448 C 0.07918 0.013 0.51911 0.0
O449 O 0.0239 0.99692 0.49853 0.0
O450 O 0.03455 0.03238 0.48433 0.0
O451 O 0.07374 0.03435 0.5123 0.0
O452 O 0.06225 0.9995 0.52733 0.0
O453 O 0.04503 0.05519 0.54691 0.0
H454 H 0.07578 0.07014 0.47602 0.0
H455 H 0.01999 0.09416 0.52481 0.0
O456 O 0.03403 0.0201 0.56151 0.0
O457 O 0.99524 0.0173 0.53338 0.0
O458 O 0.00576 0.05253 0.51887 0.0
C459 C 0.98924 0.03861 0.5272 0.0
H460 H 1.00128 0.93892 0.58268 0.0
H461 H 0.07086 0.11799 0.4713 0.0
Co462 Co 0.27807 0.79701 0.78561 0.0
C463 C 0.22999 0.77839 0.79409 0.0
Co464 Co 0.27058 0.76488 0.76459 0.0
C465 C 0.29258 0.84493 0.79719 0.0
C466 C 0.27682 0.8261 0.8278 0.0
N467 N 0.283 0.82369 0.80405 0.0
N468 N 0.29259 0.86055 0.81575 0.0
C469 C 0.2827 0.84873 0.83505 0.0
H470 H 0.29897 0.84894 0.77881 0.0
H471 H 0.26848 0.81227 0.83912 0.0
C472 C 0.31816 0.78292 0.75501 0.0
N473 N 0.26553 0.73768 0.74673 0.0
C474 C 0.26112 0.7157 0.75613 0.0
C475 C 0.2678 0.7344 0.72252 0.0
N476 N 0.26104 0.69876 0.73897 0.0
C477 C 0.26485 0.71035 0.71766 0.0
C478 C 0.25867 0.80724 0.74069 0.0
O479 O 0.31188 0.79857 0.77099 0.0
O480 O 0.30276 0.76688 0.75021 0.0
O481 O 0.25835 0.78447 0.7393 0.0
O482 O 0.26628 0.81673 0.75984 0.0
O483 O 0.23798 0.7629 0.77878 0.0
H484 H 0.27218 0.74838 0.70935 0.0
H485 H 0.25838 0.71201 0.77534 0.0
O486 O 0.24438 0.79511 0.79979 0.0
O487 O 0.2899 0.77753 0.81109 0.0
O488 O 0.28324 0.74539 0.79018 0.0
C489 C 0.29057 0.75485 0.80936 0.0
H490 H 0.28015 0.8558 0.85318 0.0
H491 H 0.26636 0.70191 0.70007 0.0
Co492 Co 0.52781 0.03377 0.01097 0.0
C493 C 0.57115 0.02368 0.03602 0.0
Co494 Co 0.52665 0.04944 0.0473 0.0
C495 C 0.52524 0.03279 0.95901 0.0
C496 C 0.53574 0.99853 0.9741 0.0
N497 N 0.52931 0.0213 0.98021 0.0
N498 N 0.52881 0.01807 0.93994 0.0
C499 C 0.53525 0.99644 0.9493 0.0
H500 H 0.51936 0.05149 0.95763 0.0
H501 H 0.54059 0.98438 0.98685 0.0
C502 C 0.48334 0.05939 0.02229 0.0
N503 N 0.52538 0.06115 0.07832 0.0
C504 C 0.52982 0.04781 0.09828 0.0
C505 C 0.51901 0.08323 0.0866 0.0
N506 N 0.52628 0.06044 0.11877 0.0
C507 C 0.51975 0.0829 0.11162 0.0
C508 C 0.54539 0.08041 0.01315 0.0
O509 O 0.49455 0.04653 0.00616 0.0
O510 O 0.49429 0.06331 0.04189 0.0
O511 O 0.54102 0.07775 0.03574 0.0
O512 O 0.54101 0.06332 0.99891 0.0
O513 O 0.55942 0.03548 0.05258 0.0
H514 H 0.51397 0.09845 0.07523 0.0
H515 H 0.53588 0.02913 0.09775 0.0
O516 O 0.56076 0.021 0.01591 0.0
O517 O 0.51449 0.00458 0.02314 0.0
O518 O 0.51187 0.02106 0.05894 0.0
C519 C 0.50825 0.00333 0.04546 0.0
H520 H 0.53942 0.98036 0.93895 0.0
H521 H 0.51561 0.09784 0.12358 0.0
Co522 Co 0.27408 0.26271 0.29489 0.0
C523 C 0.32191 0.28075 0.29637 0.0
Co524 Co 0.27704 0.29743 0.27645 0.0
C525 C 0.26343 0.21282 0.29939 0.0
C526 C 0.27758 0.22625 0.33225 0.0
N527 N 0.27139 0.23295 0.30957 0.0
N528 N 0.26445 0.19381 0.3147 0.0
C529 C 0.27313 0.20212 0.33552 0.0
H530 H 0.25685 0.21211 0.28108 0.0
H531 H 0.28512 0.23805 0.34543 0.0
C532 C 0.22931 0.27984 0.27477 0.0
N533 N 0.27998 0.32714 0.26218 0.0
C534 C 0.29227 0.34531 0.27161 0.0
C535 C 0.27005 0.33627 0.24184 0.0
N536 N 0.29033 0.36563 0.25824 0.0
C537 C 0.27646 0.36005 0.23931 0.0
C538 C 0.28425 0.25897 0.24411 0.0
O539 O 0.23925 0.26234 0.28642 0.0
O540 O 0.24231 0.29812 0.26984 0.0
O541 O 0.28295 0.28191 0.24472 0.0
O542 O 0.28257 0.24753 0.26425 0.0
O543 O 0.31212 0.29676 0.28277 0.0
H544 H 0.25859 0.32642 0.2299 0.0
H545 H 0.30256 0.34353 0.28805 0.0
O546 O 0.30865 0.26329 0.30356 0.0
O547 O 0.2658 0.27757 0.32514 0.0
O548 O 0.27104 0.31297 0.30871 0.0
C549 C 0.26711 0.30016 0.32779 0.0
H550 H 0.27651 0.19141 0.35167 0.0
H551 H 0.27092 0.37233 0.22499 0.0
Co552 Co 0.53002 0.52088 0.0385 0.0
C553 C 0.53823 0.52932 0.08641 0.0
Co554 Co 0.55685 0.54946 0.04347 0.0
C555 C 0.51197 0.48141 0.01366 0.0
C556 C 0.48917 0.48768 0.04536 0.0
N557 N 0.50911 0.49597 0.03287 0.0
N558 N 0.49465 0.46459 0.01331 0.0
C559 C 0.48031 0.46808 0.03339 0.0
H560 H 0.527 0.48265 1.00034 0.0
H561 H 0.48169 0.49527 0.06208 0.0
C562 C 0.54802 0.54207 0.99572 0.0
N563 N 0.57812 0.57427 0.04828 0.0
C564 C 0.57187 0.59485 0.05963 0.0
C565 C 0.60063 0.57808 0.03811 0.0
N566 N 0.58896 0.61194 0.05628 0.0
C567 C 0.60735 0.60125 0.04298 0.0
C568 C 0.5791 0.50511 0.03925 0.0
O569 O 0.53366 0.52635 0.00454 0.0
O570 O 0.5605 0.55447 0.00978 0.0
O571 O 0.58361 0.52711 0.04257 0.0
O572 O 0.55695 0.49879 0.03723 0.0
O573 O 0.55291 0.54478 0.07739 0.0
H574 H 0.61072 0.56547 0.02653 0.0
H575 H 0.55408 0.59767 0.06857 0.0
O576 O 0.52653 0.51604 0.07234 0.0
O577 O 0.50309 0.54289 0.03981 0.0
O578 O 0.52958 0.57154 0.04411 0.0
C579 C 0.50745 0.565 0.04255 0.0
H580 H 0.4646 0.4574 0.03885 0.0
H581 H 0.62386 0.60981 0.03601 0.0
Co582 Co 0.78406 0.29381 0.29414 0.0
C583 C 0.73481 0.2787 0.3026 0.0
Co584 Co 0.77344 0.26419 0.27118 0.0
C585 C 0.80245 0.33919 0.30597 0.0
C586 C 0.79453 0.3188 0.33834 0.0
N587 N 0.79302 0.31828 0.31393 0.0
N588 N 0.80988 0.35265 0.32425 0.0
C589 C 0.80533 0.33996 0.34475 0.0
H590 H 0.80523 0.34393 0.28697 0.0
H591 H 0.78915 0.30434 0.35057 0.0
C592 C 0.8221 0.27846 0.26141 0.0
N593 N 0.76527 0.24003 0.25071 0.0
C594 C 0.75639 0.21843 0.25709 0.0
C595 C 0.76837 0.2394 0.22634 0.0
N596 N 0.75387 0.20417 0.23776 0.0
C597 C 0.76135 0.21734 0.2183 0.0
C598 C 0.76417 0.30944 0.25148 0.0
O599 O 0.81716 0.29418 0.27765 0.0
O600 O 0.80548 0.26368 0.25672 0.0
O601 O 0.76318 0.28704 0.24782 0.0
O602 O 0.77225 0.31664 0.27135 0.0
O603 O 0.74121 0.26461 0.28541 0.0
H604 H 0.77574 0.25386 0.21518 0.0
H605 H 0.75267 0.21308 0.27576 0.0
O606 O 0.75084 0.29312 0.31023 0.0
O607 O 0.79607 0.27116 0.31665 0.0
O608 O 0.78384 0.24118 0.29493 0.0
C609 C 0.79398 0.24877 0.31369 0.0
H610 H 0.81011 0.34528 0.36279 0.0
H611 H 0.76183 0.21149 0.19965 0.0
Co612 Co 0.01796 0.51744 0.50941 0.0
C613 C 0.06557 0.50777 0.52725 0.0
Co614 Co 0.02682 0.53968 0.54032 0.0
C615 C 1.00085 0.50512 0.4633 0.0
C616 C 0.01839 0.47475 0.4803 0.0
N617 N 0.01166 0.49801 0.48384 0.0
N618 N 1.00077 0.48742 0.44693 0.0
C619 C 0.01189 0.46823 0.45737 0.0
H620 H 0.99423 0.52335 0.45994 0.0
H621 H 0.02804 0.46353 0.49324 0.0
C622 C 0.97872 0.54827 0.52225 0.0
N623 N 0.03288 0.5595 0.56578 0.0
C624 C 0.03909 0.55273 0.58829 0.0
C625 C 0.03005 0.58362 0.56661 0.0
N626 N 0.04012 0.57159 0.60343 0.0
C627 C 0.03457 0.59112 0.58968 0.0
C628 C 0.03922 0.5601 0.49569 0.0
O629 O 0.98598 0.53216 0.50735 0.0
O630 O 0.99357 0.55453 0.53839 0.0
O631 O 0.0393 0.56316 0.51844 0.0
O632 O 0.0309 0.54077 0.48759 0.0
O633 O 0.06004 0.52458 0.54219 0.0
H634 H 0.02449 0.59497 0.55157 0.0
H635 H 0.0421 0.53411 0.59339 0.0
O636 O 0.0498 0.50253 0.5117 0.0
O637 O 0.00489 0.49439 0.53077 0.0
O638 O 0.01427 0.51568 0.56224 0.0
C639 C 0.00513 0.49697 0.55354 0.0
H640 H 0.01538 0.45098 0.4489 0.0
H641 H 0.03353 0.60955 0.59572 0.0
Co642 Co 0.79286 0.78706 0.28031 0.0
C643 C 0.76977 0.79832 0.23674 0.0
Co644 Co 0.75521 0.7737 0.2811 0.0
C645 C 0.83783 0.80331 0.29936 0.0
C646 C 0.84175 0.79558 0.26149 0.0
N647 N 0.82516 0.79624 0.28022 0.0
N648 N 0.8618 0.80669 0.29351 0.0
C649 C 0.86436 0.80194 0.26964 0.0
H650 H 0.82993 0.80454 0.31759 0.0
H651 H 0.83791 0.78988 0.24334 0.0
C652 C 0.77822 0.7628 0.32476 0.0
N653 N 0.72282 0.76503 0.28104 0.0
C654 C 0.70421 0.77942 0.27363 0.0
C655 C 0.71236 0.74388 0.28693 0.0
N656 N 0.68252 0.7682 0.27438 0.0
C657 C 0.68747 0.74573 0.28263 0.0
C658 C 0.78776 0.7403 0.26356 0.0
O659 O 0.79529 0.77448 0.31368 0.0
O660 O 0.75843 0.75949 0.31352 0.0
O661 O 0.76491 0.74446 0.26723 0.0
O662 O 0.80312 0.7564 0.26825 0.0
O663 O 0.75208 0.788 0.24832 0.0
H664 H 0.72229 0.72804 0.29327 0.0
H665 H 0.70679 0.79751 0.26665 0.0
O666 O 0.79017 0.79969 0.24731 0.0
O667 O 0.78263 0.81746 0.29247 0.0
O668 O 0.74543 0.80291 0.29532 0.0
C669 C 0.76003 0.81988 0.29872 0.0
H670 H 0.8815 0.80213 0.25904 0.0
H671 H 0.67422 0.73154 0.28482 0.0
Co672 Co 0.79942 0.27945 0.79117 0.0
C673 C 0.79629 0.23728 0.76624 0.0
Co674 Co 0.77395 0.2821 0.76095 0.0
C675 C 0.81312 0.28669 0.83931 0.0
C676 C 0.84054 0.26481 0.82098 0.0
N677 N 0.81903 0.27691 0.8177 0.0
N678 N 0.82997 0.28138 0.85604 0.0
C679 C 0.8473 0.26744 0.84475 0.0
H680 H 0.79625 0.29699 0.84289 0.0
H681 H 0.85045 0.25452 0.80713 0.0
C682 C 0.77613 0.32394 0.7865 0.0
N683 N 0.75454 0.28438 0.73414 0.0
C684 C 0.76198 0.27603 0.7123 0.0
C685 C 0.73137 0.29296 0.73109 0.0
N686 N 0.74447 0.27856 0.69565 0.0
C687 C 0.7251 0.28943 0.70728 0.0
C688 C 0.75035 0.26841 0.80287 0.0
O689 O 0.79252 0.31238 0.79809 0.0
O690 O 0.76584 0.31401 0.76899 0.0
O691 O 0.7469 0.2719 0.78041 0.0
O692 O 0.7718 0.27071 0.81097 0.0
O693 O 0.78192 0.24971 0.75314 0.0
H694 H 0.71969 0.30083 0.7453 0.0
H695 H 0.78009 0.26806 0.70875 0.0
O696 O 0.8059 0.24688 0.7843 0.0
O697 O 0.8269 0.28812 0.77138 0.0
O698 O 0.80128 0.29253 0.74166 0.0
C699 C 0.82303 0.29345 0.74936 0.0
H700 H 0.86361 0.25984 0.85301 0.0
H701 H 0.70751 0.2938 0.6994 0.0
Co702 Co 0.76897 0.77079 0.79383 0.0
C703 C 0.82001 0.77697 0.80164 0.0
Co704 Co 0.78454 0.80067 0.77301 0.0
C705 C 0.7453 0.72637 0.79871 0.0
C706 C 0.75957 0.73641 0.83272 0.0
N707 N 0.75697 0.74408 0.80966 0.0
N708 N 0.7409 0.70749 0.81366 0.0
C709 C 0.7497 0.71385 0.83526 0.0
H710 H 0.74134 0.72696 0.77964 0.0
H711 H 0.7689 0.74614 0.84647 0.0
C712 C 0.73352 0.79461 0.76538 0.0
N713 N 0.79664 0.82711 0.7569 0.0
C714 C 0.81044 0.84398 0.76671 0.0
C715 C 0.79458 0.83375 0.73346 0.0
N716 N 0.8173 0.86104 0.75041 0.0
C717 C 0.80731 0.85463 0.72938 0.0
C718 C 0.78516 0.75944 0.74483 0.0
O719 O 0.73618 0.7776 0.78089 0.0
O720 O 0.75211 0.80766 0.76046 0.0
O721 O 0.79157 0.7813 0.7441 0.0
O722 O 0.77662 0.75126 0.76503 0.0
O723 O 0.81744 0.79366 0.78578 0.0
H724 H 0.78462 0.82398 0.7202 0.0
H725 H 0.81509 0.84369 0.78562 0.0
O726 O 0.80137 0.76402 0.80671 0.0
O727 O 0.76164 0.79014 0.82254 0.0
O728 O 0.77718 0.82024 0.80189 0.0
C729 C 0.76819 0.81199 0.82193 0.0
H730 H 0.7498 0.70283 0.85157 0.0
H731 H 0.80915 0.8641 0.71219 0.0
Co732 Co 0.52092 0.54504 0.50989 0.0
C733 C 0.51726 0.58015 0.54819 0.0
Co734 Co 0.52737 0.53114 0.54642 0.0
C735 C 0.49772 0.55627 0.46469 0.0
C736 C 0.5288 0.57831 0.47024 0.0
N737 N 0.51604 0.55983 0.48012 0.0
N738 N 0.49856 0.57177 0.44572 0.0
C739 C 0.5182 0.58555 0.44895 0.0
H740 H 0.48368 0.54291 0.4675 0.0
H741 H 0.54416 0.58674 0.47848 0.0
C742 C 0.53147 0.49596 0.50836 0.0
N743 N 0.53208 0.51571 0.57572 0.0
C744 C 0.54829 0.51975 0.59318 0.0
C745 C 0.52179 0.49451 0.58196 0.0
N746 N 0.54866 0.50164 0.60968 0.0
C747 C 0.53205 0.48577 0.60276 0.0
C748 C 0.4777 0.52711 0.53142 0.0
O749 O 0.52579 0.51353 0.49435 0.0
O750 O 0.53447 0.50058 0.53065 0.0
O751 O 0.4922 0.52237 0.54867 0.0
O752 O 0.48625 0.53871 0.51316 0.0
O753 O 0.52051 0.56202 0.56229 0.0
H754 H 0.50867 0.48523 0.57129 0.0
H755 H 0.56066 0.53477 0.59298 0.0
O756 O 0.51608 0.57621 0.52546 0.0
O757 O 0.55554 0.55152 0.50668 0.0
O758 O 0.56248 0.54014 0.54391 0.0
C759 C 0.57037 0.54982 0.52409 0.0
H760 H 0.52371 0.6005 0.43739 0.0
H761 H 0.52829 0.46872 0.61169 0.0
Co762 Co 0.02161 0.53628 0.02443 0.0
C763 C 0.0433 0.58089 0.01525 0.0
Co764 Co 0.05662 0.53877 0.04316 0.0
C765 C 0.98032 0.51289 0.00481 0.0
C766 C 0.97493 0.55109 0.00497 0.0
N767 N 0.99153 0.53346 0.01006 0.0
N768 N 0.9572 0.51683 0.99717 0.0
C769 C 0.95379 0.54093 0.99707 0.0
H770 H 0.98838 0.49523 0.0081 0.0
H771 H 0.97751 0.57004 0.00796 0.0
C772 C 0.03463 0.49424 0.05277 0.0
N773 N 0.08671 0.54172 0.05729 0.0
C774 C 0.10792 0.54718 0.04538 0.0
C775 C 0.09286 0.5385 0.08065 0.0
N776 N 0.12714 0.54733 0.06021 0.0
C777 C 0.11781 0.54214 0.08254 0.0
C778 C 0.01727 0.5555 0.0704 0.0
O779 O 0.01861 0.50412 0.03914 0.0
O780 O 0.05368 0.50624 0.05725 0.0
O781 O 0.04045 0.55204 0.07064 0.0
O782 O 0.00546 0.54959 0.05197 0.0
O783 O 0.05942 0.57145 0.02913 0.0
H784 H 0.0801 0.53367 0.09529 0.0
H785 H 0.10922 0.55127 0.02613 0.0
O786 O 0.02491 0.56828 0.0102 0.0
O787 O 0.03769 0.52308 0.99677 0.0
O788 O 0.07258 0.52554 0.01541 0.0
C789 C 0.06092 0.51999 0.99681 0.0
H790 H 0.93689 0.5505 0.99269 0.0
H791 H 0.12831 0.54074 0.09889 0.0
H792 H 0.04108 0.1931 0.1386 0.0
H793 H 0.01827 0.23875 0.07857 0.0
H794 H 0.00954 0.20274 0.05496 0.0
H795 H 0.07118 0.1463 0.1006 0.0
H796 H 0.0617 0.12173 0.12013 0.0
H797 H 0.0662 0.15101 0.1327 0.0
H798 H 0.02176 0.15091 0.1511 0.0
H799 H 0.01708 0.12172 0.13839 0.0
H800 H 0.99626 0.14645 0.13157 0.0
H801 H 1.002 0.16206 0.03774 0.0
H802 H 0.99949 0.11965 0.02649 0.0
H803 H 0.02828 0.09786 0.09622 0.0
C804 C 0.0344 0.19552 0.12042 0.0
C805 C 0.03043 0.21916 0.11058 0.0
C806 C 0.02162 0.22118 0.08668 0.0
C807 C 0.01647 0.20069 0.07308 0.0
C808 C 0.0203 0.17783 0.08331 0.0
C809 C 0.02936 0.17501 0.10632 0.0
C810 C 0.03227 0.14812 0.11254 0.0
C811 C 0.05946 0.1414 0.11674 0.0
C812 C 0.01587 0.14141 0.13472 0.0
C813 C 0.02329 0.13637 0.08952 0.0
C814 C 0.01637 0.15405 0.07306 0.0
C815 C 0.00746 0.14813 0.05051 0.0
C816 C 0.00603 0.12375 0.0443 0.0
C817 C 0.01351 0.10491 0.06032 0.0
C818 C 0.02206 0.11153 0.08351 0.0
H819 H 0.12583 0.75901 0.38341 0.0
H820 H 0.07792 0.8117 0.34867 0.0
H821 H 0.10886 0.81612 0.31498 0.0
H822 H 0.18301 0.78762 0.36769 0.0
H823 H 0.19948 0.75942 0.36333 0.0
H824 H 0.17353 0.76115 0.38444 0.0
H825 H 0.15297 0.72663 0.36175 0.0
H826 H 0.17867 0.72516 0.3403 0.0
H827 H 0.14781 0.72986 0.32971 0.0
H828 H 0.14549 0.81405 0.28474 0.0
H829 H 0.18576 0.80803 0.26274 0.0
H830 H 0.20787 0.7562 0.31792 0.0
C831 C 0.12189 0.77163 0.36883 0.0
C832 C 0.09959 0.78504 0.36858 0.0
C833 C 0.09505 0.80134 0.34918 0.0
C834 C 0.1124 0.80386 0.32993 0.0
C835 C 0.13406 0.78992 0.33049 0.0
C836 C 0.13889 0.77431 0.34959 0.0
C837 C 0.16353 0.76154 0.34621 0.0
C838 C 0.18091 0.76781 0.36662 0.0
C839 C 0.16055 0.73418 0.34438 0.0
C840 C 0.17191 0.7724 0.32225 0.0
C841 C 0.15475 0.78865 0.31328 0.0
C842 C 0.15905 0.80131 0.29157 0.0
C843 C 0.18183 0.79768 0.27913 0.0
C844 C 0.19983 0.78167 0.28866 0.0
C845 C 0.19446 0.76857 0.31016 0.0
H846 H 0.53694 0.87665 0.63722 0.0
H847 H 0.51587 0.83231 0.57744 0.0
H848 H 0.51135 0.86852 0.55161 0.0
H849 H 0.49646 0.92815 0.62427 0.0
H850 H 0.51853 0.95045 0.63167 0.0
H851 H 0.51967 0.9212 0.64614 0.0
H852 H 0.56518 0.91551 0.63155 0.0
H853 H 0.56416 0.94474 0.61703 0.0
H854 H 0.57316 0.91854 0.59967 0.0
H855 H 0.50749 0.90934 0.53219 0.0
H856 H 0.50719 0.95189 0.51942 0.0
H857 H 0.53344 0.9718 0.5898 0.0
C858 C 0.53131 0.87461 0.61871 0.0
C859 C 0.52663 0.85132 0.60953 0.0
C860 C 0.51958 0.84966 0.58507 0.0
C861 C 0.5169 0.87025 0.57018 0.0
C862 C 0.52165 0.89277 0.57965 0.0
C863 C 0.52895 0.89518 0.60326 0.0
C864 C 0.53353 0.9217 0.60838 0.0
C865 C 0.516 0.93092 0.62883 0.0
C866 C 0.56062 0.92533 0.61453 0.0
C867 C 0.5275 0.93372 0.58407 0.0
C868 C 0.52046 0.91653 0.56793 0.0
C869 C 0.51317 0.92289 0.54464 0.0
C870 C 0.51303 0.94727 0.53754 0.0
C871 C 0.52045 0.96551 0.55336 0.0
C872 C 0.52794 0.95844 0.57704 0.0
H873 H 0.4591 0.26825 0.87927 0.0
H874 H 0.51045 0.30231 0.82832 0.0
H875 H 0.47556 0.31798 0.80469 0.0
H876 H 0.41352 0.25213 0.83385 0.0
H877 H 0.38786 0.25804 0.85465 0.0
H878 H 0.41705 0.24762 0.86601 0.0
H879 H 0.41744 0.28463 0.89414 0.0
H880 H 0.38855 0.29541 0.88252 0.0
H881 H 0.41502 0.31445 0.88108 0.0
H882 H 0.43507 0.3334 0.78913 0.0
H883 H 0.39166 0.34332 0.77989 0.0
H884 H 0.36712 0.29902 0.84091 0.0
C885 C 0.46301 0.2785 0.86281 0.0
C886 C 0.48741 0.28406 0.85558 0.0
C887 C 0.49185 0.29774 0.83409 0.0
C888 C 0.47217 0.30681 0.82061 0.0
C889 C 0.44827 0.30179 0.82876 0.0
C890 C 0.44362 0.28757 0.84909 0.0
C891 C 0.41624 0.28546 0.85441 0.0
C892 C 0.4082 0.25926 0.85208 0.0
C893 C 0.40889 0.2956 0.87952 0.0
C894 C 0.40625 0.30117 0.83424 0.0
C895 C 0.42499 0.31045 0.81965 0.0
C896 C 0.42022 0.32605 0.80028 0.0
C897 C 0.39557 0.33181 0.79534 0.0
C898 C 0.37613 0.32189 0.80968 0.0
C899 C 0.38166 0.30663 0.82951 0.0
H900 H 0.07096 0.83318 0.46622 0.0
H901 H 0.01308 0.78974 0.49891 0.0
H902 H 0.0054 0.82052 0.53036 0.0
H903 H 0.0925 0.86016 0.52414 0.0
H904 H 0.09774 0.8883 0.50847 0.0
H905 H 0.10163 0.86047 0.49238 0.0
H906 H 0.07089 0.87712 0.46068 0.0
H907 H 0.06654 0.90448 0.4774 0.0
H908 H 0.04031 0.88665 0.47078 0.0
H909 H 0.99911 0.85896 0.55324 0.0
H910 H 0.99539 0.90118 0.56618 0.0
H911 H 0.05858 0.91871 0.51949 0.0
C912 C 0.05722 0.82977 0.48046 0.0
C913 C 0.04268 0.80911 0.48025 0.0
C914 C 0.02455 0.80543 0.49889 0.0
C915 C 0.02009 0.82278 0.51683 0.0
C916 C 0.03414 0.84347 0.51597 0.0
C917 C 0.05254 0.84687 0.4984 0.0
C918 C 0.0632 0.87164 0.49971 0.0
C919 C 0.09039 0.87001 0.50661 0.0
C920 C 0.06002 0.88579 0.47573 0.0
C921 C 0.04712 0.88213 0.52 0.0
C922 C 0.0307 0.86555 0.5294 0.0
C923 C 0.0123 0.87194 0.54648 0.0
C924 C 0.01035 0.89601 0.55376 0.0
C925 C 0.02662 0.91341 0.54382 0.0
C926 C 0.04568 0.90603 0.52732 0.0
H927 H 0.46404 0.79976 0.71776 0.0
H928 H 0.44561 0.76901 0.64877 0.0
H929 H 0.40241 0.76641 0.66262 0.0
H930 H 0.42176 0.76403 0.75529 0.0
H931 H 0.41264 0.78807 0.77554 0.0
H932 H 0.44273 0.78795 0.76069 0.0
H933 H 0.43367 0.83043 0.74301 0.0
H934 H 0.40353 0.83065 0.75777 0.0
H935 H 0.40654 0.83561 0.72544 0.0
H936 H 0.36168 0.76572 0.68301 0.0
H937 H 0.32437 0.76747 0.70913 0.0
H938 H 0.36552 0.79986 0.76614 0.0
C939 C 0.45086 0.7925 0.70563 0.0
C940 C 0.45856 0.78456 0.68201 0.0
C941 C 0.44054 0.77526 0.66681 0.0
C942 C 0.41577 0.77369 0.67454 0.0
C943 C 0.40878 0.78161 0.69764 0.0
C944 C 0.42559 0.79093 0.71307 0.0
C945 C 0.41244 0.79812 0.73702 0.0
C946 C 0.42303 0.78368 0.7584 0.0
C947 C 0.41415 0.82532 0.74105 0.0
C948 C 0.38583 0.79112 0.73253 0.0
C949 C 0.38447 0.78161 0.70959 0.0
C950 C 0.36249 0.7732 0.70098 0.0
C951 C 0.34129 0.77423 0.71612 0.0
C952 C 0.3417 0.78377 0.73985 0.0
C953 C 0.3644 0.79264 0.74807 0.0
H954 H 0.53696 0.19048 0.92072 0.0
H955 H 0.55952 0.23543 0.97952 0.0
H956 H 0.56667 0.19926 0.0049 0.0
H957 H 0.50397 0.14871 0.95779 0.0
H958 H 0.51295 0.12293 0.93981 0.0
H959 H 0.51113 0.1523 0.9258 0.0
H960 H 0.5565 0.14721 0.9101 0.0
H961 H 0.55848 0.11791 0.92439 0.0
H962 H 0.58035 0.14055 0.93139 0.0
H963 H 0.56943 0.15898 0.0245 0.0
H964 H 0.56468 0.11696 0.03834 0.0
H965 H 0.54073 0.09782 0.96683 0.0
C966 C 0.54349 0.19266 0.9389 0.0
C967 C 0.54772 0.2157 0.94819 0.0
C968 C 0.55613 0.21792 0.97209 0.0
C969 C 0.56041 0.1975 0.98657 0.0
C970 C 0.55626 0.17503 0.97683 0.0
C971 C 0.54784 0.17245 0.95364 0.0
C972 C 0.5435 0.1463 0.94812 0.0
C973 C 0.51627 0.14234 0.94257 0.0
C974 C 0.56075 0.13748 0.92726 0.0
C975 C 0.55034 0.13469 0.97204 0.0
C976 C 0.55793 0.15158 0.98822 0.0
C977 C 0.56377 0.14551 0.01196 0.0
C978 C 0.56104 0.12161 0.01962 0.0
C979 C 0.55251 0.10416 0.00359 0.0
C980 C 0.54775 0.11069 0.97933 0.0
H981 H 0.12019 0.30005 0.179 0.0
H982 H 0.07341 0.25825 0.22797 0.0
H983 H 0.10776 0.25324 0.2561 0.0
H984 H 0.17746 0.26684 0.18904 0.0
H985 H 0.19634 0.2931 0.18821 0.0
H986 H 0.16836 0.29296 0.17147 0.0
H987 H 0.15273 0.33143 0.1936 0.0
H988 H 0.18068 0.33167 0.21041 0.0
H989 H 0.15113 0.33165 0.22632 0.0
H990 H 0.14836 0.25099 0.27846 0.0
H991 H 0.19028 0.25467 0.29443 0.0
H992 H 0.21031 0.30066 0.23318 0.0
C993 C 0.11719 0.28982 0.19563 0.0
C994 C 0.09389 0.27944 0.20108 0.0
C995 C 0.09088 0.26641 0.22324 0.0
C996 C 0.1104 0.2634 0.23938 0.0
C997 C 0.13305 0.2738 0.23351 0.0
C998 C 0.13648 0.28699 0.21228 0.0
C999 C 0.16251 0.2969 0.21076 0.0
C1000 C 0.17702 0.28685 0.18855 0.0
C1001 C 0.16171 0.32455 0.21024 0.0
C1002 C 0.17314 0.28719 0.23435 0.0
C1003 C 0.15592 0.27362 0.24704 0.0
C1004 C 0.16181 0.26186 0.26877 0.0
C1005 C 0.18574 0.26404 0.27775 0.0
C1006 C 0.20362 0.27829 0.26543 0.0
C1007 C 0.197 0.29005 0.24341 0.0
H1008 H 0.11265 0.97574 0.23192 0.0
H1009 H 0.10339 0.05073 0.25204 0.0
H1010 H 0.07604 0.05777 0.21768 0.0
H1011 H 0.11517 0.98555 0.16835 0.0
H1012 H 0.09823 0.95914 0.16136 0.0
H1013 H 0.116 0.95965 0.18835 0.0
H1014 H 0.07702 0.94916 0.21444 0.0
H1015 H 0.05908 0.94872 0.18749 0.0
H1016 H 0.0496 0.96792 0.21234 0.0
H1017 H 0.0521 0.05742 0.1801 0.0
H1018 H 0.03277 0.04955 0.1411 0.0
H1019 H 0.05664 0.97474 0.14572 0.0
C1020 C 0.10473 0.99359 0.22915 0.0
C1021 C 0.11009 0.0127 0.24455 0.0
C1022 C 0.09947 0.03583 0.24041 0.0
C1023 C 0.08387 0.04 0.22101 0.0
C1024 C 0.07897 0.0208 0.20612 0.0
C1025 C 0.089 0.99804 0.20994 0.0
C1026 C 0.08139 0.98077 0.1907 0.0
C1027 C 0.10405 0.9707 0.17634 0.0
C1028 C 0.06585 0.96044 0.20192 0.0
C1029 C 0.06595 0.99753 0.17521 0.0
C1030 C 0.06472 0.02051 0.18452 0.0
C1031 C 0.05269 0.03946 0.17273 0.0
C1032 C 0.04189 0.03488 0.15062 0.0
C1033 C 0.04318 0.01155 0.14063 0.0
C1034 C 0.05501 0.99259 0.15329 0.0
H1035 H 0.23434 0.82836 0.4623 0.0
H1036 H 0.29531 0.79833 0.50272 0.0
H1037 H 0.30331 0.76821 0.47072 0.0
H1038 H 0.21478 0.77008 0.43484 0.0
H1039 H 0.20778 0.78536 0.4068 0.0
H1040 H 0.20387 0.80096 0.43513 0.0
H1041 H 0.23229 0.83449 0.41803 0.0
H1042 H 0.23654 0.8187 0.38994 0.0
H1043 H 0.26298 0.82655 0.40691 0.0
H1044 H 0.30919 0.74645 0.43143 0.0
H1045 H 0.31202 0.73439 0.38858 0.0
H1046 H 0.24635 0.7777 0.37423 0.0
C1047 C 0.24881 0.8149 0.46483 0.0
C1048 C 0.26411 0.81554 0.48501 0.0
C1049 C 0.28325 0.79802 0.48745 0.0
C1050 C 0.2879 0.78082 0.46939 0.0
C1051 C 0.27307 0.78127 0.44919 0.0
C1052 C 0.25372 0.79769 0.44696 0.0
C1053 C 0.24228 0.7962 0.42237 0.0
C1054 C 0.21559 0.78762 0.42496 0.0
C1055 C 0.24363 0.82041 0.40852 0.0
C1056 C 0.25902 0.77726 0.41065 0.0
C1057 C 0.27641 0.76856 0.42651 0.0
C1058 C 0.2953 0.75267 0.41901 0.0
C1059 C 0.29673 0.74588 0.39458 0.0
C1060 C 0.27947 0.75511 0.37786 0.0
C1061 C 0.25999 0.77042 0.38636 0.0
H1062 H 0.45431 0.06195 0.69818 0.0
H1063 H 0.37994 0.03959 0.68466 0.0
H1064 H 0.38933 0.04105 0.64039 0.0
H1065 H 0.46071 0.1028 0.64564 0.0
H1066 H 0.49276 0.09452 0.64059 0.0
H1067 H 0.47928 0.09376 0.67088 0.0
H1068 H 0.49317 0.04901 0.67567 0.0
H1069 H 0.50679 0.04971 0.64553 0.0
H1070 H 0.48414 0.02753 0.65359 0.0
H1071 H 0.40854 0.0411 0.59799 0.0
H1072 H 0.43599 0.03928 0.56131 0.0
H1073 H 0.49679 0.06317 0.60364 0.0
C1074 C 0.4399 0.0576 0.68591 0.0
C1075 C 0.41646 0.0506 0.69467 0.0
C1076 C 0.39805 0.04501 0.67815 0.0
C1077 C 0.40317 0.0459 0.65306 0.0
C1078 C 0.42662 0.05273 0.645 0.0
C1079 C 0.44461 0.0586 0.66099 0.0
C1080 C 0.46876 0.064 0.648 0.0
C1081 C 0.47578 0.09034 0.65149 0.0
C1082 C 0.48941 0.04651 0.65618 0.0
C1083 C 0.46184 0.05951 0.62222 0.0
C1084 C 0.43743 0.05325 0.62071 0.0
C1085 C 0.42756 0.04639 0.59887 0.0
C1086 C 0.44326 0.04542 0.57816 0.0
C1087 C 0.46845 0.0512 0.57965 0.0
C1088 C 0.47755 0.05892 0.60183 0.0
H1089 H 0.25335 0.18266 0.94703 0.0
H1090 H 0.29153 0.23638 0.98702 0.0
H1091 H 0.29474 0.26171 0.94997 0.0
H1092 H 0.28806 0.18946 0.8903 0.0
H1093 H 0.26196 0.1858 0.87136 0.0
H1094 H 0.26242 0.17172 0.90097 0.0
H1095 H 0.22088 0.19295 0.91262 0.0
H1096 H 0.22029 0.2071 0.88303 0.0
H1097 H 0.21804 0.22524 0.9099 0.0
H1098 H 0.29536 0.28092 0.90805 0.0
H1099 H 0.29181 0.29332 0.8652 0.0
H1100 H 0.25165 0.22858 0.85128 0.0
C1101 C 0.26231 0.1998 0.94802 0.0
C1102 C 0.27221 0.2074 0.97024 0.0
C1103 C 0.28374 0.23002 0.97049 0.0
C1104 C 0.28569 0.24459 0.94941 0.0
C1105 C 0.27587 0.23659 0.92791 0.0
C1106 C 0.26424 0.21479 0.92703 0.0
C1107 C 0.25515 0.21064 0.90147 0.0
C1108 C 0.26765 0.18806 0.89037 0.0
C1109 C 0.22691 0.20888 0.90178 0.0
C1110 C 0.26359 0.23342 0.88811 0.0
C1111 C 0.27563 0.24803 0.90379 0.0
C1112 C 0.28578 0.26966 0.89573 0.0
C1113 C 0.28367 0.27658 0.8712 0.0
C1114 C 0.27125 0.26219 0.85457 0.0
C1115 C 0.26098 0.24026 0.86339 0.0
H1116 H 0.08784 0.02863 0.35493 0.0
H1117 H 0.10238 0.95169 0.35465 0.0
H1118 H 0.07042 0.94632 0.38716 0.0
H1119 H 0.08449 0.03549 0.41442 0.0
H1120 H 0.0601 0.05806 0.41538 0.0
H1121 H 0.07916 0.0548 0.38848 0.0
H1122 H 0.04019 0.04877 0.36331 0.0
H1123 H 0.02095 0.0518 0.39043 0.0
H1124 H 0.01897 0.02545 0.37195 0.0
H1125 H 0.04495 0.95057 0.4253 0.0
H1126 H 0.02978 0.96416 0.46562 0.0
H1127 H 0.02959 0.03804 0.43952 0.0
C1128 C 0.08376 0.0106 0.36127 0.0
C1129 C 0.09751 0.99059 0.35254 0.0
C1130 C 0.09189 0.96724 0.36117 0.0
C1131 C 0.07365 0.96402 0.37947 0.0
C1132 C 0.06087 0.98429 0.38834 0.0
C1133 C 0.06548 0.00712 0.37921 0.0
C1134 C 0.05198 0.0263 0.39389 0.0
C1135 C 0.07001 0.0447 0.40362 0.0
C1136 C 0.03182 0.03881 0.379 0.0
C1137 C 0.04084 0.01092 0.41398 0.0
C1138 C 0.04548 0.98666 0.41015 0.0
C1139 C 0.04046 0.96941 0.42816 0.0
C1140 C 0.0318 0.97727 0.45102 0.0
C1141 C 0.02859 1.00215 0.45557 0.0
C1142 C 0.03166 0.0189 0.43639 0.0
H1143 H 0.24853 0.82789 0.59917 0.0
H1144 H 0.2639 0.90303 0.61083 0.0
H1145 H 0.26048 0.89618 0.6552 0.0
H1146 H 0.20477 0.82021 0.65087 0.0
H1147 H 0.21614 0.79021 0.65754 0.0
H1148 H 0.21737 0.80159 0.62677 0.0
H1149 H 0.26449 0.79249 0.62402 0.0
H1150 H 0.26333 0.78096 0.65466 0.0
H1151 H 0.28403 0.80481 0.64638 0.0
H1152 H 0.25863 0.88034 0.69817 0.0
H1153 H 0.26055 0.85639 0.73616 0.0
H1154 H 0.24613 0.79177 0.69604 0.0
C1155 C 0.25084 0.84297 0.61106 0.0
C1156 C 0.25639 0.86599 0.60163 0.0
C1157 C 0.2596 0.88524 0.61773 0.0
C1158 C 0.25756 0.88155 0.64293 0.0
C1159 C 0.25221 0.85856 0.65166 0.0
C1160 C 0.24892 0.8396 0.63619 0.0
C1161 C 0.24512 0.81629 0.65011 0.0
C1162 C 0.21931 0.80651 0.64608 0.0
C1163 C 0.26545 0.79755 0.64339 0.0
C1164 C 0.2474 0.82498 0.6758 0.0
C1165 C 0.25116 0.84945 0.67638 0.0
C1166 C 0.25537 0.86122 0.69799 0.0
C1167 C 0.25638 0.84747 0.71948 0.0
C1168 C 0.25336 0.82223 0.71909 0.0
C1169 C 0.2482 0.81106 0.69702 0.0
H1170 H 0.45973 0.00367 0.81911 0.0
H1171 H 0.47769 0.07778 0.8023 0.0
H1172 H 0.50735 0.07716 0.83531 0.0
H1173 H 0.45668 0.00896 0.87927 0.0
H1174 H 0.47012 0.98004 0.88704 0.0
H1175 H 0.45503 0.98411 0.85873 0.0
H1176 H 0.49462 0.96957 0.83523 0.0
H1177 H 0.50984 0.9651 0.86361 0.0
H1178 H 0.52347 0.98393 0.84018 0.0
H1179 H 0.52724 0.07157 0.87504 0.0
H1180 H 0.5386 0.06015 0.91682 0.0
H1181 H 0.50867 0.98948 0.90724 0.0
C1182 C 0.47064 0.01944 0.82177 0.0
C1183 C 0.46652 0.04074 0.80821 0.0
C1184 C 0.48073 0.06121 0.81244 0.0
C1185 C 0.49764 0.06101 0.83111 0.0
C1186 C 0.50038 0.04008 0.84502 0.0
C1187 C 0.48762 0.01948 0.84026 0.0
C1188 C 0.49154 1.00034 0.85959 0.0
C1189 C 0.46688 0.99296 0.87187 0.0
C1190 C 0.50572 0.97844 0.84902 0.0
C1191 C 0.5072 0.01391 0.87673 0.0
C1192 C 0.51242 0.03668 0.86787 0.0
C1193 C 0.52395 0.05356 0.88186 0.0
C1194 C 0.53011 0.04703 0.90558 0.0
C1195 C 0.52473 0.02388 0.91496 0.0
C1196 C 0.51363 0.00702 0.90015 0.0
H1197 H 0.26521 0.22801 0.10121 0.0
H1198 H 0.2882 0.15505 0.12024 0.0
H1199 H 0.29434 0.16746 0.16216 0.0
H1200 H 0.3082 0.25821 0.13959 0.0
H1201 H 0.28681 0.28187 0.1489 0.0
H1202 H 0.28384 0.26778 0.1199 0.0
H1203 H 0.23873 0.25723 0.13137 0.0
H1204 H 0.24155 0.27139 0.16035 0.0
H1205 H 0.23217 0.24056 0.15901 0.0
H1206 H 0.29803 0.18684 0.20238 0.0
H1207 H 0.29818 0.21197 0.23873 0.0
H1208 H 0.27336 0.27367 0.19623 0.0
C1209 C 0.27148 0.21466 0.11422 0.0
C1210 C 0.27618 0.19035 0.10701 0.0
C1211 C 0.28439 0.17366 0.12489 0.0
C1212 C 0.288 0.18057 0.14894 0.0
C1213 C 0.28339 0.20444 0.15542 0.0
C1214 C 0.2752 0.22132 0.13871 0.0
C1215 C 0.27155 0.24578 0.15103 0.0
C1216 C 0.28862 0.26453 0.13914 0.0
C1217 C 0.24439 0.25424 0.1504 0.0
C1218 C 0.27904 0.23991 0.17707 0.0
C1219 C 0.28575 0.21586 0.17899 0.0
C1220 C 0.2929 0.20572 0.20102 0.0
C1221 C 0.29297 0.22027 0.2217 0.0
C1222 C 0.28608 0.24504 0.22068 0.0
C1223 C 0.27917 0.25497 0.19778 0.0
H1224 H 0.18281 0.14196 0.01865 0.0
H1225 H 0.22557 0.09223 0.06269 0.0
H1226 H 0.19013 0.0652 0.06612 0.0
H1227 H 0.12323 0.13296 0.04963 0.0
H1228 H 0.106 0.13432 0.02221 0.0
H1229 H 0.13435 0.15039 0.02391 0.0
H1230 H 0.15159 0.12848 0.98563 0.0
H1231 H 0.1233 0.1123 0.98389 0.0
H1232 H 0.15237 0.09605 0.9852 0.0
H1233 H 0.14923 0.04356 0.06583 0.0
H1234 H 0.10739 0.0283 0.05975 0.0
H1235 H 0.09128 0.09004 0.01356 0.0
C1236 C 0.18464 0.12546 0.02915 0.0
C1237 C 0.20717 0.11944 0.04058 0.0
C1238 C 0.2087 0.09742 0.05381 0.0
C1239 C 0.18856 0.08188 0.05589 0.0
C1240 C 0.16675 0.08821 0.04438 0.0
C1241 C 0.16469 0.1094 0.03109 0.0
C1242 C 0.13935 0.11142 0.01984 0.0
C1243 C 0.12488 0.13359 0.02947 0.0
C1244 C 0.14181 0.1121 0.99199 0.0
C1245 C 0.12755 0.08816 0.02891 0.0
C1246 C 0.14362 0.07517 0.04327 0.0
C1247 C 0.13663 0.05353 0.05441 0.0
C1248 C 0.11274 0.04494 0.05085 0.0
C1249 C 0.09595 0.05763 0.0359 0.0
C1250 C 0.1037 0.07957 0.02475 0.0
H1251 H 0.71824 0.4566 0.03827 0.0
H1252 H 0.69027 0.3851 0.02761 0.0
H1253 H 0.6479 0.40217 0.02597 0.0
H1254 H 0.66985 0.47684 0.0775 0.0
H1255 H 0.66906 0.50721 0.06566 0.0
H1256 H 0.69738 0.48971 0.06413 0.0
H1257 H 0.70061 0.49667 0.01755 0.0
H1258 H 0.67237 0.51437 0.01896 0.0
H1259 H 0.67518 0.48886 0.99913 0.0
H1260 H 0.60869 0.4266 0.02756 0.0
H1261 H 0.575 0.45693 0.03163 0.0
H1262 H 0.62872 0.51241 0.04177 0.0
C1263 C 0.70324 0.44459 0.03524 0.0
C1264 C 0.70744 0.41958 0.03298 0.0
C1265 C 0.68737 0.40435 0.02933 0.0
C1266 C 0.66329 0.41386 0.02836 0.0
C1267 C 0.65972 0.43857 0.03106 0.0
C1268 C 0.67913 0.45375 0.03433 0.0
C1269 C 0.67021 0.47949 0.03774 0.0
C1270 C 0.67703 0.48885 0.06275 0.0
C1271 C 0.68018 0.4958 0.01711 0.0
C1272 C 0.64271 0.47636 0.03619 0.0
C1273 C 0.63706 0.45265 0.03221 0.0
C1274 C 0.61285 0.44525 0.03056 0.0
C1275 C 0.59387 0.4626 0.03297 0.0
C1276 C 0.59927 0.48701 0.03708 0.0
C1277 C 0.62402 0.4939 0.03866 0.0
H1278 H 0.83516 0.48056 0.26642 0.0
H1279 H 0.91289 0.46525 0.27671 0.0
H1280 H 0.90262 0.42678 0.29716 0.0
H1281 H 0.81152 0.45608 0.32145 0.0
H1282 H 0.78506 0.44264 0.30857 0.0
H1283 H 0.79829 0.46899 0.29452 0.0
H1284 H 0.80407 0.44669 0.25361 0.0
H1285 H 0.79025 0.42051 0.26738 0.0
H1286 H 0.8204 0.4181 0.25282 0.0
H1287 H 0.88367 0.39164 0.31909 0.0
H1288 H 0.85771 0.3578 0.33352 0.0
H1289 H 0.79304 0.39445 0.306 0.0
C1290 C 0.84995 0.46885 0.27264 0.0
C1291 C 0.87474 0.47562 0.27005 0.0
C1292 C 0.89378 0.46006 0.27833 0.0
C1293 C 0.88812 0.43838 0.29019 0.0
C1294 C 0.86341 0.43245 0.2931 0.0
C1295 C 0.84468 0.44684 0.2839 0.0
C1296 C 0.81977 0.43565 0.28828 0.0
C1297 C 0.80266 0.45181 0.30415 0.0
C1298 C 0.80793 0.42989 0.26409 0.0
C1299 C 0.8274 0.41299 0.30178 0.0
C1300 C 0.8526 0.41167 0.30476 0.0
C1301 C 0.86393 0.3924 0.31681 0.0
C1302 C 0.84915 0.37349 0.32518 0.0
C1303 C 0.82359 0.37405 0.32108 0.0
C1304 C 0.81255 0.39411 0.30961 0.0
H1305 H 0.86188 0.63931 0.54872 0.0
H1306 H 0.82054 0.59387 0.50205 0.0
H1307 H 0.85753 0.56794 0.49519 0.0
H1308 H 0.92039 0.63506 0.51485 0.0
H1309 H 0.93897 0.63374 0.54139 0.0
H1310 H 0.90944 0.64928 0.54249 0.0
H1311 H 0.89563 0.62287 0.57923 0.0
H1312 H 0.92512 0.60727 0.57824 0.0
H1313 H 0.89713 0.59057 0.57676 0.0
H1314 H 0.89894 0.54719 0.49244 0.0
H1315 H 0.94149 0.53156 0.49554 0.0
H1316 H 0.95721 0.58862 0.54545 0.0
C1317 C 0.86066 0.62393 0.53702 0.0
C1318 C 0.83813 0.61876 0.52584 0.0
C1319 C 0.8374 0.59831 0.51083 0.0
C1320 C 0.8584 0.58344 0.50678 0.0
C1321 C 0.88022 0.58897 0.51801 0.0
C1322 C 0.88155 0.6086 0.53298 0.0
C1323 C 0.90732 0.60998 0.54319 0.0
C1324 C 0.91976 0.63341 0.53499 0.0
C1325 C 0.90623 0.60752 0.57101 0.0
C1326 C 0.92022 0.58812 0.53156 0.0
C1327 C 0.90416 0.57645 0.51698 0.0
C1328 C 0.91161 0.55613 0.50391 0.0
C1329 C 0.93598 0.54739 0.50579 0.0
C1330 C 0.95296 0.55867 0.52082 0.0
C1331 C 0.94479 0.57941 0.53391 0.0
H1332 H 0.19415 0.07219 0.33761 0.0
H1333 H 0.21316 0.0546 0.26272 0.0
H1334 H 0.23841 0.09083 0.25903 0.0
H1335 H 0.18721 0.13434 0.32862 0.0
H1336 H 0.20039 0.14261 0.35685 0.0
H1337 H 0.18567 0.11412 0.35443 0.0
H1338 H 0.22553 0.09206 0.36826 0.0
H1339 H 0.2404 0.12054 0.37076 0.0
H1340 H 0.25432 0.09729 0.35202 0.0
H1341 H 0.25808 0.13044 0.26206 0.0
H1342 H 0.27211 0.17095 0.2722 0.0
H1343 H 0.2413 0.16261 0.34525 0.0
C1344 C 0.20394 0.0758 0.32057 0.0
C1345 C 0.20176 0.06066 0.30046 0.0
C1346 C 0.21463 0.066 0.27837 0.0
C1347 C 0.22907 0.08647 0.2761 0.0
C1348 C 0.23057 0.10123 0.29616 0.0
C1349 C 0.21852 0.09612 0.31802 0.0
C1350 C 0.22221 0.11564 0.33635 0.0
C1351 C 0.19739 0.12737 0.34453 0.0
C1352 C 0.23647 0.10579 0.35813 0.0
C1353 C 0.23764 0.13282 0.32112 0.0
C1354 C 0.24235 0.12407 0.29804 0.0
C1355 C 0.25483 0.13737 0.28017 0.0
C1356 C 0.26257 0.16034 0.28601 0.0
C1357 C 0.25782 0.16968 0.30949 0.0
C1358 C 0.24553 0.1556 0.32733 0.0
H1359 H 0.33937 0.919 0.5376 0.0
H1360 H 0.32439 0.89769 0.46417 0.0
H1361 H 0.35959 0.92142 0.44861 0.0
H1362 H 0.35317 0.97877 0.52315 0.0
H1363 H 0.37724 0.98115 0.54473 0.0
H1364 H 0.35261 0.96048 0.5504 0.0
H1365 H 0.38442 0.92526 0.55466 0.0
H1366 H 0.40918 0.94589 0.54921 0.0
H1367 H 0.40694 0.91973 0.53051 0.0
H1368 H 0.39465 0.94951 0.44092 0.0
H1369 H 0.42778 0.97912 0.44175 0.0
H1370 H 0.4182 0.9832 0.52012 0.0
C1371 C 0.34384 0.91892 0.51832 0.0
C1372 C 0.32936 0.90644 0.50207 0.0
C1373 C 0.33541 0.90709 0.4769 0.0
C1374 C 0.35533 0.92049 0.4679 0.0
C1375 C 0.3689 0.9331 0.48436 0.0
C1376 C 0.36349 0.93234 0.50904 0.0
C1377 C 0.37999 0.94861 0.5227 0.0
C1378 C 0.36484 0.96842 0.53602 0.0
C1379 C 0.39609 0.93399 0.5403 0.0
C1380 C 0.39528 0.95887 0.50182 0.0
C1381 C 0.38874 0.94961 0.47987 0.0
C1382 C 0.40002 0.95682 0.45801 0.0
C1383 C 0.41866 0.97383 0.45865 0.0
C1384 C 0.42569 0.9835 0.481 0.0
C1385 C 0.41365 0.9759 0.50277 0.0
H1386 H 0.87449 0.62529 0.27664 0.0
H1387 H 0.81858 0.58421 0.24213 0.0
H1388 H 0.79345 0.62151 0.23656 0.0
H1389 H 0.83369 0.66669 0.30826 0.0
H1390 H 0.85383 0.69175 0.30337 0.0
H1391 H 0.86658 0.66164 0.3051 0.0
H1392 H 0.8884 0.66794 0.263 0.0
H1393 H 0.87531 0.69793 0.26096 0.0
H1394 H 0.87033 0.67666 0.23731 0.0
H1395 H 0.77426 0.66316 0.23588 0.0
H1396 H 0.76201 0.70598 0.24082 0.0
H1397 H 0.83218 0.71949 0.27317 0.0
C1398 C 0.85681 0.62408 0.26818 0.0
C1399 C 0.84826 0.60196 0.26 0.0
C1400 C 0.82528 0.60107 0.24864 0.0
C1401 C 0.811 0.62211 0.24531 0.0
C1402 C 0.82024 0.64376 0.25317 0.0
C1403 C 0.8426 0.64485 0.26437 0.0
C1404 C 0.84857 0.6703 0.27092 0.0
C1405 C 0.85078 0.67273 0.29855 0.0
C1406 C 0.87204 0.67869 0.25722 0.0
C1407 C 0.82591 0.68338 0.26192 0.0
C1408 C 0.80974 0.6678 0.25176 0.0
C1409 C 0.78687 0.67559 0.24353 0.0
C1410 C 0.78012 0.69988 0.24635 0.0
C1411 C 0.79633 0.71596 0.25706 0.0
C1412 C 0.81969 0.70768 0.26439 0.0
H1413 H 0.67292 0.42474 0.80533 0.0
H1414 H 0.72699 0.46825 0.83953 0.0
H1415 H 0.75689 0.43393 0.83798 0.0
H1416 H 0.69195 0.36525 0.83177 0.0
H1417 H 0.68651 0.35032 0.80368 0.0
H1418 H 0.6682 0.37649 0.81219 0.0
H1419 H 0.68049 0.3969 0.77113 0.0
H1420 H 0.69927 0.37111 0.76272 0.0
H1421 H 0.7127 0.40045 0.7631 0.0
H1422 H 0.78202 0.39575 0.82894 0.0
H1423 H 0.80004 0.35756 0.81267 0.0
H1424 H 0.72992 0.34185 0.78139 0.0
C1425 C 0.69074 0.4268 0.8133 0.0
C1426 C 0.69763 0.44895 0.82281 0.0
C1427 C 0.72135 0.45125 0.83239 0.0
C1428 C 0.73841 0.43189 0.83158 0.0
C1429 C 0.73137 0.41054 0.82105 0.0
C1430 C 0.70801 0.40791 0.8122 0.0
C1431 C 0.70576 0.38438 0.7992 0.0
C1432 C 0.687 0.36815 0.81251 0.0
C1433 C 0.69918 0.38848 0.77246 0.0
C1434 C 0.73171 0.37451 0.80138 0.0
C1435 C 0.74614 0.38947 0.8145 0.0
C1436 C 0.77087 0.38389 0.81867 0.0
C1437 C 0.78098 0.36233 0.80928 0.0
C1438 C 0.76646 0.34716 0.7954 0.0
C1439 C 0.74159 0.3534 0.79149 0.0
H1440 H 0.01826 0.85386 0.97817 0.0
H1441 H 0.03696 0.87387 0.90357 0.0
H1442 H 0.04237 0.91567 0.91592 0.0
H1443 H 0.98379 0.90965 0.9927 0.0
H1444 H 0.99446 0.91136 0.02325 0.0
H1445 H 0.99215 0.88252 0.00904 0.0
H1446 H 0.03806 0.87323 0.01731 0.0
H1447 H 0.04052 0.9021 0.03144 0.0
H1448 H 0.06118 0.8939 0.00651 0.0
H1449 H 0.04607 0.95568 0.93555 0.0
H1450 H 0.04615 0.99167 0.96092 0.0
H1451 H 0.02477 0.94854 0.02404 0.0
C1452 C 0.02346 0.86705 0.96444 0.0
C1453 C 0.02716 0.86012 0.93968 0.0
C1454 C 0.03393 0.87827 0.92253 0.0
C1455 C 0.03713 0.90226 0.92941 0.0
C1456 C 0.03349 0.90846 0.95372 0.0
C1457 C 0.02666 0.89151 0.97106 0.0
C1458 C 0.02362 0.90357 0.99591 0.0
C1459 C 0.99691 0.90165 0.00581 0.0
C1460 C 0.04193 0.89254 0.01386 0.0
C1461 C 0.02984 0.92978 0.98974 0.0
C1462 C 0.03553 0.93196 0.96521 0.0
C1463 C 0.04166 0.95411 0.95478 0.0
C1464 C 0.0417 0.97461 0.96951 0.0
C1465 C 0.03568 0.97338 0.99476 0.0
C1466 C 0.02981 0.95035 0.00496 0.0
H1467 H 0.96206 0.28585 0.69848 0.0
H1468 H 0.93312 0.30555 0.62822 0.0
H1469 H 0.89182 0.31183 0.64705 0.0
H1470 H 0.91032 0.25239 0.71879 0.0
H1471 H 0.91128 0.26166 0.74995 0.0
H1472 H 0.93917 0.26059 0.7314 0.0
H1473 H 0.9467 0.30533 0.74088 0.0
H1474 H 0.9187 0.30655 0.75936 0.0
H1475 H 0.92308 0.3277 0.73462 0.0
H1476 H 0.85366 0.31398 0.67235 0.0
H1477 H 0.81978 0.30975 0.70275 0.0
H1478 H 0.87266 0.2883 0.75698 0.0
C1479 C 0.94703 0.29168 0.68718 0.0
C1480 C 0.95073 0.29524 0.66194 0.0
C1481 C 0.93065 0.30264 0.64761 0.0
C1482 C 0.90715 0.30642 0.65813 0.0
C1483 C 0.90404 0.3027 0.68301 0.0
C1484 C 0.92331 0.29538 0.69739 0.0
C1485 C 0.91443 0.29122 0.72341 0.0
C1486 C 0.91907 0.2649 0.73134 0.0
C1487 C 0.92644 0.30875 0.74058 0.0
C1488 C 0.88714 0.29691 0.72119 0.0
C1489 C 0.88168 0.30378 0.69777 0.0
C1490 C 0.85766 0.30885 0.69084 0.0
C1491 C 0.83856 0.30638 0.70824 0.0
C1492 C 0.84361 0.29879 0.73223 0.0
C1493 C 0.86828 0.29444 0.73886 0.0
H1494 H 0.54138 0.21885 0.47022 0.0
H1495 H 0.4893 0.20919 0.41313 0.0
H1496 H 0.48287 0.16764 0.42704 0.0
H1497 H 0.56879 0.15828 0.4667 0.0
H1498 H 0.5724 0.15458 0.49893 0.0
H1499 H 0.57293 0.18422 0.4853 0.0
H1500 H 0.53762 0.19823 0.51478 0.0
H1501 H 0.53699 0.16862 0.5285 0.0
H1502 H 0.50928 0.18188 0.5164 0.0
H1503 H 0.48126 0.1273 0.44637 0.0
H1504 H 0.48535 0.08957 0.46941 0.0
H1505 H 0.53941 0.12187 0.51473 0.0
C1506 C 0.52855 0.20799 0.46076 0.0
C1507 C 0.51578 0.21769 0.44044 0.0
C1508 C 0.49936 0.20256 0.4286 0.0
C1509 C 0.49551 0.17876 0.43643 0.0
C1510 C 0.50829 0.16976 0.45623 0.0
C1511 C 0.52459 0.18372 0.46829 0.0
C1512 C 0.53616 0.16885 0.48882 0.0
C1513 C 0.56424 0.16634 0.48469 0.0
C1514 C 0.52962 0.18007 0.5136 0.0
C1515 C 0.52376 0.14453 0.48631 0.0
C1516 C 0.50769 0.14578 0.46736 0.0
C1517 C 0.49381 0.12612 0.46123 0.0
C1518 C 0.4963 0.1046 0.47461 0.0
C1519 C 0.51269 0.10228 0.49415 0.0
C1520 C 0.52669 0.12277 0.5 0.0
H1521 H 0.57323 0.76496 0.18443 0.0
H1522 H 0.56705 0.84267 0.19006 0.0
H1523 H 0.59828 0.84148 0.22194 0.0
H1524 H 0.5813 0.75197 0.24831 0.0
H1525 H 0.60314 0.72765 0.24245 0.0
H1526 H 0.57952 0.73464 0.22104 0.0
H1527 H 0.61285 0.73966 0.18666 0.0
H1528 H 0.63649 0.73238 0.20786 0.0
H1529 H 0.63763 0.76015 0.19067 0.0
H1530 H 0.63144 0.83165 0.25171 0.0
H1531 H 0.6658 0.81438 0.2752 0.0
H1532 H 0.64944 0.74322 0.2498 0.0
C1533 C 0.57835 0.78176 0.19241 0.0
C1534 C 0.56781 0.80393 0.18487 0.0
C1535 C 0.57502 0.82551 0.19563 0.0
C1536 C 0.59257 0.82498 0.21381 0.0
C1537 C 0.60246 0.80272 0.22096 0.0
C1538 C 0.59567 0.78153 0.2105 0.0
C1539 C 0.6098 0.76006 0.22046 0.0
C1540 C 0.59239 0.74255 0.23386 0.0
C1541 C 0.6251 0.74733 0.20021 0.0
C1542 C 0.62604 0.77249 0.23789 0.0
C1543 C 0.62138 0.79705 0.23813 0.0
C1544 C 0.63511 0.81244 0.25182 0.0
C1545 C 0.65457 0.8025 0.26502 0.0
C1546 C 0.66013 0.77749 0.26432 0.0
C1547 C 0.64523 0.76229 0.25109 0.0
H1548 H 0.05467 0.23705 0.56309 0.0
H1549 H 0.97673 0.23149 0.58157 0.0
H1550 H 0.97335 0.19922 0.55161 0.0
H1551 H 0.05214 0.22026 0.4973 0.0
H1552 H 0.08034 0.20258 0.49868 0.0
H1553 H 0.07582 0.22864 0.51759 0.0
H1554 H 0.08402 0.20243 0.55586 0.0
H1555 H 0.08877 0.17647 0.53709 0.0
H1556 H 0.06599 0.176 0.56161 0.0
H1557 H 0.97904 0.16497 0.52426 0.0
H1558 H 0.99436 0.12747 0.50511 0.0
H1559 H 0.06907 0.15315 0.50534 0.0
C1560 C 0.03681 0.22942 0.56023 0.0
C1561 C 0.01586 0.2368 0.57425 0.0
C1562 C 0.99292 0.22602 0.57082 0.0
C1563 C 0.99079 0.20791 0.55369 0.0
C1564 C 0.01185 0.2007 0.54033 0.0
C1565 C 0.03451 0.2109 0.54356 0.0
C1566 C 0.0549 0.19729 0.52978 0.0
C1567 C 0.06648 0.21314 0.50964 0.0
C1568 C 0.07456 0.18746 0.54712 0.0
C1569 C 0.04032 0.17723 0.51921 0.0
C1570 C 0.0154 0.18005 0.52493 0.0
C1571 C 0.99841 0.16277 0.51927 0.0
C1572 C 0.00724 0.14156 0.50845 0.0
C1573 C 0.03279 0.1377 0.50367 0.0
C1574 C 0.04941 0.1561 0.50823 0.0
H1575 H 0.61516 0.2996 0.39396 0.0
H1576 H 0.57353 0.26394 0.33948 0.0
H1577 H 0.61132 0.25895 0.31403 0.0
H1578 H 0.65517 0.33207 0.35113 0.0
H1579 H 0.68234 0.32887 0.369 0.0
H1580 H 0.65219 0.32945 0.38372 0.0
H1581 H 0.66196 0.28856 0.40463 0.0
H1582 H 0.69215 0.28788 0.38998 0.0
H1583 H 0.67167 0.26319 0.38636 0.0
H1584 H 0.65295 0.25689 0.29444 0.0
H1585 H 0.69623 0.259 0.2807 0.0
H1586 H 0.71324 0.29736 0.34605 0.0
C1587 C 0.61407 0.29069 0.3767 0.0
C1588 C 0.59113 0.28209 0.36884 0.0
C1589 C 0.59063 0.2707 0.34602 0.0
C1590 C 0.6121 0.26774 0.33138 0.0
C1591 C 0.63425 0.27639 0.33952 0.0
C1592 C 0.63553 0.28776 0.36155 0.0
C1593 C 0.66195 0.29564 0.36545 0.0
C1594 C 0.66296 0.32315 0.36744 0.0
C1595 C 0.67256 0.28307 0.38795 0.0
C1596 C 0.67518 0.28689 0.34219 0.0
C1597 C 0.65865 0.27572 0.3277 0.0
C1598 C 0.66603 0.26567 0.3056 0.0
C1599 C 0.69086 0.26695 0.29796 0.0
C1600 C 0.7085 0.27839 0.31213 0.0
C1601 C 0.70037 0.28863 0.33463 0.0
H1602 H 0.51076 0.86396 0.07286 0.0
H1603 H 0.47074 0.88038 0.14026 0.0
H1604 H 0.46348 0.92202 0.12583 0.0
H1605 H 0.54243 0.91631 0.06857 0.0
H1606 H 0.54144 0.91987 0.03607 0.0
H1607 H 0.53971 0.89037 0.04962 0.0
H1608 H 0.49854 0.88347 0.02839 0.0
H1609 H 0.50019 0.91303 0.01467 0.0
H1610 H 0.47325 0.90476 0.03258 0.0
H1611 H 0.46648 0.96259 0.10758 0.0
H1612 H 0.47888 0.99977 0.08609 0.0
H1613 H 0.51594 0.95732 0.0298 0.0
C1614 C 0.49989 0.87617 0.08427 0.0
C1615 C 0.49124 0.86904 0.10761 0.0
C1616 C 0.47748 0.88554 0.12227 0.0
C1617 C 0.47314 0.90916 0.11419 0.0
C1618 C 0.48249 0.91585 0.09133 0.0
C1619 C 0.4954 0.89982 0.07646 0.0
C1620 C 0.50565 0.91222 0.05383 0.0
C1621 C 0.53398 0.90953 0.05194 0.0
C1622 C 0.49368 0.90281 0.03102 0.0
C1623 C 0.4975 0.93791 0.0589 0.0
C1624 C 0.48386 0.93952 0.08046 0.0
C1625 C 0.47658 0.96156 0.09036 0.0
C1626 C 0.4838 0.98255 0.07811 0.0
C1627 C 0.49807 0.98127 0.05622 0.0
C1628 C 0.50447 0.9587 0.04619 0.0
H1629 H 0.958 0.80464 0.84846 0.0
H1630 H 0.93987 0.75913 0.9107 0.0
H1631 H 0.89948 0.75102 0.89359 0.0
H1632 H 0.89565 0.83094 0.84354 0.0
H1633 H 0.89681 0.83233 0.81084 0.0
H1634 H 0.92482 0.8342 0.82737 0.0
H1635 H 0.9436 0.79828 0.80323 0.0
H1636 H 0.91558 0.79622 0.78673 0.0
H1637 H 0.92739 0.77033 0.80301 0.0
H1638 H 0.86129 0.74635 0.86932 0.0
H1639 H 0.8263 0.7488 0.84203 0.0
H1640 H 0.86604 0.79956 0.79579 0.0
C1641 C 0.94551 0.79297 0.85848 0.0
C1642 C 0.95247 0.78243 0.88108 0.0
C1643 C 0.93526 0.76749 0.89352 0.0
C1644 C 0.91218 0.76268 0.88384 0.0
C1645 C 0.90594 0.77316 0.86164 0.0
C1646 C 0.9219 0.78833 0.84923 0.0
C1647 C 0.90988 0.79799 0.82616 0.0
C1648 C 0.9066 0.8255 0.82703 0.0
C1649 C 0.92502 0.79024 0.80343 0.0
C1650 C 0.88488 0.7857 0.82749 0.0
C1651 C 0.88327 0.77127 0.84805 0.0
C1652 C 0.86237 0.75772 0.85325 0.0
C1653 C 0.84249 0.75916 0.83743 0.0
C1654 C 0.84304 0.77428 0.81645 0.0
C1655 C 0.86481 0.78769 0.81149 0.0
H1656 H 0.96398 0.09245 0.8166 0.0
H1657 H 0.98794 0.0199 0.79762 0.0
H1658 H 0.01235 0.01721 0.83456 0.0
H1659 H 0.02265 0.10985 0.84599 0.0
H1660 H 0.0057 0.12677 0.86894 0.0
H1661 H 0.99378 0.1246 0.8389 0.0
H1662 H 0.9529 0.10813 0.85737 0.0
H1663 H 0.96469 0.11003 0.88734 0.0
H1664 H 0.95381 0.08176 0.87674 0.0
H1665 H 0.02771 0.01961 0.87623 0.0
H1666 H 0.03512 0.02803 0.91928 0.0
H1667 H 1.00221 0.09925 0.91074 0.0
C1668 C 0.97494 0.07628 0.81989 0.0
C1669 C 0.97415 0.0564 0.80439 0.0
C1670 C 0.9884 0.03537 0.80933 0.0
C1671 C 1.00239 0.0337 0.83018 0.0
C1672 C 1.00214 0.05335 0.84558 0.0
C1673 C 0.98907 0.07438 0.84053 0.0
C1674 C 0.9899 0.09194 0.86117 0.0
C1675 C 1.00385 0.11463 0.85327 0.0
C1676 C 0.96378 0.09831 0.87124 0.0
C1677 C 1.00437 0.077 0.87908 0.0
C1678 C 0.01152 0.05491 0.86964 0.0
C1679 C 0.02279 0.03705 0.88366 0.0
C1680 C 0.0267 0.04187 0.90806 0.0
C1681 C 0.01935 0.06432 0.91802 0.0
C1682 C 0.0085 0.0822 0.90325 0.0
H1683 H 0.79877 0.19383 0.59283 0.0
H1684 H 0.75259 0.23172 0.54136 0.0
H1685 H 0.73729 0.25904 0.57403 0.0
H1686 H 0.75563 0.19434 0.64142 0.0
H1687 H 0.77819 0.19814 0.6643 0.0
H1688 H 0.78685 0.18327 0.63642 0.0
H1689 H 0.82188 0.21368 0.62845 0.0
H1690 H 0.81342 0.22848 0.65646 0.0
H1691 H 0.81463 0.24549 0.6284 0.0
H1692 H 0.72567 0.28089 0.61382 0.0
H1693 H 0.72028 0.29566 0.65605 0.0
H1694 H 0.77279 0.241 0.67989 0.0
C1695 C 0.78576 0.20812 0.58825 0.0
C1696 C 0.77695 0.2108 0.5646 0.0
C1697 C 0.75969 0.22952 0.55942 0.0
C1698 C 0.75086 0.24504 0.57784 0.0
C1699 C 0.75953 0.24147 0.60121 0.0
C1700 C 0.7767 0.2235 0.60632 0.0
C1701 C 0.78242 0.22247 0.63289 0.0
C1702 C 0.77534 0.19812 0.64442 0.0
C1703 C 0.8097 0.22786 0.63677 0.0
C1704 C 0.76567 0.24257 0.64208 0.0
C1705 C 0.75264 0.25351 0.62369 0.0
C1706 C 0.7359 0.27248 0.62832 0.0
C1707 C 0.7328 0.28064 0.65232 0.0
C1708 C 0.74636 0.26973 0.67123 0.0
C1709 C 0.76263 0.25024 0.66586 0.0
H1710 H 0.59002 0.01949 0.35505 0.0
H1711 H 0.66537 0.02806 0.37718 0.0
H1712 H 0.65115 0.02648 0.42027 0.0
H1713 H 0.56088 0.05555 0.40144 0.0
H1714 H 0.5346 0.0364 0.40486 0.0
H1715 H 0.55107 0.03843 0.37608 0.0
H1716 H 0.55762 0.99204 0.37644 0.0
H1717 H 0.54151 0.98993 0.40544 0.0
H1718 H 0.5724 0.97758 0.40177 0.0
H1719 H 0.62837 0.02434 0.46074 0.0
H1720 H 0.59849 0.02411 0.4955 0.0
H1721 H 0.53869 0.01565 0.44598 0.0
C1722 C 0.60353 0.02121 0.36894 0.0
C1723 C 0.62873 0.02397 0.36293 0.0
C1724 C 0.64592 0.02603 0.38154 0.0
C1725 C 0.63805 0.02502 0.40599 0.0
C1726 C 0.61306 0.02181 0.41129 0.0
C1727 C 0.59607 0.02008 0.39328 0.0
C1728 C 0.57025 0.01698 0.40364 0.0
C1729 C 0.55321 0.0381 0.39606 0.0
C1730 C 0.55985 0.99269 0.39639 0.0
C1731 C 0.57529 0.01747 0.43036 0.0
C1732 C 0.60008 0.02016 0.43447 0.0
C1733 C 0.60894 0.02208 0.45777 0.0
C1734 C 0.59186 0.02186 0.47736 0.0
C1735 C 0.56633 0.01976 0.47337 0.0
C1736 C 0.55812 0.01699 0.44961 0.0
H1737 H 0.80508 0.87183 0.11176 0.0
H1738 H 0.73398 0.8514 0.08575 0.0
H1739 H 0.72559 0.82927 0.12408 0.0
H1740 H 0.81863 0.81503 0.14387 0.0
H1741 H 0.83303 0.8292 0.16882 0.0
H1742 H 0.83387 0.84326 0.13917 0.0
H1743 H 0.81413 0.88207 0.15735 0.0
H1744 H 0.81316 0.86809 0.18703 0.0
H1745 H 0.78529 0.88044 0.1744 0.0
H1746 H 0.72391 0.81004 0.16624 0.0
H1747 H 0.72984 0.79419 0.20774 0.0
H1748 H 0.80231 0.82567 0.20758 0.0
C1749 C 0.78783 0.86252 0.11403 0.0
C1750 C 0.77024 0.86346 0.09531 0.0
C1751 C 0.74787 0.85107 0.09944 0.0
C1752 C 0.74288 0.8384 0.12132 0.0
C1753 C 0.76038 0.83798 0.13937 0.0
C1754 C 0.78252 0.84959 0.13596 0.0
C1755 C 0.79806 0.84626 0.15851 0.0
C1756 C 0.82234 0.83263 0.15221 0.0
C1757 C 0.80295 0.87067 0.17 0.0
C1758 C 0.78122 0.83107 0.17506 0.0
C1759 C 0.75954 0.82661 0.16361 0.0
C1760 C 0.74091 0.81337 0.17525 0.0
C1761 C 0.74446 0.80441 0.199 0.0
C1762 C 0.76657 0.80841 0.2113 0.0
C1763 C 0.78518 0.82204 0.1989 0.0
H1764 H 0.98636 0.02765 0.69335 0.0
H1765 H 0.97326 0.10483 0.69196 0.0
H1766 H 1.00403 0.10873 0.65812 0.0
H1767 H 0.05439 0.02873 0.67313 0.0
H1768 H 0.0508 1.00204 0.65549 0.0
H1769 H 0.03296 0.00616 0.68335 0.0
H1770 H 0.99256 1.00056 0.66027 0.0
H1771 H 0.01022 0.99622 0.63263 0.0
H1772 H 0.98646 0.01941 0.63417 0.0
H1773 H 0.02814 0.10309 0.61957 0.0
H1774 H 0.04108 0.08837 0.57904 0.0
H1775 H 0.03984 0.01497 0.60648 0.0
C1776 C 0.99048 0.04544 0.68633 0.0
C1777 C 0.97749 0.06592 0.69499 0.0
C1778 C 0.98315 0.08893 0.68545 0.0
C1779 C 1.00075 0.09131 0.66644 0.0
C1780 C 0.01278 0.07057 0.65773 0.0
C1781 C 0.00802 0.04807 0.66759 0.0
C1782 C 0.02026 0.02823 0.65285 0.0
C1783 C 0.04083 0.01555 0.66706 0.0
C1784 C 1.00124 0.01008 0.64448 0.0
C1785 C 0.03082 0.04287 0.63193 0.0
C1786 C 0.02712 0.06732 0.63542 0.0
C1787 C 0.03185 0.08409 0.61691 0.0
C1788 C 0.0392 0.07557 0.59393 0.0
C1789 C 0.04131 0.05053 0.58978 0.0
C1790 C 0.03855 0.03421 0.60933 0.0
H1791 H 0.77066 0.17117 0.43187 0.0
H1792 H 0.84436 0.19 0.45218 0.0
H1793 H 0.85262 0.20631 0.41103 0.0
H1794 H 0.78726 0.15568 0.36728 0.0
H1795 H 0.75879 0.16857 0.35649 0.0
H1796 H 0.75971 0.15519 0.38644 0.0
H1797 H 0.74236 0.19493 0.40506 0.0
H1798 H 0.74127 0.2083 0.37525 0.0
H1799 H 0.75808 0.22261 0.39855 0.0
H1800 H 0.85073 0.2261 0.3709 0.0
H1801 H 0.83877 0.24789 0.33359 0.0
H1802 H 0.76735 0.21457 0.33759 0.0
C1803 C 0.78869 0.17829 0.42746 0.0
C1804 C 0.80689 0.17935 0.44514 0.0
C1805 C 0.83017 0.18901 0.43887 0.0
C1806 C 0.83509 0.19818 0.41551 0.0
C1807 C 0.81666 0.19721 0.39857 0.0
C1808 C 0.79397 0.18737 0.40413 0.0
C1809 C 0.77666 0.1905 0.38322 0.0
C1810 C 0.77024 0.16602 0.37274 0.0
C1811 C 0.75323 0.20495 0.39099 0.0
C1812 C 0.79279 0.20465 0.36554 0.0
C1813 C 0.81591 0.20805 0.37467 0.0
C1814 C 0.83302 0.223 0.36315 0.0
C1815 C 0.82611 0.23528 0.34206 0.0
C1816 C 0.80248 0.23226 0.33265 0.0
C1817 C 0.78586 0.21631 0.34408 0.0
H1818 H 0.5976 0.05945 0.23978 0.0
H1819 H 0.58863 0.98214 0.24127 0.0
H1820 H 0.55795 0.98617 0.20916 0.0
H1821 H 0.53281 0.07721 0.22388 0.0
H1822 H 0.54348 0.10101 0.20396 0.0
H1823 H 0.56062 0.09271 0.2304 0.0
H1824 H 0.59997 0.0857 0.20326 0.0
H1825 H 0.58303 0.094 0.17685 0.0
H1826 H 0.59904 0.06526 0.17819 0.0
H1827 H 0.53301 0.99775 0.17387 0.0
H1828 H 0.51816 0.01541 0.13562 0.0
H1829 H 0.54478 0.08502 0.15584 0.0
C1830 C 0.58859 0.04347 0.23383 0.0
C1831 C 0.59515 0.02052 0.24306 0.0
C1832 C 0.58366 0.99988 0.23443 0.0
C1833 C 0.5661 1.00204 0.21639 0.0
C1834 C 0.56039 0.02494 0.20726 0.0
C1835 C 0.57136 0.0453 0.21563 0.0
C1836 C 0.5648 0.06728 0.20049 0.0
C1837 C 0.54951 0.08563 0.21559 0.0
C1838 C 0.58809 0.07871 0.18902 0.0
C1839 C 0.54935 0.05592 0.18159 0.0
C1840 C 0.54648 0.03161 0.18623 0.0
C1841 C 0.53481 0.01682 0.17022 0.0
C1842 C 0.52662 0.02695 0.14849 0.0
C1843 C 0.53047 0.05153 0.14285 0.0
C1844 C 0.54118 0.06633 0.15999 0.0
H1845 H 0.77253 0.84327 0.96619 0.0
H1846 H 0.7757 0.91824 0.94365 0.0
H1847 H 0.77333 0.9064 0.90097 0.0
H1848 H 0.80901 0.81904 0.91479 0.0
H1849 H 0.79078 0.7926 0.91191 0.0
H1850 H 0.79302 0.80658 0.94105 0.0
H1851 H 0.74544 0.81046 0.94464 0.0
H1852 H 0.74309 0.79657 0.91546 0.0
H1853 H 0.72886 0.82569 0.9209 0.0
H1854 H 0.77155 0.88689 0.86004 0.0
H1855 H 0.76974 0.86106 0.82413 0.0
H1856 H 0.76595 0.79799 0.87115 0.0
C1857 C 0.7728 0.85718 0.95226 0.0
C1858 C 0.77439 0.88188 0.95869 0.0
C1859 C 0.77451 0.8993 0.93962 0.0
C1860 C 0.77316 0.89272 0.91512 0.0
C1861 C 0.7715 0.86846 0.9094 0.0
C1862 C 0.77124 0.85087 0.92737 0.0
C1863 C 0.76908 0.82609 0.91588 0.0
C1864 C 0.79182 0.81013 0.92123 0.0
C1865 C 0.74519 0.81398 0.92475 0.0
C1866 C 0.76822 0.83256 0.88881 0.0
C1867 C 0.76978 0.85717 0.88561 0.0
C1868 C 0.77013 0.86762 0.86242 0.0
C1869 C 0.76904 0.85272 0.84199 0.0
C1870 C 0.76732 0.82737 0.84445 0.0
C1871 C 0.76676 0.81728 0.86842 0.0
H1872 H 0.85023 0.95679 0.06234 0.0
H1873 H 0.84553 0.943 0.98544 0.0
H1874 H 0.88292 0.96672 0.97724 0.0
H1875 H 0.87456 0.01729 0.0579 0.0
H1876 H 0.89583 0.01302 0.08213 0.0
H1877 H 0.8678 0.99622 0.08222 0.0
H1878 H 0.89314 0.95636 0.08497 0.0
H1879 H 0.92122 0.97305 0.08504 0.0
H1880 H 0.9174 0.95021 0.06265 0.0
H1881 H 0.92016 0.99341 0.97688 0.0
H1882 H 0.95763 0.01595 0.98463 0.0
H1883 H 0.94238 0.0096 0.06217 0.0
C1884 C 0.85703 0.95892 0.04378 0.0
C1885 C 0.84456 0.94816 0.02445 0.0
C1886 C 0.85452 0.95102 1.00053 0.0
C1887 C 0.87578 0.9646 0.99568 0.0
C1888 C 0.8876 0.97497 0.01498 0.0
C1889 C 0.87892 0.9719 0.03864 0.0
C1890 C 0.89633 0.98364 0.05607 0.0
C1891 C 0.88282 0.00374 0.07043 0.0
C1892 C 0.9077 0.96468 0.0732 0.0
C1893 C 0.91591 0.99395 0.03852 0.0
C1894 C 0.91015 0.98904 0.01488 0.0
C1895 C 0.92487 0.99716 0.99535 0.0
C1896 C 0.94618 0.01019 0.99997 0.0
C1897 C 0.95326 0.01483 0.02401 0.0
C1898 C 0.93766 0.00653 0.04355 0.0
H1899 H 0.36771 0.60966 0.04063 0.0
H1900 H 0.394 0.68265 0.03425 0.0
H1901 H 0.43669 0.66757 0.0402 0.0
H1902 H 0.41227 0.58714 0.08551 0.0
H1903 H 0.41524 0.55819 0.07125 0.0
H1904 H 0.38659 0.57515 0.06998 0.0
H1905 H 0.38849 0.57267 0.02301 0.0
H1906 H 0.41718 0.5559 0.02411 0.0
H1907 H 0.41534 0.58334 0.00642 0.0
H1908 H 0.47665 0.64409 0.04352 0.0
H1909 H 0.51093 0.61408 0.04291 0.0
H1910 H 0.45805 0.55653 0.04538 0.0
C1911 C 0.38237 0.62254 0.04108 0.0
C1912 C 0.37765 0.64731 0.0372 0.0
C1913 C 0.39732 0.66359 0.03733 0.0
C1914 C 0.42155 0.6552 0.04076 0.0
C1915 C 0.42567 0.63054 0.04396 0.0
C1916 C 0.4066 0.61446 0.04419 0.0
C1917 C 0.41605 0.58872 0.04577 0.0
C1918 C 0.407 0.57659 0.06955 0.0
C1919 C 0.40884 0.57432 0.0235 0.0
C1920 C 0.44347 0.59278 0.04575 0.0
C1921 C 0.44867 0.617 0.04511 0.0
C1922 C 0.4728 0.62508 0.04421 0.0
C1923 C 0.49212 0.6079 0.04379 0.0
C1924 C 0.4871 0.58298 0.04394 0.0
C1925 C 0.46246 0.57544 0.04517 0.0
H1926 H 0.1886 0.57886 0.73565 0.0
H1927 H 0.22173 0.56129 0.80437 0.0
H1928 H 0.2514 0.59385 0.79757 0.0
H1929 H 0.24647 0.60079 0.70243 0.0
H1930 H 0.22934 0.62471 0.68776 0.0
H1931 H 0.21476 0.59656 0.69495 0.0
H1932 H 0.17991 0.61941 0.71895 0.0
H1933 H 0.19436 0.64751 0.71196 0.0
H1934 H 0.18782 0.63906 0.74314 0.0
H1935 H 0.27212 0.63149 0.78731 0.0
H1936 H 0.28155 0.67316 0.77512 0.0
H1937 H 0.23452 0.66781 0.71348 0.0
C1938 C 0.20274 0.58136 0.74877 0.0
C1939 C 0.20322 0.56753 0.77037 0.0
C1940 C 0.22128 0.57171 0.78764 0.0
C1941 C 0.23829 0.59 0.78383 0.0
C1942 C 0.23688 0.60391 0.7627 0.0
C1943 C 0.21959 0.59984 0.7454 0.0
C1944 C 0.21947 0.61964 0.72625 0.0
C1945 C 0.22803 0.60984 0.70137 0.0
C1946 C 0.19388 0.63214 0.72503 0.0
C1947 C 0.23839 0.63613 0.73625 0.0
C1948 C 0.24866 0.62634 0.75692 0.0
C1949 C 0.26463 0.63914 0.77089 0.0
C1950 C 0.26973 0.6628 0.76396 0.0
C1951 C 0.25873 0.67346 0.74339 0.0
C1952 C 0.24352 0.65974 0.72894 0.0
H1953 H 0.2101 0.4706 0.54753 0.0
H1954 H 0.19266 0.40258 0.51499 0.0
H1955 H 0.14953 0.4161 0.51162 0.0
H1956 H 0.1513 0.47767 0.58237 0.0
H1957 H 0.14883 0.50976 0.57762 0.0
H1958 H 0.17879 0.49506 0.57817 0.0
H1959 H 0.18974 0.51303 0.53578 0.0
H1960 H 0.15983 0.52778 0.53511 0.0
H1961 H 0.16975 0.50794 0.51093 0.0
H1962 H 0.1089 0.4364 0.51006 0.0
H1963 H 0.07187 0.4624 0.51103 0.0
H1964 H 0.11235 0.51843 0.5455 0.0
C1965 C 0.19714 0.45856 0.53982 0.0
C1966 C 0.20506 0.43537 0.53152 0.0
C1967 C 0.18736 0.42031 0.52152 0.0
C1968 C 0.16267 0.42785 0.5195 0.0
C1969 C 0.15548 0.45062 0.52767 0.0
C1970 C 0.17201 0.46584 0.53774 0.0
C1971 C 0.15885 0.48951 0.54485 0.0
C1972 C 0.15949 0.49322 0.57239 0.0
C1973 C 0.17022 0.51083 0.53083 0.0
C1974 C 0.13255 0.48516 0.53692 0.0
C1975 C 0.13132 0.46251 0.52707 0.0
C1976 C 0.10961 0.45414 0.51781 0.0
C1977 C 0.08857 0.46922 0.51839 0.0
C1978 C 0.08889 0.49265 0.52827 0.0
C1979 C 0.1113 0.50062 0.53795 0.0
H1980 H 0.87208 0.99054 0.72409 0.0
H1981 H 0.90309 0.9858 0.79567 0.0
H1982 H 0.88583 0.94541 0.80162 0.0
H1983 H 0.81503 0.96119 0.74115 0.0
H1984 H 0.81313 0.94604 0.71259 0.0
H1985 H 0.82822 0.97449 0.71385 0.0
H1986 H 0.86774 0.95521 0.69395 0.0
H1987 H 0.85283 0.92666 0.69282 0.0
H1988 H 0.88171 0.92894 0.70783 0.0
H1989 H 0.86738 0.90521 0.79895 0.0
H1990 H 0.8451 0.86883 0.78995 0.0
H1991 H 0.8231 0.90081 0.72123 0.0
C1992 C 0.87516 0.98096 0.741 0.0
C1993 C 0.88895 0.99108 0.75939 0.0
C1994 C 0.89249 0.97827 0.7814 0.0
C1995 C 0.88288 0.95533 0.7849 0.0
C1996 C 0.86955 0.94573 0.76633 0.0
C1997 C 0.86534 0.95821 0.74496 0.0
C1998 C 0.84973 0.94399 0.72827 0.0
C1999 C 0.82506 0.95721 0.72371 0.0
C2000 C 0.86386 0.93837 0.7043 0.0
C2001 C 0.84605 0.92148 0.74355 0.0
C2002 C 0.85784 0.92282 0.76529 0.0
C2003 C 0.8577 0.90405 0.78216 0.0
C2004 C 0.84476 0.88344 0.77685 0.0
C2005 C 0.83174 0.88186 0.75499 0.0
C2006 C 0.83271 0.90119 0.73809 0.0
H2007 H 0.71771 0.13306 0.5592 0.0
H2008 H 0.74149 0.08807 0.4987 0.0
H2009 H 0.70568 0.06215 0.50662 0.0
H2010 H 0.69285 0.08473 0.59862 0.0
H2011 H 0.66722 0.10322 0.60953 0.0
H2012 H 0.69607 0.11682 0.60079 0.0
H2013 H 0.67347 0.14515 0.57062 0.0
H2014 H 0.64461 0.13177 0.57938 0.0
H2015 H 0.65467 0.13237 0.5479 0.0
H2016 H 0.66615 0.04343 0.51864 0.0
H2017 H 0.62372 0.03414 0.53274 0.0
H2018 H 0.62527 0.09095 0.58554 0.0
C2019 C 0.71554 0.11756 0.54783 0.0
C2020 C 0.73233 0.11244 0.5284 0.0
C2021 C 0.72879 0.09224 0.51368 0.0
C2022 C 0.70864 0.07735 0.51815 0.0
C2023 C 0.69237 0.08294 0.53743 0.0
C2024 C 0.69551 0.10258 0.552 0.0
C2025 C 0.67428 0.10569 0.57028 0.0
C2026 C 0.68314 0.10241 0.59635 0.0
C2027 C 0.66097 0.13019 0.56682 0.0
C2028 C 0.65831 0.08511 0.56323 0.0
C2029 C 0.66933 0.07203 0.54446 0.0
C2030 C 0.65749 0.05328 0.53355 0.0
C2031 C 0.63349 0.04817 0.54159 0.0
C2032 C 0.62164 0.06178 0.56024 0.0
C2033 C 0.63436 0.08004 0.57164 0.0
H2034 H 0.20432 0.45554 0.77499 0.0
H2035 H 0.12756 0.43552 0.78222 0.0
H2036 H 0.14052 0.39279 0.78692 0.0
H2037 H 0.22701 0.40236 0.74225 0.0
H2038 H 0.2556 0.40141 0.75805 0.0
H2039 H 0.23983 0.42978 0.75289 0.0
H2040 H 0.23969 0.43792 0.79915 0.0
H2041 H 0.25495 0.40935 0.8045 0.0
H2042 H 0.226 0.41644 0.82002 0.0
H2043 H 0.16228 0.35249 0.79225 0.0
H2044 H 0.19118 0.31764 0.79638 0.0
H2045 H 0.25305 0.36557 0.78816 0.0
C2046 C 0.19021 0.44212 0.77703 0.0
C2047 C 0.16499 0.44865 0.77808 0.0
C2048 C 0.14703 0.43072 0.78123 0.0
C2049 C 0.15419 0.40649 0.78398 0.0
C2050 C 0.17932 0.40073 0.78365 0.0
C2051 C 0.19702 0.41804 0.7801 0.0
C2052 C 0.22279 0.40749 0.7816 0.0
C2053 C 0.23714 0.41043 0.75725 0.0
C2054 C 0.23666 0.41845 0.80257 0.0
C2055 C 0.21685 0.38154 0.78678 0.0
C2056 C 0.19173 0.37788 0.78772 0.0
C2057 C 0.18199 0.35513 0.79163 0.0
C2058 C 0.19849 0.33553 0.79408 0.0
C2059 C 0.22427 0.33903 0.79287 0.0
C2060 C 0.23343 0.36239 0.7896 0.0
H2061 H 0.31703 0.61013 0.26426 0.0
H2062 H 0.35543 0.62011 0.19484 0.0
H2063 H 0.32639 0.65351 0.18492 0.0
H2064 H 0.25294 0.6308 0.24527 0.0
H2065 H 0.24767 0.64573 0.27386 0.0
H2066 H 0.26638 0.61853 0.27237 0.0
H2067 H 0.30234 0.64053 0.29191 0.0
H2068 H 0.28372 0.6675 0.29361 0.0
H2069 H 0.31343 0.66793 0.27802 0.0
H2070 H 0.29903 0.69009 0.18607 0.0
H2071 H 0.28025 0.72852 0.20003 0.0
H2072 H 0.26095 0.6954 0.26939 0.0
C2073 C 0.31878 0.61878 0.24659 0.0
C2074 C 0.33827 0.61253 0.23022 0.0
C2075 C 0.34045 0.6246 0.20755 0.0
C2076 C 0.3239 0.64342 0.2017 0.0
C2077 C 0.30529 0.64974 0.21868 0.0
C2078 C 0.30271 0.63771 0.24072 0.0
C2079 C 0.28462 0.65054 0.25776 0.0
C2080 C 0.26153 0.6355 0.26259 0.0
C2081 C 0.29677 0.65702 0.2817 0.0
C2082 C 0.27874 0.67261 0.2426 0.0
C2083 C 0.28997 0.6714 0.21972 0.0
C2084 C 0.28965 0.691 0.20367 0.0
C2085 C 0.27885 0.71275 0.21171 0.0
C2086 C 0.26918 0.7147 0.23575 0.0
C2087 C 0.26795 0.69412 0.25081 0.0
H2088 H 0.53352 0.69265 0.64059 0.0
H2089 H 0.52755 0.73884 0.57688 0.0
H2090 H 0.52163 0.70338 0.55169 0.0
H2091 H 0.5677 0.64364 0.60921 0.0
H2092 H 0.55261 0.61993 0.62615 0.0
H2093 H 0.55618 0.64889 0.63976 0.0
H2094 H 0.50909 0.65193 0.64843 0.0
H2095 H 0.50539 0.62304 0.6347 0.0
H2096 H 0.48835 0.64899 0.62378 0.0
H2097 H 0.51516 0.66334 0.53286 0.0
H2098 H 0.51181 0.62116 0.52098 0.0
H2099 H 0.52341 0.59825 0.59546 0.0
C2100 C 0.53106 0.69528 0.62133 0.0
C2101 C 0.53102 0.71895 0.61091 0.0
C2102 C 0.52776 0.72124 0.58553 0.0
C2103 C 0.52427 0.70107 0.57096 0.0
C2104 C 0.52424 0.6782 0.58168 0.0
C2105 C 0.52782 0.67503 0.60623 0.0
C2106 C 0.5275 0.64811 0.61271 0.0
C2107 C 0.55249 0.63964 0.62254 0.0
C2108 C 0.50632 0.6427 0.631 0.0
C2109 C 0.52303 0.63681 0.58805 0.0
C2110 C 0.52106 0.65471 0.57054 0.0
C2111 C 0.51677 0.64922 0.54645 0.0
C2112 C 0.51479 0.62498 0.53987 0.0
C2113 C 0.51719 0.6059 0.55709 0.0
C2114 C 0.52126 0.61215 0.5817 0.0
H2115 H 0.60845 0.26769 0.84229 0.0
H2116 H 0.63123 0.27255 0.91677 0.0
H2117 H 0.67485 0.2677 0.90298 0.0
H2118 H 0.65543 0.2243 0.82124 0.0
H2119 H 0.65959 0.23892 0.79207 0.0
H2120 H 0.63007 0.2407 0.80795 0.0
H2121 H 0.63082 0.28733 0.80559 0.0
H2122 H 0.66019 0.28564 0.78954 0.0
H2123 H 0.65685 0.30271 0.81706 0.0
H2124 H 0.71569 0.26381 0.88106 0.0
H2125 H 0.75138 0.26479 0.8523 0.0
H2126 H 0.70183 0.26384 0.79195 0.0
C2127 C 0.62263 0.26744 0.85569 0.0
C2128 C 0.61663 0.27029 0.88057 0.0
C2129 C 0.63559 0.27037 0.8976 0.0
C2130 C 0.66033 0.26747 0.88997 0.0
C2131 C 0.66567 0.26472 0.86527 0.0
C2132 C 0.6474 0.26493 0.84836 0.0
C2133 C 0.65816 0.26355 0.82276 0.0
C2134 C 0.65035 0.24049 0.81028 0.0
C2135 C 0.65109 0.28615 0.80787 0.0
C2136 C 0.68537 0.26272 0.82791 0.0
C2137 C 0.68929 0.26308 0.85255 0.0
C2138 C 0.71289 0.26336 0.86173 0.0
C2139 C 0.73302 0.26387 0.84523 0.0
C2140 C 0.72935 0.26433 0.81989 0.0
C2141 C 0.70522 0.26328 0.81121 0.0
H2142 H 0.06637 0.36338 0.11584 0.0
H2143 H 0.98783 0.35058 0.11486 0.0
H2144 H 0.98105 0.39011 0.09517 0.0
H2145 H 0.05974 0.42717 0.12992 0.0
H2146 H 0.0859 0.43624 0.1113 0.0
H2147 H 0.08524 0.40639 0.1244 0.0
H2148 H 0.09207 0.38815 0.08175 0.0
H2149 H 0.09276 0.41795 0.06852 0.0
H2150 H 0.07127 0.39645 0.05802 0.0
H2151 H 0.98224 0.43087 0.07459 0.0
H2152 H 0.99094 0.47091 0.05714 0.0
H2153 H 0.06836 0.46064 0.07299 0.0
C2154 C 0.04778 0.36884 0.11131 0.0
C2155 C 0.02763 0.35341 0.11689 0.0
C2156 C 1.00362 0.36171 0.11089 0.0
C2157 C 0.99955 0.38427 0.09959 0.0
C2158 C 0.01959 0.39901 0.09446 0.0
C2159 C 0.04326 0.39181 0.1003 0.0
C2160 C 0.06127 0.41184 0.09348 0.0
C2161 C 0.07378 0.42095 0.11613 0.0
C2162 C 0.08049 0.40307 0.0743 0.0
C2163 C 0.04405 0.43125 0.08288 0.0
C2164 C 0.02012 0.4232 0.08346 0.0
C2165 C 1.00091 0.43735 0.07423 0.0
C2166 C 0.00609 0.46022 0.06424 0.0
C2167 C 0.03032 0.4694 0.06363 0.0
C2168 C 0.04956 0.45449 0.07325 0.0
H2169 H 0.98816 0.77045 0.35161 0.0
H2170 H 0.96218 0.80714 0.4169 0.0
H2171 H 0.92489 0.82136 0.39577 0.0
H2172 H 0.96631 0.81521 0.30852 0.0
H2173 H 0.95777 0.79307 0.28691 0.0
H2174 H 0.98284 0.78675 0.30687 0.0
H2175 H 0.96144 0.74799 0.32246 0.0
H2176 H 0.93653 0.75404 0.30235 0.0
H2177 H 0.93014 0.74997 0.33441 0.0
H2178 H 0.88975 0.82991 0.36791 0.0
H2179 H 0.85856 0.8305 0.33613 0.0
H2180 H 0.90831 0.78828 0.28958 0.0
C2181 C 0.97467 0.78153 0.36147 0.0
C2182 C 0.97794 0.78772 0.38583 0.0
C2183 C 0.95991 0.8022 0.39817 0.0
C2184 C 0.9388 0.81045 0.38631 0.0
C2185 C 0.93621 0.80412 0.36216 0.0
C2186 C 0.95364 0.78993 0.34993 0.0
C2187 C 0.94611 0.78479 0.32442 0.0
C2188 C 0.96434 0.79561 0.30557 0.0
C2189 C 0.94338 0.75759 0.32071 0.0
C2190 C 0.92147 0.79795 0.3243 0.0
C2191 C 0.91615 0.80917 0.34613 0.0
C2192 C 0.8938 0.82135 0.35067 0.0
C2193 C 0.8762 0.82154 0.33259 0.0
C2194 C 0.8811 0.80954 0.31039 0.0
C2195 C 0.90425 0.79809 0.3061 0.0
H2196 H 0.51121 0.33136 0.9678 0.0
H2197 H 0.53445 0.36251 0.89842 0.0
H2198 H 0.52109 0.40272 0.91271 0.0
H2199 H 0.45757 0.37228 0.97993 0.0
H2200 H 0.46344 0.37398 0.01185 0.0
H2201 H 0.4719 0.34709 0.99535 0.0
H2202 H 0.517 0.35015 0.00904 0.0
H2203 H 0.5086 0.37682 0.02575 0.0
H2204 H 0.53337 0.37758 0.00319 0.0
H2205 H 0.50864 0.43937 0.93492 0.0
H2206 H 0.50144 0.47112 0.96529 0.0
H2207 H 0.4869 0.41706 0.02089 0.0
C2208 C 0.51312 0.34664 0.95555 0.0
C2209 C 0.52371 0.34393 0.932 0.0
C2210 C 0.52639 0.36429 0.91656 0.0
C2211 C 0.51865 0.38713 0.92442 0.0
C2212 C 0.50832 0.38926 0.94775 0.0
C2213 C 0.50573 0.36966 0.96322 0.0
C2214 C 0.49637 0.37732 0.98821 0.0
C2215 C 0.4708 0.36706 0.99418 0.0
C2216 C 0.51495 0.37004 0.00768 0.0
C2217 C 0.49486 0.40436 0.98455 0.0
C2218 C 0.50136 0.41074 0.9609 0.0
C2219 C 0.50318 0.43463 0.9534 0.0
C2220 C 0.4991 0.4525 0.97072 0.0
C2221 C 0.49348 0.44639 0.99525 0.0
C2222 C 0.49056 0.42208 1.0021 0.0
H2223 H 0.96411 0.3048 0.21596 0.0
H2224 H 0.95271 0.25035 0.16187 0.0
H2225 H 0.91068 0.2447 0.17813 0.0
H2226 H 0.9283 0.27561 0.26514 0.0
H2227 H 0.91487 0.30315 0.27701 0.0
H2228 H 0.94471 0.30333 0.26166 0.0
H2229 H 0.92893 0.33612 0.23189 0.0
H2230 H 0.89905 0.33601 0.24714 0.0
H2231 H 0.90174 0.33084 0.21494 0.0
H2232 H 0.87038 0.24421 0.19899 0.0
H2233 H 0.83256 0.24886 0.22373 0.0
H2234 H 0.8665 0.30404 0.2659 0.0
C2235 C 0.95274 0.29165 0.20766 0.0
C2236 C 0.96201 0.278 0.18749 0.0
C2237 C 0.94635 0.26109 0.17718 0.0
C2238 C 0.9223 0.25769 0.18633 0.0
C2239 C 0.91371 0.27134 0.20595 0.0
C2240 C 0.92825 0.28802 0.21662 0.0
C2241 C 0.91369 0.30027 0.2375 0.0
C2242 C 0.92614 0.29529 0.26177 0.0
C2243 C 0.91068 0.32743 0.23257 0.0
C2244 C 0.88887 0.28777 0.23672 0.0
C2245 C 0.88965 0.27116 0.21828 0.0
C2246 C 0.86954 0.25714 0.21351 0.0
C2247 C 0.84798 0.25998 0.22786 0.0
C2248 C 0.84616 0.2768 0.24706 0.0
C2249 C 0.86709 0.291 0.25147 0.0
H2250 H 0.06235 0.69688 0.46692 0.0
H2251 H 0.03536 0.68437 0.39504 0.0
H2252 H 0.03686 0.64052 0.40306 0.0
H2253 H 0.10264 0.64212 0.47137 0.0
H2254 H 0.0944 0.63764 0.50302 0.0
H2255 H 0.09498 0.66764 0.49023 0.0
H2256 H 0.04962 0.67508 0.50509 0.0
H2257 H 0.04898 0.64524 0.51797 0.0
H2258 H 0.02631 0.65457 0.49636 0.0
H2259 H 0.03722 0.59874 0.42036 0.0
H2260 H 0.03323 0.56264 0.44658 0.0
H2261 H 0.05917 0.60281 0.50741 0.0
C2262 C 0.05728 0.68486 0.45269 0.0
C2263 C 0.04891 0.69386 0.43033 0.0
C2264 C 0.04189 0.67772 0.4123 0.0
C2265 C 0.04286 0.65283 0.41661 0.0
C2266 C 0.05091 0.6445 0.43902 0.0
C2267 C 0.05792 0.66005 0.4568 0.0
C2268 C 0.06313 0.64682 0.48026 0.0
C2269 C 0.09041 0.64866 0.48658 0.0
C2270 C 0.04598 0.65597 0.50113 0.0
C2271 C 0.05711 0.62151 0.4732 0.0
C2272 C 0.05064 0.62042 0.44919 0.0
C2273 C 0.0426 0.59926 0.43907 0.0
C2274 C 0.04042 0.57885 0.4541 0.0
C2275 C 0.04593 0.57996 0.479 0.0
C2276 C 0.05505 0.60137 0.48839 0.0
H2277 H 0.59716 0.76538 0.71538 0.0
H2278 H 0.6123 0.81906 0.65936 0.0
H2279 H 0.65197 0.82732 0.67766 0.0
H2280 H 0.62585 0.79596 0.76514 0.0
H2281 H 0.63926 0.76901 0.77821 0.0
H2282 H 0.61132 0.76744 0.7615 0.0
H2283 H 0.632 0.73564 0.7332 0.0
H2284 H 0.65995 0.73705 0.7499 0.0
H2285 H 0.66077 0.74232 0.71755 0.0
H2286 H 0.68994 0.83077 0.70194 0.0
H2287 H 0.72536 0.82682 0.72853 0.0
H2288 H 0.68887 0.7694 0.76879 0.0
C2289 C 0.60881 0.77892 0.70704 0.0
C2290 C 0.60123 0.79165 0.6858 0.0
C2291 C 0.61738 0.80899 0.67547 0.0
C2292 C 0.64006 0.81391 0.68584 0.0
C2293 C 0.64697 0.80119 0.70661 0.0
C2294 C 0.63204 0.78382 0.71702 0.0
C2295 C 0.64477 0.77219 0.73881 0.0
C2296 C 0.62938 0.7764 0.76231 0.0
C2297 C 0.64966 0.74519 0.73461 0.0
C2298 C 0.66897 0.78585 0.739 0.0
C2299 C 0.66957 0.80264 0.72031 0.0
C2300 C 0.68966 0.81762 0.71658 0.0
C2301 C 0.70979 0.81526 0.73198 0.0
C2302 C 0.71026 0.79788 0.75108 0.0
C2303 C 0.68927 0.78303 0.75459 0.0
H2304 H 0.60535 0.53013 0.73596 0.0
H2305 H 0.64313 0.46059 0.7321 0.0
H2306 H 0.62652 0.45444 0.69141 0.0
H2307 H 0.55086 0.51424 0.70682 0.0
H2308 H 0.54763 0.5424 0.69052 0.0
H2309 H 0.56282 0.54136 0.71908 0.0
H2310 H 0.60149 0.56043 0.69858 0.0
H2311 H 0.58644 0.56143 0.6699 0.0
H2312 H 0.61601 0.54631 0.67239 0.0
H2313 H 0.60352 0.45472 0.65291 0.0
H2314 H 0.577 0.46232 0.61774 0.0
H2315 H 0.55682 0.53282 0.64533 0.0
C2316 C 0.61007 0.51361 0.72652 0.0
C2317 C 0.62527 0.4957 0.73706 0.0
C2318 C 0.63142 0.47445 0.7242 0.0
C2319 C 0.62213 0.47084 0.70115 0.0
C2320 C 0.60717 0.48888 0.69121 0.0
C2321 C 0.60138 0.50994 0.70336 0.0
C2322 C 0.58497 0.5265 0.68863 0.0
C2323 C 0.5601 0.53139 0.70207 0.0
C2324 C 0.59802 0.55006 0.68198 0.0
C2325 C 0.58196 0.5112 0.66652 0.0
C2326 C 0.59488 0.48954 0.66841 0.0
C2327 C 0.59363 0.47174 0.65101 0.0
C2328 C 0.57857 0.47613 0.63124 0.0
C2329 C 0.56531 0.49819 0.62901 0.0
C2330 C 0.56729 0.51606 0.64661 0.0
H2331 H 0.78085 0.36528 0.96128 0.0
H2332 H 0.80884 0.31293 0.01321 0.0
H2333 H 0.82497 0.28763 0.97926 0.0
H2334 H 0.76217 0.32335 0.91673 0.0
H2335 H 0.77132 0.3426 0.89163 0.0
H2336 H 0.76149 0.35556 0.92018 0.0
H2337 H 0.80273 0.37822 0.92142 0.0
H2338 H 0.8128 0.36503 0.89305 0.0
H2339 H 0.83152 0.36142 0.91934 0.0
H2340 H 0.83859 0.2686 0.93876 0.0
H2341 H 0.846 0.25676 0.89579 0.0
H2342 H 0.81031 0.32318 0.87222 0.0
C2343 C 0.79013 0.34837 0.96559 0.0
C2344 C 0.79354 0.34095 0.98978 0.0
C2345 C 0.80594 0.31881 0.99469 0.0
C2346 C 0.81525 0.30443 0.97558 0.0
C2347 C 0.81199 0.3126 0.95184 0.0
C2348 C 0.79958 0.33402 0.94689 0.0
C2349 C 0.79863 0.33912 0.92003 0.0
C2350 C 0.77181 0.3402 0.91166 0.0
C2351 C 0.81224 0.36232 0.91306 0.0
C2352 C 0.81234 0.31718 0.91051 0.0
C2353 C 0.82002 0.30202 0.92897 0.0
C2354 C 0.83269 0.28038 0.92417 0.0
C2355 C 0.837 0.27388 0.89981 0.0
C2356 C 0.82854 0.289 0.88081 0.0
C2357 C 0.81664 0.3111 0.88639 0.0
H2358 H 0.91299 0.54989 0.17144 0.0
H2359 H 0.96103 0.5897 0.21701 0.0
H2360 H 0.98803 0.59868 0.18142 0.0
H2361 H 0.9575 0.52123 0.13857 0.0
H2362 H 0.94262 0.52244 0.10979 0.0
H2363 H 0.92433 0.52342 0.13749 0.0
H2364 H 0.90362 0.56356 0.12363 0.0
H2365 H 0.92179 0.5626 0.09568 0.0
H2366 H 0.92255 0.58863 0.11478 0.0
H2367 H 0.01386 0.59578 0.14383 0.0
H2368 H 0.03535 0.58364 0.10558 0.0
H2369 H 0.96963 0.54771 0.08374 0.0
C2370 C 0.92878 0.56111 0.17373 0.0
C2371 C 0.93504 0.56907 0.19683 0.0
C2372 C 0.95594 0.58349 0.19935 0.0
C2373 C 0.97131 0.58878 0.17925 0.0
C2374 C 0.96516 0.5799 0.1568 0.0
C2375 C 0.94416 0.56673 0.15382 0.0
C2376 C 0.94313 0.55709 0.12839 0.0
C2377 C 0.94184 0.52942 0.1286 0.0
C2378 C 0.92149 0.56867 0.11482 0.0
C2379 C 0.96758 0.56557 0.11806 0.0
C2380 C 0.97988 0.57898 0.1346 0.0
C2381 C 1.00415 0.586 0.13039 0.0
C2382 C 0.01626 0.57888 0.10878 0.0
C2383 C 1.00394 0.56504 0.09179 0.0
C2384 C 0.97917 0.55885 0.09623 0.0
H2385 H 0.75238 0.68399 0.44837 0.0
H2386 H 0.80642 0.72764 0.48241 0.0
H2387 H 0.81308 0.75005 0.4438 0.0
H2388 H 0.78241 0.68065 0.38885 0.0
H2389 H 0.75427 0.68329 0.3724 0.0
H2390 H 0.7539 0.67025 0.40251 0.0
H2391 H 0.72027 0.70128 0.41636 0.0
H2392 H 0.72049 0.71436 0.38627 0.0
H2393 H 0.72569 0.73295 0.41208 0.0
H2394 H 0.81542 0.76686 0.40047 0.0
H2395 H 0.81052 0.77909 0.35766 0.0
H2396 H 0.75277 0.72708 0.35125 0.0
C2397 C 0.7656 0.6983 0.44772 0.0
C2398 C 0.77897 0.70386 0.46872 0.0
C2399 C 0.7959 0.72291 0.46686 0.0
C2400 C 0.79988 0.73575 0.44486 0.0
C2401 C 0.78657 0.72978 0.42457 0.0
C2402 C 0.76949 0.7117 0.42586 0.0
C2403 C 0.75709 0.70946 0.40146 0.0
C2404 C 0.76223 0.68442 0.39067 0.0
C2405 C 0.72923 0.71484 0.40421 0.0
C2406 C 0.76993 0.72896 0.38624 0.0
C2407 C 0.78709 0.74023 0.39992 0.0
C2408 C 0.80186 0.75824 0.38976 0.0
C2409 C 0.79898 0.76506 0.36524 0.0
C2410 C 0.78117 0.7543 0.35076 0.0
C2411 C 0.76644 0.73593 0.36166 0.0
H2412 H 0.59234 0.49395 0.86862 0.0
H2413 H 0.60738 0.56804 0.84864 0.0
H2414 H 0.58361 0.5819 0.88476 0.0
H2415 H 0.52841 0.50659 0.89762 0.0
H2416 H 0.53367 0.48414 0.92089 0.0
H2417 H 0.54715 0.48019 0.89084 0.0
H2418 H 0.59041 0.4753 0.90917 0.0
H2419 H 0.57712 0.47939 0.93911 0.0
H2420 H 0.60145 0.49865 0.92817 0.0
H2421 H 0.56752 0.58714 0.92658 0.0
H2422 H 0.55647 0.58343 0.9703 0.0
H2423 H 0.54887 0.50651 0.96258 0.0
C2424 C 0.58985 0.5131 0.87144 0.0
C2425 C 0.60166 0.52993 0.85595 0.0
C2426 C 0.5984 0.55485 0.86031 0.0
C2427 C 0.58484 0.56291 0.88071 0.0
C2428 C 0.57426 0.54584 0.89625 0.0
C2429 C 0.57613 0.52145 0.89164 0.0
C2430 C 0.5654 0.50678 0.91258 0.0
C2431 C 0.54228 0.49365 0.90503 0.0
C2432 C 0.58476 0.48901 0.92286 0.0
C2433 C 0.5588 0.52665 0.93027 0.0
C2434 C 0.56377 0.54907 0.92038 0.0
C2435 C 0.56266 0.56983 0.93432 0.0
C2436 C 0.55657 0.56757 0.95908 0.0
C2437 C 0.55146 0.54478 0.96943 0.0
C2438 C 0.55195 0.52421 0.95477 0.0
H2439 H 0.7559 0.34027 0.11283 0.0
H2440 H 0.78042 0.41188 0.12901 0.0
H2441 H 0.77464 0.40316 0.17293 0.0
H2442 H 0.70981 0.33533 0.16345 0.0
H2443 H 0.7172 0.3039 0.16835 0.0
H2444 H 0.72027 0.31692 0.13832 0.0
H2445 H 0.76602 0.30224 0.13534 0.0
H2446 H 0.76298 0.28905 0.16518 0.0
H2447 H 0.78674 0.31054 0.1586 0.0
H2448 H 0.77049 0.38501 0.21477 0.0
H2449 H 0.77057 0.35826 0.25089 0.0
H2450 H 0.74803 0.29901 0.20674 0.0
C2451 C 0.75971 0.35426 0.12559 0.0
C2452 C 0.76858 0.37672 0.11765 0.0
C2453 C 0.77358 0.39452 0.13484 0.0
C2454 C 0.77018 0.3898 0.15975 0.0
C2455 C 0.76155 0.36733 0.16701 0.0
C2456 C 0.75637 0.34987 0.1504 0.0
C2457 C 0.74945 0.32649 0.16275 0.0
C2458 C 0.72258 0.32031 0.15793 0.0
C2459 C 0.76737 0.30589 0.15502 0.0
C2460 C 0.75248 0.33319 0.18891 0.0
C2461 C 0.75904 0.35693 0.1911 0.0
C2462 C 0.76493 0.36652 0.21336 0.0
C2463 C 0.7649 0.3512 0.23377 0.0
C2464 C 0.75924 0.32659 0.23158 0.0
C2465 C 0.75215 0.3178 0.20903 0.0
H2466 H 0.91952 0.544 0.34363 0.0
H2467 H 0.97236 0.51295 0.29145 0.0
H2468 H 0.99605 0.49516 0.32498 0.0
H2469 H 0.96419 0.55864 0.38867 0.0
H2470 H 0.94349 0.55147 0.41382 0.0
H2471 H 0.93132 0.56227 0.38557 0.0
H2472 H 0.90437 0.52442 0.38389 0.0
H2473 H 0.9168 0.51331 0.4119 0.0
H2474 H 0.9189 0.49497 0.38516 0.0
H2475 H 0.01256 0.47883 0.36407 0.0
H2476 H 0.0236 0.4695 0.40652 0.0
H2477 H 0.96041 0.51187 0.43258 0.0
C2478 C 0.93626 0.53373 0.33929 0.0
C2479 C 0.94415 0.5298 0.31505 0.0
C2480 C 0.96609 0.51623 0.30999 0.0
C2481 C 0.97957 0.50594 0.32886 0.0
C2482 C 0.97091 0.50959 0.35257 0.0
C2483 C 0.95 0.52348 0.35786 0.0
C2484 C 0.94473 0.52479 0.38487 0.0
C2485 C 0.94603 0.55084 0.39375 0.0
C2486 C 0.91972 0.51371 0.39185 0.0
C2487 C 0.9659 0.50942 0.39392 0.0
C2488 C 0.98066 0.50058 0.37504 0.0
C2489 C 1.00122 0.48572 0.37903 0.0
C2490 C 0.00721 0.48033 0.40308 0.0
C2491 C 0.99281 0.49004 0.42256 0.0
C2492 C 0.97173 0.50439 0.41787 0.0
H2493 H 0.77915 0.72808 0.60059 0.0
H2494 H 0.76912 0.65392 0.62363 0.0
H2495 H 0.77239 0.6657 0.66625 0.0
H2496 H 0.82387 0.74234 0.64596 0.0
H2497 H 0.81208 0.77247 0.65116 0.0
H2498 H 0.80865 0.75872 0.62206 0.0
H2499 H 0.76146 0.76634 0.62542 0.0
H2500 H 0.76479 0.78022 0.65446 0.0
H2501 H 0.74438 0.75534 0.65171 0.0
H2502 H 0.77632 0.68504 0.70701 0.0
H2503 H 0.78025 0.71066 0.74275 0.0
H2504 H 0.78879 0.7731 0.69544 0.0
C2505 C 0.77753 0.71435 0.61461 0.0
C2506 C 0.77377 0.68988 0.60833 0.0
C2507 C 0.77195 0.67268 0.62754 0.0
C2508 C 0.77381 0.67922 0.652 0.0
C2509 C 0.77765 0.70323 0.65756 0.0
C2510 C 0.77947 0.72062 0.63947 0.0
C2511 C 0.78367 0.74516 0.65082 0.0
C2512 C 0.80855 0.75527 0.64197 0.0
C2513 C 0.7623 0.76281 0.64527 0.0
C2514 C 0.78391 0.73878 0.67795 0.0
C2515 C 0.78034 0.71442 0.68128 0.0
C2516 C 0.77926 0.70411 0.70453 0.0
C2517 C 0.7816 0.7189 0.72486 0.0
C2518 C 0.78521 0.74403 0.72231 0.0
C2519 C 0.78652 0.75397 0.69827 0.0
H2520 H 0.70143 0.60625 0.56271 0.0
H2521 H 0.69774 0.64808 0.49592 0.0
H2522 H 0.6597 0.6275 0.4857 0.0
H2523 H 0.67652 0.55063 0.54094 0.0
H2524 H 0.65787 0.5445 0.56786 0.0
H2525 H 0.68567 0.56142 0.56994 0.0
H2526 H 0.66079 0.59633 0.59031 0.0
H2527 H 0.63298 0.57941 0.58847 0.0
H2528 H 0.63442 0.60925 0.5754 0.0
H2529 H 0.6236 0.60115 0.48112 0.0
H2530 H 0.58741 0.57577 0.48513 0.0
H2531 H 0.60927 0.55309 0.5572 0.0
C2532 C 0.69256 0.61102 0.54595 0.0
C2533 C 0.70287 0.62879 0.52998 0.0
C2534 C 0.69038 0.63468 0.50845 0.0
C2535 C 0.66875 0.62294 0.50241 0.0
C2536 C 0.65914 0.60554 0.51832 0.0
C2537 C 0.67021 0.59993 0.53996 0.0
C2538 C 0.65471 0.58161 0.55438 0.0
C2539 C 0.66958 0.55815 0.55852 0.0
C2540 C 0.64516 0.59229 0.57858 0.0
C2541 C 0.63347 0.57766 0.5373 0.0
C2542 C 0.63689 0.59143 0.51646 0.0
C2543 C 0.62057 0.59057 0.49752 0.0
C2544 C 0.59991 0.5759 0.50003 0.0
C2545 C 0.59489 0.56231 0.52158 0.0
C2546 C 0.61229 0.56311 0.54044 0.0
H2547 H 0.18055 0.91038 0.53631 0.0
H2548 H 0.23184 0.95308 0.49296 0.0
H2549 H 0.19994 0.98543 0.48943 0.0
H2550 H 0.12634 0.92624 0.50452 0.0
H2551 H 0.10686 0.92705 0.53162 0.0
H2552 H 0.13389 0.90767 0.53043 0.0
H2553 H 0.14949 0.92765 0.56915 0.0
H2554 H 0.12257 0.94721 0.57025 0.0
H2555 H 0.15291 0.95982 0.56957 0.0
H2556 H 0.16146 0.01293 0.49042 0.0
H2557 H 0.11988 0.03225 0.49524 0.0
H2558 H 0.09566 0.97102 0.53871 0.0
C2559 C 0.18505 0.92647 0.52595 0.0
C2560 C 0.20851 0.92924 0.51478 0.0
C2561 C 0.21384 0.95064 0.5016 0.0
C2562 C 0.19591 0.96911 0.49955 0.0
C2563 C 0.17293 0.96588 0.511 0.0
C2564 C 0.16755 0.94507 0.52396 0.0
C2565 C 0.14164 0.94586 0.53465 0.0
C2566 C 0.12629 0.92551 0.5247 0.0
C2567 C 0.14167 0.9451 0.56256 0.0
C2568 C 0.13304 0.97013 0.5253 0.0
C2569 C 0.15126 0.9816 0.51182 0.0
C2570 C 0.14708 0.00413 0.50103 0.0
C2571 C 0.1235 0.01498 0.50389 0.0
C2572 C 0.10458 0.00312 0.51729 0.0
C2573 C 0.10968 0.98059 0.5283 0.0
H2574 H 0.37532 0.96735 0.76743 0.0
H2575 H 0.33963 0.01249 0.82242 0.0
H2576 H 0.31426 0.97819 0.8363 0.0
H2577 H 0.32186 0.93475 0.75226 0.0
H2578 H 0.33871 0.90673 0.74794 0.0
H2579 H 0.35388 0.93485 0.74248 0.0
H2580 H 0.38748 0.92221 0.77288 0.0
H2581 H 0.37243 0.89404 0.77838 0.0
H2582 H 0.37838 0.91341 0.8034 0.0
H2583 H 0.29297 0.9388 0.84395 0.0
H2584 H 0.27737 0.89742 0.84489 0.0
H2585 H 0.32787 0.87857 0.78514 0.0
C2586 C 0.36216 0.97006 0.78239 0.0
C2587 C 0.35936 0.9925 0.79389 0.0
C2588 C 0.342 0.99537 0.8134 0.0
C2589 C 0.32754 0.97604 0.82137 0.0
C2590 C 0.33078 0.95411 0.80959 0.0
C2591 C 0.34767 0.95105 0.79054 0.0
C2592 C 0.34774 0.92571 0.78097 0.0
C2593 C 0.34008 0.92551 0.75434 0.0
C2594 C 0.37301 0.9131 0.78411 0.0
C2595 C 0.32822 0.91493 0.79763 0.0
C2596 C 0.31863 0.93154 0.81401 0.0
C2597 C 0.30039 0.92562 0.83125 0.0
C2598 C 0.29175 0.90204 0.83173 0.0
C2599 C 0.3014 0.88474 0.81509 0.0
C2600 C 0.31986 0.89141 0.79787 0.0
H2601 H 0.36031 0.14075 0.0504 0.0
H2602 H 0.32666 0.10441 0.99115 0.0
H2603 H 0.3655 0.0813 0.98329 0.0
H2604 H 0.42204 0.14456 0.02315 0.0
H2605 H 0.43742 0.13853 0.05117 0.0
H2606 H 0.4073 0.15291 0.05168 0.0
H2607 H 0.39086 0.11969 0.08085 0.0
H2608 H 0.42093 0.10523 0.08043 0.0
H2609 H 0.39436 0.08858 0.07229 0.0
H2610 H 0.40861 0.06226 0.98137 0.0
H2611 H 0.45126 0.0472 0.98713 0.0
H2612 H 0.45694 0.09403 0.04897 0.0
C2613 C 0.36117 0.12803 0.03568 0.0
C2614 C 0.3403 0.12459 0.02127 0.0
C2615 C 0.34225 0.10748 1.00242 0.0
C2616 C 0.36433 0.09426 0.99778 0.0
C2617 C 0.38449 0.09801 0.01229 0.0
C2618 C 0.38307 0.11435 0.03101 0.0
C2619 C 0.40722 0.11427 0.04442 0.0
C2620 C 0.4192 0.13904 0.04248 0.0
C2621 C 0.40309 0.10648 0.07108 0.0
C2622 C 0.42242 0.09542 0.03032 0.0
C2623 C 0.409 0.08644 0.01171 0.0
C2624 C 0.41919 0.06913 0.99597 0.0
C2625 C 0.44355 0.06069 0.99937 0.0
C2626 C 0.45767 0.06923 0.01855 0.0
C2627 C 0.44676 0.08693 0.03418 0.0
H2628 H 0.71303 0.56847 0.82747 0.0
H2629 H 0.68524 0.57248 0.75451 0.0
H2630 H 0.6983 0.61455 0.75077 0.0
H2631 H 0.69342 0.62419 0.84591 0.0
H2632 H 0.72004 0.63136 0.86296 0.0
H2633 H 0.71213 0.60045 0.85899 0.0
H2634 H 0.75555 0.59088 0.84013 0.0
H2635 H 0.76388 0.62166 0.84462 0.0
H2636 H 0.76699 0.60873 0.81484 0.0
H2637 H 0.70693 0.6573 0.75778 0.0
H2638 H 0.71774 0.69705 0.77184 0.0
H2639 H 0.74312 0.665 0.83933 0.0
C2640 C 0.71043 0.57799 0.81044 0.0
C2641 C 0.69814 0.56735 0.79129 0.0
C2642 C 0.69479 0.58032 0.76934 0.0
C2643 C 0.70203 0.60423 0.76708 0.0
C2644 C 0.713 0.6146 0.78676 0.0
C2645 C 0.71786 0.60177 0.80777 0.0
C2646 C 0.72887 0.61756 0.82658 0.0
C2647 C 0.71263 0.61843 0.84998 0.0
C2648 C 0.7554 0.60921 0.83185 0.0
C2649 C 0.72842 0.64148 0.81322 0.0
C2650 C 0.71917 0.63932 0.79033 0.0
C2651 C 0.71505 0.65914 0.77532 0.0
C2652 C 0.72136 0.68176 0.78357 0.0
C2653 C 0.73212 0.68441 0.80654 0.0
C2654 C 0.73528 0.66387 0.82161 0.0
H2655 H 0.82703 0.46183 0.02833 0.0
H2656 H 0.86243 0.3916 0.01939 0.0
H2657 H 0.90044 0.41089 0.00382 0.0
H2658 H 0.85624 0.49169 0.97575 0.0
H2659 H 0.85977 0.51955 0.99149 0.0
H2660 H 0.83449 0.50027 0.99966 0.0
H2661 H 0.84811 0.49889 0.04436 0.0
H2662 H 0.87314 0.51843 0.03637 0.0
H2663 H 0.87934 0.48978 0.05088 0.0
H2664 H 0.93469 0.4376 0.99051 0.0
H2665 H 0.96484 0.46992 0.9855 0.0
H2666 H 0.90773 0.52264 0.00545 0.0
C2667 C 0.84274 0.45056 0.02288 0.0
C2668 C 0.8419 0.4253 0.02489 0.0
C2669 C 0.86284 0.41104 0.01801 0.0
C2670 C 0.88437 0.4218 0.00894 0.0
C2671 C 0.88461 0.44679 0.00706 0.0
C2672 C 0.86449 0.46102 0.01416 0.0
C2673 C 0.87034 0.48746 0.01245 0.0
C2674 C 0.85425 0.50051 0.99372 0.0
C2675 C 0.86758 0.49933 0.0375 0.0
C2676 C 0.89703 0.48584 0.00372 0.0
C2677 C 0.90473 0.46225 1.00023 0.0
C2678 C 0.9289 0.45616 0.99317 0.0
C2679 C 0.9459 0.47463 0.99048 0.0
C2680 C 0.93875 0.49882 0.9953 0.0
C2681 C 0.91378 0.50446 1.00125 0.0
H2682 H 0.33954 0.11231 0.76285 0.0
H2683 H 0.40616 0.12832 0.80052 0.0
H2684 H 0.39428 0.1715 0.80038 0.0
H2685 H 0.33793 0.16453 0.72463 0.0
H2686 H 0.30489 0.1686 0.72701 0.0
H2687 H 0.31859 0.13892 0.72989 0.0
H2688 H 0.2965 0.13316 0.77193 0.0
H2689 H 0.28237 0.16261 0.76894 0.0
H2690 H 0.30022 0.15522 0.79514 0.0
H2691 H 0.37595 0.21284 0.79472 0.0
H2692 H 0.34931 0.24899 0.78959 0.0
H2693 H 0.29405 0.20547 0.75695 0.0
C2694 C 0.35151 0.1249 0.77123 0.0
C2695 C 0.37374 0.11715 0.78164 0.0
C2696 C 0.38894 0.13401 0.79256 0.0
C2697 C 0.38249 0.15853 0.79237 0.0
C2698 C 0.3607 0.16569 0.78141 0.0
C2699 C 0.34521 0.14934 0.77147 0.0
C2700 C 0.32235 0.16158 0.76174 0.0
C2701 C 0.32087 0.1582 0.73418 0.0
C2702 C 0.29899 0.15262 0.77525 0.0
C2703 C 0.32741 0.18738 0.76778 0.0
C2704 C 0.3498 0.18943 0.77877 0.0
C2705 C 0.35836 0.21149 0.78618 0.0
C2706 C 0.34318 0.23192 0.78303 0.0
C2707 C 0.31964 0.22994 0.7729 0.0
C2708 C 0.31198 0.20748 0.7647 0.0
H2709 H 0.21956 0.9492 0.27343 0.0
H2710 H 0.2042 0.94553 0.35099 0.0
H2711 H 0.23341 0.91089 0.35432 0.0
H2712 H 0.21837 0.89045 0.263 0.0
H2713 H 0.24286 0.88938 0.24012 0.0
H2714 H 0.2256 0.91684 0.24502 0.0
H2715 H 0.26619 0.93905 0.25244 0.0
H2716 H 0.28362 0.91141 0.24768 0.0
H2717 H 0.28668 0.92787 0.27533 0.0
H2718 H 0.25679 0.87209 0.34767 0.0
H2719 H 0.27099 0.83272 0.33154 0.0
H2720 H 0.2726 0.86303 0.25866 0.0
C2721 C 0.2229 0.94151 0.29121 0.0
C2722 C 0.2097 0.94983 0.31193 0.0
C2723 C 0.2143 0.93935 0.33491 0.0
C2724 C 0.23097 0.91982 0.33698 0.0
C2725 C 0.2432 0.91148 0.31598 0.0
C2726 C 0.23958 0.92226 0.29356 0.0
C2727 C 0.25221 0.90821 0.2733 0.0
C2728 C 0.23365 0.90078 0.25428 0.0
C2729 C 0.27344 0.92249 0.2615 0.0
C2730 C 0.26188 0.88683 0.28755 0.0
C2731 C 0.25715 0.88926 0.31222 0.0
C2732 C 0.26129 0.87026 0.32851 0.0
C2733 C 0.26938 0.84797 0.3192 0.0
C2734 C 0.27287 0.84496 0.29387 0.0
C2735 C 0.27031 0.86495 0.27813 0.0
H2736 H 0.51864 0.38002 0.42008 0.0
H2737 H 0.52929 0.33572 0.48443 0.0
H2738 H 0.53394 0.37227 0.50861 0.0
H2739 H 0.56166 0.42654 0.43414 0.0
H2740 H 0.54276 0.45114 0.42306 0.0
H2741 H 0.54041 0.42163 0.4103 0.0
H2742 H 0.49352 0.42221 0.42038 0.0
H2743 H 0.49572 0.45178 0.43304 0.0
H2744 H 0.48262 0.42772 0.45109 0.0
H2745 H 0.53866 0.41343 0.52607 0.0
H2746 H 0.53998 0.45614 0.53652 0.0
H2747 H 0.52454 0.47605 0.46199 0.0
C2748 C 0.52189 0.37802 0.43928 0.0
C2749 C 0.52363 0.35464 0.45022 0.0
C2750 C 0.5278 0.35312 0.47546 0.0
C2751 C 0.53056 0.3739 0.48941 0.0
C2752 C 0.52891 0.39651 0.47813 0.0
C2753 C 0.5244 0.3988 0.45369 0.0
C2754 C 0.52288 0.42549 0.44643 0.0
C2755 C 0.54313 0.43155 0.42734 0.0
C2756 C 0.49715 0.43219 0.43718 0.0
C2757 C 0.5274 0.43777 0.47054 0.0
C2758 C 0.531 0.42053 0.48846 0.0
C2759 C 0.53576 0.42702 0.51216 0.0
C2760 C 0.53656 0.45157 0.51791 0.0
C2761 C 0.53246 0.46996 0.50023 0.0
C2762 C 0.5279 0.46272 0.47605 0.0
H2763 H 0.42368 0.79107 0.15306 0.0
H2764 H 0.47402 0.76642 0.20826 0.0
H2765 H 0.43877 0.75983 0.23678 0.0
H2766 H 0.38447 0.82428 0.19149 0.0
H2767 H 0.35637 0.81702 0.17688 0.0
H2768 H 0.38512 0.81694 0.15971 0.0
H2769 H 0.37832 0.77298 0.14698 0.0
H2770 H 0.3495 0.77281 0.16416 0.0
H2771 H 0.37294 0.75019 0.17 0.0
H2772 H 0.39858 0.75918 0.26025 0.0
H2773 H 0.35579 0.76334 0.27667 0.0
H2774 H 0.33218 0.78932 0.20626 0.0
C2775 C 0.42721 0.78374 0.17095 0.0
C2776 C 0.45146 0.77913 0.17849 0.0
C2777 C 0.45548 0.76998 0.20216 0.0
C2778 C 0.43562 0.76617 0.21847 0.0
C2779 C 0.41194 0.77156 0.21073 0.0
C2780 C 0.40762 0.77996 0.18748 0.0
C2781 C 0.38058 0.78585 0.18423 0.0
C2782 C 0.37641 0.81261 0.1777 0.0
C2783 C 0.36971 0.76947 0.16521 0.0
C2784 C 0.37053 0.78002 0.20944 0.0
C2785 C 0.38883 0.77157 0.22439 0.0
C2786 C 0.38402 0.76558 0.24867 0.0
C2787 C 0.35973 0.76811 0.25785 0.0
C2788 C 0.34074 0.77673 0.24276 0.0
C2789 C 0.34631 0.78275 0.21828 0.0
H2790 H 0.0106 0.70005 0.93401 0.0
H2791 H 0.06114 0.73869 0.97784 0.0
H2792 H 0.07045 0.70125 1.00081 0.0
H2793 H 0.9862 0.66248 0.98351 0.0
H2794 H 0.98328 0.63629 0.96497 0.0
H2795 H 0.98099 0.66593 0.9515 0.0
H2796 H 0.01598 0.65462 0.92047 0.0
H2797 H 0.01844 0.62498 0.93391 0.0
H2798 H 0.04521 0.64355 0.93122 0.0
H2799 H 0.07557 0.65867 0.01848 0.0
H2800 H 0.07331 0.61605 0.03147 0.0
H2801 H 0.01759 0.60458 0.97836 0.0
C2802 C 0.02363 0.70065 0.94846 0.0
C2803 C 0.0352 0.72261 0.95393 0.0
C2804 C 0.05196 0.72237 0.97317 0.0
C2805 C 0.05745 0.70105 0.98633 0.0
C2806 C 0.04586 0.67978 0.98045 0.0
C2807 C 0.02904 0.67947 0.96214 0.0
C2808 C 0.01861 0.65429 0.96005 0.0
C2809 C 0.99061 0.65478 0.96532 0.0
C2810 C 0.02494 0.64374 0.93491 0.0
C2811 C 0.03223 0.6405 0.97991 0.0
C2812 C 0.04807 0.65554 0.99126 0.0
C2813 C 0.06307 0.64687 0.00975 0.0
C2814 C 0.06172 0.62246 0.017 0.0
C2815 C 0.04525 0.60662 0.00615 0.0
C2816 C 0.03034 0.61602 0.98723 0.0
H2817 H 0.06739 0.258 0.69459 0.0
H2818 H 0.10682 0.27747 0.6277 0.0
H2819 H 0.1461 0.26507 0.64583 0.0
H2820 H 0.11085 0.28077 0.73367 0.0
H2821 H 0.10758 0.25744 0.75648 0.0
H2822 H 0.08221 0.26512 0.73742 0.0
H2823 H 0.08027 0.22067 0.72417 0.0
H2824 H 0.10582 0.21289 0.74311 0.0
H2825 H 0.1075 0.20598 0.71124 0.0
H2826 H 0.18097 0.25428 0.67157 0.0
H2827 H 0.21006 0.24772 0.7047 0.0
H2828 H 0.14906 0.23505 0.75541 0.0
C2829 C 0.08429 0.25928 0.6837 0.0
C2830 C 0.08412 0.26857 0.65972 0.0
C2831 C 0.10657 0.2704 0.64611 0.0
C2832 C 0.12895 0.26324 0.65618 0.0
C2833 C 0.12855 0.25429 0.67988 0.0
C2834 C 0.10689 0.25237 0.69357 0.0
C2835 C 0.11198 0.24412 0.71931 0.0
C2836 C 0.10261 0.26299 0.7378 0.0
C2837 C 0.10072 0.21944 0.72477 0.0
C2838 C 0.13992 0.24237 0.71807 0.0
C2839 C 0.14899 0.24798 0.695 0.0
C2840 C 0.17414 0.24945 0.6896 0.0
C2841 C 0.19048 0.24572 0.70843 0.0
C2842 C 0.18163 0.24058 0.73229 0.0
C2843 C 0.15611 0.2383 0.7371 0.0
H2844 H 0.51182 0.72394 0.10528 0.0
H2845 H 0.56589 0.7704 0.07054 0.0
H2846 H 0.58837 0.73459 0.05402 0.0
H2847 H 0.55418 0.68146 0.12551 0.0
H2848 H 0.53493 0.6559 0.12147 0.0
H2849 H 0.52106 0.68505 0.12718 0.0
H2850 H 0.49633 0.68263 0.08775 0.0
H2851 H 0.50974 0.6532 0.08223 0.0
H2852 H 0.51249 0.6765 0.05935 0.0
H2853 H 0.60595 0.6929 0.04339 0.0
H2854 H 0.61624 0.64979 0.03868 0.0
H2855 H 0.55283 0.63238 0.0854 0.0
C2856 C 0.52794 0.72667 0.09355 0.0
C2857 C 0.53697 0.74985 0.08883 0.0
C2858 C 0.55857 0.75269 0.07406 0.0
C2859 C 0.57147 0.7325 0.06471 0.0
C2860 C 0.56257 0.70975 0.07059 0.0
C2861 C 0.54123 0.70682 0.08462 0.0
C2862 C 0.53658 0.68067 0.09022 0.0
C2863 C 0.53671 0.67548 0.11772 0.0
C2864 C 0.51236 0.67279 0.07922 0.0
C2865 C 0.55872 0.66929 0.07732 0.0
C2866 C 0.57337 0.68617 0.0658 0.0
C2867 C 0.59455 0.67952 0.05233 0.0
C2868 C 0.60037 0.65488 0.04995 0.0
C2869 C 0.58521 0.63723 0.06129 0.0
C2870 C 0.56464 0.64491 0.0758 0.0
H2871 H 0.11316 0.80204 0.88737 0.0
H2872 H 0.07123 0.75736 0.8405 0.0
H2873 H 0.10808 0.7515 0.81364 0.0
H2874 H 0.1485 0.83152 0.83869 0.0
H2875 H 0.17654 0.83243 0.85532 0.0
H2876 H 0.14707 0.83289 0.87136 0.0
H2877 H 0.16062 0.79564 0.89666 0.0
H2878 H 0.19012 0.79506 0.88068 0.0
H2879 H 0.17131 0.76874 0.88131 0.0
H2880 H 0.1497 0.74934 0.7922 0.0
H2881 H 0.19245 0.7527 0.77639 0.0
H2882 H 0.20839 0.80044 0.83529 0.0
C2883 C 0.11176 0.791 0.87146 0.0
C2884 C 0.08909 0.78007 0.86619 0.0
C2885 C 0.08818 0.76593 0.84504 0.0
C2886 C 0.10911 0.76246 0.82964 0.0
C2887 C 0.13107 0.77341 0.83531 0.0
C2888 C 0.13256 0.78756 0.8556 0.0
C2889 C 0.15844 0.79763 0.85707 0.0
C2890 C 0.15758 0.82526 0.85551 0.0
C2891 C 0.17085 0.78874 0.88031 0.0
C2892 C 0.17122 0.78684 0.83453 0.0
C2893 C 0.15503 0.77279 0.82241 0.0
C2894 C 0.16246 0.76042 0.80149 0.0
C2895 C 0.18693 0.76243 0.79264 0.0
C2896 C 0.20403 0.77692 0.80439 0.0
C2897 C 0.19586 0.78936 0.82568 0.0
H2898 H 0.03838 0.37818 0.62341 0.0
H2899 H 0.9753 0.34895 0.58849 0.0
H2900 H 0.96067 0.38985 0.57802 0.0
H2901 H 0.00768 0.43615 0.64476 0.0
H2902 H 0.03472 0.45335 0.63734 0.0
H2903 H 0.03793 0.4223 0.64683 0.0
H2904 H 0.06349 0.41268 0.60743 0.0
H2905 H 0.06067 0.44369 0.59817 0.0
H2906 H 0.05079 0.42043 0.57844 0.0
H2907 H 0.95572 0.43172 0.56622 0.0
H2908 H 0.96357 0.47209 0.54919 0.0
H2909 H 0.02988 0.47588 0.59059 0.0
C2910 C 0.02125 0.38061 0.61401 0.0
C2911 C 0.00786 0.36062 0.60677 0.0
C2912 C 0.98585 0.36416 0.59402 0.0
C2913 C 0.9772 0.3873 0.58833 0.0
C2914 C 0.99087 0.40673 0.59539 0.0
C2915 C 0.01259 0.40373 0.60769 0.0
C2916 C 0.02562 0.42744 0.60965 0.0
C2917 C 0.02653 0.43527 0.63623 0.0
C2918 C 0.05166 0.42596 0.5977 0.0
C2919 C 0.00845 0.44384 0.59543 0.0
C2920 C 0.98812 0.43158 0.5881 0.0
C2921 C 0.97116 0.44177 0.57232 0.0
C2922 C 0.97572 0.46467 0.56276 0.0
C2923 C 0.99698 0.47702 0.56908 0.0
C2924 C 0.013 0.46701 0.58635 0.0
H2925 H 0.43454 0.27153 0.39005 0.0
H2926 H 0.47525 0.31767 0.33982 0.0
H2927 H 0.44005 0.31873 0.31252 0.0
H2928 H 0.40613 0.23641 0.34402 0.0
H2929 H 0.37703 0.23363 0.36042 0.0
H2930 H 0.40499 0.23701 0.37673 0.0
H2931 H 0.38581 0.27417 0.39862 0.0
H2932 H 0.35775 0.27081 0.38247 0.0
H2933 H 0.37362 0.29894 0.38091 0.0
H2934 H 0.39995 0.31556 0.29056 0.0
H2935 H 0.35863 0.30762 0.27532 0.0
H2936 H 0.34351 0.26169 0.33799 0.0
C2937 C 0.43595 0.28202 0.3734 0.0
C2938 C 0.45786 0.2947 0.3673 0.0
C2939 C 0.45886 0.30787 0.34509 0.0
C2940 C 0.43887 0.30857 0.32939 0.0
C2941 C 0.41772 0.2958 0.33577 0.0
C2942 C 0.4161 0.28267 0.35722 0.0
C2943 C 0.39133 0.27014 0.35933 0.0
C2944 C 0.3951 0.24266 0.36018 0.0
C2945 C 0.37624 0.27905 0.38166 0.0
C2946 C 0.37932 0.27831 0.33582 0.0
C2947 C 0.39489 0.29324 0.32262 0.0
C2948 C 0.38774 0.30372 0.3007 0.0
C2949 C 0.36414 0.29905 0.29212 0.0
C2950 C 0.34771 0.28372 0.3051 0.0
C2951 C 0.35567 0.2731 0.32726 0.0
H2952 H 0.45366 0.5854 0.3112 0.0
H2953 H 0.37888 0.57815 0.3403 0.0
H2954 H 0.39432 0.57866 0.38192 0.0
H2955 H 0.48176 0.54682 0.3519 0.0
H2956 H 0.50936 0.56386 0.35481 0.0
H2957 H 0.49233 0.56615 0.32738 0.0
H2958 H 0.48825 0.6124 0.33201 0.0
H2959 H 0.50561 0.61033 0.35933 0.0
H2960 H 0.47549 0.62473 0.3599 0.0
H2961 H 0.4183 0.57411 0.4197 0.0
H2962 H 0.44911 0.56908 0.45164 0.0
H2963 H 0.508 0.58072 0.39815 0.0
C2964 C 0.44048 0.58456 0.32634 0.0
C2965 C 0.4151 0.58177 0.32261 0.0
C2966 C 0.3984 0.58042 0.34282 0.0
C2967 C 0.40699 0.58066 0.3665 0.0
C2968 C 0.43225 0.58257 0.36956 0.0
C2969 C 0.44872 0.58493 0.35007 0.0
C2970 C 0.47506 0.58535 0.35826 0.0
C2971 C 0.49052 0.56429 0.34744 0.0
C2972 C 0.48679 0.60966 0.35201 0.0
C2973 C 0.47087 0.58217 0.38534 0.0
C2974 C 0.44605 0.58059 0.39149 0.0
C2975 C 0.43775 0.57579 0.41519 0.0
C2976 C 0.45531 0.57273 0.43312 0.0
C2977 C 0.48076 0.57467 0.4272 0.0
C2978 C 0.48858 0.5796 0.40307 0.0
H2979 H 0.30919 0.74006 0.06697 0.0
H2980 H 0.23723 0.71122 0.05407 0.0
H2981 H 0.21835 0.73914 0.08425 0.0
H2982 H 0.30245 0.7447 0.1287 0.0
H2983 H 0.31867 0.77246 0.13108 0.0
H2984 H 0.32574 0.75274 0.10615 0.0
H2985 H 0.31669 0.7877 0.07585 0.0
H2986 H 0.30954 0.80749 0.10087 0.0
H2987 H 0.28733 0.80354 0.0777 0.0
H2988 H 0.20885 0.76465 0.12078 0.0
H2989 H 0.20935 0.78763 0.15908 0.0
H2990 H 0.28671 0.80176 0.14594 0.0
C2991 C 0.28938 0.74004 0.07009 0.0
C2992 C 0.27463 0.72357 0.05826 0.0
C2993 C 0.24881 0.72387 0.06288 0.0
C2994 C 0.23793 0.73967 0.07994 0.0
C2995 C 0.2531 0.75533 0.09177 0.0
C2996 C 0.27823 0.7559 0.08676 0.0
C2997 C 0.29076 0.77308 0.10316 0.0
C2998 C 0.31055 0.75994 0.11816 0.0
C2999 C 0.30172 0.79421 0.08851 0.0
C3000 C 0.26896 0.78128 0.11895 0.0
C3001 C 0.24733 0.77099 0.11205 0.0
C3002 C 0.22545 0.77348 0.12588 0.0
C3003 C 0.22584 0.78648 0.14751 0.0
C3004 C 0.24784 0.79697 0.15481 0.0
C3005 C 0.26944 0.79477 0.14007 0.0
H3006 H 0.08861 0.52492 0.85552 0.0
H3007 H 0.16456 0.50539 0.87073 0.0
H3008 H 0.15284 0.49902 0.91392 0.0
H3009 H 0.07596 0.55776 0.90884 0.0
H3010 H 0.04465 0.54787 0.91272 0.0
H3011 H 0.05889 0.54932 0.88285 0.0
H3012 H 0.04925 0.50437 0.87661 0.0
H3013 H 0.03523 0.50274 0.90665 0.0
H3014 H 0.06001 0.48211 0.89811 0.0
H3015 H 0.13371 0.49784 0.95549 0.0
H3016 H 0.10853 0.50324 0.99318 0.0
H3017 H 0.04478 0.52198 0.95055 0.0
C3018 C 0.10273 0.51922 0.86794 0.0
C3019 C 0.12745 0.51568 0.85993 0.0
C3020 C 0.14548 0.50821 0.87661 0.0
C3021 C 0.139 0.50441 0.9011 0.0
C3022 C 0.11441 0.50793 0.90842 0.0
C3023 C 0.09656 0.51517 0.89237 0.0
C3024 C 0.07171 0.51882 0.90511 0.0
C3025 C 0.06226 0.54499 0.90221 0.0
C3026 C 0.05295 0.50094 0.89608 0.0
C3027 C 0.07855 0.51315 0.93095 0.0
C3028 C 0.10322 0.50669 0.93244 0.0
C3029 C 0.11428 0.50248 0.95458 0.0
C3030 C 0.09985 0.50559 0.97584 0.0
C3031 C 0.07471 0.51278 0.97467 0.0
C3032 C 0.06382 0.51595 0.95194 0.0
H3033 H 0.28998 0.39131 0.62256 0.0
H3034 H 0.26245 0.33444 0.57837 0.0
H3035 H 0.25817 0.30834 0.61469 0.0
H3036 H 0.32609 0.35151 0.66162 0.0
H3037 H 0.31977 0.3686 0.68877 0.0
H3038 H 0.31999 0.38347 0.65952 0.0
H3039 H 0.27576 0.40015 0.66846 0.0
H3040 H 0.27541 0.3853 0.69772 0.0
H3041 H 0.25156 0.37961 0.67665 0.0
H3042 H 0.25513 0.28844 0.65616 0.0
H3043 H 0.25678 0.2752 0.69903 0.0
H3044 H 0.28919 0.34297 0.71733 0.0
C3045 C 0.283 0.37339 0.62056 0.0
C3046 C 0.27643 0.36511 0.59733 0.0
C3047 C 0.26763 0.34136 0.59571 0.0
C3048 C 0.26506 0.32634 0.61636 0.0
C3049 C 0.27167 0.33494 0.63886 0.0
C3050 C 0.28073 0.35782 0.64113 0.0
C3051 C 0.28722 0.36212 0.6675 0.0
C3052 C 0.31491 0.3667 0.66946 0.0
C3053 C 0.27156 0.38304 0.67821 0.0
C3054 C 0.28031 0.33819 0.6796 0.0
C3055 C 0.27109 0.32292 0.66269 0.0
C3056 C 0.26258 0.3002 0.66946 0.0
C3057 C 0.26358 0.2928 0.69397 0.0
C3058 C 0.2734 0.30776 0.71175 0.0
C3059 C 0.28193 0.33084 0.70425 0.0
H3060 H 0.4374 0.5222 0.19056 0.0
H3061 H 0.47365 0.5817 0.2236 0.0
H3062 H 0.50976 0.57551 0.19569 0.0
H3063 H 0.49363 0.48463 0.17612 0.0
H3064 H 0.48186 0.47566 0.14748 0.0
H3065 H 0.46087 0.48196 0.17273 0.0
H3066 H 0.43725 0.51337 0.14648 0.0
H3067 H 0.45794 0.50693 0.1212 0.0
H3068 H 0.45403 0.53738 0.13174 0.0
H3069 H 0.53928 0.56614 0.16141 0.0
H3070 H 0.55792 0.55726 0.12108 0.0
H3071 H 0.5021 0.50409 0.11016 0.0
C3072 C 0.45319 0.53356 0.19228 0.0
C3073 C 0.45293 0.55229 0.20927 0.0
C3074 C 0.4736 0.5672 0.21068 0.0
C3075 C 0.49425 0.56367 0.19508 0.0
C3076 C 0.49384 0.54515 0.1783 0.0
C3077 C 0.47377 0.53043 0.17672 0.0
C3078 C 0.47646 0.51396 0.15515 0.0
C3079 C 0.47832 0.48748 0.16337 0.0
C3080 C 0.45517 0.51818 0.13761 0.0
C3081 C 0.50073 0.52237 0.14424 0.0
C3082 C 0.51077 0.53995 0.15818 0.0
C3083 C 0.53187 0.55209 0.15055 0.0
C3084 C 0.54235 0.5469 0.12762 0.0
C3085 C 0.53147 0.52994 0.11251 0.0
C3086 C 0.51107 0.51684 0.12144 0.0
H3087 H 0.30675 0.7265 0.9491 0.0
H3088 H 0.31889 0.65147 0.93057 0.0
H3089 H 0.31789 0.66233 0.88694 0.0
H3090 H 0.26445 0.74066 0.90436 0.0
H3091 H 0.27564 0.77046 0.89816 0.0
H3092 H 0.27929 0.75694 0.92769 0.0
H3093 H 0.32648 0.76335 0.9241 0.0
H3094 H 0.32295 0.77695 0.89453 0.0
H3095 H 0.34384 0.75159 0.89829 0.0
H3096 H 0.31131 0.68103 0.84563 0.0
H3097 H 0.30163 0.70645 0.80982 0.0
H3098 H 0.29571 0.76918 0.85588 0.0
C3099 C 0.30952 0.7124 0.93585 0.0
C3100 C 0.31287 0.68817 0.94309 0.0
C3101 C 0.31638 0.67018 0.9253 0.0
C3102 C 0.31585 0.67616 0.90053 0.0
C3103 C 0.31214 0.70023 0.89398 0.0
C3104 C 0.30931 0.71808 0.91114 0.0
C3105 C 0.30469 0.74244 0.89948 0.0
C3106 C 0.27952 0.75324 0.90792 0.0
C3107 C 0.32575 0.75959 0.90439 0.0
C3108 C 0.30473 0.73544 0.8731 0.0
C3109 C 0.3091 0.71104 0.87022 0.0
C3110 C 0.3083 0.70023 0.84759 0.0
C3111 C 0.30274 0.71476 0.8274 0.0
C3112 C 0.2982 0.73978 0.83008 0.0
C3113 C 0.29954 0.75018 0.85319 0.0
H3114 H 0.0932 0.51129 0.72101 0.0
H3115 H 0.08898 0.58136 0.75477 0.0
H3116 H 0.06565 0.59749 0.72 0.0
H3117 H 0.10718 0.53195 0.66426 0.0
H3118 H 0.09018 0.50991 0.6484 0.0
H3119 H 0.10171 0.50282 0.67787 0.0
H3120 H 0.0576 0.4926 0.69375 0.0
H3121 H 0.04596 0.49937 0.66412 0.0
H3122 H 0.03283 0.51445 0.69041 0.0
H3123 H 0.04803 0.60687 0.67885 0.0
H3124 H 0.03714 0.60868 0.6359 0.0
H3125 H 0.05563 0.5324 0.62968 0.0
C3126 C 0.0867 0.52985 0.72151 0.0
C3127 C 0.09272 0.54509 0.74053 0.0
C3128 C 0.08432 0.56937 0.74037 0.0
C3129 C 0.07108 0.57866 0.72073 0.0
C3130 C 0.06639 0.56331 0.70168 0.0
C3131 C 0.07379 0.53935 0.70209 0.0
C3132 C 0.06926 0.5272 0.67839 0.0
C3133 C 0.09352 0.51742 0.66655 0.0
C3134 C 0.05027 0.50723 0.68189 0.0
C3135 C 0.05886 0.54824 0.66423 0.0
C3136 C 0.05693 0.56882 0.67795 0.0
C3137 C 0.04915 0.59076 0.66804 0.0
C3138 C 0.04319 0.59161 0.64345 0.0
C3139 C 0.04541 0.57068 0.62894 0.0
C3140 C 0.05322 0.54879 0.63983 0.0
H3141 H 0.28154 0.39572 0.43824 0.0
H3142 H 0.27847 0.33332 0.48629 0.0
H3143 H 0.27278 0.30731 0.45125 0.0
H3144 H 0.23675 0.37641 0.39537 0.0
H3145 H 0.25329 0.38715 0.36864 0.0
H3146 H 0.25684 0.40165 0.39734 0.0
H3147 H 0.30409 0.3946 0.39365 0.0
H3148 H 0.30065 0.38025 0.36486 0.0
H3149 H 0.31636 0.36457 0.3889 0.0
H3150 H 0.26555 0.28773 0.4119 0.0
H3151 H 0.26194 0.27464 0.36998 0.0
H3152 H 0.27235 0.34804 0.34426 0.0
C3153 C 0.27977 0.37657 0.44133 0.0
C3154 C 0.28043 0.36672 0.46538 0.0
C3155 C 0.27815 0.34149 0.46835 0.0
C3156 C 0.27477 0.32648 0.44845 0.0
C3157 C 0.27401 0.33664 0.4252 0.0
C3158 C 0.27685 0.36102 0.42134 0.0
C3159 C 0.27615 0.36677 0.39405 0.0
C3160 C 0.25447 0.38402 0.38853 0.0
C3161 C 0.30078 0.37717 0.38482 0.0
C3162 C 0.27225 0.34187 0.38338 0.0
C3163 C 0.27083 0.32494 0.40193 0.0
C3164 C 0.26684 0.30082 0.39724 0.0
C3165 C 0.26471 0.29356 0.37311 0.0
C3166 C 0.26681 0.3101 0.3533 0.0
C3167 C 0.2705 0.33479 0.35873 0.0
H3168 H 0.36729 0.43122 0.54925 0.0
H3169 H 0.3229 0.48028 0.50598 0.0
H3170 H 0.35726 0.50853 0.50324 0.0
H3171 H 0.39722 0.47761 0.58333 0.0
H3172 H 0.42675 0.4621 0.5838 0.0
H3173 H 0.39887 0.44521 0.58235 0.0
H3174 H 0.41586 0.42433 0.54343 0.0
H3175 H 0.44381 0.44107 0.54483 0.0
H3176 H 0.42598 0.44243 0.51779 0.0
H3177 H 0.39693 0.53129 0.50366 0.0
H3178 H 0.4386 0.54725 0.50812 0.0
H3179 H 0.45814 0.48545 0.55292 0.0
C3180 C 0.36482 0.44789 0.53918 0.0
C3181 C 0.34211 0.45333 0.52775 0.0
C3182 C 0.33986 0.4755 0.5149 0.0
C3183 C 0.35939 0.49177 0.51323 0.0
C3184 C 0.38136 0.48598 0.52468 0.0
C3185 C 0.38424 0.46463 0.53751 0.0
C3186 C 0.40992 0.46311 0.54822 0.0
C3187 C 0.40807 0.46194 0.57609 0.0
C3188 C 0.42477 0.44145 0.53796 0.0
C3189 C 0.42096 0.48683 0.53933 0.0
C3190 C 0.4041 0.49962 0.52565 0.0
C3191 C 0.41014 0.52152 0.51457 0.0
C3192 C 0.43395 0.53051 0.51726 0.0
C3193 C 0.45173 0.518 0.53124 0.0
C3194 C 0.4449 0.49586 0.54261 0.0
H3195 H 0.88018 0.13632 0.52316 0.0
H3196 H 0.82964 0.07887 0.54101 0.0
H3197 H 0.86495 0.0504 0.54511 0.0
H3198 H 0.92068 0.10189 0.48628 0.0
H3199 H 0.94835 0.11605 0.49558 0.0
H3200 H 0.91942 0.13253 0.49665 0.0
H3201 H 0.92474 0.14106 0.54224 0.0
H3202 H 0.9538 0.1247 0.5413 0.0
H3203 H 0.92991 0.11631 0.56305 0.0
H3204 H 0.90545 0.0278 0.54487 0.0
H3205 H 0.94847 0.01259 0.54011 0.0
H3206 H 0.97208 0.08476 0.52118 0.0
C3207 C 0.87659 0.11785 0.52839 0.0
C3208 C 0.85229 0.10975 0.53193 0.0
C3209 C 0.84821 0.08539 0.53831 0.0
C3210 C 0.8681 0.06912 0.54072 0.0
C3211 C 0.89186 0.07757 0.53664 0.0
C3212 C 0.8962 0.10137 0.53067 0.0
C3213 C 0.92336 0.10552 0.5257 0.0
C3214 C 0.92822 0.11452 0.49949 0.0
C3215 C 0.93355 0.12292 0.54418 0.0
C3216 C 0.93353 0.08025 0.52941 0.0
C3217 C 0.91513 0.06444 0.53595 0.0
C3218 C 0.92006 0.04002 0.53989 0.0
C3219 C 0.9445 0.03155 0.53709 0.0
C3220 C 0.96356 0.04747 0.53019 0.0
C3221 C 0.95791 0.07212 0.52639 0.0
H3222 H 0.68811 0.09181 0.29641 0.0
H3223 H 0.71033 0.05099 0.23249 0.0
H3224 H 0.73235 0.08645 0.21582 0.0
H3225 H 0.67506 0.14592 0.26592 0.0
H3226 H 0.68606 0.16474 0.28947 0.0
H3227 H 0.67415 0.13557 0.29707 0.0
H3228 H 0.71506 0.12364 0.31774 0.0
H3229 H 0.72703 0.15287 0.31038 0.0
H3230 H 0.7439 0.12616 0.30084 0.0
H3231 H 0.75039 0.12741 0.20582 0.0
H3232 H 0.76328 0.16974 0.20359 0.0
H3233 H 0.72625 0.18284 0.27333 0.0
C3234 C 0.69791 0.09014 0.27906 0.0
C3235 C 0.69768 0.06873 0.26573 0.0
C3236 C 0.71045 0.06731 0.24298 0.0
C3237 C 0.72295 0.08731 0.23341 0.0
C3238 C 0.72234 0.10838 0.24688 0.0
C3239 C 0.71019 0.10982 0.26925 0.0
C3240 C 0.71111 0.13467 0.27972 0.0
C3241 C 0.68505 0.14588 0.28323 0.0
C3242 C 0.72511 0.1343 0.30357 0.0
C3243 C 0.72551 0.14716 0.25963 0.0
C3244 C 0.73204 0.13179 0.24091 0.0
C3245 C 0.74538 0.1396 0.2204 0.0
C3246 C 0.75243 0.16373 0.21921 0.0
C3247 C 0.74591 0.17968 0.23835 0.0
C3248 C 0.73204 0.17115 0.2586 0.0
H3249 H 0.69233 0.93917 0.00986 0.0
H3250 H 0.72604 0.97415 0.06991 0.0
H3251 H 0.68806 0.99894 0.07667 0.0
H3252 H 0.66055 0.99274 0.98702 0.0
H3253 H 0.63365 0.97686 0.97839 0.0
H3254 H 0.66329 0.96157 0.97851 0.0
H3255 H 0.64529 0.92883 0.00735 0.0
H3256 H 0.61562 0.94407 0.00737 0.0
H3257 H 0.63033 0.93758 0.03565 0.0
H3258 H 0.64532 0.0192 0.0779 0.0
H3259 H 0.60303 0.03511 0.07163 0.0
H3260 H 0.5973 0.98887 0.00939 0.0
C3261 C 0.69174 0.95207 0.02442 0.0
C3262 C 0.71235 0.95457 0.03942 0.0
C3263 C 0.71068 0.97182 0.05815 0.0
C3264 C 0.68908 0.98598 0.06217 0.0
C3265 C 0.66911 0.98302 0.04718 0.0
C3266 C 0.67033 0.96665 0.02849 0.0
C3267 C 0.64643 0.96743 0.01466 0.0
C3268 C 0.65127 0.97511 0.98807 0.0
C3269 C 0.63367 0.94303 0.01636 0.0
C3270 C 0.63154 0.98668 0.0285 0.0
C3271 C 0.64491 0.99528 0.04734 0.0
C3272 C 0.63483 0.01267 0.06307 0.0
C3273 C 0.61067 0.0216 0.05939 0.0
C3274 C 0.59667 0.01348 0.03993 0.0
C3275 C 0.60745 0.99571 0.02432 0.0
H3276 H 0.35127 0.49118 0.2275 0.0
H3277 H 0.36916 0.49453 0.30357 0.0
H3278 H 0.3481 0.45617 0.31142 0.0
H3279 H 0.29137 0.46568 0.23579 0.0
H3280 H 0.29479 0.44634 0.20985 0.0
H3281 H 0.31082 0.47435 0.21017 0.0
H3282 H 0.3525 0.45163 0.20217 0.0
H3283 H 0.33657 0.42359 0.20159 0.0
H3284 H 0.36137 0.42722 0.22215 0.0
H3285 H 0.32432 0.41857 0.31123 0.0
H3286 H 0.3026 0.38154 0.30254 0.0
H3287 H 0.3023 0.40131 0.22603 0.0
C3288 C 0.35073 0.4838 0.24579 0.0
C3289 C 0.36167 0.49571 0.26498 0.0
C3290 C 0.36088 0.48553 0.28864 0.0
C3291 C 0.34888 0.46389 0.29329 0.0
C3292 C 0.33805 0.45267 0.27401 0.0
C3293 C 0.33912 0.46206 0.25068 0.0
C3294 C 0.3268 0.4459 0.23308 0.0
C3295 C 0.30462 0.45885 0.22155 0.0
C3296 C 0.34542 0.43653 0.2136 0.0
C3297 C 0.31858 0.42599 0.25021 0.0
C3298 C 0.32507 0.43041 0.27374 0.0
C3299 C 0.31939 0.41473 0.29283 0.0
C3300 C 0.30718 0.39365 0.28764 0.0
C3301 C 0.30109 0.38828 0.26349 0.0
C3302 C 0.30658 0.40491 0.24465 0.0
H3303 H 0.24781 0.62299 0.06363 0.0
H3304 H 0.26308 0.60013 0.98961 0.0
H3305 H 0.22956 0.57095 0.99362 0.0
H3306 H 0.22833 0.56314 0.08887 0.0
H3307 H 0.20436 0.57682 0.10783 0.0
H3308 H 0.23225 0.59284 0.1007 0.0
H3309 H 0.20628 0.62868 0.08391 0.0
H3310 H 0.17841 0.6128 0.0909 0.0
H3311 H 0.18475 0.62349 0.06038 0.0
H3312 H 0.19154 0.5486 0.00346 0.0
H3313 H 0.15076 0.53491 0.01828 0.0
H3314 H 0.15949 0.57242 0.08578 0.0
C3315 C 0.24452 0.61134 0.04853 0.0
C3316 C 0.25807 0.61361 0.02637 0.0
C3317 C 0.25292 0.59855 0.00677 0.0
C3318 C 0.23404 0.58185 0.00893 0.0
C3319 C 0.22058 0.58043 0.03082 0.0
C3320 C 0.2256 0.5947 0.05034 0.0
C3321 C 0.20666 0.59155 0.07085 0.0
C3322 C 0.21862 0.58042 0.0934 0.0
C3323 C 0.19324 0.61555 0.07684 0.0
C3324 C 0.18964 0.57405 0.05942 0.0
C3325 C 0.19828 0.56756 0.03649 0.0
C3326 C 0.18478 0.55321 0.02152 0.0
C3327 C 0.1616 0.54568 0.03 0.0
C3328 C 0.15213 0.55262 0.05315 0.0
C3329 C 0.16661 0.56647 0.06825 0.0
H3330 H 0.71835 0.95447 0.2812 0.0
H3331 H 0.65606 0.9377 0.32937 0.0
H3332 H 0.67641 0.89937 0.34078 0.0
H3333 H 0.72638 0.89732 0.25802 0.0
H3334 H 0.75959 0.89772 0.25574 0.0
H3335 H 0.74203 0.92547 0.25438 0.0
H3336 H 0.7664 0.94169 0.29022 0.0
H3337 H 0.78384 0.91374 0.29185 0.0
H3338 H 0.76715 0.92483 0.31836 0.0
H3339 H 0.69995 0.86154 0.34298 0.0
H3340 H 0.72408 0.82463 0.33335 0.0
H3341 H 0.7719 0.86528 0.28437 0.0
C3342 C 0.70924 0.94286 0.29444 0.0
C3343 C 0.68573 0.94894 0.30447 0.0
C3344 C 0.67409 0.93326 0.32144 0.0
C3345 C 0.68561 0.91162 0.32826 0.0
C3346 C 0.70877 0.90604 0.318 0.0
C3347 C 0.72045 0.92109 0.30135 0.0
C3348 C 0.7439 0.90949 0.29092 0.0
C3349 C 0.74289 0.90737 0.26313 0.0
C3350 C 0.76667 0.92326 0.29829 0.0
C3351 C 0.74287 0.88513 0.30343 0.0
C3352 C 0.72273 0.8838 0.31941 0.0
C3353 C 0.71611 0.86244 0.33101 0.0
C3354 C 0.72985 0.84162 0.32542 0.0
C3355 C 0.74989 0.84244 0.30844 0.0
C3356 C 0.75709 0.86452 0.298 0.0
H3357 H 0.87015 0.11569 0.7846 0.0
H3358 H 0.8586 0.10054 0.70885 0.0
H3359 H 0.82882 0.13485 0.70687 0.0
H3360 H 0.80626 0.13814 0.80037 0.0
H3361 H 0.81779 0.16087 0.81979 0.0
H3362 H 0.83439 0.1326 0.8163 0.0
H3363 H 0.87384 0.1555 0.80314 0.0
H3364 H 0.85739 0.18373 0.80643 0.0
H3365 H 0.87273 0.17641 0.7779 0.0
H3366 H 0.80479 0.17384 0.71189 0.0
H3367 H 0.78947 0.21454 0.7232 0.0
H3368 H 0.81802 0.20386 0.79531 0.0
C3369 C 0.86085 0.11917 0.76776 0.0
C3370 C 0.8665 0.10551 0.74691 0.0
C3371 C 0.85435 0.11081 0.72507 0.0
C3372 C 0.83737 0.13016 0.72382 0.0
C3373 C 0.83274 0.14376 0.7446 0.0
C3374 C 0.84407 0.13838 0.7662 0.0
C3375 C 0.83829 0.1572 0.78514 0.0
C3376 C 0.82328 0.14656 0.80667 0.0
C3377 C 0.86197 0.16889 0.79362 0.0
C3378 C 0.82282 0.17459 0.77054 0.0
C3379 C 0.81933 0.16637 0.74736 0.0
C3380 C 0.80704 0.18027 0.73012 0.0
C3381 C 0.79845 0.20334 0.73668 0.0
C3382 C 0.80264 0.21223 0.76011 0.0
C3383 C 0.81451 0.19746 0.77729 0.0
loop_
_geom_bond_atom_site_label_1
_geom_bond_atom_site_label_2
_geom_bond_distance
_geom_bond_site_symmetry_2
_ccdc_geom_bond_type
In0 O1 2.294 . S
In0 O2 2.326 . S
In0 O6 2.266 . S
In0 O7 2.326 . S
In0 O8 2.266 . S
In0 O9 2.326 . S
In0 O11 2.294 1_455 S
In0 O12 2.326 1_455 S
O1 In0 2.294 . S
O1 C10 1.240 . S
O2 In0 2.326 . S
O2 C10 1.252 . S
C3 O6 1.252 . S
C3 O7 1.260 . S
C4 O11 1.240 . S
C4 O12 1.252 . S
C5 O8 1.252 . S
C5 O9 1.260 . S
O6 In0 2.266 . S
O6 C3 1.252 . S
O7 In0 2.326 . S
O7 C3 1.260 . S
O8 In0 2.266 . S
O8 C5 1.252 . S
O9 In0 2.326 . S
O9 C5 1.260 . S
C10 O1 1.240 . S
C10 O2 1.252 . S
O11 In0 2.294 1_655 S
O11 C4 1.240 . S
O12 In0 2.326 1_655 S
O12 C4 1.252 . S
In13 O14 2.294 . S
In13 O15 2.326 . S
In13 O19 2.266 . S
In13 O20 2.326 . S
In13 O21 2.266 . S
In13 O22 2.326 . S
In13 O24 2.294 . S
In13 O25 2.326 . S
O14 In13 2.294 . S
O14 C23 1.240 . S
O15 In13 2.326 . S
O15 C23 1.252 . S
C16 O19 1.252 . S
C16 O20 1.260 . S
C17 O24 1.240 . S
C17 O25 1.252 . S
C18 O21 1.252 . S
C18 O22 1.260 . S
O19 In13 2.266 . S
O19 C16 1.252 . S
O20 In13 2.326 . S
O20 C16 1.260 . S
O21 In13 2.266 . S
O21 C18 1.252 . S
O22 In13 2.326 . S
O22 C18 1.260 . S
C23 O14 1.240 . S
C23 O15 1.252 . S
O24 In13 2.294 . S
O24 C17 1.240 . S
O25 In13 2.326 . S
O25 C17 1.252 . S
In26 O27 2.294 . S
In26 O28 2.326 . S
In26 O32 2.266 . S
In26 O33 2.326 . S
In26 O34 2.266 . S
In26 O35 2.326 . S
In26 O37 2.294 . S
In26 O38 2.326 . S
O27 In26 2.294 . S
O27 C36 1.240 . S
O28 In26 2.326 . S
O28 C36 1.252 . S
C29 O32 1.252 . S
C29 O33 1.260 . S
C30 O37 1.240 . S
C30 O38 1.252 . S
C31 O34 1.252 . S
C31 O35 1.260 . S
O32 In26 2.266 . S
O32 C29 1.252 . S
O33 In26 2.326 . S
O33 C29 1.260 . S
O34 In26 2.266 . S
O34 C31 1.252 . S
O35 In26 2.326 . S
O35 C31 1.260 . S
C36 O27 1.240 . S
C36 O28 1.252 . S
O37 In26 2.294 . S
O37 C30 1.240 . S
O38 In26 2.326 . S
O38 C30 1.252 . S
In39 O40 2.294 . S
In39 O41 2.326 . S
In39 O45 2.266 . S
In39 O46 2.326 . S
In39 O47 2.266 . S
In39 O48 2.326 . S
In39 O50 2.294 . S
In39 O51 2.326 . S
O40 In39 2.294 . S
O40 C49 1.240 . S
O41 In39 2.326 . S
O41 C49 1.252 . S
C42 O45 1.252 . S
C42 O46 1.260 . S
C43 O50 1.240 . S
C43 O51 1.252 . S
C44 O47 1.252 . S
C44 O48 1.260 . S
O45 In39 2.266 . S
O45 C42 1.252 . S
O46 In39 2.326 . S
O46 C42 1.260 . S
O47 In39 2.266 . S
O47 C44 1.252 . S
O48 In39 2.326 . S
O48 C44 1.260 . S
C49 O40 1.240 . S
C49 O41 1.252 . S
O50 In39 2.294 . S
O50 C43 1.240 . S
O51 In39 2.326 . S
O51 C43 1.252 . S
In52 O53 2.294 1_545 S
In52 O54 2.326 1_545 S
In52 O58 2.266 . S
In52 O59 2.326 . S
In52 O60 2.266 . S
In52 O61 2.326 . S
In52 O63 2.294 . S
In52 O64 2.326 . S
O53 In52 2.294 1_565 S
O53 C62 1.240 . S
O54 In52 2.326 1_565 S
O54 C62 1.252 . S
C55 O58 1.252 . S
C55 O59 1.260 . S
C56 O63 1.240 . S
C56 O64 1.252 . S
C57 O60 1.252 . S
C57 O61 1.260 . S
O58 In52 2.266 . S
O58 C55 1.252 . S
O59 In52 2.326 . S
O59 C55 1.260 . S
O60 In52 2.266 . S
O60 C57 1.252 . S
O61 In52 2.326 . S
O61 C57 1.260 . S
C62 O53 1.240 . S
C62 O54 1.252 . S
O63 In52 2.294 . S
O63 C56 1.240 . S
O64 In52 2.326 . S
O64 C56 1.252 . S
In65 O66 2.294 . S
In65 O67 2.326 . S
In65 O71 2.266 . S
In65 O72 2.326 . S
In65 O73 2.266 . S
In65 O74 2.326 . S
In65 O76 2.294 . S
In65 O77 2.326 . S
O66 In65 2.294 . S
O66 C75 1.240 . S
O67 In65 2.326 . S
O67 C75 1.252 . S
C68 O71 1.252 . S
C68 O72 1.260 . S
C69 O76 1.240 . S
C69 O77 1.252 . S
C70 O73 1.252 . S
C70 O74 1.260 . S
O71 In65 2.266 . S
O71 C68 1.252 . S
O72 In65 2.326 . S
O72 C68 1.260 . S
O73 In65 2.266 . S
O73 C70 1.252 . S
O74 In65 2.326 . S
O74 C70 1.260 . S
C75 O66 1.240 . S
C75 O67 1.252 . S
O76 In65 2.294 . S
O76 C69 1.240 . S
O77 In65 2.326 . S
O77 C69 1.252 . S
In78 O79 2.294 . S
In78 O80 2.326 . S
In78 O84 2.266 . S
In78 O85 2.326 . S
In78 O86 2.266 . S
In78 O87 2.326 . S
In78 O89 2.294 . S
In78 O90 2.326 . S
O79 In78 2.294 . S
O79 C88 1.240 . S
O80 In78 2.326 . S
O80 C88 1.252 . S
C81 O84 1.252 . S
C81 O85 1.260 . S
C82 O89 1.240 . S
C82 O90 1.252 . S
C83 O86 1.252 . S
C83 O87 1.260 . S
O84 In78 2.266 . S
O84 C81 1.252 . S
O85 In78 2.326 . S
O85 C81 1.260 . S
O86 In78 2.266 . S
O86 C83 1.252 . S
O87 In78 2.326 . S
O87 C83 1.260 . S
C88 O79 1.240 . S
C88 O80 1.252 . S
O89 In78 2.294 . S
O89 C82 1.240 . S
O90 In78 2.326 . S
O90 C82 1.252 . S
In91 O92 2.294 . S
In91 O93 2.326 . S
In91 O97 2.266 . S
In91 O98 2.326 . S
In91 O99 2.266 . S
In91 O100 2.326 1_554 S
In91 O102 2.294 . S
In91 O103 2.326 . S
O92 In91 2.294 . S
O92 C101 1.240 . S
O93 In91 2.326 . S
O93 C101 1.252 . S
C94 O97 1.252 . S
C94 O98 1.260 . S
C95 O102 1.240 . S
C95 O103 1.252 . S
C96 O99 1.252 1_556 S
C96 O100 1.260 . S
O97 In91 2.266 . S
O97 C94 1.252 . S
O98 In91 2.326 . S
O98 C94 1.260 . S
O99 In91 2.266 . S
O99 C96 1.252 1_554 S
O100 In91 2.326 1_556 S
O100 C96 1.260 . S
C101 O92 1.240 . S
C101 O93 1.252 . S
O102 In91 2.294 . S
O102 C95 1.240 . S
O103 In91 2.326 . S
O103 C95 1.252 . S
In104 O105 2.294 . S
In104 O106 2.326 . S
In104 O110 2.266 . S
In104 O111 2.326 . S
In104 O112 2.266 . S
In104 O113 2.326 . S
In104 O115 2.294 . S
In104 O116 2.326 . S
O105 In104 2.294 . S
O105 C114 1.240 . S
O106 In104 2.326 . S
O106 C114 1.252 . S
C107 O110 1.252 . S
C107 O111 1.260 . S
C108 O115 1.240 . S
C108 O116 1.252 . S
C109 O112 1.252 . S
C109 O113 1.260 . S
O110 In104 2.266 . S
O110 C107 1.252 . S
O111 In104 2.326 . S
O111 C107 1.260 . S
O112 In104 2.266 . S
O112 C109 1.252 . S
O113 In104 2.326 . S
O113 C109 1.260 . S
C114 O105 1.240 . S
C114 O106 1.252 . S
O115 In104 2.294 . S
O115 C108 1.240 . S
O116 In104 2.326 . S
O116 C108 1.252 . S
In117 O118 2.294 . S
In117 O119 2.326 . S
In117 O123 2.266 . S
In117 O124 2.326 . S
In117 O125 2.266 . S
In117 O126 2.326 . S
In117 O128 2.294 . S
In117 O129 2.326 . S
O118 In117 2.294 . S
O118 C127 1.240 . S
O119 In117 2.326 . S
O119 C127 1.252 . S
C120 O123 1.252 . S
C120 O124 1.260 . S
C121 O128 1.240 . S
C121 O129 1.252 . S
C122 O125 1.252 . S
C122 O126 1.260 . S
O123 In117 2.266 . S
O123 C120 1.252 . S
O124 In117 2.326 . S
O124 C120 1.260 . S
O125 In117 2.266 . S
O125 C122 1.252 . S
O126 In117 2.326 . S
O126 C122 1.260 . S
C127 O118 1.240 . S
C127 O119 1.252 . S
O128 In117 2.294 . S
O128 C121 1.240 . S
O129 In117 2.326 . S
O129 C121 1.252 . S
In130 O131 2.294 . S
In130 O132 2.326 . S
In130 O136 2.266 . S
In130 O137 2.326 . S
In130 O138 2.266 . S
In130 O139 2.326 . S
In130 O141 2.294 . S
In130 O142 2.326 . S
O131 In130 2.294 . S
O131 C140 1.240 . S
O132 In130 2.326 . S
O132 C140 1.252 . S
C133 O136 1.252 . S
C133 O137 1.260 . S
C134 O141 1.240 . S
C134 O142 1.252 . S
C135 O138 1.252 . S
C135 O139 1.260 . S
O136 In130 2.266 . S
O136 C133 1.252 . S
O137 In130 2.326 . S
O137 C133 1.260 . S
O138 In130 2.266 . S
O138 C135 1.252 . S
O139 In130 2.326 . S
O139 C135 1.260 . S
C140 O131 1.240 . S
C140 O132 1.252 . S
O141 In130 2.294 . S
O141 C134 1.240 . S
O142 In130 2.326 . S
O142 C134 1.252 . S
In143 O144 2.294 . S
In143 O145 2.326 . S
In143 O149 2.266 . S
In143 O150 2.326 . S
In143 O151 2.266 . S
In143 O152 2.326 . S
In143 O154 2.294 . S
In143 O155 2.326 . S
O144 In143 2.294 . S
O144 C153 1.240 . S
O145 In143 2.326 . S
O145 C153 1.252 . S
C146 O149 1.252 . S
C146 O150 1.260 . S
C147 O154 1.240 . S
C147 O155 1.252 . S
C148 O151 1.252 . S
C148 O152 1.260 . S
O149 In143 2.266 . S
O149 C146 1.252 . S
O150 In143 2.326 . S
O150 C146 1.260 . S
O151 In143 2.266 . S
O151 C148 1.252 . S
O152 In143 2.326 . S
O152 C148 1.260 . S
C153 O144 1.240 . S
C153 O145 1.252 . S
O154 In143 2.294 . S
O154 C147 1.240 . S
O155 In143 2.326 . S
O155 C147 1.252 . S
In156 O157 2.294 . S
In156 O158 2.326 . S
In156 O162 2.266 1_455 S
In156 O163 2.326 1_455 S
In156 O164 2.266 . S
In156 O165 2.326 . S
In156 O167 2.294 . S
In156 O168 2.326 . S
O157 In156 2.294 . S
O157 C166 1.240 . S
O158 In156 2.326 . S
O158 C166 1.252 . S
C159 O162 1.252 . S
C159 O163 1.260 . S
C160 O167 1.240 . S
C160 O168 1.252 . S
C161 O164 1.252 . S
C161 O165 1.260 . S
O162 In156 2.266 1_655 S
O162 C159 1.252 . S
O163 In156 2.326 1_655 S
O163 C159 1.260 . S
O164 In156 2.266 . S
O164 C161 1.252 . S
O165 In156 2.326 . S
O165 C161 1.260 . S
C166 O157 1.240 . S
C166 O158 1.252 . S
O167 In156 2.294 . S
O167 C160 1.240 . S
O168 In156 2.326 . S
O168 C160 1.252 . S
In169 O170 2.294 . S
In169 O171 2.327 . S
In169 O175 2.266 1_455 S
In169 O176 2.325 1_455 S
In169 O177 2.264 1_455 S
In169 O178 2.322 1_455 S
In169 O180 2.296 . S
In169 O181 2.329 . S
O170 In169 2.294 . S
O170 C179 1.240 . S
O171 In169 2.327 . S
O171 C179 1.252 . S
C172 O175 1.252 . S
C172 O176 1.260 . S
C173 O180 1.240 . S
C173 O181 1.252 . S
C174 O177 1.252 . S
C174 O178 1.260 . S
O175 In169 2.266 1_655 S
O175 C172 1.252 . S
O176 In169 2.325 1_655 S
O176 C172 1.260 . S
O177 In169 2.264 1_655 S
O177 C174 1.252 . S
O178 In169 2.322 1_655 S
O178 C174 1.260 . S
C179 O170 1.240 . S
C179 O171 1.252 . S
O180 In169 2.296 . S
O180 C173 1.240 . S
O181 In169 2.329 . S
O181 C173 1.252 . S
In182 O183 2.294 . S
In182 O184 2.326 . S
In182 O188 2.266 . S
In182 O189 2.326 . S
In182 O190 2.266 . S
In182 O191 2.326 . S
In182 O193 2.294 . S
In182 O194 2.326 . S
O183 In182 2.294 . S
O183 C192 1.240 . S
O184 In182 2.326 . S
O184 C192 1.252 . S
C185 O188 1.252 . S
C185 O189 1.260 . S
C186 O193 1.240 . S
C186 O194 1.252 . S
C187 O190 1.252 . S
C187 O191 1.260 . S
O188 In182 2.266 . S
O188 C185 1.252 . S
O189 In182 2.326 . S
O189 C185 1.260 . S
O190 In182 2.266 . S
O190 C187 1.252 . S
O191 In182 2.326 . S
O191 C187 1.260 . S
C192 O183 1.240 . S
C192 O184 1.252 . S
O193 In182 2.294 . S
O193 C186 1.240 . S
O194 In182 2.326 . S
O194 C186 1.252 . S
In195 O196 2.294 . S
In195 O197 2.326 . S
In195 O201 2.266 . S
In195 O202 2.326 . S
In195 O203 2.266 . S
In195 O204 2.326 . S
In195 O206 2.294 . S
In195 O207 2.326 . S
O196 In195 2.294 . S
O196 C205 1.240 . S
O197 In195 2.326 . S
O197 C205 1.252 . S
C198 O201 1.252 . S
C198 O202 1.260 . S
C199 O206 1.240 . S
C199 O207 1.252 . S
C200 O203 1.252 . S
C200 O204 1.260 . S
O201 In195 2.266 . S
O201 C198 1.252 . S
O202 In195 2.326 . S
O202 C198 1.260 . S
O203 In195 2.266 . S
O203 C200 1.252 . S
O204 In195 2.326 . S
O204 C200 1.260 . S
C205 O196 1.240 . S
C205 O197 1.252 . S
O206 In195 2.294 . S
O206 C199 1.240 . S
O207 In195 2.326 . S
O207 C199 1.252 . S
In208 O209 2.294 . S
In208 O210 2.326 . S
In208 O214 2.266 . S
In208 O215 2.326 . S
In208 O216 2.266 . S
In208 O217 2.326 . S
In208 O219 2.294 . S
In208 O220 2.326 . S
O209 In208 2.294 . S
O209 C218 1.240 . S
O210 In208 2.326 . S
O210 C218 1.252 . S
C211 O214 1.252 . S
C211 O215 1.260 . S
C212 O219 1.240 . S
C212 O220 1.252 . S
C213 O216 1.252 . S
C213 O217 1.260 . S
O214 In208 2.266 . S
O214 C211 1.252 . S
O215 In208 2.326 . S
O215 C211 1.260 . S
O216 In208 2.266 . S
O216 C213 1.252 . S
O217 In208 2.326 . S
O217 C213 1.260 . S
C218 O209 1.240 . S
C218 O210 1.252 . S
O219 In208 2.294 . S
O219 C212 1.240 . S
O220 In208 2.326 . S
O220 C212 1.252 . S
In221 O222 2.294 . S
In221 O223 2.326 . S
In221 O227 2.266 . S
In221 O228 2.326 . S
In221 O229 2.266 . S
In221 O230 2.326 . S
In221 O232 2.294 . S
In221 O233 2.326 . S
O222 In221 2.294 . S
O222 C231 1.240 . S
O223 In221 2.326 . S
O223 C231 1.252 . S
C224 O227 1.252 . S
C224 O228 1.260 . S
C225 O232 1.240 . S
C225 O233 1.252 . S
C226 O229 1.252 . S
C226 O230 1.260 . S
O227 In221 2.266 . S
O227 C224 1.252 . S
O228 In221 2.326 . S
O228 C224 1.260 . S
O229 In221 2.266 . S
O229 C226 1.252 . S
O230 In221 2.326 . S
O230 C226 1.260 . S
C231 O222 1.240 . S
C231 O223 1.252 . S
O232 In221 2.294 . S
O232 C225 1.240 . S
O233 In221 2.326 . S
O233 C225 1.252 . S
In234 O235 2.294 1_545 S
In234 O236 2.326 1_545 S
In234 O240 2.266 . S
In234 O241 2.326 . S
In234 O242 2.266 . S
In234 O243 2.326 . S
In234 O245 2.294 . S
In234 O246 2.326 . S
O235 In234 2.294 1_565 S
O235 C244 1.240 . S
O236 In234 2.326 1_565 S
O236 C244 1.252 . S
C237 O240 1.252 . S
C237 O241 1.260 . S
C238 O245 1.240 . S
C238 O246 1.252 . S
C239 O242 1.252 . S
C239 O243 1.260 . S
O240 In234 2.266 . S
O240 C237 1.252 . S
O241 In234 2.326 . S
O241 C237 1.260 . S
O242 In234 2.266 . S
O242 C239 1.252 . S
O243 In234 2.326 . S
O243 C239 1.260 . S
C244 O235 1.240 . S
C244 O236 1.252 . S
O245 In234 2.294 . S
O245 C238 1.240 . S
O246 In234 2.326 . S
O246 C238 1.252 . S
In247 O248 2.294 . S
In247 O249 2.326 . S
In247 O253 2.266 . S
In247 O254 2.326 . S
In247 O255 2.266 1_554 S
In247 O256 2.326 1_554 S
In247 O258 2.294 . S
In247 O259 2.326 . S
O248 In247 2.294 . S
O248 C257 1.240 . S
O249 In247 2.326 . S
O249 C257 1.252 . S
C250 O253 1.252 . S
C250 O254 1.260 . S
C251 O258 1.240 . S
C251 O259 1.252 . S
C252 O255 1.252 . S
C252 O256 1.260 . S
O253 In247 2.266 . S
O253 C250 1.252 . S
O254 In247 2.326 . S
O254 C250 1.260 . S
O255 In247 2.266 1_556 S
O255 C252 1.252 . S
O256 In247 2.326 1_556 S
O256 C252 1.260 . S
C257 O248 1.240 . S
C257 O249 1.252 . S
O258 In247 2.294 . S
O258 C251 1.240 . S
O259 In247 2.326 . S
O259 C251 1.252 . S
In260 O261 2.296 . S
In260 O262 2.329 . S
In260 O266 2.264 1_554 S
In260 O267 2.322 1_554 S
In260 O268 2.266 1_554 S
In260 O269 2.325 1_554 S
In260 O271 2.294 . S
In260 O272 2.327 . S
O261 In260 2.296 . S
O261 C270 1.240 . S
O262 In260 2.329 . S
O262 C270 1.252 . S
C263 O266 1.252 . S
C263 O267 1.260 . S
C264 O271 1.240 . S
C264 O272 1.252 . S
C265 O268 1.252 . S
C265 O269 1.260 . S
O266 In260 2.264 1_556 S
O266 C263 1.252 . S
O267 In260 2.322 1_556 S
O267 C263 1.260 . S
O268 In260 2.266 1_556 S
O268 C265 1.252 . S
O269 In260 2.325 1_556 S
O269 C265 1.260 . S
C270 O261 1.240 . S
C270 O262 1.252 . S
O271 In260 2.294 . S
O271 C264 1.240 . S
O272 In260 2.327 . S
O272 C264 1.252 . S
In273 O274 2.294 . S
In273 O275 2.326 . S
In273 O279 2.266 . S
In273 O280 2.326 . S
In273 O281 2.266 . S
In273 O282 2.326 . S
In273 O284 2.294 . S
In273 O285 2.326 . S
O274 In273 2.294 . S
O274 C283 1.240 . S
O275 In273 2.326 . S
O275 C283 1.252 . S
C276 O279 1.252 . S
C276 O280 1.260 . S
C277 O284 1.240 . S
C277 O285 1.252 . S
C278 O281 1.252 . S
C278 O282 1.260 . S
O279 In273 2.266 . S
O279 C276 1.252 . S
O280 In273 2.326 . S
O280 C276 1.260 . S
O281 In273 2.266 . S
O281 C278 1.252 . S
O282 In273 2.326 . S
O282 C278 1.260 . S
C283 O274 1.240 . S
C283 O275 1.252 . S
O284 In273 2.294 . S
O284 C277 1.240 . S
O285 In273 2.326 . S
O285 C277 1.252 . S
In286 O287 2.294 . S
In286 O288 2.326 . S
In286 O292 2.266 . S
In286 O293 2.326 . S
In286 O294 2.266 . S
In286 O295 2.326 . S
In286 O297 2.294 . S
In286 O298 2.326 . S
O287 In286 2.294 . S
O287 C296 1.240 . S
O288 In286 2.326 . S
O288 C296 1.252 . S
C289 O292 1.252 . S
C289 O293 1.260 . S
C290 O297 1.240 . S
C290 O298 1.252 . S
C291 O294 1.252 . S
C291 O295 1.260 . S
O292 In286 2.266 . S
O292 C289 1.252 . S
O293 In286 2.326 . S
O293 C289 1.260 . S
O294 In286 2.266 . S
O294 C291 1.252 . S
O295 In286 2.326 . S
O295 C291 1.260 . S
C296 O287 1.240 . S
C296 O288 1.252 . S
O297 In286 2.294 . S
O297 C290 1.240 . S
O298 In286 2.326 . S
O298 C290 1.252 . S
In299 O300 2.294 . S
In299 O301 2.326 . S
In299 O305 2.266 . S
In299 O306 2.326 . S
In299 O307 2.266 . S
In299 O308 2.326 . S
In299 O310 2.294 . S
In299 O311 2.326 . S
O300 In299 2.294 . S
O300 C309 1.240 . S
O301 In299 2.326 . S
O301 C309 1.252 . S
C302 O305 1.252 . S
C302 O306 1.260 . S
C303 O310 1.240 . S
C303 O311 1.252 . S
C304 O307 1.252 . S
C304 O308 1.260 . S
O305 In299 2.266 . S
O305 C302 1.252 . S
O306 In299 2.326 . S
O306 C302 1.260 . S
O307 In299 2.266 . S
O307 C304 1.252 . S
O308 In299 2.326 . S
O308 C304 1.260 . S
C309 O300 1.240 . S
C309 O301 1.252 . S
O310 In299 2.294 . S
O310 C303 1.240 . S
O311 In299 2.326 . S
O311 C303 1.252 . S
Co312 N317 2.057 . S
Co312 O329 2.021 1_545 S
Co312 O332 2.062 1_456 S
Co312 O336 2.117 1_556 S
Co312 O337 2.020 . S
C313 O333 1.259 . S
C313 O336 1.258 . S
Co314 N323 2.057 . S
Co314 O330 2.117 1_545 S
Co314 O331 2.020 1_455 S
Co314 O333 2.021 . S
Co314 O338 2.062 . S
C315 N317 1.316 1_655 S
C315 N318 1.347 . S
C315 H320 0.933 . S
C316 N317 1.375 1_655 S
C316 C319 1.350 . S
C316 H321 0.930 . S
N317 Co312 2.057 . S
N317 C315 1.316 1_455 S
N317 C316 1.375 1_455 S
N318 C315 1.347 . S
N318 C319 1.373 . S
C319 C316 1.350 . S
C319 N318 1.373 . S
C319 H340 0.931 . S
H320 C315 0.933 . S
H321 C316 0.930 . S
C322 O329 1.259 1_554 S
C322 O330 1.258 . S
N323 Co314 2.057 . S
N323 C324 1.316 . S
N323 C325 1.375 1_545 S
C324 N323 1.316 . S
C324 N326 1.347 1_545 S
C324 H335 0.931 . S
C325 N323 1.375 1_565 S
C325 C327 1.350 . S
C325 H334 0.930 . S
N326 C324 1.347 1_565 S
N326 C327 1.373 . S
C327 C325 1.350 . S
C327 N326 1.373 . S
C327 H341 0.931 . S
C328 O331 1.256 . S
C328 O332 1.255 . S
O329 Co312 2.021 1_565 S
O329 C322 1.259 1_556 S
O330 Co314 2.117 1_565 S
O330 C322 1.258 . S
O331 Co314 2.020 1_655 S
O331 C328 1.256 . S
O332 Co312 2.062 1_654 S
O332 C328 1.255 . S
O333 C313 1.259 . S
O333 Co314 2.021 . S
H334 C325 0.930 . S
H335 C324 0.931 . S
O336 Co312 2.117 1_554 S
O336 C313 1.258 . S
O337 Co312 2.020 . S
O337 C339 1.256 1_556 S
O338 Co314 2.062 . S
O338 C339 1.255 . S
C339 O337 1.256 1_554 S
C339 O338 1.255 . S
H340 C319 0.931 . S
H341 C327 0.931 . S
Co342 N347 2.057 . S
Co342 O359 2.021 . S
Co342 O362 2.062 . S
Co342 O366 2.117 . S
Co342 O367 2.020 . S
C343 O363 1.259 . S
C343 O366 1.258 . S
Co344 N353 2.057 . S
Co344 O360 2.117 . S
Co344 O361 2.020 . S
Co344 O363 2.021 . S
Co344 O368 2.062 . S
C345 N347 1.316 . S
C345 N348 1.347 . S
C345 H350 0.931 . S
C346 N347 1.375 . S
C346 C349 1.350 . S
C346 H351 0.930 . S
N347 Co342 2.057 . S
N347 C345 1.316 . S
N347 C346 1.375 . S
N348 C345 1.347 . S
N348 C349 1.373 . S
C349 C346 1.350 . S
C349 N348 1.373 . S
C349 H370 0.931 . S
H350 C345 0.931 . S
H351 C346 0.930 . S
C352 O359 1.259 . S
C352 O360 1.258 . S
N353 Co344 2.057 . S
N353 C354 1.316 . S
N353 C355 1.375 . S
C354 N353 1.316 . S
C354 N356 1.347 . S
C354 H365 0.931 . S
C355 N353 1.375 . S
C355 C357 1.350 . S
C355 H364 0.930 . S
N356 C354 1.347 . S
N356 C357 1.373 . S
C357 C355 1.350 . S
C357 N356 1.373 . S
C357 H371 0.931 . S
C358 O361 1.256 . S
C358 O362 1.255 . S
O359 Co342 2.021 . S
O359 C352 1.259 . S
O360 Co344 2.117 . S
O360 C352 1.258 . S
O361 Co344 2.020 . S
O361 C358 1.256 . S
O362 Co342 2.062 . S
O362 C358 1.255 . S
O363 C343 1.259 . S
O363 Co344 2.021 . S
H364 C355 0.930 . S
H365 C354 0.931 . S
O366 Co342 2.117 . S
O366 C343 1.258 . S
O367 Co342 2.020 . S
O367 C369 1.256 . S
O368 Co344 2.062 . S
O368 C369 1.255 . S
C369 O367 1.256 . S
C369 O368 1.255 . S
H370 C349 0.931 . S
H371 C357 0.931 . S
Co372 N377 2.057 . S
Co372 O389 2.021 1_545 S
Co372 O392 2.062 . S
Co372 O396 2.117 . S
Co372 O397 2.020 . S
C373 O393 1.259 . S
C373 O396 1.258 . S
Co374 N383 2.057 . S
Co374 O390 2.117 . S
Co374 O391 2.020 . S
Co374 O393 2.021 . S
Co374 O398 2.062 . S
C375 N377 1.316 . S
C375 N378 1.347 . S
C375 H380 0.931 1_545 S
C376 N377 1.375 . S
C376 C379 1.350 . S
C376 H381 0.930 . S
N377 Co372 2.057 . S
N377 C375 1.316 . S
N377 C376 1.375 . S
N378 C375 1.347 . S
N378 C379 1.373 . S
C379 C376 1.350 . S
C379 N378 1.373 . S
C379 H400 0.931 . S
H380 C375 0.931 1_565 S
H381 C376 0.930 . S
C382 O389 1.259 . S
C382 O390 1.258 1_565 S
N383 Co374 2.057 . S
N383 C384 1.316 . S
N383 C385 1.375 . S
C384 N383 1.316 . S
C384 N386 1.347 . S
C384 H395 0.931 . S
C385 N383 1.375 . S
C385 C387 1.350 . S
C385 H394 0.930 . S
N386 C384 1.347 . S
N386 C387 1.373 . S
C387 C385 1.350 . S
C387 N386 1.373 . S
C387 H401 0.931 . S
C388 O391 1.256 . S
C388 O392 1.255 . S
O389 Co372 2.021 1_565 S
O389 C382 1.259 . S
O390 Co374 2.117 . S
O390 C382 1.258 1_545 S
O391 Co374 2.020 . S
O391 C388 1.256 . S
O392 Co372 2.062 . S
O392 C388 1.255 . S
O393 C373 1.259 . S
O393 Co374 2.021 . S
H394 C385 0.930 . S
H395 C384 0.931 . S
O396 Co372 2.117 . S
O396 C373 1.258 . S
O397 Co372 2.020 . S
O397 C399 1.256 . S
O398 Co374 2.062 . S
O398 C399 1.255 . S
C399 O397 1.256 . S
C399 O398 1.255 . S
H400 C379 0.931 . S
H401 C387 0.931 . S
Co402 N407 2.057 . S
Co402 O419 2.021 . S
Co402 O422 2.062 . S
Co402 O426 2.117 . S
Co402 O427 2.020 . S
C403 O423 1.259 . S
C403 O426 1.258 . S
Co404 N413 2.057 . S
Co404 O420 2.117 . S
Co404 O421 2.020 . S
Co404 O423 2.021 . S
Co404 O428 2.062 . S
C405 N407 1.316 . S
C405 N408 1.347 . S
C405 H410 0.931 . S
C406 N407 1.375 . S
C406 C409 1.350 . S
C406 H411 0.930 . S
N407 Co402 2.057 . S
N407 C405 1.316 . S
N407 C406 1.375 . S
N408 C405 1.347 . S
N408 C409 1.373 . S
C409 C406 1.350 . S
C409 N408 1.373 . S
C409 H430 0.931 . S
H410 C405 0.931 . S
H411 C406 0.930 . S
C412 O419 1.259 . S
C412 O420 1.258 . S
N413 Co404 2.057 . S
N413 C414 1.316 . S
N413 C415 1.375 . S
C414 N413 1.316 . S
C414 N416 1.347 . S
C414 H425 0.931 . S
C415 N413 1.375 . S
C415 C417 1.350 . S
C415 H424 0.930 . S
N416 C414 1.347 . S
N416 C417 1.373 . S
C417 C415 1.350 . S
C417 N416 1.373 . S
C417 H431 0.931 . S
C418 O421 1.256 . S
C418 O422 1.255 . S
O419 Co402 2.021 . S
O419 C412 1.259 . S
O420 Co404 2.117 . S
O420 C412 1.258 . S
O421 Co404 2.020 . S
O421 C418 1.256 . S
O422 Co402 2.062 . S
O422 C418 1.255 . S
O423 C403 1.259 . S
O423 Co404 2.021 . S
H424 C415 0.930 . S
H425 C414 0.931 . S
O426 Co402 2.117 . S
O426 C403 1.258 . S
O427 Co402 2.020 . S
O427 C429 1.256 . S
O428 Co404 2.062 . S
O428 C429 1.255 . S
C429 O427 1.256 . S
C429 O428 1.255 . S
H430 C409 0.931 . S
H431 C417 0.931 . S
Co432 N437 2.047 1_445 S
Co432 O449 2.021 . S
Co432 O452 2.068 . S
Co432 O456 2.117 1_455 S
Co432 O457 2.020 1_455 S
C433 O453 1.259 1_655 S
C433 O456 1.258 . S
Co434 N443 2.057 . S
Co434 O450 2.117 . S
Co434 O451 2.020 . S
Co434 O453 2.021 . S
Co434 O458 2.062 1_455 S
C435 N437 1.309 1_455 S
C435 N438 1.347 1_455 S
C435 H440 0.931 . S
C436 N437 1.392 . S
C436 C439 1.350 . S
C436 H441 0.930 . S
N437 Co432 2.047 1_665 S
N437 C435 1.309 1_655 S
N437 C436 1.392 . S
N438 C435 1.347 1_655 S
N438 C439 1.373 . S
C439 C436 1.350 . S
C439 N438 1.373 . S
C439 H460 0.931 . S
H440 C435 0.931 . S
H441 C436 0.930 . S
C442 O449 1.259 . S
C442 O450 1.258 . S
N443 Co434 2.057 . S
N443 C444 1.316 . S
N443 C445 1.375 . S
C444 N443 1.316 . S
C444 N446 1.347 . S
C444 H455 0.931 . S
C445 N443 1.375 . S
C445 C447 1.350 . S
C445 H454 0.930 . S
N446 C444 1.347 . S
N446 C447 1.373 . S
C447 C445 1.350 . S
C447 N446 1.373 . S
C447 H461 0.931 . S
C448 O451 1.256 . S
C448 O452 1.271 . S
O449 Co432 2.021 . S
O449 C442 1.259 . S
O450 Co434 2.117 . S
O450 C442 1.258 . S
O451 Co434 2.020 . S
O451 C448 1.256 . S
O452 Co432 2.068 . S
O452 C448 1.271 . S
O453 C433 1.259 1_455 S
O453 Co434 2.021 . S
H454 C445 0.930 . S
H455 C444 0.931 . S
O456 Co432 2.117 1_655 S
O456 C433 1.258 . S
O457 Co432 2.020 1_655 S
O457 C459 1.256 . S
O458 Co434 2.062 1_655 S
O458 C459 1.255 . S
C459 O457 1.256 . S
C459 O458 1.255 . S
H460 C439 0.931 . S
H461 C447 0.931 . S
Co462 N467 2.057 . S
Co462 O479 2.021 . S
Co462 O482 2.062 . S
Co462 O486 2.117 . S
Co462 O487 2.020 . S
C463 O483 1.259 . S
C463 O486 1.258 . S
Co464 N473 2.057 . S
Co464 O480 2.117 . S
Co464 O481 2.020 . S
Co464 O483 2.021 . S
Co464 O488 2.062 . S
C465 N467 1.316 . S
C465 N468 1.347 . S
C465 H470 0.931 . S
C466 N467 1.375 . S
C466 C469 1.350 . S
C466 H471 0.930 . S
N467 Co462 2.057 . S
N467 C465 1.316 . S
N467 C466 1.375 . S
N468 C465 1.347 . S
N468 C469 1.373 . S
C469 C466 1.350 . S
C469 N468 1.373 . S
C469 H490 0.931 . S
H470 C465 0.931 . S
H471 C466 0.930 . S
C472 O479 1.259 . S
C472 O480 1.258 . S
N473 Co464 2.057 . S
N473 C474 1.316 . S
N473 C475 1.375 . S
C474 N473 1.316 . S
C474 N476 1.347 . S
C474 H485 0.931 . S
C475 N473 1.375 . S
C475 C477 1.350 . S
C475 H484 0.930 . S
N476 C474 1.347 . S
N476 C477 1.373 . S
C477 C475 1.350 . S
C477 N476 1.373 . S
C477 H491 0.931 . S
C478 O481 1.256 . S
C478 O482 1.255 . S
O479 Co462 2.021 . S
O479 C472 1.259 . S
O480 Co464 2.117 . S
O480 C472 1.258 . S
O481 Co464 2.020 . S
O481 C478 1.256 . S
O482 Co462 2.062 . S
O482 C478 1.255 . S
O483 C463 1.259 . S
O483 Co464 2.021 . S
H484 C475 0.930 . S
H485 C474 0.931 . S
O486 Co462 2.117 . S
O486 C463 1.258 . S
O487 Co462 2.020 . S
O487 C489 1.256 . S
O488 Co464 2.062 . S
O488 C489 1.255 . S
C489 O487 1.256 . S
C489 O488 1.255 . S
H490 C469 0.931 . S
H491 C477 0.931 . S
Co492 N497 2.057 1_554 S
Co492 O509 2.021 . S
Co492 O512 2.062 1_554 S
Co492 O516 2.117 . S
Co492 O517 2.020 1_545 S
C493 O513 1.259 . S
C493 O516 1.258 . S
Co494 N503 2.057 . S
Co494 O510 2.117 . S
Co494 O511 2.020 . S
Co494 O513 2.021 . S
Co494 O518 2.062 1_545 S
C495 N497 1.316 . S
C495 N498 1.347 . S
C495 H500 0.931 . S
C496 N497 1.375 1_565 S
C496 C499 1.350 . S
C496 H501 0.930 . S
N497 Co492 2.057 1_556 S
N497 C495 1.316 . S
N497 C496 1.375 1_545 S
N498 C495 1.347 . S
N498 C499 1.373 1_545 S
C499 C496 1.350 . S
C499 N498 1.373 1_565 S
C499 H520 0.931 . S
H500 C495 0.931 . S
H501 C496 0.930 . S
C502 O509 1.259 . S
C502 O510 1.258 . S
N503 Co494 2.057 . S
N503 C504 1.316 . S
N503 C505 1.375 . S
C504 N503 1.316 . S
C504 N506 1.347 . S
C504 H515 0.931 . S
C505 N503 1.375 . S
C505 C507 1.350 . S
C505 H514 0.930 . S
N506 C504 1.347 . S
N506 C507 1.373 . S
C507 C505 1.350 . S
C507 N506 1.373 . S
C507 H521 0.931 . S
C508 O511 1.256 . S
C508 O512 1.255 1_554 S
O509 Co492 2.021 . S
O509 C502 1.259 . S
O510 Co494 2.117 . S
O510 C502 1.258 . S
O511 Co494 2.020 . S
O511 C508 1.256 . S
O512 Co492 2.062 1_556 S
O512 C508 1.255 1_556 S
O513 C493 1.259 . S
O513 Co494 2.021 . S
H514 C505 0.930 . S
H515 C504 0.931 . S
O516 Co492 2.117 . S
O516 C493 1.258 . S
O517 Co492 2.020 1_565 S
O517 C519 1.256 . S
O518 Co494 2.062 1_565 S
O518 C519 1.255 . S
C519 O517 1.256 . S
C519 O518 1.255 . S
H520 C499 0.931 . S
H521 C507 0.931 . S
Co522 N527 2.057 . S
Co522 O539 2.021 . S
Co522 O542 2.062 . S
Co522 O546 2.117 . S
Co522 O547 2.020 . S
C523 O543 1.259 . S
C523 O546 1.258 . S
Co524 N533 2.057 . S
Co524 O540 2.117 . S
Co524 O541 2.020 . S
Co524 O543 2.021 . S
Co524 O548 2.062 . S
C525 N527 1.316 . S
C525 N528 1.347 . S
C525 H530 0.931 . S
C526 N527 1.375 . S
C526 C529 1.350 . S
C526 H531 0.930 . S
N527 Co522 2.057 . S
N527 C525 1.316 . S
N527 C526 1.375 . S
N528 C525 1.347 . S
N528 C529 1.373 . S
C529 C526 1.350 . S
C529 N528 1.373 . S
C529 H550 0.931 . S
H530 C525 0.931 . S
H531 C526 0.930 . S
C532 O539 1.259 . S
C532 O540 1.258 . S
N533 Co524 2.057 . S
N533 C534 1.316 . S
N533 C535 1.375 . S
C534 N533 1.316 . S
C534 N536 1.347 . S
C534 H545 0.931 . S
C535 N533 1.375 . S
C535 C537 1.350 . S
C535 H544 0.930 . S
N536 C534 1.347 . S
N536 C537 1.373 . S
C537 C535 1.350 . S
C537 N536 1.373 . S
C537 H551 0.931 . S
C538 O541 1.256 . S
C538 O542 1.255 . S
O539 Co522 2.021 . S
O539 C532 1.259 . S
O540 Co524 2.117 . S
O540 C532 1.258 . S
O541 Co524 2.020 . S
O541 C538 1.256 . S
O542 Co522 2.062 . S
O542 C538 1.255 . S
O543 C523 1.259 . S
O543 Co524 2.021 . S
H544 C535 0.930 . S
H545 C534 0.931 . S
O546 Co522 2.117 . S
O546 C523 1.258 . S
O547 Co522 2.020 . S
O547 C549 1.256 . S
O548 Co524 2.062 . S
O548 C549 1.255 . S
C549 O547 1.256 . S
C549 O548 1.255 . S
H550 C529 0.931 . S
H551 C537 0.931 . S
Co552 N557 2.057 . S
Co552 O569 2.021 1_554 S
Co552 O572 2.062 . S
Co552 O576 2.117 . S
Co552 O577 2.020 . S
C553 O573 1.259 . S
C553 O576 1.258 . S
Co554 N563 2.057 . S
Co554 O570 2.117 . S
Co554 O571 2.020 . S
Co554 O573 2.021 . S
Co554 O578 2.062 . S
C555 N557 1.316 1_556 S
C555 N558 1.347 1_556 S
C555 H560 0.931 . S
C556 N557 1.375 . S
C556 C559 1.350 . S
C556 H561 0.930 . S
N557 Co552 2.057 . S
N557 C555 1.316 1_554 S
N557 C556 1.375 . S
N558 C555 1.347 1_554 S
N558 C559 1.373 . S
C559 C556 1.350 . S
C559 N558 1.373 . S
C559 H580 0.931 . S
H560 C555 0.931 . S
H561 C556 0.930 . S
C562 O569 1.259 . S
C562 O570 1.258 1_556 S
N563 Co554 2.057 . S
N563 C564 1.316 . S
N563 C565 1.375 . S
C564 N563 1.316 . S
C564 N566 1.347 . S
C564 H575 0.931 . S
C565 N563 1.375 . S
C565 C567 1.350 . S
C565 H574 0.930 . S
N566 C564 1.347 . S
N566 C567 1.373 . S
C567 C565 1.350 . S
C567 N566 1.373 . S
C567 H581 0.931 . S
C568 O571 1.256 . S
C568 O572 1.255 . S
O569 Co552 2.021 1_556 S
O569 C562 1.259 . S
O570 Co554 2.117 . S
O570 C562 1.258 1_554 S
O571 Co554 2.020 . S
O571 C568 1.256 . S
O572 Co552 2.062 . S
O572 C568 1.255 . S
O573 C553 1.259 . S
O573 Co554 2.021 . S
H574 C565 0.930 . S
H575 C564 0.931 . S
O576 Co552 2.117 . S
O576 C553 1.258 . S
O577 Co552 2.020 . S
O577 C579 1.256 . S
O578 Co554 2.062 . S
O578 C579 1.255 . S
C579 O577 1.256 . S
C579 O578 1.255 . S
H580 C559 0.931 . S
H581 C567 0.931 . S
Co582 N587 2.057 . S
Co582 O599 2.021 . S
Co582 O602 2.062 . S
Co582 O606 2.117 . S
Co582 O607 2.020 . S
C583 O603 1.259 . S
C583 O606 1.258 . S
Co584 N593 2.057 . S
Co584 O600 2.117 . S
Co584 O601 2.020 . S
Co584 O603 2.021 . S
Co584 O608 2.062 . S
C585 N587 1.316 . S
C585 N588 1.347 . S
C585 H590 0.931 . S
C586 N587 1.375 . S
C586 C589 1.350 . S
C586 H591 0.930 . S
N587 Co582 2.057 . S
N587 C585 1.316 . S
N587 C586 1.375 . S
N588 C585 1.347 . S
N588 C589 1.373 . S
C589 C586 1.350 . S
C589 N588 1.373 . S
C589 H610 0.931 . S
H590 C585 0.931 . S
H591 C586 0.930 . S
C592 O599 1.259 . S
C592 O600 1.258 . S
N593 Co584 2.057 . S
N593 C594 1.316 . S
N593 C595 1.375 . S
C594 N593 1.316 . S
C594 N596 1.347 . S
C594 H605 0.931 . S
C595 N593 1.375 . S
C595 C597 1.350 . S
C595 H604 0.930 . S
N596 C594 1.347 . S
N596 C597 1.373 . S
C597 C595 1.350 . S
C597 N596 1.373 . S
C597 H611 0.931 . S
C598 O601 1.256 . S
C598 O602 1.255 . S
O599 Co582 2.021 . S
O599 C592 1.259 . S
O600 Co584 2.117 . S
O600 C592 1.258 . S
O601 Co584 2.020 . S
O601 C598 1.256 . S
O602 Co582 2.062 . S
O602 C598 1.255 . S
O603 C583 1.259 . S
O603 Co584 2.021 . S
H604 C595 0.930 . S
H605 C594 0.931 . S
O606 Co582 2.117 . S
O606 C583 1.258 . S
O607 Co582 2.020 . S
O607 C609 1.256 . S
O608 Co584 2.062 . S
O608 C609 1.255 . S
C609 O607 1.256 . S
C609 O608 1.255 . S
H610 C589 0.931 . S
H611 C597 0.931 . S
Co612 N617 2.057 . S
Co612 O629 2.021 1_455 S
Co612 O632 2.062 . S
Co612 O636 2.117 . S
Co612 O637 2.020 . S
C613 O633 1.259 . S
C613 O636 1.258 . S
Co614 N623 2.057 . S
Co614 O630 2.163 . S
Co614 O631 2.020 . S
Co614 O633 2.021 . S
Co614 O638 2.062 . S
C615 N617 1.316 1_655 S
C615 N618 1.347 1_655 S
C615 H620 0.931 . S
C616 N617 1.375 . S
C616 C619 1.350 . S
C616 H621 0.930 . S
N617 Co612 2.057 . S
N617 C615 1.316 1_455 S
N617 C616 1.375 . S
N618 C615 1.347 1_455 S
N618 C619 1.369 . S
C619 C616 1.350 . S
C619 N618 1.369 . S
C619 H640 0.931 . S
H620 C615 0.931 . S
H621 C616 0.930 . S
C622 O629 1.259 . S
C622 O630 1.221 1_655 S
N623 Co614 2.057 . S
N623 C624 1.316 . S
N623 C625 1.375 . S
C624 N623 1.316 . S
C624 N626 1.347 . S
C624 H635 0.931 . S
C625 N623 1.375 . S
C625 C627 1.350 . S
C625 H634 0.930 . S
N626 C624 1.347 . S
N626 C627 1.373 . S
C627 C625 1.350 . S
C627 N626 1.373 . S
C627 H641 0.931 . S
C628 O631 1.256 . S
C628 O632 1.255 . S
O629 Co612 2.021 1_655 S
O629 C622 1.259 . S
O630 Co614 2.163 . S
O630 C622 1.221 1_455 S
O631 Co614 2.020 . S
O631 C628 1.256 . S
O632 Co612 2.062 . S
O632 C628 1.255 . S
O633 C613 1.259 . S
O633 Co614 2.021 . S
H634 C625 0.930 . S
H635 C624 0.931 . S
O636 Co612 2.117 . S
O636 C613 1.258 . S
O637 Co612 2.020 . S
O637 C639 1.256 . S
O638 Co614 2.062 . S
O638 C639 1.255 . S
C639 O637 1.256 . S
C639 O638 1.255 . S
H640 C619 0.931 . S
H641 C627 0.931 . S
Co642 N647 2.057 . S
Co642 O659 2.021 . S
Co642 O662 2.062 . S
Co642 O666 2.117 . S
Co642 O667 2.020 . S
C643 O663 1.259 . S
C643 O666 1.258 . S
Co644 N653 2.057 . S
Co644 O660 2.117 . S
Co644 O661 2.020 . S
Co644 O663 2.021 . S
Co644 O668 2.062 . S
C645 N647 1.316 . S
C645 N648 1.347 . S
C645 H650 0.931 . S
C646 N647 1.375 . S
C646 C649 1.350 . S
C646 H651 0.930 . S
N647 Co642 2.057 . S
N647 C645 1.316 . S
N647 C646 1.375 . S
N648 C645 1.347 . S
N648 C649 1.373 . S
C649 C646 1.350 . S
C649 N648 1.373 . S
C649 H670 0.931 . S
H650 C645 0.931 . S
H651 C646 0.930 . S
C652 O659 1.259 . S
C652 O660 1.258 . S
N653 Co644 2.057 . S
N653 C654 1.316 . S
N653 C655 1.375 . S
C654 N653 1.316 . S
C654 N656 1.347 . S
C654 H665 0.931 . S
C655 N653 1.375 . S
C655 C657 1.350 . S
C655 H664 0.930 . S
N656 C654 1.347 . S
N656 C657 1.373 . S
C657 C655 1.350 . S
C657 N656 1.373 . S
C657 H671 0.931 . S
C658 O661 1.256 . S
C658 O662 1.255 . S
O659 Co642 2.021 . S
O659 C652 1.259 . S
O660 Co644 2.117 . S
O660 C652 1.258 . S
O661 Co644 2.020 . S
O661 C658 1.256 . S
O662 Co642 2.062 . S
O662 C658 1.255 . S
O663 C643 1.259 . S
O663 Co644 2.021 . S
H664 C655 0.930 . S
H665 C654 0.931 . S
O666 Co642 2.117 . S
O666 C643 1.258 . S
O667 Co642 2.020 . S
O667 C669 1.256 . S
O668 Co644 2.062 . S
O668 C669 1.255 . S
C669 O667 1.256 . S
C669 O668 1.255 . S
H670 C649 0.931 . S
H671 C657 0.931 . S
Co672 N677 2.057 . S
Co672 O689 2.021 . S
Co672 O692 2.062 . S
Co672 O696 2.117 . S
Co672 O697 2.020 . S
C673 O693 1.259 . S
C673 O696 1.258 . S
Co674 N683 2.057 . S
Co674 O690 2.117 . S
Co674 O691 2.020 . S
Co674 O693 2.021 . S
Co674 O698 2.062 . S
C675 N677 1.316 . S
C675 N678 1.347 . S
C675 H680 0.931 . S
C676 N677 1.375 . S
C676 C679 1.350 . S
C676 H681 0.930 . S
N677 Co672 2.057 . S
N677 C675 1.316 . S
N677 C676 1.375 . S
N678 C675 1.347 . S
N678 C679 1.373 . S
C679 C676 1.350 . S
C679 N678 1.373 . S
C679 H700 0.931 . S
H680 C675 0.931 . S
H681 C676 0.930 . S
C682 O689 1.259 . S
C682 O690 1.258 . S
N683 Co674 2.057 . S
N683 C684 1.316 . S
N683 C685 1.375 . S
C684 N683 1.316 . S
C684 N686 1.347 . S
C684 H695 0.931 . S
C685 N683 1.375 . S
C685 C687 1.350 . S
C685 H694 0.930 . S
N686 C684 1.347 . S
N686 C687 1.373 . S
C687 C685 1.350 . S
C687 N686 1.373 . S
C687 H701 0.931 . S
C688 O691 1.256 . S
C688 O692 1.255 . S
O689 Co672 2.021 . S
O689 C682 1.259 . S
O690 Co674 2.117 . S
O690 C682 1.258 . S
O691 Co674 2.020 . S
O691 C688 1.256 . S
O692 Co672 2.062 . S
O692 C688 1.255 . S
O693 C673 1.259 . S
O693 Co674 2.021 . S
H694 C685 0.930 . S
H695 C684 0.931 . S
O696 Co672 2.117 . S
O696 C673 1.258 . S
O697 Co672 2.020 . S
O697 C699 1.256 . S
O698 Co674 2.062 . S
O698 C699 1.255 . S
C699 O697 1.256 . S
C699 O698 1.255 . S
H700 C679 0.931 . S
H701 C687 0.931 . S
Co702 N707 2.057 . S
Co702 O719 2.021 . S
Co702 O722 2.062 . S
Co702 O726 2.117 . S
Co702 O727 2.020 . S
C703 O723 1.259 . S
C703 O726 1.258 . S
Co704 N713 2.057 . S
Co704 O720 2.117 . S
Co704 O721 2.020 . S
Co704 O723 2.021 . S
Co704 O728 2.062 . S
C705 N707 1.316 . S
C705 N708 1.347 . S
C705 H710 0.931 . S
C706 N707 1.375 . S
C706 C709 1.350 . S
C706 H711 0.930 . S
N707 Co702 2.057 . S
N707 C705 1.316 . S
N707 C706 1.375 . S
N708 C705 1.347 . S
N708 C709 1.373 . S
C709 C706 1.350 . S
C709 N708 1.373 . S
C709 H730 0.931 . S
H710 C705 0.931 . S
H711 C706 0.930 . S
C712 O719 1.259 . S
C712 O720 1.258 . S
N713 Co704 2.057 . S
N713 C714 1.316 . S
N713 C715 1.375 . S
C714 N713 1.316 . S
C714 N716 1.347 . S
C714 H725 0.931 . S
C715 N713 1.375 . S
C715 C717 1.350 . S
C715 H724 0.930 . S
N716 C714 1.347 . S
N716 C717 1.373 . S
C717 C715 1.350 . S
C717 N716 1.373 . S
C717 H731 0.931 . S
C718 O721 1.256 . S
C718 O722 1.255 . S
O719 Co702 2.021 . S
O719 C712 1.259 . S
O720 Co704 2.117 . S
O720 C712 1.258 . S
O721 Co704 2.020 . S
O721 C718 1.256 . S
O722 Co702 2.062 . S
O722 C718 1.255 . S
O723 C703 1.259 . S
O723 Co704 2.021 . S
H724 C715 0.930 . S
H725 C714 0.931 . S
O726 Co702 2.117 . S
O726 C703 1.258 . S
O727 Co702 2.020 . S
O727 C729 1.256 . S
O728 Co704 2.062 . S
O728 C729 1.255 . S
C729 O727 1.256 . S
C729 O728 1.255 . S
H730 C709 0.931 . S
H731 C717 0.931 . S
Co732 N737 2.057 . S
Co732 O749 2.021 . S
Co732 O752 2.062 . S
Co732 O756 2.117 . S
Co732 O757 2.020 . S
C733 O753 1.259 . S
C733 O756 1.258 . S
Co734 N743 2.057 . S
Co734 O750 2.117 . S
Co734 O751 2.020 . S
Co734 O753 2.021 . S
Co734 O758 2.062 . S
C735 N737 1.316 . S
C735 N738 1.347 . S
C735 H740 0.931 . S
C736 N737 1.375 . S
C736 C739 1.350 . S
C736 H741 0.930 . S
N737 Co732 2.057 . S
N737 C735 1.316 . S
N737 C736 1.375 . S
N738 C735 1.347 . S
N738 C739 1.373 . S
C739 C736 1.350 . S
C739 N738 1.373 . S
C739 H760 0.931 . S
H740 C735 0.931 . S
H741 C736 0.930 . S
C742 O749 1.259 . S
C742 O750 1.258 . S
N743 Co734 2.057 . S
N743 C744 1.316 . S
N743 C745 1.375 . S
C744 N743 1.316 . S
C744 N746 1.347 . S
C744 H755 0.931 . S
C745 N743 1.375 . S
C745 C747 1.350 . S
C745 H754 0.930 . S
N746 C744 1.347 . S
N746 C747 1.373 . S
C747 C745 1.350 . S
C747 N746 1.373 . S
C747 H761 0.931 . S
C748 O751 1.256 . S
C748 O752 1.255 . S
O749 Co732 2.021 . S
O749 C742 1.259 . S
O750 Co734 2.117 . S
O750 C742 1.258 . S
O751 Co734 2.020 . S
O751 C748 1.256 . S
O752 Co732 2.062 . S
O752 C748 1.255 . S
O753 C733 1.259 . S
O753 Co734 2.021 . S
H754 C745 0.930 . S
H755 C744 0.931 . S
O756 Co732 2.117 . S
O756 C733 1.258 . S
O757 Co732 2.020 . S
O757 C759 1.256 . S
O758 Co734 2.062 . S
O758 C759 1.255 . S
C759 O757 1.256 . S
C759 O758 1.255 . S
H760 C739 0.931 . S
H761 C747 0.931 . S
Co762 N767 2.057 1_455 S
Co762 O779 2.021 . S
Co762 O782 2.062 1_455 S
Co762 O786 2.117 . S
Co762 O787 2.020 1_554 S
C763 O783 1.259 . S
C763 O786 1.258 . S
Co764 N773 2.057 . S
Co764 O780 2.117 . S
Co764 O781 2.020 . S
Co764 O783 2.021 . S
Co764 O788 2.062 1_554 S
C765 N767 1.316 . S
C765 N768 1.347 . S
C765 H770 0.931 . S
C766 N767 1.375 1_556 S
C766 C769 1.350 . S
C766 H771 0.930 . S
N767 Co762 2.057 1_655 S
N767 C765 1.316 . S
N767 C766 1.375 1_554 S
N768 C765 1.347 . S
N768 C769 1.373 1_554 S
C769 C766 1.350 . S
C769 N768 1.373 1_556 S
C769 H790 0.931 . S
H770 C765 0.931 . S
H771 C766 0.930 . S
C772 O779 1.259 . S
C772 O780 1.258 . S
N773 Co764 2.057 . S
N773 C774 1.316 . S
N773 C775 1.375 . S
C774 N773 1.316 . S
C774 N776 1.347 . S
C774 H785 0.931 . S
C775 N773 1.375 . S
C775 C777 1.350 . S
C775 H784 0.930 . S
N776 C774 1.347 . S
N776 C777 1.373 . S
C777 C775 1.350 . S
C777 N776 1.373 . S
C777 H791 0.931 . S
C778 O781 1.256 . S
C778 O782 1.255 1_455 S
O779 Co762 2.021 . S
O779 C772 1.259 . S
O780 Co764 2.117 . S
O780 C772 1.258 . S
O781 Co764 2.020 . S
O781 C778 1.256 . S
O782 Co762 2.062 1_655 S
O782 C778 1.255 1_655 S
O783 C763 1.259 . S
O783 Co764 2.021 . S
H784 C775 0.930 . S
H785 C774 0.931 . S
O786 Co762 2.117 . S
O786 C763 1.258 . S
O787 Co762 2.020 1_556 S
O787 C789 1.256 . S
O788 Co764 2.062 1_556 S
O788 C789 1.255 . S
C789 O787 1.256 . S
C789 O788 1.255 . S
H790 C769 0.931 . S
H791 C777 0.931 . S
H792 C804 0.930 . S
H793 C806 0.930 1_655 S
H794 C807 0.930 . S
H795 C811 0.959 . S
H796 C811 0.959 . S
H797 C811 0.961 . S
H798 C812 0.960 . S
H799 C812 0.961 . S
H800 C812 0.959 1_655 S
H801 C815 0.929 . S
H802 C816 0.931 . S
H803 C818 0.930 . S
C804 H792 0.930 . S
C804 C805 1.399 . S
C804 C809 1.399 . S
C805 C804 1.399 . S
C805 C806 1.376 . S
C806 H793 0.930 1_455 S
C806 C805 1.376 . S
C806 C807 1.388 1_455 S
C807 H794 0.930 . S
C807 C806 1.388 1_655 S
C807 C808 1.390 1_655 S
C808 C807 1.390 1_455 S
C808 C809 1.394 . S
C808 C814 1.465 . S
C809 C804 1.399 . S
C809 C808 1.394 . S
C809 C810 1.516 . S
C810 C809 1.516 . S
C810 C811 1.502 . S
C810 C812 1.561 . S
C810 C813 1.526 . S
C811 H795 0.959 . S
C811 H796 0.959 . S
C811 H797 0.961 . S
C811 C810 1.502 . S
C812 H798 0.960 . S
C812 H799 0.961 . S
C812 H800 0.959 1_455 S
C812 C810 1.561 . S
C813 C810 1.526 . S
C813 C814 1.396 . S
C813 C818 1.390 . S
C814 C808 1.465 . S
C814 C813 1.396 . S
C814 C815 1.399 1_455 S
C815 H801 0.929 . S
C815 C814 1.399 1_655 S
C815 C816 1.385 . S
C816 H802 0.931 . S
C816 C815 1.385 . S
C816 C817 1.389 1_655 S
C817 C816 1.389 1_455 S
C817 C818 1.387 . S
C818 H803 0.930 . S
C818 C813 1.390 . S
C818 C817 1.387 . S
H819 C831 0.930 . S
H820 C833 0.930 . S
H821 C834 0.930 . S
H822 C838 0.959 . S
H823 C838 0.959 . S
H824 C838 0.961 . S
H825 C839 0.960 . S
H826 C839 0.961 . S
H827 C839 0.959 . S
H828 C842 0.929 . S
H829 C843 0.931 . S
H830 C845 0.930 . S
C831 H819 0.930 . S
C831 C832 1.399 . S
C831 C836 1.399 . S
C832 C831 1.399 . S
C832 C833 1.376 . S
C833 H820 0.930 . S
C833 C832 1.376 . S
C833 C834 1.388 . S
C834 H821 0.930 . S
C834 C833 1.388 . S
C834 C835 1.390 . S
C835 C834 1.390 . S
C835 C836 1.394 . S
C835 C841 1.465 . S
C836 C831 1.399 . S
C836 C835 1.394 . S
C836 C837 1.516 . S
C837 C836 1.516 . S
C837 C838 1.502 . S
C837 C839 1.561 . S
C837 C840 1.526 . S
C838 H822 0.959 . S
C838 H823 0.959 . S
C838 H824 0.961 . S
C838 C837 1.502 . S
C839 H825 0.960 . S
C839 H826 0.961 . S
C839 H827 0.959 . S
C839 C837 1.561 . S
C840 C837 1.526 . S
C840 C841 1.396 . S
C840 C845 1.390 . S
C841 C835 1.465 . S
C841 C840 1.396 . S
C841 C842 1.399 . S
C842 H828 0.929 . S
C842 C841 1.399 . S
C842 C843 1.385 . S
C843 H829 0.931 . S
C843 C842 1.385 . S
C843 C844 1.389 . S
C844 C843 1.389 . S
C844 C845 1.387 . S
C845 H830 0.930 . S
C845 C840 1.390 . S
C845 C844 1.387 . S
H846 C858 0.930 . S
H847 C860 0.930 . S
H848 C861 0.930 . S
H849 C865 0.959 . S
H850 C865 0.959 . S
H851 C865 0.961 . S
H852 C866 0.960 . S
H853 C866 0.961 . S
H854 C866 0.959 . S
H855 C869 0.929 . S
H856 C870 0.931 . S
H857 C872 0.930 . S
C858 H846 0.930 . S
C858 C859 1.399 . S
C858 C863 1.399 . S
C859 C858 1.399 . S
C859 C860 1.376 . S
C860 H847 0.930 . S
C860 C859 1.376 . S
C860 C861 1.388 . S
C861 H848 0.930 . S
C861 C860 1.388 . S
C861 C862 1.390 . S
C862 C861 1.390 . S
C862 C863 1.394 . S
C862 C868 1.465 . S
C863 C858 1.399 . S
C863 C862 1.394 . S
C863 C864 1.516 . S
C864 C863 1.516 . S
C864 C865 1.502 . S
C864 C866 1.561 . S
C864 C867 1.526 . S
C865 H849 0.959 . S
C865 H850 0.959 . S
C865 H851 0.961 . S
C865 C864 1.502 . S
C866 H852 0.960 . S
C866 H853 0.961 . S
C866 H854 0.959 . S
C866 C864 1.561 . S
C867 C864 1.526 . S
C867 C868 1.396 . S
C867 C872 1.390 . S
C868 C862 1.465 . S
C868 C867 1.396 . S
C868 C869 1.399 . S
C869 H855 0.929 . S
C869 C868 1.399 . S
C869 C870 1.385 . S
C870 H856 0.931 . S
C870 C869 1.385 . S
C870 C871 1.389 . S
C871 C870 1.389 . S
C871 C872 1.387 . S
C872 H857 0.930 . S
C872 C867 1.390 . S
C872 C871 1.387 . S
H873 C885 0.930 . S
H874 C887 0.930 . S
H875 C888 0.930 . S
H876 C892 0.959 . S
H877 C892 0.959 . S
H878 C892 0.961 . S
H879 C893 0.960 . S
H880 C893 0.961 . S
H881 C893 0.959 . S
H882 C896 0.929 . S
H883 C897 0.931 . S
H884 C899 0.930 . S
C885 H873 0.930 . S
C885 C886 1.399 . S
C885 C890 1.399 . S
C886 C885 1.399 . S
C886 C887 1.376 . S
C887 H874 0.930 . S
C887 C886 1.376 . S
C887 C888 1.388 . S
C888 H875 0.930 . S
C888 C887 1.388 . S
C888 C889 1.390 . S
C889 C888 1.390 . S
C889 C890 1.394 . S
C889 C895 1.465 . S
C890 C885 1.399 . S
C890 C889 1.394 . S
C890 C891 1.516 . S
C891 C890 1.516 . S
C891 C892 1.502 . S
C891 C893 1.561 . S
C891 C894 1.526 . S
C892 H876 0.959 . S
C892 H877 0.959 . S
C892 H878 0.961 . S
C892 C891 1.502 . S
C893 H879 0.960 . S
C893 H880 0.961 . S
C893 H881 0.959 . S
C893 C891 1.561 . S
C894 C891 1.526 . S
C894 C895 1.396 . S
C894 C899 1.390 . S
C895 C889 1.465 . S
C895 C894 1.396 . S
C895 C896 1.399 . S
C896 H882 0.929 . S
C896 C895 1.399 . S
C896 C897 1.385 . S
C897 H883 0.931 . S
C897 C896 1.385 . S
C897 C898 1.389 . S
C898 C897 1.389 . S
C898 C899 1.387 . S
C899 H884 0.930 . S
C899 C894 1.390 . S
C899 C898 1.387 . S
H900 C912 0.930 . S
H901 C914 0.930 . S
H902 C915 0.930 . S
H903 C919 0.959 . S
H904 C919 0.959 . S
H905 C919 0.961 . S
H906 C920 0.960 . S
H907 C920 0.961 . S
H908 C920 0.959 . S
H909 C923 0.929 . S
H910 C924 0.931 . S
H911 C926 0.930 1_655 S
C912 H900 0.930 . S
C912 C913 1.399 . S
C912 C917 1.399 . S
C913 C912 1.399 . S
C913 C914 1.376 . S
C914 H901 0.930 . S
C914 C913 1.376 . S
C914 C915 1.388 . S
C915 H902 0.930 . S
C915 C914 1.388 . S
C915 C916 1.390 . S
C916 C915 1.390 . S
C916 C917 1.394 . S
C916 C922 1.465 . S
C917 C912 1.399 . S
C917 C916 1.394 . S
C917 C918 1.516 . S
C918 C917 1.516 . S
C918 C919 1.502 . S
C918 C920 1.561 1_455 S
C918 C921 1.526 . S
C919 H903 0.959 . S
C919 H904 0.959 . S
C919 H905 0.961 . S
C919 C918 1.502 . S
C920 H906 0.960 . S
C920 H907 0.961 . S
C920 H908 0.959 . S
C920 C918 1.561 1_655 S
C921 C918 1.526 . S
C921 C922 1.396 . S
C921 C926 1.390 . S
C922 C916 1.465 . S
C922 C921 1.396 . S
C922 C923 1.399 . S
C923 H909 0.929 . S
C923 C922 1.399 . S
C923 C924 1.385 . S
C924 H910 0.931 . S
C924 C923 1.385 . S
C924 C925 1.389 . S
C925 C924 1.389 . S
C925 C926 1.387 . S
C926 H911 0.930 1_455 S
C926 C921 1.390 . S
C926 C925 1.387 . S
H927 C939 0.930 . S
H928 C941 0.930 . S
H929 C942 0.930 . S
H930 C946 0.959 . S
H931 C946 0.959 . S
H932 C946 0.961 . S
H933 C947 0.960 . S
H934 C947 0.961 . S
H935 C947 0.959 . S
H936 C950 0.929 . S
H937 C951 0.931 . S
H938 C953 0.930 . S
C939 H927 0.930 . S
C939 C940 1.399 . S
C939 C944 1.399 . S
C940 C939 1.399 . S
C940 C941 1.376 . S
C941 H928 0.930 . S
C941 C940 1.376 . S
C941 C942 1.388 . S
C942 H929 0.930 . S
C942 C941 1.388 . S
C942 C943 1.390 . S
C943 C942 1.390 . S
C943 C944 1.394 . S
C943 C949 1.465 . S
C944 C939 1.399 . S
C944 C943 1.394 . S
C944 C945 1.516 . S
C945 C944 1.516 . S
C945 C946 1.502 . S
C945 C947 1.561 . S
C945 C948 1.526 . S
C946 H930 0.959 . S
C946 H931 0.959 . S
C946 H932 0.961 . S
C946 C945 1.502 . S
C947 H933 0.960 . S
C947 H934 0.961 . S
C947 H935 0.959 . S
C947 C945 1.561 . S
C948 C945 1.526 . S
C948 C949 1.396 . S
C948 C953 1.390 . S
C949 C943 1.465 . S
C949 C948 1.396 . S
C949 C950 1.399 . S
C950 H936 0.929 . S
C950 C949 1.399 . S
C950 C951 1.385 . S
C951 H937 0.931 . S
C951 C950 1.385 . S
C951 C952 1.389 . S
C952 C951 1.389 . S
C952 C953 1.387 . S
C953 H938 0.930 . S
C953 C948 1.390 . S
C953 C952 1.387 . S
H954 C966 0.930 . S
H955 C968 0.930 . S
H956 C969 0.930 . S
H957 C973 0.959 . S
H958 C973 0.959 . S
H959 C973 0.961 . S
H960 C974 0.960 . S
H961 C974 0.961 . S
H962 C974 0.959 . S
H963 C977 0.929 . S
H964 C978 0.931 . S
H965 C980 0.930 . S
C966 H954 0.930 . S
C966 C967 1.399 . S
C966 C971 1.399 . S
C967 C966 1.399 . S
C967 C968 1.376 . S
C968 H955 0.930 . S
C968 C967 1.376 . S
C968 C969 1.388 . S
C969 H956 0.930 . S
C969 C968 1.388 . S
C969 C970 1.390 . S
C970 C969 1.390 . S
C970 C971 1.394 . S
C970 C976 1.465 . S
C971 C966 1.399 . S
C971 C970 1.394 . S
C971 C972 1.516 . S
C972 C971 1.516 . S
C972 C973 1.502 . S
C972 C974 1.561 . S
C972 C975 1.526 . S
C973 H957 0.959 . S
C973 H958 0.959 . S
C973 H959 0.961 . S
C973 C972 1.502 . S
C974 H960 0.960 . S
C974 H961 0.961 . S
C974 H962 0.959 . S
C974 C972 1.561 . S
C975 C972 1.526 . S
C975 C976 1.396 . S
C975 C980 1.390 . S
C976 C970 1.465 . S
C976 C975 1.396 . S
C976 C977 1.399 1_556 S
C977 H963 0.929 . S
C977 C976 1.399 1_554 S
C977 C978 1.385 . S
C978 H964 0.931 . S
C978 C977 1.385 . S
C978 C979 1.384 1_554 S
C979 C978 1.384 1_556 S
C979 C980 1.395 . S
C980 H965 0.930 . S
C980 C975 1.390 . S
C980 C979 1.395 . S
H981 C993 0.930 . S
H982 C995 0.930 . S
H983 C996 0.930 . S
H984 C1000 0.959 . S
H985 C1000 0.959 . S
H986 C1000 0.961 . S
H987 C1001 0.960 . S
H988 C1001 0.961 . S
H989 C1001 0.959 . S
H990 C1004 0.929 . S
H991 C1005 0.931 . S
H992 C1007 0.930 . S
C993 H981 0.930 . S
C993 C994 1.399 . S
C993 C998 1.399 . S
C994 C993 1.399 . S
C994 C995 1.376 . S
C995 H982 0.930 . S
C995 C994 1.376 . S
C995 C996 1.388 . S
C996 H983 0.930 . S
C996 C995 1.388 . S
C996 C997 1.390 . S
C997 C996 1.390 . S
C997 C998 1.394 . S
C997 C1003 1.465 . S
C998 C993 1.399 . S
C998 C997 1.394 . S
C998 C999 1.516 . S
C999 C998 1.516 . S
C999 C1000 1.502 . S
C999 C1001 1.561 . S
C999 C1002 1.526 . S
C1000 H984 0.959 . S
C1000 H985 0.959 . S
C1000 H986 0.961 . S
C1000 C999 1.502 . S
C1001 H987 0.960 . S
C1001 H988 0.961 . S
C1001 H989 0.959 . S
C1001 C999 1.561 . S
C1002 C999 1.526 . S
C1002 C1003 1.396 . S
C1002 C1007 1.390 . S
C1003 C997 1.465 . S
C1003 C1002 1.396 . S
C1003 C1004 1.399 . S
C1004 H990 0.929 . S
C1004 C1003 1.399 . S
C1004 C1005 1.385 . S
C1005 H991 0.931 . S
C1005 C1004 1.385 . S
C1005 C1006 1.389 . S
C1006 C1005 1.389 . S
C1006 C1007 1.387 . S
C1007 H992 0.930 . S
C1007 C1002 1.390 . S
C1007 C1006 1.387 . S
H1008 C1020 0.930 . S
H1009 C1022 0.930 . S
H1010 C1023 0.930 . S
H1011 C1027 0.959 . S
H1012 C1027 0.959 . S
H1013 C1027 0.961 . S
H1014 C1028 0.960 . S
H1015 C1028 0.961 . S
H1016 C1028 0.959 . S
H1017 C1031 0.929 . S
H1018 C1032 0.931 . S
H1019 C1034 0.930 . S
C1020 H1008 0.930 . S
C1020 C1021 1.399 1_565 S
C1020 C1025 1.399 . S
C1021 C1020 1.399 1_545 S
C1021 C1022 1.376 . S
C1022 H1009 0.930 . S
C1022 C1021 1.376 . S
C1022 C1023 1.388 . S
C1023 H1010 0.930 . S
C1023 C1022 1.388 . S
C1023 C1024 1.390 . S
C1024 C1023 1.390 . S
C1024 C1025 1.394 1_545 S
C1024 C1030 1.465 . S
C1025 C1020 1.399 . S
C1025 C1024 1.394 1_565 S
C1025 C1026 1.516 . S
C1026 C1025 1.516 . S
C1026 C1027 1.502 . S
C1026 C1028 1.561 . S
C1026 C1029 1.526 . S
C1027 H1011 0.959 . S
C1027 H1012 0.959 . S
C1027 H1013 0.961 . S
C1027 C1026 1.502 . S
C1028 H1014 0.960 . S
C1028 H1015 0.961 . S
C1028 H1016 0.959 . S
C1028 C1026 1.561 . S
C1029 C1026 1.526 . S
C1029 C1030 1.396 1_565 S
C1029 C1034 1.390 . S
C1030 C1024 1.465 . S
C1030 C1029 1.396 1_545 S
C1030 C1031 1.399 . S
C1031 H1017 0.929 . S
C1031 C1030 1.399 . S
C1031 C1032 1.385 . S
C1032 H1018 0.931 . S
C1032 C1031 1.385 . S
C1032 C1033 1.416 . S
C1033 C1032 1.416 . S
C1033 C1034 1.367 1_545 S
C1034 H1019 0.930 . S
C1034 C1029 1.390 . S
C1034 C1033 1.367 1_565 S
H1035 C1047 0.930 . S
H1036 C1049 0.930 . S
H1037 C1050 0.930 . S
H1038 C1054 0.959 . S
H1039 C1054 0.959 . S
H1040 C1054 0.961 . S
H1041 C1055 0.960 . S
H1042 C1055 0.961 . S
H1043 C1055 0.959 . S
H1044 C1058 0.929 . S
H1045 C1059 0.931 . S
H1046 C1061 0.930 . S
C1047 H1035 0.930 . S
C1047 C1048 1.399 . S
C1047 C1052 1.399 . S
C1048 C1047 1.399 . S
C1048 C1049 1.376 . S
C1049 H1036 0.930 . S
C1049 C1048 1.376 . S
C1049 C1050 1.388 . S
C1050 H1037 0.930 . S
C1050 C1049 1.388 . S
C1050 C1051 1.390 . S
C1051 C1050 1.390 . S
C1051 C1052 1.394 . S
C1051 C1057 1.465 . S
C1052 C1047 1.399 . S
C1052 C1051 1.394 . S
C1052 C1053 1.516 . S
C1053 C1052 1.516 . S
C1053 C1054 1.502 . S
C1053 C1055 1.561 . S
C1053 C1056 1.526 . S
C1054 H1038 0.959 . S
C1054 H1039 0.959 . S
C1054 H1040 0.961 . S
C1054 C1053 1.502 . S
C1055 H1041 0.960 . S
C1055 H1042 0.961 . S
C1055 H1043 0.959 . S
C1055 C1053 1.561 . S
C1056 C1053 1.526 . S
C1056 C1057 1.396 . S
C1056 C1061 1.390 . S
C1057 C1051 1.465 . S
C1057 C1056 1.396 . S
C1057 C1058 1.399 . S
C1058 H1044 0.929 . S
C1058 C1057 1.399 . S
C1058 C1059 1.385 . S
C1059 H1045 0.931 . S
C1059 C1058 1.385 . S
C1059 C1060 1.389 . S
C1060 C1059 1.389 . S
C1060 C1061 1.387 . S
C1061 H1046 0.930 . S
C1061 C1056 1.390 . S
C1061 C1060 1.387 . S
H1062 C1074 0.930 . S
H1063 C1076 0.930 . S
H1064 C1077 0.930 . S
H1065 C1081 0.959 . S
H1066 C1081 0.959 . S
H1067 C1081 0.961 . S
H1068 C1082 0.960 . S
H1069 C1082 0.961 . S
H1070 C1082 0.959 . S
H1071 C1085 0.929 . S
H1072 C1086 0.931 . S
H1073 C1088 0.930 . S
C1074 H1062 0.930 . S
C1074 C1075 1.399 . S
C1074 C1079 1.399 . S
C1075 C1074 1.399 . S
C1075 C1076 1.376 . S
C1076 H1063 0.930 . S
C1076 C1075 1.376 . S
C1076 C1077 1.388 . S
C1077 H1064 0.930 . S
C1077 C1076 1.388 . S
C1077 C1078 1.390 . S
C1078 C1077 1.390 . S
C1078 C1079 1.394 . S
C1078 C1084 1.465 . S
C1079 C1074 1.399 . S
C1079 C1078 1.394 . S
C1079 C1080 1.516 . S
C1080 C1079 1.516 . S
C1080 C1081 1.502 . S
C1080 C1082 1.561 . S
C1080 C1083 1.526 . S
C1081 H1065 0.959 . S
C1081 H1066 0.959 . S
C1081 H1067 0.961 . S
C1081 C1080 1.502 . S
C1082 H1068 0.960 . S
C1082 H1069 0.961 . S
C1082 H1070 0.959 . S
C1082 C1080 1.561 . S
C1083 C1080 1.526 . S
C1083 C1084 1.396 . S
C1083 C1088 1.390 . S
C1084 C1078 1.465 . S
C1084 C1083 1.396 . S
C1084 C1085 1.399 . S
C1085 H1071 0.929 . S
C1085 C1084 1.399 . S
C1085 C1086 1.385 . S
C1086 H1072 0.931 . S
C1086 C1085 1.385 . S
C1086 C1087 1.389 . S
C1087 C1086 1.389 . S
C1087 C1088 1.387 . S
C1088 H1073 0.930 . S
C1088 C1083 1.390 . S
C1088 C1087 1.387 . S
H1089 C1101 0.930 . S
H1090 C1103 0.930 . S
H1091 C1104 0.930 . S
H1092 C1108 0.959 . S
H1093 C1108 0.959 . S
H1094 C1108 0.961 . S
H1095 C1109 0.960 . S
H1096 C1109 0.961 . S
H1097 C1109 0.959 . S
H1098 C1112 0.929 . S
H1099 C1113 0.931 . S
H1100 C1115 0.930 . S
C1101 H1089 0.930 . S
C1101 C1102 1.399 . S
C1101 C1106 1.399 . S
C1102 C1101 1.399 . S
C1102 C1103 1.376 . S
C1103 H1090 0.930 . S
C1103 C1102 1.376 . S
C1103 C1104 1.388 . S
C1104 H1091 0.930 . S
C1104 C1103 1.388 . S
C1104 C1105 1.390 . S
C1105 C1104 1.390 . S
C1105 C1106 1.394 . S
C1105 C1111 1.465 . S
C1106 C1101 1.399 . S
C1106 C1105 1.394 . S
C1106 C1107 1.516 . S
C1107 C1106 1.516 . S
C1107 C1108 1.502 . S
C1107 C1109 1.561 . S
C1107 C1110 1.526 . S
C1108 H1092 0.959 . S
C1108 H1093 0.959 . S
C1108 H1094 0.961 . S
C1108 C1107 1.502 . S
C1109 H1095 0.960 . S
C1109 H1096 0.961 . S
C1109 H1097 0.959 . S
C1109 C1107 1.561 . S
C1110 C1107 1.526 . S
C1110 C1111 1.396 . S
C1110 C1115 1.390 . S
C1111 C1105 1.465 . S
C1111 C1110 1.396 . S
C1111 C1112 1.399 . S
C1112 H1098 0.929 . S
C1112 C1111 1.399 . S
C1112 C1113 1.385 . S
C1113 H1099 0.931 . S
C1113 C1112 1.385 . S
C1113 C1114 1.389 . S
C1114 C1113 1.389 . S
C1114 C1115 1.387 . S
C1115 H1100 0.930 . S
C1115 C1110 1.390 . S
C1115 C1114 1.387 . S
H1116 C1128 0.930 . S
H1117 C1130 0.930 . S
H1118 C1131 0.930 . S
H1119 C1135 0.959 . S
H1120 C1135 0.959 . S
H1121 C1135 0.961 . S
H1122 C1136 0.960 . S
H1123 C1136 0.961 . S
H1124 C1136 0.959 . S
H1125 C1139 0.929 1_565 S
H1126 C1140 0.931 . S
H1127 C1142 0.930 . S
C1128 H1116 0.930 . S
C1128 C1129 1.399 . S
C1128 C1133 1.399 . S
C1129 C1128 1.399 . S
C1129 C1130 1.376 1_545 S
C1130 H1117 0.930 . S
C1130 C1129 1.376 1_565 S
C1130 C1131 1.388 . S
C1131 H1118 0.930 . S
C1131 C1130 1.388 . S
C1131 C1132 1.390 1_565 S
C1132 C1131 1.390 1_545 S
C1132 C1133 1.394 . S
C1132 C1138 1.465 . S
C1133 C1128 1.399 . S
C1133 C1132 1.394 . S
C1133 C1134 1.516 . S
C1134 C1133 1.516 . S
C1134 C1135 1.502 . S
C1134 C1136 1.561 . S
C1134 C1137 1.526 . S
C1135 H1119 0.959 . S
C1135 H1120 0.959 . S
C1135 H1121 0.961 . S
C1135 C1134 1.502 . S
C1136 H1122 0.960 . S
C1136 H1123 0.961 . S
C1136 H1124 0.959 . S
C1136 C1134 1.561 . S
C1137 C1134 1.526 . S
C1137 C1138 1.396 . S
C1137 C1142 1.390 . S
C1138 C1132 1.465 . S
C1138 C1137 1.396 . S
C1138 C1139 1.399 . S
C1139 H1125 0.929 1_545 S
C1139 C1138 1.399 . S
C1139 C1140 1.385 . S
C1140 H1126 0.931 . S
C1140 C1139 1.385 . S
C1140 C1141 1.389 . S
C1141 C1140 1.389 . S
C1141 C1142 1.387 . S
C1142 H1127 0.930 . S
C1142 C1137 1.390 . S
C1142 C1141 1.387 . S
H1143 C1155 0.930 . S
H1144 C1157 0.930 . S
H1145 C1158 0.930 . S
H1146 C1162 0.959 . S
H1147 C1162 0.959 . S
H1148 C1162 0.961 . S
H1149 C1163 0.960 . S
H1150 C1163 0.961 . S
H1151 C1163 0.959 . S
H1152 C1166 0.929 . S
H1153 C1167 0.931 . S
H1154 C1169 0.930 . S
C1155 H1143 0.930 . S
C1155 C1156 1.399 . S
C1155 C1160 1.399 . S
C1156 C1155 1.399 . S
C1156 C1157 1.376 . S
C1157 H1144 0.930 . S
C1157 C1156 1.376 . S
C1157 C1158 1.388 . S
C1158 H1145 0.930 . S
C1158 C1157 1.388 . S
C1158 C1159 1.390 . S
C1159 C1158 1.390 . S
C1159 C1160 1.394 . S
C1159 C1165 1.465 . S
C1160 C1155 1.399 . S
C1160 C1159 1.394 . S
C1160 C1161 1.516 . S
C1161 C1160 1.516 . S
C1161 C1162 1.502 . S
C1161 C1163 1.561 . S
C1161 C1164 1.526 . S
C1162 H1146 0.959 . S
C1162 H1147 0.959 . S
C1162 H1148 0.961 . S
C1162 C1161 1.502 . S
C1163 H1149 0.960 . S
C1163 H1150 0.961 . S
C1163 H1151 0.959 . S
C1163 C1161 1.561 . S
C1164 C1161 1.526 . S
C1164 C1165 1.396 . S
C1164 C1169 1.390 . S
C1165 C1159 1.465 . S
C1165 C1164 1.396 . S
C1165 C1166 1.399 . S
C1166 H1152 0.929 . S
C1166 C1165 1.399 . S
C1166 C1167 1.385 . S
C1167 H1153 0.931 . S
C1167 C1166 1.385 . S
C1167 C1168 1.389 . S
C1168 C1167 1.389 . S
C1168 C1169 1.387 . S
C1169 H1154 0.930 . S
C1169 C1164 1.390 . S
C1169 C1168 1.387 . S
H1170 C1182 0.930 . S
H1171 C1184 0.930 . S
H1172 C1185 0.930 . S
H1173 C1189 0.959 . S
H1174 C1189 0.959 1_565 S
H1175 C1189 0.961 1_565 S
H1176 C1190 0.960 . S
H1177 C1190 0.961 . S
H1178 C1190 0.959 . S
H1179 C1193 0.929 . S
H1180 C1194 0.931 . S
H1181 C1196 0.930 1_565 S
C1182 H1170 0.930 . S
C1182 C1183 1.399 . S
C1182 C1187 1.399 . S
C1183 C1182 1.399 . S
C1183 C1184 1.376 . S
C1184 H1171 0.930 . S
C1184 C1183 1.376 . S
C1184 C1185 1.388 . S
C1185 H1172 0.930 . S
C1185 C1184 1.388 . S
C1185 C1186 1.390 . S
C1186 C1185 1.390 . S
C1186 C1187 1.394 . S
C1186 C1192 1.465 . S
C1187 C1182 1.399 . S
C1187 C1186 1.394 . S
C1187 C1188 1.516 . S
C1188 C1187 1.516 . S
C1188 C1189 1.502 . S
C1188 C1190 1.561 1_545 S
C1188 C1191 1.526 . S
C1189 H1173 0.959 . S
C1189 H1174 0.959 1_545 S
C1189 H1175 0.961 1_545 S
C1189 C1188 1.502 . S
C1190 H1176 0.960 . S
C1190 H1177 0.961 . S
C1190 H1178 0.959 . S
C1190 C1188 1.561 1_565 S
C1191 C1188 1.526 . S
C1191 C1192 1.396 . S
C1191 C1196 1.390 . S
C1192 C1186 1.465 . S
C1192 C1191 1.396 . S
C1192 C1193 1.399 . S
C1193 H1179 0.929 . S
C1193 C1192 1.399 . S
C1193 C1194 1.385 . S
C1194 H1180 0.931 . S
C1194 C1193 1.385 . S
C1194 C1195 1.389 . S
C1195 C1194 1.389 . S
C1195 C1196 1.387 . S
C1196 H1181 0.930 1_545 S
C1196 C1191 1.390 . S
C1196 C1195 1.387 . S
H1197 C1209 0.930 . S
H1198 C1211 0.930 . S
H1199 C1212 0.930 . S
H1200 C1216 0.959 . S
H1201 C1216 0.959 . S
H1202 C1216 0.961 . S
H1203 C1217 0.960 . S
H1204 C1217 0.961 . S
H1205 C1217 0.959 . S
H1206 C1220 0.929 . S
H1207 C1221 0.931 . S
H1208 C1223 0.930 . S
C1209 H1197 0.930 . S
C1209 C1210 1.399 . S
C1209 C1214 1.399 . S
C1210 C1209 1.399 . S
C1210 C1211 1.376 . S
C1211 H1198 0.930 . S
C1211 C1210 1.376 . S
C1211 C1212 1.388 . S
C1212 H1199 0.930 . S
C1212 C1211 1.388 . S
C1212 C1213 1.390 . S
C1213 C1212 1.390 . S
C1213 C1214 1.394 . S
C1213 C1219 1.465 . S
C1214 C1209 1.399 . S
C1214 C1213 1.394 . S
C1214 C1215 1.516 . S
C1215 C1214 1.516 . S
C1215 C1216 1.502 . S
C1215 C1217 1.561 . S
C1215 C1218 1.526 . S
C1216 H1200 0.959 . S
C1216 H1201 0.959 . S
C1216 H1202 0.961 . S
C1216 C1215 1.502 . S
C1217 H1203 0.960 . S
C1217 H1204 0.961 . S
C1217 H1205 0.959 . S
C1217 C1215 1.561 . S
C1218 C1215 1.526 . S
C1218 C1219 1.396 . S
C1218 C1223 1.390 . S
C1219 C1213 1.465 . S
C1219 C1218 1.396 . S
C1219 C1220 1.399 . S
C1220 H1206 0.929 . S
C1220 C1219 1.399 . S
C1220 C1221 1.385 . S
C1221 H1207 0.931 . S
C1221 C1220 1.385 . S
C1221 C1222 1.389 . S
C1222 C1221 1.389 . S
C1222 C1223 1.387 . S
C1223 H1208 0.930 . S
C1223 C1218 1.390 . S
C1223 C1222 1.387 . S
H1224 C1236 0.930 . S
H1225 C1238 0.930 . S
H1226 C1239 0.930 . S
H1227 C1243 0.959 . S
H1228 C1243 0.959 . S
H1229 C1243 0.961 . S
H1230 C1244 0.960 . S
H1231 C1244 0.961 . S
H1232 C1244 0.959 . S
H1233 C1247 0.929 . S
H1234 C1248 0.931 . S
H1235 C1250 0.930 . S
C1236 H1224 0.930 . S
C1236 C1237 1.399 . S
C1236 C1241 1.399 . S
C1237 C1236 1.399 . S
C1237 C1238 1.376 1_554 S
C1238 H1225 0.930 . S
C1238 C1237 1.376 1_556 S
C1238 C1239 1.388 . S
C1239 H1226 0.930 . S
C1239 C1238 1.388 . S
C1239 C1240 1.390 1_556 S
C1240 C1239 1.390 1_554 S
C1240 C1241 1.394 . S
C1240 C1246 1.465 . S
C1241 C1236 1.399 . S
C1241 C1240 1.394 . S
C1241 C1242 1.516 . S
C1242 C1241 1.516 . S
C1242 C1243 1.502 . S
C1242 C1244 1.561 . S
C1242 C1245 1.526 . S
C1243 H1227 0.959 . S
C1243 H1228 0.959 . S
C1243 H1229 0.961 . S
C1243 C1242 1.502 . S
C1244 H1230 0.960 . S
C1244 H1231 0.961 . S
C1244 H1232 0.959 . S
C1244 C1242 1.561 . S
C1245 C1242 1.526 . S
C1245 C1246 1.396 . S
C1245 C1250 1.390 . S
C1246 C1240 1.465 . S
C1246 C1245 1.396 . S
C1246 C1247 1.399 1_554 S
C1247 H1233 0.929 . S
C1247 C1246 1.399 1_556 S
C1247 C1248 1.385 . S
C1248 H1234 0.931 . S
C1248 C1247 1.385 . S
C1248 C1249 1.389 1_556 S
C1249 C1248 1.389 1_554 S
C1249 C1250 1.387 . S
C1250 H1235 0.930 . S
C1250 C1245 1.390 . S
C1250 C1249 1.387 . S
H1251 C1263 0.930 . S
H1252 C1265 0.930 . S
H1253 C1266 0.930 . S
H1254 C1270 0.959 . S
H1255 C1270 0.959 . S
H1256 C1270 0.961 . S
H1257 C1271 0.960 1_556 S
H1258 C1271 0.961 1_556 S
H1259 C1271 0.959 . S
H1260 C1274 0.929 . S
H1261 C1275 0.931 . S
H1262 C1277 0.930 . S
C1263 H1251 0.930 . S
C1263 C1264 1.399 . S
C1263 C1268 1.399 . S
C1264 C1263 1.399 . S
C1264 C1265 1.376 . S
C1265 H1252 0.930 . S
C1265 C1264 1.376 . S
C1265 C1266 1.388 . S
C1266 H1253 0.930 . S
C1266 C1265 1.388 . S
C1266 C1267 1.390 . S
C1267 C1266 1.390 . S
C1267 C1268 1.394 . S
C1267 C1273 1.465 . S
C1268 C1263 1.399 . S
C1268 C1267 1.394 . S
C1268 C1269 1.516 . S
C1269 C1268 1.516 . S
C1269 C1270 1.502 . S
C1269 C1271 1.561 . S
C1269 C1272 1.526 . S
C1270 H1254 0.959 . S
C1270 H1255 0.959 . S
C1270 H1256 0.961 . S
C1270 C1269 1.502 . S
C1271 H1257 0.960 1_554 S
C1271 H1258 0.961 1_554 S
C1271 H1259 0.959 . S
C1271 C1269 1.561 . S
C1272 C1269 1.526 . S
C1272 C1273 1.396 . S
C1272 C1277 1.390 . S
C1273 C1267 1.465 . S
C1273 C1272 1.396 . S
C1273 C1274 1.399 . S
C1274 H1260 0.929 . S
C1274 C1273 1.399 . S
C1274 C1275 1.385 . S
C1275 H1261 0.931 . S
C1275 C1274 1.385 . S
C1275 C1276 1.389 . S
C1276 C1275 1.389 . S
C1276 C1277 1.387 . S
C1277 H1262 0.930 . S
C1277 C1272 1.390 . S
C1277 C1276 1.387 . S
H1278 C1290 0.930 . S
H1279 C1292 0.930 . S
H1280 C1293 0.930 . S
H1281 C1297 0.959 . S
H1282 C1297 0.959 . S
H1283 C1297 0.961 . S
H1284 C1298 0.960 . S
H1285 C1298 0.961 . S
H1286 C1298 0.959 . S
H1287 C1301 0.929 . S
H1288 C1302 0.931 . S
H1289 C1304 0.930 . S
C1290 H1278 0.930 . S
C1290 C1291 1.399 . S
C1290 C1295 1.399 . S
C1291 C1290 1.399 . S
C1291 C1292 1.376 . S
C1292 H1279 0.930 . S
C1292 C1291 1.376 . S
C1292 C1293 1.388 . S
C1293 H1280 0.930 . S
C1293 C1292 1.388 . S
C1293 C1294 1.390 . S
C1294 C1293 1.390 . S
C1294 C1295 1.394 . S
C1294 C1300 1.465 . S
C1295 C1290 1.399 . S
C1295 C1294 1.394 . S
C1295 C1296 1.516 . S
C1296 C1295 1.516 . S
C1296 C1297 1.502 . S
C1296 C1298 1.561 . S
C1296 C1299 1.526 . S
C1297 H1281 0.959 . S
C1297 H1282 0.959 . S
C1297 H1283 0.961 . S
C1297 C1296 1.502 . S
C1298 H1284 0.960 . S
C1298 H1285 0.961 . S
C1298 H1286 0.959 . S
C1298 C1296 1.561 . S
C1299 C1296 1.526 . S
C1299 C1300 1.396 . S
C1299 C1304 1.390 . S
C1300 C1294 1.465 . S
C1300 C1299 1.396 . S
C1300 C1301 1.399 . S
C1301 H1287 0.929 . S
C1301 C1300 1.399 . S
C1301 C1302 1.385 . S
C1302 H1288 0.931 . S
C1302 C1301 1.385 . S
C1302 C1303 1.389 . S
C1303 C1302 1.389 . S
C1303 C1304 1.387 . S
C1304 H1289 0.930 . S
C1304 C1299 1.390 . S
C1304 C1303 1.387 . S
H1305 C1317 0.930 . S
H1306 C1319 0.930 . S
H1307 C1320 0.930 . S
H1308 C1324 0.959 . S
H1309 C1324 0.959 . S
H1310 C1324 0.961 . S
H1311 C1325 0.960 . S
H1312 C1325 0.961 . S
H1313 C1325 0.959 . S
H1314 C1328 0.929 . S
H1315 C1329 0.931 . S
H1316 C1331 0.930 . S
C1317 H1305 0.930 . S
C1317 C1318 1.399 . S
C1317 C1322 1.399 . S
C1318 C1317 1.399 . S
C1318 C1319 1.376 . S
C1319 H1306 0.930 . S
C1319 C1318 1.376 . S
C1319 C1320 1.388 . S
C1320 H1307 0.930 . S
C1320 C1319 1.388 . S
C1320 C1321 1.390 . S
C1321 C1320 1.390 . S
C1321 C1322 1.394 . S
C1321 C1327 1.465 . S
C1322 C1317 1.399 . S
C1322 C1321 1.394 . S
C1322 C1323 1.516 . S
C1323 C1322 1.516 . S
C1323 C1324 1.502 . S
C1323 C1325 1.561 . S
C1323 C1326 1.526 . S
C1324 H1308 0.959 . S
C1324 H1309 0.959 . S
C1324 H1310 0.961 . S
C1324 C1323 1.502 . S
C1325 H1311 0.960 . S
C1325 H1312 0.961 . S
C1325 H1313 0.959 . S
C1325 C1323 1.561 . S
C1326 C1323 1.526 . S
C1326 C1327 1.396 . S
C1326 C1331 1.390 . S
C1327 C1321 1.465 . S
C1327 C1326 1.396 . S
C1327 C1328 1.399 . S
C1328 H1314 0.929 . S
C1328 C1327 1.399 . S
C1328 C1329 1.385 . S
C1329 H1315 0.931 . S
C1329 C1328 1.385 . S
C1329 C1330 1.389 . S
C1330 C1329 1.389 . S
C1330 C1331 1.387 . S
C1331 H1316 0.930 . S
C1331 C1326 1.390 . S
C1331 C1330 1.387 . S
H1332 C1344 0.930 . S
H1333 C1346 0.930 . S
H1334 C1347 0.930 . S
H1335 C1351 0.959 . S
H1336 C1351 0.959 . S
H1337 C1351 0.961 . S
H1338 C1352 0.960 . S
H1339 C1352 0.961 . S
H1340 C1352 0.959 . S
H1341 C1355 0.929 . S
H1342 C1356 0.931 . S
H1343 C1358 0.930 . S
C1344 H1332 0.930 . S
C1344 C1345 1.399 . S
C1344 C1349 1.399 . S
C1345 C1344 1.399 . S
C1345 C1346 1.376 . S
C1346 H1333 0.930 . S
C1346 C1345 1.376 . S
C1346 C1347 1.388 . S
C1347 H1334 0.930 . S
C1347 C1346 1.388 . S
C1347 C1348 1.390 . S
C1348 C1347 1.390 . S
C1348 C1349 1.394 . S
C1348 C1354 1.465 . S
C1349 C1344 1.399 . S
C1349 C1348 1.394 . S
C1349 C1350 1.516 . S
C1350 C1349 1.516 . S
C1350 C1351 1.502 . S
C1350 C1352 1.561 . S
C1350 C1353 1.526 . S
C1351 H1335 0.959 . S
C1351 H1336 0.959 . S
C1351 H1337 0.961 . S
C1351 C1350 1.502 . S
C1352 H1338 0.960 . S
C1352 H1339 0.961 . S
C1352 H1340 0.959 . S
C1352 C1350 1.561 . S
C1353 C1350 1.526 . S
C1353 C1354 1.396 . S
C1353 C1358 1.390 . S
C1354 C1348 1.465 . S
C1354 C1353 1.396 . S
C1354 C1355 1.399 . S
C1355 H1341 0.929 . S
C1355 C1354 1.399 . S
C1355 C1356 1.385 . S
C1356 H1342 0.931 . S
C1356 C1355 1.385 . S
C1356 C1357 1.389 . S
C1357 C1356 1.389 . S
C1357 C1358 1.387 . S
C1358 H1343 0.930 . S
C1358 C1353 1.390 . S
C1358 C1357 1.387 . S
H1359 C1371 0.930 . S
H1360 C1373 0.930 . S
H1361 C1374 0.930 . S
H1362 C1378 0.959 1_545 S
H1363 C1378 0.959 1_545 S
H1364 C1378 0.961 . S
H1365 C1379 0.960 . S
H1366 C1379 0.961 . S
H1367 C1379 0.959 . S
H1368 C1382 0.929 . S
H1369 C1383 0.931 . S
H1370 C1385 0.930 1_545 S
C1371 H1359 0.930 . S
C1371 C1372 1.399 . S
C1371 C1376 1.399 . S
C1372 C1371 1.399 . S
C1372 C1373 1.376 . S
C1373 H1360 0.930 . S
C1373 C1372 1.376 . S
C1373 C1374 1.388 . S
C1374 H1361 0.930 . S
C1374 C1373 1.388 . S
C1374 C1375 1.390 . S
C1375 C1374 1.390 . S
C1375 C1376 1.394 . S
C1375 C1381 1.465 . S
C1376 C1371 1.399 . S
C1376 C1375 1.394 . S
C1376 C1377 1.516 . S
C1377 C1376 1.516 . S
C1377 C1378 1.502 . S
C1377 C1379 1.561 . S
C1377 C1380 1.526 . S
C1378 H1362 0.959 1_565 S
C1378 H1363 0.959 1_565 S
C1378 H1364 0.961 . S
C1378 C1377 1.502 . S
C1379 H1365 0.960 . S
C1379 H1366 0.961 . S
C1379 H1367 0.959 . S
C1379 C1377 1.561 . S
C1380 C1377 1.526 . S
C1380 C1381 1.396 . S
C1380 C1385 1.390 . S
C1381 C1375 1.465 . S
C1381 C1380 1.396 . S
C1381 C1382 1.399 . S
C1382 H1368 0.929 . S
C1382 C1381 1.399 . S
C1382 C1383 1.385 . S
C1383 H1369 0.931 . S
C1383 C1382 1.385 . S
C1383 C1384 1.389 . S
C1384 C1383 1.389 . S
C1384 C1385 1.387 . S
C1385 H1370 0.930 1_565 S
C1385 C1380 1.390 . S
C1385 C1384 1.387 . S
H1386 C1398 0.930 . S
H1387 C1400 0.930 . S
H1388 C1401 0.930 . S
H1389 C1405 0.959 . S
H1390 C1405 0.959 . S
H1391 C1405 0.961 . S
H1392 C1406 0.960 . S
H1393 C1406 0.961 . S
H1394 C1406 0.959 . S
H1395 C1409 0.929 . S
H1396 C1410 0.931 . S
H1397 C1412 0.930 . S
C1398 H1386 0.930 . S
C1398 C1399 1.399 . S
C1398 C1403 1.399 . S
C1399 C1398 1.399 . S
C1399 C1400 1.376 . S
C1400 H1387 0.930 . S
C1400 C1399 1.376 . S
C1400 C1401 1.388 . S
C1401 H1388 0.930 . S
C1401 C1400 1.388 . S
C1401 C1402 1.390 . S
C1402 C1401 1.390 . S
C1402 C1403 1.394 . S
C1402 C1408 1.465 . S
C1403 C1398 1.399 . S
C1403 C1402 1.394 . S
C1403 C1404 1.516 . S
C1404 C1403 1.516 . S
C1404 C1405 1.502 . S
C1404 C1406 1.561 . S
C1404 C1407 1.526 . S
C1405 H1389 0.959 . S
C1405 H1390 0.959 . S
C1405 H1391 0.961 . S
C1405 C1404 1.502 . S
C1406 H1392 0.960 . S
C1406 H1393 0.961 . S
C1406 H1394 0.959 . S
C1406 C1404 1.561 . S
C1407 C1404 1.526 . S
C1407 C1408 1.396 . S
C1407 C1412 1.390 . S
C1408 C1402 1.465 . S
C1408 C1407 1.396 . S
C1408 C1409 1.399 . S
C1409 H1395 0.929 . S
C1409 C1408 1.399 . S
C1409 C1410 1.385 . S
C1410 H1396 0.931 . S
C1410 C1409 1.385 . S
C1410 C1411 1.389 . S
C1411 C1410 1.389 . S
C1411 C1412 1.387 . S
C1412 H1397 0.930 . S
C1412 C1407 1.390 . S
C1412 C1411 1.387 . S
H1413 C1425 0.930 . S
H1414 C1427 0.930 . S
H1415 C1428 0.930 . S
H1416 C1432 0.959 . S
H1417 C1432 0.959 . S
H1418 C1432 0.961 . S
H1419 C1433 0.960 . S
H1420 C1433 0.961 . S
H1421 C1433 0.959 . S
H1422 C1436 0.929 . S
H1423 C1437 0.931 . S
H1424 C1439 0.930 . S
C1425 H1413 0.930 . S
C1425 C1426 1.399 . S
C1425 C1430 1.399 . S
C1426 C1425 1.399 . S
C1426 C1427 1.376 . S
C1427 H1414 0.930 . S
C1427 C1426 1.376 . S
C1427 C1428 1.388 . S
C1428 H1415 0.930 . S
C1428 C1427 1.388 . S
C1428 C1429 1.390 . S
C1429 C1428 1.390 . S
C1429 C1430 1.394 . S
C1429 C1435 1.465 . S
C1430 C1425 1.399 . S
C1430 C1429 1.394 . S
C1430 C1431 1.516 . S
C1431 C1430 1.516 . S
C1431 C1432 1.502 . S
C1431 C1433 1.561 . S
C1431 C1434 1.526 . S
C1432 H1416 0.959 . S
C1432 H1417 0.959 . S
C1432 H1418 0.961 . S
C1432 C1431 1.502 . S
C1433 H1419 0.960 . S
C1433 H1420 0.961 . S
C1433 H1421 0.959 . S
C1433 C1431 1.561 . S
C1434 C1431 1.526 . S
C1434 C1435 1.396 . S
C1434 C1439 1.390 . S
C1435 C1429 1.465 . S
C1435 C1434 1.396 . S
C1435 C1436 1.399 . S
C1436 H1422 0.929 . S
C1436 C1435 1.399 . S
C1436 C1437 1.385 . S
C1437 H1423 0.931 . S
C1437 C1436 1.385 . S
C1437 C1438 1.389 . S
C1438 C1437 1.389 . S
C1438 C1439 1.387 . S
C1439 H1424 0.930 . S
C1439 C1434 1.390 . S
C1439 C1438 1.387 . S
H1440 C1452 0.930 . S
H1441 C1454 0.930 . S
H1442 C1455 0.930 . S
H1443 C1459 0.963 1_656 S
H1444 C1459 0.958 . S
H1445 C1459 0.962 1_655 S
H1446 C1460 0.960 . S
H1447 C1460 0.961 . S
H1448 C1460 0.959 1_556 S
H1449 C1463 0.929 . S
H1450 C1464 0.931 . S
H1451 C1466 0.898 1_554 S
C1452 H1440 0.930 . S
C1452 C1453 1.399 . S
C1452 C1457 1.399 . S
C1453 C1452 1.399 . S
C1453 C1454 1.376 . S
C1454 H1441 0.930 . S
C1454 C1453 1.376 . S
C1454 C1455 1.388 . S
C1455 H1442 0.930 . S
C1455 C1454 1.388 . S
C1455 C1456 1.390 . S
C1456 C1455 1.390 . S
C1456 C1457 1.394 . S
C1456 C1462 1.465 . S
C1457 C1452 1.399 . S
C1457 C1456 1.394 . S
C1457 C1458 1.516 . S
C1458 C1457 1.516 . S
C1458 C1459 1.498 1_556 S
C1458 C1460 1.561 1_556 S
C1458 C1461 1.526 . S
C1459 H1443 0.963 1_454 S
C1459 H1444 0.958 . S
C1459 H1445 0.962 1_455 S
C1459 C1458 1.498 1_554 S
C1460 H1446 0.960 . S
C1460 H1447 0.961 . S
C1460 H1448 0.959 1_554 S
C1460 C1458 1.561 1_554 S
C1461 C1458 1.526 . S
C1461 C1462 1.396 . S
C1461 C1466 1.410 . S
C1462 C1456 1.465 . S
C1462 C1461 1.396 . S
C1462 C1463 1.399 . S
C1463 H1449 0.929 . S
C1463 C1462 1.399 . S
C1463 C1464 1.385 . S
C1464 H1450 0.931 . S
C1464 C1463 1.385 . S
C1464 C1465 1.389 . S
C1465 C1464 1.389 . S
C1465 C1466 1.398 . S
C1466 H1451 0.898 1_556 S
C1466 C1461 1.410 . S
C1466 C1465 1.398 . S
H1467 C1479 0.930 . S
H1468 C1481 0.930 . S
H1469 C1482 0.930 . S
H1470 C1486 0.959 . S
H1471 C1486 0.959 . S
H1472 C1486 0.961 . S
H1473 C1487 0.960 . S
H1474 C1487 0.961 . S
H1475 C1487 0.959 . S
H1476 C1490 0.929 . S
H1477 C1491 0.931 . S
H1478 C1493 0.930 . S
C1479 H1467 0.930 . S
C1479 C1480 1.399 . S
C1479 C1484 1.399 . S
C1480 C1479 1.399 . S
C1480 C1481 1.376 . S
C1481 H1468 0.930 . S
C1481 C1480 1.376 . S
C1481 C1482 1.388 . S
C1482 H1469 0.930 . S
C1482 C1481 1.388 . S
C1482 C1483 1.390 . S
C1483 C1482 1.390 . S
C1483 C1484 1.394 . S
C1483 C1489 1.465 . S
C1484 C1479 1.399 . S
C1484 C1483 1.394 . S
C1484 C1485 1.516 . S
C1485 C1484 1.516 . S
C1485 C1486 1.502 . S
C1485 C1487 1.561 . S
C1485 C1488 1.526 . S
C1486 H1470 0.959 . S
C1486 H1471 0.959 . S
C1486 H1472 0.961 . S
C1486 C1485 1.502 . S
C1487 H1473 0.960 . S
C1487 H1474 0.961 . S
C1487 H1475 0.959 . S
C1487 C1485 1.561 . S
C1488 C1485 1.526 . S
C1488 C1489 1.396 . S
C1488 C1493 1.390 . S
C1489 C1483 1.465 . S
C1489 C1488 1.396 . S
C1489 C1490 1.399 . S
C1490 H1476 0.929 . S
C1490 C1489 1.399 . S
C1490 C1491 1.385 . S
C1491 H1477 0.931 . S
C1491 C1490 1.385 . S
C1491 C1492 1.389 . S
C1492 C1491 1.389 . S
C1492 C1493 1.387 . S
C1493 H1478 0.930 . S
C1493 C1488 1.390 . S
C1493 C1492 1.387 . S
H1494 C1506 0.930 . S
H1495 C1508 0.930 . S
H1496 C1509 0.930 . S
H1497 C1513 0.959 . S
H1498 C1513 0.959 . S
H1499 C1513 0.961 . S
H1500 C1514 0.960 . S
H1501 C1514 0.961 . S
H1502 C1514 0.959 . S
H1503 C1517 0.929 . S
H1504 C1518 0.931 . S
H1505 C1520 0.930 . S
C1506 H1494 0.930 . S
C1506 C1507 1.399 . S
C1506 C1511 1.399 . S
C1507 C1506 1.399 . S
C1507 C1508 1.376 . S
C1508 H1495 0.930 . S
C1508 C1507 1.376 . S
C1508 C1509 1.388 . S
C1509 H1496 0.930 . S
C1509 C1508 1.388 . S
C1509 C1510 1.390 . S
C1510 C1509 1.390 . S
C1510 C1511 1.394 . S
C1510 C1516 1.465 . S
C1511 C1506 1.399 . S
C1511 C1510 1.394 . S
C1511 C1512 1.516 . S
C1512 C1511 1.516 . S
C1512 C1513 1.502 . S
C1512 C1514 1.561 . S
C1512 C1515 1.526 . S
C1513 H1497 0.959 . S
C1513 H1498 0.959 . S
C1513 H1499 0.961 . S
C1513 C1512 1.502 . S
C1514 H1500 0.960 . S
C1514 H1501 0.961 . S
C1514 H1502 0.959 . S
C1514 C1512 1.561 . S
C1515 C1512 1.526 . S
C1515 C1516 1.396 . S
C1515 C1520 1.390 . S
C1516 C1510 1.465 . S
C1516 C1515 1.396 . S
C1516 C1517 1.399 . S
C1517 H1503 0.929 . S
C1517 C1516 1.399 . S
C1517 C1518 1.385 . S
C1518 H1504 0.931 . S
C1518 C1517 1.385 . S
C1518 C1519 1.389 . S
C1519 C1518 1.389 . S
C1519 C1520 1.387 . S
C1520 H1505 0.930 . S
C1520 C1515 1.390 . S
C1520 C1519 1.387 . S
H1521 C1533 0.930 . S
H1522 C1535 0.930 . S
H1523 C1536 0.930 . S
H1524 C1540 0.959 . S
H1525 C1540 0.959 . S
H1526 C1540 0.961 . S
H1527 C1541 0.960 . S
H1528 C1541 0.961 . S
H1529 C1541 0.959 . S
H1530 C1544 0.929 . S
H1531 C1545 0.931 . S
H1532 C1547 0.930 . S
C1533 H1521 0.930 . S
C1533 C1534 1.399 . S
C1533 C1538 1.399 . S
C1534 C1533 1.399 . S
C1534 C1535 1.376 . S
C1535 H1522 0.930 . S
C1535 C1534 1.376 . S
C1535 C1536 1.388 . S
C1536 H1523 0.930 . S
C1536 C1535 1.388 . S
C1536 C1537 1.390 . S
C1537 C1536 1.390 . S
C1537 C1538 1.394 . S
C1537 C1543 1.465 . S
C1538 C1533 1.399 . S
C1538 C1537 1.394 . S
C1538 C1539 1.516 . S
C1539 C1538 1.516 . S
C1539 C1540 1.502 . S
C1539 C1541 1.561 . S
C1539 C1542 1.526 . S
C1540 H1524 0.959 . S
C1540 H1525 0.959 . S
C1540 H1526 0.961 . S
C1540 C1539 1.502 . S
C1541 H1527 0.960 . S
C1541 H1528 0.961 . S
C1541 H1529 0.959 . S
C1541 C1539 1.561 . S
C1542 C1539 1.526 . S
C1542 C1543 1.396 . S
C1542 C1547 1.390 . S
C1543 C1537 1.465 . S
C1543 C1542 1.396 . S
C1543 C1544 1.399 . S
C1544 H1530 0.929 . S
C1544 C1543 1.399 . S
C1544 C1545 1.385 . S
C1545 H1531 0.931 . S
C1545 C1544 1.385 . S
C1545 C1546 1.389 . S
C1546 C1545 1.389 . S
C1546 C1547 1.387 . S
C1547 H1532 0.930 . S
C1547 C1542 1.390 . S
C1547 C1546 1.387 . S
H1548 C1560 0.930 . S
H1549 C1562 0.930 . S
H1550 C1563 0.930 . S
H1551 C1567 0.959 . S
H1552 C1567 0.959 . S
H1553 C1567 0.961 . S
H1554 C1568 0.960 . S
H1555 C1568 0.961 . S
H1556 C1568 0.959 . S
H1557 C1571 0.929 . S
H1558 C1572 0.931 1_655 S
H1559 C1574 0.930 . S
C1560 H1548 0.930 . S
C1560 C1561 1.399 1_455 S
C1560 C1565 1.399 . S
C1561 C1560 1.399 1_655 S
C1561 C1562 1.376 . S
C1562 H1549 0.930 . S
C1562 C1561 1.376 . S
C1562 C1563 1.388 . S
C1563 H1550 0.930 . S
C1563 C1562 1.388 . S
C1563 C1564 1.390 . S
C1564 C1563 1.390 . S
C1564 C1565 1.394 1_655 S
C1564 C1570 1.465 1_655 S
C1565 C1560 1.399 . S
C1565 C1564 1.394 1_455 S
C1565 C1566 1.516 . S
C1566 C1565 1.516 . S
C1566 C1567 1.502 . S
C1566 C1568 1.561 . S
C1566 C1569 1.526 . S
C1567 H1551 0.959 . S
C1567 H1552 0.959 . S
C1567 H1553 0.961 . S
C1567 C1566 1.502 . S
C1568 H1554 0.960 . S
C1568 H1555 0.961 . S
C1568 H1556 0.959 . S
C1568 C1566 1.561 . S
C1569 C1566 1.526 . S
C1569 C1570 1.396 . S
C1569 C1574 1.390 . S
C1570 C1564 1.465 1_455 S
C1570 C1569 1.396 . S
C1570 C1571 1.399 1_455 S
C1571 H1557 0.929 . S
C1571 C1570 1.399 1_655 S
C1571 C1572 1.385 1_655 S
C1572 H1558 0.931 1_455 S
C1572 C1571 1.385 1_455 S
C1572 C1573 1.389 . S
C1573 C1572 1.389 . S
C1573 C1574 1.387 . S
C1574 H1559 0.930 . S
C1574 C1569 1.390 . S
C1574 C1573 1.387 . S
H1575 C1587 0.930 . S
H1576 C1589 0.930 . S
H1577 C1590 0.930 . S
H1578 C1594 0.959 . S
H1579 C1594 0.959 . S
H1580 C1594 0.961 . S
H1581 C1595 0.960 . S
H1582 C1595 0.961 . S
H1583 C1595 0.959 . S
H1584 C1598 0.929 . S
H1585 C1599 0.931 . S
H1586 C1601 0.930 . S
C1587 H1575 0.930 . S
C1587 C1588 1.399 . S
C1587 C1592 1.399 . S
C1588 C1587 1.399 . S
C1588 C1589 1.376 . S
C1589 H1576 0.930 . S
C1589 C1588 1.376 . S
C1589 C1590 1.388 . S
C1590 H1577 0.930 . S
C1590 C1589 1.388 . S
C1590 C1591 1.390 . S
C1591 C1590 1.390 . S
C1591 C1592 1.394 . S
C1591 C1597 1.465 . S
C1592 C1587 1.399 . S
C1592 C1591 1.394 . S
C1592 C1593 1.516 . S
C1593 C1592 1.516 . S
C1593 C1594 1.502 . S
C1593 C1595 1.561 . S
C1593 C1596 1.526 . S
C1594 H1578 0.959 . S
C1594 H1579 0.959 . S
C1594 H1580 0.961 . S
C1594 C1593 1.502 . S
C1595 H1581 0.960 . S
C1595 H1582 0.961 . S
C1595 H1583 0.959 . S
C1595 C1593 1.561 . S
C1596 C1593 1.526 . S
C1596 C1597 1.396 . S
C1596 C1601 1.390 . S
C1597 C1591 1.465 . S
C1597 C1596 1.396 . S
C1597 C1598 1.399 . S
C1598 H1584 0.929 . S
C1598 C1597 1.399 . S
C1598 C1599 1.385 . S
C1599 H1585 0.931 . S
C1599 C1598 1.385 . S
C1599 C1600 1.389 . S
C1600 C1599 1.389 . S
C1600 C1601 1.387 . S
C1601 H1586 0.930 . S
C1601 C1596 1.390 . S
C1601 C1600 1.387 . S
H1602 C1614 0.930 . S
H1603 C1616 0.930 . S
H1604 C1617 0.930 . S
H1605 C1621 0.959 . S
H1606 C1621 0.959 . S
H1607 C1621 0.961 . S
H1608 C1622 0.960 . S
H1609 C1622 0.961 . S
H1610 C1622 0.959 . S
H1611 C1625 0.929 . S
H1612 C1626 0.931 . S
H1613 C1628 0.930 . S
C1614 H1602 0.930 . S
C1614 C1615 1.399 . S
C1614 C1619 1.399 . S
C1615 C1614 1.399 . S
C1615 C1616 1.376 . S
C1616 H1603 0.930 . S
C1616 C1615 1.376 . S
C1616 C1617 1.388 . S
C1617 H1604 0.930 . S
C1617 C1616 1.388 . S
C1617 C1618 1.390 . S
C1618 C1617 1.390 . S
C1618 C1619 1.394 . S
C1618 C1624 1.465 . S
C1619 C1614 1.399 . S
C1619 C1618 1.394 . S
C1619 C1620 1.516 . S
C1620 C1619 1.516 . S
C1620 C1621 1.502 . S
C1620 C1622 1.561 . S
C1620 C1623 1.526 . S
C1621 H1605 0.959 . S
C1621 H1606 0.959 . S
C1621 H1607 0.961 . S
C1621 C1620 1.502 . S
C1622 H1608 0.960 . S
C1622 H1609 0.961 . S
C1622 H1610 0.959 . S
C1622 C1620 1.561 . S
C1623 C1620 1.526 . S
C1623 C1624 1.396 . S
C1623 C1628 1.390 . S
C1624 C1618 1.465 . S
C1624 C1623 1.396 . S
C1624 C1625 1.399 . S
C1625 H1611 0.929 . S
C1625 C1624 1.399 . S
C1625 C1626 1.385 . S
C1626 H1612 0.931 . S
C1626 C1625 1.385 . S
C1626 C1627 1.389 . S
C1627 C1626 1.389 . S
C1627 C1628 1.387 . S
C1628 H1613 0.930 . S
C1628 C1623 1.390 . S
C1628 C1627 1.387 . S
H1629 C1641 0.930 . S
H1630 C1643 0.930 . S
H1631 C1644 0.930 . S
H1632 C1648 0.959 . S
H1633 C1648 0.959 . S
H1634 C1648 0.961 . S
H1635 C1649 0.960 . S
H1636 C1649 0.961 . S
H1637 C1649 0.959 . S
H1638 C1652 0.929 . S
H1639 C1653 0.931 . S
H1640 C1655 0.930 . S
C1641 H1629 0.930 . S
C1641 C1642 1.399 . S
C1641 C1646 1.399 . S
C1642 C1641 1.399 . S
C1642 C1643 1.376 . S
C1643 H1630 0.930 . S
C1643 C1642 1.376 . S
C1643 C1644 1.388 . S
C1644 H1631 0.930 . S
C1644 C1643 1.388 . S
C1644 C1645 1.390 . S
C1645 C1644 1.390 . S
C1645 C1646 1.394 . S
C1645 C1651 1.465 . S
C1646 C1641 1.399 . S
C1646 C1645 1.394 . S
C1646 C1647 1.516 . S
C1647 C1646 1.516 . S
C1647 C1648 1.502 . S
C1647 C1649 1.561 . S
C1647 C1650 1.526 . S
C1648 H1632 0.959 . S
C1648 H1633 0.959 . S
C1648 H1634 0.961 . S
C1648 C1647 1.502 . S
C1649 H1635 0.960 . S
C1649 H1636 0.961 . S
C1649 H1637 0.959 . S
C1649 C1647 1.561 . S
C1650 C1647 1.526 . S
C1650 C1651 1.396 . S
C1650 C1655 1.390 . S
C1651 C1645 1.465 . S
C1651 C1650 1.396 . S
C1651 C1652 1.399 . S
C1652 H1638 0.929 . S
C1652 C1651 1.399 . S
C1652 C1653 1.385 . S
C1653 H1639 0.931 . S
C1653 C1652 1.385 . S
C1653 C1654 1.389 . S
C1654 C1653 1.389 . S
C1654 C1655 1.387 . S
C1655 H1640 0.930 . S
C1655 C1650 1.390 . S
C1655 C1654 1.387 . S
H1656 C1668 0.930 . S
H1657 C1670 0.930 . S
H1658 C1671 0.930 . S
H1659 C1675 0.959 . S
H1660 C1675 0.959 . S
H1661 C1675 0.961 . S
H1662 C1676 0.960 . S
H1663 C1676 0.961 . S
H1664 C1676 0.959 . S
H1665 C1679 0.929 . S
H1666 C1680 0.931 . S
H1667 C1682 0.930 . S
C1668 H1656 0.930 . S
C1668 C1669 1.399 . S
C1668 C1673 1.399 . S
C1669 C1668 1.399 . S
C1669 C1670 1.376 . S
C1670 H1657 0.930 . S
C1670 C1669 1.376 . S
C1670 C1671 1.388 . S
C1671 H1658 0.930 . S
C1671 C1670 1.388 . S
C1671 C1672 1.390 . S
C1672 C1671 1.390 . S
C1672 C1673 1.394 . S
C1672 C1678 1.465 . S
C1673 C1668 1.399 . S
C1673 C1672 1.394 . S
C1673 C1674 1.516 . S
C1674 C1673 1.516 . S
C1674 C1675 1.502 . S
C1674 C1676 1.561 . S
C1674 C1677 1.526 . S
C1675 H1659 0.959 . S
C1675 H1660 0.959 . S
C1675 H1661 0.961 . S
C1675 C1674 1.502 . S
C1676 H1662 0.960 . S
C1676 H1663 0.961 . S
C1676 H1664 0.959 . S
C1676 C1674 1.561 . S
C1677 C1674 1.526 . S
C1677 C1678 1.396 . S
C1677 C1682 1.390 . S
C1678 C1672 1.465 . S
C1678 C1677 1.396 . S
C1678 C1679 1.399 . S
C1679 H1665 0.929 . S
C1679 C1678 1.399 . S
C1679 C1680 1.385 . S
C1680 H1666 0.931 . S
C1680 C1679 1.385 . S
C1680 C1681 1.389 . S
C1681 C1680 1.389 . S
C1681 C1682 1.387 . S
C1682 H1667 0.930 . S
C1682 C1677 1.390 . S
C1682 C1681 1.387 . S
H1683 C1695 0.930 . S
H1684 C1697 0.930 . S
H1685 C1698 0.930 . S
H1686 C1702 0.959 . S
H1687 C1702 0.959 . S
H1688 C1702 0.961 . S
H1689 C1703 0.960 . S
H1690 C1703 0.961 . S
H1691 C1703 0.959 . S
H1692 C1706 0.929 . S
H1693 C1707 0.931 . S
H1694 C1709 0.930 . S
C1695 H1683 0.930 . S
C1695 C1696 1.399 . S
C1695 C1700 1.399 . S
C1696 C1695 1.399 . S
C1696 C1697 1.376 . S
C1697 H1684 0.930 . S
C1697 C1696 1.376 . S
C1697 C1698 1.388 . S
C1698 H1685 0.930 . S
C1698 C1697 1.388 . S
C1698 C1699 1.390 . S
C1699 C1698 1.390 . S
C1699 C1700 1.394 . S
C1699 C1705 1.465 . S
C1700 C1695 1.399 . S
C1700 C1699 1.394 . S
C1700 C1701 1.516 . S
C1701 C1700 1.516 . S
C1701 C1702 1.502 . S
C1701 C1703 1.561 . S
C1701 C1704 1.526 . S
C1702 H1686 0.959 . S
C1702 H1687 0.959 . S
C1702 H1688 0.961 . S
C1702 C1701 1.502 . S
C1703 H1689 0.960 . S
C1703 H1690 0.961 . S
C1703 H1691 0.959 . S
C1703 C1701 1.561 . S
C1704 C1701 1.526 . S
C1704 C1705 1.396 . S
C1704 C1709 1.390 . S
C1705 C1699 1.465 . S
C1705 C1704 1.396 . S
C1705 C1706 1.399 . S
C1706 H1692 0.929 . S
C1706 C1705 1.399 . S
C1706 C1707 1.385 . S
C1707 H1693 0.931 . S
C1707 C1706 1.385 . S
C1707 C1708 1.389 . S
C1708 C1707 1.389 . S
C1708 C1709 1.387 . S
C1709 H1694 0.930 . S
C1709 C1704 1.390 . S
C1709 C1708 1.387 . S
H1710 C1722 0.930 . S
H1711 C1724 0.930 . S
H1712 C1725 0.930 . S
H1713 C1729 0.959 . S
H1714 C1729 0.959 . S
H1715 C1729 0.961 . S
H1716 C1730 0.960 . S
H1717 C1730 0.961 . S
H1718 C1730 0.959 . S
H1719 C1733 0.929 . S
H1720 C1734 0.931 . S
H1721 C1736 0.930 . S
C1722 H1710 0.930 . S
C1722 C1723 1.399 . S
C1722 C1727 1.399 . S
C1723 C1722 1.399 . S
C1723 C1724 1.376 1_545 S
C1724 H1711 0.930 . S
C1724 C1723 1.376 1_565 S
C1724 C1725 1.388 . S
C1725 H1712 0.930 . S
C1725 C1724 1.388 . S
C1725 C1726 1.390 1_565 S
C1726 C1725 1.390 1_545 S
C1726 C1727 1.394 . S
C1726 C1732 1.465 . S
C1727 C1722 1.399 . S
C1727 C1726 1.394 . S
C1727 C1728 1.516 . S
C1728 C1727 1.516 . S
C1728 C1729 1.502 . S
C1728 C1730 1.561 . S
C1728 C1731 1.526 . S
C1729 H1713 0.959 . S
C1729 H1714 0.959 . S
C1729 H1715 0.961 . S
C1729 C1728 1.502 . S
C1730 H1716 0.960 . S
C1730 H1717 0.961 . S
C1730 H1718 0.959 . S
C1730 C1728 1.561 . S
C1731 C1728 1.526 . S
C1731 C1732 1.396 . S
C1731 C1736 1.390 . S
C1732 C1726 1.465 . S
C1732 C1731 1.396 . S
C1732 C1733 1.399 1_545 S
C1733 H1719 0.929 . S
C1733 C1732 1.399 1_565 S
C1733 C1734 1.385 . S
C1734 H1720 0.931 . S
C1734 C1733 1.385 . S
C1734 C1735 1.389 1_565 S
C1735 C1734 1.389 1_545 S
C1735 C1736 1.387 . S
C1736 H1721 0.930 . S
C1736 C1731 1.390 . S
C1736 C1735 1.387 . S
H1737 C1749 0.930 . S
H1738 C1751 0.930 . S
H1739 C1752 0.930 . S
H1740 C1756 0.959 . S
H1741 C1756 0.959 . S
H1742 C1756 0.961 . S
H1743 C1757 0.960 . S
H1744 C1757 0.961 . S
H1745 C1757 0.959 . S
H1746 C1760 0.929 . S
H1747 C1761 0.931 . S
H1748 C1763 0.930 . S
C1749 H1737 0.930 . S
C1749 C1750 1.399 . S
C1749 C1754 1.399 . S
C1750 C1749 1.399 . S
C1750 C1751 1.376 . S
C1751 H1738 0.930 . S
C1751 C1750 1.376 . S
C1751 C1752 1.388 . S
C1752 H1739 0.930 . S
C1752 C1751 1.388 . S
C1752 C1753 1.390 . S
C1753 C1752 1.390 . S
C1753 C1754 1.394 . S
C1753 C1759 1.465 . S
C1754 C1749 1.399 . S
C1754 C1753 1.394 . S
C1754 C1755 1.516 . S
C1755 C1754 1.516 . S
C1755 C1756 1.502 . S
C1755 C1757 1.561 . S
C1755 C1758 1.526 . S
C1756 H1740 0.959 . S
C1756 H1741 0.959 . S
C1756 H1742 0.961 . S
C1756 C1755 1.502 . S
C1757 H1743 0.960 . S
C1757 H1744 0.961 . S
C1757 H1745 0.959 . S
C1757 C1755 1.561 . S
C1758 C1755 1.526 . S
C1758 C1759 1.396 . S
C1758 C1763 1.390 . S
C1759 C1753 1.465 . S
C1759 C1758 1.396 . S
C1759 C1760 1.399 . S
C1760 H1746 0.929 . S
C1760 C1759 1.399 . S
C1760 C1761 1.385 . S
C1761 H1747 0.931 . S
C1761 C1760 1.385 . S
C1761 C1762 1.389 . S
C1762 C1761 1.389 . S
C1762 C1763 1.387 . S
C1763 H1748 0.930 . S
C1763 C1758 1.390 . S
C1763 C1762 1.387 . S
H1764 C1776 0.930 . S
H1765 C1778 0.930 . S
H1766 C1779 0.930 . S
H1767 C1783 0.959 1_545 S
H1768 C1783 0.959 . S
H1769 C1783 0.961 . S
H1770 C1784 0.960 . S
H1771 C1784 0.961 . S
H1772 C1784 0.959 1_545 S
H1773 C1787 0.929 . S
H1774 C1788 0.931 . S
H1775 C1790 0.930 1_565 S
C1776 H1764 0.930 . S
C1776 C1777 1.399 . S
C1776 C1781 1.399 . S
C1777 C1776 1.399 . S
C1777 C1778 1.376 . S
C1778 H1765 0.930 . S
C1778 C1777 1.376 . S
C1778 C1779 1.388 . S
C1779 H1766 0.930 . S
C1779 C1778 1.388 . S
C1779 C1780 1.390 . S
C1780 C1779 1.390 . S
C1780 C1781 1.394 . S
C1780 C1786 1.465 . S
C1781 C1776 1.399 . S
C1781 C1780 1.394 . S
C1781 C1782 1.516 . S
C1782 C1781 1.516 . S
C1782 C1783 1.502 1_545 S
C1782 C1784 1.561 1_545 S
C1782 C1785 1.526 . S
C1783 H1767 0.959 1_565 S
C1783 H1768 0.959 . S
C1783 H1769 0.961 . S
C1783 C1782 1.502 1_565 S
C1784 H1770 0.960 . S
C1784 H1771 0.961 . S
C1784 H1772 0.959 1_565 S
C1784 C1782 1.561 1_565 S
C1785 C1782 1.526 . S
C1785 C1786 1.396 . S
C1785 C1790 1.390 . S
C1786 C1780 1.465 . S
C1786 C1785 1.396 . S
C1786 C1787 1.399 . S
C1787 H1773 0.929 . S
C1787 C1786 1.399 . S
C1787 C1788 1.385 . S
C1788 H1774 0.931 . S
C1788 C1787 1.385 . S
C1788 C1789 1.389 . S
C1789 C1788 1.389 . S
C1789 C1790 1.387 . S
C1790 H1775 0.930 1_545 S
C1790 C1785 1.390 . S
C1790 C1789 1.387 . S
H1791 C1803 0.930 . S
H1792 C1805 0.930 . S
H1793 C1806 0.930 . S
H1794 C1810 0.959 . S
H1795 C1810 0.959 . S
H1796 C1810 0.961 . S
H1797 C1811 0.960 . S
H1798 C1811 0.961 . S
H1799 C1811 0.959 . S
H1800 C1814 0.929 . S
H1801 C1815 0.931 . S
H1802 C1817 0.930 . S
C1803 H1791 0.930 . S
C1803 C1804 1.399 . S
C1803 C1808 1.399 . S
C1804 C1803 1.399 . S
C1804 C1805 1.376 . S
C1805 H1792 0.930 . S
C1805 C1804 1.376 . S
C1805 C1806 1.388 . S
C1806 H1793 0.930 . S
C1806 C1805 1.388 . S
C1806 C1807 1.390 . S
C1807 C1806 1.390 . S
C1807 C1808 1.394 . S
C1807 C1813 1.465 . S
C1808 C1803 1.399 . S
C1808 C1807 1.394 . S
C1808 C1809 1.516 . S
C1809 C1808 1.516 . S
C1809 C1810 1.502 . S
C1809 C1811 1.561 . S
C1809 C1812 1.526 . S
C1810 H1794 0.959 . S
C1810 H1795 0.959 . S
C1810 H1796 0.961 . S
C1810 C1809 1.502 . S
C1811 H1797 0.960 . S
C1811 H1798 0.961 . S
C1811 H1799 0.959 . S
C1811 C1809 1.561 . S
C1812 C1809 1.526 . S
C1812 C1813 1.396 . S
C1812 C1817 1.390 . S
C1813 C1807 1.465 . S
C1813 C1812 1.396 . S
C1813 C1814 1.399 . S
C1814 H1800 0.929 . S
C1814 C1813 1.399 . S
C1814 C1815 1.385 . S
C1815 H1801 0.931 . S
C1815 C1814 1.385 . S
C1815 C1816 1.389 . S
C1816 C1815 1.389 . S
C1816 C1817 1.387 . S
C1817 H1802 0.930 . S
C1817 C1812 1.390 . S
C1817 C1816 1.387 . S
H1818 C1830 0.930 . S
H1819 C1832 0.930 . S
H1820 C1833 0.930 . S
H1821 C1837 0.959 . S
H1822 C1837 0.959 . S
H1823 C1837 0.961 . S
H1824 C1838 0.960 . S
H1825 C1838 0.961 . S
H1826 C1838 0.959 . S
H1827 C1841 0.929 . S
H1828 C1842 0.929 1_565 S
H1829 C1844 0.930 . S
C1830 H1818 0.930 . S
C1830 C1831 1.400 . S
C1830 C1835 1.399 . S
C1831 C1830 1.400 . S
C1831 C1832 1.375 1_545 S
C1832 H1819 0.930 . S
C1832 C1831 1.375 1_565 S
C1832 C1833 1.388 . S
C1833 H1820 0.930 . S
C1833 C1832 1.388 . S
C1833 C1834 1.390 1_565 S
C1834 C1833 1.390 1_545 S
C1834 C1835 1.394 . S
C1834 C1840 1.465 . S
C1835 C1830 1.399 . S
C1835 C1834 1.394 . S
C1835 C1836 1.516 . S
C1836 C1835 1.516 . S
C1836 C1837 1.502 . S
C1836 C1838 1.561 . S
C1836 C1839 1.526 . S
C1837 H1821 0.959 . S
C1837 H1822 0.959 . S
C1837 H1823 0.961 . S
C1837 C1836 1.502 . S
C1838 H1824 0.960 . S
C1838 H1825 0.961 . S
C1838 H1826 0.959 . S
C1838 C1836 1.561 . S
C1839 C1836 1.526 . S
C1839 C1840 1.396 . S
C1839 C1844 1.390 . S
C1840 C1834 1.465 . S
C1840 C1839 1.396 . S
C1840 C1841 1.399 1_545 S
C1841 H1827 0.929 . S
C1841 C1840 1.399 1_565 S
C1841 C1842 1.385 1_565 S
C1842 H1828 0.929 1_545 S
C1842 C1841 1.385 1_545 S
C1842 C1843 1.389 . S
C1843 C1842 1.389 . S
C1843 C1844 1.387 . S
C1844 H1829 0.930 . S
C1844 C1839 1.390 . S
C1844 C1843 1.387 . S
H1845 C1857 0.930 . S
H1846 C1859 0.930 . S
H1847 C1860 0.930 . S
H1848 C1864 0.959 . S
H1849 C1864 0.959 . S
H1850 C1864 0.961 . S
H1851 C1865 0.960 . S
H1852 C1865 0.961 . S
H1853 C1865 0.959 . S
H1854 C1868 0.929 . S
H1855 C1869 0.931 . S
H1856 C1871 0.930 . S
C1857 H1845 0.930 . S
C1857 C1858 1.399 . S
C1857 C1862 1.399 . S
C1858 C1857 1.399 . S
C1858 C1859 1.376 . S
C1859 H1846 0.930 . S
C1859 C1858 1.376 . S
C1859 C1860 1.388 . S
C1860 H1847 0.930 . S
C1860 C1859 1.388 . S
C1860 C1861 1.390 . S
C1861 C1860 1.390 . S
C1861 C1862 1.394 . S
C1861 C1867 1.465 . S
C1862 C1857 1.399 . S
C1862 C1861 1.394 . S
C1862 C1863 1.516 . S
C1863 C1862 1.516 . S
C1863 C1864 1.502 . S
C1863 C1865 1.561 . S
C1863 C1866 1.526 . S
C1864 H1848 0.959 . S
C1864 H1849 0.959 . S
C1864 H1850 0.961 . S
C1864 C1863 1.502 . S
C1865 H1851 0.960 . S
C1865 H1852 0.961 . S
C1865 H1853 0.959 . S
C1865 C1863 1.561 . S
C1866 C1863 1.526 . S
C1866 C1867 1.396 . S
C1866 C1871 1.390 . S
C1867 C1861 1.465 . S
C1867 C1866 1.396 . S
C1867 C1868 1.399 . S
C1868 H1854 0.929 . S
C1868 C1867 1.399 . S
C1868 C1869 1.385 . S
C1869 H1855 0.931 . S
C1869 C1868 1.385 . S
C1869 C1870 1.389 . S
C1870 C1869 1.389 . S
C1870 C1871 1.387 . S
C1871 H1856 0.930 . S
C1871 C1866 1.390 . S
C1871 C1870 1.387 . S
H1872 C1884 0.930 . S
H1873 C1886 0.930 . S
H1874 C1887 0.930 . S
H1875 C1891 0.959 1_545 S
H1876 C1891 0.959 . S
H1877 C1891 0.961 . S
H1878 C1892 0.960 . S
H1879 C1892 0.961 . S
H1880 C1892 0.959 . S
H1881 C1895 0.929 . S
H1882 C1896 0.931 1_556 S
H1883 C1898 0.930 . S
C1884 H1872 0.930 . S
C1884 C1885 1.399 . S
C1884 C1889 1.399 . S
C1885 C1884 1.399 . S
C1885 C1886 1.376 1_554 S
C1886 H1873 0.930 . S
C1886 C1885 1.376 1_556 S
C1886 C1887 1.388 . S
C1887 H1874 0.930 . S
C1887 C1886 1.388 . S
C1887 C1888 1.390 1_556 S
C1888 C1887 1.390 1_554 S
C1888 C1889 1.394 . S
C1888 C1894 1.465 . S
C1889 C1884 1.399 . S
C1889 C1888 1.394 . S
C1889 C1890 1.516 . S
C1890 C1889 1.516 . S
C1890 C1891 1.502 . S
C1890 C1892 1.561 . S
C1890 C1893 1.526 . S
C1891 H1875 0.959 1_565 S
C1891 H1876 0.959 . S
C1891 H1877 0.961 . S
C1891 C1890 1.502 . S
C1892 H1878 0.960 . S
C1892 H1879 0.961 . S
C1892 H1880 0.959 . S
C1892 C1890 1.561 . S
C1893 C1890 1.526 . S
C1893 C1894 1.396 . S
C1893 C1898 1.390 . S
C1894 C1888 1.465 . S
C1894 C1893 1.396 . S
C1894 C1895 1.399 1_554 S
C1895 H1881 0.929 . S
C1895 C1894 1.399 1_556 S
C1895 C1896 1.385 1_556 S
C1896 H1882 0.931 1_554 S
C1896 C1895 1.385 1_554 S
C1896 C1897 1.389 . S
C1897 C1896 1.389 . S
C1897 C1898 1.387 . S
C1898 H1883 0.930 . S
C1898 C1893 1.390 . S
C1898 C1897 1.387 . S
H1899 C1911 0.930 . S
H1900 C1913 0.930 . S
H1901 C1914 0.930 . S
H1902 C1918 0.959 . S
H1903 C1918 0.959 . S
H1904 C1918 0.961 . S
H1905 C1919 0.960 . S
H1906 C1919 0.961 . S
H1907 C1919 0.959 . S
H1908 C1922 0.929 . S
H1909 C1923 0.931 . S
H1910 C1925 0.930 . S
C1911 H1899 0.930 . S
C1911 C1912 1.399 1_556 S
C1911 C1916 1.399 . S
C1912 C1911 1.399 1_554 S
C1912 C1913 1.376 . S
C1913 H1900 0.930 . S
C1913 C1912 1.376 . S
C1913 C1914 1.388 . S
C1914 H1901 0.930 . S
C1914 C1913 1.388 . S
C1914 C1915 1.390 . S
C1915 C1914 1.390 . S
C1915 C1916 1.394 1_554 S
C1915 C1921 1.465 . S
C1916 C1911 1.399 . S
C1916 C1915 1.394 1_556 S
C1916 C1917 1.516 . S
C1917 C1916 1.516 . S
C1917 C1918 1.502 . S
C1917 C1919 1.561 . S
C1917 C1920 1.556 . S
C1918 H1902 0.959 . S
C1918 H1903 0.959 . S
C1918 H1904 0.961 . S
C1918 C1917 1.502 . S
C1919 H1905 0.960 . S
C1919 H1906 0.961 . S
C1919 H1907 0.959 . S
C1919 C1917 1.561 . S
C1920 C1917 1.556 . S
C1920 C1921 1.359 1_556 S
C1920 C1925 1.394 . S
C1921 C1915 1.465 . S
C1921 C1920 1.359 1_554 S
C1921 C1922 1.399 . S
C1922 H1908 0.929 . S
C1922 C1921 1.399 . S
C1922 C1923 1.385 . S
C1923 H1909 0.931 . S
C1923 C1922 1.385 . S
C1923 C1924 1.389 . S
C1924 C1923 1.389 . S
C1924 C1925 1.387 1_554 S
C1925 H1910 0.930 . S
C1925 C1920 1.394 . S
C1925 C1924 1.387 1_556 S
H1926 C1938 0.930 . S
H1927 C1940 0.930 . S
H1928 C1941 0.930 . S
H1929 C1945 0.959 . S
H1930 C1945 0.959 . S
H1931 C1945 0.961 . S
H1932 C1946 0.960 . S
H1933 C1946 0.961 . S
H1934 C1946 0.959 . S
H1935 C1949 0.929 . S
H1936 C1950 0.931 . S
H1937 C1952 0.930 . S
C1938 H1926 0.930 . S
C1938 C1939 1.399 . S
C1938 C1943 1.399 . S
C1939 C1938 1.399 . S
C1939 C1940 1.376 . S
C1940 H1927 0.930 . S
C1940 C1939 1.376 . S
C1940 C1941 1.388 . S
C1941 H1928 0.930 . S
C1941 C1940 1.388 . S
C1941 C1942 1.390 . S
C1942 C1941 1.390 . S
C1942 C1943 1.394 . S
C1942 C1948 1.465 . S
C1943 C1938 1.399 . S
C1943 C1942 1.394 . S
C1943 C1944 1.516 . S
C1944 C1943 1.516 . S
C1944 C1945 1.502 . S
C1944 C1946 1.561 . S
C1944 C1947 1.526 . S
C1945 H1929 0.959 . S
C1945 H1930 0.959 . S
C1945 H1931 0.961 . S
C1945 C1944 1.502 . S
C1946 H1932 0.960 . S
C1946 H1933 0.961 . S
C1946 H1934 0.959 . S
C1946 C1944 1.561 . S
C1947 C1944 1.526 . S
C1947 C1948 1.396 . S
C1947 C1952 1.390 . S
C1948 C1942 1.465 . S
C1948 C1947 1.396 . S
C1948 C1949 1.399 . S
C1949 H1935 0.929 . S
C1949 C1948 1.399 . S
C1949 C1950 1.385 . S
C1950 H1936 0.931 . S
C1950 C1949 1.385 . S
C1950 C1951 1.389 . S
C1951 C1950 1.389 . S
C1951 C1952 1.387 . S
C1952 H1937 0.930 . S
C1952 C1947 1.390 . S
C1952 C1951 1.387 . S
H1953 C1965 0.930 . S
H1954 C1967 0.930 . S
H1955 C1968 0.930 . S
H1956 C1972 0.959 . S
H1957 C1972 0.959 . S
H1958 C1972 0.961 . S
H1959 C1973 0.960 . S
H1960 C1973 0.961 . S
H1961 C1973 0.959 . S
H1962 C1976 0.929 . S
H1963 C1977 0.931 . S
H1964 C1979 0.930 . S
C1965 H1953 0.930 . S
C1965 C1966 1.399 . S
C1965 C1970 1.399 . S
C1966 C1965 1.399 . S
C1966 C1967 1.376 . S
C1967 H1954 0.930 . S
C1967 C1966 1.376 . S
C1967 C1968 1.388 . S
C1968 H1955 0.930 . S
C1968 C1967 1.388 . S
C1968 C1969 1.390 . S
C1969 C1968 1.390 . S
C1969 C1970 1.394 . S
C1969 C1975 1.465 . S
C1970 C1965 1.399 . S
C1970 C1969 1.394 . S
C1970 C1971 1.516 . S
C1971 C1970 1.516 . S
C1971 C1972 1.502 . S
C1971 C1973 1.561 . S
C1971 C1974 1.526 . S
C1972 H1956 0.959 . S
C1972 H1957 0.959 . S
C1972 H1958 0.961 . S
C1972 C1971 1.502 . S
C1973 H1959 0.960 . S
C1973 H1960 0.961 . S
C1973 H1961 0.959 . S
C1973 C1971 1.561 . S
C1974 C1971 1.526 . S
C1974 C1975 1.396 . S
C1974 C1979 1.390 . S
C1975 C1969 1.465 . S
C1975 C1974 1.396 . S
C1975 C1976 1.399 . S
C1976 H1962 0.929 . S
C1976 C1975 1.399 . S
C1976 C1977 1.385 . S
C1977 H1963 0.931 . S
C1977 C1976 1.385 . S
C1977 C1978 1.389 . S
C1978 C1977 1.389 . S
C1978 C1979 1.387 . S
C1979 H1964 0.930 . S
C1979 C1974 1.390 . S
C1979 C1978 1.387 . S
H1980 C1992 0.930 . S
H1981 C1994 0.930 . S
H1982 C1995 0.930 . S
H1983 C1999 0.959 . S
H1984 C1999 0.959 . S
H1985 C1999 0.961 . S
H1986 C2000 0.960 . S
H1987 C2000 0.961 . S
H1988 C2000 0.959 . S
H1989 C2003 0.929 . S
H1990 C2004 0.931 . S
H1991 C2006 0.930 . S
C1992 H1980 0.930 . S
C1992 C1993 1.399 . S
C1992 C1997 1.399 . S
C1993 C1992 1.399 . S
C1993 C1994 1.376 . S
C1994 H1981 0.930 . S
C1994 C1993 1.376 . S
C1994 C1995 1.388 . S
C1995 H1982 0.930 . S
C1995 C1994 1.388 . S
C1995 C1996 1.390 . S
C1996 C1995 1.390 . S
C1996 C1997 1.394 . S
C1996 C2002 1.465 . S
C1997 C1992 1.399 . S
C1997 C1996 1.394 . S
C1997 C1998 1.516 . S
C1998 C1997 1.516 . S
C1998 C1999 1.502 . S
C1998 C2000 1.561 . S
C1998 C2001 1.526 . S
C1999 H1983 0.959 . S
C1999 H1984 0.959 . S
C1999 H1985 0.961 . S
C1999 C1998 1.502 . S
C2000 H1986 0.960 . S
C2000 H1987 0.961 . S
C2000 H1988 0.959 . S
C2000 C1998 1.561 . S
C2001 C1998 1.526 . S
C2001 C2002 1.396 . S
C2001 C2006 1.390 . S
C2002 C1996 1.465 . S
C2002 C2001 1.396 . S
C2002 C2003 1.399 . S
C2003 H1989 0.929 . S
C2003 C2002 1.399 . S
C2003 C2004 1.385 . S
C2004 H1990 0.931 . S
C2004 C2003 1.385 . S
C2004 C2005 1.389 . S
C2005 C2004 1.389 . S
C2005 C2006 1.387 . S
C2006 H1991 0.930 . S
C2006 C2001 1.390 . S
C2006 C2005 1.387 . S
H2007 C2019 0.930 . S
H2008 C2021 0.930 . S
H2009 C2022 0.930 . S
H2010 C2026 0.959 . S
H2011 C2026 0.959 . S
H2012 C2026 0.961 . S
H2013 C2027 0.960 . S
H2014 C2027 0.961 . S
H2015 C2027 0.959 . S
H2016 C2030 0.929 . S
H2017 C2031 0.931 . S
H2018 C2033 0.930 . S
C2019 H2007 0.930 . S
C2019 C2020 1.399 . S
C2019 C2024 1.399 . S
C2020 C2019 1.399 . S
C2020 C2021 1.376 . S
C2021 H2008 0.930 . S
C2021 C2020 1.376 . S
C2021 C2022 1.388 . S
C2022 H2009 0.930 . S
C2022 C2021 1.388 . S
C2022 C2023 1.390 . S
C2023 C2022 1.390 . S
C2023 C2024 1.394 . S
C2023 C2029 1.465 . S
C2024 C2019 1.399 . S
C2024 C2023 1.394 . S
C2024 C2025 1.516 . S
C2025 C2024 1.516 . S
C2025 C2026 1.502 . S
C2025 C2027 1.561 . S
C2025 C2028 1.526 . S
C2026 H2010 0.959 . S
C2026 H2011 0.959 . S
C2026 H2012 0.961 . S
C2026 C2025 1.502 . S
C2027 H2013 0.960 . S
C2027 H2014 0.961 . S
C2027 H2015 0.959 . S
C2027 C2025 1.561 . S
C2028 C2025 1.526 . S
C2028 C2029 1.396 . S
C2028 C2033 1.390 . S
C2029 C2023 1.465 . S
C2029 C2028 1.396 . S
C2029 C2030 1.399 . S
C2030 H2016 0.929 . S
C2030 C2029 1.399 . S
C2030 C2031 1.385 . S
C2031 H2017 0.931 . S
C2031 C2030 1.385 . S
C2031 C2032 1.389 . S
C2032 C2031 1.389 . S
C2032 C2033 1.387 . S
C2033 H2018 0.930 . S
C2033 C2028 1.390 . S
C2033 C2032 1.387 . S
H2034 C2046 0.930 . S
H2035 C2048 0.930 . S
H2036 C2049 0.930 . S
H2037 C2053 0.959 . S
H2038 C2053 0.959 . S
H2039 C2053 0.961 . S
H2040 C2054 0.960 . S
H2041 C2054 0.961 . S
H2042 C2054 0.959 . S
H2043 C2057 0.929 . S
H2044 C2058 0.931 . S
H2045 C2060 0.930 . S
C2046 H2034 0.930 . S
C2046 C2047 1.399 . S
C2046 C2051 1.399 . S
C2047 C2046 1.399 . S
C2047 C2048 1.376 . S
C2048 H2035 0.930 . S
C2048 C2047 1.376 . S
C2048 C2049 1.388 . S
C2049 H2036 0.930 . S
C2049 C2048 1.388 . S
C2049 C2050 1.390 . S
C2050 C2049 1.390 . S
C2050 C2051 1.394 . S
C2050 C2056 1.465 . S
C2051 C2046 1.399 . S
C2051 C2050 1.394 . S
C2051 C2052 1.516 . S
C2052 C2051 1.516 . S
C2052 C2053 1.502 . S
C2052 C2054 1.561 . S
C2052 C2055 1.526 . S
C2053 H2037 0.959 . S
C2053 H2038 0.959 . S
C2053 H2039 0.961 . S
C2053 C2052 1.502 . S
C2054 H2040 0.960 . S
C2054 H2041 0.961 . S
C2054 H2042 0.959 . S
C2054 C2052 1.561 . S
C2055 C2052 1.526 . S
C2055 C2056 1.396 . S
C2055 C2060 1.390 . S
C2056 C2050 1.465 . S
C2056 C2055 1.396 . S
C2056 C2057 1.399 . S
C2057 H2043 0.929 . S
C2057 C2056 1.399 . S
C2057 C2058 1.385 . S
C2058 H2044 0.931 . S
C2058 C2057 1.385 . S
C2058 C2059 1.389 . S
C2059 C2058 1.389 . S
C2059 C2060 1.387 . S
C2060 H2045 0.930 . S
C2060 C2055 1.390 . S
C2060 C2059 1.387 . S
H2061 C2073 0.930 . S
H2062 C2075 0.930 . S
H2063 C2076 0.930 . S
H2064 C2080 0.959 . S
H2065 C2080 0.959 . S
H2066 C2080 0.961 . S
H2067 C2081 0.960 . S
H2068 C2081 0.961 . S
H2069 C2081 0.959 . S
H2070 C2084 0.929 . S
H2071 C2085 0.931 . S
H2072 C2087 0.930 . S
C2073 H2061 0.930 . S
C2073 C2074 1.399 . S
C2073 C2078 1.399 . S
C2074 C2073 1.399 . S
C2074 C2075 1.376 . S
C2075 H2062 0.930 . S
C2075 C2074 1.376 . S
C2075 C2076 1.388 . S
C2076 H2063 0.930 . S
C2076 C2075 1.388 . S
C2076 C2077 1.390 . S
C2077 C2076 1.390 . S
C2077 C2078 1.394 . S
C2077 C2083 1.465 . S
C2078 C2073 1.399 . S
C2078 C2077 1.394 . S
C2078 C2079 1.516 . S
C2079 C2078 1.516 . S
C2079 C2080 1.502 . S
C2079 C2081 1.561 . S
C2079 C2082 1.526 . S
C2080 H2064 0.959 . S
C2080 H2065 0.959 . S
C2080 H2066 0.961 . S
C2080 C2079 1.502 . S
C2081 H2067 0.960 . S
C2081 H2068 0.961 . S
C2081 H2069 0.959 . S
C2081 C2079 1.561 . S
C2082 C2079 1.526 . S
C2082 C2083 1.396 . S
C2082 C2087 1.390 . S
C2083 C2077 1.465 . S
C2083 C2082 1.396 . S
C2083 C2084 1.399 . S
C2084 H2070 0.929 . S
C2084 C2083 1.399 . S
C2084 C2085 1.385 . S
C2085 H2071 0.931 . S
C2085 C2084 1.385 . S
C2085 C2086 1.389 . S
C2086 C2085 1.389 . S
C2086 C2087 1.387 . S
C2087 H2072 0.930 . S
C2087 C2082 1.390 . S
C2087 C2086 1.387 . S
H2088 C2100 0.930 . S
H2089 C2102 0.930 . S
H2090 C2103 0.930 . S
H2091 C2107 0.959 . S
H2092 C2107 0.959 . S
H2093 C2107 0.961 . S
H2094 C2108 0.960 . S
H2095 C2108 0.961 . S
H2096 C2108 0.959 . S
H2097 C2111 0.929 . S
H2098 C2112 0.931 . S
H2099 C2114 0.930 . S
C2100 H2088 0.930 . S
C2100 C2101 1.399 . S
C2100 C2105 1.399 . S
C2101 C2100 1.399 . S
C2101 C2102 1.376 . S
C2102 H2089 0.930 . S
C2102 C2101 1.376 . S
C2102 C2103 1.388 . S
C2103 H2090 0.930 . S
C2103 C2102 1.388 . S
C2103 C2104 1.390 . S
C2104 C2103 1.390 . S
C2104 C2105 1.394 . S
C2104 C2110 1.465 . S
C2105 C2100 1.399 . S
C2105 C2104 1.394 . S
C2105 C2106 1.516 . S
C2106 C2105 1.516 . S
C2106 C2107 1.502 . S
C2106 C2108 1.561 . S
C2106 C2109 1.526 . S
C2107 H2091 0.959 . S
C2107 H2092 0.959 . S
C2107 H2093 0.961 . S
C2107 C2106 1.502 . S
C2108 H2094 0.960 . S
C2108 H2095 0.961 . S
C2108 H2096 0.959 . S
C2108 C2106 1.561 . S
C2109 C2106 1.526 . S
C2109 C2110 1.396 . S
C2109 C2114 1.390 . S
C2110 C2104 1.465 . S
C2110 C2109 1.396 . S
C2110 C2111 1.399 . S
C2111 H2097 0.929 . S
C2111 C2110 1.399 . S
C2111 C2112 1.385 . S
C2112 H2098 0.931 . S
C2112 C2111 1.385 . S
C2112 C2113 1.389 . S
C2113 C2112 1.389 . S
C2113 C2114 1.387 . S
C2114 H2099 0.930 . S
C2114 C2109 1.390 . S
C2114 C2113 1.387 . S
H2115 C2127 0.930 . S
H2116 C2129 0.930 . S
H2117 C2130 0.930 . S
H2118 C2134 0.959 . S
H2119 C2134 0.959 . S
H2120 C2134 0.961 . S
H2121 C2135 0.960 . S
H2122 C2135 0.961 . S
H2123 C2135 0.959 . S
H2124 C2138 0.929 . S
H2125 C2139 0.931 . S
H2126 C2141 0.930 . S
C2127 H2115 0.930 . S
C2127 C2128 1.399 . S
C2127 C2132 1.399 . S
C2128 C2127 1.399 . S
C2128 C2129 1.376 . S
C2129 H2116 0.930 . S
C2129 C2128 1.376 . S
C2129 C2130 1.388 . S
C2130 H2117 0.930 . S
C2130 C2129 1.388 . S
C2130 C2131 1.390 . S
C2131 C2130 1.390 . S
C2131 C2132 1.394 . S
C2131 C2137 1.465 . S
C2132 C2127 1.399 . S
C2132 C2131 1.394 . S
C2132 C2133 1.516 . S
C2133 C2132 1.516 . S
C2133 C2134 1.502 . S
C2133 C2135 1.561 . S
C2133 C2136 1.526 . S
C2134 H2118 0.959 . S
C2134 H2119 0.959 . S
C2134 H2120 0.961 . S
C2134 C2133 1.502 . S
C2135 H2121 0.960 . S
C2135 H2122 0.961 . S
C2135 H2123 0.959 . S
C2135 C2133 1.561 . S
C2136 C2133 1.526 . S
C2136 C2137 1.396 . S
C2136 C2141 1.390 . S
C2137 C2131 1.465 . S
C2137 C2136 1.396 . S
C2137 C2138 1.399 . S
C2138 H2124 0.929 . S
C2138 C2137 1.399 . S
C2138 C2139 1.385 . S
C2139 H2125 0.931 . S
C2139 C2138 1.385 . S
C2139 C2140 1.389 . S
C2140 C2139 1.389 . S
C2140 C2141 1.387 . S
C2141 H2126 0.930 . S
C2141 C2136 1.390 . S
C2141 C2140 1.387 . S
H2142 C2154 0.930 . S
H2143 C2156 0.941 . S
H2144 C2157 0.930 1_655 S
H2145 C2161 0.959 . S
H2146 C2161 0.959 . S
H2147 C2161 0.961 . S
H2148 C2162 0.960 . S
H2149 C2162 0.961 . S
H2150 C2162 0.959 . S
H2151 C2165 0.929 1_655 S
H2152 C2166 0.931 . S
H2153 C2168 0.930 . S
C2154 H2142 0.930 . S
C2154 C2155 1.399 . S
C2154 C2159 1.399 . S
C2155 C2154 1.399 . S
C2155 C2156 1.376 . S
C2156 H2143 0.941 . S
C2156 C2155 1.376 . S
C2156 C2157 1.388 . S
C2157 H2144 0.930 1_455 S
C2157 C2156 1.388 . S
C2157 C2158 1.390 . S
C2158 C2157 1.390 . S
C2158 C2159 1.394 . S
C2158 C2164 1.465 . S
C2159 C2154 1.399 . S
C2159 C2158 1.394 . S
C2159 C2160 1.516 . S
C2160 C2159 1.516 . S
C2160 C2161 1.502 . S
C2160 C2162 1.561 . S
C2160 C2163 1.526 . S
C2161 H2145 0.959 . S
C2161 H2146 0.959 . S
C2161 H2147 0.961 . S
C2161 C2160 1.502 . S
C2162 H2148 0.960 . S
C2162 H2149 0.961 . S
C2162 H2150 0.959 . S
C2162 C2160 1.561 . S
C2163 C2160 1.526 . S
C2163 C2164 1.396 . S
C2163 C2168 1.390 . S
C2164 C2158 1.465 . S
C2164 C2163 1.396 . S
C2164 C2165 1.399 . S
C2165 H2151 0.929 1_455 S
C2165 C2164 1.399 . S
C2165 C2166 1.385 . S
C2166 H2152 0.931 . S
C2166 C2165 1.385 . S
C2166 C2167 1.389 . S
C2167 C2166 1.389 . S
C2167 C2168 1.387 . S
C2168 H2153 0.930 . S
C2168 C2163 1.390 . S
C2168 C2167 1.387 . S
H2169 C2181 0.930 . S
H2170 C2183 0.930 . S
H2171 C2184 0.930 . S
H2172 C2188 0.959 . S
H2173 C2188 0.959 . S
H2174 C2188 0.961 . S
H2175 C2189 0.960 . S
H2176 C2189 0.961 . S
H2177 C2189 0.959 . S
H2178 C2192 0.929 . S
H2179 C2193 0.931 . S
H2180 C2195 0.930 . S
C2181 H2169 0.930 . S
C2181 C2182 1.399 . S
C2181 C2186 1.399 . S
C2182 C2181 1.399 . S
C2182 C2183 1.376 . S
C2183 H2170 0.930 . S
C2183 C2182 1.376 . S
C2183 C2184 1.388 . S
C2184 H2171 0.930 . S
C2184 C2183 1.388 . S
C2184 C2185 1.390 . S
C2185 C2184 1.390 . S
C2185 C2186 1.394 . S
C2185 C2191 1.465 . S
C2186 C2181 1.399 . S
C2186 C2185 1.394 . S
C2186 C2187 1.516 . S
C2187 C2186 1.516 . S
C2187 C2188 1.502 . S
C2187 C2189 1.561 . S
C2187 C2190 1.526 . S
C2188 H2172 0.959 . S
C2188 H2173 0.959 . S
C2188 H2174 0.961 . S
C2188 C2187 1.502 . S
C2189 H2175 0.960 . S
C2189 H2176 0.961 . S
C2189 H2177 0.959 . S
C2189 C2187 1.561 . S
C2190 C2187 1.526 . S
C2190 C2191 1.396 . S
C2190 C2195 1.390 . S
C2191 C2185 1.465 . S
C2191 C2190 1.396 . S
C2191 C2192 1.399 . S
C2192 H2178 0.929 . S
C2192 C2191 1.399 . S
C2192 C2193 1.385 . S
C2193 H2179 0.931 . S
C2193 C2192 1.385 . S
C2193 C2194 1.389 . S
C2194 C2193 1.389 . S
C2194 C2195 1.387 . S
C2195 H2180 0.930 . S
C2195 C2190 1.390 . S
C2195 C2194 1.387 . S
H2196 C2208 0.930 . S
H2197 C2210 0.930 . S
H2198 C2211 0.930 . S
H2199 C2215 0.959 . S
H2200 C2215 0.959 1_554 S
H2201 C2215 0.961 . S
H2202 C2216 0.960 . S
H2203 C2216 0.961 . S
H2204 C2216 0.959 . S
H2205 C2219 0.929 . S
H2206 C2220 0.931 . S
H2207 C2222 0.930 1_554 S
C2208 H2196 0.930 . S
C2208 C2209 1.399 . S
C2208 C2213 1.399 . S
C2209 C2208 1.399 . S
C2209 C2210 1.376 . S
C2210 H2197 0.930 . S
C2210 C2209 1.376 . S
C2210 C2211 1.388 . S
C2211 H2198 0.930 . S
C2211 C2210 1.388 . S
C2211 C2212 1.390 . S
C2212 C2211 1.390 . S
C2212 C2213 1.394 . S
C2212 C2218 1.465 . S
C2213 C2208 1.399 . S
C2213 C2212 1.394 . S
C2213 C2214 1.516 . S
C2214 C2213 1.516 . S
C2214 C2215 1.502 . S
C2214 C2216 1.561 1_556 S
C2214 C2217 1.526 . S
C2215 H2199 0.959 . S
C2215 H2200 0.959 1_556 S
C2215 H2201 0.961 . S
C2215 C2214 1.502 . S
C2216 H2202 0.960 . S
C2216 H2203 0.961 . S
C2216 H2204 0.959 . S
C2216 C2214 1.561 1_554 S
C2217 C2214 1.526 . S
C2217 C2218 1.396 . S
C2217 C2222 1.390 . S
C2218 C2212 1.465 . S
C2218 C2217 1.396 . S
C2218 C2219 1.399 . S
C2219 H2205 0.929 . S
C2219 C2218 1.399 . S
C2219 C2220 1.385 . S
C2220 H2206 0.931 . S
C2220 C2219 1.385 . S
C2220 C2221 1.389 . S
C2221 C2220 1.389 . S
C2221 C2222 1.387 . S
C2222 H2207 0.930 1_556 S
C2222 C2217 1.390 . S
C2222 C2221 1.387 . S
H2223 C2235 0.930 . S
H2224 C2237 0.930 . S
H2225 C2238 0.930 . S
H2226 C2242 0.959 . S
H2227 C2242 0.959 . S
H2228 C2242 0.961 . S
H2229 C2243 0.960 . S
H2230 C2243 0.961 . S
H2231 C2243 0.959 . S
H2232 C2246 0.929 . S
H2233 C2247 0.931 . S
H2234 C2249 0.930 . S
C2235 H2223 0.930 . S
C2235 C2236 1.399 . S
C2235 C2240 1.399 . S
C2236 C2235 1.399 . S
C2236 C2237 1.376 . S
C2237 H2224 0.930 . S
C2237 C2236 1.376 . S
C2237 C2238 1.388 . S
C2238 H2225 0.930 . S
C2238 C2237 1.388 . S
C2238 C2239 1.390 . S
C2239 C2238 1.390 . S
C2239 C2240 1.394 . S
C2239 C2245 1.465 . S
C2240 C2235 1.399 . S
C2240 C2239 1.394 . S
C2240 C2241 1.516 . S
C2241 C2240 1.516 . S
C2241 C2242 1.502 . S
C2241 C2243 1.561 . S
C2241 C2244 1.526 . S
C2242 H2226 0.959 . S
C2242 H2227 0.959 . S
C2242 H2228 0.961 . S
C2242 C2241 1.502 . S
C2243 H2229 0.960 . S
C2243 H2230 0.961 . S
C2243 H2231 0.959 . S
C2243 C2241 1.561 . S
C2244 C2241 1.526 . S
C2244 C2245 1.396 . S
C2244 C2249 1.390 . S
C2245 C2239 1.465 . S
C2245 C2244 1.396 . S
C2245 C2246 1.399 . S
C2246 H2232 0.929 . S
C2246 C2245 1.399 . S
C2246 C2247 1.385 . S
C2247 H2233 0.931 . S
C2247 C2246 1.385 . S
C2247 C2248 1.389 . S
C2248 C2247 1.389 . S
C2248 C2249 1.387 . S
C2249 H2234 0.930 . S
C2249 C2244 1.390 . S
C2249 C2248 1.387 . S
H2250 C2262 0.930 . S
H2251 C2264 0.930 . S
H2252 C2265 0.930 . S
H2253 C2269 0.959 . S
H2254 C2269 0.959 . S
H2255 C2269 0.961 . S
H2256 C2270 0.960 . S
H2257 C2270 0.961 . S
H2258 C2270 0.959 . S
H2259 C2273 0.929 . S
H2260 C2274 0.931 . S
H2261 C2276 0.930 . S
C2262 H2250 0.930 . S
C2262 C2263 1.399 . S
C2262 C2267 1.399 . S
C2263 C2262 1.399 . S
C2263 C2264 1.376 . S
C2264 H2251 0.930 . S
C2264 C2263 1.376 . S
C2264 C2265 1.388 . S
C2265 H2252 0.930 . S
C2265 C2264 1.388 . S
C2265 C2266 1.390 . S
C2266 C2265 1.390 . S
C2266 C2267 1.394 . S
C2266 C2272 1.465 . S
C2267 C2262 1.399 . S
C2267 C2266 1.394 . S
C2267 C2268 1.516 . S
C2268 C2267 1.516 . S
C2268 C2269 1.502 . S
C2268 C2270 1.561 . S
C2268 C2271 1.526 . S
C2269 H2253 0.959 . S
C2269 H2254 0.959 . S
C2269 H2255 0.961 . S
C2269 C2268 1.502 . S
C2270 H2256 0.960 . S
C2270 H2257 0.961 . S
C2270 H2258 0.959 . S
C2270 C2268 1.561 . S
C2271 C2268 1.526 . S
C2271 C2272 1.396 . S
C2271 C2276 1.390 . S
C2272 C2266 1.465 . S
C2272 C2271 1.396 . S
C2272 C2273 1.399 . S
C2273 H2259 0.929 . S
C2273 C2272 1.399 . S
C2273 C2274 1.385 . S
C2274 H2260 0.931 . S
C2274 C2273 1.385 . S
C2274 C2275 1.389 . S
C2275 C2274 1.389 . S
C2275 C2276 1.387 . S
C2276 H2261 0.930 . S
C2276 C2271 1.390 . S
C2276 C2275 1.387 . S
H2277 C2289 0.930 . S
H2278 C2291 0.930 . S
H2279 C2292 0.930 . S
H2280 C2296 0.959 . S
H2281 C2296 0.959 . S
H2282 C2296 0.961 . S
H2283 C2297 0.960 . S
H2284 C2297 0.961 . S
H2285 C2297 0.959 . S
H2286 C2300 0.929 . S
H2287 C2301 0.931 . S
H2288 C2303 0.930 . S
C2289 H2277 0.930 . S
C2289 C2290 1.399 . S
C2289 C2294 1.399 . S
C2290 C2289 1.399 . S
C2290 C2291 1.376 . S
C2291 H2278 0.930 . S
C2291 C2290 1.376 . S
C2291 C2292 1.388 . S
C2292 H2279 0.930 . S
C2292 C2291 1.388 . S
C2292 C2293 1.390 . S
C2293 C2292 1.390 . S
C2293 C2294 1.394 . S
C2293 C2299 1.465 . S
C2294 C2289 1.399 . S
C2294 C2293 1.394 . S
C2294 C2295 1.516 . S
C2295 C2294 1.516 . S
C2295 C2296 1.502 . S
C2295 C2297 1.561 . S
C2295 C2298 1.526 . S
C2296 H2280 0.959 . S
C2296 H2281 0.959 . S
C2296 H2282 0.961 . S
C2296 C2295 1.502 . S
C2297 H2283 0.960 . S
C2297 H2284 0.961 . S
C2297 H2285 0.959 . S
C2297 C2295 1.561 . S
C2298 C2295 1.526 . S
C2298 C2299 1.396 . S
C2298 C2303 1.390 . S
C2299 C2293 1.465 . S
C2299 C2298 1.396 . S
C2299 C2300 1.399 . S
C2300 H2286 0.929 . S
C2300 C2299 1.399 . S
C2300 C2301 1.385 . S
C2301 H2287 0.931 . S
C2301 C2300 1.385 . S
C2301 C2302 1.389 . S
C2302 C2301 1.389 . S
C2302 C2303 1.387 . S
C2303 H2288 0.930 . S
C2303 C2298 1.390 . S
C2303 C2302 1.387 . S
H2304 C2316 0.930 . S
H2305 C2318 0.930 . S
H2306 C2319 0.930 . S
H2307 C2323 0.959 . S
H2308 C2323 0.959 . S
H2309 C2323 0.961 . S
H2310 C2324 0.960 . S
H2311 C2324 0.961 . S
H2312 C2324 0.959 . S
H2313 C2327 0.929 . S
H2314 C2328 0.931 . S
H2315 C2330 0.930 . S
C2316 H2304 0.930 . S
C2316 C2317 1.399 . S
C2316 C2321 1.399 . S
C2317 C2316 1.399 . S
C2317 C2318 1.376 . S
C2318 H2305 0.930 . S
C2318 C2317 1.376 . S
C2318 C2319 1.388 . S
C2319 H2306 0.930 . S
C2319 C2318 1.388 . S
C2319 C2320 1.390 . S
C2320 C2319 1.390 . S
C2320 C2321 1.394 . S
C2320 C2326 1.465 . S
C2321 C2316 1.399 . S
C2321 C2320 1.394 . S
C2321 C2322 1.516 . S
C2322 C2321 1.516 . S
C2322 C2323 1.502 . S
C2322 C2324 1.561 . S
C2322 C2325 1.526 . S
C2323 H2307 0.959 . S
C2323 H2308 0.959 . S
C2323 H2309 0.961 . S
C2323 C2322 1.502 . S
C2324 H2310 0.960 . S
C2324 H2311 0.961 . S
C2324 H2312 0.959 . S
C2324 C2322 1.561 . S
C2325 C2322 1.526 . S
C2325 C2326 1.396 . S
C2325 C2330 1.390 . S
C2326 C2320 1.465 . S
C2326 C2325 1.396 . S
C2326 C2327 1.399 . S
C2327 H2313 0.929 . S
C2327 C2326 1.399 . S
C2327 C2328 1.385 . S
C2328 H2314 0.931 . S
C2328 C2327 1.385 . S
C2328 C2329 1.389 . S
C2329 C2328 1.389 . S
C2329 C2330 1.387 . S
C2330 H2315 0.930 . S
C2330 C2325 1.390 . S
C2330 C2329 1.387 . S
H2331 C2343 0.930 . S
H2332 C2345 0.930 . S
H2333 C2346 0.930 . S
H2334 C2350 0.959 . S
H2335 C2350 0.959 . S
H2336 C2350 0.961 . S
H2337 C2351 0.960 . S
H2338 C2351 0.961 . S
H2339 C2351 0.959 . S
H2340 C2354 0.929 . S
H2341 C2355 0.931 . S
H2342 C2357 0.930 . S
C2343 H2331 0.930 . S
C2343 C2344 1.399 . S
C2343 C2348 1.399 . S
C2344 C2343 1.399 . S
C2344 C2345 1.376 . S
C2345 H2332 0.930 . S
C2345 C2344 1.376 . S
C2345 C2346 1.388 . S
C2346 H2333 0.930 . S
C2346 C2345 1.388 . S
C2346 C2347 1.390 . S
C2347 C2346 1.390 . S
C2347 C2348 1.394 . S
C2347 C2353 1.465 . S
C2348 C2343 1.399 . S
C2348 C2347 1.394 . S
C2348 C2349 1.516 . S
C2349 C2348 1.516 . S
C2349 C2350 1.502 . S
C2349 C2351 1.561 . S
C2349 C2352 1.526 . S
C2350 H2334 0.959 . S
C2350 H2335 0.959 . S
C2350 H2336 0.961 . S
C2350 C2349 1.502 . S
C2351 H2337 0.960 . S
C2351 H2338 0.961 . S
C2351 H2339 0.959 . S
C2351 C2349 1.561 . S
C2352 C2349 1.526 . S
C2352 C2353 1.396 . S
C2352 C2357 1.390 . S
C2353 C2347 1.465 . S
C2353 C2352 1.396 . S
C2353 C2354 1.399 . S
C2354 H2340 0.929 . S
C2354 C2353 1.399 . S
C2354 C2355 1.385 . S
C2355 H2341 0.931 . S
C2355 C2354 1.385 . S
C2355 C2356 1.389 . S
C2356 C2355 1.389 . S
C2356 C2357 1.387 . S
C2357 H2342 0.930 . S
C2357 C2352 1.390 . S
C2357 C2356 1.387 . S
H2358 C2370 0.930 . S
H2359 C2372 0.930 . S
H2360 C2373 0.930 . S
H2361 C2377 0.959 . S
H2362 C2377 0.959 . S
H2363 C2377 0.961 . S
H2364 C2378 0.960 . S
H2365 C2378 0.961 . S
H2366 C2378 0.959 . S
H2367 C2381 0.929 1_455 S
H2368 C2382 0.931 . S
H2369 C2384 0.930 . S
C2370 H2358 0.930 . S
C2370 C2371 1.399 . S
C2370 C2375 1.399 . S
C2371 C2370 1.399 . S
C2371 C2372 1.376 . S
C2372 H2359 0.930 . S
C2372 C2371 1.376 . S
C2372 C2373 1.388 . S
C2373 H2360 0.930 . S
C2373 C2372 1.388 . S
C2373 C2374 1.390 . S
C2374 C2373 1.390 . S
C2374 C2375 1.394 . S
C2374 C2380 1.465 . S
C2375 C2370 1.399 . S
C2375 C2374 1.394 . S
C2375 C2376 1.516 . S
C2376 C2375 1.516 . S
C2376 C2377 1.502 . S
C2376 C2378 1.561 . S
C2376 C2379 1.526 . S
C2377 H2361 0.959 . S
C2377 H2362 0.959 . S
C2377 H2363 0.961 . S
C2377 C2376 1.502 . S
C2378 H2364 0.960 . S
C2378 H2365 0.961 . S
C2378 H2366 0.959 . S
C2378 C2376 1.561 . S
C2379 C2376 1.526 . S
C2379 C2380 1.396 . S
C2379 C2384 1.390 . S
C2380 C2374 1.465 . S
C2380 C2379 1.396 . S
C2380 C2381 1.399 . S
C2381 H2367 0.929 1_655 S
C2381 C2380 1.399 . S
C2381 C2382 1.385 1_655 S
C2382 H2368 0.931 . S
C2382 C2381 1.385 1_455 S
C2382 C2383 1.389 1_455 S
C2383 C2382 1.389 1_655 S
C2383 C2384 1.387 . S
C2384 H2369 0.930 . S
C2384 C2379 1.390 . S
C2384 C2383 1.387 . S
H2385 C2397 0.930 . S
H2386 C2399 0.930 . S
H2387 C2400 0.930 . S
H2388 C2404 0.959 . S
H2389 C2404 0.959 . S
H2390 C2404 0.961 . S
H2391 C2405 0.960 . S
H2392 C2405 0.961 . S
H2393 C2405 0.959 . S
H2394 C2408 0.929 . S
H2395 C2409 0.931 . S
H2396 C2411 0.930 . S
C2397 H2385 0.930 . S
C2397 C2398 1.399 . S
C2397 C2402 1.399 . S
C2398 C2397 1.399 . S
C2398 C2399 1.376 . S
C2399 H2386 0.930 . S
C2399 C2398 1.376 . S
C2399 C2400 1.388 . S
C2400 H2387 0.930 . S
C2400 C2399 1.388 . S
C2400 C2401 1.390 . S
C2401 C2400 1.390 . S
C2401 C2402 1.394 . S
C2401 C2407 1.465 . S
C2402 C2397 1.399 . S
C2402 C2401 1.394 . S
C2402 C2403 1.516 . S
C2403 C2402 1.516 . S
C2403 C2404 1.502 . S
C2403 C2405 1.561 . S
C2403 C2406 1.526 . S
C2404 H2388 0.959 . S
C2404 H2389 0.959 . S
C2404 H2390 0.961 . S
C2404 C2403 1.502 . S
C2405 H2391 0.960 . S
C2405 H2392 0.961 . S
C2405 H2393 0.959 . S
C2405 C2403 1.561 . S
C2406 C2403 1.526 . S
C2406 C2407 1.396 . S
C2406 C2411 1.390 . S
C2407 C2401 1.465 . S
C2407 C2406 1.396 . S
C2407 C2408 1.399 . S
C2408 H2394 0.929 . S
C2408 C2407 1.399 . S
C2408 C2409 1.385 . S
C2409 H2395 0.931 . S
C2409 C2408 1.385 . S
C2409 C2410 1.389 . S
C2410 C2409 1.389 . S
C2410 C2411 1.387 . S
C2411 H2396 0.930 . S
C2411 C2406 1.390 . S
C2411 C2410 1.387 . S
H2412 C2424 0.930 . S
H2413 C2426 0.930 . S
H2414 C2427 0.930 . S
H2415 C2431 0.959 . S
H2416 C2431 0.959 . S
H2417 C2431 0.961 . S
H2418 C2432 0.960 . S
H2419 C2432 0.961 . S
H2420 C2432 0.959 . S
H2421 C2435 0.929 . S
H2422 C2436 0.931 . S
H2423 C2438 0.930 . S
C2424 H2412 0.930 . S
C2424 C2425 1.399 . S
C2424 C2429 1.399 . S
C2425 C2424 1.399 . S
C2425 C2426 1.376 . S
C2426 H2413 0.930 . S
C2426 C2425 1.376 . S
C2426 C2427 1.388 . S
C2427 H2414 0.930 . S
C2427 C2426 1.388 . S
C2427 C2428 1.390 . S
C2428 C2427 1.390 . S
C2428 C2429 1.394 . S
C2428 C2434 1.465 . S
C2429 C2424 1.399 . S
C2429 C2428 1.394 . S
C2429 C2430 1.516 . S
C2430 C2429 1.516 . S
C2430 C2431 1.502 . S
C2430 C2432 1.561 . S
C2430 C2433 1.526 . S
C2431 H2415 0.959 . S
C2431 H2416 0.959 . S
C2431 H2417 0.961 . S
C2431 C2430 1.502 . S
C2432 H2418 0.960 . S
C2432 H2419 0.961 . S
C2432 H2420 0.959 . S
C2432 C2430 1.561 . S
C2433 C2430 1.526 . S
C2433 C2434 1.396 . S
C2433 C2438 1.390 . S
C2434 C2428 1.465 . S
C2434 C2433 1.396 . S
C2434 C2435 1.399 . S
C2435 H2421 0.929 . S
C2435 C2434 1.399 . S
C2435 C2436 1.385 . S
C2436 H2422 0.931 . S
C2436 C2435 1.385 . S
C2436 C2437 1.389 . S
C2437 C2436 1.389 . S
C2437 C2438 1.387 . S
C2438 H2423 0.930 . S
C2438 C2433 1.390 . S
C2438 C2437 1.387 . S
H2439 C2451 0.930 . S
H2440 C2453 0.930 . S
H2441 C2454 0.930 . S
H2442 C2458 0.959 . S
H2443 C2458 0.959 . S
H2444 C2458 0.961 . S
H2445 C2459 0.960 . S
H2446 C2459 0.961 . S
H2447 C2459 0.959 . S
H2448 C2462 0.929 . S
H2449 C2463 0.931 . S
H2450 C2465 0.930 . S
C2451 H2439 0.930 . S
C2451 C2452 1.399 . S
C2451 C2456 1.399 . S
C2452 C2451 1.399 . S
C2452 C2453 1.376 . S
C2453 H2440 0.930 . S
C2453 C2452 1.376 . S
C2453 C2454 1.388 . S
C2454 H2441 0.930 . S
C2454 C2453 1.388 . S
C2454 C2455 1.390 . S
C2455 C2454 1.390 . S
C2455 C2456 1.394 . S
C2455 C2461 1.465 . S
C2456 C2451 1.399 . S
C2456 C2455 1.394 . S
C2456 C2457 1.516 . S
C2457 C2456 1.516 . S
C2457 C2458 1.502 . S
C2457 C2459 1.561 . S
C2457 C2460 1.526 . S
C2458 H2442 0.959 . S
C2458 H2443 0.959 . S
C2458 H2444 0.961 . S
C2458 C2457 1.502 . S
C2459 H2445 0.960 . S
C2459 H2446 0.961 . S
C2459 H2447 0.959 . S
C2459 C2457 1.561 . S
C2460 C2457 1.526 . S
C2460 C2461 1.396 . S
C2460 C2465 1.390 . S
C2461 C2455 1.465 . S
C2461 C2460 1.396 . S
C2461 C2462 1.399 . S
C2462 H2448 0.929 . S
C2462 C2461 1.399 . S
C2462 C2463 1.385 . S
C2463 H2449 0.931 . S
C2463 C2462 1.385 . S
C2463 C2464 1.389 . S
C2464 C2463 1.389 . S
C2464 C2465 1.387 . S
C2465 H2450 0.930 . S
C2465 C2460 1.390 . S
C2465 C2464 1.387 . S
H2466 C2478 0.930 . S
H2467 C2480 0.930 . S
H2468 C2481 0.930 . S
H2469 C2485 0.959 . S
H2470 C2485 0.959 . S
H2471 C2485 0.961 . S
H2472 C2486 0.960 . S
H2473 C2486 0.961 . S
H2474 C2486 0.959 . S
H2475 C2489 0.929 . S
H2476 C2490 0.931 1_455 S
H2477 C2492 0.930 . S
C2478 H2466 0.930 . S
C2478 C2479 1.399 . S
C2478 C2483 1.399 . S
C2479 C2478 1.399 . S
C2479 C2480 1.376 . S
C2480 H2467 0.930 . S
C2480 C2479 1.376 . S
C2480 C2481 1.388 . S
C2481 H2468 0.930 . S
C2481 C2480 1.388 . S
C2481 C2482 1.390 . S
C2482 C2481 1.390 . S
C2482 C2483 1.394 . S
C2482 C2488 1.465 . S
C2483 C2478 1.399 . S
C2483 C2482 1.394 . S
C2483 C2484 1.516 . S
C2484 C2483 1.516 . S
C2484 C2485 1.502 . S
C2484 C2486 1.561 . S
C2484 C2487 1.526 . S
C2485 H2469 0.959 . S
C2485 H2470 0.959 . S
C2485 H2471 0.961 . S
C2485 C2484 1.502 . S
C2486 H2472 0.960 . S
C2486 H2473 0.961 . S
C2486 H2474 0.959 . S
C2486 C2484 1.561 . S
C2487 C2484 1.526 . S
C2487 C2488 1.396 . S
C2487 C2492 1.390 . S
C2488 C2482 1.465 . S
C2488 C2487 1.396 . S
C2488 C2489 1.399 . S
C2489 H2475 0.929 . S
C2489 C2488 1.399 . S
C2489 C2490 1.385 . S
C2490 H2476 0.931 1_655 S
C2490 C2489 1.385 . S
C2490 C2491 1.389 . S
C2491 C2490 1.389 . S
C2491 C2492 1.387 . S
C2492 H2477 0.930 . S
C2492 C2487 1.390 . S
C2492 C2491 1.387 . S
H2493 C2505 0.930 . S
H2494 C2507 0.930 . S
H2495 C2508 0.930 . S
H2496 C2512 0.959 . S
H2497 C2512 0.959 . S
H2498 C2512 0.961 . S
H2499 C2513 0.960 . S
H2500 C2513 0.961 . S
H2501 C2513 0.959 . S
H2502 C2516 0.929 . S
H2503 C2517 0.931 . S
H2504 C2519 0.930 . S
C2505 H2493 0.930 . S
C2505 C2506 1.399 . S
C2505 C2510 1.399 . S
C2506 C2505 1.399 . S
C2506 C2507 1.376 . S
C2507 H2494 0.930 . S
C2507 C2506 1.376 . S
C2507 C2508 1.388 . S
C2508 H2495 0.930 . S
C2508 C2507 1.388 . S
C2508 C2509 1.390 . S
C2509 C2508 1.390 . S
C2509 C2510 1.394 . S
C2509 C2515 1.465 . S
C2510 C2505 1.399 . S
C2510 C2509 1.394 . S
C2510 C2511 1.516 . S
C2511 C2510 1.516 . S
C2511 C2512 1.502 . S
C2511 C2513 1.561 . S
C2511 C2514 1.526 . S
C2512 H2496 0.959 . S
C2512 H2497 0.959 . S
C2512 H2498 0.961 . S
C2512 C2511 1.502 . S
C2513 H2499 0.960 . S
C2513 H2500 0.961 . S
C2513 H2501 0.959 . S
C2513 C2511 1.561 . S
C2514 C2511 1.526 . S
C2514 C2515 1.396 . S
C2514 C2519 1.390 . S
C2515 C2509 1.465 . S
C2515 C2514 1.396 . S
C2515 C2516 1.399 . S
C2516 H2502 0.929 . S
C2516 C2515 1.399 . S
C2516 C2517 1.385 . S
C2517 H2503 0.931 . S
C2517 C2516 1.385 . S
C2517 C2518 1.389 . S
C2518 C2517 1.389 . S
C2518 C2519 1.387 . S
C2519 H2504 0.930 . S
C2519 C2514 1.390 . S
C2519 C2518 1.387 . S
H2520 C2532 0.930 . S
H2521 C2534 0.930 . S
H2522 C2535 0.930 . S
H2523 C2539 0.959 . S
H2524 C2539 0.959 . S
H2525 C2539 0.961 . S
H2526 C2540 0.960 . S
H2527 C2540 0.961 . S
H2528 C2540 0.959 . S
H2529 C2543 0.929 . S
H2530 C2544 0.931 . S
H2531 C2546 0.930 . S
C2532 H2520 0.930 . S
C2532 C2533 1.399 . S
C2532 C2537 1.399 . S
C2533 C2532 1.399 . S
C2533 C2534 1.376 . S
C2534 H2521 0.930 . S
C2534 C2533 1.376 . S
C2534 C2535 1.388 . S
C2535 H2522 0.930 . S
C2535 C2534 1.388 . S
C2535 C2536 1.390 . S
C2536 C2535 1.390 . S
C2536 C2537 1.394 . S
C2536 C2542 1.465 . S
C2537 C2532 1.399 . S
C2537 C2536 1.394 . S
C2537 C2538 1.516 . S
C2538 C2537 1.516 . S
C2538 C2539 1.502 . S
C2538 C2540 1.561 . S
C2538 C2541 1.526 . S
C2539 H2523 0.959 . S
C2539 H2524 0.959 . S
C2539 H2525 0.961 . S
C2539 C2538 1.502 . S
C2540 H2526 0.960 . S
C2540 H2527 0.961 . S
C2540 H2528 0.959 . S
C2540 C2538 1.561 . S
C2541 C2538 1.526 . S
C2541 C2542 1.396 . S
C2541 C2546 1.390 . S
C2542 C2536 1.465 . S
C2542 C2541 1.396 . S
C2542 C2543 1.399 . S
C2543 H2529 0.929 . S
C2543 C2542 1.399 . S
C2543 C2544 1.385 . S
C2544 H2530 0.931 . S
C2544 C2543 1.385 . S
C2544 C2545 1.389 . S
C2545 C2544 1.389 . S
C2545 C2546 1.387 . S
C2546 H2531 0.930 . S
C2546 C2541 1.390 . S
C2546 C2545 1.387 . S
H2547 C2559 0.930 . S
H2548 C2561 0.930 . S
H2549 C2562 0.930 . S
H2550 C2566 0.959 . S
H2551 C2566 0.959 . S
H2552 C2566 0.961 . S
H2553 C2567 0.960 . S
H2554 C2567 0.961 . S
H2555 C2567 0.986 . S
H2556 C2570 0.929 . S
H2557 C2571 0.931 . S
H2558 C2573 0.930 . S
C2559 H2547 0.930 . S
C2559 C2560 1.399 . S
C2559 C2564 1.399 . S
C2560 C2559 1.399 . S
C2560 C2561 1.376 . S
C2561 H2548 0.930 . S
C2561 C2560 1.376 . S
C2561 C2562 1.388 . S
C2562 H2549 0.930 . S
C2562 C2561 1.388 . S
C2562 C2563 1.390 . S
C2563 C2562 1.390 . S
C2563 C2564 1.394 . S
C2563 C2569 1.465 . S
C2564 C2559 1.399 . S
C2564 C2563 1.394 . S
C2564 C2565 1.516 . S
C2565 C2564 1.516 . S
C2565 C2566 1.502 . S
C2565 C2567 1.561 . S
C2565 C2568 1.526 . S
C2566 H2550 0.959 . S
C2566 H2551 0.959 . S
C2566 H2552 0.961 . S
C2566 C2565 1.502 . S
C2567 H2553 0.960 . S
C2567 H2554 0.961 . S
C2567 H2555 0.986 . S
C2567 C2565 1.561 . S
C2568 C2565 1.526 . S
C2568 C2569 1.396 . S
C2568 C2573 1.390 . S
C2569 C2563 1.465 . S
C2569 C2568 1.396 . S
C2569 C2570 1.399 . S
C2570 H2556 0.929 . S
C2570 C2569 1.399 . S
C2570 C2571 1.385 1_565 S
C2571 H2557 0.931 . S
C2571 C2570 1.385 1_545 S
C2571 C2572 1.389 . S
C2572 C2571 1.389 . S
C2572 C2573 1.387 1_545 S
C2573 H2558 0.930 . S
C2573 C2568 1.390 . S
C2573 C2572 1.387 1_565 S
H2574 C2586 0.930 . S
H2575 C2588 0.924 1_545 S
H2576 C2589 0.930 . S
H2577 C2593 0.959 . S
H2578 C2593 0.959 . S
H2579 C2593 0.961 . S
H2580 C2594 0.960 . S
H2581 C2594 0.961 . S
H2582 C2594 0.959 . S
H2583 C2597 0.929 . S
H2584 C2598 0.931 . S
H2585 C2600 0.930 . S
C2586 H2574 0.930 . S
C2586 C2587 1.399 . S
C2586 C2591 1.399 . S
C2587 C2586 1.399 . S
C2587 C2588 1.376 . S
C2588 H2575 0.924 1_565 S
C2588 C2587 1.376 . S
C2588 C2589 1.388 . S
C2589 H2576 0.930 . S
C2589 C2588 1.388 . S
C2589 C2590 1.390 . S
C2590 C2589 1.390 . S
C2590 C2591 1.394 . S
C2590 C2596 1.465 . S
C2591 C2586 1.399 . S
C2591 C2590 1.394 . S
C2591 C2592 1.516 . S
C2592 C2591 1.516 . S
C2592 C2593 1.502 . S
C2592 C2594 1.561 . S
C2592 C2595 1.526 . S
C2593 H2577 0.959 . S
C2593 H2578 0.959 . S
C2593 H2579 0.961 . S
C2593 C2592 1.502 . S
C2594 H2580 0.960 . S
C2594 H2581 0.961 . S
C2594 H2582 0.959 . S
C2594 C2592 1.561 . S
C2595 C2592 1.526 . S
C2595 C2596 1.396 . S
C2595 C2600 1.390 . S
C2596 C2590 1.465 . S
C2596 C2595 1.396 . S
C2596 C2597 1.399 . S
C2597 H2583 0.929 . S
C2597 C2596 1.399 . S
C2597 C2598 1.385 . S
C2598 H2584 0.931 . S
C2598 C2597 1.385 . S
C2598 C2599 1.389 . S
C2599 C2598 1.389 . S
C2599 C2600 1.387 . S
C2600 H2585 0.930 . S
C2600 C2595 1.390 . S
C2600 C2599 1.387 . S
H2601 C2613 0.930 . S
H2602 C2615 0.930 1_556 S
H2603 C2616 0.930 1_556 S
H2604 C2620 0.959 . S
H2605 C2620 0.959 . S
H2606 C2620 0.961 . S
H2607 C2621 0.960 . S
H2608 C2621 0.961 . S
H2609 C2621 0.959 . S
H2610 C2624 0.929 1_556 S
H2611 C2625 0.931 . S
H2612 C2627 0.930 . S
C2613 H2601 0.930 . S
C2613 C2614 1.399 . S
C2613 C2618 1.399 . S
C2614 C2613 1.399 . S
C2614 C2615 1.376 . S
C2615 H2602 0.930 1_554 S
C2615 C2614 1.376 . S
C2615 C2616 1.388 . S
C2616 H2603 0.930 1_554 S
C2616 C2615 1.388 . S
C2616 C2617 1.390 . S
C2617 C2616 1.390 . S
C2617 C2618 1.394 . S
C2617 C2623 1.465 . S
C2618 C2613 1.399 . S
C2618 C2617 1.394 . S
C2618 C2619 1.516 . S
C2619 C2618 1.516 . S
C2619 C2620 1.502 . S
C2619 C2621 1.561 . S
C2619 C2622 1.526 . S
C2620 H2604 0.959 . S
C2620 H2605 0.959 . S
C2620 H2606 0.961 . S
C2620 C2619 1.502 . S
C2621 H2607 0.960 . S
C2621 H2608 0.961 . S
C2621 H2609 0.959 . S
C2621 C2619 1.561 . S
C2622 C2619 1.526 . S
C2622 C2623 1.396 . S
C2622 C2627 1.390 . S
C2623 C2617 1.465 . S
C2623 C2622 1.396 . S
C2623 C2624 1.399 . S
C2624 H2610 0.929 1_554 S
C2624 C2623 1.399 . S
C2624 C2625 1.385 . S
C2625 H2611 0.931 . S
C2625 C2624 1.385 . S
C2625 C2626 1.389 . S
C2626 C2625 1.389 . S
C2626 C2627 1.387 . S
C2627 H2612 0.930 . S
C2627 C2622 1.390 . S
C2627 C2626 1.387 . S
H2628 C2640 0.930 . S
H2629 C2642 0.930 . S
H2630 C2643 0.930 . S
H2631 C2647 0.959 . S
H2632 C2647 0.959 . S
H2633 C2647 0.961 . S
H2634 C2648 0.960 . S
H2635 C2648 0.961 . S
H2636 C2648 0.959 . S
H2637 C2651 0.929 . S
H2638 C2652 0.931 . S
H2639 C2654 0.930 . S
C2640 H2628 0.930 . S
C2640 C2641 1.399 . S
C2640 C2645 1.399 . S
C2641 C2640 1.399 . S
C2641 C2642 1.376 . S
C2642 H2629 0.930 . S
C2642 C2641 1.376 . S
C2642 C2643 1.388 . S
C2643 H2630 0.930 . S
C2643 C2642 1.388 . S
C2643 C2644 1.390 . S
C2644 C2643 1.390 . S
C2644 C2645 1.394 . S
C2644 C2650 1.465 . S
C2645 C2640 1.399 . S
C2645 C2644 1.394 . S
C2645 C2646 1.516 . S
C2646 C2645 1.516 . S
C2646 C2647 1.502 . S
C2646 C2648 1.561 . S
C2646 C2649 1.526 . S
C2647 H2631 0.959 . S
C2647 H2632 0.959 . S
C2647 H2633 0.961 . S
C2647 C2646 1.502 . S
C2648 H2634 0.960 . S
C2648 H2635 0.961 . S
C2648 H2636 0.959 . S
C2648 C2646 1.561 . S
C2649 C2646 1.526 . S
C2649 C2650 1.396 . S
C2649 C2654 1.390 . S
C2650 C2644 1.465 . S
C2650 C2649 1.396 . S
C2650 C2651 1.399 . S
C2651 H2637 0.929 . S
C2651 C2650 1.399 . S
C2651 C2652 1.385 . S
C2652 H2638 0.931 . S
C2652 C2651 1.385 . S
C2652 C2653 1.389 . S
C2653 C2652 1.389 . S
C2653 C2654 1.387 . S
C2654 H2639 0.930 . S
C2654 C2649 1.390 . S
C2654 C2653 1.387 . S
H2655 C2667 0.930 . S
H2656 C2669 0.930 . S
H2657 C2670 0.930 . S
H2658 C2674 0.959 . S
H2659 C2674 0.959 . S
H2660 C2674 0.961 . S
H2661 C2675 0.960 . S
H2662 C2675 0.961 . S
H2663 C2675 0.959 . S
H2664 C2678 0.932 . S
H2665 C2679 0.941 . S
H2666 C2681 0.930 . S
C2667 H2655 0.930 . S
C2667 C2668 1.399 . S
C2667 C2672 1.399 . S
C2668 C2667 1.399 . S
C2668 C2669 1.376 . S
C2669 H2656 0.930 . S
C2669 C2668 1.376 . S
C2669 C2670 1.388 . S
C2670 H2657 0.930 . S
C2670 C2669 1.388 . S
C2670 C2671 1.390 . S
C2671 C2670 1.390 . S
C2671 C2672 1.394 . S
C2671 C2677 1.465 . S
C2672 C2667 1.399 . S
C2672 C2671 1.394 . S
C2672 C2673 1.516 . S
C2673 C2672 1.516 . S
C2673 C2674 1.502 . S
C2673 C2675 1.561 . S
C2673 C2676 1.526 . S
C2674 H2658 0.959 . S
C2674 H2659 0.959 . S
C2674 H2660 0.961 . S
C2674 C2673 1.502 . S
C2675 H2661 0.960 . S
C2675 H2662 0.961 . S
C2675 H2663 0.959 . S
C2675 C2673 1.561 . S
C2676 C2673 1.526 . S
C2676 C2677 1.396 . S
C2676 C2681 1.390 . S
C2677 C2671 1.465 . S
C2677 C2676 1.396 . S
C2677 C2678 1.399 . S
C2678 H2664 0.932 . S
C2678 C2677 1.399 . S
C2678 C2679 1.381 1_554 S
C2679 H2665 0.941 . S
C2679 C2678 1.381 1_556 S
C2679 C2680 1.383 1_556 S
C2680 C2679 1.383 1_554 S
C2680 C2681 1.387 . S
C2681 H2666 0.930 . S
C2681 C2676 1.390 . S
C2681 C2680 1.387 . S
H2682 C2694 0.930 . S
H2683 C2696 0.930 . S
H2684 C2697 0.930 . S
H2685 C2701 0.959 . S
H2686 C2701 0.959 . S
H2687 C2701 0.961 . S
H2688 C2702 0.960 . S
H2689 C2702 0.961 . S
H2690 C2702 0.959 . S
H2691 C2705 0.929 . S
H2692 C2706 0.931 . S
H2693 C2708 0.930 . S
C2694 H2682 0.930 . S
C2694 C2695 1.399 . S
C2694 C2699 1.399 . S
C2695 C2694 1.399 . S
C2695 C2696 1.376 . S
C2696 H2683 0.930 . S
C2696 C2695 1.376 . S
C2696 C2697 1.388 . S
C2697 H2684 0.930 . S
C2697 C2696 1.388 . S
C2697 C2698 1.390 . S
C2698 C2697 1.390 . S
C2698 C2699 1.394 . S
C2698 C2704 1.465 . S
C2699 C2694 1.399 . S
C2699 C2698 1.394 . S
C2699 C2700 1.516 . S
C2700 C2699 1.516 . S
C2700 C2701 1.502 . S
C2700 C2702 1.561 . S
C2700 C2703 1.526 . S
C2701 H2685 0.959 . S
C2701 H2686 0.959 . S
C2701 H2687 0.961 . S
C2701 C2700 1.502 . S
C2702 H2688 0.960 . S
C2702 H2689 0.961 . S
C2702 H2690 0.959 . S
C2702 C2700 1.561 . S
C2703 C2700 1.526 . S
C2703 C2704 1.396 . S
C2703 C2708 1.390 . S
C2704 C2698 1.465 . S
C2704 C2703 1.396 . S
C2704 C2705 1.399 . S
C2705 H2691 0.929 . S
C2705 C2704 1.399 . S
C2705 C2706 1.385 . S
C2706 H2692 0.931 . S
C2706 C2705 1.385 . S
C2706 C2707 1.389 . S
C2707 C2706 1.389 . S
C2707 C2708 1.387 . S
C2708 H2693 0.930 . S
C2708 C2703 1.390 . S
C2708 C2707 1.387 . S
H2709 C2721 0.930 . S
H2710 C2723 0.930 . S
H2711 C2724 0.930 . S
H2712 C2728 0.959 . S
H2713 C2728 0.959 . S
H2714 C2728 0.961 . S
H2715 C2729 0.960 . S
H2716 C2729 0.961 . S
H2717 C2729 0.959 . S
H2718 C2732 0.929 . S
H2719 C2733 0.931 . S
H2720 C2735 0.930 . S
C2721 H2709 0.930 . S
C2721 C2722 1.399 . S
C2721 C2726 1.399 . S
C2722 C2721 1.399 . S
C2722 C2723 1.376 . S
C2723 H2710 0.930 . S
C2723 C2722 1.376 . S
C2723 C2724 1.388 . S
C2724 H2711 0.930 . S
C2724 C2723 1.388 . S
C2724 C2725 1.390 . S
C2725 C2724 1.390 . S
C2725 C2726 1.394 . S
C2725 C2731 1.465 . S
C2726 C2721 1.399 . S
C2726 C2725 1.394 . S
C2726 C2727 1.516 . S
C2727 C2726 1.516 . S
C2727 C2728 1.502 . S
C2727 C2729 1.561 . S
C2727 C2730 1.526 . S
C2728 H2712 0.959 . S
C2728 H2713 0.959 . S
C2728 H2714 0.961 . S
C2728 C2727 1.502 . S
C2729 H2715 0.960 . S
C2729 H2716 0.961 . S
C2729 H2717 0.959 . S
C2729 C2727 1.561 . S
C2730 C2727 1.526 . S
C2730 C2731 1.396 . S
C2730 C2735 1.390 . S
C2731 C2725 1.465 . S
C2731 C2730 1.396 . S
C2731 C2732 1.399 . S
C2732 H2718 0.929 . S
C2732 C2731 1.399 . S
C2732 C2733 1.385 . S
C2733 H2719 0.931 . S
C2733 C2732 1.385 . S
C2733 C2734 1.389 . S
C2734 C2733 1.389 . S
C2734 C2735 1.387 . S
C2735 H2720 0.930 . S
C2735 C2730 1.390 . S
C2735 C2734 1.387 . S
H2736 C2748 0.930 . S
H2737 C2750 0.930 . S
H2738 C2751 0.930 . S
H2739 C2755 0.959 . S
H2740 C2755 0.959 . S
H2741 C2755 0.961 . S
H2742 C2756 0.960 . S
H2743 C2756 0.961 . S
H2744 C2756 0.959 . S
H2745 C2759 0.929 . S
H2746 C2760 0.931 . S
H2747 C2762 0.930 . S
C2748 H2736 0.930 . S
C2748 C2749 1.399 . S
C2748 C2753 1.399 . S
C2749 C2748 1.399 . S
C2749 C2750 1.376 . S
C2750 H2737 0.930 . S
C2750 C2749 1.376 . S
C2750 C2751 1.388 . S
C2751 H2738 0.930 . S
C2751 C2750 1.388 . S
C2751 C2752 1.390 . S
C2752 C2751 1.390 . S
C2752 C2753 1.394 . S
C2752 C2758 1.465 . S
C2753 C2748 1.399 . S
C2753 C2752 1.394 . S
C2753 C2754 1.516 . S
C2754 C2753 1.516 . S
C2754 C2755 1.502 . S
C2754 C2756 1.561 . S
C2754 C2757 1.526 . S
C2755 H2739 0.959 . S
C2755 H2740 0.959 . S
C2755 H2741 0.961 . S
C2755 C2754 1.502 . S
C2756 H2742 0.960 . S
C2756 H2743 0.961 . S
C2756 H2744 0.959 . S
C2756 C2754 1.561 . S
C2757 C2754 1.526 . S
C2757 C2758 1.396 . S
C2757 C2762 1.390 . S
C2758 C2752 1.465 . S
C2758 C2757 1.396 . S
C2758 C2759 1.399 . S
C2759 H2745 0.929 . S
C2759 C2758 1.399 . S
C2759 C2760 1.385 . S
C2760 H2746 0.931 . S
C2760 C2759 1.385 . S
C2760 C2761 1.389 . S
C2761 C2760 1.389 . S
C2761 C2762 1.387 . S
C2762 H2747 0.930 . S
C2762 C2757 1.390 . S
C2762 C2761 1.387 . S
H2763 C2775 0.930 . S
H2764 C2777 0.930 . S
H2765 C2778 0.930 . S
H2766 C2782 0.959 . S
H2767 C2782 0.959 . S
H2768 C2782 0.961 . S
H2769 C2783 0.960 . S
H2770 C2783 0.961 . S
H2771 C2783 0.959 . S
H2772 C2786 0.929 . S
H2773 C2787 0.931 . S
H2774 C2789 0.930 . S
C2775 H2763 0.930 . S
C2775 C2776 1.399 . S
C2775 C2780 1.399 . S
C2776 C2775 1.399 . S
C2776 C2777 1.376 . S
C2777 H2764 0.930 . S
C2777 C2776 1.376 . S
C2777 C2778 1.388 . S
C2778 H2765 0.930 . S
C2778 C2777 1.388 . S
C2778 C2779 1.390 . S
C2779 C2778 1.390 . S
C2779 C2780 1.394 . S
C2779 C2785 1.465 . S
C2780 C2775 1.399 . S
C2780 C2779 1.394 . S
C2780 C2781 1.516 . S
C2781 C2780 1.516 . S
C2781 C2782 1.502 . S
C2781 C2783 1.561 . S
C2781 C2784 1.526 . S
C2782 H2766 0.959 . S
C2782 H2767 0.959 . S
C2782 H2768 0.961 . S
C2782 C2781 1.502 . S
C2783 H2769 0.960 . S
C2783 H2770 0.961 . S
C2783 H2771 0.959 . S
C2783 C2781 1.561 . S
C2784 C2781 1.526 . S
C2784 C2785 1.396 . S
C2784 C2789 1.390 . S
C2785 C2779 1.465 . S
C2785 C2784 1.396 . S
C2785 C2786 1.399 . S
C2786 H2772 0.929 . S
C2786 C2785 1.399 . S
C2786 C2787 1.385 . S
C2787 H2773 0.931 . S
C2787 C2786 1.385 . S
C2787 C2788 1.389 . S
C2788 C2787 1.389 . S
C2788 C2789 1.387 . S
C2789 H2774 0.930 . S
C2789 C2784 1.390 . S
C2789 C2788 1.387 . S
H2790 C2802 0.930 . S
H2791 C2804 0.930 . S
H2792 C2805 0.930 . S
H2793 C2809 0.915 1_655 S
H2794 C2809 0.959 . S
H2795 C2809 0.961 . S
H2796 C2810 0.960 . S
H2797 C2810 0.961 . S
H2798 C2810 0.959 . S
H2799 C2813 0.929 . S
H2800 C2814 0.931 . S
H2801 C2816 0.930 . S
C2802 H2790 0.930 . S
C2802 C2803 1.399 . S
C2802 C2807 1.399 . S
C2803 C2802 1.399 . S
C2803 C2804 1.376 . S
C2804 H2791 0.930 . S
C2804 C2803 1.376 . S
C2804 C2805 1.388 . S
C2805 H2792 0.930 . S
C2805 C2804 1.388 . S
C2805 C2806 1.390 . S
C2806 C2805 1.390 . S
C2806 C2807 1.394 . S
C2806 C2812 1.465 . S
C2807 C2802 1.399 . S
C2807 C2806 1.394 . S
C2807 C2808 1.516 . S
C2808 C2807 1.516 . S
C2808 C2809 1.502 . S
C2808 C2810 1.561 . S
C2808 C2811 1.526 . S
C2809 H2793 0.915 1_455 S
C2809 H2794 0.959 . S
C2809 H2795 0.961 . S
C2809 C2808 1.502 . S
C2810 H2796 0.960 . S
C2810 H2797 0.961 . S
C2810 H2798 0.959 . S
C2810 C2808 1.561 . S
C2811 C2808 1.526 . S
C2811 C2812 1.396 . S
C2811 C2816 1.390 . S
C2812 C2806 1.465 . S
C2812 C2811 1.396 . S
C2812 C2813 1.399 1_556 S
C2813 H2799 0.929 . S
C2813 C2812 1.399 1_554 S
C2813 C2814 1.385 . S
C2814 H2800 0.931 . S
C2814 C2813 1.385 . S
C2814 C2815 1.389 1_554 S
C2815 C2814 1.389 1_556 S
C2815 C2816 1.387 . S
C2816 H2801 0.930 . S
C2816 C2811 1.390 . S
C2816 C2815 1.387 . S
H2817 C2829 0.930 . S
H2818 C2831 0.930 . S
H2819 C2832 0.930 . S
H2820 C2836 0.959 . S
H2821 C2836 0.959 . S
H2822 C2836 0.961 . S
H2823 C2837 0.960 . S
H2824 C2837 0.961 . S
H2825 C2837 0.959 . S
H2826 C2840 0.929 . S
H2827 C2841 0.931 . S
H2828 C2843 0.930 . S
C2829 H2817 0.930 . S
C2829 C2830 1.399 . S
C2829 C2834 1.399 . S
C2830 C2829 1.399 . S
C2830 C2831 1.376 . S
C2831 H2818 0.930 . S
C2831 C2830 1.376 . S
C2831 C2832 1.388 . S
C2832 H2819 0.930 . S
C2832 C2831 1.388 . S
C2832 C2833 1.390 . S
C2833 C2832 1.390 . S
C2833 C2834 1.394 . S
C2833 C2839 1.465 . S
C2834 C2829 1.399 . S
C2834 C2833 1.394 . S
C2834 C2835 1.516 . S
C2835 C2834 1.516 . S
C2835 C2836 1.502 . S
C2835 C2837 1.561 . S
C2835 C2838 1.526 . S
C2836 H2820 0.959 . S
C2836 H2821 0.959 . S
C2836 H2822 0.961 . S
C2836 C2835 1.502 . S
C2837 H2823 0.960 . S
C2837 H2824 0.961 . S
C2837 H2825 0.959 . S
C2837 C2835 1.561 . S
C2838 C2835 1.526 . S
C2838 C2839 1.396 . S
C2838 C2843 1.390 . S
C2839 C2833 1.465 . S
C2839 C2838 1.396 . S
C2839 C2840 1.399 . S
C2840 H2826 0.929 . S
C2840 C2839 1.399 . S
C2840 C2841 1.385 . S
C2841 H2827 0.931 . S
C2841 C2840 1.385 . S
C2841 C2842 1.389 . S
C2842 C2841 1.389 . S
C2842 C2843 1.387 . S
C2843 H2828 0.930 . S
C2843 C2838 1.390 . S
C2843 C2842 1.387 . S
H2844 C2856 0.930 . S
H2845 C2858 0.930 . S
H2846 C2859 0.930 . S
H2847 C2863 0.959 . S
H2848 C2863 0.959 . S
H2849 C2863 0.961 . S
H2850 C2864 0.960 . S
H2851 C2864 0.961 . S
H2852 C2864 0.959 . S
H2853 C2867 0.929 . S
H2854 C2868 0.931 . S
H2855 C2870 0.930 . S
C2856 H2844 0.930 . S
C2856 C2857 1.399 . S
C2856 C2861 1.399 . S
C2857 C2856 1.399 . S
C2857 C2858 1.376 . S
C2858 H2845 0.930 . S
C2858 C2857 1.376 . S
C2858 C2859 1.388 . S
C2859 H2846 0.930 . S
C2859 C2858 1.388 . S
C2859 C2860 1.390 . S
C2860 C2859 1.390 . S
C2860 C2861 1.394 . S
C2860 C2866 1.465 . S
C2861 C2856 1.399 . S
C2861 C2860 1.394 . S
C2861 C2862 1.516 . S
C2862 C2861 1.516 . S
C2862 C2863 1.502 . S
C2862 C2864 1.561 . S
C2862 C2865 1.526 . S
C2863 H2847 0.959 . S
C2863 H2848 0.959 . S
C2863 H2849 0.961 . S
C2863 C2862 1.502 . S
C2864 H2850 0.960 . S
C2864 H2851 0.961 . S
C2864 H2852 0.959 . S
C2864 C2862 1.561 . S
C2865 C2862 1.526 . S
C2865 C2866 1.396 . S
C2865 C2870 1.390 . S
C2866 C2860 1.465 . S
C2866 C2865 1.396 . S
C2866 C2867 1.399 . S
C2867 H2853 0.929 . S
C2867 C2866 1.399 . S
C2867 C2868 1.385 . S
C2868 H2854 0.931 . S
C2868 C2867 1.385 . S
C2868 C2869 1.389 . S
C2869 C2868 1.389 . S
C2869 C2870 1.387 . S
C2870 H2855 0.930 . S
C2870 C2865 1.390 . S
C2870 C2869 1.387 . S
H2871 C2883 0.930 . S
H2872 C2885 0.930 . S
H2873 C2886 0.930 . S
H2874 C2890 0.959 . S
H2875 C2890 0.959 . S
H2876 C2890 0.961 . S
H2877 C2891 0.960 . S
H2878 C2891 0.961 . S
H2879 C2891 0.959 . S
H2880 C2894 0.929 . S
H2881 C2895 0.931 . S
H2882 C2897 0.930 . S
C2883 H2871 0.930 . S
C2883 C2884 1.399 . S
C2883 C2888 1.399 . S
C2884 C2883 1.399 . S
C2884 C2885 1.376 . S
C2885 H2872 0.930 . S
C2885 C2884 1.376 . S
C2885 C2886 1.388 . S
C2886 H2873 0.930 . S
C2886 C2885 1.388 . S
C2886 C2887 1.390 . S
C2887 C2886 1.390 . S
C2887 C2888 1.394 . S
C2887 C2893 1.465 . S
C2888 C2883 1.399 . S
C2888 C2887 1.394 . S
C2888 C2889 1.516 . S
C2889 C2888 1.516 . S
C2889 C2890 1.502 . S
C2889 C2891 1.561 . S
C2889 C2892 1.526 . S
C2890 H2874 0.959 . S
C2890 H2875 0.959 . S
C2890 H2876 0.961 . S
C2890 C2889 1.502 . S
C2891 H2877 0.960 . S
C2891 H2878 0.961 . S
C2891 H2879 0.959 . S
C2891 C2889 1.561 . S
C2892 C2889 1.526 . S
C2892 C2893 1.396 . S
C2892 C2897 1.390 . S
C2893 C2887 1.465 . S
C2893 C2892 1.396 . S
C2893 C2894 1.399 . S
C2894 H2880 0.929 . S
C2894 C2893 1.399 . S
C2894 C2895 1.385 . S
C2895 H2881 0.931 . S
C2895 C2894 1.385 . S
C2895 C2896 1.389 . S
C2896 C2895 1.389 . S
C2896 C2897 1.387 . S
C2897 H2882 0.930 . S
C2897 C2892 1.390 . S
C2897 C2896 1.387 . S
H2898 C2910 0.930 . S
H2899 C2912 0.930 1_655 S
H2900 C2913 0.930 1_655 S
H2901 C2917 0.959 1_655 S
H2902 C2917 0.959 . S
H2903 C2917 0.961 . S
H2904 C2918 0.960 . S
H2905 C2918 0.961 . S
H2906 C2918 0.959 . S
H2907 C2921 0.923 1_655 S
H2908 C2922 0.931 . S
H2909 C2924 0.930 . S
C2910 H2898 0.930 . S
C2910 C2911 1.399 . S
C2910 C2915 1.399 . S
C2911 C2910 1.399 . S
C2911 C2912 1.376 . S
C2912 H2899 0.930 1_455 S
C2912 C2911 1.376 . S
C2912 C2913 1.388 . S
C2913 H2900 0.930 1_455 S
C2913 C2912 1.388 . S
C2913 C2914 1.390 . S
C2914 C2913 1.390 . S
C2914 C2915 1.394 . S
C2914 C2920 1.465 . S
C2915 C2910 1.399 . S
C2915 C2914 1.394 . S
C2915 C2916 1.516 . S
C2916 C2915 1.516 . S
C2916 C2917 1.502 . S
C2916 C2918 1.561 . S
C2916 C2919 1.526 . S
C2917 H2901 0.959 1_455 S
C2917 H2902 0.959 . S
C2917 H2903 0.961 . S
C2917 C2916 1.502 . S
C2918 H2904 0.960 . S
C2918 H2905 0.961 . S
C2918 H2906 0.959 . S
C2918 C2916 1.561 . S
C2919 C2916 1.526 . S
C2919 C2920 1.396 . S
C2919 C2924 1.390 . S
C2920 C2914 1.465 . S
C2920 C2919 1.396 . S
C2920 C2921 1.399 . S
C2921 H2907 0.923 1_455 S
C2921 C2920 1.399 . S
C2921 C2922 1.385 . S
C2922 H2908 0.931 . S
C2922 C2921 1.385 . S
C2922 C2923 1.389 . S
C2923 C2922 1.389 . S
C2923 C2924 1.387 . S
C2924 H2909 0.930 . S
C2924 C2919 1.390 . S
C2924 C2923 1.387 . S
H2925 C2937 0.930 . S
H2926 C2939 0.930 . S
H2927 C2940 0.930 . S
H2928 C2944 0.959 . S
H2929 C2944 0.959 . S
H2930 C2944 0.961 . S
H2931 C2945 0.960 . S
H2932 C2945 0.961 . S
H2933 C2945 0.959 . S
H2934 C2948 0.929 . S
H2935 C2949 0.931 . S
H2936 C2951 0.930 . S
C2937 H2925 0.930 . S
C2937 C2938 1.399 . S
C2937 C2942 1.399 . S
C2938 C2937 1.399 . S
C2938 C2939 1.376 . S
C2939 H2926 0.930 . S
C2939 C2938 1.376 . S
C2939 C2940 1.388 . S
C2940 H2927 0.930 . S
C2940 C2939 1.388 . S
C2940 C2941 1.390 . S
C2941 C2940 1.390 . S
C2941 C2942 1.394 . S
C2941 C2947 1.465 . S
C2942 C2937 1.399 . S
C2942 C2941 1.394 . S
C2942 C2943 1.516 . S
C2943 C2942 1.516 . S
C2943 C2944 1.502 . S
C2943 C2945 1.561 . S
C2943 C2946 1.526 . S
C2944 H2928 0.959 . S
C2944 H2929 0.959 . S
C2944 H2930 0.961 . S
C2944 C2943 1.502 . S
C2945 H2931 0.960 . S
C2945 H2932 0.961 . S
C2945 H2933 0.959 . S
C2945 C2943 1.561 . S
C2946 C2943 1.526 . S
C2946 C2947 1.396 . S
C2946 C2951 1.390 . S
C2947 C2941 1.465 . S
C2947 C2946 1.396 . S
C2947 C2948 1.399 . S
C2948 H2934 0.929 . S
C2948 C2947 1.399 . S
C2948 C2949 1.385 . S
C2949 H2935 0.931 . S
C2949 C2948 1.385 . S
C2949 C2950 1.389 . S
C2950 C2949 1.389 . S
C2950 C2951 1.387 . S
C2951 H2936 0.930 . S
C2951 C2946 1.390 . S
C2951 C2950 1.387 . S
H2952 C2964 0.930 . S
H2953 C2966 0.930 . S
H2954 C2967 0.930 . S
H2955 C2971 0.959 . S
H2956 C2971 0.959 . S
H2957 C2971 0.961 . S
H2958 C2972 0.960 . S
H2959 C2972 0.961 . S
H2960 C2972 0.959 . S
H2961 C2975 0.929 . S
H2962 C2976 0.931 . S
H2963 C2978 0.930 . S
C2964 H2952 0.930 . S
C2964 C2965 1.399 . S
C2964 C2969 1.399 . S
C2965 C2964 1.399 . S
C2965 C2966 1.376 . S
C2966 H2953 0.930 . S
C2966 C2965 1.376 . S
C2966 C2967 1.388 . S
C2967 H2954 0.930 . S
C2967 C2966 1.388 . S
C2967 C2968 1.390 . S
C2968 C2967 1.390 . S
C2968 C2969 1.394 . S
C2968 C2974 1.465 . S
C2969 C2964 1.399 . S
C2969 C2968 1.394 . S
C2969 C2970 1.516 . S
C2970 C2969 1.516 . S
C2970 C2971 1.502 . S
C2970 C2972 1.561 . S
C2970 C2973 1.526 . S
C2971 H2955 0.959 . S
C2971 H2956 0.959 . S
C2971 H2957 0.961 . S
C2971 C2970 1.502 . S
C2972 H2958 0.960 . S
C2972 H2959 0.961 . S
C2972 H2960 0.959 . S
C2972 C2970 1.561 . S
C2973 C2970 1.526 . S
C2973 C2974 1.396 . S
C2973 C2978 1.390 . S
C2974 C2968 1.465 . S
C2974 C2973 1.396 . S
C2974 C2975 1.399 . S
C2975 H2961 0.929 . S
C2975 C2974 1.399 . S
C2975 C2976 1.385 . S
C2976 H2962 0.931 . S
C2976 C2975 1.385 . S
C2976 C2977 1.389 . S
C2977 C2976 1.389 . S
C2977 C2978 1.387 . S
C2978 H2963 0.930 . S
C2978 C2973 1.390 . S
C2978 C2977 1.387 . S
H2979 C2991 0.930 . S
H2980 C2993 0.930 . S
H2981 C2994 0.930 . S
H2982 C2998 0.959 . S
H2983 C2998 0.959 . S
H2984 C2998 0.961 . S
H2985 C2999 0.960 . S
H2986 C2999 0.961 . S
H2987 C2999 0.959 . S
H2988 C3002 0.929 . S
H2989 C3003 0.931 . S
H2990 C3005 0.930 . S
C2991 H2979 0.930 . S
C2991 C2992 1.399 . S
C2991 C2996 1.399 . S
C2992 C2991 1.399 . S
C2992 C2993 1.376 . S
C2993 H2980 0.930 . S
C2993 C2992 1.376 . S
C2993 C2994 1.388 . S
C2994 H2981 0.930 . S
C2994 C2993 1.388 . S
C2994 C2995 1.390 . S
C2995 C2994 1.390 . S
C2995 C2996 1.394 . S
C2995 C3001 1.465 . S
C2996 C2991 1.399 . S
C2996 C2995 1.394 . S
C2996 C2997 1.516 . S
C2997 C2996 1.516 . S
C2997 C2998 1.502 . S
C2997 C2999 1.561 . S
C2997 C3000 1.526 . S
C2998 H2982 0.959 . S
C2998 H2983 0.959 . S
C2998 H2984 0.961 . S
C2998 C2997 1.502 . S
C2999 H2985 0.960 . S
C2999 H2986 0.961 . S
C2999 H2987 0.959 . S
C2999 C2997 1.561 . S
C3000 C2997 1.526 . S
C3000 C3001 1.396 . S
C3000 C3005 1.390 . S
C3001 C2995 1.465 . S
C3001 C3000 1.396 . S
C3001 C3002 1.399 . S
C3002 H2988 0.929 . S
C3002 C3001 1.399 . S
C3002 C3003 1.385 . S
C3003 H2989 0.931 . S
C3003 C3002 1.385 . S
C3003 C3004 1.389 . S
C3004 C3003 1.389 . S
C3004 C3005 1.387 . S
C3005 H2990 0.930 . S
C3005 C3000 1.390 . S
C3005 C3004 1.387 . S
H3006 C3018 0.930 . S
H3007 C3020 0.930 . S
H3008 C3021 0.930 . S
H3009 C3025 0.959 . S
H3010 C3025 0.959 . S
H3011 C3025 0.961 . S
H3012 C3026 0.960 . S
H3013 C3026 0.961 . S
H3014 C3026 0.959 . S
H3015 C3029 0.929 . S
H3016 C3030 0.931 . S
H3017 C3032 0.930 . S
C3018 H3006 0.930 . S
C3018 C3019 1.399 . S
C3018 C3023 1.399 . S
C3019 C3018 1.399 . S
C3019 C3020 1.376 . S
C3020 H3007 0.930 . S
C3020 C3019 1.376 . S
C3020 C3021 1.388 . S
C3021 H3008 0.930 . S
C3021 C3020 1.388 . S
C3021 C3022 1.390 . S
C3022 C3021 1.390 . S
C3022 C3023 1.394 . S
C3022 C3028 1.465 . S
C3023 C3018 1.399 . S
C3023 C3022 1.394 . S
C3023 C3024 1.516 . S
C3024 C3023 1.516 . S
C3024 C3025 1.502 . S
C3024 C3026 1.561 . S
C3024 C3027 1.526 . S
C3025 H3009 0.959 . S
C3025 H3010 0.959 . S
C3025 H3011 0.961 . S
C3025 C3024 1.502 . S
C3026 H3012 0.960 . S
C3026 H3013 0.961 . S
C3026 H3014 0.959 . S
C3026 C3024 1.561 . S
C3027 C3024 1.526 . S
C3027 C3028 1.396 . S
C3027 C3032 1.390 . S
C3028 C3022 1.465 . S
C3028 C3027 1.396 . S
C3028 C3029 1.399 . S
C3029 H3015 0.929 . S
C3029 C3028 1.399 . S
C3029 C3030 1.385 . S
C3030 H3016 0.931 . S
C3030 C3029 1.385 . S
C3030 C3031 1.389 . S
C3031 C3030 1.389 . S
C3031 C3032 1.387 . S
C3032 H3017 0.930 . S
C3032 C3027 1.390 . S
C3032 C3031 1.387 . S
H3033 C3045 0.930 . S
H3034 C3047 0.930 . S
H3035 C3048 0.930 . S
H3036 C3052 0.959 . S
H3037 C3052 0.959 . S
H3038 C3052 0.961 . S
H3039 C3053 0.960 . S
H3040 C3053 0.961 . S
H3041 C3053 0.959 . S
H3042 C3056 0.929 . S
H3043 C3057 0.931 . S
H3044 C3059 0.930 . S
C3045 H3033 0.930 . S
C3045 C3046 1.399 . S
C3045 C3050 1.399 . S
C3046 C3045 1.399 . S
C3046 C3047 1.376 . S
C3047 H3034 0.930 . S
C3047 C3046 1.376 . S
C3047 C3048 1.388 . S
C3048 H3035 0.930 . S
C3048 C3047 1.388 . S
C3048 C3049 1.390 . S
C3049 C3048 1.390 . S
C3049 C3050 1.394 . S
C3049 C3055 1.465 . S
C3050 C3045 1.399 . S
C3050 C3049 1.394 . S
C3050 C3051 1.516 . S
C3051 C3050 1.516 . S
C3051 C3052 1.502 . S
C3051 C3053 1.561 . S
C3051 C3054 1.526 . S
C3052 H3036 0.959 . S
C3052 H3037 0.959 . S
C3052 H3038 0.961 . S
C3052 C3051 1.502 . S
C3053 H3039 0.960 . S
C3053 H3040 0.961 . S
C3053 H3041 0.959 . S
C3053 C3051 1.561 . S
C3054 C3051 1.526 . S
C3054 C3055 1.396 . S
C3054 C3059 1.390 . S
C3055 C3049 1.465 . S
C3055 C3054 1.396 . S
C3055 C3056 1.399 . S
C3056 H3042 0.929 . S
C3056 C3055 1.399 . S
C3056 C3057 1.385 . S
C3057 H3043 0.931 . S
C3057 C3056 1.385 . S
C3057 C3058 1.389 . S
C3058 C3057 1.389 . S
C3058 C3059 1.387 . S
C3059 H3044 0.930 . S
C3059 C3054 1.390 . S
C3059 C3058 1.387 . S
H3060 C3072 0.930 . S
H3061 C3074 0.930 . S
H3062 C3075 0.930 . S
H3063 C3079 0.959 . S
H3064 C3079 0.959 . S
H3065 C3079 0.961 . S
H3066 C3080 0.960 . S
H3067 C3080 0.961 . S
H3068 C3080 0.959 . S
H3069 C3083 0.929 . S
H3070 C3084 0.931 . S
H3071 C3086 0.930 . S
C3072 H3060 0.930 . S
C3072 C3073 1.399 . S
C3072 C3077 1.399 . S
C3073 C3072 1.399 . S
C3073 C3074 1.376 . S
C3074 H3061 0.930 . S
C3074 C3073 1.376 . S
C3074 C3075 1.388 . S
C3075 H3062 0.930 . S
C3075 C3074 1.388 . S
C3075 C3076 1.390 . S
C3076 C3075 1.390 . S
C3076 C3077 1.394 . S
C3076 C3082 1.465 . S
C3077 C3072 1.399 . S
C3077 C3076 1.394 . S
C3077 C3078 1.516 . S
C3078 C3077 1.516 . S
C3078 C3079 1.502 . S
C3078 C3080 1.561 . S
C3078 C3081 1.526 . S
C3079 H3063 0.959 . S
C3079 H3064 0.959 . S
C3079 H3065 0.961 . S
C3079 C3078 1.502 . S
C3080 H3066 0.960 . S
C3080 H3067 0.961 . S
C3080 H3068 0.959 . S
C3080 C3078 1.561 . S
C3081 C3078 1.526 . S
C3081 C3082 1.396 . S
C3081 C3086 1.390 . S
C3082 C3076 1.465 . S
C3082 C3081 1.396 . S
C3082 C3083 1.399 . S
C3083 H3069 0.929 . S
C3083 C3082 1.399 . S
C3083 C3084 1.385 . S
C3084 H3070 0.931 . S
C3084 C3083 1.385 . S
C3084 C3085 1.389 . S
C3085 C3084 1.389 . S
C3085 C3086 1.387 . S
C3086 H3071 0.930 . S
C3086 C3081 1.390 . S
C3086 C3085 1.387 . S
H3087 C3099 0.930 . S
H3088 C3101 0.930 . S
H3089 C3102 0.930 . S
H3090 C3106 0.959 . S
H3091 C3106 0.959 . S
H3092 C3106 0.961 . S
H3093 C3107 0.960 . S
H3094 C3107 0.961 . S
H3095 C3107 0.959 . S
H3096 C3110 0.929 . S
H3097 C3111 0.931 . S
H3098 C3113 0.930 . S
C3099 H3087 0.930 . S
C3099 C3100 1.399 . S
C3099 C3104 1.399 . S
C3100 C3099 1.399 . S
C3100 C3101 1.376 . S
C3101 H3088 0.930 . S
C3101 C3100 1.376 . S
C3101 C3102 1.388 . S
C3102 H3089 0.930 . S
C3102 C3101 1.388 . S
C3102 C3103 1.390 . S
C3103 C3102 1.390 . S
C3103 C3104 1.394 . S
C3103 C3109 1.465 . S
C3104 C3099 1.399 . S
C3104 C3103 1.394 . S
C3104 C3105 1.516 . S
C3105 C3104 1.516 . S
C3105 C3106 1.502 . S
C3105 C3107 1.561 . S
C3105 C3108 1.526 . S
C3106 H3090 0.959 . S
C3106 H3091 0.959 . S
C3106 H3092 0.961 . S
C3106 C3105 1.502 . S
C3107 H3093 0.960 . S
C3107 H3094 0.961 . S
C3107 H3095 0.959 . S
C3107 C3105 1.561 . S
C3108 C3105 1.526 . S
C3108 C3109 1.396 . S
C3108 C3113 1.390 . S
C3109 C3103 1.465 . S
C3109 C3108 1.396 . S
C3109 C3110 1.399 . S
C3110 H3096 0.929 . S
C3110 C3109 1.399 . S
C3110 C3111 1.385 . S
C3111 H3097 0.931 . S
C3111 C3110 1.385 . S
C3111 C3112 1.389 . S
C3112 C3111 1.389 . S
C3112 C3113 1.387 . S
C3113 H3098 0.930 . S
C3113 C3108 1.390 . S
C3113 C3112 1.387 . S
H3114 C3126 0.930 . S
H3115 C3128 0.930 . S
H3116 C3129 0.930 . S
H3117 C3133 0.959 . S
H3118 C3133 0.959 . S
H3119 C3133 0.961 . S
H3120 C3134 0.960 . S
H3121 C3134 0.961 . S
H3122 C3134 0.959 . S
H3123 C3137 0.929 . S
H3124 C3138 0.931 . S
H3125 C3140 0.930 . S
C3126 H3114 0.930 . S
C3126 C3127 1.399 . S
C3126 C3131 1.399 . S
C3127 C3126 1.399 . S
C3127 C3128 1.376 . S
C3128 H3115 0.930 . S
C3128 C3127 1.376 . S
C3128 C3129 1.388 . S
C3129 H3116 0.930 . S
C3129 C3128 1.388 . S
C3129 C3130 1.390 . S
C3130 C3129 1.390 . S
C3130 C3131 1.394 . S
C3130 C3136 1.465 . S
C3131 C3126 1.399 . S
C3131 C3130 1.394 . S
C3131 C3132 1.516 . S
C3132 C3131 1.516 . S
C3132 C3133 1.502 . S
C3132 C3134 1.561 . S
C3132 C3135 1.526 . S
C3133 H3117 0.959 . S
C3133 H3118 0.959 . S
C3133 H3119 0.961 . S
C3133 C3132 1.502 . S
C3134 H3120 0.960 . S
C3134 H3121 0.961 . S
C3134 H3122 0.959 . S
C3134 C3132 1.561 . S
C3135 C3132 1.526 . S
C3135 C3136 1.396 . S
C3135 C3140 1.390 . S
C3136 C3130 1.465 . S
C3136 C3135 1.396 . S
C3136 C3137 1.399 . S
C3137 H3123 0.929 . S
C3137 C3136 1.399 . S
C3137 C3138 1.385 . S
C3138 H3124 0.931 . S
C3138 C3137 1.385 . S
C3138 C3139 1.389 . S
C3139 C3138 1.389 . S
C3139 C3140 1.387 . S
C3140 H3125 0.930 . S
C3140 C3135 1.390 . S
C3140 C3139 1.387 . S
H3141 C3153 0.930 . S
H3142 C3155 0.930 . S
H3143 C3156 0.930 . S
H3144 C3160 0.959 . S
H3145 C3160 0.959 . S
H3146 C3160 0.961 . S
H3147 C3161 0.960 . S
H3148 C3161 0.961 . S
H3149 C3161 0.959 . S
H3150 C3164 0.929 . S
H3151 C3165 0.931 . S
H3152 C3167 0.930 . S
C3153 H3141 0.930 . S
C3153 C3154 1.399 . S
C3153 C3158 1.399 . S
C3154 C3153 1.399 . S
C3154 C3155 1.376 . S
C3155 H3142 0.930 . S
C3155 C3154 1.376 . S
C3155 C3156 1.388 . S
C3156 H3143 0.930 . S
C3156 C3155 1.388 . S
C3156 C3157 1.390 . S
C3157 C3156 1.390 . S
C3157 C3158 1.394 . S
C3157 C3163 1.465 . S
C3158 C3153 1.399 . S
C3158 C3157 1.394 . S
C3158 C3159 1.516 . S
C3159 C3158 1.516 . S
C3159 C3160 1.502 . S
C3159 C3161 1.561 . S
C3159 C3162 1.526 . S
C3160 H3144 0.959 . S
C3160 H3145 0.959 . S
C3160 H3146 0.961 . S
C3160 C3159 1.502 . S
C3161 H3147 0.960 . S
C3161 H3148 0.961 . S
C3161 H3149 0.959 . S
C3161 C3159 1.561 . S
C3162 C3159 1.526 . S
C3162 C3163 1.396 . S
C3162 C3167 1.390 . S
C3163 C3157 1.465 . S
C3163 C3162 1.396 . S
C3163 C3164 1.399 . S
C3164 H3150 0.929 . S
C3164 C3163 1.399 . S
C3164 C3165 1.385 . S
C3165 H3151 0.931 . S
C3165 C3164 1.385 . S
C3165 C3166 1.389 . S
C3166 C3165 1.389 . S
C3166 C3167 1.387 . S
C3167 H3152 0.930 . S
C3167 C3162 1.390 . S
C3167 C3166 1.387 . S
H3168 C3180 0.930 . S
H3169 C3182 0.930 . S
H3170 C3183 0.930 . S
H3171 C3187 0.959 . S
H3172 C3187 0.959 . S
H3173 C3187 0.961 . S
H3174 C3188 0.960 . S
H3175 C3188 0.961 . S
H3176 C3188 0.959 . S
H3177 C3191 0.929 . S
H3178 C3192 0.931 . S
H3179 C3194 0.930 . S
C3180 H3168 0.930 . S
C3180 C3181 1.399 . S
C3180 C3185 1.399 . S
C3181 C3180 1.399 . S
C3181 C3182 1.376 . S
C3182 H3169 0.930 . S
C3182 C3181 1.376 . S
C3182 C3183 1.388 . S
C3183 H3170 0.930 . S
C3183 C3182 1.388 . S
C3183 C3184 1.390 . S
C3184 C3183 1.390 . S
C3184 C3185 1.394 . S
C3184 C3190 1.465 . S
C3185 C3180 1.399 . S
C3185 C3184 1.394 . S
C3185 C3186 1.516 . S
C3186 C3185 1.516 . S
C3186 C3187 1.502 . S
C3186 C3188 1.561 . S
C3186 C3189 1.526 . S
C3187 H3171 0.959 . S
C3187 H3172 0.959 . S
C3187 H3173 0.961 . S
C3187 C3186 1.502 . S
C3188 H3174 0.960 . S
C3188 H3175 0.961 . S
C3188 H3176 0.959 . S
C3188 C3186 1.561 . S
C3189 C3186 1.526 . S
C3189 C3190 1.396 . S
C3189 C3194 1.390 . S
C3190 C3184 1.465 . S
C3190 C3189 1.396 . S
C3190 C3191 1.399 . S
C3191 H3177 0.929 . S
C3191 C3190 1.399 . S
C3191 C3192 1.385 . S
C3192 H3178 0.931 . S
C3192 C3191 1.385 . S
C3192 C3193 1.389 . S
C3193 C3192 1.389 . S
C3193 C3194 1.387 . S
C3194 H3179 0.930 . S
C3194 C3189 1.390 . S
C3194 C3193 1.387 . S
H3195 C3207 0.930 . S
H3196 C3209 0.930 . S
H3197 C3210 0.930 . S
H3198 C3214 0.959 . S
H3199 C3214 0.959 . S
H3200 C3214 0.961 . S
H3201 C3215 0.960 . S
H3202 C3215 0.961 . S
H3203 C3215 0.959 . S
H3204 C3218 0.929 . S
H3205 C3219 0.931 . S
H3206 C3221 0.930 . S
C3207 H3195 0.930 . S
C3207 C3208 1.399 . S
C3207 C3212 1.399 . S
C3208 C3207 1.399 . S
C3208 C3209 1.376 . S
C3209 H3196 0.930 . S
C3209 C3208 1.376 . S
C3209 C3210 1.388 . S
C3210 H3197 0.930 . S
C3210 C3209 1.388 . S
C3210 C3211 1.390 . S
C3211 C3210 1.390 . S
C3211 C3212 1.394 . S
C3211 C3217 1.465 . S
C3212 C3207 1.399 . S
C3212 C3211 1.394 . S
C3212 C3213 1.516 . S
C3213 C3212 1.516 . S
C3213 C3214 1.502 . S
C3213 C3215 1.561 . S
C3213 C3216 1.526 . S
C3214 H3198 0.959 . S
C3214 H3199 0.959 . S
C3214 H3200 0.961 . S
C3214 C3213 1.502 . S
C3215 H3201 0.960 . S
C3215 H3202 0.961 . S
C3215 H3203 0.959 . S
C3215 C3213 1.561 . S
C3216 C3213 1.526 . S
C3216 C3217 1.396 . S
C3216 C3221 1.390 . S
C3217 C3211 1.465 . S
C3217 C3216 1.396 . S
C3217 C3218 1.399 . S
C3218 H3204 0.929 . S
C3218 C3217 1.399 . S
C3218 C3219 1.385 . S
C3219 H3205 0.931 . S
C3219 C3218 1.385 . S
C3219 C3220 1.389 . S
C3220 C3219 1.389 . S
C3220 C3221 1.387 . S
C3221 H3206 0.930 . S
C3221 C3216 1.390 . S
C3221 C3220 1.387 . S
H3222 C3234 0.930 . S
H3223 C3236 0.930 . S
H3224 C3237 0.930 . S
H3225 C3241 0.959 . S
H3226 C3241 0.959 . S
H3227 C3241 0.961 . S
H3228 C3242 0.960 . S
H3229 C3242 0.961 . S
H3230 C3242 0.959 . S
H3231 C3245 0.929 . S
H3232 C3246 0.931 . S
H3233 C3248 0.930 . S
C3234 H3222 0.930 . S
C3234 C3235 1.399 . S
C3234 C3239 1.399 . S
C3235 C3234 1.399 . S
C3235 C3236 1.376 . S
C3236 H3223 0.930 . S
C3236 C3235 1.376 . S
C3236 C3237 1.388 . S
C3237 H3224 0.930 . S
C3237 C3236 1.388 . S
C3237 C3238 1.390 . S
C3238 C3237 1.390 . S
C3238 C3239 1.394 . S
C3238 C3244 1.465 . S
C3239 C3234 1.399 . S
C3239 C3238 1.394 . S
C3239 C3240 1.516 . S
C3240 C3239 1.516 . S
C3240 C3241 1.502 . S
C3240 C3242 1.561 . S
C3240 C3243 1.526 . S
C3241 H3225 0.959 . S
C3241 H3226 0.959 . S
C3241 H3227 0.961 . S
C3241 C3240 1.502 . S
C3242 H3228 0.960 . S
C3242 H3229 0.961 . S
C3242 H3230 0.959 . S
C3242 C3240 1.561 . S
C3243 C3240 1.526 . S
C3243 C3244 1.396 . S
C3243 C3248 1.390 . S
C3244 C3238 1.465 . S
C3244 C3243 1.396 . S
C3244 C3245 1.399 . S
C3245 H3231 0.929 . S
C3245 C3244 1.399 . S
C3245 C3246 1.385 . S
C3246 H3232 0.931 . S
C3246 C3245 1.385 . S
C3246 C3247 1.389 . S
C3247 C3246 1.389 . S
C3247 C3248 1.387 . S
C3248 H3233 0.930 . S
C3248 C3243 1.390 . S
C3248 C3247 1.387 . S
H3249 C3261 0.930 . S
H3250 C3263 0.930 . S
H3251 C3264 0.930 1_556 S
H3252 C3268 0.959 . S
H3253 C3268 0.959 . S
H3254 C3268 0.961 . S
H3255 C3269 0.960 . S
H3256 C3269 0.961 . S
H3257 C3269 0.959 . S
H3258 C3272 0.929 1_545 S
H3259 C3273 0.931 . S
H3260 C3275 0.930 . S
C3261 H3249 0.930 . S
C3261 C3262 1.399 . S
C3261 C3266 1.399 . S
C3262 C3261 1.399 . S
C3262 C3263 1.376 . S
C3263 H3250 0.930 . S
C3263 C3262 1.376 . S
C3263 C3264 1.388 . S
C3264 H3251 0.930 1_554 S
C3264 C3263 1.388 . S
C3264 C3265 1.390 . S
C3265 C3264 1.390 . S
C3265 C3266 1.394 . S
C3265 C3271 1.465 . S
C3266 C3261 1.399 . S
C3266 C3265 1.394 . S
C3266 C3267 1.516 . S
C3267 C3266 1.516 . S
C3267 C3268 1.502 . S
C3267 C3269 1.561 . S
C3267 C3270 1.526 . S
C3268 H3252 0.959 . S
C3268 H3253 0.959 . S
C3268 H3254 0.961 . S
C3268 C3267 1.502 . S
C3269 H3255 0.960 . S
C3269 H3256 0.961 . S
C3269 H3257 0.959 . S
C3269 C3267 1.561 . S
C3270 C3267 1.526 . S
C3270 C3271 1.396 . S
C3270 C3275 1.390 . S
C3271 C3265 1.465 . S
C3271 C3270 1.396 . S
C3271 C3272 1.399 1_554 S
C3272 H3258 0.929 1_565 S
C3272 C3271 1.399 1_556 S
C3272 C3273 1.385 1_565 S
C3273 H3259 0.931 . S
C3273 C3272 1.385 1_545 S
C3273 C3274 1.389 1_546 S
C3274 C3273 1.389 1_564 S
C3274 C3275 1.387 . S
C3275 H3260 0.930 . S
C3275 C3270 1.390 . S
C3275 C3274 1.387 . S
H3276 C3288 0.930 . S
H3277 C3290 0.930 . S
H3278 C3291 0.930 . S
H3279 C3295 0.959 . S
H3280 C3295 0.959 . S
H3281 C3295 0.961 . S
H3282 C3296 0.960 . S
H3283 C3296 0.961 . S
H3284 C3296 0.959 . S
H3285 C3299 0.929 . S
H3286 C3300 0.931 . S
H3287 C3302 0.930 . S
C3288 H3276 0.930 . S
C3288 C3289 1.399 . S
C3288 C3293 1.399 . S
C3289 C3288 1.399 . S
C3289 C3290 1.376 . S
C3290 H3277 0.930 . S
C3290 C3289 1.376 . S
C3290 C3291 1.388 . S
C3291 H3278 0.930 . S
C3291 C3290 1.388 . S
C3291 C3292 1.390 . S
C3292 C3291 1.390 . S
C3292 C3293 1.394 . S
C3292 C3298 1.465 . S
C3293 C3288 1.399 . S
C3293 C3292 1.394 . S
C3293 C3294 1.516 . S
C3294 C3293 1.516 . S
C3294 C3295 1.502 . S
C3294 C3296 1.561 . S
C3294 C3297 1.526 . S
C3295 H3279 0.959 . S
C3295 H3280 0.959 . S
C3295 H3281 0.961 . S
C3295 C3294 1.502 . S
C3296 H3282 0.960 . S
C3296 H3283 0.961 . S
C3296 H3284 0.959 . S
C3296 C3294 1.561 . S
C3297 C3294 1.526 . S
C3297 C3298 1.396 . S
C3297 C3302 1.390 . S
C3298 C3292 1.465 . S
C3298 C3297 1.396 . S
C3298 C3299 1.399 . S
C3299 H3285 0.929 . S
C3299 C3298 1.399 . S
C3299 C3300 1.385 . S
C3300 H3286 0.931 . S
C3300 C3299 1.385 . S
C3300 C3301 1.389 . S
C3301 C3300 1.389 . S
C3301 C3302 1.387 . S
C3302 H3287 0.930 . S
C3302 C3297 1.390 . S
C3302 C3301 1.387 . S
H3303 C3315 0.930 . S
H3304 C3317 0.930 . S
H3305 C3318 0.930 . S
H3306 C3322 0.959 . S
H3307 C3322 0.959 . S
H3308 C3322 0.961 . S
H3309 C3323 0.960 . S
H3310 C3323 0.961 . S
H3311 C3323 0.959 . S
H3312 C3326 0.929 . S
H3313 C3327 0.931 1_556 S
H3314 C3329 0.930 . S
C3315 H3303 0.930 . S
C3315 C3316 1.399 1_554 S
C3315 C3320 1.399 . S
C3316 C3315 1.399 1_556 S
C3316 C3317 1.376 . S
C3317 H3304 0.930 . S
C3317 C3316 1.376 . S
C3317 C3318 1.388 . S
C3318 H3305 0.930 . S
C3318 C3317 1.388 . S
C3318 C3319 1.390 . S
C3319 C3318 1.390 . S
C3319 C3320 1.394 1_556 S
C3319 C3325 1.465 1_556 S
C3320 C3315 1.399 . S
C3320 C3319 1.394 1_554 S
C3320 C3321 1.516 . S
C3321 C3320 1.516 . S
C3321 C3322 1.502 . S
C3321 C3323 1.561 . S
C3321 C3324 1.526 . S
C3322 H3306 0.959 . S
C3322 H3307 0.959 . S
C3322 H3308 0.961 . S
C3322 C3321 1.502 . S
C3323 H3309 0.960 . S
C3323 H3310 0.961 . S
C3323 H3311 0.959 . S
C3323 C3321 1.561 . S
C3324 C3321 1.526 . S
C3324 C3325 1.396 . S
C3324 C3329 1.390 . S
C3325 C3319 1.465 1_554 S
C3325 C3324 1.396 . S
C3325 C3326 1.399 1_554 S
C3326 H3312 0.929 . S
C3326 C3325 1.399 1_556 S
C3326 C3327 1.385 1_556 S
C3327 H3313 0.931 1_554 S
C3327 C3326 1.385 1_554 S
C3327 C3328 1.389 . S
C3328 C3327 1.389 . S
C3328 C3329 1.387 . S
C3329 H3314 0.930 . S
C3329 C3324 1.390 . S
C3329 C3328 1.387 . S
H3330 C3342 0.930 . S
H3331 C3344 0.930 . S
H3332 C3345 0.930 . S
H3333 C3349 0.959 . S
H3334 C3349 0.959 . S
H3335 C3349 0.961 . S
H3336 C3350 0.960 . S
H3337 C3350 0.961 . S
H3338 C3350 0.959 . S
H3339 C3353 0.929 . S
H3340 C3354 0.931 . S
H3341 C3356 0.930 . S
C3342 H3330 0.930 . S
C3342 C3343 1.399 . S
C3342 C3347 1.399 . S
C3343 C3342 1.399 . S
C3343 C3344 1.376 . S
C3344 H3331 0.930 . S
C3344 C3343 1.376 . S
C3344 C3345 1.388 . S
C3345 H3332 0.930 . S
C3345 C3344 1.388 . S
C3345 C3346 1.390 . S
C3346 C3345 1.390 . S
C3346 C3347 1.394 . S
C3346 C3352 1.465 . S
C3347 C3342 1.399 . S
C3347 C3346 1.394 . S
C3347 C3348 1.516 . S
C3348 C3347 1.516 . S
C3348 C3349 1.502 . S
C3348 C3350 1.561 . S
C3348 C3351 1.526 . S
C3349 H3333 0.959 . S
C3349 H3334 0.959 . S
C3349 H3335 0.961 . S
C3349 C3348 1.502 . S
C3350 H3336 0.960 . S
C3350 H3337 0.961 . S
C3350 H3338 0.959 . S
C3350 C3348 1.561 . S
C3351 C3348 1.526 . S
C3351 C3352 1.396 . S
C3351 C3356 1.390 . S
C3352 C3346 1.465 . S
C3352 C3351 1.396 . S
C3352 C3353 1.399 . S
C3353 H3339 0.929 . S
C3353 C3352 1.399 . S
C3353 C3354 1.385 . S
C3354 H3340 0.931 . S
C3354 C3353 1.385 . S
C3354 C3355 1.389 . S
C3355 C3354 1.389 . S
C3355 C3356 1.387 . S
C3356 H3341 0.930 . S
C3356 C3351 1.390 . S
C3356 C3355 1.387 . S
H3357 C3369 0.930 . S
H3358 C3371 0.930 . S
H3359 C3372 0.930 . S
H3360 C3376 0.959 . S
H3361 C3376 0.959 . S
H3362 C3376 0.961 . S
H3363 C3377 0.960 . S
H3364 C3377 0.961 . S
H3365 C3377 0.959 . S
H3366 C3380 0.929 . S
H3367 C3381 0.931 . S
H3368 C3383 0.930 . S
C3369 H3357 0.930 . S
C3369 C3370 1.399 . S
C3369 C3374 1.399 . S
C3370 C3369 1.399 . S
C3370 C3371 1.376 . S
C3371 H3358 0.930 . S
C3371 C3370 1.376 . S
C3371 C3372 1.388 . S
C3372 H3359 0.930 . S
C3372 C3371 1.388 . S
C3372 C3373 1.390 . S
C3373 C3372 1.390 . S
C3373 C3374 1.394 . S
C3373 C3379 1.465 . S
C3374 C3369 1.399 . S
C3374 C3373 1.394 . S
C3374 C3375 1.516 . S
C3375 C3374 1.516 . S
C3375 C3376 1.502 . S
C3375 C3377 1.561 . S
C3375 C3378 1.526 . S
C3376 H3360 0.959 . S
C3376 H3361 0.959 . S
C3376 H3362 0.961 . S
C3376 C3375 1.502 . S
C3377 H3363 0.960 . S
C3377 H3364 0.961 . S
C3377 H3365 0.959 . S
C3377 C3375 1.561 . S
C3378 C3375 1.526 . S
C3378 C3379 1.396 . S
C3378 C3383 1.390 . S
C3379 C3373 1.465 . S
C3379 C3378 1.396 . S
C3379 C3380 1.399 . S
C3380 H3366 0.929 . S
C3380 C3379 1.399 . S
C3380 C3381 1.385 . S
C3381 H3367 0.931 . S
C3381 C3380 1.385 . S
C3381 C3382 1.389 . S
C3382 C3381 1.389 . S
C3382 C3383 1.387 . S
C3383 H3368 0.930 . S
C3383 C3378 1.390 . S
C3383 C3382 1.387 . S
C817 C313 1.959 . S
C805 C10 1.964 . S
C832 C23 1.173 . S
C844 C358 1.182 . S
C859 C36 1.881 . S
C871 C382 1.871 . S
C898 N408 1.167 . S
C886 C42 1.156 . S
C913 C18 1.220 . S
C925 N438 1.240 1_455 S
C952 C472 1.798 . S
C940 C31 1.810 . S
C979 C508 1.356 1_556 S
C967 C43 1.342 . S
C994 C5 1.937 . S
C1006 C532 1.902 . S
C1021 C56 1.085 . S
C1033 N326 1.103 1_545 S
C1048 C70 1.234 . S
C1060 N348 1.260 . S
C1087 C388 1.214 . S
C1075 C82 1.239 . S
C1114 C412 1.960 . S
C1102 C96 1.977 . S
C1129 C57 1.412 . S
C1141 C442 1.356 . S
C1168 C478 1.283 . S
C1156 C69 1.300 . S
C1195 N498 1.221 . S
C1183 C83 1.217 . S
C1222 C538 1.883 . S
C1210 C95 1.923 . S
C1249 C339 1.843 . S
C1237 C94 1.858 . S
C1276 C568 1.198 . S
C1264 C108 1.216 . S
C1291 C122 1.228 . S
C1303 N588 1.241 . S
C1330 C622 1.741 . S
C1318 C140 1.776 . S
C1345 C55 1.052 . S
C1357 N528 1.064 . S
C1384 N378 1.198 1_565 S
C1372 C68 1.186 . S
C1399 C121 1.298 . S
C1411 C658 1.293 . S
C1438 C682 1.221 . S
C1426 C153 1.278 . S
C1453 C161 1.653 . S
C1465 C322 1.622 1_556 S
C1492 C699 0.847 . S
C1480 C174 0.911 . S
C1507 C186 1.549 . S
C1519 C373 1.532 . S
C1534 C200 0.998 . S
C1546 N656 0.966 . S
C1573 N446 1.005 . S
C1561 C172 1.037 . S
C1600 C583 1.418 . S
C1588 C192 1.487 . S
C1627 C519 1.012 . S
C1615 C198 1.034 . S
C1654 C703 1.624 . S
C1642 C159 1.639 . S
C1681 N318 0.931 . S
C1669 C211 0.927 . S
C1696 C225 1.033 . S
C1708 N686 1.010 . S
C1735 C399 0.935 . S
C1723 C239 0.891 . S
C1750 C251 1.665 . S
C1762 C643 1.611 . S
C1777 C218 1.120 . S
C1789 C433 1.015 . S
C1804 C226 0.961 . S
C1816 C609 0.996 . S
C1843 N506 0.995 . S
C1831 C238 1.026 . S
C1858 C252 1.599 . S
C1870 C729 1.599 . S
C1885 C250 1.568 . S
C1897 C328 1.515 1_565 S
C1912 C264 0.892 . S
C1924 C579 0.836 . S
C1939 C276 1.037 . S
C1951 N476 1.018 . S
C1966 C290 1.451 . S
C1978 C613 1.466 . S
C2005 N716 0.889 . S
C1993 C213 0.881 1_565 S
C2032 N386 0.988 . S
C2020 C224 1.015 . S
C2059 C429 0.919 . S
C2047 C283 0.966 . S
C2086 C343 0.875 . S
C2074 C303 0.968 . S
C2101 C29 1.975 . S
C2113 C733 1.943 . S
C2140 C688 1.205 . S
C2128 C49 1.213 . S
C2167 C772 1.848 . S
C2155 C3 1.892 . S
C2182 C16 1.179 1_655 S
C2194 N648 1.173 . S
C2209 C44 1.253 . S
C2221 N558 1.237 1_556 S
C2248 C592 1.786 . S
C2236 C4 1.805 . S
C2275 C628 1.325 . S
C2263 C17 1.346 . S
C2302 C712 1.918 . S
C2290 C30 1.945 . S
C2329 N746 1.078 . S
C2317 C147 1.107 . S
C2344 C107 1.253 1_556 S
C2356 N678 1.251 . S
C2371 C127 1.214 . S
C2383 C778 1.234 1_655 S
C2410 C652 1.942 . S
C2398 C135 1.986 . S
C2437 C562 1.413 . S
C2425 C148 1.414 . S
C2452 C114 1.305 . S
C2464 C598 1.283 . S
C2491 N618 1.221 1_655 S
C2479 C120 1.223 . S
C2506 C134 1.925 . S
C2518 C718 1.895 . S
C2545 C759 1.835 . S
C2533 C133 1.862 . S
C2572 C448 1.182 . S
C2560 C75 1.175 . S
C2599 N468 1.241 . S
C2587 C81 1.221 1_565 S
C2614 C101 1.780 . S
C2626 C502 1.740 . S
C2653 N708 1.065 . S
C2641 C146 1.070 . S
C2668 C109 1.199 . S
C2680 N768 1.197 . S
C2707 C418 1.261 . S
C2695 C88 1.269 . S
C2734 C352 1.266 . S
C2722 C62 1.257 . S
C2749 C187 1.673 . S
C2761 C742 1.618 . S
C2788 C369 0.906 . S
C2776 C199 0.850 . S
C2815 C763 1.522 1_556 S
C2803 C160 1.548 . S
C2830 C173 0.972 . S
C2842 N416 0.958 . S
C2857 C205 1.011 . S
C2869 N566 0.997 . S
C2884 C166 1.479 . S
C2896 C463 1.428 . S
C2911 C179 0.992 . S
C2923 C639 1.030 . S
C2938 C185 1.657 . S
C2950 C523 1.591 . S
C2977 N738 0.926 . S
C2965 C302 0.931 . S
C2992 C270 0.996 . S
C3004 N356 1.020 . S
C3031 C789 0.876 . S
C3019 C278 0.929 . S
C3046 C296 1.673 . S
C3058 C403 1.608 . S
C3073 C309 1.123 . S
C3085 C553 1.025 . S
C3112 C489 0.972 . S
C3100 C263 0.990 . S
C3127 C277 0.966 . S
C3139 N626 1.004 . S
C3166 C549 1.585 . S
C3154 C289 1.613 . S
C3193 C748 1.519 . S
C3181 C291 1.567 . S
C3220 C459 0.847 . S
C3208 C231 0.871 . S
C3235 C237 0.980 . S
C3247 N596 1.017 . S
C3274 C493 1.452 1_565 S
C3262 C257 1.451 . S
C3301 N536 0.888 . S
C3289 C304 0.884 . S
C3316 C265 1.016 . S
C3328 N776 0.985 . S
C3355 C669 0.921 . S
C3343 C244 0.971 . S
C3382 C673 0.882 . S
C3370 C212 0.959 . S
