# Generated by pormake.
# Topology zzz, (3,6)-cn, num edge types: 1
# Building blocks:
#     Node 0, Type 0, BuildingBlock: WUSLED_clean_sbu_0, # of connection points: 3
#     Node 1, Type 0, BuildingBlock: WUSLED_clean_sbu_0, # of connection points: 3
#     Node 2, Type 0, BuildingBlock: WUSLED_clean_sbu_0, # of connection points: 3
#     Node 3, Type 0, BuildingBlock: WUSLED_clean_sbu_0, # of connection points: 3
#     Node 4, Type 0, BuildingBlock: WUSLED_clean_sbu_0, # of connection points: 3
#     Node 5, Type 0, BuildingBlock: WUSLED_clean_sbu_0, # of connection points: 3
#     Node 6, Type 0, BuildingBlock: WUSLED_clean_sbu_0, # of connection points: 3
#     Node 7, Type 0, BuildingBlock: WUSLED_clean_sbu_0, # of connection points: 3
#     Node 8, Type 1, BuildingBlock: INOVEN_clean_sbu_0, # of connection points: 6
#     Node 9, Type 1, BuildingBlock: INOVEN_clean_sbu_0, # of connection points: 6
#     Node 10, Type 1, BuildingBlock: INOVEN_clean_sbu_0, # of connection points: 6
#     Node 11, Type 1, BuildingBlock: INOVEN_clean_sbu_0, # of connection points: 6
#     Edge 12, Type (0, 1), BuildingBlock: AJUNOK_clean_linker_0, # of connection points: 2
#     Edge 13, Type (0, 1), BuildingBlock: AJUNOK_clean_linker_0, # of connection points: 2
#     Edge 14, Type (0, 1), BuildingBlock: AJUNOK_clean_linker_0, # of connection points: 2
#     Edge 15, Type (0, 1), BuildingBlock: AJUNOK_clean_linker_0, # of connection points: 2
#     Edge 16, Type (0, 1), BuildingBlock: AJUNOK_clean_linker_0, # of connection points: 2
#     Edge 17, Type (0, 1), BuildingBlock: AJUNOK_clean_linker_0, # of connection points: 2
#     Edge 18, Type (0, 1), BuildingBlock: AJUNOK_clean_linker_0, # of connection points: 2
#     Edge 19, Type (0, 1), BuildingBlock: AJUNOK_clean_linker_0, # of connection points: 2
#     Edge 20, Type (0, 1), BuildingBlock: AJUNOK_clean_linker_0, # of connection points: 2
#     Edge 21, Type (0, 1), BuildingBlock: AJUNOK_clean_linker_0, # of connection points: 2
#     Edge 22, Type (0, 1), BuildingBlock: AJUNOK_clean_linker_0, # of connection points: 2
#     Edge 23, Type (0, 1), BuildingBlock: AJUNOK_clean_linker_0, # of connection points: 2
#     Edge 24, Type (0, 1), BuildingBlock: AJUNOK_clean_linker_0, # of connection points: 2
#     Edge 25, Type (0, 1), BuildingBlock: AJUNOK_clean_linker_0, # of connection points: 2
#     Edge 26, Type (0, 1), BuildingBlock: AJUNOK_clean_linker_0, # of connection points: 2
#     Edge 27, Type (0, 1), BuildingBlock: AJUNOK_clean_linker_0, # of connection points: 2
#     Edge 28, Type (0, 1), BuildingBlock: AJUNOK_clean_linker_0, # of connection points: 2
#     Edge 29, Type (0, 1), BuildingBlock: AJUNOK_clean_linker_0, # of connection points: 2
#     Edge 30, Type (0, 1), BuildingBlock: AJUNOK_clean_linker_0, # of connection points: 2
#     Edge 31, Type (0, 1), BuildingBlock: AJUNOK_clean_linker_0, # of connection points: 2
#     Edge 32, Type (0, 1), BuildingBlock: AJUNOK_clean_linker_0, # of connection points: 2
#     Edge 33, Type (0, 1), BuildingBlock: AJUNOK_clean_linker_0, # of connection points: 2
#     Edge 34, Type (0, 1), BuildingBlock: AJUNOK_clean_linker_0, # of connection points: 2
#     Edge 35, Type (0, 1), BuildingBlock: AJUNOK_clean_linker_0, # of connection points: 2
# Relax obj value: 0.440
# Max RMSD: 0.259
# Mean RMSD: 0.247
data_MOF--net-zzz--node1-WUSLED_clean_sbu_0--node2-INOVEN_clean_sbu_0--edge1-AJUNOK_clean_linker_0
_symmetry_space_group_name_H-M    P1
_symmetry_Int_Tables_number       1
_symmetry_cell_setting            triclinic
loop_
_symmetry_equiv_pos_as_xyz
'x, y, z'
_cell_length_a     50.899882
_cell_length_b     50.943835
_cell_length_c     15.780194
_cell_angle_alpha  90.218443
_cell_angle_beta   90.038169
_cell_angle_gamma 90.039254
loop_
_atom_site_label
_atom_site_type_symbol
_atom_site_fract_x
_atom_site_fract_y
_atom_site_fract_z
_atom_type_partial_charge
C0 C 0.80513 0.533 0.45426 0.0
C1 C 0.81038 0.51071 0.50422 0.0
C2 C 0.85578 0.52532 0.52911 0.0
C3 C 0.8354 0.50688 0.54086 0.0
C4 C 0.85041 0.54738 0.4784 0.0
C5 C 0.82557 0.55116 0.44186 0.0
U6 U 0.74242 0.52009 0.31464 0.0
O7 O 0.72242 0.54988 0.23714 0.0
O8 O 0.70027 0.52876 0.33435 0.0
C9 C 0.69925 0.54526 0.27037 0.0
C10 C 0.77843 0.53907 0.41922 0.0
C11 C 0.67741 0.54221 0.20829 0.0
C12 C 0.6497 0.51578 0.11419 0.0
C13 C 0.66939 0.51758 0.17683 0.0
C14 C 0.64567 0.56305 0.11404 0.0
C15 C 0.63789 0.53856 0.08088 0.0
C16 C 0.66513 0.56482 0.17674 0.0
C17 C 0.77754 0.45902 0.24628 0.0
C18 C 0.81216 0.43873 0.16418 0.0
C19 C 0.82064 0.45269 0.30866 0.0
C20 C 0.79456 0.46084 0.31615 0.0
C21 C 0.83005 0.44326 0.23059 0.0
C22 C 0.78604 0.44657 0.17206 0.0
C23 C 0.75378 0.47513 0.24292 0.0
O24 O 0.77725 0.54491 0.33826 0.0
O25 O 0.75831 0.52484 0.44441 0.0
O26 O 0.7576 0.49788 0.20608 0.0
O27 O 0.74002 0.47689 0.31327 0.0
H28 H 0.79514 0.49631 0.51556 0.0
H29 H 0.83881 0.48935 0.57781 0.0
H30 H 0.86539 0.56214 0.46804 0.0
H31 H 0.82219 0.56867 0.4047 0.0
H32 H 0.64424 0.49661 0.09 0.0
H33 H 0.67863 0.49981 0.19961 0.0
H34 H 0.6368 0.58094 0.09115 0.0
H35 H 0.6709 0.58404 0.19982 0.0
H36 H 0.81884 0.43153 0.10321 0.0
H37 H 0.8339 0.45581 0.36148 0.0
H38 H 0.78833 0.47049 0.37401 0.0
H39 H 0.77319 0.44518 0.11744 0.0
C40 C 1.00295 0.80611 0.45137 0.0
C41 C 0.02493 0.81139 0.50324 0.0
C42 C 1.01044 0.8569 0.52627 0.0
C43 C 0.02866 0.83646 0.53992 0.0
C44 C 0.98872 0.85153 0.47354 0.0
C45 C 0.98502 0.82661 0.43705 0.0
U46 U 1.01556 0.74364 0.31016 0.0
O47 O 0.98563 0.72261 0.23501 0.0
O48 O 1.00816 0.70135 0.33097 0.0
C49 C 0.99115 0.69968 0.26824 0.0
C50 C 0.99692 0.77926 0.41681 0.0
C51 C 0.99407 0.67757 0.20665 0.0
C52 C 0.9731 0.64583 0.1117 0.0
C53 C 0.97136 0.66613 0.17182 0.0
C54 C 0.02047 0.6476 0.12007 0.0
C55 C 0.99764 0.63621 0.08469 0.0
C56 C 0.01872 0.66806 0.18025 0.0
C57 C 0.07508 0.78038 0.23749 0.0
C58 C 0.09476 0.81521 0.15535 0.0
C59 C 0.0813 0.82349 0.30034 0.0
C60 C 0.07333 0.79737 0.30758 0.0
C61 C 0.09051 0.83301 0.22233 0.0
C62 C 0.08708 0.78906 0.16296 0.0
C63 C 0.05953 0.75621 0.23484 0.0
O64 O 0.99017 0.77785 0.3365 0.0
O65 O 1.01177 0.75944 0.44046 0.0
O66 O 0.03634 0.75942 0.19994 0.0
O67 O 0.0588 0.74236 0.30499 0.0
H68 H 0.03916 0.79614 0.51613 0.0
H69 H 0.04594 0.83986 0.57845 0.0
H70 H 0.97413 0.86654 0.46163 0.0
H71 H 0.96772 0.82325 0.39846 0.0
H72 H 0.9551 0.63757 0.08634 0.0
H73 H 0.95212 0.67306 0.1908 0.0
H74 H 0.03973 0.64114 0.09973 0.0
H75 H 0.03659 0.67664 0.20531 0.0
H76 H 0.10174 0.82197 0.09437 0.0
H77 H 0.07839 0.83666 0.35357 0.0
H78 H 0.06398 0.79102 0.36565 0.0
H79 H 0.08839 0.77624 0.10815 0.0
C80 C 0.73279 0.02347 0.46985 0.0
C81 C 0.71755 0.04624 0.48196 0.0
C82 C 0.68135 0.02069 0.54231 0.0
C83 C 0.69229 0.0449 0.51803 0.0
C84 C 0.69659 0.99789 0.53032 0.0
C85 C 0.722 0.99927 0.49537 0.0
U86 U 0.78804 1.00733 0.30654 0.0
O87 O 0.83062 0.99975 0.32262 0.0
O88 O 0.81739 0.03397 0.25088 0.0
C89 C 0.83754 0.01958 0.27432 0.0
C90 C 0.76019 0.0257 0.43527 0.0
C91 C 0.85801 1.01449 0.20855 0.0
C92 C 0.90443 1.01397 0.16809 0.0
C93 C 0.88472 0.01705 0.22978 0.0
C94 C 0.87115 1.00556 0.06215 0.0
C95 C 0.89802 1.00817 0.08314 0.0
C96 C 0.85144 1.00859 0.12401 0.0
C97 C 0.73349 0.96956 0.20689 0.0
C98 C 0.69167 0.97174 0.13412 0.0
C99 C 0.69278 0.96932 0.28741 0.0
C100 C 0.72018 0.96783 0.28468 0.0
C101 C 0.67842 0.97272 0.21231 0.0
C102 C 0.71903 0.97022 0.13149 0.0
C103 C 0.7615 0.97654 0.20489 0.0
O104 O 0.77543 1.0049 0.44017 0.0
O105 O 0.76294 0.03824 0.36313 0.0
O106 O 0.76564 1.0015 0.18909 0.0
O107 O 0.77603 0.96752 0.26733 0.0
H108 H 0.7253 0.06524 0.46408 0.0
H109 H 0.68113 0.06284 0.52594 0.0
H110 H 0.68902 0.97894 0.54933 0.0
H111 H 0.73323 0.98134 0.48907 0.0
H112 H 0.92478 0.0161 0.18707 0.0
H113 H 0.89039 0.02179 0.29426 0.0
H114 H 0.86526 1.00182 0.9973 0.0
H115 H 0.83103 1.00676 0.10543 0.0
H116 H 0.68111 0.97444 0.07517 0.0
H117 H 0.68301 0.96955 0.34837 0.0
H118 H 0.731 0.96723 0.34361 0.0
H119 H 0.72894 0.97176 0.07095 0.0
C120 C 0.52069 0.72937 0.45314 0.0
C121 C 0.5117 0.70802 0.40389 0.0
C122 C 0.52281 0.6768 0.51649 0.0
C123 C 0.51264 0.6822 0.43525 0.0
C124 C 0.53194 0.69814 0.56537 0.0
C125 C 0.53087 0.72398 0.53423 0.0
U126 U 0.53636 0.78827 0.30452 0.0
O127 O 0.50891 0.81726 0.25175 0.0
O128 O 0.54206 0.83077 0.32904 0.0
C129 C 0.52248 0.83755 0.27921 0.0
C130 C 0.51771 0.75728 0.42429 0.0
C131 C 0.5276 0.8587 0.21618 0.0
C132 C 0.52949 0.9055 0.18279 0.0
C133 C 0.52698 0.88511 0.24205 0.0
C134 C 0.53386 0.87348 0.07029 0.0
C135 C 0.53244 0.90002 0.09567 0.0
C136 C 0.53146 0.8531 0.12968 0.0
C137 C 0.57717 0.7374 0.19939 0.0
C138 C 0.57828 0.69759 0.11538 0.0
C139 C 0.57523 0.69494 0.26841 0.0
C140 C 0.57618 0.72227 0.27359 0.0
C141 C 0.57486 0.68242 0.18894 0.0
C142 C 0.57955 0.72489 0.12071 0.0
C143 C 0.56929 0.76505 0.20196 0.0
O144 O 0.5379 0.77306 0.43575 0.0
O145 O 0.50584 0.76123 0.35139 0.0
O146 O 0.54437 0.76853 0.18355 0.0
O147 O 0.57705 0.77858 0.26859 0.0
H148 H 0.50344 0.71123 0.34153 0.0
H149 H 0.50471 0.66651 0.3965 0.0
H150 H 0.53994 0.69486 0.62807 0.0
H151 H 0.5377 0.73988 0.57435 0.0
H152 H 0.52899 0.92559 0.2053 0.0
H153 H 0.52409 0.89004 0.30826 0.0
H154 H 0.53609 0.86843 1.00394 0.0
H155 H 0.53206 0.83294 0.10766 0.0
H156 H 0.57737 0.68869 0.05303 0.0
H157 H 0.57257 0.68374 0.32603 0.0
H158 H 0.57392 0.73154 0.33506 0.0
H159 H 0.57988 0.73627 0.06283 0.0
C160 C 0.22915 0.50228 0.99293 0.0
C161 C 0.2084 0.51301 0.04077 0.0
C162 C 0.17863 0.51056 0.91836 0.0
C163 C 0.18352 0.51711 1.00397 0.0
C164 C 0.19961 0.50028 0.87045 0.0
C165 C 0.22446 0.49625 0.90719 0.0
U166 U 0.29026 0.51419 0.13887 0.0
O167 O 0.33261 0.50542 0.12147 0.0
O168 O 0.30989 0.48479 0.21841 0.0
C169 C 0.33334 0.48969 0.18743 0.0
C170 C 0.25502 0.49519 0.03173 0.0
C171 C 0.35475 0.49411 0.2508 0.0
C172 C 0.40135 0.49201 0.28859 0.0
C173 C 0.38112 0.48974 0.22817 0.0
C174 C 0.3693 0.50311 0.3958 0.0
C175 C 0.39568 0.49855 0.37342 0.0
C176 C 0.34913 0.50107 0.33535 0.0
C177 C 0.25561 0.57625 0.20285 0.0
C178 C 0.2229 0.59998 0.28363 0.0
C179 C 0.21159 0.58142 0.14667 0.0
C180 C 0.23737 0.57257 0.13715 0.0
C181 C 0.2038 0.59384 0.22224 0.0
C182 C 0.24868 0.59122 0.27388 0.0
C183 C 0.27904 0.55971 0.20731 0.0
O184 O 0.27574 0.50868 1.00756 0.0
O185 O 0.25522 0.48999 0.11329 0.0
O186 O 0.29286 0.55739 0.13729 0.0
O187 O 0.27474 0.5372 0.24511 0.0
H188 H 0.21122 0.5178 0.10707 0.0
H189 H 0.16797 0.52518 0.043 0.0
H190 H 0.19661 0.49439 0.80519 0.0
H191 H 0.23991 0.48767 0.86891 0.0
H192 H 0.42138 0.48799 0.26941 0.0
H193 H 0.38606 0.48412 0.16386 0.0
H194 H 0.36425 0.50832 0.46039 0.0
H195 H 0.32908 0.50462 0.35524 0.0
H196 H 0.21743 0.60906 0.34322 0.0
H197 H 0.19724 0.57647 0.09844 0.0
H198 H 0.24239 0.56088 0.082 0.0
H199 H 0.26248 0.59398 0.32547 0.0
C200 C 0.02937 0.23289 0.97401 0.0
C201 C 0.02033 0.21176 0.02331 0.0
C202 C 0.02279 0.18174 0.90122 0.0
C203 C 0.01708 0.18662 0.98734 0.0
C204 C 0.03135 0.20307 0.85176 0.0
C205 C 0.03454 0.22824 0.88765 0.0
U206 U 0.01712 0.29238 0.12679 0.0
O207 O 0.02209 0.33539 0.11101 0.0
O208 O 0.04706 0.31387 0.19979 0.0
C209 C 0.03952 0.33702 0.17252 0.0
C210 C 0.03557 0.2592 0.0119 0.0
C211 C 0.03543 0.35772 0.23885 0.0
C212 C 0.03519 0.40418 0.27981 0.0
C213 C 0.03641 0.38448 0.21704 0.0
C214 C 0.03141 0.37087 0.38763 0.0
C215 C 0.0333 0.39763 0.36623 0.0
C216 C 0.03244 0.35122 0.325 0.0
C217 C 0.95932 0.25309 0.20415 0.0
C218 C 0.93906 0.21857 0.28613 0.0
C219 C 0.95288 0.21 0.14164 0.0
C220 C 0.96108 0.23605 0.13426 0.0
C221 C 0.94326 0.2007 0.2194 0.0
C222 C 0.9471 0.24461 0.27852 0.0
C223 C 0.97461 0.2774 0.2064 0.0
O224 O 0.0198 0.27881 0.99332 0.0
O225 O 0.04318 0.25958 0.09155 0.0
O226 O 0.97397 0.29188 0.13763 0.0
O227 O 0.99838 0.2743 0.23712 0.0
H228 H 1.01624 0.21452 0.09009 0.0
H229 H 1.0103 0.17081 0.02725 0.0
H230 H 0.03652 0.20018 0.78586 0.0
H231 H 0.04181 0.244 0.84815 0.0
H232 H 0.03659 0.42455 0.26092 0.0
H233 H 0.03874 0.39016 0.15139 0.0
H234 H 0.02931 0.36507 0.45324 0.0
H235 H 0.03139 0.33088 0.34443 0.0
H236 H 0.9318 0.21193 0.34692 0.0
H237 H 0.95592 0.19669 0.08884 0.0
H238 H 0.97055 0.24231 0.07627 0.0
H239 H 0.94574 0.25751 0.33311 0.0
C240 C 0.30611 0.03564 0.99214 0.0
C241 C 0.32639 0.0242 0.04011 0.0
C242 C 0.35748 0.0284 0.92158 0.0
C243 C 0.35161 0.02055 1.00511 0.0
C244 C 0.337 0.03958 0.87356 0.0
C245 C 0.31174 0.04305 0.90826 0.0
U246 U 0.24489 0.02314 0.13813 0.0
O247 O 0.20241 0.02956 0.11711 0.0
O248 O 0.22329 0.05284 0.21264 0.0
C249 C 0.20041 0.04665 0.17956 0.0
C250 C 0.27969 0.04187 0.02909 0.0
C251 C 0.17834 0.04331 0.24102 0.0
C252 C 0.14577 0.06362 0.33437 0.0
C253 C 0.1662 0.06576 0.27501 0.0
C254 C 0.14879 0.01635 0.32701 0.0
C255 C 0.1367 0.03892 0.36156 0.0
C256 C 0.16938 0.01851 0.26754 0.0
C257 C 0.28205 0.96395 0.21415 0.0
C258 C 0.31612 0.9439 0.29896 0.0
C259 C 0.32551 0.95731 0.15486 0.0
C260 C 0.29949 0.96547 0.14542 0.0
C261 C 0.33437 0.94796 0.2335 0.0
C262 C 0.29011 0.9519 0.28931 0.0
C263 C 0.25795 0.9796 0.21492 0.0
O264 O 0.25984 0.02681 1.00669 0.0
O265 O 0.27892 0.04846 0.10969 0.0
O266 O 0.26117 1.00298 0.24872 0.0
O267 O 0.24421 0.97993 0.14431 0.0
H268 H 0.32289 0.01843 0.1051 0.0
H269 H 0.36671 1.01166 0.04358 0.0
H270 H 0.34066 0.04647 0.80985 0.0
H271 H 0.29668 0.05221 0.86991 0.0
H272 H 0.13699 0.08145 0.359 0.0
H273 H 0.17266 0.08512 0.25589 0.0
H274 H 0.1428 0.99699 0.34747 0.0
H275 H 0.17846 1.00082 0.24307 0.0
H276 H 0.32244 0.93683 0.36034 0.0
H277 H 0.33913 0.96023 0.10303 0.0
H278 H 0.29359 0.97481 0.08685 0.0
H279 H 0.27692 0.95075 0.34306 0.0
C280 C 0.52178 0.30884 1.00742 0.0
C281 C 0.49758 0.31901 0.9791 0.0
C282 C 0.51859 0.36012 0.93614 0.0
C283 C 0.49596 0.34446 0.94506 0.0
C284 C 0.5428 0.34979 0.96291 0.0
C285 C 0.54433 0.3246 0.99861 0.0
U286 U 0.50476 0.25306 0.16677 0.0
O287 O 0.53257 0.22604 0.22886 0.0
O288 O 0.50069 0.21013 0.15062 0.0
C289 C 0.52015 0.20487 0.20291 0.0
C290 C 0.5244 0.28169 0.04255 0.0
C291 C 0.51613 0.18392 0.26759 0.0
C292 C 0.53547 0.1514 0.36265 0.0
C293 C 0.53823 0.17166 0.30331 0.0
C294 C 0.48824 0.15487 0.35186 0.0
C295 C 0.51045 0.14274 0.3883 0.0
C296 C 0.49103 0.17524 0.29241 0.0
C297 C 0.46148 0.30516 0.25547 0.0
C298 C 0.46026 0.34742 0.32621 0.0
C299 C 0.46146 0.34533 0.17285 0.0
C300 C 0.46082 0.31795 0.17679 0.0
C301 C 0.46255 0.36025 0.2477 0.0
C302 C 0.45978 0.32004 0.33001 0.0
C303 C 0.47021 0.27769 0.26038 0.0
O304 O 0.53539 0.27975 0.11765 0.0
O305 O 0.50447 0.26548 0.03276 0.0
O306 O 0.46349 0.26237 0.19662 0.0
O307 O 0.49502 0.2753 0.28197 0.0
H308 H 0.4799 0.30727 0.98242 0.0
H309 H 0.47706 0.35174 0.92415 0.0
H310 H 0.56058 0.36134 0.95689 0.0
H311 H 0.56332 0.31728 0.01869 0.0
H312 H 0.55301 0.14272 0.38946 0.0
H313 H 0.55782 0.17778 0.2851 0.0
H314 H 0.46865 0.14843 0.36855 0.0
H315 H 0.47356 0.18408 0.26569 0.0
H316 H 0.46155 0.35835 0.38507 0.0
H317 H 0.46321 0.35475 0.11167 0.0
H318 H 0.462 0.30679 0.11858 0.0
H319 H 0.46053 0.31055 0.39131 0.0
Gd320 Gd 0.03749 1.01302 0.78276 0.0
Gd321 Gd 0.99744 0.02335 0.66254 0.0
C322 C 0.01657 0.96441 0.66779 0.0
C323 C 0.06836 0.99883 0.9052 0.0
C324 C 0.07294 0.97638 0.96058 0.0
C325 C 0.0953 0.97599 0.01247 0.0
C326 C 0.05483 0.95571 0.96394 0.0
C327 C 0.08128 0.93446 0.072 0.0
C328 C 0.05899 0.93486 0.0193 0.0
C329 C 0.09954 0.95505 0.06769 0.0
C330 C 0.05807 0.0321 0.63508 0.0
C331 C 0.01965 0.07254 0.77166 0.0
C332 C 0.96499 0.03682 0.54354 0.0
C333 C 0.96 0.05888 0.48724 0.0
C334 C 0.93812 0.05831 0.43319 0.0
C335 C 0.97734 0.08018 0.48531 0.0
C336 C 0.95126 0.10012 0.37395 0.0
C337 C 0.97295 0.10072 0.42916 0.0
C338 C 0.93367 0.07894 0.37693 0.0
C339 C 0.97743 1.00453 0.81163 0.0
O340 O 0.02605 0.97101 0.74324 0.0
O341 O 1.00688 0.98272 0.61856 0.0
O342 O 0.0741 0.99562 0.82526 0.0
O343 O 0.04614 1.01108 0.91657 0.0
O344 O 0.06503 0.03945 0.71037 0.0
O345 O 0.03985 1.01533 0.64127 0.0
O346 O 1.00951 0.06538 0.6977 0.0
O347 O 0.02943 0.05455 0.82221 0.0
O348 O 0.96051 0.04084 0.62391 0.0
O349 O 0.9869 0.02425 0.52998 0.0
O350 O 0.97073 0.99643 0.73696 0.0
O351 O 0.99532 0.02153 0.80382 0.0
H352 H 0.10941 0.99191 1.01044 0.0
H353 H 0.03751 0.95574 0.92395 0.0
H354 H 0.04498 0.91884 0.02005 0.0
H355 H 0.11694 0.95497 0.10727 0.0
H356 H 0.92462 0.04186 0.43419 0.0
H357 H 0.99428 0.08084 0.52687 0.0
H358 H 0.9864 0.11722 0.42934 0.0
H359 H 0.91674 0.07826 0.33532 0.0
Gd360 Gd 0.52616 0.03977 0.80191 0.0
Gd361 Gd 0.51417 1.00136 0.67912 0.0
C362 C 0.57354 0.01807 0.68075 0.0
C363 C 0.54484 0.06452 0.93225 0.0
C364 C 0.555 0.054 0.01223 0.0
C365 C 0.57754 0.06514 0.04809 0.0
C366 C 0.54567 0.02986 0.04282 0.0
C367 C 0.58392 0.02602 0.13386 0.0
C368 C 0.55999 0.01598 0.10339 0.0
C369 C 0.59194 0.05126 0.10836 0.0
C370 C 0.50823 0.06345 0.65791 0.0
C371 C 0.46679 0.02236 0.79398 0.0
C372 C 0.49876 0.9695 0.56045 0.0
C373 C 0.47654 0.96476 0.50422 0.0
C374 C 0.47674 0.94274 0.45066 0.0
C375 C 0.45545 0.98232 0.50209 0.0
C376 C 0.43493 0.9561 0.39152 0.0
C377 C 0.43471 0.97796 0.44624 0.0
C378 C 0.45593 0.93834 0.39467 0.0
C379 C 0.53284 0.97983 0.82681 0.0
O380 O 0.56748 0.02794 0.75608 0.0
O381 O 0.55478 1.00881 0.63229 0.0
O382 O 0.5589 0.05837 0.86616 0.0
O383 O 0.51974 0.0617 0.91846 0.0
O384 O 0.50332 0.07111 0.73435 0.0
O385 O 0.52347 0.04386 0.66076 0.0
O386 O 0.4731 1.01549 0.71564 0.0
O387 O 0.48581 0.02836 0.8473 0.0
O388 O 0.49477 0.96531 0.64089 0.0
O389 O 0.51194 0.99101 0.54642 0.0
O390 O 0.54065 0.97338 0.75166 0.0
O391 O 0.51636 0.9981 0.82014 0.0
H392 H 0.58522 0.08355 0.02438 0.0
H393 H 0.52841 0.02085 0.0153 0.0
H394 H 0.55338 0.99659 0.12164 0.0
H395 H 0.61061 0.0593 0.12877 0.0
H396 H 0.49303 0.92906 0.45187 0.0
H397 H 0.45509 0.99937 0.54333 0.0
H398 H 0.41835 0.99156 0.44628 0.0
H399 H 0.45633 0.9213 0.3534 0.0
Gd400 Gd 0.50078 0.52542 0.78343 0.0
Gd401 Gd 0.53686 0.50988 0.65974 0.0
C402 C 0.52154 0.56897 0.65368 0.0
C403 C 0.47689 0.54759 0.90906 0.0
C404 C 0.48828 0.55916 0.98581 0.0
C405 C 0.47843 0.58304 0.01598 0.0
C406 C 0.51213 0.54945 0.01784 0.0
C407 C 0.51848 0.58976 0.09721 0.0
C408 C 0.52707 0.56459 0.07377 0.0
C409 C 0.49342 0.59825 0.07149 0.0
C410 C 0.47504 0.50627 0.64316 0.0
C411 C 0.51633 0.46629 0.79097 0.0
C412 C 0.56096 0.48799 0.53349 0.0
C413 C 0.55076 0.4778 0.45274 0.0
C414 C 0.55869 0.45289 0.42539 0.0
C415 C 0.52952 0.49018 0.41237 0.0
C416 C 0.52104 0.45064 0.33062 0.0
C417 C 0.51472 0.47669 0.35158 0.0
C418 C 0.544 0.43943 0.3646 0.0
C419 C 0.56237 0.5294 0.79989 0.0
O420 O 0.51644 0.56464 0.73452 0.0
O421 O 0.52528 0.5486 0.60391 0.0
O422 O 0.48301 0.55994 0.83964 0.0
O423 O 0.47899 0.5222 0.90113 0.0
O424 O 0.46815 0.50221 0.72068 0.0
O425 O 0.49499 0.52092 0.64303 0.0
O426 O 0.52249 0.47048 0.71085 0.0
O427 O 0.51138 0.48656 0.84001 0.0
O428 O 0.55291 0.47512 0.59981 0.0
O429 O 0.56009 0.51333 0.54482 0.0
O430 O 0.56941 0.53321 0.72236 0.0
O431 O 0.54262 0.51447 0.80013 0.0
H432 H 0.4602 0.5909 0.99129 0.0
H433 H 0.52015 0.53106 0.99489 0.0
H434 H 0.5461 0.55742 0.09394 0.0
H435 H 0.48636 0.61764 0.08837 0.0
H436 H 0.57495 0.44299 0.456 0.0
H437 H 0.52331 0.50954 0.43205 0.0
H438 H 0.4974 0.48594 0.32526 0.0
H439 H 0.54931 0.41933 0.34998 0.0
Gd440 Gd 1.01089 0.49724 0.78792 0.0
Gd441 Gd 0.02272 0.53627 0.66385 0.0
C442 C 0.96313 0.51837 0.67046 0.0
C443 C 0.99597 0.46741 0.91173 0.0
C444 C 0.97326 0.4625 0.96588 0.0
C445 C 0.97309 0.44033 0.01822 0.0
C446 C 0.95218 0.48014 0.96806 0.0
C447 C 0.93107 0.45369 0.07631 0.0
C448 C 0.9312 0.47574 0.02294 0.0
C449 C 0.95202 0.43585 0.07292 0.0
C450 C 0.03047 0.47566 0.6421 0.0
C451 C 0.07066 0.51493 0.78059 0.0
C452 C 0.03752 0.5664 0.54061 0.0
C453 C 0.06075 0.57264 0.49031 0.0
C454 C 0.06005 0.5941 0.435 0.0
C455 C 0.0832 0.55685 0.49448 0.0
C456 C 0.10403 0.58366 0.38665 0.0
C457 C 0.10471 0.56232 0.44288 0.0
C458 C 0.08162 0.59963 0.38338 0.0
C459 C 1.00349 0.55763 0.8104 0.0
O460 O 0.96932 0.50905 0.74624 0.0
O461 O 0.98175 0.52752 0.62099 0.0
O462 O 0.99368 0.46077 0.83211 0.0
O463 O 1.00746 0.4901 0.92221 0.0
O464 O 0.03736 0.46905 0.71797 0.0
O465 O 1.01378 0.49398 0.64684 0.0
O466 O 0.06431 0.52489 0.70582 0.0
O467 O 0.05217 0.50529 0.82965 0.0
O468 O 0.03799 0.57361 0.62001 0.0
O469 O 0.02787 0.54289 0.52978 0.0
O470 O 0.99609 0.56419 0.73492 0.0
O471 O 0.02018 0.53937 0.80475 0.0
H472 H 0.98934 0.42659 0.01711 0.0
H473 H 0.95204 0.4973 0.92771 0.0
H474 H 0.9149 0.48942 0.02304 0.0
H475 H 0.95217 0.41864 0.11305 0.0
H476 H 0.0427 0.60635 0.43098 0.0
H477 H 0.08393 0.54017 0.53678 0.0
H478 H 0.12194 0.54989 0.44689 0.0
H479 H 0.08061 0.61602 0.33996 0.0
C480 C 0.11697 0.0532 0.50131 0.0
C481 C 0.11562 0.0371 0.42849 0.0
C482 C 0.09795 0.05182 0.56594 0.0
C483 C 0.07647 0.03439 0.56112 0.0
H484 H 0.13323 0.06668 0.50945 0.0
H485 H 0.10037 0.06437 0.62102 0.0
S486 S 0.06258 0.98898 0.38187 0.0
N487 N 0.09009 1.00386 0.35405 0.0
N488 N 0.05449 1.00128 0.4753 0.0
C489 C 0.07445 0.01857 0.48787 0.0
C490 C 0.09398 0.01986 0.422 0.0
C491 C 0.52364 0.09869 0.44971 0.0
C492 C 0.50787 0.12148 0.45386 0.0
C493 C 0.52287 0.07938 0.51362 0.0
C494 C 0.50648 0.08212 0.58501 0.0
H495 H 0.53693 0.09586 0.39691 0.0
H496 H 0.53584 0.0626 0.50824 0.0
S497 S 0.46067 0.13748 0.62583 0.0
N498 N 0.47492 0.14512 0.53527 0.0
N499 N 0.47327 0.10897 0.65402 0.0
C500 C 0.49007 0.10439 0.58871 0.0
C501 C 0.4908 0.12398 0.52368 0.0
C502 C 0.41411 0.48656 0.51656 0.0
C503 C 0.41693 0.50002 0.43926 0.0
C504 C 0.43333 0.48815 0.58058 0.0
C505 C 0.45612 0.50357 0.57089 0.0
H506 H 0.39689 0.47455 0.52758 0.0
H507 H 0.43009 0.47742 0.6388 0.0
S508 S 0.47237 0.5439 0.38235 0.0
N509 N 0.44423 0.52967 0.3573 0.0
N510 N 0.47983 0.53336 0.47824 0.0
C511 C 0.45919 0.51718 0.49388 0.0
C512 C 0.43977 0.51524 0.4281 0.0
C513 C 0.01735 0.4406 0.43038 0.0
C514 C 0.03393 0.41844 0.43419 0.0
C515 C 0.01685 0.45952 0.4962 0.0
C516 C 0.03304 0.45716 0.56838 0.0
H517 H 1.00411 0.44298 0.37722 0.0
H518 H 1.00318 0.47574 0.49138 0.0
S519 S 0.08237 0.40465 0.60433 0.0
N520 N 0.06858 0.39667 0.51309 0.0
N521 N 0.0677 0.4319 0.63569 0.0
C522 C 0.05048 0.4357 0.57104 0.0
C523 C 0.05088 0.41645 0.50447 0.0
C524 C 0.94017 0.02388 0.01355 0.0
C525 C 0.91919 1.00572 0.01658 0.0
C526 C 0.95948 0.0228 0.94938 0.0
C527 C 0.95872 1.00354 0.88501 0.0
H528 H 0.9413 0.03959 0.0598 0.0
H529 H 0.97466 0.03771 0.94884 0.0
S530 S 0.91004 0.94943 0.86897 0.0
N531 N 0.90054 0.96635 0.95299 0.0
N532 N 0.93633 0.96465 0.83241 0.0
C533 C 0.93848 0.9847 0.88903 0.0
C534 C 0.91889 0.98573 0.95446 0.0
C535 C 0.55179 0.92107 0.96435 0.0
C536 C 0.53335 0.92171 0.03108 0.0
C537 C 0.552 0.94035 0.90041 0.0
C538 C 0.53377 0.96115 0.89996 0.0
H539 H 0.56613 0.90542 0.96118 0.0
H540 H 0.56637 0.93867 0.85003 0.0
S541 S 0.48083 0.97168 0.05859 0.0
N542 N 0.49607 0.945 0.09152 0.0
N543 N 0.49648 0.98096 0.97215 0.0
C544 C 0.51544 0.96225 0.96687 0.0
C545 C 0.51524 0.94266 0.03204 0.0
C546 C 0.59629 0.52013 0.01485 0.0
C547 C 0.61823 0.53698 1.00993 0.0
C548 C 0.57786 0.5183 0.9481 0.0
C549 C 0.58075 0.53303 0.87315 0.0
H550 H 0.5933 0.50829 0.07086 0.0
H551 H 0.56153 0.50481 0.95463 0.0
S552 S 0.63474 0.57998 0.82806 0.0
N553 N 0.64168 0.56859 0.92329 0.0
N554 N 0.60721 0.56533 0.79905 0.0
C555 C 0.60246 0.55011 0.86791 0.0
C556 C 0.6211 0.55203 0.9358 0.0
C557 C 0.98349 0.61715 0.94376 0.0
C558 C 0.9991 0.61521 0.01736 0.0
C559 C 0.98462 0.59815 0.87878 0.0
C560 C 1.00129 0.57615 0.8842 0.0
H561 H 0.9706 0.63384 0.93534 0.0
H562 H 0.97251 0.60099 0.82305 0.0
S563 S 0.04503 0.56063 0.06577 0.0
N564 N 0.03094 0.5886 0.09324 0.0
N565 N 0.03307 0.55302 0.97147 0.0
C566 C 0.01658 0.57356 0.95828 0.0
C567 C 1.01554 0.59304 0.02442 0.0
C568 C 0.92136 0.16163 0.28387 0.0
C569 C 0.94251 0.17226 0.23793 0.0
C570 C 0.92344 0.13699 0.32244 0.0
C571 C 0.94676 0.12238 0.31641 0.0
H572 H 0.90379 0.17316 0.2946 0.0
H573 H 0.90748 0.13024 0.36222 0.0
S574 S 1.00631 0.1396 0.19404 0.0
N575 N 0.98654 0.165 0.18219 0.0
N576 N 0.98995 0.1184 0.25265 0.0
C577 C 0.96706 0.13167 0.26455 0.0
C578 C 0.96505 0.15671 0.22562 0.0
C579 C 0.37323 0.92629 0.30043 0.0
C580 C 0.36272 0.94736 0.25405 0.0
C581 C 0.39784 0.92838 0.33974 0.0
C582 C 0.41254 0.95166 0.33402 0.0
H583 H 0.36165 0.90873 0.31065 0.0
H584 H 0.40452 0.91246 0.37962 0.0
S585 S 0.39555 1.01112 0.21174 0.0
N586 N 0.37008 0.99139 0.19928 0.0
N587 N 0.41671 0.99474 0.2705 0.0
C588 C 0.40335 0.97191 0.28203 0.0
C589 C 0.37832 0.9699 0.24256 0.0
C590 C 0.49642 0.39278 0.20589 0.0
C591 C 0.47228 0.38764 0.246 0.0
C592 C 0.51098 0.41527 0.22592 0.0
C593 C 0.50194 0.43328 0.28695 0.0
H594 H 0.50535 0.37819 0.16493 0.0
H595 H 0.53047 0.41736 0.19918 0.0
S596 S 0.43729 0.43149 0.39557 0.0
N597 N 0.43783 0.40449 0.33741 0.0
N598 N 0.46538 0.44662 0.37685 0.0
C599 C 0.47641 0.42996 0.31959 0.0
C600 C 0.46156 0.40707 0.29888 0.0
C601 C 0.16118 0.57095 0.2406 0.0
C602 C 0.17573 0.5944 0.24649 0.0
C603 C 0.13721 0.56818 0.28258 0.0
C604 C 0.12685 0.58878 0.33149 0.0
H605 H 0.16922 0.55391 0.20852 0.0
H606 H 0.12728 0.54937 0.27993 0.0
S607 S 0.15526 0.65534 0.35715 0.0
N608 N 0.1766 0.63955 0.29684 0.0
N609 N 0.13139 0.63423 0.37667 0.0
C610 C 0.14007 0.61299 0.33257 0.0
C611 C 0.1646 0.61581 0.28991 0.0
C612 C 0.11158 0.87219 0.15573 0.0
C613 C 0.09099 0.86152 0.20418 0.0
C614 C 0.10913 0.89691 0.118 0.0
C615 C 0.08598 0.91164 0.1273 0.0
H616 H 0.129 0.86067 0.14263 0.0
H617 H 0.12467 0.90369 0.07661 0.0
S618 S 0.02813 0.89459 0.25834 0.0
N619 N 0.04787 0.86904 0.26688 0.0
N620 N 0.0437 0.91571 0.19719 0.0
C621 C 0.06628 0.90231 0.18152 0.0
C622 C 0.06871 0.87719 0.21993 0.0
C623 C 0.63257 0.97108 0.15638 0.0
C624 C 0.65075 0.98174 0.21411 0.0
C625 C 0.60916 0.98423 0.1376 0.0
C626 C 0.60316 1.00851 0.17592 0.0
H627 H 0.63744 0.95356 0.12057 0.0
H628 H 0.597 0.97651 0.08691 0.0
S629 S 0.64158 0.04195 0.34414 0.0
N630 N 0.65944 0.0161 0.31819 0.0
N631 N 0.61485 0.04019 0.28501 0.0
C632 C 0.61963 0.0177 0.24106 0.0
C633 C 0.64359 1.00445 0.25973 0.0
C634 C 0.54174 0.64821 0.22303 0.0
C635 C 0.56513 0.65509 0.1811 0.0
C636 C 0.52785 0.62552 0.20098 0.0
C637 C 0.53676 0.60897 0.13578 0.0
H638 H 0.53292 0.66148 0.26848 0.0
H639 H 0.50912 0.62183 0.23135 0.0
S640 S 0.59829 0.61682 0.01229 0.0
N641 N 0.5981 0.64211 0.07798 0.0
N642 N 0.57146 0.59989 0.03364 0.0
C643 C 0.56115 0.61452 0.0977 0.0
C644 C 0.57543 0.63753 0.12091 0.0
C645 C 0.86941 0.42265 0.16294 0.0
C646 C 0.85853 0.44319 0.21135 0.0
C647 C 0.89398 0.42542 0.12404 0.0
C648 C 0.90832 0.44888 0.13202 0.0
H649 H 0.85815 0.40497 0.15085 0.0
H650 H 0.90095 0.40984 0.0829 0.0
S651 S 0.89058 0.50692 0.26197 0.0
N652 N 0.86544 0.4867 0.27232 0.0
N653 N 0.9118 0.49152 0.20032 0.0
C654 C 0.89877 0.46862 0.18598 0.0
C655 C 0.87383 0.46584 0.22564 0.0
C656 C 0.03175 0.13305 0.91188 0.0
C657 C 0.0214 0.15421 0.86533 0.0
C658 C 0.03121 0.10714 0.88051 0.0
C659 C 0.02017 0.1008 0.8008 0.0
H660 H 0.04075 0.13654 0.97313 0.0
H661 H 0.03959 0.09192 0.91984 0.0
S662 S 0.98935 0.14866 0.65416 0.0
N663 N 0.99902 0.1668 0.73545 0.0
N664 N 0.99808 0.11825 0.67655 0.0
C665 C 1.0096 0.12173 0.75345 0.0
C666 C 1.01022 0.14827 0.78548 0.0
C667 C 0.40682 0.03332 0.93753 0.0
C668 C 0.38511 0.02612 0.88687 0.0
C669 C 0.43281 0.032 0.90686 0.0
C670 C 0.43863 0.02336 0.8238 0.0
H671 H 0.40373 0.04048 1.00141 0.0
H672 H 0.44852 0.03799 0.94914 0.0
S673 S 0.38926 1.00053 0.66626 0.0
N674 N 0.37154 1.00876 0.74988 0.0
N675 N 0.42012 1.00653 0.69232 0.0
C676 C 0.41716 1.01577 0.7726 0.0
C677 C 0.3906 0.01712 0.80394 0.0
C678 C 0.53194 0.39352 0.8261 0.0
C679 C 0.51709 0.38706 0.89849 0.0
C680 C 0.53107 0.41888 0.79042 0.0
C681 C 0.51584 0.43908 0.82691 0.0
H682 H 0.54424 0.37877 0.7965 0.0
H683 H 0.54291 0.42282 0.73488 0.0
S684 S 0.47343 0.43232 0.01738 0.0
N685 N 0.48641 0.40287 1.00452 0.0
N686 N 0.48539 0.45053 0.94004 0.0
C687 C 0.50095 0.43282 0.89954 0.0
C688 C 0.5014 0.40686 0.93455 0.0
C689 C 0.12955 0.50375 0.92766 0.0
C690 C 0.15137 0.51275 0.88123 0.0
C691 C 0.10392 0.50454 0.89422 0.0
C692 C 0.09857 0.51449 0.81253 0.0
H693 H 0.13231 0.49551 0.99014 0.0
H694 H 0.08812 0.49714 0.93349 0.0
S695 S 0.1485 0.54193 0.66578 0.0
N696 N 0.16568 0.53297 0.74967 0.0
N697 N 0.11764 0.53434 0.68693 0.0
C698 C 0.12016 0.52389 0.76555 0.0
C699 C 0.14641 0.52301 0.7997 0.0
C700 C 1.00909 0.90632 0.51488 0.0
C701 C 1.01384 0.88393 0.5647 0.0
C702 C 1.01042 0.93184 0.54893 0.0
C703 C 0.01658 0.93657 0.63498 0.0
H704 H 1.00421 0.90416 0.44841 0.0
H705 H 1.00642 0.94806 0.50669 0.0
S706 S 0.03103 0.88496 0.79382 0.0
N707 N 0.02517 0.86834 0.70565 0.0
N708 N 0.02795 0.9163 0.7692 0.0
C709 C 0.02192 0.91444 0.68556 0.0
C710 C 0.02052 0.88825 0.65066 0.0
C711 C 0.64643 0.0355 0.64738 0.0
C712 C 0.65406 0.01923 0.57902 0.0
C713 C 0.62076 0.03453 0.68175 0.0
C714 C 0.60137 0.01764 0.64816 0.0
H715 H 0.66048 0.04903 0.6749 0.0
H716 H 0.61595 0.04756 0.73387 0.0
S717 S 0.61112 0.97134 0.46767 0.0
N718 N 0.63996 0.98572 0.47928 0.0
N719 N 0.59203 0.98418 0.54149 0.0
C720 C 0.60885 1.00129 0.57961 0.0
C721 C 0.63502 1.00199 0.54581 0.0
C722 C 0.5149 0.6439 0.63449 0.0
C723 C 0.52329 0.64919 0.55095 0.0
C724 C 0.51457 0.61814 0.66735 0.0
C725 C 0.5226 0.59636 0.61835 0.0
H726 H 0.50807 0.65978 0.67454 0.0
H727 H 0.50765 0.61529 0.73161 0.0
S728 S 0.54854 0.59958 0.39831 0.0
N729 N 0.54153 0.63036 0.42219 0.0
N730 N 0.54048 0.58228 0.48258 0.0
C731 C 0.53147 0.60144 0.53519 0.0
C732 C 0.5319 0.62766 0.50197 0.0
C733 C 0.90521 0.52708 0.51814 0.0
C734 C 0.88276 0.5218 0.56738 0.0
C735 C 0.9307 0.52561 0.55221 0.0
C736 C 0.93532 0.51877 0.63759 0.0
H737 H 0.90313 0.53244 0.4522 0.0
H738 H 0.94699 0.53004 0.51043 0.0
S739 S 0.88345 0.50284 0.7947 0.0
N740 N 0.86695 0.50933 0.70704 0.0
N741 N 0.91485 0.50625 0.77058 0.0
C742 C 0.9131 0.51296 0.68757 0.0
C743 C 0.88695 0.51451 0.65267 0.0
loop_
_geom_bond_atom_site_label_1
_geom_bond_atom_site_label_2
_geom_bond_distance
_geom_bond_site_symmetry_2
_ccdc_geom_bond_type
C0 C1 1.264 . S
C0 C5 1.479 . S
C0 C10 1.465 . S
C1 C0 1.264 . S
C1 C3 1.339 . S
C1 H28 0.931 . S
C2 C3 1.395 . S
C2 C4 1.320 . S
C3 C1 1.339 . S
C3 C2 1.395 . S
C3 H29 0.929 . S
C4 C2 1.320 . S
C4 C5 1.405 . S
C4 H30 0.930 . S
C5 C0 1.479 . S
C5 C4 1.405 . S
C5 H31 0.931 . S
U6 O7 2.454 . S
U6 O8 2.458 . S
U6 C9 2.984 . S
U6 C10 2.847 . S
U6 C23 2.882 . S
U6 O24 2.441 . S
U6 O25 2.420 . S
U6 O26 2.455 . S
U6 O27 2.449 . S
O7 U6 2.454 . S
O7 C9 1.353 . S
O8 U6 2.458 . S
O8 C9 1.286 . S
C9 U6 2.984 . S
C9 O7 1.353 . S
C9 O8 1.286 . S
C9 C11 1.363 . S
C10 C0 1.465 . S
C10 U6 2.847 . S
C10 O24 1.249 . S
C10 O25 1.202 . S
C11 C9 1.363 . S
C11 C13 1.408 . S
C11 C16 1.342 . S
C12 C13 1.310 . S
C12 C15 1.461 . S
C12 H32 0.932 . S
C13 C11 1.408 . S
C13 C12 1.310 . S
C13 H33 0.930 . S
C14 C15 1.474 . S
C14 C16 1.285 . S
C14 H34 0.929 . S
C15 C12 1.461 . S
C15 C14 1.474 . S
C16 C11 1.342 . S
C16 C14 1.285 . S
C16 H35 0.930 . S
C17 C20 1.424 . S
C17 C22 1.245 . S
C17 C23 1.428 . S
C18 C21 1.260 . S
C18 C22 1.477 . S
C18 H36 0.932 . S
C19 C20 1.384 . S
C19 C21 1.479 . S
C19 H37 0.929 . S
C20 C17 1.424 . S
C20 C19 1.384 . S
C20 H38 0.928 . S
C21 C18 1.260 . S
C21 C19 1.479 . S
C22 C17 1.245 . S
C22 C18 1.477 . S
C22 H39 0.932 . S
C23 U6 2.882 . S
C23 C17 1.428 . S
C23 O26 1.301 . S
C23 O27 1.282 . S
O24 U6 2.441 . S
O24 C10 1.249 . S
O25 U6 2.420 . S
O25 C10 1.202 . S
O26 U6 2.455 . S
O26 C23 1.301 . S
O27 U6 2.449 . S
O27 C23 1.282 . S
H28 C1 0.931 . S
H29 C3 0.929 . S
H30 C4 0.930 . S
H31 C5 0.931 . S
H32 C12 0.932 . S
H33 C13 0.930 . S
H34 C14 0.929 . S
H35 C16 0.930 . S
H36 C18 0.932 . S
H37 C19 0.929 . S
H38 C20 0.928 . S
H39 C22 0.932 . S
C40 C41 1.264 . S
C40 C45 1.479 . S
C40 C50 1.465 . S
C41 C40 1.264 . S
C41 C43 1.339 . S
C41 H68 0.931 . S
C42 C43 1.395 . S
C42 C44 1.320 . S
C43 C41 1.339 . S
C43 C42 1.395 . S
C43 H69 0.929 . S
C44 C42 1.320 . S
C44 C45 1.405 . S
C44 H70 0.930 1_455 S
C45 C40 1.479 . S
C45 C44 1.405 . S
C45 H71 0.931 . S
U46 O47 2.454 . S
U46 O48 2.458 . S
U46 C49 2.984 . S
U46 C50 2.847 . S
U46 C63 2.882 . S
U46 O64 2.441 . S
U46 O65 2.420 . S
U46 O66 2.455 . S
U46 O67 2.449 . S
O47 U46 2.454 . S
O47 C49 1.353 . S
O48 U46 2.458 . S
O48 C49 1.286 . S
C49 U46 2.984 . S
C49 O47 1.353 . S
C49 O48 1.286 . S
C49 C51 1.363 . S
C50 C40 1.465 . S
C50 U46 2.847 . S
C50 O64 1.249 . S
C50 O65 1.202 . S
C51 C49 1.363 . S
C51 C53 1.408 . S
C51 C56 1.342 . S
C52 C53 1.310 . S
C52 C55 1.461 1_455 S
C52 H72 0.932 . S
C53 C51 1.408 . S
C53 C52 1.310 . S
C53 H73 0.930 . S
C54 C55 1.474 . S
C54 C56 1.284 1_655 S
C54 H74 0.932 . S
C55 C52 1.461 1_655 S
C55 C54 1.474 . S
C56 C51 1.342 . S
C56 C54 1.284 1_455 S
C56 H75 0.932 . S
C57 C60 1.424 . S
C57 C62 1.245 . S
C57 C63 1.428 . S
C58 C61 1.260 . S
C58 C62 1.477 . S
C58 H76 0.932 . S
C59 C60 1.384 . S
C59 C61 1.479 . S
C59 H77 0.929 . S
C60 C57 1.424 . S
C60 C59 1.384 . S
C60 H78 0.928 . S
C61 C58 1.260 . S
C61 C59 1.479 . S
C62 C57 1.245 . S
C62 C58 1.477 . S
C62 H79 0.932 . S
C63 U46 2.882 . S
C63 C57 1.428 . S
C63 O66 1.301 . S
C63 O67 1.282 . S
O64 U46 2.441 . S
O64 C50 1.249 . S
O65 U46 2.420 . S
O65 C50 1.202 . S
O66 U46 2.455 . S
O66 C63 1.301 . S
O67 U46 2.449 . S
O67 C63 1.282 . S
H68 C41 0.931 . S
H69 C43 0.929 . S
H70 C44 0.930 1_655 S
H71 C45 0.931 . S
H72 C52 0.932 . S
H73 C53 0.930 . S
H74 C54 0.932 . S
H75 C56 0.932 . S
H76 C58 0.932 . S
H77 C59 0.929 . S
H78 C60 0.928 . S
H79 C62 0.932 . S
C80 C81 1.264 . S
C80 C85 1.479 . S
C80 C90 1.465 . S
C81 C80 1.264 . S
C81 C83 1.339 . S
C81 H108 0.931 . S
C82 C83 1.395 . S
C82 C84 1.320 . S
C83 C81 1.339 . S
C83 C82 1.395 . S
C83 H109 0.929 . S
C84 C82 1.320 . S
C84 C85 1.405 . S
C84 H110 0.930 1_545 S
C85 C80 1.479 . S
C85 C84 1.405 . S
C85 H111 0.931 . S
U86 O87 2.454 . S
U86 O88 2.458 . S
U86 C89 2.984 . S
U86 C90 2.847 . S
U86 C103 2.882 . S
U86 O104 2.441 . S
U86 O105 2.420 . S
U86 O106 2.455 . S
U86 O107 2.449 . S
O87 U86 2.454 . S
O87 C89 1.353 . S
O88 U86 2.458 . S
O88 C89 1.286 . S
C89 U86 2.984 . S
C89 O87 1.353 . S
C89 O88 1.286 . S
C89 C91 1.363 . S
C90 C80 1.465 . S
C90 U86 2.847 . S
C90 O104 1.249 . S
C90 O105 1.202 . S
C91 C89 1.363 . S
C91 C93 1.408 . S
C91 C96 1.342 . S
C92 C93 1.310 . S
C92 C95 1.461 1_545 S
C92 H112 0.932 . S
C93 C91 1.408 . S
C93 C92 1.310 . S
C93 H113 0.930 . S
C94 C95 1.474 . S
C94 C96 1.284 1_565 S
C94 H114 0.932 . S
C95 C92 1.461 1_565 S
C95 C94 1.474 . S
C96 C91 1.342 . S
C96 C94 1.284 1_545 S
C96 H115 0.931 . S
C97 C100 1.424 . S
C97 C102 1.245 . S
C97 C103 1.428 . S
C98 C101 1.260 . S
C98 C102 1.477 . S
C98 H116 0.932 . S
C99 C100 1.384 . S
C99 C101 1.479 . S
C99 H117 0.929 . S
C100 C97 1.424 . S
C100 C99 1.384 . S
C100 H118 0.928 . S
C101 C98 1.260 . S
C101 C99 1.479 . S
C102 C97 1.245 . S
C102 C98 1.477 . S
C102 H119 0.932 . S
C103 U86 2.882 . S
C103 C97 1.428 . S
C103 O106 1.301 . S
C103 O107 1.282 . S
O104 U86 2.441 . S
O104 C90 1.249 . S
O105 U86 2.420 . S
O105 C90 1.202 . S
O106 U86 2.455 . S
O106 C103 1.301 . S
O107 U86 2.449 . S
O107 C103 1.282 . S
H108 C81 0.931 . S
H109 C83 0.929 . S
H110 C84 0.930 1_565 S
H111 C85 0.931 . S
H112 C92 0.932 . S
H113 C93 0.930 . S
H114 C94 0.932 . S
H115 C96 0.931 . S
H116 C98 0.932 . S
H117 C99 0.929 . S
H118 C100 0.928 . S
H119 C102 0.932 . S
C120 C121 1.264 . S
C120 C125 1.479 . S
C120 C130 1.465 . S
C121 C120 1.264 . S
C121 C123 1.339 . S
C121 H148 0.931 . S
C122 C123 1.395 . S
C122 C124 1.320 . S
C123 C121 1.339 . S
C123 C122 1.395 . S
C123 H149 0.929 . S
C124 C122 1.320 . S
C124 C125 1.405 . S
C124 H150 0.930 . S
C125 C120 1.479 . S
C125 C124 1.405 . S
C125 H151 0.931 . S
U126 O127 2.454 . S
U126 O128 2.458 . S
U126 C129 2.984 . S
U126 C130 2.847 . S
U126 C143 2.882 . S
U126 O144 2.441 . S
U126 O145 2.420 . S
U126 O146 2.455 . S
U126 O147 2.449 . S
O127 U126 2.454 . S
O127 C129 1.353 . S
O128 U126 2.458 . S
O128 C129 1.286 . S
C129 U126 2.984 . S
C129 O127 1.353 . S
C129 O128 1.286 . S
C129 C131 1.363 . S
C130 C120 1.465 . S
C130 U126 2.847 . S
C130 O144 1.249 . S
C130 O145 1.202 . S
C131 C129 1.363 . S
C131 C133 1.408 . S
C131 C136 1.342 . S
C132 C133 1.310 . S
C132 C135 1.461 . S
C132 H152 0.932 . S
C133 C131 1.408 . S
C133 C132 1.310 . S
C133 H153 0.930 . S
C134 C135 1.474 . S
C134 C136 1.285 . S
C134 H154 0.929 . S
C135 C132 1.461 . S
C135 C134 1.474 . S
C136 C131 1.342 . S
C136 C134 1.285 . S
C136 H155 0.930 . S
C137 C140 1.424 . S
C137 C142 1.245 . S
C137 C143 1.428 . S
C138 C141 1.260 . S
C138 C142 1.477 . S
C138 H156 0.932 . S
C139 C140 1.384 . S
C139 C141 1.479 . S
C139 H157 0.929 . S
C140 C137 1.424 . S
C140 C139 1.384 . S
C140 H158 0.928 . S
C141 C138 1.260 . S
C141 C139 1.479 . S
C142 C137 1.245 . S
C142 C138 1.477 . S
C142 H159 0.932 . S
C143 U126 2.882 . S
C143 C137 1.428 . S
C143 O146 1.301 . S
C143 O147 1.282 . S
O144 U126 2.441 . S
O144 C130 1.249 . S
O145 U126 2.420 . S
O145 C130 1.202 . S
O146 U126 2.455 . S
O146 C143 1.301 . S
O147 U126 2.449 . S
O147 C143 1.282 . S
H148 C121 0.931 . S
H149 C123 0.929 . S
H150 C124 0.930 . S
H151 C125 0.931 . S
H152 C132 0.932 . S
H153 C133 0.930 . S
H154 C134 0.929 . S
H155 C136 0.930 . S
H156 C138 0.932 . S
H157 C139 0.929 . S
H158 C140 0.928 . S
H159 C142 0.932 . S
C160 C161 1.264 . S
C160 C165 1.479 . S
C160 C170 1.465 . S
C161 C160 1.264 . S
C161 C163 1.339 . S
C161 H188 0.931 . S
C162 C163 1.395 . S
C162 C164 1.320 . S
C163 C161 1.339 . S
C163 C162 1.395 . S
C163 H189 0.929 . S
C164 C162 1.320 . S
C164 C165 1.405 . S
C164 H190 0.930 . S
C165 C160 1.479 . S
C165 C164 1.405 . S
C165 H191 0.931 . S
U166 O167 2.454 1_554 S
U166 O168 2.458 . S
U166 C169 2.984 . S
U166 C170 2.847 1_554 S
U166 C183 2.882 . S
U166 O184 2.441 1_554 S
U166 O185 2.420 1_554 S
U166 O186 2.455 . S
U166 O187 2.449 . S
O167 U166 2.454 1_556 S
O167 C169 1.353 1_556 S
O168 U166 2.458 . S
O168 C169 1.286 . S
C169 U166 2.984 . S
C169 O167 1.353 1_554 S
C169 O168 1.286 . S
C169 C171 1.363 . S
C170 C160 1.465 . S
C170 U166 2.847 1_556 S
C170 O184 1.249 . S
C170 O185 1.202 . S
C171 C169 1.363 . S
C171 C173 1.408 . S
C171 C176 1.342 . S
C172 C173 1.310 . S
C172 C175 1.461 . S
C172 H192 0.932 . S
C173 C171 1.408 . S
C173 C172 1.310 . S
C173 H193 0.930 1_554 S
C174 C175 1.474 . S
C174 C176 1.285 . S
C174 H194 0.929 . S
C175 C172 1.461 . S
C175 C174 1.474 . S
C176 C171 1.342 . S
C176 C174 1.285 . S
C176 H195 0.930 . S
C177 C180 1.424 . S
C177 C182 1.245 . S
C177 C183 1.428 . S
C178 C181 1.260 . S
C178 C182 1.477 . S
C178 H196 0.932 . S
C179 C180 1.384 . S
C179 C181 1.479 . S
C179 H197 0.929 . S
C180 C177 1.424 . S
C180 C179 1.384 . S
C180 H198 0.928 . S
C181 C178 1.260 . S
C181 C179 1.479 . S
C182 C177 1.245 . S
C182 C178 1.477 . S
C182 H199 0.932 . S
C183 U166 2.882 . S
C183 C177 1.428 . S
C183 O186 1.301 . S
C183 O187 1.282 . S
O184 U166 2.441 1_556 S
O184 C170 1.249 . S
O185 U166 2.420 1_556 S
O185 C170 1.202 . S
O186 U166 2.455 . S
O186 C183 1.301 . S
O187 U166 2.449 . S
O187 C183 1.282 . S
H188 C161 0.931 . S
H189 C163 0.929 . S
H190 C164 0.930 . S
H191 C165 0.931 . S
H192 C172 0.932 . S
H193 C173 0.930 1_556 S
H194 C174 0.929 . S
H195 C176 0.930 . S
H196 C178 0.932 . S
H197 C179 0.929 . S
H198 C180 0.928 . S
H199 C182 0.932 . S
C200 C201 1.264 . S
C200 C205 1.479 . S
C200 C210 1.465 . S
C201 C200 1.264 . S
C201 C203 1.339 . S
C201 H228 0.931 . S
C202 C203 1.395 . S
C202 C204 1.320 . S
C203 C201 1.339 . S
C203 C202 1.395 . S
C203 H229 0.929 . S
C204 C202 1.320 . S
C204 C205 1.405 . S
C204 H230 0.927 1_455 S
C205 C200 1.479 . S
C205 C204 1.405 . S
C205 H231 0.931 . S
U206 O207 2.454 1_554 S
U206 O208 2.458 . S
U206 C209 2.984 . S
U206 C210 2.847 1_554 S
U206 C223 2.882 . S
U206 O224 2.441 1_554 S
U206 O225 2.420 1_554 S
U206 O226 2.455 . S
U206 O227 2.449 . S
O207 U206 2.454 1_556 S
O207 C209 1.353 1_556 S
O208 U206 2.458 . S
O208 C209 1.286 . S
C209 U206 2.984 . S
C209 O207 1.353 1_554 S
C209 O208 1.286 . S
C209 C211 1.363 . S
C210 C200 1.465 . S
C210 U206 2.847 1_556 S
C210 O224 1.249 . S
C210 O225 1.202 . S
C211 C209 1.363 . S
C211 C213 1.408 . S
C211 C216 1.342 . S
C212 C213 1.310 . S
C212 C215 1.463 . S
C212 H232 0.932 . S
C213 C211 1.408 . S
C213 C212 1.310 . S
C213 H233 0.930 1_554 S
C214 C215 1.474 . S
C214 C216 1.286 . S
C214 H234 0.928 1_455 S
C215 C212 1.463 . S
C215 C214 1.474 . S
C216 C211 1.342 . S
C216 C214 1.286 . S
C216 H235 0.930 . S
C217 C220 1.424 . S
C217 C222 1.245 . S
C217 C223 1.428 . S
C218 C221 1.260 . S
C218 C222 1.477 . S
C218 H236 0.932 . S
C219 C220 1.384 . S
C219 C221 1.479 . S
C219 H237 0.929 . S
C220 C217 1.424 . S
C220 C219 1.384 . S
C220 H238 0.928 . S
C221 C218 1.260 . S
C221 C219 1.479 . S
C222 C217 1.245 . S
C222 C218 1.477 . S
C222 H239 0.932 . S
C223 U206 2.882 . S
C223 C217 1.428 . S
C223 O226 1.301 . S
C223 O227 1.282 . S
O224 U206 2.441 1_556 S
O224 C210 1.249 . S
O225 U206 2.420 1_556 S
O225 C210 1.202 . S
O226 U206 2.455 . S
O226 C223 1.301 . S
O227 U206 2.449 . S
O227 C223 1.282 . S
H228 C201 0.931 . S
H229 C203 0.929 . S
H230 C204 0.927 1_655 S
H231 C205 0.931 . S
H232 C212 0.932 . S
H233 C213 0.930 1_556 S
H234 C214 0.928 1_655 S
H235 C216 0.930 . S
H236 C218 0.932 . S
H237 C219 0.929 . S
H238 C220 0.928 . S
H239 C222 0.932 . S
C240 C241 1.264 . S
C240 C245 1.479 . S
C240 C250 1.465 . S
C241 C240 1.264 . S
C241 C243 1.339 . S
C241 H268 0.931 . S
C242 C243 1.395 . S
C242 C244 1.320 . S
C243 C241 1.339 . S
C243 C242 1.395 . S
C243 H269 0.929 . S
C244 C242 1.320 . S
C244 C245 1.405 . S
C244 H270 0.927 1_545 S
C245 C240 1.479 . S
C245 C244 1.405 . S
C245 H271 0.931 . S
U246 O247 2.454 1_554 S
U246 O248 2.458 . S
U246 C249 2.984 . S
U246 C250 2.847 1_554 S
U246 C263 2.882 . S
U246 O264 2.441 1_554 S
U246 O265 2.420 1_554 S
U246 O266 2.455 . S
U246 O267 2.449 . S
O247 U246 2.454 1_556 S
O247 C249 1.353 1_556 S
O248 U246 2.458 . S
O248 C249 1.286 . S
C249 U246 2.984 . S
C249 O247 1.353 1_554 S
C249 O248 1.286 . S
C249 C251 1.363 . S
C250 C240 1.465 . S
C250 U246 2.847 1_556 S
C250 O264 1.249 . S
C250 O265 1.202 . S
C251 C249 1.363 . S
C251 C253 1.408 . S
C251 C256 1.342 . S
C252 C253 1.310 . S
C252 C255 1.464 . S
C252 H272 0.932 . S
C253 C251 1.408 . S
C253 C252 1.310 . S
C253 H273 0.930 1_554 S
C254 C255 1.474 . S
C254 C256 1.287 . S
C254 H274 0.928 1_545 S
C255 C252 1.464 . S
C255 C254 1.474 . S
C256 C251 1.342 . S
C256 C254 1.287 . S
C256 H275 0.930 . S
C257 C260 1.424 . S
C257 C262 1.245 . S
C257 C263 1.428 . S
C258 C261 1.260 . S
C258 C262 1.477 . S
C258 H276 0.932 . S
C259 C260 1.384 . S
C259 C261 1.479 . S
C259 H277 0.929 . S
C260 C257 1.424 . S
C260 C259 1.384 . S
C260 H278 0.928 . S
C261 C258 1.260 . S
C261 C259 1.479 . S
C262 C257 1.245 . S
C262 C258 1.477 . S
C262 H279 0.932 . S
C263 U246 2.882 . S
C263 C257 1.428 . S
C263 O266 1.301 . S
C263 O267 1.282 . S
O264 U246 2.441 1_556 S
O264 C250 1.249 . S
O265 U246 2.420 1_556 S
O265 C250 1.202 . S
O266 U246 2.455 . S
O266 C263 1.301 . S
O267 U246 2.449 . S
O267 C263 1.282 . S
H268 C241 0.931 . S
H269 C243 0.929 . S
H270 C244 0.927 1_565 S
H271 C245 0.931 . S
H272 C252 0.932 . S
H273 C253 0.930 1_556 S
H274 C254 0.928 1_565 S
H275 C256 0.930 . S
H276 C258 0.932 . S
H277 C259 0.929 . S
H278 C260 0.928 . S
H279 C262 0.932 . S
C280 C281 1.264 . S
C280 C285 1.479 . S
C280 C290 1.465 . S
C281 C280 1.264 . S
C281 C283 1.339 . S
C281 H308 0.931 . S
C282 C283 1.395 . S
C282 C284 1.320 . S
C283 C281 1.339 . S
C283 C282 1.395 . S
C283 H309 0.929 . S
C284 C282 1.320 . S
C284 C285 1.405 . S
C284 H310 0.930 . S
C285 C280 1.479 . S
C285 C284 1.405 . S
C285 H311 0.931 . S
U286 O287 2.454 1_554 S
U286 O288 2.458 . S
U286 C289 2.984 . S
U286 C290 2.847 1_554 S
U286 C303 2.882 . S
U286 O304 2.441 1_554 S
U286 O305 2.420 1_554 S
U286 O306 2.455 . S
U286 O307 2.449 . S
O287 U286 2.454 1_556 S
O287 C289 1.353 1_556 S
O288 U286 2.458 . S
O288 C289 1.286 . S
C289 U286 2.984 . S
C289 O287 1.353 1_554 S
C289 O288 1.286 . S
C289 C291 1.363 . S
C290 C280 1.465 . S
C290 U286 2.847 1_556 S
C290 O304 1.249 . S
C290 O305 1.202 . S
C291 C289 1.363 . S
C291 C293 1.408 . S
C291 C296 1.342 . S
C292 C293 1.310 . S
C292 C295 1.461 . S
C292 H312 0.932 . S
C293 C291 1.408 . S
C293 C292 1.310 . S
C293 H313 0.930 1_554 S
C294 C295 1.474 . S
C294 C296 1.285 . S
C294 H314 0.929 . S
C295 C292 1.461 . S
C295 C294 1.474 . S
C296 C291 1.342 . S
C296 C294 1.285 . S
C296 H315 0.930 . S
C297 C300 1.424 . S
C297 C302 1.245 . S
C297 C303 1.428 . S
C298 C301 1.260 . S
C298 C302 1.477 . S
C298 H316 0.932 . S
C299 C300 1.384 . S
C299 C301 1.479 . S
C299 H317 0.929 . S
C300 C297 1.424 . S
C300 C299 1.384 . S
C300 H318 0.928 . S
C301 C298 1.260 . S
C301 C299 1.479 . S
C302 C297 1.245 . S
C302 C298 1.477 . S
C302 H319 0.932 . S
C303 U286 2.882 . S
C303 C297 1.428 . S
C303 O306 1.301 . S
C303 O307 1.282 . S
O304 U286 2.441 1_556 S
O304 C290 1.249 . S
O305 U286 2.420 1_556 S
O305 C290 1.202 . S
O306 U286 2.455 . S
O306 C303 1.301 . S
O307 U286 2.449 . S
O307 C303 1.282 . S
H308 C281 0.931 . S
H309 C283 0.929 . S
H310 C284 0.930 . S
H311 C285 0.931 . S
H312 C292 0.932 . S
H313 C293 0.930 1_556 S
H314 C294 0.929 . S
H315 C296 0.930 . S
H316 C298 0.932 . S
H317 C299 0.929 . S
H318 C300 0.928 . S
H319 C302 0.932 . S
Gd320 C323 2.818 . S
Gd320 O340 2.377 . S
Gd320 O342 2.448 . S
Gd320 O343 2.506 . S
Gd320 O344 2.435 . S
Gd320 O345 2.717 1_565 S
Gd320 O347 2.395 1_565 S
Gd320 O351 2.327 1_455 S
Gd321 C332 2.818 . S
Gd321 O341 2.395 1_545 S
Gd321 O345 2.327 1_655 S
Gd321 O346 2.377 . S
Gd321 O348 2.448 . S
Gd321 O349 2.506 . S
Gd321 O350 2.435 . S
Gd321 O351 2.717 1_545 S
C322 O340 1.240 1_655 S
C322 O341 1.240 . S
C323 Gd320 2.818 . S
C323 C324 1.510 . S
C323 O342 1.249 . S
C323 O343 1.252 . S
C324 C323 1.510 . S
C324 C325 1.404 . S
C324 C326 1.352 . S
C325 C324 1.404 . S
C325 C329 1.389 . S
C325 H352 0.930 . S
C326 C324 1.352 . S
C326 C328 1.374 . S
C326 H353 0.931 1_455 S
C327 C328 1.359 1_554 S
C327 C329 1.364 1_554 S
C328 C326 1.374 . S
C328 C327 1.359 1_556 S
C328 H354 0.931 1_456 S
C329 C325 1.389 . S
C329 C327 1.364 1_556 S
C329 H355 0.931 . S
C330 O344 1.278 . S
C330 O345 1.246 1_565 S
C331 O346 1.240 1_455 S
C331 O347 1.240 . S
C332 Gd321 2.818 . S
C332 C333 1.510 . S
C332 O348 1.249 . S
C332 O349 1.252 . S
C333 C332 1.510 . S
C333 C334 1.404 . S
C333 C335 1.352 . S
C334 C333 1.404 . S
C334 C338 1.389 . S
C334 H356 0.930 . S
C335 C333 1.352 . S
C335 C337 1.374 . S
C335 H357 0.931 1_655 S
C336 C337 1.359 . S
C336 C338 1.364 . S
C337 C335 1.374 . S
C337 C336 1.359 . S
C337 H358 0.931 1_655 S
C338 C334 1.389 . S
C338 C336 1.364 . S
C338 H359 0.931 . S
C339 O350 1.256 . S
C339 O351 1.257 1_545 S
O340 Gd320 2.377 . S
O340 C322 1.240 1_455 S
O341 Gd321 2.395 1_565 S
O341 C322 1.240 . S
O342 Gd320 2.448 . S
O342 C323 1.249 . S
O343 Gd320 2.506 . S
O343 C323 1.252 . S
O344 Gd320 2.435 . S
O344 C330 1.278 . S
O345 Gd320 2.717 1_545 S
O345 Gd321 2.327 1_455 S
O345 C330 1.246 1_545 S
O346 Gd321 2.377 . S
O346 C331 1.240 1_655 S
O347 Gd320 2.395 1_545 S
O347 C331 1.240 . S
O348 Gd321 2.448 . S
O348 C332 1.249 . S
O349 Gd321 2.506 . S
O349 C332 1.252 . S
O350 Gd321 2.435 . S
O350 C339 1.256 . S
O351 Gd320 2.327 1_655 S
O351 Gd321 2.717 1_565 S
O351 C339 1.257 1_565 S
H352 C325 0.930 . S
H353 C326 0.931 1_655 S
H354 C328 0.931 1_654 S
H355 C329 0.931 . S
H356 C334 0.930 . S
H357 C335 0.931 1_455 S
H358 C337 0.931 1_455 S
H359 C338 0.931 . S
Gd360 C363 2.818 . S
Gd360 O380 2.377 . S
Gd360 O382 2.448 . S
Gd360 O383 2.506 . S
Gd360 O384 2.435 . S
Gd360 O385 2.717 . S
Gd360 O387 2.395 . S
Gd360 O391 2.327 1_545 S
Gd361 C372 2.818 . S
Gd361 O381 2.395 . S
Gd361 O385 2.327 1_565 S
Gd361 O386 2.377 . S
Gd361 O388 2.448 . S
Gd361 O389 2.506 . S
Gd361 O390 2.435 . S
Gd361 O391 2.717 . S
C362 O380 1.240 1_565 S
C362 O381 1.240 . S
C363 Gd360 2.818 . S
C363 C364 1.510 . S
C363 O382 1.249 . S
C363 O383 1.252 . S
C364 C363 1.510 . S
C364 C365 1.404 . S
C364 C366 1.352 . S
C365 C364 1.404 . S
C365 C369 1.389 . S
C365 H392 0.930 . S
C366 C364 1.352 . S
C366 C368 1.374 . S
C366 H393 0.931 1_545 S
C367 C368 1.359 1_554 S
C367 C369 1.364 1_554 S
C368 C366 1.374 . S
C368 C367 1.359 1_556 S
C368 H394 0.931 1_546 S
C369 C365 1.389 . S
C369 C367 1.364 1_556 S
C369 H395 0.931 . S
C370 O384 1.256 . S
C370 O385 1.257 . S
C371 O386 1.240 1_545 S
C371 O387 1.240 . S
C372 Gd361 2.818 . S
C372 C373 1.510 . S
C372 O388 1.249 . S
C372 O389 1.252 . S
C373 C372 1.510 . S
C373 C374 1.404 . S
C373 C375 1.352 . S
C374 C373 1.404 . S
C374 C378 1.389 . S
C374 H396 0.930 . S
C375 C373 1.352 . S
C375 C377 1.374 . S
C375 H397 0.931 1_565 S
C376 C377 1.359 . S
C376 C378 1.364 . S
C377 C375 1.374 . S
C377 C376 1.359 . S
C377 H398 0.931 1_565 S
C378 C374 1.389 . S
C378 C376 1.364 . S
C378 H399 0.931 . S
C379 O390 1.256 . S
C379 O391 1.257 . S
O380 Gd360 2.377 . S
O380 C362 1.240 1_545 S
O381 Gd361 2.395 . S
O381 C362 1.240 . S
O382 Gd360 2.448 . S
O382 C363 1.249 . S
O383 Gd360 2.506 . S
O383 C363 1.252 . S
O384 Gd360 2.435 . S
O384 C370 1.256 . S
O385 Gd360 2.717 . S
O385 Gd361 2.327 1_545 S
O385 C370 1.257 . S
O386 Gd361 2.377 . S
O386 C371 1.240 1_565 S
O387 Gd360 2.395 . S
O387 C371 1.240 . S
O388 Gd361 2.448 . S
O388 C372 1.249 . S
O389 Gd361 2.506 . S
O389 C372 1.252 . S
O390 Gd361 2.435 . S
O390 C379 1.256 . S
O391 Gd360 2.327 1_565 S
O391 Gd361 2.717 . S
O391 C379 1.257 . S
H392 C365 0.930 . S
H393 C366 0.931 1_565 S
H394 C368 0.931 1_564 S
H395 C369 0.931 . S
H396 C374 0.930 . S
H397 C375 0.931 1_545 S
H398 C377 0.931 1_545 S
H399 C378 0.931 . S
Gd400 C403 2.818 . S
Gd400 O420 2.377 . S
Gd400 O422 2.448 . S
Gd400 O423 2.506 . S
Gd400 O424 2.435 . S
Gd400 O425 2.717 . S
Gd400 O427 2.395 . S
Gd400 O431 2.327 . S
Gd401 C412 2.818 . S
Gd401 O421 2.395 . S
Gd401 O425 2.327 . S
Gd401 O426 2.377 . S
Gd401 O428 2.448 . S
Gd401 O429 2.506 . S
Gd401 O430 2.435 . S
Gd401 O431 2.717 . S
C402 O420 1.240 . S
C402 O421 1.240 . S
C403 Gd400 2.818 . S
C403 C404 1.510 . S
C403 O422 1.249 . S
C403 O423 1.252 . S
C404 C403 1.510 . S
C404 C405 1.404 . S
C404 C406 1.352 . S
C405 C404 1.404 . S
C405 C409 1.389 . S
C405 H432 0.930 . S
C406 C404 1.352 . S
C406 C408 1.374 . S
C406 H433 0.931 . S
C407 C408 1.359 1_554 S
C407 C409 1.364 1_554 S
C408 C406 1.374 . S
C408 C407 1.359 1_556 S
C408 H434 0.931 1_556 S
C409 C405 1.389 . S
C409 C407 1.364 1_556 S
C409 H435 0.931 . S
C410 O424 1.256 . S
C410 O425 1.257 . S
C411 O426 1.240 . S
C411 O427 1.240 . S
C412 Gd401 2.818 . S
C412 C413 1.510 . S
C412 O428 1.249 . S
C412 O429 1.252 . S
C413 C412 1.510 . S
C413 C414 1.404 . S
C413 C415 1.352 . S
C414 C413 1.404 . S
C414 C418 1.389 . S
C414 H436 0.930 . S
C415 C413 1.352 . S
C415 C417 1.374 . S
C415 H437 0.931 . S
C416 C417 1.359 . S
C416 C418 1.364 . S
C417 C415 1.374 . S
C417 C416 1.359 . S
C417 H438 0.931 . S
C418 C414 1.389 . S
C418 C416 1.364 . S
C418 H439 0.931 . S
C419 O430 1.256 . S
C419 O431 1.257 . S
O420 Gd400 2.377 . S
O420 C402 1.240 . S
O421 Gd401 2.395 . S
O421 C402 1.240 . S
O422 Gd400 2.448 . S
O422 C403 1.249 . S
O423 Gd400 2.506 . S
O423 C403 1.252 . S
O424 Gd400 2.435 . S
O424 C410 1.256 . S
O425 Gd400 2.717 . S
O425 Gd401 2.327 . S
O425 C410 1.257 . S
O426 Gd401 2.377 . S
O426 C411 1.240 . S
O427 Gd400 2.395 . S
O427 C411 1.240 . S
O428 Gd401 2.448 . S
O428 C412 1.249 . S
O429 Gd401 2.506 . S
O429 C412 1.252 . S
O430 Gd401 2.435 . S
O430 C419 1.256 . S
O431 Gd400 2.327 . S
O431 Gd401 2.717 . S
O431 C419 1.257 . S
H432 C405 0.930 . S
H433 C406 0.931 . S
H434 C408 0.931 1_554 S
H435 C409 0.931 . S
H436 C414 0.930 . S
H437 C415 0.931 . S
H438 C417 0.931 . S
H439 C418 0.931 . S
Gd440 C443 2.818 . S
Gd440 O460 2.377 . S
Gd440 O462 2.448 . S
Gd440 O463 2.506 . S
Gd440 O464 2.435 . S
Gd440 O465 2.717 1_655 S
Gd440 O467 2.395 1_655 S
Gd440 O471 2.327 . S
Gd441 C452 2.818 . S
Gd441 O461 2.395 1_455 S
Gd441 O465 2.327 . S
Gd441 O466 2.377 . S
Gd441 O468 2.448 . S
Gd441 O469 2.506 . S
Gd441 O470 2.435 . S
Gd441 O471 2.717 1_455 S
C442 O460 1.240 . S
C442 O461 1.240 . S
C443 Gd440 2.818 . S
C443 C444 1.510 . S
C443 O462 1.249 . S
C443 O463 1.252 . S
C444 C443 1.510 . S
C444 C445 1.404 . S
C444 C446 1.352 . S
C445 C444 1.404 . S
C445 C449 1.389 . S
C445 H472 0.930 . S
C446 C444 1.352 . S
C446 C448 1.374 . S
C446 H473 0.931 . S
C447 C448 1.359 1_554 S
C447 C449 1.364 1_554 S
C448 C446 1.374 . S
C448 C447 1.359 1_556 S
C448 H474 0.931 1_556 S
C449 C445 1.389 . S
C449 C447 1.364 1_556 S
C449 H475 0.931 . S
C450 O464 1.278 . S
C450 O465 1.246 1_655 S
C451 O466 1.240 . S
C451 O467 1.240 . S
C452 Gd441 2.818 . S
C452 C453 1.510 . S
C452 O468 1.249 . S
C452 O469 1.252 . S
C453 C452 1.510 . S
C453 C454 1.404 . S
C453 C455 1.352 . S
C454 C453 1.404 . S
C454 C458 1.389 . S
C454 H476 0.930 . S
C455 C453 1.352 . S
C455 C457 1.374 . S
C455 H477 0.931 . S
C456 C457 1.359 . S
C456 C458 1.364 . S
C457 C455 1.374 . S
C457 C456 1.359 . S
C457 H478 0.931 . S
C458 C454 1.389 . S
C458 C456 1.364 . S
C458 H479 0.931 . S
C459 O470 1.256 . S
C459 O471 1.257 1_455 S
O460 Gd440 2.377 . S
O460 C442 1.240 . S
O461 Gd441 2.395 1_655 S
O461 C442 1.240 . S
O462 Gd440 2.448 . S
O462 C443 1.249 . S
O463 Gd440 2.506 . S
O463 C443 1.252 . S
O464 Gd440 2.435 . S
O464 C450 1.278 . S
O465 Gd440 2.717 1_455 S
O465 Gd441 2.327 . S
O465 C450 1.246 1_455 S
O466 Gd441 2.377 . S
O466 C451 1.240 . S
O467 Gd440 2.395 1_455 S
O467 C451 1.240 . S
O468 Gd441 2.448 . S
O468 C452 1.249 . S
O469 Gd441 2.506 . S
O469 C452 1.252 . S
O470 Gd441 2.435 . S
O470 C459 1.256 . S
O471 Gd440 2.327 . S
O471 Gd441 2.717 1_655 S
O471 C459 1.257 1_655 S
H472 C445 0.930 . S
H473 C446 0.931 . S
H474 C448 0.931 1_554 S
H475 C449 0.931 . S
H476 C454 0.930 . S
H477 C455 0.931 . S
H478 C457 0.931 . S
H479 C458 0.931 . S
C480 C481 1.395 . S
C480 C482 1.419 . S
C480 H484 0.930 . S
C481 C480 1.395 . S
C481 C490 1.403 1_545 S
C482 C480 1.419 . S
C482 C483 1.363 . S
C482 H485 0.929 . S
C483 C482 1.363 . S
C483 C489 1.428 1_545 S
H484 C480 0.930 . S
H485 C482 0.929 . S
S486 N487 1.613 . S
S486 N488 1.610 . S
N487 S486 1.613 . S
N487 C490 1.350 . S
N488 S486 1.610 . S
N488 C489 1.351 . S
C489 C483 1.428 1_565 S
C489 N488 1.351 . S
C489 C490 1.434 . S
C490 C481 1.403 1_565 S
C490 N487 1.350 . S
C490 C489 1.434 . S
C491 C492 1.369 . S
C491 C493 1.419 . S
C491 H495 0.930 . S
C492 C491 1.369 . S
C492 C501 1.429 . S
C493 C491 1.419 . S
C493 C494 1.363 . S
C493 H496 0.929 . S
C494 C493 1.363 . S
C494 C500 1.428 . S
H495 C491 0.930 . S
H496 C493 0.929 . S
S497 N498 1.613 . S
S497 N499 1.610 . S
N498 S497 1.613 . S
N498 C501 1.350 . S
N499 S497 1.610 . S
N499 C500 1.351 . S
C500 C494 1.428 . S
C500 N499 1.351 . S
C500 C501 1.434 . S
C501 C492 1.429 . S
C501 N498 1.350 . S
C501 C500 1.434 . S
C502 C503 1.369 . S
C502 C504 1.419 . S
C502 H506 0.930 . S
C503 C502 1.369 . S
C503 C512 1.429 . S
C504 C502 1.419 . S
C504 C505 1.363 . S
C504 H507 0.929 . S
C505 C504 1.363 . S
C505 C511 1.428 . S
H506 C502 0.930 . S
H507 C504 0.929 . S
S508 N509 1.613 . S
S508 N510 1.610 . S
N509 S508 1.613 . S
N509 C512 1.350 . S
N510 S508 1.610 . S
N510 C511 1.351 . S
C511 C505 1.428 . S
C511 N510 1.351 . S
C511 C512 1.434 . S
C512 C503 1.429 . S
C512 N509 1.350 . S
C512 C511 1.434 . S
C513 C514 1.369 1_655 S
C513 C515 1.419 . S
C513 H517 0.930 . S
C514 C513 1.369 1_455 S
C514 C523 1.429 . S
C515 C513 1.419 . S
C515 C516 1.363 1_655 S
C515 H518 0.929 . S
C516 C515 1.363 1_455 S
C516 C522 1.428 . S
H517 C513 0.930 . S
H518 C515 0.929 . S
S519 N520 1.613 . S
S519 N521 1.610 . S
N520 S519 1.613 . S
N520 C523 1.350 . S
N521 S519 1.610 . S
N521 C522 1.351 . S
C522 C516 1.428 . S
C522 N521 1.351 . S
C522 C523 1.434 . S
C523 C514 1.429 . S
C523 N520 1.350 . S
C523 C522 1.434 . S
C524 C525 1.369 1_545 S
C524 C526 1.419 . S
C524 H528 0.930 . S
C525 C524 1.369 1_565 S
C525 C534 1.429 . S
C526 C524 1.419 . S
C526 C527 1.363 1_544 S
C526 H529 0.929 1_554 S
C527 C526 1.363 1_566 S
C527 C533 1.428 1_556 S
H528 C524 0.930 . S
H529 C526 0.929 1_556 S
S530 N531 1.613 . S
S530 N532 1.610 1_554 S
N531 S530 1.613 . S
N531 C534 1.350 . S
N532 S530 1.610 1_556 S
N532 C533 1.351 1_556 S
C533 C527 1.428 1_554 S
C533 N532 1.351 1_554 S
C533 C534 1.434 . S
C534 C525 1.429 . S
C534 N531 1.350 . S
C534 C533 1.434 . S
C535 C536 1.369 . S
C535 C537 1.419 . S
C535 H539 0.930 . S
C536 C535 1.369 . S
C536 C545 1.429 . S
C537 C535 1.419 . S
C537 C538 1.363 1_554 S
C537 H540 0.929 1_554 S
C538 C537 1.363 1_556 S
C538 C544 1.428 1_556 S
H539 C535 0.930 . S
H540 C537 0.929 1_556 S
S541 N542 1.613 1_545 S
S541 N543 1.610 1_544 S
N542 S541 1.613 1_565 S
N542 C545 1.350 . S
N543 S541 1.610 1_566 S
N543 C544 1.351 1_556 S
C544 C538 1.428 1_554 S
C544 N543 1.351 1_554 S
C544 C545 1.434 . S
C545 C536 1.429 . S
C545 N542 1.350 . S
C545 C544 1.434 . S
C546 C547 1.369 . S
C546 C548 1.419 . S
C546 H550 0.930 . S
C547 C546 1.369 . S
C547 C556 1.429 . S
C548 C546 1.419 . S
C548 C549 1.363 1_554 S
C548 H551 0.929 1_554 S
C549 C548 1.363 1_556 S
C549 C555 1.424 1_556 S
H550 C546 0.930 . S
H551 C548 0.929 1_556 S
S552 N553 1.613 . S
S552 N554 1.610 1_554 S
N553 S552 1.613 . S
N553 C556 1.350 . S
N554 S552 1.610 1_556 S
N554 C555 1.346 1_556 S
C555 C549 1.424 1_554 S
C555 N554 1.346 1_554 S
C555 C556 1.444 . S
C556 C547 1.429 . S
C556 N553 1.350 . S
C556 C555 1.444 . S
C557 C558 1.394 . S
C557 C559 1.419 . S
C557 H561 0.930 . S
C558 C557 1.394 . S
C558 C567 1.405 1_655 S
C559 C557 1.419 . S
C559 C560 1.363 1_554 S
C559 H562 0.929 1_554 S
C560 C559 1.363 1_556 S
C560 C566 1.428 1_656 S
H561 C557 0.930 . S
H562 C559 0.929 1_556 S
S563 N564 1.613 . S
S563 N565 1.610 1_554 S
N564 S563 1.613 . S
N564 C567 1.350 . S
N565 S563 1.610 1_556 S
N565 C566 1.351 1_556 S
C566 C560 1.428 1_454 S
C566 N565 1.351 1_554 S
C566 C567 1.434 . S
C567 C558 1.405 1_455 S
C567 N564 1.350 . S
C567 C566 1.434 . S
C568 C569 1.381 . S
C568 C570 1.419 . S
C568 H572 0.930 . S
C569 C568 1.381 . S
C569 C578 1.426 1_655 S
C570 C568 1.419 . S
C570 C571 1.363 . S
C570 H573 0.929 . S
C571 C570 1.363 . S
C571 C577 1.428 . S
H572 C568 0.930 . S
H573 C570 0.929 . S
S574 N575 1.613 . S
S574 N576 1.610 1_455 S
N575 S574 1.613 . S
N575 C578 1.350 . S
N576 S574 1.610 1_655 S
N576 C577 1.351 . S
C577 C571 1.428 . S
C577 N576 1.351 . S
C577 C578 1.434 1_655 S
C578 C569 1.426 1_455 S
C578 N575 1.350 . S
C578 C577 1.434 1_455 S
C579 C580 1.378 . S
C579 C581 1.419 . S
C579 H583 0.930 . S
C580 C579 1.378 . S
C580 C589 1.426 1_565 S
C581 C579 1.419 . S
C581 C582 1.363 . S
C581 H584 0.929 . S
C582 C581 1.363 . S
C582 C588 1.428 . S
H583 C579 0.930 . S
H584 C581 0.929 . S
S585 N586 1.613 . S
S585 N587 1.610 1_545 S
N586 S585 1.613 . S
N586 C589 1.350 . S
N587 S585 1.610 1_565 S
N587 C588 1.351 . S
C588 C582 1.428 . S
C588 N587 1.351 . S
C588 C589 1.434 1_565 S
C589 C580 1.426 1_545 S
C589 N586 1.350 . S
C589 C588 1.434 1_545 S
C590 C591 1.369 . S
C590 C592 1.419 . S
C590 H594 0.930 . S
C591 C590 1.369 . S
C591 C600 1.429 . S
C592 C590 1.419 . S
C592 C593 1.363 . S
C592 H595 0.929 . S
C593 C592 1.363 . S
C593 C599 1.428 . S
H594 C590 0.930 . S
H595 C592 0.929 . S
S596 N597 1.613 . S
S596 N598 1.610 . S
N597 S596 1.613 . S
N597 C600 1.350 . S
N598 S596 1.610 . S
N598 C599 1.351 . S
C599 C593 1.428 . S
C599 N598 1.351 . S
C599 C600 1.434 . S
C600 C591 1.429 . S
C600 N597 1.350 . S
C600 C599 1.434 . S
C601 C602 1.369 . S
C601 C603 1.419 . S
C601 H605 0.930 . S
C602 C601 1.369 . S
C602 C611 1.429 . S
C603 C601 1.419 . S
C603 C604 1.363 . S
C603 H606 0.929 . S
C604 C603 1.363 . S
C604 C610 1.428 . S
H605 C601 0.930 . S
H606 C603 0.929 . S
S607 N608 1.613 . S
S607 N609 1.610 . S
N608 S607 1.613 . S
N608 C611 1.350 . S
N609 S607 1.610 . S
N609 C610 1.351 . S
C610 C604 1.428 . S
C610 N609 1.351 . S
C610 C611 1.434 . S
C611 C602 1.429 . S
C611 N608 1.350 . S
C611 C610 1.434 . S
C612 C613 1.384 1_556 S
C612 C614 1.419 . S
C612 H616 0.930 . S
C613 C612 1.384 1_554 S
C613 C622 1.427 1_455 S
C614 C612 1.419 . S
C614 C615 1.363 1_556 S
C614 H617 0.929 . S
C615 C614 1.363 1_554 S
C615 C621 1.428 . S
H616 C612 0.930 . S
H617 C614 0.929 . S
S618 N619 1.613 . S
S618 N620 1.610 1_655 S
N619 S618 1.613 . S
N619 C622 1.350 . S
N620 S618 1.610 1_455 S
N620 C621 1.351 . S
C621 C615 1.428 . S
C621 N620 1.351 . S
C621 C622 1.434 1_455 S
C622 C613 1.427 1_655 S
C622 N619 1.350 . S
C622 C621 1.434 1_655 S
C623 C624 1.362 1_565 S
C623 C625 1.419 1_564 S
C623 H627 0.930 1_554 S
C624 C623 1.362 1_545 S
C624 C633 1.464 . S
C625 C623 1.419 1_546 S
C625 C626 1.363 1_556 S
C625 H628 0.929 . S
C626 C625 1.363 1_554 S
C626 C632 1.428 . S
H627 C623 0.930 1_556 S
H628 C625 0.929 . S
S629 N630 1.613 . S
S629 N631 1.610 . S
N630 S629 1.613 . S
N630 C633 1.350 . S
N631 S629 1.610 . S
N631 C632 1.351 . S
C632 C626 1.428 . S
C632 N631 1.351 . S
C632 C633 1.434 . S
C633 C624 1.464 . S
C633 N630 1.350 . S
C633 C632 1.434 . S
C634 C635 1.369 . S
C634 C636 1.419 . S
C634 H638 0.930 . S
C635 C634 1.369 . S
C635 C644 1.429 . S
C636 C634 1.419 . S
C636 C637 1.363 . S
C636 H639 0.929 . S
C637 C636 1.363 . S
C637 C643 1.428 . S
H638 C634 0.930 . S
H639 C636 0.929 . S
S640 N641 1.613 1_556 S
S640 N642 1.610 . S
N641 S640 1.613 1_554 S
N641 C644 1.350 . S
N642 S640 1.610 . S
N642 C643 1.351 1_556 S
C643 C637 1.428 . S
C643 N642 1.351 1_554 S
C643 C644 1.434 . S
C644 C635 1.429 . S
C644 N641 1.350 . S
C644 C643 1.434 . S
C645 C646 1.369 . S
C645 C647 1.419 1_554 S
C645 H649 0.930 1_554 S
C646 C645 1.369 . S
C646 C655 1.429 . S
C647 C645 1.419 1_556 S
C647 C648 1.363 1_556 S
C647 H650 0.929 . S
C648 C647 1.363 1_554 S
C648 C654 1.428 . S
H649 C645 0.930 1_556 S
H650 C647 0.929 . S
S651 N652 1.613 . S
S651 N653 1.610 . S
N652 S651 1.613 . S
N652 C655 1.350 . S
N653 S651 1.610 . S
N653 C654 1.351 . S
C654 C648 1.428 . S
C654 N653 1.351 . S
C654 C655 1.434 . S
C655 C646 1.429 . S
C655 N652 1.350 . S
C655 C654 1.434 . S
C656 C657 1.369 . S
C656 C658 1.419 . S
C656 H660 0.930 . S
C657 C656 1.369 . S
C657 C666 1.429 1_455 S
C658 C656 1.419 . S
C658 C659 1.363 . S
C658 H661 0.929 . S
C659 C658 1.363 . S
C659 C665 1.428 1_455 S
H660 C656 0.930 . S
H661 C658 0.929 . S
S662 N663 1.613 . S
S662 N664 1.610 . S
N663 S662 1.613 . S
N663 C666 1.350 . S
N664 S662 1.610 . S
N664 C665 1.351 . S
C665 C659 1.428 1_655 S
C665 N664 1.351 . S
C665 C666 1.434 . S
C666 C657 1.429 1_655 S
C666 N663 1.350 . S
C666 C665 1.434 . S
C667 C668 1.369 . S
C667 C669 1.419 . S
C667 H671 0.930 . S
C668 C667 1.369 . S
C668 C677 1.429 1_545 S
C669 C667 1.419 . S
C669 C670 1.363 . S
C669 H672 0.929 . S
C670 C669 1.363 . S
C670 C676 1.428 1_545 S
H671 C667 0.930 . S
H672 C669 0.929 . S
S673 N674 1.613 . S
S673 N675 1.610 . S
N674 S673 1.613 . S
N674 C677 1.350 . S
N675 S673 1.610 . S
N675 C676 1.351 . S
C676 C670 1.428 1_565 S
C676 N675 1.351 . S
C676 C677 1.434 . S
C677 C668 1.429 1_565 S
C677 N674 1.350 . S
C677 C676 1.434 . S
C678 C679 1.369 . S
C678 C680 1.419 . S
C678 H682 0.930 . S
C679 C678 1.369 . S
C679 C688 1.429 . S
C680 C678 1.419 . S
C680 C681 1.363 . S
C680 H683 0.929 . S
C681 C680 1.363 . S
C681 C687 1.428 . S
H682 C678 0.930 . S
H683 C680 0.929 . S
S684 N685 1.613 . S
S684 N686 1.610 . S
N685 S684 1.613 . S
N685 C688 1.350 . S
N686 S684 1.610 . S
N686 C687 1.351 . S
C687 C681 1.428 . S
C687 N686 1.351 . S
C687 C688 1.434 . S
C688 C679 1.429 . S
C688 N685 1.350 . S
C688 C687 1.434 . S
C689 C690 1.369 . S
C689 C691 1.419 . S
C689 H693 0.930 . S
C690 C689 1.369 . S
C690 C699 1.429 . S
C691 C689 1.419 . S
C691 C692 1.363 . S
C691 H694 0.929 . S
C692 C691 1.363 . S
C692 C698 1.428 . S
H693 C689 0.930 . S
H694 C691 0.929 . S
S695 N696 1.613 . S
S695 N697 1.610 . S
N696 S695 1.613 . S
N696 C699 1.350 . S
N697 S695 1.610 . S
N697 C698 1.351 . S
C698 C692 1.428 . S
C698 N697 1.351 . S
C698 C699 1.434 . S
C699 C690 1.429 . S
C699 N696 1.350 . S
C699 C698 1.434 . S
C700 C701 1.369 . S
C700 C702 1.419 . S
C700 H704 0.930 . S
C701 C700 1.369 . S
C701 C710 1.429 1_655 S
C702 C700 1.419 . S
C702 C703 1.363 . S
C702 H705 0.929 . S
C703 C702 1.363 . S
C703 C709 1.428 1_655 S
H704 C700 0.930 . S
H705 C702 0.929 . S
S706 N707 1.613 . S
S706 N708 1.610 . S
N707 S706 1.613 . S
N707 C710 1.350 . S
N708 S706 1.610 . S
N708 C709 1.351 . S
C709 C703 1.428 1_455 S
C709 N708 1.351 . S
C709 C710 1.434 . S
C710 C701 1.429 1_455 S
C710 N707 1.350 . S
C710 C709 1.434 . S
C711 C712 1.369 1_545 S
C711 C713 1.419 . S
C711 H715 0.930 . S
C712 C711 1.369 1_565 S
C712 C721 1.429 . S
C713 C711 1.419 . S
C713 C714 1.363 1_545 S
C713 H716 0.929 . S
C714 C713 1.363 1_565 S
C714 C720 1.428 . S
H715 C711 0.930 . S
H716 C713 0.929 . S
S717 N718 1.613 . S
S717 N719 1.610 . S
N718 S717 1.613 . S
N718 C721 1.350 . S
N719 S717 1.610 . S
N719 C720 1.351 . S
C720 C714 1.428 . S
C720 N719 1.351 . S
C720 C721 1.434 . S
C721 C712 1.429 . S
C721 N718 1.350 . S
C721 C720 1.434 . S
C722 C723 1.369 . S
C722 C724 1.419 . S
C722 H726 0.930 . S
C723 C722 1.369 . S
C723 C732 1.429 . S
C724 C722 1.419 . S
C724 C725 1.363 . S
C724 H727 0.929 . S
C725 C724 1.363 . S
C725 C731 1.428 . S
H726 C722 0.930 . S
H727 C724 0.929 . S
S728 N729 1.613 . S
S728 N730 1.610 . S
N729 S728 1.613 . S
N729 C732 1.350 . S
N730 S728 1.610 . S
N730 C731 1.351 . S
C731 C725 1.428 . S
C731 N730 1.351 . S
C731 C732 1.434 . S
C732 C723 1.429 . S
C732 N729 1.350 . S
C732 C731 1.434 . S
C733 C734 1.369 . S
C733 C735 1.419 . S
C733 H737 0.930 . S
C734 C733 1.369 . S
C734 C743 1.429 . S
C735 C733 1.419 . S
C735 C736 1.363 . S
C735 H738 0.929 . S
C736 C735 1.363 . S
C736 C742 1.428 . S
H737 C733 0.930 . S
H738 C735 0.929 . S
S739 N740 1.613 . S
S739 N741 1.610 . S
N740 S739 1.613 . S
N740 C743 1.350 . S
N741 S739 1.610 . S
N741 C742 1.351 . S
C742 C736 1.428 . S
C742 N741 1.351 . S
C742 C743 1.434 . S
C743 C734 1.429 . S
C743 N740 1.350 . S
C743 C742 1.434 . S
C481 C255 2.639 . S
C483 C330 2.965 1_545 S
C494 C370 2.967 . S
C492 C295 2.635 . S
C505 C410 2.966 . S
C503 C175 2.644 . S
C516 C450 2.967 1_455 S
C514 C215 2.636 . S
C527 C339 2.969 1_565 S
C525 C95 2.640 . S
C536 C135 2.643 . S
C538 C379 2.966 . S
C547 C15 2.635 . S
C549 C419 2.968 . S
C558 C55 2.636 . S
C560 C459 2.968 1_655 S
C571 C336 0.790 . S
C569 C221 0.801 1_655 S
C582 C376 0.788 . S
C580 C261 0.806 1_565 S
C593 C416 0.784 . S
C591 C301 0.818 . S
C602 C181 0.819 . S
C604 C456 0.791 . S
C613 C61 0.794 . S
C615 C327 0.790 . S
C626 C367 0.805 . S
C624 C101 0.775 . S
C637 C407 0.784 . S
C635 C141 0.799 . S
C646 C21 0.794 . S
C648 C447 0.788 . S
C657 C202 3.571 . S
C659 C331 4.050 . S
C668 C242 3.571 . S
C670 C371 4.052 . S
C681 C411 4.052 . S
C679 C282 3.570 . S
C692 C451 4.050 . S
C690 C162 3.574 . S
C701 C42 3.598 1_655 S
C703 C322 4.053 . S
C714 C362 4.053 . S
C712 C82 3.595 1_565 S
C725 C402 4.052 . S
C723 C122 3.595 . S
C734 C2 3.599 . S
C736 C442 4.052 . S
