# Generated by pormake.
# Topology gar, (4,6)-cn, num edge types: 1
# Building blocks:
#     Node 0, Type 0, BuildingBlock: KUFVIS_clean_sbu_0, # of connection points: 4
#     Node 1, Type 0, BuildingBlock: KUFVIS_clean_sbu_0, # of connection points: 4
#     Node 2, Type 0, BuildingBlock: KUFVIS_clean_sbu_0, # of connection points: 4
#     Node 3, Type 0, BuildingBlock: KUFVIS_clean_sbu_0, # of connection points: 4
#     Node 4, Type 0, BuildingBlock: KUFVIS_clean_sbu_0, # of connection points: 4
#     Node 5, Type 0, BuildingBlock: KUFVIS_clean_sbu_0, # of connection points: 4
#     Node 6, Type 0, BuildingBlock: KUFVIS_clean_sbu_0, # of connection points: 4
#     Node 7, Type 0, BuildingBlock: KUFVIS_clean_sbu_0, # of connection points: 4
#     Node 8, Type 0, BuildingBlock: KUFVIS_clean_sbu_0, # of connection points: 4
#     Node 9, Type 0, BuildingBlock: KUFVIS_clean_sbu_0, # of connection points: 4
#     Node 10, Type 0, BuildingBlock: KUFVIS_clean_sbu_0, # of connection points: 4
#     Node 11, Type 0, BuildingBlock: KUFVIS_clean_sbu_0, # of connection points: 4
#     Node 12, Type 0, BuildingBlock: KUFVIS_clean_sbu_0, # of connection points: 4
#     Node 13, Type 0, BuildingBlock: KUFVIS_clean_sbu_0, # of connection points: 4
#     Node 14, Type 0, BuildingBlock: KUFVIS_clean_sbu_0, # of connection points: 4
#     Node 15, Type 0, BuildingBlock: KUFVIS_clean_sbu_0, # of connection points: 4
#     Node 16, Type 0, BuildingBlock: KUFVIS_clean_sbu_0, # of connection points: 4
#     Node 17, Type 0, BuildingBlock: KUFVIS_clean_sbu_0, # of connection points: 4
#     Node 18, Type 0, BuildingBlock: KUFVIS_clean_sbu_0, # of connection points: 4
#     Node 19, Type 0, BuildingBlock: KUFVIS_clean_sbu_0, # of connection points: 4
#     Node 20, Type 0, BuildingBlock: KUFVIS_clean_sbu_0, # of connection points: 4
#     Node 21, Type 0, BuildingBlock: KUFVIS_clean_sbu_0, # of connection points: 4
#     Node 22, Type 0, BuildingBlock: KUFVIS_clean_sbu_0, # of connection points: 4
#     Node 23, Type 0, BuildingBlock: KUFVIS_clean_sbu_0, # of connection points: 4
#     Node 24, Type 1, BuildingBlock: GEDQOX_clean_sbu_0, # of connection points: 6
#     Node 25, Type 1, BuildingBlock: GEDQOX_clean_sbu_0, # of connection points: 6
#     Node 26, Type 1, BuildingBlock: GEDQOX_clean_sbu_0, # of connection points: 6
#     Node 27, Type 1, BuildingBlock: GEDQOX_clean_sbu_0, # of connection points: 6
#     Node 28, Type 1, BuildingBlock: GEDQOX_clean_sbu_0, # of connection points: 6
#     Node 29, Type 1, BuildingBlock: GEDQOX_clean_sbu_0, # of connection points: 6
#     Node 30, Type 1, BuildingBlock: GEDQOX_clean_sbu_0, # of connection points: 6
#     Node 31, Type 1, BuildingBlock: GEDQOX_clean_sbu_0, # of connection points: 6
#     Node 32, Type 1, BuildingBlock: GEDQOX_clean_sbu_0, # of connection points: 6
#     Node 33, Type 1, BuildingBlock: GEDQOX_clean_sbu_0, # of connection points: 6
#     Node 34, Type 1, BuildingBlock: GEDQOX_clean_sbu_0, # of connection points: 6
#     Node 35, Type 1, BuildingBlock: GEDQOX_clean_sbu_0, # of connection points: 6
#     Node 36, Type 1, BuildingBlock: GEDQOX_clean_sbu_0, # of connection points: 6
#     Node 37, Type 1, BuildingBlock: GEDQOX_clean_sbu_0, # of connection points: 6
#     Node 38, Type 1, BuildingBlock: GEDQOX_clean_sbu_0, # of connection points: 6
#     Node 39, Type 1, BuildingBlock: GEDQOX_clean_sbu_0, # of connection points: 6
#     Edge 40, Type (0, 1), BuildingBlock: KIFKEQ_clean_linker_1, # of connection points: 2
#     Edge 41, Type (0, 1), BuildingBlock: KIFKEQ_clean_linker_1, # of connection points: 2
#     Edge 42, Type (0, 1), BuildingBlock: KIFKEQ_clean_linker_1, # of connection points: 2
#     Edge 43, Type (0, 1), BuildingBlock: KIFKEQ_clean_linker_1, # of connection points: 2
#     Edge 44, Type (0, 1), BuildingBlock: KIFKEQ_clean_linker_1, # of connection points: 2
#     Edge 45, Type (0, 1), BuildingBlock: KIFKEQ_clean_linker_1, # of connection points: 2
#     Edge 46, Type (0, 1), BuildingBlock: KIFKEQ_clean_linker_1, # of connection points: 2
#     Edge 47, Type (0, 1), BuildingBlock: KIFKEQ_clean_linker_1, # of connection points: 2
#     Edge 48, Type (0, 1), BuildingBlock: KIFKEQ_clean_linker_1, # of connection points: 2
#     Edge 49, Type (0, 1), BuildingBlock: KIFKEQ_clean_linker_1, # of connection points: 2
#     Edge 50, Type (0, 1), BuildingBlock: KIFKEQ_clean_linker_1, # of connection points: 2
#     Edge 51, Type (0, 1), BuildingBlock: KIFKEQ_clean_linker_1, # of connection points: 2
#     Edge 52, Type (0, 1), BuildingBlock: KIFKEQ_clean_linker_1, # of connection points: 2
#     Edge 53, Type (0, 1), BuildingBlock: KIFKEQ_clean_linker_1, # of connection points: 2
#     Edge 54, Type (0, 1), BuildingBlock: KIFKEQ_clean_linker_1, # of connection points: 2
#     Edge 55, Type (0, 1), BuildingBlock: KIFKEQ_clean_linker_1, # of connection points: 2
#     Edge 56, Type (0, 1), BuildingBlock: KIFKEQ_clean_linker_1, # of connection points: 2
#     Edge 57, Type (0, 1), BuildingBlock: KIFKEQ_clean_linker_1, # of connection points: 2
#     Edge 58, Type (0, 1), BuildingBlock: KIFKEQ_clean_linker_1, # of connection points: 2
#     Edge 59, Type (0, 1), BuildingBlock: KIFKEQ_clean_linker_1, # of connection points: 2
#     Edge 60, Type (0, 1), BuildingBlock: KIFKEQ_clean_linker_1, # of connection points: 2
#     Edge 61, Type (0, 1), BuildingBlock: KIFKEQ_clean_linker_1, # of connection points: 2
#     Edge 62, Type (0, 1), BuildingBlock: KIFKEQ_clean_linker_1, # of connection points: 2
#     Edge 63, Type (0, 1), BuildingBlock: KIFKEQ_clean_linker_1, # of connection points: 2
#     Edge 64, Type (0, 1), BuildingBlock: KIFKEQ_clean_linker_1, # of connection points: 2
#     Edge 65, Type (0, 1), BuildingBlock: KIFKEQ_clean_linker_1, # of connection points: 2
#     Edge 66, Type (0, 1), BuildingBlock: KIFKEQ_clean_linker_1, # of connection points: 2
#     Edge 67, Type (0, 1), BuildingBlock: KIFKEQ_clean_linker_1, # of connection points: 2
#     Edge 68, Type (0, 1), BuildingBlock: KIFKEQ_clean_linker_1, # of connection points: 2
#     Edge 69, Type (0, 1), BuildingBlock: KIFKEQ_clean_linker_1, # of connection points: 2
#     Edge 70, Type (0, 1), BuildingBlock: KIFKEQ_clean_linker_1, # of connection points: 2
#     Edge 71, Type (0, 1), BuildingBlock: KIFKEQ_clean_linker_1, # of connection points: 2
#     Edge 72, Type (0, 1), BuildingBlock: KIFKEQ_clean_linker_1, # of connection points: 2
#     Edge 73, Type (0, 1), BuildingBlock: KIFKEQ_clean_linker_1, # of connection points: 2
#     Edge 74, Type (0, 1), BuildingBlock: KIFKEQ_clean_linker_1, # of connection points: 2
#     Edge 75, Type (0, 1), BuildingBlock: KIFKEQ_clean_linker_1, # of connection points: 2
#     Edge 76, Type (0, 1), BuildingBlock: KIFKEQ_clean_linker_1, # of connection points: 2
#     Edge 77, Type (0, 1), BuildingBlock: KIFKEQ_clean_linker_1, # of connection points: 2
#     Edge 78, Type (0, 1), BuildingBlock: KIFKEQ_clean_linker_1, # of connection points: 2
#     Edge 79, Type (0, 1), BuildingBlock: KIFKEQ_clean_linker_1, # of connection points: 2
#     Edge 80, Type (0, 1), BuildingBlock: KIFKEQ_clean_linker_1, # of connection points: 2
#     Edge 81, Type (0, 1), BuildingBlock: KIFKEQ_clean_linker_1, # of connection points: 2
#     Edge 82, Type (0, 1), BuildingBlock: KIFKEQ_clean_linker_1, # of connection points: 2
#     Edge 83, Type (0, 1), BuildingBlock: KIFKEQ_clean_linker_1, # of connection points: 2
#     Edge 84, Type (0, 1), BuildingBlock: KIFKEQ_clean_linker_1, # of connection points: 2
#     Edge 85, Type (0, 1), BuildingBlock: KIFKEQ_clean_linker_1, # of connection points: 2
#     Edge 86, Type (0, 1), BuildingBlock: KIFKEQ_clean_linker_1, # of connection points: 2
#     Edge 87, Type (0, 1), BuildingBlock: KIFKEQ_clean_linker_1, # of connection points: 2
#     Edge 88, Type (0, 1), BuildingBlock: KIFKEQ_clean_linker_1, # of connection points: 2
#     Edge 89, Type (0, 1), BuildingBlock: KIFKEQ_clean_linker_1, # of connection points: 2
#     Edge 90, Type (0, 1), BuildingBlock: KIFKEQ_clean_linker_1, # of connection points: 2
#     Edge 91, Type (0, 1), BuildingBlock: KIFKEQ_clean_linker_1, # of connection points: 2
#     Edge 92, Type (0, 1), BuildingBlock: KIFKEQ_clean_linker_1, # of connection points: 2
#     Edge 93, Type (0, 1), BuildingBlock: KIFKEQ_clean_linker_1, # of connection points: 2
#     Edge 94, Type (0, 1), BuildingBlock: KIFKEQ_clean_linker_1, # of connection points: 2
#     Edge 95, Type (0, 1), BuildingBlock: KIFKEQ_clean_linker_1, # of connection points: 2
#     Edge 96, Type (0, 1), BuildingBlock: KIFKEQ_clean_linker_1, # of connection points: 2
#     Edge 97, Type (0, 1), BuildingBlock: KIFKEQ_clean_linker_1, # of connection points: 2
#     Edge 98, Type (0, 1), BuildingBlock: KIFKEQ_clean_linker_1, # of connection points: 2
#     Edge 99, Type (0, 1), BuildingBlock: KIFKEQ_clean_linker_1, # of connection points: 2
#     Edge 100, Type (0, 1), BuildingBlock: KIFKEQ_clean_linker_1, # of connection points: 2
#     Edge 101, Type (0, 1), BuildingBlock: KIFKEQ_clean_linker_1, # of connection points: 2
#     Edge 102, Type (0, 1), BuildingBlock: KIFKEQ_clean_linker_1, # of connection points: 2
#     Edge 103, Type (0, 1), BuildingBlock: KIFKEQ_clean_linker_1, # of connection points: 2
#     Edge 104, Type (0, 1), BuildingBlock: KIFKEQ_clean_linker_1, # of connection points: 2
#     Edge 105, Type (0, 1), BuildingBlock: KIFKEQ_clean_linker_1, # of connection points: 2
#     Edge 106, Type (0, 1), BuildingBlock: KIFKEQ_clean_linker_1, # of connection points: 2
#     Edge 107, Type (0, 1), BuildingBlock: KIFKEQ_clean_linker_1, # of connection points: 2
#     Edge 108, Type (0, 1), BuildingBlock: KIFKEQ_clean_linker_1, # of connection points: 2
#     Edge 109, Type (0, 1), BuildingBlock: KIFKEQ_clean_linker_1, # of connection points: 2
#     Edge 110, Type (0, 1), BuildingBlock: KIFKEQ_clean_linker_1, # of connection points: 2
#     Edge 111, Type (0, 1), BuildingBlock: KIFKEQ_clean_linker_1, # of connection points: 2
#     Edge 112, Type (0, 1), BuildingBlock: KIFKEQ_clean_linker_1, # of connection points: 2
#     Edge 113, Type (0, 1), BuildingBlock: KIFKEQ_clean_linker_1, # of connection points: 2
#     Edge 114, Type (0, 1), BuildingBlock: KIFKEQ_clean_linker_1, # of connection points: 2
#     Edge 115, Type (0, 1), BuildingBlock: KIFKEQ_clean_linker_1, # of connection points: 2
#     Edge 116, Type (0, 1), BuildingBlock: KIFKEQ_clean_linker_1, # of connection points: 2
#     Edge 117, Type (0, 1), BuildingBlock: KIFKEQ_clean_linker_1, # of connection points: 2
#     Edge 118, Type (0, 1), BuildingBlock: KIFKEQ_clean_linker_1, # of connection points: 2
#     Edge 119, Type (0, 1), BuildingBlock: KIFKEQ_clean_linker_1, # of connection points: 2
#     Edge 120, Type (0, 1), BuildingBlock: KIFKEQ_clean_linker_1, # of connection points: 2
#     Edge 121, Type (0, 1), BuildingBlock: KIFKEQ_clean_linker_1, # of connection points: 2
#     Edge 122, Type (0, 1), BuildingBlock: KIFKEQ_clean_linker_1, # of connection points: 2
#     Edge 123, Type (0, 1), BuildingBlock: KIFKEQ_clean_linker_1, # of connection points: 2
#     Edge 124, Type (0, 1), BuildingBlock: KIFKEQ_clean_linker_1, # of connection points: 2
#     Edge 125, Type (0, 1), BuildingBlock: KIFKEQ_clean_linker_1, # of connection points: 2
#     Edge 126, Type (0, 1), BuildingBlock: KIFKEQ_clean_linker_1, # of connection points: 2
#     Edge 127, Type (0, 1), BuildingBlock: KIFKEQ_clean_linker_1, # of connection points: 2
#     Edge 128, Type (0, 1), BuildingBlock: KIFKEQ_clean_linker_1, # of connection points: 2
#     Edge 129, Type (0, 1), BuildingBlock: KIFKEQ_clean_linker_1, # of connection points: 2
#     Edge 130, Type (0, 1), BuildingBlock: KIFKEQ_clean_linker_1, # of connection points: 2
#     Edge 131, Type (0, 1), BuildingBlock: KIFKEQ_clean_linker_1, # of connection points: 2
#     Edge 132, Type (0, 1), BuildingBlock: KIFKEQ_clean_linker_1, # of connection points: 2
#     Edge 133, Type (0, 1), BuildingBlock: KIFKEQ_clean_linker_1, # of connection points: 2
#     Edge 134, Type (0, 1), BuildingBlock: KIFKEQ_clean_linker_1, # of connection points: 2
#     Edge 135, Type (0, 1), BuildingBlock: KIFKEQ_clean_linker_1, # of connection points: 2
# Relax obj value: 0.266
# Max RMSD: 0.434
# Mean RMSD: 0.171
data_MOF--net-gar--node1-KUFVIS_clean_sbu_0--node2-GEDQOX_clean_sbu_0--edge1-KIFKEQ_clean_linker_1
_symmetry_space_group_name_H-M    P1
_symmetry_Int_Tables_number       1
_symmetry_cell_setting            triclinic
loop_
_symmetry_equiv_pos_as_xyz
'x, y, z'
_cell_length_a     60.559502
_cell_length_b     58.488958
_cell_length_c     54.272632
_cell_angle_alpha  98.027728
_cell_angle_beta   97.005902
_cell_angle_gamma 98.718368
loop_
_atom_site_label
_atom_site_type_symbol
_atom_site_fract_x
_atom_site_fract_y
_atom_site_fract_z
_atom_type_partial_charge
Mn0 Mn 0.13048 0.3939 0.49475 0.0
Mn1 Mn 0.12657 0.43297 0.45474 0.0
C2 C 0.09702 0.4073 0.48493 0.0
C3 C 0.12659 0.35582 0.50389 0.0
C4 C 0.1489 0.44648 0.50902 0.0
O5 O 0.15711 0.39036 0.47565 0.0
O6 O 0.15222 0.41641 0.44929 0.0
C7 C 0.11486 0.39977 0.40668 0.0
N8 N 0.10981 0.41738 0.42313 0.0
C9 C 0.07558 0.41844 0.39596 0.0
C10 C 0.08051 0.40042 0.3787 0.0
C11 C 0.10022 0.39102 0.38412 0.0
C12 C 0.09082 0.42649 0.41813 0.0
H13 H 0.12991 0.39237 0.41074 0.0
C14 C 0.16217 0.40034 0.45706 0.0
O15 O 0.13963 0.37316 0.51888 0.0
O16 O 0.11694 0.36037 0.48286 0.0
N17 N 0.10173 0.4495 0.45762 0.0
C18 C 0.09886 0.46614 0.47666 0.0
C19 C 0.07977 0.47705 0.47431 0.0
C20 C 0.0638 0.47076 0.45243 0.0
C21 C 0.06711 0.45366 0.43305 0.0
C22 C 0.08661 0.44357 0.43633 0.0
H23 H 0.11097 0.47101 0.49358 0.0
O24 O 0.10102 0.39926 0.50584 0.0
O25 O 0.11281 0.40769 0.47088 0.0
O26 O 0.14596 0.42583 0.51443 0.0
O27 O 0.14319 0.4509 0.48697 0.0
C28 C 0.05172 0.44607 0.41071 0.0
C29 C 0.05594 0.42847 0.39219 0.0
H30 H 0.06921 0.39356 0.36131 0.0
H31 H 0.10409 0.37703 0.37095 0.0
H32 H 0.07735 0.49025 0.48935 0.0
H33 H 0.049 0.47909 0.45076 0.0
H34 H 0.03645 0.45347 0.4077 0.0
H35 H 0.04385 0.42259 0.37522 0.0
Mn36 Mn 0.99881 0.77519 0.66544 0.0
Mn37 Mn 1.02775 0.8101 0.71808 0.0
C38 C 0.03505 0.7708 0.6803 0.0
C39 C 0.97613 0.74101 0.64359 0.0
C40 C 1.02319 0.82553 0.6673 0.0
O41 O 0.97348 0.78813 0.68113 0.0
O42 O 0.99518 0.81175 0.71452 0.0
C43 C 1.00721 0.78323 0.75443 0.0
N44 N 1.02589 0.79333 0.74578 0.0
C45 C 0.05047 0.78296 0.77916 0.0
C46 C 0.03149 0.77256 0.78853 0.0
C47 C 1.00976 0.7726 0.77603 0.0
C48 C 0.04686 0.79307 0.75743 0.0
H49 H 0.9905 0.7833 0.74494 0.0
C50 C 0.97615 0.8034 0.70093 0.0
O51 O 0.97843 0.7602 0.63399 0.0
O52 O 0.98517 0.74242 0.66683 0.0
N53 N 0.05962 0.8108 0.72479 0.0
C54 C 0.07617 0.82118 0.71306 0.0
C55 C 0.09889 0.82305 0.72347 0.0
C56 C 0.10436 0.81452 0.74597 0.0
C57 C 0.08706 0.80391 0.7577 0.0
C58 C 0.06472 0.80281 0.74663 0.0
H59 H 0.07208 0.8281 0.69597 0.0
O60 O 1.02671 0.76381 0.65685 0.0
O61 O 1.02208 0.78023 0.69469 0.0
O62 O 1.01009 0.80701 0.65572 0.0
O63 O 0.03111 0.82844 0.69062 0.0
C64 C 0.09112 0.79423 0.77985 0.0
C65 C 0.07283 0.78359 0.79045 0.0
H66 H 0.03339 0.76442 0.80523 0.0
H67 H 0.99503 0.76454 0.78308 0.0
H68 H 0.11216 0.83119 0.71425 0.0
H69 H 0.12189 0.81611 0.75403 0.0
H70 H 0.10823 0.79464 0.7887 0.0
H71 H 0.07616 0.77596 0.80731 0.0
Mn72 Mn 0.6265 0.88645 1.002 0.0
Mn73 Mn 0.63101 0.92676 0.96316 0.0
C74 C 0.59499 0.90007 0.98543 0.0
C75 C 0.62062 0.84821 1.0102 0.0
C76 C 0.64401 0.9386 0.0198 0.0
O77 O 0.65649 0.88349 0.98969 0.0
O78 O 0.6569 0.90957 0.96269 0.0
C79 C 0.6261 0.89543 0.91416 0.0
N80 N 0.61903 0.91269 0.92922 0.0
C81 C 0.58974 0.91586 0.89626 0.0
C82 C 0.59689 0.89829 0.88037 0.0
C83 C 0.61512 0.88801 0.88938 0.0
C84 C 0.60149 0.92272 0.92071 0.0
H85 H 0.63995 0.88728 0.92098 0.0
C86 C 0.66483 0.89315 0.97237 0.0
O87 O 0.63134 0.86547 0.02712 0.0
O88 O 0.61428 0.85296 0.98801 0.0
N89 N 0.60625 0.94373 0.96127 0.0
C90 C 0.60023 0.95913 0.97948 0.0
C91 C 0.58182 0.97038 0.97372 0.0
C92 C 0.56965 0.96562 0.94933 0.0
C93 C 0.57601 0.94961 0.93092 0.0
C94 C 0.59473 0.93916 0.93767 0.0
H95 H 0.60923 0.96266 0.99834 0.0
O96 O 0.59511 0.89143 1.00622 0.0
O97 O 0.61335 0.90086 0.97535 0.0
O98 O 0.6392 0.91778 0.02417 0.0
O99 O 0.64293 0.94359 0.99757 0.0
C100 C 0.56423 0.94328 0.90628 0.0
C101 C 0.57108 0.92641 0.88897 0.0
H102 H 0.58833 0.89236 0.86131 0.0
H103 H 0.62064 0.87432 0.87729 0.0
H104 H 0.57693 0.98261 0.98809 0.0
H105 H 0.55531 0.97416 0.94502 0.0
H106 H 0.54966 0.95102 0.90056 0.0
H107 H 0.56167 0.92142 0.87019 0.0
Mn108 Mn 0.49581 0.27942 0.17031 0.0
Mn109 Mn 0.45086 0.26963 0.12567 0.0
C110 C 0.48279 0.2418 0.14953 0.0
C111 C 0.53408 0.29068 0.18377 0.0
C112 C 0.44911 0.28257 0.18139 0.0
O113 O 0.4932 0.31151 0.16091 0.0
O114 O 0.46767 0.30161 0.12554 0.0
C115 C 0.47114 0.26953 0.07872 0.0
N116 N 0.45799 0.25809 0.09337 0.0
C117 C 0.45077 0.22269 0.06302 0.0
C118 C 0.46417 0.23413 0.04757 0.0
C119 C 0.47438 0.25766 0.05546 0.0
C120 C 0.44791 0.23551 0.08586 0.0
H121 H 0.47926 0.28752 0.08483 0.0
C122 C 0.48286 0.31637 0.14081 0.0
O123 O 0.5194 0.29343 0.19895 0.0
O124 O 0.52653 0.28156 0.16045 0.0
N125 N 0.43447 0.23866 0.12438 0.0
C126 C 0.42321 0.22972 0.14211 0.0
C127 C 0.41269 0.20613 0.1375 0.0
C128 C 0.41388 0.19194 0.11475 0.0
C129 C 0.42556 0.2015 0.09678 0.0
C130 C 0.43556 0.22519 0.10233 0.0
H131 H 0.42233 0.24044 0.1597 0.0
O132 O 0.49481 0.24545 0.17171 0.0
O133 O 0.47864 0.26049 0.14071 0.0
O134 O 0.46888 0.27934 0.18852 0.0
O135 O 0.44106 0.28146 0.15829 0.0
C136 C 0.42802 0.18832 0.07378 0.0
C137 C 0.44059 0.19892 0.0569 0.0
H138 H 0.46691 0.22495 0.02974 0.0
H139 H 0.48485 0.26657 0.04372 0.0
H140 H 0.40377 0.19885 0.15151 0.0
H141 H 0.40589 0.17369 0.11136 0.0
H142 H 0.42049 0.16996 0.06901 0.0
H143 H 0.44257 0.18854 0.0394 0.0
Mn144 Mn 0.05664 0.80645 0.26236 0.0
Mn145 Mn 1.01572 0.79079 0.21142 0.0
C146 C 0.04631 0.76725 0.24208 0.0
C147 C 0.09695 0.81626 0.27839 0.0
C148 C 1.00435 0.80226 0.26459 0.0
O149 O 0.0551 0.83797 0.24941 0.0
O150 O 1.02735 0.82491 0.21628 0.0
C151 C 0.04415 0.80012 0.17202 0.0
N152 N 0.02947 0.78504 0.18178 0.0
C153 C 0.02923 0.75398 0.14755 0.0
C154 C 0.04425 0.76922 0.13708 0.0
C155 C 0.05178 0.79237 0.14941 0.0
C156 C 1.02213 0.76273 0.17007 0.0
H157 H 0.05002 0.81791 0.18144 0.0
C158 C 0.04183 0.84123 0.23031 0.0
O159 O 0.08166 0.82102 0.29229 0.0
O160 O 0.08893 0.80719 0.2554 0.0
N161 N 1.00326 0.75806 0.20439 0.0
C162 C 0.99016 0.74513 0.21793 0.0
C163 C 0.98187 0.72134 0.20864 0.0
C164 C 0.98707 0.71112 0.18554 0.0
C165 C 1.00055 0.72479 0.17192 0.0
C166 C 1.00819 0.74845 0.18202 0.0
H167 H 0.98624 0.75286 0.23577 0.0
O168 O 0.05554 0.77208 0.26547 0.0
O169 O 0.04258 0.78527 0.23189 0.0
O170 O 1.02496 0.80737 0.27618 0.0
O171 O 0.99987 0.79581 0.24078 0.0
C172 C 1.00711 0.71573 0.14901 0.0
C173 C 1.02146 0.73031 0.13684 0.0
H174 H 0.05028 0.76327 0.11972 0.0
H175 H 0.06345 0.80419 0.1415 0.0
H176 H 0.97158 0.71088 0.21933 0.0
H177 H 0.98085 0.6927 0.17858 0.0
H178 H 1.00155 0.69747 0.14081 0.0
H179 H 1.0267 0.72305 0.11946 0.0
Mn180 Mn 0.56348 0.84223 0.41894 0.0
Mn181 Mn 0.55878 0.87256 0.37054 0.0
C182 C 0.52686 0.84444 0.399 0.0
C183 C 0.56927 0.80989 0.43896 0.0
C184 C 0.56834 0.89606 0.42506 0.0
O185 O 0.59564 0.84553 0.40878 0.0
O186 O 0.59055 0.86525 0.37654 0.0
C187 C 0.56392 0.83495 0.33012 0.0
N188 N 0.55179 0.85101 0.33965 0.0
C189 C 0.52309 0.84043 0.3033 0.0
C190 C 0.53536 0.82391 0.29302 0.0
C191 C 0.55584 0.82112 0.30652 0.0
C192 C 0.53202 0.85376 0.32686 0.0
H193 H 0.57963 0.83269 0.34045 0.0
C194 C 0.60313 0.85517 0.39095 0.0
O195 O 0.57446 0.83129 0.45032 0.0
O196 O 0.56087 0.80683 0.41521 0.0
N197 N 0.52979 0.88088 0.36179 0.0
C198 C 0.51945 0.89675 0.37487 0.0
C199 C 0.4985 0.90116 0.36424 0.0
C200 C 0.48853 0.88946 0.34017 0.0
C201 C 0.49961 0.87343 0.32694 0.0
C202 C 0.52051 0.86978 0.33846 0.0
H203 H 0.52701 0.90583 0.39337 0.0
O204 O 0.53039 0.83964 0.42163 0.0
O205 O 0.54508 0.84722 0.388 0.0
O206 O 0.56836 0.87696 0.43369 0.0
O207 O 0.5653 0.89677 0.40148 0.0
C208 C 0.49048 0.86046 0.30305 0.0
C209 C 0.50219 0.84395 0.29126 0.0
H210 H 0.52915 0.81315 0.27486 0.0
H211 H 0.56535 0.80833 0.29877 0.0
H212 H 0.49003 0.91352 0.37459 0.0
H213 H 0.47229 0.89278 0.33212 0.0
H214 H 0.47431 0.86282 0.29373 0.0
H215 H 0.49487 0.8339 0.27302 0.0
Mn216 Mn 0.55613 0.3062 0.76214 0.0
Mn217 Mn 0.51526 0.291 0.71111 0.0
C218 C 0.546 0.26721 0.74121 0.0
C219 C 0.59638 0.31581 0.77849 0.0
C220 C 0.50381 0.30168 0.76433 0.0
O221 O 0.55454 0.33794 0.74967 0.0
O222 O 0.52667 0.32519 0.7166 0.0
C223 C 0.54364 0.30131 0.67194 0.0
N224 N 0.52907 0.28589 0.68142 0.0
C225 C 0.52909 0.25536 0.64674 0.0
C226 C 0.544 0.27095 0.63654 0.0
C227 C 0.55134 0.29401 0.64923 0.0
C228 C 0.5219 0.26367 0.66936 0.0
H229 H 0.54936 0.31903 0.68164 0.0
C230 C 0.54114 0.34143 0.73078 0.0
O231 O 0.581 0.32038 0.79232 0.0
O232 O 0.5885 0.30714 0.75535 0.0
N233 N 0.50304 0.25822 0.70353 0.0
C234 C 0.49009 0.2449 0.71685 0.0
C235 C 0.48201 0.22114 0.7072 0.0
C236 C 0.4873 0.21135 0.68397 0.0
C237 C 0.50064 0.22541 0.67058 0.0
C238 C 0.50806 0.24902 0.68104 0.0
H239 H 0.48614 0.25228 0.73481 0.0
O240 O 0.55508 0.27171 0.76465 0.0
O241 O 0.54221 0.28539 0.73136 0.0
O242 O 0.52441 0.30684 0.7759 0.0
O243 O 0.49932 0.29538 0.7405 0.0
C244 C 0.5073 0.2168 0.64757 0.0
C245 C 0.52153 0.23176 0.63566 0.0
H246 H 0.5501 0.26535 0.61912 0.0
H247 H 0.56293 0.30611 0.64154 0.0
H248 H 0.47184 0.21037 0.71772 0.0
H249 H 0.48125 0.19296 0.67672 0.0
H250 H 0.50191 0.19859 0.63909 0.0
H251 H 0.52685 0.22483 0.6182 0.0
Mn252 Mn 0.06313 0.34249 0.91923 0.0
Mn253 Mn 0.05772 0.37265 0.87081 0.0
C254 C 1.0263 0.34427 0.89963 0.0
C255 C 0.06947 0.31027 0.93914 0.0
C256 C 0.0676 0.39628 0.92532 0.0
O257 O 0.09515 0.34606 0.90875 0.0
O258 O 0.0896 0.36549 0.87634 0.0
C259 C 0.06263 0.33514 0.83017 0.0
N260 N 0.05049 0.35108 0.83994 0.0
C261 C 1.02139 0.34027 0.80399 0.0
C262 C 0.03367 0.32386 0.79346 0.0
C263 C 0.05435 0.32126 0.80664 0.0
C264 C 0.03054 0.35367 0.82745 0.0
H265 H 0.0785 0.33301 0.84025 0.0
C266 C 0.10238 0.35556 0.89071 0.0
O267 O 0.07454 0.33169 0.9505 0.0
O268 O 0.06084 0.30714 0.91546 0.0
N269 N 1.02856 0.38075 0.86251 0.0
C270 C 1.01821 0.39645 0.87585 0.0
C271 C 0.99704 0.40061 0.86559 0.0
C272 C 0.98684 0.38883 0.84163 0.0
C273 C 0.99792 0.37298 0.82813 0.0
C274 C 1.01904 0.36958 0.83928 0.0
H275 H 1.02593 0.40557 0.89428 0.0
O276 O 0.03011 0.33957 0.92227 0.0
O277 O 0.0444 0.34724 0.88843 0.0
O278 O 0.06777 0.37721 0.93396 0.0
O279 O 0.06445 0.39693 0.90173 0.0
C280 C 0.98857 0.35994 0.80434 0.0
C281 C 1.00028 0.34358 0.79229 0.0
H282 H 1.02729 0.31306 0.77536 0.0
H283 H 0.06387 0.30855 0.7987 0.0
H284 H 0.98857 0.41283 0.87616 0.0
H285 H 0.97041 0.39193 0.83389 0.0
H286 H 0.97222 0.36212 0.79531 0.0
H287 H 0.99279 0.33346 0.77414 0.0
Mn288 Mn 0.46945 0.14519 0.33515 0.0
Mn289 Mn 0.42718 0.13869 0.37062 0.0
C290 C 0.45404 0.10833 0.34198 0.0
C291 C 0.48255 0.14602 0.29605 0.0
C292 C 0.4765 0.15297 0.39328 0.0
O293 O 0.4578 0.17674 0.33566 0.0
O294 O 0.43 0.1694 0.3589 0.0
C295 C 0.38921 0.1374 0.33015 0.0
N296 N 0.39915 0.12751 0.34892 0.0
C297 C 0.36777 0.09565 0.34266 0.0
C298 C 0.35714 0.10557 0.32336 0.0
C299 C 0.36796 0.12648 0.31701 0.0
C300 C 0.38902 0.10723 0.35496 0.0
H301 H 0.39743 0.15349 0.32522 0.0
C302 C 0.44105 0.1825 0.34598 0.0
O303 O 0.4954 0.15535 0.31709 0.0
O304 O 0.46173 0.13788 0.29767 0.0
N305 N 0.42175 0.10969 0.38327 0.0
C306 C 0.43436 0.10221 0.40215 0.0
C307 C 0.42576 0.08172 0.41101 0.0
C308 C 0.40419 0.0693 0.40064 0.0
C309 C 0.39147 0.07735 0.38135 0.0
C310 C 0.4008 0.09804 0.37348 0.0
H311 H 0.45081 0.11184 0.41052 0.0
O312 O 0.47398 0.11211 0.33544 0.0
O313 O 0.44338 0.12603 0.34398 0.0
O314 O 0.48447 0.15323 0.37248 0.0
O315 O 0.45537 0.14921 0.39455 0.0
C316 C 0.36994 0.0656 0.36952 0.0
C317 C 0.35817 0.07465 0.35006 0.0
H318 H 0.34073 0.09723 0.31322 0.0
H319 H 0.35991 0.1342 0.30207 0.0
H320 H 0.43568 0.07561 0.42592 0.0
H321 H 0.39755 0.05359 0.40763 0.0
H322 H 0.36239 0.04945 0.37506 0.0
H323 H 0.34174 0.06531 0.34091 0.0
Mn324 Mn 0.28457 0.16496 0.51261 0.0
Mn325 Mn 0.25632 0.12629 0.46271 0.0
C326 C 0.24617 0.15483 0.50903 0.0
C327 C 0.30532 0.17368 0.55251 0.0
C328 C 0.27408 0.1772 0.46042 0.0
O329 O 0.30892 0.15007 0.49792 0.0
O330 O 0.28853 0.12147 0.46793 0.0
C331 C 0.25819 0.08238 0.48365 0.0
N332 N 0.24589 0.09705 0.47297 0.0
C333 C 0.21102 0.07178 0.47473 0.0
C334 C 0.22336 0.05616 0.48522 0.0
C335 C 0.24704 0.06154 0.48979 0.0
C336 C 0.22307 0.09214 0.46867 0.0
H337 H 0.27634 0.08668 0.48771 0.0
C338 C 0.30727 0.1322 0.48101 0.0
O339 O 0.30737 0.18799 0.53637 0.0
O340 O 0.2917 0.15382 0.54519 0.0
N341 N 0.22503 0.12872 0.45603 0.0
C342 C 0.21558 0.14655 0.44787 0.0
C343 C 0.19197 0.14451 0.44367 0.0
C344 C 0.17831 0.12417 0.44782 0.0
C345 C 0.18839 0.106 0.45604 0.0
C346 C 0.21202 0.10889 0.45964 0.0
H347 H 0.22594 0.16231 0.4448 0.0
O348 O 0.25655 0.17405 0.52336 0.0
O349 O 0.25869 0.14178 0.49772 0.0
O350 O 0.28135 0.18302 0.48374 0.0
O351 O 0.26554 0.15617 0.45016 0.0
C352 C 0.17593 0.0854 0.46144 0.0
C353 C 0.18724 0.0683 0.47079 0.0
H354 H 0.21481 0.0402 0.49026 0.0
H355 H 0.25668 0.04975 0.49824 0.0
H356 H 0.18432 0.15865 0.43739 0.0
H357 H 0.16011 0.1228 0.44485 0.0
H358 H 0.15765 0.08272 0.45892 0.0
H359 H 0.17747 0.05274 0.47532 0.0
Mn360 Mn 0.19514 0.073 0.84499 0.0
Mn361 Mn 0.2372 0.08425 0.89374 0.0
C362 C 0.21453 0.11312 0.85898 0.0
C363 C 0.17869 0.06626 0.80104 0.0
C364 C 0.18711 0.073 0.9016 0.0
O365 O 0.20639 0.03962 0.84475 0.0
O366 O 0.23455 0.05005 0.87737 0.0
C367 C 0.27632 0.07875 0.86683 0.0
N368 N 0.26567 0.09227 0.88241 0.0
C369 C 0.29589 0.12511 0.88675 0.0
C370 C 0.30723 0.11146 0.87093 0.0
C371 C 0.29739 0.08819 0.86092 0.0
C372 C 0.27505 0.11468 0.89223 0.0
H373 H 0.26881 0.06091 0.85888 0.0
C374 C 0.2233 0.03454 0.85902 0.0
O375 O 0.16747 0.0602 0.8186 0.0
O376 O 0.19999 0.07433 0.80852 0.0
N377 N 0.24223 0.11616 0.91029 0.0
C378 C 0.22836 0.12758 0.9236 0.0
C379 C 0.23532 0.15133 0.93399 0.0
C380 C 0.25642 0.16313 0.93055 0.0
C381 C 0.27039 0.15105 0.91672 0.0
C382 C 0.26263 0.12733 0.90696 0.0
H383 H 0.212 0.11875 0.92611 0.0
O384 O 0.19369 0.10808 0.8482 0.0
O385 O 0.22299 0.09427 0.86279 0.0
O386 O 0.17967 0.07078 0.878 0.0
O387 O 0.20848 0.077 0.90915 0.0
C388 C 0.29145 0.1618 0.91173 0.0
C389 C 0.30421 0.14883 0.89679 0.0
H390 H 0.32338 0.11875 0.86612 0.0
H391 H 0.30597 0.07759 0.84856 0.0
H392 H 0.22437 0.16057 0.94449 0.0
H393 H 0.26163 0.18151 0.93838 0.0
H394 H 0.29784 0.18013 0.91898 0.0
H395 H 0.32024 0.15738 0.8928 0.0
Mn396 Mn 0.25417 0.92463 0.0908 0.0
Mn397 Mn 0.26143 0.96766 0.05528 0.0
C398 C 0.28997 0.9416 0.08545 0.0
C399 C 0.253 0.91133 0.12976 0.0
C400 C 0.24901 0.91606 0.03263 0.0
O401 O 0.22343 0.93648 0.08953 0.0
O402 O 0.2311 0.96454 0.06579 0.0
C403 C 0.26014 1.00789 0.09462 0.0
N404 N 0.27095 0.99721 0.07687 0.0
C405 C 0.30118 0.03027 0.08379 0.0
C406 C 0.29033 0.04166 0.10206 0.0
C407 C 0.26978 0.03035 0.1076 0.0
C408 C 0.29094 1.00775 0.07175 0.0
H409 H 0.24427 0.99938 0.09885 0.0
C410 C 0.21813 0.95358 0.07882 0.0
O411 O 0.24463 0.89774 0.10862 0.0
O412 O 0.26003 0.93312 0.12841 0.0
N413 N 0.29028 0.97334 0.0441 0.0
C414 C 0.29871 0.95998 0.02606 0.0
C415 C 0.31927 0.96874 0.01849 0.0
C416 C 0.33073 0.99132 0.02912 0.0
C417 C 0.32149 1.00496 0.04722 0.0
C418 C 0.30104 0.99524 0.05419 0.0
H419 H 0.28987 0.94274 1.0175 0.0
O420 O 0.28652 0.92083 0.09148 0.0
O421 O 0.27253 0.95188 0.08265 0.0
O422 O 0.24778 0.90827 0.05344 0.0
O423 O 0.2527 0.93793 0.03138 0.0
C424 C 0.33173 0.02787 0.05852 0.0
C425 C 0.32172 0.04043 0.077 0.0
H426 H 0.29763 0.05906 0.11197 0.0
H427 H 0.26132 0.039 0.12171 0.0
H428 H 0.32621 0.95814 1.00439 0.0
H429 H 0.34658 0.99803 0.02323 0.0
H430 H 0.34746 0.03591 0.05336 0.0
H431 H 0.32995 0.0579 0.08584 0.0
Mn432 Mn 0.34932 0.50821 0.16572 0.0
Mn433 Mn 0.37078 0.56128 0.15294 0.0
C434 C 0.38525 0.51492 0.15614 0.0
C435 C 0.34112 0.48092 0.19179 0.0
C436 C 0.34143 0.52424 0.11406 0.0
O437 O 0.32759 0.52808 0.17896 0.0
O438 O 0.34098 0.56094 0.1649 0.0
C439 C 0.37843 0.58371 0.20646 0.0
N440 N 0.38652 0.57855 0.18435 0.0
C441 C 0.42371 0.59905 0.20255 0.0
C442 C 0.41575 0.60463 0.22546 0.0
C443 C 0.39302 0.59685 0.22743 0.0
C444 C 0.40846 0.58557 0.18241 0.0
H445 H 0.361 0.57786 0.20813 0.0
C446 C 0.32633 0.5488 0.1751 0.0
O447 O 0.3294 0.47939 0.16981 0.0
O448 O 0.35715 0.49895 0.19916 0.0
N449 N 0.39948 0.5657 0.14129 0.0
C450 C 0.40392 0.56099 0.11725 0.0
C451 C 0.42555 0.56875 0.11165 0.0
C452 C 0.44228 0.58186 0.13067 0.0
C453 C 0.43714 0.58728 0.15507 0.0
C454 C 0.4152 0.57923 0.15946 0.0
H455 H 0.39101 0.55145 0.10243 0.0
O456 O 0.37415 0.49377 0.15347 0.0
O457 O 0.37544 0.53194 0.16533 0.0
O458 O 0.33658 0.51059 0.12973 0.0
O459 O 0.35542 0.54355 0.1199 0.0
C460 C 0.4528 0.6008 0.17507 0.0
C461 C 0.44614 0.60651 0.19886 0.0
H462 H 0.42691 0.61493 0.24163 0.0
H463 H 0.38675 0.60105 0.24506 0.0
H464 H 0.42928 0.56478 0.09267 0.0
H465 H 0.45889 0.588 0.12622 0.0
H466 H 0.46995 0.60705 0.17229 0.0
H467 H 0.4583 0.61696 0.21409 0.0
Mn468 Mn 0.87243 0.23566 0.09508 0.0
Mn469 Mn 0.85148 0.18729 0.0517 0.0
C470 C 0.83441 0.21954 0.08854 0.0
C471 C 0.88335 0.25494 0.13725 0.0
C472 C 0.86275 0.23577 0.03782 0.0
O473 O 0.90144 0.22114 0.08977 0.0
O474 O 0.88458 0.19012 0.06033 0.0
C475 C 0.86099 0.15123 0.08293 0.0
N476 N 0.84597 0.16075 0.06846 0.0
C477 C 0.81507 0.13169 0.07397 0.0
C478 C 0.83023 0.12152 0.08882 0.0
C479 C 0.85328 0.13136 0.09334 0.0
C480 C 0.82375 0.15141 0.06398 0.0
H481 H 0.87871 0.15875 0.08654 0.0
C482 C 0.90211 0.20231 0.07444 0.0
O483 O 0.88801 0.26526 0.11833 0.0
O484 O 0.87545 0.2327 0.13176 0.0
N485 N 0.8194 0.18237 0.04217 0.0
C486 C 0.80683 0.19486 0.02835 0.0
C487 C 0.78335 0.18759 0.0226 0.0
C488 C 0.77304 0.16751 0.03099 0.0
C489 C 0.78634 0.15482 0.04499 0.0
C490 C 0.80969 0.16278 0.04995 0.0
H491 H 0.81463 0.21034 0.02187 0.0
O492 O 0.84095 0.24153 0.09759 0.0
O493 O 0.8501 0.20786 0.08284 0.0
O494 O 0.87033 0.2466 0.06015 0.0
O495 O 0.85584 0.21367 0.03276 0.0
C496 C 0.77729 0.13481 0.05456 0.0
C497 C 0.79164 0.12327 0.06906 0.0
H498 H 0.82434 0.10626 0.09701 0.0
H499 H 0.86508 0.12366 0.10487 0.0
H500 H 0.7732 0.19749 1.01181 0.0
H501 H 0.7549 0.16208 0.02671 0.0
H502 H 0.75927 0.12833 0.05114 0.0
H503 H 0.78444 0.10808 0.07658 0.0
Mn504 Mn 0.15169 0.51898 0.32891 0.0
Mn505 Mn 0.19841 0.53717 0.37232 0.0
C506 C 0.17032 0.5575 0.33583 0.0
C507 C 0.13364 0.50782 0.28686 0.0
C508 C 0.15112 0.52895 0.38623 0.0
O509 O 0.16248 0.48754 0.33371 0.0
O510 O 0.19309 0.50268 0.36284 0.0
C511 C 0.2327 0.52416 0.34092 0.0
N512 N 0.22451 0.54075 0.35569 0.0
C513 C 0.25478 0.5708 0.35076 0.0
C514 C 0.26358 0.55401 0.3356 0.0
C515 C 0.25248 0.5306 0.33065 0.0
C516 C 0.23511 0.56332 0.36064 0.0
H517 H 0.22419 0.50616 0.33696 0.0
C518 C 0.18001 0.48529 0.34863 0.0
O519 O 0.12289 0.50458 0.30574 0.0
O520 O 0.15526 0.51475 0.29236 0.0
N521 N 0.20546 0.57046 0.38252 0.0
C522 C 0.1941 0.58473 0.39633 0.0
C523 C 0.20264 0.60885 0.40232 0.0
C524 C 0.22278 0.61802 0.39414 0.0
C525 C 0.23426 0.60296 0.38011 0.0
C526 C 0.22505 0.57905 0.37491 0.0
H527 H 0.17856 0.5778 0.40258 0.0
O528 O 0.14907 0.55248 0.32677 0.0
O529 O 0.17976 0.54008 0.34139 0.0
O530 O 0.14069 0.52224 0.36379 0.0
O531 O 0.17257 0.53465 0.39127 0.0
C532 C 0.25424 0.61082 0.37068 0.0
C533 C 0.26449 0.59475 0.35601 0.0
H534 H 0.27874 0.55893 0.32749 0.0
H535 H 0.25912 0.51756 0.31888 0.0
H536 H 0.19366 0.62036 0.41311 0.0
H537 H 0.22918 0.63666 0.39856 0.0
H538 H 0.26168 0.62923 0.37428 0.0
H539 H 0.27967 0.60105 0.34857 0.0
Mn540 Mn 0.85279 1.0078 0.66906 0.0
Mn541 Mn 0.87302 0.06191 0.65771 0.0
C542 C 0.88969 1.01674 0.6627 0.0
C543 C 0.84398 0.98028 0.69482 0.0
C544 C 0.84784 0.02364 0.61698 0.0
O545 O 0.82844 0.02582 0.67904 0.0
O546 O 0.84213 0.0595 0.66678 0.0
C547 C 0.87617 0.08347 0.71108 0.0
N548 N 0.88608 0.07942 0.69002 0.0
C549 C 0.92155 0.10199 0.7112 0.0
C550 C 0.91169 0.10645 0.73306 0.0
C551 C 0.88892 0.09707 0.73302 0.0
C552 C 0.90811 0.08791 0.69006 0.0
H553 H 0.85868 0.07639 0.71119 0.0
C554 C 0.82683 0.04645 0.67513 0.0
O555 O 0.83367 0.97799 0.67201 0.0
O556 O 0.85878 0.99918 0.70312 0.0
N557 N 0.90266 0.06856 0.64872 0.0
C558 C 0.90871 0.06532 0.62527 0.0
C559 C 0.93044 0.07508 0.6215 0.0
C560 C 0.94556 0.0887 0.64173 0.0
C561 C 0.93872 0.09263 0.66549 0.0
C562 C 0.91674 0.08264 0.66802 0.0
H563 H 0.89699 0.05543 0.60951 0.0
O564 O 0.87967 0.99517 0.65999 0.0
O565 O 0.8783 0.03291 0.67047 0.0
O566 O 0.84261 1.0095 0.63211 0.0
O567 O 0.86039 0.04379 0.62392 0.0
C568 C 0.95259 0.10675 0.68653 0.0
C569 C 0.94408 0.11122 0.70946 0.0
H570 H 0.92141 0.11715 0.74994 0.0
H571 H 0.88118 0.10041 0.74982 0.0
H572 H 0.93545 0.07229 0.60299 0.0
H573 H 0.9622 0.09647 0.63868 0.0
H574 H 0.96974 0.11448 0.6852 0.0
H575 H 0.95487 0.12219 0.72549 0.0
Mn576 Mn 0.92439 0.08557 0.31252 0.0
Mn577 Mn 0.88132 0.0801 0.34794 0.0
C578 C 0.90509 0.04659 0.31778 0.0
C579 C 0.94404 0.08871 0.2749 0.0
C580 C 0.931 0.09157 0.37146 0.0
O581 O 0.91382 0.1197 0.31501 0.0
O582 O 0.88606 0.11228 0.33818 0.0
C583 C 0.84432 0.08283 0.30793 0.0
N584 N 0.85313 0.07148 0.32606 0.0
C585 C 0.82013 0.04138 0.31811 0.0
C586 C 0.81061 0.05287 0.29954 0.0
C587 C 0.8228 0.07364 0.29436 0.0
C588 C 0.84167 0.05133 0.33096 0.0
H589 H 0.85364 0.09875 0.30381 0.0
C590 C 0.89749 0.12635 0.32636 0.0
O591 O 0.95332 0.09652 0.29779 0.0
O592 O 0.92264 0.08015 0.27323 0.0
N593 N 0.87366 0.05069 0.35921 0.0
C594 C 0.88531 0.04156 0.3775 0.0
C595 C 0.87547 1.02073 0.38485 0.0
C596 C 0.85363 1.00968 0.37364 0.0
C597 C 0.84175 1.01968 0.3553 0.0
C598 C 0.85237 0.04055 0.34884 0.0
H599 H 0.90204 0.05 0.38636 0.0
O600 O 0.92532 0.05025 0.31181 0.0
O601 O 0.89637 0.0658 0.32033 0.0
O602 O 0.93859 0.09202 0.35047 0.0
O603 O 0.90979 0.0881 0.37264 0.0
C604 C 0.81993 1.00954 0.34289 0.0
C605 C 0.80918 1.02032 0.32421 0.0
H606 H 0.79402 0.04584 0.28903 0.0
H607 H 0.81563 0.08255 0.27995 0.0
H608 H 0.88471 1.01318 0.39909 0.0
H609 H 0.84618 0.99349 0.37918 0.0
H610 H 0.81138 0.99331 0.34735 0.0
H611 H 0.79251 1.01222 0.3146 0.0
Mn612 Mn 0.37761 0.74023 0.59051 0.0
Mn613 Mn 0.36449 0.69227 0.54486 0.0
C614 C 0.34094 0.72065 0.57897 0.0
C615 C 0.3843 0.7588 0.63315 0.0
C616 C 0.37273 0.74189 0.53343 0.0
O617 O 0.40863 0.72923 0.58889 0.0
O618 O 0.39719 0.698 0.55774 0.0
C619 C 0.37392 0.65623 0.57618 0.0
N620 N 0.35934 0.66469 0.56006 0.0
C621 C 0.3297 0.63235 0.56055 0.0
C622 C 0.34446 0.62325 0.57704 0.0
C623 C 0.36665 0.63527 0.58491 0.0
C624 C 0.33793 0.65326 0.55238 0.0
H625 H 0.39096 0.66541 0.58236 0.0
C626 C 0.41239 0.71142 0.5741 0.0
O627 O 0.38946 0.77006 0.61507 0.0
O628 O 0.37799 0.73633 0.62683 0.0
N629 N 0.33313 0.68445 0.53107 0.0
C630 C 0.32071 0.69601 0.5159 0.0
C631 C 0.29799 0.68653 0.5068 0.0
C632 C 0.2883 0.66519 0.51321 0.0
C633 C 0.30147 0.65345 0.52856 0.0
C634 C 0.32409 0.66364 0.53689 0.0
H635 H 0.32802 0.71243 0.5109 0.0
O636 O 0.34491 0.74253 0.58915 0.0
O637 O 0.35839 0.71097 0.57534 0.0
O638 O 0.37744 0.7523 0.55628 0.0
O639 O 0.36854 0.71962 0.52733 0.0
C640 C 0.29293 0.63224 0.53627 0.0
C641 C 0.30702 0.62172 0.55228 0.0
H642 H 0.33888 0.60715 0.58392 0.0
H643 H 0.37812 0.6284 0.59772 0.0
H644 H 0.28794 0.69569 0.49495 0.0
H645 H 0.2707 0.65805 0.50636 0.0
H646 H 0.27547 0.62403 0.53024 0.0
H647 H 0.30019 0.60556 0.55832 0.0
Mn648 Mn 0.42406 0.58504 0.81152 0.0
Mn649 Mn 0.38075 0.57985 0.84665 0.0
C650 C 0.40404 0.54612 0.81603 0.0
C651 C 0.44427 0.58835 0.77428 0.0
C652 C 0.43038 0.58978 0.8704 0.0
O653 O 0.41426 0.61961 0.81471 0.0
O654 O 0.38616 0.61223 0.83743 0.0
C655 C 0.34419 0.58385 0.8067 0.0
N656 N 0.35262 0.57203 0.8246 0.0
C657 C 0.31914 0.5425 0.81604 0.0
C658 C 0.31003 0.55449 0.7977 0.0
C659 C 0.32265 0.57521 0.79294 0.0
C660 C 0.34073 0.55191 0.82908 0.0
H661 H 0.35384 0.59974 0.80291 0.0
C662 C 0.39789 0.62637 0.82594 0.0
O663 O 0.45343 0.59516 0.79737 0.0
O664 O 0.42263 0.58081 0.77216 0.0
N665 N 0.37239 0.55031 0.85738 0.0
C666 C 0.38361 0.54072 0.8756 0.0
C667 C 0.37328 0.51991 0.88258 0.0
C668 C 0.35138 0.50936 0.8711 0.0
C669 C 0.33993 0.51983 0.85287 0.0
C670 C 0.35103 0.54065 0.84678 0.0
H671 H 0.40039 0.54878 0.88467 0.0
O672 O 0.42425 0.54953 0.81 0.0
O673 O 0.39564 0.56555 0.81889 0.0
O674 O 0.4381 0.59036 0.8495 0.0
O675 O 0.40915 0.58696 0.87149 0.0
C676 C 0.31806 0.51021 0.84023 0.0
C677 C 0.30773 0.52148 0.82174 0.0
H678 H 0.29341 0.54789 0.78705 0.0
H679 H 0.31579 0.58449 0.77872 0.0
H680 H 0.3822 0.512 0.89674 0.0
H681 H 0.34355 0.49319 0.87636 0.0
H682 H 0.30915 0.49403 0.8444 0.0
H683 H 0.291 0.51379 0.81196 0.0
Mn684 Mn 0.6489 1.01675 0.82957 0.0
Mn685 Mn 0.69439 0.03022 0.87504 0.0
C686 C 0.66876 0.05467 0.8404 0.0
C687 C 0.63347 1.00859 0.78641 0.0
C688 C 0.64617 1.02218 0.88646 0.0
O689 O 0.65827 0.98447 0.83171 0.0
O690 O 0.68838 0.99605 0.86249 0.0
C691 C 0.72964 1.01884 0.84428 0.0
N692 N 0.72133 0.03465 0.85993 0.0
C693 C 0.75259 0.06497 0.85845 0.0
C694 C 0.76153 0.04897 0.84242 0.0
C695 C 0.74999 0.02581 0.8353 0.0
C696 C 0.73236 0.05696 0.867 0.0
H697 H 0.72078 1.00106 0.83861 0.0
C698 C 0.675 0.98032 0.84642 0.0
O699 O 0.62105 1.00441 0.80375 0.0
O700 O 0.65487 1.01515 0.79406 0.0
N701 N 0.70205 0.06301 0.8882 0.0
C702 C 0.69045 0.07664 0.90245 0.0
C703 C 0.69934 0.10051 0.91044 0.0
C704 C 0.72004 0.11009 0.90374 0.0
C705 C 0.73172 0.09569 0.88919 0.0
C706 C 0.72216 0.07197 0.88199 0.0
H707 H 0.67446 0.06942 0.90752 0.0
O708 O 0.64776 0.05095 0.83031 0.0
O709 O 0.67711 0.03625 0.84467 0.0
O710 O 0.63624 1.01758 0.86363 0.0
O711 O 0.66762 0.02673 0.89228 0.0
C712 C 0.75224 0.10405 0.8811 0.0
C713 C 0.76268 0.0887 0.86576 0.0
H714 H 0.77711 0.05433 0.83527 0.0
H715 H 0.75671 1.01339 0.82284 0.0
H716 H 0.69019 0.11152 0.92161 0.0
H717 H 0.7267 0.12857 0.90969 0.0
H718 H 0.75998 0.12233 0.88627 0.0
H719 H 0.77829 0.09541 0.85937 0.0
Mn720 Mn 0.78029 0.66324 1.01685 0.0
Mn721 Mn 0.75567 0.63017 0.96178 0.0
C722 C 0.74168 0.65394 1.00849 0.0
C723 C 0.79695 0.66713 0.05829 0.0
C724 C 0.77576 0.68169 0.96734 0.0
O725 O 0.8058 0.64915 1.00352 0.0
O726 O 0.78719 0.62405 0.96934 0.0
C727 C 0.75377 0.58297 0.97613 0.0
N728 N 0.74301 0.59955 0.96705 0.0
C729 C 0.70681 0.57471 0.96295 0.0
C730 C 0.71755 0.55723 0.97188 0.0
C731 C 0.74112 0.56141 0.97855 0.0
C732 C 0.72032 0.59573 0.9606 0.0
H733 H 0.77183 0.58623 0.98166 0.0
C734 C 0.80509 0.63286 0.98503 0.0
O735 O 0.80135 0.68348 0.04483 0.0
O736 O 0.78353 0.648 0.04732 0.0
N737 N 0.72506 0.6342 0.95288 0.0
C738 C 0.71714 0.65351 0.94653 0.0
C739 C 0.69378 0.65264 0.94049 0.0
C740 C 0.67881 0.63194 0.94103 0.0
C741 C 0.68735 0.61226 0.94753 0.0
C742 C 0.71081 0.61408 0.95309 0.0
H743 H 0.72853 0.66954 0.94625 0.0
O744 O 0.75133 0.67176 0.02537 0.0
O745 O 0.75502 0.64184 0.99735 0.0
O746 O 0.78068 0.68508 0.99111 0.0
O747 O 0.76757 0.66162 0.95422 0.0
C748 C 0.67346 0.59111 0.94931 0.0
C749 C 0.68318 0.57234 0.95699 0.0
H750 H 0.70783 0.54068 0.97405 0.0
H751 H 0.74952 0.54811 0.98572 0.0
H752 H 0.68732 0.66793 0.93559 0.0
H753 H 0.66079 0.63142 0.93664 0.0
H754 H 0.65525 0.58922 0.94518 0.0
H755 H 0.6723 0.55631 0.95867 0.0
Mn756 Mn 0.968 0.64183 0.83468 0.0
Mn757 Mn 0.92662 0.63463 0.87111 0.0
C758 C 0.95305 0.60475 0.84175 0.0
C759 C 0.97982 0.64253 0.79483 0.0
C760 C 0.97613 0.65036 0.89272 0.0
O761 O 0.95592 0.67335 0.83589 0.0
O762 O 0.92777 0.66472 0.85836 0.0
C763 C 0.88783 0.63048 0.83081 0.0
N764 N 0.89852 0.62186 0.85014 0.0
C765 C 0.86795 0.58948 0.84615 0.0
C766 C 0.85642 0.59825 0.82652 0.0
C767 C 0.86651 0.61872 0.81866 0.0
C768 C 0.88931 0.60175 0.85727 0.0
H769 H 0.89556 0.64614 0.82463 0.0
C770 C 0.93852 0.67821 0.84557 0.0
O771 O 0.99316 0.65217 0.81546 0.0
O772 O 0.95925 0.6343 0.79731 0.0
N773 N 0.9229 0.60599 0.8847 0.0
C774 C 0.93637 0.59957 0.90365 0.0
C775 C 0.9289 0.57921 0.91338 0.0
C776 C 0.90747 0.56593 0.90396 0.0
C777 C 0.89369 0.57315 0.88489 0.0
C778 C 0.90209 0.59351 0.87579 0.0
H779 H 0.95268 0.60989 0.91137 0.0
O780 O 0.97273 0.60857 0.8346 0.0
O781 O 0.94258 0.62248 0.84425 0.0
O782 O 0.98377 0.64999 0.87169 0.0
O783 O 0.95505 0.64677 0.89437 0.0
C784 C 0.87188 0.56103 0.87466 0.0
C785 C 0.85911 0.56903 0.85511 0.0
H786 H 0.83989 0.58932 0.81723 0.0
H787 H 0.85783 0.62547 0.80334 0.0
H788 H 0.93958 0.57387 0.92824 0.0
H789 H 0.90175 0.55026 0.91153 0.0
H790 H 0.86487 0.54533 0.88144 0.0
H791 H 0.84254 0.55928 0.84705 0.0
Mn792 Mn 0.74823 0.41537 0.59228 0.0
Mn793 Mn 0.75818 0.45902 0.55799 0.0
C794 C 0.7844 0.42934 0.5865 0.0
C795 C 0.74648 0.40238 0.63129 0.0
C796 C 0.74295 0.408 0.53401 0.0
O797 O 0.71898 0.4295 0.59189 0.0
O798 O 0.72771 0.45753 0.56832 0.0
C799 C 0.75897 0.49884 0.5986 0.0
N800 N 0.76916 0.48786 0.58044 0.0
C801 C 0.80146 0.51884 0.58919 0.0
C802 C 0.79123 0.53055 0.60785 0.0
C803 C 0.76993 0.52046 0.61263 0.0
C804 C 0.78975 0.49732 0.57585 0.0
H805 H 0.74262 0.4912 0.6024 0.0
C806 C 0.71452 0.44694 0.58141 0.0
O807 O 0.73723 0.38897 0.61028 0.0
O808 O 0.75474 0.42378 0.62975 0.0
N809 N 0.78716 0.46331 0.54691 0.0
C810 C 0.79499 0.44958 0.52866 0.0
C811 C 0.8161 0.4572 0.52165 0.0
C812 C 0.82883 0.47897 0.53322 0.0
C813 C 0.82037 0.4929 0.55178 0.0
C814 C 0.79912 0.48449 0.55784 0.0
H815 H 0.78524 0.43291 0.5195 0.0
O816 O 0.77933 0.40863 0.59222 0.0
O817 O 0.76824 0.4416 0.58447 0.0
O818 O 0.74086 0.39974 0.5545 0.0
O819 O 0.74803 0.42992 0.53344 0.0
C820 C 0.83231 0.51468 0.5647 0.0
C821 C 0.8229 0.52759 0.58347 0.0
H822 H 0.79963 0.54722 0.61872 0.0
H823 H 0.76197 0.52933 0.62708 0.0
H824 H 0.82253 0.44634 0.50731 0.0
H825 H 0.84509 0.48481 0.52775 0.0
H826 H 0.84884 0.52154 0.56053 0.0
H827 H 0.83235 0.54419 0.59346 0.0
Mn828 Mn 0.69519 0.57225 0.34476 0.0
Mn829 Mn 0.73743 0.58414 0.39341 0.0
C830 C 0.71473 0.61247 0.35816 0.0
C831 C 0.67808 0.56457 0.30096 0.0
C832 C 0.68738 0.57303 0.40147 0.0
O833 O 0.70637 0.53895 0.34506 0.0
O834 O 0.73465 0.54982 0.37753 0.0
C835 C 0.77644 0.57808 0.36649 0.0
N836 N 0.76588 0.59184 0.38193 0.0
C837 C 0.79626 0.62448 0.38593 0.0
C838 C 0.8075 0.61059 0.37024 0.0
C839 C 0.79754 0.5873 0.36047 0.0
C840 C 0.77537 0.61426 0.39152 0.0
H841 H 0.76884 0.56023 0.35872 0.0
C842 C 0.72334 0.53411 0.35941 0.0
O843 O 0.66724 0.55935 0.31908 0.0
O844 O 0.69951 0.5725 0.30783 0.0
N845 N 0.74259 0.61619 0.40953 0.0
C846 C 0.7288 0.62785 0.42273 0.0
C847 C 0.73589 0.65163 0.43289 0.0
C848 C 0.75705 0.66322 0.42935 0.0
C849 C 0.77093 0.6509 0.41565 0.0
C850 C 0.76304 0.62716 0.40611 0.0
H851 H 0.71241 0.61916 0.42533 0.0
O852 O 0.69388 0.60737 0.3474 0.0
O853 O 0.72316 0.59367 0.3622 0.0
O854 O 0.6799 0.57046 0.37788 0.0
O855 O 0.70875 0.57729 0.40897 0.0
C856 C 0.79204 0.66143 0.41056 0.0
C857 C 0.80471 0.64822 0.39574 0.0
H858 H 0.82368 0.61769 0.36536 0.0
H859 H 0.80605 0.5765 0.34822 0.0
H860 H 0.72501 0.66106 0.44329 0.0
H861 H 0.76236 0.68163 0.437 0.0
H862 H 0.79854 0.67977 0.41763 0.0
H863 H 0.82077 0.65659 0.39168 0.0
Nd864 Nd 0.07879 0.09793 0.09167 0.0
Nd865 Nd 0.04901 0.0589 0.08249 0.0
C866 C 0.10712 0.13831 0.09983 0.0
C867 C 0.10787 0.15659 0.08327 0.0
C868 C 0.10507 0.17942 0.09261 0.0
C869 C 0.1019 0.19563 0.07627 0.0
C870 C 0.10124 0.18935 0.05008 0.0
C871 C 0.10498 0.16674 0.04094 0.0
C872 C 0.10831 0.15063 0.05729 0.0
C873 C 0.07916 0.07892 0.041 0.0
C874 C 0.02898 0.10566 0.0727 0.0
C875 C 1.02181 1.01779 0.07235 0.0
C876 C 1.02334 0.99761 0.08617 0.0
C877 C 0.04369 0.98887 0.09019 0.0
C878 C 0.04629 0.97266 0.10666 0.0
C879 C 1.02859 0.96464 0.11958 0.0
C880 C 1.00798 0.97281 0.11489 0.0
C881 C 1.00542 0.98911 0.09848 0.0
C882 C 0.04826 0.07699 0.13314 0.0
C883 C 0.09829 0.05259 0.10596 0.0
O884 O 0.08915 0.13506 0.11072 0.0
O885 O 0.11279 0.11848 0.09105 0.0
O886 O 0.07448 0.09934 0.04867 0.0
O887 O 0.07865 0.0675 0.05944 0.0
O888 O 0.04812 0.11561 0.08645 0.0
O889 O 1.02601 0.08289 0.06428 0.0
O890 O 0.03789 0.02348 0.05921 0.0
O891 O 1.01658 0.03623 0.08514 0.0
O892 O 0.0519 0.05628 0.12484 0.0
O893 O 0.04959 0.08909 0.11527 0.0
O894 O 0.07965 0.04179 0.09174 0.0
O895 O 0.10107 0.07552 0.11271 0.0
H896 H 0.10457 0.1845 0.11249 0.0
H897 H 0.09961 0.213 0.08419 0.0
H898 H 0.10442 0.16105 0.02098 0.0
H899 H 0.11036 0.13318 0.04932 0.0
H900 H 0.05793 0.99503 0.08117 0.0
H901 H 0.06228 0.96654 0.1094 0.0
H902 H 0.99401 0.96727 0.12461 0.0
H903 H 0.98966 0.99572 0.09609 0.0
Nd904 Nd 0.31735 0.85373 0.34949 0.0
Nd905 Nd 0.30807 0.80964 0.32223 0.0
C906 C 0.3229 0.89495 0.3788 0.0
C907 C 0.3364 0.9179 0.37739 0.0
C908 C 0.32796 0.93279 0.36176 0.0
C909 C 0.34191 0.95279 0.3577 0.0
C910 C 0.36455 0.95834 0.36922 0.0
C911 C 0.37265 0.94409 0.38583 0.0
C912 C 0.35869 0.92414 0.38996 0.0
C913 C 0.35797 0.84074 0.33755 0.0
C914 C 0.30931 0.85265 0.29021 0.0
C915 C 0.30368 0.76842 0.29321 0.0
C916 C 0.29359 0.74472 0.29636 0.0
C917 C 0.29682 0.73719 0.3198 0.0
C918 C 0.28452 0.71611 0.32361 0.0
C919 C 0.26854 0.70231 0.30416 0.0
C920 C 0.26588 0.70959 0.28048 0.0
C921 C 0.27834 0.73059 0.27663 0.0
C922 C 0.26744 0.82174 0.33489 0.0
C923 C 0.31552 0.81062 0.38137 0.0
O924 O 0.30552 0.88715 0.36138 0.0
O925 O 0.33433 0.87851 0.38353 0.0
O926 O 0.35146 0.86027 0.33388 0.0
O927 O 0.34209 0.82792 0.34497 0.0
O928 O 0.30855 0.86573 0.31167 0.0
O929 O 0.31322 0.8311 0.29003 0.0
O930 O 0.32223 0.77824 0.30818 0.0
O931 O 0.28941 0.78278 0.2907 0.0
O932 O 0.27436 0.80223 0.33781 0.0
O933 O 0.28299 0.83524 0.3276 0.0
O934 O 0.31698 0.79787 0.35996 0.0
O935 O 0.31118 0.83206 0.3815 0.0
H936 H 0.31079 0.92866 0.35203 0.0
H937 H 0.33502 0.96376 0.34528 0.0
H938 H 0.39002 0.94784 0.39494 0.0
H939 H 0.36564 0.91313 0.40229 0.0
H940 H 0.30832 0.74792 0.33544 0.0
H941 H 0.28728 0.71083 0.34193 0.0
H942 H 0.25353 0.69958 0.26518 0.0
H943 H 0.2754 0.73626 0.25852 0.0
Nd944 Nd 0.58032 0.09104 0.58584 0.0
Nd945 Nd 0.53865 0.06909 0.5867 0.0
C946 C 0.62165 0.1076 0.5785 0.0
C947 C 0.64321 0.10241 0.58972 0.0
C948 C 0.66233 0.12 0.59552 0.0
C949 C 0.68209 0.11589 0.60908 0.0
C950 C 0.68298 0.09408 0.61701 0.0
C951 C 0.6638 0.0764 0.61077 0.0
C952 C 0.64406 0.08058 0.59742 0.0
C953 C 0.58036 0.06952 0.62861 0.0
C954 C 0.56596 0.03883 0.55471 0.0
C955 C 0.49683 0.05237 0.59219 0.0
C956 C 0.47608 0.05979 0.58167 0.0
C957 C 0.47689 0.083 0.57741 0.0
C958 C 0.45855 0.08954 0.56377 0.0
C959 C 0.43906 0.07297 0.55391 0.0
C960 C 0.43811 0.04977 0.55846 0.0
C961 C 0.45654 0.04323 0.57229 0.0
C962 C 0.53962 0.09148 0.54455 0.0
C963 C 0.55316 0.12176 0.61784 0.0
O964 O 0.60842 0.09042 0.5632 0.0
O965 O 0.61086 0.11862 0.59435 0.0
O966 O 0.59011 0.09047 0.62781 0.0
O967 O 0.57033 0.05992 0.607 0.0
O968 O 0.57581 0.06004 0.55297 0.0
O969 O 0.55301 0.0366 0.57223 0.0
O970 O 0.51043 0.06768 0.60936 0.0
O971 O 0.50749 0.0425 0.57539 0.0
O972 O 0.53045 0.07009 0.54424 0.0
O973 O 0.5486 0.10062 0.56658 0.0
O974 O 0.54206 0.10081 0.61884 0.0
O975 O 0.56692 0.12371 0.6011 0.0
H976 H 0.66179 0.1371 0.59017 0.0
H977 H 0.69649 0.12997 0.61385 0.0
H978 H 0.664 0.05929 0.61619 0.0
H979 H 0.6293 0.06689 0.59353 0.0
H980 H 0.49206 0.09594 0.58381 0.0
H981 H 0.45994 0.10743 0.56021 0.0
H982 H 0.42322 0.0367 0.55119 0.0
H983 H 0.45582 0.02513 0.57496 0.0
Nd984 Nd 0.31761 0.33538 0.86219 0.0
Nd985 Nd 0.29946 0.32576 0.81928 0.0
C986 C 0.32751 0.34531 0.91191 0.0
C987 C 0.32568 0.36576 0.9305 0.0
C988 C 0.3065 0.36577 0.9427 0.0
C989 C 0.30417 0.38548 0.9593 0.0
C990 C 0.32103 0.40557 0.96417 0.0
C991 C 0.3403 0.40548 0.95216 0.0
C992 C 0.34264 0.38578 0.93556 0.0
C993 C 0.3309 0.3761 0.8406 0.0
C994 C 0.2646 0.34365 0.85175 0.0
C995 C 0.29028 0.31667 0.76952 0.0
C996 C 0.29799 0.30051 0.75022 0.0
C997 C 0.31799 0.3074 0.74046 0.0
C998 C 0.3256 0.29185 0.72281 0.0
C999 C 0.31336 0.26912 0.71453 0.0
C1000 C 0.29341 0.2622 0.72432 0.0
C1001 C 0.28575 0.27776 0.7419 0.0
C1002 C 0.28675 0.28506 0.84123 0.0
C1003 C 0.35208 0.31727 0.82901 0.0
O1004 O 0.30862 0.3326 0.90027 0.0
O1005 O 0.34237 0.34857 0.89678 0.0
O1006 O 0.34398 0.36483 0.85291 0.0
O1007 O 0.31065 0.36469 0.83807 0.0
O1008 O 0.28013 0.3385 0.86832 0.0
O1009 O 0.26956 0.34373 0.82895 0.0
O1010 O 0.30532 0.33415 0.78175 0.0
O1011 O 0.27748 0.3072 0.78426 0.0
O1012 O 0.27329 0.29648 0.82952 0.0
O1013 O 0.30691 0.29657 0.84335 0.0
O1014 O 0.33646 0.32249 0.81273 0.0
O1015 O 0.34735 0.31698 0.85192 0.0
H1016 H 0.29315 0.35062 0.93924 0.0
H1017 H 0.28907 0.38505 0.96817 0.0
H1018 H 0.35379 0.42051 0.9559 0.0
H1019 H 0.35771 0.38632 0.92662 0.0
H1020 H 0.32783 0.3248 0.74647 0.0
H1021 H 0.34105 0.29762 0.71559 0.0
H1022 H 0.28339 0.24494 0.71788 0.0
H1023 H 0.27021 0.27196 0.74893 0.0
Nd1024 Nd 0.06217 0.10816 0.59291 0.0
Nd1025 Nd 0.07056 0.0639 0.56967 0.0
C1026 C 0.04918 0.14872 0.6057 0.0
C1027 C 0.05448 0.16963 0.59387 0.0
C1028 C 0.04929 0.19131 0.60362 0.0
C1029 C 0.05624 0.21126 0.593 0.0
C1030 C 0.06859 0.20979 0.57256 0.0
C1031 C 0.07346 0.18785 0.56281 0.0
C1032 C 0.06642 0.16802 0.57328 0.0
C1033 C 0.1014 0.11205 0.57179 0.0
C1034 C 0.03891 0.0887 0.53389 0.0
C1035 C 0.08629 0.02563 0.55399 0.0
C1036 C 0.08346 1.00366 0.56415 0.0
C1037 C 0.09238 0.98428 0.55399 0.0
C1038 C 0.08731 0.96282 0.56253 0.0
C1039 C 0.07298 0.96063 0.5809 0.0
C1040 C 0.06465 0.98029 0.59143 0.0
C1041 C 0.06996 1.00165 0.58323 0.0
C1042 C 0.0312 0.05874 0.5902 0.0
C1043 C 0.09063 0.0817 0.63059 0.0
O1044 O 0.0359 0.13089 0.59135 0.0
O1045 O 0.06672 0.14253 0.61775 0.0
O1046 O 0.09938 0.12346 0.59323 0.0
O1047 O 0.08301 0.09955 0.56164 0.0
O1048 O 0.03613 0.10018 0.5558 0.0
O1049 O 0.05504 0.07584 0.5334 0.0
O1050 O 0.09875 0.04362 0.56901 0.0
O1051 O 0.06742 0.03063 0.54356 0.0
O1052 O 0.03396 0.04723 0.56902 0.0
O1053 O 0.04916 0.07213 0.60067 0.0
O1054 O 0.0931 0.0689 0.60921 0.0
O1055 O 0.07634 0.0967 0.63006 0.0
H1056 H 0.04018 0.19287 0.61959 0.0
H1057 H 0.05197 0.22782 0.60081 0.0
H1058 H 0.08329 0.18602 0.54749 0.0
H1059 H 0.07077 0.15143 0.56564 0.0
H1060 H 0.10276 0.98561 0.53918 0.0
H1061 H 0.09393 0.94781 0.55426 0.0
H1062 H 0.05385 0.97906 0.60588 0.0
H1063 H 0.06297 1.0165 0.59129 0.0
Nd1064 Nd 0.33224 0.8442 0.84846 0.0
Nd1065 Nd 0.29357 0.81883 0.82016 0.0
C1066 C 0.36936 0.87492 0.8662 0.0
C1067 C 0.39395 0.87698 0.871 0.0
C1068 C 0.40748 0.89835 0.86992 0.0
C1069 C 0.43069 0.90187 0.87803 0.0
C1070 C 0.44063 0.88408 0.88756 0.0
C1071 C 0.42707 0.86226 0.88745 0.0
C1072 C 0.40394 0.8587 0.8791 0.0
C1073 C 0.30107 0.83327 0.88007 0.0
C1074 C 0.3344 0.78772 0.83718 0.0
C1075 C 0.25737 0.78717 0.8011 0.0
C1076 C 0.23283 0.78274 0.79467 0.0
C1077 C 0.22074 0.80127 0.79376 0.0
C1078 C 0.19816 0.79681 0.78265 0.0
C1079 C 0.18751 0.77379 0.77222 0.0
C1080 C 0.19934 0.75518 0.77477 0.0
C1081 C 0.22188 0.75966 0.78591 0.0
C1082 C 0.32542 0.8293 0.78896 0.0
C1083 C 0.2909 0.8753 0.83269 0.0
O1084 O 0.3598 0.87192 0.84275 0.0
O1085 O 0.35799 0.86233 0.88004 0.0
O1086 O 0.32193 0.83014 0.88369 0.0
O1087 O 0.29686 0.84001 0.85909 0.0
O1088 O 0.34719 0.80878 0.84407 0.0
O1089 O 0.31243 0.78731 0.83019 0.0
O1090 O 0.26606 0.79058 0.82486 0.0
O1091 O 0.26837 0.80084 0.78797 0.0
O1092 O 0.30476 0.83296 0.7851 0.0
O1093 O 0.32903 0.82244 0.80993 0.0
O1094 O 0.27837 0.85418 0.82481 0.0
O1095 O 0.31285 0.87583 0.84007 0.0
H1096 H 0.39998 0.9126 0.86362 0.0
H1097 H 0.44073 0.9187 0.8774 0.0
H1098 H 0.43408 0.84825 0.89491 0.0
H1099 H 0.39373 0.84202 0.88001 0.0
H1100 H 0.22904 0.8192 0.80047 0.0
H1101 H 0.18928 0.81144 0.78135 0.0
H1102 H 0.19165 0.73731 0.7668 0.0
H1103 H 0.23113 0.74521 0.78639 0.0
Nd1104 Nd 0.53588 0.07928 0.07299 0.0
Nd1105 Nd 0.58414 0.08623 0.10265 0.0
C1106 C 0.49421 0.08129 0.05399 0.0
C1107 C 0.47222 0.06983 0.05911 0.0
C1108 C 0.46475 0.07573 0.08236 0.0
C1109 C 0.4458 0.06217 0.08849 0.0
C1110 C 0.43418 0.04244 0.07158 0.0
C1111 C 0.44097 0.03723 0.04792 0.0
C1112 C 0.45973 0.05092 0.04166 0.0
C1113 C 0.54963 0.03894 0.08583 0.0
C1114 C 0.5437 0.09407 0.13487 0.0
C1115 C 0.62589 0.0839 0.12155 0.0
C1116 C 0.64831 0.09695 0.1197 0.0
C1117 C 0.65815 0.09313 0.09764 0.0
C1118 C 0.67836 0.10707 0.09523 0.0
C1119 C 0.68914 0.12507 0.11481 0.0
C1120 C 0.67969 0.12835 0.13717 0.0
C1121 C 0.65953 0.11436 0.13963 0.0
C1122 C 0.57054 0.12669 0.09042 0.0
C1123 C 0.57537 0.07029 0.04087 0.0
O1124 O 0.50619 0.09727 0.07189 0.0
O1125 O 0.50636 0.0672 0.04333 0.0
O1126 O 0.53486 0.03938 0.06658 0.0
O1127 O 0.55366 0.05883 0.09931 0.0
O1128 O 0.5314 0.09476 0.11319 0.0
O1129 O 0.5634 0.08673 0.13565 0.0
O1130 O 0.61497 0.07039 0.10112 0.0
O1131 O 0.61279 0.09565 0.1338 0.0
O1132 O 0.58607 0.12618 0.10889 0.0
O1133 O 0.56633 0.10688 0.07677 0.0
O1134 O 0.58717 0.06869 0.06256 0.0
O1135 O 0.55654 0.0792 0.04016 0.0
H1136 H 0.47398 0.09023 0.09622 0.0
H1137 H 0.44077 0.06654 0.10681 0.0
H1138 H 0.43195 1.02235 0.03441 0.0
H1139 H 0.46503 0.04613 0.02356 0.0
H1140 H 0.65008 0.07967 0.08201 0.0
H1141 H 0.6855 0.10378 0.07799 0.0
H1142 H 0.68754 0.14216 0.15254 0.0
H1143 H 0.6524 0.11757 0.15689 0.0
Nd1144 Nd 0.28959 0.31225 0.30573 0.0
Nd1145 Nd 0.32152 0.34247 0.34692 0.0
C1146 C 0.25887 0.29176 0.26843 0.0
C1147 C 0.23509 0.29289 0.27217 0.0
C1148 C 0.22691 0.31388 0.26964 0.0
C1149 C 0.21362 0.32275 0.28678 0.0
C1150 C 0.20789 0.31046 0.30621 0.0
C1151 C 0.21189 0.28731 0.3051 0.0
C1152 C 0.22508 0.27841 0.28788 0.0
C1153 C 0.28189 0.30299 0.35275 0.0
C1154 C 0.2728 0.35598 0.33672 0.0
C1155 C 0.35566 0.36077 0.38244 0.0
C1156 C 0.37936 0.36398 0.3773 0.0
C1157 C 0.39115 0.34501 0.37722 0.0
C1158 C 0.40667 0.34202 0.36048 0.0
C1159 C 0.41047 0.35794 0.34364 0.0
C1160 C 0.4023 0.37918 0.34754 0.0
C1161 C 0.38703 0.38231 0.3645 0.0
C1162 C 0.31843 0.36078 0.30326 0.0
C1163 C 0.33944 0.29854 0.31457 0.0
O1164 O 0.27132 0.312 0.26757 0.0
O1165 O 0.26943 0.27949 0.283 0.0
O1166 O 0.26609 0.30397 0.33484 0.0
O1167 O 0.3008 0.30716 0.34558 0.0
O1168 O 0.27328 0.34488 0.314 0.0
O1169 O 0.28793 0.35384 0.35567 0.0
O1170 O 0.34544 0.33906 0.38026 0.0
O1171 O 0.3428 0.37352 0.37148 0.0
O1172 O 0.3199 0.37294 0.32533 0.0
O1173 O 0.31963 0.3396 0.30438 0.0
O1174 O 0.34509 0.31871 0.33012 0.0
O1175 O 0.31861 0.29135 0.3028 0.0
H1176 H 0.2336 0.3252 0.25714 0.0
H1177 H 0.21019 0.34036 0.28653 0.0
H1178 H 0.20676 0.27693 0.31912 0.0
H1179 H 0.23023 0.26171 0.28971 0.0
H1180 H 0.38616 0.33087 0.38742 0.0
H1181 H 0.41317 0.32571 0.35844 0.0
H1182 H 0.40567 0.39219 0.33548 0.0
H1183 H 0.37894 0.39763 0.36481 0.0
Nd1184 Nd 0.55904 0.59963 0.09149 0.0
Nd1185 Nd 0.56939 0.55633 0.06778 0.0
C1186 C 0.54375 0.63853 0.10551 0.0
C1187 C 0.547 0.65952 0.09352 0.0
C1188 C 0.54125 0.68068 0.104 0.0
C1189 C 0.54689 0.70097 0.09346 0.0
C1190 C 0.55855 0.70034 0.07245 0.0
C1191 C 0.56377 0.67884 0.06183 0.0
C1192 C 0.55799 0.65868 0.07219 0.0
C1193 C 0.59803 0.60577 0.06992 0.0
C1194 C 0.53665 0.58074 0.03224 0.0
C1195 C 0.58556 0.51842 0.0518 0.0
C1196 C 0.58238 0.49551 0.06045 0.0
C1197 C 0.5856 0.49416 0.08629 0.0
C1198 C 0.57688 0.47371 0.09487 0.0
C1199 C 0.56453 0.45443 0.07782 0.0
C1200 C 0.56269 0.45522 0.05191 0.0
C1201 C 0.57167 0.47555 0.0433 0.0
C1202 C 0.53024 0.5494 0.08849 0.0
C1203 C 0.58948 0.57461 0.12834 0.0
O1204 O 0.53099 0.62009 0.09158 0.0
O1205 O 0.56243 0.63364 0.11661 0.0
O1206 O 0.59576 0.6168 0.0915 0.0
O1207 O 0.58003 0.59245 0.05994 0.0
O1208 O 0.53337 0.59159 0.05422 0.0
O1209 O 0.55326 0.56843 0.03167 0.0
O1210 O 0.59775 0.53619 0.06744 0.0
O1211 O 0.56708 0.52372 0.04078 0.0
O1212 O 0.53322 0.53803 0.06737 0.0
O1213 O 0.54791 0.5632 0.09888 0.0
O1214 O 0.5936 0.56377 0.10662 0.0
O1215 O 0.57304 0.58715 0.12801 0.0
H1216 H 0.53287 0.68161 0.12055 0.0
H1217 H 0.54236 0.71717 0.10193 0.0
H1218 H 0.57313 0.67767 0.04605 0.0
H1219 H 0.56279 0.64249 0.06401 0.0
H1220 H 0.59354 0.50934 0.10002 0.0
H1221 H 0.57845 0.47357 0.11495 0.0
H1222 H 0.55345 0.44045 0.03839 0.0
H1223 H 0.56885 0.47624 0.02333 0.0
Nd1224 Nd 0.83115 0.34326 0.35228 0.0
Nd1225 Nd 0.79442 0.31932 0.32084 0.0
C1226 C 0.86621 0.37441 0.37576 0.0
C1227 C 0.89051 0.38049 0.38384 0.0
C1228 C 0.90558 0.36682 0.37429 0.0
C1229 C 0.92852 0.37225 0.38419 0.0
C1230 C 0.93642 0.39119 0.40387 0.0
C1231 C 0.92125 0.40507 0.41287 0.0
C1232 C 0.89846 0.39976 0.40287 0.0
C1233 C 0.7977 0.33058 0.38069 0.0
C1234 C 0.83369 0.28719 0.33876 0.0
C1235 C 0.75805 0.29013 0.29698 0.0
C1236 C 0.7344 0.29074 0.28829 0.0
C1237 C 0.7233 0.30783 0.29971 0.0
C1238 C 0.70175 0.31008 0.28889 0.0
C1239 C 0.69134 0.29553 0.26637 0.0
C1240 C 0.70234 0.27809 0.25541 0.0
C1241 C 0.72371 0.27569 0.26635 0.0
C1242 C 0.82843 0.33122 0.29267 0.0
C1243 C 0.79142 0.37537 0.3347 0.0
O1244 O 0.85857 0.373 0.35188 0.0
O1245 O 0.85523 0.35858 0.38656 0.0
O1246 O 0.81825 0.32676 0.38504 0.0
O1247 O 0.79482 0.33858 0.36024 0.0
O1248 O 0.84645 0.30816 0.34659 0.0
O1249 O 0.81188 0.28701 0.33109 0.0
O1250 O 0.76442 0.29237 0.32123 0.0
O1251 O 0.77238 0.30227 0.2857 0.0
O1252 O 0.80812 0.33574 0.28821 0.0
O1253 O 0.83082 0.32342 0.31324 0.0
O1254 O 0.77911 0.35448 0.32533 0.0
O1255 O 0.81297 0.37558 0.34359 0.0
H1256 H 0.89955 0.35177 0.35968 0.0
H1257 H 0.93993 0.3612 0.3771 0.0
H1258 H 0.92698 0.41989 0.42783 0.0
H1259 H 0.88692 0.41041 0.41041 0.0
H1260 H 0.73154 0.31984 0.31646 0.0
H1261 H 0.69357 0.3237 0.29758 0.0
H1262 H 0.69449 0.2665 0.23821 0.0
H1263 H 0.73221 0.26258 0.25722 0.0
Nd1264 Nd 0.03865 0.57015 0.57347 0.0
Nd1265 Nd 0.08116 0.60349 0.59746 0.0
C1266 C 0.99773 0.54808 0.55372 0.0
C1267 C 0.9778 0.53467 0.56099 0.0
C1268 C 0.96535 0.54481 0.57847 0.0
C1269 C 0.94598 0.53164 0.58417 0.0
C1270 C 0.9389 0.5082 0.57254 0.0
C1271 C 0.95178 0.49801 0.55562 0.0
C1272 C 0.97096 0.51118 0.54977 0.0
C1273 C 0.07309 0.54793 0.58966 0.0
C1274 C 0.0433 0.59397 0.63364 0.0
C1275 C 0.12233 0.62653 0.6139 0.0
C1276 C 0.14448 0.62893 0.60508 0.0
C1277 C 0.16108 0.61677 0.61451 0.0
C1278 C 0.18267 0.62054 0.60771 0.0
C1279 C 0.18801 0.63663 0.59148 0.0
C1280 C 0.17113 0.64806 0.5813 0.0
C1281 C 0.1496 0.64429 0.58806 0.0
C1282 C 0.04597 0.62476 0.58172 0.0
C1283 C 0.07688 0.5785 0.53839 0.0
O1284 O 1.0024 0.57064 0.56186 0.0
O1285 O 1.0156 0.5381 0.55417 0.0
O1286 O 0.05813 0.53964 0.57012 0.0
O1287 O 0.06861 0.56647 0.60143 0.0
O1288 O 0.02981 0.58245 0.61316 0.0
O1289 O 0.06496 0.60142 0.63328 0.0
O1290 O 0.11464 0.60647 0.6205 0.0
O1291 O 0.10666 0.63538 0.60152 0.0
O1292 O 0.05958 0.63211 0.60257 0.0
O1293 O 0.05141 0.60706 0.56933 0.0
O1294 O 0.09059 0.58731 0.55955 0.0
O1295 O 0.05483 0.57465 0.53806 0.0
H1296 H 0.97035 0.56292 0.58744 0.0
H1297 H 0.93621 0.53999 0.59709 0.0
H1298 H 0.94693 0.47987 0.5467 0.0
H1299 H 0.98039 0.50304 0.5363 0.0
H1300 H 0.15757 0.6048 0.62763 0.0
H1301 H 0.19536 0.61137 0.61567 0.0
H1302 H 0.17483 0.66087 0.5691 0.0
H1303 H 0.13723 0.65401 0.5805 0.0
Nd1304 Nd 0.81851 0.83552 0.3631 0.0
Nd1305 Nd 0.80019 0.82593 0.32112 0.0
C1306 C 0.82963 0.84609 0.4127 0.0
C1307 C 0.83026 0.86776 0.43019 0.0
C1308 C 0.84358 0.87174 0.45382 0.0
C1309 C 0.84477 0.89275 0.47015 0.0
C1310 C 0.8326 0.91005 0.46306 0.0
C1311 C 0.81927 0.90596 0.43929 0.0
C1312 C 0.81822 0.88503 0.42293 0.0
C1313 C 0.8318 0.87638 0.34155 0.0
C1314 C 0.76595 0.84421 0.3536 0.0
C1315 C 0.78906 0.81522 0.27162 0.0
C1316 C 0.79141 0.79463 0.25409 0.0
C1317 C 0.77856 0.78943 0.23018 0.0
C1318 C 0.78074 0.76967 0.21358 0.0
C1319 C 0.79587 0.7549 0.2207 0.0
C1320 C 0.80856 0.76007 0.24482 0.0
C1321 C 0.80623 0.77972 0.26147 0.0
C1322 C 0.78762 0.78494 0.34285 0.0
C1323 C 0.85272 0.81773 0.32973 0.0
O1324 O 0.80971 0.83552 0.40162 0.0
O1325 O 0.8443 0.84716 0.39715 0.0
O1326 O 0.84483 0.86497 0.35368 0.0
O1327 O 0.81155 0.86504 0.33906 0.0
O1328 O 0.78092 0.83753 0.36956 0.0
O1329 O 0.77153 0.8457 0.33127 0.0
O1330 O 0.8079 0.82845 0.2826 0.0
O1331 O 0.77483 0.81141 0.28727 0.0
O1332 O 0.7742 0.79648 0.33139 0.0
O1333 O 0.80774 0.79646 0.34493 0.0
O1334 O 0.83728 0.82386 0.31397 0.0
O1335 O 0.84777 0.81652 0.35241 0.0
H1336 H 0.85308 0.85864 0.45962 0.0
H1337 H 0.85496 0.8953 0.48848 0.0
H1338 H 0.80988 0.91905 0.43326 0.0
H1339 H 0.80807 0.88236 0.40455 0.0
H1340 H 0.76696 0.8007 0.22431 0.0
H1341 H 0.77097 0.76624 0.19495 0.0
H1342 H 0.82022 0.74891 0.25081 0.0
H1343 H 0.81605 0.78332 0.28007 0.0
Nd1344 Nd 0.81618 0.35033 0.85179 0.0
Nd1345 Nd 0.80673 0.30594 0.82532 0.0
C1346 C 0.82193 0.39214 0.87985 0.0
C1347 C 0.83291 0.41511 0.87546 0.0
C1348 C 0.82832 0.42242 0.85205 0.0
C1349 C 0.84144 0.44229 0.84656 0.0
C1350 C 0.85954 0.45498 0.86423 0.0
C1351 C 0.86371 0.44806 0.88789 0.0
C1352 C 0.85042 0.42832 0.89349 0.0
C1353 C 0.85652 0.33696 0.8397 0.0
C1354 C 0.80748 0.34813 0.79233 0.0
C1355 C 0.80274 0.26448 0.79695 0.0
C1356 C 0.79325 0.24082 0.80075 0.0
C1357 C 0.79705 0.23384 0.82442 0.0
C1358 C 0.78518 0.21281 0.82892 0.0
C1359 C 0.76908 0.19853 0.80994 0.0
C1360 C 0.76586 0.20527 0.78603 0.0
C1361 C 0.77789 0.2262 0.78149 0.0
C1362 C 0.7661 0.31878 0.83705 0.0
C1363 C 0.81367 0.30756 0.88459 0.0
O1364 O 0.80305 0.38257 0.86536 0.0
O1365 O 0.83552 0.3772 0.88291 0.0
O1366 O 0.84979 0.35619 0.83518 0.0
O1367 O 0.84083 0.32442 0.84779 0.0
O1368 O 0.80685 0.36156 0.81363 0.0
O1369 O 0.8116 0.32671 0.79258 0.0
O1370 O 0.82137 0.27483 0.81146 0.0
O1371 O 0.78807 0.27843 0.79444 0.0
O1372 O 0.77271 0.29922 0.84045 0.0
O1373 O 0.7819 0.33191 0.82973 0.0
O1374 O 0.81442 0.29426 0.86329 0.0
O1375 O 0.81055 0.3294 0.88456 0.0
H1376 H 0.81516 0.41233 0.83761 0.0
H1377 H 0.83798 0.44719 0.82813 0.0
H1378 H 0.87743 0.45776 0.90192 0.0
H1379 H 0.85438 0.42283 0.91154 0.0
H1380 H 0.80865 0.24495 0.83971 0.0
H1381 H 0.78835 0.20796 0.8474 0.0
H1382 H 0.75338 0.19489 0.77108 0.0
H1383 H 0.7745 0.23147 0.76322 0.0
Nd1384 Nd 0.79599 0.81756 0.8208 0.0
Nd1385 Nd 0.83006 0.85288 0.85291 0.0
C1386 C 0.7646 0.78693 0.79095 0.0
C1387 C 0.74081 0.78425 0.79581 0.0
C1388 C 0.72868 0.80256 0.7925 0.0
C1389 C 0.71363 0.80825 0.80897 0.0
C1390 C 0.71025 0.7955 0.82876 0.0
C1391 C 0.71856 0.77426 0.82835 0.0
C1392 C 0.73367 0.7686 0.81187 0.0
C1393 C 0.79671 0.81475 0.87131 0.0
C1394 C 0.7783 0.86331 0.84493 0.0
C1395 C 0.86097 0.88405 0.88274 0.0
C1396 C 0.88443 0.888 0.87694 0.0
C1397 C 0.89733 0.87007 0.87904 0.0
C1398 C 0.91101 0.8647 0.86091 0.0
C1399 C 0.91246 0.87763 0.84111 0.0
C1400 C 0.90358 0.89847 0.84223 0.0
C1401 C 0.88987 0.90386 0.86041 0.0
C1402 C 0.83035 0.8552 0.80261 0.0
C1403 C 0.84745 0.80659 0.82896 0.0
O1404 O 0.77285 0.80692 0.7845 0.0
O1405 O 0.77863 0.7808 0.80812 0.0
O1406 O 0.7786 0.81436 0.85583 0.0
O1407 O 0.81366 0.81801 0.86021 0.0
O1408 O 0.77434 0.84604 0.82584 0.0
O1409 O 0.79756 0.86759 0.86049 0.0
O1410 O 0.85385 0.86355 0.88876 0.0
O1411 O 0.84607 0.88994 0.86633 0.0
O1412 O 0.84817 0.8559 0.81863 0.0
O1413 O 0.81293 0.85225 0.81314 0.0
O1414 O 0.85118 0.82362 0.84839 0.0
O1415 O 0.82847 0.803 0.81296 0.0
H1416 H 0.73312 0.81457 0.77969 0.0
H1417 H 0.70706 0.82436 0.80799 0.0
H1418 H 0.7153 0.76326 0.84243 0.0
H1419 H 0.7421 0.75382 0.81427 0.0
H1420 H 0.89426 0.85797 0.89213 0.0
H1421 H 0.9184 0.84894 0.86076 0.0
H1422 H 0.90483 0.90893 0.82732 0.0
H1423 H 0.88072 0.91827 0.85879 0.0
Nd1424 Nd 0.5776 0.5968 0.58945 0.0
Nd1425 Nd 0.54614 0.5583 0.58088 0.0
C1426 C 0.60653 0.63669 0.59867 0.0
C1427 C 0.60722 0.65543 0.58262 0.0
C1428 C 0.6034 0.67786 0.59213 0.0
C1429 C 0.60016 0.69429 0.57605 0.0
C1430 C 0.60049 0.68867 0.54995 0.0
C1431 C 0.60521 0.66651 0.54069 0.0
C1432 C 0.60859 0.65019 0.55676 0.0
C1433 C 0.57696 0.57736 0.53854 0.0
C1434 C 0.52827 0.60521 0.56799 0.0
C1435 C 0.51769 0.51795 0.57378 0.0
C1436 C 0.51945 0.49793 0.58783 0.0
C1437 C 0.53952 0.48858 0.59062 0.0
C1438 C 0.54271 0.47268 0.60728 0.0
C1439 C 0.52582 0.46543 0.62162 0.0
C1440 C 0.50534 0.47412 0.61805 0.0
C1441 C 0.50226 0.4902 0.60148 0.0
C1442 C 0.54762 0.57818 0.63145 0.0
C1443 C 0.59565 0.54956 0.59987 0.0
O1444 O 0.5888 0.63336 0.60999 0.0
O1445 O 0.61184 0.61689 0.58913 0.0
O1446 O 0.5747 0.59857 0.54678 0.0
O1447 O 0.57552 0.56599 0.55701 0.0
O1448 O 0.54792 0.61534 0.58051 0.0
O1449 O 0.52388 0.58213 0.56199 0.0
O1450 O 0.53271 0.52258 0.55903 0.0
O1451 O 0.51408 0.53698 0.58698 0.0
O1452 O 0.5515 0.55737 0.62391 0.0
O1453 O 0.54805 0.58927 0.61277 0.0
O1454 O 0.57654 0.54035 0.58565 0.0
O1455 O 0.5992 0.57226 0.60868 0.0
H1456 H 0.60216 0.68242 0.61189 0.0
H1457 H 0.59709 0.71132 0.58409 0.0
H1458 H 0.6054 0.66129 0.52079 0.0
H1459 H 0.61138 0.63308 0.54861 0.0
H1460 H 0.55313 0.49416 0.58052 0.0
H1461 H 0.55882 0.46675 0.60953 0.0
H1462 H 0.49169 0.46869 0.62824 0.0
H1463 H 0.48664 0.49716 0.59989 0.0
Nd1464 Nd 0.0786 0.58964 0.08895 0.0
Nd1465 Nd 0.03614 0.56912 0.0867 0.0
C1466 C 0.1213 0.60557 0.08612 0.0
C1467 C 0.14153 0.60124 0.10114 0.0
C1468 C 0.16236 0.61584 0.10256 0.0
C1469 C 0.1813 0.61192 0.11782 0.0
C1470 C 0.17954 0.59336 0.13182 0.0
C1471 C 0.1585 0.57902 0.13056 0.0
C1472 C 0.13966 0.58296 0.11539 0.0
C1473 C 0.07478 0.56758 0.13113 0.0
C1474 C 0.0638 0.53842 0.05527 0.0
C1475 C 0.9932 0.55332 0.08928 0.0
C1476 C 0.97257 0.55351 0.07201 0.0
C1477 C 0.95251 0.55639 0.08153 0.0
C1478 C 0.93383 0.56011 0.06567 0.0
C1479 C 0.93508 0.56124 0.04013 0.0
C1480 C 0.95491 0.5574 0.03048 0.0
C1481 C 0.97345 0.55349 0.04626 0.0
C1482 C 0.04048 0.59098 0.04453 0.0
C1483 C 0.05136 0.62054 0.11973 0.0
O1484 O 0.10942 0.58732 0.07113 0.0
O1485 O 0.1088 0.61763 0.09872 0.0
O1486 O 0.08492 0.58863 0.13151 0.0
O1487 O 0.06623 0.55853 0.10887 0.0
O1488 O 0.07517 0.55946 0.05531 0.0
O1489 O 0.0492 0.53615 0.0711 0.0
O1490 O 1.00381 0.57387 0.10053 0.0
O1491 O 1.00694 0.53999 0.08093 0.0
O1492 O 0.03057 0.56983 0.04406 0.0
O1493 O 0.04859 0.60014 0.06685 0.0
O1494 O 0.04035 0.59949 0.12057 0.0
O1495 O 0.0651 0.62251 0.10301 0.0
H1496 H 0.16396 0.63018 0.09187 0.0
H1497 H 0.19739 0.62307 0.11824 0.0
H1498 H 0.15661 0.56476 0.14133 0.0
H1499 H 0.12357 0.57172 0.11478 0.0
H1500 H 0.95158 0.55667 0.10137 0.0
H1501 H 0.91882 0.56327 0.07366 0.0
H1502 H 0.95625 0.55799 1.01084 0.0
H1503 H 0.98871 0.5512 0.03844 0.0
H1504 H 0.07806 0.31373 0.98973 0.0
H1505 H 0.06924 0.26324 0.92164 0.0
H1506 H 0.08485 0.28363 1.01474 0.0
H1507 H 0.07624 0.23263 0.94716 0.0
H1508 H 0.11796 0.19564 1.00582 0.0
H1509 H 0.10875 0.2228 0.97724 0.0
H1510 H 0.06297 0.24781 0.02547 0.0
H1511 H 0.07159 0.22043 0.05363 0.0
C1512 C 0.07753 0.29613 0.98001 0.0
C1513 C 0.07307 0.29095 0.95358 0.0
C1514 C 0.08131 0.27879 0.99447 0.0
C1515 C 0.08096 0.25566 0.98303 0.0
C1516 C 0.07668 0.25033 0.95654 0.0
C1517 C 0.07256 0.26779 0.94193 0.0
C1518 C 0.1057 0.20669 1.01022 0.0
C1519 C 0.09577 0.20591 0.03236 0.0
C1520 C 0.10041 0.22225 0.99375 0.0
C1521 C 0.08522 0.23757 0.99911 0.0
C1522 C 0.07501 0.2365 0.02095 0.0
C1523 C 0.08012 0.22087 0.03725 0.0
H1524 H 0.1281 0.79318 0.25783 0.0
H1525 H 0.12329 0.84503 0.32079 0.0
H1526 H 0.16824 0.79553 0.27267 0.0
H1527 H 0.1641 0.84801 0.33523 0.0
H1528 H 0.24573 0.8601 0.32997 0.0
H1529 H 0.20503 0.86018 0.3181 0.0
H1530 H 0.19162 0.78508 0.31282 0.0
H1531 H 0.23175 0.78504 0.32548 0.0
C1532 C 0.13558 0.80531 0.27478 0.0
C1533 C 0.12206 0.81889 0.28798 0.0
C1534 C 0.15877 0.80658 0.28338 0.0
C1535 C 0.16976 0.82197 0.30523 0.0
C1536 C 0.15644 0.83601 0.31827 0.0
C1537 C 0.13292 0.83424 0.31001 0.0
C1538 C 0.23408 0.84363 0.32659 0.0
C1539 C 0.24238 0.82259 0.32889 0.0
C1540 C 0.21064 0.84367 0.3198 0.0
C1541 C 0.19474 0.8226 0.31434 0.0
C1542 C 0.20312 0.80167 0.31671 0.0
C1543 C 0.22632 0.80169 0.32412 0.0
H1544 H 0.57672 0.90106 0.4764 0.0
H1545 H 0.5647 0.94096 0.4163 0.0
H1546 H 0.5773 0.93553 0.50723 0.0
H1547 H 0.56511 0.97567 0.4475 0.0
H1548 H 0.58721 0.03841 0.51281 0.0
H1549 H 0.58912 1.00479 0.48131 0.0
H1550 H 0.55055 0.95905 0.52244 0.0
H1551 H 0.54882 0.99255 0.55397 0.0
C1552 C 0.57429 0.91721 0.46966 0.0
C1553 C 0.57057 0.91804 0.44367 0.0
C1554 C 0.57447 0.93702 0.48747 0.0
C1555 C 0.571 0.95841 0.47997 0.0
C1556 C 0.56796 0.95954 0.45402 0.0
C1557 C 0.5677 0.93959 0.43609 0.0
C1558 C 0.57924 1.02116 0.51522 0.0
C1559 C 0.56793 1.01822 0.53605 0.0
C1560 C 0.5802 1.00188 0.49701 0.0
C1561 C 0.57002 0.97912 0.49925 0.0
C1562 C 0.55885 0.97623 0.5202 0.0
C1563 C 0.55778 0.99549 0.53829 0.0
H1564 H 0.46049 0.28028 0.74637 0.0
H1565 H 0.49893 0.32515 0.81235 0.0
H1566 H 0.42593 0.28347 0.76322 0.0
H1567 H 0.46333 0.32862 0.82949 0.0
H1568 H 0.39199 0.31363 0.85901 0.0
H1569 H 0.4291 0.30995 0.84614 0.0
H1570 H 0.40135 0.31068 0.76924 0.0
H1571 H 0.36471 0.31403 0.78195 0.0
C1572 C 0.46178 0.29092 0.76465 0.0
C1573 C 0.48308 0.30259 0.77766 0.0
C1574 C 0.44155 0.2929 0.77433 0.0
C1575 C 0.44126 0.30675 0.79765 0.0
C1576 C 0.46256 0.31778 0.81143 0.0
C1577 C 0.48313 0.31578 0.80159 0.0
C1578 C 0.39377 0.3128 0.83931 0.0
C1579 C 0.37494 0.31389 0.82159 0.0
C1580 C 0.41524 0.31091 0.83192 0.0
C1581 C 0.41865 0.30979 0.80647 0.0
C1582 C 0.39973 0.31099 0.78893 0.0
C1583 C 0.37847 0.31302 0.79629 0.0
H1584 H 1.0062 0.82974 0.61928 0.0
H1585 H 0.05692 0.86343 0.68228 0.0
H1586 H 1.01909 0.86015 0.59514 0.0
H1587 H 0.0697 0.89356 0.65805 0.0
H1588 H 0.10017 0.9321 0.5997 0.0
H1589 H 0.08842 0.89732 0.61864 0.0
H1590 H 1.01856 0.90398 0.59968 0.0
H1591 H 0.03031 0.93861 0.5809 0.0
C1592 C 1.02009 0.84356 0.62798 0.0
C1593 C 0.03047 0.84417 0.65275 0.0
C1594 C 1.02745 0.86092 0.61414 0.0
C1595 C 0.04549 0.87902 0.6247 0.0
C1596 C 0.05598 0.87956 0.64934 0.0
C1597 C 0.04848 0.86241 0.66328 0.0
C1598 C 0.08233 0.92577 0.59921 0.0
C1599 C 0.06611 0.93796 0.58907 0.0
C1600 C 0.07562 0.90607 0.61015 0.0
C1601 C 0.0526 0.89813 0.61071 0.0
C1602 C 0.03638 0.90965 0.59935 0.0
C1603 C 0.04309 0.92948 0.58876 0.0
H1604 H 0.58159 0.87979 0.93746 0.0
H1605 H 0.55972 0.92018 0.99981 0.0
H1606 H 0.54583 0.87899 0.91151 0.0
H1607 H 0.52288 0.91807 0.97435 0.0
H1608 H 0.4644 0.92424 0.917 0.0
H1609 H 0.50283 0.93045 0.93911 0.0
H1610 H 0.5087 0.85967 0.90846 0.0
H1611 H 0.47111 0.85412 0.88493 0.0
C1612 C 0.56908 0.88875 0.94546 0.0
C1613 C 0.57348 0.90071 0.97024 0.0
C1614 C 0.54845 0.88797 0.93075 0.0
C1615 C 0.53142 0.89838 0.94084 0.0
C1616 C 0.5358 0.91023 0.96585 0.0
C1617 C 0.5567 0.91128 0.98051 0.0
C1618 C 0.47413 0.91023 0.91444 0.0
C1619 C 0.46464 0.88863 0.89923 0.0
C1620 C 0.49602 0.91368 0.92747 0.0
C1621 C 0.50879 0.89553 0.92574 0.0
C1622 C 0.49949 0.87417 0.91001 0.0
C1623 C 0.47776 0.87084 0.89676 0.0
H1624 H 0.49658 0.23818 0.10384 0.0
H1625 H 0.47386 0.19717 0.15892 0.0
H1626 H 0.51145 0.20526 0.08357 0.0
H1627 H 0.48952 0.16423 0.13905 0.0
H1628 H 0.53813 0.13676 0.05534 0.0
H1629 H 0.50817 0.15987 0.06373 0.0
H1630 H 0.53349 0.17114 0.14313 0.0
H1631 H 0.56328 0.14917 0.13489 0.0
C1632 C 0.49347 0.22163 0.11066 0.0
C1633 C 0.48372 0.22007 0.1327 0.0
C1634 C 0.50218 0.2028 0.09913 0.0
C1635 C 0.50186 0.18236 0.10994 0.0
C1636 C 0.49001 0.17989 0.13042 0.0
C1637 C 0.48103 0.19866 0.14176 0.0
C1638 C 0.53725 0.14439 0.07449 0.0
C1639 C 0.55314 0.14141 0.09439 0.0
C1640 C 0.52005 0.15732 0.07929 0.0
C1641 C 0.51827 0.16679 0.10412 0.0
C1642 C 0.53412 0.16358 0.12387 0.0
C1643 C 0.55146 0.15131 0.11906 0.0
H1644 H 0.17944 0.41844 0.41835 0.0
H1645 H 0.1759 0.35752 0.45552 0.0
H1646 H 0.19094 0.39648 0.38237 0.0
H1647 H 0.18812 0.33568 0.4195 0.0
H1648 H 0.22378 0.3077 0.35471 0.0
H1649 H 0.21701 0.33063 0.3931 0.0
H1650 H 0.17238 0.36567 0.34914 0.0
H1651 H 0.17928 0.34271 0.3106 0.0
C1652 C 0.18182 0.40057 0.41925 0.0
C1653 C 0.17641 0.3897 0.43982 0.0
C1654 C 0.18827 0.3879 0.39841 0.0
C1655 C 0.19012 0.3642 0.39778 0.0
C1656 C 0.18686 0.35393 0.41932 0.0
C1657 C 0.18002 0.36653 0.44012 0.0
C1658 C 0.21209 0.31988 0.3532 0.0
C1659 C 0.20172 0.323 0.32952 0.0
C1660 C 0.20835 0.33317 0.37528 0.0
C1661 C 0.19418 0.35001 0.37428 0.0
C1662 C 0.18367 0.35307 0.35061 0.0
C1663 C 0.18746 0.33979 0.3285 0.0
H1664 H 0.93622 0.05969 0.22762 0.0
H1665 H 0.98463 0.11673 0.27148 0.0
H1666 H 0.96055 0.0576 0.19444 0.0
H1667 H 1.00854 0.11519 0.23806 0.0
H1668 H 0.03785 0.11808 0.16031 0.0
H1669 H 1.01301 0.12164 0.19305 0.0
H1670 H 0.99777 0.04646 0.18545 0.0
H1671 H 1.02295 0.04296 0.15371 0.0
C1672 C 0.95184 0.0721 0.2302 0.0
C1673 C 0.95797 0.0885 0.25274 0.0
C1674 C 0.96608 0.0708 0.21101 0.0
C1675 C 0.98699 0.08621 0.21294 0.0
C1676 C 0.99276 0.103 0.23521 0.0
C1677 C 0.97885 0.10386 0.25466 0.0
C1678 C 0.02937 0.10225 0.16566 0.0
C1679 C 0.03301 0.0802 0.15393 0.0
C1680 C 1.01495 0.10428 0.18468 0.0
C1681 C 1.00282 0.08436 0.19243 0.0
C1682 C 1.00629 0.0624 0.18036 0.0
C1683 C 1.0211 0.0604 0.16198 0.0
H1684 H 0.35665 0.7835 0.53529 0.0
H1685 H 0.37809 0.7307 0.48426 0.0
H1686 H 0.34181 0.80084 0.49965 0.0
H1687 H 0.36432 0.74846 0.4488 0.0
H1688 H 0.31534 0.76521 0.38801 0.0
H1689 H 0.33033 0.75069 0.42529 0.0
H1690 H 0.34678 0.82155 0.4659 0.0
H1691 H 0.33074 0.8359 0.42865 0.0
C1692 C 0.35887 0.77605 0.51652 0.0
C1693 C 0.36859 0.75568 0.51269 0.0
C1694 C 0.35024 0.78594 0.49596 0.0
C1695 C 0.35129 0.77585 0.47103 0.0
C1696 C 0.36237 0.75637 0.46749 0.0
C1697 C 0.37066 0.74633 0.48793 0.0
C1698 C 0.32185 0.77769 0.40501 0.0
C1699 C 0.32176 0.80173 0.40528 0.0
C1700 C 0.3308 0.76939 0.42641 0.0
C1701 C 0.34037 0.7849 0.44874 0.0
C1702 C 0.33954 0.80894 0.44926 0.0
C1703 C 0.33027 0.81722 0.42784 0.0
H1704 H 0.58871 1.00494 0.76564 0.0
H1705 H 0.65662 1.01744 0.74781 0.0
H1706 H 0.57454 1.01642 0.72553 0.0
H1707 H 0.64254 0.02899 0.70828 0.0
H1708 H 0.61456 0.08475 0.66722 0.0
H1709 H 0.62584 0.06582 0.70266 0.0
H1710 H 0.57174 1.00746 0.6751 0.0
H1711 H 0.5605 0.0265 0.63876 0.0
C1712 C 0.60054 1.00951 0.75295 0.0
C1713 C 0.62386 1.01038 0.76015 0.0
C1714 C 0.59241 1.01613 0.72997 0.0
C1715 C 0.60744 0.02396 0.71384 0.0
C1716 C 0.63052 0.02337 0.72039 0.0
C1717 C 0.63858 1.01661 0.74309 0.0
C1718 C 0.60501 0.06784 0.66851 0.0
C1719 C 0.58664 0.05713 0.65001 0.0
C1720 C 0.61159 0.05691 0.68886 0.0
C1721 C 0.59983 0.03503 0.6917 0.0
C1722 C 0.58116 0.02433 0.67346 0.0
C1723 C 0.57478 0.03516 0.65263 0.0
H1724 H 0.36291 0.52839 0.07304 0.0
H1725 H 0.30031 0.49817 0.09521 0.0
H1726 H 0.35356 0.50235 0.03286 0.0
H1727 H 0.29041 0.4727 0.05456 0.0
H1728 H 0.33134 0.45218 0.96041 0.0
H1729 H 0.33116 0.48586 0.99259 0.0
H1730 H 0.30643 0.43881 0.04169 0.0
H1731 H 0.30649 0.40548 1.00971 0.0
C1732 C 0.3467 0.51695 0.06891 0.0
C1733 C 0.33256 0.51498 0.08743 0.0
C1734 C 0.34129 0.50195 0.0458 0.0
C1735 C 0.3215 0.48496 0.04078 0.0
C1736 C 0.3061 0.48509 0.05816 0.0
C1737 C 0.31166 0.49982 0.08135 0.0
C1738 C 0.32572 0.44913 0.97805 0.0
C1739 C 0.31904 0.42617 0.98259 0.0
C1740 C 0.32555 0.46841 0.99643 0.0
C1741 C 0.31872 0.46509 0.0197 0.0
C1742 C 0.31131 0.44212 0.0238 0.0
C1743 C 0.31143 0.42293 1.00547 0.0
H1744 H 0.922 0.09264 0.4204 0.0
H1745 H 0.97755 0.09384 0.3776 0.0
H1746 H 0.94773 0.09236 0.45856 0.0
H1747 H 1.00341 0.09385 0.41591 0.0
H1748 H 0.04046 0.06899 0.48473 0.0
H1749 H 1.01531 0.07067 0.44641 0.0
H1750 H 0.97732 0.11355 0.49008 0.0
H1751 H 1.00232 0.11161 0.52833 0.0
C1752 C 0.93975 0.09313 0.41904 0.0
C1753 C 0.94742 0.09339 0.3955 0.0
C1754 C 0.95468 0.09304 0.44118 0.0
C1755 C 0.97798 0.09303 0.44082 0.0
C1756 C 0.98569 0.09352 0.41729 0.0
C1757 C 0.97076 0.09376 0.39515 0.0
C1758 C 1.02678 0.07884 0.48624 0.0
C1759 C 1.02364 0.09012 0.50998 0.0
C1760 C 1.0123 0.07994 0.46406 0.0
C1761 C 0.99394 0.09225 0.46466 0.0
C1762 C 0.99089 0.10358 0.48847 0.0
C1763 C 1.00545 0.10259 0.51061 0.0
H1764 H 0.38337 0.80564 0.64735 0.0
H1765 H 0.37669 0.73997 0.67566 0.0
H1766 H 0.37157 0.82451 0.68557 0.0
H1767 H 0.36507 0.75884 0.71392 0.0
H1768 H 0.31877 0.83846 0.74047 0.0
H1769 H 0.33603 0.82314 0.70448 0.0
H1770 H 0.37701 0.78825 0.75271 0.0
H1771 H 0.35989 0.8037 0.78866 0.0
C1772 C 0.37989 0.79529 0.66194 0.0
C1773 C 0.38116 0.77122 0.65831 0.0
C1774 C 0.37285 0.8061 0.68381 0.0
C1775 C 0.36716 0.79326 0.70295 0.0
C1776 C 0.36943 0.76943 0.6998 0.0
C1777 C 0.37615 0.75855 0.67777 0.0
C1778 C 0.33172 0.82783 0.74349 0.0
C1779 C 0.33789 0.82241 0.76758 0.0
C1780 C 0.34169 0.81904 0.72281 0.0
C1781 C 0.35792 0.80427 0.72549 0.0
C1782 C 0.36444 0.79932 0.74974 0.0
C1783 C 0.35472 0.80837 0.77047 0.0
H1784 H 0.60056 0.02439 0.88569 0.0
H1785 H 0.66171 0.02536 0.93626 0.0
H1786 H 0.58096 0.03302 0.92202 0.0
H1787 H 0.64277 0.03479 0.97187 0.0
H1788 H 0.60362 0.03862 0.03517 0.0
H1789 H 0.61692 1.02246 0.9972 0.0
H1790 H 0.5788 0.06442 0.95464 0.0
H1791 H 0.56428 0.07948 0.99277 0.0
C1792 C 0.60977 0.02615 0.90445 0.0
C1793 C 0.63281 0.02427 0.90787 0.0
C1794 C 0.5986 0.03137 0.92533 0.0
C1795 C 0.6102 0.0348 0.95011 0.0
C1796 C 0.63298 0.03199 0.95331 0.0
C1797 C 0.64401 0.02672 0.93265 0.0
C1798 C 0.59796 0.04435 1.01771 0.0
C1799 C 0.58312 0.06063 1.01715 0.0
C1800 C 0.60571 0.03514 0.99583 0.0
C1801 C 0.59938 0.04238 0.97268 0.0
C1802 C 0.58399 0.05822 0.97196 0.0
C1803 C 0.57582 0.06708 0.9939 0.0
H1804 H 0.31308 0.43884 0.17774 0.0
H1805 H 0.36094 0.47995 0.23949 0.0
H1806 H 0.3086 0.40633 0.20129 0.0
H1807 H 0.35592 0.44771 0.26339 0.0
H1808 H 0.35842 0.38151 0.29365 0.0
H1809 H 0.36445 0.40898 0.26412 0.0
H1810 H 0.29266 0.39576 0.23755 0.0
H1811 H 0.28707 0.36756 0.2665 0.0
C1812 C 0.32247 0.44102 0.19647 0.0
C1813 C 0.33735 0.46195 0.20683 0.0
C1814 C 0.31988 0.42238 0.20994 0.0
C1815 C 0.33204 0.42434 0.2341 0.0
C1816 C 0.34669 0.44543 0.24457 0.0
C1817 C 0.34938 0.46401 0.23103 0.0
C1818 C 0.34419 0.38383 0.28066 0.0
C1819 C 0.32243 0.37223 0.28168 0.0
C1820 C 0.3475 0.39983 0.26413 0.0
C1821 C 0.32898 0.40482 0.24877 0.0
C1822 C 0.3073 0.39217 0.24896 0.0
C1823 C 0.30406 0.37599 0.26539 0.0
H1824 H 0.1992 0.98396 0.05267 0.0
H1825 H 0.19108 0.94848 0.11652 0.0
H1826 H 0.17186 1.00808 0.06451 0.0
H1827 H 0.1627 0.97263 0.12797 0.0
H1828 H 0.09442 1.00704 0.11327 0.0
H1829 H 0.12265 0.9814 0.10906 0.0
H1830 H 0.17193 0.04071 0.10195 0.0
H1831 H 0.14371 0.0664 0.10645 0.0
C1832 C 0.19137 0.98097 0.06911 0.0
C1833 C 0.19767 0.96417 0.08369 0.0
C1834 C 0.17576 0.99508 0.07601 0.0
C1835 C 0.16547 0.99276 0.09754 0.0
C1836 C 0.17052 0.97502 0.1114 0.0
C1837 C 0.18661 0.961 0.10468 0.0
C1838 C 0.11148 1.01473 0.11157 0.0
C1839 C 0.11681 0.03882 0.11026 0.0
C1840 C 0.12766 1.0 0.10915 0.0
C1841 C 0.14948 1.0089 0.10484 0.0
C1842 C 0.15519 0.03324 0.10503 0.0
C1843 C 0.13911 0.04806 0.10792 0.0
H1844 H 0.70711 0.67827 1.00547 0.0
H1845 H 0.72324 0.61017 1.01372 0.0
H1846 H 0.66911 0.66583 1.01531 0.0
H1847 H 0.68514 0.59743 0.02268 0.0
H1848 H 0.60884 0.58117 0.02792 0.0
H1849 H 0.64125 0.59192 1.00614 0.0
H1850 H 0.66156 0.65604 0.05943 0.0
H1851 H 0.62966 0.6452 0.08132 0.0
C1852 C 0.70217 0.66039 1.00845 0.0
C1853 C 0.71772 0.64492 1.00821 0.0
C1854 C 0.68056 0.65331 1.01409 0.0
C1855 C 0.6743 0.6307 0.0197 0.0
C1856 C 0.68946 0.61482 0.01804 0.0
C1857 C 0.71117 0.62203 1.01275 0.0
C1858 C 0.62022 0.5976 0.0348 0.0
C1859 C 0.61695 0.61233 0.05633 0.0
C1860 C 0.63863 0.60373 0.02236 0.0
C1861 C 0.65364 0.62489 0.03101 0.0
C1862 C 0.64998 0.63981 0.05217 0.0
C1863 C 0.6319 0.6335 0.06484 0.0
H1864 H 0.70704 0.49241 0.32324 0.0
H1865 H 0.75997 0.51955 0.38538 0.0
H1866 H 0.7224 0.4557 0.31679 0.0
H1867 H 0.77503 0.48332 0.37931 0.0
H1868 H 0.81135 0.42161 0.35588 0.0
H1869 H 0.79524 0.45751 0.3608 0.0
H1870 H 0.73056 0.41876 0.32435 0.0
H1871 H 0.747 0.38278 0.31922 0.0
C1872 C 0.72186 0.49078 0.33577 0.0
C1873 C 0.7318 0.50991 0.35505 0.0
C1874 C 0.73087 0.46926 0.33207 0.0
C1875 C 0.75058 0.46544 0.34724 0.0
C1876 C 0.76029 0.48463 0.36652 0.0
C1877 C 0.75128 0.50592 0.37025 0.0
C1878 C 0.79367 0.42049 0.34873 0.0
C1879 C 0.78094 0.39842 0.33695 0.0
C1880 C 0.7841 0.44153 0.3518 0.0
C1881 C 0.761 0.44219 0.34329 0.0
C1882 C 0.7483 0.42005 0.33124 0.0
C1883 C 0.7579 0.39893 0.32828 0.0
H1884 H 0.80716 0.47033 0.61324 0.0
H1885 H 0.81481 0.4093 0.56257 0.0
H1886 H 0.84641 0.48763 0.61268 0.0
H1887 H 0.85433 0.42603 0.56254 0.0
H1888 H 0.90704 0.47962 0.53753 0.0
H1889 H 0.87131 0.4581 0.54384 0.0
H1890 H 0.88606 0.48518 0.62345 0.0
H1891 H 0.92233 0.50659 0.61714 0.0
C1892 C 0.81739 0.46071 0.60201 0.0
C1893 C 0.80802 0.4392 0.58691 0.0
C1894 C 0.83989 0.47034 0.60204 0.0
C1895 C 0.85329 0.45832 0.58723 0.0
C1896 C 0.8442 0.43592 0.57362 0.0
C1897 C 0.82171 0.42635 0.57361 0.0
C1898 C 0.9029 0.48065 0.55647 0.0
C1899 C 0.9175 0.4947 0.57687 0.0
C1900 C 0.8824 0.46832 0.56009 0.0
C1901 C 0.87592 0.46995 0.58415 0.0
C1902 C 0.89058 0.48381 0.60466 0.0
C1903 C 0.91125 0.49608 0.60105 0.0
H1904 H 0.413 0.20412 0.37302 0.0
H1905 H 0.44638 0.20886 0.30746 0.0
H1906 H 0.39019 0.23257 0.36095 0.0
H1907 H 0.42356 0.23837 0.29583 0.0
H1908 H 0.38529 0.30997 0.31733 0.0
H1909 H 0.41342 0.28407 0.32294 0.0
H1910 H 0.35944 0.22504 0.31437 0.0
H1911 H 0.33159 0.25082 0.30859 0.0
C1912 C 0.41587 0.21155 0.35625 0.0
C1913 C 0.4315 0.20387 0.3411 0.0
C1914 C 0.40266 0.22785 0.34934 0.0
C1915 C 0.40484 0.23737 0.32729 0.0
C1916 C 0.4215 0.23116 0.3129 0.0
C1917 C 0.43467 0.21442 0.31968 0.0
C1918 C 0.37959 0.29143 0.31626 0.0
C1919 C 0.35631 0.28254 0.31285 0.0
C1920 C 0.39562 0.27659 0.31924 0.0
C1921 C 0.38858 0.25257 0.31921 0.0
C1922 C 0.36532 0.24349 0.31445 0.0
C1923 C 0.34938 0.25825 0.31104 0.0
H1924 H 0.35021 0.1556 0.48692 0.0
H1925 H 0.31105 0.08576 0.47227 0.0
H1926 H 0.38414 0.13979 0.49892 0.0
H1927 H 0.34487 0.06997 0.48545 0.0
H1928 H 0.41435 0.0498 0.50921 0.0
H1929 H 0.3842 0.06312 0.48336 0.0
H1930 H 0.3912 0.12551 0.53871 0.0
H1931 H 0.42101 0.11234 0.5642 0.0
C1932 C 0.34899 0.13678 0.48562 0.0
C1933 C 0.32793 0.12197 0.47943 0.0
C1934 C 0.36836 0.12774 0.49269 0.0
C1935 C 0.36696 0.10377 0.49409 0.0
C1936 C 0.34643 0.08856 0.48482 0.0
C1937 C 0.32702 0.09762 0.47732 0.0
C1938 C 0.40927 0.06628 0.51582 0.0
C1939 C 0.42008 0.08012 0.53865 0.0
C1940 C 0.39216 0.07395 0.50097 0.0
C1941 C 0.38567 0.09558 0.50873 0.0
C1942 C 0.3963 0.10912 0.53176 0.0
C1943 C 0.41328 0.10151 0.5465 0.0
H1944 H 0.70137 0.65507 0.37185 0.0
H1945 H 0.75785 0.62799 0.34558 0.0
H1946 H 0.71956 0.69489 0.37002 0.0
H1947 H 0.77647 0.66808 0.34383 0.0
H1948 H 0.81149 0.74833 0.35535 0.0
H1949 H 0.79587 0.70796 0.36053 0.0
H1950 H 0.72852 0.72299 0.34518 0.0
H1951 H 0.74397 0.76262 0.34033 0.0
C1952 C 0.71792 0.6575 0.366 0.0
C1953 C 0.72809 0.63763 0.35972 0.0
C1954 C 0.72849 0.68074 0.36464 0.0
C1955 C 0.74991 0.68576 0.35653 0.0
C1956 C 0.76026 0.66582 0.35047 0.0
C1957 C 0.74954 0.64245 0.35172 0.0
C1958 C 0.79334 0.74314 0.35325 0.0
C1959 C 0.77929 0.75958 0.34745 0.0
C1960 C 0.78419 0.71959 0.35609 0.0
C1961 C 0.76049 0.71124 0.35358 0.0
C1962 C 0.74671 0.72792 0.34791 0.0
C1963 C 0.75577 0.75112 0.34489 0.0
H1964 H 0.91506 0.58261 0.8117 0.0
H1965 H 0.966 0.5731 0.87023 0.0
H1966 H 0.89445 0.54369 0.81203 0.0
H1967 H 0.94442 0.53514 0.87294 0.0
H1968 H 0.90556 0.46377 0.8706 0.0
H1969 H 0.92993 0.49711 0.86048 0.0
H1970 H 0.87069 0.5247 0.83324 0.0
H1971 H 0.84678 0.49109 0.84271 0.0
C1972 C 0.92164 0.57207 0.82483 0.0
C1973 C 0.9416 0.58082 0.84147 0.0
C1974 C 0.90975 0.54982 0.82528 0.0
C1975 C 0.9172 0.53617 0.84304 0.0
C1976 C 0.93803 0.5447 0.85875 0.0
C1977 C 0.95036 0.56664 0.85754 0.0
C1978 C 0.8979 0.47714 0.86254 0.0
C1979 C 0.87433 0.47509 0.85776 0.0
C1980 C 0.91186 0.49637 0.85679 0.0
C1981 C 0.90254 0.51423 0.84652 0.0
C1982 C 0.87883 0.51156 0.84103 0.0
C1983 C 0.86494 0.49226 0.84657 0.0
H1984 H 0.07755 0.86755 0.21509 0.0
H1985 H 1.00786 0.86598 0.22489 0.0
H1986 H 0.07526 0.8989 0.1897 0.0
H1987 H 1.00559 0.89772 0.20051 0.0
H1988 H 0.99837 0.9272 0.12728 0.0
H1989 H 1.00317 0.90068 0.15748 0.0
H1990 H 0.07079 0.93818 0.18471 0.0
H1991 H 0.066 0.96466 0.15415 0.0
C1992 C 0.06206 0.87466 0.21276 0.0
C1993 C 0.04299 0.86455 0.22227 0.0
C1994 C 0.06062 0.89252 0.19801 0.0
C1995 C 0.04006 0.90067 0.19248 0.0
C1996 C 1.02154 0.89158 0.20365 0.0
C1997 C 1.02293 0.87365 0.21808 0.0
C1998 C 1.0142 0.92998 0.13983 0.0
C1999 C 0.03173 0.9482 0.13816 0.0
C2000 C 1.01697 0.91475 0.15733 0.0
C2001 C 0.03733 0.91728 0.17394 0.0
C2002 C 0.05494 0.93545 0.1722 0.0
C2003 C 0.05218 0.95066 0.15458 0.0
H2004 H 0.99361 0.36258 0.92227 0.0
H2005 H 1.00291 0.32324 0.85227 0.0
H2006 H 0.95329 0.35923 0.90686 0.0
H2007 H 0.96259 0.32113 0.83617 0.0
H2008 H 0.89235 0.35569 0.8175 0.0
H2009 H 0.93309 0.35676 0.8299 0.0
H2010 H 0.91847 0.31879 0.89011 0.0
H2011 H 0.87778 0.31674 0.87705 0.0
C2012 C 0.98721 0.35365 0.90331 0.0
C2013 C 1.00206 0.34412 0.88821 0.0
C2014 C 0.96394 0.35165 0.8945 0.0
C2015 C 0.95446 0.34011 0.87011 0.0
C2016 C 0.9692 0.33043 0.85492 0.0
C2017 C 0.99248 0.33195 0.86403 0.0
C2018 C 0.89776 0.34717 0.83311 0.0
C2019 C 0.88147 0.33592 0.84602 0.0
C2020 C 0.92121 0.34781 0.84025 0.0
C2021 C 0.9293 0.33788 0.86109 0.0
C2022 C 0.91302 0.32661 0.87397 0.0
C2023 C 0.88958 0.32534 0.86637 0.0
H2024 H 0.53045 0.2215 0.74656 0.0
H2025 H 0.56664 0.26311 0.70005 0.0
H2026 H 0.53261 0.18571 0.71788 0.0
H2027 H 0.56794 0.22815 0.67094 0.0
H2028 H 0.584 0.16189 0.63137 0.0
H2029 H 0.58356 0.19539 0.66295 0.0
H2030 H 0.51859 0.16299 0.67803 0.0
H2031 H 0.51987 0.12855 0.64719 0.0
C2032 C 0.53882 0.22294 0.73018 0.0
C2033 C 0.54778 0.24507 0.72508 0.0
C2034 C 0.53991 0.20249 0.71357 0.0
C2035 C 0.5503 0.20377 0.69173 0.0
C2036 C 0.56007 0.22606 0.68752 0.0
C2037 C 0.55904 0.2463 0.70408 0.0
C2038 C 0.56956 0.16189 0.64135 0.0
C2039 C 0.5519 0.14256 0.63657 0.0
C2040 C 0.56921 0.18127 0.65951 0.0
C2041 C 0.55093 0.18228 0.67318 0.0
C2042 C 0.53317 0.16287 0.66832 0.0
C2043 C 0.53376 0.14317 0.65042 0.0
H2044 H 0.62679 0.87602 0.35691 0.0
H2045 H 0.63512 0.83231 0.41389 0.0
H2046 H 0.66529 0.8746 0.34886 0.0
H2047 H 0.67346 0.83014 0.4053 0.0
H2048 H 0.74913 0.84304 0.3988 0.0
H2049 H 0.71118 0.84637 0.40818 0.0
H2050 H 0.69099 0.85464 0.33128 0.0
H2051 H 0.72912 0.8521 0.32235 0.0
C2052 C 0.63674 0.86597 0.36776 0.0
C2053 C 0.62737 0.85435 0.3862 0.0
C2054 C 0.65907 0.86496 0.36294 0.0
C2055 C 0.67318 0.85215 0.37621 0.0
C2056 C 0.66376 0.84057 0.39473 0.0
C2057 C 0.64144 0.84168 0.39963 0.0
C2058 C 0.73667 0.84576 0.38389 0.0
C2059 C 0.74262 0.8474 0.35976 0.0
C2060 C 0.71457 0.84746 0.38923 0.0
C2061 C 0.69729 0.85075 0.37064 0.0
C2062 C 0.70342 0.85253 0.34651 0.0
C2063 C 0.72554 0.85094 0.34124 0.0
H2064 H 0.09403 0.31919 0.48041 0.0
H2065 H 0.1451 0.3406 0.54585 0.0
H2066 H 0.08019 0.28387 0.49667 0.0
H2067 H 0.13179 0.30479 0.56178 0.0
H2068 H 0.08547 0.25434 0.59759 0.0
H2069 H 0.10039 0.28856 0.58002 0.0
H2070 H 0.08728 0.24708 0.50573 0.0
H2071 H 0.07108 0.21331 0.52305 0.0
C2072 C 0.10264 0.3161 0.49802 0.0
C2073 C 0.12062 0.33275 0.51188 0.0
C2074 C 0.09471 0.29578 0.50736 0.0
C2075 C 0.10469 0.29151 0.53071 0.0
C2076 C 0.12334 0.30772 0.54402 0.0
C2077 C 0.13116 0.32814 0.53476 0.0
C2078 C 0.08541 0.2526 0.57745 0.0
C2079 C 0.07703 0.23099 0.56179 0.0
C2080 C 0.09435 0.27216 0.5674 0.0
C2081 C 0.09526 0.27061 0.54143 0.0
C2082 C 0.08672 0.24905 0.52576 0.0
C2083 C 0.07764 0.22955 0.53578 0.0
H2084 H 0.56831 0.27391 0.16288 0.0
H2085 H 0.55435 0.31979 0.22651 0.0
H2086 H 0.60744 0.27822 0.18246 0.0
H2087 H 0.59364 0.32499 0.24565 0.0
H2088 H 0.6531 0.29868 0.28727 0.0
H2089 H 0.61593 0.30104 0.26585 0.0
H2090 H 0.64315 0.30278 0.19592 0.0
H2091 H 0.68012 0.29959 0.21735 0.0
C2092 C 0.57379 0.28539 0.18075 0.0
C2093 C 0.55834 0.29627 0.19337 0.0
C2094 C 0.59622 0.28796 0.19196 0.0
C2095 C 0.6036 0.30172 0.2158 0.0
C2096 C 0.58837 0.31379 0.22758 0.0
C2097 C 0.56591 0.31095 0.21656 0.0
C2098 C 0.65109 0.29981 0.26739 0.0
C2099 C 0.66929 0.29874 0.25386 0.0
C2100 C 0.62987 0.3013 0.25511 0.0
C2101 C 0.62655 0.30207 0.22912 0.0
C2102 C 0.64504 0.3018 0.21582 0.0
C2103 C 0.66618 0.30003 0.22806 0.0
H2104 H 0.65176 0.98603 0.01927 0.0
H2105 H 0.6356 0.93514 0.06786 0.0
H2106 H 0.63269 1.0132 0.04342 0.0
H2107 H 0.61661 0.96253 0.09181 0.0
H2108 H 0.58565 0.03648 0.12093 0.0
H2109 H 0.61767 1.01616 0.11341 0.0
H2110 H 0.58411 0.98708 0.03841 0.0
H2111 H 0.5524 1.0068 0.04573 0.0
C2112 C 0.6453 0.98104 0.03585 0.0
C2113 C 0.64424 0.95794 0.0408 0.0
C2114 C 0.63431 0.99665 0.04965 0.0
C2115 C 0.62275 0.98958 0.06895 0.0
C2116 C 0.62533 0.96825 0.07688 0.0
C2117 C 0.63625 0.95256 0.06303 0.0
C2118 C 0.58501 0.02535 0.10305 0.0
C2119 C 0.56668 0.02344 0.08383 0.0
C2120 C 0.60333 1.01395 0.09875 0.0
C2121 C 0.60342 1.0007 0.07515 0.0
C2122 C 0.58451 0.99766 0.05659 0.0
C2123 C 0.56628 1.00877 0.06091 0.0
H2124 H 0.94763 0.77975 0.72658 0.0
H2125 H 0.96326 0.84543 0.69983 0.0
H2126 H 0.92817 0.79831 0.75841 0.0
H2127 H 0.9427 0.86405 0.73073 0.0
H2128 H 0.94467 0.89505 0.81416 0.0
H2129 H 0.95362 0.87618 0.77437 0.0
H2130 H 0.90017 0.81769 0.77341 0.0
H2131 H 0.89215 0.83623 0.81361 0.0
C2132 C 0.94564 0.79786 0.72658 0.0
C2133 C 0.95668 0.81119 0.71078 0.0
C2134 C 0.93462 0.80863 0.74495 0.0
C2135 C 0.93435 0.83289 0.74759 0.0
C2136 C 0.94317 0.84551 0.72971 0.0
C2137 C 0.9545 0.83478 0.71164 0.0
C2138 C 0.93502 0.87813 0.80536 0.0
C2139 C 0.91826 0.8667 0.81714 0.0
C2140 C 0.93983 0.86742 0.78241 0.0
C2141 C 0.9276 0.84532 0.77059 0.0
C2142 C 0.91023 0.83443 0.78212 0.0
C2143 C 0.90571 0.84496 0.80519 0.0
H2144 H 0.14096 0.07644 0.89698 0.0
H2145 H 0.1949 0.06777 0.9524 0.0
H2146 H 0.11545 0.07684 0.92886 0.0
H2147 H 0.16934 0.06771 0.98417 0.0
H2148 H 0.11211 0.05013 0.03385 0.0
H2149 H 0.13709 0.04804 1.0013 0.0
H2150 H 0.10506 0.09858 0.9662 0.0
H2151 H 0.08056 0.10093 0.9989 0.0
C2152 C 0.14754 0.07439 0.91586 0.0
C2153 C 0.1705 0.07196 0.9214 0.0
C2154 C 0.13271 0.07478 0.93452 0.0
C2155 C 0.13974 0.0723 0.95985 0.0
C2156 C 0.16263 0.06947 0.96525 0.0
C2157 C 0.17757 0.06957 0.94672 0.0
C2158 C 0.11011 0.06066 0.01909 0.0
C2159 C 0.09363 0.07551 0.01942 0.0
C2160 C 0.12479 0.05963 1.00025 0.0
C2161 C 0.12363 0.07307 0.98032 0.0
C2162 C 0.10684 0.08759 0.98054 0.0
C2163 C 0.09254 0.08896 0.99961 0.0
H2164 H 0.75143 0.42545 0.67958 0.0
H2165 H 0.75452 0.35857 0.6366 0.0
H2166 H 0.7655 0.41208 0.71806 0.0
H2167 H 0.77043 0.34563 0.67443 0.0
H2168 H 0.78606 0.32062 0.74877 0.0
H2169 H 0.76888 0.3327 0.71107 0.0
H2170 H 0.79551 0.4052 0.74275 0.0
H2171 H 0.81096 0.39284 0.78133 0.0
C2172 C 0.755 0.40776 0.67843 0.0
C2173 C 0.75155 0.39298 0.65507 0.0
C2174 C 0.76355 0.40013 0.70052 0.0
C2175 C 0.76969 0.37771 0.69985 0.0
C2176 C 0.76569 0.36281 0.67633 0.0
C2177 C 0.75649 0.37023 0.65439 0.0
C2178 C 0.78844 0.33914 0.74754 0.0
C2179 C 0.80004 0.35574 0.76803 0.0
C2180 C 0.77857 0.34619 0.72571 0.0
C2181 C 0.78048 0.37012 0.72332 0.0
C2182 C 0.79287 0.38666 0.74371 0.0
C2183 C 0.80216 0.37959 0.76585 0.0
H2184 H 0.51631 0.13606 0.39744 0.0
H2185 H 0.47043 0.16605 0.44219 0.0
H2186 H 0.53515 0.12408 0.43483 0.0
H2187 H 0.48954 0.15438 0.47961 0.0
H2188 H 0.53881 0.13865 0.54558 0.0
H2189 H 0.52752 0.15825 0.5099 0.0
H2190 H 0.51879 0.09251 0.45959 0.0
H2191 H 0.52946 0.07299 0.49508 0.0
C2192 C 0.51079 0.14096 0.4154 0.0
C2193 C 0.49186 0.15213 0.41673 0.0
C2194 C 0.52144 0.13381 0.4368 0.0
C2195 C 0.51373 0.13807 0.46019 0.0
C2196 C 0.49599 0.15092 0.46195 0.0
C2197 C 0.48506 0.15766 0.44047 0.0
C2198 C 0.53472 0.12851 0.52684 0.0
C2199 C 0.53499 0.10426 0.52313 0.0
C2200 C 0.52818 0.13969 0.50644 0.0
C2201 C 0.52237 0.12698 0.48185 0.0
C2202 C 0.52342 0.1029 0.47818 0.0
C2203 C 0.52942 0.09168 0.49855 0.0
H2204 H 0.77977 0.64339 0.09352 0.0
H2205 H 0.82933 0.70207 0.08496 0.0
H2206 H 0.78336 0.65832 0.13843 0.0
H2207 H 0.8328 0.71699 0.12957 0.0
H2208 H 0.83571 0.74263 0.20975 0.0
H2209 H 0.84105 0.71388 0.17468 0.0
H2210 H 0.76867 0.69395 0.15508 0.0
H2211 H 0.7634 0.72228 0.19031 0.0
C2212 C 0.79201 0.659 0.10138 0.0
C2213 C 0.80392 0.67189 0.08573 0.0
C2214 C 0.79398 0.66758 0.12704 0.0
C2215 C 0.80804 0.68902 0.13739 0.0
C2216 C 0.82186 0.70039 0.1222 0.0
C2217 C 0.81976 0.69193 0.09657 0.0
C2218 C 0.82099 0.73158 0.19838 0.0
C2219 C 0.79913 0.7349 0.20241 0.0
C2220 C 0.82405 0.71521 0.1783 0.0
C2221 C 0.8053 0.7018 0.16206 0.0
C2222 C 0.78347 0.70385 0.16738 0.0
C2223 C 0.78042 0.72029 0.18733 0.0
H2224 H 0.13929 0.0387 0.77507 0.0
H2225 H 0.19093 0.09558 0.76747 0.0
H2226 H 0.1188 0.04172 0.73394 0.0
H2227 H 0.16988 0.09928 0.72691 0.0
H2228 H 0.10481 0.11435 0.6738 0.0
H2229 H 0.12685 0.10997 0.71352 0.0
H2230 H 0.12774 0.03791 0.68398 0.0
H2231 H 0.10658 0.04254 0.64382 0.0
C2232 C 0.14641 0.05176 0.76461 0.0
C2233 C 0.16705 0.06669 0.77475 0.0
C2234 C 0.13458 0.05352 0.74095 0.0
C2235 C 0.14252 0.07083 0.72692 0.0
C2236 C 0.16313 0.08578 0.73706 0.0
C2237 C 0.17533 0.08352 0.76033 0.0
C2238 C 0.10973 0.09756 0.67566 0.0
C2239 C 0.1038 0.07885 0.65531 0.0
C2240 C 0.12249 0.09507 0.6985 0.0
C2241 C 0.1292 0.07356 0.70219 0.0
C2242 C 0.12293 0.05472 0.682 0.0
C2243 C 0.11079 0.05742 0.65887 0.0
H2244 H 0.75007 0.36204 0.5275 0.0
H2245 H 0.73849 0.41792 0.48599 0.0
H2246 H 0.75953 0.33973 0.48976 0.0
H2247 H 0.74848 0.39617 0.44877 0.0
H2248 H 0.75901 0.34994 0.37954 0.0
H2249 H 0.74113 0.3647 0.41511 0.0
H2250 H 0.78993 0.34053 0.46576 0.0
H2251 H 0.80728 0.32523 0.43012 0.0
C2252 C 0.74894 0.36936 0.51022 0.0
C2253 C 0.7434 0.39188 0.51001 0.0
C2254 C 0.75475 0.35669 0.48856 0.0
C2255 C 0.75512 0.3661 0.46597 0.0
C2256 C 0.74826 0.38802 0.46548 0.0
C2257 C 0.74252 0.40063 0.48704 0.0
C2258 C 0.76565 0.34737 0.39823 0.0
C2259 C 0.78469 0.33642 0.40185 0.0
C2260 C 0.75551 0.35607 0.41877 0.0
C2261 C 0.76411 0.35418 0.44366 0.0
C2262 C 0.78253 0.34223 0.44706 0.0
C2263 C 0.79262 0.33348 0.42651 0.0
H2264 H 0.45923 0.12692 0.24955 0.0
H2265 H 0.52672 0.15487 0.28773 0.0
H2266 H 0.47436 0.1152 0.21109 0.0
H2267 H 0.54194 0.14347 0.24897 0.0
H2268 H 0.56198 0.09393 0.184 0.0
H2269 H 0.54768 0.10842 0.22244 0.0
H2270 H 0.49227 0.12903 0.17775 0.0
H2271 H 0.50617 0.11419 0.13958 0.0
C2272 C 0.4773 0.13095 0.24965 0.0
C2273 C 0.49172 0.1419 0.27182 0.0
C2274 C 0.48602 0.12424 0.22748 0.0
C2275 C 0.50946 0.12822 0.22679 0.0
C2276 C 0.52385 0.13976 0.24882 0.0
C2277 C 0.51509 0.14656 0.27101 0.0
C2278 C 0.5467 0.10146 0.18239 0.0
C2279 C 0.53514 0.10255 0.15858 0.0
C2280 C 0.53857 0.10998 0.20447 0.0
C2281 C 0.5187 0.11987 0.20334 0.0
C2282 C 0.50735 0.12118 0.17949 0.0
C2283 C 0.51542 0.11265 0.1575 0.0
H2284 H 0.77373 0.72657 0.98675 0.0
H2285 H 0.78516 0.68358 0.91956 0.0
H2286 H 0.77986 0.76136 0.96653 0.0
H2287 H 0.79177 0.71862 0.89958 0.0
H2288 H 0.82861 0.78977 0.88691 0.0
H2289 H 0.82363 0.7581 0.91166 0.0
H2290 H 0.75837 0.77413 0.92478 0.0
H2291 H 0.7632 0.80583 0.89959 0.0
C2292 C 0.77767 0.72459 0.9677 0.0
C2293 C 0.77911 0.70241 0.95471 0.0
C2294 C 0.78107 0.74446 0.95619 0.0
C2295 C 0.78643 0.74255 0.9317 0.0
C2296 C 0.78784 0.72043 0.91863 0.0
C2297 C 0.78396 0.70045 0.92996 0.0
C2298 C 0.81341 0.78693 0.89555 0.0
C2299 C 0.79607 0.79998 0.8911 0.0
C2300 C 0.81052 0.76868 0.90946 0.0
C2301 C 0.79048 0.76354 0.91961 0.0
C2302 C 0.77391 0.77776 0.91693 0.0
C2303 C 0.77664 0.7958 0.9026 0.0
H2304 H 0.91136 0.17264 0.03528 0.0
H2305 H 0.94061 0.20741 0.11017 0.0
H2306 H 0.94148 0.14974 0.03398 0.0
H2307 H 0.97131 0.18429 0.10871 0.0
H2308 H 0.0332 0.1528 0.08751 0.0
H2309 H 1.00419 0.17719 0.08791 0.0
H2310 H 0.95413 0.11728 0.05271 0.0
H2311 H 0.98347 0.09248 0.05243 0.0
C2312 C 0.92438 0.17565 0.05151 0.0
C2313 C 0.92331 0.192 0.07294 0.0
C2314 C 0.94164 0.16222 0.05077 0.0
C2315 C 0.95874 0.16468 0.07134 0.0
C2316 C 0.95843 0.18183 0.09243 0.0
C2317 C 0.9409 0.19528 0.09326 0.0
C2318 C 1.01605 0.14464 0.07967 0.0
C2319 C 1.01083 0.12043 0.06988 0.0
C2320 C 0.9993 0.15877 0.08015 0.0
C2321 C 0.97666 0.14937 0.0706 0.0
C2322 C 0.97141 0.12527 0.06015 0.0
C2323 C 0.98824 0.11098 0.05989 0.0
H2324 H 0.4249 0.53594 0.18512 0.0
H2325 H 0.3957 0.50029 0.11071 0.0
H2326 H 0.46238 0.54098 0.17196 0.0
H2327 H 0.43242 0.50647 0.09683 0.0
H2328 H 0.50062 0.50855 0.07754 0.0
H2329 H 0.4678 0.49719 0.09745 0.0
H2330 H 0.48362 0.56337 0.14823 0.0
H2331 H 0.51719 0.57407 0.1289 0.0
C2332 C 0.42664 0.52942 0.16588 0.0
C2333 C 0.40765 0.51843 0.14859 0.0
C2334 C 0.44799 0.53227 0.1583 0.0
C2335 C 0.45054 0.5243 0.13325 0.0
C2336 C 0.43138 0.51246 0.11638 0.0
C2337 C 0.41024 0.50919 0.12414 0.0
C2338 C 0.49708 0.52059 0.09304 0.0
C2339 C 0.51109 0.54234 0.10146 0.0
C2340 C 0.4782 0.51415 0.10441 0.0
C2341 C 0.47257 0.52961 0.12402 0.0
C2342 C 0.48729 0.55098 0.13317 0.0
C2343 C 0.50645 0.55725 0.12202 0.0
H2344 H 0.41912 0.67058 0.81403 0.0
H2345 H 0.35823 0.63948 0.83858 0.0
H2346 H 0.40511 0.70836 0.81656 0.0
H2347 H 0.34458 0.67635 0.84115 0.0
H2348 H 0.31265 0.74079 0.82706 0.0
H2349 H 0.32806 0.70441 0.82325 0.0
H2350 H 0.39557 0.74405 0.83896 0.0
H2351 H 0.37991 0.78066 0.84272 0.0
C2352 C 0.40276 0.67143 0.81985 0.0
C2353 C 0.3902 0.65092 0.82599 0.0
C2354 C 0.39458 0.69352 0.82151 0.0
C2355 C 0.37319 0.69645 0.82901 0.0
C2356 C 0.36081 0.67582 0.83487 0.0
C2357 C 0.36898 0.65411 0.83352 0.0
C2358 C 0.33083 0.74204 0.82991 0.0
C2359 C 0.34462 0.76454 0.83554 0.0
C2360 C 0.33993 0.72071 0.82779 0.0
C2361 C 0.36355 0.72018 0.83087 0.0
C2362 C 0.3774 0.74276 0.8362 0.0
C2363 C 0.36825 0.76419 0.83859 0.0
H2364 H 0.33303 0.68236 0.60077 0.0
H2365 H 0.29978 0.72808 0.55881 0.0
H2366 H 0.29666 0.65817 0.60161 0.0
H2367 H 0.26308 0.70408 0.55992 0.0
H2368 H 0.20353 0.64468 0.54761 0.0
H2369 H 0.24147 0.66339 0.54314 0.0
H2370 H 0.26327 0.66385 0.62205 0.0
H2371 H 0.22557 0.64542 0.62658 0.0
C2372 C 0.31783 0.68703 0.59155 0.0
C2373 C 0.31897 0.70648 0.57905 0.0
C2374 C 0.29709 0.67334 0.59218 0.0
C2375 C 0.27715 0.67912 0.58057 0.0
C2376 C 0.2783 0.69898 0.56853 0.0
C2377 C 0.29912 0.71278 0.56805 0.0
C2378 C 0.21654 0.64854 0.56389 0.0
C2379 C 0.21159 0.64375 0.58748 0.0
C2380 C 0.23815 0.65928 0.56134 0.0
C2381 C 0.25511 0.66529 0.58232 0.0
C2382 C 0.25052 0.65923 0.60553 0.0
C2383 C 0.22895 0.64858 0.60809 0.0
H2384 H 0.67811 0.95133 0.88124 0.0
H2385 H 0.69051 0.95896 0.80603 0.0
H2386 H 0.70161 0.9206 0.88156 0.0
H2387 H 0.71462 0.92878 0.80668 0.0
H2388 H 0.78473 0.91105 0.85166 0.0
H2389 H 0.7555 0.936 0.85016 0.0
H2390 H 0.70385 0.87503 0.84291 0.0
H2391 H 0.73314 0.85003 0.84386 0.0
C2392 C 0.68507 0.9457 0.8644 0.0
C2393 C 0.682 0.95707 0.84334 0.0
C2394 C 0.6987 0.92834 0.8647 0.0
C2395 C 0.70998 0.9225 0.84421 0.0
C2396 C 0.70601 0.93296 0.82266 0.0
C2397 C 0.69196 0.94995 0.82214 0.0
C2398 C 0.76717 0.90305 0.85012 0.0
C2399 C 0.76111 0.87863 0.8478 0.0
C2400 C 0.75048 0.91725 0.84904 0.0
C2401 C 0.72748 0.90733 0.84618 0.0
C2402 C 0.72146 0.88303 0.84495 0.0
C2403 C 0.73813 0.86879 0.84547 0.0
H2404 H 0.78472 1.02073 0.67284 0.0
H2405 H 0.82052 0.09182 0.68154 0.0
H2406 H 0.74895 0.03464 0.66449 0.0
H2407 H 0.7848 0.10567 0.67348 0.0
H2408 H 0.72651 0.10806 0.60994 0.0
H2409 H 0.76065 0.09874 0.63174 0.0
H2410 H 0.72105 0.05999 0.67816 0.0
H2411 H 0.68669 0.06977 0.65665 0.0
C2412 C 0.78491 0.03939 0.67386 0.0
C2413 C 0.80541 0.05513 0.67726 0.0
C2414 C 0.76442 0.04736 0.66909 0.0
C2415 C 0.7642 0.07116 0.66778 0.0
C2416 C 0.78456 0.08716 0.67382 0.0
C2417 C 0.80498 0.07922 0.6785 0.0
C2418 C 0.72506 0.09802 0.62517 0.0
C2419 C 0.70386 0.08959 0.63146 0.0
C2420 C 0.74465 0.0927 0.6377 0.0
C2421 C 0.74349 0.07873 0.65674 0.0
C2422 C 0.72238 0.07068 0.66346 0.0
C2423 C 0.70275 0.07617 0.65104 0.0
H2424 H 0.36127 0.52048 0.79393 0.0
H2425 H 0.42018 0.51399 0.84341 0.0
H2426 H 0.3433 0.48095 0.79849 0.0
H2427 H 0.40236 0.47511 0.84877 0.0
H2428 H 0.37482 0.39764 0.84413 0.0
H2429 H 0.39118 0.43624 0.8374 0.0
H2430 H 0.32448 0.452 0.81856 0.0
H2431 H 0.30797 0.41227 0.8247 0.0
C2432 C 0.37042 0.51082 0.8061 0.0
C2433 C 0.39221 0.52136 0.81886 0.0
C2434 C 0.35998 0.48776 0.80879 0.0
C2435 C 0.37081 0.47373 0.82423 0.0
C2436 C 0.39291 0.48428 0.83638 0.0
C2437 C 0.40334 0.50714 0.83348 0.0
C2438 C 0.36336 0.40913 0.83851 0.0
C2439 C 0.33975 0.40101 0.83514 0.0
C2440 C 0.37297 0.43192 0.83479 0.0
C2441 C 0.35968 0.44853 0.82757 0.0
C2442 C 0.33587 0.44037 0.82389 0.0
C2443 C 0.32617 0.41725 0.82753 0.0
H2444 H 0.20607 0.56029 0.31098 0.0
H2445 H 0.16421 0.60271 0.34899 0.0
H2446 H 0.22975 0.59535 0.30346 0.0
H2447 H 0.18755 0.63822 0.34078 0.0
H2448 H 0.24943 0.69578 0.34645 0.0
H2449 H 0.22534 0.66089 0.35392 0.0
H2450 H 0.22932 0.62629 0.27924 0.0
H2451 H 0.25452 0.66057 0.27234 0.0
C2452 C 0.20204 0.57727 0.31777 0.0
C2453 C 0.18392 0.57904 0.3313 0.0
C2454 C 0.21538 0.59733 0.31316 0.0
C2455 C 0.21061 0.61961 0.32161 0.0
C2456 C 0.1919 0.62131 0.33444 0.0
C2457 C 0.17849 0.6011 0.33902 0.0
C2458 C 0.24547 0.6806 0.33176 0.0
C2459 C 0.25402 0.68096 0.30881 0.0
C2460 C 0.23134 0.66074 0.33591 0.0
C2461 C 0.2253 0.64087 0.31714 0.0
C2462 C 0.23381 0.64124 0.29419 0.0
C2463 C 0.24807 0.661 0.29012 0.0
H2464 H 0.57025 0.7631 0.42154 0.0
H2465 H 0.57584 0.81297 0.48959 0.0
H2466 H 0.57706 0.73252 0.44717 0.0
H2467 H 0.58242 0.78287 0.51473 0.0
H2468 H 0.56982 0.71879 0.55276 0.0
H2469 H 0.56121 0.74627 0.52467 0.0
H2470 H 0.60923 0.72355 0.47821 0.0
H2471 H 0.61845 0.69639 0.50672 0.0
C2472 C 0.57278 0.76751 0.44185 0.0
C2473 C 0.5725 0.7905 0.45345 0.0
C2474 C 0.57681 0.75007 0.45653 0.0
C2475 C 0.58018 0.75522 0.48305 0.0
C2476 C 0.57962 0.77815 0.49444 0.0
C2477 C 0.57596 0.79549 0.47991 0.0
C2478 C 0.57885 0.71978 0.5368 0.0
C2479 C 0.59509 0.70542 0.53237 0.0
C2480 C 0.57374 0.73546 0.52053 0.0
C2481 C 0.58455 0.73717 0.49917 0.0
C2482 C 0.6004 0.72249 0.49431 0.0
C2483 C 0.60569 0.70691 0.51075 0.0
H2484 H 0.62751 0.29269 0.75793 0.0
H2485 H 0.62255 0.34386 0.82143 0.0
H2486 H 0.66748 0.29441 0.77323 0.0
H2487 H 0.6632 0.34624 0.83633 0.0
H2488 H 0.74509 0.35752 0.83175 0.0
H2489 H 0.70459 0.35821 0.81936 0.0
H2490 H 0.69005 0.28314 0.81393 0.0
H2491 H 0.72998 0.2825 0.82715 0.0
C2492 C 0.63493 0.30454 0.77509 0.0
C2493 C 0.62141 0.31812 0.7883 0.0
C2494 C 0.65802 0.30546 0.78395 0.0
C2495 C 0.66891 0.32048 0.80609 0.0
C2496 C 0.6556 0.33452 0.81915 0.0
C2497 C 0.63218 0.3331 0.81062 0.0
C2498 C 0.73323 0.34119 0.82824 0.0
C2499 C 0.74115 0.31997 0.83068 0.0
C2500 C 0.7099 0.34158 0.82114 0.0
C2501 C 0.69375 0.32071 0.8155 0.0
C2502 C 0.70175 0.2996 0.81797 0.0
C2503 C 0.72484 0.29927 0.8257 0.0
H2504 H 0.06471 0.44139 0.91658 0.0
H2505 H 0.07504 0.40111 0.97668 0.0
H2506 H 0.06495 0.4761 0.94778 0.0
H2507 H 0.07533 0.43552 1.00746 0.0
H2508 H 0.04554 0.49227 0.05296 0.0
H2509 H 0.04775 0.45905 0.02134 0.0
H2510 H 0.08901 0.50495 0.98279 0.0
H2511 H 0.08671 0.53835 1.01451 0.0
C2512 C 0.06729 0.43993 0.93636 0.0
C2513 C 0.06974 0.41826 0.94393 0.0
C2514 C 0.06745 0.45987 0.95428 0.0
C2515 C 0.06991 0.45861 0.9802 0.0
C2516 C 0.07297 0.43712 0.98771 0.0
C2517 C 0.07294 0.41733 0.96992 0.0
C2518 C 0.05518 0.49533 0.03784 0.0
C2519 C 0.06601 0.51803 0.03641 0.0
C2520 C 0.05653 0.47621 0.0197 0.0
C2521 C 0.06862 0.47923 0.99945 0.0
C2522 C 0.07941 0.50197 0.99797 0.0
C2523 C 0.07823 0.5211 1.01629 0.0
H2524 H 0.9608 0.78197 0.2461 0.0
H2525 H 0.99961 0.82494 0.31308 0.0
H2526 H 0.92632 0.78522 0.26305 0.0
H2527 H 0.96405 0.82844 0.33034 0.0
H2528 H 0.89237 0.81277 0.35934 0.0
H2529 H 0.92948 0.80924 0.34635 0.0
H2530 H 0.90223 0.8129 0.27005 0.0
H2531 H 0.86559 0.8161 0.28287 0.0
C2532 C 0.9622 0.79223 0.26461 0.0
C2533 C 0.98359 0.80336 0.27788 0.0
C2534 C 0.94201 0.79424 0.27436 0.0
C2535 C 0.94183 0.80754 0.29801 0.0
C2536 C 0.9632 0.81803 0.31201 0.0
C2537 C 0.98374 0.81602 0.3021 0.0
C2538 C 0.89426 0.81263 0.33974 0.0
C2539 C 0.87558 0.8145 0.32221 0.0
C2540 C 0.91573 0.81083 0.33229 0.0
C2541 C 0.91928 0.81057 0.30696 0.0
C2542 C 0.90051 0.81255 0.28962 0.0
C2543 C 0.87925 0.8145 0.29705 0.0
H2544 H 0.47376 0.32975 0.09482 0.0
H2545 H 0.51101 0.35445 0.16936 0.0
H2546 H 0.49288 0.36361 0.08006 0.0
H2547 H 0.52943 0.38896 0.15482 0.0
H2548 H 0.5797 0.42947 0.11343 0.0
H2549 H 0.55795 0.39771 0.12966 0.0
H2550 H 0.49819 0.40433 0.08055 0.0
H2551 H 0.52023 0.43539 0.0638 0.0
C2552 C 0.48563 0.34268 0.10825 0.0
C2553 C 0.49105 0.33916 0.13322 0.0
C2554 C 0.49659 0.36221 0.09977 0.0
C2555 C 0.51301 0.3789 0.11614 0.0
C2556 C 0.51735 0.37614 0.14151 0.0
C2557 C 0.50659 0.35645 0.14993 0.0
C2558 C 0.56194 0.42399 0.1061 0.0
C2559 C 0.5517 0.43463 0.08717 0.0
C2560 C 0.54939 0.40597 0.11554 0.0
C2561 C 0.52624 0.39846 0.1065 0.0
C2562 C 0.51603 0.40933 0.08767 0.0
C2563 C 0.52865 0.42711 0.07803 0.0
H2564 H 0.076 0.38154 0.44155 0.0
H2565 H 0.06573 0.43131 0.50382 0.0
H2566 H 0.03734 0.37938 0.42208 0.0
H2567 H 1.02684 0.43006 0.48381 0.0
H2568 H 0.95211 0.39857 0.45392 0.0
H2569 H 0.9912 0.40443 0.47402 0.0
H2570 H 1.01332 0.40082 0.40096 0.0
H2571 H 0.97412 0.39432 0.38094 0.0
C2572 C 0.06539 0.3923 0.45083 0.0
C2573 C 0.07373 0.40697 0.4738 0.0
C2574 C 0.0433 0.3912 0.43963 0.0
C2575 C 0.02905 0.4048 0.45117 0.0
C2576 C 0.03736 0.41926 0.4745 0.0
C2577 C 0.05954 0.4201 0.48591 0.0
C2578 C 0.96541 0.39929 0.44223 0.0
C2579 C 0.9602 0.39589 0.4159 0.0
C2580 C 0.98779 0.40277 0.45374 0.0
C2581 C 1.00541 0.40307 0.43913 0.0
C2582 C 1.00015 0.40032 0.41277 0.0
C2583 C 0.97774 0.3966 0.40127 0.0
H2584 H 0.96709 0.73203 0.59217 0.0
H2585 H 0.97204 0.69781 0.6577 0.0
H2586 H 0.97375 0.69682 0.56645 0.0
H2587 H 0.9791 0.663 0.63231 0.0
H2588 H 1.00485 0.60786 0.59316 0.0
H2589 H 0.9748 0.63031 0.59935 0.0
H2590 H 1.01123 0.68674 0.56894 0.0
H2591 H 0.04073 0.66365 0.56191 0.0
C2592 C 0.9686 0.71667 0.60092 0.0
C2593 C 0.96987 0.71795 0.62714 0.0
C2594 C 0.97259 0.69654 0.58617 0.0
C2595 C 0.97779 0.6774 0.59743 0.0
C2596 C 0.97533 0.67741 0.62291 0.0
C2597 C 0.97135 0.69751 0.63761 0.0
C2598 C 1.00571 0.62436 0.58629 0.0
C2599 C 1.02488 0.63384 0.57659 0.0
C2600 C 0.9886 0.63744 0.59019 0.0
C2601 C 0.9907 0.66051 0.58505 0.0
C2602 C 1.00882 0.66897 0.5729 0.0
C2603 C 1.02583 0.65577 0.56887 0.0
H2604 H 0.6757 0.84962 0.97543 0.0
H2605 H 0.68759 0.90828 0.93543 0.0
H2606 H 0.68767 0.8245 0.94163 0.0
H2607 H 0.69928 0.88297 0.90168 0.0
H2608 H 0.72525 0.7925 0.87774 0.0
H2609 H 0.71914 0.81689 0.91555 0.0
H2610 H 0.67323 0.84971 0.8707 0.0
H2611 H 0.67874 0.82488 0.83276 0.0
C2612 C 0.68167 0.85744 0.95998 0.0
C2613 C 0.68015 0.88092 0.95795 0.0
C2614 C 0.68833 0.84293 0.94049 0.0
C2615 C 0.69359 0.85165 0.91869 0.0
C2616 C 0.69463 0.87568 0.91798 0.0
C2617 C 0.68821 0.89023 0.93752 0.0
C2618 C 0.71335 0.8044 0.87584 0.0
C2619 C 0.70267 0.80677 0.85195 0.0
C2620 C 0.71007 0.81857 0.89759 0.0
C2621 C 0.69618 0.83557 0.89597 0.0
C2622 C 0.68455 0.83715 0.87238 0.0
C2623 C 0.68762 0.82281 0.85065 0.0
H2624 H 0.49053 0.59148 0.77696 0.0
H2625 H 0.43169 0.58394 0.72141 0.0
H2626 H 0.51447 0.58993 0.74385 0.0
H2627 H 0.45595 0.58304 0.68795 0.0
H2628 H 0.51171 0.60346 0.6352 0.0
H2629 H 0.48666 0.60585 0.66774 0.0
H2630 H 0.52486 0.56356 0.70912 0.0
H2631 H 0.54932 0.56067 0.67639 0.0
C2632 C 0.4825 0.58961 0.75767 0.0
C2633 C 0.45871 0.58786 0.75251 0.0
C2634 C 0.49647 0.58859 0.73836 0.0
C2635 C 0.48767 0.5863 0.71255 0.0
C2636 C 0.46386 0.58495 0.70728 0.0
C2637 C 0.44973 0.5854 0.7267 0.0
C2638 C 0.51503 0.59486 0.65135 0.0
C2639 C 0.5332 0.58214 0.65286 0.0
C2640 C 0.50033 0.59602 0.67013 0.0
C2641 C 0.50327 0.58498 0.69175 0.0
C2642 C 0.5217 0.57262 0.69331 0.0
C2643 C 0.53598 0.57098 0.6743 0.0
H2644 H 0.85138 0.27967 0.03909 0.0
H2645 H 0.86522 0.22172 0.98836 0.0
H2646 H 0.83846 0.29779 1.0032 0.0
H2647 H 0.85357 0.24015 0.95265 0.0
H2648 H 0.80876 0.26193 0.89171 0.0
H2649 H 0.82145 0.24637 0.92916 0.0
H2650 H 0.845 0.3169 0.96898 0.0
H2651 H 0.8311 0.33239 0.93158 0.0
C2652 C 0.85231 0.27114 0.02029 0.0
C2653 C 0.85934 0.24922 1.01664 0.0
C2654 C 0.84481 0.2815 0.99959 0.0
C2655 C 0.8444 0.27033 0.97469 0.0
C2656 C 0.85275 0.24905 0.9713 0.0
C2657 C 0.85982 0.23856 0.99189 0.0
C2658 C 0.81636 0.27414 0.90857 0.0
C2659 C 0.81884 0.29842 0.90858 0.0
C2660 C 0.82399 0.26521 0.9301 0.0
C2661 C 0.83485 0.28024 0.95228 0.0
C2662 C 0.83668 0.30463 0.9525 0.0
C2663 C 0.82866 0.31358 0.93099 0.0
H2664 H 0.15043 0.506 0.24195 0.0
H2665 H 0.09013 0.51449 0.27464 0.0
H2666 H 0.13336 0.5168 0.20277 0.0
H2667 H 0.07346 0.52603 0.23581 0.0
H2668 H 0.07823 0.58417 0.1808 0.0
H2669 H 0.08962 0.56519 0.21663 0.0
H2670 H 0.09527 0.50348 0.16577 0.0
H2671 H 0.0829 0.52224 0.12971 0.0
C2672 C 0.13333 0.50958 0.24059 0.0
C2673 C 0.12163 0.50919 0.26148 0.0
C2674 C 0.12357 0.51581 0.21813 0.0
C2675 C 0.10209 0.52238 0.21621 0.0
C2676 C 0.09004 0.52107 0.2367 0.0
C2677 C 0.09955 0.51427 0.2589 0.0
C2678 C 0.08146 0.56637 0.17726 0.0
C2679 C 0.07944 0.55463 0.15244 0.0
C2680 C 0.08798 0.5555 0.19779 0.0
C2681 C 0.09332 0.53281 0.19408 0.0
C2682 C 0.09121 0.52094 0.16923 0.0
C2683 C 0.08401 0.53161 0.14862 0.0
H2684 H 0.86911 0.03524 0.57744 0.0
H2685 H 0.81153 0.99071 0.5953 0.0
H2686 H 0.86362 1.01227 0.53531 0.0
H2687 H 0.80606 0.96789 0.55339 0.0
H2688 H 0.79728 0.93158 0.47449 0.0
H2689 H 0.79816 0.9652 0.5071 0.0
H2690 H 0.87054 0.97122 0.52445 0.0
H2691 H 0.8697 0.93797 0.4916 0.0
C2692 C 0.8549 1.02104 0.57219 0.0
C2693 C 0.84106 1.01447 0.58988 0.0
C2694 C 0.85184 1.00781 0.5481 0.0
C2695 C 0.83464 0.98806 0.54121 0.0
C2696 C 0.81943 0.98302 0.55807 0.0
C2697 C 0.82265 0.99604 0.58217 0.0
C2698 C 0.81342 0.94044 0.48489 0.0
C2699 C 0.8334 0.93199 0.48076 0.0
C2700 C 0.8139 0.95962 0.5036 0.0
C2701 C 0.8344 0.9708 0.51837 0.0
C2702 C 0.85451 0.96315 0.51321 0.0
C2703 C 0.85401 0.94391 0.49465 0.0
H2704 H 0.4768 0.5908 0.8766 0.0
H2705 H 0.42107 0.58963 0.91912 0.0
H2706 H 0.50226 0.58911 0.91468 0.0
H2707 H 0.44635 0.58759 0.957 0.0
H2708 H 0.50025 0.60386 0.02714 0.0
H2709 H 0.47576 0.60716 0.9891 0.0
H2710 H 0.51378 0.56518 0.94443 0.0
H2711 H 0.53853 0.5622 0.98264 0.0
C2712 C 0.46989 0.59036 0.89404 0.0
C2713 C 0.44662 0.59055 0.89438 0.0
C2714 C 0.48458 0.58913 0.91605 0.0
C2715 C 0.4767 0.58813 0.93943 0.0
C2716 C 0.45347 0.58864 0.93977 0.0
C2717 C 0.43878 0.58976 0.91777 0.0
C2718 C 0.50349 0.59529 1.00925 0.0
C2719 C 0.52159 0.58269 1.00834 0.0
C2720 C 0.48922 0.59707 0.98721 0.0
C2721 C 0.4924 0.58642 0.96317 0.0
C2722 C 0.51066 0.57395 0.96227 0.0
C2723 C 0.5249 0.57208 0.98438 0.0
H2724 H 0.88474 0.30242 0.15045 0.0
H2725 H 0.87666 0.23788 0.18091 0.0
H2726 H 0.87441 0.32295 0.18872 0.0
H2727 H 0.86641 0.25835 0.21912 0.0
H2728 H 0.86196 0.30435 0.29287 0.0
H2729 H 0.87871 0.28777 0.25716 0.0
H2730 H 0.83985 0.32409 0.20841 0.0
H2731 H 0.82305 0.34063 0.24418 0.0
C2732 C 0.88133 0.29268 0.16553 0.0
C2733 C 0.88173 0.26842 0.16247 0.0
C2734 C 0.87509 0.30444 0.18743 0.0
C2735 C 0.86933 0.2924 0.20716 0.0
C2736 C 0.87086 0.26838 0.20458 0.0
C2737 C 0.8768 0.25657 0.18256 0.0
C2738 C 0.85722 0.30914 0.27463 0.0
C2739 C 0.84108 0.32392 0.27155 0.0
C2740 C 0.86672 0.29942 0.25402 0.0
C2741 C 0.86063 0.30436 0.22965 0.0
C2742 C 0.84519 0.31995 0.2268 0.0
C2743 C 0.83548 0.32945 0.24737 0.0
H2744 H 0.10715 0.53632 0.38559 0.0
H2745 H 0.16582 0.52934 0.43589 0.0
H2746 H 0.08843 0.54763 0.42177 0.0
H2747 H 0.14698 0.53972 0.47185 0.0
H2748 H 0.12099 0.58742 0.53059 0.0
H2749 H 0.13737 0.57353 0.49378 0.0
H2750 H 0.0715 0.53739 0.4571 0.0
H2751 H 0.05497 0.55208 0.49374 0.0
C2752 C 0.11587 0.53668 0.40433 0.0
C2753 C 0.1381 0.53213 0.40775 0.0
C2754 C 0.10513 0.54318 0.42515 0.0
C2755 C 0.11629 0.54511 0.44994 0.0
C2756 C 0.13803 0.53922 0.45319 0.0
C2757 C 0.1488 0.53301 0.43247 0.0
C2758 C 0.10992 0.57669 0.51462 0.0
C2759 C 0.0866 0.57107 0.51517 0.0
C2760 C 0.11938 0.56844 0.4935 0.0
C2761 C 0.10587 0.55408 0.47232 0.0
C2762 C 0.08247 0.54861 0.47281 0.0
C2763 C 0.07297 0.55704 0.49391 0.0
H2764 H 0.86726 0.97713 0.74019 0.0
H2765 H 0.81305 0.93989 0.68275 0.0
H2766 H 0.86362 0.94391 0.76288 0.0
H2767 H 0.80957 0.90657 0.7054 0.0
H2768 H 0.79537 0.86727 0.77348 0.0
H2769 H 0.79807 0.89668 0.74567 0.0
H2770 H 0.87072 0.90277 0.75672 0.0
H2771 H 0.86806 0.87354 0.78466 0.0
C2772 C 0.85448 0.96193 0.7325 0.0
C2773 C 0.84044 0.96113 0.70972 0.0
C2774 C 0.85257 0.9428 0.74533 0.0
C2775 C 0.83651 0.92253 0.73571 0.0
C2776 C 0.82208 0.92196 0.71325 0.0
C2777 C 0.82408 0.94104 0.70032 0.0
C2778 C 0.81186 0.87449 0.76946 0.0
C2779 C 0.83151 0.8684 0.78147 0.0
C2780 C 0.8134 0.89133 0.75358 0.0
C2781 C 0.83463 0.90235 0.74949 0.0
C2782 C 0.85417 0.89494 0.76003 0.0
C2783 C 0.85263 0.87805 0.77581 0.0
H2784 H 0.70145 0.46106 0.62699 0.0
H2785 H 0.68424 0.45991 0.54733 0.0
H2786 H 0.67371 0.487 0.63528 0.0
H2787 H 0.65632 0.48509 0.55548 0.0
H2788 H 0.59108 0.50399 0.57878 0.0
H2789 H 0.61879 0.47859 0.5773 0.0
H2790 H 0.6685 0.53301 0.62381 0.0
H2791 H 0.64014 0.55937 0.62538 0.0
C2792 C 0.69125 0.46575 0.61126 0.0
C2793 C 0.6946 0.45794 0.58645 0.0
C2794 C 0.67574 0.48095 0.61603 0.0
C2795 C 0.66299 0.48826 0.59605 0.0
C2796 C 0.66591 0.47982 0.57129 0.0
C2797 C 0.68168 0.46516 0.56658 0.0
C2798 C 0.60766 0.51078 0.58926 0.0
C2799 C 0.61311 0.534 0.60233 0.0
C2800 C 0.62367 0.49602 0.58821 0.0
C2801 C 0.64583 0.50372 0.6003 0.0
C2802 C 0.65142 0.52655 0.61438 0.0
C2803 C 0.63522 0.54165 0.61525 0.0
H2804 H 0.22874 0.11306 0.52063 0.0
H2805 H 0.21148 0.17882 0.50443 0.0
H2806 H 0.19072 0.10131 0.53055 0.0
H2807 H 0.1736 0.16744 0.5152 0.0
H2808 H 0.13315 0.15125 0.58229 0.0
H2809 H 0.1659 0.16057 0.56118 0.0
H2810 H 0.1463 0.09471 0.51063 0.0
H2811 H 0.11294 0.08552 0.53152 0.0
C2812 C 0.21648 0.12458 0.51834 0.0
C2813 C 0.22256 0.14644 0.511 0.0
C2814 C 0.19485 0.11794 0.5241 0.0
C2815 C 0.17935 0.13346 0.52343 0.0
C2816 C 0.18532 0.15517 0.51563 0.0
C2817 C 0.20685 0.16166 0.50953 0.0
C2818 C 0.13573 0.13885 0.56656 0.0
C2819 C 0.12071 0.11765 0.55852 0.0
C2820 C 0.1543 0.14427 0.55437 0.0
C2821 C 0.15837 0.1284 0.53425 0.0
C2822 C 0.14332 0.1072 0.52606 0.0
C2823 C 0.12438 0.10198 0.53797 0.0
H2824 H 0.2062 0.99257 0.82335 0.0
H2825 H 0.26065 1.02008 0.88376 0.0
H2826 H 0.22135 0.95573 0.81657 0.0
H2827 H 0.27555 0.98376 0.87728 0.0
H2828 H 0.31125 0.92179 0.85232 0.0
H2829 H 0.29523 0.95775 0.85761 0.0
H2830 H 0.22969 0.9187 0.82468 0.0
H2831 H 0.246 0.8826 0.81926 0.0
C2832 C 0.22133 0.99102 0.83541 0.0
C2833 C 0.23173 1.0103 0.85433 0.0
C2834 C 0.23021 0.96942 0.83152 0.0
C2835 C 0.25028 0.96565 0.84608 0.0
C2836 C 0.26049 0.98501 0.86496 0.0
C2837 C 0.25158 1.00635 0.86893 0.0
C2838 C 0.29339 0.92059 0.84603 0.0
C2839 C 0.28038 0.89837 0.83515 0.0
C2840 C 0.28389 0.94168 0.84932 0.0
C2841 C 0.26059 0.9423 0.8419 0.0
C2842 C 0.2476 0.92003 0.83073 0.0
C2843 C 0.25712 0.89884 0.8276 0.0
H2844 H 0.32358 0.9295 0.06033 0.0
H2845 H 0.30798 0.98174 0.11667 0.0
H2846 H 0.36043 0.95304 0.06109 0.0
H2847 H 0.3456 1.00441 0.11977 0.0
H2848 H 0.39791 0.05504 0.09156 0.0
H2849 H 0.36538 0.02945 0.09998 0.0
H2850 H 0.39615 0.9691 0.07733 0.0
H2851 H 0.42834 0.99507 0.06816 0.0
C2852 C 0.32842 0.94587 0.0733 0.0
C2853 C 0.31295 0.95443 0.08769 0.0
C2854 C 0.34968 0.95931 0.07411 0.0
C2855 C 0.35618 0.98107 0.09025 0.0
C2856 C 0.34111 0.98836 0.10633 0.0
C2857 C 0.31958 0.97533 0.10477 0.0
C2858 C 0.39767 0.03629 0.08856 0.0
C2859 C 0.41528 0.02694 0.07869 0.0
C2860 C 0.379 1.02145 0.09346 0.0
C2861 C 0.37753 0.9969 0.08862 0.0
C2862 C 0.39602 0.98776 0.08027 0.0
C2863 C 0.41458 1.00261 0.07512 0.0
H2864 H 0.95707 0.71937 0.82921 0.0
H2865 H 0.89562 0.68435 0.85018 0.0
H2866 H 0.93775 0.75265 0.82141 0.0
H2867 H 0.87682 0.71645 0.84162 0.0
H2868 H 0.84203 0.76423 0.79797 0.0
H2869 H 0.86691 0.73499 0.79856 0.0
H2870 H 0.91551 0.7825 0.85444 0.0
H2871 H 0.89043 0.81168 0.85441 0.0
C2872 C 0.93959 0.71861 0.832 0.0
C2873 C 0.92807 0.69902 0.84038 0.0
C2874 C 0.92855 0.73762 0.82753 0.0
C2875 C 0.90568 0.73695 0.83064 0.0
C2876 C 0.89431 0.71736 0.83874 0.0
C2877 C 0.90531 0.69891 0.84376 0.0
C2878 C 0.8582 0.76872 0.81002 0.0
C2879 C 0.86408 0.7903 0.82631 0.0
C2880 C 0.87249 0.75196 0.81028 0.0
C2881 C 0.8932 0.75651 0.82647 0.0
C2882 C 0.8998 0.77862 0.84155 0.0
C2883 C 0.88532 0.79526 0.84163 0.0
H2884 H 0.84856 0.65322 1.00302 0.0
H2885 H 0.80778 0.58805 0.96435 0.0
H2886 H 0.88095 0.63349 1.00919 0.0
H2887 H 0.84029 0.56821 0.97095 0.0
H2888 H 0.88979 0.54496 0.03554 0.0
H2889 H 0.85917 0.56102 1.01413 0.0
H2890 H 0.90799 0.61018 0.98785 0.0
H2891 H 0.93862 0.59422 1.00933 0.0
C2892 C 0.84665 0.63479 0.99535 0.0
C2893 C 0.82553 0.6221 0.98359 0.0
C2894 C 0.86524 0.62352 0.99875 0.0
C2895 C 0.86301 0.59929 0.99076 0.0
C2896 C 0.84234 0.58689 0.97745 0.0
C2897 C 0.82379 0.59827 0.97362 0.0
C2898 C 0.89393 0.55892 0.02483 0.0
C2899 C 0.91653 0.56847 0.02425 0.0
C2900 C 0.87644 0.56793 1.01237 0.0
C2901 C 0.88128 0.58684 0.99938 0.0
C2902 C 0.90386 0.59562 0.99776 0.0
C2903 C 0.92133 0.58642 1.00997 0.0
H2904 H 0.20109 0.15573 0.87225 0.0
H2905 H 0.25769 0.12855 0.84641 0.0
H2906 H 0.2191 0.19547 0.86983 0.0
H2907 H 0.27615 0.16857 0.84413 0.0
H2908 H 0.31078 0.24889 0.85457 0.0
H2909 H 0.29536 0.20866 0.86041 0.0
H2910 H 0.22787 0.22309 0.8443 0.0
H2911 H 0.24313 0.2626 0.83877 0.0
C2912 C 0.21764 0.15813 0.8664 0.0
C2913 C 0.22789 0.13826 0.86041 0.0
C2914 C 0.2281 0.18131 0.86469 0.0
C2915 C 0.24949 0.18628 0.85651 0.0
C2916 C 0.25995 0.16635 0.85079 0.0
C2917 C 0.24933 0.14303 0.85238 0.0
C2918 C 0.29264 0.24359 0.85243 0.0
C2919 C 0.27849 0.25982 0.8462 0.0
C2920 C 0.28361 0.22013 0.85565 0.0
C2921 C 0.25994 0.21167 0.85313 0.0
C2922 C 0.24604 0.22814 0.84704 0.0
C2923 C 0.25499 0.25126 0.84364 0.0
H2924 H 0.41377 0.08559 0.31682 0.0
H2925 H 0.47099 0.07704 0.36812 0.0
H2926 H 0.39418 0.04705 0.32102 0.0
H2927 H 0.45183 0.03796 0.37193 0.0
H2928 H 0.39658 0.99011 0.40174 0.0
H2929 H 0.42106 0.02366 0.39224 0.0
H2930 H 0.39163 1.00579 0.3139 0.0
H2931 H 0.36733 0.97198 0.3234 0.0
C2932 C 0.42213 0.07524 0.32888 0.0
C2933 C 0.44329 0.08442 0.34307 0.0
C2934 C 0.41113 0.05303 0.331 0.0
C2935 C 0.42128 0.03954 0.34717 0.0
C2936 C 0.44331 0.04816 0.35985 0.0
C2937 C 0.45431 0.0704 0.35764 0.0
C2938 C 0.39553 0.99317 0.38244 0.0
C2939 C 0.37982 0.97856 0.36339 0.0
C2940 C 0.40961 1.0124 0.37695 0.0
C2941 C 0.40815 1.0176 0.35233 0.0
C2942 C 0.39286 1.00258 0.33315 0.0
C2943 C 0.37887 0.98327 0.33862 0.0
H2944 H 0.57709 0.36857 0.71687 0.0
H2945 H 0.50681 0.36564 0.72466 0.0
H2946 H 0.57511 0.40084 0.69255 0.0
H2947 H 0.50471 0.39769 0.70062 0.0
H2948 H 0.51082 0.4654 0.66768 0.0
H2949 H 0.51683 0.43913 0.69806 0.0
H2950 H 0.55649 0.40312 0.64972 0.0
H2951 H 0.55009 0.42896 0.61901 0.0
C2952 C 0.56149 0.37547 0.71427 0.0
C2953 C 0.54222 0.3649 0.7231 0.0
C2954 C 0.56021 0.39366 0.69995 0.0
C2955 C 0.53968 0.40182 0.69438 0.0
C2956 C 0.52085 0.39213 0.70465 0.0
C2957 C 0.52206 0.3738 0.71858 0.0
C2958 C 0.52063 0.45176 0.66328 0.0
C2959 C 0.52978 0.44939 0.64056 0.0
C2960 C 0.52422 0.43675 0.68089 0.0
C2961 C 0.53724 0.41898 0.67649 0.0
C2962 C 0.54672 0.41683 0.65403 0.0
C2963 C 0.54299 0.43172 0.63632 0.0
H2964 H 0.50355 0.82371 0.35153 0.0
H2965 H 0.4944 0.86357 0.42131 0.0
H2966 H 0.46346 0.8225 0.33503 0.0
H2967 H 0.45428 0.86118 0.40546 0.0
H2968 H 0.37834 0.81853 0.37364 0.0
H2969 H 0.41883 0.81968 0.38707 0.0
H2970 H 0.43502 0.86076 0.32975 0.0
H2971 H 0.39448 0.86058 0.31702 0.0
C2972 C 0.49321 0.83271 0.36317 0.0
C2973 C 0.50278 0.84476 0.3874 0.0
C2974 C 0.47006 0.83173 0.35382 0.0
C2975 C 0.45543 0.84188 0.3688 0.0
C2976 C 0.46487 0.85327 0.39325 0.0
C2977 C 0.48802 0.85471 0.40232 0.0
C2978 C 0.39043 0.82765 0.36367 0.0
C2979 C 0.38282 0.83935 0.34404 0.0
C2980 C 0.41376 0.82839 0.37148 0.0
C2981 C 0.43041 0.84025 0.35951 0.0
C2982 C 0.42283 0.85135 0.33938 0.0
C2983 C 0.39949 0.85121 0.33206 0.0
H2984 H 0.06686 0.76216 0.20096 0.0
H2985 H 0.03017 0.72189 0.2482 0.0
H2986 H 0.06773 0.72673 0.17237 0.0
H2987 H 0.03185 0.68561 0.22002 0.0
H2988 H 1.01833 0.6278 0.14941 0.0
H2989 H 1.01758 0.66249 0.18024 0.0
H2990 H 0.083 0.69363 0.16519 0.0
H2991 H 0.08292 0.65998 0.13366 0.0
C2992 C 0.05907 0.74554 0.20527 0.0
C2993 C 0.04781 0.74483 0.22632 0.0
C2994 C 0.05984 0.72503 0.18902 0.0
C2995 C 0.0498 0.70297 0.19359 0.0
C2996 C 0.03938 0.7022 0.21546 0.0
C2997 C 0.03857 0.72293 0.23177 0.0
C2998 C 0.03244 0.64219 0.15268 0.0
C2999 C 0.05053 0.64123 0.1388 0.0
C3000 C 0.03215 0.66204 0.17055 0.0
C3001 C 0.05017 0.6812 0.17533 0.0
C3002 C 0.06846 0.67975 0.16176 0.0
C3003 C 0.0685 0.66026 0.14364 0.0
H3004 H 0.13496 0.33389 0.91441 0.0
H3005 H 0.12529 0.37505 0.85525 0.0
H3006 H 0.17316 0.33154 0.90545 0.0
H3007 H 0.16366 0.37338 0.84674 0.0
H3008 H 0.2271 0.34964 0.82021 0.0
H3009 H 0.18913 0.3525 0.82956 0.0
H3010 H 0.2108 0.34827 0.90733 0.0
H3011 H 0.24862 0.3447 0.89763 0.0
C3012 C 0.14094 0.34266 0.89958 0.0
C3013 C 0.12655 0.35468 0.88567 0.0
C3014 C 0.16319 0.34144 0.89446 0.0
C3015 C 0.17219 0.35223 0.8752 0.0
C3016 C 0.15775 0.36438 0.86143 0.0
C3017 C 0.13551 0.36553 0.8665 0.0
C3018 C 0.22388 0.34944 0.83938 0.0
C3019 C 0.24134 0.34696 0.85807 0.0
C3020 C 0.20186 0.35121 0.84488 0.0
C3021 C 0.19619 0.35066 0.86938 0.0
C3022 C 0.21384 0.34841 0.88812 0.0
C3023 C 0.23585 0.34656 0.88258 0.0
H3024 H 0.58774 0.81295 0.98448 0.0
H3025 H 0.63714 0.83119 0.0516 0.0
H3026 H 0.57206 0.77724 0.99905 0.0
H3027 H 0.6222 0.795 0.06572 0.0
H3028 H 0.57499 0.7444 0.09877 0.0
H3029 H 0.59023 0.77919 0.08251 0.0
H3030 H 0.5771 0.73978 1.00715 0.0
H3031 H 0.56031 0.70548 0.02319 0.0
C3032 C 0.59559 0.80902 1.00207 0.0
C3033 C 0.61359 0.82489 1.01696 0.0
C3034 C 0.58662 0.78852 1.01045 0.0
C3035 C 0.59564 0.78332 0.03376 0.0
C3036 C 0.6144 0.79871 0.04801 0.0
C3037 C 0.62316 0.81934 0.03979 0.0
C3038 C 0.57487 0.74326 0.07866 0.0
C3039 C 0.56644 0.72205 0.06234 0.0
C3040 C 0.58404 0.76314 0.06936 0.0
C3041 C 0.58524 0.76228 0.04351 0.0
C3042 C 0.57638 0.7412 0.02713 0.0
C3043 C 0.56697 0.7214 0.0364 0.0
H3044 H 0.04481 0.75074 0.72143 0.0
H3045 H 0.07363 0.77643 0.65971 0.0
H3046 H 0.08206 0.74642 0.74084 0.0
H3047 H 0.11091 0.77089 0.6781 0.0
H3048 H 0.17279 0.79907 0.73722 0.0
H3049 H 0.1363 0.79271 0.71142 0.0
H3050 H 0.11536 0.73114 0.74435 0.0
H3051 H 0.15191 0.73833 0.77119 0.0
C3052 C 0.05925 0.75523 0.71198 0.0
C3053 C 0.05688 0.76527 0.69007 0.0
C3054 C 0.08055 0.75231 0.72277 0.0
C3055 C 0.09972 0.75908 0.71149 0.0
C3056 C 0.09669 0.76648 0.68788 0.0
C3057 C 0.0754 0.76956 0.67726 0.0
C3058 C 0.16032 0.78432 0.73917 0.0
C3059 C 0.16504 0.76948 0.75659 0.0
C3060 C 0.13948 0.78029 0.72391 0.0
C3061 C 0.12274 0.76134 0.72567 0.0
C3062 C 0.12769 0.7461 0.7427 0.0
C3063 C 0.14865 0.75014 0.75801 0.0
H3064 H 0.154 0.44494 0.55973 0.0
H3065 H 0.15421 0.49357 0.50659 0.0
H3066 H 0.14522 0.47458 0.5914 0.0
H3067 H 0.14499 0.52288 0.53808 0.0
H3068 H 0.11654 0.56938 0.58962 0.0
H3069 H 0.14718 0.54878 0.57901 0.0
H3070 H 0.10651 0.48336 0.58634 0.0
H3071 H 0.07608 0.50396 0.59645 0.0
C3072 C 0.15312 0.46221 0.55502 0.0
C3073 C 0.15382 0.46649 0.5302 0.0
C3074 C 0.148 0.4792 0.57324 0.0
C3075 C 0.1436 0.50077 0.56701 0.0
C3076 C 0.14808 0.50638 0.54353 0.0
C3077 C 0.15327 0.48943 0.52532 0.0
C3078 C 0.11466 0.55082 0.59025 0.0
C3079 C 0.09398 0.53822 0.5939 0.0
C3080 C 0.13215 0.53897 0.58394 0.0
C3081 C 0.12925 0.51438 0.58155 0.0
C3082 C 0.10952 0.5023 0.58824 0.0
C3083 C 0.09199 0.51408 0.59406 0.0
H3084 H 0.4431 0.26305 0.22285 0.0
H3085 H 0.429 0.32114 0.18618 0.0
H3086 H 0.43308 0.28215 0.26179 0.0
H3087 H 0.41995 0.34098 0.22542 0.0
H3088 H 0.39076 0.36262 0.29741 0.0
H3089 H 0.39628 0.3429 0.2569 0.0
H3090 H 0.45083 0.31406 0.29332 0.0
H3091 H 0.44474 0.33344 0.33417 0.0
C3092 C 0.43726 0.27969 0.22304 0.0
C3093 C 0.43662 0.2906 0.20158 0.0
C3094 C 0.43197 0.29087 0.24545 0.0
C3095 C 0.42637 0.31344 0.24701 0.0
C3096 C 0.42417 0.3236 0.22495 0.0
C3097 C 0.42915 0.31219 0.20237 0.0
C3098 C 0.40439 0.35266 0.29677 0.0
C3099 C 0.4175 0.34985 0.31906 0.0
C3100 C 0.40743 0.34114 0.27345 0.0
C3101 C 0.4238 0.32661 0.27175 0.0
C3102 C 0.43764 0.32463 0.29395 0.0
C3103 C 0.43443 0.33601 0.31736 0.0
H3104 H 0.63981 0.56744 0.39525 0.0
H3105 H 0.69653 0.57649 0.45381 0.0
H3106 H 0.61417 0.56742 0.42679 0.0
H3107 H 0.67112 0.57579 0.4853 0.0
H3108 H 0.6233 0.59139 0.54328 0.0
H3109 H 0.64857 0.59021 0.51157 0.0
H3110 H 0.59276 0.55424 0.45566 0.0
H3111 H 0.56745 0.55629 0.48767 0.0
C3112 C 0.64701 0.56923 0.41483 0.0
C3113 C 0.6708 0.57193 0.42128 0.0
C3114 C 0.63202 0.56912 0.43334 0.0
C3115 C 0.63979 0.57167 0.4596 0.0
C3116 C 0.66364 0.57416 0.46588 0.0
C3117 C 0.67859 0.57435 0.44741 0.0
C3118 C 0.61635 0.5829 0.5243 0.0
C3119 C 0.59299 0.57358 0.51871 0.0
C3120 C 0.63111 0.58214 0.50567 0.0
C3121 C 0.62352 0.57201 0.48006 0.0
C3122 C 0.60001 0.56251 0.47459 0.0
C3123 C 0.58522 0.56338 0.4933 0.0
H3124 H 0.25852 0.93418 0.1784 0.0
H3125 H 0.26054 0.86732 0.13468 0.0
H3126 H 0.27155 0.91989 0.21672 0.0
H3127 H 0.27539 0.85347 0.17231 0.0
H3128 H 0.28811 0.82642 0.24581 0.0
H3129 H 0.27237 0.83984 0.20827 0.0
H3130 H 0.30034 0.9115 0.24212 0.0
H3131 H 0.3143 0.89782 0.28048 0.0
C3132 C 0.26168 0.91634 0.17702 0.0
C3133 C 0.25819 0.90182 0.15349 0.0
C3134 C 0.2696 0.90816 0.19904 0.0
C3135 C 0.275 0.8854 0.19814 0.0
C3136 C 0.27114 0.87086 0.17441 0.0
C3137 C 0.26259 0.87884 0.15256 0.0
C3138 C 0.29108 0.84504 0.24509 0.0
C3139 C 0.30263 0.86101 0.26612 0.0
C3140 C 0.28206 0.85287 0.22336 0.0
C3141 C 0.28482 0.87698 0.22158 0.0
C3142 C 0.2971 0.89288 0.24254 0.0
C3143 C 0.30552 0.88504 0.26458 0.0
H3144 H 1.01646 0.63439 0.89684 0.0
H3145 H 0.97034 0.6638 0.94168 0.0
H3146 H 0.03595 0.6232 0.93433 0.0
H3147 H 0.99004 0.65286 0.97917 0.0
H3148 H 0.03914 0.63807 0.04537 0.0
H3149 H 1.02769 0.65735 1.00949 0.0
H3150 H 1.02086 0.59175 0.95939 0.0
H3151 H 0.03172 0.57255 0.99505 0.0
C3152 C 1.011 0.63932 0.91481 0.0
C3153 C 0.99181 0.65008 0.91614 0.0
C3154 C 1.02203 0.63263 0.93628 0.0
C3155 C 1.01443 0.6369 0.95974 0.0
C3156 C 0.99642 0.64938 0.96147 0.0
C3157 C 0.98515 0.65571 0.93994 0.0
C3158 C 0.03551 0.62791 0.02662 0.0
C3159 C 0.03633 0.60378 0.02302 0.0
C3160 C 0.02885 0.63891 1.0061 0.0
C3161 C 1.02345 0.62613 0.98151 0.0
C3162 C 1.02517 0.60222 0.97796 0.0
C3163 C 0.0313 0.59117 0.99843 0.0
H3164 H 0.29017 0.1588 0.59366 0.0
H3165 H 0.34249 0.20672 0.57098 0.0
H3166 H 0.29913 0.17987 0.63645 0.0
H3167 H 0.35242 0.22717 0.61416 0.0
H3168 H 0.31512 0.22235 0.71216 0.0
H3169 H 0.32125 0.19537 0.67595 0.0
H3170 H 0.33236 0.25343 0.63496 0.0
H3171 H 0.32684 0.2801 0.6711 0.0
C3172 C 0.30426 0.17324 0.5981 0.0
C3173 C 0.3153 0.18152 0.579 0.0
C3174 C 0.3095 0.18533 0.62271 0.0
C3175 C 0.32611 0.20567 0.62865 0.0
C3176 C 0.33902 0.21206 0.61005 0.0
C3177 C 0.33347 0.20025 0.58537 0.0
C3178 C 0.31926 0.22927 0.69548 0.0
C3179 C 0.32029 0.25325 0.6943 0.0
C3180 C 0.32277 0.21386 0.67477 0.0
C3181 C 0.32715 0.22213 0.65242 0.0
C3182 C 0.32946 0.24637 0.65192 0.0
C3183 C 0.32616 0.26174 0.67264 0.0
H3184 H 0.69559 0.57325 0.25729 0.0
H3185 H 0.63236 0.55507 0.28458 0.0
H3186 H 0.67493 0.57504 0.21588 0.0
H3187 H 0.61184 0.55698 0.24356 0.0
H3188 H 0.58109 0.58838 0.17659 0.0
H3189 H 0.60249 0.58508 0.21672 0.0
H3190 H 0.65035 0.55269 0.17737 0.0
H3191 H 0.62873 0.55589 0.13703 0.0
C3192 C 0.67731 0.56941 0.2545 0.0
C3193 C 0.66584 0.56393 0.27463 0.0
C3194 C 0.66537 0.57041 0.23059 0.0
C3195 C 0.64147 0.56636 0.22599 0.0
C3196 C 0.63011 0.5606 0.2461 0.0
C3197 C 0.64201 0.55929 0.26979 0.0
C3198 C 0.59615 0.58051 0.17633 0.0
C3199 C 0.60296 0.57242 0.15318 0.0
C3200 C 0.60847 0.57847 0.19956 0.0
C3201 C 0.62836 0.56852 0.20075 0.0
C3202 C 0.63533 0.56063 0.17757 0.0
C3203 C 0.62278 0.56236 0.15427 0.0
H3204 H 0.25677 0.87037 0.02774 0.0
H3205 H 0.24468 0.92466 0.98404 0.0
H3206 H 0.26597 0.84695 0.99057 0.0
H3207 H 0.25425 0.90166 0.94729 0.0
H3208 H 0.26208 0.85188 0.87928 0.0
H3209 H 0.24536 0.86828 0.91504 0.0
H3210 H 0.29643 0.84749 0.96587 0.0
H3211 H 0.31281 0.83069 0.93004 0.0
C3212 C 0.25552 0.87713 1.01013 0.0
C3213 C 0.24988 0.89951 1.00909 0.0
C3214 C 0.26114 0.86379 0.9888 0.0
C3215 C 0.26114 0.87236 0.96574 0.0
C3216 C 0.25429 0.89419 0.96445 0.0
C3217 C 0.2488 0.90751 0.98571 0.0
C3218 C 0.2695 0.85041 0.89807 0.0
C3219 C 0.28889 0.83999 0.90168 0.0
C3220 C 0.26001 0.86004 0.91868 0.0
C3221 C 0.26958 0.85956 0.94361 0.0
C3222 C 0.28835 0.84811 0.94711 0.0
C3223 C 0.29785 0.8385 0.92647 0.0
H3224 H 0.95804 0.61389 0.75195 0.0
H3225 H 1.02096 0.66007 0.78199 0.0
H3226 H 0.97306 0.60196 0.71364 0.0
H3227 H 0.03579 0.64914 0.74296 0.0
H3228 H 0.06552 0.60722 0.68193 0.0
H3229 H 0.05 0.61986 0.71988 0.0
H3230 H 0.98366 0.60991 0.67611 0.0
H3231 H 0.9991 0.59608 0.63855 0.0
C3232 C 0.97497 0.62195 0.75015 0.0
C3233 C 0.98825 0.63799 0.77017 0.0
C3234 C 0.98365 0.61513 0.72798 0.0
C3235 C 1.00584 0.62436 0.72486 0.0
C3236 C 1.01885 0.6411 0.74463 0.0
C3237 C 1.01024 0.64766 0.76701 0.0
C3238 C 0.04757 0.6075 0.68047 0.0
C3239 C 0.03357 0.60036 0.65714 0.0
C3240 C 0.03863 0.61507 0.70229 0.0
C3241 C 1.01543 0.61616 0.70143 0.0
C3242 C 1.00148 0.60899 0.67796 0.0
C3243 C 1.01037 0.60105 0.65624 0.0
H3244 H 0.25659 0.1747 0.41068 0.0
H3245 H 0.29234 0.22325 0.47587 0.0
H3246 H 0.25655 0.2071 0.38666 0.0
H3247 H 0.29173 0.25531 0.45216 0.0
H3248 H 0.31277 0.29825 0.39115 0.0
H3249 H 0.30989 0.26812 0.41786 0.0
H3250 H 0.24035 0.24352 0.38429 0.0
H3251 H 0.24343 0.27351 0.35709 0.0
C3252 C 0.26444 0.19218 0.41987 0.0
C3253 C 0.27461 0.19628 0.44514 0.0
C3254 C 0.26417 0.21077 0.40622 0.0
C3255 C 0.27409 0.23373 0.41759 0.0
C3256 C 0.28416 0.23778 0.44281 0.0
C3257 C 0.28446 0.21932 0.4564 0.0
C3258 C 0.29673 0.28671 0.38987 0.0
C3259 C 0.27835 0.28816 0.37211 0.0
C3260 C 0.29507 0.26946 0.40515 0.0
C3261 C 0.27495 0.25331 0.40296 0.0
C3262 C 0.25616 0.25553 0.38607 0.0
C3263 C 0.25782 0.27289 0.3708 0.0
H3264 H 0.42918 0.68929 0.61113 0.0
H3265 H 0.4429 0.7113 0.54125 0.0
H3266 H 0.45687 0.66284 0.60765 0.0
H3267 H 0.47103 0.68541 0.53801 0.0
H3268 H 0.5344 0.6493 0.55652 0.0
H3269 H 0.50867 0.67769 0.55946 0.0
H3270 H 0.45763 0.62497 0.57697 0.0
H3271 H 0.48337 0.59633 0.5735 0.0
C3272 C 0.43893 0.68934 0.59566 0.0
C3273 C 0.43437 0.70301 0.5769 0.0
C3274 C 0.45443 0.67378 0.59335 0.0
C3275 C 0.46601 0.67172 0.57236 0.0
C3276 C 0.4625 0.68654 0.55444 0.0
C3277 C 0.44663 0.70168 0.55648 0.0
C3278 C 0.51745 0.64356 0.5603 0.0
C3279 C 0.51082 0.62039 0.56433 0.0
C3280 C 0.50275 0.65992 0.56217 0.0
C3281 C 0.48115 0.65377 0.56878 0.0
C3282 C 0.47425 0.63039 0.57214 0.0
C3283 C 0.48884 0.61384 0.56972 0.0
H3284 H 0.92951 0.03895 0.69091 0.0
H3285 H 0.89935 1.00381 0.61661 0.0
H3286 H 0.96639 0.04594 0.67646 0.0
H3287 H 0.93529 1.01193 0.60152 0.0
H3288 H 1.00227 1.01745 0.57902 0.0
H3289 H 0.9708 1.00434 0.60008 0.0
H3290 H 0.98657 0.06929 0.65288 0.0
H3291 H 1.01886 0.08183 0.6322 0.0
C3292 C 0.93089 0.03295 0.67144 0.0
C3293 C 0.91179 1.02152 0.65456 0.0
C3294 C 0.95191 0.03692 0.66311 0.0
C3295 C 0.95398 0.02964 0.63773 0.0
C3296 C 0.93471 1.01739 0.62128 0.0
C3297 C 0.91397 1.01301 0.62976 0.0
C3298 C 0.99897 0.02893 0.59513 0.0
C3299 C 1.0126 0.05089 0.60368 0.0
C3300 C 0.98084 1.02146 0.6072 0.0
C3301 C 0.97549 0.03605 0.62771 0.0
C3302 C 0.98991 0.05761 0.63701 0.0
C3303 C 1.00834 0.06493 0.62511 0.0
H3304 H 0.85732 0.13882 0.33798 0.0
H3305 H 0.91881 0.17075 0.31527 0.0
H3306 H 0.84353 0.17564 0.34075 0.0
H3307 H 0.90467 0.20845 0.31802 0.0
H3308 H 0.87912 0.28017 0.34529 0.0
H3309 H 0.8948 0.2436 0.34114 0.0
H3310 H 0.82735 0.20396 0.32275 0.0
H3311 H 0.81191 0.24033 0.32695 0.0
C3312 C 0.86816 0.15363 0.33335 0.0
C3313 C 0.88958 0.15073 0.32627 0.0
C3314 C 0.85991 0.17529 0.33483 0.0
C3315 C 0.87245 0.1961 0.32958 0.0
C3316 C 0.89403 0.19345 0.32249 0.0
C3317 C 0.90227 0.17141 0.32069 0.0
C3318 C 0.86748 0.2637 0.34048 0.0
C3319 C 0.84386 0.26403 0.33681 0.0
C3320 C 0.87664 0.24233 0.33786 0.0
C3321 C 0.8628 0.21977 0.33166 0.0
C3322 C 0.83918 0.22026 0.32795 0.0
C3323 C 0.83007 0.24157 0.33031 0.0
H3324 H 0.82795 0.18345 0.1138 0.0
H3325 H 0.79248 0.2296 0.07491 0.0
H3326 H 0.79228 0.162 0.12104 0.0
H3327 H 0.75635 0.20831 0.08252 0.0
H3328 H 0.69857 0.14409 0.07323 0.0
H3329 H 0.73341 0.1687 0.06791 0.0
H3330 H 0.7612 0.1666 0.1446 0.0
H3331 H 0.72683 0.14117 0.14958 0.0
C3332 C 0.81237 0.18893 0.10681 0.0
C3333 C 0.81266 0.20753 0.0931 0.0
C3334 C 0.792 0.17688 0.11123 0.0
C3335 C 0.77153 0.18343 0.10226 0.0
C3336 C 0.7719 0.20271 0.08933 0.0
C3337 C 0.79243 0.2149 0.08504 0.0
C3338 C 0.7122 0.14874 0.08888 0.0
C3339 C 0.71002 0.14056 0.11178 0.0
C3340 C 0.73199 0.16311 0.08594 0.0
C3341 C 0.74997 0.16958 0.10585 0.0
C3342 C 0.74766 0.16171 0.12886 0.0
C3343 C 0.72791 0.14733 0.13178 0.0
H3344 H 0.16893 0.44444 0.31324 0.0
H3345 H 0.20925 0.47377 0.38507 0.0
H3346 H 0.18782 0.41015 0.31181 0.0
H3347 H 0.22896 0.44105 0.38292 0.0
H3348 H 0.25992 0.37643 0.38048 0.0
H3349 H 0.23335 0.40362 0.38471 0.0
H3350 H 0.22146 0.39914 0.3038 0.0
H3351 H 0.24739 0.37167 0.2998 0.0
C3352 C 0.18156 0.44349 0.32884 0.0
C3353 C 0.18768 0.46216 0.34904 0.0
C3354 C 0.19275 0.42397 0.32789 0.0
C3355 C 0.21051 0.42277 0.34698 0.0
C3356 C 0.21547 0.44085 0.36783 0.0
C3357 C 0.20415 0.45998 0.36893 0.0
C3358 C 0.25151 0.38121 0.36365 0.0
C3359 C 0.25597 0.37192 0.33986 0.0
C3360 C 0.2362 0.39692 0.36598 0.0
C3361 C 0.22498 0.40395 0.34458 0.0
C3362 C 0.22917 0.39408 0.3208 0.0
C3363 C 0.24434 0.37833 0.3185 0.0
H3364 H 0.28866 0.52731 0.19161 0.0
H3365 H 0.31741 0.59227 0.16936 0.0
H3366 H 0.25209 0.54005 0.18993 0.0
H3367 H 0.2809 0.6045 0.16685 0.0
H3368 H 0.21319 0.62403 0.16347 0.0
H3369 H 0.24856 0.61531 0.18386 0.0
H3370 H 0.22683 0.54196 0.15284 0.0
H3371 H 0.19166 0.55064 0.13302 0.0
C3372 C 0.28733 0.54448 0.18687 0.0
C3373 C 0.30581 0.55848 0.17991 0.0
C3374 C 0.26635 0.55173 0.18579 0.0
C3375 C 0.26346 0.57303 0.17767 0.0
C3376 C 0.28248 0.58801 0.17321 0.0
C3377 C 0.30344 0.58085 0.17442 0.0
C3378 C 0.21597 0.60604 0.16134 0.0
C3379 C 0.19983 0.58804 0.14648 0.0
C3380 C 0.23613 0.60103 0.17305 0.0
C3381 C 0.24056 0.57796 0.16991 0.0
C3382 C 0.22385 0.55986 0.15609 0.0
C3383 C 0.2037 0.56484 0.14455 0.0
H3384 H 0.92128 1.01435 0.34506 0.0
H3385 H 0.86248 1.02089 0.29544 0.0
H3386 H 0.90343 0.9754 0.35026 0.0
H3387 H 0.84448 0.98133 0.29986 0.0
H3388 H 0.80898 0.91269 0.32589 0.0
H3389 H 0.82558 0.95245 0.31992 0.0
H3390 H 0.89222 0.93651 0.3387 0.0
H3391 H 0.87576 0.89786 0.34524 0.0
C3392 C 0.90446 1.00749 0.33506 0.0
C3393 C 0.89336 1.02174 0.32045 0.0
C3394 C 0.89401 0.98461 0.33788 0.0
C3395 C 0.87193 0.97408 0.32566 0.0
C3396 C 0.86114 0.98813 0.31022 0.0
C3397 C 0.8716 1.01121 0.30761 0.0
C3398 C 0.82718 0.91763 0.32874 0.0
C3399 C 0.84071 0.90132 0.33626 0.0
C3400 C 0.83693 0.94077 0.32519 0.0
C3401 C 0.86075 0.94887 0.32891 0.0
C3402 C 0.874 0.93221 0.33606 0.0
C3403 C 0.86434 0.9094 0.33967 0.0
H3404 H 0.66445 0.10018 0.85559 0.0
H3405 H 0.70542 0.05697 0.81713 0.0
H3406 H 0.68905 0.13544 0.84866 0.0
H3407 H 0.73042 0.09169 0.81111 0.0
H3408 H 0.75517 0.15633 0.77904 0.0
H3409 H 0.7302 0.12232 0.78676 0.0
H3410 H 0.72695 0.1579 0.86124 0.0
H3411 H 0.75079 0.19262 0.85289 0.0
C3412 C 0.67888 0.09834 0.84595 0.0
C3413 C 0.68358 0.07609 0.83754 0.0
C3414 C 0.69301 0.1184 0.8421 0.0
C3415 C 0.71175 0.11636 0.82939 0.0
C3416 C 0.71603 0.09394 0.82068 0.0
C3417 C 0.70193 0.07405 0.82445 0.0
C3418 C 0.74896 0.15703 0.79697 0.0
C3419 C 0.75497 0.17724 0.8153 0.0
C3420 C 0.73486 0.13741 0.80153 0.0
C3421 C 0.7266 0.13739 0.82465 0.0
C3422 C 0.73279 0.15748 0.84313 0.0
C3423 C 0.74676 0.17723 0.83847 0.0
loop_
_geom_bond_atom_site_label_1
_geom_bond_atom_site_label_2
_geom_bond_distance
_geom_bond_site_symmetry_2
_ccdc_geom_bond_type
Mn0 O5 2.095 . S
Mn0 O15 2.162 . S
Mn0 O16 2.297 . S
Mn0 O24 2.385 . S
Mn0 O25 2.209 . S
Mn0 O26 2.094 . S
Mn1 O6 2.121 . S
Mn1 N8 2.257 . S
Mn1 N17 2.282 . S
Mn1 O25 2.215 . S
Mn1 O27 2.117 . S
C2 O24 1.234 . S
C2 O25 1.283 . S
C3 O15 1.281 . S
C3 O16 1.236 . S
C4 O26 1.240 . S
C4 O27 1.264 . S
O5 Mn0 2.095 . S
O5 C14 1.250 . S
O6 Mn1 2.121 . S
O6 C14 1.258 . S
C7 N8 1.326 . S
C7 C11 1.460 . S
C7 H13 0.929 . S
N8 Mn1 2.257 . S
N8 C7 1.326 . S
N8 C12 1.362 . S
C9 C10 1.258 . S
C9 C12 1.431 . S
C9 C29 1.449 . S
C10 C9 1.258 . S
C10 C11 1.477 . S
C10 H30 0.931 . S
C11 C7 1.460 . S
C11 C10 1.477 . S
C11 H31 0.930 . S
C12 N8 1.362 . S
C12 C9 1.431 . S
C12 C22 1.476 . S
H13 C7 0.929 . S
C14 O5 1.250 . S
C14 O6 1.258 . S
O15 Mn0 2.162 . S
O15 C3 1.281 . S
O16 Mn0 2.297 . S
O16 C3 1.236 . S
N17 Mn1 2.282 . S
N17 C18 1.328 . S
N17 C22 1.318 . S
C18 N17 1.328 . S
C18 C19 1.457 . S
C18 H23 0.929 . S
C19 C18 1.457 . S
C19 C20 1.291 1_455 S
C19 H32 0.931 1_455 S
C20 C19 1.291 1_655 S
C20 C21 1.373 1_655 S
C20 H33 0.929 . S
C21 C20 1.373 1_455 S
C21 C22 1.396 . S
C21 C28 1.403 1_455 S
C22 C12 1.476 . S
C22 N17 1.318 . S
C22 C21 1.396 . S
H23 C18 0.929 . S
O24 Mn0 2.385 . S
O24 C2 1.234 . S
O25 Mn0 2.209 . S
O25 Mn1 2.215 . S
O25 C2 1.283 . S
O26 Mn0 2.094 . S
O26 C4 1.240 . S
O27 Mn1 2.117 . S
O27 C4 1.264 . S
C28 C21 1.403 1_655 S
C28 C29 1.399 1_655 S
C28 H34 0.929 . S
C29 C9 1.449 . S
C29 C28 1.399 1_455 S
C29 H35 0.930 1_455 S
H30 C10 0.931 . S
H31 C11 0.930 . S
H32 C19 0.931 1_655 S
H33 C20 0.929 . S
H34 C28 0.929 . S
H35 C29 0.930 1_655 S
Mn36 O41 2.090 1_455 S
Mn36 O51 2.162 1_455 S
Mn36 O52 2.297 1_455 S
Mn36 O60 2.390 . S
Mn36 O61 2.211 . S
Mn36 O62 2.094 . S
Mn37 O42 2.121 1_455 S
Mn37 N44 2.257 . S
Mn37 N53 2.282 . S
Mn37 O61 2.215 . S
Mn37 O63 2.117 . S
C38 O60 1.234 . S
C38 O61 1.283 . S
C39 O51 1.281 . S
C39 O52 1.236 . S
C40 O62 1.240 . S
C40 O63 1.264 . S
O41 Mn36 2.090 1_655 S
O41 C50 1.250 . S
O42 Mn37 2.121 1_655 S
O42 C50 1.258 . S
C43 N44 1.326 . S
C43 C47 1.460 . S
C43 H49 0.929 1_455 S
N44 Mn37 2.257 . S
N44 C43 1.326 . S
N44 C48 1.362 . S
C45 C46 1.258 . S
C45 C48 1.431 . S
C45 C65 1.449 . S
C46 C45 1.258 . S
C46 C47 1.477 . S
C46 H66 0.931 . S
C47 C43 1.460 . S
C47 C46 1.477 . S
C47 H67 0.930 . S
C48 N44 1.362 . S
C48 C45 1.431 . S
C48 C58 1.476 . S
H49 C43 0.929 1_655 S
C50 O41 1.250 . S
C50 O42 1.258 . S
O51 Mn36 2.162 1_655 S
O51 C39 1.281 . S
O52 Mn36 2.297 1_655 S
O52 C39 1.236 . S
N53 Mn37 2.282 . S
N53 C54 1.328 . S
N53 C58 1.318 . S
C54 N53 1.328 . S
C54 C55 1.457 . S
C54 H59 0.929 . S
C55 C54 1.457 . S
C55 C56 1.291 . S
C55 H68 0.931 . S
C56 C55 1.291 . S
C56 C57 1.373 . S
C56 H69 0.929 . S
C57 C56 1.373 . S
C57 C58 1.396 . S
C57 C64 1.403 . S
C58 C48 1.476 . S
C58 N53 1.318 . S
C58 C57 1.396 . S
H59 C54 0.929 . S
O60 Mn36 2.390 . S
O60 C38 1.234 . S
O61 Mn36 2.211 . S
O61 Mn37 2.215 . S
O61 C38 1.283 . S
O62 Mn36 2.094 . S
O62 C40 1.240 . S
O63 Mn37 2.117 . S
O63 C40 1.264 . S
C64 C57 1.403 . S
C64 C65 1.399 . S
C64 H70 0.929 . S
C65 C45 1.449 . S
C65 C64 1.399 . S
C65 H71 0.930 . S
H66 C46 0.931 . S
H67 C47 0.930 . S
H68 C55 0.931 . S
H69 C56 0.929 . S
H70 C64 0.929 . S
H71 C65 0.930 . S
Mn72 O77 2.095 1_554 S
Mn72 O87 2.162 . S
Mn72 O88 2.297 1_554 S
Mn72 O96 2.386 . S
Mn72 O97 2.209 1_554 S
Mn72 O98 2.094 . S
Mn73 O78 2.121 . S
Mn73 N80 2.257 . S
Mn73 N89 2.282 . S
Mn73 O97 2.215 . S
Mn73 O99 2.118 1_556 S
C74 O96 1.198 1_556 S
C74 O97 1.283 . S
C75 O87 1.281 . S
C75 O88 1.236 1_554 S
C76 O98 1.240 . S
C76 O99 1.263 . S
O77 Mn72 2.095 1_556 S
O77 C86 1.250 . S
O78 Mn73 2.121 . S
O78 C86 1.258 . S
C79 N80 1.326 . S
C79 C83 1.460 . S
C79 H85 0.929 . S
N80 Mn73 2.257 . S
N80 C79 1.326 . S
N80 C84 1.362 . S
C81 C82 1.258 . S
C81 C84 1.431 . S
C81 C101 1.449 . S
C82 C81 1.258 . S
C82 C83 1.477 . S
C82 H102 0.931 . S
C83 C79 1.460 . S
C83 C82 1.477 . S
C83 H103 0.930 . S
C84 N80 1.362 . S
C84 C81 1.431 . S
C84 C94 1.476 . S
H85 C79 0.929 . S
C86 O77 1.250 . S
C86 O78 1.258 . S
O87 Mn72 2.162 . S
O87 C75 1.281 . S
O88 Mn72 2.297 1_556 S
O88 C75 1.236 1_556 S
N89 Mn73 2.282 . S
N89 C90 1.328 . S
N89 C94 1.318 . S
C90 N89 1.328 . S
C90 C91 1.457 . S
C90 H95 0.929 . S
C91 C90 1.457 . S
C91 C92 1.291 . S
C91 H104 0.931 . S
C92 C91 1.291 . S
C92 C93 1.373 . S
C92 H105 0.929 . S
C93 C92 1.373 . S
C93 C94 1.396 . S
C93 C100 1.403 . S
C94 C84 1.476 . S
C94 N89 1.318 . S
C94 C93 1.396 . S
H95 C90 0.929 . S
O96 Mn72 2.386 . S
O96 C74 1.198 1_554 S
O97 Mn72 2.209 1_556 S
O97 Mn73 2.215 . S
O97 C74 1.283 . S
O98 Mn72 2.094 . S
O98 C76 1.240 . S
O99 Mn73 2.118 1_554 S
O99 C76 1.263 . S
C100 C93 1.403 . S
C100 C101 1.399 . S
C100 H106 0.929 . S
C101 C81 1.449 . S
C101 C100 1.399 . S
C101 H107 0.930 . S
H102 C82 0.931 . S
H103 C83 0.930 . S
H104 C91 0.931 . S
H105 C92 0.929 . S
H106 C100 0.929 . S
H107 C101 0.930 . S
Mn108 O113 2.095 . S
Mn108 O123 2.162 . S
Mn108 O124 2.297 . S
Mn108 O132 2.385 . S
Mn108 O133 2.209 . S
Mn108 O134 2.094 . S
Mn109 O114 2.121 . S
Mn109 N116 2.257 . S
Mn109 N125 2.282 . S
Mn109 O133 2.215 . S
Mn109 O135 2.117 . S
C110 O132 1.234 . S
C110 O133 1.283 . S
C111 O123 1.281 . S
C111 O124 1.236 . S
C112 O134 1.240 . S
C112 O135 1.264 . S
O113 Mn108 2.095 . S
O113 C122 1.250 . S
O114 Mn109 2.121 . S
O114 C122 1.258 . S
C115 N116 1.326 . S
C115 C119 1.460 . S
C115 H121 0.929 . S
N116 Mn109 2.257 . S
N116 C115 1.326 . S
N116 C120 1.362 . S
C117 C118 1.258 . S
C117 C120 1.431 . S
C117 C137 1.449 . S
C118 C117 1.258 . S
C118 C119 1.477 . S
C118 H138 0.931 1_554 S
C119 C115 1.460 . S
C119 C118 1.477 . S
C119 H139 0.930 . S
C120 N116 1.362 . S
C120 C117 1.431 . S
C120 C130 1.476 . S
H121 C115 0.929 . S
C122 O113 1.250 . S
C122 O114 1.258 . S
O123 Mn108 2.162 . S
O123 C111 1.281 . S
O124 Mn108 2.297 . S
O124 C111 1.236 . S
N125 Mn109 2.282 . S
N125 C126 1.328 . S
N125 C130 1.318 . S
C126 N125 1.328 . S
C126 C127 1.457 . S
C126 H131 0.929 . S
C127 C126 1.457 . S
C127 C128 1.291 . S
C127 H140 0.931 . S
C128 C127 1.291 . S
C128 C129 1.373 . S
C128 H141 0.929 . S
C129 C128 1.373 . S
C129 C130 1.396 . S
C129 C136 1.403 . S
C130 C120 1.476 . S
C130 N125 1.318 . S
C130 C129 1.396 . S
H131 C126 0.929 . S
O132 Mn108 2.385 . S
O132 C110 1.234 . S
O133 Mn108 2.209 . S
O133 Mn109 2.215 . S
O133 C110 1.283 . S
O134 Mn108 2.094 . S
O134 C112 1.240 . S
O135 Mn109 2.117 . S
O135 C112 1.264 . S
C136 C129 1.403 . S
C136 C137 1.399 . S
C136 H142 0.929 . S
C137 C117 1.449 . S
C137 C136 1.399 . S
C137 H143 0.930 1_554 S
H138 C118 0.931 1_556 S
H139 C119 0.930 . S
H140 C127 0.931 . S
H141 C128 0.929 . S
H142 C136 0.929 . S
H143 C137 0.930 1_556 S
Mn144 O149 2.095 . S
Mn144 O159 2.162 . S
Mn144 O160 2.297 . S
Mn144 O168 2.385 . S
Mn144 O169 2.209 . S
Mn144 O170 2.094 . S
Mn145 O150 2.121 1_655 S
Mn145 N152 2.257 . S
Mn145 N161 2.282 . S
Mn145 O169 2.215 1_655 S
Mn145 O171 2.117 . S
C146 O168 1.234 . S
C146 O169 1.283 . S
C147 O159 1.281 . S
C147 O160 1.236 . S
C148 O170 1.240 1_655 S
C148 O171 1.264 . S
O149 Mn144 2.095 . S
O149 C158 1.250 . S
O150 Mn145 2.121 1_455 S
O150 C158 1.258 . S
C151 N152 1.326 . S
C151 C155 1.460 . S
C151 H157 0.929 1_655 S
N152 Mn145 2.257 . S
N152 C151 1.326 . S
N152 C156 1.362 . S
C153 C154 1.258 . S
C153 C156 1.431 . S
C153 C173 1.449 . S
C154 C153 1.258 . S
C154 C155 1.477 . S
C154 H174 0.931 . S
C155 C151 1.460 . S
C155 C154 1.477 . S
C155 H175 0.930 1_655 S
C156 N152 1.362 . S
C156 C153 1.431 . S
C156 C166 1.476 . S
H157 C151 0.929 1_455 S
C158 O149 1.250 . S
C158 O150 1.258 . S
O159 Mn144 2.162 . S
O159 C147 1.281 . S
O160 Mn144 2.297 . S
O160 C147 1.236 . S
N161 Mn145 2.282 . S
N161 C162 1.328 . S
N161 C166 1.318 . S
C162 N161 1.328 . S
C162 C163 1.457 . S
C162 H167 0.929 . S
C163 C162 1.457 . S
C163 C164 1.291 . S
C163 H176 0.931 . S
C164 C163 1.291 . S
C164 C165 1.373 . S
C164 H177 0.929 . S
C165 C164 1.373 . S
C165 C166 1.396 . S
C165 C172 1.403 . S
C166 C156 1.476 . S
C166 N161 1.318 . S
C166 C165 1.396 . S
H167 C162 0.929 . S
O168 Mn144 2.385 . S
O168 C146 1.234 . S
O169 Mn144 2.209 . S
O169 Mn145 2.215 1_455 S
O169 C146 1.283 . S
O170 Mn144 2.094 . S
O170 C148 1.240 1_455 S
O171 Mn145 2.117 . S
O171 C148 1.264 . S
C172 C165 1.403 . S
C172 C173 1.399 . S
C172 H178 0.929 . S
C173 C153 1.449 . S
C173 C172 1.399 . S
C173 H179 0.930 . S
H174 C154 0.931 . S
H175 C155 0.930 1_455 S
H176 C163 0.931 . S
H177 C164 0.929 . S
H178 C172 0.929 . S
H179 C173 0.930 . S
Mn180 O185 2.095 . S
Mn180 O195 2.162 . S
Mn180 O196 2.297 . S
Mn180 O204 2.385 . S
Mn180 O205 2.209 . S
Mn180 O206 2.094 . S
Mn181 O186 2.121 . S
Mn181 N188 2.257 . S
Mn181 N197 2.282 . S
Mn181 O205 2.215 . S
Mn181 O207 2.117 . S
C182 O204 1.234 . S
C182 O205 1.283 . S
C183 O195 1.281 . S
C183 O196 1.236 . S
C184 O206 1.240 . S
C184 O207 1.264 . S
O185 Mn180 2.095 . S
O185 C194 1.250 . S
O186 Mn181 2.121 . S
O186 C194 1.258 . S
C187 N188 1.326 . S
C187 C191 1.460 . S
C187 H193 0.929 . S
N188 Mn181 2.257 . S
N188 C187 1.326 . S
N188 C192 1.362 . S
C189 C190 1.258 . S
C189 C192 1.431 . S
C189 C209 1.449 . S
C190 C189 1.258 . S
C190 C191 1.477 . S
C190 H210 0.931 . S
C191 C187 1.460 . S
C191 C190 1.477 . S
C191 H211 0.930 . S
C192 N188 1.362 . S
C192 C189 1.431 . S
C192 C202 1.476 . S
H193 C187 0.929 . S
C194 O185 1.250 . S
C194 O186 1.258 . S
O195 Mn180 2.162 . S
O195 C183 1.281 . S
O196 Mn180 2.297 . S
O196 C183 1.236 . S
N197 Mn181 2.282 . S
N197 C198 1.328 . S
N197 C202 1.318 . S
C198 N197 1.328 . S
C198 C199 1.457 . S
C198 H203 0.929 . S
C199 C198 1.457 . S
C199 C200 1.291 . S
C199 H212 0.931 . S
C200 C199 1.291 . S
C200 C201 1.373 . S
C200 H213 0.929 . S
C201 C200 1.373 . S
C201 C202 1.396 . S
C201 C208 1.403 . S
C202 C192 1.476 . S
C202 N197 1.318 . S
C202 C201 1.396 . S
H203 C198 0.929 . S
O204 Mn180 2.385 . S
O204 C182 1.234 . S
O205 Mn180 2.209 . S
O205 Mn181 2.215 . S
O205 C182 1.283 . S
O206 Mn180 2.094 . S
O206 C184 1.240 . S
O207 Mn181 2.117 . S
O207 C184 1.264 . S
C208 C201 1.403 . S
C208 C209 1.399 . S
C208 H214 0.929 . S
C209 C189 1.449 . S
C209 C208 1.399 . S
C209 H215 0.930 . S
H210 C190 0.931 . S
H211 C191 0.930 . S
H212 C199 0.931 . S
H213 C200 0.929 . S
H214 C208 0.929 . S
H215 C209 0.930 . S
Mn216 O221 2.095 . S
Mn216 O231 2.162 . S
Mn216 O232 2.297 . S
Mn216 O240 2.385 . S
Mn216 O241 2.209 . S
Mn216 O242 2.094 . S
Mn217 O222 2.121 . S
Mn217 N224 2.257 . S
Mn217 N233 2.282 . S
Mn217 O241 2.215 . S
Mn217 O243 2.117 . S
C218 O240 1.234 . S
C218 O241 1.283 . S
C219 O231 1.281 . S
C219 O232 1.236 . S
C220 O242 1.240 . S
C220 O243 1.264 . S
O221 Mn216 2.095 . S
O221 C230 1.250 . S
O222 Mn217 2.121 . S
O222 C230 1.258 . S
C223 N224 1.326 . S
C223 C227 1.460 . S
C223 H229 0.929 . S
N224 Mn217 2.257 . S
N224 C223 1.326 . S
N224 C228 1.362 . S
C225 C226 1.258 . S
C225 C228 1.431 . S
C225 C245 1.449 . S
C226 C225 1.258 . S
C226 C227 1.477 . S
C226 H246 0.931 . S
C227 C223 1.460 . S
C227 C226 1.477 . S
C227 H247 0.930 . S
C228 N224 1.362 . S
C228 C225 1.431 . S
C228 C238 1.476 . S
H229 C223 0.929 . S
C230 O221 1.250 . S
C230 O222 1.258 . S
O231 Mn216 2.162 . S
O231 C219 1.281 . S
O232 Mn216 2.297 . S
O232 C219 1.236 . S
N233 Mn217 2.282 . S
N233 C234 1.328 . S
N233 C238 1.318 . S
C234 N233 1.328 . S
C234 C235 1.457 . S
C234 H239 0.929 . S
C235 C234 1.457 . S
C235 C236 1.291 . S
C235 H248 0.931 . S
C236 C235 1.291 . S
C236 C237 1.373 . S
C236 H249 0.929 . S
C237 C236 1.373 . S
C237 C238 1.396 . S
C237 C244 1.403 . S
C238 C228 1.476 . S
C238 N233 1.318 . S
C238 C237 1.396 . S
H239 C234 0.929 . S
O240 Mn216 2.385 . S
O240 C218 1.234 . S
O241 Mn216 2.209 . S
O241 Mn217 2.215 . S
O241 C218 1.283 . S
O242 Mn216 2.094 . S
O242 C220 1.240 . S
O243 Mn217 2.117 . S
O243 C220 1.264 . S
C244 C237 1.403 . S
C244 C245 1.399 . S
C244 H250 0.929 . S
C245 C225 1.449 . S
C245 C244 1.399 . S
C245 H251 0.930 . S
H246 C226 0.931 . S
H247 C227 0.930 . S
H248 C235 0.931 . S
H249 C236 0.929 . S
H250 C244 0.929 . S
H251 C245 0.930 . S
Mn252 O257 2.095 . S
Mn252 O267 2.162 . S
Mn252 O268 2.297 . S
Mn252 O276 2.427 . S
Mn252 O277 2.209 . S
Mn252 O278 2.094 . S
Mn253 O258 2.121 . S
Mn253 N260 2.257 . S
Mn253 N269 2.282 . S
Mn253 O277 2.215 . S
Mn253 O279 2.117 . S
C254 O276 1.243 . S
C254 O277 1.283 . S
C255 O267 1.281 . S
C255 O268 1.236 . S
C256 O278 1.240 . S
C256 O279 1.264 . S
O257 Mn252 2.095 . S
O257 C266 1.250 . S
O258 Mn253 2.121 . S
O258 C266 1.258 . S
C259 N260 1.326 . S
C259 C263 1.460 . S
C259 H265 0.929 . S
N260 Mn253 2.257 . S
N260 C259 1.326 . S
N260 C264 1.362 . S
C261 C262 1.258 1_655 S
C261 C264 1.431 1_655 S
C261 C281 1.449 . S
C262 C261 1.258 1_455 S
C262 C263 1.477 . S
C262 H282 0.931 1_455 S
C263 C259 1.460 . S
C263 C262 1.477 . S
C263 H283 0.930 . S
C264 N260 1.362 . S
C264 C261 1.431 1_455 S
C264 C274 1.476 1_455 S
H265 C259 0.929 . S
C266 O257 1.250 . S
C266 O258 1.258 . S
O267 Mn252 2.162 . S
O267 C255 1.281 . S
O268 Mn252 2.297 . S
O268 C255 1.236 . S
N269 Mn253 2.282 . S
N269 C270 1.328 1_455 S
N269 C274 1.318 1_455 S
C270 N269 1.328 1_655 S
C270 C271 1.457 . S
C270 H275 0.929 1_655 S
C271 C270 1.457 . S
C271 C272 1.291 . S
C271 H284 0.931 . S
C272 C271 1.291 . S
C272 C273 1.373 . S
C272 H285 0.929 . S
C273 C272 1.373 . S
C273 C274 1.396 . S
C273 C280 1.403 . S
C274 C264 1.476 1_655 S
C274 N269 1.318 1_655 S
C274 C273 1.396 . S
H275 C270 0.929 1_455 S
O276 Mn252 2.427 . S
O276 C254 1.243 . S
O277 Mn252 2.209 . S
O277 Mn253 2.215 . S
O277 C254 1.283 . S
O278 Mn252 2.094 . S
O278 C256 1.240 . S
O279 Mn253 2.117 . S
O279 C256 1.264 . S
C280 C273 1.403 . S
C280 C281 1.399 . S
C280 H286 0.929 . S
C281 C261 1.449 . S
C281 C280 1.399 . S
C281 H287 0.930 . S
H282 C262 0.931 1_655 S
H283 C263 0.930 . S
H284 C271 0.931 . S
H285 C272 0.929 . S
H286 C280 0.929 . S
H287 C281 0.930 . S
Mn288 O293 2.095 . S
Mn288 O303 2.162 . S
Mn288 O304 2.297 . S
Mn288 O312 2.385 . S
Mn288 O313 2.209 . S
Mn288 O314 2.094 . S
Mn289 O294 2.121 . S
Mn289 N296 2.257 . S
Mn289 N305 2.282 . S
Mn289 O313 2.215 . S
Mn289 O315 2.117 . S
C290 O312 1.234 . S
C290 O313 1.283 . S
C291 O303 1.281 . S
C291 O304 1.236 . S
C292 O314 1.240 . S
C292 O315 1.264 . S
O293 Mn288 2.095 . S
O293 C302 1.250 . S
O294 Mn289 2.121 . S
O294 C302 1.258 . S
C295 N296 1.326 . S
C295 C299 1.460 . S
C295 H301 0.929 . S
N296 Mn289 2.257 . S
N296 C295 1.326 . S
N296 C300 1.362 . S
C297 C298 1.258 . S
C297 C300 1.431 . S
C297 C317 1.449 . S
C298 C297 1.258 . S
C298 C299 1.477 . S
C298 H318 0.931 . S
C299 C295 1.460 . S
C299 C298 1.477 . S
C299 H319 0.930 . S
C300 N296 1.362 . S
C300 C297 1.431 . S
C300 C310 1.476 . S
H301 C295 0.929 . S
C302 O293 1.250 . S
C302 O294 1.258 . S
O303 Mn288 2.162 . S
O303 C291 1.281 . S
O304 Mn288 2.297 . S
O304 C291 1.236 . S
N305 Mn289 2.282 . S
N305 C306 1.328 . S
N305 C310 1.318 . S
C306 N305 1.328 . S
C306 C307 1.457 . S
C306 H311 0.929 . S
C307 C306 1.457 . S
C307 C308 1.291 . S
C307 H320 0.931 . S
C308 C307 1.291 . S
C308 C309 1.373 . S
C308 H321 0.929 . S
C309 C308 1.373 . S
C309 C310 1.396 . S
C309 C316 1.403 . S
C310 C300 1.476 . S
C310 N305 1.318 . S
C310 C309 1.396 . S
H311 C306 0.929 . S
O312 Mn288 2.385 . S
O312 C290 1.234 . S
O313 Mn288 2.209 . S
O313 Mn289 2.215 . S
O313 C290 1.283 . S
O314 Mn288 2.094 . S
O314 C292 1.240 . S
O315 Mn289 2.117 . S
O315 C292 1.264 . S
C316 C309 1.403 . S
C316 C317 1.399 . S
C316 H322 0.929 . S
C317 C297 1.449 . S
C317 C316 1.399 . S
C317 H323 0.930 . S
H318 C298 0.931 . S
H319 C299 0.930 . S
H320 C307 0.931 . S
H321 C308 0.929 . S
H322 C316 0.929 . S
H323 C317 0.930 . S
Mn324 O329 2.095 . S
Mn324 O339 2.162 . S
Mn324 O340 2.297 . S
Mn324 O348 2.385 . S
Mn324 O349 2.209 . S
Mn324 O350 2.094 . S
Mn325 O330 2.121 . S
Mn325 N332 2.257 . S
Mn325 N341 2.282 . S
Mn325 O349 2.215 . S
Mn325 O351 2.117 . S
C326 O348 1.234 . S
C326 O349 1.283 . S
C327 O339 1.281 . S
C327 O340 1.236 . S
C328 O350 1.240 . S
C328 O351 1.264 . S
O329 Mn324 2.095 . S
O329 C338 1.250 . S
O330 Mn325 2.121 . S
O330 C338 1.258 . S
C331 N332 1.326 . S
C331 C335 1.460 . S
C331 H337 0.929 . S
N332 Mn325 2.257 . S
N332 C331 1.326 . S
N332 C336 1.362 . S
C333 C334 1.258 . S
C333 C336 1.431 . S
C333 C353 1.449 . S
C334 C333 1.258 . S
C334 C335 1.477 . S
C334 H354 0.931 . S
C335 C331 1.460 . S
C335 C334 1.477 . S
C335 H355 0.930 . S
C336 N332 1.362 . S
C336 C333 1.431 . S
C336 C346 1.476 . S
H337 C331 0.929 . S
C338 O329 1.250 . S
C338 O330 1.258 . S
O339 Mn324 2.162 . S
O339 C327 1.281 . S
O340 Mn324 2.297 . S
O340 C327 1.236 . S
N341 Mn325 2.282 . S
N341 C342 1.328 . S
N341 C346 1.318 . S
C342 N341 1.328 . S
C342 C343 1.457 . S
C342 H347 0.929 . S
C343 C342 1.457 . S
C343 C344 1.291 . S
C343 H356 0.931 . S
C344 C343 1.291 . S
C344 C345 1.373 . S
C344 H357 0.929 . S
C345 C344 1.373 . S
C345 C346 1.396 . S
C345 C352 1.403 . S
C346 C336 1.476 . S
C346 N341 1.318 . S
C346 C345 1.396 . S
H347 C342 0.929 . S
O348 Mn324 2.385 . S
O348 C326 1.234 . S
O349 Mn324 2.209 . S
O349 Mn325 2.215 . S
O349 C326 1.283 . S
O350 Mn324 2.094 . S
O350 C328 1.240 . S
O351 Mn325 2.117 . S
O351 C328 1.264 . S
C352 C345 1.403 . S
C352 C353 1.399 . S
C352 H358 0.929 . S
C353 C333 1.449 . S
C353 C352 1.399 . S
C353 H359 0.930 . S
H354 C334 0.931 . S
H355 C335 0.930 . S
H356 C343 0.931 . S
H357 C344 0.929 . S
H358 C352 0.929 . S
H359 C353 0.930 . S
Mn360 O365 2.095 . S
Mn360 O375 2.162 . S
Mn360 O376 2.297 . S
Mn360 O384 2.385 . S
Mn360 O385 2.209 . S
Mn360 O386 2.094 . S
Mn361 O366 2.121 . S
Mn361 N368 2.257 . S
Mn361 N377 2.282 . S
Mn361 O385 2.215 . S
Mn361 O387 2.117 . S
C362 O384 1.234 . S
C362 O385 1.283 . S
C363 O375 1.281 . S
C363 O376 1.236 . S
C364 O386 1.240 . S
C364 O387 1.264 . S
O365 Mn360 2.095 . S
O365 C374 1.257 . S
O366 Mn361 2.121 . S
O366 C374 1.265 . S
C367 N368 1.326 . S
C367 C371 1.460 . S
C367 H373 0.929 . S
N368 Mn361 2.257 . S
N368 C367 1.326 . S
N368 C372 1.362 . S
C369 C370 1.258 . S
C369 C372 1.431 . S
C369 C389 1.449 . S
C370 C369 1.258 . S
C370 C371 1.477 . S
C370 H390 0.931 . S
C371 C367 1.460 . S
C371 C370 1.477 . S
C371 H391 0.930 . S
C372 N368 1.362 . S
C372 C369 1.431 . S
C372 C382 1.476 . S
H373 C367 0.929 . S
C374 O365 1.257 . S
C374 O366 1.265 . S
O375 Mn360 2.162 . S
O375 C363 1.281 . S
O376 Mn360 2.297 . S
O376 C363 1.236 . S
N377 Mn361 2.282 . S
N377 C378 1.328 . S
N377 C382 1.318 . S
C378 N377 1.328 . S
C378 C379 1.457 . S
C378 H383 0.929 . S
C379 C378 1.457 . S
C379 C380 1.291 . S
C379 H392 0.931 . S
C380 C379 1.291 . S
C380 C381 1.373 . S
C380 H393 0.929 . S
C381 C380 1.373 . S
C381 C382 1.396 . S
C381 C388 1.403 . S
C382 C372 1.476 . S
C382 N377 1.318 . S
C382 C381 1.396 . S
H383 C378 0.929 . S
O384 Mn360 2.385 . S
O384 C362 1.234 . S
O385 Mn360 2.209 . S
O385 Mn361 2.215 . S
O385 C362 1.283 . S
O386 Mn360 2.094 . S
O386 C364 1.240 . S
O387 Mn361 2.117 . S
O387 C364 1.264 . S
C388 C381 1.403 . S
C388 C389 1.399 . S
C388 H394 0.929 . S
C389 C369 1.449 . S
C389 C388 1.399 . S
C389 H395 0.930 . S
H390 C370 0.931 . S
H391 C371 0.930 . S
H392 C379 0.931 . S
H393 C380 0.929 . S
H394 C388 0.929 . S
H395 C389 0.930 . S
Mn396 O401 2.095 . S
Mn396 O411 2.162 . S
Mn396 O412 2.297 . S
Mn396 O420 2.385 . S
Mn396 O421 2.209 . S
Mn396 O422 2.094 . S
Mn397 O402 2.121 . S
Mn397 N404 2.257 . S
Mn397 N413 2.282 . S
Mn397 O421 2.215 . S
Mn397 O423 2.117 . S
C398 O420 1.234 . S
C398 O421 1.283 . S
C399 O411 1.281 . S
C399 O412 1.236 . S
C400 O422 1.240 . S
C400 O423 1.264 . S
O401 Mn396 2.095 . S
O401 C410 1.250 . S
O402 Mn397 2.121 . S
O402 C410 1.258 . S
C403 N404 1.326 . S
C403 C407 1.460 1_565 S
C403 H409 0.929 . S
N404 Mn397 2.257 . S
N404 C403 1.326 . S
N404 C408 1.362 . S
C405 C406 1.258 . S
C405 C408 1.431 1_545 S
C405 C425 1.449 . S
C406 C405 1.258 . S
C406 C407 1.477 . S
C406 H426 0.931 . S
C407 C403 1.460 1_545 S
C407 C406 1.477 . S
C407 H427 0.930 . S
C408 N404 1.362 . S
C408 C405 1.431 1_565 S
C408 C418 1.476 . S
H409 C403 0.929 . S
C410 O401 1.250 . S
C410 O402 1.258 . S
O411 Mn396 2.162 . S
O411 C399 1.281 . S
O412 Mn396 2.297 . S
O412 C399 1.236 . S
N413 Mn397 2.282 . S
N413 C414 1.328 . S
N413 C418 1.318 . S
C414 N413 1.328 . S
C414 C415 1.457 . S
C414 H419 0.929 . S
C415 C414 1.457 . S
C415 C416 1.291 . S
C415 H428 0.931 . S
C416 C415 1.291 . S
C416 C417 1.373 . S
C416 H429 0.929 . S
C417 C416 1.373 . S
C417 C418 1.396 . S
C417 C424 1.403 . S
C418 C408 1.476 . S
C418 N413 1.318 . S
C418 C417 1.396 . S
H419 C414 0.929 . S
O420 Mn396 2.385 . S
O420 C398 1.234 . S
O421 Mn396 2.209 . S
O421 Mn397 2.215 . S
O421 C398 1.283 . S
O422 Mn396 2.094 . S
O422 C400 1.240 . S
O423 Mn397 2.117 . S
O423 C400 1.264 . S
C424 C417 1.403 . S
C424 C425 1.399 1_565 S
C424 H430 0.929 1_565 S
C425 C405 1.449 . S
C425 C424 1.399 1_545 S
C425 H431 0.930 . S
H426 C406 0.931 . S
H427 C407 0.930 . S
H428 C415 0.931 . S
H429 C416 0.929 . S
H430 C424 0.929 1_545 S
H431 C425 0.930 . S
Mn432 O437 2.095 . S
Mn432 O447 2.162 . S
Mn432 O448 2.297 . S
Mn432 O456 2.385 . S
Mn432 O457 2.209 . S
Mn432 O458 2.094 . S
Mn433 O438 2.121 . S
Mn433 N440 2.257 . S
Mn433 N449 2.282 . S
Mn433 O457 2.215 . S
Mn433 O459 2.117 . S
C434 O456 1.234 . S
C434 O457 1.283 . S
C435 O447 1.281 . S
C435 O448 1.236 . S
C436 O458 1.240 . S
C436 O459 1.264 . S
O437 Mn432 2.095 . S
O437 C446 1.250 . S
O438 Mn433 2.121 . S
O438 C446 1.258 . S
C439 N440 1.326 . S
C439 C443 1.460 . S
C439 H445 0.929 . S
N440 Mn433 2.257 . S
N440 C439 1.326 . S
N440 C444 1.362 . S
C441 C442 1.258 . S
C441 C444 1.431 . S
C441 C461 1.449 . S
C442 C441 1.258 . S
C442 C443 1.477 . S
C442 H462 0.931 . S
C443 C439 1.460 . S
C443 C442 1.477 . S
C443 H463 0.930 . S
C444 N440 1.362 . S
C444 C441 1.431 . S
C444 C454 1.476 . S
H445 C439 0.929 . S
C446 O437 1.250 . S
C446 O438 1.258 . S
O447 Mn432 2.162 . S
O447 C435 1.281 . S
O448 Mn432 2.297 . S
O448 C435 1.236 . S
N449 Mn433 2.282 . S
N449 C450 1.328 . S
N449 C454 1.318 . S
C450 N449 1.328 . S
C450 C451 1.457 . S
C450 H455 0.929 . S
C451 C450 1.457 . S
C451 C452 1.291 . S
C451 H464 0.931 . S
C452 C451 1.291 . S
C452 C453 1.373 . S
C452 H465 0.929 . S
C453 C452 1.373 . S
C453 C454 1.396 . S
C453 C460 1.403 . S
C454 C444 1.476 . S
C454 N449 1.318 . S
C454 C453 1.396 . S
H455 C450 0.929 . S
O456 Mn432 2.385 . S
O456 C434 1.234 . S
O457 Mn432 2.209 . S
O457 Mn433 2.215 . S
O457 C434 1.283 . S
O458 Mn432 2.094 . S
O458 C436 1.240 . S
O459 Mn433 2.117 . S
O459 C436 1.264 . S
C460 C453 1.403 . S
C460 C461 1.399 . S
C460 H466 0.929 . S
C461 C441 1.449 . S
C461 C460 1.399 . S
C461 H467 0.930 . S
H462 C442 0.931 . S
H463 C443 0.930 . S
H464 C451 0.931 . S
H465 C452 0.929 . S
H466 C460 0.929 . S
H467 C461 0.930 . S
Mn468 O473 2.095 . S
Mn468 O483 2.162 . S
Mn468 O484 2.297 . S
Mn468 O492 2.385 . S
Mn468 O493 2.209 . S
Mn468 O494 2.094 . S
Mn469 O474 2.121 . S
Mn469 N476 2.257 . S
Mn469 N485 2.282 1_554 S
Mn469 O493 2.215 . S
Mn469 O495 2.117 . S
C470 O492 1.234 . S
C470 O493 1.283 . S
C471 O483 1.281 . S
C471 O484 1.236 . S
C472 O494 1.240 . S
C472 O495 1.264 . S
O473 Mn468 2.095 . S
O473 C482 1.250 . S
O474 Mn469 2.121 . S
O474 C482 1.258 . S
C475 N476 1.326 . S
C475 C479 1.460 . S
C475 H481 0.929 . S
N476 Mn469 2.257 . S
N476 C475 1.326 . S
N476 C480 1.362 . S
C477 C478 1.267 . S
C477 C480 1.428 . S
C477 C497 1.442 1_554 S
C478 C477 1.267 . S
C478 C479 1.477 . S
C478 H498 0.931 . S
C479 C475 1.460 . S
C479 C478 1.477 . S
C479 H499 0.930 . S
C480 N476 1.362 . S
C480 C477 1.428 . S
C480 C490 1.476 1_554 S
H481 C475 0.929 . S
C482 O473 1.250 . S
C482 O474 1.258 . S
O483 Mn468 2.162 . S
O483 C471 1.281 . S
O484 Mn468 2.297 . S
O484 C471 1.236 . S
N485 Mn469 2.282 1_556 S
N485 C486 1.328 . S
N485 C490 1.318 . S
C486 N485 1.328 . S
C486 C487 1.457 . S
C486 H491 0.929 . S
C487 C486 1.457 . S
C487 C488 1.291 . S
C487 H500 0.931 . S
C488 C487 1.291 . S
C488 C489 1.373 . S
C488 H501 0.929 . S
C489 C488 1.373 . S
C489 C490 1.396 . S
C489 C496 1.403 . S
C490 C480 1.476 1_556 S
C490 N485 1.318 . S
C490 C489 1.396 . S
H491 C486 0.929 . S
O492 Mn468 2.385 . S
O492 C470 1.234 . S
O493 Mn468 2.209 . S
O493 Mn469 2.215 . S
O493 C470 1.283 . S
O494 Mn468 2.094 . S
O494 C472 1.240 . S
O495 Mn469 2.117 . S
O495 C472 1.264 . S
C496 C489 1.403 . S
C496 C497 1.399 . S
C496 H502 0.929 . S
C497 C477 1.442 1_556 S
C497 C496 1.399 . S
C497 H503 0.930 . S
H498 C478 0.931 . S
H499 C479 0.930 . S
H500 C487 0.931 . S
H501 C488 0.929 . S
H502 C496 0.929 . S
H503 C497 0.930 . S
Mn504 O509 2.095 . S
Mn504 O519 2.162 . S
Mn504 O520 2.297 . S
Mn504 O528 2.385 . S
Mn504 O529 2.209 . S
Mn504 O530 2.094 . S
Mn505 O510 2.121 . S
Mn505 N512 2.257 . S
Mn505 N521 2.282 . S
Mn505 O529 2.215 . S
Mn505 O531 2.117 . S
C506 O528 1.234 . S
C506 O529 1.283 . S
C507 O519 1.281 . S
C507 O520 1.236 . S
C508 O530 1.240 . S
C508 O531 1.264 . S
O509 Mn504 2.095 . S
O509 C518 1.250 . S
O510 Mn505 2.121 . S
O510 C518 1.258 . S
C511 N512 1.326 . S
C511 C515 1.460 . S
C511 H517 0.929 . S
N512 Mn505 2.257 . S
N512 C511 1.326 . S
N512 C516 1.362 . S
C513 C514 1.258 . S
C513 C516 1.431 . S
C513 C533 1.449 . S
C514 C513 1.258 . S
C514 C515 1.477 . S
C514 H534 0.931 . S
C515 C511 1.460 . S
C515 C514 1.477 . S
C515 H535 0.930 . S
C516 N512 1.362 . S
C516 C513 1.431 . S
C516 C526 1.476 . S
H517 C511 0.929 . S
C518 O509 1.250 . S
C518 O510 1.258 . S
O519 Mn504 2.162 . S
O519 C507 1.281 . S
O520 Mn504 2.297 . S
O520 C507 1.236 . S
N521 Mn505 2.282 . S
N521 C522 1.328 . S
N521 C526 1.318 . S
C522 N521 1.328 . S
C522 C523 1.457 . S
C522 H527 0.929 . S
C523 C522 1.457 . S
C523 C524 1.291 . S
C523 H536 0.931 . S
C524 C523 1.291 . S
C524 C525 1.373 . S
C524 H537 0.929 . S
C525 C524 1.373 . S
C525 C526 1.396 . S
C525 C532 1.403 . S
C526 C516 1.476 . S
C526 N521 1.318 . S
C526 C525 1.396 . S
H527 C522 0.929 . S
O528 Mn504 2.385 . S
O528 C506 1.234 . S
O529 Mn504 2.209 . S
O529 Mn505 2.215 . S
O529 C506 1.283 . S
O530 Mn504 2.094 . S
O530 C508 1.240 . S
O531 Mn505 2.117 . S
O531 C508 1.264 . S
C532 C525 1.403 . S
C532 C533 1.399 . S
C532 H538 0.929 . S
C533 C513 1.449 . S
C533 C532 1.399 . S
C533 H539 0.930 . S
H534 C514 0.931 . S
H535 C515 0.930 . S
H536 C523 0.931 . S
H537 C524 0.929 . S
H538 C532 0.929 . S
H539 C533 0.930 . S
Mn540 O545 2.095 . S
Mn540 O555 2.162 . S
Mn540 O556 2.297 . S
Mn540 O564 2.385 . S
Mn540 O565 2.209 1_565 S
Mn540 O566 2.094 . S
Mn541 O546 2.121 . S
Mn541 N548 2.257 . S
Mn541 N557 2.282 . S
Mn541 O565 2.215 . S
Mn541 O567 2.117 1_545 S
C542 O564 1.234 . S
C542 O565 1.283 1_565 S
C543 O555 1.281 . S
C543 O556 1.236 . S
C544 O566 1.240 . S
C544 O567 1.264 . S
O545 Mn540 2.095 . S
O545 C554 1.250 . S
O546 Mn541 2.121 . S
O546 C554 1.258 1_545 S
C547 N548 1.326 . S
C547 C551 1.460 . S
C547 H553 0.929 . S
N548 Mn541 2.257 . S
N548 C547 1.326 . S
N548 C552 1.362 . S
C549 C550 1.258 . S
C549 C552 1.431 . S
C549 C569 1.449 . S
C550 C549 1.258 . S
C550 C551 1.477 . S
C550 H570 0.931 . S
C551 C547 1.460 . S
C551 C550 1.477 . S
C551 H571 0.930 . S
C552 N548 1.362 . S
C552 C549 1.431 . S
C552 C562 1.476 . S
H553 C547 0.929 . S
C554 O545 1.250 . S
C554 O546 1.258 1_565 S
O555 Mn540 2.162 . S
O555 C543 1.281 . S
O556 Mn540 2.297 . S
O556 C543 1.236 . S
N557 Mn541 2.282 . S
N557 C558 1.343 . S
N557 C562 1.318 . S
C558 N557 1.343 . S
C558 C559 1.459 . S
C558 H563 0.912 1_545 S
C559 C558 1.459 . S
C559 C560 1.291 . S
C559 H572 0.931 1_545 S
C560 C559 1.291 . S
C560 C561 1.373 . S
C560 H573 0.929 . S
C561 C560 1.373 . S
C561 C562 1.396 . S
C561 C568 1.403 . S
C562 C552 1.476 . S
C562 N557 1.318 . S
C562 C561 1.396 . S
H563 C558 0.912 1_565 S
O564 Mn540 2.385 . S
O564 C542 1.234 . S
O565 Mn540 2.209 1_545 S
O565 Mn541 2.215 . S
O565 C542 1.283 1_545 S
O566 Mn540 2.094 . S
O566 C544 1.240 . S
O567 Mn541 2.117 1_565 S
O567 C544 1.264 . S
C568 C561 1.403 . S
C568 C569 1.399 . S
C568 H574 0.929 . S
C569 C549 1.449 . S
C569 C568 1.399 . S
C569 H575 0.930 . S
H570 C550 0.931 . S
H571 C551 0.930 . S
H572 C559 0.931 1_565 S
H573 C560 0.929 . S
H574 C568 0.929 . S
H575 C569 0.930 . S
Mn576 O581 2.095 . S
Mn576 O591 2.162 . S
Mn576 O592 2.297 . S
Mn576 O600 2.385 . S
Mn576 O601 2.209 . S
Mn576 O602 2.094 . S
Mn577 O582 2.121 . S
Mn577 N584 2.257 . S
Mn577 N593 2.282 . S
Mn577 O601 2.215 . S
Mn577 O603 2.117 . S
C578 O600 1.234 . S
C578 O601 1.283 . S
C579 O591 1.281 . S
C579 O592 1.236 . S
C580 O602 1.240 . S
C580 O603 1.264 . S
O581 Mn576 2.095 . S
O581 C590 1.250 . S
O582 Mn577 2.121 . S
O582 C590 1.258 . S
C583 N584 1.326 . S
C583 C587 1.460 . S
C583 H589 0.929 . S
N584 Mn577 2.257 . S
N584 C583 1.326 . S
N584 C588 1.362 . S
C585 C586 1.258 . S
C585 C588 1.431 . S
C585 C605 1.449 . S
C586 C585 1.258 . S
C586 C587 1.477 . S
C586 H606 0.931 . S
C587 C583 1.460 . S
C587 C586 1.477 . S
C587 H607 0.930 . S
C588 N584 1.362 . S
C588 C585 1.431 . S
C588 C598 1.476 . S
H589 C583 0.929 . S
C590 O581 1.250 . S
C590 O582 1.258 . S
O591 Mn576 2.162 . S
O591 C579 1.281 . S
O592 Mn576 2.297 . S
O592 C579 1.236 . S
N593 Mn577 2.282 . S
N593 C594 1.328 . S
N593 C598 1.318 . S
C594 N593 1.328 . S
C594 C595 1.457 . S
C594 H599 0.929 . S
C595 C594 1.457 . S
C595 C596 1.296 . S
C595 H608 0.931 . S
C596 C595 1.296 . S
C596 C597 1.385 . S
C596 H609 0.912 1_545 S
C597 C596 1.385 . S
C597 C598 1.396 . S
C597 C604 1.399 1_545 S
C598 C588 1.476 . S
C598 N593 1.318 . S
C598 C597 1.396 . S
H599 C594 0.929 . S
O600 Mn576 2.385 . S
O600 C578 1.234 . S
O601 Mn576 2.209 . S
O601 Mn577 2.215 . S
O601 C578 1.283 . S
O602 Mn576 2.094 . S
O602 C580 1.240 . S
O603 Mn577 2.117 . S
O603 C580 1.264 . S
C604 C597 1.399 1_565 S
C604 C605 1.389 1_565 S
C604 H610 0.943 . S
C605 C585 1.449 . S
C605 C604 1.389 1_545 S
C605 H611 0.930 . S
H606 C586 0.931 . S
H607 C587 0.930 . S
H608 C595 0.931 . S
H609 C596 0.912 1_565 S
H610 C604 0.943 . S
H611 C605 0.930 . S
Mn612 O617 2.095 . S
Mn612 O627 2.162 . S
Mn612 O628 2.297 . S
Mn612 O636 2.385 . S
Mn612 O637 2.209 . S
Mn612 O638 2.094 . S
Mn613 O618 2.121 . S
Mn613 N620 2.257 . S
Mn613 N629 2.282 . S
Mn613 O637 2.215 . S
Mn613 O639 2.117 . S
C614 O636 1.234 . S
C614 O637 1.283 . S
C615 O627 1.281 . S
C615 O628 1.236 . S
C616 O638 1.240 . S
C616 O639 1.264 . S
O617 Mn612 2.095 . S
O617 C626 1.250 . S
O618 Mn613 2.121 . S
O618 C626 1.258 . S
C619 N620 1.326 . S
C619 C623 1.460 . S
C619 H625 0.929 . S
N620 Mn613 2.257 . S
N620 C619 1.326 . S
N620 C624 1.362 . S
C621 C622 1.258 . S
C621 C624 1.431 . S
C621 C641 1.449 . S
C622 C621 1.258 . S
C622 C623 1.477 . S
C622 H642 0.931 . S
C623 C619 1.460 . S
C623 C622 1.477 . S
C623 H643 0.930 . S
C624 N620 1.362 . S
C624 C621 1.431 . S
C624 C634 1.476 . S
H625 C619 0.929 . S
C626 O617 1.250 . S
C626 O618 1.258 . S
O627 Mn612 2.162 . S
O627 C615 1.281 . S
O628 Mn612 2.297 . S
O628 C615 1.236 . S
N629 Mn613 2.282 . S
N629 C630 1.328 . S
N629 C634 1.318 . S
C630 N629 1.328 . S
C630 C631 1.457 . S
C630 H635 0.929 . S
C631 C630 1.457 . S
C631 C632 1.291 . S
C631 H644 0.931 . S
C632 C631 1.291 . S
C632 C633 1.373 . S
C632 H645 0.929 . S
C633 C632 1.373 . S
C633 C634 1.396 . S
C633 C640 1.403 . S
C634 C624 1.476 . S
C634 N629 1.318 . S
C634 C633 1.396 . S
H635 C630 0.929 . S
O636 Mn612 2.385 . S
O636 C614 1.234 . S
O637 Mn612 2.209 . S
O637 Mn613 2.215 . S
O637 C614 1.283 . S
O638 Mn612 2.094 . S
O638 C616 1.240 . S
O639 Mn613 2.117 . S
O639 C616 1.264 . S
C640 C633 1.403 . S
C640 C641 1.399 . S
C640 H646 0.929 . S
C641 C621 1.449 . S
C641 C640 1.399 . S
C641 H647 0.930 . S
H642 C622 0.931 . S
H643 C623 0.930 . S
H644 C631 0.931 . S
H645 C632 0.929 . S
H646 C640 0.929 . S
H647 C641 0.930 . S
Mn648 O653 2.095 . S
Mn648 O663 2.162 . S
Mn648 O664 2.297 . S
Mn648 O672 2.385 . S
Mn648 O673 2.209 . S
Mn648 O674 2.094 . S
Mn649 O654 2.121 . S
Mn649 N656 2.257 . S
Mn649 N665 2.282 . S
Mn649 O673 2.215 . S
Mn649 O675 2.117 . S
C650 O672 1.234 . S
C650 O673 1.283 . S
C651 O663 1.281 . S
C651 O664 1.236 . S
C652 O674 1.240 . S
C652 O675 1.264 . S
O653 Mn648 2.095 . S
O653 C662 1.250 . S
O654 Mn649 2.121 . S
O654 C662 1.258 . S
C655 N656 1.326 . S
C655 C659 1.460 . S
C655 H661 0.929 . S
N656 Mn649 2.257 . S
N656 C655 1.326 . S
N656 C660 1.362 . S
C657 C658 1.258 . S
C657 C660 1.431 . S
C657 C677 1.449 . S
C658 C657 1.258 . S
C658 C659 1.477 . S
C658 H678 0.931 . S
C659 C655 1.460 . S
C659 C658 1.477 . S
C659 H679 0.930 . S
C660 N656 1.362 . S
C660 C657 1.431 . S
C660 C670 1.476 . S
H661 C655 0.929 . S
C662 O653 1.250 . S
C662 O654 1.258 . S
O663 Mn648 2.162 . S
O663 C651 1.281 . S
O664 Mn648 2.297 . S
O664 C651 1.236 . S
N665 Mn649 2.282 . S
N665 C666 1.328 . S
N665 C670 1.318 . S
C666 N665 1.328 . S
C666 C667 1.457 . S
C666 H671 0.929 . S
C667 C666 1.457 . S
C667 C668 1.291 . S
C667 H680 0.931 . S
C668 C667 1.291 . S
C668 C669 1.373 . S
C668 H681 0.929 . S
C669 C668 1.373 . S
C669 C670 1.396 . S
C669 C676 1.403 . S
C670 C660 1.476 . S
C670 N665 1.318 . S
C670 C669 1.396 . S
H671 C666 0.929 . S
O672 Mn648 2.385 . S
O672 C650 1.234 . S
O673 Mn648 2.209 . S
O673 Mn649 2.215 . S
O673 C650 1.283 . S
O674 Mn648 2.094 . S
O674 C652 1.240 . S
O675 Mn649 2.117 . S
O675 C652 1.264 . S
C676 C669 1.403 . S
C676 C677 1.399 . S
C676 H682 0.929 . S
C677 C657 1.449 . S
C677 C676 1.399 . S
C677 H683 0.930 . S
H678 C658 0.931 . S
H679 C659 0.930 . S
H680 C667 0.931 . S
H681 C668 0.929 . S
H682 C676 0.929 . S
H683 C677 0.930 . S
Mn684 O689 2.095 1_545 S
Mn684 O699 2.162 1_545 S
Mn684 O700 2.297 1_545 S
Mn684 O708 2.385 . S
Mn684 O709 2.209 . S
Mn684 O710 2.094 . S
Mn685 O690 2.121 1_545 S
Mn685 N692 2.257 . S
Mn685 N701 2.282 . S
Mn685 O709 2.215 . S
Mn685 O711 2.117 . S
C686 O708 1.234 . S
C686 O709 1.283 . S
C687 O699 1.281 . S
C687 O700 1.235 . S
C688 O710 1.240 . S
C688 O711 1.264 . S
O689 Mn684 2.095 1_565 S
O689 C698 1.250 . S
O690 Mn685 2.121 1_565 S
O690 C698 1.258 . S
C691 N692 1.326 . S
C691 C695 1.460 . S
C691 H697 0.921 1_545 S
N692 Mn685 2.257 . S
N692 C691 1.326 . S
N692 C696 1.362 . S
C693 C694 1.258 . S
C693 C696 1.431 . S
C693 C713 1.449 . S
C694 C693 1.258 . S
C694 C695 1.477 . S
C694 H714 0.931 . S
C695 C691 1.460 . S
C695 C694 1.477 . S
C695 H715 0.930 . S
C696 N692 1.362 . S
C696 C693 1.431 . S
C696 C706 1.476 . S
H697 C691 0.921 1_565 S
C698 O689 1.250 . S
C698 O690 1.258 . S
O699 Mn684 2.162 1_565 S
O699 C687 1.281 . S
O700 Mn684 2.297 1_565 S
O700 C687 1.235 . S
N701 Mn685 2.282 . S
N701 C702 1.328 . S
N701 C706 1.318 . S
C702 N701 1.328 . S
C702 C703 1.457 . S
C702 H707 0.929 . S
C703 C702 1.457 . S
C703 C704 1.291 . S
C703 H716 0.931 . S
C704 C703 1.291 . S
C704 C705 1.373 . S
C704 H717 0.929 . S
C705 C704 1.373 . S
C705 C706 1.396 . S
C705 C712 1.403 . S
C706 C696 1.476 . S
C706 N701 1.318 . S
C706 C705 1.396 . S
H707 C702 0.929 . S
O708 Mn684 2.385 . S
O708 C686 1.234 . S
O709 Mn684 2.209 . S
O709 Mn685 2.215 . S
O709 C686 1.283 . S
O710 Mn684 2.094 . S
O710 C688 1.240 . S
O711 Mn685 2.117 . S
O711 C688 1.264 . S
C712 C705 1.403 . S
C712 C713 1.399 . S
C712 H718 0.929 . S
C713 C693 1.449 . S
C713 C712 1.399 . S
C713 H719 0.930 . S
H714 C694 0.931 . S
H715 C695 0.930 . S
H716 C703 0.931 . S
H717 C704 0.929 . S
H718 C712 0.929 . S
H719 C713 0.930 . S
Mn720 O725 2.095 1_554 S
Mn720 O735 2.162 . S
Mn720 O736 2.297 . S
Mn720 O744 2.383 . S
Mn720 O745 2.209 1_554 S
Mn720 O746 2.094 1_554 S
Mn721 O726 2.121 . S
Mn721 N728 2.257 . S
Mn721 N737 2.282 . S
Mn721 O745 2.215 . S
Mn721 O747 2.117 . S
C722 O744 1.232 1_556 S
C722 O745 1.283 . S
C723 O735 1.281 . S
C723 O736 1.236 . S
C724 O746 1.240 . S
C724 O747 1.264 . S
O725 Mn720 2.095 1_556 S
O725 C734 1.250 . S
O726 Mn721 2.121 . S
O726 C734 1.258 . S
C727 N728 1.326 . S
C727 C731 1.460 . S
C727 H733 0.929 . S
N728 Mn721 2.257 . S
N728 C727 1.326 . S
N728 C732 1.362 . S
C729 C730 1.258 . S
C729 C732 1.431 . S
C729 C749 1.449 . S
C730 C729 1.258 . S
C730 C731 1.477 . S
C730 H750 0.931 . S
C731 C727 1.460 . S
C731 C730 1.477 . S
C731 H751 0.930 . S
C732 N728 1.362 . S
C732 C729 1.431 . S
C732 C742 1.476 . S
H733 C727 0.929 . S
C734 O725 1.250 . S
C734 O726 1.258 . S
O735 Mn720 2.162 . S
O735 C723 1.281 . S
O736 Mn720 2.297 . S
O736 C723 1.236 . S
N737 Mn721 2.282 . S
N737 C738 1.328 . S
N737 C742 1.318 . S
C738 N737 1.328 . S
C738 C739 1.457 . S
C738 H743 0.929 . S
C739 C738 1.457 . S
C739 C740 1.291 . S
C739 H752 0.931 . S
C740 C739 1.291 . S
C740 C741 1.373 . S
C740 H753 0.929 . S
C741 C740 1.373 . S
C741 C742 1.396 . S
C741 C748 1.403 . S
C742 C732 1.476 . S
C742 N737 1.318 . S
C742 C741 1.396 . S
H743 C738 0.929 . S
O744 Mn720 2.383 . S
O744 C722 1.232 1_554 S
O745 Mn720 2.209 1_556 S
O745 Mn721 2.215 . S
O745 C722 1.283 . S
O746 Mn720 2.094 1_556 S
O746 C724 1.240 . S
O747 Mn721 2.117 . S
O747 C724 1.264 . S
C748 C741 1.403 . S
C748 C749 1.399 . S
C748 H754 0.929 . S
C749 C729 1.449 . S
C749 C748 1.399 . S
C749 H755 0.930 . S
H750 C730 0.931 . S
H751 C731 0.930 . S
H752 C739 0.931 . S
H753 C740 0.929 . S
H754 C748 0.929 . S
H755 C749 0.930 . S
Mn756 O761 2.095 . S
Mn756 O771 2.162 . S
Mn756 O772 2.297 . S
Mn756 O780 2.385 . S
Mn756 O781 2.209 . S
Mn756 O782 2.094 . S
Mn757 O762 2.121 . S
Mn757 N764 2.257 . S
Mn757 N773 2.282 . S
Mn757 O781 2.215 . S
Mn757 O783 2.117 . S
C758 O780 1.234 . S
C758 O781 1.283 . S
C759 O771 1.281 . S
C759 O772 1.236 . S
C760 O782 1.240 . S
C760 O783 1.264 . S
O761 Mn756 2.095 . S
O761 C770 1.250 . S
O762 Mn757 2.121 . S
O762 C770 1.258 . S
C763 N764 1.326 . S
C763 C767 1.460 . S
C763 H769 0.929 . S
N764 Mn757 2.257 . S
N764 C763 1.326 . S
N764 C768 1.362 . S
C765 C766 1.258 . S
C765 C768 1.431 . S
C765 C785 1.449 . S
C766 C765 1.258 . S
C766 C767 1.477 . S
C766 H786 0.931 . S
C767 C763 1.460 . S
C767 C766 1.477 . S
C767 H787 0.930 . S
C768 N764 1.362 . S
C768 C765 1.431 . S
C768 C778 1.476 . S
H769 C763 0.929 . S
C770 O761 1.250 . S
C770 O762 1.258 . S
O771 Mn756 2.162 . S
O771 C759 1.281 . S
O772 Mn756 2.297 . S
O772 C759 1.236 . S
N773 Mn757 2.282 . S
N773 C774 1.328 . S
N773 C778 1.318 . S
C774 N773 1.328 . S
C774 C775 1.457 . S
C774 H779 0.929 . S
C775 C774 1.457 . S
C775 C776 1.291 . S
C775 H788 0.931 . S
C776 C775 1.291 . S
C776 C777 1.373 . S
C776 H789 0.929 . S
C777 C776 1.373 . S
C777 C778 1.396 . S
C777 C784 1.403 . S
C778 C768 1.476 . S
C778 N773 1.318 . S
C778 C777 1.396 . S
H779 C774 0.929 . S
O780 Mn756 2.385 . S
O780 C758 1.234 . S
O781 Mn756 2.209 . S
O781 Mn757 2.215 . S
O781 C758 1.283 . S
O782 Mn756 2.094 . S
O782 C760 1.240 . S
O783 Mn757 2.117 . S
O783 C760 1.264 . S
C784 C777 1.403 . S
C784 C785 1.399 . S
C784 H790 0.929 . S
C785 C765 1.449 . S
C785 C784 1.399 . S
C785 H791 0.930 . S
H786 C766 0.931 . S
H787 C767 0.930 . S
H788 C775 0.931 . S
H789 C776 0.929 . S
H790 C784 0.929 . S
H791 C785 0.930 . S
Mn792 O797 2.095 . S
Mn792 O807 2.162 . S
Mn792 O808 2.297 . S
Mn792 O816 2.385 . S
Mn792 O817 2.209 . S
Mn792 O818 2.094 . S
Mn793 O798 2.121 . S
Mn793 N800 2.257 . S
Mn793 N809 2.282 . S
Mn793 O817 2.215 . S
Mn793 O819 2.117 . S
C794 O816 1.234 . S
C794 O817 1.283 . S
C795 O807 1.281 . S
C795 O808 1.236 . S
C796 O818 1.240 . S
C796 O819 1.264 . S
O797 Mn792 2.095 . S
O797 C806 1.250 . S
O798 Mn793 2.121 . S
O798 C806 1.258 . S
C799 N800 1.326 . S
C799 C803 1.460 . S
C799 H805 0.929 . S
N800 Mn793 2.257 . S
N800 C799 1.326 . S
N800 C804 1.362 . S
C801 C802 1.258 . S
C801 C804 1.431 . S
C801 C821 1.449 . S
C802 C801 1.258 . S
C802 C803 1.477 . S
C802 H822 0.931 . S
C803 C799 1.460 . S
C803 C802 1.477 . S
C803 H823 0.930 . S
C804 N800 1.362 . S
C804 C801 1.431 . S
C804 C814 1.476 . S
H805 C799 0.929 . S
C806 O797 1.250 . S
C806 O798 1.258 . S
O807 Mn792 2.162 . S
O807 C795 1.281 . S
O808 Mn792 2.297 . S
O808 C795 1.236 . S
N809 Mn793 2.282 . S
N809 C810 1.328 . S
N809 C814 1.318 . S
C810 N809 1.328 . S
C810 C811 1.457 . S
C810 H815 0.929 . S
C811 C810 1.457 . S
C811 C812 1.291 . S
C811 H824 0.931 . S
C812 C811 1.291 . S
C812 C813 1.373 . S
C812 H825 0.929 . S
C813 C812 1.373 . S
C813 C814 1.396 . S
C813 C820 1.403 . S
C814 C804 1.476 . S
C814 N809 1.318 . S
C814 C813 1.396 . S
H815 C810 0.929 . S
O816 Mn792 2.385 . S
O816 C794 1.234 . S
O817 Mn792 2.209 . S
O817 Mn793 2.215 . S
O817 C794 1.283 . S
O818 Mn792 2.094 . S
O818 C796 1.240 . S
O819 Mn793 2.117 . S
O819 C796 1.264 . S
C820 C813 1.403 . S
C820 C821 1.399 . S
C820 H826 0.929 . S
C821 C801 1.449 . S
C821 C820 1.399 . S
C821 H827 0.930 . S
H822 C802 0.931 . S
H823 C803 0.930 . S
H824 C811 0.931 . S
H825 C812 0.929 . S
H826 C820 0.929 . S
H827 C821 0.930 . S
Mn828 O833 2.095 . S
Mn828 O843 2.162 . S
Mn828 O844 2.297 . S
Mn828 O852 2.385 . S
Mn828 O853 2.209 . S
Mn828 O854 2.094 . S
Mn829 O834 2.121 . S
Mn829 N836 2.257 . S
Mn829 N845 2.282 . S
Mn829 O853 2.215 . S
Mn829 O855 2.117 . S
C830 O852 1.234 . S
C830 O853 1.283 . S
C831 O843 1.281 . S
C831 O844 1.236 . S
C832 O854 1.240 . S
C832 O855 1.264 . S
O833 Mn828 2.095 . S
O833 C842 1.250 . S
O834 Mn829 2.121 . S
O834 C842 1.258 . S
C835 N836 1.326 . S
C835 C839 1.460 . S
C835 H841 0.929 . S
N836 Mn829 2.257 . S
N836 C835 1.326 . S
N836 C840 1.362 . S
C837 C838 1.258 . S
C837 C840 1.431 . S
C837 C857 1.449 . S
C838 C837 1.258 . S
C838 C839 1.477 . S
C838 H858 0.931 . S
C839 C835 1.460 . S
C839 C838 1.477 . S
C839 H859 0.930 . S
C840 N836 1.362 . S
C840 C837 1.431 . S
C840 C850 1.476 . S
H841 C835 0.929 . S
C842 O833 1.250 . S
C842 O834 1.258 . S
O843 Mn828 2.162 . S
O843 C831 1.281 . S
O844 Mn828 2.297 . S
O844 C831 1.236 . S
N845 Mn829 2.282 . S
N845 C846 1.328 . S
N845 C850 1.318 . S
C846 N845 1.328 . S
C846 C847 1.457 . S
C846 H851 0.929 . S
C847 C846 1.457 . S
C847 C848 1.291 . S
C847 H860 0.931 . S
C848 C847 1.291 . S
C848 C849 1.373 . S
C848 H861 0.929 . S
C849 C848 1.373 . S
C849 C850 1.396 . S
C849 C856 1.403 . S
C850 C840 1.476 . S
C850 N845 1.318 . S
C850 C849 1.396 . S
H851 C846 0.929 . S
O852 Mn828 2.385 . S
O852 C830 1.234 . S
O853 Mn828 2.209 . S
O853 Mn829 2.215 . S
O853 C830 1.283 . S
O854 Mn828 2.094 . S
O854 C832 1.240 . S
O855 Mn829 2.117 . S
O855 C832 1.264 . S
C856 C849 1.403 . S
C856 C857 1.399 . S
C856 H862 0.929 . S
C857 C837 1.449 . S
C857 C856 1.399 . S
C857 H863 0.930 . S
H858 C838 0.931 . S
H859 C839 0.930 . S
H860 C847 0.931 . S
H861 C848 0.929 . S
H862 C856 0.929 . S
H863 C857 0.930 . S
Nd864 C866 2.836 . S
Nd864 O884 2.500 . S
Nd864 O885 2.492 . S
Nd864 O886 2.487 . S
Nd864 O887 2.682 . S
Nd864 O888 2.410 . S
Nd864 O893 2.414 . S
Nd864 O895 2.424 . S
Nd865 C875 2.836 1_545 S
Nd865 O887 2.414 . S
Nd865 O889 2.424 1_455 S
Nd865 O890 2.500 1_545 S
Nd865 O891 2.492 1_545 S
Nd865 O892 2.487 . S
Nd865 O893 2.682 . S
Nd865 O894 2.410 . S
C866 Nd864 2.836 . S
C866 C867 1.498 . S
C866 O884 1.258 . S
C866 O885 1.239 . S
C867 C866 1.498 . S
C867 C868 1.366 . S
C867 C872 1.407 . S
C868 C867 1.366 . S
C868 C869 1.392 . S
C868 H896 0.930 . S
C869 C868 1.392 . S
C869 C870 1.398 . S
C869 H897 0.929 . S
C870 C869 1.398 . S
C870 C871 1.352 . S
C871 C870 1.352 . S
C871 C872 1.384 . S
C871 H898 0.930 . S
C872 C867 1.407 . S
C872 C871 1.384 . S
C872 H899 0.929 . S
C873 O886 1.241 . S
C873 O887 1.273 . S
C874 O888 1.251 1_655 S
C874 O889 1.268 . S
C875 Nd865 2.836 1_565 S
C875 C876 1.498 . S
C875 O890 1.258 . S
C875 O891 1.239 . S
C876 C875 1.498 . S
C876 C877 1.366 . S
C876 C881 1.407 . S
C877 C876 1.366 . S
C877 C878 1.392 . S
C877 H900 0.930 . S
C878 C877 1.392 . S
C878 C879 1.398 . S
C878 H901 0.929 . S
C879 C878 1.398 . S
C879 C880 1.352 . S
C880 C879 1.352 . S
C880 C881 1.384 . S
C880 H902 0.930 . S
C881 C876 1.407 . S
C881 C880 1.384 . S
C881 H903 0.896 1_455 S
C882 O892 1.241 . S
C882 O893 1.273 . S
C883 O894 1.251 . S
C883 O895 1.268 . S
O884 Nd864 2.500 . S
O884 C866 1.258 . S
O885 Nd864 2.492 . S
O885 C866 1.239 . S
O886 Nd864 2.487 . S
O886 C873 1.241 . S
O887 Nd864 2.682 . S
O887 Nd865 2.414 . S
O887 C873 1.273 . S
O888 Nd864 2.410 . S
O888 C874 1.251 1_455 S
O889 Nd865 2.424 1_655 S
O889 C874 1.268 . S
O890 Nd865 2.500 1_565 S
O890 C875 1.258 . S
O891 Nd865 2.492 1_565 S
O891 C875 1.239 . S
O892 Nd865 2.487 . S
O892 C882 1.241 . S
O893 Nd864 2.414 . S
O893 Nd865 2.682 . S
O893 C882 1.273 . S
O894 Nd865 2.410 . S
O894 C883 1.251 . S
O895 Nd864 2.424 . S
O895 C883 1.268 . S
H896 C868 0.930 . S
H897 C869 0.929 . S
H898 C871 0.930 . S
H899 C872 0.929 . S
H900 C877 0.930 . S
H901 C878 0.929 . S
H902 C880 0.930 . S
H903 C881 0.896 1_655 S
Nd904 C906 2.836 . S
Nd904 O924 2.500 . S
Nd904 O925 2.492 . S
Nd904 O926 2.487 . S
Nd904 O927 2.682 . S
Nd904 O928 2.410 . S
Nd904 O933 2.414 . S
Nd904 O935 2.424 . S
Nd905 C915 2.836 . S
Nd905 O927 2.414 . S
Nd905 O929 2.424 . S
Nd905 O930 2.500 . S
Nd905 O931 2.492 . S
Nd905 O932 2.487 . S
Nd905 O933 2.682 . S
Nd905 O934 2.410 . S
C906 Nd904 2.836 . S
C906 C907 1.498 . S
C906 O924 1.258 . S
C906 O925 1.239 . S
C907 C906 1.498 . S
C907 C908 1.366 . S
C907 C912 1.407 . S
C908 C907 1.366 . S
C908 C909 1.392 . S
C908 H936 0.930 . S
C909 C908 1.392 . S
C909 C910 1.398 . S
C909 H937 0.929 . S
C910 C909 1.398 . S
C910 C911 1.352 . S
C911 C910 1.352 . S
C911 C912 1.384 . S
C911 H938 0.930 . S
C912 C907 1.407 . S
C912 C911 1.384 . S
C912 H939 0.929 . S
C913 O926 1.241 . S
C913 O927 1.273 . S
C914 O928 1.251 . S
C914 O929 1.268 . S
C915 Nd905 2.836 . S
C915 C916 1.498 . S
C915 O930 1.258 . S
C915 O931 1.239 . S
C916 C915 1.498 . S
C916 C917 1.366 . S
C916 C921 1.407 . S
C917 C916 1.366 . S
C917 C918 1.392 . S
C917 H940 0.930 . S
C918 C917 1.392 . S
C918 C919 1.398 . S
C918 H941 0.929 . S
C919 C918 1.398 . S
C919 C920 1.352 . S
C920 C919 1.352 . S
C920 C921 1.384 . S
C920 H942 0.930 . S
C921 C916 1.407 . S
C921 C920 1.384 . S
C921 H943 0.929 . S
C922 O932 1.241 . S
C922 O933 1.273 . S
C923 O934 1.251 . S
C923 O935 1.268 . S
O924 Nd904 2.500 . S
O924 C906 1.258 . S
O925 Nd904 2.492 . S
O925 C906 1.239 . S
O926 Nd904 2.487 . S
O926 C913 1.241 . S
O927 Nd904 2.682 . S
O927 Nd905 2.414 . S
O927 C913 1.273 . S
O928 Nd904 2.410 . S
O928 C914 1.251 . S
O929 Nd905 2.424 . S
O929 C914 1.268 . S
O930 Nd905 2.500 . S
O930 C915 1.258 . S
O931 Nd905 2.492 . S
O931 C915 1.239 . S
O932 Nd905 2.487 . S
O932 C922 1.241 . S
O933 Nd904 2.414 . S
O933 Nd905 2.682 . S
O933 C922 1.273 . S
O934 Nd905 2.410 . S
O934 C923 1.251 . S
O935 Nd904 2.424 . S
O935 C923 1.268 . S
H936 C908 0.930 . S
H937 C909 0.929 . S
H938 C911 0.930 . S
H939 C912 0.929 . S
H940 C917 0.930 . S
H941 C918 0.929 . S
H942 C920 0.930 . S
H943 C921 0.929 . S
Nd944 C946 2.836 . S
Nd944 O964 2.500 . S
Nd944 O965 2.492 . S
Nd944 O966 2.487 . S
Nd944 O967 2.682 . S
Nd944 O968 2.410 . S
Nd944 O973 2.414 . S
Nd944 O975 2.424 . S
Nd945 C955 2.836 . S
Nd945 O967 2.414 . S
Nd945 O969 2.424 . S
Nd945 O970 2.500 . S
Nd945 O971 2.492 . S
Nd945 O972 2.487 . S
Nd945 O973 2.682 . S
Nd945 O974 2.410 . S
C946 Nd944 2.836 . S
C946 C947 1.498 . S
C946 O964 1.258 . S
C946 O965 1.239 . S
C947 C946 1.498 . S
C947 C948 1.366 . S
C947 C952 1.407 . S
C948 C947 1.366 . S
C948 C949 1.392 . S
C948 H976 0.930 . S
C949 C948 1.392 . S
C949 C950 1.398 . S
C949 H977 0.929 . S
C950 C949 1.398 . S
C950 C951 1.352 . S
C951 C950 1.352 . S
C951 C952 1.384 . S
C951 H978 0.930 . S
C952 C947 1.407 . S
C952 C951 1.384 . S
C952 H979 0.929 . S
C953 O966 1.241 . S
C953 O967 1.273 . S
C954 O968 1.251 . S
C954 O969 1.268 . S
C955 Nd945 2.836 . S
C955 C956 1.498 . S
C955 O970 1.258 . S
C955 O971 1.239 . S
C956 C955 1.498 . S
C956 C957 1.366 . S
C956 C961 1.407 . S
C957 C956 1.366 . S
C957 C958 1.392 . S
C957 H980 0.930 . S
C958 C957 1.392 . S
C958 C959 1.398 . S
C958 H981 0.929 . S
C959 C958 1.398 . S
C959 C960 1.352 . S
C960 C959 1.352 . S
C960 C961 1.384 . S
C960 H982 0.930 . S
C961 C956 1.407 . S
C961 C960 1.384 . S
C961 H983 0.929 . S
C962 O972 1.241 . S
C962 O973 1.273 . S
C963 O974 1.251 . S
C963 O975 1.268 . S
O964 Nd944 2.500 . S
O964 C946 1.258 . S
O965 Nd944 2.492 . S
O965 C946 1.239 . S
O966 Nd944 2.487 . S
O966 C953 1.241 . S
O967 Nd944 2.682 . S
O967 Nd945 2.414 . S
O967 C953 1.273 . S
O968 Nd944 2.410 . S
O968 C954 1.251 . S
O969 Nd945 2.424 . S
O969 C954 1.268 . S
O970 Nd945 2.500 . S
O970 C955 1.258 . S
O971 Nd945 2.492 . S
O971 C955 1.239 . S
O972 Nd945 2.487 . S
O972 C962 1.241 . S
O973 Nd944 2.414 . S
O973 Nd945 2.682 . S
O973 C962 1.273 . S
O974 Nd945 2.410 . S
O974 C963 1.251 . S
O975 Nd944 2.424 . S
O975 C963 1.268 . S
H976 C948 0.930 . S
H977 C949 0.929 . S
H978 C951 0.930 . S
H979 C952 0.929 . S
H980 C957 0.930 . S
H981 C958 0.929 . S
H982 C960 0.930 . S
H983 C961 0.929 . S
Nd984 C986 2.836 . S
Nd984 O1004 2.500 . S
Nd984 O1005 2.492 . S
Nd984 O1006 2.487 . S
Nd984 O1007 2.682 . S
Nd984 O1008 2.410 . S
Nd984 O1013 2.414 . S
Nd984 O1015 2.424 . S
Nd985 C995 2.836 . S
Nd985 O1007 2.414 . S
Nd985 O1009 2.424 . S
Nd985 O1010 2.500 . S
Nd985 O1011 2.492 . S
Nd985 O1012 2.487 . S
Nd985 O1013 2.682 . S
Nd985 O1014 2.410 . S
C986 Nd984 2.836 . S
C986 C987 1.498 . S
C986 O1004 1.258 . S
C986 O1005 1.239 . S
C987 C986 1.498 . S
C987 C988 1.366 . S
C987 C992 1.407 . S
C988 C987 1.366 . S
C988 C989 1.392 . S
C988 H1016 0.930 . S
C989 C988 1.392 . S
C989 C990 1.398 . S
C989 H1017 0.929 . S
C990 C989 1.398 . S
C990 C991 1.352 . S
C991 C990 1.352 . S
C991 C992 1.384 . S
C991 H1018 0.930 . S
C992 C987 1.407 . S
C992 C991 1.384 . S
C992 H1019 0.929 . S
C993 O1006 1.241 . S
C993 O1007 1.273 . S
C994 O1008 1.251 . S
C994 O1009 1.268 . S
C995 Nd985 2.836 . S
C995 C996 1.498 . S
C995 O1010 1.258 . S
C995 O1011 1.239 . S
C996 C995 1.498 . S
C996 C997 1.366 . S
C996 C1001 1.407 . S
C997 C996 1.366 . S
C997 C998 1.392 . S
C997 H1020 0.930 . S
C998 C997 1.392 . S
C998 C999 1.398 . S
C998 H1021 0.929 . S
C999 C998 1.398 . S
C999 C1000 1.352 . S
C1000 C999 1.352 . S
C1000 C1001 1.384 . S
C1000 H1022 0.930 . S
C1001 C996 1.407 . S
C1001 C1000 1.384 . S
C1001 H1023 0.929 . S
C1002 O1012 1.241 . S
C1002 O1013 1.273 . S
C1003 O1014 1.251 . S
C1003 O1015 1.268 . S
O1004 Nd984 2.500 . S
O1004 C986 1.258 . S
O1005 Nd984 2.492 . S
O1005 C986 1.239 . S
O1006 Nd984 2.487 . S
O1006 C993 1.241 . S
O1007 Nd984 2.682 . S
O1007 Nd985 2.414 . S
O1007 C993 1.273 . S
O1008 Nd984 2.410 . S
O1008 C994 1.251 . S
O1009 Nd985 2.424 . S
O1009 C994 1.268 . S
O1010 Nd985 2.500 . S
O1010 C995 1.258 . S
O1011 Nd985 2.492 . S
O1011 C995 1.239 . S
O1012 Nd985 2.487 . S
O1012 C1002 1.241 . S
O1013 Nd984 2.414 . S
O1013 Nd985 2.682 . S
O1013 C1002 1.273 . S
O1014 Nd985 2.410 . S
O1014 C1003 1.251 . S
O1015 Nd984 2.424 . S
O1015 C1003 1.268 . S
H1016 C988 0.930 . S
H1017 C989 0.929 . S
H1018 C991 0.930 . S
H1019 C992 0.929 . S
H1020 C997 0.930 . S
H1021 C998 0.929 . S
H1022 C1000 0.930 . S
H1023 C1001 0.929 . S
Nd1024 C1026 2.836 . S
Nd1024 O1044 2.500 . S
Nd1024 O1045 2.492 . S
Nd1024 O1046 2.487 . S
Nd1024 O1047 2.682 . S
Nd1024 O1048 2.410 . S
Nd1024 O1053 2.414 . S
Nd1024 O1055 2.424 . S
Nd1025 C1035 2.836 1_545 S
Nd1025 O1047 2.414 . S
Nd1025 O1049 2.424 . S
Nd1025 O1050 2.500 . S
Nd1025 O1051 2.492 1_545 S
Nd1025 O1052 2.487 1_455 S
Nd1025 O1053 2.682 . S
Nd1025 O1054 2.410 . S
C1026 Nd1024 2.836 . S
C1026 C1027 1.498 . S
C1026 O1044 1.258 . S
C1026 O1045 1.239 . S
C1027 C1026 1.498 . S
C1027 C1028 1.366 . S
C1027 C1032 1.407 . S
C1028 C1027 1.366 . S
C1028 C1029 1.392 1_455 S
C1028 H1056 0.930 1_455 S
C1029 C1028 1.392 1_655 S
C1029 C1030 1.398 1_655 S
C1029 H1057 0.929 . S
C1030 C1029 1.398 1_455 S
C1030 C1031 1.352 . S
C1031 C1030 1.352 . S
C1031 C1032 1.384 . S
C1031 H1058 0.930 . S
C1032 C1027 1.407 . S
C1032 C1031 1.384 . S
C1032 H1059 0.929 . S
C1033 O1046 1.241 . S
C1033 O1047 1.273 . S
C1034 O1048 1.251 . S
C1034 O1049 1.268 . S
C1035 Nd1025 2.836 1_565 S
C1035 C1036 1.498 . S
C1035 O1050 1.258 1_565 S
C1035 O1051 1.239 . S
C1036 C1035 1.498 . S
C1036 C1037 1.366 . S
C1036 C1041 1.407 . S
C1037 C1036 1.366 . S
C1037 C1038 1.392 . S
C1037 H1060 0.930 . S
C1038 C1037 1.392 . S
C1038 C1039 1.398 . S
C1038 H1061 0.929 . S
C1039 C1038 1.398 . S
C1039 C1040 1.352 . S
C1040 C1039 1.352 . S
C1040 C1041 1.384 . S
C1040 H1062 0.930 . S
C1041 C1036 1.407 . S
C1041 C1040 1.384 . S
C1041 H1063 0.929 . S
C1042 O1052 1.241 . S
C1042 O1053 1.273 1_655 S
C1043 O1054 1.251 . S
C1043 O1055 1.268 . S
O1044 Nd1024 2.500 . S
O1044 C1026 1.258 . S
O1045 Nd1024 2.492 . S
O1045 C1026 1.239 . S
O1046 Nd1024 2.487 . S
O1046 C1033 1.241 . S
O1047 Nd1024 2.682 . S
O1047 Nd1025 2.414 . S
O1047 C1033 1.273 . S
O1048 Nd1024 2.410 . S
O1048 C1034 1.251 . S
O1049 Nd1025 2.424 . S
O1049 C1034 1.268 . S
O1050 Nd1025 2.500 . S
O1050 C1035 1.258 1_545 S
O1051 Nd1025 2.492 1_565 S
O1051 C1035 1.239 . S
O1052 Nd1025 2.487 1_655 S
O1052 C1042 1.241 . S
O1053 Nd1024 2.414 . S
O1053 Nd1025 2.682 . S
O1053 C1042 1.273 1_455 S
O1054 Nd1025 2.410 . S
O1054 C1043 1.251 . S
O1055 Nd1024 2.424 . S
O1055 C1043 1.268 . S
H1056 C1028 0.930 1_655 S
H1057 C1029 0.929 . S
H1058 C1031 0.930 . S
H1059 C1032 0.929 . S
H1060 C1037 0.930 . S
H1061 C1038 0.929 . S
H1062 C1040 0.930 . S
H1063 C1041 0.929 . S
Nd1064 C1066 2.836 . S
Nd1064 O1084 2.500 . S
Nd1064 O1085 2.492 . S
Nd1064 O1086 2.487 . S
Nd1064 O1087 2.682 . S
Nd1064 O1088 2.410 . S
Nd1064 O1093 2.414 . S
Nd1064 O1095 2.424 . S
Nd1065 C1075 2.836 . S
Nd1065 O1087 2.414 . S
Nd1065 O1089 2.424 . S
Nd1065 O1090 2.500 . S
Nd1065 O1091 2.492 . S
Nd1065 O1092 2.487 . S
Nd1065 O1093 2.682 . S
Nd1065 O1094 2.410 . S
C1066 Nd1064 2.836 . S
C1066 C1067 1.498 . S
C1066 O1084 1.258 . S
C1066 O1085 1.239 . S
C1067 C1066 1.498 . S
C1067 C1068 1.366 . S
C1067 C1072 1.407 . S
C1068 C1067 1.366 . S
C1068 C1069 1.392 . S
C1068 H1096 0.930 . S
C1069 C1068 1.392 . S
C1069 C1070 1.398 . S
C1069 H1097 0.929 . S
C1070 C1069 1.398 . S
C1070 C1071 1.352 . S
C1071 C1070 1.352 . S
C1071 C1072 1.384 . S
C1071 H1098 0.930 . S
C1072 C1067 1.407 . S
C1072 C1071 1.384 . S
C1072 H1099 0.929 . S
C1073 O1086 1.241 . S
C1073 O1087 1.273 . S
C1074 O1088 1.251 . S
C1074 O1089 1.268 . S
C1075 Nd1065 2.836 . S
C1075 C1076 1.498 . S
C1075 O1090 1.258 . S
C1075 O1091 1.239 . S
C1076 C1075 1.498 . S
C1076 C1077 1.366 . S
C1076 C1081 1.407 . S
C1077 C1076 1.366 . S
C1077 C1078 1.392 . S
C1077 H1100 0.930 . S
C1078 C1077 1.392 . S
C1078 C1079 1.398 . S
C1078 H1101 0.929 . S
C1079 C1078 1.398 . S
C1079 C1080 1.352 . S
C1080 C1079 1.352 . S
C1080 C1081 1.384 . S
C1080 H1102 0.930 . S
C1081 C1076 1.407 . S
C1081 C1080 1.384 . S
C1081 H1103 0.929 . S
C1082 O1092 1.241 . S
C1082 O1093 1.273 . S
C1083 O1094 1.251 . S
C1083 O1095 1.268 . S
O1084 Nd1064 2.500 . S
O1084 C1066 1.258 . S
O1085 Nd1064 2.492 . S
O1085 C1066 1.239 . S
O1086 Nd1064 2.487 . S
O1086 C1073 1.241 . S
O1087 Nd1064 2.682 . S
O1087 Nd1065 2.414 . S
O1087 C1073 1.273 . S
O1088 Nd1064 2.410 . S
O1088 C1074 1.251 . S
O1089 Nd1065 2.424 . S
O1089 C1074 1.268 . S
O1090 Nd1065 2.500 . S
O1090 C1075 1.258 . S
O1091 Nd1065 2.492 . S
O1091 C1075 1.239 . S
O1092 Nd1065 2.487 . S
O1092 C1082 1.241 . S
O1093 Nd1064 2.414 . S
O1093 Nd1065 2.682 . S
O1093 C1082 1.273 . S
O1094 Nd1065 2.410 . S
O1094 C1083 1.251 . S
O1095 Nd1064 2.424 . S
O1095 C1083 1.268 . S
H1096 C1068 0.930 . S
H1097 C1069 0.929 . S
H1098 C1071 0.930 . S
H1099 C1072 0.929 . S
H1100 C1077 0.930 . S
H1101 C1078 0.929 . S
H1102 C1080 0.930 . S
H1103 C1081 0.929 . S
Nd1104 C1106 2.836 . S
Nd1104 O1124 2.500 . S
Nd1104 O1125 2.492 . S
Nd1104 O1126 2.487 . S
Nd1104 O1127 2.682 . S
Nd1104 O1128 2.410 . S
Nd1104 O1133 2.414 . S
Nd1104 O1135 2.424 . S
Nd1105 C1115 2.836 . S
Nd1105 O1127 2.414 . S
Nd1105 O1129 2.424 . S
Nd1105 O1130 2.500 . S
Nd1105 O1131 2.492 . S
Nd1105 O1132 2.487 . S
Nd1105 O1133 2.682 . S
Nd1105 O1134 2.410 . S
C1106 Nd1104 2.836 . S
C1106 C1107 1.498 . S
C1106 O1124 1.258 . S
C1106 O1125 1.239 . S
C1107 C1106 1.498 . S
C1107 C1108 1.366 . S
C1107 C1112 1.407 . S
C1108 C1107 1.366 . S
C1108 C1109 1.392 . S
C1108 H1136 0.930 . S
C1109 C1108 1.392 . S
C1109 C1110 1.398 . S
C1109 H1137 0.929 . S
C1110 C1109 1.398 . S
C1110 C1111 1.352 . S
C1111 C1110 1.352 . S
C1111 C1112 1.384 . S
C1111 H1138 0.930 1_545 S
C1112 C1107 1.407 . S
C1112 C1111 1.384 . S
C1112 H1139 0.929 1_545 S
C1113 O1126 1.241 . S
C1113 O1127 1.273 . S
C1114 O1128 1.251 . S
C1114 O1129 1.268 . S
C1115 Nd1105 2.836 . S
C1115 C1116 1.498 . S
C1115 O1130 1.258 . S
C1115 O1131 1.239 . S
C1116 C1115 1.498 . S
C1116 C1117 1.366 . S
C1116 C1121 1.407 . S
C1117 C1116 1.366 . S
C1117 C1118 1.392 . S
C1117 H1140 0.930 . S
C1118 C1117 1.392 . S
C1118 C1119 1.398 . S
C1118 H1141 0.929 . S
C1119 C1118 1.398 . S
C1119 C1120 1.352 . S
C1120 C1119 1.352 . S
C1120 C1121 1.384 . S
C1120 H1142 0.930 . S
C1121 C1116 1.407 . S
C1121 C1120 1.384 . S
C1121 H1143 0.929 . S
C1122 O1132 1.241 . S
C1122 O1133 1.273 . S
C1123 O1134 1.251 . S
C1123 O1135 1.268 . S
O1124 Nd1104 2.500 . S
O1124 C1106 1.258 . S
O1125 Nd1104 2.492 . S
O1125 C1106 1.239 . S
O1126 Nd1104 2.487 . S
O1126 C1113 1.241 . S
O1127 Nd1104 2.682 . S
O1127 Nd1105 2.414 . S
O1127 C1113 1.273 . S
O1128 Nd1104 2.410 . S
O1128 C1114 1.251 . S
O1129 Nd1105 2.424 . S
O1129 C1114 1.268 . S
O1130 Nd1105 2.500 . S
O1130 C1115 1.258 . S
O1131 Nd1105 2.492 . S
O1131 C1115 1.239 . S
O1132 Nd1105 2.487 . S
O1132 C1122 1.241 . S
O1133 Nd1104 2.414 . S
O1133 Nd1105 2.682 . S
O1133 C1122 1.273 . S
O1134 Nd1105 2.410 . S
O1134 C1123 1.251 . S
O1135 Nd1104 2.424 . S
O1135 C1123 1.268 . S
H1136 C1108 0.930 . S
H1137 C1109 0.929 . S
H1138 C1111 0.930 1_565 S
H1139 C1112 0.929 1_565 S
H1140 C1117 0.930 . S
H1141 C1118 0.929 . S
H1142 C1120 0.930 . S
H1143 C1121 0.929 . S
Nd1144 C1146 2.836 . S
Nd1144 O1164 2.500 . S
Nd1144 O1165 2.492 . S
Nd1144 O1166 2.487 . S
Nd1144 O1167 2.682 . S
Nd1144 O1168 2.410 . S
Nd1144 O1173 2.414 . S
Nd1144 O1175 2.424 . S
Nd1145 C1155 2.836 . S
Nd1145 O1167 2.414 . S
Nd1145 O1169 2.424 . S
Nd1145 O1170 2.500 . S
Nd1145 O1171 2.492 . S
Nd1145 O1172 2.487 . S
Nd1145 O1173 2.682 . S
Nd1145 O1174 2.410 . S
C1146 Nd1144 2.836 . S
C1146 C1147 1.498 . S
C1146 O1164 1.258 . S
C1146 O1165 1.239 . S
C1147 C1146 1.498 . S
C1147 C1148 1.366 . S
C1147 C1152 1.407 . S
C1148 C1147 1.366 . S
C1148 C1149 1.392 . S
C1148 H1176 0.930 . S
C1149 C1148 1.392 . S
C1149 C1150 1.398 . S
C1149 H1177 0.929 . S
C1150 C1149 1.398 . S
C1150 C1151 1.352 . S
C1151 C1150 1.352 . S
C1151 C1152 1.384 . S
C1151 H1178 0.930 . S
C1152 C1147 1.407 . S
C1152 C1151 1.384 . S
C1152 H1179 0.929 . S
C1153 O1166 1.241 . S
C1153 O1167 1.273 . S
C1154 O1168 1.251 . S
C1154 O1169 1.268 . S
C1155 Nd1145 2.836 . S
C1155 C1156 1.498 . S
C1155 O1170 1.258 . S
C1155 O1171 1.239 . S
C1156 C1155 1.498 . S
C1156 C1157 1.366 . S
C1156 C1161 1.407 . S
C1157 C1156 1.366 . S
C1157 C1158 1.392 . S
C1157 H1180 0.930 . S
C1158 C1157 1.392 . S
C1158 C1159 1.398 . S
C1158 H1181 0.929 . S
C1159 C1158 1.398 . S
C1159 C1160 1.352 . S
C1160 C1159 1.352 . S
C1160 C1161 1.384 . S
C1160 H1182 0.930 . S
C1161 C1156 1.407 . S
C1161 C1160 1.384 . S
C1161 H1183 0.929 . S
C1162 O1172 1.241 . S
C1162 O1173 1.273 . S
C1163 O1174 1.251 . S
C1163 O1175 1.268 . S
O1164 Nd1144 2.500 . S
O1164 C1146 1.258 . S
O1165 Nd1144 2.492 . S
O1165 C1146 1.239 . S
O1166 Nd1144 2.487 . S
O1166 C1153 1.241 . S
O1167 Nd1144 2.682 . S
O1167 Nd1145 2.414 . S
O1167 C1153 1.273 . S
O1168 Nd1144 2.410 . S
O1168 C1154 1.251 . S
O1169 Nd1145 2.424 . S
O1169 C1154 1.268 . S
O1170 Nd1145 2.500 . S
O1170 C1155 1.258 . S
O1171 Nd1145 2.492 . S
O1171 C1155 1.239 . S
O1172 Nd1145 2.487 . S
O1172 C1162 1.241 . S
O1173 Nd1144 2.414 . S
O1173 Nd1145 2.682 . S
O1173 C1162 1.273 . S
O1174 Nd1145 2.410 . S
O1174 C1163 1.251 . S
O1175 Nd1144 2.424 . S
O1175 C1163 1.268 . S
H1176 C1148 0.930 . S
H1177 C1149 0.929 . S
H1178 C1151 0.930 . S
H1179 C1152 0.929 . S
H1180 C1157 0.930 . S
H1181 C1158 0.929 . S
H1182 C1160 0.930 . S
H1183 C1161 0.929 . S
Nd1184 C1186 2.836 . S
Nd1184 O1204 2.500 . S
Nd1184 O1205 2.492 . S
Nd1184 O1206 2.487 . S
Nd1184 O1207 2.682 . S
Nd1184 O1208 2.410 . S
Nd1184 O1213 2.414 . S
Nd1184 O1215 2.424 . S
Nd1185 C1195 2.836 . S
Nd1185 O1207 2.414 . S
Nd1185 O1209 2.424 . S
Nd1185 O1210 2.500 . S
Nd1185 O1211 2.492 . S
Nd1185 O1212 2.487 . S
Nd1185 O1213 2.682 . S
Nd1185 O1214 2.410 . S
C1186 Nd1184 2.836 . S
C1186 C1187 1.498 . S
C1186 O1204 1.258 . S
C1186 O1205 1.239 . S
C1187 C1186 1.498 . S
C1187 C1188 1.366 . S
C1187 C1192 1.407 . S
C1188 C1187 1.366 . S
C1188 C1189 1.392 . S
C1188 H1216 0.930 . S
C1189 C1188 1.392 . S
C1189 C1190 1.398 . S
C1189 H1217 0.929 . S
C1190 C1189 1.398 . S
C1190 C1191 1.352 . S
C1191 C1190 1.352 . S
C1191 C1192 1.384 . S
C1191 H1218 0.930 . S
C1192 C1187 1.407 . S
C1192 C1191 1.384 . S
C1192 H1219 0.929 . S
C1193 O1206 1.241 . S
C1193 O1207 1.273 . S
C1194 O1208 1.251 . S
C1194 O1209 1.268 . S
C1195 Nd1185 2.836 . S
C1195 C1196 1.498 . S
C1195 O1210 1.258 . S
C1195 O1211 1.239 . S
C1196 C1195 1.498 . S
C1196 C1197 1.366 . S
C1196 C1201 1.407 . S
C1197 C1196 1.366 . S
C1197 C1198 1.392 . S
C1197 H1220 0.930 . S
C1198 C1197 1.392 . S
C1198 C1199 1.398 . S
C1198 H1221 0.929 . S
C1199 C1198 1.398 . S
C1199 C1200 1.352 . S
C1200 C1199 1.352 . S
C1200 C1201 1.384 . S
C1200 H1222 0.930 . S
C1201 C1196 1.407 . S
C1201 C1200 1.384 . S
C1201 H1223 0.929 . S
C1202 O1212 1.241 . S
C1202 O1213 1.273 . S
C1203 O1214 1.251 . S
C1203 O1215 1.268 . S
O1204 Nd1184 2.500 . S
O1204 C1186 1.258 . S
O1205 Nd1184 2.492 . S
O1205 C1186 1.239 . S
O1206 Nd1184 2.487 . S
O1206 C1193 1.241 . S
O1207 Nd1184 2.682 . S
O1207 Nd1185 2.414 . S
O1207 C1193 1.273 . S
O1208 Nd1184 2.410 . S
O1208 C1194 1.251 . S
O1209 Nd1185 2.424 . S
O1209 C1194 1.268 . S
O1210 Nd1185 2.500 . S
O1210 C1195 1.258 . S
O1211 Nd1185 2.492 . S
O1211 C1195 1.239 . S
O1212 Nd1185 2.487 . S
O1212 C1202 1.241 . S
O1213 Nd1184 2.414 . S
O1213 Nd1185 2.682 . S
O1213 C1202 1.273 . S
O1214 Nd1185 2.410 . S
O1214 C1203 1.251 . S
O1215 Nd1184 2.424 . S
O1215 C1203 1.268 . S
H1216 C1188 0.930 . S
H1217 C1189 0.929 . S
H1218 C1191 0.930 . S
H1219 C1192 0.929 . S
H1220 C1197 0.930 . S
H1221 C1198 0.929 . S
H1222 C1200 0.930 . S
H1223 C1201 0.929 . S
Nd1224 C1226 2.836 . S
Nd1224 O1244 2.500 . S
Nd1224 O1245 2.492 . S
Nd1224 O1246 2.487 . S
Nd1224 O1247 2.682 . S
Nd1224 O1248 2.410 . S
Nd1224 O1253 2.414 . S
Nd1224 O1255 2.424 . S
Nd1225 C1235 2.836 . S
Nd1225 O1247 2.414 . S
Nd1225 O1249 2.424 . S
Nd1225 O1250 2.500 . S
Nd1225 O1251 2.492 . S
Nd1225 O1252 2.487 . S
Nd1225 O1253 2.682 . S
Nd1225 O1254 2.410 . S
C1226 Nd1224 2.836 . S
C1226 C1227 1.498 . S
C1226 O1244 1.258 . S
C1226 O1245 1.239 . S
C1227 C1226 1.498 . S
C1227 C1228 1.366 . S
C1227 C1232 1.407 . S
C1228 C1227 1.366 . S
C1228 C1229 1.392 . S
C1228 H1256 0.930 . S
C1229 C1228 1.392 . S
C1229 C1230 1.398 . S
C1229 H1257 0.929 . S
C1230 C1229 1.398 . S
C1230 C1231 1.352 . S
C1231 C1230 1.352 . S
C1231 C1232 1.384 . S
C1231 H1258 0.930 . S
C1232 C1227 1.407 . S
C1232 C1231 1.384 . S
C1232 H1259 0.929 . S
C1233 O1246 1.241 . S
C1233 O1247 1.273 . S
C1234 O1248 1.251 . S
C1234 O1249 1.268 . S
C1235 Nd1225 2.836 . S
C1235 C1236 1.498 . S
C1235 O1250 1.258 . S
C1235 O1251 1.239 . S
C1236 C1235 1.498 . S
C1236 C1237 1.366 . S
C1236 C1241 1.407 . S
C1237 C1236 1.366 . S
C1237 C1238 1.392 . S
C1237 H1260 0.930 . S
C1238 C1237 1.392 . S
C1238 C1239 1.398 . S
C1238 H1261 0.929 . S
C1239 C1238 1.398 . S
C1239 C1240 1.352 . S
C1240 C1239 1.352 . S
C1240 C1241 1.384 . S
C1240 H1262 0.930 . S
C1241 C1236 1.407 . S
C1241 C1240 1.384 . S
C1241 H1263 0.929 . S
C1242 O1252 1.241 . S
C1242 O1253 1.273 . S
C1243 O1254 1.251 . S
C1243 O1255 1.268 . S
O1244 Nd1224 2.500 . S
O1244 C1226 1.258 . S
O1245 Nd1224 2.492 . S
O1245 C1226 1.239 . S
O1246 Nd1224 2.487 . S
O1246 C1233 1.241 . S
O1247 Nd1224 2.682 . S
O1247 Nd1225 2.414 . S
O1247 C1233 1.273 . S
O1248 Nd1224 2.410 . S
O1248 C1234 1.251 . S
O1249 Nd1225 2.424 . S
O1249 C1234 1.268 . S
O1250 Nd1225 2.500 . S
O1250 C1235 1.258 . S
O1251 Nd1225 2.492 . S
O1251 C1235 1.239 . S
O1252 Nd1225 2.487 . S
O1252 C1242 1.241 . S
O1253 Nd1224 2.414 . S
O1253 Nd1225 2.682 . S
O1253 C1242 1.273 . S
O1254 Nd1225 2.410 . S
O1254 C1243 1.251 . S
O1255 Nd1224 2.424 . S
O1255 C1243 1.268 . S
H1256 C1228 0.930 . S
H1257 C1229 0.929 . S
H1258 C1231 0.930 . S
H1259 C1232 0.929 . S
H1260 C1237 0.930 . S
H1261 C1238 0.929 . S
H1262 C1240 0.930 . S
H1263 C1241 0.929 . S
Nd1264 C1266 2.836 1_455 S
Nd1264 O1284 2.500 1_455 S
Nd1264 O1285 2.492 1_455 S
Nd1264 O1286 2.487 . S
Nd1264 O1287 2.682 . S
Nd1264 O1288 2.410 . S
Nd1264 O1293 2.414 . S
Nd1264 O1295 2.424 . S
Nd1265 C1275 2.836 . S
Nd1265 O1287 2.414 . S
Nd1265 O1289 2.424 . S
Nd1265 O1290 2.500 . S
Nd1265 O1291 2.492 . S
Nd1265 O1292 2.487 . S
Nd1265 O1293 2.682 . S
Nd1265 O1294 2.410 . S
C1266 Nd1264 2.836 1_655 S
C1266 C1267 1.498 . S
C1266 O1284 1.258 . S
C1266 O1285 1.239 . S
C1267 C1266 1.498 . S
C1267 C1268 1.366 . S
C1267 C1272 1.407 . S
C1268 C1267 1.366 . S
C1268 C1269 1.392 . S
C1268 H1296 0.930 . S
C1269 C1268 1.392 . S
C1269 C1270 1.398 . S
C1269 H1297 0.929 . S
C1270 C1269 1.398 . S
C1270 C1271 1.352 . S
C1271 C1270 1.352 . S
C1271 C1272 1.384 . S
C1271 H1298 0.930 . S
C1272 C1267 1.407 . S
C1272 C1271 1.384 . S
C1272 H1299 0.929 . S
C1273 O1286 1.241 . S
C1273 O1287 1.273 . S
C1274 O1288 1.251 . S
C1274 O1289 1.268 . S
C1275 Nd1265 2.836 . S
C1275 C1276 1.498 . S
C1275 O1290 1.258 . S
C1275 O1291 1.239 . S
C1276 C1275 1.498 . S
C1276 C1277 1.366 . S
C1276 C1281 1.407 . S
C1277 C1276 1.366 . S
C1277 C1278 1.392 . S
C1277 H1300 0.930 . S
C1278 C1277 1.392 . S
C1278 C1279 1.398 . S
C1278 H1301 0.929 . S
C1279 C1278 1.398 . S
C1279 C1280 1.352 . S
C1280 C1279 1.352 . S
C1280 C1281 1.384 . S
C1280 H1302 0.930 . S
C1281 C1276 1.407 . S
C1281 C1280 1.384 . S
C1281 H1303 0.929 . S
C1282 O1292 1.241 . S
C1282 O1293 1.273 . S
C1283 O1294 1.251 . S
C1283 O1295 1.268 . S
O1284 Nd1264 2.500 1_655 S
O1284 C1266 1.258 . S
O1285 Nd1264 2.492 1_655 S
O1285 C1266 1.239 . S
O1286 Nd1264 2.487 . S
O1286 C1273 1.241 . S
O1287 Nd1264 2.682 . S
O1287 Nd1265 2.414 . S
O1287 C1273 1.273 . S
O1288 Nd1264 2.410 . S
O1288 C1274 1.251 . S
O1289 Nd1265 2.424 . S
O1289 C1274 1.268 . S
O1290 Nd1265 2.500 . S
O1290 C1275 1.258 . S
O1291 Nd1265 2.492 . S
O1291 C1275 1.239 . S
O1292 Nd1265 2.487 . S
O1292 C1282 1.241 . S
O1293 Nd1264 2.414 . S
O1293 Nd1265 2.682 . S
O1293 C1282 1.273 . S
O1294 Nd1265 2.410 . S
O1294 C1283 1.251 . S
O1295 Nd1264 2.424 . S
O1295 C1283 1.268 . S
H1296 C1268 0.930 . S
H1297 C1269 0.929 . S
H1298 C1271 0.930 . S
H1299 C1272 0.929 . S
H1300 C1277 0.930 . S
H1301 C1278 0.929 . S
H1302 C1280 0.930 . S
H1303 C1281 0.929 . S
Nd1304 C1306 2.836 . S
Nd1304 O1324 2.500 . S
Nd1304 O1325 2.492 . S
Nd1304 O1326 2.487 . S
Nd1304 O1327 2.682 . S
Nd1304 O1328 2.410 . S
Nd1304 O1333 2.414 . S
Nd1304 O1335 2.424 . S
Nd1305 C1315 2.836 . S
Nd1305 O1327 2.414 . S
Nd1305 O1329 2.424 . S
Nd1305 O1330 2.500 . S
Nd1305 O1331 2.492 . S
Nd1305 O1332 2.487 . S
Nd1305 O1333 2.682 . S
Nd1305 O1334 2.410 . S
C1306 Nd1304 2.836 . S
C1306 C1307 1.498 . S
C1306 O1324 1.258 . S
C1306 O1325 1.239 . S
C1307 C1306 1.498 . S
C1307 C1308 1.366 . S
C1307 C1312 1.407 . S
C1308 C1307 1.366 . S
C1308 C1309 1.392 . S
C1308 H1336 0.930 . S
C1309 C1308 1.392 . S
C1309 C1310 1.398 . S
C1309 H1337 0.929 . S
C1310 C1309 1.398 . S
C1310 C1311 1.352 . S
C1311 C1310 1.352 . S
C1311 C1312 1.384 . S
C1311 H1338 0.930 . S
C1312 C1307 1.407 . S
C1312 C1311 1.384 . S
C1312 H1339 0.929 . S
C1313 O1326 1.241 . S
C1313 O1327 1.273 . S
C1314 O1328 1.251 . S
C1314 O1329 1.268 . S
C1315 Nd1305 2.836 . S
C1315 C1316 1.498 . S
C1315 O1330 1.258 . S
C1315 O1331 1.239 . S
C1316 C1315 1.498 . S
C1316 C1317 1.366 . S
C1316 C1321 1.407 . S
C1317 C1316 1.366 . S
C1317 C1318 1.392 . S
C1317 H1340 0.930 . S
C1318 C1317 1.392 . S
C1318 C1319 1.398 . S
C1318 H1341 0.929 . S
C1319 C1318 1.398 . S
C1319 C1320 1.352 . S
C1320 C1319 1.352 . S
C1320 C1321 1.384 . S
C1320 H1342 0.930 . S
C1321 C1316 1.407 . S
C1321 C1320 1.384 . S
C1321 H1343 0.929 . S
C1322 O1332 1.241 . S
C1322 O1333 1.273 . S
C1323 O1334 1.251 . S
C1323 O1335 1.268 . S
O1324 Nd1304 2.500 . S
O1324 C1306 1.258 . S
O1325 Nd1304 2.492 . S
O1325 C1306 1.239 . S
O1326 Nd1304 2.487 . S
O1326 C1313 1.241 . S
O1327 Nd1304 2.682 . S
O1327 Nd1305 2.414 . S
O1327 C1313 1.273 . S
O1328 Nd1304 2.410 . S
O1328 C1314 1.251 . S
O1329 Nd1305 2.424 . S
O1329 C1314 1.268 . S
O1330 Nd1305 2.500 . S
O1330 C1315 1.258 . S
O1331 Nd1305 2.492 . S
O1331 C1315 1.239 . S
O1332 Nd1305 2.487 . S
O1332 C1322 1.241 . S
O1333 Nd1304 2.414 . S
O1333 Nd1305 2.682 . S
O1333 C1322 1.273 . S
O1334 Nd1305 2.410 . S
O1334 C1323 1.251 . S
O1335 Nd1304 2.424 . S
O1335 C1323 1.268 . S
H1336 C1308 0.930 . S
H1337 C1309 0.929 . S
H1338 C1311 0.930 . S
H1339 C1312 0.929 . S
H1340 C1317 0.930 . S
H1341 C1318 0.929 . S
H1342 C1320 0.930 . S
H1343 C1321 0.929 . S
Nd1344 C1346 2.836 . S
Nd1344 O1364 2.500 . S
Nd1344 O1365 2.492 . S
Nd1344 O1366 2.487 . S
Nd1344 O1367 2.682 . S
Nd1344 O1368 2.410 . S
Nd1344 O1373 2.414 . S
Nd1344 O1375 2.424 . S
Nd1345 C1355 2.836 . S
Nd1345 O1367 2.414 . S
Nd1345 O1369 2.424 . S
Nd1345 O1370 2.500 . S
Nd1345 O1371 2.492 . S
Nd1345 O1372 2.487 . S
Nd1345 O1373 2.682 . S
Nd1345 O1374 2.410 . S
C1346 Nd1344 2.836 . S
C1346 C1347 1.498 . S
C1346 O1364 1.258 . S
C1346 O1365 1.239 . S
C1347 C1346 1.498 . S
C1347 C1348 1.366 . S
C1347 C1352 1.407 . S
C1348 C1347 1.366 . S
C1348 C1349 1.392 . S
C1348 H1376 0.930 . S
C1349 C1348 1.392 . S
C1349 C1350 1.398 . S
C1349 H1377 0.929 . S
C1350 C1349 1.398 . S
C1350 C1351 1.352 . S
C1351 C1350 1.352 . S
C1351 C1352 1.384 . S
C1351 H1378 0.930 . S
C1352 C1347 1.407 . S
C1352 C1351 1.384 . S
C1352 H1379 0.929 . S
C1353 O1366 1.241 . S
C1353 O1367 1.273 . S
C1354 O1368 1.251 . S
C1354 O1369 1.268 . S
C1355 Nd1345 2.836 . S
C1355 C1356 1.498 . S
C1355 O1370 1.258 . S
C1355 O1371 1.239 . S
C1356 C1355 1.498 . S
C1356 C1357 1.366 . S
C1356 C1361 1.407 . S
C1357 C1356 1.366 . S
C1357 C1358 1.392 . S
C1357 H1380 0.930 . S
C1358 C1357 1.392 . S
C1358 C1359 1.398 . S
C1358 H1381 0.929 . S
C1359 C1358 1.398 . S
C1359 C1360 1.352 . S
C1360 C1359 1.352 . S
C1360 C1361 1.384 . S
C1360 H1382 0.930 . S
C1361 C1356 1.407 . S
C1361 C1360 1.384 . S
C1361 H1383 0.929 . S
C1362 O1372 1.241 . S
C1362 O1373 1.273 . S
C1363 O1374 1.251 . S
C1363 O1375 1.268 . S
O1364 Nd1344 2.500 . S
O1364 C1346 1.258 . S
O1365 Nd1344 2.492 . S
O1365 C1346 1.239 . S
O1366 Nd1344 2.487 . S
O1366 C1353 1.241 . S
O1367 Nd1344 2.682 . S
O1367 Nd1345 2.414 . S
O1367 C1353 1.273 . S
O1368 Nd1344 2.410 . S
O1368 C1354 1.251 . S
O1369 Nd1345 2.424 . S
O1369 C1354 1.268 . S
O1370 Nd1345 2.500 . S
O1370 C1355 1.258 . S
O1371 Nd1345 2.492 . S
O1371 C1355 1.239 . S
O1372 Nd1345 2.487 . S
O1372 C1362 1.241 . S
O1373 Nd1344 2.414 . S
O1373 Nd1345 2.682 . S
O1373 C1362 1.273 . S
O1374 Nd1345 2.410 . S
O1374 C1363 1.251 . S
O1375 Nd1344 2.424 . S
O1375 C1363 1.268 . S
H1376 C1348 0.930 . S
H1377 C1349 0.929 . S
H1378 C1351 0.930 . S
H1379 C1352 0.929 . S
H1380 C1357 0.930 . S
H1381 C1358 0.929 . S
H1382 C1360 0.930 . S
H1383 C1361 0.929 . S
Nd1384 C1386 2.836 . S
Nd1384 O1404 2.500 . S
Nd1384 O1405 2.492 . S
Nd1384 O1406 2.487 . S
Nd1384 O1407 2.682 . S
Nd1384 O1408 2.410 . S
Nd1384 O1413 2.414 . S
Nd1384 O1415 2.424 . S
Nd1385 C1395 2.836 . S
Nd1385 O1407 2.414 . S
Nd1385 O1409 2.424 . S
Nd1385 O1410 2.500 . S
Nd1385 O1411 2.492 . S
Nd1385 O1412 2.487 . S
Nd1385 O1413 2.682 . S
Nd1385 O1414 2.410 . S
C1386 Nd1384 2.836 . S
C1386 C1387 1.498 . S
C1386 O1404 1.258 . S
C1386 O1405 1.239 . S
C1387 C1386 1.498 . S
C1387 C1388 1.366 . S
C1387 C1392 1.407 . S
C1388 C1387 1.366 . S
C1388 C1389 1.392 . S
C1388 H1416 0.930 . S
C1389 C1388 1.392 . S
C1389 C1390 1.398 . S
C1389 H1417 0.929 . S
C1390 C1389 1.398 . S
C1390 C1391 1.352 . S
C1391 C1390 1.352 . S
C1391 C1392 1.384 . S
C1391 H1418 0.930 . S
C1392 C1387 1.407 . S
C1392 C1391 1.384 . S
C1392 H1419 0.929 . S
C1393 O1406 1.241 . S
C1393 O1407 1.273 . S
C1394 O1408 1.251 . S
C1394 O1409 1.268 . S
C1395 Nd1385 2.836 . S
C1395 C1396 1.498 . S
C1395 O1410 1.258 . S
C1395 O1411 1.239 . S
C1396 C1395 1.498 . S
C1396 C1397 1.366 . S
C1396 C1401 1.407 . S
C1397 C1396 1.366 . S
C1397 C1398 1.392 . S
C1397 H1420 0.930 . S
C1398 C1397 1.392 . S
C1398 C1399 1.398 . S
C1398 H1421 0.929 . S
C1399 C1398 1.398 . S
C1399 C1400 1.352 . S
C1400 C1399 1.352 . S
C1400 C1401 1.384 . S
C1400 H1422 0.930 . S
C1401 C1396 1.407 . S
C1401 C1400 1.384 . S
C1401 H1423 0.929 . S
C1402 O1412 1.241 . S
C1402 O1413 1.273 . S
C1403 O1414 1.251 . S
C1403 O1415 1.268 . S
O1404 Nd1384 2.500 . S
O1404 C1386 1.258 . S
O1405 Nd1384 2.492 . S
O1405 C1386 1.239 . S
O1406 Nd1384 2.487 . S
O1406 C1393 1.241 . S
O1407 Nd1384 2.682 . S
O1407 Nd1385 2.414 . S
O1407 C1393 1.273 . S
O1408 Nd1384 2.410 . S
O1408 C1394 1.251 . S
O1409 Nd1385 2.424 . S
O1409 C1394 1.268 . S
O1410 Nd1385 2.500 . S
O1410 C1395 1.258 . S
O1411 Nd1385 2.492 . S
O1411 C1395 1.239 . S
O1412 Nd1385 2.487 . S
O1412 C1402 1.241 . S
O1413 Nd1384 2.414 . S
O1413 Nd1385 2.682 . S
O1413 C1402 1.273 . S
O1414 Nd1385 2.410 . S
O1414 C1403 1.251 . S
O1415 Nd1384 2.424 . S
O1415 C1403 1.268 . S
H1416 C1388 0.930 . S
H1417 C1389 0.929 . S
H1418 C1391 0.930 . S
H1419 C1392 0.929 . S
H1420 C1397 0.930 . S
H1421 C1398 0.929 . S
H1422 C1400 0.930 . S
H1423 C1401 0.929 . S
Nd1424 C1426 2.836 . S
Nd1424 O1444 2.500 . S
Nd1424 O1445 2.492 . S
Nd1424 O1446 2.487 . S
Nd1424 O1447 2.682 . S
Nd1424 O1448 2.410 . S
Nd1424 O1453 2.414 . S
Nd1424 O1455 2.424 . S
Nd1425 C1435 2.836 . S
Nd1425 O1447 2.414 . S
Nd1425 O1449 2.424 . S
Nd1425 O1450 2.500 . S
Nd1425 O1451 2.492 . S
Nd1425 O1452 2.487 . S
Nd1425 O1453 2.682 . S
Nd1425 O1454 2.410 . S
C1426 Nd1424 2.836 . S
C1426 C1427 1.498 . S
C1426 O1444 1.258 . S
C1426 O1445 1.239 . S
C1427 C1426 1.498 . S
C1427 C1428 1.366 . S
C1427 C1432 1.407 . S
C1428 C1427 1.366 . S
C1428 C1429 1.392 . S
C1428 H1456 0.930 . S
C1429 C1428 1.392 . S
C1429 C1430 1.398 . S
C1429 H1457 0.929 . S
C1430 C1429 1.398 . S
C1430 C1431 1.352 . S
C1431 C1430 1.352 . S
C1431 C1432 1.384 . S
C1431 H1458 0.930 . S
C1432 C1427 1.407 . S
C1432 C1431 1.384 . S
C1432 H1459 0.929 . S
C1433 O1446 1.241 . S
C1433 O1447 1.273 . S
C1434 O1448 1.251 . S
C1434 O1449 1.268 . S
C1435 Nd1425 2.836 . S
C1435 C1436 1.498 . S
C1435 O1450 1.258 . S
C1435 O1451 1.239 . S
C1436 C1435 1.498 . S
C1436 C1437 1.366 . S
C1436 C1441 1.407 . S
C1437 C1436 1.366 . S
C1437 C1438 1.392 . S
C1437 H1460 0.930 . S
C1438 C1437 1.392 . S
C1438 C1439 1.398 . S
C1438 H1461 0.929 . S
C1439 C1438 1.398 . S
C1439 C1440 1.352 . S
C1440 C1439 1.352 . S
C1440 C1441 1.384 . S
C1440 H1462 0.930 . S
C1441 C1436 1.407 . S
C1441 C1440 1.384 . S
C1441 H1463 0.929 . S
C1442 O1452 1.241 . S
C1442 O1453 1.273 . S
C1443 O1454 1.251 . S
C1443 O1455 1.268 . S
O1444 Nd1424 2.500 . S
O1444 C1426 1.258 . S
O1445 Nd1424 2.492 . S
O1445 C1426 1.239 . S
O1446 Nd1424 2.487 . S
O1446 C1433 1.241 . S
O1447 Nd1424 2.682 . S
O1447 Nd1425 2.414 . S
O1447 C1433 1.273 . S
O1448 Nd1424 2.410 . S
O1448 C1434 1.251 . S
O1449 Nd1425 2.424 . S
O1449 C1434 1.268 . S
O1450 Nd1425 2.500 . S
O1450 C1435 1.258 . S
O1451 Nd1425 2.492 . S
O1451 C1435 1.239 . S
O1452 Nd1425 2.487 . S
O1452 C1442 1.241 . S
O1453 Nd1424 2.414 . S
O1453 Nd1425 2.682 . S
O1453 C1442 1.273 . S
O1454 Nd1425 2.410 . S
O1454 C1443 1.251 . S
O1455 Nd1424 2.424 . S
O1455 C1443 1.268 . S
H1456 C1428 0.930 . S
H1457 C1429 0.929 . S
H1458 C1431 0.930 . S
H1459 C1432 0.929 . S
H1460 C1437 0.930 . S
H1461 C1438 0.929 . S
H1462 C1440 0.930 . S
H1463 C1441 0.929 . S
Nd1464 C1466 2.836 . S
Nd1464 O1484 2.500 . S
Nd1464 O1485 2.492 . S
Nd1464 O1486 2.487 . S
Nd1464 O1487 2.682 . S
Nd1464 O1488 2.410 . S
Nd1464 O1493 2.414 . S
Nd1464 O1495 2.424 . S
Nd1465 C1475 2.836 1_455 S
Nd1465 O1487 2.414 . S
Nd1465 O1489 2.424 . S
Nd1465 O1490 2.500 1_455 S
Nd1465 O1491 2.492 1_455 S
Nd1465 O1492 2.487 . S
Nd1465 O1493 2.682 . S
Nd1465 O1494 2.410 . S
C1466 Nd1464 2.836 . S
C1466 C1467 1.498 . S
C1466 O1484 1.258 . S
C1466 O1485 1.239 . S
C1467 C1466 1.498 . S
C1467 C1468 1.366 . S
C1467 C1472 1.407 . S
C1468 C1467 1.366 . S
C1468 C1469 1.392 . S
C1468 H1496 0.930 . S
C1469 C1468 1.392 . S
C1469 C1470 1.398 . S
C1469 H1497 0.929 . S
C1470 C1469 1.398 . S
C1470 C1471 1.352 . S
C1471 C1470 1.352 . S
C1471 C1472 1.384 . S
C1471 H1498 0.930 . S
C1472 C1467 1.407 . S
C1472 C1471 1.384 . S
C1472 H1499 0.929 . S
C1473 O1486 1.241 . S
C1473 O1487 1.273 . S
C1474 O1488 1.251 . S
C1474 O1489 1.268 . S
C1475 Nd1465 2.836 1_655 S
C1475 C1476 1.498 . S
C1475 O1490 1.258 . S
C1475 O1491 1.239 . S
C1476 C1475 1.498 . S
C1476 C1477 1.366 . S
C1476 C1481 1.407 . S
C1477 C1476 1.366 . S
C1477 C1478 1.392 . S
C1477 H1500 0.930 . S
C1478 C1477 1.392 . S
C1478 C1479 1.398 . S
C1478 H1501 0.929 . S
C1479 C1478 1.398 . S
C1479 C1480 1.352 . S
C1480 C1479 1.352 . S
C1480 C1481 1.384 . S
C1480 H1502 0.930 . S
C1481 C1476 1.407 . S
C1481 C1480 1.384 . S
C1481 H1503 0.929 . S
C1482 O1492 1.241 . S
C1482 O1493 1.273 . S
C1483 O1494 1.251 . S
C1483 O1495 1.268 . S
O1484 Nd1464 2.500 . S
O1484 C1466 1.258 . S
O1485 Nd1464 2.492 . S
O1485 C1466 1.239 . S
O1486 Nd1464 2.487 . S
O1486 C1473 1.241 . S
O1487 Nd1464 2.682 . S
O1487 Nd1465 2.414 . S
O1487 C1473 1.273 . S
O1488 Nd1464 2.410 . S
O1488 C1474 1.251 . S
O1489 Nd1465 2.424 . S
O1489 C1474 1.268 . S
O1490 Nd1465 2.500 1_655 S
O1490 C1475 1.258 . S
O1491 Nd1465 2.492 1_655 S
O1491 C1475 1.239 . S
O1492 Nd1465 2.487 . S
O1492 C1482 1.241 . S
O1493 Nd1464 2.414 . S
O1493 Nd1465 2.682 . S
O1493 C1482 1.273 . S
O1494 Nd1465 2.410 . S
O1494 C1483 1.251 . S
O1495 Nd1464 2.424 . S
O1495 C1483 1.268 . S
H1496 C1468 0.930 . S
H1497 C1469 0.929 . S
H1498 C1471 0.930 . S
H1499 C1472 0.929 . S
H1500 C1477 0.930 . S
H1501 C1478 0.929 . S
H1502 C1480 0.930 . S
H1503 C1481 0.929 . S
H1504 C1512 0.950 . S
H1505 C1517 0.950 . S
H1506 C1514 0.950 . S
H1507 C1516 0.950 . S
H1508 C1518 0.950 . S
H1509 C1520 0.950 1_556 S
H1510 C1522 0.950 . S
H1511 C1523 0.950 . S
C1512 H1504 0.950 . S
C1512 C1513 1.386 . S
C1512 C1514 1.391 . S
C1513 C1512 1.386 . S
C1513 C1517 1.393 . S
C1514 H1506 0.950 . S
C1514 C1512 1.391 . S
C1514 C1515 1.400 . S
C1515 C1514 1.400 . S
C1515 C1516 1.398 . S
C1515 C1521 1.491 1_556 S
C1516 H1507 0.950 . S
C1516 C1515 1.398 . S
C1516 C1517 1.391 . S
C1517 H1505 0.950 . S
C1517 C1513 1.393 . S
C1517 C1516 1.391 . S
C1518 H1508 0.950 . S
C1518 C1519 1.386 . S
C1518 C1520 1.391 . S
C1519 C1518 1.386 . S
C1519 C1523 1.393 . S
C1520 H1509 0.950 1_554 S
C1520 C1518 1.391 . S
C1520 C1521 1.400 . S
C1521 C1515 1.491 1_554 S
C1521 C1520 1.400 . S
C1521 C1522 1.398 . S
C1522 H1510 0.950 . S
C1522 C1521 1.398 . S
C1522 C1523 1.391 . S
C1523 H1511 0.950 . S
C1523 C1519 1.393 . S
C1523 C1522 1.391 . S
H1524 C1532 0.950 . S
H1525 C1537 0.950 . S
H1526 C1534 0.950 . S
H1527 C1536 0.950 . S
H1528 C1538 0.950 . S
H1529 C1540 0.950 . S
H1530 C1542 0.950 . S
H1531 C1543 0.950 . S
C1532 H1524 0.950 . S
C1532 C1533 1.386 . S
C1532 C1534 1.391 . S
C1533 C1532 1.386 . S
C1533 C1537 1.393 . S
C1534 H1526 0.950 . S
C1534 C1532 1.391 . S
C1534 C1535 1.400 . S
C1535 C1534 1.400 . S
C1535 C1536 1.398 . S
C1535 C1541 1.491 . S
C1536 H1527 0.950 . S
C1536 C1535 1.398 . S
C1536 C1537 1.391 . S
C1537 H1525 0.950 . S
C1537 C1533 1.393 . S
C1537 C1536 1.391 . S
C1538 H1528 0.950 . S
C1538 C1539 1.386 . S
C1538 C1540 1.391 . S
C1539 C1538 1.386 . S
C1539 C1543 1.393 . S
C1540 H1529 0.950 . S
C1540 C1538 1.391 . S
C1540 C1541 1.400 . S
C1541 C1535 1.491 . S
C1541 C1540 1.400 . S
C1541 C1542 1.398 . S
C1542 H1530 0.950 . S
C1542 C1541 1.398 . S
C1542 C1543 1.391 . S
C1543 H1531 0.950 . S
C1543 C1539 1.393 . S
C1543 C1542 1.391 . S
H1544 C1552 0.950 . S
H1545 C1557 0.950 . S
H1546 C1554 0.950 . S
H1547 C1556 0.950 . S
H1548 C1558 0.950 . S
H1549 C1560 0.950 . S
H1550 C1562 0.950 . S
H1551 C1563 0.950 . S
C1552 H1544 0.950 . S
C1552 C1553 1.386 . S
C1552 C1554 1.391 . S
C1553 C1552 1.386 . S
C1553 C1557 1.393 . S
C1554 H1546 0.950 . S
C1554 C1552 1.391 . S
C1554 C1555 1.400 . S
C1555 C1554 1.400 . S
C1555 C1556 1.398 . S
C1555 C1561 1.491 . S
C1556 H1547 0.950 . S
C1556 C1555 1.398 . S
C1556 C1557 1.391 . S
C1557 H1545 0.950 . S
C1557 C1553 1.393 . S
C1557 C1556 1.391 . S
C1558 H1548 0.950 . S
C1558 C1559 1.386 . S
C1558 C1560 1.391 1_545 S
C1559 C1558 1.386 . S
C1559 C1563 1.393 1_545 S
C1560 H1549 0.950 . S
C1560 C1558 1.391 1_565 S
C1560 C1561 1.400 . S
C1561 C1555 1.491 . S
C1561 C1560 1.400 . S
C1561 C1562 1.398 . S
C1562 H1550 0.950 . S
C1562 C1561 1.398 . S
C1562 C1563 1.391 . S
C1563 H1551 0.950 . S
C1563 C1559 1.393 1_565 S
C1563 C1562 1.391 . S
H1564 C1572 0.950 . S
H1565 C1577 0.950 . S
H1566 C1574 0.950 . S
H1567 C1576 0.950 . S
H1568 C1578 0.950 . S
H1569 C1580 0.950 . S
H1570 C1582 0.950 . S
H1571 C1583 0.950 . S
C1572 H1564 0.950 . S
C1572 C1573 1.386 . S
C1572 C1574 1.391 . S
C1573 C1572 1.386 . S
C1573 C1577 1.393 . S
C1574 H1566 0.950 . S
C1574 C1572 1.391 . S
C1574 C1575 1.400 . S
C1575 C1574 1.400 . S
C1575 C1576 1.398 . S
C1575 C1581 1.491 . S
C1576 H1567 0.950 . S
C1576 C1575 1.398 . S
C1576 C1577 1.391 . S
C1577 H1565 0.950 . S
C1577 C1573 1.393 . S
C1577 C1576 1.391 . S
C1578 H1568 0.950 . S
C1578 C1579 1.386 . S
C1578 C1580 1.391 . S
C1579 C1578 1.386 . S
C1579 C1583 1.393 . S
C1580 H1569 0.950 . S
C1580 C1578 1.391 . S
C1580 C1581 1.400 . S
C1581 C1575 1.491 . S
C1581 C1580 1.400 . S
C1581 C1582 1.398 . S
C1582 H1570 0.950 . S
C1582 C1581 1.398 . S
C1582 C1583 1.391 . S
C1583 H1571 0.950 . S
C1583 C1579 1.393 . S
C1583 C1582 1.391 . S
H1584 C1592 0.950 . S
H1585 C1597 0.950 . S
H1586 C1594 0.929 1_655 S
H1587 C1596 0.950 . S
H1588 C1598 0.950 . S
H1589 C1600 0.950 . S
H1590 C1602 0.950 . S
H1591 C1603 0.950 . S
C1592 H1584 0.950 . S
C1592 C1593 1.386 1_655 S
C1592 C1594 1.391 1_655 S
C1593 C1592 1.386 1_455 S
C1593 C1597 1.393 . S
C1594 H1586 0.929 1_455 S
C1594 C1592 1.391 1_455 S
C1594 C1595 1.400 . S
C1595 C1594 1.400 . S
C1595 C1596 1.398 . S
C1595 C1601 1.491 . S
C1596 H1587 0.950 . S
C1596 C1595 1.398 . S
C1596 C1597 1.391 . S
C1597 H1585 0.950 . S
C1597 C1593 1.393 . S
C1597 C1596 1.391 . S
C1598 H1588 0.950 . S
C1598 C1599 1.386 . S
C1598 C1600 1.391 . S
C1599 C1598 1.386 . S
C1599 C1603 1.393 . S
C1600 H1589 0.950 . S
C1600 C1598 1.391 . S
C1600 C1601 1.400 . S
C1601 C1595 1.491 . S
C1601 C1600 1.400 . S
C1601 C1602 1.398 . S
C1602 H1590 0.950 . S
C1602 C1601 1.398 . S
C1602 C1603 1.391 . S
C1603 H1591 0.950 . S
C1603 C1599 1.393 . S
C1603 C1602 1.391 . S
H1604 C1612 0.950 . S
H1605 C1617 0.950 . S
H1606 C1614 0.950 . S
H1607 C1616 0.950 . S
H1608 C1618 0.950 . S
H1609 C1620 0.950 . S
H1610 C1622 0.950 . S
H1611 C1623 0.950 . S
C1612 H1604 0.950 . S
C1612 C1613 1.386 . S
C1612 C1614 1.391 . S
C1613 C1612 1.386 . S
C1613 C1617 1.393 . S
C1614 H1606 0.950 . S
C1614 C1612 1.391 . S
C1614 C1615 1.400 . S
C1615 C1614 1.400 . S
C1615 C1616 1.398 . S
C1615 C1621 1.491 . S
C1616 H1607 0.950 . S
C1616 C1615 1.398 . S
C1616 C1617 1.391 . S
C1617 H1605 0.950 . S
C1617 C1613 1.393 . S
C1617 C1616 1.391 . S
C1618 H1608 0.950 . S
C1618 C1619 1.386 . S
C1618 C1620 1.391 . S
C1619 C1618 1.386 . S
C1619 C1623 1.393 . S
C1620 H1609 0.950 . S
C1620 C1618 1.391 . S
C1620 C1621 1.400 . S
C1621 C1615 1.491 . S
C1621 C1620 1.400 . S
C1621 C1622 1.398 . S
C1622 H1610 0.950 . S
C1622 C1621 1.398 . S
C1622 C1623 1.391 . S
C1623 H1611 0.950 . S
C1623 C1619 1.393 . S
C1623 C1622 1.391 . S
H1624 C1632 0.950 . S
H1625 C1637 0.950 . S
H1626 C1634 0.950 . S
H1627 C1636 0.950 . S
H1628 C1638 0.950 . S
H1629 C1640 0.950 . S
H1630 C1642 0.950 . S
H1631 C1643 0.950 . S
C1632 H1624 0.950 . S
C1632 C1633 1.386 . S
C1632 C1634 1.391 . S
C1633 C1632 1.386 . S
C1633 C1637 1.393 . S
C1634 H1626 0.950 . S
C1634 C1632 1.391 . S
C1634 C1635 1.400 . S
C1635 C1634 1.400 . S
C1635 C1636 1.398 . S
C1635 C1641 1.491 . S
C1636 H1627 0.950 . S
C1636 C1635 1.398 . S
C1636 C1637 1.391 . S
C1637 H1625 0.950 . S
C1637 C1633 1.393 . S
C1637 C1636 1.391 . S
C1638 H1628 0.950 . S
C1638 C1639 1.386 . S
C1638 C1640 1.391 . S
C1639 C1638 1.386 . S
C1639 C1643 1.393 . S
C1640 H1629 0.950 . S
C1640 C1638 1.391 . S
C1640 C1641 1.400 . S
C1641 C1635 1.491 . S
C1641 C1640 1.400 . S
C1641 C1642 1.398 . S
C1642 H1630 0.950 . S
C1642 C1641 1.398 . S
C1642 C1643 1.391 . S
C1643 H1631 0.950 . S
C1643 C1639 1.393 . S
C1643 C1642 1.391 . S
H1644 C1652 0.950 . S
H1645 C1657 0.950 . S
H1646 C1654 0.950 . S
H1647 C1656 0.950 . S
H1648 C1658 0.950 . S
H1649 C1660 0.950 . S
H1650 C1662 0.950 . S
H1651 C1663 0.950 . S
C1652 H1644 0.950 . S
C1652 C1653 1.386 . S
C1652 C1654 1.391 . S
C1653 C1652 1.386 . S
C1653 C1657 1.393 . S
C1654 H1646 0.950 . S
C1654 C1652 1.391 . S
C1654 C1655 1.400 . S
C1655 C1654 1.400 . S
C1655 C1656 1.398 . S
C1655 C1661 1.491 . S
C1656 H1647 0.950 . S
C1656 C1655 1.398 . S
C1656 C1657 1.391 . S
C1657 H1645 0.950 . S
C1657 C1653 1.393 . S
C1657 C1656 1.391 . S
C1658 H1648 0.950 . S
C1658 C1659 1.386 . S
C1658 C1660 1.391 . S
C1659 C1658 1.386 . S
C1659 C1663 1.393 . S
C1660 H1649 0.950 . S
C1660 C1658 1.391 . S
C1660 C1661 1.400 . S
C1661 C1655 1.491 . S
C1661 C1660 1.400 . S
C1661 C1662 1.398 . S
C1662 H1650 0.950 . S
C1662 C1661 1.398 . S
C1662 C1663 1.391 . S
C1663 H1651 0.950 . S
C1663 C1659 1.393 . S
C1663 C1662 1.391 . S
H1664 C1672 0.950 . S
H1665 C1677 0.950 . S
H1666 C1674 0.950 . S
H1667 C1676 0.950 . S
H1668 C1678 0.950 . S
H1669 C1680 0.946 1_455 S
H1670 C1682 0.950 . S
H1671 C1683 0.950 . S
C1672 H1664 0.950 . S
C1672 C1673 1.386 . S
C1672 C1674 1.391 . S
C1673 C1672 1.386 . S
C1673 C1677 1.393 . S
C1674 H1666 0.950 . S
C1674 C1672 1.391 . S
C1674 C1675 1.400 . S
C1675 C1674 1.400 . S
C1675 C1676 1.398 . S
C1675 C1681 1.491 . S
C1676 H1667 0.950 . S
C1676 C1675 1.398 . S
C1676 C1677 1.391 . S
C1677 H1665 0.950 . S
C1677 C1673 1.393 . S
C1677 C1676 1.391 . S
C1678 H1668 0.950 . S
C1678 C1679 1.386 . S
C1678 C1680 1.360 1_455 S
C1679 C1678 1.386 . S
C1679 C1683 1.393 1_455 S
C1680 H1669 0.946 1_655 S
C1680 C1678 1.360 1_655 S
C1680 C1681 1.437 . S
C1681 C1675 1.491 . S
C1681 C1680 1.437 . S
C1681 C1682 1.398 . S
C1682 H1670 0.950 . S
C1682 C1681 1.398 . S
C1682 C1683 1.391 . S
C1683 H1671 0.950 . S
C1683 C1679 1.393 1_655 S
C1683 C1682 1.391 . S
H1684 C1692 0.950 . S
H1685 C1697 0.950 . S
H1686 C1694 0.950 . S
H1687 C1696 0.950 . S
H1688 C1698 0.950 . S
H1689 C1700 0.950 . S
H1690 C1702 0.950 . S
H1691 C1703 0.950 . S
C1692 H1684 0.950 . S
C1692 C1693 1.386 . S
C1692 C1694 1.391 . S
C1693 C1692 1.386 . S
C1693 C1697 1.393 . S
C1694 H1686 0.950 . S
C1694 C1692 1.391 . S
C1694 C1695 1.400 . S
C1695 C1694 1.400 . S
C1695 C1696 1.398 . S
C1695 C1701 1.491 . S
C1696 H1687 0.950 . S
C1696 C1695 1.398 . S
C1696 C1697 1.391 . S
C1697 H1685 0.950 . S
C1697 C1693 1.393 . S
C1697 C1696 1.391 . S
C1698 H1688 0.950 . S
C1698 C1699 1.386 . S
C1698 C1700 1.391 . S
C1699 C1698 1.386 . S
C1699 C1703 1.393 . S
C1700 H1689 0.950 . S
C1700 C1698 1.391 . S
C1700 C1701 1.400 . S
C1701 C1695 1.491 . S
C1701 C1700 1.400 . S
C1701 C1702 1.398 . S
C1702 H1690 0.950 . S
C1702 C1701 1.398 . S
C1702 C1703 1.391 . S
C1703 H1691 0.950 . S
C1703 C1699 1.393 . S
C1703 C1702 1.391 . S
H1704 C1712 0.950 1_565 S
H1705 C1717 0.950 . S
H1706 C1714 0.950 . S
H1707 C1716 0.950 . S
H1708 C1718 0.950 . S
H1709 C1720 0.950 . S
H1710 C1722 0.950 . S
H1711 C1723 0.950 . S
C1712 H1704 0.950 1_545 S
C1712 C1713 1.386 . S
C1712 C1714 1.391 . S
C1713 C1712 1.386 . S
C1713 C1717 1.393 . S
C1714 H1706 0.950 . S
C1714 C1712 1.391 . S
C1714 C1715 1.400 . S
C1715 C1714 1.400 . S
C1715 C1716 1.398 . S
C1715 C1721 1.491 . S
C1716 H1707 0.950 . S
C1716 C1715 1.398 . S
C1716 C1717 1.391 . S
C1717 H1705 0.950 . S
C1717 C1713 1.393 . S
C1717 C1716 1.391 . S
C1718 H1708 0.950 . S
C1718 C1719 1.386 . S
C1718 C1720 1.391 . S
C1719 C1718 1.386 . S
C1719 C1723 1.393 . S
C1720 H1709 0.950 . S
C1720 C1718 1.391 . S
C1720 C1721 1.400 . S
C1721 C1715 1.491 . S
C1721 C1720 1.400 . S
C1721 C1722 1.398 . S
C1722 H1710 0.950 . S
C1722 C1721 1.398 . S
C1722 C1723 1.391 . S
C1723 H1711 0.950 . S
C1723 C1719 1.393 . S
C1723 C1722 1.391 . S
H1724 C1732 0.950 . S
H1725 C1737 0.950 . S
H1726 C1734 0.950 . S
H1727 C1736 0.950 . S
H1728 C1738 0.950 . S
H1729 C1740 0.950 . S
H1730 C1742 0.950 . S
H1731 C1743 0.950 . S
C1732 H1724 0.950 . S
C1732 C1733 1.386 . S
C1732 C1734 1.391 . S
C1733 C1732 1.386 . S
C1733 C1737 1.393 . S
C1734 H1726 0.950 . S
C1734 C1732 1.391 . S
C1734 C1735 1.400 . S
C1735 C1734 1.400 . S
C1735 C1736 1.398 . S
C1735 C1741 1.491 . S
C1736 H1727 0.950 . S
C1736 C1735 1.398 . S
C1736 C1737 1.391 . S
C1737 H1725 0.950 . S
C1737 C1733 1.393 . S
C1737 C1736 1.391 . S
C1738 H1728 0.950 . S
C1738 C1739 1.386 . S
C1738 C1740 1.391 1_556 S
C1739 C1738 1.386 . S
C1739 C1743 1.393 . S
C1740 H1729 0.950 . S
C1740 C1738 1.391 1_554 S
C1740 C1741 1.400 . S
C1741 C1735 1.491 . S
C1741 C1740 1.400 . S
C1741 C1742 1.398 1_554 S
C1742 H1730 0.950 . S
C1742 C1741 1.398 1_556 S
C1742 C1743 1.391 . S
C1743 H1731 0.950 . S
C1743 C1739 1.393 . S
C1743 C1742 1.391 . S
H1744 C1752 0.950 . S
H1745 C1757 0.950 . S
H1746 C1754 0.950 . S
H1747 C1756 0.950 . S
H1748 C1758 0.950 . S
H1749 C1760 0.939 1_455 S
H1750 C1762 0.950 . S
H1751 C1763 0.950 . S
C1752 H1744 0.950 . S
C1752 C1753 1.386 . S
C1752 C1754 1.391 . S
C1753 C1752 1.386 . S
C1753 C1757 1.393 . S
C1754 H1746 0.950 . S
C1754 C1752 1.391 . S
C1754 C1755 1.400 . S
C1755 C1754 1.400 . S
C1755 C1756 1.398 . S
C1755 C1761 1.491 . S
C1756 H1747 0.950 . S
C1756 C1755 1.398 . S
C1756 C1757 1.391 . S
C1757 H1745 0.950 . S
C1757 C1753 1.393 . S
C1757 C1756 1.391 . S
C1758 H1748 0.950 . S
C1758 C1759 1.386 1_455 S
C1758 C1760 1.385 1_455 S
C1759 C1758 1.386 1_655 S
C1759 C1763 1.393 . S
C1760 H1749 0.939 1_655 S
C1760 C1758 1.385 1_655 S
C1760 C1761 1.417 . S
C1761 C1755 1.491 . S
C1761 C1760 1.417 . S
C1761 C1762 1.398 . S
C1762 H1750 0.950 . S
C1762 C1761 1.398 . S
C1762 C1763 1.391 . S
C1763 H1751 0.950 . S
C1763 C1759 1.393 . S
C1763 C1762 1.391 . S
H1764 C1772 0.950 . S
H1765 C1777 0.950 . S
H1766 C1774 0.950 . S
H1767 C1776 0.950 . S
H1768 C1778 0.950 . S
H1769 C1780 0.950 . S
H1770 C1782 0.950 . S
H1771 C1783 0.950 . S
C1772 H1764 0.950 . S
C1772 C1773 1.386 . S
C1772 C1774 1.391 . S
C1773 C1772 1.386 . S
C1773 C1777 1.393 . S
C1774 H1766 0.950 . S
C1774 C1772 1.391 . S
C1774 C1775 1.400 . S
C1775 C1774 1.400 . S
C1775 C1776 1.398 . S
C1775 C1781 1.491 . S
C1776 H1767 0.950 . S
C1776 C1775 1.398 . S
C1776 C1777 1.391 . S
C1777 H1765 0.950 . S
C1777 C1773 1.393 . S
C1777 C1776 1.391 . S
C1778 H1768 0.950 . S
C1778 C1779 1.386 . S
C1778 C1780 1.391 . S
C1779 C1778 1.386 . S
C1779 C1783 1.393 . S
C1780 H1769 0.950 . S
C1780 C1778 1.391 . S
C1780 C1781 1.400 . S
C1781 C1775 1.491 . S
C1781 C1780 1.400 . S
C1781 C1782 1.398 . S
C1782 H1770 0.950 . S
C1782 C1781 1.398 . S
C1782 C1783 1.391 . S
C1783 H1771 0.950 . S
C1783 C1779 1.393 . S
C1783 C1782 1.391 . S
H1784 C1792 0.950 . S
H1785 C1797 0.950 . S
H1786 C1794 0.950 . S
H1787 C1796 0.950 1_565 S
H1788 C1798 0.950 1_554 S
H1789 C1800 0.950 . S
H1790 C1802 0.950 . S
H1791 C1803 0.950 . S
C1792 H1784 0.950 . S
C1792 C1793 1.386 . S
C1792 C1794 1.391 . S
C1793 C1792 1.386 . S
C1793 C1797 1.393 1_545 S
C1794 H1786 0.950 . S
C1794 C1792 1.391 . S
C1794 C1795 1.400 . S
C1795 C1794 1.400 . S
C1795 C1796 1.398 . S
C1795 C1801 1.491 . S
C1796 H1787 0.950 1_545 S
C1796 C1795 1.398 . S
C1796 C1797 1.391 1_545 S
C1797 H1785 0.950 . S
C1797 C1793 1.393 1_565 S
C1797 C1796 1.391 1_565 S
C1798 H1788 0.950 1_556 S
C1798 C1799 1.387 1_556 S
C1798 C1800 1.391 . S
C1799 C1798 1.387 1_554 S
C1799 C1803 1.367 1_554 S
C1800 H1789 0.950 . S
C1800 C1798 1.391 . S
C1800 C1801 1.400 . S
C1801 C1795 1.491 . S
C1801 C1800 1.400 . S
C1801 C1802 1.398 . S
C1802 H1790 0.950 . S
C1802 C1801 1.398 . S
C1802 C1803 1.391 . S
C1803 H1791 0.950 . S
C1803 C1799 1.367 1_556 S
C1803 C1802 1.391 . S
H1804 C1812 0.950 . S
H1805 C1817 0.950 . S
H1806 C1814 0.950 . S
H1807 C1816 0.950 . S
H1808 C1818 0.950 . S
H1809 C1820 0.950 . S
H1810 C1822 0.950 . S
H1811 C1823 0.950 . S
C1812 H1804 0.950 . S
C1812 C1813 1.386 . S
C1812 C1814 1.391 . S
C1813 C1812 1.386 . S
C1813 C1817 1.393 . S
C1814 H1806 0.950 . S
C1814 C1812 1.391 . S
C1814 C1815 1.400 . S
C1815 C1814 1.400 . S
C1815 C1816 1.398 . S
C1815 C1821 1.491 . S
C1816 H1807 0.950 . S
C1816 C1815 1.398 . S
C1816 C1817 1.391 . S
C1817 H1805 0.950 . S
C1817 C1813 1.393 . S
C1817 C1816 1.391 . S
C1818 H1808 0.950 . S
C1818 C1819 1.386 . S
C1818 C1820 1.391 . S
C1819 C1818 1.386 . S
C1819 C1823 1.393 . S
C1820 H1809 0.950 . S
C1820 C1818 1.391 . S
C1820 C1821 1.400 . S
C1821 C1815 1.491 . S
C1821 C1820 1.400 . S
C1821 C1822 1.398 . S
C1822 H1810 0.950 . S
C1822 C1821 1.398 . S
C1822 C1823 1.391 . S
C1823 H1811 0.950 . S
C1823 C1819 1.393 . S
C1823 C1822 1.391 . S
H1824 C1832 0.950 . S
H1825 C1837 0.950 . S
H1826 C1834 0.950 . S
H1827 C1836 0.950 . S
H1828 C1838 0.950 . S
H1829 C1840 0.950 . S
H1830 C1842 0.950 . S
H1831 C1843 0.950 . S
C1832 H1824 0.950 . S
C1832 C1833 1.386 . S
C1832 C1834 1.391 . S
C1833 C1832 1.386 . S
C1833 C1837 1.393 . S
C1834 H1826 0.950 . S
C1834 C1832 1.391 . S
C1834 C1835 1.400 . S
C1835 C1834 1.400 . S
C1835 C1836 1.398 . S
C1835 C1841 1.491 . S
C1836 H1827 0.950 . S
C1836 C1835 1.398 . S
C1836 C1837 1.391 . S
C1837 H1825 0.950 . S
C1837 C1833 1.393 . S
C1837 C1836 1.391 . S
C1838 H1828 0.950 . S
C1838 C1839 1.386 1_565 S
C1838 C1840 1.391 . S
C1839 C1838 1.386 1_545 S
C1839 C1843 1.393 . S
C1840 H1829 0.950 . S
C1840 C1838 1.391 . S
C1840 C1841 1.400 . S
C1841 C1835 1.491 . S
C1841 C1840 1.400 . S
C1841 C1842 1.398 1_565 S
C1842 H1830 0.950 . S
C1842 C1841 1.398 1_545 S
C1842 C1843 1.391 . S
C1843 H1831 0.950 . S
C1843 C1839 1.393 . S
C1843 C1842 1.391 . S
H1844 C1852 0.950 . S
H1845 C1857 0.950 . S
H1846 C1854 0.950 . S
H1847 C1856 0.950 . S
H1848 C1858 0.950 . S
H1849 C1860 0.950 . S
H1850 C1862 0.950 . S
H1851 C1863 0.950 . S
C1852 H1844 0.950 . S
C1852 C1853 1.375 1_554 S
C1852 C1854 1.391 . S
C1853 C1852 1.375 1_556 S
C1853 C1857 1.388 . S
C1854 H1846 0.950 . S
C1854 C1852 1.391 . S
C1854 C1855 1.400 . S
C1855 C1854 1.400 . S
C1855 C1856 1.398 . S
C1855 C1861 1.491 . S
C1856 H1847 0.950 . S
C1856 C1855 1.398 . S
C1856 C1857 1.391 1_554 S
C1857 H1845 0.950 . S
C1857 C1853 1.388 . S
C1857 C1856 1.391 1_556 S
C1858 H1848 0.950 . S
C1858 C1859 1.386 . S
C1858 C1860 1.391 . S
C1859 C1858 1.386 . S
C1859 C1863 1.393 . S
C1860 H1849 0.950 . S
C1860 C1858 1.391 . S
C1860 C1861 1.400 . S
C1861 C1855 1.491 . S
C1861 C1860 1.400 . S
C1861 C1862 1.398 . S
C1862 H1850 0.950 . S
C1862 C1861 1.398 . S
C1862 C1863 1.391 . S
C1863 H1851 0.950 . S
C1863 C1859 1.393 . S
C1863 C1862 1.391 . S
H1864 C1872 0.950 . S
H1865 C1877 0.950 . S
H1866 C1874 0.950 . S
H1867 C1876 0.950 . S
H1868 C1878 0.950 . S
H1869 C1880 0.950 . S
H1870 C1882 0.950 . S
H1871 C1883 0.950 . S
C1872 H1864 0.950 . S
C1872 C1873 1.386 . S
C1872 C1874 1.391 . S
C1873 C1872 1.386 . S
C1873 C1877 1.393 . S
C1874 H1866 0.950 . S
C1874 C1872 1.391 . S
C1874 C1875 1.400 . S
C1875 C1874 1.400 . S
C1875 C1876 1.398 . S
C1875 C1881 1.491 . S
C1876 H1867 0.950 . S
C1876 C1875 1.398 . S
C1876 C1877 1.391 . S
C1877 H1865 0.950 . S
C1877 C1873 1.393 . S
C1877 C1876 1.391 . S
C1878 H1868 0.950 . S
C1878 C1879 1.386 . S
C1878 C1880 1.391 . S
C1879 C1878 1.386 . S
C1879 C1883 1.393 . S
C1880 H1869 0.950 . S
C1880 C1878 1.391 . S
C1880 C1881 1.400 . S
C1881 C1875 1.491 . S
C1881 C1880 1.400 . S
C1881 C1882 1.398 . S
C1882 H1870 0.950 . S
C1882 C1881 1.398 . S
C1882 C1883 1.391 . S
C1883 H1871 0.950 . S
C1883 C1879 1.393 . S
C1883 C1882 1.391 . S
H1884 C1892 0.950 . S
H1885 C1897 0.950 . S
H1886 C1894 0.950 . S
H1887 C1896 0.950 . S
H1888 C1898 0.950 . S
H1889 C1900 0.950 . S
H1890 C1902 0.950 . S
H1891 C1903 0.950 . S
C1892 H1884 0.950 . S
C1892 C1893 1.386 . S
C1892 C1894 1.391 . S
C1893 C1892 1.386 . S
C1893 C1897 1.393 . S
C1894 H1886 0.950 . S
C1894 C1892 1.391 . S
C1894 C1895 1.400 . S
C1895 C1894 1.400 . S
C1895 C1896 1.398 . S
C1895 C1901 1.491 . S
C1896 H1887 0.950 . S
C1896 C1895 1.398 . S
C1896 C1897 1.391 . S
C1897 H1885 0.950 . S
C1897 C1893 1.393 . S
C1897 C1896 1.391 . S
C1898 H1888 0.950 . S
C1898 C1899 1.386 . S
C1898 C1900 1.391 . S
C1899 C1898 1.386 . S
C1899 C1903 1.393 . S
C1900 H1889 0.950 . S
C1900 C1898 1.391 . S
C1900 C1901 1.400 . S
C1901 C1895 1.491 . S
C1901 C1900 1.400 . S
C1901 C1902 1.398 . S
C1902 H1890 0.950 . S
C1902 C1901 1.398 . S
C1902 C1903 1.391 . S
C1903 H1891 0.950 . S
C1903 C1899 1.393 . S
C1903 C1902 1.391 . S
H1904 C1912 0.950 . S
H1905 C1917 0.950 . S
H1906 C1914 0.950 . S
H1907 C1916 0.950 . S
H1908 C1918 0.950 . S
H1909 C1920 0.950 . S
H1910 C1922 0.950 . S
H1911 C1923 0.950 . S
C1912 H1904 0.950 . S
C1912 C1913 1.386 . S
C1912 C1914 1.391 . S
C1913 C1912 1.386 . S
C1913 C1917 1.393 . S
C1914 H1906 0.950 . S
C1914 C1912 1.391 . S
C1914 C1915 1.400 . S
C1915 C1914 1.400 . S
C1915 C1916 1.398 . S
C1915 C1921 1.491 . S
C1916 H1907 0.950 . S
C1916 C1915 1.398 . S
C1916 C1917 1.391 . S
C1917 H1905 0.950 . S
C1917 C1913 1.393 . S
C1917 C1916 1.391 . S
C1918 H1908 0.950 . S
C1918 C1919 1.386 . S
C1918 C1920 1.391 . S
C1919 C1918 1.386 . S
C1919 C1923 1.393 . S
C1920 H1909 0.950 . S
C1920 C1918 1.391 . S
C1920 C1921 1.400 . S
C1921 C1915 1.491 . S
C1921 C1920 1.400 . S
C1921 C1922 1.398 . S
C1922 H1910 0.950 . S
C1922 C1921 1.398 . S
C1922 C1923 1.391 . S
C1923 H1911 0.950 . S
C1923 C1919 1.393 . S
C1923 C1922 1.391 . S
H1924 C1932 0.950 . S
H1925 C1937 0.950 . S
H1926 C1934 0.950 . S
H1927 C1936 0.950 . S
H1928 C1938 0.950 . S
H1929 C1940 0.950 . S
H1930 C1942 0.950 . S
H1931 C1943 0.950 . S
C1932 H1924 0.950 . S
C1932 C1933 1.386 . S
C1932 C1934 1.391 . S
C1933 C1932 1.386 . S
C1933 C1937 1.393 . S
C1934 H1926 0.950 . S
C1934 C1932 1.391 . S
C1934 C1935 1.400 . S
C1935 C1934 1.400 . S
C1935 C1936 1.398 . S
C1935 C1941 1.491 . S
C1936 H1927 0.950 . S
C1936 C1935 1.398 . S
C1936 C1937 1.391 . S
C1937 H1925 0.950 . S
C1937 C1933 1.393 . S
C1937 C1936 1.391 . S
C1938 H1928 0.950 . S
C1938 C1939 1.386 . S
C1938 C1940 1.391 . S
C1939 C1938 1.386 . S
C1939 C1943 1.393 . S
C1940 H1929 0.950 . S
C1940 C1938 1.391 . S
C1940 C1941 1.400 . S
C1941 C1935 1.491 . S
C1941 C1940 1.400 . S
C1941 C1942 1.398 . S
C1942 H1930 0.950 . S
C1942 C1941 1.398 . S
C1942 C1943 1.391 . S
C1943 H1931 0.950 . S
C1943 C1939 1.393 . S
C1943 C1942 1.391 . S
H1944 C1952 0.950 . S
H1945 C1957 0.950 . S
H1946 C1954 0.950 . S
H1947 C1956 0.950 . S
H1948 C1958 0.950 . S
H1949 C1960 0.950 . S
H1950 C1962 0.950 . S
H1951 C1963 0.950 . S
C1952 H1944 0.950 . S
C1952 C1953 1.386 . S
C1952 C1954 1.391 . S
C1953 C1952 1.386 . S
C1953 C1957 1.393 . S
C1954 H1946 0.950 . S
C1954 C1952 1.391 . S
C1954 C1955 1.400 . S
C1955 C1954 1.400 . S
C1955 C1956 1.398 . S
C1955 C1961 1.491 . S
C1956 H1947 0.950 . S
C1956 C1955 1.398 . S
C1956 C1957 1.391 . S
C1957 H1945 0.950 . S
C1957 C1953 1.393 . S
C1957 C1956 1.391 . S
C1958 H1948 0.950 . S
C1958 C1959 1.386 . S
C1958 C1960 1.391 . S
C1959 C1958 1.386 . S
C1959 C1963 1.393 . S
C1960 H1949 0.950 . S
C1960 C1958 1.391 . S
C1960 C1961 1.400 . S
C1961 C1955 1.491 . S
C1961 C1960 1.400 . S
C1961 C1962 1.398 . S
C1962 H1950 0.950 . S
C1962 C1961 1.398 . S
C1962 C1963 1.391 . S
C1963 H1951 0.950 . S
C1963 C1959 1.393 . S
C1963 C1962 1.391 . S
H1964 C1972 0.950 . S
H1965 C1977 0.950 . S
H1966 C1974 0.950 . S
H1967 C1976 0.950 . S
H1968 C1978 0.950 . S
H1969 C1980 0.950 . S
H1970 C1982 0.950 . S
H1971 C1983 0.950 . S
C1972 H1964 0.950 . S
C1972 C1973 1.386 . S
C1972 C1974 1.391 . S
C1973 C1972 1.386 . S
C1973 C1977 1.393 . S
C1974 H1966 0.950 . S
C1974 C1972 1.391 . S
C1974 C1975 1.400 . S
C1975 C1974 1.400 . S
C1975 C1976 1.398 . S
C1975 C1981 1.491 . S
C1976 H1967 0.950 . S
C1976 C1975 1.398 . S
C1976 C1977 1.391 . S
C1977 H1965 0.950 . S
C1977 C1973 1.393 . S
C1977 C1976 1.391 . S
C1978 H1968 0.950 . S
C1978 C1979 1.386 . S
C1978 C1980 1.391 . S
C1979 C1978 1.386 . S
C1979 C1983 1.393 . S
C1980 H1969 0.950 . S
C1980 C1978 1.391 . S
C1980 C1981 1.400 . S
C1981 C1975 1.491 . S
C1981 C1980 1.400 . S
C1981 C1982 1.398 . S
C1982 H1970 0.950 . S
C1982 C1981 1.398 . S
C1982 C1983 1.391 . S
C1983 H1971 0.950 . S
C1983 C1979 1.393 . S
C1983 C1982 1.391 . S
H1984 C1992 0.950 . S
H1985 C1997 0.950 1_655 S
H1986 C1994 0.950 . S
H1987 C1996 0.950 1_655 S
H1988 C1998 0.950 1_655 S
H1989 C2000 0.950 1_655 S
H1990 C2002 0.950 . S
H1991 C2003 0.950 . S
C1992 H1984 0.950 . S
C1992 C1993 1.386 . S
C1992 C1994 1.391 . S
C1993 C1992 1.386 . S
C1993 C1997 1.393 . S
C1994 H1986 0.950 . S
C1994 C1992 1.391 . S
C1994 C1995 1.400 . S
C1995 C1994 1.400 . S
C1995 C1996 1.398 . S
C1995 C2001 1.491 . S
C1996 H1987 0.950 1_455 S
C1996 C1995 1.398 . S
C1996 C1997 1.391 . S
C1997 H1985 0.950 1_455 S
C1997 C1993 1.393 . S
C1997 C1996 1.391 . S
C1998 H1988 0.950 1_455 S
C1998 C1999 1.386 . S
C1998 C2000 1.391 . S
C1999 C1998 1.386 . S
C1999 C2003 1.393 . S
C2000 H1989 0.950 1_455 S
C2000 C1998 1.391 . S
C2000 C2001 1.400 . S
C2001 C1995 1.491 . S
C2001 C2000 1.400 . S
C2001 C2002 1.398 . S
C2002 H1990 0.950 . S
C2002 C2001 1.398 . S
C2002 C2003 1.391 . S
C2003 H1991 0.950 . S
C2003 C1999 1.393 . S
C2003 C2002 1.391 . S
H2004 C2012 0.950 . S
H2005 C2017 0.950 . S
H2006 C2014 0.950 . S
H2007 C2016 0.950 . S
H2008 C2018 0.950 . S
H2009 C2020 0.950 . S
H2010 C2022 0.950 . S
H2011 C2023 0.950 . S
C2012 H2004 0.950 . S
C2012 C2013 1.386 . S
C2012 C2014 1.391 . S
C2013 C2012 1.386 . S
C2013 C2017 1.393 . S
C2014 H2006 0.950 . S
C2014 C2012 1.391 . S
C2014 C2015 1.400 . S
C2015 C2014 1.400 . S
C2015 C2016 1.398 . S
C2015 C2021 1.491 . S
C2016 H2007 0.950 . S
C2016 C2015 1.398 . S
C2016 C2017 1.391 . S
C2017 H2005 0.950 . S
C2017 C2013 1.393 . S
C2017 C2016 1.391 . S
C2018 H2008 0.950 . S
C2018 C2019 1.386 . S
C2018 C2020 1.391 . S
C2019 C2018 1.386 . S
C2019 C2023 1.393 . S
C2020 H2009 0.950 . S
C2020 C2018 1.391 . S
C2020 C2021 1.400 . S
C2021 C2015 1.491 . S
C2021 C2020 1.400 . S
C2021 C2022 1.398 . S
C2022 H2010 0.950 . S
C2022 C2021 1.398 . S
C2022 C2023 1.391 . S
C2023 H2011 0.950 . S
C2023 C2019 1.393 . S
C2023 C2022 1.391 . S
H2024 C2032 0.950 . S
H2025 C2037 0.950 . S
H2026 C2034 0.950 . S
H2027 C2036 0.950 . S
H2028 C2038 0.950 . S
H2029 C2040 0.950 . S
H2030 C2042 0.950 . S
H2031 C2043 0.950 . S
C2032 H2024 0.950 . S
C2032 C2033 1.386 . S
C2032 C2034 1.391 . S
C2033 C2032 1.386 . S
C2033 C2037 1.393 . S
C2034 H2026 0.950 . S
C2034 C2032 1.391 . S
C2034 C2035 1.400 . S
C2035 C2034 1.400 . S
C2035 C2036 1.398 . S
C2035 C2041 1.491 . S
C2036 H2027 0.950 . S
C2036 C2035 1.398 . S
C2036 C2037 1.391 . S
C2037 H2025 0.950 . S
C2037 C2033 1.393 . S
C2037 C2036 1.391 . S
C2038 H2028 0.950 . S
C2038 C2039 1.386 . S
C2038 C2040 1.391 . S
C2039 C2038 1.386 . S
C2039 C2043 1.393 . S
C2040 H2029 0.950 . S
C2040 C2038 1.391 . S
C2040 C2041 1.400 . S
C2041 C2035 1.491 . S
C2041 C2040 1.400 . S
C2041 C2042 1.398 . S
C2042 H2030 0.950 . S
C2042 C2041 1.398 . S
C2042 C2043 1.391 . S
C2043 H2031 0.950 . S
C2043 C2039 1.393 . S
C2043 C2042 1.391 . S
H2044 C2052 0.950 . S
H2045 C2057 0.950 . S
H2046 C2054 0.950 . S
H2047 C2056 0.950 . S
H2048 C2058 0.950 . S
H2049 C2060 0.950 . S
H2050 C2062 0.950 . S
H2051 C2063 0.950 . S
C2052 H2044 0.950 . S
C2052 C2053 1.386 . S
C2052 C2054 1.391 . S
C2053 C2052 1.386 . S
C2053 C2057 1.393 . S
C2054 H2046 0.950 . S
C2054 C2052 1.391 . S
C2054 C2055 1.400 . S
C2055 C2054 1.400 . S
C2055 C2056 1.398 . S
C2055 C2061 1.491 . S
C2056 H2047 0.950 . S
C2056 C2055 1.398 . S
C2056 C2057 1.391 . S
C2057 H2045 0.950 . S
C2057 C2053 1.393 . S
C2057 C2056 1.391 . S
C2058 H2048 0.950 . S
C2058 C2059 1.386 . S
C2058 C2060 1.391 . S
C2059 C2058 1.386 . S
C2059 C2063 1.393 . S
C2060 H2049 0.950 . S
C2060 C2058 1.391 . S
C2060 C2061 1.400 . S
C2061 C2055 1.491 . S
C2061 C2060 1.400 . S
C2061 C2062 1.398 . S
C2062 H2050 0.950 . S
C2062 C2061 1.398 . S
C2062 C2063 1.391 . S
C2063 H2051 0.950 . S
C2063 C2059 1.393 . S
C2063 C2062 1.391 . S
H2064 C2072 0.950 . S
H2065 C2077 0.950 . S
H2066 C2074 0.950 . S
H2067 C2076 0.950 . S
H2068 C2078 0.950 . S
H2069 C2080 0.950 . S
H2070 C2082 0.940 1_655 S
H2071 C2083 0.950 . S
C2072 H2064 0.950 . S
C2072 C2073 1.386 . S
C2072 C2074 1.391 . S
C2073 C2072 1.386 . S
C2073 C2077 1.393 . S
C2074 H2066 0.950 . S
C2074 C2072 1.391 . S
C2074 C2075 1.400 . S
C2075 C2074 1.400 . S
C2075 C2076 1.398 . S
C2075 C2081 1.491 . S
C2076 H2067 0.950 . S
C2076 C2075 1.398 . S
C2076 C2077 1.391 . S
C2077 H2065 0.950 . S
C2077 C2073 1.393 . S
C2077 C2076 1.391 . S
C2078 H2068 0.950 . S
C2078 C2079 1.386 . S
C2078 C2080 1.391 . S
C2079 C2078 1.386 . S
C2079 C2083 1.393 1_455 S
C2080 H2069 0.950 . S
C2080 C2078 1.391 . S
C2080 C2081 1.400 . S
C2081 C2075 1.491 . S
C2081 C2080 1.400 . S
C2081 C2082 1.398 . S
C2082 H2070 0.940 1_455 S
C2082 C2081 1.398 . S
C2082 C2083 1.391 1_455 S
C2083 H2071 0.950 . S
C2083 C2079 1.393 1_655 S
C2083 C2082 1.391 1_655 S
H2084 C2092 0.950 . S
H2085 C2097 0.950 . S
H2086 C2094 0.950 . S
H2087 C2096 0.950 . S
H2088 C2098 0.950 . S
H2089 C2100 0.950 . S
H2090 C2102 0.950 . S
H2091 C2103 0.950 . S
C2092 H2084 0.950 . S
C2092 C2093 1.386 . S
C2092 C2094 1.391 . S
C2093 C2092 1.386 . S
C2093 C2097 1.393 . S
C2094 H2086 0.950 . S
C2094 C2092 1.391 . S
C2094 C2095 1.400 . S
C2095 C2094 1.400 . S
C2095 C2096 1.398 . S
C2095 C2101 1.491 . S
C2096 H2087 0.950 . S
C2096 C2095 1.398 . S
C2096 C2097 1.391 . S
C2097 H2085 0.950 . S
C2097 C2093 1.393 . S
C2097 C2096 1.391 . S
C2098 H2088 0.950 . S
C2098 C2099 1.386 . S
C2098 C2100 1.391 . S
C2099 C2098 1.386 . S
C2099 C2103 1.393 . S
C2100 H2089 0.950 . S
C2100 C2098 1.391 . S
C2100 C2101 1.400 . S
C2101 C2095 1.491 . S
C2101 C2100 1.400 . S
C2101 C2102 1.398 . S
C2102 H2090 0.950 . S
C2102 C2101 1.398 . S
C2102 C2103 1.391 . S
C2103 H2091 0.950 . S
C2103 C2099 1.393 . S
C2103 C2102 1.391 . S
H2104 C2112 0.950 . S
H2105 C2117 0.950 . S
H2106 C2114 0.950 . S
H2107 C2116 0.950 . S
H2108 C2118 0.950 . S
H2109 C2120 0.950 . S
H2110 C2122 0.953 . S
H2111 C2123 0.950 . S
C2112 H2104 0.950 . S
C2112 C2113 1.386 . S
C2112 C2114 1.391 . S
C2113 C2112 1.386 . S
C2113 C2117 1.393 . S
C2114 H2106 0.950 . S
C2114 C2112 1.391 . S
C2114 C2115 1.400 . S
C2115 C2114 1.400 . S
C2115 C2116 1.398 . S
C2115 C2121 1.491 . S
C2116 H2107 0.950 . S
C2116 C2115 1.398 . S
C2116 C2117 1.391 . S
C2117 H2105 0.950 . S
C2117 C2113 1.393 . S
C2117 C2116 1.391 . S
C2118 H2108 0.950 . S
C2118 C2119 1.386 . S
C2118 C2120 1.391 1_545 S
C2119 C2118 1.386 . S
C2119 C2123 1.393 . S
C2120 H2109 0.950 . S
C2120 C2118 1.391 1_565 S
C2120 C2121 1.400 . S
C2121 C2115 1.491 . S
C2121 C2120 1.400 . S
C2121 C2122 1.398 1_565 S
C2122 H2110 0.953 . S
C2122 C2121 1.398 1_545 S
C2122 C2123 1.391 . S
C2123 H2111 0.950 . S
C2123 C2119 1.393 . S
C2123 C2122 1.391 . S
H2124 C2132 0.950 . S
H2125 C2137 0.950 . S
H2126 C2134 0.950 . S
H2127 C2136 0.950 . S
H2128 C2138 0.950 . S
H2129 C2140 0.950 . S
H2130 C2142 0.950 . S
H2131 C2143 0.950 . S
C2132 H2124 0.950 . S
C2132 C2133 1.386 . S
C2132 C2134 1.391 . S
C2133 C2132 1.386 . S
C2133 C2137 1.393 . S
C2134 H2126 0.950 . S
C2134 C2132 1.391 . S
C2134 C2135 1.400 . S
C2135 C2134 1.400 . S
C2135 C2136 1.398 . S
C2135 C2141 1.491 . S
C2136 H2127 0.950 . S
C2136 C2135 1.398 . S
C2136 C2137 1.391 . S
C2137 H2125 0.950 . S
C2137 C2133 1.393 . S
C2137 C2136 1.391 . S
C2138 H2128 0.950 . S
C2138 C2139 1.386 . S
C2138 C2140 1.391 . S
C2139 C2138 1.386 . S
C2139 C2143 1.393 . S
C2140 H2129 0.950 . S
C2140 C2138 1.391 . S
C2140 C2141 1.400 . S
C2141 C2135 1.491 . S
C2141 C2140 1.400 . S
C2141 C2142 1.398 . S
C2142 H2130 0.950 . S
C2142 C2141 1.398 . S
C2142 C2143 1.391 . S
C2143 H2131 0.950 . S
C2143 C2139 1.393 . S
C2143 C2142 1.391 . S
H2144 C2152 0.950 . S
H2145 C2157 0.950 . S
H2146 C2154 0.950 . S
H2147 C2156 0.950 . S
H2148 C2158 0.950 1_554 S
H2149 C2160 0.950 . S
H2150 C2162 0.950 . S
H2151 C2163 0.950 . S
C2152 H2144 0.950 . S
C2152 C2153 1.386 . S
C2152 C2154 1.391 . S
C2153 C2152 1.386 . S
C2153 C2157 1.393 . S
C2154 H2146 0.950 . S
C2154 C2152 1.391 . S
C2154 C2155 1.400 . S
C2155 C2154 1.400 . S
C2155 C2156 1.398 . S
C2155 C2161 1.491 . S
C2156 H2147 0.950 . S
C2156 C2155 1.398 . S
C2156 C2157 1.391 . S
C2157 H2145 0.950 . S
C2157 C2153 1.393 . S
C2157 C2156 1.391 . S
C2158 H2148 0.950 1_556 S
C2158 C2159 1.386 . S
C2158 C2160 1.391 . S
C2159 C2158 1.386 . S
C2159 C2163 1.393 . S
C2160 H2149 0.950 . S
C2160 C2158 1.391 . S
C2160 C2161 1.400 . S
C2161 C2155 1.491 . S
C2161 C2160 1.400 . S
C2161 C2162 1.398 . S
C2162 H2150 0.950 . S
C2162 C2161 1.398 . S
C2162 C2163 1.391 . S
C2163 H2151 0.950 . S
C2163 C2159 1.393 . S
C2163 C2162 1.391 . S
H2164 C2172 0.950 . S
H2165 C2177 0.950 . S
H2166 C2174 0.950 . S
H2167 C2176 0.950 . S
H2168 C2178 0.950 . S
H2169 C2180 0.950 . S
H2170 C2182 0.950 . S
H2171 C2183 0.950 . S
C2172 H2164 0.950 . S
C2172 C2173 1.386 . S
C2172 C2174 1.391 . S
C2173 C2172 1.386 . S
C2173 C2177 1.393 . S
C2174 H2166 0.950 . S
C2174 C2172 1.391 . S
C2174 C2175 1.400 . S
C2175 C2174 1.400 . S
C2175 C2176 1.398 . S
C2175 C2181 1.491 . S
C2176 H2167 0.950 . S
C2176 C2175 1.398 . S
C2176 C2177 1.391 . S
C2177 H2165 0.950 . S
C2177 C2173 1.393 . S
C2177 C2176 1.391 . S
C2178 H2168 0.950 . S
C2178 C2179 1.386 . S
C2178 C2180 1.391 . S
C2179 C2178 1.386 . S
C2179 C2183 1.393 . S
C2180 H2169 0.950 . S
C2180 C2178 1.391 . S
C2180 C2181 1.400 . S
C2181 C2175 1.491 . S
C2181 C2180 1.400 . S
C2181 C2182 1.398 . S
C2182 H2170 0.950 . S
C2182 C2181 1.398 . S
C2182 C2183 1.391 . S
C2183 H2171 0.950 . S
C2183 C2179 1.393 . S
C2183 C2182 1.391 . S
H2184 C2192 0.950 . S
H2185 C2197 0.950 . S
H2186 C2194 0.950 . S
H2187 C2196 0.950 . S
H2188 C2198 0.950 . S
H2189 C2200 0.950 . S
H2190 C2202 0.950 . S
H2191 C2203 0.950 . S
C2192 H2184 0.950 . S
C2192 C2193 1.386 . S
C2192 C2194 1.391 . S
C2193 C2192 1.386 . S
C2193 C2197 1.393 . S
C2194 H2186 0.950 . S
C2194 C2192 1.391 . S
C2194 C2195 1.400 . S
C2195 C2194 1.400 . S
C2195 C2196 1.398 . S
C2195 C2201 1.491 . S
C2196 H2187 0.950 . S
C2196 C2195 1.398 . S
C2196 C2197 1.391 . S
C2197 H2185 0.950 . S
C2197 C2193 1.393 . S
C2197 C2196 1.391 . S
C2198 H2188 0.950 . S
C2198 C2199 1.386 . S
C2198 C2200 1.391 . S
C2199 C2198 1.386 . S
C2199 C2203 1.393 . S
C2200 H2189 0.950 . S
C2200 C2198 1.391 . S
C2200 C2201 1.400 . S
C2201 C2195 1.491 . S
C2201 C2200 1.400 . S
C2201 C2202 1.398 . S
C2202 H2190 0.950 . S
C2202 C2201 1.398 . S
C2202 C2203 1.391 . S
C2203 H2191 0.950 . S
C2203 C2199 1.393 . S
C2203 C2202 1.391 . S
H2204 C2212 0.950 . S
H2205 C2217 0.950 . S
H2206 C2214 0.950 . S
H2207 C2216 0.950 . S
H2208 C2218 0.950 . S
H2209 C2220 0.950 . S
H2210 C2222 0.950 . S
H2211 C2223 0.950 . S
C2212 H2204 0.950 . S
C2212 C2213 1.386 . S
C2212 C2214 1.391 . S
C2213 C2212 1.386 . S
C2213 C2217 1.393 . S
C2214 H2206 0.950 . S
C2214 C2212 1.391 . S
C2214 C2215 1.400 . S
C2215 C2214 1.400 . S
C2215 C2216 1.398 . S
C2215 C2221 1.491 . S
C2216 H2207 0.950 . S
C2216 C2215 1.398 . S
C2216 C2217 1.391 . S
C2217 H2205 0.950 . S
C2217 C2213 1.393 . S
C2217 C2216 1.391 . S
C2218 H2208 0.950 . S
C2218 C2219 1.386 . S
C2218 C2220 1.391 . S
C2219 C2218 1.386 . S
C2219 C2223 1.393 . S
C2220 H2209 0.950 . S
C2220 C2218 1.391 . S
C2220 C2221 1.400 . S
C2221 C2215 1.491 . S
C2221 C2220 1.400 . S
C2221 C2222 1.398 . S
C2222 H2210 0.950 . S
C2222 C2221 1.398 . S
C2222 C2223 1.391 . S
C2223 H2211 0.950 . S
C2223 C2219 1.393 . S
C2223 C2222 1.391 . S
H2224 C2232 0.950 . S
H2225 C2237 0.950 . S
H2226 C2234 0.950 . S
H2227 C2236 0.950 . S
H2228 C2238 0.950 . S
H2229 C2240 0.950 . S
H2230 C2242 0.950 . S
H2231 C2243 0.950 . S
C2232 H2224 0.950 . S
C2232 C2233 1.386 . S
C2232 C2234 1.391 . S
C2233 C2232 1.386 . S
C2233 C2237 1.393 . S
C2234 H2226 0.950 . S
C2234 C2232 1.391 . S
C2234 C2235 1.400 . S
C2235 C2234 1.400 . S
C2235 C2236 1.398 . S
C2235 C2241 1.491 . S
C2236 H2227 0.950 . S
C2236 C2235 1.398 . S
C2236 C2237 1.391 . S
C2237 H2225 0.950 . S
C2237 C2233 1.393 . S
C2237 C2236 1.391 . S
C2238 H2228 0.950 . S
C2238 C2239 1.386 . S
C2238 C2240 1.391 . S
C2239 C2238 1.386 . S
C2239 C2243 1.393 . S
C2240 H2229 0.950 . S
C2240 C2238 1.391 . S
C2240 C2241 1.400 . S
C2241 C2235 1.491 . S
C2241 C2240 1.400 . S
C2241 C2242 1.398 . S
C2242 H2230 0.950 . S
C2242 C2241 1.398 . S
C2242 C2243 1.391 . S
C2243 H2231 0.950 . S
C2243 C2239 1.393 . S
C2243 C2242 1.391 . S
H2244 C2252 0.950 . S
H2245 C2257 0.950 . S
H2246 C2254 0.950 . S
H2247 C2256 0.950 . S
H2248 C2258 0.950 . S
H2249 C2260 0.950 . S
H2250 C2262 0.950 . S
H2251 C2263 0.950 . S
C2252 H2244 0.950 . S
C2252 C2253 1.386 . S
C2252 C2254 1.391 . S
C2253 C2252 1.386 . S
C2253 C2257 1.393 . S
C2254 H2246 0.950 . S
C2254 C2252 1.391 . S
C2254 C2255 1.400 . S
C2255 C2254 1.400 . S
C2255 C2256 1.398 . S
C2255 C2261 1.491 . S
C2256 H2247 0.950 . S
C2256 C2255 1.398 . S
C2256 C2257 1.391 . S
C2257 H2245 0.950 . S
C2257 C2253 1.393 . S
C2257 C2256 1.391 . S
C2258 H2248 0.950 . S
C2258 C2259 1.386 . S
C2258 C2260 1.391 . S
C2259 C2258 1.386 . S
C2259 C2263 1.393 . S
C2260 H2249 0.950 . S
C2260 C2258 1.391 . S
C2260 C2261 1.400 . S
C2261 C2255 1.491 . S
C2261 C2260 1.400 . S
C2261 C2262 1.398 . S
C2262 H2250 0.950 . S
C2262 C2261 1.398 . S
C2262 C2263 1.391 . S
C2263 H2251 0.950 . S
C2263 C2259 1.393 . S
C2263 C2262 1.391 . S
H2264 C2272 0.950 . S
H2265 C2277 0.950 . S
H2266 C2274 0.950 . S
H2267 C2276 0.950 . S
H2268 C2278 0.950 . S
H2269 C2280 0.950 . S
H2270 C2282 0.950 . S
H2271 C2283 0.950 . S
C2272 H2264 0.950 . S
C2272 C2273 1.386 . S
C2272 C2274 1.391 . S
C2273 C2272 1.386 . S
C2273 C2277 1.393 . S
C2274 H2266 0.950 . S
C2274 C2272 1.391 . S
C2274 C2275 1.400 . S
C2275 C2274 1.400 . S
C2275 C2276 1.398 . S
C2275 C2281 1.491 . S
C2276 H2267 0.950 . S
C2276 C2275 1.398 . S
C2276 C2277 1.391 . S
C2277 H2265 0.950 . S
C2277 C2273 1.393 . S
C2277 C2276 1.391 . S
C2278 H2268 0.950 . S
C2278 C2279 1.386 . S
C2278 C2280 1.391 . S
C2279 C2278 1.386 . S
C2279 C2283 1.393 . S
C2280 H2269 0.950 . S
C2280 C2278 1.391 . S
C2280 C2281 1.400 . S
C2281 C2275 1.491 . S
C2281 C2280 1.400 . S
C2281 C2282 1.398 . S
C2282 H2270 0.950 . S
C2282 C2281 1.398 . S
C2282 C2283 1.391 . S
C2283 H2271 0.950 . S
C2283 C2279 1.393 . S
C2283 C2282 1.391 . S
H2284 C2292 0.950 . S
H2285 C2297 0.950 . S
H2286 C2294 0.950 . S
H2287 C2296 0.950 . S
H2288 C2298 0.950 . S
H2289 C2300 0.950 . S
H2290 C2302 0.950 . S
H2291 C2303 0.950 . S
C2292 H2284 0.950 . S
C2292 C2293 1.386 . S
C2292 C2294 1.391 . S
C2293 C2292 1.386 . S
C2293 C2297 1.393 . S
C2294 H2286 0.950 . S
C2294 C2292 1.391 . S
C2294 C2295 1.400 . S
C2295 C2294 1.400 . S
C2295 C2296 1.398 . S
C2295 C2301 1.491 . S
C2296 H2287 0.950 . S
C2296 C2295 1.398 . S
C2296 C2297 1.391 . S
C2297 H2285 0.950 . S
C2297 C2293 1.393 . S
C2297 C2296 1.391 . S
C2298 H2288 0.950 . S
C2298 C2299 1.386 . S
C2298 C2300 1.391 . S
C2299 C2298 1.386 . S
C2299 C2303 1.393 . S
C2300 H2289 0.950 . S
C2300 C2298 1.391 . S
C2300 C2301 1.400 . S
C2301 C2295 1.491 . S
C2301 C2300 1.400 . S
C2301 C2302 1.398 . S
C2302 H2290 0.950 . S
C2302 C2301 1.398 . S
C2302 C2303 1.391 . S
C2303 H2291 0.950 . S
C2303 C2299 1.393 . S
C2303 C2302 1.391 . S
H2304 C2312 0.950 . S
H2305 C2317 0.950 . S
H2306 C2314 0.950 . S
H2307 C2316 0.950 . S
H2308 C2318 0.950 . S
H2309 C2320 0.950 . S
H2310 C2322 0.950 . S
H2311 C2323 0.950 . S
C2312 H2304 0.950 . S
C2312 C2313 1.386 . S
C2312 C2314 1.391 . S
C2313 C2312 1.386 . S
C2313 C2317 1.393 . S
C2314 H2306 0.950 . S
C2314 C2312 1.391 . S
C2314 C2315 1.400 . S
C2315 C2314 1.400 . S
C2315 C2316 1.398 . S
C2315 C2321 1.491 . S
C2316 H2307 0.950 . S
C2316 C2315 1.398 . S
C2316 C2317 1.391 . S
C2317 H2305 0.950 . S
C2317 C2313 1.393 . S
C2317 C2316 1.391 . S
C2318 H2308 0.950 . S
C2318 C2319 1.386 . S
C2318 C2320 1.391 . S
C2319 C2318 1.386 . S
C2319 C2323 1.393 . S
C2320 H2309 0.950 . S
C2320 C2318 1.391 . S
C2320 C2321 1.400 . S
C2321 C2315 1.491 . S
C2321 C2320 1.400 . S
C2321 C2322 1.398 . S
C2322 H2310 0.950 . S
C2322 C2321 1.398 . S
C2322 C2323 1.391 . S
C2323 H2311 0.950 . S
C2323 C2319 1.393 . S
C2323 C2322 1.391 . S
H2324 C2332 0.950 . S
H2325 C2337 0.950 . S
H2326 C2334 0.950 . S
H2327 C2336 0.950 . S
H2328 C2338 0.950 . S
H2329 C2340 0.950 . S
H2330 C2342 0.950 . S
H2331 C2343 0.950 . S
C2332 H2324 0.950 . S
C2332 C2333 1.386 . S
C2332 C2334 1.391 . S
C2333 C2332 1.386 . S
C2333 C2337 1.393 . S
C2334 H2326 0.950 . S
C2334 C2332 1.391 . S
C2334 C2335 1.400 . S
C2335 C2334 1.400 . S
C2335 C2336 1.398 . S
C2335 C2341 1.491 . S
C2336 H2327 0.950 . S
C2336 C2335 1.398 . S
C2336 C2337 1.391 . S
C2337 H2325 0.950 . S
C2337 C2333 1.393 . S
C2337 C2336 1.391 . S
C2338 H2328 0.950 . S
C2338 C2339 1.386 . S
C2338 C2340 1.391 . S
C2339 C2338 1.386 . S
C2339 C2343 1.393 . S
C2340 H2329 0.950 . S
C2340 C2338 1.391 . S
C2340 C2341 1.400 . S
C2341 C2335 1.491 . S
C2341 C2340 1.400 . S
C2341 C2342 1.398 . S
C2342 H2330 0.950 . S
C2342 C2341 1.398 . S
C2342 C2343 1.391 . S
C2343 H2331 0.950 . S
C2343 C2339 1.393 . S
C2343 C2342 1.391 . S
H2344 C2352 0.950 . S
H2345 C2357 0.950 . S
H2346 C2354 0.950 . S
H2347 C2356 0.950 . S
H2348 C2358 0.950 . S
H2349 C2360 0.950 . S
H2350 C2362 0.950 . S
H2351 C2363 0.950 . S
C2352 H2344 0.950 . S
C2352 C2353 1.386 . S
C2352 C2354 1.391 . S
C2353 C2352 1.386 . S
C2353 C2357 1.393 . S
C2354 H2346 0.950 . S
C2354 C2352 1.391 . S
C2354 C2355 1.400 . S
C2355 C2354 1.400 . S
C2355 C2356 1.398 . S
C2355 C2361 1.491 . S
C2356 H2347 0.950 . S
C2356 C2355 1.398 . S
C2356 C2357 1.391 . S
C2357 H2345 0.950 . S
C2357 C2353 1.393 . S
C2357 C2356 1.391 . S
C2358 H2348 0.950 . S
C2358 C2359 1.386 . S
C2358 C2360 1.391 . S
C2359 C2358 1.386 . S
C2359 C2363 1.393 . S
C2360 H2349 0.950 . S
C2360 C2358 1.391 . S
C2360 C2361 1.400 . S
C2361 C2355 1.491 . S
C2361 C2360 1.400 . S
C2361 C2362 1.398 . S
C2362 H2350 0.950 . S
C2362 C2361 1.398 . S
C2362 C2363 1.391 . S
C2363 H2351 0.950 . S
C2363 C2359 1.393 . S
C2363 C2362 1.391 . S
H2364 C2372 0.950 . S
H2365 C2377 0.950 . S
H2366 C2374 0.950 . S
H2367 C2376 0.950 . S
H2368 C2378 0.950 . S
H2369 C2380 0.950 . S
H2370 C2382 0.950 . S
H2371 C2383 0.950 . S
C2372 H2364 0.950 . S
C2372 C2373 1.386 . S
C2372 C2374 1.391 . S
C2373 C2372 1.386 . S
C2373 C2377 1.393 . S
C2374 H2366 0.950 . S
C2374 C2372 1.391 . S
C2374 C2375 1.400 . S
C2375 C2374 1.400 . S
C2375 C2376 1.398 . S
C2375 C2381 1.491 . S
C2376 H2367 0.950 . S
C2376 C2375 1.398 . S
C2376 C2377 1.391 . S
C2377 H2365 0.950 . S
C2377 C2373 1.393 . S
C2377 C2376 1.391 . S
C2378 H2368 0.950 . S
C2378 C2379 1.386 . S
C2378 C2380 1.391 . S
C2379 C2378 1.386 . S
C2379 C2383 1.393 . S
C2380 H2369 0.950 . S
C2380 C2378 1.391 . S
C2380 C2381 1.400 . S
C2381 C2375 1.491 . S
C2381 C2380 1.400 . S
C2381 C2382 1.398 . S
C2382 H2370 0.950 . S
C2382 C2381 1.398 . S
C2382 C2383 1.391 . S
C2383 H2371 0.950 . S
C2383 C2379 1.393 . S
C2383 C2382 1.391 . S
H2384 C2392 0.950 . S
H2385 C2397 0.950 . S
H2386 C2394 0.950 . S
H2387 C2396 0.950 . S
H2388 C2398 0.950 . S
H2389 C2400 0.950 . S
H2390 C2402 0.950 . S
H2391 C2403 0.950 . S
C2392 H2384 0.950 . S
C2392 C2393 1.386 . S
C2392 C2394 1.391 . S
C2393 C2392 1.386 . S
C2393 C2397 1.393 . S
C2394 H2386 0.950 . S
C2394 C2392 1.391 . S
C2394 C2395 1.400 . S
C2395 C2394 1.400 . S
C2395 C2396 1.398 . S
C2395 C2401 1.491 . S
C2396 H2387 0.950 . S
C2396 C2395 1.398 . S
C2396 C2397 1.391 . S
C2397 H2385 0.950 . S
C2397 C2393 1.393 . S
C2397 C2396 1.391 . S
C2398 H2388 0.950 . S
C2398 C2399 1.386 . S
C2398 C2400 1.391 . S
C2399 C2398 1.386 . S
C2399 C2403 1.393 . S
C2400 H2389 0.950 . S
C2400 C2398 1.391 . S
C2400 C2401 1.400 . S
C2401 C2395 1.491 . S
C2401 C2400 1.400 . S
C2401 C2402 1.398 . S
C2402 H2390 0.950 . S
C2402 C2401 1.398 . S
C2402 C2403 1.391 . S
C2403 H2391 0.950 . S
C2403 C2399 1.393 . S
C2403 C2402 1.391 . S
H2404 C2412 0.950 . S
H2405 C2417 0.950 . S
H2406 C2414 0.950 . S
H2407 C2416 0.946 1_565 S
H2408 C2418 0.950 . S
H2409 C2420 0.951 . S
H2410 C2422 0.950 . S
H2411 C2423 0.950 . S
C2412 H2404 0.950 . S
C2412 C2413 1.386 . S
C2412 C2414 1.391 . S
C2413 C2412 1.386 . S
C2413 C2417 1.393 1_545 S
C2414 H2406 0.950 . S
C2414 C2412 1.391 . S
C2414 C2415 1.400 . S
C2415 C2414 1.400 . S
C2415 C2416 1.420 . S
C2415 C2421 1.491 . S
C2416 H2407 0.946 1_545 S
C2416 C2415 1.420 . S
C2416 C2417 1.374 1_545 S
C2417 H2405 0.950 . S
C2417 C2413 1.393 1_565 S
C2417 C2416 1.374 1_565 S
C2418 H2408 0.950 . S
C2418 C2419 1.386 . S
C2418 C2420 1.391 . S
C2419 C2418 1.386 . S
C2419 C2423 1.393 . S
C2420 H2409 0.951 . S
C2420 C2418 1.391 . S
C2420 C2421 1.400 . S
C2421 C2415 1.491 . S
C2421 C2420 1.400 . S
C2421 C2422 1.398 . S
C2422 H2410 0.950 . S
C2422 C2421 1.398 . S
C2422 C2423 1.391 . S
C2423 H2411 0.950 . S
C2423 C2419 1.393 . S
C2423 C2422 1.391 . S
H2424 C2432 0.950 . S
H2425 C2437 0.950 . S
H2426 C2434 0.950 . S
H2427 C2436 0.950 . S
H2428 C2438 0.950 . S
H2429 C2440 0.950 . S
H2430 C2442 0.950 . S
H2431 C2443 0.950 . S
C2432 H2424 0.950 . S
C2432 C2433 1.386 . S
C2432 C2434 1.391 . S
C2433 C2432 1.386 . S
C2433 C2437 1.393 . S
C2434 H2426 0.950 . S
C2434 C2432 1.391 . S
C2434 C2435 1.400 . S
C2435 C2434 1.400 . S
C2435 C2436 1.398 . S
C2435 C2441 1.491 . S
C2436 H2427 0.950 . S
C2436 C2435 1.398 . S
C2436 C2437 1.391 . S
C2437 H2425 0.950 . S
C2437 C2433 1.393 . S
C2437 C2436 1.391 . S
C2438 H2428 0.950 . S
C2438 C2439 1.386 . S
C2438 C2440 1.391 . S
C2439 C2438 1.386 . S
C2439 C2443 1.393 . S
C2440 H2429 0.950 . S
C2440 C2438 1.391 . S
C2440 C2441 1.400 . S
C2441 C2435 1.491 . S
C2441 C2440 1.400 . S
C2441 C2442 1.398 . S
C2442 H2430 0.950 . S
C2442 C2441 1.398 . S
C2442 C2443 1.391 . S
C2443 H2431 0.950 . S
C2443 C2439 1.393 . S
C2443 C2442 1.391 . S
H2444 C2452 0.950 . S
H2445 C2457 0.950 . S
H2446 C2454 0.950 . S
H2447 C2456 0.950 . S
H2448 C2458 0.950 . S
H2449 C2460 0.950 . S
H2450 C2462 0.950 . S
H2451 C2463 0.950 . S
C2452 H2444 0.950 . S
C2452 C2453 1.386 . S
C2452 C2454 1.391 . S
C2453 C2452 1.386 . S
C2453 C2457 1.393 . S
C2454 H2446 0.950 . S
C2454 C2452 1.391 . S
C2454 C2455 1.400 . S
C2455 C2454 1.400 . S
C2455 C2456 1.398 . S
C2455 C2461 1.491 . S
C2456 H2447 0.950 . S
C2456 C2455 1.398 . S
C2456 C2457 1.391 . S
C2457 H2445 0.950 . S
C2457 C2453 1.393 . S
C2457 C2456 1.391 . S
C2458 H2448 0.950 . S
C2458 C2459 1.386 . S
C2458 C2460 1.391 . S
C2459 C2458 1.386 . S
C2459 C2463 1.393 . S
C2460 H2449 0.950 . S
C2460 C2458 1.391 . S
C2460 C2461 1.400 . S
C2461 C2455 1.491 . S
C2461 C2460 1.400 . S
C2461 C2462 1.398 . S
C2462 H2450 0.950 . S
C2462 C2461 1.398 . S
C2462 C2463 1.391 . S
C2463 H2451 0.950 . S
C2463 C2459 1.393 . S
C2463 C2462 1.391 . S
H2464 C2472 0.950 . S
H2465 C2477 0.950 . S
H2466 C2474 0.950 . S
H2467 C2476 0.950 . S
H2468 C2478 0.950 . S
H2469 C2480 0.950 . S
H2470 C2482 0.950 . S
H2471 C2483 0.950 . S
C2472 H2464 0.950 . S
C2472 C2473 1.386 . S
C2472 C2474 1.391 . S
C2473 C2472 1.386 . S
C2473 C2477 1.393 . S
C2474 H2466 0.950 . S
C2474 C2472 1.391 . S
C2474 C2475 1.400 . S
C2475 C2474 1.400 . S
C2475 C2476 1.398 . S
C2475 C2481 1.491 . S
C2476 H2467 0.950 . S
C2476 C2475 1.398 . S
C2476 C2477 1.391 . S
C2477 H2465 0.950 . S
C2477 C2473 1.393 . S
C2477 C2476 1.391 . S
C2478 H2468 0.950 . S
C2478 C2479 1.386 . S
C2478 C2480 1.391 . S
C2479 C2478 1.386 . S
C2479 C2483 1.393 . S
C2480 H2469 0.950 . S
C2480 C2478 1.391 . S
C2480 C2481 1.400 . S
C2481 C2475 1.491 . S
C2481 C2480 1.400 . S
C2481 C2482 1.398 . S
C2482 H2470 0.950 . S
C2482 C2481 1.398 . S
C2482 C2483 1.391 . S
C2483 H2471 0.950 . S
C2483 C2479 1.393 . S
C2483 C2482 1.391 . S
H2484 C2492 0.950 . S
H2485 C2497 0.950 . S
H2486 C2494 0.950 . S
H2487 C2496 0.950 . S
H2488 C2498 0.950 . S
H2489 C2500 0.950 . S
H2490 C2502 0.950 . S
H2491 C2503 0.950 . S
C2492 H2484 0.950 . S
C2492 C2493 1.386 . S
C2492 C2494 1.391 . S
C2493 C2492 1.386 . S
C2493 C2497 1.393 . S
C2494 H2486 0.950 . S
C2494 C2492 1.391 . S
C2494 C2495 1.400 . S
C2495 C2494 1.400 . S
C2495 C2496 1.398 . S
C2495 C2501 1.491 . S
C2496 H2487 0.950 . S
C2496 C2495 1.398 . S
C2496 C2497 1.391 . S
C2497 H2485 0.950 . S
C2497 C2493 1.393 . S
C2497 C2496 1.391 . S
C2498 H2488 0.950 . S
C2498 C2499 1.386 . S
C2498 C2500 1.391 . S
C2499 C2498 1.386 . S
C2499 C2503 1.393 . S
C2500 H2489 0.950 . S
C2500 C2498 1.391 . S
C2500 C2501 1.400 . S
C2501 C2495 1.491 . S
C2501 C2500 1.400 . S
C2501 C2502 1.398 . S
C2502 H2490 0.950 . S
C2502 C2501 1.398 . S
C2502 C2503 1.391 . S
C2503 H2491 0.950 . S
C2503 C2499 1.393 . S
C2503 C2502 1.391 . S
H2504 C2512 0.950 . S
H2505 C2517 0.950 . S
H2506 C2514 0.950 . S
H2507 C2516 0.950 . S
H2508 C2518 0.950 . S
H2509 C2520 0.950 . S
H2510 C2522 0.950 . S
H2511 C2523 0.950 . S
C2512 H2504 0.950 . S
C2512 C2513 1.386 . S
C2512 C2514 1.391 . S
C2513 C2512 1.386 . S
C2513 C2517 1.393 . S
C2514 H2506 0.950 . S
C2514 C2512 1.391 . S
C2514 C2515 1.400 . S
C2515 C2514 1.400 . S
C2515 C2516 1.398 . S
C2515 C2521 1.491 1_556 S
C2516 H2507 0.950 . S
C2516 C2515 1.398 . S
C2516 C2517 1.391 . S
C2517 H2505 0.950 . S
C2517 C2513 1.393 . S
C2517 C2516 1.391 . S
C2518 H2508 0.950 . S
C2518 C2519 1.386 . S
C2518 C2520 1.391 . S
C2519 C2518 1.386 . S
C2519 C2523 1.393 . S
C2520 H2509 0.950 . S
C2520 C2518 1.391 . S
C2520 C2521 1.400 . S
C2521 C2515 1.491 1_554 S
C2521 C2520 1.400 . S
C2521 C2522 1.398 . S
C2522 H2510 0.950 . S
C2522 C2521 1.398 . S
C2522 C2523 1.391 . S
C2523 H2511 0.950 . S
C2523 C2519 1.393 . S
C2523 C2522 1.391 . S
H2524 C2532 0.950 . S
H2525 C2537 0.950 . S
H2526 C2534 0.950 . S
H2527 C2536 0.950 . S
H2528 C2538 0.950 . S
H2529 C2540 0.950 . S
H2530 C2542 0.950 . S
H2531 C2543 0.950 . S
C2532 H2524 0.950 . S
C2532 C2533 1.386 . S
C2532 C2534 1.391 . S
C2533 C2532 1.386 . S
C2533 C2537 1.393 . S
C2534 H2526 0.950 . S
C2534 C2532 1.391 . S
C2534 C2535 1.400 . S
C2535 C2534 1.400 . S
C2535 C2536 1.398 . S
C2535 C2541 1.491 . S
C2536 H2527 0.950 . S
C2536 C2535 1.398 . S
C2536 C2537 1.391 . S
C2537 H2525 0.950 . S
C2537 C2533 1.393 . S
C2537 C2536 1.391 . S
C2538 H2528 0.950 . S
C2538 C2539 1.386 . S
C2538 C2540 1.391 . S
C2539 C2538 1.386 . S
C2539 C2543 1.393 . S
C2540 H2529 0.950 . S
C2540 C2538 1.391 . S
C2540 C2541 1.400 . S
C2541 C2535 1.491 . S
C2541 C2540 1.400 . S
C2541 C2542 1.398 . S
C2542 H2530 0.950 . S
C2542 C2541 1.398 . S
C2542 C2543 1.391 . S
C2543 H2531 0.950 . S
C2543 C2539 1.393 . S
C2543 C2542 1.391 . S
H2544 C2552 0.950 . S
H2545 C2557 0.950 . S
H2546 C2554 0.950 . S
H2547 C2556 0.950 . S
H2548 C2558 0.950 . S
H2549 C2560 0.950 . S
H2550 C2562 0.950 . S
H2551 C2563 0.950 . S
C2552 H2544 0.950 . S
C2552 C2553 1.386 . S
C2552 C2554 1.391 . S
C2553 C2552 1.386 . S
C2553 C2557 1.393 . S
C2554 H2546 0.950 . S
C2554 C2552 1.391 . S
C2554 C2555 1.400 . S
C2555 C2554 1.400 . S
C2555 C2556 1.398 . S
C2555 C2561 1.491 . S
C2556 H2547 0.950 . S
C2556 C2555 1.398 . S
C2556 C2557 1.391 . S
C2557 H2545 0.950 . S
C2557 C2553 1.393 . S
C2557 C2556 1.391 . S
C2558 H2548 0.950 . S
C2558 C2559 1.386 . S
C2558 C2560 1.391 . S
C2559 C2558 1.386 . S
C2559 C2563 1.393 . S
C2560 H2549 0.950 . S
C2560 C2558 1.391 . S
C2560 C2561 1.400 . S
C2561 C2555 1.491 . S
C2561 C2560 1.400 . S
C2561 C2562 1.398 . S
C2562 H2550 0.950 . S
C2562 C2561 1.398 . S
C2562 C2563 1.391 . S
C2563 H2551 0.950 . S
C2563 C2559 1.393 . S
C2563 C2562 1.391 . S
H2564 C2572 0.950 . S
H2565 C2577 0.950 . S
H2566 C2574 0.950 . S
H2567 C2576 0.950 . S
H2568 C2578 0.950 . S
H2569 C2580 0.950 . S
H2570 C2582 0.950 . S
H2571 C2583 0.950 . S
C2572 H2564 0.950 . S
C2572 C2573 1.386 . S
C2572 C2574 1.391 . S
C2573 C2572 1.386 . S
C2573 C2577 1.393 . S
C2574 H2566 0.950 . S
C2574 C2572 1.391 . S
C2574 C2575 1.400 1_455 S
C2575 C2574 1.400 1_655 S
C2575 C2576 1.398 . S
C2575 C2581 1.491 . S
C2576 H2567 0.950 . S
C2576 C2575 1.398 . S
C2576 C2577 1.391 1_655 S
C2577 H2565 0.950 . S
C2577 C2573 1.393 . S
C2577 C2576 1.391 1_455 S
C2578 H2568 0.950 . S
C2578 C2579 1.386 . S
C2578 C2580 1.391 . S
C2579 C2578 1.386 . S
C2579 C2583 1.393 . S
C2580 H2569 0.950 . S
C2580 C2578 1.391 . S
C2580 C2581 1.400 . S
C2581 C2575 1.491 . S
C2581 C2580 1.400 . S
C2581 C2582 1.398 . S
C2582 H2570 0.950 . S
C2582 C2581 1.398 . S
C2582 C2583 1.391 . S
C2583 H2571 0.950 . S
C2583 C2579 1.393 . S
C2583 C2582 1.391 . S
H2584 C2592 0.950 . S
H2585 C2597 0.950 . S
H2586 C2594 0.950 . S
H2587 C2596 0.950 . S
H2588 C2598 0.950 . S
H2589 C2600 0.950 . S
H2590 C2602 0.950 1_655 S
H2591 C2603 0.950 . S
C2592 H2584 0.950 . S
C2592 C2593 1.386 . S
C2592 C2594 1.391 . S
C2593 C2592 1.386 . S
C2593 C2597 1.393 1_655 S
C2594 H2586 0.950 . S
C2594 C2592 1.391 . S
C2594 C2595 1.400 1_655 S
C2595 C2594 1.400 1_455 S
C2595 C2596 1.398 . S
C2595 C2601 1.491 . S
C2596 H2587 0.950 . S
C2596 C2595 1.398 . S
C2596 C2597 1.391 . S
C2597 H2585 0.950 . S
C2597 C2593 1.393 1_455 S
C2597 C2596 1.391 . S
C2598 H2588 0.950 . S
C2598 C2599 1.386 . S
C2598 C2600 1.391 . S
C2599 C2598 1.386 . S
C2599 C2603 1.393 . S
C2600 H2589 0.950 . S
C2600 C2598 1.391 . S
C2600 C2601 1.400 . S
C2601 C2595 1.491 . S
C2601 C2600 1.400 . S
C2601 C2602 1.398 . S
C2602 H2590 0.950 1_455 S
C2602 C2601 1.398 . S
C2602 C2603 1.391 . S
C2603 H2591 0.950 . S
C2603 C2599 1.393 . S
C2603 C2602 1.391 . S
H2604 C2612 0.950 . S
H2605 C2617 0.950 . S
H2606 C2614 0.950 . S
H2607 C2616 0.950 . S
H2608 C2618 0.950 . S
H2609 C2620 0.950 . S
H2610 C2622 0.950 . S
H2611 C2623 0.950 . S
C2612 H2604 0.950 . S
C2612 C2613 1.386 . S
C2612 C2614 1.391 . S
C2613 C2612 1.386 . S
C2613 C2617 1.393 . S
C2614 H2606 0.950 . S
C2614 C2612 1.391 . S
C2614 C2615 1.400 . S
C2615 C2614 1.400 . S
C2615 C2616 1.398 . S
C2615 C2621 1.491 . S
C2616 H2607 0.950 . S
C2616 C2615 1.398 . S
C2616 C2617 1.391 . S
C2617 H2605 0.950 . S
C2617 C2613 1.393 . S
C2617 C2616 1.391 . S
C2618 H2608 0.950 . S
C2618 C2619 1.386 . S
C2618 C2620 1.391 . S
C2619 C2618 1.386 . S
C2619 C2623 1.393 . S
C2620 H2609 0.950 . S
C2620 C2618 1.391 . S
C2620 C2621 1.400 . S
C2621 C2615 1.491 . S
C2621 C2620 1.400 . S
C2621 C2622 1.398 . S
C2622 H2610 0.950 . S
C2622 C2621 1.398 . S
C2622 C2623 1.391 . S
C2623 H2611 0.950 . S
C2623 C2619 1.393 . S
C2623 C2622 1.391 . S
H2624 C2632 0.950 . S
H2625 C2637 0.950 . S
H2626 C2634 0.950 . S
H2627 C2636 0.950 . S
H2628 C2638 0.950 . S
H2629 C2640 0.950 . S
H2630 C2642 0.950 . S
H2631 C2643 0.950 . S
C2632 H2624 0.950 . S
C2632 C2633 1.386 . S
C2632 C2634 1.391 . S
C2633 C2632 1.386 . S
C2633 C2637 1.393 . S
C2634 H2626 0.950 . S
C2634 C2632 1.391 . S
C2634 C2635 1.400 . S
C2635 C2634 1.400 . S
C2635 C2636 1.398 . S
C2635 C2641 1.491 . S
C2636 H2627 0.950 . S
C2636 C2635 1.398 . S
C2636 C2637 1.391 . S
C2637 H2625 0.950 . S
C2637 C2633 1.393 . S
C2637 C2636 1.391 . S
C2638 H2628 0.950 . S
C2638 C2639 1.386 . S
C2638 C2640 1.391 . S
C2639 C2638 1.386 . S
C2639 C2643 1.393 . S
C2640 H2629 0.950 . S
C2640 C2638 1.391 . S
C2640 C2641 1.400 . S
C2641 C2635 1.491 . S
C2641 C2640 1.400 . S
C2641 C2642 1.398 . S
C2642 H2630 0.950 . S
C2642 C2641 1.398 . S
C2642 C2643 1.391 . S
C2643 H2631 0.950 . S
C2643 C2639 1.393 . S
C2643 C2642 1.391 . S
H2644 C2652 0.950 . S
H2645 C2657 0.950 . S
H2646 C2654 0.950 . S
H2647 C2656 0.950 . S
H2648 C2658 0.950 . S
H2649 C2660 0.950 . S
H2650 C2662 0.950 . S
H2651 C2663 0.950 . S
C2652 H2644 0.950 . S
C2652 C2653 1.386 . S
C2652 C2654 1.391 . S
C2653 C2652 1.386 . S
C2653 C2657 1.393 . S
C2654 H2646 0.950 . S
C2654 C2652 1.391 . S
C2654 C2655 1.400 . S
C2655 C2654 1.400 . S
C2655 C2656 1.398 . S
C2655 C2661 1.491 . S
C2656 H2647 0.950 . S
C2656 C2655 1.398 . S
C2656 C2657 1.391 . S
C2657 H2645 0.950 . S
C2657 C2653 1.393 . S
C2657 C2656 1.391 . S
C2658 H2648 0.950 . S
C2658 C2659 1.386 . S
C2658 C2660 1.391 . S
C2659 C2658 1.386 . S
C2659 C2663 1.393 . S
C2660 H2649 0.950 . S
C2660 C2658 1.391 . S
C2660 C2661 1.400 . S
C2661 C2655 1.491 . S
C2661 C2660 1.400 . S
C2661 C2662 1.398 . S
C2662 H2650 0.950 . S
C2662 C2661 1.398 . S
C2662 C2663 1.391 . S
C2663 H2651 0.950 . S
C2663 C2659 1.393 . S
C2663 C2662 1.391 . S
H2664 C2672 0.950 . S
H2665 C2677 0.950 . S
H2666 C2674 0.950 . S
H2667 C2676 0.950 . S
H2668 C2678 0.950 . S
H2669 C2680 0.950 . S
H2670 C2682 0.950 . S
H2671 C2683 0.950 . S
C2672 H2664 0.950 . S
C2672 C2673 1.386 . S
C2672 C2674 1.391 . S
C2673 C2672 1.386 . S
C2673 C2677 1.393 . S
C2674 H2666 0.950 . S
C2674 C2672 1.391 . S
C2674 C2675 1.400 . S
C2675 C2674 1.400 . S
C2675 C2676 1.398 . S
C2675 C2681 1.491 . S
C2676 H2667 0.950 . S
C2676 C2675 1.398 . S
C2676 C2677 1.391 . S
C2677 H2665 0.950 . S
C2677 C2673 1.393 . S
C2677 C2676 1.391 . S
C2678 H2668 0.950 . S
C2678 C2679 1.386 . S
C2678 C2680 1.391 . S
C2679 C2678 1.386 . S
C2679 C2683 1.393 . S
C2680 H2669 0.950 . S
C2680 C2678 1.391 . S
C2680 C2681 1.400 . S
C2681 C2675 1.491 . S
C2681 C2680 1.400 . S
C2681 C2682 1.398 . S
C2682 H2670 0.950 . S
C2682 C2681 1.398 . S
C2682 C2683 1.391 . S
C2683 H2671 0.950 . S
C2683 C2679 1.393 . S
C2683 C2682 1.391 . S
H2684 C2692 0.950 . S
H2685 C2697 0.950 . S
H2686 C2694 0.950 . S
H2687 C2696 0.950 . S
H2688 C2698 0.950 . S
H2689 C2700 0.950 . S
H2690 C2702 0.950 . S
H2691 C2703 0.950 . S
C2692 H2684 0.950 . S
C2692 C2693 1.386 . S
C2692 C2694 1.391 . S
C2693 C2692 1.386 . S
C2693 C2697 1.393 . S
C2694 H2686 0.950 . S
C2694 C2692 1.391 . S
C2694 C2695 1.400 . S
C2695 C2694 1.400 . S
C2695 C2696 1.398 . S
C2695 C2701 1.491 . S
C2696 H2687 0.950 . S
C2696 C2695 1.398 . S
C2696 C2697 1.391 . S
C2697 H2685 0.950 . S
C2697 C2693 1.393 . S
C2697 C2696 1.391 . S
C2698 H2688 0.950 . S
C2698 C2699 1.386 . S
C2698 C2700 1.391 . S
C2699 C2698 1.386 . S
C2699 C2703 1.393 . S
C2700 H2689 0.950 . S
C2700 C2698 1.391 . S
C2700 C2701 1.400 . S
C2701 C2695 1.491 . S
C2701 C2700 1.400 . S
C2701 C2702 1.398 . S
C2702 H2690 0.950 . S
C2702 C2701 1.398 . S
C2702 C2703 1.391 . S
C2703 H2691 0.950 . S
C2703 C2699 1.393 . S
C2703 C2702 1.391 . S
H2704 C2712 0.950 . S
H2705 C2717 0.950 . S
H2706 C2714 0.950 . S
H2707 C2716 0.950 . S
H2708 C2718 0.950 1_554 S
H2709 C2720 0.950 . S
H2710 C2722 0.950 . S
H2711 C2723 0.950 . S
C2712 H2704 0.950 . S
C2712 C2713 1.386 . S
C2712 C2714 1.391 . S
C2713 C2712 1.386 . S
C2713 C2717 1.393 . S
C2714 H2706 0.950 . S
C2714 C2712 1.391 . S
C2714 C2715 1.400 . S
C2715 C2714 1.400 . S
C2715 C2716 1.398 . S
C2715 C2721 1.491 . S
C2716 H2707 0.950 . S
C2716 C2715 1.398 . S
C2716 C2717 1.391 . S
C2717 H2705 0.950 . S
C2717 C2713 1.393 . S
C2717 C2716 1.391 . S
C2718 H2708 0.950 1_556 S
C2718 C2719 1.386 . S
C2718 C2720 1.391 . S
C2719 C2718 1.386 . S
C2719 C2723 1.393 . S
C2720 H2709 0.950 . S
C2720 C2718 1.391 . S
C2720 C2721 1.400 . S
C2721 C2715 1.491 . S
C2721 C2720 1.400 . S
C2721 C2722 1.398 . S
C2722 H2710 0.950 . S
C2722 C2721 1.398 . S
C2722 C2723 1.391 . S
C2723 H2711 0.950 . S
C2723 C2719 1.393 . S
C2723 C2722 1.391 . S
H2724 C2732 0.950 . S
H2725 C2737 0.950 . S
H2726 C2734 0.950 . S
H2727 C2736 0.950 . S
H2728 C2738 0.950 . S
H2729 C2740 0.950 . S
H2730 C2742 0.950 . S
H2731 C2743 0.950 . S
C2732 H2724 0.950 . S
C2732 C2733 1.386 . S
C2732 C2734 1.391 . S
C2733 C2732 1.386 . S
C2733 C2737 1.393 . S
C2734 H2726 0.950 . S
C2734 C2732 1.391 . S
C2734 C2735 1.400 . S
C2735 C2734 1.400 . S
C2735 C2736 1.398 . S
C2735 C2741 1.491 . S
C2736 H2727 0.950 . S
C2736 C2735 1.398 . S
C2736 C2737 1.391 . S
C2737 H2725 0.950 . S
C2737 C2733 1.393 . S
C2737 C2736 1.391 . S
C2738 H2728 0.950 . S
C2738 C2739 1.386 . S
C2738 C2740 1.391 . S
C2739 C2738 1.386 . S
C2739 C2743 1.393 . S
C2740 H2729 0.950 . S
C2740 C2738 1.391 . S
C2740 C2741 1.400 . S
C2741 C2735 1.491 . S
C2741 C2740 1.400 . S
C2741 C2742 1.398 . S
C2742 H2730 0.950 . S
C2742 C2741 1.398 . S
C2742 C2743 1.391 . S
C2743 H2731 0.950 . S
C2743 C2739 1.393 . S
C2743 C2742 1.391 . S
H2744 C2752 0.950 . S
H2745 C2757 0.950 . S
H2746 C2754 0.950 . S
H2747 C2756 0.950 . S
H2748 C2758 0.950 . S
H2749 C2760 0.950 . S
H2750 C2762 0.950 . S
H2751 C2763 0.950 . S
C2752 H2744 0.950 . S
C2752 C2753 1.386 . S
C2752 C2754 1.391 . S
C2753 C2752 1.386 . S
C2753 C2757 1.393 . S
C2754 H2746 0.950 . S
C2754 C2752 1.391 . S
C2754 C2755 1.400 . S
C2755 C2754 1.400 . S
C2755 C2756 1.398 . S
C2755 C2761 1.491 . S
C2756 H2747 0.950 . S
C2756 C2755 1.398 . S
C2756 C2757 1.391 . S
C2757 H2745 0.950 . S
C2757 C2753 1.393 . S
C2757 C2756 1.391 . S
C2758 H2748 0.950 . S
C2758 C2759 1.386 . S
C2758 C2760 1.391 . S
C2759 C2758 1.386 . S
C2759 C2763 1.393 . S
C2760 H2749 0.950 . S
C2760 C2758 1.391 . S
C2760 C2761 1.400 . S
C2761 C2755 1.491 . S
C2761 C2760 1.400 . S
C2761 C2762 1.398 . S
C2762 H2750 0.950 . S
C2762 C2761 1.398 . S
C2762 C2763 1.391 . S
C2763 H2751 0.950 . S
C2763 C2759 1.393 . S
C2763 C2762 1.391 . S
H2764 C2772 0.950 . S
H2765 C2777 0.950 . S
H2766 C2774 0.950 . S
H2767 C2776 0.950 . S
H2768 C2778 0.950 . S
H2769 C2780 0.950 . S
H2770 C2782 0.950 . S
H2771 C2783 0.950 . S
C2772 H2764 0.950 . S
C2772 C2773 1.386 . S
C2772 C2774 1.391 . S
C2773 C2772 1.386 . S
C2773 C2777 1.393 . S
C2774 H2766 0.950 . S
C2774 C2772 1.391 . S
C2774 C2775 1.400 . S
C2775 C2774 1.400 . S
C2775 C2776 1.398 . S
C2775 C2781 1.491 . S
C2776 H2767 0.950 . S
C2776 C2775 1.398 . S
C2776 C2777 1.391 . S
C2777 H2765 0.950 . S
C2777 C2773 1.393 . S
C2777 C2776 1.391 . S
C2778 H2768 0.950 . S
C2778 C2779 1.386 . S
C2778 C2780 1.391 . S
C2779 C2778 1.386 . S
C2779 C2783 1.393 . S
C2780 H2769 0.950 . S
C2780 C2778 1.391 . S
C2780 C2781 1.400 . S
C2781 C2775 1.491 . S
C2781 C2780 1.400 . S
C2781 C2782 1.398 . S
C2782 H2770 0.950 . S
C2782 C2781 1.398 . S
C2782 C2783 1.391 . S
C2783 H2771 0.950 . S
C2783 C2779 1.393 . S
C2783 C2782 1.391 . S
H2784 C2792 0.950 . S
H2785 C2797 0.950 . S
H2786 C2794 0.950 . S
H2787 C2796 0.950 . S
H2788 C2798 0.950 . S
H2789 C2800 0.950 . S
H2790 C2802 0.950 . S
H2791 C2803 0.950 . S
C2792 H2784 0.950 . S
C2792 C2793 1.386 . S
C2792 C2794 1.391 . S
C2793 C2792 1.386 . S
C2793 C2797 1.393 . S
C2794 H2786 0.950 . S
C2794 C2792 1.391 . S
C2794 C2795 1.400 . S
C2795 C2794 1.400 . S
C2795 C2796 1.398 . S
C2795 C2801 1.491 . S
C2796 H2787 0.950 . S
C2796 C2795 1.398 . S
C2796 C2797 1.391 . S
C2797 H2785 0.950 . S
C2797 C2793 1.393 . S
C2797 C2796 1.391 . S
C2798 H2788 0.950 . S
C2798 C2799 1.386 . S
C2798 C2800 1.391 . S
C2799 C2798 1.386 . S
C2799 C2803 1.393 . S
C2800 H2789 0.950 . S
C2800 C2798 1.391 . S
C2800 C2801 1.400 . S
C2801 C2795 1.491 . S
C2801 C2800 1.400 . S
C2801 C2802 1.398 . S
C2802 H2790 0.950 . S
C2802 C2801 1.398 . S
C2802 C2803 1.391 . S
C2803 H2791 0.950 . S
C2803 C2799 1.393 . S
C2803 C2802 1.391 . S
H2804 C2812 0.950 . S
H2805 C2817 0.950 . S
H2806 C2814 0.950 . S
H2807 C2816 0.950 . S
H2808 C2818 0.950 . S
H2809 C2820 0.950 . S
H2810 C2822 0.950 . S
H2811 C2823 0.950 . S
C2812 H2804 0.950 . S
C2812 C2813 1.386 . S
C2812 C2814 1.391 . S
C2813 C2812 1.386 . S
C2813 C2817 1.393 . S
C2814 H2806 0.950 . S
C2814 C2812 1.391 . S
C2814 C2815 1.400 . S
C2815 C2814 1.400 . S
C2815 C2816 1.398 . S
C2815 C2821 1.491 . S
C2816 H2807 0.950 . S
C2816 C2815 1.398 . S
C2816 C2817 1.391 . S
C2817 H2805 0.950 . S
C2817 C2813 1.393 . S
C2817 C2816 1.391 . S
C2818 H2808 0.950 . S
C2818 C2819 1.386 . S
C2818 C2820 1.391 . S
C2819 C2818 1.386 . S
C2819 C2823 1.393 . S
C2820 H2809 0.950 . S
C2820 C2818 1.391 . S
C2820 C2821 1.400 . S
C2821 C2815 1.491 . S
C2821 C2820 1.400 . S
C2821 C2822 1.398 . S
C2822 H2810 0.950 . S
C2822 C2821 1.398 . S
C2822 C2823 1.391 . S
C2823 H2811 0.950 . S
C2823 C2819 1.393 . S
C2823 C2822 1.391 . S
H2824 C2832 0.950 . S
H2825 C2837 0.950 . S
H2826 C2834 0.950 . S
H2827 C2836 0.950 . S
H2828 C2838 0.950 . S
H2829 C2840 0.950 . S
H2830 C2842 0.950 . S
H2831 C2843 0.950 . S
C2832 H2824 0.950 . S
C2832 C2833 1.386 . S
C2832 C2834 1.391 . S
C2833 C2832 1.386 . S
C2833 C2837 1.393 . S
C2834 H2826 0.950 . S
C2834 C2832 1.391 . S
C2834 C2835 1.400 . S
C2835 C2834 1.400 . S
C2835 C2836 1.398 . S
C2835 C2841 1.491 . S
C2836 H2827 0.950 . S
C2836 C2835 1.398 . S
C2836 C2837 1.391 . S
C2837 H2825 0.950 . S
C2837 C2833 1.393 . S
C2837 C2836 1.391 . S
C2838 H2828 0.950 . S
C2838 C2839 1.386 . S
C2838 C2840 1.391 . S
C2839 C2838 1.386 . S
C2839 C2843 1.393 . S
C2840 H2829 0.950 . S
C2840 C2838 1.391 . S
C2840 C2841 1.400 . S
C2841 C2835 1.491 . S
C2841 C2840 1.400 . S
C2841 C2842 1.398 . S
C2842 H2830 0.950 . S
C2842 C2841 1.398 . S
C2842 C2843 1.391 . S
C2843 H2831 0.950 . S
C2843 C2839 1.393 . S
C2843 C2842 1.391 . S
H2844 C2852 0.950 . S
H2845 C2857 0.950 . S
H2846 C2854 0.950 . S
H2847 C2856 0.950 . S
H2848 C2858 0.950 . S
H2849 C2860 0.950 . S
H2850 C2862 0.950 . S
H2851 C2863 0.950 . S
C2852 H2844 0.950 . S
C2852 C2853 1.386 . S
C2852 C2854 1.391 . S
C2853 C2852 1.386 . S
C2853 C2857 1.393 . S
C2854 H2846 0.950 . S
C2854 C2852 1.391 . S
C2854 C2855 1.400 . S
C2855 C2854 1.400 . S
C2855 C2856 1.398 . S
C2855 C2861 1.491 . S
C2856 H2847 0.950 . S
C2856 C2855 1.398 . S
C2856 C2857 1.391 . S
C2857 H2845 0.950 . S
C2857 C2853 1.393 . S
C2857 C2856 1.391 . S
C2858 H2848 0.950 . S
C2858 C2859 1.386 . S
C2858 C2860 1.391 . S
C2859 C2858 1.386 . S
C2859 C2863 1.393 1_545 S
C2860 H2849 0.950 . S
C2860 C2858 1.391 . S
C2860 C2861 1.400 1_545 S
C2861 C2855 1.491 . S
C2861 C2860 1.400 1_565 S
C2861 C2862 1.398 . S
C2862 H2850 0.950 . S
C2862 C2861 1.398 . S
C2862 C2863 1.391 . S
C2863 H2851 0.950 . S
C2863 C2859 1.393 1_565 S
C2863 C2862 1.391 . S
H2864 C2872 0.950 . S
H2865 C2877 0.950 . S
H2866 C2874 0.950 . S
H2867 C2876 0.950 . S
H2868 C2878 0.950 . S
H2869 C2880 0.950 . S
H2870 C2882 0.950 . S
H2871 C2883 0.950 . S
C2872 H2864 0.950 . S
C2872 C2873 1.386 . S
C2872 C2874 1.391 . S
C2873 C2872 1.386 . S
C2873 C2877 1.393 . S
C2874 H2866 0.950 . S
C2874 C2872 1.391 . S
C2874 C2875 1.400 . S
C2875 C2874 1.400 . S
C2875 C2876 1.398 . S
C2875 C2881 1.491 . S
C2876 H2867 0.950 . S
C2876 C2875 1.398 . S
C2876 C2877 1.391 . S
C2877 H2865 0.950 . S
C2877 C2873 1.393 . S
C2877 C2876 1.391 . S
C2878 H2868 0.950 . S
C2878 C2879 1.386 . S
C2878 C2880 1.391 . S
C2879 C2878 1.386 . S
C2879 C2883 1.393 . S
C2880 H2869 0.950 . S
C2880 C2878 1.391 . S
C2880 C2881 1.400 . S
C2881 C2875 1.491 . S
C2881 C2880 1.400 . S
C2881 C2882 1.398 . S
C2882 H2870 0.950 . S
C2882 C2881 1.398 . S
C2882 C2883 1.391 . S
C2883 H2871 0.950 . S
C2883 C2879 1.393 . S
C2883 C2882 1.391 . S
H2884 C2892 0.950 . S
H2885 C2897 0.950 1_556 S
H2886 C2894 0.950 . S
H2887 C2896 0.950 . S
H2888 C2898 0.950 . S
H2889 C2900 0.950 . S
H2890 C2902 0.950 . S
H2891 C2903 0.950 . S
C2892 H2884 0.950 . S
C2892 C2893 1.386 . S
C2892 C2894 1.391 . S
C2893 C2892 1.386 . S
C2893 C2897 1.393 . S
C2894 H2886 0.950 . S
C2894 C2892 1.391 . S
C2894 C2895 1.400 . S
C2895 C2894 1.400 . S
C2895 C2896 1.398 . S
C2895 C2901 1.491 . S
C2896 H2887 0.950 . S
C2896 C2895 1.398 . S
C2896 C2897 1.391 . S
C2897 H2885 0.950 1_554 S
C2897 C2893 1.393 . S
C2897 C2896 1.391 . S
C2898 H2888 0.950 . S
C2898 C2899 1.386 . S
C2898 C2900 1.391 . S
C2899 C2898 1.386 . S
C2899 C2903 1.393 . S
C2900 H2889 0.950 . S
C2900 C2898 1.391 . S
C2900 C2901 1.400 . S
C2901 C2895 1.491 . S
C2901 C2900 1.400 . S
C2901 C2902 1.398 . S
C2902 H2890 0.950 . S
C2902 C2901 1.398 . S
C2902 C2903 1.391 . S
C2903 H2891 0.950 . S
C2903 C2899 1.393 . S
C2903 C2902 1.391 . S
H2904 C2912 0.950 . S
H2905 C2917 0.950 . S
H2906 C2914 0.950 . S
H2907 C2916 0.950 . S
H2908 C2918 0.950 . S
H2909 C2920 0.950 . S
H2910 C2922 0.950 . S
H2911 C2923 0.950 . S
C2912 H2904 0.950 . S
C2912 C2913 1.386 . S
C2912 C2914 1.391 . S
C2913 C2912 1.386 . S
C2913 C2917 1.393 . S
C2914 H2906 0.950 . S
C2914 C2912 1.391 . S
C2914 C2915 1.400 . S
C2915 C2914 1.400 . S
C2915 C2916 1.398 . S
C2915 C2921 1.491 . S
C2916 H2907 0.950 . S
C2916 C2915 1.398 . S
C2916 C2917 1.391 . S
C2917 H2905 0.950 . S
C2917 C2913 1.393 . S
C2917 C2916 1.391 . S
C2918 H2908 0.950 . S
C2918 C2919 1.386 . S
C2918 C2920 1.391 . S
C2919 C2918 1.386 . S
C2919 C2923 1.393 . S
C2920 H2909 0.950 . S
C2920 C2918 1.391 . S
C2920 C2921 1.400 . S
C2921 C2915 1.491 . S
C2921 C2920 1.400 . S
C2921 C2922 1.398 . S
C2922 H2910 0.950 . S
C2922 C2921 1.398 . S
C2922 C2923 1.391 . S
C2923 H2911 0.950 . S
C2923 C2919 1.393 . S
C2923 C2922 1.391 . S
H2924 C2932 0.950 . S
H2925 C2937 0.950 . S
H2926 C2934 0.950 . S
H2927 C2936 0.950 . S
H2928 C2938 0.950 . S
H2929 C2940 0.950 . S
H2930 C2942 0.950 . S
H2931 C2943 0.950 . S
C2932 H2924 0.950 . S
C2932 C2933 1.386 . S
C2932 C2934 1.391 . S
C2933 C2932 1.386 . S
C2933 C2937 1.393 . S
C2934 H2926 0.950 . S
C2934 C2932 1.391 . S
C2934 C2935 1.400 . S
C2935 C2934 1.400 . S
C2935 C2936 1.398 . S
C2935 C2941 1.491 . S
C2936 H2927 0.950 . S
C2936 C2935 1.398 . S
C2936 C2937 1.391 . S
C2937 H2925 0.950 . S
C2937 C2933 1.393 . S
C2937 C2936 1.391 . S
C2938 H2928 0.950 . S
C2938 C2939 1.386 . S
C2938 C2940 1.391 . S
C2939 C2938 1.386 . S
C2939 C2943 1.393 . S
C2940 H2929 0.950 . S
C2940 C2938 1.391 . S
C2940 C2941 1.400 1_565 S
C2941 C2935 1.491 . S
C2941 C2940 1.400 1_545 S
C2941 C2942 1.398 . S
C2942 H2930 0.950 . S
C2942 C2941 1.398 . S
C2942 C2943 1.391 1_545 S
C2943 H2931 0.950 . S
C2943 C2939 1.393 . S
C2943 C2942 1.391 1_565 S
H2944 C2952 0.950 . S
H2945 C2957 0.950 . S
H2946 C2954 0.950 . S
H2947 C2956 0.950 . S
H2948 C2958 0.950 . S
H2949 C2960 0.950 . S
H2950 C2962 0.950 . S
H2951 C2963 0.950 . S
C2952 H2944 0.950 . S
C2952 C2953 1.386 . S
C2952 C2954 1.391 . S
C2953 C2952 1.386 . S
C2953 C2957 1.393 . S
C2954 H2946 0.950 . S
C2954 C2952 1.391 . S
C2954 C2955 1.400 . S
C2955 C2954 1.400 . S
C2955 C2956 1.398 . S
C2955 C2961 1.491 . S
C2956 H2947 0.950 . S
C2956 C2955 1.398 . S
C2956 C2957 1.391 . S
C2957 H2945 0.950 . S
C2957 C2953 1.393 . S
C2957 C2956 1.391 . S
C2958 H2948 0.950 . S
C2958 C2959 1.386 . S
C2958 C2960 1.391 . S
C2959 C2958 1.386 . S
C2959 C2963 1.393 . S
C2960 H2949 0.950 . S
C2960 C2958 1.391 . S
C2960 C2961 1.400 . S
C2961 C2955 1.491 . S
C2961 C2960 1.400 . S
C2961 C2962 1.398 . S
C2962 H2950 0.950 . S
C2962 C2961 1.398 . S
C2962 C2963 1.391 . S
C2963 H2951 0.950 . S
C2963 C2959 1.393 . S
C2963 C2962 1.391 . S
H2964 C2972 0.950 . S
H2965 C2977 0.950 . S
H2966 C2974 0.950 . S
H2967 C2976 0.950 . S
H2968 C2978 0.950 . S
H2969 C2980 0.950 . S
H2970 C2982 0.950 . S
H2971 C2983 0.950 . S
C2972 H2964 0.950 . S
C2972 C2973 1.386 . S
C2972 C2974 1.391 . S
C2973 C2972 1.386 . S
C2973 C2977 1.393 . S
C2974 H2966 0.950 . S
C2974 C2972 1.391 . S
C2974 C2975 1.400 . S
C2975 C2974 1.400 . S
C2975 C2976 1.398 . S
C2975 C2981 1.491 . S
C2976 H2967 0.950 . S
C2976 C2975 1.398 . S
C2976 C2977 1.391 . S
C2977 H2965 0.950 . S
C2977 C2973 1.393 . S
C2977 C2976 1.391 . S
C2978 H2968 0.950 . S
C2978 C2979 1.386 . S
C2978 C2980 1.391 . S
C2979 C2978 1.386 . S
C2979 C2983 1.393 . S
C2980 H2969 0.950 . S
C2980 C2978 1.391 . S
C2980 C2981 1.400 . S
C2981 C2975 1.491 . S
C2981 C2980 1.400 . S
C2981 C2982 1.398 . S
C2982 H2970 0.950 . S
C2982 C2981 1.398 . S
C2982 C2983 1.391 . S
C2983 H2971 0.950 . S
C2983 C2979 1.393 . S
C2983 C2982 1.391 . S
H2984 C2992 0.950 . S
H2985 C2997 0.950 . S
H2986 C2994 0.950 . S
H2987 C2996 0.950 . S
H2988 C2998 0.950 . S
H2989 C3000 0.950 . S
H2990 C3002 0.950 . S
H2991 C3003 0.950 . S
C2992 H2984 0.950 . S
C2992 C2993 1.386 . S
C2992 C2994 1.391 . S
C2993 C2992 1.386 . S
C2993 C2997 1.393 . S
C2994 H2986 0.950 . S
C2994 C2992 1.391 . S
C2994 C2995 1.400 . S
C2995 C2994 1.400 . S
C2995 C2996 1.398 . S
C2995 C3001 1.491 . S
C2996 H2987 0.950 . S
C2996 C2995 1.398 . S
C2996 C2997 1.391 . S
C2997 H2985 0.950 . S
C2997 C2993 1.393 . S
C2997 C2996 1.391 . S
C2998 H2988 0.950 . S
C2998 C2999 1.386 . S
C2998 C3000 1.391 . S
C2999 C2998 1.386 . S
C2999 C3003 1.393 . S
C3000 H2989 0.950 . S
C3000 C2998 1.391 . S
C3000 C3001 1.400 . S
C3001 C2995 1.491 . S
C3001 C3000 1.400 . S
C3001 C3002 1.398 . S
C3002 H2990 0.950 . S
C3002 C3001 1.398 . S
C3002 C3003 1.391 . S
C3003 H2991 0.950 . S
C3003 C2999 1.393 . S
C3003 C3002 1.391 . S
H3004 C3012 0.950 . S
H3005 C3017 0.950 . S
H3006 C3014 0.950 . S
H3007 C3016 0.950 . S
H3008 C3018 0.950 . S
H3009 C3020 0.950 . S
H3010 C3022 0.950 . S
H3011 C3023 0.950 . S
C3012 H3004 0.950 . S
C3012 C3013 1.386 . S
C3012 C3014 1.391 . S
C3013 C3012 1.386 . S
C3013 C3017 1.393 . S
C3014 H3006 0.950 . S
C3014 C3012 1.391 . S
C3014 C3015 1.400 . S
C3015 C3014 1.400 . S
C3015 C3016 1.398 . S
C3015 C3021 1.491 . S
C3016 H3007 0.950 . S
C3016 C3015 1.398 . S
C3016 C3017 1.391 . S
C3017 H3005 0.950 . S
C3017 C3013 1.393 . S
C3017 C3016 1.391 . S
C3018 H3008 0.950 . S
C3018 C3019 1.386 . S
C3018 C3020 1.391 . S
C3019 C3018 1.386 . S
C3019 C3023 1.393 . S
C3020 H3009 0.950 . S
C3020 C3018 1.391 . S
C3020 C3021 1.400 . S
C3021 C3015 1.491 . S
C3021 C3020 1.400 . S
C3021 C3022 1.398 . S
C3022 H3010 0.950 . S
C3022 C3021 1.398 . S
C3022 C3023 1.391 . S
C3023 H3011 0.950 . S
C3023 C3019 1.393 . S
C3023 C3022 1.391 . S
H3024 C3032 0.950 . S
H3025 C3037 0.950 . S
H3026 C3034 0.950 . S
H3027 C3036 0.950 . S
H3028 C3038 0.950 . S
H3029 C3040 0.950 . S
H3030 C3042 0.950 . S
H3031 C3043 0.950 . S
C3032 H3024 0.950 . S
C3032 C3033 1.386 . S
C3032 C3034 1.391 . S
C3033 C3032 1.386 . S
C3033 C3037 1.393 . S
C3034 H3026 0.950 . S
C3034 C3032 1.391 . S
C3034 C3035 1.400 . S
C3035 C3034 1.400 . S
C3035 C3036 1.398 . S
C3035 C3041 1.491 . S
C3036 H3027 0.950 . S
C3036 C3035 1.398 . S
C3036 C3037 1.391 . S
C3037 H3025 0.950 . S
C3037 C3033 1.393 . S
C3037 C3036 1.391 . S
C3038 H3028 0.950 . S
C3038 C3039 1.386 . S
C3038 C3040 1.391 . S
C3039 C3038 1.386 . S
C3039 C3043 1.393 . S
C3040 H3029 0.950 . S
C3040 C3038 1.391 . S
C3040 C3041 1.400 . S
C3041 C3035 1.491 . S
C3041 C3040 1.400 . S
C3041 C3042 1.398 . S
C3042 H3030 0.950 . S
C3042 C3041 1.398 . S
C3042 C3043 1.391 . S
C3043 H3031 0.950 . S
C3043 C3039 1.393 . S
C3043 C3042 1.391 . S
H3044 C3052 0.950 . S
H3045 C3057 0.950 . S
H3046 C3054 0.950 . S
H3047 C3056 0.950 . S
H3048 C3058 0.950 . S
H3049 C3060 0.950 . S
H3050 C3062 0.950 . S
H3051 C3063 0.950 . S
C3052 H3044 0.950 . S
C3052 C3053 1.386 . S
C3052 C3054 1.391 . S
C3053 C3052 1.386 . S
C3053 C3057 1.393 . S
C3054 H3046 0.950 . S
C3054 C3052 1.391 . S
C3054 C3055 1.400 . S
C3055 C3054 1.400 . S
C3055 C3056 1.398 . S
C3055 C3061 1.491 . S
C3056 H3047 0.950 . S
C3056 C3055 1.398 . S
C3056 C3057 1.391 . S
C3057 H3045 0.950 . S
C3057 C3053 1.393 . S
C3057 C3056 1.391 . S
C3058 H3048 0.950 . S
C3058 C3059 1.386 . S
C3058 C3060 1.391 . S
C3059 C3058 1.386 . S
C3059 C3063 1.393 . S
C3060 H3049 0.950 . S
C3060 C3058 1.391 . S
C3060 C3061 1.400 . S
C3061 C3055 1.491 . S
C3061 C3060 1.400 . S
C3061 C3062 1.398 . S
C3062 H3050 0.950 . S
C3062 C3061 1.398 . S
C3062 C3063 1.391 . S
C3063 H3051 0.950 . S
C3063 C3059 1.393 . S
C3063 C3062 1.391 . S
H3064 C3072 0.950 . S
H3065 C3077 0.950 . S
H3066 C3074 0.950 . S
H3067 C3076 0.950 . S
H3068 C3078 0.950 . S
H3069 C3080 0.950 . S
H3070 C3082 0.950 . S
H3071 C3083 0.950 . S
C3072 H3064 0.950 . S
C3072 C3073 1.386 . S
C3072 C3074 1.391 . S
C3073 C3072 1.386 . S
C3073 C3077 1.393 . S
C3074 H3066 0.950 . S
C3074 C3072 1.391 . S
C3074 C3075 1.400 . S
C3075 C3074 1.400 . S
C3075 C3076 1.398 . S
C3075 C3081 1.491 . S
C3076 H3067 0.950 . S
C3076 C3075 1.398 . S
C3076 C3077 1.391 . S
C3077 H3065 0.950 . S
C3077 C3073 1.393 . S
C3077 C3076 1.391 . S
C3078 H3068 0.950 . S
C3078 C3079 1.386 . S
C3078 C3080 1.391 . S
C3079 C3078 1.386 . S
C3079 C3083 1.393 . S
C3080 H3069 0.950 . S
C3080 C3078 1.391 . S
C3080 C3081 1.400 . S
C3081 C3075 1.491 . S
C3081 C3080 1.400 . S
C3081 C3082 1.398 . S
C3082 H3070 0.950 . S
C3082 C3081 1.398 . S
C3082 C3083 1.391 . S
C3083 H3071 0.950 . S
C3083 C3079 1.393 . S
C3083 C3082 1.391 . S
H3084 C3092 0.950 . S
H3085 C3097 0.950 . S
H3086 C3094 0.950 . S
H3087 C3096 0.950 . S
H3088 C3098 0.950 . S
H3089 C3100 0.950 . S
H3090 C3102 0.950 . S
H3091 C3103 0.950 . S
C3092 H3084 0.950 . S
C3092 C3093 1.386 . S
C3092 C3094 1.391 . S
C3093 C3092 1.386 . S
C3093 C3097 1.393 . S
C3094 H3086 0.950 . S
C3094 C3092 1.391 . S
C3094 C3095 1.400 . S
C3095 C3094 1.400 . S
C3095 C3096 1.398 . S
C3095 C3101 1.491 . S
C3096 H3087 0.950 . S
C3096 C3095 1.398 . S
C3096 C3097 1.391 . S
C3097 H3085 0.950 . S
C3097 C3093 1.393 . S
C3097 C3096 1.391 . S
C3098 H3088 0.950 . S
C3098 C3099 1.386 . S
C3098 C3100 1.391 . S
C3099 C3098 1.386 . S
C3099 C3103 1.393 . S
C3100 H3089 0.950 . S
C3100 C3098 1.391 . S
C3100 C3101 1.400 . S
C3101 C3095 1.491 . S
C3101 C3100 1.400 . S
C3101 C3102 1.398 . S
C3102 H3090 0.950 . S
C3102 C3101 1.398 . S
C3102 C3103 1.391 . S
C3103 H3091 0.950 . S
C3103 C3099 1.393 . S
C3103 C3102 1.391 . S
H3104 C3112 0.950 . S
H3105 C3117 0.950 . S
H3106 C3114 0.950 . S
H3107 C3116 0.950 . S
H3108 C3118 0.950 . S
H3109 C3120 0.950 . S
H3110 C3122 0.950 . S
H3111 C3123 0.950 . S
C3112 H3104 0.950 . S
C3112 C3113 1.386 . S
C3112 C3114 1.391 . S
C3113 C3112 1.386 . S
C3113 C3117 1.393 . S
C3114 H3106 0.950 . S
C3114 C3112 1.391 . S
C3114 C3115 1.400 . S
C3115 C3114 1.400 . S
C3115 C3116 1.398 . S
C3115 C3121 1.491 . S
C3116 H3107 0.950 . S
C3116 C3115 1.398 . S
C3116 C3117 1.391 . S
C3117 H3105 0.950 . S
C3117 C3113 1.393 . S
C3117 C3116 1.391 . S
C3118 H3108 0.950 . S
C3118 C3119 1.386 . S
C3118 C3120 1.391 . S
C3119 C3118 1.386 . S
C3119 C3123 1.393 . S
C3120 H3109 0.950 . S
C3120 C3118 1.391 . S
C3120 C3121 1.400 . S
C3121 C3115 1.491 . S
C3121 C3120 1.400 . S
C3121 C3122 1.398 . S
C3122 H3110 0.950 . S
C3122 C3121 1.398 . S
C3122 C3123 1.391 . S
C3123 H3111 0.950 . S
C3123 C3119 1.393 . S
C3123 C3122 1.391 . S
H3124 C3132 0.950 . S
H3125 C3137 0.950 . S
H3126 C3134 0.950 . S
H3127 C3136 0.950 . S
H3128 C3138 0.950 . S
H3129 C3140 0.950 . S
H3130 C3142 0.950 . S
H3131 C3143 0.950 . S
C3132 H3124 0.950 . S
C3132 C3133 1.386 . S
C3132 C3134 1.391 . S
C3133 C3132 1.386 . S
C3133 C3137 1.393 . S
C3134 H3126 0.950 . S
C3134 C3132 1.391 . S
C3134 C3135 1.400 . S
C3135 C3134 1.400 . S
C3135 C3136 1.398 . S
C3135 C3141 1.491 . S
C3136 H3127 0.950 . S
C3136 C3135 1.398 . S
C3136 C3137 1.391 . S
C3137 H3125 0.950 . S
C3137 C3133 1.393 . S
C3137 C3136 1.391 . S
C3138 H3128 0.950 . S
C3138 C3139 1.386 . S
C3138 C3140 1.391 . S
C3139 C3138 1.386 . S
C3139 C3143 1.393 . S
C3140 H3129 0.950 . S
C3140 C3138 1.391 . S
C3140 C3141 1.400 . S
C3141 C3135 1.491 . S
C3141 C3140 1.400 . S
C3141 C3142 1.398 . S
C3142 H3130 0.950 . S
C3142 C3141 1.398 . S
C3142 C3143 1.391 . S
C3143 H3131 0.950 . S
C3143 C3139 1.393 . S
C3143 C3142 1.391 . S
H3144 C3152 0.923 1_455 S
H3145 C3157 0.950 . S
H3146 C3154 0.950 . S
H3147 C3156 0.950 . S
H3148 C3158 0.922 1_654 S
H3149 C3160 0.950 . S
H3150 C3162 0.950 . S
H3151 C3163 0.950 . S
C3152 H3144 0.923 1_655 S
C3152 C3153 1.429 . S
C3152 C3154 1.376 1_655 S
C3153 C3152 1.429 . S
C3153 C3157 1.393 . S
C3154 H3146 0.950 . S
C3154 C3152 1.376 1_455 S
C3154 C3155 1.400 1_455 S
C3155 C3154 1.400 1_655 S
C3155 C3156 1.398 . S
C3155 C3161 1.491 1_655 S
C3156 H3147 0.950 . S
C3156 C3155 1.398 . S
C3156 C3157 1.391 . S
C3157 H3145 0.950 . S
C3157 C3153 1.393 . S
C3157 C3156 1.391 . S
C3158 H3148 0.922 1_456 S
C3158 C3159 1.386 . S
C3158 C3160 1.391 1_455 S
C3159 C3158 1.386 . S
C3159 C3163 1.393 . S
C3160 H3149 0.950 . S
C3160 C3158 1.391 1_655 S
C3160 C3161 1.400 1_655 S
C3161 C3155 1.491 1_455 S
C3161 C3160 1.400 1_455 S
C3161 C3162 1.398 . S
C3162 H3150 0.950 . S
C3162 C3161 1.398 . S
C3162 C3163 1.391 . S
C3163 H3151 0.950 . S
C3163 C3159 1.393 . S
C3163 C3162 1.391 . S
H3164 C3172 0.950 . S
H3165 C3177 0.950 . S
H3166 C3174 0.950 . S
H3167 C3176 0.950 . S
H3168 C3178 0.950 . S
H3169 C3180 0.950 . S
H3170 C3182 0.950 . S
H3171 C3183 0.950 . S
C3172 H3164 0.950 . S
C3172 C3173 1.386 . S
C3172 C3174 1.391 . S
C3173 C3172 1.386 . S
C3173 C3177 1.393 . S
C3174 H3166 0.950 . S
C3174 C3172 1.391 . S
C3174 C3175 1.400 . S
C3175 C3174 1.400 . S
C3175 C3176 1.398 . S
C3175 C3181 1.491 . S
C3176 H3167 0.950 . S
C3176 C3175 1.398 . S
C3176 C3177 1.391 . S
C3177 H3165 0.950 . S
C3177 C3173 1.393 . S
C3177 C3176 1.391 . S
C3178 H3168 0.950 . S
C3178 C3179 1.386 . S
C3178 C3180 1.391 . S
C3179 C3178 1.386 . S
C3179 C3183 1.393 . S
C3180 H3169 0.950 . S
C3180 C3178 1.391 . S
C3180 C3181 1.400 . S
C3181 C3175 1.491 . S
C3181 C3180 1.400 . S
C3181 C3182 1.398 . S
C3182 H3170 0.950 . S
C3182 C3181 1.398 . S
C3182 C3183 1.391 . S
C3183 H3171 0.950 . S
C3183 C3179 1.393 . S
C3183 C3182 1.391 . S
H3184 C3192 0.950 . S
H3185 C3197 0.950 . S
H3186 C3194 0.950 . S
H3187 C3196 0.950 . S
H3188 C3198 0.950 . S
H3189 C3200 0.950 . S
H3190 C3202 0.950 . S
H3191 C3203 0.950 . S
C3192 H3184 0.950 . S
C3192 C3193 1.386 . S
C3192 C3194 1.391 . S
C3193 C3192 1.386 . S
C3193 C3197 1.393 . S
C3194 H3186 0.950 . S
C3194 C3192 1.391 . S
C3194 C3195 1.400 . S
C3195 C3194 1.400 . S
C3195 C3196 1.398 . S
C3195 C3201 1.491 . S
C3196 H3187 0.950 . S
C3196 C3195 1.398 . S
C3196 C3197 1.391 . S
C3197 H3185 0.950 . S
C3197 C3193 1.393 . S
C3197 C3196 1.391 . S
C3198 H3188 0.950 . S
C3198 C3199 1.386 . S
C3198 C3200 1.391 . S
C3199 C3198 1.386 . S
C3199 C3203 1.393 . S
C3200 H3189 0.950 . S
C3200 C3198 1.391 . S
C3200 C3201 1.400 . S
C3201 C3195 1.491 . S
C3201 C3200 1.400 . S
C3201 C3202 1.398 . S
C3202 H3190 0.950 . S
C3202 C3201 1.398 . S
C3202 C3203 1.391 . S
C3203 H3191 0.950 . S
C3203 C3199 1.393 . S
C3203 C3202 1.391 . S
H3204 C3212 0.950 1_554 S
H3205 C3217 0.950 . S
H3206 C3214 0.950 . S
H3207 C3216 0.950 . S
H3208 C3218 0.950 . S
H3209 C3220 0.950 . S
H3210 C3222 0.950 . S
H3211 C3223 0.950 . S
C3212 H3204 0.950 1_556 S
C3212 C3213 1.386 . S
C3212 C3214 1.391 . S
C3213 C3212 1.386 . S
C3213 C3217 1.393 . S
C3214 H3206 0.950 . S
C3214 C3212 1.391 . S
C3214 C3215 1.400 . S
C3215 C3214 1.400 . S
C3215 C3216 1.398 . S
C3215 C3221 1.491 . S
C3216 H3207 0.950 . S
C3216 C3215 1.398 . S
C3216 C3217 1.391 . S
C3217 H3205 0.950 . S
C3217 C3213 1.393 . S
C3217 C3216 1.391 . S
C3218 H3208 0.950 . S
C3218 C3219 1.386 . S
C3218 C3220 1.391 . S
C3219 C3218 1.386 . S
C3219 C3223 1.393 . S
C3220 H3209 0.950 . S
C3220 C3218 1.391 . S
C3220 C3221 1.400 . S
C3221 C3215 1.491 . S
C3221 C3220 1.400 . S
C3221 C3222 1.398 . S
C3222 H3210 0.950 . S
C3222 C3221 1.398 . S
C3222 C3223 1.391 . S
C3223 H3211 0.950 . S
C3223 C3219 1.393 . S
C3223 C3222 1.391 . S
H3224 C3232 0.950 . S
H3225 C3237 0.950 . S
H3226 C3234 0.950 . S
H3227 C3236 0.950 . S
H3228 C3238 0.950 . S
H3229 C3240 0.950 . S
H3230 C3242 0.950 . S
H3231 C3243 0.950 . S
C3232 H3224 0.950 . S
C3232 C3233 1.386 . S
C3232 C3234 1.391 . S
C3233 C3232 1.386 . S
C3233 C3237 1.393 . S
C3234 H3226 0.950 . S
C3234 C3232 1.391 . S
C3234 C3235 1.400 . S
C3235 C3234 1.400 . S
C3235 C3236 1.398 . S
C3235 C3241 1.491 . S
C3236 H3227 0.950 . S
C3236 C3235 1.398 . S
C3236 C3237 1.391 . S
C3237 H3225 0.950 . S
C3237 C3233 1.393 . S
C3237 C3236 1.391 . S
C3238 H3228 0.950 . S
C3238 C3239 1.386 . S
C3238 C3240 1.391 . S
C3239 C3238 1.386 . S
C3239 C3243 1.393 . S
C3240 H3229 0.950 . S
C3240 C3238 1.391 . S
C3240 C3241 1.400 1_455 S
C3241 C3235 1.491 . S
C3241 C3240 1.400 1_655 S
C3241 C3242 1.398 . S
C3242 H3230 0.950 . S
C3242 C3241 1.398 . S
C3242 C3243 1.391 1_655 S
C3243 H3231 0.950 . S
C3243 C3239 1.393 . S
C3243 C3242 1.391 1_455 S
H3244 C3252 0.950 . S
H3245 C3257 0.950 . S
H3246 C3254 0.950 . S
H3247 C3256 0.950 . S
H3248 C3258 0.950 . S
H3249 C3260 0.950 . S
H3250 C3262 0.950 . S
H3251 C3263 0.950 . S
C3252 H3244 0.950 . S
C3252 C3253 1.386 . S
C3252 C3254 1.391 . S
C3253 C3252 1.386 . S
C3253 C3257 1.393 . S
C3254 H3246 0.950 . S
C3254 C3252 1.391 . S
C3254 C3255 1.400 . S
C3255 C3254 1.400 . S
C3255 C3256 1.398 . S
C3255 C3261 1.491 . S
C3256 H3247 0.950 . S
C3256 C3255 1.398 . S
C3256 C3257 1.391 . S
C3257 H3245 0.950 . S
C3257 C3253 1.393 . S
C3257 C3256 1.391 . S
C3258 H3248 0.950 . S
C3258 C3259 1.386 . S
C3258 C3260 1.391 . S
C3259 C3258 1.386 . S
C3259 C3263 1.393 . S
C3260 H3249 0.950 . S
C3260 C3258 1.391 . S
C3260 C3261 1.400 . S
C3261 C3255 1.491 . S
C3261 C3260 1.400 . S
C3261 C3262 1.398 . S
C3262 H3250 0.950 . S
C3262 C3261 1.398 . S
C3262 C3263 1.391 . S
C3263 H3251 0.950 . S
C3263 C3259 1.393 . S
C3263 C3262 1.391 . S
H3264 C3272 0.950 . S
H3265 C3277 0.950 . S
H3266 C3274 0.950 . S
H3267 C3276 0.950 . S
H3268 C3278 0.950 . S
H3269 C3280 0.950 . S
H3270 C3282 0.950 . S
H3271 C3283 0.950 . S
C3272 H3264 0.950 . S
C3272 C3273 1.386 . S
C3272 C3274 1.391 . S
C3273 C3272 1.386 . S
C3273 C3277 1.393 . S
C3274 H3266 0.950 . S
C3274 C3272 1.391 . S
C3274 C3275 1.400 . S
C3275 C3274 1.400 . S
C3275 C3276 1.398 . S
C3275 C3281 1.491 . S
C3276 H3267 0.950 . S
C3276 C3275 1.398 . S
C3276 C3277 1.391 . S
C3277 H3265 0.950 . S
C3277 C3273 1.393 . S
C3277 C3276 1.391 . S
C3278 H3268 0.950 . S
C3278 C3279 1.386 . S
C3278 C3280 1.391 . S
C3279 C3278 1.386 . S
C3279 C3283 1.393 . S
C3280 H3269 0.950 . S
C3280 C3278 1.391 . S
C3280 C3281 1.400 . S
C3281 C3275 1.491 . S
C3281 C3280 1.400 . S
C3281 C3282 1.398 . S
C3282 H3270 0.950 . S
C3282 C3281 1.398 . S
C3282 C3283 1.391 . S
C3283 H3271 0.950 . S
C3283 C3279 1.393 . S
C3283 C3282 1.391 . S
H3284 C3292 0.950 . S
H3285 C3297 0.950 1_565 S
H3286 C3294 0.950 . S
H3287 C3296 0.950 . S
H3288 C3298 0.950 . S
H3289 C3300 0.950 . S
H3290 C3302 0.950 . S
H3291 C3303 0.950 . S
C3292 H3284 0.950 . S
C3292 C3293 1.386 . S
C3292 C3294 1.391 . S
C3293 C3292 1.386 . S
C3293 C3297 1.393 . S
C3294 H3286 0.950 . S
C3294 C3292 1.391 . S
C3294 C3295 1.400 . S
C3295 C3294 1.400 . S
C3295 C3296 1.398 . S
C3295 C3301 1.491 . S
C3296 H3287 0.950 . S
C3296 C3295 1.398 . S
C3296 C3297 1.391 . S
C3297 H3285 0.950 1_545 S
C3297 C3293 1.393 . S
C3297 C3296 1.391 . S
C3298 H3288 0.950 . S
C3298 C3299 1.386 . S
C3298 C3300 1.391 . S
C3299 C3298 1.386 . S
C3299 C3303 1.393 . S
C3300 H3289 0.950 . S
C3300 C3298 1.391 . S
C3300 C3301 1.400 . S
C3301 C3295 1.491 . S
C3301 C3300 1.400 . S
C3301 C3302 1.398 . S
C3302 H3290 0.950 . S
C3302 C3301 1.398 . S
C3302 C3303 1.391 . S
C3303 H3291 0.950 . S
C3303 C3299 1.393 . S
C3303 C3302 1.391 . S
H3304 C3312 0.950 . S
H3305 C3317 0.950 . S
H3306 C3314 0.950 . S
H3307 C3316 0.950 . S
H3308 C3318 0.950 . S
H3309 C3320 0.950 . S
H3310 C3322 0.950 . S
H3311 C3323 0.950 . S
C3312 H3304 0.950 . S
C3312 C3313 1.386 . S
C3312 C3314 1.391 . S
C3313 C3312 1.386 . S
C3313 C3317 1.393 . S
C3314 H3306 0.950 . S
C3314 C3312 1.391 . S
C3314 C3315 1.400 . S
C3315 C3314 1.400 . S
C3315 C3316 1.398 . S
C3315 C3321 1.491 . S
C3316 H3307 0.950 . S
C3316 C3315 1.398 . S
C3316 C3317 1.391 . S
C3317 H3305 0.950 . S
C3317 C3313 1.393 . S
C3317 C3316 1.391 . S
C3318 H3308 0.950 . S
C3318 C3319 1.386 . S
C3318 C3320 1.391 . S
C3319 C3318 1.386 . S
C3319 C3323 1.393 . S
C3320 H3309 0.950 . S
C3320 C3318 1.391 . S
C3320 C3321 1.400 . S
C3321 C3315 1.491 . S
C3321 C3320 1.400 . S
C3321 C3322 1.398 . S
C3322 H3310 0.950 . S
C3322 C3321 1.398 . S
C3322 C3323 1.391 . S
C3323 H3311 0.950 . S
C3323 C3319 1.393 . S
C3323 C3322 1.391 . S
H3324 C3332 0.950 . S
H3325 C3337 0.950 . S
H3326 C3334 0.950 . S
H3327 C3336 0.950 . S
H3328 C3338 0.950 . S
H3329 C3340 0.950 . S
H3330 C3342 0.950 . S
H3331 C3343 0.950 . S
C3332 H3324 0.950 . S
C3332 C3333 1.386 . S
C3332 C3334 1.391 . S
C3333 C3332 1.386 . S
C3333 C3337 1.393 . S
C3334 H3326 0.950 . S
C3334 C3332 1.391 . S
C3334 C3335 1.400 . S
C3335 C3334 1.400 . S
C3335 C3336 1.398 . S
C3335 C3341 1.491 . S
C3336 H3327 0.950 . S
C3336 C3335 1.398 . S
C3336 C3337 1.391 . S
C3337 H3325 0.950 . S
C3337 C3333 1.393 . S
C3337 C3336 1.391 . S
C3338 H3328 0.950 . S
C3338 C3339 1.386 . S
C3338 C3340 1.391 . S
C3339 C3338 1.386 . S
C3339 C3343 1.393 . S
C3340 H3329 0.950 . S
C3340 C3338 1.391 . S
C3340 C3341 1.400 . S
C3341 C3335 1.491 . S
C3341 C3340 1.400 . S
C3341 C3342 1.398 . S
C3342 H3330 0.950 . S
C3342 C3341 1.398 . S
C3342 C3343 1.391 . S
C3343 H3331 0.950 . S
C3343 C3339 1.393 . S
C3343 C3342 1.391 . S
H3344 C3352 0.950 . S
H3345 C3357 0.950 . S
H3346 C3354 0.950 . S
H3347 C3356 0.950 . S
H3348 C3358 0.950 . S
H3349 C3360 0.950 . S
H3350 C3362 0.950 . S
H3351 C3363 0.950 . S
C3352 H3344 0.950 . S
C3352 C3353 1.386 . S
C3352 C3354 1.391 . S
C3353 C3352 1.386 . S
C3353 C3357 1.393 . S
C3354 H3346 0.950 . S
C3354 C3352 1.391 . S
C3354 C3355 1.400 . S
C3355 C3354 1.400 . S
C3355 C3356 1.398 . S
C3355 C3361 1.491 . S
C3356 H3347 0.950 . S
C3356 C3355 1.398 . S
C3356 C3357 1.391 . S
C3357 H3345 0.950 . S
C3357 C3353 1.393 . S
C3357 C3356 1.391 . S
C3358 H3348 0.950 . S
C3358 C3359 1.386 . S
C3358 C3360 1.391 . S
C3359 C3358 1.386 . S
C3359 C3363 1.393 . S
C3360 H3349 0.950 . S
C3360 C3358 1.391 . S
C3360 C3361 1.400 . S
C3361 C3355 1.491 . S
C3361 C3360 1.400 . S
C3361 C3362 1.398 . S
C3362 H3350 0.950 . S
C3362 C3361 1.398 . S
C3362 C3363 1.391 . S
C3363 H3351 0.950 . S
C3363 C3359 1.393 . S
C3363 C3362 1.391 . S
H3364 C3372 0.950 . S
H3365 C3377 0.950 . S
H3366 C3374 0.950 . S
H3367 C3376 0.950 . S
H3368 C3378 0.950 . S
H3369 C3380 0.950 . S
H3370 C3382 0.950 . S
H3371 C3383 0.950 . S
C3372 H3364 0.950 . S
C3372 C3373 1.386 . S
C3372 C3374 1.391 . S
C3373 C3372 1.386 . S
C3373 C3377 1.393 . S
C3374 H3366 0.950 . S
C3374 C3372 1.391 . S
C3374 C3375 1.400 . S
C3375 C3374 1.400 . S
C3375 C3376 1.398 . S
C3375 C3381 1.491 . S
C3376 H3367 0.950 . S
C3376 C3375 1.398 . S
C3376 C3377 1.391 . S
C3377 H3365 0.950 . S
C3377 C3373 1.393 . S
C3377 C3376 1.391 . S
C3378 H3368 0.950 . S
C3378 C3379 1.386 . S
C3378 C3380 1.391 . S
C3379 C3378 1.386 . S
C3379 C3383 1.393 . S
C3380 H3369 0.950 . S
C3380 C3378 1.391 . S
C3380 C3381 1.400 . S
C3381 C3375 1.491 . S
C3381 C3380 1.400 . S
C3381 C3382 1.398 . S
C3382 H3370 0.950 . S
C3382 C3381 1.398 . S
C3382 C3383 1.391 . S
C3383 H3371 0.950 . S
C3383 C3379 1.393 . S
C3383 C3382 1.391 . S
H3384 C3392 0.951 1_545 S
H3385 C3397 0.950 . S
H3386 C3394 0.950 . S
H3387 C3396 0.950 . S
H3388 C3398 0.950 . S
H3389 C3400 0.950 . S
H3390 C3402 0.950 . S
H3391 C3403 0.950 . S
C3392 H3384 0.951 1_565 S
C3392 C3393 1.367 1_565 S
C3392 C3394 1.391 . S
C3393 C3392 1.367 1_545 S
C3393 C3397 1.384 1_545 S
C3394 H3386 0.950 . S
C3394 C3392 1.391 . S
C3394 C3395 1.400 . S
C3395 C3394 1.400 . S
C3395 C3396 1.398 . S
C3395 C3401 1.491 . S
C3396 H3387 0.950 . S
C3396 C3395 1.398 . S
C3396 C3397 1.391 . S
C3397 H3385 0.950 . S
C3397 C3393 1.384 1_565 S
C3397 C3396 1.391 . S
C3398 H3388 0.950 . S
C3398 C3399 1.386 . S
C3398 C3400 1.391 . S
C3399 C3398 1.386 . S
C3399 C3403 1.393 . S
C3400 H3389 0.950 . S
C3400 C3398 1.391 . S
C3400 C3401 1.400 . S
C3401 C3395 1.491 . S
C3401 C3400 1.400 . S
C3401 C3402 1.398 . S
C3402 H3390 0.950 . S
C3402 C3401 1.398 . S
C3402 C3403 1.391 . S
C3403 H3391 0.950 . S
C3403 C3399 1.393 . S
C3403 C3402 1.391 . S
H3404 C3412 0.950 . S
H3405 C3417 0.950 . S
H3406 C3414 0.950 . S
H3407 C3416 0.950 . S
H3408 C3418 0.950 . S
H3409 C3420 0.950 . S
H3410 C3422 0.950 . S
H3411 C3423 0.950 . S
C3412 H3404 0.950 . S
C3412 C3413 1.386 . S
C3412 C3414 1.391 . S
C3413 C3412 1.386 . S
C3413 C3417 1.393 . S
C3414 H3406 0.950 . S
C3414 C3412 1.391 . S
C3414 C3415 1.400 . S
C3415 C3414 1.400 . S
C3415 C3416 1.398 . S
C3415 C3421 1.491 . S
C3416 H3407 0.950 . S
C3416 C3415 1.398 . S
C3416 C3417 1.391 . S
C3417 H3405 0.950 . S
C3417 C3413 1.393 . S
C3417 C3416 1.391 . S
C3418 H3408 0.950 . S
C3418 C3419 1.386 . S
C3418 C3420 1.391 . S
C3419 C3418 1.386 . S
C3419 C3423 1.393 . S
C3420 H3409 0.950 . S
C3420 C3418 1.391 . S
C3420 C3421 1.400 . S
C3421 C3415 1.491 . S
C3421 C3420 1.400 . S
C3421 C3422 1.398 . S
C3422 H3410 0.950 . S
C3422 C3421 1.398 . S
C3422 C3423 1.391 . S
C3423 H3411 0.950 . S
C3423 C3419 1.393 . S
C3423 C3422 1.391 . S
C1513 C255 1.292 . S
C1519 C870 1.248 . S
C1533 C147 1.938 . S
C1539 C922 1.810 . S
C1553 C184 1.357 . S
C1559 C954 1.365 . S
C1579 C1003 2.512 . S
C1573 C220 2.500 . S
C1593 C40 0.959 . S
C1599 C1039 0.969 . S
C1619 C1070 0.561 . S
C1613 C74 0.483 . S
C1639 C1122 0.396 . S
C1633 C110 0.383 . S
C1653 C14 1.536 . S
C1659 C1150 1.485 . S
C1679 C882 1.938 . S
C1673 C579 2.088 . S
C1693 C616 1.717 . S
C1699 C923 1.749 . S
C1719 C953 1.914 . S
C1713 C687 2.039 1_545 S
C1739 C990 0.545 . S
C1733 C436 0.496 . S
C1753 C580 1.856 . S
C1759 C1034 1.884 1_655 S
C1779 C1082 1.981 . S
C1773 C615 2.015 . S
C1799 C1123 1.725 . S
C1793 C688 1.674 . S
C1819 C1162 1.598 . S
C1813 C435 1.749 . S
C1839 C883 2.295 . S
C1833 C410 2.212 . S
C1853 C722 1.744 . S
C1859 C1193 1.690 . S
C1879 C1243 2.541 . S
C1873 C842 2.504 . S
C1899 C1270 1.042 . S
C1893 C794 1.043 . S
C1913 C302 2.514 . S
C1919 C1163 2.565 . S
C1933 C338 1.359 . S
C1939 C959 1.242 . S
C1953 C830 2.618 . S
C1959 C1322 2.525 . S
C1979 C1350 1.159 . S
C1973 C758 1.209 . S
C1999 C879 1.258 . S
C1993 C158 1.264 . S
C2019 C1353 1.851 . S
C2013 C254 1.946 1_655 S
C2033 C218 1.330 . S
C2039 C963 1.328 . S
C2053 C194 2.466 . S
C2059 C1314 2.481 . S
C2079 C1030 0.966 . S
C2073 C3 0.987 . S
C2093 C111 0.422 . S
C2099 C1239 0.455 . S
C2119 C1113 0.423 . S
C2113 C76 0.370 . S
C2139 C1399 1.444 . S
C2133 C50 1.382 . S
C2159 C873 1.894 1_556 S
C2153 C364 2.073 . S
C2179 C1354 1.704 . S
C2173 C795 1.698 . S
C2193 C292 1.930 . S
C2199 C962 1.806 . S
C2213 C723 0.510 . S
C2219 C1319 0.536 . S
C2233 C363 1.839 . S
C2239 C1043 1.849 . S
C2259 C1233 1.958 . S
C2253 C796 1.964 . S
C2273 C291 1.638 . S
C2279 C1114 1.639 . S
C2293 C724 1.864 . S
C2299 C1393 1.656 . S
C2313 C482 2.165 . S
C2319 C874 2.271 . S
C2333 C434 1.694 . S
C2339 C1202 1.663 . S
C2353 C662 2.377 . S
C2359 C1074 2.458 . S
C2373 C614 1.011 . S
C2379 C1279 1.016 . S
C2399 C1394 2.549 . S
C2393 C698 2.448 . S
C2413 C554 1.141 1_545 S
C2419 C950 1.203 . S
C2439 C993 2.456 . S
C2433 C650 2.534 . S
C2459 C919 1.193 . S
C2453 C506 1.252 . S
C2473 C183 1.270 . S
C2479 C1430 1.217 . S
C2499 C1362 1.823 . S
C2493 C219 1.944 . S
C2513 C256 1.347 . S
C2519 C1474 1.362 . S
C2533 C148 2.493 . S
C2539 C1323 2.506 . S
C2553 C122 1.071 . S
C2559 C1199 1.017 . S
C2579 C1230 0.498 . S
C2573 C2 0.453 . S
C2599 C1282 0.389 . S
C2593 C39 0.257 . S
C2619 C1390 1.377 . S
C2613 C86 1.411 . S
C2639 C1442 1.971 . S
C2633 C651 2.107 . S
C2653 C472 1.723 1_556 S
C2659 C1363 1.756 . S
C2679 C1473 1.876 . S
C2673 C507 2.024 . S
C2699 C1310 0.543 . S
C2693 C544 0.509 . S
C2719 C1194 1.897 1_556 S
C2713 C652 1.883 . S
C2733 C471 1.988 . S
C2739 C1242 1.959 . S
C2759 C1283 1.674 . S
C2753 C508 1.650 . S
C2773 C543 1.763 . S
C2779 C1402 1.634 . S
C2799 C1443 2.320 . S
C2793 C806 2.233 . S
C2813 C326 1.670 . S
C2819 C1033 1.651 . S
C2839 C1083 2.508 . S
C2833 C374 2.461 1_565 S
C2859 C1110 1.089 . S
C2853 C398 1.085 . S
C2879 C1403 2.518 . S
C2873 C770 2.467 . S
C2893 C734 1.336 1_554 S
C2899 C1479 1.196 . S
C2919 C1002 2.527 . S
C2913 C362 2.616 . S
C2939 C910 1.167 . S
C2933 C290 1.212 . S
C2953 C230 1.252 . S
C2959 C1439 1.271 . S
C2979 C913 1.831 . S
C2973 C182 1.961 . S
C2993 C146 1.317 . S
C2999 C1483 1.331 . S
C3013 C266 2.472 . S
C3019 C994 2.476 . S
C3033 C75 1.030 . S
C3039 C1190 1.008 . S
C3059 C1079 0.543 . S
C3053 C38 0.454 . S
C3073 C4 0.460 . S
C3079 C1273 0.361 . S
C3093 C112 1.499 . S
C3099 C1159 1.386 . S
C3119 C1433 1.905 . S
C3113 C832 2.078 . S
C3133 C399 1.715 . S
C3139 C914 1.719 . S
C3159 C1482 1.797 1_556 S
C3153 C760 1.914 . S
C3173 C327 0.533 . S
C3179 C999 0.578 . S
C3193 C831 1.888 . S
C3199 C1203 1.884 . S
C3219 C1073 1.937 . S
C3213 C400 1.970 1_556 S
C3233 C759 1.654 . S
C3239 C1274 1.653 . S
C3259 C1153 1.658 . S
C3253 C328 1.832 . S
C3279 C1434 2.288 . S
C3273 C626 2.178 . S
C3299 C1042 1.622 . S
C3293 C542 1.668 1_545 S
C3313 C590 2.322 . S
C3319 C1234 2.418 . S
C3339 C1119 1.022 . S
C3333 C470 1.015 . S
C3353 C518 2.379 . S
C3359 C1154 2.485 . S
C3373 C446 1.151 . S
C3379 C1470 1.208 . S
C3399 C1313 2.479 . S
C3393 C578 2.590 . S
C3419 C1359 1.132 . S
C3413 C686 1.217 . S
