# Generated by pormake.
# Topology soc, (4,6)-cn, num edge types: 1
# Building blocks:
#     Node 0, Type 0, BuildingBlock: ESEHIV_clean_sbu_0, # of connection points: 4
#     Node 1, Type 0, BuildingBlock: ESEHIV_clean_sbu_0, # of connection points: 4
#     Node 2, Type 0, BuildingBlock: ESEHIV_clean_sbu_0, # of connection points: 4
#     Node 3, Type 0, BuildingBlock: ESEHIV_clean_sbu_0, # of connection points: 4
#     Node 4, Type 0, BuildingBlock: ESEHIV_clean_sbu_0, # of connection points: 4
#     Node 5, Type 0, BuildingBlock: ESEHIV_clean_sbu_0, # of connection points: 4
#     Node 6, Type 0, BuildingBlock: ESEHIV_clean_sbu_0, # of connection points: 4
#     Node 7, Type 0, BuildingBlock: ESEHIV_clean_sbu_0, # of connection points: 4
#     Node 8, Type 0, BuildingBlock: ESEHIV_clean_sbu_0, # of connection points: 4
#     Node 9, Type 0, BuildingBlock: ESEHIV_clean_sbu_0, # of connection points: 4
#     Node 10, Type 0, BuildingBlock: ESEHIV_clean_sbu_0, # of connection points: 4
#     Node 11, Type 0, BuildingBlock: ESEHIV_clean_sbu_0, # of connection points: 4
#     Node 12, Type 1, BuildingBlock: KUMBUR_clean_sbu_0, # of connection points: 6
#     Node 13, Type 1, BuildingBlock: KUMBUR_clean_sbu_0, # of connection points: 6
#     Node 14, Type 1, BuildingBlock: KUMBUR_clean_sbu_0, # of connection points: 6
#     Node 15, Type 1, BuildingBlock: KUMBUR_clean_sbu_0, # of connection points: 6
#     Node 16, Type 1, BuildingBlock: KUMBUR_clean_sbu_0, # of connection points: 6
#     Node 17, Type 1, BuildingBlock: KUMBUR_clean_sbu_0, # of connection points: 6
#     Node 18, Type 1, BuildingBlock: KUMBUR_clean_sbu_0, # of connection points: 6
#     Node 19, Type 1, BuildingBlock: KUMBUR_clean_sbu_0, # of connection points: 6
#     Edge 20, Type (0, 1), BuildingBlock: XIVTED_clean_linker_0, # of connection points: 2
#     Edge 21, Type (0, 1), BuildingBlock: XIVTED_clean_linker_0, # of connection points: 2
#     Edge 22, Type (0, 1), BuildingBlock: XIVTED_clean_linker_0, # of connection points: 2
#     Edge 23, Type (0, 1), BuildingBlock: XIVTED_clean_linker_0, # of connection points: 2
#     Edge 24, Type (0, 1), BuildingBlock: XIVTED_clean_linker_0, # of connection points: 2
#     Edge 25, Type (0, 1), BuildingBlock: XIVTED_clean_linker_0, # of connection points: 2
#     Edge 26, Type (0, 1), BuildingBlock: XIVTED_clean_linker_0, # of connection points: 2
#     Edge 27, Type (0, 1), BuildingBlock: XIVTED_clean_linker_0, # of connection points: 2
#     Edge 28, Type (0, 1), BuildingBlock: XIVTED_clean_linker_0, # of connection points: 2
#     Edge 29, Type (0, 1), BuildingBlock: XIVTED_clean_linker_0, # of connection points: 2
#     Edge 30, Type (0, 1), BuildingBlock: XIVTED_clean_linker_0, # of connection points: 2
#     Edge 31, Type (0, 1), BuildingBlock: XIVTED_clean_linker_0, # of connection points: 2
#     Edge 32, Type (0, 1), BuildingBlock: XIVTED_clean_linker_0, # of connection points: 2
#     Edge 33, Type (0, 1), BuildingBlock: XIVTED_clean_linker_0, # of connection points: 2
#     Edge 34, Type (0, 1), BuildingBlock: XIVTED_clean_linker_0, # of connection points: 2
#     Edge 35, Type (0, 1), BuildingBlock: XIVTED_clean_linker_0, # of connection points: 2
#     Edge 36, Type (0, 1), BuildingBlock: XIVTED_clean_linker_0, # of connection points: 2
#     Edge 37, Type (0, 1), BuildingBlock: XIVTED_clean_linker_0, # of connection points: 2
#     Edge 38, Type (0, 1), BuildingBlock: XIVTED_clean_linker_0, # of connection points: 2
#     Edge 39, Type (0, 1), BuildingBlock: XIVTED_clean_linker_0, # of connection points: 2
#     Edge 40, Type (0, 1), BuildingBlock: XIVTED_clean_linker_0, # of connection points: 2
#     Edge 41, Type (0, 1), BuildingBlock: XIVTED_clean_linker_0, # of connection points: 2
#     Edge 42, Type (0, 1), BuildingBlock: XIVTED_clean_linker_0, # of connection points: 2
#     Edge 43, Type (0, 1), BuildingBlock: XIVTED_clean_linker_0, # of connection points: 2
#     Edge 44, Type (0, 1), BuildingBlock: XIVTED_clean_linker_0, # of connection points: 2
#     Edge 45, Type (0, 1), BuildingBlock: XIVTED_clean_linker_0, # of connection points: 2
#     Edge 46, Type (0, 1), BuildingBlock: XIVTED_clean_linker_0, # of connection points: 2
#     Edge 47, Type (0, 1), BuildingBlock: XIVTED_clean_linker_0, # of connection points: 2
#     Edge 48, Type (0, 1), BuildingBlock: XIVTED_clean_linker_0, # of connection points: 2
#     Edge 49, Type (0, 1), BuildingBlock: XIVTED_clean_linker_0, # of connection points: 2
#     Edge 50, Type (0, 1), BuildingBlock: XIVTED_clean_linker_0, # of connection points: 2
#     Edge 51, Type (0, 1), BuildingBlock: XIVTED_clean_linker_0, # of connection points: 2
#     Edge 52, Type (0, 1), BuildingBlock: XIVTED_clean_linker_0, # of connection points: 2
#     Edge 53, Type (0, 1), BuildingBlock: XIVTED_clean_linker_0, # of connection points: 2
#     Edge 54, Type (0, 1), BuildingBlock: XIVTED_clean_linker_0, # of connection points: 2
#     Edge 55, Type (0, 1), BuildingBlock: XIVTED_clean_linker_0, # of connection points: 2
#     Edge 56, Type (0, 1), BuildingBlock: XIVTED_clean_linker_0, # of connection points: 2
#     Edge 57, Type (0, 1), BuildingBlock: XIVTED_clean_linker_0, # of connection points: 2
#     Edge 58, Type (0, 1), BuildingBlock: XIVTED_clean_linker_0, # of connection points: 2
#     Edge 59, Type (0, 1), BuildingBlock: XIVTED_clean_linker_0, # of connection points: 2
#     Edge 60, Type (0, 1), BuildingBlock: XIVTED_clean_linker_0, # of connection points: 2
#     Edge 61, Type (0, 1), BuildingBlock: XIVTED_clean_linker_0, # of connection points: 2
#     Edge 62, Type (0, 1), BuildingBlock: XIVTED_clean_linker_0, # of connection points: 2
#     Edge 63, Type (0, 1), BuildingBlock: XIVTED_clean_linker_0, # of connection points: 2
#     Edge 64, Type (0, 1), BuildingBlock: XIVTED_clean_linker_0, # of connection points: 2
#     Edge 65, Type (0, 1), BuildingBlock: XIVTED_clean_linker_0, # of connection points: 2
#     Edge 66, Type (0, 1), BuildingBlock: XIVTED_clean_linker_0, # of connection points: 2
#     Edge 67, Type (0, 1), BuildingBlock: XIVTED_clean_linker_0, # of connection points: 2
# Relax obj value: 0.068
# Max RMSD: 0.200
# Mean RMSD: 0.141
data_MOF--net-soc--node1-ESEHIV_clean_sbu_0--node2-KUMBUR_clean_sbu_0--edge1-XIVTED_clean_linker_0
_symmetry_space_group_name_H-M    P1
_symmetry_Int_Tables_number       1
_symmetry_cell_setting            triclinic
loop_
_symmetry_equiv_pos_as_xyz
'x, y, z'
_cell_length_a     51.908344
_cell_length_b     50.087771
_cell_length_c     41.716033
_cell_angle_alpha  84.137408
_cell_angle_beta   82.651286
_cell_angle_gamma 73.552851
loop_
_atom_site_label
_atom_site_type_symbol
_atom_site_fract_x
_atom_site_fract_y
_atom_site_fract_z
_atom_type_partial_charge
Cu0 Cu 0.05212 0.03733 0.35417 0.0
N1 N 0.06214 0.06045 0.38001 0.0
N2 N 0.0803 0.09239 0.39458 0.0
C3 C 0.0806 0.07494 0.37173 0.0
C4 C 0.06096 0.08855 0.41807 0.0
C5 C 0.04973 0.06907 0.40894 0.0
O6 O 0.0848 0.01283 0.33197 0.0
C7 C 1.00113 0.07169 0.34296 0.0
O8 O 0.99626 0.06236 0.37303 0.0
H9 H 0.09304 0.07367 0.34874 0.0
H10 H 0.03291 0.06252 0.42193 0.0
N11 N 0.03542 0.01276 0.37975 0.0
N12 N 1.00941 0.98389 0.39368 0.0
C13 C 1.01914 0.99947 0.36941 0.0
C14 C 0.03645 0.00488 0.4115 0.0
C15 C 1.02025 0.98722 0.42021 0.0
C16 C 0.10186 0.99921 0.35141 0.0
O17 O 0.09674 0.00468 0.38208 0.0
H18 H 1.01392 1.00188 0.34477 0.0
H19 H 0.04813 0.01149 0.42724 0.0
O20 O 0.02486 0.06293 0.32827 0.0
H21 H 0.05493 0.09941 0.44011 0.0
H22 H 1.01686 0.97743 0.44414 0.0
Cu23 Cu 0.04985 0.04742 0.74904 0.0
N24 N 0.03399 0.02889 0.72356 0.0
N25 N 1.01071 1.00113 0.70993 0.0
C26 C 1.01682 0.01335 0.73429 0.0
C27 C 0.02445 0.00946 0.68289 0.0
C28 C 0.03875 0.02653 0.69135 0.0
O29 O 1.02074 0.07363 0.77472 0.0
C30 C 0.09541 0.00405 0.7501 0.0
O31 O 0.09285 0.01094 0.7192 0.0
H32 H 1.00972 0.01032 0.75958 0.0
H33 H 0.05227 0.0359 0.6752 0.0
N34 N 0.06895 0.06966 0.72334 0.0
N35 N 0.10027 0.09264 0.70925 0.0
C36 C 0.09113 0.07504 0.73149 0.0
C37 C 0.06365 0.08449 0.69504 0.0
C38 C 0.08304 0.0986 0.68619 0.0
C39 C 1.00165 0.08829 0.75847 0.0
O40 O 1.00252 0.08376 0.72786 0.0
H41 H 0.10025 0.06626 0.75349 0.0
H42 H 0.04659 0.08552 0.68212 0.0
O43 O 0.07754 0.01803 0.7707 0.0
H44 H 0.02434 0.0035 0.6587 0.0
H45 H 0.08379 0.11291 0.66503 0.0
Cu46 Cu 0.29517 0.05918 0.10494 0.0
N47 N 0.26892 0.04569 0.09047 0.0
N48 N 0.25424 0.01531 0.06712 0.0
C49 C 0.27545 0.02062 0.07815 0.0
C50 C 0.23328 0.03798 0.07296 0.0
C51 C 0.24244 0.05684 0.08723 0.0
O52 O 0.31667 0.02568 0.1287 0.0
C53 C 0.29506 0.09514 0.05055 0.0
O54 O 0.26996 0.1027 0.06376 0.0
H55 H 0.29564 0.0066 0.07718 0.0
H56 H 0.23078 0.07747 0.09366 0.0
N57 N 0.28052 0.08785 0.13331 0.0
N58 N 0.27702 0.12432 0.16209 0.0
C59 C 0.29363 0.10482 0.14316 0.0
C60 C 0.25487 0.09678 0.14681 0.0
C61 C 0.25263 0.11931 0.1644 0.0
C62 C 0.30374 0.01739 0.15423 0.0
O63 O 0.27955 0.03316 0.16348 0.0
H64 H 0.31476 0.10328 0.13599 0.0
H65 H 0.23887 0.08754 0.14426 0.0
O66 O 0.31196 0.07556 0.06537 0.0
H67 H 0.21307 0.04113 0.06641 0.0
H68 H 0.23452 0.13092 0.17816 0.0
Cu69 Cu 0.07617 0.30318 0.09046 0.0
N70 N 0.10735 0.28186 0.06647 0.0
N71 N 0.14386 0.2735 0.02943 0.0
C72 C 0.11995 0.29161 0.03926 0.0
C73 C 0.14624 0.25143 0.05151 0.0
C74 C 0.12393 0.2567 0.07429 0.0
O75 O 0.09104 0.32395 0.11823 0.0
C76 C 0.0464 0.30646 0.04038 0.0
O77 O 0.05918 0.27983 0.04425 0.0
H78 H 0.11221 0.31225 0.02782 0.0
H79 H 0.12069 0.24355 0.09575 0.0
N80 N 0.05455 0.28299 0.11696 0.0
N81 N 1.01744 0.27538 0.14649 0.0
C82 C 0.02873 0.29439 0.12923 0.0
C83 C 0.05971 0.25568 0.12655 0.0
C84 C 0.03703 0.25098 0.14485 0.0
C85 C 0.09777 0.31242 0.14595 0.0
O86 O 0.0914 0.28926 0.1564 0.0
H87 H 1.01847 0.31635 0.12556 0.0
H88 H 0.07847 0.24014 0.1205 0.0
O89 O 0.0515 0.32329 0.05827 0.0
H90 H 0.16312 0.23287 0.05167 0.0
H91 H 0.035 0.23096 0.15551 0.0
Cu92 Cu 0.78892 0.02051 1.00551 0.0
N93 N 0.80652 0.04119 0.97518 0.0
N94 N 0.81242 0.07847 0.94399 0.0
C95 C 0.7961 0.06846 0.96694 0.0
C96 C 0.83398 0.05645 0.93747 0.0
C97 C 0.83028 0.03346 0.95677 0.0
O98 O 0.76733 0.0469 0.03671 0.0
C99 C 0.78762 0.97903 0.96865 0.0
O100 O 0.81352 0.97453 0.97094 0.0
H101 H 0.77661 0.08055 0.97726 0.0
H102 H 0.84385 0.01264 0.95716 0.0
N103 N 0.81205 0.99394 0.03116 0.0
N104 N 0.82232 0.96482 0.07479 0.0
C105 C 0.80246 0.981 0.05783 0.0
C106 C 0.83911 0.98578 0.03095 0.0
C107 C 0.84552 0.96771 0.05792 0.0
C108 C 0.78282 0.05582 0.05183 0.0
O109 O 0.80896 0.0479 0.04323 0.0
H110 H 0.78109 0.9846 0.06532 0.0
H111 H 0.85309 0.99307 0.01315 0.0
O112 O 0.77106 0.99985 0.98217 0.0
H113 H 0.85131 0.05691 0.9202 0.0
H114 H 0.86564 0.95781 0.06471 0.0
Cu115 Cu 0.03392 0.76498 0.02442 0.0
N116 N 1.01784 0.74918 0.99591 0.0
N117 N 0.98861 0.7451 0.96261 0.0
C118 C 0.99522 0.76208 0.9815 0.0
C119 C 1.00792 0.72065 0.96514 0.0
C120 C 0.02593 0.72326 0.98545 0.0
O121 O 1.00391 0.78301 0.05813 0.0
C122 C 0.081 0.76631 0.98236 0.0
O123 O 0.0819 0.73971 0.98556 0.0
H124 H 0.98364 0.7834 0.98519 0.0
H125 H 0.04383 0.7074 0.99179 0.0
N126 N 0.05708 0.73841 0.05015 0.0
N127 N 0.08906 0.72393 0.08409 0.0
C128 C 0.07388 0.74584 0.06723 0.0
C129 C 0.06157 0.71065 0.05652 0.0
C130 C 0.08154 0.7016 0.07733 0.0
C131 C 0.99214 0.76563 0.07448 0.0
O132 O 0.99955 0.73984 0.06585 0.0
H133 H 0.07532 0.76703 0.06659 0.0
H134 H 0.05109 0.69788 0.04699 0.0
O135 O 0.0603 0.78344 0.99684 0.0
H136 H 1.00921 0.70228 0.95274 0.0
H137 H 0.0897 0.68036 0.08688 0.0
Cu138 Cu 0.53786 0.53862 0.86514 0.0
N139 N 0.55122 0.56005 0.88984 0.0
N140 N 0.57232 0.59037 0.90194 0.0
C141 C 0.56806 0.5758 0.87855 0.0
C142 C 0.55768 0.58339 0.92896 0.0
C143 C 0.54471 0.56473 0.92144 0.0
O144 O 0.56908 0.51285 0.84176 0.0
C145 C 0.49094 0.57953 0.86105 0.0
O146 O 0.49218 0.57306 0.89224 0.0
H147 H 0.57625 0.57725 0.85344 0.0
H148 H 0.53088 0.55588 0.93772 0.0
N149 N 0.52004 0.51555 0.89158 0.0
N150 N 0.493 0.48758 0.90515 0.0
C151 C 0.50074 0.50575 0.88237 0.0
C152 C 0.52477 0.50326 0.92126 0.0
C153 C 0.50808 0.48607 0.92974 0.0
C154 C 0.58711 0.49967 0.86028 0.0
O155 O 0.58333 0.50557 0.89077 0.0
H156 H 0.49304 0.5115 0.859 0.0
H157 H 0.53998 0.50572 0.93527 0.0
O158 O 0.50989 0.56575 0.84143 0.0
H159 H 0.55625 0.59136 0.95248 0.0
H160 H 0.50808 0.47252 0.95166 0.0
Cu161 Cu 0.56449 0.54438 0.25046 0.0
N162 N 0.55064 0.52215 0.22742 0.0
N163 N 0.52746 0.49341 0.21607 0.0
C164 C 0.53147 0.50908 0.23853 0.0
C165 C 0.54468 0.49689 0.18991 0.0
C166 C 0.55892 0.51452 0.19697 0.0
O167 O 0.5341 0.57019 0.275 0.0
C168 C 0.61389 0.5061 0.25299 0.0
O169 O 0.61247 0.51319 0.22195 0.0
H170 H 0.52122 0.51049 0.26283 0.0
H171 H 0.57457 0.5209 0.18109 0.0
N172 N 0.58015 0.56809 0.22192 0.0
N173 N 0.60445 0.59815 0.2046 0.0
C174 C 0.59785 0.58098 0.22945 0.0
C175 C 0.57522 0.57747 0.19131 0.0
C176 C 0.59024 0.59592 0.18052 0.0
C177 C 0.51567 0.58361 0.25712 0.0
O178 O 0.51826 0.57706 0.22695 0.0
H179 H 0.60506 0.57835 0.2531 0.0
H180 H 0.56126 0.57181 0.17795 0.0
O181 O 0.5941 0.51823 0.27283 0.0
H182 H 0.54686 0.48741 0.16718 0.0
H183 H 0.59054 0.60686 0.15679 0.0
Cu184 Cu 0.80542 0.57415 0.60374 0.0
N185 N 0.78585 0.59753 0.57244 0.0
N186 N 0.77992 0.62188 0.52475 0.0
C187 C 0.79697 0.60211 0.54223 0.0
C188 C 0.75684 0.62967 0.5447 0.0
C189 C 0.76059 0.6146 0.57426 0.0
O190 O 0.82134 0.59586 0.62826 0.0
C191 C 0.84041 0.51941 0.58872 0.0
O192 O 0.84243 0.51313 0.61982 0.0
H193 H 0.81761 0.5917 0.53371 0.0
H194 H 0.74637 0.6167 0.59581 0.0
N195 N 0.7832 0.55814 0.6336 0.0
N196 N 0.77297 0.52261 0.66451 0.0
C197 C 0.78201 0.53157 0.6347 0.0
C198 C 0.77333 0.56682 0.66329 0.0
C199 C 0.76692 0.54501 0.68238 0.0
C200 C 0.82142 0.62103 0.61958 0.0
O201 O 0.81511 0.6314 0.59054 0.0
H202 H 0.78985 0.51835 0.6148 0.0
H203 H 0.77363 0.58653 0.67147 0.0
O204 O 0.82987 0.54458 0.57877 0.0
H205 H 0.73903 0.64603 0.53894 0.0
H206 H 0.7611 0.54485 0.70824 0.0
Cu207 Cu 0.56571 0.80969 0.58852 0.0
N208 N 0.59615 0.78896 0.56107 0.0
N209 N 0.63168 0.7805 0.52173 0.0
C210 C 0.60967 0.79972 0.53499 0.0
C211 C 0.63181 0.75675 0.54048 0.0
C212 C 0.61026 0.762 0.56445 0.0
O213 O 0.58258 0.82642 0.61787 0.0
C214 C 0.53842 0.82382 0.53573 0.0
O215 O 0.5496 0.7969 0.53404 0.0
H216 H 0.60375 0.82149 0.52643 0.0
H217 H 0.60561 0.74718 0.58342 0.0
N218 N 0.54097 0.79075 0.61319 0.0
N219 N 0.50344 0.78338 0.64369 0.0
C220 C 0.51644 0.80255 0.62963 0.0
C221 C 0.54332 0.76321 0.61678 0.0
C222 C 0.52064 0.75867 0.63531 0.0
C223 C 0.58832 0.8139 0.64536 0.0
O224 O 0.57952 0.79202 0.65532 0.0
H225 H 0.50832 0.82484 0.63123 0.0
H226 H 0.5602 0.74739 0.60628 0.0
O227 O 0.54301 0.83585 0.55904 0.0
H228 H 0.64647 0.73675 0.53732 0.0
H229 H 0.51705 0.73844 0.64147 0.0
Cu230 Cu 0.28586 0.52485 0.52404 0.0
N231 N 0.30578 0.54529 0.49554 0.0
N232 N 0.31416 0.58079 0.46201 0.0
C233 C 0.29574 0.57167 0.48296 0.0
C234 C 0.33672 0.5591 0.46153 0.0
C235 C 0.3315 0.53733 0.48212 0.0
O236 O 0.25746 0.554 0.54508 0.0
C237 C 0.28995 0.47949 0.48889 0.0
O238 O 0.31444 0.47322 0.49784 0.0
H239 H 0.27504 0.58368 0.48859 0.0
H240 H 0.34541 0.51707 0.48675 0.0
N241 N 0.30623 0.50149 0.55592 0.0
N242 N 0.31721 0.46951 0.59769 0.0
C243 C 0.29934 0.48083 0.5756 0.0
C244 C 0.32944 0.50312 0.56555 0.0
C245 C 0.33626 0.48353 0.59108 0.0
C246 C 0.25168 0.55516 0.57561 0.0
O247 O 0.25988 0.53262 0.5947 0.0
H248 H 0.28093 0.47509 0.57438 0.0
H249 H 0.34037 0.51793 0.55517 0.0
O250 O 0.27291 0.50191 0.49797 0.0
H251 H 0.35579 0.5589 0.44749 0.0
H252 H 0.3539 0.48021 0.60384 0.0
Cu253 Cu 0.52891 0.28084 0.51059 0.0
N254 N 0.55952 0.2634 0.48269 0.0
N255 N 0.59958 0.25854 0.45246 0.0
C256 C 0.58402 0.26862 0.47955 0.0
C257 C 0.58437 0.24634 0.43815 0.0
C258 C 0.55983 0.24932 0.45677 0.0
O259 O 0.54209 0.30767 0.53094 0.0
C260 C 0.4855 0.27833 0.47798 0.0
O261 O 0.49364 0.25231 0.48961 0.0
H262 H 0.58956 0.2814 0.49542 0.0
H263 H 0.54276 0.24326 0.45062 0.0
N264 N 0.51838 0.25624 0.54392 0.0
N265 N 0.49368 0.24066 0.58634 0.0
C266 C 0.49469 0.26153 0.56319 0.0
C267 C 0.53276 0.23093 0.55484 0.0
C268 C 0.51768 0.2213 0.58083 0.0
C269 C 0.53959 0.31039 0.56141 0.0
O270 O 0.52157 0.30066 0.5802 0.0
H271 H 0.479 0.28094 0.56092 0.0
H272 H 0.55299 0.22044 0.54495 0.0
O273 O 0.49804 0.29566 0.48397 0.0
H274 H 0.59018 0.23688 0.41518 0.0
H275 H 0.52421 0.20157 0.59467 0.0
Tb276 Tb 0.27018 0.29534 0.34322 0.0
C277 C 0.30384 0.31999 0.2014 0.0
C278 C 0.33613 0.27661 0.18685 0.0
C279 C 0.3093 0.30609 0.14627 0.0
C280 C 0.32301 0.29593 0.21006 0.0
C281 C 0.29737 0.32588 0.16918 0.0
C282 C 0.32861 0.28142 0.15513 0.0
C283 C 0.27036 0.37164 0.18395 0.0
N284 N 0.29316 0.3387 0.22415 0.0
C285 C 0.27744 0.3648 0.21562 0.0
C286 C 0.28003 0.35194 0.16073 0.0
Tb287 Tb 0.30594 0.32561 0.27529 0.0
N288 N 0.33012 0.29247 0.2407 0.0
C289 C 0.35171 0.27105 0.24903 0.0
C290 C 0.35709 0.25365 0.19591 0.0
C291 C 0.3652 0.25112 0.22698 0.0
H292 H 0.26977 0.38003 0.23354 0.0
H293 H 0.3818 0.2338 0.23402 0.0
H294 H 0.33825 0.2667 0.13702 0.0
H295 H 0.25741 0.39206 0.17749 0.0
H296 H 0.35816 0.26868 0.27298 0.0
H297 H 0.19361 0.38662 0.38486 0.0
H298 H 0.36765 0.23827 0.17884 0.0
H299 H 0.30599 0.24065 0.38488 0.0
H300 H 0.21783 0.35234 0.3456 0.0
H301 H 0.31779 0.22808 0.44102 0.0
H302 H 0.30437 0.31004 0.12145 0.0
H303 H 0.20698 0.3815 0.44048 0.0
H304 H 0.23593 0.35269 0.48251 0.0
H305 H 0.2746 0.35733 0.1362 0.0
H306 H 0.26978 0.30928 0.49796 0.0
N307 N 0.24542 0.32803 0.37815 0.0
C308 C 0.22395 0.34958 0.36973 0.0
C309 C 0.21777 0.36631 0.42329 0.0
C310 C 0.23862 0.34327 0.43239 0.0
C311 C 0.21011 0.3692 0.39197 0.0
C312 C 0.25206 0.32423 0.40901 0.0
H313 H 0.29995 0.26227 0.48281 0.0
N314 N 0.28219 0.28177 0.39463 0.0
C315 C 0.30478 0.24851 0.43471 0.0
C316 C 0.27117 0.30015 0.41761 0.0
C317 C 0.298 0.25568 0.40295 0.0
C318 C 0.29474 0.26789 0.45822 0.0
C319 C 0.27733 0.29394 0.44993 0.0
O320 O 0.26219 0.25602 0.3505 0.0
O321 O 0.29091 0.29087 0.2952 0.0
O322 O 0.26805 0.32399 0.25856 0.0
O323 O 0.24192 0.3187 0.30751 0.0
O324 O 0.29801 0.25641 0.3262 0.0
O325 O 0.22983 0.29372 0.34717 0.0
O326 O 0.31482 0.36437 0.2656 0.0
O327 O 0.28512 0.32999 0.32307 0.0
O328 O 0.30803 0.29686 0.36011 0.0
O329 O 0.33424 0.30324 0.31143 0.0
O330 O 0.2796 0.36515 0.29338 0.0
O331 O 0.34659 0.32628 0.27094 0.0
C332 C 0.30302 0.26521 0.29667 0.0
C333 C 0.22035 0.2557 0.38007 0.0
C334 C 0.19021 0.22675 0.40111 0.0
C335 C 0.20587 0.23683 0.37504 0.0
C336 C 0.18988 0.23533 0.4323 0.0
C337 C 0.21925 0.26423 0.41129 0.0
C338 C 0.20429 0.25393 0.43726 0.0
C339 C 0.24462 0.32376 0.27542 0.0
C340 C 0.23613 0.26669 0.35259 0.0
C341 C 0.26509 0.31346 0.47305 0.0
C342 C 0.2458 0.33816 0.46426 0.0
C343 C 0.2739 0.35584 0.32253 0.0
C344 C 0.35732 0.36274 0.23629 0.0
C345 C 0.37645 0.37653 0.24149 0.0
C346 C 0.39284 0.38512 0.21511 0.0
C347 C 0.38944 0.3801 0.18354 0.0
C348 C 0.35457 0.35783 0.2046 0.0
C349 C 0.37043 0.36657 0.17841 0.0
C350 C 0.33136 0.29804 0.3435 0.0
C351 C 0.34083 0.35315 0.26409 0.0
H352 H 0.20631 0.23056 0.35081 0.0
H353 H 0.17851 0.2276 0.45296 0.0
H354 H 0.22974 0.27898 0.41565 0.0
H355 H 0.20373 0.26052 0.46132 0.0
H356 H 0.37891 0.38004 0.26599 0.0
H357 H 0.40136 0.38686 0.16271 0.0
H358 H 0.34028 0.3472 0.19998 0.0
H359 H 0.36802 0.36277 0.15403 0.0
Tb360 Tb 0.82188 0.30604 0.33742 0.0
C361 C 0.73108 0.2703 0.29148 0.0
C362 C 0.72852 0.23148 0.3304 0.0
C363 C 0.68889 0.25736 0.30407 0.0
C364 C 0.74346 0.24876 0.31277 0.0
C365 C 0.70379 0.27442 0.28644 0.0
C366 C 0.7012 0.23601 0.32607 0.0
C367 C 0.70841 0.31048 0.24492 0.0
N368 N 0.74587 0.28676 0.27515 0.0
C369 C 0.73535 0.3055 0.25064 0.0
C370 C 0.69242 0.29513 0.26323 0.0
Tb371 Tb 0.7906 0.27456 0.28386 0.0
N372 N 0.76992 0.24507 0.31664 0.0
C373 C 0.78246 0.22418 0.33797 0.0
C374 C 0.74137 0.21022 0.35205 0.0
C375 C 0.76843 0.20658 0.35583 0.0
H376 H 0.74786 0.31687 0.23574 0.0
H377 H 0.77848 0.19037 0.37283 0.0
H378 H 0.68942 0.22303 0.33954 0.0
H379 H 0.70012 0.32588 0.22611 0.0
H380 H 0.80299 0.2212 0.34259 0.0
H381 H 0.86777 0.3709 0.25021 0.0
H382 H 0.73053 0.19663 0.36612 0.0
H383 H 0.84532 0.26613 0.40161 0.0
H384 H 0.83013 0.35451 0.27935 0.0
H385 H 0.88937 0.24643 0.42368 0.0
H386 H 0.66788 0.26037 0.30069 0.0
H387 H 0.91451 0.34881 0.26351 0.0
H388 H 0.94577 0.31506 0.29969 0.0
H389 H 0.67157 0.29887 0.25863 0.0
H390 H 0.95159 0.28155 0.34747 0.0
N391 N 0.85534 0.32239 0.30803 0.0
C392 C 0.8504 0.34452 0.28537 0.0
C393 C 0.89807 0.34138 0.27629 0.0
C394 C 0.90274 0.32022 0.30122 0.0
C395 C 0.87171 0.35395 0.26879 0.0
C396 C 0.88065 0.31125 0.31701 0.0
H397 H 0.93057 0.2563 0.39428 0.0
N398 N 0.8617 0.2861 0.35961 0.0
C399 C 0.88813 0.2593 0.40115 0.0
C400 C 0.88388 0.29273 0.344 0.0
C401 C 0.86325 0.27052 0.38866 0.0
C402 C 0.91135 0.26489 0.38446 0.0
C403 C 0.90935 0.28215 0.35577 0.0
O404 O 0.8166 0.31902 0.38522 0.0
O405 O 0.7879 0.29124 0.33035 0.0
O406 O 0.76473 0.31691 0.29011 0.0
O407 O 0.79261 0.33913 0.31059 0.0
O408 O 0.79829 0.28682 0.37628 0.0
O409 O 0.81244 0.34893 0.34417 0.0
O410 O 0.79719 0.27416 0.23342 0.0
O411 O 0.82472 0.28926 0.29079 0.0
O412 O 0.84739 0.26282 0.33331 0.0
O413 O 0.8259 0.2419 0.30077 0.0
O414 O 0.81063 0.29871 0.24671 0.0
O415 O 0.79375 0.23694 0.26231 0.0
C416 C 0.78114 0.28289 0.35888 0.0
C417 C 0.83229 0.35908 0.38811 0.0
C418 C 0.84438 0.38222 0.43081 0.0
C419 C 0.82647 0.36955 0.41927 0.0
C420 C 0.86815 0.3837 0.41138 0.0
C421 C 0.85534 0.36289 0.36866 0.0
C422 C 0.87341 0.37434 0.38042 0.0
C423 C 0.77047 0.33955 0.29741 0.0
C424 C 0.81428 0.34507 0.37529 0.0
C425 C 0.93178 0.28969 0.33902 0.0
C426 C 0.92848 0.3087 0.31177 0.0
C427 C 0.8299 0.29983 0.26271 0.0
C428 C 0.77647 0.2454 0.21024 0.0
C429 C 0.7737 0.2188 0.20586 0.0
C430 C 0.75763 0.21541 0.18234 0.0
C431 C 0.74368 0.23924 0.16428 0.0
C432 C 0.76308 0.26845 0.19061 0.0
C433 C 0.74637 0.26545 0.16851 0.0
C434 C 0.84543 0.24098 0.3191 0.0
C435 C 0.79491 0.249 0.23306 0.0
H436 H 0.80811 0.36823 0.43416 0.0
H437 H 0.88204 0.39351 0.41957 0.0
H438 H 0.85926 0.3578 0.34395 0.0
H439 H 0.89121 0.37669 0.36507 0.0
H440 H 0.78454 0.2008 0.22014 0.0
H441 H 0.73168 0.2376 0.14555 0.0
H442 H 0.76575 0.28895 0.19179 0.0
H443 H 0.73613 0.28344 0.15378 0.0
Tb444 Tb 0.79091 0.78067 0.26738 0.0
C445 C 0.80175 0.79122 0.40129 0.0
C446 C 0.7642 0.8319 0.41164 0.0
C447 C 0.7761 0.79545 0.45453 0.0
C448 C 0.78541 0.81647 0.39051 0.0
C449 C 0.79793 0.7809 0.43383 0.0
C450 C 0.75924 0.82093 0.44343 0.0
C451 C 0.83985 0.74521 0.42457 0.0
N452 N 0.82276 0.77796 0.38066 0.0
C453 C 0.8429 0.75653 0.39273 0.0
C454 C 0.81689 0.75703 0.44502 0.0
Tb455 Tb 0.82533 0.79766 0.32816 0.0
N456 N 0.79059 0.82618 0.35947 0.0
C457 C 0.77623 0.85228 0.34883 0.0
C458 C 0.74877 0.85799 0.40028 0.0
C459 C 0.75504 0.86835 0.36885 0.0
H460 H 0.8612 0.74765 0.37744 0.0
H461 H 0.74359 0.88877 0.36 0.0
H462 H 0.7428 0.83227 0.45983 0.0
H463 H 0.85535 0.72755 0.43339 0.0
H464 H 0.78083 0.86114 0.32504 0.0
H465 H 0.86898 0.68532 0.2398 0.0
H466 H 0.73229 0.87045 0.4157 0.0
H467 H 0.75991 0.83175 0.21514 0.0
H468 H 0.83187 0.71497 0.27267 0.0
H469 H 0.77002 0.85136 0.16013 0.0
H470 H 0.7726 0.78763 0.47943 0.0
H471 H 0.88385 0.70238 0.18485 0.0
H472 H 0.87776 0.74053 0.14043 0.0
H473 H 0.81468 0.74843 0.4698 0.0
H474 H 0.8517 0.78657 0.11933 0.0
N475 N 0.82569 0.75016 0.23805 0.0
C476 C 0.83808 0.72352 0.24933 0.0
C477 C 0.86744 0.71583 0.1994 0.0
C478 C 0.85412 0.74254 0.18733 0.0
C479 C 0.85918 0.7062 0.23042 0.0
C480 C 0.83289 0.75927 0.20734 0.0
H481 H 0.81155 0.82815 0.1265 0.0
N482 N 0.79728 0.79975 0.21502 0.0
C483 C 0.7842 0.83303 0.16999 0.0
C484 C 0.81863 0.78527 0.19572 0.0
C485 C 0.77884 0.82206 0.20151 0.0
C486 C 0.80761 0.81988 0.1511 0.0
C487 C 0.82463 0.79509 0.16343 0.0
O488 O 0.75434 0.7858 0.24761 0.0
O489 O 0.78845 0.78884 0.31798 0.0
O490 O 0.83045 0.75256 0.33544 0.0
O491 O 0.79823 0.7461 0.30519 0.0
O492 O 0.75405 0.80408 0.29567 0.0
O493 O 0.77787 0.74506 0.26341 0.0
O494 O 0.86313 0.79461 0.34384 0.0
O495 O 0.82799 0.78971 0.2773 0.0
O496 O 0.78308 0.826 0.2628 0.0
O497 O 0.81694 0.83221 0.29035 0.0
O498 O 0.86168 0.77261 0.30106 0.0
O499 O 0.83596 0.83465 0.33251 0.0
C500 C 0.76345 0.80145 0.32333 0.0
C501 C 0.75184 0.74768 0.22016 0.0
C502 C 0.72841 0.72033 0.19543 0.0
C503 C 0.73385 0.73101 0.22303 0.0
C504 C 0.74158 0.72619 0.16502 0.0
C505 C 0.76457 0.75335 0.18953 0.0
C506 C 0.75955 0.74256 0.16218 0.0
C507 C 0.81551 0.73739 0.32737 0.0
C508 C 0.75674 0.75915 0.24927 0.0
C509 C 0.84654 0.77917 0.14397 0.0
C510 C 0.86126 0.7529 0.15591 0.0
C511 C 0.85277 0.77594 0.27303 0.0
C512 C 0.86486 0.83243 0.37263 0.0
C513 C 0.87945 0.85253 0.36876 0.0
C514 C 0.88562 0.86315 0.39603 0.0
C515 C 0.87692 0.85327 0.42718 0.0
C516 C 0.85638 0.82313 0.40399 0.0
C517 C 0.86234 0.83351 0.43103 0.0
C518 C 0.79845 0.84113 0.26966 0.0
C519 C 0.85875 0.82151 0.34376 0.0
H520 H 0.72371 0.72686 0.24661 0.0
H521 H 0.73813 0.71793 0.14344 0.0
H522 H 0.77822 0.76619 0.18652 0.0
H523 H 0.76957 0.747 0.13868 0.0
H524 H 0.88578 0.85999 0.34455 0.0
H525 H 0.88178 0.86043 0.44869 0.0
H526 H 0.84535 0.80775 0.40785 0.0
H527 H 0.85582 0.82601 0.4551 0.0
Tb528 Tb 0.30166 0.78288 0.26939 0.0
C529 C 0.32453 0.87159 0.33741 0.0
C530 C 0.36272 0.87923 0.30159 0.0
C531 C 0.33284 0.91736 0.33129 0.0
C532 C 0.34695 0.8615 0.31583 0.0
C533 C 0.31782 0.89935 0.3463 0.0
C534 C 0.35519 0.90734 0.30887 0.0
C535 C 0.28422 0.88846 0.38711 0.0
N536 N 0.31031 0.85373 0.35122 0.0
C537 C 0.29175 0.86116 0.37751 0.0
C538 C 0.29691 0.90786 0.37094 0.0
Tb539 Tb 0.32461 0.80932 0.33431 0.0
N540 N 0.35363 0.83419 0.30937 0.0
C541 C 0.37681 0.82306 0.28993 0.0
C542 C 0.38581 0.86813 0.2808 0.0
C543 C 0.39301 0.83986 0.27523 0.0
H544 H 0.28222 0.84604 0.39041 0.0
H545 H 0.41099 0.831 0.2594 0.0
H546 H 0.36691 0.92132 0.2979 0.0
H547 H 0.2688 0.89445 0.40712 0.0
H548 H 0.38273 0.80148 0.28462 0.0
H549 H 0.22194 0.74644 0.3411 0.0
H550 H 0.3984 0.88108 0.2693 0.0
H551 H 0.34503 0.75456 0.20862 0.0
H552 H 0.24527 0.78145 0.3182 0.0
H553 H 0.36268 0.70819 0.18621 0.0
H554 H 0.32777 0.93886 0.33747 0.0
H555 H 0.24031 0.69732 0.32732 0.0
H556 H 0.27493 0.66176 0.29473 0.0
H557 H 0.29119 0.92898 0.37853 0.0
H558 H 0.31352 0.6512 0.25269 0.0
N559 N 0.27734 0.75256 0.29191 0.0
C560 C 0.25364 0.76024 0.31163 0.0
C561 C 0.25074 0.71265 0.31709 0.0
C562 C 0.27405 0.70523 0.29538 0.0
C563 C 0.24027 0.74037 0.32483 0.0
C564 C 0.28692 0.72596 0.28287 0.0
H565 H 0.34611 0.66848 0.21166 0.0
N566 N 0.31983 0.74076 0.24722 0.0
C567 C 0.34778 0.71108 0.20714 0.0
C568 C 0.30889 0.71987 0.25971 0.0
C569 C 0.33772 0.73727 0.2198 0.0
C570 C 0.33841 0.68873 0.22161 0.0
C571 C 0.31825 0.69311 0.24774 0.0
O572 O 0.29972 0.79803 0.22076 0.0
O573 O 0.31363 0.81685 0.28524 0.0
O574 O 0.28413 0.83673 0.32863 0.0
O575 O 0.2671 0.81506 0.29216 0.0
O576 O 0.32812 0.80507 0.23948 0.0
O577 O 0.26526 0.78841 0.24864 0.0
O578 O 0.32186 0.79826 0.38414 0.0
O579 O 0.31212 0.77558 0.31875 0.0
O580 O 0.34246 0.75574 0.27446 0.0
O581 O 0.35792 0.77372 0.3158 0.0
O582 O 0.29672 0.78866 0.3637 0.0
O583 O 0.35936 0.80282 0.35873 0.0
C584 C 0.32707 0.8233 0.25962 0.0
C585 C 0.27354 0.77792 0.19311 0.0
C586 C 0.24784 0.75374 0.16686 0.0
C587 C 0.24997 0.76945 0.19214 0.0
C588 C 0.26968 0.74642 0.14277 0.0
C589 C 0.2947 0.77093 0.16807 0.0
C590 C 0.29286 0.75501 0.14342 0.0
C591 C 0.26427 0.83439 0.313 0.0
C592 C 0.27605 0.79427 0.21975 0.0
C593 C 0.30638 0.672 0.26125 0.0
C594 C 0.28437 0.67804 0.28512 0.0
C595 C 0.29807 0.76986 0.34418 0.0
C596 C 0.34802 0.81745 0.41281 0.0
C597 C 0.37183 0.82527 0.41426 0.0
C598 C 0.37434 0.84038 0.43999 0.0
C599 C 0.35213 0.8484 0.46353 0.0
C600 C 0.32643 0.8254 0.4371 0.0
C601 C 0.32838 0.84112 0.46188 0.0
C602 C 0.36137 0.75587 0.29299 0.0
C603 C 0.34596 0.80006 0.38699 0.0
H604 H 0.23336 0.77507 0.21098 0.0
H605 H 0.26854 0.73479 0.12273 0.0
H606 H 0.31282 0.77766 0.16745 0.0
H607 H 0.30936 0.74962 0.12445 0.0
H608 H 0.38848 0.81917 0.39561 0.0
H609 H 0.35331 0.85938 0.4841 0.0
H610 H 0.30797 0.81939 0.43716 0.0
H611 H 0.31161 0.84709 0.48041 0.0
Tb612 Tb 0.29993 0.80463 0.84323 0.0
C613 C 0.21856 0.78198 0.77402 0.0
C614 C 0.20437 0.74848 0.81341 0.0
C615 C 0.17246 0.77836 0.77825 0.0
C616 C 0.22435 0.76126 0.79885 0.0
C617 C 0.19278 0.79006 0.76275 0.0
C618 C 0.17823 0.75764 0.80355 0.0
C619 C 0.21003 0.81792 0.71909 0.0
N620 N 0.23869 0.79279 0.75943 0.0
C621 C 0.23527 0.8091 0.731 0.0
C622 C 0.18853 0.80877 0.73538 0.0
Tb623 Tb 0.27922 0.77596 0.78077 0.0
N624 N 0.24988 0.75279 0.80777 0.0
C625 C 0.25704 0.73069 0.83005 0.0
C626 C 0.2114 0.72641 0.8369 0.0
C627 C 0.23793 0.71724 0.84491 0.0
H628 H 0.25178 0.81648 0.71857 0.0
H629 H 0.24362 0.70003 0.86285 0.0
H630 H 0.16254 0.7483 0.81474 0.0
H631 H 0.20719 0.83172 0.69733 0.0
H632 H 0.27723 0.7236 0.83715 0.0
H633 H 0.25361 0.90799 0.88488 0.0
H634 H 0.19662 0.71606 0.84863 0.0
H635 H 0.36763 0.77522 0.82568 0.0
H636 H 0.25893 0.85774 0.88317 0.0
H637 H 0.40683 0.79113 0.80369 0.0
H638 H 0.15244 0.78458 0.7702 0.0
H639 H 0.28743 0.92956 0.85399 0.0
H640 H 0.33242 0.92305 0.82065 0.0
H641 H 0.16903 0.81548 0.72598 0.0
H642 H 0.37454 0.89081 0.79816 0.0
N643 N 0.29444 0.85101 0.84958 0.0
C644 C 0.27364 0.86686 0.86911 0.0
C645 C 0.28968 0.9075 0.85277 0.0
C646 C 0.31235 0.89062 0.83561 0.0
C647 C 0.27059 0.8954 0.8703 0.0
C648 C 0.31433 0.862 0.83489 0.0
H649 H 0.40279 0.84145 0.79262 0.0
N650 N 0.3398 0.81613 0.82569 0.0
C651 C 0.38746 0.80624 0.80846 0.0
C652 C 0.3379 0.84388 0.82234 0.0
C653 C 0.36471 0.79731 0.8209 0.0
C654 C 0.3851 0.83463 0.80211 0.0
C655 C 0.36031 0.85391 0.81006 0.0
O656 O 0.2967 0.77758 0.88476 0.0
O657 O 0.27175 0.78241 0.83241 0.0
O658 O 0.25375 0.81915 0.78176 0.0
O659 O 0.27279 0.84 0.81689 0.0
O660 O 0.25708 0.816 0.86062 0.0
O661 O 0.3159 0.80991 0.88541 0.0
O662 O 0.30381 0.7648 0.73734 0.0
O663 O 0.31174 0.79033 0.79485 0.0
O664 O 0.32804 0.76336 0.83694 0.0
O665 O 0.30983 0.74121 0.80287 0.0
O666 O 0.29826 0.80565 0.75115 0.0
O667 O 0.27655 0.74135 0.75735 0.0
C668 C 0.25017 0.79713 0.84792 0.0
C669 C 0.28877 0.80036 0.93319 0.0
C670 C 0.26873 0.8353 0.97282 0.0
C671 C 0.28572 0.82674 0.94446 0.0
C672 C 0.25479 0.81703 0.98988 0.0
C673 C 0.27481 0.78241 0.95085 0.0
C674 C 0.25788 0.79077 0.97893 0.0
C675 C 0.25532 0.84109 0.79582 0.0
C676 C 0.30588 0.79155 0.90284 0.0
C677 C 0.35769 0.8827 0.80803 0.0
C678 C 0.33372 0.90106 0.82085 0.0
C679 C 0.31679 0.80516 0.76939 0.0
C680 C 0.28211 0.74836 0.70017 0.0
C681 C 0.27361 0.72643 0.69031 0.0
C682 C 0.26293 0.7289 0.66029 0.0
C683 C 0.2601 0.75412 0.64095 0.0
C684 C 0.28052 0.77254 0.67931 0.0
C685 C 0.2691 0.77556 0.65027 0.0
C686 C 0.32774 0.74093 0.82295 0.0
C687 C 0.29244 0.746 0.73215 0.0
H688 H 0.29624 0.84082 0.93092 0.0
H689 H 0.24188 0.8228 1.01202 0.0
H690 H 0.27685 0.76194 0.94282 0.0
H691 H 0.24718 0.7768 0.99233 0.0
H692 H 0.27595 0.70732 0.70574 0.0
H693 H 0.2511 0.75731 0.61836 0.0
H694 H 0.28772 0.78942 0.68557 0.0
H695 H 0.2673 0.7946 0.63484 0.0
Tb696 Tb 0.2979 0.2563 0.78522 0.0
C697 C 0.33819 0.27208 0.91029 0.0
C698 C 0.30212 0.31063 0.93096 0.0
C699 C 0.32885 0.27684 0.96835 0.0
C700 C 0.31741 0.29574 0.90476 0.0
C701 C 0.34469 0.26279 0.94207 0.0
C702 C 0.30753 0.30068 0.96281 0.0
C703 C 0.38355 0.22823 0.91934 0.0
N704 N 0.35296 0.25902 0.88431 0.0
C705 C 0.37623 0.23817 0.8883 0.0
C706 C 0.36745 0.24028 0.94639 0.0
Tb707 Tb 0.33969 0.27747 0.83451 0.0
N708 N 0.31301 0.30487 0.87364 0.0
C709 C 0.29492 0.33007 0.86705 0.0
C710 C 0.28237 0.33547 0.92432 0.0
C711 C 0.27903 0.34542 0.89221 0.0
H712 H 0.38857 0.22857 0.86742 0.0
H713 H 0.26424 0.36495 0.88679 0.0
H714 H 0.29585 0.31169 0.98325 0.0
H715 H 0.40155 0.21124 0.92235 0.0
H716 H 0.292 0.33816 0.84243 0.0
H717 H 0.37123 0.15511 0.76942 0.0
H718 H 0.27013 0.34747 0.94375 0.0
H719 H 0.26278 0.30054 0.73144 0.0
H720 H 0.33985 0.19128 0.8005 0.0
H721 H 0.26383 0.30839 0.67193 0.0
H722 H 0.33333 0.26986 0.99299 0.0
H723 H 0.37778 0.16131 0.70976 0.0
H724 H 0.3652 0.19056 0.65889 0.0
H725 H 0.37317 0.23257 0.97042 0.0
H726 H 0.33651 0.23254 0.63229 0.0
N727 N 0.32745 0.21914 0.75932 0.0
C728 C 0.34163 0.19488 0.77464 0.0
C729 C 0.36356 0.17755 0.72334 0.0
C730 C 0.34862 0.20187 0.70758 0.0
C731 C 0.35987 0.17397 0.75698 0.0
C732 C 0.33042 0.22246 0.7264 0.0
H733 H 0.29852 0.2764 0.63687 0.0
N734 N 0.29734 0.26553 0.7302 0.0
C735 C 0.27858 0.29106 0.68264 0.0
C736 C 0.31487 0.24641 0.71141 0.0
C737 C 0.27805 0.28657 0.7163 0.0
C738 C 0.29816 0.27298 0.66298 0.0
C739 C 0.31625 0.24996 0.67726 0.0
O740 O 0.25588 0.26673 0.78611 0.0
O741 O 0.30062 0.27128 0.8309 0.0
O742 O 0.33465 0.23806 0.85896 0.0
O743 O 0.30653 0.22496 0.82735 0.0
O744 O 0.26663 0.28977 0.80896 0.0
O745 O 0.27943 0.22411 0.78173 0.0
O746 O 0.38054 0.27642 0.82343 0.0
O747 O 0.33656 0.26345 0.7883 0.0
O748 O 0.30413 0.29541 0.76129 0.0
O749 O 0.32238 0.31315 0.80011 0.0
O750 O 0.37124 0.24515 0.80947 0.0
O751 O 0.35132 0.31419 0.83793 0.0
C752 C 0.27749 0.28824 0.83545 0.0
C753 C 0.23884 0.23967 0.75539 0.0
C754 C 0.2175 0.21239 0.72724 0.0
C755 C 0.2345 0.21394 0.75043 0.0
C756 C 0.20568 0.23665 0.70839 0.0
C757 C 0.22527 0.26384 0.73751 0.0
C758 C 0.2095 0.26216 0.71363 0.0
C759 C 0.3213 0.22062 0.85237 0.0
C760 C 0.2555 0.2417 0.78095 0.0
C761 C 0.33492 0.22998 0.65852 0.0
C762 C 0.35116 0.20603 0.67366 0.0
C763 C 0.35966 0.24651 0.78361 0.0
C764 C 0.3953 0.30514 0.85454 0.0
C765 C 0.39525 0.33205 0.8616 0.0
C766 C 0.41293 0.33553 0.88282 0.0
C767 C 0.43022 0.31182 0.89742 0.0
C768 C 0.41382 0.28185 0.86826 0.0
C769 C 0.43069 0.2852 0.89004 0.0
C770 C 0.31172 0.31567 0.77219 0.0
C771 C 0.3769 0.30159 0.83194 0.0
H772 H 0.24373 0.19538 0.7651 0.0
H773 H 0.19222 0.23625 0.69074 0.0
H774 H 0.22624 0.28429 0.74229 0.0
H775 H 0.19945 0.2809 0.69986 0.0
H776 H 0.38175 0.3502 0.85031 0.0
H777 H 0.44427 0.31387 0.9135 0.0
H778 H 0.41568 0.26098 0.86191 0.0
H779 H 0.44467 0.26709 0.90064 0.0
Tb780 Tb 0.78256 0.28444 0.77287 0.0
C781 C 0.81019 0.37697 0.82944 0.0
C782 C 0.84429 0.38546 0.78744 0.0
C783 C 0.81599 0.42367 0.81827 0.0
C784 C 0.83069 0.36716 0.80541 0.0
C785 C 0.80325 0.40513 0.83692 0.0
C786 C 0.83641 0.41386 0.7935 0.0
C787 C 0.77403 0.39385 0.88296 0.0
N788 N 0.79812 0.35856 0.84675 0.0
C789 C 0.78164 0.36617 0.87457 0.0
C790 C 0.78447 0.41358 0.86365 0.0
Tb791 Tb 0.81234 0.31367 0.83126 0.0
N792 N 0.83774 0.33957 0.8002 0.0
C793 C 0.85934 0.32872 0.77836 0.0
C794 C 0.8657 0.3746 0.76429 0.0
C795 C 0.87343 0.34606 0.76001 0.0
H796 H 0.7735 0.35091 0.8895 0.0
H797 H 0.89015 0.33741 0.74237 0.0
H798 H 0.84643 0.42827 0.77969 0.0
H799 H 0.76018 0.39991 0.90433 0.0
H800 H 0.86553 0.30689 0.77408 0.0
H801 H 0.7137 0.23749 0.85135 0.0
H802 H 0.87661 0.38797 0.74994 0.0
H803 H 0.82497 0.26144 0.70876 0.0
H804 H 0.73262 0.2759 0.82794 0.0
H805 H 0.84372 0.217 0.68227 0.0
H806 H 0.81068 0.44546 0.82336 0.0
H807 H 0.7332 0.19007 0.83225 0.0
H808 H 0.76634 0.15856 0.79355 0.0
H809 H 0.77865 0.435 0.87024 0.0
H810 H 0.80168 0.15299 0.74739 0.0
N811 N 0.76326 0.25045 0.79643 0.0
C812 C 0.74138 0.25538 0.81927 0.0
C813 C 0.74165 0.20687 0.82187 0.0
C814 C 0.76301 0.20231 0.79716 0.0
C815 C 0.73056 0.23361 0.83267 0.0
C816 C 0.77336 0.22486 0.78465 0.0
H817 H 0.83035 0.17479 0.70539 0.0
N818 N 0.80215 0.24414 0.74723 0.0
C819 C 0.82977 0.21796 0.70403 0.0
C820 C 0.79346 0.22158 0.75913 0.0
C821 C 0.81916 0.24305 0.71907 0.0
C822 C 0.82218 0.19417 0.71716 0.0
C823 C 0.80349 0.19588 0.74476 0.0
O824 O 0.77321 0.29823 0.72517 0.0
O825 O 0.79713 0.31797 0.78456 0.0
O826 O 0.77066 0.33978 0.82989 0.0
O827 O 0.75022 0.31411 0.80195 0.0
O828 O 0.80489 0.30754 0.73775 0.0
O829 O 0.742 0.29337 0.76247 0.0
O830 O 0.81662 0.30195 0.88042 0.0
O831 O 0.79678 0.28057 0.82008 0.0
O832 O 0.82331 0.25657 0.77702 0.0
O833 O 0.84404 0.27841 0.80938 0.0
O834 O 0.78814 0.29234 0.86639 0.0
O835 O 0.85024 0.30917 0.84862 0.0
C836 C 0.807 0.32512 0.75699 0.0
C837 C 0.736 0.28615 0.70862 0.0
C838 C 0.70187 0.28874 0.67174 0.0
C839 C 0.71172 0.30078 0.69524 0.0
C840 C 0.71617 0.2619 0.66252 0.0
C841 C 0.74956 0.25937 0.69876 0.0
C842 C 0.73971 0.24734 0.67608 0.0
C843 C 0.74923 0.33531 0.81936 0.0
C844 C 0.74773 0.29912 0.73166 0.0
C845 C 0.794 0.17302 0.75783 0.0
C846 C 0.77386 0.17621 0.78408 0.0
C847 C 0.78579 0.27447 0.84754 0.0
C848 C 0.84668 0.32054 0.90402 0.0
C849 C 0.87333 0.32098 0.90793 0.0
C850 C 0.87827 0.33524 0.9333 0.0
C851 C 0.85611 0.3492 0.95415 0.0
C852 C 0.82541 0.33391 0.92635 0.0
C853 C 0.83005 0.34849 0.95065 0.0
C854 C 0.84455 0.25815 0.79072 0.0
C855 C 0.84106 0.30448 0.87864 0.0
H856 H 0.70095 0.32152 0.70245 0.0
H857 H 0.70896 0.25205 0.64488 0.0
H858 H 0.76798 0.24766 0.70814 0.0
H859 H 0.75051 0.22665 0.66879 0.0
H860 H 0.89007 0.31001 0.89164 0.0
H861 H 0.85896 0.3598 0.97422 0.0
H862 H 0.80505 0.33269 0.92571 0.0
H863 H 0.81336 0.35872 0.96749 0.0
Tb864 Tb 0.76732 0.78677 0.83581 0.0
C865 C 0.80166 0.81168 0.69266 0.0
C866 C 0.83574 0.76985 0.67672 0.0
C867 C 0.8079 0.79909 0.6369 0.0
C868 C 0.82177 0.7882 0.70061 0.0
C869 C 0.79502 0.81794 0.66052 0.0
C870 C 0.82821 0.77503 0.64501 0.0
C871 C 0.76585 0.86236 0.67681 0.0
N872 N 0.79012 0.82955 0.71606 0.0
C873 C 0.77323 0.85523 0.70833 0.0
C874 C 0.77648 0.84345 0.6529 0.0
Tb875 Tb 0.8035 0.81615 0.76691 0.0
N876 N 0.82861 0.78418 0.73141 0.0
C877 C 0.85058 0.76304 0.73934 0.0
C878 C 0.85729 0.74732 0.68522 0.0
C879 C 0.86496 0.74413 0.71656 0.0
H880 H 0.76485 0.86989 0.72673 0.0
H881 H 0.8819 0.72705 0.72325 0.0
H882 H 0.83848 0.76101 0.62639 0.0
H883 H 0.75197 0.8824 0.671 0.0
H884 H 0.85677 0.76007 0.76345 0.0
H885 H 0.69194 0.87941 0.87639 0.0
H886 H 0.86847 0.73267 0.66763 0.0
H887 H 0.80055 0.7319 0.87943 0.0
H888 H 0.71498 0.84394 0.83811 0.0
H889 H 0.81371 0.72069 0.93518 0.0
H890 H 0.80288 0.80333 0.61212 0.0
H891 H 0.70678 0.87593 0.93107 0.0
H892 H 0.73668 0.84821 0.97281 0.0
H893 H 0.77086 0.84908 0.62847 0.0
H894 H 0.77023 0.80477 0.98892 0.0
N895 N 0.74343 0.82046 0.8702 0.0
C896 C 0.72177 0.84183 0.86182 0.0
C897 C 0.71706 0.86019 0.91431 0.0
C898 C 0.73802 0.83732 0.92351 0.0
C899 C 0.70857 0.86215 0.88352 0.0
C900 C 0.75075 0.81752 0.90069 0.0
H901 H 0.79871 0.75667 0.9752 0.0
N902 N 0.77935 0.77414 0.88745 0.0
C903 C 0.80144 0.74133 0.92826 0.0
C904 C 0.76959 0.79343 0.90964 0.0
C905 C 0.79388 0.74772 0.89676 0.0
C906 C 0.79304 0.76173 0.95073 0.0
C907 C 0.77631 0.78798 0.94178 0.0
O908 O 0.75779 0.74825 0.84466 0.0
O909 O 0.78847 0.78165 0.78798 0.0
O910 O 0.76603 0.81296 0.75057 0.0
O911 O 0.73977 0.81092 0.80006 0.0
O912 O 0.79319 0.74684 0.81876 0.0
O913 O 0.7266 0.78657 0.83912 0.0
O914 O 0.8115 0.85536 0.75798 0.0
O915 O 0.7832 0.8208 0.81513 0.0
O916 O 0.80651 0.78497 0.85133 0.0
O917 O 0.83185 0.79276 0.80218 0.0
O918 O 0.77687 0.85559 0.78454 0.0
O919 O 0.84388 0.81779 0.76306 0.0
C920 C 0.79968 0.75575 0.78972 0.0
C921 C 0.71548 0.75076 0.87448 0.0
C922 C 0.68343 0.72466 0.8979 0.0
C923 C 0.69958 0.73287 0.87097 0.0
C924 C 0.68398 0.73416 0.92835 0.0
C925 C 0.71521 0.76028 0.90499 0.0
C926 C 0.69973 0.75186 0.93178 0.0
C927 C 0.74246 0.81438 0.76788 0.0
C928 C 0.73189 0.75979 0.84621 0.0
C929 C 0.76507 0.80836 0.96419 0.0
C930 C 0.74594 0.83306 0.95504 0.0
C931 C 0.77181 0.84662 0.81398 0.0
C932 C 0.85379 0.85506 0.72902 0.0
C933 C 0.87173 0.87024 0.73441 0.0
C934 C 0.88751 0.87993 0.70813 0.0
C935 C 0.88467 0.87451 0.6765 0.0
C936 C 0.85165 0.84978 0.69727 0.0
C937 C 0.86691 0.85953 0.6712 0.0
C938 C 0.82959 0.78537 0.83377 0.0
C939 C 0.83758 0.84472 0.75659 0.0
H940 H 0.69936 0.72588 0.84728 0.0
H941 H 0.6723 0.7278 0.94967 0.0
H942 H 0.7268 0.77433 0.90817 0.0
H943 H 0.69986 0.75918 0.95528 0.0
H944 H 0.87367 0.87409 0.75897 0.0
H945 H 0.89601 0.88212 0.65571 0.0
H946 H 0.83824 0.83816 0.6925 0.0
H947 H 0.86493 0.85546 0.64676 0.0
H948 H 0.06586 0.14099 0.42423 0.0
H949 H 0.20407 0.18103 0.36425 0.0
H950 H 0.12974 0.09027 0.36174 0.0
H951 H 0.13858 0.22934 0.42695 0.0
H952 H 0.17699 0.14865 0.36019 0.0
H953 H 0.09217 0.17422 0.42332 0.0
C954 C 0.08553 0.13669 0.41045 0.0
C955 C 0.09566 0.11253 0.39332 0.0
C956 C 0.16857 0.1664 0.37473 0.0
C957 C 0.12604 0.15102 0.39183 0.0
C958 C 0.18395 0.18497 0.37691 0.0
C959 C 0.17371 0.20779 0.39627 0.0
C960 C 0.14274 0.17079 0.39191 0.0
C961 C 0.14755 0.21176 0.41228 0.0
C962 C 0.10053 0.15586 0.40974 0.0
C963 C 0.12108 0.10862 0.37522 0.0
N964 N 0.1331 0.19345 0.40983 0.0
N965 N 0.13547 0.12758 0.37507 0.0
H966 H 0.94899 0.0721 0.3414 0.0
H967 H 0.89762 0.23643 0.32935 0.0
H968 H 1.00359 0.12339 0.31623 0.0
H969 H 0.84655 0.18684 0.30957 0.0
H970 H 0.93595 0.195 0.32851 0.0
H971 H 0.91084 0.113 0.3318 0.0
C972 C 0.95296 0.09188 0.33293 0.0
C973 C 0.97949 0.09431 0.32909 0.0
C974 C 0.9164 0.19313 0.32429 0.0
C975 C 0.93583 0.14148 0.31958 0.0
C976 C 0.8943 0.2168 0.32523 0.0
C977 C 0.86855 0.21526 0.31997 0.0
C978 C 0.91286 0.16734 0.31864 0.0
C979 C 0.86592 0.1891 0.31392 0.0
C980 C 0.93117 0.11523 0.32767 0.0
C981 C 0.9835 0.12052 0.31882 0.0
N982 N 0.8877 0.16613 0.31378 0.0
N983 N 0.96187 0.1432 0.31499 0.0
H984 H 1.00502 0.95634 0.34278 0.0
H985 H 0.87851 0.90787 0.43227 0.0
H986 H 0.97083 0.97511 0.44035 0.0
H987 H 0.92918 0.86598 0.35178 0.0
H988 H 0.90771 0.93865 0.43017 0.0
H989 H 0.97302 0.92881 0.34063 0.0
C990 C 0.99068 0.95478 0.36366 0.0
C991 C 0.99065 0.96786 0.39187 0.0
C992 C 0.91238 0.92277 0.41291 0.0
C993 C 0.95401 0.93668 0.38951 0.0
C994 C 0.89578 0.9051 0.41413 0.0
C995 C 0.9016 0.88391 0.39252 0.0
C996 C 0.93492 0.91954 0.3897 0.0
C997 C 0.92382 0.88201 0.36889 0.0
C998 C 0.97255 0.939 0.36247 0.0
C999 C 0.97179 0.96503 0.41833 0.0
N1000 N 0.93976 0.8995 0.36821 0.0
N1001 N 0.95418 0.94983 0.41647 0.0
H1002 H 0.11638 0.97218 0.29367 0.0
H1003 H 0.2401 0.85779 0.36888 0.0
H1004 H 0.14253 0.97257 0.3877 0.0
H1005 H 0.22882 0.86094 0.26794 0.0
H1006 H 0.2012 0.89803 0.37595 0.0
H1007 H 0.15489 0.93072 0.28276 0.0
C1008 C 0.13024 0.96381 0.31184 0.0
C1009 C 0.12602 0.97594 0.34173 0.0
C1010 C 0.20707 0.8901 0.35213 0.0
C1011 C 0.16971 0.92842 0.32965 0.0
C1012 C 0.22947 0.86708 0.34809 0.0
C1013 C 0.23815 0.85628 0.31769 0.0
C1014 C 0.19282 0.90272 0.32556 0.0
C1015 C 0.2228 0.86862 0.29186 0.0
C1016 C 0.15212 0.94008 0.30567 0.0
C1017 C 0.14463 0.96403 0.3644 0.0
N1018 N 0.20095 0.89135 0.29629 0.0
N1019 N 0.16535 0.94108 0.35795 0.0
H1020 H 0.13146 0.96994 0.70898 0.0
H1021 H 0.22502 0.87716 0.84061 0.0
H1022 H 0.11385 0.98442 0.81073 0.0
H1023 H 0.23624 0.86461 0.73862 0.0
H1024 H 0.18627 0.91774 0.83134 0.0
H1025 H 0.1708 0.93253 0.72067 0.0
C1026 C 0.1358 0.96531 0.73398 0.0
C1027 C 0.11906 0.98062 0.7589 0.0
C1028 C 0.19735 0.90623 0.81098 0.0
C1029 C 0.165 0.93696 0.77259 0.0
C1030 C 0.21973 0.88329 0.81617 0.0
C1031 C 0.23407 0.86757 0.79026 0.0
C1032 C 0.18928 0.91349 0.77961 0.0
C1033 C 0.22569 0.8759 0.75932 0.0
C1034 C 0.15849 0.94374 0.74063 0.0
C1035 C 0.12606 0.97322 0.79074 0.0
N1036 N 0.20395 0.89816 0.75491 0.0
N1037 N 0.14854 0.9519 0.79669 0.0
H1038 H 0.13035 0.11231 0.65925 0.0
H1039 H 0.20207 0.17794 0.77658 0.0
H1040 H 0.12098 0.09963 0.7635 0.0
H1041 H 0.21311 0.18901 0.6723 0.0
H1042 H 0.17841 0.14289 0.77203 0.0
H1043 H 0.1655 0.13519 0.66322 0.0
C1044 C 0.13572 0.11425 0.68296 0.0
C1045 C 0.12243 0.10428 0.71107 0.0
C1046 C 0.1864 0.15264 0.75011 0.0
C1047 C 0.16283 0.13031 0.71585 0.0
C1048 C 0.20017 0.17245 0.75271 0.0
C1049 C 0.20921 0.18671 0.72477 0.0
C1050 C 0.18154 0.14717 0.71937 0.0
C1051 C 0.20597 0.1789 0.69447 0.0
C1052 C 0.15595 0.12714 0.68522 0.0
C1053 C 0.13067 0.10686 0.74115 0.0
N1054 N 0.19204 0.15998 0.69257 0.0
N1055 N 0.15011 0.11987 0.74275 0.0
H1056 H 0.9492 0.09488 0.75263 0.0
H1057 H 0.8964 0.25208 0.80732 0.0
H1058 H 1.0014 0.13301 0.79278 0.0
H1059 H 0.84824 0.20675 0.77104 0.0
H1060 H 0.93486 0.20962 0.80504 0.0
H1061 H 0.91152 0.13575 0.76331 0.0
C1062 C 0.95255 0.11174 0.76442 0.0
C1063 C 0.97839 0.11038 0.77216 0.0
C1064 C 0.91581 0.20916 0.79749 0.0
C1065 C 0.93523 0.15828 0.78347 0.0
C1066 C 0.89386 0.23343 0.79864 0.0
C1067 C 0.86894 0.23345 0.78861 0.0
C1068 C 0.91273 0.18468 0.78646 0.0
C1069 C 0.86695 0.20841 0.77804 0.0
C1070 C 0.93103 0.13529 0.7703 0.0
C1071 C 0.98166 0.13305 0.78697 0.0
N1072 N 0.88834 0.18535 0.77724 0.0
N1073 N 0.96039 0.15627 0.79181 0.0
H1074 H 1.0166 0.95881 0.67173 0.0
H1075 H 0.88097 0.92147 0.74959 0.0
H1076 H 0.96716 0.99968 0.75338 0.0
H1077 H 0.93848 0.87431 0.67782 0.0
H1078 H 0.91207 0.94979 0.75293 0.0
H1079 H 0.98775 0.9277 0.67431 0.0
C1080 C 0.99957 0.96132 0.69016 0.0
C1081 C 0.99417 0.98207 0.71219 0.0
C1082 C 0.9179 0.93312 0.73662 0.0
C1083 C 0.96093 0.94623 0.7155 0.0
C1084 C 0.90023 0.91684 0.73483 0.0
C1085 C 0.90694 0.89569 0.71306 0.0
C1086 C 0.94241 0.9282 0.71647 0.0
C1087 C 0.93213 0.89077 0.6944 0.0
C1088 C 0.98317 0.94338 0.6918 0.0
C1089 C 0.97211 0.98391 0.73601 0.0
N1090 N 0.94877 0.90699 0.69637 0.0
N1091 N 0.95615 0.96636 0.73689 0.0
H1092 H 0.24543 0.17677 0.17012 0.0
H1093 H 0.33471 0.21197 0.29157 0.0
H1094 H 0.32335 0.12157 0.18776 0.0
H1095 H 0.27375 0.27487 0.24404 0.0
H1096 H 0.33158 0.17819 0.25447 0.0
H1097 H 0.25532 0.2127 0.19822 0.0
C1098 C 0.26467 0.17228 0.17989 0.0
C1099 C 0.28353 0.14612 0.1768 0.0
C1100 C 0.31926 0.19955 0.2518 0.0
C1101 C 0.295 0.1871 0.20925 0.0
C1102 C 0.32107 0.21881 0.27291 0.0
C1103 C 0.30468 0.2464 0.27073 0.0
C1104 C 0.30034 0.20776 0.22894 0.0
C1105 C 0.28705 0.25408 0.24644 0.0
C1106 C 0.2704 0.19284 0.19574 0.0
C1107 C 0.30832 0.1415 0.18955 0.0
N1108 N 0.28512 0.23482 0.2268 0.0
N1109 N 0.31321 0.16165 0.20562 0.0
H1110 H 0.97195 0.31625 0.13233 0.0
H1111 H 0.87828 0.26455 0.27965 0.0
H1112 H 1.0003 0.24488 0.19845 0.0
H1113 H 0.84537 0.32689 0.20592 0.0
H1114 H 0.92322 0.25917 0.25167 0.0
H1115 H 0.92618 0.32281 0.16019 0.0
C1116 C 0.96867 0.30203 0.15277 0.0
C1117 C 0.99024 0.27989 0.16289 0.0
C1118 C 0.90627 0.27406 0.24143 0.0
C1119 C 0.93758 0.28729 0.19495 0.0
C1120 C 0.88039 0.27718 0.25761 0.0
C1121 C 0.8578 0.29654 0.24567 0.0
C1122 C 0.90994 0.29031 0.21262 0.0
C1123 C 0.86218 0.31195 0.21634 0.0
C1124 C 0.94243 0.30571 0.16856 0.0
C1125 C 0.98445 0.26201 0.18939 0.0
N1126 N 0.88769 0.3087 0.20098 0.0
N1127 N 0.95886 0.26615 0.20444 0.0
H1128 H 0.85742 0.94791 0.12101 0.0
H1129 H 0.75753 0.87576 0.23743 0.0
H1130 H 0.77891 0.94621 0.09885 0.0
H1131 H 0.84085 0.86359 0.25263 0.0
H1132 H 0.76267 0.90904 0.19162 0.0
H1133 H 0.85002 0.92256 0.17319 0.0
C1134 C 0.8387 0.94219 0.12697 0.0
C1135 C 0.81876 0.94933 0.10538 0.0
C1136 C 0.77975 0.89935 0.20522 0.0
C1137 C 0.80996 0.92081 0.16532 0.0
C1138 C 0.77678 0.88044 0.23142 0.0
C1139 C 0.79897 0.86637 0.24826 0.0
C1140 C 0.80508 0.90432 0.19593 0.0
C1141 C 0.82326 0.87377 0.24008 0.0
C1142 C 0.83439 0.92793 0.1569 0.0
C1143 C 0.79472 0.94164 0.11476 0.0
N1144 N 0.82582 0.89192 0.21412 0.0
N1145 N 0.79103 0.92783 0.14393 0.0
H1146 H 0.13514 0.68319 0.09454 0.0
H1147 H 0.19572 0.78652 0.17655 0.0
H1148 H 0.09047 0.76669 0.11803 0.0
H1149 H 0.24212 0.70433 0.14991 0.0
H1150 H 0.15502 0.77661 0.16326 0.0
H1151 H 0.1725 0.68759 0.12224 0.0
C1152 C 0.13303 0.70227 0.10593 0.0
C1153 C 0.10984 0.72476 0.10352 0.0
C1154 C 0.17405 0.7606 0.16066 0.0
C1155 C 0.1525 0.73009 0.135 0.0
C1156 C 0.19728 0.76618 0.16851 0.0
C1157 C 0.22245 0.74638 0.16393 0.0
C1158 C 0.17596 0.73504 0.14804 0.0
C1159 C 0.22322 0.72044 0.15315 0.0
C1160 C 0.1544 0.70486 0.1216 0.0
C1161 C 0.10823 0.74908 0.11863 0.0
N1162 N 0.2004 0.71564 0.14524 0.0
N1163 N 0.12932 0.75117 0.13345 0.0
H1164 H 0.21269 0.99254 0.06518 0.0
H1165 H 0.30829 0.86157 0.97347 0.0
H1166 H 0.29699 0.98227 0.03247 0.0
H1167 H 0.22296 0.87224 0.99972 0.0
H1168 H 0.30376 0.90662 0.99397 0.0
H1169 H 0.21513 0.94945 0.04026 0.0
C1170 C 0.23162 0.98136 0.05261 0.0
C1171 C 0.25474 0.99086 0.0513 0.0
C1172 C 0.28597 0.8992 0.9952 0.0
C1173 C 0.25776 0.94159 0.02296 0.0
C1174 C 0.28852 0.87349 0.98328 0.0
C1175 C 0.26598 0.86303 0.98483 0.0
C1176 C 0.2607 0.91467 1.00898 0.0
C1177 C 0.24097 0.87928 0.99843 0.0
C1178 C 0.23305 0.95672 0.03852 0.0
C1179 C 0.27881 0.97546 0.03481 0.0
N1180 N 0.23901 0.90427 1.01006 0.0
N1181 N 0.27969 0.95162 0.02144 0.0
H1182 H 0.13517 0.30981 0.97574 0.0
H1183 H 0.28785 0.25737 0.89383 0.0
H1184 H 0.1978 0.24651 0.02057 0.0
H1185 H 0.22597 0.32099 0.84863 0.0
H1186 H 0.256 0.25531 0.9417 0.0
H1187 H 0.16841 0.31597 0.93047 0.0
C1188 C 0.15586 0.29728 0.97631 0.0
C1189 C 0.16341 0.2775 1.00233 0.0
C1190 C 0.24936 0.26992 0.92146 0.0
C1191 C 0.20186 0.28441 0.94996 0.0
C1192 C 0.26771 0.27121 0.894 0.0
C1193 C 0.25979 0.28947 0.86692 0.0
C1194 C 0.22258 0.28681 0.92199 0.0
C1195 C 0.23309 0.30667 0.8689 0.0
C1196 C 0.17489 0.30077 0.95026 0.0
C1197 C 0.19068 0.26173 1.00111 0.0
N1198 N 0.21548 0.30482 0.89574 0.0
N1199 N 0.20877 0.2655 0.9755 0.0
H1200 H 0.83286 0.09541 0.88466 0.0
H1201 H 0.7582 0.25785 0.90267 0.0
H1202 H 0.78042 0.1261 0.96969 0.0
H1203 H 0.81685 0.22501 0.82377 0.0
H1204 H 0.76294 0.20984 0.92636 0.0
H1205 H 0.82439 0.14307 0.86046 0.0
C1206 C 0.81968 0.11215 0.89836 0.0
C1207 C 0.80746 0.10662 0.92935 0.0
C1208 C 0.77459 0.21326 0.90365 0.0
C1209 C 0.7974 0.1615 0.90161 0.0
C1210 C 0.77185 0.24059 0.89013 0.0
C1211 C 0.78679 0.24556 0.86074 0.0
C1212 C 0.79268 0.19081 0.88778 0.0
C1213 C 0.80456 0.2225 0.84589 0.0
C1214 C 0.8147 0.13942 0.88444 0.0
C1215 C 0.7901 0.12926 0.94563 0.0
N1216 N 0.80695 0.19626 0.85944 0.0
N1217 N 0.78566 0.1557 0.93162 0.0
H1218 H 0.96403 0.79506 0.93256 0.0
H1219 H 0.84774 0.74029 0.87574 0.0
H1220 H 0.96107 0.70958 0.94932 0.0
H1221 H 0.8674 0.81434 0.83087 0.0
H1222 H 0.88642 0.73076 0.90725 0.0
H1223 H 0.92585 0.8048 0.89977 0.0
C1224 C 0.95527 0.77839 0.9295 0.0
C1225 C 0.96583 0.75143 0.94369 0.0
C1226 C 0.88236 0.74908 0.89049 0.0
C1227 C 0.9221 0.76244 0.90628 0.0
C1228 C 0.86011 0.75464 0.87271 0.0
C1229 C 0.85419 0.77827 0.85096 0.0
C1230 C 0.8987 0.76751 0.88688 0.0
C1231 C 0.87138 0.7958 0.84731 0.0
C1232 C 0.93363 0.78391 0.91058 0.0
C1233 C 0.95381 0.73056 0.93859 0.0
N1234 N 0.89271 0.79024 0.86532 0.0
N1235 N 0.93255 0.73654 0.92054 0.0
H1236 H 0.13784 0.33851 0.12407 0.0
H1237 H 0.19232 0.324 0.29926 0.0
H1238 H 0.09962 0.30617 0.21131 0.0
H1239 H 0.24211 0.3303 0.20932 0.0
H1240 H 0.15465 0.32599 0.26828 0.0
H1241 H 0.17228 0.34495 0.15586 0.0
C1242 C 0.13627 0.33343 0.14999 0.0
C1243 C 0.11571 0.32183 0.165 0.0
C1244 C 0.17377 0.32729 0.25535 0.0
C1245 C 0.15521 0.3289 0.20155 0.0
C1246 C 0.19536 0.3262 0.27307 0.0
C1247 C 0.22065 0.32727 0.25708 0.0
C1248 C 0.17722 0.32969 0.22124 0.0
C1249 C 0.22308 0.32994 0.22293 0.0
C1250 C 0.15611 0.33682 0.16809 0.0
C1251 C 0.11507 0.31516 0.19865 0.0
N1252 N 0.20178 0.33105 0.20626 0.0
N1253 N 0.13445 0.31872 0.21567 0.0
H1254 H 0.13327 0.73609 0.98291 0.0
H1255 H 0.19775 0.82412 0.83752 0.0
H1256 H 0.08533 0.81239 0.93871 0.0
H1257 H 0.24457 0.75636 0.8957 0.0
H1258 H 0.15618 0.81881 0.87035 0.0
H1259 H 0.17323 0.74242 0.94896 0.0
C1260 C 0.13109 0.75448 0.96626 0.0
C1261 C 0.10553 0.77381 0.9642 0.0
C1262 C 0.17545 0.80474 0.87564 0.0
C1263 C 0.15218 0.78097 0.92382 0.0
C1264 C 0.19924 0.80749 0.85655 0.0
C1265 C 0.2248 0.78967 0.86257 0.0
C1266 C 0.177 0.78432 0.90173 0.0
C1267 C 0.2254 0.76965 0.88891 0.0
C1268 C 0.15414 0.75801 0.94664 0.0
C1269 C 0.10445 0.79708 0.94175 0.0
N1270 N 0.20209 0.76744 0.90716 0.0
N1271 N 0.12728 0.79987 0.92237 0.0
H1272 H 0.34493 0.10068 0.02146 0.0
H1273 H 0.27898 0.19778 0.87013 0.0
H1274 H 0.26057 0.12211 1.00668 0.0
H1275 H 0.35977 0.1905 0.89162 0.0
H1276 H 0.27438 0.1642 0.91597 0.0
H1277 H 0.35314 0.12814 0.97042 0.0
C1278 C 0.32824 0.11084 1.0074 0.0
C1279 C 0.30199 0.10922 0.01861 0.0
C1280 C 0.29321 0.16982 0.91062 0.0
C1281 C 0.31119 0.14049 0.96022 0.0
C1282 C 0.29591 0.18885 0.8842 0.0
C1283 C 0.31967 0.19736 0.87722 0.0
C1284 C 0.3145 0.15891 0.93023 0.0
C1285 C 0.34084 0.18517 0.89661 0.0
C1286 C 0.33289 0.12661 0.97835 0.0
C1287 C 0.28111 0.12295 0.99934 0.0
N1288 N 0.33775 0.16671 0.92224 0.0
N1289 N 0.28614 0.1379 0.97135 0.0
H1290 H 0.03931 0.27623 0.99343 0.0
H1291 H 0.89593 0.37741 0.95277 0.0
H1292 H 1.00393 0.35495 0.03627 0.0
H1293 H 0.92427 0.2909 0.93105 0.0
H1294 H 0.93854 0.37311 0.9747 0.0
H1295 H 1.00098 0.28525 0.96204 0.0
C1296 C 0.02359 0.29566 0.99604 0.0
C1297 C 0.02486 0.31475 0.01791 0.0
C1298 C 0.93556 0.35515 0.96485 0.0
C1299 C 0.98042 0.32517 0.98166 0.0
C1300 C 0.91119 0.35753 0.95228 0.0
C1301 C 0.90613 0.33432 0.94043 0.0
C1302 C 0.95536 0.32944 0.96536 0.0
C1303 C 0.92709 0.30939 0.93977 0.0
C1304 C 1.0016 0.30073 0.97805 0.0
C1305 C 1.00388 0.33963 0.01978 0.0
N1306 N 0.9506 0.30757 0.95232 0.0
N1307 N 0.98241 0.34402 1.00211 0.0
H1308 H 0.74503 0.98893 0.93097 0.0
H1309 H 0.79982 0.83495 0.86735 0.0
H1310 H 0.81172 0.924 0.96558 0.0
H1311 H 0.74072 0.90033 0.82011 0.0
H1312 H 0.79886 0.86607 0.90876 0.0
H1313 H 0.73746 0.95576 0.89561 0.0
C1314 C 0.75768 0.96763 0.93159 0.0
C1315 C 0.77916 0.95924 0.95099 0.0
C1316 C 0.78585 0.8737 0.88957 0.0
C1317 C 0.7708 0.92144 0.91082 0.0
C1318 C 0.78627 0.85575 0.86596 0.0
C1319 C 0.76984 0.8648 0.84065 0.0
C1320 C 0.76931 0.9013 0.88762 0.0
C1321 C 0.75341 0.89245 0.83956 0.0
C1322 C 0.75352 0.94879 0.91129 0.0
C1323 C 0.79511 0.93147 0.95073 0.0
N1324 N 0.75354 0.90977 0.86271 0.0
N1325 N 0.79069 0.91372 0.93095 0.0
H1326 H 0.95082 0.81439 0.09135 0.0
H1327 H 0.89947 0.73657 0.25707 0.0
H1328 H 0.98714 0.72979 0.12644 0.0
H1329 H 0.85189 0.81649 0.22105 0.0
H1330 H 0.933 0.73644 0.21026 0.0
H1331 H 0.91615 0.81859 0.13897 0.0
C1332 C 0.95186 0.79689 0.10914 0.0
C1333 C 0.97224 0.77167 0.10455 0.0
C1334 C 0.91524 0.75407 0.21223 0.0
C1335 C 0.93236 0.77627 0.15922 0.0
C1336 C 0.89595 0.75409 0.23913 0.0
C1337 C 0.87224 0.77611 0.24278 0.0
C1338 C 0.91155 0.77664 0.18854 0.0
C1339 C 0.86941 0.79864 0.21892 0.0
C1340 C 0.93187 0.7992 0.13625 0.0
C1341 C 0.972 0.74966 0.12847 0.0
N1342 N 0.88866 0.79829 0.19288 0.0
N1343 N 0.9527 0.75249 0.1543 0.0
H1344 H 0.34273 0.96971 0.13368 0.0
H1345 H 0.29433 0.87309 0.28136 0.0
H1346 H 0.28524 1.00069 0.21467 0.0
H1347 H 0.35905 0.83981 0.20853 0.0
H1348 H 0.29273 0.92014 0.25804 0.0
H1349 H 0.35141 0.92245 0.16114 0.0
C1350 C 0.33232 0.96674 0.15741 0.0
C1351 C 0.31312 0.98932 0.17172 0.0
C1352 C 0.30752 0.90265 0.24722 0.0
C1353 C 0.32261 0.93523 0.2031 0.0
C1354 C 0.30855 0.87566 0.26077 0.0
C1355 C 0.32729 0.85237 0.24743 0.0
C1356 C 0.32489 0.90662 0.21942 0.0
C1357 C 0.34453 0.85719 0.21989 0.0
C1358 C 0.33714 0.9397 0.17301 0.0
C1359 C 0.30005 0.98402 0.20243 0.0
N1360 N 0.34288 0.88368 0.20675 0.0
N1361 N 0.30487 0.95771 0.21683 0.0
H1362 H 0.73441 0.09678 0.06256 0.0
H1363 H 0.79942 0.16729 0.18078 0.0
H1364 H 0.80991 0.05732 0.10218 0.0
H1365 H 0.71565 0.19913 0.16305 0.0
H1366 H 0.80145 0.12468 0.15625 0.0
H1367 H 0.72461 0.1325 0.10234 0.0
C1368 C 0.74857 0.09529 0.08005 0.0
C1369 C 0.77318 0.07441 0.07877 0.0
C1370 C 0.78247 0.14082 0.15806 0.0
C1371 C 0.7624 0.11501 0.12382 0.0
C1372 C 0.78123 0.16518 0.17244 0.0
C1373 C 0.75748 0.18726 0.17357 0.0
C1374 C 0.75994 0.13851 0.14417 0.0
C1375 C 0.73469 0.1831 0.16184 0.0
C1376 C 0.74308 0.11568 0.10264 0.0
C1377 C 0.79091 0.07341 0.10189 0.0
N1378 N 0.73663 0.1595 0.14708 0.0
N1379 N 0.78535 0.09356 0.12309 0.0
H1380 H 0.61688 0.59081 0.85988 0.0
H1381 H 0.63181 0.72989 0.92573 0.0
H1382 H 0.56332 0.63584 0.93619 0.0
H1383 H 0.6945 0.67816 0.86279 0.0
H1384 H 0.60423 0.69803 0.9246 0.0
H1385 H 0.6434 0.62482 0.85564 0.0
C1386 C 0.61062 0.60791 0.8756 0.0
C1387 C 0.58794 0.61036 0.89859 0.0
C1388 C 0.62399 0.6936 0.91096 0.0
C1389 C 0.6181 0.64928 0.89385 0.0
C1390 C 0.63982 0.71177 0.91167 0.0
C1391 C 0.66573 0.7065 0.89474 0.0
C1392 C 0.63397 0.66987 0.89308 0.0
C1393 C 0.67466 0.68307 0.8762 0.0
C1394 C 0.62582 0.62722 0.87326 0.0
C1395 C 0.58087 0.63282 0.91851 0.0
N1396 N 0.65887 0.66549 0.87603 0.0
N1397 N 0.59585 0.65135 0.91565 0.0
H1398 H 0.46644 0.59142 0.80319 0.0
H1399 H 0.35934 0.72842 0.87236 0.0
H1400 H 0.46346 0.62236 0.89676 0.0
H1401 H 0.34907 0.69612 0.78426 0.0
H1402 H 0.39934 0.68999 0.87871 0.0
H1403 H 0.42585 0.63009 0.79228 0.0
C1404 C 0.4575 0.6064 0.82121 0.0
C1405 C 0.46834 0.60351 0.85101 0.0
C1406 C 0.38843 0.69101 0.85797 0.0
C1407 C 0.42213 0.64742 0.83888 0.0
C1408 C 0.36541 0.71309 0.85435 0.0
C1409 C 0.35064 0.71559 0.82778 0.0
C1410 C 0.39725 0.67097 0.8348 0.0
C1411 C 0.35969 0.69488 0.80531 0.0
C1412 C 0.43426 0.6283 0.81511 0.0
C1413 C 0.4558 0.62343 0.87357 0.0
N1414 N 0.38251 0.67346 0.80922 0.0
N1415 N 0.4336 0.64428 0.86706 0.0
H1416 H 0.47652 0.47607 0.84979 0.0
H1417 H 0.41529 0.35679 0.93991 0.0
H1418 H 0.46782 0.46061 0.95386 0.0
H1419 H 0.41729 0.37746 0.83686 0.0
H1420 H 0.42888 0.39869 0.94629 0.0
H1421 H 0.44964 0.4443 0.84528 0.0
C1422 C 0.46872 0.46638 0.87181 0.0
C1423 C 0.47493 0.47087 0.9023 0.0
C1424 C 0.42593 0.39436 0.92232 0.0
C1425 C 0.44426 0.43388 0.89712 0.0
C1426 C 0.41817 0.37045 0.91869 0.0
C1427 C 0.4155 0.36351 0.88777 0.0
C1428 C 0.43139 0.41128 0.89478 0.0
C1429 C 0.41912 0.38206 0.86114 0.0
C1430 C 0.45337 0.44806 0.86915 0.0
C1431 C 0.46421 0.45736 0.9298 0.0
N1432 N 0.42732 0.40487 0.86518 0.0
N1433 N 0.44968 0.43927 0.92652 0.0
H1434 H 0.63294 0.48126 0.88964 0.0
H1435 H 0.70909 0.35512 0.77854 0.0
H1436 H 0.5971 0.46601 0.80797 0.0
H1437 H 0.72962 0.36544 0.87245 0.0
H1438 H 0.66931 0.39587 0.78549 0.0
H1439 H 0.67074 0.44086 0.87903 0.0
C1440 C 0.63306 0.46946 0.86922 0.0
C1441 C 0.61154 0.47707 0.84985 0.0
C1442 C 0.68255 0.38911 0.80456 0.0
C1443 C 0.65533 0.42987 0.8376 0.0
C1444 C 0.70512 0.36573 0.80075 0.0
C1445 C 0.7231 0.35713 0.82476 0.0
C1446 C 0.67801 0.40395 0.83255 0.0
C1447 C 0.71702 0.37178 0.85285 0.0
C1448 C 0.65475 0.44617 0.86324 0.0
C1449 C 0.61323 0.46098 0.82351 0.0
N1450 N 0.69524 0.39441 0.85584 0.0
N1451 N 0.63471 0.43798 0.81823 0.0
H1452 H 0.62725 0.48266 0.3147 0.0
H1453 H 0.75149 0.36221 0.24035 0.0
H1454 H 0.65557 0.47734 0.213 0.0
H1455 H 0.74249 0.37753 0.3414 0.0
H1456 H 0.7139 0.4034 0.23146 0.0
H1457 H 0.66694 0.44349 0.327 0.0
C1458 C 0.64172 0.47345 0.29504 0.0
C1459 C 0.63782 0.48339 0.26274 0.0
C1460 C 0.72014 0.39803 0.25562 0.0
C1461 C 0.68298 0.43862 0.27657 0.0
C1462 C 0.74159 0.37441 0.26066 0.0
C1463 C 0.75008 0.36652 0.29157 0.0
C1464 C 0.70662 0.41389 0.28181 0.0
C1465 C 0.73668 0.38321 0.31708 0.0
C1466 C 0.66437 0.45115 0.30207 0.0
C1467 C 0.65737 0.47057 0.23829 0.0
N1468 N 0.71541 0.40602 0.31173 0.0
N1469 N 0.67876 0.44897 0.24569 0.0
H1470 H 0.64456 0.59212 0.24321 0.0
H1471 H 0.68921 0.72416 0.15592 0.0
H1472 H 0.60488 0.64497 0.16543 0.0
H1473 H 0.72325 0.67778 0.24068 0.0
H1474 H 0.65864 0.6947 0.1587 0.0
H1475 H 0.6739 0.62265 0.2425 0.0
C1476 C 0.64185 0.61018 0.22609 0.0
C1477 C 0.62212 0.61587 0.20432 0.0
C1478 C 0.67272 0.69097 0.17678 0.0
C1479 C 0.65597 0.65081 0.20317 0.0
C1480 C 0.69028 0.70771 0.1751 0.0
C1481 C 0.70893 0.70331 0.19799 0.0
C1482 C 0.67384 0.66951 0.20144 0.0
C1483 C 0.70908 0.682 0.22266 0.0
C1484 C 0.65873 0.62757 0.22563 0.0
C1485 C 0.61997 0.63942 0.18236 0.0
N1486 N 0.69191 0.66577 0.22363 0.0
N1487 N 0.63668 0.65595 0.18235 0.0
H1488 H 0.50591 0.61304 0.31313 0.0
H1489 H 0.38759 0.73323 0.23748 0.0
H1490 H 0.47299 0.61011 0.22403 0.0
H1491 H 0.39335 0.72613 0.34024 0.0
H1492 H 0.42475 0.69117 0.23166 0.0
H1493 H 0.46951 0.65636 0.32408 0.0
C1494 C 0.49102 0.62123 0.29609 0.0
C1495 C 0.49278 0.60788 0.26746 0.0
C1496 C 0.418 0.69866 0.25559 0.0
C1497 C 0.45167 0.65748 0.27946 0.0
C1498 C 0.39661 0.72269 0.25891 0.0
C1499 C 0.3868 0.73286 0.28944 0.0
C1500 C 0.43017 0.68446 0.28299 0.0
C1501 C 0.40024 0.71893 0.31621 0.0
C1502 C 0.47035 0.64598 0.30229 0.0
C1503 C 0.47289 0.61958 0.24625 0.0
N1504 N 0.42118 0.69527 0.31244 0.0
N1505 N 0.45353 0.64359 0.25254 0.0
H1506 H 0.53372 0.44665 0.18513 0.0
H1507 H 0.38867 0.42694 0.25522 0.0
H1508 H 0.47968 0.50006 0.25429 0.0
H1509 H 0.44451 0.37517 0.18592 0.0
H1510 H 0.42245 0.45207 0.25876 0.0
H1511 H 0.50193 0.41871 0.18814 0.0
C1512 C 0.51509 0.45258 0.2009 0.0
C1513 C 0.50926 0.47597 0.21919 0.0
C1514 C 0.42732 0.4351 0.24293 0.0
C1515 C 0.47259 0.44375 0.22301 0.0
C1516 C 0.40812 0.42066 0.24104 0.0
C1517 C 0.41365 0.39912 0.21995 0.0
C1518 C 0.45224 0.42786 0.22369 0.0
C1519 C 0.43913 0.39198 0.20202 0.0
C1520 C 0.49695 0.43648 0.20278 0.0
C1521 C 0.48503 0.48218 0.23983 0.0
N1522 N 0.45735 0.40636 0.20418 0.0
N1523 N 0.46747 0.46628 0.24101 0.0
H1524 H 0.83541 0.60816 0.68216 0.0
H1525 H 0.77765 0.76431 0.73162 0.0
H1526 H 0.81115 0.6778 0.61223 0.0
H1527 H 0.83339 0.70324 0.78818 0.0
H1528 H 0.78661 0.73169 0.68924 0.0
H1529 H 0.83257 0.64124 0.72299 0.0
C1530 C 0.82983 0.63032 0.67525 0.0
C1531 C 0.82344 0.64013 0.64366 0.0
C1532 C 0.79716 0.7255 0.71074 0.0
C1533 C 0.81959 0.67803 0.69042 0.0
C1534 C 0.79219 0.74426 0.73487 0.0
C1535 C 0.80566 0.73693 0.76289 0.0
C1536 C 0.81498 0.69877 0.71513 0.0
C1537 C 0.82313 0.70993 0.76652 0.0
C1538 C 0.82818 0.64917 0.69857 0.0
C1539 C 0.81625 0.66915 0.6362 0.0
N1540 N 0.82728 0.69178 0.74296 0.0
N1541 N 0.81419 0.68701 0.65944 0.0
H1542 H 0.48424 0.74468 0.68375 0.0
H1543 H 0.33639 0.84688 0.73516 0.0
H1544 H 0.461 0.83147 0.64944 0.0
H1545 H 0.36126 0.75923 0.76413 0.0
H1546 H 0.38152 0.84283 0.70539 0.0
H1547 H 0.43999 0.75072 0.71428 0.0
C1548 C 0.46995 0.76509 0.68228 0.0
C1549 C 0.47697 0.78747 0.66319 0.0
C1550 C 0.37724 0.82449 0.71843 0.0
C1551 C 0.425 0.79466 0.69944 0.0
C1552 C 0.3514 0.82683 0.73557 0.0
C1553 C 0.34498 0.80356 0.75307 0.0
C1554 C 0.39703 0.7985 0.7181 0.0
C1555 C 0.36526 0.77796 0.75183 0.0
C1556 C 0.44441 0.76854 0.70012 0.0
C1557 C 0.45702 0.81346 0.66355 0.0
N1558 N 0.39009 0.77621 0.73494 0.0
N1559 N 0.43218 0.81625 0.68113 0.0
H1560 H 0.28399 0.43488 0.60601 0.0
H1561 H 0.34593 0.34964 0.76523 0.0
H1562 H 0.34681 0.45444 0.64998 0.0
H1563 H 0.27519 0.3406 0.7286 0.0
H1564 H 0.347 0.388 0.72366 0.0
H1565 H 0.28141 0.39965 0.65019 0.0
C1566 C 0.29721 0.43204 0.62484 0.0
C1567 C 0.31565 0.44809 0.62377 0.0
C1568 C 0.33122 0.37759 0.72475 0.0
C1569 C 0.31289 0.407 0.67493 0.0
C1570 C 0.33048 0.3558 0.74866 0.0
C1571 C 0.31075 0.3413 0.75007 0.0
C1572 C 0.31207 0.38502 0.70203 0.0
C1573 C 0.29136 0.35026 0.7278 0.0
C1574 C 0.29574 0.41171 0.65021 0.0
C1575 C 0.33241 0.44269 0.64914 0.0
N1576 N 0.2926 0.37127 0.70472 0.0
N1577 N 0.33066 0.42269 0.67348 0.0
H1578 H 0.58705 0.32031 0.53203 0.0
H1579 H 0.65003 0.30793 0.70068 0.0
H1580 H 0.54138 0.31674 0.62561 0.0
H1581 H 0.69671 0.30053 0.60731 0.0
H1582 H 0.60841 0.32104 0.67345 0.0
H1583 H 0.6254 0.32294 0.55889 0.0
C1584 C 0.58484 0.32061 0.55816 0.0
C1585 C 0.56093 0.31791 0.57651 0.0
C1586 C 0.62775 0.31708 0.65889 0.0
C1587 C 0.60508 0.32069 0.6076 0.0
C1588 C 0.65147 0.30987 0.67445 0.0
C1589 C 0.67681 0.3031 0.65622 0.0
C1590 C 0.62943 0.31757 0.62486 0.0
C1591 C 0.67756 0.30552 0.62227 0.0
C1592 C 0.60686 0.32198 0.57355 0.0
C1593 C 0.55942 0.31851 0.61039 0.0
N1594 N 0.65431 0.31227 0.60775 0.0
N1595 N 0.58123 0.3195 0.6248 0.0
H1596 H 0.86255 0.46257 0.59872 0.0
H1597 H 0.80314 0.42823 0.4446 0.0
H1598 H 0.82143 0.52507 0.52949 0.0
H1599 H 0.8727 0.37138 0.48377 0.0
H1600 H 0.80141 0.46074 0.48557 0.0
H1601 H 0.86018 0.42615 0.56468 0.0
C1602 C 0.85332 0.46868 0.57628 0.0
C1603 C 0.84245 0.49701 0.56688 0.0
C1604 C 0.8167 0.44087 0.48564 0.0
C1605 C 0.83876 0.45549 0.52862 0.0
C1606 C 0.81738 0.42215 0.46265 0.0
C1607 C 0.83793 0.39705 0.46104 0.0
C1608 C 0.83661 0.43432 0.50731 0.0
C1609 C 0.85639 0.39047 0.48447 0.0
C1610 C 0.8518 0.44789 0.55704 0.0
C1611 C 0.83038 0.50361 0.53769 0.0
N1612 N 0.85543 0.40907 0.50654 0.0
N1613 N 0.82868 0.48306 0.51983 0.0
H1614 H 0.6827 0.74659 0.50605 0.0
H1615 H 0.71411 0.83694 0.34148 0.0
H1616 H 0.62661 0.82287 0.4732 0.0
H1617 H 0.76972 0.76101 0.37507 0.0
H1618 H 0.68247 0.83285 0.38972 0.0
H1619 H 0.71472 0.7521 0.45929 0.0
C1620 C 0.67684 0.7645 0.48909 0.0
C1621 C 0.65135 0.78415 0.4941 0.0
C1622 C 0.70164 0.81711 0.38676 0.0
C1623 C 0.68889 0.79072 0.43951 0.0
C1624 C 0.71982 0.81947 0.35914 0.0
C1625 C 0.7451 0.79966 0.35428 0.0
C1626 C 0.70828 0.79436 0.40987 0.0
C1627 C 0.75087 0.77712 0.37783 0.0
C1628 C 0.69543 0.76769 0.46222 0.0
C1629 C 0.64578 0.80712 0.47093 0.0
N1630 N 0.7328 0.77515 0.4044 0.0
N1631 N 0.6642 0.80965 0.44487 0.0
H1632 H 0.27611 0.62974 0.47538 0.0
H1633 H 0.33188 0.71919 0.32517 0.0
H1634 H 0.34367 0.59421 0.40665 0.0
H1635 H 0.2661 0.75474 0.39574 0.0
H1636 H 0.3347 0.67288 0.35233 0.0
H1637 H 0.27056 0.67492 0.44475 0.0
C1638 C 0.28971 0.63125 0.45378 0.0
C1639 C 0.31047 0.6078 0.44384 0.0
C1640 C 0.31949 0.69075 0.36179 0.0
C1641 C 0.30426 0.66008 0.40845 0.0
C1642 C 0.31776 0.71726 0.34609 0.0
C1643 C 0.29845 0.74097 0.35787 0.0
C1644 C 0.30202 0.6878 0.38984 0.0
C1645 C 0.28112 0.73705 0.38562 0.0
C1646 C 0.28658 0.65723 0.4363 0.0
C1647 C 0.3276 0.61155 0.41569 0.0
N1648 N 0.28332 0.71111 0.40061 0.0
N1649 N 0.32413 0.63705 0.39911 0.0
H1650 H 0.43868 0.26452 0.49467 0.0
H1651 H 0.38268 0.30321 0.3213 0.0
H1652 H 0.478 0.30838 0.41848 0.0
H1653 H 0.33347 0.2892 0.40935 0.0
H1654 H 0.41944 0.30184 0.3539 0.0
H1655 H 0.40149 0.27039 0.46181 0.0
C1656 C 0.43926 0.27581 0.47112 0.0
C1657 C 0.46134 0.28629 0.45954 0.0
C1658 C 0.40057 0.29897 0.36597 0.0
C1659 C 0.41895 0.29231 0.42095 0.0
C1660 C 0.37957 0.29953 0.34735 0.0
C1661 C 0.35481 0.29573 0.36235 0.0
C1662 C 0.397 0.29428 0.39987 0.0
C1663 C 0.35214 0.29151 0.39635 0.0
C1664 C 0.41803 0.27907 0.45226 0.0
C1665 C 0.46114 0.30041 0.42859 0.0
N1666 N 0.37286 0.29071 0.41375 0.0
N1667 N 0.44045 0.30272 0.41019 0.0
H1668 H 0.62915 0.83827 0.62273 0.0
H1669 H 0.68999 0.81859 0.79372 0.0
H1670 H 0.59326 0.80354 0.71014 0.0
H1671 H 0.73896 0.81921 0.70202 0.0
H1672 H 0.65087 0.82268 0.76456 0.0
H1673 H 0.66575 0.84173 0.65282 0.0
C1674 C 0.62863 0.83194 0.64837 0.0
C1675 C 0.60809 0.82058 0.66393 0.0
C1676 C 0.67016 0.82223 0.75086 0.0
C1677 C 0.6499 0.82442 0.69843 0.0
C1678 C 0.69257 0.81992 0.76749 0.0
C1679 C 0.71801 0.81878 0.75042 0.0
C1680 C 0.67295 0.82376 0.71682 0.0
C1681 C 0.71984 0.82052 0.71634 0.0
C1682 C 0.64965 0.83367 0.66544 0.0
C1683 C 0.6087 0.81235 0.69713 0.0
N1684 N 0.69769 0.82296 0.70072 0.0
N1685 N 0.62921 0.81442 0.71323 0.0
H1686 H 0.61533 0.27196 0.38974 0.0
H1687 H 0.76959 0.25138 0.41312 0.0
H1688 H 0.64282 0.2555 0.48477 0.0
H1689 H 0.73068 0.30942 0.339 0.0
H1690 H 0.7252 0.24638 0.43705 0.0
H1691 H 0.65915 0.27932 0.36748 0.0
C1692 C 0.63067 0.26971 0.40589 0.0
C1693 C 0.62539 0.26303 0.43919 0.0
C1694 C 0.72641 0.26009 0.41542 0.0
C1695 C 0.67593 0.27089 0.41368 0.0
C1696 C 0.75173 0.2629 0.4017 0.0
C1697 C 0.75407 0.27987 0.37311 0.0
C1698 C 0.7031 0.27441 0.40053 0.0
C1699 C 0.73009 0.29504 0.36004 0.0
C1700 C 0.65564 0.27404 0.39318 0.0
C1701 C 0.64599 0.2607 0.45902 0.0
N1702 N 0.70573 0.29159 0.37346 0.0
N1703 N 0.67043 0.26427 0.44594 0.0
H1704 H 0.82944 0.62491 0.49718 0.0
H1705 H 0.77247 0.71543 0.33977 0.0
H1706 H 0.74552 0.64737 0.47984 0.0
H1707 H 0.85321 0.7034 0.36504 0.0
H1708 H 0.76458 0.68314 0.38539 0.0
H1709 H 0.84012 0.64705 0.44445 0.0
C1710 C 0.81325 0.63414 0.48213 0.0
C1711 C 0.78647 0.63419 0.49305 0.0
C1712 C 0.78414 0.68729 0.38074 0.0
C1713 C 0.79867 0.65999 0.43246 0.0
C1714 C 0.78882 0.70549 0.35443 0.0
C1715 C 0.81335 0.7127 0.3491 0.0
C1716 C 0.80426 0.67596 0.40164 0.0
C1717 C 0.83372 0.6991 0.3689 0.0
C1718 C 0.81939 0.64696 0.45201 0.0
C1719 C 0.76636 0.64708 0.47257 0.0
N1720 N 0.82861 0.68166 0.39457 0.0
N1721 N 0.77286 0.65954 0.44329 0.0
H1722 H 0.4919 0.86634 0.54709 0.0
H1723 H 0.42566 0.80737 0.42355 0.0
H1724 H 0.53796 0.81149 0.47438 0.0
H1725 H 0.38356 0.88483 0.46674 0.0
H1726 H 0.46769 0.81196 0.43842 0.0
H1727 H 0.45291 0.87771 0.51539 0.0
C1728 C 0.49407 0.85748 0.52394 0.0
C1729 C 0.51792 0.8376 0.51354 0.0
C1730 C 0.44933 0.82823 0.44424 0.0
C1731 C 0.4736 0.8499 0.47774 0.0
C1732 C 0.42515 0.82573 0.4355 0.0
C1733 C 0.40065 0.84547 0.44429 0.0
C1734 C 0.44914 0.85027 0.46264 0.0
C1735 C 0.4017 0.86851 0.46037 0.0
C1736 C 0.47181 0.86381 0.50596 0.0
C1737 C 0.51971 0.82654 0.48352 0.0
N1738 N 0.42543 0.86996 0.46966 0.0
N1739 N 0.4977 0.83241 0.46701 0.0
H1740 H 0.31511 0.42469 0.48253 0.0
H1741 H 0.24279 0.40951 0.32984 0.0
H1742 H 0.25007 0.49133 0.44716 0.0
H1743 H 0.30134 0.34333 0.37666 0.0
H1744 H 0.24279 0.4398 0.37289 0.0
H1745 H 0.30786 0.39433 0.44483 0.0
C1746 C 0.29915 0.43293 0.46687 0.0
C1747 C 0.28331 0.46068 0.46789 0.0
C1748 C 0.25529 0.41844 0.3739 0.0
C1749 C 0.275 0.42585 0.42392 0.0
C1750 C 0.25531 0.40118 0.34938 0.0
C1751 C 0.27162 0.37349 0.34993 0.0
C1752 C 0.27217 0.40803 0.39877 0.0
C1753 C 0.28786 0.36399 0.37541 0.0
C1754 C 0.29497 0.41551 0.44527 0.0
C1755 C 0.26274 0.47005 0.44716 0.0
N1756 N 0.28773 0.38114 0.3986 0.0
N1757 N 0.25936 0.45275 0.4257 0.0
H1758 H 0.44156 0.27421 0.5924 0.0
H1759 H 0.40577 0.2058 0.76934 0.0
H1760 H 0.49661 0.20566 0.64151 0.0
H1761 H 0.35274 0.27919 0.72597 0.0
H1762 H 0.43708 0.20259 0.71983 0.0
H1763 H 0.40716 0.27396 0.63828 0.0
C1764 C 0.4466 0.2591 0.61265 0.0
C1765 C 0.47246 0.24004 0.61271 0.0
C1766 C 0.41847 0.21926 0.72089 0.0
C1767 C 0.43259 0.23951 0.6656 0.0
C1768 C 0.40053 0.22101 0.74915 0.0
C1769 C 0.37641 0.24255 0.75173 0.0
C1770 C 0.41258 0.23947 0.69492 0.0
C1771 C 0.37083 0.26194 0.72493 0.0
C1772 C 0.42676 0.25891 0.63889 0.0
C1773 C 0.4772 0.22071 0.6398 0.0
N1774 N 0.38879 0.26001 0.69774 0.0
N1775 N 0.45761 0.22104 0.66497 0.0
H1776 H 0.74643 0.50344 0.71832 0.0
H1777 H 0.8341 0.3443 0.70349 0.0
H1778 H 0.80813 0.47596 0.63968 0.0
H1779 H 0.77201 0.37254 0.78109 0.0
H1780 H 0.82584 0.39262 0.68012 0.0
H1781 H 0.75593 0.45543 0.74199 0.0
C1782 C 0.76185 0.48736 0.70592 0.0
C1783 C 0.7764 0.49395 0.67692 0.0
C1784 C 0.81421 0.38822 0.70248 0.0
C1785 C 0.78748 0.4388 0.7039 0.0
C1786 C 0.81901 0.36072 0.71584 0.0
C1787 C 0.80422 0.35446 0.74473 0.0
C1788 C 0.79407 0.40951 0.71787 0.0
C1789 C 0.78444 0.37635 0.75939 0.0
C1790 C 0.7673 0.45992 0.71945 0.0
C1791 C 0.79604 0.47206 0.66179 0.0
N1792 N 0.77998 0.40284 0.74586 0.0
N1793 N 0.80105 0.44555 0.67552 0.0
H1794 H 0.24201 0.56675 0.63972 0.0
H1795 H 0.26864 0.71432 0.59761 0.0
H1796 H 0.24329 0.60674 0.54301 0.0
H1797 H 0.24151 0.68853 0.69508 0.0
H1798 H 0.25821 0.67517 0.57784 0.0
H1799 H 0.23949 0.61117 0.6613 0.0
C1800 C 0.24115 0.58496 0.62305 0.0
C1801 C 0.24332 0.58283 0.58942 0.0
C1802 C 0.25422 0.67819 0.60354 0.0
C1803 C 0.24095 0.63354 0.61398 0.0
C1804 C 0.26007 0.70075 0.61494 0.0
C1805 C 0.25586 0.70508 0.6482 0.0
C1806 C 0.24455 0.65922 0.62546 0.0
C1807 C 0.24551 0.68594 0.66933 0.0
C1808 C 0.2398 0.6103 0.63542 0.0
C1809 C 0.24196 0.60721 0.56906 0.0
N1810 N 0.24045 0.66371 0.65764 0.0
N1811 N 0.24136 0.63138 0.58162 0.0
loop_
_geom_bond_atom_site_label_1
_geom_bond_atom_site_label_2
_geom_bond_distance
_geom_bond_site_symmetry_2
_ccdc_geom_bond_type
Cu0 N1 1.999 . S
Cu0 O6 1.974 . S
Cu0 N11 1.985 . S
Cu0 O20 1.959 1_455 S
N1 Cu0 1.999 . S
N1 C3 1.263 . S
N1 C5 1.389 . S
N2 C3 1.358 . S
N2 C4 1.400 . S
C3 N1 1.263 . S
C3 N2 1.358 . S
C3 H9 0.930 . S
C4 N2 1.400 . S
C4 C5 1.351 . S
C4 H21 0.930 . S
C5 N1 1.389 . S
C5 C4 1.351 . S
C5 H10 0.930 . S
O6 Cu0 1.974 . S
O6 C16 1.282 1_545 S
C7 O8 1.261 . S
C7 O20 1.251 . S
O8 C7 1.261 . S
H9 C3 0.930 . S
H10 C5 0.930 . S
N11 Cu0 1.985 . S
N11 C13 1.335 1_455 S
N11 C14 1.390 1_545 S
N12 C13 1.345 1_565 S
N12 C15 1.336 . S
C13 N11 1.335 1_655 S
C13 N12 1.345 1_545 S
C13 H18 0.930 . S
C14 N11 1.390 1_565 S
C14 C15 1.346 1_455 S
C14 H19 0.930 . S
C15 N12 1.336 . S
C15 C14 1.346 1_655 S
C15 H22 0.924 . S
C16 O6 1.282 1_565 S
C16 O17 1.216 1_565 S
O17 C16 1.216 1_545 S
H18 C13 0.930 . S
H19 C14 0.930 . S
O20 Cu0 1.959 1_655 S
O20 C7 1.251 . S
H21 C4 0.930 . S
H22 C15 0.924 . S
Cu23 N24 1.999 . S
Cu23 O29 1.974 1_455 S
Cu23 N34 1.985 . S
Cu23 O43 1.959 . S
N24 Cu23 1.999 . S
N24 C26 1.263 1_455 S
N24 C28 1.389 1_545 S
N25 C26 1.358 1_565 S
N25 C27 1.400 . S
C26 N24 1.263 1_655 S
C26 N25 1.358 1_545 S
C26 H32 0.930 . S
C27 N25 1.400 . S
C27 C28 1.351 1_655 S
C27 H44 0.930 . S
C28 N24 1.389 1_565 S
C28 C27 1.351 1_455 S
C28 H33 0.930 . S
O29 Cu23 1.974 1_655 S
O29 C39 1.282 . S
C30 O31 1.261 . S
C30 O43 1.251 . S
O31 C30 1.261 . S
H32 C26 0.930 . S
H33 C28 0.930 . S
N34 Cu23 1.985 . S
N34 C36 1.335 . S
N34 C37 1.390 . S
N35 C36 1.345 . S
N35 C38 1.336 . S
C36 N34 1.335 . S
C36 N35 1.345 . S
C36 H41 0.930 . S
C37 N34 1.390 . S
C37 C38 1.346 . S
C37 H42 0.930 . S
C38 N35 1.336 . S
C38 C37 1.346 . S
C38 H45 0.929 . S
C39 O29 1.282 . S
C39 O40 1.216 . S
O40 C39 1.216 . S
H41 C36 0.930 . S
H42 C37 0.930 . S
O43 Cu23 1.959 . S
O43 C30 1.251 . S
H44 C27 0.930 . S
H45 C38 0.929 . S
Cu46 N47 1.999 . S
Cu46 O52 1.974 . S
Cu46 N57 1.985 . S
Cu46 O66 1.959 . S
N47 Cu46 1.999 . S
N47 C49 1.263 . S
N47 C51 1.389 . S
N48 C49 1.358 . S
N48 C50 1.400 . S
C49 N47 1.263 . S
C49 N48 1.358 . S
C49 H55 0.930 . S
C50 N48 1.400 . S
C50 C51 1.351 . S
C50 H67 0.930 1_554 S
C51 N47 1.389 . S
C51 C50 1.351 . S
C51 H56 0.930 . S
O52 Cu46 1.974 . S
O52 C62 1.282 . S
C53 O54 1.261 . S
C53 O66 1.251 . S
O54 C53 1.261 . S
H55 C49 0.930 . S
H56 C51 0.930 . S
N57 Cu46 1.985 . S
N57 C59 1.335 . S
N57 C60 1.390 . S
N58 C59 1.345 . S
N58 C61 1.336 . S
C59 N57 1.335 . S
C59 N58 1.345 . S
C59 H64 0.930 . S
C60 N57 1.390 . S
C60 C61 1.346 . S
C60 H65 0.930 . S
C61 N58 1.336 . S
C61 C60 1.346 . S
C61 H68 0.929 . S
C62 O52 1.282 . S
C62 O63 1.216 . S
O63 C62 1.216 . S
H64 C59 0.930 . S
H65 C60 0.930 . S
O66 Cu46 1.959 . S
O66 C53 1.251 . S
H67 C50 0.930 1_556 S
H68 C61 0.929 . S
Cu69 N70 1.999 . S
Cu69 O75 1.974 . S
Cu69 N80 1.985 . S
Cu69 O89 1.959 . S
N70 Cu69 1.999 . S
N70 C72 1.263 . S
N70 C74 1.389 . S
N71 C72 1.358 . S
N71 C73 1.400 1_554 S
C72 N70 1.263 . S
C72 N71 1.358 . S
C72 H78 0.930 . S
C73 N71 1.400 1_556 S
C73 C74 1.351 1_556 S
C73 H90 0.930 . S
C74 N70 1.389 . S
C74 C73 1.351 1_554 S
C74 H79 0.930 . S
O75 Cu69 1.974 . S
O75 C85 1.282 . S
C76 O77 1.261 . S
C76 O89 1.251 . S
O77 C76 1.261 . S
H78 C72 0.930 . S
H79 C74 0.930 . S
N80 Cu69 1.985 . S
N80 C82 1.335 1_455 S
N80 C83 1.390 . S
N81 C82 1.345 . S
N81 C84 1.336 1_655 S
C82 N80 1.335 1_655 S
C82 N81 1.345 . S
C82 H87 0.930 . S
C83 N80 1.390 . S
C83 C84 1.346 . S
C83 H88 0.930 . S
C84 N81 1.336 1_455 S
C84 C83 1.346 . S
C84 H91 0.929 . S
C85 O75 1.282 . S
C85 O86 1.216 . S
O86 C85 1.216 . S
H87 C82 0.930 . S
H88 C83 0.930 . S
O89 Cu69 1.959 . S
O89 C76 1.251 . S
H90 C73 0.930 . S
H91 C84 0.929 . S
Cu92 N93 1.999 1_554 S
Cu92 O98 1.974 . S
Cu92 N103 1.985 1_545 S
Cu92 O112 1.959 1_544 S
N93 Cu92 1.999 1_556 S
N93 C95 1.263 . S
N93 C97 1.389 . S
N94 C95 1.358 . S
N94 C96 1.400 . S
C95 N93 1.263 . S
C95 N94 1.358 . S
C95 H101 0.930 . S
C96 N94 1.400 . S
C96 C97 1.351 . S
C96 H113 0.930 . S
C97 N93 1.389 . S
C97 C96 1.351 . S
C97 H102 0.930 . S
O98 Cu92 1.974 . S
O98 C108 1.282 . S
C99 O100 1.261 . S
C99 O112 1.251 . S
O100 C99 1.261 . S
H101 C95 0.930 . S
H102 C97 0.930 . S
N103 Cu92 1.985 1_565 S
N103 C105 1.335 . S
N103 C106 1.390 . S
N104 C105 1.345 . S
N104 C107 1.336 . S
C105 N103 1.335 . S
C105 N104 1.345 . S
C105 H110 0.930 . S
C106 N103 1.390 . S
C106 C107 1.346 . S
C106 H111 0.930 . S
C107 N104 1.336 . S
C107 C106 1.346 . S
C107 H114 0.929 . S
C108 O98 1.282 . S
C108 O109 1.216 . S
O109 C108 1.216 . S
H110 C105 0.930 . S
H111 C106 0.930 . S
O112 Cu92 1.959 1_566 S
O112 C99 1.251 . S
H113 C96 0.930 . S
H114 C107 0.929 . S
Cu115 N116 1.999 1_454 S
Cu115 O121 1.974 1_455 S
Cu115 N126 1.985 . S
Cu115 O135 1.959 1_554 S
N116 Cu115 1.999 1_656 S
N116 C118 1.263 . S
N116 C120 1.389 . S
N117 C118 1.358 . S
N117 C119 1.400 . S
C118 N116 1.263 . S
C118 N117 1.358 . S
C118 H124 0.930 . S
C119 N117 1.400 . S
C119 C120 1.351 . S
C119 H136 0.930 . S
C120 N116 1.389 . S
C120 C119 1.351 . S
C120 H125 0.930 1_655 S
O121 Cu115 1.974 1_655 S
O121 C131 1.282 . S
C122 O123 1.261 . S
C122 O135 1.251 . S
O123 C122 1.261 . S
H124 C118 0.930 . S
H125 C120 0.930 1_455 S
N126 Cu115 1.985 . S
N126 C128 1.335 . S
N126 C129 1.390 . S
N127 C128 1.345 . S
N127 C130 1.336 . S
C128 N126 1.335 . S
C128 N127 1.345 . S
C128 H133 0.930 . S
C129 N126 1.390 . S
C129 C130 1.346 . S
C129 H134 0.930 1_455 S
C130 N127 1.336 . S
C130 C129 1.346 . S
C130 H137 0.929 . S
C131 O121 1.282 . S
C131 O132 1.216 . S
O132 C131 1.216 . S
H133 C128 0.930 . S
H134 C129 0.930 1_655 S
O135 Cu115 1.959 1_556 S
O135 C122 1.251 . S
H136 C119 0.930 . S
H137 C130 0.929 . S
Cu138 N139 1.999 . S
Cu138 O144 1.974 . S
Cu138 N149 1.985 . S
Cu138 O158 1.959 . S
N139 Cu138 1.999 . S
N139 C141 1.263 . S
N139 C143 1.389 . S
N140 C141 1.358 . S
N140 C142 1.400 . S
C141 N139 1.263 . S
C141 N140 1.358 . S
C141 H147 0.930 . S
C142 N140 1.400 . S
C142 C143 1.351 . S
C142 H159 0.930 . S
C143 N139 1.389 . S
C143 C142 1.351 . S
C143 H148 0.930 . S
O144 Cu138 1.974 . S
O144 C154 1.282 . S
C145 O146 1.261 . S
C145 O158 1.251 . S
O146 C145 1.261 . S
H147 C141 0.930 . S
H148 C143 0.930 . S
N149 Cu138 1.985 . S
N149 C151 1.335 . S
N149 C152 1.390 . S
N150 C151 1.345 . S
N150 C153 1.336 . S
C151 N149 1.335 . S
C151 N150 1.345 . S
C151 H156 0.930 . S
C152 N149 1.390 . S
C152 C153 1.346 . S
C152 H157 0.930 . S
C153 N150 1.336 . S
C153 C152 1.346 . S
C153 H160 0.929 . S
C154 O144 1.282 . S
C154 O155 1.216 . S
O155 C154 1.216 . S
H156 C151 0.930 . S
H157 C152 0.930 . S
O158 Cu138 1.959 . S
O158 C145 1.251 . S
H159 C142 0.930 . S
H160 C153 0.929 . S
Cu161 N162 1.999 . S
Cu161 O167 1.974 . S
Cu161 N172 1.985 . S
Cu161 O181 1.959 . S
N162 Cu161 1.999 . S
N162 C164 1.263 . S
N162 C166 1.389 . S
N163 C164 1.358 . S
N163 C165 1.400 . S
C164 N162 1.263 . S
C164 N163 1.358 . S
C164 H170 0.930 . S
C165 N163 1.400 . S
C165 C166 1.351 . S
C165 H182 0.930 . S
C166 N162 1.389 . S
C166 C165 1.351 . S
C166 H171 0.930 . S
O167 Cu161 1.974 . S
O167 C177 1.282 . S
C168 O169 1.261 . S
C168 O181 1.251 . S
O169 C168 1.261 . S
H170 C164 0.930 . S
H171 C166 0.930 . S
N172 Cu161 1.985 . S
N172 C174 1.335 . S
N172 C175 1.390 . S
N173 C174 1.345 . S
N173 C176 1.336 . S
C174 N172 1.335 . S
C174 N173 1.345 . S
C174 H179 0.930 . S
C175 N172 1.390 . S
C175 C176 1.346 . S
C175 H180 0.930 . S
C176 N173 1.336 . S
C176 C175 1.346 . S
C176 H183 0.929 . S
C177 O167 1.282 . S
C177 O178 1.216 . S
O178 C177 1.216 . S
H179 C174 0.930 . S
H180 C175 0.930 . S
O181 Cu161 1.959 . S
O181 C168 1.251 . S
H182 C165 0.930 . S
H183 C176 0.929 . S
Cu184 N185 1.999 . S
Cu184 O190 1.974 . S
Cu184 N195 1.985 . S
Cu184 O204 1.959 . S
N185 Cu184 1.999 . S
N185 C187 1.263 . S
N185 C189 1.389 . S
N186 C187 1.358 . S
N186 C188 1.400 . S
C187 N185 1.263 . S
C187 N186 1.358 . S
C187 H193 0.930 . S
C188 N186 1.400 . S
C188 C189 1.351 . S
C188 H205 0.930 . S
C189 N185 1.389 . S
C189 C188 1.351 . S
C189 H194 0.930 . S
O190 Cu184 1.974 . S
O190 C200 1.282 . S
C191 O192 1.261 . S
C191 O204 1.251 . S
O192 C191 1.261 . S
H193 C187 0.930 . S
H194 C189 0.930 . S
N195 Cu184 1.985 . S
N195 C197 1.335 . S
N195 C198 1.390 . S
N196 C197 1.345 . S
N196 C199 1.336 . S
C197 N195 1.335 . S
C197 N196 1.345 . S
C197 H202 0.930 . S
C198 N195 1.390 . S
C198 C199 1.346 . S
C198 H203 0.930 . S
C199 N196 1.336 . S
C199 C198 1.346 . S
C199 H206 0.929 . S
C200 O190 1.282 . S
C200 O201 1.216 . S
O201 C200 1.216 . S
H202 C197 0.930 . S
H203 C198 0.930 . S
O204 Cu184 1.959 . S
O204 C191 1.251 . S
H205 C188 0.930 . S
H206 C199 0.929 . S
Cu207 N208 1.999 . S
Cu207 O213 1.974 . S
Cu207 N218 1.985 . S
Cu207 O227 1.959 . S
N208 Cu207 1.999 . S
N208 C210 1.263 . S
N208 C212 1.389 . S
N209 C210 1.358 . S
N209 C211 1.400 . S
C210 N208 1.263 . S
C210 N209 1.358 . S
C210 H216 0.930 . S
C211 N209 1.400 . S
C211 C212 1.351 . S
C211 H228 0.930 . S
C212 N208 1.389 . S
C212 C211 1.351 . S
C212 H217 0.930 . S
O213 Cu207 1.974 . S
O213 C223 1.282 . S
C214 O215 1.261 . S
C214 O227 1.251 . S
O215 C214 1.261 . S
H216 C210 0.930 . S
H217 C212 0.930 . S
N218 Cu207 1.985 . S
N218 C220 1.335 . S
N218 C221 1.390 . S
N219 C220 1.345 . S
N219 C222 1.336 . S
C220 N218 1.335 . S
C220 N219 1.345 . S
C220 H225 0.930 . S
C221 N218 1.390 . S
C221 C222 1.346 . S
C221 H226 0.930 . S
C222 N219 1.336 . S
C222 C221 1.346 . S
C222 H229 0.929 . S
C223 O213 1.282 . S
C223 O224 1.216 . S
O224 C223 1.216 . S
H225 C220 0.930 . S
H226 C221 0.930 . S
O227 Cu207 1.959 . S
O227 C214 1.251 . S
H228 C211 0.930 . S
H229 C222 0.929 . S
Cu230 N231 1.999 . S
Cu230 O236 1.974 . S
Cu230 N241 1.985 . S
Cu230 O250 1.959 . S
N231 Cu230 1.999 . S
N231 C233 1.263 . S
N231 C235 1.389 . S
N232 C233 1.358 . S
N232 C234 1.400 . S
C233 N231 1.263 . S
C233 N232 1.358 . S
C233 H239 0.930 . S
C234 N232 1.400 . S
C234 C235 1.351 . S
C234 H251 0.930 . S
C235 N231 1.389 . S
C235 C234 1.351 . S
C235 H240 0.930 . S
O236 Cu230 1.974 . S
O236 C246 1.282 . S
C237 O238 1.261 . S
C237 O250 1.251 . S
O238 C237 1.261 . S
H239 C233 0.930 . S
H240 C235 0.930 . S
N241 Cu230 1.985 . S
N241 C243 1.335 . S
N241 C244 1.390 . S
N242 C243 1.345 . S
N242 C245 1.336 . S
C243 N241 1.335 . S
C243 N242 1.345 . S
C243 H248 0.930 . S
C244 N241 1.390 . S
C244 C245 1.346 . S
C244 H249 0.930 . S
C245 N242 1.336 . S
C245 C244 1.346 . S
C245 H252 0.929 . S
C246 O236 1.282 . S
C246 O247 1.216 . S
O247 C246 1.216 . S
H248 C243 0.930 . S
H249 C244 0.930 . S
O250 Cu230 1.959 . S
O250 C237 1.251 . S
H251 C234 0.930 . S
H252 C245 0.929 . S
Cu253 N254 1.999 . S
Cu253 O259 1.974 . S
Cu253 N264 1.985 . S
Cu253 O273 1.959 . S
N254 Cu253 1.999 . S
N254 C256 1.263 . S
N254 C258 1.389 . S
N255 C256 1.358 . S
N255 C257 1.400 . S
C256 N254 1.263 . S
C256 N255 1.358 . S
C256 H262 0.930 . S
C257 N255 1.400 . S
C257 C258 1.351 . S
C257 H274 0.930 . S
C258 N254 1.389 . S
C258 C257 1.351 . S
C258 H263 0.930 . S
O259 Cu253 1.974 . S
O259 C269 1.282 . S
C260 O261 1.261 . S
C260 O273 1.251 . S
O261 C260 1.261 . S
H262 C256 0.930 . S
H263 C258 0.930 . S
N264 Cu253 1.985 . S
N264 C266 1.335 . S
N264 C267 1.390 . S
N265 C266 1.345 . S
N265 C268 1.336 . S
C266 N264 1.335 . S
C266 N265 1.345 . S
C266 H271 0.930 . S
C267 N264 1.390 . S
C267 C268 1.346 . S
C267 H272 0.930 . S
C268 N265 1.336 . S
C268 C267 1.346 . S
C268 H275 0.929 . S
C269 O259 1.282 . S
C269 O270 1.216 . S
O270 C269 1.216 . S
H271 C266 0.930 . S
H272 C267 0.930 . S
O273 Cu253 1.959 . S
O273 C260 1.251 . S
H274 C257 0.930 . S
H275 C268 0.929 . S
Tb276 N307 2.660 . S
Tb276 N314 2.600 . S
Tb276 O320 2.546 . S
Tb276 O321 2.610 . S
Tb276 O323 2.320 . S
Tb276 O324 2.552 . S
Tb276 O325 2.413 . S
Tb276 O327 2.362 . S
Tb276 O328 2.421 . S
Tb276 C340 2.833 . S
C277 C280 1.432 . S
C277 C281 1.414 . S
C277 N284 1.359 . S
C278 C280 1.417 . S
C278 C282 1.432 . S
C278 C290 1.410 . S
C279 C281 1.444 . S
C279 C282 1.317 . S
C279 H302 0.929 . S
C280 C277 1.432 . S
C280 C278 1.417 . S
C280 N288 1.360 . S
C281 C277 1.414 . S
C281 C279 1.444 . S
C281 C286 1.385 . S
C282 C278 1.432 . S
C282 C279 1.317 . S
C282 H294 0.930 . S
C283 C285 1.392 . S
C283 C286 1.370 . S
C283 H295 0.931 . S
N284 C277 1.359 . S
N284 C285 1.327 . S
N284 Tb287 2.600 . S
C285 C283 1.392 . S
C285 N284 1.327 . S
C285 H292 0.930 . S
C286 C281 1.385 . S
C286 C283 1.370 . S
C286 H305 0.930 . S
Tb287 N284 2.600 . S
Tb287 N288 2.660 . S
Tb287 O321 2.362 . S
Tb287 O322 2.421 . S
Tb287 O326 2.546 . S
Tb287 O327 2.610 . S
Tb287 O329 2.320 . S
Tb287 O330 2.552 . S
Tb287 O331 2.413 . S
Tb287 C351 2.833 . S
N288 C280 1.360 . S
N288 Tb287 2.660 . S
N288 C289 1.305 . S
C289 N288 1.305 . S
C289 C291 1.407 . S
C289 H296 0.930 . S
C290 C278 1.410 . S
C290 C291 1.345 . S
C290 H298 0.930 . S
C291 C289 1.407 . S
C291 C290 1.345 . S
C291 H293 0.930 . S
H292 C285 0.930 . S
H293 C291 0.930 . S
H294 C282 0.930 . S
H295 C283 0.931 . S
H296 C289 0.930 . S
H297 C311 0.930 . S
H298 C290 0.930 . S
H299 C317 0.930 . S
H300 C308 0.930 . S
H301 C315 0.931 . S
H302 C279 0.929 . S
H303 C309 0.930 . S
H304 C342 0.930 . S
H305 C286 0.930 . S
H306 C341 0.929 . S
N307 Tb276 2.660 . S
N307 C308 1.305 . S
N307 C312 1.360 . S
C308 H300 0.930 . S
C308 N307 1.305 . S
C308 C311 1.407 . S
C309 H303 0.930 . S
C309 C310 1.410 . S
C309 C311 1.345 . S
C310 C309 1.410 . S
C310 C312 1.417 . S
C310 C342 1.432 . S
C311 H297 0.930 . S
C311 C308 1.407 . S
C311 C309 1.345 . S
C312 N307 1.360 . S
C312 C310 1.417 . S
C312 C316 1.432 . S
H313 C318 0.930 . S
N314 Tb276 2.600 . S
N314 C316 1.359 . S
N314 C317 1.327 . S
C315 H301 0.931 . S
C315 C317 1.392 . S
C315 C318 1.370 . S
C316 C312 1.432 . S
C316 N314 1.359 . S
C316 C319 1.414 . S
C317 H299 0.930 . S
C317 N314 1.327 . S
C317 C315 1.392 . S
C318 H313 0.930 . S
C318 C315 1.370 . S
C318 C319 1.385 . S
C319 C316 1.414 . S
C319 C318 1.385 . S
C319 C341 1.444 . S
O320 Tb276 2.546 . S
O320 C340 1.251 . S
O321 Tb276 2.610 . S
O321 Tb287 2.362 . S
O321 C332 1.283 . S
O322 Tb287 2.421 . S
O322 C339 1.262 . S
O323 Tb276 2.320 . S
O323 C339 1.260 . S
O324 Tb276 2.552 . S
O324 C332 1.243 . S
O325 Tb276 2.413 . S
O325 C340 1.256 . S
O326 Tb287 2.546 . S
O326 C351 1.251 . S
O327 Tb276 2.362 . S
O327 Tb287 2.610 . S
O327 C343 1.283 . S
O328 Tb276 2.421 . S
O328 C350 1.262 . S
O329 Tb287 2.320 . S
O329 C350 1.260 . S
O330 Tb287 2.552 . S
O330 C343 1.243 . S
O331 Tb287 2.413 . S
O331 C351 1.256 . S
C332 O321 1.283 . S
C332 O324 1.243 . S
C333 C335 1.382 . S
C333 C337 1.393 . S
C333 C340 1.500 . S
C334 C335 1.400 . S
C334 C336 1.384 . S
C335 C333 1.382 . S
C335 C334 1.400 . S
C335 H352 0.930 . S
C336 C334 1.384 . S
C336 C338 1.392 . S
C336 H353 0.931 . S
C337 C333 1.393 . S
C337 C338 1.401 . S
C337 H354 0.930 . S
C338 C336 1.392 . S
C338 C337 1.401 . S
C338 H355 0.930 . S
C339 O322 1.262 . S
C339 O323 1.260 . S
C340 Tb276 2.833 . S
C340 O320 1.251 . S
C340 O325 1.256 . S
C340 C333 1.500 . S
C341 H306 0.929 . S
C341 C319 1.444 . S
C341 C342 1.317 . S
C342 H304 0.930 . S
C342 C310 1.432 . S
C342 C341 1.317 . S
C343 O327 1.283 . S
C343 O330 1.243 . S
C344 C345 1.382 . S
C344 C348 1.393 . S
C344 C351 1.500 . S
C345 C344 1.382 . S
C345 C346 1.400 . S
C345 H356 0.930 . S
C346 C345 1.400 . S
C346 C347 1.384 . S
C347 C346 1.384 . S
C347 C349 1.392 . S
C347 H357 0.931 . S
C348 C344 1.393 . S
C348 C349 1.401 . S
C348 H358 0.930 . S
C349 C347 1.392 . S
C349 C348 1.401 . S
C349 H359 0.930 . S
C350 O328 1.262 . S
C350 O329 1.260 . S
C351 Tb287 2.833 . S
C351 O326 1.251 . S
C351 O331 1.256 . S
C351 C344 1.500 . S
H352 C335 0.930 . S
H353 C336 0.931 . S
H354 C337 0.930 . S
H355 C338 0.930 . S
H356 C345 0.930 . S
H357 C347 0.931 . S
H358 C348 0.930 . S
H359 C349 0.930 . S
Tb360 N391 2.660 . S
Tb360 N398 2.600 . S
Tb360 O404 2.546 . S
Tb360 O405 2.610 . S
Tb360 O407 2.320 . S
Tb360 O408 2.552 . S
Tb360 O409 2.413 . S
Tb360 O411 2.362 . S
Tb360 O412 2.421 . S
Tb360 C424 2.833 . S
C361 C364 1.432 . S
C361 C365 1.414 . S
C361 N368 1.359 . S
C362 C364 1.417 . S
C362 C366 1.432 . S
C362 C374 1.410 . S
C363 C365 1.444 . S
C363 C366 1.317 . S
C363 H386 0.929 . S
C364 C361 1.432 . S
C364 C362 1.417 . S
C364 N372 1.360 . S
C365 C361 1.414 . S
C365 C363 1.444 . S
C365 C370 1.385 . S
C366 C362 1.432 . S
C366 C363 1.317 . S
C366 H378 0.930 . S
C367 C369 1.392 . S
C367 C370 1.370 . S
C367 H379 0.931 . S
N368 C361 1.359 . S
N368 C369 1.327 . S
N368 Tb371 2.600 . S
C369 C367 1.392 . S
C369 N368 1.327 . S
C369 H376 0.930 . S
C370 C365 1.385 . S
C370 C367 1.370 . S
C370 H389 0.930 . S
Tb371 N368 2.600 . S
Tb371 N372 2.660 . S
Tb371 O405 2.362 . S
Tb371 O406 2.421 . S
Tb371 O410 2.546 . S
Tb371 O411 2.610 . S
Tb371 O413 2.320 . S
Tb371 O414 2.552 . S
Tb371 O415 2.413 . S
Tb371 C435 2.833 . S
N372 C364 1.360 . S
N372 Tb371 2.660 . S
N372 C373 1.305 . S
C373 N372 1.305 . S
C373 C375 1.407 . S
C373 H380 0.930 . S
C374 C362 1.410 . S
C374 C375 1.345 . S
C374 H382 0.930 . S
C375 C373 1.407 . S
C375 C374 1.345 . S
C375 H377 0.930 . S
H376 C369 0.930 . S
H377 C375 0.930 . S
H378 C366 0.930 . S
H379 C367 0.931 . S
H380 C373 0.930 . S
H381 C395 0.930 . S
H382 C374 0.930 . S
H383 C401 0.930 . S
H384 C392 0.930 . S
H385 C399 0.931 . S
H386 C363 0.929 . S
H387 C393 0.930 . S
H388 C426 0.930 . S
H389 C370 0.930 . S
H390 C425 0.929 . S
N391 Tb360 2.660 . S
N391 C392 1.305 . S
N391 C396 1.360 . S
C392 H384 0.930 . S
C392 N391 1.305 . S
C392 C395 1.407 . S
C393 H387 0.930 . S
C393 C394 1.410 . S
C393 C395 1.345 . S
C394 C393 1.410 . S
C394 C396 1.417 . S
C394 C426 1.432 . S
C395 H381 0.930 . S
C395 C392 1.407 . S
C395 C393 1.345 . S
C396 N391 1.360 . S
C396 C394 1.417 . S
C396 C400 1.432 . S
H397 C402 0.930 . S
N398 Tb360 2.600 . S
N398 C400 1.359 . S
N398 C401 1.327 . S
C399 H385 0.931 . S
C399 C401 1.392 . S
C399 C402 1.370 . S
C400 C396 1.432 . S
C400 N398 1.359 . S
C400 C403 1.414 . S
C401 H383 0.930 . S
C401 N398 1.327 . S
C401 C399 1.392 . S
C402 H397 0.930 . S
C402 C399 1.370 . S
C402 C403 1.385 . S
C403 C400 1.414 . S
C403 C402 1.385 . S
C403 C425 1.444 . S
O404 Tb360 2.546 . S
O404 C424 1.251 . S
O405 Tb360 2.610 . S
O405 Tb371 2.362 . S
O405 C416 1.283 . S
O406 Tb371 2.421 . S
O406 C423 1.262 . S
O407 Tb360 2.320 . S
O407 C423 1.260 . S
O408 Tb360 2.552 . S
O408 C416 1.243 . S
O409 Tb360 2.413 . S
O409 C424 1.256 . S
O410 Tb371 2.546 . S
O410 C435 1.251 . S
O411 Tb360 2.362 . S
O411 Tb371 2.610 . S
O411 C427 1.283 . S
O412 Tb360 2.421 . S
O412 C434 1.262 . S
O413 Tb371 2.320 . S
O413 C434 1.260 . S
O414 Tb371 2.552 . S
O414 C427 1.243 . S
O415 Tb371 2.413 . S
O415 C435 1.256 . S
C416 O405 1.283 . S
C416 O408 1.243 . S
C417 C419 1.382 . S
C417 C421 1.393 . S
C417 C424 1.500 . S
C418 C419 1.400 . S
C418 C420 1.384 . S
C419 C417 1.382 . S
C419 C418 1.400 . S
C419 H436 0.930 . S
C420 C418 1.384 . S
C420 C422 1.392 . S
C420 H437 0.931 . S
C421 C417 1.393 . S
C421 C422 1.401 . S
C421 H438 0.930 . S
C422 C420 1.392 . S
C422 C421 1.401 . S
C422 H439 0.930 . S
C423 O406 1.262 . S
C423 O407 1.260 . S
C424 Tb360 2.833 . S
C424 O404 1.251 . S
C424 O409 1.256 . S
C424 C417 1.500 . S
C425 H390 0.929 . S
C425 C403 1.444 . S
C425 C426 1.317 . S
C426 H388 0.930 . S
C426 C394 1.432 . S
C426 C425 1.317 . S
C427 O411 1.283 . S
C427 O414 1.243 . S
C428 C429 1.382 . S
C428 C432 1.393 . S
C428 C435 1.500 . S
C429 C428 1.382 . S
C429 C430 1.400 . S
C429 H440 0.930 . S
C430 C429 1.400 . S
C430 C431 1.384 . S
C431 C430 1.384 . S
C431 C433 1.392 . S
C431 H441 0.931 . S
C432 C428 1.393 . S
C432 C433 1.401 . S
C432 H442 0.930 . S
C433 C431 1.392 . S
C433 C432 1.401 . S
C433 H443 0.930 . S
C434 O412 1.262 . S
C434 O413 1.260 . S
C435 Tb371 2.833 . S
C435 O410 1.251 . S
C435 O415 1.256 . S
C435 C428 1.500 . S
H436 C419 0.930 . S
H437 C420 0.931 . S
H438 C421 0.930 . S
H439 C422 0.930 . S
H440 C429 0.930 . S
H441 C431 0.931 . S
H442 C432 0.930 . S
H443 C433 0.930 . S
Tb444 N475 2.660 . S
Tb444 N482 2.600 . S
Tb444 O488 2.546 . S
Tb444 O489 2.610 . S
Tb444 O491 2.320 . S
Tb444 O492 2.552 . S
Tb444 O493 2.413 . S
Tb444 O495 2.362 . S
Tb444 O496 2.421 . S
Tb444 C508 2.833 . S
C445 C448 1.432 . S
C445 C449 1.414 . S
C445 N452 1.359 . S
C446 C448 1.417 . S
C446 C450 1.432 . S
C446 C458 1.410 . S
C447 C449 1.444 . S
C447 C450 1.317 . S
C447 H470 0.929 . S
C448 C445 1.432 . S
C448 C446 1.417 . S
C448 N456 1.360 . S
C449 C445 1.414 . S
C449 C447 1.444 . S
C449 C454 1.385 . S
C450 C446 1.432 . S
C450 C447 1.317 . S
C450 H462 0.930 . S
C451 C453 1.392 . S
C451 C454 1.370 . S
C451 H463 0.931 . S
N452 C445 1.359 . S
N452 C453 1.327 . S
N452 Tb455 2.600 . S
C453 C451 1.392 . S
C453 N452 1.327 . S
C453 H460 0.930 . S
C454 C449 1.385 . S
C454 C451 1.370 . S
C454 H473 0.930 . S
Tb455 N452 2.600 . S
Tb455 N456 2.660 . S
Tb455 O489 2.362 . S
Tb455 O490 2.421 . S
Tb455 O494 2.546 . S
Tb455 O495 2.610 . S
Tb455 O497 2.320 . S
Tb455 O498 2.552 . S
Tb455 O499 2.413 . S
Tb455 C519 2.833 . S
N456 C448 1.360 . S
N456 Tb455 2.660 . S
N456 C457 1.305 . S
C457 N456 1.305 . S
C457 C459 1.407 . S
C457 H464 0.930 . S
C458 C446 1.410 . S
C458 C459 1.345 . S
C458 H466 0.930 . S
C459 C457 1.407 . S
C459 C458 1.345 . S
C459 H461 0.930 . S
H460 C453 0.930 . S
H461 C459 0.930 . S
H462 C450 0.930 . S
H463 C451 0.931 . S
H464 C457 0.930 . S
H465 C479 0.930 . S
H466 C458 0.930 . S
H467 C485 0.930 . S
H468 C476 0.930 . S
H469 C483 0.931 . S
H470 C447 0.929 . S
H471 C477 0.930 . S
H472 C510 0.930 . S
H473 C454 0.930 . S
H474 C509 0.929 . S
N475 Tb444 2.660 . S
N475 C476 1.305 . S
N475 C480 1.360 . S
C476 H468 0.930 . S
C476 N475 1.305 . S
C476 C479 1.407 . S
C477 H471 0.930 . S
C477 C478 1.410 . S
C477 C479 1.345 . S
C478 C477 1.410 . S
C478 C480 1.417 . S
C478 C510 1.432 . S
C479 H465 0.930 . S
C479 C476 1.407 . S
C479 C477 1.345 . S
C480 N475 1.360 . S
C480 C478 1.417 . S
C480 C484 1.432 . S
H481 C486 0.930 . S
N482 Tb444 2.600 . S
N482 C484 1.359 . S
N482 C485 1.327 . S
C483 H469 0.931 . S
C483 C485 1.392 . S
C483 C486 1.370 . S
C484 C480 1.432 . S
C484 N482 1.359 . S
C484 C487 1.414 . S
C485 H467 0.930 . S
C485 N482 1.327 . S
C485 C483 1.392 . S
C486 H481 0.930 . S
C486 C483 1.370 . S
C486 C487 1.385 . S
C487 C484 1.414 . S
C487 C486 1.385 . S
C487 C509 1.444 . S
O488 Tb444 2.546 . S
O488 C508 1.251 . S
O489 Tb444 2.610 . S
O489 Tb455 2.362 . S
O489 C500 1.283 . S
O490 Tb455 2.421 . S
O490 C507 1.262 . S
O491 Tb444 2.320 . S
O491 C507 1.260 . S
O492 Tb444 2.552 . S
O492 C500 1.243 . S
O493 Tb444 2.413 . S
O493 C508 1.256 . S
O494 Tb455 2.546 . S
O494 C519 1.251 . S
O495 Tb444 2.362 . S
O495 Tb455 2.610 . S
O495 C511 1.283 . S
O496 Tb444 2.421 . S
O496 C518 1.262 . S
O497 Tb455 2.320 . S
O497 C518 1.260 . S
O498 Tb455 2.552 . S
O498 C511 1.243 . S
O499 Tb455 2.413 . S
O499 C519 1.256 . S
C500 O489 1.283 . S
C500 O492 1.243 . S
C501 C503 1.382 . S
C501 C505 1.393 . S
C501 C508 1.500 . S
C502 C503 1.400 . S
C502 C504 1.384 . S
C503 C501 1.382 . S
C503 C502 1.400 . S
C503 H520 0.930 . S
C504 C502 1.384 . S
C504 C506 1.392 . S
C504 H521 0.931 . S
C505 C501 1.393 . S
C505 C506 1.401 . S
C505 H522 0.930 . S
C506 C504 1.392 . S
C506 C505 1.401 . S
C506 H523 0.930 . S
C507 O490 1.262 . S
C507 O491 1.260 . S
C508 Tb444 2.833 . S
C508 O488 1.251 . S
C508 O493 1.256 . S
C508 C501 1.500 . S
C509 H474 0.929 . S
C509 C487 1.444 . S
C509 C510 1.317 . S
C510 H472 0.930 . S
C510 C478 1.432 . S
C510 C509 1.317 . S
C511 O495 1.283 . S
C511 O498 1.243 . S
C512 C513 1.382 . S
C512 C516 1.393 . S
C512 C519 1.500 . S
C513 C512 1.382 . S
C513 C514 1.400 . S
C513 H524 0.930 . S
C514 C513 1.400 . S
C514 C515 1.384 . S
C515 C514 1.384 . S
C515 C517 1.392 . S
C515 H525 0.931 . S
C516 C512 1.393 . S
C516 C517 1.401 . S
C516 H526 0.930 . S
C517 C515 1.392 . S
C517 C516 1.401 . S
C517 H527 0.930 . S
C518 O496 1.262 . S
C518 O497 1.260 . S
C519 Tb455 2.833 . S
C519 O494 1.251 . S
C519 O499 1.256 . S
C519 C512 1.500 . S
H520 C503 0.930 . S
H521 C504 0.931 . S
H522 C505 0.930 . S
H523 C506 0.930 . S
H524 C513 0.930 . S
H525 C515 0.931 . S
H526 C516 0.930 . S
H527 C517 0.930 . S
Tb528 N559 2.660 . S
Tb528 N566 2.600 . S
Tb528 O572 2.546 . S
Tb528 O573 2.610 . S
Tb528 O575 2.320 . S
Tb528 O576 2.552 . S
Tb528 O577 2.413 . S
Tb528 O579 2.362 . S
Tb528 O580 2.421 . S
Tb528 C592 2.833 . S
C529 C532 1.432 . S
C529 C533 1.414 . S
C529 N536 1.359 . S
C530 C532 1.417 . S
C530 C534 1.432 . S
C530 C542 1.410 . S
C531 C533 1.444 . S
C531 C534 1.317 . S
C531 H554 0.929 . S
C532 C529 1.432 . S
C532 C530 1.417 . S
C532 N540 1.360 . S
C533 C529 1.414 . S
C533 C531 1.444 . S
C533 C538 1.385 . S
C534 C530 1.432 . S
C534 C531 1.317 . S
C534 H546 0.930 . S
C535 C537 1.392 . S
C535 C538 1.370 . S
C535 H547 0.931 . S
N536 C529 1.359 . S
N536 C537 1.327 . S
N536 Tb539 2.600 . S
C537 C535 1.392 . S
C537 N536 1.327 . S
C537 H544 0.930 . S
C538 C533 1.385 . S
C538 C535 1.370 . S
C538 H557 0.930 . S
Tb539 N536 2.600 . S
Tb539 N540 2.660 . S
Tb539 O573 2.362 . S
Tb539 O574 2.421 . S
Tb539 O578 2.546 . S
Tb539 O579 2.610 . S
Tb539 O581 2.320 . S
Tb539 O582 2.552 . S
Tb539 O583 2.413 . S
Tb539 C603 2.833 . S
N540 C532 1.360 . S
N540 Tb539 2.660 . S
N540 C541 1.305 . S
C541 N540 1.305 . S
C541 C543 1.407 . S
C541 H548 0.930 . S
C542 C530 1.410 . S
C542 C543 1.345 . S
C542 H550 0.930 . S
C543 C541 1.407 . S
C543 C542 1.345 . S
C543 H545 0.930 . S
H544 C537 0.930 . S
H545 C543 0.930 . S
H546 C534 0.930 . S
H547 C535 0.931 . S
H548 C541 0.930 . S
H549 C563 0.930 . S
H550 C542 0.930 . S
H551 C569 0.930 . S
H552 C560 0.930 . S
H553 C567 0.931 . S
H554 C531 0.929 . S
H555 C561 0.930 . S
H556 C594 0.930 . S
H557 C538 0.930 . S
H558 C593 0.929 . S
N559 Tb528 2.660 . S
N559 C560 1.305 . S
N559 C564 1.360 . S
C560 H552 0.930 . S
C560 N559 1.305 . S
C560 C563 1.407 . S
C561 H555 0.930 . S
C561 C562 1.410 . S
C561 C563 1.345 . S
C562 C561 1.410 . S
C562 C564 1.417 . S
C562 C594 1.432 . S
C563 H549 0.930 . S
C563 C560 1.407 . S
C563 C561 1.345 . S
C564 N559 1.360 . S
C564 C562 1.417 . S
C564 C568 1.432 . S
H565 C570 0.930 . S
N566 Tb528 2.600 . S
N566 C568 1.359 . S
N566 C569 1.327 . S
C567 H553 0.931 . S
C567 C569 1.392 . S
C567 C570 1.370 . S
C568 C564 1.432 . S
C568 N566 1.359 . S
C568 C571 1.414 . S
C569 H551 0.930 . S
C569 N566 1.327 . S
C569 C567 1.392 . S
C570 H565 0.930 . S
C570 C567 1.370 . S
C570 C571 1.385 . S
C571 C568 1.414 . S
C571 C570 1.385 . S
C571 C593 1.444 . S
O572 Tb528 2.546 . S
O572 C592 1.251 . S
O573 Tb528 2.610 . S
O573 Tb539 2.362 . S
O573 C584 1.283 . S
O574 Tb539 2.421 . S
O574 C591 1.262 . S
O575 Tb528 2.320 . S
O575 C591 1.260 . S
O576 Tb528 2.552 . S
O576 C584 1.243 . S
O577 Tb528 2.413 . S
O577 C592 1.256 . S
O578 Tb539 2.546 . S
O578 C603 1.251 . S
O579 Tb528 2.362 . S
O579 Tb539 2.610 . S
O579 C595 1.283 . S
O580 Tb528 2.421 . S
O580 C602 1.262 . S
O581 Tb539 2.320 . S
O581 C602 1.260 . S
O582 Tb539 2.552 . S
O582 C595 1.243 . S
O583 Tb539 2.413 . S
O583 C603 1.256 . S
C584 O573 1.283 . S
C584 O576 1.243 . S
C585 C587 1.382 . S
C585 C589 1.393 . S
C585 C592 1.500 . S
C586 C587 1.400 . S
C586 C588 1.384 . S
C587 C585 1.382 . S
C587 C586 1.400 . S
C587 H604 0.930 . S
C588 C586 1.384 . S
C588 C590 1.392 . S
C588 H605 0.931 . S
C589 C585 1.393 . S
C589 C590 1.401 . S
C589 H606 0.930 . S
C590 C588 1.392 . S
C590 C589 1.401 . S
C590 H607 0.930 . S
C591 O574 1.262 . S
C591 O575 1.260 . S
C592 Tb528 2.833 . S
C592 O572 1.251 . S
C592 O577 1.256 . S
C592 C585 1.500 . S
C593 H558 0.929 . S
C593 C571 1.444 . S
C593 C594 1.317 . S
C594 H556 0.930 . S
C594 C562 1.432 . S
C594 C593 1.317 . S
C595 O579 1.283 . S
C595 O582 1.243 . S
C596 C597 1.382 . S
C596 C600 1.393 . S
C596 C603 1.500 . S
C597 C596 1.382 . S
C597 C598 1.400 . S
C597 H608 0.930 . S
C598 C597 1.400 . S
C598 C599 1.384 . S
C599 C598 1.384 . S
C599 C601 1.392 . S
C599 H609 0.931 . S
C600 C596 1.393 . S
C600 C601 1.401 . S
C600 H610 0.930 . S
C601 C599 1.392 . S
C601 C600 1.401 . S
C601 H611 0.930 . S
C602 O580 1.262 . S
C602 O581 1.260 . S
C603 Tb539 2.833 . S
C603 O578 1.251 . S
C603 O583 1.256 . S
C603 C596 1.500 . S
H604 C587 0.930 . S
H605 C588 0.931 . S
H606 C589 0.930 . S
H607 C590 0.930 . S
H608 C597 0.930 . S
H609 C599 0.931 . S
H610 C600 0.930 . S
H611 C601 0.930 . S
Tb612 N643 2.660 . S
Tb612 N650 2.600 . S
Tb612 O656 2.546 . S
Tb612 O657 2.610 . S
Tb612 O659 2.320 . S
Tb612 O660 2.552 . S
Tb612 O661 2.413 . S
Tb612 O663 2.362 . S
Tb612 O664 2.421 . S
Tb612 C676 2.833 . S
C613 C616 1.432 . S
C613 C617 1.414 . S
C613 N620 1.359 . S
C614 C616 1.417 . S
C614 C618 1.432 . S
C614 C626 1.410 . S
C615 C617 1.444 . S
C615 C618 1.317 . S
C615 H638 0.929 . S
C616 C613 1.432 . S
C616 C614 1.417 . S
C616 N624 1.360 . S
C617 C613 1.414 . S
C617 C615 1.444 . S
C617 C622 1.385 . S
C618 C614 1.432 . S
C618 C615 1.317 . S
C618 H630 0.930 . S
C619 C621 1.392 . S
C619 C622 1.370 . S
C619 H631 0.931 . S
N620 C613 1.359 . S
N620 C621 1.327 . S
N620 Tb623 2.600 . S
C621 C619 1.392 . S
C621 N620 1.327 . S
C621 H628 0.930 . S
C622 C617 1.385 . S
C622 C619 1.370 . S
C622 H641 0.930 . S
Tb623 N620 2.600 . S
Tb623 N624 2.660 . S
Tb623 O657 2.362 . S
Tb623 O658 2.421 . S
Tb623 O662 2.546 . S
Tb623 O663 2.610 . S
Tb623 O665 2.320 . S
Tb623 O666 2.552 . S
Tb623 O667 2.413 . S
Tb623 C687 2.833 . S
N624 C616 1.360 . S
N624 Tb623 2.660 . S
N624 C625 1.305 . S
C625 N624 1.305 . S
C625 C627 1.407 . S
C625 H632 0.930 . S
C626 C614 1.410 . S
C626 C627 1.345 . S
C626 H634 0.930 . S
C627 C625 1.407 . S
C627 C626 1.345 . S
C627 H629 0.930 . S
H628 C621 0.930 . S
H629 C627 0.930 . S
H630 C618 0.930 . S
H631 C619 0.931 . S
H632 C625 0.930 . S
H633 C647 0.930 . S
H634 C626 0.930 . S
H635 C653 0.930 . S
H636 C644 0.930 . S
H637 C651 0.931 . S
H638 C615 0.929 . S
H639 C645 0.930 . S
H640 C678 0.930 . S
H641 C622 0.930 . S
H642 C677 0.929 . S
N643 Tb612 2.660 . S
N643 C644 1.305 . S
N643 C648 1.360 . S
C644 H636 0.930 . S
C644 N643 1.305 . S
C644 C647 1.407 . S
C645 H639 0.930 . S
C645 C646 1.410 . S
C645 C647 1.345 . S
C646 C645 1.410 . S
C646 C648 1.417 . S
C646 C678 1.432 . S
C647 H633 0.930 . S
C647 C644 1.407 . S
C647 C645 1.345 . S
C648 N643 1.360 . S
C648 C646 1.417 . S
C648 C652 1.432 . S
H649 C654 0.930 . S
N650 Tb612 2.600 . S
N650 C652 1.359 . S
N650 C653 1.327 . S
C651 H637 0.931 . S
C651 C653 1.392 . S
C651 C654 1.370 . S
C652 C648 1.432 . S
C652 N650 1.359 . S
C652 C655 1.414 . S
C653 H635 0.930 . S
C653 N650 1.327 . S
C653 C651 1.392 . S
C654 H649 0.930 . S
C654 C651 1.370 . S
C654 C655 1.385 . S
C655 C652 1.414 . S
C655 C654 1.385 . S
C655 C677 1.444 . S
O656 Tb612 2.546 . S
O656 C676 1.251 . S
O657 Tb612 2.610 . S
O657 Tb623 2.362 . S
O657 C668 1.283 . S
O658 Tb623 2.421 . S
O658 C675 1.262 . S
O659 Tb612 2.320 . S
O659 C675 1.260 . S
O660 Tb612 2.552 . S
O660 C668 1.243 . S
O661 Tb612 2.413 . S
O661 C676 1.256 . S
O662 Tb623 2.546 . S
O662 C687 1.251 . S
O663 Tb612 2.362 . S
O663 Tb623 2.610 . S
O663 C679 1.283 . S
O664 Tb612 2.421 . S
O664 C686 1.262 . S
O665 Tb623 2.320 . S
O665 C686 1.260 . S
O666 Tb623 2.552 . S
O666 C679 1.243 . S
O667 Tb623 2.413 . S
O667 C687 1.256 . S
C668 O657 1.283 . S
C668 O660 1.243 . S
C669 C671 1.382 . S
C669 C673 1.393 . S
C669 C676 1.500 . S
C670 C671 1.400 . S
C670 C672 1.384 . S
C671 C669 1.382 . S
C671 C670 1.400 . S
C671 H688 0.930 . S
C672 C670 1.384 . S
C672 C674 1.392 . S
C672 H689 0.931 . S
C673 C669 1.393 . S
C673 C674 1.401 . S
C673 H690 0.930 . S
C674 C672 1.392 . S
C674 C673 1.401 . S
C674 H691 0.930 . S
C675 O658 1.262 . S
C675 O659 1.260 . S
C676 Tb612 2.833 . S
C676 O656 1.251 . S
C676 O661 1.256 . S
C676 C669 1.500 . S
C677 H642 0.929 . S
C677 C655 1.444 . S
C677 C678 1.317 . S
C678 H640 0.930 . S
C678 C646 1.432 . S
C678 C677 1.317 . S
C679 O663 1.283 . S
C679 O666 1.243 . S
C680 C681 1.382 . S
C680 C684 1.393 . S
C680 C687 1.500 . S
C681 C680 1.382 . S
C681 C682 1.400 . S
C681 H692 0.930 . S
C682 C681 1.400 . S
C682 C683 1.384 . S
C683 C682 1.384 . S
C683 C685 1.392 . S
C683 H693 0.931 . S
C684 C680 1.393 . S
C684 C685 1.401 . S
C684 H694 0.930 . S
C685 C683 1.392 . S
C685 C684 1.401 . S
C685 H695 0.930 . S
C686 O664 1.262 . S
C686 O665 1.260 . S
C687 Tb623 2.833 . S
C687 O662 1.251 . S
C687 O667 1.256 . S
C687 C680 1.500 . S
H688 C671 0.930 . S
H689 C672 0.931 . S
H690 C673 0.930 . S
H691 C674 0.930 . S
H692 C681 0.930 . S
H693 C683 0.931 . S
H694 C684 0.930 . S
H695 C685 0.930 . S
Tb696 N727 2.660 . S
Tb696 N734 2.600 . S
Tb696 O740 2.546 . S
Tb696 O741 2.610 . S
Tb696 O743 2.320 . S
Tb696 O744 2.552 . S
Tb696 O745 2.413 . S
Tb696 O747 2.362 . S
Tb696 O748 2.421 . S
Tb696 C760 2.833 . S
C697 C700 1.432 . S
C697 C701 1.414 . S
C697 N704 1.359 . S
C698 C700 1.417 . S
C698 C702 1.432 . S
C698 C710 1.410 . S
C699 C701 1.444 . S
C699 C702 1.317 . S
C699 H722 0.929 . S
C700 C697 1.432 . S
C700 C698 1.417 . S
C700 N708 1.360 . S
C701 C697 1.414 . S
C701 C699 1.444 . S
C701 C706 1.385 . S
C702 C698 1.432 . S
C702 C699 1.317 . S
C702 H714 0.930 . S
C703 C705 1.392 . S
C703 C706 1.370 . S
C703 H715 0.931 . S
N704 C697 1.359 . S
N704 C705 1.327 . S
N704 Tb707 2.600 . S
C705 C703 1.392 . S
C705 N704 1.327 . S
C705 H712 0.930 . S
C706 C701 1.385 . S
C706 C703 1.370 . S
C706 H725 0.930 . S
Tb707 N704 2.600 . S
Tb707 N708 2.660 . S
Tb707 O741 2.362 . S
Tb707 O742 2.421 . S
Tb707 O746 2.546 . S
Tb707 O747 2.610 . S
Tb707 O749 2.320 . S
Tb707 O750 2.552 . S
Tb707 O751 2.413 . S
Tb707 C771 2.833 . S
N708 C700 1.360 . S
N708 Tb707 2.660 . S
N708 C709 1.305 . S
C709 N708 1.305 . S
C709 C711 1.407 . S
C709 H716 0.930 . S
C710 C698 1.410 . S
C710 C711 1.345 . S
C710 H718 0.930 . S
C711 C709 1.407 . S
C711 C710 1.345 . S
C711 H713 0.930 . S
H712 C705 0.930 . S
H713 C711 0.930 . S
H714 C702 0.930 . S
H715 C703 0.931 . S
H716 C709 0.930 . S
H717 C731 0.930 . S
H718 C710 0.930 . S
H719 C737 0.930 . S
H720 C728 0.930 . S
H721 C735 0.931 . S
H722 C699 0.929 . S
H723 C729 0.930 . S
H724 C762 0.930 . S
H725 C706 0.930 . S
H726 C761 0.929 . S
N727 Tb696 2.660 . S
N727 C728 1.305 . S
N727 C732 1.360 . S
C728 H720 0.930 . S
C728 N727 1.305 . S
C728 C731 1.407 . S
C729 H723 0.930 . S
C729 C730 1.410 . S
C729 C731 1.345 . S
C730 C729 1.410 . S
C730 C732 1.417 . S
C730 C762 1.432 . S
C731 H717 0.930 . S
C731 C728 1.407 . S
C731 C729 1.345 . S
C732 N727 1.360 . S
C732 C730 1.417 . S
C732 C736 1.432 . S
H733 C738 0.930 . S
N734 Tb696 2.600 . S
N734 C736 1.359 . S
N734 C737 1.327 . S
C735 H721 0.931 . S
C735 C737 1.392 . S
C735 C738 1.370 . S
C736 C732 1.432 . S
C736 N734 1.359 . S
C736 C739 1.414 . S
C737 H719 0.930 . S
C737 N734 1.327 . S
C737 C735 1.392 . S
C738 H733 0.930 . S
C738 C735 1.370 . S
C738 C739 1.385 . S
C739 C736 1.414 . S
C739 C738 1.385 . S
C739 C761 1.444 . S
O740 Tb696 2.546 . S
O740 C760 1.251 . S
O741 Tb696 2.610 . S
O741 Tb707 2.362 . S
O741 C752 1.283 . S
O742 Tb707 2.421 . S
O742 C759 1.262 . S
O743 Tb696 2.320 . S
O743 C759 1.260 . S
O744 Tb696 2.552 . S
O744 C752 1.243 . S
O745 Tb696 2.413 . S
O745 C760 1.256 . S
O746 Tb707 2.546 . S
O746 C771 1.251 . S
O747 Tb696 2.362 . S
O747 Tb707 2.610 . S
O747 C763 1.283 . S
O748 Tb696 2.421 . S
O748 C770 1.262 . S
O749 Tb707 2.320 . S
O749 C770 1.260 . S
O750 Tb707 2.552 . S
O750 C763 1.243 . S
O751 Tb707 2.413 . S
O751 C771 1.256 . S
C752 O741 1.283 . S
C752 O744 1.243 . S
C753 C755 1.382 . S
C753 C757 1.393 . S
C753 C760 1.500 . S
C754 C755 1.400 . S
C754 C756 1.384 . S
C755 C753 1.382 . S
C755 C754 1.400 . S
C755 H772 0.930 . S
C756 C754 1.384 . S
C756 C758 1.392 . S
C756 H773 0.931 . S
C757 C753 1.393 . S
C757 C758 1.401 . S
C757 H774 0.930 . S
C758 C756 1.392 . S
C758 C757 1.401 . S
C758 H775 0.930 . S
C759 O742 1.262 . S
C759 O743 1.260 . S
C760 Tb696 2.833 . S
C760 O740 1.251 . S
C760 O745 1.256 . S
C760 C753 1.500 . S
C761 H726 0.929 . S
C761 C739 1.444 . S
C761 C762 1.317 . S
C762 H724 0.930 . S
C762 C730 1.432 . S
C762 C761 1.317 . S
C763 O747 1.283 . S
C763 O750 1.243 . S
C764 C765 1.382 . S
C764 C768 1.393 . S
C764 C771 1.500 . S
C765 C764 1.382 . S
C765 C766 1.400 . S
C765 H776 0.930 . S
C766 C765 1.400 . S
C766 C767 1.384 . S
C767 C766 1.384 . S
C767 C769 1.392 . S
C767 H777 0.931 . S
C768 C764 1.393 . S
C768 C769 1.401 . S
C768 H778 0.930 . S
C769 C767 1.392 . S
C769 C768 1.401 . S
C769 H779 0.930 . S
C770 O748 1.262 . S
C770 O749 1.260 . S
C771 Tb707 2.833 . S
C771 O746 1.251 . S
C771 O751 1.256 . S
C771 C764 1.500 . S
H772 C755 0.930 . S
H773 C756 0.931 . S
H774 C757 0.930 . S
H775 C758 0.930 . S
H776 C765 0.930 . S
H777 C767 0.931 . S
H778 C768 0.930 . S
H779 C769 0.930 . S
Tb780 N811 2.660 . S
Tb780 N818 2.600 . S
Tb780 O824 2.546 . S
Tb780 O825 2.610 . S
Tb780 O827 2.320 . S
Tb780 O828 2.552 . S
Tb780 O829 2.413 . S
Tb780 O831 2.362 . S
Tb780 O832 2.421 . S
Tb780 C844 2.833 . S
C781 C784 1.432 . S
C781 C785 1.414 . S
C781 N788 1.359 . S
C782 C784 1.417 . S
C782 C786 1.432 . S
C782 C794 1.410 . S
C783 C785 1.444 . S
C783 C786 1.317 . S
C783 H806 0.929 . S
C784 C781 1.432 . S
C784 C782 1.417 . S
C784 N792 1.360 . S
C785 C781 1.414 . S
C785 C783 1.444 . S
C785 C790 1.385 . S
C786 C782 1.432 . S
C786 C783 1.317 . S
C786 H798 0.930 . S
C787 C789 1.392 . S
C787 C790 1.370 . S
C787 H799 0.931 . S
N788 C781 1.359 . S
N788 C789 1.327 . S
N788 Tb791 2.600 . S
C789 C787 1.392 . S
C789 N788 1.327 . S
C789 H796 0.930 . S
C790 C785 1.385 . S
C790 C787 1.370 . S
C790 H809 0.930 . S
Tb791 N788 2.600 . S
Tb791 N792 2.660 . S
Tb791 O825 2.362 . S
Tb791 O826 2.421 . S
Tb791 O830 2.546 . S
Tb791 O831 2.610 . S
Tb791 O833 2.320 . S
Tb791 O834 2.552 . S
Tb791 O835 2.413 . S
Tb791 C855 2.833 . S
N792 C784 1.360 . S
N792 Tb791 2.660 . S
N792 C793 1.305 . S
C793 N792 1.305 . S
C793 C795 1.407 . S
C793 H800 0.930 . S
C794 C782 1.410 . S
C794 C795 1.345 . S
C794 H802 0.930 . S
C795 C793 1.407 . S
C795 C794 1.345 . S
C795 H797 0.930 . S
H796 C789 0.930 . S
H797 C795 0.930 . S
H798 C786 0.930 . S
H799 C787 0.931 . S
H800 C793 0.930 . S
H801 C815 0.930 . S
H802 C794 0.930 . S
H803 C821 0.930 . S
H804 C812 0.930 . S
H805 C819 0.931 . S
H806 C783 0.929 . S
H807 C813 0.930 . S
H808 C846 0.930 . S
H809 C790 0.930 . S
H810 C845 0.929 . S
N811 Tb780 2.660 . S
N811 C812 1.305 . S
N811 C816 1.360 . S
C812 H804 0.930 . S
C812 N811 1.305 . S
C812 C815 1.407 . S
C813 H807 0.930 . S
C813 C814 1.410 . S
C813 C815 1.345 . S
C814 C813 1.410 . S
C814 C816 1.417 . S
C814 C846 1.432 . S
C815 H801 0.930 . S
C815 C812 1.407 . S
C815 C813 1.345 . S
C816 N811 1.360 . S
C816 C814 1.417 . S
C816 C820 1.432 . S
H817 C822 0.930 . S
N818 Tb780 2.600 . S
N818 C820 1.359 . S
N818 C821 1.327 . S
C819 H805 0.931 . S
C819 C821 1.392 . S
C819 C822 1.370 . S
C820 C816 1.432 . S
C820 N818 1.359 . S
C820 C823 1.414 . S
C821 H803 0.930 . S
C821 N818 1.327 . S
C821 C819 1.392 . S
C822 H817 0.930 . S
C822 C819 1.370 . S
C822 C823 1.385 . S
C823 C820 1.414 . S
C823 C822 1.385 . S
C823 C845 1.444 . S
O824 Tb780 2.546 . S
O824 C844 1.251 . S
O825 Tb780 2.610 . S
O825 Tb791 2.362 . S
O825 C836 1.283 . S
O826 Tb791 2.421 . S
O826 C843 1.262 . S
O827 Tb780 2.320 . S
O827 C843 1.260 . S
O828 Tb780 2.552 . S
O828 C836 1.243 . S
O829 Tb780 2.413 . S
O829 C844 1.256 . S
O830 Tb791 2.546 . S
O830 C855 1.251 . S
O831 Tb780 2.362 . S
O831 Tb791 2.610 . S
O831 C847 1.283 . S
O832 Tb780 2.421 . S
O832 C854 1.262 . S
O833 Tb791 2.320 . S
O833 C854 1.260 . S
O834 Tb791 2.552 . S
O834 C847 1.243 . S
O835 Tb791 2.413 . S
O835 C855 1.256 . S
C836 O825 1.283 . S
C836 O828 1.243 . S
C837 C839 1.382 . S
C837 C841 1.393 . S
C837 C844 1.500 . S
C838 C839 1.400 . S
C838 C840 1.384 . S
C839 C837 1.382 . S
C839 C838 1.400 . S
C839 H856 0.930 . S
C840 C838 1.384 . S
C840 C842 1.392 . S
C840 H857 0.931 . S
C841 C837 1.393 . S
C841 C842 1.401 . S
C841 H858 0.930 . S
C842 C840 1.392 . S
C842 C841 1.401 . S
C842 H859 0.930 . S
C843 O826 1.262 . S
C843 O827 1.260 . S
C844 Tb780 2.833 . S
C844 O824 1.251 . S
C844 O829 1.256 . S
C844 C837 1.500 . S
C845 H810 0.929 . S
C845 C823 1.444 . S
C845 C846 1.317 . S
C846 H808 0.930 . S
C846 C814 1.432 . S
C846 C845 1.317 . S
C847 O831 1.283 . S
C847 O834 1.243 . S
C848 C849 1.382 . S
C848 C852 1.393 . S
C848 C855 1.500 . S
C849 C848 1.382 . S
C849 C850 1.400 . S
C849 H860 0.930 . S
C850 C849 1.400 . S
C850 C851 1.384 . S
C851 C850 1.384 . S
C851 C853 1.392 . S
C851 H861 0.931 . S
C852 C848 1.393 . S
C852 C853 1.401 . S
C852 H862 0.930 . S
C853 C851 1.392 . S
C853 C852 1.401 . S
C853 H863 0.930 . S
C854 O832 1.262 . S
C854 O833 1.260 . S
C855 Tb791 2.833 . S
C855 O830 1.251 . S
C855 O835 1.256 . S
C855 C848 1.500 . S
H856 C839 0.930 . S
H857 C840 0.931 . S
H858 C841 0.930 . S
H859 C842 0.930 . S
H860 C849 0.930 . S
H861 C851 0.931 . S
H862 C852 0.930 . S
H863 C853 0.930 . S
Tb864 N895 2.660 . S
Tb864 N902 2.600 . S
Tb864 O908 2.546 . S
Tb864 O909 2.610 . S
Tb864 O911 2.320 . S
Tb864 O912 2.552 . S
Tb864 O913 2.413 . S
Tb864 O915 2.362 . S
Tb864 O916 2.421 . S
Tb864 C928 2.833 . S
C865 C868 1.432 . S
C865 C869 1.414 . S
C865 N872 1.359 . S
C866 C868 1.417 . S
C866 C870 1.432 . S
C866 C878 1.410 . S
C867 C869 1.444 . S
C867 C870 1.317 . S
C867 H890 0.929 . S
C868 C865 1.432 . S
C868 C866 1.417 . S
C868 N876 1.360 . S
C869 C865 1.414 . S
C869 C867 1.444 . S
C869 C874 1.385 . S
C870 C866 1.432 . S
C870 C867 1.317 . S
C870 H882 0.930 . S
C871 C873 1.392 . S
C871 C874 1.370 . S
C871 H883 0.931 . S
N872 C865 1.359 . S
N872 C873 1.327 . S
N872 Tb875 2.600 . S
C873 C871 1.392 . S
C873 N872 1.327 . S
C873 H880 0.930 . S
C874 C869 1.385 . S
C874 C871 1.370 . S
C874 H893 0.930 . S
Tb875 N872 2.600 . S
Tb875 N876 2.660 . S
Tb875 O909 2.362 . S
Tb875 O910 2.421 . S
Tb875 O914 2.546 . S
Tb875 O915 2.610 . S
Tb875 O917 2.320 . S
Tb875 O918 2.552 . S
Tb875 O919 2.413 . S
Tb875 C939 2.833 . S
N876 C868 1.360 . S
N876 Tb875 2.660 . S
N876 C877 1.305 . S
C877 N876 1.305 . S
C877 C879 1.407 . S
C877 H884 0.930 . S
C878 C866 1.410 . S
C878 C879 1.345 . S
C878 H886 0.930 . S
C879 C877 1.407 . S
C879 C878 1.345 . S
C879 H881 0.930 . S
H880 C873 0.930 . S
H881 C879 0.930 . S
H882 C870 0.930 . S
H883 C871 0.931 . S
H884 C877 0.930 . S
H885 C899 0.930 . S
H886 C878 0.930 . S
H887 C905 0.930 . S
H888 C896 0.930 . S
H889 C903 0.931 . S
H890 C867 0.929 . S
H891 C897 0.930 . S
H892 C930 0.930 . S
H893 C874 0.930 . S
H894 C929 0.929 . S
N895 Tb864 2.660 . S
N895 C896 1.305 . S
N895 C900 1.360 . S
C896 H888 0.930 . S
C896 N895 1.305 . S
C896 C899 1.407 . S
C897 H891 0.930 . S
C897 C898 1.410 . S
C897 C899 1.345 . S
C898 C897 1.410 . S
C898 C900 1.417 . S
C898 C930 1.432 . S
C899 H885 0.930 . S
C899 C896 1.407 . S
C899 C897 1.345 . S
C900 N895 1.360 . S
C900 C898 1.417 . S
C900 C904 1.432 . S
H901 C906 0.930 . S
N902 Tb864 2.600 . S
N902 C904 1.359 . S
N902 C905 1.327 . S
C903 H889 0.931 . S
C903 C905 1.392 . S
C903 C906 1.370 . S
C904 C900 1.432 . S
C904 N902 1.359 . S
C904 C907 1.414 . S
C905 H887 0.930 . S
C905 N902 1.327 . S
C905 C903 1.392 . S
C906 H901 0.930 . S
C906 C903 1.370 . S
C906 C907 1.385 . S
C907 C904 1.414 . S
C907 C906 1.385 . S
C907 C929 1.444 . S
O908 Tb864 2.546 . S
O908 C928 1.251 . S
O909 Tb864 2.610 . S
O909 Tb875 2.362 . S
O909 C920 1.283 . S
O910 Tb875 2.421 . S
O910 C927 1.262 . S
O911 Tb864 2.320 . S
O911 C927 1.260 . S
O912 Tb864 2.552 . S
O912 C920 1.243 . S
O913 Tb864 2.413 . S
O913 C928 1.256 . S
O914 Tb875 2.546 . S
O914 C939 1.251 . S
O915 Tb864 2.362 . S
O915 Tb875 2.610 . S
O915 C931 1.283 . S
O916 Tb864 2.421 . S
O916 C938 1.262 . S
O917 Tb875 2.320 . S
O917 C938 1.260 . S
O918 Tb875 2.552 . S
O918 C931 1.243 . S
O919 Tb875 2.413 . S
O919 C939 1.256 . S
C920 O909 1.283 . S
C920 O912 1.243 . S
C921 C923 1.382 . S
C921 C925 1.393 . S
C921 C928 1.500 . S
C922 C923 1.400 . S
C922 C924 1.384 . S
C923 C921 1.382 . S
C923 C922 1.400 . S
C923 H940 0.930 . S
C924 C922 1.384 . S
C924 C926 1.392 . S
C924 H941 0.931 . S
C925 C921 1.393 . S
C925 C926 1.401 . S
C925 H942 0.930 . S
C926 C924 1.392 . S
C926 C925 1.401 . S
C926 H943 0.930 . S
C927 O910 1.262 . S
C927 O911 1.260 . S
C928 Tb864 2.833 . S
C928 O908 1.251 . S
C928 O913 1.256 . S
C928 C921 1.500 . S
C929 H894 0.929 . S
C929 C907 1.444 . S
C929 C930 1.317 . S
C930 H892 0.930 . S
C930 C898 1.432 . S
C930 C929 1.317 . S
C931 O915 1.283 . S
C931 O918 1.243 . S
C932 C933 1.382 . S
C932 C936 1.393 . S
C932 C939 1.500 . S
C933 C932 1.382 . S
C933 C934 1.400 . S
C933 H944 0.930 . S
C934 C933 1.400 . S
C934 C935 1.384 . S
C935 C934 1.384 . S
C935 C937 1.392 . S
C935 H945 0.931 . S
C936 C932 1.393 . S
C936 C937 1.401 . S
C936 H946 0.930 . S
C937 C935 1.392 . S
C937 C936 1.401 . S
C937 H947 0.930 . S
C938 O916 1.262 . S
C938 O917 1.260 . S
C939 Tb875 2.833 . S
C939 O914 1.251 . S
C939 O919 1.256 . S
C939 C932 1.500 . S
H940 C923 0.930 . S
H941 C924 0.931 . S
H942 C925 0.930 . S
H943 C926 0.930 . S
H944 C933 0.930 . S
H945 C935 0.931 . S
H946 C936 0.930 . S
H947 C937 0.930 . S
H948 C954 0.930 . S
H949 C958 0.930 . S
H950 C963 0.929 . S
H951 C961 0.929 . S
H952 C956 0.929 . S
H953 C962 0.929 . S
C954 H948 0.930 . S
C954 C955 1.367 . S
C954 C962 1.378 . S
C955 C954 1.367 . S
C955 C963 1.433 . S
C956 H952 0.929 . S
C956 C958 1.378 . S
C956 C960 1.350 . S
C957 C960 1.463 . S
C957 C962 1.350 . S
C957 N965 1.427 . S
C958 H949 0.930 . S
C958 C956 1.378 . S
C958 C959 1.367 . S
C959 C958 1.367 . S
C959 C961 1.433 . S
C960 C956 1.350 . S
C960 C957 1.463 . S
C960 N964 1.427 . S
C961 H951 0.929 . S
C961 C959 1.433 . S
C961 N964 1.384 . S
C962 H953 0.929 . S
C962 C954 1.378 . S
C962 C957 1.350 . S
C963 H950 0.929 . S
C963 C955 1.433 . S
C963 N965 1.384 . S
N964 C960 1.427 . S
N964 C961 1.384 . S
N965 C957 1.427 . S
N965 C963 1.384 . S
H966 C972 0.930 . S
H967 C976 0.930 . S
H968 C981 0.929 . S
H969 C979 0.929 . S
H970 C974 0.929 . S
H971 C980 0.929 . S
C972 H966 0.930 . S
C972 C973 1.367 . S
C972 C980 1.378 . S
C973 C972 1.367 . S
C973 C981 1.433 . S
C974 H970 0.929 . S
C974 C976 1.378 . S
C974 C978 1.350 . S
C975 C978 1.463 . S
C975 C980 1.350 . S
C975 N983 1.427 . S
C976 H967 0.930 . S
C976 C974 1.378 . S
C976 C977 1.367 . S
C977 C976 1.367 . S
C977 C979 1.433 . S
C978 C974 1.350 . S
C978 C975 1.463 . S
C978 N982 1.427 . S
C979 H969 0.929 . S
C979 C977 1.433 . S
C979 N982 1.384 . S
C980 H971 0.929 . S
C980 C972 1.378 . S
C980 C975 1.350 . S
C981 H968 0.929 . S
C981 C973 1.433 . S
C981 N983 1.384 . S
N982 C978 1.427 . S
N982 C979 1.384 . S
N983 C975 1.427 . S
N983 C981 1.384 . S
H984 C990 0.930 . S
H985 C994 0.930 . S
H986 C999 0.929 . S
H987 C997 0.929 . S
H988 C992 0.929 . S
H989 C998 0.929 . S
C990 H984 0.930 . S
C990 C991 1.367 . S
C990 C998 1.378 . S
C991 C990 1.367 . S
C991 C999 1.433 . S
C992 H988 0.929 . S
C992 C994 1.378 . S
C992 C996 1.350 . S
C993 C996 1.463 . S
C993 C998 1.350 . S
C993 N1001 1.427 . S
C994 H985 0.930 . S
C994 C992 1.378 . S
C994 C995 1.367 . S
C995 C994 1.367 . S
C995 C997 1.433 . S
C996 C992 1.350 . S
C996 C993 1.463 . S
C996 N1000 1.427 . S
C997 H987 0.929 . S
C997 C995 1.433 . S
C997 N1000 1.384 . S
C998 H989 0.929 . S
C998 C990 1.378 . S
C998 C993 1.350 . S
C999 H986 0.929 . S
C999 C991 1.433 . S
C999 N1001 1.384 . S
N1000 C996 1.427 . S
N1000 C997 1.384 . S
N1001 C993 1.427 . S
N1001 C999 1.384 . S
H1002 C1008 0.930 . S
H1003 C1012 0.930 . S
H1004 C1017 0.929 . S
H1005 C1015 0.929 . S
H1006 C1010 0.929 . S
H1007 C1016 0.929 . S
C1008 H1002 0.930 . S
C1008 C1009 1.367 . S
C1008 C1016 1.378 . S
C1009 C1008 1.367 . S
C1009 C1017 1.433 . S
C1010 H1006 0.929 . S
C1010 C1012 1.378 . S
C1010 C1014 1.350 . S
C1011 C1014 1.463 . S
C1011 C1016 1.350 . S
C1011 N1019 1.427 . S
C1012 H1003 0.930 . S
C1012 C1010 1.378 . S
C1012 C1013 1.367 . S
C1013 C1012 1.367 . S
C1013 C1015 1.433 . S
C1014 C1010 1.350 . S
C1014 C1011 1.463 . S
C1014 N1018 1.427 . S
C1015 H1005 0.929 . S
C1015 C1013 1.433 . S
C1015 N1018 1.384 . S
C1016 H1007 0.929 . S
C1016 C1008 1.378 . S
C1016 C1011 1.350 . S
C1017 H1004 0.929 . S
C1017 C1009 1.433 . S
C1017 N1019 1.384 . S
N1018 C1014 1.427 . S
N1018 C1015 1.384 . S
N1019 C1011 1.427 . S
N1019 C1017 1.384 . S
H1020 C1026 0.930 . S
H1021 C1030 0.930 . S
H1022 C1035 0.929 . S
H1023 C1033 0.929 . S
H1024 C1028 0.929 . S
H1025 C1034 0.929 . S
C1026 H1020 0.930 . S
C1026 C1027 1.367 . S
C1026 C1034 1.378 . S
C1027 C1026 1.367 . S
C1027 C1035 1.433 . S
C1028 H1024 0.929 . S
C1028 C1030 1.378 . S
C1028 C1032 1.350 . S
C1029 C1032 1.463 . S
C1029 C1034 1.350 . S
C1029 N1037 1.427 . S
C1030 H1021 0.930 . S
C1030 C1028 1.378 . S
C1030 C1031 1.367 . S
C1031 C1030 1.367 . S
C1031 C1033 1.433 . S
C1032 C1028 1.350 . S
C1032 C1029 1.463 . S
C1032 N1036 1.427 . S
C1033 H1023 0.929 . S
C1033 C1031 1.433 . S
C1033 N1036 1.384 . S
C1034 H1025 0.929 . S
C1034 C1026 1.378 . S
C1034 C1029 1.350 . S
C1035 H1022 0.929 . S
C1035 C1027 1.433 . S
C1035 N1037 1.384 . S
N1036 C1032 1.427 . S
N1036 C1033 1.384 . S
N1037 C1029 1.427 . S
N1037 C1035 1.384 . S
H1038 C1044 0.930 . S
H1039 C1048 0.930 . S
H1040 C1053 0.929 . S
H1041 C1051 0.929 . S
H1042 C1046 0.929 . S
H1043 C1052 0.929 . S
C1044 H1038 0.930 . S
C1044 C1045 1.367 . S
C1044 C1052 1.378 . S
C1045 C1044 1.367 . S
C1045 C1053 1.433 . S
C1046 H1042 0.929 . S
C1046 C1048 1.378 . S
C1046 C1050 1.350 . S
C1047 C1050 1.463 . S
C1047 C1052 1.350 . S
C1047 N1055 1.427 . S
C1048 H1039 0.930 . S
C1048 C1046 1.378 . S
C1048 C1049 1.367 . S
C1049 C1048 1.367 . S
C1049 C1051 1.433 . S
C1050 C1046 1.350 . S
C1050 C1047 1.463 . S
C1050 N1054 1.427 . S
C1051 H1041 0.929 . S
C1051 C1049 1.433 . S
C1051 N1054 1.384 . S
C1052 H1043 0.929 . S
C1052 C1044 1.378 . S
C1052 C1047 1.350 . S
C1053 H1040 0.929 . S
C1053 C1045 1.433 . S
C1053 N1055 1.384 . S
N1054 C1050 1.427 . S
N1054 C1051 1.384 . S
N1055 C1047 1.427 . S
N1055 C1053 1.384 . S
H1056 C1062 0.930 . S
H1057 C1066 0.930 . S
H1058 C1071 0.929 . S
H1059 C1069 0.929 . S
H1060 C1064 0.929 . S
H1061 C1070 0.929 . S
C1062 H1056 0.930 . S
C1062 C1063 1.367 . S
C1062 C1070 1.378 . S
C1063 C1062 1.367 . S
C1063 C1071 1.433 . S
C1064 H1060 0.929 . S
C1064 C1066 1.378 . S
C1064 C1068 1.350 . S
C1065 C1068 1.463 . S
C1065 C1070 1.350 . S
C1065 N1073 1.427 . S
C1066 H1057 0.930 . S
C1066 C1064 1.378 . S
C1066 C1067 1.367 . S
C1067 C1066 1.367 . S
C1067 C1069 1.433 . S
C1068 C1064 1.350 . S
C1068 C1065 1.463 . S
C1068 N1072 1.427 . S
C1069 H1059 0.929 . S
C1069 C1067 1.433 . S
C1069 N1072 1.384 . S
C1070 H1061 0.929 . S
C1070 C1062 1.378 . S
C1070 C1065 1.350 . S
C1071 H1058 0.929 . S
C1071 C1063 1.433 . S
C1071 N1073 1.384 . S
N1072 C1068 1.427 . S
N1072 C1069 1.384 . S
N1073 C1065 1.427 . S
N1073 C1071 1.384 . S
H1074 C1080 0.930 . S
H1075 C1084 0.930 . S
H1076 C1089 0.929 1_545 S
H1077 C1087 0.929 . S
H1078 C1082 0.929 . S
H1079 C1088 0.929 . S
C1080 H1074 0.930 . S
C1080 C1081 1.367 . S
C1080 C1088 1.378 . S
C1081 C1080 1.367 . S
C1081 C1089 1.433 . S
C1082 H1078 0.929 . S
C1082 C1084 1.378 . S
C1082 C1086 1.350 . S
C1083 C1086 1.463 . S
C1083 C1088 1.350 . S
C1083 N1091 1.427 . S
C1084 H1075 0.930 . S
C1084 C1082 1.378 . S
C1084 C1085 1.367 . S
C1085 C1084 1.367 . S
C1085 C1087 1.433 . S
C1086 C1082 1.350 . S
C1086 C1083 1.463 . S
C1086 N1090 1.427 . S
C1087 H1077 0.929 . S
C1087 C1085 1.433 . S
C1087 N1090 1.384 . S
C1088 H1079 0.929 . S
C1088 C1080 1.378 . S
C1088 C1083 1.350 . S
C1089 H1076 0.929 1_565 S
C1089 C1081 1.433 . S
C1089 N1091 1.384 . S
N1090 C1086 1.427 . S
N1090 C1087 1.384 . S
N1091 C1083 1.427 . S
N1091 C1089 1.384 . S
H1092 C1098 0.930 . S
H1093 C1102 0.930 . S
H1094 C1107 0.929 . S
H1095 C1105 0.929 . S
H1096 C1100 0.929 . S
H1097 C1106 0.929 . S
C1098 H1092 0.930 . S
C1098 C1099 1.367 . S
C1098 C1106 1.378 . S
C1099 C1098 1.367 . S
C1099 C1107 1.433 . S
C1100 H1096 0.929 . S
C1100 C1102 1.378 . S
C1100 C1104 1.350 . S
C1101 C1104 1.463 . S
C1101 C1106 1.350 . S
C1101 N1109 1.427 . S
C1102 H1093 0.930 . S
C1102 C1100 1.378 . S
C1102 C1103 1.367 . S
C1103 C1102 1.367 . S
C1103 C1105 1.433 . S
C1104 C1100 1.350 . S
C1104 C1101 1.463 . S
C1104 N1108 1.427 . S
C1105 H1095 0.929 . S
C1105 C1103 1.433 . S
C1105 N1108 1.384 . S
C1106 H1097 0.929 . S
C1106 C1098 1.378 . S
C1106 C1101 1.350 . S
C1107 H1094 0.929 . S
C1107 C1099 1.433 . S
C1107 N1109 1.384 . S
N1108 C1104 1.427 . S
N1108 C1105 1.384 . S
N1109 C1101 1.427 . S
N1109 C1107 1.384 . S
H1110 C1116 0.930 . S
H1111 C1120 0.930 . S
H1112 C1125 0.929 . S
H1113 C1123 0.929 . S
H1114 C1118 0.929 . S
H1115 C1124 0.929 . S
C1116 H1110 0.930 . S
C1116 C1117 1.367 . S
C1116 C1124 1.378 . S
C1117 C1116 1.367 . S
C1117 C1125 1.433 . S
C1118 H1114 0.929 . S
C1118 C1120 1.378 . S
C1118 C1122 1.350 . S
C1119 C1122 1.463 . S
C1119 C1124 1.350 . S
C1119 N1127 1.427 . S
C1120 H1111 0.930 . S
C1120 C1118 1.378 . S
C1120 C1121 1.367 . S
C1121 C1120 1.367 . S
C1121 C1123 1.433 . S
C1122 C1118 1.350 . S
C1122 C1119 1.463 . S
C1122 N1126 1.427 . S
C1123 H1113 0.929 . S
C1123 C1121 1.433 . S
C1123 N1126 1.384 . S
C1124 H1115 0.929 . S
C1124 C1116 1.378 . S
C1124 C1119 1.350 . S
C1125 H1112 0.929 . S
C1125 C1117 1.433 . S
C1125 N1127 1.384 . S
N1126 C1122 1.427 . S
N1126 C1123 1.384 . S
N1127 C1119 1.427 . S
N1127 C1125 1.384 . S
H1128 C1134 0.930 . S
H1129 C1138 0.930 . S
H1130 C1143 0.929 . S
H1131 C1141 0.929 . S
H1132 C1136 0.929 . S
H1133 C1142 0.929 . S
C1134 H1128 0.930 . S
C1134 C1135 1.367 . S
C1134 C1142 1.378 . S
C1135 C1134 1.367 . S
C1135 C1143 1.433 . S
C1136 H1132 0.929 . S
C1136 C1138 1.378 . S
C1136 C1140 1.350 . S
C1137 C1140 1.463 . S
C1137 C1142 1.350 . S
C1137 N1145 1.427 . S
C1138 H1129 0.930 . S
C1138 C1136 1.378 . S
C1138 C1139 1.367 . S
C1139 C1138 1.367 . S
C1139 C1141 1.433 . S
C1140 C1136 1.350 . S
C1140 C1137 1.463 . S
C1140 N1144 1.427 . S
C1141 H1131 0.929 . S
C1141 C1139 1.433 . S
C1141 N1144 1.384 . S
C1142 H1133 0.929 . S
C1142 C1134 1.378 . S
C1142 C1137 1.350 . S
C1143 H1130 0.929 . S
C1143 C1135 1.433 . S
C1143 N1145 1.384 . S
N1144 C1140 1.427 . S
N1144 C1141 1.384 . S
N1145 C1137 1.427 . S
N1145 C1143 1.384 . S
H1146 C1152 0.930 . S
H1147 C1156 0.930 . S
H1148 C1161 0.929 . S
H1149 C1159 0.929 . S
H1150 C1154 0.929 . S
H1151 C1160 0.929 . S
C1152 H1146 0.930 . S
C1152 C1153 1.367 . S
C1152 C1160 1.378 . S
C1153 C1152 1.367 . S
C1153 C1161 1.433 . S
C1154 H1150 0.929 . S
C1154 C1156 1.378 . S
C1154 C1158 1.350 . S
C1155 C1158 1.463 . S
C1155 C1160 1.350 . S
C1155 N1163 1.427 . S
C1156 H1147 0.930 . S
C1156 C1154 1.378 . S
C1156 C1157 1.367 . S
C1157 C1156 1.367 . S
C1157 C1159 1.433 . S
C1158 C1154 1.350 . S
C1158 C1155 1.463 . S
C1158 N1162 1.427 . S
C1159 H1149 0.929 . S
C1159 C1157 1.433 . S
C1159 N1162 1.384 . S
C1160 H1151 0.929 . S
C1160 C1152 1.378 . S
C1160 C1155 1.350 . S
C1161 H1148 0.929 . S
C1161 C1153 1.433 . S
C1161 N1163 1.384 . S
N1162 C1158 1.427 . S
N1162 C1159 1.384 . S
N1163 C1155 1.427 . S
N1163 C1161 1.384 . S
H1164 C1170 0.930 . S
H1165 C1174 0.930 . S
H1166 C1179 0.929 1_545 S
H1167 C1177 0.929 . S
H1168 C1172 0.929 . S
H1169 C1178 0.929 . S
C1170 H1164 0.930 . S
C1170 C1171 1.367 1_565 S
C1170 C1178 1.378 . S
C1171 C1170 1.367 1_545 S
C1171 C1179 1.433 1_544 S
C1172 H1168 0.929 . S
C1172 C1174 1.378 . S
C1172 C1176 1.350 . S
C1173 C1176 1.463 . S
C1173 C1178 1.350 1_556 S
C1173 N1181 1.427 . S
C1174 H1165 0.930 . S
C1174 C1172 1.378 . S
C1174 C1175 1.367 . S
C1175 C1174 1.367 . S
C1175 C1177 1.433 . S
C1176 C1172 1.350 . S
C1176 C1173 1.463 . S
C1176 N1180 1.427 . S
C1177 H1167 0.929 . S
C1177 C1175 1.433 . S
C1177 N1180 1.384 . S
C1178 H1169 0.929 . S
C1178 C1170 1.378 . S
C1178 C1173 1.350 1_554 S
C1179 H1166 0.929 1_565 S
C1179 C1171 1.433 1_566 S
C1179 N1181 1.384 . S
N1180 C1176 1.427 . S
N1180 C1177 1.384 . S
N1181 C1173 1.427 . S
N1181 C1179 1.384 . S
H1182 C1188 0.930 . S
H1183 C1192 0.930 . S
H1184 C1197 0.929 . S
H1185 C1195 0.929 . S
H1186 C1190 0.929 . S
H1187 C1196 0.929 . S
C1188 H1182 0.930 . S
C1188 C1189 1.367 . S
C1188 C1196 1.378 . S
C1189 C1188 1.367 . S
C1189 C1197 1.433 . S
C1190 H1186 0.929 . S
C1190 C1192 1.378 . S
C1190 C1194 1.350 . S
C1191 C1194 1.463 . S
C1191 C1196 1.350 . S
C1191 N1199 1.427 . S
C1192 H1183 0.930 . S
C1192 C1190 1.378 . S
C1192 C1193 1.367 . S
C1193 C1192 1.367 . S
C1193 C1195 1.433 . S
C1194 C1190 1.350 . S
C1194 C1191 1.463 . S
C1194 N1198 1.427 . S
C1195 H1185 0.929 . S
C1195 C1193 1.433 . S
C1195 N1198 1.384 . S
C1196 H1187 0.929 . S
C1196 C1188 1.378 . S
C1196 C1191 1.350 . S
C1197 H1184 0.929 . S
C1197 C1189 1.433 . S
C1197 N1199 1.384 . S
N1198 C1194 1.427 . S
N1198 C1195 1.384 . S
N1199 C1191 1.427 . S
N1199 C1197 1.384 . S
H1200 C1206 0.930 . S
H1201 C1210 0.930 . S
H1202 C1215 0.929 . S
H1203 C1213 0.929 . S
H1204 C1208 0.929 . S
H1205 C1214 0.929 . S
C1206 H1200 0.930 . S
C1206 C1207 1.367 . S
C1206 C1214 1.378 . S
C1207 C1206 1.367 . S
C1207 C1215 1.433 . S
C1208 H1204 0.929 . S
C1208 C1210 1.378 . S
C1208 C1212 1.350 . S
C1209 C1212 1.463 . S
C1209 C1214 1.350 . S
C1209 N1217 1.427 . S
C1210 H1201 0.930 . S
C1210 C1208 1.378 . S
C1210 C1211 1.367 . S
C1211 C1210 1.367 . S
C1211 C1213 1.433 . S
C1212 C1208 1.350 . S
C1212 C1209 1.463 . S
C1212 N1216 1.427 . S
C1213 H1203 0.929 . S
C1213 C1211 1.433 . S
C1213 N1216 1.384 . S
C1214 H1205 0.929 . S
C1214 C1206 1.378 . S
C1214 C1209 1.350 . S
C1215 H1202 0.929 . S
C1215 C1207 1.433 . S
C1215 N1217 1.384 . S
N1216 C1212 1.427 . S
N1216 C1213 1.384 . S
N1217 C1209 1.427 . S
N1217 C1215 1.384 . S
H1218 C1224 0.930 . S
H1219 C1228 0.930 . S
H1220 C1233 0.929 . S
H1221 C1231 0.929 . S
H1222 C1226 0.929 . S
H1223 C1232 0.929 . S
C1224 H1218 0.930 . S
C1224 C1225 1.367 . S
C1224 C1232 1.378 . S
C1225 C1224 1.367 . S
C1225 C1233 1.433 . S
C1226 H1222 0.929 . S
C1226 C1228 1.378 . S
C1226 C1230 1.350 . S
C1227 C1230 1.463 . S
C1227 C1232 1.350 . S
C1227 N1235 1.427 . S
C1228 H1219 0.930 . S
C1228 C1226 1.378 . S
C1228 C1229 1.367 . S
C1229 C1228 1.367 . S
C1229 C1231 1.433 . S
C1230 C1226 1.350 . S
C1230 C1227 1.463 . S
C1230 N1234 1.427 . S
C1231 H1221 0.929 . S
C1231 C1229 1.433 . S
C1231 N1234 1.384 . S
C1232 H1223 0.929 . S
C1232 C1224 1.378 . S
C1232 C1227 1.350 . S
C1233 H1220 0.929 . S
C1233 C1225 1.433 . S
C1233 N1235 1.384 . S
N1234 C1230 1.427 . S
N1234 C1231 1.384 . S
N1235 C1227 1.427 . S
N1235 C1233 1.384 . S
H1236 C1242 0.930 . S
H1237 C1246 0.930 . S
H1238 C1251 0.929 . S
H1239 C1249 0.929 . S
H1240 C1244 0.929 . S
H1241 C1250 0.929 . S
C1242 H1236 0.930 . S
C1242 C1243 1.367 . S
C1242 C1250 1.378 . S
C1243 C1242 1.367 . S
C1243 C1251 1.433 . S
C1244 H1240 0.929 . S
C1244 C1246 1.378 . S
C1244 C1248 1.350 . S
C1245 C1248 1.463 . S
C1245 C1250 1.350 . S
C1245 N1253 1.427 . S
C1246 H1237 0.930 . S
C1246 C1244 1.378 . S
C1246 C1247 1.367 . S
C1247 C1246 1.367 . S
C1247 C1249 1.433 . S
C1248 C1244 1.350 . S
C1248 C1245 1.463 . S
C1248 N1252 1.427 . S
C1249 H1239 0.929 . S
C1249 C1247 1.433 . S
C1249 N1252 1.384 . S
C1250 H1241 0.929 . S
C1250 C1242 1.378 . S
C1250 C1245 1.350 . S
C1251 H1238 0.929 . S
C1251 C1243 1.433 . S
C1251 N1253 1.384 . S
N1252 C1248 1.427 . S
N1252 C1249 1.384 . S
N1253 C1245 1.427 . S
N1253 C1251 1.384 . S
H1254 C1260 0.930 . S
H1255 C1264 0.930 . S
H1256 C1269 0.929 . S
H1257 C1267 0.929 . S
H1258 C1262 0.929 . S
H1259 C1268 0.929 . S
C1260 H1254 0.930 . S
C1260 C1261 1.367 . S
C1260 C1268 1.378 . S
C1261 C1260 1.367 . S
C1261 C1269 1.433 . S
C1262 H1258 0.929 . S
C1262 C1264 1.378 . S
C1262 C1266 1.350 . S
C1263 C1266 1.463 . S
C1263 C1268 1.350 . S
C1263 N1271 1.427 . S
C1264 H1255 0.930 . S
C1264 C1262 1.378 . S
C1264 C1265 1.367 . S
C1265 C1264 1.367 . S
C1265 C1267 1.433 . S
C1266 C1262 1.350 . S
C1266 C1263 1.463 . S
C1266 N1270 1.427 . S
C1267 H1257 0.929 . S
C1267 C1265 1.433 . S
C1267 N1270 1.384 . S
C1268 H1259 0.929 . S
C1268 C1260 1.378 . S
C1268 C1263 1.350 . S
C1269 H1256 0.929 . S
C1269 C1261 1.433 . S
C1269 N1271 1.384 . S
N1270 C1266 1.427 . S
N1270 C1267 1.384 . S
N1271 C1263 1.427 . S
N1271 C1269 1.384 . S
H1272 C1278 0.930 . S
H1273 C1282 0.930 . S
H1274 C1287 0.929 . S
H1275 C1285 0.929 . S
H1276 C1280 0.929 . S
H1277 C1286 0.929 . S
C1278 H1272 0.930 . S
C1278 C1279 1.367 . S
C1278 C1286 1.378 1_554 S
C1279 C1278 1.367 . S
C1279 C1287 1.433 1_554 S
C1280 H1276 0.929 . S
C1280 C1282 1.378 . S
C1280 C1284 1.350 . S
C1281 C1284 1.463 . S
C1281 C1286 1.350 . S
C1281 N1289 1.427 . S
C1282 H1273 0.930 . S
C1282 C1280 1.378 . S
C1282 C1283 1.367 . S
C1283 C1282 1.367 . S
C1283 C1285 1.433 . S
C1284 C1280 1.350 . S
C1284 C1281 1.463 . S
C1284 N1288 1.427 . S
C1285 H1275 0.929 . S
C1285 C1283 1.433 . S
C1285 N1288 1.384 . S
C1286 H1277 0.929 . S
C1286 C1278 1.378 1_556 S
C1286 C1281 1.350 . S
C1287 H1274 0.929 . S
C1287 C1279 1.433 1_556 S
C1287 N1289 1.384 . S
N1288 C1284 1.427 . S
N1288 C1285 1.384 . S
N1289 C1281 1.427 . S
N1289 C1287 1.384 . S
H1290 C1296 0.930 . S
H1291 C1300 0.930 . S
H1292 C1305 0.929 1_455 S
H1293 C1303 0.929 . S
H1294 C1298 0.929 . S
H1295 C1304 0.929 . S
C1296 H1290 0.930 . S
C1296 C1297 1.367 . S
C1296 C1304 1.378 . S
C1297 C1296 1.367 . S
C1297 C1305 1.433 1_554 S
C1298 H1294 0.929 . S
C1298 C1300 1.378 . S
C1298 C1302 1.350 . S
C1299 C1302 1.463 . S
C1299 C1304 1.350 1_556 S
C1299 N1307 1.427 . S
C1300 H1291 0.930 . S
C1300 C1298 1.378 . S
C1300 C1301 1.367 . S
C1301 C1300 1.367 . S
C1301 C1303 1.433 . S
C1302 C1298 1.350 . S
C1302 C1299 1.463 . S
C1302 N1306 1.427 . S
C1303 H1293 0.929 . S
C1303 C1301 1.433 . S
C1303 N1306 1.384 . S
C1304 H1295 0.929 . S
C1304 C1296 1.378 . S
C1304 C1299 1.350 1_554 S
C1305 H1292 0.929 1_655 S
C1305 C1297 1.433 1_556 S
C1305 N1307 1.384 . S
N1306 C1302 1.427 . S
N1306 C1303 1.384 . S
N1307 C1299 1.427 . S
N1307 C1305 1.384 . S
H1308 C1314 0.930 . S
H1309 C1318 0.930 . S
H1310 C1323 0.929 . S
H1311 C1321 0.929 . S
H1312 C1316 0.929 . S
H1313 C1322 0.929 . S
C1314 H1308 0.930 . S
C1314 C1315 1.367 . S
C1314 C1322 1.378 . S
C1315 C1314 1.367 . S
C1315 C1323 1.433 . S
C1316 H1312 0.929 . S
C1316 C1318 1.378 . S
C1316 C1320 1.350 . S
C1317 C1320 1.463 . S
C1317 C1322 1.350 . S
C1317 N1325 1.427 . S
C1318 H1309 0.930 . S
C1318 C1316 1.378 . S
C1318 C1319 1.367 . S
C1319 C1318 1.367 . S
C1319 C1321 1.433 . S
C1320 C1316 1.350 . S
C1320 C1317 1.463 . S
C1320 N1324 1.427 . S
C1321 H1311 0.929 . S
C1321 C1319 1.433 . S
C1321 N1324 1.384 . S
C1322 H1313 0.929 . S
C1322 C1314 1.378 . S
C1322 C1317 1.350 . S
C1323 H1310 0.929 . S
C1323 C1315 1.433 . S
C1323 N1325 1.384 . S
N1324 C1320 1.427 . S
N1324 C1321 1.384 . S
N1325 C1317 1.427 . S
N1325 C1323 1.384 . S
H1326 C1332 0.930 . S
H1327 C1336 0.930 . S
H1328 C1341 0.929 . S
H1329 C1339 0.929 . S
H1330 C1334 0.929 . S
H1331 C1340 0.929 . S
C1332 H1326 0.930 . S
C1332 C1333 1.367 . S
C1332 C1340 1.378 . S
C1333 C1332 1.367 . S
C1333 C1341 1.433 . S
C1334 H1330 0.929 . S
C1334 C1336 1.378 . S
C1334 C1338 1.350 . S
C1335 C1338 1.463 . S
C1335 C1340 1.350 . S
C1335 N1343 1.427 . S
C1336 H1327 0.930 . S
C1336 C1334 1.378 . S
C1336 C1337 1.367 . S
C1337 C1336 1.367 . S
C1337 C1339 1.433 . S
C1338 C1334 1.350 . S
C1338 C1335 1.463 . S
C1338 N1342 1.427 . S
C1339 H1329 0.929 . S
C1339 C1337 1.433 . S
C1339 N1342 1.384 . S
C1340 H1331 0.929 . S
C1340 C1332 1.378 . S
C1340 C1335 1.350 . S
C1341 H1328 0.929 . S
C1341 C1333 1.433 . S
C1341 N1343 1.384 . S
N1342 C1338 1.427 . S
N1342 C1339 1.384 . S
N1343 C1335 1.427 . S
N1343 C1341 1.384 . S
H1344 C1350 0.930 . S
H1345 C1354 0.930 . S
H1346 C1359 0.929 1_545 S
H1347 C1357 0.929 . S
H1348 C1352 0.929 . S
H1349 C1358 0.929 . S
C1350 H1344 0.930 . S
C1350 C1351 1.349 1_565 S
C1350 C1358 1.378 . S
C1351 C1350 1.349 1_545 S
C1351 C1359 1.435 1_545 S
C1352 H1348 0.929 . S
C1352 C1354 1.378 . S
C1352 C1356 1.350 . S
C1353 C1356 1.463 . S
C1353 C1358 1.350 . S
C1353 N1361 1.427 . S
C1354 H1345 0.930 . S
C1354 C1352 1.378 . S
C1354 C1355 1.367 . S
C1355 C1354 1.367 . S
C1355 C1357 1.433 . S
C1356 C1352 1.350 . S
C1356 C1353 1.463 . S
C1356 N1360 1.427 . S
C1357 H1347 0.929 . S
C1357 C1355 1.433 . S
C1357 N1360 1.384 . S
C1358 H1349 0.929 . S
C1358 C1350 1.378 . S
C1358 C1353 1.350 . S
C1359 H1346 0.929 1_565 S
C1359 C1351 1.435 1_565 S
C1359 N1361 1.384 . S
N1360 C1356 1.427 . S
N1360 C1357 1.384 . S
N1361 C1353 1.427 . S
N1361 C1359 1.384 . S
H1362 C1368 0.930 . S
H1363 C1372 0.930 . S
H1364 C1377 0.929 . S
H1365 C1375 0.929 . S
H1366 C1370 0.929 . S
H1367 C1376 0.929 . S
C1368 H1362 0.930 . S
C1368 C1369 1.367 . S
C1368 C1376 1.378 . S
C1369 C1368 1.367 . S
C1369 C1377 1.433 . S
C1370 H1366 0.929 . S
C1370 C1372 1.378 . S
C1370 C1374 1.350 . S
C1371 C1374 1.463 . S
C1371 C1376 1.350 . S
C1371 N1379 1.427 . S
C1372 H1363 0.930 . S
C1372 C1370 1.378 . S
C1372 C1373 1.367 . S
C1373 C1372 1.367 . S
C1373 C1375 1.433 . S
C1374 C1370 1.350 . S
C1374 C1371 1.463 . S
C1374 N1378 1.427 . S
C1375 H1365 0.929 . S
C1375 C1373 1.433 . S
C1375 N1378 1.384 . S
C1376 H1367 0.929 . S
C1376 C1368 1.378 . S
C1376 C1371 1.350 . S
C1377 H1364 0.929 . S
C1377 C1369 1.433 . S
C1377 N1379 1.384 . S
N1378 C1374 1.427 . S
N1378 C1375 1.384 . S
N1379 C1371 1.427 . S
N1379 C1377 1.384 . S
H1380 C1386 0.930 . S
H1381 C1390 0.930 . S
H1382 C1395 0.929 . S
H1383 C1393 0.929 . S
H1384 C1388 0.929 . S
H1385 C1394 0.929 . S
C1386 H1380 0.930 . S
C1386 C1387 1.367 . S
C1386 C1394 1.378 . S
C1387 C1386 1.367 . S
C1387 C1395 1.433 . S
C1388 H1384 0.929 . S
C1388 C1390 1.378 . S
C1388 C1392 1.350 . S
C1389 C1392 1.463 . S
C1389 C1394 1.350 . S
C1389 N1397 1.427 . S
C1390 H1381 0.930 . S
C1390 C1388 1.378 . S
C1390 C1391 1.367 . S
C1391 C1390 1.367 . S
C1391 C1393 1.433 . S
C1392 C1388 1.350 . S
C1392 C1389 1.463 . S
C1392 N1396 1.427 . S
C1393 H1383 0.929 . S
C1393 C1391 1.433 . S
C1393 N1396 1.384 . S
C1394 H1385 0.929 . S
C1394 C1386 1.378 . S
C1394 C1389 1.350 . S
C1395 H1382 0.929 . S
C1395 C1387 1.433 . S
C1395 N1397 1.384 . S
N1396 C1392 1.427 . S
N1396 C1393 1.384 . S
N1397 C1389 1.427 . S
N1397 C1395 1.384 . S
H1398 C1404 0.930 . S
H1399 C1408 0.930 . S
H1400 C1413 0.929 . S
H1401 C1411 0.929 . S
H1402 C1406 0.929 . S
H1403 C1412 0.929 . S
C1404 H1398 0.930 . S
C1404 C1405 1.367 . S
C1404 C1412 1.378 . S
C1405 C1404 1.367 . S
C1405 C1413 1.433 . S
C1406 H1402 0.929 . S
C1406 C1408 1.378 . S
C1406 C1410 1.350 . S
C1407 C1410 1.463 . S
C1407 C1412 1.350 . S
C1407 N1415 1.427 . S
C1408 H1399 0.930 . S
C1408 C1406 1.378 . S
C1408 C1409 1.367 . S
C1409 C1408 1.367 . S
C1409 C1411 1.433 . S
C1410 C1406 1.350 . S
C1410 C1407 1.463 . S
C1410 N1414 1.427 . S
C1411 H1401 0.929 . S
C1411 C1409 1.433 . S
C1411 N1414 1.384 . S
C1412 H1403 0.929 . S
C1412 C1404 1.378 . S
C1412 C1407 1.350 . S
C1413 H1400 0.929 . S
C1413 C1405 1.433 . S
C1413 N1415 1.384 . S
N1414 C1410 1.427 . S
N1414 C1411 1.384 . S
N1415 C1407 1.427 . S
N1415 C1413 1.384 . S
H1416 C1422 0.930 . S
H1417 C1426 0.930 . S
H1418 C1431 0.929 . S
H1419 C1429 0.929 . S
H1420 C1424 0.929 . S
H1421 C1430 0.929 . S
C1422 H1416 0.930 . S
C1422 C1423 1.367 . S
C1422 C1430 1.378 . S
C1423 C1422 1.367 . S
C1423 C1431 1.433 . S
C1424 H1420 0.929 . S
C1424 C1426 1.378 . S
C1424 C1428 1.350 . S
C1425 C1428 1.463 . S
C1425 C1430 1.350 . S
C1425 N1433 1.427 . S
C1426 H1417 0.930 . S
C1426 C1424 1.378 . S
C1426 C1427 1.367 . S
C1427 C1426 1.367 . S
C1427 C1429 1.433 . S
C1428 C1424 1.350 . S
C1428 C1425 1.463 . S
C1428 N1432 1.427 . S
C1429 H1419 0.929 . S
C1429 C1427 1.433 . S
C1429 N1432 1.384 . S
C1430 H1421 0.929 . S
C1430 C1422 1.378 . S
C1430 C1425 1.350 . S
C1431 H1418 0.929 . S
C1431 C1423 1.433 . S
C1431 N1433 1.384 . S
N1432 C1428 1.427 . S
N1432 C1429 1.384 . S
N1433 C1425 1.427 . S
N1433 C1431 1.384 . S
H1434 C1440 0.930 . S
H1435 C1444 0.930 . S
H1436 C1449 0.929 . S
H1437 C1447 0.929 . S
H1438 C1442 0.929 . S
H1439 C1448 0.929 . S
C1440 H1434 0.930 . S
C1440 C1441 1.367 . S
C1440 C1448 1.378 . S
C1441 C1440 1.367 . S
C1441 C1449 1.433 . S
C1442 H1438 0.929 . S
C1442 C1444 1.378 . S
C1442 C1446 1.350 . S
C1443 C1446 1.463 . S
C1443 C1448 1.350 . S
C1443 N1451 1.427 . S
C1444 H1435 0.930 . S
C1444 C1442 1.378 . S
C1444 C1445 1.367 . S
C1445 C1444 1.367 . S
C1445 C1447 1.433 . S
C1446 C1442 1.350 . S
C1446 C1443 1.463 . S
C1446 N1450 1.427 . S
C1447 H1437 0.929 . S
C1447 C1445 1.433 . S
C1447 N1450 1.384 . S
C1448 H1439 0.929 . S
C1448 C1440 1.378 . S
C1448 C1443 1.350 . S
C1449 H1436 0.929 . S
C1449 C1441 1.433 . S
C1449 N1451 1.384 . S
N1450 C1446 1.427 . S
N1450 C1447 1.384 . S
N1451 C1443 1.427 . S
N1451 C1449 1.384 . S
H1452 C1458 0.930 . S
H1453 C1462 0.930 . S
H1454 C1467 0.929 . S
H1455 C1465 0.929 . S
H1456 C1460 0.929 . S
H1457 C1466 0.929 . S
C1458 H1452 0.930 . S
C1458 C1459 1.367 . S
C1458 C1466 1.378 . S
C1459 C1458 1.367 . S
C1459 C1467 1.433 . S
C1460 H1456 0.929 . S
C1460 C1462 1.378 . S
C1460 C1464 1.350 . S
C1461 C1464 1.463 . S
C1461 C1466 1.350 . S
C1461 N1469 1.427 . S
C1462 H1453 0.930 . S
C1462 C1460 1.378 . S
C1462 C1463 1.367 . S
C1463 C1462 1.367 . S
C1463 C1465 1.433 . S
C1464 C1460 1.350 . S
C1464 C1461 1.463 . S
C1464 N1468 1.427 . S
C1465 H1455 0.929 . S
C1465 C1463 1.433 . S
C1465 N1468 1.384 . S
C1466 H1457 0.929 . S
C1466 C1458 1.378 . S
C1466 C1461 1.350 . S
C1467 H1454 0.929 . S
C1467 C1459 1.433 . S
C1467 N1469 1.384 . S
N1468 C1464 1.427 . S
N1468 C1465 1.384 . S
N1469 C1461 1.427 . S
N1469 C1467 1.384 . S
H1470 C1476 0.930 . S
H1471 C1480 0.930 . S
H1472 C1485 0.929 . S
H1473 C1483 0.929 . S
H1474 C1478 0.929 . S
H1475 C1484 0.929 . S
C1476 H1470 0.930 . S
C1476 C1477 1.367 . S
C1476 C1484 1.378 . S
C1477 C1476 1.367 . S
C1477 C1485 1.433 . S
C1478 H1474 0.929 . S
C1478 C1480 1.378 . S
C1478 C1482 1.350 . S
C1479 C1482 1.463 . S
C1479 C1484 1.350 . S
C1479 N1487 1.427 . S
C1480 H1471 0.930 . S
C1480 C1478 1.378 . S
C1480 C1481 1.367 . S
C1481 C1480 1.367 . S
C1481 C1483 1.433 . S
C1482 C1478 1.350 . S
C1482 C1479 1.463 . S
C1482 N1486 1.427 . S
C1483 H1473 0.929 . S
C1483 C1481 1.433 . S
C1483 N1486 1.384 . S
C1484 H1475 0.929 . S
C1484 C1476 1.378 . S
C1484 C1479 1.350 . S
C1485 H1472 0.929 . S
C1485 C1477 1.433 . S
C1485 N1487 1.384 . S
N1486 C1482 1.427 . S
N1486 C1483 1.384 . S
N1487 C1479 1.427 . S
N1487 C1485 1.384 . S
H1488 C1494 0.930 . S
H1489 C1498 0.930 . S
H1490 C1503 0.929 . S
H1491 C1501 0.929 . S
H1492 C1496 0.929 . S
H1493 C1502 0.929 . S
C1494 H1488 0.930 . S
C1494 C1495 1.367 . S
C1494 C1502 1.378 . S
C1495 C1494 1.367 . S
C1495 C1503 1.433 . S
C1496 H1492 0.929 . S
C1496 C1498 1.378 . S
C1496 C1500 1.350 . S
C1497 C1500 1.463 . S
C1497 C1502 1.350 . S
C1497 N1505 1.427 . S
C1498 H1489 0.930 . S
C1498 C1496 1.378 . S
C1498 C1499 1.367 . S
C1499 C1498 1.367 . S
C1499 C1501 1.433 . S
C1500 C1496 1.350 . S
C1500 C1497 1.463 . S
C1500 N1504 1.427 . S
C1501 H1491 0.929 . S
C1501 C1499 1.433 . S
C1501 N1504 1.384 . S
C1502 H1493 0.929 . S
C1502 C1494 1.378 . S
C1502 C1497 1.350 . S
C1503 H1490 0.929 . S
C1503 C1495 1.433 . S
C1503 N1505 1.384 . S
N1504 C1500 1.427 . S
N1504 C1501 1.384 . S
N1505 C1497 1.427 . S
N1505 C1503 1.384 . S
H1506 C1512 0.930 . S
H1507 C1516 0.930 . S
H1508 C1521 0.929 . S
H1509 C1519 0.929 . S
H1510 C1514 0.929 . S
H1511 C1520 0.929 . S
C1512 H1506 0.930 . S
C1512 C1513 1.367 . S
C1512 C1520 1.378 . S
C1513 C1512 1.367 . S
C1513 C1521 1.433 . S
C1514 H1510 0.929 . S
C1514 C1516 1.378 . S
C1514 C1518 1.350 . S
C1515 C1518 1.463 . S
C1515 C1520 1.350 . S
C1515 N1523 1.427 . S
C1516 H1507 0.930 . S
C1516 C1514 1.378 . S
C1516 C1517 1.367 . S
C1517 C1516 1.367 . S
C1517 C1519 1.433 . S
C1518 C1514 1.350 . S
C1518 C1515 1.463 . S
C1518 N1522 1.427 . S
C1519 H1509 0.929 . S
C1519 C1517 1.433 . S
C1519 N1522 1.384 . S
C1520 H1511 0.929 . S
C1520 C1512 1.378 . S
C1520 C1515 1.350 . S
C1521 H1508 0.929 . S
C1521 C1513 1.433 . S
C1521 N1523 1.384 . S
N1522 C1518 1.427 . S
N1522 C1519 1.384 . S
N1523 C1515 1.427 . S
N1523 C1521 1.384 . S
H1524 C1530 0.930 . S
H1525 C1534 0.930 . S
H1526 C1539 0.929 . S
H1527 C1537 0.929 . S
H1528 C1532 0.929 . S
H1529 C1538 0.929 . S
C1530 H1524 0.930 . S
C1530 C1531 1.367 . S
C1530 C1538 1.378 . S
C1531 C1530 1.367 . S
C1531 C1539 1.433 . S
C1532 H1528 0.929 . S
C1532 C1534 1.378 . S
C1532 C1536 1.350 . S
C1533 C1536 1.463 . S
C1533 C1538 1.350 . S
C1533 N1541 1.427 . S
C1534 H1525 0.930 . S
C1534 C1532 1.378 . S
C1534 C1535 1.367 . S
C1535 C1534 1.367 . S
C1535 C1537 1.433 . S
C1536 C1532 1.350 . S
C1536 C1533 1.463 . S
C1536 N1540 1.427 . S
C1537 H1527 0.929 . S
C1537 C1535 1.433 . S
C1537 N1540 1.384 . S
C1538 H1529 0.929 . S
C1538 C1530 1.378 . S
C1538 C1533 1.350 . S
C1539 H1526 0.929 . S
C1539 C1531 1.433 . S
C1539 N1541 1.384 . S
N1540 C1536 1.427 . S
N1540 C1537 1.384 . S
N1541 C1533 1.427 . S
N1541 C1539 1.384 . S
H1542 C1548 0.930 . S
H1543 C1552 0.930 . S
H1544 C1557 0.929 . S
H1545 C1555 0.929 . S
H1546 C1550 0.929 . S
H1547 C1556 0.929 . S
C1548 H1542 0.930 . S
C1548 C1549 1.367 . S
C1548 C1556 1.378 . S
C1549 C1548 1.367 . S
C1549 C1557 1.433 . S
C1550 H1546 0.929 . S
C1550 C1552 1.378 . S
C1550 C1554 1.350 . S
C1551 C1554 1.463 . S
C1551 C1556 1.350 . S
C1551 N1559 1.427 . S
C1552 H1543 0.930 . S
C1552 C1550 1.378 . S
C1552 C1553 1.367 . S
C1553 C1552 1.367 . S
C1553 C1555 1.433 . S
C1554 C1550 1.350 . S
C1554 C1551 1.463 . S
C1554 N1558 1.427 . S
C1555 H1545 0.929 . S
C1555 C1553 1.433 . S
C1555 N1558 1.384 . S
C1556 H1547 0.929 . S
C1556 C1548 1.378 . S
C1556 C1551 1.350 . S
C1557 H1544 0.929 . S
C1557 C1549 1.433 . S
C1557 N1559 1.384 . S
N1558 C1554 1.427 . S
N1558 C1555 1.384 . S
N1559 C1551 1.427 . S
N1559 C1557 1.384 . S
H1560 C1566 0.930 . S
H1561 C1570 0.930 . S
H1562 C1575 0.929 . S
H1563 C1573 0.929 . S
H1564 C1568 0.929 . S
H1565 C1574 0.929 . S
C1566 H1560 0.930 . S
C1566 C1567 1.367 . S
C1566 C1574 1.378 . S
C1567 C1566 1.367 . S
C1567 C1575 1.433 . S
C1568 H1564 0.929 . S
C1568 C1570 1.378 . S
C1568 C1572 1.350 . S
C1569 C1572 1.463 . S
C1569 C1574 1.350 . S
C1569 N1577 1.427 . S
C1570 H1561 0.930 . S
C1570 C1568 1.378 . S
C1570 C1571 1.367 . S
C1571 C1570 1.367 . S
C1571 C1573 1.433 . S
C1572 C1568 1.350 . S
C1572 C1569 1.463 . S
C1572 N1576 1.427 . S
C1573 H1563 0.929 . S
C1573 C1571 1.433 . S
C1573 N1576 1.384 . S
C1574 H1565 0.929 . S
C1574 C1566 1.378 . S
C1574 C1569 1.350 . S
C1575 H1562 0.929 . S
C1575 C1567 1.433 . S
C1575 N1577 1.384 . S
N1576 C1572 1.427 . S
N1576 C1573 1.384 . S
N1577 C1569 1.427 . S
N1577 C1575 1.384 . S
H1578 C1584 0.930 . S
H1579 C1588 0.930 . S
H1580 C1593 0.929 . S
H1581 C1591 0.929 . S
H1582 C1586 0.929 . S
H1583 C1592 0.929 . S
C1584 H1578 0.930 . S
C1584 C1585 1.367 . S
C1584 C1592 1.378 . S
C1585 C1584 1.367 . S
C1585 C1593 1.433 . S
C1586 H1582 0.929 . S
C1586 C1588 1.378 . S
C1586 C1590 1.350 . S
C1587 C1590 1.463 . S
C1587 C1592 1.350 . S
C1587 N1595 1.427 . S
C1588 H1579 0.930 . S
C1588 C1586 1.378 . S
C1588 C1589 1.367 . S
C1589 C1588 1.367 . S
C1589 C1591 1.433 . S
C1590 C1586 1.350 . S
C1590 C1587 1.463 . S
C1590 N1594 1.427 . S
C1591 H1581 0.929 . S
C1591 C1589 1.433 . S
C1591 N1594 1.384 . S
C1592 H1583 0.929 . S
C1592 C1584 1.378 . S
C1592 C1587 1.350 . S
C1593 H1580 0.929 . S
C1593 C1585 1.433 . S
C1593 N1595 1.384 . S
N1594 C1590 1.427 . S
N1594 C1591 1.384 . S
N1595 C1587 1.427 . S
N1595 C1593 1.384 . S
H1596 C1602 0.930 . S
H1597 C1606 0.930 . S
H1598 C1611 0.929 . S
H1599 C1609 0.929 . S
H1600 C1604 0.929 . S
H1601 C1610 0.929 . S
C1602 H1596 0.930 . S
C1602 C1603 1.367 . S
C1602 C1610 1.378 . S
C1603 C1602 1.367 . S
C1603 C1611 1.433 . S
C1604 H1600 0.929 . S
C1604 C1606 1.378 . S
C1604 C1608 1.350 . S
C1605 C1608 1.463 . S
C1605 C1610 1.350 . S
C1605 N1613 1.427 . S
C1606 H1597 0.930 . S
C1606 C1604 1.378 . S
C1606 C1607 1.367 . S
C1607 C1606 1.367 . S
C1607 C1609 1.433 . S
C1608 C1604 1.350 . S
C1608 C1605 1.463 . S
C1608 N1612 1.427 . S
C1609 H1599 0.929 . S
C1609 C1607 1.433 . S
C1609 N1612 1.384 . S
C1610 H1601 0.929 . S
C1610 C1602 1.378 . S
C1610 C1605 1.350 . S
C1611 H1598 0.929 . S
C1611 C1603 1.433 . S
C1611 N1613 1.384 . S
N1612 C1608 1.427 . S
N1612 C1609 1.384 . S
N1613 C1605 1.427 . S
N1613 C1611 1.384 . S
H1614 C1620 0.930 . S
H1615 C1624 0.930 . S
H1616 C1629 0.929 . S
H1617 C1627 0.929 . S
H1618 C1622 0.929 . S
H1619 C1628 0.929 . S
C1620 H1614 0.930 . S
C1620 C1621 1.367 . S
C1620 C1628 1.378 . S
C1621 C1620 1.367 . S
C1621 C1629 1.433 . S
C1622 H1618 0.929 . S
C1622 C1624 1.378 . S
C1622 C1626 1.350 . S
C1623 C1626 1.463 . S
C1623 C1628 1.350 . S
C1623 N1631 1.427 . S
C1624 H1615 0.930 . S
C1624 C1622 1.378 . S
C1624 C1625 1.367 . S
C1625 C1624 1.367 . S
C1625 C1627 1.433 . S
C1626 C1622 1.350 . S
C1626 C1623 1.463 . S
C1626 N1630 1.427 . S
C1627 H1617 0.929 . S
C1627 C1625 1.433 . S
C1627 N1630 1.384 . S
C1628 H1619 0.929 . S
C1628 C1620 1.378 . S
C1628 C1623 1.350 . S
C1629 H1616 0.929 . S
C1629 C1621 1.433 . S
C1629 N1631 1.384 . S
N1630 C1626 1.427 . S
N1630 C1627 1.384 . S
N1631 C1623 1.427 . S
N1631 C1629 1.384 . S
H1632 C1638 0.930 . S
H1633 C1642 0.930 . S
H1634 C1647 0.929 . S
H1635 C1645 0.929 . S
H1636 C1640 0.929 . S
H1637 C1646 0.929 . S
C1638 H1632 0.930 . S
C1638 C1639 1.367 . S
C1638 C1646 1.378 . S
C1639 C1638 1.367 . S
C1639 C1647 1.433 . S
C1640 H1636 0.929 . S
C1640 C1642 1.378 . S
C1640 C1644 1.350 . S
C1641 C1644 1.463 . S
C1641 C1646 1.350 . S
C1641 N1649 1.427 . S
C1642 H1633 0.930 . S
C1642 C1640 1.378 . S
C1642 C1643 1.367 . S
C1643 C1642 1.367 . S
C1643 C1645 1.433 . S
C1644 C1640 1.350 . S
C1644 C1641 1.463 . S
C1644 N1648 1.427 . S
C1645 H1635 0.929 . S
C1645 C1643 1.433 . S
C1645 N1648 1.384 . S
C1646 H1637 0.929 . S
C1646 C1638 1.378 . S
C1646 C1641 1.350 . S
C1647 H1634 0.929 . S
C1647 C1639 1.433 . S
C1647 N1649 1.384 . S
N1648 C1644 1.427 . S
N1648 C1645 1.384 . S
N1649 C1641 1.427 . S
N1649 C1647 1.384 . S
H1650 C1656 0.930 . S
H1651 C1660 0.930 . S
H1652 C1665 0.929 . S
H1653 C1663 0.929 . S
H1654 C1658 0.929 . S
H1655 C1664 0.929 . S
C1656 H1650 0.930 . S
C1656 C1657 1.367 . S
C1656 C1664 1.378 . S
C1657 C1656 1.367 . S
C1657 C1665 1.433 . S
C1658 H1654 0.929 . S
C1658 C1660 1.378 . S
C1658 C1662 1.350 . S
C1659 C1662 1.463 . S
C1659 C1664 1.350 . S
C1659 N1667 1.427 . S
C1660 H1651 0.930 . S
C1660 C1658 1.378 . S
C1660 C1661 1.367 . S
C1661 C1660 1.367 . S
C1661 C1663 1.433 . S
C1662 C1658 1.350 . S
C1662 C1659 1.463 . S
C1662 N1666 1.427 . S
C1663 H1653 0.929 . S
C1663 C1661 1.433 . S
C1663 N1666 1.384 . S
C1664 H1655 0.929 . S
C1664 C1656 1.378 . S
C1664 C1659 1.350 . S
C1665 H1652 0.929 . S
C1665 C1657 1.433 . S
C1665 N1667 1.384 . S
N1666 C1662 1.427 . S
N1666 C1663 1.384 . S
N1667 C1659 1.427 . S
N1667 C1665 1.384 . S
H1668 C1674 0.930 . S
H1669 C1678 0.930 . S
H1670 C1683 0.929 . S
H1671 C1681 0.929 . S
H1672 C1676 0.929 . S
H1673 C1682 0.929 . S
C1674 H1668 0.930 . S
C1674 C1675 1.367 . S
C1674 C1682 1.378 . S
C1675 C1674 1.367 . S
C1675 C1683 1.433 . S
C1676 H1672 0.929 . S
C1676 C1678 1.378 . S
C1676 C1680 1.350 . S
C1677 C1680 1.463 . S
C1677 C1682 1.350 . S
C1677 N1685 1.427 . S
C1678 H1669 0.930 . S
C1678 C1676 1.378 . S
C1678 C1679 1.367 . S
C1679 C1678 1.367 . S
C1679 C1681 1.433 . S
C1680 C1676 1.350 . S
C1680 C1677 1.463 . S
C1680 N1684 1.427 . S
C1681 H1671 0.929 . S
C1681 C1679 1.433 . S
C1681 N1684 1.384 . S
C1682 H1673 0.929 . S
C1682 C1674 1.378 . S
C1682 C1677 1.350 . S
C1683 H1670 0.929 . S
C1683 C1675 1.433 . S
C1683 N1685 1.384 . S
N1684 C1680 1.427 . S
N1684 C1681 1.384 . S
N1685 C1677 1.427 . S
N1685 C1683 1.384 . S
H1686 C1692 0.930 . S
H1687 C1696 0.930 . S
H1688 C1701 0.929 . S
H1689 C1699 0.929 . S
H1690 C1694 0.929 . S
H1691 C1700 0.929 . S
C1692 H1686 0.930 . S
C1692 C1693 1.367 . S
C1692 C1700 1.378 . S
C1693 C1692 1.367 . S
C1693 C1701 1.433 . S
C1694 H1690 0.929 . S
C1694 C1696 1.378 . S
C1694 C1698 1.350 . S
C1695 C1698 1.463 . S
C1695 C1700 1.350 . S
C1695 N1703 1.427 . S
C1696 H1687 0.930 . S
C1696 C1694 1.378 . S
C1696 C1697 1.367 . S
C1697 C1696 1.367 . S
C1697 C1699 1.433 . S
C1698 C1694 1.350 . S
C1698 C1695 1.463 . S
C1698 N1702 1.427 . S
C1699 H1689 0.929 . S
C1699 C1697 1.433 . S
C1699 N1702 1.384 . S
C1700 H1691 0.929 . S
C1700 C1692 1.378 . S
C1700 C1695 1.350 . S
C1701 H1688 0.929 . S
C1701 C1693 1.433 . S
C1701 N1703 1.384 . S
N1702 C1698 1.427 . S
N1702 C1699 1.384 . S
N1703 C1695 1.427 . S
N1703 C1701 1.384 . S
H1704 C1710 0.930 . S
H1705 C1714 0.930 . S
H1706 C1719 0.929 . S
H1707 C1717 0.929 . S
H1708 C1712 0.929 . S
H1709 C1718 0.929 . S
C1710 H1704 0.930 . S
C1710 C1711 1.367 . S
C1710 C1718 1.378 . S
C1711 C1710 1.367 . S
C1711 C1719 1.433 . S
C1712 H1708 0.929 . S
C1712 C1714 1.378 . S
C1712 C1716 1.350 . S
C1713 C1716 1.463 . S
C1713 C1718 1.350 . S
C1713 N1721 1.427 . S
C1714 H1705 0.930 . S
C1714 C1712 1.378 . S
C1714 C1715 1.367 . S
C1715 C1714 1.367 . S
C1715 C1717 1.433 . S
C1716 C1712 1.350 . S
C1716 C1713 1.463 . S
C1716 N1720 1.427 . S
C1717 H1707 0.929 . S
C1717 C1715 1.433 . S
C1717 N1720 1.384 . S
C1718 H1709 0.929 . S
C1718 C1710 1.378 . S
C1718 C1713 1.350 . S
C1719 H1706 0.929 . S
C1719 C1711 1.433 . S
C1719 N1721 1.384 . S
N1720 C1716 1.427 . S
N1720 C1717 1.384 . S
N1721 C1713 1.427 . S
N1721 C1719 1.384 . S
H1722 C1728 0.930 . S
H1723 C1732 0.930 . S
H1724 C1737 0.929 . S
H1725 C1735 0.929 . S
H1726 C1730 0.929 . S
H1727 C1736 0.929 . S
C1728 H1722 0.930 . S
C1728 C1729 1.367 . S
C1728 C1736 1.378 . S
C1729 C1728 1.367 . S
C1729 C1737 1.433 . S
C1730 H1726 0.929 . S
C1730 C1732 1.378 . S
C1730 C1734 1.350 . S
C1731 C1734 1.463 . S
C1731 C1736 1.350 . S
C1731 N1739 1.427 . S
C1732 H1723 0.930 . S
C1732 C1730 1.378 . S
C1732 C1733 1.367 . S
C1733 C1732 1.367 . S
C1733 C1735 1.433 . S
C1734 C1730 1.350 . S
C1734 C1731 1.463 . S
C1734 N1738 1.427 . S
C1735 H1725 0.929 . S
C1735 C1733 1.433 . S
C1735 N1738 1.384 . S
C1736 H1727 0.929 . S
C1736 C1728 1.378 . S
C1736 C1731 1.350 . S
C1737 H1724 0.929 . S
C1737 C1729 1.433 . S
C1737 N1739 1.384 . S
N1738 C1734 1.427 . S
N1738 C1735 1.384 . S
N1739 C1731 1.427 . S
N1739 C1737 1.384 . S
H1740 C1746 0.930 . S
H1741 C1750 0.930 . S
H1742 C1755 0.929 . S
H1743 C1753 0.929 . S
H1744 C1748 0.929 . S
H1745 C1754 0.929 . S
C1746 H1740 0.930 . S
C1746 C1747 1.367 . S
C1746 C1754 1.378 . S
C1747 C1746 1.367 . S
C1747 C1755 1.433 . S
C1748 H1744 0.929 . S
C1748 C1750 1.378 . S
C1748 C1752 1.350 . S
C1749 C1752 1.463 . S
C1749 C1754 1.350 . S
C1749 N1757 1.427 . S
C1750 H1741 0.930 . S
C1750 C1748 1.378 . S
C1750 C1751 1.367 . S
C1751 C1750 1.367 . S
C1751 C1753 1.433 . S
C1752 C1748 1.350 . S
C1752 C1749 1.463 . S
C1752 N1756 1.427 . S
C1753 H1743 0.929 . S
C1753 C1751 1.433 . S
C1753 N1756 1.384 . S
C1754 H1745 0.929 . S
C1754 C1746 1.378 . S
C1754 C1749 1.350 . S
C1755 H1742 0.929 . S
C1755 C1747 1.433 . S
C1755 N1757 1.384 . S
N1756 C1752 1.427 . S
N1756 C1753 1.384 . S
N1757 C1749 1.427 . S
N1757 C1755 1.384 . S
H1758 C1764 0.930 . S
H1759 C1768 0.930 . S
H1760 C1773 0.929 . S
H1761 C1771 0.929 . S
H1762 C1766 0.929 . S
H1763 C1772 0.929 . S
C1764 H1758 0.930 . S
C1764 C1765 1.367 . S
C1764 C1772 1.378 . S
C1765 C1764 1.367 . S
C1765 C1773 1.433 . S
C1766 H1762 0.929 . S
C1766 C1768 1.378 . S
C1766 C1770 1.350 . S
C1767 C1770 1.463 . S
C1767 C1772 1.350 . S
C1767 N1775 1.427 . S
C1768 H1759 0.930 . S
C1768 C1766 1.378 . S
C1768 C1769 1.367 . S
C1769 C1768 1.367 . S
C1769 C1771 1.433 . S
C1770 C1766 1.350 . S
C1770 C1767 1.463 . S
C1770 N1774 1.427 . S
C1771 H1761 0.929 . S
C1771 C1769 1.433 . S
C1771 N1774 1.384 . S
C1772 H1763 0.929 . S
C1772 C1764 1.378 . S
C1772 C1767 1.350 . S
C1773 H1760 0.929 . S
C1773 C1765 1.433 . S
C1773 N1775 1.384 . S
N1774 C1770 1.427 . S
N1774 C1771 1.384 . S
N1775 C1767 1.427 . S
N1775 C1773 1.384 . S
H1776 C1782 0.930 . S
H1777 C1786 0.930 . S
H1778 C1791 0.929 . S
H1779 C1789 0.929 . S
H1780 C1784 0.929 . S
H1781 C1790 0.929 . S
C1782 H1776 0.930 . S
C1782 C1783 1.367 . S
C1782 C1790 1.378 . S
C1783 C1782 1.367 . S
C1783 C1791 1.433 . S
C1784 H1780 0.929 . S
C1784 C1786 1.378 . S
C1784 C1788 1.350 . S
C1785 C1788 1.463 . S
C1785 C1790 1.350 . S
C1785 N1793 1.427 . S
C1786 H1777 0.930 . S
C1786 C1784 1.378 . S
C1786 C1787 1.367 . S
C1787 C1786 1.367 . S
C1787 C1789 1.433 . S
C1788 C1784 1.350 . S
C1788 C1785 1.463 . S
C1788 N1792 1.427 . S
C1789 H1779 0.929 . S
C1789 C1787 1.433 . S
C1789 N1792 1.384 . S
C1790 H1781 0.929 . S
C1790 C1782 1.378 . S
C1790 C1785 1.350 . S
C1791 H1778 0.929 . S
C1791 C1783 1.433 . S
C1791 N1793 1.384 . S
N1792 C1788 1.427 . S
N1792 C1789 1.384 . S
N1793 C1785 1.427 . S
N1793 C1791 1.384 . S
H1794 C1800 0.930 . S
H1795 C1804 0.930 . S
H1796 C1809 0.929 . S
H1797 C1807 0.929 . S
H1798 C1802 0.929 . S
H1799 C1808 0.929 . S
C1800 H1794 0.930 . S
C1800 C1801 1.367 . S
C1800 C1808 1.378 . S
C1801 C1800 1.367 . S
C1801 C1809 1.433 . S
C1802 H1798 0.929 . S
C1802 C1804 1.378 . S
C1802 C1806 1.350 . S
C1803 C1806 1.463 . S
C1803 C1808 1.350 . S
C1803 N1811 1.427 . S
C1804 H1795 0.930 . S
C1804 C1802 1.378 . S
C1804 C1805 1.367 . S
C1805 C1804 1.367 . S
C1805 C1807 1.433 . S
C1806 C1802 1.350 . S
C1806 C1803 1.463 . S
C1806 N1810 1.427 . S
C1807 H1797 0.929 . S
C1807 C1805 1.433 . S
C1807 N1810 1.384 . S
C1808 H1799 0.929 . S
C1808 C1800 1.378 . S
C1808 C1803 1.350 . S
C1809 H1796 0.929 . S
C1809 C1801 1.433 . S
C1809 N1811 1.384 . S
N1810 C1806 1.427 . S
N1810 C1807 1.384 . S
N1811 C1803 1.427 . S
N1811 C1809 1.384 . S
C959 C334 1.215 . S
C955 N2 1.329 . S
C977 C434 2.147 . S
C973 C7 2.156 . S
C995 C514 1.177 . S
C991 N12 1.378 . S
C1009 C16 1.923 . S
C1013 C591 1.955 . S
C1031 C675 2.185 . S
C1027 C30 2.195 1_565 S
C1049 C754 1.086 . S
C1045 N35 1.264 . S
C1063 C39 2.043 . S
C1067 C854 2.026 . S
C1085 C934 1.150 . S
C1081 N25 1.204 . S
C1103 C332 1.098 . S
C1099 N58 1.131 . S
C1117 N81 1.871 . S
C1121 C427 1.869 . S
C1139 C518 1.179 . S
C1135 N104 1.107 . S
C1153 N127 1.170 . S
C1157 C586 0.975 . S
C1175 C670 0.771 . S
C1171 N48 0.870 . S
C1193 C752 1.445 . S
C1189 N71 1.408 1_556 S
C1207 N94 1.422 . S
C1211 C847 1.433 . S
C1229 C938 1.538 . S
C1225 N117 1.510 . S
C1243 C85 2.120 . S
C1247 C339 2.125 . S
C1261 C122 2.379 . S
C1265 C668 2.348 . S
C1279 C53 1.770 . S
C1283 C759 1.816 . S
C1301 C850 1.220 . S
C1297 C76 1.489 1_655 S
C1319 C931 1.750 . S
C1315 C99 1.832 . S
C1337 C511 1.919 . S
C1333 C131 1.945 . S
C1355 C584 1.919 . S
C1351 C62 1.972 . S
C1369 C108 1.171 . S
C1373 C430 0.987 . S
C1391 C922 1.203 . S
C1387 N140 1.381 . S
C1405 C145 2.143 . S
C1409 C686 2.135 . S
C1427 C766 1.112 . S
C1423 N150 1.276 . S
C1441 C154 1.930 . S
C1445 C843 1.962 . S
C1463 C423 2.178 . S
C1459 C168 2.190 . S
C1477 N173 1.162 . S
C1481 C502 0.995 . S
C1499 C602 2.026 . S
C1495 C177 2.042 . S
C1517 C346 1.149 . S
C1513 N163 1.224 . S
C1535 C920 1.537 . S
C1531 C200 1.573 . S
C1553 C679 2.164 . S
C1549 N219 2.162 . S
C1567 N242 1.380 . S
C1571 C770 1.470 . S
C1589 C838 1.157 . S
C1585 C269 1.467 . S
C1607 C418 0.958 . S
C1603 C191 1.144 . S
C1621 N209 1.680 . S
C1625 C500 1.714 . S
C1639 N232 1.736 . S
C1643 C595 1.753 . S
C1657 C260 2.026 . S
C1661 C350 2.020 . S
C1675 C223 1.797 . S
C1679 C927 1.801 . S
C1693 N255 1.960 . S
C1697 C416 1.951 . S
C1711 N186 1.366 . S
C1715 C507 1.424 . S
C1733 C598 0.999 . S
C1729 C214 1.166 . S
C1751 C343 1.441 . S
C1747 C237 1.508 . S
C1769 C763 1.514 . S
C1765 N265 1.471 . S
C1787 C836 1.533 . S
C1783 N196 1.533 . S
C1805 C682 0.780 . S
C1801 C246 0.851 . S
