# Generated by pormake.
# Topology ocu, (6,8)-cn, num edge types: 1
# Building blocks:
#     Node 0, Type 0, BuildingBlock: KUMBUR_clean_sbu_1, # of connection points: 6
#     Node 1, Type 0, BuildingBlock: KUMBUR_clean_sbu_1, # of connection points: 6
#     Node 2, Type 0, BuildingBlock: KUMBUR_clean_sbu_1, # of connection points: 6
#     Node 3, Type 0, BuildingBlock: KUMBUR_clean_sbu_1, # of connection points: 6
#     Node 4, Type 0, BuildingBlock: KUMBUR_clean_sbu_1, # of connection points: 6
#     Node 5, Type 0, BuildingBlock: KUMBUR_clean_sbu_1, # of connection points: 6
#     Node 6, Type 0, BuildingBlock: KUMBUR_clean_sbu_1, # of connection points: 6
#     Node 7, Type 0, BuildingBlock: KUMBUR_clean_sbu_1, # of connection points: 6
#     Node 8, Type 1, BuildingBlock: GIZVER_clean_sbu_0, # of connection points: 8
#     Node 9, Type 1, BuildingBlock: GIZVER_clean_sbu_0, # of connection points: 8
#     Node 10, Type 1, BuildingBlock: GIZVER_clean_sbu_0, # of connection points: 8
#     Node 11, Type 1, BuildingBlock: GIZVER_clean_sbu_0, # of connection points: 8
#     Node 12, Type 1, BuildingBlock: GIZVER_clean_sbu_0, # of connection points: 8
#     Node 13, Type 1, BuildingBlock: GIZVER_clean_sbu_0, # of connection points: 8
#     Edge 14, Type (0, 1), BuildingBlock: AJUNOK_clean_linker_0, # of connection points: 2
#     Edge 15, Type (0, 1), BuildingBlock: AJUNOK_clean_linker_0, # of connection points: 2
#     Edge 16, Type (0, 1), BuildingBlock: AJUNOK_clean_linker_0, # of connection points: 2
#     Edge 17, Type (0, 1), BuildingBlock: AJUNOK_clean_linker_0, # of connection points: 2
#     Edge 18, Type (0, 1), BuildingBlock: AJUNOK_clean_linker_0, # of connection points: 2
#     Edge 19, Type (0, 1), BuildingBlock: AJUNOK_clean_linker_0, # of connection points: 2
#     Edge 20, Type (0, 1), BuildingBlock: AJUNOK_clean_linker_0, # of connection points: 2
#     Edge 21, Type (0, 1), BuildingBlock: AJUNOK_clean_linker_0, # of connection points: 2
#     Edge 22, Type (0, 1), BuildingBlock: AJUNOK_clean_linker_0, # of connection points: 2
#     Edge 23, Type (0, 1), BuildingBlock: AJUNOK_clean_linker_0, # of connection points: 2
#     Edge 24, Type (0, 1), BuildingBlock: AJUNOK_clean_linker_0, # of connection points: 2
#     Edge 25, Type (0, 1), BuildingBlock: AJUNOK_clean_linker_0, # of connection points: 2
#     Edge 26, Type (0, 1), BuildingBlock: AJUNOK_clean_linker_0, # of connection points: 2
#     Edge 27, Type (0, 1), BuildingBlock: AJUNOK_clean_linker_0, # of connection points: 2
#     Edge 28, Type (0, 1), BuildingBlock: AJUNOK_clean_linker_0, # of connection points: 2
#     Edge 29, Type (0, 1), BuildingBlock: AJUNOK_clean_linker_0, # of connection points: 2
#     Edge 30, Type (0, 1), BuildingBlock: AJUNOK_clean_linker_0, # of connection points: 2
#     Edge 31, Type (0, 1), BuildingBlock: AJUNOK_clean_linker_0, # of connection points: 2
#     Edge 32, Type (0, 1), BuildingBlock: AJUNOK_clean_linker_0, # of connection points: 2
#     Edge 33, Type (0, 1), BuildingBlock: AJUNOK_clean_linker_0, # of connection points: 2
#     Edge 34, Type (0, 1), BuildingBlock: AJUNOK_clean_linker_0, # of connection points: 2
#     Edge 35, Type (0, 1), BuildingBlock: AJUNOK_clean_linker_0, # of connection points: 2
#     Edge 36, Type (0, 1), BuildingBlock: AJUNOK_clean_linker_0, # of connection points: 2
#     Edge 37, Type (0, 1), BuildingBlock: AJUNOK_clean_linker_0, # of connection points: 2
#     Edge 38, Type (0, 1), BuildingBlock: AJUNOK_clean_linker_0, # of connection points: 2
#     Edge 39, Type (0, 1), BuildingBlock: AJUNOK_clean_linker_0, # of connection points: 2
#     Edge 40, Type (0, 1), BuildingBlock: AJUNOK_clean_linker_0, # of connection points: 2
#     Edge 41, Type (0, 1), BuildingBlock: AJUNOK_clean_linker_0, # of connection points: 2
#     Edge 42, Type (0, 1), BuildingBlock: AJUNOK_clean_linker_0, # of connection points: 2
#     Edge 43, Type (0, 1), BuildingBlock: AJUNOK_clean_linker_0, # of connection points: 2
#     Edge 44, Type (0, 1), BuildingBlock: AJUNOK_clean_linker_0, # of connection points: 2
#     Edge 45, Type (0, 1), BuildingBlock: AJUNOK_clean_linker_0, # of connection points: 2
#     Edge 46, Type (0, 1), BuildingBlock: AJUNOK_clean_linker_0, # of connection points: 2
#     Edge 47, Type (0, 1), BuildingBlock: AJUNOK_clean_linker_0, # of connection points: 2
#     Edge 48, Type (0, 1), BuildingBlock: AJUNOK_clean_linker_0, # of connection points: 2
#     Edge 49, Type (0, 1), BuildingBlock: AJUNOK_clean_linker_0, # of connection points: 2
#     Edge 50, Type (0, 1), BuildingBlock: AJUNOK_clean_linker_0, # of connection points: 2
#     Edge 51, Type (0, 1), BuildingBlock: AJUNOK_clean_linker_0, # of connection points: 2
#     Edge 52, Type (0, 1), BuildingBlock: AJUNOK_clean_linker_0, # of connection points: 2
#     Edge 53, Type (0, 1), BuildingBlock: AJUNOK_clean_linker_0, # of connection points: 2
#     Edge 54, Type (0, 1), BuildingBlock: AJUNOK_clean_linker_0, # of connection points: 2
#     Edge 55, Type (0, 1), BuildingBlock: AJUNOK_clean_linker_0, # of connection points: 2
#     Edge 56, Type (0, 1), BuildingBlock: AJUNOK_clean_linker_0, # of connection points: 2
#     Edge 57, Type (0, 1), BuildingBlock: AJUNOK_clean_linker_0, # of connection points: 2
#     Edge 58, Type (0, 1), BuildingBlock: AJUNOK_clean_linker_0, # of connection points: 2
#     Edge 59, Type (0, 1), BuildingBlock: AJUNOK_clean_linker_0, # of connection points: 2
#     Edge 60, Type (0, 1), BuildingBlock: AJUNOK_clean_linker_0, # of connection points: 2
#     Edge 61, Type (0, 1), BuildingBlock: AJUNOK_clean_linker_0, # of connection points: 2
# Relax obj value: 0.197
# Max RMSD: 0.206
# Mean RMSD: 0.174
data_MOF--net-ocu--node1-KUMBUR_clean_sbu_1--node2-GIZVER_clean_sbu_0--edge1-AJUNOK_clean_linker_0
_symmetry_space_group_name_H-M    P1
_symmetry_Int_Tables_number       1
_symmetry_cell_setting            triclinic
loop_
_symmetry_equiv_pos_as_xyz
'x, y, z'
_cell_length_a     33.091602
_cell_length_b     34.418461
_cell_length_c     27.269364
_cell_angle_alpha  103.61412
_cell_angle_beta   76.737184
_cell_angle_gamma 117.54417
loop_
_atom_site_label
_atom_site_type_symbol
_atom_site_fract_x
_atom_site_fract_y
_atom_site_fract_z
_atom_type_partial_charge
Tb0 Tb 0.27908 0.26958 0.20521 0.0
C1 C 0.39288 0.41291 0.37762 0.0
N2 N 0.40469 0.39227 0.33147 0.0
C3 C 0.47264 0.45921 0.31625 0.0
C4 C 0.42054 0.45773 0.39481 0.0
C5 C 0.44491 0.41431 0.30155 0.0
C6 C 0.46028 0.48112 0.36292 0.0
C7 C 0.34242 0.40737 0.45836 0.0
C8 C 0.3542 0.38816 0.40899 0.0
C9 C 0.36953 0.45217 0.47549 0.0
C10 C 0.4084 0.47733 0.44371 0.0
Tb11 Tb 0.35723 0.31848 0.3138 0.0
N12 N 0.32866 0.34488 0.39134 0.0
C13 C 0.30427 0.38069 0.48935 0.0
C14 C 0.29274 0.31817 0.42236 0.0
C15 C 0.27945 0.33588 0.47147 0.0
H16 H 0.45648 0.39725 0.26686 0.0
H17 H 0.25058 0.31487 0.49579 0.0
H18 H 0.21818 0.16806 0.23434 0.0
H19 H 0.39072 0.3312 0.03394 0.0
H20 H 0.27436 0.28331 0.40927 0.0
H21 H 0.29445 0.39408 0.5275 0.0
H22 H 0.34408 0.33685 0.11707 0.0
H23 H 0.50411 0.47663 0.29209 0.0
H24 H 0.3609 0.46757 0.51332 0.0
H25 H 0.4292 0.51174 0.45758 0.0
H26 H 0.20824 0.09241 0.19498 0.0
H27 H 0.48233 0.51568 0.37461 0.0
H28 H 0.39284 0.25952 0.99422 0.0
N29 N 0.2694 0.19886 0.1749 0.0
C30 C 0.2924 0.19294 0.12768 0.0
C31 C 0.23237 0.12044 0.17592 0.0
C32 C 0.28772 0.1504 0.10377 0.0
C33 C 0.23844 0.16335 0.19845 0.0
C34 C 0.25739 0.11393 0.12851 0.0
N35 N 0.32427 0.27058 0.12781 0.0
C36 C 0.34663 0.30608 0.10186 0.0
C37 C 0.34675 0.22509 0.05586 0.0
C38 C 0.32169 0.23008 0.10423 0.0
C39 C 0.37319 0.26228 0.03135 0.0
C40 C 0.37221 0.30272 0.05382 0.0
H41 H 0.25286 0.08068 0.11125 0.0
H42 H 0.31088 0.11335 0.03766 0.0
H43 H 0.36314 0.17891 0.99624 0.0
O44 O 0.25063 0.27454 0.14645 0.0
O45 O 0.32267 0.23731 0.21521 0.0
O46 O 0.38829 0.29481 0.23919 0.0
O47 O 0.20781 0.23391 0.20367 0.0
O48 O 0.32701 0.34054 0.20725 0.0
O49 O 0.38511 0.34143 0.23979 0.0
O50 O 0.36405 0.26874 0.3394 0.0
O51 O 0.30206 0.34212 0.32946 0.0
O52 O 0.26827 0.32554 0.25636 0.0
O53 O 0.41208 0.33731 0.35358 0.0
O54 O 0.29868 0.25245 0.318 0.0
O55 O 0.24306 0.25174 0.28013 0.0
C56 C 0.36803 0.25483 0.21365 0.0
C57 C 0.17311 0.26563 0.16788 0.0
C58 C 0.14449 0.30952 0.13939 0.0
C59 C 0.10205 0.28939 0.16972 0.0
C60 C 0.13026 0.24607 0.19793 0.0
C61 C 0.09513 0.25803 0.19888 0.0
C62 C 0.17999 0.29746 0.13847 0.0
C63 C 0.3695 0.36074 0.21772 0.0
C64 C 0.20869 0.24999 0.16465 0.0
C65 C 0.31378 0.1457 0.05636 0.0
C66 C 0.34347 0.18298 0.03278 0.0
C67 C 0.27521 0.34621 0.30344 0.0
C68 C 0.44071 0.28507 0.3456 0.0
C69 C 0.47976 0.24817 0.36774 0.0
C70 C 0.51794 0.26799 0.33192 0.0
C71 C 0.47892 0.30466 0.30947 0.0
C72 C 0.44116 0.25653 0.37423 0.0
C73 C 0.51729 0.29592 0.3026 0.0
C74 C 0.25528 0.23724 0.31203 0.0
C75 C 0.40198 0.29698 0.35762 0.0
H76 H 0.07436 0.29839 0.17132 0.0
H77 H 0.12362 0.22105 0.22032 0.0
H78 H 1.06232 0.24276 0.22218 0.0
H79 H 0.21245 0.31233 0.11433 0.0
H80 H 0.54798 0.26169 0.3266 0.0
H81 H 0.47947 0.32739 0.28753 0.0
H82 H 0.41196 0.24169 0.40256 0.0
H83 H 0.54681 0.31129 0.27504 0.0
Tb84 Tb 0.76963 0.32469 0.28784 0.0
C85 C 0.90681 0.24528 0.14289 0.0
N86 N 0.86831 0.22451 0.17492 0.0
C87 C 0.84877 0.15737 0.11496 0.0
C88 C 0.91769 0.22306 0.0951 0.0
C89 C 0.83963 0.18084 0.16217 0.0
C90 C 0.88781 0.17865 0.08109 0.0
C91 C 0.9776 0.31112 0.12822 0.0
C92 C 0.93606 0.28866 0.15891 0.0
C93 C 0.98804 0.28966 0.07981 0.0
C94 C 0.95816 0.24573 0.06326 0.0
Tb95 Tb 0.85505 0.26695 0.24893 0.0
N96 N 0.92399 0.30856 0.20525 0.0
C97 C 1.0075 0.35408 0.14755 0.0
C98 C 0.95427 0.34921 0.22583 0.0
C99 C 0.99614 0.37288 0.19695 0.0
H100 H 0.80963 0.1641 0.18844 0.0
H101 H 1.01942 0.4057 0.21262 0.0
H102 H 0.81422 0.41845 0.36962 0.0
H103 H 0.60629 0.18071 0.29969 0.0
H104 H 0.94531 0.36383 0.26386 0.0
H105 H 1.03967 0.37267 0.12514 0.0
H106 H 0.68113 0.23015 0.2563 0.0
H107 H 0.82576 0.12289 0.10478 0.0
H108 H 1.01921 0.30647 0.05504 0.0
H109 H 0.96699 0.22943 0.02613 0.0
H110 H 0.79621 0.44487 0.46023 0.0
H111 H 0.89487 0.16038 0.04462 0.0
H112 H 0.58308 0.20081 0.39148 0.0
N113 N 0.756 0.35548 0.3702 0.0
C114 C 0.71586 0.33016 0.3972 0.0
C115 C 0.77356 0.41234 0.44311 0.0
C116 C 0.70371 0.34444 0.44889 0.0
C117 C 0.78409 0.39684 0.39189 0.0
C118 C 0.73345 0.38585 0.47192 0.0
N119 N 0.69998 0.27672 0.32316 0.0
C120 C 0.67109 0.23903 0.29626 0.0
C121 C 0.64445 0.26277 0.39907 0.0
C122 C 0.68645 0.28991 0.37266 0.0
C123 C 0.61562 0.22274 0.37253 0.0
C124 C 0.62871 0.21117 0.32072 0.0
H125 H 0.72536 0.39798 0.51159 0.0
H126 H 0.65269 0.32711 0.51574 0.0
H127 H 0.60178 0.25536 0.47249 0.0
O128 O 0.72993 0.32149 0.23571 0.0
O129 O 0.75887 0.27217 0.33099 0.0
O130 O 0.78561 0.22351 0.27765 0.0
O131 O 0.7494 0.37578 0.29743 0.0
O132 O 0.77319 0.28599 0.21191 0.0
O133 O 0.78949 0.22897 0.21615 0.0
O134 O 0.90091 0.2835 0.30012 0.0
O135 O 0.86565 0.31546 0.20111 0.0
O136 O 0.83833 0.36579 0.25001 0.0
O137 O 0.86853 0.21638 0.26285 0.0
O138 O 0.84943 0.30899 0.32298 0.0
O139 O 0.83719 0.36555 0.311 0.0
C140 C 0.7581 0.23243 0.31665 0.0
C141 C 0.74877 0.39177 0.21859 0.0
C142 C 0.73454 0.41709 0.15087 0.0
C143 C 0.77883 0.45278 0.15137 0.0
C144 C 0.79332 0.4266 0.21719 0.0
C145 C 0.8082 0.45688 0.18358 0.0
C146 C 0.72001 0.38649 0.18465 0.0
C147 C 0.76681 0.24464 0.19841 0.0
C148 C 0.73192 0.36058 0.255 0.0
C149 C 0.66234 0.31705 0.47578 0.0
C150 C 0.63298 0.27628 0.45099 0.0
C151 C 0.86509 0.35463 0.21113 0.0
C152 C 0.88491 0.22845 0.34719 0.0
C153 C 0.91184 0.213 0.41342 0.0
C154 C 0.87185 0.21104 0.44667 0.0
C155 C 0.84487 0.2257 0.38072 0.0
C156 C 0.91815 0.22174 0.36359 0.0
C157 C 0.83846 0.21712 0.4302 0.0
C158 C 0.85945 0.35138 0.33083 0.0
C159 C 0.89458 0.24289 0.29732 0.0
H160 H 0.79047 0.47859 0.12825 0.0
H161 H 0.81635 0.43088 0.2426 0.0
H162 H 0.84217 0.48428 0.18342 0.0
H163 H 0.68602 0.35898 0.1853 0.0
H164 H 0.86575 0.20333 0.48477 0.0
H165 H 0.81927 0.23151 0.3692 0.0
H166 H 0.94899 0.22346 0.33772 0.0
H167 H 0.80757 0.21529 0.45589 0.0
Tb168 Tb 0.78015 0.74945 0.31298 0.0
C169 C 0.95081 0.88862 0.18368 0.0
N170 N 0.9139 0.89488 0.21056 0.0
C171 C 0.96202 0.97251 0.23058 0.0
C172 C 0.99548 0.9235 0.18174 0.0
C173 C 0.91853 0.93634 0.2328 0.0
C174 C 1.00085 0.96587 0.20609 0.0
C175 C 0.97991 0.83922 0.12619 0.0
C176 C 0.94305 0.84773 0.15511 0.0
C177 C 1.0251 0.87275 0.12704 0.0
C178 C 1.03284 0.91508 0.15423 0.0
Tb179 Tb 0.84611 0.83244 0.21572 0.0
N180 N 0.89884 0.81679 0.15423 0.0
C181 C 0.96995 0.79757 0.09668 0.0
C182 C 0.88875 0.77872 0.11974 0.0
C183 C 0.92418 0.76785 0.09187 0.0
H184 H 0.88879 0.94133 0.25282 0.0
H185 H 0.91599 0.736 0.06812 0.0
H186 H 0.74654 0.65532 0.2317 0.0
H187 H 0.70494 0.79539 0.50145 0.0
H188 H 0.85362 0.7549 0.11658 0.0
H189 H 0.99736 0.78878 0.0762 0.0
H190 H 0.7667 0.80425 0.42781 0.0
H191 H 0.96564 1.00538 0.24817 0.0
H192 H 1.05403 0.86678 0.1053 0.0
H193 H 1.06762 0.94123 0.15292 0.0
H194 H 0.67683 0.58467 0.22375 0.0
H195 H 1.03451 0.99381 0.20501 0.0
H196 H 0.62993 0.72912 0.49822 0.0
N197 N 0.71839 0.68219 0.30188 0.0
C198 C 0.68164 0.67531 0.33899 0.0
C199 C 0.67775 0.60988 0.25642 0.0
C200 C 0.64114 0.63537 0.33621 0.0
C201 C 0.71734 0.64997 0.26117 0.0
C202 C 0.63938 0.6026 0.29397 0.0
N203 N 0.72624 0.74457 0.38316 0.0
C204 C 0.73387 0.77553 0.426 0.0
C205 C 0.64968 0.70102 0.42221 0.0
C206 C 0.68573 0.70768 0.38117 0.0
C207 C 0.65664 0.73327 0.46568 0.0
C208 C 0.69902 0.7706 0.4677 0.0
H209 H 0.60884 0.57146 0.29029 0.0
H210 H 0.57272 0.59879 0.37456 0.0
H211 H 0.58029 0.65625 0.45006 0.0
O212 O 0.84251 0.75647 0.32879 0.0
O213 O 0.75551 0.80228 0.33027 0.0
O214 O 0.8047 0.85761 0.28021 0.0
O215 O 0.77707 0.70634 0.35845 0.0
O216 O 0.82794 0.81395 0.34854 0.0
O217 O 0.86884 0.8646 0.29091 0.0
O218 O 0.78922 0.82554 0.18703 0.0
O219 O 0.878 0.7904 0.226 0.0
O220 O 0.81574 0.72576 0.24106 0.0
O221 O 0.8575 0.87242 0.16134 0.0
O222 O 0.79827 0.76488 0.18582 0.0
O223 O 0.74159 0.73985 0.25227 0.0
C224 C 0.76899 0.84131 0.31588 0.0
C225 C 0.84107 0.68959 0.33762 0.0
C226 C 0.88727 0.6574 0.35429 0.0
C227 C 0.8817 0.63058 0.30653 0.0
C228 C 0.83362 0.6608 0.29125 0.0
C229 C 0.85471 0.63214 0.27528 0.0
C230 C 0.86729 0.68723 0.36956 0.0
C231 C 0.86042 0.85228 0.33613 0.0
C232 C 0.82187 0.72217 0.35307 0.0
C233 C 0.60428 0.62915 0.37609 0.0
C234 C 0.60858 0.66189 0.41906 0.0
C235 C 0.85956 0.74681 0.22274 0.0
C236 C 0.79535 0.89006 0.16642 0.0
C237 C 0.75121 0.91831 0.13684 0.0
C238 C 0.75405 0.94772 0.18311 0.0
C239 C 0.79841 0.92026 0.21156 0.0
C240 C 0.77139 0.88883 0.12927 0.0
C241 C 0.77759 0.94871 0.21998 0.0
C242 C 0.75489 0.7416 0.2034 0.0
C243 C 0.81361 0.85731 0.1598 0.0
H244 H 0.89611 0.60669 0.29476 0.0
H245 H 0.8113 0.66012 0.26752 0.0
H246 H 0.84911 0.61025 0.23929 0.0
H247 H 0.87083 0.70736 0.40688 0.0
H248 H 0.73787 0.97004 0.19094 0.0
H249 H 0.81613 0.92136 0.24073 0.0
H250 H 0.76884 0.86512 0.09486 0.0
H251 H 0.77952 0.97149 0.25529 0.0
Tb252 Tb 0.25964 0.83169 0.28913 0.0
C253 C 0.35427 0.69964 0.28485 0.0
N254 N 0.35199 0.73591 0.31551 0.0
C255 C 0.35176 0.70829 0.38862 0.0
C256 C 0.3547 0.66562 0.30476 0.0
C257 C 0.35205 0.74138 0.36674 0.0
C258 C 0.35267 0.67001 0.35754 0.0
C259 C 0.36346 0.66215 0.19906 0.0
C260 C 0.35846 0.69793 0.23313 0.0
C261 C 0.36256 0.62732 0.21846 0.0
C262 C 0.35811 0.62902 0.27128 0.0
Tb263 Tb 0.34795 0.78614 0.27749 0.0
N264 N 0.35967 0.73249 0.21626 0.0
C265 C 0.37002 0.66296 0.14668 0.0
C266 C 0.368 0.73433 0.16515 0.0
C267 C 0.37246 0.69934 0.12969 0.0
H268 H 0.35173 0.77106 0.3909 0.0
H269 H 0.37808 0.70059 0.08928 0.0
H270 H 0.16641 0.74124 0.25652 0.0
H271 H 0.32265 0.99987 0.25653 0.0
H272 H 0.37045 0.76238 0.15151 0.0
H273 H 0.37401 0.63614 0.11914 0.0
H274 H 0.31441 0.94074 0.30044 0.0
H275 H 0.35094 0.71238 0.42938 0.0
H276 H 0.36603 0.59933 0.19298 0.0
H277 H 0.35822 0.60233 0.28576 0.0
H278 H 0.11107 0.71674 0.19595 0.0
H279 H 0.35272 0.64455 0.37449 0.0
H280 H 0.27748 0.98087 0.18642 0.0
N281 N 0.20556 0.80565 0.23525 0.0
C282 C 0.2086 0.83487 0.20733 0.0
C283 C 0.13856 0.75001 0.19848 0.0
C284 C 0.17817 0.82231 0.17182 0.0
C285 C 0.16987 0.76407 0.23294 0.0
C286 C 0.14313 0.77903 0.1672 0.0
N287 N 0.26628 0.889 0.25447 0.0
C288 C 0.2948 0.93224 0.26965 0.0
C289 C 0.24343 0.91068 0.19144 0.0
C290 C 0.24039 0.87822 0.21716 0.0
C291 C 0.27403 0.95486 0.20527 0.0
C292 C 0.2995 0.96573 0.24493 0.0
H293 H 0.1188 0.7681 0.14063 0.0
H294 H 0.15958 0.84495 0.11632 0.0
H295 H 0.21699 0.92248 0.13337 0.0
O296 O 0.22453 0.81546 0.36208 0.0
O297 O 0.33151 0.87239 0.25832 0.0
O298 O 0.35109 0.81757 0.21375 0.0
O299 O 0.21964 0.86442 0.33031 0.0
O300 O 0.31916 0.87266 0.33011 0.0
O301 O 0.32783 0.81803 0.35269 0.0
O302 O 0.41652 0.80186 0.28224 0.0
O303 O 0.29052 0.76568 0.33866 0.0
O304 O 0.23265 0.76189 0.30303 0.0
O305 O 0.39634 0.85299 0.28314 0.0
O306 O 0.29332 0.74262 0.22748 0.0
O307 O 0.26067 0.7869 0.21739 0.0
C308 C 0.35266 0.85708 0.2171 0.0
C309 C 0.14994 0.8071 0.35828 0.0
C310 C 0.08842 0.79389 0.31203 0.0
C311 C 0.06878 0.74856 0.3157 0.0
C312 C 0.12945 0.76174 0.36246 0.0
C313 C 0.08864 0.73286 0.34199 0.0
C314 C 0.12708 0.82286 0.33661 0.0
C315 C 0.33345 0.8593 0.36126 0.0
C316 C 0.19946 0.83554 0.36189 0.0
C317 C 0.18235 0.85395 0.14412 0.0
C318 C 0.21496 0.89811 0.15393 0.0
C319 C 0.24746 0.7458 0.33089 0.0
C320 C 0.46524 0.86001 0.23453 0.0
C321 C 0.50241 0.84333 0.15067 0.0
C322 C 0.52744 0.88851 0.14729 0.0
C323 C 0.48954 0.9055 0.23132 0.0
C324 C 0.47083 0.82951 0.19343 0.0
C325 C 0.52036 0.91966 0.18738 0.0
C326 C 0.26692 0.75048 0.20468 0.0
C327 C 0.43053 0.84335 0.27783 0.0
H328 H 1.0383 0.72542 0.29841 0.0
H329 H 0.14615 0.74819 0.37886 0.0
H330 H 0.07345 0.69788 0.34463 0.0
H331 H 0.14167 0.85821 0.33626 0.0
H332 H 0.55315 0.89928 0.11483 0.0
H333 H 0.48441 0.92974 0.26234 0.0
H334 H 0.45293 0.79438 0.19589 0.0
H335 H 0.53945 0.95468 0.18491 0.0
Tb336 Tb 0.28235 0.81597 0.76863 0.0
C337 C 0.38354 0.67914 0.6651 0.0
N338 N 0.34576 0.68253 0.69399 0.0
C339 C 0.29938 0.60601 0.66369 0.0
C340 C 0.38096 0.63898 0.63459 0.0
C341 C 0.30377 0.64653 0.69344 0.0
C342 C 0.33816 0.60213 0.63425 0.0
C343 C 0.46523 0.7149 0.63609 0.0
C344 C 0.42487 0.71636 0.66565 0.0
C345 C 0.46318 0.67497 0.60605 0.0
C346 C 0.42105 0.63706 0.60521 0.0
Tb347 Tb 0.35707 0.75092 0.74058 0.0
N348 N 0.42536 0.75425 0.69489 0.0
C349 C 0.50627 0.75375 0.63721 0.0
C350 C 0.46519 0.79251 0.69532 0.0
C351 C 0.50609 0.7929 0.66637 0.0
H352 H 0.27298 0.64859 0.71466 0.0
H353 H 0.53729 0.82351 0.6664 0.0
H354 H 0.34758 0.92289 0.7965 0.0
H355 H 0.10316 0.71559 0.82916 0.0
H356 H 0.46568 0.82314 0.71727 0.0
H357 H 0.538 0.75382 0.61542 0.0
H358 H 0.17815 0.73242 0.77484 0.0
H359 H 0.26596 0.57786 0.66323 0.0
H360 H 0.49384 0.67318 0.58303 0.0
H361 H 0.4198 0.60653 0.58158 0.0
H362 H 0.34458 0.98519 0.86228 0.0
H363 H 0.33461 0.57072 0.61116 0.0
H364 H 0.0942 0.77117 0.90111 0.0
N365 N 0.28254 0.87583 0.82615 0.0
C366 C 0.24411 0.86874 0.86077 0.0
C367 C 0.31619 0.9525 0.8625 0.0
C368 C 0.24027 0.90324 0.89828 0.0
C369 C 0.31795 0.9172 0.82547 0.0
C370 C 0.27729 0.94538 0.89934 0.0
N371 N 0.21186 0.79623 0.81714 0.0
C372 C 0.17485 0.75678 0.80651 0.0
C373 C 0.16498 0.81954 0.88761 0.0
C374 C 0.20722 0.82751 0.85578 0.0
C375 C 0.12735 0.77856 0.87804 0.0
C376 C 0.13224 0.74713 0.83719 0.0
H377 H 0.2755 0.97278 0.92743 0.0
H378 H 0.19551 0.92094 0.96149 0.0
H379 H 0.1294 0.84759 0.95194 0.0
O380 O 0.28157 0.81324 0.69102 0.0
O381 O 0.26184 0.76691 0.81898 0.0
O382 O 0.2843 0.71336 0.77202 0.0
O383 O 0.24618 0.8458 0.74922 0.0
O384 O 0.25395 0.74859 0.72378 0.0
O385 O 0.31612 0.7359 0.6808 0.0
O386 O 0.34614 0.76248 0.81935 0.0
O387 O 0.38491 0.80644 0.69405 0.0
O388 O 0.35067 0.85407 0.73291 0.0
O389 O 0.38705 0.72652 0.78069 0.0
O390 O 0.39453 0.82004 0.77093 0.0
O391 O 0.34118 0.84596 0.81611 0.0
C392 C 0.25794 0.72614 0.8098 0.0
C393 C 0.26917 0.86851 0.66769 0.0
C394 C 0.24752 0.89688 0.60827 0.0
C395 C 0.29287 0.93065 0.60331 0.0
C396 C 0.3138 0.90276 0.66254 0.0
C397 C 0.32561 0.93342 0.63014 0.0
C398 C 0.23621 0.86551 0.64035 0.0
C399 C 0.27334 0.72922 0.68442 0.0
C400 C 0.2564 0.83496 0.70042 0.0
C401 C 0.19907 0.89493 0.93208 0.0
C402 C 0.16141 0.85316 0.92665 0.0
C403 C 0.38013 0.84361 0.698 0.0
C404 C 0.36009 0.72588 0.87249 0.0
C405 C 0.38625 0.70643 0.93585 0.0
C406 C 0.34708 0.70509 0.97033 0.0
C407 C 0.3214 0.72497 0.90798 0.0
C408 C 0.39267 0.71695 0.88698 0.0
C409 C 0.31492 0.71444 0.9564 0.0
C410 C 0.38219 0.84511 0.80967 0.0
C411 C 0.37077 0.74361 0.82441 0.0
H412 H 0.30286 0.95569 0.57954 0.0
H413 H 0.33948 0.90579 0.68344 0.0
H414 H 0.36019 0.95975 0.62618 0.0
H415 H 0.20193 0.8386 0.64391 0.0
H416 H 0.34129 0.69648 1.00789 0.0
H417 H 0.29683 0.7338 0.89913 0.0
H418 H 0.42289 0.71804 0.86026 0.0
H419 H 0.28504 0.71383 0.98332 0.0
Tb420 Tb 0.28891 0.24324 0.81466 0.0
C421 C 0.45073 0.35931 0.66295 0.0
N422 N 0.42607 0.37343 0.70403 0.0
C423 C 0.49486 0.438 0.72481 0.0
C424 C 0.49876 0.38355 0.6518 0.0
C425 C 0.44722 0.41283 0.73421 0.0
C426 C 0.52083 0.42314 0.68369 0.0
C427 C 0.45151 0.30478 0.58832 0.0
C428 C 0.42753 0.32053 0.63163 0.0
C429 C 0.49949 0.32838 0.57744 0.0
C430 C 0.52307 0.36768 0.60913 0.0
Tb431 Tb 0.34897 0.32812 0.71692 0.0
N432 N 0.38134 0.29771 0.6445 0.0
C433 C 0.42644 0.26589 0.55725 0.0
C434 C 0.35647 0.26115 0.61283 0.0
C435 C 0.37865 0.24431 0.56922 0.0
H436 H 0.42732 0.42541 0.76496 0.0
H437 H 0.35885 0.21483 0.54474 0.0
H438 H 0.20612 0.14958 0.76589 0.0
H439 H 0.2864 0.35656 0.98895 0.0
H440 H 0.31967 0.24491 0.62093 0.0
H441 H 0.44346 0.2527 0.52355 0.0
H442 H 0.32264 0.32488 0.91127 0.0
H443 H 0.51147 0.46904 0.74906 0.0
H444 H 0.51862 0.31667 0.54451 0.0
H445 H 0.56004 0.3857 0.6001 0.0
H446 H 0.12156 0.11055 0.7819 0.0
H447 H 0.5577 0.44277 0.67645 0.0
H448 H 0.20171 0.32236 1.01151 0.0
N449 N 0.21095 0.20141 0.82807 0.0
C450 C 0.18789 0.21642 0.87014 0.0
C451 C 0.13976 0.14055 0.80678 0.0
C452 C 0.13959 0.19463 0.88152 0.0
C453 C 0.18774 0.16323 0.79725 0.0
C454 C 0.11552 0.1565 0.84886 0.0
N455 N 0.2593 0.27481 0.8884 0.0
C456 C 0.28579 0.31028 0.91999 0.0
C457 C 0.19064 0.27067 0.94605 0.0
C458 C 0.21296 0.25392 0.90192 0.0
C459 C 0.21746 0.30841 0.97725 0.0
C460 C 0.26529 0.32796 0.96446 0.0
H461 H 0.07838 0.13878 0.85624 0.0
H462 H 0.07986 0.19533 0.93432 0.0
H463 H 0.12461 0.2618 0.99091 0.0
O464 O 0.32584 0.24147 0.86657 0.0
O465 O 0.25679 0.28853 0.81586 0.0
O466 O 0.3147 0.35283 0.7889 0.0
O467 O 0.2695 0.18225 0.83833 0.0
O468 O 0.35993 0.29539 0.81905 0.0
O469 O 0.36588 0.35687 0.79378 0.0
O470 O 0.31012 0.32696 0.66513 0.0
O471 O 0.38141 0.28277 0.71547 0.0
O472 O 0.32421 0.2186 0.74387 0.0
O473 O 0.36543 0.38787 0.69208 0.0
O474 O 0.27806 0.27647 0.71461 0.0
O475 O 0.27246 0.21447 0.73716 0.0
C476 C 0.27397 0.33164 0.81506 0.0
C477 C 0.33547 0.1763 0.84878 0.0
C478 C 0.39478 0.16238 0.86989 0.0
C479 C 0.39936 0.13996 0.82034 0.0
C480 C 0.33987 0.15299 0.79957 0.0
C481 C 0.37196 0.13528 0.78541 0.0
C482 C 0.36311 0.18091 0.88385 0.0
C483 C 0.37624 0.33869 0.82328 0.0
C484 C 0.30472 0.19852 0.86283 0.0
C485 C 0.11699 0.21148 0.92509 0.0
C486 C 0.14247 0.24934 0.95734 0.0
C487 C 0.36525 0.24008 0.71866 0.0
C488 C 0.29766 0.3906 0.68217 0.0
C489 C 0.2393 0.40497 0.65966 0.0
C490 C 0.23053 0.42305 0.71048 0.0
C491 C 0.28997 0.41066 0.73235 0.0
C492 C 0.27225 0.38794 0.6459 0.0
C493 C 0.25597 0.426 0.74661 0.0
C494 C 0.26379 0.23343 0.70693 0.0
C495 C 0.32977 0.36989 0.66804 0.0
H496 H 0.42307 0.12481 0.80928 0.0
H497 H 0.31869 0.14856 0.77197 0.0
H498 H 0.37513 0.1173 0.74753 0.0
H499 H 0.35963 0.19854 0.92188 0.0
H500 H 0.20569 0.43689 0.72159 0.0
H501 H 0.31031 0.4146 0.76044 0.0
H502 H 0.27849 0.37312 0.60698 0.0
H503 H 0.25007 0.44118 0.78543 0.0
Tb504 Tb 0.80737 0.30207 0.78599 0.0
C505 C 0.88417 0.15304 0.73329 0.0
N506 N 0.88926 0.19156 0.76441 0.0
C507 C 0.8991 0.1646 0.83235 0.0
C508 C 0.88504 0.11807 0.75078 0.0
C509 C 0.89873 0.19856 0.81284 0.0
C510 C 0.89149 0.12389 0.80143 0.0
C511 C 0.88104 0.11276 0.64752 0.0
C512 C 0.88211 0.15039 0.68267 0.0
C513 C 0.87949 0.07673 0.665 0.0
C514 C 0.88145 0.07937 0.71662 0.0
Tb515 Tb 0.8867 0.24445 0.72935 0.0
N516 N 0.88528 0.18647 0.66726 0.0
C517 C 0.88344 0.11334 0.59575 0.0
C518 C 0.89047 0.18831 0.61662 0.0
C519 C 0.88861 0.15147 0.5802 0.0
H520 H 0.90503 0.23 0.8369 0.0
H521 H 0.89113 0.1525 0.54022 0.0
H522 H 0.70469 0.23622 0.83494 0.0
H523 H 0.86151 0.46412 0.736 0.0
H524 H 0.89465 0.21782 0.60446 0.0
H525 H 0.88265 0.08509 0.56743 0.0
H526 H 0.87013 0.40833 0.76948 0.0
H527 H 0.90552 0.16994 0.87111 0.0
H528 H 0.87827 0.04732 0.63871 0.0
H529 H 0.88172 0.05196 0.72934 0.0
H530 H 0.6237 0.21874 0.8328 0.0
H531 H 0.89235 0.09784 0.81644 0.0
H532 H 0.78641 0.44783 0.71319 0.0
N533 N 0.73227 0.28864 0.79122 0.0
C534 C 0.72314 0.3141 0.76877 0.0
C535 C 0.65136 0.24547 0.81412 0.0
C536 C 0.67774 0.30596 0.76669 0.0
C537 C 0.69725 0.25526 0.81506 0.0
C538 C 0.6415 0.27054 0.78909 0.0
N539 N 0.80125 0.35958 0.76364 0.0
C540 C 0.83725 0.40041 0.75939 0.0
C541 C 0.75265 0.38227 0.73497 0.0
C542 C 0.75962 0.35126 0.75356 0.0
C543 C 0.79018 0.42291 0.72724 0.0
C544 C 0.8325 0.43232 0.74044 0.0
H545 H 0.606 0.2632 0.78869 0.0
H546 H 0.63573 0.32889 0.74195 0.0
H547 H 0.70171 0.39605 0.71391 0.0
O548 O 0.81294 0.28223 0.85089 0.0
O549 O 0.8673 0.3357 0.73163 0.0
O550 O 0.88387 0.28204 0.67548 0.0
O551 O 0.79885 0.33809 0.85778 0.0
O552 O 0.88106 0.33961 0.78842 0.0
O553 O 0.89276 0.28522 0.80574 0.0
O554 O 0.94496 0.30606 0.72638 0.0
O555 O 0.83018 0.21237 0.79021 0.0
O556 O 0.77402 0.22968 0.77979 0.0
O557 O 0.95177 0.24496 0.7044 0.0
O558 O 0.83097 0.22026 0.68151 0.0
O559 O 0.77972 0.25189 0.71915 0.0
C560 C 0.88334 0.32126 0.68607 0.0
C561 C 0.76414 0.29474 0.92399 0.0
C562 C 0.69417 0.3021 0.95574 0.0
C563 C 0.67036 0.25651 0.95918 0.0
C564 C 0.74169 0.24966 0.92931 0.0
C565 C 0.69497 0.23097 0.94919 0.0
C566 C 0.74217 0.32148 0.94794 0.0
C567 C 0.90116 0.32741 0.81387 0.0
C568 C 0.80192 0.31148 0.88243 0.0
C569 C 0.67032 0.33477 0.74468 0.0
C570 C 0.70788 0.37293 0.72861 0.0
C571 C 0.78618 0.20291 0.79352 0.0
C572 C 1.00922 0.30537 0.74928 0.0
C573 C 1.06573 0.29383 0.78048 0.0
C574 C 0.08675 0.33916 0.79949 0.0
C575 C 1.03012 0.3506 0.76919 0.0
C576 C 1.02593 0.27719 0.75739 0.0
C577 C 1.06804 0.36712 0.79525 0.0
C578 C 0.79285 0.22479 0.68283 0.0
C579 C 0.97316 0.28789 0.71602 0.0
H580 H 0.63318 0.24027 0.96693 0.0
H581 H 0.75937 0.22883 0.91522 0.0
H582 H 0.67707 0.19607 0.95224 0.0
H583 H 0.76148 0.35709 0.94976 0.0
H584 H 0.11891 0.35328 0.81458 0.0
H585 H 1.01792 0.37329 0.76352 0.0
H586 H 1.01097 0.24265 0.74039 0.0
H587 H 0.08451 0.40214 0.80965 0.0
Tb588 Tb 0.78548 0.75737 0.701 0.0
C589 C 0.86031 0.88026 0.89208 0.0
N590 N 0.88437 0.87416 0.84569 0.0
C591 C 0.92797 0.95285 0.84892 0.0
C592 C 0.86817 0.92315 0.91804 0.0
C593 C 0.91847 0.90964 0.82427 0.0
C594 C 0.90248 0.95967 0.89585 0.0
C595 C 0.80105 0.84796 0.96063 0.0
C596 C 0.82676 0.84311 0.9126 0.0
C597 C 0.80743 0.8906 0.98569 0.0
C598 C 0.84103 0.92811 0.96466 0.0
Tb599 Tb 0.86467 0.8023 0.80808 0.0
N600 N 0.82076 0.80235 0.88648 0.0
C601 C 0.77092 0.80991 0.98262 0.0
C602 C 0.79571 0.76594 0.91061 0.0
C603 C 0.76935 0.7689 0.95819 0.0
H604 H 0.93857 0.90474 0.78837 0.0
H605 H 0.74821 0.7396 0.97616 0.0
H606 H 0.68001 0.68844 0.74914 0.0
H607 H 0.89847 0.73918 0.52893 0.0
H608 H 0.79636 0.73453 0.89404 0.0
H609 H 0.7505 0.81197 0.01944 0.0
H610 H 0.87435 0.78002 0.60845 0.0
H611 H 0.95485 0.98087 0.83163 0.0
H612 H 0.78718 0.8951 0.02168 0.0
H613 H 0.84588 0.96075 0.98487 0.0
H614 H 0.6274 0.6094 0.73052 0.0
H615 H 0.90958 0.99318 0.91462 0.0
H616 H 0.84963 0.65958 0.50394 0.0
N617 N 0.73232 0.68526 0.68801 0.0
C618 C 0.74392 0.66006 0.64592 0.0
C619 C 0.66022 0.62316 0.70669 0.0
C620 C 0.71409 0.6151 0.63293 0.0
C621 C 0.69053 0.66785 0.71759 0.0
C622 C 0.67215 0.59658 0.6644 0.0
N623 N 0.81344 0.7235 0.62873 0.0
C624 C 0.85308 0.74519 0.59804 0.0
C625 C 0.79747 0.65563 0.56961 0.0
C626 C 0.78514 0.68009 0.61456 0.0
C627 C 0.83895 0.6772 0.53884 0.0
C628 C 0.8667 0.72218 0.55294 0.0
H629 H 0.64834 0.56208 0.65577 0.0
H630 H 0.70418 0.55574 0.57788 0.0
H631 H 0.77685 0.5913 0.52252 0.0
O632 O 0.78246 0.8065 0.66962 0.0
O633 O 0.82743 0.72082 0.69806 0.0
O634 O 0.89093 0.77088 0.73583 0.0
O635 O 0.73318 0.73855 0.65741 0.0
O636 O 0.84762 0.82005 0.69061 0.0
O637 O 0.9024 0.82919 0.7377 0.0
O638 O 0.8839 0.76713 0.84476 0.0
O639 O 0.82611 0.84134 0.80424 0.0
O640 O 0.75962 0.78911 0.77359 0.0
O641 O 0.93142 0.83241 0.82822 0.0
O642 O 0.80969 0.73332 0.80323 0.0
O643 O 0.75336 0.74048 0.77668 0.0
C644 C 0.86943 0.73286 0.70729 0.0
C645 C 0.70643 0.79138 0.66192 0.0
C646 C 0.66887 0.82973 0.63968 0.0
C647 C 0.63016 0.80959 0.67477 0.0
C648 C 0.6673 0.77127 0.69685 0.0
C649 C 0.62937 0.78041 0.70311 0.0
C650 C 0.70721 0.82093 0.63362 0.0
C651 C 0.88964 0.84063 0.70308 0.0
C652 C 0.74455 0.7786 0.65123 0.0
C653 C 0.72662 0.59038 0.58852 0.0
C654 C 0.76806 0.61064 0.5569 0.0
C655 C 0.78216 0.82803 0.80052 0.0
C656 C 0.94316 0.80839 0.89672 0.0
C657 C 0.97187 0.7834 0.9526 0.0
C658 C 0.98871 0.82654 0.98011 0.0
C659 C 0.95831 0.8506 0.9262 0.0
C660 C 0.94974 0.77498 0.91035 0.0
C661 C 0.98116 0.85954 0.96756 0.0
C662 C 0.76595 0.72007 0.80069 0.0
C663 C 0.92471 0.79916 0.84881 0.0
H664 H 0.60064 0.81654 0.68024 0.0
H665 H 0.66568 0.74786 0.71855 0.0
H666 H 0.59909 0.76449 0.72955 0.0
H667 H 0.73692 0.83598 0.60595 0.0
H668 H 1.00766 0.83493 1.01136 0.0
H669 H 0.95368 0.87692 0.91651 0.0
H670 H 0.93892 0.7427 0.88683 0.0
H671 H 0.99371 0.8924 0.98955 0.0
Co672 Co 0.09112 0.95343 0.45288 0.0
Co673 Co 0.11695 0.99612 0.53956 0.0
Co674 Co 0.07008 0.04303 0.51163 0.0
O675 O 0.11103 1.01382 0.4843 0.0
H676 H 0.14091 1.03302 0.46853 0.0
O677 O 1.0286 0.07184 0.53832 0.0
Co678 Co 1.04681 0.13251 0.56698 0.0
Co679 Co 1.02422 0.08767 0.48073 0.0
H680 H 0.99854 0.05243 0.55354 0.0
O681 O 0.16875 0.99129 0.53822 0.0
O682 O 0.10046 0.9371 0.51474 0.0
O683 O 0.07669 0.99649 0.60325 0.0
O684 O 1.02881 0.99889 0.56111 0.0
O685 O 0.1113 0.08324 0.56272 0.0
O686 O 1.06428 0.18752 0.59894 0.0
O687 O 1.05146 0.127 0.62996 0.0
O688 O 0.11226 0.14435 0.54716 0.0
O689 O 0.11199 0.08707 0.46232 0.0
O690 O 1.06492 0.0865 0.41701 0.0
O691 O 1.0393 0.14643 0.50234 0.0
O692 O 0.97229 0.08934 0.47821 0.0
C693 C 0.07245 0.91873 0.38341 0.0
C694 C 1.00676 0.96151 0.46092 0.0
C695 C 1.03591 0.98644 0.5977 0.0
C696 C 0.14158 0.94965 0.52661 0.0
C697 C 1.06449 0.16967 0.63594 0.0
C698 C 0.13038 0.12537 0.56481 0.0
C699 C 0.10556 0.09755 0.4238 0.0
C700 C 0.99979 0.13145 0.48515 0.0
O701 O 0.07309 0.8995 0.41882 0.0
O702 O 0.08513 0.96139 0.39128 0.0
O703 O 1.02848 1.00329 0.4608 0.0
O704 O 1.02512 0.94093 0.47525 0.0
Co705 Co 0.62367 0.96009 0.94469 0.0
Co706 Co 0.5869 0.96096 0.03145 0.0
Co707 Co 0.57177 1.03835 1.01299 0.0
O708 O 0.61687 1.00961 0.99919 0.0
H709 H 0.64552 1.02969 1.01215 0.0
O710 O 0.52717 0.06686 0.02645 0.0
Co711 Co 0.5297 0.12457 0.06688 0.0
Co712 Co 0.53801 0.09506 0.97267 0.0
H713 H 0.4957 0.04442 0.02924 0.0
O714 O 0.61881 0.96479 0.07712 0.0
O715 O 0.61065 0.92331 0.99801 0.0
O716 O 0.52232 0.93512 0.0475 0.0
O717 O 0.52486 1.0022 0.0703 0.0
O718 O 0.60865 0.0864 0.065 0.0
O719 O 0.5275 0.17597 0.10457 0.0
O720 O 0.46626 0.11392 0.084 0.0
O721 O 0.59668 0.14501 0.05964 0.0
O722 O 0.61978 0.07357 0.95704 0.0
O723 O 0.59161 0.10667 0.9233 0.0
O724 O 0.53053 0.14481 1.00237 0.0
O725 O 0.48824 0.08356 0.94936 0.0
C726 C 0.67389 0.93361 0.90605 0.0
C727 C 0.52922 0.95328 0.93945 0.0
C728 C 0.50361 0.95998 0.07173 0.0
C729 C 0.62994 0.93837 0.03991 0.0
C730 C 0.48289 0.1554 0.10657 0.0
C731 C 0.62002 0.12839 0.07252 0.0
C732 C 0.62365 0.09671 0.92405 0.0
C733 C 0.49723 0.12341 0.97369 0.0
O734 O 0.63185 0.91667 0.89676 0.0
O735 O 0.68709 0.97066 0.93886 0.0
O736 O 0.53354 0.99214 0.96071 0.0
O737 O 0.55957 0.93958 0.93845 0.0
Co738 Co 0.11674 0.46026 0.96673 0.0
Co739 Co 0.11799 0.49546 0.06306 0.0
Co740 Co 0.07268 0.54232 0.02119 0.0
O741 O 0.12163 0.51858 1.00552 0.0
H742 H 0.15218 0.54178 0.99834 0.0
O743 O 1.02401 0.56682 0.03887 0.0
Co744 Co 1.0279 0.62454 0.0814 0.0
Co745 Co 1.02612 0.59211 0.98486 0.0
H746 H 0.99345 0.54347 0.04541 0.0
O747 O 0.1668 0.48944 0.07682 0.0
O748 O 0.11059 0.43899 0.03128 0.0
O749 O 1.06536 0.4873 0.1164 0.0
O750 O 1.02746 0.4969 0.06646 0.0
O751 O 0.10479 0.5852 0.07979 0.0
O752 O 1.02415 0.675 0.12137 0.0
O753 O 0.96522 0.61367 0.09326 0.0
O754 O 0.09445 0.6452 0.07903 0.0
O755 O 0.11695 0.58761 0.97429 0.0
O756 O 0.07385 0.5948 0.92846 0.0
O757 O 1.03688 0.64935 0.0182 0.0
O758 O 0.97825 0.60128 0.97438 0.0
C759 C 0.16219 0.42931 0.92908 0.0
C760 C 1.03169 0.45646 0.95342 0.0
C761 C 1.0281 0.48261 0.10525 0.0
C762 C 0.14446 0.44886 0.05589 0.0
C763 C 0.97993 0.65381 0.11942 0.0
C764 C 0.11822 0.62735 0.08786 0.0
C765 C 0.11249 0.59958 0.93548 0.0
C766 C 1.00259 0.64137 0.99528 0.0
O767 O 0.11766 0.40843 0.93007 0.0
O768 O 0.17887 0.4705 0.95227 0.0
O769 O 1.04118 0.49812 0.96247 0.0
O770 O 1.05163 0.44094 0.97326 0.0
Co771 Co 0.58093 0.45514 0.98165 0.0
Co772 Co 0.60126 0.50871 0.06751 0.0
Co773 Co 0.56304 0.54662 1.01289 0.0
O774 O 0.60261 0.51678 1.00265 0.0
H775 H 0.63387 0.53374 0.98811 0.0
O776 O 0.52453 0.57811 0.0229 0.0
Co777 Co 0.55074 0.64153 0.04276 0.0
Co778 Co 0.52952 0.58803 0.95729 0.0
H779 H 0.49291 0.562 0.03754 0.0
O780 O 0.65154 0.50892 0.0811 0.0
O781 O 0.58844 0.45005 0.0514 0.0
O782 O 0.5541 0.51227 0.12287 0.0
O783 O 0.5144 0.5095 0.06647 0.0
O784 O 0.59938 0.59147 0.06596 0.0
O785 O 0.57214 0.69746 0.06034 0.0
O786 O 0.49754 0.64765 0.06773 0.0
O787 O 0.61214 0.64591 0.02645 0.0
O788 O 0.61213 0.58285 0.95901 0.0
O789 O 0.5743 0.58086 0.90145 0.0
O790 O 0.54139 0.64657 0.97367 0.0
O791 O 0.48046 0.58593 0.9417 0.0
C792 C 0.60865 0.41302 0.95401 0.0
C793 C 0.50603 0.45992 0.96564 0.0
C794 C 0.51572 0.5017 0.10962 0.0
C795 C 0.6281 0.46655 0.06835 0.0
C796 C 0.52931 0.68849 0.07498 0.0
C797 C 0.62243 0.63186 0.05924 0.0
C798 C 0.6119 0.58961 0.91498 0.0
C799 C 0.50076 0.62825 0.95775 0.0
O800 O 0.56454 0.39869 0.96282 0.0
O801 O 0.63571 0.45542 0.9599 0.0
O802 O 0.52613 0.5009 0.96029 0.0
O803 O 0.51872 0.44676 0.99704 0.0
Co804 Co 0.14875 0.49931 0.50528 0.0
Co805 Co 0.13158 0.4947 0.4187 0.0
Co806 Co 1.0666 0.53374 0.50903 0.0
O807 O 0.09436 0.49006 0.48133 0.0
H808 H 0.07101 0.45987 0.48177 0.0
O809 O 1.03855 0.5777 0.53589 0.0
Co810 Co 0.98368 0.56582 0.50992 0.0
Co811 Co 0.99742 0.56998 0.59558 0.0
H812 H 1.06132 0.60809 0.53616 0.0
O813 O 0.13298 0.44349 0.37684 0.0
O814 O 0.18174 0.48902 0.43285 0.0
O815 O 0.14912 0.54993 0.39392 0.0
O816 O 0.10821 0.57695 0.45808 0.0
O817 O 1.02004 0.49903 0.46135 0.0
O818 O 0.93697 0.55734 0.48394 0.0
O819 O 0.9996 0.62156 0.49782 0.0
O820 O 0.96062 0.5048 0.51399 0.0
O821 O 1.02498 0.48986 0.55975 0.0
O822 O 0.97469 0.51167 0.61472 0.0
O823 O 0.95048 0.58016 0.58081 0.0
O824 O 0.99796 0.62035 0.63977 0.0
C825 C 0.1698 0.46172 0.53036 0.0
C826 C 0.15663 0.58279 0.54459 0.0
C827 C 0.13687 0.58052 0.4165 0.0
C828 C 0.16935 0.45405 0.39705 0.0
C829 C 0.95988 0.5991 0.48063 0.0
C830 C 0.97683 0.48352 0.4765 0.0
C831 C 0.99043 0.48297 0.59563 0.0
C832 C 0.96425 0.61423 0.6175 0.0
O833 O 0.19536 0.5038 0.52974 0.0
O834 O 0.13081 0.44229 0.5119 0.0
O835 O 0.11307 0.5685 0.55722 0.0
O836 O 0.17308 0.56192 0.50659 0.0
Co837 Co 0.64085 0.99589 0.51534 0.0
Co838 Co 0.62725 0.99204 0.42738 0.0
Co839 Co 0.56754 0.04204 0.51443 0.0
O840 O 0.59011 0.99384 0.48923 0.0
H841 H 0.56421 0.96509 0.49026 0.0
O842 O 0.54579 0.09081 0.54075 0.0
Co843 Co 0.49573 0.08909 0.515 0.0
Co844 Co 0.50748 0.09078 0.60222 0.0
H845 H 0.57181 0.11964 0.54034 0.0
O846 O 0.62722 0.938 0.38918 0.0
O847 O 0.67563 0.98508 0.44452 0.0
O848 O 0.64823 0.04598 0.39982 0.0
O849 O 0.60961 0.07939 0.45902 0.0
O850 O 0.51622 1.00653 0.46986 0.0
O851 O 0.45432 0.092 0.48707 0.0
O852 O 0.52203 0.14661 0.50817 0.0
O853 O 0.46307 1.02742 0.5165 0.0
O854 O 0.52597 1.00442 0.56892 0.0
O855 O 0.48478 1.03501 0.628 0.0
O856 O 0.46143 0.10164 0.58538 0.0
O857 O 0.50919 0.14444 0.64291 0.0
C858 C 0.65244 0.95077 0.53924 0.0
C859 C 0.66006 0.08564 0.55001 0.0
C860 C 0.63848 0.07882 0.41842 0.0
C861 C 0.66347 0.94931 0.40996 0.0
C862 C 0.48544 0.1326 0.48649 0.0
C863 C 0.47388 1.00021 0.48229 0.0
C864 C 0.49614 1.00321 0.60868 0.0
C865 C 0.47426 0.13615 0.62138 0.0
O866 O 0.68253 0.99211 0.54263 0.0
O867 O 0.61547 0.9381 0.51888 0.0
O868 O 0.6173 0.07722 0.55999 0.0
O869 O 0.67339 0.059 0.51755 0.0
C870 C 0.17204 0.18347 0.33282 0.0
C871 C 0.21838 0.20069 0.34042 0.0
C872 C 0.13652 0.14919 0.35821 0.0
C873 C 0.14516 0.13042 0.39313 0.0
H874 H 0.16277 0.1966 0.30697 0.0
H875 H 0.10168 0.13806 0.35106 0.0
S876 S 0.26032 0.16283 0.42714 0.0
N877 N 0.27081 0.1953 0.38537 0.0
N878 N 0.2042 0.13174 0.43358 0.0
C879 C 0.19136 0.14699 0.40095 0.0
C880 C 0.22775 0.18179 0.37467 0.0
C881 C 0.94858 0.16222 0.39963 0.0
C882 C 0.94328 0.19951 0.42838 0.0
C883 C 0.97026 0.14272 0.41713 0.0
C884 C 0.98791 0.1599 0.46387 0.0
H885 H 0.93329 0.14626 0.36485 0.0
H886 H 0.9712 0.11249 0.39491 0.0
S887 S 0.99063 0.26211 0.54875 0.0
N888 N 0.96256 0.25655 0.50265 0.0
N889 N 1.00432 0.21986 0.53526 0.0
C890 C 0.98663 0.19949 0.4909 0.0
C891 C 0.9638 0.21918 0.47333 0.0
C892 C 0.89868 0.86546 0.41249 0.0
C893 C 0.89051 0.88286 0.3757 0.0
C894 C 0.9344 0.89166 0.44257 0.0
C895 C 0.96342 0.93626 0.43698 0.0
H896 H 0.87952 0.83055 0.41575 0.0
H897 H 0.94102 0.87606 0.46805 0.0
S898 S 0.94431 1.00182 0.3616 0.0
N899 N 0.90594 0.95047 0.34678 0.0
N900 N 0.97292 0.99936 0.40203 0.0
C901 C 0.95128 0.95541 0.40568 0.0
C902 C 0.91504 0.92877 0.3752 0.0
C903 C 0.09663 0.85347 0.26925 0.0
C904 C 1.06684 0.8134 0.28873 0.0
C905 C 0.09352 0.89285 0.29422 0.0
C906 C 1.05825 0.89088 0.3349 0.0
H907 H 0.12896 0.85673 0.24632 0.0
H908 H 0.12317 0.92412 0.28882 0.0
S909 S 0.95304 0.79027 0.36456 0.0
N910 N 0.98808 0.7714 0.32504 0.0
N911 N 0.98066 0.84478 0.37033 0.0
C912 C 1.01985 0.84976 0.3381 0.0
C913 C 1.02388 0.8102 0.31377 0.0
C914 C 0.22501 0.9068 0.53152 0.0
C915 C 0.21246 0.8966 0.58159 0.0
C916 C 0.19776 0.91796 0.51004 0.0
C917 C 0.15632 0.91836 0.53722 0.0
H918 H 0.25778 0.90922 0.51008 0.0
H919 H 0.21124 0.93015 0.47373 0.0
S920 S 0.10392 0.88771 0.66598 0.0
N921 N 0.15274 0.88293 0.65535 0.0
N922 N 0.10122 0.90261 0.61395 0.0
C923 C 0.14082 0.90353 0.58478 0.0
C924 C 0.1689 0.89288 0.60722 0.0
C925 C 0.21521 0.22474 0.64265 0.0
C926 C 0.23292 0.20552 0.66742 0.0
C927 C 0.18465 0.19903 0.6069 0.0
C928 C 0.16899 0.15276 0.5957 0.0
H929 H 0.22432 0.2599 0.6514 0.0
H930 H 0.17214 0.21546 0.58898 0.0
S931 S 0.21274 0.08746 0.64113 0.0
N932 N 0.2392 0.13844 0.6704 0.0
N933 N 0.17937 0.08979 0.60636 0.0
C934 C 0.18887 0.13353 0.61748 0.0
C935 C 0.22113 0.15992 0.65272 0.0
C936 C 0.12238 0.27531 0.72261 0.0
C937 C 0.09114 0.26624 0.76754 0.0
C938 C 0.11517 0.24264 0.67971 0.0
C939 C 0.08149 0.19889 0.68302 0.0
H940 H 0.1444 0.30937 0.71671 0.0
H941 H 0.13298 0.25287 0.64313 0.0
S942 S 1.01182 0.15494 0.80136 0.0
N943 N 1.03932 0.20895 0.8192 0.0
N944 N 1.02954 0.14564 0.73981 0.0
C945 C 1.06021 0.18739 0.7316 0.0
C946 C 1.06588 0.22152 0.77462 0.0
C947 C 0.97181 0.89729 0.68454 0.0
C948 C 0.92563 0.87819 0.67565 0.0
C949 C 1.00629 0.93332 0.66119 0.0
C950 C 0.99686 0.95195 0.6268 0.0
H951 H 0.98185 0.88423 0.70973 0.0
H952 H 1.04103 0.94599 0.6695 0.0
S953 S 0.88192 0.91428 0.58888 0.0
N954 N 0.87252 0.8812 0.62946 0.0
N955 N 0.93737 0.94802 0.58478 0.0
C956 C 0.95086 0.93328 0.61732 0.0
C957 C 0.91546 0.89667 0.64163 0.0
C958 C 0.37726 0.18245 0.17047 0.0
C959 C 0.39694 0.22913 0.18577 0.0
C960 C 0.40423 0.15888 0.14464 0.0
C961 C 0.45294 0.18031 0.13322 0.0
H962 H 0.34054 0.16357 0.17943 0.0
H963 H 0.3866 0.1233 0.13424 0.0
S964 S 0.52274 0.3022 0.16421 0.0
N965 N 0.46945 0.29534 0.18619 0.0
N966 N 0.51906 0.25226 0.1397 0.0
C967 C 0.47293 0.22694 0.14857 0.0
C968 C 0.44553 0.25079 0.17425 0.0
C969 C 0.92813 0.43175 0.20767 0.0
C970 C 0.90205 0.38946 0.18204 0.0
C971 C 0.96884 0.46221 0.18273 0.0
C972 C 0.98395 0.45191 0.13093 0.0
H973 H 0.91843 0.44047 0.2479 0.0
H974 H 0.98891 0.49371 0.20421 0.0
S975 S 0.92644 0.34727 0.04565 0.0
N976 N 0.89349 0.33987 0.10139 0.0
N977 N 0.9687 0.39757 0.05427 0.0
C978 C 0.95703 0.4107 0.10434 0.0
C979 C 0.91636 0.37939 0.12991 0.0
C980 C 0.73572 0.96227 0.08942 0.0
C981 C 0.72767 0.92031 0.09762 0.0
C982 C 0.70638 0.96709 0.06445 0.0
C983 C 0.66824 0.93016 0.04594 0.0
H984 H 0.76296 0.99201 0.10574 0.0
H985 H 0.7114 1.00034 0.06339 0.0
S986 S 0.64246 0.81266 0.03958 0.0
N987 N 0.68582 0.84046 0.07319 0.0
N988 N 0.63089 0.85009 0.025 0.0
C989 C 0.66387 0.88779 0.04644 0.0
C990 C 0.69368 0.8827 0.07259 0.0
C991 C 0.21087 0.6719 0.17581 0.0
C992 C 0.2379 0.71593 0.1665 0.0
C993 C 0.17344 0.64274 0.14877 0.0
C994 C 0.16138 0.65659 0.11164 0.0
H995 H 0.2168 0.66073 0.20629 0.0
H996 H 0.15234 0.60987 0.15897 0.0
S997 S 0.22758 0.76555 0.06579 0.0
N998 N 0.25445 0.76944 0.112 0.0
N999 N 0.18441 0.71546 0.06217 0.0
C1000 C 0.1906 0.69936 0.09936 0.0
C1001 C 0.22877 0.72868 0.12636 0.0
C1002 C 0.41823 0.91034 0.87913 0.0
C1003 C 0.41739 0.87187 0.84593 0.0
C1004 C 0.45375 0.93615 0.91005 0.0
C1005 C 0.48939 0.9241 0.90996 0.0
H1006 H 0.3922 0.92135 0.88017 0.0
H1007 H 0.45352 0.96613 0.93372 0.0
S1008 S 0.50132 0.82431 0.83326 0.0
N1009 N 0.45551 0.82263 0.81716 0.0
N1010 N 0.51927 0.86913 0.87579 0.0
C1011 C 0.48764 0.88475 0.87858 0.0
C1012 C 0.45255 0.85929 0.84656 0.0
C1013 C 0.19822 0.33603 0.85677 0.0
C1014 C 0.24672 0.35728 0.84595 0.0
C1015 C 0.17194 0.35927 0.88418 0.0
C1016 C 0.19231 0.40538 0.90224 0.0
H1017 H 0.18005 0.30097 0.84335 0.0
H1018 H 0.13491 0.34061 0.89095 0.0
S1019 S 0.31853 0.47632 0.88968 0.0
N1020 N 0.31421 0.42703 0.86033 0.0
N1021 N 0.26526 0.47046 0.90995 0.0
C1022 C 0.24093 0.42675 0.89331 0.0
C1023 C 0.2678 0.40295 0.86569 0.0
C1024 C 0.70261 0.15125 0.80973 0.0
C1025 C 0.7476 0.16632 0.82063 0.0
C1026 C 0.66345 0.1266 0.84172 0.0
C1027 C 0.66672 0.11481 0.88632 0.0
H1028 H 0.69731 0.16084 0.77746 0.0
H1029 H 0.63004 0.11835 0.83233 0.0
S1030 S 0.77631 0.13966 0.92865 0.0
N1031 N 0.79311 0.16272 0.87637 0.0
N1032 N 0.71941 0.11605 0.93652 0.0
C1033 C 0.71147 0.12587 0.89531 0.0
C1034 C 0.75181 0.15134 0.86235 0.0
C1035 C 1.02091 0.75549 0.97889 0.0
C1036 C 0.97825 0.74744 0.96688 0.0
C1037 C 1.02811 0.72151 0.99009 0.0
C1038 C 0.99285 0.67808 0.98977 0.0
H1039 H 1.04929 0.78819 0.97874 0.0
H1040 H 1.062 0.72906 0.99739 0.0
S1041 S 0.87235 0.64146 0.97025 0.0
N1042 N 0.89861 0.69398 0.96189 0.0
N1043 N 0.91206 0.63027 0.98269 0.0
C1044 C 0.94935 0.67013 0.98051 0.0
C1045 C 0.9421 0.70466 0.96898 0.0
C1046 C 0.11923 0.33471 0.0779 0.0
C1047 C 0.15116 0.34386 0.11015 0.0
C1048 C 0.12008 0.36843 0.05656 0.0
C1049 C 0.15183 0.41286 0.06814 0.0
H1050 H 0.09238 0.30144 0.07056 0.0
H1051 H 0.09392 0.35998 0.03325 0.0
S1052 S 0.24705 0.45287 0.14462 0.0
N1053 N 0.21891 0.39926 0.14764 0.0
N1054 N 0.22008 0.463 0.10869 0.0
C1055 C 0.18622 0.42179 0.09718 0.0
C1056 C 0.18584 0.38722 0.11809 0.0
C1057 C 0.21166 0.64823 0.83159 0.0
C1058 C 0.22316 0.69402 0.8442 0.0
C1059 C 0.17716 0.61745 0.86236 0.0
C1060 C 0.15325 0.63146 0.90695 0.0
H1061 H 0.22856 0.63581 0.79714 0.0
H1062 H 0.16823 0.58247 0.85044 0.0
S1063 S 0.17121 0.74682 0.95946 0.0
N1064 N 0.20917 0.75134 0.90743 0.0
N1065 N 0.14349 0.69335 0.96304 0.0
C1066 C 0.16501 0.67685 0.92075 0.0
C1067 C 0.20021 0.70816 0.89005 0.0
C1068 C 0.46447 0.18978 0.91311 0.0
C1069 C 0.41827 0.16015 0.90827 0.0
C1070 C 0.48966 0.18142 0.94127 0.0
C1071 C 0.46901 0.14327 0.96503 0.0
H1072 H 0.48196 0.21767 0.89222 0.0
H1073 H 0.52627 0.20236 0.9402 0.0
S1074 S 0.34814 0.05829 0.96725 0.0
N1075 N 0.35242 0.09333 0.93196 0.0
N1076 N 0.39887 0.07862 0.98631 0.0
C1077 C 0.4218 0.11598 0.9641 0.0
C1078 C 0.3967 0.1239 0.93487 0.0
C1079 C 0.95653 0.34808 0.87585 0.0
C1080 C 0.9327 0.36072 0.85086 0.0
C1081 C 0.98769 0.37906 0.90912 0.0
C1082 C 0.9965 0.42432 0.91944 0.0
H1083 H 0.9518 0.31404 0.86903 0.0
H1084 H 1.00544 0.36721 0.92642 0.0
S1085 S 0.94092 0.47441 0.8663 0.0
N1086 N 0.91873 0.42172 0.84072 0.0
N1087 N 0.97697 0.47955 0.90297 0.0
C1088 C 0.9721 0.43724 0.8956 0.0
C1089 C 0.94037 0.40564 0.86155 0.0
C1090 C 0.77723 0.90108 0.85062 0.0
C1091 C 0.75559 0.85569 0.82902 0.0
C1092 C 0.75177 0.92625 0.87624 0.0
C1093 C 0.70303 0.90771 0.88113 0.0
H1094 H 0.81437 0.91775 0.84686 0.0
H1095 H 0.7706 0.96075 0.89137 0.0
S1096 S 0.62868 0.7898 0.83441 0.0
N1097 N 0.68132 0.79372 0.81713 0.0
N1098 N 0.63472 0.83951 0.86344 0.0
C1099 C 0.68127 0.86227 0.86026 0.0
C1100 C 0.70695 0.83691 0.83477 0.0
C1101 C 0.93667 0.74089 0.19997 0.0
C1102 C 0.88895 0.72163 0.19698 0.0
C1103 C 0.96505 0.71888 0.17545 0.0
C1104 C 0.94782 0.67615 0.14583 0.0
H1105 H 0.95248 0.77355 0.2217 0.0
H1106 H 1.0012 0.73589 0.17979 0.0
S1107 S 0.82574 0.61148 0.12278 0.0
N1108 N 0.8264 0.65724 0.15975 0.0
N1109 N 0.87886 0.61637 0.11433 0.0
C1110 C 0.90017 0.65671 0.1421 0.0
C1111 C 0.87121 0.67912 0.1673 0.0
C1112 C 0.41333 0.93197 0.1918 0.0
C1113 C 0.38582 0.88614 0.17837 0.0
C1114 C 0.44956 0.95735 0.15645 0.0
C1115 C 0.45935 0.93792 0.10618 0.0
H1116 H 0.40862 0.94775 0.23064 0.0
H1117 H 0.47167 0.99152 0.16952 0.0
S1118 S 0.39213 0.82123 0.04954 0.0
N1119 N 0.36757 0.82436 0.10935 0.0
N1120 N 0.4341 0.87111 0.0437 0.0
C1121 C 0.42961 0.89299 0.09167 0.0
C1122 C 0.39341 0.86742 0.12743 0.0
C1123 C 0.71318 0.169 0.15845 0.0
C1124 C 0.73333 0.21542 0.16153 0.0
C1125 C 0.67771 0.14129 0.12856 0.0
C1126 C 0.66051 0.15864 0.10042 0.0
H1127 H 0.72375 0.15388 0.18063 0.0
H1128 H 0.66272 0.10591 0.12887 0.0
S1129 S 0.70574 0.27774 0.08981 0.0
N1130 N 0.73659 0.27717 0.12913 0.0
N1131 N 0.66968 0.22549 0.0744 0.0
C1132 C 0.68179 0.20493 0.10144 0.0
C1133 C 0.71815 0.23312 0.13151 0.0
C1134 C 0.72567 0.6441 0.82853 0.0
C1135 C 0.72955 0.6873 0.83271 0.0
C1136 C 0.68823 0.61225 0.85615 0.0
C1137 C 0.65418 0.62306 0.88924 0.0
H1138 H 0.75071 0.63448 0.80253 0.0
H1139 H 0.68534 0.57891 0.85069 0.0
S1140 S 0.65262 0.7333 0.91856 0.0
N1141 N 0.69824 0.73975 0.87522 0.0
N1142 N 0.62977 0.68123 0.92783 0.0
C1143 C 0.65932 0.66673 0.89519 0.0
C1144 C 0.69645 0.69849 0.86669 0.0
C1145 C 0.39779 0.64816 0.96041 0.0
C1146 C 0.417 0.69111 0.94853 0.0
C1147 C 0.42568 0.62965 0.96601 0.0
C1148 C 0.47404 0.65325 0.95989 0.0
H1149 H 0.36094 0.62788 0.96321 0.0
H1150 H 0.40896 0.59577 0.97368 0.0
S1151 S 0.54027 0.77061 0.94012 0.0
N1152 N 0.48633 0.75958 0.93855 0.0
N1153 N 0.53946 0.72435 0.94903 0.0
C1154 C 0.49365 0.69755 0.95186 0.0
C1155 C 0.46492 0.71654 0.946 0.0
C1156 C 0.419 0.41384 0.87225 0.0
C1157 C 0.40852 0.36832 0.86084 0.0
C1158 C 0.44978 0.44282 0.90668 0.0
C1159 C 0.47065 0.42751 0.93246 0.0
H1160 H 0.4034 0.42749 0.85442 0.0
H1161 H 0.45726 0.47762 0.91308 0.0
S1162 S 0.45405 0.31107 0.91742 0.0
N1163 N 0.42202 0.30945 0.87807 0.0
N1164 N 0.47667 0.36295 0.94557 0.0
C1165 C 0.45903 0.38172 0.92296 0.0
C1166 C 0.42883 0.35243 0.88656 0.0
C1167 C 0.6277 0.32168 0.98077 0.0
C1168 C 0.67034 0.32805 0.95112 0.0
C1169 C 0.60614 0.34764 0.97871 0.0
C1170 C 0.62721 0.38127 0.94787 0.0
H1171 H 0.61168 0.29782 1.00713 0.0
H1172 H 0.57422 0.34317 1.00379 0.0
S1173 S 0.7363 0.41033 0.86087 0.0
N1174 N 0.72995 0.36806 0.88533 0.0
N1175 N 0.69057 0.4191 0.88626 0.0
C1176 C 0.66844 0.38711 0.91682 0.0
C1177 C 0.68979 0.35991 0.91728 0.0
C1178 C 0.65612 0.40649 0.142 0.0
C1179 C 0.70192 0.41528 0.11989 0.0
C1180 C 0.62886 0.41738 0.12036 0.0
C1181 C 0.64695 0.4381 0.07671 0.0
H1182 H 0.64257 0.39516 0.17872 0.0
H1183 H 0.59557 0.41417 0.14101 0.0
S1184 S 0.76023 0.4588 0.99803 0.0
N1185 N 0.75956 0.43607 0.04534 0.0
N1186 N 0.71044 0.46162 1.00833 0.0
C1187 C 0.69056 0.44274 0.05143 0.0
C1188 C 0.71749 0.42988 0.07209 0.0
C1189 C 0.73378 0.71383 0.11356 0.0
C1190 C 0.72015 0.71543 0.16685 0.0
C1191 C 0.70188 0.68829 0.07868 0.0
C1192 C 0.65516 0.66297 0.0956 0.0
H1193 H 0.76951 0.73195 0.09846 0.0
H1194 H 0.71415 0.6871 0.03823 0.0
S1195 S 0.59996 0.65864 0.23008 0.0
N1196 N 0.65479 0.69189 0.23397 0.0
N1197 N 0.59616 0.64304 0.16863 0.0
C1198 C 0.64079 0.66511 0.1484 0.0
C1199 C 0.67284 0.69155 0.1839 0.0
C1200 C 0.48485 0.77388 0.0903 0.0
C1201 C 0.51641 0.80987 0.11952 0.0
C1202 C 0.4864 0.73267 0.07881 0.0
C1203 C 0.51952 0.72673 0.09627 0.0
H1204 H 0.45719 0.77697 0.07913 0.0
H1205 H 0.4618 0.70557 0.05626 0.0
S1206 S 0.60652 0.80951 0.1783 0.0
N1207 N 0.57992 0.83643 0.16748 0.0
N1208 N 0.58229 0.75894 0.14701 0.0
C1209 C 0.55065 0.76236 0.12612 0.0
C1210 C 0.54972 0.80417 0.13676 0.0
C1211 C 0.40486 0.43881 0.19618 0.0
C1212 C 0.40397 0.39638 0.18809 0.0
C1213 C 0.44023 0.47315 0.16991 0.0
C1214 C 0.47493 0.46557 0.13394 0.0
H1215 H 0.37907 0.44586 0.22408 0.0
H1216 H 0.44097 0.50581 0.17852 0.0
S1217 S 0.48447 0.3588 0.09552 0.0
N1218 N 0.43976 0.34871 0.14069 0.0
N1219 N 0.50273 0.41095 0.08906 0.0
C1220 C 0.47255 0.42261 0.12434 0.0
C1221 C 0.43805 0.38862 0.15202 0.0
C1222 C 0.87168 0.66047 0.65489 0.0
C1223 C 0.89431 0.70337 0.68245 0.0
C1224 C 0.89418 0.63238 0.63263 0.0
C1225 C 0.94046 0.6451 0.63756 0.0
H1226 H 0.83578 0.64786 0.65115 0.0
H1227 H 0.87464 0.5999 0.61258 0.0
S1228 S 1.01688 0.75455 0.70337 0.0
N1229 N 0.96727 0.75719 0.71083 0.0
N1230 N 1.00852 0.70516 0.67078 0.0
C1231 C 0.96359 0.6881 0.66441 0.0
C1232 C 0.94095 0.71678 0.68636 0.0
C1233 C 0.42801 0.8807 0.62172 0.0
C1234 C 0.41779 0.88189 0.67482 0.0
C1235 C 0.4552 0.92008 0.60034 0.0
C1236 C 0.47218 0.96179 0.63146 0.0
H1237 H 0.41286 0.84969 0.59676 0.0
H1238 H 0.46094 0.91813 0.55926 0.0
S1239 S 0.46079 0.98188 0.77228 0.0
N1240 N 0.43186 0.92775 0.75755 0.0
N1241 N 0.48089 1.00119 0.71743 0.0
C1242 C 0.46426 0.96297 0.68429 0.0
C1243 C 0.43765 0.92314 0.70591 0.0
C1244 C 0.24991 0.44085 0.58641 0.0
C1245 C 0.21993 0.41102 0.62007 0.0
C1246 C 0.23302 0.45379 0.55386 0.0
C1247 C 0.18542 0.43796 0.55443 0.0
H1248 H 0.28673 0.45614 0.58716 0.0
H1249 H 0.25749 0.47843 0.53015 0.0
S1250 S 0.09255 0.35693 0.63371 0.0
N1251 N 0.14067 0.36379 0.65039 0.0
N1252 N 0.10841 0.38869 0.58934 0.0
C1253 C 0.15494 0.40618 0.58597 0.0
C1254 C 0.17234 0.39287 0.61919 0.0
C1255 C 0.77094 0.16171 0.60894 0.0
C1256 C 0.75978 0.19301 0.64574 0.0
C1257 C 0.73934 0.12849 0.57736 0.0
C1258 C 0.69436 0.1243 0.58088 0.0
H1259 H 0.8041 0.16184 0.60502 0.0
H1260 H 0.75012 0.10505 0.55088 0.0
S1261 S 0.64777 0.19973 0.66742 0.0
N1262 N 0.70043 0.21897 0.681 0.0
N1263 N 0.64126 0.15673 0.62223 0.0
C1264 C 0.683 0.15632 0.61609 0.0
C1265 C 0.71544 0.19043 0.64821 0.0
C1266 C 0.90766 0.42925 0.36694 0.0
C1267 C 0.88982 0.38355 0.36879 0.0
C1268 C 0.93513 0.46128 0.40253 0.0
C1269 C 0.94573 0.44898 0.44164 0.0
H1270 H 0.90041 0.44061 0.33764 0.0
H1271 H 0.94849 0.49598 0.39917 0.0
S1272 S 0.90775 0.33477 0.4652 0.0
N1273 N 0.88463 0.32813 0.41438 0.0
N1274 N 0.9369 0.3888 0.48103 0.0
C1275 C 0.92847 0.40379 0.44441 0.0
C1276 C 0.90039 0.37093 0.40801 0.0
C1277 C 0.69507 0.85013 0.35691 0.0
C1278 C 0.74345 0.86967 0.34322 0.0
C1279 C 0.67007 0.87588 0.37894 0.0
C1280 C 0.69193 0.92273 0.39048 0.0
H1281 H 0.67598 0.81446 0.34903 0.0
H1282 H 0.63293 0.85875 0.38693 0.0
S1283 S 0.81815 0.99093 0.3656 0.0
N1284 N 0.81206 0.93966 0.3447 0.0
N1285 N 0.76579 0.98717 0.38755 0.0
C1286 C 0.74039 0.94261 0.37874 0.0
C1287 C 0.76576 0.91649 0.35487 0.0
C1288 C 0.18187 0.6687 0.3291 0.0
C1289 C 0.2155 0.70551 0.3553 0.0
C1290 C 0.15584 0.6284 0.3492 0.0
C1291 C 0.16117 0.62402 0.39717 0.0
H1292 H 0.17688 0.67046 0.29197 0.0
H1293 H 0.13171 0.60038 0.32687 0.0
S1294 S 0.24123 0.71157 0.48324 0.0
N1295 N 0.25068 0.73527 0.43307 0.0
N1296 N 0.20073 0.66073 0.47129 0.0
C1297 C 0.19299 0.66122 0.42467 0.0
C1298 C 0.22032 0.70163 0.40372 0.0
C1299 C 0.50603 0.23597 0.43895 0.0
C1300 C 0.47979 0.21854 0.39863 0.0
C1301 C 0.50569 0.208 0.46915 0.0
C1302 C 0.48037 0.1618 0.45882 0.0
H1303 H 0.52648 0.27139 0.44747 0.0
H1304 H 0.52542 0.22253 0.50071 0.0
S1305 S 0.40457 0.10066 0.35814 0.0
N1306 N 0.426 0.15327 0.35128 0.0
N1307 N 0.42679 0.1002 0.40626 0.0
C1308 C 0.45307 0.14425 0.41917 0.0
C1309 C 0.4527 0.17281 0.38926 0.0
C1310 C 0.69531 0.90532 0.61953 0.0
C1311 C 0.66849 0.85951 0.60915 0.0
C1312 C 0.6911 0.93459 0.5952 0.0
C1313 C 0.65982 0.91888 0.55987 0.0
H1314 H 0.7184 0.91863 0.64794 0.0
H1315 H 0.71129 0.96982 0.60565 0.0
S1316 S 0.58701 0.80093 0.51456 0.0
N1317 N 0.61356 0.79924 0.55789 0.0
N1318 N 0.60532 0.854 0.51193 0.0
C1319 C 0.63468 0.87283 0.5473 0.0
C1320 C 0.63909 0.84318 0.57208 0.0
C1321 C 0.70795 0.15171 0.31625 0.0
C1322 C 0.72403 0.19492 0.34374 0.0
C1323 C 0.67886 0.11466 0.34049 0.0
C1324 C 0.66423 0.11913 0.39328 0.0
H1325 H 0.71852 0.14629 0.27556 0.0
H1326 H 0.66838 0.0821 0.31771 0.0
S1327 S 0.69713 0.22485 0.4831 0.0
N1328 N 0.72369 0.24005 0.4269 0.0
N1329 N 0.66802 0.17037 0.47255 0.0
C1330 C 0.67893 0.16225 0.4212 0.0
C1331 C 0.70907 0.20013 0.39643 0.0
C1332 C 0.95031 0.67212 0.40274 0.0
C1333 C 0.90495 0.64694 0.39172 0.0
C1334 C 0.96775 0.65818 0.43434 0.0
C1335 C 0.94005 0.61886 0.45562 0.0
H1336 H 0.97278 0.70157 0.38534 0.0
H1337 H 1.00352 0.67703 0.44006 0.0
S1338 S 0.8173 0.54419 0.44081 0.0
N1339 N 0.83211 0.58324 0.40612 0.0
N1340 N 0.86339 0.5575 0.46649 0.0
C1341 C 0.89366 0.5952 0.44687 0.0
C1342 C 0.87651 0.60907 0.41448 0.0
C1343 C 0.40536 0.88884 0.40307 0.0
C1344 C 0.36678 0.89327 0.396 0.0
C1345 C 0.43997 0.92336 0.43054 0.0
C1346 C 0.43656 0.96308 0.45396 0.0
H1347 H 0.40969 0.85904 0.38592 0.0
H1348 H 0.46951 0.91879 0.43364 0.0
S1349 S 0.33933 0.98884 0.4519 0.0
N1350 N 0.3261 0.93949 0.41706 0.0
N1351 N 0.38868 1.00268 0.47111 0.0
C1352 C 0.39669 0.96665 0.4494 0.0
C1353 C 0.3625 0.93227 0.41996 0.0
C1354 C 0.20363 0.36056 0.32105 0.0
C1355 C 0.24941 0.37459 0.32886 0.0
C1356 C 0.17851 0.38595 0.34368 0.0
C1357 C 0.19749 0.42729 0.37548 0.0
H1358 H 0.1867 0.32926 0.29729 0.0
H1359 H 0.14353 0.37279 0.3359 0.0
S1360 S 0.31788 0.48261 0.40333 0.0
N1361 N 0.31381 0.43533 0.36746 0.0
N1362 N 0.26672 0.48202 0.4105 0.0
C1363 C 0.24344 0.4421 0.38307 0.0
C1364 C 0.26919 0.41621 0.35977 0.0
C1365 C 0.37255 0.16939 0.66958 0.0
C1366 C 0.39366 0.21466 0.69106 0.0
C1367 C 0.39843 0.14478 0.6453 0.0
C1368 C 0.44691 0.1637 0.64227 0.0
H1369 H 0.33544 0.15259 0.67165 0.0
H1370 H 0.38002 0.11013 0.63039 0.0
S1371 S 0.5198 0.28155 0.68969 0.0
N1372 N 0.46691 0.2776 0.70466 0.0
N1373 N 0.51479 0.23182 0.66128 0.0
C1374 C 0.4684 0.20915 0.66274 0.0
C1375 C 0.44218 0.23437 0.68633 0.0
C1376 C 0.95965 0.37657 0.64744 0.0
C1377 C 0.91112 0.35542 0.65174 0.0
C1378 C 0.98567 0.4169 0.6273 0.0
C1379 C 0.96401 0.43801 0.61177 0.0
H1380 H 0.97757 0.36325 0.66218 0.0
H1381 H 1.02271 0.43272 0.62629 0.0
S1382 S 0.83887 0.39209 0.60635 0.0
N1383 N 0.84341 0.35584 0.6325 0.0
N1384 N 0.89167 0.43124 0.59554 0.0
C1385 C 0.91585 0.41564 0.61296 0.0
C1386 C 0.88963 0.37457 0.63278 0.0
C1387 C 0.19653 0.67812 0.65429 0.0
C1388 C 0.24475 0.69418 0.64603 0.0
C1389 C 0.16874 0.64292 0.62086 0.0
C1390 C 0.18773 0.62192 0.57745 0.0
H1391 H 0.17978 0.69219 0.68744 0.0
H1392 H 0.13181 0.63168 0.62981 0.0
S1393 S 0.31252 0.65362 0.53552 0.0
N1394 N 0.31059 0.68807 0.58856 0.0
N1395 N 0.25844 0.62175 0.52667 0.0
C1396 C 0.23604 0.63848 0.56779 0.0
C1397 C 0.26442 0.67456 0.6017 0.0
loop_
_geom_bond_atom_site_label_1
_geom_bond_atom_site_label_2
_geom_bond_distance
_geom_bond_site_symmetry_2
_ccdc_geom_bond_type
Tb0 N29 2.617 . S
Tb0 N35 2.572 . S
Tb0 O44 2.465 . S
Tb0 O45 2.387 . S
Tb0 O47 2.428 . S
Tb0 O48 2.308 . S
Tb0 O52 2.349 . S
Tb0 O55 2.393 . S
Tb0 C64 2.802 . S
C1 N2 1.379 . S
C1 C4 1.416 . S
C1 C8 1.424 . S
N2 C1 1.379 . S
N2 C5 1.334 . S
N2 Tb11 2.617 . S
C3 C5 1.390 . S
C3 C6 1.339 . S
C3 H23 0.930 . S
C4 C1 1.416 . S
C4 C6 1.416 . S
C4 C10 1.448 . S
C5 N2 1.334 . S
C5 C3 1.390 . S
C5 H16 0.930 . S
C6 C3 1.339 . S
C6 C4 1.416 . S
C6 H27 0.930 . S
C7 C8 1.413 . S
C7 C9 1.427 . S
C7 C13 1.416 . S
C8 C1 1.424 . S
C8 C7 1.413 . S
C8 N12 1.361 . S
C9 C7 1.427 . S
C9 C10 1.328 . S
C9 H24 0.929 . S
C10 C4 1.448 . S
C10 C9 1.328 . S
C10 H25 0.930 . S
Tb11 N2 2.617 . S
Tb11 N12 2.572 . S
Tb11 O46 2.349 . S
Tb11 O49 2.393 . S
Tb11 O50 2.465 . S
Tb11 O51 2.387 . S
Tb11 O53 2.428 . S
Tb11 O54 2.308 . S
Tb11 C75 2.802 . S
N12 C8 1.361 . S
N12 Tb11 2.572 . S
N12 C14 1.340 . S
C13 C7 1.416 . S
C13 C15 1.332 . S
C13 H21 0.931 . S
C14 N12 1.340 . S
C14 C15 1.407 . S
C14 H20 0.930 . S
C15 C13 1.332 . S
C15 C14 1.407 . S
C15 H17 0.929 . S
H16 C5 0.930 . S
H17 C15 0.929 . S
H18 C33 0.930 . S
H19 C40 0.929 . S
H20 C14 0.930 . S
H21 C13 0.931 . S
H22 C36 0.930 . S
H23 C3 0.930 . S
H24 C9 0.929 . S
H25 C10 0.930 . S
H26 C31 0.930 . S
H27 C6 0.930 . S
H28 C39 0.931 1_556 S
N29 Tb0 2.617 . S
N29 C30 1.379 . S
N29 C33 1.334 . S
C30 N29 1.379 . S
C30 C32 1.416 . S
C30 C38 1.424 . S
C31 H26 0.930 . S
C31 C33 1.390 . S
C31 C34 1.339 . S
C32 C30 1.416 . S
C32 C34 1.416 . S
C32 C65 1.448 . S
C33 H18 0.930 . S
C33 N29 1.334 . S
C33 C31 1.390 . S
C34 C31 1.339 . S
C34 C32 1.416 . S
C34 H41 0.930 . S
N35 Tb0 2.572 . S
N35 C36 1.340 . S
N35 C38 1.361 . S
C36 H22 0.930 . S
C36 N35 1.340 . S
C36 C40 1.407 . S
C37 C38 1.413 . S
C37 C39 1.416 . S
C37 C66 1.427 . S
C38 C30 1.424 . S
C38 N35 1.361 . S
C38 C37 1.413 . S
C39 H28 0.931 1_554 S
C39 C37 1.416 . S
C39 C40 1.332 . S
C40 H19 0.929 . S
C40 C36 1.407 . S
C40 C39 1.332 . S
H41 C34 0.930 . S
H42 C65 0.930 . S
H43 C66 0.929 1_556 S
O44 Tb0 2.465 . S
O44 C64 1.264 . S
O45 Tb0 2.387 . S
O45 C56 1.264 . S
O46 Tb11 2.349 . S
O46 C56 1.243 . S
O47 Tb0 2.428 . S
O47 C64 1.256 . S
O48 Tb0 2.308 . S
O48 C63 1.266 . S
O49 Tb11 2.393 . S
O49 C63 1.248 . S
O50 Tb11 2.465 . S
O50 C75 1.264 . S
O51 Tb11 2.387 . S
O51 C67 1.264 . S
O52 Tb0 2.349 . S
O52 C67 1.243 . S
O53 Tb11 2.428 . S
O53 C75 1.256 . S
O54 Tb11 2.308 . S
O54 C74 1.266 . S
O55 Tb0 2.393 . S
O55 C74 1.248 . S
C56 O45 1.264 . S
C56 O46 1.243 . S
C57 C60 1.399 . S
C57 C62 1.383 . S
C57 C64 1.496 . S
C58 C59 1.399 . S
C58 C62 1.389 . S
C59 C58 1.399 . S
C59 C61 1.380 . S
C59 H76 0.929 . S
C60 C57 1.399 . S
C60 C61 1.392 . S
C60 H77 0.929 . S
C61 C59 1.380 . S
C61 C60 1.392 . S
C61 H78 0.929 . S
C62 C57 1.383 . S
C62 C58 1.389 . S
C62 H79 0.931 . S
C63 O48 1.266 . S
C63 O49 1.248 . S
C64 Tb0 2.802 . S
C64 O44 1.264 . S
C64 O47 1.256 . S
C64 C57 1.496 . S
C65 C32 1.448 . S
C65 H42 0.930 . S
C65 C66 1.328 . S
C66 C37 1.427 . S
C66 H43 0.929 1_554 S
C66 C65 1.328 . S
C67 O51 1.264 . S
C67 O52 1.243 . S
C68 C71 1.399 . S
C68 C72 1.383 . S
C68 C75 1.496 . S
C69 C70 1.399 . S
C69 C72 1.389 . S
C70 C69 1.399 . S
C70 C73 1.380 . S
C70 H80 0.929 . S
C71 C68 1.399 . S
C71 C73 1.392 . S
C71 H81 0.929 . S
C72 C68 1.383 . S
C72 C69 1.389 . S
C72 H82 0.931 . S
C73 C70 1.380 . S
C73 C71 1.392 . S
C73 H83 0.929 . S
C74 O54 1.266 . S
C74 O55 1.248 . S
C75 Tb11 2.802 . S
C75 O50 1.264 . S
C75 O53 1.256 . S
C75 C68 1.496 . S
H76 C59 0.929 . S
H77 C60 0.929 . S
H78 C61 0.929 . S
H79 C62 0.931 . S
H80 C70 0.929 . S
H81 C71 0.929 . S
H82 C72 0.931 . S
H83 C73 0.929 . S
Tb84 N113 2.617 . S
Tb84 N119 2.572 . S
Tb84 O128 2.465 . S
Tb84 O129 2.387 . S
Tb84 O131 2.428 . S
Tb84 O132 2.308 . S
Tb84 O136 2.349 . S
Tb84 O139 2.393 . S
Tb84 C148 2.802 . S
C85 N86 1.379 . S
C85 C88 1.416 . S
C85 C92 1.424 . S
N86 C85 1.379 . S
N86 C89 1.334 . S
N86 Tb95 2.617 . S
C87 C89 1.390 . S
C87 C90 1.339 . S
C87 H107 0.930 . S
C88 C85 1.416 . S
C88 C90 1.416 . S
C88 C94 1.448 . S
C89 N86 1.334 . S
C89 C87 1.390 . S
C89 H100 0.930 . S
C90 C87 1.339 . S
C90 C88 1.416 . S
C90 H111 0.930 . S
C91 C92 1.413 . S
C91 C93 1.427 . S
C91 C97 1.416 . S
C92 C85 1.424 . S
C92 C91 1.413 . S
C92 N96 1.361 . S
C93 C91 1.427 . S
C93 C94 1.328 . S
C93 H108 0.929 . S
C94 C88 1.448 . S
C94 C93 1.328 . S
C94 H109 0.930 . S
Tb95 N86 2.617 . S
Tb95 N96 2.572 . S
Tb95 O130 2.349 . S
Tb95 O133 2.393 . S
Tb95 O134 2.465 . S
Tb95 O135 2.387 . S
Tb95 O137 2.428 . S
Tb95 O138 2.308 . S
Tb95 C159 2.802 . S
N96 C92 1.361 . S
N96 Tb95 2.572 . S
N96 C98 1.340 . S
C97 C91 1.416 . S
C97 C99 1.332 . S
C97 H105 0.931 . S
C98 N96 1.340 . S
C98 C99 1.407 . S
C98 H104 0.930 . S
C99 C97 1.332 . S
C99 C98 1.407 . S
C99 H101 0.929 . S
H100 C89 0.930 . S
H101 C99 0.929 . S
H102 C117 0.930 . S
H103 C124 0.929 . S
H104 C98 0.930 . S
H105 C97 0.931 . S
H106 C120 0.930 . S
H107 C87 0.930 . S
H108 C93 0.929 . S
H109 C94 0.930 . S
H110 C115 0.930 . S
H111 C90 0.930 . S
H112 C123 0.931 . S
N113 Tb84 2.617 . S
N113 C114 1.379 . S
N113 C117 1.334 . S
C114 N113 1.379 . S
C114 C116 1.416 . S
C114 C122 1.424 . S
C115 H110 0.930 . S
C115 C117 1.390 . S
C115 C118 1.339 . S
C116 C114 1.416 . S
C116 C118 1.416 . S
C116 C149 1.448 . S
C117 H102 0.930 . S
C117 N113 1.334 . S
C117 C115 1.390 . S
C118 C115 1.339 . S
C118 C116 1.416 . S
C118 H125 0.930 . S
N119 Tb84 2.572 . S
N119 C120 1.340 . S
N119 C122 1.361 . S
C120 H106 0.930 . S
C120 N119 1.340 . S
C120 C124 1.407 . S
C121 C122 1.413 . S
C121 C123 1.416 . S
C121 C150 1.427 . S
C122 C114 1.424 . S
C122 N119 1.361 . S
C122 C121 1.413 . S
C123 H112 0.931 . S
C123 C121 1.416 . S
C123 C124 1.332 . S
C124 H103 0.929 . S
C124 C120 1.407 . S
C124 C123 1.332 . S
H125 C118 0.930 . S
H126 C149 0.930 . S
H127 C150 0.929 . S
O128 Tb84 2.465 . S
O128 C148 1.264 . S
O129 Tb84 2.387 . S
O129 C140 1.264 . S
O130 Tb95 2.349 . S
O130 C140 1.243 . S
O131 Tb84 2.428 . S
O131 C148 1.256 . S
O132 Tb84 2.308 . S
O132 C147 1.266 . S
O133 Tb95 2.393 . S
O133 C147 1.248 . S
O134 Tb95 2.465 . S
O134 C159 1.264 . S
O135 Tb95 2.387 . S
O135 C151 1.264 . S
O136 Tb84 2.349 . S
O136 C151 1.243 . S
O137 Tb95 2.428 . S
O137 C159 1.256 . S
O138 Tb95 2.308 . S
O138 C158 1.266 . S
O139 Tb84 2.393 . S
O139 C158 1.248 . S
C140 O129 1.264 . S
C140 O130 1.243 . S
C141 C144 1.399 . S
C141 C146 1.383 . S
C141 C148 1.496 . S
C142 C143 1.399 . S
C142 C146 1.389 . S
C143 C142 1.399 . S
C143 C145 1.380 . S
C143 H160 0.929 . S
C144 C141 1.399 . S
C144 C145 1.392 . S
C144 H161 0.929 . S
C145 C143 1.380 . S
C145 C144 1.392 . S
C145 H162 0.929 . S
C146 C141 1.383 . S
C146 C142 1.389 . S
C146 H163 0.931 . S
C147 O132 1.266 . S
C147 O133 1.248 . S
C148 Tb84 2.802 . S
C148 O128 1.264 . S
C148 O131 1.256 . S
C148 C141 1.496 . S
C149 C116 1.448 . S
C149 H126 0.930 . S
C149 C150 1.328 . S
C150 C121 1.427 . S
C150 H127 0.929 . S
C150 C149 1.328 . S
C151 O135 1.264 . S
C151 O136 1.243 . S
C152 C155 1.399 . S
C152 C156 1.383 . S
C152 C159 1.496 . S
C153 C154 1.399 . S
C153 C156 1.389 . S
C154 C153 1.399 . S
C154 C157 1.380 . S
C154 H164 0.929 . S
C155 C152 1.399 . S
C155 C157 1.392 . S
C155 H165 0.929 . S
C156 C152 1.383 . S
C156 C153 1.389 . S
C156 H166 0.931 . S
C157 C154 1.380 . S
C157 C155 1.392 . S
C157 H167 0.929 . S
C158 O138 1.266 . S
C158 O139 1.248 . S
C159 Tb95 2.802 . S
C159 O134 1.264 . S
C159 O137 1.256 . S
C159 C152 1.496 . S
H160 C143 0.929 . S
H161 C144 0.929 . S
H162 C145 0.929 . S
H163 C146 0.931 . S
H164 C154 0.929 . S
H165 C155 0.929 . S
H166 C156 0.931 . S
H167 C157 0.929 . S
Tb168 N197 2.617 . S
Tb168 N203 2.572 . S
Tb168 O212 2.465 . S
Tb168 O213 2.387 . S
Tb168 O215 2.428 . S
Tb168 O216 2.308 . S
Tb168 O220 2.349 . S
Tb168 O223 2.393 . S
Tb168 C232 2.802 . S
C169 N170 1.379 . S
C169 C172 1.416 . S
C169 C176 1.424 . S
N170 C169 1.379 . S
N170 C173 1.334 . S
N170 Tb179 2.617 . S
C171 C173 1.390 . S
C171 C174 1.339 . S
C171 H191 0.930 . S
C172 C169 1.416 . S
C172 C174 1.416 . S
C172 C178 1.448 . S
C173 N170 1.334 . S
C173 C171 1.390 . S
C173 H184 0.930 . S
C174 C171 1.339 . S
C174 C172 1.416 . S
C174 H195 0.930 . S
C175 C176 1.413 . S
C175 C177 1.427 . S
C175 C181 1.416 . S
C176 C169 1.424 . S
C176 C175 1.413 . S
C176 N180 1.361 . S
C177 C175 1.427 . S
C177 C178 1.328 . S
C177 H192 0.929 1_554 S
C178 C172 1.448 . S
C178 C177 1.328 . S
C178 H193 0.930 . S
Tb179 N170 2.617 . S
Tb179 N180 2.572 . S
Tb179 O214 2.349 . S
Tb179 O217 2.393 . S
Tb179 O218 2.465 . S
Tb179 O219 2.387 . S
Tb179 O221 2.428 . S
Tb179 O222 2.308 . S
Tb179 C243 2.802 . S
N180 C176 1.361 . S
N180 Tb179 2.572 . S
N180 C182 1.340 . S
C181 C175 1.416 . S
C181 C183 1.332 . S
C181 H189 0.931 1_554 S
C182 N180 1.340 . S
C182 C183 1.407 . S
C182 H188 0.930 . S
C183 C181 1.332 . S
C183 C182 1.407 . S
C183 H185 0.929 . S
H184 C173 0.930 . S
H185 C183 0.929 . S
H186 C201 0.930 . S
H187 C208 0.929 . S
H188 C182 0.930 . S
H189 C181 0.931 1_556 S
H190 C204 0.930 . S
H191 C171 0.930 . S
H192 C177 0.929 1_556 S
H193 C178 0.930 . S
H194 C199 0.930 . S
H195 C174 0.930 . S
H196 C207 0.931 . S
N197 Tb168 2.617 . S
N197 C198 1.379 . S
N197 C201 1.334 . S
C198 N197 1.379 . S
C198 C200 1.416 . S
C198 C206 1.424 . S
C199 H194 0.930 . S
C199 C201 1.390 . S
C199 C202 1.339 . S
C200 C198 1.416 . S
C200 C202 1.416 . S
C200 C233 1.448 . S
C201 H186 0.930 . S
C201 N197 1.334 . S
C201 C199 1.390 . S
C202 C199 1.339 . S
C202 C200 1.416 . S
C202 H209 0.930 . S
N203 Tb168 2.572 . S
N203 C204 1.340 . S
N203 C206 1.361 . S
C204 H190 0.930 . S
C204 N203 1.340 . S
C204 C208 1.407 . S
C205 C206 1.413 . S
C205 C207 1.416 . S
C205 C234 1.427 . S
C206 C198 1.424 . S
C206 N203 1.361 . S
C206 C205 1.413 . S
C207 H196 0.931 . S
C207 C205 1.416 . S
C207 C208 1.332 . S
C208 H187 0.929 . S
C208 C204 1.407 . S
C208 C207 1.332 . S
H209 C202 0.930 . S
H210 C233 0.930 . S
H211 C234 0.929 . S
O212 Tb168 2.465 . S
O212 C232 1.264 . S
O213 Tb168 2.387 . S
O213 C224 1.264 . S
O214 Tb179 2.349 . S
O214 C224 1.243 . S
O215 Tb168 2.428 . S
O215 C232 1.256 . S
O216 Tb168 2.308 . S
O216 C231 1.266 . S
O217 Tb179 2.393 . S
O217 C231 1.248 . S
O218 Tb179 2.465 . S
O218 C243 1.264 . S
O219 Tb179 2.387 . S
O219 C235 1.264 . S
O220 Tb168 2.349 . S
O220 C235 1.243 . S
O221 Tb179 2.428 . S
O221 C243 1.256 . S
O222 Tb179 2.308 . S
O222 C242 1.266 . S
O223 Tb168 2.393 . S
O223 C242 1.248 . S
C224 O213 1.264 . S
C224 O214 1.243 . S
C225 C228 1.399 . S
C225 C230 1.383 . S
C225 C232 1.496 . S
C226 C227 1.399 . S
C226 C230 1.389 . S
C227 C226 1.399 . S
C227 C229 1.380 . S
C227 H244 0.929 . S
C228 C225 1.399 . S
C228 C229 1.392 . S
C228 H245 0.929 . S
C229 C227 1.380 . S
C229 C228 1.392 . S
C229 H246 0.929 . S
C230 C225 1.383 . S
C230 C226 1.389 . S
C230 H247 0.931 . S
C231 O216 1.266 . S
C231 O217 1.248 . S
C232 Tb168 2.802 . S
C232 O212 1.264 . S
C232 O215 1.256 . S
C232 C225 1.496 . S
C233 C200 1.448 . S
C233 H210 0.930 . S
C233 C234 1.328 . S
C234 C205 1.427 . S
C234 H211 0.929 . S
C234 C233 1.328 . S
C235 O219 1.264 . S
C235 O220 1.243 . S
C236 C239 1.399 . S
C236 C240 1.383 . S
C236 C243 1.496 . S
C237 C238 1.399 . S
C237 C240 1.389 . S
C238 C237 1.399 . S
C238 C241 1.380 . S
C238 H248 0.929 . S
C239 C236 1.399 . S
C239 C241 1.392 . S
C239 H249 0.929 . S
C240 C236 1.383 . S
C240 C237 1.389 . S
C240 H250 0.931 . S
C241 C238 1.380 . S
C241 C239 1.392 . S
C241 H251 0.929 . S
C242 O222 1.266 . S
C242 O223 1.248 . S
C243 Tb179 2.802 . S
C243 O218 1.264 . S
C243 O221 1.256 . S
C243 C236 1.496 . S
H244 C227 0.929 . S
H245 C228 0.929 . S
H246 C229 0.929 . S
H247 C230 0.931 . S
H248 C238 0.929 . S
H249 C239 0.929 . S
H250 C240 0.931 . S
H251 C241 0.929 . S
Tb252 N281 2.617 . S
Tb252 N287 2.572 . S
Tb252 O296 2.465 . S
Tb252 O297 2.387 . S
Tb252 O299 2.428 . S
Tb252 O300 2.308 . S
Tb252 O304 2.349 . S
Tb252 O307 2.393 . S
Tb252 C316 2.802 . S
C253 N254 1.379 . S
C253 C256 1.416 . S
C253 C260 1.424 . S
N254 C253 1.379 . S
N254 C257 1.334 . S
N254 Tb263 2.617 . S
C255 C257 1.390 . S
C255 C258 1.339 . S
C255 H275 0.930 . S
C256 C253 1.416 . S
C256 C258 1.416 . S
C256 C262 1.448 . S
C257 N254 1.334 . S
C257 C255 1.390 . S
C257 H268 0.930 . S
C258 C255 1.339 . S
C258 C256 1.416 . S
C258 H279 0.930 . S
C259 C260 1.413 . S
C259 C261 1.427 . S
C259 C265 1.416 . S
C260 C253 1.424 . S
C260 C259 1.413 . S
C260 N264 1.361 . S
C261 C259 1.427 . S
C261 C262 1.328 . S
C261 H276 0.929 . S
C262 C256 1.448 . S
C262 C261 1.328 . S
C262 H277 0.930 . S
Tb263 N254 2.617 . S
Tb263 N264 2.572 . S
Tb263 O298 2.349 . S
Tb263 O301 2.393 . S
Tb263 O302 2.465 . S
Tb263 O303 2.387 . S
Tb263 O305 2.428 . S
Tb263 O306 2.308 . S
Tb263 C327 2.802 . S
N264 C260 1.361 . S
N264 Tb263 2.572 . S
N264 C266 1.340 . S
C265 C259 1.416 . S
C265 C267 1.332 . S
C265 H273 0.931 . S
C266 N264 1.340 . S
C266 C267 1.407 . S
C266 H272 0.930 . S
C267 C265 1.332 . S
C267 C266 1.407 . S
C267 H269 0.929 . S
H268 C257 0.930 . S
H269 C267 0.929 . S
H270 C285 0.930 . S
H271 C292 0.929 . S
H272 C266 0.930 . S
H273 C265 0.931 . S
H274 C288 0.930 . S
H275 C255 0.930 . S
H276 C261 0.929 . S
H277 C262 0.930 . S
H278 C283 0.930 . S
H279 C258 0.930 . S
H280 C291 0.931 . S
N281 Tb252 2.617 . S
N281 C282 1.379 . S
N281 C285 1.334 . S
C282 N281 1.379 . S
C282 C284 1.416 . S
C282 C290 1.424 . S
C283 H278 0.930 . S
C283 C285 1.390 . S
C283 C286 1.339 . S
C284 C282 1.416 . S
C284 C286 1.416 . S
C284 C317 1.448 . S
C285 H270 0.930 . S
C285 N281 1.334 . S
C285 C283 1.390 . S
C286 C283 1.339 . S
C286 C284 1.416 . S
C286 H293 0.930 . S
N287 Tb252 2.572 . S
N287 C288 1.340 . S
N287 C290 1.361 . S
C288 H274 0.930 . S
C288 N287 1.340 . S
C288 C292 1.407 . S
C289 C290 1.413 . S
C289 C291 1.416 . S
C289 C318 1.427 . S
C290 C282 1.424 . S
C290 N287 1.361 . S
C290 C289 1.413 . S
C291 H280 0.931 . S
C291 C289 1.416 . S
C291 C292 1.332 . S
C292 H271 0.929 . S
C292 C288 1.407 . S
C292 C291 1.332 . S
H293 C286 0.930 . S
H294 C317 0.930 . S
H295 C318 0.929 . S
O296 Tb252 2.465 . S
O296 C316 1.264 . S
O297 Tb252 2.387 . S
O297 C308 1.264 . S
O298 Tb263 2.349 . S
O298 C308 1.243 . S
O299 Tb252 2.428 . S
O299 C316 1.256 . S
O300 Tb252 2.308 . S
O300 C315 1.266 . S
O301 Tb263 2.393 . S
O301 C315 1.248 . S
O302 Tb263 2.465 . S
O302 C327 1.264 . S
O303 Tb263 2.387 . S
O303 C319 1.264 . S
O304 Tb252 2.349 . S
O304 C319 1.243 . S
O305 Tb263 2.428 . S
O305 C327 1.256 . S
O306 Tb263 2.308 . S
O306 C326 1.266 . S
O307 Tb252 2.393 . S
O307 C326 1.248 . S
C308 O297 1.264 . S
C308 O298 1.243 . S
C309 C312 1.399 . S
C309 C314 1.383 . S
C309 C316 1.496 . S
C310 C311 1.399 . S
C310 C314 1.389 . S
C311 C310 1.399 . S
C311 C313 1.380 . S
C311 H328 0.929 . S
C312 C309 1.399 . S
C312 C313 1.392 . S
C312 H329 0.929 . S
C313 C311 1.380 . S
C313 C312 1.392 . S
C313 H330 0.929 . S
C314 C309 1.383 . S
C314 C310 1.389 . S
C314 H331 0.931 . S
C315 O300 1.266 . S
C315 O301 1.248 . S
C316 Tb252 2.802 . S
C316 O296 1.264 . S
C316 O299 1.256 . S
C316 C309 1.496 . S
C317 C284 1.448 . S
C317 H294 0.930 . S
C317 C318 1.328 . S
C318 C289 1.427 . S
C318 H295 0.929 . S
C318 C317 1.328 . S
C319 O303 1.264 . S
C319 O304 1.243 . S
C320 C323 1.399 . S
C320 C324 1.383 . S
C320 C327 1.496 . S
C321 C322 1.399 . S
C321 C324 1.389 . S
C322 C321 1.399 . S
C322 C325 1.380 . S
C322 H332 0.929 . S
C323 C320 1.399 . S
C323 C325 1.392 . S
C323 H333 0.929 . S
C324 C320 1.383 . S
C324 C321 1.389 . S
C324 H334 0.931 . S
C325 C322 1.380 . S
C325 C323 1.392 . S
C325 H335 0.929 . S
C326 O306 1.266 . S
C326 O307 1.248 . S
C327 Tb263 2.802 . S
C327 O302 1.264 . S
C327 O305 1.256 . S
C327 C320 1.496 . S
H328 C311 0.929 . S
H329 C312 0.929 . S
H330 C313 0.929 . S
H331 C314 0.931 . S
H332 C322 0.929 . S
H333 C323 0.929 . S
H334 C324 0.931 . S
H335 C325 0.929 . S
Tb336 N365 2.617 . S
Tb336 N371 2.572 . S
Tb336 O380 2.465 . S
Tb336 O381 2.387 . S
Tb336 O383 2.428 . S
Tb336 O384 2.308 . S
Tb336 O388 2.349 . S
Tb336 O391 2.393 . S
Tb336 C400 2.802 . S
C337 N338 1.379 . S
C337 C340 1.416 . S
C337 C344 1.424 . S
N338 C337 1.379 . S
N338 C341 1.334 . S
N338 Tb347 2.617 . S
C339 C341 1.390 . S
C339 C342 1.339 . S
C339 H359 0.930 . S
C340 C337 1.416 . S
C340 C342 1.416 . S
C340 C346 1.448 . S
C341 N338 1.334 . S
C341 C339 1.390 . S
C341 H352 0.930 . S
C342 C339 1.339 . S
C342 C340 1.416 . S
C342 H363 0.930 . S
C343 C344 1.413 . S
C343 C345 1.427 . S
C343 C349 1.416 . S
C344 C337 1.424 . S
C344 C343 1.413 . S
C344 N348 1.361 . S
C345 C343 1.427 . S
C345 C346 1.328 . S
C345 H360 0.929 . S
C346 C340 1.448 . S
C346 C345 1.328 . S
C346 H361 0.930 . S
Tb347 N338 2.617 . S
Tb347 N348 2.572 . S
Tb347 O382 2.349 . S
Tb347 O385 2.393 . S
Tb347 O386 2.465 . S
Tb347 O387 2.387 . S
Tb347 O389 2.428 . S
Tb347 O390 2.308 . S
Tb347 C411 2.802 . S
N348 C344 1.361 . S
N348 Tb347 2.572 . S
N348 C350 1.340 . S
C349 C343 1.416 . S
C349 C351 1.332 . S
C349 H357 0.931 . S
C350 N348 1.340 . S
C350 C351 1.407 . S
C350 H356 0.930 . S
C351 C349 1.332 . S
C351 C350 1.407 . S
C351 H353 0.929 . S
H352 C341 0.930 . S
H353 C351 0.929 . S
H354 C369 0.930 . S
H355 C376 0.929 . S
H356 C350 0.930 . S
H357 C349 0.931 . S
H358 C372 0.930 . S
H359 C339 0.930 . S
H360 C345 0.929 . S
H361 C346 0.930 . S
H362 C367 0.930 . S
H363 C342 0.930 . S
H364 C375 0.931 . S
N365 Tb336 2.617 . S
N365 C366 1.379 . S
N365 C369 1.334 . S
C366 N365 1.379 . S
C366 C368 1.416 . S
C366 C374 1.424 . S
C367 H362 0.930 . S
C367 C369 1.390 . S
C367 C370 1.339 . S
C368 C366 1.416 . S
C368 C370 1.416 . S
C368 C401 1.448 . S
C369 H354 0.930 . S
C369 N365 1.334 . S
C369 C367 1.390 . S
C370 C367 1.339 . S
C370 C368 1.416 . S
C370 H377 0.930 . S
N371 Tb336 2.572 . S
N371 C372 1.340 . S
N371 C374 1.361 . S
C372 H358 0.930 . S
C372 N371 1.340 . S
C372 C376 1.407 . S
C373 C374 1.413 . S
C373 C375 1.416 . S
C373 C402 1.427 . S
C374 C366 1.424 . S
C374 N371 1.361 . S
C374 C373 1.413 . S
C375 H364 0.931 . S
C375 C373 1.416 . S
C375 C376 1.332 . S
C376 H355 0.929 . S
C376 C372 1.407 . S
C376 C375 1.332 . S
H377 C370 0.930 . S
H378 C401 0.930 . S
H379 C402 0.929 . S
O380 Tb336 2.465 . S
O380 C400 1.264 . S
O381 Tb336 2.387 . S
O381 C392 1.264 . S
O382 Tb347 2.349 . S
O382 C392 1.243 . S
O383 Tb336 2.428 . S
O383 C400 1.256 . S
O384 Tb336 2.308 . S
O384 C399 1.266 . S
O385 Tb347 2.393 . S
O385 C399 1.248 . S
O386 Tb347 2.465 . S
O386 C411 1.264 . S
O387 Tb347 2.387 . S
O387 C403 1.264 . S
O388 Tb336 2.349 . S
O388 C403 1.243 . S
O389 Tb347 2.428 . S
O389 C411 1.256 . S
O390 Tb347 2.308 . S
O390 C410 1.266 . S
O391 Tb336 2.393 . S
O391 C410 1.248 . S
C392 O381 1.264 . S
C392 O382 1.243 . S
C393 C396 1.399 . S
C393 C398 1.383 . S
C393 C400 1.496 . S
C394 C395 1.399 . S
C394 C398 1.389 . S
C395 C394 1.399 . S
C395 C397 1.380 . S
C395 H412 0.929 . S
C396 C393 1.399 . S
C396 C397 1.392 . S
C396 H413 0.929 . S
C397 C395 1.380 . S
C397 C396 1.392 . S
C397 H414 0.929 . S
C398 C393 1.383 . S
C398 C394 1.389 . S
C398 H415 0.931 . S
C399 O384 1.266 . S
C399 O385 1.248 . S
C400 Tb336 2.802 . S
C400 O380 1.264 . S
C400 O383 1.256 . S
C400 C393 1.496 . S
C401 C368 1.448 . S
C401 H378 0.930 . S
C401 C402 1.328 . S
C402 C373 1.427 . S
C402 H379 0.929 . S
C402 C401 1.328 . S
C403 O387 1.264 . S
C403 O388 1.243 . S
C404 C407 1.399 . S
C404 C408 1.383 . S
C404 C411 1.496 . S
C405 C406 1.399 . S
C405 C408 1.389 . S
C406 C405 1.399 . S
C406 C409 1.380 . S
C406 H416 0.929 . S
C407 C404 1.399 . S
C407 C409 1.392 . S
C407 H417 0.929 . S
C408 C404 1.383 . S
C408 C405 1.389 . S
C408 H418 0.931 . S
C409 C406 1.380 . S
C409 C407 1.392 . S
C409 H419 0.929 . S
C410 O390 1.266 . S
C410 O391 1.248 . S
C411 Tb347 2.802 . S
C411 O386 1.264 . S
C411 O389 1.256 . S
C411 C404 1.496 . S
H412 C395 0.929 . S
H413 C396 0.929 . S
H414 C397 0.929 . S
H415 C398 0.931 . S
H416 C406 0.929 . S
H417 C407 0.929 . S
H418 C408 0.931 . S
H419 C409 0.929 . S
Tb420 N449 2.617 . S
Tb420 N455 2.572 . S
Tb420 O464 2.465 . S
Tb420 O465 2.387 . S
Tb420 O467 2.428 . S
Tb420 O468 2.308 . S
Tb420 O472 2.349 . S
Tb420 O475 2.393 . S
Tb420 C484 2.802 . S
C421 N422 1.379 . S
C421 C424 1.416 . S
C421 C428 1.424 . S
N422 C421 1.379 . S
N422 C425 1.334 . S
N422 Tb431 2.617 . S
C423 C425 1.390 . S
C423 C426 1.339 . S
C423 H443 0.930 . S
C424 C421 1.416 . S
C424 C426 1.416 . S
C424 C430 1.448 . S
C425 N422 1.334 . S
C425 C423 1.390 . S
C425 H436 0.930 . S
C426 C423 1.339 . S
C426 C424 1.416 . S
C426 H447 0.930 . S
C427 C428 1.413 . S
C427 C429 1.427 . S
C427 C433 1.416 . S
C428 C421 1.424 . S
C428 C427 1.413 . S
C428 N432 1.361 . S
C429 C427 1.427 . S
C429 C430 1.328 . S
C429 H444 0.929 . S
C430 C424 1.448 . S
C430 C429 1.328 . S
C430 H445 0.930 . S
Tb431 N422 2.617 . S
Tb431 N432 2.572 . S
Tb431 O466 2.349 . S
Tb431 O469 2.393 . S
Tb431 O470 2.465 . S
Tb431 O471 2.387 . S
Tb431 O473 2.428 . S
Tb431 O474 2.308 . S
Tb431 C495 2.802 . S
N432 C428 1.361 . S
N432 Tb431 2.572 . S
N432 C434 1.340 . S
C433 C427 1.416 . S
C433 C435 1.332 . S
C433 H441 0.931 . S
C434 N432 1.340 . S
C434 C435 1.407 . S
C434 H440 0.930 . S
C435 C433 1.332 . S
C435 C434 1.407 . S
C435 H437 0.929 . S
H436 C425 0.930 . S
H437 C435 0.929 . S
H438 C453 0.930 . S
H439 C460 0.929 . S
H440 C434 0.930 . S
H441 C433 0.931 . S
H442 C456 0.930 . S
H443 C423 0.930 . S
H444 C429 0.929 . S
H445 C430 0.930 . S
H446 C451 0.930 . S
H447 C426 0.930 . S
H448 C459 0.931 1_554 S
N449 Tb420 2.617 . S
N449 C450 1.379 . S
N449 C453 1.334 . S
C450 N449 1.379 . S
C450 C452 1.416 . S
C450 C458 1.424 . S
C451 H446 0.930 . S
C451 C453 1.390 . S
C451 C454 1.339 . S
C452 C450 1.416 . S
C452 C454 1.416 . S
C452 C485 1.448 . S
C453 H438 0.930 . S
C453 N449 1.334 . S
C453 C451 1.390 . S
C454 C451 1.339 . S
C454 C452 1.416 . S
C454 H461 0.930 . S
N455 Tb420 2.572 . S
N455 C456 1.340 . S
N455 C458 1.361 . S
C456 H442 0.930 . S
C456 N455 1.340 . S
C456 C460 1.407 . S
C457 C458 1.413 . S
C457 C459 1.416 . S
C457 C486 1.427 . S
C458 C450 1.424 . S
C458 N455 1.361 . S
C458 C457 1.413 . S
C459 H448 0.931 1_556 S
C459 C457 1.416 . S
C459 C460 1.332 . S
C460 H439 0.929 . S
C460 C456 1.407 . S
C460 C459 1.332 . S
H461 C454 0.930 . S
H462 C485 0.930 . S
H463 C486 0.929 1_554 S
O464 Tb420 2.465 . S
O464 C484 1.264 . S
O465 Tb420 2.387 . S
O465 C476 1.264 . S
O466 Tb431 2.349 . S
O466 C476 1.243 . S
O467 Tb420 2.428 . S
O467 C484 1.256 . S
O468 Tb420 2.308 . S
O468 C483 1.266 . S
O469 Tb431 2.393 . S
O469 C483 1.248 . S
O470 Tb431 2.465 . S
O470 C495 1.264 . S
O471 Tb431 2.387 . S
O471 C487 1.264 . S
O472 Tb420 2.349 . S
O472 C487 1.243 . S
O473 Tb431 2.428 . S
O473 C495 1.256 . S
O474 Tb431 2.308 . S
O474 C494 1.266 . S
O475 Tb420 2.393 . S
O475 C494 1.248 . S
C476 O465 1.264 . S
C476 O466 1.243 . S
C477 C480 1.399 . S
C477 C482 1.383 . S
C477 C484 1.496 . S
C478 C479 1.399 . S
C478 C482 1.389 . S
C479 C478 1.399 . S
C479 C481 1.380 . S
C479 H496 0.929 . S
C480 C477 1.399 . S
C480 C481 1.392 . S
C480 H497 0.929 . S
C481 C479 1.380 . S
C481 C480 1.392 . S
C481 H498 0.929 . S
C482 C477 1.383 . S
C482 C478 1.389 . S
C482 H499 0.931 . S
C483 O468 1.266 . S
C483 O469 1.248 . S
C484 Tb420 2.802 . S
C484 O464 1.264 . S
C484 O467 1.256 . S
C484 C477 1.496 . S
C485 C452 1.448 . S
C485 H462 0.930 . S
C485 C486 1.328 . S
C486 C457 1.427 . S
C486 H463 0.929 1_556 S
C486 C485 1.328 . S
C487 O471 1.264 . S
C487 O472 1.243 . S
C488 C491 1.399 . S
C488 C492 1.383 . S
C488 C495 1.496 . S
C489 C490 1.399 . S
C489 C492 1.389 . S
C490 C489 1.399 . S
C490 C493 1.380 . S
C490 H500 0.929 . S
C491 C488 1.399 . S
C491 C493 1.392 . S
C491 H501 0.929 . S
C492 C488 1.383 . S
C492 C489 1.389 . S
C492 H502 0.931 . S
C493 C490 1.380 . S
C493 C491 1.392 . S
C493 H503 0.929 . S
C494 O474 1.266 . S
C494 O475 1.248 . S
C495 Tb431 2.802 . S
C495 O470 1.264 . S
C495 O473 1.256 . S
C495 C488 1.496 . S
H496 C479 0.929 . S
H497 C480 0.929 . S
H498 C481 0.929 . S
H499 C482 0.931 . S
H500 C490 0.929 . S
H501 C491 0.929 . S
H502 C492 0.931 . S
H503 C493 0.929 . S
Tb504 N533 2.617 . S
Tb504 N539 2.572 . S
Tb504 O548 2.465 . S
Tb504 O549 2.387 . S
Tb504 O551 2.428 . S
Tb504 O552 2.308 . S
Tb504 O556 2.349 . S
Tb504 O559 2.393 . S
Tb504 C568 2.802 . S
C505 N506 1.379 . S
C505 C508 1.416 . S
C505 C512 1.424 . S
N506 C505 1.379 . S
N506 C509 1.334 . S
N506 Tb515 2.617 . S
C507 C509 1.390 . S
C507 C510 1.339 . S
C507 H527 0.930 . S
C508 C505 1.416 . S
C508 C510 1.416 . S
C508 C514 1.448 . S
C509 N506 1.334 . S
C509 C507 1.390 . S
C509 H520 0.930 . S
C510 C507 1.339 . S
C510 C508 1.416 . S
C510 H531 0.930 . S
C511 C512 1.413 . S
C511 C513 1.427 . S
C511 C517 1.416 . S
C512 C505 1.424 . S
C512 C511 1.413 . S
C512 N516 1.361 . S
C513 C511 1.427 . S
C513 C514 1.328 . S
C513 H528 0.929 . S
C514 C508 1.448 . S
C514 C513 1.328 . S
C514 H529 0.930 . S
Tb515 N506 2.617 . S
Tb515 N516 2.572 . S
Tb515 O550 2.349 . S
Tb515 O553 2.393 . S
Tb515 O554 2.465 . S
Tb515 O555 2.387 . S
Tb515 O557 2.428 . S
Tb515 O558 2.308 . S
Tb515 C579 2.802 . S
N516 C512 1.361 . S
N516 Tb515 2.572 . S
N516 C518 1.340 . S
C517 C511 1.416 . S
C517 C519 1.332 . S
C517 H525 0.931 . S
C518 N516 1.340 . S
C518 C519 1.407 . S
C518 H524 0.930 . S
C519 C517 1.332 . S
C519 C518 1.407 . S
C519 H521 0.929 . S
H520 C509 0.930 . S
H521 C519 0.929 . S
H522 C537 0.930 . S
H523 C544 0.929 . S
H524 C518 0.930 . S
H525 C517 0.931 . S
H526 C540 0.930 . S
H527 C507 0.930 . S
H528 C513 0.929 . S
H529 C514 0.930 . S
H530 C535 0.930 . S
H531 C510 0.930 . S
H532 C543 0.931 . S
N533 Tb504 2.617 . S
N533 C534 1.379 . S
N533 C537 1.334 . S
C534 N533 1.379 . S
C534 C536 1.416 . S
C534 C542 1.424 . S
C535 H530 0.930 . S
C535 C537 1.390 . S
C535 C538 1.339 . S
C536 C534 1.416 . S
C536 C538 1.416 . S
C536 C569 1.448 . S
C537 H522 0.930 . S
C537 N533 1.334 . S
C537 C535 1.390 . S
C538 C535 1.339 . S
C538 C536 1.416 . S
C538 H545 0.930 . S
N539 Tb504 2.572 . S
N539 C540 1.340 . S
N539 C542 1.361 . S
C540 H526 0.930 . S
C540 N539 1.340 . S
C540 C544 1.407 . S
C541 C542 1.413 . S
C541 C543 1.416 . S
C541 C570 1.427 . S
C542 C534 1.424 . S
C542 N539 1.361 . S
C542 C541 1.413 . S
C543 H532 0.931 . S
C543 C541 1.416 . S
C543 C544 1.332 . S
C544 H523 0.929 . S
C544 C540 1.407 . S
C544 C543 1.332 . S
H545 C538 0.930 . S
H546 C569 0.930 . S
H547 C570 0.929 . S
O548 Tb504 2.465 . S
O548 C568 1.264 . S
O549 Tb504 2.387 . S
O549 C560 1.264 . S
O550 Tb515 2.349 . S
O550 C560 1.243 . S
O551 Tb504 2.428 . S
O551 C568 1.256 . S
O552 Tb504 2.308 . S
O552 C567 1.266 . S
O553 Tb515 2.393 . S
O553 C567 1.248 . S
O554 Tb515 2.465 . S
O554 C579 1.264 . S
O555 Tb515 2.387 . S
O555 C571 1.264 . S
O556 Tb504 2.349 . S
O556 C571 1.243 . S
O557 Tb515 2.428 . S
O557 C579 1.256 . S
O558 Tb515 2.308 . S
O558 C578 1.266 . S
O559 Tb504 2.393 . S
O559 C578 1.248 . S
C560 O549 1.264 . S
C560 O550 1.243 . S
C561 C564 1.399 . S
C561 C566 1.383 . S
C561 C568 1.496 . S
C562 C563 1.399 . S
C562 C566 1.389 . S
C563 C562 1.399 . S
C563 C565 1.380 . S
C563 H580 0.929 . S
C564 C561 1.399 . S
C564 C565 1.392 . S
C564 H581 0.929 . S
C565 C563 1.380 . S
C565 C564 1.392 . S
C565 H582 0.929 . S
C566 C561 1.383 . S
C566 C562 1.389 . S
C566 H583 0.931 . S
C567 O552 1.266 . S
C567 O553 1.248 . S
C568 Tb504 2.802 . S
C568 O548 1.264 . S
C568 O551 1.256 . S
C568 C561 1.496 . S
C569 C536 1.448 . S
C569 H546 0.930 . S
C569 C570 1.328 . S
C570 C541 1.427 . S
C570 H547 0.929 . S
C570 C569 1.328 . S
C571 O555 1.264 . S
C571 O556 1.243 . S
C572 C575 1.399 . S
C572 C576 1.383 . S
C572 C579 1.496 . S
C573 C574 1.399 . S
C573 C576 1.389 . S
C574 C573 1.399 . S
C574 C577 1.380 . S
C574 H584 0.929 . S
C575 C572 1.399 . S
C575 C577 1.392 . S
C575 H585 0.929 . S
C576 C572 1.383 . S
C576 C573 1.389 . S
C576 H586 0.931 . S
C577 C574 1.380 . S
C577 C575 1.392 . S
C577 H587 0.929 . S
C578 O558 1.266 . S
C578 O559 1.248 . S
C579 Tb515 2.802 . S
C579 O554 1.264 . S
C579 O557 1.256 . S
C579 C572 1.496 . S
H580 C563 0.929 . S
H581 C564 0.929 . S
H582 C565 0.929 . S
H583 C566 0.931 . S
H584 C574 0.929 . S
H585 C575 0.929 . S
H586 C576 0.931 . S
H587 C577 0.929 . S
Tb588 N617 2.617 . S
Tb588 N623 2.572 . S
Tb588 O632 2.465 . S
Tb588 O633 2.387 . S
Tb588 O635 2.428 . S
Tb588 O636 2.308 . S
Tb588 O640 2.349 . S
Tb588 O643 2.393 . S
Tb588 C652 2.802 . S
C589 N590 1.379 . S
C589 C592 1.416 . S
C589 C596 1.424 . S
N590 C589 1.379 . S
N590 C593 1.334 . S
N590 Tb599 2.617 . S
C591 C593 1.390 . S
C591 C594 1.339 . S
C591 H611 0.930 . S
C592 C589 1.416 . S
C592 C594 1.416 . S
C592 C598 1.448 . S
C593 N590 1.334 . S
C593 C591 1.390 . S
C593 H604 0.930 . S
C594 C591 1.339 . S
C594 C592 1.416 . S
C594 H615 0.930 . S
C595 C596 1.413 . S
C595 C597 1.427 . S
C595 C601 1.416 . S
C596 C589 1.424 . S
C596 C595 1.413 . S
C596 N600 1.361 . S
C597 C595 1.427 . S
C597 C598 1.328 . S
C597 H612 0.929 1_556 S
C598 C592 1.448 . S
C598 C597 1.328 . S
C598 H613 0.930 . S
Tb599 N590 2.617 . S
Tb599 N600 2.572 . S
Tb599 O634 2.349 . S
Tb599 O637 2.393 . S
Tb599 O638 2.465 . S
Tb599 O639 2.387 . S
Tb599 O641 2.428 . S
Tb599 O642 2.308 . S
Tb599 C663 2.802 . S
N600 C596 1.361 . S
N600 Tb599 2.572 . S
N600 C602 1.340 . S
C601 C595 1.416 . S
C601 C603 1.332 . S
C601 H609 0.931 1_556 S
C602 N600 1.340 . S
C602 C603 1.407 . S
C602 H608 0.930 . S
C603 C601 1.332 . S
C603 C602 1.407 . S
C603 H605 0.929 . S
H604 C593 0.930 . S
H605 C603 0.929 . S
H606 C621 0.930 . S
H607 C628 0.929 . S
H608 C602 0.930 . S
H609 C601 0.931 1_554 S
H610 C624 0.930 . S
H611 C591 0.930 . S
H612 C597 0.929 1_554 S
H613 C598 0.930 . S
H614 C619 0.930 . S
H615 C594 0.930 . S
H616 C627 0.931 . S
N617 Tb588 2.617 . S
N617 C618 1.379 . S
N617 C621 1.334 . S
C618 N617 1.379 . S
C618 C620 1.416 . S
C618 C626 1.424 . S
C619 H614 0.930 . S
C619 C621 1.390 . S
C619 C622 1.339 . S
C620 C618 1.416 . S
C620 C622 1.416 . S
C620 C653 1.448 . S
C621 H606 0.930 . S
C621 N617 1.334 . S
C621 C619 1.390 . S
C622 C619 1.339 . S
C622 C620 1.416 . S
C622 H629 0.930 . S
N623 Tb588 2.572 . S
N623 C624 1.340 . S
N623 C626 1.361 . S
C624 H610 0.930 . S
C624 N623 1.340 . S
C624 C628 1.407 . S
C625 C626 1.413 . S
C625 C627 1.416 . S
C625 C654 1.427 . S
C626 C618 1.424 . S
C626 N623 1.361 . S
C626 C625 1.413 . S
C627 H616 0.931 . S
C627 C625 1.416 . S
C627 C628 1.332 . S
C628 H607 0.929 . S
C628 C624 1.407 . S
C628 C627 1.332 . S
H629 C622 0.930 . S
H630 C653 0.930 . S
H631 C654 0.929 . S
O632 Tb588 2.465 . S
O632 C652 1.264 . S
O633 Tb588 2.387 . S
O633 C644 1.264 . S
O634 Tb599 2.349 . S
O634 C644 1.243 . S
O635 Tb588 2.428 . S
O635 C652 1.256 . S
O636 Tb588 2.308 . S
O636 C651 1.266 . S
O637 Tb599 2.393 . S
O637 C651 1.248 . S
O638 Tb599 2.465 . S
O638 C663 1.264 . S
O639 Tb599 2.387 . S
O639 C655 1.264 . S
O640 Tb588 2.349 . S
O640 C655 1.243 . S
O641 Tb599 2.428 . S
O641 C663 1.256 . S
O642 Tb599 2.308 . S
O642 C662 1.266 . S
O643 Tb588 2.393 . S
O643 C662 1.248 . S
C644 O633 1.264 . S
C644 O634 1.243 . S
C645 C648 1.399 . S
C645 C650 1.383 . S
C645 C652 1.496 . S
C646 C647 1.399 . S
C646 C650 1.389 . S
C647 C646 1.399 . S
C647 C649 1.380 . S
C647 H664 0.929 . S
C648 C645 1.399 . S
C648 C649 1.392 . S
C648 H665 0.929 . S
C649 C647 1.380 . S
C649 C648 1.392 . S
C649 H666 0.929 . S
C650 C645 1.383 . S
C650 C646 1.389 . S
C650 H667 0.931 . S
C651 O636 1.266 . S
C651 O637 1.248 . S
C652 Tb588 2.802 . S
C652 O632 1.264 . S
C652 O635 1.256 . S
C652 C645 1.496 . S
C653 C620 1.448 . S
C653 H630 0.930 . S
C653 C654 1.328 . S
C654 C625 1.427 . S
C654 H631 0.929 . S
C654 C653 1.328 . S
C655 O639 1.264 . S
C655 O640 1.243 . S
C656 C659 1.399 . S
C656 C660 1.383 . S
C656 C663 1.496 . S
C657 C658 1.399 . S
C657 C660 1.389 . S
C658 C657 1.399 . S
C658 C661 1.380 . S
C658 H668 0.929 . S
C659 C656 1.399 . S
C659 C661 1.392 . S
C659 H669 0.929 . S
C660 C656 1.383 . S
C660 C657 1.389 . S
C660 H670 0.931 . S
C661 C658 1.380 . S
C661 C659 1.392 . S
C661 H671 0.929 . S
C662 O642 1.266 . S
C662 O643 1.248 . S
C663 Tb599 2.802 . S
C663 O638 1.264 . S
C663 O641 1.256 . S
C663 C656 1.496 . S
H664 C647 0.929 . S
H665 C648 0.929 . S
H666 C649 0.929 . S
H667 C650 0.931 . S
H668 C658 0.929 . S
H669 C659 0.929 . S
H670 C660 0.931 . S
H671 C661 0.929 . S
Co672 O675 2.042 . S
Co672 O682 2.264 . S
Co672 O701 2.286 . S
Co672 O702 2.069 . S
Co672 O704 2.015 1_455 S
Co673 O675 2.122 . S
Co673 O681 2.073 . S
Co673 O682 2.327 . S
Co673 O683 1.976 1_455 S
Co674 O675 2.083 1_545 S
Co674 O677 2.091 1_455 S
Co674 O684 2.110 1_445 S
Co674 O685 2.146 . S
Co674 O689 2.113 . S
Co674 O703 2.141 1_445 S
O675 Co672 2.042 . S
O675 Co673 2.122 . S
O675 Co674 2.083 1_565 S
O675 H676 0.980 . S
H676 O675 0.980 . S
O677 Co674 2.091 1_655 S
O677 Co678 2.042 . S
O677 Co679 2.122 . S
O677 H680 0.980 . S
Co678 O677 2.042 . S
Co678 O686 2.286 . S
Co678 O687 2.069 . S
Co678 O688 2.015 1_655 S
Co678 O691 2.264 . S
Co679 O677 2.122 . S
Co679 O690 1.976 1_655 S
Co679 O691 2.327 . S
Co679 O692 2.073 . S
H680 O677 0.980 . S
O681 Co673 2.073 . S
O681 C696 1.245 . S
O682 Co672 2.264 . S
O682 Co673 2.327 . S
O682 C696 1.257 . S
O683 Co673 1.976 1_655 S
O683 C695 1.251 . S
O684 Co674 2.110 1_665 S
O684 C695 1.274 . S
O685 Co674 2.146 . S
O685 C698 1.246 . S
O686 Co678 2.286 . S
O686 C697 1.259 . S
O687 Co678 2.069 . S
O687 C697 1.289 . S
O688 Co678 2.015 1_455 S
O688 C698 1.257 . S
O689 Co674 2.113 . S
O689 C699 1.274 . S
O690 Co679 1.976 1_455 S
O690 C699 1.251 . S
O691 Co678 2.264 . S
O691 Co679 2.327 . S
O691 C700 1.257 . S
O692 Co679 2.073 . S
O692 C700 1.245 . S
C693 O701 1.259 . S
C693 O702 1.289 . S
C694 O703 1.246 . S
C694 O704 1.257 . S
C695 O683 1.251 . S
C695 O684 1.274 . S
C696 O681 1.245 . S
C696 O682 1.257 . S
C697 O686 1.259 . S
C697 O687 1.289 . S
C698 O685 1.246 . S
C698 O688 1.257 . S
C699 O689 1.274 . S
C699 O690 1.251 . S
C700 O691 1.257 . S
C700 O692 1.245 . S
O701 Co672 2.286 . S
O701 C693 1.259 . S
O702 Co672 2.069 . S
O702 C693 1.289 . S
O703 Co674 2.141 1_665 S
O703 C694 1.246 . S
O704 Co672 2.015 1_655 S
O704 C694 1.257 . S
Co705 O708 2.042 1_556 S
Co705 O715 2.264 1_556 S
Co705 O734 2.286 . S
Co705 O735 2.069 . S
Co705 O737 2.015 . S
Co706 O708 2.122 . S
Co706 O714 2.073 . S
Co706 O715 2.327 . S
Co706 O716 1.976 . S
Co707 O708 2.083 1_545 S
Co707 O710 2.091 1_554 S
Co707 O717 2.110 1_545 S
Co707 O718 2.146 . S
Co707 O722 2.112 1_554 S
Co707 O736 2.141 1_544 S
O708 Co705 2.042 1_554 S
O708 Co706 2.122 . S
O708 Co707 2.083 1_565 S
O708 H709 0.980 . S
H709 O708 0.980 . S
O710 Co707 2.091 1_556 S
O710 Co711 2.042 1_556 S
O710 Co712 2.122 . S
O710 H713 0.980 . S
Co711 O710 2.042 1_554 S
Co711 O719 2.286 . S
Co711 O720 2.069 . S
Co711 O721 2.015 . S
Co711 O724 2.264 1_554 S
Co712 O710 2.122 . S
Co712 O723 1.976 . S
Co712 O724 2.327 . S
Co712 O725 2.073 . S
H713 O710 0.980 . S
O714 Co706 2.073 . S
O714 C729 1.245 . S
O715 Co705 2.264 1_554 S
O715 Co706 2.327 . S
O715 C729 1.257 . S
O716 Co706 1.976 . S
O716 C728 1.251 . S
O717 Co707 2.110 1_565 S
O717 C728 1.274 . S
O718 Co707 2.146 . S
O718 C731 1.246 . S
O719 Co711 2.286 . S
O719 C730 1.259 . S
O720 Co711 2.069 . S
O720 C730 1.289 . S
O721 Co711 2.015 . S
O721 C731 1.257 . S
O722 Co707 2.112 1_556 S
O722 C732 1.274 . S
O723 Co712 1.976 . S
O723 C732 1.251 . S
O724 Co711 2.264 1_556 S
O724 Co712 2.327 . S
O724 C733 1.257 . S
O725 Co712 2.073 . S
O725 C733 1.245 . S
C726 O734 1.259 . S
C726 O735 1.289 . S
C727 O736 1.246 . S
C727 O737 1.257 . S
C728 O716 1.251 . S
C728 O717 1.274 . S
C729 O714 1.245 . S
C729 O715 1.257 . S
C730 O719 1.259 . S
C730 O720 1.289 . S
C731 O718 1.246 . S
C731 O721 1.257 . S
C732 O722 1.274 . S
C732 O723 1.251 . S
C733 O724 1.257 . S
C733 O725 1.245 . S
O734 Co705 2.286 . S
O734 C726 1.259 . S
O735 Co705 2.069 . S
O735 C726 1.289 . S
O736 Co707 2.141 1_566 S
O736 C727 1.246 . S
O737 Co705 2.015 . S
O737 C727 1.257 . S
Co738 O741 2.042 1_556 S
Co738 O748 2.264 1_556 S
Co738 O767 2.286 . S
Co738 O768 2.069 . S
Co738 O770 2.015 1_455 S
Co739 O741 2.122 . S
Co739 O747 2.073 . S
Co739 O748 2.327 . S
Co739 O749 1.976 1_455 S
Co740 O741 2.087 . S
Co740 O743 2.087 1_454 S
Co740 O750 2.111 1_455 S
Co740 O751 2.143 . S
Co740 O755 2.111 1_554 S
Co740 O769 2.143 1_454 S
O741 Co738 2.042 1_554 S
O741 Co739 2.122 . S
O741 Co740 2.087 . S
O741 H742 0.980 . S
H742 O741 0.980 . S
O743 Co740 2.087 1_656 S
O743 Co744 2.042 1_556 S
O743 Co745 2.122 . S
O743 H746 0.980 . S
Co744 O743 2.042 1_554 S
Co744 O752 2.286 . S
Co744 O753 2.069 . S
Co744 O754 2.015 1_655 S
Co744 O757 2.264 1_554 S
Co745 O743 2.122 . S
Co745 O756 1.976 1_655 S
Co745 O757 2.327 . S
Co745 O758 2.073 . S
H746 O743 0.980 . S
O747 Co739 2.073 . S
O747 C762 1.245 . S
O748 Co738 2.264 1_554 S
O748 Co739 2.327 . S
O748 C762 1.257 . S
O749 Co739 1.976 1_655 S
O749 C761 1.251 . S
O750 Co740 2.111 1_655 S
O750 C761 1.274 . S
O751 Co740 2.143 . S
O751 C764 1.246 . S
O752 Co744 2.286 . S
O752 C763 1.259 . S
O753 Co744 2.069 . S
O753 C763 1.289 . S
O754 Co744 2.015 1_455 S
O754 C764 1.257 . S
O755 Co740 2.111 1_556 S
O755 C765 1.274 . S
O756 Co745 1.976 1_455 S
O756 C765 1.251 . S
O757 Co744 2.264 1_556 S
O757 Co745 2.327 . S
O757 C766 1.257 . S
O758 Co745 2.073 . S
O758 C766 1.245 . S
C759 O767 1.259 . S
C759 O768 1.289 . S
C760 O769 1.246 . S
C760 O770 1.257 . S
C761 O749 1.251 . S
C761 O750 1.274 . S
C762 O747 1.245 . S
C762 O748 1.257 . S
C763 O752 1.259 . S
C763 O753 1.289 . S
C764 O751 1.246 . S
C764 O754 1.257 . S
C765 O755 1.274 . S
C765 O756 1.251 . S
C766 O757 1.257 . S
C766 O758 1.245 . S
O767 Co738 2.286 . S
O767 C759 1.259 . S
O768 Co738 2.069 . S
O768 C759 1.289 . S
O769 Co740 2.143 1_656 S
O769 C760 1.246 . S
O770 Co738 2.015 1_655 S
O770 C760 1.257 . S
Co771 O774 2.042 1_556 S
Co771 O781 2.264 1_556 S
Co771 O800 2.286 . S
Co771 O801 2.069 . S
Co771 O803 2.015 . S
Co772 O774 2.122 . S
Co772 O780 2.073 . S
Co772 O781 2.327 . S
Co772 O782 1.976 . S
Co773 O774 2.087 . S
Co773 O776 2.087 1_554 S
Co773 O783 2.111 . S
Co773 O784 2.143 . S
Co773 O788 2.111 1_554 S
Co773 O802 2.143 1_554 S
O774 Co771 2.042 1_554 S
O774 Co772 2.122 . S
O774 Co773 2.087 . S
O774 H775 0.980 . S
H775 O774 0.980 . S
O776 Co773 2.087 1_556 S
O776 Co777 2.042 1_556 S
O776 Co778 2.122 . S
O776 H779 0.980 . S
Co777 O776 2.042 1_554 S
Co777 O785 2.286 . S
Co777 O786 2.069 . S
Co777 O787 2.015 . S
Co777 O790 2.264 1_554 S
Co778 O776 2.122 . S
Co778 O789 1.976 . S
Co778 O790 2.327 . S
Co778 O791 2.073 . S
H779 O776 0.980 . S
O780 Co772 2.073 . S
O780 C795 1.245 . S
O781 Co771 2.264 1_554 S
O781 Co772 2.327 . S
O781 C795 1.257 . S
O782 Co772 1.976 . S
O782 C794 1.251 . S
O783 Co773 2.111 . S
O783 C794 1.274 . S
O784 Co773 2.143 . S
O784 C797 1.246 . S
O785 Co777 2.286 . S
O785 C796 1.259 . S
O786 Co777 2.069 . S
O786 C796 1.289 . S
O787 Co777 2.015 . S
O787 C797 1.257 . S
O788 Co773 2.111 1_556 S
O788 C798 1.274 . S
O789 Co778 1.976 . S
O789 C798 1.251 . S
O790 Co777 2.264 1_556 S
O790 Co778 2.327 . S
O790 C799 1.257 . S
O791 Co778 2.073 . S
O791 C799 1.245 . S
C792 O800 1.259 . S
C792 O801 1.289 . S
C793 O802 1.246 . S
C793 O803 1.257 . S
C794 O782 1.251 . S
C794 O783 1.274 . S
C795 O780 1.245 . S
C795 O781 1.257 . S
C796 O785 1.259 . S
C796 O786 1.289 . S
C797 O784 1.246 . S
C797 O787 1.257 . S
C798 O788 1.274 . S
C798 O789 1.251 . S
C799 O790 1.257 . S
C799 O791 1.245 . S
O800 Co771 2.286 . S
O800 C792 1.259 . S
O801 Co771 2.069 . S
O801 C792 1.289 . S
O802 Co773 2.143 1_556 S
O802 C793 1.246 . S
O803 Co771 2.015 . S
O803 C793 1.257 . S
Co804 O807 2.042 . S
Co804 O814 2.264 . S
Co804 O833 2.286 . S
Co804 O834 2.069 . S
Co804 O836 2.015 . S
Co805 O807 2.122 . S
Co805 O813 2.073 . S
Co805 O814 2.327 . S
Co805 O815 1.976 . S
Co806 O807 2.087 . S
Co806 O809 2.087 1_455 S
Co806 O816 2.111 . S
Co806 O817 2.143 1_455 S
Co806 O821 2.111 1_455 S
Co806 O835 2.143 . S
O807 Co804 2.042 . S
O807 Co805 2.122 . S
O807 Co806 2.087 . S
O807 H808 0.980 . S
H808 O807 0.980 . S
O809 Co806 2.087 1_655 S
O809 Co810 2.042 . S
O809 Co811 2.122 . S
O809 H812 0.980 . S
Co810 O809 2.042 . S
Co810 O818 2.286 . S
Co810 O819 2.069 . S
Co810 O820 2.015 . S
Co810 O823 2.264 . S
Co811 O809 2.122 . S
Co811 O822 1.976 . S
Co811 O823 2.327 . S
Co811 O824 2.073 . S
H812 O809 0.980 . S
O813 Co805 2.073 . S
O813 C828 1.245 . S
O814 Co804 2.264 . S
O814 Co805 2.327 . S
O814 C828 1.257 . S
O815 Co805 1.976 . S
O815 C827 1.251 . S
O816 Co806 2.111 . S
O816 C827 1.274 . S
O817 Co806 2.143 1_655 S
O817 C830 1.246 . S
O818 Co810 2.286 . S
O818 C829 1.259 . S
O819 Co810 2.069 . S
O819 C829 1.289 . S
O820 Co810 2.015 . S
O820 C830 1.257 . S
O821 Co806 2.111 1_655 S
O821 C831 1.274 . S
O822 Co811 1.976 . S
O822 C831 1.251 . S
O823 Co810 2.264 . S
O823 Co811 2.327 . S
O823 C832 1.257 . S
O824 Co811 2.073 . S
O824 C832 1.245 . S
C825 O833 1.259 . S
C825 O834 1.289 . S
C826 O835 1.246 . S
C826 O836 1.257 . S
C827 O815 1.251 . S
C827 O816 1.274 . S
C828 O813 1.245 . S
C828 O814 1.257 . S
C829 O818 1.259 . S
C829 O819 1.289 . S
C830 O817 1.246 . S
C830 O820 1.257 . S
C831 O821 1.274 . S
C831 O822 1.251 . S
C832 O823 1.257 . S
C832 O824 1.245 . S
O833 Co804 2.286 . S
O833 C825 1.259 . S
O834 Co804 2.069 . S
O834 C825 1.289 . S
O835 Co806 2.143 . S
O835 C826 1.246 . S
O836 Co804 2.015 . S
O836 C826 1.257 . S
Co837 O840 2.042 . S
Co837 O847 2.264 . S
Co837 O866 2.286 . S
Co837 O867 2.069 . S
Co837 O869 2.015 1_565 S
Co838 O840 2.122 . S
Co838 O846 2.073 . S
Co838 O847 2.327 . S
Co838 O848 1.976 1_565 S
Co839 O840 2.083 1_545 S
Co839 O842 2.091 . S
Co839 O849 2.114 . S
Co839 O850 2.142 1_545 S
Co839 O854 2.109 1_545 S
Co839 O868 2.145 . S
O840 Co837 2.042 . S
O840 Co838 2.122 . S
O840 Co839 2.083 1_565 S
O840 H841 0.980 . S
H841 O840 0.980 . S
O842 Co839 2.091 . S
O842 Co843 2.042 . S
O842 Co844 2.122 . S
O842 H845 0.980 . S
Co843 O842 2.042 . S
Co843 O851 2.286 . S
Co843 O852 2.069 . S
Co843 O853 2.015 1_545 S
Co843 O856 2.264 . S
Co844 O842 2.122 . S
Co844 O855 1.976 1_545 S
Co844 O856 2.327 . S
Co844 O857 2.073 . S
H845 O842 0.980 . S
O846 Co838 2.073 . S
O846 C861 1.245 . S
O847 Co837 2.264 . S
O847 Co838 2.327 . S
O847 C861 1.257 . S
O848 Co838 1.976 1_545 S
O848 C860 1.251 . S
O849 Co839 2.114 . S
O849 C860 1.274 . S
O850 Co839 2.142 1_565 S
O850 C863 1.246 . S
O851 Co843 2.286 . S
O851 C862 1.259 . S
O852 Co843 2.069 . S
O852 C862 1.289 . S
O853 Co843 2.015 1_565 S
O853 C863 1.257 . S
O854 Co839 2.109 1_565 S
O854 C864 1.274 . S
O855 Co844 1.976 1_565 S
O855 C864 1.251 . S
O856 Co843 2.264 . S
O856 Co844 2.327 . S
O856 C865 1.257 . S
O857 Co844 2.073 . S
O857 C865 1.245 . S
C858 O866 1.259 . S
C858 O867 1.289 . S
C859 O868 1.246 . S
C859 O869 1.257 . S
C860 O848 1.251 . S
C860 O849 1.274 . S
C861 O846 1.245 . S
C861 O847 1.257 . S
C862 O851 1.259 . S
C862 O852 1.289 . S
C863 O850 1.246 . S
C863 O853 1.257 . S
C864 O854 1.274 . S
C864 O855 1.251 . S
C865 O856 1.257 . S
C865 O857 1.245 . S
O866 Co837 2.286 . S
O866 C858 1.259 . S
O867 Co837 2.069 . S
O867 C858 1.289 . S
O868 Co839 2.145 . S
O868 C859 1.246 . S
O869 Co837 2.015 1_545 S
O869 C859 1.257 . S
C870 C871 1.369 . S
C870 C872 1.419 . S
C870 H874 0.930 . S
C871 C870 1.369 . S
C871 C880 1.429 . S
C872 C870 1.419 . S
C872 C873 1.363 . S
C872 H875 0.929 . S
C873 C872 1.363 . S
C873 C879 1.428 . S
H874 C870 0.930 . S
H875 C872 0.929 . S
S876 N877 1.613 . S
S876 N878 1.610 . S
N877 S876 1.613 . S
N877 C880 1.350 . S
N878 S876 1.610 . S
N878 C879 1.351 . S
C879 C873 1.428 . S
C879 N878 1.351 . S
C879 C880 1.434 . S
C880 C871 1.429 . S
C880 N877 1.350 . S
C880 C879 1.434 . S
C881 C882 1.369 . S
C881 C883 1.419 . S
C881 H885 0.930 . S
C882 C881 1.369 . S
C882 C891 1.429 . S
C883 C881 1.419 . S
C883 C884 1.363 . S
C883 H886 0.929 . S
C884 C883 1.363 . S
C884 C890 1.428 . S
H885 C881 0.930 . S
H886 C883 0.929 . S
S887 N888 1.613 . S
S887 N889 1.610 . S
N888 S887 1.613 . S
N888 C891 1.350 . S
N889 S887 1.610 . S
N889 C890 1.351 . S
C890 C884 1.428 . S
C890 N889 1.351 . S
C890 C891 1.434 . S
C891 C882 1.429 . S
C891 N888 1.350 . S
C891 C890 1.434 . S
C892 C893 1.369 . S
C892 C894 1.419 . S
C892 H896 0.930 . S
C893 C892 1.369 . S
C893 C902 1.429 . S
C894 C892 1.419 . S
C894 C895 1.363 . S
C894 H897 0.929 . S
C895 C894 1.363 . S
C895 C901 1.428 . S
H896 C892 0.930 . S
H897 C894 0.929 . S
S898 N899 1.613 . S
S898 N900 1.610 . S
N899 S898 1.613 . S
N899 C902 1.350 . S
N900 S898 1.610 . S
N900 C901 1.351 . S
C901 C895 1.428 . S
C901 N900 1.351 . S
C901 C902 1.434 . S
C902 C893 1.429 . S
C902 N899 1.350 . S
C902 C901 1.434 . S
C903 C904 1.369 . S
C903 C905 1.419 . S
C903 H907 0.930 . S
C904 C903 1.369 . S
C904 C913 1.429 . S
C905 C903 1.419 . S
C905 C906 1.363 . S
C905 H908 0.929 . S
C906 C905 1.363 . S
C906 C912 1.428 . S
H907 C903 0.930 . S
H908 C905 0.929 . S
S909 N910 1.613 . S
S909 N911 1.610 . S
N910 S909 1.613 . S
N910 C913 1.350 . S
N911 S909 1.610 . S
N911 C912 1.351 . S
C912 C906 1.428 . S
C912 N911 1.351 . S
C912 C913 1.434 . S
C913 C904 1.429 . S
C913 N910 1.350 . S
C913 C912 1.434 . S
C914 C915 1.369 . S
C914 C916 1.419 . S
C914 H918 0.930 . S
C915 C914 1.369 . S
C915 C924 1.429 . S
C916 C914 1.419 . S
C916 C917 1.363 . S
C916 H919 0.929 . S
C917 C916 1.363 . S
C917 C923 1.428 . S
H918 C914 0.930 . S
H919 C916 0.929 . S
S920 N921 1.613 . S
S920 N922 1.610 . S
N921 S920 1.613 . S
N921 C924 1.350 . S
N922 S920 1.610 . S
N922 C923 1.351 . S
C923 C917 1.428 . S
C923 N922 1.351 . S
C923 C924 1.434 . S
C924 C915 1.429 . S
C924 N921 1.350 . S
C924 C923 1.434 . S
C925 C926 1.369 . S
C925 C927 1.419 . S
C925 H929 0.930 . S
C926 C925 1.369 . S
C926 C935 1.429 . S
C927 C925 1.419 . S
C927 C928 1.363 . S
C927 H930 0.929 . S
C928 C927 1.363 . S
C928 C934 1.428 . S
H929 C925 0.930 . S
H930 C927 0.929 . S
S931 N932 1.613 . S
S931 N933 1.610 . S
N932 S931 1.613 . S
N932 C935 1.350 . S
N933 S931 1.610 . S
N933 C934 1.351 . S
C934 C928 1.428 . S
C934 N933 1.351 . S
C934 C935 1.434 . S
C935 C926 1.429 . S
C935 N932 1.350 . S
C935 C934 1.434 . S
C936 C937 1.369 . S
C936 C938 1.419 . S
C936 H940 0.930 . S
C937 C936 1.369 . S
C937 C946 1.429 . S
C938 C936 1.419 . S
C938 C939 1.363 . S
C938 H941 0.929 . S
C939 C938 1.363 . S
C939 C945 1.428 . S
H940 C936 0.930 . S
H941 C938 0.929 . S
S942 N943 1.613 . S
S942 N944 1.610 . S
N943 S942 1.613 . S
N943 C946 1.350 . S
N944 S942 1.610 . S
N944 C945 1.351 . S
C945 C939 1.428 . S
C945 N944 1.351 . S
C945 C946 1.434 . S
C946 C937 1.429 . S
C946 N943 1.350 . S
C946 C945 1.434 . S
C947 C948 1.369 . S
C947 C949 1.419 . S
C947 H951 0.930 . S
C948 C947 1.369 . S
C948 C957 1.429 . S
C949 C947 1.419 . S
C949 C950 1.363 . S
C949 H952 0.929 . S
C950 C949 1.363 . S
C950 C956 1.428 . S
H951 C947 0.930 . S
H952 C949 0.929 . S
S953 N954 1.613 . S
S953 N955 1.610 . S
N954 S953 1.613 . S
N954 C957 1.350 . S
N955 S953 1.610 . S
N955 C956 1.351 . S
C956 C950 1.428 . S
C956 N955 1.351 . S
C956 C957 1.434 . S
C957 C948 1.429 . S
C957 N954 1.350 . S
C957 C956 1.434 . S
C958 C959 1.369 . S
C958 C960 1.419 . S
C958 H962 0.930 . S
C959 C958 1.369 . S
C959 C968 1.429 . S
C960 C958 1.419 . S
C960 C961 1.363 . S
C960 H963 0.929 . S
C961 C960 1.363 . S
C961 C967 1.428 . S
H962 C958 0.930 . S
H963 C960 0.929 . S
S964 N965 1.613 . S
S964 N966 1.610 . S
N965 S964 1.613 . S
N965 C968 1.350 . S
N966 S964 1.610 . S
N966 C967 1.351 . S
C967 C961 1.428 . S
C967 N966 1.351 . S
C967 C968 1.434 . S
C968 C959 1.429 . S
C968 N965 1.350 . S
C968 C967 1.434 . S
C969 C970 1.369 . S
C969 C971 1.419 . S
C969 H973 0.930 . S
C970 C969 1.369 . S
C970 C979 1.429 . S
C971 C969 1.419 . S
C971 C972 1.363 . S
C971 H974 0.929 . S
C972 C971 1.363 . S
C972 C978 1.428 . S
H973 C969 0.930 . S
H974 C971 0.929 . S
S975 N976 1.613 . S
S975 N977 1.610 . S
N976 S975 1.613 . S
N976 C979 1.350 . S
N977 S975 1.610 . S
N977 C978 1.351 . S
C978 C972 1.428 . S
C978 N977 1.351 . S
C978 C979 1.434 . S
C979 C970 1.429 . S
C979 N976 1.350 . S
C979 C978 1.434 . S
C980 C981 1.369 . S
C980 C982 1.419 . S
C980 H984 0.930 . S
C981 C980 1.369 . S
C981 C990 1.429 . S
C982 C980 1.419 . S
C982 C983 1.363 . S
C982 H985 0.929 . S
C983 C982 1.363 . S
C983 C989 1.428 . S
H984 C980 0.930 . S
H985 C982 0.929 . S
S986 N987 1.613 . S
S986 N988 1.610 . S
N987 S986 1.613 . S
N987 C990 1.350 . S
N988 S986 1.610 . S
N988 C989 1.351 . S
C989 C983 1.428 . S
C989 N988 1.351 . S
C989 C990 1.434 . S
C990 C981 1.429 . S
C990 N987 1.350 . S
C990 C989 1.434 . S
C991 C992 1.369 . S
C991 C993 1.419 . S
C991 H995 0.930 . S
C992 C991 1.369 . S
C992 C1001 1.429 . S
C993 C991 1.419 . S
C993 C994 1.363 . S
C993 H996 0.929 . S
C994 C993 1.363 . S
C994 C1000 1.428 . S
H995 C991 0.930 . S
H996 C993 0.929 . S
S997 N998 1.613 1_556 S
S997 N999 1.610 1_556 S
N998 S997 1.613 1_554 S
N998 C1001 1.350 . S
N999 S997 1.610 1_554 S
N999 C1000 1.351 . S
C1000 C994 1.428 . S
C1000 N999 1.351 . S
C1000 C1001 1.434 . S
C1001 C992 1.429 . S
C1001 N998 1.350 . S
C1001 C1000 1.434 . S
C1002 C1003 1.369 . S
C1002 C1004 1.419 . S
C1002 H1006 0.930 . S
C1003 C1002 1.369 . S
C1003 C1012 1.429 . S
C1004 C1002 1.419 . S
C1004 C1005 1.363 . S
C1004 H1007 0.929 . S
C1005 C1004 1.363 . S
C1005 C1011 1.428 . S
H1006 C1002 0.930 . S
H1007 C1004 0.929 . S
S1008 N1009 1.613 . S
S1008 N1010 1.610 . S
N1009 S1008 1.613 . S
N1009 C1012 1.350 . S
N1010 S1008 1.610 . S
N1010 C1011 1.351 . S
C1011 C1005 1.428 . S
C1011 N1010 1.351 . S
C1011 C1012 1.434 . S
C1012 C1003 1.429 . S
C1012 N1009 1.350 . S
C1012 C1011 1.434 . S
C1013 C1014 1.369 . S
C1013 C1015 1.419 . S
C1013 H1017 0.930 . S
C1014 C1013 1.369 . S
C1014 C1023 1.429 . S
C1015 C1013 1.419 . S
C1015 C1016 1.363 . S
C1015 H1018 0.929 . S
C1016 C1015 1.363 . S
C1016 C1022 1.428 . S
H1017 C1013 0.930 . S
H1018 C1015 0.929 . S
S1019 N1020 1.613 . S
S1019 N1021 1.610 . S
N1020 S1019 1.613 . S
N1020 C1023 1.350 . S
N1021 S1019 1.610 . S
N1021 C1022 1.351 . S
C1022 C1016 1.428 . S
C1022 N1021 1.351 . S
C1022 C1023 1.434 . S
C1023 C1014 1.429 . S
C1023 N1020 1.350 . S
C1023 C1022 1.434 . S
C1024 C1025 1.369 . S
C1024 C1026 1.419 . S
C1024 H1028 0.930 . S
C1025 C1024 1.369 . S
C1025 C1034 1.429 . S
C1026 C1024 1.419 . S
C1026 C1027 1.363 . S
C1026 H1029 0.929 . S
C1027 C1026 1.363 . S
C1027 C1033 1.428 . S
H1028 C1024 0.930 . S
H1029 C1026 0.929 . S
S1030 N1031 1.613 . S
S1030 N1032 1.610 . S
N1031 S1030 1.613 . S
N1031 C1034 1.350 . S
N1032 S1030 1.610 . S
N1032 C1033 1.351 . S
C1033 C1027 1.428 . S
C1033 N1032 1.351 . S
C1033 C1034 1.434 . S
C1034 C1025 1.429 . S
C1034 N1031 1.350 . S
C1034 C1033 1.434 . S
C1035 C1036 1.369 . S
C1035 C1037 1.419 . S
C1035 H1039 0.930 . S
C1036 C1035 1.369 . S
C1036 C1045 1.429 . S
C1037 C1035 1.419 . S
C1037 C1038 1.363 . S
C1037 H1040 0.929 . S
C1038 C1037 1.363 . S
C1038 C1044 1.428 . S
H1039 C1035 0.930 . S
H1040 C1037 0.929 . S
S1041 N1042 1.613 1_554 S
S1041 N1043 1.610 1_554 S
N1042 S1041 1.613 1_556 S
N1042 C1045 1.350 . S
N1043 S1041 1.610 1_556 S
N1043 C1044 1.351 . S
C1044 C1038 1.428 . S
C1044 N1043 1.351 . S
C1044 C1045 1.434 . S
C1045 C1036 1.429 . S
C1045 N1042 1.350 . S
C1045 C1044 1.434 . S
C1046 C1047 1.369 . S
C1046 C1048 1.419 . S
C1046 H1050 0.930 . S
C1047 C1046 1.369 . S
C1047 C1056 1.429 . S
C1048 C1046 1.419 . S
C1048 C1049 1.363 . S
C1048 H1051 0.929 . S
C1049 C1048 1.363 . S
C1049 C1055 1.428 . S
H1050 C1046 0.930 . S
H1051 C1048 0.929 . S
S1052 N1053 1.613 . S
S1052 N1054 1.610 . S
N1053 S1052 1.613 . S
N1053 C1056 1.350 . S
N1054 S1052 1.610 . S
N1054 C1055 1.351 . S
C1055 C1049 1.428 . S
C1055 N1054 1.351 . S
C1055 C1056 1.434 . S
C1056 C1047 1.429 . S
C1056 N1053 1.350 . S
C1056 C1055 1.434 . S
C1057 C1058 1.369 . S
C1057 C1059 1.419 . S
C1057 H1061 0.930 . S
C1058 C1057 1.369 . S
C1058 C1067 1.429 . S
C1059 C1057 1.419 . S
C1059 C1060 1.363 . S
C1059 H1062 0.929 . S
C1060 C1059 1.363 . S
C1060 C1066 1.428 . S
H1061 C1057 0.930 . S
H1062 C1059 0.929 . S
S1063 N1064 1.613 . S
S1063 N1065 1.610 . S
N1064 S1063 1.613 . S
N1064 C1067 1.350 . S
N1065 S1063 1.610 . S
N1065 C1066 1.351 . S
C1066 C1060 1.428 . S
C1066 N1065 1.351 . S
C1066 C1067 1.434 . S
C1067 C1058 1.429 . S
C1067 N1064 1.350 . S
C1067 C1066 1.434 . S
C1068 C1069 1.369 . S
C1068 C1070 1.419 . S
C1068 H1072 0.930 . S
C1069 C1068 1.369 . S
C1069 C1078 1.429 . S
C1070 C1068 1.419 . S
C1070 C1071 1.363 . S
C1070 H1073 0.929 . S
C1071 C1070 1.363 . S
C1071 C1077 1.428 . S
H1072 C1068 0.930 . S
H1073 C1070 0.929 . S
S1074 N1075 1.613 1_554 S
S1074 N1076 1.610 . S
N1075 S1074 1.613 1_556 S
N1075 C1078 1.350 . S
N1076 S1074 1.610 . S
N1076 C1077 1.351 1_554 S
C1077 C1071 1.428 . S
C1077 N1076 1.351 1_556 S
C1077 C1078 1.434 . S
C1078 C1069 1.429 . S
C1078 N1075 1.350 . S
C1078 C1077 1.434 . S
C1079 C1080 1.369 . S
C1079 C1081 1.419 . S
C1079 H1083 0.930 . S
C1080 C1079 1.369 . S
C1080 C1089 1.429 . S
C1081 C1079 1.419 . S
C1081 C1082 1.363 . S
C1081 H1084 0.929 . S
C1082 C1081 1.363 . S
C1082 C1088 1.428 . S
H1083 C1079 0.930 . S
H1084 C1081 0.929 . S
S1085 N1086 1.613 . S
S1085 N1087 1.610 . S
N1086 S1085 1.613 . S
N1086 C1089 1.350 . S
N1087 S1085 1.610 . S
N1087 C1088 1.351 . S
C1088 C1082 1.428 . S
C1088 N1087 1.351 . S
C1088 C1089 1.434 . S
C1089 C1080 1.429 . S
C1089 N1086 1.350 . S
C1089 C1088 1.434 . S
C1090 C1091 1.369 . S
C1090 C1092 1.419 . S
C1090 H1094 0.930 . S
C1091 C1090 1.369 . S
C1091 C1100 1.429 . S
C1092 C1090 1.419 . S
C1092 C1093 1.363 . S
C1092 H1095 0.929 . S
C1093 C1092 1.363 . S
C1093 C1099 1.428 . S
H1094 C1090 0.930 . S
H1095 C1092 0.929 . S
S1096 N1097 1.613 . S
S1096 N1098 1.610 . S
N1097 S1096 1.613 . S
N1097 C1100 1.350 . S
N1098 S1096 1.610 . S
N1098 C1099 1.351 . S
C1099 C1093 1.428 . S
C1099 N1098 1.351 . S
C1099 C1100 1.434 . S
C1100 C1091 1.429 . S
C1100 N1097 1.350 . S
C1100 C1099 1.434 . S
C1101 C1102 1.369 . S
C1101 C1103 1.419 . S
C1101 H1105 0.930 . S
C1102 C1101 1.369 . S
C1102 C1111 1.429 . S
C1103 C1101 1.419 . S
C1103 C1104 1.363 . S
C1103 H1106 0.929 . S
C1104 C1103 1.363 . S
C1104 C1110 1.428 . S
H1105 C1101 0.930 . S
H1106 C1103 0.929 . S
S1107 N1108 1.613 . S
S1107 N1109 1.610 . S
N1108 S1107 1.613 . S
N1108 C1111 1.350 . S
N1109 S1107 1.610 . S
N1109 C1110 1.351 . S
C1110 C1104 1.428 . S
C1110 N1109 1.351 . S
C1110 C1111 1.434 . S
C1111 C1102 1.429 . S
C1111 N1108 1.350 . S
C1111 C1110 1.434 . S
C1112 C1113 1.369 . S
C1112 C1114 1.419 . S
C1112 H1116 0.930 . S
C1113 C1112 1.369 . S
C1113 C1122 1.429 . S
C1114 C1112 1.419 . S
C1114 C1115 1.363 . S
C1114 H1117 0.929 . S
C1115 C1114 1.363 . S
C1115 C1121 1.428 . S
H1116 C1112 0.930 . S
H1117 C1114 0.929 . S
S1118 N1119 1.613 . S
S1118 N1120 1.610 . S
N1119 S1118 1.613 . S
N1119 C1122 1.350 . S
N1120 S1118 1.610 . S
N1120 C1121 1.351 . S
C1121 C1115 1.428 . S
C1121 N1120 1.351 . S
C1121 C1122 1.434 . S
C1122 C1113 1.429 . S
C1122 N1119 1.350 . S
C1122 C1121 1.434 . S
C1123 C1124 1.369 . S
C1123 C1125 1.419 . S
C1123 H1127 0.930 . S
C1124 C1123 1.369 . S
C1124 C1133 1.429 . S
C1125 C1123 1.419 . S
C1125 C1126 1.363 . S
C1125 H1128 0.929 . S
C1126 C1125 1.363 . S
C1126 C1132 1.428 . S
H1127 C1123 0.930 . S
H1128 C1125 0.929 . S
S1129 N1130 1.613 . S
S1129 N1131 1.610 . S
N1130 S1129 1.613 . S
N1130 C1133 1.350 . S
N1131 S1129 1.610 . S
N1131 C1132 1.351 . S
C1132 C1126 1.428 . S
C1132 N1131 1.351 . S
C1132 C1133 1.434 . S
C1133 C1124 1.429 . S
C1133 N1130 1.350 . S
C1133 C1132 1.434 . S
C1134 C1135 1.369 . S
C1134 C1136 1.419 . S
C1134 H1138 0.930 . S
C1135 C1134 1.369 . S
C1135 C1144 1.429 . S
C1136 C1134 1.419 . S
C1136 C1137 1.363 . S
C1136 H1139 0.929 . S
C1137 C1136 1.363 . S
C1137 C1143 1.428 . S
H1138 C1134 0.930 . S
H1139 C1136 0.929 . S
S1140 N1141 1.613 . S
S1140 N1142 1.610 . S
N1141 S1140 1.613 . S
N1141 C1144 1.350 . S
N1142 S1140 1.610 . S
N1142 C1143 1.351 . S
C1143 C1137 1.428 . S
C1143 N1142 1.351 . S
C1143 C1144 1.434 . S
C1144 C1135 1.429 . S
C1144 N1141 1.350 . S
C1144 C1143 1.434 . S
C1145 C1146 1.369 . S
C1145 C1147 1.419 . S
C1145 H1149 0.930 . S
C1146 C1145 1.369 . S
C1146 C1155 1.429 . S
C1147 C1145 1.419 . S
C1147 C1148 1.363 . S
C1147 H1150 0.929 . S
C1148 C1147 1.363 . S
C1148 C1154 1.428 . S
H1149 C1145 0.930 . S
H1150 C1147 0.929 . S
S1151 N1152 1.613 . S
S1151 N1153 1.610 . S
N1152 S1151 1.613 . S
N1152 C1155 1.350 . S
N1153 S1151 1.610 . S
N1153 C1154 1.351 . S
C1154 C1148 1.428 . S
C1154 N1153 1.351 . S
C1154 C1155 1.434 . S
C1155 C1146 1.429 . S
C1155 N1152 1.350 . S
C1155 C1154 1.434 . S
C1156 C1157 1.369 . S
C1156 C1158 1.419 . S
C1156 H1160 0.930 . S
C1157 C1156 1.369 . S
C1157 C1166 1.429 . S
C1158 C1156 1.419 . S
C1158 C1159 1.363 . S
C1158 H1161 0.929 . S
C1159 C1158 1.363 . S
C1159 C1165 1.428 . S
H1160 C1156 0.930 . S
H1161 C1158 0.929 . S
S1162 N1163 1.613 . S
S1162 N1164 1.610 . S
N1163 S1162 1.613 . S
N1163 C1166 1.350 . S
N1164 S1162 1.610 . S
N1164 C1165 1.351 . S
C1165 C1159 1.428 . S
C1165 N1164 1.351 . S
C1165 C1166 1.434 . S
C1166 C1157 1.429 . S
C1166 N1163 1.350 . S
C1166 C1165 1.434 . S
C1167 C1168 1.369 . S
C1167 C1169 1.419 . S
C1167 H1171 0.930 1_556 S
C1168 C1167 1.369 . S
C1168 C1177 1.429 . S
C1169 C1167 1.419 . S
C1169 C1170 1.363 . S
C1169 H1172 0.929 . S
C1170 C1169 1.363 . S
C1170 C1176 1.428 . S
H1171 C1167 0.930 1_554 S
H1172 C1169 0.929 . S
S1173 N1174 1.613 . S
S1173 N1175 1.610 . S
N1174 S1173 1.613 . S
N1174 C1177 1.350 . S
N1175 S1173 1.610 . S
N1175 C1176 1.351 . S
C1176 C1170 1.428 . S
C1176 N1175 1.351 . S
C1176 C1177 1.434 . S
C1177 C1168 1.429 . S
C1177 N1174 1.350 . S
C1177 C1176 1.434 . S
C1178 C1179 1.369 . S
C1178 C1180 1.419 . S
C1178 H1182 0.930 . S
C1179 C1178 1.369 . S
C1179 C1188 1.429 . S
C1180 C1178 1.419 . S
C1180 C1181 1.363 . S
C1180 H1183 0.929 . S
C1181 C1180 1.363 . S
C1181 C1187 1.428 . S
H1182 C1178 0.930 . S
H1183 C1180 0.929 . S
S1184 N1185 1.613 . S
S1184 N1186 1.610 . S
N1185 S1184 1.613 . S
N1185 C1188 1.350 . S
N1186 S1184 1.610 . S
N1186 C1187 1.351 . S
C1187 C1181 1.428 . S
C1187 N1186 1.351 . S
C1187 C1188 1.434 . S
C1188 C1179 1.429 . S
C1188 N1185 1.350 . S
C1188 C1187 1.434 . S
C1189 C1190 1.369 . S
C1189 C1191 1.419 . S
C1189 H1193 0.930 . S
C1190 C1189 1.369 . S
C1190 C1199 1.429 . S
C1191 C1189 1.419 . S
C1191 C1192 1.363 . S
C1191 H1194 0.929 . S
C1192 C1191 1.363 . S
C1192 C1198 1.428 . S
H1193 C1189 0.930 . S
H1194 C1191 0.929 . S
S1195 N1196 1.613 . S
S1195 N1197 1.610 . S
N1196 S1195 1.613 . S
N1196 C1199 1.350 . S
N1197 S1195 1.610 . S
N1197 C1198 1.351 . S
C1198 C1192 1.428 . S
C1198 N1197 1.351 . S
C1198 C1199 1.434 . S
C1199 C1190 1.429 . S
C1199 N1196 1.350 . S
C1199 C1198 1.434 . S
C1200 C1201 1.369 . S
C1200 C1202 1.419 . S
C1200 H1204 0.930 . S
C1201 C1200 1.369 . S
C1201 C1210 1.429 . S
C1202 C1200 1.419 . S
C1202 C1203 1.363 . S
C1202 H1205 0.929 . S
C1203 C1202 1.363 . S
C1203 C1209 1.428 . S
H1204 C1200 0.930 . S
H1205 C1202 0.929 . S
S1206 N1207 1.613 . S
S1206 N1208 1.610 . S
N1207 S1206 1.613 . S
N1207 C1210 1.350 . S
N1208 S1206 1.610 . S
N1208 C1209 1.351 . S
C1209 C1203 1.428 . S
C1209 N1208 1.351 . S
C1209 C1210 1.434 . S
C1210 C1201 1.429 . S
C1210 N1207 1.350 . S
C1210 C1209 1.434 . S
C1211 C1212 1.369 . S
C1211 C1213 1.419 . S
C1211 H1215 0.930 . S
C1212 C1211 1.369 . S
C1212 C1221 1.429 . S
C1213 C1211 1.419 . S
C1213 C1214 1.363 . S
C1213 H1216 0.929 . S
C1214 C1213 1.363 . S
C1214 C1220 1.428 . S
H1215 C1211 0.930 . S
H1216 C1213 0.929 . S
S1217 N1218 1.613 . S
S1217 N1219 1.610 . S
N1218 S1217 1.613 . S
N1218 C1221 1.350 . S
N1219 S1217 1.610 . S
N1219 C1220 1.351 . S
C1220 C1214 1.428 . S
C1220 N1219 1.351 . S
C1220 C1221 1.434 . S
C1221 C1212 1.429 . S
C1221 N1218 1.350 . S
C1221 C1220 1.434 . S
C1222 C1223 1.369 . S
C1222 C1224 1.419 . S
C1222 H1226 0.930 . S
C1223 C1222 1.369 . S
C1223 C1232 1.429 . S
C1224 C1222 1.419 . S
C1224 C1225 1.363 . S
C1224 H1227 0.929 . S
C1225 C1224 1.363 . S
C1225 C1231 1.428 . S
H1226 C1222 0.930 . S
H1227 C1224 0.929 . S
S1228 N1229 1.613 . S
S1228 N1230 1.610 . S
N1229 S1228 1.613 . S
N1229 C1232 1.350 . S
N1230 S1228 1.610 . S
N1230 C1231 1.351 . S
C1231 C1225 1.428 . S
C1231 N1230 1.351 . S
C1231 C1232 1.434 . S
C1232 C1223 1.429 . S
C1232 N1229 1.350 . S
C1232 C1231 1.434 . S
C1233 C1234 1.369 . S
C1233 C1235 1.419 . S
C1233 H1237 0.930 . S
C1234 C1233 1.369 . S
C1234 C1243 1.429 . S
C1235 C1233 1.419 . S
C1235 C1236 1.363 . S
C1235 H1238 0.929 . S
C1236 C1235 1.363 . S
C1236 C1242 1.428 . S
H1237 C1233 0.930 . S
H1238 C1235 0.929 . S
S1239 N1240 1.613 . S
S1239 N1241 1.610 . S
N1240 S1239 1.613 . S
N1240 C1243 1.350 . S
N1241 S1239 1.610 . S
N1241 C1242 1.351 . S
C1242 C1236 1.428 . S
C1242 N1241 1.351 . S
C1242 C1243 1.434 . S
C1243 C1234 1.429 . S
C1243 N1240 1.350 . S
C1243 C1242 1.434 . S
C1244 C1245 1.369 . S
C1244 C1246 1.419 . S
C1244 H1248 0.930 . S
C1245 C1244 1.369 . S
C1245 C1254 1.429 . S
C1246 C1244 1.419 . S
C1246 C1247 1.363 . S
C1246 H1249 0.929 . S
C1247 C1246 1.363 . S
C1247 C1253 1.428 . S
H1248 C1244 0.930 . S
H1249 C1246 0.929 . S
S1250 N1251 1.613 . S
S1250 N1252 1.610 . S
N1251 S1250 1.613 . S
N1251 C1254 1.350 . S
N1252 S1250 1.610 . S
N1252 C1253 1.351 . S
C1253 C1247 1.428 . S
C1253 N1252 1.351 . S
C1253 C1254 1.434 . S
C1254 C1245 1.429 . S
C1254 N1251 1.350 . S
C1254 C1253 1.434 . S
C1255 C1256 1.369 . S
C1255 C1257 1.419 . S
C1255 H1259 0.930 . S
C1256 C1255 1.369 . S
C1256 C1265 1.429 . S
C1257 C1255 1.419 . S
C1257 C1258 1.363 . S
C1257 H1260 0.929 . S
C1258 C1257 1.363 . S
C1258 C1264 1.428 . S
H1259 C1255 0.930 . S
H1260 C1257 0.929 . S
S1261 N1262 1.613 . S
S1261 N1263 1.610 . S
N1262 S1261 1.613 . S
N1262 C1265 1.350 . S
N1263 S1261 1.610 . S
N1263 C1264 1.351 . S
C1264 C1258 1.428 . S
C1264 N1263 1.351 . S
C1264 C1265 1.434 . S
C1265 C1256 1.429 . S
C1265 N1262 1.350 . S
C1265 C1264 1.434 . S
C1266 C1267 1.369 . S
C1266 C1268 1.419 . S
C1266 H1270 0.930 . S
C1267 C1266 1.369 . S
C1267 C1276 1.429 . S
C1268 C1266 1.419 . S
C1268 C1269 1.363 . S
C1268 H1271 0.929 . S
C1269 C1268 1.363 . S
C1269 C1275 1.428 . S
H1270 C1266 0.930 . S
H1271 C1268 0.929 . S
S1272 N1273 1.613 . S
S1272 N1274 1.610 . S
N1273 S1272 1.613 . S
N1273 C1276 1.350 . S
N1274 S1272 1.610 . S
N1274 C1275 1.351 . S
C1275 C1269 1.428 . S
C1275 N1274 1.351 . S
C1275 C1276 1.434 . S
C1276 C1267 1.429 . S
C1276 N1273 1.350 . S
C1276 C1275 1.434 . S
C1277 C1278 1.369 . S
C1277 C1279 1.419 . S
C1277 H1281 0.930 . S
C1278 C1277 1.369 . S
C1278 C1287 1.429 . S
C1279 C1277 1.419 . S
C1279 C1280 1.363 . S
C1279 H1282 0.929 . S
C1280 C1279 1.363 . S
C1280 C1286 1.428 . S
H1281 C1277 0.930 . S
H1282 C1279 0.929 . S
S1283 N1284 1.613 . S
S1283 N1285 1.610 . S
N1284 S1283 1.613 . S
N1284 C1287 1.350 . S
N1285 S1283 1.610 . S
N1285 C1286 1.351 . S
C1286 C1280 1.428 . S
C1286 N1285 1.351 . S
C1286 C1287 1.434 . S
C1287 C1278 1.429 . S
C1287 N1284 1.350 . S
C1287 C1286 1.434 . S
C1288 C1289 1.369 . S
C1288 C1290 1.419 . S
C1288 H1292 0.930 . S
C1289 C1288 1.369 . S
C1289 C1298 1.429 . S
C1290 C1288 1.419 . S
C1290 C1291 1.363 . S
C1290 H1293 0.929 . S
C1291 C1290 1.363 . S
C1291 C1297 1.428 . S
H1292 C1288 0.930 . S
H1293 C1290 0.929 . S
S1294 N1295 1.613 . S
S1294 N1296 1.610 . S
N1295 S1294 1.613 . S
N1295 C1298 1.350 . S
N1296 S1294 1.610 . S
N1296 C1297 1.351 . S
C1297 C1291 1.428 . S
C1297 N1296 1.351 . S
C1297 C1298 1.434 . S
C1298 C1289 1.429 . S
C1298 N1295 1.350 . S
C1298 C1297 1.434 . S
C1299 C1300 1.369 . S
C1299 C1301 1.419 . S
C1299 H1303 0.930 . S
C1300 C1299 1.369 . S
C1300 C1309 1.429 . S
C1301 C1299 1.419 . S
C1301 C1302 1.363 . S
C1301 H1304 0.929 . S
C1302 C1301 1.363 . S
C1302 C1308 1.428 . S
H1303 C1299 0.930 . S
H1304 C1301 0.929 . S
S1305 N1306 1.613 . S
S1305 N1307 1.610 . S
N1306 S1305 1.613 . S
N1306 C1309 1.350 . S
N1307 S1305 1.610 . S
N1307 C1308 1.351 . S
C1308 C1302 1.428 . S
C1308 N1307 1.351 . S
C1308 C1309 1.434 . S
C1309 C1300 1.429 . S
C1309 N1306 1.350 . S
C1309 C1308 1.434 . S
C1310 C1311 1.369 . S
C1310 C1312 1.419 . S
C1310 H1314 0.930 . S
C1311 C1310 1.369 . S
C1311 C1320 1.429 . S
C1312 C1310 1.419 . S
C1312 C1313 1.363 . S
C1312 H1315 0.929 . S
C1313 C1312 1.363 . S
C1313 C1319 1.428 . S
H1314 C1310 0.930 . S
H1315 C1312 0.929 . S
S1316 N1317 1.613 . S
S1316 N1318 1.610 . S
N1317 S1316 1.613 . S
N1317 C1320 1.350 . S
N1318 S1316 1.610 . S
N1318 C1319 1.351 . S
C1319 C1313 1.428 . S
C1319 N1318 1.351 . S
C1319 C1320 1.434 . S
C1320 C1311 1.429 . S
C1320 N1317 1.350 . S
C1320 C1319 1.434 . S
C1321 C1322 1.369 . S
C1321 C1323 1.419 . S
C1321 H1325 0.930 . S
C1322 C1321 1.369 . S
C1322 C1331 1.429 . S
C1323 C1321 1.419 . S
C1323 C1324 1.363 . S
C1323 H1326 0.929 . S
C1324 C1323 1.363 . S
C1324 C1330 1.428 . S
H1325 C1321 0.930 . S
H1326 C1323 0.929 . S
S1327 N1328 1.613 . S
S1327 N1329 1.610 . S
N1328 S1327 1.613 . S
N1328 C1331 1.350 . S
N1329 S1327 1.610 . S
N1329 C1330 1.351 . S
C1330 C1324 1.428 . S
C1330 N1329 1.351 . S
C1330 C1331 1.434 . S
C1331 C1322 1.429 . S
C1331 N1328 1.350 . S
C1331 C1330 1.434 . S
C1332 C1333 1.369 . S
C1332 C1334 1.419 . S
C1332 H1336 0.930 . S
C1333 C1332 1.369 . S
C1333 C1342 1.429 . S
C1334 C1332 1.419 . S
C1334 C1335 1.363 . S
C1334 H1337 0.929 . S
C1335 C1334 1.363 . S
C1335 C1341 1.428 . S
H1336 C1332 0.930 . S
H1337 C1334 0.929 . S
S1338 N1339 1.613 . S
S1338 N1340 1.610 . S
N1339 S1338 1.613 . S
N1339 C1342 1.350 . S
N1340 S1338 1.610 . S
N1340 C1341 1.351 . S
C1341 C1335 1.428 . S
C1341 N1340 1.351 . S
C1341 C1342 1.434 . S
C1342 C1333 1.429 . S
C1342 N1339 1.350 . S
C1342 C1341 1.434 . S
C1343 C1344 1.369 . S
C1343 C1345 1.419 . S
C1343 H1347 0.930 . S
C1344 C1343 1.369 . S
C1344 C1353 1.429 . S
C1345 C1343 1.419 . S
C1345 C1346 1.363 . S
C1345 H1348 0.929 . S
C1346 C1345 1.363 . S
C1346 C1352 1.428 . S
H1347 C1343 0.930 . S
H1348 C1345 0.929 . S
S1349 N1350 1.613 . S
S1349 N1351 1.610 . S
N1350 S1349 1.613 . S
N1350 C1353 1.350 . S
N1351 S1349 1.610 . S
N1351 C1352 1.351 . S
C1352 C1346 1.428 . S
C1352 N1351 1.351 . S
C1352 C1353 1.434 . S
C1353 C1344 1.429 . S
C1353 N1350 1.350 . S
C1353 C1352 1.434 . S
C1354 C1355 1.369 . S
C1354 C1356 1.419 . S
C1354 H1358 0.930 . S
C1355 C1354 1.369 . S
C1355 C1364 1.429 . S
C1356 C1354 1.419 . S
C1356 C1357 1.363 . S
C1356 H1359 0.929 . S
C1357 C1356 1.363 . S
C1357 C1363 1.428 . S
H1358 C1354 0.930 . S
H1359 C1356 0.929 . S
S1360 N1361 1.613 . S
S1360 N1362 1.610 . S
N1361 S1360 1.613 . S
N1361 C1364 1.350 . S
N1362 S1360 1.610 . S
N1362 C1363 1.351 . S
C1363 C1357 1.428 . S
C1363 N1362 1.351 . S
C1363 C1364 1.434 . S
C1364 C1355 1.429 . S
C1364 N1361 1.350 . S
C1364 C1363 1.434 . S
C1365 C1366 1.369 . S
C1365 C1367 1.419 . S
C1365 H1369 0.930 . S
C1366 C1365 1.369 . S
C1366 C1375 1.429 . S
C1367 C1365 1.419 . S
C1367 C1368 1.363 . S
C1367 H1370 0.929 . S
C1368 C1367 1.363 . S
C1368 C1374 1.428 . S
H1369 C1365 0.930 . S
H1370 C1367 0.929 . S
S1371 N1372 1.613 . S
S1371 N1373 1.610 . S
N1372 S1371 1.613 . S
N1372 C1375 1.350 . S
N1373 S1371 1.610 . S
N1373 C1374 1.351 . S
C1374 C1368 1.428 . S
C1374 N1373 1.351 . S
C1374 C1375 1.434 . S
C1375 C1366 1.429 . S
C1375 N1372 1.350 . S
C1375 C1374 1.434 . S
C1376 C1377 1.369 . S
C1376 C1378 1.419 . S
C1376 H1380 0.930 . S
C1377 C1376 1.369 . S
C1377 C1386 1.429 . S
C1378 C1376 1.419 . S
C1378 C1379 1.363 . S
C1378 H1381 0.929 . S
C1379 C1378 1.363 . S
C1379 C1385 1.428 . S
H1380 C1376 0.930 . S
H1381 C1378 0.929 . S
S1382 N1383 1.613 . S
S1382 N1384 1.610 . S
N1383 S1382 1.613 . S
N1383 C1386 1.350 . S
N1384 S1382 1.610 . S
N1384 C1385 1.351 . S
C1385 C1379 1.428 . S
C1385 N1384 1.351 . S
C1385 C1386 1.434 . S
C1386 C1377 1.429 . S
C1386 N1383 1.350 . S
C1386 C1385 1.434 . S
C1387 C1388 1.369 . S
C1387 C1389 1.419 . S
C1387 H1391 0.930 . S
C1388 C1387 1.369 . S
C1388 C1397 1.429 . S
C1389 C1387 1.419 . S
C1389 C1390 1.363 . S
C1389 H1392 0.929 . S
C1390 C1389 1.363 . S
C1390 C1396 1.428 . S
H1391 C1387 0.930 . S
H1392 C1389 0.929 . S
S1393 N1394 1.613 . S
S1393 N1395 1.610 . S
N1394 S1393 1.613 . S
N1394 C1397 1.350 . S
N1395 S1393 1.610 . S
N1395 C1396 1.351 . S
C1396 C1390 1.428 . S
C1396 N1395 1.351 . S
C1396 C1397 1.434 . S
C1397 C1388 1.429 . S
C1397 N1394 1.350 . S
C1397 C1396 1.434 . S
C873 C699 1.432 . S
C871 C74 1.605 . S
C884 C700 1.488 . S
C882 C153 1.445 . S
C895 C694 1.702 . S
C893 C231 1.735 . S
C904 C310 1.111 . S
C906 C693 0.541 . S
C915 C394 1.442 . S
C917 C696 1.480 . S
C928 C698 1.701 . S
C926 C494 1.736 . S
C937 C573 1.132 . S
C939 C697 0.518 . S
C948 C651 1.600 . S
C950 C695 1.433 . S
C961 C730 2.627 . S
C959 C56 2.605 . S
C970 C151 1.693 . S
C972 C761 1.553 . S
C983 C729 1.363 . S
C981 C237 1.273 . S
C994 C764 1.515 . S
C992 C326 1.451 . S
C1003 C410 1.729 . S
C1005 C727 1.716 . S
C1016 C759 2.615 . S
C1014 C476 2.612 . S
C1025 C571 1.465 . S
C1027 C732 1.332 . S
C1036 C657 1.237 . S
C1038 C766 1.320 . S
C1047 C58 1.231 . S
C1049 C762 1.315 . S
C1058 C392 1.694 . S
C1060 C765 1.555 . S
C1071 C733 1.365 . S
C1069 C478 1.267 . S
C1082 C760 1.515 . S
C1080 C567 1.456 . S
C1091 C655 2.606 . S
C1093 C726 2.627 . S
C1102 C235 2.609 . S
C1104 C763 2.614 . S
C1115 C728 1.335 . S
C1113 C308 1.460 . S
C1124 C147 1.730 . S
C1126 C731 1.714 . S
C1135 C662 1.616 . S
C1137 C798 1.481 . S
C1146 C405 1.285 . S
C1148 C799 1.245 . S
C1159 C793 1.521 . S
C1157 C483 1.548 . S
C1170 C792 0.583 . S
C1168 C562 0.832 . S
C1179 C142 1.273 . S
C1181 C795 1.241 . S
C1192 C797 1.518 . S
C1190 C242 1.545 . S
C1201 C321 0.824 . S
C1203 C796 0.583 . S
C1212 C63 1.617 . S
C1214 C794 1.481 . S
C1223 C644 2.802 . S
C1225 C832 2.727 . S
C1236 C864 1.432 . S
C1234 C403 1.514 . S
C1245 C489 1.128 . S
C1247 C825 1.290 . S
C1256 C578 1.705 . S
C1258 C859 1.682 . S
C1269 C830 1.451 . S
C1267 C158 1.444 . S
C1278 C224 2.843 . S
C1280 C861 2.778 . S
C1291 C827 1.759 . S
C1289 C319 1.818 . S
C1302 C862 1.322 . S
C1300 C69 1.234 . S
C1313 C858 1.322 . S
C1311 C646 1.233 . S
C1322 C140 1.516 . S
C1324 C860 1.440 . S
C1333 C226 1.115 . S
C1335 C829 1.289 . S
C1346 C863 1.678 . S
C1344 C315 1.712 . S
C1355 C67 2.803 . S
C1357 C828 2.727 . S
C1366 C487 2.844 . S
C1368 C865 2.778 . S
C1379 C831 1.761 . S
C1377 C560 1.819 . S
C1390 C826 1.449 . S
C1388 C399 1.442 . S
