# Generated by pormake.
# Topology ocu, (6,8)-cn, num edge types: 1
# Building blocks:
#     Node 0, Type 0, BuildingBlock: MIFKUJ_clean_sbu_0, # of connection points: 6
#     Node 1, Type 0, BuildingBlock: MIFKUJ_clean_sbu_0, # of connection points: 6
#     Node 2, Type 0, BuildingBlock: MIFKUJ_clean_sbu_0, # of connection points: 6
#     Node 3, Type 0, BuildingBlock: MIFKUJ_clean_sbu_0, # of connection points: 6
#     Node 4, Type 0, BuildingBlock: MIFKUJ_clean_sbu_0, # of connection points: 6
#     Node 5, Type 0, BuildingBlock: MIFKUJ_clean_sbu_0, # of connection points: 6
#     Node 6, Type 0, BuildingBlock: MIFKUJ_clean_sbu_0, # of connection points: 6
#     Node 7, Type 0, BuildingBlock: MIFKUJ_clean_sbu_0, # of connection points: 6
#     Node 8, Type 1, BuildingBlock: VETTIZ_charged_sbu_0, # of connection points: 8
#     Node 9, Type 1, BuildingBlock: VETTIZ_charged_sbu_0, # of connection points: 8
#     Node 10, Type 1, BuildingBlock: VETTIZ_charged_sbu_0, # of connection points: 8
#     Node 11, Type 1, BuildingBlock: VETTIZ_charged_sbu_0, # of connection points: 8
#     Node 12, Type 1, BuildingBlock: VETTIZ_charged_sbu_0, # of connection points: 8
#     Node 13, Type 1, BuildingBlock: VETTIZ_charged_sbu_0, # of connection points: 8
#     Edge 14, Type (0, 1), BuildingBlock: OJICUG_clean_linker_0, # of connection points: 2
#     Edge 15, Type (0, 1), BuildingBlock: OJICUG_clean_linker_0, # of connection points: 2
#     Edge 16, Type (0, 1), BuildingBlock: OJICUG_clean_linker_0, # of connection points: 2
#     Edge 17, Type (0, 1), BuildingBlock: OJICUG_clean_linker_0, # of connection points: 2
#     Edge 18, Type (0, 1), BuildingBlock: OJICUG_clean_linker_0, # of connection points: 2
#     Edge 19, Type (0, 1), BuildingBlock: OJICUG_clean_linker_0, # of connection points: 2
#     Edge 20, Type (0, 1), BuildingBlock: OJICUG_clean_linker_0, # of connection points: 2
#     Edge 21, Type (0, 1), BuildingBlock: OJICUG_clean_linker_0, # of connection points: 2
#     Edge 22, Type (0, 1), BuildingBlock: OJICUG_clean_linker_0, # of connection points: 2
#     Edge 23, Type (0, 1), BuildingBlock: OJICUG_clean_linker_0, # of connection points: 2
#     Edge 24, Type (0, 1), BuildingBlock: OJICUG_clean_linker_0, # of connection points: 2
#     Edge 25, Type (0, 1), BuildingBlock: OJICUG_clean_linker_0, # of connection points: 2
#     Edge 26, Type (0, 1), BuildingBlock: OJICUG_clean_linker_0, # of connection points: 2
#     Edge 27, Type (0, 1), BuildingBlock: OJICUG_clean_linker_0, # of connection points: 2
#     Edge 28, Type (0, 1), BuildingBlock: OJICUG_clean_linker_0, # of connection points: 2
#     Edge 29, Type (0, 1), BuildingBlock: OJICUG_clean_linker_0, # of connection points: 2
#     Edge 30, Type (0, 1), BuildingBlock: OJICUG_clean_linker_0, # of connection points: 2
#     Edge 31, Type (0, 1), BuildingBlock: OJICUG_clean_linker_0, # of connection points: 2
#     Edge 32, Type (0, 1), BuildingBlock: OJICUG_clean_linker_0, # of connection points: 2
#     Edge 33, Type (0, 1), BuildingBlock: OJICUG_clean_linker_0, # of connection points: 2
#     Edge 34, Type (0, 1), BuildingBlock: OJICUG_clean_linker_0, # of connection points: 2
#     Edge 35, Type (0, 1), BuildingBlock: OJICUG_clean_linker_0, # of connection points: 2
#     Edge 36, Type (0, 1), BuildingBlock: OJICUG_clean_linker_0, # of connection points: 2
#     Edge 37, Type (0, 1), BuildingBlock: OJICUG_clean_linker_0, # of connection points: 2
#     Edge 38, Type (0, 1), BuildingBlock: OJICUG_clean_linker_0, # of connection points: 2
#     Edge 39, Type (0, 1), BuildingBlock: OJICUG_clean_linker_0, # of connection points: 2
#     Edge 40, Type (0, 1), BuildingBlock: OJICUG_clean_linker_0, # of connection points: 2
#     Edge 41, Type (0, 1), BuildingBlock: OJICUG_clean_linker_0, # of connection points: 2
#     Edge 42, Type (0, 1), BuildingBlock: OJICUG_clean_linker_0, # of connection points: 2
#     Edge 43, Type (0, 1), BuildingBlock: OJICUG_clean_linker_0, # of connection points: 2
#     Edge 44, Type (0, 1), BuildingBlock: OJICUG_clean_linker_0, # of connection points: 2
#     Edge 45, Type (0, 1), BuildingBlock: OJICUG_clean_linker_0, # of connection points: 2
#     Edge 46, Type (0, 1), BuildingBlock: OJICUG_clean_linker_0, # of connection points: 2
#     Edge 47, Type (0, 1), BuildingBlock: OJICUG_clean_linker_0, # of connection points: 2
#     Edge 48, Type (0, 1), BuildingBlock: OJICUG_clean_linker_0, # of connection points: 2
#     Edge 49, Type (0, 1), BuildingBlock: OJICUG_clean_linker_0, # of connection points: 2
#     Edge 50, Type (0, 1), BuildingBlock: OJICUG_clean_linker_0, # of connection points: 2
#     Edge 51, Type (0, 1), BuildingBlock: OJICUG_clean_linker_0, # of connection points: 2
#     Edge 52, Type (0, 1), BuildingBlock: OJICUG_clean_linker_0, # of connection points: 2
#     Edge 53, Type (0, 1), BuildingBlock: OJICUG_clean_linker_0, # of connection points: 2
#     Edge 54, Type (0, 1), BuildingBlock: OJICUG_clean_linker_0, # of connection points: 2
#     Edge 55, Type (0, 1), BuildingBlock: OJICUG_clean_linker_0, # of connection points: 2
#     Edge 56, Type (0, 1), BuildingBlock: OJICUG_clean_linker_0, # of connection points: 2
#     Edge 57, Type (0, 1), BuildingBlock: OJICUG_clean_linker_0, # of connection points: 2
#     Edge 58, Type (0, 1), BuildingBlock: OJICUG_clean_linker_0, # of connection points: 2
#     Edge 59, Type (0, 1), BuildingBlock: OJICUG_clean_linker_0, # of connection points: 2
#     Edge 60, Type (0, 1), BuildingBlock: OJICUG_clean_linker_0, # of connection points: 2
#     Edge 61, Type (0, 1), BuildingBlock: OJICUG_clean_linker_0, # of connection points: 2
# Relax obj value: 0.058
# Max RMSD: 0.195
# Mean RMSD: 0.108
data_MOF--net-ocu--node1-MIFKUJ_clean_sbu_0--node2-VETTIZ_charged_sbu_0--edge1-OJICUG_clean_linker_0
_symmetry_space_group_name_H-M    P1
_symmetry_Int_Tables_number       1
_symmetry_cell_setting            triclinic
loop_
_symmetry_equiv_pos_as_xyz
'x, y, z'
_cell_length_a     29.312956
_cell_length_b     30.52978
_cell_length_c     28.932816
_cell_angle_alpha  91.965029
_cell_angle_beta   93.635989
_cell_angle_gamma 100.48089
loop_
_atom_site_label
_atom_site_type_symbol
_atom_site_fract_x
_atom_site_fract_y
_atom_site_fract_z
_atom_type_partial_charge
Zn0 Zn 0.22652 0.29937 0.2663 0.0
Zn1 Zn 0.26983 0.2125 0.23459 0.0
C2 C 0.15931 0.3462 0.29271 0.0
O3 O 0.13424 0.30806 0.27644 0.0
C4 C 0.31242 0.17194 0.16782 0.0
O5 O 0.34139 0.20931 0.17969 0.0
O6 O 0.18402 0.28727 0.20659 0.0
O7 O 0.29422 0.3241 0.25059 0.0
O8 O 0.28929 0.27 0.19786 0.0
C9 C 0.18988 0.31791 0.17764 0.0
O10 O 0.22576 0.35061 0.18487 0.0
O11 O 0.2034 0.35133 0.29417 0.0
C12 C 0.32874 0.20711 0.324 0.0
O13 O 0.29955 0.22464 0.34815 0.0
O14 O 0.32261 0.20356 0.27998 0.0
O15 O 0.20883 0.19234 0.26703 0.0
O16 O 0.20787 0.25078 0.31337 0.0
O17 O 0.27416 0.16339 0.18703 0.0
C18 C 0.30688 0.3097 0.21254 0.0
C19 C 0.19485 0.20924 0.30331 0.0
Zn20 Zn 0.73359 0.29022 0.23083 0.0
Zn21 Zn 0.78665 0.2129 0.2679 0.0
C22 C 0.65554 0.32242 0.17965 0.0
O23 O 0.63977 0.27995 0.16921 0.0
C24 C 0.86482 0.16551 0.29569 0.0
O25 O 0.89436 0.19855 0.28037 0.0
O26 O 0.78601 0.30605 0.19197 0.0
O27 O 0.76074 0.30608 0.29779 0.0
O28 O 0.82105 0.2725 0.29053 0.0
C29 C 0.81148 0.34421 0.19861 0.0
O30 O 0.80557 0.37012 0.23406 0.0
O31 O 0.69163 0.33357 0.20763 0.0
C32 C 0.70874 0.15852 0.29345 0.0
O33 O 0.72549 0.13305 0.26387 0.0
O34 O 0.72873 0.19887 0.30089 0.0
O35 O 0.77013 0.20118 0.20016 0.0
O36 O 0.70518 0.22732 0.20756 0.0
O37 O 0.82159 0.16625 0.29189 0.0
C38 C 0.80193 0.3013 0.31078 0.0
C39 C 0.72851 0.20255 0.18623 0.0
Zn40 Zn 0.8018 0.72016 0.23259 0.0
Zn41 Zn 0.70564 0.8064 0.25302 0.0
C42 C 0.8547 0.66494 0.27619 0.0
O43 O 0.88554 0.68706 0.25045 0.0
C44 C 0.64954 0.83653 0.18856 0.0
O45 O 0.62213 0.80877 0.21292 0.0
O46 O 0.83181 0.6985 0.17544 0.0
O47 O 0.73127 0.70987 0.22538 0.0
O48 O 0.67219 0.74386 0.23603 0.0
C49 C 0.81707 0.65714 0.16494 0.0
O50 O 0.7802 0.63693 0.18432 0.0
O51 O 0.81472 0.67523 0.27709 0.0
C52 C 0.679 0.84858 0.34205 0.0
O53 O 0.71715 0.84304 0.36562 0.0
O54 O 0.671 0.83419 0.30014 0.0
O55 O 0.77384 0.81199 0.27315 0.0
O56 O 0.8344 0.77928 0.26565 0.0
O57 O 0.69336 0.84226 0.1978 0.0
C58 C 0.68768 0.70942 0.2236 0.0
C59 C 0.81665 0.81103 0.28242 0.0
Zn60 Zn 0.21771 0.76158 0.28372 0.0
Zn61 Zn 0.31207 0.73064 0.23416 0.0
C62 C 0.15419 0.6872 0.29743 0.0
O63 O 0.13153 0.70999 0.26925 0.0
C64 C 0.35399 0.81633 0.2023 0.0
O65 O 0.37793 0.82073 0.24265 0.0
O66 O 0.17157 0.79698 0.30926 0.0
O67 O 0.27829 0.78733 0.31691 0.0
O68 O 0.33512 0.75172 0.29978 0.0
C69 C 0.16096 0.79022 0.3509 0.0
O70 O 0.18094 0.76223 0.37488 0.0
O71 O 0.19729 0.70113 0.30713 0.0
C72 C 0.33838 0.67733 0.16432 0.0
O73 O 0.30319 0.69254 0.14445 0.0
O74 O 0.35115 0.68914 0.20654 0.0
O75 O 0.24649 0.69801 0.22275 0.0
O76 O 0.21195 0.7554 0.21392 0.0
O77 O 0.32196 0.7825 0.19333 0.0
C78 C 0.31891 0.77924 0.32521 0.0
C79 C 0.21467 0.71543 0.20292 0.0
Zn80 Zn 0.24527 0.80541 0.70399 0.0
Zn81 Zn 0.26521 0.70177 0.78099 0.0
C82 C 0.16069 0.84287 0.68783 0.0
O83 O 0.13791 0.80863 0.70824 0.0
C84 C 0.34551 0.68228 0.83108 0.0
O85 O 0.34065 0.71803 0.85542 0.0
O86 O 0.30313 0.82693 0.6726 0.0
O87 O 0.25778 0.82102 0.77037 0.0
O88 O 0.2759 0.76448 0.80885 0.0
C89 C 0.32291 0.86623 0.68603 0.0
O90 O 0.30608 0.88684 0.71976 0.0
O91 O 0.20366 0.84562 0.68236 0.0
C92 C 0.18445 0.64742 0.81862 0.0
O93 O 0.16387 0.64371 0.77663 0.0
O94 O 0.22488 0.67049 0.8263 0.0
O95 O 0.2297 0.68412 0.71822 0.0
O96 O 0.2169 0.74409 0.682 0.0
O97 O 0.32072 0.67181 0.79315 0.0
C98 C 0.27172 0.80509 0.80719 0.0
C99 C 0.21125 0.70215 0.68457 0.0
Zn100 Zn 0.30038 0.20587 0.73781 0.0
Zn101 Zn 0.20029 0.28585 0.76457 0.0
C102 C 0.35648 0.16048 0.79447 0.0
O103 O 0.38571 0.17711 0.76424 0.0
C104 C 0.14563 0.34439 0.72666 0.0
O105 O 0.11578 0.32267 0.75362 0.0
O106 O 0.33017 0.18479 0.68255 0.0
O107 O 0.23171 0.20087 0.72097 0.0
O108 O 0.16799 0.22752 0.72848 0.0
C109 C 0.32641 0.14284 0.67644 0.0
O110 O 0.30055 0.1164 0.70331 0.0
O111 O 0.31494 0.16772 0.79104 0.0
C112 C 0.18594 0.34078 0.83951 0.0
O113 O 0.22203 0.36363 0.82105 0.0
O114 O 0.17056 0.30084 0.82409 0.0
O115 O 0.27191 0.29859 0.77305 0.0
O116 O 0.33274 0.26776 0.75962 0.0
O117 O 0.18512 0.3333 0.72382 0.0
C118 C 0.18844 0.19823 0.71078 0.0
C119 C 0.3159 0.3005 0.77498 0.0
Zn120 Zn 0.70249 0.28116 0.78135 0.0
Zn121 Zn 0.78984 0.24797 0.69448 0.0
C122 C 0.65121 0.19354 0.80398 0.0
O123 O 0.63584 0.18739 0.76018 0.0
C124 C 0.79416 0.32918 0.64992 0.0
O125 O 0.7905 0.34557 0.69183 0.0
O126 O 0.68298 0.33288 0.81323 0.0
O127 O 0.77213 0.29017 0.78645 0.0
O128 O 0.83155 0.27939 0.74778 0.0
C129 C 0.64174 0.32692 0.82596 0.0
O130 O 0.61346 0.28907 0.81424 0.0
O131 O 0.67947 0.22887 0.81767 0.0
C132 C 0.85945 0.21708 0.6517 0.0
O133 O 0.87287 0.26044 0.6505 0.0
O134 O 0.82221 0.2013 0.67059 0.0
O135 O 0.72578 0.22849 0.71279 0.0
O136 O 0.67423 0.27111 0.71632 0.0
O137 O 0.78708 0.28739 0.64279 0.0
C138 C 0.8157 0.29337 0.78412 0.0
C139 C 0.69413 0.24571 0.69237 0.0
Zn140 Zn 0.71144 0.7884 0.74616 0.0
Zn141 Zn 0.8094 0.71556 0.7687 0.0
C142 C 0.66658 0.83963 0.80216 0.0
O143 O 0.6333 0.81145 0.77863 0.0
C144 C 0.86597 0.66262 0.73026 0.0
O145 O 0.89644 0.69629 0.74934 0.0
O146 O 0.66806 0.80411 0.69419 0.0
O147 O 0.77359 0.80116 0.71333 0.0
O148 O 0.83181 0.76544 0.72378 0.0
C149 C 0.68342 0.84409 0.68391 0.0
O150 O 0.72042 0.86646 0.70787 0.0
O151 O 0.70867 0.8363 0.79701 0.0
C152 C 0.84599 0.70691 0.86362 0.0
O153 O 0.80277 0.70339 0.87472 0.0
O154 O 0.85623 0.71916 0.82352 0.0
O155 O 0.74283 0.69493 0.79128 0.0
O156 O 0.683 0.72806 0.77473 0.0
O157 O 0.82281 0.66259 0.73281 0.0
C158 C 0.8142 0.79562 0.70395 0.0
C159 C 0.69979 0.69676 0.79388 0.0
Fe160 Fe 0.00901 0.05229 0.4938 0.0
O161 O 0.96559 1.00265 0.52168 0.0
Fe162 Fe 0.10769 0.00666 0.48409 0.0
Fe163 Fe 0.8971 0.99406 0.51158 0.0
O164 O 0.04034 1.00255 0.47486 0.0
O165 O 0.0391 0.99711 0.47528 0.0
O166 O 0.96439 0.99739 0.52209 0.0
Fe167 Fe 0.99656 0.94768 0.50462 0.0
C168 C 0.93591 0.0886 0.54952 0.0
O169 O 0.96947 0.04354 0.43193 0.0
O170 O 0.89878 0.03676 0.45766 0.0
O171 O 0.03777 0.90297 0.47917 0.0
O172 O 0.09529 0.94903 0.44285 0.0
O173 O 0.10783 0.05151 0.43223 0.0
O174 O 0.05955 0.09737 0.45815 0.0
O175 O 0.88683 0.94086 0.46351 0.0
O176 O 0.95694 0.93357 0.44262 0.0
C177 C 0.09146 0.08824 0.43117 0.0
O178 O 0.03635 0.95849 0.56601 0.0
O179 O 0.10687 0.96597 0.53911 0.0
O180 O 0.96867 0.09682 0.52058 0.0
O181 O 0.90956 0.05014 0.55406 0.0
C182 C 0.92717 0.04769 0.42669 0.0
C183 C 0.91296 0.92671 0.43518 0.0
C184 C 0.91199 0.91167 0.56595 0.0
O185 O 0.89501 0.94793 0.56258 0.0
O186 O 0.94622 0.90302 0.54169 0.0
C187 C 0.07009 0.91045 0.44962 0.0
O188 O 0.11858 0.06148 0.53094 0.0
O189 O 0.04923 0.06486 0.55602 0.0
C190 C 0.07919 0.95629 0.57094 0.0
C191 C 0.09344 0.07458 0.56103 0.0
Fe192 Fe 0.48727 0.90228 0.9656 0.0
O193 O 0.49491 0.9672 0.96838 0.0
Fe194 Fe 0.44437 0.9966 0.99932 0.0
Fe195 Fe 0.55179 0.00822 0.99586 0.0
O196 O 0.4904 0.96678 0.96861 0.0
O197 O 0.50082 0.0367 0.02839 0.0
O198 O 0.50578 0.0367 0.02897 0.0
Fe199 Fe 0.50656 0.10144 0.03043 0.0
C200 C 0.55994 0.92652 0.04785 0.0
O201 O 0.53673 0.91583 0.91819 0.0
O202 O 0.59193 0.97206 0.95551 0.0
O203 O 0.45186 0.10185 0.9816 0.0
O204 O 0.44193 0.03598 0.94333 0.0
O205 O 0.39075 0.94994 0.96475 0.0
O206 O 0.42931 0.90402 0.92285 0.0
O207 O 0.54775 0.04824 0.94078 0.0
O208 O 0.55223 0.11331 0.97958 0.0
C209 C 0.39243 0.91903 0.93321 0.0
O210 O 0.4565 0.08789 0.07699 0.0
O211 O 0.40288 0.03395 0.03551 0.0
O212 O 0.54168 0.90107 0.01332 0.0
O213 O 0.55893 0.96803 0.05054 0.0
C214 C 0.57803 0.94038 0.92337 0.0
C215 C 0.55854 0.09045 0.9438 0.0
C216 C 0.60228 0.08738 0.06246 0.0
O217 O 0.60506 0.05685 0.03042 0.0
O218 O 0.56439 0.10036 0.07338 0.0
C219 C 0.43749 0.07658 0.94579 0.0
O220 O 0.44488 0.95691 0.05491 0.0
O221 O 0.4421 0.89106 0.01766 0.0
C222 C 0.41458 0.06598 0.06732 0.0
C223 C 0.43517 0.91459 0.05288 0.0
Fe224 Fe 0.00836 0.54434 0.0192 0.0
O225 O 0.96932 0.49384 0.98131 0.0
Fe226 Fe 0.10694 0.5004 0.0516 0.0
Fe227 Fe 0.90218 0.48538 0.97183 0.0
O228 O 0.03856 0.49623 0.04628 0.0
O229 O 0.03958 0.49184 0.0436 0.0
O230 O 0.97039 0.48956 0.9786 0.0
Fe231 Fe 1.00075 0.44144 0.00558 0.0
C232 C 0.91919 0.54475 0.06307 0.0
O233 O 0.97195 0.58795 0.98463 0.0
O234 O 0.9174 0.54231 0.93446 0.0
O235 O 0.04644 0.44461 0.95381 0.0
O236 O 0.11289 0.45623 0.99806 0.0
O237 O 0.12016 0.55197 0.00692 0.0
O238 O 0.05222 0.54978 0.96734 0.0
O239 O 0.90906 0.43806 0.92194 0.0
O240 O 0.95445 0.39491 0.96151 0.0
C241 C 0.09615 0.55914 0.97066 0.0
O242 O 0.03822 0.39771 0.04045 0.0
O243 O 0.09217 0.4446 0.08999 0.0
O244 O 0.9621 0.5424 0.07065 0.0
O245 O 0.89574 0.5289 0.02579 0.0
C246 C 0.94062 0.58105 0.94994 0.0
C247 C 0.9255 0.40176 0.92755 0.0
C248 C 0.9121 0.42565 0.05201 0.0
O249 O 0.88882 0.43309 0.01538 0.0
O250 O 0.95605 0.43526 0.05694 0.0
C251 C 0.08917 0.44175 0.96056 0.0
O252 O 0.10054 0.54776 0.10112 0.0
O253 O 0.05534 0.5913 0.06249 0.0
C254 C 0.06991 0.40542 0.07505 0.0
C255 C 0.08472 0.58444 0.09608 0.0
Fe256 Fe 0.50321 0.50655 0.94939 0.0
O257 O 0.54117 0.53483 0.00624 0.0
Fe258 Fe 0.39478 0.46815 0.99172 0.0
Fe259 Fe 0.60919 0.53831 0.01439 0.0
O260 O 0.46278 0.47397 0.99563 0.0
O261 O 0.46273 0.47265 0.00072 0.0
O262 O 0.54102 0.53361 0.0115 0.0
Fe263 Fe 0.5004 0.5008 0.05785 0.0
C264 C 0.58247 0.45852 0.94442 0.0
O265 O 0.55273 0.54651 0.908 0.0
O266 O 0.60939 0.5835 0.96188 0.0
O267 O 0.46364 0.55204 0.06052 0.0
O268 O 0.39125 0.51507 0.04376 0.0
O269 O 0.3945 0.5168 0.9434 0.0
O270 O 0.46603 0.55754 0.94813 0.0
O271 O 0.60449 0.57948 0.07098 0.0
O272 O 0.54651 0.53753 0.11074 0.0
C273 C 0.42295 0.55217 0.93556 0.0
O274 O 0.45089 0.46076 0.09881 0.0
O275 O 0.39547 0.42308 0.04414 0.0
O276 O 0.53919 0.45535 0.94826 0.0
O277 O 0.61188 0.49198 0.96135 0.0
C278 C 0.58979 0.57715 0.91991 0.0
C279 C 0.58171 0.57027 0.10764 0.0
C280 C 0.58119 0.45447 0.07147 0.0
O281 O 0.60965 0.48937 0.06236 0.0
O282 O 0.53788 0.44951 0.05952 0.0
C283 C 0.41986 0.54871 0.06166 0.0
O284 O 0.3999 0.42649 0.93566 0.0
O285 O 0.45706 0.46936 0.89603 0.0
C286 C 0.41497 0.42913 0.08614 0.0
C287 C 0.42208 0.4362 0.8988 0.0
Fe288 Fe 0.02487 0.41001 0.49797 0.0
O289 O 0.02983 0.47508 0.50081 0.0
Fe290 Fe 0.99717 0.50272 0.44593 0.0
Fe291 Fe 0.00674 0.50815 0.55235 0.0
O292 O 0.02883 0.47443 0.49648 0.0
O293 O 0.97381 0.5355 0.49757 0.0
O294 O 0.97588 0.53682 0.50175 0.0
Fe295 Fe 0.97766 0.60046 0.50023 0.0
C296 C 0.94325 0.42099 0.5553 0.0
O297 O 0.07366 0.42525 0.55292 0.0
O298 O 0.04116 0.47249 0.59929 0.0
O299 O 0.02136 0.61078 0.44765 0.0
O300 O 0.05532 0.55137 0.44505 0.0
O301 O 0.02808 0.46509 0.39858 0.0
O302 O 0.06851 0.42294 0.44554 0.0
O303 O 0.06583 0.55532 0.5547 0.0
O304 O 0.03442 0.61641 0.54837 0.0
C305 C 0.06031 0.44136 0.40679 0.0
O306 O 0.92617 0.58261 0.44795 0.0
O307 O 0.95989 0.53713 0.40006 0.0
O308 O 0.97471 0.39887 0.54575 0.0
O309 O 0.94787 0.46254 0.55147 0.0
C310 C 0.07003 0.44568 0.59214 0.0
C311 C 0.06806 0.59704 0.56079 0.0
C312 C 0.94629 0.57053 0.5939 0.0
O313 O 0.97769 0.54585 0.60049 0.0
O314 O 0.93712 0.58877 0.55545 0.0
C315 C 0.05286 0.59075 0.43408 0.0
O316 O 0.9381 0.45406 0.44373 0.0
O317 O 0.97242 0.39506 0.44621 0.0
C318 C 0.92952 0.56229 0.40839 0.0
C319 C 0.93719 0.41267 0.43609 0.0
Fe320 Fe 0.51159 0.97353 0.49896 0.0
O321 O 0.5464 0.03023 0.52943 0.0
Fe322 Fe 0.47245 0.00548 0.39239 0.0
Fe323 Fe 0.55489 0.04004 0.59668 0.0
O324 O 0.48034 0.0137 0.46 0.0
O325 O 0.48028 0.01809 0.45967 0.0
O326 O 0.54679 0.03452 0.5288 0.0
Fe327 Fe 0.51561 0.07506 0.49007 0.0
C328 C 0.46634 0.96867 0.58755 0.0
O329 O 0.54952 0.93842 0.54398 0.0
O330 O 0.59741 0.99381 0.58966 0.0
O331 O 0.56674 0.07827 0.44459 0.0
O332 O 0.52457 0.05635 0.37798 0.0
O333 O 0.51873 0.96162 0.38857 0.0
O334 O 0.563 0.97453 0.45446 0.0
O335 O 0.60095 0.09577 0.5815 0.0
O336 O 0.558 0.12953 0.52821 0.0
C337 C 0.55572 0.95872 0.41305 0.0
O338 O 0.4771 0.10962 0.44464 0.0
O339 O 0.43188 0.05412 0.39625 0.0
O340 O 0.46035 0.97029 0.54387 0.0
O341 O 0.50407 0.98686 0.61015 0.0
C342 C 0.58529 0.95296 0.57305 0.0
C343 C 0.59321 0.12964 0.5583 0.0
C344 C 0.4694 0.08321 0.57843 0.0
O345 O 0.50648 0.08088 0.60296 0.0
O346 O 0.46449 0.07443 0.53501 0.0
C347 C 0.56174 0.07581 0.40056 0.0
O348 O 0.42515 0.95094 0.40896 0.0
O349 O 0.47022 0.9188 0.4616 0.0
C350 C 0.44329 0.09502 0.41317 0.0
C351 C 0.43456 0.91755 0.43208 0.0
C352 C 0.15707 0.13286 0.32726 0.0
C353 C 0.16498 0.17947 0.33491 0.0
H354 H 0.1278 0.0687 0.35033 0.0
C355 C 0.14492 0.19644 0.37339 0.0
H356 H 0.17142 0.11807 0.29826 0.0
C357 C 0.11893 0.16756 0.40369 0.0
C358 C 0.11275 0.12083 0.39671 0.0
H359 H 0.14984 0.2321 0.38053 0.0
H360 H 0.10526 0.18179 0.43345 0.0
C361 C 0.13177 0.1043 0.35748 0.0
C362 C 0.8491 0.0987 0.34399 0.0
C363 C 0.88134 0.13059 0.32319 0.0
H364 H 0.83835 0.0472 0.39254 0.0
C365 C 0.92908 0.13083 0.33225 0.0
H366 H 0.81202 0.09715 0.33746 0.0
C367 C 0.94421 0.10171 0.36371 0.0
C368 C 0.91184 0.07209 0.38697 0.0
H369 H 0.95481 0.15473 0.31657 0.0
H370 H 0.98123 0.10418 0.3717 0.0
C371 C 0.86416 0.06996 0.37562 0.0
C372 C 0.82391 0.8781 0.33715 0.0
C373 C 0.84434 0.84438 0.31714 0.0
H374 H 0.82907 0.92984 0.39017 0.0
C375 C 0.88953 0.84048 0.33399 0.0
H376 H 0.78971 0.8829 0.32451 0.0
C377 C 0.91266 0.86825 0.37123 0.0
C378 C 0.89083 0.90004 0.39294 0.0
H379 H 0.90649 0.81502 0.31944 0.0
H380 H 0.94687 0.8636 0.38417 0.0
C381 C 0.84654 0.90514 0.37486 0.0
C382 C 0.11356 0.85061 0.35114 0.0
C383 C 0.12951 0.81576 0.37369 0.0
H384 H 0.081 0.90755 0.3579 0.0
C385 C 0.11788 0.80763 0.4196 0.0
H386 H 0.12131 0.85743 0.3157 0.0
C387 C 0.09409 0.83608 0.44363 0.0
C388 C 0.08188 0.87313 0.42211 0.0
H389 H 0.12913 0.7806 0.43778 0.0
H390 H 0.08846 0.83109 0.47987 0.0
C391 C 0.09021 0.87912 0.37521 0.0
C392 C 0.16359 0.91654 0.65372 0.0
C393 C 0.13682 0.87664 0.66717 0.0
H394 H 0.16557 0.97388 0.61317 0.0
C395 C 0.08859 0.8679 0.65613 0.0
H396 H 0.20073 0.92466 0.66262 0.0
C397 C 0.06832 0.8966 0.62805 0.0
C398 C 0.09627 0.93402 0.61079 0.0
H399 H 0.06717 0.83751 0.66637 0.0
H400 H 0.03175 0.88751 0.61678 0.0
C401 C 0.14351 0.94489 0.62567 0.0
C402 C 0.11459 0.15849 0.66536 0.0
C403 C 0.16306 0.16379 0.67531 0.0
H404 H 0.05458 0.12625 0.62225 0.0
C405 C 0.18771 0.13786 0.64858 0.0
H406 H 0.09433 0.17788 0.68497 0.0
C407 C 0.16501 0.10857 0.61233 0.0
C408 C 0.11674 0.10388 0.6017 0.0
H409 H 0.22499 0.14109 0.65473 0.0
H410 H 0.18559 0.08992 0.59221 0.0
C411 C 0.09173 0.12878 0.62928 0.0
C412 C 0.91073 0.19997 0.5903 0.0
C413 C 0.88585 0.18709 0.62918 0.0
H414 H 0.94662 0.17831 0.53367 0.0
C415 C 0.88399 0.14415 0.64501 0.0
H416 H 0.91278 0.23326 0.57775 0.0
C417 C 0.90396 0.11349 0.6207 0.0
C418 C 0.92527 0.1248 0.5794 0.0
H419 H 0.86594 0.13385 0.67549 0.0
H420 H 0.90066 0.08006 0.63315 0.0
C421 C 0.93026 0.16879 0.56527 0.0
C422 C 0.88444 0.81793 0.65398 0.0
C423 C 0.8404 0.824 0.66818 0.0
H424 H 0.9416 0.8395 0.61091 0.0
C425 C 0.82068 0.85749 0.64675 0.0
H426 H 0.90104 0.79235 0.66909 0.0
C427 C 0.84376 0.88424 0.61363 0.0
C428 C 0.88798 0.87905 0.59961 0.0
H429 H 0.78698 0.8634 0.6555 0.0
H430 H 0.82636 0.90949 0.59895 0.0
C431 C 0.90777 0.84488 0.62018 0.0
C432 C 0.32414 0.09501 0.14446 0.0
C433 C 0.32713 0.14032 0.13501 0.0
H434 H 0.35034 0.03475 0.1298 0.0
C435 C 0.35248 0.15768 0.09822 0.0
H436 H 0.30518 0.08118 0.17315 0.0
C437 C 0.37756 0.13144 0.07366 0.0
C438 C 0.37816 0.08743 0.08562 0.0
H439 H 0.35523 0.19248 0.09031 0.0
H440 H 0.39913 0.14654 0.04724 0.0
C441 C 0.3499 0.06857 0.11989 0.0
C442 C 0.82512 0.34916 0.11537 0.0
C443 C 0.83978 0.36256 0.16168 0.0
H444 H 0.83627 0.3598 0.04394 0.0
C445 C 0.87903 0.39599 0.1718 0.0
H446 H 0.79451 0.32371 0.10681 0.0
C447 C 0.9033 0.41599 0.13585 0.0
C448 C 0.88762 0.40358 0.08958 0.0
H449 H 0.89066 0.40681 0.20735 0.0
H450 H 0.93348 0.44197 0.14414 0.0
C451 C 0.84855 0.37 0.07949 0.0
C452 C 0.58473 0.84063 0.13082 0.0
C453 C 0.62834 0.86036 0.15201 0.0
H454 H 0.52909 0.84647 0.08148 0.0
C455 C 0.64907 0.9033 0.14 0.0
H456 H 0.56786 0.80764 0.13954 0.0
C457 C 0.62611 0.92616 0.10731 0.0
C458 C 0.58283 0.90574 0.08566 0.0
H459 H 0.68245 0.91939 0.15638 0.0
H460 H 0.64259 0.9591 0.09809 0.0
C461 C 0.56246 0.86287 0.09772 0.0
C462 C 0.1492 0.69794 0.14073 0.0
C463 C 0.17425 0.6854 0.17957 0.0
H464 H 0.09999 0.67503 0.08275 0.0
C465 C 0.16257 0.64199 0.19483 0.0
H466 H 0.15752 0.73146 0.12864 0.0
C467 C 0.12876 0.6108 0.17026 0.0
C468 C 0.10731 0.62151 0.12845 0.0
H469 H 0.18071 0.63154 0.22512 0.0
H470 H 0.12208 0.57714 0.18227 0.0
C471 C 0.11604 0.6659 0.11488 0.0
C472 C 0.30694 0.82031 0.88812 0.0
C473 C 0.29028 0.83637 0.84671 0.0
H474 H 0.35259 0.83563 0.94943 0.0
C475 C 0.2984 0.88274 0.8407 0.0
H476 H 0.30035 0.78501 0.89429 0.0
C477 C 0.32819 0.91165 0.87241 0.0
C478 C 0.3492 0.89444 0.91064 0.0
H479 H 0.28523 0.89633 0.80958 0.0
H480 H 0.33812 0.94647 0.8648 0.0
C481 C 0.33641 0.84924 0.91984 0.0
C482 C 0.1842 0.40297 0.89689 0.0
C483 C 0.16032 0.36458 0.87171 0.0
H484 H 0.1803 0.45754 0.94385 0.0
C485 C 0.11182 0.35277 0.87402 0.0
H486 H 0.22145 0.41325 0.89551 0.0
C487 C 0.08784 0.37907 0.901 0.0
C488 C 0.11214 0.41712 0.92666 0.0
H489 H 0.09236 0.32381 0.85431 0.0
H490 H 0.05062 0.36898 0.9028 0.0
C491 C 0.16054 0.42861 0.92426 0.0
C492 C 0.64032 0.17691 0.88615 0.0
C493 C 0.63054 0.16377 0.83904 0.0
H494 H 0.62479 0.16404 0.95583 0.0
C495 C 0.5986 0.1243 0.82645 0.0
H496 H 0.66489 0.20698 0.89717 0.0
C497 C 0.57572 0.09923 0.86058 0.0
C498 C 0.58407 0.11396 0.90736 0.0
H499 H 0.59056 0.11337 0.79037 0.0
H500 H 0.55049 0.06938 0.85036 0.0
C501 C 0.61708 0.15248 0.91985 0.0
C502 C 0.86805 0.66938 0.935 0.0
C503 C 0.87788 0.68311 0.89029 0.0
H504 H 0.88154 0.62632 0.98931 0.0
C505 C 0.91373 0.66736 0.86825 0.0
H506 H 0.84074 0.68087 0.95287 0.0
C507 C 0.93617 0.63547 0.88863 0.0
C508 C 0.92412 0.61997 0.93191 0.0
H509 H 0.92233 0.67719 0.83385 0.0
H510 H 0.9614 0.62154 0.86979 0.0
C511 C 0.89126 0.63821 0.95578 0.0
C512 C 0.16323 0.34062 0.10068 0.0
C513 C 0.15195 0.32445 0.14408 0.0
H514 H 0.14384 0.37748 0.04337 0.0
C515 C 0.10758 0.32619 0.15921 0.0
H516 H 0.19738 0.34015 0.08857 0.0
C517 C 0.07733 0.34872 0.13388 0.0
C518 C 0.09062 0.3683 0.09249 0.0
H519 H 0.09823 0.31452 0.19281 0.0
H520 H 0.04562 0.35415 0.14858 0.0
C521 C 0.13257 0.36191 0.07486 0.0
C522 C 0.18726 0.62298 0.89983 0.0
C523 C 0.16184 0.62415 0.85709 0.0
H524 H 0.18652 0.60119 0.96926 0.0
C525 C 0.11513 0.60297 0.8517 0.0
H526 H 0.22352 0.63881 0.90493 0.0
C527 C 0.09396 0.58157 0.88865 0.0
C528 C 0.11926 0.58073 0.93154 0.0
H529 H 0.09479 0.60325 0.81915 0.0
H530 H 0.0577 0.56572 0.88355 0.0
C531 C 0.1662 0.60129 0.93666 0.0
C532 C 0.36106 0.14263 0.87802 0.0
C533 C 0.37312 0.13541 0.83262 0.0
H534 H 0.37322 0.13024 0.94992 0.0
C535 C 0.40468 0.10693 0.82437 0.0
H536 H 0.3372 0.16485 0.8852 0.0
C537 C 0.42426 0.08626 0.86105 0.0
C538 C 0.41378 0.09502 0.90668 0.0
H539 H 0.41456 0.10103 0.78955 0.0
H540 H 0.44899 0.06489 0.85399 0.0
C541 C 0.38186 0.12315 0.91491 0.0
C542 C 0.82977 0.31969 0.86702 0.0
C543 C 0.84743 0.31428 0.82359 0.0
H544 H 0.8423 0.35091 0.93511 0.0
C545 C 0.89455 0.3314 0.81789 0.0
H546 H 0.7938 0.30637 0.87267 0.0
C547 C 0.92236 0.3568 0.85395 0.0
C548 C 0.90347 0.36446 0.89613 0.0
H549 H 0.90908 0.32755 0.78482 0.0
H550 H 0.95744 0.37286 0.84787 0.0
C551 C 0.85761 0.34455 0.90298 0.0
C552 C 0.61581 0.89467 0.81427 0.0
C553 C 0.65352 0.87578 0.83082 0.0
H554 H 0.56353 0.93193 0.8308 0.0
C555 C 0.67284 0.8871 0.87634 0.0
H556 H 0.60061 0.88693 0.77914 0.0
C557 C 0.65136 0.9132 0.90625 0.0
C558 C 0.61077 0.92833 0.89055 0.0
H559 H 0.70186 0.87277 0.88987 0.0
H560 H 0.66384 0.918 0.94245 0.0
C561 C 0.5948 0.92076 0.84372 0.0
C562 C 0.82268 0.58673 0.12102 0.0
C563 C 0.84442 0.62945 0.13863 0.0
H564 H 0.82955 0.52636 0.08457 0.0
C565 C 0.89258 0.64268 0.1347 0.0
H566 H 0.7858 0.57516 0.12383 0.0
C567 C 0.91811 0.61389 0.11305 0.0
C568 C 0.8958 0.57161 0.09452 0.0
H569 H 0.91056 0.67503 0.14865 0.0
H570 H 0.9548 0.62538 0.10912 0.0
C571 C 0.84787 0.55845 0.09901 0.0
C572 C 0.40124 0.88546 0.17349 0.0
C573 C 0.3706 0.84457 0.16429 0.0
H574 H 0.44557 0.94025 0.14496 0.0
C575 C 0.35959 0.82839 0.11813 0.0
H576 H 0.4103 0.89865 0.20878 0.0
C577 C 0.38051 0.85146 0.08206 0.0
C578 C 0.41209 0.89166 0.09128 0.0
H579 H 0.33627 0.79687 0.10989 0.0
H580 H 0.37217 0.83764 0.04689 0.0
C581 C 0.42145 0.90915 0.13712 0.0
C582 C 0.70571 0.12684 0.1464 0.0
C583 C 0.70536 0.17291 0.14746 0.0
H584 H 0.67222 0.06215 0.11743 0.0
C585 C 0.67814 0.19017 0.1138 0.0
H586 H 0.72695 0.113 0.17197 0.0
C587 C 0.64837 0.16159 0.08217 0.0
C588 C 0.64467 0.1152 0.08426 0.0
H589 H 0.67821 0.22565 0.1134 0.0
H590 H 0.62538 0.17557 0.05839 0.0
C591 C 0.67495 0.09786 0.11506 0.0
C592 C 0.62072 0.65873 0.82177 0.0
C593 C 0.6698 0.66339 0.82268 0.0
H594 H 0.55666 0.62745 0.85008 0.0
C595 C 0.69069 0.63702 0.85376 0.0
H596 H 0.60291 0.67819 0.79855 0.0
C597 C 0.66432 0.60889 0.88388 0.0
C598 C 0.61555 0.60458 0.88358 0.0
H599 H 0.72799 0.63892 0.8559 0.0
H600 H 0.68246 0.59049 0.90801 0.0
C601 C 0.59397 0.62938 0.85129 0.0
C602 C 0.40601 0.66299 0.88817 0.0
C603 C 0.36979 0.64928 0.85356 0.0
H604 H 0.45195 0.64288 0.94091 0.0
C605 C 0.3527 0.60347 0.84507 0.0
H606 H 0.41952 0.69812 0.89574 0.0
C607 C 0.3701 0.57215 0.87186 0.0
C608 C 0.40576 0.58583 0.90696 0.0
H609 H 0.32434 0.59185 0.81918 0.0
H610 H 0.35546 0.53711 0.86518 0.0
C611 C 0.42438 0.63148 0.91415 0.0
C612 C 0.3921 0.3348 0.81787 0.0
C613 C 0.34795 0.33953 0.79858 0.0
H614 H 0.45106 0.36268 0.86447 0.0
C615 C 0.33355 0.38054 0.80576 0.0
H616 H 0.4045 0.30376 0.81293 0.0
C617 C 0.36048 0.41432 0.83511 0.0
C618 C 0.40281 0.40814 0.8571 0.0
H619 H 0.30072 0.38596 0.79005 0.0
H620 H 0.34684 0.44424 0.84289 0.0
C621 C 0.41911 0.36868 0.84709 0.0
C622 C 0.58074 0.35453 0.86909 0.0
C623 C 0.62679 0.36064 0.8563 0.0
H624 H 0.53082 0.38029 0.90743 0.0
C625 C 0.65869 0.39846 0.87399 0.0
H626 H 0.5554 0.3256 0.85626 0.0
C627 C 0.64465 0.42978 0.9036 0.0
C628 C 0.5984 0.42396 0.91592 0.0
H629 H 0.69455 0.40389 0.86506 0.0
H630 H 0.66991 0.45884 0.91623 0.0
C631 C 0.56669 0.38585 0.89855 0.0
C632 C 0.59169 0.34538 0.12856 0.0
C633 C 0.63494 0.3568 0.15437 0.0
H634 H 0.54054 0.36698 0.08252 0.0
C635 C 0.65978 0.40063 0.15299 0.0
H636 H 0.57165 0.31187 0.12865 0.0
C637 C 0.64236 0.4319 0.12587 0.0
C638 C 0.59926 0.42049 0.0998 0.0
H639 H 0.69332 0.4106 0.17203 0.0
H640 H 0.66277 0.46523 0.12555 0.0
C641 C 0.57386 0.37693 0.10197 0.0
C642 C 0.66814 0.62797 0.2001 0.0
C643 C 0.65467 0.66975 0.20348 0.0
H644 H 0.65413 0.56242 0.16713 0.0
C645 C 0.61107 0.67443 0.18291 0.0
H646 H 0.70065 0.62291 0.21693 0.0
C647 C 0.58393 0.63945 0.15544 0.0
C648 C 0.5997 0.59921 0.14866 0.0
H649 H 0.59953 0.70614 0.18507 0.0
H650 H 0.55261 0.64513 0.13647 0.0
C651 C 0.64106 0.59307 0.17253 0.0
C652 C 0.33649 0.62206 0.09844 0.0
C653 C 0.36073 0.6457 0.13779 0.0
H654 H 0.33614 0.57294 0.04382 0.0
C655 C 0.4058 0.63875 0.15082 0.0
H656 H 0.30174 0.62667 0.0874 0.0
C657 C 0.42598 0.60842 0.12508 0.0
C658 C 0.40098 0.58385 0.08656 0.0
H659 H 0.42543 0.65678 0.18076 0.0
H660 H 0.46053 0.60322 0.13612 0.0
C661 C 0.35617 0.59121 0.07344 0.0
C662 C 0.34236 0.32645 0.13595 0.0
C663 C 0.33782 0.34009 0.18221 0.0
H664 H 0.36978 0.34293 0.07052 0.0
C665 C 0.36218 0.38291 0.19784 0.0
H666 H 0.32456 0.29397 0.12216 0.0
C667 C 0.38932 0.41121 0.16789 0.0
C668 C 0.39228 0.39788 0.12112 0.0
H669 H 0.35988 0.39482 0.23314 0.0
H670 H 0.40647 0.44417 0.18088 0.0
C671 C 0.36861 0.35478 0.10607 0.0
C672 C 0.92784 0.62149 0.70893 0.0
C673 C 0.88234 0.62946 0.70081 0.0
H674 H 0.98369 0.59489 0.68119 0.0
C675 C 0.85543 0.6105 0.66088 0.0
H676 H 0.94903 0.63551 0.73982 0.0
C677 C 0.87547 0.58793 0.6272 0.0
C678 C 0.92219 0.58322 0.63364 0.0
H679 H 0.82027 0.61616 0.65394 0.0
H680 H 0.85533 0.57644 0.59495 0.0
C681 C 0.94754 0.59804 0.67568 0.0
C682 C 0.39256 0.92591 0.6842 0.0
C683 C 0.36104 0.89056 0.6613 0.0
H684 H 0.45116 0.97807 0.67875 0.0
C685 C 0.36435 0.88083 0.61402 0.0
H686 H 0.39057 0.93402 0.72068 0.0
C687 C 0.39814 0.90682 0.58971 0.0
C688 C 0.42973 0.94219 0.61266 0.0
H689 H 0.34006 0.85397 0.59556 0.0
H690 H 0.39983 0.89892 0.55313 0.0
C691 C 0.42703 0.95116 0.66021 0.0
C692 C 0.09146 0.39571 0.70553 0.0
C693 C 0.13175 0.37863 0.69729 0.0
H694 H 0.04072 0.4322 0.67853 0.0
C695 C 0.1564 0.39178 0.65856 0.0
H696 H 0.07234 0.38673 0.7357 0.0
C697 C 0.1383 0.4177 0.62599 0.0
C698 C 0.09572 0.43125 0.63208 0.0
H699 H 0.18791 0.37959 0.65174 0.0
H700 H 0.156 0.42465 0.59455 0.0
C701 C 0.07369 0.4222 0.67321 0.0
C702 C 0.62857 0.23351 0.6308 0.0
C703 C 0.67384 0.22831 0.64583 0.0
H704 H 0.56668 0.20581 0.58842 0.0
C705 C 0.69593 0.19964 0.61995 0.0
H706 H 0.61084 0.25587 0.64966 0.0
C707 C 0.67085 0.17169 0.5844 0.0
C708 C 0.62334 0.17185 0.57451 0.0
H709 H 0.73108 0.19559 0.63002 0.0
H710 H 0.68698 0.14617 0.56865 0.0
C711 C 0.60336 0.20528 0.59524 0.0
C712 C 0.82945 0.37552 0.35384 0.0
C713 C 0.8296 0.32959 0.34874 0.0
H714 H 0.86401 0.43854 0.38564 0.0
C715 C 0.86104 0.31099 0.37698 0.0
H716 H 0.80549 0.39061 0.3324 0.0
C717 C 0.89385 0.33794 0.40745 0.0
C718 C 0.89658 0.3844 0.41005 0.0
H719 H 0.86143 0.27556 0.37423 0.0
H720 H 0.91849 0.3224 0.42751 0.0
C721 C 0.86295 0.40286 0.38423 0.0
C722 C 0.60808 0.88302 0.33408 0.0
C723 C 0.64728 0.8759 0.36145 0.0
H724 H 0.54911 0.91499 0.32846 0.0
C725 C 0.65668 0.89695 0.40583 0.0
H726 H 0.59978 0.86751 0.2996 0.0
C727 C 0.62745 0.92454 0.4224 0.0
C728 C 0.58829 0.93165 0.39485 0.0
H729 H 0.68671 0.89237 0.42764 0.0
H730 H 0.63543 0.94005 0.45691 0.0
C731 C 0.57905 0.91056 0.35052 0.0
C732 C 0.15125 0.63217 0.35979 0.0
C733 C 0.12811 0.65453 0.32654 0.0
H734 H 0.14497 0.59358 0.42064 0.0
C735 C 0.07975 0.65102 0.32615 0.0
H736 H 0.18857 0.63414 0.36055 0.0
C737 C 0.05559 0.62938 0.36096 0.0
C738 C 0.07904 0.60969 0.39597 0.0
H739 H 0.0608 0.66746 0.30078 0.0
H740 H 0.0186 0.62911 0.3612 0.0
C741 C 0.1266 0.60932 0.39419 0.0
C742 C 0.38171 0.15185 0.32128 0.0
C743 C 0.36279 0.18303 0.34731 0.0
H744 H 0.42128 0.0996 0.32203 0.0
C745 C 0.37351 0.18746 0.39562 0.0
H746 H 0.37434 0.14737 0.28408 0.0
C747 C 0.40143 0.1602 0.41742 0.0
C748 C 0.41793 0.12746 0.39132 0.0
H749 H 0.35951 0.2112 0.41662 0.0
H750 H 0.40844 0.16342 0.45472 0.0
C751 C 0.40843 0.12416 0.34306 0.0
C752 C 0.61346 0.85118 0.63131 0.0
C753 C 0.65961 0.86732 0.64849 0.0
H754 H 0.55335 0.86593 0.59285 0.0
C755 C 0.68258 0.90873 0.63453 0.0
H756 H 0.59501 0.81929 0.64136 0.0
C757 C 0.659 0.93515 0.60719 0.0
C758 C 0.61196 0.92067 0.59276 0.0
H759 H 0.71845 0.92177 0.64637 0.0
H760 H 0.67709 0.96787 0.599 0.0
C761 C 0.58975 0.87774 0.60342 0.0
C762 C 0.63973 0.10023 0.30292 0.0
C763 C 0.67006 0.13899 0.32033 0.0
H764 H 0.58154 0.04984 0.31501 0.0
C765 C 0.6649 0.15696 0.36462 0.0
H766 H 0.64314 0.08574 0.26887 0.0
C767 C 0.63022 0.13587 0.39148 0.0
C768 C 0.59976 0.0972 0.37383 0.0
H769 H 0.68828 0.18664 0.37889 0.0
H770 H 0.6268 0.15009 0.42563 0.0
C771 C 0.6046 0.07972 0.32928 0.0
C772 C 0.90557 0.61039 0.29496 0.0
C773 C 0.86735 0.62999 0.305 0.0
H774 H 0.95441 0.57107 0.3198 0.0
C775 C 0.84363 0.61835 0.34461 0.0
H776 H 0.92358 0.618 0.26382 0.0
C777 C 0.86136 0.59174 0.37666 0.0
C778 C 0.90259 0.57615 0.36904 0.0
H779 H 0.81353 0.63243 0.35259 0.0
H780 H 0.84482 0.58617 0.40894 0.0
C781 C 0.92282 0.58311 0.32665 0.0
C782 C 0.39711 0.80867 0.3662 0.0
C783 C 0.34871 0.80649 0.36256 0.0
H784 H 0.4631 0.84627 0.39314 0.0
C785 C 0.32918 0.83551 0.39098 0.0
H786 H 0.41311 0.7866 0.34499 0.0
C787 C 0.35766 0.86955 0.41796 0.0
C788 C 0.40597 0.87438 0.41788 0.0
H789 H 0.29193 0.8342 0.38977 0.0
H790 H 0.34202 0.89404 0.43617 0.0
C791 C 0.42567 0.8425 0.39395 0.0
C792 C 0.16001 0.41008 0.34871 0.0
C793 C 0.13612 0.37981 0.31398 0.0
H794 H 0.15363 0.45445 0.40587 0.0
C795 C 0.08829 0.37823 0.30367 0.0
H796 H 0.19691 0.41216 0.3571 0.0
C797 C 0.06381 0.40326 0.33086 0.0
C798 C 0.08694 0.42953 0.36885 0.0
H799 H 0.06927 0.35558 0.2765 0.0
H800 H 0.02633 0.39869 0.32499 0.0
C801 C 0.13539 0.43444 0.37637 0.0
C802 C 0.37178 0.143 0.60617 0.0
C803 C 0.35964 0.12503 0.64865 0.0
H804 H 0.41576 0.14258 0.54957 0.0
C805 C 0.38259 0.09223 0.66689 0.0
H806 H 0.35459 0.16852 0.59173 0.0
C807 C 0.41842 0.0788 0.6439 0.0
C808 C 0.43078 0.09682 0.60157 0.0
H809 H 0.3742 0.07834 0.69994 0.0
H810 H 0.43659 0.05439 0.65924 0.0
C811 C 0.4066 0.12829 0.58225 0.0
C812 C 0.84177 0.4008 0.62944 0.0
C813 C 0.82377 0.35574 0.61813 0.0
H814 H 0.89456 0.45673 0.61834 0.0
C815 C 0.84188 0.33388 0.58169 0.0
H816 H 0.82837 0.41854 0.65706 0.0
C817 C 0.88074 0.35517 0.56075 0.0
C818 C 0.90083 0.39902 0.57477 0.0
H819 H 0.82831 0.29923 0.57161 0.0
H820 H 0.89561 0.33713 0.53441 0.0
C821 C 0.87992 0.42241 0.60764 0.0
C822 C 0.17027 0.62758 0.64988 0.0
C823 C 0.17901 0.67433 0.64908 0.0
H824 H 0.12858 0.56629 0.62201 0.0
C825 C 0.15386 0.69493 0.61582 0.0
H826 H 0.18908 0.61067 0.67491 0.0
C827 C 0.11901 0.66964 0.58593 0.0
C828 C 0.10886 0.62313 0.58812 0.0
H829 H 0.15977 0.73088 0.6139 0.0
H830 H 0.09923 0.68665 0.56186 0.0
C831 C 0.1357 0.60218 0.61946 0.0
loop_
_geom_bond_atom_site_label_1
_geom_bond_atom_site_label_2
_geom_bond_distance
_geom_bond_site_symmetry_2
_ccdc_geom_bond_type
Zn0 O6 1.969 . S
Zn0 O7 1.965 . S
Zn0 O11 2.024 . S
Zn0 O16 1.969 . S
Zn1 O8 1.969 . S
Zn1 O14 1.969 . S
Zn1 O15 1.965 . S
Zn1 O17 2.024 . S
C2 O3 1.229 . S
C2 O11 1.058 . S
O3 C2 1.229 . S
C4 O5 1.229 . S
C4 O17 1.058 . S
O5 C4 1.229 . S
O6 Zn0 1.969 . S
O6 C9 1.267 . S
O7 Zn0 1.965 . S
O7 C18 1.260 . S
O8 Zn1 1.969 . S
O8 C18 1.258 . S
C9 O6 1.267 . S
C9 O10 1.228 . S
O10 C9 1.228 . S
O11 Zn0 2.024 . S
O11 C2 1.058 . S
C12 O13 1.228 . S
C12 O14 1.267 . S
O13 C12 1.228 . S
O14 Zn1 1.969 . S
O14 C12 1.267 . S
O15 Zn1 1.965 . S
O15 C19 1.260 . S
O16 Zn0 1.969 . S
O16 C19 1.258 . S
O17 Zn1 2.024 . S
O17 C4 1.058 . S
C18 O7 1.260 . S
C18 O8 1.258 . S
C19 O15 1.260 . S
C19 O16 1.258 . S
Zn20 O26 1.969 . S
Zn20 O27 1.965 . S
Zn20 O31 2.024 . S
Zn20 O36 1.969 . S
Zn21 O28 1.969 . S
Zn21 O34 1.969 . S
Zn21 O35 1.965 . S
Zn21 O37 2.024 . S
C22 O23 1.229 . S
C22 O31 1.058 . S
O23 C22 1.229 . S
C24 O25 1.229 . S
C24 O37 1.058 . S
O25 C24 1.229 . S
O26 Zn20 1.969 . S
O26 C29 1.267 . S
O27 Zn20 1.965 . S
O27 C38 1.260 . S
O28 Zn21 1.969 . S
O28 C38 1.258 . S
C29 O26 1.267 . S
C29 O30 1.228 . S
O30 C29 1.228 . S
O31 Zn20 2.024 . S
O31 C22 1.058 . S
C32 O33 1.228 . S
C32 O34 1.267 . S
O33 C32 1.228 . S
O34 Zn21 1.969 . S
O34 C32 1.267 . S
O35 Zn21 1.965 . S
O35 C39 1.260 . S
O36 Zn20 1.969 . S
O36 C39 1.258 . S
O37 Zn21 2.024 . S
O37 C24 1.058 . S
C38 O27 1.260 . S
C38 O28 1.258 . S
C39 O35 1.260 . S
C39 O36 1.258 . S
Zn40 O46 1.969 . S
Zn40 O47 1.965 . S
Zn40 O51 2.024 . S
Zn40 O56 1.969 . S
Zn41 O48 1.969 . S
Zn41 O54 1.969 . S
Zn41 O55 1.965 . S
Zn41 O57 2.024 . S
C42 O43 1.229 . S
C42 O51 1.058 . S
O43 C42 1.229 . S
C44 O45 1.229 . S
C44 O57 1.058 . S
O45 C44 1.229 . S
O46 Zn40 1.969 . S
O46 C49 1.267 . S
O47 Zn40 1.965 . S
O47 C58 1.260 . S
O48 Zn41 1.969 . S
O48 C58 1.258 . S
C49 O46 1.267 . S
C49 O50 1.228 . S
O50 C49 1.228 . S
O51 Zn40 2.024 . S
O51 C42 1.058 . S
C52 O53 1.228 . S
C52 O54 1.267 . S
O53 C52 1.228 . S
O54 Zn41 1.969 . S
O54 C52 1.267 . S
O55 Zn41 1.965 . S
O55 C59 1.260 . S
O56 Zn40 1.969 . S
O56 C59 1.258 . S
O57 Zn41 2.024 . S
O57 C44 1.058 . S
C58 O47 1.260 . S
C58 O48 1.258 . S
C59 O55 1.260 . S
C59 O56 1.258 . S
Zn60 O66 1.969 . S
Zn60 O67 1.965 . S
Zn60 O71 2.024 . S
Zn60 O76 1.969 . S
Zn61 O68 1.969 . S
Zn61 O74 1.969 . S
Zn61 O75 1.965 . S
Zn61 O77 2.024 . S
C62 O63 1.229 . S
C62 O71 1.058 . S
O63 C62 1.229 . S
C64 O65 1.229 . S
C64 O77 1.058 . S
O65 C64 1.229 . S
O66 Zn60 1.969 . S
O66 C69 1.267 . S
O67 Zn60 1.965 . S
O67 C78 1.260 . S
O68 Zn61 1.969 . S
O68 C78 1.258 . S
C69 O66 1.267 . S
C69 O70 1.228 . S
O70 C69 1.228 . S
O71 Zn60 2.024 . S
O71 C62 1.058 . S
C72 O73 1.228 . S
C72 O74 1.267 . S
O73 C72 1.228 . S
O74 Zn61 1.969 . S
O74 C72 1.267 . S
O75 Zn61 1.965 . S
O75 C79 1.260 . S
O76 Zn60 1.969 . S
O76 C79 1.258 . S
O77 Zn61 2.024 . S
O77 C64 1.058 . S
C78 O67 1.260 . S
C78 O68 1.258 . S
C79 O75 1.260 . S
C79 O76 1.258 . S
Zn80 O86 1.969 . S
Zn80 O87 1.965 . S
Zn80 O91 2.024 . S
Zn80 O96 1.969 . S
Zn81 O88 1.969 . S
Zn81 O94 1.969 . S
Zn81 O95 1.965 . S
Zn81 O97 2.024 . S
C82 O83 1.229 . S
C82 O91 1.058 . S
O83 C82 1.229 . S
C84 O85 1.229 . S
C84 O97 1.058 . S
O85 C84 1.229 . S
O86 Zn80 1.969 . S
O86 C89 1.267 . S
O87 Zn80 1.965 . S
O87 C98 1.260 . S
O88 Zn81 1.969 . S
O88 C98 1.258 . S
C89 O86 1.267 . S
C89 O90 1.228 . S
O90 C89 1.228 . S
O91 Zn80 2.024 . S
O91 C82 1.058 . S
C92 O93 1.228 . S
C92 O94 1.267 . S
O93 C92 1.228 . S
O94 Zn81 1.969 . S
O94 C92 1.267 . S
O95 Zn81 1.965 . S
O95 C99 1.260 . S
O96 Zn80 1.969 . S
O96 C99 1.258 . S
O97 Zn81 2.024 . S
O97 C84 1.058 . S
C98 O87 1.260 . S
C98 O88 1.258 . S
C99 O95 1.260 . S
C99 O96 1.258 . S
Zn100 O106 1.969 . S
Zn100 O107 1.965 . S
Zn100 O111 2.024 . S
Zn100 O116 1.969 . S
Zn101 O108 1.969 . S
Zn101 O114 1.969 . S
Zn101 O115 1.965 . S
Zn101 O117 2.024 . S
C102 O103 1.229 . S
C102 O111 1.058 . S
O103 C102 1.229 . S
C104 O105 1.229 . S
C104 O117 1.058 . S
O105 C104 1.229 . S
O106 Zn100 1.969 . S
O106 C109 1.267 . S
O107 Zn100 1.965 . S
O107 C118 1.260 . S
O108 Zn101 1.969 . S
O108 C118 1.258 . S
C109 O106 1.267 . S
C109 O110 1.228 . S
O110 C109 1.228 . S
O111 Zn100 2.024 . S
O111 C102 1.058 . S
C112 O113 1.228 . S
C112 O114 1.267 . S
O113 C112 1.228 . S
O114 Zn101 1.969 . S
O114 C112 1.267 . S
O115 Zn101 1.965 . S
O115 C119 1.260 . S
O116 Zn100 1.969 . S
O116 C119 1.258 . S
O117 Zn101 2.024 . S
O117 C104 1.058 . S
C118 O107 1.260 . S
C118 O108 1.258 . S
C119 O115 1.260 . S
C119 O116 1.258 . S
Zn120 O126 1.969 . S
Zn120 O127 1.965 . S
Zn120 O131 2.024 . S
Zn120 O136 1.969 . S
Zn121 O128 1.969 . S
Zn121 O134 1.969 . S
Zn121 O135 1.965 . S
Zn121 O137 2.024 . S
C122 O123 1.229 . S
C122 O131 1.058 . S
O123 C122 1.229 . S
C124 O125 1.229 . S
C124 O137 1.058 . S
O125 C124 1.229 . S
O126 Zn120 1.969 . S
O126 C129 1.267 . S
O127 Zn120 1.965 . S
O127 C138 1.260 . S
O128 Zn121 1.969 . S
O128 C138 1.258 . S
C129 O126 1.267 . S
C129 O130 1.228 . S
O130 C129 1.228 . S
O131 Zn120 2.024 . S
O131 C122 1.058 . S
C132 O133 1.228 . S
C132 O134 1.267 . S
O133 C132 1.228 . S
O134 Zn121 1.969 . S
O134 C132 1.267 . S
O135 Zn121 1.965 . S
O135 C139 1.260 . S
O136 Zn120 1.969 . S
O136 C139 1.258 . S
O137 Zn121 2.024 . S
O137 C124 1.058 . S
C138 O127 1.260 . S
C138 O128 1.258 . S
C139 O135 1.260 . S
C139 O136 1.258 . S
Zn140 O146 1.969 . S
Zn140 O147 1.965 . S
Zn140 O151 2.024 . S
Zn140 O156 1.969 . S
Zn141 O148 1.969 . S
Zn141 O154 1.969 . S
Zn141 O155 1.965 . S
Zn141 O157 2.024 . S
C142 O143 1.229 . S
C142 O151 1.058 . S
O143 C142 1.229 . S
C144 O145 1.229 . S
C144 O157 1.058 . S
O145 C144 1.229 . S
O146 Zn140 1.969 . S
O146 C149 1.267 . S
O147 Zn140 1.965 . S
O147 C158 1.260 . S
O148 Zn141 1.969 . S
O148 C158 1.258 . S
C149 O146 1.267 . S
C149 O150 1.228 . S
O150 C149 1.228 . S
O151 Zn140 2.024 . S
O151 C142 1.058 . S
C152 O153 1.228 . S
C152 O154 1.267 . S
O153 C152 1.228 . S
O154 Zn141 1.969 . S
O154 C152 1.267 . S
O155 Zn141 1.965 . S
O155 C159 1.260 . S
O156 Zn140 1.969 . S
O156 C159 1.258 . S
O157 Zn141 2.024 . S
O157 C144 1.058 . S
C158 O147 1.260 . S
C158 O148 1.258 . S
C159 O155 1.260 . S
C159 O156 1.258 . S
Fe160 O161 1.886 1_455 S
Fe160 O164 1.715 . S
Fe160 O169 2.077 1_455 S
Fe160 O174 1.935 . S
Fe160 O180 2.077 1_455 S
Fe160 O189 1.935 . S
O161 Fe160 1.886 1_655 S
O161 Fe163 1.715 1_545 S
Fe162 O164 1.886 . S
Fe162 O165 1.715 1_545 S
Fe162 O172 1.935 1_545 S
Fe162 O173 2.077 . S
Fe162 O179 1.935 1_545 S
Fe162 O188 2.077 . S
Fe163 O161 1.715 1_565 S
Fe163 O166 1.886 . S
Fe163 O170 1.935 1_565 S
Fe163 O175 2.077 . S
Fe163 O181 1.935 1_565 S
Fe163 O185 2.077 . S
O164 Fe160 1.715 . S
O164 Fe162 1.886 . S
O165 Fe162 1.715 1_565 S
O165 Fe167 1.886 1_455 S
O166 Fe163 1.886 . S
O166 Fe167 1.715 . S
Fe167 O165 1.886 1_655 S
Fe167 O166 1.715 . S
Fe167 O171 2.077 1_655 S
Fe167 O176 1.935 . S
Fe167 O178 2.077 1_655 S
Fe167 O186 1.935 . S
C168 O180 1.381 . S
C168 O181 1.421 . S
O169 Fe160 2.077 1_655 S
O169 C182 1.381 . S
O170 Fe163 1.935 1_545 S
O170 C182 1.421 . S
O171 Fe167 2.077 1_455 S
O171 C187 1.381 . S
O172 Fe162 1.935 1_565 S
O172 C187 1.421 . S
O173 Fe162 2.077 . S
O173 C177 1.381 . S
O174 Fe160 1.935 . S
O174 C177 1.421 . S
O175 Fe163 2.077 . S
O175 C183 1.381 . S
O176 Fe167 1.935 . S
O176 C183 1.421 . S
C177 O173 1.381 . S
C177 O174 1.421 . S
O178 Fe167 2.077 1_455 S
O178 C190 1.381 . S
O179 Fe162 1.935 1_565 S
O179 C190 1.421 . S
O180 Fe160 2.077 1_655 S
O180 C168 1.381 . S
O181 Fe163 1.935 1_545 S
O181 C168 1.421 . S
C182 O169 1.381 . S
C182 O170 1.421 . S
C183 O175 1.381 . S
C183 O176 1.421 . S
C184 O185 1.381 . S
C184 O186 1.421 . S
O185 Fe163 2.077 . S
O185 C184 1.381 . S
O186 Fe167 1.935 . S
O186 C184 1.421 . S
C187 O171 1.381 . S
C187 O172 1.421 . S
O188 Fe162 2.077 . S
O188 C191 1.381 . S
O189 Fe160 1.935 . S
O189 C191 1.421 . S
C190 O178 1.381 . S
C190 O179 1.421 . S
C191 O188 1.381 . S
C191 O189 1.421 . S
Fe192 O193 1.887 1_556 S
Fe192 O196 1.715 . S
Fe192 O201 2.077 . S
Fe192 O206 1.935 . S
Fe192 O212 2.077 1_556 S
Fe192 O221 1.935 1_556 S
O193 Fe192 1.887 1_554 S
O193 Fe195 1.714 1_565 S
Fe194 O196 1.886 . S
Fe194 O197 1.714 1_565 S
Fe194 O204 1.935 1_565 S
Fe194 O205 2.077 . S
Fe194 O211 1.935 1_566 S
Fe194 O220 2.077 1_556 S
Fe195 O193 1.714 1_545 S
Fe195 O198 1.886 . S
Fe195 O202 1.935 1_544 S
Fe195 O207 2.077 1_554 S
Fe195 O213 1.935 1_545 S
Fe195 O217 2.077 . S
O196 Fe192 1.715 . S
O196 Fe194 1.886 . S
O197 Fe194 1.714 1_545 S
O197 Fe199 1.887 1_556 S
O198 Fe195 1.886 . S
O198 Fe199 1.715 . S
Fe199 O197 1.887 1_554 S
Fe199 O198 1.715 . S
Fe199 O203 2.077 1_554 S
Fe199 O208 1.935 1_554 S
Fe199 O210 2.077 . S
Fe199 O218 1.935 . S
C200 O212 1.381 . S
C200 O213 1.421 . S
O201 Fe192 2.077 . S
O201 C214 1.381 . S
O202 Fe195 1.935 1_566 S
O202 C214 1.421 . S
O203 Fe199 2.077 1_556 S
O203 C219 1.381 . S
O204 Fe194 1.935 1_545 S
O204 C219 1.421 . S
O205 Fe194 2.077 . S
O205 C209 1.381 . S
O206 Fe192 1.935 . S
O206 C209 1.421 . S
O207 Fe195 2.077 1_556 S
O207 C215 1.381 . S
O208 Fe199 1.935 1_556 S
O208 C215 1.421 . S
C209 O205 1.381 . S
C209 O206 1.421 . S
O210 Fe199 2.077 . S
O210 C222 1.381 . S
O211 Fe194 1.935 1_544 S
O211 C222 1.421 . S
O212 Fe192 2.077 1_554 S
O212 C200 1.381 . S
O213 Fe195 1.935 1_565 S
O213 C200 1.421 . S
C214 O201 1.381 . S
C214 O202 1.421 . S
C215 O207 1.381 . S
C215 O208 1.421 . S
C216 O217 1.381 . S
C216 O218 1.421 . S
O217 Fe195 2.077 . S
O217 C216 1.381 . S
O218 Fe199 1.935 . S
O218 C216 1.421 . S
C219 O203 1.381 . S
C219 O204 1.421 . S
O220 Fe194 2.077 1_554 S
O220 C223 1.381 . S
O221 Fe192 1.935 1_554 S
O221 C223 1.421 . S
C222 O210 1.381 . S
C222 O211 1.421 . S
C223 O220 1.381 . S
C223 O221 1.421 . S
Fe224 O225 1.887 1_454 S
Fe224 O228 1.715 . S
Fe224 O233 2.077 1_454 S
Fe224 O238 1.935 1_554 S
Fe224 O244 2.077 1_455 S
Fe224 O253 1.935 . S
O225 Fe224 1.887 1_656 S
O225 Fe227 1.714 . S
Fe226 O228 1.886 . S
Fe226 O229 1.714 . S
Fe226 O236 1.935 1_554 S
Fe226 O237 2.077 1_554 S
Fe226 O243 1.935 . S
Fe226 O252 2.077 . S
Fe227 O225 1.714 . S
Fe227 O230 1.886 . S
Fe227 O234 1.935 . S
Fe227 O239 2.077 . S
Fe227 O245 1.935 1_556 S
Fe227 O249 2.077 1_556 S
O228 Fe224 1.715 . S
O228 Fe226 1.886 . S
O229 Fe226 1.714 . S
O229 Fe231 1.887 1_454 S
O230 Fe227 1.886 . S
O230 Fe231 1.715 . S
Fe231 O229 1.887 1_656 S
Fe231 O230 1.715 . S
Fe231 O235 2.077 1_655 S
Fe231 O240 1.935 . S
Fe231 O242 2.077 1_656 S
Fe231 O250 1.935 1_556 S
C232 O244 1.381 . S
C232 O245 1.421 . S
O233 Fe224 2.077 1_656 S
O233 C246 1.381 . S
O234 Fe227 1.935 . S
O234 C246 1.421 . S
O235 Fe231 2.077 1_455 S
O235 C251 1.381 . S
O236 Fe226 1.935 1_556 S
O236 C251 1.421 . S
O237 Fe226 2.077 1_556 S
O237 C241 1.381 . S
O238 Fe224 1.935 1_556 S
O238 C241 1.421 . S
O239 Fe227 2.077 . S
O239 C247 1.381 . S
O240 Fe231 1.935 . S
O240 C247 1.421 . S
C241 O237 1.381 . S
C241 O238 1.421 . S
O242 Fe231 2.077 1_454 S
O242 C254 1.381 . S
O243 Fe226 1.935 . S
O243 C254 1.421 . S
O244 Fe224 2.077 1_655 S
O244 C232 1.381 . S
O245 Fe227 1.935 1_554 S
O245 C232 1.421 . S
C246 O233 1.381 . S
C246 O234 1.421 . S
C247 O239 1.381 . S
C247 O240 1.421 . S
C248 O249 1.381 . S
C248 O250 1.421 . S
O249 Fe227 2.077 1_554 S
O249 C248 1.381 . S
O250 Fe231 1.935 1_554 S
O250 C248 1.421 . S
C251 O235 1.381 . S
C251 O236 1.421 . S
O252 Fe226 2.077 . S
O252 C255 1.381 . S
O253 Fe224 1.935 . S
O253 C255 1.421 . S
C254 O242 1.381 . S
C254 O243 1.421 . S
C255 O252 1.381 . S
C255 O253 1.421 . S
Fe256 O257 1.886 . S
Fe256 O260 1.715 . S
Fe256 O265 2.077 . S
Fe256 O270 1.935 . S
Fe256 O276 2.077 . S
Fe256 O285 1.935 . S
O257 Fe256 1.886 . S
O257 Fe259 1.715 1_556 S
Fe258 O260 1.886 . S
Fe258 O261 1.715 1_556 S
Fe258 O268 1.935 1_556 S
Fe258 O269 2.077 . S
Fe258 O275 1.935 1_556 S
Fe258 O284 2.077 . S
Fe259 O257 1.715 1_554 S
Fe259 O262 1.886 . S
Fe259 O266 1.935 1_554 S
Fe259 O271 2.077 . S
Fe259 O277 1.935 1_554 S
Fe259 O281 2.077 . S
O260 Fe256 1.715 . S
O260 Fe258 1.886 . S
O261 Fe258 1.715 1_554 S
O261 Fe263 1.886 . S
O262 Fe259 1.886 . S
O262 Fe263 1.715 . S
Fe263 O261 1.886 . S
Fe263 O262 1.715 . S
Fe263 O267 2.077 . S
Fe263 O272 1.935 . S
Fe263 O274 2.077 . S
Fe263 O282 1.935 . S
C264 O276 1.381 . S
C264 O277 1.421 . S
O265 Fe256 2.077 . S
O265 C278 1.381 . S
O266 Fe259 1.935 1_556 S
O266 C278 1.421 . S
O267 Fe263 2.077 . S
O267 C283 1.381 . S
O268 Fe258 1.935 1_554 S
O268 C283 1.421 . S
O269 Fe258 2.077 . S
O269 C273 1.381 . S
O270 Fe256 1.935 . S
O270 C273 1.421 . S
O271 Fe259 2.077 . S
O271 C279 1.381 . S
O272 Fe263 1.935 . S
O272 C279 1.421 . S
C273 O269 1.381 . S
C273 O270 1.421 . S
O274 Fe263 2.077 . S
O274 C286 1.381 . S
O275 Fe258 1.935 1_554 S
O275 C286 1.421 . S
O276 Fe256 2.077 . S
O276 C264 1.381 . S
O277 Fe259 1.935 1_556 S
O277 C264 1.421 . S
C278 O265 1.381 . S
C278 O266 1.421 . S
C279 O271 1.381 . S
C279 O272 1.421 . S
C280 O281 1.381 . S
C280 O282 1.421 . S
O281 Fe259 2.077 . S
O281 C280 1.381 . S
O282 Fe263 1.935 . S
O282 C280 1.421 . S
C283 O267 1.381 . S
C283 O268 1.421 . S
O284 Fe258 2.077 . S
O284 C287 1.381 . S
O285 Fe256 1.935 . S
O285 C287 1.421 . S
C286 O274 1.381 . S
C286 O275 1.421 . S
C287 O284 1.381 . S
C287 O285 1.421 . S
Fe288 O289 1.884 . S
Fe288 O292 1.715 . S
Fe288 O297 2.077 1_655 S
Fe288 O302 1.935 1_655 S
Fe288 O308 2.077 . S
Fe288 O317 1.935 . S
O289 Fe288 1.884 . S
O289 Fe291 1.717 1_655 S
Fe290 O292 1.886 . S
Fe290 O293 1.718 1_655 S
Fe290 O300 1.935 1_655 S
Fe290 O301 2.077 1_655 S
Fe290 O307 1.935 . S
Fe290 O316 2.077 . S
Fe291 O289 1.717 1_455 S
Fe291 O294 1.886 . S
Fe291 O298 1.935 . S
Fe291 O303 2.077 . S
Fe291 O309 1.935 1_455 S
Fe291 O313 2.077 1_455 S
O292 Fe288 1.715 . S
O292 Fe290 1.886 . S
O293 Fe290 1.718 1_455 S
O293 Fe295 1.883 . S
O294 Fe291 1.886 . S
O294 Fe295 1.715 . S
Fe295 O293 1.883 . S
Fe295 O294 1.715 . S
Fe295 O299 2.077 . S
Fe295 O304 1.935 . S
Fe295 O306 2.077 1_455 S
Fe295 O314 1.935 1_455 S
C296 O308 1.381 . S
C296 O309 1.421 . S
O297 Fe288 2.077 1_455 S
O297 C310 1.381 . S
O298 Fe291 1.935 . S
O298 C310 1.421 . S
O299 Fe295 2.077 . S
O299 C315 1.381 . S
O300 Fe290 1.935 1_455 S
O300 C315 1.421 . S
O301 Fe290 2.077 1_455 S
O301 C305 1.381 . S
O302 Fe288 1.935 1_455 S
O302 C305 1.421 . S
O303 Fe291 2.077 . S
O303 C311 1.381 . S
O304 Fe295 1.935 . S
O304 C311 1.421 . S
C305 O301 1.381 . S
C305 O302 1.421 . S
O306 Fe295 2.077 1_655 S
O306 C318 1.381 . S
O307 Fe290 1.935 . S
O307 C318 1.421 . S
O308 Fe288 2.077 . S
O308 C296 1.381 . S
O309 Fe291 1.935 1_655 S
O309 C296 1.421 . S
C310 O297 1.381 . S
C310 O298 1.421 . S
C311 O303 1.381 . S
C311 O304 1.421 . S
C312 O313 1.381 . S
C312 O314 1.421 . S
O313 Fe291 2.077 1_655 S
O313 C312 1.381 . S
O314 Fe295 1.935 1_655 S
O314 C312 1.421 . S
C315 O299 1.381 . S
C315 O300 1.421 . S
O316 Fe290 2.077 . S
O316 C319 1.381 . S
O317 Fe288 1.935 . S
O317 C319 1.421 . S
C318 O306 1.381 . S
C318 O307 1.421 . S
C319 O316 1.381 . S
C319 O317 1.421 . S
Fe320 O321 1.886 . S
Fe320 O324 1.715 . S
Fe320 O329 2.077 . S
Fe320 O334 1.935 . S
Fe320 O340 2.077 . S
Fe320 O349 1.935 . S
O321 Fe320 1.886 . S
O321 Fe323 1.715 1_565 S
Fe322 O324 1.886 . S
Fe322 O325 1.715 1_565 S
Fe322 O332 1.935 1_565 S
Fe322 O333 2.077 . S
Fe322 O339 1.935 1_565 S
Fe322 O348 2.077 . S
Fe323 O321 1.715 1_545 S
Fe323 O326 1.886 . S
Fe323 O330 1.935 1_545 S
Fe323 O335 2.077 . S
Fe323 O341 1.935 1_545 S
Fe323 O345 2.077 . S
O324 Fe320 1.715 . S
O324 Fe322 1.886 . S
O325 Fe322 1.715 1_545 S
O325 Fe327 1.886 . S
O326 Fe323 1.886 . S
O326 Fe327 1.715 . S
Fe327 O325 1.886 . S
Fe327 O326 1.715 . S
Fe327 O331 2.077 . S
Fe327 O336 1.935 . S
Fe327 O338 2.077 . S
Fe327 O346 1.935 . S
C328 O340 1.381 . S
C328 O341 1.421 . S
O329 Fe320 2.077 . S
O329 C342 1.381 . S
O330 Fe323 1.935 1_565 S
O330 C342 1.421 . S
O331 Fe327 2.077 . S
O331 C347 1.381 . S
O332 Fe322 1.935 1_545 S
O332 C347 1.421 . S
O333 Fe322 2.077 . S
O333 C337 1.381 . S
O334 Fe320 1.935 . S
O334 C337 1.421 . S
O335 Fe323 2.077 . S
O335 C343 1.381 . S
O336 Fe327 1.935 . S
O336 C343 1.421 . S
C337 O333 1.381 . S
C337 O334 1.421 . S
O338 Fe327 2.077 . S
O338 C350 1.381 . S
O339 Fe322 1.935 1_545 S
O339 C350 1.421 . S
O340 Fe320 2.077 . S
O340 C328 1.381 . S
O341 Fe323 1.935 1_565 S
O341 C328 1.421 . S
C342 O329 1.381 . S
C342 O330 1.421 . S
C343 O335 1.381 . S
C343 O336 1.421 . S
C344 O345 1.381 . S
C344 O346 1.421 . S
O345 Fe323 2.077 . S
O345 C344 1.381 . S
O346 Fe327 1.935 . S
O346 C344 1.421 . S
C347 O331 1.381 . S
C347 O332 1.421 . S
O348 Fe322 2.077 . S
O348 C351 1.381 . S
O349 Fe320 1.935 . S
O349 C351 1.421 . S
C350 O338 1.381 . S
C350 O339 1.421 . S
C351 O348 1.381 . S
C351 O349 1.421 . S
C352 C353 1.387 . S
C352 H356 0.950 . S
C352 C361 1.390 . S
C353 C352 1.387 . S
C353 C355 1.387 . S
H354 C361 0.950 . S
C355 C353 1.387 . S
C355 C357 1.390 . S
C355 H359 0.950 . S
H356 C352 0.950 . S
C357 C355 1.390 . S
C357 C358 1.387 . S
C357 H360 0.950 . S
C358 C357 1.387 . S
C358 C361 1.387 . S
H359 C355 0.950 . S
H360 C357 0.950 . S
C361 C352 1.390 . S
C361 H354 0.950 . S
C361 C358 1.387 . S
C362 C363 1.387 . S
C362 H366 0.950 . S
C362 C371 1.390 . S
C363 C362 1.387 . S
C363 C365 1.387 . S
H364 C371 0.950 . S
C365 C363 1.387 . S
C365 C367 1.390 . S
C365 H369 0.950 . S
H366 C362 0.950 . S
C367 C365 1.390 . S
C367 C368 1.387 . S
C367 H370 0.950 . S
C368 C367 1.387 . S
C368 C371 1.387 . S
H369 C365 0.950 . S
H370 C367 0.950 . S
C371 C362 1.390 . S
C371 H364 0.950 . S
C371 C368 1.387 . S
C372 C373 1.387 . S
C372 H376 0.950 . S
C372 C381 1.390 . S
C373 C372 1.387 . S
C373 C375 1.387 . S
H374 C381 0.950 . S
C375 C373 1.387 . S
C375 C377 1.390 . S
C375 H379 0.950 . S
H376 C372 0.950 . S
C377 C375 1.390 . S
C377 C378 1.387 . S
C377 H380 0.950 . S
C378 C377 1.387 . S
C378 C381 1.387 . S
H379 C375 0.950 . S
H380 C377 0.950 . S
C381 C372 1.390 . S
C381 H374 0.950 . S
C381 C378 1.387 . S
C382 C383 1.387 . S
C382 H386 0.950 . S
C382 C391 1.390 . S
C383 C382 1.387 . S
C383 C385 1.387 . S
H384 C391 0.950 . S
C385 C383 1.387 . S
C385 C387 1.390 . S
C385 H389 0.950 . S
H386 C382 0.950 . S
C387 C385 1.390 . S
C387 C388 1.387 . S
C387 H390 0.950 . S
C388 C387 1.387 . S
C388 C391 1.387 . S
H389 C385 0.950 . S
H390 C387 0.950 . S
C391 C382 1.390 . S
C391 H384 0.950 . S
C391 C388 1.387 . S
C392 C393 1.387 . S
C392 H396 0.950 . S
C392 C401 1.390 . S
C393 C392 1.387 . S
C393 C395 1.387 . S
H394 C401 0.950 . S
C395 C393 1.387 . S
C395 C397 1.390 . S
C395 H399 0.950 . S
H396 C392 0.950 . S
C397 C395 1.390 . S
C397 C398 1.387 . S
C397 H400 0.950 . S
C398 C397 1.387 . S
C398 C401 1.387 . S
H399 C395 0.950 . S
H400 C397 0.950 . S
C401 C392 1.390 . S
C401 H394 0.950 . S
C401 C398 1.387 . S
C402 C403 1.387 . S
C402 H406 0.950 . S
C402 C411 1.390 . S
C403 C402 1.387 . S
C403 C405 1.387 . S
H404 C411 0.950 . S
C405 C403 1.387 . S
C405 C407 1.390 . S
C405 H409 0.950 . S
H406 C402 0.950 . S
C407 C405 1.390 . S
C407 C408 1.387 . S
C407 H410 0.950 . S
C408 C407 1.387 . S
C408 C411 1.387 . S
H409 C405 0.950 . S
H410 C407 0.950 . S
C411 C402 1.390 . S
C411 H404 0.950 . S
C411 C408 1.387 . S
C412 C413 1.387 . S
C412 H416 0.950 . S
C412 C421 1.390 . S
C413 C412 1.387 . S
C413 C415 1.387 . S
H414 C421 0.950 . S
C415 C413 1.387 . S
C415 C417 1.390 . S
C415 H419 0.950 . S
H416 C412 0.950 . S
C417 C415 1.390 . S
C417 C418 1.387 . S
C417 H420 0.950 . S
C418 C417 1.387 . S
C418 C421 1.387 . S
H419 C415 0.950 . S
H420 C417 0.950 . S
C421 C412 1.390 . S
C421 H414 0.950 . S
C421 C418 1.387 . S
C422 C423 1.387 . S
C422 H426 0.950 . S
C422 C431 1.390 . S
C423 C422 1.387 . S
C423 C425 1.387 . S
H424 C431 0.950 . S
C425 C423 1.387 . S
C425 C427 1.390 . S
C425 H429 0.950 . S
H426 C422 0.950 . S
C427 C425 1.390 . S
C427 C428 1.387 . S
C427 H430 0.950 . S
C428 C427 1.387 . S
C428 C431 1.387 . S
H429 C425 0.950 . S
H430 C427 0.950 . S
C431 C422 1.390 . S
C431 H424 0.950 . S
C431 C428 1.387 . S
C432 C433 1.387 . S
C432 H436 0.950 . S
C432 C441 1.390 . S
C433 C432 1.387 . S
C433 C435 1.387 . S
H434 C441 0.950 . S
C435 C433 1.387 . S
C435 C437 1.390 . S
C435 H439 0.950 . S
H436 C432 0.950 . S
C437 C435 1.390 . S
C437 C438 1.387 . S
C437 H440 0.950 . S
C438 C437 1.387 . S
C438 C441 1.387 . S
H439 C435 0.950 . S
H440 C437 0.950 . S
C441 C432 1.390 . S
C441 H434 0.950 . S
C441 C438 1.387 . S
C442 C443 1.387 . S
C442 H446 0.950 . S
C442 C451 1.390 . S
C443 C442 1.387 . S
C443 C445 1.387 . S
H444 C451 0.950 . S
C445 C443 1.387 . S
C445 C447 1.390 . S
C445 H449 0.950 . S
H446 C442 0.950 . S
C447 C445 1.390 . S
C447 C448 1.387 . S
C447 H450 0.950 . S
C448 C447 1.387 . S
C448 C451 1.387 . S
H449 C445 0.950 . S
H450 C447 0.950 . S
C451 C442 1.390 . S
C451 H444 0.950 . S
C451 C448 1.387 . S
C452 C453 1.387 . S
C452 H456 0.950 . S
C452 C461 1.390 . S
C453 C452 1.387 . S
C453 C455 1.387 . S
H454 C461 0.950 . S
C455 C453 1.387 . S
C455 C457 1.390 . S
C455 H459 0.950 . S
H456 C452 0.950 . S
C457 C455 1.390 . S
C457 C458 1.387 . S
C457 H460 0.950 . S
C458 C457 1.387 . S
C458 C461 1.387 . S
H459 C455 0.950 . S
H460 C457 0.950 . S
C461 C452 1.390 . S
C461 H454 0.950 . S
C461 C458 1.387 . S
C462 C463 1.387 . S
C462 H466 0.950 . S
C462 C471 1.390 . S
C463 C462 1.387 . S
C463 C465 1.387 . S
H464 C471 0.950 . S
C465 C463 1.387 . S
C465 C467 1.390 . S
C465 H469 0.950 . S
H466 C462 0.950 . S
C467 C465 1.390 . S
C467 C468 1.387 . S
C467 H470 0.950 . S
C468 C467 1.387 . S
C468 C471 1.387 . S
H469 C465 0.950 . S
H470 C467 0.950 . S
C471 C462 1.390 . S
C471 H464 0.950 . S
C471 C468 1.387 . S
C472 C473 1.387 . S
C472 H476 0.950 . S
C472 C481 1.390 . S
C473 C472 1.387 . S
C473 C475 1.387 . S
H474 C481 0.950 . S
C475 C473 1.387 . S
C475 C477 1.390 . S
C475 H479 0.950 . S
H476 C472 0.950 . S
C477 C475 1.390 . S
C477 C478 1.387 . S
C477 H480 0.950 . S
C478 C477 1.387 . S
C478 C481 1.387 . S
H479 C475 0.950 . S
H480 C477 0.950 . S
C481 C472 1.390 . S
C481 H474 0.950 . S
C481 C478 1.387 . S
C482 C483 1.387 . S
C482 H486 0.950 . S
C482 C491 1.390 . S
C483 C482 1.387 . S
C483 C485 1.387 . S
H484 C491 0.950 . S
C485 C483 1.387 . S
C485 C487 1.390 . S
C485 H489 0.950 . S
H486 C482 0.950 . S
C487 C485 1.390 . S
C487 C488 1.387 . S
C487 H490 0.950 . S
C488 C487 1.387 . S
C488 C491 1.387 . S
H489 C485 0.950 . S
H490 C487 0.950 . S
C491 C482 1.390 . S
C491 H484 0.950 . S
C491 C488 1.387 . S
C492 C493 1.387 . S
C492 H496 0.950 . S
C492 C501 1.390 . S
C493 C492 1.387 . S
C493 C495 1.387 . S
H494 C501 0.950 . S
C495 C493 1.387 . S
C495 C497 1.390 . S
C495 H499 0.950 . S
H496 C492 0.950 . S
C497 C495 1.390 . S
C497 C498 1.387 . S
C497 H500 0.950 . S
C498 C497 1.387 . S
C498 C501 1.387 . S
H499 C495 0.950 . S
H500 C497 0.950 . S
C501 C492 1.390 . S
C501 H494 0.950 . S
C501 C498 1.387 . S
C502 C503 1.387 . S
C502 H506 0.950 . S
C502 C511 1.390 . S
C503 C502 1.387 . S
C503 C505 1.387 . S
H504 C511 0.950 . S
C505 C503 1.387 . S
C505 C507 1.390 . S
C505 H509 0.950 . S
H506 C502 0.950 . S
C507 C505 1.390 . S
C507 C508 1.387 . S
C507 H510 0.950 . S
C508 C507 1.387 . S
C508 C511 1.387 . S
H509 C505 0.950 . S
H510 C507 0.950 . S
C511 C502 1.390 . S
C511 H504 0.950 . S
C511 C508 1.387 . S
C512 C513 1.387 . S
C512 H516 0.950 . S
C512 C521 1.390 . S
C513 C512 1.387 . S
C513 C515 1.387 . S
H514 C521 0.950 . S
C515 C513 1.387 . S
C515 C517 1.390 . S
C515 H519 0.950 . S
H516 C512 0.950 . S
C517 C515 1.390 . S
C517 C518 1.387 . S
C517 H520 0.950 . S
C518 C517 1.387 . S
C518 C521 1.387 . S
H519 C515 0.950 . S
H520 C517 0.950 . S
C521 C512 1.390 . S
C521 H514 0.950 . S
C521 C518 1.387 . S
C522 C523 1.387 . S
C522 H526 0.950 . S
C522 C531 1.390 . S
C523 C522 1.387 . S
C523 C525 1.387 . S
H524 C531 0.950 . S
C525 C523 1.387 . S
C525 C527 1.390 . S
C525 H529 0.950 . S
H526 C522 0.950 . S
C527 C525 1.390 . S
C527 C528 1.387 . S
C527 H530 0.950 . S
C528 C527 1.387 . S
C528 C531 1.387 . S
H529 C525 0.950 . S
H530 C527 0.950 . S
C531 C522 1.390 . S
C531 H524 0.950 . S
C531 C528 1.387 . S
C532 C533 1.387 . S
C532 H536 0.950 . S
C532 C541 1.390 . S
C533 C532 1.387 . S
C533 C535 1.387 . S
H534 C541 0.950 . S
C535 C533 1.387 . S
C535 C537 1.390 . S
C535 H539 0.950 . S
H536 C532 0.950 . S
C537 C535 1.390 . S
C537 C538 1.387 . S
C537 H540 0.950 . S
C538 C537 1.387 . S
C538 C541 1.387 . S
H539 C535 0.950 . S
H540 C537 0.950 . S
C541 C532 1.390 . S
C541 H534 0.950 . S
C541 C538 1.387 . S
C542 C543 1.387 . S
C542 H546 0.950 . S
C542 C551 1.390 . S
C543 C542 1.387 . S
C543 C545 1.387 . S
H544 C551 0.950 . S
C545 C543 1.387 . S
C545 C547 1.390 . S
C545 H549 0.950 . S
H546 C542 0.950 . S
C547 C545 1.390 . S
C547 C548 1.387 . S
C547 H550 0.950 . S
C548 C547 1.387 . S
C548 C551 1.387 . S
H549 C545 0.950 . S
H550 C547 0.950 . S
C551 C542 1.390 . S
C551 H544 0.950 . S
C551 C548 1.387 . S
C552 C553 1.387 . S
C552 H556 0.950 . S
C552 C561 1.390 . S
C553 C552 1.387 . S
C553 C555 1.387 . S
H554 C561 0.950 . S
C555 C553 1.387 . S
C555 C557 1.390 . S
C555 H559 0.950 . S
H556 C552 0.950 . S
C557 C555 1.390 . S
C557 C558 1.387 . S
C557 H560 0.950 . S
C558 C557 1.387 . S
C558 C561 1.387 . S
H559 C555 0.950 . S
H560 C557 0.950 . S
C561 C552 1.390 . S
C561 H554 0.950 . S
C561 C558 1.387 . S
C562 C563 1.387 . S
C562 H566 0.950 . S
C562 C571 1.390 . S
C563 C562 1.387 . S
C563 C565 1.387 . S
H564 C571 0.950 . S
C565 C563 1.387 . S
C565 C567 1.390 . S
C565 H569 0.950 . S
H566 C562 0.950 . S
C567 C565 1.390 . S
C567 C568 1.387 . S
C567 H570 0.950 . S
C568 C567 1.387 . S
C568 C571 1.387 . S
H569 C565 0.950 . S
H570 C567 0.950 . S
C571 C562 1.390 . S
C571 H564 0.950 . S
C571 C568 1.387 . S
C572 C573 1.387 . S
C572 H576 0.950 . S
C572 C581 1.390 . S
C573 C572 1.387 . S
C573 C575 1.387 . S
H574 C581 0.950 . S
C575 C573 1.387 . S
C575 C577 1.390 . S
C575 H579 0.950 . S
H576 C572 0.950 . S
C577 C575 1.390 . S
C577 C578 1.387 . S
C577 H580 0.950 . S
C578 C577 1.387 . S
C578 C581 1.387 . S
H579 C575 0.950 . S
H580 C577 0.950 . S
C581 C572 1.390 . S
C581 H574 0.950 . S
C581 C578 1.387 . S
C582 C583 1.387 . S
C582 H586 0.950 . S
C582 C591 1.390 . S
C583 C582 1.387 . S
C583 C585 1.387 . S
H584 C591 0.950 . S
C585 C583 1.387 . S
C585 C587 1.390 . S
C585 H589 0.950 . S
H586 C582 0.950 . S
C587 C585 1.390 . S
C587 C588 1.387 . S
C587 H590 0.950 . S
C588 C587 1.387 . S
C588 C591 1.387 . S
H589 C585 0.950 . S
H590 C587 0.950 . S
C591 C582 1.390 . S
C591 H584 0.950 . S
C591 C588 1.387 . S
C592 C593 1.387 . S
C592 H596 0.950 . S
C592 C601 1.390 . S
C593 C592 1.387 . S
C593 C595 1.387 . S
H594 C601 0.950 . S
C595 C593 1.387 . S
C595 C597 1.390 . S
C595 H599 0.950 . S
H596 C592 0.950 . S
C597 C595 1.390 . S
C597 C598 1.387 . S
C597 H600 0.950 . S
C598 C597 1.387 . S
C598 C601 1.387 . S
H599 C595 0.950 . S
H600 C597 0.950 . S
C601 C592 1.390 . S
C601 H594 0.950 . S
C601 C598 1.387 . S
C602 C603 1.387 . S
C602 H606 0.950 . S
C602 C611 1.390 . S
C603 C602 1.387 . S
C603 C605 1.387 . S
H604 C611 0.950 . S
C605 C603 1.387 . S
C605 C607 1.390 . S
C605 H609 0.950 . S
H606 C602 0.950 . S
C607 C605 1.390 . S
C607 C608 1.387 . S
C607 H610 0.950 . S
C608 C607 1.387 . S
C608 C611 1.387 . S
H609 C605 0.950 . S
H610 C607 0.950 . S
C611 C602 1.390 . S
C611 H604 0.950 . S
C611 C608 1.387 . S
C612 C613 1.387 . S
C612 H616 0.950 . S
C612 C621 1.390 . S
C613 C612 1.387 . S
C613 C615 1.387 . S
H614 C621 0.950 . S
C615 C613 1.387 . S
C615 C617 1.390 . S
C615 H619 0.950 . S
H616 C612 0.950 . S
C617 C615 1.390 . S
C617 C618 1.387 . S
C617 H620 0.950 . S
C618 C617 1.387 . S
C618 C621 1.387 . S
H619 C615 0.950 . S
H620 C617 0.950 . S
C621 C612 1.390 . S
C621 H614 0.950 . S
C621 C618 1.387 . S
C622 C623 1.387 . S
C622 H626 0.950 . S
C622 C631 1.390 . S
C623 C622 1.387 . S
C623 C625 1.387 . S
H624 C631 0.950 . S
C625 C623 1.387 . S
C625 C627 1.390 . S
C625 H629 0.950 . S
H626 C622 0.950 . S
C627 C625 1.390 . S
C627 C628 1.387 . S
C627 H630 0.950 . S
C628 C627 1.387 . S
C628 C631 1.387 . S
H629 C625 0.950 . S
H630 C627 0.950 . S
C631 C622 1.390 . S
C631 H624 0.950 . S
C631 C628 1.387 . S
C632 C633 1.387 . S
C632 H636 0.950 . S
C632 C641 1.390 . S
C633 C632 1.387 . S
C633 C635 1.387 . S
H634 C641 0.950 . S
C635 C633 1.387 . S
C635 C637 1.390 . S
C635 H639 0.950 . S
H636 C632 0.950 . S
C637 C635 1.390 . S
C637 C638 1.387 . S
C637 H640 0.950 . S
C638 C637 1.387 . S
C638 C641 1.387 . S
H639 C635 0.950 . S
H640 C637 0.950 . S
C641 C632 1.390 . S
C641 H634 0.950 . S
C641 C638 1.387 . S
C642 C643 1.387 . S
C642 H646 0.950 . S
C642 C651 1.390 . S
C643 C642 1.387 . S
C643 C645 1.387 . S
H644 C651 0.950 . S
C645 C643 1.387 . S
C645 C647 1.390 . S
C645 H649 0.950 . S
H646 C642 0.950 . S
C647 C645 1.390 . S
C647 C648 1.387 . S
C647 H650 0.950 . S
C648 C647 1.387 . S
C648 C651 1.387 . S
H649 C645 0.950 . S
H650 C647 0.950 . S
C651 C642 1.390 . S
C651 H644 0.950 . S
C651 C648 1.387 . S
C652 C653 1.387 . S
C652 H656 0.950 . S
C652 C661 1.390 . S
C653 C652 1.387 . S
C653 C655 1.387 . S
H654 C661 0.950 . S
C655 C653 1.387 . S
C655 C657 1.390 . S
C655 H659 0.950 . S
H656 C652 0.950 . S
C657 C655 1.390 . S
C657 C658 1.387 . S
C657 H660 0.950 . S
C658 C657 1.387 . S
C658 C661 1.387 . S
H659 C655 0.950 . S
H660 C657 0.950 . S
C661 C652 1.390 . S
C661 H654 0.950 . S
C661 C658 1.387 . S
C662 C663 1.387 . S
C662 H666 0.950 . S
C662 C671 1.390 . S
C663 C662 1.387 . S
C663 C665 1.387 . S
H664 C671 0.950 . S
C665 C663 1.387 . S
C665 C667 1.390 . S
C665 H669 0.950 . S
H666 C662 0.950 . S
C667 C665 1.390 . S
C667 C668 1.387 . S
C667 H670 0.950 . S
C668 C667 1.387 . S
C668 C671 1.387 . S
H669 C665 0.950 . S
H670 C667 0.950 . S
C671 C662 1.390 . S
C671 H664 0.950 . S
C671 C668 1.387 . S
C672 C673 1.387 . S
C672 H676 0.950 . S
C672 C681 1.390 . S
C673 C672 1.387 . S
C673 C675 1.387 . S
H674 C681 0.950 . S
C675 C673 1.387 . S
C675 C677 1.390 . S
C675 H679 0.950 . S
H676 C672 0.950 . S
C677 C675 1.390 . S
C677 C678 1.387 . S
C677 H680 0.950 . S
C678 C677 1.387 . S
C678 C681 1.387 . S
H679 C675 0.950 . S
H680 C677 0.950 . S
C681 C672 1.390 . S
C681 H674 0.950 . S
C681 C678 1.387 . S
C682 C683 1.387 . S
C682 H686 0.950 . S
C682 C691 1.390 . S
C683 C682 1.387 . S
C683 C685 1.387 . S
H684 C691 0.950 . S
C685 C683 1.387 . S
C685 C687 1.390 . S
C685 H689 0.950 . S
H686 C682 0.950 . S
C687 C685 1.390 . S
C687 C688 1.387 . S
C687 H690 0.950 . S
C688 C687 1.387 . S
C688 C691 1.387 . S
H689 C685 0.950 . S
H690 C687 0.950 . S
C691 C682 1.390 . S
C691 H684 0.950 . S
C691 C688 1.387 . S
C692 C693 1.387 . S
C692 H696 0.950 . S
C692 C701 1.390 . S
C693 C692 1.387 . S
C693 C695 1.387 . S
H694 C701 0.950 . S
C695 C693 1.387 . S
C695 C697 1.390 . S
C695 H699 0.950 . S
H696 C692 0.950 . S
C697 C695 1.390 . S
C697 C698 1.387 . S
C697 H700 0.950 . S
C698 C697 1.387 . S
C698 C701 1.387 . S
H699 C695 0.950 . S
H700 C697 0.950 . S
C701 C692 1.390 . S
C701 H694 0.950 . S
C701 C698 1.387 . S
C702 C703 1.387 . S
C702 H706 0.950 . S
C702 C711 1.390 . S
C703 C702 1.387 . S
C703 C705 1.387 . S
H704 C711 0.950 . S
C705 C703 1.387 . S
C705 C707 1.390 . S
C705 H709 0.950 . S
H706 C702 0.950 . S
C707 C705 1.390 . S
C707 C708 1.387 . S
C707 H710 0.950 . S
C708 C707 1.387 . S
C708 C711 1.387 . S
H709 C705 0.950 . S
H710 C707 0.950 . S
C711 C702 1.390 . S
C711 H704 0.950 . S
C711 C708 1.387 . S
C712 C713 1.387 . S
C712 H716 0.950 . S
C712 C721 1.390 . S
C713 C712 1.387 . S
C713 C715 1.387 . S
H714 C721 0.950 . S
C715 C713 1.387 . S
C715 C717 1.390 . S
C715 H719 0.950 . S
H716 C712 0.950 . S
C717 C715 1.390 . S
C717 C718 1.387 . S
C717 H720 0.950 . S
C718 C717 1.387 . S
C718 C721 1.387 . S
H719 C715 0.950 . S
H720 C717 0.950 . S
C721 C712 1.390 . S
C721 H714 0.950 . S
C721 C718 1.387 . S
C722 C723 1.387 . S
C722 H726 0.950 . S
C722 C731 1.390 . S
C723 C722 1.387 . S
C723 C725 1.387 . S
H724 C731 0.950 . S
C725 C723 1.387 . S
C725 C727 1.390 . S
C725 H729 0.950 . S
H726 C722 0.950 . S
C727 C725 1.390 . S
C727 C728 1.387 . S
C727 H730 0.950 . S
C728 C727 1.387 . S
C728 C731 1.387 . S
H729 C725 0.950 . S
H730 C727 0.950 . S
C731 C722 1.390 . S
C731 H724 0.950 . S
C731 C728 1.387 . S
C732 C733 1.387 . S
C732 H736 0.950 . S
C732 C741 1.390 . S
C733 C732 1.387 . S
C733 C735 1.387 . S
H734 C741 0.950 . S
C735 C733 1.387 . S
C735 C737 1.390 . S
C735 H739 0.950 . S
H736 C732 0.950 . S
C737 C735 1.390 . S
C737 C738 1.387 . S
C737 H740 0.950 . S
C738 C737 1.387 . S
C738 C741 1.387 . S
H739 C735 0.950 . S
H740 C737 0.950 . S
C741 C732 1.390 . S
C741 H734 0.950 . S
C741 C738 1.387 . S
C742 C743 1.387 . S
C742 H746 0.950 . S
C742 C751 1.390 . S
C743 C742 1.387 . S
C743 C745 1.387 . S
H744 C751 0.950 . S
C745 C743 1.387 . S
C745 C747 1.390 . S
C745 H749 0.950 . S
H746 C742 0.950 . S
C747 C745 1.390 . S
C747 C748 1.387 . S
C747 H750 0.950 . S
C748 C747 1.387 . S
C748 C751 1.387 . S
H749 C745 0.950 . S
H750 C747 0.950 . S
C751 C742 1.390 . S
C751 H744 0.950 . S
C751 C748 1.387 . S
C752 C753 1.387 . S
C752 H756 0.950 . S
C752 C761 1.390 . S
C753 C752 1.387 . S
C753 C755 1.387 . S
H754 C761 0.950 . S
C755 C753 1.387 . S
C755 C757 1.390 . S
C755 H759 0.950 . S
H756 C752 0.950 . S
C757 C755 1.390 . S
C757 C758 1.387 . S
C757 H760 0.950 . S
C758 C757 1.387 . S
C758 C761 1.387 . S
H759 C755 0.950 . S
H760 C757 0.950 . S
C761 C752 1.390 . S
C761 H754 0.950 . S
C761 C758 1.387 . S
C762 C763 1.387 . S
C762 H766 0.950 . S
C762 C771 1.390 . S
C763 C762 1.387 . S
C763 C765 1.387 . S
H764 C771 0.950 . S
C765 C763 1.387 . S
C765 C767 1.390 . S
C765 H769 0.950 . S
H766 C762 0.950 . S
C767 C765 1.390 . S
C767 C768 1.387 . S
C767 H770 0.950 . S
C768 C767 1.387 . S
C768 C771 1.387 . S
H769 C765 0.950 . S
H770 C767 0.950 . S
C771 C762 1.390 . S
C771 H764 0.950 . S
C771 C768 1.387 . S
C772 C773 1.387 . S
C772 H776 0.950 . S
C772 C781 1.390 . S
C773 C772 1.387 . S
C773 C775 1.387 . S
H774 C781 0.950 . S
C775 C773 1.387 . S
C775 C777 1.390 . S
C775 H779 0.950 . S
H776 C772 0.950 . S
C777 C775 1.390 . S
C777 C778 1.387 . S
C777 H780 0.950 . S
C778 C777 1.387 . S
C778 C781 1.387 . S
H779 C775 0.950 . S
H780 C777 0.950 . S
C781 C772 1.390 . S
C781 H774 0.950 . S
C781 C778 1.387 . S
C782 C783 1.387 . S
C782 H786 0.950 . S
C782 C791 1.390 . S
C783 C782 1.387 . S
C783 C785 1.387 . S
H784 C791 0.950 . S
C785 C783 1.387 . S
C785 C787 1.390 . S
C785 H789 0.950 . S
H786 C782 0.950 . S
C787 C785 1.390 . S
C787 C788 1.387 . S
C787 H790 0.950 . S
C788 C787 1.387 . S
C788 C791 1.387 . S
H789 C785 0.950 . S
H790 C787 0.950 . S
C791 C782 1.390 . S
C791 H784 0.950 . S
C791 C788 1.387 . S
C792 C793 1.387 . S
C792 H796 0.950 . S
C792 C801 1.390 . S
C793 C792 1.387 . S
C793 C795 1.387 . S
H794 C801 0.950 . S
C795 C793 1.387 . S
C795 C797 1.390 . S
C795 H799 0.950 . S
H796 C792 0.950 . S
C797 C795 1.390 . S
C797 C798 1.387 . S
C797 H800 0.950 . S
C798 C797 1.387 . S
C798 C801 1.387 . S
H799 C795 0.950 . S
H800 C797 0.950 . S
C801 C792 1.390 . S
C801 H794 0.950 . S
C801 C798 1.387 . S
C802 C803 1.387 . S
C802 H806 0.950 . S
C802 C811 1.390 . S
C803 C802 1.387 . S
C803 C805 1.387 . S
H804 C811 0.950 . S
C805 C803 1.387 . S
C805 C807 1.390 . S
C805 H809 0.950 . S
H806 C802 0.950 . S
C807 C805 1.390 . S
C807 C808 1.387 . S
C807 H810 0.950 . S
C808 C807 1.387 . S
C808 C811 1.387 . S
H809 C805 0.950 . S
H810 C807 0.950 . S
C811 C802 1.390 . S
C811 H804 0.950 . S
C811 C808 1.387 . S
C812 C813 1.387 . S
C812 H816 0.950 . S
C812 C821 1.390 . S
C813 C812 1.387 . S
C813 C815 1.387 . S
H814 C821 0.950 . S
C815 C813 1.387 . S
C815 C817 1.390 . S
C815 H819 0.950 . S
H816 C812 0.950 . S
C817 C815 1.390 . S
C817 C818 1.387 . S
C817 H820 0.950 . S
C818 C817 1.387 . S
C818 C821 1.387 . S
H819 C815 0.950 . S
H820 C817 0.950 . S
C821 C812 1.390 . S
C821 H814 0.950 . S
C821 C818 1.387 . S
C822 C823 1.387 . S
C822 H826 0.950 . S
C822 C831 1.390 . S
C823 C822 1.387 . S
C823 C825 1.387 . S
H824 C831 0.950 . S
C825 C823 1.387 . S
C825 C827 1.390 . S
C825 H829 0.950 . S
H826 C822 0.950 . S
C827 C825 1.390 . S
C827 C828 1.387 . S
C827 H830 0.950 . S
C828 C827 1.387 . S
C828 C831 1.387 . S
H829 C825 0.950 . S
H830 C827 0.950 . S
C831 C822 1.390 . S
C831 H824 0.950 . S
C831 C828 1.387 . S
C358 C177 2.186 . S
C353 C19 2.117 . S
C368 C182 1.502 . S
C363 C24 1.449 . S
C378 C183 1.436 . S
C373 C59 1.416 . S
C383 C69 1.326 . S
C388 C187 1.335 . S
C393 C82 1.451 . S
C398 C190 1.500 . S
C408 C191 1.436 . S
C403 C118 1.411 . S
C413 C132 1.326 . S
C418 C168 1.335 . S
C423 C158 2.119 . S
C428 C184 2.188 . S
C438 C222 1.623 . S
C433 C4 1.524 . S
C443 C29 0.945 . S
C448 C248 0.944 . S
C458 C200 1.480 . S
C453 C44 1.418 . S
C468 C255 1.387 . S
C463 C79 1.392 . S
C473 C98 1.403 . S
C478 C209 1.404 . S
C488 C251 1.311 . S
C483 C112 1.290 . S
C493 C122 1.205 . S
C498 C215 1.229 . S
C503 C152 1.231 . S
C508 C246 1.283 . S
C513 C9 1.227 . S
C518 C254 1.276 . S
C523 C92 0.942 . S
C528 C241 0.947 . S
C538 C219 1.478 . S
C533 C102 1.415 . S
C548 C247 1.386 . S
C543 C138 1.397 . S
C553 C142 1.531 . S
C558 C214 1.628 . S
C563 C49 1.289 . S
C568 C232 1.307 . S
C578 C223 1.226 . S
C573 C64 1.205 . S
C583 C39 1.402 . S
C588 C216 1.400 . S
C593 C159 2.097 . S
C598 C278 2.107 . S
C603 C84 1.435 . S
C608 C273 1.483 . S
C618 C287 1.392 . S
C613 C119 1.400 . S
C628 C264 1.333 . S
C623 C129 1.318 . S
C633 C22 1.432 . S
C638 C280 1.482 . S
C648 C279 1.391 . S
C643 C58 1.397 . S
C653 C72 1.317 . S
C658 C283 1.334 . S
C663 C18 2.098 . S
C668 C286 2.104 . S
C673 C144 1.538 . S
C678 C312 1.709 . S
C688 C328 0.961 . S
C683 C89 0.955 . S
C693 C104 1.421 . S
C698 C310 1.522 . S
C703 C139 1.409 . S
C708 C343 1.405 . S
C718 C319 1.411 . S
C713 C38 1.399 . S
C723 C52 1.306 . S
C728 C337 1.325 . S
C738 C315 1.253 . S
C733 C62 1.201 . S
C748 C350 1.271 . S
C743 C12 1.241 . S
C758 C342 1.271 . S
C753 C149 1.244 . S
C763 C32 0.959 . S
C768 C347 0.964 . S
C773 C42 1.425 . S
C778 C318 1.523 . S
C788 C351 1.405 . S
C783 C78 1.413 . S
C793 C2 1.538 . S
C798 C305 1.705 . S
C803 C109 1.308 . S
C808 C344 1.323 . S
C818 C296 1.253 . S
C813 C124 1.202 . S
C828 C311 1.408 . S
C823 C99 1.399 . S
