# Generated by pormake.
# Topology soc, (4,6)-cn, num edge types: 1
# Building blocks:
#     Node 0, Type 0, BuildingBlock: ESEHIV_clean_sbu_0, # of connection points: 4
#     Node 1, Type 0, BuildingBlock: ESEHIV_clean_sbu_0, # of connection points: 4
#     Node 2, Type 0, BuildingBlock: ESEHIV_clean_sbu_0, # of connection points: 4
#     Node 3, Type 0, BuildingBlock: ESEHIV_clean_sbu_0, # of connection points: 4
#     Node 4, Type 0, BuildingBlock: ESEHIV_clean_sbu_0, # of connection points: 4
#     Node 5, Type 0, BuildingBlock: ESEHIV_clean_sbu_0, # of connection points: 4
#     Node 6, Type 0, BuildingBlock: ESEHIV_clean_sbu_0, # of connection points: 4
#     Node 7, Type 0, BuildingBlock: ESEHIV_clean_sbu_0, # of connection points: 4
#     Node 8, Type 0, BuildingBlock: ESEHIV_clean_sbu_0, # of connection points: 4
#     Node 9, Type 0, BuildingBlock: ESEHIV_clean_sbu_0, # of connection points: 4
#     Node 10, Type 0, BuildingBlock: ESEHIV_clean_sbu_0, # of connection points: 4
#     Node 11, Type 0, BuildingBlock: ESEHIV_clean_sbu_0, # of connection points: 4
#     Node 12, Type 1, BuildingBlock: PAMTUU_clean_sbu_0, # of connection points: 6
#     Node 13, Type 1, BuildingBlock: PAMTUU_clean_sbu_0, # of connection points: 6
#     Node 14, Type 1, BuildingBlock: PAMTUU_clean_sbu_0, # of connection points: 6
#     Node 15, Type 1, BuildingBlock: PAMTUU_clean_sbu_0, # of connection points: 6
#     Node 16, Type 1, BuildingBlock: PAMTUU_clean_sbu_0, # of connection points: 6
#     Node 17, Type 1, BuildingBlock: PAMTUU_clean_sbu_0, # of connection points: 6
#     Node 18, Type 1, BuildingBlock: PAMTUU_clean_sbu_0, # of connection points: 6
#     Node 19, Type 1, BuildingBlock: PAMTUU_clean_sbu_0, # of connection points: 6
#     Edge 20, Type (0, 1), BuildingBlock: TEMPAE_clean_linker_10, # of connection points: 2
#     Edge 21, Type (0, 1), BuildingBlock: TEMPAE_clean_linker_10, # of connection points: 2
#     Edge 22, Type (0, 1), BuildingBlock: TEMPAE_clean_linker_10, # of connection points: 2
#     Edge 23, Type (0, 1), BuildingBlock: TEMPAE_clean_linker_10, # of connection points: 2
#     Edge 24, Type (0, 1), BuildingBlock: TEMPAE_clean_linker_10, # of connection points: 2
#     Edge 25, Type (0, 1), BuildingBlock: TEMPAE_clean_linker_10, # of connection points: 2
#     Edge 26, Type (0, 1), BuildingBlock: TEMPAE_clean_linker_10, # of connection points: 2
#     Edge 27, Type (0, 1), BuildingBlock: TEMPAE_clean_linker_10, # of connection points: 2
#     Edge 28, Type (0, 1), BuildingBlock: TEMPAE_clean_linker_10, # of connection points: 2
#     Edge 29, Type (0, 1), BuildingBlock: TEMPAE_clean_linker_10, # of connection points: 2
#     Edge 30, Type (0, 1), BuildingBlock: TEMPAE_clean_linker_10, # of connection points: 2
#     Edge 31, Type (0, 1), BuildingBlock: TEMPAE_clean_linker_10, # of connection points: 2
#     Edge 32, Type (0, 1), BuildingBlock: TEMPAE_clean_linker_10, # of connection points: 2
#     Edge 33, Type (0, 1), BuildingBlock: TEMPAE_clean_linker_10, # of connection points: 2
#     Edge 34, Type (0, 1), BuildingBlock: TEMPAE_clean_linker_10, # of connection points: 2
#     Edge 35, Type (0, 1), BuildingBlock: TEMPAE_clean_linker_10, # of connection points: 2
#     Edge 36, Type (0, 1), BuildingBlock: TEMPAE_clean_linker_10, # of connection points: 2
#     Edge 37, Type (0, 1), BuildingBlock: TEMPAE_clean_linker_10, # of connection points: 2
#     Edge 38, Type (0, 1), BuildingBlock: TEMPAE_clean_linker_10, # of connection points: 2
#     Edge 39, Type (0, 1), BuildingBlock: TEMPAE_clean_linker_10, # of connection points: 2
#     Edge 40, Type (0, 1), BuildingBlock: TEMPAE_clean_linker_10, # of connection points: 2
#     Edge 41, Type (0, 1), BuildingBlock: TEMPAE_clean_linker_10, # of connection points: 2
#     Edge 42, Type (0, 1), BuildingBlock: TEMPAE_clean_linker_10, # of connection points: 2
#     Edge 43, Type (0, 1), BuildingBlock: TEMPAE_clean_linker_10, # of connection points: 2
#     Edge 44, Type (0, 1), BuildingBlock: TEMPAE_clean_linker_10, # of connection points: 2
#     Edge 45, Type (0, 1), BuildingBlock: TEMPAE_clean_linker_10, # of connection points: 2
#     Edge 46, Type (0, 1), BuildingBlock: TEMPAE_clean_linker_10, # of connection points: 2
#     Edge 47, Type (0, 1), BuildingBlock: TEMPAE_clean_linker_10, # of connection points: 2
#     Edge 48, Type (0, 1), BuildingBlock: TEMPAE_clean_linker_10, # of connection points: 2
#     Edge 49, Type (0, 1), BuildingBlock: TEMPAE_clean_linker_10, # of connection points: 2
#     Edge 50, Type (0, 1), BuildingBlock: TEMPAE_clean_linker_10, # of connection points: 2
#     Edge 51, Type (0, 1), BuildingBlock: TEMPAE_clean_linker_10, # of connection points: 2
#     Edge 52, Type (0, 1), BuildingBlock: TEMPAE_clean_linker_10, # of connection points: 2
#     Edge 53, Type (0, 1), BuildingBlock: TEMPAE_clean_linker_10, # of connection points: 2
#     Edge 54, Type (0, 1), BuildingBlock: TEMPAE_clean_linker_10, # of connection points: 2
#     Edge 55, Type (0, 1), BuildingBlock: TEMPAE_clean_linker_10, # of connection points: 2
#     Edge 56, Type (0, 1), BuildingBlock: TEMPAE_clean_linker_10, # of connection points: 2
#     Edge 57, Type (0, 1), BuildingBlock: TEMPAE_clean_linker_10, # of connection points: 2
#     Edge 58, Type (0, 1), BuildingBlock: TEMPAE_clean_linker_10, # of connection points: 2
#     Edge 59, Type (0, 1), BuildingBlock: TEMPAE_clean_linker_10, # of connection points: 2
#     Edge 60, Type (0, 1), BuildingBlock: TEMPAE_clean_linker_10, # of connection points: 2
#     Edge 61, Type (0, 1), BuildingBlock: TEMPAE_clean_linker_10, # of connection points: 2
#     Edge 62, Type (0, 1), BuildingBlock: TEMPAE_clean_linker_10, # of connection points: 2
#     Edge 63, Type (0, 1), BuildingBlock: TEMPAE_clean_linker_10, # of connection points: 2
#     Edge 64, Type (0, 1), BuildingBlock: TEMPAE_clean_linker_10, # of connection points: 2
#     Edge 65, Type (0, 1), BuildingBlock: TEMPAE_clean_linker_10, # of connection points: 2
#     Edge 66, Type (0, 1), BuildingBlock: TEMPAE_clean_linker_10, # of connection points: 2
#     Edge 67, Type (0, 1), BuildingBlock: TEMPAE_clean_linker_10, # of connection points: 2
# Relax obj value: 0.136
# Max RMSD: 0.233
# Mean RMSD: 0.157
data_MOF--net-soc--node1-ESEHIV_clean_sbu_0--node2-PAMTUU_clean_sbu_0--edge1-TEMPAE_clean_linker_10
_symmetry_space_group_name_H-M    P1
_symmetry_Int_Tables_number       1
_symmetry_cell_setting            triclinic
loop_
_symmetry_equiv_pos_as_xyz
'x, y, z'
_cell_length_a     52.784579
_cell_length_b     50.801547
_cell_length_c     44.298818
_cell_angle_alpha  82.850334
_cell_angle_beta   82.738539
_cell_angle_gamma 71.456813
loop_
_atom_site_label
_atom_site_type_symbol
_atom_site_fract_x
_atom_site_fract_y
_atom_site_fract_z
_atom_type_partial_charge
Cu0 Cu 0.04694 0.03806 0.36539 0.0
N1 N 0.06228 0.05534 0.38981 0.0
N2 N 0.0879 0.07869 0.40348 0.0
C3 C 0.08391 0.0642 0.38191 0.0
C4 C 0.06806 0.07876 0.42596 0.0
C5 C 0.05229 0.06441 0.41743 0.0
O6 O 0.07485 0.0084 0.34521 0.0
C7 C 1.01829 0.09223 0.33859 0.0
O8 O 0.03674 0.10069 0.34808 0.0
H9 H 0.0955 0.06162 0.35999 0.0
H10 H 0.0342 0.06171 0.42998 0.0
N11 N 0.02592 0.01896 0.38966 0.0
N12 N 0.99724 0.9941 0.39982 0.0
C13 C 1.00732 0.01066 0.37882 0.0
C14 C 0.02786 0.00728 0.41858 0.0
C15 C 1.01008 0.99198 0.42497 0.0
C16 C 0.09541 0.00914 0.32708 0.0
O17 O 0.09846 0.0333 0.31616 0.0
H18 H 1.00248 0.01542 0.35534 0.0
H19 H 0.04194 0.00881 0.43351 0.0
O20 O 0.02121 0.06617 0.34052 0.0
H21 H 0.06478 0.08894 0.4468 0.0
H22 H 1.00734 0.97974 0.44622 0.0
Cu23 Cu 0.04182 0.039 0.74544 0.0
N24 N 0.03025 0.01915 0.7202 0.0
N25 N 1.00662 0.99395 0.70615 0.0
C26 C 1.00845 0.01045 0.72688 0.0
C27 C 0.02815 0.99221 0.68559 0.0
C28 C 0.04269 0.00782 0.69432 0.0
O29 O 1.01009 0.06329 0.76711 0.0
C30 C 0.09152 1.00204 0.75578 0.0
O31 O 0.09551 0.01104 0.72702 0.0
H32 H 0.9949 0.0151 0.74736 0.0
H33 H 0.06143 0.01002 0.68314 0.0
N34 N 0.05904 0.06324 0.72347 0.0
N35 N 0.08307 0.09296 0.71607 0.0
C36 C 0.07223 0.07674 0.73666 0.0
C37 C 0.06142 0.07114 0.69338 0.0
C38 C 0.07637 0.08947 0.68872 0.0
C39 C 0.99425 0.08023 0.7489 0.0
O40 O 1.00026 0.07813 0.7194 0.0
H41 H 0.07428 0.07415 0.76094 0.0
H42 H 0.05289 0.06415 0.67613 0.0
O43 O 0.06833 0.01161 0.76997 0.0
H44 H 0.03324 0.98019 0.66594 0.0
H45 H 0.08164 0.0996 0.66696 0.0
Cu46 Cu 0.27588 0.06529 0.09857 0.0
N47 N 0.2465 0.06398 0.08023 0.0
N48 N 0.22583 0.0473 0.04987 0.0
C49 C 0.24949 0.04655 0.05879 0.0
C50 C 0.20696 0.06602 0.06637 0.0
C51 C 0.21986 0.07665 0.08491 0.0
O52 O 0.29265 0.02656 0.11601 0.0
C53 C 0.28419 0.10675 0.0555 0.0
O54 O 0.26101 0.1195 0.06996 0.0
H55 H 0.26875 0.03256 0.05089 0.0
H56 H 0.2104 0.09205 0.10095 0.0
N57 N 0.26529 0.08835 0.13079 0.0
N58 N 0.2663 0.11679 0.16505 0.0
C59 C 0.27937 0.10312 0.14055 0.0
C60 C 0.24272 0.09264 0.14994 0.0
C61 C 0.24323 0.11022 0.17094 0.0
C62 C 0.27641 0.01571 0.13308 0.0
O63 O 0.25119 0.03099 0.13716 0.0
H64 H 0.29873 0.10392 0.12977 0.0
H65 H 0.22713 0.08326 0.14918 0.0
O66 O 0.29634 0.08161 0.0652 0.0
H67 H 0.18552 0.07131 0.06533 0.0
H68 H 0.22804 0.1171 0.18956 0.0
Cu69 Cu 0.06939 0.30769 0.09777 0.0
N70 N 0.08609 0.32691 0.06628 0.0
N71 N 0.11333 0.33252 0.02427 0.0
C72 C 0.10171 0.31502 0.04193 0.0
C73 C 0.10447 0.3565 0.03809 0.0
C74 C 0.08784 0.35293 0.064 0.0
O75 O 0.09439 0.29474 0.13067 0.0
C76 C 0.04278 0.29529 0.0554 0.0
O77 O 0.03904 0.32217 0.04953 0.0
H78 H 0.10486 0.29363 0.03772 0.0
H79 H 0.07854 0.36792 0.08054 0.0
N80 N 0.03631 0.3291 0.11636 0.0
N81 N 0.99498 0.33695 0.1412 0.0
C82 C 1.01782 0.31764 0.13119 0.0
C83 C 0.02484 0.35679 0.11692 0.0
C84 C 0.99945 0.36167 0.13228 0.0
C85 C 0.11997 0.28905 0.1259 0.0
O86 O 0.13118 0.28638 0.09779 0.0
H87 H 0.02123 0.29536 0.13448 0.0
H88 H 0.03397 0.37236 0.10649 0.0
O89 O 0.0574 0.28208 0.07689 0.0
H90 H 0.11046 0.37496 0.03082 0.0
H91 H 0.98523 0.38196 0.1359 0.0
Cu92 Cu 0.79689 1.00309 1.0102 0.0
N93 N 0.81816 0.02078 0.98396 0.0
N94 N 0.82531 0.05777 0.95582 0.0
C95 C 0.80698 0.04665 0.97129 0.0
C96 C 0.84919 0.03783 0.95838 0.0
C97 C 0.84472 0.01494 0.97605 0.0
O98 O 0.77743 0.03206 0.03786 0.0
C99 C 0.79484 0.97063 0.96695 0.0
O100 O 0.82054 0.9668 0.96798 0.0
H101 H 0.78566 0.05738 0.97421 0.0
H102 H 0.85981 0.99601 0.98344 0.0
N103 N 0.81524 0.97257 0.03554 0.0
N104 N 0.81879 0.93966 0.07472 0.0
C105 C 0.80288 0.96331 0.06109 0.0
C106 C 0.84007 0.95429 0.03275 0.0
C107 C 0.84235 0.93395 0.05698 0.0
C108 C 0.79407 0.03782 0.05266 0.0
O109 O 0.81957 0.02345 0.04822 0.0
H110 H 0.78237 0.97385 0.06924 0.0
H111 H 0.85515 0.95508 0.01404 0.0
O112 O 0.77816 0.98797 0.98419 0.0
H113 H 0.86849 0.0401 0.94937 0.0
H114 H 0.85971 0.91593 0.06059 0.0
Cu115 Cu 0.02668 0.76273 0.02043 0.0
N116 N 1.00913 0.748 0.99533 0.0
N117 N 0.98136 0.74336 0.96325 0.0
C118 C 0.98783 0.76115 0.9791 0.0
C119 C 0.9993 0.71819 0.96988 0.0
C120 C 1.01627 0.72112 0.98954 0.0
O121 O 0.99996 0.78294 0.05317 0.0
C122 C 0.07004 0.78856 0.99946 0.0
O123 O 0.0707 0.79132 0.02842 0.0
H124 H 0.9775 0.7833 0.97871 0.0
H125 H 0.03275 0.70475 0.999 0.0
N126 N 0.04946 0.73313 0.04337 0.0
N127 N 0.08497 0.71465 0.07058 0.0
C128 C 0.07591 0.72868 0.04416 0.0
C129 C 0.04181 0.71994 0.0695 0.0
C130 C 0.06366 0.7085 0.08629 0.0
C131 C 0.97912 0.77529 0.06316 0.0
O132 O 0.97378 0.75677 0.04895 0.0
H133 H 0.08783 0.73785 0.02711 0.0
H134 H 0.02122 0.72147 0.07753 0.0
O135 O 0.05119 0.7804 0.99201 0.0
H136 H 0.99992 0.69886 0.96147 0.0
H137 H 0.06303 0.69954 0.10977 0.0
Cu138 Cu 0.53571 0.53488 0.8711 0.0
N139 N 0.54614 0.55768 0.89363 0.0
N140 N 0.56706 0.58693 0.90408 0.0
C141 C 0.56269 0.57268 0.88255 0.0
C142 C 0.55236 0.58087 0.92967 0.0
C143 C 0.53946 0.56278 0.92313 0.0
O144 O 0.56738 0.51238 0.84728 0.0
C145 C 0.48395 0.56885 0.86549 0.0
O146 O 0.48349 0.56144 0.895 0.0
H147 H 0.57133 0.57304 0.85907 0.0
H148 H 0.52631 0.55384 0.9388 0.0
N149 N 0.52291 0.50884 0.89622 0.0
N150 N 0.50167 0.47693 0.90881 0.0
C151 C 0.50537 0.49743 0.88806 0.0
C152 C 0.53085 0.49502 0.92303 0.0
C153 C 0.5177 0.47523 0.9309 0.0
C154 C 0.5891 0.50268 0.86045 0.0
O155 O 0.58961 0.50976 0.88781 0.0
H156 H 0.49645 0.50327 0.86655 0.0
H157 H 0.54577 0.49843 0.9354 0.0
O158 O 0.50582 0.55939 0.84874 0.0
H159 H 0.55145 0.58844 0.95169 0.0
H160 H 0.52008 0.46048 0.951 0.0
Cu161 Cu 0.55157 0.54424 0.24659 0.0
N162 N 0.53601 0.52469 0.22522 0.0
N163 N 0.51033 0.49955 0.21587 0.0
C164 C 0.51621 0.51377 0.23647 0.0
C165 C 0.52715 0.50171 0.19069 0.0
C166 C 0.54297 0.51713 0.19655 0.0
O167 O 0.52315 0.57069 0.27026 0.0
C168 C 0.60001 0.50389 0.25185 0.0
O169 O 0.5999 0.51007 0.22216 0.0
H170 H 0.50687 0.51562 0.25963 0.0
H171 H 0.55875 0.52204 0.18115 0.0
N172 N 0.56859 0.56649 0.22037 0.0
N173 N 0.59384 0.59471 0.20696 0.0
C174 C 0.58605 0.5776 0.22935 0.0
C175 C 0.56505 0.57695 0.19122 0.0
C176 C 0.58066 0.5944 0.18286 0.0
C177 C 0.50582 0.58769 0.25371 0.0
O178 O 0.50785 0.58401 0.22456 0.0
H179 H 0.59208 0.57394 0.25235 0.0
H180 H 0.55154 0.57287 0.17731 0.0
O181 O 0.57959 0.51668 0.269 0.0
H182 H 0.52801 0.49284 0.16947 0.0
H183 H 0.582 0.60608 0.16087 0.0
Cu184 Cu 0.80564 0.56441 0.58392 0.0
N185 N 0.79343 0.58067 0.54622 0.0
N186 N 0.79393 0.60077 0.4985 0.0
C187 C 0.80803 0.59026 0.52296 0.0
C188 C 0.76948 0.59761 0.50672 0.0
C189 C 0.76927 0.58508 0.53617 0.0
O190 O 0.80264 0.5945 0.60948 0.0
C191 C 0.85704 0.51952 0.56513 0.0
O192 O 0.88312 0.51193 0.56659 0.0
H193 H 0.82842 0.59011 0.52428 0.0
H194 H 0.75269 0.57956 0.54921 0.0
N195 N 0.78569 0.54187 0.60359 0.0
N196 N 0.77644 0.50446 0.62823 0.0
C197 C 0.79585 0.51536 0.61526 0.0
C198 C 0.75892 0.54818 0.60961 0.0
C199 C 0.75312 0.52509 0.6248 0.0
C200 C 0.8163 0.59088 0.63229 0.0
O201 O 0.83292 0.56599 0.63915 0.0
H202 H 0.81714 0.50452 0.61484 0.0
H203 H 0.74465 0.56823 0.60368 0.0
O204 O 0.84317 0.54191 0.57729 0.0
H205 H 0.75297 0.60387 0.49248 0.0
H206 H 0.73331 0.52365 0.63269 0.0
Cu207 Cu 0.57075 0.78867 0.59581 0.0
N208 N 0.59966 0.76902 0.5677 0.0
N209 N 0.63318 0.76173 0.52903 0.0
C210 C 0.612 0.78068 0.54316 0.0
C211 C 0.63401 0.7372 0.54539 0.0
C212 C 0.61356 0.74169 0.56889 0.0
O213 O 0.58807 0.80305 0.62397 0.0
C214 C 0.5396 0.80581 0.54919 0.0
O215 O 0.5511 0.77914 0.54607 0.0
H216 H 0.60596 0.80283 0.53631 0.0
H217 H 0.60952 0.72606 0.586 0.0
N218 N 0.54809 0.76919 0.61994 0.0
N219 N 0.5119 0.7623 0.64982 0.0
C220 C 0.52256 0.78102 0.63247 0.0
C221 C 0.55363 0.74196 0.62962 0.0
C222 C 0.53166 0.73771 0.6478 0.0
C223 C 0.60492 0.78426 0.6396 0.0
O224 O 0.60773 0.75805 0.63661 0.0
H225 H 0.51223 0.80316 0.62944 0.0
H226 H 0.57247 0.72621 0.62422 0.0
O227 O 0.54577 0.81649 0.57066 0.0
H228 H 0.64841 0.71723 0.54075 0.0
H229 H 0.53042 0.71778 0.65858 0.0
Cu230 Cu 0.30192 0.50239 0.52178 0.0
N231 N 0.32072 0.52326 0.49494 0.0
N232 N 0.3273 0.56054 0.46566 0.0
C233 C 0.31032 0.5507 0.48605 0.0
C234 C 0.34931 0.53819 0.46161 0.0
C235 C 0.34519 0.51533 0.47959 0.0
O236 O 0.27884 0.52907 0.54878 0.0
C237 C 0.29888 0.46578 0.48309 0.0
O238 O 0.32481 0.45853 0.48541 0.0
H239 H 0.2903 0.56302 0.49392 0.0
H240 H 0.35897 0.49438 0.48097 0.0
N241 N 0.32254 0.47322 0.54793 0.0
N242 N 0.33107 0.44127 0.58859 0.0
C243 C 0.3122 0.46184 0.57386 0.0
C244 C 0.34897 0.4595 0.54604 0.0
C245 C 0.35426 0.43985 0.57087 0.0
C246 C 0.29287 0.53692 0.56506 0.0
O247 O 0.31912 0.52619 0.56153 0.0
H248 H 0.29111 0.46894 0.58171 0.0
H249 H 0.36341 0.46334 0.52787 0.0
O250 O 0.28351 0.486 0.49751 0.0
H251 H 0.36723 0.53825 0.44679 0.0
H252 H 0.3738 0.42545 0.57509 0.0
Cu253 Cu 0.5187 0.27092 0.51477 0.0
N254 N 0.55008 0.2526 0.49052 0.0
N255 N 0.58983 0.24669 0.46261 0.0
C256 C 0.57193 0.2615 0.48366 0.0
C257 C 0.57894 0.22764 0.45599 0.0
C258 C 0.55457 0.23121 0.4733 0.0
O259 O 0.53124 0.29455 0.538 0.0
C260 C 0.48027 0.27022 0.47695 0.0
O261 O 0.49071 0.24374 0.48594 0.0
H262 H 0.57408 0.27939 0.49279 0.0
H263 H 0.54082 0.21951 0.47258 0.0
N264 N 0.5061 0.24711 0.54488 0.0
N265 N 0.48308 0.23417 0.58724 0.0
C266 C 0.48691 0.2557 0.56792 0.0
C267 C 0.51469 0.21913 0.54964 0.0
C268 C 0.50058 0.21111 0.5757 0.0
C269 C 0.54726 0.28033 0.55779 0.0
O270 O 0.55267 0.25312 0.5609 0.0
H271 H 0.47658 0.27745 0.57093 0.0
H272 H 0.53039 0.20557 0.53546 0.0
O273 O 0.48922 0.28779 0.48724 0.0
H274 H 0.5878 0.21248 0.43948 0.0
H275 H 0.50305 0.1899 0.58534 0.0
Tb276 Tb 0.30085 0.31756 0.28096 0.0
Tb277 Tb 0.27423 0.28334 0.3382 0.0
C278 C 0.24616 0.30438 0.27608 0.0
C279 C 0.34085 0.36097 0.2388 0.0
C280 C 0.3761 0.39305 0.23696 0.0
C281 C 0.36754 0.38827 0.20986 0.0
C282 C 0.35008 0.37239 0.21081 0.0
C283 C 0.34921 0.36564 0.26596 0.0
C284 C 0.36669 0.38154 0.26505 0.0
C285 C 0.32286 0.34392 0.23936 0.0
O286 O 0.28751 0.34537 0.31695 0.0
O287 O 0.25677 0.32722 0.34613 0.0
O288 O 0.3064 0.29253 0.35721 0.0
O289 O 0.33206 0.29938 0.31281 0.0
O290 O 0.24042 0.27997 0.36684 0.0
O291 O 0.27922 0.24936 0.37169 0.0
O292 O 0.30176 0.25213 0.31002 0.0
O293 O 0.30304 0.27854 0.26434 0.0
O294 O 0.26038 0.32189 0.26846 0.0
O295 O 0.25076 0.28606 0.3001 0.0
C296 C 0.26805 0.34706 0.33887 0.0
O297 O 0.33306 0.31747 0.24791 0.0
O298 O 0.29857 0.35422 0.25221 0.0
C299 C 0.32888 0.29551 0.34292 0.0
C300 C 0.24114 0.23379 0.38116 0.0
C301 C 0.21364 0.19411 0.38351 0.0
C302 C 0.217 0.20418 0.41045 0.0
C303 C 0.2306 0.22387 0.40925 0.0
C304 C 0.23843 0.22341 0.35421 0.0
C305 C 0.22476 0.20373 0.35538 0.0
C306 C 0.25356 0.256 0.38013 0.0
C307 C 0.30544 0.25437 0.28003 0.0
H308 H 0.37469 0.39641 0.18782 0.0
H309 H 0.34393 0.36886 0.18962 0.0
H310 H 0.34225 0.35695 0.28782 0.0
H311 H 0.37264 0.38502 0.28636 0.0
H312 H 0.20837 0.19751 0.43242 0.0
H313 H 0.2324 0.2318 0.43022 0.0
H314 H 0.24649 0.23087 0.33229 0.0
H315 H 0.22276 0.19617 0.33426 0.0
Tb316 Tb 0.78763 0.27408 0.28723 0.0
Tb317 Tb 0.80703 0.30341 0.34039 0.0
C318 C 0.75775 0.33641 0.30278 0.0
C319 C 0.77565 0.23048 0.22716 0.0
C320 C 0.77544 0.19156 0.18631 0.0
C321 C 0.76582 0.22044 0.17813 0.0
C322 C 0.76579 0.23963 0.19839 0.0
C323 C 0.78643 0.20161 0.23475 0.0
C324 C 0.78631 0.18245 0.2146 0.0
C325 C 0.77006 0.25069 0.25064 0.0
O326 O 0.81527 0.2955 0.2621 0.0
O327 O 0.83761 0.29986 0.30191 0.0
O328 O 0.82961 0.25863 0.34372 0.0
O329 O 0.82753 0.24714 0.29552 0.0
O330 O 0.82402 0.33273 0.35127 0.0
O331 O 0.81271 0.30417 0.38674 0.0
O332 O 0.76794 0.29886 0.35792 0.0
O333 O 0.77201 0.26089 0.33283 0.0
O334 O 0.756 0.31294 0.29496 0.0
O335 O 0.7787 0.33753 0.31529 0.0
C336 C 0.83563 0.30035 0.27251 0.0
O337 O 0.77518 0.24078 0.27853 0.0
O338 O 0.77473 0.27455 0.24359 0.0
C339 C 0.83897 0.24227 0.32119 0.0
C340 C 0.81502 0.34724 0.40196 0.0
C341 C 0.81083 0.38929 0.44091 0.0
C342 C 0.82073 0.36081 0.45104 0.0
C343 C 0.82283 0.34012 0.4318 0.0
C344 C 0.80394 0.37562 0.39218 0.0
C345 C 0.80184 0.39637 0.41144 0.0
C346 C 0.82242 0.32509 0.38049 0.0
C347 C 0.76009 0.27748 0.35434 0.0
H348 H 0.7572 0.22824 0.15663 0.0
H349 H 0.7569 0.26168 0.19209 0.0
H350 H 0.79403 0.19371 0.25678 0.0
H351 H 0.79435 0.16039 0.22144 0.0
H352 H 0.82818 0.3544 0.47333 0.0
H353 H 0.83177 0.31847 0.43983 0.0
H354 H 0.79777 0.38186 0.36928 0.0
H355 H 0.79372 0.41801 0.40294 0.0
Tb356 Tb 0.82058 0.79822 0.32223 0.0
Tb357 Tb 0.79912 0.76041 0.28111 0.0
C358 C 0.83448 0.73346 0.3328 0.0
C359 C 0.85197 0.84375 0.35752 0.0
C360 C 0.88079 0.88102 0.36199 0.0
C361 C 0.86854 0.86986 0.3883 0.0
C362 C 0.85427 0.85147 0.38604 0.0
C363 C 0.86408 0.85468 0.33103 0.0
C364 C 0.87846 0.8732 0.33326 0.0
C365 C 0.83699 0.82406 0.35664 0.0
O366 O 0.85173 0.78898 0.28306 0.0
O367 O 0.8338 0.76694 0.25234 0.0
O368 O 0.77725 0.80403 0.26972 0.0
O369 O 0.80656 0.82518 0.2823 0.0
O370 O 0.79286 0.7224 0.27687 0.0
O371 O 0.7837 0.75601 0.24105 0.0
O372 O 0.77255 0.76362 0.32392 0.0
O373 O 0.77993 0.80032 0.34335 0.0
O374 O 0.82591 0.75705 0.3453 0.0
O375 O 0.83332 0.73312 0.30358 0.0
C376 C 0.8522 0.77805 0.2572 0.0
O377 O 0.81377 0.83383 0.34531 0.0
O378 O 0.85068 0.79932 0.34829 0.0
C379 C 0.78767 0.82467 0.26608 0.0
C380 C 0.75869 0.72402 0.24597 0.0
C381 C 0.71739 0.7033 0.23485 0.0
C382 C 0.73262 0.71333 0.21046 0.0
C383 C 0.7531 0.72349 0.21599 0.0
C384 C 0.74269 0.71532 0.2705 0.0
C385 C 0.72222 0.70504 0.26497 0.0
C386 C 0.78288 0.73098 0.25068 0.0
C387 C 0.76667 0.78203 0.34435 0.0
H388 H 0.87037 0.87496 0.41079 0.0
H389 H 0.84513 0.84307 0.40671 0.0
H390 H 0.86244 0.84887 0.3088 0.0
H391 H 0.88756 0.88156 0.31257 0.0
H392 H 0.72909 0.71274 0.18702 0.0
H393 H 0.76519 0.73011 0.19675 0.0
H394 H 0.74658 0.71552 0.29389 0.0
H395 H 0.71098 0.69732 0.28427 0.0
Tb396 Tb 0.31275 0.80831 0.33353 0.0
Tb397 Tb 0.28955 0.77855 0.2854 0.0
C398 C 0.25304 0.83204 0.31541 0.0
C399 C 0.34966 0.83112 0.38961 0.0
C400 C 0.38657 0.83436 0.42896 0.0
C401 C 0.36421 0.82565 0.44069 0.0
C402 C 0.34585 0.82421 0.42123 0.0
C403 C 0.37232 0.83929 0.37789 0.0
C404 C 0.39057 0.8408 0.39731 0.0
C405 C 0.32851 0.83356 0.3695 0.0
O406 O 0.31428 0.76728 0.35626 0.0
O407 O 0.28115 0.76104 0.33199 0.0
O408 O 0.32873 0.75042 0.2949 0.0
O409 O 0.3488 0.7789 0.31264 0.0
O410 O 0.25922 0.76282 0.27712 0.0
O411 O 0.29557 0.75677 0.24622 0.0
O412 O 0.30484 0.80923 0.25571 0.0
O413 O 0.30728 0.83667 0.29224 0.0
O414 O 0.26888 0.82527 0.33774 0.0
O415 O 0.25924 0.81855 0.29076 0.0
C416 C 0.2977 0.7533 0.35362 0.0
O417 O 0.33547 0.83378 0.34018 0.0
O418 O 0.31137 0.81973 0.37802 0.0
C419 C 0.34997 0.75519 0.30254 0.0
C420 C 0.25711 0.75195 0.22706 0.0
C421 C 0.22365 0.74515 0.18572 0.0
C422 C 0.24822 0.7246 0.19079 0.0
C423 C 0.26476 0.72803 0.2112 0.0
C424 C 0.23327 0.7732 0.22111 0.0
C425 C 0.21671 0.76986 0.20048 0.0
C426 C 0.27253 0.75194 0.25244 0.0
C427 C 0.30767 0.83231 0.26354 0.0
H428 H 0.3605 0.8207 0.46502 0.0
H429 H 0.32831 0.8184 0.43105 0.0
H430 H 0.37567 0.84521 0.35373 0.0
H431 H 0.40784 0.84712 0.38751 0.0
H432 H 0.2541 0.70519 0.1802 0.0
H433 H 0.28297 0.71128 0.21576 0.0
H434 H 0.22698 0.79183 0.23318 0.0
H435 H 0.19815 0.78632 0.19668 0.0
Tb436 Tb 0.27355 0.77244 0.78936 0.0
Tb437 Tb 0.29658 0.79754 0.84132 0.0
C438 C 0.24967 0.83508 0.80344 0.0
C439 C 0.25612 0.73515 0.72902 0.0
C440 C 0.25486 0.69516 0.6912 0.0
C441 C 0.2455 0.72368 0.68153 0.0
C442 C 0.24602 0.74351 0.70039 0.0
C443 C 0.26655 0.70663 0.73821 0.0
C444 C 0.26585 0.68679 0.71945 0.0
C445 C 0.25226 0.75645 0.75016 0.0
O446 O 0.31442 0.77061 0.76968 0.0
O447 O 0.32241 0.80119 0.79866 0.0
O448 O 0.32192 0.75453 0.84108 0.0
O449 O 0.30254 0.73527 0.80917 0.0
O450 O 0.31042 0.82953 0.85123 0.0
O451 O 0.30933 0.79504 0.88488 0.0
O452 O 0.26154 0.78804 0.86681 0.0
O453 O 0.24269 0.77624 0.82838 0.0
O454 O 0.25814 0.81771 0.78214 0.0
O455 O 0.2599 0.82938 0.8297 0.0
C456 C 0.32934 0.7856 0.77536 0.0
O457 O 0.25066 0.74845 0.77927 0.0
O458 O 0.26567 0.7743 0.74349 0.0
C459 C 0.32097 0.73327 0.82757 0.0
C460 C 0.29718 0.83976 0.90174 0.0
C461 C 0.2681 0.88194 0.93954 0.0
C462 C 0.29634 0.87215 0.93781 0.0
C463 C 0.31076 0.85123 0.919 0.0
C464 C 0.26901 0.84887 0.90397 0.0
C465 C 0.25455 0.86984 0.9227 0.0
C466 C 0.3123 0.81981 0.87982 0.0
C467 C 0.24189 0.78171 0.85685 0.0
H468 H 0.23694 0.73065 0.65987 0.0
H469 H 0.23765 0.76544 0.69307 0.0
H470 H 0.27447 0.69969 0.76022 0.0
H471 H 0.27369 0.66488 0.72713 0.0
H472 H 0.30736 0.88139 0.95012 0.0
H473 H 0.3325 0.84455 0.91731 0.0
H474 H 0.25822 0.8402 0.89067 0.0
H475 H 0.23284 0.87683 0.92373 0.0
Tb476 Tb 0.32577 0.27851 0.8374 0.0
Tb477 Tb 0.29167 0.25366 0.79682 0.0
C478 C 0.31374 0.22168 0.85829 0.0
C479 C 0.36732 0.3136 0.87284 0.0
C480 C 0.39685 0.34981 0.87848 0.0
C481 C 0.39246 0.33113 0.90324 0.0
C482 C 0.37784 0.31321 0.9004 0.0
C483 C 0.37206 0.3317 0.84772 0.0
C484 C 0.38687 0.34966 0.8505 0.0
C485 C 0.35035 0.29591 0.8719 0.0
O486 O 0.352 0.26829 0.79579 0.0
O487 O 0.33422 0.23674 0.7807 0.0
O488 O 0.3004 0.28802 0.76772 0.0
O489 O 0.31118 0.31252 0.80193 0.0
O490 O 0.28777 0.219 0.77889 0.0
O491 O 0.26132 0.26058 0.7676 0.0
O492 O 0.26076 0.28087 0.82669 0.0
O493 O 0.28714 0.28246 0.8634 0.0
O494 O 0.33197 0.23476 0.85425 0.0
O495 O 0.29392 0.22865 0.84073 0.0
C496 C 0.35294 0.24921 0.77783 0.0
O497 O 0.32564 0.30858 0.86579 0.0
O498 O 0.36092 0.27302 0.85833 0.0
C499 C 0.30561 0.31018 0.77434 0.0
C500 C 0.2446 0.22294 0.76481 0.0
C501 C 0.20452 0.1982 0.76033 0.0
C502 C 0.20942 0.21826 0.73747 0.0
C503 C 0.22926 0.23046 0.73971 0.0
C504 C 0.23928 0.20358 0.78826 0.0
C505 C 0.2194 0.19127 0.786 0.0
C506 C 0.2672 0.23408 0.76436 0.0
C507 C 0.26344 0.28634 0.85419 0.0
H508 H 0.40027 0.33044 0.92489 0.0
H509 H 0.37434 0.29931 0.91999 0.0
H510 H 0.36395 0.33226 0.82628 0.0
H511 H 0.38988 0.36393 0.8311 0.0
H512 H 0.19863 0.22379 0.71722 0.0
H513 H 0.23319 0.24522 0.7213 0.0
H514 H 0.25085 0.19753 0.80792 0.0
H515 H 0.21586 0.17612 0.80415 0.0
Tb516 Tb 0.80991 0.30202 0.83246 0.0
Tb517 Tb 0.77447 0.28091 0.78619 0.0
C518 C 0.74948 0.3347 0.82117 0.0
C519 C 0.85762 0.30656 0.88915 0.0
C520 C 0.89931 0.29303 0.92901 0.0
C521 C 0.87287 0.30876 0.93837 0.0
C522 C 0.85241 0.31543 0.91874 0.0
C523 C 0.88379 0.29004 0.87995 0.0
C524 C 0.90435 0.28329 0.89968 0.0
C525 C 0.83602 0.31709 0.8679 0.0
O526 O 0.80641 0.26261 0.85344 0.0
O527 O 0.76924 0.26108 0.83229 0.0
O528 O 0.81178 0.24707 0.79038 0.0
O529 O 0.83882 0.26991 0.80613 0.0
O530 O 0.738 0.27437 0.78091 0.0
O531 O 0.77061 0.26578 0.74519 0.0
O532 O 0.79635 0.30579 0.7572 0.0
O533 O 0.80396 0.33181 0.79239 0.0
O534 O 0.76709 0.32484 0.84163 0.0
O535 O 0.75191 0.32323 0.79562 0.0
C536 C 0.78727 0.25158 0.8523 0.0
O537 O 0.84265 0.31543 0.83862 0.0
O538 O 0.81336 0.31189 0.87635 0.0
C539 C 0.83542 0.24804 0.79588 0.0
C540 C 0.72577 0.27786 0.72977 0.0
C541 C 0.68643 0.29011 0.68703 0.0
C542 C 0.71372 0.2765 0.67855 0.0
C543 C 0.73304 0.27038 0.69962 0.0
C544 C 0.69868 0.2924 0.73797 0.0
C545 C 0.67934 0.29849 0.71691 0.0
C546 C 0.74559 0.26703 0.75317 0.0
C547 C 0.80195 0.32767 0.76415 0.0
H548 H 0.86797 0.31627 0.96087 0.0
H549 H 0.83252 0.32824 0.92649 0.0
H550 H 0.88858 0.28292 0.85727 0.0
H551 H 0.92442 0.2713 0.89149 0.0
H552 H 0.72017 0.27007 0.6557 0.0
H553 H 0.75361 0.25892 0.69256 0.0
H554 H 0.69214 0.29823 0.76105 0.0
H555 H 0.65859 0.3087 0.72456 0.0
Tb556 Tb 0.80011 0.80722 0.77154 0.0
Tb557 Tb 0.77068 0.77479 0.82752 0.0
C558 C 0.74132 0.80479 0.76843 0.0
C559 C 0.84178 0.85007 0.73024 0.0
C560 C 0.87529 0.88444 0.72632 0.0
C561 C 0.85028 0.89432 0.71406 0.0
C562 C 0.83379 0.87726 0.71588 0.0
C563 C 0.86654 0.84031 0.743 0.0
C564 C 0.88312 0.85725 0.74095 0.0
C565 C 0.82458 0.83193 0.73083 0.0
O566 O 0.7771 0.83909 0.80206 0.0
O567 O 0.77339 0.81119 0.84622 0.0
O568 O 0.81316 0.76193 0.83559 0.0
O569 O 0.8254 0.79834 0.80894 0.0
O570 O 0.73915 0.77667 0.86205 0.0
O571 O 0.7711 0.73819 0.85545 0.0
O572 O 0.77711 0.74983 0.78927 0.0
O573 O 0.81058 0.76389 0.7603 0.0
O574 O 0.76416 0.80592 0.75347 0.0
O575 O 0.73905 0.79843 0.79822 0.0
C576 C 0.77246 0.83568 0.83199 0.0
O577 O 0.83441 0.80601 0.74161 0.0
O578 O 0.79929 0.84232 0.74035 0.0
C579 C 0.82954 0.77718 0.82992 0.0
C580 C 0.72826 0.73484 0.87293 0.0
C581 C 0.69154 0.70418 0.87932 0.0
C582 C 0.70142 0.7096 0.90517 0.0
C583 C 0.71964 0.72478 0.90196 0.0
C584 C 0.71827 0.72987 0.84702 0.0
C585 C 0.70002 0.71465 0.85019 0.0
C586 C 0.748 0.75 0.87011 0.0
C587 C 0.79608 0.74667 0.76657 0.0
H588 H 0.84336 0.91527 0.70306 0.0
H589 H 0.8148 0.8853 0.70588 0.0
H590 H 0.87337 0.81944 0.75424 0.0
H591 H 0.90237 0.84873 0.75027 0.0
H592 H 0.69498 0.7022 0.92792 0.0
H593 H 0.72711 0.72855 0.92218 0.0
H594 H 0.7248 0.73752 0.8244 0.0
H595 H 0.69298 0.71062 0.82983 0.0
C596 C 0.13196 0.08424 0.3833 0.0
C597 C 0.10745 0.09345 0.40124 0.0
C598 C 0.15062 0.09914 0.37973 0.0
C599 C 0.14466 0.12388 0.39445 0.0
C600 C 0.12015 0.13309 0.41292 0.0
C601 C 0.10188 0.11778 0.4161 0.0
C602 C 0.1766 0.08857 0.35998 0.0
C603 C 0.11301 0.15941 0.42893 0.0
C604 C 0.20007 0.15271 0.40802 0.0
C605 C 0.19749 0.17466 0.38484 0.0
C606 C 0.18349 0.13555 0.41095 0.0
C607 C 0.16379 0.14047 0.39023 0.0
C608 C 0.16158 0.16208 0.36627 0.0
C609 C 0.17846 0.1789 0.36385 0.0
C610 C 0.1866 0.11259 0.43666 0.0
C611 C 0.14082 0.16801 0.34373 0.0
H612 H 0.13658 0.06529 0.37208 0.0
H613 H 0.08289 0.1253 0.42963 0.0
H614 H 0.17797 0.10434 0.34065 0.0
H615 H 0.1939 0.08528 0.3734 0.0
H616 H 0.17845 0.06868 0.35061 0.0
H617 H 0.0934 0.16342 0.44297 0.0
H618 H 0.12875 0.15802 0.44398 0.0
H619 H 0.11211 0.17753 0.41184 0.0
H620 H 0.21499 0.14907 0.42405 0.0
H621 H 0.17612 0.196 0.3461 0.0
H622 H 0.18955 0.09237 0.42751 0.0
H623 H 0.16803 0.11684 0.45253 0.0
H624 H 0.20379 0.11055 0.44984 0.0
H625 H 0.14277 0.14882 0.33291 0.0
H626 H 0.14263 0.1846 0.32548 0.0
H627 H 0.12041 0.17466 0.35587 0.0
C628 C 0.96868 0.10515 0.33426 0.0
C629 C 0.99211 0.11305 0.33166 0.0
C630 C 0.94325 0.12523 0.33235 0.0
C631 C 0.94115 0.15393 0.32726 0.0
C632 C 0.96483 0.16192 0.32338 0.0
C633 C 0.98993 0.14146 0.32587 0.0
C634 C 0.91855 0.11578 0.33678 0.0
C635 C 0.96363 0.19219 0.31728 0.0
C636 C 0.87779 0.20572 0.29722 0.0
C637 C 0.86433 0.21863 0.32353 0.0
C638 C 0.90257 0.18456 0.29817 0.0
C639 C 0.91424 0.17566 0.3262 0.0
C640 C 0.90055 0.18816 0.35301 0.0
C641 C 0.87588 0.2096 0.35132 0.0
C642 C 0.91656 0.17218 0.26896 0.0
C643 C 0.91213 0.17909 0.38344 0.0
H644 H 0.97006 0.08331 0.33907 0.0
H645 H 1.00789 0.1478 0.3238 0.0
H646 H 0.90567 0.12447 0.35724 0.0
H647 H 0.90656 0.12377 0.31689 0.0
H648 H 0.92358 0.0927 0.33975 0.0
H649 H 0.9839 0.19489 0.31333 0.0
H650 H 0.95256 0.20184 0.29697 0.0
H651 H 0.95251 0.20376 0.33698 0.0
H652 H 0.86929 0.21258 0.2755 0.0
H653 H 0.86572 0.21936 0.37178 0.0
H654 H 0.92077 0.14923 0.27166 0.0
H655 H 0.93615 0.17629 0.26377 0.0
H656 H 0.90452 0.18085 0.24916 0.0
H657 H 0.91626 0.15627 0.38872 0.0
H658 H 0.89848 0.18988 0.40238 0.0
H659 H 0.93153 0.18348 0.38241 0.0
C660 C 0.96077 0.99028 0.37243 0.0
C661 C 0.97892 0.97952 0.39482 0.0
C662 C 0.94402 0.97552 0.36583 0.0
C663 C 0.9453 0.94943 0.38215 0.0
C664 C 0.96316 0.93869 0.40519 0.0
C665 C 0.97976 0.95384 0.41122 0.0
C666 C 0.92517 0.98772 0.34118 0.0
C667 C 0.965 0.91097 0.4232 0.0
C668 C 0.88678 0.9206 0.38586 0.0
C669 C 0.89637 0.90017 0.36503 0.0
C670 C 0.90227 0.93713 0.39123 0.0
C671 C 0.92795 0.93331 0.37522 0.0
C672 C 0.93739 0.91344 0.35336 0.0
C673 C 0.92149 0.89707 0.34854 0.0
C674 C 0.89145 0.95817 0.41463 0.0
C675 C 0.9646 0.90891 0.33569 0.0
H676 H 0.95965 0.0103 0.36 0.0
H677 H 0.9939 0.94518 0.42826 0.0
H678 H 0.92987 0.97335 0.32291 0.0
H679 H 0.90418 0.99013 0.35075 0.0
H680 H 0.92647 0.00836 0.33076 0.0
H681 H 0.97955 0.90578 0.44074 0.0
H682 H 0.94502 0.9112 0.43474 0.0
H683 H 0.97122 0.89416 0.40752 0.0
H684 H 0.86717 0.92346 0.39828 0.0
H685 H 0.92914 0.88118 0.33261 0.0
H686 H 0.89158 0.97916 0.40425 0.0
H687 H 0.90454 0.95255 0.43366 0.0
H688 H 0.87067 0.95935 0.42423 0.0
H689 H 0.96638 0.92894 0.32398 0.0
H690 H 0.96838 0.89374 0.31836 0.0
H691 H 0.98051 0.90106 0.35166 0.0
C692 C 0.11403 0.95691 0.33405 0.0
C693 C 0.11734 0.98262 0.32179 0.0
C694 C 0.13531 0.93189 0.33218 0.0
C695 C 0.16068 0.93241 0.31774 0.0
C696 C 0.16397 0.95813 0.30444 0.0
C697 C 0.14229 0.98289 0.30661 0.0
C698 C 0.1308 0.90496 0.34643 0.0
C699 C 0.19064 0.95962 0.28868 0.0
C700 C 0.22268 0.87368 0.34132 0.0
C701 C 0.22845 0.85674 0.31703 0.0
C702 C 0.20072 0.89826 0.34182 0.0
C703 C 0.18397 0.90619 0.31752 0.0
C704 C 0.18943 0.88899 0.29316 0.0
C705 C 0.21155 0.86457 0.29319 0.0
C706 C 0.19566 0.91597 0.36823 0.0
C707 C 0.17208 0.89656 0.26685 0.0
H708 H 0.09487 0.95634 0.34576 0.0
H709 H 0.14516 1.00256 0.29708 0.0
H710 H 0.1366 0.88933 0.32939 0.0
H711 H 0.14369 0.89624 0.36547 0.0
H712 H 0.10957 0.90784 0.35545 0.0
H713 H 0.18963 0.98094 0.27828 0.0
H714 H 0.20597 0.95306 0.30537 0.0
H715 H 0.19756 0.94504 0.27051 0.0
H716 H 0.2356 0.86802 0.35977 0.0
H717 H 0.21578 0.85178 0.27422 0.0
H718 H 0.17519 0.91842 0.37967 0.0
H719 H 0.19667 0.93712 0.35968 0.0
H720 H 0.2104 0.90688 0.38545 0.0
H721 H 0.15088 0.89892 0.27551 0.0
H722 H 0.17859 0.88066 0.25003 0.0
H723 H 0.17271 0.9169 0.25491 0.0
C724 C 0.14032 0.97988 0.75965 0.0
C725 C 0.11394 0.9803 0.76983 0.0
C726 C 0.16236 0.95729 0.7681 0.0
C727 C 0.15798 0.93417 0.78681 0.0
C728 C 0.13143 0.93504 0.79847 0.0
C729 C 0.10965 0.95827 0.79001 0.0
C730 C 0.19027 0.95758 0.75563 0.0
C731 C 0.12591 0.91076 0.81837 0.0
C732 C 0.21159 0.86488 0.77377 0.0
C733 C 0.22675 0.86087 0.79871 0.0
C734 C 0.1888 0.88826 0.77015 0.0
C735 C 0.18105 0.90836 0.79181 0.0
C736 C 0.19629 0.90449 0.81702 0.0
C737 C 0.21885 0.88077 0.82024 0.0
C738 C 0.17303 0.89148 0.74302 0.0
C739 C 0.18895 0.92555 0.84041 0.0
H740 H 0.14372 0.997 0.74422 0.0
H741 H 0.08928 0.95844 0.79771 0.0
H742 H 0.20374 0.95207 0.77428 0.0
H743 H 0.1987 0.94172 0.73894 0.0
H744 H 0.19045 0.97822 0.74403 0.0
H745 H 0.10466 0.91578 0.82815 0.0
H746 H 0.13051 0.8927 0.80463 0.0
H747 H 0.13907 0.90424 0.83734 0.0
H748 H 0.21727 0.84952 0.75721 0.0
H749 H 0.23032 0.87784 0.83971 0.0
H750 H 0.17374 0.91056 0.72819 0.0
H751 H 0.15165 0.89397 0.75085 0.0
H752 H 0.18089 0.87336 0.72908 0.0
H753 H 0.19023 0.94594 0.82925 0.0
H754 H 0.20229 0.91901 0.85927 0.0
H755 H 0.16792 0.92879 0.85032 0.0
C756 C 0.11873 0.1151 0.7004 0.0
C757 C 0.099 0.10969 0.72238 0.0
C758 C 0.13525 0.13016 0.70695 0.0
C759 C 0.13195 0.14005 0.73616 0.0
C760 C 0.11178 0.13509 0.75825 0.0
C761 C 0.09553 0.12005 0.75106 0.0
C762 C 0.15654 0.13509 0.68278 0.0
C763 C 0.10757 0.14539 0.7896 0.0
C764 C 0.19154 0.15458 0.7626 0.0
C765 C 0.18499 0.18359 0.75631 0.0
C766 C 0.17429 0.14019 0.75651 0.0
C767 C 0.14992 0.15517 0.7438 0.0
C768 C 0.1429 0.18451 0.73804 0.0
C769 C 0.1605 0.19837 0.7444 0.0
C770 C 0.18243 0.10888 0.76307 0.0
C771 C 0.11702 0.20122 0.72466 0.0
H772 H 0.12171 0.10697 0.67833 0.0
H773 H 0.08002 0.11644 0.76798 0.0
H774 H 0.15388 0.15774 0.6783 0.0
H775 H 0.17669 0.12504 0.691 0.0
H776 H 0.15602 0.12672 0.66093 0.0
H777 H 0.09066 0.14024 0.80399 0.0
H778 H 0.12608 0.13596 0.80149 0.0
H779 H 0.10348 0.16832 0.78758 0.0
H780 H 0.21058 0.14297 0.77141 0.0
H781 H 0.15517 0.22083 0.73985 0.0
H782 H 0.18467 0.099 0.74151 0.0
H783 H 0.16657 0.10274 0.77845 0.0
H784 H 0.20163 0.10044 0.77385 0.0
H785 H 0.11676 0.19453 0.70183 0.0
H786 H 0.11422 0.22398 0.72224 0.0
H787 H 0.09969 0.19732 0.73933 0.0
C788 C 0.96323 0.10746 0.79045 0.0
C789 C 0.97045 0.10321 0.75943 0.0
C790 C 0.94118 0.1302 0.79958 0.0
C791 C 0.92623 0.14913 0.77713 0.0
C792 C 0.93333 0.14468 0.7459 0.0
C793 C 0.95516 0.12184 0.7375 0.0
C794 C 0.934 0.13412 0.83314 0.0
C795 C 0.91801 0.16427 0.72116 0.0
C796 C 0.85489 0.19653 0.79246 0.0
C797 C 0.85885 0.22259 0.79253 0.0
C798 C 0.8767 0.17217 0.7893 0.0
C799 C 0.9032 0.17385 0.78572 0.0
C800 C 0.90736 0.19994 0.78677 0.0
C801 C 0.88515 0.22395 0.79035 0.0
C802 C 0.87134 0.14475 0.78882 0.0
C803 C 0.93526 0.20268 0.78288 0.0
H804 H 0.97488 0.0932 0.80754 0.0
H805 H 0.96042 0.11886 0.71345 0.0
H806 H 0.93573 0.15438 0.83789 0.0
H807 H 0.91284 0.13471 0.83966 0.0
H808 H 0.94713 0.11723 0.84778 0.0
H809 H 0.92612 0.15787 0.69789 0.0
H810 H 0.89659 0.16512 0.72464 0.0
H811 H 0.91879 0.18568 0.72235 0.0
H812 H 0.83466 0.19511 0.7949 0.0
H813 H 0.88841 0.24393 0.79069 0.0
H814 H 0.88326 0.12876 0.80527 0.0
H815 H 0.87767 0.13718 0.76578 0.0
H816 H 0.84979 0.14654 0.79454 0.0
H817 H 0.94824 0.1871 0.79877 0.0
H818 H 0.93525 0.22382 0.787 0.0
H819 H 0.94437 0.19844 0.7593 0.0
C820 C 0.96062 0.99143 0.71995 0.0
C821 C 0.98701 0.97943 0.70746 0.0
C822 C 0.94156 0.97708 0.72259 0.0
C823 C 0.94916 0.94991 0.71283 0.0
C824 C 0.97572 0.93778 0.69995 0.0
C825 C 0.99427 0.95276 0.69725 0.0
C826 C 0.91335 0.9909 0.73603 0.0
C827 C 0.98471 0.90873 0.68961 0.0
C828 C 0.90897 0.90139 0.74711 0.0
C829 C 0.89347 0.9021 0.7233 0.0
C830 C 0.92707 0.91691 0.74404 0.0
C831 C 0.92952 0.93391 0.71666 0.0
C832 C 0.91357 0.93522 0.69279 0.0
C833 C 0.89589 0.91918 0.69631 0.0
C834 C 0.9438 0.91485 0.76999 0.0
C835 C 0.91543 0.9533 0.66335 0.0
H836 H 0.95486 0.01216 0.72753 0.0
H837 H 1.01471 0.94325 0.68795 0.0
H838 H 0.89874 0.99163 0.71976 0.0
H839 H 0.90864 0.97853 0.7572 0.0
H840 H 0.91042 0.01246 0.74158 0.0
H841 H 1.00594 0.90246 0.67965 0.0
H842 H 0.98252 0.89354 0.70927 0.0
H843 H 0.97182 0.9074 0.67229 0.0
H844 H 0.90694 0.8887 0.76827 0.0
H845 H 0.88436 0.91962 0.67758 0.0
H846 H 0.93998 0.93577 0.77785 0.0
H847 H 0.96544 0.9071 0.76199 0.0
H848 H 0.93951 0.90066 0.78977 0.0
H849 H 0.91182 0.97515 0.66826 0.0
H850 H 0.90078 0.953 0.64757 0.0
H851 H 0.93593 0.94603 0.65158 0.0
C852 C 0.25593 0.15654 0.19623 0.0
C853 C 0.27494 0.13458 0.18172 0.0
C854 C 0.26382 0.17403 0.21268 0.0
C855 C 0.29144 0.16941 0.21492 0.0
C856 C 0.31078 0.14713 0.2006 0.0
C857 C 0.30231 0.13006 0.18402 0.0
C858 C 0.24252 0.19756 0.22756 0.0
C859 C 0.34039 0.14138 0.20277 0.0
C860 C 0.30766 0.2335 0.23118 0.0
C861 C 0.3073 0.2302 0.26317 0.0
C862 C 0.3038 0.21322 0.21506 0.0
C863 C 0.29984 0.18878 0.2312 0.0
C864 C 0.30126 0.18442 0.26324 0.0
C865 C 0.30486 0.20524 0.27888 0.0
C866 C 0.302 0.21894 0.18098 0.0
C867 C 0.29735 0.15855 0.28129 0.0
H868 H 0.2348 0.16035 0.19428 0.0
H869 H 0.31708 0.11291 0.17324 0.0
H870 H 0.22209 0.1995 0.22179 0.0
H871 H 0.24281 0.19398 0.25275 0.0
H872 H 0.24662 0.21764 0.22043 0.0
H873 H 0.35284 0.12268 0.19125 0.0
H874 H 0.34663 0.1596 0.19222 0.0
H875 H 0.34458 0.13826 0.22711 0.0
H876 H 0.30954 0.25265 0.21873 0.0
H877 H 0.3045 0.20244 0.30358 0.0
H878 H 0.28097 0.22274 0.176 0.0
H879 H 0.31469 0.20065 0.16902 0.0
H880 H 0.30826 0.23743 0.17139 0.0
H881 H 0.27592 0.15964 0.28262 0.0
H882 H 0.30319 0.15624 0.30494 0.0
H883 H 0.30925 0.13966 0.26982 0.0
C884 C 0.95299 0.35211 0.17581 0.0
C885 C 0.97097 0.33207 0.1577 0.0
C886 C 0.93012 0.34728 0.19268 0.0
C887 C 0.9249 0.32169 0.19171 0.0
C888 C 0.94264 0.30159 0.17303 0.0
C889 C 0.96529 0.30702 0.15628 0.0
C890 C 0.91182 0.36938 0.21216 0.0
C891 C 0.93803 0.274 0.17125 0.0
C892 C 0.88394 0.2983 0.26119 0.0
C893 C 0.85833 0.30493 0.25093 0.0
C894 C 0.90572 0.30307 0.24201 0.0
C895 C 0.90193 0.31532 0.21173 0.0
C896 C 0.87618 0.32184 0.20105 0.0
C897 C 0.85477 0.31631 0.22064 0.0
C898 C 0.93281 0.29515 0.25433 0.0
C899 C 0.87111 0.33517 0.1691 0.0
H900 H 0.95707 0.37143 0.17743 0.0
H901 H 0.97855 0.29152 0.142 0.0
H902 H 0.89077 0.37441 0.20667 0.0
H903 H 0.91248 0.36142 0.23663 0.0
H904 H 0.91753 0.38886 0.20892 0.0
H905 H 0.95276 0.26119 0.15446 0.0
H906 H 0.93954 0.26203 0.19403 0.0
H907 H 0.91752 0.27743 0.16478 0.0
H908 H 0.8871 0.28913 0.28439 0.0
H909 H 0.8351 0.32157 0.21249 0.0
H910 H 0.93902 0.31404 0.25442 0.0
H911 H 0.94815 0.28091 0.23934 0.0
H912 H 0.93274 0.28474 0.27792 0.0
H913 H 0.87494 0.35563 0.16615 0.0
H914 H 0.85021 0.33843 0.16394 0.0
H915 H 0.88514 0.32199 0.15214 0.0
C916 C 0.83126 0.90515 0.11927 0.0
C917 C 0.81148 0.92363 0.10182 0.0
C918 C 0.82431 0.88985 0.14589 0.0
C919 C 0.7969 0.89333 0.15556 0.0
C920 C 0.77684 0.91183 0.1381 0.0
C921 C 0.78436 0.92654 0.11136 0.0
C922 C 0.84636 0.87039 0.16398 0.0
C923 C 0.74741 0.9163 0.14784 0.0
C924 C 0.78282 0.83501 0.21053 0.0
C925 C 0.78284 0.84469 0.23878 0.0
C926 C 0.78642 0.85107 0.18311 0.0
C927 C 0.78934 0.87771 0.18413 0.0
C928 C 0.78717 0.88845 0.21267 0.0
C929 C 0.78435 0.87161 0.23969 0.0
C930 C 0.78938 0.83855 0.15319 0.0
C931 C 0.78947 0.91702 0.21473 0.0
H932 H 0.8522 0.90294 0.11245 0.0
H933 H 0.76883 0.94022 0.09788 0.0
H934 H 0.84655 0.87937 0.18549 0.0
H935 H 0.84282 0.84994 0.17036 0.0
H936 H 0.86643 0.86693 0.15109 0.0
H937 H 0.73424 0.93174 0.13193 0.0
H938 H 0.74287 0.8963 0.14907 0.0
H939 H 0.74238 0.92368 0.17104 0.0
H940 H 0.7823 0.81393 0.20976 0.0
H941 H 0.78459 0.87899 0.26157 0.0
H942 H 0.81054 0.83392 0.14317 0.0
H943 H 0.77668 0.85351 0.13658 0.0
H944 H 0.78392 0.81893 0.15608 0.0
H945 H 0.81048 0.91685 0.20793 0.0
H946 H 0.78372 0.92372 0.23823 0.0
H947 H 0.77657 0.93268 0.1988 0.0
C948 C 0.11729 0.73911 0.07657 0.0
C949 C 0.10828 0.71569 0.08368 0.0
C950 C 0.1377 0.74245 0.09157 0.0
C951 C 0.14939 0.72191 0.11462 0.0
C952 C 0.14114 0.69768 0.12132 0.0
C953 C 0.12055 0.69492 0.10583 0.0
C954 C 0.14571 0.7687 0.08381 0.0
C955 C 0.15338 0.6752 0.14557 0.0
C956 C 0.21407 0.72573 0.14035 0.0
C957 C 0.20465 0.7398 0.16688 0.0
C958 C 0.19644 0.71914 0.12349 0.0
C959 C 0.16868 0.72705 0.13317 0.0
C960 C 0.15901 0.74138 0.15978 0.0
C961 C 0.1771 0.74744 0.17637 0.0
C962 C 0.20747 0.70387 0.09521 0.0
C963 C 0.12948 0.75047 0.17066 0.0
H964 H 0.10736 0.75572 0.0604 0.0
H965 H 0.11361 0.67683 0.11144 0.0
H966 H 0.14013 0.78127 0.10378 0.0
H967 H 0.16777 0.76344 0.07857 0.0
H968 H 0.13589 0.78177 0.06396 0.0
H969 H 0.14655 0.65659 0.14611 0.0
H970 H 0.1756 0.66869 0.14162 0.0
H971 H 0.14783 0.68348 0.16832 0.0
H972 H 0.23527 0.71998 0.13265 0.0
H973 H 0.16966 0.75777 0.19714 0.0
H974 H 0.19903 0.71719 0.07481 0.0
H975 H 0.20134 0.68473 0.09687 0.0
H976 H 0.22971 0.69793 0.09162 0.0
H977 H 0.11797 0.76496 0.15276 0.0
H978 H 0.12526 0.76108 0.19203 0.0
H979 H 0.12196 0.73216 0.17476 0.0
C980 C 0.2035 0.01463 0.03763 0.0
C981 C 0.22252 0.02885 0.02973 0.0
C982 C 0.20461 0.99174 0.02207 0.0
C983 C 0.22523 0.98313 0.9983 0.0
C984 C 0.24282 0.99915 0.98851 0.0
C985 C 0.24119 0.02183 1.00437 0.0
C986 C 0.18515 0.97552 0.03271 0.0
C987 C 0.26494 0.99092 0.96306 0.0
C988 C 0.26088 0.90771 0.98592 0.0
C989 C 0.2532 0.90595 0.9573 0.0
C990 C 0.25023 0.93221 1.00072 0.0
C991 C 0.23133 0.95545 0.98658 0.0
C992 C 0.2218 0.95301 0.95894 0.0
C993 C 0.23295 0.92826 0.94451 0.0
C994 C 0.26079 0.93387 0.03035 0.0
C995 C 0.20133 0.97715 0.94344 0.0
H996 H 0.18908 0.02008 0.0573 0.0
H997 H 0.25558 0.03322 0.99809 0.0
H998 H 0.17853 0.96872 0.01302 0.0
H999 H 0.19523 0.95652 0.04717 0.0
H1000 H 0.16722 0.98797 0.04642 0.0
H1001 H 0.27509 0.00714 0.95628 0.0
H1002 H 0.28018 0.97124 0.97062 0.0
H1003 H 0.25686 0.98709 0.94267 0.0
H1004 H 0.27607 0.89026 0.99619 0.0
H1005 H 0.22692 0.92703 0.92235 0.0
H1006 H 0.24398 0.94246 0.04763 0.0
H1007 H 0.27323 0.94817 0.02642 0.0
H1008 H 0.27328 0.9132 0.03985 0.0
H1009 H 0.1853 0.98808 0.96037 0.0
H1010 H 0.19201 0.97025 0.92601 0.0
H1011 H 0.21127 0.99242 0.93188 0.0
C1012 C 0.14922 0.29882 0.99401 0.0
C1013 C 0.13278 0.32626 0.99779 0.0
C1014 C 0.16906 0.29264 0.96922 0.0
C1015 C 0.17271 0.31436 0.94743 0.0
C1016 C 0.15578 0.342 0.95068 0.0
C1017 C 0.13614 0.3476 0.97574 0.0
C1018 C 0.18671 0.26289 0.9669 0.0
C1019 C 0.15884 0.36582 0.92802 0.0
C1020 C 0.24248 0.30291 0.90531 0.0
C1021 C 0.23948 0.29516 0.87688 0.0
C1022 C 0.22092 0.30952 0.92808 0.0
C1023 C 0.19543 0.30843 0.92261 0.0
C1024 C 0.19203 0.30112 0.89381 0.0
C1025 C 0.21405 0.29461 0.87131 0.0
C1026 C 0.2256 0.31723 0.9583 0.0
C1027 C 0.16525 0.29966 0.88699 0.0
H1028 H 0.14718 0.28215 0.01095 0.0
H1029 H 0.12339 0.3688 0.97809 0.0
H1030 H 0.18658 0.25638 0.94395 0.0
H1031 H 0.20775 0.26128 0.9698 0.0
H1032 H 0.18024 0.24812 0.98444 0.0
H1033 H 0.14312 0.38581 0.93263 0.0
H1034 H 0.17879 0.36849 0.92889 0.0
H1035 H 0.15789 0.36114 0.90447 0.0
H1036 H 0.26192 0.30356 0.91003 0.0
H1037 H 0.21142 0.28857 0.84958 0.0
H1038 H 0.22174 0.3019 0.97699 0.0
H1039 H 0.21141 0.33795 0.96323 0.0
H1040 H 0.24639 0.31787 0.95871 0.0
H1041 H 0.1595 0.28343 0.90294 0.0
H1042 H 0.16553 0.29471 0.8632 0.0
H1043 H 0.14948 0.31979 0.89064 0.0
C1044 C 0.7987 0.10734 0.95484 0.0
C1045 C 0.81998 0.08601 0.94213 0.0
C1046 C 0.79214 0.13475 0.94125 0.0
C1047 C 0.80729 0.1411 0.91429 0.0
C1048 C 0.82913 0.11982 0.90155 0.0
C1049 C 0.83528 0.09246 0.91573 0.0
C1050 C 0.76895 0.15691 0.95577 0.0
C1051 C 0.8458 0.12592 0.87282 0.0
C1052 C 0.77641 0.20658 0.86322 0.0
C1053 C 0.78913 0.22488 0.87097 0.0
C1054 C 0.78193 0.17928 0.87737 0.0
C1055 C 0.80051 0.17018 0.8998 0.0
C1056 C 0.81259 0.18888 0.90854 0.0
C1057 C 0.80672 0.21598 0.89407 0.0
C1058 C 0.76854 0.15991 0.86764 0.0
C1059 C 0.83235 0.18002 0.93253 0.0
H1060 H 0.78721 0.10262 0.97567 0.0
H1061 H 0.85164 0.07601 0.90583 0.0
H1062 H 0.77605 0.17374 0.96184 0.0
H1063 H 0.7537 0.16653 0.93927 0.0
H1064 H 0.75914 0.14846 0.97672 0.0
H1065 H 0.86208 0.10708 0.86582 0.0
H1066 H 0.83281 0.13439 0.85383 0.0
H1067 H 0.85493 0.14206 0.87632 0.0
H1068 H 0.763 0.21316 0.84522 0.0
H1069 H 0.81662 0.22998 0.90027 0.0
H1070 H 0.75796 0.15133 0.8878 0.0
H1071 H 0.78395 0.14202 0.85744 0.0
H1072 H 0.75387 0.17048 0.85067 0.0
H1073 H 0.82312 0.17192 0.9541 0.0
H1074 H 0.83928 0.19739 0.93745 0.0
H1075 H 0.85011 0.16284 0.92478 0.0
C1076 C 0.93578 0.77082 0.94868 0.0
C1077 C 0.95993 0.74935 0.94347 0.0
C1078 C 0.91441 0.77576 0.93037 0.0
C1079 C 0.91727 0.75901 0.90604 0.0
C1080 C 0.94178 0.73767 0.90036 0.0
C1081 C 0.96268 0.73308 0.91911 0.0
C1082 C 0.88862 0.79866 0.93735 0.0
C1083 C 0.94594 0.71955 0.87448 0.0
C1084 C 0.85498 0.75291 0.8753 0.0
C1085 C 0.85248 0.77166 0.84891 0.0
C1086 C 0.87574 0.74882 0.8942 0.0
C1087 C 0.89469 0.76364 0.88653 0.0
C1088 C 0.89241 0.7824 0.8598 0.0
C1089 C 0.87137 0.78624 0.84144 0.0
C1090 C 0.87731 0.72871 0.92253 0.0
C1091 C 0.91222 0.79848 0.85052 0.0
H1092 H 0.93333 0.78333 0.96756 0.0
H1093 H 0.98136 0.71677 0.9145 0.0
H1094 H 0.88393 0.81383 0.91699 0.0
H1095 H 0.87177 0.78973 0.94286 0.0
H1096 H 0.88961 0.81001 0.95683 0.0
H1097 H 0.96632 0.70414 0.87274 0.0
H1098 H 0.9309 0.70814 0.87776 0.0
H1099 H 0.94293 0.73272 0.85249 0.0
H1100 H 0.84046 0.74168 0.88149 0.0
H1101 H 0.86974 0.8008 0.82117 0.0
H1102 H 0.87638 0.73966 0.943 0.0
H1103 H 0.89677 0.71184 0.92127 0.0
H1104 H 0.86083 0.71914 0.92564 0.0
H1105 H 0.91199 0.81156 0.86888 0.0
H1106 H 0.90778 0.81216 0.829 0.0
H1107 H 0.93284 0.78381 0.84735 0.0
C1108 C 0.12601 0.30345 0.17683 0.0
C1109 C 0.137 0.28912 0.1507 0.0
C1110 C 0.14257 0.3066 0.19809 0.0
C1111 C 0.17091 0.29478 0.19361 0.0
C1112 C 0.18197 0.27947 0.16783 0.0
C1113 C 0.16504 0.27709 0.1467 0.0
C1114 C 0.12975 0.32325 0.22497 0.0
C1115 C 0.21184 0.26566 0.1624 0.0
C1116 C 0.21872 0.32259 0.23025 0.0
C1117 C 0.22571 0.30323 0.25575 0.0
C1118 C 0.20052 0.32048 0.2104 0.0
C1119 C 0.18909 0.29829 0.21569 0.0
C1120 C 0.19595 0.27882 0.2415 0.0
C1121 C 0.21388 0.2816 0.26113 0.0
C1122 C 0.19374 0.34194 0.18346 0.0
C1123 C 0.18439 0.25487 0.24851 0.0
H1124 H 0.10449 0.31314 0.18011 0.0
H1125 H 0.17389 0.26592 0.12674 0.0
H1126 H 0.13505 0.31017 0.24662 0.0
H1127 H 0.13758 0.34118 0.22428 0.0
H1128 H 0.10753 0.33124 0.22531 0.0
H1129 H 0.21733 0.25376 0.14189 0.0
H1130 H 0.22244 0.28162 0.15946 0.0
H1131 H 0.21919 0.25122 0.18255 0.0
H1132 H 0.22758 0.33937 0.22564 0.0
H1133 H 0.21897 0.26635 0.28058 0.0
H1134 H 0.17166 0.35145 0.1838 0.0
H1135 H 0.20079 0.33175 0.16189 0.0
H1136 H 0.20302 0.35876 0.1833 0.0
H1137 H 0.16291 0.26294 0.25701 0.0
H1138 H 0.19492 0.23908 0.26616 0.0
H1139 H 0.18544 0.24449 0.22759 0.0
C1140 C 0.09284 0.79739 0.94613 0.0
C1141 C 0.09443 0.78877 0.97745 0.0
C1142 C 0.11618 0.79731 0.92605 0.0
C1143 C 0.14212 0.78715 0.93699 0.0
C1144 C 0.14373 0.77788 0.96848 0.0
C1145 C 0.12011 0.77938 0.98815 0.0
C1146 C 0.11301 0.8085 0.89312 0.0
C1147 C 0.17057 0.76578 0.98147 0.0
C1148 C 0.20443 0.76172 0.87935 0.0
C1149 C 0.2168 0.78267 0.87784 0.0
C1150 C 0.18052 0.76274 0.89856 0.0
C1151 C 0.16757 0.78598 0.91582 0.0
C1152 C 0.17969 0.80757 0.91366 0.0
C1153 C 0.20426 0.80537 0.89536 0.0
C1154 C 0.1694 0.73857 0.90081 0.0
C1155 C 0.16648 0.83332 0.93035 0.0
H1156 H 0.07328 0.80476 0.93741 0.0
H1157 H 0.12191 0.77234 0.01206 0.0
H1158 H 0.12307 0.82484 0.88698 0.0
H1159 H 0.12286 0.7916 0.87798 0.0
H1160 H 0.0916 0.8175 0.88851 0.0
H1161 H 0.16861 0.75805 1.00598 0.0
H1162 H 0.18345 0.74826 0.96843 0.0
H1163 H 0.18107 0.78177 0.97918 0.0
H1164 H 0.21381 0.74411 0.86593 0.0
H1165 H 0.21327 0.82196 0.89401 0.0
H1166 H 0.14905 0.74571 0.89277 0.0
H1167 H 0.16744 0.73008 0.92502 0.0
H1168 H 0.1823 0.72151 0.8871 0.0
H1169 H 0.14541 0.8428 0.92464 0.0
H1170 H 0.17718 0.84918 0.92458 0.0
H1171 H 0.16588 0.82769 0.95537 0.0
C1172 C 0.31234 0.10684 1.00456 0.0
C1173 C 0.29379 0.12134 0.02706 0.0
C1174 C 0.31851 0.12075 0.97621 0.0
C1175 C 0.30598 0.14986 0.97024 0.0
C1176 C 0.28801 0.16465 0.99336 0.0
C1177 C 0.28216 0.15028 0.02125 0.0
C1178 C 0.33775 0.10414 0.95226 0.0
C1179 C 0.27425 0.19566 0.98835 0.0
C1180 C 0.33233 0.19582 0.90717 0.0
C1181 C 0.31413 0.2004 0.88503 0.0
C1182 C 0.33077 0.1784 0.93431 0.0
C1183 C 0.31058 0.16502 0.93963 0.0
C1184 C 0.29295 0.16854 0.91675 0.0
C1185 C 0.29489 0.18616 0.88989 0.0
C1186 C 0.34994 0.17542 0.95798 0.0
C1187 C 0.27118 0.15468 0.92121 0.0
H1188 H 0.32132 0.08449 1.00866 0.0
H1189 H 0.26791 0.16183 0.03844 0.0
H1190 H 0.32689 0.10427 0.93234 0.0
H1191 H 0.35374 0.11383 0.94393 0.0
H1192 H 0.34725 0.08216 0.96102 0.0
H1193 H 0.26183 0.20435 1.0091 0.0
H1194 H 0.28936 0.20679 0.9815 0.0
H1195 H 0.2611 0.20005 0.96949 0.0
H1196 H 0.34729 0.20664 0.90386 0.0
H1197 H 0.28073 0.18935 0.87305 0.0
H1198 H 0.35912 0.15313 0.96567 0.0
H1199 H 0.33878 0.186 0.9783 0.0
H1200 H 0.3662 0.18466 0.94922 0.0
H1201 H 0.27967 0.13212 0.9282 0.0
H1202 H 0.26088 0.15715 0.90019 0.0
H1203 H 0.256 0.16393 0.93982 0.0
C1204 C 0.02944 0.28861 1.00598 0.0
C1205 C 0.02804 0.28277 0.03783 0.0
C1206 C 1.00996 0.28583 0.98872 0.0
C1207 C 0.98808 0.27734 1.00363 0.0
C1208 C 0.98758 0.26951 0.03561 0.0
C1209 C 1.00757 0.27233 0.05236 0.0
C1210 C 1.01165 0.2943 0.95481 0.0
C1211 C 0.9648 0.26026 0.05257 0.0
C1212 C 0.92254 0.30957 0.96588 0.0
C1213 C 0.92157 0.28814 0.94923 0.0
C1214 C 0.94354 0.30595 0.98424 0.0
C1215 C 0.96439 0.28019 0.98632 0.0
C1216 C 0.96334 0.25824 0.97007 0.0
C1217 C 0.9421 0.26249 0.95167 0.0
C1218 C 0.94377 0.33012 1.00079 0.0
C1219 C 0.98492 0.23039 0.97173 0.0
H1220 H 0.04494 0.29717 0.99472 0.0
H1221 H 1.00591 0.26853 0.07705 0.0
H1222 H 1.00831 0.27845 0.94202 0.0
H1223 H 0.99569 0.31424 0.9499 0.0
H1224 H 0.03137 0.29717 0.94611 0.0
H1225 H 0.96933 0.25083 0.07605 0.0
H1226 H 0.94646 0.27851 0.05428 0.0
H1227 H 0.96029 0.24493 0.04002 0.0
H1228 H 0.90717 0.32963 0.96392 0.0
H1229 H 0.94152 0.24563 0.93927 0.0
H1230 H 0.9616 0.33679 0.9919 0.0
H1231 H 0.94531 0.32365 0.02552 0.0
H1232 H 0.9255 0.34832 0.99808 0.0
H1233 H 1.00439 0.23292 0.96149 0.0
H1234 H 0.98035 0.21483 0.95955 0.0
H1235 H 0.98742 0.22211 0.99593 0.0
C1236 C 0.80702 0.93119 0.93412 0.0
C1237 C 0.78693 0.95355 0.94693 0.0
C1238 C 0.80119 0.9143 0.915 0.0
C1239 C 0.77448 0.9198 0.90798 0.0
C1240 C 0.75396 0.94239 0.92061 0.0
C1241 C 0.76039 0.95894 0.94012 0.0
C1242 C 0.82375 0.89028 0.90256 0.0
C1243 C 0.72529 0.94903 0.91351 0.0
C1244 C 0.77196 0.88475 0.83761 0.0
C1245 C 0.76861 0.85933 0.85083 0.0
C1246 C 0.77191 0.90562 0.85588 0.0
C1247 C 0.76852 0.901 0.88818 0.0
C1248 C 0.76352 0.8761 0.90152 0.0
C1249 C 0.76359 0.85569 0.88276 0.0
C1250 C 0.77716 0.93188 0.84063 0.0
C1251 C 0.75995 0.8701 0.93577 0.0
H1252 H 0.8276 0.92655 0.93927 0.0
H1253 H 0.74475 0.97616 0.94978 0.0
H1254 H 0.81953 0.87032 0.91022 0.0
H1255 H 0.82528 0.89253 0.87722 0.0
H1256 H 0.84347 0.88892 0.91004 0.0
H1257 H 0.71177 0.96764 0.92442 0.0
H1258 H 0.72412 0.95277 0.88844 0.0
H1259 H 0.71788 0.93098 0.92153 0.0
H1260 H 0.77574 0.88795 0.81301 0.0
H1261 H 0.76071 0.83631 0.89337 0.0
H1262 H 0.79778 0.9313 0.84418 0.0
H1263 H 0.76302 0.95048 0.85093 0.0
H1264 H 0.7753 0.93429 0.81566 0.0
H1265 H 0.77944 0.86594 0.94532 0.0
H1266 H 0.75272 0.85172 0.94247 0.0
H1267 H 0.74553 0.88837 0.94636 0.0
C1268 C 0.93435 0.79365 0.09308 0.0
C1269 C 0.96245 0.78337 0.09265 0.0
C1270 C 0.91742 0.79525 0.1207 0.0
C1271 C 0.92854 0.78519 0.14909 0.0
C1272 C 0.95701 0.77539 0.14884 0.0
C1273 C 0.97353 0.77488 0.12082 0.0
C1274 C 0.88748 0.80632 0.11885 0.0
C1275 C 0.97007 0.76361 0.178 0.0
C1276 C 0.88405 0.80161 0.2253 0.0
C1277 C 0.87364 0.77901 0.23137 0.0
C1278 C 0.90183 0.80399 0.1989 0.0
C1279 C 0.91044 0.78275 0.17833 0.0
C1280 C 0.90061 0.75948 0.18504 0.0
C1281 C 0.88218 0.75815 0.2109 0.0
C1282 C 0.91096 0.82958 0.19288 0.0
C1283 C 0.90926 0.73597 0.16454 0.0
H1284 H 0.92545 0.79963 0.07151 0.0
H1285 H 0.99512 0.76599 0.1208 0.0
H1286 H 0.88004 0.78905 0.11487 0.0
H1287 H 0.87665 0.81525 0.14013 0.0
H1288 H 0.88244 0.82259 0.09943 0.0
H1289 H 0.99232 0.7575 0.17436 0.0
H1290 H 0.96307 0.77911 0.19518 0.0
H1291 H 0.9641 0.745 0.18772 0.0
H1292 H 0.87744 0.8181 0.24054 0.0
H1293 H 0.87437 0.74057 0.21513 0.0
H1294 H 0.91137 0.83701 0.16823 0.0
H1295 H 0.93162 0.8244 0.19966 0.0
H1296 H 0.89779 0.84685 0.20613 0.0
H1297 H 0.90084 0.7435 0.14222 0.0
H1298 H 0.90243 0.71795 0.17456 0.0
H1299 H 0.93146 0.72874 0.16007 0.0
C1300 C 0.31037 0.96787 0.14388 0.0
C1301 C 0.28455 0.9868 0.14878 0.0
C1302 C 0.31721 0.94073 0.15929 0.0
C1303 C 0.29789 0.93237 0.18027 0.0
C1304 C 0.27181 0.95136 0.18498 0.0
C1305 C 0.26552 0.97805 0.16924 0.0
C1306 C 0.3452 0.9211 0.15344 0.0
C1307 C 0.25053 0.94375 0.20728 0.0
C1308 C 0.3016 0.85727 0.21034 0.0
C1309 C 0.30899 0.85585 0.24001 0.0
C1310 C 0.29953 0.88138 0.18981 0.0
C1311 C 0.30494 0.90469 0.19909 0.0
C1312 C 0.31383 0.90268 0.22838 0.0
C1313 C 0.31576 0.87845 0.24831 0.0
C1314 C 0.29016 0.88246 0.15876 0.0
C1315 C 0.31977 0.92684 0.2395 0.0
H1316 H 0.32521 0.97424 0.12807 0.0
H1317 H 0.24547 0.99229 0.17339 0.0
H1318 H 0.35555 0.91643 0.17466 0.0
H1319 H 0.34431 0.90104 0.14694 0.0
H1320 H 0.35736 0.92991 0.13509 0.0
H1321 H 0.23093 0.96052 0.2076 0.0
H1322 H 0.24752 0.92444 0.20137 0.0
H1323 H 0.25714 0.93954 0.23069 0.0
H1324 H 0.29636 0.84003 0.20354 0.0
H1325 H 0.32183 0.87765 0.27097 0.0
H1326 H 0.30292 0.89081 0.14077 0.0
H1327 H 0.26933 0.89674 0.15814 0.0
H1328 H 0.29046 0.86161 0.15326 0.0
H1329 H 0.33331 0.93484 0.22224 0.0
H1330 H 0.32917 0.92102 0.26143 0.0
H1331 H 0.30082 0.94415 0.24292 0.0
C1332 C 0.80636 0.0629 0.09059 0.0
C1333 C 0.78663 0.06077 0.07327 0.0
C1334 C 0.80174 0.08517 0.10844 0.0
C1335 C 0.77654 0.1061 0.10955 0.0
C1336 C 0.75615 0.10388 0.0928 0.0
C1337 C 0.76144 0.08125 0.07476 0.0
C1338 C 0.82416 0.08647 0.12578 0.0
C1339 C 0.72894 0.12564 0.09359 0.0
C1340 C 0.76511 0.1479 0.17841 0.0
C1341 C 0.77342 0.17097 0.166 0.0
C1342 C 0.76429 0.12758 0.15996 0.0
C1343 C 0.7722 0.13011 0.12822 0.0
C1344 C 0.77959 0.15393 0.11534 0.0
C1345 C 0.78001 0.17407 0.13431 0.0
C1346 C 0.75607 0.10275 0.17471 0.0
C1347 C 0.78843 0.15741 0.08172 0.0
H1348 H 0.82589 0.04721 0.08994 0.0
H1349 H 0.7461 0.07991 0.06144 0.0
H1350 H 0.82926 0.10597 0.11816 0.0
H1351 H 0.81761 0.0868 0.15056 0.0
H1352 H 0.84261 0.06851 0.1225 0.0
H1353 H 0.71478 0.12023 0.08074 0.0
H1354 H 0.72018 0.12819 0.11758 0.0
H1355 H 0.731 0.14607 0.08359 0.0
H1356 H 0.75939 0.14559 0.20273 0.0
H1357 H 0.78649 0.19175 0.12446 0.0
H1358 H 0.77384 0.08382 0.17464 0.0
H1359 H 0.74119 0.09901 0.16156 0.0
H1360 H 0.74732 0.1055 0.19871 0.0
H1361 H 0.80802 0.14148 0.07651 0.0
H1362 H 0.79066 0.17838 0.0746 0.0
H1363 H 0.77382 0.15411 0.06782 0.0
C1364 C 0.57948 0.62625 0.91881 0.0
C1365 C 0.58448 0.60419 0.9005 0.0
C1366 C 0.59635 0.64315 0.91547 0.0
C1367 C 0.61877 0.63782 0.89333 0.0
C1368 C 0.62392 0.61562 0.87476 0.0
C1369 C 0.60675 0.59907 0.87861 0.0
C1370 C 0.59022 0.66666 0.93568 0.0
C1371 C 0.6477 0.60918 0.851 0.0
C1372 C 0.65048 0.69509 0.86579 0.0
C1373 C 0.67278 0.68729 0.88285 0.0
C1374 C 0.63262 0.67929 0.86909 0.0
C1375 C 0.63719 0.65511 0.88993 0.0
C1376 C 0.65966 0.64712 0.90721 0.0
C1377 C 0.67718 0.66328 0.90343 0.0
C1378 C 0.60887 0.68844 0.85026 0.0
C1379 C 0.66529 0.62139 0.92954 0.0
H1380 H 0.56218 0.63052 0.93552 0.0
H1381 H 0.61107 0.58179 0.86474 0.0
H1382 H 0.60735 0.66356 0.94932 0.0
H1383 H 0.58751 0.68676 0.92144 0.0
H1384 H 0.57186 0.66823 0.95157 0.0
H1385 H 0.64861 0.59149 0.83804 0.0
H1386 H 0.64678 0.62778 0.83461 0.0
H1387 H 0.66659 0.60399 0.86214 0.0
H1388 H 0.64679 0.71379 0.8501 0.0
H1389 H 0.6946 0.65687 0.91634 0.0
H1390 H 0.58995 0.69201 0.86551 0.0
H1391 H 0.60982 0.67176 0.8358 0.0
H1392 H 0.60805 0.70785 0.83524 0.0
H1393 H 0.64786 0.62289 0.94683 0.0
H1394 H 0.6834 0.6183 0.94157 0.0
H1395 H 0.66825 0.60268 0.91736 0.0
C1396 C 0.43435 0.59017 0.86942 0.0
C1397 C 0.45937 0.58893 0.85345 0.0
C1398 C 0.41099 0.61165 0.86228 0.0
C1399 C 0.41258 0.63278 0.83876 0.0
C1400 C 0.43751 0.63079 0.8213 0.0
C1401 C 0.46064 0.60874 0.82874 0.0
C1402 C 0.3849 0.61263 0.88131 0.0
C1403 C 0.44011 0.65289 0.79605 0.0
C1404 C 0.34671 0.68446 0.81371 0.0
C1405 C 0.3434 0.7067 0.83134 0.0
C1406 C 0.36925 0.66039 0.81548 0.0
C1407 C 0.389 0.65848 0.83528 0.0
C1408 C 0.38565 0.68076 0.85321 0.0
C1409 C 0.36299 0.70443 0.85108 0.0
C1410 C 0.372 0.63704 0.79611 0.0
C1411 C 0.40607 0.67965 0.87475 0.0
H1412 H 0.43316 0.57473 0.88834 0.0
H1413 H 0.47992 0.60795 0.81639 0.0
H1414 H 0.37935 0.63008 0.89609 0.0
H1415 H 0.36845 0.61654 0.86643 0.0
H1416 H 0.3863 0.593 0.89613 0.0
H1417 H 0.45976 0.64659 0.78214 0.0
H1418 H 0.42381 0.65753 0.7808 0.0
H1419 H 0.43812 0.67247 0.80612 0.0
H1420 H 0.33191 0.68599 0.79817 0.0
H1421 H 0.36084 0.72137 0.86481 0.0
H1422 H 0.3729 0.61754 0.81094 0.0
H1423 H 0.39105 0.63303 0.78106 0.0
H1424 H 0.35508 0.64177 0.78167 0.0
H1425 H 0.40751 0.66183 0.89238 0.0
H1426 H 0.40093 0.69905 0.88645 0.0
H1427 H 0.42618 0.67628 0.86204 0.0
C1428 C 0.4936 0.43119 0.91745 0.0
C1429 C 0.48559 0.45931 0.90606 0.0
C1430 C 0.47901 0.41344 0.91296 0.0
C1431 C 0.45578 0.42417 0.8969 0.0
C1432 C 0.44729 0.45266 0.8859 0.0
C1433 C 0.46233 0.46987 0.89059 0.0
C1434 C 0.48868 0.38313 0.92496 0.0
C1435 C 0.42245 0.46494 0.86899 0.0
C1436 C 0.43179 0.3735 0.86054 0.0
C1437 C 0.41135 0.36963 0.8824 0.0
C1438 C 0.44641 0.39126 0.86492 0.0
C1439 C 0.44027 0.40559 0.89168 0.0
C1440 C 0.41932 0.40214 0.91353 0.0
C1441 C 0.40515 0.38418 0.90864 0.0
C1442 C 0.46867 0.39441 0.84115 0.0
C1443 C 0.41198 0.4173 0.94217 0.0
H1444 H 0.51172 0.42289 0.9291 0.0
H1445 H 0.45587 0.49169 0.88215 0.0
H1446 H 0.47271 0.37767 0.9408 0.0
H1447 H 0.49317 0.36975 0.90577 0.0
H1448 H 0.50699 0.37813 0.93721 0.0
H1449 H 0.41839 0.48761 0.86229 0.0
H1450 H 0.42471 0.45415 0.84806 0.0
H1451 H 0.40475 0.46172 0.88346 0.0
H1452 H 0.43675 0.36213 0.84035 0.0
H1453 H 0.38907 0.38157 0.92537 0.0
H1454 H 0.48802 0.38761 0.85158 0.0
H1455 H 0.46483 0.41665 0.83249 0.0
H1456 H 0.47074 0.38204 0.82149 0.0
H1457 H 0.42949 0.41135 0.95584 0.0
H1458 H 0.39488 0.41264 0.95666 0.0
H1459 H 0.40658 0.44013 0.93608 0.0
C1460 C 0.63853 0.48129 0.85184 0.0
C1461 C 0.61272 0.4809 0.84786 0.0
C1462 C 0.66128 0.45848 0.84547 0.0
C1463 C 0.6581 0.43422 0.83591 0.0
C1464 C 0.63209 0.43405 0.83098 0.0
C1465 C 0.60972 0.45758 0.83664 0.0
C1466 C 0.68862 0.46002 0.85003 0.0
C1467 C 0.62773 0.40847 0.82133 0.0
C1468 C 0.71855 0.37967 0.80041 0.0
C1469 C 0.72678 0.36049 0.82565 0.0
C1470 C 0.69654 0.4039 0.80346 0.0
C1471 C 0.68182 0.40873 0.83233 0.0
C1472 C 0.69004 0.38934 0.85792 0.0
C1473 C 0.7127 0.36567 0.85436 0.0
C1474 C 0.68924 0.42444 0.77584 0.0
C1475 C 0.67462 0.3934 0.88897 0.0
H1476 H 0.64085 0.49928 0.86067 0.0
H1477 H 0.58973 0.45703 0.83414 0.0
H1478 H 0.69674 0.44534 0.86972 0.0
H1479 H 0.70282 0.4537 0.8296 0.0
H1480 H 0.68797 0.4813 0.85443 0.0
H1481 H 0.6065 0.41201 0.81732 0.0
H1482 H 0.64065 0.4019 0.80013 0.0
H1483 H 0.63355 0.39098 0.83934 0.0
H1484 H 0.72962 0.37589 0.7782 0.0
H1485 H 0.71892 0.35078 0.87384 0.0
H1486 H 0.69043 0.44502 0.78027 0.0
H1487 H 0.66826 0.42746 0.77133 0.0
H1488 H 0.70266 0.41754 0.755 0.0
H1489 H 0.67496 0.41308 0.89703 0.0
H1490 H 0.68296 0.37595 0.90626 0.0
H1491 H 0.65329 0.3952 0.88743 0.0
C1492 C 0.64738 0.47354 0.24454 0.0
C1493 C 0.62358 0.48195 0.26388 0.0
C1494 C 0.66938 0.45117 0.25354 0.0
C1495 C 0.66771 0.43657 0.2827 0.0
C1496 C 0.64417 0.44559 0.30293 0.0
C1497 C 0.62235 0.46828 0.2933 0.0
C1498 C 0.69405 0.44247 0.23124 0.0
C1499 C 0.64165 0.43061 0.33423 0.0
C1500 C 0.71174 0.36096 0.28616 0.0
C1501 C 0.73446 0.36209 0.29875 0.0
C1502 C 0.68953 0.3848 0.28199 0.0
C1503 C 0.68985 0.41061 0.29061 0.0
C1504 C 0.71238 0.41184 0.30404 0.0
C1505 C 0.73442 0.3876 0.30793 0.0
C1506 C 0.666 0.38249 0.26749 0.0
C1507 C 0.71351 0.43891 0.3136 0.0
H1508 H 0.64872 0.48417 0.22189 0.0
H1509 H 0.60407 0.47465 0.30839 0.0
H1510 H 0.71226 0.44114 0.24215 0.0
H1511 H 0.69654 0.42144 0.22441 0.0
H1512 H 0.69288 0.45715 0.21029 0.0
H1513 H 0.6233 0.44175 0.34831 0.0
H1514 H 0.64091 0.40937 0.33195 0.0
H1515 H 0.65946 0.42818 0.34648 0.0
H1516 H 0.71132 0.34141 0.27918 0.0
H1517 H 0.7517 0.38874 0.31795 0.0
H1518 H 0.6642 0.39498 0.24501 0.0
H1519 H 0.64706 0.39108 0.28197 0.0
H1520 H 0.66805 0.36061 0.26396 0.0
H1521 H 0.71433 0.45368 0.29309 0.0
H1522 H 0.73128 0.43596 0.32617 0.0
H1523 H 0.69509 0.44874 0.32831 0.0
C1524 C 0.60838 0.63661 0.19199 0.0
C1525 C 0.61144 0.6109 0.20929 0.0
C1526 C 0.62478 0.65297 0.19507 0.0
C1527 C 0.64473 0.64333 0.21589 0.0
C1528 C 0.64807 0.61729 0.2332 0.0
C1529 C 0.63143 0.6014 0.22965 0.0
C1530 C 0.62065 0.68064 0.17623 0.0
C1531 C 0.66924 0.60618 0.2555 0.0
C1532 C 0.7046 0.67066 0.20619 0.0
C1533 C 0.69787 0.68938 0.22885 0.0
C1534 C 0.68718 0.65608 0.20122 0.0
C1535 C 0.66244 0.66022 0.21942 0.0
C1536 C 0.65525 0.67946 0.24194 0.0
C1537 C 0.67307 0.69381 0.2464 0.0
C1538 C 0.69561 0.63567 0.17706 0.0
C1539 C 0.629 0.68445 0.26176 0.0
H1540 H 0.59279 0.64424 0.17649 0.0
H1541 H 0.63421 0.58137 0.24272 0.0
H1542 H 0.61566 0.69768 0.19148 0.0
H1543 H 0.63946 0.6809 0.16202 0.0
H1544 H 0.60434 0.6851 0.16098 0.0
H1545 H 0.66913 0.58561 0.26734 0.0
H1546 H 0.68941 0.60401 0.24335 0.0
H1547 H 0.66599 0.62109 0.27296 0.0
H1548 H 0.7239 0.66674 0.19287 0.0
H1549 H 0.66762 0.70845 0.26372 0.0
H1550 H 0.67988 0.64047 0.16102 0.0
H1551 H 0.69797 0.61425 0.18795 0.0
H1552 H 0.71484 0.63598 0.16375 0.0
H1553 H 0.61201 0.69047 0.24728 0.0
H1554 H 0.62585 0.70102 0.27726 0.0
H1555 H 0.62852 0.66492 0.27582 0.0
C1556 C 0.46716 0.63052 0.24518 0.0
C1557 C 0.48464 0.61236 0.26548 0.0
C1558 C 0.44719 0.65437 0.25471 0.0
C1559 C 0.44432 0.66048 0.28549 0.0
C1560 C 0.46201 0.64248 0.30619 0.0
C1561 C 0.48202 0.61858 0.29594 0.0
C1562 C 0.42874 0.67278 0.23181 0.0
C1563 C 0.45955 0.64828 0.33919 0.0
C1564 C 0.40046 0.73507 0.2962 0.0
C1565 C 0.37508 0.73136 0.30255 0.0
C1566 C 0.4237 0.71193 0.29263 0.0
C1567 C 0.42139 0.6846 0.29586 0.0
C1568 C 0.39597 0.68082 0.30455 0.0
C1569 C 0.37321 0.70417 0.30767 0.0
C1570 C 0.45046 0.71685 0.28352 0.0
C1571 C 0.39246 0.65216 0.30862 0.0
H1572 H 0.46895 0.6261 0.22156 0.0
H1573 H 0.49551 0.60481 0.31174 0.0
H1574 H 0.40782 0.67275 0.23888 0.0
H1575 H 0.42899 0.69461 0.23102 0.0
H1576 H 0.43443 0.66585 0.2084 0.0
H1577 H 0.47595 0.63346 0.35187 0.0
H1578 H 0.45983 0.66983 0.34067 0.0
H1579 H 0.44006 0.64677 0.35063 0.0
H1580 H 0.40202 0.75602 0.29252 0.0
H1581 H 0.3537 0.70111 0.31346 0.0
H1582 H 0.45658 0.71316 0.25912 0.0
H1583 H 0.46616 0.70204 0.29708 0.0
H1584 H 0.44967 0.73848 0.28658 0.0
H1585 H 0.39673 0.64321 0.28624 0.0
H1586 H 0.3718 0.65264 0.31803 0.0
H1587 H 0.40686 0.63796 0.32412 0.0
C1588 C 0.46832 0.49203 0.24146 0.0
C1589 C 0.49084 0.4845 0.22009 0.0
C1590 C 0.44918 0.47764 0.24561 0.0
C1591 C 0.45257 0.45517 0.22794 0.0
C1592 C 0.4753 0.44736 0.20646 0.0
C1593 C 0.49412 0.46206 0.20284 0.0
C1594 C 0.42522 0.48663 0.26874 0.0
C1595 C 0.4797 0.42348 0.1872 0.0
C1596 C 0.41636 0.4012 0.25434 0.0
C1597 C 0.39501 0.40968 0.23574 0.0
C1598 C 0.43494 0.41609 0.25248 0.0
C1599 C 0.43219 0.44003 0.23147 0.0
C1600 C 0.41043 0.44898 0.21302 0.0
C1601 C 0.39212 0.43375 0.21541 0.0
C1602 C 0.45784 0.40587 0.27256 0.0
C1603 C 0.40672 0.47443 0.1904 0.0
H1604 H 0.46539 0.5095 0.25465 0.0
H1605 H 0.51162 0.45571 0.18666 0.0
H1606 H 0.40646 0.49327 0.25714 0.0
H1607 H 0.42431 0.46882 0.28564 0.0
H1608 H 0.4258 0.5041 0.28115 0.0
H1609 H 0.4985 0.41989 0.17167 0.0
H1610 H 0.48061 0.40404 0.20213 0.0
H1611 H 0.46258 0.42775 0.17321 0.0
H1612 H 0.41895 0.38248 0.26987 0.0
H1613 H 0.37546 0.44074 0.20132 0.0
H1614 H 0.45813 0.42282 0.28592 0.0
H1615 H 0.47721 0.39978 0.25816 0.0
H1616 H 0.45647 0.38767 0.28867 0.0
H1617 H 0.40551 0.49285 0.20225 0.0
H1618 H 0.38833 0.47912 0.1784 0.0
H1619 H 0.42431 0.47125 0.1731 0.0
C1620 C 0.82948 0.60997 0.67561 0.0
C1621 C 0.81369 0.61429 0.65109 0.0
C1622 C 0.82728 0.63154 0.69387 0.0
C1623 C 0.80879 0.65831 0.68766 0.0
C1624 C 0.79288 0.66292 0.66284 0.0
C1625 C 0.79552 0.64093 0.64489 0.0
C1626 C 0.84462 0.62556 0.72006 0.0
C1627 C 0.77286 0.69106 0.65541 0.0
C1628 C 0.78438 0.70552 0.75299 0.0
C1629 C 0.80007 0.72368 0.74662 0.0
C1630 C 0.78692 0.6844 0.73399 0.0
C1631 C 0.80561 0.68114 0.70774 0.0
C1632 C 0.82155 0.69934 0.70113 0.0
C1633 C 0.81862 0.72032 0.72059 0.0
C1634 C 0.76951 0.66555 0.74205 0.0
C1635 C 0.84169 0.69668 0.6734 0.0
H1636 H 0.84363 0.58957 0.6807 0.0
H1637 H 0.78321 0.64461 0.62605 0.0
H1638 H 0.85671 0.64015 0.71751 0.0
H1639 H 0.83176 0.62896 0.74195 0.0
H1640 H 0.85844 0.60387 0.72152 0.0
H1641 H 0.76251 0.69156 0.63491 0.0
H1642 H 0.75752 0.69659 0.67508 0.0
H1643 H 0.7831 0.70734 0.65139 0.0
H1644 H 0.76988 0.70782 0.77289 0.0
H1645 H 0.83075 0.73423 0.71523 0.0
H1646 H 0.78229 0.64355 0.74537 0.0
H1647 H 0.7572 0.66705 0.72301 0.0
H1648 H 0.75587 0.67083 0.76316 0.0
H1649 H 0.85672 0.67565 0.67467 0.0
H1650 H 0.8524 0.71254 0.6712 0.0
H1651 H 0.83143 0.69896 0.65242 0.0
C1652 C 0.4814 0.74837 0.69254 0.0
C1653 C 0.48552 0.76703 0.66742 0.0
C1654 C 0.45604 0.75211 0.70951 0.0
C1655 C 0.43356 0.77509 0.70151 0.0
C1656 C 0.43752 0.79409 0.67626 0.0
C1657 C 0.46323 0.78996 0.65975 0.0
C1658 C 0.45334 0.73129 0.73621 0.0
C1659 C 0.41444 0.81878 0.66642 0.0
C1660 C 0.36293 0.76885 0.72959 0.0
C1661 C 0.35536 0.78417 0.75546 0.0
C1662 C 0.38777 0.76625 0.71167 0.0
C1663 C 0.40612 0.77903 0.71955 0.0
C1664 C 0.3985 0.79472 0.74546 0.0
C1665 C 0.37346 0.79715 0.76286 0.0
C1666 C 0.39454 0.74941 0.68437 0.0
C1667 C 0.41711 0.80862 0.75525 0.0
H1668 H 0.49819 0.7308 0.69933 0.0
H1669 H 0.46572 0.8045 0.64042 0.0
H1670 H 0.44612 0.74209 0.75739 0.0
H1671 H 0.43822 0.72137 0.73243 0.0
H1672 H 0.4726 0.71468 0.73987 0.0
H1673 H 0.42051 0.83169 0.64643 0.0
H1674 H 0.39815 0.8115 0.66043 0.0
H1675 H 0.40602 0.83209 0.68558 0.0
H1676 H 0.34947 0.75859 0.72335 0.0
H1677 H 0.36827 0.80895 0.78272 0.0
H1678 H 0.41255 0.73113 0.68791 0.0
H1679 H 0.39947 0.76215 0.66361 0.0
H1680 H 0.37781 0.74187 0.6802 0.0
H1681 H 0.43611 0.79262 0.76122 0.0
H1682 H 0.40816 0.82074 0.77527 0.0
H1683 H 0.42232 0.82283 0.73611 0.0
C1684 C 0.3493 0.40649 0.63175 0.0
C1685 C 0.32722 0.42424 0.61683 0.0
C1686 C 0.34589 0.38917 0.65843 0.0
C1687 C 0.31974 0.38963 0.67108 0.0
C1688 C 0.29735 0.40788 0.65672 0.0
C1689 C 0.30132 0.42474 0.62988 0.0
C1690 C 0.37039 0.36989 0.67273 0.0
C1691 C 0.26909 0.40913 0.66933 0.0
C1692 C 0.3106 0.32453 0.71817 0.0
C1693 C 0.30829 0.33136 0.74844 0.0
C1694 C 0.31452 0.34313 0.69307 0.0
C1695 C 0.31583 0.36966 0.69798 0.0
C1696 C 0.31339 0.37685 0.72843 0.0
C1697 C 0.30987 0.35757 0.75327 0.0
C1698 C 0.31755 0.33418 0.66119 0.0
C1699 C 0.31455 0.40493 0.73474 0.0
H1700 H 0.36944 0.40586 0.62263 0.0
H1701 H 0.28392 0.43795 0.61895 0.0
H1702 H 0.36944 0.3738 0.697 0.0
H1703 H 0.37093 0.34791 0.67243 0.0
H1704 H 0.38936 0.37241 0.66067 0.0
H1705 H 0.25375 0.42579 0.65693 0.0
H1706 H 0.26585 0.38884 0.66766 0.0
H1707 H 0.26596 0.41285 0.69388 0.0
H1708 H 0.3099 0.30423 0.71392 0.0
H1709 H 0.30829 0.36307 0.77645 0.0
H1710 H 0.33725 0.33472 0.64941 0.0
H1711 H 0.30178 0.34887 0.64764 0.0
H1712 H 0.31617 0.31281 0.6612 0.0
H1713 H 0.33408 0.40763 0.725 0.0
H1714 H 0.312 0.40756 0.75957 0.0
H1715 H 0.29861 0.42174 0.72343 0.0
C1716 C 0.5797 0.30633 0.56263 0.0
C1717 C 0.56155 0.29242 0.57642 0.0
C1718 C 0.5992 0.3101 0.57942 0.0
C1719 C 0.60046 0.29981 0.61073 0.0
C1720 C 0.58087 0.28752 0.62507 0.0
C1721 C 0.56192 0.28378 0.60773 0.0
C1722 C 0.61963 0.32324 0.56307 0.0
C1723 C 0.58107 0.27642 0.65832 0.0
C1724 C 0.66711 0.27292 0.64678 0.0
C1725 C 0.66531 0.29394 0.66555 0.0
C1726 C 0.64673 0.27516 0.62801 0.0
C1727 C 0.62365 0.299 0.62783 0.0
C1728 C 0.62201 0.32069 0.64599 0.0
C1729 C 0.64274 0.31791 0.66458 0.0
C1730 C 0.64948 0.25142 0.60917 0.0
C1731 C 0.59796 0.34654 0.64642 0.0
H1732 H 0.58 0.31236 0.53827 0.0
H1733 H 0.5482 0.27262 0.61837 0.0
H1734 H 0.62277 0.33836 0.57711 0.0
H1735 H 0.63916 0.30682 0.55927 0.0
H1736 H 0.61353 0.33408 0.54054 0.0
H1737 H 0.56292 0.27017 0.66685 0.0
H1738 H 0.59903 0.25796 0.66136 0.0
H1739 H 0.58233 0.29232 0.67262 0.0
H1740 H 0.6841 0.2541 0.6475 0.0
H1741 H 0.64117 0.33453 0.67853 0.0
H1742 H 0.6466 0.25936 0.58496 0.0
H1743 H 0.63368 0.2415 0.61761 0.0
H1744 H 0.66937 0.23523 0.61014 0.0
H1745 H 0.59413 0.35583 0.62276 0.0
H1746 H 0.6006 0.36251 0.65968 0.0
H1747 H 0.57987 0.34095 0.65671 0.0
C1748 C 0.81935 0.50968 0.54191 0.0
C1749 C 0.84593 0.50158 0.54946 0.0
C1750 C 0.81018 0.49285 0.52555 0.0
C1751 C 0.8281 0.46724 0.51618 0.0
C1752 C 0.85478 0.45862 0.52433 0.0
C1753 C 0.86325 0.47572 0.54079 0.0
C1754 C 0.78146 0.50284 0.51771 0.0
C1755 C 0.8747 0.43149 0.51505 0.0
C1756 C 0.80654 0.40849 0.49212 0.0
C1757 C 0.81187 0.41124 0.46014 0.0
C1758 C 0.8103 0.42742 0.51057 0.0
C1759 C 0.81972 0.44972 0.49687 0.0
C1760 C 0.82397 0.45334 0.46458 0.0
C1761 C 0.82003 0.43415 0.4467 0.0
C1762 C 0.80525 0.42287 0.54486 0.0
C1763 C 0.83408 0.47671 0.44892 0.0
H1764 H 0.80572 0.52923 0.54834 0.0
H1765 H 0.88384 0.46878 0.54653 0.0
H1766 H 0.78099 0.50834 0.49271 0.0
H1767 H 0.77201 0.48604 0.52383 0.0
H1768 H 0.76928 0.52143 0.5296 0.0
H1769 H 0.89454 0.4274 0.52381 0.0
H1770 H 0.86687 0.41386 0.52372 0.0
H1771 H 0.87763 0.43189 0.48977 0.0
H1772 H 0.7998 0.39121 0.50283 0.0
H1773 H 0.82456 0.43645 0.42215 0.0
H1774 H 0.7927 0.44257 0.55438 0.0
H1775 H 0.8246 0.4163 0.55526 0.0
H1776 H 0.79515 0.40663 0.55182 0.0
H1777 H 0.8216 0.49692 0.45737 0.0
H1778 H 0.83397 0.47833 0.42369 0.0
H1779 H 0.85491 0.47315 0.4544 0.0
C1780 C 0.67846 0.74874 0.49972 0.0
C1781 C 0.65168 0.76619 0.5027 0.0
C1782 C 0.69656 0.75209 0.47412 0.0
C1783 C 0.68795 0.77323 0.4501 0.0
C1784 C 0.66094 0.79097 0.45296 0.0
C1785 C 0.64334 0.78744 0.47914 0.0
C1786 C 0.72506 0.73289 0.47282 0.0
C1787 C 0.65046 0.81352 0.42803 0.0
C1788 C 0.74167 0.79677 0.39571 0.0
C1789 C 0.7453 0.7811 0.37051 0.0
C1790 C 0.72311 0.79463 0.42134 0.0
C1791 C 0.7072 0.77658 0.42217 0.0
C1792 C 0.71044 0.76107 0.39658 0.0
C1793 C 0.72938 0.76334 0.37142 0.0
C1794 C 0.72101 0.81129 0.44796 0.0
C1795 C 0.69409 0.74164 0.39592 0.0
H1796 H 0.68548 0.73248 0.51773 0.0
H1797 H 0.62278 0.80095 0.4808 0.0
H1798 H 0.72938 0.72099 0.45246 0.0
H1799 H 0.73927 0.74525 0.47046 0.0
H1800 H 0.72896 0.71787 0.49346 0.0
H1801 H 0.62907 0.82556 0.43337 0.0
H1802 H 0.66256 0.82813 0.42444 0.0
H1803 H 0.65248 0.80411 0.4062 0.0
H1804 H 0.75382 0.81039 0.39579 0.0
H1805 H 0.73182 0.75094 0.35242 0.0
H1806 H 0.72652 0.79697 0.46879 0.0
H1807 H 0.70001 0.82462 0.4527 0.0
H1808 H 0.73427 0.82478 0.4438 0.0
H1809 H 0.69954 0.72429 0.41413 0.0
H1810 H 0.69731 0.73264 0.37362 0.0
H1811 H 0.67241 0.75286 0.40058 0.0
C1812 C 0.33648 0.59369 0.42255 0.0
C1813 C 0.32259 0.58869 0.45083 0.0
C1814 C 0.33192 0.62082 0.40776 0.0
C1815 C 0.31295 0.64382 0.42141 0.0
C1816 C 0.29897 0.639 0.45001 0.0
C1817 C 0.30391 0.61163 0.46429 0.0
C1818 C 0.34733 0.62486 0.37734 0.0
C1819 C 0.27874 0.66279 0.46559 0.0
C1820 C 0.31906 0.71638 0.39439 0.0
C1821 C 0.29973 0.72655 0.37317 0.0
C1822 C 0.32319 0.68987 0.41062 0.0
C1823 C 0.30771 0.67281 0.40563 0.0
C1824 C 0.28775 0.68319 0.38478 0.0
C1825 C 0.28401 0.7098 0.36889 0.0
C1826 C 0.34466 0.67981 0.43258 0.0
C1827 C 0.27077 0.66584 0.37864 0.0
H1828 H 0.35071 0.57631 0.41162 0.0
H1829 H 0.2933 0.6083 0.48626 0.0
H1830 H 0.33318 0.63445 0.35965 0.0
H1831 H 0.35893 0.63936 0.37881 0.0
H1832 H 0.36145 0.60494 0.36973 0.0
H1833 H 0.26971 0.65572 0.48789 0.0
H1834 H 0.28845 0.67835 0.46947 0.0
H1835 H 0.26243 0.67356 0.45067 0.0
H1836 H 0.33149 0.7289 0.39787 0.0
H1837 H 0.26912 0.7172 0.3525 0.0
H1838 H 0.36063 0.66133 0.4243 0.0
H1839 H 0.3361 0.67322 0.45535 0.0
H1840 H 0.35396 0.69607 0.43525 0.0
H1841 H 0.28377 0.64657 0.3686 0.0
H1842 H 0.2554 0.67723 0.36273 0.0
H1843 H 0.26049 0.65936 0.40035 0.0
C1844 C 0.44159 0.30517 0.44952 0.0
C1845 C 0.45876 0.27791 0.4552 0.0
C1846 C 0.42038 0.31094 0.43043 0.0
C1847 C 0.41619 0.28901 0.41658 0.0
C1848 C 0.43396 0.26169 0.42169 0.0
C1849 C 0.45475 0.25656 0.44072 0.0
C1850 C 0.40198 0.34039 0.42587 0.0
C1851 C 0.43068 0.23753 0.40755 0.0
C1852 C 0.34782 0.291 0.39374 0.0
C1853 C 0.35096 0.29516 0.36164 0.0
C1854 C 0.36828 0.29027 0.41181 0.0
C1855 C 0.39282 0.29382 0.39777 0.0
C1856 C 0.3958 0.29896 0.36545 0.0
C1857 C 0.37499 0.29952 0.34786 0.0
C1858 C 0.3639 0.28487 0.44606 0.0
C1859 C 0.42133 0.30321 0.34933 0.0
H1860 H 0.44428 0.32187 0.46052 0.0
H1861 H 0.46787 0.2354 0.44448 0.0
H1862 H 0.39855 0.34626 0.4014 0.0
H1863 H 0.38221 0.34183 0.43871 0.0
H1864 H 0.41007 0.35565 0.43403 0.0
H1865 H 0.44665 0.21768 0.41287 0.0
H1866 H 0.41094 0.23466 0.41602 0.0
H1867 H 0.43102 0.24195 0.38237 0.0
H1868 H 0.32936 0.28794 0.40492 0.0
H1869 H 0.37769 0.30319 0.32321 0.0
H1870 H 0.3679 0.30118 0.45748 0.0
H1871 H 0.37818 0.26455 0.45373 0.0
H1872 H 0.34316 0.28444 0.45373 0.0
H1873 H 0.42658 0.31927 0.35986 0.0
H1874 H 0.41967 0.30969 0.32457 0.0
H1875 H 0.43811 0.28353 0.35187 0.0
C1876 C 0.64377 0.76904 0.67151 0.0
C1877 C 0.62251 0.79079 0.65956 0.0
C1878 C 0.66137 0.77404 0.68975 0.0
C1879 C 0.65764 0.80153 0.69674 0.0
C1880 C 0.63602 0.82364 0.68517 0.0
C1881 C 0.6188 0.81805 0.66655 0.0
C1882 C 0.68429 0.7498 0.70113 0.0
C1883 C 0.6312 0.8532 0.69233 0.0
C1884 C 0.69407 0.80437 0.76489 0.0
C1885 C 0.71819 0.80797 0.7505 0.0
C1886 C 0.6735 0.80385 0.74774 0.0
C1887 C 0.6771 0.8068 0.71536 0.0
C1888 C 0.70087 0.81169 0.70078 0.0
C1889 C 0.721 0.81229 0.71845 0.0
C1890 C 0.64846 0.79875 0.76429 0.0
C1891 C 0.70577 0.81471 0.66638 0.0
H1892 H 0.64702 0.74787 0.66625 0.0
H1893 H 0.60244 0.83499 0.65754 0.0
H1894 H 0.70372 0.75327 0.69234 0.0
H1895 H 0.68314 0.74819 0.72644 0.0
H1896 H 0.68428 0.72963 0.69393 0.0
H1897 H 0.61297 0.86789 0.68266 0.0
H1898 H 0.629 0.85424 0.71744 0.0
H1899 H 0.64874 0.86019 0.68299 0.0
H1900 H 0.69154 0.80103 0.78959 0.0
H1901 H 0.73944 0.81515 0.70693 0.0
H1902 H 0.6483 0.77757 0.76071 0.0
H1903 H 0.63031 0.81388 0.75499 0.0
H1904 H 0.64717 0.80036 0.78926 0.0
H1905 H 0.70837 0.7945 0.65733 0.0
H1906 H 0.72394 0.82113 0.65856 0.0
H1907 H 0.68825 0.83027 0.65632 0.0
C1908 C 0.62058 0.25123 0.41667 0.0
C1909 C 0.61436 0.25157 0.44837 0.0
C1910 C 0.64424 0.25617 0.40233 0.0
C1911 C 0.66276 0.26063 0.42019 0.0
C1912 C 0.65666 0.2607 0.45234 0.0
C1913 C 0.63235 0.25666 0.46595 0.0
C1914 C 0.6493 0.25686 0.36797 0.0
C1915 C 0.67604 0.26451 0.47245 0.0
C1916 C 0.73453 0.24614 0.38211 0.0
C1917 C 0.73609 0.27311 0.37322 0.0
C1918 C 0.71126 0.24183 0.3985 0.0
C1919 C 0.68848 0.265 0.40513 0.0
C1920 C 0.69 0.2923 0.39612 0.0
C1921 C 0.7139 0.29601 0.3808 0.0
C1922 C 0.71098 0.2124 0.40846 0.0
C1923 C 0.66604 0.31762 0.40161 0.0
H1924 H 0.60656 0.24766 0.40299 0.0
H1925 H 0.62765 0.25677 0.49047 0.0
H1926 H 0.65273 0.27684 0.35844 0.0
H1927 H 0.66768 0.23985 0.36146 0.0
H1928 H 0.6323 0.25454 0.35724 0.0
H1929 H 0.66854 0.26368 0.49703 0.0
H1930 H 0.69562 0.248 0.46933 0.0
H1931 H 0.67976 0.28483 0.46576 0.0
H1932 H 0.75163 0.22837 0.37636 0.0
H1933 H 0.71482 0.3169 0.37358 0.0
H1934 H 0.69635 0.20735 0.3961 0.0
H1935 H 0.70446 0.21038 0.43323 0.0
H1936 H 0.73098 0.19683 0.40402 0.0
H1937 H 0.64911 0.31664 0.38971 0.0
H1938 H 0.67046 0.3374 0.39337 0.0
H1939 H 0.65923 0.31796 0.42632 0.0
C1940 C 0.7843 0.63694 0.45533 0.0
C1941 C 0.80263 0.61453 0.4706 0.0
C1942 C 0.79294 0.65247 0.43004 0.0
C1943 C 0.82061 0.64531 0.41971 0.0
C1944 C 0.839 0.62174 0.43394 0.0
C1945 C 0.82979 0.6067 0.45934 0.0
C1946 C 0.77264 0.67753 0.41554 0.0
C1947 C 0.86853 0.61318 0.42322 0.0
C1948 C 0.83447 0.68387 0.3436 0.0
C1949 C 0.8381 0.70755 0.35338 0.0
C1950 C 0.83063 0.6622 0.36487 0.0
C1951 C 0.83035 0.66446 0.39646 0.0
C1952 C 0.83638 0.68714 0.40612 0.0
C1953 C 0.84035 0.7083 0.38444 0.0
C1954 C 0.8247 0.6381 0.35368 0.0
C1955 C 0.83639 0.69032 0.43959 0.0
H1956 H 0.76334 0.6432 0.46404 0.0
H1957 H 0.84393 0.58904 0.47073 0.0
H1958 H 0.7759 0.69688 0.42103 0.0
H1959 H 0.77512 0.67748 0.39031 0.0
H1960 H 0.75168 0.67823 0.42374 0.0
H1961 H 0.87951 0.59233 0.43387 0.0
H1962 H 0.87155 0.61282 0.39802 0.0
H1963 H 0.87751 0.62864 0.42916 0.0
H1964 H 0.83276 0.68309 0.31963 0.0
H1965 H 0.84348 0.72639 0.39211 0.0
H1966 H 0.80289 0.64085 0.35805 0.0
H1967 H 0.83542 0.6181 0.36615 0.0
H1968 H 0.83047 0.63671 0.32879 0.0
H1969 H 0.81562 0.6947 0.45075 0.0
H1970 H 0.84409 0.70758 0.4431 0.0
H1971 H 0.84883 0.67075 0.45125 0.0
C1972 C 0.49295 0.83744 0.54363 0.0
C1973 C 0.51745 0.8209 0.5304 0.0
C1974 C 0.46967 0.84498 0.52805 0.0
C1975 C 0.47123 0.83579 0.49873 0.0
C1976 C 0.49648 0.82126 0.48437 0.0
C1977 C 0.51924 0.81392 0.50046 0.0
C1978 C 0.44316 0.86073 0.54399 0.0
C1979 C 0.49918 0.81132 0.45301 0.0
C1980 C 0.41522 0.8152 0.47241 0.0
C1981 C 0.40591 0.83652 0.44945 0.0
C1982 C 0.43542 0.81563 0.48993 0.0
C1983 C 0.44653 0.83797 0.48441 0.0
C1984 C 0.43615 0.86034 0.46247 0.0
C1985 C 0.41601 0.85931 0.44517 0.0
C1986 C 0.44594 0.79133 0.51313 0.0
C1987 C 0.4472 0.88467 0.45621 0.0
H1988 H 0.49153 0.84256 0.56695 0.0
H1989 H 0.53827 0.80117 0.49026 0.0
H1990 H 0.4309 0.87683 0.52789 0.0
H1991 H 0.4317 0.84603 0.55277 0.0
H1992 H 0.44593 0.87093 0.56358 0.0
H1993 H 0.52049 0.80291 0.44386 0.0
H1994 H 0.4896 0.79463 0.4542 0.0
H1995 H 0.48874 0.82857 0.4367 0.0
H1996 H 0.40758 0.79751 0.47575 0.0
H1997 H 0.40847 0.87615 0.42786 0.0
H1998 H 0.44647 0.79888 0.53541 0.0
H1999 H 0.4668 0.77938 0.50533 0.0
H2000 H 0.43356 0.77695 0.51666 0.0
H2001 H 0.44893 0.89247 0.47793 0.0
H2002 H 0.43449 0.90212 0.44177 0.0
H2003 H 0.46766 0.87779 0.44424 0.0
C2004 C 0.30557 0.42491 0.45388 0.0
C2005 C 0.28854 0.45029 0.46384 0.0
C2006 C 0.2973 0.41023 0.43434 0.0
C2007 C 0.27131 0.42122 0.42415 0.0
C2008 C 0.25368 0.44649 0.43466 0.0
C2009 C 0.26247 0.46072 0.45453 0.0
C2010 C 0.31674 0.38321 0.424 0.0
C2011 C 0.22587 0.45885 0.42423 0.0
C2012 C 0.27065 0.39329 0.34919 0.0
C2013 C 0.26217 0.36986 0.3591 0.0
C2014 C 0.27138 0.41178 0.36985 0.0
C2015 C 0.26365 0.40663 0.40126 0.0
C2016 C 0.25284 0.38443 0.41095 0.0
C2017 C 0.25213 0.36634 0.3897 0.0
C2018 C 0.28273 0.43537 0.35841 0.0
C2019 C 0.24435 0.37819 0.44419 0.0
H2020 H 0.32565 0.4165 0.46119 0.0
H2021 H 0.24921 0.48031 0.46213 0.0
H2022 H 0.30743 0.36621 0.429 0.0
H2023 H 0.32179 0.38547 0.39892 0.0
H2024 H 0.33567 0.37683 0.43529 0.0
H2025 H 0.21384 0.47731 0.43639 0.0
H2026 H 0.22731 0.46526 0.39936 0.0
H2027 H 0.21506 0.44306 0.42789 0.0
H2028 H 0.27817 0.39635 0.32551 0.0
H2029 H 0.24556 0.34829 0.3976 0.0
H2030 H 0.30331 0.43015 0.36551 0.0
H2031 H 0.27043 0.45487 0.36849 0.0
H2032 H 0.28379 0.43924 0.33311 0.0
H2033 H 0.26248 0.36831 0.45666 0.0
H2034 H 0.23202 0.36378 0.44723 0.0
H2035 H 0.23275 0.39764 0.45481 0.0
C2036 C 0.47078 0.21463 0.6392 0.0
C2037 C 0.46488 0.23555 0.6149 0.0
C2038 C 0.45343 0.21573 0.66626 0.0
C2039 C 0.42935 0.23821 0.66924 0.0
C2040 C 0.42321 0.25939 0.6448 0.0
C2041 C 0.44103 0.25785 0.61805 0.0
C2042 C 0.46098 0.19289 0.69181 0.0
C2043 C 0.3977 0.28365 0.64684 0.0
C2044 C 0.37202 0.22922 0.72752 0.0
C2045 C 0.37402 0.244 0.75144 0.0
C2046 C 0.38996 0.22698 0.70085 0.0
C2047 C 0.41064 0.23962 0.69793 0.0
C2048 C 0.41319 0.25396 0.7223 0.0
C2049 C 0.39485 0.25607 0.7486 0.0
C2050 C 0.38633 0.21167 0.67541 0.0
C2051 C 0.43498 0.26762 0.72034 0.0
H2052 H 0.48927 0.19754 0.63731 0.0
H2053 H 0.43606 0.27395 0.59938 0.0
H2054 H 0.46247 0.20193 0.71281 0.0
H2055 H 0.44513 0.18254 0.69717 0.0
H2056 H 0.48039 0.17685 0.68601 0.0
H2057 H 0.39601 0.29867 0.62615 0.0
H2058 H 0.38003 0.2759 0.64995 0.0
H2059 H 0.39683 0.29489 0.66705 0.0
H2060 H 0.35591 0.22004 0.72918 0.0
H2061 H 0.39663 0.26764 0.76677 0.0
H2062 H 0.40512 0.19482 0.66973 0.0
H2063 H 0.38199 0.22622 0.65452 0.0
H2064 H 0.36974 0.20238 0.68145 0.0
H2065 H 0.45491 0.25219 0.71531 0.0
H2066 H 0.43512 0.27679 0.74179 0.0
H2067 H 0.43211 0.2844 0.70132 0.0
C2068 C 0.80308 0.4549 0.63616 0.0
C2069 C 0.78023 0.47708 0.64395 0.0
C2070 C 0.8082 0.42872 0.6529 0.0
C2071 C 0.78995 0.4246 0.67793 0.0
C2072 C 0.76628 0.44654 0.68511 0.0
C2073 C 0.76174 0.47252 0.66806 0.0
C2074 C 0.83355 0.40579 0.64442 0.0
C2075 C 0.74617 0.44284 0.71146 0.0
C2076 C 0.79035 0.35237 0.71289 0.0
C2077 C 0.80244 0.35037 0.73989 0.0
C2078 C 0.78699 0.37601 0.69184 0.0
C2079 C 0.79618 0.39798 0.69784 0.0
C2080 C 0.80971 0.39539 0.72421 0.0
C2081 C 0.81255 0.37167 0.745 0.0
C2082 C 0.77234 0.37811 0.66406 0.0
C2083 C 0.82013 0.41822 0.73118 0.0
H2084 H 0.81713 0.45809 0.6171 0.0
H2085 H 0.74414 0.48955 0.67433 0.0
H2086 H 0.84702 0.4009 0.66303 0.0
H2087 H 0.82884 0.38647 0.64179 0.0
H2088 H 0.84453 0.41164 0.62287 0.0
H2089 H 0.72795 0.46131 0.71277 0.0
H2090 H 0.73997 0.42429 0.70927 0.0
H2091 H 0.75552 0.43918 0.73329 0.0
H2092 H 0.78233 0.33609 0.70883 0.0
H2093 H 0.82209 0.37018 0.7657 0.0
H2094 H 0.78372 0.3844 0.64312 0.0
H2095 H 0.75256 0.39443 0.66636 0.0
H2096 H 0.76897 0.35813 0.66102 0.0
H2097 H 0.83281 0.424 0.71116 0.0
H2098 H 0.8321 0.412 0.75125 0.0
H2099 H 0.80302 0.43711 0.73591 0.0
C2100 C 0.29721 0.56276 0.60682 0.0
C2101 C 0.28107 0.55899 0.58596 0.0
C2102 C 0.28852 0.58558 0.62424 0.0
C2103 C 0.26286 0.60511 0.62095 0.0
C2104 C 0.24576 0.6007 0.6012 0.0
C2105 C 0.25513 0.57758 0.58376 0.0
C2106 C 0.30739 0.58942 0.64513 0.0
C2107 C 0.21813 0.62095 0.59753 0.0
C2108 C 0.24356 0.6521 0.68503 0.0
C2109 C 0.25317 0.67409 0.67198 0.0
C2110 C 0.24428 0.63051 0.66778 0.0
C2111 C 0.25521 0.63083 0.63695 0.0
C2112 C 0.26331 0.65392 0.62314 0.0
C2113 C 0.26212 0.67536 0.64086 0.0
C2114 C 0.23504 0.60648 0.68313 0.0
C2115 C 0.27523 0.65494 0.59034 0.0
H2116 H 0.31715 0.54821 0.60895 0.0
H2117 H 0.2426 0.5747 0.56766 0.0
H2118 H 0.31259 0.60884 0.63728 0.0
H2119 H 0.29752 0.59159 0.66872 0.0
H2120 H 0.32629 0.57174 0.64581 0.0
H2121 H 0.20596 0.61246 0.58498 0.0
H2122 H 0.20729 0.62634 0.62016 0.0
H2123 H 0.21994 0.64055 0.58467 0.0
H2124 H 0.23606 0.65146 0.70897 0.0
H2125 H 0.2695 0.69239 0.63074 0.0
H2126 H 0.25278 0.58816 0.68771 0.0
H2127 H 0.22303 0.60034 0.66803 0.0
H2128 H 0.22284 0.61163 0.70517 0.0
H2129 H 0.29544 0.63928 0.58836 0.0
H2130 H 0.27726 0.67578 0.58197 0.0
H2131 H 0.2627 0.6496 0.57523 0.0
loop_
_geom_bond_atom_site_label_1
_geom_bond_atom_site_label_2
_geom_bond_distance
_geom_bond_site_symmetry_2
_ccdc_geom_bond_type
Cu0 N1 1.999 . S
Cu0 O6 1.974 1_545 S
Cu0 N11 1.985 1_545 S
Cu0 O20 1.959 1_455 S
N1 Cu0 1.999 . S
N1 C3 1.263 . S
N1 C5 1.389 . S
N2 C3 1.358 . S
N2 C4 1.400 . S
C3 N1 1.263 . S
C3 N2 1.358 . S
C3 H9 0.930 . S
C4 N2 1.400 . S
C4 C5 1.351 . S
C4 H21 0.930 . S
C5 N1 1.389 . S
C5 C4 1.351 . S
C5 H10 0.930 . S
O6 Cu0 1.974 1_565 S
O6 C16 1.282 . S
C7 O8 1.261 1_655 S
C7 O20 1.251 . S
O8 C7 1.261 1_455 S
H9 C3 0.930 . S
H10 C5 0.930 . S
N11 Cu0 1.985 1_565 S
N11 C13 1.335 1_455 S
N11 C14 1.390 . S
N12 C13 1.345 . S
N12 C15 1.336 1_655 S
C13 N11 1.335 1_655 S
C13 N12 1.345 . S
C13 H18 0.930 1_565 S
C14 N11 1.390 . S
C14 C15 1.346 . S
C14 H19 0.930 . S
C15 N12 1.336 1_455 S
C15 C14 1.346 . S
C15 H22 0.929 . S
C16 O6 1.282 . S
C16 O17 1.216 . S
O17 C16 1.216 . S
H18 C13 0.930 1_545 S
H19 C14 0.930 . S
O20 Cu0 1.959 1_655 S
O20 C7 1.251 . S
H21 C4 0.930 . S
H22 C15 0.929 . S
Cu23 N24 1.999 . S
Cu23 O29 1.974 1_455 S
Cu23 N34 1.985 . S
Cu23 O43 1.959 . S
N24 Cu23 1.999 . S
N24 C26 1.263 1_455 S
N24 C28 1.389 1_545 S
N25 C26 1.341 1_565 S
N25 C27 1.409 . S
C26 N24 1.263 1_655 S
C26 N25 1.341 1_545 S
C26 H32 0.930 . S
C27 N25 1.409 . S
C27 C28 1.351 1_655 S
C27 H44 0.930 . S
C28 N24 1.389 1_565 S
C28 C27 1.351 1_455 S
C28 H33 0.930 . S
O29 Cu23 1.974 1_655 S
O29 C39 1.282 . S
C30 O31 1.261 . S
C30 O43 1.251 . S
O31 C30 1.261 . S
H32 C26 0.930 . S
H33 C28 0.930 . S
N34 Cu23 1.985 . S
N34 C36 1.335 . S
N34 C37 1.390 . S
N35 C36 1.345 . S
N35 C38 1.336 . S
C36 N34 1.335 . S
C36 N35 1.345 . S
C36 H41 0.930 . S
C37 N34 1.390 . S
C37 C38 1.346 . S
C37 H42 0.930 . S
C38 N35 1.336 . S
C38 C37 1.346 . S
C38 H45 0.929 . S
C39 O29 1.282 . S
C39 O40 1.216 . S
O40 C39 1.216 . S
H41 C36 0.930 . S
H42 C37 0.930 . S
O43 Cu23 1.959 . S
O43 C30 1.251 . S
H44 C27 0.930 . S
H45 C38 0.929 . S
Cu46 N47 1.999 . S
Cu46 O52 1.974 . S
Cu46 N57 1.985 . S
Cu46 O66 1.959 . S
N47 Cu46 1.999 . S
N47 C49 1.263 . S
N47 C51 1.389 . S
N48 C49 1.358 . S
N48 C50 1.400 . S
C49 N47 1.263 . S
C49 N48 1.358 . S
C49 H55 0.930 . S
C50 N48 1.400 . S
C50 C51 1.351 . S
C50 H67 0.930 1_554 S
C51 N47 1.389 . S
C51 C50 1.351 . S
C51 H56 0.930 . S
O52 Cu46 1.974 . S
O52 C62 1.282 . S
C53 O54 1.261 . S
C53 O66 1.251 . S
O54 C53 1.261 . S
H55 C49 0.930 . S
H56 C51 0.930 . S
N57 Cu46 1.985 . S
N57 C59 1.335 . S
N57 C60 1.390 . S
N58 C59 1.345 . S
N58 C61 1.336 . S
C59 N57 1.335 . S
C59 N58 1.345 . S
C59 H64 0.930 . S
C60 N57 1.390 . S
C60 C61 1.346 . S
C60 H65 0.930 . S
C61 N58 1.336 . S
C61 C60 1.346 . S
C61 H68 0.929 . S
C62 O52 1.282 . S
C62 O63 1.216 . S
O63 C62 1.216 . S
H64 C59 0.930 . S
H65 C60 0.930 . S
O66 Cu46 1.959 . S
O66 C53 1.251 . S
H67 C50 0.930 1_556 S
H68 C61 0.929 . S
Cu69 N70 1.999 . S
Cu69 O75 1.974 . S
Cu69 N80 1.985 . S
Cu69 O89 1.959 . S
N70 Cu69 1.999 . S
N70 C72 1.263 . S
N70 C74 1.389 . S
N71 C72 1.358 . S
N71 C73 1.400 1_554 S
C72 N70 1.263 . S
C72 N71 1.358 . S
C72 H78 0.930 . S
C73 N71 1.400 1_556 S
C73 C74 1.351 1_556 S
C73 H90 0.930 . S
C74 N70 1.389 . S
C74 C73 1.351 1_554 S
C74 H79 0.930 . S
O75 Cu69 1.974 . S
O75 C85 1.282 . S
C76 O77 1.261 . S
C76 O89 1.251 . S
O77 C76 1.261 . S
H78 C72 0.930 . S
H79 C74 0.930 . S
N80 Cu69 1.985 . S
N80 C82 1.335 1_455 S
N80 C83 1.390 . S
N81 C82 1.345 . S
N81 C84 1.336 1_655 S
C82 N80 1.335 1_655 S
C82 N81 1.345 . S
C82 H87 0.930 . S
C83 N80 1.390 . S
C83 C84 1.346 . S
C83 H88 0.930 . S
C84 N81 1.336 1_455 S
C84 C83 1.346 . S
C84 H91 0.929 . S
C85 O75 1.282 . S
C85 O86 1.216 . S
O86 C85 1.216 . S
H87 C82 0.930 . S
H88 C83 0.930 . S
O89 Cu69 1.959 . S
O89 C76 1.251 . S
H90 C73 0.930 . S
H91 C84 0.929 . S
Cu92 N93 1.999 1_554 S
Cu92 O98 1.974 . S
Cu92 N103 1.985 1_545 S
Cu92 O112 1.959 1_544 S
N93 Cu92 1.999 1_556 S
N93 C95 1.263 . S
N93 C97 1.389 . S
N94 C95 1.358 . S
N94 C96 1.400 . S
C95 N93 1.263 . S
C95 N94 1.358 . S
C95 H101 0.930 . S
C96 N94 1.400 . S
C96 C97 1.351 . S
C96 H113 0.930 . S
C97 N93 1.389 . S
C97 C96 1.351 . S
C97 H102 0.930 . S
O98 Cu92 1.974 . S
O98 C108 1.282 . S
C99 O100 1.261 . S
C99 O112 1.251 . S
O100 C99 1.261 . S
H101 C95 0.930 . S
H102 C97 0.930 . S
N103 Cu92 1.985 1_565 S
N103 C105 1.335 . S
N103 C106 1.390 . S
N104 C105 1.345 . S
N104 C107 1.336 . S
C105 N103 1.335 . S
C105 N104 1.345 . S
C105 H110 0.930 . S
C106 N103 1.390 . S
C106 C107 1.346 . S
C106 H111 0.930 . S
C107 N104 1.336 . S
C107 C106 1.346 . S
C107 H114 0.929 . S
C108 O98 1.282 . S
C108 O109 1.216 . S
O109 C108 1.216 . S
H110 C105 0.930 . S
H111 C106 0.930 . S
O112 Cu92 1.959 1_566 S
O112 C99 1.251 . S
H113 C96 0.930 . S
H114 C107 0.929 . S
Cu115 N116 1.999 1_454 S
Cu115 O121 1.974 1_455 S
Cu115 N126 1.985 . S
Cu115 O135 1.959 1_554 S
N116 Cu115 1.999 1_656 S
N116 C118 1.263 . S
N116 C120 1.389 . S
N117 C118 1.358 . S
N117 C119 1.400 . S
C118 N116 1.263 . S
C118 N117 1.358 . S
C118 H124 0.930 . S
C119 N117 1.400 . S
C119 C120 1.351 . S
C119 H136 0.930 . S
C120 N116 1.389 . S
C120 C119 1.351 . S
C120 H125 0.930 1_655 S
O121 Cu115 1.974 1_655 S
O121 C131 1.282 . S
C122 O123 1.261 . S
C122 O135 1.251 . S
O123 C122 1.261 . S
H124 C118 0.930 . S
H125 C120 0.930 1_455 S
N126 Cu115 1.985 . S
N126 C128 1.335 . S
N126 C129 1.390 . S
N127 C128 1.345 . S
N127 C130 1.336 . S
C128 N126 1.335 . S
C128 N127 1.345 . S
C128 H133 0.930 . S
C129 N126 1.390 . S
C129 C130 1.346 . S
C129 H134 0.930 . S
C130 N127 1.336 . S
C130 C129 1.346 . S
C130 H137 0.929 . S
C131 O121 1.282 . S
C131 O132 1.216 . S
O132 C131 1.216 . S
H133 C128 0.930 . S
H134 C129 0.930 . S
O135 Cu115 1.959 1_556 S
O135 C122 1.251 . S
H136 C119 0.930 . S
H137 C130 0.929 . S
Cu138 N139 1.999 . S
Cu138 O144 1.974 . S
Cu138 N149 1.985 . S
Cu138 O158 1.959 . S
N139 Cu138 1.999 . S
N139 C141 1.263 . S
N139 C143 1.389 . S
N140 C141 1.358 . S
N140 C142 1.400 . S
C141 N139 1.263 . S
C141 N140 1.358 . S
C141 H147 0.930 . S
C142 N140 1.400 . S
C142 C143 1.351 . S
C142 H159 0.930 . S
C143 N139 1.389 . S
C143 C142 1.351 . S
C143 H148 0.930 . S
O144 Cu138 1.974 . S
O144 C154 1.282 . S
C145 O146 1.261 . S
C145 O158 1.251 . S
O146 C145 1.261 . S
H147 C141 0.930 . S
H148 C143 0.930 . S
N149 Cu138 1.985 . S
N149 C151 1.335 . S
N149 C152 1.390 . S
N150 C151 1.345 . S
N150 C153 1.336 . S
C151 N149 1.335 . S
C151 N150 1.345 . S
C151 H156 0.930 . S
C152 N149 1.390 . S
C152 C153 1.346 . S
C152 H157 0.930 . S
C153 N150 1.336 . S
C153 C152 1.346 . S
C153 H160 0.929 . S
C154 O144 1.282 . S
C154 O155 1.216 . S
O155 C154 1.216 . S
H156 C151 0.930 . S
H157 C152 0.930 . S
O158 Cu138 1.959 . S
O158 C145 1.251 . S
H159 C142 0.930 . S
H160 C153 0.929 . S
Cu161 N162 1.999 . S
Cu161 O167 1.974 . S
Cu161 N172 1.985 . S
Cu161 O181 1.959 . S
N162 Cu161 1.999 . S
N162 C164 1.263 . S
N162 C166 1.389 . S
N163 C164 1.358 . S
N163 C165 1.400 . S
C164 N162 1.263 . S
C164 N163 1.358 . S
C164 H170 0.930 . S
C165 N163 1.400 . S
C165 C166 1.351 . S
C165 H182 0.930 . S
C166 N162 1.389 . S
C166 C165 1.351 . S
C166 H171 0.930 . S
O167 Cu161 1.974 . S
O167 C177 1.282 . S
C168 O169 1.261 . S
C168 O181 1.251 . S
O169 C168 1.261 . S
H170 C164 0.930 . S
H171 C166 0.930 . S
N172 Cu161 1.985 . S
N172 C174 1.335 . S
N172 C175 1.390 . S
N173 C174 1.345 . S
N173 C176 1.336 . S
C174 N172 1.335 . S
C174 N173 1.345 . S
C174 H179 0.930 . S
C175 N172 1.390 . S
C175 C176 1.346 . S
C175 H180 0.930 . S
C176 N173 1.336 . S
C176 C175 1.346 . S
C176 H183 0.929 . S
C177 O167 1.282 . S
C177 O178 1.216 . S
O178 C177 1.216 . S
H179 C174 0.930 . S
H180 C175 0.930 . S
O181 Cu161 1.959 . S
O181 C168 1.251 . S
H182 C165 0.930 . S
H183 C176 0.929 . S
Cu184 N185 1.999 . S
Cu184 O190 1.974 . S
Cu184 N195 1.985 . S
Cu184 O204 1.959 . S
N185 Cu184 1.999 . S
N185 C187 1.263 . S
N185 C189 1.389 . S
N186 C187 1.358 . S
N186 C188 1.400 . S
C187 N185 1.263 . S
C187 N186 1.358 . S
C187 H193 0.930 . S
C188 N186 1.400 . S
C188 C189 1.351 . S
C188 H205 0.930 . S
C189 N185 1.389 . S
C189 C188 1.351 . S
C189 H194 0.930 . S
O190 Cu184 1.974 . S
O190 C200 1.282 . S
C191 O192 1.261 . S
C191 O204 1.251 . S
O192 C191 1.261 . S
H193 C187 0.930 . S
H194 C189 0.930 . S
N195 Cu184 1.985 . S
N195 C197 1.335 . S
N195 C198 1.390 . S
N196 C197 1.345 . S
N196 C199 1.336 . S
C197 N195 1.335 . S
C197 N196 1.345 . S
C197 H202 0.930 . S
C198 N195 1.390 . S
C198 C199 1.346 . S
C198 H203 0.930 . S
C199 N196 1.336 . S
C199 C198 1.346 . S
C199 H206 0.929 . S
C200 O190 1.282 . S
C200 O201 1.216 . S
O201 C200 1.216 . S
H202 C197 0.930 . S
H203 C198 0.930 . S
O204 Cu184 1.959 . S
O204 C191 1.251 . S
H205 C188 0.930 . S
H206 C199 0.929 . S
Cu207 N208 1.999 . S
Cu207 O213 1.974 . S
Cu207 N218 1.985 . S
Cu207 O227 1.959 . S
N208 Cu207 1.999 . S
N208 C210 1.263 . S
N208 C212 1.389 . S
N209 C210 1.358 . S
N209 C211 1.400 . S
C210 N208 1.263 . S
C210 N209 1.358 . S
C210 H216 0.930 . S
C211 N209 1.400 . S
C211 C212 1.351 . S
C211 H228 0.930 . S
C212 N208 1.389 . S
C212 C211 1.351 . S
C212 H217 0.930 . S
O213 Cu207 1.974 . S
O213 C223 1.282 . S
C214 O215 1.261 . S
C214 O227 1.251 . S
O215 C214 1.261 . S
H216 C210 0.930 . S
H217 C212 0.930 . S
N218 Cu207 1.985 . S
N218 C220 1.335 . S
N218 C221 1.390 . S
N219 C220 1.345 . S
N219 C222 1.336 . S
C220 N218 1.335 . S
C220 N219 1.345 . S
C220 H225 0.930 . S
C221 N218 1.390 . S
C221 C222 1.346 . S
C221 H226 0.930 . S
C222 N219 1.336 . S
C222 C221 1.346 . S
C222 H229 0.929 . S
C223 O213 1.282 . S
C223 O224 1.216 . S
O224 C223 1.216 . S
H225 C220 0.930 . S
H226 C221 0.930 . S
O227 Cu207 1.959 . S
O227 C214 1.251 . S
H228 C211 0.930 . S
H229 C222 0.929 . S
Cu230 N231 1.999 . S
Cu230 O236 1.974 . S
Cu230 N241 1.985 . S
Cu230 O250 1.959 . S
N231 Cu230 1.999 . S
N231 C233 1.263 . S
N231 C235 1.389 . S
N232 C233 1.358 . S
N232 C234 1.400 . S
C233 N231 1.263 . S
C233 N232 1.358 . S
C233 H239 0.930 . S
C234 N232 1.400 . S
C234 C235 1.351 . S
C234 H251 0.930 . S
C235 N231 1.389 . S
C235 C234 1.351 . S
C235 H240 0.930 . S
O236 Cu230 1.974 . S
O236 C246 1.282 . S
C237 O238 1.261 . S
C237 O250 1.251 . S
O238 C237 1.261 . S
H239 C233 0.930 . S
H240 C235 0.930 . S
N241 Cu230 1.985 . S
N241 C243 1.335 . S
N241 C244 1.390 . S
N242 C243 1.345 . S
N242 C245 1.336 . S
C243 N241 1.335 . S
C243 N242 1.345 . S
C243 H248 0.930 . S
C244 N241 1.390 . S
C244 C245 1.346 . S
C244 H249 0.930 . S
C245 N242 1.336 . S
C245 C244 1.346 . S
C245 H252 0.929 . S
C246 O236 1.282 . S
C246 O247 1.216 . S
O247 C246 1.216 . S
H248 C243 0.930 . S
H249 C244 0.930 . S
O250 Cu230 1.959 . S
O250 C237 1.251 . S
H251 C234 0.930 . S
H252 C245 0.929 . S
Cu253 N254 1.999 . S
Cu253 O259 1.974 . S
Cu253 N264 1.985 . S
Cu253 O273 1.959 . S
N254 Cu253 1.999 . S
N254 C256 1.263 . S
N254 C258 1.389 . S
N255 C256 1.358 . S
N255 C257 1.400 . S
C256 N254 1.263 . S
C256 N255 1.358 . S
C256 H262 0.930 . S
C257 N255 1.400 . S
C257 C258 1.351 . S
C257 H274 0.930 . S
C258 N254 1.389 . S
C258 C257 1.351 . S
C258 H263 0.930 . S
O259 Cu253 1.974 . S
O259 C269 1.282 . S
C260 O261 1.261 . S
C260 O273 1.251 . S
O261 C260 1.261 . S
H262 C256 0.930 . S
H263 C258 0.930 . S
N264 Cu253 1.985 . S
N264 C266 1.335 . S
N264 C267 1.390 . S
N265 C266 1.345 . S
N265 C268 1.336 . S
C266 N264 1.335 . S
C266 N265 1.345 . S
C266 H271 0.930 . S
C267 N264 1.390 . S
C267 C268 1.346 . S
C267 H272 0.930 . S
C268 N265 1.336 . S
C268 C267 1.346 . S
C268 H275 0.929 . S
C269 O259 1.282 . S
C269 O270 1.216 . S
O270 C269 1.216 . S
H271 C266 0.930 . S
H272 C267 0.930 . S
O273 Cu253 1.959 . S
O273 C260 1.251 . S
H274 C257 0.930 . S
H275 C268 0.929 . S
Tb276 C285 2.764 . S
Tb276 O286 2.325 . S
Tb276 O289 2.303 . S
Tb276 O293 2.322 . S
Tb276 O294 2.349 . S
Tb276 O297 2.415 . S
Tb276 O298 2.399 . S
Tb277 O287 2.322 . S
Tb277 O288 2.349 . S
Tb277 O290 2.415 . S
Tb277 O291 2.399 . S
Tb277 O292 2.325 . S
Tb277 O295 2.303 . S
Tb277 C306 2.764 . S
C278 O294 1.261 . S
C278 O295 1.257 . S
C279 C282 1.358 . S
C279 C283 1.332 . S
C279 C285 1.504 . S
C280 C281 1.373 . S
C280 C284 1.308 . S
C281 C280 1.373 . S
C281 C282 1.429 . S
C281 H308 0.932 . S
C282 C279 1.358 . S
C282 C281 1.429 . S
C282 H309 0.930 . S
C283 C279 1.332 . S
C283 C284 1.394 . S
C283 H310 0.932 . S
C284 C280 1.308 . S
C284 C283 1.394 . S
C284 H311 0.929 . S
C285 Tb276 2.764 . S
C285 C279 1.504 . S
C285 O297 1.239 . S
C285 O298 1.263 . S
O286 Tb276 2.325 . S
O286 C296 1.236 . S
O287 Tb277 2.322 . S
O287 C296 1.257 . S
O288 Tb277 2.349 . S
O288 C299 1.261 . S
O289 Tb276 2.303 . S
O289 C299 1.257 . S
O290 Tb277 2.415 . S
O290 C306 1.239 . S
O291 Tb277 2.399 . S
O291 C306 1.263 . S
O292 Tb277 2.325 . S
O292 C307 1.236 . S
O293 Tb276 2.322 . S
O293 C307 1.257 . S
O294 Tb276 2.349 . S
O294 C278 1.261 . S
O295 Tb277 2.303 . S
O295 C278 1.257 . S
C296 O286 1.236 . S
C296 O287 1.257 . S
O297 Tb276 2.415 . S
O297 C285 1.239 . S
O298 Tb276 2.399 . S
O298 C285 1.263 . S
C299 O288 1.261 . S
C299 O289 1.257 . S
C300 C303 1.358 . S
C300 C304 1.332 . S
C300 C306 1.504 . S
C301 C302 1.373 . S
C301 C305 1.308 . S
C302 C301 1.373 . S
C302 C303 1.429 . S
C302 H312 0.932 . S
C303 C300 1.358 . S
C303 C302 1.429 . S
C303 H313 0.930 . S
C304 C300 1.332 . S
C304 C305 1.394 . S
C304 H314 0.932 . S
C305 C301 1.308 . S
C305 C304 1.394 . S
C305 H315 0.929 . S
C306 Tb277 2.764 . S
C306 O290 1.239 . S
C306 O291 1.263 . S
C306 C300 1.504 . S
C307 O292 1.236 . S
C307 O293 1.257 . S
H308 C281 0.932 . S
H309 C282 0.930 . S
H310 C283 0.932 . S
H311 C284 0.929 . S
H312 C302 0.932 . S
H313 C303 0.930 . S
H314 C304 0.932 . S
H315 C305 0.929 . S
Tb316 C325 2.764 . S
Tb316 O326 2.325 . S
Tb316 O329 2.303 . S
Tb316 O333 2.322 . S
Tb316 O334 2.349 . S
Tb316 O337 2.415 . S
Tb316 O338 2.399 . S
Tb317 O327 2.322 . S
Tb317 O328 2.349 . S
Tb317 O330 2.415 . S
Tb317 O331 2.399 . S
Tb317 O332 2.325 . S
Tb317 O335 2.303 . S
Tb317 C346 2.764 . S
C318 O334 1.261 . S
C318 O335 1.257 . S
C319 C322 1.358 . S
C319 C323 1.332 . S
C319 C325 1.504 . S
C320 C321 1.373 . S
C320 C324 1.308 . S
C321 C320 1.373 . S
C321 C322 1.429 . S
C321 H348 0.932 . S
C322 C319 1.358 . S
C322 C321 1.429 . S
C322 H349 0.930 . S
C323 C319 1.332 . S
C323 C324 1.394 . S
C323 H350 0.932 . S
C324 C320 1.308 . S
C324 C323 1.394 . S
C324 H351 0.929 . S
C325 Tb316 2.764 . S
C325 C319 1.504 . S
C325 O337 1.239 . S
C325 O338 1.263 . S
O326 Tb316 2.325 . S
O326 C336 1.236 . S
O327 Tb317 2.322 . S
O327 C336 1.257 . S
O328 Tb317 2.349 . S
O328 C339 1.261 . S
O329 Tb316 2.303 . S
O329 C339 1.257 . S
O330 Tb317 2.415 . S
O330 C346 1.239 . S
O331 Tb317 2.399 . S
O331 C346 1.263 . S
O332 Tb317 2.325 . S
O332 C347 1.236 . S
O333 Tb316 2.322 . S
O333 C347 1.257 . S
O334 Tb316 2.349 . S
O334 C318 1.261 . S
O335 Tb317 2.303 . S
O335 C318 1.257 . S
C336 O326 1.236 . S
C336 O327 1.257 . S
O337 Tb316 2.415 . S
O337 C325 1.239 . S
O338 Tb316 2.399 . S
O338 C325 1.263 . S
C339 O328 1.261 . S
C339 O329 1.257 . S
C340 C343 1.358 . S
C340 C344 1.332 . S
C340 C346 1.504 . S
C341 C342 1.373 . S
C341 C345 1.308 . S
C342 C341 1.373 . S
C342 C343 1.429 . S
C342 H352 0.932 . S
C343 C340 1.358 . S
C343 C342 1.429 . S
C343 H353 0.930 . S
C344 C340 1.332 . S
C344 C345 1.394 . S
C344 H354 0.932 . S
C345 C341 1.308 . S
C345 C344 1.394 . S
C345 H355 0.929 . S
C346 Tb317 2.764 . S
C346 O330 1.239 . S
C346 O331 1.263 . S
C346 C340 1.504 . S
C347 O332 1.236 . S
C347 O333 1.257 . S
H348 C321 0.932 . S
H349 C322 0.930 . S
H350 C323 0.932 . S
H351 C324 0.929 . S
H352 C342 0.932 . S
H353 C343 0.930 . S
H354 C344 0.932 . S
H355 C345 0.929 . S
Tb356 C365 2.764 . S
Tb356 O366 2.325 . S
Tb356 O369 2.303 . S
Tb356 O373 2.322 . S
Tb356 O374 2.349 . S
Tb356 O377 2.415 . S
Tb356 O378 2.399 . S
Tb357 O367 2.322 . S
Tb357 O368 2.349 . S
Tb357 O370 2.415 . S
Tb357 O371 2.399 . S
Tb357 O372 2.325 . S
Tb357 O375 2.303 . S
Tb357 C386 2.764 . S
C358 O374 1.261 . S
C358 O375 1.257 . S
C359 C362 1.358 . S
C359 C363 1.332 . S
C359 C365 1.504 . S
C360 C361 1.373 . S
C360 C364 1.308 . S
C361 C360 1.373 . S
C361 C362 1.429 . S
C361 H388 0.932 . S
C362 C359 1.358 . S
C362 C361 1.429 . S
C362 H389 0.930 . S
C363 C359 1.332 . S
C363 C364 1.394 . S
C363 H390 0.932 . S
C364 C360 1.308 . S
C364 C363 1.394 . S
C364 H391 0.929 . S
C365 Tb356 2.764 . S
C365 C359 1.504 . S
C365 O377 1.239 . S
C365 O378 1.263 . S
O366 Tb356 2.325 . S
O366 C376 1.236 . S
O367 Tb357 2.322 . S
O367 C376 1.257 . S
O368 Tb357 2.349 . S
O368 C379 1.261 . S
O369 Tb356 2.303 . S
O369 C379 1.257 . S
O370 Tb357 2.415 . S
O370 C386 1.239 . S
O371 Tb357 2.399 . S
O371 C386 1.263 . S
O372 Tb357 2.325 . S
O372 C387 1.236 . S
O373 Tb356 2.322 . S
O373 C387 1.257 . S
O374 Tb356 2.349 . S
O374 C358 1.261 . S
O375 Tb357 2.303 . S
O375 C358 1.257 . S
C376 O366 1.236 . S
C376 O367 1.257 . S
O377 Tb356 2.415 . S
O377 C365 1.239 . S
O378 Tb356 2.399 . S
O378 C365 1.263 . S
C379 O368 1.261 . S
C379 O369 1.257 . S
C380 C383 1.358 . S
C380 C384 1.332 . S
C380 C386 1.504 . S
C381 C382 1.373 . S
C381 C385 1.308 . S
C382 C381 1.373 . S
C382 C383 1.429 . S
C382 H392 0.932 . S
C383 C380 1.358 . S
C383 C382 1.429 . S
C383 H393 0.930 . S
C384 C380 1.332 . S
C384 C385 1.394 . S
C384 H394 0.932 . S
C385 C381 1.308 . S
C385 C384 1.394 . S
C385 H395 0.929 . S
C386 Tb357 2.764 . S
C386 O370 1.239 . S
C386 O371 1.263 . S
C386 C380 1.504 . S
C387 O372 1.236 . S
C387 O373 1.257 . S
H388 C361 0.932 . S
H389 C362 0.930 . S
H390 C363 0.932 . S
H391 C364 0.929 . S
H392 C382 0.932 . S
H393 C383 0.930 . S
H394 C384 0.932 . S
H395 C385 0.929 . S
Tb396 C405 2.764 . S
Tb396 O406 2.325 . S
Tb396 O409 2.303 . S
Tb396 O413 2.322 . S
Tb396 O414 2.349 . S
Tb396 O417 2.415 . S
Tb396 O418 2.399 . S
Tb397 O407 2.322 . S
Tb397 O408 2.349 . S
Tb397 O410 2.415 . S
Tb397 O411 2.399 . S
Tb397 O412 2.325 . S
Tb397 O415 2.303 . S
Tb397 C426 2.764 . S
C398 O414 1.261 . S
C398 O415 1.257 . S
C399 C402 1.358 . S
C399 C403 1.332 . S
C399 C405 1.504 . S
C400 C401 1.373 . S
C400 C404 1.308 . S
C401 C400 1.373 . S
C401 C402 1.429 . S
C401 H428 0.932 . S
C402 C399 1.358 . S
C402 C401 1.429 . S
C402 H429 0.930 . S
C403 C399 1.332 . S
C403 C404 1.394 . S
C403 H430 0.932 . S
C404 C400 1.308 . S
C404 C403 1.394 . S
C404 H431 0.929 . S
C405 Tb396 2.764 . S
C405 C399 1.504 . S
C405 O417 1.239 . S
C405 O418 1.263 . S
O406 Tb396 2.325 . S
O406 C416 1.236 . S
O407 Tb397 2.322 . S
O407 C416 1.257 . S
O408 Tb397 2.349 . S
O408 C419 1.261 . S
O409 Tb396 2.303 . S
O409 C419 1.257 . S
O410 Tb397 2.415 . S
O410 C426 1.239 . S
O411 Tb397 2.399 . S
O411 C426 1.263 . S
O412 Tb397 2.325 . S
O412 C427 1.236 . S
O413 Tb396 2.322 . S
O413 C427 1.257 . S
O414 Tb396 2.349 . S
O414 C398 1.261 . S
O415 Tb397 2.303 . S
O415 C398 1.257 . S
C416 O406 1.236 . S
C416 O407 1.257 . S
O417 Tb396 2.415 . S
O417 C405 1.239 . S
O418 Tb396 2.399 . S
O418 C405 1.263 . S
C419 O408 1.261 . S
C419 O409 1.257 . S
C420 C423 1.358 . S
C420 C424 1.332 . S
C420 C426 1.504 . S
C421 C422 1.373 . S
C421 C425 1.308 . S
C422 C421 1.373 . S
C422 C423 1.429 . S
C422 H432 0.932 . S
C423 C420 1.358 . S
C423 C422 1.429 . S
C423 H433 0.930 . S
C424 C420 1.332 . S
C424 C425 1.394 . S
C424 H434 0.932 . S
C425 C421 1.308 . S
C425 C424 1.394 . S
C425 H435 0.929 . S
C426 Tb397 2.764 . S
C426 O410 1.239 . S
C426 O411 1.263 . S
C426 C420 1.504 . S
C427 O412 1.236 . S
C427 O413 1.257 . S
H428 C401 0.932 . S
H429 C402 0.930 . S
H430 C403 0.932 . S
H431 C404 0.929 . S
H432 C422 0.932 . S
H433 C423 0.930 . S
H434 C424 0.932 . S
H435 C425 0.929 . S
Tb436 C445 2.764 . S
Tb436 O446 2.325 . S
Tb436 O449 2.303 . S
Tb436 O453 2.322 . S
Tb436 O454 2.349 . S
Tb436 O457 2.415 . S
Tb436 O458 2.399 . S
Tb437 O447 2.322 . S
Tb437 O448 2.349 . S
Tb437 O450 2.415 . S
Tb437 O451 2.399 . S
Tb437 O452 2.325 . S
Tb437 O455 2.303 . S
Tb437 C466 2.764 . S
C438 O454 1.261 . S
C438 O455 1.257 . S
C439 C442 1.358 . S
C439 C443 1.332 . S
C439 C445 1.504 . S
C440 C441 1.373 . S
C440 C444 1.308 . S
C441 C440 1.373 . S
C441 C442 1.429 . S
C441 H468 0.932 . S
C442 C439 1.358 . S
C442 C441 1.429 . S
C442 H469 0.930 . S
C443 C439 1.332 . S
C443 C444 1.394 . S
C443 H470 0.932 . S
C444 C440 1.308 . S
C444 C443 1.394 . S
C444 H471 0.929 . S
C445 Tb436 2.764 . S
C445 C439 1.504 . S
C445 O457 1.239 . S
C445 O458 1.263 . S
O446 Tb436 2.325 . S
O446 C456 1.236 . S
O447 Tb437 2.322 . S
O447 C456 1.257 . S
O448 Tb437 2.349 . S
O448 C459 1.261 . S
O449 Tb436 2.303 . S
O449 C459 1.257 . S
O450 Tb437 2.415 . S
O450 C466 1.239 . S
O451 Tb437 2.399 . S
O451 C466 1.263 . S
O452 Tb437 2.325 . S
O452 C467 1.236 . S
O453 Tb436 2.322 . S
O453 C467 1.257 . S
O454 Tb436 2.349 . S
O454 C438 1.261 . S
O455 Tb437 2.303 . S
O455 C438 1.257 . S
C456 O446 1.236 . S
C456 O447 1.257 . S
O457 Tb436 2.415 . S
O457 C445 1.239 . S
O458 Tb436 2.399 . S
O458 C445 1.263 . S
C459 O448 1.261 . S
C459 O449 1.257 . S
C460 C463 1.358 . S
C460 C464 1.332 . S
C460 C466 1.504 . S
C461 C462 1.373 . S
C461 C465 1.308 . S
C462 C461 1.373 . S
C462 C463 1.429 . S
C462 H472 0.932 . S
C463 C460 1.358 . S
C463 C462 1.429 . S
C463 H473 0.930 . S
C464 C460 1.332 . S
C464 C465 1.394 . S
C464 H474 0.932 . S
C465 C461 1.308 . S
C465 C464 1.394 . S
C465 H475 0.929 . S
C466 Tb437 2.764 . S
C466 O450 1.239 . S
C466 O451 1.263 . S
C466 C460 1.504 . S
C467 O452 1.236 . S
C467 O453 1.257 . S
H468 C441 0.932 . S
H469 C442 0.930 . S
H470 C443 0.932 . S
H471 C444 0.929 . S
H472 C462 0.932 . S
H473 C463 0.930 . S
H474 C464 0.932 . S
H475 C465 0.929 . S
Tb476 C485 2.764 . S
Tb476 O486 2.325 . S
Tb476 O489 2.303 . S
Tb476 O493 2.322 . S
Tb476 O494 2.349 . S
Tb476 O497 2.415 . S
Tb476 O498 2.399 . S
Tb477 O487 2.322 . S
Tb477 O488 2.349 . S
Tb477 O490 2.415 . S
Tb477 O491 2.399 . S
Tb477 O492 2.325 . S
Tb477 O495 2.303 . S
Tb477 C506 2.764 . S
C478 O494 1.261 . S
C478 O495 1.257 . S
C479 C482 1.358 . S
C479 C483 1.332 . S
C479 C485 1.504 . S
C480 C481 1.373 . S
C480 C484 1.308 . S
C481 C480 1.373 . S
C481 C482 1.429 . S
C481 H508 0.932 . S
C482 C479 1.358 . S
C482 C481 1.429 . S
C482 H509 0.930 . S
C483 C479 1.332 . S
C483 C484 1.394 . S
C483 H510 0.932 . S
C484 C480 1.308 . S
C484 C483 1.394 . S
C484 H511 0.929 . S
C485 Tb476 2.764 . S
C485 C479 1.504 . S
C485 O497 1.239 . S
C485 O498 1.263 . S
O486 Tb476 2.325 . S
O486 C496 1.236 . S
O487 Tb477 2.322 . S
O487 C496 1.257 . S
O488 Tb477 2.349 . S
O488 C499 1.261 . S
O489 Tb476 2.303 . S
O489 C499 1.257 . S
O490 Tb477 2.415 . S
O490 C506 1.239 . S
O491 Tb477 2.399 . S
O491 C506 1.263 . S
O492 Tb477 2.325 . S
O492 C507 1.236 . S
O493 Tb476 2.322 . S
O493 C507 1.257 . S
O494 Tb476 2.349 . S
O494 C478 1.261 . S
O495 Tb477 2.303 . S
O495 C478 1.257 . S
C496 O486 1.236 . S
C496 O487 1.257 . S
O497 Tb476 2.415 . S
O497 C485 1.239 . S
O498 Tb476 2.399 . S
O498 C485 1.263 . S
C499 O488 1.261 . S
C499 O489 1.257 . S
C500 C503 1.358 . S
C500 C504 1.332 . S
C500 C506 1.504 . S
C501 C502 1.373 . S
C501 C505 1.308 . S
C502 C501 1.373 . S
C502 C503 1.429 . S
C502 H512 0.932 . S
C503 C500 1.358 . S
C503 C502 1.429 . S
C503 H513 0.930 . S
C504 C500 1.332 . S
C504 C505 1.394 . S
C504 H514 0.932 . S
C505 C501 1.308 . S
C505 C504 1.394 . S
C505 H515 0.929 . S
C506 Tb477 2.764 . S
C506 O490 1.239 . S
C506 O491 1.263 . S
C506 C500 1.504 . S
C507 O492 1.236 . S
C507 O493 1.257 . S
H508 C481 0.932 . S
H509 C482 0.930 . S
H510 C483 0.932 . S
H511 C484 0.929 . S
H512 C502 0.932 . S
H513 C503 0.930 . S
H514 C504 0.932 . S
H515 C505 0.929 . S
Tb516 C525 2.764 . S
Tb516 O526 2.325 . S
Tb516 O529 2.303 . S
Tb516 O533 2.322 . S
Tb516 O534 2.349 . S
Tb516 O537 2.415 . S
Tb516 O538 2.399 . S
Tb517 O527 2.322 . S
Tb517 O528 2.349 . S
Tb517 O530 2.415 . S
Tb517 O531 2.399 . S
Tb517 O532 2.325 . S
Tb517 O535 2.303 . S
Tb517 C546 2.764 . S
C518 O534 1.261 . S
C518 O535 1.257 . S
C519 C522 1.358 . S
C519 C523 1.332 . S
C519 C525 1.504 . S
C520 C521 1.373 . S
C520 C524 1.308 . S
C521 C520 1.373 . S
C521 C522 1.429 . S
C521 H548 0.932 . S
C522 C519 1.358 . S
C522 C521 1.429 . S
C522 H549 0.930 . S
C523 C519 1.332 . S
C523 C524 1.394 . S
C523 H550 0.932 . S
C524 C520 1.308 . S
C524 C523 1.394 . S
C524 H551 0.929 . S
C525 Tb516 2.764 . S
C525 C519 1.504 . S
C525 O537 1.239 . S
C525 O538 1.263 . S
O526 Tb516 2.325 . S
O526 C536 1.236 . S
O527 Tb517 2.322 . S
O527 C536 1.257 . S
O528 Tb517 2.349 . S
O528 C539 1.261 . S
O529 Tb516 2.303 . S
O529 C539 1.257 . S
O530 Tb517 2.415 . S
O530 C546 1.239 . S
O531 Tb517 2.399 . S
O531 C546 1.263 . S
O532 Tb517 2.325 . S
O532 C547 1.236 . S
O533 Tb516 2.322 . S
O533 C547 1.257 . S
O534 Tb516 2.349 . S
O534 C518 1.261 . S
O535 Tb517 2.303 . S
O535 C518 1.257 . S
C536 O526 1.236 . S
C536 O527 1.257 . S
O537 Tb516 2.415 . S
O537 C525 1.239 . S
O538 Tb516 2.399 . S
O538 C525 1.263 . S
C539 O528 1.261 . S
C539 O529 1.257 . S
C540 C543 1.358 . S
C540 C544 1.332 . S
C540 C546 1.504 . S
C541 C542 1.373 . S
C541 C545 1.308 . S
C542 C541 1.373 . S
C542 C543 1.429 . S
C542 H552 0.932 . S
C543 C540 1.358 . S
C543 C542 1.429 . S
C543 H553 0.930 . S
C544 C540 1.332 . S
C544 C545 1.394 . S
C544 H554 0.932 . S
C545 C541 1.308 . S
C545 C544 1.394 . S
C545 H555 0.929 . S
C546 Tb517 2.764 . S
C546 O530 1.239 . S
C546 O531 1.263 . S
C546 C540 1.504 . S
C547 O532 1.236 . S
C547 O533 1.257 . S
H548 C521 0.932 . S
H549 C522 0.930 . S
H550 C523 0.932 . S
H551 C524 0.929 . S
H552 C542 0.932 . S
H553 C543 0.930 . S
H554 C544 0.932 . S
H555 C545 0.929 . S
Tb556 C565 2.764 . S
Tb556 O566 2.325 . S
Tb556 O569 2.303 . S
Tb556 O573 2.322 . S
Tb556 O574 2.349 . S
Tb556 O577 2.415 . S
Tb556 O578 2.399 . S
Tb557 O567 2.322 . S
Tb557 O568 2.349 . S
Tb557 O570 2.415 . S
Tb557 O571 2.399 . S
Tb557 O572 2.325 . S
Tb557 O575 2.303 . S
Tb557 C586 2.764 . S
C558 O574 1.261 . S
C558 O575 1.257 . S
C559 C562 1.358 . S
C559 C563 1.332 . S
C559 C565 1.504 . S
C560 C561 1.373 . S
C560 C564 1.308 . S
C561 C560 1.373 . S
C561 C562 1.429 . S
C561 H588 0.932 . S
C562 C559 1.358 . S
C562 C561 1.429 . S
C562 H589 0.930 . S
C563 C559 1.332 . S
C563 C564 1.394 . S
C563 H590 0.932 . S
C564 C560 1.308 . S
C564 C563 1.394 . S
C564 H591 0.929 . S
C565 Tb556 2.764 . S
C565 C559 1.504 . S
C565 O577 1.239 . S
C565 O578 1.263 . S
O566 Tb556 2.325 . S
O566 C576 1.236 . S
O567 Tb557 2.322 . S
O567 C576 1.257 . S
O568 Tb557 2.349 . S
O568 C579 1.261 . S
O569 Tb556 2.303 . S
O569 C579 1.257 . S
O570 Tb557 2.415 . S
O570 C586 1.239 . S
O571 Tb557 2.399 . S
O571 C586 1.263 . S
O572 Tb557 2.325 . S
O572 C587 1.236 . S
O573 Tb556 2.322 . S
O573 C587 1.257 . S
O574 Tb556 2.349 . S
O574 C558 1.261 . S
O575 Tb557 2.303 . S
O575 C558 1.257 . S
C576 O566 1.236 . S
C576 O567 1.257 . S
O577 Tb556 2.415 . S
O577 C565 1.239 . S
O578 Tb556 2.399 . S
O578 C565 1.263 . S
C579 O568 1.261 . S
C579 O569 1.257 . S
C580 C583 1.358 . S
C580 C584 1.332 . S
C580 C586 1.504 . S
C581 C582 1.373 . S
C581 C585 1.308 . S
C582 C581 1.373 . S
C582 C583 1.429 . S
C582 H592 0.932 . S
C583 C580 1.358 . S
C583 C582 1.429 . S
C583 H593 0.930 . S
C584 C580 1.332 . S
C584 C585 1.394 . S
C584 H594 0.932 . S
C585 C581 1.308 . S
C585 C584 1.394 . S
C585 H595 0.929 . S
C586 Tb557 2.764 . S
C586 O570 1.239 . S
C586 O571 1.263 . S
C586 C580 1.504 . S
C587 O572 1.236 . S
C587 O573 1.257 . S
H588 C561 0.932 . S
H589 C562 0.930 . S
H590 C563 0.932 . S
H591 C564 0.929 . S
H592 C582 0.932 . S
H593 C583 0.930 . S
H594 C584 0.932 . S
H595 C585 0.929 . S
C596 C597 1.391 . S
C596 C598 1.394 . S
C596 H612 0.931 . S
C597 C596 1.391 . S
C597 C601 1.376 . S
C598 C596 1.394 . S
C598 C599 1.369 . S
C598 C602 1.531 . S
C599 C598 1.369 . S
C599 C600 1.410 . S
C599 C607 1.503 . S
C600 C599 1.410 . S
C600 C601 1.392 . S
C600 C603 1.511 . S
C601 C597 1.376 . S
C601 C600 1.392 . S
C601 H613 0.929 . S
C602 C598 1.531 . S
C602 H614 0.960 . S
C602 H615 0.962 . S
C602 H616 0.960 . S
C603 C600 1.511 . S
C603 H617 0.961 . S
C603 H618 0.961 . S
C603 H619 0.961 . S
C604 C605 1.370 . S
C604 C606 1.363 . S
C604 H620 0.931 . S
C605 C604 1.370 . S
C605 C609 1.408 . S
C606 C604 1.363 . S
C606 C607 1.370 . S
C606 C610 1.524 . S
C607 C599 1.503 . S
C607 C606 1.370 . S
C607 C608 1.403 . S
C608 C607 1.403 . S
C608 C609 1.404 . S
C608 C611 1.539 . S
C609 C605 1.408 . S
C609 C608 1.404 . S
C609 H621 0.930 . S
C610 C606 1.524 . S
C610 H622 0.956 . S
C610 H623 0.961 . S
C610 H624 0.961 . S
C611 C608 1.539 . S
C611 H625 0.958 . S
C611 H626 0.961 . S
C611 H627 0.960 . S
H612 C596 0.931 . S
H613 C601 0.929 . S
H614 C602 0.960 . S
H615 C602 0.962 . S
H616 C602 0.960 . S
H617 C603 0.961 . S
H618 C603 0.961 . S
H619 C603 0.961 . S
H620 C604 0.931 . S
H621 C609 0.930 . S
H622 C610 0.956 . S
H623 C610 0.961 . S
H624 C610 0.961 . S
H625 C611 0.958 . S
H626 C611 0.961 . S
H627 C611 0.960 . S
C628 C629 1.391 . S
C628 C630 1.394 . S
C628 H644 0.931 . S
C629 C628 1.391 . S
C629 C633 1.376 . S
C630 C628 1.394 . S
C630 C631 1.369 . S
C630 C634 1.531 . S
C631 C630 1.369 . S
C631 C632 1.410 . S
C631 C639 1.503 . S
C632 C631 1.410 . S
C632 C633 1.392 . S
C632 C635 1.511 . S
C633 C629 1.376 . S
C633 C632 1.392 . S
C633 H645 0.929 . S
C634 C630 1.531 . S
C634 H646 0.960 . S
C634 H647 0.962 . S
C634 H648 0.960 . S
C635 C632 1.511 . S
C635 H649 0.961 . S
C635 H650 0.961 . S
C635 H651 0.961 . S
C636 C637 1.370 . S
C636 C638 1.363 . S
C636 H652 0.931 . S
C637 C636 1.370 . S
C637 C641 1.408 . S
C638 C636 1.363 . S
C638 C639 1.370 . S
C638 C642 1.524 . S
C639 C631 1.503 . S
C639 C638 1.370 . S
C639 C640 1.403 . S
C640 C639 1.403 . S
C640 C641 1.404 . S
C640 C643 1.539 . S
C641 C637 1.408 . S
C641 C640 1.404 . S
C641 H653 0.930 . S
C642 C638 1.524 . S
C642 H654 0.956 . S
C642 H655 0.961 . S
C642 H656 0.961 . S
C643 C640 1.539 . S
C643 H657 0.958 . S
C643 H658 0.961 . S
C643 H659 0.960 . S
H644 C628 0.931 . S
H645 C633 0.929 . S
H646 C634 0.960 . S
H647 C634 0.962 . S
H648 C634 0.960 . S
H649 C635 0.961 . S
H650 C635 0.961 . S
H651 C635 0.961 . S
H652 C636 0.931 . S
H653 C641 0.930 . S
H654 C642 0.956 . S
H655 C642 0.961 . S
H656 C642 0.961 . S
H657 C643 0.958 . S
H658 C643 0.961 . S
H659 C643 0.960 . S
C660 C661 1.391 . S
C660 C662 1.394 . S
C660 H676 0.931 . S
C661 C660 1.391 . S
C661 C665 1.376 . S
C662 C660 1.394 . S
C662 C663 1.369 . S
C662 C666 1.531 . S
C663 C662 1.369 . S
C663 C664 1.410 . S
C663 C671 1.503 . S
C664 C663 1.410 . S
C664 C665 1.392 . S
C664 C667 1.511 . S
C665 C661 1.376 . S
C665 C664 1.392 . S
C665 H677 0.929 . S
C666 C662 1.531 . S
C666 H678 0.960 . S
C666 H679 0.962 . S
C666 H680 0.960 . S
C667 C664 1.511 . S
C667 H681 0.961 . S
C667 H682 0.961 . S
C667 H683 0.961 . S
C668 C669 1.370 . S
C668 C670 1.363 . S
C668 H684 0.931 . S
C669 C668 1.370 . S
C669 C673 1.408 . S
C670 C668 1.363 . S
C670 C671 1.370 . S
C670 C674 1.524 . S
C671 C663 1.503 . S
C671 C670 1.370 . S
C671 C672 1.403 . S
C672 C671 1.403 . S
C672 C673 1.404 . S
C672 C675 1.539 . S
C673 C669 1.408 . S
C673 C672 1.404 . S
C673 H685 0.930 . S
C674 C670 1.524 . S
C674 H686 0.956 . S
C674 H687 0.961 . S
C674 H688 0.961 . S
C675 C672 1.539 . S
C675 H689 0.958 . S
C675 H690 0.961 . S
C675 H691 0.960 . S
H676 C660 0.931 . S
H677 C665 0.929 . S
H678 C666 0.960 . S
H679 C666 0.962 . S
H680 C666 0.960 . S
H681 C667 0.961 . S
H682 C667 0.961 . S
H683 C667 0.961 . S
H684 C668 0.931 . S
H685 C673 0.930 . S
H686 C674 0.956 . S
H687 C674 0.961 . S
H688 C674 0.961 . S
H689 C675 0.958 . S
H690 C675 0.961 . S
H691 C675 0.960 . S
C692 C693 1.391 . S
C692 C694 1.394 . S
C692 H708 0.931 . S
C693 C692 1.391 . S
C693 C697 1.376 . S
C694 C692 1.394 . S
C694 C695 1.369 . S
C694 C698 1.531 . S
C695 C694 1.369 . S
C695 C696 1.410 . S
C695 C703 1.503 . S
C696 C695 1.410 . S
C696 C697 1.392 . S
C696 C699 1.511 . S
C697 C693 1.376 . S
C697 C696 1.392 . S
C697 H709 0.929 . S
C698 C694 1.531 . S
C698 H710 0.960 . S
C698 H711 0.962 . S
C698 H712 0.960 . S
C699 C696 1.511 . S
C699 H713 0.961 . S
C699 H714 0.961 . S
C699 H715 0.961 . S
C700 C701 1.370 . S
C700 C702 1.363 . S
C700 H716 0.931 . S
C701 C700 1.370 . S
C701 C705 1.408 . S
C702 C700 1.363 . S
C702 C703 1.370 . S
C702 C706 1.524 . S
C703 C695 1.503 . S
C703 C702 1.370 . S
C703 C704 1.403 . S
C704 C703 1.403 . S
C704 C705 1.404 . S
C704 C707 1.539 . S
C705 C701 1.408 . S
C705 C704 1.404 . S
C705 H717 0.930 . S
C706 C702 1.524 . S
C706 H718 0.956 . S
C706 H719 0.961 . S
C706 H720 0.961 . S
C707 C704 1.539 . S
C707 H721 0.958 . S
C707 H722 0.961 . S
C707 H723 0.960 . S
H708 C692 0.931 . S
H709 C697 0.929 . S
H710 C698 0.960 . S
H711 C698 0.962 . S
H712 C698 0.960 . S
H713 C699 0.961 . S
H714 C699 0.961 . S
H715 C699 0.961 . S
H716 C700 0.931 . S
H717 C705 0.930 . S
H718 C706 0.956 . S
H719 C706 0.961 . S
H720 C706 0.961 . S
H721 C707 0.958 . S
H722 C707 0.961 . S
H723 C707 0.960 . S
C724 C725 1.391 . S
C724 C726 1.394 . S
C724 H740 0.931 . S
C725 C724 1.391 . S
C725 C729 1.376 . S
C726 C724 1.394 . S
C726 C727 1.369 . S
C726 C730 1.531 . S
C727 C726 1.369 . S
C727 C728 1.410 . S
C727 C735 1.503 . S
C728 C727 1.410 . S
C728 C729 1.392 . S
C728 C731 1.511 . S
C729 C725 1.376 . S
C729 C728 1.392 . S
C729 H741 0.929 . S
C730 C726 1.531 . S
C730 H742 0.960 . S
C730 H743 0.962 . S
C730 H744 0.960 . S
C731 C728 1.511 . S
C731 H745 0.961 . S
C731 H746 0.961 . S
C731 H747 0.961 . S
C732 C733 1.370 . S
C732 C734 1.363 . S
C732 H748 0.931 . S
C733 C732 1.370 . S
C733 C737 1.408 . S
C734 C732 1.363 . S
C734 C735 1.370 . S
C734 C738 1.524 . S
C735 C727 1.503 . S
C735 C734 1.370 . S
C735 C736 1.403 . S
C736 C735 1.403 . S
C736 C737 1.404 . S
C736 C739 1.539 . S
C737 C733 1.408 . S
C737 C736 1.404 . S
C737 H749 0.930 . S
C738 C734 1.524 . S
C738 H750 0.956 . S
C738 H751 0.961 . S
C738 H752 0.961 . S
C739 C736 1.539 . S
C739 H753 0.958 . S
C739 H754 0.961 . S
C739 H755 0.960 . S
H740 C724 0.931 . S
H741 C729 0.929 . S
H742 C730 0.960 . S
H743 C730 0.962 . S
H744 C730 0.960 . S
H745 C731 0.961 . S
H746 C731 0.961 . S
H747 C731 0.961 . S
H748 C732 0.931 . S
H749 C737 0.930 . S
H750 C738 0.956 . S
H751 C738 0.961 . S
H752 C738 0.961 . S
H753 C739 0.958 . S
H754 C739 0.961 . S
H755 C739 0.960 . S
C756 C757 1.391 . S
C756 C758 1.394 . S
C756 H772 0.931 . S
C757 C756 1.391 . S
C757 C761 1.376 . S
C758 C756 1.394 . S
C758 C759 1.369 . S
C758 C762 1.531 . S
C759 C758 1.369 . S
C759 C760 1.410 . S
C759 C767 1.503 . S
C760 C759 1.410 . S
C760 C761 1.392 . S
C760 C763 1.511 . S
C761 C757 1.376 . S
C761 C760 1.392 . S
C761 H773 0.929 . S
C762 C758 1.531 . S
C762 H774 0.960 . S
C762 H775 0.962 . S
C762 H776 0.960 . S
C763 C760 1.511 . S
C763 H777 0.961 . S
C763 H778 0.961 . S
C763 H779 0.961 . S
C764 C765 1.370 . S
C764 C766 1.363 . S
C764 H780 0.931 . S
C765 C764 1.370 . S
C765 C769 1.408 . S
C766 C764 1.363 . S
C766 C767 1.370 . S
C766 C770 1.524 . S
C767 C759 1.503 . S
C767 C766 1.370 . S
C767 C768 1.403 . S
C768 C767 1.403 . S
C768 C769 1.404 . S
C768 C771 1.539 . S
C769 C765 1.408 . S
C769 C768 1.404 . S
C769 H781 0.930 . S
C770 C766 1.524 . S
C770 H782 0.956 . S
C770 H783 0.961 . S
C770 H784 0.961 . S
C771 C768 1.539 . S
C771 H785 0.958 . S
C771 H786 0.961 . S
C771 H787 0.960 . S
H772 C756 0.931 . S
H773 C761 0.929 . S
H774 C762 0.960 . S
H775 C762 0.962 . S
H776 C762 0.960 . S
H777 C763 0.961 . S
H778 C763 0.961 . S
H779 C763 0.961 . S
H780 C764 0.931 . S
H781 C769 0.930 . S
H782 C770 0.956 . S
H783 C770 0.961 . S
H784 C770 0.961 . S
H785 C771 0.958 . S
H786 C771 0.961 . S
H787 C771 0.960 . S
C788 C789 1.391 . S
C788 C790 1.394 . S
C788 H804 0.931 . S
C789 C788 1.391 . S
C789 C793 1.376 . S
C790 C788 1.394 . S
C790 C791 1.369 . S
C790 C794 1.531 . S
C791 C790 1.369 . S
C791 C792 1.410 . S
C791 C799 1.503 . S
C792 C791 1.410 . S
C792 C793 1.392 . S
C792 C795 1.511 . S
C793 C789 1.376 . S
C793 C792 1.392 . S
C793 H805 0.929 . S
C794 C790 1.531 . S
C794 H806 0.960 . S
C794 H807 0.962 . S
C794 H808 0.960 . S
C795 C792 1.511 . S
C795 H809 0.961 . S
C795 H810 0.961 . S
C795 H811 0.961 . S
C796 C797 1.370 . S
C796 C798 1.363 . S
C796 H812 0.931 . S
C797 C796 1.370 . S
C797 C801 1.408 . S
C798 C796 1.363 . S
C798 C799 1.370 . S
C798 C802 1.524 . S
C799 C791 1.503 . S
C799 C798 1.370 . S
C799 C800 1.403 . S
C800 C799 1.403 . S
C800 C801 1.404 . S
C800 C803 1.539 . S
C801 C797 1.408 . S
C801 C800 1.404 . S
C801 H813 0.930 . S
C802 C798 1.524 . S
C802 H814 0.956 . S
C802 H815 0.961 . S
C802 H816 0.961 . S
C803 C800 1.539 . S
C803 H817 0.958 . S
C803 H818 0.961 . S
C803 H819 0.960 . S
H804 C788 0.931 . S
H805 C793 0.929 . S
H806 C794 0.960 . S
H807 C794 0.962 . S
H808 C794 0.960 . S
H809 C795 0.961 . S
H810 C795 0.961 . S
H811 C795 0.961 . S
H812 C796 0.931 . S
H813 C801 0.930 . S
H814 C802 0.956 . S
H815 C802 0.961 . S
H816 C802 0.961 . S
H817 C803 0.958 . S
H818 C803 0.961 . S
H819 C803 0.960 . S
C820 C821 1.391 1_545 S
C820 C822 1.394 1_545 S
C820 H836 0.931 . S
C821 C820 1.391 1_565 S
C821 C825 1.376 . S
C822 C820 1.394 1_565 S
C822 C823 1.369 . S
C822 C826 1.531 1_565 S
C823 C822 1.369 . S
C823 C824 1.410 . S
C823 C831 1.503 . S
C824 C823 1.410 . S
C824 C825 1.392 . S
C824 C827 1.511 . S
C825 C821 1.376 . S
C825 C824 1.392 . S
C825 H837 0.929 . S
C826 C822 1.531 1_545 S
C826 H838 0.977 . S
C826 H839 0.962 . S
C826 H840 0.960 . S
C827 C824 1.511 . S
C827 H841 0.961 . S
C827 H842 0.961 . S
C827 H843 0.961 . S
C828 C829 1.370 . S
C828 C830 1.363 . S
C828 H844 0.931 . S
C829 C828 1.370 . S
C829 C833 1.408 . S
C830 C828 1.363 . S
C830 C831 1.370 . S
C830 C834 1.524 . S
C831 C823 1.503 . S
C831 C830 1.370 . S
C831 C832 1.403 . S
C832 C831 1.403 . S
C832 C833 1.404 . S
C832 C835 1.539 . S
C833 C829 1.408 . S
C833 C832 1.404 . S
C833 H845 0.930 . S
C834 C830 1.524 . S
C834 H846 0.956 . S
C834 H847 0.961 . S
C834 H848 0.961 . S
C835 C832 1.539 . S
C835 H849 0.958 . S
C835 H850 0.961 . S
C835 H851 0.960 . S
H836 C820 0.931 . S
H837 C825 0.929 . S
H838 C826 0.977 . S
H839 C826 0.962 . S
H840 C826 0.960 . S
H841 C827 0.961 . S
H842 C827 0.961 . S
H843 C827 0.961 . S
H844 C828 0.931 . S
H845 C833 0.930 . S
H846 C834 0.956 . S
H847 C834 0.961 . S
H848 C834 0.961 . S
H849 C835 0.958 . S
H850 C835 0.961 . S
H851 C835 0.960 . S
C852 C853 1.391 . S
C852 C854 1.394 . S
C852 H868 0.931 . S
C853 C852 1.391 . S
C853 C857 1.376 . S
C854 C852 1.394 . S
C854 C855 1.369 . S
C854 C858 1.531 . S
C855 C854 1.369 . S
C855 C856 1.410 . S
C855 C863 1.503 . S
C856 C855 1.410 . S
C856 C857 1.392 . S
C856 C859 1.511 . S
C857 C853 1.376 . S
C857 C856 1.392 . S
C857 H869 0.929 . S
C858 C854 1.531 . S
C858 H870 0.960 . S
C858 H871 0.962 . S
C858 H872 0.960 . S
C859 C856 1.511 . S
C859 H873 0.961 . S
C859 H874 0.961 . S
C859 H875 0.961 . S
C860 C861 1.370 . S
C860 C862 1.363 . S
C860 H876 0.931 . S
C861 C860 1.370 . S
C861 C865 1.408 . S
C862 C860 1.363 . S
C862 C863 1.370 . S
C862 C866 1.524 . S
C863 C855 1.503 . S
C863 C862 1.370 . S
C863 C864 1.403 . S
C864 C863 1.403 . S
C864 C865 1.404 . S
C864 C867 1.539 . S
C865 C861 1.408 . S
C865 C864 1.404 . S
C865 H877 0.930 . S
C866 C862 1.524 . S
C866 H878 0.956 . S
C866 H879 0.961 . S
C866 H880 0.961 . S
C867 C864 1.539 . S
C867 H881 0.958 . S
C867 H882 0.961 . S
C867 H883 0.960 . S
H868 C852 0.931 . S
H869 C857 0.929 . S
H870 C858 0.960 . S
H871 C858 0.962 . S
H872 C858 0.960 . S
H873 C859 0.961 . S
H874 C859 0.961 . S
H875 C859 0.961 . S
H876 C860 0.931 . S
H877 C865 0.930 . S
H878 C866 0.956 . S
H879 C866 0.961 . S
H880 C866 0.961 . S
H881 C867 0.958 . S
H882 C867 0.961 . S
H883 C867 0.960 . S
C884 C885 1.391 . S
C884 C886 1.394 . S
C884 H900 0.931 . S
C885 C884 1.391 . S
C885 C889 1.376 . S
C886 C884 1.394 . S
C886 C887 1.369 . S
C886 C890 1.531 . S
C887 C886 1.369 . S
C887 C888 1.410 . S
C887 C895 1.503 . S
C888 C887 1.410 . S
C888 C889 1.392 . S
C888 C891 1.511 . S
C889 C885 1.376 . S
C889 C888 1.392 . S
C889 H901 0.929 . S
C890 C886 1.531 . S
C890 H902 0.960 . S
C890 H903 0.962 . S
C890 H904 0.960 . S
C891 C888 1.511 . S
C891 H905 0.961 . S
C891 H906 0.961 . S
C891 H907 0.961 . S
C892 C893 1.370 . S
C892 C894 1.363 . S
C892 H908 0.931 . S
C893 C892 1.370 . S
C893 C897 1.408 . S
C894 C892 1.363 . S
C894 C895 1.370 . S
C894 C898 1.524 . S
C895 C887 1.503 . S
C895 C894 1.370 . S
C895 C896 1.403 . S
C896 C895 1.403 . S
C896 C897 1.404 . S
C896 C899 1.539 . S
C897 C893 1.408 . S
C897 C896 1.404 . S
C897 H909 0.930 . S
C898 C894 1.524 . S
C898 H910 0.956 . S
C898 H911 0.961 . S
C898 H912 0.961 . S
C899 C896 1.539 . S
C899 H913 0.958 . S
C899 H914 0.961 . S
C899 H915 0.960 . S
H900 C884 0.931 . S
H901 C889 0.929 . S
H902 C890 0.960 . S
H903 C890 0.962 . S
H904 C890 0.960 . S
H905 C891 0.961 . S
H906 C891 0.961 . S
H907 C891 0.961 . S
H908 C892 0.931 . S
H909 C897 0.930 . S
H910 C898 0.956 . S
H911 C898 0.961 . S
H912 C898 0.961 . S
H913 C899 0.958 . S
H914 C899 0.961 . S
H915 C899 0.960 . S
C916 C917 1.391 . S
C916 C918 1.394 . S
C916 H932 0.931 . S
C917 C916 1.391 . S
C917 C921 1.376 . S
C918 C916 1.394 . S
C918 C919 1.369 . S
C918 C922 1.531 . S
C919 C918 1.369 . S
C919 C920 1.410 . S
C919 C927 1.503 . S
C920 C919 1.410 . S
C920 C921 1.392 . S
C920 C923 1.511 . S
C921 C917 1.376 . S
C921 C920 1.392 . S
C921 H933 0.929 . S
C922 C918 1.531 . S
C922 H934 0.960 . S
C922 H935 0.962 . S
C922 H936 0.960 . S
C923 C920 1.511 . S
C923 H937 0.961 . S
C923 H938 0.961 . S
C923 H939 0.961 . S
C924 C925 1.370 . S
C924 C926 1.363 . S
C924 H940 0.931 . S
C925 C924 1.370 . S
C925 C929 1.408 . S
C926 C924 1.363 . S
C926 C927 1.370 . S
C926 C930 1.524 . S
C927 C919 1.503 . S
C927 C926 1.370 . S
C927 C928 1.403 . S
C928 C927 1.403 . S
C928 C929 1.404 . S
C928 C931 1.539 . S
C929 C925 1.408 . S
C929 C928 1.404 . S
C929 H941 0.930 . S
C930 C926 1.524 . S
C930 H942 0.956 . S
C930 H943 0.961 . S
C930 H944 0.961 . S
C931 C928 1.539 . S
C931 H945 0.958 . S
C931 H946 0.961 . S
C931 H947 0.960 . S
H932 C916 0.931 . S
H933 C921 0.929 . S
H934 C922 0.960 . S
H935 C922 0.962 . S
H936 C922 0.960 . S
H937 C923 0.961 . S
H938 C923 0.961 . S
H939 C923 0.961 . S
H940 C924 0.931 . S
H941 C929 0.930 . S
H942 C930 0.956 . S
H943 C930 0.961 . S
H944 C930 0.961 . S
H945 C931 0.958 . S
H946 C931 0.961 . S
H947 C931 0.960 . S
C948 C949 1.391 . S
C948 C950 1.394 . S
C948 H964 0.931 . S
C949 C948 1.391 . S
C949 C953 1.376 . S
C950 C948 1.394 . S
C950 C951 1.369 . S
C950 C954 1.531 . S
C951 C950 1.369 . S
C951 C952 1.410 . S
C951 C959 1.503 . S
C952 C951 1.410 . S
C952 C953 1.392 . S
C952 C955 1.511 . S
C953 C949 1.376 . S
C953 C952 1.392 . S
C953 H965 0.929 . S
C954 C950 1.531 . S
C954 H966 0.960 . S
C954 H967 0.962 . S
C954 H968 0.960 . S
C955 C952 1.511 . S
C955 H969 0.961 . S
C955 H970 0.961 . S
C955 H971 0.961 . S
C956 C957 1.370 . S
C956 C958 1.363 . S
C956 H972 0.931 . S
C957 C956 1.370 . S
C957 C961 1.408 . S
C958 C956 1.363 . S
C958 C959 1.370 . S
C958 C962 1.524 . S
C959 C951 1.503 . S
C959 C958 1.370 . S
C959 C960 1.403 . S
C960 C959 1.403 . S
C960 C961 1.404 . S
C960 C963 1.539 . S
C961 C957 1.408 . S
C961 C960 1.404 . S
C961 H973 0.930 . S
C962 C958 1.524 . S
C962 H974 0.956 . S
C962 H975 0.961 . S
C962 H976 0.961 . S
C963 C960 1.539 . S
C963 H977 0.958 . S
C963 H978 0.961 . S
C963 H979 0.960 . S
H964 C948 0.931 . S
H965 C953 0.929 . S
H966 C954 0.960 . S
H967 C954 0.962 . S
H968 C954 0.960 . S
H969 C955 0.961 . S
H970 C955 0.961 . S
H971 C955 0.961 . S
H972 C956 0.931 . S
H973 C961 0.930 . S
H974 C962 0.956 . S
H975 C962 0.961 . S
H976 C962 0.961 . S
H977 C963 0.958 . S
H978 C963 0.961 . S
H979 C963 0.960 . S
C980 C981 1.391 . S
C980 C982 1.394 . S
C980 H996 0.931 . S
C981 C980 1.391 . S
C981 C985 1.376 . S
C982 C980 1.394 . S
C982 C983 1.369 1_554 S
C982 C986 1.531 . S
C983 C982 1.369 1_556 S
C983 C984 1.410 . S
C983 C991 1.503 . S
C984 C983 1.410 . S
C984 C985 1.392 1_556 S
C984 C987 1.511 . S
C985 C981 1.376 . S
C985 C984 1.392 1_554 S
C985 H997 0.929 1_554 S
C986 C982 1.531 . S
C986 H998 0.960 . S
C986 H999 0.962 . S
C986 H1000 0.960 . S
C987 C984 1.511 . S
C987 H1001 0.961 . S
C987 H1002 0.961 . S
C987 H1003 0.961 . S
C988 C989 1.370 . S
C988 C990 1.363 . S
C988 H1004 0.931 . S
C989 C988 1.370 . S
C989 C993 1.408 . S
C990 C988 1.363 . S
C990 C991 1.370 . S
C990 C994 1.524 1_556 S
C991 C983 1.503 . S
C991 C990 1.370 . S
C991 C992 1.403 . S
C992 C991 1.403 . S
C992 C993 1.404 . S
C992 C995 1.539 . S
C993 C989 1.408 . S
C993 C992 1.404 . S
C993 H1005 0.930 . S
C994 C990 1.524 1_554 S
C994 H1006 0.956 . S
C994 H1007 0.961 . S
C994 H1008 0.961 . S
C995 C992 1.539 . S
C995 H1009 0.958 . S
C995 H1010 0.961 . S
C995 H1011 0.960 . S
H996 C980 0.931 . S
H997 C985 0.929 1_556 S
H998 C986 0.960 . S
H999 C986 0.962 . S
H1000 C986 0.960 . S
H1001 C987 0.961 . S
H1002 C987 0.961 . S
H1003 C987 0.961 . S
H1004 C988 0.931 . S
H1005 C993 0.930 . S
H1006 C994 0.956 . S
H1007 C994 0.961 . S
H1008 C994 0.961 . S
H1009 C995 0.958 . S
H1010 C995 0.961 . S
H1011 C995 0.960 . S
C1012 C1013 1.391 . S
C1012 C1014 1.394 . S
C1012 H1028 0.931 1_556 S
C1013 C1012 1.391 . S
C1013 C1017 1.376 . S
C1014 C1012 1.394 . S
C1014 C1015 1.369 . S
C1014 C1018 1.531 . S
C1015 C1014 1.369 . S
C1015 C1016 1.410 . S
C1015 C1023 1.503 . S
C1016 C1015 1.410 . S
C1016 C1017 1.392 . S
C1016 C1019 1.511 . S
C1017 C1013 1.376 . S
C1017 C1016 1.392 . S
C1017 H1029 0.929 . S
C1018 C1014 1.531 . S
C1018 H1030 0.960 . S
C1018 H1031 0.962 . S
C1018 H1032 0.960 . S
C1019 C1016 1.511 . S
C1019 H1033 0.961 . S
C1019 H1034 0.961 . S
C1019 H1035 0.961 . S
C1020 C1021 1.370 . S
C1020 C1022 1.363 . S
C1020 H1036 0.931 . S
C1021 C1020 1.370 . S
C1021 C1025 1.408 . S
C1022 C1020 1.363 . S
C1022 C1023 1.370 . S
C1022 C1026 1.524 . S
C1023 C1015 1.503 . S
C1023 C1022 1.370 . S
C1023 C1024 1.403 . S
C1024 C1023 1.403 . S
C1024 C1025 1.404 . S
C1024 C1027 1.539 . S
C1025 C1021 1.408 . S
C1025 C1024 1.404 . S
C1025 H1037 0.930 . S
C1026 C1022 1.524 . S
C1026 H1038 0.956 . S
C1026 H1039 0.961 . S
C1026 H1040 0.961 . S
C1027 C1024 1.539 . S
C1027 H1041 0.958 . S
C1027 H1042 0.961 . S
C1027 H1043 0.960 . S
H1028 C1012 0.931 1_554 S
H1029 C1017 0.929 . S
H1030 C1018 0.960 . S
H1031 C1018 0.962 . S
H1032 C1018 0.960 . S
H1033 C1019 0.961 . S
H1034 C1019 0.961 . S
H1035 C1019 0.961 . S
H1036 C1020 0.931 . S
H1037 C1025 0.930 . S
H1038 C1026 0.956 . S
H1039 C1026 0.961 . S
H1040 C1026 0.961 . S
H1041 C1027 0.958 . S
H1042 C1027 0.961 . S
H1043 C1027 0.960 . S
C1044 C1045 1.391 . S
C1044 C1046 1.394 . S
C1044 H1060 0.931 . S
C1045 C1044 1.391 . S
C1045 C1049 1.376 . S
C1046 C1044 1.394 . S
C1046 C1047 1.369 . S
C1046 C1050 1.531 . S
C1047 C1046 1.369 . S
C1047 C1048 1.410 . S
C1047 C1055 1.503 . S
C1048 C1047 1.410 . S
C1048 C1049 1.392 . S
C1048 C1051 1.511 . S
C1049 C1045 1.376 . S
C1049 C1048 1.392 . S
C1049 H1061 0.929 . S
C1050 C1046 1.531 . S
C1050 H1062 0.960 . S
C1050 H1063 0.962 . S
C1050 H1064 0.960 . S
C1051 C1048 1.511 . S
C1051 H1065 0.961 . S
C1051 H1066 0.961 . S
C1051 H1067 0.961 . S
C1052 C1053 1.370 . S
C1052 C1054 1.363 . S
C1052 H1068 0.931 . S
C1053 C1052 1.370 . S
C1053 C1057 1.408 . S
C1054 C1052 1.363 . S
C1054 C1055 1.370 . S
C1054 C1058 1.524 . S
C1055 C1047 1.503 . S
C1055 C1054 1.370 . S
C1055 C1056 1.403 . S
C1056 C1055 1.403 . S
C1056 C1057 1.404 . S
C1056 C1059 1.539 . S
C1057 C1053 1.408 . S
C1057 C1056 1.404 . S
C1057 H1069 0.930 . S
C1058 C1054 1.524 . S
C1058 H1070 0.956 . S
C1058 H1071 0.961 . S
C1058 H1072 0.961 . S
C1059 C1056 1.539 . S
C1059 H1073 0.958 . S
C1059 H1074 0.961 . S
C1059 H1075 0.960 . S
H1060 C1044 0.931 . S
H1061 C1049 0.929 . S
H1062 C1050 0.960 . S
H1063 C1050 0.962 . S
H1064 C1050 0.960 . S
H1065 C1051 0.961 . S
H1066 C1051 0.961 . S
H1067 C1051 0.961 . S
H1068 C1052 0.931 . S
H1069 C1057 0.930 . S
H1070 C1058 0.956 . S
H1071 C1058 0.961 . S
H1072 C1058 0.961 . S
H1073 C1059 0.958 . S
H1074 C1059 0.961 . S
H1075 C1059 0.960 . S
C1076 C1077 1.391 . S
C1076 C1078 1.394 . S
C1076 H1092 0.931 . S
C1077 C1076 1.391 . S
C1077 C1081 1.376 . S
C1078 C1076 1.394 . S
C1078 C1079 1.369 . S
C1078 C1082 1.531 . S
C1079 C1078 1.369 . S
C1079 C1080 1.410 . S
C1079 C1087 1.503 . S
C1080 C1079 1.410 . S
C1080 C1081 1.392 . S
C1080 C1083 1.511 . S
C1081 C1077 1.376 . S
C1081 C1080 1.392 . S
C1081 H1093 0.929 . S
C1082 C1078 1.531 . S
C1082 H1094 0.960 . S
C1082 H1095 0.962 . S
C1082 H1096 0.960 . S
C1083 C1080 1.511 . S
C1083 H1097 0.961 . S
C1083 H1098 0.961 . S
C1083 H1099 0.961 . S
C1084 C1085 1.370 . S
C1084 C1086 1.363 . S
C1084 H1100 0.931 . S
C1085 C1084 1.370 . S
C1085 C1089 1.408 . S
C1086 C1084 1.363 . S
C1086 C1087 1.370 . S
C1086 C1090 1.524 . S
C1087 C1079 1.503 . S
C1087 C1086 1.370 . S
C1087 C1088 1.403 . S
C1088 C1087 1.403 . S
C1088 C1089 1.404 . S
C1088 C1091 1.539 . S
C1089 C1085 1.408 . S
C1089 C1088 1.404 . S
C1089 H1101 0.930 . S
C1090 C1086 1.524 . S
C1090 H1102 0.956 . S
C1090 H1103 0.961 . S
C1090 H1104 0.961 . S
C1091 C1088 1.539 . S
C1091 H1105 0.958 . S
C1091 H1106 0.961 . S
C1091 H1107 0.960 . S
H1092 C1076 0.931 . S
H1093 C1081 0.929 . S
H1094 C1082 0.960 . S
H1095 C1082 0.962 . S
H1096 C1082 0.960 . S
H1097 C1083 0.961 . S
H1098 C1083 0.961 . S
H1099 C1083 0.961 . S
H1100 C1084 0.931 . S
H1101 C1089 0.930 . S
H1102 C1090 0.956 . S
H1103 C1090 0.961 . S
H1104 C1090 0.961 . S
H1105 C1091 0.958 . S
H1106 C1091 0.961 . S
H1107 C1091 0.960 . S
C1108 C1109 1.391 . S
C1108 C1110 1.394 . S
C1108 H1124 0.931 . S
C1109 C1108 1.391 . S
C1109 C1113 1.376 . S
C1110 C1108 1.394 . S
C1110 C1111 1.369 . S
C1110 C1114 1.531 . S
C1111 C1110 1.369 . S
C1111 C1112 1.410 . S
C1111 C1119 1.503 . S
C1112 C1111 1.410 . S
C1112 C1113 1.392 . S
C1112 C1115 1.511 . S
C1113 C1109 1.376 . S
C1113 C1112 1.392 . S
C1113 H1125 0.929 . S
C1114 C1110 1.531 . S
C1114 H1126 0.960 . S
C1114 H1127 0.962 . S
C1114 H1128 0.960 . S
C1115 C1112 1.511 . S
C1115 H1129 0.961 . S
C1115 H1130 0.961 . S
C1115 H1131 0.961 . S
C1116 C1117 1.370 . S
C1116 C1118 1.363 . S
C1116 H1132 0.931 . S
C1117 C1116 1.370 . S
C1117 C1121 1.408 . S
C1118 C1116 1.363 . S
C1118 C1119 1.370 . S
C1118 C1122 1.524 . S
C1119 C1111 1.503 . S
C1119 C1118 1.370 . S
C1119 C1120 1.403 . S
C1120 C1119 1.403 . S
C1120 C1121 1.404 . S
C1120 C1123 1.539 . S
C1121 C1117 1.408 . S
C1121 C1120 1.404 . S
C1121 H1133 0.930 . S
C1122 C1118 1.524 . S
C1122 H1134 0.956 . S
C1122 H1135 0.961 . S
C1122 H1136 0.961 . S
C1123 C1120 1.539 . S
C1123 H1137 0.958 . S
C1123 H1138 0.961 . S
C1123 H1139 0.960 . S
H1124 C1108 0.931 . S
H1125 C1113 0.929 . S
H1126 C1114 0.960 . S
H1127 C1114 0.962 . S
H1128 C1114 0.960 . S
H1129 C1115 0.961 . S
H1130 C1115 0.961 . S
H1131 C1115 0.961 . S
H1132 C1116 0.931 . S
H1133 C1121 0.930 . S
H1134 C1122 0.956 . S
H1135 C1122 0.961 . S
H1136 C1122 0.961 . S
H1137 C1123 0.958 . S
H1138 C1123 0.961 . S
H1139 C1123 0.960 . S
C1140 C1141 1.391 . S
C1140 C1142 1.394 . S
C1140 H1156 0.931 . S
C1141 C1140 1.391 . S
C1141 C1145 1.376 . S
C1142 C1140 1.394 . S
C1142 C1143 1.369 . S
C1142 C1146 1.531 . S
C1143 C1142 1.369 . S
C1143 C1144 1.410 . S
C1143 C1151 1.503 . S
C1144 C1143 1.410 . S
C1144 C1145 1.392 . S
C1144 C1147 1.511 . S
C1145 C1141 1.376 . S
C1145 C1144 1.392 . S
C1145 H1157 0.929 . S
C1146 C1142 1.531 . S
C1146 H1158 0.960 . S
C1146 H1159 0.962 . S
C1146 H1160 0.960 . S
C1147 C1144 1.511 . S
C1147 H1161 0.961 . S
C1147 H1162 0.961 . S
C1147 H1163 0.961 . S
C1148 C1149 1.370 . S
C1148 C1150 1.363 . S
C1148 H1164 0.931 . S
C1149 C1148 1.370 . S
C1149 C1153 1.408 . S
C1150 C1148 1.363 . S
C1150 C1151 1.370 . S
C1150 C1154 1.524 . S
C1151 C1143 1.503 . S
C1151 C1150 1.370 . S
C1151 C1152 1.403 . S
C1152 C1151 1.403 . S
C1152 C1153 1.404 . S
C1152 C1155 1.539 . S
C1153 C1149 1.408 . S
C1153 C1152 1.404 . S
C1153 H1165 0.930 . S
C1154 C1150 1.524 . S
C1154 H1166 0.956 . S
C1154 H1167 0.961 . S
C1154 H1168 0.961 . S
C1155 C1152 1.539 . S
C1155 H1169 0.958 . S
C1155 H1170 0.961 . S
C1155 H1171 0.960 . S
H1156 C1140 0.931 . S
H1157 C1145 0.929 . S
H1158 C1146 0.960 . S
H1159 C1146 0.962 . S
H1160 C1146 0.960 . S
H1161 C1147 0.961 . S
H1162 C1147 0.961 . S
H1163 C1147 0.961 . S
H1164 C1148 0.931 . S
H1165 C1153 0.930 . S
H1166 C1154 0.956 . S
H1167 C1154 0.961 . S
H1168 C1154 0.961 . S
H1169 C1155 0.958 . S
H1170 C1155 0.961 . S
H1171 C1155 0.960 . S
C1172 C1173 1.391 1_556 S
C1172 C1174 1.394 . S
C1172 H1188 0.931 . S
C1173 C1172 1.391 1_554 S
C1173 C1177 1.376 . S
C1174 C1172 1.394 . S
C1174 C1175 1.369 . S
C1174 C1178 1.531 . S
C1175 C1174 1.369 . S
C1175 C1176 1.410 . S
C1175 C1183 1.503 . S
C1176 C1175 1.410 . S
C1176 C1177 1.392 1_556 S
C1176 C1179 1.511 . S
C1177 C1173 1.376 . S
C1177 C1176 1.392 1_554 S
C1177 H1189 0.929 . S
C1178 C1174 1.531 . S
C1178 H1190 0.960 . S
C1178 H1191 0.962 . S
C1178 H1192 0.960 . S
C1179 C1176 1.511 . S
C1179 H1193 0.961 1_556 S
C1179 H1194 0.961 . S
C1179 H1195 0.961 . S
C1180 C1181 1.370 . S
C1180 C1182 1.363 . S
C1180 H1196 0.931 . S
C1181 C1180 1.370 . S
C1181 C1185 1.408 . S
C1182 C1180 1.363 . S
C1182 C1183 1.370 . S
C1182 C1186 1.524 . S
C1183 C1175 1.503 . S
C1183 C1182 1.370 . S
C1183 C1184 1.403 . S
C1184 C1183 1.403 . S
C1184 C1185 1.404 . S
C1184 C1187 1.539 . S
C1185 C1181 1.408 . S
C1185 C1184 1.404 . S
C1185 H1197 0.930 . S
C1186 C1182 1.524 . S
C1186 H1198 0.956 . S
C1186 H1199 0.961 . S
C1186 H1200 0.961 . S
C1187 C1184 1.539 . S
C1187 H1201 0.958 . S
C1187 H1202 0.961 . S
C1187 H1203 0.960 . S
H1188 C1172 0.931 . S
H1189 C1177 0.929 . S
H1190 C1178 0.960 . S
H1191 C1178 0.962 . S
H1192 C1178 0.960 . S
H1193 C1179 0.961 1_554 S
H1194 C1179 0.961 . S
H1195 C1179 0.961 . S
H1196 C1180 0.931 . S
H1197 C1185 0.930 . S
H1198 C1186 0.956 . S
H1199 C1186 0.961 . S
H1200 C1186 0.961 . S
H1201 C1187 0.958 . S
H1202 C1187 0.961 . S
H1203 C1187 0.960 . S
C1204 C1205 1.391 1_455 S
C1204 C1206 1.394 1_454 S
C1204 H1220 0.931 . S
C1205 C1204 1.391 1_655 S
C1205 C1209 1.376 . S
C1206 C1204 1.394 1_656 S
C1206 C1207 1.373 . S
C1206 C1210 1.531 . S
C1207 C1206 1.373 . S
C1207 C1208 1.393 1_556 S
C1207 C1215 1.517 . S
C1208 C1207 1.393 1_554 S
C1208 C1209 1.392 . S
C1208 C1211 1.511 . S
C1209 C1205 1.376 . S
C1209 C1208 1.392 . S
C1209 H1221 0.929 . S
C1210 C1206 1.531 . S
C1210 H1222 0.960 . S
C1210 H1223 0.962 . S
C1210 H1224 0.960 1_655 S
C1211 C1208 1.511 . S
C1211 H1225 0.961 . S
C1211 H1226 0.961 . S
C1211 H1227 0.961 . S
C1212 C1213 1.370 . S
C1212 C1214 1.363 . S
C1212 H1228 0.931 . S
C1213 C1212 1.370 . S
C1213 C1217 1.408 . S
C1214 C1212 1.363 . S
C1214 C1215 1.370 . S
C1214 C1218 1.524 . S
C1215 C1207 1.517 . S
C1215 C1214 1.370 . S
C1215 C1216 1.403 . S
C1216 C1215 1.403 . S
C1216 C1217 1.404 . S
C1216 C1219 1.539 1_556 S
C1217 C1213 1.408 . S
C1217 C1216 1.404 . S
C1217 H1229 0.930 . S
C1218 C1214 1.524 . S
C1218 H1230 0.956 . S
C1218 H1231 0.961 . S
C1218 H1232 0.961 . S
C1219 C1216 1.539 1_554 S
C1219 H1233 0.958 . S
C1219 H1234 0.961 . S
C1219 H1235 0.960 . S
H1220 C1204 0.931 . S
H1221 C1209 0.929 . S
H1222 C1210 0.960 . S
H1223 C1210 0.962 . S
H1224 C1210 0.960 1_455 S
H1225 C1211 0.961 . S
H1226 C1211 0.961 . S
H1227 C1211 0.961 . S
H1228 C1212 0.931 . S
H1229 C1217 0.930 . S
H1230 C1218 0.956 . S
H1231 C1218 0.961 . S
H1232 C1218 0.961 . S
H1233 C1219 0.958 . S
H1234 C1219 0.961 . S
H1235 C1219 0.960 . S
C1236 C1237 1.391 . S
C1236 C1238 1.394 . S
C1236 H1252 0.931 . S
C1237 C1236 1.391 . S
C1237 C1241 1.376 . S
C1238 C1236 1.394 . S
C1238 C1239 1.369 . S
C1238 C1242 1.531 . S
C1239 C1238 1.369 . S
C1239 C1240 1.410 . S
C1239 C1247 1.503 . S
C1240 C1239 1.410 . S
C1240 C1241 1.392 . S
C1240 C1243 1.511 . S
C1241 C1237 1.376 . S
C1241 C1240 1.392 . S
C1241 H1253 0.929 . S
C1242 C1238 1.531 . S
C1242 H1254 0.960 . S
C1242 H1255 0.962 . S
C1242 H1256 0.960 . S
C1243 C1240 1.511 . S
C1243 H1257 0.961 . S
C1243 H1258 0.961 . S
C1243 H1259 0.961 . S
C1244 C1245 1.370 . S
C1244 C1246 1.363 . S
C1244 H1260 0.931 . S
C1245 C1244 1.370 . S
C1245 C1249 1.408 . S
C1246 C1244 1.363 . S
C1246 C1247 1.370 . S
C1246 C1250 1.524 . S
C1247 C1239 1.503 . S
C1247 C1246 1.370 . S
C1247 C1248 1.403 . S
C1248 C1247 1.403 . S
C1248 C1249 1.404 . S
C1248 C1251 1.539 . S
C1249 C1245 1.408 . S
C1249 C1248 1.404 . S
C1249 H1261 0.930 . S
C1250 C1246 1.524 . S
C1250 H1262 0.956 . S
C1250 H1263 0.961 . S
C1250 H1264 0.961 . S
C1251 C1248 1.539 . S
C1251 H1265 0.958 . S
C1251 H1266 0.961 . S
C1251 H1267 0.960 . S
H1252 C1236 0.931 . S
H1253 C1241 0.929 . S
H1254 C1242 0.960 . S
H1255 C1242 0.962 . S
H1256 C1242 0.960 . S
H1257 C1243 0.961 . S
H1258 C1243 0.961 . S
H1259 C1243 0.961 . S
H1260 C1244 0.931 . S
H1261 C1249 0.930 . S
H1262 C1250 0.956 . S
H1263 C1250 0.961 . S
H1264 C1250 0.961 . S
H1265 C1251 0.958 . S
H1266 C1251 0.961 . S
H1267 C1251 0.960 . S
C1268 C1269 1.391 . S
C1268 C1270 1.394 . S
C1268 H1284 0.931 . S
C1269 C1268 1.391 . S
C1269 C1273 1.376 . S
C1270 C1268 1.394 . S
C1270 C1271 1.369 . S
C1270 C1274 1.531 . S
C1271 C1270 1.369 . S
C1271 C1272 1.410 . S
C1271 C1279 1.503 . S
C1272 C1271 1.410 . S
C1272 C1273 1.392 . S
C1272 C1275 1.511 . S
C1273 C1269 1.376 . S
C1273 C1272 1.392 . S
C1273 H1285 0.929 . S
C1274 C1270 1.531 . S
C1274 H1286 0.960 . S
C1274 H1287 0.962 . S
C1274 H1288 0.960 . S
C1275 C1272 1.511 . S
C1275 H1289 0.961 . S
C1275 H1290 0.961 . S
C1275 H1291 0.961 . S
C1276 C1277 1.370 . S
C1276 C1278 1.363 . S
C1276 H1292 0.931 . S
C1277 C1276 1.370 . S
C1277 C1281 1.408 . S
C1278 C1276 1.363 . S
C1278 C1279 1.370 . S
C1278 C1282 1.524 . S
C1279 C1271 1.503 . S
C1279 C1278 1.370 . S
C1279 C1280 1.403 . S
C1280 C1279 1.403 . S
C1280 C1281 1.404 . S
C1280 C1283 1.539 . S
C1281 C1277 1.408 . S
C1281 C1280 1.404 . S
C1281 H1293 0.930 . S
C1282 C1278 1.524 . S
C1282 H1294 0.956 . S
C1282 H1295 0.961 . S
C1282 H1296 0.961 . S
C1283 C1280 1.539 . S
C1283 H1297 0.958 . S
C1283 H1298 0.961 . S
C1283 H1299 0.960 . S
H1284 C1268 0.931 . S
H1285 C1273 0.929 . S
H1286 C1274 0.960 . S
H1287 C1274 0.962 . S
H1288 C1274 0.960 . S
H1289 C1275 0.961 . S
H1290 C1275 0.961 . S
H1291 C1275 0.961 . S
H1292 C1276 0.931 . S
H1293 C1281 0.930 . S
H1294 C1282 0.956 . S
H1295 C1282 0.961 . S
H1296 C1282 0.961 . S
H1297 C1283 0.958 . S
H1298 C1283 0.961 . S
H1299 C1283 0.960 . S
C1300 C1301 1.391 . S
C1300 C1302 1.394 . S
C1300 H1316 0.931 . S
C1301 C1300 1.391 . S
C1301 C1305 1.376 . S
C1302 C1300 1.394 . S
C1302 C1303 1.369 . S
C1302 C1306 1.531 . S
C1303 C1302 1.369 . S
C1303 C1304 1.410 . S
C1303 C1311 1.503 . S
C1304 C1303 1.410 . S
C1304 C1305 1.392 . S
C1304 C1307 1.511 . S
C1305 C1301 1.376 . S
C1305 C1304 1.392 . S
C1305 H1317 0.929 . S
C1306 C1302 1.531 . S
C1306 H1318 0.960 . S
C1306 H1319 0.962 . S
C1306 H1320 0.960 . S
C1307 C1304 1.511 . S
C1307 H1321 0.961 . S
C1307 H1322 0.961 . S
C1307 H1323 0.961 . S
C1308 C1309 1.370 . S
C1308 C1310 1.363 . S
C1308 H1324 0.931 . S
C1309 C1308 1.370 . S
C1309 C1313 1.408 . S
C1310 C1308 1.363 . S
C1310 C1311 1.370 . S
C1310 C1314 1.524 . S
C1311 C1303 1.503 . S
C1311 C1310 1.370 . S
C1311 C1312 1.403 . S
C1312 C1311 1.403 . S
C1312 C1313 1.404 . S
C1312 C1315 1.539 . S
C1313 C1309 1.408 . S
C1313 C1312 1.404 . S
C1313 H1325 0.930 . S
C1314 C1310 1.524 . S
C1314 H1326 0.956 . S
C1314 H1327 0.961 . S
C1314 H1328 0.961 . S
C1315 C1312 1.539 . S
C1315 H1329 0.958 . S
C1315 H1330 0.961 . S
C1315 H1331 0.960 . S
H1316 C1300 0.931 . S
H1317 C1305 0.929 . S
H1318 C1306 0.960 . S
H1319 C1306 0.962 . S
H1320 C1306 0.960 . S
H1321 C1307 0.961 . S
H1322 C1307 0.961 . S
H1323 C1307 0.961 . S
H1324 C1308 0.931 . S
H1325 C1313 0.930 . S
H1326 C1314 0.956 . S
H1327 C1314 0.961 . S
H1328 C1314 0.961 . S
H1329 C1315 0.958 . S
H1330 C1315 0.961 . S
H1331 C1315 0.960 . S
C1332 C1333 1.391 . S
C1332 C1334 1.394 . S
C1332 H1348 0.931 . S
C1333 C1332 1.391 . S
C1333 C1337 1.376 . S
C1334 C1332 1.394 . S
C1334 C1335 1.369 . S
C1334 C1338 1.531 . S
C1335 C1334 1.369 . S
C1335 C1336 1.410 . S
C1335 C1343 1.503 . S
C1336 C1335 1.410 . S
C1336 C1337 1.392 . S
C1336 C1339 1.511 . S
C1337 C1333 1.376 . S
C1337 C1336 1.392 . S
C1337 H1349 0.929 . S
C1338 C1334 1.531 . S
C1338 H1350 0.960 . S
C1338 H1351 0.962 . S
C1338 H1352 0.960 . S
C1339 C1336 1.511 . S
C1339 H1353 0.961 . S
C1339 H1354 0.961 . S
C1339 H1355 0.961 . S
C1340 C1341 1.370 . S
C1340 C1342 1.363 . S
C1340 H1356 0.931 . S
C1341 C1340 1.370 . S
C1341 C1345 1.408 . S
C1342 C1340 1.363 . S
C1342 C1343 1.370 . S
C1342 C1346 1.524 . S
C1343 C1335 1.503 . S
C1343 C1342 1.370 . S
C1343 C1344 1.403 . S
C1344 C1343 1.403 . S
C1344 C1345 1.404 . S
C1344 C1347 1.539 . S
C1345 C1341 1.408 . S
C1345 C1344 1.404 . S
C1345 H1357 0.930 . S
C1346 C1342 1.524 . S
C1346 H1358 0.956 . S
C1346 H1359 0.961 . S
C1346 H1360 0.961 . S
C1347 C1344 1.539 . S
C1347 H1361 0.958 . S
C1347 H1362 0.961 . S
C1347 H1363 0.960 . S
H1348 C1332 0.931 . S
H1349 C1337 0.929 . S
H1350 C1338 0.960 . S
H1351 C1338 0.962 . S
H1352 C1338 0.960 . S
H1353 C1339 0.961 . S
H1354 C1339 0.961 . S
H1355 C1339 0.961 . S
H1356 C1340 0.931 . S
H1357 C1345 0.930 . S
H1358 C1346 0.956 . S
H1359 C1346 0.961 . S
H1360 C1346 0.961 . S
H1361 C1347 0.958 . S
H1362 C1347 0.961 . S
H1363 C1347 0.960 . S
C1364 C1365 1.391 . S
C1364 C1366 1.394 . S
C1364 H1380 0.931 . S
C1365 C1364 1.391 . S
C1365 C1369 1.376 . S
C1366 C1364 1.394 . S
C1366 C1367 1.369 . S
C1366 C1370 1.531 . S
C1367 C1366 1.369 . S
C1367 C1368 1.410 . S
C1367 C1375 1.503 . S
C1368 C1367 1.410 . S
C1368 C1369 1.392 . S
C1368 C1371 1.511 . S
C1369 C1365 1.376 . S
C1369 C1368 1.392 . S
C1369 H1381 0.929 . S
C1370 C1366 1.531 . S
C1370 H1382 0.960 . S
C1370 H1383 0.962 . S
C1370 H1384 0.960 . S
C1371 C1368 1.511 . S
C1371 H1385 0.961 . S
C1371 H1386 0.961 . S
C1371 H1387 0.961 . S
C1372 C1373 1.370 . S
C1372 C1374 1.363 . S
C1372 H1388 0.931 . S
C1373 C1372 1.370 . S
C1373 C1377 1.408 . S
C1374 C1372 1.363 . S
C1374 C1375 1.370 . S
C1374 C1378 1.524 . S
C1375 C1367 1.503 . S
C1375 C1374 1.370 . S
C1375 C1376 1.403 . S
C1376 C1375 1.403 . S
C1376 C1377 1.404 . S
C1376 C1379 1.539 . S
C1377 C1373 1.408 . S
C1377 C1376 1.404 . S
C1377 H1389 0.930 . S
C1378 C1374 1.524 . S
C1378 H1390 0.956 . S
C1378 H1391 0.961 . S
C1378 H1392 0.961 . S
C1379 C1376 1.539 . S
C1379 H1393 0.958 . S
C1379 H1394 0.961 . S
C1379 H1395 0.960 . S
H1380 C1364 0.931 . S
H1381 C1369 0.929 . S
H1382 C1370 0.960 . S
H1383 C1370 0.962 . S
H1384 C1370 0.960 . S
H1385 C1371 0.961 . S
H1386 C1371 0.961 . S
H1387 C1371 0.961 . S
H1388 C1372 0.931 . S
H1389 C1377 0.930 . S
H1390 C1378 0.956 . S
H1391 C1378 0.961 . S
H1392 C1378 0.961 . S
H1393 C1379 0.958 . S
H1394 C1379 0.961 . S
H1395 C1379 0.960 . S
C1396 C1397 1.391 . S
C1396 C1398 1.394 . S
C1396 H1412 0.931 . S
C1397 C1396 1.391 . S
C1397 C1401 1.376 . S
C1398 C1396 1.394 . S
C1398 C1399 1.369 . S
C1398 C1402 1.531 . S
C1399 C1398 1.369 . S
C1399 C1400 1.410 . S
C1399 C1407 1.503 . S
C1400 C1399 1.410 . S
C1400 C1401 1.392 . S
C1400 C1403 1.511 . S
C1401 C1397 1.376 . S
C1401 C1400 1.392 . S
C1401 H1413 0.929 . S
C1402 C1398 1.531 . S
C1402 H1414 0.960 . S
C1402 H1415 0.962 . S
C1402 H1416 0.960 . S
C1403 C1400 1.511 . S
C1403 H1417 0.961 . S
C1403 H1418 0.961 . S
C1403 H1419 0.961 . S
C1404 C1405 1.370 . S
C1404 C1406 1.363 . S
C1404 H1420 0.931 . S
C1405 C1404 1.370 . S
C1405 C1409 1.408 . S
C1406 C1404 1.363 . S
C1406 C1407 1.370 . S
C1406 C1410 1.524 . S
C1407 C1399 1.503 . S
C1407 C1406 1.370 . S
C1407 C1408 1.403 . S
C1408 C1407 1.403 . S
C1408 C1409 1.404 . S
C1408 C1411 1.539 . S
C1409 C1405 1.408 . S
C1409 C1408 1.404 . S
C1409 H1421 0.930 . S
C1410 C1406 1.524 . S
C1410 H1422 0.956 . S
C1410 H1423 0.961 . S
C1410 H1424 0.961 . S
C1411 C1408 1.539 . S
C1411 H1425 0.958 . S
C1411 H1426 0.961 . S
C1411 H1427 0.960 . S
H1412 C1396 0.931 . S
H1413 C1401 0.929 . S
H1414 C1402 0.960 . S
H1415 C1402 0.962 . S
H1416 C1402 0.960 . S
H1417 C1403 0.961 . S
H1418 C1403 0.961 . S
H1419 C1403 0.961 . S
H1420 C1404 0.931 . S
H1421 C1409 0.930 . S
H1422 C1410 0.956 . S
H1423 C1410 0.961 . S
H1424 C1410 0.961 . S
H1425 C1411 0.958 . S
H1426 C1411 0.961 . S
H1427 C1411 0.960 . S
C1428 C1429 1.391 . S
C1428 C1430 1.394 . S
C1428 H1444 0.931 . S
C1429 C1428 1.391 . S
C1429 C1433 1.376 . S
C1430 C1428 1.394 . S
C1430 C1431 1.369 . S
C1430 C1434 1.531 . S
C1431 C1430 1.369 . S
C1431 C1432 1.410 . S
C1431 C1439 1.503 . S
C1432 C1431 1.410 . S
C1432 C1433 1.392 . S
C1432 C1435 1.511 . S
C1433 C1429 1.376 . S
C1433 C1432 1.392 . S
C1433 H1445 0.929 . S
C1434 C1430 1.531 . S
C1434 H1446 0.960 . S
C1434 H1447 0.962 . S
C1434 H1448 0.960 . S
C1435 C1432 1.511 . S
C1435 H1449 0.961 . S
C1435 H1450 0.961 . S
C1435 H1451 0.961 . S
C1436 C1437 1.370 . S
C1436 C1438 1.363 . S
C1436 H1452 0.931 . S
C1437 C1436 1.370 . S
C1437 C1441 1.408 . S
C1438 C1436 1.363 . S
C1438 C1439 1.370 . S
C1438 C1442 1.524 . S
C1439 C1431 1.503 . S
C1439 C1438 1.370 . S
C1439 C1440 1.403 . S
C1440 C1439 1.403 . S
C1440 C1441 1.404 . S
C1440 C1443 1.539 . S
C1441 C1437 1.408 . S
C1441 C1440 1.404 . S
C1441 H1453 0.930 . S
C1442 C1438 1.524 . S
C1442 H1454 0.956 . S
C1442 H1455 0.961 . S
C1442 H1456 0.961 . S
C1443 C1440 1.539 . S
C1443 H1457 0.958 . S
C1443 H1458 0.961 . S
C1443 H1459 0.960 . S
H1444 C1428 0.931 . S
H1445 C1433 0.929 . S
H1446 C1434 0.960 . S
H1447 C1434 0.962 . S
H1448 C1434 0.960 . S
H1449 C1435 0.961 . S
H1450 C1435 0.961 . S
H1451 C1435 0.961 . S
H1452 C1436 0.931 . S
H1453 C1441 0.930 . S
H1454 C1442 0.956 . S
H1455 C1442 0.961 . S
H1456 C1442 0.961 . S
H1457 C1443 0.958 . S
H1458 C1443 0.961 . S
H1459 C1443 0.960 . S
C1460 C1461 1.391 . S
C1460 C1462 1.394 . S
C1460 H1476 0.931 . S
C1461 C1460 1.391 . S
C1461 C1465 1.376 . S
C1462 C1460 1.394 . S
C1462 C1463 1.369 . S
C1462 C1466 1.531 . S
C1463 C1462 1.369 . S
C1463 C1464 1.410 . S
C1463 C1471 1.503 . S
C1464 C1463 1.410 . S
C1464 C1465 1.392 . S
C1464 C1467 1.511 . S
C1465 C1461 1.376 . S
C1465 C1464 1.392 . S
C1465 H1477 0.929 . S
C1466 C1462 1.531 . S
C1466 H1478 0.960 . S
C1466 H1479 0.962 . S
C1466 H1480 0.960 . S
C1467 C1464 1.511 . S
C1467 H1481 0.961 . S
C1467 H1482 0.961 . S
C1467 H1483 0.961 . S
C1468 C1469 1.370 . S
C1468 C1470 1.363 . S
C1468 H1484 0.931 . S
C1469 C1468 1.370 . S
C1469 C1473 1.408 . S
C1470 C1468 1.363 . S
C1470 C1471 1.370 . S
C1470 C1474 1.524 . S
C1471 C1463 1.503 . S
C1471 C1470 1.370 . S
C1471 C1472 1.403 . S
C1472 C1471 1.403 . S
C1472 C1473 1.404 . S
C1472 C1475 1.539 . S
C1473 C1469 1.408 . S
C1473 C1472 1.404 . S
C1473 H1485 0.930 . S
C1474 C1470 1.524 . S
C1474 H1486 0.956 . S
C1474 H1487 0.961 . S
C1474 H1488 0.961 . S
C1475 C1472 1.539 . S
C1475 H1489 0.958 . S
C1475 H1490 0.961 . S
C1475 H1491 0.960 . S
H1476 C1460 0.931 . S
H1477 C1465 0.929 . S
H1478 C1466 0.960 . S
H1479 C1466 0.962 . S
H1480 C1466 0.960 . S
H1481 C1467 0.961 . S
H1482 C1467 0.961 . S
H1483 C1467 0.961 . S
H1484 C1468 0.931 . S
H1485 C1473 0.930 . S
H1486 C1474 0.956 . S
H1487 C1474 0.961 . S
H1488 C1474 0.961 . S
H1489 C1475 0.958 . S
H1490 C1475 0.961 . S
H1491 C1475 0.960 . S
C1492 C1493 1.391 . S
C1492 C1494 1.394 . S
C1492 H1508 0.931 . S
C1493 C1492 1.391 . S
C1493 C1497 1.376 . S
C1494 C1492 1.394 . S
C1494 C1495 1.369 . S
C1494 C1498 1.531 . S
C1495 C1494 1.369 . S
C1495 C1496 1.410 . S
C1495 C1503 1.503 . S
C1496 C1495 1.410 . S
C1496 C1497 1.392 . S
C1496 C1499 1.511 . S
C1497 C1493 1.376 . S
C1497 C1496 1.392 . S
C1497 H1509 0.929 . S
C1498 C1494 1.531 . S
C1498 H1510 0.960 . S
C1498 H1511 0.962 . S
C1498 H1512 0.960 . S
C1499 C1496 1.511 . S
C1499 H1513 0.961 . S
C1499 H1514 0.961 . S
C1499 H1515 0.961 . S
C1500 C1501 1.370 . S
C1500 C1502 1.363 . S
C1500 H1516 0.931 . S
C1501 C1500 1.370 . S
C1501 C1505 1.408 . S
C1502 C1500 1.363 . S
C1502 C1503 1.370 . S
C1502 C1506 1.524 . S
C1503 C1495 1.503 . S
C1503 C1502 1.370 . S
C1503 C1504 1.403 . S
C1504 C1503 1.403 . S
C1504 C1505 1.404 . S
C1504 C1507 1.539 . S
C1505 C1501 1.408 . S
C1505 C1504 1.404 . S
C1505 H1517 0.930 . S
C1506 C1502 1.524 . S
C1506 H1518 0.956 . S
C1506 H1519 0.961 . S
C1506 H1520 0.961 . S
C1507 C1504 1.539 . S
C1507 H1521 0.958 . S
C1507 H1522 0.961 . S
C1507 H1523 0.960 . S
H1508 C1492 0.931 . S
H1509 C1497 0.929 . S
H1510 C1498 0.960 . S
H1511 C1498 0.962 . S
H1512 C1498 0.960 . S
H1513 C1499 0.961 . S
H1514 C1499 0.961 . S
H1515 C1499 0.961 . S
H1516 C1500 0.931 . S
H1517 C1505 0.930 . S
H1518 C1506 0.956 . S
H1519 C1506 0.961 . S
H1520 C1506 0.961 . S
H1521 C1507 0.958 . S
H1522 C1507 0.961 . S
H1523 C1507 0.960 . S
C1524 C1525 1.391 . S
C1524 C1526 1.394 . S
C1524 H1540 0.931 . S
C1525 C1524 1.391 . S
C1525 C1529 1.376 . S
C1526 C1524 1.394 . S
C1526 C1527 1.369 . S
C1526 C1530 1.531 . S
C1527 C1526 1.369 . S
C1527 C1528 1.410 . S
C1527 C1535 1.503 . S
C1528 C1527 1.410 . S
C1528 C1529 1.392 . S
C1528 C1531 1.511 . S
C1529 C1525 1.376 . S
C1529 C1528 1.392 . S
C1529 H1541 0.929 . S
C1530 C1526 1.531 . S
C1530 H1542 0.960 . S
C1530 H1543 0.962 . S
C1530 H1544 0.960 . S
C1531 C1528 1.511 . S
C1531 H1545 0.961 . S
C1531 H1546 0.961 . S
C1531 H1547 0.961 . S
C1532 C1533 1.370 . S
C1532 C1534 1.363 . S
C1532 H1548 0.931 . S
C1533 C1532 1.370 . S
C1533 C1537 1.408 . S
C1534 C1532 1.363 . S
C1534 C1535 1.370 . S
C1534 C1538 1.524 . S
C1535 C1527 1.503 . S
C1535 C1534 1.370 . S
C1535 C1536 1.403 . S
C1536 C1535 1.403 . S
C1536 C1537 1.404 . S
C1536 C1539 1.539 . S
C1537 C1533 1.408 . S
C1537 C1536 1.404 . S
C1537 H1549 0.930 . S
C1538 C1534 1.524 . S
C1538 H1550 0.956 . S
C1538 H1551 0.961 . S
C1538 H1552 0.961 . S
C1539 C1536 1.539 . S
C1539 H1553 0.958 . S
C1539 H1554 0.961 . S
C1539 H1555 0.960 . S
H1540 C1524 0.931 . S
H1541 C1529 0.929 . S
H1542 C1530 0.960 . S
H1543 C1530 0.962 . S
H1544 C1530 0.960 . S
H1545 C1531 0.961 . S
H1546 C1531 0.961 . S
H1547 C1531 0.961 . S
H1548 C1532 0.931 . S
H1549 C1537 0.930 . S
H1550 C1538 0.956 . S
H1551 C1538 0.961 . S
H1552 C1538 0.961 . S
H1553 C1539 0.958 . S
H1554 C1539 0.961 . S
H1555 C1539 0.960 . S
C1556 C1557 1.391 . S
C1556 C1558 1.394 . S
C1556 H1572 0.931 . S
C1557 C1556 1.391 . S
C1557 C1561 1.376 . S
C1558 C1556 1.394 . S
C1558 C1559 1.369 . S
C1558 C1562 1.531 . S
C1559 C1558 1.369 . S
C1559 C1560 1.410 . S
C1559 C1567 1.503 . S
C1560 C1559 1.410 . S
C1560 C1561 1.392 . S
C1560 C1563 1.511 . S
C1561 C1557 1.376 . S
C1561 C1560 1.392 . S
C1561 H1573 0.929 . S
C1562 C1558 1.531 . S
C1562 H1574 0.960 . S
C1562 H1575 0.962 . S
C1562 H1576 0.960 . S
C1563 C1560 1.511 . S
C1563 H1577 0.961 . S
C1563 H1578 0.961 . S
C1563 H1579 0.961 . S
C1564 C1565 1.370 . S
C1564 C1566 1.363 . S
C1564 H1580 0.931 . S
C1565 C1564 1.370 . S
C1565 C1569 1.408 . S
C1566 C1564 1.363 . S
C1566 C1567 1.370 . S
C1566 C1570 1.524 . S
C1567 C1559 1.503 . S
C1567 C1566 1.370 . S
C1567 C1568 1.403 . S
C1568 C1567 1.403 . S
C1568 C1569 1.404 . S
C1568 C1571 1.539 . S
C1569 C1565 1.408 . S
C1569 C1568 1.404 . S
C1569 H1581 0.930 . S
C1570 C1566 1.524 . S
C1570 H1582 0.956 . S
C1570 H1583 0.961 . S
C1570 H1584 0.961 . S
C1571 C1568 1.539 . S
C1571 H1585 0.958 . S
C1571 H1586 0.961 . S
C1571 H1587 0.960 . S
H1572 C1556 0.931 . S
H1573 C1561 0.929 . S
H1574 C1562 0.960 . S
H1575 C1562 0.962 . S
H1576 C1562 0.960 . S
H1577 C1563 0.961 . S
H1578 C1563 0.961 . S
H1579 C1563 0.961 . S
H1580 C1564 0.931 . S
H1581 C1569 0.930 . S
H1582 C1570 0.956 . S
H1583 C1570 0.961 . S
H1584 C1570 0.961 . S
H1585 C1571 0.958 . S
H1586 C1571 0.961 . S
H1587 C1571 0.960 . S
C1588 C1589 1.391 . S
C1588 C1590 1.394 . S
C1588 H1604 0.931 . S
C1589 C1588 1.391 . S
C1589 C1593 1.376 . S
C1590 C1588 1.394 . S
C1590 C1591 1.369 . S
C1590 C1594 1.531 . S
C1591 C1590 1.369 . S
C1591 C1592 1.410 . S
C1591 C1599 1.503 . S
C1592 C1591 1.410 . S
C1592 C1593 1.392 . S
C1592 C1595 1.511 . S
C1593 C1589 1.376 . S
C1593 C1592 1.392 . S
C1593 H1605 0.929 . S
C1594 C1590 1.531 . S
C1594 H1606 0.960 . S
C1594 H1607 0.962 . S
C1594 H1608 0.960 . S
C1595 C1592 1.511 . S
C1595 H1609 0.961 . S
C1595 H1610 0.961 . S
C1595 H1611 0.961 . S
C1596 C1597 1.370 . S
C1596 C1598 1.363 . S
C1596 H1612 0.931 . S
C1597 C1596 1.370 . S
C1597 C1601 1.408 . S
C1598 C1596 1.363 . S
C1598 C1599 1.370 . S
C1598 C1602 1.524 . S
C1599 C1591 1.503 . S
C1599 C1598 1.370 . S
C1599 C1600 1.403 . S
C1600 C1599 1.403 . S
C1600 C1601 1.404 . S
C1600 C1603 1.539 . S
C1601 C1597 1.408 . S
C1601 C1600 1.404 . S
C1601 H1613 0.930 . S
C1602 C1598 1.524 . S
C1602 H1614 0.956 . S
C1602 H1615 0.961 . S
C1602 H1616 0.961 . S
C1603 C1600 1.539 . S
C1603 H1617 0.958 . S
C1603 H1618 0.961 . S
C1603 H1619 0.960 . S
H1604 C1588 0.931 . S
H1605 C1593 0.929 . S
H1606 C1594 0.960 . S
H1607 C1594 0.962 . S
H1608 C1594 0.960 . S
H1609 C1595 0.961 . S
H1610 C1595 0.961 . S
H1611 C1595 0.961 . S
H1612 C1596 0.931 . S
H1613 C1601 0.930 . S
H1614 C1602 0.956 . S
H1615 C1602 0.961 . S
H1616 C1602 0.961 . S
H1617 C1603 0.958 . S
H1618 C1603 0.961 . S
H1619 C1603 0.960 . S
C1620 C1621 1.391 . S
C1620 C1622 1.394 . S
C1620 H1636 0.931 . S
C1621 C1620 1.391 . S
C1621 C1625 1.376 . S
C1622 C1620 1.394 . S
C1622 C1623 1.369 . S
C1622 C1626 1.531 . S
C1623 C1622 1.369 . S
C1623 C1624 1.410 . S
C1623 C1631 1.503 . S
C1624 C1623 1.410 . S
C1624 C1625 1.392 . S
C1624 C1627 1.511 . S
C1625 C1621 1.376 . S
C1625 C1624 1.392 . S
C1625 H1637 0.929 . S
C1626 C1622 1.531 . S
C1626 H1638 0.960 . S
C1626 H1639 0.962 . S
C1626 H1640 0.960 . S
C1627 C1624 1.511 . S
C1627 H1641 0.961 . S
C1627 H1642 0.961 . S
C1627 H1643 0.961 . S
C1628 C1629 1.370 . S
C1628 C1630 1.363 . S
C1628 H1644 0.931 . S
C1629 C1628 1.370 . S
C1629 C1633 1.408 . S
C1630 C1628 1.363 . S
C1630 C1631 1.370 . S
C1630 C1634 1.524 . S
C1631 C1623 1.503 . S
C1631 C1630 1.370 . S
C1631 C1632 1.403 . S
C1632 C1631 1.403 . S
C1632 C1633 1.404 . S
C1632 C1635 1.539 . S
C1633 C1629 1.408 . S
C1633 C1632 1.404 . S
C1633 H1645 0.930 . S
C1634 C1630 1.524 . S
C1634 H1646 0.956 . S
C1634 H1647 0.961 . S
C1634 H1648 0.961 . S
C1635 C1632 1.539 . S
C1635 H1649 0.958 . S
C1635 H1650 0.961 . S
C1635 H1651 0.960 . S
H1636 C1620 0.931 . S
H1637 C1625 0.929 . S
H1638 C1626 0.960 . S
H1639 C1626 0.962 . S
H1640 C1626 0.960 . S
H1641 C1627 0.961 . S
H1642 C1627 0.961 . S
H1643 C1627 0.961 . S
H1644 C1628 0.931 . S
H1645 C1633 0.930 . S
H1646 C1634 0.956 . S
H1647 C1634 0.961 . S
H1648 C1634 0.961 . S
H1649 C1635 0.958 . S
H1650 C1635 0.961 . S
H1651 C1635 0.960 . S
C1652 C1653 1.391 . S
C1652 C1654 1.394 . S
C1652 H1668 0.931 . S
C1653 C1652 1.391 . S
C1653 C1657 1.376 . S
C1654 C1652 1.394 . S
C1654 C1655 1.369 . S
C1654 C1658 1.531 . S
C1655 C1654 1.369 . S
C1655 C1656 1.410 . S
C1655 C1663 1.503 . S
C1656 C1655 1.410 . S
C1656 C1657 1.392 . S
C1656 C1659 1.511 . S
C1657 C1653 1.376 . S
C1657 C1656 1.392 . S
C1657 H1669 0.929 . S
C1658 C1654 1.531 . S
C1658 H1670 0.960 . S
C1658 H1671 0.962 . S
C1658 H1672 0.960 . S
C1659 C1656 1.511 . S
C1659 H1673 0.961 . S
C1659 H1674 0.961 . S
C1659 H1675 0.961 . S
C1660 C1661 1.370 . S
C1660 C1662 1.363 . S
C1660 H1676 0.931 . S
C1661 C1660 1.370 . S
C1661 C1665 1.408 . S
C1662 C1660 1.363 . S
C1662 C1663 1.370 . S
C1662 C1666 1.524 . S
C1663 C1655 1.503 . S
C1663 C1662 1.370 . S
C1663 C1664 1.403 . S
C1664 C1663 1.403 . S
C1664 C1665 1.404 . S
C1664 C1667 1.539 . S
C1665 C1661 1.408 . S
C1665 C1664 1.404 . S
C1665 H1677 0.930 . S
C1666 C1662 1.524 . S
C1666 H1678 0.956 . S
C1666 H1679 0.961 . S
C1666 H1680 0.961 . S
C1667 C1664 1.539 . S
C1667 H1681 0.958 . S
C1667 H1682 0.961 . S
C1667 H1683 0.960 . S
H1668 C1652 0.931 . S
H1669 C1657 0.929 . S
H1670 C1658 0.960 . S
H1671 C1658 0.962 . S
H1672 C1658 0.960 . S
H1673 C1659 0.961 . S
H1674 C1659 0.961 . S
H1675 C1659 0.961 . S
H1676 C1660 0.931 . S
H1677 C1665 0.930 . S
H1678 C1666 0.956 . S
H1679 C1666 0.961 . S
H1680 C1666 0.961 . S
H1681 C1667 0.958 . S
H1682 C1667 0.961 . S
H1683 C1667 0.960 . S
C1684 C1685 1.391 . S
C1684 C1686 1.394 . S
C1684 H1700 0.931 . S
C1685 C1684 1.391 . S
C1685 C1689 1.376 . S
C1686 C1684 1.394 . S
C1686 C1687 1.369 . S
C1686 C1690 1.531 . S
C1687 C1686 1.369 . S
C1687 C1688 1.410 . S
C1687 C1695 1.503 . S
C1688 C1687 1.410 . S
C1688 C1689 1.392 . S
C1688 C1691 1.511 . S
C1689 C1685 1.376 . S
C1689 C1688 1.392 . S
C1689 H1701 0.929 . S
C1690 C1686 1.531 . S
C1690 H1702 0.960 . S
C1690 H1703 0.962 . S
C1690 H1704 0.960 . S
C1691 C1688 1.511 . S
C1691 H1705 0.961 . S
C1691 H1706 0.961 . S
C1691 H1707 0.961 . S
C1692 C1693 1.370 . S
C1692 C1694 1.363 . S
C1692 H1708 0.931 . S
C1693 C1692 1.370 . S
C1693 C1697 1.408 . S
C1694 C1692 1.363 . S
C1694 C1695 1.370 . S
C1694 C1698 1.524 . S
C1695 C1687 1.503 . S
C1695 C1694 1.370 . S
C1695 C1696 1.403 . S
C1696 C1695 1.403 . S
C1696 C1697 1.404 . S
C1696 C1699 1.539 . S
C1697 C1693 1.408 . S
C1697 C1696 1.404 . S
C1697 H1709 0.930 . S
C1698 C1694 1.524 . S
C1698 H1710 0.956 . S
C1698 H1711 0.961 . S
C1698 H1712 0.961 . S
C1699 C1696 1.539 . S
C1699 H1713 0.958 . S
C1699 H1714 0.961 . S
C1699 H1715 0.960 . S
H1700 C1684 0.931 . S
H1701 C1689 0.929 . S
H1702 C1690 0.960 . S
H1703 C1690 0.962 . S
H1704 C1690 0.960 . S
H1705 C1691 0.961 . S
H1706 C1691 0.961 . S
H1707 C1691 0.961 . S
H1708 C1692 0.931 . S
H1709 C1697 0.930 . S
H1710 C1698 0.956 . S
H1711 C1698 0.961 . S
H1712 C1698 0.961 . S
H1713 C1699 0.958 . S
H1714 C1699 0.961 . S
H1715 C1699 0.960 . S
C1716 C1717 1.391 . S
C1716 C1718 1.394 . S
C1716 H1732 0.931 . S
C1717 C1716 1.391 . S
C1717 C1721 1.376 . S
C1718 C1716 1.394 . S
C1718 C1719 1.369 . S
C1718 C1722 1.531 . S
C1719 C1718 1.369 . S
C1719 C1720 1.410 . S
C1719 C1727 1.503 . S
C1720 C1719 1.410 . S
C1720 C1721 1.392 . S
C1720 C1723 1.511 . S
C1721 C1717 1.376 . S
C1721 C1720 1.392 . S
C1721 H1733 0.929 . S
C1722 C1718 1.531 . S
C1722 H1734 0.960 . S
C1722 H1735 0.962 . S
C1722 H1736 0.960 . S
C1723 C1720 1.511 . S
C1723 H1737 0.961 . S
C1723 H1738 0.961 . S
C1723 H1739 0.961 . S
C1724 C1725 1.370 . S
C1724 C1726 1.363 . S
C1724 H1740 0.931 . S
C1725 C1724 1.370 . S
C1725 C1729 1.408 . S
C1726 C1724 1.363 . S
C1726 C1727 1.370 . S
C1726 C1730 1.524 . S
C1727 C1719 1.503 . S
C1727 C1726 1.370 . S
C1727 C1728 1.403 . S
C1728 C1727 1.403 . S
C1728 C1729 1.404 . S
C1728 C1731 1.539 . S
C1729 C1725 1.408 . S
C1729 C1728 1.404 . S
C1729 H1741 0.930 . S
C1730 C1726 1.524 . S
C1730 H1742 0.956 . S
C1730 H1743 0.961 . S
C1730 H1744 0.961 . S
C1731 C1728 1.539 . S
C1731 H1745 0.958 . S
C1731 H1746 0.961 . S
C1731 H1747 0.960 . S
H1732 C1716 0.931 . S
H1733 C1721 0.929 . S
H1734 C1722 0.960 . S
H1735 C1722 0.962 . S
H1736 C1722 0.960 . S
H1737 C1723 0.961 . S
H1738 C1723 0.961 . S
H1739 C1723 0.961 . S
H1740 C1724 0.931 . S
H1741 C1729 0.930 . S
H1742 C1730 0.956 . S
H1743 C1730 0.961 . S
H1744 C1730 0.961 . S
H1745 C1731 0.958 . S
H1746 C1731 0.961 . S
H1747 C1731 0.960 . S
C1748 C1749 1.391 . S
C1748 C1750 1.394 . S
C1748 H1764 0.931 . S
C1749 C1748 1.391 . S
C1749 C1753 1.376 . S
C1750 C1748 1.394 . S
C1750 C1751 1.369 . S
C1750 C1754 1.531 . S
C1751 C1750 1.369 . S
C1751 C1752 1.410 . S
C1751 C1759 1.503 . S
C1752 C1751 1.410 . S
C1752 C1753 1.392 . S
C1752 C1755 1.511 . S
C1753 C1749 1.376 . S
C1753 C1752 1.392 . S
C1753 H1765 0.929 . S
C1754 C1750 1.531 . S
C1754 H1766 0.960 . S
C1754 H1767 0.962 . S
C1754 H1768 0.960 . S
C1755 C1752 1.511 . S
C1755 H1769 0.961 . S
C1755 H1770 0.961 . S
C1755 H1771 0.961 . S
C1756 C1757 1.370 . S
C1756 C1758 1.363 . S
C1756 H1772 0.931 . S
C1757 C1756 1.370 . S
C1757 C1761 1.408 . S
C1758 C1756 1.363 . S
C1758 C1759 1.370 . S
C1758 C1762 1.524 . S
C1759 C1751 1.503 . S
C1759 C1758 1.370 . S
C1759 C1760 1.403 . S
C1760 C1759 1.403 . S
C1760 C1761 1.404 . S
C1760 C1763 1.539 . S
C1761 C1757 1.408 . S
C1761 C1760 1.404 . S
C1761 H1773 0.930 . S
C1762 C1758 1.524 . S
C1762 H1774 0.956 . S
C1762 H1775 0.961 . S
C1762 H1776 0.961 . S
C1763 C1760 1.539 . S
C1763 H1777 0.958 . S
C1763 H1778 0.961 . S
C1763 H1779 0.960 . S
H1764 C1748 0.931 . S
H1765 C1753 0.929 . S
H1766 C1754 0.960 . S
H1767 C1754 0.962 . S
H1768 C1754 0.960 . S
H1769 C1755 0.961 . S
H1770 C1755 0.961 . S
H1771 C1755 0.961 . S
H1772 C1756 0.931 . S
H1773 C1761 0.930 . S
H1774 C1762 0.956 . S
H1775 C1762 0.961 . S
H1776 C1762 0.961 . S
H1777 C1763 0.958 . S
H1778 C1763 0.961 . S
H1779 C1763 0.960 . S
C1780 C1781 1.391 . S
C1780 C1782 1.394 . S
C1780 H1796 0.931 . S
C1781 C1780 1.391 . S
C1781 C1785 1.376 . S
C1782 C1780 1.394 . S
C1782 C1783 1.369 . S
C1782 C1786 1.531 . S
C1783 C1782 1.369 . S
C1783 C1784 1.410 . S
C1783 C1791 1.503 . S
C1784 C1783 1.410 . S
C1784 C1785 1.392 . S
C1784 C1787 1.511 . S
C1785 C1781 1.376 . S
C1785 C1784 1.392 . S
C1785 H1797 0.929 . S
C1786 C1782 1.531 . S
C1786 H1798 0.960 . S
C1786 H1799 0.962 . S
C1786 H1800 0.960 . S
C1787 C1784 1.511 . S
C1787 H1801 0.961 . S
C1787 H1802 0.961 . S
C1787 H1803 0.961 . S
C1788 C1789 1.370 . S
C1788 C1790 1.363 . S
C1788 H1804 0.931 . S
C1789 C1788 1.370 . S
C1789 C1793 1.408 . S
C1790 C1788 1.363 . S
C1790 C1791 1.370 . S
C1790 C1794 1.524 . S
C1791 C1783 1.503 . S
C1791 C1790 1.370 . S
C1791 C1792 1.403 . S
C1792 C1791 1.403 . S
C1792 C1793 1.404 . S
C1792 C1795 1.539 . S
C1793 C1789 1.408 . S
C1793 C1792 1.404 . S
C1793 H1805 0.930 . S
C1794 C1790 1.524 . S
C1794 H1806 0.956 . S
C1794 H1807 0.961 . S
C1794 H1808 0.961 . S
C1795 C1792 1.539 . S
C1795 H1809 0.958 . S
C1795 H1810 0.961 . S
C1795 H1811 0.960 . S
H1796 C1780 0.931 . S
H1797 C1785 0.929 . S
H1798 C1786 0.960 . S
H1799 C1786 0.962 . S
H1800 C1786 0.960 . S
H1801 C1787 0.961 . S
H1802 C1787 0.961 . S
H1803 C1787 0.961 . S
H1804 C1788 0.931 . S
H1805 C1793 0.930 . S
H1806 C1794 0.956 . S
H1807 C1794 0.961 . S
H1808 C1794 0.961 . S
H1809 C1795 0.958 . S
H1810 C1795 0.961 . S
H1811 C1795 0.960 . S
C1812 C1813 1.391 . S
C1812 C1814 1.394 . S
C1812 H1828 0.931 . S
C1813 C1812 1.391 . S
C1813 C1817 1.376 . S
C1814 C1812 1.394 . S
C1814 C1815 1.369 . S
C1814 C1818 1.531 . S
C1815 C1814 1.369 . S
C1815 C1816 1.410 . S
C1815 C1823 1.503 . S
C1816 C1815 1.410 . S
C1816 C1817 1.392 . S
C1816 C1819 1.511 . S
C1817 C1813 1.376 . S
C1817 C1816 1.392 . S
C1817 H1829 0.929 . S
C1818 C1814 1.531 . S
C1818 H1830 0.960 . S
C1818 H1831 0.962 . S
C1818 H1832 0.960 . S
C1819 C1816 1.511 . S
C1819 H1833 0.961 . S
C1819 H1834 0.961 . S
C1819 H1835 0.961 . S
C1820 C1821 1.370 . S
C1820 C1822 1.363 . S
C1820 H1836 0.931 . S
C1821 C1820 1.370 . S
C1821 C1825 1.408 . S
C1822 C1820 1.363 . S
C1822 C1823 1.370 . S
C1822 C1826 1.524 . S
C1823 C1815 1.503 . S
C1823 C1822 1.370 . S
C1823 C1824 1.403 . S
C1824 C1823 1.403 . S
C1824 C1825 1.404 . S
C1824 C1827 1.539 . S
C1825 C1821 1.408 . S
C1825 C1824 1.404 . S
C1825 H1837 0.930 . S
C1826 C1822 1.524 . S
C1826 H1838 0.956 . S
C1826 H1839 0.961 . S
C1826 H1840 0.961 . S
C1827 C1824 1.539 . S
C1827 H1841 0.958 . S
C1827 H1842 0.961 . S
C1827 H1843 0.960 . S
H1828 C1812 0.931 . S
H1829 C1817 0.929 . S
H1830 C1818 0.960 . S
H1831 C1818 0.962 . S
H1832 C1818 0.960 . S
H1833 C1819 0.961 . S
H1834 C1819 0.961 . S
H1835 C1819 0.961 . S
H1836 C1820 0.931 . S
H1837 C1825 0.930 . S
H1838 C1826 0.956 . S
H1839 C1826 0.961 . S
H1840 C1826 0.961 . S
H1841 C1827 0.958 . S
H1842 C1827 0.961 . S
H1843 C1827 0.960 . S
C1844 C1845 1.391 . S
C1844 C1846 1.394 . S
C1844 H1860 0.931 . S
C1845 C1844 1.391 . S
C1845 C1849 1.376 . S
C1846 C1844 1.394 . S
C1846 C1847 1.369 . S
C1846 C1850 1.531 . S
C1847 C1846 1.369 . S
C1847 C1848 1.410 . S
C1847 C1855 1.503 . S
C1848 C1847 1.410 . S
C1848 C1849 1.392 . S
C1848 C1851 1.511 . S
C1849 C1845 1.376 . S
C1849 C1848 1.392 . S
C1849 H1861 0.929 . S
C1850 C1846 1.531 . S
C1850 H1862 0.960 . S
C1850 H1863 0.962 . S
C1850 H1864 0.960 . S
C1851 C1848 1.511 . S
C1851 H1865 0.961 . S
C1851 H1866 0.961 . S
C1851 H1867 0.961 . S
C1852 C1853 1.370 . S
C1852 C1854 1.363 . S
C1852 H1868 0.931 . S
C1853 C1852 1.370 . S
C1853 C1857 1.408 . S
C1854 C1852 1.363 . S
C1854 C1855 1.370 . S
C1854 C1858 1.524 . S
C1855 C1847 1.503 . S
C1855 C1854 1.370 . S
C1855 C1856 1.403 . S
C1856 C1855 1.403 . S
C1856 C1857 1.404 . S
C1856 C1859 1.539 . S
C1857 C1853 1.408 . S
C1857 C1856 1.404 . S
C1857 H1869 0.930 . S
C1858 C1854 1.524 . S
C1858 H1870 0.956 . S
C1858 H1871 0.961 . S
C1858 H1872 0.961 . S
C1859 C1856 1.539 . S
C1859 H1873 0.958 . S
C1859 H1874 0.961 . S
C1859 H1875 0.960 . S
H1860 C1844 0.931 . S
H1861 C1849 0.929 . S
H1862 C1850 0.960 . S
H1863 C1850 0.962 . S
H1864 C1850 0.960 . S
H1865 C1851 0.961 . S
H1866 C1851 0.961 . S
H1867 C1851 0.961 . S
H1868 C1852 0.931 . S
H1869 C1857 0.930 . S
H1870 C1858 0.956 . S
H1871 C1858 0.961 . S
H1872 C1858 0.961 . S
H1873 C1859 0.958 . S
H1874 C1859 0.961 . S
H1875 C1859 0.960 . S
C1876 C1877 1.391 . S
C1876 C1878 1.394 . S
C1876 H1892 0.931 . S
C1877 C1876 1.391 . S
C1877 C1881 1.376 . S
C1878 C1876 1.394 . S
C1878 C1879 1.369 . S
C1878 C1882 1.531 . S
C1879 C1878 1.369 . S
C1879 C1880 1.410 . S
C1879 C1887 1.503 . S
C1880 C1879 1.410 . S
C1880 C1881 1.392 . S
C1880 C1883 1.511 . S
C1881 C1877 1.376 . S
C1881 C1880 1.392 . S
C1881 H1893 0.929 . S
C1882 C1878 1.531 . S
C1882 H1894 0.960 . S
C1882 H1895 0.962 . S
C1882 H1896 0.960 . S
C1883 C1880 1.511 . S
C1883 H1897 0.961 . S
C1883 H1898 0.961 . S
C1883 H1899 0.961 . S
C1884 C1885 1.370 . S
C1884 C1886 1.363 . S
C1884 H1900 0.931 . S
C1885 C1884 1.370 . S
C1885 C1889 1.408 . S
C1886 C1884 1.363 . S
C1886 C1887 1.370 . S
C1886 C1890 1.524 . S
C1887 C1879 1.503 . S
C1887 C1886 1.370 . S
C1887 C1888 1.403 . S
C1888 C1887 1.403 . S
C1888 C1889 1.404 . S
C1888 C1891 1.539 . S
C1889 C1885 1.408 . S
C1889 C1888 1.404 . S
C1889 H1901 0.930 . S
C1890 C1886 1.524 . S
C1890 H1902 0.956 . S
C1890 H1903 0.961 . S
C1890 H1904 0.961 . S
C1891 C1888 1.539 . S
C1891 H1905 0.958 . S
C1891 H1906 0.961 . S
C1891 H1907 0.960 . S
H1892 C1876 0.931 . S
H1893 C1881 0.929 . S
H1894 C1882 0.960 . S
H1895 C1882 0.962 . S
H1896 C1882 0.960 . S
H1897 C1883 0.961 . S
H1898 C1883 0.961 . S
H1899 C1883 0.961 . S
H1900 C1884 0.931 . S
H1901 C1889 0.930 . S
H1902 C1890 0.956 . S
H1903 C1890 0.961 . S
H1904 C1890 0.961 . S
H1905 C1891 0.958 . S
H1906 C1891 0.961 . S
H1907 C1891 0.960 . S
C1908 C1909 1.391 . S
C1908 C1910 1.394 . S
C1908 H1924 0.931 . S
C1909 C1908 1.391 . S
C1909 C1913 1.376 . S
C1910 C1908 1.394 . S
C1910 C1911 1.369 . S
C1910 C1914 1.531 . S
C1911 C1910 1.369 . S
C1911 C1912 1.410 . S
C1911 C1919 1.503 . S
C1912 C1911 1.410 . S
C1912 C1913 1.392 . S
C1912 C1915 1.511 . S
C1913 C1909 1.376 . S
C1913 C1912 1.392 . S
C1913 H1925 0.929 . S
C1914 C1910 1.531 . S
C1914 H1926 0.960 . S
C1914 H1927 0.962 . S
C1914 H1928 0.960 . S
C1915 C1912 1.511 . S
C1915 H1929 0.961 . S
C1915 H1930 0.961 . S
C1915 H1931 0.961 . S
C1916 C1917 1.370 . S
C1916 C1918 1.363 . S
C1916 H1932 0.931 . S
C1917 C1916 1.370 . S
C1917 C1921 1.408 . S
C1918 C1916 1.363 . S
C1918 C1919 1.370 . S
C1918 C1922 1.524 . S
C1919 C1911 1.503 . S
C1919 C1918 1.370 . S
C1919 C1920 1.403 . S
C1920 C1919 1.403 . S
C1920 C1921 1.404 . S
C1920 C1923 1.539 . S
C1921 C1917 1.408 . S
C1921 C1920 1.404 . S
C1921 H1933 0.930 . S
C1922 C1918 1.524 . S
C1922 H1934 0.956 . S
C1922 H1935 0.961 . S
C1922 H1936 0.961 . S
C1923 C1920 1.539 . S
C1923 H1937 0.958 . S
C1923 H1938 0.961 . S
C1923 H1939 0.960 . S
H1924 C1908 0.931 . S
H1925 C1913 0.929 . S
H1926 C1914 0.960 . S
H1927 C1914 0.962 . S
H1928 C1914 0.960 . S
H1929 C1915 0.961 . S
H1930 C1915 0.961 . S
H1931 C1915 0.961 . S
H1932 C1916 0.931 . S
H1933 C1921 0.930 . S
H1934 C1922 0.956 . S
H1935 C1922 0.961 . S
H1936 C1922 0.961 . S
H1937 C1923 0.958 . S
H1938 C1923 0.961 . S
H1939 C1923 0.960 . S
C1940 C1941 1.391 . S
C1940 C1942 1.394 . S
C1940 H1956 0.931 . S
C1941 C1940 1.391 . S
C1941 C1945 1.376 . S
C1942 C1940 1.394 . S
C1942 C1943 1.369 . S
C1942 C1946 1.531 . S
C1943 C1942 1.369 . S
C1943 C1944 1.410 . S
C1943 C1951 1.503 . S
C1944 C1943 1.410 . S
C1944 C1945 1.392 . S
C1944 C1947 1.511 . S
C1945 C1941 1.376 . S
C1945 C1944 1.392 . S
C1945 H1957 0.929 . S
C1946 C1942 1.531 . S
C1946 H1958 0.960 . S
C1946 H1959 0.962 . S
C1946 H1960 0.960 . S
C1947 C1944 1.511 . S
C1947 H1961 0.961 . S
C1947 H1962 0.961 . S
C1947 H1963 0.961 . S
C1948 C1949 1.370 . S
C1948 C1950 1.363 . S
C1948 H1964 0.931 . S
C1949 C1948 1.370 . S
C1949 C1953 1.408 . S
C1950 C1948 1.363 . S
C1950 C1951 1.370 . S
C1950 C1954 1.524 . S
C1951 C1943 1.503 . S
C1951 C1950 1.370 . S
C1951 C1952 1.403 . S
C1952 C1951 1.403 . S
C1952 C1953 1.404 . S
C1952 C1955 1.539 . S
C1953 C1949 1.408 . S
C1953 C1952 1.404 . S
C1953 H1965 0.930 . S
C1954 C1950 1.524 . S
C1954 H1966 0.956 . S
C1954 H1967 0.961 . S
C1954 H1968 0.961 . S
C1955 C1952 1.539 . S
C1955 H1969 0.958 . S
C1955 H1970 0.961 . S
C1955 H1971 0.960 . S
H1956 C1940 0.931 . S
H1957 C1945 0.929 . S
H1958 C1946 0.960 . S
H1959 C1946 0.962 . S
H1960 C1946 0.960 . S
H1961 C1947 0.961 . S
H1962 C1947 0.961 . S
H1963 C1947 0.961 . S
H1964 C1948 0.931 . S
H1965 C1953 0.930 . S
H1966 C1954 0.956 . S
H1967 C1954 0.961 . S
H1968 C1954 0.961 . S
H1969 C1955 0.958 . S
H1970 C1955 0.961 . S
H1971 C1955 0.960 . S
C1972 C1973 1.391 . S
C1972 C1974 1.394 . S
C1972 H1988 0.931 . S
C1973 C1972 1.391 . S
C1973 C1977 1.376 . S
C1974 C1972 1.394 . S
C1974 C1975 1.369 . S
C1974 C1978 1.531 . S
C1975 C1974 1.369 . S
C1975 C1976 1.410 . S
C1975 C1983 1.503 . S
C1976 C1975 1.410 . S
C1976 C1977 1.392 . S
C1976 C1979 1.511 . S
C1977 C1973 1.376 . S
C1977 C1976 1.392 . S
C1977 H1989 0.929 . S
C1978 C1974 1.531 . S
C1978 H1990 0.960 . S
C1978 H1991 0.962 . S
C1978 H1992 0.960 . S
C1979 C1976 1.511 . S
C1979 H1993 0.961 . S
C1979 H1994 0.961 . S
C1979 H1995 0.961 . S
C1980 C1981 1.370 . S
C1980 C1982 1.363 . S
C1980 H1996 0.931 . S
C1981 C1980 1.370 . S
C1981 C1985 1.408 . S
C1982 C1980 1.363 . S
C1982 C1983 1.370 . S
C1982 C1986 1.524 . S
C1983 C1975 1.503 . S
C1983 C1982 1.370 . S
C1983 C1984 1.403 . S
C1984 C1983 1.403 . S
C1984 C1985 1.404 . S
C1984 C1987 1.539 . S
C1985 C1981 1.408 . S
C1985 C1984 1.404 . S
C1985 H1997 0.930 . S
C1986 C1982 1.524 . S
C1986 H1998 0.956 . S
C1986 H1999 0.961 . S
C1986 H2000 0.961 . S
C1987 C1984 1.539 . S
C1987 H2001 0.958 . S
C1987 H2002 0.961 . S
C1987 H2003 0.960 . S
H1988 C1972 0.931 . S
H1989 C1977 0.929 . S
H1990 C1978 0.960 . S
H1991 C1978 0.962 . S
H1992 C1978 0.960 . S
H1993 C1979 0.961 . S
H1994 C1979 0.961 . S
H1995 C1979 0.961 . S
H1996 C1980 0.931 . S
H1997 C1985 0.930 . S
H1998 C1986 0.956 . S
H1999 C1986 0.961 . S
H2000 C1986 0.961 . S
H2001 C1987 0.958 . S
H2002 C1987 0.961 . S
H2003 C1987 0.960 . S
C2004 C2005 1.391 . S
C2004 C2006 1.394 . S
C2004 H2020 0.931 . S
C2005 C2004 1.391 . S
C2005 C2009 1.376 . S
C2006 C2004 1.394 . S
C2006 C2007 1.369 . S
C2006 C2010 1.531 . S
C2007 C2006 1.369 . S
C2007 C2008 1.410 . S
C2007 C2015 1.503 . S
C2008 C2007 1.410 . S
C2008 C2009 1.392 . S
C2008 C2011 1.511 . S
C2009 C2005 1.376 . S
C2009 C2008 1.392 . S
C2009 H2021 0.929 . S
C2010 C2006 1.531 . S
C2010 H2022 0.960 . S
C2010 H2023 0.962 . S
C2010 H2024 0.960 . S
C2011 C2008 1.511 . S
C2011 H2025 0.961 . S
C2011 H2026 0.961 . S
C2011 H2027 0.961 . S
C2012 C2013 1.370 . S
C2012 C2014 1.363 . S
C2012 H2028 0.931 . S
C2013 C2012 1.370 . S
C2013 C2017 1.408 . S
C2014 C2012 1.363 . S
C2014 C2015 1.370 . S
C2014 C2018 1.524 . S
C2015 C2007 1.503 . S
C2015 C2014 1.370 . S
C2015 C2016 1.403 . S
C2016 C2015 1.403 . S
C2016 C2017 1.404 . S
C2016 C2019 1.539 . S
C2017 C2013 1.408 . S
C2017 C2016 1.404 . S
C2017 H2029 0.930 . S
C2018 C2014 1.524 . S
C2018 H2030 0.956 . S
C2018 H2031 0.961 . S
C2018 H2032 0.961 . S
C2019 C2016 1.539 . S
C2019 H2033 0.958 . S
C2019 H2034 0.961 . S
C2019 H2035 0.960 . S
H2020 C2004 0.931 . S
H2021 C2009 0.929 . S
H2022 C2010 0.960 . S
H2023 C2010 0.962 . S
H2024 C2010 0.960 . S
H2025 C2011 0.961 . S
H2026 C2011 0.961 . S
H2027 C2011 0.961 . S
H2028 C2012 0.931 . S
H2029 C2017 0.930 . S
H2030 C2018 0.956 . S
H2031 C2018 0.961 . S
H2032 C2018 0.961 . S
H2033 C2019 0.958 . S
H2034 C2019 0.961 . S
H2035 C2019 0.960 . S
C2036 C2037 1.391 . S
C2036 C2038 1.394 . S
C2036 H2052 0.931 . S
C2037 C2036 1.391 . S
C2037 C2041 1.376 . S
C2038 C2036 1.394 . S
C2038 C2039 1.369 . S
C2038 C2042 1.531 . S
C2039 C2038 1.369 . S
C2039 C2040 1.410 . S
C2039 C2047 1.503 . S
C2040 C2039 1.410 . S
C2040 C2041 1.392 . S
C2040 C2043 1.511 . S
C2041 C2037 1.376 . S
C2041 C2040 1.392 . S
C2041 H2053 0.929 . S
C2042 C2038 1.531 . S
C2042 H2054 0.960 . S
C2042 H2055 0.962 . S
C2042 H2056 0.960 . S
C2043 C2040 1.511 . S
C2043 H2057 0.961 . S
C2043 H2058 0.961 . S
C2043 H2059 0.961 . S
C2044 C2045 1.370 . S
C2044 C2046 1.363 . S
C2044 H2060 0.931 . S
C2045 C2044 1.370 . S
C2045 C2049 1.408 . S
C2046 C2044 1.363 . S
C2046 C2047 1.370 . S
C2046 C2050 1.524 . S
C2047 C2039 1.503 . S
C2047 C2046 1.370 . S
C2047 C2048 1.403 . S
C2048 C2047 1.403 . S
C2048 C2049 1.404 . S
C2048 C2051 1.539 . S
C2049 C2045 1.408 . S
C2049 C2048 1.404 . S
C2049 H2061 0.930 . S
C2050 C2046 1.524 . S
C2050 H2062 0.956 . S
C2050 H2063 0.961 . S
C2050 H2064 0.961 . S
C2051 C2048 1.539 . S
C2051 H2065 0.958 . S
C2051 H2066 0.961 . S
C2051 H2067 0.960 . S
H2052 C2036 0.931 . S
H2053 C2041 0.929 . S
H2054 C2042 0.960 . S
H2055 C2042 0.962 . S
H2056 C2042 0.960 . S
H2057 C2043 0.961 . S
H2058 C2043 0.961 . S
H2059 C2043 0.961 . S
H2060 C2044 0.931 . S
H2061 C2049 0.930 . S
H2062 C2050 0.956 . S
H2063 C2050 0.961 . S
H2064 C2050 0.961 . S
H2065 C2051 0.958 . S
H2066 C2051 0.961 . S
H2067 C2051 0.960 . S
C2068 C2069 1.391 . S
C2068 C2070 1.394 . S
C2068 H2084 0.931 . S
C2069 C2068 1.391 . S
C2069 C2073 1.376 . S
C2070 C2068 1.394 . S
C2070 C2071 1.369 . S
C2070 C2074 1.531 . S
C2071 C2070 1.369 . S
C2071 C2072 1.410 . S
C2071 C2079 1.503 . S
C2072 C2071 1.410 . S
C2072 C2073 1.392 . S
C2072 C2075 1.511 . S
C2073 C2069 1.376 . S
C2073 C2072 1.392 . S
C2073 H2085 0.929 . S
C2074 C2070 1.531 . S
C2074 H2086 0.960 . S
C2074 H2087 0.962 . S
C2074 H2088 0.960 . S
C2075 C2072 1.511 . S
C2075 H2089 0.961 . S
C2075 H2090 0.961 . S
C2075 H2091 0.961 . S
C2076 C2077 1.370 . S
C2076 C2078 1.363 . S
C2076 H2092 0.931 . S
C2077 C2076 1.370 . S
C2077 C2081 1.408 . S
C2078 C2076 1.363 . S
C2078 C2079 1.370 . S
C2078 C2082 1.524 . S
C2079 C2071 1.503 . S
C2079 C2078 1.370 . S
C2079 C2080 1.403 . S
C2080 C2079 1.403 . S
C2080 C2081 1.404 . S
C2080 C2083 1.539 . S
C2081 C2077 1.408 . S
C2081 C2080 1.404 . S
C2081 H2093 0.930 . S
C2082 C2078 1.524 . S
C2082 H2094 0.956 . S
C2082 H2095 0.961 . S
C2082 H2096 0.961 . S
C2083 C2080 1.539 . S
C2083 H2097 0.958 . S
C2083 H2098 0.961 . S
C2083 H2099 0.960 . S
H2084 C2068 0.931 . S
H2085 C2073 0.929 . S
H2086 C2074 0.960 . S
H2087 C2074 0.962 . S
H2088 C2074 0.960 . S
H2089 C2075 0.961 . S
H2090 C2075 0.961 . S
H2091 C2075 0.961 . S
H2092 C2076 0.931 . S
H2093 C2081 0.930 . S
H2094 C2082 0.956 . S
H2095 C2082 0.961 . S
H2096 C2082 0.961 . S
H2097 C2083 0.958 . S
H2098 C2083 0.961 . S
H2099 C2083 0.960 . S
C2100 C2101 1.391 . S
C2100 C2102 1.394 . S
C2100 H2116 0.931 . S
C2101 C2100 1.391 . S
C2101 C2105 1.376 . S
C2102 C2100 1.394 . S
C2102 C2103 1.369 . S
C2102 C2106 1.531 . S
C2103 C2102 1.369 . S
C2103 C2104 1.410 . S
C2103 C2111 1.503 . S
C2104 C2103 1.410 . S
C2104 C2105 1.392 . S
C2104 C2107 1.511 . S
C2105 C2101 1.376 . S
C2105 C2104 1.392 . S
C2105 H2117 0.929 . S
C2106 C2102 1.531 . S
C2106 H2118 0.960 . S
C2106 H2119 0.962 . S
C2106 H2120 0.960 . S
C2107 C2104 1.511 . S
C2107 H2121 0.961 . S
C2107 H2122 0.961 . S
C2107 H2123 0.961 . S
C2108 C2109 1.370 . S
C2108 C2110 1.363 . S
C2108 H2124 0.931 . S
C2109 C2108 1.370 . S
C2109 C2113 1.408 . S
C2110 C2108 1.363 . S
C2110 C2111 1.370 . S
C2110 C2114 1.524 . S
C2111 C2103 1.503 . S
C2111 C2110 1.370 . S
C2111 C2112 1.403 . S
C2112 C2111 1.403 . S
C2112 C2113 1.404 . S
C2112 C2115 1.539 . S
C2113 C2109 1.408 . S
C2113 C2112 1.404 . S
C2113 H2125 0.930 . S
C2114 C2110 1.524 . S
C2114 H2126 0.956 . S
C2114 H2127 0.961 . S
C2114 H2128 0.961 . S
C2115 C2112 1.539 . S
C2115 H2129 0.958 . S
C2115 H2130 0.961 . S
C2115 H2131 0.960 . S
H2116 C2100 0.931 . S
H2117 C2105 0.929 . S
H2118 C2106 0.960 . S
H2119 C2106 0.962 . S
H2120 C2106 0.960 . S
H2121 C2107 0.961 . S
H2122 C2107 0.961 . S
H2123 C2107 0.961 . S
H2124 C2108 0.931 . S
H2125 C2113 0.930 . S
H2126 C2114 0.956 . S
H2127 C2114 0.961 . S
H2128 C2114 0.961 . S
H2129 C2115 0.958 . S
H2130 C2115 0.961 . S
H2131 C2115 0.960 . S
C605 C301 1.299 . S
C597 N2 1.261 . S
C637 C339 2.497 . S
C629 C7 2.509 . S
C669 C360 1.653 . S
C661 N12 1.460 . S
C693 C16 1.899 . S
C701 C398 1.973 . S
C733 C438 2.602 . S
C725 C30 2.575 1_565 S
C765 C501 1.420 . S
C757 N35 1.333 . S
C789 C39 2.101 . S
C797 C539 2.095 . S
C829 C560 1.182 . S
C821 N25 1.178 . S
C861 C307 1.197 . S
C853 N58 1.114 . S
C885 N81 1.976 . S
C893 C336 1.964 . S
C925 C379 1.346 . S
C917 N104 1.258 . S
C949 N127 1.157 . S
C957 C421 1.177 . S
C989 C461 0.865 . S
C981 N48 0.856 1_565 S
C1021 C507 1.562 . S
C1013 N71 1.498 1_556 S
C1045 N94 1.422 . S
C1053 C536 1.397 . S
C1085 C579 1.834 . S
C1077 N117 1.836 . S
C1109 C85 2.389 . S
C1117 C278 2.368 . S
C1141 C122 2.434 . S
C1149 C467 2.429 . S
C1173 C53 1.948 . S
C1181 C478 1.900 . S
C1213 C520 1.408 . S
C1205 C76 1.401 1_655 S
C1245 C576 1.809 . S
C1237 C99 1.821 . S
C1277 C376 1.985 . S
C1269 C131 1.967 . S
C1309 C427 1.794 . S
C1301 C62 1.812 1_565 S
C1333 C108 1.120 . S
C1341 C320 1.104 . S
C1373 C581 1.356 . S
C1365 N140 1.346 . S
C1397 C145 2.505 . S
C1405 C459 2.489 . S
C1437 C480 1.515 . S
C1429 N150 1.419 . S
C1461 C154 1.952 . S
C1469 C518 1.969 . S
C1501 C318 2.608 . S
C1493 C168 2.583 . S
C1525 N173 1.199 . S
C1533 C381 1.305 . S
C1565 C419 2.087 . S
C1557 C177 2.125 . S
C1597 C280 1.231 . S
C1589 N163 1.203 . S
C1629 C587 1.657 . S
C1621 C200 1.657 . S
C1661 C456 2.247 . S
C1653 N219 2.248 . S
C1685 N242 1.524 . S
C1693 C499 1.604 . S
C1725 C541 1.435 . S
C1717 C269 1.449 . S
C1757 C341 1.136 . S
C1749 C191 1.158 . S
C1781 N209 1.720 . S
C1789 C387 1.823 . S
C1813 N232 1.692 . S
C1821 C416 1.685 . S
C1845 C260 2.356 . S
C1853 C299 2.338 . S
C1877 C223 2.089 . S
C1885 C558 2.065 . S
C1909 N255 1.967 . S
C1917 C347 2.011 . S
C1941 N186 1.477 . S
C1949 C358 1.450 . S
C1981 C400 1.091 . S
C1973 C214 1.129 . S
C2013 C296 1.485 . S
C2005 C237 1.491 . S
C2045 C496 1.561 . S
C2037 N265 1.477 . S
C2077 C547 1.409 . S
C2069 N196 1.394 . S
C2109 C440 0.824 . S
C2101 C246 0.819 . S
