# Generated by pormake.
# Topology ocu, (6,8)-cn, num edge types: 1
# Building blocks:
#     Node 0, Type 0, BuildingBlock: FUNLAD_clean_sbu_0, # of connection points: 6
#     Node 1, Type 0, BuildingBlock: FUNLAD_clean_sbu_0, # of connection points: 6
#     Node 2, Type 0, BuildingBlock: FUNLAD_clean_sbu_0, # of connection points: 6
#     Node 3, Type 0, BuildingBlock: FUNLAD_clean_sbu_0, # of connection points: 6
#     Node 4, Type 0, BuildingBlock: FUNLAD_clean_sbu_0, # of connection points: 6
#     Node 5, Type 0, BuildingBlock: FUNLAD_clean_sbu_0, # of connection points: 6
#     Node 6, Type 0, BuildingBlock: FUNLAD_clean_sbu_0, # of connection points: 6
#     Node 7, Type 0, BuildingBlock: FUNLAD_clean_sbu_0, # of connection points: 6
#     Node 8, Type 1, BuildingBlock: VETTIZ_charged_sbu_0, # of connection points: 8
#     Node 9, Type 1, BuildingBlock: VETTIZ_charged_sbu_0, # of connection points: 8
#     Node 10, Type 1, BuildingBlock: VETTIZ_charged_sbu_0, # of connection points: 8
#     Node 11, Type 1, BuildingBlock: VETTIZ_charged_sbu_0, # of connection points: 8
#     Node 12, Type 1, BuildingBlock: VETTIZ_charged_sbu_0, # of connection points: 8
#     Node 13, Type 1, BuildingBlock: VETTIZ_charged_sbu_0, # of connection points: 8
#     Edge 14, Type (0, 1), BuildingBlock: AJUNOK_clean_linker_0, # of connection points: 2
#     Edge 15, Type (0, 1), BuildingBlock: AJUNOK_clean_linker_0, # of connection points: 2
#     Edge 16, Type (0, 1), BuildingBlock: AJUNOK_clean_linker_0, # of connection points: 2
#     Edge 17, Type (0, 1), BuildingBlock: AJUNOK_clean_linker_0, # of connection points: 2
#     Edge 18, Type (0, 1), BuildingBlock: AJUNOK_clean_linker_0, # of connection points: 2
#     Edge 19, Type (0, 1), BuildingBlock: AJUNOK_clean_linker_0, # of connection points: 2
#     Edge 20, Type (0, 1), BuildingBlock: AJUNOK_clean_linker_0, # of connection points: 2
#     Edge 21, Type (0, 1), BuildingBlock: AJUNOK_clean_linker_0, # of connection points: 2
#     Edge 22, Type (0, 1), BuildingBlock: AJUNOK_clean_linker_0, # of connection points: 2
#     Edge 23, Type (0, 1), BuildingBlock: AJUNOK_clean_linker_0, # of connection points: 2
#     Edge 24, Type (0, 1), BuildingBlock: AJUNOK_clean_linker_0, # of connection points: 2
#     Edge 25, Type (0, 1), BuildingBlock: AJUNOK_clean_linker_0, # of connection points: 2
#     Edge 26, Type (0, 1), BuildingBlock: AJUNOK_clean_linker_0, # of connection points: 2
#     Edge 27, Type (0, 1), BuildingBlock: AJUNOK_clean_linker_0, # of connection points: 2
#     Edge 28, Type (0, 1), BuildingBlock: AJUNOK_clean_linker_0, # of connection points: 2
#     Edge 29, Type (0, 1), BuildingBlock: AJUNOK_clean_linker_0, # of connection points: 2
#     Edge 30, Type (0, 1), BuildingBlock: AJUNOK_clean_linker_0, # of connection points: 2
#     Edge 31, Type (0, 1), BuildingBlock: AJUNOK_clean_linker_0, # of connection points: 2
#     Edge 32, Type (0, 1), BuildingBlock: AJUNOK_clean_linker_0, # of connection points: 2
#     Edge 33, Type (0, 1), BuildingBlock: AJUNOK_clean_linker_0, # of connection points: 2
#     Edge 34, Type (0, 1), BuildingBlock: AJUNOK_clean_linker_0, # of connection points: 2
#     Edge 35, Type (0, 1), BuildingBlock: AJUNOK_clean_linker_0, # of connection points: 2
#     Edge 36, Type (0, 1), BuildingBlock: AJUNOK_clean_linker_0, # of connection points: 2
#     Edge 37, Type (0, 1), BuildingBlock: AJUNOK_clean_linker_0, # of connection points: 2
#     Edge 38, Type (0, 1), BuildingBlock: AJUNOK_clean_linker_0, # of connection points: 2
#     Edge 39, Type (0, 1), BuildingBlock: AJUNOK_clean_linker_0, # of connection points: 2
#     Edge 40, Type (0, 1), BuildingBlock: AJUNOK_clean_linker_0, # of connection points: 2
#     Edge 41, Type (0, 1), BuildingBlock: AJUNOK_clean_linker_0, # of connection points: 2
#     Edge 42, Type (0, 1), BuildingBlock: AJUNOK_clean_linker_0, # of connection points: 2
#     Edge 43, Type (0, 1), BuildingBlock: AJUNOK_clean_linker_0, # of connection points: 2
#     Edge 44, Type (0, 1), BuildingBlock: AJUNOK_clean_linker_0, # of connection points: 2
#     Edge 45, Type (0, 1), BuildingBlock: AJUNOK_clean_linker_0, # of connection points: 2
#     Edge 46, Type (0, 1), BuildingBlock: AJUNOK_clean_linker_0, # of connection points: 2
#     Edge 47, Type (0, 1), BuildingBlock: AJUNOK_clean_linker_0, # of connection points: 2
#     Edge 48, Type (0, 1), BuildingBlock: AJUNOK_clean_linker_0, # of connection points: 2
#     Edge 49, Type (0, 1), BuildingBlock: AJUNOK_clean_linker_0, # of connection points: 2
#     Edge 50, Type (0, 1), BuildingBlock: AJUNOK_clean_linker_0, # of connection points: 2
#     Edge 51, Type (0, 1), BuildingBlock: AJUNOK_clean_linker_0, # of connection points: 2
#     Edge 52, Type (0, 1), BuildingBlock: AJUNOK_clean_linker_0, # of connection points: 2
#     Edge 53, Type (0, 1), BuildingBlock: AJUNOK_clean_linker_0, # of connection points: 2
#     Edge 54, Type (0, 1), BuildingBlock: AJUNOK_clean_linker_0, # of connection points: 2
#     Edge 55, Type (0, 1), BuildingBlock: AJUNOK_clean_linker_0, # of connection points: 2
#     Edge 56, Type (0, 1), BuildingBlock: AJUNOK_clean_linker_0, # of connection points: 2
#     Edge 57, Type (0, 1), BuildingBlock: AJUNOK_clean_linker_0, # of connection points: 2
#     Edge 58, Type (0, 1), BuildingBlock: AJUNOK_clean_linker_0, # of connection points: 2
#     Edge 59, Type (0, 1), BuildingBlock: AJUNOK_clean_linker_0, # of connection points: 2
#     Edge 60, Type (0, 1), BuildingBlock: AJUNOK_clean_linker_0, # of connection points: 2
#     Edge 61, Type (0, 1), BuildingBlock: AJUNOK_clean_linker_0, # of connection points: 2
# Relax obj value: 0.180
# Max RMSD: 0.270
# Mean RMSD: 0.162
data_MOF--net-ocu--node1-FUNLAD_clean_sbu_0--node2-VETTIZ_charged_sbu_0--edge1-AJUNOK_clean_linker_0
_symmetry_space_group_name_H-M    P1
_symmetry_Int_Tables_number       1
_symmetry_cell_setting            triclinic
loop_
_symmetry_equiv_pos_as_xyz
'x, y, z'
_cell_length_a     29.798012
_cell_length_b     29.635078
_cell_length_c     29.753512
_cell_angle_alpha  82.634778
_cell_angle_beta   82.718448
_cell_angle_gamma 79.233645
loop_
_atom_site_label
_atom_site_type_symbol
_atom_site_fract_x
_atom_site_fract_y
_atom_site_fract_z
_atom_type_partial_charge
C0 C 0.19309 0.27961 0.33857 0.0
N1 N 0.19592 0.16567 0.26467 0.0
C2 C 0.19198 0.13492 0.30216 0.0
C3 C 0.16372 0.10245 0.30376 0.0
C4 C 0.13739 0.10355 0.26739 0.0
C5 C 0.14561 0.13229 0.22737 0.0
C6 C 0.17615 0.16279 0.22644 0.0
Zn7 Zn 0.2302 0.21776 0.26593 0.0
C8 C 0.19299 0.30165 0.20445 0.0
N9 N 0.30533 0.32409 0.25986 0.0
C10 C 0.3182 0.33994 0.29647 0.0
C11 C 0.31302 0.34458 0.21687 0.0
C12 C 0.33342 0.38311 0.20918 0.0
C13 C 0.34762 0.40008 0.24583 0.0
C14 C 0.34045 0.37824 0.29003 0.0
Zn15 Zn 0.27116 0.27189 0.26347 0.0
O16 O 0.18457 0.24428 0.32311 0.0
C17 C 0.31066 0.19157 0.32357 0.0
O18 O 0.22685 0.29805 0.31937 0.0
H19 H 0.30335 0.33101 0.18819 0.0
H20 H 0.20824 0.13744 0.33198 0.0
H21 H 0.31157 0.32272 0.33034 0.0
O22 O 0.27726 0.17528 0.31269 0.0
O23 O 0.31503 0.23254 0.30818 0.0
H24 H 0.1816 0.18614 0.19606 0.0
O25 O 0.31723 0.24367 0.20805 0.0
O26 O 0.27496 0.19057 0.2108 0.0
O27 O 0.22727 0.31371 0.21756 0.0
O28 O 0.18424 0.26174 0.21938 0.0
C29 C 0.31023 0.20733 0.19362 0.0
H30 H 0.15782 0.0811 0.3356 0.0
H31 H 0.12561 0.13419 0.199 0.0
H32 H 0.33994 0.3985 0.17441 0.0
H33 H 0.35235 0.39013 0.31861 0.0
C34 C 0.68921 0.31974 0.24477 0.0
N35 N 0.74526 0.18938 0.21087 0.0
C36 C 0.70045 0.18442 0.22268 0.0
C37 C 0.67805 0.16142 0.19707 0.0
C38 C 0.70061 0.14455 0.15715 0.0
C39 C 0.74675 0.14986 0.14472 0.0
C40 C 0.76878 0.1722 0.17257 0.0
Zn41 Zn 0.7664 0.23232 0.25214 0.0
C42 C 0.82081 0.3007 0.21017 0.0
N43 N 0.77557 0.32855 0.34176 0.0
C44 C 0.74794 0.36181 0.36513 0.0
C45 C 0.82214 0.32503 0.33758 0.0
C46 C 0.84266 0.3555 0.35588 0.0
C47 C 0.81551 0.39061 0.37904 0.0
C48 C 0.76752 0.3934 0.3847 0.0
Zn49 Zn 0.75662 0.28437 0.30241 0.0
O50 O 0.71024 0.28191 0.23087 0.0
C51 C 0.70363 0.2178 0.34519 0.0
O52 O 0.70255 0.33435 0.27825 0.0
H53 H 0.84413 0.29975 0.318 0.0
H54 H 0.68011 0.2009 0.25052 0.0
H55 H 0.71101 0.36465 0.36752 0.0
O56 O 0.7239 0.20328 0.30824 0.0
O57 O 0.70916 0.25684 0.35508 0.0
H58 H 0.80377 0.17743 0.16255 0.0
O59 O 0.81011 0.23244 0.32666 0.0
O60 O 0.82243 0.18262 0.27579 0.0
O61 O 0.80239 0.31178 0.24895 0.0
O62 O 0.81212 0.26398 0.19727 0.0
C63 C 0.83213 0.19517 0.31234 0.0
H64 H 0.64211 0.15952 0.20699 0.0
H65 H 0.76508 0.13784 0.11349 0.0
H66 H 0.87979 0.35194 0.35138 0.0
H67 H 0.74567 0.42013 0.4029 0.0
C68 C 0.81931 0.69136 0.32355 0.0
N69 N 0.82067 0.83184 0.3058 0.0
C70 C 0.8195 0.81946 0.35163 0.0
C71 C 0.82848 0.84891 0.38051 0.0
C72 C 0.83877 0.8921 0.36271 0.0
C73 C 0.84063 0.90445 0.3153 0.0
C74 C 0.83108 0.87355 0.28717 0.0
Zn75 Zn 0.79234 0.78851 0.27355 0.0
C76 C 0.84413 0.74146 0.20182 0.0
N77 N 0.72103 0.69148 0.23186 0.0
C78 C 0.7026 0.65439 0.2527 0.0
C79 C 0.72211 0.70231 0.18581 0.0
C80 C 0.70366 0.6766 0.15911 0.0
C81 C 0.6845 0.63838 0.17936 0.0
C82 C 0.68422 0.627 0.22682 0.0
Zn83 Zn 0.75201 0.73467 0.26332 0.0
O84 O 0.82572 0.73261 0.3136 0.0
C85 C 0.70129 0.78104 0.33656 0.0
O86 O 0.78628 0.67846 0.30807 0.0
H87 H 0.73791 0.73087 0.16916 0.0
H88 H 0.80917 0.78748 0.36683 0.0
H89 H 0.70242 0.64585 0.28917 0.0
O90 O 0.73639 0.79992 0.32498 0.0
O91 O 0.69511 0.74885 0.31467 0.0
H92 H 0.83045 0.88349 0.25096 0.0
O93 O 0.71964 0.79203 0.2201 0.0
O94 O 0.75986 0.84394 0.23122 0.0
O95 O 0.80938 0.7218 0.21347 0.0
O96 O 0.84855 0.77575 0.22174 0.0
C97 C 0.72865 0.83274 0.21191 0.0
H98 H 0.8275 0.83772 0.41671 0.0
H99 H 0.84862 0.93769 0.30039 0.0
H100 H 0.70506 0.68614 0.12262 0.0
H101 H 0.66958 0.59764 0.24366 0.0
C102 C 0.18478 0.8307 0.29413 0.0
N103 N 0.31092 0.78809 0.33932 0.0
C104 C 0.30605 0.83501 0.33398 0.0
C105 C 0.32677 0.85791 0.36083 0.0
C106 C 0.35282 0.83283 0.39448 0.0
C107 C 0.35593 0.7844 0.40125 0.0
C108 C 0.33461 0.76246 0.37281 0.0
Zn109 Zn 0.27842 0.76456 0.29282 0.0
C110 C 0.21625 0.70169 0.32806 0.0
N111 N 0.20181 0.74254 0.19077 0.0
C112 C 0.17118 0.76723 0.16259 0.0
C113 C 0.21181 0.69554 0.19297 0.0
C114 C 0.19118 0.67154 0.16682 0.0
C115 C 0.15951 0.69568 0.13791 0.0
C116 C 0.14938 0.74415 0.13541 0.0
Zn117 Zn 0.23456 0.76671 0.23741 0.0
O118 O 0.22252 0.81493 0.31017 0.0
C119 C 0.29467 0.83216 0.2036 0.0
O120 O 0.17531 0.81475 0.25941 0.0
H121 H 0.23533 0.67594 0.21598 0.0
H122 H 0.28683 0.85537 0.30783 0.0
H123 H 0.1632 0.80446 0.16166 0.0
O124 O 0.30717 0.81285 0.24177 0.0
O125 O 0.26049 0.82017 0.18921 0.0
H126 H 0.33744 0.72527 0.37706 0.0
O127 O 0.29581 0.72067 0.21588 0.0
O128 O 0.33598 0.71309 0.27419 0.0
O129 O 0.20821 0.71491 0.28702 0.0
O130 O 0.24782 0.71686 0.34363 0.0
C131 C 0.33217 0.70347 0.23453 0.0
H132 H 0.32396 0.89505 0.35365 0.0
H133 H 0.3751 0.76379 0.42753 0.0
H134 H 0.19963 0.63415 0.16948 0.0
H135 H 0.12492 0.76365 0.11311 0.0
C136 C 0.19296 0.82164 0.72063 0.0
N137 N 0.2584 0.69034 0.68807 0.0
C138 C 0.24011 0.70735 0.64835 0.0
C139 C 0.21637 0.68052 0.62763 0.0
C140 C 0.21174 0.63596 0.64803 0.0
C141 C 0.23583 0.61744 0.68563 0.0
C142 C 0.25881 0.64546 0.70541 0.0
Zn143 Zn 0.26758 0.73455 0.73274 0.0
C144 C 0.32618 0.8028 0.69893 0.0
N145 N 0.26985 0.8272 0.8311 0.0
C146 C 0.27707 0.87113 0.81719 0.0
C147 C 0.28358 0.80518 0.87137 0.0
C148 C 0.31025 0.82484 0.89632 0.0
C149 C 0.32184 0.86859 0.88091 0.0
C150 C 0.3023 0.89284 0.84211 0.0
Zn151 Zn 0.25843 0.78546 0.7841 0.0
O152 O 0.21342 0.78307 0.70796 0.0
C153 C 0.19962 0.71596 0.81931 0.0
O154 O 0.20436 0.83562 0.75565 0.0
H155 H 0.27779 0.77028 0.88206 0.0
H156 H 0.23997 0.74309 0.63508 0.0
H157 H 0.26631 0.88815 0.78496 0.0
O158 O 0.2194 0.70256 0.7816 0.0
O159 O 0.20865 0.75282 0.83145 0.0
H160 H 0.2729 0.63258 0.73726 0.0
O161 O 0.31286 0.73581 0.80908 0.0
O162 O 0.32263 0.68705 0.75789 0.0
O163 O 0.30715 0.81525 0.73716 0.0
O164 O 0.31574 0.76757 0.68488 0.0
C165 C 0.33457 0.69916 0.79329 0.0
H166 H 0.19846 0.6959 0.59841 0.0
H167 H 0.23387 0.58284 0.70172 0.0
H168 H 0.32404 0.80432 0.92584 0.0
H169 H 0.30786 0.92753 0.82986 0.0
C170 C 0.29358 0.19369 0.82482 0.0
N171 N 0.30256 0.33291 0.79606 0.0
C172 C 0.29813 0.32631 0.84255 0.0
C173 C 0.31802 0.35187 0.86812 0.0
C174 C 0.34243 0.38569 0.84623 0.0
C175 C 0.34612 0.3932 0.79828 0.0
C176 C 0.32598 0.36596 0.77359 0.0
Zn177 Zn 0.27073 0.28709 0.7679 0.0
C178 C 0.3186 0.23745 0.6952 0.0
N179 N 0.20063 0.1851 0.73366 0.0
C180 C 0.22968 0.14517 0.72444 0.0
C181 C 0.16153 0.19901 0.71278 0.0
C182 C 0.15329 0.1754 0.67772 0.0
C183 C 0.18535 0.13703 0.6644 0.0
C184 C 0.22252 0.12035 0.68984 0.0
Zn185 Zn 0.22876 0.23302 0.76042 0.0
O186 O 0.303 0.23392 0.81368 0.0
C187 C 0.17903 0.28208 0.83131 0.0
O188 O 0.2627 0.18091 0.80626 0.0
H189 H 0.13887 0.23076 0.72025 0.0
H190 H 0.27909 0.30079 0.86045 0.0
H191 H 0.2612 0.13505 0.74037 0.0
O192 O 0.21388 0.30137 0.8185 0.0
O193 O 0.17338 0.24795 0.81191 0.0
H194 H 0.32923 0.37112 0.73674 0.0
O195 O 0.19523 0.28619 0.7164 0.0
O196 O 0.23612 0.33971 0.72159 0.0
O197 O 0.28293 0.22012 0.70927 0.0
O198 O 0.32682 0.27022 0.71518 0.0
C199 C 0.20337 0.32695 0.70551 0.0
H200 H 0.31416 0.34532 0.90498 0.0
H201 H 0.36478 0.41928 0.78026 0.0
H202 H 0.12356 0.18858 0.65938 0.0
H203 H 0.24772 0.0907 0.68068 0.0
C204 C 0.68958 0.31759 0.79328 0.0
N205 N 0.8189 0.28069 0.83668 0.0
C206 C 0.81009 0.32773 0.82975 0.0
C207 C 0.82686 0.35428 0.85632 0.0
C208 C 0.85277 0.33288 0.8914 0.0
C209 C 0.86269 0.28427 0.89801 0.0
C210 C 0.84497 0.25845 0.86999 0.0
Zn211 Zn 0.7875 0.25419 0.79089 0.0
C212 C 0.72762 0.18849 0.82516 0.0
N213 N 0.71043 0.2347 0.68934 0.0
C214 C 0.67917 0.26215 0.6636 0.0
C215 C 0.71941 0.18804 0.68851 0.0
C216 C 0.69677 0.16706 0.66159 0.0
C217 C 0.66313 0.194 0.6365 0.0
C218 C 0.65428 0.24212 0.63699 0.0
Zn219 Zn 0.74288 0.25677 0.73613 0.0
O220 O 0.72686 0.30229 0.81079 0.0
C221 C 0.80525 0.31897 0.69976 0.0
O222 O 0.6841 0.30505 0.75551 0.0
H223 H 0.7423 0.16634 0.71079 0.0
H224 H 0.7896 0.3455 0.80333 0.0
H225 H 0.67207 0.29906 0.66538 0.0
O226 O 0.81683 0.30248 0.73896 0.0
O227 O 0.7701 0.30784 0.68672 0.0
H228 H 0.85181 0.22109 0.87494 0.0
O229 O 0.80124 0.2087 0.71731 0.0
O230 O 0.84588 0.20479 0.77158 0.0
O231 O 0.71656 0.20538 0.78571 0.0
O232 O 0.75969 0.20325 0.84053 0.0
C233 C 0.83804 0.19146 0.73479 0.0
H234 H 0.81957 0.39158 0.84929 0.0
H235 H 0.8832 0.26671 0.92468 0.0
H236 H 0.70309 0.12969 0.66296 0.0
H237 H 0.62741 0.26346 0.61862 0.0
C238 C 0.70876 0.8154 0.83563 0.0
N239 N 0.70868 0.69988 0.7696 0.0
C240 C 0.69639 0.68318 0.81309 0.0
C241 C 0.67341 0.64645 0.82161 0.0
C242 C 0.66296 0.62625 0.78511 0.0
C243 C 0.67516 0.64391 0.74026 0.0
C244 C 0.69841 0.68157 0.73316 0.0
Zn245 Zn 0.74572 0.75004 0.76578 0.0
C246 C 0.70938 0.83124 0.7058 0.0
N247 N 0.82508 0.85284 0.76573 0.0
C248 C 0.84492 0.85555 0.80396 0.0
C249 C 0.8299 0.88303 0.72792 0.0
C250 C 0.85854 0.91513 0.72623 0.0
C251 C 0.88419 0.91449 0.76297 0.0
C252 C 0.87568 0.88585 0.80304 0.0
Zn253 Zn 0.78858 0.80244 0.76472 0.0
O254 O 0.70028 0.78034 0.82009 0.0
C255 C 0.82213 0.71748 0.82655 0.0
O256 O 0.745 0.83083 0.81949 0.0
H257 H 0.81381 0.88047 0.69801 0.0
H258 H 0.70544 0.69756 0.84155 0.0
H259 H 0.83906 0.83243 0.83441 0.0
O260 O 0.78747 0.70694 0.81257 0.0
O261 O 0.83267 0.75678 0.8118 0.0
H262 H 0.70889 0.69559 0.69888 0.0
O263 O 0.83331 0.77482 0.70806 0.0
O264 O 0.78983 0.7222 0.71088 0.0
O265 O 0.74292 0.84652 0.71766 0.0
O266 O 0.70382 0.79042 0.72037 0.0
C267 C 0.82424 0.73994 0.69229 0.0
H268 H 0.66449 0.63321 0.85668 0.0
H269 H 0.6674 0.62863 0.71163 0.0
H270 H 0.86492 0.93618 0.69429 0.0
H271 H 0.89536 0.88416 0.83161 0.0
Fe272 Fe 0.01639 0.11614 0.50475 0.0
O273 O 0.01784 0.05167 0.52844 0.0
Fe274 Fe 0.06663 0.99844 0.50231 0.0
Fe275 Fe 0.96289 0.02234 0.53035 0.0
O276 O 0.02272 0.04989 0.53004 0.0
O277 O 0.01149 0.96929 0.50436 0.0
O278 O 1.00689 0.97095 0.50295 0.0
Fe279 Fe 0.01256 0.90474 0.52743 0.0
C280 C 0.9417 0.10906 0.58238 0.0
O281 O 0.95398 0.12382 0.4792 0.0
O282 O 0.94821 0.05374 0.46589 0.0
O283 O 0.04924 0.89604 0.4654 0.0
O284 O 0.10324 0.94196 0.46817 0.0
O285 O 0.05299 0.02768 0.43894 0.0
O286 O 0.04792 0.10329 0.44081 0.0
O287 O 0.91054 0.9845 0.52736 0.0
O288 O 0.94916 0.91446 0.50546 0.0
C289 C 0.04943 0.0684 0.41935 0.0
O290 O 0.07529 0.89731 0.55075 0.0
O291 O 0.08144 0.96604 0.56692 0.0
O292 O 0.97877 0.12543 0.56642 0.0
O293 O 0.92547 0.07894 0.56327 0.0
C294 C 0.9407 0.09728 0.45528 0.0
C295 C 0.91418 0.94764 0.50658 0.0
C296 C 0.9788 0.95235 0.61353 0.0
O297 O 0.97578 0.99318 0.59409 0.0
O298 O 0.98167 0.91736 0.59175 0.0
C299 C 0.08612 0.91249 0.44888 0.0
O300 O 0.1194 0.03652 0.50495 0.0
O301 O 0.08017 0.10678 0.52662 0.0
C302 C 0.08708 0.92233 0.57698 0.0
C303 C 0.11683 0.07579 0.52156 0.0
Fe304 Fe 0.51665 0.90763 0.05677 0.0
O305 O 0.51513 0.97493 0.04822 0.0
Fe306 Fe 0.45803 0.01518 0.0191 0.0
Fe307 Fe 0.56562 1.00551 1.01284 0.0
O308 O 0.51002 0.97524 0.04885 0.0
O309 O 0.50841 0.04606 0.9839 0.0
O310 O 0.51359 0.04557 0.98302 0.0
Fe311 Fe 0.50691 0.11331 0.9753 0.0
C312 C 0.60408 0.92996 0.0872 0.0
O313 O 0.56895 0.89427 1.00533 0.0
O314 O 0.57486 0.96125 0.96315 0.0
O315 O 0.45468 0.11046 0.93657 0.0
O316 O 0.41093 0.06139 0.98173 0.0
O317 O 0.4637 0.97179 0.96888 0.0
O318 O 0.46865 0.90501 1.01271 0.0
O319 O 0.61151 0.04479 0.96976 0.0
O320 O 0.56276 0.099 0.92751 0.0
C321 C 0.45569 0.93072 0.97737 0.0
O322 O 0.4555 0.12657 0.02765 0.0
O323 O 0.44799 0.05953 0.06921 0.0
O324 O 0.56725 0.91147 0.0966 0.0
O325 O 0.61257 0.9591 0.05162 0.0
C326 C 0.5825 0.91725 0.96863 0.0
C327 C 0.60345 0.0771 0.93573 0.0
C328 C 0.5703 0.08951 0.05288 0.0
O329 O 0.56035 0.04927 0.06231 0.0
O330 O 0.55612 0.11563 0.01826 0.0
C331 C 0.4178 0.09223 0.94747 0.0
O332 O 0.41189 0.97596 0.06132 0.0
O333 O 0.46022 0.92179 0.10377 0.0
C334 C 0.4407 0.10363 0.06387 0.0
C335 C 0.41965 0.94369 0.09531 0.0
Fe336 Fe 1.00969 0.56481 1.00897 0.0
O337 O 0.97272 0.5204 0.0465 0.0
Fe338 Fe 0.11181 0.49224 0.97759 0.0
Fe339 Fe 0.90541 0.53084 0.05467 0.0
O340 O 0.04395 0.50747 0.98289 0.0
O341 O 0.04433 0.50208 0.98492 0.0
O342 O 0.97306 0.51501 0.04845 0.0
Fe343 Fe 1.00699 0.45772 0.02223 0.0
C344 C 0.93813 0.616 0.0793 0.0
O345 O 0.96626 0.57844 0.958 0.0
O346 O 0.89847 0.58199 1.00029 0.0
O347 O 0.04805 0.40419 0.98741 0.0
O348 O 0.10329 0.4396 0.94154 0.0
O349 O 0.10508 0.54761 0.92681 0.0
O350 O 0.05523 0.60317 0.96485 0.0
O351 O 0.89694 0.4829 1.01349 0.0
O352 O 0.96415 0.46744 0.972 0.0
C353 C 0.08781 0.59053 0.93259 0.0
O354 O 0.04994 0.44367 0.0735 0.0
O355 O 0.11846 0.44198 0.03295 0.0
O356 O 0.96891 0.61852 0.04405 0.0
O357 O 0.91575 0.58192 0.0917 0.0
C358 C 0.92284 0.59159 0.96308 0.0
C359 C 0.92187 0.46456 0.98041 0.0
C360 C 0.92904 0.43144 0.09815 0.0
O361 O 0.91218 0.4744 0.10416 0.0
O362 O 0.96138 0.41888 0.06572 0.0
C363 C 0.08066 0.40572 0.95377 0.0
O364 O 0.11936 0.54192 0.01755 0.0
O365 O 0.05251 0.5555 0.05928 0.0
C366 C 0.09334 0.43043 0.06905 0.0
C367 C 0.09399 0.56094 0.05001 0.0
Fe368 Fe 0.51229 0.50526 0.96537 0.0
O369 O 0.54547 0.46867 0.01619 0.0
Fe370 Fe 0.41557 0.56713 0.02159 0.0
Fe371 Fe 0.61309 0.44966 1.01027 0.0
O372 O 0.48194 0.54653 1.01245 0.0
O373 O 0.48297 0.54801 0.01616 0.0
O374 O 0.54661 0.47028 0.02007 0.0
Fe375 Fe 0.51681 0.51229 0.06693 0.0
C376 C 0.57764 0.41892 0.9298 0.0
O377 O 0.56224 0.54456 0.95137 0.0
O378 O 0.62415 0.49063 0.95005 0.0
O379 O 0.47976 0.56092 0.11042 0.0
O380 O 0.43107 0.61064 0.06445 0.0
O381 O 0.42842 0.60479 0.95983 0.0
O382 O 0.47431 0.54992 0.9176 0.0
O383 O 0.62851 0.49769 0.04881 0.0
O384 O 0.56674 0.55259 0.0528 0.0
C385 C 0.44702 0.58938 0.92157 0.0
O386 O 0.46728 0.47263 0.0828 0.0
O387 O 0.40441 0.52567 0.08161 0.0
O388 O 0.54923 0.45747 0.92176 0.0
O389 O 0.59714 0.40604 0.96732 0.0
C390 C 0.60094 0.52745 0.93229 0.0
C391 C 0.60834 0.53732 0.05963 0.0
C392 C 0.58285 0.42871 0.11069 0.0
O393 O 0.6008 0.41266 0.07253 0.0
O394 O 0.55592 0.46844 0.11452 0.0
C395 C 0.45018 0.59872 0.10222 0.0
O396 O 0.4004 0.51975 0.98211 0.0
O397 O 0.46212 0.46507 0.97743 0.0
C398 C 0.42789 0.48953 0.10052 0.0
C399 C 0.42073 0.48069 0.96997 0.0
Fe400 Fe 1.00873 0.45798 0.52388 0.0
O401 O 0.98101 0.51466 0.55388 0.0
Fe402 Fe 0.04381 0.50439 0.41385 0.0
Fe403 Fe 0.97682 0.51649 0.61961 0.0
O404 O 0.04165 0.50172 0.48062 0.0
O405 O 0.04153 0.50667 0.47975 0.0
O406 O 0.98034 0.51957 0.55276 0.0
Fe407 Fe 0.01322 0.56345 0.50968 0.0
C408 C 0.93369 0.43489 0.60354 0.0
O409 O 0.06316 0.44455 0.56291 0.0
O410 O 0.02337 0.45629 0.63015 0.0
O411 O 0.05502 0.60094 0.45958 0.0
O412 O 0.09244 0.54613 0.41248 0.0
O413 O 0.08493 0.44114 0.42544 0.0
O414 O 0.04334 0.40363 0.48485 0.0
O415 O 0.02962 0.55352 0.61853 0.0
O416 O 0.067 0.55251 0.54881 0.0
C417 C 0.07564 0.40434 0.45067 0.0
O418 O 0.95856 0.57658 0.47013 0.0
O419 O 0.99869 0.56494 0.40329 0.0
O420 O 0.96767 0.41997 0.57356 0.0
O421 O 0.92834 0.47448 0.61978 0.0
C422 C 0.06012 0.44055 0.60622 0.0
C423 C 0.06525 0.55789 0.59075 0.0
C424 C 0.94436 0.6162 0.58189 0.0
O425 O 0.93527 0.57928 0.60716 0.0
O426 O 0.97731 0.61745 0.54833 0.0
C427 C 0.08756 0.58611 0.42799 0.0
O428 O 0.98941 0.46892 0.41599 0.0
O429 O 0.95427 0.4705 0.48646 0.0
C430 C 0.96197 0.58092 0.4268 0.0
C431 C 0.95398 0.46662 0.44468 0.0
Fe432 Fe 0.5154 0.9581 0.52149 0.0
O433 O 0.4813 0.01248 0.55218 0.0
Fe434 Fe 0.5429 1.00743 0.41096 0.0
Fe435 Fe 0.47727 0.01594 0.61759 0.0
O436 O 0.54184 1.00588 0.47771 0.0
O437 O 0.54013 1.0107 0.47654 0.0
O438 O 0.47936 0.01741 0.55088 0.0
Fe439 Fe 0.50643 0.06516 0.5076 0.0
C440 C 0.44765 0.92577 0.60349 0.0
O441 O 0.57014 0.94999 0.56009 0.0
O442 O 0.53071 0.9618 0.62772 0.0
O443 O 0.54225 0.10783 0.45848 0.0
O444 O 0.58375 0.05734 0.40906 0.0
O445 O 0.59191 0.94928 0.42159 0.0
O446 O 0.55517 0.90713 0.48116 0.0
O447 O 0.52177 0.06198 0.61422 0.0
O448 O 0.56013 0.05906 0.5455 0.0
C449 C 0.58572 0.9108 0.44569 0.0
O450 O 0.45151 0.07381 0.46921 0.0
O451 O 0.48963 0.06201 0.40115 0.0
O452 O 0.48059 0.91509 0.57115 0.0
O453 O 0.43735 0.9656 0.61971 0.0
C454 C 0.56699 0.94536 0.60349 0.0
C455 C 0.55509 0.07113 0.5854 0.0
C456 C 0.43536 0.11278 0.58157 0.0
O457 O 0.42851 0.07431 0.60557 0.0
O458 O 0.46714 0.11639 0.54736 0.0
C459 C 0.57618 0.09604 0.42743 0.0
O460 O 0.49786 0.96064 0.41516 0.0
O461 O 0.46103 0.96414 0.48469 0.0
C462 C 0.45368 0.07809 0.42594 0.0
C463 C 0.46502 0.95201 0.44503 0.0
C464 C 0.09399 0.04347 0.30007 0.0
C465 C 0.09263 0.08889 0.27928 0.0
C466 C 0.07504 0.03598 0.34528 0.0
C467 C 0.05356 0.07375 0.36924 0.0
H468 H 0.11772 0.0154 0.28551 0.0
H469 H 0.08231 1.00153 0.36277 0.0
S470 S 0.01822 0.19387 0.31817 0.0
N471 N 0.04982 0.16717 0.27649 0.0
N472 N 0.01647 0.15438 0.36257 0.0
C473 C 0.04153 0.11676 0.34414 0.0
C474 C 0.0591 0.1235 0.29762 0.0
C475 C 0.89104 0.18976 0.3654 0.0
C476 C 0.86596 0.16688 0.34148 0.0
C477 C 0.91519 0.16658 0.40132 0.0
C478 C 0.91577 0.11916 0.41516 0.0
H479 H 0.89064 0.22654 0.3574 0.0
H480 H 0.93309 0.18658 0.4188 0.0
S481 S 0.85427 0.04394 0.36371 0.0
N482 N 0.84269 0.09461 0.33359 0.0
N483 N 0.88808 0.0505 0.40149 0.0
C484 C 0.89163 0.09557 0.39061 0.0
C485 C 0.86694 0.11947 0.35363 0.0
C486 C 0.82494 0.92702 0.43667 0.0
C487 C 0.85167 0.92092 0.39436 0.0
C488 C 0.84308 0.94094 0.473 0.0
C489 C 0.88808 0.94978 0.46751 0.0
H490 H 0.7912 0.91734 0.4428 0.0
H491 H 0.82338 0.94101 0.5062 0.0
S492 S 0.96949 0.94577 0.36206 0.0
N493 N 0.92356 0.92926 0.34826 0.0
N494 N 0.95687 0.95723 0.41547 0.0
C495 C 0.9133 0.94812 0.42413 0.0
C496 C 0.89527 0.93333 0.3877 0.0
C497 C 0.11253 0.84639 0.34427 0.0
C498 C 0.15181 0.86199 0.32172 0.0
C499 C 0.09124 0.86363 0.38483 0.0
C500 C 0.10864 0.89694 0.40456 0.0
H501 H 0.10058 0.81788 0.33278 0.0
H502 H 0.06199 0.84906 0.40172 0.0
S503 S 0.20678 0.9541 0.35349 0.0
N504 N 0.20407 0.91642 0.318 0.0
N505 N 0.16453 0.94882 0.39438 0.0
C506 C 0.14594 0.9153 0.38011 0.0
C507 C 0.16722 0.89796 0.33859 0.0
C508 C 0.15477 0.89767 0.68178 0.0
C509 C 0.15864 0.84938 0.69146 0.0
C510 C 0.13033 0.9218 0.64571 0.0
C511 C 0.10976 0.89828 0.61773 0.0
H512 H 0.17264 0.91653 0.70053 0.0
H513 H 0.12888 0.95873 0.63885 0.0
S514 S 0.10475 0.77225 0.63412 0.0
N515 N 0.13482 0.78 0.67442 0.0
N516 N 0.09145 0.82379 0.60613 0.0
C517 C 0.11153 0.85017 0.62916 0.0
C518 C 0.13517 0.82622 0.66618 0.0
C519 C 0.17746 0.07028 0.62338 0.0
C520 C 0.18142 0.117 0.62215 0.0
C521 C 0.16414 0.05373 0.58572 0.0
C522 C 0.15421 0.0835 0.54608 0.0
H523 H 0.18091 0.04747 0.65472 0.0
H524 H 0.15629 0.01915 0.58967 0.0
S525 S 0.17152 0.2052 0.52195 0.0
N526 N 0.18387 0.18997 0.57496 0.0
N527 N 0.15819 0.15899 0.50476 0.0
C528 C 0.16428 0.12834 0.54251 0.0
C529 C 0.17768 0.14521 0.58061 0.0
C530 C 0.91096 0.17702 0.68554 0.0
C531 C 0.87183 0.16068 0.70751 0.0
C532 C 0.93359 0.15954 0.64555 0.0
C533 C 0.91767 0.12527 0.62588 0.0
H534 H 0.92193 0.20602 0.69714 0.0
H535 H 0.96272 0.17456 0.62906 0.0
S536 S 0.81999 0.06662 0.67541 0.0
N537 N 0.82104 0.105 0.7107 0.0
N538 N 0.86281 0.07227 0.63525 0.0
C539 C 0.88025 0.10652 0.64965 0.0
C540 C 0.85767 0.12408 0.69061 0.0
C541 C 0.92654 0.97586 0.7312 0.0
C542 C 0.92844 0.93029 0.75176 0.0
C543 C 0.94792 0.98402 0.68703 0.0
C544 C 0.97208 0.94681 0.66368 0.0
H545 H 0.90124 1.00336 0.74482 0.0
H546 H 0.94062 0.01842 0.66947 0.0
S547 S 1.00721 0.82679 0.71515 0.0
N548 N 0.97256 0.85261 0.75558 0.0
N549 N 1.01066 0.86673 0.67135 0.0
C550 C 0.98361 0.9038 0.68898 0.0
C551 C 0.96344 0.89633 0.73454 0.0
C552 C 0.34203 0.13594 0.15486 0.0
C553 C 0.34426 0.18208 0.16022 0.0
C554 C 0.37435 0.11027 0.12509 0.0
C555 C 0.41 0.12979 0.09881 0.0
H556 H 0.31517 0.11918 0.17405 0.0
H557 H 0.37056 0.07522 0.12179 0.0
S558 S 0.43256 0.24861 0.10104 0.0
N559 N 0.38633 0.24562 0.13754 0.0
N560 N 0.44651 0.19777 0.0811 0.0
C561 C 0.413 0.17573 0.10409 0.0
C562 C 0.38037 0.20172 0.13486 0.0
C563 C 0.87569 0.3219 0.1397 0.0
C564 C 0.85093 0.33222 0.18196 0.0
C565 C 0.9028 0.35273 0.11358 0.0
C566 C 0.90626 0.39536 0.12845 0.0
H567 H 0.87367 0.2901 0.12635 0.0
H568 H 0.91987 0.34377 0.08076 0.0
S569 S 0.85022 0.43853 0.23729 0.0
N570 N 0.8334 0.38863 0.23747 0.0
N571 N 0.88403 0.44473 0.18946 0.0
C572 C 0.88272 0.4053 0.17111 0.0
C573 C 0.85526 0.37438 0.19744 0.0
C574 C 0.71561 0.87575 0.13567 0.0
C575 C 0.7005 0.86671 0.18213 0.0
C576 C 0.68504 0.89991 0.10491 0.0
C577 C 0.6386 0.91501 0.11996 0.0
H578 H 0.75039 0.86174 0.1227 0.0
H579 H 0.69696 0.90387 0.06892 0.0
S580 S 0.58448 0.90488 0.23945 0.0
N581 N 0.63811 0.87837 0.24242 0.0
N582 N 0.58061 0.92376 0.18514 0.0
C583 C 0.62427 0.90885 0.16694 0.0
C584 C 0.65527 0.88453 0.19794 0.0
C585 C 0.09957 0.64972 0.13019 0.0
C586 C 0.13847 0.66848 0.11091 0.0
C587 C 0.08537 0.61494 0.11035 0.0
C588 C 0.11021 0.59705 0.07105 0.0
H589 H 0.08106 0.66078 0.16176 0.0
H590 H 0.05531 0.60129 0.12655 0.0
S591 S 0.21363 0.63709 1.00671 0.0
N592 N 0.20058 0.6686 0.04997 0.0
N593 N 0.17464 0.60325 1.01241 0.0
C594 C 0.14869 0.61667 0.05096 0.0
C595 C 0.16263 0.65236 0.07097 0.0
C596 C 0.35697 0.87656 0.95183 0.0
C597 C 0.35559 0.88699 0.90434 0.0
C598 C 0.39024 0.88972 0.97444 0.0
C599 C 0.42284 0.9155 0.95116 0.0
H600 H 0.33209 0.85796 0.97209 0.0
H601 H 0.38985 0.88017 1.01082 0.0
S602 S 0.43631 0.95111 0.82691 0.0
N603 N 0.39257 0.92298 0.83448 0.0
N604 N 0.45242 0.95077 0.87807 0.0
C605 C 0.42176 0.92706 0.904 0.0
C606 C 0.3888 0.91225 0.88043 0.0
C607 C 0.16288 0.30541 0.90933 0.0
C608 C 0.14612 0.30138 0.86817 0.0
C609 C 0.13862 0.33631 0.93949 0.0
C610 C 0.09707 0.36463 0.92924 0.0
H611 H 0.1966 0.28701 0.91666 0.0
H612 H 0.15422 0.34063 0.9693 0.0
S613 S 0.0377 0.36593 0.82683 0.0
N614 N 0.08417 0.32608 0.8201 0.0
N615 N 0.03937 0.38564 0.876 0.0
C616 C 0.07866 0.35915 0.8895 0.0
C617 C 0.10301 0.327 0.85914 0.0
C618 C 0.70467 0.14082 0.89948 0.0
C619 C 0.70126 0.15353 0.85244 0.0
C620 C 0.67582 0.11216 0.92597 0.0
C621 C 0.64221 0.09535 0.90656 0.0
H622 H 0.72838 0.15465 0.91642 0.0
H623 H 0.67795 0.10552 0.96234 0.0
S624 S 0.62295 0.11284 0.78434 0.0
N625 N 0.66434 0.14206 0.78716 0.0
N626 N 0.61023 0.08996 0.83691 0.0
C627 C 0.64035 0.10555 0.85933 0.0
C628 C 0.66974 0.13412 0.83236 0.0
C629 C 0.89275 0.68951 0.86886 0.0
C630 C 0.84871 0.68412 0.86004 0.0
C631 C 0.91764 0.65834 0.9007 0.0
C632 C 0.89909 0.62109 0.92561 0.0
H633 H 0.90811 0.71807 0.85113 0.0
H634 H 0.95096 0.66436 0.90694 0.0
S635 S 0.78639 0.58993 0.91437 0.0
N636 N 0.7888 0.63673 0.87818 0.0
N637 N 0.83497 0.57957 0.93806 0.0
C638 C 0.85557 0.61492 0.91668 0.0
C639 C 0.83059 0.646 0.88395 0.0
C640 C 0.18617 0.3684 0.14334 0.0
C641 C 0.16555 0.33398 0.1711 0.0
C642 C 0.16228 0.39964 0.11131 0.0
C643 C 0.11619 0.39878 0.10601 0.0
H644 H 0.22159 0.37088 0.14577 0.0
H645 H 0.18026 0.42476 0.0904 0.0
S646 S 0.04536 0.3166 0.17105 0.0
N647 N 0.09575 0.30136 0.19141 0.0
N648 N 0.05043 0.36078 0.13193 0.0
C649 C 0.09465 0.36518 0.13413 0.0
C650 C 0.1194 0.3326 0.16632 0.0
C651 C 0.16072 0.64599 0.83311 0.0
C652 C 0.16757 0.68726 0.84821 0.0
C653 C 0.13342 0.6164 0.85968 0.0
C654 C 0.11083 0.62649 0.90273 0.0
H655 H 0.17742 0.63564 0.80061 0.0
H656 H 0.13068 0.58471 0.8465 0.0
S657 S 0.11555 0.73073 0.95819 0.0
N658 N 0.14803 0.73706 0.90928 0.0
N659 N 0.09636 0.68182 0.9588 0.0
C660 C 0.11599 0.66835 0.91783 0.0
C661 C 0.14438 0.69846 0.89082 0.0
C662 C 0.34043 0.11871 0.85312 0.0
C663 C 0.31786 0.16364 0.86052 0.0
C664 C 0.37109 0.09368 0.88334 0.0
C665 C 0.37913 0.11295 0.92172 0.0
H666 H 0.33664 0.10413 0.82251 0.0
H667 H 0.39031 0.06032 0.87544 0.0
S668 S 0.32353 0.2262 0.95936 0.0
N669 N 0.3018 0.22389 0.91151 0.0
N670 N 0.35942 0.17697 0.96786 0.0
C671 C 0.35442 0.15629 0.93098 0.0
C672 C 0.32363 0.18166 0.90042 0.0
C673 C 0.91677 0.35991 0.92106 0.0
C674 C 0.86948 0.36285 0.91927 0.0
C675 C 0.93346 0.39358 0.9401 0.0
C676 C 0.9035 0.43143 0.95768 0.0
H677 H 0.94105 0.33232 0.90634 0.0
H678 H 0.97008 0.38959 0.94161 0.0
S679 S 0.77623 0.45294 0.96348 0.0
N680 N 0.79261 0.40477 0.93893 0.0
N681 N 0.824 0.46851 0.97377 0.0
C682 C 0.856 0.43392 0.95717 0.0
C683 C 0.83902 0.39952 0.9382 0.0
C684 C 0.67876 0.88603 0.87559 0.0
C685 C 0.67562 0.84033 0.8696 0.0
C686 C 0.64748 0.91124 0.9064 0.0
C687 C 0.61218 0.89155 0.93306 0.0
H688 H 0.70553 0.90275 0.85612 0.0
H689 H 0.65181 0.946 0.91019 0.0
S690 S 0.58757 0.77384 0.92936 0.0
N691 N 0.6331 0.77706 0.89197 0.0
N692 N 0.5748 0.82414 0.95044 0.0
C693 C 0.60822 0.8461 0.92712 0.0
C694 C 0.63975 0.8206 0.89527 0.0
C695 C 0.90447 0.6749 0.18603 0.0
C696 C 0.88092 0.71853 0.17019 0.0
C697 C 0.92689 0.64339 0.15576 0.0
C698 C 0.92658 0.65426 0.10843 0.0
H699 H 0.90202 0.66334 0.22213 0.0
H700 H 0.94174 0.60899 0.16962 0.0
S701 S 0.87262 0.76505 0.04937 0.0
N702 N 0.86084 0.77209 0.10411 0.0
N703 N 0.90368 0.71284 0.04684 0.0
C704 C 0.90621 0.69899 0.09189 0.0
C705 C 0.88303 0.73114 0.12293 0.0
C706 C 0.31625 0.88297 0.1309 0.0
C707 C 0.3213 0.86727 0.17716 0.0
C708 C 0.34532 0.9118 0.10505 0.0
C709 C 0.38073 0.92574 0.12439 0.0
H710 H 0.29103 0.87138 0.11399 0.0
H711 H 0.34178 0.92089 0.06912 0.0
S712 S 0.4039 0.90107 0.24544 0.0
N713 N 0.36135 0.87357 0.24211 0.0
N714 N 0.41542 0.92632 0.19362 0.0
C715 C 0.38387 0.91306 0.17114 0.0
C716 C 0.35444 0.88421 0.19741 0.0
C717 C 0.64919 0.09031 0.14444 0.0
C718 C 0.67298 0.12677 0.1273 0.0
C719 C 0.61618 0.07851 0.12029 0.0
C720 C 0.60468 0.10348 0.0785 0.0
H721 H 0.65549 0.0714 0.17734 0.0
H722 H 0.59897 0.05009 0.13498 0.0
S723 S 0.6577 0.20214 0.01924 0.0
N724 N 0.68353 0.18728 0.06612 0.0
N725 N 0.6211 0.16629 0.02087 0.0
C726 C 0.62873 0.13988 0.0609 0.0
C727 C 0.66294 0.15116 0.0852 0.0
C728 C 0.59478 0.597 0.81695 0.0
C729 C 0.64022 0.58622 0.7972 0.0
C730 C 0.58192 0.57697 0.86061 0.0
C731 C 0.6133 0.54352 0.88409 0.0
H732 H 0.5721 0.62699 0.8028 0.0
H733 H 0.54832 0.59017 0.87698 0.0
S734 S 0.72861 0.48873 0.83544 0.0
N735 N 0.71072 0.5302 0.79581 0.0
N736 N 0.68652 0.49039 0.87736 0.0
C737 C 0.65518 0.52551 0.85984 0.0
C738 C 0.66803 0.54639 0.81551 0.0
C739 C 0.39065 0.69165 0.84962 0.0
C740 C 0.37194 0.67106 0.81795 0.0
C741 C 0.41922 0.66507 0.8803 0.0
C742 C 0.43029 0.61691 0.88041 0.0
H743 H 0.38123 0.72838 0.8525 0.0
H744 H 0.43026 0.68202 0.90611 0.0
S745 S 0.39692 0.54704 0.79936 0.0
N746 N 0.37147 0.6004 0.78444 0.0
N747 N 0.42561 0.55015 0.84254 0.0
C748 C 0.41576 0.5963 0.84605 0.0
C749 C 0.38634 0.6235 0.81468 0.0
C750 C 0.40138 0.38965 0.8978 0.0
C751 C 0.36367 0.41197 0.87462 0.0
C752 C 0.41892 0.4117 0.92914 0.0
C753 C 0.39886 0.45672 0.93942 0.0
H754 H 0.41724 0.35463 0.89187 0.0
H755 H 0.44846 0.39314 0.94552 0.0
S756 S 0.29805 0.52937 0.8884 0.0
N757 N 0.30621 0.48093 0.8642 0.0
N758 N 0.33832 0.52257 0.92327 0.0
C759 C 0.36062 0.47919 0.91656 0.0
C760 C 0.34328 0.45681 0.88416 0.0
C761 C 0.63929 0.39071 0.81499 0.0
C762 C 0.65133 0.34244 0.8218 0.0
C763 C 0.61154 0.4152 0.84888 0.0
C764 C 0.59606 0.39213 0.89085 0.0
H765 H 0.65368 0.40975 0.78476 0.0
H766 H 0.60505 0.45258 0.84352 0.0
S767 S 0.61262 0.2655 0.92149 0.0
N768 N 0.64124 0.27211 0.8705 0.0
N769 N 0.59026 0.31812 0.93463 0.0
C770 C 0.60541 0.34372 0.89647 0.0
C771 C 0.63286 0.31889 0.86179 0.0
C772 C 0.64232 0.39551 0.21759 0.0
C773 C 0.65245 0.34709 0.21864 0.0
C774 C 0.61562 0.42226 0.18482 0.0
C775 C 0.59895 0.40122 0.15207 0.0
H776 H 0.65764 0.41299 0.23995 0.0
H777 H 0.61118 0.45957 0.18285 0.0
S778 S 0.60739 0.27571 0.14661 0.0
N779 N 0.6365 0.27923 0.18929 0.0
N780 N 0.58835 0.32959 0.12684 0.0
C781 C 0.60536 0.35292 0.15546 0.0
C782 C 0.63156 0.3258 0.18909 0.0
C783 C 0.63141 0.63386 0.12185 0.0
C784 C 0.66511 0.61131 0.15011 0.0
C785 C 0.61418 0.60998 0.09192 0.0
C786 C 0.63063 0.56271 0.08822 0.0
H787 H 0.61798 0.67031 0.12317 0.0
H788 H 0.58758 0.62877 0.07159 0.0
S789 S 0.72007 0.48808 0.15409 0.0
N790 N 0.71489 0.53937 0.17226 0.0
N791 N 0.68336 0.49436 0.11561 0.0
C792 C 0.66499 0.5399 0.11591 0.0
C793 C 0.68191 0.56417 0.147 0.0
C794 C 0.38128 0.69867 0.16129 0.0
C795 C 0.37095 0.67865 0.20598 0.0
C796 C 0.41065 0.67371 0.12912 0.0
C797 C 0.43077 0.62737 0.14006 0.0
H798 H 0.3647 0.73344 0.15039 0.0
H799 H 0.41546 0.69014 0.09458 0.0
S800 S 0.41822 0.5603 0.254 0.0
N801 N 0.38599 0.61125 0.26099 0.0
N802 N 0.44126 0.56365 0.20041 0.0
C803 C 0.42347 0.60792 0.18573 0.0
C804 C 0.39345 0.6337 0.21872 0.0
C805 C 0.3541 0.47766 0.21303 0.0
C806 C 0.37621 0.4356 0.23376 0.0
C807 C 0.37185 0.49574 0.17019 0.0
C808 C 0.413 0.47311 0.14807 0.0
H809 H 0.31938 0.492 0.22591 0.0
H810 H 0.35157 0.52578 0.15325 0.0
S811 S 0.49144 0.37225 0.19885 0.0
N812 N 0.44668 0.38032 0.23745 0.0
N813 N 0.48086 0.41337 0.15664 0.0
C814 C 0.4394 0.43623 0.17313 0.0
C815 C 0.42137 0.41866 0.21705 0.0
C816 C 0.90224 0.7172 0.64959 0.0
C817 C 0.85443 0.71789 0.6545 0.0
C818 C 0.93209 0.68793 0.62073 0.0
C819 C 0.91491 0.65915 0.59544 0.0
H820 H 0.91697 0.73646 0.67081 0.0
H821 H 0.96883 0.68477 0.62139 0.0
S822 S 0.79241 0.65462 0.58969 0.0
N823 N 0.79126 0.69212 0.62653 0.0
N824 N 0.84722 0.63759 0.57267 0.0
C825 C 0.86712 0.66309 0.59674 0.0
C826 C 0.83688 0.69234 0.62618 0.0
C827 C 0.37684 0.86142 0.6957 0.0
C828 C 0.36033 0.83002 0.67287 0.0
C829 C 0.40611 0.89065 0.67301 0.0
C830 C 0.42073 0.89008 0.62624 0.0
H831 H 0.36657 0.86416 0.73165 0.0
H832 H 0.41696 0.9145 0.69242 0.0
S833 S 0.38955 0.81348 0.55023 0.0
N834 N 0.36235 0.79908 0.60052 0.0
N835 N 0.41788 0.8544 0.55774 0.0
C836 C 0.40613 0.85782 0.60295 0.0
C837 C 0.37583 0.8278 0.62624 0.0
C838 C 0.12285 0.36193 0.69704 0.0
C839 C 0.16937 0.35981 0.68046 0.0
C840 C 0.08812 0.38848 0.67288 0.0
C841 C 0.09841 0.41318 0.63041 0.0
H842 H 0.11314 0.34231 0.7289 0.0
H843 H 0.0528 0.38872 0.68722 0.0
S844 S 0.21513 0.41918 0.57193 0.0
N845 N 0.22442 0.385 0.61952 0.0
N846 N 0.15877 0.43454 0.57295 0.0
C847 C 0.14494 0.4116 0.61332 0.0
C848 C 0.18056 0.38508 0.63867 0.0
C849 C 0.59421 0.1585 0.64662 0.0
C850 C 0.63249 0.16969 0.618 0.0
C851 C 0.57028 0.12573 0.63617 0.0
C852 C 0.58339 0.10341 0.5963 0.0
H853 H 0.58404 0.17363 0.67846 0.0
H854 H 0.54129 0.11791 0.65979 0.0
S855 S 0.68235 0.12119 0.51051 0.0
N856 N 0.68357 0.15626 0.54908 0.0
N857 N 0.63765 0.0954 0.52788 0.0
C858 C 0.62149 0.11506 0.56692 0.0
C859 C 0.64624 0.1481 0.57813 0.0
C860 C 0.87009 0.44575 0.36737 0.0
C861 C 0.83963 0.42222 0.39741 0.0
C862 C 0.90567 0.46209 0.38319 0.0
C863 C 0.91198 0.45563 0.42973 0.0
H864 H 0.86855 0.44837 0.33098 0.0
H865 H 0.92961 0.47796 0.35849 0.0
S866 S 0.8373 0.40132 0.52279 0.0
N867 N 0.81496 0.39713 0.47581 0.0
N868 N 0.88119 0.42847 0.50637 0.0
C869 C 0.87909 0.43577 0.46059 0.0
C870 C 0.84298 0.41897 0.44422 0.0
C871 C 0.62427 0.82596 0.35797 0.0
C872 C 0.66651 0.80208 0.37135 0.0
C873 C 0.59729 0.8596 0.3838 0.0
C874 C 0.61007 0.86874 0.42532 0.0
H875 H 0.6141 0.82184 0.32525 0.0
H876 H 0.56732 0.88043 0.36983 0.0
S877 S 0.71701 0.8146 0.47594 0.0
N878 N 0.72012 0.7898 0.42868 0.0
N879 N 0.66745 0.85068 0.47881 0.0
C880 C 0.65096 0.8433 0.44036 0.0
C881 C 0.67946 0.81031 0.41314 0.0
C882 C 0.16961 0.6386 0.33538 0.0
C883 C 0.18656 0.67084 0.35653 0.0
C884 C 0.1379 0.61203 0.35894 0.0
C885 C 0.1204 0.61688 0.40478 0.0
H886 H 0.18083 0.63392 0.29992 0.0
H887 H 0.12641 0.5878 0.34051 0.0
S888 S 0.15235 0.6977 0.47594 0.0
N889 N 0.18306 0.70658 0.42632 0.0
N890 N 0.12241 0.65746 0.47031 0.0
C891 C 0.13662 0.6494 0.42643 0.0
C892 C 0.16997 0.67597 0.40251 0.0
C893 C 0.33703 0.12505 0.38221 0.0
C894 C 0.34639 0.16314 0.35116 0.0
C895 C 0.37129 0.09834 0.40797 0.0
C896 C 0.41618 0.1083 0.40269 0.0
H897 H 0.30308 0.11594 0.38673 0.0
H898 H 0.36301 0.06904 0.43113 0.0
S899 S 0.45883 0.20358 0.32623 0.0
N900 N 0.40441 0.20915 0.31736 0.0
N901 N 0.46809 0.15856 0.36478 0.0
C902 C 0.42587 0.14611 0.372 0.0
C903 C 0.39118 0.17362 0.3465 0.0
C904 C 0.68492 0.89334 0.64252 0.0
C905 C 0.67381 0.86095 0.67929 0.0
C906 C 0.65057 0.91979 0.6167 0.0
C907 C 0.60405 0.91543 0.62773 0.0
H908 H 0.72031 0.89776 0.63328 0.0
H909 H 0.66026 0.94448 0.58872 0.0
S910 S 0.55706 0.83623 0.72119 0.0
N911 N 0.61284 0.82641 0.72523 0.0
N912 N 0.54897 0.87625 0.67765 0.0
C913 C 0.59274 0.88338 0.66451 0.0
C914 C 0.62743 0.85615 0.69006 0.0
C915 C 0.62858 0.20606 0.39186 0.0
C916 C 0.67368 0.18819 0.37431 0.0
C917 C 0.59727 0.17635 0.41063 0.0
C918 C 0.61001 0.12787 0.41214 0.0
H919 H 0.61666 0.24304 0.38882 0.0
H920 H 0.56238 0.19148 0.42209 0.0
S921 S 0.72666 0.06428 0.37792 0.0
N922 N 0.73092 0.11924 0.36488 0.0
N923 N 0.67305 0.06393 0.39995 0.0
C924 C 0.65599 0.10998 0.3974 0.0
C925 C 0.68752 0.13997 0.37857 0.0
C926 C 0.84375 0.62897 0.38665 0.0
C927 C 0.85475 0.65953 0.34829 0.0
C928 C 0.87831 0.60431 0.41328 0.0
C929 C 0.92471 0.60916 0.40177 0.0
H930 H 0.80833 0.62519 0.39684 0.0
H931 H 0.86885 0.58091 0.44253 0.0
S932 S 0.97104 0.6843 0.30424 0.0
N933 N 0.91533 0.69283 0.3003 0.0
N934 N 0.97945 0.64649 0.34942 0.0
C935 C 0.93584 0.63911 0.36318 0.0
C936 C 0.90108 0.66425 0.33668 0.0
C937 C 0.36065 0.90258 0.43014 0.0
C938 C 0.3801 0.85817 0.41752 0.0
C939 C 0.38826 0.93283 0.43969 0.0
C940 C 0.43607 0.91954 0.437 0.0
H941 H 0.32403 0.91489 0.43035 0.0
H942 H 0.37235 0.96728 0.44757 0.0
S943 S 0.50274 0.80391 0.41693 0.0
N944 N 0.44954 0.8005 0.40969 0.0
N945 N 0.50071 0.85668 0.43027 0.0
C946 C 0.45537 0.87396 0.4291 0.0
C947 C 0.4275 0.84328 0.41892 0.0
C948 C 0.11515 0.30395 0.38112 0.0
C949 C 0.1632 0.30145 0.37679 0.0
C950 C 0.08597 0.33359 0.4102 0.0
C951 C 0.104 0.36095 0.4364 0.0
H952 H 0.09982 0.2859 0.35925 0.0
H953 H 0.04918 0.33813 0.40912 0.0
S954 S 0.22726 0.3604 0.44383 0.0
N955 N 0.22733 0.32402 0.40615 0.0
N956 N 0.17267 0.37911 0.46048 0.0
C957 C 0.15191 0.35519 0.43559 0.0
C958 C 0.18147 0.32558 0.40589 0.0
C959 C 0.33083 0.1887 0.63114 0.0
C960 C 0.34929 0.21616 0.65714 0.0
C961 C 0.35903 0.15835 0.60287 0.0
C962 C 0.40686 0.15496 0.59823 0.0
H963 H 0.29426 0.18822 0.63488 0.0
H964 H 0.34344 0.13519 0.58679 0.0
S965 S 0.47246 0.22427 0.65213 0.0
N966 N 0.41842 0.24163 0.67197 0.0
N967 N 0.4715 0.18535 0.61728 0.0
C968 C 0.42567 0.18539 0.62013 0.0
C969 C 0.39686 0.21597 0.64983 0.0
C970 C 0.88212 0.32931 0.6584 0.0
C971 C 0.83539 0.34774 0.6695 0.0
C972 C 0.91327 0.35691 0.63479 0.0
C973 C 0.89928 0.40453 0.62268 0.0
H974 H 0.89493 0.29332 0.66887 0.0
H975 H 0.94898 0.3413 0.62797 0.0
S976 S 0.78026 0.4693 0.64241 0.0
N977 N 0.77632 0.41597 0.66463 0.0
N978 N 0.83464 0.46832 0.6221 0.0
C979 C 0.85234 0.4231 0.63289 0.0
C980 C 0.82048 0.39465 0.65577 0.0
C981 C 0.17538 0.60648 0.58846 0.0
C982 C 0.17689 0.6119 0.63443 0.0
C983 C 0.14023 0.58728 0.57495 0.0
C984 C 0.10461 0.5736 0.60676 0.0
H985 H 0.20132 0.61761 0.5627 0.0
H986 H 0.14045 0.58426 0.53904 0.0
S987 S 0.09353 0.58018 0.73173 0.0
N988 N 0.1403 0.60166 0.71198 0.0
N989 N 0.07446 0.56555 0.68688 0.0
C990 C 0.10645 0.57797 0.65308 0.0
C991 C 0.14243 0.59718 0.6668 0.0
loop_
_geom_bond_atom_site_label_1
_geom_bond_atom_site_label_2
_geom_bond_distance
_geom_bond_site_symmetry_2
_ccdc_geom_bond_type
C0 O16 1.251 . S
C0 O18 1.254 . S
N1 C2 1.333 . S
N1 C6 1.307 . S
N1 Zn7 2.020 . S
C2 N1 1.333 . S
C2 C3 1.379 . S
C2 H20 0.952 . S
C3 C2 1.379 . S
C3 C4 1.390 . S
C3 H30 0.949 . S
C4 C3 1.390 . S
C4 C5 1.357 . S
C5 C4 1.357 . S
C5 C6 1.370 . S
C5 H31 0.950 . S
C6 N1 1.307 . S
C6 C5 1.370 . S
C6 H24 0.948 . S
Zn7 N1 2.020 . S
Zn7 O16 2.039 . S
Zn7 O22 2.034 . S
Zn7 O26 2.025 . S
Zn7 O28 2.024 . S
C8 O27 1.246 . S
C8 O28 1.249 . S
N9 C10 1.307 . S
N9 C11 1.333 . S
N9 Zn15 2.020 . S
C10 N9 1.307 . S
C10 C14 1.370 . S
C10 H21 0.948 . S
C11 N9 1.333 . S
C11 C12 1.379 . S
C11 H19 0.952 . S
C12 C11 1.379 . S
C12 C13 1.390 . S
C12 H32 0.949 . S
C13 C12 1.390 . S
C13 C14 1.357 . S
C14 C10 1.370 . S
C14 C13 1.357 . S
C14 H33 0.950 . S
Zn15 N9 2.020 . S
Zn15 O18 2.025 . S
Zn15 O23 2.024 . S
Zn15 O25 2.039 . S
Zn15 O27 2.034 . S
O16 C0 1.251 . S
O16 Zn7 2.039 . S
C17 O22 1.246 . S
C17 O23 1.249 . S
O18 C0 1.254 . S
O18 Zn15 2.025 . S
H19 C11 0.952 . S
H20 C2 0.952 . S
H21 C10 0.948 . S
O22 Zn7 2.034 . S
O22 C17 1.246 . S
O23 Zn15 2.024 . S
O23 C17 1.249 . S
H24 C6 0.948 . S
O25 Zn15 2.039 . S
O25 C29 1.251 . S
O26 Zn7 2.025 . S
O26 C29 1.254 . S
O27 C8 1.246 . S
O27 Zn15 2.034 . S
O28 Zn7 2.024 . S
O28 C8 1.249 . S
C29 O25 1.251 . S
C29 O26 1.254 . S
H30 C3 0.949 . S
H31 C5 0.950 . S
H32 C12 0.949 . S
H33 C14 0.950 . S
C34 O50 1.251 . S
C34 O52 1.254 . S
N35 C36 1.333 . S
N35 C40 1.307 . S
N35 Zn41 2.020 . S
C36 N35 1.333 . S
C36 C37 1.379 . S
C36 H54 0.952 . S
C37 C36 1.379 . S
C37 C38 1.390 . S
C37 H64 0.949 . S
C38 C37 1.390 . S
C38 C39 1.357 . S
C39 C38 1.357 . S
C39 C40 1.370 . S
C39 H65 0.950 . S
C40 N35 1.307 . S
C40 C39 1.370 . S
C40 H58 0.948 . S
Zn41 N35 2.020 . S
Zn41 O50 2.039 . S
Zn41 O56 2.034 . S
Zn41 O60 2.025 . S
Zn41 O62 2.024 . S
C42 O61 1.246 . S
C42 O62 1.249 . S
N43 C44 1.307 . S
N43 C45 1.333 . S
N43 Zn49 2.020 . S
C44 N43 1.307 . S
C44 C48 1.370 . S
C44 H55 0.948 . S
C45 N43 1.333 . S
C45 C46 1.379 . S
C45 H53 0.952 . S
C46 C45 1.379 . S
C46 C47 1.390 . S
C46 H66 0.949 . S
C47 C46 1.390 . S
C47 C48 1.357 . S
C48 C44 1.370 . S
C48 C47 1.357 . S
C48 H67 0.950 . S
Zn49 N43 2.020 . S
Zn49 O52 2.025 . S
Zn49 O57 2.024 . S
Zn49 O59 2.039 . S
Zn49 O61 2.034 . S
O50 C34 1.251 . S
O50 Zn41 2.039 . S
C51 O56 1.246 . S
C51 O57 1.249 . S
O52 C34 1.254 . S
O52 Zn49 2.025 . S
H53 C45 0.952 . S
H54 C36 0.952 . S
H55 C44 0.948 . S
O56 Zn41 2.034 . S
O56 C51 1.246 . S
O57 Zn49 2.024 . S
O57 C51 1.249 . S
H58 C40 0.948 . S
O59 Zn49 2.039 . S
O59 C63 1.251 . S
O60 Zn41 2.025 . S
O60 C63 1.254 . S
O61 C42 1.246 . S
O61 Zn49 2.034 . S
O62 Zn41 2.024 . S
O62 C42 1.249 . S
C63 O59 1.251 . S
C63 O60 1.254 . S
H64 C37 0.949 . S
H65 C39 0.950 . S
H66 C46 0.949 . S
H67 C48 0.950 . S
C68 O84 1.251 . S
C68 O86 1.254 . S
N69 C70 1.333 . S
N69 C74 1.307 . S
N69 Zn75 2.020 . S
C70 N69 1.333 . S
C70 C71 1.379 . S
C70 H88 0.952 . S
C71 C70 1.379 . S
C71 C72 1.390 . S
C71 H98 0.949 . S
C72 C71 1.390 . S
C72 C73 1.357 . S
C73 C72 1.357 . S
C73 C74 1.370 . S
C73 H99 0.950 . S
C74 N69 1.307 . S
C74 C73 1.370 . S
C74 H92 0.948 . S
Zn75 N69 2.020 . S
Zn75 O84 2.039 . S
Zn75 O90 2.034 . S
Zn75 O94 2.025 . S
Zn75 O96 2.024 . S
C76 O95 1.246 . S
C76 O96 1.249 . S
N77 C78 1.307 . S
N77 C79 1.333 . S
N77 Zn83 2.020 . S
C78 N77 1.307 . S
C78 C82 1.370 . S
C78 H89 0.948 . S
C79 N77 1.333 . S
C79 C80 1.379 . S
C79 H87 0.952 . S
C80 C79 1.379 . S
C80 C81 1.390 . S
C80 H100 0.949 . S
C81 C80 1.390 . S
C81 C82 1.357 . S
C82 C78 1.370 . S
C82 C81 1.357 . S
C82 H101 0.950 . S
Zn83 N77 2.020 . S
Zn83 O86 2.025 . S
Zn83 O91 2.024 . S
Zn83 O93 2.039 . S
Zn83 O95 2.034 . S
O84 C68 1.251 . S
O84 Zn75 2.039 . S
C85 O90 1.246 . S
C85 O91 1.249 . S
O86 C68 1.254 . S
O86 Zn83 2.025 . S
H87 C79 0.952 . S
H88 C70 0.952 . S
H89 C78 0.948 . S
O90 Zn75 2.034 . S
O90 C85 1.246 . S
O91 Zn83 2.024 . S
O91 C85 1.249 . S
H92 C74 0.948 . S
O93 Zn83 2.039 . S
O93 C97 1.251 . S
O94 Zn75 2.025 . S
O94 C97 1.254 . S
O95 C76 1.246 . S
O95 Zn83 2.034 . S
O96 Zn75 2.024 . S
O96 C76 1.249 . S
C97 O93 1.251 . S
C97 O94 1.254 . S
H98 C71 0.949 . S
H99 C73 0.950 . S
H100 C80 0.949 . S
H101 C82 0.950 . S
C102 O118 1.251 . S
C102 O120 1.254 . S
N103 C104 1.333 . S
N103 C108 1.307 . S
N103 Zn109 2.020 . S
C104 N103 1.333 . S
C104 C105 1.379 . S
C104 H122 0.952 . S
C105 C104 1.379 . S
C105 C106 1.390 . S
C105 H132 0.949 . S
C106 C105 1.390 . S
C106 C107 1.357 . S
C107 C106 1.357 . S
C107 C108 1.370 . S
C107 H133 0.950 . S
C108 N103 1.307 . S
C108 C107 1.370 . S
C108 H126 0.948 . S
Zn109 N103 2.020 . S
Zn109 O118 2.039 . S
Zn109 O124 2.034 . S
Zn109 O128 2.025 . S
Zn109 O130 2.024 . S
C110 O129 1.246 . S
C110 O130 1.249 . S
N111 C112 1.307 . S
N111 C113 1.333 . S
N111 Zn117 2.020 . S
C112 N111 1.307 . S
C112 C116 1.370 . S
C112 H123 0.948 . S
C113 N111 1.333 . S
C113 C114 1.379 . S
C113 H121 0.952 . S
C114 C113 1.379 . S
C114 C115 1.390 . S
C114 H134 0.949 . S
C115 C114 1.390 . S
C115 C116 1.357 . S
C116 C112 1.370 . S
C116 C115 1.357 . S
C116 H135 0.950 . S
Zn117 N111 2.020 . S
Zn117 O120 2.025 . S
Zn117 O125 2.024 . S
Zn117 O127 2.039 . S
Zn117 O129 2.034 . S
O118 C102 1.251 . S
O118 Zn109 2.039 . S
C119 O124 1.246 . S
C119 O125 1.249 . S
O120 C102 1.254 . S
O120 Zn117 2.025 . S
H121 C113 0.952 . S
H122 C104 0.952 . S
H123 C112 0.948 . S
O124 Zn109 2.034 . S
O124 C119 1.246 . S
O125 Zn117 2.024 . S
O125 C119 1.249 . S
H126 C108 0.948 . S
O127 Zn117 2.039 . S
O127 C131 1.251 . S
O128 Zn109 2.025 . S
O128 C131 1.254 . S
O129 C110 1.246 . S
O129 Zn117 2.034 . S
O130 Zn109 2.024 . S
O130 C110 1.249 . S
C131 O127 1.251 . S
C131 O128 1.254 . S
H132 C105 0.949 . S
H133 C107 0.950 . S
H134 C114 0.949 . S
H135 C116 0.950 . S
C136 O152 1.251 . S
C136 O154 1.254 . S
N137 C138 1.333 . S
N137 C142 1.307 . S
N137 Zn143 2.020 . S
C138 N137 1.333 . S
C138 C139 1.379 . S
C138 H156 0.952 . S
C139 C138 1.379 . S
C139 C140 1.390 . S
C139 H166 0.949 . S
C140 C139 1.390 . S
C140 C141 1.357 . S
C141 C140 1.357 . S
C141 C142 1.370 . S
C141 H167 0.950 . S
C142 N137 1.307 . S
C142 C141 1.370 . S
C142 H160 0.948 . S
Zn143 N137 2.020 . S
Zn143 O152 2.039 . S
Zn143 O158 2.034 . S
Zn143 O162 2.025 . S
Zn143 O164 2.024 . S
C144 O163 1.246 . S
C144 O164 1.249 . S
N145 C146 1.307 . S
N145 C147 1.333 . S
N145 Zn151 2.020 . S
C146 N145 1.307 . S
C146 C150 1.370 . S
C146 H157 0.948 . S
C147 N145 1.333 . S
C147 C148 1.379 . S
C147 H155 0.952 . S
C148 C147 1.379 . S
C148 C149 1.390 . S
C148 H168 0.949 . S
C149 C148 1.390 . S
C149 C150 1.357 . S
C150 C146 1.370 . S
C150 C149 1.357 . S
C150 H169 0.950 . S
Zn151 N145 2.020 . S
Zn151 O154 2.025 . S
Zn151 O159 2.024 . S
Zn151 O161 2.039 . S
Zn151 O163 2.034 . S
O152 C136 1.251 . S
O152 Zn143 2.039 . S
C153 O158 1.246 . S
C153 O159 1.249 . S
O154 C136 1.254 . S
O154 Zn151 2.025 . S
H155 C147 0.952 . S
H156 C138 0.952 . S
H157 C146 0.948 . S
O158 Zn143 2.034 . S
O158 C153 1.246 . S
O159 Zn151 2.024 . S
O159 C153 1.249 . S
H160 C142 0.948 . S
O161 Zn151 2.039 . S
O161 C165 1.251 . S
O162 Zn143 2.025 . S
O162 C165 1.254 . S
O163 C144 1.246 . S
O163 Zn151 2.034 . S
O164 Zn143 2.024 . S
O164 C144 1.249 . S
C165 O161 1.251 . S
C165 O162 1.254 . S
H166 C139 0.949 . S
H167 C141 0.950 . S
H168 C148 0.949 . S
H169 C150 0.950 . S
C170 O186 1.251 . S
C170 O188 1.254 . S
N171 C172 1.333 . S
N171 C176 1.307 . S
N171 Zn177 2.020 . S
C172 N171 1.333 . S
C172 C173 1.379 . S
C172 H190 0.952 . S
C173 C172 1.379 . S
C173 C174 1.390 . S
C173 H200 0.949 . S
C174 C173 1.390 . S
C174 C175 1.357 . S
C175 C174 1.357 . S
C175 C176 1.370 . S
C175 H201 0.950 . S
C176 N171 1.307 . S
C176 C175 1.370 . S
C176 H194 0.948 . S
Zn177 N171 2.020 . S
Zn177 O186 2.039 . S
Zn177 O192 2.034 . S
Zn177 O196 2.025 . S
Zn177 O198 2.024 . S
C178 O197 1.246 . S
C178 O198 1.249 . S
N179 C180 1.307 . S
N179 C181 1.333 . S
N179 Zn185 2.020 . S
C180 N179 1.307 . S
C180 C184 1.370 . S
C180 H191 0.948 . S
C181 N179 1.333 . S
C181 C182 1.379 . S
C181 H189 0.952 . S
C182 C181 1.379 . S
C182 C183 1.390 . S
C182 H202 0.949 . S
C183 C182 1.390 . S
C183 C184 1.357 . S
C184 C180 1.370 . S
C184 C183 1.357 . S
C184 H203 0.950 . S
Zn185 N179 2.020 . S
Zn185 O188 2.025 . S
Zn185 O193 2.024 . S
Zn185 O195 2.039 . S
Zn185 O197 2.034 . S
O186 C170 1.251 . S
O186 Zn177 2.039 . S
C187 O192 1.246 . S
C187 O193 1.249 . S
O188 C170 1.254 . S
O188 Zn185 2.025 . S
H189 C181 0.952 . S
H190 C172 0.952 . S
H191 C180 0.948 . S
O192 Zn177 2.034 . S
O192 C187 1.246 . S
O193 Zn185 2.024 . S
O193 C187 1.249 . S
H194 C176 0.948 . S
O195 Zn185 2.039 . S
O195 C199 1.251 . S
O196 Zn177 2.025 . S
O196 C199 1.254 . S
O197 C178 1.246 . S
O197 Zn185 2.034 . S
O198 Zn177 2.024 . S
O198 C178 1.249 . S
C199 O195 1.251 . S
C199 O196 1.254 . S
H200 C173 0.949 . S
H201 C175 0.950 . S
H202 C182 0.949 . S
H203 C184 0.950 . S
C204 O220 1.251 . S
C204 O222 1.254 . S
N205 C206 1.333 . S
N205 C210 1.307 . S
N205 Zn211 2.020 . S
C206 N205 1.333 . S
C206 C207 1.379 . S
C206 H224 0.952 . S
C207 C206 1.379 . S
C207 C208 1.390 . S
C207 H234 0.949 . S
C208 C207 1.390 . S
C208 C209 1.357 . S
C209 C208 1.357 . S
C209 C210 1.370 . S
C209 H235 0.950 . S
C210 N205 1.307 . S
C210 C209 1.370 . S
C210 H228 0.948 . S
Zn211 N205 2.020 . S
Zn211 O220 2.039 . S
Zn211 O226 2.034 . S
Zn211 O230 2.025 . S
Zn211 O232 2.024 . S
C212 O231 1.246 . S
C212 O232 1.249 . S
N213 C214 1.307 . S
N213 C215 1.333 . S
N213 Zn219 2.020 . S
C214 N213 1.307 . S
C214 C218 1.370 . S
C214 H225 0.948 . S
C215 N213 1.333 . S
C215 C216 1.379 . S
C215 H223 0.952 . S
C216 C215 1.379 . S
C216 C217 1.390 . S
C216 H236 0.949 . S
C217 C216 1.390 . S
C217 C218 1.357 . S
C218 C214 1.370 . S
C218 C217 1.357 . S
C218 H237 0.950 . S
Zn219 N213 2.020 . S
Zn219 O222 2.025 . S
Zn219 O227 2.024 . S
Zn219 O229 2.039 . S
Zn219 O231 2.034 . S
O220 C204 1.251 . S
O220 Zn211 2.039 . S
C221 O226 1.246 . S
C221 O227 1.249 . S
O222 C204 1.254 . S
O222 Zn219 2.025 . S
H223 C215 0.952 . S
H224 C206 0.952 . S
H225 C214 0.948 . S
O226 Zn211 2.034 . S
O226 C221 1.246 . S
O227 Zn219 2.024 . S
O227 C221 1.249 . S
H228 C210 0.948 . S
O229 Zn219 2.039 . S
O229 C233 1.251 . S
O230 Zn211 2.025 . S
O230 C233 1.254 . S
O231 C212 1.246 . S
O231 Zn219 2.034 . S
O232 Zn211 2.024 . S
O232 C212 1.249 . S
C233 O229 1.251 . S
C233 O230 1.254 . S
H234 C207 0.949 . S
H235 C209 0.950 . S
H236 C216 0.949 . S
H237 C218 0.950 . S
C238 O254 1.251 . S
C238 O256 1.254 . S
N239 C240 1.333 . S
N239 C244 1.307 . S
N239 Zn245 2.020 . S
C240 N239 1.333 . S
C240 C241 1.379 . S
C240 H258 0.952 . S
C241 C240 1.379 . S
C241 C242 1.390 . S
C241 H268 0.949 . S
C242 C241 1.390 . S
C242 C243 1.357 . S
C243 C242 1.357 . S
C243 C244 1.370 . S
C243 H269 0.950 . S
C244 N239 1.307 . S
C244 C243 1.370 . S
C244 H262 0.948 . S
Zn245 N239 2.020 . S
Zn245 O254 2.039 . S
Zn245 O260 2.034 . S
Zn245 O264 2.025 . S
Zn245 O266 2.024 . S
C246 O265 1.246 . S
C246 O266 1.249 . S
N247 C248 1.307 . S
N247 C249 1.333 . S
N247 Zn253 2.020 . S
C248 N247 1.307 . S
C248 C252 1.370 . S
C248 H259 0.948 . S
C249 N247 1.333 . S
C249 C250 1.379 . S
C249 H257 0.952 . S
C250 C249 1.379 . S
C250 C251 1.390 . S
C250 H270 0.949 . S
C251 C250 1.390 . S
C251 C252 1.357 . S
C252 C248 1.370 . S
C252 C251 1.357 . S
C252 H271 0.950 . S
Zn253 N247 2.020 . S
Zn253 O256 2.025 . S
Zn253 O261 2.024 . S
Zn253 O263 2.039 . S
Zn253 O265 2.034 . S
O254 C238 1.251 . S
O254 Zn245 2.039 . S
C255 O260 1.246 . S
C255 O261 1.249 . S
O256 C238 1.254 . S
O256 Zn253 2.025 . S
H257 C249 0.952 . S
H258 C240 0.952 . S
H259 C248 0.948 . S
O260 Zn245 2.034 . S
O260 C255 1.246 . S
O261 Zn253 2.024 . S
O261 C255 1.249 . S
H262 C244 0.948 . S
O263 Zn253 2.039 . S
O263 C267 1.251 . S
O264 Zn245 2.025 . S
O264 C267 1.254 . S
O265 C246 1.246 . S
O265 Zn253 2.034 . S
O266 Zn245 2.024 . S
O266 C246 1.249 . S
C267 O263 1.251 . S
C267 O264 1.254 . S
H268 C241 0.949 . S
H269 C243 0.950 . S
H270 C250 0.949 . S
H271 C252 0.950 . S
Fe272 O273 1.886 . S
Fe272 O276 1.715 1_655 S
Fe272 O281 2.077 . S
Fe272 O286 1.935 1_655 S
Fe272 O292 2.077 . S
Fe272 O301 1.935 1_655 S
O273 Fe272 1.886 . S
O273 Fe275 1.715 . S
Fe274 O276 1.886 1_565 S
Fe274 O277 1.715 . S
Fe274 O284 1.935 . S
Fe274 O285 2.077 1_565 S
Fe274 O291 1.935 . S
Fe274 O300 2.077 1_565 S
Fe275 O273 1.715 . S
Fe275 O278 1.886 1_545 S
Fe275 O282 1.935 . S
Fe275 O287 2.077 1_545 S
Fe275 O293 1.935 . S
Fe275 O297 2.077 1_545 S
O276 Fe272 1.715 1_455 S
O276 Fe274 1.886 1_545 S
O277 Fe274 1.715 . S
O277 Fe279 1.886 . S
O278 Fe275 1.886 1_565 S
O278 Fe279 1.715 1_655 S
Fe279 O277 1.886 . S
Fe279 O278 1.715 1_455 S
Fe279 O283 2.077 . S
Fe279 O288 1.935 1_455 S
Fe279 O290 2.077 . S
Fe279 O298 1.935 1_455 S
C280 O292 1.381 . S
C280 O293 1.421 . S
O281 Fe272 2.077 . S
O281 C294 1.381 . S
O282 Fe275 1.935 . S
O282 C294 1.421 . S
O283 Fe279 2.077 . S
O283 C299 1.381 . S
O284 Fe274 1.935 . S
O284 C299 1.421 . S
O285 Fe274 2.077 1_545 S
O285 C289 1.381 . S
O286 Fe272 1.935 1_455 S
O286 C289 1.421 . S
O287 Fe275 2.077 1_565 S
O287 C295 1.381 . S
O288 Fe279 1.935 1_655 S
O288 C295 1.421 . S
C289 O285 1.381 . S
C289 O286 1.421 . S
O290 Fe279 2.077 . S
O290 C302 1.381 . S
O291 Fe274 1.935 . S
O291 C302 1.421 . S
O292 Fe272 2.077 . S
O292 C280 1.381 . S
O293 Fe275 1.935 . S
O293 C280 1.421 . S
C294 O281 1.381 . S
C294 O282 1.421 . S
C295 O287 1.381 . S
C295 O288 1.421 . S
C296 O297 1.381 . S
C296 O298 1.421 . S
O297 Fe275 2.077 1_565 S
O297 C296 1.381 . S
O298 Fe279 1.935 1_655 S
O298 C296 1.421 . S
C299 O283 1.381 . S
C299 O284 1.421 . S
O300 Fe274 2.077 1_545 S
O300 C303 1.381 . S
O301 Fe272 1.935 1_455 S
O301 C303 1.421 . S
C302 O290 1.381 . S
C302 O291 1.421 . S
C303 O300 1.381 . S
C303 O301 1.421 . S
Fe304 O305 1.886 1_554 S
Fe304 O308 1.715 . S
Fe304 O313 2.077 1_554 S
Fe304 O318 1.935 1_554 S
Fe304 O324 2.077 . S
Fe304 O333 1.935 . S
O305 Fe304 1.886 1_556 S
O305 Fe307 1.715 . S
Fe306 O308 1.886 1_545 S
Fe306 O309 1.715 . S
Fe306 O316 1.935 1_554 S
Fe306 O317 2.077 1_544 S
Fe306 O323 1.935 . S
Fe306 O332 2.077 1_545 S
Fe307 O305 1.715 . S
Fe307 O310 1.886 1_565 S
Fe307 O314 1.935 . S
Fe307 O319 2.077 1_565 S
Fe307 O325 1.935 1_556 S
Fe307 O329 2.077 1_566 S
O308 Fe304 1.715 . S
O308 Fe306 1.886 1_565 S
O309 Fe306 1.715 . S
O309 Fe311 1.886 1_554 S
O310 Fe307 1.886 1_545 S
O310 Fe311 1.715 . S
Fe311 O309 1.886 1_556 S
Fe311 O310 1.715 . S
Fe311 O315 2.077 . S
Fe311 O320 1.935 . S
Fe311 O322 2.077 1_556 S
Fe311 O330 1.935 1_556 S
C312 O324 1.381 . S
C312 O325 1.421 . S
O313 Fe304 2.077 1_556 S
O313 C326 1.381 . S
O314 Fe307 1.935 . S
O314 C326 1.421 . S
O315 Fe311 2.077 . S
O315 C331 1.381 . S
O316 Fe306 1.935 1_556 S
O316 C331 1.421 . S
O317 Fe306 2.077 1_566 S
O317 C321 1.381 . S
O318 Fe304 1.935 1_556 S
O318 C321 1.421 . S
O319 Fe307 2.077 1_545 S
O319 C327 1.381 . S
O320 Fe311 1.935 . S
O320 C327 1.421 . S
C321 O317 1.381 . S
C321 O318 1.421 . S
O322 Fe311 2.077 1_554 S
O322 C334 1.381 . S
O323 Fe306 1.935 . S
O323 C334 1.421 . S
O324 Fe304 2.077 . S
O324 C312 1.381 . S
O325 Fe307 1.935 1_554 S
O325 C312 1.421 . S
C326 O313 1.381 . S
C326 O314 1.421 . S
C327 O319 1.381 . S
C327 O320 1.421 . S
C328 O329 1.381 . S
C328 O330 1.421 . S
O329 Fe307 2.077 1_544 S
O329 C328 1.381 . S
O330 Fe311 1.935 1_554 S
O330 C328 1.421 . S
C331 O315 1.381 . S
C331 O316 1.421 . S
O332 Fe306 2.077 1_565 S
O332 C335 1.381 . S
O333 Fe304 1.935 . S
O333 C335 1.421 . S
C334 O322 1.381 . S
C334 O323 1.421 . S
C335 O332 1.381 . S
C335 O333 1.421 . S
Fe336 O337 1.886 1_556 S
Fe336 O340 1.715 1_655 S
Fe336 O345 2.077 . S
Fe336 O350 1.935 1_655 S
Fe336 O356 2.077 1_556 S
Fe336 O365 1.935 1_656 S
O337 Fe336 1.886 1_554 S
O337 Fe339 1.715 . S
Fe338 O340 1.886 . S
Fe338 O341 1.715 . S
Fe338 O348 1.935 . S
Fe338 O349 2.077 . S
Fe338 O355 1.935 1_556 S
Fe338 O364 2.077 1_556 S
Fe339 O337 1.715 . S
Fe339 O342 1.886 . S
Fe339 O346 1.935 1_554 S
Fe339 O351 2.077 1_554 S
Fe339 O357 1.935 . S
Fe339 O361 2.077 . S
O340 Fe336 1.715 1_455 S
O340 Fe338 1.886 . S
O341 Fe338 1.715 . S
O341 Fe343 1.886 1_556 S
O342 Fe339 1.886 . S
O342 Fe343 1.715 1_655 S
Fe343 O341 1.886 1_554 S
Fe343 O342 1.715 1_455 S
Fe343 O347 2.077 1_554 S
Fe343 O352 1.935 1_454 S
Fe343 O354 2.077 . S
Fe343 O362 1.935 1_455 S
C344 O356 1.381 . S
C344 O357 1.421 . S
O345 Fe336 2.077 . S
O345 C358 1.381 . S
O346 Fe339 1.935 1_556 S
O346 C358 1.421 . S
O347 Fe343 2.077 1_556 S
O347 C363 1.381 . S
O348 Fe338 1.935 . S
O348 C363 1.421 . S
O349 Fe338 2.077 . S
O349 C353 1.381 . S
O350 Fe336 1.935 1_455 S
O350 C353 1.421 . S
O351 Fe339 2.077 1_556 S
O351 C359 1.381 . S
O352 Fe343 1.935 1_656 S
O352 C359 1.421 . S
C353 O349 1.381 . S
C353 O350 1.421 . S
O354 Fe343 2.077 . S
O354 C366 1.381 . S
O355 Fe338 1.935 1_554 S
O355 C366 1.421 . S
O356 Fe336 2.077 1_554 S
O356 C344 1.381 . S
O357 Fe339 1.935 . S
O357 C344 1.421 . S
C358 O345 1.381 . S
C358 O346 1.421 . S
C359 O351 1.381 . S
C359 O352 1.421 . S
C360 O361 1.381 . S
C360 O362 1.421 . S
O361 Fe339 2.077 . S
O361 C360 1.381 . S
O362 Fe343 1.935 1_655 S
O362 C360 1.421 . S
C363 O347 1.381 . S
C363 O348 1.421 . S
O364 Fe338 2.077 1_554 S
O364 C367 1.381 . S
O365 Fe336 1.935 1_454 S
O365 C367 1.421 . S
C366 O354 1.381 . S
C366 O355 1.421 . S
C367 O364 1.381 . S
C367 O365 1.421 . S
Fe368 O369 1.886 . S
Fe368 O372 1.715 . S
Fe368 O377 2.077 . S
Fe368 O382 1.935 . S
Fe368 O388 2.077 . S
Fe368 O397 1.935 . S
O369 Fe368 1.886 . S
O369 Fe371 1.715 . S
Fe370 O372 1.886 1_554 S
Fe370 O373 1.715 . S
Fe370 O380 1.935 . S
Fe370 O381 2.077 1_554 S
Fe370 O387 1.935 . S
Fe370 O396 2.077 1_554 S
Fe371 O369 1.715 . S
Fe371 O374 1.886 1_556 S
Fe371 O378 1.935 . S
Fe371 O383 2.077 1_556 S
Fe371 O389 1.935 . S
Fe371 O393 2.077 1_556 S
O372 Fe368 1.715 . S
O372 Fe370 1.886 1_556 S
O373 Fe370 1.715 . S
O373 Fe375 1.886 . S
O374 Fe371 1.886 1_554 S
O374 Fe375 1.715 . S
Fe375 O373 1.886 . S
Fe375 O374 1.715 . S
Fe375 O379 2.077 . S
Fe375 O384 1.935 . S
Fe375 O386 2.077 . S
Fe375 O394 1.935 . S
C376 O388 1.381 . S
C376 O389 1.421 . S
O377 Fe368 2.077 . S
O377 C390 1.381 . S
O378 Fe371 1.935 . S
O378 C390 1.421 . S
O379 Fe375 2.077 . S
O379 C395 1.381 . S
O380 Fe370 1.935 . S
O380 C395 1.421 . S
O381 Fe370 2.077 1_556 S
O381 C385 1.381 . S
O382 Fe368 1.935 . S
O382 C385 1.421 . S
O383 Fe371 2.077 1_554 S
O383 C391 1.381 . S
O384 Fe375 1.935 . S
O384 C391 1.421 . S
C385 O381 1.381 . S
C385 O382 1.421 . S
O386 Fe375 2.077 . S
O386 C398 1.381 . S
O387 Fe370 1.935 . S
O387 C398 1.421 . S
O388 Fe368 2.077 . S
O388 C376 1.381 . S
O389 Fe371 1.935 . S
O389 C376 1.421 . S
C390 O377 1.381 . S
C390 O378 1.421 . S
C391 O383 1.381 . S
C391 O384 1.421 . S
C392 O393 1.381 . S
C392 O394 1.421 . S
O393 Fe371 2.077 1_554 S
O393 C392 1.381 . S
O394 Fe375 1.935 . S
O394 C392 1.421 . S
C395 O379 1.381 . S
C395 O380 1.421 . S
O396 Fe370 2.077 1_556 S
O396 C399 1.381 . S
O397 Fe368 1.935 . S
O397 C399 1.421 . S
C398 O386 1.381 . S
C398 O387 1.421 . S
C399 O396 1.381 . S
C399 O397 1.421 . S
Fe400 O401 1.886 . S
Fe400 O404 1.715 . S
Fe400 O409 2.077 . S
Fe400 O414 1.935 . S
Fe400 O420 2.077 1_455 S
Fe400 O429 1.935 1_455 S
O401 Fe400 1.886 . S
O401 Fe403 1.715 1_455 S
Fe402 O404 1.886 . S
Fe402 O405 1.715 1_455 S
Fe402 O412 1.935 . S
Fe402 O413 2.077 . S
Fe402 O419 1.935 1_455 S
Fe402 O428 2.077 1_455 S
Fe403 O401 1.715 1_655 S
Fe403 O406 1.886 . S
Fe403 O410 1.935 1_655 S
Fe403 O415 2.077 1_655 S
Fe403 O421 1.935 . S
Fe403 O425 2.077 . S
O404 Fe400 1.715 . S
O404 Fe402 1.886 . S
O405 Fe402 1.715 1_655 S
O405 Fe407 1.886 . S
O406 Fe403 1.886 . S
O406 Fe407 1.715 . S
Fe407 O405 1.886 . S
Fe407 O406 1.715 . S
Fe407 O411 2.077 1_655 S
Fe407 O416 1.935 1_655 S
Fe407 O418 2.077 . S
Fe407 O426 1.935 . S
C408 O420 1.381 . S
C408 O421 1.421 . S
O409 Fe400 2.077 . S
O409 C422 1.381 . S
O410 Fe403 1.935 1_455 S
O410 C422 1.421 . S
O411 Fe407 2.077 1_455 S
O411 C427 1.381 . S
O412 Fe402 1.935 . S
O412 C427 1.421 . S
O413 Fe402 2.077 . S
O413 C417 1.381 . S
O414 Fe400 1.935 . S
O414 C417 1.421 . S
O415 Fe403 2.077 1_455 S
O415 C423 1.381 . S
O416 Fe407 1.935 1_455 S
O416 C423 1.421 . S
C417 O413 1.381 . S
C417 O414 1.421 . S
O418 Fe407 2.077 . S
O418 C430 1.381 . S
O419 Fe402 1.935 1_655 S
O419 C430 1.421 . S
O420 Fe400 2.077 1_655 S
O420 C408 1.381 . S
O421 Fe403 1.935 . S
O421 C408 1.421 . S
C422 O409 1.381 . S
C422 O410 1.421 . S
C423 O415 1.381 . S
C423 O416 1.421 . S
C424 O425 1.381 . S
C424 O426 1.421 . S
O425 Fe403 2.077 . S
O425 C424 1.381 . S
O426 Fe407 1.935 . S
O426 C424 1.421 . S
C427 O411 1.381 . S
C427 O412 1.421 . S
O428 Fe402 2.077 1_655 S
O428 C431 1.381 . S
O429 Fe400 1.935 1_655 S
O429 C431 1.421 . S
C430 O418 1.381 . S
C430 O419 1.421 . S
C431 O428 1.381 . S
C431 O429 1.421 . S
Fe432 O433 1.886 . S
Fe432 O436 1.715 . S
Fe432 O441 2.077 . S
Fe432 O446 1.935 . S
Fe432 O452 2.077 . S
Fe432 O461 1.935 . S
O433 Fe432 1.886 . S
O433 Fe435 1.715 . S
Fe434 O436 1.886 1_545 S
Fe434 O437 1.715 . S
Fe434 O444 1.935 . S
Fe434 O445 2.077 1_545 S
Fe434 O451 1.935 . S
Fe434 O460 2.077 1_545 S
Fe435 O433 1.715 . S
Fe435 O438 1.886 1_565 S
Fe435 O442 1.935 . S
Fe435 O447 2.077 1_565 S
Fe435 O453 1.935 . S
Fe435 O457 2.077 1_565 S
O436 Fe432 1.715 . S
O436 Fe434 1.886 1_565 S
O437 Fe434 1.715 . S
O437 Fe439 1.886 . S
O438 Fe435 1.886 1_545 S
O438 Fe439 1.715 . S
Fe439 O437 1.886 . S
Fe439 O438 1.715 . S
Fe439 O443 2.077 . S
Fe439 O448 1.935 . S
Fe439 O450 2.077 . S
Fe439 O458 1.935 . S
C440 O452 1.381 . S
C440 O453 1.421 . S
O441 Fe432 2.077 . S
O441 C454 1.381 . S
O442 Fe435 1.935 . S
O442 C454 1.421 . S
O443 Fe439 2.077 . S
O443 C459 1.381 . S
O444 Fe434 1.935 . S
O444 C459 1.421 . S
O445 Fe434 2.077 1_565 S
O445 C449 1.381 . S
O446 Fe432 1.935 . S
O446 C449 1.421 . S
O447 Fe435 2.077 1_545 S
O447 C455 1.381 . S
O448 Fe439 1.935 . S
O448 C455 1.421 . S
C449 O445 1.381 . S
C449 O446 1.421 . S
O450 Fe439 2.077 . S
O450 C462 1.381 . S
O451 Fe434 1.935 . S
O451 C462 1.421 . S
O452 Fe432 2.077 . S
O452 C440 1.381 . S
O453 Fe435 1.935 . S
O453 C440 1.421 . S
C454 O441 1.381 . S
C454 O442 1.421 . S
C455 O447 1.381 . S
C455 O448 1.421 . S
C456 O457 1.381 . S
C456 O458 1.421 . S
O457 Fe435 2.077 1_545 S
O457 C456 1.381 . S
O458 Fe439 1.935 . S
O458 C456 1.421 . S
C459 O443 1.381 . S
C459 O444 1.421 . S
O460 Fe434 2.077 1_565 S
O460 C463 1.381 . S
O461 Fe432 1.935 . S
O461 C463 1.421 . S
C462 O450 1.381 . S
C462 O451 1.421 . S
C463 O460 1.381 . S
C463 O461 1.421 . S
C464 C465 1.369 . S
C464 C466 1.419 . S
C464 H468 0.930 . S
C465 C464 1.369 . S
C465 C474 1.429 . S
C466 C464 1.419 . S
C466 C467 1.363 . S
C466 H469 0.929 . S
C467 C466 1.363 . S
C467 C473 1.428 . S
H468 C464 0.930 . S
H469 C466 0.929 . S
S470 N471 1.613 1_655 S
S470 N472 1.610 1_655 S
N471 S470 1.613 1_455 S
N471 C474 1.350 . S
N472 S470 1.610 1_455 S
N472 C473 1.351 . S
C473 C467 1.428 . S
C473 N472 1.351 . S
C473 C474 1.434 . S
C474 C465 1.429 . S
C474 N471 1.350 . S
C474 C473 1.434 . S
C475 C476 1.369 . S
C475 C477 1.419 . S
C475 H479 0.930 . S
C476 C475 1.369 . S
C476 C485 1.429 . S
C477 C475 1.419 . S
C477 C478 1.363 . S
C477 H480 0.929 . S
C478 C477 1.363 . S
C478 C484 1.428 . S
H479 C475 0.930 . S
H480 C477 0.929 . S
S481 N482 1.613 . S
S481 N483 1.610 . S
N482 S481 1.613 . S
N482 C485 1.350 . S
N483 S481 1.610 . S
N483 C484 1.351 . S
C484 C478 1.428 . S
C484 N483 1.351 . S
C484 C485 1.434 . S
C485 C476 1.429 . S
C485 N482 1.350 . S
C485 C484 1.434 . S
C486 C487 1.369 . S
C486 C488 1.419 . S
C486 H490 0.930 . S
C487 C486 1.369 . S
C487 C496 1.429 . S
C488 C486 1.419 . S
C488 C489 1.363 . S
C488 H491 0.929 . S
C489 C488 1.363 . S
C489 C495 1.428 . S
H490 C486 0.930 . S
H491 C488 0.929 . S
S492 N493 1.613 . S
S492 N494 1.610 . S
N493 S492 1.613 . S
N493 C496 1.350 . S
N494 S492 1.610 . S
N494 C495 1.351 . S
C495 C489 1.428 . S
C495 N494 1.351 . S
C495 C496 1.434 . S
C496 C487 1.429 . S
C496 N493 1.350 . S
C496 C495 1.434 . S
C497 C498 1.369 . S
C497 C499 1.419 . S
C497 H501 0.930 . S
C498 C497 1.369 . S
C498 C507 1.429 . S
C499 C497 1.419 . S
C499 C500 1.363 . S
C499 H502 0.929 . S
C500 C499 1.363 . S
C500 C506 1.428 . S
H501 C497 0.930 . S
H502 C499 0.929 . S
S503 N504 1.613 . S
S503 N505 1.610 . S
N504 S503 1.613 . S
N504 C507 1.350 . S
N505 S503 1.610 . S
N505 C506 1.351 . S
C506 C500 1.428 . S
C506 N505 1.351 . S
C506 C507 1.434 . S
C507 C498 1.429 . S
C507 N504 1.350 . S
C507 C506 1.434 . S
C508 C509 1.369 . S
C508 C510 1.419 . S
C508 H512 0.930 . S
C509 C508 1.369 . S
C509 C518 1.429 . S
C510 C508 1.419 . S
C510 C511 1.363 . S
C510 H513 0.929 . S
C511 C510 1.363 . S
C511 C517 1.428 . S
H512 C508 0.930 . S
H513 C510 0.929 . S
S514 N515 1.613 . S
S514 N516 1.610 . S
N515 S514 1.613 . S
N515 C518 1.350 . S
N516 S514 1.610 . S
N516 C517 1.351 . S
C517 C511 1.428 . S
C517 N516 1.351 . S
C517 C518 1.434 . S
C518 C509 1.429 . S
C518 N515 1.350 . S
C518 C517 1.434 . S
C519 C520 1.369 . S
C519 C521 1.419 . S
C519 H523 0.930 . S
C520 C519 1.369 . S
C520 C529 1.429 . S
C521 C519 1.419 . S
C521 C522 1.363 . S
C521 H524 0.929 . S
C522 C521 1.363 . S
C522 C528 1.428 . S
H523 C519 0.930 . S
H524 C521 0.929 . S
S525 N526 1.613 . S
S525 N527 1.610 . S
N526 S525 1.613 . S
N526 C529 1.350 . S
N527 S525 1.610 . S
N527 C528 1.351 . S
C528 C522 1.428 . S
C528 N527 1.351 . S
C528 C529 1.434 . S
C529 C520 1.429 . S
C529 N526 1.350 . S
C529 C528 1.434 . S
C530 C531 1.369 . S
C530 C532 1.419 . S
C530 H534 0.930 . S
C531 C530 1.369 . S
C531 C540 1.429 . S
C532 C530 1.419 . S
C532 C533 1.363 . S
C532 H535 0.929 . S
C533 C532 1.363 . S
C533 C539 1.428 . S
H534 C530 0.930 . S
H535 C532 0.929 . S
S536 N537 1.613 . S
S536 N538 1.610 . S
N537 S536 1.613 . S
N537 C540 1.350 . S
N538 S536 1.610 . S
N538 C539 1.351 . S
C539 C533 1.428 . S
C539 N538 1.351 . S
C539 C540 1.434 . S
C540 C531 1.429 . S
C540 N537 1.350 . S
C540 C539 1.434 . S
C541 C542 1.369 . S
C541 C543 1.419 . S
C541 H545 0.930 . S
C542 C541 1.369 . S
C542 C551 1.429 . S
C543 C541 1.419 . S
C543 C544 1.363 . S
C543 H546 0.929 . S
C544 C543 1.363 . S
C544 C550 1.428 . S
H545 C541 0.930 . S
H546 C543 0.929 . S
S547 N548 1.613 1_455 S
S547 N549 1.610 1_455 S
N548 S547 1.613 1_655 S
N548 C551 1.350 . S
N549 S547 1.610 1_655 S
N549 C550 1.351 . S
C550 C544 1.428 . S
C550 N549 1.351 . S
C550 C551 1.434 . S
C551 C542 1.429 . S
C551 N548 1.350 . S
C551 C550 1.434 . S
C552 C553 1.369 . S
C552 C554 1.419 . S
C552 H556 0.930 . S
C553 C552 1.369 . S
C553 C562 1.429 . S
C554 C552 1.419 . S
C554 C555 1.363 . S
C554 H557 0.929 . S
C555 C554 1.363 . S
C555 C561 1.428 . S
H556 C552 0.930 . S
H557 C554 0.929 . S
S558 N559 1.613 . S
S558 N560 1.610 . S
N559 S558 1.613 . S
N559 C562 1.350 . S
N560 S558 1.610 . S
N560 C561 1.351 . S
C561 C555 1.428 . S
C561 N560 1.351 . S
C561 C562 1.434 . S
C562 C553 1.429 . S
C562 N559 1.350 . S
C562 C561 1.434 . S
C563 C564 1.369 . S
C563 C565 1.419 . S
C563 H567 0.930 . S
C564 C563 1.369 . S
C564 C573 1.429 . S
C565 C563 1.419 . S
C565 C566 1.363 . S
C565 H568 0.929 . S
C566 C565 1.363 . S
C566 C572 1.428 . S
H567 C563 0.930 . S
H568 C565 0.929 . S
S569 N570 1.613 . S
S569 N571 1.610 . S
N570 S569 1.613 . S
N570 C573 1.350 . S
N571 S569 1.610 . S
N571 C572 1.351 . S
C572 C566 1.428 . S
C572 N571 1.351 . S
C572 C573 1.434 . S
C573 C564 1.429 . S
C573 N570 1.350 . S
C573 C572 1.434 . S
C574 C575 1.369 . S
C574 C576 1.419 . S
C574 H578 0.930 . S
C575 C574 1.369 . S
C575 C584 1.429 . S
C576 C574 1.419 . S
C576 C577 1.363 . S
C576 H579 0.929 . S
C577 C576 1.363 . S
C577 C583 1.428 . S
H578 C574 0.930 . S
H579 C576 0.929 . S
S580 N581 1.613 . S
S580 N582 1.610 . S
N581 S580 1.613 . S
N581 C584 1.350 . S
N582 S580 1.610 . S
N582 C583 1.351 . S
C583 C577 1.428 . S
C583 N582 1.351 . S
C583 C584 1.434 . S
C584 C575 1.429 . S
C584 N581 1.350 . S
C584 C583 1.434 . S
C585 C586 1.369 . S
C585 C587 1.419 . S
C585 H589 0.930 . S
C586 C585 1.369 . S
C586 C595 1.429 . S
C587 C585 1.419 . S
C587 C588 1.363 . S
C587 H590 0.929 . S
C588 C587 1.363 . S
C588 C594 1.428 . S
H589 C585 0.930 . S
H590 C587 0.929 . S
S591 N592 1.613 . S
S591 N593 1.610 . S
N592 S591 1.613 . S
N592 C595 1.350 . S
N593 S591 1.610 . S
N593 C594 1.351 . S
C594 C588 1.428 . S
C594 N593 1.351 . S
C594 C595 1.434 . S
C595 C586 1.429 . S
C595 N592 1.350 . S
C595 C594 1.434 . S
C596 C597 1.369 . S
C596 C598 1.419 . S
C596 H600 0.930 . S
C597 C596 1.369 . S
C597 C606 1.429 . S
C598 C596 1.419 . S
C598 C599 1.363 . S
C598 H601 0.929 . S
C599 C598 1.363 . S
C599 C605 1.428 . S
H600 C596 0.930 . S
H601 C598 0.929 . S
S602 N603 1.613 . S
S602 N604 1.610 . S
N603 S602 1.613 . S
N603 C606 1.350 . S
N604 S602 1.610 . S
N604 C605 1.351 . S
C605 C599 1.428 . S
C605 N604 1.351 . S
C605 C606 1.434 . S
C606 C597 1.429 . S
C606 N603 1.350 . S
C606 C605 1.434 . S
C607 C608 1.369 . S
C607 C609 1.419 . S
C607 H611 0.930 . S
C608 C607 1.369 . S
C608 C617 1.429 . S
C609 C607 1.419 . S
C609 C610 1.363 . S
C609 H612 0.929 . S
C610 C609 1.363 . S
C610 C616 1.428 . S
H611 C607 0.930 . S
H612 C609 0.929 . S
S613 N614 1.613 . S
S613 N615 1.610 . S
N614 S613 1.613 . S
N614 C617 1.350 . S
N615 S613 1.610 . S
N615 C616 1.351 . S
C616 C610 1.428 . S
C616 N615 1.351 . S
C616 C617 1.434 . S
C617 C608 1.429 . S
C617 N614 1.350 . S
C617 C616 1.434 . S
C618 C619 1.369 . S
C618 C620 1.419 . S
C618 H622 0.930 . S
C619 C618 1.369 . S
C619 C628 1.429 . S
C620 C618 1.419 . S
C620 C621 1.363 . S
C620 H623 0.929 . S
C621 C620 1.363 . S
C621 C627 1.428 . S
H622 C618 0.930 . S
H623 C620 0.929 . S
S624 N625 1.613 . S
S624 N626 1.610 . S
N625 S624 1.613 . S
N625 C628 1.350 . S
N626 S624 1.610 . S
N626 C627 1.351 . S
C627 C621 1.428 . S
C627 N626 1.351 . S
C627 C628 1.434 . S
C628 C619 1.429 . S
C628 N625 1.350 . S
C628 C627 1.434 . S
C629 C630 1.369 . S
C629 C631 1.419 . S
C629 H633 0.930 . S
C630 C629 1.369 . S
C630 C639 1.429 . S
C631 C629 1.419 . S
C631 C632 1.363 . S
C631 H634 0.929 . S
C632 C631 1.363 . S
C632 C638 1.428 . S
H633 C629 0.930 . S
H634 C631 0.929 . S
S635 N636 1.613 . S
S635 N637 1.610 . S
N636 S635 1.613 . S
N636 C639 1.350 . S
N637 S635 1.610 . S
N637 C638 1.351 . S
C638 C632 1.428 . S
C638 N637 1.351 . S
C638 C639 1.434 . S
C639 C630 1.429 . S
C639 N636 1.350 . S
C639 C638 1.434 . S
C640 C641 1.369 . S
C640 C642 1.419 . S
C640 H644 0.930 . S
C641 C640 1.369 . S
C641 C650 1.429 . S
C642 C640 1.419 . S
C642 C643 1.363 . S
C642 H645 0.929 . S
C643 C642 1.363 . S
C643 C649 1.428 . S
H644 C640 0.930 . S
H645 C642 0.929 . S
S646 N647 1.613 . S
S646 N648 1.610 . S
N647 S646 1.613 . S
N647 C650 1.350 . S
N648 S646 1.610 . S
N648 C649 1.351 . S
C649 C643 1.428 . S
C649 N648 1.351 . S
C649 C650 1.434 . S
C650 C641 1.429 . S
C650 N647 1.350 . S
C650 C649 1.434 . S
C651 C652 1.369 . S
C651 C653 1.419 . S
C651 H655 0.930 . S
C652 C651 1.369 . S
C652 C661 1.429 . S
C653 C651 1.419 . S
C653 C654 1.363 . S
C653 H656 0.929 . S
C654 C653 1.363 . S
C654 C660 1.428 . S
H655 C651 0.930 . S
H656 C653 0.929 . S
S657 N658 1.613 . S
S657 N659 1.610 . S
N658 S657 1.613 . S
N658 C661 1.350 . S
N659 S657 1.610 . S
N659 C660 1.351 . S
C660 C654 1.428 . S
C660 N659 1.351 . S
C660 C661 1.434 . S
C661 C652 1.429 . S
C661 N658 1.350 . S
C661 C660 1.434 . S
C662 C663 1.369 . S
C662 C664 1.419 . S
C662 H666 0.930 . S
C663 C662 1.369 . S
C663 C672 1.429 . S
C664 C662 1.419 . S
C664 C665 1.363 . S
C664 H667 0.929 . S
C665 C664 1.363 . S
C665 C671 1.428 . S
H666 C662 0.930 . S
H667 C664 0.929 . S
S668 N669 1.613 . S
S668 N670 1.610 . S
N669 S668 1.613 . S
N669 C672 1.350 . S
N670 S668 1.610 . S
N670 C671 1.351 . S
C671 C665 1.428 . S
C671 N670 1.351 . S
C671 C672 1.434 . S
C672 C663 1.429 . S
C672 N669 1.350 . S
C672 C671 1.434 . S
C673 C674 1.369 . S
C673 C675 1.419 . S
C673 H677 0.930 . S
C674 C673 1.369 . S
C674 C683 1.429 . S
C675 C673 1.419 . S
C675 C676 1.363 . S
C675 H678 0.929 . S
C676 C675 1.363 . S
C676 C682 1.428 . S
H677 C673 0.930 . S
H678 C675 0.929 . S
S679 N680 1.613 . S
S679 N681 1.610 . S
N680 S679 1.613 . S
N680 C683 1.350 . S
N681 S679 1.610 . S
N681 C682 1.351 . S
C682 C676 1.428 . S
C682 N681 1.351 . S
C682 C683 1.434 . S
C683 C674 1.429 . S
C683 N680 1.350 . S
C683 C682 1.434 . S
C684 C685 1.369 . S
C684 C686 1.419 . S
C684 H688 0.930 . S
C685 C684 1.369 . S
C685 C694 1.429 . S
C686 C684 1.419 . S
C686 C687 1.363 . S
C686 H689 0.929 . S
C687 C686 1.363 . S
C687 C693 1.428 . S
H688 C684 0.930 . S
H689 C686 0.929 . S
S690 N691 1.613 . S
S690 N692 1.610 . S
N691 S690 1.613 . S
N691 C694 1.350 . S
N692 S690 1.610 . S
N692 C693 1.351 . S
C693 C687 1.428 . S
C693 N692 1.351 . S
C693 C694 1.434 . S
C694 C685 1.429 . S
C694 N691 1.350 . S
C694 C693 1.434 . S
C695 C696 1.369 . S
C695 C697 1.419 . S
C695 H699 0.930 . S
C696 C695 1.369 . S
C696 C705 1.429 . S
C697 C695 1.419 . S
C697 C698 1.363 . S
C697 H700 0.929 . S
C698 C697 1.363 . S
C698 C704 1.428 . S
H699 C695 0.930 . S
H700 C697 0.929 . S
S701 N702 1.613 . S
S701 N703 1.610 . S
N702 S701 1.613 . S
N702 C705 1.350 . S
N703 S701 1.610 . S
N703 C704 1.351 . S
C704 C698 1.428 . S
C704 N703 1.351 . S
C704 C705 1.434 . S
C705 C696 1.429 . S
C705 N702 1.350 . S
C705 C704 1.434 . S
C706 C707 1.369 . S
C706 C708 1.419 . S
C706 H710 0.930 . S
C707 C706 1.369 . S
C707 C716 1.429 . S
C708 C706 1.419 . S
C708 C709 1.363 . S
C708 H711 0.929 . S
C709 C708 1.363 . S
C709 C715 1.428 . S
H710 C706 0.930 . S
H711 C708 0.929 . S
S712 N713 1.613 . S
S712 N714 1.610 . S
N713 S712 1.613 . S
N713 C716 1.350 . S
N714 S712 1.610 . S
N714 C715 1.351 . S
C715 C709 1.428 . S
C715 N714 1.351 . S
C715 C716 1.434 . S
C716 C707 1.429 . S
C716 N713 1.350 . S
C716 C715 1.434 . S
C717 C718 1.369 . S
C717 C719 1.419 . S
C717 H721 0.930 . S
C718 C717 1.369 . S
C718 C727 1.429 . S
C719 C717 1.419 . S
C719 C720 1.363 . S
C719 H722 0.929 . S
C720 C719 1.363 . S
C720 C726 1.428 . S
H721 C717 0.930 . S
H722 C719 0.929 . S
S723 N724 1.613 1_556 S
S723 N725 1.610 1_556 S
N724 S723 1.613 1_554 S
N724 C727 1.350 . S
N725 S723 1.610 1_554 S
N725 C726 1.351 . S
C726 C720 1.428 . S
C726 N725 1.351 . S
C726 C727 1.434 . S
C727 C718 1.429 . S
C727 N724 1.350 . S
C727 C726 1.434 . S
C728 C729 1.369 . S
C728 C730 1.419 . S
C728 H732 0.930 . S
C729 C728 1.369 . S
C729 C738 1.429 . S
C730 C728 1.419 . S
C730 C731 1.363 . S
C730 H733 0.929 . S
C731 C730 1.363 . S
C731 C737 1.428 . S
H732 C728 0.930 . S
H733 C730 0.929 . S
S734 N735 1.613 . S
S734 N736 1.610 . S
N735 S734 1.613 . S
N735 C738 1.350 . S
N736 S734 1.610 . S
N736 C737 1.351 . S
C737 C731 1.428 . S
C737 N736 1.351 . S
C737 C738 1.434 . S
C738 C729 1.429 . S
C738 N735 1.350 . S
C738 C737 1.434 . S
C739 C740 1.369 . S
C739 C741 1.419 . S
C739 H743 0.930 . S
C740 C739 1.369 . S
C740 C749 1.429 . S
C741 C739 1.419 . S
C741 C742 1.363 . S
C741 H744 0.929 . S
C742 C741 1.363 . S
C742 C748 1.428 . S
H743 C739 0.930 . S
H744 C741 0.929 . S
S745 N746 1.613 . S
S745 N747 1.610 . S
N746 S745 1.613 . S
N746 C749 1.350 . S
N747 S745 1.610 . S
N747 C748 1.351 . S
C748 C742 1.428 . S
C748 N747 1.351 . S
C748 C749 1.434 . S
C749 C740 1.429 . S
C749 N746 1.350 . S
C749 C748 1.434 . S
C750 C751 1.369 . S
C750 C752 1.419 . S
C750 H754 0.930 . S
C751 C750 1.369 . S
C751 C760 1.429 . S
C752 C750 1.419 . S
C752 C753 1.363 . S
C752 H755 0.929 . S
C753 C752 1.363 . S
C753 C759 1.428 . S
H754 C750 0.930 . S
H755 C752 0.929 . S
S756 N757 1.613 . S
S756 N758 1.610 . S
N757 S756 1.613 . S
N757 C760 1.350 . S
N758 S756 1.610 . S
N758 C759 1.351 . S
C759 C753 1.428 . S
C759 N758 1.351 . S
C759 C760 1.434 . S
C760 C751 1.429 . S
C760 N757 1.350 . S
C760 C759 1.434 . S
C761 C762 1.369 . S
C761 C763 1.419 . S
C761 H765 0.930 . S
C762 C761 1.369 . S
C762 C771 1.429 . S
C763 C761 1.419 . S
C763 C764 1.363 . S
C763 H766 0.929 . S
C764 C763 1.363 . S
C764 C770 1.428 . S
H765 C761 0.930 . S
H766 C763 0.929 . S
S767 N768 1.613 . S
S767 N769 1.610 . S
N768 S767 1.613 . S
N768 C771 1.350 . S
N769 S767 1.610 . S
N769 C770 1.351 . S
C770 C764 1.428 . S
C770 N769 1.351 . S
C770 C771 1.434 . S
C771 C762 1.429 . S
C771 N768 1.350 . S
C771 C770 1.434 . S
C772 C773 1.369 . S
C772 C774 1.419 . S
C772 H776 0.930 . S
C773 C772 1.369 . S
C773 C782 1.429 . S
C774 C772 1.419 . S
C774 C775 1.363 . S
C774 H777 0.929 . S
C775 C774 1.363 . S
C775 C781 1.428 . S
H776 C772 0.930 . S
H777 C774 0.929 . S
S778 N779 1.613 . S
S778 N780 1.610 . S
N779 S778 1.613 . S
N779 C782 1.350 . S
N780 S778 1.610 . S
N780 C781 1.351 . S
C781 C775 1.428 . S
C781 N780 1.351 . S
C781 C782 1.434 . S
C782 C773 1.429 . S
C782 N779 1.350 . S
C782 C781 1.434 . S
C783 C784 1.369 . S
C783 C785 1.419 . S
C783 H787 0.930 . S
C784 C783 1.369 . S
C784 C793 1.429 . S
C785 C783 1.419 . S
C785 C786 1.363 . S
C785 H788 0.929 . S
C786 C785 1.363 . S
C786 C792 1.428 . S
H787 C783 0.930 . S
H788 C785 0.929 . S
S789 N790 1.613 . S
S789 N791 1.610 . S
N790 S789 1.613 . S
N790 C793 1.350 . S
N791 S789 1.610 . S
N791 C792 1.351 . S
C792 C786 1.428 . S
C792 N791 1.351 . S
C792 C793 1.434 . S
C793 C784 1.429 . S
C793 N790 1.350 . S
C793 C792 1.434 . S
C794 C795 1.369 . S
C794 C796 1.419 . S
C794 H798 0.930 . S
C795 C794 1.369 . S
C795 C804 1.429 . S
C796 C794 1.419 . S
C796 C797 1.363 . S
C796 H799 0.929 . S
C797 C796 1.363 . S
C797 C803 1.428 . S
H798 C794 0.930 . S
H799 C796 0.929 . S
S800 N801 1.613 . S
S800 N802 1.610 . S
N801 S800 1.613 . S
N801 C804 1.350 . S
N802 S800 1.610 . S
N802 C803 1.351 . S
C803 C797 1.428 . S
C803 N802 1.351 . S
C803 C804 1.434 . S
C804 C795 1.429 . S
C804 N801 1.350 . S
C804 C803 1.434 . S
C805 C806 1.369 . S
C805 C807 1.419 . S
C805 H809 0.930 . S
C806 C805 1.369 . S
C806 C815 1.429 . S
C807 C805 1.419 . S
C807 C808 1.363 . S
C807 H810 0.929 . S
C808 C807 1.363 . S
C808 C814 1.428 . S
H809 C805 0.930 . S
H810 C807 0.929 . S
S811 N812 1.613 . S
S811 N813 1.610 . S
N812 S811 1.613 . S
N812 C815 1.350 . S
N813 S811 1.610 . S
N813 C814 1.351 . S
C814 C808 1.428 . S
C814 N813 1.351 . S
C814 C815 1.434 . S
C815 C806 1.429 . S
C815 N812 1.350 . S
C815 C814 1.434 . S
C816 C817 1.369 . S
C816 C818 1.419 . S
C816 H820 0.930 . S
C817 C816 1.369 . S
C817 C826 1.429 . S
C818 C816 1.419 . S
C818 C819 1.363 . S
C818 H821 0.929 . S
C819 C818 1.363 . S
C819 C825 1.428 . S
H820 C816 0.930 . S
H821 C818 0.929 . S
S822 N823 1.613 . S
S822 N824 1.610 . S
N823 S822 1.613 . S
N823 C826 1.350 . S
N824 S822 1.610 . S
N824 C825 1.351 . S
C825 C819 1.428 . S
C825 N824 1.351 . S
C825 C826 1.434 . S
C826 C817 1.429 . S
C826 N823 1.350 . S
C826 C825 1.434 . S
C827 C828 1.369 . S
C827 C829 1.419 . S
C827 H831 0.930 . S
C828 C827 1.369 . S
C828 C837 1.429 . S
C829 C827 1.419 . S
C829 C830 1.363 . S
C829 H832 0.929 . S
C830 C829 1.363 . S
C830 C836 1.428 . S
H831 C827 0.930 . S
H832 C829 0.929 . S
S833 N834 1.613 . S
S833 N835 1.610 . S
N834 S833 1.613 . S
N834 C837 1.350 . S
N835 S833 1.610 . S
N835 C836 1.351 . S
C836 C830 1.428 . S
C836 N835 1.351 . S
C836 C837 1.434 . S
C837 C828 1.429 . S
C837 N834 1.350 . S
C837 C836 1.434 . S
C838 C839 1.369 . S
C838 C840 1.419 . S
C838 H842 0.930 . S
C839 C838 1.369 . S
C839 C848 1.429 . S
C840 C838 1.419 . S
C840 C841 1.363 . S
C840 H843 0.929 . S
C841 C840 1.363 . S
C841 C847 1.428 . S
H842 C838 0.930 . S
H843 C840 0.929 . S
S844 N845 1.613 . S
S844 N846 1.610 . S
N845 S844 1.613 . S
N845 C848 1.350 . S
N846 S844 1.610 . S
N846 C847 1.351 . S
C847 C841 1.428 . S
C847 N846 1.351 . S
C847 C848 1.434 . S
C848 C839 1.429 . S
C848 N845 1.350 . S
C848 C847 1.434 . S
C849 C850 1.369 . S
C849 C851 1.419 . S
C849 H853 0.930 . S
C850 C849 1.369 . S
C850 C859 1.429 . S
C851 C849 1.419 . S
C851 C852 1.363 . S
C851 H854 0.929 . S
C852 C851 1.363 . S
C852 C858 1.428 . S
H853 C849 0.930 . S
H854 C851 0.929 . S
S855 N856 1.613 . S
S855 N857 1.610 . S
N856 S855 1.613 . S
N856 C859 1.350 . S
N857 S855 1.610 . S
N857 C858 1.351 . S
C858 C852 1.428 . S
C858 N857 1.351 . S
C858 C859 1.434 . S
C859 C850 1.429 . S
C859 N856 1.350 . S
C859 C858 1.434 . S
C860 C861 1.369 . S
C860 C862 1.419 . S
C860 H864 0.930 . S
C861 C860 1.369 . S
C861 C870 1.429 . S
C862 C860 1.419 . S
C862 C863 1.363 . S
C862 H865 0.929 . S
C863 C862 1.363 . S
C863 C869 1.428 . S
H864 C860 0.930 . S
H865 C862 0.929 . S
S866 N867 1.613 . S
S866 N868 1.610 . S
N867 S866 1.613 . S
N867 C870 1.350 . S
N868 S866 1.610 . S
N868 C869 1.351 . S
C869 C863 1.428 . S
C869 N868 1.351 . S
C869 C870 1.434 . S
C870 C861 1.429 . S
C870 N867 1.350 . S
C870 C869 1.434 . S
C871 C872 1.369 . S
C871 C873 1.419 . S
C871 H875 0.930 . S
C872 C871 1.369 . S
C872 C881 1.429 . S
C873 C871 1.419 . S
C873 C874 1.363 . S
C873 H876 0.929 . S
C874 C873 1.363 . S
C874 C880 1.428 . S
H875 C871 0.930 . S
H876 C873 0.929 . S
S877 N878 1.613 . S
S877 N879 1.610 . S
N878 S877 1.613 . S
N878 C881 1.350 . S
N879 S877 1.610 . S
N879 C880 1.351 . S
C880 C874 1.428 . S
C880 N879 1.351 . S
C880 C881 1.434 . S
C881 C872 1.429 . S
C881 N878 1.350 . S
C881 C880 1.434 . S
C882 C883 1.369 . S
C882 C884 1.419 . S
C882 H886 0.930 . S
C883 C882 1.369 . S
C883 C892 1.429 . S
C884 C882 1.419 . S
C884 C885 1.363 . S
C884 H887 0.929 . S
C885 C884 1.363 . S
C885 C891 1.428 . S
H886 C882 0.930 . S
H887 C884 0.929 . S
S888 N889 1.613 . S
S888 N890 1.610 . S
N889 S888 1.613 . S
N889 C892 1.350 . S
N890 S888 1.610 . S
N890 C891 1.351 . S
C891 C885 1.428 . S
C891 N890 1.351 . S
C891 C892 1.434 . S
C892 C883 1.429 . S
C892 N889 1.350 . S
C892 C891 1.434 . S
C893 C894 1.369 . S
C893 C895 1.419 . S
C893 H897 0.930 . S
C894 C893 1.369 . S
C894 C903 1.429 . S
C895 C893 1.419 . S
C895 C896 1.363 . S
C895 H898 0.929 . S
C896 C895 1.363 . S
C896 C902 1.428 . S
H897 C893 0.930 . S
H898 C895 0.929 . S
S899 N900 1.613 . S
S899 N901 1.610 . S
N900 S899 1.613 . S
N900 C903 1.350 . S
N901 S899 1.610 . S
N901 C902 1.351 . S
C902 C896 1.428 . S
C902 N901 1.351 . S
C902 C903 1.434 . S
C903 C894 1.429 . S
C903 N900 1.350 . S
C903 C902 1.434 . S
C904 C905 1.369 . S
C904 C906 1.419 . S
C904 H908 0.930 . S
C905 C904 1.369 . S
C905 C914 1.429 . S
C906 C904 1.419 . S
C906 C907 1.363 . S
C906 H909 0.929 . S
C907 C906 1.363 . S
C907 C913 1.428 . S
H908 C904 0.930 . S
H909 C906 0.929 . S
S910 N911 1.613 . S
S910 N912 1.610 . S
N911 S910 1.613 . S
N911 C914 1.350 . S
N912 S910 1.610 . S
N912 C913 1.351 . S
C913 C907 1.428 . S
C913 N912 1.351 . S
C913 C914 1.434 . S
C914 C905 1.429 . S
C914 N911 1.350 . S
C914 C913 1.434 . S
C915 C916 1.369 . S
C915 C917 1.419 . S
C915 H919 0.930 . S
C916 C915 1.369 . S
C916 C925 1.429 . S
C917 C915 1.419 . S
C917 C918 1.363 . S
C917 H920 0.929 . S
C918 C917 1.363 . S
C918 C924 1.428 . S
H919 C915 0.930 . S
H920 C917 0.929 . S
S921 N922 1.613 . S
S921 N923 1.610 . S
N922 S921 1.613 . S
N922 C925 1.350 . S
N923 S921 1.610 . S
N923 C924 1.351 . S
C924 C918 1.428 . S
C924 N923 1.351 . S
C924 C925 1.434 . S
C925 C916 1.429 . S
C925 N922 1.350 . S
C925 C924 1.434 . S
C926 C927 1.369 . S
C926 C928 1.419 . S
C926 H930 0.930 . S
C927 C926 1.369 . S
C927 C936 1.429 . S
C928 C926 1.419 . S
C928 C929 1.363 . S
C928 H931 0.929 . S
C929 C928 1.363 . S
C929 C935 1.428 . S
H930 C926 0.930 . S
H931 C928 0.929 . S
S932 N933 1.613 . S
S932 N934 1.610 . S
N933 S932 1.613 . S
N933 C936 1.350 . S
N934 S932 1.610 . S
N934 C935 1.351 . S
C935 C929 1.428 . S
C935 N934 1.351 . S
C935 C936 1.434 . S
C936 C927 1.429 . S
C936 N933 1.350 . S
C936 C935 1.434 . S
C937 C938 1.369 . S
C937 C939 1.419 . S
C937 H941 0.930 . S
C938 C937 1.369 . S
C938 C947 1.429 . S
C939 C937 1.419 . S
C939 C940 1.363 . S
C939 H942 0.929 . S
C940 C939 1.363 . S
C940 C946 1.428 . S
H941 C937 0.930 . S
H942 C939 0.929 . S
S943 N944 1.613 . S
S943 N945 1.610 . S
N944 S943 1.613 . S
N944 C947 1.350 . S
N945 S943 1.610 . S
N945 C946 1.351 . S
C946 C940 1.428 . S
C946 N945 1.351 . S
C946 C947 1.434 . S
C947 C938 1.429 . S
C947 N944 1.350 . S
C947 C946 1.434 . S
C948 C949 1.369 . S
C948 C950 1.419 . S
C948 H952 0.930 . S
C949 C948 1.369 . S
C949 C958 1.429 . S
C950 C948 1.419 . S
C950 C951 1.363 . S
C950 H953 0.929 . S
C951 C950 1.363 . S
C951 C957 1.428 . S
H952 C948 0.930 . S
H953 C950 0.929 . S
S954 N955 1.613 . S
S954 N956 1.610 . S
N955 S954 1.613 . S
N955 C958 1.350 . S
N956 S954 1.610 . S
N956 C957 1.351 . S
C957 C951 1.428 . S
C957 N956 1.351 . S
C957 C958 1.434 . S
C958 C949 1.429 . S
C958 N955 1.350 . S
C958 C957 1.434 . S
C959 C960 1.369 . S
C959 C961 1.419 . S
C959 H963 0.930 . S
C960 C959 1.369 . S
C960 C969 1.429 . S
C961 C959 1.419 . S
C961 C962 1.363 . S
C961 H964 0.929 . S
C962 C961 1.363 . S
C962 C968 1.428 . S
H963 C959 0.930 . S
H964 C961 0.929 . S
S965 N966 1.613 . S
S965 N967 1.610 . S
N966 S965 1.613 . S
N966 C969 1.350 . S
N967 S965 1.610 . S
N967 C968 1.351 . S
C968 C962 1.428 . S
C968 N967 1.351 . S
C968 C969 1.434 . S
C969 C960 1.429 . S
C969 N966 1.350 . S
C969 C968 1.434 . S
C970 C971 1.369 . S
C970 C972 1.419 . S
C970 H974 0.930 . S
C971 C970 1.369 . S
C971 C980 1.429 . S
C972 C970 1.419 . S
C972 C973 1.363 . S
C972 H975 0.929 . S
C973 C972 1.363 . S
C973 C979 1.428 . S
H974 C970 0.930 . S
H975 C972 0.929 . S
S976 N977 1.613 . S
S976 N978 1.610 . S
N977 S976 1.613 . S
N977 C980 1.350 . S
N978 S976 1.610 . S
N978 C979 1.351 . S
C979 C973 1.428 . S
C979 N978 1.351 . S
C979 C980 1.434 . S
C980 C971 1.429 . S
C980 N977 1.350 . S
C980 C979 1.434 . S
C981 C982 1.369 . S
C981 C983 1.419 . S
C981 H985 0.930 . S
C982 C981 1.369 . S
C982 C991 1.429 . S
C983 C981 1.419 . S
C983 C984 1.363 . S
C983 H986 0.929 . S
C984 C983 1.363 . S
C984 C990 1.428 . S
H985 C981 0.930 . S
H986 C983 0.929 . S
S987 N988 1.613 . S
S987 N989 1.610 . S
N988 S987 1.613 . S
N988 C991 1.350 . S
N989 S987 1.610 . S
N989 C990 1.351 . S
C990 C984 1.428 . S
C990 N989 1.351 . S
C990 C991 1.434 . S
C991 C982 1.429 . S
C991 N988 1.350 . S
C991 C990 1.434 . S
C467 C289 0.346 . S
C465 C4 0.486 . S
C478 C294 1.621 . S
C476 C63 1.597 . S
C489 C295 1.348 . S
C487 C72 1.278 . S
C498 C102 1.599 . S
C500 C299 1.635 . S
C509 C136 1.596 . S
C511 C302 1.623 . S
C522 C303 1.348 . S
C520 C183 1.268 . S
C531 C233 1.600 . S
C533 C280 1.634 . S
C542 C251 0.505 . S
C544 C296 0.351 . S
C555 C334 1.508 . S
C553 C29 1.536 . S
C564 C42 2.046 . S
C566 C360 1.948 . S
C577 C312 1.550 . S
C575 C97 1.571 . S
C588 C367 1.249 . S
C586 C115 1.313 . S
C597 C149 1.322 . S
C599 C321 1.307 . S
C610 C363 1.576 . S
C608 C187 1.586 . S
C619 C212 2.060 . S
C621 C327 1.968 . S
C630 C255 1.541 . S
C632 C358 1.519 . S
C641 C8 1.544 . S
C643 C366 1.512 . S
C652 C153 2.050 . S
C654 C353 1.944 . S
C665 C331 1.545 . S
C663 C170 1.574 . S
C676 C359 1.257 . S
C674 C208 1.311 . S
C685 C238 1.540 . S
C687 C326 1.511 . S
C696 C76 1.586 . S
C698 C344 1.569 . S
C709 C335 1.974 . S
C707 C119 2.058 . S
C718 C38 1.334 . S
C720 C328 1.290 . S
C729 C242 0.480 . S
C731 C390 0.494 . S
C740 C165 1.579 . S
C742 C385 1.494 . S
C753 C399 1.206 . S
C751 C174 1.259 . S
C764 C376 1.556 . S
C762 C204 1.575 . S
C773 C34 1.573 . S
C775 C392 1.498 . S
C786 C391 1.213 . S
C784 C81 1.244 . S
C795 C131 1.579 . S
C797 C395 1.548 . S
C806 C13 0.480 . S
C808 C398 0.515 . S
C817 C267 1.532 . S
C819 C424 1.496 . S
C830 C440 2.050 . S
C828 C144 2.075 . S
C839 C199 1.571 . S
C841 C422 1.567 . S
C850 C217 1.333 . S
C852 C455 1.295 . S
C863 C431 1.439 . S
C861 C47 1.343 . S
C872 C85 1.591 . S
C874 C449 1.510 . S
C885 C427 2.088 . S
C883 C110 2.066 . S
C896 C462 1.496 . S
C894 C17 1.555 . S
C907 C454 1.496 . S
C905 C246 1.558 . S
C916 C51 2.071 . S
C918 C459 2.052 . S
C927 C68 1.567 . S
C929 C430 1.567 . S
C940 C463 1.288 . S
C938 C106 1.339 . S
C949 C0 1.531 . S
C951 C417 1.491 . S
C960 C178 1.593 . S
C962 C456 1.503 . S
C973 C408 2.090 . S
C971 C221 2.072 . S
C984 C423 1.441 . S
C982 C140 1.331 . S
