# Generated by pormake.
# Topology rtl, (3,6)-cn, num edge types: 1
# Building blocks:
#     Node 0, Type 0, BuildingBlock: OLANEW_clean_sbu_2, # of connection points: 3
#     Node 1, Type 0, BuildingBlock: OLANEW_clean_sbu_2, # of connection points: 3
#     Node 2, Type 0, BuildingBlock: OLANEW_clean_sbu_2, # of connection points: 3
#     Node 3, Type 0, BuildingBlock: OLANEW_clean_sbu_2, # of connection points: 3
#     Node 4, Type 1, BuildingBlock: LEVNOQ01_clean_sbu_1, # of connection points: 6
#     Node 5, Type 1, BuildingBlock: LEVNOQ01_clean_sbu_1, # of connection points: 6
#     Edge 6, Type (0, 1), BuildingBlock: ZUJKAS_clean_linker_0, # of connection points: 2
#     Edge 7, Type (0, 1), BuildingBlock: ZUJKAS_clean_linker_0, # of connection points: 2
#     Edge 8, Type (0, 1), BuildingBlock: ZUJKAS_clean_linker_0, # of connection points: 2
#     Edge 9, Type (0, 1), BuildingBlock: ZUJKAS_clean_linker_0, # of connection points: 2
#     Edge 10, Type (0, 1), BuildingBlock: ZUJKAS_clean_linker_0, # of connection points: 2
#     Edge 11, Type (0, 1), BuildingBlock: ZUJKAS_clean_linker_0, # of connection points: 2
#     Edge 12, Type (0, 1), BuildingBlock: ZUJKAS_clean_linker_0, # of connection points: 2
#     Edge 13, Type (0, 1), BuildingBlock: ZUJKAS_clean_linker_0, # of connection points: 2
#     Edge 14, Type (0, 1), BuildingBlock: ZUJKAS_clean_linker_0, # of connection points: 2
#     Edge 15, Type (0, 1), BuildingBlock: ZUJKAS_clean_linker_0, # of connection points: 2
#     Edge 16, Type (0, 1), BuildingBlock: ZUJKAS_clean_linker_0, # of connection points: 2
#     Edge 17, Type (0, 1), BuildingBlock: ZUJKAS_clean_linker_0, # of connection points: 2
# Relax obj value: 0.015
# Max RMSD: 0.123
# Mean RMSD: 0.078
data_MOF--net-rtl--node1-OLANEW_clean_sbu_2--node2-LEVNOQ01_clean_sbu_1--edge1-ZUJKAS_clean_linker_0
_symmetry_space_group_name_H-M    P1
_symmetry_Int_Tables_number       1
_symmetry_cell_setting            triclinic
loop_
_symmetry_equiv_pos_as_xyz
'x, y, z'
_cell_length_a     47.469974
_cell_length_b     47.872162
_cell_length_c     30.835883
_cell_angle_alpha  87.401641
_cell_angle_beta   99.908116
_cell_angle_gamma 89.882637
loop_
_atom_site_label
_atom_site_type_symbol
_atom_site_fract_x
_atom_site_fract_y
_atom_site_fract_z
_atom_type_partial_charge
O0 O 0.20256 0.84091 0.0323 0.0
Cd1 Cd 0.23041 0.82797 0.10513 0.0
O2 O 0.21111 0.8857 0.04071 0.0
Cd3 Cd 0.23277 0.88033 0.10882 0.0
O4 O 0.22438 0.8854 0.17522 0.0
C5 C 0.19977 0.87704 0.18052 0.0
O6 O 0.18367 0.86486 0.14787 0.0
C7 C 0.19963 0.86616 0.01737 0.0
C8 C 0.26734 0.78239 0.10588 0.0
O9 O 0.24182 0.77892 0.11343 0.0
O10 O 0.27525 0.80736 0.09751 0.0
O11 O 0.68728 0.71974 0.65264 0.0
Cd12 Cd 0.70095 0.74409 0.58841 0.0
O13 O 0.69565 0.6842 0.61505 0.0
Cd14 Cd 0.69059 0.64227 0.59095 0.0
O15 O 0.67071 0.62608 0.52853 0.0
C16 C 0.6559 0.64426 0.50301 0.0
O17 O 0.65388 0.66968 0.51669 0.0
C18 C 0.68725 0.69348 0.64864 0.0
C19 C 0.74796 0.77828 0.60862 0.0
O20 O 0.72246 0.78821 0.60401 0.0
O21 O 0.75119 0.75205 0.60408 0.0
O22 O 0.81332 0.20278 0.05824 0.0
Cd23 Cd 0.7912 0.21616 0.98236 0.0
O24 O 0.85269 0.22565 0.05197 0.0
Cd25 Cd 0.83973 0.23365 0.9813 0.0
O26 O 0.84254 0.21572 0.91854 0.0
C27 C 0.83997 0.18931 0.91794 0.0
O28 O 0.83384 0.17569 0.95305 0.0
C29 C 0.83813 0.21092 0.07525 0.0
C30 C 0.75036 0.25876 0.97627 0.0
O31 O 0.74282 0.23312 0.97342 0.0
O32 O 0.77713 0.26421 0.9824 0.0
O33 O 0.31395 0.32896 0.53907 0.0
Cd34 Cd 0.29177 0.31605 0.46494 0.0
O35 O 0.28569 0.3655 0.53817 0.0
Cd36 Cd 0.27155 0.36399 0.46718 0.0
O37 O 0.28229 0.37619 0.40291 0.0
C38 C 0.29706 0.3983 0.40266 0.0
O39 O 0.30329 0.41174 0.43926 0.0
C40 C 0.30528 0.34928 0.55869 0.0
C41 C 0.24632 0.27919 0.4668 0.0
O42 O 0.27199 0.27018 0.46881 0.0
O43 O 0.24208 0.30571 0.46388 0.0
O44 O 0.01155 0.03412 0.64676 0.0
Mg45 Mg 0.04101 0.02682 0.60266 0.0
O46 O 0.97772 0.03934 0.5889 0.0
Mg47 Mg 0.00206 0.01647 0.54255 0.0
O48 O 0.03924 0.05158 0.54689 0.0
O49 O 0.0697 0.05748 0.61007 0.0
O50 O 0.02731 0.99302 0.49597 0.0
O51 O 0.98106 0.04888 0.48623 0.0
Mg52 Mg 0.96021 0.98794 0.46729 0.0
O53 O 0.9644 0.9856 0.5342 0.0
O54 O 0.99658 0.971 0.44701 0.0
O55 O 0.94605 0.02786 0.4429 0.0
O56 O 0.93139 0.96201 0.49018 0.0
C57 C 0.04502 0.97303 0.61203 0.0
C58 C 0.98618 0.04139 0.63003 0.0
C59 C 0.06041 0.06493 0.56947 0.0
C60 C 0.02207 0.97698 0.46356 0.0
C61 C 0.95974 0.04968 0.45459 0.0
C62 C 0.94323 0.96827 0.52933 0.0
O63 O 0.06448 0.98935 0.60473 0.0
O64 O 0.01925 0.98123 0.59941 0.0
O65 O 0.5267 0.5072 0.11069 0.0
Mg66 Mg 0.51261 0.47872 0.06199 0.0
O67 O 0.51873 0.54172 0.06067 0.0
Mg68 Mg 0.49243 0.51748 0.00331 0.0
O69 O 0.52793 0.48109 0.00393 0.0
O70 O 0.54554 0.45276 0.06286 0.0
O71 O 0.46579 0.49201 0.94661 0.0
O72 O 0.52136 0.5393 0.95671 0.0
Mg73 Mg 0.45719 0.55419 0.93391 0.0
O74 O 0.46031 0.55535 0.00088 0.0
O75 O 0.43472 0.52043 0.9049 0.0
O76 O 0.49355 0.5682 0.91013 0.0
O77 O 0.43303 0.58475 0.952 0.0
C78 C 0.45718 0.47316 0.06537 0.0
C79 C 0.52855 0.5328 0.09988 0.0
C80 C 0.54581 0.46163 0.0229 0.0
C81 C 0.44468 0.49606 0.91512 0.0
C82 C 0.51802 0.55787 0.92509 0.0
C83 C 0.44227 0.57628 0.99226 0.0
O84 O 0.47647 0.45499 0.06633 0.0
O85 O 0.46102 0.49769 0.04948 0.0
H86 H 0.24908 0.22216 0.47494 0.0
H87 H 0.21008 0.18971 0.47996 0.0
H88 H 0.15037 0.25886 0.46687 0.0
H89 H 0.18948 0.29163 0.46251 0.0
H90 H 0.14414 0.22294 0.53458 0.0
H91 H 0.1466 0.16301 0.38636 0.0
H92 H 0.1813 0.16423 0.42014 0.0
H93 H 0.16446 0.19609 0.3949 0.0
C94 C 0.22763 0.23051 0.47271 0.0
C95 C 0.2224 0.2595 0.46823 0.0
C96 C 0.20528 0.21188 0.47517 0.0
C97 C 0.17717 0.22179 0.47279 0.0
C98 C 0.17184 0.25073 0.46826 0.0
H99 H 0.04392 0.09331 0.48876 0.0
H100 H 0.06751 0.13421 0.45976 0.0
C101 C 0.19422 0.26942 0.46585 0.0
C102 C 0.15395 0.20194 0.47857 0.0
H103 H 0.12489 0.13988 0.44379 0.0
C104 C 0.13952 0.2051 0.51415 0.0
C105 C 0.14742 0.17893 0.45144 0.0
C106 C 0.16055 0.17551 0.41078 0.0
C107 C 0.12035 0.18482 0.52523 0.0
C108 C 0.11587 0.16052 0.50054 0.0
C109 C 0.12861 0.15835 0.46302 0.0
C110 C 0.10118 0.13584 0.51665 0.0
C111 C 0.10578 0.18916 0.56424 0.0
C112 C 0.11273 0.12288 0.55745 0.0
C113 C 0.09949 0.09982 0.5739 0.0
C114 C 0.0744 0.08885 0.54979 0.0
C115 C 0.06315 0.10132 0.50818 0.0
C116 C 0.07654 0.12467 0.49165 0.0
H117 H 0.10364 0.21176 0.56995 0.0
H118 H 0.08421 0.17965 0.55959 0.0
H119 H 0.11887 0.17921 0.59427 0.0
H120 H 0.13216 0.13064 0.57673 0.0
H121 H 0.10906 0.09061 0.60577 0.0
H122 H 0.25864 0.72768 0.12961 0.0
H123 H 0.29131 0.68794 0.13045 0.0
H124 H 0.35295 0.74271 0.08414 0.0
H125 H 0.32078 0.78254 0.08416 0.0
H126 H 0.31123 0.66725 0.06203 0.0
H127 H 0.40311 0.6998 0.18397 0.0
H128 H 0.36838 0.71647 0.17766 0.0
H129 H 0.39295 0.72643 0.14133 0.0
C130 C 0.27927 0.7313 0.11998 0.0
C131 C 0.28714 0.7583 0.10693 0.0
C132 C 0.29794 0.70857 0.12059 0.0
C133 C 0.32486 0.7124 0.10831 0.0
C134 C 0.33269 0.73933 0.09509 0.0
H135 H 0.44902 0.63122 0.00298 0.0
H136 H 0.42199 0.66075 0.04396 0.0
C137 C 0.31412 0.76207 0.09468 0.0
C138 C 0.3439 0.68807 0.10586 0.0
H139 H 0.41326 0.66546 0.13325 0.0
C140 C 0.33337 0.66647 0.07844 0.0
C141 C 0.37274 0.687 0.1275 0.0
C142 C 0.38486 0.70854 0.15963 0.0
C143 C 0.35138 0.64496 0.0695 0.0
C144 C 0.38064 0.64482 0.08907 0.0
C145 C 0.39081 0.66555 0.11842 0.0
C146 C 0.40156 0.62625 0.07367 0.0
C147 C 0.33939 0.62364 0.0368 0.0
C148 C 0.40028 0.59695 0.07876 0.0
C149 C 0.41605 0.57995 0.05551 0.0
C150 C 0.4331 0.59221 0.02707 0.0
C151 C 0.43612 0.62136 0.02503 0.0
C152 C 0.42066 0.63823 0.04835 0.0
H153 H 0.31718 0.62888 0.02036 0.0
H154 H 0.35299 0.62201 0.01108 0.0
H155 H 0.33921 0.60283 0.0541 0.0
H156 H 0.38584 0.58731 0.09851 0.0
H157 H 0.41309 0.55753 0.05694 0.0
H158 H 0.74861 0.83498 0.59753 0.0
H159 H 0.7902 0.8654 0.60757 0.0
H160 H 0.84512 0.79407 0.65158 0.0
H161 H 0.8036 0.76329 0.63982 0.0
H162 H 0.83003 0.87693 0.6783 0.0
H163 H 0.88178 0.82623 0.55266 0.0
H164 H 0.84561 0.8186 0.55952 0.0
H165 H 0.87522 0.80371 0.5979 0.0
C166 C 0.76953 0.82577 0.60951 0.0
C167 C 0.77292 0.79675 0.61754 0.0
C168 C 0.79327 0.84318 0.61535 0.0
C169 C 0.82083 0.83197 0.62973 0.0
C170 C 0.82416 0.8031 0.63946 0.0
H171 H 0.97003 0.93078 0.59199 0.0
H172 H 0.94524 0.89693 0.63425 0.0
C173 C 0.80042 0.78557 0.63292 0.0
C174 C 0.84584 0.8507 0.6326 0.0
H175 H 0.90343 0.86611 0.58354 0.0
C176 C 0.84638 0.87433 0.65814 0.0
C177 C 0.86733 0.84717 0.60659 0.0
C178 C 0.86748 0.82271 0.57734 0.0
C179 C 0.86676 0.89533 0.6563 0.0
C180 C 0.88707 0.89263 0.6282 0.0
C181 C 0.88792 0.86803 0.60532 0.0
C182 C 0.90366 0.91676 0.615 0.0
C183 C 0.86559 0.9208 0.68297 0.0
C184 C 0.88873 0.93967 0.59179 0.0
C185 C 0.90275 0.9587 0.56763 0.0
C186 C 0.93196 0.95532 0.56665 0.0
C187 C 0.94758 0.93404 0.59314 0.0
C188 C 0.93341 0.91466 0.61699 0.0
H189 H 0.8568 0.91559 0.71346 0.0
H190 H 0.88709 0.9301 0.69212 0.0
H191 H 0.85122 0.93672 0.66315 0.0
H192 H 0.86571 0.94137 0.58885 0.0
H193 H 0.89027 0.97467 0.54666 0.0
H194 H 0.69517 0.25827 0.93309 0.0
H195 H 0.6599 0.29639 0.9246 0.0
H196 H 0.72118 0.34775 0.00404 0.0
H197 H 0.75692 0.31032 0.01035 0.0
H198 H 0.63537 0.32005 0.98117 0.0
H199 H 0.69486 0.40292 0.90645 0.0
H200 H 0.70696 0.36698 0.91234 0.0
H201 H 0.71504 0.38977 0.95778 0.0
C202 C 0.70114 0.27782 0.94838 0.0
C203 C 0.72883 0.28147 0.97204 0.0
C204 C 0.681 0.29961 0.94345 0.0
C205 C 0.68804 0.32532 0.96263 0.0
C206 C 0.71551 0.32864 0.98733 0.0
H207 H 0.60187 0.45595 0.05478 0.0
H208 H 0.63579 0.425 0.02897 0.0
C209 C 0.73585 0.3071 0.99137 0.0
C210 C 0.66613 0.34797 0.95922 0.0
H211 H 0.65565 0.4185 0.94056 0.0
C212 C 0.6396 0.34144 0.97128 0.0
C213 C 0.6715 0.37597 0.94612 0.0
C214 C 0.69854 0.38423 0.92949 0.0
C215 C 0.61901 0.36226 0.97289 0.0
C216 C 0.62507 0.39037 0.96217 0.0
C217 C 0.65108 0.39687 0.94857 0.0
C218 C 0.60637 0.41339 0.97115 0.0
C219 C 0.59149 0.35432 0.98835 0.0
C220 C 0.57901 0.41812 0.94592 0.0
C221 C 0.55962 0.43622 0.96037 0.0
C222 C 0.56743 0.44936 0.00039 0.0
C223 C 0.59545 0.44607 0.02372 0.0
C224 C 0.61482 0.42841 0.00906 0.0
H225 H 0.59103 0.33182 0.99873 0.0
H226 H 0.58841 0.36701 0.01647 0.0
H227 H 0.57319 0.35881 0.96126 0.0
H228 H 0.57219 0.40666 0.9165 0.0
H229 H 0.53799 0.43823 0.9422 0.0
H230 H 0.1469 0.86444 0.19828 0.0
H231 H 0.12493 0.88022 0.25881 0.0
H232 H 0.20335 0.92064 0.31332 0.0
H233 H 0.2255 0.90534 0.25208 0.0
H234 H 0.13934 0.87212 0.35005 0.0
H235 H 0.14438 0.98453 0.29698 0.0
H236 H 0.15092 0.95672 0.2623 0.0
H237 H 0.17779 0.96565 0.30788 0.0
C238 C 0.15963 0.87649 0.22327 0.0
C239 C 0.18787 0.88389 0.22009 0.0
C240 C 0.14702 0.88545 0.25791 0.0
C241 C 0.16235 0.90199 0.29011 0.0
C242 C 0.19098 0.90836 0.28829 0.0
H243 H 0.07973 0.98772 0.48373 0.0
H244 H 0.11798 0.96873 0.44876 0.0
C245 C 0.20365 0.89945 0.25345 0.0
C246 C 0.1476 0.91328 0.32425 0.0
H247 H 0.1207 0.97375 0.35633 0.0
C248 C 0.13561 0.89437 0.35189 0.0
C249 C 0.14281 0.94234 0.32661 0.0
C250 C 0.15443 0.96357 0.29673 0.0
C251 C 0.11808 0.90365 0.38068 0.0
C252 C 0.11219 0.93256 0.38149 0.0
C253 C 0.12537 0.95161 0.35564 0.0
C254 C 0.08977 0.94309 0.40466 0.0
C255 C 0.10538 0.88237 0.40915 0.0
C256 C 0.06135 0.93517 0.39105 0.0
C257 C 0.03959 0.94598 0.41063 0.0
C258 C 0.04572 0.96512 0.44423 0.0
C259 C 0.0743 0.97298 0.45804 0.0
C260 C 0.09615 0.96217 0.43816 0.0
H261 H 0.11849 0.86287 0.41498 0.0
H262 H 0.1034 0.89083 0.44144 0.0
H263 H 0.08369 0.87683 0.39218 0.0
H264 H 0.05589 0.92096 0.36459 0.0
H265 H 0.01787 0.93947 0.39899 0.0
H266 H 0.64682 0.7064 0.69717 0.0
H267 H 0.62539 0.67526 0.74732 0.0
H268 H 0.67896 0.60729 0.72163 0.0
H269 H 0.70082 0.63846 0.67153 0.0
H270 H 0.60082 0.61417 0.71471 0.0
H271 H 0.6831 0.61941 0.86669 0.0
H272 H 0.6772 0.64898 0.82756 0.0
H273 H 0.69313 0.6176 0.81293 0.0
C274 C 0.6542 0.68488 0.7024 0.0
C275 C 0.67518 0.67473 0.67996 0.0
C276 C 0.64193 0.66715 0.73097 0.0
C277 C 0.65068 0.6391 0.73804 0.0
C278 C 0.67198 0.62892 0.71642 0.0
H279 H 0.56814 0.52991 0.91966 0.0
H280 H 0.60436 0.54494 0.87507 0.0
C281 C 0.68419 0.64665 0.68753 0.0
C282 C 0.63636 0.6205 0.76674 0.0
H283 H 0.63874 0.59909 0.87446 0.0
C284 C 0.60933 0.61031 0.74944 0.0
C285 C 0.64773 0.61539 0.81183 0.0
C286 C 0.67692 0.6258 0.83123 0.0
C287 C 0.5926 0.5964 0.7767 0.0
C288 C 0.60302 0.59313 0.82249 0.0
C289 C 0.63084 0.60171 0.83936 0.0
C290 C 0.58362 0.58466 0.85337 0.0
C291 C 0.56332 0.58641 0.75664 0.0
C292 C 0.56081 0.60247 0.85706 0.0
C293 C 0.54031 0.59401 0.88199 0.0
C294 C 0.54227 0.5676 0.90422 0.0
C295 C 0.56611 0.55036 0.90283 0.0
C296 C 0.58671 0.55886 0.87736 0.0
H297 H 0.5618 0.58315 0.72086 0.0
H298 H 0.55799 0.56657 0.77335 0.0
H299 H 0.54711 0.60243 0.76052 0.0
H300 H 0.55839 0.62268 0.83943 0.0
H301 H 0.52245 0.60796 0.88297 0.0
H302 H 0.81253 0.18237 0.13672 0.0
H303 H 0.83562 0.162 0.20821 0.0
H304 H 0.91653 0.19566 0.18664 0.0
H305 H 0.89357 0.21669 0.11579 0.0
H306 H 0.87792 0.1227 0.21899 0.0
H307 H 0.91652 0.2155 0.31278 0.0
H308 H 0.89043 0.21814 0.26266 0.0
H309 H 0.92779 0.21403 0.26027 0.0
C310 C 0.83512 0.18592 0.14757 0.0
C311 C 0.85117 0.20123 0.12057 0.0
C312 C 0.84829 0.17424 0.1884 0.0
C313 C 0.87773 0.17762 0.20304 0.0
C314 C 0.89368 0.19338 0.1766 0.0
H315 H 0.99248 0.08682 0.41561 0.0
H316 H 0.97413 0.12178 0.35628 0.0
C317 C 0.8805 0.20526 0.13592 0.0
C318 C 0.89207 0.16252 0.24395 0.0
H319 H 0.93272 0.171 0.34532 0.0
C320 C 0.88977 0.13332 0.24665 0.0
C321 C 0.90794 0.17637 0.27974 0.0
C322 C 0.91067 0.20776 0.27901 0.0
C323 C 0.90267 0.11757 0.28419 0.0
C324 C 0.91793 0.13143 0.32038 0.0
C325 C 0.92088 0.16055 0.31751 0.0
C326 C 0.9297 0.11565 0.36186 0.0
C327 C 0.89991 0.08613 0.28481 0.0
C328 C 0.91089 0.10197 0.38591 0.0
C329 C 0.92122 0.08202 0.4191 0.0
C330 C 0.95058 0.07584 0.42937 0.0
C331 C 0.96977 0.0915 0.4084 0.0
C332 C 0.95932 0.11131 0.37452 0.0
H333 H 0.89388 0.07839 0.25107 0.0
H334 H 0.92023 0.07576 0.30086 0.0
H335 H 0.88298 0.07978 0.3039 0.0
H336 H 0.888 0.10535 0.37694 0.0
H337 H 0.90609 0.07017 0.43496 0.0
H338 H 0.35471 0.3262 0.60576 0.0
H339 H 0.381 0.34065 0.67653 0.0
H340 H 0.31495 0.40137 0.68371 0.0
H341 H 0.28856 0.38713 0.61321 0.0
H342 H 0.40093 0.39547 0.69141 0.0
H343 H 0.32917 0.363 0.80784 0.0
H344 H 0.32682 0.34869 0.75411 0.0
H345 H 0.31088 0.38217 0.75977 0.0
C346 C 0.3455 0.34225 0.6228 0.0
C347 C 0.31951 0.35551 0.60381 0.0
C348 C 0.36059 0.3505 0.66319 0.0
C349 C 0.34975 0.37181 0.6856 0.0
C350 C 0.32343 0.38449 0.66738 0.0
H351 H 0.39154 0.4946 0.86621 0.0
H352 H 0.37155 0.45903 0.81609 0.0
C353 C 0.30844 0.37643 0.62692 0.0
C354 C 0.36696 0.38278 0.72587 0.0
H355 H 0.36298 0.39912 0.83125 0.0
C356 C 0.39305 0.3957 0.72239 0.0
C357 C 0.3566 0.38298 0.76617 0.0
C358 C 0.32946 0.36822 0.77244 0.0
C359 C 0.40804 0.41054 0.75721 0.0
C360 C 0.39681 0.41208 0.79665 0.0
C361 C 0.37156 0.39783 0.80098 0.0
C362 C 0.40857 0.43165 0.83084 0.0
C363 C 0.43474 0.42605 0.75058 0.0
C364 C 0.43582 0.42767 0.85666 0.0
C365 C 0.44736 0.44804 0.88576 0.0
C366 C 0.43185 0.47272 0.88893 0.0
C367 C 0.40416 0.47597 0.8642 0.0
C368 C 0.39263 0.45561 0.83565 0.0
H369 H 0.43891 0.4251 0.71631 0.0
H370 H 0.43293 0.44833 0.7584 0.0
H371 H 0.45342 0.41679 0.77333 0.0
H372 H 0.44835 0.40915 0.85359 0.0
H373 H 0.46875 0.44498 0.90442 0.0
H374 H 0.6201 0.67765 0.44345 0.0
H375 H 0.59513 0.6657 0.37052 0.0
H376 H 0.63396 0.58355 0.38901 0.0
H377 H 0.65875 0.59512 0.4621 0.0
H378 H 0.61761 0.64717 0.29606 0.0
H379 H 0.54739 0.56863 0.35952 0.0
H380 H 0.56694 0.5941 0.39402 0.0
H381 H 0.5846 0.56295 0.38143 0.0
C382 C 0.62332 0.65701 0.43202 0.0
C383 C 0.6412 0.63721 0.4587 0.0
C384 C 0.60908 0.65029 0.39033 0.0
C385 C 0.61242 0.62366 0.37478 0.0
C386 C 0.63073 0.60407 0.40088 0.0
H387 H 0.57174 0.51931 0.16627 0.0
H388 H 0.5906 0.54691 0.22894 0.0
C389 C 0.64491 0.61072 0.44257 0.0
C390 C 0.59667 0.61598 0.33143 0.0
H391 H 0.55136 0.56682 0.28335 0.0
C392 C 0.60274 0.62992 0.29308 0.0
C393 C 0.57695 0.59379 0.32788 0.0
C394 C 0.56833 0.57917 0.36791 0.0
C395 C 0.59112 0.62079 0.2511 0.0
C396 C 0.57296 0.59738 0.24783 0.0
C397 C 0.56552 0.58466 0.28611 0.0
C398 C 0.56418 0.58329 0.20608 0.0
C399 C 0.59947 0.63512 0.21071 0.0
C400 C 0.54367 0.59503 0.17173 0.0
C401 C 0.53297 0.57926 0.13531 0.0
C402 C 0.54241 0.55155 0.13356 0.0
C403 C 0.56387 0.54052 0.16706 0.0
C404 C 0.5747 0.55626 0.20283 0.0
H405 H 0.61553 0.65173 0.21917 0.0
H406 H 0.60835 0.61959 0.19088 0.0
H407 H 0.58021 0.64474 0.18983 0.0
H408 H 0.53511 0.6158 0.17397 0.0
H409 H 0.51631 0.58813 0.10993 0.0
H410 H 0.85644 0.21064 0.84234 0.0
H411 H 0.87554 0.18463 0.78717 0.0
H412 H 0.86146 0.107 0.85643 0.0
H413 H 0.84186 0.1327 0.91114 0.0
H414 H 0.92338 0.15214 0.80623 0.0
H415 H 0.83239 0.08862 0.72949 0.0
H416 H 0.82779 0.1183 0.76181 0.0
H417 H 0.83905 0.08497 0.78856 0.0
C418 C 0.85685 0.188 0.84533 0.0
C419 C 0.84778 0.17375 0.88128 0.0
C420 C 0.8678 0.17318 0.8138 0.0
C421 C 0.86973 0.14387 0.81749 0.0
C422 C 0.85965 0.12956 0.85239 0.0
H423 H 0.99509 0.04339 0.71985 0.0
H424 H 0.96567 0.06723 0.76479 0.0
C425 C 0.84862 0.14434 0.88384 0.0
C426 C 0.88498 0.1285 0.78769 0.0
H427 H 0.87885 0.07489 0.71737 0.0
C428 C 0.91355 0.13541 0.78649 0.0
C429 C 0.87208 0.1068 0.7618 0.0
C430 C 0.84105 0.09938 0.76006 0.0
C431 C 0.92979 0.12089 0.76076 0.0
C432 C 0.91729 0.09841 0.73629 0.0
C433 C 0.8885 0.09188 0.73665 0.0
C434 C 0.93373 0.08181 0.70956 0.0
C435 C 0.96009 0.13005 0.75968 0.0
C436 C 0.92482 0.08096 0.66384 0.0
C437 C 0.9414 0.06705 0.63809 0.0
C438 C 0.96725 0.05378 0.65765 0.0
C439 C 0.97549 0.05371 0.70369 0.0
C440 C 0.95878 0.06744 0.72942 0.0
H441 H 0.96363 0.15189 0.76998 0.0
H442 H 0.97507 0.11627 0.78286 0.0
H443 H 0.96545 0.12855 0.7262 0.0
H444 H 0.90545 0.09176 0.6479 0.0
H445 H 0.93438 0.06741 0.60273 0.0
H446 H 0.32775 0.44544 0.39221 0.0
H447 H 0.34933 0.46042 0.32879 0.0
H448 H 0.31506 0.38807 0.26037 0.0
H449 H 0.29298 0.37305 0.32365 0.0
H450 H 0.38972 0.43114 0.29496 0.0
H451 H 0.29346 0.45162 0.1671 0.0
H452 H 0.2918 0.44807 0.22517 0.0
H453 H 0.29459 0.41754 0.19427 0.0
C454 C 0.32449 0.43283 0.36352 0.0
C455 C 0.30859 0.40805 0.36298 0.0
C456 C 0.33686 0.44145 0.32728 0.0
C457 C 0.33351 0.42557 0.28964 0.0
C458 C 0.3174 0.40096 0.28871 0.0
H459 H 0.43984 0.42192 0.09157 0.0
H460 H 0.40706 0.41161 0.14301 0.0
C461 C 0.30493 0.39232 0.325 0.0
C462 C 0.34855 0.43389 0.25276 0.0
H463 H 0.33845 0.45154 0.14241 0.0
C464 C 0.37847 0.43577 0.26169 0.0
C465 C 0.33382 0.44007 0.20941 0.0
C466 C 0.30162 0.4395 0.19834 0.0
C467 C 0.3941 0.44311 0.22831 0.0
C468 C 0.37945 0.44858 0.18484 0.0
C469 C 0.34953 0.44722 0.17585 0.0
C470 C 0.39538 0.4548 0.14843 0.0
C471 C 0.42626 0.44483 0.23951 0.0
C472 C 0.3988 0.48248 0.13336 0.0
C473 C 0.41759 0.48851 0.10384 0.0
C474 C 0.43323 0.4669 0.08922 0.0
C475 C 0.42828 0.43907 0.10241 0.0
C476 C 0.40954 0.4331 0.13176 0.0
H477 H 0.43404 0.44366 0.27566 0.0
H478 H 0.43601 0.42728 0.22478 0.0
H479 H 0.43377 0.46464 0.22538 0.0
H480 H 0.38804 0.49948 0.14608 0.0
H481 H 0.42106 0.51013 0.09451 0.0
H482 H 0.1769 0.91708 0.98731 0.0
H483 H 0.14545 0.92898 0.91781 0.0
H484 H 0.15012 0.84372 0.87958 0.0
H485 H 0.1808 0.83135 0.95024 0.0
H486 H 0.15597 0.92827 0.83835 0.0
H487 H 0.06547 0.85712 0.84988 0.0
H488 H 0.09332 0.86291 0.89625 0.0
H489 H 0.09899 0.83879 0.85539 0.0
C490 C 0.17121 0.90079 0.96422 0.0
C491 C 0.1814 0.87325 0.97427 0.0
C492 C 0.1531 0.90762 0.9245 0.0
C493 C 0.14496 0.88718 0.89366 0.0
C494 C 0.15539 0.8597 0.90333 0.0
H495 H 0.09072 0.9381 0.62049 0.0
H496 H 0.11257 0.91213 0.68804 0.0
C497 C 0.1732 0.85271 0.94351 0.0
C498 C 0.12709 0.8953 0.85044 0.0
H499 H 0.06595 0.88011 0.77946 0.0
C500 C 0.13626 0.91774 0.82566 0.0
C501 C 0.10106 0.88192 0.8341 0.0
C502 C 0.08894 0.85905 0.86049 0.0
C503 C 0.12041 0.92698 0.78496 0.0
C504 C 0.09521 0.91269 0.7675 0.0
C505 C 0.08563 0.89058 0.79249 0.0
C506 C 0.07846 0.92126 0.72377 0.0
C507 C 0.13055 0.95246 0.76154 0.0
C508 C 0.05087 0.93277 0.72028 0.0
C509 C 0.03798 0.94702 0.68117 0.0
C510 C 0.05276 0.95012 0.64551 0.0
C511 C 0.07897 0.93604 0.64762 0.0
C512 C 0.09156 0.92143 0.68629 0.0
H513 H 0.14531 0.96523 0.78448 0.0
H514 H 0.14229 0.9457 0.7356 0.0
H515 H 0.11225 0.96592 0.74561 0.0
H516 H 0.04033 0.93268 0.74877 0.0
H517 H 0.01785 0.95789 0.68047 0.0
loop_
_geom_bond_atom_site_label_1
_geom_bond_atom_site_label_2
_geom_bond_distance
_geom_bond_site_symmetry_2
_ccdc_geom_bond_type
O0 Cd1 2.300 . S
O0 C7 1.275 . S
Cd1 O0 2.300 . S
Cd1 O9 2.381 . S
Cd1 O10 2.378 . S
O2 Cd3 2.385 . S
O2 C7 1.255 . S
Cd3 O2 2.385 . S
Cd3 O4 2.317 . S
O4 Cd3 2.317 . S
O4 C5 1.232 . S
C5 O4 1.232 . S
C5 O6 1.218 . S
O6 C5 1.218 . S
C7 O0 1.275 . S
C7 O2 1.255 . S
C8 O9 1.258 . S
C8 O10 1.256 . S
O9 Cd1 2.381 . S
O9 C8 1.258 . S
O10 Cd1 2.378 . S
O10 C8 1.256 . S
O11 Cd12 2.300 . S
O11 C18 1.275 . S
Cd12 O11 2.300 . S
Cd12 O20 2.381 . S
Cd12 O21 2.378 . S
O13 Cd14 2.385 . S
O13 C18 1.255 . S
Cd14 O13 2.385 . S
Cd14 O15 2.317 . S
O15 Cd14 2.317 . S
O15 C16 1.232 . S
C16 O15 1.232 . S
C16 O17 1.218 . S
O17 C16 1.218 . S
C18 O11 1.275 . S
C18 O13 1.255 . S
C19 O20 1.258 . S
C19 O21 1.256 . S
O20 Cd12 2.381 . S
O20 C19 1.258 . S
O21 Cd12 2.378 . S
O21 C19 1.256 . S
O22 Cd23 2.300 . S
O22 C29 1.275 . S
Cd23 O22 2.300 . S
Cd23 O31 2.381 . S
Cd23 O32 2.378 1_554 S
O24 Cd25 2.385 1_554 S
O24 C29 1.255 . S
Cd25 O24 2.385 1_556 S
Cd25 O26 2.317 . S
O26 Cd25 2.317 . S
O26 C27 1.232 . S
C27 O26 1.232 . S
C27 O28 1.218 . S
O28 C27 1.218 . S
C29 O22 1.275 . S
C29 O24 1.255 . S
C30 O31 1.258 . S
C30 O32 1.256 1_554 S
O31 Cd23 2.381 . S
O31 C30 1.258 . S
O32 Cd23 2.378 1_556 S
O32 C30 1.256 1_556 S
O33 Cd34 2.300 . S
O33 C40 1.275 . S
Cd34 O33 2.300 . S
Cd34 O42 2.381 . S
Cd34 O43 2.378 . S
O35 Cd36 2.385 . S
O35 C40 1.255 . S
Cd36 O35 2.385 . S
Cd36 O37 2.317 . S
O37 Cd36 2.317 . S
O37 C38 1.232 . S
C38 O37 1.232 . S
C38 O39 1.218 . S
O39 C38 1.218 . S
C40 O33 1.275 . S
C40 O35 1.255 . S
C41 O42 1.258 . S
C41 O43 1.256 . S
O42 Cd34 2.381 . S
O42 C41 1.258 . S
O43 Cd34 2.378 . S
O43 C41 1.256 . S
O44 Mg45 2.021 . S
O44 C58 1.231 1_455 S
Mg45 O44 2.021 . S
Mg45 O48 2.180 . S
Mg45 O49 2.117 . S
Mg45 O63 2.030 . S
O46 Mg47 2.072 1_655 S
O46 C58 1.260 . S
Mg47 O46 2.072 1_455 S
Mg47 O48 2.099 . S
Mg47 O50 2.079 1_545 S
Mg47 O51 2.072 1_455 S
Mg47 O53 2.099 1_445 S
Mg47 O64 2.079 1_545 S
O48 Mg45 2.180 . S
O48 Mg47 2.099 . S
O48 C59 1.279 . S
O49 Mg45 2.117 . S
O49 C59 1.250 . S
O50 Mg47 2.079 1_565 S
O50 C60 1.264 . S
O51 Mg47 2.072 1_655 S
O51 C61 1.260 . S
Mg52 O53 2.180 . S
Mg52 O54 2.030 1_655 S
Mg52 O55 1.990 1_565 S
Mg52 O56 2.117 . S
O53 Mg47 2.099 1_665 S
O53 Mg52 2.180 . S
O53 C62 1.279 . S
O54 Mg52 2.030 1_455 S
O54 C60 1.248 . S
O55 Mg52 1.990 1_545 S
O55 C61 1.253 . S
O56 Mg52 2.117 . S
O56 C62 1.250 . S
C57 O63 1.248 1_565 S
C57 O64 1.264 . S
C58 O44 1.231 1_655 S
C58 O46 1.260 . S
C59 O48 1.279 . S
C59 O49 1.250 . S
C60 O50 1.264 . S
C60 O54 1.248 . S
C61 O51 1.260 . S
C61 O55 1.253 . S
C62 O53 1.279 . S
C62 O56 1.250 . S
O63 Mg45 2.030 . S
O63 C57 1.248 1_545 S
O64 Mg47 2.079 1_565 S
O64 C57 1.264 . S
O65 Mg66 1.990 . S
O65 C79 1.253 . S
Mg66 O65 1.990 . S
Mg66 O69 2.180 . S
Mg66 O70 2.117 . S
Mg66 O84 2.030 . S
O67 Mg68 2.072 . S
O67 C79 1.260 . S
Mg68 O67 2.072 . S
Mg68 O69 2.099 . S
Mg68 O71 2.079 1_554 S
Mg68 O72 2.072 1_554 S
Mg68 O74 2.099 1_554 S
Mg68 O85 2.079 . S
O69 Mg66 2.180 . S
O69 Mg68 2.099 . S
O69 C80 1.279 . S
O70 Mg66 2.117 . S
O70 C80 1.250 . S
O71 Mg68 2.079 1_556 S
O71 C81 1.264 . S
O72 Mg68 2.072 1_556 S
O72 C82 1.260 . S
Mg73 O74 2.180 . S
Mg73 O75 2.030 . S
Mg73 O76 1.990 . S
Mg73 O77 2.117 . S
O74 Mg68 2.099 1_556 S
O74 Mg73 2.180 . S
O74 C83 1.279 1_556 S
O75 Mg73 2.030 . S
O75 C81 1.248 . S
O76 Mg73 1.990 . S
O76 C82 1.253 . S
O77 Mg73 2.117 . S
O77 C83 1.250 1_556 S
C78 O84 1.248 . S
C78 O85 1.264 . S
C79 O65 1.253 . S
C79 O67 1.260 . S
C80 O69 1.279 . S
C80 O70 1.250 . S
C81 O71 1.264 . S
C81 O75 1.248 . S
C82 O72 1.260 . S
C82 O76 1.253 . S
C83 O74 1.279 1_554 S
C83 O77 1.250 1_554 S
O84 Mg66 2.030 . S
O84 C78 1.248 . S
O85 Mg68 2.079 . S
O85 C78 1.264 . S
H86 C94 0.929 . S
H87 C96 0.930 . S
H88 C98 0.930 . S
H89 C101 0.929 . S
H90 C104 0.930 . S
H91 C106 0.960 . S
H92 C106 0.960 . S
H93 C106 0.960 . S
C94 H86 0.929 . S
C94 C95 1.377 . S
C94 C96 1.384 . S
C95 C94 1.377 . S
C95 C101 1.390 . S
C96 H87 0.930 . S
C96 C94 1.384 . S
C96 C97 1.372 . S
C97 C96 1.372 . S
C97 C98 1.400 . S
C97 C102 1.490 . S
C98 H88 0.930 . S
C98 C97 1.400 . S
C98 C101 1.386 . S
H99 C115 0.930 . S
H100 C116 0.931 . S
C101 H89 0.929 . S
C101 C95 1.390 . S
C101 C98 1.386 . S
C102 C97 1.490 . S
C102 C104 1.395 . S
C102 C105 1.403 . S
H103 C109 0.930 . S
C104 H90 0.930 . S
C104 C102 1.395 . S
C104 C107 1.403 . S
C105 C102 1.403 . S
C105 C106 1.524 . S
C105 C109 1.400 . S
C106 H91 0.960 . S
C106 H92 0.960 . S
C106 H93 0.960 . S
C106 C105 1.524 . S
C107 C104 1.403 . S
C107 C108 1.392 . S
C107 C111 1.495 . S
C108 C107 1.392 . S
C108 C109 1.385 . S
C108 C110 1.478 . S
C109 H103 0.930 . S
C109 C105 1.400 . S
C109 C108 1.385 . S
C110 C108 1.478 . S
C110 C112 1.381 . S
C110 C116 1.383 . S
C111 C107 1.495 . S
C111 H117 0.959 . S
C111 H118 0.961 . S
C111 H119 0.960 . S
C112 C110 1.381 . S
C112 C113 1.394 . S
C112 H120 0.930 . S
C113 C112 1.394 . S
C113 C114 1.383 . S
C113 H121 0.929 . S
C114 C113 1.383 . S
C114 C115 1.377 . S
C115 H99 0.930 . S
C115 C114 1.377 . S
C115 C116 1.379 . S
C116 H100 0.931 . S
C116 C110 1.383 . S
C116 C115 1.379 . S
H117 C111 0.959 . S
H118 C111 0.961 . S
H119 C111 0.960 . S
H120 C112 0.930 . S
H121 C113 0.929 . S
H122 C130 0.929 . S
H123 C132 0.930 . S
H124 C134 0.930 . S
H125 C137 0.929 . S
H126 C140 0.930 . S
H127 C142 0.960 . S
H128 C142 0.960 . S
H129 C142 0.960 . S
C130 H122 0.929 . S
C130 C131 1.377 . S
C130 C132 1.384 . S
C131 C130 1.377 . S
C131 C137 1.390 . S
C132 H123 0.930 . S
C132 C130 1.384 . S
C132 C133 1.372 . S
C133 C132 1.372 . S
C133 C134 1.400 . S
C133 C138 1.490 . S
C134 H124 0.930 . S
C134 C133 1.400 . S
C134 C137 1.386 . S
H135 C151 0.930 1_556 S
H136 C152 0.931 1_556 S
C137 H125 0.929 . S
C137 C131 1.390 . S
C137 C134 1.386 . S
C138 C133 1.490 . S
C138 C140 1.395 . S
C138 C141 1.403 . S
H139 C145 0.930 . S
C140 H126 0.930 . S
C140 C138 1.395 . S
C140 C143 1.403 . S
C141 C138 1.403 . S
C141 C142 1.524 . S
C141 C145 1.400 . S
C142 H127 0.960 . S
C142 H128 0.960 . S
C142 H129 0.960 . S
C142 C141 1.524 . S
C143 C140 1.403 . S
C143 C144 1.392 . S
C143 C147 1.495 . S
C144 C143 1.392 . S
C144 C145 1.385 . S
C144 C146 1.478 . S
C145 H139 0.930 . S
C145 C141 1.400 . S
C145 C144 1.385 . S
C146 C144 1.478 . S
C146 C148 1.381 . S
C146 C152 1.383 . S
C147 C143 1.495 . S
C147 H153 0.959 1_554 S
C147 H154 0.961 1_554 S
C147 H155 0.960 . S
C148 C146 1.381 . S
C148 C149 1.394 . S
C148 H156 0.930 . S
C149 C148 1.394 . S
C149 C150 1.383 . S
C149 H157 0.929 . S
C150 C149 1.383 . S
C150 C151 1.377 . S
C151 H135 0.930 1_554 S
C151 C150 1.377 . S
C151 C152 1.379 . S
C152 H136 0.931 1_554 S
C152 C146 1.383 . S
C152 C151 1.379 . S
H153 C147 0.959 1_556 S
H154 C147 0.961 1_556 S
H155 C147 0.960 . S
H156 C148 0.930 . S
H157 C149 0.929 . S
H158 C166 0.929 . S
H159 C168 0.930 . S
H160 C170 0.930 . S
H161 C173 0.929 . S
H162 C176 0.930 . S
H163 C178 0.960 . S
H164 C178 0.960 . S
H165 C178 0.960 . S
C166 H158 0.929 . S
C166 C167 1.377 . S
C166 C168 1.384 . S
C167 C166 1.377 . S
C167 C173 1.390 . S
C168 H159 0.930 . S
C168 C166 1.384 . S
C168 C169 1.372 . S
C169 C168 1.372 . S
C169 C170 1.400 . S
C169 C174 1.490 . S
C170 H160 0.930 . S
C170 C169 1.400 . S
C170 C173 1.386 . S
H171 C187 0.930 . S
H172 C188 0.931 . S
C173 H161 0.929 . S
C173 C167 1.390 . S
C173 C170 1.386 . S
C174 C169 1.490 . S
C174 C176 1.395 . S
C174 C177 1.403 . S
H175 C181 0.930 . S
C176 H162 0.930 . S
C176 C174 1.395 . S
C176 C179 1.403 . S
C177 C174 1.403 . S
C177 C178 1.524 . S
C177 C181 1.400 . S
C178 H163 0.960 . S
C178 H164 0.960 . S
C178 H165 0.960 . S
C178 C177 1.524 . S
C179 C176 1.403 . S
C179 C180 1.392 . S
C179 C183 1.495 . S
C180 C179 1.392 . S
C180 C181 1.385 . S
C180 C182 1.478 . S
C181 H175 0.930 . S
C181 C177 1.400 . S
C181 C180 1.385 . S
C182 C180 1.478 . S
C182 C184 1.381 . S
C182 C188 1.383 . S
C183 C179 1.495 . S
C183 H189 0.959 . S
C183 H190 0.961 . S
C183 H191 0.960 . S
C184 C182 1.381 . S
C184 C185 1.394 . S
C184 H192 0.930 . S
C185 C184 1.394 . S
C185 C186 1.383 . S
C185 H193 0.929 . S
C186 C185 1.383 . S
C186 C187 1.377 . S
C187 H171 0.930 . S
C187 C186 1.377 . S
C187 C188 1.379 . S
C188 H172 0.931 . S
C188 C182 1.383 . S
C188 C187 1.379 . S
H189 C183 0.959 . S
H190 C183 0.961 . S
H191 C183 0.960 . S
H192 C184 0.930 . S
H193 C185 0.929 . S
H194 C202 0.929 . S
H195 C204 0.930 . S
H196 C206 0.930 . S
H197 C209 0.929 . S
H198 C212 0.930 . S
H199 C214 0.960 . S
H200 C214 0.960 1_556 S
H201 C214 0.960 . S
C202 H194 0.929 . S
C202 C203 1.377 1_556 S
C202 C204 1.384 . S
C203 C202 1.377 1_554 S
C203 C209 1.390 . S
C204 H195 0.930 . S
C204 C202 1.384 . S
C204 C205 1.372 1_556 S
C205 C204 1.372 1_554 S
C205 C206 1.400 . S
C205 C210 1.490 . S
C206 H196 0.930 . S
C206 C205 1.400 . S
C206 C209 1.386 . S
H207 C223 0.930 . S
H208 C224 0.931 . S
C209 H197 0.929 . S
C209 C203 1.390 . S
C209 C206 1.386 . S
C210 C205 1.490 . S
C210 C212 1.395 . S
C210 C213 1.403 . S
H211 C217 0.930 . S
C212 H198 0.930 . S
C212 C210 1.395 . S
C212 C215 1.403 . S
C213 C210 1.403 . S
C213 C214 1.524 . S
C213 C217 1.400 . S
C214 H199 0.960 . S
C214 H200 0.960 1_554 S
C214 H201 0.960 . S
C214 C213 1.524 . S
C215 C212 1.403 . S
C215 C216 1.392 . S
C215 C219 1.494 . S
C216 C215 1.392 . S
C216 C217 1.385 . S
C216 C218 1.478 . S
C217 H211 0.930 . S
C217 C213 1.400 . S
C217 C216 1.385 . S
C218 C216 1.478 . S
C218 C220 1.381 1_554 S
C218 C224 1.383 . S
C219 C215 1.494 . S
C219 H225 0.956 1_554 S
C219 H226 0.983 . S
C219 H227 0.942 1_554 S
C220 C218 1.381 1_556 S
C220 C221 1.394 . S
C220 H228 0.930 . S
C221 C220 1.394 . S
C221 C222 1.383 1_556 S
C221 H229 0.929 . S
C222 C221 1.383 1_554 S
C222 C223 1.377 . S
C223 H207 0.930 . S
C223 C222 1.377 . S
C223 C224 1.379 . S
C224 H208 0.931 . S
C224 C218 1.383 . S
C224 C223 1.379 . S
H225 C219 0.956 1_556 S
H226 C219 0.983 . S
H227 C219 0.942 1_556 S
H228 C220 0.930 . S
H229 C221 0.929 . S
H230 C238 0.929 . S
H231 C240 0.930 . S
H232 C242 0.930 . S
H233 C245 0.929 . S
H234 C248 0.930 . S
H235 C250 0.960 . S
H236 C250 0.960 . S
H237 C250 0.960 . S
C238 H230 0.929 . S
C238 C239 1.377 . S
C238 C240 1.384 . S
C239 C238 1.377 . S
C239 C245 1.390 . S
C240 H231 0.930 . S
C240 C238 1.384 . S
C240 C241 1.372 . S
C241 C240 1.372 . S
C241 C242 1.400 . S
C241 C246 1.490 . S
C242 H232 0.930 . S
C242 C241 1.400 . S
C242 C245 1.386 . S
H243 C259 0.930 . S
H244 C260 0.931 . S
C245 H233 0.929 . S
C245 C239 1.390 . S
C245 C242 1.386 . S
C246 C241 1.490 . S
C246 C248 1.395 . S
C246 C249 1.403 . S
H247 C253 0.930 . S
C248 H234 0.930 . S
C248 C246 1.395 . S
C248 C251 1.403 . S
C249 C246 1.403 . S
C249 C250 1.524 . S
C249 C253 1.400 . S
C250 H235 0.960 . S
C250 H236 0.960 . S
C250 H237 0.960 . S
C250 C249 1.524 . S
C251 C248 1.403 . S
C251 C252 1.392 . S
C251 C255 1.495 . S
C252 C251 1.392 . S
C252 C253 1.385 . S
C252 C254 1.478 . S
C253 H247 0.930 . S
C253 C249 1.400 . S
C253 C252 1.385 . S
C254 C252 1.478 . S
C254 C256 1.381 . S
C254 C260 1.383 . S
C255 C251 1.495 . S
C255 H261 0.959 . S
C255 H262 0.961 . S
C255 H263 0.960 . S
C256 C254 1.381 . S
C256 C257 1.394 . S
C256 H264 0.930 . S
C257 C256 1.394 . S
C257 C258 1.383 . S
C257 H265 0.929 . S
C258 C257 1.383 . S
C258 C259 1.377 . S
C259 H243 0.930 . S
C259 C258 1.377 . S
C259 C260 1.379 . S
C260 H244 0.931 . S
C260 C254 1.383 . S
C260 C259 1.379 . S
H261 C255 0.959 . S
H262 C255 0.961 . S
H263 C255 0.960 . S
H264 C256 0.930 . S
H265 C257 0.929 . S
H266 C274 0.929 . S
H267 C276 0.930 . S
H268 C278 0.930 . S
H269 C281 0.929 . S
H270 C284 0.930 . S
H271 C286 0.960 . S
H272 C286 0.960 . S
H273 C286 0.960 . S
C274 H266 0.929 . S
C274 C275 1.377 . S
C274 C276 1.384 . S
C275 C274 1.377 . S
C275 C281 1.390 . S
C276 H267 0.930 . S
C276 C274 1.384 . S
C276 C277 1.372 . S
C277 C276 1.372 . S
C277 C278 1.400 . S
C277 C282 1.490 . S
C278 H268 0.930 . S
C278 C277 1.400 . S
C278 C281 1.386 . S
H279 C295 0.930 . S
H280 C296 0.931 . S
C281 H269 0.929 . S
C281 C275 1.390 . S
C281 C278 1.386 . S
C282 C277 1.490 . S
C282 C284 1.395 . S
C282 C285 1.403 . S
H283 C289 0.930 . S
C284 H270 0.930 . S
C284 C282 1.395 . S
C284 C287 1.403 . S
C285 C282 1.403 . S
C285 C286 1.524 . S
C285 C289 1.400 . S
C286 H271 0.960 . S
C286 H272 0.960 . S
C286 H273 0.960 . S
C286 C285 1.524 . S
C287 C284 1.403 . S
C287 C288 1.392 . S
C287 C291 1.495 . S
C288 C287 1.392 . S
C288 C289 1.385 . S
C288 C290 1.478 . S
C289 H283 0.930 . S
C289 C285 1.400 . S
C289 C288 1.385 . S
C290 C288 1.478 . S
C290 C292 1.381 . S
C290 C296 1.383 . S
C291 C287 1.495 . S
C291 H297 0.959 . S
C291 H298 0.961 . S
C291 H299 0.960 . S
C292 C290 1.381 . S
C292 C293 1.394 . S
C292 H300 0.930 . S
C293 C292 1.394 . S
C293 C294 1.383 . S
C293 H301 0.929 . S
C294 C293 1.383 . S
C294 C295 1.377 . S
C295 H279 0.930 . S
C295 C294 1.377 . S
C295 C296 1.379 . S
C296 H280 0.931 . S
C296 C290 1.383 . S
C296 C295 1.379 . S
H297 C291 0.959 . S
H298 C291 0.961 . S
H299 C291 0.960 . S
H300 C292 0.930 . S
H301 C293 0.929 . S
H302 C310 0.929 . S
H303 C312 0.930 . S
H304 C314 0.930 . S
H305 C317 0.929 . S
H306 C320 0.930 . S
H307 C322 0.960 . S
H308 C322 0.960 . S
H309 C322 0.960 . S
C310 H302 0.929 . S
C310 C311 1.377 . S
C310 C312 1.384 . S
C311 C310 1.377 . S
C311 C317 1.390 . S
C312 H303 0.930 . S
C312 C310 1.384 . S
C312 C313 1.372 . S
C313 C312 1.372 . S
C313 C314 1.400 . S
C313 C318 1.490 . S
C314 H304 0.930 . S
C314 C313 1.400 . S
C314 C317 1.386 . S
H315 C331 0.930 . S
H316 C332 0.931 . S
C317 H305 0.929 . S
C317 C311 1.390 . S
C317 C314 1.386 . S
C318 C313 1.490 . S
C318 C320 1.395 . S
C318 C321 1.403 . S
H319 C325 0.930 . S
C320 H306 0.930 . S
C320 C318 1.395 . S
C320 C323 1.403 . S
C321 C318 1.403 . S
C321 C322 1.524 . S
C321 C325 1.400 . S
C322 H307 0.960 . S
C322 H308 0.960 . S
C322 H309 0.960 . S
C322 C321 1.524 . S
C323 C320 1.403 . S
C323 C324 1.392 . S
C323 C327 1.495 . S
C324 C323 1.392 . S
C324 C325 1.385 . S
C324 C326 1.478 . S
C325 H319 0.930 . S
C325 C321 1.400 . S
C325 C324 1.385 . S
C326 C324 1.478 . S
C326 C328 1.381 . S
C326 C332 1.383 . S
C327 C323 1.495 . S
C327 H333 0.959 . S
C327 H334 0.961 . S
C327 H335 0.960 . S
C328 C326 1.381 . S
C328 C329 1.394 . S
C328 H336 0.930 . S
C329 C328 1.394 . S
C329 C330 1.383 . S
C329 H337 0.929 . S
C330 C329 1.383 . S
C330 C331 1.377 . S
C331 H315 0.930 . S
C331 C330 1.377 . S
C331 C332 1.379 . S
C332 H316 0.931 . S
C332 C326 1.383 . S
C332 C331 1.379 . S
H333 C327 0.959 . S
H334 C327 0.961 . S
H335 C327 0.960 . S
H336 C328 0.930 . S
H337 C329 0.929 . S
H338 C346 0.929 . S
H339 C348 0.930 . S
H340 C350 0.930 . S
H341 C353 0.929 . S
H342 C356 0.930 . S
H343 C358 0.960 . S
H344 C358 0.960 . S
H345 C358 0.960 . S
C346 H338 0.929 . S
C346 C347 1.377 . S
C346 C348 1.384 . S
C347 C346 1.377 . S
C347 C353 1.390 . S
C348 H339 0.930 . S
C348 C346 1.384 . S
C348 C349 1.372 . S
C349 C348 1.372 . S
C349 C350 1.400 . S
C349 C354 1.490 . S
C350 H340 0.930 . S
C350 C349 1.400 . S
C350 C353 1.386 . S
H351 C367 0.930 . S
H352 C368 0.931 . S
C353 H341 0.929 . S
C353 C347 1.390 . S
C353 C350 1.386 . S
C354 C349 1.490 . S
C354 C356 1.395 . S
C354 C357 1.403 . S
H355 C361 0.930 . S
C356 H342 0.930 . S
C356 C354 1.395 . S
C356 C359 1.403 . S
C357 C354 1.403 . S
C357 C358 1.524 . S
C357 C361 1.400 . S
C358 H343 0.960 . S
C358 H344 0.960 . S
C358 H345 0.960 . S
C358 C357 1.524 . S
C359 C356 1.403 . S
C359 C360 1.392 . S
C359 C363 1.495 . S
C360 C359 1.392 . S
C360 C361 1.385 . S
C360 C362 1.478 . S
C361 H355 0.930 . S
C361 C357 1.400 . S
C361 C360 1.385 . S
C362 C360 1.478 . S
C362 C364 1.381 . S
C362 C368 1.383 . S
C363 C359 1.495 . S
C363 H369 0.959 . S
C363 H370 0.961 . S
C363 H371 0.960 . S
C364 C362 1.381 . S
C364 C365 1.394 . S
C364 H372 0.930 . S
C365 C364 1.394 . S
C365 C366 1.383 . S
C365 H373 0.929 . S
C366 C365 1.383 . S
C366 C367 1.377 . S
C367 H351 0.930 . S
C367 C366 1.377 . S
C367 C368 1.379 . S
C368 H352 0.931 . S
C368 C362 1.383 . S
C368 C367 1.379 . S
H369 C363 0.959 . S
H370 C363 0.961 . S
H371 C363 0.960 . S
H372 C364 0.930 . S
H373 C365 0.929 . S
H374 C382 0.929 . S
H375 C384 0.930 . S
H376 C386 0.930 . S
H377 C389 0.929 . S
H378 C392 0.930 . S
H379 C394 0.960 . S
H380 C394 0.960 . S
H381 C394 0.960 . S
C382 H374 0.929 . S
C382 C383 1.377 . S
C382 C384 1.384 . S
C383 C382 1.377 . S
C383 C389 1.390 . S
C384 H375 0.930 . S
C384 C382 1.384 . S
C384 C385 1.372 . S
C385 C384 1.372 . S
C385 C386 1.400 . S
C385 C390 1.490 . S
C386 H376 0.930 . S
C386 C385 1.400 . S
C386 C389 1.386 . S
H387 C403 0.930 . S
H388 C404 0.931 . S
C389 H377 0.929 . S
C389 C383 1.390 . S
C389 C386 1.386 . S
C390 C385 1.490 . S
C390 C392 1.395 . S
C390 C393 1.403 . S
H391 C397 0.930 . S
C392 H378 0.930 . S
C392 C390 1.395 . S
C392 C395 1.403 . S
C393 C390 1.403 . S
C393 C394 1.524 . S
C393 C397 1.400 . S
C394 H379 0.960 . S
C394 H380 0.960 . S
C394 H381 0.960 . S
C394 C393 1.524 . S
C395 C392 1.403 . S
C395 C396 1.392 . S
C395 C399 1.495 . S
C396 C395 1.392 . S
C396 C397 1.385 . S
C396 C398 1.478 . S
C397 H391 0.930 . S
C397 C393 1.400 . S
C397 C396 1.385 . S
C398 C396 1.478 . S
C398 C400 1.381 . S
C398 C404 1.383 . S
C399 C395 1.495 . S
C399 H405 0.959 . S
C399 H406 0.961 . S
C399 H407 0.960 . S
C400 C398 1.381 . S
C400 C401 1.394 . S
C400 H408 0.930 . S
C401 C400 1.394 . S
C401 C402 1.383 . S
C401 H409 0.929 . S
C402 C401 1.383 . S
C402 C403 1.377 . S
C403 H387 0.930 . S
C403 C402 1.377 . S
C403 C404 1.379 . S
C404 H388 0.931 . S
C404 C398 1.383 . S
C404 C403 1.379 . S
H405 C399 0.959 . S
H406 C399 0.961 . S
H407 C399 0.960 . S
H408 C400 0.930 . S
H409 C401 0.929 . S
H410 C418 0.929 . S
H411 C420 0.930 . S
H412 C422 0.930 . S
H413 C425 0.929 . S
H414 C428 0.930 . S
H415 C430 0.960 . S
H416 C430 0.960 . S
H417 C430 0.960 . S
C418 H410 0.929 . S
C418 C419 1.377 . S
C418 C420 1.384 . S
C419 C418 1.377 . S
C419 C425 1.390 . S
C420 H411 0.930 . S
C420 C418 1.384 . S
C420 C421 1.372 . S
C421 C420 1.372 . S
C421 C422 1.400 . S
C421 C426 1.490 . S
C422 H412 0.930 . S
C422 C421 1.400 . S
C422 C425 1.386 . S
H423 C439 0.930 . S
H424 C440 0.931 . S
C425 H413 0.929 . S
C425 C419 1.390 . S
C425 C422 1.386 . S
C426 C421 1.490 . S
C426 C428 1.395 . S
C426 C429 1.403 . S
H427 C433 0.930 . S
C428 H414 0.930 . S
C428 C426 1.395 . S
C428 C431 1.403 . S
C429 C426 1.403 . S
C429 C430 1.524 . S
C429 C433 1.400 . S
C430 H415 0.960 . S
C430 H416 0.960 . S
C430 H417 0.960 . S
C430 C429 1.524 . S
C431 C428 1.403 . S
C431 C432 1.392 . S
C431 C435 1.495 . S
C432 C431 1.392 . S
C432 C433 1.385 . S
C432 C434 1.478 . S
C433 H427 0.930 . S
C433 C429 1.400 . S
C433 C432 1.385 . S
C434 C432 1.478 . S
C434 C436 1.381 . S
C434 C440 1.383 . S
C435 C431 1.495 . S
C435 H441 0.959 . S
C435 H442 0.961 . S
C435 H443 0.960 . S
C436 C434 1.381 . S
C436 C437 1.394 . S
C436 H444 0.930 . S
C437 C436 1.394 . S
C437 C438 1.383 . S
C437 H445 0.929 . S
C438 C437 1.383 . S
C438 C439 1.377 . S
C439 H423 0.930 . S
C439 C438 1.377 . S
C439 C440 1.379 . S
C440 H424 0.931 . S
C440 C434 1.383 . S
C440 C439 1.379 . S
H441 C435 0.959 . S
H442 C435 0.961 . S
H443 C435 0.960 . S
H444 C436 0.930 . S
H445 C437 0.929 . S
H446 C454 0.929 . S
H447 C456 0.930 . S
H448 C458 0.930 . S
H449 C461 0.929 . S
H450 C464 0.930 . S
H451 C466 0.960 . S
H452 C466 0.960 . S
H453 C466 0.960 . S
C454 H446 0.929 . S
C454 C455 1.377 . S
C454 C456 1.384 . S
C455 C454 1.377 . S
C455 C461 1.390 . S
C456 H447 0.930 . S
C456 C454 1.384 . S
C456 C457 1.372 . S
C457 C456 1.372 . S
C457 C458 1.400 . S
C457 C462 1.490 . S
C458 H448 0.930 . S
C458 C457 1.400 . S
C458 C461 1.386 . S
H459 C475 0.930 . S
H460 C476 0.931 . S
C461 H449 0.929 . S
C461 C455 1.390 . S
C461 C458 1.386 . S
C462 C457 1.490 . S
C462 C464 1.395 . S
C462 C465 1.403 . S
H463 C469 0.930 . S
C464 H450 0.930 . S
C464 C462 1.395 . S
C464 C467 1.403 . S
C465 C462 1.403 . S
C465 C466 1.524 . S
C465 C469 1.400 . S
C466 H451 0.960 . S
C466 H452 0.960 . S
C466 H453 0.960 . S
C466 C465 1.524 . S
C467 C464 1.403 . S
C467 C468 1.392 . S
C467 C471 1.495 . S
C468 C467 1.392 . S
C468 C469 1.385 . S
C468 C470 1.478 . S
C469 H463 0.930 . S
C469 C465 1.400 . S
C469 C468 1.385 . S
C470 C468 1.478 . S
C470 C472 1.381 . S
C470 C476 1.383 . S
C471 C467 1.495 . S
C471 H477 0.959 . S
C471 H478 0.961 . S
C471 H479 0.960 . S
C472 C470 1.381 . S
C472 C473 1.394 . S
C472 H480 0.930 . S
C473 C472 1.394 . S
C473 C474 1.383 . S
C473 H481 0.929 . S
C474 C473 1.383 . S
C474 C475 1.377 . S
C475 H459 0.930 . S
C475 C474 1.377 . S
C475 C476 1.379 . S
C476 H460 0.931 . S
C476 C470 1.383 . S
C476 C475 1.379 . S
H477 C471 0.959 . S
H478 C471 0.961 . S
H479 C471 0.960 . S
H480 C472 0.930 . S
H481 C473 0.929 . S
H482 C490 0.929 1_554 S
H483 C492 0.930 . S
H484 C494 0.930 . S
H485 C497 0.929 . S
H486 C500 0.930 . S
H487 C502 0.960 . S
H488 C502 0.960 . S
H489 C502 0.960 . S
C490 H482 0.929 1_556 S
C490 C491 1.377 . S
C490 C492 1.384 . S
C491 C490 1.377 . S
C491 C497 1.390 . S
C492 H483 0.930 . S
C492 C490 1.384 . S
C492 C493 1.372 . S
C493 C492 1.372 . S
C493 C494 1.400 . S
C493 C498 1.490 . S
C494 H484 0.930 . S
C494 C493 1.400 . S
C494 C497 1.386 . S
H495 C511 0.930 . S
H496 C512 0.931 . S
C497 H485 0.929 . S
C497 C491 1.390 . S
C497 C494 1.386 . S
C498 C493 1.490 . S
C498 C500 1.395 . S
C498 C501 1.403 . S
H499 C505 0.930 . S
C500 H486 0.930 . S
C500 C498 1.395 . S
C500 C503 1.403 . S
C501 C498 1.403 . S
C501 C502 1.524 . S
C501 C505 1.400 . S
C502 H487 0.960 . S
C502 H488 0.960 . S
C502 H489 0.960 . S
C502 C501 1.524 . S
C503 C500 1.403 . S
C503 C504 1.392 . S
C503 C507 1.495 . S
C504 C503 1.392 . S
C504 C505 1.385 . S
C504 C506 1.478 . S
C505 H499 0.930 . S
C505 C501 1.400 . S
C505 C504 1.385 . S
C506 C504 1.478 . S
C506 C508 1.381 . S
C506 C512 1.383 . S
C507 C503 1.495 . S
C507 H513 0.959 . S
C507 H514 0.961 . S
C507 H515 0.960 . S
C508 C506 1.381 . S
C508 C509 1.394 . S
C508 H516 0.930 . S
C509 C508 1.394 . S
C509 C510 1.383 . S
C509 H517 0.929 1_565 S
C510 C509 1.383 . S
C510 C511 1.377 . S
C511 H495 0.930 . S
C511 C510 1.377 . S
C511 C512 1.379 . S
C512 H496 0.931 . S
C512 C506 1.383 . S
C512 C511 1.379 . S
H513 C507 0.959 . S
H514 C507 0.961 . S
H515 C507 0.960 . S
H516 C508 0.930 . S
H517 C509 0.929 1_545 S
C114 C59 1.191 . S
C95 C41 1.425 . S
C131 C8 1.432 . S
C150 C83 1.248 . S
C167 C19 1.645 . S
C186 C62 1.459 . S
C203 C30 1.592 . S
C222 C80 1.367 . S
C258 C60 1.511 . S
C239 C5 1.382 . S
C294 C82 1.622 . S
C275 C18 1.670 . S
C311 C29 1.583 . S
C330 C61 1.547 . S
C347 C40 1.576 . S
C366 C81 1.544 . S
C402 C79 1.410 . S
C383 C16 1.277 . S
C438 C58 1.390 . S
C419 C27 1.293 . S
C474 C78 1.292 . S
C455 C38 1.197 . S
C491 C7 1.374 1_556 S
C510 C57 1.321 . S
