# Generated by pormake.
# Topology dag, (6,3)-cn, num edge types: 1
# Building blocks:
#     Node 0, Type 0, BuildingBlock: MIDCAF_clean_sbu_0, # of connection points: 6
#     Node 1, Type 0, BuildingBlock: MIDCAF_clean_sbu_0, # of connection points: 6
#     Node 2, Type 0, BuildingBlock: MIDCAF_clean_sbu_0, # of connection points: 6
#     Node 3, Type 0, BuildingBlock: MIDCAF_clean_sbu_0, # of connection points: 6
#     Node 4, Type 1, BuildingBlock: OLANEW_clean_sbu_2, # of connection points: 3
#     Node 5, Type 1, BuildingBlock: OLANEW_clean_sbu_2, # of connection points: 3
#     Node 6, Type 1, BuildingBlock: OLANEW_clean_sbu_2, # of connection points: 3
#     Node 7, Type 1, BuildingBlock: OLANEW_clean_sbu_2, # of connection points: 3
#     Node 8, Type 1, BuildingBlock: OLANEW_clean_sbu_2, # of connection points: 3
#     Node 9, Type 1, BuildingBlock: OLANEW_clean_sbu_2, # of connection points: 3
#     Node 10, Type 1, BuildingBlock: OLANEW_clean_sbu_2, # of connection points: 3
#     Node 11, Type 1, BuildingBlock: OLANEW_clean_sbu_2, # of connection points: 3
#     Edge 12, Type (0, 1), BuildingBlock: CIFDUS_clean_linker_0, # of connection points: 2
#     Edge 13, Type (0, 1), BuildingBlock: CIFDUS_clean_linker_0, # of connection points: 2
#     Edge 14, Type (0, 1), BuildingBlock: CIFDUS_clean_linker_0, # of connection points: 2
#     Edge 15, Type (0, 1), BuildingBlock: CIFDUS_clean_linker_0, # of connection points: 2
#     Edge 16, Type (0, 1), BuildingBlock: CIFDUS_clean_linker_0, # of connection points: 2
#     Edge 17, Type (0, 1), BuildingBlock: CIFDUS_clean_linker_0, # of connection points: 2
#     Edge 18, Type (0, 1), BuildingBlock: CIFDUS_clean_linker_0, # of connection points: 2
#     Edge 19, Type (0, 1), BuildingBlock: CIFDUS_clean_linker_0, # of connection points: 2
#     Edge 20, Type (0, 1), BuildingBlock: CIFDUS_clean_linker_0, # of connection points: 2
#     Edge 21, Type (0, 1), BuildingBlock: CIFDUS_clean_linker_0, # of connection points: 2
#     Edge 22, Type (0, 1), BuildingBlock: CIFDUS_clean_linker_0, # of connection points: 2
#     Edge 23, Type (0, 1), BuildingBlock: CIFDUS_clean_linker_0, # of connection points: 2
#     Edge 24, Type (0, 1), BuildingBlock: CIFDUS_clean_linker_0, # of connection points: 2
#     Edge 25, Type (0, 1), BuildingBlock: CIFDUS_clean_linker_0, # of connection points: 2
#     Edge 26, Type (0, 1), BuildingBlock: CIFDUS_clean_linker_0, # of connection points: 2
#     Edge 27, Type (0, 1), BuildingBlock: CIFDUS_clean_linker_0, # of connection points: 2
#     Edge 28, Type (0, 1), BuildingBlock: CIFDUS_clean_linker_0, # of connection points: 2
#     Edge 29, Type (0, 1), BuildingBlock: CIFDUS_clean_linker_0, # of connection points: 2
#     Edge 30, Type (0, 1), BuildingBlock: CIFDUS_clean_linker_0, # of connection points: 2
#     Edge 31, Type (0, 1), BuildingBlock: CIFDUS_clean_linker_0, # of connection points: 2
#     Edge 32, Type (0, 1), BuildingBlock: CIFDUS_clean_linker_0, # of connection points: 2
#     Edge 33, Type (0, 1), BuildingBlock: CIFDUS_clean_linker_0, # of connection points: 2
#     Edge 34, Type (0, 1), BuildingBlock: CIFDUS_clean_linker_0, # of connection points: 2
#     Edge 35, Type (0, 1), BuildingBlock: CIFDUS_clean_linker_0, # of connection points: 2
# Relax obj value: 0.175
# Max RMSD: 0.161
# Mean RMSD: 0.141
data_MOF--net-dag--node1-MIDCAF_clean_sbu_0--node2-OLANEW_clean_sbu_2--edge1-CIFDUS_clean_linker_0
_symmetry_space_group_name_H-M    P1
_symmetry_Int_Tables_number       1
_symmetry_cell_setting            triclinic
loop_
_symmetry_equiv_pos_as_xyz
'x, y, z'
_cell_length_a     38.884989
_cell_length_b     36.828516
_cell_length_c     29.425365
_cell_angle_alpha  92.06438
_cell_angle_beta   93.009249
_cell_angle_gamma 90.850925
loop_
_atom_site_label
_atom_site_type_symbol
_atom_site_fract_x
_atom_site_fract_y
_atom_site_fract_z
_atom_type_partial_charge
Zn0 Zn 0.07876 0.82646 0.10239 0.0
Zn1 Zn 0.11064 0.88593 0.95823 0.0
Zn2 Zn 0.09653 0.85607 0.03088 0.0
C3 C 0.13166 0.93651 0.02301 0.0
C4 C 0.04184 0.87047 0.94702 0.0
O5 O 0.13331 0.8109 0.04289 0.0
O6 O 0.11728 0.79286 0.10936 0.0
C7 C 0.09652 0.89793 0.12892 0.0
O8 O 0.11647 0.91325 0.04737 0.0
O9 O 0.13451 0.92991 0.98112 0.0
O10 O 0.06386 0.89058 0.92986 0.0
O11 O 0.04969 0.85401 0.984 0.0
O12 O 0.08094 0.87062 0.1432 0.0
O13 O 0.10614 0.89757 0.08757 0.0
O14 O 0.03997 0.83942 0.02514 0.0
O15 O 0.03311 0.80552 0.0845 0.0
C16 C 0.02085 0.81881 0.04839 0.0
O17 O 0.13484 0.82053 0.99714 0.0
O18 O 0.1399 0.84823 0.93229 0.0
C19 C 0.13777 0.79069 0.07757 0.0
C20 C 0.14734 0.8222 0.95745 0.0
Zn21 Zn 0.61609 0.59058 0.4299 0.0
Zn22 Zn 0.645 0.65208 0.5663 0.0
Zn23 Zn 0.6313 0.62885 0.49041 0.0
C24 C 0.641 0.57517 0.5686 0.0
C25 C 0.58363 0.68568 0.53862 0.0
O26 O 0.6654 0.64587 0.43639 0.0
O27 O 0.62874 0.6266 0.38104 0.0
C28 C 0.68245 0.57691 0.45563 0.0
O29 O 0.63056 0.57936 0.52734 0.0
O30 O 0.64951 0.60286 0.59362 0.0
O31 O 0.60306 0.68117 0.57368 0.0
O32 O 0.59028 0.6691 0.50092 0.0
O33 O 0.65488 0.55819 0.44932 0.0
O34 O 0.68056 0.61163 0.46227 0.0
O35 O 0.58031 0.64193 0.45955 0.0
O36 O 0.56629 0.58464 0.44319 0.0
C37 C 0.55745 0.61746 0.44708 0.0
O38 O 0.68257 0.65358 0.48189 0.0
O39 O 0.68747 0.67894 0.55124 0.0
C40 C 0.65472 0.64622 0.39406 0.0
C41 C 0.69924 0.674 0.51232 0.0
Zn42 Zn 0.91678 0.20833 0.90419 0.0
Zn43 Zn 0.89894 0.13923 0.02649 0.0
Zn44 Zn 0.90136 0.18282 0.9747 0.0
C45 C 0.96225 0.16004 0.03614 0.0
C46 C 0.83967 0.13425 0.97256 0.0
O47 O 0.85229 0.21039 0.96133 0.0
O48 O 0.87161 0.23326 0.89878 0.0
C49 C 0.96231 0.24047 0.97053 0.0
O50 O 0.9444 0.18825 0.02689 0.0
O51 O 0.94936 0.1289 0.02622 0.0
O52 O 0.86264 0.11296 0.98718 0.0
O53 O 0.84565 0.16884 0.97486 0.0
O54 O 0.95705 0.23865 0.92775 0.0
O55 O 0.94333 0.22138 0.99541 0.0
O56 O 0.91035 0.13511 0.93376 0.0
O57 O 0.92325 0.16027 0.87031 0.0
C58 C 0.91831 0.13196 0.89242 0.0
O59 O 0.85619 0.19987 0.01216 0.0
O60 O 0.8811 0.17675 0.07302 0.0
C61 C 0.84802 0.23044 0.92655 0.0
C62 C 0.85937 0.19848 0.05599 0.0
Zn63 Zn 0.33705 0.36486 0.65778 0.0
Zn64 Zn 0.34008 0.30857 0.49366 0.0
Zn65 Zn 0.33662 0.33784 0.57503 0.0
C66 C 0.40736 0.32082 0.5202 0.0
C67 C 0.30467 0.37477 0.48565 0.0
O68 O 0.30673 0.29974 0.61715 0.0
O69 O 0.3091 0.32791 0.68504 0.0
C70 C 0.40475 0.34991 0.64193 0.0
O71 O 0.39181 0.33172 0.5559 0.0
O72 O 0.39009 0.30792 0.48575 0.0
O73 O 0.31338 0.34706 0.46272 0.0
O74 O 0.31185 0.37714 0.52899 0.0
O75 O 0.38714 0.36387 0.67262 0.0
O76 O 0.39023 0.33919 0.60326 0.0
O77 O 0.31614 0.39434 0.57336 0.0
O78 O 0.31645 0.41191 0.64613 0.0
C79 C 0.31063 0.41866 0.60478 0.0
O80 O 0.30495 0.28659 0.57121 0.0
O81 O 0.31651 0.26237 0.50391 0.0
C82 C 0.29926 0.30123 0.65942 0.0
C83 C 0.30152 0.26048 0.54075 0.0
O84 O 0.12314 0.01037 0.38892 0.0
Cd85 Cd 0.13621 0.02946 0.46917 0.0
O86 O 0.14138 0.05648 0.35037 0.0
Cd87 Cd 0.14154 0.08567 0.28687 0.0
O88 O 0.11836 0.11334 0.22865 0.0
C89 C 0.10174 0.14222 0.23619 0.0
O90 O 0.10121 0.1555 0.27821 0.0
C91 C 0.12733 0.02512 0.3511 0.0
C92 C 0.18584 0.08378 0.48952 0.0
O93 O 0.19437 0.05089 0.4807 0.0
O94 O 0.15373 0.09136 0.48742 0.0
O95 O 0.27186 0.64816 0.6595 0.0
Cd96 Cd 0.27121 0.71364 0.67785 0.0
O97 O 0.29766 0.64654 0.59403 0.0
Cd98 Cd 0.31644 0.70194 0.58536 0.0
O99 O 0.36324 0.71717 0.55145 0.0
C100 C 0.38954 0.72965 0.57467 0.0
O101 O 0.38686 0.73702 0.61836 0.0
C102 C 0.28232 0.63048 0.62497 0.0
C103 C 0.252 0.73218 0.76667 0.0
O104 O 0.22942 0.72236 0.73518 0.0
O105 O 0.2837 0.73258 0.75669 0.0
O106 O 0.81262 0.79097 0.0886 0.0
Cd107 Cd 0.75339 0.7892 0.11512 0.0
O108 O 0.79451 0.83696 0.04967 0.0
Cd109 Cd 0.79248 0.88383 0.00569 0.0
O110 O 0.78229 0.93826 0.98094 0.0
C111 C 0.78105 0.94643 0.93926 0.0
O112 O 0.78617 0.92106 0.90792 0.0
C113 C 0.81906 0.81626 0.06168 0.0
C114 C 0.73456 0.74121 0.18206 0.0
O115 O 0.73127 0.73217 0.13953 0.0
O116 O 0.74836 0.77231 0.19325 0.0
O117 O 0.72225 0.35588 0.59455 0.0
Cd118 Cd 0.74868 0.30187 0.62645 0.0
O119 O 0.70807 0.36847 0.664 0.0
Cd120 Cd 0.67751 0.39451 0.7152 0.0
O121 O 0.62267 0.39815 0.72228 0.0
C122 C 0.60606 0.37358 0.69856 0.0
O123 O 0.62335 0.34955 0.67527 0.0
C124 C 0.70759 0.37685 0.62238 0.0
C125 C 0.75724 0.30404 0.7217 0.0
O126 O 0.77779 0.32103 0.69688 0.0
O127 O 0.73183 0.28627 0.7017 0.0
O128 O 0.73222 0.38198 0.35888 0.0
Cd129 Cd 0.71092 0.32594 0.31711 0.0
O130 O 0.70679 0.37171 0.42297 0.0
Cd131 Cd 0.67094 0.32624 0.40665 0.0
O132 O 0.61868 0.30911 0.42328 0.0
C133 C 0.60376 0.32825 0.45313 0.0
O134 O 0.62037 0.35651 0.4726 0.0
C135 C 0.72694 0.39071 0.40025 0.0
C136 C 0.75572 0.29356 0.25562 0.0
O137 O 0.73338 0.31656 0.24197 0.0
O138 O 0.75734 0.28663 0.29806 0.0
O139 O 0.21686 0.14569 0.99217 0.0
Cd140 Cd 0.22419 0.20812 0.96775 0.0
O141 O 0.20541 0.1557 0.06437 0.0
Cd142 Cd 0.20492 0.21467 0.06078 0.0
O143 O 0.1634 0.2534 0.05668 0.0
C144 C 0.14331 0.25565 0.08937 0.0
O145 O 0.15161 0.23892 0.127 0.0
C146 C 0.21003 0.13385 0.0309 0.0
C147 C 0.24692 0.21172 0.87872 0.0
O148 O 0.26802 0.20851 0.91325 0.0
O149 O 0.21473 0.21286 0.88592 0.0
O150 O 0.38844 0.64699 0.25334 0.0
Cd151 Cd 0.34528 0.62218 0.19587 0.0
O152 O 0.36185 0.62939 0.3134 0.0
Cd153 Cd 0.31609 0.60358 0.27979 0.0
O154 O 0.29532 0.55023 0.29474 0.0
C155 C 0.28286 0.54576 0.33331 0.0
O156 O 0.27873 0.57437 0.36035 0.0
C157 C 0.38766 0.64424 0.2963 0.0
C158 C 0.28884 0.66445 0.17065 0.0
O159 O 0.31674 0.66671 0.14946 0.0
O160 O 0.28832 0.64334 0.20433 0.0
O161 O 0.95162 0.77018 0.71106 0.0
Cd162 Cd 0.94704 0.76578 0.62723 0.0
O163 O 0.91179 0.81175 0.71537 0.0
Cd164 Cd 0.8845 0.85377 0.75333 0.0
O165 O 0.88052 0.90345 0.79566 0.0
C166 C 0.89875 0.93024 0.78435 0.0
O167 O 0.91713 0.92643 0.74831 0.0
C168 C 0.93512 0.79292 0.73472 0.0
C169 C 0.88153 0.75369 0.58617 0.0
O170 O 0.90204 0.72721 0.59259 0.0
O171 O 0.89181 0.78566 0.5999 0.0
H172 H 0.059 0.91972 0.1988 0.0
H173 H 0.15308 0.94374 0.13404 0.0
H174 H 0.16895 0.98959 0.19432 0.0
H175 H 0.15881 0.01772 0.27043 0.0
H176 H 0.06713 0.98794 0.33758 0.0
H177 H 0.04766 0.94932 0.27184 0.0
C178 C 0.0828 0.93534 0.19755 0.0
C179 C 0.10452 0.92889 0.16151 0.0
C180 C 0.09235 0.9603 0.23326 0.0
C181 C 0.1354 0.94905 0.16061 0.0
C182 C 0.14469 0.97488 0.19546 0.0
C183 C 0.13425 0.00334 0.27008 0.0
C184 C 0.1143 0.00574 0.30864 0.0
C185 C 0.12372 0.98015 0.23257 0.0
C186 C 0.0829 0.98642 0.3083 0.0
C187 C 0.07178 0.96432 0.27076 0.0
H188 H 0.52608 0.68925 0.48036 0.0
H189 H 0.56908 0.73007 0.61054 0.0
H190 H 0.51312 0.75223 0.63037 0.0
H191 H 0.45069 0.751 0.61652 0.0
H192 H 0.406 0.7065 0.48876 0.0
H193 H 0.46351 0.69486 0.46235 0.0
C194 C 0.52318 0.70298 0.51285 0.0
C195 C 0.55154 0.70643 0.54445 0.0
C196 C 0.4904 0.7146 0.52489 0.0
C197 C 0.5476 0.72603 0.58581 0.0
C198 C 0.5155 0.7387 0.59738 0.0
C199 C 0.45344 0.73924 0.5826 0.0
C200 C 0.42398 0.72903 0.55512 0.0
C201 C 0.48647 0.73162 0.56811 0.0
C202 C 0.42818 0.7143 0.51096 0.0
C203 C 0.46111 0.70742 0.49585 0.0
H204 H 0.82599 0.10134 0.89127 0.0
H205 H 0.7827 0.12563 0.02014 0.0
H206 H 0.75348 0.06636 0.01698 0.0
H207 H 0.75602 0.00261 0.98922 0.0
H208 H 0.80312 0.97721 0.86266 0.0
H209 H 0.81508 0.04164 0.85298 0.0
C210 C 0.80825 0.09451 0.91707 0.0
C211 C 0.80687 0.11731 0.95625 0.0
C212 C 0.79375 0.05935 0.91647 0.0
C213 C 0.78404 0.10842 0.98963 0.0
C214 C 0.76812 0.07407 0.9884 0.0
C215 C 0.76806 0.0113 0.95891 0.0
C216 C 0.77975 0.98515 0.9275 0.0
C217 C 0.77531 0.04837 0.95392 0.0
C218 C 0.79443 0.99676 0.88777 0.0
C219 C 0.80132 0.03365 0.88222 0.0
H220 H 0.44591 0.39721 0.69177 0.0
H221 H 0.44705 0.29674 0.61206 0.0
H222 H 0.50987 0.29489 0.62322 0.0
H223 H 0.56423 0.32299 0.65389 0.0
H224 H 0.56265 0.42306 0.73491 0.0
H225 H 0.49993 0.42374 0.72541 0.0
C226 C 0.45995 0.37479 0.67716 0.0
C227 C 0.44222 0.34752 0.65039 0.0
C228 C 0.49582 0.37387 0.68398 0.0
C229 C 0.46045 0.3184 0.63198 0.0
C230 C 0.49624 0.31728 0.63854 0.0
C231 C 0.55019 0.34488 0.66966 0.0
C232 C 0.56808 0.37301 0.69493 0.0
C233 C 0.51419 0.3451 0.66407 0.0
C234 C 0.54949 0.40109 0.71529 0.0
C235 C 0.51365 0.40154 0.70982 0.0
H236 H 0.71602 0.53262 0.51199 0.0
H237 H 0.71693 0.57582 0.37827 0.0
H238 H 0.74055 0.51918 0.34843 0.0
H239 H 0.74249 0.45269 0.35666 0.0
H240 H 0.73712 0.40915 0.49031 0.0
H241 H 0.73485 0.47035 0.52413 0.0
C242 C 0.72359 0.53038 0.47701 0.0
C243 C 0.71448 0.55795 0.44718 0.0
C244 C 0.73513 0.49695 0.45974 0.0
C245 C 0.72397 0.5549 0.40186 0.0
C246 C 0.73671 0.52213 0.38459 0.0
C247 C 0.74227 0.45666 0.39335 0.0
C248 C 0.7388 0.4264 0.42075 0.0
C249 C 0.73961 0.49206 0.4125 0.0
C250 C 0.73889 0.432 0.46832 0.0
C251 C 0.73744 0.46703 0.48772 0.0
H252 H 0.98418 0.2497 0.06026 0.0
H253 H 0.01169 0.27436 0.92437 0.0
H254 H 0.07015 0.28958 0.95235 0.0
H255 H 0.11577 0.28276 0.01133 0.0
H256 H 0.08977 0.25422 0.14649 0.0
H257 H 0.02854 0.25592 0.12343 0.0
C258 C 0.00285 0.25889 0.03696 0.0
C259 C 0.99396 0.2592 0.99005 0.0
C260 C 0.03693 0.26671 0.05305 0.0
C261 C 0.01801 0.2728 0.96053 0.0
C262 C 0.0516 0.28145 0.97644 0.0
C263 C 0.09676 0.27748 0.03608 0.0
C264 C 0.10739 0.26712 0.08005 0.0
C265 C 0.06178 0.27636 0.02204 0.0
C266 C 0.08236 0.26145 0.11202 0.0
C267 C 0.04732 0.26189 0.09874 0.0
H268 H 0.31155 0.38858 0.39716 0.0
H269 H 0.2635 0.42948 0.51686 0.0
H270 H 0.24979 0.48606 0.47874 0.0
H271 H 0.25765 0.52599 0.41398 0.0
H272 H 0.30318 0.48227 0.2933 0.0
H273 H 0.31059 0.42405 0.32879 0.0
C274 C 0.29755 0.40957 0.41481 0.0
C275 C 0.29022 0.4058 0.46074 0.0
C276 C 0.28924 0.44142 0.39236 0.0
C277 C 0.27121 0.43278 0.48245 0.0
C278 C 0.263 0.46487 0.46043 0.0
C279 C 0.26862 0.50354 0.39513 0.0
C280 C 0.28047 0.5088 0.35133 0.0
C281 C 0.27303 0.46998 0.41588 0.0
C282 C 0.29413 0.4792 0.32717 0.0
C283 C 0.29855 0.44587 0.34752 0.0
H284 H 0.01332 0.804 0.92692 0.0
H285 H 0.00073 0.91793 0.90324 0.0
H286 H 0.96161 0.90331 0.83737 0.0
H287 H 0.94231 0.85863 0.77799 0.0
H288 H 0.95658 0.74449 0.79795 0.0
H289 H 0.98486 0.75847 0.87312 0.0
C290 C 0.00078 0.8255 0.90838 0.0
C291 C 0.00981 0.86195 0.91962 0.0
C292 C 0.97969 0.81678 0.86904 0.0
C293 C 0.994 0.8897 0.89506 0.0
C294 C 0.97198 0.88132 0.85711 0.0
C295 C 0.94967 0.83668 0.79977 0.0
C296 C 0.94646 0.80055 0.78294 0.0
C297 C 0.96617 0.84501 0.84245 0.0
C298 C 0.95855 0.77252 0.81039 0.0
C299 C 0.97469 0.78052 0.85333 0.0
H300 H 0.89106 0.06769 0.9186 0.0
H301 H 0.94859 0.11514 0.81337 0.0
H302 H 0.948 0.05684 0.77143 0.0
H303 H 0.92976 0.9932 0.76315 0.0
H304 H 0.87086 0.9453 0.86662 0.0
H305 H 0.8736 0.00293 0.91086 0.0
C306 C 0.9038 0.06516 0.88676 0.0
C307 C 0.91992 0.09575 0.86922 0.0
C308 C 0.90292 0.03157 0.86234 0.0
C309 C 0.93594 0.09208 0.82762 0.0
C310 C 0.93559 0.05875 0.80355 0.0
C311 C 0.9175 0.99526 0.79539 0.0
C312 C 0.90004 0.96499 0.81142 0.0
C313 C 0.91886 0.02847 0.82032 0.0
C314 C 0.88433 0.96823 0.85332 0.0
C315 C 0.88593 0.00117 0.87868 0.0
H316 H 0.44947 0.27729 0.47326 0.0
H317 H 0.44953 0.37504 0.55833 0.0
H318 H 0.51102 0.38457 0.54773 0.0
H319 H 0.56379 0.36708 0.51018 0.0
H320 H 0.56256 0.27088 0.42171 0.0
H321 H 0.50248 0.25895 0.43744 0.0
C322 C 0.46305 0.30052 0.48979 0.0
C323 C 0.44515 0.32503 0.51734 0.0
C324 C 0.4981 0.30631 0.48245 0.0
C325 C 0.46293 0.35528 0.53798 0.0
C326 C 0.498 0.36092 0.53151 0.0
C327 C 0.55049 0.34336 0.4945 0.0
C328 C 0.56774 0.32002 0.46454 0.0
C329 C 0.51574 0.33686 0.50329 0.0
C330 C 0.54998 0.28942 0.44467 0.0
C331 C 0.51558 0.28255 0.45366 0.0
H332 H 0.19188 0.96556 1.0034 0.0
H333 H 0.10327 0.98604 0.0818 0.0
H334 H 0.12335 0.04908 0.09769 0.0
H335 H 0.16178 0.10024 0.07899 0.0
H336 H 0.24578 0.07965 0.99195 0.0
H337 H 0.23201 0.01469 0.98955 0.0
C338 C 0.17736 0.98368 0.0248 0.0
C339 C 0.1464 0.9713 0.04183 0.0
C340 C 0.18807 0.01996 0.03151 0.0
C341 C 0.12756 0.99489 0.06915 0.0
C342 C 0.13883 0.03098 0.07767 0.0
C343 C 0.17746 0.08131 0.0604 0.0
C344 C 0.20474 0.0945 0.03559 0.0
C345 C 0.16843 0.04412 0.0576 0.0
C346 C 0.22461 0.06999 0.01105 0.0
C347 C 0.21673 0.03293 0.00966 0.0
H348 H 0.53903 0.66334 0.38099 0.0
H349 H 0.49777 0.59143 0.47752 0.0
H350 H 0.43961 0.59908 0.44351 0.0
H351 H 0.40233 0.61937 0.38045 0.0
H352 H 0.44439 0.68544 0.2779 0.0
H353 H 0.50027 0.6876 0.32042 0.0
C354 C 0.51706 0.6501 0.39502 0.0
C355 C 0.5223 0.62705 0.43171 0.0
C356 C 0.48401 0.65334 0.37392 0.0
C357 C 0.49405 0.60936 0.44934 0.0
C358 C 0.46093 0.61364 0.42981 0.0
C359 C 0.42345 0.63497 0.36778 0.0
C360 C 0.41918 0.65208 0.32586 0.0
C361 C 0.4558 0.63459 0.39118 0.0
C362 C 0.447 0.67191 0.30995 0.0
C363 C 0.479 0.67299 0.33415 0.0
H364 H 0.26898 0.4621 0.65154 0.0
H365 H 0.3335 0.45979 0.53682 0.0
H366 H 0.32696 0.52544 0.52967 0.0
H367 H 0.30877 0.58403 0.56213 0.0
H368 H 0.24785 0.5864 0.68081 0.0
H369 H 0.2472 0.52013 0.68045 0.0
C370 C 0.28101 0.47594 0.62441 0.0
C371 C 0.30123 0.45619 0.59427 0.0
C372 C 0.27829 0.51373 0.6218 0.0
C373 C 0.31717 0.47436 0.55971 0.0
C374 C 0.31376 0.51191 0.55602 0.0
C375 C 0.29496 0.57012 0.58764 0.0
C376 C 0.27871 0.59029 0.62181 0.0
C377 C 0.29526 0.532 0.58778 0.0
C378 C 0.26086 0.57167 0.65441 0.0
C379 C 0.26046 0.53374 0.65422 0.0
H380 H 0.97091 0.86727 0.02527 0.0
H381 H 0.98836 0.7537 0.04639 0.0
H382 H 0.92648 0.74213 0.04743 0.0
H383 H 0.86835 0.76566 0.05389 0.0
H384 H 0.85034 0.87978 0.03777 0.0
H385 H 0.91093 0.88976 0.02287 0.0
C386 C 0.96097 0.83987 0.02856 0.0
C387 C 0.98407 0.81133 0.03573 0.0
C388 C 0.92518 0.83364 0.03095 0.0
C389 C 0.97099 0.77603 0.04074 0.0
C390 C 0.93563 0.76946 0.04175 0.0
C391 C 0.87757 0.79265 0.04649 0.0
C392 C 0.8547 0.82187 0.04691 0.0
C393 C 0.9126 0.79829 0.03886 0.0
C394 C 0.86708 0.85663 0.03696 0.0
C395 C 0.90193 0.86243 0.02884 0.0
H396 H 0.6413 0.50962 0.52104 0.0
H397 H 0.65644 0.55851 0.6564 0.0
H398 H 0.67722 0.50132 0.68501 0.0
H399 H 0.69713 0.43982 0.67031 0.0
H400 H 0.68046 0.38883 0.53668 0.0
H401 H 0.65528 0.44476 0.50837 0.0
C402 C 0.64844 0.50754 0.55695 0.0
C403 C 0.64751 0.53854 0.58636 0.0
C404 C 0.66074 0.4744 0.57337 0.0
C405 C 0.65707 0.53529 0.63281 0.0
C406 C 0.66913 0.50257 0.64928 0.0
C407 C 0.68663 0.44022 0.63556 0.0
C408 C 0.68993 0.40978 0.6061 0.0
C409 C 0.67186 0.47224 0.61971 0.0
C410 C 0.67809 0.41183 0.56025 0.0
C411 C 0.66356 0.44378 0.54405 0.0
H412 H 0.97747 0.19852 0.11476 0.0
H413 H 0.02029 0.12444 0.01711 0.0
H414 H 0.0706 0.11591 0.06888 0.0
H415 H 0.09779 0.12267 0.14589 0.0
H416 H 0.05361 0.19491 0.24501 0.0
H417 H 0.00875 0.21126 0.18877 0.0
C418 C -0.00157 0.18152 0.10438 0.0
C419 C 0.99555 0.16239 0.06224 0.0
C420 C 0.02666 0.17581 0.13498 0.0
C421 C 0.02229 0.13964 0.0494 0.0
C422 C 0.05088 0.13457 0.07907 0.0
C423 C 0.07871 0.14248 0.15498 0.0
C424 C 0.07871 0.15698 0.19986 0.0
C425 C 0.05267 0.15145 0.12262 0.0
C426 C 0.05405 0.18298 0.21087 0.0
C427 C 0.02825 0.19228 0.17875 0.0
H428 H 0.14526 0.73801 0.13811 0.0
H429 H 0.19789 0.7892 0.03126 0.0
H430 H 0.24937 0.75374 0.04964 0.0
H431 H 0.28047 0.7109 0.10005 0.0
H432 H 0.22677 0.66297 0.20861 0.0
H433 H 0.17488 0.6951 0.18601 0.0
C434 C 0.16786 0.74139 0.11846 0.0
C435 C 0.16763 0.76631 0.0833 0.0
C436 C 0.19743 0.72188 0.13011 0.0
C437 C 0.19714 0.76995 0.05812 0.0
C438 C 0.22672 0.74995 0.06901 0.0
C439 C 0.2574 0.70753 0.11872 0.0
C440 C 0.25769 0.68468 0.15624 0.0
C441 C 0.22737 0.72632 0.10559 0.0
C442 C 0.22748 0.68047 0.17986 0.0
C443 C 0.19768 0.69876 0.16687 0.0
H444 H 0.72308 0.7407 0.53691 0.0
H445 H 0.7532 0.63877 0.47597 0.0
H446 H 0.81412 0.65593 0.49055 0.0
H447 H 0.85785 0.69587 0.53231 0.0
H448 H 0.82657 0.79781 0.59292 0.0
H449 H 0.76698 0.78478 0.56682 0.0
C450 C 0.74308 0.72282 0.52548 0.0
C451 C 0.73396 0.68851 0.50581 0.0
C452 C 0.77772 0.73251 0.53499 0.0
C453 C 0.7598 0.66545 0.4909 0.0
C454 C 0.79455 0.67505 0.4999 0.0
C455 C 0.838 0.71536 0.5393 0.0
C456 C 0.84644 0.74739 0.56537 0.0
C457 C 0.80371 0.70779 0.52389 0.0
C458 C 0.82067 0.77281 0.57335 0.0
C459 C 0.78659 0.76539 0.55844 0.0
H460 H 0.86132 0.19936 0.14824 0.0
H461 H 0.80723 0.24522 0.03261 0.0
H462 H 0.77086 0.27947 0.08399 0.0
H463 H 0.75404 0.29578 0.16227 0.0
H464 H 0.80864 0.24856 0.27671 0.0
H465 H 0.84516 0.21563 0.2252 0.0
C466 C 0.84158 0.21681 0.13406 0.0
C467 C 0.83703 0.21958 0.08649 0.0
C468 C 0.82082 0.23629 0.16371 0.0
C469 C 0.81132 0.24249 0.06902 0.0
C470 C 0.79051 0.2621 0.09843 0.0
C471 C 0.77403 0.27842 0.17593 0.0
C472 C 0.7785 0.27476 0.22348 0.0
C473 C 0.79499 0.25917 0.14591 0.0
C474 C 0.80449 0.25197 0.24043 0.0
C475 C 0.82544 0.23304 0.21095 0.0
H476 H 0.33014 0.25189 0.71045 0.0
H477 H 0.23042 0.28761 0.66224 0.0
H478 H 0.20368 0.25761 0.7249 0.0
H479 H 0.21087 0.23227 0.80156 0.0
H480 H 0.31222 0.20179 0.85214 0.0
H481 H 0.33612 0.21849 0.78077 0.0
C482 C 0.30235 0.25147 0.71252 0.0
C483 C 0.28213 0.27124 0.68149 0.0
C484 C 0.28765 0.23615 0.75013 0.0
C485 C 0.24631 0.2717 0.68511 0.0
C486 C 0.23117 0.25517 0.72151 0.0
C487 C 0.23805 0.22859 0.79659 0.0
C488 C 0.25981 0.21641 0.83259 0.0
C489 C 0.25188 0.23906 0.75559 0.0
C490 C 0.29495 0.21164 0.82541 0.0
C491 C 0.30867 0.22112 0.78449 0.0
H492 H 0.65256 0.63464 0.30221 0.0
H493 H 0.701 0.70242 0.41059 0.0
H494 H 0.73133 0.73685 0.35496 0.0
H495 H 0.74205 0.74942 0.27492 0.0
H496 H 0.69473 0.67996 0.16721 0.0
H497 H 0.66634 0.64441 0.22312 0.0
C498 C 0.66976 0.65694 0.3137 0.0
C499 C 0.67418 0.66618 0.3605 0.0
C500 C 0.6874 0.67634 0.28157 0.0
C501 C 0.69704 0.69477 0.3748 0.0
C502 C 0.71436 0.71452 0.34296 0.0
C503 C 0.72577 0.72632 0.2637 0.0
C504 C 0.72042 0.7176 0.21679 0.0
C505 C 0.70948 0.70579 0.29618 0.0
C506 C 0.69937 0.68739 0.20298 0.0
C507 C 0.68296 0.66707 0.23497 0.0
H508 H 0.83686 0.29989 0.90896 0.0
H509 H 0.78672 0.19497 0.90781 0.0
H510 H 0.74692 0.21252 0.84543 0.0
H511 H 0.73829 0.25114 0.77864 0.0
H512 H 0.79431 0.35299 0.77603 0.0
H513 H 0.81965 0.34362 0.85213 0.0
C514 C 0.81591 0.2817 0.89666 0.0
C515 C 0.81481 0.24619 0.91245 0.0
C516 C 0.79507 0.29104 0.85867 0.0
C517 C 0.78785 0.22258 0.89636 0.0
C518 C 0.76564 0.23236 0.85988 0.0
C519 C 0.75519 0.27177 0.79538 0.0
C520 C 0.76506 0.30234 0.77136 0.0
C521 C 0.7708 0.26548 0.83865 0.0
C522 C 0.78689 0.32891 0.79346 0.0
C523 C 0.80136 0.32358 0.83703 0.0
H524 H 0.3125 0.19212 0.51147 0.0
H525 H 0.23919 0.25815 0.57999 0.0
H526 H 0.19651 0.2082 0.57163 0.0
H527 H 0.17846 0.14806 0.53686 0.0
H528 H 0.25311 0.08264 0.46942 0.0
H529 H 0.29686 0.13023 0.48487 0.0
C530 C 0.28736 0.19529 0.52535 0.0
C531 C 0.2788 0.22868 0.54606 0.0
C532 C 0.26306 0.16686 0.51971 0.0
C533 C 0.24638 0.2325 0.56431 0.0
C534 C 0.22188 0.20414 0.55895 0.0
C535 C 0.20436 0.14426 0.52574 0.0
C536 C 0.21242 0.11215 0.50134 0.0
C537 C 0.22961 0.17162 0.53534 0.0
C538 C 0.24621 0.10719 0.48793 0.0
C539 C 0.27125 0.13437 0.4968 0.0
H540 H 0.21408 0.8265 0.93797 0.0
H541 H 0.12543 0.75478 0.92868 0.0
H542 H 0.15169 0.71749 0.86959 0.0
H543 H 0.19544 0.71218 0.81155 0.0
H544 H 0.28497 0.7831 0.82294 0.0
H545 H 0.26311 0.81366 0.89036 0.0
C546 C 0.20131 0.80174 0.92439 0.0
C547 C 0.16808 0.7931 0.93773 0.0
C548 C 0.21636 0.78091 0.88996 0.0
C549 C 0.15133 0.76145 0.91946 0.0
C550 C 0.16611 0.74053 0.88513 0.0
C551 C 0.21042 0.73387 0.82937 0.0
C552 C 0.24146 0.74583 0.8118 0.0
C553 C 0.19788 0.75105 0.8686 0.0
C554 C 0.26092 0.77353 0.83561 0.0
C555 C 0.24839 0.7911 0.87413 0.0
loop_
_geom_bond_atom_site_label_1
_geom_bond_atom_site_label_2
_geom_bond_distance
_geom_bond_site_symmetry_2
_ccdc_geom_bond_type
Zn0 O6 1.920 . S
Zn0 O12 1.898 . S
Zn0 O15 1.905 . S
Zn1 O9 1.905 . S
Zn1 O10 1.898 . S
Zn1 O18 1.920 . S
Zn2 O5 2.081 . S
Zn2 O8 2.113 1_554 S
Zn2 O11 2.118 1_554 S
Zn2 O13 2.122 . S
Zn2 O14 2.115 . S
Zn2 O17 2.079 1_554 S
C3 O8 1.166 . S
C3 O9 1.182 . S
C4 O10 1.167 . S
C4 O11 1.299 . S
O5 Zn2 2.081 . S
O5 C19 1.305 . S
O6 Zn0 1.920 . S
O6 C19 1.234 . S
C7 O12 1.167 . S
C7 O13 1.299 . S
O8 Zn2 2.113 1_556 S
O8 C3 1.166 . S
O9 Zn1 1.905 . S
O9 C3 1.182 . S
O10 Zn1 1.898 . S
O10 C4 1.167 . S
O11 Zn2 2.118 1_556 S
O11 C4 1.299 . S
O12 Zn0 1.898 . S
O12 C7 1.167 . S
O13 Zn2 2.122 . S
O13 C7 1.299 . S
O14 Zn2 2.115 . S
O14 C16 1.166 . S
O15 Zn0 1.905 . S
O15 C16 1.182 . S
C16 O14 1.166 . S
C16 O15 1.182 . S
O17 Zn2 2.079 1_556 S
O17 C20 1.305 . S
O18 Zn1 1.920 . S
O18 C20 1.234 . S
C19 O5 1.305 . S
C19 O6 1.234 . S
C20 O17 1.305 . S
C20 O18 1.234 . S
Zn21 O27 1.920 . S
Zn21 O33 1.898 . S
Zn21 O36 1.905 . S
Zn22 O30 1.905 . S
Zn22 O31 1.898 . S
Zn22 O39 1.920 . S
Zn23 O26 2.080 . S
Zn23 O29 2.114 . S
Zn23 O32 2.120 . S
Zn23 O34 2.120 . S
Zn23 O35 2.114 . S
Zn23 O38 2.080 . S
C24 O29 1.166 . S
C24 O30 1.182 . S
C25 O31 1.167 . S
C25 O32 1.299 . S
O26 Zn23 2.080 . S
O26 C40 1.305 . S
O27 Zn21 1.920 . S
O27 C40 1.234 . S
C28 O33 1.167 . S
C28 O34 1.299 . S
O29 Zn23 2.114 . S
O29 C24 1.166 . S
O30 Zn22 1.905 . S
O30 C24 1.182 . S
O31 Zn22 1.898 . S
O31 C25 1.167 . S
O32 Zn23 2.120 . S
O32 C25 1.299 . S
O33 Zn21 1.898 . S
O33 C28 1.167 . S
O34 Zn23 2.120 . S
O34 C28 1.299 . S
O35 Zn23 2.114 . S
O35 C37 1.166 . S
O36 Zn21 1.905 . S
O36 C37 1.182 . S
C37 O35 1.166 . S
C37 O36 1.182 . S
O38 Zn23 2.080 . S
O38 C41 1.305 . S
O39 Zn22 1.920 . S
O39 C41 1.234 . S
C40 O26 1.305 . S
C40 O27 1.234 . S
C41 O38 1.305 . S
C41 O39 1.234 . S
Zn42 O48 1.920 . S
Zn42 O54 1.898 . S
Zn42 O57 1.905 . S
Zn43 O51 1.905 . S
Zn43 O52 1.898 . S
Zn43 O60 1.920 . S
Zn44 O47 2.080 1_554 S
Zn44 O50 2.114 . S
Zn44 O53 2.120 . S
Zn44 O55 2.120 1_554 S
Zn44 O56 2.114 1_554 S
Zn44 O59 2.080 . S
C45 O50 1.166 . S
C45 O51 1.182 . S
C46 O52 1.167 . S
C46 O53 1.299 . S
O47 Zn44 2.080 1_556 S
O47 C61 1.305 . S
O48 Zn42 1.920 . S
O48 C61 1.234 . S
C49 O54 1.167 . S
C49 O55 1.299 . S
O50 Zn44 2.114 . S
O50 C45 1.166 . S
O51 Zn43 1.905 . S
O51 C45 1.182 . S
O52 Zn43 1.898 . S
O52 C46 1.167 . S
O53 Zn44 2.120 . S
O53 C46 1.299 . S
O54 Zn42 1.898 . S
O54 C49 1.167 . S
O55 Zn44 2.120 1_556 S
O55 C49 1.299 . S
O56 Zn44 2.114 1_556 S
O56 C58 1.166 . S
O57 Zn42 1.905 . S
O57 C58 1.182 . S
C58 O56 1.166 . S
C58 O57 1.182 . S
O59 Zn44 2.080 . S
O59 C62 1.305 . S
O60 Zn43 1.920 . S
O60 C62 1.234 . S
C61 O47 1.305 . S
C61 O48 1.234 . S
C62 O59 1.305 . S
C62 O60 1.234 . S
Zn63 O69 1.920 . S
Zn63 O75 1.898 . S
Zn63 O78 1.905 . S
Zn64 O72 1.905 . S
Zn64 O73 1.898 . S
Zn64 O81 1.920 . S
Zn65 O68 2.080 . S
Zn65 O71 2.114 . S
Zn65 O74 2.120 . S
Zn65 O76 2.120 . S
Zn65 O77 2.114 . S
Zn65 O80 2.080 . S
C66 O71 1.166 . S
C66 O72 1.182 . S
C67 O73 1.167 . S
C67 O74 1.299 . S
O68 Zn65 2.080 . S
O68 C82 1.305 . S
O69 Zn63 1.920 . S
O69 C82 1.234 . S
C70 O75 1.167 . S
C70 O76 1.299 . S
O71 Zn65 2.114 . S
O71 C66 1.166 . S
O72 Zn64 1.905 . S
O72 C66 1.182 . S
O73 Zn64 1.898 . S
O73 C67 1.167 . S
O74 Zn65 2.120 . S
O74 C67 1.299 . S
O75 Zn63 1.898 . S
O75 C70 1.167 . S
O76 Zn65 2.120 . S
O76 C70 1.299 . S
O77 Zn65 2.114 . S
O77 C79 1.166 . S
O78 Zn63 1.905 . S
O78 C79 1.182 . S
C79 O77 1.166 . S
C79 O78 1.182 . S
O80 Zn65 2.080 . S
O80 C83 1.305 . S
O81 Zn64 1.920 . S
O81 C83 1.234 . S
C82 O68 1.305 . S
C82 O69 1.234 . S
C83 O80 1.305 . S
C83 O81 1.234 . S
O84 Cd85 2.300 . S
O84 C91 1.275 . S
Cd85 O84 2.300 . S
Cd85 O93 2.381 . S
Cd85 O94 2.378 . S
O86 Cd87 2.385 . S
O86 C91 1.255 . S
Cd87 O86 2.385 . S
Cd87 O88 2.317 . S
O88 Cd87 2.317 . S
O88 C89 1.232 . S
C89 O88 1.232 . S
C89 O90 1.218 . S
O90 C89 1.218 . S
C91 O84 1.275 . S
C91 O86 1.255 . S
C92 O93 1.258 . S
C92 O94 1.256 . S
O93 Cd85 2.381 . S
O93 C92 1.258 . S
O94 Cd85 2.378 . S
O94 C92 1.256 . S
O95 Cd96 2.300 . S
O95 C102 1.275 . S
Cd96 O95 2.300 . S
Cd96 O104 2.381 . S
Cd96 O105 2.378 . S
O97 Cd98 2.385 . S
O97 C102 1.255 . S
Cd98 O97 2.385 . S
Cd98 O99 2.317 . S
O99 Cd98 2.317 . S
O99 C100 1.232 . S
C100 O99 1.232 . S
C100 O101 1.218 . S
O101 C100 1.218 . S
C102 O95 1.275 . S
C102 O97 1.255 . S
C103 O104 1.258 . S
C103 O105 1.256 . S
O104 Cd96 2.381 . S
O104 C103 1.258 . S
O105 Cd96 2.378 . S
O105 C103 1.256 . S
O106 Cd107 2.300 . S
O106 C113 1.275 . S
Cd107 O106 2.300 . S
Cd107 O115 2.381 . S
Cd107 O116 2.378 . S
O108 Cd109 2.385 . S
O108 C113 1.255 . S
Cd109 O108 2.385 . S
Cd109 O110 2.317 . S
O110 Cd109 2.317 . S
O110 C111 1.232 . S
C111 O110 1.232 . S
C111 O112 1.218 . S
O112 C111 1.218 . S
C113 O106 1.275 . S
C113 O108 1.255 . S
C114 O115 1.258 . S
C114 O116 1.256 . S
O115 Cd107 2.381 . S
O115 C114 1.258 . S
O116 Cd107 2.378 . S
O116 C114 1.256 . S
O117 Cd118 2.300 . S
O117 C124 1.275 . S
Cd118 O117 2.300 . S
Cd118 O126 2.381 . S
Cd118 O127 2.378 . S
O119 Cd120 2.385 . S
O119 C124 1.255 . S
Cd120 O119 2.385 . S
Cd120 O121 2.317 . S
O121 Cd120 2.317 . S
O121 C122 1.232 . S
C122 O121 1.232 . S
C122 O123 1.218 . S
O123 C122 1.218 . S
C124 O117 1.275 . S
C124 O119 1.255 . S
C125 O126 1.258 . S
C125 O127 1.256 . S
O126 Cd118 2.381 . S
O126 C125 1.258 . S
O127 Cd118 2.378 . S
O127 C125 1.256 . S
O128 Cd129 2.300 . S
O128 C135 1.275 . S
Cd129 O128 2.300 . S
Cd129 O137 2.381 . S
Cd129 O138 2.378 . S
O130 Cd131 2.385 . S
O130 C135 1.255 . S
Cd131 O130 2.385 . S
Cd131 O132 2.317 . S
O132 Cd131 2.317 . S
O132 C133 1.232 . S
C133 O132 1.232 . S
C133 O134 1.218 . S
O134 C133 1.218 . S
C135 O128 1.275 . S
C135 O130 1.255 . S
C136 O137 1.258 . S
C136 O138 1.256 . S
O137 Cd129 2.381 . S
O137 C136 1.258 . S
O138 Cd129 2.378 . S
O138 C136 1.256 . S
O139 Cd140 2.300 . S
O139 C146 1.275 . S
Cd140 O139 2.300 . S
Cd140 O148 2.381 . S
Cd140 O149 2.378 . S
O141 Cd142 2.385 . S
O141 C146 1.255 . S
Cd142 O141 2.385 . S
Cd142 O143 2.317 . S
O143 Cd142 2.317 . S
O143 C144 1.232 . S
C144 O143 1.232 . S
C144 O145 1.218 . S
O145 C144 1.218 . S
C146 O139 1.275 . S
C146 O141 1.255 . S
C147 O148 1.258 . S
C147 O149 1.256 . S
O148 Cd140 2.381 . S
O148 C147 1.258 . S
O149 Cd140 2.378 . S
O149 C147 1.256 . S
O150 Cd151 2.300 . S
O150 C157 1.275 . S
Cd151 O150 2.300 . S
Cd151 O159 2.381 . S
Cd151 O160 2.378 . S
O152 Cd153 2.385 . S
O152 C157 1.255 . S
Cd153 O152 2.385 . S
Cd153 O154 2.317 . S
O154 Cd153 2.317 . S
O154 C155 1.232 . S
C155 O154 1.232 . S
C155 O156 1.218 . S
O156 C155 1.218 . S
C157 O150 1.275 . S
C157 O152 1.255 . S
C158 O159 1.258 . S
C158 O160 1.256 . S
O159 Cd151 2.381 . S
O159 C158 1.258 . S
O160 Cd151 2.378 . S
O160 C158 1.256 . S
O161 Cd162 2.300 . S
O161 C168 1.275 . S
Cd162 O161 2.300 . S
Cd162 O170 2.381 . S
Cd162 O171 2.378 . S
O163 Cd164 2.385 . S
O163 C168 1.255 . S
Cd164 O163 2.385 . S
Cd164 O165 2.317 . S
O165 Cd164 2.317 . S
O165 C166 1.232 . S
C166 O165 1.232 . S
C166 O167 1.218 . S
O167 C166 1.218 . S
C168 O161 1.275 . S
C168 O163 1.255 . S
C169 O170 1.258 . S
C169 O171 1.256 . S
O170 Cd162 2.381 . S
O170 C169 1.258 . S
O171 Cd162 2.378 . S
O171 C169 1.256 . S
H172 C178 0.930 . S
H173 C181 0.930 . S
H174 C182 0.930 . S
H175 C183 0.930 . S
H176 C186 0.930 . S
H177 C187 0.930 . S
C178 H172 0.930 . S
C178 C179 1.355 . S
C178 C180 1.415 . S
C179 C178 1.355 . S
C179 C181 1.419 . S
C180 C178 1.415 . S
C180 C185 1.425 . S
C180 C187 1.409 . S
C181 H173 0.930 . S
C181 C179 1.419 . S
C181 C182 1.362 1_565 S
C182 H174 0.930 . S
C182 C181 1.362 1_545 S
C182 C185 1.409 1_545 S
C183 H175 0.930 . S
C183 C184 1.355 . S
C183 C185 1.415 1_545 S
C184 C183 1.355 . S
C184 C186 1.419 1_545 S
C185 C180 1.425 . S
C185 C182 1.409 1_565 S
C185 C183 1.415 1_565 S
C186 H176 0.930 . S
C186 C184 1.419 1_565 S
C186 C187 1.362 . S
C187 H177 0.930 . S
C187 C180 1.409 . S
C187 C186 1.362 . S
H188 C194 0.930 . S
H189 C197 0.930 . S
H190 C198 0.930 . S
H191 C199 0.930 . S
H192 C202 0.930 . S
H193 C203 0.930 . S
C194 H188 0.930 . S
C194 C195 1.355 . S
C194 C196 1.415 . S
C195 C194 1.355 . S
C195 C197 1.419 . S
C196 C194 1.415 . S
C196 C201 1.425 . S
C196 C203 1.409 . S
C197 H189 0.930 . S
C197 C195 1.419 . S
C197 C198 1.362 . S
C198 H190 0.930 . S
C198 C197 1.362 . S
C198 C201 1.409 . S
C199 H191 0.930 . S
C199 C200 1.355 . S
C199 C201 1.415 . S
C200 C199 1.355 . S
C200 C202 1.419 . S
C201 C196 1.425 . S
C201 C198 1.409 . S
C201 C199 1.415 . S
C202 H192 0.930 . S
C202 C200 1.419 . S
C202 C203 1.362 . S
C203 H193 0.930 . S
C203 C196 1.409 . S
C203 C202 1.362 . S
H204 C210 0.948 . S
H205 C213 0.930 . S
H206 C214 0.930 . S
H207 C215 0.930 . S
H208 C218 0.930 . S
H209 C219 0.930 1_556 S
C210 H204 0.948 . S
C210 C211 1.355 . S
C210 C212 1.415 1_545 S
C211 C210 1.355 . S
C211 C213 1.419 . S
C212 C210 1.415 1_565 S
C212 C217 1.425 . S
C212 C219 1.409 . S
C213 H205 0.930 . S
C213 C211 1.419 . S
C213 C214 1.362 . S
C214 H206 0.930 . S
C214 C213 1.362 . S
C214 C217 1.409 1_545 S
C215 H207 0.930 . S
C215 C216 1.355 . S
C215 C217 1.415 . S
C216 C215 1.355 . S
C216 C218 1.419 . S
C217 C212 1.425 . S
C217 C214 1.409 1_565 S
C217 C215 1.415 . S
C218 H208 0.930 . S
C218 C216 1.419 . S
C218 C219 1.362 . S
C219 H209 0.930 1_554 S
C219 C212 1.409 . S
C219 C218 1.362 . S
H220 C226 0.930 . S
H221 C229 0.930 . S
H222 C230 0.930 . S
H223 C231 0.930 . S
H224 C234 0.930 . S
H225 C235 0.930 . S
C226 H220 0.930 . S
C226 C227 1.355 . S
C226 C228 1.415 . S
C227 C226 1.355 . S
C227 C229 1.419 . S
C228 C226 1.415 . S
C228 C233 1.425 . S
C228 C235 1.409 . S
C229 H221 0.930 . S
C229 C227 1.419 . S
C229 C230 1.362 . S
C230 H222 0.930 . S
C230 C229 1.362 . S
C230 C233 1.409 . S
C231 H223 0.930 . S
C231 C232 1.355 . S
C231 C233 1.415 . S
C232 C231 1.355 . S
C232 C234 1.419 . S
C233 C228 1.425 . S
C233 C230 1.409 . S
C233 C231 1.415 . S
C234 H224 0.930 . S
C234 C232 1.419 . S
C234 C235 1.362 . S
C235 H225 0.930 . S
C235 C228 1.409 . S
C235 C234 1.362 . S
H236 C242 0.930 . S
H237 C245 0.930 . S
H238 C246 0.930 . S
H239 C247 0.930 . S
H240 C250 0.930 . S
H241 C251 0.930 . S
C242 H236 0.930 . S
C242 C243 1.355 . S
C242 C244 1.415 . S
C243 C242 1.355 . S
C243 C245 1.419 . S
C244 C242 1.415 . S
C244 C249 1.425 . S
C244 C251 1.409 . S
C245 H237 0.930 . S
C245 C243 1.419 . S
C245 C246 1.362 . S
C246 H238 0.930 . S
C246 C245 1.362 . S
C246 C249 1.409 . S
C247 H239 0.930 . S
C247 C248 1.355 . S
C247 C249 1.415 . S
C248 C247 1.355 . S
C248 C250 1.419 . S
C249 C244 1.425 . S
C249 C246 1.409 . S
C249 C247 1.415 . S
C250 H240 0.930 . S
C250 C248 1.419 . S
C250 C251 1.362 . S
C251 H241 0.930 . S
C251 C244 1.409 . S
C251 C250 1.362 . S
H252 C258 0.930 1_554 S
H253 C261 0.930 . S
H254 C262 0.930 . S
H255 C263 0.930 . S
H256 C266 0.930 . S
H257 C267 0.930 . S
C258 H252 0.930 1_556 S
C258 C259 1.355 . S
C258 C260 1.415 . S
C259 C258 1.355 . S
C259 C261 1.419 . S
C260 C258 1.415 . S
C260 C265 1.425 . S
C260 C267 1.409 1_655 S
C261 H253 0.930 . S
C261 C259 1.419 . S
C261 C262 1.362 . S
C262 H254 0.930 . S
C262 C261 1.362 . S
C262 C265 1.409 . S
C263 H255 0.930 . S
C263 C264 1.355 . S
C263 C265 1.415 1_455 S
C264 C263 1.355 . S
C264 C266 1.419 . S
C265 C260 1.425 . S
C265 C262 1.409 . S
C265 C263 1.415 1_655 S
C266 H256 0.930 . S
C266 C264 1.419 . S
C266 C267 1.362 . S
C267 H257 0.930 . S
C267 C260 1.409 1_455 S
C267 C266 1.362 . S
H268 C274 0.930 . S
H269 C277 0.930 . S
H270 C278 0.930 . S
H271 C279 0.930 . S
H272 C282 0.930 . S
H273 C283 0.930 . S
C274 H268 0.930 . S
C274 C275 1.355 . S
C274 C276 1.415 . S
C275 C274 1.355 . S
C275 C277 1.419 . S
C276 C274 1.415 . S
C276 C281 1.425 . S
C276 C283 1.409 . S
C277 H269 0.930 . S
C277 C275 1.419 . S
C277 C278 1.362 . S
C278 H270 0.930 . S
C278 C277 1.362 . S
C278 C281 1.409 . S
C279 H271 0.930 . S
C279 C280 1.355 . S
C279 C281 1.415 . S
C280 C279 1.355 . S
C280 C282 1.419 . S
C281 C276 1.425 . S
C281 C278 1.409 . S
C281 C279 1.415 . S
C282 H272 0.930 . S
C282 C280 1.419 . S
C282 C283 1.362 . S
C283 H273 0.930 . S
C283 C276 1.409 . S
C283 C282 1.362 . S
H284 C290 0.930 . S
H285 C293 0.930 . S
H286 C294 0.930 . S
H287 C295 0.930 . S
H288 C298 0.930 . S
H289 C299 0.930 . S
C290 H284 0.930 . S
C290 C291 1.355 . S
C290 C292 1.415 . S
C291 C290 1.355 . S
C291 C293 1.419 . S
C292 C290 1.415 . S
C292 C297 1.425 . S
C292 C299 1.409 . S
C293 H285 0.930 . S
C293 C291 1.419 . S
C293 C294 1.362 1_455 S
C294 H286 0.930 . S
C294 C293 1.362 1_655 S
C294 C297 1.409 1_655 S
C295 H287 0.930 . S
C295 C296 1.355 . S
C295 C297 1.415 1_655 S
C296 C295 1.355 . S
C296 C298 1.419 1_655 S
C297 C292 1.425 . S
C297 C294 1.409 1_455 S
C297 C295 1.415 1_455 S
C298 H288 0.930 . S
C298 C296 1.419 1_455 S
C298 C299 1.362 . S
C299 H289 0.930 . S
C299 C292 1.409 . S
C299 C298 1.362 . S
H300 C306 0.930 . S
H301 C309 0.930 . S
H302 C310 0.930 . S
H303 C311 0.930 . S
H304 C314 0.930 . S
H305 C315 0.930 . S
C306 H300 0.930 . S
C306 C307 1.355 . S
C306 C308 1.415 1_545 S
C307 C306 1.355 . S
C307 C309 1.419 . S
C308 C306 1.415 1_565 S
C308 C313 1.425 1_565 S
C308 C315 1.409 . S
C309 H301 0.930 . S
C309 C307 1.419 . S
C309 C310 1.362 . S
C310 H302 0.930 . S
C310 C309 1.362 . S
C310 C313 1.409 . S
C311 H303 0.930 . S
C311 C312 1.355 . S
C311 C313 1.415 1_565 S
C312 C311 1.355 . S
C312 C314 1.419 . S
C313 C308 1.425 1_545 S
C313 C310 1.409 . S
C313 C311 1.415 1_545 S
C314 H304 0.930 . S
C314 C312 1.419 . S
C314 C315 1.362 . S
C315 H305 0.930 . S
C315 C308 1.409 . S
C315 C314 1.362 . S
H316 C322 0.930 . S
H317 C325 0.930 . S
H318 C326 0.930 . S
H319 C327 0.930 . S
H320 C330 0.930 . S
H321 C331 0.930 . S
C322 H316 0.930 . S
C322 C323 1.355 . S
C322 C324 1.415 . S
C323 C322 1.355 . S
C323 C325 1.419 . S
C324 C322 1.415 . S
C324 C329 1.425 . S
C324 C331 1.409 . S
C325 H317 0.930 . S
C325 C323 1.419 . S
C325 C326 1.362 . S
C326 H318 0.930 . S
C326 C325 1.362 . S
C326 C329 1.409 . S
C327 H319 0.930 . S
C327 C328 1.355 . S
C327 C329 1.415 . S
C328 C327 1.355 . S
C328 C330 1.419 . S
C329 C324 1.425 . S
C329 C326 1.409 . S
C329 C327 1.415 . S
C330 H320 0.930 . S
C330 C328 1.419 . S
C330 C331 1.362 . S
C331 H321 0.930 . S
C331 C324 1.409 . S
C331 C330 1.362 . S
H332 C338 0.930 . S
H333 C341 0.930 1_565 S
H334 C342 0.930 . S
H335 C343 0.930 . S
H336 C346 0.930 . S
H337 C347 0.930 . S
C338 H332 0.930 . S
C338 C339 1.372 . S
C338 C340 1.415 . S
C339 C338 1.372 . S
C339 C341 1.430 . S
C340 C338 1.415 . S
C340 C345 1.425 . S
C340 C347 1.409 . S
C341 H333 0.930 1_545 S
C341 C339 1.430 . S
C341 C342 1.362 . S
C342 H334 0.930 . S
C342 C341 1.362 . S
C342 C345 1.409 . S
C343 H335 0.930 . S
C343 C344 1.355 . S
C343 C345 1.415 . S
C344 C343 1.355 . S
C344 C346 1.419 . S
C345 C340 1.425 . S
C345 C342 1.409 . S
C345 C343 1.415 . S
C346 H336 0.930 . S
C346 C344 1.419 . S
C346 C347 1.362 . S
C347 H337 0.930 . S
C347 C340 1.409 . S
C347 C346 1.362 . S
H348 C354 0.930 . S
H349 C357 0.930 . S
H350 C358 0.930 . S
H351 C359 0.930 . S
H352 C362 0.930 . S
H353 C363 0.930 . S
C354 H348 0.930 . S
C354 C355 1.355 . S
C354 C356 1.415 . S
C355 C354 1.355 . S
C355 C357 1.419 . S
C356 C354 1.415 . S
C356 C361 1.425 . S
C356 C363 1.409 . S
C357 H349 0.930 . S
C357 C355 1.419 . S
C357 C358 1.362 . S
C358 H350 0.930 . S
C358 C357 1.362 . S
C358 C361 1.409 . S
C359 H351 0.930 . S
C359 C360 1.355 . S
C359 C361 1.415 . S
C360 C359 1.355 . S
C360 C362 1.419 . S
C361 C356 1.425 . S
C361 C358 1.409 . S
C361 C359 1.415 . S
C362 H352 0.930 . S
C362 C360 1.419 . S
C362 C363 1.362 . S
C363 H353 0.930 . S
C363 C356 1.409 . S
C363 C362 1.362 . S
H364 C370 0.930 . S
H365 C373 0.930 . S
H366 C374 0.930 . S
H367 C375 0.930 . S
H368 C378 0.930 . S
H369 C379 0.930 . S
C370 H364 0.930 . S
C370 C371 1.355 . S
C370 C372 1.415 . S
C371 C370 1.355 . S
C371 C373 1.419 . S
C372 C370 1.415 . S
C372 C377 1.425 . S
C372 C379 1.409 . S
C373 H365 0.930 . S
C373 C371 1.419 . S
C373 C374 1.362 . S
C374 H366 0.930 . S
C374 C373 1.362 . S
C374 C377 1.409 . S
C375 H367 0.930 . S
C375 C376 1.355 . S
C375 C377 1.415 . S
C376 C375 1.355 . S
C376 C378 1.419 . S
C377 C372 1.425 . S
C377 C374 1.409 . S
C377 C375 1.415 . S
C378 H368 0.930 . S
C378 C376 1.419 . S
C378 C379 1.362 . S
C379 H369 0.930 . S
C379 C372 1.409 . S
C379 C378 1.362 . S
H380 C386 0.930 . S
H381 C389 0.930 . S
H382 C390 0.930 . S
H383 C391 0.930 . S
H384 C394 0.930 . S
H385 C395 0.930 . S
C386 H380 0.930 . S
C386 C387 1.355 1_655 S
C386 C388 1.415 . S
C387 C386 1.355 1_455 S
C387 C389 1.419 . S
C388 C386 1.415 . S
C388 C393 1.425 . S
C388 C395 1.409 . S
C389 H381 0.930 . S
C389 C387 1.419 . S
C389 C390 1.362 1_455 S
C390 H382 0.930 . S
C390 C389 1.362 1_655 S
C390 C393 1.409 . S
C391 H383 0.930 . S
C391 C392 1.355 . S
C391 C393 1.415 . S
C392 C391 1.355 . S
C392 C394 1.419 . S
C393 C388 1.425 . S
C393 C390 1.409 . S
C393 C391 1.415 . S
C394 H384 0.930 . S
C394 C392 1.419 . S
C394 C395 1.362 . S
C395 H385 0.930 . S
C395 C388 1.409 . S
C395 C394 1.362 . S
H396 C402 0.930 . S
H397 C405 0.930 . S
H398 C406 0.930 . S
H399 C407 0.930 . S
H400 C410 0.930 . S
H401 C411 0.930 . S
C402 H396 0.930 . S
C402 C403 1.355 . S
C402 C404 1.415 . S
C403 C402 1.355 . S
C403 C405 1.419 . S
C404 C402 1.415 . S
C404 C409 1.425 . S
C404 C411 1.409 . S
C405 H397 0.930 . S
C405 C403 1.419 . S
C405 C406 1.362 . S
C406 H398 0.930 . S
C406 C405 1.362 . S
C406 C409 1.409 . S
C407 H399 0.930 . S
C407 C408 1.355 . S
C407 C409 1.415 . S
C408 C407 1.355 . S
C408 C410 1.419 . S
C409 C404 1.425 . S
C409 C406 1.409 . S
C409 C407 1.415 . S
C410 H400 0.930 . S
C410 C408 1.419 . S
C410 C411 1.362 . S
C411 H401 0.930 . S
C411 C404 1.409 . S
C411 C410 1.362 . S
H412 C418 0.930 . S
H413 C421 0.930 . S
H414 C422 0.930 . S
H415 C423 0.930 . S
H416 C426 0.930 . S
H417 C427 0.930 . S
C418 H412 0.930 . S
C418 C419 1.355 . S
C418 C420 1.415 . S
C419 C418 1.355 . S
C419 C421 1.419 . S
C420 C418 1.415 . S
C420 C425 1.425 1_655 S
C420 C427 1.409 . S
C421 H413 0.930 . S
C421 C419 1.419 . S
C421 C422 1.362 1_655 S
C422 H414 0.930 . S
C422 C421 1.362 1_455 S
C422 C425 1.409 . S
C423 H415 0.930 . S
C423 C424 1.355 . S
C423 C425 1.415 . S
C424 C423 1.355 . S
C424 C426 1.419 . S
C425 C420 1.425 1_455 S
C425 C422 1.409 . S
C425 C423 1.415 . S
C426 H416 0.930 . S
C426 C424 1.419 . S
C426 C427 1.362 1_455 S
C427 H417 0.930 . S
C427 C420 1.409 . S
C427 C426 1.362 1_655 S
H428 C434 0.930 . S
H429 C437 0.930 . S
H430 C438 0.930 . S
H431 C439 0.930 . S
H432 C442 0.930 . S
H433 C443 0.930 . S
C434 H428 0.930 . S
C434 C435 1.355 . S
C434 C436 1.415 . S
C435 C434 1.355 . S
C435 C437 1.419 . S
C436 C434 1.415 . S
C436 C441 1.425 . S
C436 C443 1.409 . S
C437 H429 0.930 . S
C437 C435 1.419 . S
C437 C438 1.362 . S
C438 H430 0.930 . S
C438 C437 1.362 . S
C438 C441 1.409 . S
C439 H431 0.930 . S
C439 C440 1.355 . S
C439 C441 1.415 . S
C440 C439 1.355 . S
C440 C442 1.419 . S
C441 C436 1.425 . S
C441 C438 1.409 . S
C441 C439 1.415 . S
C442 H432 0.930 . S
C442 C440 1.419 . S
C442 C443 1.362 . S
C443 H433 0.930 . S
C443 C436 1.409 . S
C443 C442 1.362 . S
H444 C450 0.930 . S
H445 C453 0.930 . S
H446 C454 0.930 . S
H447 C455 0.930 . S
H448 C458 0.930 . S
H449 C459 0.930 . S
C450 H444 0.930 . S
C450 C451 1.355 . S
C450 C452 1.415 . S
C451 C450 1.355 . S
C451 C453 1.419 . S
C452 C450 1.415 . S
C452 C457 1.425 . S
C452 C459 1.409 . S
C453 H445 0.930 . S
C453 C451 1.419 . S
C453 C454 1.362 . S
C454 H446 0.930 . S
C454 C453 1.362 . S
C454 C457 1.409 . S
C455 H447 0.930 . S
C455 C456 1.355 . S
C455 C457 1.415 . S
C456 C455 1.355 . S
C456 C458 1.419 . S
C457 C452 1.425 . S
C457 C454 1.409 . S
C457 C455 1.415 . S
C458 H448 0.930 . S
C458 C456 1.419 . S
C458 C459 1.362 . S
C459 H449 0.930 . S
C459 C452 1.409 . S
C459 C458 1.362 . S
H460 C466 0.930 . S
H461 C469 0.930 . S
H462 C470 0.930 . S
H463 C471 0.930 . S
H464 C474 0.930 . S
H465 C475 0.930 . S
C466 H460 0.930 . S
C466 C467 1.355 . S
C466 C468 1.415 . S
C467 C466 1.355 . S
C467 C469 1.419 . S
C468 C466 1.415 . S
C468 C473 1.425 . S
C468 C475 1.409 . S
C469 H461 0.930 . S
C469 C467 1.419 . S
C469 C470 1.362 . S
C470 H462 0.930 . S
C470 C469 1.362 . S
C470 C473 1.409 . S
C471 H463 0.930 . S
C471 C472 1.355 . S
C471 C473 1.415 . S
C472 C471 1.355 . S
C472 C474 1.419 . S
C473 C468 1.425 . S
C473 C470 1.409 . S
C473 C471 1.415 . S
C474 H464 0.930 . S
C474 C472 1.419 . S
C474 C475 1.362 . S
C475 H465 0.930 . S
C475 C468 1.409 . S
C475 C474 1.362 . S
H476 C482 0.930 . S
H477 C485 0.930 . S
H478 C486 0.930 . S
H479 C487 0.930 . S
H480 C490 0.930 . S
H481 C491 0.930 . S
C482 H476 0.930 . S
C482 C483 1.355 . S
C482 C484 1.415 . S
C483 C482 1.355 . S
C483 C485 1.419 . S
C484 C482 1.415 . S
C484 C489 1.425 . S
C484 C491 1.409 . S
C485 H477 0.930 . S
C485 C483 1.419 . S
C485 C486 1.362 . S
C486 H478 0.930 . S
C486 C485 1.362 . S
C486 C489 1.409 . S
C487 H479 0.930 . S
C487 C488 1.355 . S
C487 C489 1.415 . S
C488 C487 1.355 . S
C488 C490 1.419 . S
C489 C484 1.425 . S
C489 C486 1.409 . S
C489 C487 1.415 . S
C490 H480 0.930 . S
C490 C488 1.419 . S
C490 C491 1.362 . S
C491 H481 0.930 . S
C491 C484 1.409 . S
C491 C490 1.362 . S
H492 C498 0.930 . S
H493 C501 0.930 . S
H494 C502 0.930 . S
H495 C503 0.930 . S
H496 C506 0.930 . S
H497 C507 0.930 . S
C498 H492 0.930 . S
C498 C499 1.355 . S
C498 C500 1.415 . S
C499 C498 1.355 . S
C499 C501 1.419 . S
C500 C498 1.415 . S
C500 C505 1.425 . S
C500 C507 1.409 . S
C501 H493 0.930 . S
C501 C499 1.419 . S
C501 C502 1.362 . S
C502 H494 0.930 . S
C502 C501 1.362 . S
C502 C505 1.409 . S
C503 H495 0.930 . S
C503 C504 1.355 . S
C503 C505 1.415 . S
C504 C503 1.355 . S
C504 C506 1.419 . S
C505 C500 1.425 . S
C505 C502 1.409 . S
C505 C503 1.415 . S
C506 H496 0.930 . S
C506 C504 1.419 . S
C506 C507 1.362 . S
C507 H497 0.930 . S
C507 C500 1.409 . S
C507 C506 1.362 . S
H508 C514 0.930 . S
H509 C517 0.930 . S
H510 C518 0.930 . S
H511 C519 0.930 . S
H512 C522 0.930 . S
H513 C523 0.930 . S
C514 H508 0.930 . S
C514 C515 1.355 . S
C514 C516 1.415 . S
C515 C514 1.355 . S
C515 C517 1.419 . S
C516 C514 1.415 . S
C516 C521 1.425 . S
C516 C523 1.409 . S
C517 H509 0.930 . S
C517 C515 1.419 . S
C517 C518 1.362 . S
C518 H510 0.930 . S
C518 C517 1.362 . S
C518 C521 1.409 . S
C519 H511 0.930 . S
C519 C520 1.355 . S
C519 C521 1.415 . S
C520 C519 1.355 . S
C520 C522 1.419 . S
C521 C516 1.425 . S
C521 C518 1.409 . S
C521 C519 1.415 . S
C522 H512 0.930 . S
C522 C520 1.419 . S
C522 C523 1.362 . S
C523 H513 0.930 . S
C523 C516 1.409 . S
C523 C522 1.362 . S
H524 C530 0.930 . S
H525 C533 0.930 . S
H526 C534 0.930 . S
H527 C535 0.930 . S
H528 C538 0.930 . S
H529 C539 0.930 . S
C530 H524 0.930 . S
C530 C531 1.355 . S
C530 C532 1.415 . S
C531 C530 1.355 . S
C531 C533 1.419 . S
C532 C530 1.415 . S
C532 C537 1.425 . S
C532 C539 1.409 . S
C533 H525 0.930 . S
C533 C531 1.419 . S
C533 C534 1.362 . S
C534 H526 0.930 . S
C534 C533 1.362 . S
C534 C537 1.409 . S
C535 H527 0.930 . S
C535 C536 1.355 . S
C535 C537 1.415 . S
C536 C535 1.355 . S
C536 C538 1.419 . S
C537 C532 1.425 . S
C537 C534 1.409 . S
C537 C535 1.415 . S
C538 H528 0.930 . S
C538 C536 1.419 . S
C538 C539 1.362 . S
C539 H529 0.930 . S
C539 C532 1.409 . S
C539 C538 1.362 . S
H540 C546 0.930 . S
H541 C549 0.930 . S
H542 C550 0.930 . S
H543 C551 0.930 . S
H544 C554 0.930 . S
H545 C555 0.930 . S
C546 H540 0.930 . S
C546 C547 1.355 . S
C546 C548 1.415 . S
C547 C546 1.355 . S
C547 C549 1.419 . S
C548 C546 1.415 . S
C548 C553 1.425 . S
C548 C555 1.409 . S
C549 H541 0.930 . S
C549 C547 1.419 . S
C549 C550 1.362 . S
C550 H542 0.930 . S
C550 C549 1.362 . S
C550 C553 1.409 . S
C551 H543 0.930 . S
C551 C552 1.355 . S
C551 C553 1.415 . S
C552 C551 1.355 . S
C552 C554 1.419 . S
C553 C548 1.425 . S
C553 C550 1.409 . S
C553 C551 1.415 . S
C554 H544 0.930 . S
C554 C552 1.419 . S
C554 C555 1.362 . S
C555 H545 0.930 . S
C555 C548 1.409 . S
C555 C554 1.362 . S
C179 C7 1.080 . S
C184 C91 1.119 . S
C195 C25 1.077 . S
C200 C100 0.799 . S
C211 C46 0.737 . S
C216 C111 0.814 . S
C232 C122 0.666 . S
C227 C70 0.716 . S
C248 C135 0.720 . S
C243 C28 0.752 . S
C259 C49 0.747 . S
C264 C144 0.694 . S
C275 C67 0.792 . S
C280 C155 0.832 . S
C291 C4 1.046 . S
C296 C168 1.110 . S
C307 C58 1.351 . S
C312 C166 1.135 . S
C328 C133 1.479 . S
C323 C66 1.568 . S
C344 C146 1.951 . S
C339 C3 1.887 1_545 S
C355 C37 1.938 . S
C360 C157 2.032 . S
C376 C102 1.795 . S
C371 C79 1.740 . S
C387 C16 1.873 . S
C392 C113 1.947 . S
C408 C124 1.768 . S
C403 C24 1.610 . S
C424 C89 1.268 . S
C419 C45 1.435 . S
C440 C158 1.491 . S
C435 C19 1.343 . S
C456 C169 1.465 . S
C451 C41 1.423 . S
C467 C62 1.084 . S
C472 C136 1.250 . S
C488 C147 1.383 . S
C483 C82 1.245 . S
C504 C114 1.439 . S
C499 C40 1.296 . S
C515 C61 1.133 . S
C520 C125 1.194 . S
C536 C92 1.448 . S
C531 C83 1.350 . S
C552 C103 1.523 . S
C547 C20 1.344 . S
