# Generated by pormake.
# Topology cor, (4,6)-cn, num edge types: 1
# Building blocks:
#     Node 0, Type 0, BuildingBlock: KUFVIS_clean_sbu_0, # of connection points: 4
#     Node 1, Type 0, BuildingBlock: KUFVIS_clean_sbu_0, # of connection points: 4
#     Node 2, Type 0, BuildingBlock: KUFVIS_clean_sbu_0, # of connection points: 4
#     Node 3, Type 0, BuildingBlock: KUFVIS_clean_sbu_0, # of connection points: 4
#     Node 4, Type 0, BuildingBlock: KUFVIS_clean_sbu_0, # of connection points: 4
#     Node 5, Type 0, BuildingBlock: KUFVIS_clean_sbu_0, # of connection points: 4
#     Node 6, Type 0, BuildingBlock: KUFVIS_clean_sbu_0, # of connection points: 4
#     Node 7, Type 0, BuildingBlock: KUFVIS_clean_sbu_0, # of connection points: 4
#     Node 8, Type 0, BuildingBlock: KUFVIS_clean_sbu_0, # of connection points: 4
#     Node 9, Type 0, BuildingBlock: KUFVIS_clean_sbu_0, # of connection points: 4
#     Node 10, Type 0, BuildingBlock: KUFVIS_clean_sbu_0, # of connection points: 4
#     Node 11, Type 0, BuildingBlock: KUFVIS_clean_sbu_0, # of connection points: 4
#     Node 12, Type 0, BuildingBlock: KUFVIS_clean_sbu_0, # of connection points: 4
#     Node 13, Type 0, BuildingBlock: KUFVIS_clean_sbu_0, # of connection points: 4
#     Node 14, Type 0, BuildingBlock: KUFVIS_clean_sbu_0, # of connection points: 4
#     Node 15, Type 0, BuildingBlock: KUFVIS_clean_sbu_0, # of connection points: 4
#     Node 16, Type 0, BuildingBlock: KUFVIS_clean_sbu_0, # of connection points: 4
#     Node 17, Type 0, BuildingBlock: KUFVIS_clean_sbu_0, # of connection points: 4
#     Node 18, Type 1, BuildingBlock: MIDCAF_clean_sbu_0, # of connection points: 6
#     Node 19, Type 1, BuildingBlock: MIDCAF_clean_sbu_0, # of connection points: 6
#     Node 20, Type 1, BuildingBlock: MIDCAF_clean_sbu_0, # of connection points: 6
#     Node 21, Type 1, BuildingBlock: MIDCAF_clean_sbu_0, # of connection points: 6
#     Node 22, Type 1, BuildingBlock: MIDCAF_clean_sbu_0, # of connection points: 6
#     Node 23, Type 1, BuildingBlock: MIDCAF_clean_sbu_0, # of connection points: 6
#     Node 24, Type 1, BuildingBlock: MIDCAF_clean_sbu_0, # of connection points: 6
#     Node 25, Type 1, BuildingBlock: MIDCAF_clean_sbu_0, # of connection points: 6
#     Node 26, Type 1, BuildingBlock: MIDCAF_clean_sbu_0, # of connection points: 6
#     Node 27, Type 1, BuildingBlock: MIDCAF_clean_sbu_0, # of connection points: 6
#     Node 28, Type 1, BuildingBlock: MIDCAF_clean_sbu_0, # of connection points: 6
#     Node 29, Type 1, BuildingBlock: MIDCAF_clean_sbu_0, # of connection points: 6
#     Edge 30, Type (0, 1), BuildingBlock: XUDNAN_clean_linker_2, # of connection points: 2
#     Edge 31, Type (0, 1), BuildingBlock: XUDNAN_clean_linker_2, # of connection points: 2
#     Edge 32, Type (0, 1), BuildingBlock: XUDNAN_clean_linker_2, # of connection points: 2
#     Edge 33, Type (0, 1), BuildingBlock: XUDNAN_clean_linker_2, # of connection points: 2
#     Edge 34, Type (0, 1), BuildingBlock: XUDNAN_clean_linker_2, # of connection points: 2
#     Edge 35, Type (0, 1), BuildingBlock: XUDNAN_clean_linker_2, # of connection points: 2
#     Edge 36, Type (0, 1), BuildingBlock: XUDNAN_clean_linker_2, # of connection points: 2
#     Edge 37, Type (0, 1), BuildingBlock: XUDNAN_clean_linker_2, # of connection points: 2
#     Edge 38, Type (0, 1), BuildingBlock: XUDNAN_clean_linker_2, # of connection points: 2
#     Edge 39, Type (0, 1), BuildingBlock: XUDNAN_clean_linker_2, # of connection points: 2
#     Edge 40, Type (0, 1), BuildingBlock: XUDNAN_clean_linker_2, # of connection points: 2
#     Edge 41, Type (0, 1), BuildingBlock: XUDNAN_clean_linker_2, # of connection points: 2
#     Edge 42, Type (0, 1), BuildingBlock: XUDNAN_clean_linker_2, # of connection points: 2
#     Edge 43, Type (0, 1), BuildingBlock: XUDNAN_clean_linker_2, # of connection points: 2
#     Edge 44, Type (0, 1), BuildingBlock: XUDNAN_clean_linker_2, # of connection points: 2
#     Edge 45, Type (0, 1), BuildingBlock: XUDNAN_clean_linker_2, # of connection points: 2
#     Edge 46, Type (0, 1), BuildingBlock: XUDNAN_clean_linker_2, # of connection points: 2
#     Edge 47, Type (0, 1), BuildingBlock: XUDNAN_clean_linker_2, # of connection points: 2
#     Edge 48, Type (0, 1), BuildingBlock: XUDNAN_clean_linker_2, # of connection points: 2
#     Edge 49, Type (0, 1), BuildingBlock: XUDNAN_clean_linker_2, # of connection points: 2
#     Edge 50, Type (0, 1), BuildingBlock: XUDNAN_clean_linker_2, # of connection points: 2
#     Edge 51, Type (0, 1), BuildingBlock: XUDNAN_clean_linker_2, # of connection points: 2
#     Edge 52, Type (0, 1), BuildingBlock: XUDNAN_clean_linker_2, # of connection points: 2
#     Edge 53, Type (0, 1), BuildingBlock: XUDNAN_clean_linker_2, # of connection points: 2
#     Edge 54, Type (0, 1), BuildingBlock: XUDNAN_clean_linker_2, # of connection points: 2
#     Edge 55, Type (0, 1), BuildingBlock: XUDNAN_clean_linker_2, # of connection points: 2
#     Edge 56, Type (0, 1), BuildingBlock: XUDNAN_clean_linker_2, # of connection points: 2
#     Edge 57, Type (0, 1), BuildingBlock: XUDNAN_clean_linker_2, # of connection points: 2
#     Edge 58, Type (0, 1), BuildingBlock: XUDNAN_clean_linker_2, # of connection points: 2
#     Edge 59, Type (0, 1), BuildingBlock: XUDNAN_clean_linker_2, # of connection points: 2
#     Edge 60, Type (0, 1), BuildingBlock: XUDNAN_clean_linker_2, # of connection points: 2
#     Edge 61, Type (0, 1), BuildingBlock: XUDNAN_clean_linker_2, # of connection points: 2
#     Edge 62, Type (0, 1), BuildingBlock: XUDNAN_clean_linker_2, # of connection points: 2
#     Edge 63, Type (0, 1), BuildingBlock: XUDNAN_clean_linker_2, # of connection points: 2
#     Edge 64, Type (0, 1), BuildingBlock: XUDNAN_clean_linker_2, # of connection points: 2
#     Edge 65, Type (0, 1), BuildingBlock: XUDNAN_clean_linker_2, # of connection points: 2
#     Edge 66, Type (0, 1), BuildingBlock: XUDNAN_clean_linker_2, # of connection points: 2
#     Edge 67, Type (0, 1), BuildingBlock: XUDNAN_clean_linker_2, # of connection points: 2
#     Edge 68, Type (0, 1), BuildingBlock: XUDNAN_clean_linker_2, # of connection points: 2
#     Edge 69, Type (0, 1), BuildingBlock: XUDNAN_clean_linker_2, # of connection points: 2
#     Edge 70, Type (0, 1), BuildingBlock: XUDNAN_clean_linker_2, # of connection points: 2
#     Edge 71, Type (0, 1), BuildingBlock: XUDNAN_clean_linker_2, # of connection points: 2
#     Edge 72, Type (0, 1), BuildingBlock: XUDNAN_clean_linker_2, # of connection points: 2
#     Edge 73, Type (0, 1), BuildingBlock: XUDNAN_clean_linker_2, # of connection points: 2
#     Edge 74, Type (0, 1), BuildingBlock: XUDNAN_clean_linker_2, # of connection points: 2
#     Edge 75, Type (0, 1), BuildingBlock: XUDNAN_clean_linker_2, # of connection points: 2
#     Edge 76, Type (0, 1), BuildingBlock: XUDNAN_clean_linker_2, # of connection points: 2
#     Edge 77, Type (0, 1), BuildingBlock: XUDNAN_clean_linker_2, # of connection points: 2
#     Edge 78, Type (0, 1), BuildingBlock: XUDNAN_clean_linker_2, # of connection points: 2
#     Edge 79, Type (0, 1), BuildingBlock: XUDNAN_clean_linker_2, # of connection points: 2
#     Edge 80, Type (0, 1), BuildingBlock: XUDNAN_clean_linker_2, # of connection points: 2
#     Edge 81, Type (0, 1), BuildingBlock: XUDNAN_clean_linker_2, # of connection points: 2
#     Edge 82, Type (0, 1), BuildingBlock: XUDNAN_clean_linker_2, # of connection points: 2
#     Edge 83, Type (0, 1), BuildingBlock: XUDNAN_clean_linker_2, # of connection points: 2
#     Edge 84, Type (0, 1), BuildingBlock: XUDNAN_clean_linker_2, # of connection points: 2
#     Edge 85, Type (0, 1), BuildingBlock: XUDNAN_clean_linker_2, # of connection points: 2
#     Edge 86, Type (0, 1), BuildingBlock: XUDNAN_clean_linker_2, # of connection points: 2
#     Edge 87, Type (0, 1), BuildingBlock: XUDNAN_clean_linker_2, # of connection points: 2
#     Edge 88, Type (0, 1), BuildingBlock: XUDNAN_clean_linker_2, # of connection points: 2
#     Edge 89, Type (0, 1), BuildingBlock: XUDNAN_clean_linker_2, # of connection points: 2
#     Edge 90, Type (0, 1), BuildingBlock: XUDNAN_clean_linker_2, # of connection points: 2
#     Edge 91, Type (0, 1), BuildingBlock: XUDNAN_clean_linker_2, # of connection points: 2
#     Edge 92, Type (0, 1), BuildingBlock: XUDNAN_clean_linker_2, # of connection points: 2
#     Edge 93, Type (0, 1), BuildingBlock: XUDNAN_clean_linker_2, # of connection points: 2
#     Edge 94, Type (0, 1), BuildingBlock: XUDNAN_clean_linker_2, # of connection points: 2
#     Edge 95, Type (0, 1), BuildingBlock: XUDNAN_clean_linker_2, # of connection points: 2
#     Edge 96, Type (0, 1), BuildingBlock: XUDNAN_clean_linker_2, # of connection points: 2
#     Edge 97, Type (0, 1), BuildingBlock: XUDNAN_clean_linker_2, # of connection points: 2
#     Edge 98, Type (0, 1), BuildingBlock: XUDNAN_clean_linker_2, # of connection points: 2
#     Edge 99, Type (0, 1), BuildingBlock: XUDNAN_clean_linker_2, # of connection points: 2
#     Edge 100, Type (0, 1), BuildingBlock: XUDNAN_clean_linker_2, # of connection points: 2
#     Edge 101, Type (0, 1), BuildingBlock: XUDNAN_clean_linker_2, # of connection points: 2
# Relax obj value: 0.120
# Max RMSD: 0.161
# Mean RMSD: 0.124
data_MOF--net-cor--node1-KUFVIS_clean_sbu_0--node2-MIDCAF_clean_sbu_0--edge1-XUDNAN_clean_linker_2
_symmetry_space_group_name_H-M    P1
_symmetry_Int_Tables_number       1
_symmetry_cell_setting            triclinic
loop_
_symmetry_equiv_pos_as_xyz
'x, y, z'
_cell_length_a     38.349409
_cell_length_b     38.200583
_cell_length_c     100.05688
_cell_angle_alpha  89.780969
_cell_angle_beta   90.60555
_cell_angle_gamma 120.07094
loop_
_atom_site_label
_atom_site_type_symbol
_atom_site_fract_x
_atom_site_fract_y
_atom_site_fract_z
_atom_type_partial_charge
Mn0 Mn 0.73789 1.00038 0.25992 0.0
Mn1 Mn 0.82448 0.08793 0.26467 0.0
C2 C 0.78307 0.00444 0.2761 0.0
C3 C 0.67118 0.95772 0.26603 0.0
C4 C 0.8103 0.03154 0.24133 0.0
O5 O 0.72678 0.04078 0.25034 0.0
O6 O 0.78523 0.09839 0.25457 0.0
C7 C 0.79501 0.1277 0.28304 0.0
N8 N 0.82054 0.11353 0.28048 0.0
C9 C 0.85139 0.13392 0.30226 0.0
C10 C 0.82559 0.14896 0.3051 0.0
C11 C 0.79728 0.14581 0.29545 0.0
C12 C 0.84804 0.11658 0.28967 0.0
H13 H 0.77304 0.12508 0.27567 0.0
C14 C 0.7499 0.07896 0.24922 0.0
O15 O 0.68429 0.95319 0.25458 0.0
O16 O 0.69583 0.98848 0.27321 0.0
N17 N 0.86464 0.08197 0.27426 0.0
C18 C 0.88551 0.06371 0.27024 0.0
C19 C 0.91407 0.06286 0.27893 0.0
C20 C 0.92099 0.08092 0.29162 0.0
C21 C 0.89935 0.09979 0.29548 0.0
C22 C 0.87148 0.09995 0.28636 0.0
H23 H 0.88007 0.04952 0.26054 0.0
O24 O 0.75691 0.96986 0.27103 0.0
O25 O 0.7823 0.03591 0.27139 0.0
O26 O 0.77454 0.00418 0.2444 0.0
O27 O 0.83136 0.0633 0.24838 0.0
C28 C 0.90364 0.1176 0.30815 0.0
C29 C 0.8797 0.13467 0.31153 0.0
H30 H 0.82701 0.16264 0.3147 0.0
H31 H 0.77713 0.15717 0.29759 0.0
H32 H 0.93052 0.04808 0.2759 0.0
H33 H 0.94273 0.07982 0.29835 0.0
H34 H 0.92486 0.11782 0.31542 0.0
H35 H 0.88292 0.14782 0.32136 0.0
Mn36 Mn 0.99312 0.73961 0.25527 0.0
Mn37 Mn 0.07686 0.82713 0.24735 0.0
C38 C 0.98732 0.7858 0.24188 0.0
C39 C 0.94757 0.67114 0.2516 0.0
C40 C 0.03598 0.81314 0.27407 0.0
O41 O 0.03765 0.72846 0.2605 0.0
O42 O 0.09172 0.78771 0.25481 0.0
C43 C 0.10465 0.79649 0.22518 0.0
N44 N 0.09374 0.82303 0.22985 0.0
C45 C 0.11675 0.86301 0.20985 0.0
C46 C 0.12816 0.83608 0.20478 0.0
C47 C 0.12168 0.80242 0.21242 0.0
C48 C 0.09861 0.8547 0.2224 0.0
H49 H 0.10082 0.77132 0.23121 0.0
C50 C 0.07552 0.75209 0.25978 0.0
O51 O 0.95254 0.68757 0.26331 0.0
O52 O 0.96983 0.69431 0.24202 0.0
N53 N 0.06889 0.86899 0.24012 0.0
C54 C 0.05543 0.89153 0.24637 0.0
C55 C 0.05815 0.92543 0.23985 0.0
C56 C 0.07626 0.93677 0.22724 0.0
C57 C 0.09082 0.91365 0.22116 0.0
C58 C 0.08567 0.87922 0.22788 0.0
H59 H 0.04284 0.88372 0.25628 0.0
O60 O 0.95679 0.75816 0.24838 0.0
O61 O 0.02101 0.78511 0.243 0.0
O62 O 0.0079 0.77698 0.27168 0.0
O63 O 0.06243 0.83501 0.26548 0.0
C64 C 0.11076 0.92371 0.20878 0.0
C65 C 0.12335 0.89819 0.20306 0.0
H66 H 0.14209 0.84104 0.19507 0.0
H67 H 0.13053 0.78158 0.20861 0.0
H68 H 0.04715 0.9433 0.24466 0.0
H69 H 0.0791 0.96343 0.22236 0.0
H70 H 0.11577 0.95053 0.20344 0.0
H71 H 0.13788 0.90579 0.19342 0.0
Mn72 Mn 0.29155 0.27586 0.26219 0.0
Mn73 Mn 0.28758 0.18721 0.26825 0.0
C74 C 0.24833 0.23249 0.27825 0.0
C75 C 0.31584 0.34369 0.26791 0.0
C76 C 0.24778 0.20054 0.2442 0.0
O77 O 0.34338 0.28484 0.25338 0.0
O78 O 0.33613 0.22333 0.25743 0.0
C79 C 0.3585 0.21857 0.28631 0.0
N80 N 0.31843 0.19319 0.28406 0.0
C81 C 0.30956 0.16565 0.30625 0.0
C82 C 0.35082 0.19132 0.30878 0.0
C83 C 0.37537 0.21791 0.29877 0.0
C84 C 0.29454 0.1674 0.2936 0.0
H85 H 0.37736 0.23919 0.27865 0.0
C86 C 0.35445 0.25855 0.25203 0.0
O87 O 0.29934 0.32977 0.25626 0.0
O88 O 0.32151 0.31942 0.27545 0.0
N89 N 0.24202 0.14943 0.27838 0.0
C90 C 0.20249 0.12856 0.27458 0.0
C91 C 0.17361 0.10164 0.28362 0.0
C92 C 0.18572 0.09628 0.2964 0.0
C93 C 0.22665 0.11784 0.30002 0.0
C94 C 0.25407 0.14407 0.29057 0.0
H95 H 0.19306 0.13281 0.26479 0.0
O96 O 0.24154 0.2589 0.2725 0.0
O97 O 0.28021 0.23172 0.27425 0.0
O98 O 0.25881 0.23762 0.24657 0.0
O99 O 0.25517 0.17844 0.25198 0.0
C100 C 0.2412 0.11511 0.31274 0.0
C101 C 0.28262 0.139 0.31586 0.0
H102 H 0.36389 0.19112 0.31841 0.0
H103 H 0.40718 0.23795 0.30068 0.0
H104 H 0.14208 0.08524 0.28077 0.0
H105 H 0.16332 0.07579 0.30338 0.0
H106 H 0.22071 0.09516 0.32027 0.0
H107 H 0.29336 0.13701 0.32573 0.0
Mn108 Mn 0.29765 0.03118 0.75239 0.0
Mn109 Mn 0.20535 0.94819 0.75024 0.0
C110 C 0.24725 0.03392 0.74044 0.0
C111 C 0.36217 0.07116 0.74354 0.0
C112 C 0.23491 1.00218 0.77476 0.0
O113 O 0.30802 0.98685 0.75898 0.0
O114 O 0.24547 0.93298 0.7567 0.0
C115 C 0.22108 0.90697 0.72812 0.0
N116 N 0.19948 0.9231 0.73326 0.0
C117 C 0.15386 0.89997 0.71443 0.0
C118 C 0.17559 0.88307 0.70892 0.0
C119 C 0.20952 0.88684 0.71575 0.0
C120 C 0.16735 0.92043 0.72664 0.0
H121 H 0.24676 0.90925 0.73347 0.0
C122 C 0.28265 0.94922 0.76019 0.0
O123 O 0.35488 0.07452 0.756 0.0
O124 O 0.33291 0.04289 0.73667 0.0
N125 N 0.16319 0.95758 0.74429 0.0
C126 C 0.14581 0.97594 0.75091 0.0
C127 C 0.11229 0.97614 0.7452 0.0
C128 C 0.09628 0.95644 0.73295 0.0
C129 C 0.11411 0.93691 0.72648 0.0
C130 C 0.14803 0.93857 0.7325 0.0
H131 H 0.15755 0.99044 0.76046 0.0
O132 O 0.27853 0.06651 0.74479 0.0
O133 O 0.24659 1.00001 0.74293 0.0
O134 O 0.26986 0.02766 0.77033 0.0
O135 O 0.20855 0.97224 0.7679 0.0
C136 C 0.09928 0.91546 0.71439 0.0
C137 C 0.11918 0.89707 0.70835 0.0
H138 H 0.16648 0.86711 0.69946 0.0
H139 H 0.22644 0.87387 0.71157 0.0
H140 H 0.09853 0.99103 0.7503 0.0
H141 H 0.07014 0.95623 0.72865 0.0
H142 H 0.07292 0.91341 0.70955 0.0
H143 H 0.1078 0.88114 0.69896 0.0
Mn144 Mn 0.02892 0.30023 0.74567 0.0
Mn145 Mn 0.11025 0.28904 0.74324 0.0
C146 C 0.02392 0.24635 0.73369 0.0
C147 C 0.98897 0.32583 0.73748 0.0
C148 C 0.05778 0.26371 0.76765 0.0
O149 O 0.07376 0.35466 0.75213 0.0
O150 O 0.12596 0.34355 0.75086 0.0
C151 C 0.15183 0.35011 0.72214 0.0
N152 N 0.13562 0.31136 0.72658 0.0
C153 C 0.1597 0.29242 0.70738 0.0
C154 C 0.17667 0.33214 0.70258 0.0
C155 C 0.17245 0.36103 0.70995 0.0
C156 C 0.13866 0.28311 0.71942 0.0
H157 H 0.14928 0.37254 0.72792 0.0
C158 C 0.11062 0.36534 0.75417 0.0
O159 O 0.98701 0.31492 0.7499 0.0
O160 O 0.01589 0.32436 0.73018 0.0
N161 N 0.10092 0.23845 0.73629 0.0
C162 C 0.08244 0.20144 0.74227 0.0
C163 C 0.08268 0.16877 0.73596 0.0
C164 C 0.10312 0.17482 0.72384 0.0
C165 C 0.12282 0.21345 0.71807 0.0
C166 C 0.12047 0.24453 0.7246 0.0
H167 H 0.06754 0.19693 0.75174 0.0
O168 O 0.99236 0.24598 0.73831 0.0
O169 O 0.05846 0.2794 0.73589 0.0
O170 O 0.03376 0.27564 0.76351 0.0
O171 O 0.08598 0.2652 0.76054 0.0
C172 C 0.14509 0.22246 0.70619 0.0
C173 C 0.16327 0.26185 0.70079 0.0
H174 H 0.19309 0.34081 0.69328 0.0
H175 H 0.18551 0.39175 0.70633 0.0
H176 H 0.06766 0.13912 0.74053 0.0
H177 H 0.10371 0.14968 0.7191 0.0
H178 H 0.14791 0.19917 0.701 0.0
H179 H 0.17977 0.26823 0.69153 0.0
Mn180 Mn 0.75183 0.76678 0.7593 0.0
Mn181 Mn 0.84064 0.77024 0.76389 0.0
C182 C 0.79975 0.81494 0.77338 0.0
C183 C 0.68574 0.7416 0.76705 0.0
C184 C 0.82286 0.8076 0.73985 0.0
O185 O 0.74035 0.71332 0.75123 0.0
O186 O 0.80085 0.71875 0.75487 0.0
C187 C 0.81364 0.70347 0.78342 0.0
N188 N 0.83907 0.74275 0.78004 0.0
C189 C 0.88052 0.75318 0.7995 0.0
C190 C 0.85479 0.71282 0.80321 0.0
C191 C 0.82098 0.68797 0.7952 0.0
C192 C 0.87097 0.76723 0.78787 0.0
H193 H 0.7882 0.68405 0.77711 0.0
C194 C 0.7647 0.69994 0.75027 0.0
O195 O 0.69565 0.75647 0.75505 0.0
O196 O 0.71309 0.73906 0.77387 0.0
N197 N 0.8827 0.81755 0.77243 0.0
C198 C 0.90371 0.85606 0.76765 0.0
C199 C 0.9375 0.88526 0.7748 0.0
C200 C 0.95014 0.87422 0.78651 0.0
C201 C 0.92844 0.83421 0.79109 0.0
C202 C 0.89421 0.80681 0.7838 0.0
H203 H 0.89463 0.86442 0.7585 0.0
O204 O 0.77067 0.81891 0.76843 0.0
O205 O 0.7994 0.7815 0.7704 0.0
O206 O 0.78612 0.79678 0.7426 0.0
O207 O 0.84515 0.79955 0.74731 0.0
C208 C 0.93965 0.8203 0.80251 0.0
C209 C 0.91555 0.77989 0.80677 0.0
H210 H 0.86076 0.70058 0.81216 0.0
H211 H 0.80101 0.65678 0.79798 0.0
H212 H 0.95416 0.91604 0.77117 0.0
H213 H 0.97662 0.89666 0.79187 0.0
H214 H 0.96631 0.84066 0.80825 0.0
H215 H 0.92405 0.76977 0.81571 0.0
Mn216 Mn 0.42155 0.34723 0.58838 0.0
Mn217 Mn 0.51429 0.42783 0.59217 0.0
C218 C 0.46924 0.34305 0.6016 0.0
C219 C 0.35556 0.30174 0.59479 0.0
C220 C 0.4894 0.3767 0.56752 0.0
O221 O 0.41146 0.39275 0.58268 0.0
O222 O 0.47666 0.44234 0.58325 0.0
C223 C 0.49399 0.473 0.61159 0.0
N224 N 0.51626 0.45569 0.60822 0.0
C225 C 0.56034 0.48574 0.6272 0.0
C226 C 0.53782 0.50381 0.63092 0.0
C227 C 0.50425 0.49707 0.62315 0.0
C228 C 0.54786 0.46101 0.61583 0.0
H229 H 0.46892 0.46888 0.60543 0.0
C230 C 0.43947 0.4289 0.58032 0.0
O231 O 0.36722 0.30397 0.58253 0.0
O232 O 0.38099 0.32874 0.60307 0.0
N233 N 0.55406 0.41877 0.60056 0.0
C234 C 0.5716 0.39793 0.59584 0.0
C235 C 0.6043 0.39959 0.60286 0.0
C236 C 0.61947 0.42377 0.61438 0.0
C237 C 0.60132 0.4455 0.6189 0.0
C238 C 0.56787 0.44141 0.61178 0.0
H239 H 0.56071 0.38029 0.58677 0.0
O240 O 0.44063 0.31142 0.59568 0.0
O241 O 0.47019 0.37717 0.59935 0.0
O242 O 0.45258 0.355 0.57088 0.0
O243 O 0.51641 0.40231 0.5754 0.0
C244 C 0.61541 0.4715 0.63008 0.0
C245 C 0.59486 0.49151 0.63425 0.0
H246 H 0.54607 0.52296 0.63969 0.0
H247 H 0.48679 0.51099 0.62593 0.0
H248 H 0.61827 0.3829 0.59927 0.0
H249 H 0.6452 0.42562 0.61963 0.0
H250 H 0.64158 0.47574 0.63568 0.0
H251 H 0.60553 0.51084 0.643 0.0
Mn252 Mn 0.69645 0.0928 0.58397 0.0
Mn253 Mn 0.7807 0.18398 0.58196 0.0
C254 C 0.69611 0.14334 0.57132 0.0
C255 C 0.65494 0.02781 0.57528 0.0
C256 C 0.72577 0.15766 0.60593 0.0
O257 O 0.73916 0.08089 0.59114 0.0
O258 O 0.79381 0.14304 0.5892 0.0
C259 C 0.82305 0.16566 0.561 0.0
N260 N 0.80723 0.1883 0.56549 0.0
C261 C 0.83579 0.23489 0.54719 0.0
C262 C 0.85238 0.21206 0.54233 0.0
C263 C 0.84568 0.17709 0.54921 0.0
C264 C 0.81263 0.22138 0.55878 0.0
H265 H 0.81875 0.13934 0.56644 0.0
C266 C 0.77675 0.10575 0.59268 0.0
O267 O 0.65169 0.03633 0.58762 0.0
O268 O 0.68395 0.05602 0.56847 0.0
N269 N 0.77315 0.22666 0.57524 0.0
C270 C 0.75393 0.24446 0.58104 0.0
C271 C 0.75586 0.27868 0.57503 0.0
C272 C 0.77852 0.29491 0.56338 0.0
C273 C 0.79859 0.27642 0.55774 0.0
C274 C 0.79454 0.24169 0.56394 0.0
H275 H 0.73729 0.23262 0.59017 0.0
O276 O 0.66304 0.1133 0.57579 0.0
O277 O 0.72916 0.14291 0.57422 0.0
O278 O 0.70028 0.12225 0.60166 0.0
O279 O 0.75591 0.18309 0.59914 0.0
C280 C 0.82289 0.29137 0.54631 0.0
C281 C 0.8415 0.27063 0.54104 0.0
H282 H 0.87032 0.2211 0.53335 0.0
H283 H 0.85843 0.15935 0.54554 0.0
H284 H 0.74046 0.29289 0.57949 0.0
H285 H 0.78047 0.32168 0.55889 0.0
H286 H 0.82703 0.31849 0.54139 0.0
H287 H 0.85962 0.28208 0.53214 0.0
Mn288 Mn 0.96262 0.62683 0.59085 0.0
Mn289 Mn 0.9408 0.53009 0.59313 0.0
C290 C 0.90791 0.58071 0.60327 0.0
C291 C 0.99191 0.69305 0.5992 0.0
C292 C 0.91912 0.56205 0.56892 0.0
O293 O 0.01557 0.63153 0.58481 0.0
O294 O 0.99464 0.56488 0.58493 0.0
C295 C 0.00312 0.54243 0.61323 0.0
N296 N 0.96373 0.52355 0.60931 0.0
C297 C 0.94409 0.47781 0.62796 0.0
C298 C 0.98445 0.49679 0.63222 0.0
C299 C 0.01403 0.52949 0.62489 0.0
C300 C 0.9349 0.49283 0.6165 0.0
H301 H 0.02604 0.56686 0.60743 0.0
C302 C 0.02069 0.60168 0.5822 0.0
O303 O 0.98109 0.68506 0.58672 0.0
O304 O 0.98873 0.66336 0.6064 0.0
N305 N 0.8899 0.49256 0.60068 0.0
C306 C 0.85229 0.47836 0.5954 0.0
C307 C 0.81897 0.44682 0.60187 0.0
C308 C 0.82482 0.42933 0.61344 0.0
C309 C 0.86392 0.44398 0.61854 0.0
C310 C 0.89578 0.47637 0.61191 0.0
H311 H 0.84786 0.49103 0.5863 0.0
O312 O 0.90928 0.61259 0.59819 0.0
O313 O 0.93875 0.57611 0.60084 0.0
O314 O 0.93643 0.5989 0.57285 0.0
O315 O 0.91596 0.53326 0.57626 0.0
C316 C 0.87262 0.42734 0.62981 0.0
C317 C 0.91267 0.44434 0.63455 0.0
H318 H 0.99307 0.48647 0.64109 0.0
H319 H 0.04525 0.54424 0.62811 0.0
H320 H 0.78892 0.43554 0.59783 0.0
H321 H 0.79913 0.40452 0.61827 0.0
H322 H 0.84867 0.40188 0.63503 0.0
H323 H 0.9189 0.43173 0.64336 0.0
Mn324 Mn 0.96413 0.36172 0.08565 0.0
Mn325 Mn 0.87235 0.28142 0.07913 0.0
C326 C 0.92328 0.36671 0.0695 0.0
C327 C 0.03354 0.39882 0.08219 0.0
C328 C 0.89172 0.33237 0.1043 0.0
O329 O 0.96746 0.31463 0.09373 0.0
O330 O 0.907 0.26199 0.08756 0.0
C331 C 0.89463 0.24148 0.05832 0.0
N332 N 0.87267 0.25869 0.06218 0.0
C333 C 0.84009 0.24611 0.04063 0.0
C334 C 0.86217 0.22802 0.03645 0.0
C335 C 0.88962 0.22577 0.04533 0.0
C336 C 0.84621 0.26103 0.05372 0.0
H337 H 0.91588 0.23986 0.0651 0.0
C338 C 0.94178 0.27683 0.09319 0.0
O339 O 0.01773 0.40106 0.09333 0.0
O340 O 0.00917 0.37451 0.07308 0.0
N341 N 0.8363 0.29609 0.07084 0.0
C342 C 0.81927 0.31671 0.07616 0.0
C343 C 0.79158 0.32229 0.06848 0.0
C344 C 0.78169 0.30659 0.05544 0.0
C345 C 0.79992 0.28587 0.05014 0.0
C346 C 0.82685 0.28075 0.05832 0.0
H347 H 0.82671 0.32872 0.0862 0.0
O348 O 0.9515 0.39902 0.07531 0.0
O349 O 0.91945 0.33258 0.07358 0.0
O350 O 0.92775 0.35811 0.10105 0.0
O351 O 0.86815 0.30253 0.09683 0.0
C352 C 0.79277 0.2705 0.03699 0.0
C353 C 0.81291 0.25071 0.03223 0.0
H354 H 0.85859 0.21609 0.02641 0.0
H355 H 0.90693 0.21205 0.04215 0.0
H356 H 0.77786 0.33861 0.0726 0.0
H357 H 0.76023 0.31083 0.04955 0.0
H358 H 0.77226 0.27422 0.03041 0.0
H359 H 0.80762 0.23954 0.02205 0.0
Mn360 Mn 0.66025 0.61694 0.09127 0.0
Mn361 Mn 0.73186 0.59095 0.09413 0.0
C362 C 0.65731 0.56702 0.07752 0.0
C363 C 0.63765 0.65789 0.08169 0.0
C364 C 0.66298 0.56407 0.11368 0.0
O365 O 0.70406 0.66289 0.10237 0.0
O366 O 0.75256 0.64598 0.10199 0.0
C367 C 0.79395 0.65108 0.07617 0.0
N368 N 0.76846 0.61182 0.07956 0.0
C369 C 0.79701 0.5881 0.06308 0.0
C370 C 0.82363 0.62828 0.05941 0.0
C371 C 0.82184 0.65989 0.06591 0.0
C372 C 0.76925 0.58116 0.07315 0.0
H373 H 0.7932 0.67545 0.08136 0.0
C374 C 0.73936 0.66961 0.10533 0.0
O375 O 0.62364 0.63967 0.09302 0.0
O376 O 0.66617 0.65403 0.07635 0.0
N377 N 0.71627 0.53873 0.08697 0.0
C378 C 0.68743 0.50168 0.09136 0.0
C379 C 0.68353 0.46672 0.08535 0.0
C380 C 0.70999 0.47023 0.07514 0.0
C381 C 0.7398 0.50871 0.07093 0.0
C382 C 0.7415 0.54244 0.07704 0.0
H383 H 0.66753 0.49886 0.09937 0.0
O384 O 0.62564 0.57008 0.07959 0.0
O385 O 0.6905 0.59417 0.08337 0.0
O386 O 0.64432 0.57945 0.10767 0.0
O387 O 0.69596 0.5675 0.1096 0.0
C388 C 0.76818 0.51495 0.06103 0.0
C389 C 0.79693 0.55464 0.05715 0.0
H390 H 0.8455 0.63521 0.0516 0.0
H391 H 0.84228 0.69098 0.06313 0.0
H392 H 0.66053 0.43713 0.08868 0.0
H393 H 0.70724 0.4432 0.07065 0.0
H394 H 0.76795 0.48946 0.05623 0.0
H395 H 0.81828 0.55905 0.04941 0.0
Mn396 Mn 0.40542 0.08806 0.09235 0.0
Mn397 Mn 0.49009 0.08182 0.09329 0.0
C398 C 0.46152 0.13687 0.10376 0.0
C399 C 0.34297 0.06972 0.10181 0.0
C400 C 0.46693 0.11529 0.06949 0.0
O401 O 0.38554 0.03086 0.08565 0.0
O402 O 0.44352 0.02982 0.08679 0.0
C403 C 0.46471 0.02259 0.11538 0.0
N404 N 0.49153 0.05937 0.11024 0.0
C405 C 0.53399 0.0763 0.1298 0.0
C406 C 0.50691 0.03854 0.1353 0.0
C407 C 0.47202 0.01165 0.12808 0.0
C408 C 0.52475 0.08579 0.11721 0.0
H409 H 0.43798 1.00179 0.10983 0.0
C410 C 0.40593 0.01332 0.08386 0.0
O411 O 0.35054 0.08156 0.08943 0.0
O412 O 0.37104 0.06751 0.10837 0.0
N413 N 0.53815 0.12918 0.09917 0.0
C414 C 0.56247 0.16327 0.09208 0.0
C415 C 0.5988 0.19325 0.09784 0.0
C416 C 0.61035 0.1873 0.11063 0.0
C417 C 0.58574 0.15114 0.11746 0.0
C418 C 0.54966 0.12258 0.11129 0.0
H419 H 0.55402 0.16774 0.08217 0.0
O420 O 0.4328 0.14345 0.10015 0.0
O421 O 0.456 0.10107 0.10099 0.0
O422 O 0.43376 0.1104 0.07422 0.0
O423 O 0.49029 0.10608 0.0759 0.0
C424 C 0.59603 0.14195 0.13002 0.0
C425 C 0.57 0.10471 0.13624 0.0
H426 H 0.51263 0.02985 0.14503 0.0
H427 H 0.45094 0.98248 0.13226 0.0
H428 H 0.61793 0.22077 0.0924 0.0
H429 H 0.63848 0.2104 0.11501 0.0
H430 H 0.62383 0.16338 0.13501 0.0
H431 H 0.57808 0.09815 0.14596 0.0
Mn432 Mn 0.08018 0.69921 0.92804 0.0
Mn433 Mn 0.167 0.78909 0.92854 0.0
C434 C 0.13177 0.71022 0.94266 0.0
C435 C 0.01569 0.65495 0.93635 0.0
C436 C 0.14621 0.7269 0.90671 0.0
O437 O 0.06382 0.73629 0.91866 0.0
O438 O 0.12358 0.79468 0.91954 0.0
C439 C 0.14203 0.83303 0.94683 0.0
N440 N 0.16761 0.81928 0.94381 0.0
C441 C 0.20651 0.84845 0.96388 0.0
C442 C 0.18072 0.86313 0.96718 0.0
C443 C 0.14832 0.85535 0.95862 0.0
C444 C 0.19896 0.82671 0.95194 0.0
H445 H 0.117 0.82696 0.94031 0.0
C446 C 0.08635 0.7739 0.91603 0.0
O447 O 0.02642 0.64954 0.92461 0.0
O448 O 0.04129 0.68729 0.94275 0.0
N449 N 0.2112 0.78763 0.93702 0.0
C450 C 0.23166 0.76915 0.9328 0.0
C451 C 0.26418 0.77277 0.94048 0.0
C452 C 0.27543 0.79549 0.95236 0.0
C453 C 0.25409 0.81447 0.95644 0.0
C454 C 0.22216 0.81007 0.94832 0.0
H455 H 0.22299 0.75149 0.92371 0.0
O456 O 0.10547 0.6738 0.93894 0.0
O457 O 0.12782 0.7392 0.93742 0.0
O458 O 0.11182 0.70067 0.91127 0.0
O459 O 0.16958 0.76028 0.91263 0.0
C460 C 0.26265 0.83681 0.96839 0.0
C461 C 0.23888 0.85378 0.97211 0.0
H462 H 0.18527 0.88009 0.97632 0.0
H463 H 0.12817 0.86642 0.96113 0.0
H464 H 0.28041 0.7579 0.93729 0.0
H465 H 0.30028 0.79789 0.95832 0.0
H466 H 0.28708 0.84061 0.97489 0.0
H467 H 0.24542 0.87042 0.98142 0.0
Mn468 Mn 0.34259 0.42333 0.92596 0.0
Mn469 Mn 0.40327 0.52271 0.93101 0.0
C470 C 0.33128 0.46957 0.91457 0.0
C471 C 0.32012 0.36297 0.91439 0.0
C472 C 0.3387 0.4699 0.9503 0.0
O473 O 0.39232 0.4247 0.93379 0.0
O474 O 0.42753 0.4912 0.93885 0.0
C475 C 0.47141 0.53497 0.91408 0.0
N476 N 0.44238 0.54416 0.91712 0.0
C477 C 0.46816 0.59819 0.90104 0.0
C478 C 0.49835 0.58933 0.89774 0.0
C479 C 0.49978 0.55737 0.90422 0.0
C480 C 0.44023 0.57429 0.91075 0.0
H481 H 0.47315 0.51096 0.9192 0.0
C482 C 0.42263 0.45535 0.93909 0.0
O483 O 0.31036 0.36344 0.92675 0.0
O484 O 0.34558 0.39742 0.90911 0.0
N485 N 0.38405 0.55653 0.92385 0.0
C486 C 0.3521 0.5601 0.92783 0.0
C487 C 0.34498 0.58919 0.92176 0.0
C488 C 0.37127 0.61483 0.9119 0.0
C489 C 0.40421 0.61086 0.90809 0.0
C490 C 0.40921 0.58069 0.91426 0.0
H491 H 0.33213 0.5408 0.93553 0.0
O492 O 0.30181 0.43359 0.91718 0.0
O493 O 0.36657 0.47821 0.91923 0.0
O494 O 0.32937 0.43676 0.94446 0.0
O495 O 0.3642 0.50446 0.94571 0.0
C496 C 0.43247 0.63586 0.8985 0.0
C497 C 0.46458 0.6297 0.89505 0.0
H498 H 0.5205 0.60678 0.89023 0.0
H499 H 0.52297 0.55032 0.90172 0.0
H500 H 0.31954 0.5921 0.92478 0.0
H501 H 0.36595 0.63754 0.90735 0.0
H502 H 0.42962 0.65971 0.89365 0.0
H503 H 0.48588 0.64885 0.88756 0.0
Mn504 Mn 0.63458 0.96542 0.93107 0.0
Mn505 Mn 0.6507 0.88649 0.93399 0.0
C506 C 0.59738 0.91361 0.94603 0.0
C507 C 0.64855 0.02954 0.93873 0.0
C508 C 0.60624 0.89697 0.91035 0.0
O509 O 0.68914 0.98654 0.92204 0.0
O510 O 0.69803 0.93321 0.92581 0.0
C511 C 0.71615 0.92104 0.95426 0.0
N512 N 0.67892 0.8912 0.95033 0.0
C513 C 0.67038 0.85445 0.97076 0.0
C514 C 0.70874 0.88469 0.97501 0.0
C515 C 0.73169 0.91816 0.96673 0.0
C516 C 0.65658 0.85889 0.95821 0.0
H517 H 0.73379 0.94684 0.94792 0.0
C518 C 0.70955 0.96851 0.92104 0.0
O519 O 0.63274 0.01635 0.92696 0.0
O520 O 0.65836 0.00679 0.94549 0.0
N521 N 0.60702 0.83911 0.94171 0.0
C522 C 0.56998 0.81356 0.93636 0.0
C523 C 0.54299 0.7788 0.94347 0.0
C524 C 0.55441 0.77065 0.95597 0.0
C525 C 0.5928 0.79727 0.96122 0.0
C526 C 0.6186 0.83113 0.9536 0.0
H527 H 0.5611 0.81972 0.92676 0.0
O528 O 0.58389 0.93665 0.94169 0.0
O529 O 0.63193 0.92125 0.94136 0.0
O530 O 0.6069 0.92906 0.91447 0.0
O531 O 0.62131 0.87899 0.91699 0.0
C532 C 0.60629 0.79183 0.9738 0.0
C533 C 0.64502 0.82045 0.97857 0.0
H534 H 0.72075 0.88268 0.98464 0.0
H535 H 0.76125 0.94171 0.96996 0.0
H536 H 0.51341 0.75839 0.93935 0.0
H537 H 0.53342 0.74397 0.96147 0.0
H538 H 0.58692 0.76602 0.97994 0.0
H539 H 0.65486 0.81621 0.98833 0.0
Mn540 Mn 0.60644 0.6827 0.41744 0.0
Mn541 Mn 0.5181 0.59959 0.41009 0.0
C542 C 0.55793 0.68735 0.40432 0.0
C543 C 0.67258 0.72759 0.41003 0.0
C544 C 0.54013 0.63806 0.43785 0.0
O545 O 0.61724 0.6361 0.42188 0.0
O546 O 0.55948 0.58411 0.4135 0.0
C547 C 0.53885 0.57801 0.38417 0.0
N548 N 0.51514 0.58784 0.39143 0.0
C549 C 0.4761 0.58402 0.37193 0.0
C550 C 0.49994 0.5736 0.36425 0.0
C551 C 0.53149 0.57066 0.3704 0.0
C552 C 0.48485 0.59097 0.38561 0.0
H553 H 0.56334 0.5761 0.38884 0.0
C554 C 0.59461 0.59862 0.41884 0.0
O555 O 0.66311 0.72677 0.42253 0.0
O556 O 0.64476 0.70098 0.40236 0.0
N557 N 0.47583 0.61121 0.40657 0.0
C558 C 0.4565 0.62274 0.41533 0.0
C559 C 0.42354 0.62621 0.41087 0.0
C560 C 0.41092 0.61792 0.39746 0.0
C561 C 0.4318 0.60691 0.38855 0.0
C562 C 0.46376 0.60294 0.39366 0.0
H563 H 0.4658 0.62871 0.42569 0.0
O564 O 0.58575 0.71893 0.41049 0.0
O565 O 0.55918 0.65463 0.40646 0.0
O566 O 0.5733 0.67005 0.43486 0.0
O567 O 0.51869 0.61029 0.42939 0.0
C568 C 0.42232 0.59987 0.37482 0.0
C569 C 0.44457 0.58862 0.3665 0.0
H570 H 0.49451 0.56813 0.35361 0.0
H571 H 0.55018 0.56288 0.36452 0.0
H572 H 0.40774 0.635 0.41777 0.0
H573 H 0.38522 0.62027 0.39412 0.0
H574 H 0.39838 0.60357 0.37049 0.0
H575 H 0.43731 0.58378 0.35594 0.0
Mn576 Mn 0.35113 0.94813 0.41506 0.0
Mn577 Mn 0.43847 0.94977 0.40939 0.0
C578 C 0.35346 0.9049 0.39934 0.0
C579 C 0.30688 0.9713 0.40923 0.0
C580 C 0.3856 0.9082 0.4333 0.0
O581 O 0.39255 1.00087 0.42411 0.0
O582 O 0.4491 0.99977 0.41898 0.0
C583 C 0.47236 0.01773 0.39016 0.0
N584 N 0.46036 0.97847 0.3931 0.0
C585 C 0.47702 0.96703 0.37104 0.0
C586 C 0.48986 0.00742 0.36781 0.0
C587 C 0.48746 0.03286 0.37741 0.0
C588 C 0.46238 0.9537 0.38392 0.0
H589 H 0.47026 0.03729 0.39747 0.0
C590 C 0.4308 0.01625 0.42447 0.0
O591 O 0.30435 0.95442 0.42078 0.0
O592 O 0.3366 0.97717 0.40174 0.0
N593 N 0.43303 0.90353 0.4001 0.0
C594 C 0.41946 0.86539 0.40481 0.0
C595 C 0.4199 0.83619 0.39645 0.0
C596 C 0.4344 0.84654 0.38336 0.0
C597 C 0.4489 0.88616 0.37882 0.0
C598 C 0.44827 0.91413 0.38767 0.0
H599 H 0.40843 0.85733 0.41488 0.0
O600 O 0.31957 0.89732 0.40448 0.0
O601 O 0.38509 0.93806 0.4034 0.0
O602 O 0.35761 0.91606 0.43051 0.0
O603 O 0.41663 0.91881 0.42607 0.0
C604 C 0.46378 0.89896 0.36583 0.0
C605 C 0.47773 0.93934 0.36193 0.0
H606 H 0.50138 0.01917 0.35796 0.0
H607 H 0.49711 0.06401 0.37497 0.0
H608 H 0.40901 0.80575 0.40007 0.0
H609 H 0.43432 0.82386 0.37688 0.0
H610 H 0.46442 0.87794 0.35874 0.0
H611 H 0.48884 0.94876 0.35189 0.0
Mn612 Mn 0.09346 0.41668 0.43161 0.0
Mn613 Mn 0.18926 0.43861 0.43576 0.0
C614 C 0.13804 0.47306 0.44378 0.0
C615 C 0.02699 0.38853 0.43892 0.0
C616 C 0.16122 0.46142 0.411 0.0
O617 O 0.08892 0.36303 0.42643 0.0
O618 O 0.1554 0.38526 0.4267 0.0
C619 C 0.1714 0.37404 0.45555 0.0
N620 N 0.19202 0.41383 0.45206 0.0
C621 C 0.23267 0.4312 0.47207 0.0
C622 C 0.21188 0.39041 0.47588 0.0
C623 C 0.18088 0.36176 0.46764 0.0
C624 C 0.22112 0.44178 0.46009 0.0
H625 H 0.14813 0.35181 0.44911 0.0
C626 C 0.11893 0.35851 0.42385 0.0
O627 O 0.03608 0.39788 0.42643 0.0
O628 O 0.05568 0.39208 0.44674 0.0
N629 N 0.22643 0.48873 0.44418 0.0
C630 C 0.2435 0.52685 0.43906 0.0
C631 C 0.27432 0.55926 0.44627 0.0
C632 C 0.28838 0.55193 0.45838 0.0
C633 C 0.27114 0.51228 0.46326 0.0
C634 C 0.23959 0.48141 0.45587 0.0
H635 H 0.23351 0.53245 0.42957 0.0
O636 O 0.10643 0.47057 0.43811 0.0
O637 O 0.14302 0.44183 0.44237 0.0
O638 O 0.12366 0.4418 0.41388 0.0
O639 O 0.189 0.46535 0.41905 0.0
C640 C 0.28433 0.50211 0.47508 0.0
C641 C 0.2648 0.46167 0.47957 0.0
H642 H 0.21955 0.38072 0.48509 0.0
H643 H 0.16473 0.33021 0.4705 0.0
H644 H 0.28768 0.58972 0.44238 0.0
H645 H 0.31259 0.57691 0.46381 0.0
H646 H 0.30899 0.52528 0.48094 0.0
H647 H 0.27475 0.45434 0.48879 0.0
Zn648 Zn 1.00008 0.9983 0.12477 0.0
Zn649 Zn 0.00773 0.05123 0.18935 0.0
Zn650 Zn 0.00675 0.01235 0.15068 0.0
C651 C 0.96456 0.9596 0.17843 0.0
C652 C 0.06933 0.05451 0.16911 0.0
O653 O 0.98623 0.04985 0.14015 0.0
O654 O 0.98236 0.03732 0.11849 0.0
C655 C 0.94996 0.92524 0.14057 0.0
O656 O 0.97382 0.96391 0.16585 0.0
O657 O 0.9758 0.98927 0.18659 0.0
O658 O 0.03494 0.04666 0.17284 0.0
O659 O 0.07055 0.04213 0.15744 0.0
O660 O 0.96003 0.94021 0.12897 0.0
O661 O 0.96488 0.94764 0.15098 0.0
O662 O 0.06797 0.02819 0.14413 0.0
O663 O 0.058 0.01406 0.1225 0.0
C664 C 0.0813 0.02584 0.13258 0.0
O665 O 0.97651 0.04795 0.15381 0.0
O666 O 0.01452 0.07662 0.17094 0.0
C667 C 0.97977 0.05727 0.12809 0.0
C668 C 0.98169 0.06639 0.16492 0.0
Zn669 Zn 0.01581 0.01818 0.34407 0.0
Zn670 Zn 0.01232 0.01203 0.39237 0.0
Zn671 Zn 0.015 0.01574 0.36673 0.0
C672 C 0.04138 0.09309 0.385 0.0
C673 C 0.93383 0.96038 0.38371 0.0
O674 O 0.04137 0.97948 0.35845 0.0
O675 O 0.05965 0.00881 0.33883 0.0
C676 C 0.05274 0.09459 0.3478 0.0
O677 O 0.04529 0.07948 0.37369 0.0
O678 O 0.02427 0.06892 0.39456 0.0
O679 O 0.95567 0.96792 0.39404 0.0
O680 O 0.94992 0.97852 0.37263 0.0
O681 O 0.02506 0.07239 0.33972 0.0
O682 O 0.05429 0.07951 0.35923 0.0
O683 O 0.95197 0.99055 0.35842 0.0
O684 O 0.96281 0.9745 0.33848 0.0
C685 C 0.93868 0.97549 0.34668 0.0
O686 O 0.05044 0.98739 0.37275 0.0
O687 O 0.05704 0.99948 0.39446 0.0
C688 C 0.058 0.98288 0.34699 0.0
C689 C 0.0669 0.98785 0.38409 0.0
Zn690 Zn 0.0283 0.04378 0.88487 0.0
Zn691 Zn 0.03425 0.03812 0.83954 0.0
Zn692 Zn 0.03308 0.04332 0.86139 0.0
C693 C 0.0472 0.11272 0.84356 0.0
C694 C 0.96096 0.98369 0.84436 0.0
O695 O 0.04953 0.99864 0.86792 0.0
O696 O 0.01617 0.98653 0.88677 0.0
C697 C 0.09701 0.11506 0.87802 0.0
O698 O 0.06299 0.10603 0.85396 0.0
O699 O 0.02443 0.08362 0.83599 0.0
O700 O 0.98852 0.98116 0.83849 0.0
O701 O 0.97096 0.01203 0.85304 0.0
O702 O 0.08405 0.0898 0.88749 0.0
O703 O 0.07761 0.10587 0.86682 0.0
O704 O 0.96992 0.02523 0.86618 0.0
O705 O 0.98266 0.05417 0.88603 0.0
C706 C 0.95881 0.03781 0.87629 0.0
O707 O 0.06858 0.01324 0.85592 0.0
O708 O 0.08962 0.04874 0.83742 0.0
C709 C 0.0331 0.97611 0.87818 0.0
C710 C 0.09348 0.02697 0.84611 0.0
Zn711 Zn 0.03975 0.01157 0.68479 0.0
Zn712 Zn 0.03277 0.02662 0.62313 0.0
Zn713 Zn 0.03341 0.02489 0.64849 0.0
C714 C 0.01087 0.94746 0.62924 0.0
C715 C 0.11312 0.07887 0.63231 0.0
O716 O 0.99588 0.04697 0.65763 0.0
O717 O 0.00385 0.03543 0.67905 0.0
C718 C 0.00962 0.95132 0.66655 0.0
O719 O 0.01395 0.96285 0.64093 0.0
O720 O 0.01659 0.96911 0.61901 0.0
O721 O 0.09102 0.06702 0.62197 0.0
O722 O 0.09789 0.06581 0.64391 0.0
O723 O 0.0435 0.97353 0.67204 0.0
O724 O 0.00344 0.96229 0.65506 0.0
O725 O 0.09259 0.05986 0.65846 0.0
O726 O 0.06228 0.06668 0.6757 0.0
C727 C 0.09475 0.07434 0.6702 0.0
O728 O 0.9925 0.04815 0.64331 0.0
O729 O 0.99351 0.04588 0.62124 0.0
C730 C 0.98784 0.04697 0.67012 0.0
C731 C 0.98055 0.05338 0.63178 0.0
Zn732 Zn 0.69452 0.36484 0.49808 0.0
Zn733 Zn 0.69634 0.35143 0.45224 0.0
Zn734 Zn 0.69168 0.35819 0.47647 0.0
C735 C 0.77373 0.37879 0.46112 0.0
C736 C 0.64087 0.27391 0.46132 0.0
O737 O 0.65389 0.38507 0.48203 0.0
O738 O 0.63725 0.3483 0.50032 0.0
C739 C 0.76246 0.42639 0.49276 0.0
O740 O 0.75683 0.38124 0.47191 0.0
O741 O 0.75313 0.36591 0.45051 0.0
O742 O 0.65507 0.29324 0.4506 0.0
O743 O 0.65269 0.29237 0.47263 0.0
O744 O 0.73385 0.42324 0.4997 0.0
O745 O 0.75511 0.39895 0.48392 0.0
O746 O 0.66478 0.29808 0.4865 0.0
O747 O 0.71215 0.32462 0.50186 0.0
C748 C 0.6841 0.29347 0.49633 0.0
O749 O 0.66416 0.39296 0.46806 0.0
O750 O 0.67998 0.39119 0.44701 0.0
C751 C 0.63052 0.36949 0.49216 0.0
C752 C 0.66522 0.40358 0.45577 0.0
Zn753 Zn 0.69369 0.36406 0.72063 0.0
Zn754 Zn 0.6896 0.36324 0.67334 0.0
Zn755 Zn 0.69063 0.36366 0.69511 0.0
C756 C 0.61711 0.34571 0.67788 0.0
C757 C 0.74625 0.43562 0.6771 0.0
O758 O 0.73506 0.34498 0.70045 0.0
O759 O 0.73926 0.35322 0.72237 0.0
C760 C 0.61445 0.30542 0.71288 0.0
O761 O 0.62771 0.32993 0.68735 0.0
O762 O 0.64436 0.37487 0.67144 0.0
O763 O 0.74608 0.40711 0.67078 0.0
O764 O 0.72074 0.42677 0.68663 0.0
O765 O 0.63716 0.31869 0.72308 0.0
O766 O 0.62836 0.32043 0.70129 0.0
O767 O 0.71123 0.42717 0.70057 0.0
O768 O 0.70651 0.42124 0.72257 0.0
C769 C 0.7138 0.44271 0.7122 0.0
O770 O 0.71984 0.32973 0.68766 0.0
O771 O 0.6778 0.30713 0.67054 0.0
C772 C 0.75158 0.34525 0.71177 0.0
C773 C 0.70297 0.30429 0.67799 0.0
Zn774 Zn 0.66652 0.32479 0.2195 0.0
Zn775 Zn 0.72264 0.39001 0.18217 0.0
Zn776 Zn 0.68488 0.34614 0.19738 0.0
C777 C 0.66836 0.41161 0.1868 0.0
C778 C 0.65086 0.33051 0.16939 0.0
O779 O 0.69342 0.29356 0.19758 0.0
O780 O 0.67595 0.27809 0.21864 0.0
C781 C 0.73136 0.40395 0.2213 0.0
O782 O 0.64984 0.37294 0.18858 0.0
O783 O 0.70655 0.4309 0.18765 0.0
O784 O 0.68808 0.35184 0.16684 0.0
O785 O 0.63925 0.33157 0.1814 0.0
O786 O 0.70801 0.37474 0.22866 0.0
O787 O 0.72737 0.39989 0.20862 0.0
O788 O 0.62059 0.33057 0.19606 0.0
O789 O 0.611 0.31605 0.21763 0.0
C790 C 0.59769 0.31985 0.20643 0.0
O791 O 0.7215 0.32554 0.18651 0.0
O792 O 0.77268 0.38781 0.18671 0.0
C793 C 0.68783 0.27103 0.20779 0.0
C794 C 0.75904 0.35058 0.18432 0.0
Zn795 Zn 0.68913 0.36585 1.00579 0.0
Zn796 Zn 0.68116 0.36187 0.95795 0.0
Zn797 Zn 0.6849 0.36397 0.9836 0.0
C798 C 0.66148 0.28379 0.96608 0.0
C799 C 0.76123 0.42027 0.96593 0.0
O800 O 0.65577 0.39689 0.9925 0.0
O801 O 0.70072 0.4221 0.00867 0.0
C802 C 0.62603 0.29265 1.00085 0.0
O803 O 0.66135 0.29947 0.9775 0.0
O804 O 0.67077 0.30537 0.95568 0.0
O805 O 0.73789 0.40852 0.95584 0.0
O806 O 0.74772 0.40418 0.97745 0.0
O807 O 0.63408 0.3204 0.00919 0.0
O808 O 0.64766 0.30057 0.9903 0.0
O809 O 0.7495 0.3909 0.99048 0.0
O810 O 0.73365 0.35621 0.00925 0.0
C811 C 0.75996 0.37824 1.00091 0.0
O812 O 0.64688 0.39032 0.97828 0.0
O813 O 0.63482 0.37249 0.95702 0.0
C814 C 0.6723 0.42211 1.00226 0.0
C815 C 0.62802 0.38743 0.96725 0.0
Zn816 Zn 0.35574 0.69049 0.8403 0.0
Zn817 Zn 0.35829 0.69223 0.79359 0.0
Zn818 Zn 0.3567 0.69105 0.81869 0.0
C819 C 0.4379 0.72072 0.80209 0.0
C820 C 0.30861 0.61109 0.80056 0.0
O821 O 0.31864 0.7164 0.82579 0.0
O822 O 0.29829 0.67386 0.84266 0.0
C823 C 0.42549 0.7532 0.8371 0.0
O824 O 0.42149 0.71639 0.81364 0.0
O825 O 0.41672 0.71303 0.7916 0.0
O826 O 0.32192 0.63365 0.79043 0.0
O827 O 0.31885 0.62646 0.81239 0.0
O828 O 0.39521 0.74803 0.84352 0.0
O829 O 0.41983 0.72879 0.82731 0.0
O830 O 0.32754 0.62791 0.82674 0.0
O831 O 0.37282 0.64938 0.84281 0.0
C832 C 0.3449 0.6201 0.83648 0.0
O833 O 0.33157 0.73002 0.81243 0.0
O834 O 0.33713 0.7295 0.79047 0.0
C835 C 0.2936 0.69816 0.83535 0.0
C836 C 0.32776 0.74202 0.80072 0.0
Zn837 Zn 0.35603 0.6968 0.05858 0.0
Zn838 Zn 0.34017 0.66482 0.01469 0.0
Zn839 Zn 0.34802 0.68403 0.03494 0.0
C840 C 0.28464 0.68288 0.01657 0.0
C841 C 0.40936 0.72985 0.01272 0.0
O842 O 0.41342 0.70735 0.03803 0.0
O843 O 0.41053 0.70397 0.06001 0.0
C844 C 0.29605 0.61764 0.05715 0.0
O845 O 0.31289 0.70772 0.0245 0.0
O846 O 0.28248 0.64946 0.01402 0.0
O847 O 0.37656 0.7158 1.00638 0.0
O848 O 0.40872 0.71602 0.02459 0.0
O849 O 0.3112 0.64588 0.06565 0.0
O850 O 0.30779 0.62492 0.04492 0.0
O851 O 0.32856 0.72951 0.03729 0.0
O852 O 0.35151 0.74598 0.05798 0.0
C853 C 0.33697 0.75267 0.04756 0.0
O854 O 0.31478 0.6159 0.03189 0.0
O855 O 0.35766 0.624 0.01629 0.0
C856 C 0.43034 0.70952 0.04944 0.0
C857 C 0.32966 0.60043 0.02389 0.0
Zn858 Zn 0.36294 0.69662 0.55434 0.0
Zn859 Zn 0.36773 0.6872 0.50705 0.0
Zn860 Zn 0.36403 0.69322 0.52929 0.0
C861 C 0.41549 0.75969 0.50835 0.0
C862 C 0.2932 0.67183 0.50931 0.0
O863 O 0.39006 0.65703 0.53682 0.0
O864 O 0.37132 0.64969 0.55789 0.0
C865 C 0.41972 0.774 0.54532 0.0
O866 O 0.39337 0.75302 0.51869 0.0
O867 O 0.42513 0.73345 0.5058 0.0
O868 O 0.3218 0.6949 0.5018 0.0
O869 O 0.30166 0.66298 0.52089 0.0
O870 O 0.40931 0.75253 0.55575 0.0
O871 O 0.40302 0.75803 0.53404 0.0
O872 O 0.29953 0.66706 0.53538 0.0
O873 O 0.3082 0.68887 0.55621 0.0
C874 C 0.28509 0.67223 0.54631 0.0
O875 O 0.39533 0.65926 0.52235 0.0
O876 O 0.361 0.63298 0.50377 0.0
C877 C 0.38629 0.64032 0.54831 0.0
C878 C 0.38778 0.63644 0.51195 0.0
Zn879 Zn 0.33651 0.66817 0.28419 0.0
Zn880 Zn 0.34066 0.67791 0.35633 0.0
Zn881 Zn 0.33724 0.67021 0.3097 0.0
C882 C 0.3998 0.70304 0.33102 0.0
C883 C 0.30678 0.61298 0.33217 0.0
O884 O 0.29857 0.69492 0.30395 0.0
O885 O 0.29524 0.68546 0.28208 0.0
C886 C 0.41643 0.722 0.29285 0.0
O887 O 0.3986 0.7013 0.31823 0.0
O888 O 0.36601 0.68938 0.33688 0.0
O889 O 0.32704 0.64862 0.3371 0.0
O890 O 0.3062 0.61021 0.3194 0.0
O891 O 0.39488 0.71007 0.28236 0.0
O892 O 0.40051 0.7082 0.30432 0.0
O893 O 0.31291 0.60561 0.30551 0.0
O894 O 0.32052 0.60944 0.28359 0.0
C895 C 0.31161 0.58883 0.29423 0.0
O896 O 0.30969 0.70457 0.31766 0.0
O897 O 0.32407 0.68646 0.3366 0.0
C898 C 0.28447 0.69651 0.29239 0.0
C899 C 0.31194 0.7078 0.33042 0.0
H900 H 0.18018 0.19487 0.23211 0.0
H901 H 0.27395 0.16434 0.22724 0.0
H902 H 0.24221 0.12873 0.20614 0.0
H903 H 0.10107 0.09998 0.22161 0.0
H904 H 0.07244 0.11929 0.21318 0.0
H905 H 0.1053 0.14703 0.22692 0.0
H906 H 0.14257 0.21043 0.21187 0.0
H907 H 0.10964 0.18279 0.19809 0.0
H908 H 0.16349 0.20664 0.19625 0.0
H909 H 0.19791 0.09264 0.18621 0.0
H910 H 0.14214 0.05592 0.1699 0.0
H911 H 0.07634 0.10764 0.18834 0.0
C912 C 0.19437 0.18147 0.22639 0.0
C913 C 0.22969 0.18269 0.23113 0.0
C914 C 0.24695 0.16384 0.22366 0.0
C915 C 0.22925 0.14368 0.21166 0.0
C916 C 0.19397 0.14223 0.20732 0.0
C917 C 0.17656 0.16044 0.21448 0.0
C918 C 0.13669 0.15119 0.20826 0.0
C919 C 0.10183 0.12799 0.21808 0.0
C920 C 0.13821 0.19009 0.20332 0.0
C921 C 0.13427 0.12461 0.19667 0.0
C922 C 0.1678 0.12024 0.19614 0.0
C923 C 0.17157 0.09607 0.18646 0.0
C924 C 0.13986 0.07538 0.1772 0.0
C925 C 0.1048 0.07861 0.17786 0.0
C926 C 0.10251 0.10407 0.18762 0.0
H927 H 0.88686 0.08161 0.23258 0.0
H928 H 0.77447 0.97469 0.22114 0.0
H929 H 0.80414 0.97384 0.19933 0.0
H930 H 0.90888 0.12989 0.2009 0.0
H931 H 0.96241 0.1497 0.20249 0.0
H932 H 0.93251 0.14104 0.2172 0.0
H933 H 0.95815 0.09493 0.22704 0.0
H934 H 0.98869 0.10413 0.21248 0.0
H935 H 0.95299 0.05299 0.21728 0.0
H936 H 0.84788 0.98551 0.17852 0.0
H937 H 0.90206 0.00589 0.16182 0.0
H938 H 0.98292 0.10647 0.1872 0.0
C939 C 0.86826 0.05779 0.22557 0.0
C940 C 0.82819 0.02822 0.22863 0.0
C941 C 0.80528 0.99762 0.21908 0.0
C942 C 0.82181 0.99704 0.20663 0.0
C943 C 0.86121 0.0273 0.20389 0.0
C944 C 0.88409 0.05689 0.21318 0.0
C945 C 0.9257 0.08591 0.20803 0.0
C946 C 0.93276 0.12919 0.2071 0.0
C947 C 0.95829 0.08437 0.21672 0.0
C948 C 0.92287 0.06818 0.19434 0.0
C949 C 0.88557 0.03438 0.19204 0.0
C950 C 0.87705 0.01214 0.18021 0.0
C951 C 0.90785 0.02412 0.17071 0.0
C952 C 0.94659 0.05794 0.1732 0.0
C953 C 0.95349 0.08071 0.18498 0.0
H954 H 0.00812 0.80527 0.21521 0.0
H955 H 0.94725 0.82374 0.2484 0.0
H956 H 0.92087 0.85623 0.23332 0.0
H957 H 0.03825 0.89963 0.19772 0.0
H958 H 0.0292 0.87566 0.18164 0.0
H959 H 0.04131 0.85403 0.19565 0.0
H960 H 0.97503 0.78688 0.18982 0.0
H961 H 0.9622 0.81163 0.17688 0.0
H962 H 0.92767 0.78611 0.19032 0.0
H963 H 0.90166 0.88706 0.21543 0.0
H964 H 0.90724 0.93282 0.19724 0.0
H965 H 0.98235 0.89883 0.17517 0.0
C966 C 0.99 0.81706 0.21927 0.0
C967 C 0.98017 0.81263 0.23302 0.0
C968 C 0.95541 0.82726 0.23794 0.0
C969 C 0.93977 0.84516 0.22942 0.0
C970 C 0.94866 0.84785 0.21588 0.0
C971 C 0.97396 0.83524 0.21082 0.0
C972 C 0.98022 0.8443 0.19592 0.0
C973 C 0.02502 0.86996 0.19256 0.0
C974 C 0.96008 0.80487 0.18775 0.0
C975 C 0.95818 0.86777 0.19386 0.0
C976 C 0.93806 0.86694 0.20535 0.0
C977 C 0.91726 0.88795 0.20637 0.0
C978 C 0.92034 0.91367 0.19593 0.0
C979 C 0.94541 0.91947 0.18487 0.0
C980 C 0.96229 0.89423 0.18337 0.0
H981 H 0.1681 0.19821 0.28222 0.0
H982 H 0.27997 0.22894 0.30258 0.0
H983 H 0.24322 0.20376 0.32393 0.0
H984 H 0.1277 0.23047 0.3086 0.0
H985 H 0.07652 0.19063 0.30573 0.0
H986 H 0.11154 0.20934 0.29209 0.0
H987 H 0.09824 0.13688 0.28719 0.0
H988 H 0.06222 0.11798 0.3005 0.0
H989 H 0.10346 0.10801 0.30055 0.0
H990 H 0.19172 0.17078 0.34285 0.0
H991 H 0.13155 0.13159 0.35683 0.0
H992 H 0.05596 0.13253 0.32445 0.0
C993 C 0.1847 0.19906 0.29116 0.0
C994 C 0.22644 0.21346 0.29068 0.0
C995 C 0.24756 0.21582 0.30264 0.0
C996 C 0.22703 0.20231 0.31483 0.0
C997 C 0.18563 0.18799 0.31495 0.0
C998 C 0.16485 0.18655 0.30339 0.0
C999 C 0.12065 0.17025 0.30606 0.0
C1000 C 0.1084 0.20208 0.30293 0.0
C1001 C 0.09462 0.13095 0.29811 0.0
C1002 C 0.11946 0.16225 0.32092 0.0
C1003 C 0.15711 0.17245 0.32592 0.0
C1004 C 0.16228 0.16357 0.33911 0.0
C1005 C 0.1279 0.14187 0.3471 0.0
C1006 C 0.08888 0.12965 0.34192 0.0
C1007 C 0.08529 0.14212 0.32888 0.0
H1008 H 0.82225 0.96341 0.2812 0.0
H1009 H 0.78504 0.04155 0.29966 0.0
H1010 H 0.81278 0.03493 0.32144 0.0
H1011 H 0.79723 0.89476 0.30908 0.0
H1012 H 0.83952 0.88727 0.30659 0.0
H1013 H 0.81717 0.89877 0.29255 0.0
H1014 H 0.88639 0.96136 0.28655 0.0
H1015 H 0.90875 0.9484 0.30017 0.0
H1016 H 0.91458 0.99817 0.29936 0.0
H1017 H 0.84882 0.02198 0.34099 0.0
H1018 H 0.89395 0.00895 0.35544 0.0
H1019 H 0.89999 0.93339 0.3244 0.0
C1020 C 0.82041 0.97946 0.28982 0.0
C1021 C 0.80336 0.00451 0.2887 0.0
C1022 C 0.79996 0.02388 0.30024 0.0
C1023 C 0.8149 0.01963 0.31267 0.0
C1024 C 0.83184 0.99475 0.31344 0.0
C1025 C 0.83455 0.97502 0.30228 0.0
C1026 C 0.85453 0.95055 0.30556 0.0
C1027 C 0.82536 0.90515 0.30331 0.0
C1028 C 0.89335 0.96553 0.29744 0.0
C1029 C 0.86357 0.96019 0.32027 0.0
C1030 C 0.85012 0.98552 0.32473 0.0
C1031 C 0.85887 1.00159 0.33766 0.0
C1032 C 0.88409 0.99358 0.3459 0.0
C1033 C 0.90031 0.96996 0.34109 0.0
C1034 C 0.88761 0.95109 0.32845 0.0
H1035 H 0.08603 0.89143 0.28212 0.0
H1036 H 0.99385 0.7744 0.29676 0.0
H1037 H 1.00098 0.80383 0.31927 0.0
H1038 H 0.14866 0.92508 0.313 0.0
H1039 H 0.15978 0.97655 0.31089 0.0
H1040 H 0.15131 0.94507 0.29645 0.0
H1041 H 0.09463 0.95835 0.28812 0.0
H1042 H 0.10386 0.99052 0.30232 0.0
H1043 H 0.05393 0.94853 0.29919 0.0
H1044 H 0.01343 0.84783 0.33964 0.0
H1045 H 0.02241 0.90337 0.35448 0.0
H1046 H 0.10747 0.99075 0.32661 0.0
C1047 C 0.06768 0.87169 0.29008 0.0
C1048 C 0.03945 0.83048 0.28763 0.0
C1049 C 0.01567 0.80606 0.29834 0.0
C1050 C 0.01984 0.82242 0.31121 0.0
C1051 C 0.04815 0.86316 0.31327 0.0
C1052 C 0.07145 0.88747 0.30294 0.0
C1053 C 0.09655 0.93116 0.3073 0.0
C1054 C 0.14176 0.94528 0.30689 0.0
C1055 C 0.08661 0.95873 0.29874 0.0
C1056 C 0.0824 0.92805 0.32155 0.0
C1057 C 0.05529 0.88846 0.32497 0.0
C1058 C 0.03514 0.87883 0.33716 0.0
C1059 C 0.04077 0.91059 0.34563 0.0
C1060 C 0.06572 0.95133 0.34171 0.0
C1061 C 0.08867 0.95985 0.32995 0.0
H1062 H 0.82109 0.80257 0.79868 0.0
H1063 H 0.83462 0.89521 0.77061 0.0
H1064 H 0.86336 0.9465 0.78847 0.0
H1065 H 0.79588 0.84527 0.82734 0.0
H1066 H 0.82324 0.83264 0.83932 0.0
H1067 H 0.80136 0.80165 0.82465 0.0
H1068 H 0.87085 0.81206 0.81769 0.0
H1069 H 0.8912 0.83991 0.83292 0.0
H1070 H 0.91374 0.86304 0.81725 0.0
H1071 H 0.88917 0.98749 0.80899 0.0
H1072 H 0.93129 0.01996 0.8289 0.0
H1073 H 0.90651 0.90308 0.84355 0.0
C1074 C 0.83128 0.83388 0.79627 0.0
C1075 C 0.82634 0.84525 0.78325 0.0
C1076 C 0.8387 0.88618 0.78052 0.0
C1077 C 0.85434 0.91534 0.79064 0.0
C1078 C 0.85719 0.90305 0.8035 0.0
C1079 C 0.84728 0.86366 0.80631 0.0
C1080 C 0.85608 0.85953 0.82087 0.0
C1081 C 0.81679 0.83321 0.82849 0.0
C1082 C 0.88475 0.84263 0.82224 0.0
C1083 C 0.87583 0.90332 0.82537 0.0
C1084 C 0.87362 0.92734 0.81542 0.0
C1085 C 0.891 0.96905 0.81689 0.0
C1086 C 0.9144 0.98722 0.82833 0.0
C1087 C 0.9215 0.9638 0.83775 0.0
C1088 C 0.90034 0.92125 0.83665 0.0
H1089 H 0.16279 0.95465 0.78707 0.0
H1090 H 0.28137 0.05922 0.79387 0.0
H1091 H 0.26092 0.06602 0.81664 0.0
H1092 H 0.10905 0.99314 0.80164 0.0
H1093 H 0.07092 0.94573 0.80852 0.0
H1094 H 0.09783 0.94597 0.79395 0.0
H1095 H 0.11876 0.89919 0.8062 0.0
H1096 H 0.09262 0.89991 0.82098 0.0
H1097 H 0.14525 0.91491 0.82199 0.0
H1098 H 0.22428 0.06755 0.83712 0.0
H1099 H 0.1733 0.06863 0.85172 0.0
H1100 H 0.07977 0.96182 0.83201 0.0
C1101 C 0.18492 0.97861 0.79339 0.0
C1102 C 0.22383 0.00636 0.78862 0.0
C1103 C 0.25142 0.03752 0.79725 0.0
C1104 C 0.24018 0.04135 0.81026 0.0
C1105 C 0.20145 0.01349 0.81459 0.0
C1106 C 0.17425 0.98276 0.80635 0.0
C1107 C 0.13301 0.95971 0.81262 0.0
C1108 C 0.10085 0.96129 0.80366 0.0
C1109 C 0.12177 0.91582 0.81563 0.0
C1110 C 0.14048 0.98363 0.8254 0.0
C1111 C 0.18045 0.01387 0.82656 0.0
C1112 C 0.19328 0.04325 0.83656 0.0
C1113 C 0.16423 0.04335 0.84497 0.0
C1114 C 0.12297 0.01436 0.84329 0.0
C1115 C 0.1114 0.9829 0.83393 0.0
H1116 H 0.10611 0.23978 0.78017 0.0
H1117 H 0.00296 0.25528 0.7869 0.0
H1118 H 0.99955 0.23198 0.8102 0.0
H1119 H 0.07056 0.15012 0.79714 0.0
H1120 H 0.1191 0.16131 0.80365 0.0
H1121 H 0.11594 0.18444 0.78839 0.0
H1122 H 0.16418 0.25508 0.79868 0.0
H1123 H 0.16641 0.23187 0.81415 0.0
H1124 H 0.1511 0.26945 0.81416 0.0
H1125 H 1.00175 0.19821 0.83157 0.0
H1126 H 0.00461 0.15051 0.8477 0.0
H1127 H 0.10797 0.16026 0.82741 0.0
C1128 C 0.08302 0.23886 0.78654 0.0
C1129 C 0.05477 0.24941 0.78164 0.0
C1130 C 0.02495 0.24735 0.79037 0.0
C1131 C 0.02306 0.23457 0.80368 0.0
C1132 C 0.05155 0.22454 0.80816 0.0
C1133 C 0.08089 0.22649 0.7998 0.0
C1134 C 0.10532 0.21009 0.80647 0.0
C1135 C 0.10252 0.17437 0.79844 0.0
C1136 C 0.14937 0.24364 0.80849 0.0
C1137 C 0.08385 0.19655 0.8197 0.0
C1138 C 0.05352 0.20604 0.82065 0.0
C1139 C 0.02617 0.19176 0.83115 0.0
C1140 C 0.02829 0.16512 0.84039 0.0
C1141 C 0.05752 0.15321 0.83904 0.0
C1142 C 0.08681 0.17075 0.82901 0.0
H1143 H 0.90316 0.85161 0.73497 0.0
H1144 H 0.78688 0.81429 0.71641 0.0
H1145 H 0.82156 0.84656 0.69519 0.0
H1146 H 0.95886 0.94827 0.7185 0.0
H1147 H 0.00365 0.94439 0.71726 0.0
H1148 H 0.96943 0.92028 0.73087 0.0
H1149 H 0.9631 0.85179 0.72444 0.0
H1150 H 0.99689 0.87529 0.71071 0.0
H1151 H 0.94749 0.83235 0.70772 0.0
H1152 H 0.87091 0.88089 0.67553 0.0
H1153 H 0.92861 0.91698 0.66025 0.0
H1154 H 0.01066 0.92956 0.69252 0.0
C1155 C 0.88463 0.85037 0.72654 0.0
C1156 C 0.8421 0.83023 0.7274 0.0
C1157 C 0.81946 0.8297 0.71604 0.0
C1158 C 0.83894 0.84776 0.70394 0.0
C1159 C 0.88098 0.8664 0.70343 0.0
C1160 C 0.9034 0.86808 0.71455 0.0
C1161 C 0.94798 0.8891 0.71162 0.0
C1162 C 0.97134 0.9278 0.72006 0.0
C1163 C 0.96482 0.8604 0.71375 0.0
C1164 C 0.9475 0.89885 0.69702 0.0
C1165 C 0.90873 0.88565 0.69239 0.0
C1166 C 0.9013 0.89143 0.67912 0.0
C1167 C 0.93431 0.91181 0.67049 0.0
C1168 C 0.97432 0.92629 0.67517 0.0
C1169 C 0.98058 0.91904 0.68858 0.0
H1170 H 0.22338 0.00586 0.71464 0.0
H1171 H 0.21114 0.07643 0.74615 0.0
H1172 H 0.17895 0.10124 0.73025 0.0
H1173 H 0.24746 0.08034 0.68904 0.0
H1174 H 0.22025 0.045 0.67577 0.0
H1175 H 0.24065 0.03011 0.68954 0.0
H1176 H 0.16997 0.96924 0.69484 0.0
H1177 H 0.151 0.98298 0.68046 0.0
H1178 H 0.1279 0.97798 0.69642 0.0
H1179 H 0.15303 0.12227 0.7112 0.0
H1180 H 0.11803 0.1255 0.69093 0.0
H1181 H 0.14386 0.04023 0.67119 0.0
C1182 C 0.21246 0.0253 0.71823 0.0
C1183 C 0.21873 0.03858 0.73169 0.0
C1184 C 0.20579 0.06542 0.73594 0.0
C1185 C 0.18799 0.08004 0.72696 0.0
C1186 C 0.18375 0.0679 0.71366 0.0
C1187 C 0.19452 0.04036 0.7093 0.0
C1188 C 0.18647 0.03283 0.69435 0.0
C1189 C 0.22607 0.04797 0.68673 0.0
C1190 C 0.15704 0.98802 0.69137 0.0
C1191 C 0.16765 0.05878 0.69124 0.0
C1192 C 0.168 0.07988 0.70248 0.0
C1193 C 0.15224 0.10566 0.70236 0.0
C1194 C 0.1328 0.10762 0.69074 0.0
C1195 C 0.12829 0.08317 0.67951 0.0
C1196 C 0.14756 0.05983 0.67952 0.0
H1197 H 0.05152 0.24708 0.708 0.0
H1198 H 0.97711 0.16814 0.73971 0.0
H1199 H 0.94809 0.11031 0.72418 0.0
H1200 H 0.9772 0.19834 0.68139 0.0
H1201 H 0.01295 0.2032 0.66894 0.0
H1202 H 0.02838 0.23978 0.68227 0.0
H1203 H 0.08528 0.22581 0.68932 0.0
H1204 H 0.07135 0.19133 0.67551 0.0
H1205 H 0.07337 0.17408 0.69212 0.0
H1206 H 0.92504 0.0616 0.70552 0.0
H1207 H 0.92539 0.02 0.68689 0.0
H1208 H 0.01597 0.12763 0.66695 0.0
C1209 C 0.03011 0.21733 0.71172 0.0
C1210 C 0.01698 0.21188 0.72514 0.0
C1211 C 0.98792 0.17278 0.72953 0.0
C1212 C 0.97077 0.13989 0.72073 0.0
C1213 C 0.98276 0.14644 0.70745 0.0
C1214 C 0.01267 0.18373 0.703 0.0
C1215 C 0.02115 0.18134 0.6883 0.0
C1216 C 0.00921 0.20721 0.67972 0.0
C1217 C 0.06548 0.19387 0.68621 0.0
C1218 C 0.99323 0.1365 0.68552 0.0
C1219 C 0.96993 0.11756 0.69656 0.0
C1220 C 0.94307 0.07605 0.6968 0.0
C1221 C 0.94286 0.05266 0.68603 0.0
C1222 C 0.97035 0.07061 0.67543 0.0
C1223 C 0.99372 0.11331 0.6747 0.0
H1224 H 0.89265 0.48979 0.55612 0.0
H1225 H 0.91125 0.61052 0.54993 0.0
H1226 H 0.88583 0.59181 0.5267 0.0
H1227 H 0.91923 0.47501 0.52191 0.0
H1228 H 0.88103 0.42224 0.5218 0.0
H1229 H 0.90528 0.44671 0.53729 0.0
H1230 H 0.83582 0.4251 0.5478 0.0
H1231 H 0.81164 0.3998 0.53251 0.0
H1232 H 0.80179 0.43761 0.53931 0.0
H1233 H 0.84951 0.55676 0.50541 0.0
H1234 H 0.8008 0.50749 0.48917 0.0
H1235 H 0.81005 0.41132 0.50867 0.0
C1236 C 0.89184 0.51262 0.54989 0.0
C1237 C 0.90388 0.5517 0.55493 0.0
C1238 C 0.90221 0.58041 0.54635 0.0
C1239 C 0.88814 0.57013 0.53309 0.0
C1240 C 0.87657 0.53128 0.52848 0.0
C1241 C 0.87835 0.50303 0.53667 0.0
C1242 C 0.8609 0.46229 0.52982 0.0
C1243 C 0.89357 0.45091 0.52757 0.0
C1244 C 0.82543 0.4293 0.53783 0.0
C1245 C 0.84701 0.47131 0.5167 0.0
C1246 C 0.85706 0.51152 0.51598 0.0
C1247 C 0.84264 0.52562 0.50565 0.0
C1248 C 0.81541 0.49756 0.49634 0.0
C1249 C 0.80314 0.45605 0.49738 0.0
C1250 C 0.82077 0.44325 0.50725 0.0
H1251 H 0.56243 0.42525 0.55575 0.0
H1252 H 0.44336 0.32292 0.54764 0.0
H1253 H 0.46352 0.32043 0.52442 0.0
H1254 H 0.57851 0.47242 0.5223 0.0
H1255 H 0.63124 0.48761 0.52249 0.0
H1256 H 0.60594 0.48431 0.53793 0.0
H1257 H 0.62764 0.4349 0.54765 0.0
H1258 H 0.65388 0.43921 0.53244 0.0
H1259 H 0.61627 0.39004 0.53833 0.0
H1260 H 0.49972 0.32351 0.50313 0.0
H1261 H 0.55013 0.32746 0.48708 0.0
H1262 H 0.64376 0.43015 0.50848 0.0
C1263 C 0.54032 0.40246 0.5491 0.0
C1264 C 0.50126 0.3742 0.5536 0.0
C1265 C 0.47348 0.34491 0.54449 0.0
C1266 C 0.48455 0.34351 0.53122 0.0
C1267 C 0.52329 0.37202 0.52712 0.0
C1268 C 0.55072 0.40089 0.53584 0.0
C1269 C 0.59155 0.42577 0.52944 0.0
C1270 C 0.60243 0.47016 0.52795 0.0
C1271 C 0.62423 0.42223 0.53743 0.0
C1272 C 0.5835 0.40521 0.51593 0.0
C1273 C 0.5437 0.37476 0.51465 0.0
C1274 C 0.53058 0.34806 0.50382 0.0
C1275 C 0.55927 0.35088 0.49459 0.0
C1276 C 0.60043 0.38019 0.49625 0.0
C1277 C 0.61212 0.40899 0.5066 0.0
H1278 H 0.73156 0.16485 0.54651 0.0
H1279 H 0.64912 0.17675 0.57288 0.0
H1280 H 0.62752 0.20445 0.55432 0.0
H1281 H 0.76328 0.25664 0.52725 0.0
H1282 H 0.76481 0.2334 0.51183 0.0
H1283 H 0.77268 0.21461 0.52736 0.0
H1284 H 0.71515 0.14347 0.52071 0.0
H1285 H 0.70579 0.16314 0.50553 0.0
H1286 H 0.66564 0.13597 0.51724 0.0
H1287 H 0.61256 0.22798 0.53302 0.0
H1288 H 0.61974 0.26515 0.51209 0.0
H1289 H 0.71468 0.24298 0.49962 0.0
C1290 C 0.71002 0.17464 0.54843 0.0
C1291 C 0.6925 0.16949 0.56118 0.0
C1292 C 0.66324 0.18109 0.56322 0.0
C1293 C 0.65034 0.19621 0.5527 0.0
C1294 C 0.66675 0.19926 0.54012 0.0
C1295 C 0.69677 0.18998 0.53798 0.0
C1296 C 0.71013 0.19763 0.5235 0.0
C1297 C 0.75549 0.22743 0.52245 0.0
C1298 C 0.69847 0.15767 0.51632 0.0
C1299 C 0.68534 0.2157 0.51822 0.0
C1300 C 0.65883 0.21407 0.52778 0.0
C1301 C 0.63316 0.22942 0.52544 0.0
C1302 C 0.63697 0.24994 0.51342 0.0
C1303 C 0.66723 0.25619 0.50421 0.0
C1304 C 0.6905 0.2374 0.50635 0.0
H1305 H 0.92028 0.55826 0.62829 0.0
H1306 H 0.82879 0.55733 0.60227 0.0
H1307 H 0.78074 0.53367 0.62098 0.0
H1308 H 0.85645 0.46965 0.64783 0.0
H1309 H 0.88455 0.4922 0.66293 0.0
H1310 H 0.90912 0.50857 0.64711 0.0
H1311 H 0.92922 0.58181 0.65423 0.0
H1312 H 0.90092 0.56365 0.66946 0.0
H1313 H 0.89016 0.59337 0.6579 0.0
H1314 H 0.74216 0.50893 0.64224 0.0
H1315 H 0.71147 0.46954 0.66267 0.0
H1316 H 0.82694 0.4855 0.67501 0.0
C1317 C 0.88981 0.55207 0.6265 0.0
C1318 C 0.87784 0.55873 0.61377 0.0
C1319 C 0.83823 0.55178 0.61191 0.0
C1320 C 0.81097 0.53894 0.62252 0.0
C1321 C 0.82399 0.53395 0.63506 0.0
C1322 C 0.86222 0.53959 0.63707 0.0
C1323 C 0.86796 0.53078 0.65148 0.0
C1324 C 0.88025 0.49831 0.65236 0.0
C1325 C 0.8989 0.56973 0.65869 0.0
C1326 C 0.82592 0.51568 0.65687 0.0
C1327 C 0.80167 0.51984 0.64743 0.0
C1328 C 0.76097 0.5059 0.64976 0.0
C1329 C 0.74385 0.48411 0.66152 0.0
C1330 C 0.76707 0.47527 0.67052 0.0
C1331 C 0.80899 0.4932 0.66853 0.0
H1332 H 0.48601 0.37857 0.62647 0.0
H1333 H 0.49695 0.29045 0.60245 0.0
H1334 H 0.52108 0.26965 0.62227 0.0
H1335 H 0.57284 0.41138 0.64723 0.0
H1336 H 0.5479 0.41546 0.66175 0.0
H1337 H 0.53066 0.4201 0.64547 0.0
H1338 H 0.45955 0.36257 0.65245 0.0
H1339 H 0.4791 0.35624 0.66819 0.0
H1340 H 0.45288 0.31388 0.65698 0.0
H1341 H 0.54657 0.26031 0.64419 0.0
H1342 H 0.58771 0.27539 0.66471 0.0
H1343 H 0.56251 0.37059 0.6745 0.0
C1344 C 0.49428 0.35548 0.62538 0.0
C1345 C 0.49043 0.33658 0.6129 0.0
C1346 C 0.50022 0.30557 0.61191 0.0
C1347 C 0.5133 0.29314 0.62315 0.0
C1348 C 0.51563 0.31142 0.6354 0.0
C1349 C 0.50705 0.34238 0.63657 0.0
C1350 C 0.51419 0.3583 0.65079 0.0
C1351 C 0.54319 0.40411 0.65131 0.0
C1352 C 0.47403 0.34707 0.6575 0.0
C1353 C 0.53267 0.33493 0.65696 0.0
C1354 C 0.53068 0.30613 0.64816 0.0
C1355 C 0.54794 0.28245 0.65121 0.0
C1356 C 0.57085 0.29084 0.66301 0.0
C1357 C 0.57765 0.32373 0.67122 0.0
C1358 C 0.55652 0.34445 0.66858 0.0
H1359 H 0.77043 0.23269 0.61721 0.0
H1360 H 0.67132 0.11204 0.62549 0.0
H1361 H 0.66509 0.13476 0.64801 0.0
H1362 H 0.81385 0.25679 0.65151 0.0
H1363 H 0.82592 0.30873 0.65011 0.0
H1364 H 0.82625 0.28154 0.63547 0.0
H1365 H 0.77553 0.29768 0.62355 0.0
H1366 H 0.77599 0.32557 0.638 0.0
H1367 H 0.72888 0.28486 0.63167 0.0
H1368 H 0.6641 0.17285 0.66832 0.0
H1369 H 0.66345 0.22409 0.68316 0.0
H1370 H 0.7645 0.31888 0.66199 0.0
C1371 C 0.74777 0.21066 0.62379 0.0
C1372 C 0.72145 0.17041 0.61954 0.0
C1373 C 0.69187 0.14299 0.62848 0.0
C1374 C 0.68839 0.15554 0.64135 0.0
C1375 C 0.71496 0.19547 0.64519 0.0
C1376 C 0.74397 0.22263 0.63661 0.0
C1377 C 0.76599 0.26488 0.64248 0.0
C1378 C 0.81066 0.27878 0.64504 0.0
C1379 C 0.76127 0.29498 0.63339 0.0
C1380 C 0.74362 0.25776 0.65548 0.0
C1381 C 0.71491 0.21733 0.65703 0.0
C1382 C 0.68723 0.20431 0.66743 0.0
C1383 C 0.68736 0.23351 0.67594 0.0
C1384 C 0.715 0.27506 0.674 0.0
C1385 C 0.74457 0.28708 0.66407 0.0
H1386 H 0.47968 0.13641 0.13034 0.0
H1387 H 0.51651 0.21026 0.09464 0.0
H1388 H 0.5679 0.26829 0.10776 0.0
H1389 H 0.48604 0.21655 0.15071 0.0
H1390 H 0.50237 0.20248 0.16572 0.0
H1391 H 0.47171 0.16441 0.15355 0.0
H1392 H 0.5265 0.14258 0.15085 0.0
H1393 H 0.55291 0.17776 0.16423 0.0
H1394 H 0.57828 0.18217 0.14883 0.0
H1395 H 0.61574 0.31742 0.1244 0.0
H1396 H 0.65592 0.35656 0.14393 0.0
H1397 H 0.58321 0.25466 0.16977 0.0
C1398 C 0.49962 0.1645 0.12529 0.0
C1399 C 0.4959 0.16854 0.11137 0.0
C1400 C 0.52026 0.20637 0.10519 0.0
C1401 C 0.54926 0.23945 0.11258 0.0
C1402 C 0.55226 0.23471 0.12627 0.0
C1403 C 0.52791 0.1984 0.13266 0.0
C1404 C 0.53467 0.20304 0.14772 0.0
C1405 C 0.49642 0.19621 0.15484 0.0
C1406 C 0.54887 0.17461 0.15321 0.0
C1407 C 0.56788 0.24702 0.14869 0.0
C1408 C 0.5774 0.26456 0.13616 0.0
C1409 C 0.60834 0.30419 0.13427 0.0
C1410 C 0.63094 0.32618 0.14542 0.0
C1411 C 0.6223 0.30877 0.15834 0.0
C1412 C 0.58978 0.26896 0.16004 0.0
H1413 H 0.81357 0.29719 0.11388 0.0
H1414 H 0.93879 0.37506 0.12557 0.0
H1415 H 0.91776 0.37909 0.14837 0.0
H1416 H 0.77572 0.35029 0.13252 0.0
H1417 H 0.72938 0.30563 0.13707 0.0
H1418 H 0.75442 0.30618 0.1219 0.0
H1419 H 0.75572 0.24221 0.12983 0.0
H1420 H 0.73128 0.242 0.14514 0.0
H1421 H 0.77869 0.24284 0.1457 0.0
H1422 H 0.88415 0.37829 0.16949 0.0
H1423 H 0.83928 0.37901 0.18686 0.0
H1424 H 0.73525 0.30177 0.16216 0.0
C1425 C 0.83655 0.31486 0.12126 0.0
C1426 C 0.87794 0.33574 0.11786 0.0
C1427 C 0.90694 0.35894 0.12782 0.0
C1428 C 0.89532 0.36112 0.14088 0.0
C1429 C 0.85449 0.34003 0.14394 0.0
C1430 C 0.82542 0.31773 0.1344 0.0
C1431 C 0.78342 0.30063 0.14015 0.0
C1432 C 0.75933 0.31665 0.13245 0.0
C1433 C 0.76096 0.25415 0.14021 0.0
C1434 C 0.79356 0.31748 0.1543 0.0
C1435 C 0.83481 0.33957 0.15629 0.0
C1436 C 0.8518 0.36059 0.16814 0.0
C1437 C 0.8261 0.3606 0.178 0.0
C1438 C 0.78384 0.33966 0.176 0.0
C1439 C 0.76735 0.31672 0.16417 0.0
H1440 H 0.7009 0.58098 0.13758 0.0
H1441 H 0.59055 0.49489 0.11746 0.0
H1442 H 0.57142 0.44968 0.13724 0.0
H1443 H 0.72485 0.51514 0.15047 0.0
H1444 H 0.74508 0.54057 0.16619 0.0
H1445 H 0.74498 0.56896 0.1519 0.0
H1446 H 0.70529 0.5956 0.16518 0.0
H1447 H 0.70525 0.56707 0.17959 0.0
H1448 H 0.65837 0.56021 0.17293 0.0
H1449 H 0.5727 0.40827 0.15703 0.0
H1450 H 0.59367 0.3763 0.17447 0.0
H1451 H 0.70067 0.49203 0.18238 0.0
C1452 C 0.67192 0.55334 0.13762 0.0
C1453 C 0.64683 0.54146 0.12619 0.0
C1454 C 0.60964 0.50473 0.12631 0.0
C1455 C 0.59866 0.47894 0.13748 0.0
C1456 C 0.6248 0.49094 0.14853 0.0
C1457 C 0.66032 0.52782 0.14874 0.0
C1458 C 0.6855 0.53209 0.16102 0.0
C1459 C 0.72753 0.53958 0.15716 0.0
C1460 C 0.68877 0.56574 0.17022 0.0
C1461 C 0.66006 0.49087 0.16727 0.0
C1462 C 0.62479 0.46762 0.1601 0.0
C1463 C 0.59957 0.42661 0.16296 0.0
C1464 C 0.61161 0.40867 0.17295 0.0
C1465 C 0.64872 0.4317 0.17987 0.0
C1466 C 0.67183 0.47371 0.17743 0.0
H1467 H 0.53889 0.13713 0.05763 0.0
H1468 H 0.42583 0.13498 0.05081 0.0
H1469 H 0.45086 0.16818 0.02892 0.0
H1470 H 0.59988 0.23303 0.04605 0.0
H1471 H 0.63671 0.22279 0.03881 0.0
H1472 H 0.60678 0.1928 0.05254 0.0
H1473 H 0.58303 0.12793 0.03831 0.0
H1474 H 0.61243 0.15808 0.0244 0.0
H1475 H 0.55919 0.12348 0.02228 0.0
H1476 H 0.49187 0.21005 0.00943 0.0
H1477 H 0.54669 0.26232 0.99574 0.0
H1478 H 0.63229 0.2365 0.01529 0.0
C1479 C 0.51883 0.14273 0.05146 0.0
C1480 C 0.48018 0.13315 0.05597 0.0
C1481 C 0.45547 0.14184 0.0476 0.0
C1482 C 0.46934 0.16039 0.03509 0.0
C1483 C 0.50783 0.16978 0.03105 0.0
C1484 C 0.53221 0.16128 0.03905 0.0
C1485 C 0.57409 0.17879 0.03335 0.0
C1486 C 0.60622 0.20862 0.04327 0.0
C1487 C 0.58267 0.14505 0.02935 0.0
C1488 C 0.57023 0.20019 0.02116 0.0
C1489 C 0.53147 0.19377 0.01978 0.0
C1490 C 0.52193 0.21431 0.01017 0.0
C1491 C 0.55312 0.24362 1.00232 0.0
C1492 C 0.5932 0.25207 1.00415 0.0
C1493 C 0.60148 0.22897 0.01327 0.0
H1494 H 0.89066 0.41431 0.06329 0.0
H1495 H 0.92264 0.33031 0.04624 0.0
H1496 H 0.89608 0.3362 0.02425 0.0
H1497 H 0.79885 0.38331 0.04621 0.0
H1498 H 0.80854 0.43417 0.04436 0.0
H1499 H 0.83173 0.42197 0.05789 0.0
H1500 H 0.90046 0.4811 0.04898 0.0
H1501 H 0.87552 0.48874 0.03483 0.0
H1502 H 0.91578 0.47818 0.03224 0.0
H1503 H 0.85682 0.34292 1.00531 0.0
H1504 H 0.80519 0.34737 0.99159 0.0
H1505 H 0.80375 0.43159 0.01997 0.0
C1506 C 0.89209 0.39736 0.05487 0.0
C1507 C 0.90693 0.37047 0.0565 0.0
C1508 C 0.90964 0.34967 0.04526 0.0
C1509 C 0.89533 0.35342 0.03269 0.0
C1510 C 0.87974 0.37929 0.03143 0.0
C1511 C 0.87834 0.4012 0.04219 0.0
C1512 C 0.85857 0.42559 0.03827 0.0
C1513 C 0.82232 0.41561 0.04722 0.0
C1514 C 0.88943 0.4711 0.0386 0.0
C1515 C 0.84571 0.41098 0.02402 0.0
C1516 C 0.85939 0.38531 0.0201 0.0
C1517 C 0.84704 0.36401 0.00804 0.0
C1518 C 0.81809 0.36707 1.00018 0.0
C1519 C 0.80181 0.39099 1.0045 0.0
C1520 C 0.81738 0.41477 0.01617 0.0
H1521 H 0.7047 0.58453 0.05526 0.0
H1522 H 0.60191 0.48787 0.07542 0.0
H1523 H 0.58688 0.44396 0.05561 0.0
H1524 H 0.65462 0.56233 0.02254 0.0
H1525 H 0.69958 0.57528 0.0133 0.0
H1526 H 0.70315 0.59994 0.02901 0.0
H1527 H 0.7517 0.57683 0.03884 0.0
H1528 H 0.75038 0.5565 0.02258 0.0
H1529 H 0.73778 0.5242 0.03694 0.0
H1530 H 0.58266 0.41056 0.03374 0.0
H1531 H 0.59913 0.38483 0.0136 0.0
H1532 H 0.70461 0.50228 0.00749 0.0
C1533 C 0.67982 0.5537 0.0556 0.0
C1534 C 0.655 0.53903 0.06697 0.0
C1535 C 0.62165 0.49921 0.06688 0.0
C1536 C 0.61257 0.47433 0.05561 0.0
C1537 C 0.63662 0.49003 0.04436 0.0
C1538 C 0.67002 0.52851 0.04432 0.0
C1539 C 0.69094 0.53766 0.0309 0.0
C1540 C 0.68682 0.57077 0.0235 0.0
C1541 C 0.73538 0.5495 0.03245 0.0
C1542 C 0.66639 0.49709 0.02395 0.0
C1543 C 0.63392 0.47077 0.03162 0.0
C1544 C 0.60782 0.43097 0.0276 0.0
C1545 C 0.61702 0.41672 0.01602 0.0
C1546 C 0.6527 0.44183 0.00892 0.0
C1547 C 0.67649 0.48298 0.01254 0.0
H1548 H 0.54656 0.9018 0.89591 0.0
H1549 H 0.62659 0.85236 0.89451 0.0
H1550 H 0.5966 0.8197 0.87298 0.0
H1551 H 0.46168 0.8149 0.88418 0.0
H1552 H 0.44154 0.84083 0.87455 0.0
H1553 H 0.47347 0.86528 0.88879 0.0
H1554 H 0.52111 0.92574 0.87381 0.0
H1555 H 0.48943 0.90104 0.85946 0.0
H1556 H 0.54227 0.9168 0.85909 0.0
H1557 H 0.55291 0.78568 0.85281 0.0
H1558 H 0.49525 0.74911 0.8372 0.0
H1559 H 0.44418 0.82075 0.85127 0.0
C1560 C 0.55835 0.88488 0.89091 0.0
C1561 C 0.58905 0.87984 0.89694 0.0
C1562 C 0.60298 0.85661 0.89017 0.0
C1563 C 0.58639 0.83817 0.87784 0.0
C1564 C 0.55576 0.84311 0.87225 0.0
C1565 C 0.54176 0.86581 0.87858 0.0
C1566 C 0.50566 0.86269 0.87116 0.0
C1567 C 0.4684 0.84485 0.88021 0.0
C1568 C 0.51521 0.90403 0.86554 0.0
C1569 C 0.50079 0.83369 0.86 0.0
C1570 C 0.53046 0.82334 0.8606 0.0
C1571 C 0.52996 0.79418 0.85205 0.0
C1572 C 0.49731 0.77377 0.84308 0.0
C1573 C 0.46551 0.78238 0.84285 0.0
C1574 C 0.46842 0.81396 0.85104 0.0
H1575 H 0.22076 0.7709 0.89533 0.0
H1576 H 0.10221 0.66641 0.88837 0.0
H1577 H 0.12469 0.65605 0.86641 0.0
H1578 H 0.2412 0.80687 0.86055 0.0
H1579 H 0.29369 0.82152 0.86191 0.0
H1580 H 0.26712 0.82328 0.87642 0.0
H1581 H 0.28688 0.77668 0.88935 0.0
H1582 H 0.31425 0.77577 0.87503 0.0
H1583 H 0.27554 0.72897 0.88207 0.0
H1584 H 0.16213 0.65324 0.84625 0.0
H1585 H 0.21308 0.65358 0.83122 0.0
H1586 H 0.30624 0.76078 0.85094 0.0
C1587 C 0.19922 0.74606 0.88915 0.0
C1588 C 0.15955 0.71957 0.89361 0.0
C1589 C 0.13274 0.68713 0.88523 0.0
C1590 C 0.14513 0.68125 0.87267 0.0
C1591 C 0.18435 0.70819 0.86856 0.0
C1592 C 0.21106 0.73978 0.87662 0.0
C1593 C 0.25259 0.76226 0.8705 0.0
C1594 C 0.26433 0.80609 0.86715 0.0
C1595 C 0.28415 0.76079 0.87978 0.0
C1596 C 0.24557 0.73761 0.85791 0.0
C1597 C 0.20578 0.707 0.85682 0.0
C1598 C 0.19306 0.6777 0.8468 0.0
C1599 C 0.22206 0.67839 0.83817 0.0
C1600 C 0.26315 0.70823 0.83958 0.0
C1601 C 0.27468 0.73904 0.84921 0.0
H1602 H 0.3807 0.50233 0.89306 0.0
H1603 H 0.26865 0.48247 0.90993 0.0
H1604 H 0.25344 0.50737 0.88901 0.0
H1605 H 0.40798 0.59272 0.87431 0.0
H1606 H 0.42692 0.57682 0.86066 0.0
H1607 H 0.42691 0.55831 0.87716 0.0
H1608 H 0.38652 0.48556 0.86733 0.0
H1609 H 0.38419 0.50515 0.85112 0.0
H1610 H 0.33842 0.46937 0.85936 0.0
H1611 H 0.25146 0.53612 0.86644 0.0
H1612 H 0.26923 0.57837 0.84612 0.0
H1613 H 0.38158 0.57801 0.84378 0.0
C1614 C 0.35346 0.5042 0.89243 0.0
C1615 C 0.32622 0.49148 0.90319 0.0
C1616 C 0.29014 0.49279 0.90185 0.0
C1617 C 0.28105 0.50634 0.88996 0.0
C1618 C 0.30788 0.51747 0.87936 0.0
C1619 C 0.34358 0.51693 0.88053 0.0
C1620 C 0.36736 0.53078 0.86769 0.0
C1621 C 0.40983 0.56685 0.87014 0.0
C1622 C 0.36922 0.49561 0.86098 0.0
C1623 C 0.34136 0.54273 0.85958 0.0
C1624 C 0.30624 0.53308 0.86623 0.0
C1625 C 0.27863 0.54341 0.86108 0.0
C1626 C 0.28864 0.5669 0.84939 0.0
C1627 C 0.32641 0.58073 0.84329 0.0
C1628 C 0.35199 0.56667 0.84804 0.0
H1629 H 0.51848 0.85797 0.9485 0.0
H1630 H 0.63233 0.9128 0.96989 0.0
H1631 H 0.59838 0.87077 0.9898 0.0
H1632 H 0.46123 0.85715 0.97624 0.0
H1633 H 0.41706 0.81028 0.97154 0.0
H1634 H 0.45122 0.84248 0.9589 0.0
H1635 H 0.46126 0.78337 0.95034 0.0
H1636 H 0.42484 0.7516 0.96254 0.0
H1637 H 0.47365 0.75583 0.96234 0.0
H1638 H 0.54891 0.82139 0.0078 0.0
H1639 H 0.49013 0.77293 0.02142 0.0
H1640 H 0.41158 0.75494 0.98739 0.0
C1641 C 0.53626 0.86053 0.95732 0.0
C1642 C 0.57809 0.88702 0.95756 0.0
C1643 C 0.60036 0.89113 0.96941 0.0
C1644 C 0.58129 0.86767 0.98077 0.0
C1645 C 0.53983 0.84092 0.98013 0.0
C1646 C 0.51773 0.83757 0.96866 0.0
C1647 C 0.47343 0.80883 0.97059 0.0
C1648 C 0.44934 0.83102 0.96924 0.0
C1649 C 0.45742 0.77282 0.96087 0.0
C1650 C 0.47394 0.79589 0.98482 0.0
C1651 C 0.51218 0.81442 0.99031 0.0
C1652 C 0.51884 0.8066 1.00352 0.0
C1653 C 0.4854 0.77898 0.01119 0.0
C1654 C 0.44614 0.75967 1.00553 0.0
C1655 C 0.44096 0.76876 0.99219 0.0
H1656 H 0.17667 0.6751 0.94795 0.0
H1657 H 0.13883 0.75469 0.96483 0.0
H1658 H 0.17716 0.76068 0.98565 0.0
H1659 H 0.1643 0.62007 0.97744 0.0
H1660 H 0.20664 0.61291 0.97458 0.0
H1661 H 0.18028 0.61911 0.96063 0.0
H1662 H 0.24719 0.68021 0.95206 0.0
H1663 H 0.27337 0.67279 0.96585 0.0
H1664 H 0.27744 0.72139 0.96334 0.0
H1665 H 0.22059 0.75674 1.00499 0.0
H1666 H 0.25867 0.73809 0.02113 0.0
H1667 H 0.26119 0.65699 0.99141 0.0
C1668 C 0.1772 0.69439 0.95595 0.0
C1669 C 0.1567 0.71607 0.95463 0.0
C1670 C 0.15625 0.73952 0.96549 0.0
C1671 C 0.17762 0.74281 0.97736 0.0
C1672 C 0.1984 0.72163 0.97828 0.0
C1673 C 0.19792 0.69758 0.96786 0.0
C1674 C 0.21964 0.67519 0.97158 0.0
C1675 C 0.191 0.62911 0.97103 0.0
C1676 C 0.25659 0.68819 0.96268 0.0
C1677 C 0.23198 0.68988 0.98576 0.0
C1678 C 0.22032 0.7172 0.98949 0.0
C1679 C 0.22958 0.73509 1.00219 0.0
C1680 C 0.25107 0.72438 0.01129 0.0
C1681 C 0.26196 0.69543 0.00764 0.0
C1682 C 0.25239 0.67845 0.99468 0.0
H1683 H 0.29402 0.50386 0.95737 0.0
H1684 H 0.34777 0.4359 0.97298 0.0
H1685 H 0.33254 0.44716 0.99603 0.0
H1686 H 0.33139 0.57837 0.97931 0.0
H1687 H 0.28777 0.58418 0.98089 0.0
H1688 H 0.29439 0.56237 0.96602 0.0
H1689 H 0.22409 0.49884 0.96946 0.0
H1690 H 0.21777 0.52058 0.98458 0.0
H1691 H 0.21317 0.47126 0.98497 0.0
H1692 H 0.33082 0.48329 0.01654 0.0
H1693 H 0.33965 0.53754 0.03198 0.0
H1694 H 0.2763 0.57297 1.00413 0.0
C1695 C 0.30086 0.48992 0.96566 0.0
C1696 C 0.3216 0.46874 0.96352 0.0
C1697 C 0.33117 0.4516 0.97449 0.0
C1698 C 0.32256 0.45783 0.9876 0.0
C1699 C 0.30315 0.48009 0.98949 0.0
C1700 C 0.29136 0.4949 0.97875 0.0
C1701 C 0.27523 0.52169 0.9834 0.0
C1702 C 0.29862 0.56413 0.97704 0.0
C1703 C 0.22986 0.50189 0.98043 0.0
C1704 C 0.28325 0.52278 0.99831 0.0
C1705 C 0.29882 0.4981 1.0017 0.0
C1706 C 0.31678 0.50111 0.01421 0.0
C1707 C 0.32128 0.53169 0.02306 0.0
C1708 C 0.30713 0.55816 0.01943 0.0
C1709 C 0.28526 0.55149 0.00738 0.0
H1710 H 0.16258 0.47257 0.46989 0.0
H1711 H 0.16326 0.5508 0.43826 0.0
H1712 H 0.18923 0.60791 0.45407 0.0
H1713 H 0.13241 0.51919 0.49625 0.0
H1714 H 0.16316 0.51447 0.50906 0.0
H1715 H 0.14284 0.47817 0.4956 0.0
H1716 H 0.21468 0.49344 0.48895 0.0
H1717 H 0.23307 0.52618 0.50327 0.0
H1718 H 0.25393 0.54584 0.48712 0.0
H1719 H 0.21605 0.65656 0.47261 0.0
H1720 H 0.25874 0.69817 0.49126 0.0
H1721 H 0.24214 0.59039 0.51141 0.0
C1722 C 0.16916 0.50202 0.4663 0.0
C1723 C 0.16168 0.50765 0.45281 0.0
C1724 C 0.16934 0.54617 0.44852 0.0
C1725 C 0.18348 0.57857 0.45746 0.0
C1726 C 0.18921 0.5719 0.47078 0.0
C1727 C 0.1832 0.53494 0.47519 0.0
C1728 C 0.19372 0.537 0.48996 0.0
C1729 C 0.15576 0.51063 0.4982 0.0
C1730 C 0.2258 0.52486 0.49245 0.0
C1731 C 0.20998 0.58165 0.49277 0.0
C1732 C 0.20499 0.60056 0.48171 0.0
C1733 C 0.21992 0.64211 0.48137 0.0
C1734 C 0.2438 0.66552 0.4921 0.0
C1735 C 0.25354 0.64745 0.50278 0.0
C1736 C 0.23417 0.6048 0.50357 0.0
H1737 H 0.54881 0.69416 0.45715 0.0
H1738 H 0.49487 0.56538 0.44978 0.0
H1739 H 0.45988 0.55076 0.47125 0.0
H1740 H 0.55739 0.6885 0.49497 0.0
H1741 H 0.54425 0.72713 0.49756 0.0
H1742 H 0.57138 0.72816 0.4828 0.0
H1743 H 0.51618 0.72907 0.46787 0.0
H1744 H 0.48927 0.72839 0.48254 0.0
H1745 H 0.46436 0.69 0.4699 0.0
H1746 H 0.41966 0.54926 0.49064 0.0
H1747 H 0.37888 0.56231 0.50672 0.0
H1748 H 0.46163 0.6909 0.50341 0.0
C1749 C 0.53078 0.663 0.46031 0.0
C1750 C 0.52468 0.63099 0.45175 0.0
C1751 C 0.49992 0.5905 0.4561 0.0
C1752 C 0.48007 0.5818 0.46836 0.0
C1753 C 0.48546 0.61382 0.47637 0.0
C1754 C 0.51054 0.65368 0.47263 0.0
C1755 C 0.50736 0.6822 0.48241 0.0
C1756 C 0.54749 0.70802 0.48988 0.0
C1757 C 0.49345 0.70896 0.47525 0.0
C1758 C 0.47523 0.65212 0.49177 0.0
C1759 C 0.46332 0.61278 0.48819 0.0
C1760 C 0.42975 0.57985 0.49393 0.0
C1761 C 0.40686 0.58739 0.50313 0.0
C1762 C 0.41815 0.62743 0.50671 0.0
C1763 C 0.45363 0.65996 0.50136 0.0
H1764 H 0.4084 0.92548 0.45981 0.0
H1765 H 0.35093 0.82799 0.43094 0.0
H1766 H 0.35078 0.7801 0.44756 0.0
H1767 H 0.47247 0.89599 0.47462 0.0
H1768 H 0.46741 0.9078 0.49166 0.0
H1769 H 0.46001 0.93469 0.47812 0.0
H1770 H 0.38897 0.91408 0.48684 0.0
H1771 H 0.39637 0.88764 0.50055 0.0
H1772 H 0.35314 0.86139 0.48964 0.0
H1773 H 0.3668 0.74641 0.46506 0.0
H1774 H 0.38626 0.7224 0.48479 0.0
H1775 H 0.42667 0.83763 0.50468 0.0
C1776 C 0.39472 0.89376 0.45724 0.0
C1777 C 0.37934 0.87997 0.4442 0.0
C1778 C 0.36248 0.83871 0.44093 0.0
C1779 C 0.36238 0.81144 0.45027 0.0
C1780 C 0.37871 0.82591 0.46292 0.0
C1781 C 0.39364 0.86573 0.46662 0.0
C1782 C 0.41007 0.87279 0.48091 0.0
C1783 C 0.45517 0.90472 0.48135 0.0
C1784 C 0.38567 0.88468 0.49002 0.0
C1785 C 0.4032 0.831 0.4844 0.0
C1786 C 0.38549 0.80492 0.4737 0.0
C1787 C 0.37954 0.76604 0.47367 0.0
C1788 C 0.39108 0.75287 0.48496 0.0
C1789 C 0.40737 0.77785 0.49644 0.0
C1790 C 0.41357 0.81763 0.49617 0.0
H1791 H 0.23529 0.52273 0.40408 0.0
H1792 H 0.11729 0.43978 0.38737 0.0
H1793 H 0.14322 0.46514 0.36463 0.0
H1794 H 0.25931 0.60591 0.382 0.0
H1795 H 0.31189 0.62064 0.38146 0.0
H1796 H 0.28278 0.5957 0.39603 0.0
H1797 H 0.30404 0.54154 0.39375 0.0
H1798 H 0.33161 0.56502 0.37879 0.0
H1799 H 0.29275 0.51263 0.3785 0.0
H1800 H 0.18421 0.49988 0.34344 0.0
H1801 H 0.2328 0.54639 0.32665 0.0
H1802 H 0.32253 0.60462 0.35799 0.0
C1803 C 0.21465 0.50993 0.39568 0.0
C1804 C 0.17424 0.47918 0.39751 0.0
C1805 C 0.14831 0.46357 0.38622 0.0
C1806 C 0.1629 0.47753 0.37327 0.0
C1807 C 0.20336 0.50717 0.37183 0.0
C1808 C 0.22856 0.52354 0.38282 0.0
C1809 C 0.27051 0.55554 0.37884 0.0
C1810 C 0.28175 0.59689 0.38494 0.0
C1811 C 0.30153 0.54288 0.38271 0.0
C1812 C 0.2651 0.55524 0.36386 0.0
C1813 C 0.22642 0.52684 0.3599 0.0
C1814 C 0.21454 0.52212 0.34647 0.0
C1815 C 0.2424 0.54831 0.33698 0.0
C1816 C 0.28129 0.57894 0.34107 0.0
C1817 C 0.29296 0.5814 0.35459 0.0
H1818 H 0.50723 0.71871 0.40041 0.0
H1819 H 0.57227 0.66973 0.3798 0.0
H1820 H 0.54672 0.67892 0.35814 0.0
H1821 H 0.41666 0.67559 0.37923 0.0
H1822 H 0.41389 0.72074 0.38107 0.0
H1823 H 0.43804 0.70709 0.39392 0.0
H1824 H 0.4992 0.78147 0.38996 0.0
H1825 H 0.47446 0.7889 0.37572 0.0
H1826 H 0.52335 0.79375 0.3739 0.0
H1827 H 0.51103 0.68855 0.33894 0.0
H1828 H 0.46131 0.69125 0.3237 0.0
H1829 H 0.41837 0.73343 0.35634 0.0
C1830 C 0.51597 0.71009 0.39129 0.0
C1831 C 0.54093 0.6927 0.3917 0.0
C1832 C 0.55243 0.68228 0.37964 0.0
C1833 C 0.53846 0.68781 0.3673 0.0
C1834 C 0.51344 0.70443 0.36714 0.0
C1835 C 0.50198 0.71523 0.37879 0.0
C1836 C 0.47362 0.73121 0.37569 0.0
C1837 C 0.43323 0.70718 0.38295 0.0
C1838 C 0.49388 0.77653 0.37902 0.0
C1839 C 0.46837 0.72426 0.36069 0.0
C1840 C 0.49289 0.71036 0.35591 0.0
C1841 C 0.49194 0.6998 0.34252 0.0
C1842 C 0.46376 0.70158 0.33392 0.0
C1843 C 0.43621 0.71258 0.33888 0.0
C1844 C 0.43948 0.72533 0.3523 0.0
H1845 H 0.32156 0.82343 0.39719 0.0
H1846 H 0.38032 0.93481 0.37453 0.0
H1847 H 0.37023 0.89564 0.35373 0.0
H1848 H 0.36157 0.76858 0.37826 0.0
H1849 H 0.31515 0.72169 0.38023 0.0
H1850 H 0.33054 0.76076 0.39267 0.0
H1851 H 0.26019 0.7552 0.38903 0.0
H1852 H 0.24762 0.71873 0.37583 0.0
H1853 H 0.24678 0.76477 0.37265 0.0
H1854 H 0.35115 0.84351 0.33526 0.0
H1855 H 0.33467 0.78372 0.32125 0.0
H1856 H 0.29012 0.70691 0.3562 0.0
C1857 C 0.33287 0.83944 0.38785 0.0
C1858 C 0.35272 0.88205 0.38742 0.0
C1859 C 0.36617 0.90218 0.37504 0.0
C1860 C 0.36012 0.88016 0.36319 0.0
C1861 C 0.34026 0.83804 0.36392 0.0
C1862 C 0.32751 0.81792 0.37598 0.0
C1863 C 0.30739 0.77254 0.37408 0.0
C1864 C 0.33005 0.75493 0.38178 0.0
C1865 C 0.26285 0.75159 0.37814 0.0
C1866 C 0.31146 0.7703 0.35912 0.0
C1867 C 0.32968 0.80828 0.35338 0.0
C1868 C 0.3369 0.81364 0.33967 0.0
C1869 C 0.327 0.7795 0.33175 0.0
C1870 C 0.31086 0.7408 0.33765 0.0
C1871 C 0.30202 0.73615 0.35143 0.0
H1872 H 0.27809 0.07407 0.09144 0.0
H1873 H 0.32282 0.04621 0.12764 0.0
H1874 H 0.26233 0.03485 0.13963 0.0
H1875 H 0.23396 0.12685 0.1075 0.0
H1876 H 0.19072 0.1069 0.09647 0.0
H1877 H 0.23771 0.11309 0.09058 0.0
H1878 H 0.20199 0.03735 0.08391 0.0
H1879 H 0.15485 0.03104 0.08968 0.0
H1880 H 0.1734 0.99935 0.09624 0.0
H1881 H 0.19686 0.02599 0.14782 0.0
H1882 H 0.12898 0.01691 0.15112 0.0
H1883 H 0.12683 0.05137 0.10993 0.0
C1884 C 0.27505 0.06542 0.10187 0.0
C1885 C 0.30527 0.06105 0.10858 0.0
C1886 C 0.30014 0.04974 0.12225 0.0
C1887 C 0.2659 0.04332 0.12919 0.0
C1888 C 0.2369 0.04827 0.12235 0.0
C1889 C 0.24091 0.0588 0.10898 0.0
C1890 C 0.20486 0.06147 0.10398 0.0
C1891 C 0.21759 0.10465 0.09936 0.0
C1892 C 0.18245 0.03045 0.09279 0.0
C1893 C 0.18001 0.05062 0.11661 0.0
C1894 C 0.19917 0.04339 0.12711 0.0
C1895 C 0.18176 0.03208 0.13971 0.0
C1896 C 0.1435 0.02759 0.14158 0.0
C1897 C 0.12318 0.03453 0.13093 0.0
C1898 C 0.14186 0.0463 0.11831 0.0
H1899 H 0.91859 0.19837 0.0864 0.0
H1900 H 0.9872 0.29196 0.11578 0.0
H1901 H 1.00095 0.24445 0.12839 0.0
H1902 H 0.87465 0.11348 0.10887 0.0
H1903 H 0.87982 0.07961 0.09764 0.0
H1904 H 0.87397 0.12035 0.09105 0.0
H1905 H 0.94002 0.14683 0.07772 0.0
H1906 H 0.94588 0.10597 0.08417 0.0
H1907 H 0.98577 0.15756 0.08641 0.0
H1908 H 0.00521 0.1868 0.13822 0.0
H1909 H 0.00788 0.12513 0.14325 0.0
H1910 H 0.9406 0.06938 0.10679 0.0
C1911 C 0.9365 0.20877 0.09549 0.0
C1912 C 0.95173 0.24876 0.10017 0.0
C1913 C 0.97545 0.26151 0.112 0.0
C1914 C 0.98317 0.23468 0.11927 0.0
C1915 C 0.96748 0.1954 0.11447 0.0
C1916 C 0.94528 0.18261 0.10273 0.0
C1917 C 0.93386 0.13937 0.09945 0.0
C1918 C 0.88784 0.11157 0.09925 0.0
C1919 C 0.95251 0.13733 0.08615 0.0
C1920 C 0.95299 0.12988 0.11122 0.0
C1921 C 0.9716 0.16248 0.11985 0.0
C1922 C 0.99084 0.16108 0.13153 0.0
C1923 C 0.99183 0.12569 0.13436 0.0
C1924 C 0.97414 0.09227 0.12548 0.0
C1925 C 0.95431 0.09442 0.11377 0.0
H1926 H 0.82177 0.71514 0.10471 0.0
H1927 H 0.71732 0.70571 0.12446 0.0
H1928 H 0.76203 0.76458 0.13868 0.0
H1929 H 0.89127 0.75007 0.13346 0.0
H1930 H 0.93359 0.78495 0.12355 0.0
H1931 H 0.8938 0.73925 0.11609 0.0
H1932 H 0.883 0.78123 0.09777 0.0
H1933 H 0.92322 0.82679 0.10503 0.0
H1934 H 0.87412 0.82145 0.10268 0.0
H1935 H 0.81883 0.82665 0.15028 0.0
H1936 H 0.88045 0.89246 0.15505 0.0
H1937 H 0.94639 0.86293 0.12671 0.0
C1938 C 0.80835 0.72518 0.11214 0.0
C1939 C 0.7661 0.70568 0.11355 0.0
C1940 C 0.74963 0.72028 0.12319 0.0
C1941 C 0.77482 0.75341 0.13141 0.0
C1942 C 0.81644 0.7719 0.12981 0.0
C1943 C 0.83298 0.75866 0.12023 0.0
C1944 C 0.87813 0.78632 0.11943 0.0
C1945 C 0.90051 0.76379 0.12337 0.0
C1946 C 0.89031 0.80507 0.1054 0.0
C1947 C 0.88439 0.81771 0.12983 0.0
C1948 C 0.8487 0.80836 0.13602 0.0
C1949 C 0.84698 0.83408 0.14557 0.0
C1950 C 0.88216 0.87118 0.14834 0.0
C1951 C 0.91809 0.88237 0.14135 0.0
C1952 C 0.9194 0.85465 0.13236 0.0
H1953 H 0.05431 0.28034 0.42468 0.0
H1954 H 0.16919 0.35579 0.40549 0.0
H1955 H 0.15942 0.29751 0.39202 0.0
H1956 H 0.06618 0.19352 0.42754 0.0
H1957 H 0.01364 0.15752 0.42463 0.0
H1958 H 0.02821 0.20595 0.43197 0.0
H1959 H 0.98936 0.21951 0.41321 0.0
H1960 H 0.97494 0.17119 0.40576 0.0
H1961 H 1.00102 0.21672 0.39597 0.0
H1962 H 0.13708 0.23051 0.38049 0.0
H1963 H 0.10771 0.15848 0.37406 0.0
H1964 H 0.00998 0.12604 0.40172 0.0
C1965 C 0.0772 0.28456 0.41757 0.0
C1966 C 0.11244 0.32264 0.41611 0.0
C1967 C 0.14204 0.32684 0.40684 0.0
C1968 C 0.13664 0.29398 0.39906 0.0
C1969 C 0.10165 0.25681 0.40074 0.0
C1970 C 0.0727 0.25177 0.4099 0.0
C1971 C 0.03931 0.20796 0.41045 0.0
C1972 C 0.03671 0.1902 0.42448 0.0
C1973 C 0.99876 0.20361 0.40609 0.0
C1974 C 0.05419 0.18924 0.40027 0.0
C1975 C 0.08979 0.218 0.39457 0.0
C1976 C 0.10919 0.20771 0.3849 0.0
C1977 C 0.09223 0.1668 0.38122 0.0
C1978 C 0.05671 0.13672 0.38737 0.0
C1979 C 0.03731 0.14839 0.39687 0.0
H1980 H 0.73818 0.79351 0.42235 0.0
H1981 H 0.69365 0.73458 0.3839 0.0
H1982 H 0.7527 0.78964 0.37289 0.0
H1983 H 0.7799 0.89597 0.41063 0.0
H1984 H 0.82394 0.91635 0.4213 0.0
H1985 H 0.77792 0.87231 0.42645 0.0
H1986 H 0.81553 0.8322 0.42936 0.0
H1987 H 0.86173 0.87631 0.42442 0.0
H1988 H 0.84395 0.82921 0.41561 0.0
H1989 H 0.81603 0.85202 0.36567 0.0
H1990 H 0.88307 0.91305 0.36339 0.0
H1991 H 0.88805 0.93175 0.40627 0.0
C1992 C 0.74108 0.79204 0.41165 0.0
C1993 C 0.71099 0.7595 0.40405 0.0
C1994 C 0.71607 0.75896 0.39002 0.0
C1995 C 0.74952 0.79031 0.38361 0.0
C1996 C 0.77816 0.82225 0.39129 0.0
C1997 C 0.7747 0.82315 0.40502 0.0
C1998 C 0.81063 0.86061 0.41091 0.0
C1999 C 0.79729 0.88792 0.41773 0.0
C2000 C 0.83437 0.84888 0.42065 0.0
C2001 C 0.83462 0.88034 0.39836 0.0
C2002 C 0.81511 0.85797 0.38713 0.0
C2003 C 0.83159 0.86988 0.3744 0.0
C2004 C 0.86958 0.90496 0.37316 0.0
C2005 C 0.89088 0.92766 0.38458 0.0
C2006 C 0.87257 0.9153 0.3973 0.0
H2007 H 0.23731 0.96 0.42151 0.0
H2008 H 0.30341 0.99764 0.38428 0.0
H2009 H 0.2473 1.00114 0.37362 0.0
H2010 H 0.13906 0.89856 0.40716 0.0
H2011 H 0.11356 0.91387 0.41877 0.0
H2012 H 0.15899 0.91429 0.42384 0.0
H2013 H 0.19211 0.98999 0.43034 0.0
H2014 H 0.14652 0.98956 0.42552 0.0
H2015 H 0.19384 0.02583 0.41821 0.0
H2016 H 0.18357 0.99793 0.36648 0.0
H2017 H 0.11989 0.9983 0.3643 0.0
H2018 H 0.09436 0.96488 0.40605 0.0
C2019 C 0.24013 0.96947 0.41118 0.0
C2020 C 0.27485 0.97842 0.40375 0.0
C2021 C 0.27728 0.99064 0.39023 0.0
C2022 C 0.24539 0.99249 0.38401 0.0
C2023 C 0.21124 0.98245 0.39145 0.0
C2024 C 0.20859 0.97199 0.4048 0.0
C2025 C 0.16876 0.96403 0.41053 0.0
C2026 C 0.14361 0.92007 0.41536 0.0
C2027 C 0.17573 0.99415 0.42181 0.0
C2028 C 0.14962 0.97156 0.3983 0.0
C2029 C 0.1745 0.98156 0.38737 0.0
C2030 C 0.16371 0.99002 0.37495 0.0
C2031 C 0.12703 0.98952 0.37375 0.0
C2032 C 0.10156 0.98083 0.3849 0.0
C2033 C 0.11294 0.97122 0.39729 0.0
H2034 H 0.75724 0.93606 0.91583 0.0
H2035 H 0.7459 0.04165 0.90754 0.0
H2036 H 0.80486 0.06774 0.89257 0.0
H2037 H 0.86352 0.98583 0.91681 0.0
H2038 H 0.86557 0.94431 0.90912 0.0
H2039 H 0.82239 0.93478 0.91876 0.0
H2040 H 0.77617 0.89774 0.89839 0.0
H2041 H 0.81942 0.90806 0.88858 0.0
H2042 H 0.78491 0.92388 0.88266 0.0
H2043 H 0.86777 0.08334 0.87934 0.0
H2044 H 0.9307 0.08894 0.87058 0.0
H2045 H 0.8969 0.97125 0.88688 0.0
C2046 C 0.76694 0.96478 0.91094 0.0
C2047 C 0.74679 0.98682 0.91293 0.0
C2048 C 0.76086 0.02425 0.90625 0.0
C2049 C 0.79411 0.03912 0.89764 0.0
C2050 C 0.8126 0.01599 0.89573 0.0
C2051 C 0.79949 0.9797 0.90228 0.0
C2052 C 0.82492 0.96092 0.89899 0.0
C2053 C 0.84531 0.95622 0.91167 0.0
C2054 C 0.79985 0.92024 0.89172 0.0
C2055 C 0.85517 0.99271 0.88974 0.0
C2056 C 0.8475 0.02417 0.88785 0.0
C2057 C 0.87352 0.0585 0.88053 0.0
C2058 C 0.90891 0.0613 0.87548 0.0
C2059 C 0.9175 0.02982 0.87769 0.0
C2060 C 0.8899 0.99482 0.8846 0.0
H2061 H 0.12807 0.84605 0.90294 0.0
H2062 H 0.00655 0.75024 0.91175 0.0
H2063 H 0.97932 0.78848 0.89991 0.0
H2064 H 0.11312 0.92663 0.9085 0.0
H2065 H 0.14486 0.95775 0.89515 0.0
H2066 H 0.15434 0.92068 0.90284 0.0
H2067 H 0.14928 0.88831 0.87965 0.0
H2068 H 0.13955 0.92527 0.87188 0.0
H2069 H 0.10469 0.87207 0.86948 0.0
H2070 H 0.96607 0.84092 0.8901 0.0
H2071 H 0.96752 0.9034 0.88268 0.0
H2072 H 0.0973 0.96363 0.87904 0.0
C2073 C 0.09567 0.83276 0.90226 0.0
C2074 C 0.0694 0.79518 0.90834 0.0
C2075 C 0.02724 0.77891 0.90716 0.0
C2076 C 0.01153 0.80034 0.90041 0.0
C2077 C 0.03837 0.83757 0.8947 0.0
C2078 C 0.07955 0.85346 0.89544 0.0
C2079 C 0.10202 0.89522 0.88925 0.0
C2080 C 0.13022 0.92692 0.89955 0.0
C2081 C 0.12526 0.89519 0.87683 0.0
C2082 C 0.06708 0.90121 0.88544 0.0
C2083 C 0.03059 0.86737 0.88855 0.0
C2084 C 0.9943 0.86715 0.88731 0.0
C2085 C 0.9954 0.90268 0.88311 0.0
C2086 C 0.03243 0.9377 0.88008 0.0
C2087 C 0.06859 0.93669 0.8809 0.0
H2088 H 0.26775 0.28664 0.92297 0.0
H2089 H 0.31927 0.3572 0.88707 0.0
H2090 H 0.26974 0.29974 0.8733 0.0
H2091 H 0.24134 0.18646 0.90847 0.0
H2092 H 0.19564 0.16131 0.91802 0.0
H2093 H 0.23901 0.20583 0.92464 0.0
H2094 H 0.19534 0.23951 0.92764 0.0
H2095 H 0.15213 0.19558 0.92077 0.0
H2096 H 0.16901 0.24453 0.91338 0.0
H2097 H 0.20757 0.23733 0.86376 0.0
H2098 H 0.14361 0.17325 0.8594 0.0
H2099 H 0.13493 0.14542 0.90176 0.0
C2100 C 0.26951 0.2896 0.91219 0.0
C2101 C 0.29743 0.32628 0.9061 0.0
C2102 C 0.29838 0.32916 0.89196 0.0
C2103 C 0.2702 0.29676 0.88405 0.0
C2104 C 0.24172 0.26161 0.89044 0.0
C2105 C 0.24181 0.25764 0.9042 0.0
C2106 C 0.20674 0.21799 0.90877 0.0
C2107 C 0.22158 0.19132 0.91536 0.0
C2108 C 0.1792 0.22485 0.91819 0.0
C2109 C 0.18621 0.20072 0.89551 0.0
C2110 C 0.20666 0.22604 0.885 0.0
C2111 C 0.1917 0.21696 0.87191 0.0
C2112 C 0.15525 0.18071 0.86952 0.0
C2113 C 0.13439 0.15421 0.88021 0.0
C2114 C 0.15027 0.16471 0.89332 0.0
H2115 H 0.98928 0.75797 0.58797 0.0
H2116 H 0.01398 0.71525 0.62517 0.0
H2117 H 0.01914 0.77416 0.63697 0.0
H2118 H 0.05753 0.86621 0.59456 0.0
H2119 H 0.02416 0.88082 0.58676 0.0
H2120 H 0.02434 0.83618 0.58114 0.0
H2121 H 0.94752 0.79385 0.58528 0.0
H2122 H 0.94724 0.83823 0.59115 0.0
H2123 H 0.92829 0.79405 0.60162 0.0
H2124 H 0.01735 0.83543 0.64513 0.0
H2125 H 0.01698 0.89912 0.64849 0.0
H2126 H 0.9944 0.90314 0.60606 0.0
C2127 C 0.99658 0.76144 0.59854 0.0
C2128 C 1.00133 0.73191 0.60561 0.0
C2129 C 0.01036 0.73743 0.61949 0.0
C2130 C 0.01314 0.77074 0.62632 0.0
C2131 C 0.00705 0.79858 0.61916 0.0
C2132 C 0.99963 0.79472 0.60554 0.0
C2133 C 0.99418 0.82899 0.60026 0.0
C2134 C 0.02701 0.85457 0.59008 0.0
C2135 C 0.95178 0.81279 0.59422 0.0
C2136 C 0.99944 0.85248 0.61305 0.0
C2137 C 0.00652 0.83423 0.62385 0.0
C2138 C 0.01199 0.85011 0.63673 0.0
C2139 C 0.01134 0.88621 0.63857 0.0
C2140 C 0.00546 0.90629 0.62759 0.0
C2141 C 0.99887 0.88863 0.6147 0.0
H2142 H 0.30236 0.29293 0.61495 0.0
H2143 H 0.32982 0.22613 0.58599 0.0
H2144 H 0.27767 0.16198 0.59563 0.0
H2145 H 0.27616 0.22297 0.64292 0.0
H2146 H 0.23381 0.22766 0.64811 0.0
H2147 H 0.27579 0.26934 0.63989 0.0
H2148 H 0.22785 0.27097 0.62177 0.0
H2149 H 0.18577 0.23008 0.63015 0.0
H2150 H 0.19442 0.22528 0.61275 0.0
H2151 H 0.22441 0.10548 0.60815 0.0
H2152 H 0.16066 0.05858 0.61919 0.0
H2153 H 0.16108 0.15936 0.63905 0.0
C2154 C 0.29709 0.2647 0.61064 0.0
C2155 C 0.32015 0.26445 0.59972 0.0
C2156 C 0.31227 0.22704 0.59425 0.0
C2157 C 0.28312 0.19041 0.59979 0.0
C2158 C 0.26141 0.19152 0.61068 0.0
C2159 C 0.26692 0.22751 0.61581 0.0
C2160 C 0.23603 0.21949 0.62657 0.0
C2161 C 0.2567 0.23585 0.64018 0.0
C2162 C 0.20944 0.23751 0.62256 0.0
C2163 C 0.21219 0.17345 0.62652 0.0
C2164 C 0.22845 0.15822 0.61755 0.0
C2165 C 0.21145 0.11693 0.61525 0.0
C2166 C 0.17549 0.09048 0.62167 0.0
C2167 C 0.15659 0.10532 0.63017 0.0
C2168 C 0.17575 0.14723 0.63297 0.0
H2169 H 0.85653 0.13023 0.5892 0.0
H2170 H 0.75297 0.05212 0.61339 0.0
H2171 H 0.79602 0.03618 0.6278 0.0
H2172 H 0.89918 0.06499 0.58997 0.0
H2173 H 0.95041 0.10643 0.59022 0.0
H2174 H 0.9114 0.11267 0.58241 0.0
H2175 H 0.93113 0.1749 0.59757 0.0
H2176 H 0.96961 0.16821 0.60564 0.0
H2177 H 0.93112 0.16943 0.61547 0.0
H2178 H 0.85176 0.03092 0.64014 0.0
H2179 H 0.91182 0.02584 0.64646 0.0
H2180 H 0.97691 0.10335 0.61319 0.0
C2181 C 0.84292 0.10961 0.5975 0.0
C2182 C 0.80147 0.09242 0.6002 0.0
C2183 C 0.78462 0.06532 0.61107 0.0
C2184 C 0.80893 0.05649 0.61941 0.0
C2185 C 0.84991 0.07458 0.61663 0.0
C2186 C 0.86653 0.09979 0.60573 0.0
C2187 C 0.91068 0.11301 0.60432 0.0
C2188 C 0.91835 0.09838 0.59094 0.0
C2189 C 0.93719 0.15913 0.60584 0.0
C2190 C 0.91631 0.09117 0.61606 0.0
C2191 C 0.88124 0.06994 0.62327 0.0
C2192 C 0.87934 0.04734 0.63454 0.0
C2193 C 0.91365 0.04494 0.63815 0.0
C2194 C 0.94885 0.0643 0.63032 0.0
C2195 C 0.95037 0.08847 0.61938 0.0
H2196 H 0.96389 0.38951 0.42586 0.0
H2197 H 0.00366 0.37354 0.46502 0.0
H2198 H 0.9455 0.37361 0.47529 0.0
H2199 H 0.93048 0.45655 0.43585 0.0
H2200 H 0.8871 0.4356 0.42488 0.0
H2201 H 0.93086 0.43252 0.42042 0.0
H2202 H 0.88731 0.35456 0.4182 0.0
H2203 H 0.84328 0.35753 0.42233 0.0
H2204 H 0.85606 0.32547 0.43194 0.0
H2205 H 0.88437 0.37939 0.4815 0.0
H2206 H 0.82033 0.3804 0.48255 0.0
H2207 H 0.82097 0.39209 0.43938 0.0
C2208 C 0.95996 0.38522 0.43656 0.0
C2209 C 0.98838 0.38142 0.44461 0.0
C2210 C 0.98225 0.37631 0.45861 0.0
C2211 C 0.94943 0.37662 0.46457 0.0
C2212 C 0.92277 0.38187 0.45641 0.0
C2213 C 0.92728 0.38533 0.44268 0.0
C2214 C 0.89425 0.39029 0.43614 0.0
C2215 C 0.91174 0.43117 0.4289 0.0
C2216 C 0.8687 0.35485 0.42659 0.0
C2217 C 0.87054 0.38913 0.44832 0.0
C2218 C 0.88759 0.38468 0.45995 0.0
C2219 C 0.87067 0.38271 0.47243 0.0
C2220 C 0.8345 0.38372 0.47296 0.0
C2221 C 0.81561 0.38632 0.46106 0.0
C2222 C 0.83463 0.3901 0.44867 0.0
H2223 H 0.64307 0.59839 0.43985 0.0
H2224 H 0.57258 0.52945 0.40537 0.0
H2225 H 0.57936 0.47177 0.41252 0.0
H2226 H 0.7128 0.5573 0.43949 0.0
H2227 H 0.71609 0.55621 0.45745 0.0
H2228 H 0.70728 0.59344 0.44944 0.0
H2229 H 0.64317 0.56918 0.46364 0.0
H2230 H 0.65126 0.53119 0.47145 0.0
H2231 H 0.60417 0.51673 0.46303 0.0
H2232 H 0.58806 0.4201 0.42365 0.0
H2233 H 0.61022 0.37927 0.43623 0.0
H2234 H 0.67809 0.47923 0.4636 0.0
C2235 C 0.63003 0.57151 0.43366 0.0
C2236 C 0.60707 0.56847 0.42205 0.0
C2237 C 0.59004 0.53253 0.41432 0.0
C2238 C 0.5935 0.4994 0.41834 0.0
C2239 C 0.61448 0.50252 0.43009 0.0
C2240 C 0.63345 0.53776 0.43751 0.0
C2241 C 0.65475 0.53233 0.44962 0.0
C2242 C 0.70045 0.56155 0.44896 0.0
C2243 C 0.63729 0.53769 0.46271 0.0
C2244 C 0.64444 0.48857 0.44778 0.0
C2245 C 0.62063 0.47215 0.4365 0.0
C2246 C 0.60692 0.43258 0.43245 0.0
C2247 C 0.61941 0.40953 0.43972 0.0
C2248 C 0.64549 0.42596 0.45091 0.0
C2249 C 0.65745 0.46572 0.45524 0.0
H2250 H 0.50932 0.0728 0.41999 0.0
H2251 H 0.40967 0.04484 0.44635 0.0
H2252 H 0.45468 0.10458 0.46029 0.0
H2253 H 0.58764 0.10812 0.44482 0.0
H2254 H 0.62436 0.14802 0.43446 0.0
H2255 H 0.58457 0.1026 0.42689 0.0
H2256 H 0.56234 0.14494 0.4126 0.0
H2257 H 0.60256 0.19047 0.41991 0.0
H2258 H 0.55139 0.18029 0.42076 0.0
H2259 H 0.51269 0.16768 0.47169 0.0
H2260 H 0.574 0.2332 0.47711 0.0
H2261 H 0.6332 0.21953 0.44251 0.0
C2262 C 0.49685 0.07922 0.42868 0.0
C2263 C 0.45601 0.05408 0.43211 0.0
C2264 C 0.44082 0.06385 0.44349 0.0
C2265 C 0.46627 0.09747 0.45153 0.0
C2266 C 0.50669 0.12117 0.44799 0.0
C2267 C 0.52155 0.11277 0.43666 0.0
C2268 C 0.56533 0.14392 0.43449 0.0
C2269 C 0.59204 0.12449 0.43521 0.0
C2270 C 0.5707 0.16623 0.42116 0.0
C2271 C 0.57295 0.17143 0.44632 0.0
C2272 C 0.53913 0.1576 0.45418 0.0
C2273 C 0.53927 0.17871 0.46558 0.0
C2274 C 0.57431 0.21566 0.46868 0.0
C2275 C 0.60827 0.23125 0.46025 0.0
C2276 C 0.60772 0.20819 0.44917 0.0
H2277 H 0.78666 0.64291 0.75478 0.0
H2278 H 0.71466 0.67236 0.72839 0.0
H2279 H 0.69878 0.61284 0.71433 0.0
H2280 H 0.82717 0.60577 0.72999 0.0
H2281 H 0.82329 0.56521 0.74031 0.0
H2282 H 0.83034 0.611 0.74793 0.0
H2283 H 0.76608 0.56963 0.76206 0.0
H2284 H 0.75929 0.52372 0.75466 0.0
H2285 H 0.7192 0.53534 0.75378 0.0
H2286 H 0.69306 0.55065 0.70264 0.0
H2287 H 0.68796 0.48508 0.69679 0.0
H2288 H 0.75951 0.49466 0.73187 0.0
C2289 C 0.76748 0.63676 0.74605 0.0
C2290 C 0.75199 0.66226 0.74263 0.0
C2291 C 0.72662 0.653 0.73123 0.0
C2292 C 0.71779 0.61953 0.72311 0.0
C2293 C 0.7341 0.5953 0.72665 0.0
C2294 C 0.75768 0.60306 0.73803 0.0
C2295 C 0.7693 0.57099 0.74018 0.0
C2296 C 0.81526 0.58936 0.73956 0.0
C2297 C 0.75244 0.54859 0.75345 0.0
C2298 C 0.74853 0.54387 0.72827 0.0
C2299 C 0.72909 0.55875 0.72039 0.0
C2300 C 0.70803 0.53866 0.70879 0.0
C2301 C 0.70556 0.50169 0.70547 0.0
C2302 C 0.72332 0.48498 0.71389 0.0
C2303 C 0.74569 0.50685 0.72525 0.0
H2304 H 0.42818 0.13819 0.75449 0.0
H2305 H 0.38055 0.07278 0.71721 0.0
H2306 H 0.43819 0.12677 0.70513 0.0
H2307 H 0.46472 0.23699 0.74134 0.0
H2308 H 0.5098 0.26053 0.75153 0.0
H2309 H 0.46545 0.21615 0.75747 0.0
H2310 H 0.50619 0.17929 0.76072 0.0
H2311 H 0.55081 0.22382 0.75501 0.0
H2312 H 0.53414 0.17587 0.7469 0.0
H2313 H 0.49941 0.18996 0.6968 0.0
H2314 H 0.56389 0.2535 0.69341 0.0
H2315 H 0.5723 0.27694 0.73609 0.0
C2316 C 0.4302 0.13493 0.74382 0.0
C2317 C 0.39977 0.10115 0.73683 0.0
C2318 C 0.40348 0.09824 0.72283 0.0
C2319 C 0.43603 0.12891 0.71584 0.0
C2320 C 0.46492 0.1623 0.72297 0.0
C2321 C 0.46271 0.16521 0.73668 0.0
C2322 C 0.49802 0.20415 0.74194 0.0
C2323 C 0.48362 0.23103 0.74845 0.0
C2324 C 0.52382 0.19524 0.75171 0.0
C2325 C 0.52025 0.22263 0.72906 0.0
C2326 C 0.50051 0.19825 0.7182 0.0
C2327 C 0.51526 0.20923 0.70525 0.0
C2328 C 0.55176 0.24556 0.7034 0.0
C2329 C 0.57324 0.27028 0.71447 0.0
C2330 C 0.55671 0.25875 0.72741 0.0
H2331 H 0.92532 0.32643 0.74966 0.0
H2332 H 0.98301 0.3424 0.71125 0.0
H2333 H 0.92738 0.34668 0.70027 0.0
H2334 H 0.82489 0.26433 0.73825 0.0
H2335 H 0.80364 0.2864 0.74901 0.0
H2336 H 0.84884 0.28633 0.75403 0.0
H2337 H 0.8864 0.36427 0.75692 0.0
H2338 H 0.8411 0.36447 0.75214 0.0
H2339 H 0.88718 0.39544 0.74322 0.0
H2340 H 0.86309 0.34522 0.69324 0.0
H2341 H 0.79926 0.34624 0.69122 0.0
H2342 H 0.78455 0.33217 0.73423 0.0
C2343 C 0.9266 0.33149 0.73897 0.0
C2344 C 0.95857 0.33413 0.73133 0.0
C2345 C 0.95893 0.34045 0.71734 0.0
C2346 C 0.92734 0.3427 0.71098 0.0
C2347 C 0.89569 0.33881 0.71875 0.0
C2348 C 0.8954 0.33398 0.73247 0.0
C2349 C 0.85787 0.3307 0.73851 0.0
C2350 C 0.83231 0.28949 0.74535 0.0
C2351 C 0.8688 0.36582 0.74827 0.0
C2352 C 0.83707 0.33425 0.72606 0.0
C2353 C 0.85913 0.33857 0.71474 0.0
C2354 C 0.84566 0.34208 0.70206 0.0
C2355 C 0.80921 0.34233 0.70099 0.0
C2356 C 0.7869 0.33936 0.71256 0.0
C2357 C 0.80089 0.3346 0.72519 0.0
H2358 H 0.4301 0.32633 0.24867 0.0
H2359 H 0.34934 0.20648 0.23293 0.0
H2360 H 0.39955 0.21577 0.216 0.0
H2361 H 0.47936 0.37555 0.21667 0.0
H2362 H 0.52852 0.40389 0.22437 0.0
H2363 H 0.48405 0.39091 0.23392 0.0
H2364 H 0.50567 0.35597 0.25179 0.0
H2365 H 0.55044 0.36966 0.24243 0.0
H2366 H 0.51677 0.31743 0.24665 0.0
H2367 H 0.46035 0.23536 0.20186 0.0
H2368 H 0.5302 0.25912 0.19446 0.0
H2369 H 0.57309 0.36445 0.21987 0.0
C2370 C 0.42289 0.30245 0.2415 0.0
C2371 C 0.38573 0.26579 0.24205 0.0
C2372 C 0.37767 0.23478 0.2327 0.0
C2373 C 0.40585 0.23994 0.22294 0.0
C2374 C 0.44236 0.27623 0.22266 0.0
C2375 C 0.45125 0.30675 0.23183 0.0
C2376 C 0.49465 0.34044 0.23048 0.0
C2377 C 0.49675 0.38004 0.2261 0.0
C2378 C 0.51827 0.34618 0.24361 0.0
C2379 C 0.50896 0.32354 0.21944 0.0
C2380 C 0.47802 0.28702 0.21477 0.0
C2381 C 0.48469 0.26428 0.20527 0.0
C2382 C 0.52435 0.27816 0.20097 0.0
C2383 C 0.55669 0.31408 0.20631 0.0
C2384 C 0.54858 0.33762 0.21528 0.0
H2385 H 0.78341 0.16146 0.24712 0.0
H2386 H 0.68567 0.04812 0.23166 0.0
H2387 H 0.66514 0.08595 0.21654 0.0
H2388 H 0.72849 0.21291 0.24773 0.0
H2389 H 0.77079 0.2611 0.24312 0.0
H2390 H 0.77912 0.22462 0.25182 0.0
H2391 H 0.82636 0.22836 0.23281 0.0
H2392 H 0.81737 0.26426 0.22392 0.0
H2393 H 0.80769 0.21811 0.21583 0.0
H2394 H 0.65304 0.13659 0.20383 0.0
H2395 H 0.64599 0.19528 0.19693 0.0
H2396 H 0.75119 0.27455 0.2207 0.0
C2397 C 0.75784 0.14449 0.2405 0.0
C2398 C 0.7363 0.10172 0.24059 0.0
C2399 C 0.70268 0.08086 0.23185 0.0
C2400 C 0.69098 0.10209 0.22311 0.0
C2401 C 0.71317 0.14423 0.22318 0.0
C2402 C 0.74565 0.16516 0.23177 0.0
C2403 C 0.76263 0.21035 0.23066 0.0
C2404 C 0.76007 0.22828 0.24413 0.0
C2405 C 0.80609 0.23151 0.2255 0.0
C2406 C 0.7341 0.2116 0.22034 0.0
C2407 C 0.7062 0.17324 0.21593 0.0
C2408 C 0.67515 0.16681 0.20704 0.0
C2409 C 0.67157 0.20025 0.20304 0.0
C2410 C 0.69879 0.23931 0.20799 0.0
C2411 C 0.73094 0.24507 0.21643 0.0
H2412 H 0.91785 0.63171 0.2275 0.0
H2413 H 0.9065 0.61418 0.27049 0.0
H2414 H 0.85155 0.54414 0.26708 0.0
H2415 H 0.81262 0.57557 0.22003 0.0
H2416 H 0.81761 0.55355 0.20479 0.0
H2417 H 0.85801 0.6019 0.21036 0.0
H2418 H 0.90761 0.57456 0.20979 0.0
H2419 H 0.86741 0.52617 0.20413 0.0
H2420 H 0.89598 0.52931 0.21895 0.0
H2421 H 0.79691 0.4781 0.25943 0.0
H2422 H 0.74505 0.41751 0.24796 0.0
H2423 H 0.78949 0.47563 0.20952 0.0
C2424 C 0.90412 0.6129 0.23618 0.0
C2425 C 0.91656 0.62836 0.24929 0.0
C2426 C 0.89752 0.60303 0.26038 0.0
C2427 C 0.86628 0.56317 0.25854 0.0
C2428 C 0.85432 0.54905 0.24555 0.0
C2429 C 0.87257 0.5729 0.23452 0.0
C2430 C 0.85267 0.5502 0.22166 0.0
C2431 C 0.83413 0.57159 0.21375 0.0
C2432 C 0.88272 0.54474 0.21313 0.0
C2433 C 0.82023 0.51004 0.22724 0.0
C2434 C 0.82206 0.51031 0.24105 0.0
C2435 C 0.79524 0.47738 0.24862 0.0
C2436 C 0.76576 0.44305 0.24196 0.0
C2437 C 0.76303 0.44159 0.22779 0.0
C2438 C 0.79076 0.47571 0.22034 0.0
H2439 H 0.64118 0.09154 0.92688 0.0
H2440 H 0.66194 0.05026 0.96503 0.0
H2441 H 0.66261 0.10772 0.97632 0.0
H2442 H 0.7073 0.19808 0.93367 0.0
H2443 H 0.67584 0.21363 0.92502 0.0
H2444 H 0.67549 0.16827 0.91996 0.0
H2445 H 0.59811 0.12738 0.92307 0.0
H2446 H 0.59834 0.17258 0.92829 0.0
H2447 H 0.57707 0.1287 0.93896 0.0
H2448 H 0.65969 0.1692 0.98376 0.0
H2449 H 0.66185 0.23467 0.98622 0.0
H2450 H 0.64617 0.23825 0.9433 0.0
C2451 C 0.64595 0.09469 0.93759 0.0
C2452 C 0.65143 0.06619 0.94503 0.0
C2453 C 0.65782 0.07163 0.95905 0.0
C2454 C 0.65799 0.10411 0.96561 0.0
C2455 C 0.65211 0.1314 0.95805 0.0
C2456 C 0.64682 0.12745 0.94432 0.0
C2457 C 0.64312 0.16224 0.93852 0.0
C2458 C 0.67749 0.18702 0.92871 0.0
C2459 C 0.60169 0.14679 0.93181 0.0
C2460 C 0.64727 0.18624 0.95111 0.0
C2461 C 0.65183 0.16762 0.96229 0.0
C2462 C 0.65626 0.18415 0.97506 0.0
C2463 C 0.6572 0.22127 0.97638 0.0
C2464 C 0.65424 0.24178 0.96498 0.0
C2465 C 0.64853 0.22344 0.95223 0.0
H2466 H 0.95069 0.58732 0.92513 0.0
H2467 H 0.99708 0.65117 0.96272 0.0
H2468 H 0.93929 0.59641 0.97452 0.0
H2469 H 0.84529 0.55088 0.93242 0.0
H2470 H 0.82782 0.50312 0.92408 0.0
H2471 H 0.87322 0.54726 0.91864 0.0
H2472 H 0.91236 0.50875 0.9218 0.0
H2473 H 0.86717 0.46468 0.92744 0.0
H2474 H 0.91186 0.48677 0.93783 0.0
H2475 H 0.87778 0.53302 0.98252 0.0
H2476 H 0.81236 0.47032 0.98557 0.0
H2477 H 0.804 0.44912 0.94275 0.0
C2478 C 0.94849 0.5899 0.93582 0.0
C2479 C 0.97853 0.62361 0.94298 0.0
C2480 C 0.97444 0.62582 0.95698 0.0
C2481 C 0.94182 0.59469 0.96381 0.0
C2482 C 0.91312 0.56158 0.95652 0.0
C2483 C 0.91571 0.55928 0.94281 0.0
C2484 C 0.87996 0.521 0.93732 0.0
C2485 C 0.8551 0.53118 0.92754 0.0
C2486 C 0.89367 0.49369 0.93071 0.0
C2487 C 0.85702 0.50221 0.95008 0.0
C2488 C 0.87694 0.52579 0.96107 0.0
C2489 C 0.86178 0.51441 0.97397 0.0
C2490 C 0.8247 0.47856 0.97562 0.0
C2491 C 0.80292 0.45477 0.96442 0.0
C2492 C 0.8198 0.46665 0.95153 0.0
H2493 H 0.44383 0.39803 0.93374 0.0
H2494 H 0.47297 0.50026 0.95956 0.0
H2495 H 0.52621 0.49172 0.97062 0.0
H2496 H 0.46225 0.33755 0.9579 0.0
H2497 H 0.48466 0.32023 0.94576 0.0
H2498 H 0.44698 0.3326 0.94058 0.0
H2499 H 0.49629 0.38322 0.9232 0.0
H2500 H 0.53405 0.37096 0.92831 0.0
H2501 H 0.5453 0.42277 0.92865 0.0
H2502 H 0.57705 0.47194 0.97882 0.0
H2503 H 0.6246 0.44642 0.98196 0.0
H2504 H 0.56424 0.35985 0.94994 0.0
C2505 C 0.46108 0.4183 0.94183 0.0
C2506 C 0.45401 0.4496 0.94586 0.0
C2507 C 0.47785 0.47605 0.9563 0.0
C2508 C 0.50803 0.47132 0.96269 0.0
C2509 C 0.51438 0.44027 0.95844 0.0
C2510 C 0.4918 0.41447 0.94815 0.0
C2511 C 0.50628 0.38521 0.94487 0.0
C2512 C 0.47306 0.3413 0.94744 0.0
C2513 C 0.52138 0.3909 0.9304 0.0
C2514 C 0.54064 0.3987 0.95485 0.0
C2515 C 0.54453 0.43007 0.96274 0.0
C2516 C 0.57425 0.44737 0.97269 0.0
C2517 C 0.601 0.43256 0.97446 0.0
C2518 C 0.59817 0.40121 0.9662 0.0
C2519 C 0.56734 0.38402 0.95637 0.0
H2520 H 0.62739 0.7599 0.75861 0.0
H2521 H 0.65894 0.70467 0.79102 0.0
H2522 H 0.60275 0.69905 0.80426 0.0
H2523 H 0.59862 0.81784 0.779 0.0
H2524 H 0.55649 0.80969 0.76862 0.0
H2525 H 0.59895 0.80911 0.76132 0.0
H2526 H 0.55188 0.73741 0.75169 0.0
H2527 H 0.50924 0.73823 0.75869 0.0
H2528 H 0.51838 0.69748 0.76273 0.0
H2529 H 0.54428 0.70105 0.81451 0.0
H2530 H 0.48143 0.70149 0.81945 0.0
H2531 H 0.48711 0.75503 0.78066 0.0
C2532 C 0.62202 0.74601 0.76839 0.0
C2533 C 0.64775 0.73281 0.77374 0.0
C2534 C 0.6398 0.71511 0.78666 0.0
C2535 C 0.60804 0.71197 0.79434 0.0
C2536 C 0.5841 0.72647 0.789 0.0
C2537 C 0.59013 0.74245 0.77624 0.0
C2538 C 0.55918 0.75481 0.77282 0.0
C2539 C 0.57954 0.80058 0.77029 0.0
C2540 C 0.53312 0.73053 0.76077 0.0
C2541 C 0.53493 0.74315 0.78561 0.0
C2542 C 0.55012 0.72734 0.79489 0.0
C2543 C 0.5322 0.7136 0.80735 0.0
C2544 C 0.49686 0.71456 0.81018 0.0
C2545 C 0.47978 0.72901 0.80059 0.0
C2546 C 0.49975 0.74432 0.78829 0.0
H2547 H 0.25858 0.86916 0.75606 0.0
H2548 H 0.33338 0.97165 0.7817 0.0
H2549 H 0.34663 0.92745 0.79646 0.0
H2550 H 0.21532 0.79306 0.78147 0.0
H2551 H 0.21782 0.75466 0.77181 0.0
H2552 H 0.2128 0.79383 0.76348 0.0
H2553 H 0.27707 0.81387 0.74975 0.0
H2554 H 0.28164 0.77413 0.7578 0.0
H2555 H 0.32316 0.82542 0.75836 0.0
H2556 H 0.34892 0.87086 0.80908 0.0
H2557 H 0.35244 0.81011 0.81577 0.0
H2558 H 0.28099 0.74641 0.7809 0.0
C2559 C 0.27802 0.88228 0.76473 0.0
C2560 C 0.29501 0.92379 0.76775 0.0
C2561 C 0.32045 0.94 0.77912 0.0
C2562 C 0.32771 0.91503 0.78766 0.0
C2563 C 0.30981 0.87402 0.78457 0.0
C2564 C 0.28641 0.858 0.77317 0.0
C2565 C 0.27318 0.81364 0.77159 0.0
C2566 C 0.22703 0.78725 0.77212 0.0
C2567 C 0.28977 0.80635 0.75861 0.0
C2568 C 0.29287 0.80724 0.78384 0.0
C2569 C 0.31299 0.84212 0.79141 0.0
C2570 C 0.33342 0.84342 0.8032 0.0
C2571 C 0.33489 0.80871 0.80702 0.0
C2572 C 0.31686 0.77371 0.79887 0.0
C2573 C 0.29478 0.77276 0.78735 0.0
H2574 H 0.19222 0.4201 0.75285 0.0
H2575 H 0.08454 0.39113 0.77506 0.0
H2576 H 0.12546 0.44559 0.79119 0.0
H2577 H 0.26154 0.448 0.78082 0.0
H2578 H 0.30246 0.48997 0.77234 0.0
H2579 H 0.26529 0.44715 0.76289 0.0
H2580 H 0.24985 0.49423 0.74838 0.0
H2581 H 0.28762 0.53717 0.75758 0.0
H2582 H 0.23685 0.52822 0.75645 0.0
H2583 H 0.17879 0.50236 0.80545 0.0
H2584 H 0.23759 0.56589 0.81373 0.0
H2585 H 0.30921 0.56136 0.7813 0.0
C2586 C 0.17732 0.42542 0.76108 0.0
C2587 C 0.13518 0.40139 0.76269 0.0
C2588 C 0.11672 0.40945 0.77353 0.0
C2589 C 0.13978 0.43998 0.78286 0.0
C2590 C 0.18133 0.46273 0.78114 0.0
C2591 C 0.1998 0.45654 0.77032 0.0
C2592 C 0.2444 0.48747 0.77015 0.0
C2593 C 0.26992 0.46691 0.77164 0.0
C2594 C 0.25531 0.51331 0.75739 0.0
C2595 C 0.24804 0.51211 0.78249 0.0
C2596 C 0.21157 0.49671 0.78891 0.0
C2597 C 0.20751 0.51472 0.80048 0.0
C2598 C 0.24113 0.5505 0.80522 0.0
C2599 C 0.27789 0.56825 0.79821 0.0
C2600 C 0.28153 0.54811 0.78693 0.0
H2601 H 0.44268 0.97504 0.07267 0.0
H2602 H 0.32468 0.96075 0.0795 0.0
H2603 H 0.29311 0.89512 0.06751 0.0
H2604 H 0.42111 0.93057 0.03931 0.0
H2605 H 0.45111 0.90687 0.04198 0.0
H2606 H 0.46412 0.95346 0.05045 0.0
H2607 H 0.46079 0.92007 0.07339 0.0
H2608 H 0.44878 0.87387 0.06495 0.0
H2609 H 0.41585 0.87363 0.07772 0.0
H2610 H 0.27452 0.82728 0.0563 0.0
H2611 H 0.27169 0.76415 0.0485 0.0
H2612 H 0.40188 0.82627 0.04802 0.0
C2613 C 0.41016 0.95825 0.07168 0.0
C2614 C 0.38622 0.9731 0.07713 0.0
C2615 C 0.34375 0.95006 0.07545 0.0
C2616 C 0.32555 0.91283 0.06858 0.0
C2617 C 0.35021 0.89931 0.06323 0.0
C2618 C 0.39165 0.92152 0.06472 0.0
C2619 C 0.41165 0.89996 0.05864 0.0
C2620 C 0.43859 0.92417 0.0469 0.0
C2621 C 0.43565 0.89136 0.06931 0.0
C2622 C 0.37503 0.86148 0.05383 0.0
C2623 C 0.33971 0.86157 0.0564 0.0
C2624 C 0.30203 0.82732 0.05395 0.0
C2625 C 0.30057 0.79172 0.04936 0.0
C2626 C 0.33656 0.79097 0.04724 0.0
C2627 C 0.37398 0.82668 0.04906 0.0
H2628 H 0.07205 0.43198 0.05857 0.0
H2629 H 0.09322 0.424 0.10084 0.0
H2630 H 0.16586 0.47125 0.09776 0.0
H2631 H 0.17072 0.44656 0.04613 0.0
H2632 H 0.17521 0.48305 0.03379 0.0
H2633 H 0.12608 0.44291 0.03862 0.0
H2634 H 0.10526 0.49572 0.04469 0.0
H2635 H 0.15413 0.53587 0.03984 0.0
H2636 H 0.13575 0.53555 0.05638 0.0
H2637 H 0.23336 0.52439 0.09101 0.0
H2638 H 0.29141 0.58443 0.08141 0.0
H2639 H 0.2283 0.56125 0.04337 0.0
C2640 C 0.0923 0.43932 0.06706 0.0
C2641 C 0.07729 0.42397 0.07992 0.0
C2642 C 0.10426 0.43526 0.09091 0.0
C2643 C 0.14557 0.46185 0.08923 0.0
C2644 C 0.15943 0.47715 0.0765 0.0
C2645 C 0.1337 0.46654 0.06559 0.0
C2646 C 0.15573 0.49145 0.0534 0.0
C2647 C 0.15701 0.46437 0.04233 0.0
C2648 C 0.13658 0.51611 0.04829 0.0
C2649 C 0.19742 0.51867 0.05932 0.0
C2650 C 0.19891 0.50912 0.07259 0.0
C2651 C 0.23281 0.53177 0.08058 0.0
C2652 C 0.26562 0.56587 0.07504 0.0
C2653 C 0.26441 0.57724 0.06163 0.0
C2654 C 0.23034 0.55263 0.05354 0.0
H2655 H 0.59061 0.6863 0.09184 0.0
H2656 H 0.64011 0.67215 0.05485 0.0
H2657 H 0.59876 0.69385 0.04206 0.0
H2658 H 0.49384 0.64712 0.08119 0.0
H2659 H 0.48342 0.68179 0.09007 0.0
H2660 H 0.52147 0.67148 0.09627 0.0
H2661 H 0.57418 0.74809 0.09583 0.0
H2662 H 0.53609 0.75869 0.08965 0.0
H2663 H 0.58221 0.7762 0.08055 0.0
H2664 H 0.542 0.70425 0.03327 0.0
H2665 H 0.47938 0.7071 0.02971 0.0
H2666 H 0.47251 0.72076 0.07247 0.0
C2667 C 0.59362 0.68895 0.08108 0.0
C2668 C 0.61855 0.67764 0.07435 0.0
C2669 C 0.62145 0.68107 0.06023 0.0
C2670 C 0.59803 0.69333 0.05287 0.0
C2671 C 0.57267 0.70307 0.05979 0.0
C2672 C 0.57111 0.70191 0.07362 0.0
C2673 C 0.53959 0.71111 0.07867 0.0
C2674 C 0.50771 0.67577 0.08703 0.0
C2675 C 0.5592 0.7509 0.08664 0.0
C2676 C 0.52217 0.71546 0.06556 0.0
C2677 C 0.54164 0.71104 0.05473 0.0
C2678 C 0.52733 0.70907 0.04167 0.0
C2679 C 0.49182 0.71088 0.03971 0.0
C2680 C 0.47128 0.71482 0.05076 0.0
C2681 C 0.48767 0.71838 0.06375 0.0
H2682 H 0.09934 0.6651 0.58401 0.0
H2683 H 0.02223 0.55301 0.56286 0.0
H2684 H 0.08021 0.56203 0.5497 0.0
H2685 H 0.16635 0.7202 0.5562 0.0
H2686 H 0.21086 0.74353 0.56666 0.0
H2687 H 0.16259 0.73047 0.57354 0.0
H2688 H 0.17195 0.6878 0.59192 0.0
H2689 H 0.22028 0.70095 0.58515 0.0
H2690 H 0.18237 0.64853 0.58714 0.0
H2691 H 0.14741 0.58251 0.53902 0.0
H2692 H 0.21946 0.60903 0.53375 0.0
H2693 H 0.25304 0.70513 0.56273 0.0
C2694 C 0.09469 0.64279 0.57649 0.0
C2695 C 0.05627 0.60845 0.57442 0.0
C2696 C 0.05148 0.57948 0.56466 0.0
C2697 C 0.08417 0.58447 0.55705 0.0
C2698 C 0.12176 0.61843 0.55938 0.0
C2699 C 0.12731 0.64687 0.56898 0.0
C2700 C 0.17142 0.67878 0.57027 0.0
C2701 C 0.17819 0.72073 0.56644 0.0
C2702 C 0.18744 0.679 0.58446 0.0
C2703 C 0.18972 0.66355 0.56007 0.0
C2704 C 0.16057 0.62918 0.55367 0.0
C2705 C 0.17052 0.60949 0.54395 0.0
C2706 C 0.21145 0.62482 0.54095 0.0
C2707 C 0.24179 0.65898 0.54784 0.0
C2708 C 0.2305 0.67882 0.55732 0.0
H2709 H 0.38516 0.45425 0.58573 0.0
H2710 H 0.47594 0.46669 0.55764 0.0
H2711 H 0.46928 0.51938 0.54546 0.0
H2712 H 0.32264 0.47443 0.56166 0.0
H2713 H 0.31259 0.50314 0.57371 0.0
H2714 H 0.32064 0.46273 0.57921 0.0
H2715 H 0.37785 0.51256 0.59505 0.0
H2716 H 0.37027 0.55316 0.58951 0.0
H2717 H 0.41936 0.558 0.58828 0.0
H2718 H 0.45704 0.57423 0.53735 0.0
H2719 H 0.43976 0.62786 0.53396 0.0
H2720 H 0.35809 0.58151 0.5675 0.0
C2721 C 0.40268 0.46738 0.5768 0.0
C2722 C 0.43065 0.45624 0.57246 0.0
C2723 C 0.45414 0.4748 0.561 0.0
C2724 C 0.45055 0.50467 0.55402 0.0
C2725 C 0.42351 0.51588 0.55869 0.0
C2726 C 0.39987 0.49783 0.56979 0.0
C2727 C 0.37557 0.51785 0.57327 0.0
C2728 C 0.33017 0.48774 0.57187 0.0
C2729 C 0.38643 0.5365 0.58736 0.0
C2730 C 0.38985 0.55028 0.56258 0.0
C2731 C 0.41712 0.5483 0.55417 0.0
C2732 C 0.4353 0.57578 0.54376 0.0
C2733 C 0.42517 0.60603 0.54185 0.0
C2734 C 0.39727 0.60863 0.55034 0.0
C2735 C 0.37955 0.58034 0.56084 0.0
H2736 H 0.58667 0.964 0.5861 0.0
H2737 H 0.6528 0.00726 0.54907 0.0
H2738 H 0.59784 0.94957 0.53697 0.0
H2739 H 0.54634 0.85714 0.57927 0.0
H2740 H 0.49878 0.8424 0.58705 0.0
H2741 H 0.54375 0.88703 0.59271 0.0
H2742 H 0.50879 0.92927 0.58857 0.0
H2743 H 0.46399 0.88487 0.58266 0.0
H2744 H 0.48853 0.92913 0.57222 0.0
H2745 H 0.534 0.88795 0.52864 0.0
H2746 H 0.47063 0.82284 0.52549 0.0
H2747 H 0.44701 0.8198 0.56792 0.0
C2748 C 0.58983 0.96106 0.57549 0.0
C2749 C 0.62413 0.99021 0.56856 0.0
C2750 C 0.62692 0.9853 0.55464 0.0
C2751 C 0.59571 0.95274 0.54763 0.0
C2752 C 0.56185 0.92512 0.55468 0.0
C2753 C 0.559 0.92859 0.56833 0.0
C2754 C 0.51975 0.89432 0.57357 0.0
C2755 C 0.52764 0.8687 0.58375 0.0
C2756 C 0.49374 0.91038 0.57961 0.0
C2757 C 0.50111 0.87107 0.56076 0.0
C2758 C 0.52557 0.88949 0.54993 0.0
C2759 C 0.51462 0.87319 0.53707 0.0
C2760 C 0.47836 0.83634 0.53534 0.0
C2761 C 0.45377 0.81612 0.54643 0.0
C2762 C 0.46509 0.83443 0.55922 0.0
H2763 H 0.30035 0.40024 0.25598 0.0
H2764 H 0.34156 0.37277 0.29305 0.0
H2765 H 0.33925 0.42877 0.30421 0.0
H2766 H 0.35822 0.51026 0.26035 0.0
H2767 H 0.3194 0.5177 0.25292 0.0
H2768 H 0.32475 0.47548 0.24783 0.0
H2769 H 0.24988 0.42686 0.25367 0.0
H2770 H 0.24462 0.4689 0.25909 0.0
H2771 H 0.23254 0.4274 0.27031 0.0
H2772 H 0.32849 0.48514 0.31191 0.0
H2773 H 0.32234 0.54616 0.3144 0.0
H2774 H 0.29112 0.53945 0.27229 0.0
C2775 C 0.30956 0.40647 0.26637 0.0
C2776 C 0.32104 0.3819 0.2736 0.0
C2777 C 0.33269 0.39105 0.28723 0.0
C2778 C 0.33118 0.42267 0.29373 0.0
C2779 C 0.31838 0.44537 0.28648 0.0
C2780 C 0.30872 0.43839 0.27302 0.0
C2781 C 0.29728 0.46833 0.26749 0.0
C2782 C 0.32667 0.4945 0.2565 0.0
C2783 C 0.25347 0.44656 0.26233 0.0
C2784 C 0.30201 0.49303 0.27992 0.0
C2785 C 0.31353 0.47884 0.29083 0.0
C2786 C 0.31969 0.49671 0.30342 0.0
C2787 C 0.3157 0.53114 0.30478 0.0
C2788 C 0.30624 0.54763 0.29356 0.0
C2789 C 0.2983 0.52753 0.28108 0.0
H2790 H 0.61034 0.88823 0.25413 0.0
H2791 H 0.64577 0.95617 0.29135 0.0
H2792 H 0.58746 0.90075 0.30253 0.0
H2793 H 0.50243 0.84671 0.25871 0.0
H2794 H 0.48919 0.79875 0.2512 0.0
H2795 H 0.53416 0.84391 0.24608 0.0
H2796 H 0.57613 0.80958 0.25172 0.0
H2797 H 0.53136 0.76461 0.25711 0.0
H2798 H 0.57401 0.79001 0.2683 0.0
H2799 H 0.52788 0.83711 0.31016 0.0
H2800 H 0.46328 0.77372 0.31277 0.0
H2801 H 0.46371 0.74767 0.27056 0.0
C2802 C 0.6055 0.89159 0.26458 0.0
C2803 C 0.63276 0.92651 0.27185 0.0
C2804 C 0.62535 0.92978 0.28552 0.0
C2805 C 0.59245 0.8983 0.29203 0.0
C2806 C 0.56684 0.86385 0.28472 0.0
C2807 C 0.57231 0.86056 0.27124 0.0
C2808 C 0.53909 0.82076 0.26566 0.0
C2809 C 0.51477 0.82797 0.25477 0.0
C2810 C 0.55619 0.79471 0.26039 0.0
C2811 C 0.5143 0.80242 0.27812 0.0
C2812 C 0.5313 0.8275 0.28904 0.0
C2813 C 0.51407 0.8172 0.30167 0.0
C2814 C 0.47751 0.78091 0.30308 0.0
C2815 C 0.45839 0.75571 0.29188 0.0
C2816 C 0.47761 0.7663 0.27932 0.0
H2817 H 0.14977 0.76617 0.25179 0.0
H2818 H 0.06132 0.71114 0.28317 0.0
H2819 H 0.10797 0.69636 0.29592 0.0
H2820 H 0.18212 0.69214 0.25325 0.0
H2821 H 0.23392 0.72839 0.24963 0.0
H2822 H 0.19422 0.73633 0.24339 0.0
H2823 H 0.22846 0.80676 0.25481 0.0
H2824 H 0.26792 0.7987 0.26128 0.0
H2825 H 0.2389 0.81059 0.27253 0.0
H2826 H 0.16564 0.69053 0.30576 0.0
H2827 H 0.22481 0.68217 0.30999 0.0
H2828 H 0.27285 0.73523 0.27134 0.0
C2829 C 0.14028 0.75086 0.26132 0.0
C2830 C 0.10207 0.7398 0.26653 0.0
C2831 C 0.0904 0.71951 0.27896 0.0
C2832 C 0.11682 0.71139 0.28634 0.0
C2833 C 0.15453 0.72315 0.28103 0.0
C2834 C 0.16588 0.74154 0.26866 0.0
C2835 C 0.20694 0.74845 0.26481 0.0
C2836 C 0.20411 0.72491 0.25202 0.0
C2837 C 0.23734 0.79383 0.26327 0.0
C2838 C 0.21683 0.73104 0.27694 0.0
C2839 C 0.18666 0.7175 0.28633 0.0
C2840 C 0.18935 0.70075 0.29845 0.0
C2841 C 0.22314 0.69641 0.30081 0.0
C2842 C 0.25315 0.70793 0.29097 0.0
C2843 C 0.2502 0.72609 0.27901 0.0
loop_
_geom_bond_atom_site_label_1
_geom_bond_atom_site_label_2
_geom_bond_distance
_geom_bond_site_symmetry_2
_ccdc_geom_bond_type
Mn0 O5 2.095 . S
Mn0 O15 2.162 1_545 S
Mn0 O16 2.297 1_545 S
Mn0 O24 2.385 1_545 S
Mn0 O25 2.209 . S
Mn0 O26 2.094 1_545 S
Mn1 O6 2.121 . S
Mn1 N8 2.257 . S
Mn1 N17 2.282 . S
Mn1 O25 2.215 . S
Mn1 O27 2.117 . S
C2 O24 1.234 1_545 S
C2 O25 1.283 . S
C3 O15 1.281 . S
C3 O16 1.236 . S
C4 O26 1.240 1_545 S
C4 O27 1.264 . S
O5 Mn0 2.095 . S
O5 C14 1.250 . S
O6 Mn1 2.121 . S
O6 C14 1.258 . S
C7 N8 1.326 . S
C7 C11 1.460 . S
C7 H13 0.929 . S
N8 Mn1 2.257 . S
N8 C7 1.326 . S
N8 C12 1.362 . S
C9 C10 1.258 . S
C9 C12 1.431 . S
C9 C29 1.449 . S
C10 C9 1.258 . S
C10 C11 1.477 . S
C10 H30 0.931 . S
C11 C7 1.460 . S
C11 C10 1.477 . S
C11 H31 0.930 . S
C12 N8 1.362 . S
C12 C9 1.431 . S
C12 C22 1.476 . S
H13 C7 0.929 . S
C14 O5 1.250 . S
C14 O6 1.258 . S
O15 Mn0 2.162 1_565 S
O15 C3 1.281 . S
O16 Mn0 2.297 1_565 S
O16 C3 1.236 . S
N17 Mn1 2.282 . S
N17 C18 1.328 . S
N17 C22 1.318 . S
C18 N17 1.328 . S
C18 C19 1.457 . S
C18 H23 0.929 . S
C19 C18 1.457 . S
C19 C20 1.291 . S
C19 H32 0.931 . S
C20 C19 1.291 . S
C20 C21 1.373 . S
C20 H33 0.929 . S
C21 C20 1.373 . S
C21 C22 1.396 . S
C21 C28 1.403 . S
C22 C12 1.476 . S
C22 N17 1.318 . S
C22 C21 1.396 . S
H23 C18 0.929 . S
O24 Mn0 2.385 1_565 S
O24 C2 1.234 1_565 S
O25 Mn0 2.209 . S
O25 Mn1 2.215 . S
O25 C2 1.283 . S
O26 Mn0 2.094 1_565 S
O26 C4 1.240 1_565 S
O27 Mn1 2.117 . S
O27 C4 1.264 . S
C28 C21 1.403 . S
C28 C29 1.399 . S
C28 H34 0.929 . S
C29 C9 1.449 . S
C29 C28 1.399 . S
C29 H35 0.930 . S
H30 C10 0.931 . S
H31 C11 0.930 . S
H32 C19 0.931 . S
H33 C20 0.929 . S
H34 C28 0.929 . S
H35 C29 0.930 . S
Mn36 O41 2.095 . S
Mn36 O51 2.162 1_455 S
Mn36 O52 2.297 1_455 S
Mn36 O60 2.385 1_455 S
Mn36 O61 2.209 . S
Mn36 O62 2.094 1_455 S
Mn37 O42 2.121 . S
Mn37 N44 2.257 . S
Mn37 N53 2.282 . S
Mn37 O61 2.215 . S
Mn37 O63 2.117 . S
C38 O60 1.234 1_455 S
C38 O61 1.283 . S
C39 O51 1.281 . S
C39 O52 1.236 . S
C40 O62 1.240 1_455 S
C40 O63 1.264 . S
O41 Mn36 2.095 . S
O41 C50 1.250 . S
O42 Mn37 2.121 . S
O42 C50 1.258 . S
C43 N44 1.326 . S
C43 C47 1.460 . S
C43 H49 0.929 . S
N44 Mn37 2.257 . S
N44 C43 1.326 . S
N44 C48 1.362 . S
C45 C46 1.258 . S
C45 C48 1.431 . S
C45 C65 1.449 . S
C46 C45 1.258 . S
C46 C47 1.477 . S
C46 H66 0.931 . S
C47 C43 1.460 . S
C47 C46 1.477 . S
C47 H67 0.930 . S
C48 N44 1.362 . S
C48 C45 1.431 . S
C48 C58 1.476 . S
H49 C43 0.929 . S
C50 O41 1.250 . S
C50 O42 1.258 . S
O51 Mn36 2.162 1_655 S
O51 C39 1.281 . S
O52 Mn36 2.297 1_655 S
O52 C39 1.236 . S
N53 Mn37 2.282 . S
N53 C54 1.328 . S
N53 C58 1.318 . S
C54 N53 1.328 . S
C54 C55 1.457 . S
C54 H59 0.929 . S
C55 C54 1.457 . S
C55 C56 1.291 . S
C55 H68 0.931 . S
C56 C55 1.291 . S
C56 C57 1.373 . S
C56 H69 0.929 . S
C57 C56 1.373 . S
C57 C58 1.396 . S
C57 C64 1.403 . S
C58 C48 1.476 . S
C58 N53 1.318 . S
C58 C57 1.396 . S
H59 C54 0.929 . S
O60 Mn36 2.385 1_655 S
O60 C38 1.234 1_655 S
O61 Mn36 2.209 . S
O61 Mn37 2.215 . S
O61 C38 1.283 . S
O62 Mn36 2.094 1_655 S
O62 C40 1.240 1_655 S
O63 Mn37 2.117 . S
O63 C40 1.264 . S
C64 C57 1.403 . S
C64 C65 1.399 . S
C64 H70 0.929 . S
C65 C45 1.449 . S
C65 C64 1.399 . S
C65 H71 0.930 . S
H66 C46 0.931 . S
H67 C47 0.930 . S
H68 C55 0.931 . S
H69 C56 0.929 . S
H70 C64 0.929 . S
H71 C65 0.930 . S
Mn72 O77 2.095 . S
Mn72 O87 2.162 . S
Mn72 O88 2.297 . S
Mn72 O96 2.385 . S
Mn72 O97 2.209 . S
Mn72 O98 2.094 . S
Mn73 O78 2.121 . S
Mn73 N80 2.257 . S
Mn73 N89 2.282 . S
Mn73 O97 2.215 . S
Mn73 O99 2.117 . S
C74 O96 1.234 . S
C74 O97 1.283 . S
C75 O87 1.281 . S
C75 O88 1.236 . S
C76 O98 1.240 . S
C76 O99 1.264 . S
O77 Mn72 2.095 . S
O77 C86 1.250 . S
O78 Mn73 2.121 . S
O78 C86 1.258 . S
C79 N80 1.326 . S
C79 C83 1.460 . S
C79 H85 0.929 . S
N80 Mn73 2.257 . S
N80 C79 1.326 . S
N80 C84 1.362 . S
C81 C82 1.258 . S
C81 C84 1.431 . S
C81 C101 1.449 . S
C82 C81 1.258 . S
C82 C83 1.477 . S
C82 H102 0.931 . S
C83 C79 1.460 . S
C83 C82 1.477 . S
C83 H103 0.930 . S
C84 N80 1.362 . S
C84 C81 1.431 . S
C84 C94 1.476 . S
H85 C79 0.929 . S
C86 O77 1.250 . S
C86 O78 1.258 . S
O87 Mn72 2.162 . S
O87 C75 1.281 . S
O88 Mn72 2.297 . S
O88 C75 1.236 . S
N89 Mn73 2.282 . S
N89 C90 1.328 . S
N89 C94 1.318 . S
C90 N89 1.328 . S
C90 C91 1.457 . S
C90 H95 0.929 . S
C91 C90 1.457 . S
C91 C92 1.291 . S
C91 H104 0.931 . S
C92 C91 1.291 . S
C92 C93 1.373 . S
C92 H105 0.929 . S
C93 C92 1.373 . S
C93 C94 1.396 . S
C93 C100 1.403 . S
C94 C84 1.476 . S
C94 N89 1.318 . S
C94 C93 1.396 . S
H95 C90 0.929 . S
O96 Mn72 2.385 . S
O96 C74 1.234 . S
O97 Mn72 2.209 . S
O97 Mn73 2.215 . S
O97 C74 1.283 . S
O98 Mn72 2.094 . S
O98 C76 1.240 . S
O99 Mn73 2.117 . S
O99 C76 1.264 . S
C100 C93 1.403 . S
C100 C101 1.399 . S
C100 H106 0.929 . S
C101 C81 1.449 . S
C101 C100 1.399 . S
C101 H107 0.930 . S
H102 C82 0.931 . S
H103 C83 0.930 . S
H104 C91 0.931 . S
H105 C92 0.929 . S
H106 C100 0.929 . S
H107 C101 0.930 . S
Mn108 O113 2.095 1_545 S
Mn108 O123 2.162 . S
Mn108 O124 2.297 . S
Mn108 O132 2.385 . S
Mn108 O133 2.209 1_545 S
Mn108 O134 2.094 . S
Mn109 O114 2.121 . S
Mn109 N116 2.257 . S
Mn109 N125 2.282 . S
Mn109 O133 2.215 . S
Mn109 O135 2.117 . S
C110 O132 1.234 . S
C110 O133 1.283 1_545 S
C111 O123 1.281 . S
C111 O124 1.236 . S
C112 O134 1.240 . S
C112 O135 1.264 1_545 S
O113 Mn108 2.095 1_565 S
O113 C122 1.250 . S
O114 Mn109 2.121 . S
O114 C122 1.258 . S
C115 N116 1.326 . S
C115 C119 1.460 . S
C115 H121 0.929 . S
N116 Mn109 2.257 . S
N116 C115 1.326 . S
N116 C120 1.362 . S
C117 C118 1.258 . S
C117 C120 1.431 . S
C117 C137 1.449 . S
C118 C117 1.258 . S
C118 C119 1.477 . S
C118 H138 0.931 . S
C119 C115 1.460 . S
C119 C118 1.477 . S
C119 H139 0.930 . S
C120 N116 1.362 . S
C120 C117 1.431 . S
C120 C130 1.476 . S
H121 C115 0.929 . S
C122 O113 1.250 . S
C122 O114 1.258 . S
O123 Mn108 2.162 . S
O123 C111 1.281 . S
O124 Mn108 2.297 . S
O124 C111 1.236 . S
N125 Mn109 2.282 . S
N125 C126 1.328 . S
N125 C130 1.318 . S
C126 N125 1.328 . S
C126 C127 1.457 . S
C126 H131 0.929 . S
C127 C126 1.457 . S
C127 C128 1.291 . S
C127 H140 0.931 . S
C128 C127 1.291 . S
C128 C129 1.373 . S
C128 H141 0.929 . S
C129 C128 1.373 . S
C129 C130 1.396 . S
C129 C136 1.403 . S
C130 C120 1.476 . S
C130 N125 1.318 . S
C130 C129 1.396 . S
H131 C126 0.929 . S
O132 Mn108 2.385 . S
O132 C110 1.234 . S
O133 Mn108 2.209 1_565 S
O133 Mn109 2.215 . S
O133 C110 1.283 1_565 S
O134 Mn108 2.094 . S
O134 C112 1.240 . S
O135 Mn109 2.117 . S
O135 C112 1.264 1_565 S
C136 C129 1.403 . S
C136 C137 1.399 . S
C136 H142 0.929 . S
C137 C117 1.449 . S
C137 C136 1.399 . S
C137 H143 0.930 . S
H138 C118 0.931 . S
H139 C119 0.930 . S
H140 C127 0.931 . S
H141 C128 0.929 . S
H142 C136 0.929 . S
H143 C137 0.930 . S
Mn144 O149 2.095 . S
Mn144 O159 2.162 1_455 S
Mn144 O160 2.297 1_455 S
Mn144 O168 2.385 1_455 S
Mn144 O169 2.209 . S
Mn144 O170 2.094 1_455 S
Mn145 O150 2.121 . S
Mn145 N152 2.257 . S
Mn145 N161 2.282 . S
Mn145 O169 2.215 . S
Mn145 O171 2.117 . S
C146 O168 1.234 1_455 S
C146 O169 1.283 . S
C147 O159 1.281 . S
C147 O160 1.236 . S
C148 O170 1.240 1_455 S
C148 O171 1.264 . S
O149 Mn144 2.095 . S
O149 C158 1.250 . S
O150 Mn145 2.121 . S
O150 C158 1.258 . S
C151 N152 1.326 . S
C151 C155 1.460 . S
C151 H157 0.929 . S
N152 Mn145 2.257 . S
N152 C151 1.326 . S
N152 C156 1.362 . S
C153 C154 1.258 . S
C153 C156 1.431 . S
C153 C173 1.449 . S
C154 C153 1.258 . S
C154 C155 1.477 . S
C154 H174 0.931 . S
C155 C151 1.460 . S
C155 C154 1.477 . S
C155 H175 0.930 . S
C156 N152 1.362 . S
C156 C153 1.431 . S
C156 C166 1.476 . S
H157 C151 0.929 . S
C158 O149 1.250 . S
C158 O150 1.258 . S
O159 Mn144 2.162 1_655 S
O159 C147 1.281 . S
O160 Mn144 2.297 1_655 S
O160 C147 1.236 . S
N161 Mn145 2.282 . S
N161 C162 1.328 . S
N161 C166 1.318 . S
C162 N161 1.328 . S
C162 C163 1.457 . S
C162 H167 0.929 . S
C163 C162 1.457 . S
C163 C164 1.291 . S
C163 H176 0.931 . S
C164 C163 1.291 . S
C164 C165 1.373 . S
C164 H177 0.929 . S
C165 C164 1.373 . S
C165 C166 1.396 . S
C165 C172 1.403 . S
C166 C156 1.476 . S
C166 N161 1.318 . S
C166 C165 1.396 . S
H167 C162 0.929 . S
O168 Mn144 2.385 1_655 S
O168 C146 1.234 1_655 S
O169 Mn144 2.209 . S
O169 Mn145 2.215 . S
O169 C146 1.283 . S
O170 Mn144 2.094 1_655 S
O170 C148 1.240 1_655 S
O171 Mn145 2.117 . S
O171 C148 1.264 . S
C172 C165 1.403 . S
C172 C173 1.399 . S
C172 H178 0.929 . S
C173 C153 1.449 . S
C173 C172 1.399 . S
C173 H179 0.930 . S
H174 C154 0.931 . S
H175 C155 0.930 . S
H176 C163 0.931 . S
H177 C164 0.929 . S
H178 C172 0.929 . S
H179 C173 0.930 . S
Mn180 O185 2.095 . S
Mn180 O195 2.162 . S
Mn180 O196 2.297 . S
Mn180 O204 2.385 . S
Mn180 O205 2.209 . S
Mn180 O206 2.094 . S
Mn181 O186 2.121 . S
Mn181 N188 2.257 . S
Mn181 N197 2.282 . S
Mn181 O205 2.215 . S
Mn181 O207 2.117 . S
C182 O204 1.234 . S
C182 O205 1.283 . S
C183 O195 1.281 . S
C183 O196 1.236 . S
C184 O206 1.240 . S
C184 O207 1.264 . S
O185 Mn180 2.095 . S
O185 C194 1.250 . S
O186 Mn181 2.121 . S
O186 C194 1.258 . S
C187 N188 1.326 . S
C187 C191 1.460 . S
C187 H193 0.929 . S
N188 Mn181 2.257 . S
N188 C187 1.326 . S
N188 C192 1.362 . S
C189 C190 1.258 . S
C189 C192 1.431 . S
C189 C209 1.449 . S
C190 C189 1.258 . S
C190 C191 1.477 . S
C190 H210 0.931 . S
C191 C187 1.460 . S
C191 C190 1.477 . S
C191 H211 0.930 . S
C192 N188 1.362 . S
C192 C189 1.431 . S
C192 C202 1.476 . S
H193 C187 0.929 . S
C194 O185 1.250 . S
C194 O186 1.258 . S
O195 Mn180 2.162 . S
O195 C183 1.281 . S
O196 Mn180 2.297 . S
O196 C183 1.236 . S
N197 Mn181 2.282 . S
N197 C198 1.328 . S
N197 C202 1.318 . S
C198 N197 1.328 . S
C198 C199 1.457 . S
C198 H203 0.929 . S
C199 C198 1.457 . S
C199 C200 1.291 . S
C199 H212 0.931 . S
C200 C199 1.291 . S
C200 C201 1.373 . S
C200 H213 0.929 . S
C201 C200 1.373 . S
C201 C202 1.396 . S
C201 C208 1.403 . S
C202 C192 1.476 . S
C202 N197 1.318 . S
C202 C201 1.396 . S
H203 C198 0.929 . S
O204 Mn180 2.385 . S
O204 C182 1.234 . S
O205 Mn180 2.209 . S
O205 Mn181 2.215 . S
O205 C182 1.283 . S
O206 Mn180 2.094 . S
O206 C184 1.240 . S
O207 Mn181 2.117 . S
O207 C184 1.264 . S
C208 C201 1.403 . S
C208 C209 1.399 . S
C208 H214 0.929 . S
C209 C189 1.449 . S
C209 C208 1.399 . S
C209 H215 0.930 . S
H210 C190 0.931 . S
H211 C191 0.930 . S
H212 C199 0.931 . S
H213 C200 0.929 . S
H214 C208 0.929 . S
H215 C209 0.930 . S
Mn216 O221 2.095 . S
Mn216 O231 2.162 . S
Mn216 O232 2.297 . S
Mn216 O240 2.385 . S
Mn216 O241 2.209 . S
Mn216 O242 2.094 . S
Mn217 O222 2.121 . S
Mn217 N224 2.257 . S
Mn217 N233 2.282 . S
Mn217 O241 2.215 . S
Mn217 O243 2.117 . S
C218 O240 1.234 . S
C218 O241 1.283 . S
C219 O231 1.281 . S
C219 O232 1.236 . S
C220 O242 1.240 . S
C220 O243 1.264 . S
O221 Mn216 2.095 . S
O221 C230 1.250 . S
O222 Mn217 2.121 . S
O222 C230 1.258 . S
C223 N224 1.326 . S
C223 C227 1.460 . S
C223 H229 0.929 . S
N224 Mn217 2.257 . S
N224 C223 1.326 . S
N224 C228 1.362 . S
C225 C226 1.258 . S
C225 C228 1.431 . S
C225 C245 1.449 . S
C226 C225 1.258 . S
C226 C227 1.477 . S
C226 H246 0.931 . S
C227 C223 1.460 . S
C227 C226 1.477 . S
C227 H247 0.930 . S
C228 N224 1.362 . S
C228 C225 1.431 . S
C228 C238 1.476 . S
H229 C223 0.929 . S
C230 O221 1.250 . S
C230 O222 1.258 . S
O231 Mn216 2.162 . S
O231 C219 1.281 . S
O232 Mn216 2.297 . S
O232 C219 1.236 . S
N233 Mn217 2.282 . S
N233 C234 1.328 . S
N233 C238 1.318 . S
C234 N233 1.328 . S
C234 C235 1.457 . S
C234 H239 0.929 . S
C235 C234 1.457 . S
C235 C236 1.291 . S
C235 H248 0.931 . S
C236 C235 1.291 . S
C236 C237 1.373 . S
C236 H249 0.929 . S
C237 C236 1.373 . S
C237 C238 1.396 . S
C237 C244 1.403 . S
C238 C228 1.476 . S
C238 N233 1.318 . S
C238 C237 1.396 . S
H239 C234 0.929 . S
O240 Mn216 2.385 . S
O240 C218 1.234 . S
O241 Mn216 2.209 . S
O241 Mn217 2.215 . S
O241 C218 1.283 . S
O242 Mn216 2.094 . S
O242 C220 1.240 . S
O243 Mn217 2.117 . S
O243 C220 1.264 . S
C244 C237 1.403 . S
C244 C245 1.399 . S
C244 H250 0.929 . S
C245 C225 1.449 . S
C245 C244 1.399 . S
C245 H251 0.930 . S
H246 C226 0.931 . S
H247 C227 0.930 . S
H248 C235 0.931 . S
H249 C236 0.929 . S
H250 C244 0.929 . S
H251 C245 0.930 . S
Mn252 O257 2.095 . S
Mn252 O267 2.162 . S
Mn252 O268 2.297 . S
Mn252 O276 2.385 . S
Mn252 O277 2.209 . S
Mn252 O278 2.094 . S
Mn253 O258 2.121 . S
Mn253 N260 2.257 . S
Mn253 N269 2.282 . S
Mn253 O277 2.215 . S
Mn253 O279 2.117 . S
C254 O276 1.234 . S
C254 O277 1.283 . S
C255 O267 1.281 1_565 S
C255 O268 1.236 1_565 S
C256 O278 1.240 . S
C256 O279 1.264 . S
O257 Mn252 2.095 . S
O257 C266 1.250 . S
O258 Mn253 2.121 . S
O258 C266 1.258 . S
C259 N260 1.326 . S
C259 C263 1.460 . S
C259 H265 0.929 . S
N260 Mn253 2.257 . S
N260 C259 1.326 . S
N260 C264 1.362 . S
C261 C262 1.258 . S
C261 C264 1.431 . S
C261 C281 1.449 . S
C262 C261 1.258 . S
C262 C263 1.477 . S
C262 H282 0.931 . S
C263 C259 1.460 . S
C263 C262 1.477 . S
C263 H283 0.930 . S
C264 N260 1.362 . S
C264 C261 1.431 . S
C264 C274 1.476 . S
H265 C259 0.929 . S
C266 O257 1.250 . S
C266 O258 1.258 . S
O267 Mn252 2.162 . S
O267 C255 1.281 1_545 S
O268 Mn252 2.297 . S
O268 C255 1.236 1_545 S
N269 Mn253 2.282 . S
N269 C270 1.328 . S
N269 C274 1.318 . S
C270 N269 1.328 . S
C270 C271 1.457 . S
C270 H275 0.929 . S
C271 C270 1.457 . S
C271 C272 1.291 . S
C271 H284 0.931 . S
C272 C271 1.291 . S
C272 C273 1.373 . S
C272 H285 0.929 . S
C273 C272 1.373 . S
C273 C274 1.396 . S
C273 C280 1.403 . S
C274 C264 1.476 . S
C274 N269 1.318 . S
C274 C273 1.396 . S
H275 C270 0.929 . S
O276 Mn252 2.385 . S
O276 C254 1.234 . S
O277 Mn252 2.209 . S
O277 Mn253 2.215 . S
O277 C254 1.283 . S
O278 Mn252 2.094 . S
O278 C256 1.240 . S
O279 Mn253 2.117 . S
O279 C256 1.264 . S
C280 C273 1.403 . S
C280 C281 1.399 . S
C280 H286 0.929 . S
C281 C261 1.449 . S
C281 C280 1.399 . S
C281 H287 0.930 . S
H282 C262 0.931 . S
H283 C263 0.930 . S
H284 C271 0.931 . S
H285 C272 0.929 . S
H286 C280 0.929 . S
H287 C281 0.930 . S
Mn288 O293 2.095 1_655 S
Mn288 O303 2.162 . S
Mn288 O304 2.297 . S
Mn288 O312 2.385 . S
Mn288 O313 2.209 . S
Mn288 O314 2.094 . S
Mn289 O294 2.121 1_655 S
Mn289 N296 2.257 . S
Mn289 N305 2.282 . S
Mn289 O313 2.215 . S
Mn289 O315 2.117 . S
C290 O312 1.234 . S
C290 O313 1.283 . S
C291 O303 1.281 . S
C291 O304 1.236 . S
C292 O314 1.240 . S
C292 O315 1.264 . S
O293 Mn288 2.095 1_455 S
O293 C302 1.250 . S
O294 Mn289 2.121 1_455 S
O294 C302 1.258 . S
C295 N296 1.326 1_455 S
C295 C299 1.460 . S
C295 H301 0.929 . S
N296 Mn289 2.257 . S
N296 C295 1.326 1_655 S
N296 C300 1.362 . S
C297 C298 1.258 . S
C297 C300 1.431 . S
C297 C317 1.449 . S
C298 C297 1.258 . S
C298 C299 1.477 1_655 S
C298 H318 0.929 1_655 S
C299 C295 1.460 . S
C299 C298 1.477 1_455 S
C299 H319 0.930 . S
C300 N296 1.362 . S
C300 C297 1.431 . S
C300 C310 1.476 . S
H301 C295 0.929 . S
C302 O293 1.250 . S
C302 O294 1.258 . S
O303 Mn288 2.162 . S
O303 C291 1.281 . S
O304 Mn288 2.297 . S
O304 C291 1.236 . S
N305 Mn289 2.282 . S
N305 C306 1.328 . S
N305 C310 1.318 . S
C306 N305 1.328 . S
C306 C307 1.457 . S
C306 H311 0.929 . S
C307 C306 1.457 . S
C307 C308 1.291 . S
C307 H320 0.931 . S
C308 C307 1.291 . S
C308 C309 1.373 . S
C308 H321 0.929 . S
C309 C308 1.373 . S
C309 C310 1.396 . S
C309 C316 1.403 . S
C310 C300 1.476 . S
C310 N305 1.318 . S
C310 C309 1.396 . S
H311 C306 0.929 . S
O312 Mn288 2.385 . S
O312 C290 1.234 . S
O313 Mn288 2.209 . S
O313 Mn289 2.215 . S
O313 C290 1.283 . S
O314 Mn288 2.094 . S
O314 C292 1.240 . S
O315 Mn289 2.117 . S
O315 C292 1.264 . S
C316 C309 1.403 . S
C316 C317 1.399 . S
C316 H322 0.929 . S
C317 C297 1.449 . S
C317 C316 1.399 . S
C317 H323 0.930 . S
H318 C298 0.929 1_455 S
H319 C299 0.930 . S
H320 C307 0.931 . S
H321 C308 0.929 . S
H322 C316 0.929 . S
H323 C317 0.930 . S
Mn324 O329 2.095 . S
Mn324 O339 2.162 1_655 S
Mn324 O340 2.297 1_655 S
Mn324 O348 2.385 . S
Mn324 O349 2.209 . S
Mn324 O350 2.094 . S
Mn325 O330 2.121 . S
Mn325 N332 2.257 . S
Mn325 N341 2.282 . S
Mn325 O349 2.215 . S
Mn325 O351 2.117 . S
C326 O348 1.234 . S
C326 O349 1.283 . S
C327 O339 1.281 . S
C327 O340 1.236 . S
C328 O350 1.240 . S
C328 O351 1.264 . S
O329 Mn324 2.095 . S
O329 C338 1.250 . S
O330 Mn325 2.121 . S
O330 C338 1.258 . S
C331 N332 1.326 . S
C331 C335 1.460 . S
C331 H337 0.929 . S
N332 Mn325 2.257 . S
N332 C331 1.326 . S
N332 C336 1.362 . S
C333 C334 1.258 . S
C333 C336 1.431 . S
C333 C353 1.449 . S
C334 C333 1.258 . S
C334 C335 1.477 . S
C334 H354 0.931 . S
C335 C331 1.460 . S
C335 C334 1.477 . S
C335 H355 0.930 . S
C336 N332 1.362 . S
C336 C333 1.431 . S
C336 C346 1.476 . S
H337 C331 0.929 . S
C338 O329 1.250 . S
C338 O330 1.258 . S
O339 Mn324 2.162 1_455 S
O339 C327 1.281 . S
O340 Mn324 2.297 1_455 S
O340 C327 1.236 . S
N341 Mn325 2.282 . S
N341 C342 1.328 . S
N341 C346 1.318 . S
C342 N341 1.328 . S
C342 C343 1.457 . S
C342 H347 0.929 . S
C343 C342 1.457 . S
C343 C344 1.291 . S
C343 H356 0.931 . S
C344 C343 1.291 . S
C344 C345 1.373 . S
C344 H357 0.929 . S
C345 C344 1.373 . S
C345 C346 1.396 . S
C345 C352 1.403 . S
C346 C336 1.476 . S
C346 N341 1.318 . S
C346 C345 1.396 . S
H347 C342 0.929 . S
O348 Mn324 2.385 . S
O348 C326 1.234 . S
O349 Mn324 2.209 . S
O349 Mn325 2.215 . S
O349 C326 1.283 . S
O350 Mn324 2.094 . S
O350 C328 1.240 . S
O351 Mn325 2.117 . S
O351 C328 1.264 . S
C352 C345 1.403 . S
C352 C353 1.399 . S
C352 H358 0.929 . S
C353 C333 1.449 . S
C353 C352 1.399 . S
C353 H359 0.930 . S
H354 C334 0.931 . S
H355 C335 0.930 . S
H356 C343 0.931 . S
H357 C344 0.929 . S
H358 C352 0.929 . S
H359 C353 0.930 . S
Mn360 O365 2.095 . S
Mn360 O375 2.162 . S
Mn360 O376 2.297 . S
Mn360 O384 2.385 . S
Mn360 O385 2.209 . S
Mn360 O386 2.094 . S
Mn361 O366 2.121 . S
Mn361 N368 2.257 . S
Mn361 N377 2.282 . S
Mn361 O385 2.215 . S
Mn361 O387 2.117 . S
C362 O384 1.234 . S
C362 O385 1.283 . S
C363 O375 1.281 . S
C363 O376 1.236 . S
C364 O386 1.240 . S
C364 O387 1.264 . S
O365 Mn360 2.095 . S
O365 C374 1.250 . S
O366 Mn361 2.121 . S
O366 C374 1.258 . S
C367 N368 1.326 . S
C367 C371 1.460 . S
C367 H373 0.929 . S
N368 Mn361 2.257 . S
N368 C367 1.326 . S
N368 C372 1.362 . S
C369 C370 1.258 . S
C369 C372 1.431 . S
C369 C389 1.449 . S
C370 C369 1.258 . S
C370 C371 1.477 . S
C370 H390 0.931 . S
C371 C367 1.460 . S
C371 C370 1.477 . S
C371 H391 0.930 . S
C372 N368 1.362 . S
C372 C369 1.431 . S
C372 C382 1.476 . S
H373 C367 0.929 . S
C374 O365 1.250 . S
C374 O366 1.258 . S
O375 Mn360 2.162 . S
O375 C363 1.281 . S
O376 Mn360 2.297 . S
O376 C363 1.236 . S
N377 Mn361 2.282 . S
N377 C378 1.328 . S
N377 C382 1.318 . S
C378 N377 1.328 . S
C378 C379 1.457 . S
C378 H383 0.929 . S
C379 C378 1.457 . S
C379 C380 1.291 . S
C379 H392 0.931 . S
C380 C379 1.291 . S
C380 C381 1.373 . S
C380 H393 0.929 . S
C381 C380 1.373 . S
C381 C382 1.396 . S
C381 C388 1.403 . S
C382 C372 1.476 . S
C382 N377 1.318 . S
C382 C381 1.396 . S
H383 C378 0.929 . S
O384 Mn360 2.385 . S
O384 C362 1.234 . S
O385 Mn360 2.209 . S
O385 Mn361 2.215 . S
O385 C362 1.283 . S
O386 Mn360 2.094 . S
O386 C364 1.240 . S
O387 Mn361 2.117 . S
O387 C364 1.264 . S
C388 C381 1.403 . S
C388 C389 1.399 . S
C388 H394 0.929 . S
C389 C369 1.449 . S
C389 C388 1.399 . S
C389 H395 0.930 . S
H390 C370 0.931 . S
H391 C371 0.930 . S
H392 C379 0.931 . S
H393 C380 0.929 . S
H394 C388 0.929 . S
H395 C389 0.930 . S
Mn396 O401 2.095 . S
Mn396 O411 2.162 . S
Mn396 O412 2.297 . S
Mn396 O420 2.385 . S
Mn396 O421 2.209 . S
Mn396 O422 2.094 . S
Mn397 O402 2.121 . S
Mn397 N404 2.257 . S
Mn397 N413 2.282 . S
Mn397 O421 2.215 . S
Mn397 O423 2.117 . S
C398 O420 1.234 . S
C398 O421 1.283 . S
C399 O411 1.281 . S
C399 O412 1.236 . S
C400 O422 1.240 . S
C400 O423 1.264 . S
O401 Mn396 2.095 . S
O401 C410 1.250 . S
O402 Mn397 2.121 . S
O402 C410 1.258 . S
C403 N404 1.326 . S
C403 C407 1.460 . S
C403 H409 0.929 1_545 S
N404 Mn397 2.257 . S
N404 C403 1.326 . S
N404 C408 1.362 . S
C405 C406 1.258 . S
C405 C408 1.431 . S
C405 C425 1.449 . S
C406 C405 1.258 . S
C406 C407 1.477 . S
C406 H426 0.931 . S
C407 C403 1.460 . S
C407 C406 1.477 . S
C407 H427 0.930 1_545 S
C408 N404 1.362 . S
C408 C405 1.431 . S
C408 C418 1.476 . S
H409 C403 0.929 1_565 S
C410 O401 1.250 . S
C410 O402 1.258 . S
O411 Mn396 2.162 . S
O411 C399 1.281 . S
O412 Mn396 2.297 . S
O412 C399 1.236 . S
N413 Mn397 2.282 . S
N413 C414 1.328 . S
N413 C418 1.318 . S
C414 N413 1.328 . S
C414 C415 1.457 . S
C414 H419 0.929 . S
C415 C414 1.457 . S
C415 C416 1.291 . S
C415 H428 0.931 . S
C416 C415 1.291 . S
C416 C417 1.373 . S
C416 H429 0.929 . S
C417 C416 1.373 . S
C417 C418 1.396 . S
C417 C424 1.403 . S
C418 C408 1.476 . S
C418 N413 1.318 . S
C418 C417 1.396 . S
H419 C414 0.929 . S
O420 Mn396 2.385 . S
O420 C398 1.234 . S
O421 Mn396 2.209 . S
O421 Mn397 2.215 . S
O421 C398 1.283 . S
O422 Mn396 2.094 . S
O422 C400 1.240 . S
O423 Mn397 2.117 . S
O423 C400 1.264 . S
C424 C417 1.403 . S
C424 C425 1.399 . S
C424 H430 0.929 . S
C425 C405 1.449 . S
C425 C424 1.399 . S
C425 H431 0.930 . S
H426 C406 0.931 . S
H427 C407 0.930 1_565 S
H428 C415 0.931 . S
H429 C416 0.929 . S
H430 C424 0.929 . S
H431 C425 0.930 . S
Mn432 O437 2.095 . S
Mn432 O447 2.162 . S
Mn432 O448 2.297 . S
Mn432 O456 2.385 . S
Mn432 O457 2.209 . S
Mn432 O458 2.094 . S
Mn433 O438 2.121 . S
Mn433 N440 2.257 . S
Mn433 N449 2.282 . S
Mn433 O457 2.215 . S
Mn433 O459 2.117 . S
C434 O456 1.234 . S
C434 O457 1.283 . S
C435 O447 1.281 1_655 S
C435 O448 1.236 1_655 S
C436 O458 1.240 . S
C436 O459 1.264 . S
O437 Mn432 2.095 . S
O437 C446 1.250 . S
O438 Mn433 2.121 . S
O438 C446 1.258 . S
C439 N440 1.326 . S
C439 C443 1.460 . S
C439 H445 0.929 . S
N440 Mn433 2.257 . S
N440 C439 1.326 . S
N440 C444 1.362 . S
C441 C442 1.258 . S
C441 C444 1.431 . S
C441 C461 1.449 . S
C442 C441 1.258 . S
C442 C443 1.477 . S
C442 H462 0.931 . S
C443 C439 1.460 . S
C443 C442 1.477 . S
C443 H463 0.930 . S
C444 N440 1.362 . S
C444 C441 1.431 . S
C444 C454 1.476 . S
H445 C439 0.929 . S
C446 O437 1.250 . S
C446 O438 1.258 . S
O447 Mn432 2.162 . S
O447 C435 1.281 1_455 S
O448 Mn432 2.297 . S
O448 C435 1.236 1_455 S
N449 Mn433 2.282 . S
N449 C450 1.328 . S
N449 C454 1.318 . S
C450 N449 1.328 . S
C450 C451 1.457 . S
C450 H455 0.929 . S
C451 C450 1.457 . S
C451 C452 1.291 . S
C451 H464 0.931 . S
C452 C451 1.291 . S
C452 C453 1.373 . S
C452 H465 0.929 . S
C453 C452 1.373 . S
C453 C454 1.396 . S
C453 C460 1.403 . S
C454 C444 1.476 . S
C454 N449 1.318 . S
C454 C453 1.396 . S
H455 C450 0.929 . S
O456 Mn432 2.385 . S
O456 C434 1.234 . S
O457 Mn432 2.209 . S
O457 Mn433 2.215 . S
O457 C434 1.283 . S
O458 Mn432 2.094 . S
O458 C436 1.240 . S
O459 Mn433 2.117 . S
O459 C436 1.264 . S
C460 C453 1.403 . S
C460 C461 1.399 . S
C460 H466 0.929 . S
C461 C441 1.449 . S
C461 C460 1.399 . S
C461 H467 0.930 . S
H462 C442 0.931 . S
H463 C443 0.930 . S
H464 C451 0.931 . S
H465 C452 0.929 . S
H466 C460 0.929 . S
H467 C461 0.930 . S
Mn468 O473 2.095 . S
Mn468 O483 2.162 . S
Mn468 O484 2.297 . S
Mn468 O492 2.385 . S
Mn468 O493 2.209 . S
Mn468 O494 2.094 . S
Mn469 O474 2.121 . S
Mn469 N476 2.257 . S
Mn469 N485 2.282 . S
Mn469 O493 2.215 . S
Mn469 O495 2.117 . S
C470 O492 1.234 . S
C470 O493 1.283 . S
C471 O483 1.281 . S
C471 O484 1.236 . S
C472 O494 1.240 . S
C472 O495 1.264 . S
O473 Mn468 2.095 . S
O473 C482 1.250 . S
O474 Mn469 2.121 . S
O474 C482 1.258 . S
C475 N476 1.326 . S
C475 C479 1.460 . S
C475 H481 0.929 . S
N476 Mn469 2.257 . S
N476 C475 1.326 . S
N476 C480 1.362 . S
C477 C478 1.258 . S
C477 C480 1.431 . S
C477 C497 1.449 . S
C478 C477 1.258 . S
C478 C479 1.477 . S
C478 H498 0.931 . S
C479 C475 1.460 . S
C479 C478 1.477 . S
C479 H499 0.930 . S
C480 N476 1.362 . S
C480 C477 1.431 . S
C480 C490 1.476 . S
H481 C475 0.929 . S
C482 O473 1.250 . S
C482 O474 1.258 . S
O483 Mn468 2.162 . S
O483 C471 1.281 . S
O484 Mn468 2.297 . S
O484 C471 1.236 . S
N485 Mn469 2.282 . S
N485 C486 1.328 . S
N485 C490 1.318 . S
C486 N485 1.328 . S
C486 C487 1.457 . S
C486 H491 0.929 . S
C487 C486 1.457 . S
C487 C488 1.291 . S
C487 H500 0.931 . S
C488 C487 1.291 . S
C488 C489 1.373 . S
C488 H501 0.929 . S
C489 C488 1.373 . S
C489 C490 1.396 . S
C489 C496 1.403 . S
C490 C480 1.476 . S
C490 N485 1.318 . S
C490 C489 1.396 . S
H491 C486 0.929 . S
O492 Mn468 2.385 . S
O492 C470 1.234 . S
O493 Mn468 2.209 . S
O493 Mn469 2.215 . S
O493 C470 1.283 . S
O494 Mn468 2.094 . S
O494 C472 1.240 . S
O495 Mn469 2.117 . S
O495 C472 1.264 . S
C496 C489 1.403 . S
C496 C497 1.399 . S
C496 H502 0.929 . S
C497 C477 1.449 . S
C497 C496 1.399 . S
C497 H503 0.930 . S
H498 C478 0.931 . S
H499 C479 0.930 . S
H500 C487 0.931 . S
H501 C488 0.929 . S
H502 C496 0.929 . S
H503 C497 0.930 . S
Mn504 O509 2.095 . S
Mn504 O519 2.162 1_565 S
Mn504 O520 2.297 1_565 S
Mn504 O528 2.385 . S
Mn504 O529 2.209 . S
Mn504 O530 2.094 . S
Mn505 O510 2.121 . S
Mn505 N512 2.257 . S
Mn505 N521 2.282 . S
Mn505 O529 2.215 . S
Mn505 O531 2.117 . S
C506 O528 1.234 . S
C506 O529 1.283 . S
C507 O519 1.281 . S
C507 O520 1.236 . S
C508 O530 1.240 . S
C508 O531 1.264 . S
O509 Mn504 2.095 . S
O509 C518 1.250 . S
O510 Mn505 2.121 . S
O510 C518 1.258 . S
C511 N512 1.326 . S
C511 C515 1.460 . S
C511 H517 0.929 . S
N512 Mn505 2.257 . S
N512 C511 1.326 . S
N512 C516 1.362 . S
C513 C514 1.258 . S
C513 C516 1.431 . S
C513 C533 1.449 . S
C514 C513 1.258 . S
C514 C515 1.477 . S
C514 H534 0.931 . S
C515 C511 1.460 . S
C515 C514 1.477 . S
C515 H535 0.930 . S
C516 N512 1.362 . S
C516 C513 1.431 . S
C516 C526 1.476 . S
H517 C511 0.929 . S
C518 O509 1.250 . S
C518 O510 1.258 . S
O519 Mn504 2.162 1_545 S
O519 C507 1.281 . S
O520 Mn504 2.297 1_545 S
O520 C507 1.236 . S
N521 Mn505 2.282 . S
N521 C522 1.328 . S
N521 C526 1.318 . S
C522 N521 1.328 . S
C522 C523 1.457 . S
C522 H527 0.929 . S
C523 C522 1.457 . S
C523 C524 1.291 . S
C523 H536 0.931 . S
C524 C523 1.291 . S
C524 C525 1.373 . S
C524 H537 0.929 . S
C525 C524 1.373 . S
C525 C526 1.396 . S
C525 C532 1.403 . S
C526 C516 1.476 . S
C526 N521 1.318 . S
C526 C525 1.396 . S
H527 C522 0.929 . S
O528 Mn504 2.385 . S
O528 C506 1.234 . S
O529 Mn504 2.209 . S
O529 Mn505 2.215 . S
O529 C506 1.283 . S
O530 Mn504 2.094 . S
O530 C508 1.240 . S
O531 Mn505 2.117 . S
O531 C508 1.264 . S
C532 C525 1.403 . S
C532 C533 1.399 . S
C532 H538 0.929 . S
C533 C513 1.449 . S
C533 C532 1.399 . S
C533 H539 0.930 . S
H534 C514 0.931 . S
H535 C515 0.930 . S
H536 C523 0.931 . S
H537 C524 0.929 . S
H538 C532 0.929 . S
H539 C533 0.930 . S
Mn540 O545 2.095 . S
Mn540 O555 2.162 . S
Mn540 O556 2.297 . S
Mn540 O564 2.385 . S
Mn540 O565 2.209 . S
Mn540 O566 2.094 . S
Mn541 O546 2.121 . S
Mn541 N548 2.257 . S
Mn541 N557 2.282 . S
Mn541 O565 2.215 . S
Mn541 O567 2.117 . S
C542 O564 1.234 . S
C542 O565 1.283 . S
C543 O555 1.281 . S
C543 O556 1.236 . S
C544 O566 1.240 . S
C544 O567 1.264 . S
O545 Mn540 2.095 . S
O545 C554 1.250 . S
O546 Mn541 2.121 . S
O546 C554 1.258 . S
C547 N548 1.326 . S
C547 C551 1.460 . S
C547 H553 0.929 . S
N548 Mn541 2.257 . S
N548 C547 1.326 . S
N548 C552 1.362 . S
C549 C550 1.258 . S
C549 C552 1.431 . S
C549 C569 1.449 . S
C550 C549 1.258 . S
C550 C551 1.477 . S
C550 H570 0.931 . S
C551 C547 1.460 . S
C551 C550 1.477 . S
C551 H571 0.930 . S
C552 N548 1.362 . S
C552 C549 1.431 . S
C552 C562 1.476 . S
H553 C547 0.929 . S
C554 O545 1.250 . S
C554 O546 1.258 . S
O555 Mn540 2.162 . S
O555 C543 1.281 . S
O556 Mn540 2.297 . S
O556 C543 1.236 . S
N557 Mn541 2.282 . S
N557 C558 1.328 . S
N557 C562 1.318 . S
C558 N557 1.328 . S
C558 C559 1.457 . S
C558 H563 0.929 . S
C559 C558 1.457 . S
C559 C560 1.291 . S
C559 H572 0.931 . S
C560 C559 1.291 . S
C560 C561 1.373 . S
C560 H573 0.929 . S
C561 C560 1.373 . S
C561 C562 1.396 . S
C561 C568 1.403 . S
C562 C552 1.476 . S
C562 N557 1.318 . S
C562 C561 1.396 . S
H563 C558 0.929 . S
O564 Mn540 2.385 . S
O564 C542 1.234 . S
O565 Mn540 2.209 . S
O565 Mn541 2.215 . S
O565 C542 1.283 . S
O566 Mn540 2.094 . S
O566 C544 1.240 . S
O567 Mn541 2.117 . S
O567 C544 1.264 . S
C568 C561 1.403 . S
C568 C569 1.399 . S
C568 H574 0.929 . S
C569 C549 1.449 . S
C569 C568 1.399 . S
C569 H575 0.930 . S
H570 C550 0.931 . S
H571 C551 0.930 . S
H572 C559 0.931 . S
H573 C560 0.929 . S
H574 C568 0.929 . S
H575 C569 0.930 . S
Mn576 O581 2.095 1_565 S
Mn576 O591 2.162 . S
Mn576 O592 2.297 . S
Mn576 O600 2.385 . S
Mn576 O601 2.209 . S
Mn576 O602 2.094 . S
Mn577 O582 2.121 1_565 S
Mn577 N584 2.257 . S
Mn577 N593 2.282 . S
Mn577 O601 2.215 . S
Mn577 O603 2.117 . S
C578 O600 1.234 . S
C578 O601 1.283 . S
C579 O591 1.281 . S
C579 O592 1.236 . S
C580 O602 1.240 . S
C580 O603 1.264 . S
O581 Mn576 2.095 1_545 S
O581 C590 1.250 . S
O582 Mn577 2.121 1_545 S
O582 C590 1.258 . S
C583 N584 1.326 1_545 S
C583 C587 1.460 . S
C583 H589 0.929 . S
N584 Mn577 2.257 . S
N584 C583 1.326 1_565 S
N584 C588 1.362 . S
C585 C586 1.258 . S
C585 C588 1.431 . S
C585 C605 1.449 . S
C586 C585 1.258 . S
C586 C587 1.477 1_565 S
C586 H606 0.925 . S
C587 C583 1.460 . S
C587 C586 1.477 1_545 S
C587 H607 0.930 . S
C588 N584 1.362 . S
C588 C585 1.431 . S
C588 C598 1.476 . S
H589 C583 0.929 . S
C590 O581 1.250 . S
C590 O582 1.258 . S
O591 Mn576 2.162 . S
O591 C579 1.281 . S
O592 Mn576 2.297 . S
O592 C579 1.236 . S
N593 Mn577 2.282 . S
N593 C594 1.328 . S
N593 C598 1.318 . S
C594 N593 1.328 . S
C594 C595 1.457 . S
C594 H599 0.929 . S
C595 C594 1.457 . S
C595 C596 1.291 . S
C595 H608 0.931 . S
C596 C595 1.291 . S
C596 C597 1.373 . S
C596 H609 0.929 . S
C597 C596 1.373 . S
C597 C598 1.396 . S
C597 C604 1.403 . S
C598 C588 1.476 . S
C598 N593 1.318 . S
C598 C597 1.396 . S
H599 C594 0.929 . S
O600 Mn576 2.385 . S
O600 C578 1.234 . S
O601 Mn576 2.209 . S
O601 Mn577 2.215 . S
O601 C578 1.283 . S
O602 Mn576 2.094 . S
O602 C580 1.240 . S
O603 Mn577 2.117 . S
O603 C580 1.264 . S
C604 C597 1.403 . S
C604 C605 1.399 . S
C604 H610 0.929 . S
C605 C585 1.449 . S
C605 C604 1.399 . S
C605 H611 0.930 . S
H606 C586 0.925 . S
H607 C587 0.930 . S
H608 C595 0.931 . S
H609 C596 0.929 . S
H610 C604 0.929 . S
H611 C605 0.930 . S
Mn612 O617 2.095 . S
Mn612 O627 2.162 . S
Mn612 O628 2.297 . S
Mn612 O636 2.385 . S
Mn612 O637 2.209 . S
Mn612 O638 2.094 . S
Mn613 O618 2.121 . S
Mn613 N620 2.257 . S
Mn613 N629 2.282 . S
Mn613 O637 2.215 . S
Mn613 O639 2.117 . S
C614 O636 1.234 . S
C614 O637 1.283 . S
C615 O627 1.281 1_655 S
C615 O628 1.236 1_655 S
C616 O638 1.240 . S
C616 O639 1.264 . S
O617 Mn612 2.095 . S
O617 C626 1.250 . S
O618 Mn613 2.121 . S
O618 C626 1.258 . S
C619 N620 1.326 . S
C619 C623 1.460 . S
C619 H625 0.929 . S
N620 Mn613 2.257 . S
N620 C619 1.326 . S
N620 C624 1.362 . S
C621 C622 1.258 . S
C621 C624 1.431 . S
C621 C641 1.449 . S
C622 C621 1.258 . S
C622 C623 1.477 . S
C622 H642 0.931 . S
C623 C619 1.460 . S
C623 C622 1.477 . S
C623 H643 0.930 . S
C624 N620 1.362 . S
C624 C621 1.431 . S
C624 C634 1.476 . S
H625 C619 0.929 . S
C626 O617 1.250 . S
C626 O618 1.258 . S
O627 Mn612 2.162 . S
O627 C615 1.281 1_455 S
O628 Mn612 2.297 . S
O628 C615 1.236 1_455 S
N629 Mn613 2.282 . S
N629 C630 1.328 . S
N629 C634 1.318 . S
C630 N629 1.328 . S
C630 C631 1.457 . S
C630 H635 0.929 . S
C631 C630 1.457 . S
C631 C632 1.291 . S
C631 H644 0.931 . S
C632 C631 1.291 . S
C632 C633 1.373 . S
C632 H645 0.929 . S
C633 C632 1.373 . S
C633 C634 1.396 . S
C633 C640 1.403 . S
C634 C624 1.476 . S
C634 N629 1.318 . S
C634 C633 1.396 . S
H635 C630 0.929 . S
O636 Mn612 2.385 . S
O636 C614 1.234 . S
O637 Mn612 2.209 . S
O637 Mn613 2.215 . S
O637 C614 1.283 . S
O638 Mn612 2.094 . S
O638 C616 1.240 . S
O639 Mn613 2.117 . S
O639 C616 1.264 . S
C640 C633 1.403 . S
C640 C641 1.399 . S
C640 H646 0.929 . S
C641 C621 1.449 . S
C641 C640 1.399 . S
C641 H647 0.930 . S
H642 C622 0.931 . S
H643 C623 0.930 . S
H644 C631 0.931 . S
H645 C632 0.929 . S
H646 C640 0.929 . S
H647 C641 0.930 . S
Zn648 O654 1.920 1_455 S
Zn648 O660 1.898 1_445 S
Zn648 O663 1.905 . S
Zn649 O657 1.905 1_545 S
Zn649 O658 1.898 . S
Zn649 O666 1.920 1_455 S
Zn650 O653 2.080 . S
Zn650 O656 2.114 1_545 S
Zn650 O659 2.120 . S
Zn650 O661 2.120 1_445 S
Zn650 O662 2.114 . S
Zn650 O665 2.080 1_455 S
C651 O656 1.166 . S
C651 O657 1.182 . S
C652 O658 1.167 . S
C652 O659 1.299 . S
O653 Zn650 2.080 . S
O653 C667 1.305 1_455 S
O654 Zn648 1.920 1_655 S
O654 C667 1.234 . S
C655 O660 1.167 . S
C655 O661 1.299 . S
O656 Zn650 2.114 1_565 S
O656 C651 1.166 . S
O657 Zn649 1.905 1_565 S
O657 C651 1.182 . S
O658 Zn649 1.898 . S
O658 C652 1.167 . S
O659 Zn650 2.120 . S
O659 C652 1.299 . S
O660 Zn648 1.898 1_665 S
O660 C655 1.167 . S
O661 Zn650 2.120 1_665 S
O661 C655 1.299 . S
O662 Zn650 2.114 . S
O662 C664 1.166 . S
O663 Zn648 1.905 . S
O663 C664 1.182 . S
C664 O662 1.166 . S
C664 O663 1.182 . S
O665 Zn650 2.080 1_655 S
O665 C668 1.305 . S
O666 Zn649 1.920 1_655 S
O666 C668 1.234 . S
C667 O653 1.305 1_655 S
C667 O654 1.234 . S
C668 O665 1.305 . S
C668 O666 1.234 . S
Zn669 O675 1.920 1_545 S
Zn669 O681 1.898 . S
Zn669 O684 1.905 1_455 S
Zn670 O678 1.905 . S
Zn670 O679 1.898 1_445 S
Zn670 O687 1.920 . S
Zn671 O674 2.080 1_545 S
Zn671 O677 2.114 . S
Zn671 O680 2.120 1_445 S
Zn671 O682 2.120 . S
Zn671 O683 2.114 1_455 S
Zn671 O686 2.080 . S
C672 O677 1.166 . S
C672 O678 1.182 . S
C673 O679 1.167 . S
C673 O680 1.299 . S
O674 Zn671 2.080 1_565 S
O674 C688 1.305 . S
O675 Zn669 1.920 1_565 S
O675 C688 1.234 . S
C676 O681 1.167 . S
C676 O682 1.299 . S
O677 Zn671 2.114 . S
O677 C672 1.166 . S
O678 Zn670 1.905 . S
O678 C672 1.182 . S
O679 Zn670 1.898 1_665 S
O679 C673 1.167 . S
O680 Zn671 2.120 1_665 S
O680 C673 1.299 . S
O681 Zn669 1.898 . S
O681 C676 1.167 . S
O682 Zn671 2.120 . S
O682 C676 1.299 . S
O683 Zn671 2.114 1_655 S
O683 C685 1.166 . S
O684 Zn669 1.905 1_655 S
O684 C685 1.182 . S
C685 O683 1.166 . S
C685 O684 1.182 . S
O686 Zn671 2.080 . S
O686 C689 1.305 . S
O687 Zn670 1.920 . S
O687 C689 1.234 . S
C688 O674 1.305 . S
C688 O675 1.234 . S
C689 O686 1.305 . S
C689 O687 1.234 . S
Zn690 O696 1.920 1_545 S
Zn690 O702 1.898 . S
Zn690 O705 1.905 1_445 S
Zn691 O699 1.905 . S
Zn691 O700 1.898 1_445 S
Zn691 O708 1.920 1_545 S
Zn692 O695 2.080 1_545 S
Zn692 O698 2.114 . S
Zn692 O701 2.120 1_445 S
Zn692 O703 2.120 . S
Zn692 O704 2.114 1_455 S
Zn692 O707 2.080 . S
C693 O698 1.166 . S
C693 O699 1.182 . S
C694 O700 1.167 . S
C694 O701 1.299 . S
O695 Zn692 2.080 1_565 S
O695 C709 1.305 . S
O696 Zn690 1.920 1_565 S
O696 C709 1.234 . S
C697 O702 1.167 . S
C697 O703 1.299 . S
O698 Zn692 2.114 . S
O698 C693 1.166 . S
O699 Zn691 1.905 . S
O699 C693 1.182 . S
O700 Zn691 1.898 1_665 S
O700 C694 1.167 . S
O701 Zn692 2.120 1_665 S
O701 C694 1.299 . S
O702 Zn690 1.898 . S
O702 C697 1.167 . S
O703 Zn692 2.120 . S
O703 C697 1.299 . S
O704 Zn692 2.114 1_655 S
O704 C706 1.166 1_545 S
O705 Zn690 1.905 1_665 S
O705 C706 1.182 . S
C706 O704 1.166 1_565 S
C706 O705 1.182 . S
O707 Zn692 2.080 . S
O707 C710 1.305 . S
O708 Zn691 1.920 1_565 S
O708 C710 1.234 1_565 S
C709 O695 1.305 . S
C709 O696 1.234 . S
C710 O707 1.305 . S
C710 O708 1.234 1_545 S
Zn711 O717 1.920 . S
Zn711 O723 1.898 1_445 S
Zn711 O726 1.905 . S
Zn712 O720 1.905 1_445 S
Zn712 O721 1.898 . S
Zn712 O729 1.920 1_455 S
Zn713 O716 2.080 . S
Zn713 O719 2.114 1_545 S
Zn713 O722 2.120 . S
Zn713 O724 2.120 1_445 S
Zn713 O725 2.114 . S
Zn713 O728 2.080 1_455 S
C714 O719 1.166 . S
C714 O720 1.182 1_455 S
C715 O721 1.167 . S
C715 O722 1.299 . S
O716 Zn713 2.080 . S
O716 C730 1.305 . S
O717 Zn711 1.920 . S
O717 C730 1.234 . S
C718 O723 1.167 . S
C718 O724 1.299 . S
O719 Zn713 2.114 1_565 S
O719 C714 1.166 . S
O720 Zn712 1.905 1_665 S
O720 C714 1.182 1_655 S
O721 Zn712 1.898 . S
O721 C715 1.167 . S
O722 Zn713 2.120 . S
O722 C715 1.299 . S
O723 Zn711 1.898 1_665 S
O723 C718 1.167 . S
O724 Zn713 2.120 1_665 S
O724 C718 1.299 . S
O725 Zn713 2.114 . S
O725 C727 1.166 . S
O726 Zn711 1.905 . S
O726 C727 1.182 . S
C727 O725 1.166 . S
C727 O726 1.182 . S
O728 Zn713 2.080 1_655 S
O728 C731 1.305 . S
O729 Zn712 1.920 1_655 S
O729 C731 1.234 . S
C730 O716 1.305 . S
C730 O717 1.234 . S
C731 O728 1.305 . S
C731 O729 1.234 . S
Zn732 O738 1.920 . S
Zn732 O744 1.898 . S
Zn732 O747 1.905 . S
Zn733 O741 1.905 . S
Zn733 O742 1.898 . S
Zn733 O750 1.920 . S
Zn734 O737 2.080 . S
Zn734 O740 2.114 . S
Zn734 O743 2.120 . S
Zn734 O745 2.120 . S
Zn734 O746 2.114 . S
Zn734 O749 2.080 . S
C735 O740 1.166 . S
C735 O741 1.182 . S
C736 O742 1.167 . S
C736 O743 1.299 . S
O737 Zn734 2.080 . S
O737 C751 1.305 . S
O738 Zn732 1.920 . S
O738 C751 1.234 . S
C739 O744 1.167 . S
C739 O745 1.299 . S
O740 Zn734 2.114 . S
O740 C735 1.166 . S
O741 Zn733 1.905 . S
O741 C735 1.182 . S
O742 Zn733 1.898 . S
O742 C736 1.167 . S
O743 Zn734 2.120 . S
O743 C736 1.299 . S
O744 Zn732 1.898 . S
O744 C739 1.167 . S
O745 Zn734 2.120 . S
O745 C739 1.299 . S
O746 Zn734 2.114 . S
O746 C748 1.166 . S
O747 Zn732 1.905 . S
O747 C748 1.182 . S
C748 O746 1.166 . S
C748 O747 1.182 . S
O749 Zn734 2.080 . S
O749 C752 1.305 . S
O750 Zn733 1.920 . S
O750 C752 1.234 . S
C751 O737 1.305 . S
C751 O738 1.234 . S
C752 O749 1.305 . S
C752 O750 1.234 . S
Zn753 O759 1.920 . S
Zn753 O765 1.898 . S
Zn753 O768 1.905 . S
Zn754 O762 1.905 . S
Zn754 O763 1.898 . S
Zn754 O771 1.920 . S
Zn755 O758 2.080 . S
Zn755 O761 2.114 . S
Zn755 O764 2.120 . S
Zn755 O766 2.120 . S
Zn755 O767 2.114 . S
Zn755 O770 2.080 . S
C756 O761 1.166 . S
C756 O762 1.182 . S
C757 O763 1.167 . S
C757 O764 1.299 . S
O758 Zn755 2.080 . S
O758 C772 1.305 . S
O759 Zn753 1.920 . S
O759 C772 1.234 . S
C760 O765 1.167 . S
C760 O766 1.299 . S
O761 Zn755 2.114 . S
O761 C756 1.166 . S
O762 Zn754 1.905 . S
O762 C756 1.182 . S
O763 Zn754 1.898 . S
O763 C757 1.167 . S
O764 Zn755 2.120 . S
O764 C757 1.299 . S
O765 Zn753 1.898 . S
O765 C760 1.167 . S
O766 Zn755 2.120 . S
O766 C760 1.299 . S
O767 Zn755 2.114 . S
O767 C769 1.166 . S
O768 Zn753 1.905 . S
O768 C769 1.182 . S
C769 O767 1.166 . S
C769 O768 1.182 . S
O770 Zn755 2.080 . S
O770 C773 1.305 . S
O771 Zn754 1.920 . S
O771 C773 1.234 . S
C772 O758 1.305 . S
C772 O759 1.234 . S
C773 O770 1.305 . S
C773 O771 1.234 . S
Zn774 O780 1.920 . S
Zn774 O786 1.898 . S
Zn774 O789 1.905 . S
Zn775 O783 1.905 . S
Zn775 O784 1.898 . S
Zn775 O792 1.920 . S
Zn776 O779 2.080 . S
Zn776 O782 2.114 . S
Zn776 O785 2.120 . S
Zn776 O787 2.120 . S
Zn776 O788 2.114 . S
Zn776 O791 2.080 . S
C777 O782 1.166 . S
C777 O783 1.182 . S
C778 O784 1.167 . S
C778 O785 1.299 . S
O779 Zn776 2.080 . S
O779 C793 1.305 . S
O780 Zn774 1.920 . S
O780 C793 1.234 . S
C781 O786 1.167 . S
C781 O787 1.299 . S
O782 Zn776 2.114 . S
O782 C777 1.166 . S
O783 Zn775 1.905 . S
O783 C777 1.182 . S
O784 Zn775 1.898 . S
O784 C778 1.167 . S
O785 Zn776 2.120 . S
O785 C778 1.299 . S
O786 Zn774 1.898 . S
O786 C781 1.167 . S
O787 Zn776 2.120 . S
O787 C781 1.299 . S
O788 Zn776 2.114 . S
O788 C790 1.166 . S
O789 Zn774 1.905 . S
O789 C790 1.182 . S
C790 O788 1.166 . S
C790 O789 1.182 . S
O791 Zn776 2.080 . S
O791 C794 1.305 . S
O792 Zn775 1.920 . S
O792 C794 1.234 . S
C793 O779 1.305 . S
C793 O780 1.234 . S
C794 O791 1.305 . S
C794 O792 1.234 . S
Zn795 O801 1.920 . S
Zn795 O807 1.898 . S
Zn795 O810 1.905 . S
Zn796 O804 1.905 . S
Zn796 O805 1.898 . S
Zn796 O813 1.920 . S
Zn797 O800 2.080 . S
Zn797 O803 2.114 . S
Zn797 O806 2.120 . S
Zn797 O808 2.120 . S
Zn797 O809 2.114 . S
Zn797 O812 2.080 . S
C798 O803 1.166 . S
C798 O804 1.182 . S
C799 O805 1.167 . S
C799 O806 1.299 . S
O800 Zn797 2.080 . S
O800 C814 1.305 1_556 S
O801 Zn795 1.920 . S
O801 C814 1.234 . S
C802 O807 1.167 . S
C802 O808 1.299 1_554 S
O803 Zn797 2.114 . S
O803 C798 1.166 . S
O804 Zn796 1.905 . S
O804 C798 1.182 . S
O805 Zn796 1.898 . S
O805 C799 1.167 . S
O806 Zn797 2.120 . S
O806 C799 1.299 . S
O807 Zn795 1.898 . S
O807 C802 1.167 . S
O808 Zn797 2.120 . S
O808 C802 1.299 1_556 S
O809 Zn797 2.114 . S
O809 C811 1.166 1_556 S
O810 Zn795 1.905 . S
O810 C811 1.182 . S
C811 O809 1.166 1_554 S
C811 O810 1.182 . S
O812 Zn797 2.080 . S
O812 C815 1.305 . S
O813 Zn796 1.920 . S
O813 C815 1.234 . S
C814 O800 1.305 1_554 S
C814 O801 1.234 . S
C815 O812 1.305 . S
C815 O813 1.234 . S
Zn816 O822 1.920 . S
Zn816 O828 1.898 . S
Zn816 O831 1.905 . S
Zn817 O825 1.905 . S
Zn817 O826 1.898 . S
Zn817 O834 1.920 . S
Zn818 O821 2.080 . S
Zn818 O824 2.114 . S
Zn818 O827 2.120 . S
Zn818 O829 2.120 . S
Zn818 O830 2.114 . S
Zn818 O833 2.080 . S
C819 O824 1.166 . S
C819 O825 1.182 . S
C820 O826 1.167 . S
C820 O827 1.299 . S
O821 Zn818 2.080 . S
O821 C835 1.305 . S
O822 Zn816 1.920 . S
O822 C835 1.234 . S
C823 O828 1.167 . S
C823 O829 1.299 . S
O824 Zn818 2.114 . S
O824 C819 1.166 . S
O825 Zn817 1.905 . S
O825 C819 1.182 . S
O826 Zn817 1.898 . S
O826 C820 1.167 . S
O827 Zn818 2.120 . S
O827 C820 1.299 . S
O828 Zn816 1.898 . S
O828 C823 1.167 . S
O829 Zn818 2.120 . S
O829 C823 1.299 . S
O830 Zn818 2.114 . S
O830 C832 1.166 . S
O831 Zn816 1.905 . S
O831 C832 1.182 . S
C832 O830 1.166 . S
C832 O831 1.182 . S
O833 Zn818 2.080 . S
O833 C836 1.305 . S
O834 Zn817 1.920 . S
O834 C836 1.234 . S
C835 O821 1.305 . S
C835 O822 1.234 . S
C836 O833 1.305 . S
C836 O834 1.234 . S
Zn837 O843 1.920 . S
Zn837 O849 1.898 . S
Zn837 O852 1.905 . S
Zn838 O846 1.905 . S
Zn838 O847 1.898 . S
Zn838 O855 1.920 . S
Zn839 O842 2.080 . S
Zn839 O845 2.114 . S
Zn839 O848 2.120 . S
Zn839 O850 2.120 . S
Zn839 O851 2.114 . S
Zn839 O854 2.080 . S
C840 O845 1.166 1_556 S
C840 O846 1.182 . S
C841 O847 1.167 . S
C841 O848 1.299 1_556 S
O842 Zn839 2.080 . S
O842 C856 1.305 . S
O843 Zn837 1.920 . S
O843 C856 1.234 . S
C844 O849 1.167 . S
C844 O850 1.299 . S
O845 Zn839 2.114 . S
O845 C840 1.166 1_554 S
O846 Zn838 1.905 . S
O846 C840 1.182 . S
O847 Zn838 1.898 . S
O847 C841 1.167 . S
O848 Zn839 2.120 . S
O848 C841 1.299 1_554 S
O849 Zn837 1.898 . S
O849 C844 1.167 . S
O850 Zn839 2.120 . S
O850 C844 1.299 . S
O851 Zn839 2.114 . S
O851 C853 1.166 . S
O852 Zn837 1.905 . S
O852 C853 1.182 . S
C853 O851 1.166 . S
C853 O852 1.182 . S
O854 Zn839 2.080 . S
O854 C857 1.305 1_554 S
O855 Zn838 1.920 . S
O855 C857 1.234 . S
C856 O842 1.305 . S
C856 O843 1.234 . S
C857 O854 1.305 1_556 S
C857 O855 1.234 . S
Zn858 O864 1.920 . S
Zn858 O870 1.898 . S
Zn858 O873 1.905 . S
Zn859 O867 1.905 . S
Zn859 O868 1.898 . S
Zn859 O876 1.920 . S
Zn860 O863 2.080 . S
Zn860 O866 2.114 . S
Zn860 O869 2.120 . S
Zn860 O871 2.120 . S
Zn860 O872 2.114 . S
Zn860 O875 2.080 . S
C861 O866 1.166 . S
C861 O867 1.182 . S
C862 O868 1.167 . S
C862 O869 1.299 . S
O863 Zn860 2.080 . S
O863 C877 1.305 . S
O864 Zn858 1.920 . S
O864 C877 1.234 . S
C865 O870 1.167 . S
C865 O871 1.299 . S
O866 Zn860 2.114 . S
O866 C861 1.166 . S
O867 Zn859 1.905 . S
O867 C861 1.182 . S
O868 Zn859 1.898 . S
O868 C862 1.167 . S
O869 Zn860 2.120 . S
O869 C862 1.299 . S
O870 Zn858 1.898 . S
O870 C865 1.167 . S
O871 Zn860 2.120 . S
O871 C865 1.299 . S
O872 Zn860 2.114 . S
O872 C874 1.166 . S
O873 Zn858 1.905 . S
O873 C874 1.182 . S
C874 O872 1.166 . S
C874 O873 1.182 . S
O875 Zn860 2.080 . S
O875 C878 1.305 . S
O876 Zn859 1.920 . S
O876 C878 1.234 . S
C877 O863 1.305 . S
C877 O864 1.234 . S
C878 O875 1.305 . S
C878 O876 1.234 . S
Zn879 O885 1.920 . S
Zn879 O891 1.898 . S
Zn879 O894 1.905 . S
Zn880 O888 1.905 . S
Zn880 O889 1.898 . S
Zn880 O897 1.920 . S
Zn881 O884 2.080 . S
Zn881 O887 2.114 . S
Zn881 O890 2.120 . S
Zn881 O892 2.120 . S
Zn881 O893 2.114 . S
Zn881 O896 2.080 . S
C882 O887 1.166 . S
C882 O888 1.182 . S
C883 O889 1.167 . S
C883 O890 1.299 . S
O884 Zn881 2.080 . S
O884 C898 1.305 . S
O885 Zn879 1.920 . S
O885 C898 1.234 . S
C886 O891 1.167 . S
C886 O892 1.299 . S
O887 Zn881 2.114 . S
O887 C882 1.166 . S
O888 Zn880 1.905 . S
O888 C882 1.182 . S
O889 Zn880 1.898 . S
O889 C883 1.167 . S
O890 Zn881 2.120 . S
O890 C883 1.299 . S
O891 Zn879 1.898 . S
O891 C886 1.167 . S
O892 Zn881 2.120 . S
O892 C886 1.299 . S
O893 Zn881 2.114 . S
O893 C895 1.166 . S
O894 Zn879 1.905 . S
O894 C895 1.182 . S
C895 O893 1.166 . S
C895 O894 1.182 . S
O896 Zn881 2.080 . S
O896 C899 1.305 . S
O897 Zn880 1.920 . S
O897 C899 1.234 . S
C898 O884 1.305 . S
C898 O885 1.234 . S
C899 O896 1.305 . S
C899 O897 1.234 . S
H900 C912 0.930 . S
H901 C914 0.930 . S
H902 C915 0.930 . S
H903 C919 0.959 . S
H904 C919 0.959 . S
H905 C919 0.961 . S
H906 C920 0.960 . S
H907 C920 0.961 . S
H908 C920 0.959 . S
H909 C923 0.929 . S
H910 C924 0.931 . S
H911 C926 0.930 . S
C912 H900 0.930 . S
C912 C913 1.399 . S
C912 C917 1.399 . S
C913 C912 1.399 . S
C913 C914 1.376 . S
C914 H901 0.930 . S
C914 C913 1.376 . S
C914 C915 1.388 . S
C915 H902 0.930 . S
C915 C914 1.388 . S
C915 C916 1.390 . S
C916 C915 1.390 . S
C916 C917 1.394 . S
C916 C922 1.465 . S
C917 C912 1.399 . S
C917 C916 1.394 . S
C917 C918 1.516 . S
C918 C917 1.516 . S
C918 C919 1.502 . S
C918 C920 1.561 . S
C918 C921 1.526 . S
C919 H903 0.959 . S
C919 H904 0.959 . S
C919 H905 0.961 . S
C919 C918 1.502 . S
C920 H906 0.960 . S
C920 H907 0.961 . S
C920 H908 0.959 . S
C920 C918 1.561 . S
C921 C918 1.526 . S
C921 C922 1.396 . S
C921 C926 1.390 . S
C922 C916 1.465 . S
C922 C921 1.396 . S
C922 C923 1.399 . S
C923 H909 0.929 . S
C923 C922 1.399 . S
C923 C924 1.385 . S
C924 H910 0.931 . S
C924 C923 1.385 . S
C924 C925 1.389 . S
C925 C924 1.389 . S
C925 C926 1.387 . S
C926 H911 0.930 . S
C926 C921 1.390 . S
C926 C925 1.387 . S
H927 C939 0.930 . S
H928 C941 0.930 . S
H929 C942 0.930 . S
H930 C946 0.959 . S
H931 C946 0.959 . S
H932 C946 0.961 . S
H933 C947 0.960 . S
H934 C947 0.961 . S
H935 C947 0.959 . S
H936 C950 0.929 . S
H937 C951 0.931 . S
H938 C953 0.930 . S
C939 H927 0.930 . S
C939 C940 1.399 . S
C939 C944 1.399 . S
C940 C939 1.399 . S
C940 C941 1.376 1_545 S
C941 H928 0.930 . S
C941 C940 1.376 1_565 S
C941 C942 1.388 . S
C942 H929 0.930 . S
C942 C941 1.388 . S
C942 C943 1.390 1_565 S
C943 C942 1.390 1_545 S
C943 C944 1.394 . S
C943 C949 1.465 . S
C944 C939 1.399 . S
C944 C943 1.394 . S
C944 C945 1.516 . S
C945 C944 1.516 . S
C945 C946 1.502 . S
C945 C947 1.561 . S
C945 C948 1.526 . S
C946 H930 0.959 . S
C946 H931 0.959 . S
C946 H932 0.961 . S
C946 C945 1.502 . S
C947 H933 0.960 . S
C947 H934 0.961 . S
C947 H935 0.959 . S
C947 C945 1.561 . S
C948 C945 1.526 . S
C948 C949 1.396 . S
C948 C953 1.390 . S
C949 C943 1.465 . S
C949 C948 1.396 . S
C949 C950 1.399 1_545 S
C950 H936 0.929 . S
C950 C949 1.399 1_565 S
C950 C951 1.385 . S
C951 H937 0.931 . S
C951 C950 1.385 . S
C951 C952 1.389 1_565 S
C952 C951 1.389 1_545 S
C952 C953 1.387 . S
C953 H938 0.930 . S
C953 C948 1.390 . S
C953 C952 1.387 . S
H954 C966 0.930 . S
H955 C968 0.930 . S
H956 C969 0.930 . S
H957 C973 0.959 . S
H958 C973 0.959 . S
H959 C973 0.961 . S
H960 C974 0.960 . S
H961 C974 0.961 . S
H962 C974 0.959 . S
H963 C977 0.929 . S
H964 C978 0.931 . S
H965 C980 0.930 . S
C966 H954 0.930 . S
C966 C967 1.399 . S
C966 C971 1.399 . S
C967 C966 1.399 . S
C967 C968 1.376 1_455 S
C968 H955 0.930 . S
C968 C967 1.376 1_655 S
C968 C969 1.388 . S
C969 H956 0.930 . S
C969 C968 1.388 . S
C969 C970 1.390 . S
C970 C969 1.390 . S
C970 C971 1.394 1_655 S
C970 C976 1.465 . S
C971 C966 1.399 . S
C971 C970 1.394 1_455 S
C971 C972 1.516 . S
C972 C971 1.516 . S
C972 C973 1.502 . S
C972 C974 1.561 . S
C972 C975 1.526 . S
C973 H957 0.959 . S
C973 H958 0.959 . S
C973 H959 0.961 . S
C973 C972 1.502 . S
C974 H960 0.960 . S
C974 H961 0.961 . S
C974 H962 0.959 . S
C974 C972 1.561 . S
C975 C972 1.526 . S
C975 C976 1.396 1_455 S
C975 C980 1.390 . S
C976 C970 1.465 . S
C976 C975 1.396 1_655 S
C976 C977 1.399 . S
C977 H963 0.929 . S
C977 C976 1.399 . S
C977 C978 1.385 . S
C978 H964 0.931 . S
C978 C977 1.385 . S
C978 C979 1.391 . S
C979 C978 1.391 . S
C979 C980 1.384 1_655 S
C980 H965 0.930 . S
C980 C975 1.390 . S
C980 C979 1.384 1_455 S
H981 C993 0.930 . S
H982 C995 0.930 . S
H983 C996 0.930 . S
H984 C1000 0.959 . S
H985 C1000 0.959 . S
H986 C1000 0.961 . S
H987 C1001 0.960 . S
H988 C1001 0.961 . S
H989 C1001 0.959 . S
H990 C1004 0.929 . S
H991 C1005 0.931 . S
H992 C1007 0.930 . S
C993 H981 0.930 . S
C993 C994 1.399 . S
C993 C998 1.399 . S
C994 C993 1.399 . S
C994 C995 1.376 . S
C995 H982 0.930 . S
C995 C994 1.376 . S
C995 C996 1.388 . S
C996 H983 0.930 . S
C996 C995 1.388 . S
C996 C997 1.390 . S
C997 C996 1.390 . S
C997 C998 1.394 . S
C997 C1003 1.465 . S
C998 C993 1.399 . S
C998 C997 1.394 . S
C998 C999 1.516 . S
C999 C998 1.516 . S
C999 C1000 1.502 . S
C999 C1001 1.561 . S
C999 C1002 1.526 . S
C1000 H984 0.959 . S
C1000 H985 0.959 . S
C1000 H986 0.961 . S
C1000 C999 1.502 . S
C1001 H987 0.960 . S
C1001 H988 0.961 . S
C1001 H989 0.959 . S
C1001 C999 1.561 . S
C1002 C999 1.526 . S
C1002 C1003 1.396 . S
C1002 C1007 1.390 . S
C1003 C997 1.465 . S
C1003 C1002 1.396 . S
C1003 C1004 1.399 . S
C1004 H990 0.929 . S
C1004 C1003 1.399 . S
C1004 C1005 1.385 . S
C1005 H991 0.931 . S
C1005 C1004 1.385 . S
C1005 C1006 1.389 . S
C1006 C1005 1.389 . S
C1006 C1007 1.387 . S
C1007 H992 0.930 . S
C1007 C1002 1.390 . S
C1007 C1006 1.387 . S
H1008 C1020 0.930 1_565 S
H1009 C1022 0.930 . S
H1010 C1023 0.930 . S
H1011 C1027 0.959 . S
H1012 C1027 0.959 . S
H1013 C1027 0.961 . S
H1014 C1028 0.960 . S
H1015 C1028 0.961 . S
H1016 C1028 0.959 . S
H1017 C1031 0.929 . S
H1018 C1032 0.931 . S
H1019 C1034 0.930 . S
C1020 H1008 0.930 1_545 S
C1020 C1021 1.399 . S
C1020 C1025 1.399 . S
C1021 C1020 1.399 . S
C1021 C1022 1.376 . S
C1022 H1009 0.930 . S
C1022 C1021 1.376 . S
C1022 C1023 1.388 . S
C1023 H1010 0.930 . S
C1023 C1022 1.388 . S
C1023 C1024 1.390 . S
C1024 C1023 1.390 . S
C1024 C1025 1.394 . S
C1024 C1030 1.465 . S
C1025 C1020 1.399 . S
C1025 C1024 1.394 . S
C1025 C1026 1.516 1_545 S
C1026 C1025 1.516 1_565 S
C1026 C1027 1.502 . S
C1026 C1028 1.561 . S
C1026 C1029 1.526 . S
C1027 H1011 0.959 . S
C1027 H1012 0.959 . S
C1027 H1013 0.961 . S
C1027 C1026 1.502 . S
C1028 H1014 0.960 . S
C1028 H1015 0.961 . S
C1028 H1016 0.959 . S
C1028 C1026 1.561 . S
C1029 C1026 1.526 . S
C1029 C1030 1.397 1_565 S
C1029 C1034 1.389 . S
C1030 C1024 1.465 . S
C1030 C1029 1.397 1_545 S
C1030 C1031 1.399 . S
C1031 H1017 0.929 . S
C1031 C1030 1.399 . S
C1031 C1032 1.385 . S
C1032 H1018 0.931 . S
C1032 C1031 1.385 . S
C1032 C1033 1.389 . S
C1033 C1032 1.389 . S
C1033 C1034 1.387 1_545 S
C1034 H1019 0.930 . S
C1034 C1029 1.389 . S
C1034 C1033 1.387 1_565 S
H1035 C1047 0.930 . S
H1036 C1049 0.930 . S
H1037 C1050 0.930 . S
H1038 C1054 0.959 . S
H1039 C1054 0.959 . S
H1040 C1054 0.961 . S
H1041 C1055 0.960 . S
H1042 C1055 0.961 . S
H1043 C1055 0.959 . S
H1044 C1058 0.929 . S
H1045 C1059 0.931 1_655 S
H1046 C1061 0.930 . S
C1047 H1035 0.930 . S
C1047 C1048 1.399 . S
C1047 C1052 1.399 . S
C1048 C1047 1.399 . S
C1048 C1049 1.376 1_455 S
C1049 H1036 0.930 . S
C1049 C1048 1.376 1_655 S
C1049 C1050 1.388 . S
C1050 H1037 0.930 . S
C1050 C1049 1.388 . S
C1050 C1051 1.390 1_655 S
C1051 C1050 1.390 1_455 S
C1051 C1052 1.394 . S
C1051 C1057 1.465 . S
C1052 C1047 1.399 . S
C1052 C1051 1.394 . S
C1052 C1053 1.516 . S
C1053 C1052 1.516 . S
C1053 C1054 1.502 . S
C1053 C1055 1.561 . S
C1053 C1056 1.526 . S
C1054 H1038 0.959 . S
C1054 H1039 0.959 . S
C1054 H1040 0.961 . S
C1054 C1053 1.502 . S
C1055 H1041 0.960 . S
C1055 H1042 0.961 . S
C1055 H1043 0.959 . S
C1055 C1053 1.561 . S
C1056 C1053 1.526 . S
C1056 C1057 1.396 . S
C1056 C1061 1.390 . S
C1057 C1051 1.465 . S
C1057 C1056 1.396 . S
C1057 C1058 1.399 1_455 S
C1058 H1044 0.929 . S
C1058 C1057 1.399 1_655 S
C1058 C1059 1.385 1_655 S
C1059 H1045 0.931 1_455 S
C1059 C1058 1.385 1_455 S
C1059 C1060 1.389 . S
C1060 C1059 1.389 . S
C1060 C1061 1.387 . S
C1061 H1046 0.930 . S
C1061 C1056 1.390 . S
C1061 C1060 1.387 . S
H1062 C1074 0.930 . S
H1063 C1076 0.930 . S
H1064 C1077 0.930 . S
H1065 C1081 0.959 . S
H1066 C1081 0.959 . S
H1067 C1081 0.961 . S
H1068 C1082 0.960 . S
H1069 C1082 0.961 . S
H1070 C1082 0.959 . S
H1071 C1085 0.929 . S
H1072 C1086 0.931 . S
H1073 C1088 0.930 . S
C1074 H1062 0.930 . S
C1074 C1075 1.399 . S
C1074 C1079 1.399 . S
C1075 C1074 1.399 . S
C1075 C1076 1.376 . S
C1076 H1063 0.930 . S
C1076 C1075 1.376 . S
C1076 C1077 1.388 . S
C1077 H1064 0.930 . S
C1077 C1076 1.388 . S
C1077 C1078 1.390 . S
C1078 C1077 1.390 . S
C1078 C1079 1.394 . S
C1078 C1084 1.465 . S
C1079 C1074 1.399 . S
C1079 C1078 1.394 . S
C1079 C1080 1.516 . S
C1080 C1079 1.516 . S
C1080 C1081 1.502 . S
C1080 C1082 1.561 . S
C1080 C1083 1.526 . S
C1081 H1065 0.959 . S
C1081 H1066 0.959 . S
C1081 H1067 0.961 . S
C1081 C1080 1.502 . S
C1082 H1068 0.960 . S
C1082 H1069 0.961 . S
C1082 H1070 0.959 . S
C1082 C1080 1.561 . S
C1083 C1080 1.526 . S
C1083 C1084 1.396 . S
C1083 C1088 1.390 . S
C1084 C1078 1.465 . S
C1084 C1083 1.396 . S
C1084 C1085 1.399 . S
C1085 H1071 0.929 . S
C1085 C1084 1.399 . S
C1085 C1086 1.385 . S
C1086 H1072 0.931 . S
C1086 C1085 1.385 . S
C1086 C1087 1.389 . S
C1087 C1086 1.389 . S
C1087 C1088 1.387 . S
C1088 H1073 0.930 . S
C1088 C1083 1.390 . S
C1088 C1087 1.387 . S
H1089 C1101 0.930 . S
H1090 C1103 0.930 . S
H1091 C1104 0.930 . S
H1092 C1108 0.959 . S
H1093 C1108 0.959 . S
H1094 C1108 0.961 . S
H1095 C1109 0.960 . S
H1096 C1109 0.961 . S
H1097 C1109 0.959 . S
H1098 C1112 0.929 . S
H1099 C1113 0.931 . S
H1100 C1115 0.930 . S
C1101 H1089 0.930 . S
C1101 C1102 1.399 1_565 S
C1101 C1106 1.399 . S
C1102 C1101 1.399 1_545 S
C1102 C1103 1.376 . S
C1103 H1090 0.930 . S
C1103 C1102 1.376 . S
C1103 C1104 1.388 . S
C1104 H1091 0.930 . S
C1104 C1103 1.388 . S
C1104 C1105 1.390 . S
C1105 C1104 1.390 . S
C1105 C1106 1.394 1_545 S
C1105 C1111 1.465 . S
C1106 C1101 1.399 . S
C1106 C1105 1.394 1_565 S
C1106 C1107 1.516 . S
C1107 C1106 1.516 . S
C1107 C1108 1.502 . S
C1107 C1109 1.561 . S
C1107 C1110 1.526 . S
C1108 H1092 0.959 . S
C1108 H1093 0.959 . S
C1108 H1094 0.961 . S
C1108 C1107 1.502 . S
C1109 H1095 0.960 . S
C1109 H1096 0.961 . S
C1109 H1097 0.959 . S
C1109 C1107 1.561 . S
C1110 C1107 1.526 . S
C1110 C1111 1.396 1_565 S
C1110 C1115 1.390 . S
C1111 C1105 1.465 . S
C1111 C1110 1.396 1_545 S
C1111 C1112 1.399 . S
C1112 H1098 0.929 . S
C1112 C1111 1.399 . S
C1112 C1113 1.385 . S
C1113 H1099 0.931 . S
C1113 C1112 1.385 . S
C1113 C1114 1.389 . S
C1114 C1113 1.389 . S
C1114 C1115 1.387 1_545 S
C1115 H1100 0.930 . S
C1115 C1110 1.390 . S
C1115 C1114 1.387 1_565 S
H1116 C1128 0.930 . S
H1117 C1130 0.930 . S
H1118 C1131 0.930 . S
H1119 C1135 0.959 . S
H1120 C1135 0.959 1_455 S
H1121 C1135 0.961 . S
H1122 C1136 0.960 . S
H1123 C1136 0.961 . S
H1124 C1136 0.959 . S
H1125 C1139 0.929 . S
H1126 C1140 0.931 . S
H1127 C1142 0.930 . S
C1128 H1116 0.930 . S
C1128 C1129 1.399 . S
C1128 C1133 1.399 . S
C1129 C1128 1.399 . S
C1129 C1130 1.376 . S
C1130 H1117 0.930 . S
C1130 C1129 1.376 . S
C1130 C1131 1.388 . S
C1131 H1118 0.930 . S
C1131 C1130 1.388 . S
C1131 C1132 1.390 . S
C1132 C1131 1.390 . S
C1132 C1133 1.394 . S
C1132 C1138 1.465 . S
C1133 C1128 1.399 . S
C1133 C1132 1.394 . S
C1133 C1134 1.516 . S
C1134 C1133 1.516 . S
C1134 C1135 1.502 1_455 S
C1134 C1136 1.561 . S
C1134 C1137 1.526 . S
C1135 H1119 0.959 . S
C1135 H1120 0.959 1_655 S
C1135 H1121 0.961 . S
C1135 C1134 1.502 1_655 S
C1136 H1122 0.960 . S
C1136 H1123 0.961 . S
C1136 H1124 0.959 . S
C1136 C1134 1.561 . S
C1137 C1134 1.526 . S
C1137 C1138 1.396 . S
C1137 C1142 1.390 . S
C1138 C1132 1.465 . S
C1138 C1137 1.396 . S
C1138 C1139 1.399 . S
C1139 H1125 0.929 . S
C1139 C1138 1.399 . S
C1139 C1140 1.385 . S
C1140 H1126 0.931 . S
C1140 C1139 1.385 . S
C1140 C1141 1.389 . S
C1141 C1140 1.389 . S
C1141 C1142 1.387 . S
C1142 H1127 0.930 . S
C1142 C1137 1.390 . S
C1142 C1141 1.387 . S
H1143 C1155 0.930 . S
H1144 C1157 0.930 . S
H1145 C1158 0.930 . S
H1146 C1162 0.959 . S
H1147 C1162 0.959 . S
H1148 C1162 0.961 . S
H1149 C1163 0.960 . S
H1150 C1163 0.961 . S
H1151 C1163 0.959 . S
H1152 C1166 0.929 . S
H1153 C1167 0.931 . S
H1154 C1169 0.930 . S
C1155 H1143 0.930 . S
C1155 C1156 1.399 . S
C1155 C1160 1.399 . S
C1156 C1155 1.399 . S
C1156 C1157 1.376 . S
C1157 H1144 0.930 . S
C1157 C1156 1.376 . S
C1157 C1158 1.388 . S
C1158 H1145 0.930 . S
C1158 C1157 1.388 . S
C1158 C1159 1.390 . S
C1159 C1158 1.390 . S
C1159 C1160 1.394 . S
C1159 C1165 1.465 . S
C1160 C1155 1.399 . S
C1160 C1159 1.394 . S
C1160 C1161 1.516 . S
C1161 C1160 1.516 . S
C1161 C1162 1.502 . S
C1161 C1163 1.561 . S
C1161 C1164 1.526 . S
C1162 H1146 0.959 . S
C1162 H1147 0.959 . S
C1162 H1148 0.961 . S
C1162 C1161 1.502 . S
C1163 H1149 0.960 . S
C1163 H1150 0.961 . S
C1163 H1151 0.959 . S
C1163 C1161 1.561 . S
C1164 C1161 1.526 . S
C1164 C1165 1.396 . S
C1164 C1169 1.390 . S
C1165 C1159 1.465 . S
C1165 C1164 1.396 . S
C1165 C1166 1.399 . S
C1166 H1152 0.929 . S
C1166 C1165 1.399 . S
C1166 C1167 1.385 . S
C1167 H1153 0.931 . S
C1167 C1166 1.385 . S
C1167 C1168 1.389 . S
C1168 C1167 1.389 . S
C1168 C1169 1.387 . S
C1169 H1154 0.930 . S
C1169 C1164 1.390 . S
C1169 C1168 1.387 . S
H1170 C1182 0.930 . S
H1171 C1184 0.930 . S
H1172 C1185 0.930 . S
H1173 C1189 0.959 . S
H1174 C1189 0.959 . S
H1175 C1189 0.961 . S
H1176 C1190 0.960 . S
H1177 C1190 0.961 . S
H1178 C1190 0.959 . S
H1179 C1193 0.929 . S
H1180 C1194 0.931 . S
H1181 C1196 0.930 1_565 S
C1182 H1170 0.930 . S
C1182 C1183 1.399 1_565 S
C1182 C1187 1.399 1_565 S
C1183 C1182 1.399 1_545 S
C1183 C1184 1.376 . S
C1184 H1171 0.930 . S
C1184 C1183 1.376 . S
C1184 C1185 1.388 . S
C1185 H1172 0.930 . S
C1185 C1184 1.388 . S
C1185 C1186 1.390 . S
C1186 C1185 1.390 . S
C1186 C1187 1.394 . S
C1186 C1192 1.465 . S
C1187 C1182 1.399 1_545 S
C1187 C1186 1.394 . S
C1187 C1188 1.516 1_545 S
C1188 C1187 1.516 1_565 S
C1188 C1189 1.502 . S
C1188 C1190 1.561 . S
C1188 C1191 1.526 1_565 S
C1189 H1173 0.959 . S
C1189 H1174 0.959 . S
C1189 H1175 0.961 . S
C1189 C1188 1.502 . S
C1190 H1176 0.960 . S
C1190 H1177 0.961 . S
C1190 H1178 0.959 . S
C1190 C1188 1.561 . S
C1191 C1188 1.526 1_545 S
C1191 C1192 1.396 . S
C1191 C1196 1.390 . S
C1192 C1186 1.465 . S
C1192 C1191 1.396 . S
C1192 C1193 1.399 . S
C1193 H1179 0.929 . S
C1193 C1192 1.399 . S
C1193 C1194 1.385 . S
C1194 H1180 0.931 . S
C1194 C1193 1.385 . S
C1194 C1195 1.389 . S
C1195 C1194 1.389 . S
C1195 C1196 1.387 . S
C1196 H1181 0.930 1_545 S
C1196 C1191 1.390 . S
C1196 C1195 1.387 . S
H1197 C1209 0.930 . S
H1198 C1211 0.930 . S
H1199 C1212 0.930 . S
H1200 C1216 0.959 . S
H1201 C1216 0.959 . S
H1202 C1216 0.961 . S
H1203 C1217 0.960 . S
H1204 C1217 0.961 . S
H1205 C1217 0.959 . S
H1206 C1220 0.929 . S
H1207 C1221 0.931 . S
H1208 C1223 0.930 . S
C1209 H1197 0.930 . S
C1209 C1210 1.399 . S
C1209 C1214 1.399 . S
C1210 C1209 1.399 . S
C1210 C1211 1.376 1_455 S
C1211 H1198 0.930 . S
C1211 C1210 1.376 1_655 S
C1211 C1212 1.388 . S
C1212 H1199 0.930 . S
C1212 C1211 1.388 . S
C1212 C1213 1.390 1_655 S
C1213 C1212 1.390 1_455 S
C1213 C1214 1.394 . S
C1213 C1219 1.465 . S
C1214 C1209 1.399 . S
C1214 C1213 1.394 . S
C1214 C1215 1.516 . S
C1215 C1214 1.516 . S
C1215 C1216 1.502 . S
C1215 C1217 1.561 . S
C1215 C1218 1.526 . S
C1216 H1200 0.959 . S
C1216 H1201 0.959 . S
C1216 H1202 0.961 . S
C1216 C1215 1.502 . S
C1217 H1203 0.960 . S
C1217 H1204 0.961 . S
C1217 H1205 0.959 . S
C1217 C1215 1.561 . S
C1218 C1215 1.526 . S
C1218 C1219 1.396 . S
C1218 C1223 1.390 . S
C1219 C1213 1.465 . S
C1219 C1218 1.396 . S
C1219 C1220 1.399 1_455 S
C1220 H1206 0.929 . S
C1220 C1219 1.399 1_655 S
C1220 C1221 1.385 . S
C1221 H1207 0.931 . S
C1221 C1220 1.385 . S
C1221 C1222 1.389 1_655 S
C1222 C1221 1.389 1_455 S
C1222 C1223 1.387 . S
C1223 H1208 0.930 . S
C1223 C1218 1.390 . S
C1223 C1222 1.387 . S
H1224 C1236 0.930 . S
H1225 C1238 0.930 . S
H1226 C1239 0.930 . S
H1227 C1243 0.959 . S
H1228 C1243 0.959 . S
H1229 C1243 0.961 . S
H1230 C1244 0.960 . S
H1231 C1244 0.961 . S
H1232 C1244 0.959 . S
H1233 C1247 0.929 . S
H1234 C1248 0.931 . S
H1235 C1250 0.930 . S
C1236 H1224 0.930 . S
C1236 C1237 1.399 . S
C1236 C1241 1.399 . S
C1237 C1236 1.399 . S
C1237 C1238 1.376 . S
C1238 H1225 0.930 . S
C1238 C1237 1.376 . S
C1238 C1239 1.388 . S
C1239 H1226 0.930 . S
C1239 C1238 1.388 . S
C1239 C1240 1.390 . S
C1240 C1239 1.390 . S
C1240 C1241 1.394 . S
C1240 C1246 1.465 . S
C1241 C1236 1.399 . S
C1241 C1240 1.394 . S
C1241 C1242 1.516 . S
C1242 C1241 1.516 . S
C1242 C1243 1.502 . S
C1242 C1244 1.561 . S
C1242 C1245 1.526 . S
C1243 H1227 0.959 . S
C1243 H1228 0.959 . S
C1243 H1229 0.961 . S
C1243 C1242 1.502 . S
C1244 H1230 0.960 . S
C1244 H1231 0.961 . S
C1244 H1232 0.959 . S
C1244 C1242 1.561 . S
C1245 C1242 1.526 . S
C1245 C1246 1.396 . S
C1245 C1250 1.390 . S
C1246 C1240 1.465 . S
C1246 C1245 1.396 . S
C1246 C1247 1.399 . S
C1247 H1233 0.929 . S
C1247 C1246 1.399 . S
C1247 C1248 1.385 . S
C1248 H1234 0.931 . S
C1248 C1247 1.385 . S
C1248 C1249 1.389 . S
C1249 C1248 1.389 . S
C1249 C1250 1.387 . S
C1250 H1235 0.930 . S
C1250 C1245 1.390 . S
C1250 C1249 1.387 . S
H1251 C1263 0.930 . S
H1252 C1265 0.930 . S
H1253 C1266 0.930 . S
H1254 C1270 0.959 . S
H1255 C1270 0.959 . S
H1256 C1270 0.961 . S
H1257 C1271 0.960 . S
H1258 C1271 0.961 . S
H1259 C1271 0.959 . S
H1260 C1274 0.929 . S
H1261 C1275 0.931 . S
H1262 C1277 0.930 . S
C1263 H1251 0.930 . S
C1263 C1264 1.399 . S
C1263 C1268 1.399 . S
C1264 C1263 1.399 . S
C1264 C1265 1.376 . S
C1265 H1252 0.930 . S
C1265 C1264 1.376 . S
C1265 C1266 1.388 . S
C1266 H1253 0.930 . S
C1266 C1265 1.388 . S
C1266 C1267 1.390 . S
C1267 C1266 1.390 . S
C1267 C1268 1.394 . S
C1267 C1273 1.465 . S
C1268 C1263 1.399 . S
C1268 C1267 1.394 . S
C1268 C1269 1.516 . S
C1269 C1268 1.516 . S
C1269 C1270 1.502 . S
C1269 C1271 1.561 . S
C1269 C1272 1.526 . S
C1270 H1254 0.959 . S
C1270 H1255 0.959 . S
C1270 H1256 0.961 . S
C1270 C1269 1.502 . S
C1271 H1257 0.960 . S
C1271 H1258 0.961 . S
C1271 H1259 0.959 . S
C1271 C1269 1.561 . S
C1272 C1269 1.526 . S
C1272 C1273 1.396 . S
C1272 C1277 1.390 . S
C1273 C1267 1.465 . S
C1273 C1272 1.396 . S
C1273 C1274 1.399 . S
C1274 H1260 0.929 . S
C1274 C1273 1.399 . S
C1274 C1275 1.385 . S
C1275 H1261 0.931 . S
C1275 C1274 1.385 . S
C1275 C1276 1.389 . S
C1276 C1275 1.389 . S
C1276 C1277 1.387 . S
C1277 H1262 0.930 . S
C1277 C1272 1.390 . S
C1277 C1276 1.387 . S
H1278 C1290 0.930 . S
H1279 C1292 0.930 . S
H1280 C1293 0.930 . S
H1281 C1297 0.959 . S
H1282 C1297 0.959 . S
H1283 C1297 0.961 . S
H1284 C1298 0.960 . S
H1285 C1298 0.961 . S
H1286 C1298 0.959 . S
H1287 C1301 0.929 . S
H1288 C1302 0.931 . S
H1289 C1304 0.930 . S
C1290 H1278 0.930 . S
C1290 C1291 1.399 . S
C1290 C1295 1.399 . S
C1291 C1290 1.399 . S
C1291 C1292 1.376 . S
C1292 H1279 0.930 . S
C1292 C1291 1.376 . S
C1292 C1293 1.388 . S
C1293 H1280 0.930 . S
C1293 C1292 1.388 . S
C1293 C1294 1.390 . S
C1294 C1293 1.390 . S
C1294 C1295 1.394 . S
C1294 C1300 1.465 . S
C1295 C1290 1.399 . S
C1295 C1294 1.394 . S
C1295 C1296 1.516 . S
C1296 C1295 1.516 . S
C1296 C1297 1.502 . S
C1296 C1298 1.561 . S
C1296 C1299 1.526 . S
C1297 H1281 0.959 . S
C1297 H1282 0.959 . S
C1297 H1283 0.961 . S
C1297 C1296 1.502 . S
C1298 H1284 0.960 . S
C1298 H1285 0.961 . S
C1298 H1286 0.959 . S
C1298 C1296 1.561 . S
C1299 C1296 1.526 . S
C1299 C1300 1.396 . S
C1299 C1304 1.390 . S
C1300 C1294 1.465 . S
C1300 C1299 1.396 . S
C1300 C1301 1.399 . S
C1301 H1287 0.929 . S
C1301 C1300 1.399 . S
C1301 C1302 1.385 . S
C1302 H1288 0.931 . S
C1302 C1301 1.385 . S
C1302 C1303 1.389 . S
C1303 C1302 1.389 . S
C1303 C1304 1.387 . S
C1304 H1289 0.930 . S
C1304 C1299 1.390 . S
C1304 C1303 1.387 . S
H1305 C1317 0.930 . S
H1306 C1319 0.930 . S
H1307 C1320 0.930 . S
H1308 C1324 0.959 . S
H1309 C1324 0.959 . S
H1310 C1324 0.961 . S
H1311 C1325 0.960 . S
H1312 C1325 0.961 . S
H1313 C1325 0.959 . S
H1314 C1328 0.929 . S
H1315 C1329 0.931 . S
H1316 C1331 0.930 . S
C1317 H1305 0.930 . S
C1317 C1318 1.399 . S
C1317 C1322 1.399 . S
C1318 C1317 1.399 . S
C1318 C1319 1.376 . S
C1319 H1306 0.930 . S
C1319 C1318 1.376 . S
C1319 C1320 1.388 . S
C1320 H1307 0.930 . S
C1320 C1319 1.388 . S
C1320 C1321 1.390 . S
C1321 C1320 1.390 . S
C1321 C1322 1.394 . S
C1321 C1327 1.465 . S
C1322 C1317 1.399 . S
C1322 C1321 1.394 . S
C1322 C1323 1.516 . S
C1323 C1322 1.516 . S
C1323 C1324 1.502 . S
C1323 C1325 1.561 . S
C1323 C1326 1.526 . S
C1324 H1308 0.959 . S
C1324 H1309 0.959 . S
C1324 H1310 0.961 . S
C1324 C1323 1.502 . S
C1325 H1311 0.960 . S
C1325 H1312 0.961 . S
C1325 H1313 0.959 . S
C1325 C1323 1.561 . S
C1326 C1323 1.526 . S
C1326 C1327 1.396 . S
C1326 C1331 1.390 . S
C1327 C1321 1.465 . S
C1327 C1326 1.396 . S
C1327 C1328 1.399 . S
C1328 H1314 0.929 . S
C1328 C1327 1.399 . S
C1328 C1329 1.385 . S
C1329 H1315 0.931 . S
C1329 C1328 1.385 . S
C1329 C1330 1.389 . S
C1330 C1329 1.389 . S
C1330 C1331 1.387 . S
C1331 H1316 0.930 . S
C1331 C1326 1.390 . S
C1331 C1330 1.387 . S
H1332 C1344 0.930 . S
H1333 C1346 0.930 . S
H1334 C1347 0.930 . S
H1335 C1351 0.959 . S
H1336 C1351 0.959 . S
H1337 C1351 0.961 . S
H1338 C1352 0.960 . S
H1339 C1352 0.961 . S
H1340 C1352 0.959 . S
H1341 C1355 0.929 . S
H1342 C1356 0.931 . S
H1343 C1358 0.930 . S
C1344 H1332 0.930 . S
C1344 C1345 1.399 . S
C1344 C1349 1.399 . S
C1345 C1344 1.399 . S
C1345 C1346 1.376 . S
C1346 H1333 0.930 . S
C1346 C1345 1.376 . S
C1346 C1347 1.388 . S
C1347 H1334 0.930 . S
C1347 C1346 1.388 . S
C1347 C1348 1.390 . S
C1348 C1347 1.390 . S
C1348 C1349 1.394 . S
C1348 C1354 1.465 . S
C1349 C1344 1.399 . S
C1349 C1348 1.394 . S
C1349 C1350 1.516 . S
C1350 C1349 1.516 . S
C1350 C1351 1.502 . S
C1350 C1352 1.561 . S
C1350 C1353 1.526 . S
C1351 H1335 0.959 . S
C1351 H1336 0.959 . S
C1351 H1337 0.961 . S
C1351 C1350 1.502 . S
C1352 H1338 0.960 . S
C1352 H1339 0.961 . S
C1352 H1340 0.959 . S
C1352 C1350 1.561 . S
C1353 C1350 1.526 . S
C1353 C1354 1.396 . S
C1353 C1358 1.390 . S
C1354 C1348 1.465 . S
C1354 C1353 1.396 . S
C1354 C1355 1.399 . S
C1355 H1341 0.929 . S
C1355 C1354 1.399 . S
C1355 C1356 1.385 . S
C1356 H1342 0.931 . S
C1356 C1355 1.385 . S
C1356 C1357 1.389 . S
C1357 C1356 1.389 . S
C1357 C1358 1.387 . S
C1358 H1343 0.930 . S
C1358 C1353 1.390 . S
C1358 C1357 1.387 . S
H1359 C1371 0.930 . S
H1360 C1373 0.930 . S
H1361 C1374 0.930 . S
H1362 C1378 0.959 . S
H1363 C1378 0.959 . S
H1364 C1378 0.961 . S
H1365 C1379 0.960 . S
H1366 C1379 0.961 . S
H1367 C1379 0.959 . S
H1368 C1382 0.929 . S
H1369 C1383 0.931 . S
H1370 C1385 0.930 . S
C1371 H1359 0.930 . S
C1371 C1372 1.399 . S
C1371 C1376 1.399 . S
C1372 C1371 1.399 . S
C1372 C1373 1.376 . S
C1373 H1360 0.930 . S
C1373 C1372 1.376 . S
C1373 C1374 1.388 . S
C1374 H1361 0.930 . S
C1374 C1373 1.388 . S
C1374 C1375 1.390 . S
C1375 C1374 1.390 . S
C1375 C1376 1.394 . S
C1375 C1381 1.465 . S
C1376 C1371 1.399 . S
C1376 C1375 1.394 . S
C1376 C1377 1.516 . S
C1377 C1376 1.516 . S
C1377 C1378 1.502 . S
C1377 C1379 1.561 . S
C1377 C1380 1.526 . S
C1378 H1362 0.959 . S
C1378 H1363 0.959 . S
C1378 H1364 0.961 . S
C1378 C1377 1.502 . S
C1379 H1365 0.960 . S
C1379 H1366 0.961 . S
C1379 H1367 0.959 . S
C1379 C1377 1.561 . S
C1380 C1377 1.526 . S
C1380 C1381 1.396 . S
C1380 C1385 1.390 . S
C1381 C1375 1.465 . S
C1381 C1380 1.396 . S
C1381 C1382 1.399 . S
C1382 H1368 0.929 . S
C1382 C1381 1.399 . S
C1382 C1383 1.385 . S
C1383 H1369 0.931 . S
C1383 C1382 1.385 . S
C1383 C1384 1.389 . S
C1384 C1383 1.389 . S
C1384 C1385 1.387 . S
C1385 H1370 0.930 . S
C1385 C1380 1.390 . S
C1385 C1384 1.387 . S
H1386 C1398 0.930 . S
H1387 C1400 0.930 . S
H1388 C1401 0.930 . S
H1389 C1405 0.959 . S
H1390 C1405 0.959 . S
H1391 C1405 0.961 . S
H1392 C1406 0.960 . S
H1393 C1406 0.961 . S
H1394 C1406 0.959 . S
H1395 C1409 0.929 . S
H1396 C1410 0.931 . S
H1397 C1412 0.930 . S
C1398 H1386 0.930 . S
C1398 C1399 1.399 . S
C1398 C1403 1.399 . S
C1399 C1398 1.399 . S
C1399 C1400 1.376 . S
C1400 H1387 0.930 . S
C1400 C1399 1.376 . S
C1400 C1401 1.388 . S
C1401 H1388 0.930 . S
C1401 C1400 1.388 . S
C1401 C1402 1.390 . S
C1402 C1401 1.390 . S
C1402 C1403 1.394 . S
C1402 C1408 1.465 . S
C1403 C1398 1.399 . S
C1403 C1402 1.394 . S
C1403 C1404 1.516 . S
C1404 C1403 1.516 . S
C1404 C1405 1.502 . S
C1404 C1406 1.561 . S
C1404 C1407 1.526 . S
C1405 H1389 0.959 . S
C1405 H1390 0.959 . S
C1405 H1391 0.961 . S
C1405 C1404 1.502 . S
C1406 H1392 0.960 . S
C1406 H1393 0.961 . S
C1406 H1394 0.959 . S
C1406 C1404 1.561 . S
C1407 C1404 1.526 . S
C1407 C1408 1.396 . S
C1407 C1412 1.390 . S
C1408 C1402 1.465 . S
C1408 C1407 1.396 . S
C1408 C1409 1.399 . S
C1409 H1395 0.929 . S
C1409 C1408 1.399 . S
C1409 C1410 1.385 . S
C1410 H1396 0.931 . S
C1410 C1409 1.385 . S
C1410 C1411 1.389 . S
C1411 C1410 1.389 . S
C1411 C1412 1.387 . S
C1412 H1397 0.930 . S
C1412 C1407 1.390 . S
C1412 C1411 1.387 . S
H1413 C1425 0.930 . S
H1414 C1427 0.930 . S
H1415 C1428 0.930 . S
H1416 C1432 0.959 . S
H1417 C1432 0.959 . S
H1418 C1432 0.961 . S
H1419 C1433 0.960 . S
H1420 C1433 0.961 . S
H1421 C1433 0.959 . S
H1422 C1436 0.929 . S
H1423 C1437 0.931 . S
H1424 C1439 0.930 . S
C1425 H1413 0.930 . S
C1425 C1426 1.399 . S
C1425 C1430 1.399 . S
C1426 C1425 1.399 . S
C1426 C1427 1.376 . S
C1427 H1414 0.930 . S
C1427 C1426 1.376 . S
C1427 C1428 1.388 . S
C1428 H1415 0.930 . S
C1428 C1427 1.388 . S
C1428 C1429 1.390 . S
C1429 C1428 1.390 . S
C1429 C1430 1.394 . S
C1429 C1435 1.465 . S
C1430 C1425 1.399 . S
C1430 C1429 1.394 . S
C1430 C1431 1.516 . S
C1431 C1430 1.516 . S
C1431 C1432 1.502 . S
C1431 C1433 1.561 . S
C1431 C1434 1.526 . S
C1432 H1416 0.959 . S
C1432 H1417 0.959 . S
C1432 H1418 0.961 . S
C1432 C1431 1.502 . S
C1433 H1419 0.960 . S
C1433 H1420 0.961 . S
C1433 H1421 0.959 . S
C1433 C1431 1.561 . S
C1434 C1431 1.526 . S
C1434 C1435 1.396 . S
C1434 C1439 1.390 . S
C1435 C1429 1.465 . S
C1435 C1434 1.396 . S
C1435 C1436 1.399 . S
C1436 H1422 0.929 . S
C1436 C1435 1.399 . S
C1436 C1437 1.385 . S
C1437 H1423 0.931 . S
C1437 C1436 1.385 . S
C1437 C1438 1.389 . S
C1438 C1437 1.389 . S
C1438 C1439 1.387 . S
C1439 H1424 0.930 . S
C1439 C1434 1.390 . S
C1439 C1438 1.387 . S
H1440 C1452 0.930 . S
H1441 C1454 0.930 . S
H1442 C1455 0.930 . S
H1443 C1459 0.959 . S
H1444 C1459 0.959 . S
H1445 C1459 0.961 . S
H1446 C1460 0.960 . S
H1447 C1460 0.961 . S
H1448 C1460 0.959 . S
H1449 C1463 0.929 . S
H1450 C1464 0.931 . S
H1451 C1466 0.930 . S
C1452 H1440 0.930 . S
C1452 C1453 1.399 . S
C1452 C1457 1.399 . S
C1453 C1452 1.399 . S
C1453 C1454 1.376 . S
C1454 H1441 0.930 . S
C1454 C1453 1.376 . S
C1454 C1455 1.388 . S
C1455 H1442 0.930 . S
C1455 C1454 1.388 . S
C1455 C1456 1.390 . S
C1456 C1455 1.390 . S
C1456 C1457 1.394 . S
C1456 C1462 1.465 . S
C1457 C1452 1.399 . S
C1457 C1456 1.394 . S
C1457 C1458 1.516 . S
C1458 C1457 1.516 . S
C1458 C1459 1.502 . S
C1458 C1460 1.561 . S
C1458 C1461 1.526 . S
C1459 H1443 0.959 . S
C1459 H1444 0.959 . S
C1459 H1445 0.961 . S
C1459 C1458 1.502 . S
C1460 H1446 0.960 . S
C1460 H1447 0.961 . S
C1460 H1448 0.959 . S
C1460 C1458 1.561 . S
C1461 C1458 1.526 . S
C1461 C1462 1.396 . S
C1461 C1466 1.390 . S
C1462 C1456 1.465 . S
C1462 C1461 1.396 . S
C1462 C1463 1.399 . S
C1463 H1449 0.929 . S
C1463 C1462 1.399 . S
C1463 C1464 1.385 . S
C1464 H1450 0.931 . S
C1464 C1463 1.385 . S
C1464 C1465 1.389 . S
C1465 C1464 1.389 . S
C1465 C1466 1.387 . S
C1466 H1451 0.930 . S
C1466 C1461 1.390 . S
C1466 C1465 1.387 . S
H1467 C1479 0.930 . S
H1468 C1481 0.930 . S
H1469 C1482 0.930 . S
H1470 C1486 0.959 . S
H1471 C1486 0.959 . S
H1472 C1486 0.961 . S
H1473 C1487 0.960 . S
H1474 C1487 0.961 . S
H1475 C1487 0.959 . S
H1476 C1490 0.929 . S
H1477 C1491 0.931 . S
H1478 C1493 0.930 . S
C1479 H1467 0.930 . S
C1479 C1480 1.399 . S
C1479 C1484 1.399 . S
C1480 C1479 1.399 . S
C1480 C1481 1.376 . S
C1481 H1468 0.930 . S
C1481 C1480 1.376 . S
C1481 C1482 1.388 . S
C1482 H1469 0.930 . S
C1482 C1481 1.388 . S
C1482 C1483 1.390 . S
C1483 C1482 1.390 . S
C1483 C1484 1.394 . S
C1483 C1489 1.465 . S
C1484 C1479 1.399 . S
C1484 C1483 1.394 . S
C1484 C1485 1.516 . S
C1485 C1484 1.516 . S
C1485 C1486 1.502 . S
C1485 C1487 1.561 . S
C1485 C1488 1.526 . S
C1486 H1470 0.959 . S
C1486 H1471 0.959 . S
C1486 H1472 0.961 . S
C1486 C1485 1.502 . S
C1487 H1473 0.960 . S
C1487 H1474 0.961 . S
C1487 H1475 0.959 . S
C1487 C1485 1.561 . S
C1488 C1485 1.526 . S
C1488 C1489 1.396 . S
C1488 C1493 1.390 . S
C1489 C1483 1.465 . S
C1489 C1488 1.396 . S
C1489 C1490 1.399 . S
C1490 H1476 0.929 . S
C1490 C1489 1.399 . S
C1490 C1491 1.385 . S
C1491 H1477 0.931 . S
C1491 C1490 1.385 . S
C1491 C1492 1.389 . S
C1492 C1491 1.389 . S
C1492 C1493 1.387 . S
C1493 H1478 0.930 . S
C1493 C1488 1.390 . S
C1493 C1492 1.387 . S
H1494 C1506 0.930 . S
H1495 C1508 0.930 . S
H1496 C1509 0.930 . S
H1497 C1513 0.959 . S
H1498 C1513 0.959 . S
H1499 C1513 0.961 . S
H1500 C1514 0.960 . S
H1501 C1514 0.961 . S
H1502 C1514 0.959 . S
H1503 C1517 0.929 . S
H1504 C1518 0.931 1_556 S
H1505 C1520 0.930 . S
C1506 H1494 0.930 . S
C1506 C1507 1.399 . S
C1506 C1511 1.399 . S
C1507 C1506 1.399 . S
C1507 C1508 1.376 . S
C1508 H1495 0.930 . S
C1508 C1507 1.376 . S
C1508 C1509 1.388 . S
C1509 H1496 0.930 . S
C1509 C1508 1.388 . S
C1509 C1510 1.390 . S
C1510 C1509 1.390 . S
C1510 C1511 1.394 . S
C1510 C1516 1.465 . S
C1511 C1506 1.399 . S
C1511 C1510 1.394 . S
C1511 C1512 1.516 . S
C1512 C1511 1.516 . S
C1512 C1513 1.502 . S
C1512 C1514 1.561 . S
C1512 C1515 1.526 . S
C1513 H1497 0.959 . S
C1513 H1498 0.959 . S
C1513 H1499 0.961 . S
C1513 C1512 1.502 . S
C1514 H1500 0.960 . S
C1514 H1501 0.961 . S
C1514 H1502 0.959 . S
C1514 C1512 1.561 . S
C1515 C1512 1.526 . S
C1515 C1516 1.396 . S
C1515 C1520 1.390 . S
C1516 C1510 1.465 . S
C1516 C1515 1.396 . S
C1516 C1517 1.399 . S
C1517 H1503 0.929 . S
C1517 C1516 1.399 . S
C1517 C1518 1.385 . S
C1518 H1504 0.931 1_554 S
C1518 C1517 1.385 . S
C1518 C1519 1.389 . S
C1519 C1518 1.389 . S
C1519 C1520 1.387 . S
C1520 H1505 0.930 . S
C1520 C1515 1.390 . S
C1520 C1519 1.387 . S
H1521 C1533 0.930 . S
H1522 C1535 0.930 . S
H1523 C1536 0.930 . S
H1524 C1540 0.959 . S
H1525 C1540 0.959 . S
H1526 C1540 0.961 . S
H1527 C1541 0.960 . S
H1528 C1541 0.961 . S
H1529 C1541 0.959 . S
H1530 C1544 0.929 . S
H1531 C1545 0.931 . S
H1532 C1547 0.866 1_556 S
C1533 H1521 0.930 . S
C1533 C1534 1.399 . S
C1533 C1538 1.399 . S
C1534 C1533 1.399 . S
C1534 C1535 1.376 . S
C1535 H1522 0.930 . S
C1535 C1534 1.376 . S
C1535 C1536 1.388 . S
C1536 H1523 0.930 . S
C1536 C1535 1.388 . S
C1536 C1537 1.390 . S
C1537 C1536 1.390 . S
C1537 C1538 1.394 . S
C1537 C1543 1.465 . S
C1538 C1533 1.399 . S
C1538 C1537 1.394 . S
C1538 C1539 1.516 . S
C1539 C1538 1.516 . S
C1539 C1540 1.502 . S
C1539 C1541 1.561 . S
C1539 C1542 1.526 . S
C1540 H1524 0.959 . S
C1540 H1525 0.959 . S
C1540 H1526 0.961 . S
C1540 C1539 1.502 . S
C1541 H1527 0.960 . S
C1541 H1528 0.961 . S
C1541 H1529 0.959 . S
C1541 C1539 1.561 . S
C1542 C1539 1.526 . S
C1542 C1543 1.396 . S
C1542 C1547 1.390 . S
C1543 C1537 1.465 . S
C1543 C1542 1.396 . S
C1543 C1544 1.399 . S
C1544 H1530 0.929 . S
C1544 C1543 1.399 . S
C1544 C1545 1.385 . S
C1545 H1531 0.931 . S
C1545 C1544 1.385 . S
C1545 C1546 1.389 . S
C1546 C1545 1.389 . S
C1546 C1547 1.387 . S
C1547 H1532 0.866 1_554 S
C1547 C1542 1.390 . S
C1547 C1546 1.387 . S
H1548 C1560 0.930 . S
H1549 C1562 0.930 . S
H1550 C1563 0.930 . S
H1551 C1567 0.959 . S
H1552 C1567 0.959 . S
H1553 C1567 0.961 . S
H1554 C1568 0.960 . S
H1555 C1568 0.961 . S
H1556 C1568 0.959 . S
H1557 C1571 0.929 . S
H1558 C1572 0.931 . S
H1559 C1574 0.930 . S
C1560 H1548 0.930 . S
C1560 C1561 1.399 . S
C1560 C1565 1.399 . S
C1561 C1560 1.399 . S
C1561 C1562 1.376 . S
C1562 H1549 0.930 . S
C1562 C1561 1.376 . S
C1562 C1563 1.388 . S
C1563 H1550 0.930 . S
C1563 C1562 1.388 . S
C1563 C1564 1.390 . S
C1564 C1563 1.390 . S
C1564 C1565 1.394 . S
C1564 C1570 1.465 . S
C1565 C1560 1.399 . S
C1565 C1564 1.394 . S
C1565 C1566 1.516 . S
C1566 C1565 1.516 . S
C1566 C1567 1.502 . S
C1566 C1568 1.561 . S
C1566 C1569 1.526 . S
C1567 H1551 0.959 . S
C1567 H1552 0.959 . S
C1567 H1553 0.961 . S
C1567 C1566 1.502 . S
C1568 H1554 0.960 . S
C1568 H1555 0.961 . S
C1568 H1556 0.959 . S
C1568 C1566 1.561 . S
C1569 C1566 1.526 . S
C1569 C1570 1.396 . S
C1569 C1574 1.390 . S
C1570 C1564 1.465 . S
C1570 C1569 1.396 . S
C1570 C1571 1.399 . S
C1571 H1557 0.929 . S
C1571 C1570 1.399 . S
C1571 C1572 1.385 . S
C1572 H1558 0.931 . S
C1572 C1571 1.385 . S
C1572 C1573 1.389 . S
C1573 C1572 1.389 . S
C1573 C1574 1.387 . S
C1574 H1559 0.930 . S
C1574 C1569 1.390 . S
C1574 C1573 1.387 . S
H1575 C1587 0.930 . S
H1576 C1589 0.930 . S
H1577 C1590 0.930 . S
H1578 C1594 0.959 . S
H1579 C1594 0.959 . S
H1580 C1594 0.961 . S
H1581 C1595 0.960 . S
H1582 C1595 0.961 . S
H1583 C1595 0.959 . S
H1584 C1598 0.929 . S
H1585 C1599 0.931 . S
H1586 C1601 0.930 . S
C1587 H1575 0.930 . S
C1587 C1588 1.399 . S
C1587 C1592 1.399 . S
C1588 C1587 1.399 . S
C1588 C1589 1.376 . S
C1589 H1576 0.930 . S
C1589 C1588 1.376 . S
C1589 C1590 1.388 . S
C1590 H1577 0.930 . S
C1590 C1589 1.388 . S
C1590 C1591 1.390 . S
C1591 C1590 1.390 . S
C1591 C1592 1.394 . S
C1591 C1597 1.465 . S
C1592 C1587 1.399 . S
C1592 C1591 1.394 . S
C1592 C1593 1.516 . S
C1593 C1592 1.516 . S
C1593 C1594 1.502 . S
C1593 C1595 1.561 . S
C1593 C1596 1.526 . S
C1594 H1578 0.959 . S
C1594 H1579 0.959 . S
C1594 H1580 0.961 . S
C1594 C1593 1.502 . S
C1595 H1581 0.960 . S
C1595 H1582 0.961 . S
C1595 H1583 0.959 . S
C1595 C1593 1.561 . S
C1596 C1593 1.526 . S
C1596 C1597 1.396 . S
C1596 C1601 1.390 . S
C1597 C1591 1.465 . S
C1597 C1596 1.396 . S
C1597 C1598 1.399 . S
C1598 H1584 0.929 . S
C1598 C1597 1.399 . S
C1598 C1599 1.385 . S
C1599 H1585 0.931 . S
C1599 C1598 1.385 . S
C1599 C1600 1.389 . S
C1600 C1599 1.389 . S
C1600 C1601 1.387 . S
C1601 H1586 0.930 . S
C1601 C1596 1.390 . S
C1601 C1600 1.387 . S
H1602 C1614 0.930 . S
H1603 C1616 0.930 . S
H1604 C1617 0.930 . S
H1605 C1621 0.959 . S
H1606 C1621 0.959 . S
H1607 C1621 0.961 . S
H1608 C1622 0.960 . S
H1609 C1622 0.961 . S
H1610 C1622 0.959 . S
H1611 C1625 0.929 . S
H1612 C1626 0.931 . S
H1613 C1628 0.930 . S
C1614 H1602 0.930 . S
C1614 C1615 1.399 . S
C1614 C1619 1.399 . S
C1615 C1614 1.399 . S
C1615 C1616 1.376 . S
C1616 H1603 0.930 . S
C1616 C1615 1.376 . S
C1616 C1617 1.388 . S
C1617 H1604 0.930 . S
C1617 C1616 1.388 . S
C1617 C1618 1.390 . S
C1618 C1617 1.390 . S
C1618 C1619 1.394 . S
C1618 C1624 1.465 . S
C1619 C1614 1.399 . S
C1619 C1618 1.394 . S
C1619 C1620 1.516 . S
C1620 C1619 1.516 . S
C1620 C1621 1.502 . S
C1620 C1622 1.561 . S
C1620 C1623 1.526 . S
C1621 H1605 0.959 . S
C1621 H1606 0.959 . S
C1621 H1607 0.961 . S
C1621 C1620 1.502 . S
C1622 H1608 0.960 . S
C1622 H1609 0.961 . S
C1622 H1610 0.959 . S
C1622 C1620 1.561 . S
C1623 C1620 1.526 . S
C1623 C1624 1.396 . S
C1623 C1628 1.390 . S
C1624 C1618 1.465 . S
C1624 C1623 1.396 . S
C1624 C1625 1.399 . S
C1625 H1611 0.929 . S
C1625 C1624 1.399 . S
C1625 C1626 1.385 . S
C1626 H1612 0.931 . S
C1626 C1625 1.385 . S
C1626 C1627 1.389 . S
C1627 C1626 1.389 . S
C1627 C1628 1.387 . S
C1628 H1613 0.930 . S
C1628 C1623 1.390 . S
C1628 C1627 1.387 . S
H1629 C1641 0.930 . S
H1630 C1643 0.930 . S
H1631 C1644 0.930 . S
H1632 C1648 0.959 . S
H1633 C1648 0.959 . S
H1634 C1648 0.961 . S
H1635 C1649 0.960 . S
H1636 C1649 0.961 . S
H1637 C1649 0.959 . S
H1638 C1652 0.929 . S
H1639 C1653 0.931 1_554 S
H1640 C1655 0.930 . S
C1641 H1629 0.930 . S
C1641 C1642 1.399 . S
C1641 C1646 1.399 . S
C1642 C1641 1.399 . S
C1642 C1643 1.376 . S
C1643 H1630 0.930 . S
C1643 C1642 1.376 . S
C1643 C1644 1.388 . S
C1644 H1631 0.930 . S
C1644 C1643 1.388 . S
C1644 C1645 1.390 . S
C1645 C1644 1.390 . S
C1645 C1646 1.394 . S
C1645 C1651 1.465 . S
C1646 C1641 1.399 . S
C1646 C1645 1.394 . S
C1646 C1647 1.516 . S
C1647 C1646 1.516 . S
C1647 C1648 1.502 . S
C1647 C1649 1.561 . S
C1647 C1650 1.526 . S
C1648 H1632 0.959 . S
C1648 H1633 0.959 . S
C1648 H1634 0.961 . S
C1648 C1647 1.502 . S
C1649 H1635 0.960 . S
C1649 H1636 0.961 . S
C1649 H1637 0.959 . S
C1649 C1647 1.561 . S
C1650 C1647 1.526 . S
C1650 C1651 1.396 . S
C1650 C1655 1.390 . S
C1651 C1645 1.465 . S
C1651 C1650 1.396 . S
C1651 C1652 1.399 . S
C1652 H1638 0.929 . S
C1652 C1651 1.399 . S
C1652 C1653 1.385 . S
C1653 H1639 0.931 1_556 S
C1653 C1652 1.385 . S
C1653 C1654 1.389 . S
C1654 C1653 1.389 . S
C1654 C1655 1.387 . S
C1655 H1640 0.930 . S
C1655 C1650 1.390 . S
C1655 C1654 1.387 . S
H1656 C1668 0.930 . S
H1657 C1670 0.930 . S
H1658 C1671 0.930 . S
H1659 C1675 0.959 . S
H1660 C1675 0.959 . S
H1661 C1675 0.961 . S
H1662 C1676 0.960 . S
H1663 C1676 0.961 . S
H1664 C1676 0.959 . S
H1665 C1679 0.929 . S
H1666 C1680 0.931 . S
H1667 C1682 0.930 . S
C1668 H1656 0.930 . S
C1668 C1669 1.399 . S
C1668 C1673 1.399 . S
C1669 C1668 1.399 . S
C1669 C1670 1.376 . S
C1670 H1657 0.930 . S
C1670 C1669 1.376 . S
C1670 C1671 1.388 . S
C1671 H1658 0.930 . S
C1671 C1670 1.388 . S
C1671 C1672 1.390 . S
C1672 C1671 1.390 . S
C1672 C1673 1.394 . S
C1672 C1678 1.465 . S
C1673 C1668 1.399 . S
C1673 C1672 1.394 . S
C1673 C1674 1.516 . S
C1674 C1673 1.516 . S
C1674 C1675 1.502 . S
C1674 C1676 1.561 . S
C1674 C1677 1.526 . S
C1675 H1659 0.959 . S
C1675 H1660 0.959 . S
C1675 H1661 0.961 . S
C1675 C1674 1.502 . S
C1676 H1662 0.960 . S
C1676 H1663 0.961 . S
C1676 H1664 0.959 . S
C1676 C1674 1.561 . S
C1677 C1674 1.526 . S
C1677 C1678 1.396 . S
C1677 C1682 1.390 . S
C1678 C1672 1.465 . S
C1678 C1677 1.396 . S
C1678 C1679 1.399 . S
C1679 H1665 0.929 . S
C1679 C1678 1.399 . S
C1679 C1680 1.385 . S
C1680 H1666 0.931 . S
C1680 C1679 1.385 . S
C1680 C1681 1.389 . S
C1681 C1680 1.389 . S
C1681 C1682 1.387 . S
C1682 H1667 0.930 . S
C1682 C1677 1.390 . S
C1682 C1681 1.387 . S
H1683 C1695 0.930 . S
H1684 C1697 0.930 . S
H1685 C1698 0.930 . S
H1686 C1702 0.959 . S
H1687 C1702 0.959 . S
H1688 C1702 0.961 . S
H1689 C1703 0.960 . S
H1690 C1703 0.961 . S
H1691 C1703 0.959 . S
H1692 C1706 0.929 . S
H1693 C1707 0.946 . S
H1694 C1709 0.930 . S
C1695 H1683 0.930 . S
C1695 C1696 1.399 . S
C1695 C1700 1.399 . S
C1696 C1695 1.399 . S
C1696 C1697 1.376 . S
C1697 H1684 0.930 . S
C1697 C1696 1.376 . S
C1697 C1698 1.388 . S
C1698 H1685 0.930 . S
C1698 C1697 1.388 . S
C1698 C1699 1.390 . S
C1699 C1698 1.390 . S
C1699 C1700 1.394 . S
C1699 C1705 1.465 . S
C1700 C1695 1.399 . S
C1700 C1699 1.394 . S
C1700 C1701 1.516 . S
C1701 C1700 1.516 . S
C1701 C1702 1.502 . S
C1701 C1703 1.561 . S
C1701 C1704 1.526 . S
C1702 H1686 0.959 . S
C1702 H1687 0.959 . S
C1702 H1688 0.961 . S
C1702 C1701 1.502 . S
C1703 H1689 0.960 . S
C1703 H1690 0.961 . S
C1703 H1691 0.959 . S
C1703 C1701 1.561 . S
C1704 C1701 1.526 . S
C1704 C1705 1.396 . S
C1704 C1709 1.390 . S
C1705 C1699 1.465 . S
C1705 C1704 1.396 . S
C1705 C1706 1.399 . S
C1706 H1692 0.929 . S
C1706 C1705 1.399 . S
C1706 C1707 1.377 1_556 S
C1707 H1693 0.946 . S
C1707 C1706 1.377 1_554 S
C1707 C1708 1.383 1_554 S
C1708 C1707 1.383 1_556 S
C1708 C1709 1.387 . S
C1709 H1694 0.930 . S
C1709 C1704 1.390 . S
C1709 C1708 1.387 . S
H1710 C1722 0.930 . S
H1711 C1724 0.930 . S
H1712 C1725 0.930 . S
H1713 C1729 0.959 . S
H1714 C1729 0.959 . S
H1715 C1729 0.961 . S
H1716 C1730 0.960 . S
H1717 C1730 0.961 . S
H1718 C1730 0.959 . S
H1719 C1733 0.929 . S
H1720 C1734 0.931 . S
H1721 C1736 0.930 . S
C1722 H1710 0.930 . S
C1722 C1723 1.399 . S
C1722 C1727 1.399 . S
C1723 C1722 1.399 . S
C1723 C1724 1.376 . S
C1724 H1711 0.930 . S
C1724 C1723 1.376 . S
C1724 C1725 1.388 . S
C1725 H1712 0.930 . S
C1725 C1724 1.388 . S
C1725 C1726 1.390 . S
C1726 C1725 1.390 . S
C1726 C1727 1.394 . S
C1726 C1732 1.465 . S
C1727 C1722 1.399 . S
C1727 C1726 1.394 . S
C1727 C1728 1.516 . S
C1728 C1727 1.516 . S
C1728 C1729 1.502 . S
C1728 C1730 1.561 . S
C1728 C1731 1.526 . S
C1729 H1713 0.959 . S
C1729 H1714 0.959 . S
C1729 H1715 0.961 . S
C1729 C1728 1.502 . S
C1730 H1716 0.960 . S
C1730 H1717 0.961 . S
C1730 H1718 0.959 . S
C1730 C1728 1.561 . S
C1731 C1728 1.526 . S
C1731 C1732 1.396 . S
C1731 C1736 1.390 . S
C1732 C1726 1.465 . S
C1732 C1731 1.396 . S
C1732 C1733 1.399 . S
C1733 H1719 0.929 . S
C1733 C1732 1.399 . S
C1733 C1734 1.385 . S
C1734 H1720 0.931 . S
C1734 C1733 1.385 . S
C1734 C1735 1.389 . S
C1735 C1734 1.389 . S
C1735 C1736 1.387 . S
C1736 H1721 0.930 . S
C1736 C1731 1.390 . S
C1736 C1735 1.387 . S
H1737 C1749 0.930 . S
H1738 C1751 0.930 . S
H1739 C1752 0.930 . S
H1740 C1756 0.959 . S
H1741 C1756 0.959 . S
H1742 C1756 0.961 . S
H1743 C1757 0.960 . S
H1744 C1757 0.961 . S
H1745 C1757 0.959 . S
H1746 C1760 0.929 . S
H1747 C1761 0.931 . S
H1748 C1763 0.930 . S
C1749 H1737 0.930 . S
C1749 C1750 1.399 . S
C1749 C1754 1.399 . S
C1750 C1749 1.399 . S
C1750 C1751 1.376 . S
C1751 H1738 0.930 . S
C1751 C1750 1.376 . S
C1751 C1752 1.388 . S
C1752 H1739 0.930 . S
C1752 C1751 1.388 . S
C1752 C1753 1.390 . S
C1753 C1752 1.390 . S
C1753 C1754 1.394 . S
C1753 C1759 1.465 . S
C1754 C1749 1.399 . S
C1754 C1753 1.394 . S
C1754 C1755 1.516 . S
C1755 C1754 1.516 . S
C1755 C1756 1.502 . S
C1755 C1757 1.561 . S
C1755 C1758 1.526 . S
C1756 H1740 0.959 . S
C1756 H1741 0.959 . S
C1756 H1742 0.961 . S
C1756 C1755 1.502 . S
C1757 H1743 0.960 . S
C1757 H1744 0.961 . S
C1757 H1745 0.959 . S
C1757 C1755 1.561 . S
C1758 C1755 1.526 . S
C1758 C1759 1.396 . S
C1758 C1763 1.390 . S
C1759 C1753 1.465 . S
C1759 C1758 1.396 . S
C1759 C1760 1.399 . S
C1760 H1746 0.929 . S
C1760 C1759 1.399 . S
C1760 C1761 1.385 . S
C1761 H1747 0.931 . S
C1761 C1760 1.385 . S
C1761 C1762 1.389 . S
C1762 C1761 1.389 . S
C1762 C1763 1.387 . S
C1763 H1748 0.930 . S
C1763 C1758 1.390 . S
C1763 C1762 1.387 . S
H1764 C1776 0.930 . S
H1765 C1778 0.930 . S
H1766 C1779 0.930 . S
H1767 C1783 0.959 . S
H1768 C1783 0.959 . S
H1769 C1783 0.961 . S
H1770 C1784 0.960 . S
H1771 C1784 0.961 . S
H1772 C1784 0.959 . S
H1773 C1787 0.929 . S
H1774 C1788 0.931 . S
H1775 C1790 0.930 . S
C1776 H1764 0.930 . S
C1776 C1777 1.399 . S
C1776 C1781 1.399 . S
C1777 C1776 1.399 . S
C1777 C1778 1.376 . S
C1778 H1765 0.930 . S
C1778 C1777 1.376 . S
C1778 C1779 1.388 . S
C1779 H1766 0.930 . S
C1779 C1778 1.388 . S
C1779 C1780 1.390 . S
C1780 C1779 1.390 . S
C1780 C1781 1.394 . S
C1780 C1786 1.465 . S
C1781 C1776 1.399 . S
C1781 C1780 1.394 . S
C1781 C1782 1.516 . S
C1782 C1781 1.516 . S
C1782 C1783 1.502 . S
C1782 C1784 1.561 . S
C1782 C1785 1.526 . S
C1783 H1767 0.959 . S
C1783 H1768 0.959 . S
C1783 H1769 0.961 . S
C1783 C1782 1.502 . S
C1784 H1770 0.960 . S
C1784 H1771 0.961 . S
C1784 H1772 0.959 . S
C1784 C1782 1.561 . S
C1785 C1782 1.526 . S
C1785 C1786 1.396 . S
C1785 C1790 1.390 . S
C1786 C1780 1.465 . S
C1786 C1785 1.396 . S
C1786 C1787 1.399 . S
C1787 H1773 0.929 . S
C1787 C1786 1.399 . S
C1787 C1788 1.385 . S
C1788 H1774 0.931 . S
C1788 C1787 1.385 . S
C1788 C1789 1.389 . S
C1789 C1788 1.389 . S
C1789 C1790 1.387 . S
C1790 H1775 0.930 . S
C1790 C1785 1.390 . S
C1790 C1789 1.387 . S
H1791 C1803 0.930 . S
H1792 C1805 0.930 . S
H1793 C1806 0.930 . S
H1794 C1810 0.959 . S
H1795 C1810 0.959 . S
H1796 C1810 0.961 . S
H1797 C1811 0.960 . S
H1798 C1811 0.961 . S
H1799 C1811 0.959 . S
H1800 C1814 0.929 . S
H1801 C1815 0.931 . S
H1802 C1817 0.930 . S
C1803 H1791 0.930 . S
C1803 C1804 1.399 . S
C1803 C1808 1.399 . S
C1804 C1803 1.399 . S
C1804 C1805 1.376 . S
C1805 H1792 0.930 . S
C1805 C1804 1.376 . S
C1805 C1806 1.388 . S
C1806 H1793 0.930 . S
C1806 C1805 1.388 . S
C1806 C1807 1.390 . S
C1807 C1806 1.390 . S
C1807 C1808 1.394 . S
C1807 C1813 1.465 . S
C1808 C1803 1.399 . S
C1808 C1807 1.394 . S
C1808 C1809 1.516 . S
C1809 C1808 1.516 . S
C1809 C1810 1.502 . S
C1809 C1811 1.561 . S
C1809 C1812 1.526 . S
C1810 H1794 0.959 . S
C1810 H1795 0.959 . S
C1810 H1796 0.961 . S
C1810 C1809 1.502 . S
C1811 H1797 0.960 . S
C1811 H1798 0.961 . S
C1811 H1799 0.959 . S
C1811 C1809 1.561 . S
C1812 C1809 1.526 . S
C1812 C1813 1.396 . S
C1812 C1817 1.390 . S
C1813 C1807 1.465 . S
C1813 C1812 1.396 . S
C1813 C1814 1.399 . S
C1814 H1800 0.929 . S
C1814 C1813 1.399 . S
C1814 C1815 1.385 . S
C1815 H1801 0.931 . S
C1815 C1814 1.385 . S
C1815 C1816 1.389 . S
C1816 C1815 1.389 . S
C1816 C1817 1.387 . S
C1817 H1802 0.930 . S
C1817 C1812 1.390 . S
C1817 C1816 1.387 . S
H1818 C1830 0.930 . S
H1819 C1832 0.930 . S
H1820 C1833 0.930 . S
H1821 C1837 0.959 . S
H1822 C1837 0.959 . S
H1823 C1837 0.961 . S
H1824 C1838 0.960 . S
H1825 C1838 0.961 . S
H1826 C1838 0.959 . S
H1827 C1841 0.929 . S
H1828 C1842 0.931 . S
H1829 C1844 0.930 . S
C1830 H1818 0.930 . S
C1830 C1831 1.399 . S
C1830 C1835 1.399 . S
C1831 C1830 1.399 . S
C1831 C1832 1.376 . S
C1832 H1819 0.930 . S
C1832 C1831 1.376 . S
C1832 C1833 1.388 . S
C1833 H1820 0.930 . S
C1833 C1832 1.388 . S
C1833 C1834 1.390 . S
C1834 C1833 1.390 . S
C1834 C1835 1.394 . S
C1834 C1840 1.465 . S
C1835 C1830 1.399 . S
C1835 C1834 1.394 . S
C1835 C1836 1.516 . S
C1836 C1835 1.516 . S
C1836 C1837 1.502 . S
C1836 C1838 1.561 . S
C1836 C1839 1.526 . S
C1837 H1821 0.959 . S
C1837 H1822 0.959 . S
C1837 H1823 0.961 . S
C1837 C1836 1.502 . S
C1838 H1824 0.960 . S
C1838 H1825 0.961 . S
C1838 H1826 0.959 . S
C1838 C1836 1.561 . S
C1839 C1836 1.526 . S
C1839 C1840 1.396 . S
C1839 C1844 1.390 . S
C1840 C1834 1.465 . S
C1840 C1839 1.396 . S
C1840 C1841 1.399 . S
C1841 H1827 0.929 . S
C1841 C1840 1.399 . S
C1841 C1842 1.385 . S
C1842 H1828 0.931 . S
C1842 C1841 1.385 . S
C1842 C1843 1.389 . S
C1843 C1842 1.389 . S
C1843 C1844 1.387 . S
C1844 H1829 0.930 . S
C1844 C1839 1.390 . S
C1844 C1843 1.387 . S
H1845 C1857 0.930 . S
H1846 C1859 0.930 . S
H1847 C1860 0.930 . S
H1848 C1864 0.959 . S
H1849 C1864 0.959 . S
H1850 C1864 0.961 . S
H1851 C1865 0.960 . S
H1852 C1865 0.961 . S
H1853 C1865 0.959 . S
H1854 C1868 0.929 . S
H1855 C1869 0.931 . S
H1856 C1871 0.930 . S
C1857 H1845 0.930 . S
C1857 C1858 1.399 . S
C1857 C1862 1.399 . S
C1858 C1857 1.399 . S
C1858 C1859 1.376 . S
C1859 H1846 0.930 . S
C1859 C1858 1.376 . S
C1859 C1860 1.388 . S
C1860 H1847 0.930 . S
C1860 C1859 1.388 . S
C1860 C1861 1.390 . S
C1861 C1860 1.390 . S
C1861 C1862 1.394 . S
C1861 C1867 1.465 . S
C1862 C1857 1.399 . S
C1862 C1861 1.394 . S
C1862 C1863 1.516 . S
C1863 C1862 1.516 . S
C1863 C1864 1.502 . S
C1863 C1865 1.561 . S
C1863 C1866 1.526 . S
C1864 H1848 0.959 . S
C1864 H1849 0.959 . S
C1864 H1850 0.961 . S
C1864 C1863 1.502 . S
C1865 H1851 0.960 . S
C1865 H1852 0.961 . S
C1865 H1853 0.959 . S
C1865 C1863 1.561 . S
C1866 C1863 1.526 . S
C1866 C1867 1.396 . S
C1866 C1871 1.390 . S
C1867 C1861 1.465 . S
C1867 C1866 1.396 . S
C1867 C1868 1.399 . S
C1868 H1854 0.929 . S
C1868 C1867 1.399 . S
C1868 C1869 1.385 . S
C1869 H1855 0.931 . S
C1869 C1868 1.385 . S
C1869 C1870 1.389 . S
C1870 C1869 1.389 . S
C1870 C1871 1.387 . S
C1871 H1856 0.930 . S
C1871 C1866 1.390 . S
C1871 C1870 1.387 . S
H1872 C1884 0.930 1_565 S
H1873 C1886 0.930 . S
H1874 C1887 0.930 . S
H1875 C1891 0.959 . S
H1876 C1891 0.959 . S
H1877 C1891 0.961 . S
H1878 C1892 0.960 . S
H1879 C1892 0.961 . S
H1880 C1892 0.959 . S
H1881 C1895 0.929 . S
H1882 C1896 0.931 . S
H1883 C1898 0.930 1_565 S
C1884 H1872 0.930 1_545 S
C1884 C1885 1.399 . S
C1884 C1889 1.399 . S
C1885 C1884 1.399 . S
C1885 C1886 1.376 . S
C1886 H1873 0.930 . S
C1886 C1885 1.376 . S
C1886 C1887 1.388 . S
C1887 H1874 0.930 . S
C1887 C1886 1.388 . S
C1887 C1888 1.390 . S
C1888 C1887 1.390 . S
C1888 C1889 1.394 . S
C1888 C1894 1.465 . S
C1889 C1884 1.399 . S
C1889 C1888 1.394 . S
C1889 C1890 1.516 1_545 S
C1890 C1889 1.516 1_565 S
C1890 C1891 1.502 . S
C1890 C1892 1.561 . S
C1890 C1893 1.526 1_565 S
C1891 H1875 0.959 . S
C1891 H1876 0.959 . S
C1891 H1877 0.961 . S
C1891 C1890 1.502 . S
C1892 H1878 0.960 . S
C1892 H1879 0.961 . S
C1892 H1880 0.959 . S
C1892 C1890 1.561 . S
C1893 C1890 1.526 1_545 S
C1893 C1894 1.396 . S
C1893 C1898 1.390 . S
C1894 C1888 1.465 . S
C1894 C1893 1.396 . S
C1894 C1895 1.399 . S
C1895 H1881 0.929 . S
C1895 C1894 1.399 . S
C1895 C1896 1.385 . S
C1896 H1882 0.931 . S
C1896 C1895 1.385 . S
C1896 C1897 1.389 . S
C1897 C1896 1.389 . S
C1897 C1898 1.387 . S
C1898 H1883 0.930 1_545 S
C1898 C1893 1.390 . S
C1898 C1897 1.387 . S
H1899 C1911 0.930 . S
H1900 C1913 0.930 . S
H1901 C1914 0.930 . S
H1902 C1918 0.959 . S
H1903 C1918 0.959 . S
H1904 C1918 0.961 . S
H1905 C1919 0.960 . S
H1906 C1919 0.961 . S
H1907 C1919 0.959 . S
H1908 C1922 0.929 . S
H1909 C1923 0.931 . S
H1910 C1925 0.930 . S
C1911 H1899 0.930 . S
C1911 C1912 1.399 . S
C1911 C1916 1.399 . S
C1912 C1911 1.399 . S
C1912 C1913 1.376 . S
C1913 H1900 0.930 . S
C1913 C1912 1.376 . S
C1913 C1914 1.388 . S
C1914 H1901 0.930 . S
C1914 C1913 1.388 . S
C1914 C1915 1.390 . S
C1915 C1914 1.390 . S
C1915 C1916 1.394 . S
C1915 C1921 1.465 . S
C1916 C1911 1.399 . S
C1916 C1915 1.394 . S
C1916 C1917 1.516 . S
C1917 C1916 1.516 . S
C1917 C1918 1.502 . S
C1917 C1919 1.561 1_655 S
C1917 C1920 1.526 . S
C1918 H1902 0.959 . S
C1918 H1903 0.959 . S
C1918 H1904 0.961 . S
C1918 C1917 1.502 . S
C1919 H1905 0.960 . S
C1919 H1906 0.961 . S
C1919 H1907 0.959 . S
C1919 C1917 1.561 1_455 S
C1920 C1917 1.526 . S
C1920 C1921 1.396 . S
C1920 C1925 1.390 . S
C1921 C1915 1.465 . S
C1921 C1920 1.396 . S
C1921 C1922 1.399 . S
C1922 H1908 0.929 . S
C1922 C1921 1.399 . S
C1922 C1923 1.385 . S
C1923 H1909 0.931 . S
C1923 C1922 1.385 . S
C1923 C1924 1.389 . S
C1924 C1923 1.389 . S
C1924 C1925 1.387 . S
C1925 H1910 0.930 . S
C1925 C1920 1.390 . S
C1925 C1924 1.387 . S
H1926 C1938 0.930 . S
H1927 C1940 0.930 . S
H1928 C1941 0.930 . S
H1929 C1945 0.959 . S
H1930 C1945 0.959 . S
H1931 C1945 0.961 . S
H1932 C1946 0.960 . S
H1933 C1946 0.961 . S
H1934 C1946 0.959 . S
H1935 C1949 0.929 . S
H1936 C1950 0.931 . S
H1937 C1952 0.930 . S
C1938 H1926 0.930 . S
C1938 C1939 1.399 . S
C1938 C1943 1.399 . S
C1939 C1938 1.399 . S
C1939 C1940 1.376 . S
C1940 H1927 0.930 . S
C1940 C1939 1.376 . S
C1940 C1941 1.388 . S
C1941 H1928 0.930 . S
C1941 C1940 1.388 . S
C1941 C1942 1.390 . S
C1942 C1941 1.390 . S
C1942 C1943 1.394 . S
C1942 C1948 1.465 . S
C1943 C1938 1.399 . S
C1943 C1942 1.394 . S
C1943 C1944 1.516 . S
C1944 C1943 1.516 . S
C1944 C1945 1.502 . S
C1944 C1946 1.561 . S
C1944 C1947 1.526 . S
C1945 H1929 0.959 . S
C1945 H1930 0.959 . S
C1945 H1931 0.961 . S
C1945 C1944 1.502 . S
C1946 H1932 0.960 . S
C1946 H1933 0.961 . S
C1946 H1934 0.959 . S
C1946 C1944 1.561 . S
C1947 C1944 1.526 . S
C1947 C1948 1.396 . S
C1947 C1952 1.390 . S
C1948 C1942 1.465 . S
C1948 C1947 1.396 . S
C1948 C1949 1.399 . S
C1949 H1935 0.929 . S
C1949 C1948 1.399 . S
C1949 C1950 1.385 . S
C1950 H1936 0.931 . S
C1950 C1949 1.385 . S
C1950 C1951 1.389 . S
C1951 C1950 1.389 . S
C1951 C1952 1.387 . S
C1952 H1937 0.930 . S
C1952 C1947 1.390 . S
C1952 C1951 1.387 . S
H1953 C1965 0.930 . S
H1954 C1967 0.930 . S
H1955 C1968 0.930 . S
H1956 C1972 0.964 . S
H1957 C1972 0.958 . S
H1958 C1972 0.968 . S
H1959 C1973 0.960 . S
H1960 C1973 0.961 . S
H1961 C1973 0.959 . S
H1962 C1976 0.929 . S
H1963 C1977 0.931 . S
H1964 C1979 0.930 . S
C1965 H1953 0.930 . S
C1965 C1966 1.399 . S
C1965 C1970 1.399 . S
C1966 C1965 1.399 . S
C1966 C1967 1.376 . S
C1967 H1954 0.930 . S
C1967 C1966 1.376 . S
C1967 C1968 1.388 . S
C1968 H1955 0.930 . S
C1968 C1967 1.388 . S
C1968 C1969 1.390 . S
C1969 C1968 1.390 . S
C1969 C1970 1.394 . S
C1969 C1975 1.465 . S
C1970 C1965 1.399 . S
C1970 C1969 1.394 . S
C1970 C1971 1.516 . S
C1971 C1970 1.516 . S
C1971 C1972 1.491 1_455 S
C1971 C1973 1.561 . S
C1971 C1974 1.526 . S
C1972 H1956 0.964 . S
C1972 H1957 0.958 . S
C1972 H1958 0.968 . S
C1972 C1971 1.491 1_655 S
C1973 H1959 0.960 . S
C1973 H1960 0.961 . S
C1973 H1961 0.959 . S
C1973 C1971 1.561 . S
C1974 C1971 1.526 . S
C1974 C1975 1.396 . S
C1974 C1979 1.390 . S
C1975 C1969 1.465 . S
C1975 C1974 1.396 . S
C1975 C1976 1.399 . S
C1976 H1962 0.929 . S
C1976 C1975 1.399 . S
C1976 C1977 1.385 . S
C1977 H1963 0.931 . S
C1977 C1976 1.385 . S
C1977 C1978 1.389 . S
C1978 C1977 1.389 . S
C1978 C1979 1.387 . S
C1979 H1964 0.930 . S
C1979 C1974 1.390 . S
C1979 C1978 1.387 . S
H1980 C1992 0.930 . S
H1981 C1994 0.930 . S
H1982 C1995 0.930 . S
H1983 C1999 0.959 . S
H1984 C1999 0.959 . S
H1985 C1999 0.961 . S
H1986 C2000 0.960 . S
H1987 C2000 0.961 . S
H1988 C2000 0.959 . S
H1989 C2003 0.929 . S
H1990 C2004 0.931 . S
H1991 C2006 0.930 . S
C1992 H1980 0.930 . S
C1992 C1993 1.399 . S
C1992 C1997 1.399 . S
C1993 C1992 1.399 . S
C1993 C1994 1.376 . S
C1994 H1981 0.930 . S
C1994 C1993 1.376 . S
C1994 C1995 1.388 . S
C1995 H1982 0.930 . S
C1995 C1994 1.388 . S
C1995 C1996 1.390 . S
C1996 C1995 1.390 . S
C1996 C1997 1.394 . S
C1996 C2002 1.465 . S
C1997 C1992 1.399 . S
C1997 C1996 1.394 . S
C1997 C1998 1.516 . S
C1998 C1997 1.516 . S
C1998 C1999 1.502 . S
C1998 C2000 1.561 . S
C1998 C2001 1.526 . S
C1999 H1983 0.959 . S
C1999 H1984 0.959 . S
C1999 H1985 0.961 . S
C1999 C1998 1.502 . S
C2000 H1986 0.960 . S
C2000 H1987 0.961 . S
C2000 H1988 0.959 . S
C2000 C1998 1.561 . S
C2001 C1998 1.526 . S
C2001 C2002 1.396 . S
C2001 C2006 1.390 . S
C2002 C1996 1.465 . S
C2002 C2001 1.396 . S
C2002 C2003 1.399 . S
C2003 H1989 0.929 . S
C2003 C2002 1.399 . S
C2003 C2004 1.385 . S
C2004 H1990 0.931 . S
C2004 C2003 1.385 . S
C2004 C2005 1.389 . S
C2005 C2004 1.389 . S
C2005 C2006 1.387 . S
C2006 H1991 0.930 . S
C2006 C2001 1.390 . S
C2006 C2005 1.387 . S
H2007 C2019 0.930 . S
H2008 C2021 0.930 . S
H2009 C2022 0.930 . S
H2010 C2026 0.959 . S
H2011 C2026 0.959 . S
H2012 C2026 0.961 . S
H2013 C2027 0.960 . S
H2014 C2027 0.961 . S
H2015 C2027 0.959 . S
H2016 C2030 0.929 . S
H2017 C2031 0.931 . S
H2018 C2033 0.930 . S
C2019 H2007 0.930 . S
C2019 C2020 1.399 . S
C2019 C2024 1.399 . S
C2020 C2019 1.399 . S
C2020 C2021 1.376 1_565 S
C2021 H2008 0.930 . S
C2021 C2020 1.376 1_545 S
C2021 C2022 1.388 . S
C2022 H2009 0.930 . S
C2022 C2021 1.388 . S
C2022 C2023 1.390 . S
C2023 C2022 1.390 . S
C2023 C2024 1.394 1_545 S
C2023 C2029 1.465 . S
C2024 C2019 1.399 . S
C2024 C2023 1.394 1_565 S
C2024 C2025 1.516 . S
C2025 C2024 1.516 . S
C2025 C2026 1.502 . S
C2025 C2027 1.561 . S
C2025 C2028 1.526 . S
C2026 H2010 0.959 . S
C2026 H2011 0.959 . S
C2026 H2012 0.961 . S
C2026 C2025 1.502 . S
C2027 H2013 0.960 . S
C2027 H2014 0.961 . S
C2027 H2015 0.959 . S
C2027 C2025 1.561 . S
C2028 C2025 1.526 . S
C2028 C2029 1.396 1_565 S
C2028 C2033 1.390 . S
C2029 C2023 1.465 . S
C2029 C2028 1.396 1_545 S
C2029 C2030 1.399 . S
C2030 H2016 0.929 . S
C2030 C2029 1.399 . S
C2030 C2031 1.385 . S
C2031 H2017 0.931 . S
C2031 C2030 1.385 . S
C2031 C2032 1.389 . S
C2032 C2031 1.389 . S
C2032 C2033 1.387 1_545 S
C2033 H2018 0.930 . S
C2033 C2028 1.390 . S
C2033 C2032 1.387 1_565 S
H2034 C2046 0.930 . S
H2035 C2048 0.930 . S
H2036 C2049 0.930 . S
H2037 C2053 0.959 . S
H2038 C2053 0.959 . S
H2039 C2053 0.961 . S
H2040 C2054 0.960 . S
H2041 C2054 0.961 . S
H2042 C2054 0.959 . S
H2043 C2057 0.929 . S
H2044 C2058 0.931 . S
H2045 C2060 0.930 . S
C2046 H2034 0.930 . S
C2046 C2047 1.399 . S
C2046 C2051 1.399 . S
C2047 C2046 1.399 . S
C2047 C2048 1.376 1_565 S
C2048 H2035 0.930 . S
C2048 C2047 1.376 1_545 S
C2048 C2049 1.388 . S
C2049 H2036 0.930 . S
C2049 C2048 1.388 . S
C2049 C2050 1.390 . S
C2050 C2049 1.390 . S
C2050 C2051 1.394 1_545 S
C2050 C2056 1.465 . S
C2051 C2046 1.399 . S
C2051 C2050 1.394 1_565 S
C2051 C2052 1.516 . S
C2052 C2051 1.516 . S
C2052 C2053 1.502 . S
C2052 C2054 1.561 . S
C2052 C2055 1.526 . S
C2053 H2037 0.959 . S
C2053 H2038 0.959 . S
C2053 H2039 0.961 . S
C2053 C2052 1.502 . S
C2054 H2040 0.960 . S
C2054 H2041 0.961 . S
C2054 H2042 0.959 . S
C2054 C2052 1.561 . S
C2055 C2052 1.526 . S
C2055 C2056 1.396 1_565 S
C2055 C2060 1.390 . S
C2056 C2050 1.465 . S
C2056 C2055 1.396 1_545 S
C2056 C2057 1.399 . S
C2057 H2043 0.929 . S
C2057 C2056 1.399 . S
C2057 C2058 1.385 . S
C2058 H2044 0.931 . S
C2058 C2057 1.385 . S
C2058 C2059 1.389 1_545 S
C2059 C2058 1.389 1_565 S
C2059 C2060 1.387 . S
C2060 H2045 0.930 . S
C2060 C2055 1.390 . S
C2060 C2059 1.387 . S
H2061 C2073 0.930 . S
H2062 C2075 0.930 . S
H2063 C2076 0.930 . S
H2064 C2080 0.959 . S
H2065 C2080 0.959 . S
H2066 C2080 0.961 . S
H2067 C2081 0.960 . S
H2068 C2081 0.961 . S
H2069 C2081 0.959 . S
H2070 C2084 0.929 . S
H2071 C2085 0.931 . S
H2072 C2087 0.930 . S
C2073 H2061 0.930 . S
C2073 C2074 1.399 . S
C2073 C2078 1.399 . S
C2074 C2073 1.399 . S
C2074 C2075 1.376 . S
C2075 H2062 0.930 . S
C2075 C2074 1.376 . S
C2075 C2076 1.388 . S
C2076 H2063 0.930 . S
C2076 C2075 1.388 . S
C2076 C2077 1.390 . S
C2077 C2076 1.390 . S
C2077 C2078 1.394 . S
C2077 C2083 1.465 . S
C2078 C2073 1.399 . S
C2078 C2077 1.394 . S
C2078 C2079 1.516 . S
C2079 C2078 1.516 . S
C2079 C2080 1.502 . S
C2079 C2081 1.561 1_455 S
C2079 C2082 1.526 . S
C2080 H2064 0.959 . S
C2080 H2065 0.959 . S
C2080 H2066 0.961 . S
C2080 C2079 1.502 . S
C2081 H2067 0.960 . S
C2081 H2068 0.961 . S
C2081 H2069 0.959 . S
C2081 C2079 1.561 1_655 S
C2082 C2079 1.526 . S
C2082 C2083 1.396 . S
C2082 C2087 1.390 . S
C2083 C2077 1.465 . S
C2083 C2082 1.396 . S
C2083 C2084 1.399 . S
C2084 H2070 0.929 . S
C2084 C2083 1.399 . S
C2084 C2085 1.385 . S
C2085 H2071 0.931 . S
C2085 C2084 1.385 . S
C2085 C2086 1.389 . S
C2086 C2085 1.389 . S
C2086 C2087 1.387 . S
C2087 H2072 0.930 . S
C2087 C2082 1.390 . S
C2087 C2086 1.387 . S
H2088 C2100 0.930 . S
H2089 C2102 0.930 . S
H2090 C2103 0.930 . S
H2091 C2107 0.959 . S
H2092 C2107 0.959 . S
H2093 C2107 0.961 . S
H2094 C2108 0.960 . S
H2095 C2108 0.961 . S
H2096 C2108 0.959 . S
H2097 C2111 0.929 . S
H2098 C2112 0.931 . S
H2099 C2114 0.930 . S
C2100 H2088 0.930 . S
C2100 C2101 1.399 . S
C2100 C2105 1.399 . S
C2101 C2100 1.399 . S
C2101 C2102 1.376 . S
C2102 H2089 0.930 . S
C2102 C2101 1.376 . S
C2102 C2103 1.388 . S
C2103 H2090 0.930 . S
C2103 C2102 1.388 . S
C2103 C2104 1.390 . S
C2104 C2103 1.390 . S
C2104 C2105 1.394 . S
C2104 C2110 1.465 . S
C2105 C2100 1.399 . S
C2105 C2104 1.394 . S
C2105 C2106 1.516 . S
C2106 C2105 1.516 . S
C2106 C2107 1.502 . S
C2106 C2108 1.561 . S
C2106 C2109 1.526 . S
C2107 H2091 0.959 . S
C2107 H2092 0.959 . S
C2107 H2093 0.961 . S
C2107 C2106 1.502 . S
C2108 H2094 0.960 . S
C2108 H2095 0.961 . S
C2108 H2096 0.959 . S
C2108 C2106 1.561 . S
C2109 C2106 1.526 . S
C2109 C2110 1.396 . S
C2109 C2114 1.390 . S
C2110 C2104 1.465 . S
C2110 C2109 1.396 . S
C2110 C2111 1.399 . S
C2111 H2097 0.929 . S
C2111 C2110 1.399 . S
C2111 C2112 1.385 . S
C2112 H2098 0.931 . S
C2112 C2111 1.385 . S
C2112 C2113 1.389 . S
C2113 C2112 1.389 . S
C2113 C2114 1.387 . S
C2114 H2099 0.930 . S
C2114 C2109 1.390 . S
C2114 C2113 1.387 . S
H2115 C2127 0.930 . S
H2116 C2129 0.930 . S
H2117 C2130 0.930 . S
H2118 C2134 0.959 . S
H2119 C2134 0.959 . S
H2120 C2134 0.961 . S
H2121 C2135 0.960 . S
H2122 C2135 0.961 . S
H2123 C2135 0.959 . S
H2124 C2138 0.929 . S
H2125 C2139 0.931 . S
H2126 C2141 0.930 . S
C2127 H2115 0.930 . S
C2127 C2128 1.399 1_455 S
C2127 C2132 1.399 1_455 S
C2128 C2127 1.399 1_655 S
C2128 C2129 1.376 . S
C2129 H2116 0.930 . S
C2129 C2128 1.376 . S
C2129 C2130 1.388 . S
C2130 H2117 0.930 . S
C2130 C2129 1.388 . S
C2130 C2131 1.390 . S
C2131 C2130 1.390 . S
C2131 C2132 1.394 . S
C2131 C2137 1.465 . S
C2132 C2127 1.399 1_655 S
C2132 C2131 1.394 . S
C2132 C2133 1.516 1_655 S
C2133 C2132 1.516 1_455 S
C2133 C2134 1.502 . S
C2133 C2135 1.561 1_455 S
C2133 C2136 1.526 1_455 S
C2134 H2118 0.959 . S
C2134 H2119 0.959 . S
C2134 H2120 0.961 . S
C2134 C2133 1.502 . S
C2135 H2121 0.960 . S
C2135 H2122 0.961 . S
C2135 H2123 0.959 . S
C2135 C2133 1.561 1_655 S
C2136 C2133 1.526 1_655 S
C2136 C2137 1.396 . S
C2136 C2141 1.390 1_655 S
C2137 C2131 1.465 . S
C2137 C2136 1.396 . S
C2137 C2138 1.399 . S
C2138 H2124 0.929 . S
C2138 C2137 1.399 . S
C2138 C2139 1.385 . S
C2139 H2125 0.931 . S
C2139 C2138 1.385 . S
C2139 C2140 1.389 . S
C2140 C2139 1.389 . S
C2140 C2141 1.387 1_655 S
C2141 H2126 0.930 . S
C2141 C2136 1.390 1_455 S
C2141 C2140 1.387 1_455 S
H2142 C2154 0.930 . S
H2143 C2156 0.930 . S
H2144 C2157 0.930 . S
H2145 C2161 0.959 . S
H2146 C2161 0.959 . S
H2147 C2161 0.961 . S
H2148 C2162 0.960 . S
H2149 C2162 0.961 . S
H2150 C2162 0.959 . S
H2151 C2165 0.929 . S
H2152 C2166 0.931 . S
H2153 C2168 0.930 . S
C2154 H2142 0.930 . S
C2154 C2155 1.399 . S
C2154 C2159 1.399 . S
C2155 C2154 1.399 . S
C2155 C2156 1.376 . S
C2156 H2143 0.930 . S
C2156 C2155 1.376 . S
C2156 C2157 1.388 . S
C2157 H2144 0.930 . S
C2157 C2156 1.388 . S
C2157 C2158 1.390 . S
C2158 C2157 1.390 . S
C2158 C2159 1.394 . S
C2158 C2164 1.465 . S
C2159 C2154 1.399 . S
C2159 C2158 1.394 . S
C2159 C2160 1.516 . S
C2160 C2159 1.516 . S
C2160 C2161 1.502 . S
C2160 C2162 1.561 . S
C2160 C2163 1.526 . S
C2161 H2145 0.959 . S
C2161 H2146 0.959 . S
C2161 H2147 0.961 . S
C2161 C2160 1.502 . S
C2162 H2148 0.960 . S
C2162 H2149 0.961 . S
C2162 H2150 0.959 . S
C2162 C2160 1.561 . S
C2163 C2160 1.526 . S
C2163 C2164 1.396 . S
C2163 C2168 1.390 . S
C2164 C2158 1.465 . S
C2164 C2163 1.396 . S
C2164 C2165 1.399 . S
C2165 H2151 0.929 . S
C2165 C2164 1.399 . S
C2165 C2166 1.385 . S
C2166 H2152 0.931 . S
C2166 C2165 1.385 . S
C2166 C2167 1.389 . S
C2167 C2166 1.389 . S
C2167 C2168 1.387 . S
C2168 H2153 0.930 . S
C2168 C2163 1.390 . S
C2168 C2167 1.387 . S
H2169 C2181 0.930 . S
H2170 C2183 0.930 . S
H2171 C2184 0.930 . S
H2172 C2188 0.959 . S
H2173 C2188 0.959 . S
H2174 C2188 0.961 . S
H2175 C2189 0.960 . S
H2176 C2189 0.961 . S
H2177 C2189 0.959 . S
H2178 C2192 0.929 . S
H2179 C2193 0.931 . S
H2180 C2195 0.930 . S
C2181 H2169 0.930 . S
C2181 C2182 1.399 . S
C2181 C2186 1.399 . S
C2182 C2181 1.399 . S
C2182 C2183 1.376 . S
C2183 H2170 0.930 . S
C2183 C2182 1.376 . S
C2183 C2184 1.388 . S
C2184 H2171 0.930 . S
C2184 C2183 1.388 . S
C2184 C2185 1.390 . S
C2185 C2184 1.390 . S
C2185 C2186 1.394 . S
C2185 C2191 1.465 . S
C2186 C2181 1.399 . S
C2186 C2185 1.394 . S
C2186 C2187 1.516 . S
C2187 C2186 1.516 . S
C2187 C2188 1.502 . S
C2187 C2189 1.561 . S
C2187 C2190 1.526 . S
C2188 H2172 0.959 . S
C2188 H2173 0.959 . S
C2188 H2174 0.961 . S
C2188 C2187 1.502 . S
C2189 H2175 0.960 . S
C2189 H2176 0.961 . S
C2189 H2177 0.959 . S
C2189 C2187 1.561 . S
C2190 C2187 1.526 . S
C2190 C2191 1.396 . S
C2190 C2195 1.390 . S
C2191 C2185 1.465 . S
C2191 C2190 1.396 . S
C2191 C2192 1.399 . S
C2192 H2178 0.929 . S
C2192 C2191 1.399 . S
C2192 C2193 1.385 . S
C2193 H2179 0.931 . S
C2193 C2192 1.385 . S
C2193 C2194 1.389 . S
C2194 C2193 1.389 . S
C2194 C2195 1.387 . S
C2195 H2180 0.930 . S
C2195 C2190 1.390 . S
C2195 C2194 1.387 . S
H2196 C2208 0.930 . S
H2197 C2210 0.930 . S
H2198 C2211 0.930 . S
H2199 C2215 0.959 . S
H2200 C2215 0.959 . S
H2201 C2215 0.961 . S
H2202 C2216 0.960 . S
H2203 C2216 0.961 . S
H2204 C2216 0.959 . S
H2205 C2219 0.929 . S
H2206 C2220 0.931 . S
H2207 C2222 0.930 . S
C2208 H2196 0.930 . S
C2208 C2209 1.399 . S
C2208 C2213 1.399 . S
C2209 C2208 1.399 . S
C2209 C2210 1.376 . S
C2210 H2197 0.930 . S
C2210 C2209 1.376 . S
C2210 C2211 1.388 . S
C2211 H2198 0.930 . S
C2211 C2210 1.388 . S
C2211 C2212 1.390 . S
C2212 C2211 1.390 . S
C2212 C2213 1.394 . S
C2212 C2218 1.465 . S
C2213 C2208 1.399 . S
C2213 C2212 1.394 . S
C2213 C2214 1.516 . S
C2214 C2213 1.516 . S
C2214 C2215 1.502 . S
C2214 C2216 1.561 . S
C2214 C2217 1.526 . S
C2215 H2199 0.959 . S
C2215 H2200 0.959 . S
C2215 H2201 0.961 . S
C2215 C2214 1.502 . S
C2216 H2202 0.960 . S
C2216 H2203 0.961 . S
C2216 H2204 0.959 . S
C2216 C2214 1.561 . S
C2217 C2214 1.526 . S
C2217 C2218 1.396 . S
C2217 C2222 1.390 . S
C2218 C2212 1.465 . S
C2218 C2217 1.396 . S
C2218 C2219 1.399 . S
C2219 H2205 0.929 . S
C2219 C2218 1.399 . S
C2219 C2220 1.385 . S
C2220 H2206 0.931 . S
C2220 C2219 1.385 . S
C2220 C2221 1.389 . S
C2221 C2220 1.389 . S
C2221 C2222 1.387 . S
C2222 H2207 0.930 . S
C2222 C2217 1.390 . S
C2222 C2221 1.387 . S
H2223 C2235 0.930 . S
H2224 C2237 0.930 . S
H2225 C2238 0.930 . S
H2226 C2242 0.959 . S
H2227 C2242 0.959 . S
H2228 C2242 0.961 . S
H2229 C2243 0.960 . S
H2230 C2243 0.961 . S
H2231 C2243 0.959 . S
H2232 C2246 0.929 . S
H2233 C2247 0.931 . S
H2234 C2249 0.930 . S
C2235 H2223 0.930 . S
C2235 C2236 1.399 . S
C2235 C2240 1.399 . S
C2236 C2235 1.399 . S
C2236 C2237 1.376 . S
C2237 H2224 0.930 . S
C2237 C2236 1.376 . S
C2237 C2238 1.388 . S
C2238 H2225 0.930 . S
C2238 C2237 1.388 . S
C2238 C2239 1.390 . S
C2239 C2238 1.390 . S
C2239 C2240 1.394 . S
C2239 C2245 1.465 . S
C2240 C2235 1.399 . S
C2240 C2239 1.394 . S
C2240 C2241 1.516 . S
C2241 C2240 1.516 . S
C2241 C2242 1.502 . S
C2241 C2243 1.561 . S
C2241 C2244 1.526 . S
C2242 H2226 0.959 . S
C2242 H2227 0.959 . S
C2242 H2228 0.961 . S
C2242 C2241 1.502 . S
C2243 H2229 0.960 . S
C2243 H2230 0.961 . S
C2243 H2231 0.959 . S
C2243 C2241 1.561 . S
C2244 C2241 1.526 . S
C2244 C2245 1.396 . S
C2244 C2249 1.390 . S
C2245 C2239 1.465 . S
C2245 C2244 1.396 . S
C2245 C2246 1.399 . S
C2246 H2232 0.929 . S
C2246 C2245 1.399 . S
C2246 C2247 1.385 . S
C2247 H2233 0.931 . S
C2247 C2246 1.385 . S
C2247 C2248 1.389 . S
C2248 C2247 1.389 . S
C2248 C2249 1.387 . S
C2249 H2234 0.930 . S
C2249 C2244 1.390 . S
C2249 C2248 1.387 . S
H2250 C2262 0.930 . S
H2251 C2264 0.930 . S
H2252 C2265 0.930 . S
H2253 C2269 0.959 . S
H2254 C2269 0.959 . S
H2255 C2269 0.961 . S
H2256 C2270 0.960 . S
H2257 C2270 0.961 . S
H2258 C2270 0.959 . S
H2259 C2273 0.929 . S
H2260 C2274 0.931 . S
H2261 C2276 0.930 . S
C2262 H2250 0.930 . S
C2262 C2263 1.399 . S
C2262 C2267 1.399 . S
C2263 C2262 1.399 . S
C2263 C2264 1.376 . S
C2264 H2251 0.930 . S
C2264 C2263 1.376 . S
C2264 C2265 1.388 . S
C2265 H2252 0.930 . S
C2265 C2264 1.388 . S
C2265 C2266 1.390 . S
C2266 C2265 1.390 . S
C2266 C2267 1.394 . S
C2266 C2272 1.465 . S
C2267 C2262 1.399 . S
C2267 C2266 1.394 . S
C2267 C2268 1.516 . S
C2268 C2267 1.516 . S
C2268 C2269 1.502 . S
C2268 C2270 1.561 . S
C2268 C2271 1.526 . S
C2269 H2253 0.959 . S
C2269 H2254 0.959 . S
C2269 H2255 0.961 . S
C2269 C2268 1.502 . S
C2270 H2256 0.960 . S
C2270 H2257 0.961 . S
C2270 H2258 0.959 . S
C2270 C2268 1.561 . S
C2271 C2268 1.526 . S
C2271 C2272 1.396 . S
C2271 C2276 1.390 . S
C2272 C2266 1.465 . S
C2272 C2271 1.396 . S
C2272 C2273 1.399 . S
C2273 H2259 0.929 . S
C2273 C2272 1.399 . S
C2273 C2274 1.385 . S
C2274 H2260 0.931 . S
C2274 C2273 1.385 . S
C2274 C2275 1.389 . S
C2275 C2274 1.389 . S
C2275 C2276 1.387 . S
C2276 H2261 0.930 . S
C2276 C2271 1.390 . S
C2276 C2275 1.387 . S
H2277 C2289 0.930 . S
H2278 C2291 0.930 . S
H2279 C2292 0.930 . S
H2280 C2296 0.959 . S
H2281 C2296 0.959 . S
H2282 C2296 0.961 . S
H2283 C2297 0.960 . S
H2284 C2297 0.961 . S
H2285 C2297 0.959 . S
H2286 C2300 0.929 . S
H2287 C2301 0.931 . S
H2288 C2303 0.930 . S
C2289 H2277 0.930 . S
C2289 C2290 1.399 . S
C2289 C2294 1.399 . S
C2290 C2289 1.399 . S
C2290 C2291 1.376 . S
C2291 H2278 0.930 . S
C2291 C2290 1.376 . S
C2291 C2292 1.388 . S
C2292 H2279 0.930 . S
C2292 C2291 1.388 . S
C2292 C2293 1.390 . S
C2293 C2292 1.390 . S
C2293 C2294 1.394 . S
C2293 C2299 1.465 . S
C2294 C2289 1.399 . S
C2294 C2293 1.394 . S
C2294 C2295 1.516 . S
C2295 C2294 1.516 . S
C2295 C2296 1.502 . S
C2295 C2297 1.561 . S
C2295 C2298 1.526 . S
C2296 H2280 0.959 . S
C2296 H2281 0.959 . S
C2296 H2282 0.961 . S
C2296 C2295 1.502 . S
C2297 H2283 0.960 . S
C2297 H2284 0.961 . S
C2297 H2285 0.959 . S
C2297 C2295 1.561 . S
C2298 C2295 1.526 . S
C2298 C2299 1.396 . S
C2298 C2303 1.390 . S
C2299 C2293 1.465 . S
C2299 C2298 1.396 . S
C2299 C2300 1.399 . S
C2300 H2286 0.929 . S
C2300 C2299 1.399 . S
C2300 C2301 1.385 . S
C2301 H2287 0.931 . S
C2301 C2300 1.385 . S
C2301 C2302 1.389 . S
C2302 C2301 1.389 . S
C2302 C2303 1.387 . S
C2303 H2288 0.930 . S
C2303 C2298 1.390 . S
C2303 C2302 1.387 . S
H2304 C2316 0.930 . S
H2305 C2318 0.930 . S
H2306 C2319 0.930 . S
H2307 C2323 0.959 . S
H2308 C2323 0.959 . S
H2309 C2323 0.961 . S
H2310 C2324 0.960 . S
H2311 C2324 0.961 . S
H2312 C2324 0.959 . S
H2313 C2327 0.929 . S
H2314 C2328 0.931 . S
H2315 C2330 0.930 . S
C2316 H2304 0.930 . S
C2316 C2317 1.399 . S
C2316 C2321 1.399 . S
C2317 C2316 1.399 . S
C2317 C2318 1.376 . S
C2318 H2305 0.930 . S
C2318 C2317 1.376 . S
C2318 C2319 1.388 . S
C2319 H2306 0.930 . S
C2319 C2318 1.388 . S
C2319 C2320 1.390 . S
C2320 C2319 1.390 . S
C2320 C2321 1.394 . S
C2320 C2326 1.465 . S
C2321 C2316 1.399 . S
C2321 C2320 1.394 . S
C2321 C2322 1.516 . S
C2322 C2321 1.516 . S
C2322 C2323 1.502 . S
C2322 C2324 1.561 . S
C2322 C2325 1.526 . S
C2323 H2307 0.959 . S
C2323 H2308 0.959 . S
C2323 H2309 0.961 . S
C2323 C2322 1.502 . S
C2324 H2310 0.960 . S
C2324 H2311 0.961 . S
C2324 H2312 0.959 . S
C2324 C2322 1.561 . S
C2325 C2322 1.526 . S
C2325 C2326 1.396 . S
C2325 C2330 1.390 . S
C2326 C2320 1.465 . S
C2326 C2325 1.396 . S
C2326 C2327 1.399 . S
C2327 H2313 0.929 . S
C2327 C2326 1.399 . S
C2327 C2328 1.385 . S
C2328 H2314 0.931 . S
C2328 C2327 1.385 . S
C2328 C2329 1.389 . S
C2329 C2328 1.389 . S
C2329 C2330 1.387 . S
C2330 H2315 0.930 . S
C2330 C2325 1.390 . S
C2330 C2329 1.387 . S
H2331 C2343 0.930 . S
H2332 C2345 0.930 . S
H2333 C2346 0.930 . S
H2334 C2350 0.959 . S
H2335 C2350 0.959 . S
H2336 C2350 0.961 . S
H2337 C2351 0.960 . S
H2338 C2351 0.961 . S
H2339 C2351 0.959 . S
H2340 C2354 0.929 . S
H2341 C2355 0.931 . S
H2342 C2357 0.930 . S
C2343 H2331 0.930 . S
C2343 C2344 1.399 . S
C2343 C2348 1.399 . S
C2344 C2343 1.399 . S
C2344 C2345 1.376 . S
C2345 H2332 0.930 . S
C2345 C2344 1.376 . S
C2345 C2346 1.388 . S
C2346 H2333 0.930 . S
C2346 C2345 1.388 . S
C2346 C2347 1.390 . S
C2347 C2346 1.390 . S
C2347 C2348 1.394 . S
C2347 C2353 1.465 . S
C2348 C2343 1.399 . S
C2348 C2347 1.394 . S
C2348 C2349 1.516 . S
C2349 C2348 1.516 . S
C2349 C2350 1.502 . S
C2349 C2351 1.561 . S
C2349 C2352 1.526 . S
C2350 H2334 0.959 . S
C2350 H2335 0.959 . S
C2350 H2336 0.961 . S
C2350 C2349 1.502 . S
C2351 H2337 0.960 . S
C2351 H2338 0.961 . S
C2351 H2339 0.959 . S
C2351 C2349 1.561 . S
C2352 C2349 1.526 . S
C2352 C2353 1.396 . S
C2352 C2357 1.390 . S
C2353 C2347 1.465 . S
C2353 C2352 1.396 . S
C2353 C2354 1.399 . S
C2354 H2340 0.929 . S
C2354 C2353 1.399 . S
C2354 C2355 1.385 . S
C2355 H2341 0.931 . S
C2355 C2354 1.385 . S
C2355 C2356 1.389 . S
C2356 C2355 1.389 . S
C2356 C2357 1.387 . S
C2357 H2342 0.930 . S
C2357 C2352 1.390 . S
C2357 C2356 1.387 . S
H2358 C2370 0.930 . S
H2359 C2372 0.930 . S
H2360 C2373 0.930 . S
H2361 C2377 0.959 . S
H2362 C2377 0.959 . S
H2363 C2377 0.961 . S
H2364 C2378 0.960 . S
H2365 C2378 0.961 . S
H2366 C2378 0.959 . S
H2367 C2381 0.929 . S
H2368 C2382 0.931 . S
H2369 C2384 0.930 . S
C2370 H2358 0.930 . S
C2370 C2371 1.399 . S
C2370 C2375 1.399 . S
C2371 C2370 1.399 . S
C2371 C2372 1.376 . S
C2372 H2359 0.930 . S
C2372 C2371 1.376 . S
C2372 C2373 1.388 . S
C2373 H2360 0.930 . S
C2373 C2372 1.388 . S
C2373 C2374 1.390 . S
C2374 C2373 1.390 . S
C2374 C2375 1.394 . S
C2374 C2380 1.465 . S
C2375 C2370 1.399 . S
C2375 C2374 1.394 . S
C2375 C2376 1.516 . S
C2376 C2375 1.516 . S
C2376 C2377 1.502 . S
C2376 C2378 1.561 . S
C2376 C2379 1.526 . S
C2377 H2361 0.959 . S
C2377 H2362 0.959 . S
C2377 H2363 0.961 . S
C2377 C2376 1.502 . S
C2378 H2364 0.960 . S
C2378 H2365 0.961 . S
C2378 H2366 0.959 . S
C2378 C2376 1.561 . S
C2379 C2376 1.526 . S
C2379 C2380 1.396 . S
C2379 C2384 1.390 . S
C2380 C2374 1.465 . S
C2380 C2379 1.396 . S
C2380 C2381 1.399 . S
C2381 H2367 0.929 . S
C2381 C2380 1.399 . S
C2381 C2382 1.385 . S
C2382 H2368 0.931 . S
C2382 C2381 1.385 . S
C2382 C2383 1.389 . S
C2383 C2382 1.389 . S
C2383 C2384 1.387 . S
C2384 H2369 0.930 . S
C2384 C2379 1.390 . S
C2384 C2383 1.387 . S
H2385 C2397 0.930 . S
H2386 C2399 0.930 . S
H2387 C2400 0.930 . S
H2388 C2404 0.959 . S
H2389 C2404 0.959 . S
H2390 C2404 0.961 . S
H2391 C2405 0.960 . S
H2392 C2405 0.961 . S
H2393 C2405 0.959 . S
H2394 C2408 0.929 . S
H2395 C2409 0.931 . S
H2396 C2411 0.930 . S
C2397 H2385 0.930 . S
C2397 C2398 1.399 . S
C2397 C2402 1.399 . S
C2398 C2397 1.399 . S
C2398 C2399 1.376 . S
C2399 H2386 0.930 . S
C2399 C2398 1.376 . S
C2399 C2400 1.388 . S
C2400 H2387 0.930 . S
C2400 C2399 1.388 . S
C2400 C2401 1.390 . S
C2401 C2400 1.390 . S
C2401 C2402 1.394 . S
C2401 C2407 1.465 . S
C2402 C2397 1.399 . S
C2402 C2401 1.394 . S
C2402 C2403 1.516 . S
C2403 C2402 1.516 . S
C2403 C2404 1.502 . S
C2403 C2405 1.561 . S
C2403 C2406 1.526 . S
C2404 H2388 0.959 . S
C2404 H2389 0.959 . S
C2404 H2390 0.961 . S
C2404 C2403 1.502 . S
C2405 H2391 0.960 . S
C2405 H2392 0.961 . S
C2405 H2393 0.959 . S
C2405 C2403 1.561 . S
C2406 C2403 1.526 . S
C2406 C2407 1.396 . S
C2406 C2411 1.390 . S
C2407 C2401 1.465 . S
C2407 C2406 1.396 . S
C2407 C2408 1.399 . S
C2408 H2394 0.929 . S
C2408 C2407 1.399 . S
C2408 C2409 1.385 . S
C2409 H2395 0.931 . S
C2409 C2408 1.385 . S
C2409 C2410 1.389 . S
C2410 C2409 1.389 . S
C2410 C2411 1.387 . S
C2411 H2396 0.930 . S
C2411 C2406 1.390 . S
C2411 C2410 1.387 . S
H2412 C2424 0.930 . S
H2413 C2426 0.930 . S
H2414 C2427 0.930 . S
H2415 C2431 0.959 . S
H2416 C2431 0.959 . S
H2417 C2431 0.961 . S
H2418 C2432 0.960 . S
H2419 C2432 0.961 . S
H2420 C2432 0.959 . S
H2421 C2435 0.929 . S
H2422 C2436 0.931 . S
H2423 C2438 0.930 . S
C2424 H2412 0.930 . S
C2424 C2425 1.399 . S
C2424 C2429 1.399 . S
C2425 C2424 1.399 . S
C2425 C2426 1.376 . S
C2426 H2413 0.930 . S
C2426 C2425 1.376 . S
C2426 C2427 1.388 . S
C2427 H2414 0.930 . S
C2427 C2426 1.388 . S
C2427 C2428 1.390 . S
C2428 C2427 1.390 . S
C2428 C2429 1.394 . S
C2428 C2434 1.465 . S
C2429 C2424 1.399 . S
C2429 C2428 1.394 . S
C2429 C2430 1.516 . S
C2430 C2429 1.516 . S
C2430 C2431 1.502 . S
C2430 C2432 1.561 . S
C2430 C2433 1.526 . S
C2431 H2415 0.959 . S
C2431 H2416 0.959 . S
C2431 H2417 0.961 . S
C2431 C2430 1.502 . S
C2432 H2418 0.960 . S
C2432 H2419 0.961 . S
C2432 H2420 0.959 . S
C2432 C2430 1.561 . S
C2433 C2430 1.526 . S
C2433 C2434 1.396 . S
C2433 C2438 1.390 . S
C2434 C2428 1.465 . S
C2434 C2433 1.396 . S
C2434 C2435 1.399 . S
C2435 H2421 0.929 . S
C2435 C2434 1.399 . S
C2435 C2436 1.385 . S
C2436 H2422 0.931 . S
C2436 C2435 1.385 . S
C2436 C2437 1.389 . S
C2437 C2436 1.389 . S
C2437 C2438 1.387 . S
C2438 H2423 0.930 . S
C2438 C2433 1.390 . S
C2438 C2437 1.387 . S
H2439 C2451 0.930 . S
H2440 C2453 0.930 . S
H2441 C2454 0.930 . S
H2442 C2458 0.959 . S
H2443 C2458 0.959 . S
H2444 C2458 0.961 . S
H2445 C2459 0.960 . S
H2446 C2459 0.961 . S
H2447 C2459 0.959 . S
H2448 C2462 0.929 . S
H2449 C2463 0.931 . S
H2450 C2465 0.930 . S
C2451 H2439 0.930 . S
C2451 C2452 1.399 . S
C2451 C2456 1.399 . S
C2452 C2451 1.399 . S
C2452 C2453 1.376 . S
C2453 H2440 0.930 . S
C2453 C2452 1.376 . S
C2453 C2454 1.388 . S
C2454 H2441 0.930 . S
C2454 C2453 1.388 . S
C2454 C2455 1.390 . S
C2455 C2454 1.390 . S
C2455 C2456 1.394 . S
C2455 C2461 1.465 . S
C2456 C2451 1.399 . S
C2456 C2455 1.394 . S
C2456 C2457 1.516 . S
C2457 C2456 1.516 . S
C2457 C2458 1.502 . S
C2457 C2459 1.561 . S
C2457 C2460 1.526 . S
C2458 H2442 0.959 . S
C2458 H2443 0.959 . S
C2458 H2444 0.961 . S
C2458 C2457 1.502 . S
C2459 H2445 0.960 . S
C2459 H2446 0.961 . S
C2459 H2447 0.959 . S
C2459 C2457 1.561 . S
C2460 C2457 1.526 . S
C2460 C2461 1.396 . S
C2460 C2465 1.390 . S
C2461 C2455 1.465 . S
C2461 C2460 1.396 . S
C2461 C2462 1.399 . S
C2462 H2448 0.929 . S
C2462 C2461 1.399 . S
C2462 C2463 1.385 . S
C2463 H2449 0.931 . S
C2463 C2462 1.385 . S
C2463 C2464 1.389 . S
C2464 C2463 1.389 . S
C2464 C2465 1.387 . S
C2465 H2450 0.930 . S
C2465 C2460 1.390 . S
C2465 C2464 1.387 . S
H2466 C2478 0.930 . S
H2467 C2480 0.930 . S
H2468 C2481 0.930 . S
H2469 C2485 0.959 . S
H2470 C2485 0.959 . S
H2471 C2485 0.961 . S
H2472 C2486 0.960 . S
H2473 C2486 0.961 . S
H2474 C2486 0.959 . S
H2475 C2489 0.929 . S
H2476 C2490 0.931 . S
H2477 C2492 0.930 . S
C2478 H2466 0.930 . S
C2478 C2479 1.399 . S
C2478 C2483 1.399 . S
C2479 C2478 1.399 . S
C2479 C2480 1.376 . S
C2480 H2467 0.930 . S
C2480 C2479 1.376 . S
C2480 C2481 1.388 . S
C2481 H2468 0.930 . S
C2481 C2480 1.388 . S
C2481 C2482 1.390 . S
C2482 C2481 1.390 . S
C2482 C2483 1.394 . S
C2482 C2488 1.465 . S
C2483 C2478 1.399 . S
C2483 C2482 1.394 . S
C2483 C2484 1.516 . S
C2484 C2483 1.516 . S
C2484 C2485 1.502 . S
C2484 C2486 1.561 . S
C2484 C2487 1.526 . S
C2485 H2469 0.959 . S
C2485 H2470 0.959 . S
C2485 H2471 0.961 . S
C2485 C2484 1.502 . S
C2486 H2472 0.960 . S
C2486 H2473 0.961 . S
C2486 H2474 0.959 . S
C2486 C2484 1.561 . S
C2487 C2484 1.526 . S
C2487 C2488 1.396 . S
C2487 C2492 1.390 . S
C2488 C2482 1.465 . S
C2488 C2487 1.396 . S
C2488 C2489 1.399 . S
C2489 H2475 0.929 . S
C2489 C2488 1.399 . S
C2489 C2490 1.385 . S
C2490 H2476 0.931 . S
C2490 C2489 1.385 . S
C2490 C2491 1.389 . S
C2491 C2490 1.389 . S
C2491 C2492 1.387 . S
C2492 H2477 0.930 . S
C2492 C2487 1.390 . S
C2492 C2491 1.387 . S
H2493 C2505 0.930 . S
H2494 C2507 0.930 . S
H2495 C2508 0.930 . S
H2496 C2512 0.959 . S
H2497 C2512 0.959 . S
H2498 C2512 0.961 . S
H2499 C2513 0.960 . S
H2500 C2513 0.961 . S
H2501 C2513 0.959 . S
H2502 C2516 0.929 . S
H2503 C2517 0.931 . S
H2504 C2519 0.930 . S
C2505 H2493 0.930 . S
C2505 C2506 1.399 . S
C2505 C2510 1.399 . S
C2506 C2505 1.399 . S
C2506 C2507 1.376 . S
C2507 H2494 0.930 . S
C2507 C2506 1.376 . S
C2507 C2508 1.388 . S
C2508 H2495 0.930 . S
C2508 C2507 1.388 . S
C2508 C2509 1.390 . S
C2509 C2508 1.390 . S
C2509 C2510 1.394 . S
C2509 C2515 1.465 . S
C2510 C2505 1.399 . S
C2510 C2509 1.394 . S
C2510 C2511 1.516 . S
C2511 C2510 1.516 . S
C2511 C2512 1.502 . S
C2511 C2513 1.561 . S
C2511 C2514 1.526 . S
C2512 H2496 0.959 . S
C2512 H2497 0.959 . S
C2512 H2498 0.961 . S
C2512 C2511 1.502 . S
C2513 H2499 0.960 . S
C2513 H2500 0.961 . S
C2513 H2501 0.959 . S
C2513 C2511 1.561 . S
C2514 C2511 1.526 . S
C2514 C2515 1.396 . S
C2514 C2519 1.390 . S
C2515 C2509 1.465 . S
C2515 C2514 1.396 . S
C2515 C2516 1.399 . S
C2516 H2502 0.929 . S
C2516 C2515 1.399 . S
C2516 C2517 1.385 . S
C2517 H2503 0.931 . S
C2517 C2516 1.385 . S
C2517 C2518 1.389 . S
C2518 C2517 1.389 . S
C2518 C2519 1.387 . S
C2519 H2504 0.930 . S
C2519 C2514 1.390 . S
C2519 C2518 1.387 . S
H2520 C2532 0.930 . S
H2521 C2534 0.930 . S
H2522 C2535 0.930 . S
H2523 C2539 0.959 . S
H2524 C2539 0.959 . S
H2525 C2539 0.961 . S
H2526 C2540 0.960 . S
H2527 C2540 0.961 . S
H2528 C2540 0.959 . S
H2529 C2543 0.929 . S
H2530 C2544 0.931 . S
H2531 C2546 0.930 . S
C2532 H2520 0.930 . S
C2532 C2533 1.399 . S
C2532 C2537 1.399 . S
C2533 C2532 1.399 . S
C2533 C2534 1.376 . S
C2534 H2521 0.930 . S
C2534 C2533 1.376 . S
C2534 C2535 1.388 . S
C2535 H2522 0.930 . S
C2535 C2534 1.388 . S
C2535 C2536 1.390 . S
C2536 C2535 1.390 . S
C2536 C2537 1.394 . S
C2536 C2542 1.465 . S
C2537 C2532 1.399 . S
C2537 C2536 1.394 . S
C2537 C2538 1.516 . S
C2538 C2537 1.516 . S
C2538 C2539 1.502 . S
C2538 C2540 1.561 . S
C2538 C2541 1.526 . S
C2539 H2523 0.959 . S
C2539 H2524 0.959 . S
C2539 H2525 0.961 . S
C2539 C2538 1.502 . S
C2540 H2526 0.960 . S
C2540 H2527 0.961 . S
C2540 H2528 0.959 . S
C2540 C2538 1.561 . S
C2541 C2538 1.526 . S
C2541 C2542 1.396 . S
C2541 C2546 1.390 . S
C2542 C2536 1.465 . S
C2542 C2541 1.396 . S
C2542 C2543 1.399 . S
C2543 H2529 0.929 . S
C2543 C2542 1.399 . S
C2543 C2544 1.385 . S
C2544 H2530 0.931 . S
C2544 C2543 1.385 . S
C2544 C2545 1.389 . S
C2545 C2544 1.389 . S
C2545 C2546 1.387 . S
C2546 H2531 0.930 . S
C2546 C2541 1.390 . S
C2546 C2545 1.387 . S
H2547 C2559 0.930 . S
H2548 C2561 0.930 . S
H2549 C2562 0.930 . S
H2550 C2566 0.959 . S
H2551 C2566 0.959 . S
H2552 C2566 0.961 . S
H2553 C2567 0.960 . S
H2554 C2567 0.961 . S
H2555 C2567 0.959 . S
H2556 C2570 0.929 . S
H2557 C2571 0.931 . S
H2558 C2573 0.930 . S
C2559 H2547 0.930 . S
C2559 C2560 1.399 . S
C2559 C2564 1.399 . S
C2560 C2559 1.399 . S
C2560 C2561 1.376 . S
C2561 H2548 0.930 . S
C2561 C2560 1.376 . S
C2561 C2562 1.388 . S
C2562 H2549 0.930 . S
C2562 C2561 1.388 . S
C2562 C2563 1.390 . S
C2563 C2562 1.390 . S
C2563 C2564 1.394 . S
C2563 C2569 1.465 . S
C2564 C2559 1.399 . S
C2564 C2563 1.394 . S
C2564 C2565 1.516 . S
C2565 C2564 1.516 . S
C2565 C2566 1.502 . S
C2565 C2567 1.561 . S
C2565 C2568 1.526 . S
C2566 H2550 0.959 . S
C2566 H2551 0.959 . S
C2566 H2552 0.961 . S
C2566 C2565 1.502 . S
C2567 H2553 0.960 . S
C2567 H2554 0.961 . S
C2567 H2555 0.959 . S
C2567 C2565 1.561 . S
C2568 C2565 1.526 . S
C2568 C2569 1.396 . S
C2568 C2573 1.390 . S
C2569 C2563 1.465 . S
C2569 C2568 1.396 . S
C2569 C2570 1.399 . S
C2570 H2556 0.929 . S
C2570 C2569 1.399 . S
C2570 C2571 1.385 . S
C2571 H2557 0.931 . S
C2571 C2570 1.385 . S
C2571 C2572 1.389 . S
C2572 C2571 1.389 . S
C2572 C2573 1.387 . S
C2573 H2558 0.930 . S
C2573 C2568 1.390 . S
C2573 C2572 1.387 . S
H2574 C2586 0.930 . S
H2575 C2588 0.930 . S
H2576 C2589 0.930 . S
H2577 C2593 0.959 . S
H2578 C2593 0.959 . S
H2579 C2593 0.961 . S
H2580 C2594 0.960 . S
H2581 C2594 0.961 . S
H2582 C2594 0.959 . S
H2583 C2597 0.929 . S
H2584 C2598 0.931 . S
H2585 C2600 0.930 . S
C2586 H2574 0.930 . S
C2586 C2587 1.399 . S
C2586 C2591 1.399 . S
C2587 C2586 1.399 . S
C2587 C2588 1.376 . S
C2588 H2575 0.930 . S
C2588 C2587 1.376 . S
C2588 C2589 1.388 . S
C2589 H2576 0.930 . S
C2589 C2588 1.388 . S
C2589 C2590 1.390 . S
C2590 C2589 1.390 . S
C2590 C2591 1.394 . S
C2590 C2596 1.465 . S
C2591 C2586 1.399 . S
C2591 C2590 1.394 . S
C2591 C2592 1.516 . S
C2592 C2591 1.516 . S
C2592 C2593 1.502 . S
C2592 C2594 1.561 . S
C2592 C2595 1.526 . S
C2593 H2577 0.959 . S
C2593 H2578 0.959 . S
C2593 H2579 0.961 . S
C2593 C2592 1.502 . S
C2594 H2580 0.960 . S
C2594 H2581 0.961 . S
C2594 H2582 0.959 . S
C2594 C2592 1.561 . S
C2595 C2592 1.526 . S
C2595 C2596 1.396 . S
C2595 C2600 1.390 . S
C2596 C2590 1.465 . S
C2596 C2595 1.396 . S
C2596 C2597 1.399 . S
C2597 H2583 0.929 . S
C2597 C2596 1.399 . S
C2597 C2598 1.385 . S
C2598 H2584 0.931 . S
C2598 C2597 1.385 . S
C2598 C2599 1.389 . S
C2599 C2598 1.389 . S
C2599 C2600 1.387 . S
C2600 H2585 0.930 . S
C2600 C2595 1.390 . S
C2600 C2599 1.387 . S
H2601 C2613 0.930 . S
H2602 C2615 0.930 . S
H2603 C2616 0.930 . S
H2604 C2620 0.959 . S
H2605 C2620 0.959 . S
H2606 C2620 0.961 . S
H2607 C2621 0.960 . S
H2608 C2621 0.961 . S
H2609 C2621 0.959 . S
H2610 C2624 0.929 . S
H2611 C2625 0.931 . S
H2612 C2627 0.930 . S
C2613 H2601 0.930 . S
C2613 C2614 1.399 . S
C2613 C2618 1.399 . S
C2614 C2613 1.399 . S
C2614 C2615 1.376 . S
C2615 H2602 0.930 . S
C2615 C2614 1.376 . S
C2615 C2616 1.388 . S
C2616 H2603 0.930 . S
C2616 C2615 1.388 . S
C2616 C2617 1.390 . S
C2617 C2616 1.390 . S
C2617 C2618 1.394 . S
C2617 C2623 1.465 . S
C2618 C2613 1.399 . S
C2618 C2617 1.394 . S
C2618 C2619 1.516 . S
C2619 C2618 1.516 . S
C2619 C2620 1.502 . S
C2619 C2621 1.561 . S
C2619 C2622 1.526 . S
C2620 H2604 0.959 . S
C2620 H2605 0.959 . S
C2620 H2606 0.961 . S
C2620 C2619 1.502 . S
C2621 H2607 0.960 . S
C2621 H2608 0.961 . S
C2621 H2609 0.959 . S
C2621 C2619 1.561 . S
C2622 C2619 1.526 . S
C2622 C2623 1.396 . S
C2622 C2627 1.390 . S
C2623 C2617 1.465 . S
C2623 C2622 1.396 . S
C2623 C2624 1.399 . S
C2624 H2610 0.929 . S
C2624 C2623 1.399 . S
C2624 C2625 1.385 . S
C2625 H2611 0.931 . S
C2625 C2624 1.385 . S
C2625 C2626 1.389 . S
C2626 C2625 1.389 . S
C2626 C2627 1.387 . S
C2627 H2612 0.930 . S
C2627 C2622 1.390 . S
C2627 C2626 1.387 . S
H2628 C2640 0.930 . S
H2629 C2642 0.930 . S
H2630 C2643 0.930 . S
H2631 C2647 0.959 . S
H2632 C2647 0.959 . S
H2633 C2647 0.961 . S
H2634 C2648 0.960 . S
H2635 C2648 0.961 . S
H2636 C2648 0.959 . S
H2637 C2651 0.929 . S
H2638 C2652 0.931 . S
H2639 C2654 0.930 . S
C2640 H2628 0.930 . S
C2640 C2641 1.399 . S
C2640 C2645 1.399 . S
C2641 C2640 1.399 . S
C2641 C2642 1.376 . S
C2642 H2629 0.930 . S
C2642 C2641 1.376 . S
C2642 C2643 1.388 . S
C2643 H2630 0.930 . S
C2643 C2642 1.388 . S
C2643 C2644 1.390 . S
C2644 C2643 1.390 . S
C2644 C2645 1.394 . S
C2644 C2650 1.465 . S
C2645 C2640 1.399 . S
C2645 C2644 1.394 . S
C2645 C2646 1.516 . S
C2646 C2645 1.516 . S
C2646 C2647 1.502 . S
C2646 C2648 1.561 . S
C2646 C2649 1.526 . S
C2647 H2631 0.959 . S
C2647 H2632 0.959 . S
C2647 H2633 0.961 . S
C2647 C2646 1.502 . S
C2648 H2634 0.960 . S
C2648 H2635 0.961 . S
C2648 H2636 0.959 . S
C2648 C2646 1.561 . S
C2649 C2646 1.526 . S
C2649 C2650 1.396 . S
C2649 C2654 1.390 . S
C2650 C2644 1.465 . S
C2650 C2649 1.396 . S
C2650 C2651 1.399 . S
C2651 H2637 0.929 . S
C2651 C2650 1.399 . S
C2651 C2652 1.385 . S
C2652 H2638 0.931 . S
C2652 C2651 1.385 . S
C2652 C2653 1.389 . S
C2653 C2652 1.389 . S
C2653 C2654 1.387 . S
C2654 H2639 0.930 . S
C2654 C2649 1.390 . S
C2654 C2653 1.387 . S
H2655 C2667 0.930 . S
H2656 C2669 0.930 . S
H2657 C2670 0.930 . S
H2658 C2674 0.959 . S
H2659 C2674 0.959 . S
H2660 C2674 0.961 . S
H2661 C2675 0.960 . S
H2662 C2675 0.961 . S
H2663 C2675 0.959 . S
H2664 C2678 0.929 . S
H2665 C2679 0.931 . S
H2666 C2681 0.930 . S
C2667 H2655 0.930 . S
C2667 C2668 1.399 . S
C2667 C2672 1.399 . S
C2668 C2667 1.399 . S
C2668 C2669 1.376 . S
C2669 H2656 0.930 . S
C2669 C2668 1.376 . S
C2669 C2670 1.388 . S
C2670 H2657 0.930 . S
C2670 C2669 1.388 . S
C2670 C2671 1.390 . S
C2671 C2670 1.390 . S
C2671 C2672 1.394 . S
C2671 C2677 1.465 . S
C2672 C2667 1.399 . S
C2672 C2671 1.394 . S
C2672 C2673 1.516 . S
C2673 C2672 1.516 . S
C2673 C2674 1.502 . S
C2673 C2675 1.561 . S
C2673 C2676 1.526 . S
C2674 H2658 0.959 . S
C2674 H2659 0.959 . S
C2674 H2660 0.961 . S
C2674 C2673 1.502 . S
C2675 H2661 0.960 . S
C2675 H2662 0.961 . S
C2675 H2663 0.959 . S
C2675 C2673 1.561 . S
C2676 C2673 1.526 . S
C2676 C2677 1.396 . S
C2676 C2681 1.390 . S
C2677 C2671 1.465 . S
C2677 C2676 1.396 . S
C2677 C2678 1.399 . S
C2678 H2664 0.929 . S
C2678 C2677 1.399 . S
C2678 C2679 1.385 . S
C2679 H2665 0.931 . S
C2679 C2678 1.385 . S
C2679 C2680 1.389 . S
C2680 C2679 1.389 . S
C2680 C2681 1.387 . S
C2681 H2666 0.930 . S
C2681 C2676 1.390 . S
C2681 C2680 1.387 . S
H2682 C2694 0.930 . S
H2683 C2696 0.930 . S
H2684 C2697 0.930 . S
H2685 C2701 0.959 . S
H2686 C2701 0.959 . S
H2687 C2701 0.961 . S
H2688 C2702 0.960 . S
H2689 C2702 0.961 . S
H2690 C2702 0.959 . S
H2691 C2705 0.929 . S
H2692 C2706 0.931 . S
H2693 C2708 0.930 . S
C2694 H2682 0.930 . S
C2694 C2695 1.399 . S
C2694 C2699 1.399 . S
C2695 C2694 1.399 . S
C2695 C2696 1.376 . S
C2696 H2683 0.930 . S
C2696 C2695 1.376 . S
C2696 C2697 1.388 . S
C2697 H2684 0.930 . S
C2697 C2696 1.388 . S
C2697 C2698 1.390 . S
C2698 C2697 1.390 . S
C2698 C2699 1.394 . S
C2698 C2704 1.465 . S
C2699 C2694 1.399 . S
C2699 C2698 1.394 . S
C2699 C2700 1.516 . S
C2700 C2699 1.516 . S
C2700 C2701 1.502 . S
C2700 C2702 1.561 . S
C2700 C2703 1.526 . S
C2701 H2685 0.959 . S
C2701 H2686 0.959 . S
C2701 H2687 0.961 . S
C2701 C2700 1.502 . S
C2702 H2688 0.960 . S
C2702 H2689 0.961 . S
C2702 H2690 0.959 . S
C2702 C2700 1.561 . S
C2703 C2700 1.526 . S
C2703 C2704 1.396 . S
C2703 C2708 1.390 . S
C2704 C2698 1.465 . S
C2704 C2703 1.396 . S
C2704 C2705 1.399 . S
C2705 H2691 0.929 . S
C2705 C2704 1.399 . S
C2705 C2706 1.385 . S
C2706 H2692 0.931 . S
C2706 C2705 1.385 . S
C2706 C2707 1.389 . S
C2707 C2706 1.389 . S
C2707 C2708 1.387 . S
C2708 H2693 0.930 . S
C2708 C2703 1.390 . S
C2708 C2707 1.387 . S
H2709 C2721 0.930 . S
H2710 C2723 0.930 . S
H2711 C2724 0.930 . S
H2712 C2728 0.959 . S
H2713 C2728 0.959 . S
H2714 C2728 0.961 . S
H2715 C2729 0.960 . S
H2716 C2729 0.961 . S
H2717 C2729 0.959 . S
H2718 C2732 0.929 . S
H2719 C2733 0.931 . S
H2720 C2735 0.930 . S
C2721 H2709 0.930 . S
C2721 C2722 1.399 . S
C2721 C2726 1.399 . S
C2722 C2721 1.399 . S
C2722 C2723 1.376 . S
C2723 H2710 0.930 . S
C2723 C2722 1.376 . S
C2723 C2724 1.388 . S
C2724 H2711 0.930 . S
C2724 C2723 1.388 . S
C2724 C2725 1.390 . S
C2725 C2724 1.390 . S
C2725 C2726 1.394 . S
C2725 C2731 1.465 . S
C2726 C2721 1.399 . S
C2726 C2725 1.394 . S
C2726 C2727 1.516 . S
C2727 C2726 1.516 . S
C2727 C2728 1.502 . S
C2727 C2729 1.561 . S
C2727 C2730 1.526 . S
C2728 H2712 0.959 . S
C2728 H2713 0.959 . S
C2728 H2714 0.961 . S
C2728 C2727 1.502 . S
C2729 H2715 0.960 . S
C2729 H2716 0.961 . S
C2729 H2717 0.959 . S
C2729 C2727 1.561 . S
C2730 C2727 1.526 . S
C2730 C2731 1.396 . S
C2730 C2735 1.390 . S
C2731 C2725 1.465 . S
C2731 C2730 1.396 . S
C2731 C2732 1.399 . S
C2732 H2718 0.929 . S
C2732 C2731 1.399 . S
C2732 C2733 1.385 . S
C2733 H2719 0.931 . S
C2733 C2732 1.385 . S
C2733 C2734 1.389 . S
C2734 C2733 1.389 . S
C2734 C2735 1.387 . S
C2735 H2720 0.930 . S
C2735 C2730 1.390 . S
C2735 C2734 1.387 . S
H2736 C2748 0.930 . S
H2737 C2750 0.930 . S
H2738 C2751 0.930 . S
H2739 C2755 0.959 . S
H2740 C2755 0.959 . S
H2741 C2755 0.961 . S
H2742 C2756 0.960 . S
H2743 C2756 0.961 . S
H2744 C2756 0.959 . S
H2745 C2759 0.929 . S
H2746 C2760 0.931 . S
H2747 C2762 0.930 . S
C2748 H2736 0.930 . S
C2748 C2749 1.399 . S
C2748 C2753 1.399 . S
C2749 C2748 1.399 . S
C2749 C2750 1.376 . S
C2750 H2737 0.930 . S
C2750 C2749 1.376 . S
C2750 C2751 1.388 . S
C2751 H2738 0.930 . S
C2751 C2750 1.388 . S
C2751 C2752 1.390 . S
C2752 C2751 1.390 . S
C2752 C2753 1.394 . S
C2752 C2758 1.465 . S
C2753 C2748 1.399 . S
C2753 C2752 1.394 . S
C2753 C2754 1.516 . S
C2754 C2753 1.516 . S
C2754 C2755 1.502 . S
C2754 C2756 1.561 . S
C2754 C2757 1.526 . S
C2755 H2739 0.959 . S
C2755 H2740 0.959 . S
C2755 H2741 0.961 . S
C2755 C2754 1.502 . S
C2756 H2742 0.960 . S
C2756 H2743 0.961 . S
C2756 H2744 0.959 . S
C2756 C2754 1.561 . S
C2757 C2754 1.526 . S
C2757 C2758 1.396 . S
C2757 C2762 1.390 . S
C2758 C2752 1.465 . S
C2758 C2757 1.396 . S
C2758 C2759 1.399 . S
C2759 H2745 0.929 . S
C2759 C2758 1.399 . S
C2759 C2760 1.385 . S
C2760 H2746 0.931 . S
C2760 C2759 1.385 . S
C2760 C2761 1.389 . S
C2761 C2760 1.389 . S
C2761 C2762 1.387 . S
C2762 H2747 0.930 . S
C2762 C2757 1.390 . S
C2762 C2761 1.387 . S
H2763 C2775 0.930 . S
H2764 C2777 0.930 . S
H2765 C2778 0.930 . S
H2766 C2782 0.959 . S
H2767 C2782 0.959 . S
H2768 C2782 0.961 . S
H2769 C2783 0.960 . S
H2770 C2783 0.961 . S
H2771 C2783 0.959 . S
H2772 C2786 0.929 . S
H2773 C2787 0.931 . S
H2774 C2789 0.930 . S
C2775 H2763 0.930 . S
C2775 C2776 1.399 . S
C2775 C2780 1.399 . S
C2776 C2775 1.399 . S
C2776 C2777 1.376 . S
C2777 H2764 0.930 . S
C2777 C2776 1.376 . S
C2777 C2778 1.388 . S
C2778 H2765 0.930 . S
C2778 C2777 1.388 . S
C2778 C2779 1.390 . S
C2779 C2778 1.390 . S
C2779 C2780 1.394 . S
C2779 C2785 1.465 . S
C2780 C2775 1.399 . S
C2780 C2779 1.394 . S
C2780 C2781 1.516 . S
C2781 C2780 1.516 . S
C2781 C2782 1.502 . S
C2781 C2783 1.561 . S
C2781 C2784 1.526 . S
C2782 H2766 0.959 . S
C2782 H2767 0.959 . S
C2782 H2768 0.961 . S
C2782 C2781 1.502 . S
C2783 H2769 0.960 . S
C2783 H2770 0.961 . S
C2783 H2771 0.959 . S
C2783 C2781 1.561 . S
C2784 C2781 1.526 . S
C2784 C2785 1.396 . S
C2784 C2789 1.390 . S
C2785 C2779 1.465 . S
C2785 C2784 1.396 . S
C2785 C2786 1.399 . S
C2786 H2772 0.929 . S
C2786 C2785 1.399 . S
C2786 C2787 1.385 . S
C2787 H2773 0.931 . S
C2787 C2786 1.385 . S
C2787 C2788 1.389 . S
C2788 C2787 1.389 . S
C2788 C2789 1.387 . S
C2789 H2774 0.930 . S
C2789 C2784 1.390 . S
C2789 C2788 1.387 . S
H2790 C2802 0.930 . S
H2791 C2804 0.930 . S
H2792 C2805 0.930 . S
H2793 C2809 0.959 . S
H2794 C2809 0.959 . S
H2795 C2809 0.961 . S
H2796 C2810 0.960 . S
H2797 C2810 0.961 . S
H2798 C2810 0.959 . S
H2799 C2813 0.929 . S
H2800 C2814 0.931 . S
H2801 C2816 0.930 . S
C2802 H2790 0.930 . S
C2802 C2803 1.399 . S
C2802 C2807 1.399 . S
C2803 C2802 1.399 . S
C2803 C2804 1.376 . S
C2804 H2791 0.930 . S
C2804 C2803 1.376 . S
C2804 C2805 1.388 . S
C2805 H2792 0.930 . S
C2805 C2804 1.388 . S
C2805 C2806 1.390 . S
C2806 C2805 1.390 . S
C2806 C2807 1.394 . S
C2806 C2812 1.465 . S
C2807 C2802 1.399 . S
C2807 C2806 1.394 . S
C2807 C2808 1.516 . S
C2808 C2807 1.516 . S
C2808 C2809 1.502 . S
C2808 C2810 1.561 . S
C2808 C2811 1.526 . S
C2809 H2793 0.959 . S
C2809 H2794 0.959 . S
C2809 H2795 0.961 . S
C2809 C2808 1.502 . S
C2810 H2796 0.960 . S
C2810 H2797 0.961 . S
C2810 H2798 0.959 . S
C2810 C2808 1.561 . S
C2811 C2808 1.526 . S
C2811 C2812 1.396 . S
C2811 C2816 1.390 . S
C2812 C2806 1.465 . S
C2812 C2811 1.396 . S
C2812 C2813 1.399 . S
C2813 H2799 0.929 . S
C2813 C2812 1.399 . S
C2813 C2814 1.385 . S
C2814 H2800 0.931 . S
C2814 C2813 1.385 . S
C2814 C2815 1.389 . S
C2815 C2814 1.389 . S
C2815 C2816 1.387 . S
C2816 H2801 0.930 . S
C2816 C2811 1.390 . S
C2816 C2815 1.387 . S
H2817 C2829 0.930 . S
H2818 C2831 0.930 . S
H2819 C2832 0.930 . S
H2820 C2836 0.959 . S
H2821 C2836 0.959 . S
H2822 C2836 0.961 . S
H2823 C2837 0.960 . S
H2824 C2837 0.961 . S
H2825 C2837 0.959 . S
H2826 C2840 0.929 . S
H2827 C2841 0.931 . S
H2828 C2843 0.930 . S
C2829 H2817 0.930 . S
C2829 C2830 1.399 . S
C2829 C2834 1.399 . S
C2830 C2829 1.399 . S
C2830 C2831 1.376 . S
C2831 H2818 0.930 . S
C2831 C2830 1.376 . S
C2831 C2832 1.388 . S
C2832 H2819 0.930 . S
C2832 C2831 1.388 . S
C2832 C2833 1.390 . S
C2833 C2832 1.390 . S
C2833 C2834 1.394 . S
C2833 C2839 1.465 . S
C2834 C2829 1.399 . S
C2834 C2833 1.394 . S
C2834 C2835 1.516 . S
C2835 C2834 1.516 . S
C2835 C2836 1.502 . S
C2835 C2837 1.561 . S
C2835 C2838 1.526 . S
C2836 H2820 0.959 . S
C2836 H2821 0.959 . S
C2836 H2822 0.961 . S
C2836 C2835 1.502 . S
C2837 H2823 0.960 . S
C2837 H2824 0.961 . S
C2837 H2825 0.959 . S
C2837 C2835 1.561 . S
C2838 C2835 1.526 . S
C2838 C2839 1.396 . S
C2838 C2843 1.390 . S
C2839 C2833 1.465 . S
C2839 C2838 1.396 . S
C2839 C2840 1.399 . S
C2840 H2826 0.929 . S
C2840 C2839 1.399 . S
C2840 C2841 1.385 . S
C2841 H2827 0.931 . S
C2841 C2840 1.385 . S
C2841 C2842 1.389 . S
C2842 C2841 1.389 . S
C2842 C2843 1.387 . S
C2843 H2828 0.930 . S
C2843 C2838 1.390 . S
C2843 C2842 1.387 . S
C913 C76 1.194 . S
C925 C652 1.030 . S
C940 C4 1.217 . S
C952 C668 0.997 . S
C979 C651 1.192 1_655 S
C967 C38 1.315 . S
C1006 C676 1.260 . S
C994 C74 1.368 . S
C1021 C2 1.304 . S
C1033 C685 1.094 . S
C1060 C688 1.089 . S
C1048 C40 1.223 . S
C1075 C182 1.335 . S
C1087 C694 1.090 . S
C1114 C710 1.107 . S
C1102 C112 1.278 . S
C1141 C693 1.162 . S
C1129 C148 1.223 . S
C1156 C184 1.223 . S
C1168 C718 0.981 . S
C1195 C727 1.164 . S
C1183 C110 1.280 . S
C1222 C730 1.104 . S
C1210 C146 1.271 . S
C1249 C739 1.018 . S
C1237 C292 1.238 . S
C1276 C751 1.043 . S
C1264 C220 1.237 . S
C1303 C748 1.114 . S
C1291 C254 1.329 . S
C1318 C290 1.336 . S
C1330 C757 1.245 . S
C1357 C756 1.208 . S
C1345 C218 1.281 . S
C1372 C256 1.223 . S
C1384 C773 1.116 . S
C1411 C778 1.108 . S
C1399 C398 1.319 . S
C1438 C794 1.070 . S
C1426 C328 1.278 . S
C1453 C364 1.211 . S
C1465 C777 0.991 . S
C1492 C802 1.002 . S
C1480 C400 1.235 . S
C1519 C811 1.199 . S
C1507 C326 1.351 . S
C1534 C362 1.297 . S
C1546 C814 1.066 . S
C1561 C508 1.195 . S
C1573 C823 1.051 . S
C1600 C835 1.005 . S
C1588 C436 1.222 . S
C1627 C832 1.269 . S
C1615 C470 1.355 . S
C1642 C506 1.370 . S
C1654 C841 1.259 . S
C1681 C840 1.078 . S
C1669 C434 1.291 . S
C1696 C472 1.223 . S
C1708 C857 1.120 . S
C1735 C862 1.091 . S
C1723 C614 1.333 . S
C1762 C878 1.085 . S
C1750 C544 1.211 . S
C1777 C580 1.214 . S
C1789 C861 0.991 . S
C1816 C883 0.987 . S
C1804 C616 1.195 . S
C1843 C882 1.230 . S
C1831 C542 1.340 . S
C1870 C899 1.229 . S
C1858 C578 1.300 . S
C1897 C664 1.475 . S
C1885 C399 1.522 . S
C1912 C338 1.532 . S
C1924 C667 1.553 . S
C1951 C655 1.463 . S
C1939 C374 1.469 . S
C1966 C626 1.463 . S
C1978 C672 1.426 . S
C1993 C543 1.623 . S
C2005 C673 1.540 . S
C2032 C689 1.354 . S
C2020 C579 1.489 . S
C2059 C706 1.528 . S
C2047 C518 1.581 . S
C2086 C709 1.339 . S
C2074 C446 1.430 . S
C2101 C471 1.553 . S
C2113 C697 1.502 . S
C2140 C714 1.533 1_655 S
C2128 C291 1.578 . S
C2155 C219 1.480 . S
C2167 C715 1.336 . S
C2182 C266 1.511 . S
C2194 C731 1.514 . S
C2209 C615 1.534 . S
C2221 C735 1.395 . S
C2236 C554 1.510 . S
C2248 C752 1.481 . S
C2275 C736 1.418 . S
C2263 C590 1.498 . S
C2302 C769 1.440 . S
C2290 C194 1.528 . S
C2329 C760 1.547 . S
C2317 C111 1.620 . S
C2344 C147 1.482 . S
C2356 C772 1.440 . S
C2383 C790 1.553 . S
C2371 C86 1.522 . S
C2410 C793 1.417 . S
C2398 C14 1.400 . S
C2425 C39 1.561 . S
C2437 C781 1.406 . S
C2464 C798 1.511 . S
C2452 C507 1.575 . S
C2491 C799 1.431 . S
C2479 C435 1.476 . S
C2518 C815 1.532 . S
C2506 C482 1.467 . S
C2545 C819 1.480 . S
C2533 C183 1.524 . S
C2572 C836 1.522 . S
C2560 C122 1.564 . S
C2587 C158 1.474 . S
C2599 C820 1.459 . S
C2614 C410 1.528 1_565 S
C2626 C853 1.439 . S
C2641 C327 1.613 . S
C2653 C844 1.455 . S
C2680 C856 1.353 . S
C2668 C363 1.489 . S
C2695 C302 1.523 . S
C2707 C874 1.551 . S
C2722 C230 1.359 . S
C2734 C877 1.434 . S
C2761 C865 1.495 . S
C2749 C255 1.543 . S
C2788 C895 1.466 . S
C2776 C75 1.596 . S
C2815 C886 1.418 . S
C2803 C3 1.483 . S
C2830 C50 1.532 . S
C2842 C898 1.493 . S
