# Generated by pormake.
# Topology zzz, (3,6)-cn, num edge types: 1
# Building blocks:
#     Node 0, Type 0, BuildingBlock: WUSLED_clean_sbu_0, # of connection points: 3
#     Node 1, Type 0, BuildingBlock: WUSLED_clean_sbu_0, # of connection points: 3
#     Node 2, Type 0, BuildingBlock: WUSLED_clean_sbu_0, # of connection points: 3
#     Node 3, Type 0, BuildingBlock: WUSLED_clean_sbu_0, # of connection points: 3
#     Node 4, Type 0, BuildingBlock: WUSLED_clean_sbu_0, # of connection points: 3
#     Node 5, Type 0, BuildingBlock: WUSLED_clean_sbu_0, # of connection points: 3
#     Node 6, Type 0, BuildingBlock: WUSLED_clean_sbu_0, # of connection points: 3
#     Node 7, Type 0, BuildingBlock: WUSLED_clean_sbu_0, # of connection points: 3
#     Node 8, Type 1, BuildingBlock: GEDQOX_clean_sbu_0, # of connection points: 6
#     Node 9, Type 1, BuildingBlock: GEDQOX_clean_sbu_0, # of connection points: 6
#     Node 10, Type 1, BuildingBlock: GEDQOX_clean_sbu_0, # of connection points: 6
#     Node 11, Type 1, BuildingBlock: GEDQOX_clean_sbu_0, # of connection points: 6
#     Edge 12, Type (0, 1), BuildingBlock: MIFKUJ_clean_linker_0, # of connection points: 2
#     Edge 13, Type (0, 1), BuildingBlock: MIFKUJ_clean_linker_0, # of connection points: 2
#     Edge 14, Type (0, 1), BuildingBlock: MIFKUJ_clean_linker_0, # of connection points: 2
#     Edge 15, Type (0, 1), BuildingBlock: MIFKUJ_clean_linker_0, # of connection points: 2
#     Edge 16, Type (0, 1), BuildingBlock: MIFKUJ_clean_linker_0, # of connection points: 2
#     Edge 17, Type (0, 1), BuildingBlock: MIFKUJ_clean_linker_0, # of connection points: 2
#     Edge 18, Type (0, 1), BuildingBlock: MIFKUJ_clean_linker_0, # of connection points: 2
#     Edge 19, Type (0, 1), BuildingBlock: MIFKUJ_clean_linker_0, # of connection points: 2
#     Edge 20, Type (0, 1), BuildingBlock: MIFKUJ_clean_linker_0, # of connection points: 2
#     Edge 21, Type (0, 1), BuildingBlock: MIFKUJ_clean_linker_0, # of connection points: 2
#     Edge 22, Type (0, 1), BuildingBlock: MIFKUJ_clean_linker_0, # of connection points: 2
#     Edge 23, Type (0, 1), BuildingBlock: MIFKUJ_clean_linker_0, # of connection points: 2
#     Edge 24, Type (0, 1), BuildingBlock: MIFKUJ_clean_linker_0, # of connection points: 2
#     Edge 25, Type (0, 1), BuildingBlock: MIFKUJ_clean_linker_0, # of connection points: 2
#     Edge 26, Type (0, 1), BuildingBlock: MIFKUJ_clean_linker_0, # of connection points: 2
#     Edge 27, Type (0, 1), BuildingBlock: MIFKUJ_clean_linker_0, # of connection points: 2
#     Edge 28, Type (0, 1), BuildingBlock: MIFKUJ_clean_linker_0, # of connection points: 2
#     Edge 29, Type (0, 1), BuildingBlock: MIFKUJ_clean_linker_0, # of connection points: 2
#     Edge 30, Type (0, 1), BuildingBlock: MIFKUJ_clean_linker_0, # of connection points: 2
#     Edge 31, Type (0, 1), BuildingBlock: MIFKUJ_clean_linker_0, # of connection points: 2
#     Edge 32, Type (0, 1), BuildingBlock: MIFKUJ_clean_linker_0, # of connection points: 2
#     Edge 33, Type (0, 1), BuildingBlock: MIFKUJ_clean_linker_0, # of connection points: 2
#     Edge 34, Type (0, 1), BuildingBlock: MIFKUJ_clean_linker_0, # of connection points: 2
#     Edge 35, Type (0, 1), BuildingBlock: MIFKUJ_clean_linker_0, # of connection points: 2
# Relax obj value: 0.288
# Max RMSD: 0.249
# Mean RMSD: 0.199
data_MOF--net-zzz--node1-WUSLED_clean_sbu_0--node2-GEDQOX_clean_sbu_0--edge1-MIFKUJ_clean_linker_0
_symmetry_space_group_name_H-M    P1
_symmetry_Int_Tables_number       1
_symmetry_cell_setting            triclinic
loop_
_symmetry_equiv_pos_as_xyz
'x, y, z'
_cell_length_a     81.966988
_cell_length_b     75.801418
_cell_length_c     27.477311
_cell_angle_alpha  84.837363
_cell_angle_beta   91.616998
_cell_angle_gamma 100.7147
loop_
_atom_site_label
_atom_site_type_symbol
_atom_site_fract_x
_atom_site_fract_y
_atom_site_fract_z
_atom_type_partial_charge
C0 C 0.76823 0.44871 0.26248 0.0
C1 C 0.7849 0.45086 0.24885 0.0
C2 C 0.79403 0.45601 0.33214 0.0
C3 C 0.79765 0.45455 0.28318 0.0
C4 C 0.77731 0.45316 0.34636 0.0
C5 C 0.76447 0.44965 0.31159 0.0
U6 U 0.75893 0.44118 0.13262 0.0
O7 O 0.73833 0.42566 0.09187 0.0
O8 O 0.74585 0.4549 0.07441 0.0
C9 C 0.73548 0.4401 0.06519 0.0
C10 C 0.75519 0.44626 0.22434 0.0
C11 C 0.71803 0.44185 0.05614 0.0
C12 C 0.69424 0.45576 0.06935 0.0
C13 C 0.71006 0.45248 0.08347 0.0
C14 C 0.69405 0.43736 1.0016 0.0
C15 C 0.68623 0.44856 0.02753 0.0
C16 C 0.70977 0.43404 0.01581 0.0
C17 C 0.79881 0.43727 0.0642 0.0
C18 C 0.81275 0.45136 0.98985 0.0
C19 C 0.82067 0.42446 0.03049 0.0
C20 C 0.80856 0.42384 0.06576 0.0
C21 C 0.82332 0.43867 0.99346 0.0
C22 C 0.80054 0.45063 0.02479 0.0
C23 C 0.789 0.43866 0.10742 0.0
O24 O 0.75685 0.45938 0.18911 0.0
O25 O 0.75203 0.43018 0.20788 0.0
O26 O 0.78407 0.45406 0.11029 0.0
O27 O 0.77781 0.42454 0.12214 0.0
H28 H 0.78809 0.45004 0.21125 0.0
H29 H 0.8104 0.45642 0.27133 0.0
H30 H 0.77421 0.45422 0.38391 0.0
H31 H 0.75167 0.44799 0.32282 0.0
H32 H 0.68858 0.46451 0.08995 0.0
H33 H 0.71627 0.45869 0.11464 0.0
H34 H 0.68812 0.43138 0.96975 0.0
H35 H 0.71573 0.42582 0.99422 0.0
H36 H 0.81449 0.46237 0.96135 0.0
H37 H 0.82874 0.4146 0.03429 0.0
H38 H 0.80751 0.41346 0.09592 0.0
H39 H 0.79314 0.46113 0.02239 0.0
C40 C 0.93198 0.7569 0.29571 0.0
C41 C 0.92657 0.77294 0.27915 0.0
C42 C 0.93508 0.7857 0.35626 0.0
C43 C 0.92804 0.78714 0.30909 0.0
C44 C 0.94009 0.7694 0.37326 0.0
C45 C 0.93861 0.75515 0.34314 0.0
U46 U 0.9306 0.74639 0.16592 0.0
O47 O 0.94622 0.7332 0.12277 0.0
O48 O 0.91915 0.72344 0.12453 0.0
C49 C 0.93351 0.72173 0.10712 0.0
C50 C 0.93222 0.74299 0.26152 0.0
C51 C 0.9362 0.7036 0.09822 0.0
C52 C 0.95191 0.67926 0.11 0.0
C53 C 0.94759 0.69491 0.12555 0.0
C54 C 0.93317 0.68062 0.04066 0.0
C55 C 0.94509 0.67218 0.0665 0.0
C56 C 0.92875 0.69606 0.05648 0.0
C57 C 0.92772 0.78602 0.07366 0.0
C58 C 0.93703 0.78643 0.9904 0.0
C59 C 0.92888 0.81293 0.01837 0.0
C60 C 0.92503 0.80368 0.06403 0.0
C61 C 0.9356 0.80465 0.98173 0.0
C62 C 0.9331 0.77716 0.03611 0.0
C63 C 0.92725 0.77801 0.12423 0.0
O64 O 0.91833 0.73817 0.23687 0.0
O65 O 0.94545 0.74598 0.23388 0.0
O66 O 0.94149 0.77419 0.14064 0.0
O67 O 0.91451 0.76517 0.13596 0.0
H68 H 0.92155 0.77467 0.24248 0.0
H69 H 0.92382 0.79934 0.295 0.0
H70 H 0.94571 0.76788 0.40917 0.0
H71 H 0.94306 0.74298 0.35639 0.0
H72 H 0.96088 0.67298 0.13149 0.0
H73 H 0.95354 0.70054 0.15783 0.0
H74 H 0.92781 0.67592 1.00665 0.0
H75 H 0.9201 0.7027 0.03448 0.0
H76 H 0.94203 0.77966 0.96277 0.0
H77 H 0.92782 0.82701 0.01322 0.0
H78 H 0.92094 0.81071 0.09273 0.0
H79 H 0.93522 0.76346 0.04308 0.0
C80 C 0.74432 1.00574 0.23439 0.0
C81 C 0.72742 1.00034 0.22314 0.0
C82 C 0.72009 1.00167 0.30785 0.0
C83 C 0.71546 0.99828 0.25942 0.0
C84 C 0.73706 1.00716 0.31905 0.0
C85 C 0.74908 1.00915 0.28257 0.0
U86 U 0.75167 1.01336 0.10051 0.0
O87 O 0.77018 0.03185 0.05475 0.0
O88 O 0.76676 1.0026 0.04951 0.0
C89 C 0.77488 0.01867 0.03401 0.0
C90 C 0.75664 1.0087 0.19497 0.0
C91 C 0.79271 0.02028 0.02542 0.0
C92 C 0.8213 0.02146 0.05304 0.0
C93 C 0.80441 0.01996 0.0636 0.0
C94 C 0.81477 0.02355 0.9664 0.0
C95 C 0.82667 0.02333 1.00421 0.0
C96 C 0.79801 0.02207 0.97695 0.0
C97 C 0.7126 0.01537 0.02287 0.0
C98 C 0.71281 0.02775 0.93811 0.0
C99 C 0.68686 1.01338 0.97647 0.0
C100 C 0.69539 1.00978 0.01978 0.0
C101 C 0.69542 0.02269 0.93537 0.0
C102 C 0.72135 0.02405 0.98156 0.0
C103 C 0.721 1.0129 0.07013 0.0
O104 O 0.75535 0.99555 0.16609 0.0
O105 O 0.75855 0.02472 0.17087 0.0
O106 O 0.73076 0.02736 0.08429 0.0
O107 O 0.72749 0.99828 0.07749 0.0
H108 H 0.72343 0.99793 0.186 0.0
H109 H 0.70251 0.99438 0.24923 0.0
H110 H 0.74105 1.0098 0.35603 0.0
H111 H 0.76205 1.01348 0.29188 0.0
H112 H 0.83016 0.02133 0.08301 0.0
H113 H 0.8005 0.01858 0.1013 0.0
H114 H 0.81836 0.02458 0.92846 0.0
H115 H 0.78911 0.02222 0.94703 0.0
H116 H 0.71974 0.03483 0.90701 0.0
H117 H 0.67345 1.00958 0.97598 0.0
H118 H 0.68846 1.00309 0.05138 0.0
H119 H 0.7347 0.02837 0.98334 0.0
C120 C 0.57906 0.76033 0.47724 0.0
C121 C 0.57437 0.74507 0.45109 0.0
C122 C 0.57602 0.72543 0.52551 0.0
C123 C 0.5728 0.72779 0.47503 0.0
C124 C 0.58126 0.74075 0.55129 0.0
C125 C 0.58269 0.75808 0.52733 0.0
U126 U 0.57876 0.79056 0.36024 0.0
O127 O 0.56399 0.8117 0.34274 0.0
O128 O 0.5912 0.81845 0.33875 0.0
C129 C 0.57706 0.82422 0.33195 0.0
C130 C 0.57934 0.77847 0.45274 0.0
C131 C 0.57539 0.83628 0.28784 0.0
C132 C 0.56944 0.86505 0.25344 0.0
C133 C 0.57265 0.85363 0.29383 0.0
C134 C 0.57222 0.84211 0.19985 0.0
C135 C 0.56888 0.85934 0.20604 0.0
C136 C 0.57539 0.8306 0.24059 0.0
C137 C 0.57856 0.76397 0.24423 0.0
C138 C 0.56879 0.76905 0.16073 0.0
C139 C 0.58298 0.74414 0.18347 0.0
C140 C 0.58503 0.74931 0.23092 0.0
C141 C 0.5745 0.75366 0.14784 0.0
C142 C 0.57072 0.77411 0.20873 0.0
C143 C 0.57889 0.76691 0.29632 0.0
O144 O 0.59285 0.78561 0.42817 0.0
O145 O 0.56565 0.78046 0.4286 0.0
O146 O 0.56521 0.77014 0.31474 0.0
O147 O 0.59253 0.77642 0.31353 0.0
H148 H 0.57161 0.74654 0.41229 0.0
H149 H 0.56897 0.71625 0.45408 0.0
H150 H 0.58374 0.73934 0.59023 0.0
H151 H 0.58631 0.76971 0.54808 0.0
H152 H 0.56722 0.87834 0.25939 0.0
H153 H 0.57263 0.85825 0.33004 0.0
H154 H 0.57183 0.83732 0.1638 0.0
H155 H 0.57748 0.81721 0.23537 0.0
H156 H 0.56239 0.77685 0.13422 0.0
H157 H 0.58723 0.732 0.17577 0.0
H158 H 0.59102 0.74126 0.25799 0.0
H159 H 0.56561 0.78548 0.21845 0.0
C160 C 0.25858 0.57383 0.34372 0.0
C161 C 0.2431 0.57854 0.35082 0.0
C162 C 0.23275 0.56692 0.27388 0.0
C163 C 0.23032 0.5751 0.31636 0.0
C164 C 0.24848 0.56282 0.26591 0.0
C165 C 0.26128 0.56616 0.30076 0.0
U166 U 0.26833 0.58613 0.47043 0.0
O167 O 0.27896 0.57251 0.53437 0.0
O168 O 0.29036 0.60018 0.50823 0.0
C169 C 0.29111 0.58621 0.53973 0.0
C170 C 0.27116 0.57573 0.38319 0.0
C171 C 0.30765 0.58174 0.55008 0.0
C172 C 0.33225 0.57103 0.52665 0.0
C173 C 0.31672 0.57561 0.51462 0.0
C174 C 0.32971 0.57874 0.60942 0.0
C175 C 0.33893 0.57252 0.57431 0.0
C176 C 0.31427 0.5833 0.59737 0.0
C177 C 0.23091 0.60077 0.52855 0.0
C178 C 0.22131 0.59571 0.61234 0.0
C179 C 0.20728 0.61309 0.55195 0.0
C180 C 0.21858 0.61104 0.51674 0.0
C181 C 0.2081 0.60482 0.59965 0.0
C182 C 0.23264 0.5937 0.57703 0.0
C183 C 0.24001 0.59552 0.48852 0.0
O184 O 0.27672 0.59234 0.39422 0.0
O185 O 0.26726 0.56439 0.42193 0.0
O186 O 0.24234 0.57877 0.49265 0.0
O187 O 0.25295 0.60714 0.47143 0.0
H188 H 0.24075 0.58446 0.38377 0.0
H189 H 0.21844 0.57864 0.32328 0.0
H190 H 0.25068 0.5564 0.23367 0.0
H191 H 0.27312 0.56234 0.29479 0.0
H192 H 0.33907 0.56645 0.49859 0.0
H193 H 0.31177 0.57431 0.47788 0.0
H194 H 0.33424 0.57974 0.64665 0.0
H195 H 0.30738 0.5879 0.62529 0.0
H196 H 0.22235 0.58935 0.64892 0.0
H197 H 0.19716 0.61998 0.54072 0.0
H198 H 0.21702 0.61653 0.47945 0.0
H199 H 0.24215 0.58579 0.58693 0.0
C200 C 0.09338 0.26395 0.29429 0.0
C201 C 0.10038 0.24999 0.31878 0.0
C202 C 0.08773 0.22929 0.2592 0.0
C203 C 0.09762 0.23282 0.30126 0.0
C204 C 0.08063 0.24329 0.23536 0.0
C205 C 0.08344 0.26038 0.25267 0.0
U206 U 0.09694 0.2998 0.38857 0.0
O207 O 0.11403 0.32593 0.39134 0.0
O208 O 0.08745 0.3251 0.37713 0.0
C209 C 0.10181 0.33504 0.38757 0.0
C210 C 0.09652 0.28252 0.30964 0.0
C211 C 0.10119 0.34739 0.42573 0.0
C212 C 0.10715 0.37764 0.45256 0.0
C213 C 0.1089 0.36552 0.41834 0.0
C214 C 0.09028 0.35352 0.50265 0.0
C215 C 0.09752 0.37189 0.49473 0.0
C216 C 0.09217 0.3414 0.46864 0.0
C217 C 0.08715 0.26221 0.49266 0.0
C218 C 0.08246 0.24045 0.56324 0.0
C219 C 0.07883 0.23039 0.48163 0.0
C220 C 0.08331 0.24823 0.46173 0.0
C221 C 0.07811 0.22637 0.53263 0.0
C222 C 0.08693 0.25822 0.54336 0.0
C223 C 0.09095 0.28109 0.47318 0.0
O224 O 0.08352 0.28817 0.32505 0.0
O225 O 0.11011 0.28766 0.33527 0.0
O226 O 0.07933 0.28678 0.44542 0.0
O227 O 0.10599 0.28671 0.45601 0.0
H228 H 0.10805 0.25236 0.35113 0.0
H229 H 0.10316 0.2223 0.32075 0.0
H230 H 0.07318 0.24118 0.20248 0.0
H231 H 0.07799 0.27095 0.23301 0.0
H232 H 0.11317 0.39158 0.44561 0.0
H233 H 0.116 0.37037 0.3856 0.0
H234 H 0.08262 0.34857 0.53421 0.0
H235 H 0.08615 0.32742 0.47515 0.0
H236 H 0.08232 0.23774 0.60262 0.0
H237 H 0.07547 0.21982 0.45718 0.0
H238 H 0.08348 0.25116 0.4224 0.0
H239 H 0.08998 0.26889 0.56763 0.0
C240 C 0.28505 0.03181 0.34293 0.0
C241 C 0.30076 0.0418 0.35393 0.0
C242 C 0.31159 0.0359 0.27653 0.0
C243 C 0.31381 0.0439 0.32105 0.0
C244 C 0.29572 0.0264 0.2648 0.0
C245 C 0.28259 0.02437 0.29773 0.0
U246 U 0.27474 0.01542 0.472 0.0
O247 O 0.26056 0.02409 0.5292 0.0
O248 O 0.25419 0.99627 0.50816 0.0
C249 C 0.25078 1.00826 0.5362 0.0
C250 C 0.27198 0.02745 0.38055 0.0
C251 C 0.23319 1.00811 0.5455 0.0
C252 C 0.20757 0.0197 0.53116 0.0
C253 C 0.22389 0.01928 0.51776 0.0
C254 C 0.20977 0.99761 0.59933 0.0
C255 C 0.20046 1.00907 0.57266 0.0
C256 C 0.22593 0.99715 0.58584 0.0
C257 C 0.31174 1.00296 0.54728 0.0
C258 C 0.32155 1.00637 0.6309 0.0
C259 C 0.32723 0.98151 0.58859 0.0
C260 C 0.31874 0.98742 0.5474 0.0
C261 C 0.329 0.99112 0.63041 0.0
C262 C 0.31294 1.01222 0.58974 0.0
C263 C 0.3041 1.00967 0.50172 0.0
O264 O 0.26801 1.01025 0.39563 0.0
O265 O 0.27366 0.03802 0.41657 0.0
O266 O 0.29964 0.02548 0.50119 0.0
O267 O 0.29322 0.99769 0.48045 0.0
H268 H 0.30317 0.04759 0.38862 0.0
H269 H 0.32573 0.05162 0.33095 0.0
H270 H 0.29359 0.01993 0.23104 0.0
H271 H 0.27067 0.01645 0.28862 0.0
H272 H 0.20071 0.0287 0.50999 0.0
H273 H 0.22934 0.02789 0.48655 0.0
H274 H 0.20456 0.98903 0.6309 0.0
H275 H 0.23294 0.98844 0.60768 0.0
H276 H 0.32273 0.014 0.66271 0.0
H277 H 0.33311 0.96991 0.58679 0.0
H278 H 0.31807 0.98012 0.51504 0.0
H279 H 0.3076 0.02422 0.59087 0.0
C280 C 0.44906 0.26614 0.10771 0.0
C281 C 0.44408 0.27948 0.13301 0.0
C282 C 0.44943 0.30099 0.06121 0.0
C283 C 0.4442 0.29673 0.10993 0.0
C284 C 0.4541 0.2874 0.03582 0.0
C285 C 0.45391 0.27015 0.05891 0.0
U286 U 0.45086 0.23654 0.22559 0.0
O287 O 0.44127 0.20773 0.24482 0.0
O288 O 0.46816 0.21806 0.24585 0.0
C289 C 0.45616 0.20408 0.25434 0.0
C290 C 0.45051 0.24854 0.13301 0.0
C291 C 0.45809 0.19223 0.2987 0.0
C292 C 0.4674 0.16539 0.33496 0.0
C293 C 0.46532 0.17713 0.29418 0.0
C294 C 0.45508 0.18373 0.38597 0.0
C295 C 0.46222 0.16841 0.38139 0.0
C296 C 0.45303 0.19557 0.34486 0.0
C297 C 0.4467 0.26125 0.34227 0.0
C298 C 0.46006 0.26102 0.4223 0.0
C299 C 0.43835 0.27847 0.40434 0.0
C300 C 0.4364 0.27241 0.35773 0.0
C301 C 0.45068 0.27347 0.43651 0.0
C302 C 0.45811 0.25498 0.37543 0.0
C303 C 0.44694 0.25892 0.2898 0.0
O304 O 0.46422 0.24856 0.1589 0.0
O305 O 0.43721 0.23969 0.15606 0.0
O306 O 0.43444 0.24785 0.27169 0.0
O307 O 0.46139 0.25817 0.27136 0.0
H308 H 0.4404 0.27665 0.17091 0.0
H309 H 0.44033 0.30676 0.1304 0.0
H310 H 0.45843 0.29024 0.99857 0.0
H311 H 0.45798 0.26007 0.03901 0.0
H312 H 0.47332 0.15403 0.33011 0.0
H313 H 0.46942 0.17443 0.2589 0.0
H314 H 0.45091 0.18644 0.42112 0.0
H315 H 0.44748 0.20725 0.34902 0.0
H316 H 0.46947 0.25666 0.44651 0.0
H317 H 0.43102 0.28817 0.41356 0.0
H318 H 0.42756 0.27744 0.33256 0.0
H319 H 0.46613 0.24624 0.36428 0.0
Nd320 Nd 1.00159 1.00802 0.75198 0.0
Nd321 Nd 0.02456 0.01446 0.83687 0.0
C322 C 0.97721 0.99463 0.69293 0.0
C323 C 0.9733 0.97778 0.66774 0.0
C324 C 0.95853 0.9654 0.67811 0.0
C325 C 0.95495 0.9492 0.65564 0.0
C326 C 0.96602 0.94508 0.62198 0.0
C327 C 0.98079 0.95749 0.61169 0.0
C328 C 0.98442 0.97359 0.63435 0.0
C329 C 0.03404 1.0076 0.73008 0.0
C330 C 0.00831 0.9741 0.82644 0.0
C331 C 0.04817 0.02646 0.90018 0.0
C332 C 0.05164 0.04156 0.93201 0.0
C333 C 0.06727 0.05291 0.93078 0.0
C334 C 0.07073 0.06737 0.96013 0.0
C335 C 0.05863 0.0708 0.99165 0.0
C336 C 0.04298 0.05933 0.99288 0.0
C337 C 0.03951 0.04494 0.96331 0.0
C338 C 0.99196 0.01521 0.85697 0.0
C339 C 0.01931 0.04815 0.75728 0.0
O340 O 0.97598 0.99286 0.74052 0.0
O341 O 0.99019 1.00646 0.67797 0.0
O342 O 0.0236 1.01369 0.6999 0.0
O343 O 0.02705 1.00061 0.76931 0.0
O344 O 0.99715 0.98159 0.80117 0.0
O345 O 0.0227 0.98386 0.838 0.0
O346 O 0.04931 0.03076 0.8531 0.0
O347 O 0.03553 1.01361 0.91152 0.0
O348 O 1.00182 1.00787 0.88648 0.0
O349 O 0.99942 0.0225 0.81876 0.0
O350 O 0.02966 0.04088 0.78696 0.0
O351 O 0.00491 0.03864 0.74477 0.0
H352 H 0.94976 0.96825 0.70376 0.0
H353 H 0.9434 0.94001 0.6641 0.0
H354 H 0.98971 0.95464 0.58653 0.0
H355 H 0.99601 0.98269 0.62586 0.0
H356 H 0.07681 0.05064 0.90679 0.0
H357 H 0.08282 0.07603 0.9575 0.0
H358 H 0.03341 0.06133 0.01709 0.0
H359 H 0.0273 0.03648 0.96501 0.0
Nd360 Nd 0.52337 1.00313 0.75769 0.0
Nd361 Nd 0.50978 0.02774 0.83334 0.0
C362 C 0.53589 0.97989 0.71103 0.0
C363 C 0.55097 0.98167 0.68175 0.0
C364 C 0.557 0.96633 0.67136 0.0
C365 C 0.57161 0.96805 0.64471 0.0
C366 C 0.58045 0.98519 0.62789 0.0
C367 C 0.57435 1.00055 0.63884 0.0
C368 C 0.5598 0.9988 0.66564 0.0
C369 C 0.51547 0.03512 0.71828 0.0
C370 C 0.54831 0.03738 0.7962 0.0
C371 C 0.49451 0.0512 0.87051 0.0
C372 C 0.48106 0.0508 0.90531 0.0
C373 C 0.47015 0.06298 0.89657 0.0
C374 C 0.45671 0.06224 0.92741 0.0
C375 C 0.45393 0.0493 0.96777 0.0
C376 C 0.46504 0.03724 0.97679 0.0
C377 C 0.47842 0.0379 0.94566 0.0
C378 C 0.5217 0.99913 0.88251 0.0
C379 C 0.48494 0.99181 0.79829 0.0
O380 O 0.53849 0.98178 0.75769 0.0
O381 O 0.5243 0.98835 0.69214 0.0
O382 O 0.5272 0.02796 0.70177 0.0
O383 O 0.50776 0.02481 0.75212 0.0
O384 O 0.54694 0.02097 0.78215 0.0
O385 O 0.53565 0.04398 0.81147 0.0
O386 O 0.50853 0.04719 0.88822 0.0
O387 O 0.48997 0.0441 0.82947 0.0
O388 O 0.5151 1.01048 0.90466 0.0
O389 O 0.52139 1.00351 0.83746 0.0
O390 O 0.48695 1.00579 0.82484 0.0
O391 O 0.49662 0.98804 0.77061 0.0
H392 H 0.55047 0.95302 0.6841 0.0
H393 H 0.57606 0.95594 0.63777 0.0
H394 H 0.58067 0.01394 0.62609 0.0
H395 H 0.55541 1.01084 0.67377 0.0
H396 H 0.47192 0.07296 0.86546 0.0
H397 H 0.44849 0.07182 0.91967 0.0
H398 H 0.46311 0.02693 1.00708 0.0
H399 H 0.48655 0.02818 0.9527 0.0
Nd400 Nd 0.50828 0.5231 0.84275 0.0
Nd401 Nd 0.52076 0.50312 0.75619 0.0
C402 C 0.49776 0.54635 0.89485 0.0
C403 C 0.50302 0.56584 0.89783 0.0
C404 C 0.49256 0.57594 0.91751 0.0
C405 C 0.49792 0.59442 0.92137 0.0
C406 C 0.5138 0.6031 0.90508 0.0
C407 C 0.524 0.59292 0.884 0.0
C408 C 0.51872 0.57446 0.88105 0.0
C409 C 0.53466 0.50618 0.86387 0.0
C410 C 0.53383 0.54625 0.75643 0.0
C411 C 0.53541 0.48088 0.71284 0.0
C412 C 0.52872 0.46345 0.69379 0.0
C413 C 0.53785 0.4495 0.69937 0.0
C414 C 0.53075 0.43224 0.68681 0.0
C415 C 0.51433 0.42864 0.66865 0.0
C416 C 0.50538 0.44283 0.66215 0.0
C417 C 0.51246 0.46002 0.6749 0.0
C418 C 0.49039 0.51261 0.73191 0.0
C419 C 0.49336 0.48085 0.83764 0.0
O420 O 0.49075 0.54146 0.8536 0.0
O421 O 0.50858 0.53646 0.91115 0.0
O422 O 0.52325 0.50681 0.89526 0.0
O423 O 0.53234 0.51509 0.82394 0.0
O424 O 0.52433 0.54608 0.79481 0.0
O425 O 0.53534 0.5315 0.73592 0.0
O426 O 0.53482 0.4808 0.7605 0.0
O427 O 0.53093 0.49515 0.68943 0.0
O428 O 0.49819 0.5043 0.70334 0.0
O429 O 0.49883 0.5151 0.77037 0.0
O430 O 0.50484 0.48045 0.805 0.0
O431 O 0.49075 0.4959 0.85449 0.0
H432 H 0.48038 0.56949 0.93069 0.0
H433 H 0.48981 0.60174 0.93842 0.0
H434 H 0.53615 0.59914 0.87019 0.0
H435 H 0.52702 0.56679 0.86644 0.0
H436 H 0.55031 0.45182 0.71476 0.0
H437 H 0.53795 0.42162 0.69287 0.0
H438 H 0.49284 0.44067 0.64741 0.0
H439 H 0.50507 0.47053 0.67096 0.0
Nd440 Nd 0.00821 0.52429 0.74285 0.0
Nd441 Nd 0.02566 0.50518 0.83471 0.0
C442 C 0.98725 0.53833 0.68326 0.0
C443 C 0.97115 0.53117 0.66024 0.0
C444 C 0.95829 0.52003 0.68726 0.0
C445 C 0.94349 0.51261 0.66408 0.0
C446 C 0.9412 0.51617 0.61339 0.0
C447 C 0.9542 0.52729 0.5866 0.0
C448 C 0.96895 0.53473 0.6098 0.0
C449 C 0.02557 0.49841 0.72229 0.0
C450 C 0.98668 0.4897 0.81157 0.0
C451 C 0.04606 0.48799 0.88765 0.0
C452 C 0.06084 0.49392 0.91868 0.0
C453 C 0.07676 0.49311 0.90239 0.0
C454 C 0.09092 0.49976 0.92953 0.0
C455 C 0.08948 0.50724 0.97388 0.0
C456 C 0.07353 0.50775 0.99063 0.0
C457 C 0.05937 0.5012 0.96333 0.0
C458 C 0.01539 0.53599 0.85995 0.0
C459 C 0.04627 0.53956 0.76577 0.0
O460 O 0.98748 0.5393 0.73065 0.0
O461 O 1.00011 0.53254 0.66791 0.0
O462 O 0.02445 0.51257 0.69294 0.0
O463 O 0.01668 0.49755 0.75966 0.0
O464 O 0.98717 0.50245 0.77514 0.0
O465 O 0.99982 0.48725 0.83879 0.0
O466 O 0.04788 0.49237 0.84058 0.0
O467 O 0.03153 0.48979 0.90342 0.0
O468 O 0.02294 0.52603 0.89032 0.0
O469 O 0.01417 0.52943 0.81954 0.0
O470 O 0.04643 0.52401 0.79164 0.0
O471 O 0.03236 0.54477 0.74998 0.0
H472 H 0.95968 0.5169 0.72623 0.0
H473 H 0.93384 0.50417 0.68606 0.0
H474 H 0.95316 0.53001 0.54739 0.0
H475 H 0.97878 0.54309 0.58812 0.0
H476 H 0.07829 0.48752 0.86823 0.0
H477 H 0.103 0.49891 0.91594 0.0
H478 H 0.07199 0.51357 0.02442 0.0
H479 H 0.04732 0.50212 0.97696 0.0
H480 H 0.17213 1.00921 0.51715 0.0
H481 H 0.1441 1.00926 0.5458 0.0
H482 H 0.16267 1.01121 0.69408 0.0
H483 H 0.19061 1.01103 0.66574 0.0
H484 H 0.13497 0.98674 0.69033 0.0
H485 H 0.15231 0.04866 0.62807 0.0
H486 H 0.16311 0.07338 0.56615 0.0
H487 H 0.12217 0.05575 0.47037 0.0
H488 H 0.11124 0.03078 0.53148 0.0
H489 H 0.06056 1.00436 0.79078 0.0
H490 H 0.08932 1.00516 0.76673 0.0
H491 H 0.0743 1.00885 0.61475 0.0
H492 H 0.04596 1.00916 0.63872 0.0
H493 H 0.10094 0.03113 0.6233 0.0
H494 H 0.08394 0.96861 0.68299 0.0
H495 H 0.07299 0.94357 0.74389 0.0
H496 H 0.11291 0.96158 0.84267 0.0
H497 H 0.12397 0.98686 0.78258 0.0
C498 C 0.17025 1.00985 0.55576 0.0
C499 C 0.18356 1.01005 0.58918 0.0
C500 C 0.15423 1.00986 0.57213 0.0
C501 C 0.15128 1.01035 0.62213 0.0
C502 C 0.16461 1.01074 0.65541 0.0
C503 C 0.18057 1.01062 0.63914 0.0
C504 C 0.13428 1.01009 0.64001 0.0
C505 C 0.12758 0.99657 0.6761 0.0
C506 C 0.12451 0.02269 0.62084 0.0
C507 C 0.13104 0.03776 0.58418 0.0
C508 C 0.14567 0.04998 0.59366 0.0
C509 C 0.15181 0.06405 0.55874 0.0
C510 C 0.14336 0.06611 0.51431 0.0
C511 C 0.12872 0.05413 0.50477 0.0
C512 C 0.12254 0.04003 0.53956 0.0
C513 C 0.06347 1.00523 0.75233 0.0
C514 C 0.05111 1.00668 0.71658 0.0
C515 C 0.07987 1.0056 0.73854 0.0
C516 C 0.08403 1.00684 0.68879 0.0
C517 C 0.07151 1.00796 0.6533 0.0
C518 C 0.05528 1.00805 0.66703 0.0
C519 C 0.10142 1.00755 0.67311 0.0
C520 C 0.10826 0.02123 0.63756 0.0
C521 C 0.11125 0.995 0.69254 0.0
C522 C 0.10469 0.97971 0.72847 0.0
C523 C 0.09032 0.96728 0.71782 0.0
C524 C 0.0841 0.95305 0.75218 0.0
C525 C 0.09222 0.95102 0.79717 0.0
C526 C 0.10662 0.96319 0.80784 0.0
C527 C 0.11287 0.97746 0.77363 0.0
H528 H 0.08739 0.93999 0.82373 0.0
H529 H 0.14813 0.077 0.48732 0.0
H530 H 0.47203 0.17613 0.47502 0.0
H531 H 0.47853 0.15513 0.54263 0.0
H532 H 0.46505 0.11097 0.45187 0.0
H533 H 0.4577 0.13163 0.38539 0.0
H534 H 0.45567 0.09977 0.5402 0.0
H535 H 0.50624 0.13329 0.4668 0.0
H536 H 0.52619 0.16081 0.44021 0.0
H537 H 0.53151 0.17536 0.58809 0.0
H538 H 0.51142 0.148 0.61543 0.0
H539 H 0.52985 0.05686 0.64126 0.0
H540 H 0.51903 0.08099 0.59357 0.0
H541 H 0.47743 0.07363 0.69095 0.0
H542 H 0.4877 0.04864 0.73673 0.0
H543 H 0.51313 0.11213 0.60696 0.0
H544 H 0.44343 0.08332 0.62952 0.0
H545 H 0.42484 0.05402 0.6481 0.0
H546 H 0.46001 0.02689 0.58717 0.0
H547 H 0.4787 0.05604 0.56772 0.0
C548 C 0.4701 0.1619 0.46982 0.0
C549 C 0.4646 0.15564 0.4244 0.0
C550 C 0.47398 0.14991 0.50839 0.0
C551 C 0.47262 0.13148 0.50211 0.0
C552 C 0.46631 0.12511 0.45767 0.0
C553 C 0.4623 0.13702 0.41939 0.0
C554 C 0.47868 0.1189 0.54022 0.0
C555 C 0.46819 0.10255 0.55512 0.0
C556 C 0.49508 0.12234 0.55936 0.0
C557 C 0.5072 0.13873 0.54304 0.0
C558 C 0.51159 0.14242 0.49357 0.0
C559 C 0.52292 0.15798 0.47838 0.0
C560 C 0.53007 0.16986 0.51242 0.0
C561 C 0.52593 0.16617 0.56175 0.0
C562 C 0.51458 0.15064 0.57712 0.0
C563 C 0.51842 0.06043 0.65261 0.0
C564 C 0.50963 0.05087 0.69283 0.0
C565 C 0.51228 0.07431 0.62546 0.0
C566 C 0.49728 0.07906 0.63815 0.0
C567 C 0.48887 0.07005 0.67976 0.0
C568 C 0.49487 0.05591 0.70641 0.0
C569 C 0.49023 0.09285 0.60633 0.0
C570 C 0.50052 0.10945 0.59272 0.0
C571 C 0.47381 0.08939 0.5872 0.0
C572 C 0.46252 0.07183 0.5977 0.0
C573 C 0.44715 0.0711 0.61993 0.0
C574 C 0.43661 0.05452 0.63064 0.0
C575 C 0.44127 0.0386 0.619 0.0
C576 C 0.45644 0.03923 0.59634 0.0
C577 C 0.46701 0.05577 0.58548 0.0
H578 H 0.43311 0.02578 0.62743 0.0
H579 H 0.53885 0.18189 0.50059 0.0
H580 H 0.36333 0.58924 0.63389 0.0
H581 H 0.38899 0.57938 0.66152 0.0
H582 H 0.37755 0.53444 0.5728 0.0
H583 H 0.35144 0.54377 0.54664 0.0
H584 H 0.38763 0.52348 0.66039 0.0
H585 H 0.40788 0.5721 0.54098 0.0
H586 H 0.41167 0.60307 0.50136 0.0
H587 H 0.43466 0.62366 0.63215 0.0
H588 H 0.4308 0.59283 0.67282 0.0
H589 H 0.46755 0.49955 0.66476 0.0
H590 H 0.44182 0.5101 0.64019 0.0
H591 H 0.45204 0.55025 0.74412 0.0
H592 H 0.47788 0.5397 0.76865 0.0
H593 H 0.44271 0.56391 0.65145 0.0
H594 H 0.42288 0.5149 0.76978 0.0
H595 H 0.41953 0.48376 0.808 0.0
H596 H 0.39607 0.46377 0.67711 0.0
H597 H 0.39951 0.49478 0.6378 0.0
C598 C 0.3662 0.5772 0.62035 0.0
C599 C 0.35523 0.56727 0.58811 0.0
C600 C 0.38101 0.57169 0.63581 0.0
C601 C 0.38533 0.55624 0.61894 0.0
C602 C 0.37452 0.54642 0.58629 0.0
C603 C 0.35965 0.55188 0.57095 0.0
C604 C 0.40085 0.55002 0.63656 0.0
C605 C 0.39969 0.53227 0.65774 0.0
C606 C 0.41658 0.5616 0.63445 0.0
C607 C 0.41889 0.58016 0.61011 0.0
C608 C 0.41362 0.58324 0.56144 0.0
C609 C 0.4158 0.60077 0.53876 0.0
C610 C 0.42336 0.61533 0.56426 0.0
C611 C 0.42878 0.61238 0.61246 0.0
C612 C 0.42661 0.59488 0.63534 0.0
C613 C 0.46423 0.51053 0.68264 0.0
C614 C 0.47456 0.51865 0.71919 0.0
C615 C 0.44952 0.51652 0.66865 0.0
C616 C 0.44492 0.53085 0.69063 0.0
C617 C 0.4553 0.5391 0.72691 0.0
C618 C 0.46995 0.53295 0.74131 0.0
C619 C 0.42944 0.53739 0.67481 0.0
C620 C 0.43061 0.55518 0.65408 0.0
C621 C 0.41374 0.52583 0.6771 0.0
C622 C 0.4116 0.50716 0.70068 0.0
C623 C 0.41713 0.50385 0.74898 0.0
C624 C 0.4152 0.48623 0.77088 0.0
C625 C 0.40763 0.47179 0.74496 0.0
C626 C 0.40195 0.47496 0.69712 0.0
C627 C 0.40388 0.49256 0.67503 0.0
H628 H 0.40614 0.45815 0.76197 0.0
H629 H 0.42504 0.62889 0.54663 0.0
H630 H 0.09465 0.36736 0.59508 0.0
H631 H 0.08617 0.38806 0.64873 0.0
H632 H 0.08447 0.42707 0.52535 0.0
H633 H 0.09243 0.4064 0.47134 0.0
H634 H 0.09858 0.44266 0.60943 0.0
H635 H 0.04977 0.39918 0.56328 0.0
H636 H 0.03382 0.36833 0.55973 0.0
H637 H 0.03596 0.35974 0.71623 0.0
H638 H 0.05212 0.39049 0.7206 0.0
H639 H 0.04302 0.49878 0.64029 0.0
H640 H 0.05861 0.47654 0.61777 0.0
H641 H 0.04637 0.44518 0.7552 0.0
H642 H 0.03002 0.46737 0.77732 0.0
H643 H 0.04288 0.42382 0.68389 0.0
H644 H 0.08605 0.46913 0.73242 0.0
H645 H 0.10147 0.50006 0.73826 0.0
H646 H 0.1112 0.50517 0.58446 0.0
H647 H 0.09552 0.47441 0.57737 0.0
C648 C 0.09248 0.38034 0.57928 0.0
C649 C 0.09413 0.3851 0.52863 0.0
C650 C 0.08774 0.3922 0.61013 0.0
C651 C 0.0846 0.40907 0.591 0.0
C652 C 0.08693 0.41416 0.54096 0.0
C653 C 0.09155 0.40231 0.51009 0.0
C654 C 0.07771 0.42098 0.62187 0.0
C655 C 0.08641 0.43859 0.62579 0.0
C656 C 0.06214 0.41541 0.64494 0.0
C657 C 0.05231 0.39703 0.64222 0.0
C658 C 0.04694 0.39066 0.59689 0.0
C659 C 0.03785 0.3732 0.59473 0.0
C660 C 0.03393 0.36206 0.63772 0.0
C661 C 0.03904 0.36837 0.68296 0.0
C662 C 0.04816 0.38581 0.6853 0.0
C663 C 0.04367 0.4872 0.66596 0.0
C664 C 0.03535 0.48484 0.71069 0.0
C665 C 0.05274 0.47454 0.65317 0.0
C666 C 0.05404 0.45935 0.6852 0.0
C667 C 0.04569 0.45687 0.73006 0.0
C668 C 0.03639 0.46955 0.74276 0.0
C669 C 0.06346 0.44582 0.66988 0.0
C670 C 0.05526 0.42787 0.66884 0.0
C671 C 0.07962 0.45103 0.65016 0.0
C672 C 0.08952 0.46941 0.65434 0.0
C673 C 0.09141 0.47685 0.69976 0.0
C674 C 0.10019 0.49438 0.7033 0.0
C675 C 0.1073 0.50457 0.66175 0.0
C676 C 0.10569 0.49724 0.61661 0.0
C677 C 0.09687 0.47974 0.61282 0.0
H678 H 0.11406 0.51816 0.66455 0.0
H679 H 0.02688 0.34855 0.63598 0.0
H680 H 0.84435 0.04526 0.93176 0.0
H681 H 0.87275 0.0455 0.90667 0.0
H682 H 0.87789 1.00504 0.02396 0.0
H683 H 0.84933 1.0045 0.04894 0.0
H684 H 0.90576 0.03201 0.01369 0.0
H685 H 0.86976 0.99305 0.91012 0.0
H686 H 0.84657 0.9855 0.85195 0.0
H687 H 0.86966 0.02805 0.74854 0.0
H688 H 0.89288 0.03602 0.80642 0.0
H689 H 0.97468 0.99931 0.93685 0.0
H690 H 0.94708 1.00258 0.96116 0.0
H691 H 0.94347 0.03873 0.83231 0.0
H692 H 0.97111 0.0351 0.80707 0.0
H693 H 0.91505 0.01602 0.84681 0.0
H694 H 0.9515 0.05454 0.94639 0.0
H695 H 0.97477 0.06311 1.00353 0.0
H696 H 0.95121 0.02326 0.11308 0.0
H697 H 0.92789 0.01426 0.05633 0.0
C698 C 0.85149 0.03636 0.9522 0.0
C699 C 0.84448 0.02469 0.99205 0.0
C700 C 0.86774 0.03655 0.93786 0.0
C701 C 0.87735 0.02509 0.96298 0.0
C702 C 0.87067 0.01397 1.00399 0.0
C703 C 0.85437 1.01373 0.01834 0.0
C704 C 0.89418 0.02433 0.94564 0.0
C705 C 0.90779 0.02833 0.97744 0.0
C706 C 0.89687 0.02009 0.89771 0.0
C707 C 0.88296 0.01525 0.8628 0.0
C708 C 0.86982 1.00089 0.87513 0.0
C709 C 0.85669 0.99652 0.84219 0.0
C710 C 0.85662 1.00632 0.79663 0.0
C711 C 0.86972 0.02048 0.78388 0.0
C712 C 0.88287 0.02492 0.81672 0.0
C713 C 0.96802 1.00795 0.91371 0.0
C714 C 0.97507 0.01705 0.87032 0.0
C715 C 0.95227 1.0099 0.92776 0.0
C716 C 0.94331 0.0212 0.89914 0.0
C717 C 0.9502 0.03003 0.85518 0.0
C718 C 0.96596 0.02797 0.84089 0.0
C719 C 0.92669 0.02351 0.91504 0.0
C720 C 0.91309 0.01982 0.88297 0.0
C721 C 0.92403 0.02821 0.96259 0.0
C722 C 0.93801 0.03362 0.99693 0.0
C723 C 0.95133 0.04751 0.98254 0.0
C724 C 0.96453 0.05246 0.01487 0.0
C725 C 0.96449 0.04371 0.06186 0.0
C726 C 0.95123 0.03001 0.07664 0.0
C727 C 0.93801 0.025 0.04442 0.0
H728 H 0.97471 0.04756 0.08683 0.0
H729 H 0.84645 1.00292 0.77119 0.0
H730 H 0.58328 0.86715 0.11544 0.0
H731 H 0.57605 0.8882 0.04846 0.0
H732 H 0.53677 0.89942 0.13538 0.0
H733 H 0.54368 0.87831 0.20154 0.0
H734 H 0.52659 0.89569 0.04252 0.0
H735 H 0.57446 0.92762 0.12634 0.0
H736 H 0.60336 0.93253 0.15715 0.0
H737 H 0.62113 0.93378 0.01113 0.0
H738 H 0.5923 0.92863 0.97953 0.0
H739 H 0.51198 0.98244 0.97077 0.0
H740 H 0.52077 0.95597 0.01314 0.0
H741 H 0.55267 0.95313 0.893 0.0
H742 H 0.54383 0.97981 0.85032 0.0
H743 H 0.56797 0.94981 0.98738 0.0
H744 H 0.51958 0.92287 0.90299 0.0
H745 H 0.49053 0.91926 0.87385 0.0
H746 H 0.47354 0.90927 0.0219 0.0
H747 H 0.50251 0.91312 0.05202 0.0
C748 C 0.57299 0.87398 0.11992 0.0
C749 C 0.56417 0.87123 0.16397 0.0
C750 C 0.56894 0.88607 0.08179 0.0
C751 C 0.55597 0.89553 0.08707 0.0
C752 C 0.54684 0.89232 0.13043 0.0
C753 C 0.55091 0.88036 0.16842 0.0
C754 C 0.55201 0.90924 0.04854 0.0
C755 C 0.53564 0.90753 0.03051 0.0
C756 C 0.56392 0.92445 0.0317 0.0
C757 C 0.58123 0.92749 0.05068 0.0
C758 C 0.58453 0.92877 0.10087 0.0
C759 C 0.60089 0.93163 0.11846 0.0
C760 C 0.61407 0.9334 0.08614 0.0
C761 C 0.61091 0.93236 0.03613 0.0
C762 C 0.59456 0.92947 0.01837 0.0
C763 C 0.52081 0.97613 0.95326 0.0
C764 C 0.52705 0.98297 0.90693 0.0
C765 C 0.52578 0.96098 0.97741 0.0
C766 C 0.53722 0.95245 0.95597 0.0
C767 C 0.54372 0.95942 0.90997 0.0
C768 C 0.53855 0.97452 0.88543 0.0
C769 C 0.54245 0.93647 0.98266 0.0
C770 C 0.55903 0.93777 0.99849 0.0
C771 C 0.53072 0.9209 0.99767 0.0
C772 C 0.51324 0.91839 0.97977 0.0
C773 C 0.50966 0.92003 0.92937 0.0
C774 C 0.4932 0.91793 0.91267 0.0
C775 C 0.4802 0.91407 0.946 0.0
C776 C 0.48363 0.91227 0.99612 0.0
C777 C 0.50007 0.91438 0.01302 0.0
H778 H 0.46746 0.91245 0.933 0.0
H779 H 0.62674 0.93563 0.09982 0.0
H780 H 0.67767 0.45808 0.93337 0.0
H781 H 0.6516 0.46641 0.90291 0.0
H782 H 0.63258 0.45874 0.04952 0.0
H783 H 0.65865 0.45014 0.08032 0.0
H784 H 0.60961 0.44351 0.98006 0.0
H785 H 0.64623 0.50022 1.00031 0.0
H786 H 0.67211 0.52254 0.9878 0.0
H787 H 0.6634 0.52546 0.83271 0.0
H788 H 0.63758 0.50295 0.84426 0.0
H789 H 0.54185 0.48896 0.95055 0.0
H790 H 0.56717 0.47765 0.97409 0.0
H791 H 0.58654 0.49393 0.82925 0.0
H792 H 0.56127 0.5058 0.80594 0.0
H793 H 0.60957 0.50395 0.89394 0.0
H794 H 0.57413 0.44804 0.86946 0.0
H795 H 0.54899 0.4245 0.87687 0.0
H796 H 0.55551 0.41911 0.0327 0.0
H797 H 0.58085 0.44255 0.0262 0.0
C798 C 0.66789 0.45799 0.95914 0.0
C799 C 0.67023 0.45341 0.00931 0.0
C800 C 0.65304 0.46288 0.94168 0.0
C801 C 0.6402 0.46333 0.97397 0.0
C802 C 0.64236 0.45851 0.02399 0.0
C803 C 0.65728 0.45373 0.04157 0.0
C804 C 0.6246 0.46903 0.9555 0.0
C805 C 0.60955 0.45681 0.96178 0.0
C806 C 0.62461 0.48612 0.93006 0.0
C807 C 0.64006 0.49977 0.92312 0.0
C808 C 0.6499 0.50551 0.96351 0.0
C809 C 0.66455 0.51822 0.9566 0.0
C810 C 0.66942 0.52537 0.90948 0.0
C811 C 0.65962 0.51988 0.86917 0.0
C812 C 0.64498 0.50716 0.87589 0.0
C813 C 0.55145 0.49002 0.92353 0.0
C814 C 0.54959 0.49827 0.87637 0.0
C815 C 0.5659 0.48342 0.93697 0.0
C816 C 0.57874 0.4847 0.90332 0.0
C817 C 0.57681 0.49275 0.85586 0.0
C818 C 0.56236 0.49947 0.84246 0.0
C819 C 0.59446 0.47848 0.91875 0.0
C820 C 0.60957 0.4906 0.91198 0.0
C821 C 0.59453 0.46119 0.94309 0.0
C822 C 0.57928 0.44717 0.94737 0.0
C823 C 0.57014 0.44193 0.90535 0.0
C824 C 0.55586 0.42858 0.90937 0.0
C825 C 0.55055 0.42041 0.95524 0.0
C826 C 0.55961 0.42548 0.99719 0.0
C827 C 0.57398 0.43874 0.99335 0.0
H828 H 0.53945 0.41011 0.95824 0.0
H829 H 0.68076 0.53521 0.9042 0.0
H830 H 0.97671 0.6647 0.07091 0.0
H831 H 0.98719 0.64168 0.0314 0.0
H832 H 0.9384 0.6231 0.97177 0.0
H833 H 0.92749 0.64517 0.01452 0.0
H834 H 0.95126 0.59556 0.99214 0.0
H835 H 0.97036 0.65082 0.90204 0.0
H836 H 0.98316 0.68279 0.8848 0.0
H837 H 0.03019 0.6714 0.93809 0.0
H838 H 0.0176 0.63938 0.95636 0.0
H839 H 0.98838 0.54845 0.81951 0.0
H840 H 0.97529 0.57233 0.84765 0.0
H841 H 0.01332 0.58184 0.95883 0.0
H842 H 0.02622 0.55783 0.93136 0.0
H843 H 1.00394 0.61442 0.90094 0.0
H844 H 0.97991 0.55721 0.99513 0.0
H845 H 0.9654 0.52558 0.99646 0.0
H846 H 0.92481 0.54229 0.91394 0.0
H847 H 0.93917 0.57403 0.91182 0.0
C848 C 0.96805 0.65548 0.05048 0.0
C849 C 0.95122 0.65703 0.0458 0.0
C850 C 0.97416 0.64247 0.02701 0.0
C851 C 0.96373 0.63093 0.99722 0.0
C852 C 0.9468 0.63193 0.99399 0.0
C853 C 0.9406 0.64475 0.01816 0.0
C854 C 0.9706 0.61801 0.96925 0.0
C855 C 0.96266 0.59983 0.97172 0.0
C856 C 0.98533 0.62344 0.94155 0.0
C857 C 0.99299 0.64271 0.93103 0.0
C858 C 0.9834 0.65515 0.91049 0.0
C859 C 0.99062 0.67328 0.90046 0.0
C860 C 0.00747 0.67913 0.91045 0.0
C861 C 0.01713 0.66685 0.93043 0.0
C862 C 0.00996 0.6487 0.9406 0.0
C863 C 0.9941 0.55592 0.8492 0.0
C864 C 0.00836 0.55146 0.87302 0.0
C865 C 0.98658 0.56945 0.86544 0.0
C866 C 0.99337 0.57883 0.90527 0.0
C867 C 0.00795 0.5748 0.92791 0.0
C868 C 0.01526 0.56108 0.9123 0.0
C869 C 0.98489 0.59216 0.92552 0.0
C870 C 0.99251 0.61036 0.92128 0.0
C871 C 0.96956 0.5869 0.9498 0.0
C872 C 0.96063 0.56795 0.9531 0.0
C873 C 0.9679 0.55412 0.97724 0.0
C874 C 0.95971 0.53619 0.97812 0.0
C875 C 0.9442 0.53193 0.95524 0.0
C876 C 0.93681 0.54562 0.93169 0.0
C877 C 0.94495 0.56358 0.93073 0.0
H878 H 0.93791 0.51803 0.95578 0.0
H879 H 0.01304 0.69317 0.90262 0.0
H880 H 0.05654 0.21545 0.60763 0.0
H881 H 0.04719 0.18489 0.64464 0.0
H882 H 0.07685 0.16447 0.54331 0.0
H883 H 0.08632 0.19516 0.50595 0.0
H884 H 0.04687 0.14351 0.55289 0.0
H885 H 0.08998 0.16824 0.6596 0.0
H886 H 0.10573 0.1902 0.71244 0.0
H887 H 0.06398 0.1832 0.80778 0.0
H888 H 0.04788 0.16137 0.75509 0.0
H889 H 0.04983 0.06905 0.7658 0.0
H890 H 0.05998 0.09874 0.72551 0.0
H891 H 0.01168 0.09948 0.65941 0.0
H892 H 1.00147 0.06925 0.6987 0.0
H893 H 0.05275 0.12979 0.73183 0.0
H894 H 0.01635 0.12371 0.54784 0.0
H895 H 0.00446 0.10027 0.49348 0.0
H896 H 0.03935 0.06752 0.54988 0.0
H897 H 0.05159 0.09086 0.60404 0.0
C898 C 0.0612 0.20448 0.59348 0.0
C899 C 0.07229 0.20771 0.5542 0.0
C900 C 0.05582 0.18703 0.6146 0.0
C901 C 0.0615 0.17246 0.59713 0.0
C902 C 0.07234 0.17555 0.55732 0.0
C903 C 0.0777 0.19306 0.53601 0.0
C904 C 0.05608 0.15404 0.62068 0.0
C905 C 0.04816 0.14048 0.592 0.0
C906 C 0.0581 0.15002 0.67153 0.0
C907 C 0.06766 0.1633 0.70309 0.0
C908 C 0.0841 0.17151 0.69156 0.0
C909 C 0.0931 0.18391 0.72155 0.0
C910 C 0.08585 0.18813 0.76337 0.0
C911 C 0.06958 0.17994 0.77533 0.0
C912 C 0.06051 0.16754 0.74543 0.0
C913 C 0.04128 0.07549 0.74289 0.0
C914 C 0.02482 0.06675 0.73536 0.0
C915 C 0.04713 0.09252 0.71988 0.0
C916 C 0.03666 0.10127 0.68905 0.0
C917 C 0.02007 0.09282 0.68238 0.0
C918 C 0.01422 0.07562 0.70509 0.0
C919 C 0.04327 0.11926 0.66423 0.0
C920 C 0.05141 0.13279 0.69271 0.0
C921 C 0.04195 0.12304 0.61301 0.0
C922 C 0.03474 0.10895 0.58039 0.0
C923 C 0.02151 0.11152 0.54853 0.0
C924 C 0.01471 0.09826 0.51776 0.0
C925 C 0.02111 0.08239 0.51835 0.0
C926 C 0.03436 0.07978 0.5496 0.0
C927 C 0.04121 0.09302 0.58039 0.0
H928 H 0.01582 0.07213 0.49452 0.0
H929 H 0.09285 0.19772 0.78657 0.0
H930 H 0.35315 0.0139 0.67513 0.0
H931 H 0.37578 1.00573 0.7264 0.0
H932 H 0.35319 0.94953 0.72751 0.0
H933 H 0.33055 0.95767 0.67518 0.0
H934 H 0.38251 0.98811 0.81098 0.0
H935 H 0.38358 0.92642 0.7072 0.0
H936 H 0.37239 0.91352 0.63104 0.0
H937 H 0.37296 0.96674 0.56185 0.0
H938 H 0.38437 0.97991 0.63732 0.0
H939 H 0.46383 0.97567 0.87107 0.0
H940 H 0.43381 0.96505 0.86228 0.0
H941 H 0.43789 0.97769 0.70599 0.0
H942 H 0.46783 0.98639 0.71463 0.0
H943 H 0.41412 0.95267 0.71821 0.0
H944 H 0.43052 1.00896 0.80336 0.0
H945 H 0.44299 0.02468 0.87426 0.0
H946 H 0.40949 0.98818 0.97038 0.0
H947 H 0.39697 0.97216 0.90018 0.0
C948 C 0.35269 0.99985 0.6876 0.0
C949 C 0.34025 0.98639 0.67056 0.0
C950 C 0.36564 0.99518 0.71702 0.0
C951 C 0.36633 0.97699 0.73 0.0
C952 C 0.35303 0.96363 0.7172 0.0
C953 C 0.34014 0.96828 0.68727 0.0
C954 C 0.38212 0.97224 0.74967 0.0
C955 C 0.38937 0.98016 0.79115 0.0
C956 C 0.39106 0.96185 0.72388 0.0
C957 C 0.3846 0.9541 0.67801 0.0
C958 C 0.38136 0.93534 0.67564 0.0
C959 C 0.37499 0.92799 0.63262 0.0
C960 C 0.37191 0.93931 0.5917 0.0
C961 C 0.3753 0.95799 0.59359 0.0
C962 C 0.38173 0.9654 0.63645 0.0
C963 C 0.45826 0.97545 0.83485 0.0
C964 C 0.46797 0.98178 0.79345 0.0
C965 C 0.44111 0.96963 0.82982 0.0
C966 C 0.43339 0.97117 0.78364 0.0
C967 C 0.4434 0.97634 0.74212 0.0
C968 C 0.46055 0.98136 0.74697 0.0
C969 C 0.41506 0.9695 0.77787 0.0
C970 C 0.40718 0.9602 0.73913 0.0
C971 C 0.40578 0.97918 0.80517 0.0
C972 C 0.41298 0.98926 0.84676 0.0
C973 C 0.42584 1.00432 0.83965 0.0
C974 C 0.43293 1.01325 0.87969 0.0
C975 C 0.42709 1.00733 0.92677 0.0
C976 C 0.41404 0.99266 0.9339 0.0
C977 C 0.40695 0.98366 0.89406 0.0
H978 H 0.43266 0.01404 0.95783 0.0
H979 H 0.36693 0.93359 0.55849 0.0
H980 H 0.48186 0.28577 0.47136 0.0
H981 H 0.48973 0.3077 0.53107 0.0
H982 H 0.4381 0.30669 0.5599 0.0
H983 H 0.43004 0.28431 0.50056 0.0
H984 H 0.454 0.34007 0.53275 0.0
H985 H 0.46311 0.29371 0.651 0.0
H986 H 0.47313 0.26645 0.6854 0.0
H987 H 0.52357 0.29336 0.66241 0.0
H988 H 0.51386 0.32071 0.62716 0.0
H989 H 0.48209 0.41158 0.68418 0.0
H990 H 0.46883 0.38179 0.66164 0.0
H991 H 0.51539 0.37364 0.60672 0.0
H992 H 0.52868 0.40361 0.62776 0.0
H993 H 0.49805 0.34308 0.66095 0.0
H994 H 0.48781 0.38704 0.52923 0.0
H995 H 0.47754 0.41411 0.49435 0.0
H996 H 0.42841 0.39088 0.54424 0.0
H997 H 0.43846 0.36375 0.58003 0.0
C998 C 0.47213 0.28959 0.49172 0.0
C999 C 0.45529 0.28337 0.48073 0.0
C1000 C 0.47668 0.30223 0.52589 0.0
C1001 C 0.4645 0.30888 0.54991 0.0
C1002 C 0.44769 0.30178 0.54161 0.0
C1003 C 0.44312 0.28905 0.50757 0.0
C1004 C 0.46942 0.32492 0.57788 0.0
C1005 C 0.4633 0.34057 0.56176 0.0
C1006 C 0.48177 0.32568 0.61507 0.0
C1007 C 0.48773 0.30925 0.63613 0.0
C1008 C 0.47634 0.29378 0.65289 0.0
C1009 C 0.48196 0.27832 0.67262 0.0
C1010 C 0.49898 0.27816 0.67602 0.0
C1011 C 0.5104 0.2935 0.65975 0.0
C1012 C 0.50484 0.309 0.63996 0.0
C1013 C 0.4895 0.40356 0.66681 0.0
C1014 C 0.50643 0.41014 0.65717 0.0
C1015 C 0.48192 0.38646 0.65444 0.0
C1016 C 0.49112 0.37558 0.63231 0.0
C1017 C 0.50811 0.38181 0.62408 0.0
C1018 C 0.51568 0.39896 0.63617 0.0
C1019 C 0.4829 0.35816 0.61483 0.0
C1020 C 0.48845 0.34236 0.63281 0.0
C1021 C 0.46997 0.35721 0.57943 0.0
C1022 C 0.46392 0.37348 0.55784 0.0
C1023 C 0.47485 0.38778 0.53313 0.0
C1024 C 0.46907 0.40312 0.51313 0.0
C1025 C 0.45234 0.40425 0.51722 0.0
C1026 C 0.44136 0.39001 0.5412 0.0
C1027 C 0.4471 0.37465 0.56134 0.0
H1028 H 0.44789 0.41613 0.50169 0.0
H1029 H 0.50331 0.26618 0.69133 0.0
H1030 H 0.193 0.57476 0.65388 0.0
H1031 H 0.16573 0.56979 0.69107 0.0
H1032 H 0.16277 0.62565 0.65556 0.0
H1033 H 0.19031 0.63087 0.61818 0.0
H1034 H 0.14697 0.60303 0.75683 0.0
H1035 H 0.14654 0.60743 0.57749 0.0
H1036 H 0.15696 0.60066 0.49924 0.0
H1037 H 0.14298 0.54394 0.54046 0.0
H1038 H 0.13281 0.5504 0.61945 0.0
H1039 H 0.05563 0.57647 0.7507 0.0
H1040 H 0.08363 0.59334 0.72906 0.0
H1041 H 0.10105 0.54319 0.72497 0.0
H1042 H 0.07362 0.52649 0.74727 0.0
H1043 H 0.10859 0.56889 0.6407 0.0
H1044 H 0.11224 0.56211 0.81695 0.0
H1045 H 0.10362 0.56543 0.90041 0.0
H1046 H 0.11206 0.62294 0.86996 0.0
H1047 H 0.12059 0.61993 0.78604 0.0
C1048 C 0.18693 0.5862 0.6557 0.0
C1049 C 0.19377 0.60319 0.63268 0.0
C1050 C 0.1713 0.58331 0.6769 0.0
C1051 C 0.16227 0.59733 0.67571 0.0
C1052 C 0.16963 0.6147 0.65691 0.0
C1053 C 0.18528 0.61761 0.63528 0.0
C1054 C 0.14432 0.59286 0.68578 0.0
C1055 C 0.13843 0.59602 0.73103 0.0
C1056 C 0.13335 0.58331 0.65247 0.0
C1057 C 0.13907 0.57941 0.60451 0.0
C1058 C 0.14582 0.59352 0.57002 0.0
C1059 C 0.15167 0.58974 0.52553 0.0
C1060 C 0.15067 0.57188 0.51492 0.0
C1061 C 0.14377 0.55777 0.54874 0.0
C1062 C 0.13796 0.56149 0.59337 0.0
C1063 C 0.06548 0.56915 0.74502 0.0
C1064 C 0.06253 0.55023 0.75084 0.0
C1065 C 0.08141 0.57875 0.733 0.0
C1066 C 0.09433 0.56944 0.72572 0.0
C1067 C 0.09124 0.55058 0.73063 0.0
C1068 C 0.07556 0.54108 0.74349 0.0
C1069 C 0.11114 0.57901 0.71182 0.0
C1070 C 0.1169 0.57657 0.66584 0.0
C1071 C 0.12195 0.58893 0.7448 0.0
C1072 C 0.11677 0.59079 0.79502 0.0
C1073 C 0.11207 0.57545 0.82787 0.0
C1074 C 0.10725 0.57727 0.87529 0.0
C1075 C 0.10718 0.59438 0.89035 0.0
C1076 C 0.11205 0.6097 0.85814 0.0
C1077 C 0.11689 0.60795 0.81066 0.0
H1078 H 0.1034 0.59576 0.92703 0.0
H1079 H 0.1552 0.56897 0.48045 0.0
H1080 H 0.92395 0.83132 0.92472 0.0
H1081 H 0.94079 0.85554 0.87371 0.0
H1082 H 0.9824 0.82796 0.89125 0.0
H1083 H 0.9658 0.80399 0.9435 0.0
H1084 H 0.98944 0.85938 0.92704 0.0
H1085 H 0.96772 0.83961 0.77714 0.0
H1086 H 0.94715 0.82802 0.71518 0.0
H1087 H 0.92565 0.87555 0.71397 0.0
H1088 H 0.9458 0.88727 0.77682 0.0
H1089 H 0.02983 0.95011 0.83973 0.0
H1090 H 0.02209 0.91698 0.84649 0.0
H1091 H 0.97027 0.92118 0.84454 0.0
H1092 H 0.97782 0.9538 0.8373 0.0
H1093 H 0.97601 0.89791 0.78165 0.0
H1094 H 0.99113 0.91079 0.95075 0.0
H1095 H 0.01073 0.9223 0.01534 0.0
H1096 H 0.04359 0.88746 0.97975 0.0
H1097 H 0.02423 0.87589 0.91457 0.0
C1098 C 0.93652 0.83014 0.91643 0.0
C1099 C 0.94363 0.81594 0.93894 0.0
C1100 C 0.94611 0.84391 0.88678 0.0
C1101 C 0.96292 0.84362 0.87891 0.0
C1102 C 0.96947 0.82846 0.8969 0.0
C1103 C 0.9599 0.81469 0.92661 0.0
C1104 C 0.97418 0.86057 0.86189 0.0
C1105 C 0.98682 0.86757 0.89432 0.0
C1106 C 0.97067 0.87136 0.81956 0.0
C1107 C 0.95828 0.86428 0.78212 0.0
C1108 C 0.95851 0.84753 0.76414 0.0
C1109 C 0.94692 0.84094 0.72877 0.0
C1110 C 0.93508 0.85102 0.71082 0.0
C1111 C 0.93482 0.86774 0.72804 0.0
C1112 C 0.94633 0.87437 0.76354 0.0
C1113 C 0.01683 0.94386 0.84156 0.0
C1114 C 0.00441 0.95445 0.83788 0.0
C1115 C 0.01243 0.925 0.845 0.0
C1116 C 0.99559 0.91666 0.84531 0.0
C1117 C 0.98331 0.92732 0.84343 0.0
C1118 C 0.98766 0.94598 0.8397 0.0
C1119 C 0.99029 0.89685 0.84848 0.0
C1120 C 0.97891 0.88937 0.81333 0.0
C1121 C 0.99474 0.88564 0.88854 0.0
C1122 C 0.00638 0.89269 0.9274 0.0
C1123 C 1.00261 0.90572 0.95644 0.0
C1124 C 0.01365 0.91222 0.9932 0.0
C1125 C 0.02843 0.90567 1.00151 0.0
C1126 C 0.03217 0.89256 0.97317 0.0
C1127 C 0.02117 0.88603 0.93633 0.0
H1128 H 0.03696 0.91071 0.03001 0.0
H1129 H 0.92609 0.84584 0.68363 0.0
H1130 H 0.66852 1.00316 0.89141 0.0
H1131 H 0.64887 0.01496 0.83549 0.0
H1132 H 0.68114 0.06707 0.82389 0.0
H1133 H 0.70052 0.05549 0.88201 0.0
H1134 H 0.65333 0.07146 0.85033 0.0
H1135 H 0.6682 0.04375 0.71877 0.0
H1136 H 0.67636 0.02126 0.66948 0.0
H1137 H 0.62958 0.98611 0.69832 0.0
H1138 H 0.62119 1.00821 0.74829 0.0
H1139 H 0.56542 0.05008 0.71438 0.0
H1140 H 0.5956 0.05937 0.70919 0.0
H1141 H 0.59891 0.05598 0.86688 0.0
H1142 H 0.56874 0.04762 0.87156 0.0
H1143 H 0.61456 0.03827 0.73404 0.0
H1144 H 0.63344 0.07566 0.91207 0.0
H1145 H 0.62613 0.10108 0.95126 0.0
H1146 H 0.60785 0.12185 0.81403 0.0
H1147 H 0.61528 0.09672 0.77375 0.0
C1148 C 0.67161 0.01704 0.87617 0.0
C1149 C 0.68589 0.02848 0.89199 0.0
C1150 C 0.66046 0.02374 0.84346 0.0
C1151 C 0.66347 0.04197 0.82531 0.0
C1152 C 0.67852 0.05298 0.83745 0.0
C1153 C 0.68964 0.0463 0.87052 0.0
C1154 C 0.64956 0.04996 0.80246 0.0
C1155 C 0.64499 0.06441 0.82419 0.0
C1156 C 0.63899 0.04141 0.76656 0.0
C1157 C 0.64408 0.02771 0.73754 0.0
C1158 C 0.6597 0.03116 0.71503 0.0
C1159 C 0.66435 0.01848 0.68684 0.0
C1160 C 0.65351 1.00226 0.68087 0.0
C1161 C 0.63798 0.99868 0.70303 0.0
C1162 C 0.63324 1.01131 0.73118 0.0
C1163 C 0.57263 0.0523 0.74769 0.0
C1164 C 0.56493 0.04843 0.79336 0.0
C1165 C 0.58985 0.05744 0.74477 0.0
C1166 C 0.59964 0.05839 0.78756 0.0
C1167 C 0.59172 0.05582 0.8332 0.0
C1168 C 0.57446 0.05101 0.83603 0.0
C1169 C 0.61777 0.05857 0.78546 0.0
C1170 C 0.62314 0.04573 0.7589 0.0
C1171 C 0.62927 0.06897 0.81572 0.0
C1172 C 0.62493 0.08424 0.83983 0.0
C1173 C 0.62801 0.08572 0.89009 0.0
C1174 C 0.6238 0.10006 0.91255 0.0
C1175 C 0.61653 0.11306 0.88516 0.0
C1176 C 0.61346 0.11175 0.83523 0.0
C1177 C 0.61764 0.09744 0.81257 0.0
H1178 H 0.61327 0.12415 0.90264 0.0
H1179 H 0.65714 0.99246 0.65908 0.0
H1180 H 0.54579 0.75396 0.09366 0.0
H1181 H 0.53565 0.735 0.02831 0.0
H1182 H 0.58196 0.71565 0.03102 0.0
H1183 H 0.59282 0.73585 0.09309 0.0
H1184 H 0.56897 0.713 0.94406 0.0
H1185 H 0.54869 0.69559 0.10821 0.0
H1186 H 0.5351 0.69988 0.18415 0.0
H1187 H 0.49029 0.70488 0.10359 0.0
H1188 H 0.50371 0.70085 0.02705 0.0
H1189 H 0.54539 0.61895 0.92997 0.0
H1190 H 0.55534 0.64999 0.94781 0.0
H1191 H 0.50657 0.66217 0.91688 0.0
H1192 H 0.49649 0.63107 0.89786 0.0
H1193 H 0.51828 0.6714 1.00553 0.0
H1194 H 0.53918 0.6822 0.84196 0.0
H1195 H 0.55431 0.67631 0.77058 0.0
H1196 H 0.59938 0.68048 0.85569 0.0
H1197 H 0.58457 0.68658 0.92748 0.0
C1198 C 0.55415 0.74633 0.07901 0.0
C1199 C 0.56996 0.74601 0.10009 0.0
C1200 C 0.54823 0.73529 0.04187 0.0
C1201 C 0.55776 0.72329 0.02628 0.0
C1202 C 0.57422 0.7245 0.04307 0.0
C1203 C 0.58033 0.7359 0.07922 0.0
C1204 C 0.54997 0.70779 0.99883 0.0
C1205 C 0.55787 0.70392 0.95738 0.0
C1206 C 0.53539 0.69595 0.01592 0.0
C1207 C 0.52724 0.69813 0.06192 0.0
C1208 C 0.53596 0.69769 0.10671 0.0
C1209 C 0.52829 0.70008 0.14983 0.0
C1210 C 0.51185 0.7027 0.14867 0.0
C1211 C 0.50303 0.70289 0.1044 0.0
C1212 C 0.51066 0.70055 0.06115 0.0
C1213 C 0.53683 0.62828 0.92556 0.0
C1214 C 0.52009 0.62242 0.91249 0.0
C1215 C 0.54258 0.64609 0.93575 0.0
C1216 C 0.53176 0.65846 0.93308 0.0
C1217 C 0.51515 0.65284 0.91895 0.0
C1218 C 0.50937 0.635 0.90865 0.0
C1219 C 0.53733 0.67651 0.95099 0.0
C1220 C 0.52908 0.68075 0.99115 0.0
C1221 C 0.55177 0.68838 0.93332 0.0
C1222 C 0.56073 0.68477 0.89017 0.0
C1223 C 0.5523 0.68177 0.84553 0.0
C1224 C 0.56082 0.67841 0.80498 0.0
C1225 C 0.57776 0.67789 0.80869 0.0
C1226 C 0.58625 0.68087 0.85287 0.0
C1227 C 0.57782 0.68438 0.89343 0.0
H1228 H 0.58432 0.67523 0.77727 0.0
H1229 H 0.50594 0.70455 0.18208 0.0
H1230 H 0.83525 0.41474 0.94084 0.0
H1231 H 0.86196 0.41975 0.8986 0.0
H1232 H 0.87267 0.47427 0.94085 0.0
H1233 H 0.8459 0.46954 0.9807 0.0
H1234 H 0.8831 0.47498 0.85545 0.0
H1235 H 0.88785 0.43683 1.00437 0.0
H1236 H 0.88031 0.40952 0.06103 0.0
H1237 H 0.89081 0.37675 0.95047 0.0
H1238 H 0.89822 0.40387 0.89297 0.0
H1239 H 0.97561 0.47341 0.90037 0.0
H1240 H 0.94679 0.46067 0.92201 0.0
H1241 H 0.93199 0.46804 0.77064 0.0
H1242 H 0.96061 0.48128 0.74916 0.0
H1243 H 0.92277 0.43413 0.90244 0.0
H1244 H 0.89503 0.48327 0.76368 0.0
H1245 H 0.90325 0.51316 0.71877 0.0
H1246 H 0.94059 0.52825 0.82781 0.0
H1247 H 0.93235 0.49862 0.87392 0.0
C1248 C 0.84327 0.42784 0.94028 0.0
C1249 C 0.83851 0.44179 0.96369 0.0
C1250 C 0.85854 0.43066 0.9165 0.0
C1251 C 0.86948 0.44732 0.9171 0.0
C1252 C 0.86447 0.46134 0.93951 0.0
C1253 C 0.84913 0.45864 0.96227 0.0
C1254 C 0.88642 0.45025 0.89632 0.0
C1255 C 0.89171 0.46594 0.86541 0.0
C1256 C 0.89778 0.4386 0.90967 0.0
C1257 C 0.8934 0.42233 0.94425 0.0
C1258 C 0.88844 0.42378 0.99208 0.0
C1259 C 0.88421 0.40835 0.02434 0.0
C1260 C 0.88503 0.39141 0.0093 0.0
C1261 C 0.89014 0.38988 0.96202 0.0
C1262 C 0.89437 0.40527 0.92959 0.0
C1263 C 0.96626 0.47192 0.87162 0.0
C1264 C 0.97028 0.47857 0.82326 0.0
C1265 C 0.94979 0.46465 0.88398 0.0
C1266 C 0.93717 0.46378 0.84809 0.0
C1267 C 0.94145 0.46896 0.79911 0.0
C1268 C 0.95782 0.47648 0.78689 0.0
C1269 C 0.91948 0.45904 0.86256 0.0
C1270 C 0.91405 0.443 0.89191 0.0
C1271 C 0.90813 0.47072 0.84934 0.0
C1272 C 0.91324 0.4886 0.82182 0.0
C1273 C 0.90497 0.49298 0.77812 0.0
C1274 C 0.90959 0.50991 0.75257 0.0
C1275 C 0.92247 0.52258 0.77036 0.0
C1276 C 0.93067 0.5184 0.81396 0.0
C1277 C 0.92602 0.50154 0.83983 0.0
H1278 H 0.92609 0.53563 0.75035 0.0
H1279 H 0.88175 0.37948 0.03433 0.0
H1280 H 0.11051 0.20741 0.24985 0.0
H1281 H 0.10646 0.1791 0.2107 0.0
H1282 H 0.05505 0.18246 0.1825 0.0
H1283 H 0.05889 0.21043 0.22273 0.0
H1284 H 0.05806 0.14843 0.21068 0.0
H1285 H 0.08451 0.19558 0.09377 0.0
H1286 H 0.10637 0.22092 0.06419 0.0
H1287 H 0.14275 0.18669 0.08324 0.0
H1288 H 0.12113 0.16119 0.1136 0.0
H1289 H 0.03769 0.09318 0.01475 0.0
H1290 H 0.04353 0.11832 0.06606 0.0
H1291 H 0.09366 0.10931 0.08966 0.0
H1292 H 0.08784 0.08382 0.03923 0.0
H1293 H 0.0928 0.14496 0.06811 0.0
H1294 H 0.06588 0.09718 0.17957 0.0
H1295 H 0.04392 0.07186 0.20853 0.0
H1296 H 0.00837 0.10713 0.19952 0.0
H1297 H 0.03007 0.13263 0.1698 0.0
C1298 C 0.09828 0.20197 0.23604 0.0
C1299 C 0.08507 0.2113 0.23908 0.0
C1300 C 0.09601 0.18585 0.21323 0.0
C1301 C 0.0805 0.17876 0.19288 0.0
C1302 C 0.06715 0.18768 0.19763 0.0
C1303 C 0.06941 0.20377 0.22032 0.0
C1304 C 0.07821 0.16239 0.16524 0.0
C1305 C 0.06556 0.14775 0.17926 0.0
C1306 C 0.08825 0.16125 0.12488 0.0
C1307 C 0.10124 0.17654 0.10647 0.0
C1308 C 0.0972 0.19349 0.09202 0.0
C1309 C 0.10954 0.20788 0.07505 0.0
C1310 C 0.12594 0.20543 0.07198 0.0
C1311 C 0.13004 0.18858 0.08573 0.0
C1312 C 0.11775 0.17415 0.1028 0.0
C1313 C 0.0499 0.09632 0.03134 0.0
C1314 C 0.06225 0.08631 0.02284 0.0
C1315 C 0.05324 0.11079 0.06061 0.0
C1316 C 0.06899 0.11563 0.08218 0.0
C1317 C 0.08141 0.10585 0.07341 0.0
C1318 C 0.07807 0.0913 0.0443 0.0
C1319 C 0.07251 0.13109 0.1132 0.0
C1320 C 0.08538 0.14557 0.09979 0.0
C1321 C 0.06267 0.13208 0.15407 0.0
C1322 C 0.04958 0.11679 0.17202 0.0
C1323 C 0.05335 0.09952 0.18337 0.0
C1324 C 0.04095 0.08513 0.2 0.0
C1325 C 0.02475 0.08788 0.20575 0.0
C1326 C 0.02092 0.10502 0.195 0.0
C1327 C 0.03327 0.11945 0.1783 0.0
H1328 H 0.01517 0.07672 0.21863 0.0
H1329 H 0.13548 0.21658 0.05882 0.0
H1330 H 0.31229 0.04063 0.17601 0.0
H1331 H 0.33616 0.04242 0.12297 0.0
H1332 H 0.36736 0.03537 0.24957 0.0
H1333 H 0.34361 0.03332 0.30265 0.0
H1334 H 0.38223 0.06228 0.18669 0.0
H1335 H 0.35454 1.00117 0.17819 0.0
H1336 H 0.33102 0.97661 0.16438 0.0
H1337 H 0.32713 0.99778 0.01508 0.0
H1338 H 0.35049 0.02264 0.0282 0.0
H1339 H 0.45238 0.04381 0.06773 0.0
H1340 H 0.428 0.04126 0.11914 0.0
H1341 H 0.39784 0.04937 0.99085 0.0
H1342 H 0.42207 0.05154 0.93917 0.0
H1343 H 0.38233 0.02213 0.05377 0.0
H1344 H 0.41046 0.08327 0.06323 0.0
H1345 H 0.43425 0.10743 0.07802 0.0
H1346 H 0.43754 0.08563 0.22696 0.0
H1347 H 0.41391 0.06117 0.21285 0.0
C1348 C 0.32419 0.03929 0.19255 0.0
C1349 C 0.326 0.03692 0.24369 0.0
C1350 C 0.33784 0.04034 0.16217 0.0
C1351 C 0.35356 0.03895 0.18226 0.0
C1352 C 0.35539 0.03659 0.23322 0.0
C1353 C 0.34178 0.0355 0.26355 0.0
C1354 C 0.36819 0.04019 0.15041 0.0
C1355 C 0.38232 0.05335 0.15802 0.0
C1356 C 0.36822 0.02879 0.11234 0.0
C1357 C 0.35414 0.01389 0.10434 0.0
C1358 C 0.34857 1.00069 0.14254 0.0
C1359 C 0.33529 0.98669 0.13481 0.0
C1360 C 0.32755 0.98567 0.08892 0.0
C1361 C 0.33311 0.99861 0.05063 0.0
C1362 C 0.34638 1.01265 0.05819 0.0
C1363 C 0.44054 0.04498 0.05045 0.0
C1364 C 0.43921 0.04804 0.99936 0.0
C1365 C 0.42664 0.04364 0.0799 0.0
C1366 C 0.41111 0.04533 0.05891 0.0
C1367 C 0.40969 0.04811 0.00789 0.0
C1368 C 0.4236 0.04955 0.97844 0.0
C1369 C 0.39635 0.0442 0.09012 0.0
C1370 C 0.38221 0.03107 0.08239 0.0
C1371 C 0.39633 0.05558 0.12824 0.0
C1372 C 0.41052 0.07029 0.13683 0.0
C1373 C 0.41635 0.08354 0.09902 0.0
C1374 C 0.42978 0.0973 0.1073 0.0
C1375 C 0.43743 0.09803 0.15336 0.0
C1376 C 0.43162 0.08503 0.19128 0.0
C1377 C 0.4182 0.07122 0.18317 0.0
H1378 H 0.44782 0.1087 0.15971 0.0
H1379 H 0.31727 0.97482 0.083 0.0
H1380 H 0.46026 0.33282 0.10228 0.0
H1381 H 0.46384 0.36339 0.06244 0.0
H1382 H 0.44568 0.34223 0.9266 0.0
H1383 H 0.44177 0.31157 0.96638 0.0
H1384 H 0.4746 0.36637 0.91554 0.0
H1385 H 0.42195 0.36387 0.99057 0.0
H1386 H 0.40231 0.35864 0.05896 0.0
H1387 H 0.43355 0.39977 0.13414 0.0
H1388 H 0.45351 0.40507 0.06649 0.0
H1389 H 0.47942 0.45209 0.7887 0.0
H1390 H 0.46768 0.4217 0.82385 0.0
H1391 H 0.47662 0.43948 0.96885 0.0
H1392 H 0.48711 0.47016 0.93342 0.0
H1393 H 0.45049 0.41614 0.9724 0.0
H1394 H 0.50355 0.41865 0.89812 0.0
H1395 H 0.52388 0.423 0.83167 0.0
H1396 H 0.49392 0.38031 0.75914 0.0
H1397 H 0.4728 0.37655 0.82311 0.0
C1398 C 0.4567 0.33464 0.06418 0.0
C1399 C 0.45071 0.31968 0.03759 0.0
C1400 C 0.4588 0.35216 0.04141 0.0
C1401 C 0.45492 0.35511 0.99161 0.0
C1402 C 0.44877 0.34026 0.96507 0.0
C1403 C 0.44662 0.32273 0.98783 0.0
C1404 C 0.45814 0.37363 0.96665 0.0
C1405 C 0.46912 0.37724 0.92729 0.0
C1406 C 0.45135 0.38784 0.98306 0.0
C1407 C 0.43929 0.38477 0.02361 0.0
C1408 C 0.4247 0.37171 0.02184 0.0
C1409 C 0.41349 0.36875 0.06045 0.0
C1410 C 0.4167 0.37884 0.10091 0.0
C1411 C 0.43109 0.39195 0.10279 0.0
C1412 C 0.44234 0.39496 0.06429 0.0
C1413 C 0.47848 0.44953 0.82805 0.0
C1414 C 0.48413 0.46338 0.85847 0.0
C1415 C 0.47195 0.43212 0.84818 0.0
C1416 C 0.47174 0.42805 0.89915 0.0
C1417 C 0.4767 0.44216 0.92945 0.0
C1418 C 0.48268 0.45971 0.90926 0.0
C1419 C 0.46714 0.40908 0.92109 0.0
C1420 C 0.45592 0.40534 0.96011 0.0
C1421 C 0.4739 0.39473 0.90459 0.0
C1422 C 0.48646 0.39746 0.86529 0.0
C1423 C 0.50114 0.41039 0.86761 0.0
C1424 C 0.51281 0.41277 0.83032 0.0
C1425 C 0.51024 0.40188 0.7914 0.0
C1426 C 0.49586 0.3888 0.78917 0.0
C1427 C 0.48396 0.38665 0.82572 0.0
H1428 H 0.51943 0.4035 0.76312 0.0
H1429 H 0.40801 0.37652 0.13077 0.0
H1430 H 0.20116 0.55044 0.29726 0.0
H1431 H 0.1778 0.54156 0.24204 0.0
H1432 H 0.20872 0.56269 0.11807 0.0
H1433 H 0.23229 0.57175 0.17348 0.0
H1434 H 0.17632 0.57192 0.11168 0.0
H1435 H 0.20134 0.51972 0.14123 0.0
H1436 H 0.21311 0.49644 0.19163 0.0
H1437 H 0.1663 0.47823 0.26299 0.0
H1438 H 0.15432 0.5016 0.21351 0.0
H1439 H 0.11873 0.52786 0.93997 0.0
H1440 H 0.14368 0.53901 0.9873 0.0
H1441 H 0.11916 0.51447 0.12005 0.0
H1442 H 0.09437 0.50287 0.07286 0.0
H1443 H 0.14978 0.50736 0.11725 0.0
H1444 H 0.12487 0.56004 0.08939 0.0
H1445 H 0.11315 0.58362 0.04012 0.0
H1446 H 0.15951 0.60113 0.96593 0.0
H1447 H 0.17144 0.57746 0.01423 0.0
C1448 C 0.20298 0.55337 0.25827 0.0
C1449 C 0.21858 0.56182 0.23973 0.0
C1450 C 0.18963 0.5482 0.22675 0.0
C1451 C 0.19154 0.55138 0.17595 0.0
C1452 C 0.207 0.56012 0.15717 0.0
C1453 C 0.22046 0.56515 0.1888 0.0
C1454 C 0.17741 0.54507 0.14287 0.0
C1455 C 0.17066 0.55778 0.1122 0.0
C1456 C 0.16986 0.52667 0.14432 0.0
C1457 C 0.17698 0.51252 0.17396 0.0
C1458 C 0.1936 0.51085 0.16795 0.0
C1459 C 0.2003 0.49762 0.1963 0.0
C1460 C 0.19047 0.48589 0.23057 0.0
C1461 C 0.1739 0.48734 0.23646 0.0
C1462 C 0.16715 0.50056 0.20824 0.0
C1463 C 0.11869 0.52475 0.97922 0.0
C1464 C 0.10455 0.51443 1.00263 0.0
C1465 C 0.13291 0.53129 1.00629 0.0
C1466 C 0.13327 0.52771 0.05733 0.0
C1467 C 0.11918 0.51743 0.08074 0.0
C1468 C 0.10496 0.51092 0.05374 0.0
C1469 C 0.14845 0.53421 0.0864 0.0
C1470 C 0.15545 0.52151 0.11638 0.0
C1471 C 0.15617 0.55262 0.08426 0.0
C1472 C 0.149 0.56684 0.05509 0.0
C1473 C 0.13252 0.5688 0.06226 0.0
C1474 C 0.12585 0.58221 0.03456 0.0
C1475 C 0.13558 0.59385 0.99988 0.0
C1476 C 0.15199 0.5921 0.99279 0.0
C1477 C 0.15872 0.57869 0.02033 0.0
H1478 H 0.13043 0.60428 0.97864 0.0
H1479 H 0.19568 0.47565 0.25248 0.0
H1480 H 0.94597 0.82123 0.32579 0.0
H1481 H 0.95061 0.8471 0.37454 0.0
H1482 H 0.93565 0.81198 0.50412 0.0
H1483 H 0.93051 0.78595 0.45512 0.0
H1484 H 0.92227 0.84263 0.50027 0.0
H1485 H 0.97629 0.82841 0.48362 0.0
H1486 H 0.99988 0.82186 0.43915 0.0
H1487 H 0.00557 0.8739 0.35904 0.0
H1488 H 0.98185 0.88068 0.40255 0.0
H1489 H 0.9532 0.91086 0.66194 0.0
H1490 H 0.94758 0.88294 0.62079 0.0
H1491 H 0.9645 0.91286 0.48486 0.0
H1492 H 0.97023 0.94069 0.52575 0.0
H1493 H 0.97718 0.88338 0.4969 0.0
H1494 H 0.9228 0.89745 0.51131 0.0
H1495 H 0.89917 0.9042 0.55518 0.0
H1496 H 0.89389 0.85274 0.63828 0.0
H1497 H 0.91758 0.84575 0.5951 0.0
C1498 C 0.94347 0.81897 0.36456 0.0
C1499 C 0.93783 0.80145 0.38645 0.0
C1500 C 0.94629 0.83379 0.39252 0.0
C1501 C 0.94368 0.8315 0.44316 0.0
C1502 C 0.93782 0.81409 0.46514 0.0
C1503 C 0.93502 0.7992 0.43714 0.0
C1504 C 0.94719 0.84732 0.47289 0.0
C1505 C 0.93435 0.8514 0.50018 0.0
C1506 C 0.96285 0.85898 0.47208 0.0
C1507 C 0.9772 0.85499 0.44608 0.0
C1508 C 0.98249 0.83841 0.45627 0.0
C1509 C 0.9959 0.83466 0.43127 0.0
C1510 C 0.0042 0.84744 0.39622 0.0
C1511 C 0.99912 0.86401 0.38618 0.0
C1512 C 0.98571 0.86782 0.41103 0.0
C1513 C 0.95557 0.9115 0.62319 0.0
C1514 C 0.96219 0.92804 0.59716 0.0
C1515 C 0.95236 0.89552 0.59968 0.0
C1516 C 0.95549 0.89576 0.54951 0.0
C1517 C 0.96205 0.91226 0.52357 0.0
C1518 C 0.96535 0.92819 0.54705 0.0
C1519 C 0.95219 0.8789 0.52382 0.0
C1520 C 0.9651 0.8746 0.49727 0.0
C1521 C 0.93657 0.86711 0.5252 0.0
C1522 C 0.92215 0.8712 0.55056 0.0
C1523 C 0.91669 0.88763 0.53921 0.0
C1524 C 0.90325 0.89149 0.56386 0.0
C1525 C 0.89507 0.87894 0.59965 0.0
C1526 C 0.90025 0.86247 0.61064 0.0
C1527 C 0.91368 0.85855 0.58606 0.0
H1528 H 0.88469 0.88196 0.61874 0.0
H1529 H 0.01457 0.84451 0.3769 0.0
H1530 H 0.71786 0.02409 0.3797 0.0
H1531 H 0.69532 0.02187 0.43798 0.0
H1532 H 0.6704 0.97281 0.37991 0.0
H1533 H 0.69282 0.97493 0.32185 0.0
H1534 H 0.64948 0.99548 0.38638 0.0
H1535 H 0.69077 0.97352 0.49174 0.0
H1536 H 0.71801 0.97497 0.5331 0.0
H1537 H 0.71069 0.0213 0.60293 0.0
H1538 H 0.68352 0.02033 0.56133 0.0
H1539 H 0.58661 0.96387 0.55756 0.0
H1540 H 0.61131 0.96722 0.50779 0.0
H1541 H 0.63348 0.01446 0.57911 0.0
H1542 H 0.6091 1.01067 0.63095 0.0
H1543 H 0.65616 0.99495 0.56641 0.0
H1544 H 0.61561 0.0176 0.46321 0.0
H1545 H 0.58838 0.01724 0.42244 0.0
H1546 H 0.59442 0.97128 0.34883 0.0
H1547 H 0.6216 0.97121 0.38969 0.0
C1548 C 0.70771 1.01268 0.3799 0.0
C1549 C 0.70712 0.99974 0.34591 0.0
C1550 C 0.69481 1.01144 0.4132 0.0
C1551 C 0.68115 0.99714 0.41348 0.0
C1552 C 0.68074 0.98402 0.38026 0.0
C1553 C 0.69356 0.98528 0.34697 0.0
C1554 C 0.66689 0.99612 0.44668 0.0
C1555 C 0.65094 0.99513 0.42581 0.0
C1556 C 0.66881 0.99636 0.49805 0.0
C1557 C 0.68521 0.997 0.52282 0.0
C1558 C 0.69504 0.98414 0.51546 0.0
C1559 C 0.71046 0.98486 0.53905 0.0
C1560 C 0.71611 0.99827 0.57046 0.0
C1561 C 0.70633 1.01096 0.57846 0.0
C1562 C 0.69092 1.01034 0.55488 0.0
C1563 C 0.59681 0.97484 0.5633 0.0
C1564 C 0.59575 0.98705 0.59823 0.0
C1565 C 0.61087 0.97687 0.53427 0.0
C1566 C 0.62415 0.99133 0.53885 0.0
C1567 C 0.62335 1.0033 0.57448 0.0
C1568 C 0.6093 1.00121 0.6038 0.0
C1569 C 0.63875 0.99394 0.50614 0.0
C1570 C 0.65472 0.99533 0.527 0.0
C1571 C 0.63691 0.99426 0.45467 0.0
C1572 C 0.62058 0.99431 0.42986 0.0
C1573 C 0.61108 1.00733 0.4386 0.0
C1574 C 0.59566 1.00722 0.41543 0.0
C1575 C 0.58966 0.99422 0.38315 0.0
C1576 C 0.59908 0.98133 0.37388 0.0
C1577 C 0.6145 0.98137 0.397 0.0
H1578 H 0.57772 0.99416 0.36525 0.0
H1579 H 0.72804 0.99878 0.58872 0.0
H1580 H 0.59631 0.71099 0.59293 0.0
H1581 H 0.59151 0.68046 0.63467 0.0
H1582 H 0.54468 0.66801 0.55817 0.0
H1583 H 0.54936 0.6984 0.51659 0.0
H1584 H 0.54271 0.65724 0.65841 0.0
H1585 H 0.57654 0.65288 0.51968 0.0
H1586 H 0.60139 0.66161 0.46818 0.0
H1587 H 0.63227 0.64885 0.59026 0.0
H1588 H 0.6076 0.64028 0.64267 0.0
H1589 H 0.54238 0.55612 0.66092 0.0
H1590 H 0.55254 0.58675 0.62393 0.0
H1591 H 0.55515 0.6069 0.76638 0.0
H1592 H 0.54505 0.57646 0.80323 0.0
H1593 H 0.57986 0.61403 0.6343 0.0
H1594 H 0.53975 0.6462 0.75531 0.0
H1595 H 0.51509 0.63749 0.80725 0.0
H1596 H 0.49631 0.59395 0.71933 0.0
H1597 H 0.5206 0.6029 0.6656 0.0
C1598 C 0.58497 0.70175 0.58523 0.0
C1599 C 0.57326 0.70704 0.55127 0.0
C1600 C 0.58229 0.68431 0.60888 0.0
C1601 C 0.56778 0.67196 0.59928 0.0
C1602 C 0.55596 0.67733 0.56603 0.0
C1603 C 0.55872 0.69464 0.54204 0.0
C1604 C 0.56482 0.65337 0.62351 0.0
C1605 C 0.55087 0.64781 0.65329 0.0
C1606 C 0.57545 0.64108 0.61675 0.0
C1607 C 0.59025 0.64611 0.58519 0.0
C1608 C 0.58864 0.65208 0.53563 0.0
C1609 C 0.60269 0.65697 0.50626 0.0
C1610 C 0.6184 0.65583 0.52597 0.0
C1611 C 0.62009 0.64975 0.57506 0.0
C1612 C 0.60608 0.64486 0.6046 0.0
C1613 C 0.54543 0.56704 0.68438 0.0
C1614 C 0.54251 0.56398 0.73486 0.0
C1615 C 0.55124 0.58452 0.66324 0.0
C1616 C 0.55426 0.59915 0.6923 0.0
C1617 C 0.55256 0.59587 0.74313 0.0
C1618 C 0.54666 0.57848 0.76413 0.0
C1619 C 0.55775 0.61791 0.66922 0.0
C1620 C 0.57178 0.6235 0.6397 0.0
C1621 C 0.54716 0.63025 0.67615 0.0
C1622 C 0.53209 0.62515 0.70674 0.0
C1623 C 0.53029 0.63489 0.74679 0.0
C1624 C 0.51638 0.62987 0.77662 0.0
C1625 C 0.5042 0.61505 0.76697 0.0
C1626 C 0.50579 0.60538 0.72694 0.0
C1627 C 0.5196 0.61047 0.69665 0.0
H1628 H 0.49351 0.6111 0.79041 0.0
H1629 H 0.62926 0.65963 0.50317 0.0
H1630 H 0.81972 0.48422 0.32004 0.0
H1631 H 0.84376 0.49184 0.37352 0.0
H1632 H 0.82405 0.44701 0.47631 0.0
H1633 H 0.79953 0.43964 0.423 0.0
H1634 H 0.8383 0.47447 0.52475 0.0
H1635 H 0.85534 0.44412 0.39816 0.0
H1636 H 0.85876 0.43654 0.31411 0.0
H1637 H 0.8879 0.48912 0.27871 0.0
H1638 H 0.88445 0.49714 0.36236 0.0
H1639 H 0.92097 0.48302 0.63413 0.0
H1640 H 0.89525 0.47046 0.59226 0.0
H1641 H 0.90017 0.51847 0.49305 0.0
H1642 H 0.92536 0.53155 0.53579 0.0
H1643 H 0.89371 0.48457 0.4478 0.0
H1644 H 0.8738 0.51395 0.57958 0.0
H1645 H 0.87196 0.51824 0.66703 0.0
H1646 H 0.84943 0.46256 0.69603 0.0
H1647 H 0.85141 0.45786 0.6088 0.0
C1648 C 0.82048 0.47602 0.35413 0.0
C1649 C 0.80787 0.46121 0.36711 0.0
C1650 C 0.83426 0.48034 0.38463 0.0
C1651 C 0.83599 0.46973 0.42843 0.0
C1652 C 0.82308 0.45533 0.44255 0.0
C1653 C 0.80909 0.45113 0.41216 0.0
C1654 C 0.85148 0.47365 0.45837 0.0
C1655 C 0.8504 0.47638 0.50804 0.0
C1656 C 0.86737 0.476 0.43695 0.0
C1657 C 0.86952 0.47127 0.3865 0.0
C1658 C 0.86238 0.45412 0.37236 0.0
C1659 C 0.86433 0.44973 0.3248 0.0
C1660 C 0.87351 0.46235 0.29107 0.0
C1661 C 0.88078 0.47937 0.30487 0.0
C1662 C 0.87884 0.48383 0.35239 0.0
C1663 C 0.9165 0.49108 0.60391 0.0
C1664 C 0.92541 0.50835 0.58839 0.0
C1665 C 0.90184 0.48378 0.5798 0.0
C1666 C 0.89587 0.49352 0.53948 0.0
C1667 C 0.90467 0.51067 0.52384 0.0
C1668 C 0.91916 0.51808 0.54824 0.0
C1669 C 0.88042 0.486 0.51326 0.0
C1670 C 0.88157 0.48249 0.46438 0.0
C1671 C 0.8647 0.48249 0.53577 0.0
C1672 C 0.8629 0.48551 0.58777 0.0
C1673 C 0.86853 0.5026 0.60464 0.0
C1674 C 0.86746 0.5051 0.65417 0.0
C1675 C 0.86063 0.49067 0.68709 0.0
C1676 C 0.85474 0.47372 0.67049 0.0
C1677 C 0.85582 0.47113 0.62101 0.0
H1678 H 0.85987 0.49262 0.72545 0.0
H1679 H 0.87501 0.45893 0.25426 0.0
loop_
_geom_bond_atom_site_label_1
_geom_bond_atom_site_label_2
_geom_bond_distance
_geom_bond_site_symmetry_2
_ccdc_geom_bond_type
C0 C1 1.264 . S
C0 C5 1.479 . S
C0 C10 1.465 . S
C1 C0 1.264 . S
C1 C3 1.339 . S
C1 H28 0.931 . S
C2 C3 1.395 . S
C2 C4 1.320 . S
C3 C1 1.339 . S
C3 C2 1.395 . S
C3 H29 0.929 . S
C4 C2 1.320 . S
C4 C5 1.405 . S
C4 H30 0.930 . S
C5 C0 1.479 . S
C5 C4 1.405 . S
C5 H31 0.931 . S
U6 O7 2.454 . S
U6 O8 2.458 1_554 S
U6 C9 2.984 . S
U6 C10 2.847 . S
U6 C23 2.882 1_554 S
U6 O24 2.441 . S
U6 O25 2.420 . S
U6 O26 2.455 1_554 S
U6 O27 2.449 . S
O7 U6 2.454 . S
O7 C9 1.353 . S
O8 U6 2.458 1_556 S
O8 C9 1.286 1_556 S
C9 U6 2.984 . S
C9 O7 1.353 . S
C9 O8 1.286 1_554 S
C9 C11 1.363 . S
C10 C0 1.465 . S
C10 U6 2.847 . S
C10 O24 1.249 . S
C10 O25 1.202 . S
C11 C9 1.363 . S
C11 C13 1.408 . S
C11 C16 1.342 1_554 S
C12 C13 1.310 . S
C12 C15 1.461 1_554 S
C12 H32 0.932 . S
C13 C11 1.408 . S
C13 C12 1.310 . S
C13 H33 0.930 . S
C14 C15 1.474 . S
C14 C16 1.285 . S
C14 H34 0.929 . S
C15 C12 1.461 1_556 S
C15 C14 1.474 . S
C16 C11 1.342 1_556 S
C16 C14 1.285 . S
C16 H35 0.930 . S
C17 C20 1.424 . S
C17 C22 1.245 . S
C17 C23 1.428 . S
C18 C21 1.260 . S
C18 C22 1.477 . S
C18 H36 0.932 . S
C19 C20 1.384 . S
C19 C21 1.479 . S
C19 H37 0.929 . S
C20 C17 1.424 . S
C20 C19 1.384 . S
C20 H38 0.928 . S
C21 C18 1.260 . S
C21 C19 1.479 . S
C22 C17 1.245 . S
C22 C18 1.477 . S
C22 H39 0.932 . S
C23 U6 2.882 1_556 S
C23 C17 1.428 . S
C23 O26 1.301 . S
C23 O27 1.282 1_556 S
O24 U6 2.441 . S
O24 C10 1.249 . S
O25 U6 2.420 . S
O25 C10 1.202 . S
O26 U6 2.455 1_556 S
O26 C23 1.301 . S
O27 U6 2.449 . S
O27 C23 1.282 1_554 S
H28 C1 0.931 . S
H29 C3 0.929 . S
H30 C4 0.930 . S
H31 C5 0.931 . S
H32 C12 0.932 . S
H33 C13 0.930 . S
H34 C14 0.929 . S
H35 C16 0.930 . S
H36 C18 0.932 . S
H37 C19 0.929 . S
H38 C20 0.928 . S
H39 C22 0.932 . S
C40 C41 1.264 . S
C40 C45 1.479 . S
C40 C50 1.465 . S
C41 C40 1.264 . S
C41 C43 1.339 . S
C41 H68 0.931 . S
C42 C43 1.395 . S
C42 C44 1.320 . S
C43 C41 1.339 . S
C43 C42 1.395 . S
C43 H69 0.929 . S
C44 C42 1.320 . S
C44 C45 1.405 . S
C44 H70 0.930 . S
C45 C40 1.479 . S
C45 C44 1.405 . S
C45 H71 0.931 . S
U46 O47 2.454 . S
U46 O48 2.458 1_554 S
U46 C49 2.984 . S
U46 C50 2.847 . S
U46 C63 2.882 1_554 S
U46 O64 2.441 . S
U46 O65 2.420 . S
U46 O66 2.455 1_554 S
U46 O67 2.449 . S
O47 U46 2.454 . S
O47 C49 1.353 . S
O48 U46 2.458 1_556 S
O48 C49 1.286 1_556 S
C49 U46 2.984 . S
C49 O47 1.353 . S
C49 O48 1.286 1_554 S
C49 C51 1.363 . S
C50 C40 1.465 . S
C50 U46 2.847 . S
C50 O64 1.249 . S
C50 O65 1.202 . S
C51 C49 1.363 . S
C51 C53 1.408 . S
C51 C56 1.342 1_554 S
C52 C53 1.310 . S
C52 C55 1.461 1_554 S
C52 H72 0.932 . S
C53 C51 1.408 . S
C53 C52 1.310 . S
C53 H73 0.930 . S
C54 C55 1.474 . S
C54 C56 1.285 . S
C54 H74 0.929 . S
C55 C52 1.461 1_556 S
C55 C54 1.474 . S
C56 C51 1.342 1_556 S
C56 C54 1.285 . S
C56 H75 0.930 . S
C57 C60 1.424 . S
C57 C62 1.245 . S
C57 C63 1.428 . S
C58 C61 1.260 . S
C58 C62 1.477 . S
C58 H76 0.932 . S
C59 C60 1.384 . S
C59 C61 1.479 . S
C59 H77 0.929 . S
C60 C57 1.424 . S
C60 C59 1.384 . S
C60 H78 0.928 . S
C61 C58 1.260 . S
C61 C59 1.479 . S
C62 C57 1.245 . S
C62 C58 1.477 . S
C62 H79 0.932 . S
C63 U46 2.882 1_556 S
C63 C57 1.428 . S
C63 O66 1.301 . S
C63 O67 1.282 1_556 S
O64 U46 2.441 . S
O64 C50 1.249 . S
O65 U46 2.420 . S
O65 C50 1.202 . S
O66 U46 2.455 1_556 S
O66 C63 1.301 . S
O67 U46 2.449 . S
O67 C63 1.282 1_554 S
H68 C41 0.931 . S
H69 C43 0.929 . S
H70 C44 0.930 . S
H71 C45 0.931 . S
H72 C52 0.932 . S
H73 C53 0.930 . S
H74 C54 0.929 . S
H75 C56 0.930 . S
H76 C58 0.932 . S
H77 C59 0.929 . S
H78 C60 0.928 . S
H79 C62 0.932 . S
C80 C81 1.264 . S
C80 C85 1.479 . S
C80 C90 1.465 . S
C81 C80 1.264 . S
C81 C83 1.339 . S
C81 H108 0.931 . S
C82 C83 1.395 . S
C82 C84 1.320 . S
C83 C81 1.339 . S
C83 C82 1.395 . S
C83 H109 0.929 . S
C84 C82 1.320 . S
C84 C85 1.405 . S
C84 H110 0.919 1_545 S
C85 C80 1.479 . S
C85 C84 1.405 . S
C85 H111 0.931 . S
U86 O87 2.454 . S
U86 O88 2.458 1_554 S
U86 C89 2.984 1_554 S
U86 C90 2.847 . S
U86 C103 2.882 1_554 S
U86 O104 2.441 . S
U86 O105 2.420 . S
U86 O106 2.455 1_554 S
U86 O107 2.449 1_554 S
O87 U86 2.454 . S
O87 C89 1.353 1_554 S
O88 U86 2.458 1_556 S
O88 C89 1.286 . S
C89 U86 2.984 1_556 S
C89 O87 1.353 1_556 S
C89 O88 1.286 . S
C89 C91 1.363 . S
C90 C80 1.465 . S
C90 U86 2.847 . S
C90 O104 1.249 . S
C90 O105 1.202 . S
C91 C89 1.363 . S
C91 C93 1.408 1_556 S
C91 C96 1.342 . S
C92 C93 1.310 1_556 S
C92 C95 1.461 . S
C92 H112 0.940 1_556 S
C93 C91 1.408 1_554 S
C93 C92 1.310 1_554 S
C93 H113 0.930 . S
C94 C95 1.475 1_565 S
C94 C96 1.283 1_565 S
C94 H114 0.932 . S
C95 C92 1.461 . S
C95 C94 1.475 1_545 S
C96 C91 1.342 . S
C96 C94 1.283 1_545 S
C96 H115 0.930 . S
C97 C100 1.424 . S
C97 C102 1.245 . S
C97 C103 1.428 . S
C98 C101 1.260 . S
C98 C102 1.477 . S
C98 H116 0.932 . S
C99 C100 1.384 . S
C99 C101 1.479 . S
C99 H117 0.929 . S
C100 C97 1.424 . S
C100 C99 1.384 . S
C100 H118 0.928 . S
C101 C98 1.260 . S
C101 C99 1.479 . S
C102 C97 1.245 . S
C102 C98 1.477 . S
C102 H119 0.932 . S
C103 U86 2.882 1_556 S
C103 C97 1.428 . S
C103 O106 1.301 . S
C103 O107 1.282 . S
O104 U86 2.441 . S
O104 C90 1.249 . S
O105 U86 2.420 . S
O105 C90 1.202 . S
O106 U86 2.455 1_556 S
O106 C103 1.301 . S
O107 U86 2.449 1_556 S
O107 C103 1.282 . S
H108 C81 0.931 . S
H109 C83 0.929 . S
H110 C84 0.919 1_565 S
H111 C85 0.931 . S
H112 C92 0.940 1_554 S
H113 C93 0.930 . S
H114 C94 0.932 . S
H115 C96 0.930 . S
H116 C98 0.932 . S
H117 C99 0.929 . S
H118 C100 0.928 . S
H119 C102 0.932 . S
C120 C121 1.264 . S
C120 C125 1.479 . S
C120 C130 1.465 . S
C121 C120 1.264 . S
C121 C123 1.339 . S
C121 H148 0.931 . S
C122 C123 1.395 . S
C122 C124 1.320 . S
C123 C121 1.339 . S
C123 C122 1.395 . S
C123 H149 0.929 . S
C124 C122 1.320 . S
C124 C125 1.405 . S
C124 H150 0.930 . S
C125 C120 1.479 . S
C125 C124 1.405 . S
C125 H151 0.931 . S
U126 O127 2.454 . S
U126 O128 2.458 . S
U126 C129 2.984 . S
U126 C130 2.847 . S
U126 C143 2.882 . S
U126 O144 2.441 . S
U126 O145 2.420 . S
U126 O146 2.455 . S
U126 O147 2.449 . S
O127 U126 2.454 . S
O127 C129 1.353 . S
O128 U126 2.458 . S
O128 C129 1.286 . S
C129 U126 2.984 . S
C129 O127 1.353 . S
C129 O128 1.286 . S
C129 C131 1.363 . S
C130 C120 1.465 . S
C130 U126 2.847 . S
C130 O144 1.249 . S
C130 O145 1.202 . S
C131 C129 1.363 . S
C131 C133 1.408 . S
C131 C136 1.342 . S
C132 C133 1.310 . S
C132 C135 1.461 . S
C132 H152 0.932 . S
C133 C131 1.408 . S
C133 C132 1.310 . S
C133 H153 0.930 . S
C134 C135 1.474 . S
C134 C136 1.285 . S
C134 H154 0.929 . S
C135 C132 1.461 . S
C135 C134 1.474 . S
C136 C131 1.342 . S
C136 C134 1.285 . S
C136 H155 0.930 . S
C137 C140 1.424 . S
C137 C142 1.245 . S
C137 C143 1.428 . S
C138 C141 1.260 . S
C138 C142 1.477 . S
C138 H156 0.932 . S
C139 C140 1.384 . S
C139 C141 1.479 . S
C139 H157 0.929 . S
C140 C137 1.424 . S
C140 C139 1.384 . S
C140 H158 0.928 . S
C141 C138 1.260 . S
C141 C139 1.479 . S
C142 C137 1.245 . S
C142 C138 1.477 . S
C142 H159 0.932 . S
C143 U126 2.882 . S
C143 C137 1.428 . S
C143 O146 1.301 . S
C143 O147 1.282 . S
O144 U126 2.441 . S
O144 C130 1.249 . S
O145 U126 2.420 . S
O145 C130 1.202 . S
O146 U126 2.455 . S
O146 C143 1.301 . S
O147 U126 2.449 . S
O147 C143 1.282 . S
H148 C121 0.931 . S
H149 C123 0.929 . S
H150 C124 0.930 . S
H151 C125 0.931 . S
H152 C132 0.932 . S
H153 C133 0.930 . S
H154 C134 0.929 . S
H155 C136 0.930 . S
H156 C138 0.932 . S
H157 C139 0.929 . S
H158 C140 0.928 . S
H159 C142 0.932 . S
C160 C161 1.264 . S
C160 C165 1.479 . S
C160 C170 1.465 . S
C161 C160 1.264 . S
C161 C163 1.339 . S
C161 H188 0.931 . S
C162 C163 1.395 . S
C162 C164 1.320 . S
C163 C161 1.339 . S
C163 C162 1.395 . S
C163 H189 0.929 . S
C164 C162 1.320 . S
C164 C165 1.405 . S
C164 H190 0.930 . S
C165 C160 1.479 . S
C165 C164 1.405 . S
C165 H191 0.931 . S
U166 O167 2.454 . S
U166 O168 2.458 . S
U166 C169 2.984 . S
U166 C170 2.847 . S
U166 C183 2.882 . S
U166 O184 2.441 . S
U166 O185 2.420 . S
U166 O186 2.455 . S
U166 O187 2.449 . S
O167 U166 2.454 . S
O167 C169 1.353 . S
O168 U166 2.458 . S
O168 C169 1.286 . S
C169 U166 2.984 . S
C169 O167 1.353 . S
C169 O168 1.286 . S
C169 C171 1.363 . S
C170 C160 1.465 . S
C170 U166 2.847 . S
C170 O184 1.249 . S
C170 O185 1.202 . S
C171 C169 1.363 . S
C171 C173 1.408 . S
C171 C176 1.342 . S
C172 C173 1.310 . S
C172 C175 1.461 . S
C172 H192 0.932 . S
C173 C171 1.408 . S
C173 C172 1.310 . S
C173 H193 0.930 . S
C174 C175 1.474 . S
C174 C176 1.285 . S
C174 H194 0.929 . S
C175 C172 1.461 . S
C175 C174 1.474 . S
C176 C171 1.342 . S
C176 C174 1.285 . S
C176 H195 0.930 . S
C177 C180 1.424 . S
C177 C182 1.245 . S
C177 C183 1.428 . S
C178 C181 1.260 . S
C178 C182 1.477 . S
C178 H196 0.932 . S
C179 C180 1.384 . S
C179 C181 1.479 . S
C179 H197 0.929 . S
C180 C177 1.424 . S
C180 C179 1.384 . S
C180 H198 0.928 . S
C181 C178 1.260 . S
C181 C179 1.479 . S
C182 C177 1.245 . S
C182 C178 1.477 . S
C182 H199 0.932 . S
C183 U166 2.882 . S
C183 C177 1.428 . S
C183 O186 1.301 . S
C183 O187 1.282 . S
O184 U166 2.441 . S
O184 C170 1.249 . S
O185 U166 2.420 . S
O185 C170 1.202 . S
O186 U166 2.455 . S
O186 C183 1.301 . S
O187 U166 2.449 . S
O187 C183 1.282 . S
H188 C161 0.931 . S
H189 C163 0.929 . S
H190 C164 0.930 . S
H191 C165 0.931 . S
H192 C172 0.932 . S
H193 C173 0.930 . S
H194 C174 0.929 . S
H195 C176 0.930 . S
H196 C178 0.932 . S
H197 C179 0.929 . S
H198 C180 0.928 . S
H199 C182 0.932 . S
C200 C201 1.264 . S
C200 C205 1.479 . S
C200 C210 1.465 . S
C201 C200 1.264 . S
C201 C203 1.339 . S
C201 H228 0.931 . S
C202 C203 1.395 . S
C202 C204 1.320 . S
C203 C201 1.339 . S
C203 C202 1.395 . S
C203 H229 0.929 . S
C204 C202 1.320 . S
C204 C205 1.405 . S
C204 H230 0.930 . S
C205 C200 1.479 . S
C205 C204 1.405 . S
C205 H231 0.931 . S
U206 O207 2.454 . S
U206 O208 2.458 . S
U206 C209 2.984 . S
U206 C210 2.847 . S
U206 C223 2.882 . S
U206 O224 2.441 . S
U206 O225 2.420 . S
U206 O226 2.455 . S
U206 O227 2.449 . S
O207 U206 2.454 . S
O207 C209 1.353 . S
O208 U206 2.458 . S
O208 C209 1.286 . S
C209 U206 2.984 . S
C209 O207 1.353 . S
C209 O208 1.286 . S
C209 C211 1.363 . S
C210 C200 1.465 . S
C210 U206 2.847 . S
C210 O224 1.249 . S
C210 O225 1.202 . S
C211 C209 1.363 . S
C211 C213 1.408 . S
C211 C216 1.342 . S
C212 C213 1.310 . S
C212 C215 1.461 . S
C212 H232 0.932 . S
C213 C211 1.408 . S
C213 C212 1.310 . S
C213 H233 0.930 . S
C214 C215 1.474 . S
C214 C216 1.285 . S
C214 H234 0.929 . S
C215 C212 1.461 . S
C215 C214 1.474 . S
C216 C211 1.342 . S
C216 C214 1.285 . S
C216 H235 0.930 . S
C217 C220 1.424 . S
C217 C222 1.245 . S
C217 C223 1.428 . S
C218 C221 1.260 . S
C218 C222 1.477 . S
C218 H236 0.932 . S
C219 C220 1.384 . S
C219 C221 1.479 . S
C219 H237 0.929 . S
C220 C217 1.424 . S
C220 C219 1.384 . S
C220 H238 0.928 . S
C221 C218 1.260 . S
C221 C219 1.479 . S
C222 C217 1.245 . S
C222 C218 1.477 . S
C222 H239 0.932 . S
C223 U206 2.882 . S
C223 C217 1.428 . S
C223 O226 1.301 . S
C223 O227 1.282 . S
O224 U206 2.441 . S
O224 C210 1.249 . S
O225 U206 2.420 . S
O225 C210 1.202 . S
O226 U206 2.455 . S
O226 C223 1.301 . S
O227 U206 2.449 . S
O227 C223 1.282 . S
H228 C201 0.931 . S
H229 C203 0.929 . S
H230 C204 0.930 . S
H231 C205 0.931 . S
H232 C212 0.932 . S
H233 C213 0.930 . S
H234 C214 0.929 . S
H235 C216 0.930 . S
H236 C218 0.932 . S
H237 C219 0.929 . S
H238 C220 0.928 . S
H239 C222 0.932 . S
C240 C241 1.264 . S
C240 C245 1.479 . S
C240 C250 1.465 . S
C241 C240 1.264 . S
C241 C243 1.339 . S
C241 H268 0.931 . S
C242 C243 1.395 . S
C242 C244 1.320 . S
C243 C241 1.339 . S
C243 C242 1.395 . S
C243 H269 0.929 . S
C244 C242 1.320 . S
C244 C245 1.405 . S
C244 H270 0.925 1_545 S
C245 C240 1.479 . S
C245 C244 1.405 . S
C245 H271 0.931 . S
U246 O247 2.454 . S
U246 O248 2.458 . S
U246 C249 2.984 . S
U246 C250 2.847 . S
U246 C263 2.882 . S
U246 O264 2.441 . S
U246 O265 2.420 . S
U246 O266 2.455 . S
U246 O267 2.449 . S
O247 U246 2.454 . S
O247 C249 1.353 . S
O248 U246 2.458 . S
O248 C249 1.286 . S
C249 U246 2.984 . S
C249 O247 1.353 . S
C249 O248 1.286 . S
C249 C251 1.363 . S
C250 C240 1.465 . S
C250 U246 2.847 . S
C250 O264 1.249 . S
C250 O265 1.202 . S
C251 C249 1.363 . S
C251 C253 1.408 . S
C251 C256 1.342 . S
C252 C253 1.310 . S
C252 C255 1.459 . S
C252 H272 0.932 . S
C253 C251 1.408 . S
C253 C252 1.310 . S
C253 H273 0.930 . S
C254 C255 1.473 1_565 S
C254 C256 1.285 1_565 S
C254 H274 0.930 . S
C255 C252 1.459 . S
C255 C254 1.473 1_545 S
C256 C251 1.342 . S
C256 C254 1.285 1_545 S
C256 H275 0.937 . S
C257 C260 1.424 . S
C257 C262 1.245 . S
C257 C263 1.428 . S
C258 C261 1.260 . S
C258 C262 1.477 . S
C258 H276 0.932 . S
C259 C260 1.384 . S
C259 C261 1.479 . S
C259 H277 0.929 . S
C260 C257 1.424 . S
C260 C259 1.384 . S
C260 H278 0.928 . S
C261 C258 1.260 . S
C261 C259 1.479 . S
C262 C257 1.245 . S
C262 C258 1.477 . S
C262 H279 0.932 . S
C263 U246 2.882 . S
C263 C257 1.428 . S
C263 O266 1.301 . S
C263 O267 1.282 . S
O264 U246 2.441 . S
O264 C250 1.249 . S
O265 U246 2.420 . S
O265 C250 1.202 . S
O266 U246 2.455 . S
O266 C263 1.301 . S
O267 U246 2.449 . S
O267 C263 1.282 . S
H268 C241 0.931 . S
H269 C243 0.929 . S
H270 C244 0.925 1_565 S
H271 C245 0.931 . S
H272 C252 0.932 . S
H273 C253 0.930 . S
H274 C254 0.930 . S
H275 C256 0.937 . S
H276 C258 0.932 . S
H277 C259 0.929 . S
H278 C260 0.928 . S
H279 C262 0.932 . S
C280 C281 1.264 . S
C280 C285 1.479 . S
C280 C290 1.465 . S
C281 C280 1.264 . S
C281 C283 1.339 . S
C281 H308 0.931 . S
C282 C283 1.395 . S
C282 C284 1.320 . S
C283 C281 1.339 . S
C283 C282 1.395 . S
C283 H309 0.929 . S
C284 C282 1.320 . S
C284 C285 1.405 . S
C284 H310 0.930 . S
C285 C280 1.479 . S
C285 C284 1.405 . S
C285 H311 0.931 . S
U286 O287 2.454 . S
U286 O288 2.458 . S
U286 C289 2.984 . S
U286 C290 2.847 . S
U286 C303 2.882 . S
U286 O304 2.441 . S
U286 O305 2.420 . S
U286 O306 2.455 . S
U286 O307 2.449 . S
O287 U286 2.454 . S
O287 C289 1.353 . S
O288 U286 2.458 . S
O288 C289 1.286 . S
C289 U286 2.984 . S
C289 O287 1.353 . S
C289 O288 1.286 . S
C289 C291 1.363 . S
C290 C280 1.465 . S
C290 U286 2.847 . S
C290 O304 1.249 . S
C290 O305 1.202 . S
C291 C289 1.363 . S
C291 C293 1.408 . S
C291 C296 1.342 . S
C292 C293 1.310 . S
C292 C295 1.461 . S
C292 H312 0.932 . S
C293 C291 1.408 . S
C293 C292 1.310 . S
C293 H313 0.930 . S
C294 C295 1.474 . S
C294 C296 1.285 . S
C294 H314 0.929 . S
C295 C292 1.461 . S
C295 C294 1.474 . S
C296 C291 1.342 . S
C296 C294 1.285 . S
C296 H315 0.930 . S
C297 C300 1.424 . S
C297 C302 1.245 . S
C297 C303 1.428 . S
C298 C301 1.260 . S
C298 C302 1.477 . S
C298 H316 0.932 . S
C299 C300 1.384 . S
C299 C301 1.479 . S
C299 H317 0.929 . S
C300 C297 1.424 . S
C300 C299 1.384 . S
C300 H318 0.928 . S
C301 C298 1.260 . S
C301 C299 1.479 . S
C302 C297 1.245 . S
C302 C298 1.477 . S
C302 H319 0.932 . S
C303 U286 2.882 . S
C303 C297 1.428 . S
C303 O306 1.301 . S
C303 O307 1.282 . S
O304 U286 2.441 . S
O304 C290 1.249 . S
O305 U286 2.420 . S
O305 C290 1.202 . S
O306 U286 2.455 . S
O306 C303 1.301 . S
O307 U286 2.449 . S
O307 C303 1.282 . S
H308 C281 0.931 . S
H309 C283 0.929 . S
H310 C284 0.930 . S
H311 C285 0.931 . S
H312 C292 0.932 . S
H313 C293 0.930 . S
H314 C294 0.929 . S
H315 C296 0.930 . S
H316 C298 0.932 . S
H317 C299 0.929 . S
H318 C300 0.928 . S
H319 C302 0.932 . S
Nd320 C322 2.836 1_455 S
Nd320 O340 2.500 1_455 S
Nd320 O341 2.492 . S
Nd320 O342 2.487 . S
Nd320 O343 2.677 1_565 S
Nd320 O344 2.410 . S
Nd320 O349 2.427 1_455 S
Nd320 O351 2.424 1_565 S
Nd321 C331 2.836 . S
Nd321 O343 2.432 . S
Nd321 O345 2.424 1_545 S
Nd321 O346 2.500 . S
Nd321 O347 2.492 . S
Nd321 O348 2.487 1_455 S
Nd321 O349 2.678 1_445 S
Nd321 O350 2.410 . S
C322 Nd320 2.836 1_655 S
C322 C323 1.498 . S
C322 O340 1.258 . S
C322 O341 1.239 1_655 S
C323 C322 1.498 . S
C323 C324 1.366 . S
C323 C328 1.407 . S
C324 C323 1.366 . S
C324 C325 1.392 . S
C324 H352 0.930 . S
C325 C324 1.392 . S
C325 C326 1.398 . S
C325 H353 0.929 . S
C326 C325 1.398 . S
C326 C327 1.352 . S
C327 C326 1.352 . S
C327 C328 1.384 . S
C327 H354 0.930 . S
C328 C323 1.407 . S
C328 C327 1.384 . S
C328 H355 0.929 1_655 S
C329 O342 1.241 . S
C329 O343 1.247 1_565 S
C330 O344 1.271 . S
C330 O345 1.276 . S
C331 Nd321 2.836 . S
C331 C332 1.498 . S
C331 O346 1.258 . S
C331 O347 1.239 . S
C332 C331 1.498 . S
C332 C333 1.366 . S
C332 C337 1.407 . S
C333 C332 1.366 . S
C333 C334 1.392 . S
C333 H356 0.930 . S
C334 C333 1.392 . S
C334 C335 1.398 . S
C334 H357 0.929 . S
C335 C334 1.398 . S
C335 C336 1.352 . S
C336 C335 1.352 . S
C336 C337 1.384 . S
C336 H358 0.930 1_556 S
C337 C332 1.407 . S
C337 C336 1.384 . S
C337 H359 0.929 . S
C338 O348 1.241 . S
C338 O349 1.254 1_545 S
C339 O350 1.251 . S
C339 O351 1.268 . S
O340 Nd320 2.500 1_655 S
O340 C322 1.258 . S
O341 Nd320 2.492 . S
O341 C322 1.239 1_455 S
O342 Nd320 2.487 . S
O342 C329 1.241 . S
O343 Nd320 2.677 1_545 S
O343 Nd321 2.432 . S
O343 C329 1.247 1_545 S
O344 Nd320 2.410 . S
O344 C330 1.271 . S
O345 Nd321 2.424 1_565 S
O345 C330 1.276 . S
O346 Nd321 2.500 . S
O346 C331 1.258 . S
O347 Nd321 2.492 . S
O347 C331 1.239 . S
O348 Nd321 2.487 1_655 S
O348 C338 1.241 . S
O349 Nd320 2.427 1_655 S
O349 Nd321 2.678 1_665 S
O349 C338 1.254 1_565 S
O350 Nd321 2.410 . S
O350 C339 1.251 . S
O351 Nd320 2.424 1_545 S
O351 C339 1.268 . S
H352 C324 0.930 . S
H353 C325 0.929 . S
H354 C327 0.930 . S
H355 C328 0.929 1_455 S
H356 C333 0.930 . S
H357 C334 0.929 . S
H358 C336 0.930 1_554 S
H359 C337 0.929 . S
Nd360 C362 2.836 . S
Nd360 O380 2.500 . S
Nd360 O381 2.491 1_565 S
Nd360 O382 2.487 1_565 S
Nd360 O383 2.682 1_565 S
Nd360 O384 2.410 1_565 S
Nd360 O389 2.414 . S
Nd360 O391 2.424 . S
Nd361 C371 2.836 . S
Nd361 O383 2.414 . S
Nd361 O385 2.424 . S
Nd361 O386 2.500 . S
Nd361 O387 2.491 1_545 S
Nd361 O388 2.487 1_545 S
Nd361 O389 2.682 1_545 S
Nd361 O390 2.410 1_545 S
C362 Nd360 2.836 . S
C362 C363 1.498 . S
C362 O380 1.258 . S
C362 O381 1.199 1_565 S
C363 C362 1.498 . S
C363 C364 1.366 . S
C363 C368 1.407 . S
C364 C363 1.366 . S
C364 C365 1.392 . S
C364 H392 0.930 . S
C365 C364 1.392 . S
C365 C366 1.398 . S
C365 H393 0.929 . S
C366 C365 1.398 . S
C366 C367 1.352 . S
C367 C366 1.352 . S
C367 C368 1.384 . S
C367 H394 0.910 1_565 S
C368 C363 1.407 . S
C368 C367 1.384 . S
C368 H395 0.929 1_565 S
C369 O382 1.241 . S
C369 O383 1.273 . S
C370 O384 1.251 . S
C370 O385 1.268 . S
C371 Nd361 2.836 . S
C371 C372 1.498 . S
C371 O386 1.258 . S
C371 O387 1.211 1_545 S
C372 C371 1.498 . S
C372 C373 1.366 . S
C372 C377 1.407 . S
C373 C372 1.366 . S
C373 C374 1.392 . S
C373 H396 0.930 . S
C374 C373 1.392 . S
C374 C375 1.398 . S
C374 H397 0.929 . S
C375 C374 1.398 . S
C375 C376 1.352 . S
C376 C375 1.352 . S
C376 C377 1.384 . S
C376 H398 0.915 1_546 S
C377 C372 1.407 . S
C377 C376 1.384 . S
C377 H399 0.929 1_545 S
C378 O388 1.241 . S
C378 O389 1.273 . S
C379 O390 1.251 . S
C379 O391 1.268 . S
O380 Nd360 2.500 . S
O380 C362 1.258 . S
O381 Nd360 2.491 1_545 S
O381 C362 1.199 1_545 S
O382 Nd360 2.487 1_545 S
O382 C369 1.241 . S
O383 Nd360 2.682 1_545 S
O383 Nd361 2.414 . S
O383 C369 1.273 . S
O384 Nd360 2.410 1_545 S
O384 C370 1.251 . S
O385 Nd361 2.424 . S
O385 C370 1.268 . S
O386 Nd361 2.500 . S
O386 C371 1.258 . S
O387 Nd361 2.491 1_565 S
O387 C371 1.211 1_565 S
O388 Nd361 2.487 1_565 S
O388 C378 1.241 . S
O389 Nd360 2.414 . S
O389 Nd361 2.682 1_565 S
O389 C378 1.273 . S
O390 Nd361 2.410 1_565 S
O390 C379 1.251 . S
O391 Nd360 2.424 . S
O391 C379 1.268 . S
H392 C364 0.930 . S
H393 C365 0.929 . S
H394 C367 0.910 1_545 S
H395 C368 0.929 1_545 S
H396 C373 0.930 . S
H397 C374 0.929 . S
H398 C376 0.915 1_564 S
H399 C377 0.929 1_565 S
Nd400 C402 2.836 . S
Nd400 O420 2.500 . S
Nd400 O421 2.492 . S
Nd400 O422 2.487 . S
Nd400 O423 2.682 . S
Nd400 O424 2.410 . S
Nd400 O429 2.414 . S
Nd400 O431 2.424 . S
Nd401 C411 2.836 . S
Nd401 O423 2.414 . S
Nd401 O425 2.424 . S
Nd401 O426 2.500 . S
Nd401 O427 2.492 . S
Nd401 O428 2.487 . S
Nd401 O429 2.682 . S
Nd401 O430 2.410 . S
C402 Nd400 2.836 . S
C402 C403 1.498 . S
C402 O420 1.258 . S
C402 O421 1.239 . S
C403 C402 1.498 . S
C403 C404 1.366 . S
C403 C408 1.407 . S
C404 C403 1.366 . S
C404 C405 1.392 . S
C404 H432 0.930 . S
C405 C404 1.392 . S
C405 C406 1.398 . S
C405 H433 0.929 . S
C406 C405 1.398 . S
C406 C407 1.352 . S
C407 C406 1.352 . S
C407 C408 1.384 . S
C407 H434 0.930 . S
C408 C403 1.407 . S
C408 C407 1.384 . S
C408 H435 0.929 . S
C409 O422 1.241 . S
C409 O423 1.273 . S
C410 O424 1.251 . S
C410 O425 1.268 . S
C411 Nd401 2.836 . S
C411 C412 1.498 . S
C411 O426 1.258 . S
C411 O427 1.239 . S
C412 C411 1.498 . S
C412 C413 1.366 . S
C412 C417 1.407 . S
C413 C412 1.366 . S
C413 C414 1.392 . S
C413 H436 0.930 . S
C414 C413 1.392 . S
C414 C415 1.398 . S
C414 H437 0.929 . S
C415 C414 1.398 . S
C415 C416 1.352 . S
C416 C415 1.352 . S
C416 C417 1.384 . S
C416 H438 0.930 . S
C417 C412 1.407 . S
C417 C416 1.384 . S
C417 H439 0.929 . S
C418 O428 1.241 . S
C418 O429 1.273 . S
C419 O430 1.251 . S
C419 O431 1.268 . S
O420 Nd400 2.500 . S
O420 C402 1.258 . S
O421 Nd400 2.492 . S
O421 C402 1.239 . S
O422 Nd400 2.487 . S
O422 C409 1.241 . S
O423 Nd400 2.682 . S
O423 Nd401 2.414 . S
O423 C409 1.273 . S
O424 Nd400 2.410 . S
O424 C410 1.251 . S
O425 Nd401 2.424 . S
O425 C410 1.268 . S
O426 Nd401 2.500 . S
O426 C411 1.258 . S
O427 Nd401 2.492 . S
O427 C411 1.239 . S
O428 Nd401 2.487 . S
O428 C418 1.241 . S
O429 Nd400 2.414 . S
O429 Nd401 2.682 . S
O429 C418 1.273 . S
O430 Nd401 2.410 . S
O430 C419 1.251 . S
O431 Nd400 2.424 . S
O431 C419 1.268 . S
H432 C404 0.930 . S
H433 C405 0.929 . S
H434 C407 0.930 . S
H435 C408 0.929 . S
H436 C413 0.930 . S
H437 C414 0.929 . S
H438 C416 0.930 . S
H439 C417 0.929 . S
Nd440 C442 2.836 1_455 S
Nd440 O460 2.500 1_455 S
Nd440 O461 2.492 1_455 S
Nd440 O462 2.487 . S
Nd440 O463 2.682 . S
Nd440 O464 2.410 1_455 S
Nd440 O469 2.414 . S
Nd440 O471 2.424 . S
Nd441 C451 2.836 . S
Nd441 O463 2.414 . S
Nd441 O465 2.424 1_455 S
Nd441 O466 2.500 . S
Nd441 O467 2.492 . S
Nd441 O468 2.487 . S
Nd441 O469 2.682 . S
Nd441 O470 2.410 . S
C442 Nd440 2.836 1_655 S
C442 C443 1.498 . S
C442 O460 1.258 . S
C442 O461 1.239 . S
C443 C442 1.498 . S
C443 C444 1.366 . S
C443 C448 1.407 . S
C444 C443 1.366 . S
C444 C445 1.392 . S
C444 H472 0.930 . S
C445 C444 1.392 . S
C445 C446 1.398 . S
C445 H473 0.929 . S
C446 C445 1.398 . S
C446 C447 1.352 . S
C447 C446 1.352 . S
C447 C448 1.384 . S
C447 H474 0.930 . S
C448 C443 1.407 . S
C448 C447 1.384 . S
C448 H475 0.929 . S
C449 O462 1.241 . S
C449 O463 1.273 . S
C450 O464 1.251 . S
C450 O465 1.268 . S
C451 Nd441 2.836 . S
C451 C452 1.498 . S
C451 O466 1.258 . S
C451 O467 1.239 . S
C452 C451 1.498 . S
C452 C453 1.366 . S
C452 C457 1.407 . S
C453 C452 1.366 . S
C453 C454 1.392 . S
C453 H476 0.930 . S
C454 C453 1.392 . S
C454 C455 1.398 . S
C454 H477 0.929 . S
C455 C454 1.398 . S
C455 C456 1.352 . S
C456 C455 1.352 . S
C456 C457 1.384 . S
C456 H478 0.930 1_556 S
C457 C452 1.407 . S
C457 C456 1.384 . S
C457 H479 0.929 . S
C458 O468 1.266 . S
C458 O469 1.284 . S
C459 O470 1.251 . S
C459 O471 1.268 . S
O460 Nd440 2.500 1_655 S
O460 C442 1.258 . S
O461 Nd440 2.492 1_655 S
O461 C442 1.239 . S
O462 Nd440 2.487 . S
O462 C449 1.241 . S
O463 Nd440 2.682 . S
O463 Nd441 2.414 . S
O463 C449 1.273 . S
O464 Nd440 2.410 1_655 S
O464 C450 1.251 . S
O465 Nd441 2.424 1_655 S
O465 C450 1.268 . S
O466 Nd441 2.500 . S
O466 C451 1.258 . S
O467 Nd441 2.492 . S
O467 C451 1.239 . S
O468 Nd441 2.487 . S
O468 C458 1.266 . S
O469 Nd440 2.414 . S
O469 Nd441 2.682 . S
O469 C458 1.284 . S
O470 Nd441 2.410 . S
O470 C459 1.251 . S
O471 Nd440 2.424 . S
O471 C459 1.268 . S
H472 C444 0.930 . S
H473 C445 0.929 . S
H474 C447 0.930 . S
H475 C448 0.929 . S
H476 C453 0.930 . S
H477 C454 0.929 . S
H478 C456 0.930 1_554 S
H479 C457 0.929 . S
H480 C498 0.951 . S
H481 C500 0.951 . S
H482 C502 0.950 . S
H483 C503 0.950 . S
H484 C505 0.950 . S
H485 C508 0.950 . S
H486 C509 0.950 . S
H487 C511 0.950 . S
H488 C512 0.950 1_565 S
H489 C513 0.951 . S
H490 C515 0.951 . S
H491 C517 0.950 . S
H492 C518 0.950 . S
H493 C520 0.950 . S
H494 C523 0.950 . S
H495 C524 0.950 . S
H496 C526 0.950 . S
H497 C527 0.950 1_545 S
C498 H480 0.951 . S
C498 C499 1.367 1_565 S
C498 C500 1.388 . S
C499 C498 1.367 1_545 S
C499 C503 1.383 . S
C500 H481 0.951 . S
C500 C498 1.388 . S
C500 C501 1.364 1_565 S
C501 C500 1.364 1_545 S
C501 C502 1.415 . S
C501 C504 1.499 . S
C502 H482 0.950 . S
C502 C501 1.415 . S
C502 C503 1.374 . S
C503 H483 0.950 . S
C503 C499 1.383 . S
C503 C502 1.374 . S
C504 C501 1.499 . S
C504 C505 1.373 1_545 S
C504 C506 1.389 . S
C505 H484 0.950 . S
C505 C504 1.373 1_565 S
C505 C521 1.377 . S
C506 C504 1.389 . S
C506 C507 1.524 . S
C506 C520 1.377 . S
C507 C506 1.524 . S
C507 C508 1.397 . S
C507 C512 1.363 . S
C508 H485 0.950 . S
C508 C507 1.397 . S
C508 C509 1.334 . S
C509 H486 0.950 . S
C509 C508 1.334 . S
C509 C510 1.287 . S
C510 C509 1.287 . S
C510 C511 1.524 . S
C510 H529 0.913 . S
C511 H487 0.950 . S
C511 C510 1.524 . S
C511 C512 1.415 . S
C512 H488 0.950 1_545 S
C512 C507 1.363 . S
C512 C511 1.415 . S
C513 H489 0.951 . S
C513 C514 1.366 1_545 S
C513 C515 1.388 . S
C514 C513 1.366 1_565 S
C514 C518 1.385 . S
C515 H490 0.951 . S
C515 C513 1.388 . S
C515 C516 1.366 1_545 S
C516 C515 1.366 1_565 S
C516 C517 1.414 . S
C516 C519 1.499 . S
C517 H491 0.950 . S
C517 C516 1.414 . S
C517 C518 1.374 . S
C518 H492 0.950 . S
C518 C514 1.385 . S
C518 C517 1.374 . S
C519 C516 1.499 . S
C519 C520 1.373 1_565 S
C519 C521 1.389 . S
C520 H493 0.950 . S
C520 C506 1.377 . S
C520 C519 1.373 1_545 S
C521 C505 1.377 . S
C521 C519 1.389 . S
C521 C522 1.524 . S
C522 C521 1.524 . S
C522 C523 1.397 . S
C522 C527 1.363 . S
C523 H494 0.950 . S
C523 C522 1.397 . S
C523 C524 1.334 . S
C524 H495 0.950 . S
C524 C523 1.334 . S
C524 C525 1.287 . S
C525 C524 1.287 . S
C525 C526 1.524 . S
C525 H528 0.999 . S
C526 H496 0.950 . S
C526 C525 1.524 . S
C526 C527 1.415 . S
C527 H497 0.950 1_565 S
C527 C522 1.363 . S
C527 C526 1.415 . S
H528 C525 0.999 . S
H529 C510 0.913 . S
H530 C548 0.951 . S
H531 C550 0.951 . S
H532 C552 0.950 . S
H533 C553 0.950 . S
H534 C555 0.950 . S
H535 C558 0.950 . S
H536 C559 0.950 . S
H537 C561 0.950 . S
H538 C562 0.950 . S
H539 C563 0.951 . S
H540 C565 0.951 . S
H541 C567 0.950 . S
H542 C568 0.950 . S
H543 C570 0.950 . S
H544 C573 0.950 . S
H545 C574 0.950 . S
H546 C576 0.950 . S
H547 C577 0.950 . S
C548 H530 0.951 . S
C548 C549 1.366 . S
C548 C550 1.388 . S
C549 C548 1.366 . S
C549 C553 1.385 . S
C550 H531 0.951 . S
C550 C548 1.388 . S
C550 C551 1.366 . S
C551 C550 1.366 . S
C551 C552 1.414 . S
C551 C554 1.499 . S
C552 H532 0.950 . S
C552 C551 1.414 . S
C552 C553 1.374 . S
C553 H533 0.950 . S
C553 C549 1.385 . S
C553 C552 1.374 . S
C554 C551 1.499 . S
C554 C555 1.373 . S
C554 C556 1.389 . S
C555 H534 0.950 . S
C555 C554 1.373 . S
C555 C571 1.377 . S
C556 C554 1.389 . S
C556 C557 1.524 . S
C556 C570 1.377 . S
C557 C556 1.524 . S
C557 C558 1.397 . S
C557 C562 1.363 . S
C558 H535 0.950 . S
C558 C557 1.397 . S
C558 C559 1.334 . S
C559 H536 0.950 . S
C559 C558 1.334 . S
C559 C560 1.287 . S
C560 C559 1.287 . S
C560 C561 1.524 . S
C560 H579 0.913 . S
C561 H537 0.950 . S
C561 C560 1.524 . S
C561 C562 1.415 . S
C562 H538 0.950 . S
C562 C557 1.363 . S
C562 C561 1.415 . S
C563 H539 0.951 . S
C563 C564 1.366 . S
C563 C565 1.388 . S
C564 C563 1.366 . S
C564 C568 1.385 . S
C565 H540 0.951 . S
C565 C563 1.388 . S
C565 C566 1.366 . S
C566 C565 1.366 . S
C566 C567 1.414 . S
C566 C569 1.499 . S
C567 H541 0.950 . S
C567 C566 1.414 . S
C567 C568 1.374 . S
C568 H542 0.950 . S
C568 C564 1.385 . S
C568 C567 1.374 . S
C569 C566 1.499 . S
C569 C570 1.373 . S
C569 C571 1.389 . S
C570 H543 0.950 . S
C570 C556 1.377 . S
C570 C569 1.373 . S
C571 C555 1.377 . S
C571 C569 1.389 . S
C571 C572 1.524 . S
C572 C571 1.524 . S
C572 C573 1.397 . S
C572 C577 1.363 . S
C573 H544 0.950 . S
C573 C572 1.397 . S
C573 C574 1.334 . S
C574 H545 0.950 . S
C574 C573 1.334 . S
C574 C575 1.287 . S
C575 C574 1.287 . S
C575 C576 1.524 . S
C575 H578 1.027 . S
C576 H546 0.950 . S
C576 C575 1.524 . S
C576 C577 1.415 . S
C577 H547 0.950 . S
C577 C572 1.363 . S
C577 C576 1.415 . S
H578 C575 1.027 . S
H579 C560 0.913 . S
H580 C598 0.951 . S
H581 C600 0.951 . S
H582 C602 0.950 . S
H583 C603 0.950 . S
H584 C605 0.950 . S
H585 C608 0.950 . S
H586 C609 0.950 . S
H587 C611 0.950 . S
H588 C612 0.950 . S
H589 C613 0.951 . S
H590 C615 0.951 . S
H591 C617 0.950 . S
H592 C618 0.950 . S
H593 C620 0.950 . S
H594 C623 0.950 . S
H595 C624 0.950 . S
H596 C626 0.950 . S
H597 C627 0.950 . S
C598 H580 0.951 . S
C598 C599 1.366 . S
C598 C600 1.388 . S
C599 C598 1.366 . S
C599 C603 1.385 . S
C600 H581 0.951 . S
C600 C598 1.388 . S
C600 C601 1.366 . S
C601 C600 1.366 . S
C601 C602 1.414 . S
C601 C604 1.499 . S
C602 H582 0.950 . S
C602 C601 1.414 . S
C602 C603 1.374 . S
C603 H583 0.950 . S
C603 C599 1.385 . S
C603 C602 1.374 . S
C604 C601 1.499 . S
C604 C605 1.373 . S
C604 C606 1.389 . S
C605 H584 0.950 . S
C605 C604 1.373 . S
C605 C621 1.377 . S
C606 C604 1.389 . S
C606 C607 1.524 . S
C606 C620 1.377 . S
C607 C606 1.524 . S
C607 C608 1.397 . S
C607 C612 1.363 . S
C608 H585 0.950 . S
C608 C607 1.397 . S
C608 C609 1.334 . S
C609 H586 0.950 . S
C609 C608 1.334 . S
C609 C610 1.287 . S
C610 C609 1.287 . S
C610 C611 1.524 . S
C610 H629 0.913 . S
C611 H587 0.950 . S
C611 C610 1.524 . S
C611 C612 1.415 . S
C612 H588 0.950 . S
C612 C607 1.363 . S
C612 C611 1.415 . S
C613 H589 0.951 . S
C613 C614 1.366 . S
C613 C615 1.388 . S
C614 C613 1.366 . S
C614 C618 1.385 . S
C615 H590 0.951 . S
C615 C613 1.388 . S
C615 C616 1.366 . S
C616 C615 1.366 . S
C616 C617 1.414 . S
C616 C619 1.499 . S
C617 H591 0.950 . S
C617 C616 1.414 . S
C617 C618 1.374 . S
C618 H592 0.950 . S
C618 C614 1.385 . S
C618 C617 1.374 . S
C619 C616 1.499 . S
C619 C620 1.373 . S
C619 C621 1.389 . S
C620 H593 0.950 . S
C620 C606 1.377 . S
C620 C619 1.373 . S
C621 C605 1.377 . S
C621 C619 1.389 . S
C621 C622 1.524 . S
C622 C621 1.524 . S
C622 C623 1.397 . S
C622 C627 1.363 . S
C623 H594 0.950 . S
C623 C622 1.397 . S
C623 C624 1.334 . S
C624 H595 0.950 . S
C624 C623 1.334 . S
C624 C625 1.287 . S
C625 C624 1.287 . S
C625 C626 1.524 . S
C625 H628 0.999 . S
C626 H596 0.950 . S
C626 C625 1.524 . S
C626 C627 1.415 . S
C627 H597 0.950 . S
C627 C622 1.363 . S
C627 C626 1.415 . S
H628 C625 0.999 . S
H629 C610 0.913 . S
H630 C648 0.951 . S
H631 C650 0.951 . S
H632 C652 0.950 . S
H633 C653 0.950 . S
H634 C655 0.950 . S
H635 C658 0.950 . S
H636 C659 0.950 . S
H637 C661 0.950 . S
H638 C662 0.950 . S
H639 C663 0.951 . S
H640 C665 0.951 . S
H641 C667 0.950 . S
H642 C668 0.950 . S
H643 C670 0.950 . S
H644 C673 0.950 . S
H645 C674 0.950 . S
H646 C676 0.950 . S
H647 C677 0.950 . S
C648 H630 0.951 . S
C648 C649 1.366 . S
C648 C650 1.388 . S
C649 C648 1.366 . S
C649 C653 1.385 . S
C650 H631 0.951 . S
C650 C648 1.388 . S
C650 C651 1.366 . S
C651 C650 1.366 . S
C651 C652 1.414 . S
C651 C654 1.499 . S
C652 H632 0.950 . S
C652 C651 1.414 . S
C652 C653 1.374 . S
C653 H633 0.950 . S
C653 C649 1.385 . S
C653 C652 1.374 . S
C654 C651 1.499 . S
C654 C655 1.373 . S
C654 C656 1.389 . S
C655 H634 0.950 . S
C655 C654 1.373 . S
C655 C671 1.377 . S
C656 C654 1.389 . S
C656 C657 1.524 . S
C656 C670 1.377 . S
C657 C656 1.524 . S
C657 C658 1.397 . S
C657 C662 1.363 . S
C658 H635 0.950 . S
C658 C657 1.397 . S
C658 C659 1.334 . S
C659 H636 0.950 . S
C659 C658 1.334 . S
C659 C660 1.287 . S
C660 C659 1.287 . S
C660 C661 1.524 . S
C660 H679 0.913 . S
C661 H637 0.950 . S
C661 C660 1.524 . S
C661 C662 1.415 . S
C662 H638 0.950 . S
C662 C657 1.363 . S
C662 C661 1.415 . S
C663 H639 0.951 . S
C663 C664 1.366 . S
C663 C665 1.388 . S
C664 C663 1.366 . S
C664 C668 1.385 . S
C665 H640 0.951 . S
C665 C663 1.388 . S
C665 C666 1.366 . S
C666 C665 1.366 . S
C666 C667 1.414 . S
C666 C669 1.499 . S
C667 H641 0.950 . S
C667 C666 1.414 . S
C667 C668 1.374 . S
C668 H642 0.950 . S
C668 C664 1.385 . S
C668 C667 1.374 . S
C669 C666 1.499 . S
C669 C670 1.373 . S
C669 C671 1.389 . S
C670 H643 0.950 . S
C670 C656 1.377 . S
C670 C669 1.373 . S
C671 C655 1.377 . S
C671 C669 1.389 . S
C671 C672 1.524 . S
C672 C671 1.524 . S
C672 C673 1.397 . S
C672 C677 1.363 . S
C673 H644 0.950 . S
C673 C672 1.397 . S
C673 C674 1.334 . S
C674 H645 0.950 . S
C674 C673 1.334 . S
C674 C675 1.287 . S
C675 C674 1.287 . S
C675 C676 1.524 . S
C675 H678 0.999 . S
C676 H646 0.950 . S
C676 C675 1.524 . S
C676 C677 1.415 . S
C677 H647 0.950 . S
C677 C672 1.363 . S
C677 C676 1.415 . S
H678 C675 0.999 . S
H679 C660 0.913 . S
H680 C698 0.951 . S
H681 C700 0.951 . S
H682 C702 0.950 . S
H683 C703 0.950 . S
H684 C705 0.950 . S
H685 C708 0.950 . S
H686 C709 0.950 . S
H687 C711 0.950 . S
H688 C712 0.950 . S
H689 C713 0.951 . S
H690 C715 0.951 . S
H691 C717 0.950 . S
H692 C718 0.950 . S
H693 C720 0.950 . S
H694 C723 0.950 . S
H695 C724 0.950 . S
H696 C726 0.950 . S
H697 C727 0.950 . S
C698 H680 0.951 . S
C698 C699 1.366 . S
C698 C700 1.388 . S
C699 C698 1.366 . S
C699 C703 1.384 1_545 S
C700 H681 0.951 . S
C700 C698 1.388 . S
C700 C701 1.379 . S
C701 C700 1.379 . S
C701 C702 1.405 1_545 S
C701 C704 1.497 . S
C702 H682 0.950 . S
C702 C701 1.405 1_565 S
C702 C703 1.374 . S
C703 H683 0.950 . S
C703 C699 1.384 1_565 S
C703 C702 1.374 . S
C704 C701 1.497 . S
C704 C705 1.372 1_545 S
C704 C706 1.389 . S
C705 H684 0.950 . S
C705 C704 1.372 1_565 S
C705 C721 1.380 1_565 S
C706 C704 1.389 . S
C706 C707 1.524 . S
C706 C720 1.377 . S
C707 C706 1.524 . S
C707 C708 1.397 1_545 S
C707 C712 1.363 . S
C708 H685 0.950 . S
C708 C707 1.397 1_565 S
C708 C709 1.334 . S
C709 H686 0.950 . S
C709 C708 1.334 . S
C709 C710 1.321 . S
C710 C709 1.321 . S
C710 C711 1.486 1_565 S
C710 H729 0.914 . S
C711 H687 0.950 . S
C711 C710 1.486 1_545 S
C711 C712 1.415 . S
C712 H688 0.950 . S
C712 C707 1.363 . S
C712 C711 1.415 . S
C713 H689 0.951 . S
C713 C714 1.366 1_565 S
C713 C715 1.388 . S
C714 C713 1.366 1_545 S
C714 C718 1.385 . S
C715 H690 0.951 . S
C715 C713 1.388 . S
C715 C716 1.366 1_565 S
C716 C715 1.366 1_545 S
C716 C717 1.414 . S
C716 C719 1.499 . S
C717 H691 0.950 . S
C717 C716 1.414 . S
C717 C718 1.374 . S
C718 H692 0.950 . S
C718 C714 1.385 . S
C718 C717 1.374 . S
C719 C716 1.499 . S
C719 C720 1.373 . S
C719 C721 1.390 . S
C720 H693 0.950 . S
C720 C706 1.377 . S
C720 C719 1.373 . S
C721 C705 1.380 1_545 S
C721 C719 1.390 . S
C721 C722 1.524 . S
C722 C721 1.524 . S
C722 C723 1.403 . S
C722 C727 1.357 1_545 S
C723 H694 0.950 . S
C723 C722 1.403 . S
C723 C724 1.334 . S
C724 H695 0.950 . S
C724 C723 1.334 . S
C724 C725 1.287 1_556 S
C725 C724 1.287 1_554 S
C725 C726 1.524 1_545 S
C725 H728 0.999 . S
C726 H696 0.950 . S
C726 C725 1.524 1_565 S
C726 C727 1.415 1_554 S
C727 H697 0.950 . S
C727 C722 1.357 1_565 S
C727 C726 1.415 1_556 S
H728 C725 0.999 . S
H729 C710 0.914 . S
H730 C748 0.951 . S
H731 C750 0.951 . S
H732 C752 0.950 . S
H733 C753 0.950 . S
H734 C755 0.950 . S
H735 C758 0.950 . S
H736 C759 0.950 . S
H737 C761 0.950 . S
H738 C762 0.950 . S
H739 C763 0.951 . S
H740 C765 0.951 . S
H741 C767 0.950 . S
H742 C768 0.950 . S
H743 C770 0.950 1_556 S
H744 C773 0.950 . S
H745 C774 0.950 . S
H746 C776 0.950 1_554 S
H747 C777 0.950 . S
C748 H730 0.951 . S
C748 C749 1.366 . S
C748 C750 1.388 . S
C749 C748 1.366 . S
C749 C753 1.385 . S
C750 H731 0.951 . S
C750 C748 1.388 . S
C750 C751 1.366 . S
C751 C750 1.366 . S
C751 C752 1.414 . S
C751 C754 1.499 . S
C752 H732 0.950 . S
C752 C751 1.414 . S
C752 C753 1.374 . S
C753 H733 0.950 . S
C753 C749 1.385 . S
C753 C752 1.374 . S
C754 C751 1.499 . S
C754 C755 1.373 . S
C754 C756 1.389 . S
C755 H734 0.950 . S
C755 C754 1.373 . S
C755 C771 1.377 . S
C756 C754 1.389 . S
C756 C757 1.524 . S
C756 C770 1.377 . S
C757 C756 1.524 . S
C757 C758 1.397 . S
C757 C762 1.363 . S
C758 H735 0.950 . S
C758 C757 1.397 . S
C758 C759 1.334 . S
C759 H736 0.950 . S
C759 C758 1.334 . S
C759 C760 1.287 . S
C760 C759 1.287 . S
C760 C761 1.524 . S
C760 H779 0.913 . S
C761 H737 0.950 . S
C761 C760 1.524 . S
C761 C762 1.415 . S
C762 H738 0.950 . S
C762 C757 1.363 . S
C762 C761 1.415 . S
C763 H739 0.951 . S
C763 C764 1.366 . S
C763 C765 1.388 . S
C764 C763 1.366 . S
C764 C768 1.385 . S
C765 H740 0.951 . S
C765 C763 1.388 . S
C765 C766 1.366 . S
C766 C765 1.366 . S
C766 C767 1.414 . S
C766 C769 1.499 . S
C767 H741 0.950 . S
C767 C766 1.414 . S
C767 C768 1.374 . S
C768 H742 0.950 . S
C768 C764 1.385 . S
C768 C767 1.374 . S
C769 C766 1.499 . S
C769 C770 1.373 1_556 S
C769 C771 1.389 1_556 S
C770 H743 0.950 1_554 S
C770 C756 1.377 . S
C770 C769 1.373 1_554 S
C771 C755 1.377 . S
C771 C769 1.389 1_554 S
C771 C772 1.524 1_554 S
C772 C771 1.524 1_556 S
C772 C773 1.397 . S
C772 C777 1.363 1_556 S
C773 H744 0.950 . S
C773 C772 1.397 . S
C773 C774 1.334 . S
C774 H745 0.950 . S
C774 C773 1.334 . S
C774 C775 1.287 . S
C775 C774 1.287 . S
C775 C776 1.524 . S
C775 H778 0.999 . S
C776 H746 0.950 1_556 S
C776 C775 1.524 . S
C776 C777 1.415 1_556 S
C777 H747 0.950 . S
C777 C772 1.363 1_554 S
C777 C776 1.415 1_554 S
H778 C775 0.999 . S
H779 C760 0.913 . S
H780 C798 0.951 . S
H781 C800 0.951 . S
H782 C802 0.950 . S
H783 C803 0.950 1_554 S
H784 C805 0.950 . S
H785 C808 0.950 . S
H786 C809 0.950 . S
H787 C811 0.950 . S
H788 C812 0.950 . S
H789 C813 0.951 . S
H790 C815 0.951 . S
H791 C817 0.950 . S
H792 C818 0.950 . S
H793 C820 0.950 . S
H794 C823 0.950 . S
H795 C824 0.950 . S
H796 C826 0.950 . S
H797 C827 0.950 . S
C798 H780 0.951 . S
C798 C799 1.366 . S
C798 C800 1.388 . S
C799 C798 1.366 . S
C799 C803 1.385 . S
C800 H781 0.951 . S
C800 C798 1.388 . S
C800 C801 1.366 . S
C801 C800 1.366 . S
C801 C802 1.414 . S
C801 C804 1.499 . S
C802 H782 0.950 . S
C802 C801 1.414 . S
C802 C803 1.374 . S
C803 H783 0.950 1_556 S
C803 C799 1.385 . S
C803 C802 1.374 . S
C804 C801 1.499 . S
C804 C805 1.373 . S
C804 C806 1.389 . S
C805 H784 0.950 . S
C805 C804 1.373 . S
C805 C821 1.377 . S
C806 C804 1.389 . S
C806 C807 1.524 . S
C806 C820 1.377 . S
C807 C806 1.524 . S
C807 C808 1.397 . S
C807 C812 1.363 . S
C808 H785 0.950 . S
C808 C807 1.397 . S
C808 C809 1.334 . S
C809 H786 0.950 . S
C809 C808 1.334 . S
C809 C810 1.287 . S
C810 C809 1.287 . S
C810 C811 1.524 . S
C810 H829 0.913 . S
C811 H787 0.950 . S
C811 C810 1.524 . S
C811 C812 1.415 . S
C812 H788 0.950 . S
C812 C807 1.363 . S
C812 C811 1.415 . S
C813 H789 0.951 . S
C813 C814 1.366 . S
C813 C815 1.388 . S
C814 C813 1.366 . S
C814 C818 1.385 . S
C815 H790 0.951 . S
C815 C813 1.388 . S
C815 C816 1.366 . S
C816 C815 1.366 . S
C816 C817 1.414 . S
C816 C819 1.499 . S
C817 H791 0.950 . S
C817 C816 1.414 . S
C817 C818 1.374 . S
C818 H792 0.950 . S
C818 C814 1.385 . S
C818 C817 1.374 . S
C819 C816 1.499 . S
C819 C820 1.373 . S
C819 C821 1.389 . S
C820 H793 0.950 . S
C820 C806 1.377 . S
C820 C819 1.373 . S
C821 C805 1.377 . S
C821 C819 1.389 . S
C821 C822 1.524 . S
C822 C821 1.524 . S
C822 C823 1.397 . S
C822 C827 1.363 . S
C823 H794 0.950 . S
C823 C822 1.397 . S
C823 C824 1.334 . S
C824 H795 0.950 . S
C824 C823 1.334 . S
C824 C825 1.287 . S
C825 C824 1.287 . S
C825 C826 1.524 . S
C825 H828 0.999 . S
C826 H796 0.950 . S
C826 C825 1.524 . S
C826 C827 1.415 . S
C827 H797 0.950 . S
C827 C822 1.363 . S
C827 C826 1.415 . S
H828 C825 0.999 . S
H829 C810 0.913 . S
H830 C848 0.951 . S
H831 C850 0.951 . S
H832 C852 0.950 . S
H833 C853 0.950 . S
H834 C855 0.950 . S
H835 C858 0.950 . S
H836 C859 0.950 . S
H837 C861 0.950 . S
H838 C862 0.950 . S
H839 C863 0.951 . S
H840 C865 0.951 . S
H841 C867 0.950 . S
H842 C868 0.950 1_455 S
H843 C870 0.950 . S
H844 C873 0.950 . S
H845 C874 0.944 1_554 S
H846 C876 0.950 . S
H847 C877 0.950 . S
C848 H830 0.951 . S
C848 C849 1.366 . S
C848 C850 1.388 . S
C849 C848 1.366 . S
C849 C853 1.385 . S
C850 H831 0.951 . S
C850 C848 1.388 . S
C850 C851 1.366 . S
C851 C850 1.366 . S
C851 C852 1.414 . S
C851 C854 1.499 . S
C852 H832 0.950 . S
C852 C851 1.414 . S
C852 C853 1.374 . S
C853 H833 0.950 . S
C853 C849 1.385 . S
C853 C852 1.374 . S
C854 C851 1.499 . S
C854 C855 1.373 . S
C854 C856 1.389 . S
C855 H834 0.950 . S
C855 C854 1.373 . S
C855 C871 1.377 . S
C856 C854 1.389 . S
C856 C857 1.524 . S
C856 C870 1.377 . S
C857 C856 1.524 . S
C857 C858 1.397 . S
C857 C862 1.363 . S
C858 H835 0.950 . S
C858 C857 1.397 . S
C858 C859 1.334 . S
C859 H836 0.950 . S
C859 C858 1.334 . S
C859 C860 1.287 . S
C860 C859 1.287 . S
C860 C861 1.524 . S
C860 H879 0.913 . S
C861 H837 0.950 . S
C861 C860 1.524 . S
C861 C862 1.415 . S
C862 H838 0.950 . S
C862 C857 1.363 . S
C862 C861 1.415 . S
C863 H839 0.951 . S
C863 C864 1.366 . S
C863 C865 1.388 . S
C864 C863 1.366 . S
C864 C868 1.385 . S
C865 H840 0.951 . S
C865 C863 1.388 . S
C865 C866 1.366 . S
C866 C865 1.366 . S
C866 C867 1.414 . S
C866 C869 1.499 . S
C867 H841 0.950 . S
C867 C866 1.414 . S
C867 C868 1.374 . S
C868 H842 0.950 1_655 S
C868 C864 1.385 . S
C868 C867 1.374 . S
C869 C866 1.499 . S
C869 C870 1.373 . S
C869 C871 1.389 . S
C870 H843 0.950 . S
C870 C856 1.377 . S
C870 C869 1.373 . S
C871 C855 1.377 . S
C871 C869 1.389 . S
C871 C872 1.524 . S
C872 C871 1.524 . S
C872 C873 1.397 . S
C872 C877 1.363 . S
C873 H844 0.950 . S
C873 C872 1.397 . S
C873 C874 1.334 . S
C874 H845 0.944 1_556 S
C874 C873 1.334 . S
C874 C875 1.287 . S
C875 C874 1.287 . S
C875 C876 1.524 . S
C875 H878 0.999 1_556 S
C876 H846 0.950 . S
C876 C875 1.524 . S
C876 C877 1.415 . S
C877 H847 0.950 . S
C877 C872 1.363 . S
C877 C876 1.415 . S
H878 C875 0.999 1_554 S
H879 C860 0.913 . S
H880 C898 0.951 . S
H881 C900 0.951 . S
H882 C902 0.950 . S
H883 C903 0.950 . S
H884 C905 0.950 . S
H885 C908 0.950 . S
H886 C909 0.950 . S
H887 C911 0.950 . S
H888 C912 0.950 . S
H889 C913 0.951 . S
H890 C915 0.951 . S
H891 C917 0.950 . S
H892 C918 0.950 . S
H893 C920 0.950 . S
H894 C923 0.950 . S
H895 C924 0.950 . S
H896 C926 0.950 . S
H897 C927 0.950 . S
C898 H880 0.951 . S
C898 C899 1.366 . S
C898 C900 1.388 . S
C899 C898 1.366 . S
C899 C903 1.385 . S
C900 H881 0.951 . S
C900 C898 1.388 . S
C900 C901 1.366 . S
C901 C900 1.366 . S
C901 C902 1.414 . S
C901 C904 1.499 . S
C902 H882 0.950 . S
C902 C901 1.414 . S
C902 C903 1.374 . S
C903 H883 0.950 . S
C903 C899 1.385 . S
C903 C902 1.374 . S
C904 C901 1.499 . S
C904 C905 1.373 . S
C904 C906 1.389 . S
C905 H884 0.950 . S
C905 C904 1.373 . S
C905 C921 1.377 . S
C906 C904 1.389 . S
C906 C907 1.524 . S
C906 C920 1.377 . S
C907 C906 1.524 . S
C907 C908 1.397 . S
C907 C912 1.363 . S
C908 H885 0.950 . S
C908 C907 1.397 . S
C908 C909 1.334 . S
C909 H886 0.950 . S
C909 C908 1.334 . S
C909 C910 1.287 . S
C910 C909 1.287 . S
C910 C911 1.524 . S
C910 H929 0.913 . S
C911 H887 0.950 . S
C911 C910 1.524 . S
C911 C912 1.415 . S
C912 H888 0.950 . S
C912 C907 1.363 . S
C912 C911 1.415 . S
C913 H889 0.951 . S
C913 C914 1.366 . S
C913 C915 1.388 . S
C914 C913 1.366 . S
C914 C918 1.385 . S
C915 H890 0.951 . S
C915 C913 1.388 . S
C915 C916 1.366 . S
C916 C915 1.366 . S
C916 C917 1.414 . S
C916 C919 1.499 . S
C917 H891 0.950 . S
C917 C916 1.414 . S
C917 C918 1.374 . S
C918 H892 0.950 . S
C918 C914 1.385 . S
C918 C917 1.374 . S
C919 C916 1.499 . S
C919 C920 1.373 . S
C919 C921 1.389 . S
C920 H893 0.950 . S
C920 C906 1.377 . S
C920 C919 1.373 . S
C921 C905 1.377 . S
C921 C919 1.389 . S
C921 C922 1.524 . S
C922 C921 1.524 . S
C922 C923 1.397 . S
C922 C927 1.363 . S
C923 H894 0.950 . S
C923 C922 1.397 . S
C923 C924 1.334 . S
C924 H895 0.950 . S
C924 C923 1.334 . S
C924 C925 1.287 . S
C925 C924 1.287 . S
C925 C926 1.524 . S
C925 H928 0.999 . S
C926 H896 0.950 . S
C926 C925 1.524 . S
C926 C927 1.415 . S
C927 H897 0.950 . S
C927 C922 1.363 . S
C927 C926 1.415 . S
H928 C925 0.999 . S
H929 C910 0.913 . S
H930 C948 0.951 . S
H931 C950 0.951 . S
H932 C952 0.950 . S
H933 C953 0.950 . S
H934 C955 0.950 . S
H935 C958 0.950 . S
H936 C959 0.950 . S
H937 C961 0.950 1_545 S
H938 C962 0.950 . S
H939 C963 0.951 . S
H940 C965 0.951 . S
H941 C967 0.950 . S
H942 C968 0.950 . S
H943 C970 0.950 . S
H944 C973 0.950 . S
H945 C974 0.950 . S
H946 C976 0.950 . S
H947 C977 0.950 . S
C948 H930 0.951 . S
C948 C949 1.375 . S
C948 C950 1.388 . S
C949 C948 1.375 . S
C949 C953 1.369 1_545 S
C950 H931 0.951 . S
C950 C948 1.388 . S
C950 C951 1.366 1_545 S
C951 C950 1.366 1_565 S
C951 C952 1.414 . S
C951 C954 1.499 . S
C952 H932 0.950 . S
C952 C951 1.414 . S
C952 C953 1.374 . S
C953 H933 0.950 . S
C953 C949 1.369 1_565 S
C953 C952 1.374 . S
C954 C951 1.499 . S
C954 C955 1.373 . S
C954 C956 1.389 . S
C955 H934 0.950 . S
C955 C954 1.373 . S
C955 C971 1.377 . S
C956 C954 1.389 . S
C956 C957 1.524 . S
C956 C970 1.377 . S
C957 C956 1.524 . S
C957 C958 1.397 . S
C957 C962 1.363 1_565 S
C958 H935 0.950 . S
C958 C957 1.397 . S
C958 C959 1.334 . S
C959 H936 0.950 . S
C959 C958 1.334 . S
C959 C960 1.287 . S
C960 C959 1.287 . S
C960 C961 1.524 . S
C960 H979 0.913 . S
C961 H937 0.950 1_565 S
C961 C960 1.524 . S
C961 C962 1.415 1_565 S
C962 H938 0.950 . S
C962 C957 1.363 1_545 S
C962 C961 1.415 1_545 S
C963 H939 0.951 . S
C963 C964 1.366 . S
C963 C965 1.388 . S
C964 C963 1.366 . S
C964 C968 1.385 1_565 S
C965 H940 0.951 . S
C965 C963 1.388 . S
C965 C966 1.366 . S
C966 C965 1.366 . S
C966 C967 1.414 1_565 S
C966 C969 1.499 . S
C967 H941 0.950 . S
C967 C966 1.414 1_545 S
C967 C968 1.373 . S
C968 H942 0.950 . S
C968 C964 1.385 1_545 S
C968 C967 1.373 . S
C969 C966 1.499 . S
C969 C970 1.373 . S
C969 C971 1.389 . S
C970 H943 0.950 . S
C970 C956 1.377 . S
C970 C969 1.373 . S
C971 C955 1.377 . S
C971 C969 1.389 . S
C971 C972 1.524 . S
C972 C971 1.524 . S
C972 C973 1.397 1_565 S
C972 C977 1.363 . S
C973 H944 0.950 . S
C973 C972 1.397 1_545 S
C973 C974 1.334 . S
C974 H945 0.950 . S
C974 C973 1.334 . S
C974 C975 1.287 . S
C975 C974 1.287 . S
C975 C976 1.524 1_545 S
C975 H978 0.999 . S
C976 H946 0.950 . S
C976 C975 1.524 1_565 S
C976 C977 1.415 . S
C977 H947 0.950 . S
C977 C972 1.363 . S
C977 C976 1.415 . S
H978 C975 0.999 . S
H979 C960 0.913 . S
H980 C998 0.951 . S
H981 C1000 0.951 . S
H982 C1002 0.950 . S
H983 C1003 0.950 . S
H984 C1005 0.950 . S
H985 C1008 0.950 . S
H986 C1009 0.950 . S
H987 C1011 0.950 . S
H988 C1012 0.950 . S
H989 C1013 0.951 . S
H990 C1015 0.951 . S
H991 C1017 0.950 . S
H992 C1018 0.950 . S
H993 C1020 0.950 . S
H994 C1023 0.950 . S
H995 C1024 0.950 . S
H996 C1026 0.950 . S
H997 C1027 0.950 . S
C998 H980 0.951 . S
C998 C999 1.366 . S
C998 C1000 1.388 . S
C999 C998 1.366 . S
C999 C1003 1.385 . S
C1000 H981 0.951 . S
C1000 C998 1.388 . S
C1000 C1001 1.366 . S
C1001 C1000 1.366 . S
C1001 C1002 1.414 . S
C1001 C1004 1.499 . S
C1002 H982 0.950 . S
C1002 C1001 1.414 . S
C1002 C1003 1.374 . S
C1003 H983 0.950 . S
C1003 C999 1.385 . S
C1003 C1002 1.374 . S
C1004 C1001 1.499 . S
C1004 C1005 1.373 . S
C1004 C1006 1.389 . S
C1005 H984 0.950 . S
C1005 C1004 1.373 . S
C1005 C1021 1.377 . S
C1006 C1004 1.389 . S
C1006 C1007 1.524 . S
C1006 C1020 1.377 . S
C1007 C1006 1.524 . S
C1007 C1008 1.397 . S
C1007 C1012 1.363 . S
C1008 H985 0.950 . S
C1008 C1007 1.397 . S
C1008 C1009 1.334 . S
C1009 H986 0.950 . S
C1009 C1008 1.334 . S
C1009 C1010 1.287 . S
C1010 C1009 1.287 . S
C1010 C1011 1.524 . S
C1010 H1029 0.913 . S
C1011 H987 0.950 . S
C1011 C1010 1.524 . S
C1011 C1012 1.415 . S
C1012 H988 0.950 . S
C1012 C1007 1.363 . S
C1012 C1011 1.415 . S
C1013 H989 0.951 . S
C1013 C1014 1.366 . S
C1013 C1015 1.388 . S
C1014 C1013 1.366 . S
C1014 C1018 1.385 . S
C1015 H990 0.951 . S
C1015 C1013 1.388 . S
C1015 C1016 1.366 . S
C1016 C1015 1.366 . S
C1016 C1017 1.414 . S
C1016 C1019 1.499 . S
C1017 H991 0.950 . S
C1017 C1016 1.414 . S
C1017 C1018 1.374 . S
C1018 H992 0.950 . S
C1018 C1014 1.385 . S
C1018 C1017 1.374 . S
C1019 C1016 1.499 . S
C1019 C1020 1.373 . S
C1019 C1021 1.389 . S
C1020 H993 0.950 . S
C1020 C1006 1.377 . S
C1020 C1019 1.373 . S
C1021 C1005 1.377 . S
C1021 C1019 1.389 . S
C1021 C1022 1.524 . S
C1022 C1021 1.524 . S
C1022 C1023 1.397 . S
C1022 C1027 1.363 . S
C1023 H994 0.950 . S
C1023 C1022 1.397 . S
C1023 C1024 1.334 . S
C1024 H995 0.950 . S
C1024 C1023 1.334 . S
C1024 C1025 1.287 . S
C1025 C1024 1.287 . S
C1025 C1026 1.524 . S
C1025 H1028 0.999 . S
C1026 H996 0.950 . S
C1026 C1025 1.524 . S
C1026 C1027 1.415 . S
C1027 H997 0.950 . S
C1027 C1022 1.363 . S
C1027 C1026 1.415 . S
H1028 C1025 0.999 . S
H1029 C1010 0.913 . S
H1030 C1048 0.951 . S
H1031 C1050 0.951 . S
H1032 C1052 0.950 . S
H1033 C1053 0.950 . S
H1034 C1055 0.950 . S
H1035 C1058 0.950 . S
H1036 C1059 0.950 . S
H1037 C1061 0.950 . S
H1038 C1062 0.950 . S
H1039 C1063 0.951 . S
H1040 C1065 0.951 . S
H1041 C1067 0.950 . S
H1042 C1068 0.950 . S
H1043 C1070 0.950 . S
H1044 C1073 0.950 . S
H1045 C1074 0.950 . S
H1046 C1076 0.950 . S
H1047 C1077 0.950 . S
C1048 H1030 0.951 . S
C1048 C1049 1.366 . S
C1048 C1050 1.388 . S
C1049 C1048 1.366 . S
C1049 C1053 1.385 . S
C1050 H1031 0.951 . S
C1050 C1048 1.388 . S
C1050 C1051 1.366 . S
C1051 C1050 1.366 . S
C1051 C1052 1.414 . S
C1051 C1054 1.499 . S
C1052 H1032 0.950 . S
C1052 C1051 1.414 . S
C1052 C1053 1.374 . S
C1053 H1033 0.950 . S
C1053 C1049 1.385 . S
C1053 C1052 1.374 . S
C1054 C1051 1.499 . S
C1054 C1055 1.373 . S
C1054 C1056 1.389 . S
C1055 H1034 0.950 . S
C1055 C1054 1.373 . S
C1055 C1071 1.377 . S
C1056 C1054 1.389 . S
C1056 C1057 1.524 . S
C1056 C1070 1.377 . S
C1057 C1056 1.524 . S
C1057 C1058 1.397 . S
C1057 C1062 1.363 . S
C1058 H1035 0.950 . S
C1058 C1057 1.397 . S
C1058 C1059 1.334 . S
C1059 H1036 0.950 . S
C1059 C1058 1.334 . S
C1059 C1060 1.287 . S
C1060 C1059 1.287 . S
C1060 C1061 1.524 . S
C1060 H1079 0.913 . S
C1061 H1037 0.950 . S
C1061 C1060 1.524 . S
C1061 C1062 1.415 . S
C1062 H1038 0.950 . S
C1062 C1057 1.363 . S
C1062 C1061 1.415 . S
C1063 H1039 0.951 . S
C1063 C1064 1.366 . S
C1063 C1065 1.388 . S
C1064 C1063 1.366 . S
C1064 C1068 1.385 . S
C1065 H1040 0.951 . S
C1065 C1063 1.388 . S
C1065 C1066 1.366 . S
C1066 C1065 1.366 . S
C1066 C1067 1.414 . S
C1066 C1069 1.499 . S
C1067 H1041 0.950 . S
C1067 C1066 1.414 . S
C1067 C1068 1.374 . S
C1068 H1042 0.950 . S
C1068 C1064 1.385 . S
C1068 C1067 1.374 . S
C1069 C1066 1.499 . S
C1069 C1070 1.373 . S
C1069 C1071 1.389 . S
C1070 H1043 0.950 . S
C1070 C1056 1.377 . S
C1070 C1069 1.373 . S
C1071 C1055 1.377 . S
C1071 C1069 1.389 . S
C1071 C1072 1.524 . S
C1072 C1071 1.524 . S
C1072 C1073 1.397 . S
C1072 C1077 1.363 . S
C1073 H1044 0.950 . S
C1073 C1072 1.397 . S
C1073 C1074 1.334 . S
C1074 H1045 0.950 . S
C1074 C1073 1.334 . S
C1074 C1075 1.287 . S
C1075 C1074 1.287 . S
C1075 C1076 1.524 . S
C1075 H1078 0.999 . S
C1076 H1046 0.950 . S
C1076 C1075 1.524 . S
C1076 C1077 1.415 . S
C1077 H1047 0.950 . S
C1077 C1072 1.363 . S
C1077 C1076 1.415 . S
H1078 C1075 0.999 . S
H1079 C1060 0.913 . S
H1080 C1098 0.951 . S
H1081 C1100 0.951 . S
H1082 C1102 0.950 . S
H1083 C1103 0.950 . S
H1084 C1105 0.950 . S
H1085 C1108 0.950 . S
H1086 C1109 0.950 . S
H1087 C1111 0.950 . S
H1088 C1112 0.950 . S
H1089 C1113 0.951 1_455 S
H1090 C1115 0.951 . S
H1091 C1117 0.950 . S
H1092 C1118 0.950 . S
H1093 C1120 0.950 . S
H1094 C1123 0.950 . S
H1095 C1124 0.950 . S
H1096 C1126 0.950 . S
H1097 C1127 0.950 . S
C1098 H1080 0.951 . S
C1098 C1099 1.366 . S
C1098 C1100 1.388 . S
C1099 C1098 1.366 . S
C1099 C1103 1.385 . S
C1100 H1081 0.951 . S
C1100 C1098 1.388 . S
C1100 C1101 1.366 . S
C1101 C1100 1.366 . S
C1101 C1102 1.414 . S
C1101 C1104 1.499 . S
C1102 H1082 0.950 . S
C1102 C1101 1.414 . S
C1102 C1103 1.374 . S
C1103 H1083 0.950 . S
C1103 C1099 1.385 . S
C1103 C1102 1.374 . S
C1104 C1101 1.499 . S
C1104 C1105 1.373 . S
C1104 C1106 1.389 . S
C1105 H1084 0.950 . S
C1105 C1104 1.373 . S
C1105 C1121 1.377 . S
C1106 C1104 1.389 . S
C1106 C1107 1.524 . S
C1106 C1120 1.377 . S
C1107 C1106 1.524 . S
C1107 C1108 1.397 . S
C1107 C1112 1.363 . S
C1108 H1085 0.950 . S
C1108 C1107 1.397 . S
C1108 C1109 1.334 . S
C1109 H1086 0.950 . S
C1109 C1108 1.334 . S
C1109 C1110 1.287 . S
C1110 C1109 1.287 . S
C1110 C1111 1.524 . S
C1110 H1129 0.913 . S
C1111 H1087 0.950 . S
C1111 C1110 1.524 . S
C1111 C1112 1.415 . S
C1112 H1088 0.950 . S
C1112 C1107 1.363 . S
C1112 C1111 1.415 . S
C1113 H1089 0.951 1_655 S
C1113 C1114 1.366 . S
C1113 C1115 1.388 . S
C1114 C1113 1.366 . S
C1114 C1118 1.385 . S
C1115 H1090 0.951 . S
C1115 C1113 1.388 . S
C1115 C1116 1.366 . S
C1116 C1115 1.366 . S
C1116 C1117 1.414 . S
C1116 C1119 1.499 . S
C1117 H1091 0.950 . S
C1117 C1116 1.414 . S
C1117 C1118 1.374 . S
C1118 H1092 0.950 . S
C1118 C1114 1.385 . S
C1118 C1117 1.374 . S
C1119 C1116 1.499 . S
C1119 C1120 1.373 . S
C1119 C1121 1.389 . S
C1120 H1093 0.950 . S
C1120 C1106 1.377 . S
C1120 C1119 1.373 . S
C1121 C1105 1.377 . S
C1121 C1119 1.389 . S
C1121 C1122 1.524 . S
C1122 C1121 1.524 . S
C1122 C1123 1.397 . S
C1122 C1127 1.363 . S
C1123 H1094 0.950 . S
C1123 C1122 1.397 . S
C1123 C1124 1.334 . S
C1124 H1095 0.950 . S
C1124 C1123 1.334 . S
C1124 C1125 1.287 . S
C1125 C1124 1.287 . S
C1125 C1126 1.524 . S
C1125 H1128 0.999 1_556 S
C1126 H1096 0.950 . S
C1126 C1125 1.524 . S
C1126 C1127 1.415 . S
C1127 H1097 0.950 . S
C1127 C1122 1.363 . S
C1127 C1126 1.415 . S
H1128 C1125 0.999 1_554 S
H1129 C1110 0.913 . S
H1130 C1148 0.951 . S
H1131 C1150 0.951 . S
H1132 C1152 0.950 . S
H1133 C1153 0.950 . S
H1134 C1155 0.950 . S
H1135 C1158 0.895 1_545 S
H1136 C1159 0.950 . S
H1137 C1161 0.950 . S
H1138 C1162 0.950 . S
H1139 C1163 0.951 . S
H1140 C1165 0.951 . S
H1141 C1167 0.950 . S
H1142 C1168 0.950 . S
H1143 C1170 0.950 . S
H1144 C1173 0.950 . S
H1145 C1174 0.950 . S
H1146 C1176 0.950 . S
H1147 C1177 0.950 . S
C1148 H1130 0.951 . S
C1148 C1149 1.369 . S
C1148 C1150 1.388 . S
C1149 C1148 1.369 . S
C1149 C1153 1.380 1_565 S
C1150 H1131 0.951 . S
C1150 C1148 1.388 . S
C1150 C1151 1.366 1_565 S
C1151 C1150 1.366 1_545 S
C1151 C1152 1.414 . S
C1151 C1154 1.499 . S
C1152 H1132 0.950 . S
C1152 C1151 1.414 . S
C1152 C1153 1.374 . S
C1153 H1133 0.950 . S
C1153 C1149 1.380 1_545 S
C1153 C1152 1.374 . S
C1154 C1151 1.499 . S
C1154 C1155 1.373 . S
C1154 C1156 1.389 1_545 S
C1155 H1134 0.950 . S
C1155 C1154 1.373 . S
C1155 C1171 1.377 . S
C1156 C1154 1.389 1_565 S
C1156 C1157 1.524 . S
C1156 C1170 1.377 . S
C1157 C1156 1.524 . S
C1157 C1158 1.397 . S
C1157 C1162 1.363 . S
C1158 H1135 0.895 1_565 S
C1158 C1157 1.397 . S
C1158 C1159 1.334 . S
C1159 H1136 0.950 . S
C1159 C1158 1.334 . S
C1159 C1160 1.287 . S
C1160 C1159 1.287 . S
C1160 C1161 1.524 . S
C1160 H1179 0.913 . S
C1161 H1137 0.950 . S
C1161 C1160 1.524 . S
C1161 C1162 1.415 . S
C1162 H1138 0.950 . S
C1162 C1157 1.363 . S
C1162 C1161 1.415 . S
C1163 H1139 0.951 . S
C1163 C1164 1.366 . S
C1163 C1165 1.388 . S
C1164 C1163 1.366 . S
C1164 C1168 1.385 1_545 S
C1165 H1140 0.951 . S
C1165 C1163 1.388 . S
C1165 C1166 1.366 . S
C1166 C1165 1.366 . S
C1166 C1167 1.414 1_545 S
C1166 C1169 1.499 . S
C1167 H1141 0.950 . S
C1167 C1166 1.414 1_565 S
C1167 C1168 1.374 . S
C1168 H1142 0.950 . S
C1168 C1164 1.385 1_565 S
C1168 C1167 1.374 . S
C1169 C1166 1.499 . S
C1169 C1170 1.373 1_545 S
C1169 C1171 1.389 . S
C1170 H1143 0.950 . S
C1170 C1156 1.377 . S
C1170 C1169 1.373 1_565 S
C1171 C1155 1.377 . S
C1171 C1169 1.389 . S
C1171 C1172 1.524 . S
C1172 C1171 1.524 . S
C1172 C1173 1.397 . S
C1172 C1177 1.363 . S
C1173 H1144 0.950 . S
C1173 C1172 1.397 . S
C1173 C1174 1.334 . S
C1174 H1145 0.950 . S
C1174 C1173 1.334 . S
C1174 C1175 1.287 . S
C1175 C1174 1.287 . S
C1175 C1176 1.524 . S
C1175 H1178 0.999 . S
C1176 H1146 0.950 . S
C1176 C1175 1.524 . S
C1176 C1177 1.415 . S
C1177 H1147 0.950 . S
C1177 C1172 1.363 . S
C1177 C1176 1.415 . S
H1178 C1175 0.999 . S
H1179 C1160 0.913 . S
H1180 C1198 0.951 . S
H1181 C1200 0.951 . S
H1182 C1202 0.950 . S
H1183 C1203 0.950 . S
H1184 C1205 0.950 . S
H1185 C1208 0.950 . S
H1186 C1209 0.950 . S
H1187 C1211 0.950 . S
H1188 C1212 0.950 1_556 S
H1189 C1213 0.951 . S
H1190 C1215 0.951 1_554 S
H1191 C1217 0.950 . S
H1192 C1218 0.950 . S
H1193 C1220 0.950 1_556 S
H1194 C1223 0.950 . S
H1195 C1224 0.950 . S
H1196 C1226 0.950 1_554 S
H1197 C1227 0.950 . S
C1198 H1180 0.951 . S
C1198 C1199 1.366 . S
C1198 C1200 1.388 . S
C1199 C1198 1.366 . S
C1199 C1203 1.385 . S
C1200 H1181 0.951 . S
C1200 C1198 1.388 . S
C1200 C1201 1.366 . S
C1201 C1200 1.366 . S
C1201 C1202 1.414 . S
C1201 C1204 1.499 . S
C1202 H1182 0.950 . S
C1202 C1201 1.414 . S
C1202 C1203 1.374 . S
C1203 H1183 0.950 . S
C1203 C1199 1.385 . S
C1203 C1202 1.374 . S
C1204 C1201 1.499 . S
C1204 C1205 1.373 . S
C1204 C1206 1.389 . S
C1205 H1184 0.950 . S
C1205 C1204 1.373 . S
C1205 C1221 1.377 . S
C1206 C1204 1.389 . S
C1206 C1207 1.524 . S
C1206 C1220 1.377 . S
C1207 C1206 1.524 . S
C1207 C1208 1.397 . S
C1207 C1212 1.363 . S
C1208 H1185 0.950 . S
C1208 C1207 1.397 . S
C1208 C1209 1.334 . S
C1209 H1186 0.950 . S
C1209 C1208 1.334 . S
C1209 C1210 1.287 . S
C1210 C1209 1.287 . S
C1210 C1211 1.524 . S
C1210 H1229 0.913 . S
C1211 H1187 0.950 . S
C1211 C1210 1.524 . S
C1211 C1212 1.415 . S
C1212 H1188 0.950 1_554 S
C1212 C1207 1.363 . S
C1212 C1211 1.415 . S
C1213 H1189 0.951 . S
C1213 C1214 1.366 . S
C1213 C1215 1.388 . S
C1214 C1213 1.366 . S
C1214 C1218 1.385 . S
C1215 H1190 0.951 1_556 S
C1215 C1213 1.388 . S
C1215 C1216 1.366 . S
C1216 C1215 1.366 . S
C1216 C1217 1.414 . S
C1216 C1219 1.499 . S
C1217 H1191 0.950 . S
C1217 C1216 1.414 . S
C1217 C1218 1.374 . S
C1218 H1192 0.950 . S
C1218 C1214 1.385 . S
C1218 C1217 1.374 . S
C1219 C1216 1.499 . S
C1219 C1220 1.373 1_556 S
C1219 C1221 1.389 1_556 S
C1220 H1193 0.950 1_554 S
C1220 C1206 1.377 . S
C1220 C1219 1.373 1_554 S
C1221 C1205 1.377 . S
C1221 C1219 1.389 1_554 S
C1221 C1222 1.524 1_554 S
C1222 C1221 1.524 1_556 S
C1222 C1223 1.397 . S
C1222 C1227 1.363 1_556 S
C1223 H1194 0.950 . S
C1223 C1222 1.397 . S
C1223 C1224 1.334 . S
C1224 H1195 0.950 . S
C1224 C1223 1.334 . S
C1224 C1225 1.287 . S
C1225 C1224 1.287 . S
C1225 C1226 1.524 . S
C1225 H1228 0.999 . S
C1226 H1196 0.950 1_556 S
C1226 C1225 1.524 . S
C1226 C1227 1.415 1_556 S
C1227 H1197 0.950 . S
C1227 C1222 1.363 1_554 S
C1227 C1226 1.415 1_554 S
H1228 C1225 0.999 . S
H1229 C1210 0.913 . S
H1230 C1248 0.951 . S
H1231 C1250 0.951 . S
H1232 C1252 0.950 . S
H1233 C1253 0.950 . S
H1234 C1255 0.950 . S
H1235 C1258 0.950 . S
H1236 C1259 0.950 . S
H1237 C1261 0.950 . S
H1238 C1262 0.950 . S
H1239 C1263 0.951 . S
H1240 C1265 0.951 . S
H1241 C1267 0.950 . S
H1242 C1268 0.950 . S
H1243 C1270 0.950 . S
H1244 C1273 0.950 . S
H1245 C1274 0.950 . S
H1246 C1276 0.950 . S
H1247 C1277 0.950 . S
C1248 H1230 0.951 . S
C1248 C1249 1.366 . S
C1248 C1250 1.388 . S
C1249 C1248 1.366 . S
C1249 C1253 1.385 . S
C1250 H1231 0.951 . S
C1250 C1248 1.388 . S
C1250 C1251 1.366 . S
C1251 C1250 1.366 . S
C1251 C1252 1.414 . S
C1251 C1254 1.499 . S
C1252 H1232 0.950 . S
C1252 C1251 1.414 . S
C1252 C1253 1.374 . S
C1253 H1233 0.950 . S
C1253 C1249 1.385 . S
C1253 C1252 1.374 . S
C1254 C1251 1.499 . S
C1254 C1255 1.373 . S
C1254 C1256 1.389 . S
C1255 H1234 0.950 . S
C1255 C1254 1.373 . S
C1255 C1271 1.377 . S
C1256 C1254 1.389 . S
C1256 C1257 1.524 . S
C1256 C1270 1.377 . S
C1257 C1256 1.524 . S
C1257 C1258 1.397 . S
C1257 C1262 1.363 . S
C1258 H1235 0.950 . S
C1258 C1257 1.397 . S
C1258 C1259 1.334 . S
C1259 H1236 0.950 . S
C1259 C1258 1.334 . S
C1259 C1260 1.287 . S
C1260 C1259 1.287 . S
C1260 C1261 1.524 . S
C1260 H1279 0.913 . S
C1261 H1237 0.950 . S
C1261 C1260 1.524 . S
C1261 C1262 1.415 . S
C1262 H1238 0.950 . S
C1262 C1257 1.363 . S
C1262 C1261 1.415 . S
C1263 H1239 0.951 . S
C1263 C1264 1.366 . S
C1263 C1265 1.388 . S
C1264 C1263 1.366 . S
C1264 C1268 1.385 . S
C1265 H1240 0.951 . S
C1265 C1263 1.388 . S
C1265 C1266 1.366 . S
C1266 C1265 1.366 . S
C1266 C1267 1.414 . S
C1266 C1269 1.499 . S
C1267 H1241 0.950 . S
C1267 C1266 1.414 . S
C1267 C1268 1.374 . S
C1268 H1242 0.950 . S
C1268 C1264 1.385 . S
C1268 C1267 1.374 . S
C1269 C1266 1.499 . S
C1269 C1270 1.373 . S
C1269 C1271 1.389 . S
C1270 H1243 0.950 . S
C1270 C1256 1.377 . S
C1270 C1269 1.373 . S
C1271 C1255 1.377 . S
C1271 C1269 1.389 . S
C1271 C1272 1.524 . S
C1272 C1271 1.524 . S
C1272 C1273 1.397 . S
C1272 C1277 1.363 . S
C1273 H1244 0.950 . S
C1273 C1272 1.397 . S
C1273 C1274 1.334 . S
C1274 H1245 0.950 . S
C1274 C1273 1.334 . S
C1274 C1275 1.287 . S
C1275 C1274 1.287 . S
C1275 C1276 1.524 . S
C1275 H1278 0.999 . S
C1276 H1246 0.950 . S
C1276 C1275 1.524 . S
C1276 C1277 1.415 . S
C1277 H1247 0.950 . S
C1277 C1272 1.363 . S
C1277 C1276 1.415 . S
H1278 C1275 0.999 . S
H1279 C1260 0.913 . S
H1280 C1298 0.951 . S
H1281 C1300 0.951 . S
H1282 C1302 0.950 . S
H1283 C1303 0.950 . S
H1284 C1305 0.950 . S
H1285 C1308 0.950 . S
H1286 C1309 0.950 . S
H1287 C1311 0.950 . S
H1288 C1312 0.950 . S
H1289 C1313 0.951 . S
H1290 C1315 0.951 . S
H1291 C1317 0.950 . S
H1292 C1318 0.950 . S
H1293 C1320 0.950 . S
H1294 C1323 0.950 . S
H1295 C1324 0.950 . S
H1296 C1326 0.950 . S
H1297 C1327 0.950 . S
C1298 H1280 0.951 . S
C1298 C1299 1.366 . S
C1298 C1300 1.388 . S
C1299 C1298 1.366 . S
C1299 C1303 1.385 . S
C1300 H1281 0.951 . S
C1300 C1298 1.388 . S
C1300 C1301 1.366 . S
C1301 C1300 1.366 . S
C1301 C1302 1.414 . S
C1301 C1304 1.499 . S
C1302 H1282 0.950 . S
C1302 C1301 1.414 . S
C1302 C1303 1.374 . S
C1303 H1283 0.950 . S
C1303 C1299 1.385 . S
C1303 C1302 1.374 . S
C1304 C1301 1.499 . S
C1304 C1305 1.373 . S
C1304 C1306 1.389 . S
C1305 H1284 0.950 . S
C1305 C1304 1.373 . S
C1305 C1321 1.377 . S
C1306 C1304 1.389 . S
C1306 C1307 1.524 . S
C1306 C1320 1.377 . S
C1307 C1306 1.524 . S
C1307 C1308 1.397 . S
C1307 C1312 1.363 . S
C1308 H1285 0.950 . S
C1308 C1307 1.397 . S
C1308 C1309 1.334 . S
C1309 H1286 0.950 . S
C1309 C1308 1.334 . S
C1309 C1310 1.287 . S
C1310 C1309 1.287 . S
C1310 C1311 1.524 . S
C1310 H1329 0.913 . S
C1311 H1287 0.950 . S
C1311 C1310 1.524 . S
C1311 C1312 1.415 . S
C1312 H1288 0.950 . S
C1312 C1307 1.363 . S
C1312 C1311 1.415 . S
C1313 H1289 0.951 . S
C1313 C1314 1.366 . S
C1313 C1315 1.388 . S
C1314 C1313 1.366 . S
C1314 C1318 1.385 . S
C1315 H1290 0.951 . S
C1315 C1313 1.388 . S
C1315 C1316 1.366 . S
C1316 C1315 1.366 . S
C1316 C1317 1.414 . S
C1316 C1319 1.499 . S
C1317 H1291 0.950 . S
C1317 C1316 1.414 . S
C1317 C1318 1.374 . S
C1318 H1292 0.950 . S
C1318 C1314 1.385 . S
C1318 C1317 1.374 . S
C1319 C1316 1.499 . S
C1319 C1320 1.373 . S
C1319 C1321 1.389 . S
C1320 H1293 0.950 . S
C1320 C1306 1.377 . S
C1320 C1319 1.373 . S
C1321 C1305 1.377 . S
C1321 C1319 1.389 . S
C1321 C1322 1.524 . S
C1322 C1321 1.524 . S
C1322 C1323 1.397 . S
C1322 C1327 1.363 . S
C1323 H1294 0.950 . S
C1323 C1322 1.397 . S
C1323 C1324 1.334 . S
C1324 H1295 0.950 . S
C1324 C1323 1.334 . S
C1324 C1325 1.287 . S
C1325 C1324 1.287 . S
C1325 C1326 1.524 . S
C1325 H1328 0.999 . S
C1326 H1296 0.950 . S
C1326 C1325 1.524 . S
C1326 C1327 1.415 . S
C1327 H1297 0.950 . S
C1327 C1322 1.363 . S
C1327 C1326 1.415 . S
H1328 C1325 0.999 . S
H1329 C1310 0.913 . S
H1330 C1348 0.951 . S
H1331 C1350 0.951 . S
H1332 C1352 0.950 . S
H1333 C1353 0.950 1_565 S
H1334 C1355 0.950 . S
H1335 C1358 0.950 . S
H1336 C1359 0.950 . S
H1337 C1361 0.950 . S
H1338 C1362 0.950 . S
H1339 C1363 0.951 . S
H1340 C1365 0.951 . S
H1341 C1367 0.950 . S
H1342 C1368 0.953 . S
H1343 C1370 0.983 . S
H1344 C1373 0.950 . S
H1345 C1374 0.950 . S
H1346 C1376 0.950 . S
H1347 C1377 0.950 . S
C1348 H1330 0.951 . S
C1348 C1349 1.366 . S
C1348 C1350 1.388 . S
C1349 C1348 1.366 . S
C1349 C1353 1.398 . S
C1350 H1331 0.951 . S
C1350 C1348 1.388 . S
C1350 C1351 1.366 . S
C1351 C1350 1.366 . S
C1351 C1352 1.414 . S
C1351 C1354 1.499 . S
C1352 H1332 0.950 . S
C1352 C1351 1.414 . S
C1352 C1353 1.367 . S
C1353 H1333 0.950 1_545 S
C1353 C1349 1.398 . S
C1353 C1352 1.367 . S
C1354 C1351 1.499 . S
C1354 C1355 1.373 . S
C1354 C1356 1.389 1_545 S
C1355 H1334 0.950 . S
C1355 C1354 1.373 . S
C1355 C1371 1.377 . S
C1356 C1354 1.389 1_565 S
C1356 C1357 1.524 . S
C1356 C1370 1.375 . S
C1357 C1356 1.524 . S
C1357 C1358 1.397 . S
C1357 C1362 1.363 . S
C1358 H1335 0.950 . S
C1358 C1357 1.397 . S
C1358 C1359 1.334 . S
C1359 H1336 0.950 . S
C1359 C1358 1.334 . S
C1359 C1360 1.287 . S
C1360 C1359 1.287 . S
C1360 C1361 1.524 . S
C1360 H1379 0.913 . S
C1361 H1337 0.950 . S
C1361 C1360 1.524 . S
C1361 C1362 1.415 . S
C1362 H1338 0.950 . S
C1362 C1357 1.363 . S
C1362 C1361 1.415 . S
C1363 H1339 0.951 . S
C1363 C1364 1.366 . S
C1363 C1365 1.388 . S
C1364 C1363 1.366 . S
C1364 C1368 1.384 1_554 S
C1365 H1340 0.951 . S
C1365 C1363 1.388 . S
C1365 C1366 1.366 . S
C1366 C1365 1.366 . S
C1366 C1367 1.414 . S
C1366 C1369 1.499 . S
C1367 H1341 0.950 . S
C1367 C1366 1.414 . S
C1367 C1368 1.372 1_554 S
C1368 H1342 0.953 . S
C1368 C1364 1.384 1_556 S
C1368 C1367 1.372 1_556 S
C1369 C1366 1.499 . S
C1369 C1370 1.345 1_545 S
C1369 C1371 1.389 . S
C1370 H1343 0.983 . S
C1370 C1356 1.375 . S
C1370 C1369 1.345 1_565 S
C1371 C1355 1.377 . S
C1371 C1369 1.389 . S
C1371 C1372 1.524 . S
C1372 C1371 1.524 . S
C1372 C1373 1.397 . S
C1372 C1377 1.363 . S
C1373 H1344 0.950 . S
C1373 C1372 1.397 . S
C1373 C1374 1.334 . S
C1374 H1345 0.950 . S
C1374 C1373 1.334 . S
C1374 C1375 1.287 . S
C1375 C1374 1.287 . S
C1375 C1376 1.524 . S
C1375 H1378 0.999 . S
C1376 H1346 0.950 . S
C1376 C1375 1.524 . S
C1376 C1377 1.415 . S
C1377 H1347 0.950 . S
C1377 C1372 1.363 . S
C1377 C1376 1.415 . S
H1378 C1375 0.999 . S
H1379 C1360 0.913 . S
H1380 C1398 0.951 . S
H1381 C1400 0.951 1_554 S
H1382 C1402 0.950 . S
H1383 C1403 0.950 . S
H1384 C1405 0.950 . S
H1385 C1408 0.950 . S
H1386 C1409 0.950 . S
H1387 C1411 0.950 . S
H1388 C1412 0.950 . S
H1389 C1413 0.951 . S
H1390 C1415 0.951 . S
H1391 C1417 0.950 . S
H1392 C1418 0.950 . S
H1393 C1420 0.950 . S
H1394 C1423 0.950 . S
H1395 C1424 0.950 . S
H1396 C1426 0.950 . S
H1397 C1427 0.950 . S
C1398 H1380 0.951 . S
C1398 C1399 1.366 1_554 S
C1398 C1400 1.388 1_554 S
C1399 C1398 1.366 1_556 S
C1399 C1403 1.385 . S
C1400 H1381 0.951 1_556 S
C1400 C1398 1.388 1_556 S
C1400 C1401 1.366 . S
C1401 C1400 1.366 . S
C1401 C1402 1.414 . S
C1401 C1404 1.499 . S
C1402 H1382 0.950 . S
C1402 C1401 1.414 . S
C1402 C1403 1.374 . S
C1403 H1383 0.950 . S
C1403 C1399 1.385 . S
C1403 C1402 1.374 . S
C1404 C1401 1.499 . S
C1404 C1405 1.373 . S
C1404 C1406 1.389 . S
C1405 H1384 0.950 . S
C1405 C1404 1.373 . S
C1405 C1421 1.377 . S
C1406 C1404 1.389 . S
C1406 C1407 1.524 1_556 S
C1406 C1420 1.377 . S
C1407 C1406 1.524 1_554 S
C1407 C1408 1.397 . S
C1407 C1412 1.363 . S
C1408 H1385 0.950 . S
C1408 C1407 1.397 . S
C1408 C1409 1.334 . S
C1409 H1386 0.950 . S
C1409 C1408 1.334 . S
C1409 C1410 1.287 . S
C1410 C1409 1.287 . S
C1410 C1411 1.524 . S
C1410 H1429 0.913 . S
C1411 H1387 0.950 . S
C1411 C1410 1.524 . S
C1411 C1412 1.415 . S
C1412 H1388 0.950 . S
C1412 C1407 1.363 . S
C1412 C1411 1.415 . S
C1413 H1389 0.951 . S
C1413 C1414 1.366 . S
C1413 C1415 1.388 . S
C1414 C1413 1.366 . S
C1414 C1418 1.385 . S
C1415 H1390 0.951 . S
C1415 C1413 1.388 . S
C1415 C1416 1.366 . S
C1416 C1415 1.366 . S
C1416 C1417 1.414 . S
C1416 C1419 1.499 . S
C1417 H1391 0.950 . S
C1417 C1416 1.414 . S
C1417 C1418 1.374 . S
C1418 H1392 0.950 . S
C1418 C1414 1.385 . S
C1418 C1417 1.374 . S
C1419 C1416 1.499 . S
C1419 C1420 1.373 . S
C1419 C1421 1.389 . S
C1420 H1393 0.950 . S
C1420 C1406 1.377 . S
C1420 C1419 1.373 . S
C1421 C1405 1.377 . S
C1421 C1419 1.389 . S
C1421 C1422 1.524 . S
C1422 C1421 1.524 . S
C1422 C1423 1.397 . S
C1422 C1427 1.363 . S
C1423 H1394 0.950 . S
C1423 C1422 1.397 . S
C1423 C1424 1.334 . S
C1424 H1395 0.950 . S
C1424 C1423 1.334 . S
C1424 C1425 1.287 . S
C1425 C1424 1.287 . S
C1425 C1426 1.524 . S
C1425 H1428 0.999 . S
C1426 H1396 0.950 . S
C1426 C1425 1.524 . S
C1426 C1427 1.415 . S
C1427 H1397 0.950 . S
C1427 C1422 1.363 . S
C1427 C1426 1.415 . S
H1428 C1425 0.999 . S
H1429 C1410 0.913 . S
H1430 C1448 0.951 . S
H1431 C1450 0.951 . S
H1432 C1452 0.950 . S
H1433 C1453 0.950 . S
H1434 C1455 0.950 . S
H1435 C1458 0.950 . S
H1436 C1459 0.950 . S
H1437 C1461 0.950 . S
H1438 C1462 0.950 . S
H1439 C1463 0.951 . S
H1440 C1465 0.951 . S
H1441 C1467 0.950 . S
H1442 C1468 0.950 . S
H1443 C1470 0.950 . S
H1444 C1473 0.950 . S
H1445 C1474 0.950 . S
H1446 C1476 0.950 . S
H1447 C1477 0.950 . S
C1448 H1430 0.951 . S
C1448 C1449 1.366 . S
C1448 C1450 1.388 . S
C1449 C1448 1.366 . S
C1449 C1453 1.385 . S
C1450 H1431 0.951 . S
C1450 C1448 1.388 . S
C1450 C1451 1.366 . S
C1451 C1450 1.366 . S
C1451 C1452 1.414 . S
C1451 C1454 1.499 . S
C1452 H1432 0.950 . S
C1452 C1451 1.414 . S
C1452 C1453 1.374 . S
C1453 H1433 0.950 . S
C1453 C1449 1.385 . S
C1453 C1452 1.374 . S
C1454 C1451 1.499 . S
C1454 C1455 1.373 . S
C1454 C1456 1.389 . S
C1455 H1434 0.950 . S
C1455 C1454 1.373 . S
C1455 C1471 1.377 . S
C1456 C1454 1.389 . S
C1456 C1457 1.524 . S
C1456 C1470 1.377 . S
C1457 C1456 1.524 . S
C1457 C1458 1.397 . S
C1457 C1462 1.363 . S
C1458 H1435 0.950 . S
C1458 C1457 1.397 . S
C1458 C1459 1.334 . S
C1459 H1436 0.950 . S
C1459 C1458 1.334 . S
C1459 C1460 1.287 . S
C1460 C1459 1.287 . S
C1460 C1461 1.524 . S
C1460 H1479 0.913 . S
C1461 H1437 0.950 . S
C1461 C1460 1.524 . S
C1461 C1462 1.415 . S
C1462 H1438 0.950 . S
C1462 C1457 1.363 . S
C1462 C1461 1.415 . S
C1463 H1439 0.951 . S
C1463 C1464 1.366 1_556 S
C1463 C1465 1.388 1_556 S
C1464 C1463 1.366 1_554 S
C1464 C1468 1.385 . S
C1465 H1440 0.951 . S
C1465 C1463 1.388 1_554 S
C1465 C1466 1.366 . S
C1466 C1465 1.366 . S
C1466 C1467 1.414 . S
C1466 C1469 1.499 . S
C1467 H1441 0.950 . S
C1467 C1466 1.414 . S
C1467 C1468 1.374 . S
C1468 H1442 0.950 . S
C1468 C1464 1.385 . S
C1468 C1467 1.374 . S
C1469 C1466 1.499 . S
C1469 C1470 1.373 . S
C1469 C1471 1.389 . S
C1470 H1443 0.950 . S
C1470 C1456 1.377 . S
C1470 C1469 1.373 . S
C1471 C1455 1.377 . S
C1471 C1469 1.389 . S
C1471 C1472 1.524 . S
C1472 C1471 1.524 . S
C1472 C1473 1.397 . S
C1472 C1477 1.363 . S
C1473 H1444 0.950 . S
C1473 C1472 1.397 . S
C1473 C1474 1.334 . S
C1474 H1445 0.950 . S
C1474 C1473 1.334 . S
C1474 C1475 1.287 . S
C1475 C1474 1.287 . S
C1475 C1476 1.524 . S
C1475 H1478 0.999 . S
C1476 H1446 0.950 . S
C1476 C1475 1.524 . S
C1476 C1477 1.415 . S
C1477 H1447 0.950 . S
C1477 C1472 1.363 . S
C1477 C1476 1.415 . S
H1478 C1475 0.999 . S
H1479 C1460 0.913 . S
H1480 C1498 0.951 . S
H1481 C1500 0.951 . S
H1482 C1502 0.950 . S
H1483 C1503 0.950 . S
H1484 C1505 0.950 . S
H1485 C1508 0.950 . S
H1486 C1509 0.950 . S
H1487 C1511 0.950 . S
H1488 C1512 0.950 . S
H1489 C1513 0.951 . S
H1490 C1515 0.951 . S
H1491 C1517 0.950 . S
H1492 C1518 0.950 . S
H1493 C1520 0.950 . S
H1494 C1523 0.950 . S
H1495 C1524 0.950 . S
H1496 C1526 0.950 . S
H1497 C1527 0.950 . S
C1498 H1480 0.951 . S
C1498 C1499 1.366 . S
C1498 C1500 1.388 . S
C1499 C1498 1.366 . S
C1499 C1503 1.385 . S
C1500 H1481 0.951 . S
C1500 C1498 1.388 . S
C1500 C1501 1.366 . S
C1501 C1500 1.366 . S
C1501 C1502 1.414 . S
C1501 C1504 1.499 . S
C1502 H1482 0.950 . S
C1502 C1501 1.414 . S
C1502 C1503 1.374 . S
C1503 H1483 0.950 . S
C1503 C1499 1.385 . S
C1503 C1502 1.374 . S
C1504 C1501 1.499 . S
C1504 C1505 1.373 . S
C1504 C1506 1.389 . S
C1505 H1484 0.950 . S
C1505 C1504 1.373 . S
C1505 C1521 1.377 . S
C1506 C1504 1.389 . S
C1506 C1507 1.524 . S
C1506 C1520 1.377 . S
C1507 C1506 1.524 . S
C1507 C1508 1.397 . S
C1507 C1512 1.363 . S
C1508 H1485 0.950 . S
C1508 C1507 1.397 . S
C1508 C1509 1.334 . S
C1509 H1486 0.950 . S
C1509 C1508 1.334 . S
C1509 C1510 1.287 . S
C1510 C1509 1.287 . S
C1510 C1511 1.524 . S
C1510 H1529 0.913 . S
C1511 H1487 0.950 . S
C1511 C1510 1.524 . S
C1511 C1512 1.415 . S
C1512 H1488 0.950 . S
C1512 C1507 1.363 . S
C1512 C1511 1.415 . S
C1513 H1489 0.951 . S
C1513 C1514 1.366 . S
C1513 C1515 1.388 . S
C1514 C1513 1.366 . S
C1514 C1518 1.385 . S
C1515 H1490 0.951 . S
C1515 C1513 1.388 . S
C1515 C1516 1.366 . S
C1516 C1515 1.366 . S
C1516 C1517 1.414 . S
C1516 C1519 1.499 . S
C1517 H1491 0.950 . S
C1517 C1516 1.414 . S
C1517 C1518 1.374 . S
C1518 H1492 0.950 . S
C1518 C1514 1.385 . S
C1518 C1517 1.374 . S
C1519 C1516 1.499 . S
C1519 C1520 1.373 . S
C1519 C1521 1.389 . S
C1520 H1493 0.950 . S
C1520 C1506 1.377 . S
C1520 C1519 1.373 . S
C1521 C1505 1.377 . S
C1521 C1519 1.389 . S
C1521 C1522 1.524 . S
C1522 C1521 1.524 . S
C1522 C1523 1.397 . S
C1522 C1527 1.363 . S
C1523 H1494 0.950 . S
C1523 C1522 1.397 . S
C1523 C1524 1.334 . S
C1524 H1495 0.950 . S
C1524 C1523 1.334 . S
C1524 C1525 1.287 . S
C1525 C1524 1.287 . S
C1525 C1526 1.524 . S
C1525 H1528 0.999 . S
C1526 H1496 0.950 . S
C1526 C1525 1.524 . S
C1526 C1527 1.415 . S
C1527 H1497 0.950 . S
C1527 C1522 1.363 . S
C1527 C1526 1.415 . S
H1528 C1525 0.999 . S
H1529 C1510 0.913 . S
H1530 C1548 0.951 . S
H1531 C1550 0.951 . S
H1532 C1552 0.950 . S
H1533 C1553 0.950 . S
H1534 C1555 0.950 . S
H1535 C1558 0.950 . S
H1536 C1559 0.950 . S
H1537 C1561 0.950 . S
H1538 C1562 0.950 . S
H1539 C1563 0.951 . S
H1540 C1565 0.951 . S
H1541 C1567 0.999 . S
H1542 C1568 0.950 1_545 S
H1543 C1570 0.950 . S
H1544 C1573 0.950 1_545 S
H1545 C1574 0.950 1_545 S
H1546 C1576 0.950 . S
H1547 C1577 0.950 . S
C1548 H1530 0.951 . S
C1548 C1549 1.366 1_545 S
C1548 C1550 1.388 . S
C1549 C1548 1.366 1_565 S
C1549 C1553 1.385 . S
C1550 H1531 0.951 . S
C1550 C1548 1.388 . S
C1550 C1551 1.366 1_545 S
C1551 C1550 1.366 1_565 S
C1551 C1552 1.414 . S
C1551 C1554 1.499 . S
C1552 H1532 0.950 . S
C1552 C1551 1.414 . S
C1552 C1553 1.374 . S
C1553 H1533 0.950 . S
C1553 C1549 1.385 . S
C1553 C1552 1.374 . S
C1554 C1551 1.499 . S
C1554 C1555 1.373 . S
C1554 C1556 1.389 . S
C1555 H1534 0.950 . S
C1555 C1554 1.373 . S
C1555 C1571 1.377 . S
C1556 C1554 1.389 . S
C1556 C1557 1.524 . S
C1556 C1570 1.377 . S
C1557 C1556 1.524 . S
C1557 C1558 1.397 . S
C1557 C1562 1.363 1_565 S
C1558 H1535 0.950 . S
C1558 C1557 1.397 . S
C1558 C1559 1.334 . S
C1559 H1536 0.950 . S
C1559 C1558 1.334 . S
C1559 C1560 1.287 . S
C1560 C1559 1.287 . S
C1560 C1561 1.524 1_565 S
C1560 H1579 0.913 . S
C1561 H1537 0.950 . S
C1561 C1560 1.524 1_545 S
C1561 C1562 1.415 . S
C1562 H1538 0.950 . S
C1562 C1557 1.363 1_545 S
C1562 C1561 1.415 . S
C1563 H1539 0.951 . S
C1563 C1564 1.366 . S
C1563 C1565 1.388 . S
C1564 C1563 1.366 . S
C1564 C1568 1.385 . S
C1565 H1540 0.951 . S
C1565 C1563 1.388 . S
C1565 C1566 1.366 . S
C1566 C1565 1.366 . S
C1566 C1567 1.361 1_565 S
C1566 C1569 1.499 . S
C1567 H1541 0.999 . S
C1567 C1566 1.361 1_545 S
C1567 C1568 1.382 1_545 S
C1568 H1542 0.950 1_565 S
C1568 C1564 1.385 . S
C1568 C1567 1.382 1_565 S
C1569 C1566 1.499 . S
C1569 C1570 1.373 . S
C1569 C1571 1.389 . S
C1570 H1543 0.950 . S
C1570 C1556 1.377 . S
C1570 C1569 1.373 . S
C1571 C1555 1.377 . S
C1571 C1569 1.389 . S
C1571 C1572 1.524 . S
C1572 C1571 1.524 . S
C1572 C1573 1.397 . S
C1572 C1577 1.363 . S
C1573 H1544 0.950 1_565 S
C1573 C1572 1.397 . S
C1573 C1574 1.334 . S
C1574 H1545 0.950 1_565 S
C1574 C1573 1.334 . S
C1574 C1575 1.287 . S
C1575 C1574 1.287 . S
C1575 C1576 1.524 . S
C1575 H1578 0.999 . S
C1576 H1546 0.950 . S
C1576 C1575 1.524 . S
C1576 C1577 1.415 . S
C1577 H1547 0.950 . S
C1577 C1572 1.363 . S
C1577 C1576 1.415 . S
H1578 C1575 0.999 . S
H1579 C1560 0.913 . S
H1580 C1598 0.951 . S
H1581 C1600 0.951 . S
H1582 C1602 0.950 . S
H1583 C1603 0.950 . S
H1584 C1605 0.950 . S
H1585 C1608 0.950 . S
H1586 C1609 0.950 . S
H1587 C1611 0.950 . S
H1588 C1612 0.950 . S
H1589 C1613 0.951 . S
H1590 C1615 0.951 . S
H1591 C1617 0.950 . S
H1592 C1618 0.950 . S
H1593 C1620 0.950 . S
H1594 C1623 0.950 . S
H1595 C1624 0.950 . S
H1596 C1626 0.950 . S
H1597 C1627 0.950 . S
C1598 H1580 0.951 . S
C1598 C1599 1.366 . S
C1598 C1600 1.388 . S
C1599 C1598 1.366 . S
C1599 C1603 1.385 . S
C1600 H1581 0.951 . S
C1600 C1598 1.388 . S
C1600 C1601 1.366 . S
C1601 C1600 1.366 . S
C1601 C1602 1.414 . S
C1601 C1604 1.499 . S
C1602 H1582 0.950 . S
C1602 C1601 1.414 . S
C1602 C1603 1.374 . S
C1603 H1583 0.950 . S
C1603 C1599 1.385 . S
C1603 C1602 1.374 . S
C1604 C1601 1.499 . S
C1604 C1605 1.373 . S
C1604 C1606 1.389 . S
C1605 H1584 0.950 . S
C1605 C1604 1.373 . S
C1605 C1621 1.377 . S
C1606 C1604 1.389 . S
C1606 C1607 1.524 . S
C1606 C1620 1.377 . S
C1607 C1606 1.524 . S
C1607 C1608 1.397 . S
C1607 C1612 1.363 . S
C1608 H1585 0.950 . S
C1608 C1607 1.397 . S
C1608 C1609 1.334 . S
C1609 H1586 0.950 . S
C1609 C1608 1.334 . S
C1609 C1610 1.287 . S
C1610 C1609 1.287 . S
C1610 C1611 1.524 . S
C1610 H1629 0.913 . S
C1611 H1587 0.950 . S
C1611 C1610 1.524 . S
C1611 C1612 1.415 . S
C1612 H1588 0.950 . S
C1612 C1607 1.363 . S
C1612 C1611 1.415 . S
C1613 H1589 0.951 . S
C1613 C1614 1.366 . S
C1613 C1615 1.388 . S
C1614 C1613 1.366 . S
C1614 C1618 1.385 . S
C1615 H1590 0.951 . S
C1615 C1613 1.388 . S
C1615 C1616 1.366 . S
C1616 C1615 1.366 . S
C1616 C1617 1.414 . S
C1616 C1619 1.499 . S
C1617 H1591 0.950 . S
C1617 C1616 1.414 . S
C1617 C1618 1.374 . S
C1618 H1592 0.950 . S
C1618 C1614 1.385 . S
C1618 C1617 1.374 . S
C1619 C1616 1.499 . S
C1619 C1620 1.373 . S
C1619 C1621 1.389 . S
C1620 H1593 0.950 . S
C1620 C1606 1.377 . S
C1620 C1619 1.373 . S
C1621 C1605 1.377 . S
C1621 C1619 1.389 . S
C1621 C1622 1.524 . S
C1622 C1621 1.524 . S
C1622 C1623 1.397 . S
C1622 C1627 1.363 . S
C1623 H1594 0.950 . S
C1623 C1622 1.397 . S
C1623 C1624 1.334 . S
C1624 H1595 0.950 . S
C1624 C1623 1.334 . S
C1624 C1625 1.287 . S
C1625 C1624 1.287 . S
C1625 C1626 1.524 . S
C1625 H1628 0.999 . S
C1626 H1596 0.950 . S
C1626 C1625 1.524 . S
C1626 C1627 1.415 . S
C1627 H1597 0.950 . S
C1627 C1622 1.363 . S
C1627 C1626 1.415 . S
H1628 C1625 0.999 . S
H1629 C1610 0.913 . S
H1630 C1648 0.951 . S
H1631 C1650 0.951 . S
H1632 C1652 0.950 . S
H1633 C1653 0.950 . S
H1634 C1655 0.950 . S
H1635 C1658 0.950 . S
H1636 C1659 0.950 . S
H1637 C1661 0.950 . S
H1638 C1662 0.950 . S
H1639 C1663 0.951 . S
H1640 C1665 0.951 . S
H1641 C1667 0.950 . S
H1642 C1668 0.950 . S
H1643 C1670 0.950 . S
H1644 C1673 0.950 . S
H1645 C1674 0.950 . S
H1646 C1676 0.950 . S
H1647 C1677 0.950 . S
C1648 H1630 0.951 . S
C1648 C1649 1.366 . S
C1648 C1650 1.388 . S
C1649 C1648 1.366 . S
C1649 C1653 1.385 . S
C1650 H1631 0.951 . S
C1650 C1648 1.388 . S
C1650 C1651 1.366 . S
C1651 C1650 1.366 . S
C1651 C1652 1.414 . S
C1651 C1654 1.499 . S
C1652 H1632 0.950 . S
C1652 C1651 1.414 . S
C1652 C1653 1.374 . S
C1653 H1633 0.950 . S
C1653 C1649 1.385 . S
C1653 C1652 1.374 . S
C1654 C1651 1.499 . S
C1654 C1655 1.373 . S
C1654 C1656 1.389 . S
C1655 H1634 0.950 . S
C1655 C1654 1.373 . S
C1655 C1671 1.377 . S
C1656 C1654 1.389 . S
C1656 C1657 1.524 . S
C1656 C1670 1.377 . S
C1657 C1656 1.524 . S
C1657 C1658 1.397 . S
C1657 C1662 1.363 . S
C1658 H1635 0.950 . S
C1658 C1657 1.397 . S
C1658 C1659 1.334 . S
C1659 H1636 0.950 . S
C1659 C1658 1.334 . S
C1659 C1660 1.287 . S
C1660 C1659 1.287 . S
C1660 C1661 1.524 . S
C1660 H1679 0.913 . S
C1661 H1637 0.950 . S
C1661 C1660 1.524 . S
C1661 C1662 1.415 . S
C1662 H1638 0.950 . S
C1662 C1657 1.363 . S
C1662 C1661 1.415 . S
C1663 H1639 0.951 . S
C1663 C1664 1.366 . S
C1663 C1665 1.388 . S
C1664 C1663 1.366 . S
C1664 C1668 1.385 . S
C1665 H1640 0.951 . S
C1665 C1663 1.388 . S
C1665 C1666 1.366 . S
C1666 C1665 1.366 . S
C1666 C1667 1.414 . S
C1666 C1669 1.499 . S
C1667 H1641 0.950 . S
C1667 C1666 1.414 . S
C1667 C1668 1.374 . S
C1668 H1642 0.950 . S
C1668 C1664 1.385 . S
C1668 C1667 1.374 . S
C1669 C1666 1.499 . S
C1669 C1670 1.373 . S
C1669 C1671 1.389 . S
C1670 H1643 0.950 . S
C1670 C1656 1.377 . S
C1670 C1669 1.373 . S
C1671 C1655 1.377 . S
C1671 C1669 1.389 . S
C1671 C1672 1.524 . S
C1672 C1671 1.524 . S
C1672 C1673 1.397 . S
C1672 C1677 1.363 . S
C1673 H1644 0.950 . S
C1673 C1672 1.397 . S
C1673 C1674 1.334 . S
C1674 H1645 0.950 . S
C1674 C1673 1.334 . S
C1674 C1675 1.287 . S
C1675 C1674 1.287 . S
C1675 C1676 1.524 . S
C1675 H1678 0.999 . S
C1676 H1646 0.950 . S
C1676 C1675 1.524 . S
C1676 C1677 1.415 . S
C1677 H1647 0.950 . S
C1677 C1672 1.363 . S
C1677 C1676 1.415 . S
H1678 C1675 0.999 . S
H1679 C1660 0.913 . S
C499 C255 0.802 . S
C514 C329 0.789 . S
C564 C369 1.850 . S
C549 C295 1.893 . S
C614 C418 1.697 . S
C599 C175 1.698 . S
C664 C449 2.217 . S
C649 C215 2.232 . S
C714 C338 0.791 . S
C699 C95 0.796 . S
C749 C135 1.887 . S
C764 C378 1.854 . S
C799 C15 1.708 . S
C814 C409 1.697 . S
C849 C55 2.219 . S
C864 C458 2.181 1_655 S
C914 C339 1.267 . S
C899 C221 1.159 . S
C964 C379 0.506 . S
C949 C261 0.624 . S
C1014 C415 0.438 . S
C999 C301 0.441 . S
C1049 C181 1.181 . S
C1064 C459 1.363 . S
C1099 C61 1.049 . S
C1114 C330 1.244 1_655 S
C1164 C370 0.504 . S
C1149 C101 0.623 1_565 S
C1214 C406 0.438 . S
C1199 C141 0.559 . S
C1249 C21 1.266 . S
C1264 C450 1.363 . S
C1299 C202 2.296 . S
C1314 C335 2.351 1_554 S
C1349 C242 1.736 . S
C1364 C375 1.783 1_554 S
C1414 C419 2.981 . S
C1399 C282 2.807 1_556 S
C1464 C455 1.890 1_554 S
C1449 C162 1.769 . S
C1499 C42 2.204 . S
C1514 C326 2.361 . S
C1564 C366 1.783 . S
C1549 C82 1.755 1_565 S
C1614 C410 2.980 . S
C1599 C122 2.708 . S
C1649 C2 1.862 . S
C1664 C446 1.889 . S
