# Generated by pormake.
# Topology soc, (4,6)-cn, num edge types: 1
# Building blocks:
#     Node 0, Type 0, BuildingBlock: ESEHIV_clean_sbu_0, # of connection points: 4
#     Node 1, Type 0, BuildingBlock: ESEHIV_clean_sbu_0, # of connection points: 4
#     Node 2, Type 0, BuildingBlock: ESEHIV_clean_sbu_0, # of connection points: 4
#     Node 3, Type 0, BuildingBlock: ESEHIV_clean_sbu_0, # of connection points: 4
#     Node 4, Type 0, BuildingBlock: ESEHIV_clean_sbu_0, # of connection points: 4
#     Node 5, Type 0, BuildingBlock: ESEHIV_clean_sbu_0, # of connection points: 4
#     Node 6, Type 0, BuildingBlock: ESEHIV_clean_sbu_0, # of connection points: 4
#     Node 7, Type 0, BuildingBlock: ESEHIV_clean_sbu_0, # of connection points: 4
#     Node 8, Type 0, BuildingBlock: ESEHIV_clean_sbu_0, # of connection points: 4
#     Node 9, Type 0, BuildingBlock: ESEHIV_clean_sbu_0, # of connection points: 4
#     Node 10, Type 0, BuildingBlock: ESEHIV_clean_sbu_0, # of connection points: 4
#     Node 11, Type 0, BuildingBlock: ESEHIV_clean_sbu_0, # of connection points: 4
#     Node 12, Type 1, BuildingBlock: CUKXOW_clean_sbu_0, # of connection points: 6
#     Node 13, Type 1, BuildingBlock: CUKXOW_clean_sbu_0, # of connection points: 6
#     Node 14, Type 1, BuildingBlock: CUKXOW_clean_sbu_0, # of connection points: 6
#     Node 15, Type 1, BuildingBlock: CUKXOW_clean_sbu_0, # of connection points: 6
#     Node 16, Type 1, BuildingBlock: CUKXOW_clean_sbu_0, # of connection points: 6
#     Node 17, Type 1, BuildingBlock: CUKXOW_clean_sbu_0, # of connection points: 6
#     Node 18, Type 1, BuildingBlock: CUKXOW_clean_sbu_0, # of connection points: 6
#     Node 19, Type 1, BuildingBlock: CUKXOW_clean_sbu_0, # of connection points: 6
#     Edge 20, Type (0, 1), BuildingBlock: UVAHIK_clean_linker_0, # of connection points: 2
#     Edge 21, Type (0, 1), BuildingBlock: UVAHIK_clean_linker_0, # of connection points: 2
#     Edge 22, Type (0, 1), BuildingBlock: UVAHIK_clean_linker_0, # of connection points: 2
#     Edge 23, Type (0, 1), BuildingBlock: UVAHIK_clean_linker_0, # of connection points: 2
#     Edge 24, Type (0, 1), BuildingBlock: UVAHIK_clean_linker_0, # of connection points: 2
#     Edge 25, Type (0, 1), BuildingBlock: UVAHIK_clean_linker_0, # of connection points: 2
#     Edge 26, Type (0, 1), BuildingBlock: UVAHIK_clean_linker_0, # of connection points: 2
#     Edge 27, Type (0, 1), BuildingBlock: UVAHIK_clean_linker_0, # of connection points: 2
#     Edge 28, Type (0, 1), BuildingBlock: UVAHIK_clean_linker_0, # of connection points: 2
#     Edge 29, Type (0, 1), BuildingBlock: UVAHIK_clean_linker_0, # of connection points: 2
#     Edge 30, Type (0, 1), BuildingBlock: UVAHIK_clean_linker_0, # of connection points: 2
#     Edge 31, Type (0, 1), BuildingBlock: UVAHIK_clean_linker_0, # of connection points: 2
#     Edge 32, Type (0, 1), BuildingBlock: UVAHIK_clean_linker_0, # of connection points: 2
#     Edge 33, Type (0, 1), BuildingBlock: UVAHIK_clean_linker_0, # of connection points: 2
#     Edge 34, Type (0, 1), BuildingBlock: UVAHIK_clean_linker_0, # of connection points: 2
#     Edge 35, Type (0, 1), BuildingBlock: UVAHIK_clean_linker_0, # of connection points: 2
#     Edge 36, Type (0, 1), BuildingBlock: UVAHIK_clean_linker_0, # of connection points: 2
#     Edge 37, Type (0, 1), BuildingBlock: UVAHIK_clean_linker_0, # of connection points: 2
#     Edge 38, Type (0, 1), BuildingBlock: UVAHIK_clean_linker_0, # of connection points: 2
#     Edge 39, Type (0, 1), BuildingBlock: UVAHIK_clean_linker_0, # of connection points: 2
#     Edge 40, Type (0, 1), BuildingBlock: UVAHIK_clean_linker_0, # of connection points: 2
#     Edge 41, Type (0, 1), BuildingBlock: UVAHIK_clean_linker_0, # of connection points: 2
#     Edge 42, Type (0, 1), BuildingBlock: UVAHIK_clean_linker_0, # of connection points: 2
#     Edge 43, Type (0, 1), BuildingBlock: UVAHIK_clean_linker_0, # of connection points: 2
#     Edge 44, Type (0, 1), BuildingBlock: UVAHIK_clean_linker_0, # of connection points: 2
#     Edge 45, Type (0, 1), BuildingBlock: UVAHIK_clean_linker_0, # of connection points: 2
#     Edge 46, Type (0, 1), BuildingBlock: UVAHIK_clean_linker_0, # of connection points: 2
#     Edge 47, Type (0, 1), BuildingBlock: UVAHIK_clean_linker_0, # of connection points: 2
#     Edge 48, Type (0, 1), BuildingBlock: UVAHIK_clean_linker_0, # of connection points: 2
#     Edge 49, Type (0, 1), BuildingBlock: UVAHIK_clean_linker_0, # of connection points: 2
#     Edge 50, Type (0, 1), BuildingBlock: UVAHIK_clean_linker_0, # of connection points: 2
#     Edge 51, Type (0, 1), BuildingBlock: UVAHIK_clean_linker_0, # of connection points: 2
#     Edge 52, Type (0, 1), BuildingBlock: UVAHIK_clean_linker_0, # of connection points: 2
#     Edge 53, Type (0, 1), BuildingBlock: UVAHIK_clean_linker_0, # of connection points: 2
#     Edge 54, Type (0, 1), BuildingBlock: UVAHIK_clean_linker_0, # of connection points: 2
#     Edge 55, Type (0, 1), BuildingBlock: UVAHIK_clean_linker_0, # of connection points: 2
#     Edge 56, Type (0, 1), BuildingBlock: UVAHIK_clean_linker_0, # of connection points: 2
#     Edge 57, Type (0, 1), BuildingBlock: UVAHIK_clean_linker_0, # of connection points: 2
#     Edge 58, Type (0, 1), BuildingBlock: UVAHIK_clean_linker_0, # of connection points: 2
#     Edge 59, Type (0, 1), BuildingBlock: UVAHIK_clean_linker_0, # of connection points: 2
#     Edge 60, Type (0, 1), BuildingBlock: UVAHIK_clean_linker_0, # of connection points: 2
#     Edge 61, Type (0, 1), BuildingBlock: UVAHIK_clean_linker_0, # of connection points: 2
#     Edge 62, Type (0, 1), BuildingBlock: UVAHIK_clean_linker_0, # of connection points: 2
#     Edge 63, Type (0, 1), BuildingBlock: UVAHIK_clean_linker_0, # of connection points: 2
#     Edge 64, Type (0, 1), BuildingBlock: UVAHIK_clean_linker_0, # of connection points: 2
#     Edge 65, Type (0, 1), BuildingBlock: UVAHIK_clean_linker_0, # of connection points: 2
#     Edge 66, Type (0, 1), BuildingBlock: UVAHIK_clean_linker_0, # of connection points: 2
#     Edge 67, Type (0, 1), BuildingBlock: UVAHIK_clean_linker_0, # of connection points: 2
# Relax obj value: 0.084
# Max RMSD: 0.169
# Mean RMSD: 0.141
data_MOF--net-soc--node1-ESEHIV_clean_sbu_0--node2-CUKXOW_clean_sbu_0--edge1-UVAHIK_clean_linker_0
_symmetry_space_group_name_H-M    P1
_symmetry_Int_Tables_number       1
_symmetry_cell_setting            triclinic
loop_
_symmetry_equiv_pos_as_xyz
'x, y, z'
_cell_length_a     56.091152
_cell_length_b     56.483911
_cell_length_c     56.836446
_cell_angle_alpha  94.718943
_cell_angle_beta   93.248103
_cell_angle_gamma 88.866423
loop_
_atom_site_label
_atom_site_type_symbol
_atom_site_fract_x
_atom_site_fract_y
_atom_site_fract_z
_atom_type_partial_charge
Cu0 Cu 0.06462 0.02904 0.28161 0.0
N1 N 0.08121 0.05385 0.29912 0.0
N2 N 0.10539 0.08513 0.30594 0.0
C3 C 0.09598 0.0686 0.28967 0.0
C4 C 0.09606 0.08057 0.32648 0.0
C5 C 0.08107 0.06138 0.3222 0.0
O6 O 0.0887 1.00736 0.26771 0.0
C7 C 1.02549 0.05581 0.27237 0.0
O8 O 1.02611 0.05474 0.2954 0.0
H9 H 0.09993 0.06702 0.27118 0.0
H10 H 0.07066 0.05366 0.33497 0.0
N11 N 0.04628 0.01013 0.29937 0.0
N12 N 1.01904 0.98326 0.30601 0.0
C13 C 1.02749 0.99715 0.29022 0.0
C14 C 0.04976 1.00431 0.32182 0.0
C15 C 1.03304 0.9877 0.32594 0.0
C16 C 0.10318 0.99955 0.28353 0.0
O17 O 0.10095 1.00781 0.30559 0.0
H18 H 1.0208 0.99719 0.27198 0.0
H19 H 0.06389 0.01102 0.33414 0.0
O20 O 0.04183 0.04502 0.26073 0.0
H21 H 0.0995 0.09062 0.34334 0.0
H22 H 1.0315 0.97932 0.34223 0.0
Cu23 Cu 0.04531 0.01708 0.71719 0.0
N24 N 1.02201 0.99891 0.69913 0.0
N25 N 0.99219 0.97301 0.69171 0.0
C26 C 1.00777 0.98341 0.70822 0.0
C27 C 0.99681 0.98243 0.67138 0.0
C28 C 1.01508 0.9985 0.67604 0.0
O29 O 1.02705 0.04208 0.73443 0.0
C30 C 0.07265 0.9775 0.72136 0.0
O31 O 0.0658 0.97626 0.69881 0.0
H32 H 1.00899 0.97975 0.72665 0.0
H33 H 1.02244 1.00936 0.66353 0.0
N34 N 0.06716 0.03232 0.69981 0.0
N35 N 0.09675 0.05674 0.69339 0.0
C36 C 0.08218 0.04933 0.70935 0.0
C37 C 0.07255 0.02863 0.67701 0.0
C38 C 0.09066 0.04379 0.67296 0.0
C39 C 1.01799 0.05698 0.72059 0.0
O40 O 1.02261 0.05412 0.69812 0.0
H41 H 0.08229 0.05617 0.72771 0.0
H42 H 0.06431 0.01555 0.66433 0.0
O43 O 0.06511 0.99494 0.73483 0.0
H44 H 0.9873 0.97841 0.65446 0.0
H45 H 0.09908 0.04475 0.65641 0.0
Cu46 Cu 0.35262 0.01108 -0.00313 0.0
N47 N 0.37416 0.99135 0.98066 0.0
N48 N 0.38693 0.95935 0.95887 0.0
C49 C 0.36839 0.97007 0.9698 0.0
C50 C 0.40522 0.97462 0.96326 0.0
C51 C 0.39727 0.99436 0.97678 0.0
O52 O 0.33138 0.98967 0.01027 0.0
C53 C 0.32929 0.02478 0.95424 0.0
O54 O 0.33046 1.00203 0.94742 0.0
H55 H 0.35053 0.9631 0.96933 0.0
H56 H 0.4075 0.00986 0.9831 0.0
N57 N 0.3685 0.02969 0.02122 0.0
N58 N 0.37436 0.05854 0.05023 0.0
C59 C 0.36089 0.05091 0.03071 0.0
C60 C 0.38763 0.02371 0.03493 0.0
C61 C 0.39135 0.04151 0.05281 0.0
C62 C 0.32264 0.99382 0.03038 0.0
O63 O 0.32471 0.01509 0.04142 0.0
H64 H 0.34517 0.06003 0.02386 0.0
H65 H 0.39747 1.00709 0.03271 0.0
O66 O 0.33668 0.0319 0.97517 0.0
H67 H 0.42303 0.97191 0.95706 0.0
H68 H 0.40471 0.04123 0.06728 0.0
Cu69 Cu 0.04203 0.34464 0.97986 0.0
N70 N 0.06551 0.35951 0.96483 0.0
N71 N 0.09533 0.36377 0.94124 0.0
C72 C 0.07889 0.34898 0.94799 0.0
C73 C 0.09187 0.38461 0.95408 0.0
C74 C 0.07343 0.3819 0.96871 0.0
O75 O 0.05721 0.32838 0.00604 0.0
C76 C 1.00305 0.31776 0.95837 0.0
O77 O 0.99472 0.31986 0.9796 0.0
H78 H 0.07674 0.33069 0.941 0.0
H79 H 0.06662 0.39512 0.98159 0.0
N80 N 1.02079 0.36731 -0.00774 0.0
N81 N 0.99264 0.38269 0.01535 0.0
C82 C 1.01115 0.3672 0.01335 0.0
C83 C 1.00812 0.38354 0.98053 0.0
C84 C 0.99061 0.39304 -0.00525 0.0
C85 C 0.0764 0.3161 0.00409 0.0
O86 O 0.08471 0.31148 0.98304 0.0
H87 H 1.01624 0.35453 0.0261 0.0
H88 H 1.01043 0.38699 0.96236 0.0
O89 O 1.02396 0.32506 0.95558 0.0
H90 H 0.10243 0.40037 0.95354 0.0
H91 H 0.97676 0.40563 -0.01009 0.0
Cu92 Cu 0.73872 0.05591 0.0002 0.0
N93 N 0.71886 0.07818 0.98657 0.0
N94 N 0.70884 0.11198 0.97056 0.0
C95 C 0.72649 0.09916 0.98077 0.0
C96 C 0.68916 0.0985 0.97015 0.0
C97 C 0.69543 0.07756 0.98006 0.0
O98 O 0.76373 0.07457 0.01738 0.0
C99 C 0.76704 0.01896 0.97752 0.0
O100 O 0.77867 0.01828 -0.00182 0.0
H101 H 0.74481 0.10477 0.98394 0.0
H102 H 0.68389 0.06282 0.98205 0.0
N103 N 0.72197 0.04028 0.0215 0.0
N104 N 0.71506 0.01516 0.04855 0.0
C105 C 0.72767 0.01915 0.02979 0.0
C106 C 0.70486 0.04981 0.03517 0.0
C107 C 0.70057 0.03435 0.05193 0.0
C108 C 0.7735 0.06995 0.03725 0.0
O109 O 0.76989 0.04929 0.04535 0.0
H110 H 0.74223 1.00793 0.02356 0.0
H111 H 0.69719 0.06741 0.03398 0.0
O112 O 0.75002 0.03391 0.97505 0.0
H113 H 0.67172 0.10305 0.96252 0.0
H114 H 0.68858 0.03749 0.06617 0.0
Cu115 Cu 0.05859 0.72616 0.00438 0.0
N116 N 1.03752 0.70774 0.98447 0.0
N117 N 1.00839 0.70018 0.95658 0.0
C118 C 1.02393 0.71634 0.9668 0.0
C119 C 1.01268 0.68039 0.96805 0.0
C120 C 1.03066 0.68516 0.98538 0.0
O121 O 0.04051 0.74127 0.03012 0.0
C122 C 0.09436 0.75655 -0.01036 0.0
O123 O 0.10273 0.75763 0.01173 0.0
H124 H 1.02511 0.7344 0.96197 0.0
H125 H 1.03763 0.67332 -0.00178 0.0
N126 N 0.08248 0.7077 0.01826 0.0
N127 N 0.11526 0.70173 0.04127 0.0
C128 C 0.09569 0.71546 0.03769 0.0
C129 C 0.09373 0.68793 0.00942 0.0
C130 C 0.11398 0.6841 0.02375 0.0
C131 C 1.02003 0.75111 0.02727 0.0
O132 O 1.01173 0.75487 0.00581 0.0
H133 H 0.09189 0.73192 0.04804 0.0
H134 H 0.08857 0.67807 -0.00715 0.0
O135 O 0.07438 0.74662 0.9841 0.0
H136 H 1.00284 0.66405 0.96488 0.0
H137 H 0.12762 0.67059 0.02049 0.0
Cu138 Cu 0.54911 0.52158 0.77656 0.0
N139 N 0.56918 0.54342 0.79436 0.0
N140 N 0.59686 0.5716 0.80134 0.0
C141 C 0.5872 0.5548 0.78554 0.0
C142 C 0.58448 0.57065 0.82093 0.0
C143 C 0.56745 0.55328 0.81658 0.0
O144 O 0.5699 0.50009 0.75796 0.0
C145 C 0.51055 0.55099 0.77459 0.0
O146 O 0.51415 0.54802 0.7972 0.0
H147 H 0.5923 0.55158 0.76746 0.0
H148 H 0.55418 0.54885 0.8285 0.0
N149 N 0.53215 0.50176 0.79457 0.0
N150 N 0.50578 0.47431 0.80193 0.0
C151 C 0.51457 0.48722 0.78547 0.0
C152 C 0.53466 0.49799 0.81764 0.0
C153 C 0.51844 0.4811 0.82223 0.0
C154 C 0.58395 0.48855 0.77148 0.0
O155 O 0.58328 0.4934 0.79445 0.0
H156 H 0.50877 0.48581 0.76693 0.0
H157 H 0.54756 0.50661 0.83019 0.0
O158 O 0.52477 0.54051 0.76018 0.0
H159 H 0.58721 0.582 0.83711 0.0
H160 H 0.51617 0.47443 0.83926 0.0
Cu161 Cu 0.565 0.52379 0.21501 0.0
N162 N 0.54541 0.49987 0.19977 0.0
N163 N 0.51761 0.47146 0.19596 0.0
C164 C 0.52953 0.4877 0.21083 0.0
C165 C 0.52658 0.47361 0.17464 0.0
C166 C 0.5437 0.49105 0.17706 0.0
O167 O 0.54366 0.54714 0.23097 0.0
C168 C 0.60397 0.49555 0.22019 0.0
O169 O 0.60033 0.49592 0.19718 0.0
H170 H 0.52706 0.49071 0.22957 0.0
H171 H 0.5541 0.49686 0.16323 0.0
N172 N 0.58176 0.54155 0.19483 0.0
N173 N 0.60779 0.56838 0.18544 0.0
C174 C 0.60111 0.55457 0.20212 0.0
C175 C 0.5761 0.54719 0.17261 0.0
C176 C 0.59206 0.56385 0.16682 0.0
C177 C 0.52808 0.5552 0.21625 0.0
O178 O 0.52761 0.54597 0.19426 0.0
H179 H 0.60932 0.5549 0.21985 0.0
H180 H 0.56086 0.54053 0.16174 0.0
O181 O 0.58956 0.5072 0.23359 0.0
H182 H 0.52107 0.46356 0.15828 0.0
H183 H 0.59177 0.5724 0.15045 0.0
Cu184 Cu 0.78756 0.49516 0.4775 0.0
N185 N 0.77218 0.51421 0.45584 0.0
N186 N 0.76806 0.5403 0.42834 0.0
C187 C 0.78263 0.53147 0.44531 0.0
C188 C 0.74761 0.52809 0.42817 0.0
C189 C 0.75022 0.51197 0.44515 0.0
O190 O 0.7951 0.51359 0.50701 0.0
C191 C 0.83205 0.46976 0.47264 0.0
O192 O 0.83218 0.46735 0.49544 0.0
H193 H 0.80103 0.53654 0.44913 0.0
H194 H 0.73733 0.49896 0.44875 0.0
N195 N 0.76833 0.47013 0.48391 0.0
N196 N 0.75929 0.43517 0.49674 0.0
C197 C 0.77626 0.44819 0.4882 0.0
C198 C 0.74538 0.47105 0.48967 0.0
C199 C 0.73972 0.44948 0.49753 0.0
C200 C 0.81065 0.52977 0.50966 0.0
O201 O 0.82314 0.53423 0.49172 0.0
H202 H 0.79465 0.4425 0.48686 0.0
H203 H 0.73403 0.48675 0.48962 0.0
O204 O 0.81559 0.48196 0.46287 0.0
H205 H 0.73205 0.53033 0.41636 0.0
H206 H 0.72288 0.44518 0.50441 0.0
Cu207 Cu 0.55449 0.82139 0.4889 0.0
N208 N 0.57534 0.83764 0.47159 0.0
N209 N 0.60322 0.84357 0.44607 0.0
C210 C 0.58904 0.82762 0.45464 0.0
C211 C 0.59801 0.86454 0.45801 0.0
C212 C 0.58086 0.86081 0.47378 0.0
O213 O 0.57248 0.80915 0.51566 0.0
C214 C 0.51859 0.78909 0.47094 0.0
O215 O 0.51112 0.79172 0.49249 0.0
H216 H 0.58862 0.80889 0.44882 0.0
H217 H 0.57325 0.87395 0.48624 0.0
N218 N 0.53058 0.84142 0.50124 0.0
N219 N 0.49893 0.85105 0.52254 0.0
C220 C 0.51924 0.83792 0.5209 0.0
C221 C 0.51725 0.85765 0.49018 0.0
C222 C 0.49771 0.86366 0.5033 0.0
C223 C 0.59261 0.79855 0.51416 0.0
O224 O 0.60065 0.79263 0.4932 0.0
H225 H 0.52458 0.82426 0.5325 0.0
H226 H 0.52056 0.86338 0.47298 0.0
O227 O 0.53846 0.79798 0.46682 0.0
H228 H 0.60646 0.88127 0.45602 0.0
H229 H 0.48316 0.87546 0.49841 0.0
Cu230 Cu 0.23404 0.53947 0.50289 0.0
N231 N 0.21522 0.56022 0.4858 0.0
N232 N 0.20936 0.5894 0.46188 0.0
C233 C 0.22426 0.57207 0.46894 0.0
C234 C 0.18998 0.58839 0.47476 0.0
C235 C 0.1936 0.57019 0.4895 0.0
O236 O 0.25896 0.55941 0.51855 0.0
C237 C 0.22947 0.50311 0.46763 0.0
O238 O 0.20694 0.50881 0.47052 0.0
H239 H 0.24229 0.56921 0.46333 0.0
H240 H 0.18187 0.5655 0.50276 0.0
N241 N 0.21747 0.52621 0.52595 0.0
N242 N 0.21189 0.50201 0.55427 0.0
C243 C 0.22265 0.50491 0.53407 0.0
C244 C 0.20273 0.53719 0.54138 0.0
C245 C 0.19915 0.52225 0.55882 0.0
C246 C 0.26928 0.55586 0.53848 0.0
O247 O 0.26624 0.53559 0.54761 0.0
H248 H 0.2359 0.4928 0.52652 0.0
H249 H 0.19655 0.55541 0.54106 0.0
O250 O 0.24545 0.51435 0.48064 0.0
H251 H 0.17478 0.60048 0.47422 0.0
H252 H 0.18901 0.52653 0.57428 0.0
Cu253 Cu 0.57423 0.22957 0.518 0.0
N254 N 0.60084 0.24609 0.51069 0.0
N255 N 0.63291 0.25496 0.49187 0.0
C256 C 0.61506 0.23953 0.49296 0.0
C257 C 0.62951 0.27221 0.50927 0.0
C258 C 0.60965 0.26667 0.5209 0.0
O259 O 0.58072 0.19552 0.51474 0.0
C260 C 0.54716 0.22631 0.4749 0.0
O261 O 0.56332 0.20989 0.46954 0.0
H262 H 0.61243 0.22361 0.48121 0.0
H263 H 0.60218 0.27691 0.53571 0.0
N264 N 0.56543 0.23782 0.54878 0.0
N265 N 0.54342 0.23987 0.58045 0.0
C266 C 0.5436 0.23513 0.55679 0.0
C267 C 0.57956 0.24455 0.56799 0.0
C268 C 0.56604 0.24579 0.5876 0.0
C269 C 0.59485 0.18357 0.52776 0.0
O270 O 0.59536 0.16032 0.52406 0.0
H271 H 0.52842 0.22879 0.54559 0.0
H272 H 0.59854 0.24753 0.56789 0.0
O273 O 0.54826 0.23706 0.49551 0.0
H274 H 0.64078 0.28749 0.51352 0.0
H275 H 0.5724 0.25042 0.60569 0.0
Tb276 Tb 0.32525 0.28025 0.26929 0.0
C277 C 0.31766 0.25161 0.2201 0.0
Tb278 Tb 0.28269 0.29458 0.23469 0.0
O279 O 0.30583 0.25463 0.28831 0.0
O280 O 0.28926 0.27185 0.26165 0.0
O281 O 0.33373 0.25938 0.23687 0.0
C282 C 0.2467 0.29611 0.20173 0.0
O283 O 0.29565 0.2607 0.21832 0.0
C284 C 0.32086 0.32157 0.23708 0.0
C285 C 0.28836 0.32116 0.28525 0.0
O286 O 0.26929 0.29668 0.19809 0.0
O287 O 0.24416 0.29482 0.22424 0.0
O288 O 0.29928 0.32887 0.23177 0.0
O289 O 0.32056 0.29941 0.23857 0.0
O290 O 0.27279 0.31423 0.26755 0.0
O291 O 0.3105 0.31239 0.28721 0.0
C292 C 0.36682 0.2773 0.29441 0.0
O293 O 0.35383 0.2965 0.29291 0.0
O294 O 0.35661 0.26001 0.28138 0.0
C295 C 0.28583 0.25673 0.27601 0.0
Tb296 Tb 0.80711 0.26863 0.26508 0.0
C297 C 0.85696 0.24517 0.25033 0.0
Tb298 Tb 0.8374 0.2937 0.23299 0.0
O299 O 0.78257 0.25666 0.23538 0.0
O300 O 0.81821 0.26175 0.23005 0.0
O301 O 0.83986 0.24629 0.26579 0.0
C302 C 0.85594 0.314 0.19756 0.0
O303 O 0.85747 0.26029 0.23363 0.0
C304 C 0.84639 0.30413 0.27847 0.0
C305 C 0.78688 0.31639 0.24654 0.0
O306 O 0.86557 0.31348 0.21876 0.0
O307 O 0.83578 0.30293 0.19613 0.0
O308 O 0.8623 0.30445 0.26284 0.0
O309 O 0.82636 0.30045 0.2679 0.0
O310 O 0.80435 0.31544 0.23157 0.0
O311 O 0.78618 0.30141 0.26328 0.0
C312 C 0.78889 0.25205 0.3028 0.0
O313 O 0.77945 0.24984 0.28138 0.0
O314 O 0.80893 0.26317 0.3029 0.0
C315 C 0.79834 0.2571 0.21955 0.0
Tb316 Tb 0.80215 0.79815 0.22566 0.0
C317 C 0.78066 0.7923 0.2738 0.0
Tb318 Tb 0.82158 0.75786 0.25252 0.0
O319 O 0.76712 0.78193 0.22055 0.0
O320 O 0.79765 0.76047 0.22258 0.0
O321 O 0.78479 0.80784 0.25832 0.0
C322 C 0.82498 0.71847 0.27574 0.0
O323 O 0.79122 0.771 0.27302 0.0
C324 C 0.84869 0.79548 0.25756 0.0
C325 C 0.84543 0.7668 0.20585 0.0
O326 O 0.83185 0.73943 0.28415 0.0
O327 O 0.81673 0.71963 0.2541 0.0
O328 O 0.85653 0.77386 0.2594 0.0
O329 O 0.82607 0.79548 0.25571 0.0
O330 O 0.84157 0.75044 0.22069 0.0
O331 O 0.8341 0.78766 0.20695 0.0
C332 C 0.79325 0.83467 0.19933 0.0
O333 O 0.79351 0.81246 0.19165 0.0
O334 O 0.79817 0.83649 0.222 0.0
C335 C 0.77508 0.76036 0.22154 0.0
Tb336 Tb 0.32927 0.79253 0.23052 0.0
C337 C 0.35457 0.7462 0.24515 0.0
Tb338 Tb 0.31069 0.76979 0.27232 0.0
O339 O 0.364 0.79908 0.24895 0.0
O340 O 0.33331 0.79833 0.26797 0.0
O341 O 0.34915 0.75896 0.22683 0.0
C342 C 0.30336 0.74739 0.31073 0.0
O343 O 0.34394 0.74997 0.26549 0.0
C344 C 0.2845 0.76245 0.23283 0.0
C345 C 0.28617 0.81676 0.25848 0.0
O346 O 0.30647 0.73734 0.28981 0.0
O347 O 0.30454 0.77028 0.31024 0.0
O348 O 0.27624 0.76291 0.25366 0.0
O349 O 0.30694 0.76351 0.23482 0.0
O350 O 0.29143 0.80366 0.27646 0.0
O351 O 0.2968 0.81318 0.23822 0.0
C352 C 0.33282 0.81602 0.19195 0.0
O353 O 0.33804 0.82419 0.21355 0.0
O354 O 0.3262 0.79406 0.19184 0.0
C355 C 0.35582 0.79937 0.2699 0.0
Tb356 Tb 0.28397 0.75927 0.76564 0.0
C357 C 0.33144 0.73403 0.74991 0.0
Tb358 Tb 0.31073 0.77895 0.726 0.0
O359 O 0.27785 0.72571 0.74476 0.0
O360 O 0.28093 0.75691 0.72795 0.0
O361 O 0.31804 0.73961 0.76828 0.0
C362 C 0.32853 0.79399 0.68726 0.0
O363 O 0.32886 0.74497 0.73007 0.0
C364 C 0.32848 0.7901 0.76925 0.0
C365 C 0.26263 0.80457 0.74124 0.0
O366 O 0.32168 0.77245 0.68946 0.0
O367 O 0.32478 0.80701 0.70664 0.0
O368 O 0.34104 0.78773 0.75076 0.0
O369 O 0.30675 0.78823 0.76267 0.0
O370 O 0.27917 0.80244 0.72529 0.0
O371 O 0.26202 0.7904 0.75868 0.0
C372 C 0.25852 0.75398 0.8033 0.0
O373 O 0.25084 0.75085 0.78133 0.0
O374 O 0.28101 0.75956 0.8042 0.0
C375 C 0.27931 0.73459 0.72456 0.0
Tb376 Tb 0.29573 0.28315 0.72945 0.0
C377 C 0.27007 0.28266 0.77725 0.0
Tb378 Tb 0.31145 0.24422 0.76659 0.0
O379 O 0.26631 0.26191 0.71112 0.0
O380 O 0.28659 0.2494 0.73838 0.0
O381 O 0.27605 0.29562 0.76004 0.0
C382 C 0.31177 0.20698 0.79249 0.0
O383 O 0.27918 0.26112 0.78049 0.0
C384 C 0.33756 0.28334 0.77216 0.0
C385 C 0.34002 0.2475 0.72065 0.0
O386 O 0.31233 0.22912 0.80066 0.0
O387 O 0.31123 0.20563 0.76945 0.0
O388 O 0.34106 0.26525 0.78479 0.0
O389 O 0.32012 0.27815 0.75801 0.0
O390 O 0.3345 0.23386 0.73761 0.0
O391 O 0.32918 0.26813 0.71666 0.0
C392 C 0.29139 0.32101 0.70447 0.0
O393 O 0.2965 0.29955 0.69606 0.0
O394 O 0.28911 0.32127 0.72714 0.0
C395 C 0.26938 0.24406 0.72405 0.0
Tb396 Tb 0.80891 0.2806 0.71925 0.0
C397 C 0.82833 0.23127 0.73723 0.0
Tb398 Tb 0.78596 0.26077 0.75981 0.0
O399 O 0.82969 0.30622 0.74287 0.0
O400 O 0.81983 0.27428 0.75458 0.0
O401 O 0.8267 0.24543 0.71954 0.0
C402 C 0.76793 0.25152 0.80042 0.0
O403 O 0.81609 0.2358 0.75653 0.0
C404 C 0.76686 0.24705 0.71762 0.0
C405 C 0.7677 0.3108 0.74322 0.0
O406 O 0.76442 0.23929 0.7803 0.0
O407 O 0.78205 0.26898 0.79792 0.0
O408 O 0.76774 0.2342 0.7355 0.0
O409 O 0.77484 0.26726 0.72453 0.0
O410 O 0.76918 0.2963 0.76053 0.0
O411 O 0.77981 0.3065 0.72389 0.0
C412 C 0.81919 0.28802 0.67514 0.0
O413 O 0.82551 0.3015 0.69398 0.0
O414 O 0.80777 0.26998 0.68131 0.0
C415 C 0.829 0.294 0.76123 0.0
Tb416 Tb 0.80285 0.74818 0.72835 0.0
C417 C 0.82955 0.75697 0.7779 0.0
Tb418 Tb 0.78805 0.79257 0.76186 0.0
O419 O 0.83021 0.76603 0.70953 0.0
O420 O 0.81175 0.7838 0.73552 0.0
O421 O 0.82222 0.74062 0.76108 0.0
C422 C 0.78737 0.83068 0.79289 0.0
O423 O 0.82093 0.77915 0.77926 0.0
C424 C 0.75992 0.75553 0.76023 0.0
C425 C 0.7638 0.78522 0.71054 0.0
O426 O 0.78676 0.80874 0.79795 0.0
O427 O 0.7881 0.83135 0.7701 0.0
O428 O 0.75311 0.77733 0.76556 0.0
O429 O 0.78229 0.75511 0.75867 0.0
O430 O 0.76923 0.80103 0.72869 0.0
O431 O 0.77269 0.76323 0.7087 0.0
C432 C 0.80346 0.70561 0.70452 0.0
O433 O 0.78463 0.7191 0.7073 0.0
O434 O 0.8219 0.71598 0.71541 0.0
C435 C 0.82769 0.78646 0.72146 0.0
C436 C 0.13835 0.11211 0.32047 0.0
C437 C 0.12203 0.10356 0.30219 0.0
C438 C 0.1549 0.12947 0.3167 0.0
C439 C 0.16762 0.17718 0.27844 0.0
H440 H 0.23282 0.16767 0.3025 0.0
C441 C 0.24648 0.23888 0.26021 0.0
C442 C 0.26434 0.24247 0.27844 0.0
C443 C 0.22797 0.22278 0.26222 0.0
C444 C 0.21465 0.1709 0.29594 0.0
H445 H 0.10999 0.10723 0.26573 0.0
H446 H 0.13887 0.13759 0.25916 0.0
H447 H 0.20296 0.13835 0.30794 0.0
H448 H 0.27617 0.23313 0.31345 0.0
H449 H 0.24384 0.2061 0.31736 0.0
H450 H 0.17935 0.21001 0.26673 0.0
C451 C 0.13886 0.13077 0.27642 0.0
C452 C 0.1975 0.15396 0.29903 0.0
C453 C 0.12246 0.11318 0.28012 0.0
C454 C 0.26279 0.23055 0.299 0.0
C455 C 0.24431 0.21481 0.30112 0.0
C456 C 0.18482 0.19433 0.27551 0.0
C457 C 0.15546 0.13897 0.2946 0.0
C458 C 0.17371 0.15693 0.29054 0.0
C459 C 0.22695 0.21013 0.28256 0.0
C460 C 0.20855 0.19157 0.2845 0.0
H461 H 0.13867 0.10503 0.33761 0.0
H462 H 0.16725 0.13554 0.33117 0.0
H463 H 0.14943 0.18007 0.27175 0.0
H464 H 0.24735 0.24774 0.2441 0.0
H465 H 0.21499 0.21964 0.24751 0.0
C466 C 1.01064 0.08502 0.24347 0.0
C467 C 1.00634 0.07033 0.26148 0.0
C468 C 0.9936 0.10234 0.23722 0.0
C469 C 0.93023 0.12204 0.24499 0.0
H470 H 0.95513 0.18545 0.24388 0.0
C471 C 0.87212 0.20611 0.26408 0.0
C472 C 0.87445 0.22506 0.24985 0.0
C473 C 0.8879 0.18659 0.26251 0.0
C474 C 0.94786 0.16782 0.24384 0.0
H475 H 0.98043 0.06099 0.28589 0.0
H476 H 0.95095 0.09067 0.27502 0.0
H477 H 0.98264 0.15142 0.24407 0.0
H478 H 0.89555 0.23841 0.22307 0.0
H479 H 0.92302 0.20447 0.22046 0.0
H480 H 0.89552 0.13851 0.24549 0.0
C481 C 0.96723 0.0891 0.2656 0.0
C482 C 0.96364 0.14828 0.24381 0.0
C483 C 0.98422 0.07212 0.27194 0.0
C484 C 0.89318 0.22416 0.23432 0.0
C485 C 0.90903 0.20473 0.23286 0.0
C486 C 0.91449 0.14156 0.24512 0.0
C487 C 0.97193 0.10494 0.24868 0.0
C488 C 0.95506 0.12519 0.24492 0.0
C489 C 0.90647 0.1856 0.24678 0.0
C490 C 0.92314 0.16474 0.24504 0.0
H491 H 1.02764 0.08412 0.23527 0.0
H492 H 0.99767 0.11413 0.22395 0.0
H493 H 0.92296 0.10448 0.24544 0.0
H494 H 0.85792 0.20618 0.27623 0.0
H495 H 0.88565 0.17231 0.27376 0.0
C496 C 0.98028 0.97023 0.28652 0.0
C497 C 1.0002 0.96606 0.30185 0.0
C498 C 0.96216 0.95338 0.28228 0.0
C499 C 0.93925 0.89815 0.30555 0.0
H500 H 0.90609 0.88999 0.24374 0.0
C501 C 0.88747 0.8137 0.27208 0.0
C502 C 0.86396 0.81664 0.2627 0.0
C503 C 0.90232 0.83323 0.27728 0.0
C504 C 0.91504 0.89226 0.26116 0.0
H505 H 1.01695 0.94068 0.32431 0.0
H506 H 0.9861 0.91099 0.31636 0.0
H507 H 0.93574 0.92114 0.25181 0.0
H508 H 0.83772 0.8424 0.25107 0.0
H509 H 0.86414 0.87674 0.25948 0.0
H510 H 0.91927 0.86843 0.31437 0.0
C511 C 0.98379 0.92759 0.3082 0.0
C512 C 0.93202 0.9102 0.26589 0.0
C513 C 1.00165 0.9446 0.31273 0.0
C514 C 0.85572 0.83961 0.25831 0.0
C515 C 0.87084 0.85921 0.26307 0.0
C516 C 0.92262 0.88 0.30066 0.0
C517 C 0.96366 0.93169 0.29296 0.0
C518 C 0.94462 0.91329 0.28811 0.0
C519 C 0.89424 0.8562 0.27281 0.0
C520 C 0.91048 0.8767 0.27836 0.0
H521 H 0.97855 0.98671 0.27806 0.0
H522 H 0.94687 0.95754 0.27079 0.0
H523 H 0.9479 0.90022 0.32309 0.0
H524 H 0.89441 0.79624 0.27562 0.0
H525 H 0.92031 0.83032 0.28455 0.0
C526 C 0.13332 0.97023 0.29756 0.0
C527 C 0.12161 0.98082 0.27846 0.0
C528 C 0.151 0.95288 0.29392 0.0
C529 C 0.17593 0.90934 0.24922 0.0
H530 H 0.22943 0.90971 0.29564 0.0
C531 C 0.25858 0.84629 0.23992 0.0
C532 C 0.26727 0.83556 0.26029 0.0
C533 C 0.2408 0.86398 0.24122 0.0
C534 C 0.21451 0.90921 0.28265 0.0
H535 H 0.11922 0.98107 0.24031 0.0
H536 H 0.15077 0.95072 0.23383 0.0
H537 H 0.19918 0.94111 0.29853 0.0
H538 H 0.26384 0.83508 0.29804 0.0
H539 H 0.23288 0.86622 0.30036 0.0
H540 H 0.19167 0.87746 0.23322 0.0
C541 C 0.14592 0.95586 0.25173 0.0
C542 C 0.19711 0.92723 0.28428 0.0
C543 C 0.12792 0.9733 0.2554 0.0
C544 C 0.25763 0.84298 0.28202 0.0
C545 C 0.23997 0.86089 0.28336 0.0
C546 C 0.19352 0.89136 0.24748 0.0
C547 C 0.15785 0.94561 0.27104 0.0
C548 C 0.17733 0.92736 0.26784 0.0
C549 C 0.23135 0.87161 0.26296 0.0
C550 C 0.21285 0.89092 0.26438 0.0
H551 H 0.12877 0.97522 0.31559 0.0
H552 H 0.15917 0.945 0.3092 0.0
H553 H 0.1609 0.9087 0.23637 0.0
H554 H 0.26547 0.84101 0.22281 0.0
H555 H 0.23475 0.872 0.22522 0.0
C556 C 0.10868 0.96549 0.74657 0.0
C557 C 0.09032 0.95965 0.72933 0.0
C558 C 0.128 0.94963 0.74996 0.0
C559 C 0.15933 0.90062 0.71639 0.0
H560 H 0.18987 0.88744 0.77685 0.0
C561 C 0.2438 0.84024 0.723 0.0
C562 C 0.24416 0.8238 0.7403 0.0
C563 C 0.22637 0.85839 0.72266 0.0
C564 C 0.1815 0.8909 0.75981 0.0
H565 H 0.07678 0.93206 0.70354 0.0
H566 H 0.10979 0.90445 0.70983 0.0
H567 H 0.15603 0.9154 0.77549 0.0
H568 H 0.22633 0.8138 0.77092 0.0
H569 H 0.19605 0.84498 0.77004 0.0
H570 H 0.18419 0.87575 0.70067 0.0
C571 C 0.10987 0.92142 0.72021 0.0
C572 C 0.16224 0.90709 0.75905 0.0
C573 C 0.09081 0.93718 0.71677 0.0
C574 C 0.22674 0.82608 0.75728 0.0
C575 C 0.20941 0.84417 0.75695 0.0
C576 C 0.17854 0.88452 0.71714 0.0
C577 C 0.12915 0.92774 0.73618 0.0
C578 C 0.15064 0.91181 0.73733 0.0
C579 C 0.20893 0.86056 0.73964 0.0
C580 C 0.18968 0.87916 0.73886 0.0
H581 H 0.10884 0.98277 0.75635 0.0
H582 H 0.14255 0.95499 0.76247 0.0
H583 H 0.15112 0.90418 0.6993 0.0
H584 H 0.25699 0.83914 0.70973 0.0
H585 H 0.22667 0.87084 0.70917 0.0
C586 C 0.12701 0.07882 0.71977 0.0
C587 C 0.11504 0.07456 0.69741 0.0
C588 C 0.14456 0.09627 0.72369 0.0
C589 C 0.16378 0.15156 0.70075 0.0
H590 H 0.22432 0.14007 0.73465 0.0
C591 C 0.23972 0.21795 0.70136 0.0
C592 C 0.25425 0.22272 0.72206 0.0
C593 C 0.22373 0.19919 0.69932 0.0
C594 C 0.20739 0.14372 0.72543 0.0
H595 H 0.11223 0.08547 0.66169 0.0
H596 H 0.14269 0.11592 0.6685 0.0
H597 H 0.19442 0.1088 0.72935 0.0
H598 H 0.26361 0.21144 0.7569 0.0
H599 H 0.2352 0.17858 0.75359 0.0
H600 H 0.17627 0.18645 0.69709 0.0
C601 C 0.13849 0.10576 0.68304 0.0
C602 C 0.19027 0.12574 0.72234 0.0
C603 C 0.12116 0.08815 0.67906 0.0
C604 C 0.2528 0.20796 0.74063 0.0
C605 C 0.2365 0.18917 0.73869 0.0
C606 C 0.18072 0.16953 0.704 0.0
C607 C 0.15037 0.11012 0.70542 0.0
C608 C 0.16837 0.12935 0.70966 0.0
C609 C 0.22144 0.18479 0.71809 0.0
C610 C 0.20297 0.16579 0.71604 0.0
H611 H 0.12296 0.06851 0.73423 0.0
H612 H 0.15327 0.09924 0.74116 0.0
H613 H 0.14691 0.15515 0.69136 0.0
H614 H 0.24057 0.22891 0.68666 0.0
H615 H 0.21304 0.19606 0.68292 0.0
C616 C 0.99732 0.09523 0.71376 0.0
C617 C 1.00097 0.0762 0.72808 0.0
C618 C 0.97858 0.11142 0.71733 0.0
C619 C 0.93475 0.13671 0.75803 0.0
H620 H 0.89815 0.14725 0.69972 0.0
C621 C 0.84918 0.19678 0.75547 0.0
C622 C 0.84641 0.21163 0.73675 0.0
C623 C 0.86713 0.17918 0.75566 0.0
C624 C 0.90826 0.14477 0.71615 0.0
H625 H 0.98865 0.06013 0.75842 0.0
H626 H 0.95557 0.08892 0.76486 0.0
H627 H 0.93175 0.11941 0.69908 0.0
H628 H 0.86042 0.21941 0.70348 0.0
H629 H 0.89175 0.18908 0.70394 0.0
H630 H 0.91149 0.16257 0.77501 0.0
C631 C 0.96737 0.09105 0.75077 0.0
C632 C 0.9275 0.12871 0.7158 0.0
C633 C 0.98631 0.07465 0.74715 0.0
C634 C 0.86187 0.20824 0.71811 0.0
C635 C 0.87983 0.19071 0.71834 0.0
C636 C 0.91549 0.15299 0.75838 0.0
C637 C 0.96287 0.1091 0.73531 0.0
C638 C 0.94126 0.1248 0.73661 0.0
C639 C 0.88278 0.17596 0.73714 0.0
C640 C 0.90225 0.15752 0.73734 0.0
H641 H 1.0085 0.09717 0.69913 0.0
H642 H 0.97598 0.12547 0.70551 0.0
H643 H 0.94505 0.13408 0.77434 0.0
H644 H 0.83759 0.19884 0.77013 0.0
H645 H 0.86865 0.16799 0.77028 0.0
C646 C 0.96704 0.9388 0.67674 0.0
C647 C 0.97428 0.9557 0.69516 0.0
C648 C 0.94988 0.92188 0.68013 0.0
C649 C 0.91969 0.89352 0.72747 0.0
H650 H 0.87632 0.87161 0.67502 0.0
C651 C 0.8429 0.82697 0.73641 0.0
C652 C 0.84174 0.80793 0.71887 0.0
C653 C 0.85765 0.8464 0.73412 0.0
C654 C 0.88834 0.87749 0.68984 0.0
H655 H 0.96866 0.96833 0.73148 0.0
H656 H 0.93844 0.93927 0.7373 0.0
H657 H 0.9046 0.90271 0.66994 0.0
H658 H 0.85472 0.79439 0.68512 0.0
H659 H 0.87996 0.82826 0.68091 0.0
H660 H 0.90308 0.86831 0.74737 0.0
C661 C 0.94643 0.93859 0.72036 0.0
C662 C 0.90472 0.89527 0.68691 0.0
C663 C 0.96377 0.95536 0.71702 0.0
C664 C 0.85519 0.80886 0.69888 0.0
C665 C 0.86958 0.82833 0.69642 0.0
C666 C 0.9031 0.87589 0.73047 0.0
C667 C 0.93923 0.92153 0.70198 0.0
C668 C 0.92092 0.90334 0.70556 0.0
C669 C 0.87119 0.84727 0.71407 0.0
C670 C 0.88746 0.86741 0.71158 0.0
H671 H 0.97499 0.93832 0.6598 0.0
H672 H 0.9453 0.9088 0.66566 0.0
H673 H 0.93199 0.89894 0.7422 0.0
H674 H 0.83289 0.82658 0.75211 0.0
H675 H 0.85842 0.86075 0.74799 0.0
C676 C 0.38801 0.0886 0.08218 0.0
C677 C 0.36974 0.07892 0.06652 0.0
C678 C 0.38319 0.10757 0.09875 0.0
C679 C 0.33303 0.13697 0.12988 0.0
H680 H 0.3773 0.18869 0.1443 0.0
C681 C 0.30741 0.22256 0.18542 0.0
C682 C 0.32442 0.23205 0.20259 0.0
C683 C 0.31358 0.20398 0.16903 0.0
C684 C 0.36488 0.17424 0.14064 0.0
H685 H 0.33201 0.08193 0.05611 0.0
H686 H 0.32386 0.11521 0.08436 0.0
H687 H 0.38698 0.1563 0.11505 0.0
H688 H 0.36137 0.22945 0.2158 0.0
H689 H 0.37209 0.19693 0.18717 0.0
H690 H 0.31087 0.15493 0.15531 0.0
C691 C 0.34185 0.10792 0.08411 0.0
C692 C 0.37043 0.15567 0.12389 0.0
C693 C 0.34664 0.08898 0.06761 0.0
C694 C 0.34781 0.22259 0.20284 0.0
C695 C 0.35401 0.20403 0.18635 0.0
C696 C 0.32747 0.15553 0.14653 0.0
C697 C 0.35999 0.11731 0.10006 0.0
C698 C 0.35448 0.13688 0.1182 0.0
C699 C 0.33692 0.19444 0.16933 0.0
C700 C 0.34325 0.17446 0.15201 0.0
H701 H 0.40604 0.0815 0.0817 0.0
H702 H 0.39756 0.11427 0.11087 0.0
H703 H 0.32057 0.12254 0.12632 0.0
H704 H 0.28924 0.22942 0.18462 0.0
H705 H 0.30008 0.19722 0.15595 0.0
C706 C 0.98414 0.38167 0.0572 0.0
C707 C 0.97596 0.38388 0.03368 0.0
C708 C 0.96796 0.37952 0.07464 0.0
C709 C 0.91002 0.35517 0.08137 0.0
H710 H 0.91715 0.3856 0.14499 0.0
C711 C 0.85392 0.32726 0.15654 0.0
C712 C 0.8665 0.32548 0.17838 0.0
C713 C 0.86433 0.33812 0.13846 0.0
C714 C 0.915 0.37683 0.12734 0.0
H715 H 0.94453 0.38627 0.00998 0.0
H716 H 0.9161 0.38217 0.04052 0.0
H717 H 0.941 0.39887 0.11411 0.0
H718 H 0.89964 0.33357 0.19863 0.0
H719 H 0.91807 0.35177 0.16706 0.0
H720 H 0.88505 0.33224 0.09473 0.0
C721 C 0.93505 0.3823 0.04543 0.0
C722 C 0.92856 0.38455 0.10967 0.0
C723 C 0.95126 0.38483 0.02804 0.0
C724 C 0.88952 0.3348 0.18195 0.0
C725 C 0.89998 0.34545 0.1639 0.0
C726 C 0.89665 0.34724 0.09911 0.0
C727 C 0.94329 0.37919 0.06879 0.0
C728 C 0.92657 0.37345 0.08665 0.0
C729 C 0.88756 0.34725 0.1419 0.0
C730 C 0.89942 0.35759 0.12245 0.0
H731 H 1.0031 0.38096 0.06192 0.0
H732 H 0.9748 0.37694 0.09247 0.0
H733 H 0.90834 0.34613 0.06381 0.0
H734 H 0.83606 0.32029 0.15344 0.0
H735 H 0.85416 0.33941 0.12182 0.0
C736 C 0.71821 1.00129 0.08872 0.0
C737 C 0.71972 0.99661 0.06417 0.0
C738 C 0.72509 0.98397 0.10406 0.0
C739 C 0.73495 0.9198 0.10691 0.0
H740 H 0.77882 0.93808 0.16024 0.0
C741 C 0.78371 0.84974 0.16002 0.0
C742 C 0.78641 0.85424 0.18465 0.0
C743 C 0.77553 0.8676 0.14591 0.0
C744 C 0.76631 0.93273 0.14565 0.0
H745 H 0.72874 0.96996 0.03638 0.0
H746 H 0.74058 0.93956 0.06316 0.0
H747 H 0.7632 0.9681 0.13467 0.0
H748 H 0.78318 0.8809 0.21396 0.0
H749 H 0.76833 0.91217 0.18933 0.0
H750 H 0.73776 0.88454 0.11788 0.0
C751 C 0.73414 0.95664 0.07053 0.0
C752 C 0.75739 0.94993 0.13099 0.0
C753 C 0.72751 0.97404 0.05523 0.0
C754 C 0.78131 0.87706 0.19496 0.0
C755 C 0.77289 0.89494 0.18084 0.0
C756 C 0.74368 0.90266 0.12165 0.0
C757 C 0.73334 0.96156 0.09512 0.0
C758 C 0.74181 0.94357 0.11135 0.0
C759 C 0.76961 0.89031 0.15615 0.0
C760 C 0.7597 0.90884 0.14104 0.0
H761 H 0.71256 0.01861 0.09615 0.0
H762 H 0.72411 0.98816 0.12293 0.0
H763 H 0.7227 0.91447 0.09207 0.0
H764 H 0.78771 0.8323 0.15162 0.0
H765 H 0.7738 0.86354 0.12694 0.0
C766 C 0.14862 0.69002 0.06853 0.0
C767 C 0.13531 0.70769 0.05746 0.0
C768 C 0.16724 0.69627 0.08527 0.0
C769 C 0.18664 0.74737 0.12605 0.0
H770 H 0.24493 0.71031 0.13484 0.0
C771 C 0.24479 0.75775 0.21186 0.0
C772 C 0.26971 0.75753 0.21078 0.0
C773 C 0.23018 0.75232 0.19159 0.0
C774 C 0.22886 0.72099 0.1324 0.0
H775 H 0.13221 0.74552 0.05375 0.0
H776 H 0.16465 0.75639 0.08244 0.0
H777 H 0.21652 0.69912 0.10162 0.0
H778 H 0.29904 0.75155 0.1877 0.0
H779 H 0.27326 0.74213 0.15182 0.0
H780 H 0.19885 0.7693 0.15658 0.0
C781 C 0.16031 0.73778 0.07899 0.0
C782 C 0.21247 0.71441 0.11357 0.0
C783 C 0.14167 0.73157 0.06254 0.0
C784 C 0.27984 0.75193 0.18893 0.0
C785 C 0.26512 0.74638 0.16851 0.0
C786 C 0.20295 0.75392 0.14475 0.0
C787 C 0.17298 0.7203 0.091 0.0
C788 C 0.19106 0.72745 0.11031 0.0
C789 C 0.2401 0.74655 0.16967 0.0
C790 C 0.22407 0.74063 0.14839 0.0
H791 H 0.14409 0.67149 0.06481 0.0
H792 H 0.17656 0.68236 0.09429 0.0
H793 H 0.17023 0.75767 0.12432 0.0
H794 H 0.23649 0.76197 0.22848 0.0
H795 H 0.21103 0.75224 0.19321 0.0
C796 C 0.36735 0.92144 0.94496 0.0
C797 C 0.38617 0.93738 0.9439 0.0
C798 C 0.36467 0.90181 0.92852 0.0
C799 C 0.3817 0.88154 0.86815 0.0
H800 H 0.34909 0.82442 0.88093 0.0
C801 C 0.32224 0.80769 0.8104 0.0
C802 C 0.33766 0.80111 0.7923 0.0
C803 C 0.33081 0.82069 0.83108 0.0
C804 C 0.35825 0.84028 0.87718 0.0
H805 H 0.41803 0.94381 0.92556 0.0
H806 H 0.41403 0.90899 0.89765 0.0
H807 H 0.36094 0.8534 0.9136 0.0
H808 H 0.37427 0.80177 0.782 0.0
H809 H 0.38909 0.82479 0.81788 0.0
H810 H 0.37913 0.86825 0.83177 0.0
C811 C 0.40073 0.91225 0.91067 0.0
C812 C 0.36496 0.85696 0.89583 0.0
C813 C 0.40322 0.93214 0.92693 0.0
C814 C 0.36195 0.80677 0.79562 0.0
C815 C 0.37044 0.81997 0.8161 0.0
C816 C 0.37536 0.8647 0.84963 0.0
C817 C 0.381 0.89723 0.91077 0.0
C818 C 0.37635 0.87807 0.8915 0.0
C819 C 0.35486 0.82749 0.83378 0.0
C820 C 0.36322 0.84413 0.8539 0.0
H821 H 0.35421 0.92435 0.95812 0.0
H822 H 0.34915 0.89085 0.9292 0.0
H823 H 0.38995 0.89772 0.86393 0.0
H824 H 0.30343 0.80357 0.80823 0.0
H825 H 0.31842 0.82641 0.84442 0.0
C826 C 0.12324 0.33447 0.92294 0.0
C827 C 0.11381 0.35772 0.92512 0.0
C828 C 0.14109 0.32836 0.90735 0.0
C829 C 0.16656 0.34497 0.85335 0.0
H830 H 0.2197 0.30512 0.87357 0.0
C831 C 0.24399 0.31626 0.79316 0.0
C832 C 0.25231 0.29265 0.79383 0.0
C833 C 0.22776 0.32577 0.80933 0.0
C834 C 0.20487 0.31605 0.86756 0.0
H835 H 0.11566 0.39282 0.91266 0.0
H836 H 0.14701 0.38208 0.88515 0.0
H837 H 0.19039 0.31918 0.90171 0.0
H838 H 0.24964 0.26041 0.81181 0.0
H839 H 0.22115 0.27684 0.8396 0.0
H840 H 0.18078 0.3414 0.81902 0.0
C841 C 0.14047 0.36862 0.89557 0.0
C842 C 0.18812 0.32417 0.88371 0.0
C843 C 0.1227 0.3748 0.91139 0.0
C844 C 0.24379 0.27871 0.81085 0.0
C845 C 0.22755 0.28819 0.82693 0.0
C846 C 0.18329 0.33674 0.83711 0.0
C847 C 0.14988 0.34533 0.89346 0.0
C848 C 0.1686 0.33841 0.8767 0.0
C849 C 0.21946 0.31188 0.8265 0.0
C850 C 0.20243 0.32188 0.84395 0.0
H851 H 0.11703 0.32099 0.93351 0.0
H852 H 0.1478 0.31021 0.90594 0.0
H853 H 0.15158 0.35576 0.84741 0.0
H854 H 0.25023 0.32754 0.78034 0.0
H855 H 0.22204 0.34414 0.80864 0.0
C856 C 0.73369 0.14051 0.9528 0.0
C857 C 0.7114 0.13424 0.9603 0.0
C858 C 0.73619 0.16124 0.94162 0.0
C859 C 0.70167 0.20005 0.90423 0.0
H860 H 0.76286 0.23115 0.90612 0.0
C861 C 0.76225 0.25958 0.84381 0.0
C862 C 0.75709 0.24617 0.82229 0.0
C863 C 0.75243 0.25338 0.86454 0.0
C864 C 0.74541 0.22321 0.90563 0.0
H865 H 0.67438 0.14548 0.96277 0.0
H866 H 0.67871 0.18189 0.9429 0.0
H867 H 0.75362 0.20725 0.938 0.0
H868 H 0.73718 0.21642 0.80522 0.0
H869 H 0.7206 0.20531 0.84109 0.0
H870 H 0.69366 0.21562 0.87161 0.0
C871 C 0.69423 0.17053 0.94565 0.0
C872 C 0.74022 0.20925 0.92379 0.0
C873 C 0.69172 0.14965 0.95692 0.0
C874 C 0.74149 0.22703 0.82161 0.0
C875 C 0.73172 0.22086 0.84218 0.0
C876 C 0.70675 0.21423 0.88621 0.0
C877 C 0.71646 0.17637 0.93758 0.0
C878 C 0.71892 0.19635 0.92251 0.0
C879 C 0.73727 0.23374 0.86396 0.0
C880 C 0.72925 0.22475 0.88599 0.0
H881 H 0.74916 0.12894 0.95462 0.0
H882 H 0.75343 0.16475 0.93508 0.0
H883 H 0.68503 0.1905 0.90272 0.0
H884 H 0.77414 0.27454 0.84469 0.0
H885 H 0.75698 0.2637 0.88104 0.0
C886 C 0.97976 0.72717 0.93721 0.0
C887 C 0.98971 0.70428 0.93881 0.0
C888 C 0.96179 0.73141 0.92002 0.0
C889 C 0.93599 0.70828 0.86202 0.0
H890 H 0.88298 0.7503 0.87875 0.0
C891 C 0.85656 0.72657 0.79593 0.0
C892 C 0.84776 0.75008 0.79614 0.0
C893 C 0.87343 0.71996 0.81335 0.0
C894 C 0.89779 0.73873 0.87371 0.0
H895 H 0.98848 0.66786 0.9236 0.0
H896 H 0.95683 0.67526 0.89344 0.0
H897 H 0.91286 0.74016 0.90922 0.0
H898 H 0.85009 0.78515 0.81478 0.0
H899 H 0.87969 0.77369 0.84491 0.0
H900 H 0.92104 0.7071 0.82643 0.0
C901 C 0.96314 0.68993 0.90549 0.0
C902 C 0.91489 0.73287 0.8912 0.0
C903 C 0.9811 0.68565 0.92285 0.0
C904 C 0.85637 0.76686 0.8141 0.0
C905 C 0.87325 0.76025 0.83149 0.0
C906 C 0.91888 0.71419 0.84449 0.0
C907 C 0.95327 0.71289 0.90393 0.0
C908 C 0.93433 0.7178 0.88552 0.0
C909 C 0.88192 0.7367 0.83139 0.0
C910 C 0.89971 0.72969 0.85009 0.0
H911 H 0.98565 0.74186 0.94943 0.0
H912 H 0.95478 0.74935 0.91915 0.0
H913 H 0.9509 0.69683 0.85704 0.0
H914 H 0.85031 0.71314 0.78241 0.0
H915 H 0.87953 0.70163 0.81288 0.0
C916 C 0.11451 0.30107 0.02319 0.0
C917 C 0.09122 0.31032 0.0255 0.0
C918 C 0.12979 0.2984 0.04315 0.0
C919 C 0.13321 0.29376 0.10753 0.0
H920 H 0.19624 0.3198 0.10417 0.0
C921 C 0.20334 0.30003 0.18792 0.0
C922 C 0.22744 0.29667 0.18281 0.0
C923 C 0.18561 0.30136 0.16954 0.0
C924 C 0.17889 0.31206 0.10539 0.0
H925 H 0.0654 0.32293 0.05083 0.0
H926 H 0.09209 0.31788 0.08579 0.0
H927 H 0.16742 0.3215 0.0708 0.0
H928 H 0.2518 0.29124 0.15456 0.0
H929 H 0.2212 0.29272 0.12277 0.0
H930 H 0.14491 0.28385 0.14201 0.0
C931 C 0.09849 0.31285 0.06843 0.0
C932 C 0.1623 0.31315 0.0862 0.0
C933 C 0.08322 0.31578 0.04839 0.0
C934 C 0.23341 0.29413 0.15908 0.0
C935 C 0.21579 0.29518 0.1408 0.0
C936 C 0.14998 0.29241 0.12672 0.0
C937 C 0.12215 0.30468 0.06599 0.0
C938 C 0.13934 0.30384 0.08691 0.0
C939 C 0.19164 0.29917 0.14568 0.0
C940 C 0.17318 0.30133 0.12582 0.0
H941 H 0.12132 0.29659 0.0059 0.0
H942 H 0.14779 0.29172 0.04067 0.0
H943 H 0.11566 0.2864 0.10858 0.0
H944 H 0.19824 0.30204 0.20608 0.0
H945 H 0.16728 0.30462 0.17407 0.0
C946 C 0.13376 0.76963 0.97661 0.0
C947 C 0.11026 0.76204 0.97076 0.0
C948 C 0.15005 0.77114 0.95901 0.0
C949 C 0.15487 0.77206 0.89395 0.0
H950 H 0.21852 0.74652 0.90695 0.0
C951 C 0.21875 0.74846 0.81941 0.0
C952 C 0.24298 0.75412 0.82354 0.0
C953 C 0.20321 0.75043 0.83787 0.0
C954 C 0.20094 0.754 0.9031 0.0
H955 H 0.08526 0.75112 0.94155 0.0
H956 H 0.11359 0.7537 0.91096 0.0
H957 H 0.18997 0.74949 0.93792 0.0
H958 H 0.27006 0.76592 0.85036 0.0
H959 H 0.24285 0.76939 0.88282 0.0
H960 H 0.16573 0.77633 0.85908 0.0
C961 C 0.11945 0.75863 0.92915 0.0
C962 C 0.18453 0.75575 0.9209 0.0
C963 C 0.10316 0.7571 0.94675 0.0
C964 C 0.25149 0.7613 0.8467 0.0
C965 C 0.23589 0.76326 0.86526 0.0
C966 C 0.17125 0.7703 0.87618 0.0
C967 C 0.14328 0.76514 0.93508 0.0
C968 C 0.16118 0.76459 0.91651 0.0
C969 C 0.21145 0.75815 0.86101 0.0
C970 C 0.19443 0.76099 0.8804 0.0
H971 H 0.13989 0.77364 -0.00511 0.0
H972 H 0.16809 0.77666 0.96422 0.0
H973 H 0.13722 0.77934 0.89001 0.0
H974 H 0.21165 0.74283 0.80176 0.0
H975 H 0.18466 0.74586 0.83397 0.0
C976 C 0.32154 0.0667 0.94393 0.0
C977 C 0.32225 0.04226 0.93691 0.0
C978 C 0.31725 0.08333 0.92721 0.0
C979 C 0.32312 0.09066 0.86411 0.0
H980 H 0.2854 0.14793 0.87747 0.0
C981 C 0.30949 0.16332 0.79758 0.0
C982 C 0.3112 0.18687 0.80746 0.0
C983 C 0.30867 0.14458 0.81222 0.0
C984 C 0.29614 0.13211 0.87352 0.0
H985 H 0.31819 0.01611 0.90682 0.0
H986 H 0.3106 0.04516 0.87768 0.0
H987 H 0.28725 0.11726 0.90531 0.0
H988 H 0.3135 0.20936 0.84028 0.0
H989 H 0.31243 0.17688 0.86571 0.0
H990 H 0.33242 0.10574 0.83255 0.0
C991 C 0.31363 0.05145 0.89611 0.0
C992 C 0.29717 0.11452 0.88948 0.0
C993 C 0.31782 0.0348 0.91286 0.0
C994 C 0.3121 0.19137 0.83215 0.0
C995 C 0.31129 0.17274 0.84674 0.0
C996 C 0.32214 0.1083 0.84815 0.0
C997 C 0.31363 0.07592 0.90305 0.0
C998 C 0.31096 0.09374 0.88516 0.0
C999 C 0.30949 0.1491 0.83701 0.0
C1000 C 0.30896 0.12942 0.85286 0.0
H1001 H 0.3249 0.07307 0.9623 0.0
H1002 H 0.3176 0.10204 0.93314 0.0
H1003 H 0.33413 0.07498 0.86036 0.0
H1004 H 0.30867 0.1594 0.77857 0.0
H1005 H 0.30712 0.12659 0.80415 0.0
C1006 C 0.96493 0.30018 0.93988 0.0
C1007 C 0.98665 0.31151 0.93743 0.0
C1008 C 0.94809 0.29708 0.92072 0.0
C1009 C 0.92682 0.32498 0.86803 0.0
H1010 H 0.89745 0.26481 0.84719 0.0
C1011 C 0.86328 0.31468 0.78398 0.0
C1012 C 0.84525 0.29767 0.78264 0.0
C1013 C 0.8802 0.31635 0.80313 0.0
C1014 C 0.90504 0.28191 0.853 0.0
H1015 H 1.00788 0.32805 0.91273 0.0
H1016 H 0.97827 0.32309 0.87955 0.0
H1017 H 0.92766 0.26684 0.87985 0.0
H1018 H 0.83032 0.26957 0.80064 0.0
H1019 H 0.85874 0.27334 0.83466 0.0
H1020 H 0.90377 0.34042 0.84206 0.0
C1021 C 0.97439 0.31646 0.89625 0.0
C1022 C 0.92254 0.28296 0.87164 0.0
C1023 C 0.99141 0.31911 0.91522 0.0
C1024 C 0.84399 0.2829 0.80121 0.0
C1025 C 0.86058 0.28487 0.82059 0.0
C1026 C 0.90899 0.32406 0.84973 0.0
C1027 C 0.95243 0.30571 0.89888 0.0
C1028 C 0.93374 0.30447 0.87921 0.0
C1029 C 0.87926 0.30133 0.82169 0.0
C1030 C 0.89789 0.30247 0.84176 0.0
H1031 H 0.96069 0.29417 0.95675 0.0
H1032 H 0.93128 0.28878 0.92325 0.0
H1033 H 0.93493 0.34189 0.87375 0.0
H1034 H 0.86486 0.32617 0.76982 0.0
H1035 H 0.89442 0.32899 0.80294 0.0
C1036 C 0.76288 1.00435 0.9346 0.0
C1037 C 0.77242 1.00137 0.95763 0.0
C1038 C 0.76661 0.98698 0.9161 0.0
C1039 C 0.77662 0.92333 0.90542 0.0
H1040 H 0.79589 0.93729 0.84365 0.0
C1041 C 0.79396 0.84776 0.83438 0.0
C1042 C 0.78768 0.85124 0.81067 0.0
C1043 C 0.79369 0.86675 0.8517 0.0
C1044 C 0.79015 0.93307 0.86067 0.0
H1045 H 0.79381 0.97805 0.97913 0.0
H1046 H 0.79994 0.94756 0.94687 0.0
H1047 H 0.79263 0.96942 0.87491 0.0
H1048 H 0.77646 0.87727 0.78627 0.0
H1049 H 0.77485 0.91047 0.81671 0.0
H1050 H 0.7731 0.88734 0.8913 0.0
C1051 C 0.78963 0.96338 0.94319 0.0
C1052 C 0.78844 0.9515 0.87861 0.0
C1053 C 0.7862 0.98089 0.96162 0.0
C1054 C 0.7814 0.87417 0.80448 0.0
C1055 C 0.78065 0.89319 0.82194 0.0
C1056 C 0.77794 0.90502 0.88746 0.0
C1057 C 0.77965 0.96613 0.92031 0.0
C1058 C 0.7818 0.94676 0.9012 0.0
C1059 C 0.78659 0.88969 0.84587 0.0
C1060 C 0.78491 0.90954 0.86484 0.0
H1061 H 0.75225 0.01996 0.93091 0.0
H1062 H 0.7586 0.9895 0.89867 0.0
H1063 H 0.77102 0.91922 0.92254 0.0
H1064 H 0.79921 0.83029 0.83958 0.0
H1065 H 0.79911 0.86335 0.86971 0.0
C1066 C 1.00957 0.74405 0.06863 0.0
C1067 C 1.00409 0.75467 0.04739 0.0
C1068 C 0.9931 0.74477 0.08636 0.0
C1069 C 0.92794 0.75447 0.09465 0.0
H1070 H 0.94739 0.75761 0.16138 0.0
C1071 C 0.86189 0.77589 0.16771 0.0
C1072 C 0.86335 0.76254 0.18759 0.0
C1073 C 0.87917 0.77334 0.15089 0.0
C1074 C 0.94171 0.75643 0.1428 0.0
H1075 H 0.97737 0.77538 0.02873 0.0
H1076 H 0.94912 0.77743 0.05982 0.0
H1077 H 0.97765 0.75787 0.13209 0.0
H1078 H 0.88422 0.7359 0.20529 0.0
H1079 H 0.91484 0.73163 0.17584 0.0
H1080 H 0.892 0.75367 0.10542 0.0
C1081 C 0.96579 0.76781 0.06257 0.0
C1082 C 0.95906 0.75658 0.12595 0.0
C1083 C 0.98215 0.76687 0.04477 0.0
C1084 C 0.88251 0.74634 0.19012 0.0
C1085 C 0.90012 0.74404 0.17336 0.0
C1086 C 0.91066 0.75456 0.11146 0.0
C1087 C 0.97076 0.75631 0.08343 0.0
C1088 C 0.95242 0.75581 0.10159 0.0
C1089 C 0.89862 0.75756 0.15355 0.0
C1090 C 0.91728 0.75575 0.13575 0.0
H1091 H 1.02624 0.73434 0.07123 0.0
H1092 H 0.9976 0.73552 0.10199 0.0
H1093 H 0.92203 0.75317 0.07613 0.0
H1094 H 0.84736 0.7885 0.16513 0.0
H1095 H 0.87757 0.78418 0.13601 0.0
C1096 C 0.31117 0.97711 0.06748 0.0
C1097 C 0.31506 0.97369 0.04323 0.0
C1098 C 0.30841 0.95768 0.08073 0.0
C1099 C 0.32465 0.89387 0.07998 0.0
H1100 H 0.28985 0.89871 0.13724 0.0
C1101 C 0.32387 0.82158 0.14884 0.0
C1102 C 0.33049 0.83104 0.17188 0.0
C1103 C 0.31949 0.83671 0.13062 0.0
C1104 C 0.29953 0.89707 0.12121 0.0
H1105 H 0.31734 0.94719 0.01353 0.0
H1106 H 0.31182 0.9133 0.03654 0.0
H1107 H 0.28418 0.92924 0.10943 0.0
H1108 H 0.33811 0.86353 0.19386 0.0
H1109 H 0.3301 0.88974 0.16233 0.0
H1110 H 0.34 0.86159 0.09209 0.0
C1111 C 0.31159 0.93099 0.04547 0.0
C1112 C 0.29642 0.91461 0.10533 0.0
C1113 C 0.31454 0.95045 0.03223 0.0
C1114 C 0.33307 0.85571 0.17628 0.0
C1115 C 0.32832 0.87075 0.15829 0.0
C1116 C 0.32749 0.8761 0.09576 0.0
C1117 C 0.30922 0.93431 0.07004 0.0
C1118 C 0.30954 0.9137 0.08489 0.0
C1119 C 0.32121 0.86146 0.13538 0.0
C1120 C 0.31552 0.87798 0.11686 0.0
H1121 H 0.31151 0.99474 0.07656 0.0
H1122 H 0.30692 0.96105 0.09962 0.0
H1123 H 0.33527 0.89262 0.06459 0.0
H1124 H 0.32166 0.80262 0.14504 0.0
H1125 H 0.3141 0.82917 0.11303 0.0
C1126 C 0.78344 0.11295 0.04628 0.0
C1127 C 0.7838 0.08961 0.0533 0.0
C1128 C 0.78833 0.1322 0.06282 0.0
C1129 C 0.78343 0.14772 0.12618 0.0
H1130 H 0.81478 0.20581 0.11431 0.0
C1131 C 0.8163 0.23829 0.18321 0.0
C1132 C 0.79614 0.24286 0.19658 0.0
C1133 C 0.81546 0.22138 0.16379 0.0
C1134 C 0.80603 0.18967 0.11789 0.0
H1135 H 0.79167 0.06811 0.08277 0.0
H1136 H 0.80054 0.10166 0.11149 0.0
H1137 H 0.81517 0.17168 0.08481 0.0
H1138 H 0.75884 0.23472 0.19911 0.0
H1139 H 0.75724 0.20542 0.16502 0.0
H1140 H 0.77444 0.16542 0.15924 0.0
C1141 C 0.79589 0.10509 0.09332 0.0
C1142 C 0.80616 0.17018 0.10096 0.0
C1143 C 0.79099 0.08584 0.0768 0.0
C1144 C 0.7747 0.23141 0.18924 0.0
C1145 C 0.77386 0.2145 0.16985 0.0
C1146 C 0.78321 0.16715 0.14298 0.0
C1147 C 0.79372 0.12853 0.0867 0.0
C1148 C 0.79485 0.14897 0.10495 0.0
C1149 C 0.79443 0.20873 0.15738 0.0
C1150 C 0.7944 0.1884 0.13902 0.0
H1151 H 0.77805 0.11651 0.0283 0.0
H1152 H 0.78647 0.15001 0.05713 0.0
H1153 H 0.7742 0.13182 0.12967 0.0
H1154 H 0.83306 0.24695 0.18842 0.0
H1155 H 0.83162 0.21733 0.1546 0.0
C1156 C 0.63324 0.58221 0.78187 0.0
C1157 C 0.61505 0.58841 0.79737 0.0
C1158 C 0.65067 0.59868 0.77783 0.0
C1159 C 0.67589 0.65728 0.80242 0.0
H1160 H 0.70097 0.65803 0.74028 0.0
C1161 C 0.72205 0.73845 0.7717 0.0
C1162 C 0.74484 0.73474 0.76287 0.0
C1163 C 0.7079 0.71925 0.77567 0.0
C1164 C 0.69428 0.65785 0.75777 0.0
H1165 H 0.60061 0.61701 0.82031 0.0
H1166 H 0.63026 0.64583 0.81285 0.0
H1167 H 0.67278 0.62737 0.74774 0.0
H1168 H 0.7705 0.70791 0.75081 0.0
H1169 H 0.74515 0.67407 0.75693 0.0
H1170 H 0.69658 0.68845 0.812 0.0
C1171 C 0.63178 0.62804 0.80435 0.0
C1172 C 0.67816 0.64022 0.76214 0.0
C1173 C 0.61462 0.6115 0.80862 0.0
C1174 C 0.75296 0.7113 0.75751 0.0
C1175 C 0.7385 0.69198 0.76103 0.0
C1176 C 0.69162 0.67506 0.79791 0.0
C1177 C 0.65018 0.62192 0.78897 0.0
C1178 C 0.66846 0.63984 0.78448 0.0
C1179 C 0.71596 0.69582 0.77049 0.0
C1180 C 0.70079 0.67571 0.7755 0.0
H1181 H 0.63419 0.5645 0.77309 0.0
H1182 H 0.66466 0.59305 0.76616 0.0
H1183 H 0.66949 0.65732 0.82004 0.0
H1184 H 0.71524 0.75627 0.77599 0.0
H1185 H 0.69054 0.72274 0.78277 0.0
C1186 C 0.4893 0.57729 0.74574 0.0
C1187 C 0.49032 0.56652 0.76721 0.0
C1188 C 0.47102 0.59387 0.74077 0.0
C1189 C 0.41131 0.61567 0.76013 0.0
H1190 H 0.42914 0.67522 0.73721 0.0
C1191 C 0.35177 0.70034 0.77011 0.0
C1192 C 0.34942 0.71438 0.75079 0.0
C1193 C 0.36834 0.68143 0.77025 0.0
C1194 C 0.42379 0.65859 0.74338 0.0
H1195 H 0.47238 0.56394 0.79976 0.0
H1196 H 0.4411 0.59248 0.79125 0.0
H1197 H 0.45854 0.64286 0.73912 0.0
H1198 H 0.36286 0.71946 0.71646 0.0
H1199 H 0.39156 0.68669 0.7168 0.0
H1200 H 0.37675 0.63155 0.76488 0.0
C1201 C 0.45411 0.58825 0.7781 0.0
C1202 C 0.44062 0.63999 0.74436 0.0
C1203 C 0.47227 0.57196 0.78308 0.0
C1204 C 0.36416 0.70914 0.73172 0.0
C1205 C 0.38076 0.69036 0.73192 0.0
C1206 C 0.39454 0.63427 0.75924 0.0
C1207 C 0.45333 0.5997 0.75706 0.0
C1208 C 0.43472 0.61843 0.75315 0.0
C1209 C 0.38303 0.67621 0.75113 0.0
C1210 C 0.40066 0.6561 0.75119 0.0
H1211 H 0.50298 0.57349 0.73319 0.0
H1212 H 0.47084 0.60226 0.7243 0.0
H1213 H 0.40598 0.59916 0.76658 0.0
H1214 H 0.34072 0.70382 0.78507 0.0
H1215 H 0.36983 0.67103 0.78546 0.0
C1216 C 0.48598 0.43862 0.81399 0.0
C1217 C 0.4873 0.45658 0.79838 0.0
C1218 C 0.46827 0.42137 0.81048 0.0
C1219 C 0.4257 0.39267 0.76491 0.0
H1220 H 0.39682 0.3711 0.81955 0.0
C1221 C 0.34991 0.32222 0.75777 0.0
C1222 C 0.35251 0.30481 0.77405 0.0
C1223 C 0.36483 0.34211 0.76 0.0
C1224 C 0.4048 0.37678 0.80408 0.0
H1225 H 0.47049 0.47044 0.76692 0.0
H1226 H 0.43967 0.44036 0.76082 0.0
H1227 H 0.42574 0.40291 0.82486 0.0
H1228 H 0.37271 0.29445 0.80528 0.0
H1229 H 0.39853 0.32873 0.80914 0.0
H1230 H 0.4048 0.36627 0.74419 0.0
C1231 C 0.4526 0.43946 0.77562 0.0
C1232 C 0.42146 0.39504 0.80714 0.0
C1233 C 0.47033 0.45675 0.77914 0.0
C1234 C 0.37017 0.30764 0.79252 0.0
C1235 C 0.38491 0.32742 0.79483 0.0
C1236 C 0.40897 0.37436 0.76184 0.0
C1237 C 0.45129 0.42154 0.79127 0.0
C1238 C 0.43245 0.403 0.78767 0.0
C1239 C 0.38246 0.34499 0.77867 0.0
C1240 C 0.39862 0.36589 0.78145 0.0
H1241 H 0.4989 0.43758 0.82875 0.0
H1242 H 0.46815 0.40761 0.82266 0.0
H1243 H 0.43391 0.3982 0.74951 0.0
H1244 H 0.33655 0.32038 0.74326 0.0
H1245 H 0.3624 0.35534 0.74728 0.0
C1246 C 0.61058 0.46868 0.74088 0.0
C1247 C 0.59999 0.46903 0.76274 0.0
C1248 C 0.62774 0.45106 0.73469 0.0
C1249 C 0.6501 0.39156 0.75001 0.0
H1250 H 0.71154 0.41104 0.73097 0.0
C1251 C 0.73404 0.33336 0.76255 0.0
C1252 C 0.74968 0.33046 0.74402 0.0
C1253 C 0.71553 0.3503 0.76215 0.0
C1254 C 0.69438 0.40525 0.73599 0.0
H1255 H 0.59824 0.45073 0.79469 0.0
H1256 H 0.62752 0.42034 0.78392 0.0
H1257 H 0.67832 0.43983 0.73327 0.0
H1258 H 0.7585 0.34382 0.71089 0.0
H1259 H 0.72621 0.37346 0.71031 0.0
H1260 H 0.66612 0.35724 0.75332 0.0
C1261 C 0.62285 0.43345 0.7715 0.0
C1262 C 0.67533 0.42172 0.7372 0.0
C1263 C 0.60614 0.45105 0.77775 0.0
C1264 C 0.7468 0.34552 0.72547 0.0
C1265 C 0.72831 0.36257 0.72513 0.0
C1266 C 0.66906 0.37519 0.74886 0.0
C1267 C 0.63412 0.43333 0.75007 0.0
C1268 C 0.65315 0.4152 0.74485 0.0
C1269 C 0.71218 0.36486 0.74326 0.0
C1270 C 0.69162 0.38196 0.74244 0.0
H1271 H 0.60625 0.4824 0.72904 0.0
H1272 H 0.63611 0.45137 0.71801 0.0
H1273 H 0.63311 0.38584 0.75555 0.0
H1274 H 0.73572 0.32219 0.77718 0.0
H1275 H 0.70372 0.35192 0.77665 0.0
C1276 C 0.62329 0.46714 0.24792 0.0
C1277 C 0.62468 0.4816 0.22909 0.0
C1278 C 0.64152 0.45033 0.25241 0.0
C1279 C 0.68767 0.41593 0.21968 0.0
H1280 H 0.71267 0.3989 0.28106 0.0
C1281 C 0.76889 0.35256 0.22889 0.0
C1282 C 0.76843 0.33565 0.24566 0.0
C1283 C 0.75156 0.37072 0.22824 0.0
C1284 C 0.70569 0.40329 0.26377 0.0
H1285 H 0.64694 0.49131 0.20158 0.0
H1286 H 0.67871 0.46286 0.20977 0.0
H1287 H 0.68226 0.43048 0.27854 0.0
H1288 H 0.74927 0.32477 0.27502 0.0
H1289 H 0.71897 0.3562 0.27365 0.0
H1290 H 0.71078 0.38884 0.20481 0.0
C1291 C 0.66338 0.46371 0.2206 0.0
C1292 C 0.68827 0.4214 0.26236 0.0
C1293 C 0.64525 0.48018 0.21603 0.0
C1294 C 0.75024 0.33745 0.26183 0.0
C1295 C 0.73291 0.35562 0.26118 0.0
C1296 C 0.70498 0.39791 0.22108 0.0
C1297 C 0.66138 0.44789 0.23818 0.0
C1298 C 0.67927 0.42814 0.24025 0.0
C1299 C 0.73326 0.37246 0.24432 0.0
C1300 C 0.71443 0.39146 0.24312 0.0
H1301 H 0.60753 0.46777 0.25813 0.0
H1302 H 0.63944 0.43845 0.26614 0.0
H1303 H 0.6807 0.42017 0.20234 0.0
H1304 H 0.78268 0.35185 0.21624 0.0
H1305 H 0.75263 0.38356 0.21522 0.0
C1306 C 0.64801 0.58183 0.20042 0.0
C1307 C 0.62607 0.58619 0.18816 0.0
C1308 C 0.66541 0.59948 0.20387 0.0
C1309 C 0.672 0.66289 0.21264 0.0
H1310 H 0.7357 0.65478 0.18978 0.0
C1311 C 0.73465 0.74261 0.21566 0.0
C1312 C 0.7595 0.73923 0.21818 0.0
C1313 C 0.71936 0.72325 0.21233 0.0
C1314 C 0.71819 0.65731 0.19674 0.0
H1315 H 0.6051 0.61246 0.17012 0.0
H1316 H 0.63516 0.64359 0.17684 0.0
H1317 H 0.7075 0.62208 0.18354 0.0
H1318 H 0.78781 0.71269 0.21846 0.0
H1319 H 0.76115 0.67871 0.21431 0.0
H1320 H 0.68252 0.69747 0.22681 0.0
C1321 C 0.63903 0.62636 0.18337 0.0
C1322 C 0.70199 0.63855 0.19297 0.0
C1323 C 0.62191 0.60854 0.17941 0.0
C1324 C 0.76874 0.7159 0.21718 0.0
C1325 C 0.75336 0.69639 0.21436 0.0
C1326 C 0.6883 0.6814 0.21691 0.0
C1327 C 0.66093 0.62203 0.19566 0.0
C1328 C 0.67862 0.64133 0.20055 0.0
C1329 C 0.72834 0.69976 0.2119 0.0
C1330 C 0.71155 0.67916 0.20864 0.0
H1331 H 0.65168 0.56473 0.20728 0.0
H1332 H 0.68211 0.59573 0.21347 0.0
H1333 H 0.6542 0.66536 0.21899 0.0
H1334 H 0.7269 0.76035 0.21605 0.0
H1335 H 0.70042 0.72689 0.20976 0.0
C1336 C 0.50729 0.58392 0.24564 0.0
C1337 C 0.51137 0.57529 0.22227 0.0
C1338 C 0.49057 0.60248 0.25012 0.0
C1339 C 0.43836 0.63209 0.22038 0.0
H1340 H 0.44977 0.68413 0.26823 0.0
C1341 C 0.38157 0.71842 0.22154 0.0
C1342 C 0.37352 0.72747 0.2435 0.0
C1343 C 0.3987 0.70001 0.22023 0.0
C1344 C 0.44626 0.66961 0.2549 0.0
H1345 H 0.50179 0.5802 0.18537 0.0
H1346 H 0.47361 0.61221 0.1931 0.0
H1347 H 0.47883 0.65125 0.2645 0.0
H1348 H 0.37789 0.7248 0.28142 0.0
H1349 H 0.40775 0.69287 0.27906 0.0
H1350 H 0.40611 0.65051 0.21047 0.0
C1351 C 0.48251 0.60439 0.20807 0.0
C1352 C 0.46287 0.65072 0.25284 0.0
C1353 C 0.4989 0.58599 0.20365 0.0
C1354 C 0.38349 0.71812 0.26415 0.0
C1355 C 0.40078 0.69992 0.26285 0.0
C1356 C 0.42195 0.65098 0.22231 0.0
C1357 C 0.47773 0.61271 0.2313 0.0
C1358 C 0.4593 0.63188 0.23527 0.0
C1359 C 0.40838 0.69042 0.24087 0.0
C1360 C 0.42581 0.67013 0.23937 0.0
H1361 H 0.51666 0.57612 0.26037 0.0
H1362 H 0.48734 0.60848 0.26827 0.0
H1363 H 0.43465 0.61763 0.20704 0.0
H1364 H 0.37434 0.72524 0.20531 0.0
H1365 H 0.4044 0.69328 0.20302 0.0
C1366 C 0.49204 0.43602 0.18587 0.0
C1367 C 0.49914 0.45549 0.20166 0.0
C1368 C 0.47396 0.42086 0.19125 0.0
C1369 C 0.4228 0.41832 0.2301 0.0
H1370 H 0.42458 0.35119 0.20947 0.0
C1371 C 0.33965 0.36006 0.23086 0.0
C1372 C 0.34239 0.33619 0.23586 0.0
C1373 C 0.35954 0.37396 0.22828 0.0
C1374 C 0.42388 0.36983 0.21564 0.0
H1375 H 0.49228 0.4738 0.23581 0.0
H1376 H 0.46162 0.44715 0.24538 0.0
H1377 H 0.45792 0.37618 0.20222 0.0
H1378 H 0.36824 0.30825 0.2426 0.0
H1379 H 0.40324 0.33269 0.23851 0.0
H1380 H 0.38908 0.41195 0.24399 0.0
C1381 C 0.46972 0.44382 0.22856 0.0
C1382 C 0.44291 0.38429 0.21116 0.0
C1383 C 0.48768 0.45906 0.22314 0.0
C1384 C 0.36559 0.32659 0.23868 0.0
C1385 C 0.38561 0.34058 0.23615 0.0
C1386 C 0.40387 0.40387 0.23467 0.0
C1387 C 0.46244 0.42456 0.21265 0.0
C1388 C 0.44257 0.40882 0.21813 0.0
C1389 C 0.38285 0.36447 0.23078 0.0
C1390 C 0.40394 0.37945 0.22726 0.0
H1391 H 0.50042 0.43235 0.16927 0.0
H1392 H 0.46874 0.40644 0.17836 0.0
H1393 H 0.42162 0.4371 0.23556 0.0
H1394 H 0.32202 0.36798 0.22851 0.0
H1395 H 0.35653 0.39206 0.22373 0.0
C1396 C 0.80212 0.53783 0.55232 0.0
C1397 C 0.81318 0.54454 0.53236 0.0
C1398 C 0.80282 0.55262 0.57328 0.0
C1399 C 0.83298 0.60547 0.60423 0.0
H1400 H 0.7742 0.61199 0.63711 0.0
C1401 C 0.82557 0.67007 0.68747 0.0
C1402 C 0.80437 0.68359 0.6888 0.0
C1403 C 0.8272 0.6506 0.67075 0.0
C1404 C 0.79073 0.61049 0.6281 0.0
H1405 H 0.8342 0.57173 0.51892 0.0
H1406 H 0.83493 0.59783 0.55526 0.0
H1407 H 0.77673 0.58337 0.60298 0.0
H1408 H 0.76806 0.68717 0.6743 0.0
H1409 H 0.77099 0.65368 0.64472 0.0
H1410 H 0.84652 0.63351 0.62855 0.0
C1411 C 0.82608 0.58094 0.55492 0.0
C1412 C 0.79231 0.5938 0.60869 0.0
C1413 C 0.82556 0.56603 0.53401 0.0
C1414 C 0.78458 0.67693 0.6737 0.0
C1415 C 0.78626 0.65764 0.65682 0.0
C1416 C 0.83133 0.62231 0.62352 0.0
C1417 C 0.81441 0.57458 0.57471 0.0
C1418 C 0.81336 0.59126 0.59632 0.0
C1419 C 0.80772 0.64445 0.65487 0.0
C1420 C 0.81007 0.62524 0.63553 0.0
H1421 H 0.79263 0.52126 0.5517 0.0
H1422 H 0.79408 0.5469 0.58829 0.0
H1423 H 0.84958 0.60377 0.59536 0.0
H1424 H 0.84105 0.6748 0.69903 0.0
H1425 H 0.84383 0.64058 0.67007 0.0
C1426 C 0.48665 0.84167 0.56181 0.0
C1427 C 0.48059 0.84853 0.53898 0.0
C1428 C 0.46888 0.83741 0.57718 0.0
C1429 C 0.40556 0.82105 0.57751 0.0
H1430 H 0.4133 0.84133 0.6443 0.0
C1431 C 0.34842 0.78555 0.64895 0.0
C1432 C 0.34201 0.80174 0.66771 0.0
C1433 C 0.36364 0.79239 0.63206 0.0
C1434 C 0.41072 0.83571 0.62566 0.0
H1435 H 0.45096 0.85642 0.51453 0.0
H1436 H 0.41996 0.84922 0.54144 0.0
H1437 H 0.44318 0.85186 0.61762 0.0
H1438 H 0.34564 0.83799 0.68301 0.0
H1439 H 0.37193 0.85 0.65353 0.0
H1440 H 0.37305 0.80489 0.58563 0.0
C1441 C 0.4385 0.84701 0.54739 0.0
C1442 C 0.428 0.84154 0.6104 0.0
C1443 C 0.4563 0.85143 0.53206 0.0
C1444 C 0.35035 0.8251 0.66878 0.0
C1445 C 0.36557 0.83192 0.65199 0.0
C1446 C 0.38831 0.81509 0.59283 0.0
C1447 C 0.44457 0.83976 0.57008 0.0
C1448 C 0.42571 0.83421 0.58615 0.0
C1449 C 0.3728 0.81554 0.63368 0.0
C1450 C 0.39071 0.82231 0.61711 0.0
H1451 H 0.50517 0.83942 0.56773 0.0
H1452 H 0.47421 0.83168 0.59446 0.0
H1453 H 0.40335 0.81493 0.55897 0.0
H1454 H 0.34231 0.76739 0.64775 0.0
H1455 H 0.36896 0.77929 0.61828 0.0
C1456 C 0.21593 0.48779 0.59441 0.0
C1457 C 0.21697 0.48334 0.56977 0.0
C1458 C 0.2232 0.47037 0.60952 0.0
C1459 C 0.23582 0.40584 0.61094 0.0
H1460 H 0.27544 0.4254 0.66706 0.0
C1461 C 0.28669 0.33772 0.66525 0.0
C1462 C 0.28563 0.34099 0.68991 0.0
C1463 C 0.27872 0.35562 0.65104 0.0
C1464 C 0.26421 0.41969 0.65158 0.0
H1465 H 0.22548 0.45671 0.54171 0.0
H1466 H 0.23851 0.42649 0.56801 0.0
H1467 H 0.25938 0.45522 0.64148 0.0
H1468 H 0.27622 0.36572 0.71921 0.0
H1469 H 0.26225 0.39714 0.69436 0.0
H1470 H 0.24079 0.37031 0.62092 0.0
C1471 C 0.23196 0.44339 0.57568 0.0
C1472 C 0.25494 0.43677 0.63695 0.0
C1473 C 0.2247 0.4608 0.5606 0.0
C1474 C 0.27727 0.3628 0.70022 0.0
C1475 C 0.26933 0.38077 0.686 0.0
C1476 C 0.24512 0.38878 0.62552 0.0
C1477 C 0.23163 0.44808 0.60035 0.0
C1478 C 0.24073 0.43003 0.61639 0.0
C1479 C 0.26954 0.37718 0.66122 0.0
C1480 C 0.25954 0.39548 0.64593 0.0
H1481 H 0.21029 0.50498 0.60215 0.0
H1482 H 0.22239 0.47444 0.62842 0.0
H1483 H 0.22461 0.40007 0.59546 0.0
H1484 H 0.29313 0.32108 0.65685 0.0
H1485 H 0.27954 0.35248 0.63204 0.0
C1486 C 0.60761 0.18975 0.57043 0.0
C1487 C 0.61034 0.19493 0.54706 0.0
C1488 C 0.624 0.19816 0.58854 0.0
C1489 C 0.68627 0.22099 0.59766 0.0
H1490 H 0.66807 0.23256 0.66244 0.0
C1491 C 0.74846 0.25775 0.67848 0.0
C1492 C 0.75036 0.24222 0.69663 0.0
C1493 C 0.73163 0.25369 0.65944 0.0
C1494 C 0.67333 0.22944 0.64438 0.0
H1495 H 0.6332 0.21125 0.52398 0.0
H1496 H 0.66052 0.22796 0.55547 0.0
H1497 H 0.63736 0.22394 0.63094 0.0
H1498 H 0.73623 0.21031 0.70906 0.0
H1499 H 0.70638 0.20379 0.67628 0.0
H1500 H 0.72227 0.22724 0.6114 0.0
C1501 C 0.64592 0.21731 0.56011 0.0
C1502 C 0.65579 0.22429 0.6263 0.0
C1503 C 0.62978 0.20846 0.54202 0.0
C1504 C 0.73524 0.22256 0.69533 0.0
C1505 C 0.71809 0.21886 0.67666 0.0
C1506 C 0.70373 0.22668 0.61571 0.0
C1507 C 0.64355 0.21196 0.58364 0.0
C1508 C 0.66202 0.21949 0.60269 0.0
C1509 C 0.71605 0.23443 0.65864 0.0
C1510 C 0.69744 0.23051 0.63925 0.0
H1511 H 0.59308 0.17875 0.57462 0.0
H1512 H 0.62174 0.19305 0.6062 0.0
H1513 H 0.69202 0.217 0.5799 0.0
H1514 H 0.75972 0.27317 0.67915 0.0
H1515 H 0.73034 0.26593 0.6457 0.0
C1516 C 0.85167 0.43028 0.46308 0.0
C1517 C 0.84615 0.45348 0.45703 0.0
C1518 C 0.8579 0.41265 0.44561 0.0
C1519 C 0.87466 0.37963 0.40267 0.0
H1520 H 0.82584 0.38275 0.35178 0.0
C1521 C 0.87213 0.32328 0.31171 0.0
C1522 C 0.84956 0.31542 0.30271 0.0
C1523 C 0.87445 0.33732 0.33315 0.0
C1524 C 0.83948 0.38153 0.36592 0.0
H1525 H 0.84573 0.47719 0.42891 0.0
H1526 H 0.85695 0.44659 0.39862 0.0
H1527 H 0.82795 0.41412 0.38369 0.0
H1528 H 0.81203 0.31442 0.30978 0.0
H1529 H 0.81606 0.33898 0.34712 0.0
H1530 H 0.88613 0.34683 0.38449 0.0
C1531 C 0.85594 0.44186 0.41663 0.0
C1532 C 0.84092 0.39966 0.38402 0.0
C1533 C 0.84963 0.45938 0.43397 0.0
C1534 C 0.82961 0.32042 0.31621 0.0
C1535 C 0.83191 0.33452 0.33753 0.0
C1536 C 0.87342 0.36151 0.38424 0.0
C1537 C 0.85875 0.4181 0.42199 0.0
C1538 C 0.85851 0.39897 0.40255 0.0
C1539 C 0.8542 0.34377 0.34578 0.0
C1540 C 0.85567 0.36227 0.3658 0.0
H1541 H 0.849 0.42523 0.48071 0.0
H1542 H 0.85999 0.39446 0.45019 0.0
H1543 H 0.8883 0.37866 0.41685 0.0
H1544 H 0.88781 0.31952 0.30168 0.0
H1545 H 0.89182 0.34428 0.3391 0.0
C1546 C 0.62788 0.85687 0.41485 0.0
C1547 C 0.62095 0.83891 0.42867 0.0
C1548 C 0.6451 0.85231 0.39805 0.0
C1549 C 0.67502 0.80264 0.36331 0.0
H1550 H 0.72184 0.85027 0.35449 0.0
C1551 C 0.75676 0.78148 0.30733 0.0
C1552 C 0.76308 0.79844 0.29207 0.0
C1553 C 0.73957 0.78683 0.32395 0.0
C1554 C 0.70874 0.83686 0.35656 0.0
H1555 H 0.62729 0.80215 0.43594 0.0
H1556 H 0.65728 0.79425 0.40692 0.0
H1557 H 0.6916 0.85878 0.38338 0.0
H1558 H 0.75634 0.83451 0.28266 0.0
H1559 H 0.72635 0.84381 0.31167 0.0
H1560 H 0.69227 0.78068 0.33663 0.0
C1561 C 0.64905 0.81176 0.40862 0.0
C1562 C 0.69135 0.84175 0.37312 0.0
C1563 C 0.63179 0.8163 0.42533 0.0
C1564 C 0.75196 0.82101 0.29411 0.0
C1565 C 0.73483 0.8264 0.31084 0.0
C1566 C 0.69244 0.79774 0.34684 0.0
C1567 C 0.65592 0.82967 0.39469 0.0
C1568 C 0.67428 0.82467 0.37679 0.0
C1569 C 0.72828 0.80931 0.32586 0.0
C1570 C 0.70959 0.81474 0.34329 0.0
H1571 H 0.61973 0.8744 0.41674 0.0
H1572 H 0.64965 0.86646 0.38745 0.0
H1573 H 0.66193 0.78921 0.36527 0.0
H1574 H 0.76493 0.76391 0.30634 0.0
H1575 H 0.73524 0.77335 0.33545 0.0
C1576 C 0.20899 0.63126 0.45196 0.0
C1577 C 0.21545 0.60731 0.44677 0.0
C1578 C 0.21841 0.649 0.43952 0.0
C1579 C 0.27078 0.65895 0.40552 0.0
H1580 H 0.2342 0.71171 0.38169 0.0
C1581 C 0.30005 0.7098 0.32977 0.0
C1582 C 0.29683 0.73453 0.33082 0.0
C1583 C 0.2916 0.69683 0.34727 0.0
C1584 C 0.24472 0.69731 0.38865 0.0
H1585 H 0.23523 0.58294 0.42349 0.0
H1586 H 0.25134 0.61367 0.40157 0.0
H1587 H 0.21481 0.68372 0.40494 0.0
H1588 H 0.28283 0.76532 0.35113 0.0
H1589 H 0.26759 0.7424 0.38188 0.0
H1590 H 0.30045 0.67202 0.3887 0.0
C1591 C 0.23963 0.61891 0.41567 0.0
C1592 C 0.23362 0.68128 0.40187 0.0
C1593 C 0.23031 0.60131 0.42808 0.0
C1594 C 0.28559 0.74624 0.35005 0.0
C1595 C 0.27677 0.73315 0.36749 0.0
C1596 C 0.2818 0.67488 0.39231 0.0
C1597 C 0.2344 0.643 0.42171 0.0
C1598 C 0.24639 0.66154 0.40983 0.0
C1599 C 0.2795 0.70828 0.36608 0.0
C1600 C 0.26874 0.69384 0.3832 0.0
H1601 H 0.19771 0.63637 0.46642 0.0
H1602 H 0.21403 0.66742 0.44452 0.0
H1603 H 0.28127 0.6443 0.41199 0.0
H1604 H 0.30863 0.70038 0.31508 0.0
H1605 H 0.29372 0.67767 0.34557 0.0
C1606 C 0.52511 0.21784 0.43568 0.0
C1607 C 0.5284 0.23242 0.45684 0.0
C1608 C 0.50784 0.22359 0.41829 0.0
C1609 C 0.47309 0.27334 0.39548 0.0
H1610 H 0.4321 0.22369 0.36585 0.0
C1611 C 0.39329 0.29202 0.32933 0.0
C1612 C 0.38767 0.27442 0.31107 0.0
C1613 C 0.41114 0.28788 0.34685 0.0
C1614 C 0.44363 0.23773 0.3736 0.0
H1615 H 0.51613 0.26461 0.47625 0.0
H1616 H 0.48601 0.2748 0.44564 0.0
H1617 H 0.46135 0.21455 0.39717 0.0
H1618 H 0.397 0.23921 0.29605 0.0
H1619 H 0.42864 0.23226 0.32596 0.0
H1620 H 0.45567 0.29645 0.37161 0.0
C1621 C 0.49687 0.25888 0.4426 0.0
C1622 C 0.46033 0.23248 0.39169 0.0
C1623 C 0.514 0.25297 0.46018 0.0
C1624 C 0.40087 0.25304 0.31003 0.0
C1625 C 0.41885 0.24899 0.32735 0.0
C1626 C 0.4565 0.27857 0.37718 0.0
C1627 C 0.49357 0.2442 0.42149 0.0
C1628 C 0.47533 0.25017 0.40278 0.0
C1629 C 0.42386 0.2661 0.34635 0.0
C1630 C 0.44161 0.26079 0.3659 0.0
H1631 H 0.53588 0.20189 0.43249 0.0
H1632 H 0.5059 0.21205 0.40213 0.0
H1633 H 0.48457 0.28729 0.40354 0.0
H1634 H 0.38328 0.30863 0.33061 0.0
H1635 H 0.4143 0.30142 0.36125 0.0
C1636 C 0.63094 0.78521 0.53425 0.0
C1637 C 0.6084 0.79635 0.53577 0.0
C1638 C 0.64703 0.78563 0.55399 0.0
C1639 C 0.65228 0.79726 0.61949 0.0
H1640 H 0.71886 0.80609 0.60793 0.0
C1641 C 0.7274 0.80718 0.69493 0.0
C1642 C 0.74692 0.79164 0.69103 0.0
C1643 C 0.71012 0.81052 0.67657 0.0
C1644 C 0.70034 0.80362 0.61145 0.0
H1645 H 0.58482 0.81599 0.5596 0.0
H1646 H 0.61299 0.81695 0.59392 0.0
H1647 H 0.68902 0.80516 0.57507 0.0
H1648 H 0.76422 0.76832 0.66471 0.0
H1649 H 0.73458 0.77444 0.6329 0.0
H1650 H 0.66385 0.79568 0.656 0.0
C1651 C 0.61818 0.80768 0.57752 0.0
C1652 C 0.68322 0.80289 0.59258 0.0
C1653 C 0.60202 0.80717 0.55778 0.0
C1654 C 0.74934 0.78035 0.66831 0.0
C1655 C 0.7324 0.78395 0.65001 0.0
C1656 C 0.66945 0.79811 0.63844 0.0
C1657 C 0.64109 0.79733 0.57576 0.0
C1658 C 0.65902 0.79923 0.59624 0.0
C1659 C 0.71239 0.79876 0.65395 0.0
C1660 C 0.69373 0.80085 0.63453 0.0
H1661 H 0.63641 0.77658 0.51764 0.0
H1662 H 0.66428 0.77694 0.55209 0.0
H1663 H 0.63384 0.79429 0.62298 0.0
H1664 H 0.72502 0.81598 0.71232 0.0
H1665 H 0.69491 0.82213 0.68007 0.0
C1666 C 0.66104 0.27327 0.4671 0.0
C1667 C 0.65178 0.25295 0.47567 0.0
C1668 C 0.67846 0.27112 0.45036 0.0
C1669 C 0.70282 0.22745 0.40527 0.0
H1670 H 0.75105 0.2753 0.40313 0.0
C1671 C 0.75313 0.23859 0.32165 0.0
C1672 C 0.77664 0.24681 0.32397 0.0
C1673 C 0.74013 0.23673 0.34163 0.0
C1674 C 0.73797 0.26153 0.40364 0.0
H1675 H 0.65431 0.21458 0.4745 0.0
H1676 H 0.68507 0.21076 0.44577 0.0
H1677 H 0.72489 0.27742 0.43597 0.0
H1678 H 0.8055 0.25849 0.3489 0.0
H1679 H 0.78303 0.25461 0.38398 0.0
H1680 H 0.71617 0.21129 0.37321 0.0
C1681 C 0.6784 0.22834 0.4513 0.0
C1682 C 0.72269 0.26297 0.42232 0.0
C1683 C 0.66081 0.2305 0.4678 0.0
C1684 C 0.78735 0.25212 0.34666 0.0
C1685 C 0.7744 0.25011 0.36671 0.0
C1686 C 0.71822 0.22589 0.38673 0.0
C1687 C 0.6872 0.2486 0.44206 0.0
C1688 C 0.70464 0.24618 0.42317 0.0
C1689 C 0.75044 0.24289 0.36442 0.0
C1690 C 0.73571 0.24315 0.38542 0.0
H1691 H 0.65425 0.29076 0.47276 0.0
H1692 H 0.68452 0.2871 0.44341 0.0
H1693 H 0.68901 0.2143 0.40515 0.0
H1694 H 0.7444 0.2345 0.30434 0.0
H1695 H 0.72166 0.23144 0.3391 0.0
C1696 C 0.76407 0.55674 0.38926 0.0
C1697 C 0.77404 0.55773 0.41256 0.0
C1698 C 0.77063 0.57311 0.37371 0.0
C1699 C 0.81786 0.61645 0.36513 0.0
H1700 H 0.77022 0.6409 0.3209 0.0
C1701 C 0.83179 0.69881 0.31337 0.0
C1702 C 0.82293 0.69782 0.28973 0.0
C1703 C 0.82739 0.68037 0.32746 0.0
C1704 C 0.7838 0.63401 0.33295 0.0
H1705 H 0.79819 0.57703 0.43799 0.0
H1706 H 0.80927 0.6059 0.41111 0.0
H1707 H 0.75884 0.61196 0.34755 0.0
H1708 H 0.80314 0.67662 0.26198 0.0
H1709 H 0.79542 0.64438 0.2866 0.0
H1710 H 0.84266 0.63903 0.35079 0.0
C1711 C 0.79688 0.59211 0.40458 0.0
C1712 C 0.77729 0.61739 0.34823 0.0
C1713 C 0.79046 0.57563 0.42005 0.0
C1714 C 0.81022 0.67778 0.28017 0.0
C1715 C 0.80565 0.65944 0.2943 0.0
C1716 C 0.82432 0.63322 0.34995 0.0
C1717 C 0.78717 0.59099 0.38114 0.0
C1718 C 0.79421 0.60843 0.36459 0.0
C1719 C 0.81386 0.66071 0.3182 0.0
C1720 C 0.80734 0.64222 0.33373 0.0
H1721 H 0.75165 0.54295 0.38286 0.0
H1722 H 0.76306 0.57144 0.35571 0.0
H1723 H 0.83148 0.60964 0.37716 0.0
H1724 H 0.84156 0.71412 0.32118 0.0
H1725 H 0.8338 0.68195 0.34585 0.0
C1726 C 0.50874 0.78059 0.42746 0.0
C1727 C 0.50163 0.78151 0.45086 0.0
C1728 C 0.4918 0.77805 0.40841 0.0
C1729 C 0.42891 0.7923 0.39444 0.0
H1730 H 0.43963 0.75677 0.3346 0.0
C1731 C 0.36121 0.79483 0.31351 0.0
C1732 C 0.37103 0.7958 0.29145 0.0
C1733 C 0.37589 0.79036 0.3335 0.0
C1734 C 0.43644 0.76696 0.35114 0.0
H1735 H 0.47124 0.77891 0.47247 0.0
H1736 H 0.44179 0.77441 0.43923 0.0
H1737 H 0.46778 0.75253 0.36838 0.0
H1738 H 0.40386 0.79317 0.27299 0.0
H1739 H 0.42945 0.78606 0.30772 0.0
H1740 H 0.39805 0.80736 0.37709 0.0
C1741 C 0.46043 0.77597 0.43565 0.0
C1742 C 0.45254 0.76444 0.37051 0.0
C1743 C 0.47738 0.77835 0.4547 0.0
C1744 C 0.39576 0.79249 0.28977 0.0
C1745 C 0.41041 0.78813 0.30967 0.0
C1746 C 0.41288 0.79494 0.37503 0.0
C1747 C 0.46737 0.77648 0.41233 0.0
C1748 C 0.44915 0.77733 0.39231 0.0
C1749 C 0.4007 0.78688 0.33181 0.0
C1750 C 0.41664 0.7826 0.353 0.0
H1751 H 0.52726 0.78296 0.42384 0.0
H1752 H 0.49774 0.77861 0.39066 0.0
H1753 H 0.42595 0.80275 0.4109 0.0
H1754 H 0.34223 0.7975 0.3153 0.0
H1755 H 0.36775 0.78938 0.35021 0.0
C1756 C 0.25943 0.47647 0.44653 0.0
C1757 C 0.23571 0.48433 0.44907 0.0
C1758 C 0.26491 0.45877 0.4288 0.0
C1759 C 0.24158 0.43025 0.37135 0.0
H1760 H 0.28576 0.37919 0.38585 0.0
C1761 C 0.25779 0.34856 0.3047 0.0
C1762 C 0.2814 0.33987 0.30364 0.0
C1763 C 0.25169 0.36608 0.32241 0.0
C1764 C 0.27359 0.39346 0.38138 0.0
H1765 H 0.19917 0.47972 0.43489 0.0
H1766 H 0.20874 0.44902 0.40419 0.0
H1767 H 0.27686 0.41024 0.41659 0.0
H1768 H 0.31718 0.34324 0.32026 0.0
H1769 H 0.30669 0.37374 0.35049 0.0
H1770 H 0.23848 0.41363 0.33607 0.0
C1771 C 0.22314 0.45661 0.41572 0.0
C1772 C 0.2685 0.41127 0.39904 0.0
C1773 C 0.21765 0.47414 0.43347 0.0
C1774 C 0.29874 0.34926 0.32056 0.0
C1775 C 0.29269 0.36674 0.33809 0.0
C1776 C 0.24676 0.4125 0.35363 0.0
C1777 C 0.24681 0.44869 0.41314 0.0
C1778 C 0.25246 0.4299 0.39425 0.0
C1779 C 0.26909 0.37532 0.33939 0.0
C1780 C 0.26291 0.39389 0.35838 0.0
H1781 H 0.27375 0.48397 0.45822 0.0
H1782 H 0.28336 0.45319 0.42715 0.0
H1783 H 0.22933 0.44451 0.36699 0.0
H1784 H 0.24398 0.34172 0.29201 0.0
H1785 H 0.23328 0.37212 0.32298 0.0
C1786 C 0.52701 0.23095 0.61821 0.0
C1787 C 0.52348 0.23776 0.59503 0.0
C1788 C 0.50754 0.22844 0.63212 0.0
C1789 C 0.44125 0.22237 0.62776 0.0
H1790 H 0.4464 0.24336 0.69453 0.0
C1791 C 0.36055 0.24798 0.68297 0.0
C1792 C 0.36023 0.24039 0.70588 0.0
C1793 C 0.38052 0.24369 0.6696 0.0
C1794 C 0.44482 0.23708 0.67599 0.0
H1795 H 0.49686 0.24782 0.56845 0.0
H1796 H 0.46299 0.24412 0.59276 0.0
H1797 H 0.48137 0.24444 0.67101 0.0
H1798 H 0.3804 0.22194 0.73262 0.0
H1799 H 0.41575 0.2148 0.70926 0.0
H1800 H 0.40438 0.21606 0.63265 0.0
C1801 C 0.48068 0.23996 0.60007 0.0
C1802 C 0.46486 0.23767 0.66247 0.0
C1803 C 0.5001 0.24221 0.58612 0.0
C1804 C 0.3801 0.22784 0.71494 0.0
C1805 C 0.40035 0.22391 0.70168 0.0
C1806 C 0.42119 0.22205 0.64122 0.0
C1807 C 0.48409 0.23292 0.62324 0.0
C1808 C 0.46325 0.2307 0.63807 0.0
C1809 C 0.4008 0.23203 0.67896 0.0
C1810 C 0.42267 0.22974 0.66538 0.0
H1811 H 0.54479 0.22708 0.62545 0.0
H1812 H 0.51088 0.22267 0.64972 0.0
H1813 H 0.43943 0.21628 0.60919 0.0
H1814 H 0.34547 0.25765 0.67548 0.0
H1815 H 0.38042 0.25033 0.65225 0.0
C1816 C 0.78232 0.39777 0.50081 0.0
C1817 C 0.76331 0.41305 0.50749 0.0
C1818 C 0.78888 0.37849 0.51382 0.0
C1819 C 0.76965 0.34159 0.56029 0.0
H1820 H 0.83711 0.34014 0.5795 0.0
C1821 C 0.82947 0.31678 0.64645 0.0
C1822 C 0.819 0.29535 0.65084 0.0
C1823 C 0.82514 0.3263 0.62466 0.0
C1824 C 0.81826 0.3402 0.57418 0.0
H1825 H 0.73538 0.41896 0.53231 0.0
H1826 H 0.74667 0.38537 0.55481 0.0
H1827 H 0.82271 0.3655 0.54883 0.0
H1828 H 0.79708 0.26622 0.63552 0.0
H1829 H 0.78961 0.2828 0.59734 0.0
H1830 H 0.76501 0.31724 0.58651 0.0
C1831 C 0.75649 0.38825 0.53945 0.0
C1832 C 0.81002 0.35455 0.55644 0.0
C1833 C 0.74998 0.40757 0.5265 0.0
C1834 C 0.8054 0.28279 0.63257 0.0
C1835 C 0.80097 0.29237 0.6108 0.0
C1836 C 0.7779 0.32716 0.57796 0.0
C1837 C 0.77646 0.37394 0.53371 0.0
C1838 C 0.78553 0.35592 0.54978 0.0
C1839 C 0.81016 0.3146 0.60688 0.0
C1840 C 0.8022 0.32682 0.58557 0.0
H1841 H 0.79264 0.40113 0.48594 0.0
H1842 H 0.80409 0.36753 0.5087 0.0
H1843 H 0.75072 0.34207 0.55537 0.0
H1844 H 0.83996 0.32684 0.66028 0.0
H1845 H 0.83234 0.34355 0.62231 0.0
C1846 C 0.28837 0.57339 0.57675 0.0
C1847 C 0.27997 0.57618 0.55336 0.0
C1848 C 0.2942 0.59321 0.59225 0.0
C1849 C 0.27754 0.65623 0.60185 0.0
H1850 H 0.32548 0.65507 0.65362 0.0
C1851 C 0.28242 0.72928 0.68036 0.0
C1852 C 0.28379 0.71988 0.70251 0.0
C1853 C 0.28625 0.71449 0.65977 0.0
C1854 C 0.31204 0.65571 0.63922 0.0
H1855 H 0.27278 0.60197 0.52746 0.0
H1856 H 0.28316 0.63649 0.55448 0.0
H1857 H 0.32546 0.62374 0.62139 0.0
H1858 H 0.29085 0.68796 0.72067 0.0
H1859 H 0.29741 0.66241 0.68513 0.0
H1860 H 0.26362 0.68774 0.62015 0.0
C1861 C 0.28484 0.61898 0.56093 0.0
C1862 C 0.31201 0.63773 0.62077 0.0
C1863 C 0.27905 0.59915 0.54541 0.0
C1864 C 0.28953 0.6957 0.70381 0.0
C1865 C 0.29357 0.68108 0.68344 0.0
C1866 C 0.27759 0.67423 0.62031 0.0
C1867 C 0.29178 0.6163 0.58473 0.0
C1868 C 0.2943 0.63735 0.60224 0.0
C1869 C 0.29181 0.69019 0.66114 0.0
C1870 C 0.29436 0.67373 0.63958 0.0
H1871 H 0.28933 0.55599 0.58348 0.0
H1872 H 0.29931 0.59045 0.61049 0.0
H1873 H 0.26349 0.6564 0.58798 0.0
H1874 H 0.27802 0.74788 0.67892 0.0
H1875 H 0.28481 0.72202 0.64282 0.0
loop_
_geom_bond_atom_site_label_1
_geom_bond_atom_site_label_2
_geom_bond_distance
_geom_bond_site_symmetry_2
_ccdc_geom_bond_type
Cu0 N1 1.999 . S
Cu0 O6 1.974 . S
Cu0 N11 1.985 1_445 S
Cu0 O20 1.959 1_455 S
N1 Cu0 1.999 . S
N1 C3 1.263 . S
N1 C5 1.389 . S
N2 C3 1.358 . S
N2 C4 1.400 . S
C3 N1 1.263 . S
C3 N2 1.358 . S
C3 H9 0.930 . S
C4 N2 1.400 . S
C4 C5 1.351 . S
C4 H21 0.930 . S
C5 N1 1.389 . S
C5 C4 1.351 . S
C5 H10 0.930 . S
O6 Cu0 1.974 . S
O6 C16 1.282 1_545 S
C7 O8 1.261 . S
C7 O20 1.251 . S
O8 C7 1.261 . S
H9 C3 0.930 . S
H10 C5 0.930 . S
N11 Cu0 1.985 1_665 S
N11 C13 1.335 . S
N11 C14 1.390 . S
N12 C13 1.345 . S
N12 C15 1.336 . S
C13 N11 1.335 . S
C13 N12 1.345 . S
C13 H18 0.930 1_565 S
C14 N11 1.390 . S
C14 C15 1.346 . S
C14 H19 0.930 1_655 S
C15 N12 1.336 . S
C15 C14 1.346 . S
C15 H22 0.929 . S
C16 O6 1.282 1_565 S
C16 O17 1.216 . S
O17 C16 1.216 . S
H18 C13 0.930 1_545 S
H19 C14 0.930 1_455 S
O20 Cu0 1.959 1_655 S
O20 C7 1.251 . S
H21 C4 0.930 . S
H22 C15 0.929 . S
Cu23 N24 1.999 1_445 S
Cu23 O29 1.974 1_455 S
Cu23 N34 1.985 . S
Cu23 O43 1.959 1_545 S
N24 Cu23 1.999 1_665 S
N24 C26 1.263 . S
N24 C28 1.389 . S
N25 C26 1.358 . S
N25 C27 1.400 . S
C26 N24 1.263 . S
C26 N25 1.358 . S
C26 H32 0.930 . S
C27 N25 1.400 . S
C27 C28 1.351 . S
C27 H44 0.930 . S
C28 N24 1.389 . S
C28 C27 1.351 . S
C28 H33 0.930 1_655 S
O29 Cu23 1.974 1_655 S
O29 C39 1.282 . S
C30 O31 1.261 . S
C30 O43 1.251 . S
O31 C30 1.261 . S
H32 C26 0.930 . S
H33 C28 0.930 1_455 S
N34 Cu23 1.985 . S
N34 C36 1.335 . S
N34 C37 1.390 . S
N35 C36 1.345 . S
N35 C38 1.336 . S
C36 N34 1.335 . S
C36 N35 1.345 . S
C36 H41 0.930 . S
C37 N34 1.390 . S
C37 C38 1.346 . S
C37 H42 0.930 . S
C38 N35 1.336 . S
C38 C37 1.346 . S
C38 H45 0.929 . S
C39 O29 1.282 . S
C39 O40 1.216 . S
O40 C39 1.216 . S
H41 C36 0.930 . S
H42 C37 0.930 . S
O43 Cu23 1.959 1_565 S
O43 C30 1.251 . S
H44 C27 0.930 . S
H45 C38 0.929 . S
Cu46 N47 1.991 1_544 S
Cu46 O52 1.963 1_545 S
Cu46 N57 1.993 . S
Cu46 O66 1.970 1_554 S
N47 Cu46 1.991 1_566 S
N47 C49 1.263 . S
N47 C51 1.389 . S
N48 C49 1.358 . S
N48 C50 1.400 . S
C49 N47 1.263 . S
C49 N48 1.358 . S
C49 H55 0.930 . S
C50 N48 1.400 . S
C50 C51 1.351 . S
C50 H67 0.930 . S
C51 N47 1.389 . S
C51 C50 1.351 . S
C51 H56 0.930 . S
O52 Cu46 1.963 1_565 S
O52 C62 1.282 . S
C53 O54 1.261 . S
C53 O66 1.251 . S
O54 C53 1.261 . S
H55 C49 0.930 . S
H56 C51 0.930 . S
N57 Cu46 1.993 . S
N57 C59 1.335 . S
N57 C60 1.390 . S
N58 C59 1.345 . S
N58 C61 1.336 . S
C59 N57 1.335 . S
C59 N58 1.345 . S
C59 H64 0.930 . S
C60 N57 1.390 . S
C60 C61 1.346 . S
C60 H65 0.930 . S
C61 N58 1.336 . S
C61 C60 1.346 . S
C61 H68 0.929 . S
C62 O52 1.282 . S
C62 O63 1.216 . S
O63 C62 1.216 . S
H64 C59 0.930 . S
H65 C60 0.930 . S
O66 Cu46 1.970 1_556 S
O66 C53 1.251 . S
H67 C50 0.930 . S
H68 C61 0.929 . S
Cu69 N70 1.999 1_554 S
Cu69 O75 1.974 . S
Cu69 N80 1.985 1_455 S
Cu69 O89 1.959 1_454 S
N70 Cu69 1.999 1_556 S
N70 C72 1.263 . S
N70 C74 1.389 . S
N71 C72 1.358 . S
N71 C73 1.400 . S
C72 N70 1.263 . S
C72 N71 1.358 . S
C72 H78 0.930 . S
C73 N71 1.400 . S
C73 C74 1.351 . S
C73 H90 0.930 . S
C74 N70 1.389 . S
C74 C73 1.351 . S
C74 H79 0.930 . S
O75 Cu69 1.974 . S
O75 C85 1.282 . S
C76 O77 1.261 . S
C76 O89 1.251 . S
O77 C76 1.261 . S
H78 C72 0.930 . S
H79 C74 0.930 . S
N80 Cu69 1.985 1_655 S
N80 C82 1.335 . S
N80 C83 1.390 . S
N81 C82 1.345 . S
N81 C84 1.336 . S
C82 N80 1.335 . S
C82 N81 1.345 . S
C82 H87 0.930 . S
C83 N80 1.390 . S
C83 C84 1.346 . S
C83 H88 0.930 1_655 S
C84 N81 1.336 . S
C84 C83 1.346 . S
C84 H91 0.929 . S
C85 O75 1.282 . S
C85 O86 1.216 . S
O86 C85 1.216 . S
H87 C82 0.930 . S
H88 C83 0.930 1_455 S
O89 Cu69 1.959 1_656 S
O89 C76 1.251 . S
H90 C73 0.930 . S
H91 C84 0.929 . S
Cu92 N93 1.999 1_554 S
Cu92 O98 1.974 . S
Cu92 N103 1.985 . S
Cu92 O112 1.959 1_554 S
N93 Cu92 1.999 1_556 S
N93 C95 1.263 . S
N93 C97 1.389 . S
N94 C95 1.358 . S
N94 C96 1.400 . S
C95 N93 1.263 . S
C95 N94 1.358 . S
C95 H101 0.930 1_556 S
C96 N94 1.400 . S
C96 C97 1.351 . S
C96 H113 0.930 . S
C97 N93 1.389 . S
C97 C96 1.351 . S
C97 H102 0.930 . S
O98 Cu92 1.974 . S
O98 C108 1.282 . S
C99 O100 1.261 . S
C99 O112 1.251 . S
O100 C99 1.261 . S
H101 C95 0.930 1_554 S
H102 C97 0.930 . S
N103 Cu92 1.985 . S
N103 C105 1.384 . S
N103 C106 1.390 . S
N104 C105 1.322 1_565 S
N104 C107 1.336 1_565 S
C105 N103 1.384 . S
C105 N104 1.322 1_545 S
C105 H110 0.908 1_545 S
C106 N103 1.390 . S
C106 C107 1.346 . S
C106 H111 0.930 . S
C107 N104 1.336 1_545 S
C107 C106 1.346 . S
C107 H114 0.929 . S
C108 O98 1.282 . S
C108 O109 1.216 . S
O109 C108 1.216 . S
H110 C105 0.908 1_565 S
H111 C106 0.930 . S
O112 Cu92 1.959 1_556 S
O112 C99 1.251 . S
H113 C96 0.930 . S
H114 C107 0.929 . S
Cu115 N116 1.999 1_454 S
Cu115 O121 1.974 1_455 S
Cu115 N126 1.985 . S
Cu115 O135 1.959 1_554 S
N116 Cu115 1.999 1_656 S
N116 C118 1.263 . S
N116 C120 1.389 . S
N117 C118 1.358 . S
N117 C119 1.400 . S
C118 N116 1.263 . S
C118 N117 1.358 . S
C118 H124 0.930 . S
C119 N117 1.400 . S
C119 C120 1.351 . S
C119 H136 0.930 . S
C120 N116 1.389 . S
C120 C119 1.351 . S
C120 H125 0.930 1_655 S
O121 Cu115 1.974 1_655 S
O121 C131 1.282 . S
C122 O123 1.261 . S
C122 O135 1.251 . S
O123 C122 1.261 . S
H124 C118 0.930 . S
H125 C120 0.930 1_455 S
N126 Cu115 1.985 . S
N126 C128 1.335 . S
N126 C129 1.390 . S
N127 C128 1.345 . S
N127 C130 1.336 . S
C128 N126 1.335 . S
C128 N127 1.345 . S
C128 H133 0.930 . S
C129 N126 1.390 . S
C129 C130 1.346 . S
C129 H134 0.930 . S
C130 N127 1.336 . S
C130 C129 1.346 . S
C130 H137 0.929 . S
C131 O121 1.282 . S
C131 O132 1.216 . S
O132 C131 1.216 . S
H133 C128 0.930 . S
H134 C129 0.930 . S
O135 Cu115 1.959 1_556 S
O135 C122 1.251 . S
H136 C119 0.930 . S
H137 C130 0.929 . S
Cu138 N139 1.999 . S
Cu138 O144 1.974 . S
Cu138 N149 1.985 . S
Cu138 O158 1.959 . S
N139 Cu138 1.999 . S
N139 C141 1.263 . S
N139 C143 1.389 . S
N140 C141 1.358 . S
N140 C142 1.400 . S
C141 N139 1.263 . S
C141 N140 1.358 . S
C141 H147 0.930 . S
C142 N140 1.400 . S
C142 C143 1.351 . S
C142 H159 0.930 . S
C143 N139 1.389 . S
C143 C142 1.351 . S
C143 H148 0.930 . S
O144 Cu138 1.974 . S
O144 C154 1.282 . S
C145 O146 1.261 . S
C145 O158 1.251 . S
O146 C145 1.261 . S
H147 C141 0.930 . S
H148 C143 0.930 . S
N149 Cu138 1.985 . S
N149 C151 1.335 . S
N149 C152 1.390 . S
N150 C151 1.345 . S
N150 C153 1.336 . S
C151 N149 1.335 . S
C151 N150 1.345 . S
C151 H156 0.930 . S
C152 N149 1.390 . S
C152 C153 1.346 . S
C152 H157 0.930 . S
C153 N150 1.336 . S
C153 C152 1.346 . S
C153 H160 0.929 . S
C154 O144 1.282 . S
C154 O155 1.216 . S
O155 C154 1.216 . S
H156 C151 0.930 . S
H157 C152 0.930 . S
O158 Cu138 1.959 . S
O158 C145 1.251 . S
H159 C142 0.930 . S
H160 C153 0.929 . S
Cu161 N162 1.999 . S
Cu161 O167 1.974 . S
Cu161 N172 1.985 . S
Cu161 O181 1.959 . S
N162 Cu161 1.999 . S
N162 C164 1.263 . S
N162 C166 1.389 . S
N163 C164 1.358 . S
N163 C165 1.400 . S
C164 N162 1.263 . S
C164 N163 1.358 . S
C164 H170 0.930 . S
C165 N163 1.400 . S
C165 C166 1.351 . S
C165 H182 0.930 . S
C166 N162 1.389 . S
C166 C165 1.351 . S
C166 H171 0.930 . S
O167 Cu161 1.974 . S
O167 C177 1.282 . S
C168 O169 1.261 . S
C168 O181 1.251 . S
O169 C168 1.261 . S
H170 C164 0.930 . S
H171 C166 0.930 . S
N172 Cu161 1.985 . S
N172 C174 1.335 . S
N172 C175 1.390 . S
N173 C174 1.345 . S
N173 C176 1.336 . S
C174 N172 1.335 . S
C174 N173 1.345 . S
C174 H179 0.930 . S
C175 N172 1.390 . S
C175 C176 1.346 . S
C175 H180 0.930 . S
C176 N173 1.336 . S
C176 C175 1.346 . S
C176 H183 0.929 . S
C177 O167 1.282 . S
C177 O178 1.216 . S
O178 C177 1.216 . S
H179 C174 0.930 . S
H180 C175 0.930 . S
O181 Cu161 1.959 . S
O181 C168 1.251 . S
H182 C165 0.930 . S
H183 C176 0.929 . S
Cu184 N185 1.999 . S
Cu184 O190 1.974 . S
Cu184 N195 1.985 . S
Cu184 O204 1.959 . S
N185 Cu184 1.999 . S
N185 C187 1.263 . S
N185 C189 1.389 . S
N186 C187 1.358 . S
N186 C188 1.400 . S
C187 N185 1.263 . S
C187 N186 1.358 . S
C187 H193 0.930 . S
C188 N186 1.400 . S
C188 C189 1.351 . S
C188 H205 0.930 . S
C189 N185 1.389 . S
C189 C188 1.351 . S
C189 H194 0.930 . S
O190 Cu184 1.974 . S
O190 C200 1.282 . S
C191 O192 1.261 . S
C191 O204 1.251 . S
O192 C191 1.261 . S
H193 C187 0.930 . S
H194 C189 0.930 . S
N195 Cu184 1.985 . S
N195 C197 1.335 . S
N195 C198 1.390 . S
N196 C197 1.345 . S
N196 C199 1.336 . S
C197 N195 1.335 . S
C197 N196 1.345 . S
C197 H202 0.930 . S
C198 N195 1.390 . S
C198 C199 1.346 . S
C198 H203 0.930 . S
C199 N196 1.336 . S
C199 C198 1.346 . S
C199 H206 0.929 . S
C200 O190 1.282 . S
C200 O201 1.216 . S
O201 C200 1.216 . S
H202 C197 0.930 . S
H203 C198 0.930 . S
O204 Cu184 1.959 . S
O204 C191 1.251 . S
H205 C188 0.930 . S
H206 C199 0.929 . S
Cu207 N208 1.999 . S
Cu207 O213 1.974 . S
Cu207 N218 1.985 . S
Cu207 O227 1.959 . S
N208 Cu207 1.999 . S
N208 C210 1.263 . S
N208 C212 1.389 . S
N209 C210 1.358 . S
N209 C211 1.400 . S
C210 N208 1.263 . S
C210 N209 1.358 . S
C210 H216 0.930 . S
C211 N209 1.400 . S
C211 C212 1.351 . S
C211 H228 0.930 . S
C212 N208 1.389 . S
C212 C211 1.351 . S
C212 H217 0.930 . S
O213 Cu207 1.974 . S
O213 C223 1.282 . S
C214 O215 1.261 . S
C214 O227 1.251 . S
O215 C214 1.261 . S
H216 C210 0.930 . S
H217 C212 0.930 . S
N218 Cu207 1.985 . S
N218 C220 1.335 . S
N218 C221 1.390 . S
N219 C220 1.345 . S
N219 C222 1.336 . S
C220 N218 1.335 . S
C220 N219 1.345 . S
C220 H225 0.930 . S
C221 N218 1.390 . S
C221 C222 1.346 . S
C221 H226 0.930 . S
C222 N219 1.336 . S
C222 C221 1.346 . S
C222 H229 0.929 . S
C223 O213 1.282 . S
C223 O224 1.216 . S
O224 C223 1.216 . S
H225 C220 0.930 . S
H226 C221 0.930 . S
O227 Cu207 1.959 . S
O227 C214 1.251 . S
H228 C211 0.930 . S
H229 C222 0.929 . S
Cu230 N231 1.999 . S
Cu230 O236 1.974 . S
Cu230 N241 1.985 . S
Cu230 O250 1.959 . S
N231 Cu230 1.999 . S
N231 C233 1.263 . S
N231 C235 1.389 . S
N232 C233 1.358 . S
N232 C234 1.400 . S
C233 N231 1.263 . S
C233 N232 1.358 . S
C233 H239 0.930 . S
C234 N232 1.400 . S
C234 C235 1.351 . S
C234 H251 0.930 . S
C235 N231 1.389 . S
C235 C234 1.351 . S
C235 H240 0.930 . S
O236 Cu230 1.974 . S
O236 C246 1.282 . S
C237 O238 1.261 . S
C237 O250 1.251 . S
O238 C237 1.261 . S
H239 C233 0.930 . S
H240 C235 0.930 . S
N241 Cu230 1.985 . S
N241 C243 1.335 . S
N241 C244 1.390 . S
N242 C243 1.345 . S
N242 C245 1.336 . S
C243 N241 1.335 . S
C243 N242 1.345 . S
C243 H248 0.930 . S
C244 N241 1.390 . S
C244 C245 1.346 . S
C244 H249 0.930 . S
C245 N242 1.336 . S
C245 C244 1.346 . S
C245 H252 0.929 . S
C246 O236 1.282 . S
C246 O247 1.216 . S
O247 C246 1.216 . S
H248 C243 0.930 . S
H249 C244 0.930 . S
O250 Cu230 1.959 . S
O250 C237 1.251 . S
H251 C234 0.930 . S
H252 C245 0.929 . S
Cu253 N254 1.999 . S
Cu253 O259 1.974 . S
Cu253 N264 1.985 . S
Cu253 O273 1.959 . S
N254 Cu253 1.999 . S
N254 C256 1.263 . S
N254 C258 1.389 . S
N255 C256 1.358 . S
N255 C257 1.400 . S
C256 N254 1.263 . S
C256 N255 1.358 . S
C256 H262 0.930 . S
C257 N255 1.400 . S
C257 C258 1.351 . S
C257 H274 0.930 . S
C258 N254 1.389 . S
C258 C257 1.351 . S
C258 H263 0.930 . S
O259 Cu253 1.974 . S
O259 C269 1.282 . S
C260 O261 1.261 . S
C260 O273 1.251 . S
O261 C260 1.261 . S
H262 C256 0.930 . S
H263 C258 0.930 . S
N264 Cu253 1.985 . S
N264 C266 1.335 . S
N264 C267 1.390 . S
N265 C266 1.345 . S
N265 C268 1.336 . S
C266 N264 1.335 . S
C266 N265 1.345 . S
C266 H271 0.930 . S
C267 N264 1.390 . S
C267 C268 1.346 . S
C267 H272 0.930 . S
C268 N265 1.336 . S
C268 C267 1.346 . S
C268 H275 0.929 . S
C269 O259 1.282 . S
C269 O270 1.216 . S
O270 C269 1.216 . S
H271 C266 0.930 . S
H272 C267 0.930 . S
O273 Cu253 1.959 . S
O273 C260 1.251 . S
H274 C257 0.930 . S
H275 C268 0.929 . S
Tb276 O279 2.453 . S
Tb276 O280 2.596 . S
Tb276 O281 2.374 . S
Tb276 O289 2.343 . S
Tb276 O291 2.353 . S
Tb276 O293 2.427 . S
Tb276 O294 2.513 . S
C277 O281 1.251 . S
C277 O283 1.263 . S
Tb278 O280 2.343 . S
Tb278 O283 2.353 . S
Tb278 O286 2.427 . S
Tb278 O287 2.513 . S
Tb278 O288 2.453 . S
Tb278 O289 2.596 . S
Tb278 O290 2.374 . S
O279 Tb276 2.453 . S
O279 C295 1.245 . S
O280 Tb276 2.596 . S
O280 Tb278 2.343 . S
O280 C295 1.259 . S
O281 Tb276 2.374 . S
O281 C277 1.251 . S
C282 O286 1.275 . S
C282 O287 1.246 . S
O283 C277 1.263 . S
O283 Tb278 2.353 . S
C284 O288 1.245 . S
C284 O289 1.259 . S
C285 O290 1.250 . S
C285 O291 1.263 . S
O286 Tb278 2.427 . S
O286 C282 1.275 . S
O287 Tb278 2.513 . S
O287 C282 1.246 . S
O288 Tb278 2.453 . S
O288 C284 1.245 . S
O289 Tb276 2.343 . S
O289 Tb278 2.596 . S
O289 C284 1.259 . S
O290 Tb278 2.374 . S
O290 C285 1.250 . S
O291 Tb276 2.353 . S
O291 C285 1.263 . S
C292 O293 1.275 . S
C292 O294 1.246 . S
O293 Tb276 2.427 . S
O293 C292 1.275 . S
O294 Tb276 2.513 . S
O294 C292 1.246 . S
C295 O279 1.245 . S
C295 O280 1.259 . S
Tb296 O299 2.453 . S
Tb296 O300 2.596 . S
Tb296 O301 2.374 . S
Tb296 O309 2.343 . S
Tb296 O311 2.353 . S
Tb296 O313 2.427 . S
Tb296 O314 2.513 . S
C297 O301 1.251 . S
C297 O303 1.263 . S
Tb298 O300 2.343 . S
Tb298 O303 2.353 . S
Tb298 O306 2.427 . S
Tb298 O307 2.513 . S
Tb298 O308 2.453 . S
Tb298 O309 2.596 . S
Tb298 O310 2.374 . S
O299 Tb296 2.453 . S
O299 C315 1.245 . S
O300 Tb296 2.596 . S
O300 Tb298 2.343 . S
O300 C315 1.259 . S
O301 Tb296 2.374 . S
O301 C297 1.251 . S
C302 O306 1.275 . S
C302 O307 1.246 . S
O303 C297 1.263 . S
O303 Tb298 2.353 . S
C304 O308 1.245 . S
C304 O309 1.259 . S
C305 O310 1.250 . S
C305 O311 1.263 . S
O306 Tb298 2.427 . S
O306 C302 1.275 . S
O307 Tb298 2.513 . S
O307 C302 1.246 . S
O308 Tb298 2.453 . S
O308 C304 1.245 . S
O309 Tb296 2.343 . S
O309 Tb298 2.596 . S
O309 C304 1.259 . S
O310 Tb298 2.374 . S
O310 C305 1.250 . S
O311 Tb296 2.353 . S
O311 C305 1.263 . S
C312 O313 1.275 . S
C312 O314 1.246 . S
O313 Tb296 2.427 . S
O313 C312 1.275 . S
O314 Tb296 2.513 . S
O314 C312 1.246 . S
C315 O299 1.245 . S
C315 O300 1.259 . S
Tb316 O319 2.453 . S
Tb316 O320 2.596 . S
Tb316 O321 2.374 . S
Tb316 O329 2.343 . S
Tb316 O331 2.353 . S
Tb316 O333 2.427 . S
Tb316 O334 2.513 . S
C317 O321 1.251 . S
C317 O323 1.263 . S
Tb318 O320 2.343 . S
Tb318 O323 2.353 . S
Tb318 O326 2.427 . S
Tb318 O327 2.513 . S
Tb318 O328 2.453 . S
Tb318 O329 2.596 . S
Tb318 O330 2.374 . S
O319 Tb316 2.453 . S
O319 C335 1.245 . S
O320 Tb316 2.596 . S
O320 Tb318 2.343 . S
O320 C335 1.259 . S
O321 Tb316 2.374 . S
O321 C317 1.251 . S
C322 O326 1.275 . S
C322 O327 1.246 . S
O323 C317 1.263 . S
O323 Tb318 2.353 . S
C324 O328 1.245 . S
C324 O329 1.259 . S
C325 O330 1.250 . S
C325 O331 1.263 . S
O326 Tb318 2.427 . S
O326 C322 1.275 . S
O327 Tb318 2.513 . S
O327 C322 1.246 . S
O328 Tb318 2.453 . S
O328 C324 1.245 . S
O329 Tb316 2.343 . S
O329 Tb318 2.596 . S
O329 C324 1.259 . S
O330 Tb318 2.374 . S
O330 C325 1.250 . S
O331 Tb316 2.353 . S
O331 C325 1.263 . S
C332 O333 1.275 . S
C332 O334 1.246 . S
O333 Tb316 2.427 . S
O333 C332 1.275 . S
O334 Tb316 2.513 . S
O334 C332 1.246 . S
C335 O319 1.245 . S
C335 O320 1.259 . S
Tb336 O339 2.453 . S
Tb336 O340 2.596 . S
Tb336 O341 2.374 . S
Tb336 O349 2.343 . S
Tb336 O351 2.353 . S
Tb336 O353 2.427 . S
Tb336 O354 2.513 . S
C337 O341 1.251 . S
C337 O343 1.263 . S
Tb338 O340 2.343 . S
Tb338 O343 2.353 . S
Tb338 O346 2.427 . S
Tb338 O347 2.513 . S
Tb338 O348 2.453 . S
Tb338 O349 2.596 . S
Tb338 O350 2.374 . S
O339 Tb336 2.453 . S
O339 C355 1.245 . S
O340 Tb336 2.596 . S
O340 Tb338 2.343 . S
O340 C355 1.259 . S
O341 Tb336 2.374 . S
O341 C337 1.251 . S
C342 O346 1.275 . S
C342 O347 1.246 . S
O343 C337 1.263 . S
O343 Tb338 2.353 . S
C344 O348 1.245 . S
C344 O349 1.259 . S
C345 O350 1.250 . S
C345 O351 1.263 . S
O346 Tb338 2.427 . S
O346 C342 1.275 . S
O347 Tb338 2.513 . S
O347 C342 1.246 . S
O348 Tb338 2.453 . S
O348 C344 1.245 . S
O349 Tb336 2.343 . S
O349 Tb338 2.596 . S
O349 C344 1.259 . S
O350 Tb338 2.374 . S
O350 C345 1.250 . S
O351 Tb336 2.353 . S
O351 C345 1.263 . S
C352 O353 1.275 . S
C352 O354 1.246 . S
O353 Tb336 2.427 . S
O353 C352 1.275 . S
O354 Tb336 2.513 . S
O354 C352 1.246 . S
C355 O339 1.245 . S
C355 O340 1.259 . S
Tb356 O359 2.453 . S
Tb356 O360 2.596 . S
Tb356 O361 2.374 . S
Tb356 O369 2.343 . S
Tb356 O371 2.353 . S
Tb356 O373 2.427 . S
Tb356 O374 2.513 . S
C357 O361 1.251 . S
C357 O363 1.263 . S
Tb358 O360 2.343 . S
Tb358 O363 2.353 . S
Tb358 O366 2.427 . S
Tb358 O367 2.513 . S
Tb358 O368 2.453 . S
Tb358 O369 2.596 . S
Tb358 O370 2.374 . S
O359 Tb356 2.453 . S
O359 C375 1.245 . S
O360 Tb356 2.596 . S
O360 Tb358 2.343 . S
O360 C375 1.259 . S
O361 Tb356 2.374 . S
O361 C357 1.251 . S
C362 O366 1.275 . S
C362 O367 1.246 . S
O363 C357 1.263 . S
O363 Tb358 2.353 . S
C364 O368 1.245 . S
C364 O369 1.259 . S
C365 O370 1.250 . S
C365 O371 1.263 . S
O366 Tb358 2.427 . S
O366 C362 1.275 . S
O367 Tb358 2.513 . S
O367 C362 1.246 . S
O368 Tb358 2.453 . S
O368 C364 1.245 . S
O369 Tb356 2.343 . S
O369 Tb358 2.596 . S
O369 C364 1.259 . S
O370 Tb358 2.374 . S
O370 C365 1.250 . S
O371 Tb356 2.353 . S
O371 C365 1.263 . S
C372 O373 1.275 . S
C372 O374 1.246 . S
O373 Tb356 2.427 . S
O373 C372 1.275 . S
O374 Tb356 2.513 . S
O374 C372 1.246 . S
C375 O359 1.245 . S
C375 O360 1.259 . S
Tb376 O379 2.453 . S
Tb376 O380 2.596 . S
Tb376 O381 2.374 . S
Tb376 O389 2.343 . S
Tb376 O391 2.353 . S
Tb376 O393 2.427 . S
Tb376 O394 2.513 . S
C377 O381 1.251 . S
C377 O383 1.263 . S
Tb378 O380 2.343 . S
Tb378 O383 2.353 . S
Tb378 O386 2.427 . S
Tb378 O387 2.513 . S
Tb378 O388 2.453 . S
Tb378 O389 2.596 . S
Tb378 O390 2.374 . S
O379 Tb376 2.453 . S
O379 C395 1.245 . S
O380 Tb376 2.596 . S
O380 Tb378 2.343 . S
O380 C395 1.259 . S
O381 Tb376 2.374 . S
O381 C377 1.251 . S
C382 O386 1.275 . S
C382 O387 1.246 . S
O383 C377 1.263 . S
O383 Tb378 2.353 . S
C384 O388 1.245 . S
C384 O389 1.259 . S
C385 O390 1.250 . S
C385 O391 1.263 . S
O386 Tb378 2.427 . S
O386 C382 1.275 . S
O387 Tb378 2.513 . S
O387 C382 1.246 . S
O388 Tb378 2.453 . S
O388 C384 1.245 . S
O389 Tb376 2.343 . S
O389 Tb378 2.596 . S
O389 C384 1.259 . S
O390 Tb378 2.374 . S
O390 C385 1.250 . S
O391 Tb376 2.353 . S
O391 C385 1.263 . S
C392 O393 1.275 . S
C392 O394 1.246 . S
O393 Tb376 2.427 . S
O393 C392 1.275 . S
O394 Tb376 2.513 . S
O394 C392 1.246 . S
C395 O379 1.245 . S
C395 O380 1.259 . S
Tb396 O399 2.453 . S
Tb396 O400 2.596 . S
Tb396 O401 2.374 . S
Tb396 O409 2.343 . S
Tb396 O411 2.353 . S
Tb396 O413 2.427 . S
Tb396 O414 2.513 . S
C397 O401 1.251 . S
C397 O403 1.263 . S
Tb398 O400 2.343 . S
Tb398 O403 2.353 . S
Tb398 O406 2.427 . S
Tb398 O407 2.513 . S
Tb398 O408 2.453 . S
Tb398 O409 2.596 . S
Tb398 O410 2.374 . S
O399 Tb396 2.453 . S
O399 C415 1.245 . S
O400 Tb396 2.596 . S
O400 Tb398 2.343 . S
O400 C415 1.259 . S
O401 Tb396 2.374 . S
O401 C397 1.251 . S
C402 O406 1.275 . S
C402 O407 1.246 . S
O403 C397 1.263 . S
O403 Tb398 2.353 . S
C404 O408 1.245 . S
C404 O409 1.259 . S
C405 O410 1.250 . S
C405 O411 1.263 . S
O406 Tb398 2.427 . S
O406 C402 1.275 . S
O407 Tb398 2.513 . S
O407 C402 1.246 . S
O408 Tb398 2.453 . S
O408 C404 1.245 . S
O409 Tb396 2.343 . S
O409 Tb398 2.596 . S
O409 C404 1.259 . S
O410 Tb398 2.374 . S
O410 C405 1.250 . S
O411 Tb396 2.353 . S
O411 C405 1.263 . S
C412 O413 1.275 . S
C412 O414 1.246 . S
O413 Tb396 2.427 . S
O413 C412 1.275 . S
O414 Tb396 2.513 . S
O414 C412 1.246 . S
C415 O399 1.245 . S
C415 O400 1.259 . S
Tb416 O419 2.453 . S
Tb416 O420 2.596 . S
Tb416 O421 2.374 . S
Tb416 O429 2.343 . S
Tb416 O431 2.353 . S
Tb416 O433 2.427 . S
Tb416 O434 2.513 . S
C417 O421 1.251 . S
C417 O423 1.263 . S
Tb418 O420 2.343 . S
Tb418 O423 2.353 . S
Tb418 O426 2.427 . S
Tb418 O427 2.513 . S
Tb418 O428 2.453 . S
Tb418 O429 2.596 . S
Tb418 O430 2.374 . S
O419 Tb416 2.453 . S
O419 C435 1.245 . S
O420 Tb416 2.596 . S
O420 Tb418 2.343 . S
O420 C435 1.259 . S
O421 Tb416 2.374 . S
O421 C417 1.251 . S
C422 O426 1.275 . S
C422 O427 1.246 . S
O423 C417 1.263 . S
O423 Tb418 2.353 . S
C424 O428 1.245 . S
C424 O429 1.259 . S
C425 O430 1.250 . S
C425 O431 1.263 . S
O426 Tb418 2.427 . S
O426 C422 1.275 . S
O427 Tb418 2.513 . S
O427 C422 1.246 . S
O428 Tb418 2.453 . S
O428 C424 1.245 . S
O429 Tb416 2.343 . S
O429 Tb418 2.596 . S
O429 C424 1.259 . S
O430 Tb418 2.374 . S
O430 C425 1.250 . S
O431 Tb416 2.353 . S
O431 C425 1.263 . S
C432 O433 1.275 . S
C432 O434 1.246 . S
O433 Tb416 2.427 . S
O433 C432 1.275 . S
O434 Tb416 2.513 . S
O434 C432 1.246 . S
C435 O419 1.245 . S
C435 O420 1.259 . S
C436 C437 1.349 . S
C436 C438 1.327 . S
C436 H461 0.950 . S
C437 C436 1.349 . S
C437 C453 1.349 . S
C438 C436 1.327 . S
C438 C457 1.429 . S
C438 H462 0.950 . S
C439 C456 1.574 . S
C439 C458 1.368 . S
C439 H463 0.949 . S
H440 C444 0.949 . S
C441 C442 1.349 . S
C441 C443 1.327 . S
C441 H464 0.950 . S
C442 C441 1.349 . S
C442 C454 1.349 . S
C443 C441 1.327 . S
C443 C459 1.429 . S
C443 H465 0.950 . S
C444 H440 0.949 . S
C444 C452 1.574 . S
C444 C460 1.368 . S
H445 C453 0.950 . S
H446 C451 0.950 . S
H447 C452 0.949 . S
H448 C454 0.950 . S
H449 C455 0.950 . S
H450 C456 0.949 . S
C451 H446 0.950 . S
C451 C453 1.327 . S
C451 C457 1.429 . S
C452 C444 1.574 . S
C452 H447 0.949 . S
C452 C458 1.368 . S
C453 C437 1.349 . S
C453 H445 0.950 . S
C453 C451 1.327 . S
C454 C442 1.349 . S
C454 H448 0.950 . S
C454 C455 1.327 . S
C455 H449 0.950 . S
C455 C454 1.327 . S
C455 C459 1.429 . S
C456 C439 1.574 . S
C456 H450 0.949 . S
C456 C460 1.368 . S
C457 C438 1.429 . S
C457 C451 1.429 . S
C457 C458 1.523 . S
C458 C439 1.368 . S
C458 C452 1.368 . S
C458 C457 1.523 . S
C459 C443 1.429 . S
C459 C455 1.429 . S
C459 C460 1.523 . S
C460 C444 1.368 . S
C460 C456 1.368 . S
C460 C459 1.523 . S
H461 C436 0.950 . S
H462 C438 0.950 . S
H463 C439 0.949 . S
H464 C441 0.950 . S
H465 C443 0.950 . S
C466 C467 1.349 . S
C466 C468 1.327 . S
C466 H491 0.950 . S
C467 C466 1.349 . S
C467 C483 1.349 . S
C468 C466 1.327 . S
C468 C487 1.429 . S
C468 H492 0.950 . S
C469 C486 1.574 . S
C469 C488 1.368 . S
C469 H493 0.949 . S
H470 C474 0.949 . S
C471 C472 1.349 . S
C471 C473 1.327 . S
C471 H494 0.950 . S
C472 C471 1.349 . S
C472 C484 1.349 . S
C473 C471 1.327 . S
C473 C489 1.429 . S
C473 H495 0.950 . S
C474 H470 0.949 . S
C474 C482 1.574 . S
C474 C490 1.368 . S
H475 C483 0.950 . S
H476 C481 0.950 . S
H477 C482 0.949 . S
H478 C484 0.950 . S
H479 C485 0.950 . S
H480 C486 0.949 . S
C481 H476 0.950 . S
C481 C483 1.327 . S
C481 C487 1.429 . S
C482 C474 1.574 . S
C482 H477 0.949 . S
C482 C488 1.368 . S
C483 C467 1.349 . S
C483 H475 0.950 . S
C483 C481 1.327 . S
C484 C472 1.349 . S
C484 H478 0.950 . S
C484 C485 1.327 . S
C485 H479 0.950 . S
C485 C484 1.327 . S
C485 C489 1.429 . S
C486 C469 1.574 . S
C486 H480 0.949 . S
C486 C490 1.368 . S
C487 C468 1.429 . S
C487 C481 1.429 . S
C487 C488 1.523 . S
C488 C469 1.368 . S
C488 C482 1.368 . S
C488 C487 1.523 . S
C489 C473 1.429 . S
C489 C485 1.429 . S
C489 C490 1.523 . S
C490 C474 1.368 . S
C490 C486 1.368 . S
C490 C489 1.523 . S
H491 C466 0.950 . S
H492 C468 0.950 . S
H493 C469 0.949 . S
H494 C471 0.950 . S
H495 C473 0.950 . S
C496 C497 1.349 . S
C496 C498 1.327 . S
C496 H521 0.950 . S
C497 C496 1.349 . S
C497 C513 1.349 . S
C498 C496 1.327 . S
C498 C517 1.429 . S
C498 H522 0.950 . S
C499 C516 1.574 . S
C499 C518 1.368 . S
C499 H523 0.949 . S
H500 C504 0.949 . S
C501 C502 1.349 . S
C501 C503 1.327 . S
C501 H524 0.950 . S
C502 C501 1.349 . S
C502 C514 1.349 . S
C503 C501 1.327 . S
C503 C519 1.429 . S
C503 H525 0.950 . S
C504 H500 0.949 . S
C504 C512 1.574 . S
C504 C520 1.368 . S
H505 C513 0.950 . S
H506 C511 0.950 . S
H507 C512 0.949 . S
H508 C514 0.950 . S
H509 C515 0.950 . S
H510 C516 0.949 . S
C511 H506 0.950 . S
C511 C513 1.327 . S
C511 C517 1.429 . S
C512 C504 1.574 . S
C512 H507 0.949 . S
C512 C518 1.368 . S
C513 C497 1.349 . S
C513 H505 0.950 . S
C513 C511 1.327 . S
C514 C502 1.349 . S
C514 H508 0.950 . S
C514 C515 1.327 . S
C515 H509 0.950 . S
C515 C514 1.327 . S
C515 C519 1.429 . S
C516 C499 1.574 . S
C516 H510 0.949 . S
C516 C520 1.368 . S
C517 C498 1.429 . S
C517 C511 1.429 . S
C517 C518 1.523 . S
C518 C499 1.368 . S
C518 C512 1.368 . S
C518 C517 1.523 . S
C519 C503 1.429 . S
C519 C515 1.429 . S
C519 C520 1.523 . S
C520 C504 1.368 . S
C520 C516 1.368 . S
C520 C519 1.523 . S
H521 C496 0.950 . S
H522 C498 0.950 . S
H523 C499 0.949 . S
H524 C501 0.950 . S
H525 C503 0.950 . S
C526 C527 1.349 . S
C526 C528 1.327 . S
C526 H551 0.950 . S
C527 C526 1.349 . S
C527 C543 1.349 . S
C528 C526 1.327 . S
C528 C547 1.429 . S
C528 H552 0.950 . S
C529 C546 1.574 . S
C529 C548 1.368 . S
C529 H553 0.949 . S
H530 C534 0.949 . S
C531 C532 1.349 . S
C531 C533 1.327 . S
C531 H554 0.950 . S
C532 C531 1.349 . S
C532 C544 1.349 . S
C533 C531 1.327 . S
C533 C549 1.429 . S
C533 H555 0.950 . S
C534 H530 0.949 . S
C534 C542 1.574 . S
C534 C550 1.368 . S
H535 C543 0.950 . S
H536 C541 0.950 . S
H537 C542 0.949 . S
H538 C544 0.950 . S
H539 C545 0.950 . S
H540 C546 0.949 . S
C541 H536 0.950 . S
C541 C543 1.327 . S
C541 C547 1.429 . S
C542 C534 1.574 . S
C542 H537 0.949 . S
C542 C548 1.368 . S
C543 C527 1.349 . S
C543 H535 0.950 . S
C543 C541 1.327 . S
C544 C532 1.349 . S
C544 H538 0.950 . S
C544 C545 1.327 . S
C545 H539 0.950 . S
C545 C544 1.327 . S
C545 C549 1.429 . S
C546 C529 1.574 . S
C546 H540 0.949 . S
C546 C550 1.368 . S
C547 C528 1.429 . S
C547 C541 1.429 . S
C547 C548 1.523 . S
C548 C529 1.368 . S
C548 C542 1.368 . S
C548 C547 1.523 . S
C549 C533 1.429 . S
C549 C545 1.429 . S
C549 C550 1.523 . S
C550 C534 1.368 . S
C550 C546 1.368 . S
C550 C549 1.523 . S
H551 C526 0.950 . S
H552 C528 0.950 . S
H553 C529 0.949 . S
H554 C531 0.950 . S
H555 C533 0.950 . S
C556 C557 1.349 . S
C556 C558 1.327 . S
C556 H581 0.950 . S
C557 C556 1.349 . S
C557 C573 1.349 . S
C558 C556 1.327 . S
C558 C577 1.429 . S
C558 H582 0.950 . S
C559 C576 1.574 . S
C559 C578 1.368 . S
C559 H583 0.949 . S
H560 C564 0.949 . S
C561 C562 1.349 . S
C561 C563 1.327 . S
C561 H584 0.950 . S
C562 C561 1.349 . S
C562 C574 1.349 . S
C563 C561 1.327 . S
C563 C579 1.429 . S
C563 H585 0.950 . S
C564 H560 0.949 . S
C564 C572 1.574 . S
C564 C580 1.368 . S
H565 C573 0.950 . S
H566 C571 0.950 . S
H567 C572 0.949 . S
H568 C574 0.950 . S
H569 C575 0.950 . S
H570 C576 0.949 . S
C571 H566 0.950 . S
C571 C573 1.327 . S
C571 C577 1.429 . S
C572 C564 1.574 . S
C572 H567 0.949 . S
C572 C578 1.368 . S
C573 C557 1.349 . S
C573 H565 0.950 . S
C573 C571 1.327 . S
C574 C562 1.349 . S
C574 H568 0.950 . S
C574 C575 1.327 . S
C575 H569 0.950 . S
C575 C574 1.327 . S
C575 C579 1.429 . S
C576 C559 1.574 . S
C576 H570 0.949 . S
C576 C580 1.368 . S
C577 C558 1.429 . S
C577 C571 1.429 . S
C577 C578 1.523 . S
C578 C559 1.368 . S
C578 C572 1.368 . S
C578 C577 1.523 . S
C579 C563 1.429 . S
C579 C575 1.429 . S
C579 C580 1.523 . S
C580 C564 1.368 . S
C580 C576 1.368 . S
C580 C579 1.523 . S
H581 C556 0.950 . S
H582 C558 0.950 . S
H583 C559 0.949 . S
H584 C561 0.950 . S
H585 C563 0.950 . S
C586 C587 1.349 . S
C586 C588 1.327 . S
C586 H611 0.950 . S
C587 C586 1.349 . S
C587 C603 1.349 . S
C588 C586 1.327 . S
C588 C607 1.429 . S
C588 H612 0.950 . S
C589 C606 1.574 . S
C589 C608 1.368 . S
C589 H613 0.949 . S
H590 C594 0.949 . S
C591 C592 1.349 . S
C591 C593 1.327 . S
C591 H614 0.950 . S
C592 C591 1.349 . S
C592 C604 1.349 . S
C593 C591 1.327 . S
C593 C609 1.429 . S
C593 H615 0.950 . S
C594 H590 0.949 . S
C594 C602 1.574 . S
C594 C610 1.368 . S
H595 C603 0.950 . S
H596 C601 0.950 . S
H597 C602 0.949 . S
H598 C604 0.950 . S
H599 C605 0.950 . S
H600 C606 0.949 . S
C601 H596 0.950 . S
C601 C603 1.327 . S
C601 C607 1.429 . S
C602 C594 1.574 . S
C602 H597 0.949 . S
C602 C608 1.368 . S
C603 C587 1.349 . S
C603 H595 0.950 . S
C603 C601 1.327 . S
C604 C592 1.349 . S
C604 H598 0.950 . S
C604 C605 1.327 . S
C605 H599 0.950 . S
C605 C604 1.327 . S
C605 C609 1.429 . S
C606 C589 1.574 . S
C606 H600 0.949 . S
C606 C610 1.368 . S
C607 C588 1.429 . S
C607 C601 1.429 . S
C607 C608 1.523 . S
C608 C589 1.368 . S
C608 C602 1.368 . S
C608 C607 1.523 . S
C609 C593 1.429 . S
C609 C605 1.429 . S
C609 C610 1.523 . S
C610 C594 1.368 . S
C610 C606 1.368 . S
C610 C609 1.523 . S
H611 C586 0.950 . S
H612 C588 0.950 . S
H613 C589 0.949 . S
H614 C591 0.950 . S
H615 C593 0.950 . S
C616 C617 1.349 . S
C616 C618 1.327 . S
C616 H641 0.950 . S
C617 C616 1.349 . S
C617 C633 1.349 . S
C618 C616 1.327 . S
C618 C637 1.429 . S
C618 H642 0.950 . S
C619 C636 1.574 . S
C619 C638 1.368 . S
C619 H643 0.949 . S
H620 C624 0.949 . S
C621 C622 1.349 . S
C621 C623 1.327 . S
C621 H644 0.950 . S
C622 C621 1.349 . S
C622 C634 1.349 . S
C623 C621 1.327 . S
C623 C639 1.429 . S
C623 H645 0.950 . S
C624 H620 0.949 . S
C624 C632 1.574 . S
C624 C640 1.368 . S
H625 C633 0.950 . S
H626 C631 0.950 . S
H627 C632 0.949 . S
H628 C634 0.950 . S
H629 C635 0.950 . S
H630 C636 0.949 . S
C631 H626 0.950 . S
C631 C633 1.327 . S
C631 C637 1.429 . S
C632 C624 1.574 . S
C632 H627 0.949 . S
C632 C638 1.368 . S
C633 C617 1.349 . S
C633 H625 0.950 . S
C633 C631 1.327 . S
C634 C622 1.349 . S
C634 H628 0.950 . S
C634 C635 1.327 . S
C635 H629 0.950 . S
C635 C634 1.327 . S
C635 C639 1.429 . S
C636 C619 1.574 . S
C636 H630 0.949 . S
C636 C640 1.368 . S
C637 C618 1.429 . S
C637 C631 1.429 . S
C637 C638 1.523 . S
C638 C619 1.368 . S
C638 C632 1.368 . S
C638 C637 1.523 . S
C639 C623 1.429 . S
C639 C635 1.429 . S
C639 C640 1.523 . S
C640 C624 1.368 . S
C640 C636 1.368 . S
C640 C639 1.523 . S
H641 C616 0.950 . S
H642 C618 0.950 . S
H643 C619 0.949 . S
H644 C621 0.950 . S
H645 C623 0.950 . S
C646 C647 1.349 . S
C646 C648 1.327 . S
C646 H671 0.950 . S
C647 C646 1.349 . S
C647 C663 1.349 . S
C648 C646 1.327 . S
C648 C667 1.429 . S
C648 H672 0.950 . S
C649 C666 1.574 . S
C649 C668 1.368 . S
C649 H673 0.949 . S
H650 C654 0.949 . S
C651 C652 1.349 . S
C651 C653 1.327 . S
C651 H674 0.950 . S
C652 C651 1.349 . S
C652 C664 1.349 . S
C653 C651 1.327 . S
C653 C669 1.429 . S
C653 H675 0.950 . S
C654 H650 0.949 . S
C654 C662 1.574 . S
C654 C670 1.368 . S
H655 C663 0.950 . S
H656 C661 0.950 . S
H657 C662 0.949 . S
H658 C664 0.950 . S
H659 C665 0.950 . S
H660 C666 0.949 . S
C661 H656 0.950 . S
C661 C663 1.327 . S
C661 C667 1.429 . S
C662 C654 1.574 . S
C662 H657 0.949 . S
C662 C668 1.368 . S
C663 C647 1.349 . S
C663 H655 0.950 . S
C663 C661 1.327 . S
C664 C652 1.349 . S
C664 H658 0.950 . S
C664 C665 1.327 . S
C665 H659 0.950 . S
C665 C664 1.327 . S
C665 C669 1.429 . S
C666 C649 1.574 . S
C666 H660 0.949 . S
C666 C670 1.368 . S
C667 C648 1.429 . S
C667 C661 1.429 . S
C667 C668 1.523 . S
C668 C649 1.368 . S
C668 C662 1.368 . S
C668 C667 1.523 . S
C669 C653 1.429 . S
C669 C665 1.429 . S
C669 C670 1.523 . S
C670 C654 1.368 . S
C670 C666 1.368 . S
C670 C669 1.523 . S
H671 C646 0.950 . S
H672 C648 0.950 . S
H673 C649 0.949 . S
H674 C651 0.950 . S
H675 C653 0.950 . S
C676 C677 1.349 . S
C676 C678 1.327 . S
C676 H701 0.950 . S
C677 C676 1.349 . S
C677 C693 1.349 . S
C678 C676 1.327 . S
C678 C697 1.429 . S
C678 H702 0.950 . S
C679 C696 1.574 . S
C679 C698 1.368 . S
C679 H703 0.949 . S
H680 C684 0.949 . S
C681 C682 1.349 . S
C681 C683 1.327 . S
C681 H704 0.950 . S
C682 C681 1.349 . S
C682 C694 1.349 . S
C683 C681 1.327 . S
C683 C699 1.429 . S
C683 H705 0.950 . S
C684 H680 0.949 . S
C684 C692 1.574 . S
C684 C700 1.368 . S
H685 C693 0.950 . S
H686 C691 0.950 . S
H687 C692 0.949 . S
H688 C694 0.950 . S
H689 C695 0.950 . S
H690 C696 0.949 . S
C691 H686 0.950 . S
C691 C693 1.327 . S
C691 C697 1.429 . S
C692 C684 1.574 . S
C692 H687 0.949 . S
C692 C698 1.368 . S
C693 C677 1.349 . S
C693 H685 0.950 . S
C693 C691 1.327 . S
C694 C682 1.349 . S
C694 H688 0.950 . S
C694 C695 1.327 . S
C695 H689 0.950 . S
C695 C694 1.327 . S
C695 C699 1.429 . S
C696 C679 1.574 . S
C696 H690 0.949 . S
C696 C700 1.368 . S
C697 C678 1.429 . S
C697 C691 1.429 . S
C697 C698 1.523 . S
C698 C679 1.368 . S
C698 C692 1.368 . S
C698 C697 1.523 . S
C699 C683 1.429 . S
C699 C695 1.429 . S
C699 C700 1.523 . S
C700 C684 1.368 . S
C700 C696 1.368 . S
C700 C699 1.523 . S
H701 C676 0.950 . S
H702 C678 0.950 . S
H703 C679 0.949 . S
H704 C681 0.950 . S
H705 C683 0.950 . S
C706 C707 1.349 . S
C706 C708 1.327 . S
C706 H731 0.950 . S
C707 C706 1.349 . S
C707 C723 1.349 . S
C708 C706 1.327 . S
C708 C727 1.429 . S
C708 H732 0.950 . S
C709 C726 1.574 . S
C709 C728 1.368 . S
C709 H733 0.949 . S
H710 C714 0.949 . S
C711 C712 1.349 . S
C711 C713 1.327 . S
C711 H734 0.950 . S
C712 C711 1.349 . S
C712 C724 1.349 . S
C713 C711 1.327 . S
C713 C729 1.429 . S
C713 H735 0.950 . S
C714 H710 0.949 . S
C714 C722 1.574 . S
C714 C730 1.368 . S
H715 C723 0.950 . S
H716 C721 0.950 . S
H717 C722 0.949 . S
H718 C724 0.950 . S
H719 C725 0.950 . S
H720 C726 0.949 . S
C721 H716 0.950 . S
C721 C723 1.327 . S
C721 C727 1.429 . S
C722 C714 1.574 . S
C722 H717 0.949 . S
C722 C728 1.368 . S
C723 C707 1.349 . S
C723 H715 0.950 . S
C723 C721 1.327 . S
C724 C712 1.349 . S
C724 H718 0.950 . S
C724 C725 1.327 . S
C725 H719 0.950 . S
C725 C724 1.327 . S
C725 C729 1.429 . S
C726 C709 1.574 . S
C726 H720 0.949 . S
C726 C730 1.368 . S
C727 C708 1.429 . S
C727 C721 1.429 . S
C727 C728 1.523 . S
C728 C709 1.368 . S
C728 C722 1.368 . S
C728 C727 1.523 . S
C729 C713 1.429 . S
C729 C725 1.429 . S
C729 C730 1.523 . S
C730 C714 1.368 . S
C730 C726 1.368 . S
C730 C729 1.523 . S
H731 C706 0.950 . S
H732 C708 0.950 . S
H733 C709 0.949 . S
H734 C711 0.950 . S
H735 C713 0.950 . S
C736 C737 1.349 . S
C736 C738 1.327 . S
C736 H761 0.950 . S
C737 C736 1.349 . S
C737 C753 1.349 . S
C738 C736 1.327 . S
C738 C757 1.429 . S
C738 H762 0.950 . S
C739 C756 1.574 . S
C739 C758 1.368 . S
C739 H763 0.949 . S
H740 C744 0.949 . S
C741 C742 1.349 . S
C741 C743 1.327 . S
C741 H764 0.950 . S
C742 C741 1.349 . S
C742 C754 1.349 . S
C743 C741 1.327 . S
C743 C759 1.429 . S
C743 H765 0.950 . S
C744 H740 0.949 . S
C744 C752 1.574 . S
C744 C760 1.368 . S
H745 C753 0.950 . S
H746 C751 0.950 . S
H747 C752 0.949 . S
H748 C754 0.950 . S
H749 C755 0.950 . S
H750 C756 0.949 . S
C751 H746 0.950 . S
C751 C753 1.327 . S
C751 C757 1.429 . S
C752 C744 1.574 . S
C752 H747 0.949 . S
C752 C758 1.368 . S
C753 C737 1.349 . S
C753 H745 0.950 . S
C753 C751 1.327 . S
C754 C742 1.349 . S
C754 H748 0.950 . S
C754 C755 1.327 . S
C755 H749 0.950 . S
C755 C754 1.327 . S
C755 C759 1.429 . S
C756 C739 1.574 . S
C756 H750 0.949 . S
C756 C760 1.368 . S
C757 C738 1.429 . S
C757 C751 1.429 . S
C757 C758 1.523 . S
C758 C739 1.368 . S
C758 C752 1.368 . S
C758 C757 1.523 . S
C759 C743 1.429 . S
C759 C755 1.429 . S
C759 C760 1.523 . S
C760 C744 1.368 . S
C760 C756 1.368 . S
C760 C759 1.523 . S
H761 C736 0.950 . S
H762 C738 0.950 . S
H763 C739 0.949 . S
H764 C741 0.950 . S
H765 C743 0.950 . S
C766 C767 1.349 . S
C766 C768 1.327 . S
C766 H791 0.950 . S
C767 C766 1.349 . S
C767 C783 1.349 . S
C768 C766 1.327 . S
C768 C787 1.429 . S
C768 H792 0.950 . S
C769 C786 1.574 . S
C769 C788 1.368 . S
C769 H793 0.949 . S
H770 C774 0.949 . S
C771 C772 1.349 . S
C771 C773 1.327 . S
C771 H794 0.950 . S
C772 C771 1.349 . S
C772 C784 1.349 . S
C773 C771 1.327 . S
C773 C789 1.429 . S
C773 H795 0.950 . S
C774 H770 0.949 . S
C774 C782 1.574 . S
C774 C790 1.368 . S
H775 C783 0.950 . S
H776 C781 0.950 . S
H777 C782 0.949 . S
H778 C784 0.950 . S
H779 C785 0.950 . S
H780 C786 0.949 . S
C781 H776 0.950 . S
C781 C783 1.327 . S
C781 C787 1.429 . S
C782 C774 1.574 . S
C782 H777 0.949 . S
C782 C788 1.368 . S
C783 C767 1.349 . S
C783 H775 0.950 . S
C783 C781 1.327 . S
C784 C772 1.349 . S
C784 H778 0.950 . S
C784 C785 1.327 . S
C785 H779 0.950 . S
C785 C784 1.327 . S
C785 C789 1.429 . S
C786 C769 1.574 . S
C786 H780 0.949 . S
C786 C790 1.368 . S
C787 C768 1.429 . S
C787 C781 1.429 . S
C787 C788 1.523 . S
C788 C769 1.368 . S
C788 C782 1.368 . S
C788 C787 1.523 . S
C789 C773 1.429 . S
C789 C785 1.429 . S
C789 C790 1.523 . S
C790 C774 1.368 . S
C790 C786 1.368 . S
C790 C789 1.523 . S
H791 C766 0.950 . S
H792 C768 0.950 . S
H793 C769 0.949 . S
H794 C771 0.950 . S
H795 C773 0.950 . S
C796 C797 1.349 . S
C796 C798 1.327 . S
C796 H821 0.950 . S
C797 C796 1.349 . S
C797 C813 1.349 . S
C798 C796 1.327 . S
C798 C817 1.429 . S
C798 H822 0.950 . S
C799 C816 1.574 . S
C799 C818 1.368 . S
C799 H823 0.949 . S
H800 C804 0.949 . S
C801 C802 1.349 . S
C801 C803 1.327 . S
C801 H824 0.950 . S
C802 C801 1.349 . S
C802 C814 1.349 . S
C803 C801 1.327 . S
C803 C819 1.429 . S
C803 H825 0.950 . S
C804 H800 0.949 . S
C804 C812 1.574 . S
C804 C820 1.368 . S
H805 C813 0.950 . S
H806 C811 0.950 . S
H807 C812 0.949 . S
H808 C814 0.950 . S
H809 C815 0.950 . S
H810 C816 0.949 . S
C811 H806 0.950 . S
C811 C813 1.327 . S
C811 C817 1.429 . S
C812 C804 1.574 . S
C812 H807 0.949 . S
C812 C818 1.368 . S
C813 C797 1.349 . S
C813 H805 0.950 . S
C813 C811 1.327 . S
C814 C802 1.349 . S
C814 H808 0.950 . S
C814 C815 1.327 . S
C815 H809 0.950 . S
C815 C814 1.327 . S
C815 C819 1.429 . S
C816 C799 1.574 . S
C816 H810 0.949 . S
C816 C820 1.368 . S
C817 C798 1.429 . S
C817 C811 1.429 . S
C817 C818 1.523 . S
C818 C799 1.368 . S
C818 C812 1.368 . S
C818 C817 1.523 . S
C819 C803 1.429 . S
C819 C815 1.429 . S
C819 C820 1.523 . S
C820 C804 1.368 . S
C820 C816 1.368 . S
C820 C819 1.523 . S
H821 C796 0.950 . S
H822 C798 0.950 . S
H823 C799 0.949 . S
H824 C801 0.950 . S
H825 C803 0.950 . S
C826 C827 1.349 . S
C826 C828 1.327 . S
C826 H851 0.950 . S
C827 C826 1.349 . S
C827 C843 1.349 . S
C828 C826 1.327 . S
C828 C847 1.429 . S
C828 H852 0.950 . S
C829 C846 1.574 . S
C829 C848 1.368 . S
C829 H853 0.949 . S
H830 C834 0.949 . S
C831 C832 1.349 . S
C831 C833 1.327 . S
C831 H854 0.950 . S
C832 C831 1.349 . S
C832 C844 1.349 . S
C833 C831 1.327 . S
C833 C849 1.429 . S
C833 H855 0.950 . S
C834 H830 0.949 . S
C834 C842 1.574 . S
C834 C850 1.368 . S
H835 C843 0.950 . S
H836 C841 0.950 . S
H837 C842 0.949 . S
H838 C844 0.950 . S
H839 C845 0.950 . S
H840 C846 0.949 . S
C841 H836 0.950 . S
C841 C843 1.327 . S
C841 C847 1.429 . S
C842 C834 1.574 . S
C842 H837 0.949 . S
C842 C848 1.368 . S
C843 C827 1.349 . S
C843 H835 0.950 . S
C843 C841 1.327 . S
C844 C832 1.349 . S
C844 H838 0.950 . S
C844 C845 1.327 . S
C845 H839 0.950 . S
C845 C844 1.327 . S
C845 C849 1.429 . S
C846 C829 1.574 . S
C846 H840 0.949 . S
C846 C850 1.368 . S
C847 C828 1.429 . S
C847 C841 1.429 . S
C847 C848 1.523 . S
C848 C829 1.368 . S
C848 C842 1.368 . S
C848 C847 1.523 . S
C849 C833 1.429 . S
C849 C845 1.429 . S
C849 C850 1.523 . S
C850 C834 1.368 . S
C850 C846 1.368 . S
C850 C849 1.523 . S
H851 C826 0.950 . S
H852 C828 0.950 . S
H853 C829 0.949 . S
H854 C831 0.950 . S
H855 C833 0.950 . S
C856 C857 1.349 . S
C856 C858 1.327 . S
C856 H881 0.950 . S
C857 C856 1.349 . S
C857 C873 1.349 . S
C858 C856 1.327 . S
C858 C877 1.429 . S
C858 H882 0.950 . S
C859 C876 1.574 . S
C859 C878 1.368 . S
C859 H883 0.949 . S
H860 C864 0.949 . S
C861 C862 1.349 . S
C861 C863 1.327 . S
C861 H884 0.950 . S
C862 C861 1.349 . S
C862 C874 1.349 . S
C863 C861 1.327 . S
C863 C879 1.429 . S
C863 H885 0.950 . S
C864 H860 0.949 . S
C864 C872 1.574 . S
C864 C880 1.368 . S
H865 C873 0.950 . S
H866 C871 0.950 . S
H867 C872 0.949 . S
H868 C874 0.950 . S
H869 C875 0.950 . S
H870 C876 0.949 . S
C871 H866 0.950 . S
C871 C873 1.327 . S
C871 C877 1.429 . S
C872 C864 1.574 . S
C872 H867 0.949 . S
C872 C878 1.368 . S
C873 C857 1.349 . S
C873 H865 0.950 . S
C873 C871 1.327 . S
C874 C862 1.349 . S
C874 H868 0.950 . S
C874 C875 1.327 . S
C875 H869 0.950 . S
C875 C874 1.327 . S
C875 C879 1.429 . S
C876 C859 1.574 . S
C876 H870 0.949 . S
C876 C880 1.368 . S
C877 C858 1.429 . S
C877 C871 1.429 . S
C877 C878 1.523 . S
C878 C859 1.368 . S
C878 C872 1.368 . S
C878 C877 1.523 . S
C879 C863 1.429 . S
C879 C875 1.429 . S
C879 C880 1.523 . S
C880 C864 1.368 . S
C880 C876 1.368 . S
C880 C879 1.523 . S
H881 C856 0.950 . S
H882 C858 0.950 . S
H883 C859 0.949 . S
H884 C861 0.950 . S
H885 C863 0.950 . S
C886 C887 1.349 . S
C886 C888 1.327 . S
C886 H911 0.950 . S
C887 C886 1.349 . S
C887 C903 1.349 . S
C888 C886 1.327 . S
C888 C907 1.429 . S
C888 H912 0.950 . S
C889 C906 1.574 . S
C889 C908 1.368 . S
C889 H913 0.949 . S
H890 C894 0.949 . S
C891 C892 1.349 . S
C891 C893 1.327 . S
C891 H914 0.950 . S
C892 C891 1.349 . S
C892 C904 1.349 . S
C893 C891 1.327 . S
C893 C909 1.429 . S
C893 H915 0.950 . S
C894 H890 0.949 . S
C894 C902 1.574 . S
C894 C910 1.368 . S
H895 C903 0.950 . S
H896 C901 0.950 . S
H897 C902 0.949 . S
H898 C904 0.950 . S
H899 C905 0.950 . S
H900 C906 0.949 . S
C901 H896 0.950 . S
C901 C903 1.327 . S
C901 C907 1.429 . S
C902 C894 1.574 . S
C902 H897 0.949 . S
C902 C908 1.368 . S
C903 C887 1.349 . S
C903 H895 0.950 . S
C903 C901 1.327 . S
C904 C892 1.349 . S
C904 H898 0.950 . S
C904 C905 1.327 . S
C905 H899 0.950 . S
C905 C904 1.327 . S
C905 C909 1.429 . S
C906 C889 1.574 . S
C906 H900 0.949 . S
C906 C910 1.368 . S
C907 C888 1.429 . S
C907 C901 1.429 . S
C907 C908 1.523 . S
C908 C889 1.368 . S
C908 C902 1.368 . S
C908 C907 1.523 . S
C909 C893 1.429 . S
C909 C905 1.429 . S
C909 C910 1.523 . S
C910 C894 1.368 . S
C910 C906 1.368 . S
C910 C909 1.523 . S
H911 C886 0.950 . S
H912 C888 0.950 . S
H913 C889 0.949 . S
H914 C891 0.950 . S
H915 C893 0.950 . S
C916 C917 1.349 . S
C916 C918 1.327 . S
C916 H941 0.950 . S
C917 C916 1.349 . S
C917 C933 1.349 . S
C918 C916 1.327 . S
C918 C937 1.429 . S
C918 H942 0.950 . S
C919 C936 1.574 . S
C919 C938 1.368 . S
C919 H943 0.949 . S
H920 C924 0.949 . S
C921 C922 1.349 . S
C921 C923 1.327 . S
C921 H944 0.950 . S
C922 C921 1.349 . S
C922 C934 1.349 . S
C923 C921 1.327 . S
C923 C939 1.429 . S
C923 H945 0.950 . S
C924 H920 0.949 . S
C924 C932 1.574 . S
C924 C940 1.368 . S
H925 C933 0.950 . S
H926 C931 0.950 . S
H927 C932 0.949 . S
H928 C934 0.950 . S
H929 C935 0.950 . S
H930 C936 0.949 . S
C931 H926 0.950 . S
C931 C933 1.327 . S
C931 C937 1.429 . S
C932 C924 1.574 . S
C932 H927 0.949 . S
C932 C938 1.368 . S
C933 C917 1.349 . S
C933 H925 0.950 . S
C933 C931 1.327 . S
C934 C922 1.349 . S
C934 H928 0.950 . S
C934 C935 1.327 . S
C935 H929 0.950 . S
C935 C934 1.327 . S
C935 C939 1.429 . S
C936 C919 1.574 . S
C936 H930 0.949 . S
C936 C940 1.368 . S
C937 C918 1.429 . S
C937 C931 1.429 . S
C937 C938 1.523 . S
C938 C919 1.368 . S
C938 C932 1.368 . S
C938 C937 1.523 . S
C939 C923 1.429 . S
C939 C935 1.429 . S
C939 C940 1.523 . S
C940 C924 1.368 . S
C940 C936 1.368 . S
C940 C939 1.523 . S
H941 C916 0.950 . S
H942 C918 0.950 . S
H943 C919 0.949 . S
H944 C921 0.950 . S
H945 C923 0.950 . S
C946 C947 1.349 . S
C946 C948 1.327 . S
C946 H971 0.950 . S
C947 C946 1.349 . S
C947 C963 1.349 . S
C948 C946 1.327 . S
C948 C967 1.429 . S
C948 H972 0.950 . S
C949 C966 1.574 . S
C949 C968 1.368 . S
C949 H973 0.949 . S
H950 C954 0.949 . S
C951 C952 1.349 . S
C951 C953 1.327 . S
C951 H974 0.950 . S
C952 C951 1.349 . S
C952 C964 1.349 . S
C953 C951 1.327 . S
C953 C969 1.429 . S
C953 H975 0.950 . S
C954 H950 0.949 . S
C954 C962 1.574 . S
C954 C970 1.368 . S
H955 C963 0.950 . S
H956 C961 0.950 . S
H957 C962 0.949 . S
H958 C964 0.950 . S
H959 C965 0.950 . S
H960 C966 0.949 . S
C961 H956 0.950 . S
C961 C963 1.327 . S
C961 C967 1.429 . S
C962 C954 1.574 . S
C962 H957 0.949 . S
C962 C968 1.368 . S
C963 C947 1.349 . S
C963 H955 0.950 . S
C963 C961 1.327 . S
C964 C952 1.349 . S
C964 H958 0.950 . S
C964 C965 1.327 . S
C965 H959 0.950 . S
C965 C964 1.327 . S
C965 C969 1.429 . S
C966 C949 1.574 . S
C966 H960 0.949 . S
C966 C970 1.368 . S
C967 C948 1.429 . S
C967 C961 1.429 . S
C967 C968 1.523 . S
C968 C949 1.368 . S
C968 C962 1.368 . S
C968 C967 1.523 . S
C969 C953 1.429 . S
C969 C965 1.429 . S
C969 C970 1.523 . S
C970 C954 1.368 . S
C970 C966 1.368 . S
C970 C969 1.523 . S
H971 C946 0.950 . S
H972 C948 0.950 . S
H973 C949 0.949 . S
H974 C951 0.950 . S
H975 C953 0.950 . S
C976 C977 1.349 . S
C976 C978 1.327 . S
C976 H1001 0.950 . S
C977 C976 1.349 . S
C977 C993 1.349 . S
C978 C976 1.327 . S
C978 C997 1.429 . S
C978 H1002 0.950 . S
C979 C996 1.574 . S
C979 C998 1.368 . S
C979 H1003 0.949 . S
H980 C984 0.949 . S
C981 C982 1.349 . S
C981 C983 1.327 . S
C981 H1004 0.950 . S
C982 C981 1.349 . S
C982 C994 1.349 . S
C983 C981 1.327 . S
C983 C999 1.429 . S
C983 H1005 0.950 . S
C984 H980 0.949 . S
C984 C992 1.574 . S
C984 C1000 1.368 . S
H985 C993 0.950 . S
H986 C991 0.950 . S
H987 C992 0.949 . S
H988 C994 0.950 . S
H989 C995 0.950 . S
H990 C996 0.949 . S
C991 H986 0.950 . S
C991 C993 1.327 . S
C991 C997 1.429 . S
C992 C984 1.574 . S
C992 H987 0.949 . S
C992 C998 1.368 . S
C993 C977 1.349 . S
C993 H985 0.950 . S
C993 C991 1.327 . S
C994 C982 1.349 . S
C994 H988 0.950 . S
C994 C995 1.327 . S
C995 H989 0.950 . S
C995 C994 1.327 . S
C995 C999 1.429 . S
C996 C979 1.574 . S
C996 H990 0.949 . S
C996 C1000 1.368 . S
C997 C978 1.429 . S
C997 C991 1.429 . S
C997 C998 1.523 . S
C998 C979 1.368 . S
C998 C992 1.368 . S
C998 C997 1.523 . S
C999 C983 1.429 . S
C999 C995 1.429 . S
C999 C1000 1.523 . S
C1000 C984 1.368 . S
C1000 C996 1.368 . S
C1000 C999 1.523 . S
H1001 C976 0.950 . S
H1002 C978 0.950 . S
H1003 C979 0.949 . S
H1004 C981 0.950 . S
H1005 C983 0.950 . S
C1006 C1007 1.349 . S
C1006 C1008 1.327 . S
C1006 H1031 0.950 . S
C1007 C1006 1.349 . S
C1007 C1023 1.349 . S
C1008 C1006 1.327 . S
C1008 C1027 1.429 . S
C1008 H1032 0.950 . S
C1009 C1026 1.574 . S
C1009 C1028 1.368 . S
C1009 H1033 0.949 . S
H1010 C1014 0.949 . S
C1011 C1012 1.349 . S
C1011 C1013 1.327 . S
C1011 H1034 0.950 . S
C1012 C1011 1.349 . S
C1012 C1024 1.349 . S
C1013 C1011 1.327 . S
C1013 C1029 1.429 . S
C1013 H1035 0.950 . S
C1014 H1010 0.949 . S
C1014 C1022 1.574 . S
C1014 C1030 1.368 . S
H1015 C1023 0.950 . S
H1016 C1021 0.950 . S
H1017 C1022 0.949 . S
H1018 C1024 0.950 . S
H1019 C1025 0.950 . S
H1020 C1026 0.949 . S
C1021 H1016 0.950 . S
C1021 C1023 1.327 . S
C1021 C1027 1.429 . S
C1022 C1014 1.574 . S
C1022 H1017 0.949 . S
C1022 C1028 1.368 . S
C1023 C1007 1.349 . S
C1023 H1015 0.950 . S
C1023 C1021 1.327 . S
C1024 C1012 1.349 . S
C1024 H1018 0.950 . S
C1024 C1025 1.327 . S
C1025 H1019 0.950 . S
C1025 C1024 1.327 . S
C1025 C1029 1.429 . S
C1026 C1009 1.574 . S
C1026 H1020 0.949 . S
C1026 C1030 1.368 . S
C1027 C1008 1.429 . S
C1027 C1021 1.429 . S
C1027 C1028 1.523 . S
C1028 C1009 1.368 . S
C1028 C1022 1.368 . S
C1028 C1027 1.523 . S
C1029 C1013 1.429 . S
C1029 C1025 1.429 . S
C1029 C1030 1.523 . S
C1030 C1014 1.368 . S
C1030 C1026 1.368 . S
C1030 C1029 1.523 . S
H1031 C1006 0.950 . S
H1032 C1008 0.950 . S
H1033 C1009 0.949 . S
H1034 C1011 0.950 . S
H1035 C1013 0.950 . S
C1036 C1037 1.349 . S
C1036 C1038 1.327 . S
C1036 H1061 0.950 1_565 S
C1037 C1036 1.349 . S
C1037 C1053 1.349 . S
C1038 C1036 1.327 . S
C1038 C1057 1.429 . S
C1038 H1062 0.950 . S
C1039 C1056 1.574 . S
C1039 C1058 1.368 . S
C1039 H1063 0.949 . S
H1040 C1044 0.949 . S
C1041 C1042 1.349 . S
C1041 C1043 1.327 . S
C1041 H1064 0.950 . S
C1042 C1041 1.349 . S
C1042 C1054 1.349 . S
C1043 C1041 1.327 . S
C1043 C1059 1.429 . S
C1043 H1065 0.950 . S
C1044 H1040 0.949 . S
C1044 C1052 1.574 . S
C1044 C1060 1.368 . S
H1045 C1053 0.950 . S
H1046 C1051 0.950 . S
H1047 C1052 0.949 . S
H1048 C1054 0.950 . S
H1049 C1055 0.950 . S
H1050 C1056 0.949 . S
C1051 H1046 0.950 . S
C1051 C1053 1.327 . S
C1051 C1057 1.429 . S
C1052 C1044 1.574 . S
C1052 H1047 0.949 . S
C1052 C1058 1.368 . S
C1053 C1037 1.349 . S
C1053 H1045 0.950 . S
C1053 C1051 1.327 . S
C1054 C1042 1.349 . S
C1054 H1048 0.950 . S
C1054 C1055 1.327 . S
C1055 H1049 0.950 . S
C1055 C1054 1.327 . S
C1055 C1059 1.429 . S
C1056 C1039 1.574 . S
C1056 H1050 0.949 . S
C1056 C1060 1.368 . S
C1057 C1038 1.429 . S
C1057 C1051 1.429 . S
C1057 C1058 1.523 . S
C1058 C1039 1.368 . S
C1058 C1052 1.368 . S
C1058 C1057 1.523 . S
C1059 C1043 1.429 . S
C1059 C1055 1.429 . S
C1059 C1060 1.523 . S
C1060 C1044 1.368 . S
C1060 C1056 1.368 . S
C1060 C1059 1.523 . S
H1061 C1036 0.950 1_545 S
H1062 C1038 0.950 . S
H1063 C1039 0.949 . S
H1064 C1041 0.950 . S
H1065 C1043 0.950 . S
C1066 C1067 1.349 . S
C1066 C1068 1.327 . S
C1066 H1091 0.950 . S
C1067 C1066 1.349 . S
C1067 C1083 1.349 . S
C1068 C1066 1.327 . S
C1068 C1087 1.429 . S
C1068 H1092 0.950 . S
C1069 C1086 1.574 . S
C1069 C1088 1.368 . S
C1069 H1093 0.949 . S
H1070 C1074 0.949 . S
C1071 C1072 1.349 . S
C1071 C1073 1.327 . S
C1071 H1094 0.950 . S
C1072 C1071 1.349 . S
C1072 C1084 1.349 . S
C1073 C1071 1.327 . S
C1073 C1089 1.429 . S
C1073 H1095 0.950 . S
C1074 H1070 0.949 . S
C1074 C1082 1.574 . S
C1074 C1090 1.368 . S
H1075 C1083 0.950 . S
H1076 C1081 0.950 . S
H1077 C1082 0.949 . S
H1078 C1084 0.950 . S
H1079 C1085 0.950 . S
H1080 C1086 0.949 . S
C1081 H1076 0.950 . S
C1081 C1083 1.327 . S
C1081 C1087 1.429 . S
C1082 C1074 1.574 . S
C1082 H1077 0.949 . S
C1082 C1088 1.368 . S
C1083 C1067 1.349 . S
C1083 H1075 0.950 . S
C1083 C1081 1.327 . S
C1084 C1072 1.349 . S
C1084 H1078 0.950 . S
C1084 C1085 1.327 . S
C1085 H1079 0.950 . S
C1085 C1084 1.327 . S
C1085 C1089 1.429 . S
C1086 C1069 1.574 . S
C1086 H1080 0.949 . S
C1086 C1090 1.368 . S
C1087 C1068 1.429 . S
C1087 C1081 1.429 . S
C1087 C1088 1.523 . S
C1088 C1069 1.368 . S
C1088 C1082 1.368 . S
C1088 C1087 1.523 . S
C1089 C1073 1.429 . S
C1089 C1085 1.429 . S
C1089 C1090 1.523 . S
C1090 C1074 1.368 . S
C1090 C1086 1.368 . S
C1090 C1089 1.523 . S
H1091 C1066 0.950 . S
H1092 C1068 0.950 . S
H1093 C1069 0.949 . S
H1094 C1071 0.950 . S
H1095 C1073 0.950 . S
C1096 C1097 1.349 . S
C1096 C1098 1.327 . S
C1096 H1121 0.950 . S
C1097 C1096 1.349 . S
C1097 C1113 1.349 . S
C1098 C1096 1.327 . S
C1098 C1117 1.429 . S
C1098 H1122 0.950 . S
C1099 C1116 1.574 . S
C1099 C1118 1.368 . S
C1099 H1123 0.949 . S
H1100 C1104 0.949 . S
C1101 C1102 1.349 . S
C1101 C1103 1.327 . S
C1101 H1124 0.950 . S
C1102 C1101 1.349 . S
C1102 C1114 1.349 . S
C1103 C1101 1.327 . S
C1103 C1119 1.429 . S
C1103 H1125 0.950 . S
C1104 H1100 0.949 . S
C1104 C1112 1.574 . S
C1104 C1120 1.368 . S
H1105 C1113 0.950 . S
H1106 C1111 0.950 . S
H1107 C1112 0.949 . S
H1108 C1114 0.950 . S
H1109 C1115 0.950 . S
H1110 C1116 0.949 . S
C1111 H1106 0.950 . S
C1111 C1113 1.327 . S
C1111 C1117 1.429 . S
C1112 C1104 1.574 . S
C1112 H1107 0.949 . S
C1112 C1118 1.368 . S
C1113 C1097 1.349 . S
C1113 H1105 0.950 . S
C1113 C1111 1.327 . S
C1114 C1102 1.349 . S
C1114 H1108 0.950 . S
C1114 C1115 1.327 . S
C1115 H1109 0.950 . S
C1115 C1114 1.327 . S
C1115 C1119 1.429 . S
C1116 C1099 1.574 . S
C1116 H1110 0.949 . S
C1116 C1120 1.368 . S
C1117 C1098 1.429 . S
C1117 C1111 1.429 . S
C1117 C1118 1.523 . S
C1118 C1099 1.368 . S
C1118 C1112 1.368 . S
C1118 C1117 1.523 . S
C1119 C1103 1.429 . S
C1119 C1115 1.429 . S
C1119 C1120 1.523 . S
C1120 C1104 1.368 . S
C1120 C1116 1.368 . S
C1120 C1119 1.523 . S
H1121 C1096 0.950 . S
H1122 C1098 0.950 . S
H1123 C1099 0.949 . S
H1124 C1101 0.950 . S
H1125 C1103 0.950 . S
C1126 C1127 1.349 . S
C1126 C1128 1.327 . S
C1126 H1151 0.950 . S
C1127 C1126 1.349 . S
C1127 C1143 1.349 . S
C1128 C1126 1.327 . S
C1128 C1147 1.429 . S
C1128 H1152 0.950 . S
C1129 C1146 1.574 . S
C1129 C1148 1.368 . S
C1129 H1153 0.949 . S
H1130 C1134 0.949 . S
C1131 C1132 1.349 . S
C1131 C1133 1.327 . S
C1131 H1154 0.950 . S
C1132 C1131 1.349 . S
C1132 C1144 1.349 . S
C1133 C1131 1.327 . S
C1133 C1149 1.429 . S
C1133 H1155 0.950 . S
C1134 H1130 0.949 . S
C1134 C1142 1.574 . S
C1134 C1150 1.368 . S
H1135 C1143 0.950 . S
H1136 C1141 0.950 . S
H1137 C1142 0.949 . S
H1138 C1144 0.950 . S
H1139 C1145 0.950 . S
H1140 C1146 0.949 . S
C1141 H1136 0.950 . S
C1141 C1143 1.327 . S
C1141 C1147 1.429 . S
C1142 C1134 1.574 . S
C1142 H1137 0.949 . S
C1142 C1148 1.368 . S
C1143 C1127 1.349 . S
C1143 H1135 0.950 . S
C1143 C1141 1.327 . S
C1144 C1132 1.349 . S
C1144 H1138 0.950 . S
C1144 C1145 1.327 . S
C1145 H1139 0.950 . S
C1145 C1144 1.327 . S
C1145 C1149 1.429 . S
C1146 C1129 1.574 . S
C1146 H1140 0.949 . S
C1146 C1150 1.368 . S
C1147 C1128 1.429 . S
C1147 C1141 1.429 . S
C1147 C1148 1.523 . S
C1148 C1129 1.368 . S
C1148 C1142 1.368 . S
C1148 C1147 1.523 . S
C1149 C1133 1.429 . S
C1149 C1145 1.429 . S
C1149 C1150 1.523 . S
C1150 C1134 1.368 . S
C1150 C1146 1.368 . S
C1150 C1149 1.523 . S
H1151 C1126 0.950 . S
H1152 C1128 0.950 . S
H1153 C1129 0.949 . S
H1154 C1131 0.950 . S
H1155 C1133 0.950 . S
C1156 C1157 1.349 . S
C1156 C1158 1.327 . S
C1156 H1181 0.950 . S
C1157 C1156 1.349 . S
C1157 C1173 1.349 . S
C1158 C1156 1.327 . S
C1158 C1177 1.429 . S
C1158 H1182 0.950 . S
C1159 C1176 1.574 . S
C1159 C1178 1.368 . S
C1159 H1183 0.949 . S
H1160 C1164 0.949 . S
C1161 C1162 1.349 . S
C1161 C1163 1.327 . S
C1161 H1184 0.950 . S
C1162 C1161 1.349 . S
C1162 C1174 1.349 . S
C1163 C1161 1.327 . S
C1163 C1179 1.429 . S
C1163 H1185 0.950 . S
C1164 H1160 0.949 . S
C1164 C1172 1.574 . S
C1164 C1180 1.368 . S
H1165 C1173 0.950 . S
H1166 C1171 0.950 . S
H1167 C1172 0.949 . S
H1168 C1174 0.950 . S
H1169 C1175 0.950 . S
H1170 C1176 0.949 . S
C1171 H1166 0.950 . S
C1171 C1173 1.327 . S
C1171 C1177 1.429 . S
C1172 C1164 1.574 . S
C1172 H1167 0.949 . S
C1172 C1178 1.368 . S
C1173 C1157 1.349 . S
C1173 H1165 0.950 . S
C1173 C1171 1.327 . S
C1174 C1162 1.349 . S
C1174 H1168 0.950 . S
C1174 C1175 1.327 . S
C1175 H1169 0.950 . S
C1175 C1174 1.327 . S
C1175 C1179 1.429 . S
C1176 C1159 1.574 . S
C1176 H1170 0.949 . S
C1176 C1180 1.368 . S
C1177 C1158 1.429 . S
C1177 C1171 1.429 . S
C1177 C1178 1.523 . S
C1178 C1159 1.368 . S
C1178 C1172 1.368 . S
C1178 C1177 1.523 . S
C1179 C1163 1.429 . S
C1179 C1175 1.429 . S
C1179 C1180 1.523 . S
C1180 C1164 1.368 . S
C1180 C1176 1.368 . S
C1180 C1179 1.523 . S
H1181 C1156 0.950 . S
H1182 C1158 0.950 . S
H1183 C1159 0.949 . S
H1184 C1161 0.950 . S
H1185 C1163 0.950 . S
C1186 C1187 1.349 . S
C1186 C1188 1.327 . S
C1186 H1211 0.950 . S
C1187 C1186 1.349 . S
C1187 C1203 1.349 . S
C1188 C1186 1.327 . S
C1188 C1207 1.429 . S
C1188 H1212 0.950 . S
C1189 C1206 1.574 . S
C1189 C1208 1.368 . S
C1189 H1213 0.949 . S
H1190 C1194 0.949 . S
C1191 C1192 1.349 . S
C1191 C1193 1.327 . S
C1191 H1214 0.950 . S
C1192 C1191 1.349 . S
C1192 C1204 1.349 . S
C1193 C1191 1.327 . S
C1193 C1209 1.429 . S
C1193 H1215 0.950 . S
C1194 H1190 0.949 . S
C1194 C1202 1.574 . S
C1194 C1210 1.368 . S
H1195 C1203 0.950 . S
H1196 C1201 0.950 . S
H1197 C1202 0.949 . S
H1198 C1204 0.950 . S
H1199 C1205 0.950 . S
H1200 C1206 0.949 . S
C1201 H1196 0.950 . S
C1201 C1203 1.327 . S
C1201 C1207 1.429 . S
C1202 C1194 1.574 . S
C1202 H1197 0.949 . S
C1202 C1208 1.368 . S
C1203 C1187 1.349 . S
C1203 H1195 0.950 . S
C1203 C1201 1.327 . S
C1204 C1192 1.349 . S
C1204 H1198 0.950 . S
C1204 C1205 1.327 . S
C1205 H1199 0.950 . S
C1205 C1204 1.327 . S
C1205 C1209 1.429 . S
C1206 C1189 1.574 . S
C1206 H1200 0.949 . S
C1206 C1210 1.368 . S
C1207 C1188 1.429 . S
C1207 C1201 1.429 . S
C1207 C1208 1.523 . S
C1208 C1189 1.368 . S
C1208 C1202 1.368 . S
C1208 C1207 1.523 . S
C1209 C1193 1.429 . S
C1209 C1205 1.429 . S
C1209 C1210 1.523 . S
C1210 C1194 1.368 . S
C1210 C1206 1.368 . S
C1210 C1209 1.523 . S
H1211 C1186 0.950 . S
H1212 C1188 0.950 . S
H1213 C1189 0.949 . S
H1214 C1191 0.950 . S
H1215 C1193 0.950 . S
C1216 C1217 1.349 . S
C1216 C1218 1.327 . S
C1216 H1241 0.950 . S
C1217 C1216 1.349 . S
C1217 C1233 1.349 . S
C1218 C1216 1.327 . S
C1218 C1237 1.429 . S
C1218 H1242 0.950 . S
C1219 C1236 1.574 . S
C1219 C1238 1.368 . S
C1219 H1243 0.949 . S
H1220 C1224 0.949 . S
C1221 C1222 1.349 . S
C1221 C1223 1.327 . S
C1221 H1244 0.950 . S
C1222 C1221 1.349 . S
C1222 C1234 1.349 . S
C1223 C1221 1.327 . S
C1223 C1239 1.429 . S
C1223 H1245 0.950 . S
C1224 H1220 0.949 . S
C1224 C1232 1.574 . S
C1224 C1240 1.368 . S
H1225 C1233 0.950 . S
H1226 C1231 0.950 . S
H1227 C1232 0.949 . S
H1228 C1234 0.950 . S
H1229 C1235 0.950 . S
H1230 C1236 0.949 . S
C1231 H1226 0.950 . S
C1231 C1233 1.327 . S
C1231 C1237 1.429 . S
C1232 C1224 1.574 . S
C1232 H1227 0.949 . S
C1232 C1238 1.368 . S
C1233 C1217 1.349 . S
C1233 H1225 0.950 . S
C1233 C1231 1.327 . S
C1234 C1222 1.349 . S
C1234 H1228 0.950 . S
C1234 C1235 1.327 . S
C1235 H1229 0.950 . S
C1235 C1234 1.327 . S
C1235 C1239 1.429 . S
C1236 C1219 1.574 . S
C1236 H1230 0.949 . S
C1236 C1240 1.368 . S
C1237 C1218 1.429 . S
C1237 C1231 1.429 . S
C1237 C1238 1.523 . S
C1238 C1219 1.368 . S
C1238 C1232 1.368 . S
C1238 C1237 1.523 . S
C1239 C1223 1.429 . S
C1239 C1235 1.429 . S
C1239 C1240 1.523 . S
C1240 C1224 1.368 . S
C1240 C1236 1.368 . S
C1240 C1239 1.523 . S
H1241 C1216 0.950 . S
H1242 C1218 0.950 . S
H1243 C1219 0.949 . S
H1244 C1221 0.950 . S
H1245 C1223 0.950 . S
C1246 C1247 1.349 . S
C1246 C1248 1.327 . S
C1246 H1271 0.950 . S
C1247 C1246 1.349 . S
C1247 C1263 1.349 . S
C1248 C1246 1.327 . S
C1248 C1267 1.429 . S
C1248 H1272 0.950 . S
C1249 C1266 1.574 . S
C1249 C1268 1.368 . S
C1249 H1273 0.949 . S
H1250 C1254 0.949 . S
C1251 C1252 1.349 . S
C1251 C1253 1.327 . S
C1251 H1274 0.950 . S
C1252 C1251 1.349 . S
C1252 C1264 1.349 . S
C1253 C1251 1.327 . S
C1253 C1269 1.429 . S
C1253 H1275 0.950 . S
C1254 H1250 0.949 . S
C1254 C1262 1.574 . S
C1254 C1270 1.368 . S
H1255 C1263 0.950 . S
H1256 C1261 0.950 . S
H1257 C1262 0.949 . S
H1258 C1264 0.950 . S
H1259 C1265 0.950 . S
H1260 C1266 0.949 . S
C1261 H1256 0.950 . S
C1261 C1263 1.327 . S
C1261 C1267 1.429 . S
C1262 C1254 1.574 . S
C1262 H1257 0.949 . S
C1262 C1268 1.368 . S
C1263 C1247 1.349 . S
C1263 H1255 0.950 . S
C1263 C1261 1.327 . S
C1264 C1252 1.349 . S
C1264 H1258 0.950 . S
C1264 C1265 1.327 . S
C1265 H1259 0.950 . S
C1265 C1264 1.327 . S
C1265 C1269 1.429 . S
C1266 C1249 1.574 . S
C1266 H1260 0.949 . S
C1266 C1270 1.368 . S
C1267 C1248 1.429 . S
C1267 C1261 1.429 . S
C1267 C1268 1.523 . S
C1268 C1249 1.368 . S
C1268 C1262 1.368 . S
C1268 C1267 1.523 . S
C1269 C1253 1.429 . S
C1269 C1265 1.429 . S
C1269 C1270 1.523 . S
C1270 C1254 1.368 . S
C1270 C1266 1.368 . S
C1270 C1269 1.523 . S
H1271 C1246 0.950 . S
H1272 C1248 0.950 . S
H1273 C1249 0.949 . S
H1274 C1251 0.950 . S
H1275 C1253 0.950 . S
C1276 C1277 1.349 . S
C1276 C1278 1.327 . S
C1276 H1301 0.950 . S
C1277 C1276 1.349 . S
C1277 C1293 1.349 . S
C1278 C1276 1.327 . S
C1278 C1297 1.429 . S
C1278 H1302 0.950 . S
C1279 C1296 1.574 . S
C1279 C1298 1.368 . S
C1279 H1303 0.949 . S
H1280 C1284 0.949 . S
C1281 C1282 1.349 . S
C1281 C1283 1.327 . S
C1281 H1304 0.950 . S
C1282 C1281 1.349 . S
C1282 C1294 1.349 . S
C1283 C1281 1.327 . S
C1283 C1299 1.429 . S
C1283 H1305 0.950 . S
C1284 H1280 0.949 . S
C1284 C1292 1.574 . S
C1284 C1300 1.368 . S
H1285 C1293 0.950 . S
H1286 C1291 0.950 . S
H1287 C1292 0.949 . S
H1288 C1294 0.950 . S
H1289 C1295 0.950 . S
H1290 C1296 0.949 . S
C1291 H1286 0.950 . S
C1291 C1293 1.327 . S
C1291 C1297 1.429 . S
C1292 C1284 1.574 . S
C1292 H1287 0.949 . S
C1292 C1298 1.368 . S
C1293 C1277 1.349 . S
C1293 H1285 0.950 . S
C1293 C1291 1.327 . S
C1294 C1282 1.349 . S
C1294 H1288 0.950 . S
C1294 C1295 1.327 . S
C1295 H1289 0.950 . S
C1295 C1294 1.327 . S
C1295 C1299 1.429 . S
C1296 C1279 1.574 . S
C1296 H1290 0.949 . S
C1296 C1300 1.368 . S
C1297 C1278 1.429 . S
C1297 C1291 1.429 . S
C1297 C1298 1.523 . S
C1298 C1279 1.368 . S
C1298 C1292 1.368 . S
C1298 C1297 1.523 . S
C1299 C1283 1.429 . S
C1299 C1295 1.429 . S
C1299 C1300 1.523 . S
C1300 C1284 1.368 . S
C1300 C1296 1.368 . S
C1300 C1299 1.523 . S
H1301 C1276 0.950 . S
H1302 C1278 0.950 . S
H1303 C1279 0.949 . S
H1304 C1281 0.950 . S
H1305 C1283 0.950 . S
C1306 C1307 1.349 . S
C1306 C1308 1.327 . S
C1306 H1331 0.950 . S
C1307 C1306 1.349 . S
C1307 C1323 1.349 . S
C1308 C1306 1.327 . S
C1308 C1327 1.429 . S
C1308 H1332 0.950 . S
C1309 C1326 1.574 . S
C1309 C1328 1.368 . S
C1309 H1333 0.949 . S
H1310 C1314 0.949 . S
C1311 C1312 1.349 . S
C1311 C1313 1.327 . S
C1311 H1334 0.950 . S
C1312 C1311 1.349 . S
C1312 C1324 1.349 . S
C1313 C1311 1.327 . S
C1313 C1329 1.429 . S
C1313 H1335 0.950 . S
C1314 H1310 0.949 . S
C1314 C1322 1.574 . S
C1314 C1330 1.368 . S
H1315 C1323 0.950 . S
H1316 C1321 0.950 . S
H1317 C1322 0.949 . S
H1318 C1324 0.950 . S
H1319 C1325 0.950 . S
H1320 C1326 0.949 . S
C1321 H1316 0.950 . S
C1321 C1323 1.327 . S
C1321 C1327 1.429 . S
C1322 C1314 1.574 . S
C1322 H1317 0.949 . S
C1322 C1328 1.368 . S
C1323 C1307 1.349 . S
C1323 H1315 0.950 . S
C1323 C1321 1.327 . S
C1324 C1312 1.349 . S
C1324 H1318 0.950 . S
C1324 C1325 1.327 . S
C1325 H1319 0.950 . S
C1325 C1324 1.327 . S
C1325 C1329 1.429 . S
C1326 C1309 1.574 . S
C1326 H1320 0.949 . S
C1326 C1330 1.368 . S
C1327 C1308 1.429 . S
C1327 C1321 1.429 . S
C1327 C1328 1.523 . S
C1328 C1309 1.368 . S
C1328 C1322 1.368 . S
C1328 C1327 1.523 . S
C1329 C1313 1.429 . S
C1329 C1325 1.429 . S
C1329 C1330 1.523 . S
C1330 C1314 1.368 . S
C1330 C1326 1.368 . S
C1330 C1329 1.523 . S
H1331 C1306 0.950 . S
H1332 C1308 0.950 . S
H1333 C1309 0.949 . S
H1334 C1311 0.950 . S
H1335 C1313 0.950 . S
C1336 C1337 1.349 . S
C1336 C1338 1.327 . S
C1336 H1361 0.950 . S
C1337 C1336 1.349 . S
C1337 C1353 1.349 . S
C1338 C1336 1.327 . S
C1338 C1357 1.429 . S
C1338 H1362 0.950 . S
C1339 C1356 1.574 . S
C1339 C1358 1.368 . S
C1339 H1363 0.949 . S
H1340 C1344 0.949 . S
C1341 C1342 1.349 . S
C1341 C1343 1.327 . S
C1341 H1364 0.950 . S
C1342 C1341 1.349 . S
C1342 C1354 1.349 . S
C1343 C1341 1.327 . S
C1343 C1359 1.429 . S
C1343 H1365 0.950 . S
C1344 H1340 0.949 . S
C1344 C1352 1.574 . S
C1344 C1360 1.368 . S
H1345 C1353 0.950 . S
H1346 C1351 0.950 . S
H1347 C1352 0.949 . S
H1348 C1354 0.950 . S
H1349 C1355 0.950 . S
H1350 C1356 0.949 . S
C1351 H1346 0.950 . S
C1351 C1353 1.327 . S
C1351 C1357 1.429 . S
C1352 C1344 1.574 . S
C1352 H1347 0.949 . S
C1352 C1358 1.368 . S
C1353 C1337 1.349 . S
C1353 H1345 0.950 . S
C1353 C1351 1.327 . S
C1354 C1342 1.349 . S
C1354 H1348 0.950 . S
C1354 C1355 1.327 . S
C1355 H1349 0.950 . S
C1355 C1354 1.327 . S
C1355 C1359 1.429 . S
C1356 C1339 1.574 . S
C1356 H1350 0.949 . S
C1356 C1360 1.368 . S
C1357 C1338 1.429 . S
C1357 C1351 1.429 . S
C1357 C1358 1.523 . S
C1358 C1339 1.368 . S
C1358 C1352 1.368 . S
C1358 C1357 1.523 . S
C1359 C1343 1.429 . S
C1359 C1355 1.429 . S
C1359 C1360 1.523 . S
C1360 C1344 1.368 . S
C1360 C1356 1.368 . S
C1360 C1359 1.523 . S
H1361 C1336 0.950 . S
H1362 C1338 0.950 . S
H1363 C1339 0.949 . S
H1364 C1341 0.950 . S
H1365 C1343 0.950 . S
C1366 C1367 1.349 . S
C1366 C1368 1.327 . S
C1366 H1391 0.950 . S
C1367 C1366 1.349 . S
C1367 C1383 1.349 . S
C1368 C1366 1.327 . S
C1368 C1387 1.429 . S
C1368 H1392 0.950 . S
C1369 C1386 1.574 . S
C1369 C1388 1.368 . S
C1369 H1393 0.949 . S
H1370 C1374 0.949 . S
C1371 C1372 1.349 . S
C1371 C1373 1.327 . S
C1371 H1394 0.950 . S
C1372 C1371 1.349 . S
C1372 C1384 1.349 . S
C1373 C1371 1.327 . S
C1373 C1389 1.429 . S
C1373 H1395 0.950 . S
C1374 H1370 0.949 . S
C1374 C1382 1.574 . S
C1374 C1390 1.368 . S
H1375 C1383 0.950 . S
H1376 C1381 0.950 . S
H1377 C1382 0.949 . S
H1378 C1384 0.950 . S
H1379 C1385 0.950 . S
H1380 C1386 0.949 . S
C1381 H1376 0.950 . S
C1381 C1383 1.327 . S
C1381 C1387 1.429 . S
C1382 C1374 1.574 . S
C1382 H1377 0.949 . S
C1382 C1388 1.368 . S
C1383 C1367 1.349 . S
C1383 H1375 0.950 . S
C1383 C1381 1.327 . S
C1384 C1372 1.349 . S
C1384 H1378 0.950 . S
C1384 C1385 1.327 . S
C1385 H1379 0.950 . S
C1385 C1384 1.327 . S
C1385 C1389 1.429 . S
C1386 C1369 1.574 . S
C1386 H1380 0.949 . S
C1386 C1390 1.368 . S
C1387 C1368 1.429 . S
C1387 C1381 1.429 . S
C1387 C1388 1.523 . S
C1388 C1369 1.368 . S
C1388 C1382 1.368 . S
C1388 C1387 1.523 . S
C1389 C1373 1.429 . S
C1389 C1385 1.429 . S
C1389 C1390 1.523 . S
C1390 C1374 1.368 . S
C1390 C1386 1.368 . S
C1390 C1389 1.523 . S
H1391 C1366 0.950 . S
H1392 C1368 0.950 . S
H1393 C1369 0.949 . S
H1394 C1371 0.950 . S
H1395 C1373 0.950 . S
C1396 C1397 1.349 . S
C1396 C1398 1.327 . S
C1396 H1421 0.950 . S
C1397 C1396 1.349 . S
C1397 C1413 1.349 . S
C1398 C1396 1.327 . S
C1398 C1417 1.429 . S
C1398 H1422 0.950 . S
C1399 C1416 1.574 . S
C1399 C1418 1.368 . S
C1399 H1423 0.949 . S
H1400 C1404 0.949 . S
C1401 C1402 1.349 . S
C1401 C1403 1.327 . S
C1401 H1424 0.950 . S
C1402 C1401 1.349 . S
C1402 C1414 1.349 . S
C1403 C1401 1.327 . S
C1403 C1419 1.429 . S
C1403 H1425 0.950 . S
C1404 H1400 0.949 . S
C1404 C1412 1.574 . S
C1404 C1420 1.368 . S
H1405 C1413 0.950 . S
H1406 C1411 0.950 . S
H1407 C1412 0.949 . S
H1408 C1414 0.950 . S
H1409 C1415 0.950 . S
H1410 C1416 0.949 . S
C1411 H1406 0.950 . S
C1411 C1413 1.327 . S
C1411 C1417 1.429 . S
C1412 C1404 1.574 . S
C1412 H1407 0.949 . S
C1412 C1418 1.368 . S
C1413 C1397 1.349 . S
C1413 H1405 0.950 . S
C1413 C1411 1.327 . S
C1414 C1402 1.349 . S
C1414 H1408 0.950 . S
C1414 C1415 1.327 . S
C1415 H1409 0.950 . S
C1415 C1414 1.327 . S
C1415 C1419 1.429 . S
C1416 C1399 1.574 . S
C1416 H1410 0.949 . S
C1416 C1420 1.368 . S
C1417 C1398 1.429 . S
C1417 C1411 1.429 . S
C1417 C1418 1.523 . S
C1418 C1399 1.368 . S
C1418 C1412 1.368 . S
C1418 C1417 1.523 . S
C1419 C1403 1.429 . S
C1419 C1415 1.429 . S
C1419 C1420 1.523 . S
C1420 C1404 1.368 . S
C1420 C1416 1.368 . S
C1420 C1419 1.523 . S
H1421 C1396 0.950 . S
H1422 C1398 0.950 . S
H1423 C1399 0.949 . S
H1424 C1401 0.950 . S
H1425 C1403 0.950 . S
C1426 C1427 1.349 . S
C1426 C1428 1.327 . S
C1426 H1451 0.950 . S
C1427 C1426 1.349 . S
C1427 C1443 1.349 . S
C1428 C1426 1.327 . S
C1428 C1447 1.429 . S
C1428 H1452 0.950 . S
C1429 C1446 1.574 . S
C1429 C1448 1.368 . S
C1429 H1453 0.949 . S
H1430 C1434 0.949 . S
C1431 C1432 1.349 . S
C1431 C1433 1.327 . S
C1431 H1454 0.950 . S
C1432 C1431 1.349 . S
C1432 C1444 1.349 . S
C1433 C1431 1.327 . S
C1433 C1449 1.429 . S
C1433 H1455 0.950 . S
C1434 H1430 0.949 . S
C1434 C1442 1.574 . S
C1434 C1450 1.368 . S
H1435 C1443 0.950 . S
H1436 C1441 0.950 . S
H1437 C1442 0.949 . S
H1438 C1444 0.950 . S
H1439 C1445 0.950 . S
H1440 C1446 0.949 . S
C1441 H1436 0.950 . S
C1441 C1443 1.327 . S
C1441 C1447 1.429 . S
C1442 C1434 1.574 . S
C1442 H1437 0.949 . S
C1442 C1448 1.368 . S
C1443 C1427 1.349 . S
C1443 H1435 0.950 . S
C1443 C1441 1.327 . S
C1444 C1432 1.349 . S
C1444 H1438 0.950 . S
C1444 C1445 1.327 . S
C1445 H1439 0.950 . S
C1445 C1444 1.327 . S
C1445 C1449 1.429 . S
C1446 C1429 1.574 . S
C1446 H1440 0.949 . S
C1446 C1450 1.368 . S
C1447 C1428 1.429 . S
C1447 C1441 1.429 . S
C1447 C1448 1.523 . S
C1448 C1429 1.368 . S
C1448 C1442 1.368 . S
C1448 C1447 1.523 . S
C1449 C1433 1.429 . S
C1449 C1445 1.429 . S
C1449 C1450 1.523 . S
C1450 C1434 1.368 . S
C1450 C1446 1.368 . S
C1450 C1449 1.523 . S
H1451 C1426 0.950 . S
H1452 C1428 0.950 . S
H1453 C1429 0.949 . S
H1454 C1431 0.950 . S
H1455 C1433 0.950 . S
C1456 C1457 1.349 . S
C1456 C1458 1.327 . S
C1456 H1481 0.950 . S
C1457 C1456 1.349 . S
C1457 C1473 1.349 . S
C1458 C1456 1.327 . S
C1458 C1477 1.429 . S
C1458 H1482 0.950 . S
C1459 C1476 1.574 . S
C1459 C1478 1.368 . S
C1459 H1483 0.949 . S
H1460 C1464 0.949 . S
C1461 C1462 1.349 . S
C1461 C1463 1.327 . S
C1461 H1484 0.950 . S
C1462 C1461 1.349 . S
C1462 C1474 1.349 . S
C1463 C1461 1.327 . S
C1463 C1479 1.429 . S
C1463 H1485 0.950 . S
C1464 H1460 0.949 . S
C1464 C1472 1.574 . S
C1464 C1480 1.368 . S
H1465 C1473 0.950 . S
H1466 C1471 0.950 . S
H1467 C1472 0.949 . S
H1468 C1474 0.950 . S
H1469 C1475 0.950 . S
H1470 C1476 0.949 . S
C1471 H1466 0.950 . S
C1471 C1473 1.327 . S
C1471 C1477 1.429 . S
C1472 C1464 1.574 . S
C1472 H1467 0.949 . S
C1472 C1478 1.368 . S
C1473 C1457 1.349 . S
C1473 H1465 0.950 . S
C1473 C1471 1.327 . S
C1474 C1462 1.349 . S
C1474 H1468 0.950 . S
C1474 C1475 1.327 . S
C1475 H1469 0.950 . S
C1475 C1474 1.327 . S
C1475 C1479 1.429 . S
C1476 C1459 1.574 . S
C1476 H1470 0.949 . S
C1476 C1480 1.368 . S
C1477 C1458 1.429 . S
C1477 C1471 1.429 . S
C1477 C1478 1.523 . S
C1478 C1459 1.368 . S
C1478 C1472 1.368 . S
C1478 C1477 1.523 . S
C1479 C1463 1.429 . S
C1479 C1475 1.429 . S
C1479 C1480 1.523 . S
C1480 C1464 1.368 . S
C1480 C1476 1.368 . S
C1480 C1479 1.523 . S
H1481 C1456 0.950 . S
H1482 C1458 0.950 . S
H1483 C1459 0.949 . S
H1484 C1461 0.950 . S
H1485 C1463 0.950 . S
C1486 C1487 1.349 . S
C1486 C1488 1.327 . S
C1486 H1511 0.950 . S
C1487 C1486 1.349 . S
C1487 C1503 1.349 . S
C1488 C1486 1.327 . S
C1488 C1507 1.429 . S
C1488 H1512 0.950 . S
C1489 C1506 1.574 . S
C1489 C1508 1.368 . S
C1489 H1513 0.949 . S
H1490 C1494 0.949 . S
C1491 C1492 1.349 . S
C1491 C1493 1.327 . S
C1491 H1514 0.950 . S
C1492 C1491 1.349 . S
C1492 C1504 1.349 . S
C1493 C1491 1.327 . S
C1493 C1509 1.429 . S
C1493 H1515 0.950 . S
C1494 H1490 0.949 . S
C1494 C1502 1.574 . S
C1494 C1510 1.368 . S
H1495 C1503 0.950 . S
H1496 C1501 0.950 . S
H1497 C1502 0.949 . S
H1498 C1504 0.950 . S
H1499 C1505 0.950 . S
H1500 C1506 0.949 . S
C1501 H1496 0.950 . S
C1501 C1503 1.327 . S
C1501 C1507 1.429 . S
C1502 C1494 1.574 . S
C1502 H1497 0.949 . S
C1502 C1508 1.368 . S
C1503 C1487 1.349 . S
C1503 H1495 0.950 . S
C1503 C1501 1.327 . S
C1504 C1492 1.349 . S
C1504 H1498 0.950 . S
C1504 C1505 1.327 . S
C1505 H1499 0.950 . S
C1505 C1504 1.327 . S
C1505 C1509 1.429 . S
C1506 C1489 1.574 . S
C1506 H1500 0.949 . S
C1506 C1510 1.368 . S
C1507 C1488 1.429 . S
C1507 C1501 1.429 . S
C1507 C1508 1.523 . S
C1508 C1489 1.368 . S
C1508 C1502 1.368 . S
C1508 C1507 1.523 . S
C1509 C1493 1.429 . S
C1509 C1505 1.429 . S
C1509 C1510 1.523 . S
C1510 C1494 1.368 . S
C1510 C1506 1.368 . S
C1510 C1509 1.523 . S
H1511 C1486 0.950 . S
H1512 C1488 0.950 . S
H1513 C1489 0.949 . S
H1514 C1491 0.950 . S
H1515 C1493 0.950 . S
C1516 C1517 1.349 . S
C1516 C1518 1.327 . S
C1516 H1541 0.950 . S
C1517 C1516 1.349 . S
C1517 C1533 1.349 . S
C1518 C1516 1.327 . S
C1518 C1537 1.429 . S
C1518 H1542 0.950 . S
C1519 C1536 1.574 . S
C1519 C1538 1.368 . S
C1519 H1543 0.949 . S
H1520 C1524 0.949 . S
C1521 C1522 1.349 . S
C1521 C1523 1.327 . S
C1521 H1544 0.950 . S
C1522 C1521 1.349 . S
C1522 C1534 1.349 . S
C1523 C1521 1.327 . S
C1523 C1539 1.429 . S
C1523 H1545 0.950 . S
C1524 H1520 0.949 . S
C1524 C1532 1.574 . S
C1524 C1540 1.368 . S
H1525 C1533 0.950 . S
H1526 C1531 0.950 . S
H1527 C1532 0.949 . S
H1528 C1534 0.950 . S
H1529 C1535 0.950 . S
H1530 C1536 0.949 . S
C1531 H1526 0.950 . S
C1531 C1533 1.327 . S
C1531 C1537 1.429 . S
C1532 C1524 1.574 . S
C1532 H1527 0.949 . S
C1532 C1538 1.368 . S
C1533 C1517 1.349 . S
C1533 H1525 0.950 . S
C1533 C1531 1.327 . S
C1534 C1522 1.349 . S
C1534 H1528 0.950 . S
C1534 C1535 1.327 . S
C1535 H1529 0.950 . S
C1535 C1534 1.327 . S
C1535 C1539 1.429 . S
C1536 C1519 1.574 . S
C1536 H1530 0.949 . S
C1536 C1540 1.368 . S
C1537 C1518 1.429 . S
C1537 C1531 1.429 . S
C1537 C1538 1.523 . S
C1538 C1519 1.368 . S
C1538 C1532 1.368 . S
C1538 C1537 1.523 . S
C1539 C1523 1.429 . S
C1539 C1535 1.429 . S
C1539 C1540 1.523 . S
C1540 C1524 1.368 . S
C1540 C1536 1.368 . S
C1540 C1539 1.523 . S
H1541 C1516 0.950 . S
H1542 C1518 0.950 . S
H1543 C1519 0.949 . S
H1544 C1521 0.950 . S
H1545 C1523 0.950 . S
C1546 C1547 1.349 . S
C1546 C1548 1.327 . S
C1546 H1571 0.950 . S
C1547 C1546 1.349 . S
C1547 C1563 1.349 . S
C1548 C1546 1.327 . S
C1548 C1567 1.429 . S
C1548 H1572 0.950 . S
C1549 C1566 1.574 . S
C1549 C1568 1.368 . S
C1549 H1573 0.949 . S
H1550 C1554 0.949 . S
C1551 C1552 1.349 . S
C1551 C1553 1.327 . S
C1551 H1574 0.950 . S
C1552 C1551 1.349 . S
C1552 C1564 1.349 . S
C1553 C1551 1.327 . S
C1553 C1569 1.429 . S
C1553 H1575 0.950 . S
C1554 H1550 0.949 . S
C1554 C1562 1.574 . S
C1554 C1570 1.368 . S
H1555 C1563 0.950 . S
H1556 C1561 0.950 . S
H1557 C1562 0.949 . S
H1558 C1564 0.950 . S
H1559 C1565 0.950 . S
H1560 C1566 0.949 . S
C1561 H1556 0.950 . S
C1561 C1563 1.327 . S
C1561 C1567 1.429 . S
C1562 C1554 1.574 . S
C1562 H1557 0.949 . S
C1562 C1568 1.368 . S
C1563 C1547 1.349 . S
C1563 H1555 0.950 . S
C1563 C1561 1.327 . S
C1564 C1552 1.349 . S
C1564 H1558 0.950 . S
C1564 C1565 1.327 . S
C1565 H1559 0.950 . S
C1565 C1564 1.327 . S
C1565 C1569 1.429 . S
C1566 C1549 1.574 . S
C1566 H1560 0.949 . S
C1566 C1570 1.368 . S
C1567 C1548 1.429 . S
C1567 C1561 1.429 . S
C1567 C1568 1.523 . S
C1568 C1549 1.368 . S
C1568 C1562 1.368 . S
C1568 C1567 1.523 . S
C1569 C1553 1.429 . S
C1569 C1565 1.429 . S
C1569 C1570 1.523 . S
C1570 C1554 1.368 . S
C1570 C1566 1.368 . S
C1570 C1569 1.523 . S
H1571 C1546 0.950 . S
H1572 C1548 0.950 . S
H1573 C1549 0.949 . S
H1574 C1551 0.950 . S
H1575 C1553 0.950 . S
C1576 C1577 1.349 . S
C1576 C1578 1.327 . S
C1576 H1601 0.950 . S
C1577 C1576 1.349 . S
C1577 C1593 1.349 . S
C1578 C1576 1.327 . S
C1578 C1597 1.429 . S
C1578 H1602 0.950 . S
C1579 C1596 1.574 . S
C1579 C1598 1.368 . S
C1579 H1603 0.949 . S
H1580 C1584 0.949 . S
C1581 C1582 1.349 . S
C1581 C1583 1.327 . S
C1581 H1604 0.950 . S
C1582 C1581 1.349 . S
C1582 C1594 1.349 . S
C1583 C1581 1.327 . S
C1583 C1599 1.429 . S
C1583 H1605 0.950 . S
C1584 H1580 0.949 . S
C1584 C1592 1.574 . S
C1584 C1600 1.368 . S
H1585 C1593 0.950 . S
H1586 C1591 0.950 . S
H1587 C1592 0.949 . S
H1588 C1594 0.950 . S
H1589 C1595 0.950 . S
H1590 C1596 0.949 . S
C1591 H1586 0.950 . S
C1591 C1593 1.327 . S
C1591 C1597 1.429 . S
C1592 C1584 1.574 . S
C1592 H1587 0.949 . S
C1592 C1598 1.368 . S
C1593 C1577 1.349 . S
C1593 H1585 0.950 . S
C1593 C1591 1.327 . S
C1594 C1582 1.349 . S
C1594 H1588 0.950 . S
C1594 C1595 1.327 . S
C1595 H1589 0.950 . S
C1595 C1594 1.327 . S
C1595 C1599 1.429 . S
C1596 C1579 1.574 . S
C1596 H1590 0.949 . S
C1596 C1600 1.368 . S
C1597 C1578 1.429 . S
C1597 C1591 1.429 . S
C1597 C1598 1.523 . S
C1598 C1579 1.368 . S
C1598 C1592 1.368 . S
C1598 C1597 1.523 . S
C1599 C1583 1.429 . S
C1599 C1595 1.429 . S
C1599 C1600 1.523 . S
C1600 C1584 1.368 . S
C1600 C1596 1.368 . S
C1600 C1599 1.523 . S
H1601 C1576 0.950 . S
H1602 C1578 0.950 . S
H1603 C1579 0.949 . S
H1604 C1581 0.950 . S
H1605 C1583 0.950 . S
C1606 C1607 1.349 . S
C1606 C1608 1.327 . S
C1606 H1631 0.950 . S
C1607 C1606 1.349 . S
C1607 C1623 1.349 . S
C1608 C1606 1.327 . S
C1608 C1627 1.429 . S
C1608 H1632 0.950 . S
C1609 C1626 1.574 . S
C1609 C1628 1.368 . S
C1609 H1633 0.949 . S
H1610 C1614 0.949 . S
C1611 C1612 1.349 . S
C1611 C1613 1.327 . S
C1611 H1634 0.950 . S
C1612 C1611 1.349 . S
C1612 C1624 1.349 . S
C1613 C1611 1.327 . S
C1613 C1629 1.429 . S
C1613 H1635 0.950 . S
C1614 H1610 0.949 . S
C1614 C1622 1.574 . S
C1614 C1630 1.368 . S
H1615 C1623 0.950 . S
H1616 C1621 0.950 . S
H1617 C1622 0.949 . S
H1618 C1624 0.950 . S
H1619 C1625 0.950 . S
H1620 C1626 0.949 . S
C1621 H1616 0.950 . S
C1621 C1623 1.327 . S
C1621 C1627 1.429 . S
C1622 C1614 1.574 . S
C1622 H1617 0.949 . S
C1622 C1628 1.368 . S
C1623 C1607 1.349 . S
C1623 H1615 0.950 . S
C1623 C1621 1.327 . S
C1624 C1612 1.349 . S
C1624 H1618 0.950 . S
C1624 C1625 1.327 . S
C1625 H1619 0.950 . S
C1625 C1624 1.327 . S
C1625 C1629 1.429 . S
C1626 C1609 1.574 . S
C1626 H1620 0.949 . S
C1626 C1630 1.368 . S
C1627 C1608 1.429 . S
C1627 C1621 1.429 . S
C1627 C1628 1.523 . S
C1628 C1609 1.368 . S
C1628 C1622 1.368 . S
C1628 C1627 1.523 . S
C1629 C1613 1.429 . S
C1629 C1625 1.429 . S
C1629 C1630 1.523 . S
C1630 C1614 1.368 . S
C1630 C1626 1.368 . S
C1630 C1629 1.523 . S
H1631 C1606 0.950 . S
H1632 C1608 0.950 . S
H1633 C1609 0.949 . S
H1634 C1611 0.950 . S
H1635 C1613 0.950 . S
C1636 C1637 1.349 . S
C1636 C1638 1.327 . S
C1636 H1661 0.950 . S
C1637 C1636 1.349 . S
C1637 C1653 1.349 . S
C1638 C1636 1.327 . S
C1638 C1657 1.429 . S
C1638 H1662 0.950 . S
C1639 C1656 1.574 . S
C1639 C1658 1.368 . S
C1639 H1663 0.949 . S
H1640 C1644 0.949 . S
C1641 C1642 1.349 . S
C1641 C1643 1.327 . S
C1641 H1664 0.950 . S
C1642 C1641 1.349 . S
C1642 C1654 1.349 . S
C1643 C1641 1.327 . S
C1643 C1659 1.429 . S
C1643 H1665 0.950 . S
C1644 H1640 0.949 . S
C1644 C1652 1.574 . S
C1644 C1660 1.368 . S
H1645 C1653 0.950 . S
H1646 C1651 0.950 . S
H1647 C1652 0.949 . S
H1648 C1654 0.950 . S
H1649 C1655 0.950 . S
H1650 C1656 0.949 . S
C1651 H1646 0.950 . S
C1651 C1653 1.327 . S
C1651 C1657 1.429 . S
C1652 C1644 1.574 . S
C1652 H1647 0.949 . S
C1652 C1658 1.368 . S
C1653 C1637 1.349 . S
C1653 H1645 0.950 . S
C1653 C1651 1.327 . S
C1654 C1642 1.349 . S
C1654 H1648 0.950 . S
C1654 C1655 1.327 . S
C1655 H1649 0.950 . S
C1655 C1654 1.327 . S
C1655 C1659 1.429 . S
C1656 C1639 1.574 . S
C1656 H1650 0.949 . S
C1656 C1660 1.368 . S
C1657 C1638 1.429 . S
C1657 C1651 1.429 . S
C1657 C1658 1.523 . S
C1658 C1639 1.368 . S
C1658 C1652 1.368 . S
C1658 C1657 1.523 . S
C1659 C1643 1.429 . S
C1659 C1655 1.429 . S
C1659 C1660 1.523 . S
C1660 C1644 1.368 . S
C1660 C1656 1.368 . S
C1660 C1659 1.523 . S
H1661 C1636 0.950 . S
H1662 C1638 0.950 . S
H1663 C1639 0.949 . S
H1664 C1641 0.950 . S
H1665 C1643 0.950 . S
C1666 C1667 1.349 . S
C1666 C1668 1.327 . S
C1666 H1691 0.950 . S
C1667 C1666 1.349 . S
C1667 C1683 1.349 . S
C1668 C1666 1.327 . S
C1668 C1687 1.429 . S
C1668 H1692 0.950 . S
C1669 C1686 1.574 . S
C1669 C1688 1.368 . S
C1669 H1693 0.949 . S
H1670 C1674 0.949 . S
C1671 C1672 1.349 . S
C1671 C1673 1.327 . S
C1671 H1694 0.950 . S
C1672 C1671 1.349 . S
C1672 C1684 1.349 . S
C1673 C1671 1.327 . S
C1673 C1689 1.429 . S
C1673 H1695 0.950 . S
C1674 H1670 0.949 . S
C1674 C1682 1.574 . S
C1674 C1690 1.368 . S
H1675 C1683 0.950 . S
H1676 C1681 0.950 . S
H1677 C1682 0.949 . S
H1678 C1684 0.950 . S
H1679 C1685 0.950 . S
H1680 C1686 0.949 . S
C1681 H1676 0.950 . S
C1681 C1683 1.327 . S
C1681 C1687 1.429 . S
C1682 C1674 1.574 . S
C1682 H1677 0.949 . S
C1682 C1688 1.368 . S
C1683 C1667 1.349 . S
C1683 H1675 0.950 . S
C1683 C1681 1.327 . S
C1684 C1672 1.349 . S
C1684 H1678 0.950 . S
C1684 C1685 1.327 . S
C1685 H1679 0.950 . S
C1685 C1684 1.327 . S
C1685 C1689 1.429 . S
C1686 C1669 1.574 . S
C1686 H1680 0.949 . S
C1686 C1690 1.368 . S
C1687 C1668 1.429 . S
C1687 C1681 1.429 . S
C1687 C1688 1.523 . S
C1688 C1669 1.368 . S
C1688 C1682 1.368 . S
C1688 C1687 1.523 . S
C1689 C1673 1.429 . S
C1689 C1685 1.429 . S
C1689 C1690 1.523 . S
C1690 C1674 1.368 . S
C1690 C1686 1.368 . S
C1690 C1689 1.523 . S
H1691 C1666 0.950 . S
H1692 C1668 0.950 . S
H1693 C1669 0.949 . S
H1694 C1671 0.950 . S
H1695 C1673 0.950 . S
C1696 C1697 1.349 . S
C1696 C1698 1.327 . S
C1696 H1721 0.950 . S
C1697 C1696 1.349 . S
C1697 C1713 1.349 . S
C1698 C1696 1.327 . S
C1698 C1717 1.429 . S
C1698 H1722 0.950 . S
C1699 C1716 1.574 . S
C1699 C1718 1.368 . S
C1699 H1723 0.949 . S
H1700 C1704 0.949 . S
C1701 C1702 1.349 . S
C1701 C1703 1.327 . S
C1701 H1724 0.950 . S
C1702 C1701 1.349 . S
C1702 C1714 1.349 . S
C1703 C1701 1.327 . S
C1703 C1719 1.429 . S
C1703 H1725 0.950 . S
C1704 H1700 0.949 . S
C1704 C1712 1.574 . S
C1704 C1720 1.368 . S
H1705 C1713 0.950 . S
H1706 C1711 0.950 . S
H1707 C1712 0.949 . S
H1708 C1714 0.950 . S
H1709 C1715 0.950 . S
H1710 C1716 0.949 . S
C1711 H1706 0.950 . S
C1711 C1713 1.327 . S
C1711 C1717 1.429 . S
C1712 C1704 1.574 . S
C1712 H1707 0.949 . S
C1712 C1718 1.368 . S
C1713 C1697 1.349 . S
C1713 H1705 0.950 . S
C1713 C1711 1.327 . S
C1714 C1702 1.349 . S
C1714 H1708 0.950 . S
C1714 C1715 1.327 . S
C1715 H1709 0.950 . S
C1715 C1714 1.327 . S
C1715 C1719 1.429 . S
C1716 C1699 1.574 . S
C1716 H1710 0.949 . S
C1716 C1720 1.368 . S
C1717 C1698 1.429 . S
C1717 C1711 1.429 . S
C1717 C1718 1.523 . S
C1718 C1699 1.368 . S
C1718 C1712 1.368 . S
C1718 C1717 1.523 . S
C1719 C1703 1.429 . S
C1719 C1715 1.429 . S
C1719 C1720 1.523 . S
C1720 C1704 1.368 . S
C1720 C1716 1.368 . S
C1720 C1719 1.523 . S
H1721 C1696 0.950 . S
H1722 C1698 0.950 . S
H1723 C1699 0.949 . S
H1724 C1701 0.950 . S
H1725 C1703 0.950 . S
C1726 C1727 1.349 . S
C1726 C1728 1.327 . S
C1726 H1751 0.950 . S
C1727 C1726 1.349 . S
C1727 C1743 1.349 . S
C1728 C1726 1.327 . S
C1728 C1747 1.429 . S
C1728 H1752 0.950 . S
C1729 C1746 1.574 . S
C1729 C1748 1.368 . S
C1729 H1753 0.949 . S
H1730 C1734 0.949 . S
C1731 C1732 1.349 . S
C1731 C1733 1.327 . S
C1731 H1754 0.950 . S
C1732 C1731 1.349 . S
C1732 C1744 1.349 . S
C1733 C1731 1.327 . S
C1733 C1749 1.429 . S
C1733 H1755 0.950 . S
C1734 H1730 0.949 . S
C1734 C1742 1.574 . S
C1734 C1750 1.368 . S
H1735 C1743 0.950 . S
H1736 C1741 0.950 . S
H1737 C1742 0.949 . S
H1738 C1744 0.950 . S
H1739 C1745 0.950 . S
H1740 C1746 0.949 . S
C1741 H1736 0.950 . S
C1741 C1743 1.327 . S
C1741 C1747 1.429 . S
C1742 C1734 1.574 . S
C1742 H1737 0.949 . S
C1742 C1748 1.368 . S
C1743 C1727 1.349 . S
C1743 H1735 0.950 . S
C1743 C1741 1.327 . S
C1744 C1732 1.349 . S
C1744 H1738 0.950 . S
C1744 C1745 1.327 . S
C1745 H1739 0.950 . S
C1745 C1744 1.327 . S
C1745 C1749 1.429 . S
C1746 C1729 1.574 . S
C1746 H1740 0.949 . S
C1746 C1750 1.368 . S
C1747 C1728 1.429 . S
C1747 C1741 1.429 . S
C1747 C1748 1.523 . S
C1748 C1729 1.368 . S
C1748 C1742 1.368 . S
C1748 C1747 1.523 . S
C1749 C1733 1.429 . S
C1749 C1745 1.429 . S
C1749 C1750 1.523 . S
C1750 C1734 1.368 . S
C1750 C1746 1.368 . S
C1750 C1749 1.523 . S
H1751 C1726 0.950 . S
H1752 C1728 0.950 . S
H1753 C1729 0.949 . S
H1754 C1731 0.950 . S
H1755 C1733 0.950 . S
C1756 C1757 1.349 . S
C1756 C1758 1.327 . S
C1756 H1781 0.950 . S
C1757 C1756 1.349 . S
C1757 C1773 1.349 . S
C1758 C1756 1.327 . S
C1758 C1777 1.429 . S
C1758 H1782 0.950 . S
C1759 C1776 1.574 . S
C1759 C1778 1.368 . S
C1759 H1783 0.949 . S
H1760 C1764 0.949 . S
C1761 C1762 1.349 . S
C1761 C1763 1.327 . S
C1761 H1784 0.950 . S
C1762 C1761 1.349 . S
C1762 C1774 1.349 . S
C1763 C1761 1.327 . S
C1763 C1779 1.429 . S
C1763 H1785 0.950 . S
C1764 H1760 0.949 . S
C1764 C1772 1.574 . S
C1764 C1780 1.368 . S
H1765 C1773 0.950 . S
H1766 C1771 0.950 . S
H1767 C1772 0.949 . S
H1768 C1774 0.950 . S
H1769 C1775 0.950 . S
H1770 C1776 0.949 . S
C1771 H1766 0.950 . S
C1771 C1773 1.327 . S
C1771 C1777 1.429 . S
C1772 C1764 1.574 . S
C1772 H1767 0.949 . S
C1772 C1778 1.368 . S
C1773 C1757 1.349 . S
C1773 H1765 0.950 . S
C1773 C1771 1.327 . S
C1774 C1762 1.349 . S
C1774 H1768 0.950 . S
C1774 C1775 1.327 . S
C1775 H1769 0.950 . S
C1775 C1774 1.327 . S
C1775 C1779 1.429 . S
C1776 C1759 1.574 . S
C1776 H1770 0.949 . S
C1776 C1780 1.368 . S
C1777 C1758 1.429 . S
C1777 C1771 1.429 . S
C1777 C1778 1.523 . S
C1778 C1759 1.368 . S
C1778 C1772 1.368 . S
C1778 C1777 1.523 . S
C1779 C1763 1.429 . S
C1779 C1775 1.429 . S
C1779 C1780 1.523 . S
C1780 C1764 1.368 . S
C1780 C1776 1.368 . S
C1780 C1779 1.523 . S
H1781 C1756 0.950 . S
H1782 C1758 0.950 . S
H1783 C1759 0.949 . S
H1784 C1761 0.950 . S
H1785 C1763 0.950 . S
C1786 C1787 1.349 . S
C1786 C1788 1.327 . S
C1786 H1811 0.950 . S
C1787 C1786 1.349 . S
C1787 C1803 1.349 . S
C1788 C1786 1.327 . S
C1788 C1807 1.429 . S
C1788 H1812 0.950 . S
C1789 C1806 1.574 . S
C1789 C1808 1.368 . S
C1789 H1813 0.949 . S
H1790 C1794 0.949 . S
C1791 C1792 1.349 . S
C1791 C1793 1.327 . S
C1791 H1814 0.950 . S
C1792 C1791 1.349 . S
C1792 C1804 1.349 . S
C1793 C1791 1.327 . S
C1793 C1809 1.429 . S
C1793 H1815 0.950 . S
C1794 H1790 0.949 . S
C1794 C1802 1.574 . S
C1794 C1810 1.368 . S
H1795 C1803 0.950 . S
H1796 C1801 0.950 . S
H1797 C1802 0.949 . S
H1798 C1804 0.950 . S
H1799 C1805 0.950 . S
H1800 C1806 0.949 . S
C1801 H1796 0.950 . S
C1801 C1803 1.327 . S
C1801 C1807 1.429 . S
C1802 C1794 1.574 . S
C1802 H1797 0.949 . S
C1802 C1808 1.368 . S
C1803 C1787 1.349 . S
C1803 H1795 0.950 . S
C1803 C1801 1.327 . S
C1804 C1792 1.349 . S
C1804 H1798 0.950 . S
C1804 C1805 1.327 . S
C1805 H1799 0.950 . S
C1805 C1804 1.327 . S
C1805 C1809 1.429 . S
C1806 C1789 1.574 . S
C1806 H1800 0.949 . S
C1806 C1810 1.368 . S
C1807 C1788 1.429 . S
C1807 C1801 1.429 . S
C1807 C1808 1.523 . S
C1808 C1789 1.368 . S
C1808 C1802 1.368 . S
C1808 C1807 1.523 . S
C1809 C1793 1.429 . S
C1809 C1805 1.429 . S
C1809 C1810 1.523 . S
C1810 C1794 1.368 . S
C1810 C1806 1.368 . S
C1810 C1809 1.523 . S
H1811 C1786 0.950 . S
H1812 C1788 0.950 . S
H1813 C1789 0.949 . S
H1814 C1791 0.950 . S
H1815 C1793 0.950 . S
C1816 C1817 1.349 . S
C1816 C1818 1.327 . S
C1816 H1841 0.950 . S
C1817 C1816 1.349 . S
C1817 C1833 1.349 . S
C1818 C1816 1.327 . S
C1818 C1837 1.429 . S
C1818 H1842 0.950 . S
C1819 C1836 1.574 . S
C1819 C1838 1.368 . S
C1819 H1843 0.949 . S
H1820 C1824 0.949 . S
C1821 C1822 1.349 . S
C1821 C1823 1.327 . S
C1821 H1844 0.950 . S
C1822 C1821 1.349 . S
C1822 C1834 1.349 . S
C1823 C1821 1.327 . S
C1823 C1839 1.429 . S
C1823 H1845 0.950 . S
C1824 H1820 0.949 . S
C1824 C1832 1.574 . S
C1824 C1840 1.368 . S
H1825 C1833 0.950 . S
H1826 C1831 0.950 . S
H1827 C1832 0.949 . S
H1828 C1834 0.950 . S
H1829 C1835 0.950 . S
H1830 C1836 0.949 . S
C1831 H1826 0.950 . S
C1831 C1833 1.327 . S
C1831 C1837 1.429 . S
C1832 C1824 1.574 . S
C1832 H1827 0.949 . S
C1832 C1838 1.368 . S
C1833 C1817 1.349 . S
C1833 H1825 0.950 . S
C1833 C1831 1.327 . S
C1834 C1822 1.349 . S
C1834 H1828 0.950 . S
C1834 C1835 1.327 . S
C1835 H1829 0.950 . S
C1835 C1834 1.327 . S
C1835 C1839 1.429 . S
C1836 C1819 1.574 . S
C1836 H1830 0.949 . S
C1836 C1840 1.368 . S
C1837 C1818 1.429 . S
C1837 C1831 1.429 . S
C1837 C1838 1.523 . S
C1838 C1819 1.368 . S
C1838 C1832 1.368 . S
C1838 C1837 1.523 . S
C1839 C1823 1.429 . S
C1839 C1835 1.429 . S
C1839 C1840 1.523 . S
C1840 C1824 1.368 . S
C1840 C1836 1.368 . S
C1840 C1839 1.523 . S
H1841 C1816 0.950 . S
H1842 C1818 0.950 . S
H1843 C1819 0.949 . S
H1844 C1821 0.950 . S
H1845 C1823 0.950 . S
C1846 C1847 1.349 . S
C1846 C1848 1.327 . S
C1846 H1871 0.950 . S
C1847 C1846 1.349 . S
C1847 C1863 1.349 . S
C1848 C1846 1.327 . S
C1848 C1867 1.429 . S
C1848 H1872 0.950 . S
C1849 C1866 1.574 . S
C1849 C1868 1.368 . S
C1849 H1873 0.949 . S
H1850 C1854 0.949 . S
C1851 C1852 1.349 . S
C1851 C1853 1.327 . S
C1851 H1874 0.950 . S
C1852 C1851 1.349 . S
C1852 C1864 1.349 . S
C1853 C1851 1.327 . S
C1853 C1869 1.429 . S
C1853 H1875 0.950 . S
C1854 H1850 0.949 . S
C1854 C1862 1.574 . S
C1854 C1870 1.368 . S
H1855 C1863 0.950 . S
H1856 C1861 0.950 . S
H1857 C1862 0.949 . S
H1858 C1864 0.950 . S
H1859 C1865 0.950 . S
H1860 C1866 0.949 . S
C1861 H1856 0.950 . S
C1861 C1863 1.327 . S
C1861 C1867 1.429 . S
C1862 C1854 1.574 . S
C1862 H1857 0.949 . S
C1862 C1868 1.368 . S
C1863 C1847 1.349 . S
C1863 H1855 0.950 . S
C1863 C1861 1.327 . S
C1864 C1852 1.349 . S
C1864 H1858 0.950 . S
C1864 C1865 1.327 . S
C1865 H1859 0.950 . S
C1865 C1864 1.327 . S
C1865 C1869 1.429 . S
C1866 C1849 1.574 . S
C1866 H1860 0.949 . S
C1866 C1870 1.368 . S
C1867 C1848 1.429 . S
C1867 C1861 1.429 . S
C1867 C1868 1.523 . S
C1868 C1849 1.368 . S
C1868 C1862 1.368 . S
C1868 C1867 1.523 . S
C1869 C1853 1.429 . S
C1869 C1865 1.429 . S
C1869 C1870 1.523 . S
C1870 C1854 1.368 . S
C1870 C1866 1.368 . S
C1870 C1869 1.523 . S
H1871 C1846 0.950 . S
H1872 C1848 0.950 . S
H1873 C1849 0.949 . S
H1874 C1851 0.950 . S
H1875 C1853 0.950 . S
C442 C295 2.034 . S
C437 N2 2.145 . S
C472 C297 1.975 . S
C467 C7 1.967 . S
C502 C324 1.819 . S
C497 N12 1.817 . S
C527 C16 2.345 . S
C532 C345 2.376 . S
C562 C365 2.193 . S
C557 C30 2.182 . S
C592 C395 1.661 . S
C587 N35 1.704 . S
C617 C39 2.207 . S
C622 C397 2.204 . S
C652 C435 1.947 . S
C647 N25 1.953 . S
C682 C277 1.310 . S
C677 N58 1.260 . S
C707 N81 1.089 . S
C712 C302 1.109 . S
C742 C332 1.052 . S
C737 N104 1.045 . S
C767 N127 1.617 . S
C772 C344 1.559 . S
C802 C364 0.758 . S
C797 N48 0.766 . S
C832 C377 1.657 . S
C827 N71 1.641 . S
C857 N94 0.473 . S
C862 C402 0.445 . S
C892 C417 1.721 . S
C887 N117 1.700 . S
C917 C85 1.669 . S
C922 C282 1.639 . S
C947 C122 1.682 . S
C952 C372 1.633 . S
C977 C53 1.458 . S
C982 C382 1.419 . S
C1012 C415 1.535 . S
C1007 C76 1.618 . S
C1042 C422 1.514 . S
C1037 C99 1.549 1_565 S
C1072 C325 1.956 . S
C1067 C131 1.927 . S
C1102 C352 0.884 . S
C1097 C62 0.899 . S
C1127 C108 0.729 . S
C1132 C315 0.732 . S
C1162 C424 2.125 . S
C1157 N140 2.229 . S
C1187 C145 2.153 . S
C1192 C357 2.160 . S
C1222 C384 1.727 . S
C1217 N150 1.729 . S
C1247 C154 2.150 . S
C1252 C405 2.180 . S
C1282 C305 1.985 . S
C1277 C168 1.973 . S
C1307 N173 1.644 . S
C1312 C335 1.637 . S
C1342 C337 2.389 . S
C1337 C177 2.393 . S
C1372 C284 1.985 . S
C1367 N163 2.021 . S
C1402 C432 1.414 . S
C1397 C200 1.449 . S
C1432 C362 1.595 . S
C1427 N219 1.586 . S
C1457 N242 1.172 . S
C1462 C392 1.185 . S
C1492 C404 1.491 . S
C1487 C269 1.599 . S
C1522 C304 0.676 . S
C1517 C191 0.654 . S
C1547 N209 1.835 . S
C1552 C317 1.855 . S
C1577 N232 0.847 . S
C1582 C342 0.842 . S
C1607 C260 1.777 . S
C1612 C292 1.719 . S
C1637 C223 1.792 . S
C1642 C425 1.820 . S
C1667 N255 1.089 . S
C1672 C312 1.120 . S
C1697 N186 1.155 . S
C1702 C322 1.160 . S
C1732 C355 1.599 . S
C1727 C214 1.700 . S
C1762 C285 1.587 . S
C1757 C237 1.587 . S
C1792 C385 1.584 . S
C1787 N265 1.546 . S
C1822 C412 0.495 . S
C1817 N196 0.549 . S
C1852 C375 0.745 . S
C1847 C246 0.743 . S
