# Generated by pormake.
# Topology gar, (4,6)-cn, num edge types: 1
# Building blocks:
#     Node 0, Type 0, BuildingBlock: QUQFOY_clean_sbu_1, # of connection points: 4
#     Node 1, Type 0, BuildingBlock: QUQFOY_clean_sbu_1, # of connection points: 4
#     Node 2, Type 0, BuildingBlock: QUQFOY_clean_sbu_1, # of connection points: 4
#     Node 3, Type 0, BuildingBlock: QUQFOY_clean_sbu_1, # of connection points: 4
#     Node 4, Type 0, BuildingBlock: QUQFOY_clean_sbu_1, # of connection points: 4
#     Node 5, Type 0, BuildingBlock: QUQFOY_clean_sbu_1, # of connection points: 4
#     Node 6, Type 0, BuildingBlock: QUQFOY_clean_sbu_1, # of connection points: 4
#     Node 7, Type 0, BuildingBlock: QUQFOY_clean_sbu_1, # of connection points: 4
#     Node 8, Type 0, BuildingBlock: QUQFOY_clean_sbu_1, # of connection points: 4
#     Node 9, Type 0, BuildingBlock: QUQFOY_clean_sbu_1, # of connection points: 4
#     Node 10, Type 0, BuildingBlock: QUQFOY_clean_sbu_1, # of connection points: 4
#     Node 11, Type 0, BuildingBlock: QUQFOY_clean_sbu_1, # of connection points: 4
#     Node 12, Type 0, BuildingBlock: QUQFOY_clean_sbu_1, # of connection points: 4
#     Node 13, Type 0, BuildingBlock: QUQFOY_clean_sbu_1, # of connection points: 4
#     Node 14, Type 0, BuildingBlock: QUQFOY_clean_sbu_1, # of connection points: 4
#     Node 15, Type 0, BuildingBlock: QUQFOY_clean_sbu_1, # of connection points: 4
#     Node 16, Type 0, BuildingBlock: QUQFOY_clean_sbu_1, # of connection points: 4
#     Node 17, Type 0, BuildingBlock: QUQFOY_clean_sbu_1, # of connection points: 4
#     Node 18, Type 0, BuildingBlock: QUQFOY_clean_sbu_1, # of connection points: 4
#     Node 19, Type 0, BuildingBlock: QUQFOY_clean_sbu_1, # of connection points: 4
#     Node 20, Type 0, BuildingBlock: QUQFOY_clean_sbu_1, # of connection points: 4
#     Node 21, Type 0, BuildingBlock: QUQFOY_clean_sbu_1, # of connection points: 4
#     Node 22, Type 0, BuildingBlock: QUQFOY_clean_sbu_1, # of connection points: 4
#     Node 23, Type 0, BuildingBlock: QUQFOY_clean_sbu_1, # of connection points: 4
#     Node 24, Type 1, BuildingBlock: BETDIP_clean_sbu_0, # of connection points: 6
#     Node 25, Type 1, BuildingBlock: BETDIP_clean_sbu_0, # of connection points: 6
#     Node 26, Type 1, BuildingBlock: BETDIP_clean_sbu_0, # of connection points: 6
#     Node 27, Type 1, BuildingBlock: BETDIP_clean_sbu_0, # of connection points: 6
#     Node 28, Type 1, BuildingBlock: BETDIP_clean_sbu_0, # of connection points: 6
#     Node 29, Type 1, BuildingBlock: BETDIP_clean_sbu_0, # of connection points: 6
#     Node 30, Type 1, BuildingBlock: BETDIP_clean_sbu_0, # of connection points: 6
#     Node 31, Type 1, BuildingBlock: BETDIP_clean_sbu_0, # of connection points: 6
#     Node 32, Type 1, BuildingBlock: BETDIP_clean_sbu_0, # of connection points: 6
#     Node 33, Type 1, BuildingBlock: BETDIP_clean_sbu_0, # of connection points: 6
#     Node 34, Type 1, BuildingBlock: BETDIP_clean_sbu_0, # of connection points: 6
#     Node 35, Type 1, BuildingBlock: BETDIP_clean_sbu_0, # of connection points: 6
#     Node 36, Type 1, BuildingBlock: BETDIP_clean_sbu_0, # of connection points: 6
#     Node 37, Type 1, BuildingBlock: BETDIP_clean_sbu_0, # of connection points: 6
#     Node 38, Type 1, BuildingBlock: BETDIP_clean_sbu_0, # of connection points: 6
#     Node 39, Type 1, BuildingBlock: BETDIP_clean_sbu_0, # of connection points: 6
#     Edge 40, Type (0, 1), BuildingBlock: XIVTED_clean_linker_0, # of connection points: 2
#     Edge 41, Type (0, 1), BuildingBlock: XIVTED_clean_linker_0, # of connection points: 2
#     Edge 42, Type (0, 1), BuildingBlock: XIVTED_clean_linker_0, # of connection points: 2
#     Edge 43, Type (0, 1), BuildingBlock: XIVTED_clean_linker_0, # of connection points: 2
#     Edge 44, Type (0, 1), BuildingBlock: XIVTED_clean_linker_0, # of connection points: 2
#     Edge 45, Type (0, 1), BuildingBlock: XIVTED_clean_linker_0, # of connection points: 2
#     Edge 46, Type (0, 1), BuildingBlock: XIVTED_clean_linker_0, # of connection points: 2
#     Edge 47, Type (0, 1), BuildingBlock: XIVTED_clean_linker_0, # of connection points: 2
#     Edge 48, Type (0, 1), BuildingBlock: XIVTED_clean_linker_0, # of connection points: 2
#     Edge 49, Type (0, 1), BuildingBlock: XIVTED_clean_linker_0, # of connection points: 2
#     Edge 50, Type (0, 1), BuildingBlock: XIVTED_clean_linker_0, # of connection points: 2
#     Edge 51, Type (0, 1), BuildingBlock: XIVTED_clean_linker_0, # of connection points: 2
#     Edge 52, Type (0, 1), BuildingBlock: XIVTED_clean_linker_0, # of connection points: 2
#     Edge 53, Type (0, 1), BuildingBlock: XIVTED_clean_linker_0, # of connection points: 2
#     Edge 54, Type (0, 1), BuildingBlock: XIVTED_clean_linker_0, # of connection points: 2
#     Edge 55, Type (0, 1), BuildingBlock: XIVTED_clean_linker_0, # of connection points: 2
#     Edge 56, Type (0, 1), BuildingBlock: XIVTED_clean_linker_0, # of connection points: 2
#     Edge 57, Type (0, 1), BuildingBlock: XIVTED_clean_linker_0, # of connection points: 2
#     Edge 58, Type (0, 1), BuildingBlock: XIVTED_clean_linker_0, # of connection points: 2
#     Edge 59, Type (0, 1), BuildingBlock: XIVTED_clean_linker_0, # of connection points: 2
#     Edge 60, Type (0, 1), BuildingBlock: XIVTED_clean_linker_0, # of connection points: 2
#     Edge 61, Type (0, 1), BuildingBlock: XIVTED_clean_linker_0, # of connection points: 2
#     Edge 62, Type (0, 1), BuildingBlock: XIVTED_clean_linker_0, # of connection points: 2
#     Edge 63, Type (0, 1), BuildingBlock: XIVTED_clean_linker_0, # of connection points: 2
#     Edge 64, Type (0, 1), BuildingBlock: XIVTED_clean_linker_0, # of connection points: 2
#     Edge 65, Type (0, 1), BuildingBlock: XIVTED_clean_linker_0, # of connection points: 2
#     Edge 66, Type (0, 1), BuildingBlock: XIVTED_clean_linker_0, # of connection points: 2
#     Edge 67, Type (0, 1), BuildingBlock: XIVTED_clean_linker_0, # of connection points: 2
#     Edge 68, Type (0, 1), BuildingBlock: XIVTED_clean_linker_0, # of connection points: 2
#     Edge 69, Type (0, 1), BuildingBlock: XIVTED_clean_linker_0, # of connection points: 2
#     Edge 70, Type (0, 1), BuildingBlock: XIVTED_clean_linker_0, # of connection points: 2
#     Edge 71, Type (0, 1), BuildingBlock: XIVTED_clean_linker_0, # of connection points: 2
#     Edge 72, Type (0, 1), BuildingBlock: XIVTED_clean_linker_0, # of connection points: 2
#     Edge 73, Type (0, 1), BuildingBlock: XIVTED_clean_linker_0, # of connection points: 2
#     Edge 74, Type (0, 1), BuildingBlock: XIVTED_clean_linker_0, # of connection points: 2
#     Edge 75, Type (0, 1), BuildingBlock: XIVTED_clean_linker_0, # of connection points: 2
#     Edge 76, Type (0, 1), BuildingBlock: XIVTED_clean_linker_0, # of connection points: 2
#     Edge 77, Type (0, 1), BuildingBlock: XIVTED_clean_linker_0, # of connection points: 2
#     Edge 78, Type (0, 1), BuildingBlock: XIVTED_clean_linker_0, # of connection points: 2
#     Edge 79, Type (0, 1), BuildingBlock: XIVTED_clean_linker_0, # of connection points: 2
#     Edge 80, Type (0, 1), BuildingBlock: XIVTED_clean_linker_0, # of connection points: 2
#     Edge 81, Type (0, 1), BuildingBlock: XIVTED_clean_linker_0, # of connection points: 2
#     Edge 82, Type (0, 1), BuildingBlock: XIVTED_clean_linker_0, # of connection points: 2
#     Edge 83, Type (0, 1), BuildingBlock: XIVTED_clean_linker_0, # of connection points: 2
#     Edge 84, Type (0, 1), BuildingBlock: XIVTED_clean_linker_0, # of connection points: 2
#     Edge 85, Type (0, 1), BuildingBlock: XIVTED_clean_linker_0, # of connection points: 2
#     Edge 86, Type (0, 1), BuildingBlock: XIVTED_clean_linker_0, # of connection points: 2
#     Edge 87, Type (0, 1), BuildingBlock: XIVTED_clean_linker_0, # of connection points: 2
#     Edge 88, Type (0, 1), BuildingBlock: XIVTED_clean_linker_0, # of connection points: 2
#     Edge 89, Type (0, 1), BuildingBlock: XIVTED_clean_linker_0, # of connection points: 2
#     Edge 90, Type (0, 1), BuildingBlock: XIVTED_clean_linker_0, # of connection points: 2
#     Edge 91, Type (0, 1), BuildingBlock: XIVTED_clean_linker_0, # of connection points: 2
#     Edge 92, Type (0, 1), BuildingBlock: XIVTED_clean_linker_0, # of connection points: 2
#     Edge 93, Type (0, 1), BuildingBlock: XIVTED_clean_linker_0, # of connection points: 2
#     Edge 94, Type (0, 1), BuildingBlock: XIVTED_clean_linker_0, # of connection points: 2
#     Edge 95, Type (0, 1), BuildingBlock: XIVTED_clean_linker_0, # of connection points: 2
#     Edge 96, Type (0, 1), BuildingBlock: XIVTED_clean_linker_0, # of connection points: 2
#     Edge 97, Type (0, 1), BuildingBlock: XIVTED_clean_linker_0, # of connection points: 2
#     Edge 98, Type (0, 1), BuildingBlock: XIVTED_clean_linker_0, # of connection points: 2
#     Edge 99, Type (0, 1), BuildingBlock: XIVTED_clean_linker_0, # of connection points: 2
#     Edge 100, Type (0, 1), BuildingBlock: XIVTED_clean_linker_0, # of connection points: 2
#     Edge 101, Type (0, 1), BuildingBlock: XIVTED_clean_linker_0, # of connection points: 2
#     Edge 102, Type (0, 1), BuildingBlock: XIVTED_clean_linker_0, # of connection points: 2
#     Edge 103, Type (0, 1), BuildingBlock: XIVTED_clean_linker_0, # of connection points: 2
#     Edge 104, Type (0, 1), BuildingBlock: XIVTED_clean_linker_0, # of connection points: 2
#     Edge 105, Type (0, 1), BuildingBlock: XIVTED_clean_linker_0, # of connection points: 2
#     Edge 106, Type (0, 1), BuildingBlock: XIVTED_clean_linker_0, # of connection points: 2
#     Edge 107, Type (0, 1), BuildingBlock: XIVTED_clean_linker_0, # of connection points: 2
#     Edge 108, Type (0, 1), BuildingBlock: XIVTED_clean_linker_0, # of connection points: 2
#     Edge 109, Type (0, 1), BuildingBlock: XIVTED_clean_linker_0, # of connection points: 2
#     Edge 110, Type (0, 1), BuildingBlock: XIVTED_clean_linker_0, # of connection points: 2
#     Edge 111, Type (0, 1), BuildingBlock: XIVTED_clean_linker_0, # of connection points: 2
#     Edge 112, Type (0, 1), BuildingBlock: XIVTED_clean_linker_0, # of connection points: 2
#     Edge 113, Type (0, 1), BuildingBlock: XIVTED_clean_linker_0, # of connection points: 2
#     Edge 114, Type (0, 1), BuildingBlock: XIVTED_clean_linker_0, # of connection points: 2
#     Edge 115, Type (0, 1), BuildingBlock: XIVTED_clean_linker_0, # of connection points: 2
#     Edge 116, Type (0, 1), BuildingBlock: XIVTED_clean_linker_0, # of connection points: 2
#     Edge 117, Type (0, 1), BuildingBlock: XIVTED_clean_linker_0, # of connection points: 2
#     Edge 118, Type (0, 1), BuildingBlock: XIVTED_clean_linker_0, # of connection points: 2
#     Edge 119, Type (0, 1), BuildingBlock: XIVTED_clean_linker_0, # of connection points: 2
#     Edge 120, Type (0, 1), BuildingBlock: XIVTED_clean_linker_0, # of connection points: 2
#     Edge 121, Type (0, 1), BuildingBlock: XIVTED_clean_linker_0, # of connection points: 2
#     Edge 122, Type (0, 1), BuildingBlock: XIVTED_clean_linker_0, # of connection points: 2
#     Edge 123, Type (0, 1), BuildingBlock: XIVTED_clean_linker_0, # of connection points: 2
#     Edge 124, Type (0, 1), BuildingBlock: XIVTED_clean_linker_0, # of connection points: 2
#     Edge 125, Type (0, 1), BuildingBlock: XIVTED_clean_linker_0, # of connection points: 2
#     Edge 126, Type (0, 1), BuildingBlock: XIVTED_clean_linker_0, # of connection points: 2
#     Edge 127, Type (0, 1), BuildingBlock: XIVTED_clean_linker_0, # of connection points: 2
#     Edge 128, Type (0, 1), BuildingBlock: XIVTED_clean_linker_0, # of connection points: 2
#     Edge 129, Type (0, 1), BuildingBlock: XIVTED_clean_linker_0, # of connection points: 2
#     Edge 130, Type (0, 1), BuildingBlock: XIVTED_clean_linker_0, # of connection points: 2
#     Edge 131, Type (0, 1), BuildingBlock: XIVTED_clean_linker_0, # of connection points: 2
#     Edge 132, Type (0, 1), BuildingBlock: XIVTED_clean_linker_0, # of connection points: 2
#     Edge 133, Type (0, 1), BuildingBlock: XIVTED_clean_linker_0, # of connection points: 2
#     Edge 134, Type (0, 1), BuildingBlock: XIVTED_clean_linker_0, # of connection points: 2
#     Edge 135, Type (0, 1), BuildingBlock: XIVTED_clean_linker_0, # of connection points: 2
# Relax obj value: 0.198
# Max RMSD: 0.314
# Mean RMSD: 0.176
data_MOF--net-gar--node1-QUQFOY_clean_sbu_1--node2-BETDIP_clean_sbu_0--edge1-XIVTED_clean_linker_0
_symmetry_space_group_name_H-M    P1
_symmetry_Int_Tables_number       1
_symmetry_cell_setting            triclinic
loop_
_symmetry_equiv_pos_as_xyz
'x, y, z'
_cell_length_a     65.368635
_cell_length_b     57.699898
_cell_length_c     55.528234
_cell_angle_alpha  97.279221
_cell_angle_beta   98.5874
_cell_angle_gamma 103.26257
loop_
_atom_site_label
_atom_site_type_symbol
_atom_site_fract_x
_atom_site_fract_y
_atom_site_fract_z
_atom_type_partial_charge
O0 O 0.03246 0.2819 0.4068 0.0
Cd1 Cd 0.03302 0.30684 0.38453 0.0
Cd2 Cd 0.03145 0.33765 0.42762 0.0
O3 O 0.03751 0.30829 0.44074 0.0
O4 O 0.04149 0.29137 0.35569 0.0
O5 O 0.06092 0.32573 0.37922 0.0
C6 C 0.05863 0.30873 0.36071 0.0
C7 C 0.03754 0.36894 0.46035 0.0
C8 C 0.03594 0.28711 0.43005 0.0
C9 C 0.99515 0.32507 0.38292 0.0
O10 O 1.00322 0.33549 0.40488 0.0
O11 O 1.00497 0.31283 0.37062 0.0
O12 O 0.02199 0.35013 0.45751 0.0
O13 O 0.0501 0.37015 0.44446 0.0
O14 O 0.04696 0.71875 0.73218 0.0
Cd15 Cd 0.06114 0.74609 0.76143 0.0
Cd16 Cd 0.06922 0.77028 0.72711 0.0
O17 O 0.04571 0.74358 0.70549 0.0
O18 O 0.04429 0.74586 0.78798 0.0
O19 O 0.04853 0.77395 0.76381 0.0
C20 C 0.04015 0.76528 0.78143 0.0
C21 C 0.07268 0.80643 0.71334 0.0
C22 C 0.04075 0.72252 0.71056 0.0
C23 C 0.10537 0.75787 0.75835 0.0
O24 O 0.09812 0.76353 0.7381 0.0
O25 O 0.09327 0.75227 0.77364 0.0
O26 O 0.0779 0.78866 0.70167 0.0
O27 O 0.06515 0.80376 0.73325 0.0
O28 O 0.57326 0.81955 0.91605 0.0
Cd29 Cd 0.54914 0.82148 0.93429 0.0
Cd30 Cd 0.53788 0.84406 0.89855 0.0
O31 O 0.56153 0.83387 0.88317 0.0
O32 O 0.55384 0.80263 0.96048 0.0
O33 O 0.52495 0.79251 0.93083 0.0
C34 C 0.53544 0.78841 0.95069 0.0
C35 C 0.50229 0.82836 0.88257 0.0
C36 C 0.57494 0.82455 0.89478 0.0
C37 C 0.54812 0.87218 0.94839 0.0
O38 O 0.54504 0.87367 0.92561 0.0
O39 O 0.54934 0.85247 0.95532 0.0
O40 O 0.51342 0.84588 0.87391 0.0
O41 O 0.51184 0.81906 0.89945 0.0
O42 O 0.54807 0.21963 0.22748 0.0
Cd43 Cd 0.55967 0.24133 0.2608 0.0
Cd44 Cd 0.57247 0.27627 0.23503 0.0
O45 O 0.56183 0.24783 0.20696 0.0
O46 O 0.53974 0.23788 0.2844 0.0
O47 O 0.5482 0.26975 0.26572 0.0
C48 C 0.53736 0.25879 0.28036 0.0
C49 C 0.57096 0.31233 0.2229 0.0
C50 C 0.55175 0.2264 0.20735 0.0
C51 C 0.60493 0.26455 0.27262 0.0
O52 O 0.59965 0.27917 0.25924 0.0
O53 O 0.59122 0.246 0.27522 0.0
O54 O 0.58455 0.30095 0.21653 0.0
O55 O 0.55766 0.30298 0.23609 0.0
O56 O 0.06996 0.77023 0.16534 0.0
Cd57 Cd 0.07704 0.79954 0.19282 0.0
Cd58 Cd 0.09831 0.82022 0.15839 0.0
O59 O 0.08836 0.78549 0.13821 0.0
O60 O 0.05847 0.78704 0.21633 0.0
O61 O 0.05453 0.81779 0.19786 0.0
C62 C 0.04797 0.80292 0.21226 0.0
C63 C 0.09019 0.85329 0.14196 0.0
C64 C 0.07662 0.76764 0.14508 0.0
C65 C 0.1253 0.81766 0.20635 0.0
O66 O 0.12488 0.82539 0.18585 0.0
O67 O 0.10799 0.80753 0.21283 0.0
O68 O 0.10543 0.84431 0.13591 0.0
O69 O 0.07931 0.84329 0.15723 0.0
O70 O 0.55922 0.77217 0.45491 0.0
Cd71 Cd 0.54117 0.77002 0.48208 0.0
Cd72 Cd 0.51391 0.787 0.44003 0.0
O73 O 0.53942 0.78138 0.4232 0.0
O74 O 0.55728 0.75468 0.50629 0.0
O75 O 0.52445 0.73713 0.48625 0.0
C76 C 0.54112 0.73611 0.50142 0.0
C77 C 0.47926 0.78371 0.41729 0.0
C78 C 0.55653 0.77635 0.43289 0.0
C79 C 0.53066 0.81759 0.49279 0.0
O80 O 0.52102 0.81372 0.47047 0.0
O81 O 0.53953 0.80227 0.5016 0.0
O82 O 0.49542 0.80097 0.41631 0.0
O83 O 0.48294 0.76725 0.42985 0.0
O84 O 0.57897 0.26662 0.67124 0.0
Cd85 Cd 0.58503 0.29606 0.69871 0.0
Cd86 Cd 0.60734 0.3158 0.66394 0.0
O87 O 0.59637 0.28153 0.64316 0.0
O88 O 0.56589 0.28262 0.72142 0.0
O89 O 0.56162 0.31333 0.70312 0.0
C90 C 0.55495 0.29805 0.71709 0.0
C91 C 0.60043 0.34979 0.64834 0.0
C92 C 0.585 0.2638 0.65058 0.0
C93 C 0.63348 0.31346 0.71282 0.0
O94 O 0.63355 0.31922 0.69144 0.0
O95 O 0.61583 0.30537 0.71976 0.0
O96 O 0.61539 0.34035 0.64217 0.0
O97 O 0.58918 0.33979 0.6633 0.0
O98 O 0.02499 0.23128 0.96181 0.0
Cd99 Cd 0.02459 0.2575 0.93977 0.0
Cd100 Cd 1.01278 0.27867 0.98354 0.0
O101 O 0.01833 0.24841 0.99677 0.0
O102 O 0.03871 0.2469 0.91215 0.0
O103 O 0.05332 0.27998 0.93962 0.0
C104 C 0.05477 0.26524 0.92076 0.0
C105 C 0.02508 0.31733 1.00649 0.0
C106 C 0.02274 0.23087 0.98411 0.0
C107 C 0.98167 0.27005 0.93516 0.0
O108 O 0.9855 0.27552 0.95853 0.0
O109 O 0.99534 0.26312 0.92378 0.0
O110 O 1.00956 0.30167 0.01172 0.0
O111 O 0.03475 0.31039 0.98929 0.0
O112 O 0.42552 0.06776 0.26555 0.0
Cd113 Cd 0.40132 0.06996 0.28838 0.0
Cd114 Cd 0.44215 0.04849 0.32205 0.0
O115 O 0.452 0.05577 0.28735 0.0
O116 O 0.37848 0.08796 0.27357 0.0
O117 O 0.40027 0.10361 0.30825 0.0
C118 C 0.38485 0.10579 0.29183 0.0
C119 C 0.46552 0.04964 0.36206 0.0
C120 C 0.44359 0.06187 0.26724 0.0
C121 C 0.39317 1.01835 0.3068 0.0
O122 O 0.4129 0.02245 0.31674 0.0
O123 O 0.38597 0.03427 0.29604 0.0
O124 O 0.46373 0.03365 0.34284 0.0
O125 O 0.45528 0.06595 0.35851 0.0
O126 O 0.29201 0.17964 0.5852 0.0
Cd127 Cd 0.28499 0.15137 0.55642 0.0
Cd128 Cd 0.2657 0.18503 0.533 0.0
O129 O 0.27623 0.20517 0.56812 0.0
O130 O 0.30116 0.12894 0.57057 0.0
O131 O 0.30876 0.14556 0.53837 0.0
C132 C 0.31326 0.13223 0.55438 0.0
C133 C 0.27149 0.20416 0.49873 0.0
C134 C 0.28658 0.19947 0.58677 0.0
C135 C 0.2365 0.13778 0.53807 0.0
O136 O 0.2384 0.15746 0.52951 0.0
O137 O 0.25289 0.132 0.54864 0.0
O138 O 0.2577 0.20846 0.51187 0.0
O139 O 0.28217 0.18892 0.50503 0.0
O140 O 0.1429 0.04829 0.79511 0.0
Cd141 Cd 0.16595 0.05493 0.82617 0.0
Cd142 Cd 0.13922 0.0794 0.84278 0.0
O143 O 0.12075 0.06845 0.80821 0.0
O144 O 0.18502 0.03705 0.81255 0.0
O145 O 0.17028 0.0283 0.84473 0.0
C146 C 0.18244 0.02386 0.82937 0.0
C147 C 0.12602 0.06879 0.87722 0.0
C148 C 0.12592 0.05538 0.79118 0.0
C149 C 0.18306 0.10809 0.84354 0.0
O150 O 0.1645 0.109 0.84696 0.0
O151 O 0.18696 0.08815 0.83615 0.0
O152 O 0.12135 0.08634 0.86714 0.0
O153 O 0.13812 0.05693 0.8674 0.0
O154 O 0.26416 0.88407 0.05734 0.0
Cd155 Cd 0.24413 0.89787 0.03521 0.0
Cd156 Cd 0.24047 0.85797 1.00973 0.0
O157 O 0.24421 0.84761 0.04347 0.0
O158 O 0.2417 0.92442 0.05895 0.0
O159 O 0.21404 0.89421 0.03969 0.0
C160 C 0.22167 0.91376 0.05575 0.0
C161 C 0.22317 0.82719 0.97747 0.0
C162 C 0.25892 0.86207 0.05943 0.0
C163 C 0.26905 0.9028 0.99945 0.0
O164 O 0.26693 0.88058 1.00081 0.0
O165 O 0.25658 0.91375 1.00852 0.0
O166 O 0.24099 0.82723 0.99081 0.0
O167 O 0.21447 0.84463 0.98283 0.0
O168 O 0.32829 0.41016 0.13421 0.0
Cd169 Cd 0.33016 0.43289 0.10838 0.0
Cd170 Cd 0.33836 0.39269 0.0814 0.0
O171 O 0.33063 0.37707 0.11125 0.0
O172 O 0.31582 0.45798 0.1204 0.0
O173 O 0.30297 0.43228 0.08541 0.0
C174 C 0.30091 0.44972 0.10118 0.0
C175 C 0.32668 0.37013 0.04185 0.0
C176 C 0.32795 0.38787 0.13149 0.0
C177 C 0.37298 0.43995 0.09316 0.0
O178 O 0.36732 0.41744 0.08489 0.0
O179 O 0.36019 0.45034 0.1027 0.0
O180 O 0.34162 0.36588 0.05726 0.0
O181 O 0.31753 0.3866 0.04934 0.0
O182 O 0.86693 0.21002 0.14258 0.0
Cd183 Cd 0.85232 0.18239 0.11397 0.0
Cd184 Cd 0.83155 0.21406 0.10556 0.0
O185 O 0.86104 0.23655 0.11964 0.0
O186 O 0.86925 0.15884 0.11461 0.0
O187 O 0.86418 0.17892 0.08331 0.0
C188 C 0.87189 0.16266 0.09276 0.0
C189 C 0.80884 0.22637 0.077 0.0
C190 C 0.87007 0.2319 0.13958 0.0
C191 C 0.8101 0.17255 0.1245 0.0
O192 O 0.81419 0.19537 0.12798 0.0
O193 O 0.82246 0.16219 0.11445 0.0
O194 O 0.81423 0.23715 0.09957 0.0
O195 O 0.81741 0.20916 0.07013 0.0
O196 O 0.1655 0.51438 0.29322 0.0
Cd197 Cd 0.19366 0.51665 0.32015 0.0
Cd198 Cd 0.15962 0.54516 0.35117 0.0
O199 O 0.14442 0.53317 0.31281 0.0
O200 O 0.21432 0.49677 0.30576 0.0
O201 O 0.19863 0.48596 0.33573 0.0
C202 C 0.21117 0.48147 0.32079 0.0
C203 C 0.14052 0.54679 0.38727 0.0
C204 C 0.14871 0.52267 0.29288 0.0
C205 C 0.20511 0.57403 0.34283 0.0
O206 O 0.18794 0.57224 0.35194 0.0
O207 O 0.2097 0.55518 0.3318 0.0
O208 O 0.13912 0.56042 0.37066 0.0
O209 O 0.15221 0.53189 0.38353 0.0
O210 O 0.83014 0.91201 0.63692 0.0
Cd211 Cd 0.83162 0.93426 0.61037 0.0
Cd212 Cd 0.84021 0.8948 0.58411 0.0
O213 O 0.83108 0.87883 0.61305 0.0
O214 O 0.81704 0.95962 0.62143 0.0
O215 O 0.80389 0.93242 0.5876 0.0
C216 C 0.80184 0.9504 0.60266 0.0
C217 C 0.82636 0.87495 0.54403 0.0
C218 C 0.82891 0.88948 0.6336 0.0
C219 C 0.87498 0.94086 0.59522 0.0
O220 O 0.87006 0.91807 0.5886 0.0
O221 O 0.86143 0.95126 0.60308 0.0
O222 O 0.83993 0.86741 0.55831 0.0
O223 O 0.82003 0.89338 0.55279 0.0
O224 O 0.95437 0.02037 0.24487 0.0
Cd225 Cd 0.93367 1.01582 0.26845 0.0
Cd226 Cd 0.96467 0.99824 0.2923 0.0
O227 O 0.97982 1.00581 0.26311 0.0
O228 O 0.91256 0.03106 0.2528 0.0
O229 O 0.93119 0.04448 0.29082 0.0
C230 C 0.91716 0.04663 0.27279 0.0
C231 C 0.98265 1.01177 0.33268 0.0
C232 C 0.97226 1.01538 0.24561 0.0
C233 C 0.92033 0.96582 0.27804 0.0
O234 O 0.93962 0.96814 0.28801 0.0
O235 O 0.91474 0.98284 0.2688 0.0
O236 O 0.98621 0.99377 0.31913 0.0
O237 O 0.96939 0.02296 0.32282 0.0
O238 O 0.37874 0.69392 0.66563 0.0
Cd239 Cd 0.36512 0.67044 0.63384 0.0
Cd240 Cd 0.35492 0.70672 0.61678 0.0
O241 O 0.3769 0.72499 0.64723 0.0
O242 O 0.3795 0.64466 0.6306 0.0
O243 O 0.37886 0.67103 0.60444 0.0
C244 C 0.38412 0.65198 0.61056 0.0
C245 C 0.3494 0.72997 0.58708 0.0
C246 C 0.38286 0.71656 0.66628 0.0
C247 C 0.31957 0.66498 0.623 0.0
O248 O 0.32518 0.68649 0.61913 0.0
O249 O 0.33355 0.65379 0.6289 0.0
O250 O 0.34509 0.73481 0.60865 0.0
O251 O 0.35823 0.71245 0.58261 0.0
O252 O 0.45282 0.51518 0.74217 0.0
Cd253 Cd 0.43304 0.51442 0.76685 0.0
Cd254 Cd 0.46486 0.50227 0.79563 0.0
O255 O 0.48076 0.51104 0.76729 0.0
O256 O 0.41145 0.52929 0.75158 0.0
O257 O 0.43223 0.54453 0.78821 0.0
C258 C 0.4171 0.54576 0.77094 0.0
C259 C 0.48295 0.51502 0.83604 0.0
C260 C 0.47222 0.51456 0.74645 0.0
C261 C 0.42167 0.46662 0.78111 0.0
O262 O 0.44116 0.47064 0.79128 0.0
O263 O 0.41497 0.48234 0.77063 0.0
O264 O 0.48686 0.49771 0.82189 0.0
O265 O 0.46923 0.52597 0.82682 0.0
O266 O 0.66774 1.01267 0.79093 0.0
Cd267 Cd 0.69508 1.01443 0.81871 0.0
Cd268 Cd 0.65982 0.04222 0.84798 0.0
O269 O 0.64478 0.02902 0.80958 0.0
O270 O 0.71608 0.99505 0.80474 0.0
O271 O 0.69985 0.98367 0.83416 0.0
C272 C 0.71277 0.97959 0.81956 0.0
C273 C 0.64032 0.04362 0.8838 0.0
C274 C 0.65022 1.01956 0.78987 0.0
C275 C 0.70609 0.07139 0.84122 0.0
O276 O 0.68829 0.06958 0.84906 0.0
O277 O 0.71117 0.05255 0.83102 0.0
O278 O 0.63889 0.05717 0.86713 0.0
O279 O 0.65227 0.02896 0.88029 0.0
O280 O 0.78908 0.68277 0.08878 0.0
Cd281 Cd 0.78341 0.65531 0.05916 0.0
Cd282 Cd 0.76577 0.69038 0.03699 0.0
O283 O 0.77689 0.71072 0.07168 0.0
O284 O 0.79919 0.63279 0.07373 0.0
O285 O 0.80815 0.65038 0.04254 0.0
C286 C 0.81207 0.63671 0.05843 0.0
C287 C 0.77194 0.70829 1.0021 0.0
C288 C 0.78534 0.70351 0.09051 0.0
C289 C 0.73545 0.64307 0.04056 0.0
O290 O 0.73796 0.66407 0.03481 0.0
O291 O 0.75155 0.63544 0.04875 0.0
O292 O 0.75851 0.71368 0.01527 0.0
O293 O 0.78201 0.69262 1.0087 0.0
O294 O 0.92741 0.56716 0.77044 0.0
Cd295 Cd 0.90334 0.56886 0.79379 0.0
Cd296 Cd 0.94425 0.54791 0.82598 0.0
O297 O 0.95472 0.55675 0.79236 0.0
O298 O 0.88002 0.58598 0.77842 0.0
O299 O 0.90173 0.60267 0.81288 0.0
C300 C 0.88619 0.60421 0.79626 0.0
C301 C 0.96712 0.55001 0.86637 0.0
C302 C 0.94594 0.56236 0.77222 0.0
C303 C 0.89621 0.51631 0.81053 0.0
O304 O 0.91621 0.51997 0.81884 0.0
O305 O 0.88841 0.53309 0.80221 0.0
O306 O 0.96699 0.53493 0.84705 0.0
O307 O 0.95534 0.56489 0.8628 0.0
O308 O 0.7614 0.38072 0.55556 0.0
Cd309 Cd 0.74417 0.39542 0.53097 0.0
Cd310 Cd 0.73981 0.35259 0.51002 0.0
O311 O 0.73899 0.34522 0.5447 0.0
O312 O 0.74828 0.42649 0.55211 0.0
O313 O 0.7166 0.40056 0.53878 0.0
C314 C 0.72817 0.42037 0.55247 0.0
C315 C 0.72401 0.32156 0.47769 0.0
C316 C 0.75392 0.3599 0.56018 0.0
C317 C 0.77157 0.39373 0.49852 0.0
O318 O 0.76865 0.37253 0.50368 0.0
O319 O 0.75811 0.4057 0.50256 0.0
O320 O 0.73993 0.3205 0.49379 0.0
O321 O 0.71601 0.33996 0.48079 0.0
O322 O 0.65061 0.559 0.29872 0.0
Cd323 Cd 0.67028 0.56085 0.33152 0.0
Cd324 Cd 0.64105 0.5799 0.34665 0.0
O325 O 0.62256 0.56697 0.31217 0.0
O326 O 0.69051 0.54415 0.3189 0.0
O327 O 0.67141 0.53134 0.34656 0.0
C328 C 0.68529 0.52855 0.33292 0.0
C329 C 0.62929 0.56917 0.38179 0.0
C330 C 0.6315 0.5608 0.29452 0.0
C331 C 0.68447 0.61234 0.35133 0.0
O332 O 0.66475 0.61135 0.35027 0.0
O333 O 0.69059 0.59321 0.34707 0.0
O334 O 0.62286 0.58549 0.37107 0.0
O335 O 0.64219 0.55844 0.37208 0.0
Tb336 Tb 0.03246 0.02764 0.05073 0.0
Tb337 Tb 0.07409 0.05746 0.07873 0.0
C338 C 0.99355 1.01054 0.03356 0.0
C339 C 0.97681 0.02249 0.02605 0.0
C340 C 0.95766 1.01644 0.03483 0.0
C341 C 0.94353 0.0311 0.03293 0.0
C342 C 0.94827 0.05192 0.02194 0.0
C343 C 0.96684 0.057 0.01167 0.0
C344 C 0.98112 0.04249 0.01388 0.0
C345 C 0.06387 0.03212 0.02571 0.0
C346 C 0.04454 0.08488 0.05324 0.0
C347 C 0.11268 0.07498 0.09724 0.0
C348 C 0.12731 0.06339 0.11063 0.0
C349 C 0.14795 0.06629 0.10542 0.0
C350 C 0.15924 0.04916 0.11037 0.0
C351 C 0.14983 0.02917 0.12047 0.0
C352 C 0.13022 0.02769 0.12812 0.0
C353 C 0.11899 0.04483 0.1233 0.0
C354 C 0.04262 0.05284 0.10355 0.0
C355 C 0.06185 0.99972 0.07637 0.0
O356 O 1.00143 1.01556 0.05726 0.0
O357 O 1.00837 1.01142 0.02001 0.0
O358 O 0.06035 0.0483 0.04067 0.0
O359 O 0.04903 1.0124 0.02379 0.0
O360 O 0.02896 0.06504 0.05131 0.0
O361 O 0.06467 0.08496 0.06045 0.0
O362 O 0.10593 0.065 0.074 0.0
O363 O 0.09717 0.07903 0.10821 0.0
O364 O 0.04637 0.03676 0.08875 0.0
O365 O 0.05733 0.07262 0.10549 0.0
O366 O 0.07718 0.02015 0.08024 0.0
O367 O 0.04194 0.99887 0.06692 0.0
H368 H 0.95431 1.0013 0.04463 0.0
H369 H 0.92963 0.02693 0.04156 0.0
H370 H 0.97083 0.07277 1.00292 0.0
H371 H 0.996 0.04769 1.00724 0.0
H372 H 0.15439 0.08028 0.0953 0.0
H373 H 0.17425 0.05016 0.10399 0.0
H374 H 0.12271 1.01208 0.13555 0.0
H375 H 0.10292 0.04208 0.12716 0.0
Tb376 Tb 0.30349 0.7855 0.29954 0.0
Tb377 Tb 0.29141 0.80583 0.34056 0.0
C378 C 0.31282 0.77176 0.25891 0.0
C379 C 0.31889 0.78297 0.23838 0.0
C380 C 0.31616 0.806 0.23621 0.0
C381 C 0.32024 0.81573 0.21534 0.0
C382 C 0.32698 0.80241 0.19645 0.0
C383 C 0.33087 0.77993 0.19943 0.0
C384 C 0.32679 0.77022 0.22039 0.0
C385 C 0.32907 0.78287 0.34054 0.0
C386 C 0.31863 0.84329 0.31532 0.0
C387 C 0.28201 0.81881 0.3814 0.0
C388 C 0.2795 0.80726 0.40275 0.0
C389 C 0.28582 0.78583 0.4042 0.0
C390 C 0.28612 0.77629 0.42583 0.0
C391 C 0.28027 0.78823 0.44633 0.0
C392 C 0.27283 0.80902 0.44436 0.0
C393 C 0.27247 0.81854 0.42254 0.0
C394 C 0.26671 0.80928 0.29946 0.0
C395 C 0.27698 0.74792 0.3253 0.0
O396 O 0.29327 0.77081 0.26214 0.0
O397 O 0.32674 0.77902 0.27942 0.0
O398 O 0.32224 0.80092 0.33594 0.0
O399 O 0.32056 0.76541 0.3224 0.0
O400 O 0.31365 0.82492 0.29661 0.0
O401 O 0.31352 0.83909 0.33666 0.0
O402 O 0.30147 0.82361 0.377 0.0
O403 O 0.26778 0.80875 0.36157 0.0
O404 O 0.27288 0.79085 0.30407 0.0
O405 O 0.27469 0.82642 0.318 0.0
O406 O 0.28183 0.76651 0.34372 0.0
O407 O 0.28195 0.7519 0.30384 0.0
H408 H 0.3099 0.81592 0.24998 0.0
H409 H 0.3166 0.83285 0.21324 0.0
H410 H 0.33598 0.76939 0.185 0.0
H411 H 0.32903 0.75242 0.22213 0.0
H412 H 0.29178 0.77727 0.38923 0.0
H413 H 0.29247 0.76061 0.42702 0.0
H414 H 0.26831 0.8185 0.46002 0.0
H415 H 0.26763 0.83519 0.42149 0.0
Tb416 Tb 0.57882 0.04137 0.5711 0.0
Tb417 Tb 0.53447 0.03503 0.58324 0.0
C418 C 0.61863 0.0498 0.57217 0.0
C419 C 0.6363 0.03797 0.57678 0.0
C420 C 0.6331 1.01279 0.57138 0.0
C421 C 0.65052 1.00239 0.57496 0.0
C422 C 0.67143 1.01696 0.5841 0.0
C423 C 0.67435 0.04213 0.58974 0.0
C424 C 0.657 0.05245 0.58617 0.0
C425 C 0.54773 0.037 0.53175 0.0
C426 C 0.55096 0.98954 0.56719 0.0
C427 C 0.49484 0.03018 0.58057 0.0
C428 C 0.47707 0.04128 0.57357 0.0
C429 C 0.48042 0.06594 0.57195 0.0
C430 C 0.46296 0.07635 0.56854 0.0
C431 C 0.44193 0.06231 0.56695 0.0
C432 C 0.43877 0.03748 0.56774 0.0
C433 C 0.45612 0.02714 0.57102 0.0
C434 C 0.56133 0.0296 0.62344 0.0
C435 C 0.56344 0.08797 0.58915 0.0
O436 O 0.61014 0.05581 0.59114 0.0
O437 O 0.60422 0.04083 0.55216 0.0
O438 O 0.54914 0.04841 0.55341 0.0
O439 O 0.56445 0.0285 0.53197 0.0
O440 O 0.57068 1.00332 0.57368 0.0
O441 O 0.5342 0.9988 0.56615 0.0
O442 O 0.50313 0.02048 0.56296 0.0
O443 O 0.5093 0.04181 0.59981 0.0
O444 O 0.56532 0.03379 0.60252 0.0
O445 O 0.5411 0.02795 0.62163 0.0
O446 O 0.54436 0.07399 0.58902 0.0
O447 O 0.57925 0.07924 0.58273 0.0
H448 H 0.61721 1.00122 0.56424 0.0
H449 H 0.64758 0.98294 0.57072 0.0
H450 H 0.69016 0.05402 0.59642 0.0
H451 H 0.65982 0.0719 0.59041 0.0
H452 H 0.49651 0.07724 0.57405 0.0
H453 H 0.466 0.09554 0.5681 0.0
H454 H 0.42283 0.026 0.56611 0.0
H455 H 0.45318 1.00812 0.57233 0.0
Tb456 Tb 0.2791 0.29014 0.80798 0.0
Tb457 Tb 0.32533 0.2847 0.81768 0.0
C458 C 0.24009 0.28895 0.8061 0.0
C459 C 0.22233 0.28603 0.81986 0.0
C460 C 0.22542 0.28757 0.84565 0.0
C461 C 0.20779 0.28496 0.85774 0.0
C462 C 0.18685 0.2807 0.84417 0.0
C463 C 0.18408 0.27933 0.81837 0.0
C464 C 0.20158 0.2819 0.80642 0.0
C465 C 0.30874 0.32581 0.80019 0.0
C466 C 0.30665 0.3021 0.86272 0.0
C467 C 0.36462 0.2876 0.81974 0.0
C468 C 0.38165 0.2867 0.80518 0.0
C469 C 0.38359 0.29858 0.78473 0.0
C470 C 0.40139 0.29937 0.77318 0.0
C471 C 0.41757 0.28837 0.78192 0.0
C472 C 0.41521 0.27617 0.80214 0.0
C473 C 0.39746 0.27531 0.81353 0.0
C474 C 0.29575 0.24897 0.82576 0.0
C475 C 0.29802 0.27226 0.76274 0.0
O476 O 0.24712 0.2699 0.80024 0.0
O477 O 0.25553 0.30878 0.81267 0.0
O478 O 0.31036 0.31362 0.81719 0.0
O479 O 0.28945 0.31933 0.78755 0.0
O480 O 0.28735 0.29484 0.84851 0.0
O481 O 0.32437 0.30268 0.8538 0.0
O482 O 0.35626 0.30616 0.81976 0.0
O483 O 0.35042 0.26738 0.81935 0.0
O484 O 0.29401 0.26114 0.80871 0.0
O485 O 0.31515 0.25548 0.83816 0.0
O486 O 0.31705 0.27803 0.77739 0.0
O487 O 0.28023 0.27336 0.77104 0.0
H488 H 0.24137 0.29074 0.85635 0.0
H489 H 0.21052 0.28596 0.8776 0.0
H490 H 0.16834 0.2766 0.80731 0.0
H491 H 0.19889 0.28081 0.78652 0.0
H492 H 0.37159 0.30758 0.77796 0.0
H493 H 0.40248 0.30866 0.75748 0.0
H494 H 0.42742 0.26788 0.8098 0.0
H495 H 0.39641 0.26629 0.82944 0.0
Tb496 Tb 0.0548 0.06809 0.56914 0.0
Tb497 Tb 0.05495 1.01563 0.55689 0.0
C498 C 0.06897 0.11249 0.57498 0.0
C499 C 0.06234 0.13094 0.56316 0.0
C500 C 0.07704 0.15312 0.56533 0.0
C501 C 0.07198 0.17001 0.5515 0.0
C502 C 0.05212 0.16476 0.53556 0.0
C503 C 0.03728 0.1425 0.53361 0.0
C504 C 0.04245 0.12551 0.54735 0.0
C505 C 1.01645 0.04102 0.57108 0.0
C506 C 0.03577 0.03905 0.51492 0.0
C507 C 0.05279 0.97186 0.55416 0.0
C508 C 0.0557 0.95753 0.57361 0.0
C509 C 0.03905 0.94923 0.58617 0.0
C510 C 0.04251 0.93667 0.60551 0.0
C511 C 0.06267 0.93247 0.61248 0.0
C512 C 0.07946 0.94152 0.60051 0.0
C513 C 0.07593 0.95362 0.58098 0.0
C514 C 0.08801 0.0477 0.54895 0.0
C515 C 0.06705 0.04205 0.61289 0.0
O516 O 0.07553 0.09738 0.56015 0.0
O517 O 0.05591 0.10193 0.58838 0.0
O518 O 0.03258 0.03442 0.56595 0.0
O519 O 0.02151 0.06446 0.57456 0.0
O520 O 0.04443 0.06061 0.52877 0.0
O521 O 0.03524 1.01879 0.52366 0.0
O522 O 0.03583 0.98045 0.55249 0.0
O523 O 0.07008 0.98784 0.55243 0.0
O524 O 0.07892 0.0489 0.56737 0.0
O525 O 0.07836 0.02793 0.53386 0.0
O526 O 0.06193 0.02129 0.59738 0.0
O527 O 0.06716 0.0628 0.60546 0.0
H528 H 0.09264 0.15702 0.57709 0.0
H529 H 0.08383 0.18689 0.55273 0.0
H530 H 0.0219 0.13821 0.52136 0.0
H531 H 0.03122 0.10802 0.54525 0.0
H532 H 0.02335 0.95229 0.58103 0.0
H533 H 0.02931 0.92962 0.61443 0.0
H534 H 0.09527 0.93883 0.60594 0.0
H535 H 0.08911 0.96007 0.57179 0.0
Tb536 Tb 0.30007 0.76048 0.81064 0.0
Tb537 Tb 0.30648 0.8146 0.81831 0.0
C538 C 0.29375 0.71685 0.79314 0.0
C539 C 0.3076 0.70091 0.78944 0.0
C540 C 0.32989 0.70997 0.79467 0.0
C541 C 0.343 0.69428 0.79193 0.0
C542 C 0.33386 0.66948 0.78392 0.0
C543 C 0.31151 0.66061 0.7787 0.0
C544 C 0.29845 0.67629 0.78142 0.0
C545 C 0.28848 0.77904 0.8504 0.0
C546 C 0.34389 0.79194 0.84025 0.0
C547 C 0.31076 0.85735 0.83722 0.0
C548 C 0.29545 0.87206 0.83726 0.0
C549 C 0.29888 0.89182 0.85606 0.0
C550 C 0.28444 0.9062 0.85585 0.0
C551 C 0.26646 0.90084 0.8368 0.0
C552 C 0.26272 0.88049 0.81845 0.0
C553 C 0.27713 0.86615 0.8187 0.0
C554 C 0.31634 0.79584 0.77771 0.0
C555 C 0.26251 0.78321 0.78842 0.0
O556 O 0.29521 0.73395 0.77964 0.0
O557 O 0.29362 0.72463 0.81628 0.0
O558 O 0.28654 0.78534 0.82966 0.0
O559 O 0.29637 0.76038 0.84909 0.0
O560 O 0.334 0.77087 0.82623 0.0
O561 O 0.33491 0.81029 0.84171 0.0
O562 O 0.30701 0.83936 0.8495 0.0
O563 O 0.31545 0.85113 0.81558 0.0
O564 O 0.31932 0.78958 0.79844 0.0
O565 O 0.31015 0.81568 0.77988 0.0
O566 O 0.27303 0.80451 0.80149 0.0
O567 O 0.27094 0.76437 0.78762 0.0
H568 H 0.33709 0.72907 0.80091 0.0
H569 H 0.3602 0.70153 0.79587 0.0
H570 H 0.30411 0.64149 0.7729 0.0
H571 H 0.28123 0.66918 0.77753 0.0
H572 H 0.31285 0.8963 0.87063 0.0
H573 H 0.28767 0.92191 0.8701 0.0
H574 H 0.2488 0.87584 0.80379 0.0
H575 H 0.27413 0.8507 0.8042 0.0
Tb576 Tb 0.51823 0.04719 0.05429 0.0
Tb577 Tb 0.55822 0.05117 0.09108 0.0
C578 C 0.48283 0.03034 0.02608 0.0
C579 C 0.45982 0.02352 0.0258 0.0
C580 C 0.4513 1.00932 0.04243 0.0
C581 C 0.42939 0.99876 0.03849 0.0
C582 C 0.41579 1.00251 0.01807 0.0
C583 C 0.42416 1.01817 1.00257 0.0
C584 C 0.44609 0.02851 1.00636 0.0
C585 C 0.53854 0.09123 0.07559 0.0
C586 C 0.51522 0.04652 0.11304 0.0
C587 C 0.59408 0.06654 0.11839 0.0
C588 C 0.61641 0.07012 0.1157 0.0
C589 C 0.62356 0.07948 0.09545 0.0
C590 C 0.64535 0.08592 0.09502 0.0
C591 C 0.66011 0.08279 0.11465 0.0
C592 C 0.65283 0.07174 0.13393 0.0
C593 C 0.63103 0.06554 0.1345 0.0
C594 C 0.53763 1.00744 0.06907 0.0
C595 C 0.5617 0.05304 0.03277 0.0
O596 O 0.49407 1.01707 0.03671 0.0
O597 O 0.49247 0.05343 0.03073 0.0
O598 O 0.53624 0.07237 0.08501 0.0
O599 O 0.52799 0.08564 0.05303 0.0
O600 O 0.50489 0.04298 0.08949 0.0
O601 O 0.53646 0.05138 0.11791 0.0
O602 O 0.58356 0.08057 0.10785 0.0
O603 O 0.58294 0.04406 0.11533 0.0
O604 O 0.54034 0.02649 0.06018 0.0
O605 O 0.54841 1.01225 0.0915 0.0
O606 O 0.5718 0.05575 0.05626 0.0
O607 O 0.54044 0.04842 0.02766 0.0
H608 H 0.46163 1.00538 0.05769 0.0
H609 H 0.42317 0.98696 0.05084 0.0
H610 H 0.41395 0.02121 0.98666 0.0
H611 H 0.45245 0.03936 0.99332 0.0
H612 H 0.61247 0.08282 0.08055 0.0
H613 H 0.65076 0.09433 0.07994 0.0
H614 H 0.66404 0.06937 0.14932 0.0
H615 H 0.62568 0.05815 0.15013 0.0
Tb616 Tb 0.27798 0.277 0.29997 0.0
Tb617 Tb 0.31817 0.30973 0.32492 0.0
C618 C 0.23971 0.25382 0.29 0.0
C619 C 0.22056 0.26194 0.29312 0.0
C620 C 0.22081 0.27839 0.31414 0.0
C621 C 0.20291 0.2869 0.3167 0.0
C622 C 0.18454 0.27932 0.29816 0.0
C623 C 0.18449 0.26325 0.27686 0.0
C624 C 0.20243 0.25459 0.27439 0.0
C625 C 0.30155 0.29617 0.26981 0.0
C626 C 0.27955 0.33421 0.31794 0.0
C627 C 0.35636 0.33342 0.33615 0.0
C628 C 0.37621 0.3269 0.3328 0.0
C629 C 0.37812 0.31526 0.30974 0.0
C630 C 0.39707 0.30932 0.30661 0.0
C631 C 0.41423 0.31458 0.32653 0.0
C632 C 0.41211 0.32534 0.34981 0.0
C633 C 0.39318 0.33162 0.35289 0.0
C634 C 0.2944 0.2901 0.35495 0.0
C635 C 0.31688 0.25304 0.30468 0.0
O636 O 0.25256 0.25385 0.31051 0.0
O637 O 0.24987 0.26313 0.27354 0.0
O638 O 0.29888 0.30661 0.28996 0.0
O639 O 0.29012 0.27401 0.26551 0.0
O640 O 0.26773 0.31137 0.31099 0.0
O641 O 0.30068 0.33823 0.32311 0.0
O642 O 0.3436 0.33409 0.31585 0.0
O643 O 0.34616 0.3226 0.35179 0.0
O644 O 0.29744 0.27984 0.33491 0.0
O645 O 0.30516 0.31253 0.35891 0.0
O646 O 0.3286 0.27581 0.31276 0.0
O647 O 0.29574 0.24878 0.29957 0.0
H648 H 0.23479 0.28463 0.32871 0.0
H649 H 0.20334 0.29895 0.3335 0.0
H650 H 0.17061 0.25737 0.26215 0.0
H651 H 0.20219 0.24227 0.25785 0.0
H652 H 0.36506 0.31084 0.29406 0.0
H653 H 0.39834 0.3006 0.28862 0.0
H654 H 0.42524 0.3294 0.36538 0.0
H655 H 0.3918 0.34024 0.37088 0.0
Tb656 Tb 0.55386 0.56565 0.07213 0.0
Tb657 Tb 0.55568 0.5168 0.06242 0.0
C658 C 0.55678 0.60942 0.07241 0.0
C659 C 0.54443 0.62202 0.05704 0.0
C660 C 0.54749 0.62378 0.03278 0.0
C661 C 0.53627 0.63668 0.01877 0.0
C662 C 0.52175 0.64783 0.02878 0.0
C663 C 0.51763 0.64461 0.05237 0.0
C664 C 0.52909 0.63204 0.06653 0.0
C665 C 0.51972 0.53538 0.08078 0.0
C666 C 0.53814 0.53653 0.01719 0.0
C667 C 0.55322 0.47298 0.06169 0.0
C668 C 0.55282 0.45855 0.0811 0.0
C669 C 0.54472 0.46522 0.10224 0.0
C670 C 0.54697 0.45315 0.12216 0.0
C671 C 0.55743 0.43453 0.12102 0.0
C672 C 0.56512 0.42763 0.09966 0.0
C673 C 0.56285 0.43967 0.07975 0.0
C674 C 0.58925 0.54756 0.05325 0.0
C675 C 0.57052 0.54549 0.11641 0.0
O676 O 0.56865 0.5977 0.06138 0.0
O677 O 0.54634 0.59707 0.08691 0.0
O678 O 0.52912 0.53236 0.06283 0.0
O679 O 0.52885 0.55635 0.09388 0.0
O680 O 0.54352 0.55781 0.03172 0.0
O681 O 0.53971 0.51683 0.02593 0.0
O682 O 0.5365 0.48156 0.05667 0.0
O683 O 0.57128 0.48913 0.06369 0.0
O684 O 0.58029 0.55018 0.07162 0.0
O685 O 0.57979 0.52687 0.03975 0.0
O686 O 0.56014 0.52439 0.10298 0.0
O687 O 0.57411 0.56483 0.10602 0.0
H688 H 0.559 0.61589 0.02483 0.0
H689 H 0.54 0.63917 1.00075 0.0
H690 H 0.50631 0.65283 0.06032 0.0
H691 H 0.52626 0.63059 0.08508 0.0
H692 H 0.53713 0.48004 0.10358 0.0
H693 H 0.54108 0.45872 0.13862 0.0
H694 H 0.57301 0.41304 0.09844 0.0
H695 H 0.56939 0.4347 0.0636 0.0
Tb696 Tb 0.79583 0.25821 0.30094 0.0
Tb697 Tb 0.80103 0.31177 0.31257 0.0
C698 C 0.79228 0.21624 0.28031 0.0
C699 C 0.80724 0.20088 0.28035 0.0
C700 C 0.82419 0.20516 0.26729 0.0
C701 C 0.83874 0.19097 0.2684 0.0
C702 C 0.83653 0.17239 0.28255 0.0
C703 C 0.81976 0.16825 0.29578 0.0
C704 C 0.80515 0.18234 0.29459 0.0
C705 C 0.7836 0.2728 0.34142 0.0
C706 C 0.83808 0.28864 0.33472 0.0
C707 C 0.80483 0.35364 0.33382 0.0
C708 C 0.78995 0.36885 0.33383 0.0
C709 C 0.79237 0.38689 0.3541 0.0
C710 C 0.77839 0.40179 0.35403 0.0
C711 C 0.76191 0.39871 0.33362 0.0
C712 C 0.75913 0.38007 0.31366 0.0
C713 C 0.77304 0.36513 0.3138 0.0
C714 C 0.81421 0.29668 0.27266 0.0
C715 C 0.7584 0.2812 0.2795 0.0
O716 O 0.79647 0.23504 0.26911 0.0
O717 O 0.7865 0.22129 0.30155 0.0
O718 O 0.78116 0.2808 0.32152 0.0
O719 O 0.79221 0.25473 0.33871 0.0
O720 O 0.82889 0.26821 0.31933 0.0
O721 O 0.82879 0.30672 0.33675 0.0
O722 O 0.79971 0.33461 0.34437 0.0
O723 O 0.81084 0.34882 0.31268 0.0
O724 O 0.81583 0.28911 0.29273 0.0
O725 O 0.80603 0.31514 0.27474 0.0
O726 O 0.76814 0.30203 0.29394 0.0
O727 O 0.76725 0.26275 0.27784 0.0
H728 H 0.82629 0.21942 0.25625 0.0
H729 H 0.85168 0.19448 0.25815 0.0
H730 H 0.81762 0.15375 0.30653 0.0
H731 H 0.79222 0.17875 0.30484 0.0
H732 H 0.80523 0.38965 0.36978 0.0
H733 H 0.78088 0.41619 0.36954 0.0
H734 H 0.74634 0.37721 0.29789 0.0
H735 H 0.77079 0.35092 0.29816 0.0
Tb736 Tb 0.02232 0.54734 0.56112 0.0
Tb737 Tb 0.0637 0.55769 0.59834 0.0
C738 C 0.9881 0.52546 0.53242 0.0
C739 C 0.9659 0.5121 0.53102 0.0
C740 C 0.95918 0.48869 0.51735 0.0
C741 C 0.93785 0.47596 0.51338 0.0
C742 C 0.92277 0.48641 0.52301 0.0
C743 C 0.92956 0.50974 0.53717 0.0
C744 C 0.95104 0.52253 0.54118 0.0
C745 C 0.03982 0.59292 0.57976 0.0
C746 C 0.02038 0.54996 0.62021 0.0
C747 C 0.09972 0.5789 0.6233 0.0
C748 C 0.12175 0.58259 0.61931 0.0
C749 C 0.12685 0.58629 0.59617 0.0
C750 C 0.14808 0.59148 0.59314 0.0
C751 C 0.16446 0.59296 0.61317 0.0
C752 C 0.15923 0.58829 0.63603 0.0
C753 C 0.13797 0.58317 0.63907 0.0
C754 C 0.04564 0.51216 0.5819 0.0
C755 C 0.06543 0.55571 0.53908 0.0
O756 O 1.00278 0.5149 0.5408 0.0
O757 O 0.99344 0.54888 0.53997 0.0
O758 O 0.0393 0.57484 0.59007 0.0
O759 O 0.02832 0.58579 0.55767 0.0
O760 O 1.00985 0.54293 0.59669 0.0
O761 O 0.04163 0.55825 0.62495 0.0
O762 O 0.08771 0.5896 0.60982 0.0
O763 O 0.0899 0.55673 0.62469 0.0
O764 O 0.04651 0.52933 0.56995 0.0
O765 O 0.05754 0.52022 0.60361 0.0
O766 O 0.0759 0.55906 0.56244 0.0
O767 O 0.0442 0.55091 0.53427 0.0
H768 H 0.9704 0.48044 0.50916 0.0
H769 H 0.93307 0.4582 0.50208 0.0
H770 H 0.91828 0.5181 0.54503 0.0
H771 H 0.95589 0.54062 0.55179 0.0
H772 H 0.11455 0.5858 0.5806 0.0
H773 H 0.15173 0.59477 0.57528 0.0
H774 H 0.17161 0.58957 0.65181 0.0
H775 H 0.13424 0.58027 0.65699 0.0
Tb776 Tb 0.77566 0.79435 0.31087 0.0
Tb777 Tb 0.82222 0.79016 0.32064 0.0
C778 C 0.73675 0.79259 0.31051 0.0
C779 C 0.72046 0.79131 0.32651 0.0
C780 C 0.71395 0.77114 0.33794 0.0
C781 C 0.69661 0.76921 0.35034 0.0
C782 C 0.68541 0.78736 0.35152 0.0
C783 C 0.69248 0.80785 0.34077 0.0
C784 C 0.70973 0.80974 0.32837 0.0
C785 C 0.80473 0.83033 0.3024 0.0
C786 C 0.80385 0.80845 0.36529 0.0
C787 C 0.86133 0.79288 0.32137 0.0
C788 C 0.87744 0.79337 0.30514 0.0
C789 C 0.88967 0.81551 0.30112 0.0
C790 C 0.90713 0.81631 0.28914 0.0
C791 C 0.91285 0.79499 0.28098 0.0
C792 C 0.90006 0.77277 0.28411 0.0
C793 C 0.88264 0.77197 0.29614 0.0
C794 C 0.79341 0.75447 0.32997 0.0
C795 C 0.7945 0.77655 0.26589 0.0
O796 O 0.74406 0.77353 0.30567 0.0
O797 O 0.75169 0.81278 0.3139 0.0
O798 O 0.80656 0.81842 0.31956 0.0
O799 O 0.78546 0.82326 0.28968 0.0
O800 O 0.78446 0.7998 0.35148 0.0
O801 O 0.82152 0.80965 0.35615 0.0
O802 O 0.85338 0.81167 0.32431 0.0
O803 O 0.84692 0.77254 0.31991 0.0
O804 O 0.79124 0.76591 0.31238 0.0
O805 O 0.8128 0.76182 0.34237 0.0
O806 O 0.81364 0.78375 0.28035 0.0
O807 O 0.77659 0.77667 0.27429 0.0
H808 H 0.72183 0.75655 0.33675 0.0
H809 H 0.69154 0.75309 0.35824 0.0
H810 H 0.68457 0.82241 0.34173 0.0
H811 H 0.71435 0.82542 0.31964 0.0
H812 H 0.88629 0.83238 0.30809 0.0
H813 H 0.9167 0.83377 0.2873 0.0
H814 H 0.90374 0.75595 0.27767 0.0
H815 H 0.87368 0.75462 0.29909 0.0
Tb816 Tb 0.81247 0.28289 0.80544 0.0
Tb817 Tb 0.80331 0.30221 0.85113 0.0
C818 C 0.82049 0.27104 0.76376 0.0
C819 C 0.82323 0.2832 0.74294 0.0
C820 C 0.81698 0.30472 0.74193 0.0
C821 C 0.81813 0.31545 0.7211 0.0
C822 C 0.82542 0.30461 0.70111 0.0
C823 C 0.83275 0.28375 0.70278 0.0
C824 C 0.83166 0.27305 0.72375 0.0
C825 C 0.83899 0.27837 0.84422 0.0
C826 C 0.82522 0.34083 0.82168 0.0
C827 C 0.8052 0.31351 0.89616 0.0
C828 C 0.78945 0.30566 0.91147 0.0
C829 C 0.78095 0.28099 0.91126 0.0
C830 C 0.76729 0.27364 0.92722 0.0
C831 C 0.76164 0.29082 0.94357 0.0
C832 C 0.76829 0.31541 0.94166 0.0
C833 C 0.78236 0.32279 0.92593 0.0
C834 C 0.76893 0.30066 0.81836 0.0
C835 C 0.78419 0.24534 0.83096 0.0
O836 O 0.80113 0.26661 0.76865 0.0
O837 O 0.83525 0.28026 0.78335 0.0
O838 O 0.83252 0.29701 0.84101 0.0
O839 O 0.82927 0.26134 0.82609 0.0
O840 O 0.82205 0.32229 0.80348 0.0
O841 O 0.82046 0.33687 0.84328 0.0
O842 O 0.81386 0.29687 0.88681 0.0
O843 O 0.79965 0.32684 0.88022 0.0
O844 O 0.78522 0.294 0.81347 0.0
O845 O 0.77139 0.3073 0.84186 0.0
O846 O 0.78922 0.26301 0.85032 0.0
O847 O 0.7899 0.24981 0.80984 0.0
H848 H 0.81029 0.31259 0.75667 0.0
H849 H 0.8119 0.33123 0.71999 0.0
H850 H 0.83835 0.27516 0.68745 0.0
H851 H 0.83665 0.25647 0.72463 0.0
H852 H 0.78562 0.26729 0.89967 0.0
H853 H 0.76274 0.25454 0.92803 0.0
H854 H 0.76378 0.32908 0.95346 0.0
H855 H 0.78822 0.3419 0.92565 0.0
Tb856 Tb 0.78009 0.77608 0.80171 0.0
Tb857 Tb 0.82072 0.80957 0.82536 0.0
C858 C 0.74194 0.75264 0.79409 0.0
C859 C 0.72422 0.75982 0.80335 0.0
C860 C 0.72835 0.77562 0.82591 0.0
C861 C 0.71187 0.78328 0.83472 0.0
C862 C 0.69094 0.77508 0.82125 0.0
C863 C 0.68683 0.75971 0.79838 0.0
C864 C 0.70347 0.75213 0.78943 0.0
C865 C 0.80227 0.7959 0.77068 0.0
C866 C 0.78154 0.83308 0.81909 0.0
C867 C 0.85849 0.83504 0.83483 0.0
C868 C 0.8797 0.83063 0.83845 0.0
C869 C 0.8973 0.84927 0.83747 0.0
C870 C 0.91716 0.84449 0.83688 0.0
C871 C 0.91951 0.82087 0.83686 0.0
C872 C 0.90201 0.80248 0.83924 0.0
C873 C 0.88222 0.8074 0.84018 0.0
C874 C 0.79792 0.79054 0.85656 0.0
C875 C 0.81926 0.75234 0.80651 0.0
O876 O 0.75664 0.74939 0.81117 0.0
O877 O 0.75002 0.76547 0.7784 0.0
O878 O 0.80017 0.80594 0.79125 0.0
O879 O 0.79084 0.7737 0.76626 0.0
O880 O 0.77 0.81006 0.81459 0.0
O881 O 0.80264 0.8374 0.8216 0.0
O882 O 0.84743 0.82733 0.81241 0.0
O883 O 0.84715 0.82981 0.85182 0.0
O884 O 0.80043 0.77993 0.83639 0.0
O885 O 0.80904 0.8128 0.8602 0.0
O886 O 0.83086 0.77493 0.8159 0.0
O887 O 0.79823 0.74819 0.79969 0.0
H888 H 0.74434 0.78202 0.83683 0.0
H889 H 0.71549 0.79555 0.85214 0.0
H890 H 0.67074 0.75318 0.78775 0.0
H891 H 0.70017 0.74024 0.77181 0.0
H892 H 0.89552 0.86732 0.83621 0.0
H893 H 0.93049 0.8591 0.83558 0.0
H894 H 0.90327 0.78407 0.8391 0.0
H895 H 0.86875 0.79293 0.84126 0.0
Tb896 Tb 0.54374 0.52565 0.55808 0.0
Tb897 Tb 0.58457 0.55501 0.58796 0.0
C898 C 0.50537 0.50761 0.53826 0.0
C899 C 0.48792 0.51856 0.53068 0.0
C900 C 0.46888 0.51152 0.53951 0.0
C901 C 0.45408 0.52538 0.53786 0.0
C902 C 0.45802 0.54639 0.52707 0.0
C903 C 0.4763 0.55223 0.51638 0.0
C904 C 0.49126 0.53853 0.51836 0.0
C905 C 0.57634 0.53042 0.53484 0.0
C906 C 0.55579 0.58299 0.56179 0.0
C907 C 0.62275 0.57333 0.6081 0.0
C908 C 0.63784 0.56322 0.62275 0.0
C909 C 0.65904 0.56823 0.61933 0.0
C910 C 0.67193 0.55332 0.62664 0.0
C911 C 0.66367 0.53321 0.63747 0.0
C912 C 0.64326 0.53015 0.64362 0.0
C913 C 0.6303 0.54491 0.63604 0.0
C914 C 0.55211 0.55068 0.61129 0.0
C915 C 0.57243 0.49747 0.58501 0.0
O916 O 0.51227 0.5115 0.56212 0.0
O917 O 0.52099 0.51061 0.52582 0.0
O918 O 0.57229 0.54652 0.54946 0.0
O919 O 0.56164 0.51057 0.53275 0.0
O920 O 0.54012 0.563 0.55864 0.0
O921 O 0.57576 0.5829 0.56977 0.0
O922 O 0.61685 0.56271 0.58498 0.0
O923 O 0.60662 0.57684 0.61813 0.0
O924 O 0.5559 0.53444 0.59662 0.0
O925 O 0.56739 0.57005 0.61408 0.0
O926 O 0.58776 0.5179 0.58987 0.0
O927 O 0.55279 0.4967 0.5745 0.0
H928 H 0.4662 0.49631 0.54931 0.0
H929 H 0.44038 0.52058 0.54672 0.0
H930 H 0.47962 0.56813 0.5077 0.0
H931 H 0.50596 0.54443 0.51155 0.0
H932 H 0.66497 0.58222 0.60895 0.0
H933 H 0.68749 0.5561 0.62135 0.0
H934 H 0.6366 0.51502 0.65224 0.0
H935 H 0.61386 0.54071 0.63875 0.0
Tb936 Tb 0.07979 0.54743 0.07904 0.0
Tb937 Tb 0.03363 0.53813 0.0884 0.0
C938 C 0.11936 0.55077 0.08887 0.0
C939 C 0.13528 0.53631 0.08691 0.0
C940 C 0.14163 0.52512 0.10682 0.0
C941 C 0.15869 0.51435 0.10703 0.0
C942 C 0.17002 0.51461 0.08742 0.0
C943 C 0.16319 0.52494 0.067 0.0
C944 C 0.14605 0.5358 0.06681 0.0
C945 C 0.05278 0.54581 0.03643 0.0
C946 C 0.0496 0.49419 0.06734 0.0
C947 C 0.9952 0.5375 0.09 0.0
C948 C 0.9792 0.55188 0.08591 0.0
C949 C 0.96886 0.55268 0.06201 0.0
C950 C 0.95161 0.56333 0.05869 0.0
C951 C 0.94424 0.57334 0.07917 0.0
C952 C 0.95521 0.57338 0.103 0.0
C953 C 0.97237 0.5627 0.10631 0.0
C954 C 0.06287 0.53247 0.12513 0.0
C955 C 0.06185 0.59212 0.09171 0.0
O956 O 0.10611 0.54492 0.10387 0.0
O957 O 0.11008 0.55678 0.06882 0.0
O958 O 0.04865 0.54348 0.05775 0.0
O959 O 0.07337 0.54882 0.03886 0.0
O960 O 0.06938 0.50813 0.07258 0.0
O961 O 0.03267 0.50257 0.06964 0.0
O962 O 1.00151 0.52789 0.07064 0.0
O963 O 1.01084 0.54568 0.10907 0.0
O964 O 0.06504 0.54858 0.11139 0.0
O965 O 0.04335 0.51935 0.1187 0.0
O966 O 0.04273 0.57713 0.08946 0.0
O967 O 0.07928 0.5846 0.09 0.0
H968 H 0.13385 0.52532 0.12274 0.0
H969 H 0.16328 0.50619 0.12284 0.0
H970 H 0.17166 0.52556 0.05166 0.0
H971 H 0.14174 0.54449 0.05132 0.0
H972 H 0.97357 0.54435 0.04584 0.0
H973 H 0.9435 0.56279 0.04006 0.0
H974 H 0.95033 0.58134 0.11922 0.0
H975 H 0.9799 0.56227 0.12495 0.0
H976 H 0.04941 0.20282 0.97372 0.0
H977 H 1.00665 0.09881 0.04717 0.0
H978 H 1.00299 0.21099 0.01972 0.0
H979 H 0.07264 0.12019 0.03871 0.0
H980 H 1.00079 0.13528 0.03126 0.0
H981 H 0.05404 0.16727 0.99138 0.0
C982 C 0.04014 0.19705 0.9875 0.0
C983 C 0.0258 0.20978 0.9953 0.0
C984 C 1.01652 0.13189 0.03313 0.0
C985 C 0.03075 0.16899 0.01522 0.0
C986 C 0.01984 0.11114 0.04206 0.0
C987 C 0.04016 0.10658 0.04438 0.0
C988 C 0.03352 0.14759 0.02598 0.0
C989 C 0.05675 0.12307 0.03746 0.0
C990 C 0.04284 0.17686 0.9976 0.0
C991 C 1.01428 0.20166 0.01334 0.0
N992 N 0.05301 0.14269 0.02837 0.0
N993 N 1.01684 0.18153 0.02258 0.0
H994 H 0.13295 0.78835 0.23989 0.0
H995 H 0.2579 0.84671 0.27892 0.0
H996 H 0.16531 0.84567 0.20562 0.0
H997 H 0.23019 0.77228 0.2829 0.0
H998 H 0.22359 0.84905 0.25591 0.0
H999 H 0.16772 0.78498 0.26055 0.0
C1000 C 0.14734 0.8005 0.237 0.0
C1001 C 0.14617 0.81748 0.22112 0.0
C1002 C 0.22506 0.83212 0.26153 0.0
C1003 C 0.18604 0.81356 0.24467 0.0
C1004 C 0.24463 0.83075 0.27457 0.0
C1005 C 0.24692 0.80921 0.28252 0.0
C1006 C 0.20742 0.81198 0.25697 0.0
C1007 C 0.22916 0.78912 0.27675 0.0
C1008 C 0.16718 0.79834 0.24858 0.0
C1009 C 0.16542 0.83242 0.21778 0.0
N1010 N 0.21004 0.79108 0.26459 0.0
N1011 N 0.18454 0.83023 0.22957 0.0
H1012 H 0.50209 0.84483 0.48839 0.0
H1013 H 0.58055 0.96283 0.57209 0.0
H1014 H 0.56283 0.84402 0.53071 0.0
H1015 H 0.51373 0.95645 0.54483 0.0
H1016 H 0.57493 0.91971 0.557 0.0
H1017 H 0.50641 0.88593 0.509 0.0
C1018 C 0.51625 0.85327 0.50229 0.0
C1019 C 0.53213 0.84105 0.50787 0.0
C1020 C 0.56147 0.92773 0.55458 0.0
C1021 C 0.53737 0.88833 0.53133 0.0
C1022 C 0.56467 0.95234 0.56311 0.0
C1023 C 0.54758 0.96327 0.55971 0.0
C1024 C 0.54111 0.91403 0.54234 0.0
C1025 C 0.52736 0.94881 0.54794 0.0
C1026 C 0.51871 0.87674 0.51406 0.0
C1027 C 0.55014 0.85278 0.52604 0.0
N1028 N 0.52474 0.92499 0.53952 0.0
N1029 N 0.55242 0.87597 0.53694 0.0
H1030 H 0.53512 0.26456 0.74238 0.0
H1031 H 0.43998 0.32648 0.76307 0.0
H1032 H 0.52886 0.32937 0.71407 0.0
H1033 H 0.44021 0.25405 0.77515 0.0
H1034 H 0.47318 0.32925 0.74693 0.0
H1035 H 0.50155 0.26222 0.75721 0.0
C1036 C 0.52676 0.27842 0.73938 0.0
C1037 C 0.53493 0.29727 0.727 0.0
C1038 C 0.4659 0.31275 0.75307 0.0
C1039 C 0.49621 0.2946 0.74395 0.0
C1040 C 0.44682 0.31106 0.76214 0.0
C1041 C 0.43718 0.29002 0.77068 0.0
C1042 C 0.47555 0.29335 0.75266 0.0
C1043 C 0.44714 0.27084 0.76932 0.0
C1044 C 0.50748 0.27699 0.74777 0.0
C1045 C 0.52321 0.31457 0.72356 0.0
N1046 N 0.46575 0.27303 0.76065 0.0
N1047 N 0.50448 0.31286 0.73204 0.0
H1048 H 0.09803 0.82113 0.68137 0.0
H1049 H 0.04885 0.93167 0.65668 0.0
H1050 H 0.05191 0.84184 0.72221 0.0
H1051 H 0.08309 0.89695 0.60847 0.0
H1052 H 0.05385 0.90354 0.68538 0.0
H1053 H 0.09803 0.85501 0.65983 0.0
C1054 C 0.08803 0.83303 0.68594 0.0
C1055 C 0.07474 0.8287 0.70326 0.0
C1056 C 0.06043 0.9024 0.66862 0.0
C1057 C 0.07437 0.86718 0.67848 0.0
C1058 C 0.0575 0.91825 0.65228 0.0
C1059 C 0.06584 0.91669 0.63048 0.0
C1060 C 0.07179 0.8852 0.66289 0.0
C1061 C 0.07691 0.89913 0.62542 0.0
C1062 C 0.088 0.85233 0.67362 0.0
C1063 C 0.06231 0.84473 0.70883 0.0
N1064 N 0.07956 0.88406 0.64155 0.0
N1065 N 0.06218 0.86327 0.69611 0.0
H1066 H 0.47496 0.78725 0.88982 0.0
H1067 H 0.3724 0.83588 0.85447 0.0
H1068 H 0.47659 0.85282 0.85944 0.0
H1069 H 0.3677 0.75934 0.84811 0.0
H1070 H 0.41115 0.84383 0.86487 0.0
H1071 H 0.43573 0.7777 0.88145 0.0
C1072 C 0.46706 0.79948 0.88118 0.0
C1073 C 0.47894 0.8208 0.87519 0.0
C1074 C 0.4016 0.82532 0.86138 0.0
C1075 C 0.43451 0.81035 0.86631 0.0
C1076 C 0.37947 0.82074 0.8557 0.0
C1077 C 0.36684 0.79686 0.85032 0.0
C1078 C 0.41112 0.80594 0.86205 0.0
C1079 C 0.37692 0.77799 0.85202 0.0
C1080 C 0.44478 0.79405 0.87649 0.0
C1081 C 0.46801 0.83611 0.86415 0.0
N1082 N 0.39859 0.78293 0.85776 0.0
N1083 N 0.44637 0.8307 0.86029 0.0
H1084 H 0.56615 0.23148 0.16421 0.0
H1085 H 0.51074 0.09442 0.10569 0.0
H1086 H 0.52474 0.18151 0.19873 0.0
H1087 H 0.56391 0.13697 0.07996 0.0
H1088 H 0.51075 0.12926 0.13509 0.0
H1089 H 0.56033 0.19995 0.12837 0.0
C1090 C 0.55557 0.21398 0.16408 0.0
C1091 C 0.54609 0.20886 0.18453 0.0
C1092 C 0.52233 0.13115 0.12293 0.0
C1093 C 0.53947 0.1731 0.14384 0.0
C1094 C 0.52236 0.11132 0.10623 0.0
C1095 C 0.53756 0.11308 0.09083 0.0
C1096 C 0.53761 0.15289 0.12417 0.0
C1097 C 0.55205 0.1352 0.09174 0.0
C1098 C 0.55237 0.19605 0.14371 0.0
C1099 C 0.53254 0.18604 0.18346 0.0
N1100 N 0.55187 0.15444 0.10848 0.0
N1101 N 0.52975 0.16888 0.16345 0.0
H1102 H 0.05769 0.27544 0.3211 0.0
H1103 H 0.18146 0.32387 0.31875 0.0
H1104 H 0.09835 0.33982 0.36842 0.0
H1105 H 0.14342 0.25184 0.28677 0.0
H1106 H 0.14953 0.33402 0.33016 0.0
H1107 H 0.08748 0.271 0.30108 0.0
C1108 C 0.07283 0.28885 0.32705 0.0
C1109 C 0.07568 0.30794 0.34656 0.0
C1110 C 0.14819 0.31612 0.32034 0.0
C1111 C 0.10977 0.30284 0.32384 0.0
C1112 C 0.16636 0.31028 0.31392 0.0
C1113 C 0.16509 0.2869 0.30201 0.0
C1114 C 0.12868 0.2985 0.31462 0.0
C1115 C 0.1451 0.27014 0.29572 0.0
C1116 C 0.08982 0.28626 0.31564 0.0
C1117 C 0.09557 0.32481 0.35349 0.0
N1118 N 0.12768 0.27623 0.3023 0.0
N1119 N 0.11202 0.32173 0.34224 0.0
H1120 H 1.00082 0.99301 0.22743 0.0
H1121 H 0.02915 0.08402 0.13448 0.0
H1122 H 0.96995 0.05083 0.21865 0.0
H1123 H 0.03052 1.00929 0.11818 0.0
H1124 H 1.01262 0.07506 0.17021 0.0
H1125 H 0.0179 1.00193 0.1919 0.0
C1126 C 0.99786 1.00768 0.21818 0.0
C1127 C 0.98401 0.02118 0.22578 0.0
C1128 C 1.01646 0.06064 0.15867 0.0
C1129 C 1.00331 0.03144 0.18576 0.0
C1130 C 0.02578 0.06573 0.13837 0.0
C1131 C 0.03096 0.04733 0.12347 0.0
C1132 C 1.01281 0.03715 0.16424 0.0
C1133 C 0.0265 0.0239 0.1292 0.0
C1134 C 1.0074 1.01261 0.19791 0.0
C1135 C 0.98046 0.03991 0.2132 0.0
N1136 N 0.01783 1.01949 0.14938 0.0
N1137 N 0.99014 0.04457 0.19382 0.0
H1138 H 0.3378 0.77223 0.59281 0.0
H1139 H 0.30048 0.8181 0.48916 0.0
H1140 H 0.34163 0.71437 0.53746 0.0
H1141 H 0.27378 0.74279 0.45767 0.0
H1142 H 0.31778 0.80624 0.52578 0.0
H1143 H 0.31766 0.78792 0.56099 0.0
C1144 C 0.33486 0.76321 0.57382 0.0
C1145 C 0.3415 0.74214 0.56758 0.0
C1146 C 0.30757 0.79233 0.51122 0.0
C1147 C 0.31853 0.75984 0.53142 0.0
C1148 C 0.29756 0.79907 0.49039 0.0
C1149 C 0.2857 0.78133 0.47048 0.0
C1150 C 0.30574 0.76776 0.51187 0.0
C1151 C 0.28297 0.75694 0.47265 0.0
C1152 C 0.32337 0.77216 0.55576 0.0
C1153 C 0.33705 0.73088 0.54288 0.0
N1154 N 0.29332 0.75082 0.49288 0.0
N1155 N 0.32554 0.73976 0.52563 0.0
H1156 H 0.65999 1.00991 0.74301 0.0
H1157 H 0.55107 0.03008 0.66901 0.0
H1158 H 0.61031 0.02914 0.77811 0.0
H1159 H 0.60443 0.02598 0.63304 0.0
H1160 H 0.57216 0.02716 0.70806 0.0
H1161 H 0.6399 1.01274 0.70274 0.0
C1162 C 0.64476 1.01445 0.7424 0.0
C1163 C 0.63698 1.01906 0.76453 0.0
C1164 C 0.57944 0.02691 0.69178 0.0
C1165 C 0.61362 0.02251 0.7176 0.0
C1166 C 0.56731 0.02858 0.6692 0.0
C1167 C 0.57575 0.02836 0.64724 0.0
C1168 C 0.60052 0.02464 0.69306 0.0
C1169 C 0.59706 0.02635 0.64924 0.0
C1170 C 0.63332 1.01623 0.7192 0.0
C1171 C 0.61715 0.02521 0.76195 0.0
N1172 N 0.60858 0.02446 0.67157 0.0
N1173 N 0.60632 0.02663 0.73922 0.0
H1174 H 0.29363 0.37096 1.00536 0.0
H1175 H 0.34144 0.3077 0.89883 0.0
H1176 H 0.34858 0.34166 0.0192 0.0
H1177 H 0.27682 0.31583 0.88728 0.0
H1178 H 0.34529 0.32286 0.94269 0.0
H1179 H 0.28783 0.35312 0.96162 0.0
C1180 C 0.30434 0.36061 0.99925 0.0
C1181 C 0.3216 0.35778 0.01593 0.0
C1182 C 0.33021 0.32118 0.93061 0.0
C1183 C 0.31525 0.3377 0.96606 0.0
C1184 C 0.32801 0.31261 0.90553 0.0
C1185 C 0.30873 0.31043 0.8894 0.0
C1186 C 0.31309 0.3279 0.93962 0.0
C1187 C 0.29189 0.31705 0.89913 0.0
C1188 C 0.30103 0.35046 0.97433 0.0
C1189 C 0.33503 0.34424 1.00703 0.0
N1190 N 0.29451 0.32566 0.92364 0.0
N1191 N 0.33167 0.33489 0.98267 0.0
H1192 H 1.00615 0.98715 0.35913 0.0
H1193 H 0.02539 0.07368 0.48883 0.0
H1194 H 0.98094 0.05011 0.36668 0.0
H1195 H 0.02819 0.99905 0.48014 0.0
H1196 H 1.01319 0.06856 0.44386 0.0
H1197 H 0.01935 0.99494 0.40343 0.0
C1198 C 1.00356 1.00279 0.37007 0.0
C1199 C 0.99235 1.01797 0.35918 0.0
C1200 C 1.01646 0.05339 0.45197 0.0
C1201 C 1.00742 0.02694 0.41009 0.0
C1202 C 0.02342 0.0563 0.47753 0.0
C1203 C 0.02773 0.03679 0.48824 0.0
C1204 C 1.01424 0.03098 0.43721 0.0
C1205 C 0.02491 1.01461 0.4728 0.0
C1206 C 1.01101 1.00714 0.39542 0.0
C1207 C 0.98946 0.03792 0.37437 0.0
N1208 N 0.01848 1.01238 0.44812 0.0
N1209 N 0.99695 0.04186 0.39915 0.0
H1210 H 0.3959 0.76596 0.67564 0.0
H1211 H 0.3055 0.75477 0.74489 0.0
H1212 H 0.37796 0.70364 0.71084 0.0
H1213 H 0.35472 0.82087 0.77062 0.0
H1214 H 0.33068 0.73743 0.72475 0.0
H1215 H 0.38279 0.78967 0.70682 0.0
C1216 C 0.39026 0.75757 0.69063 0.0
C1217 C 0.38718 0.73258 0.69015 0.0
C1218 C 0.33589 0.75579 0.73472 0.0
C1219 C 0.37185 0.75921 0.72486 0.0
C1220 C 0.32154 0.76567 0.74588 0.0
C1221 C 0.32828 0.78903 0.75927 0.0
C1222 C 0.35687 0.7697 0.73669 0.0
C1223 C 0.34905 0.80286 0.7599 0.0
C1224 C 0.38262 0.77107 0.7082 0.0
C1225 C 0.38008 0.7227 0.71013 0.0
N1226 N 0.3628 0.79297 0.74857 0.0
N1227 N 0.37168 0.7358 0.72613 0.0
H1228 H 0.64816 0.02672 0.92836 0.0
H1229 H 0.54864 0.05865 0.98441 0.0
H1230 H 0.60632 0.06404 0.89116 0.0
H1231 H 0.60285 0.04665 0.03085 0.0
H1232 H 0.56743 0.05682 0.94928 0.0
H1233 H 0.63019 0.02978 0.96426 0.0
C1234 C 0.63515 0.03549 0.92753 0.0
C1235 C 0.629 0.04509 0.90618 0.0
C1236 C 0.57533 0.05465 0.96712 0.0
C1237 C 0.60773 0.04842 0.94799 0.0
C1238 C 0.56453 0.05569 0.98741 0.0
C1239 C 0.57397 0.053 1.01119 0.0
C1240 C 0.59587 0.05029 0.9699 0.0
C1241 C 0.59473 0.04908 0.01324 0.0
C1242 C 0.62488 0.03731 0.94827 0.0
C1243 C 0.61191 0.05632 0.90687 0.0
N1244 N 0.60473 0.04765 0.99309 0.0
N1245 N 0.60193 0.05745 0.92704 0.0
H1246 H 0.32458 0.40583 0.17837 0.0
H1247 H 0.30295 0.27733 0.2227 0.0
H1248 H 0.32361 0.3395 0.13183 0.0
H1249 H 0.3138 0.34495 0.2718 0.0
H1250 H 0.30978 0.29965 0.18886 0.0
H1251 H 0.31941 0.38361 0.21245 0.0
C1252 C 0.32329 0.38659 0.17529 0.0
C1253 C 0.3246 0.37453 0.15219 0.0
C1254 C 0.31084 0.30961 0.20708 0.0
C1255 C 0.31869 0.34898 0.1912 0.0
C1256 C 0.30702 0.29688 0.22638 0.0
C1257 C 0.30789 0.30934 0.25 0.0
C1258 C 0.31543 0.33495 0.21147 0.0
C1259 C 0.31308 0.33467 0.25383 0.0
C1260 C 0.3204 0.37393 0.19481 0.0
C1261 C 0.32277 0.34957 0.14933 0.0
N1262 N 0.31653 0.34665 0.23471 0.0
N1263 N 0.31987 0.33762 0.1686 0.0
H1264 H 0.17842 0.90723 0.04447 0.0
H1265 H 0.18349 1.01838 0.14797 0.0
H1266 H 0.23432 0.94418 0.09938 0.0
H1267 H 0.13408 0.99206 0.08329 0.0
H1268 H 0.19819 0.9837 0.13716 0.0
H1269 H 0.15743 0.93038 0.0658 0.0
C1270 C 0.18612 0.91988 0.06126 0.0
C1271 C 0.20809 0.92434 0.06997 0.0
C1272 C 0.18374 0.98518 0.12575 0.0
C1273 C 0.18451 0.95058 0.09425 0.0
C1274 C 0.17548 1.00486 0.13193 0.0
C1275 C 0.15742 1.00743 0.11672 0.0
C1276 C 0.17388 0.96843 0.10414 0.0
C1277 C 0.1476 0.98998 0.09585 0.0
C1278 C 0.17422 0.93306 0.07338 0.0
C1279 C 0.21744 0.94071 0.09182 0.0
N1280 N 0.15605 0.97121 0.09002 0.0
N1281 N 0.20562 0.95351 0.10309 0.0
H1282 H 0.69978 0.65965 0.043 0.0
H1283 H 0.61807 0.53199 0.02905 0.0
H1284 H 0.72113 0.59406 0.03918 0.0
H1285 H 0.60964 0.59481 0.07352 0.0
H1286 H 0.65375 0.55494 0.02579 0.0
H1287 H 0.66431 0.63667 0.04692 0.0
C1288 C 0.69695 0.64035 0.04263 0.0
C1289 C 0.71347 0.62873 0.04059 0.0
C1290 C 0.64407 0.5637 0.03622 0.0
C1291 C 0.67283 0.6024 0.04503 0.0
C1292 C 0.62368 0.55068 0.03801 0.0
C1293 C 0.61082 0.56158 0.05145 0.0
C1294 C 0.65148 0.58801 0.04737 0.0
C1295 C 0.61899 0.58578 0.06287 0.0
C1296 C 0.67676 0.62734 0.04513 0.0
C1297 C 0.70889 0.60374 0.04062 0.0
N1298 N 0.63874 0.59832 0.06033 0.0
N1299 N 0.68894 0.59137 0.0426 0.0
H1300 H 0.68446 0.4971 0.36591 0.0
H1301 H 0.75141 0.42089 0.29502 0.0
H1302 H 0.70837 0.51381 0.30002 0.0
H1303 H 0.7425 0.41566 0.36982 0.0
H1304 H 0.73107 0.45136 0.2942 0.0
H1305 H 0.70173 0.46365 0.36558 0.0
C1306 C 0.69324 0.49363 0.35135 0.0
C1307 C 0.69505 0.50814 0.333 0.0
C1308 C 0.73349 0.44349 0.31076 0.0
C1309 C 0.71458 0.4702 0.33244 0.0
C1310 C 0.74491 0.42599 0.31115 0.0
C1311 C 0.74853 0.41587 0.33252 0.0
C1312 C 0.72565 0.45079 0.33187 0.0
C1313 C 0.74013 0.42329 0.35309 0.0
C1314 C 0.70311 0.47466 0.35121 0.0
C1315 C 0.70666 0.50308 0.31459 0.0
N1316 N 0.72905 0.44042 0.35229 0.0
N1317 N 0.71599 0.48446 0.31476 0.0
H1318 H 0.8055 0.37471 0.49307 0.0
H1319 H 0.88787 0.50402 0.5102 0.0
H1320 H 0.78609 0.44156 0.4958 0.0
H1321 H 0.90589 0.43847 0.52276 0.0
H1322 H 0.85041 0.48102 0.49908 0.0
H1323 H 0.84244 0.39736 0.49621 0.0
C1324 C 0.80894 0.3941 0.4938 0.0
C1325 C 0.79273 0.4063 0.49443 0.0
C1326 C 0.86261 0.47171 0.50423 0.0
C1327 C 0.83497 0.43232 0.49851 0.0
C1328 C 0.88392 0.48484 0.51081 0.0
C1329 C 0.89998 0.47312 0.51744 0.0
C1330 C 0.85739 0.44672 0.50424 0.0
C1331 C 0.89404 0.44817 0.51747 0.0
C1332 C 0.83005 0.40703 0.49581 0.0
C1333 C 0.7981 0.43143 0.49535 0.0
N1334 N 0.87322 0.4358 0.51097 0.0
N1335 N 0.81885 0.44368 0.49769 0.0
H1336 H 0.39987 0.15058 0.32307 0.0
H1337 H 0.29901 0.20574 0.28027 0.0
H1338 H 0.34707 0.11233 0.26516 0.0
H1339 H 0.35872 0.25015 0.32296 0.0
H1340 H 0.31505 0.17109 0.27691 0.0
H1341 H 0.38427 0.18571 0.32569 0.0
C1342 C 0.38496 0.14935 0.31087 0.0
C1343 C 0.37506 0.12786 0.29379 0.0
C1344 C 0.32476 0.18835 0.28701 0.0
C1345 C 0.35651 0.16901 0.297 0.0
C1346 C 0.31553 0.20842 0.28899 0.0
C1347 C 0.32729 0.23154 0.30191 0.0
C1348 C 0.34612 0.19067 0.29836 0.0
C1349 C 0.34875 0.23309 0.31267 0.0
C1350 C 0.37601 0.16968 0.31238 0.0
C1351 C 0.35562 0.12812 0.27863 0.0
N1352 N 0.35724 0.21322 0.31082 0.0
N1353 N 0.34711 0.14796 0.2807 0.0
H1354 H 0.34496 0.13952 0.52641 0.0
H1355 H 0.4081 0.05305 0.59111 0.0
H1356 H 0.32496 0.10155 0.58442 0.0
H1357 H 0.43321 0.09688 0.53956 0.0
H1358 H 0.37699 0.06978 0.58752 0.0
H1359 H 0.37665 0.12324 0.5295 0.0
C1360 C 0.34713 0.12766 0.53967 0.0
C1361 C 0.33214 0.12181 0.55506 0.0
C1362 C 0.38927 0.07581 0.57698 0.0
C1363 C 0.36848 0.10321 0.5588 0.0
C1364 C 0.40704 0.06612 0.5789 0.0
C1365 C 0.42329 0.07334 0.56541 0.0
C1366 C 0.38752 0.09291 0.56141 0.0
C1367 C 0.42115 0.09082 0.55036 0.0
C1368 C 0.36529 0.11846 0.5415 0.0
C1369 C 0.33597 0.10651 0.57207 0.0
N1370 N 0.40356 0.0999 0.54867 0.0
N1371 N 0.35366 0.09776 0.57343 0.0
H1372 H 0.72736 0.62293 0.36871 0.0
H1373 H 0.75372 0.73407 0.30245 0.0
H1374 H 0.67713 0.65393 0.33827 0.0
H1375 H 0.79573 0.73018 0.3687 0.0
H1376 H 0.72593 0.70207 0.31193 0.0
H1377 H 0.75382 0.65972 0.36597 0.0
C1378 C 0.72192 0.6377 0.36193 0.0
C1379 C 0.7001 0.6356 0.35386 0.0
C1380 C 0.74115 0.7085 0.32453 0.0
C1381 C 0.73009 0.67706 0.3501 0.0
C1382 C 0.75689 0.72684 0.31926 0.0
C1383 C 0.77671 0.73514 0.33522 0.0
C1384 C 0.74568 0.69788 0.34537 0.0
C1385 C 0.78052 0.72432 0.35608 0.0
C1386 C 0.73697 0.65858 0.36037 0.0
C1387 C 0.69382 0.65504 0.34496 0.0
N1388 N 0.76516 0.70596 0.36045 0.0
N1389 N 0.70882 0.6749 0.34289 0.0
H1390 H 0.85836 0.50006 0.82839 0.0
H1391 H 0.84879 0.35772 0.78678 0.0
H1392 H 0.9039 0.47391 0.79115 0.0
H1393 H 0.82291 0.38362 0.84882 0.0
H1394 H 0.86448 0.3999 0.7829 0.0
H1395 H 0.84047 0.45779 0.83066 0.0
C1396 C 0.86436 0.48551 0.82023 0.0
C1397 C 0.88267 0.49083 0.80934 0.0
C1398 C 0.85527 0.39639 0.79731 0.0
C1399 C 0.86211 0.44199 0.81184 0.0
C1400 C 0.84621 0.37217 0.7995 0.0
C1401 C 0.83441 0.3667 0.81821 0.0
C1402 C 0.85222 0.41572 0.81352 0.0
C1403 C 0.83188 0.38663 0.83413 0.0
C1404 C 0.85425 0.4613 0.82174 0.0
C1405 C 0.88983 0.47091 0.7996 0.0
N1406 N 0.84049 0.40998 0.83133 0.0
N1407 N 0.87958 0.44769 0.80092 0.0
H1408 H 0.05413 0.87014 0.14137 0.0
H1409 H 0.10064 0.99035 0.08941 0.0
H1410 H 0.11596 0.88515 0.11981 0.0
H1411 H 0.03321 0.95972 0.08372 0.0
H1412 H 0.10788 0.95442 0.10506 0.0
H1413 H 0.04725 0.90563 0.12486 0.0
C1414 C 0.06627 0.8809 0.13321 0.0
C1415 C 0.08564 0.87462 0.13194 0.0
C1416 C 0.0915 0.95554 0.10023 0.0
C1417 C 0.07796 0.91538 0.11326 0.0
C1418 C 0.08745 0.97598 0.09133 0.0
C1419 C 0.06645 0.97791 0.08505 0.0
C1420 C 0.07434 0.93711 0.10331 0.0
C1421 C 0.04972 0.95893 0.08808 0.0
C1422 C 0.0623 0.9011 0.12372 0.0
C1423 C 0.10077 0.88924 0.12108 0.0
N1424 N 0.05403 0.93942 0.09715 0.0
N1425 N 0.09667 0.90901 0.11232 0.0
H1426 H 0.95583 0.29736 0.95131 0.0
H1427 H 0.86074 0.24423 0.83676 0.0
H1428 H 0.9607 0.24856 0.88802 0.0
H1429 H 0.86556 0.31176 0.88338 0.0
H1430 H 0.89576 0.24339 0.85805 0.0
H1431 H 0.92159 0.30083 0.92938 0.0
C1432 C 0.9497 0.28734 0.93277 0.0
C1433 C 0.96117 0.27255 0.9215 0.0
C1434 C 0.88925 0.25844 0.86367 0.0
C1435 C 0.92181 0.27638 0.89641 0.0
C1436 C 0.86912 0.25891 0.85162 0.0
C1437 C 0.8601 0.27812 0.85831 0.0
C1438 C 0.90051 0.27707 0.88302 0.0
C1439 C 0.87189 0.29661 0.87765 0.0
C1440 C 0.9302 0.28947 0.92026 0.0
C1441 C 0.95248 0.26019 0.89741 0.0
N1442 N 0.89147 0.29555 0.88949 0.0
N1443 N 0.93323 0.2622 0.88577 0.0
H1444 H 0.60791 0.24526 0.6187 0.0
H1445 H 0.53557 0.1109 0.60709 0.0
H1446 H 0.55238 0.22564 0.65233 0.0
H1447 H 0.59825 0.12516 0.58742 0.0
H1448 H 0.5401 0.1538 0.61899 0.0
H1449 H 0.60298 0.20234 0.602 0.0
C1450 C 0.59444 0.23201 0.62211 0.0
C1451 C 0.58049 0.23899 0.63686 0.0
C1452 C 0.55291 0.14767 0.61204 0.0
C1453 C 0.57493 0.19017 0.61814 0.0
C1454 C 0.55033 0.12305 0.60516 0.0
C1455 C 0.56655 0.11431 0.59616 0.0
C1456 C 0.57184 0.16394 0.60993 0.0
C1457 C 0.58533 0.13112 0.59426 0.0
C1458 C 0.59179 0.20756 0.61283 0.0
C1459 C 0.56353 0.22109 0.64108 0.0
N1460 N 0.58748 0.15522 0.6011 0.0
N1461 N 0.56128 0.19758 0.63183 0.0
H1462 H 0.56111 0.79096 0.38812 0.0
H1463 H 0.67838 0.76852 0.39359 0.0
H1464 H 0.59301 0.76206 0.44669 0.0
H1465 H 0.64814 0.80005 0.33612 0.0
H1466 H 0.6465 0.76452 0.41233 0.0
H1467 H 0.59216 0.79302 0.36778 0.0
C1468 C 0.57451 0.78486 0.3966 0.0
C1469 C 0.57437 0.77632 0.41916 0.0
C1470 C 0.64684 0.77234 0.39562 0.0
C1471 C 0.61001 0.77875 0.39607 0.0
C1472 C 0.66503 0.77451 0.38482 0.0
C1473 C 0.66608 0.78474 0.36326 0.0
C1474 C 0.62946 0.78041 0.3848 0.0
C1475 C 0.64828 0.79244 0.35296 0.0
C1476 C 0.59228 0.78613 0.38504 0.0
C1477 C 0.59232 0.76882 0.42935 0.0
N1478 N 0.63076 0.79013 0.36381 0.0
N1479 N 0.60935 0.77025 0.41778 0.0
H1480 H 0.02915 0.23879 0.41418 0.0
H1481 H 0.05914 0.21281 0.55037 0.0
H1482 H 0.04644 0.29323 0.47997 0.0
H1483 H 0.03476 0.15644 0.48661 0.0
H1484 H 0.05473 0.24265 0.52428 0.0
H1485 H 0.03143 0.20805 0.44009 0.0
C1486 C 0.03347 0.24424 0.43404 0.0
C1487 C 0.03766 0.26848 0.44502 0.0
C1488 C 0.05011 0.22375 0.51599 0.0
C1489 C 0.04013 0.23372 0.47448 0.0
C1490 C 0.0527 0.2068 0.53084 0.0
C1491 C 0.04739 0.18236 0.52045 0.0
C1492 C 0.04205 0.21607 0.49067 0.0
C1493 C 0.03885 0.17523 0.49522 0.0
C1494 C 0.03465 0.22674 0.44877 0.0
C1495 C 0.04308 0.2747 0.47077 0.0
N1496 N 0.03652 0.19216 0.48103 0.0
N1497 N 0.04418 0.25735 0.48467 0.0
H1498 H 0.63636 0.30596 0.28296 0.0
H1499 H 0.72875 0.23808 0.27358 0.0
H1500 H 0.62518 0.2286 0.27718 0.0
H1501 H 0.73555 0.31369 0.26977 0.0
H1502 H 0.69085 0.23343 0.2747 0.0
H1503 H 0.67386 0.30897 0.2817 0.0
C1504 C 0.64201 0.28967 0.28215 0.0
C1505 C 0.62779 0.267 0.28012 0.0
C1506 C 0.70058 0.25092 0.27316 0.0
C1507 C 0.67037 0.27015 0.2777 0.0
C1508 C 0.72211 0.25351 0.27208 0.0
C1509 C 0.73524 0.2764 0.27172 0.0
C1510 C 0.69233 0.27134 0.27387 0.0
C1511 C 0.72594 0.29581 0.2702 0.0
C1512 C 0.66331 0.29133 0.28101 0.0
C1513 C 0.63576 0.24642 0.27899 0.0
N1514 N 0.70506 0.29291 0.27165 0.0
N1515 N 0.6566 0.24844 0.27743 0.0
H1516 H 0.55653 0.87533 0.99839 0.0
H1517 H 0.52099 0.99766 0.02042 0.0
H1518 H 0.53798 0.91416 0.9406 0.0
H1519 H 0.54743 0.9659 0.0802 0.0
H1520 H 0.5226 0.96376 0.99122 0.0
H1521 H 0.55076 0.90626 0.02885 0.0
C1522 C 0.55148 0.89052 0.99214 0.0
C1523 C 0.54769 0.89228 0.96695 0.0
C1524 C 0.52775 0.96392 1.01073 0.0
C1525 C 0.54079 0.92728 1.00158 0.0
C1526 C 0.52646 0.9831 0.02752 0.0
C1527 C 0.5339 0.98442 0.05279 0.0
C1528 C 0.53676 0.94603 0.01926 0.0
C1529 C 0.54143 0.96538 0.06084 0.0
C1530 C 0.54808 0.90804 1.00953 0.0
C1531 C 0.54116 0.91221 0.95984 0.0
N1532 N 0.54294 0.94696 0.04398 0.0
N1533 N 0.53781 0.92894 0.97713 0.0
H1534 H 0.0274 0.80529 0.77085 0.0
H1535 H 0.94016 0.79 0.85802 0.0
H1536 H 0.01871 0.75065 0.81753 0.0
H1537 H 0.94403 0.83806 0.80426 0.0
H1538 H 0.97174 0.77853 0.84707 0.0
H1539 H 0.99985 0.82124 0.78711 0.0
C1540 C 0.01984 0.7968 0.7847 0.0
C1541 C 0.0252 0.77653 0.79279 0.0
C1542 C 0.96577 0.79178 0.83788 0.0
C1543 C 0.99368 0.79454 0.81128 0.0
C1544 C 0.94773 0.79825 0.84405 0.0
C1545 C 0.93952 0.81507 0.83211 0.0
C1546 C 0.97559 0.80222 0.81966 0.0
C1547 C 0.95004 0.82537 0.81429 0.0
C1548 C 1.00409 0.80587 0.79393 0.0
C1549 C 1.01497 0.76626 0.81076 0.0
N1550 N 0.96749 0.8187 0.80854 0.0
N1551 N 0.99955 0.77529 0.81931 0.0
H1552 H 0.12426 0.02744 0.89717 0.0
H1553 H 0.08181 0.07654 0.01592 0.0
H1554 H 0.10947 0.09675 0.90835 0.0
H1555 H 0.07234 1.00041 0.99008 0.0
H1556 H 0.0978 0.08551 0.98006 0.0
H1557 H 0.11054 1.01833 0.93461 0.0
C1558 C 0.11819 0.04074 0.90753 0.0
C1559 C 0.11793 0.06284 0.89966 0.0
C1560 C 0.09237 0.06685 0.98233 0.0
C1561 C 0.10256 0.05269 0.94242 0.0
C1562 C 0.08339 0.06172 1.00286 0.0
C1563 C 0.07577 0.03767 1.00585 0.0
C1564 C 0.09402 0.04782 0.96492 0.0
C1565 C 0.07805 1.01917 0.98834 0.0
C1566 C 0.11033 0.03551 0.92879 0.0
C1567 C 0.10985 0.07943 0.9137 0.0
N1568 N 0.08702 0.02463 0.96854 0.0
N1569 N 0.10257 0.07406 0.93448 0.0
H1570 H 0.78232 0.38816 0.59927 0.0
H1571 H 0.80643 0.27631 0.65722 0.0
H1572 H 0.75157 0.31363 0.56768 0.0
H1573 H 0.83406 0.35067 0.69159 0.0
H1574 H 0.79097 0.28984 0.62069 0.0
H1575 H 0.80451 0.37479 0.63101 0.0
C1576 C 0.78014 0.36896 0.59918 0.0
C1577 C 0.7651 0.35192 0.581 0.0
C1578 C 0.80075 0.30321 0.63602 0.0
C1579 C 0.79057 0.33657 0.61686 0.0
C1580 C 0.80985 0.29551 0.65669 0.0
C1581 C 0.8214 0.3125 0.67731 0.0
C1582 C 0.80311 0.328 0.63625 0.0
C1583 C 0.82504 0.33711 0.676 0.0
C1584 C 0.79291 0.36136 0.61715 0.0
C1585 C 0.76287 0.3273 0.58159 0.0
N1586 N 0.81558 0.34419 0.65585 0.0
N1587 N 0.77557 0.32032 0.59931 0.0
H1588 H 0.49096 1.01888 0.37437 0.0
H1589 H 0.51858 0.06557 0.52276 0.0
H1590 H 0.46855 0.07735 0.4082 0.0
H1591 H 0.5458 1.01348 0.48515 0.0
H1592 H 0.49884 0.06929 0.48228 0.0
H1593 H 0.50979 1.01603 0.41514 0.0
C1594 C 0.48999 0.03125 0.39028 0.0
C1595 C 0.47801 0.0485 0.38732 0.0
C1596 C 0.5091 0.057 0.48288 0.0
C1597 C 0.49978 0.04507 0.43514 0.0
C1598 C 0.52037 0.0548 0.50613 0.0
C1599 C 0.53408 0.03917 0.50773 0.0
C1600 C 0.5113 0.04338 0.46078 0.0
C1601 C 0.53558 0.02582 0.48519 0.0
C1602 C 0.50081 0.02957 0.41379 0.0
C1603 C 0.47755 0.06382 0.40917 0.0
N1604 N 0.5245 0.02821 0.46303 0.0
N1605 N 0.4881 0.06171 0.43188 0.0
H1606 H 0.76382 0.73643 0.10598 0.0
H1607 H 0.82512 0.7607 0.24556 0.0
H1608 H 0.81335 0.70236 0.1316 0.0
H1609 H 0.76166 0.77095 0.2265 0.0
H1610 H 0.82377 0.74505 0.20244 0.0
H1611 H 0.76583 0.75535 0.14874 0.0
C1612 C 0.77541 0.73334 0.12053 0.0
C1613 C 0.78853 0.7179 0.1153 0.0
C1614 C 0.81014 0.75076 0.20765 0.0
C1615 C 0.79077 0.73927 0.16395 0.0
C1616 C 0.81092 0.75981 0.23227 0.0
C1617 C 0.79349 0.76723 0.23963 0.0
C1618 C 0.79193 0.74935 0.19009 0.0
C1619 C 0.77543 0.76538 0.22158 0.0
C1620 C 0.77635 0.74389 0.14488 0.0
C1621 C 0.80297 0.71414 0.13484 0.0
N1622 N 0.77513 0.7567 0.19752 0.0
N1623 N 0.80372 0.72478 0.15829 0.0
H1624 H 0.12585 1.01967 0.75403 0.0
H1625 H 0.07039 0.07911 0.65018 0.0
H1626 H 0.09872 0.08007 0.77063 0.0
H1627 H 0.07843 1.00662 0.63636 0.0
H1628 H 0.08224 0.0807 0.69419 0.0
H1629 H 0.10957 1.0151 0.71064 0.0
C1630 C 0.1162 0.03176 0.74857 0.0
C1631 C 0.1136 0.05029 0.76588 0.0
C1632 C 0.08122 0.06438 0.68156 0.0
C1633 C 0.09527 0.04537 0.71632 0.0
C1634 C 0.07457 0.06346 0.6564 0.0
C1635 C 0.07344 0.04264 0.63956 0.0
C1636 C 0.08699 0.04445 0.68994 0.0
C1637 C 0.079 0.02295 0.64871 0.0
C1638 C 0.10693 0.02913 0.72383 0.0
C1639 C 0.10098 0.06545 0.75786 0.0
N1640 N 0.08571 0.02441 0.67333 0.0
N1641 N 0.09248 0.06285 0.73353 0.0
H1642 H 0.70886 0.33064 0.43245 0.0
H1643 H 0.77911 0.24918 0.38041 0.0
H1644 H 0.7296 0.27628 0.4693 0.0
H1645 H 0.75739 0.3029 0.34326 0.0
H1646 H 0.75479 0.25295 0.40919 0.0
H1647 H 0.71777 0.31287 0.39446 0.0
C1648 C 0.7143 0.31425 0.43223 0.0
C1649 C 0.71912 0.30525 0.45406 0.0
C1650 C 0.75519 0.26376 0.3946 0.0
C1651 C 0.73003 0.28549 0.41125 0.0
C1652 C 0.76924 0.26181 0.37843 0.0
C1653 C 0.77033 0.27597 0.3598 0.0
C1654 C 0.74237 0.28014 0.39213 0.0
C1655 C 0.75714 0.29188 0.35767 0.0
C1656 C 0.71972 0.30432 0.41064 0.0
C1657 C 0.72615 0.28402 0.45285 0.0
N1658 N 0.74376 0.29366 0.3738 0.0
N1659 N 0.73202 0.27523 0.43191 0.0
H1660 H 0.48374 0.0542 0.26333 0.0
H1661 H 0.47264 0.04803 0.11455 0.0
H1662 H 0.42853 0.06566 0.21823 0.0
H1663 H 0.53086 0.04843 0.16273 0.0
H1664 H 0.45548 0.05226 0.1511 0.0
H1665 H 0.50022 0.05021 0.22653 0.0
C1666 C 0.475 0.05603 0.24581 0.0
C1667 C 0.45452 0.06053 0.24452 0.0
C1668 C 0.472 0.05134 0.15371 0.0
C1669 C 0.47365 0.05547 0.20116 0.0
C1670 C 0.48187 0.04878 0.13266 0.0
C1671 C 0.50345 0.04768 0.13501 0.0
C1672 C 0.48353 0.05267 0.17775 0.0
C1673 C 0.51428 0.04908 0.15946 0.0
C1674 C 0.48452 0.05367 0.22457 0.0
C1675 C 0.44432 0.06243 0.22069 0.0
N1676 N 0.50434 0.05138 0.17947 0.0
N1677 N 0.45382 0.05983 0.20028 0.0
H1678 H 0.7909 0.69387 0.96383 0.0
H1679 H 0.78935 0.80987 0.90012 0.0
H1680 H 0.76108 0.74903 0.99036 0.0
H1681 H 0.79365 0.74275 0.85973 0.0
H1682 H 0.78257 0.78951 0.93539 0.0
H1683 H 0.79604 0.71326 0.92751 0.0
C1684 C 0.78549 0.71007 0.96206 0.0
C1685 C 0.77552 0.71983 0.98015 0.0
C1686 C 0.78484 0.7792 0.91874 0.0
C1687 C 0.7815 0.74215 0.93882 0.0
C1688 C 0.78868 0.7908 0.89865 0.0
C1689 C 0.79195 0.77794 0.87701 0.0
C1690 C 0.78467 0.75467 0.91736 0.0
C1691 C 0.79105 0.75327 0.87605 0.0
C1692 C 0.78833 0.72104 0.94128 0.0
C1693 C 0.76876 0.74082 0.97685 0.0
N1694 N 0.78771 0.74248 0.89604 0.0
N1695 N 0.772 0.75136 0.9567 0.0
H1696 H 0.86941 0.11586 0.09466 0.0
H1697 H 0.96228 0.1013 0.0315 0.0
H1698 H 0.89673 0.17425 0.05835 0.0
H1699 H 0.90486 0.04299 0.01834 0.0
H1700 H 0.94157 0.12958 0.04357 0.0
H1701 H 0.88593 0.0893 0.07082 0.0
C1702 C 0.87896 0.12304 0.08165 0.0
C1703 C 0.88193 0.14715 0.07838 0.0
C1704 C 0.93352 0.11065 0.03741 0.0
C1705 C 0.90069 0.1171 0.05133 0.0
C1706 C 0.94524 0.09448 0.03039 0.0
C1707 C 0.93531 0.06963 0.02418 0.0
C1708 C 0.91202 0.10174 0.03871 0.0
C1709 C 0.91326 0.06187 0.02361 0.0
C1710 C 0.88811 0.10787 0.06791 0.0
C1711 C 0.89418 0.15566 0.0612 0.0
N1712 N 0.90241 0.07784 0.03141 0.0
N1713 N 0.90354 0.14064 0.04846 0.0
H1714 H 0.40124 0.42497 0.06701 0.0
H1715 H 0.49448 0.5464 0.11305 0.0
H1716 H 0.39418 0.48667 0.11473 0.0
H1717 H 0.49609 0.49174 0.05323 0.0
H1718 H 0.45881 0.52344 0.11602 0.0
H1719 H 0.43684 0.44779 0.06383 0.0
C1720 C 0.40716 0.44333 0.07688 0.0
C1721 C 0.39462 0.4539 0.09119 0.0
C1722 C 0.46693 0.51642 0.10224 0.0
C1723 C 0.43561 0.48015 0.08765 0.0
C1724 C 0.48735 0.52949 0.10056 0.0
C1725 C 0.4983 0.52098 0.08284 0.0
C1726 C 0.45737 0.49447 0.08624 0.0
C1727 C 0.48824 0.49896 0.06717 0.0
C1728 C 0.42752 0.45637 0.07497 0.0
C1729 C 0.40321 0.47779 0.10344 0.0
N1730 N 0.46836 0.48643 0.06927 0.0
N1731 N 0.42319 0.49005 0.10146 0.0
H1732 H 0.42518 0.58426 0.8084 0.0
H1733 H 0.32849 0.63254 0.74615 0.0
H1734 H 0.38397 0.5512 0.7383 0.0
H1735 H 0.36997 0.6683 0.81525 0.0
H1736 H 0.34949 0.60297 0.7429 0.0
H1737 H 0.40588 0.61588 0.81129 0.0
C1738 C 0.41214 0.58371 0.79363 0.0
C1739 C 0.40615 0.56518 0.77309 0.0
C1740 C 0.35412 0.61734 0.75873 0.0
C1741 C 0.38416 0.60099 0.77625 0.0
C1742 C 0.34207 0.63413 0.76063 0.0
C1743 C 0.34746 0.65268 0.78108 0.0
C1744 C 0.37171 0.61917 0.7774 0.0
C1745 C 0.36542 0.65428 0.79911 0.0
C1746 C 0.40117 0.60172 0.79527 0.0
C1747 C 0.38915 0.5652 0.75446 0.0
N1748 N 0.37691 0.63759 0.79691 0.0
N1749 N 0.37872 0.58283 0.75652 0.0
H1750 H 0.30161 0.61991 0.63181 0.0
H1751 H 0.18213 0.63072 0.5918 0.0
H1752 H 0.28556 0.68239 0.60637 0.0
H1753 H 0.19792 0.57452 0.62974 0.0
H1754 H 0.21998 0.64691 0.5916 0.0
H1755 H 0.26353 0.60034 0.62634 0.0
C1756 C 0.29008 0.62952 0.62512 0.0
C1757 C 0.29673 0.65291 0.61984 0.0
C1758 C 0.21516 0.63093 0.59982 0.0
C1759 C 0.25329 0.6306 0.61335 0.0
C1760 C 0.19358 0.62157 0.59974 0.0
C1761 C 0.187 0.60132 0.61087 0.0
C1762 C 0.23023 0.61992 0.61107 0.0
C1763 C 0.20244 0.59035 0.62123 0.0
C1764 C 0.26838 0.61833 0.62196 0.0
C1765 C 0.28114 0.66444 0.61096 0.0
N1766 N 0.22342 0.59987 0.62118 0.0
N1767 N 0.26012 0.65316 0.60804 0.0
H1768 H 0.74871 0.97241 0.80071 0.0
H1769 H 0.7398 0.83477 0.82488 0.0
H1770 H 0.70094 0.93656 0.83846 0.0
H1771 H 0.79855 0.88099 0.81461 0.0
H1772 H 0.72353 0.8695 0.82547 0.0
H1773 H 0.76506 0.93788 0.80112 0.0
C1774 C 0.7415 0.95735 0.80906 0.0
C1775 C 0.72319 0.95802 0.81965 0.0
C1776 C 0.74 0.87213 0.82311 0.0
C1777 C 0.74206 0.91718 0.81973 0.0
C1778 C 0.74939 0.8521 0.82273 0.0
C1779 C 0.77087 0.85442 0.81981 0.0
C1780 C 0.75177 0.89506 0.81998 0.0
C1781 C 0.78208 0.87784 0.81708 0.0
C1782 C 0.75099 0.93745 0.80933 0.0
C1783 C 0.71498 0.93742 0.83013 0.0
N1784 N 0.77249 0.8968 0.81702 0.0
N1785 N 0.72422 0.91812 0.82969 0.0
H1786 H 0.76597 0.93422 0.5661 0.0
H1787 H 0.70696 0.0309 0.62111 0.0
H1788 H 0.79327 0.98787 0.63146 0.0
H1789 H 0.67906 0.97857 0.55482 0.0
H1790 H 0.73845 1.01488 0.62513 0.0
H1791 H 0.73387 0.94966 0.56162 0.0
C1792 C 0.76527 0.9493 0.57944 0.0
C1793 C 0.78244 0.95982 0.59912 0.0
C1794 C 0.72544 1.00682 0.60972 0.0
C1795 C 0.74565 0.9775 0.59419 0.0
C1796 C 0.70742 1.01608 0.60731 0.0
C1797 C 0.69024 1.00626 0.58747 0.0
C1798 C 0.72644 0.98745 0.59224 0.0
C1799 C 0.69174 0.98664 0.57056 0.0
C1800 C 0.74691 0.95807 0.57691 0.0
C1801 C 0.78053 0.97921 0.61593 0.0
N1802 N 0.70951 0.97795 0.57329 0.0
N1803 N 0.76253 0.98739 0.61308 0.0
H1804 H 0.42699 0.43322 0.81073 0.0
H1805 H 0.30875 0.34979 0.76123 0.0
H1806 H 0.38117 0.44927 0.75489 0.0
H1807 H 0.34701 0.34673 0.83058 0.0
H1808 H 0.33724 0.38309 0.75521 0.0
H1809 H 0.39985 0.39752 0.81462 0.0
C1810 C 0.41132 0.42908 0.79912 0.0
C1811 C 0.40628 0.44414 0.78246 0.0
C1812 C 0.33946 0.37497 0.77165 0.0
C1813 C 0.37536 0.40367 0.78686 0.0
C1814 C 0.32325 0.35605 0.77506 0.0
C1815 C 0.3258 0.34543 0.79622 0.0
C1816 C 0.35829 0.38312 0.78949 0.0
C1817 C 0.34475 0.35413 0.81371 0.0
C1818 C 0.39584 0.40885 0.80145 0.0
C1819 C 0.3857 0.43814 0.768 0.0
N1820 N 0.36038 0.37251 0.80994 0.0
N1821 N 0.37097 0.41834 0.77055 0.0
H1822 H 0.20667 0.61683 0.37275 0.0
H1823 H 0.27211 0.70529 0.29349 0.0
H1824 H 0.23316 0.59024 0.31154 0.0
H1825 H 0.25936 0.73095 0.36464 0.0
H1826 H 0.25649 0.66369 0.29856 0.0
H1827 H 0.22435 0.65829 0.36917 0.0
C1828 C 0.21642 0.61955 0.3587 0.0
C1829 C 0.21844 0.59947 0.34266 0.0
C1830 C 0.25709 0.67834 0.31313 0.0
C1831 C 0.23864 0.64791 0.338 0.0
C1832 C 0.26601 0.70232 0.31023 0.0
C1833 C 0.2672 0.72215 0.32863 0.0
C1834 C 0.24885 0.6736 0.33454 0.0
C1835 C 0.25894 0.71657 0.34987 0.0
C1836 C 0.22652 0.64345 0.35663 0.0
C1837 C 0.23124 0.60476 0.32468 0.0
N1838 N 0.2501 0.69308 0.35212 0.0
N1839 N 0.24058 0.62822 0.32274 0.0
H1840 H 0.57467 0.72866 0.53252 0.0
H1841 H 0.51865 0.59053 0.53684 0.0
H1842 H 0.5105 0.69302 0.49408 0.0
H1843 H 0.58404 0.62706 0.57008 0.0
H1844 H 0.51413 0.62806 0.52276 0.0
H1845 H 0.57729 0.69169 0.54813 0.0
C1846 C 0.56103 0.7131 0.52748 0.0
C1847 C 0.54228 0.71401 0.51202 0.0
C1848 C 0.52942 0.62779 0.53322 0.0
C1849 C 0.54521 0.67136 0.52984 0.0
C1850 C 0.53196 0.60641 0.54131 0.0
C1851 C 0.55175 0.60557 0.55454 0.0
C1852 C 0.54676 0.64842 0.53856 0.0
C1853 C 0.5685 0.62672 0.55982 0.0
C1854 C 0.56256 0.69191 0.53638 0.0
C1855 C 0.52522 0.69316 0.50604 0.0
N1856 N 0.56562 0.64716 0.55178 0.0
N1857 N 0.52709 0.67266 0.51493 0.0
H1858 H 0.64045 0.30748 0.76129 0.0
H1859 H 0.7621 0.29859 0.76722 0.0
H1860 H 0.67333 0.31863 0.70024 0.0
H1861 H 0.73108 0.30399 0.83025 0.0
H1862 H 0.72942 0.30258 0.74092 0.0
H1863 H 0.67332 0.30346 0.7857 0.0
C1864 C 0.65463 0.30932 0.75306 0.0
C1865 C 0.65404 0.31355 0.72867 0.0
C1866 C 0.72984 0.30281 0.76052 0.0
C1867 C 0.69197 0.30851 0.75656 0.0
C1868 C 0.74841 0.30037 0.77546 0.0
C1869 C 0.74934 0.30097 0.80098 0.0
C1870 C 0.7121 0.30558 0.77121 0.0
C1871 C 0.73118 0.30351 0.81071 0.0
C1872 C 0.67346 0.30693 0.76701 0.0
C1873 C 0.67303 0.31558 0.71904 0.0
N1874 N 0.71344 0.30566 0.79591 0.0
N1875 N 0.69116 0.3129 0.73292 0.0
H1876 H 1.00226 0.3387 0.03585 0.0
H1877 H 0.07821 0.47143 0.05031 0.0
H1878 H 0.05861 0.35448 1.00289 0.0
H1879 H 1.01383 0.45754 0.06494 0.0
H1880 H 0.07299 0.42822 0.03677 0.0
H1881 H 1.00825 0.38177 0.05106 0.0
C1882 C 1.01608 0.35118 0.03209 0.0
C1883 C 0.03001 0.34296 0.01811 0.0
C1884 C 0.06001 0.43463 0.04293 0.0
C1885 C 0.03683 0.3923 0.03536 0.0
C1886 C 0.06298 0.45929 0.05073 0.0
C1887 C 0.04644 0.46811 0.0588 0.0
C1888 C 0.04044 0.4186 0.04347 0.0
C1889 C 0.027 0.45154 0.05879 0.0
C1890 C 0.01936 0.37579 0.04062 0.0
C1891 C 0.0475 0.36001 0.01362 0.0
N1892 N 0.02457 0.42754 0.05134 0.0
N1893 N 0.05041 0.38388 0.02223 0.0
H1894 H 0.02042 0.8321 0.20538 0.0
H1895 H 0.94183 0.76781 0.28879 0.0
H1896 H 0.0309 0.77377 0.24321 0.0
H1897 H 0.92952 0.82477 0.24975 0.0
H1898 H 0.97462 0.7701 0.27233 0.0
H1899 H 0.98748 0.83044 0.22194 0.0
C1900 C 1.01589 0.81906 0.21729 0.0
C1901 C 0.02852 0.80313 0.22298 0.0
C1902 C 0.96476 0.78209 0.2673 0.0
C1903 C 0.99076 0.801 0.24185 0.0
C1904 C 0.94587 0.78065 0.27654 0.0
C1905 C 0.93271 0.796 0.27054 0.0
C1906 C 0.9707 0.79906 0.25194 0.0
C1907 C 0.9392 0.81269 0.25507 0.0
C1908 C 0.99704 0.81807 0.22667 0.0
C1909 C 0.02175 0.78648 0.23836 0.0
N1910 N 0.9577 0.81376 0.2463 0.0
N1911 N 1.00337 0.78585 0.24721 0.0
H1912 H 0.60326 0.34207 0.20827 0.0
H1913 H 0.52752 0.41553 0.14707 0.0
H1914 H 0.53791 0.33396 0.21845 0.0
H1915 H 0.5942 0.42571 0.14228 0.0
H1916 H 0.53212 0.39025 0.1786 0.0
H1917 H 0.60149 0.3773 0.18934 0.0
C1918 C 0.58858 0.34794 0.20671 0.0
C1919 C 0.57059 0.33511 0.21455 0.0
C1920 C 0.54582 0.39836 0.17095 0.0
C1921 C 0.56836 0.37515 0.19278 0.0
C1922 C 0.54319 0.41275 0.15308 0.0
C1923 C 0.56047 0.42219 0.14205 0.0
C1924 C 0.56581 0.39354 0.17753 0.0
C1925 C 0.58045 0.41822 0.15016 0.0
C1926 C 0.58759 0.36809 0.196 0.0
C1927 C 0.55207 0.34349 0.21249 0.0
N1928 N 0.58253 0.40391 0.1673 0.0
N1929 N 0.55128 0.36291 0.20135 0.0
H1930 H 0.97036 0.35256 0.40127 0.0
H1931 H 0.86453 0.25933 0.32741 0.0
H1932 H 0.96913 0.29448 0.34324 0.0
H1933 H 0.86392 0.32993 0.36388 0.0
H1934 H 0.9033 0.27073 0.33726 0.0
H1935 H 0.93149 0.34449 0.39006 0.0
C1936 C 0.96195 0.33843 0.38589 0.0
C1937 C 0.97285 0.324 0.37327 0.0
C1938 C 0.89466 0.2837 0.34317 0.0
C1939 C 0.92874 0.31443 0.36089 0.0
C1940 C 0.87251 0.2771 0.33787 0.0
C1941 C 0.86098 0.29371 0.34483 0.0
C1942 C 0.90534 0.30698 0.35571 0.0
C1943 C 0.87222 0.31654 0.35821 0.0
C1944 C 0.93983 0.3338 0.3796 0.0
C1945 C 0.96132 0.306 0.35347 0.0
N1946 N 0.89389 0.32257 0.3632 0.0
N1947 N 0.93978 0.30148 0.34811 0.0
H1948 H 0.0356 0.67473 0.71258 0.0
H1949 H 0.02133 0.62966 0.56889 0.0
H1950 H 0.02811 0.72431 0.66167 0.0
H1951 H 0.06081 0.60737 0.62648 0.0
H1952 H 1.01625 0.66122 0.60018 0.0
H1953 H 0.03385 0.64371 0.6778 0.0
C1954 C 0.03296 0.67891 0.69406 0.0
C1955 C 0.03256 0.70224 0.69003 0.0
C1956 C 0.0263 0.64954 0.60561 0.0
C1957 C 0.031 0.66715 0.65041 0.0
C1958 C 0.02948 0.63192 0.58783 0.0
C1959 C 0.04163 0.61605 0.59514 0.0
C1960 C 0.03505 0.65064 0.63052 0.0
C1961 C 0.05158 0.61936 0.61992 0.0
C1962 C 0.03223 0.66131 0.67427 0.0
C1963 C 0.0289 0.70659 0.66557 0.0
N1964 N 0.04779 0.63602 0.63678 0.0
N1965 N 0.02866 0.68924 0.64654 0.0
H1966 H 0.58168 0.82755 0.84774 0.0
H1967 H 0.68461 0.77538 0.86841 0.0
H1968 H 0.60726 0.80738 0.91615 0.0
H1969 H 0.6578 0.79033 0.79789 0.0
H1970 H 0.65656 0.78829 0.88633 0.0
H1971 H 0.60993 0.81527 0.82909 0.0
C1972 C 0.5933 0.82068 0.85883 0.0
C1973 C 0.5922 0.81848 0.88346 0.0
C1974 C 0.65673 0.78872 0.86692 0.0
C1975 C 0.62422 0.80439 0.86238 0.0
C1976 C 0.67279 0.78148 0.85674 0.0
C1977 C 0.6735 0.782 0.83173 0.0
C1978 C 0.64126 0.79648 0.85194 0.0
C1979 C 0.65764 0.78958 0.81724 0.0
C1980 C 0.60932 0.81361 0.84818 0.0
C1981 C 0.60751 0.80938 0.89706 0.0
N1982 N 0.6421 0.79663 0.82762 0.0
N1983 N 0.6229 0.80264 0.88629 0.0
H1984 H 0.51505 0.53464 0.75152 0.0
H1985 H 0.51817 0.5123 0.60892 0.0
H1986 H 0.45749 0.5035 0.69709 0.0
H1987 H 0.558 0.5762 0.65749 0.0
H1988 H 0.49868 0.50245 0.64221 0.0
H1989 H 0.53476 0.54336 0.71799 0.0
C1990 C 0.50668 0.5294 0.73253 0.0
C1991 C 0.48472 0.51839 0.7269 0.0
C1992 C 0.51163 0.51868 0.64541 0.0
C1993 C 0.50692 0.52805 0.68896 0.0
C1994 C 0.52261 0.52438 0.62645 0.0
C1995 C 0.53936 0.54532 0.63039 0.0
C1996 C 0.51798 0.53367 0.66854 0.0
C1997 C 0.54492 0.56009 0.65364 0.0
C1998 C 0.51783 0.53452 0.71353 0.0
C1999 C 0.47444 0.51213 0.70209 0.0
N2000 N 0.53435 0.55385 0.67202 0.0
N2001 N 0.48569 0.51694 0.68393 0.0
H2002 H 0.78824 0.20313 0.03065 0.0
H2003 H 0.77204 0.31658 0.99051 0.0
H2004 H 0.79324 0.26589 0.08475 0.0
H2005 H 0.73414 0.24804 0.9483 0.0
H2006 H 0.77352 0.29862 0.02727 0.0
H2007 H 0.76421 0.21775 1.00158 0.0
C2008 C 0.78412 0.21984 0.03646 0.0
C2009 C 0.79314 0.23368 0.05981 0.0
C2010 C 0.76423 0.28761 1.01015 0.0
C2011 C 0.76562 0.25026 0.02701 0.0
C2012 C 0.76316 0.29799 0.98894 0.0
C2013 C 0.75387 0.28349 0.96587 0.0
C2014 C 0.75652 0.26255 1.00807 0.0
C2015 C 0.74255 0.25955 0.96551 0.0
C2016 C 0.77014 0.22797 0.02005 0.0
C2017 C 0.78694 0.25492 0.0667 0.0
N2018 N 0.74504 0.24943 0.98616 0.0
N2019 N 0.77389 0.26283 0.05016 0.0
H2020 H 0.13947 0.48962 0.24907 0.0
H2021 H 0.09083 0.57036 0.15948 0.0
H2022 H 0.12796 0.55703 0.27904 0.0
H2023 H 0.06769 0.49294 0.14592 0.0
H2024 H 0.11112 0.56795 0.2001 0.0
H2025 H 0.11959 0.49221 0.20846 0.0
C2026 C 0.13271 0.50491 0.24727 0.0
C2027 C 0.13526 0.52289 0.26801 0.0
C2028 C 0.10173 0.55147 0.18814 0.0
C2029 C 0.11302 0.52652 0.22068 0.0
C2030 C 0.09024 0.55283 0.16478 0.0
C2031 C 0.07743 0.53181 0.14895 0.0
C2032 C 0.10107 0.52887 0.19568 0.0
C2033 C 0.07727 0.50966 0.1573 0.0
C2034 C 0.12136 0.50641 0.22394 0.0
C2035 C 0.12621 0.54243 0.26397 0.0
N2036 N 0.08893 0.50876 0.17971 0.0
N2037 N 0.11584 0.54385 0.24097 0.0
H2038 H 0.81885 0.82745 0.52381 0.0
H2039 H 0.83288 0.84823 0.39174 0.0
H2040 H 0.82028 0.89798 0.5049 0.0
H2041 H 0.77997 0.79036 0.39818 0.0
H2042 H 0.83648 0.86437 0.43568 0.0
H2043 H 0.81173 0.81054 0.47948 0.0
C2044 C 0.81742 0.83926 0.5103 0.0
C2045 C 0.81988 0.86404 0.51781 0.0
C2046 C 0.82409 0.84818 0.42735 0.0
C2047 C 0.81263 0.84514 0.46777 0.0
C2048 C 0.82208 0.83893 0.40248 0.0
C2049 C 0.80601 0.81809 0.39152 0.0
C2050 C 0.81037 0.83602 0.44138 0.0
C2051 C 0.79239 0.80663 0.40607 0.0
C2052 C 0.81338 0.82965 0.4852 0.0
C2053 C 0.81815 0.87872 0.49974 0.0
N2054 N 0.79505 0.81559 0.4305 0.0
N2055 N 0.815 0.86911 0.47545 0.0
H2056 H 0.48041 0.55193 0.87104 0.0
H2057 H 0.53358 0.49762 0.98187 0.0
H2058 H 0.5075 0.49054 0.86127 0.0
H2059 H 0.52501 0.57006 0.9918 0.0
H2060 H 0.52113 0.49364 0.93777 0.0
H2061 H 0.4944 0.55823 0.91554 0.0
C2062 C 0.48944 0.53994 0.87821 0.0
C2063 C 0.49278 0.52068 0.86246 0.0
C2064 C 0.52202 0.51045 0.94953 0.0
C2065 C 0.50847 0.52757 0.9131 0.0
C2066 C 0.52902 0.51273 0.97478 0.0
C2067 C 0.53034 0.53426 0.99053 0.0
C2068 C 0.51608 0.52976 0.93989 0.0
C2069 C 0.5243 0.5532 0.98025 0.0
C2070 C 0.49739 0.54353 0.90355 0.0
C2071 C 0.50455 0.50564 0.87269 0.0
N2072 N 0.51731 0.55047 0.95548 0.0
N2073 N 0.51182 0.5093 0.89738 0.0
H2074 H 0.86645 0.27849 0.14268 0.0
H2075 H 0.84014 0.26653 0.27494 0.0
H2076 H 0.88489 0.22777 0.18709 0.0
H2077 H 0.81878 0.31551 0.23027 0.0
H2078 H 0.86333 0.25861 0.24657 0.0
H2079 H 0.85804 0.30021 0.17885 0.0
C2080 C 0.8696 0.27246 0.16024 0.0
C2081 C 0.87548 0.25066 0.16168 0.0
C2082 C 0.85376 0.27126 0.24297 0.0
C2083 C 0.86553 0.27515 0.2028 0.0
C2084 C 0.84032 0.27563 0.25905 0.0
C2085 C 0.8274 0.29152 0.25469 0.0
C2086 C 0.8541 0.28261 0.22212 0.0
C2087 C 0.82841 0.30297 0.23403 0.0
C2088 C 0.86451 0.28474 0.18083 0.0
C2089 C 0.87974 0.24407 0.18499 0.0
N2090 N 0.84145 0.29808 0.21825 0.0
N2091 N 0.87403 0.25585 0.20455 0.0
H2092 H 0.10657 0.56709 0.39447 0.0
H2093 H 0.10672 0.55028 0.53727 0.0
H2094 H 0.14876 0.53049 0.43222 0.0
H2095 H 0.05182 0.56026 0.49033 0.0
H2096 H 0.12466 0.5479 0.50125 0.0
H2097 H 0.0889 0.56948 0.43064 0.0
C2098 C 0.11225 0.55956 0.4103 0.0
C2099 C 0.12936 0.54841 0.40974 0.0
C2100 C 0.10871 0.55069 0.49879 0.0
C2101 C 0.10905 0.55162 0.45231 0.0
C2102 C 0.0984 0.5522 0.51954 0.0
C2103 C 0.07748 0.55555 0.51733 0.0
C2104 C 0.09844 0.55303 0.47526 0.0
C2105 C 0.06782 0.55766 0.49338 0.0
C2106 C 0.10203 0.56092 0.4311 0.0
C2107 C 0.13568 0.53912 0.4313 0.0
N2108 N 0.07829 0.55656 0.47367 0.0
N2109 N 0.12578 0.5411 0.45146 0.0
H2110 H 0.82252 0.84069 0.63171 0.0
H2111 H 0.81571 0.84475 0.77462 0.0
H2112 H 0.82668 0.90625 0.68141 0.0
H2113 H 0.80153 0.77861 0.72233 0.0
H2114 H 0.82219 0.86778 0.74133 0.0
H2115 H 0.81687 0.81785 0.66523 0.0
C2116 C 0.82225 0.85032 0.64967 0.0
C2117 C 0.82514 0.87547 0.65375 0.0
C2118 C 0.81777 0.84824 0.73713 0.0
C2119 C 0.81872 0.84935 0.69226 0.0
C2120 C 0.81419 0.83507 0.75615 0.0
C2121 C 0.80816 0.80974 0.75116 0.0
C2122 C 0.81544 0.83596 0.713 0.0
C2123 C 0.80625 0.79812 0.72691 0.0
C2124 C 0.81899 0.83723 0.6688 0.0
C2125 C 0.82455 0.8869 0.67742 0.0
N2126 N 0.80987 0.81134 0.70869 0.0
N2127 N 0.82146 0.87375 0.69581 0.0
H2128 H 0.74966 0.46088 0.58503 0.0
H2129 H 0.64422 0.48513 0.62409 0.0
H2130 H 0.68676 0.41265 0.55944 0.0
H2131 H 0.70653 0.53502 0.64733 0.0
H2132 H 0.66083 0.45429 0.60874 0.0
H2133 H 0.73517 0.48467 0.61418 0.0
C2134 C 0.73274 0.45533 0.58549 0.0
C2135 C 0.71925 0.43503 0.56951 0.0
C2136 C 0.67094 0.47181 0.61766 0.0
C2137 C 0.70268 0.46201 0.60307 0.0
C2138 C 0.66147 0.48944 0.62676 0.0
C2139 C 0.67398 0.51297 0.63643 0.0
C2140 C 0.69302 0.47784 0.61811 0.0
C2141 C 0.69626 0.51732 0.63936 0.0
C2142 C 0.72454 0.46881 0.60232 0.0
C2143 C 0.6976 0.42842 0.57119 0.0
N2144 N 0.70508 0.50005 0.62967 0.0
N2145 N 0.68991 0.44205 0.58759 0.0
H2146 H 0.2241 0.11032 0.57251 0.0
H2147 H 0.10336 0.05621 0.50721 0.0
H2148 H 0.19917 0.13294 0.5055 0.0
H2149 H 0.12074 0.0734 0.58656 0.0
H2150 H 0.13944 0.07851 0.50407 0.0
H2151 H 0.18749 0.09009 0.57579 0.0
C2152 C 0.21097 0.11066 0.55824 0.0
C2153 C 0.21473 0.12314 0.53855 0.0
C2154 C 0.13529 0.07752 0.52215 0.0
C2155 C 0.17285 0.10003 0.54225 0.0
C2156 C 0.11476 0.06482 0.52396 0.0
C2157 C 0.1091 0.06301 0.54715 0.0
C2158 C 0.1505 0.08786 0.54371 0.0
C2159 C 0.12446 0.07448 0.56831 0.0
C2160 C 0.19009 0.09937 0.56032 0.0
C2161 C 0.19702 0.12341 0.52089 0.0
N2162 N 0.1446 0.08612 0.56611 0.0
N2163 N 0.17687 0.11183 0.52302 0.0
H2164 H 0.18718 0.99788 0.86687 0.0
H2165 H 0.25126 0.91768 0.79608 0.0
H2166 H 0.20259 1.00591 0.79488 0.0
H2167 H 0.25003 0.92142 0.87399 0.0
H2168 H 0.22926 0.94643 0.79397 0.0
H2169 H 0.20659 0.96632 0.86863 0.0
C2170 C 0.19453 0.9929 0.85143 0.0
C2171 C 0.19334 1.00443 0.83073 0.0
C2172 C 0.23375 0.94093 0.81152 0.0
C2173 C 0.21531 0.96863 0.83257 0.0
C2174 C 0.24613 0.9244 0.81268 0.0
C2175 C 0.25235 0.91724 0.83524 0.0
C2176 C 0.22755 0.95028 0.83307 0.0
C2177 C 0.24564 0.92672 0.85631 0.0
C2178 C 0.20563 0.97502 0.85247 0.0
C2179 C 0.2032 0.99749 0.81124 0.0
N2180 N 0.23355 0.94286 0.85473 0.0
N2181 N 0.21377 0.97999 0.81263 0.0
H2182 H 0.30216 0.88632 0.98538 0.0
H2183 H 0.38001 1.01867 1.00605 0.0
H2184 H 0.28099 0.95151 0.99997 0.0
H2185 H 0.40105 0.95403 0.01437 0.0
H2186 H 0.34295 0.99405 0.99445 0.0
H2187 H 0.33783 0.91095 0.98516 0.0
C2188 C 0.30486 0.90578 0.98796 0.0
C2189 C 0.28868 0.9169 0.99306 0.0
C2190 C 0.35572 0.98531 0.99874 0.0
C2191 C 0.32942 0.94507 0.99321 0.0
C2192 C 0.37676 0.9993 1.00538 0.0
C2193 C 0.3934 0.9883 0.01152 0.0
C2194 C 0.35149 0.96022 0.99794 0.0
C2195 C 0.38854 0.96318 1.01026 0.0
C2196 C 0.32526 0.91981 0.98803 0.0
C2197 C 0.29306 0.94219 0.99617 0.0
N2198 N 0.36798 0.94996 1.00363 0.0
N2199 N 0.31315 0.95548 0.99655 0.0
H2200 H 0.8487 0.60967 0.76816 0.0
H2201 H 0.86036 0.74967 0.82745 0.0
H2202 H 0.90004 0.64945 0.82708 0.0
H2203 H 0.80238 0.70486 0.78141 0.0
H2204 H 0.87607 0.71468 0.82521 0.0
H2205 H 0.83283 0.64461 0.77042 0.0
C2206 C 0.85678 0.62567 0.78161 0.0
C2207 C 0.876 0.626 0.79747 0.0
C2208 C 0.85992 0.71241 0.81549 0.0
C2209 C 0.85757 0.66724 0.79998 0.0
C2210 C 0.85085 0.73265 0.81668 0.0
C2211 C 0.82977 0.73087 0.80457 0.0
C2212 C 0.84819 0.68966 0.80177 0.0
C2213 C 0.8186 0.70767 0.79115 0.0
C2214 C 0.84758 0.64582 0.78291 0.0
C2215 C 0.8853 0.64779 0.81441 0.0
N2216 N 0.82784 0.6884 0.79005 0.0
N2217 N 0.8762 0.66719 0.81507 0.0
H2218 H 0.84305 0.64169 0.02945 0.0
H2219 H 0.91253 0.56866 0.10689 0.0
H2220 H 0.82498 0.60925 0.09154 0.0
H2221 H 0.93081 0.59891 0.04369 0.0
H2222 H 0.88059 0.58381 0.10148 0.0
H2223 H 0.87517 0.62626 0.03401 0.0
C2224 C 0.84574 0.63121 0.04393 0.0
C2225 C 0.83118 0.62668 0.06003 0.0
C2226 C 0.89156 0.58718 0.08877 0.0
C2227 C 0.86804 0.60912 0.0655 0.0
C2228 C 0.90998 0.57868 0.09197 0.0
C2229 C 0.92462 0.58264 0.07586 0.0
C2230 C 0.88755 0.59977 0.06925 0.0
C2231 C 0.91998 0.59524 0.05649 0.0
C2232 C 0.86412 0.62245 0.04656 0.0
C2233 C 0.83564 0.61313 0.07858 0.0
N2234 N 0.90191 0.60338 0.05377 0.0
N2235 N 0.85362 0.6049 0.08081 0.0
H2236 H 0.22611 0.11472 0.85648 0.0
H2237 H 0.25595 0.23031 0.79788 0.0
H2238 H 0.17777 0.15149 0.83389 0.0
H2239 H 0.29754 0.22214 0.86251 0.0
H2240 H 0.22758 0.198 0.80592 0.0
H2241 H 0.2538 0.15077 0.85429 0.0
C2242 C 0.22139 0.13053 0.85142 0.0
C2243 C 0.19975 0.13038 0.84552 0.0
C2244 C 0.24286 0.20356 0.81847 0.0
C2245 C 0.23101 0.17093 0.84236 0.0
C2246 C 0.25891 0.2221 0.81406 0.0
C2247 C 0.27876 0.22933 0.83004 0.0
C2248 C 0.2471 0.19166 0.83841 0.0
C2249 C 0.28231 0.21716 0.84994 0.0
C2250 C 0.23711 0.15097 0.85021 0.0
C2251 C 0.19433 0.15112 0.83886 0.0
N2252 N 0.26663 0.19864 0.85345 0.0
N2253 N 0.20992 0.17053 0.83704 0.0
H2254 H 0.35943 0.98779 0.27126 0.0
H2255 H 0.33978 0.8809 0.35245 0.0
H2256 H 0.39562 0.99129 0.34369 0.0
H2257 H 0.32148 0.86537 0.27313 0.0
H2258 H 0.35593 0.9229 0.34993 0.0
H2259 H 0.34105 0.94528 0.27199 0.0
C2260 C 0.36325 0.97991 0.28752 0.0
C2261 C 0.37912 0.99357 0.30756 0.0
C2262 C 0.34844 0.91042 0.33298 0.0
C2263 C 0.35805 0.94449 0.30845 0.0
C2264 C 0.33912 0.88621 0.33439 0.0
C2265 C 0.32922 0.86908 0.31297 0.0
C2266 C 0.34775 0.91832 0.30998 0.0
C2267 C 0.32903 0.87762 0.29019 0.0
C2268 C 0.35289 0.95545 0.28779 0.0
C2269 C 0.38354 0.98182 0.32781 0.0
N2270 N 0.33797 0.90151 0.28932 0.0
N2271 N 0.37312 0.95836 0.32776 0.0
H2272 H 0.6276 0.38218 0.6282 0.0
H2273 H 0.54312 0.4573 0.59047 0.0
H2274 H 0.56453 0.3671 0.64648 0.0
H2275 H 0.61112 0.48731 0.59897 0.0
H2276 H 0.54995 0.42148 0.60581 0.0
H2277 H 0.62115 0.41824 0.61261 0.0
C2278 C 0.61236 0.38639 0.62886 0.0
C2279 C 0.59658 0.37159 0.6387 0.0
C2280 C 0.56339 0.43589 0.60434 0.0
C2281 C 0.58903 0.41268 0.6206 0.0
C2282 C 0.55953 0.45632 0.59543 0.0
C2283 C 0.57663 0.47538 0.59345 0.0
C2284 C 0.5845 0.43424 0.61102 0.0
C2285 C 0.59751 0.47308 0.60032 0.0
C2286 C 0.60874 0.40703 0.62005 0.0
C2287 C 0.57717 0.37803 0.63917 0.0
N2288 N 0.60088 0.45282 0.6087 0.0
N2289 N 0.57389 0.39799 0.63009 0.0
H2290 H 0.46584 0.82017 0.39748 0.0
H2291 H 0.34351 0.74551 0.35498 0.0
H2292 H 0.44206 0.74788 0.41137 0.0
H2293 H 0.36337 0.82261 0.35851 0.0
H2294 H 0.37984 0.74582 0.37394 0.0
H2295 H 0.42915 0.82104 0.38089 0.0
C2296 C 0.45294 0.80438 0.39688 0.0
C2297 C 0.45715 0.78384 0.40578 0.0
C2298 C 0.37628 0.76275 0.37087 0.0
C2299 C 0.41493 0.78482 0.38682 0.0
C2300 C 0.35549 0.76259 0.36013 0.0
C2301 C 0.35032 0.78407 0.35536 0.0
C2302 C 0.39231 0.78452 0.37662 0.0
C2303 C 0.36657 0.80566 0.36215 0.0
C2304 C 0.43195 0.80499 0.38755 0.0
C2305 C 0.43968 0.76407 0.40469 0.0
N2306 N 0.38688 0.80531 0.37221 0.0
N2307 N 0.41943 0.76503 0.39533 0.0
H2308 H 0.10198 0.74928 0.11661 0.0
H2309 H 0.03104 0.61393 0.10342 0.0
H2310 H 0.04325 0.72942 0.14434 0.0
H2311 H 0.09652 0.63008 0.09234 0.0
H2312 H 0.03379 0.65686 0.113 0.0
H2313 H 0.09847 0.70634 0.10161 0.0
C2314 C 0.08809 0.73595 0.11896 0.0
C2315 C 0.07281 0.74287 0.13161 0.0
C2316 C 0.04756 0.65108 0.10839 0.0
C2317 C 0.06888 0.694 0.11489 0.0
C2318 C 0.046 0.6265 0.10283 0.0
C2319 C 0.06356 0.61833 0.09698 0.0
C2320 C 0.06679 0.66781 0.10799 0.0
C2321 C 0.08257 0.63559 0.09675 0.0
C2322 C 0.08625 0.71149 0.1107 0.0
C2323 C 0.05537 0.72487 0.13465 0.0
N2324 N 0.08369 0.65958 0.10217 0.0
N2325 N 0.05392 0.70131 0.12642 0.0
H2326 H 0.09354 0.29849 0.93769 0.0
H2327 H 0.14738 0.24916 0.8278 0.0
H2328 H 0.06109 0.23899 0.87916 0.0
H2329 H 0.18261 0.30515 0.88858 0.0
H2330 H 0.11559 0.24604 0.84629 0.0
H2331 H 0.12612 0.30208 0.91996 0.0
C2332 C 0.0932 0.28629 0.92103 0.0
C2333 C 0.07447 0.2685 0.90984 0.0
C2334 C 0.13026 0.25897 0.85569 0.0
C2335 C 0.11176 0.27242 0.88953 0.0
C2336 C 0.14847 0.26088 0.84504 0.0
C2337 C 0.16778 0.27763 0.85647 0.0
C2338 C 0.13117 0.27385 0.8781 0.0
C2339 C 0.16817 0.29188 0.87913 0.0
C2340 C 0.11185 0.28828 0.91099 0.0
C2341 C 0.07508 0.25304 0.88842 0.0
N2342 N 0.15013 0.28975 0.88914 0.0
N2343 N 0.09335 0.25539 0.87899 0.0
H2344 H 0.54212 0.78652 0.99927 0.0
H2345 H 0.50747 0.64631 0.97942 0.0
H2346 H 0.5093 0.74476 0.92832 0.0
H2347 H 0.52017 0.6918 0.05083 0.0
H2348 H 0.50426 0.68126 0.9598 0.0
H2349 H 0.53087 0.75145 0.01855 0.0
C2350 C 0.53233 0.76989 0.98784 0.0
C2351 C 0.52677 0.76815 0.96229 0.0
C2352 C 0.50702 0.6833 0.97976 0.0
C2353 C 0.51398 0.72805 0.98396 0.0
C2354 C 0.50895 0.66346 0.99092 0.0
C2355 C 0.51423 0.66628 0.01671 0.0
C2356 C 0.5106 0.70591 0.99464 0.0
C2357 C 0.51586 0.68873 0.03088 0.0
C2358 C 0.52575 0.74995 0.99882 0.0
C2359 C 0.51388 0.74652 0.94816 0.0
N2360 N 0.51439 0.7078 0.01961 0.0
N2361 N 0.5082 0.72697 0.95918 0.0
H2362 H 0.13265 0.77111 0.80275 0.0
H2363 H 0.23479 0.74574 0.75511 0.0
H2364 H 0.12912 0.74554 0.72538 0.0
H2365 H 0.23734 0.81001 0.80603 0.0
H2366 H 0.19544 0.73655 0.74817 0.0
H2367 H 0.1715 0.77567 0.80947 0.0
C2368 C 0.14003 0.76604 0.78736 0.0
C2369 C 0.12795 0.75805 0.76353 0.0
C2370 C 0.20482 0.75268 0.7607 0.0
C2371 C 0.17168 0.76294 0.77099 0.0
C2372 C 0.22711 0.75802 0.76451 0.0
C2373 C 0.23928 0.77884 0.78086 0.0
C2374 C 0.19494 0.76788 0.77396 0.0
C2375 C 0.22862 0.79398 0.79294 0.0
C2376 C 0.16205 0.76876 0.79112 0.0
C2377 C 0.1381 0.75191 0.74401 0.0
N2378 N 0.20703 0.78805 0.78946 0.0
N2379 N 0.15951 0.75445 0.74816 0.0
H2380 H 0.07217 0.40732 0.47812 0.0
H2381 H 1.0098 0.47705 0.56123 0.0
H2382 H 1.00832 0.37521 0.48875 0.0
H2383 H 0.07862 0.49467 0.57214 0.0
H2384 H 1.00834 0.44029 0.5328 0.0
H2385 H 0.07464 0.44091 0.51108 0.0
C2386 C 0.05876 0.40734 0.48745 0.0
C2387 C 0.04001 0.38868 0.48072 0.0
C2388 C 0.02376 0.45196 0.54182 0.0
C2389 C 0.04263 0.42667 0.518 0.0
C2390 C 0.02454 0.47277 0.55796 0.0
C2391 C 0.04433 0.48829 0.56905 0.0
C2392 C 0.04294 0.44721 0.53661 0.0
C2393 C 0.06312 0.48258 0.56416 0.0
C2394 C 0.06019 0.42635 0.50627 0.0
C2395 C 0.02308 0.38932 0.49341 0.0
N2396 N 0.06199 0.46249 0.54801 0.0
N2397 N 0.02471 0.40818 0.51134 0.0
H2398 H 0.51344 0.24223 0.31384 0.0
H2399 H 0.43695 0.32853 0.29166 0.0
H2400 H 0.52559 0.29942 0.27054 0.0
H2401 H 0.43695 0.28864 0.35231 0.0
H2402 H 0.46929 0.31738 0.28312 0.0
H2403 H 0.48509 0.25838 0.32807 0.0
C2404 C 0.51029 0.25832 0.30757 0.0
C2405 C 0.52174 0.26945 0.29095 0.0
C2406 C 0.46239 0.31128 0.29848 0.0
C2407 C 0.48945 0.2878 0.30691 0.0
C2408 C 0.44394 0.31751 0.30323 0.0
C2409 C 0.43444 0.30932 0.32258 0.0
C2410 C 0.47114 0.29648 0.31301 0.0
C2411 C 0.444 0.29529 0.33726 0.0
C2412 C 0.49419 0.26754 0.31572 0.0
C2413 C 0.5171 0.29024 0.28334 0.0
N2414 N 0.46181 0.28904 0.332 0.0
N2415 N 0.50112 0.29863 0.29122 0.0
H2416 H 0.6114 0.59593 0.41246 0.0
H2417 H 0.58616 0.49898 0.50024 0.0
H2418 H 0.63171 0.52972 0.40383 0.0
H2419 H 0.5912 0.57475 0.52281 0.0
H2420 H 0.60029 0.50844 0.46313 0.0
H2421 H 0.60055 0.58687 0.45113 0.0
C2422 C 0.61352 0.57944 0.41868 0.0
C2423 C 0.62245 0.56352 0.40494 0.0
C2424 C 0.59854 0.52299 0.4764 0.0
C2425 C 0.61005 0.55306 0.4491 0.0
C2426 C 0.59056 0.51761 0.49753 0.0
C2427 C 0.58762 0.53611 0.51453 0.0
C2428 C 0.60321 0.54695 0.47217 0.0
C2429 C 0.59337 0.55997 0.51019 0.0
C2430 C 0.60746 0.57437 0.44082 0.0
C2431 C 0.62494 0.54249 0.41392 0.0
N2432 N 0.60066 0.56468 0.48924 0.0
N2433 N 0.61862 0.53776 0.43541 0.0
H2434 H 0.29022 0.88873 0.09696 0.0
H2435 H 0.30787 0.77418 0.15247 0.0
H2436 H 0.25745 0.81516 0.06364 0.0
H2437 H 0.34153 0.84744 0.18562 0.0
H2438 H 0.29534 0.78846 0.11517 0.0
H2439 H 0.31345 0.87371 0.1261 0.0
C2440 C 0.28789 0.86939 0.09585 0.0
C2441 C 0.27179 0.8531 0.07811 0.0
C2442 C 0.30591 0.80138 0.13034 0.0
C2443 C 0.29844 0.83587 0.11106 0.0
C2444 C 0.31333 0.79319 0.15152 0.0
C2445 C 0.32551 0.80979 0.17215 0.0
C2446 C 0.31049 0.82629 0.13009 0.0
C2447 C 0.33184 0.83422 0.17013 0.0
C2448 C 0.30128 0.86084 0.11231 0.0
C2449 C 0.26951 0.82829 0.0773 0.0
N2450 N 0.32383 0.84186 0.14957 0.0
N2451 N 0.28268 0.82039 0.0937 0.0
H2452 H 1.00002 0.52812 0.87814 0.0
H2453 H 1.01154 0.55382 0.02702 0.0
H2454 H 0.96274 0.57021 0.91312 0.0
H2455 H 0.06077 0.53657 0.98987 0.0
H2456 H 0.99049 0.55514 0.98636 0.0
H2457 H 0.01942 0.52645 0.91908 0.0
C2458 C 0.99585 0.53707 0.89436 0.0
C2459 C 0.97963 0.54951 0.89173 0.0
C2460 C 1.00586 0.55096 0.98713 0.0
C2461 C 1.00187 0.54717 0.93956 0.0
C2462 C 0.01786 0.55003 1.01042 0.0
C2463 C 0.03811 0.545 0.01217 0.0
C2464 C 1.01387 0.54637 0.96516 0.0
C2465 C 0.04535 0.54053 0.98973 0.0
C2466 C 1.00701 0.53609 0.91791 0.0
C2467 C 0.97515 0.56058 0.9139 0.0
N2468 N 0.03336 0.54117 0.9675 0.0
N2469 N 0.98599 0.55903 0.93664 0.0
H2470 H 0.26389 0.23087 0.603 0.0
H2471 H 0.32875 0.25746 0.74144 0.0
H2472 H 0.31676 0.20095 0.62685 0.0
H2473 H 0.26476 0.26665 0.72382 0.0
H2474 H 0.32698 0.24232 0.69811 0.0
H2475 H 0.26669 0.25012 0.64582 0.0
C2476 C 0.27636 0.22877 0.61714 0.0
C2477 C 0.29016 0.21434 0.6114 0.0
C2478 C 0.31333 0.24769 0.70367 0.0
C2479 C 0.2933 0.23607 0.66018 0.0
C2480 C 0.31433 0.25644 0.72844 0.0
C2481 C 0.29687 0.26339 0.7363 0.0
C2482 C 0.29482 0.24607 0.68646 0.0
C2483 C 0.27857 0.26144 0.71856 0.0
C2484 C 0.27777 0.23952 0.64156 0.0
C2485 C 0.30579 0.2119 0.63047 0.0
N2486 N 0.27803 0.253 0.69437 0.0
N2487 N 0.30692 0.22263 0.65399 0.0
H2488 H 0.58864 0.54389 0.27459 0.0
H2489 H 0.60272 0.58107 0.14487 0.0
H2490 H 0.65045 0.5718 0.25615 0.0
H2491 H 0.55614 0.5156 0.14827 0.0
H2492 H 0.61618 0.58505 0.189 0.0
H2493 H 0.57222 0.53989 0.23073 0.0
C2494 C 0.59866 0.5492 0.26134 0.0
C2495 C 0.62086 0.55803 0.26877 0.0
C2496 C 0.60299 0.56985 0.18004 0.0
C2497 C 0.6024 0.55407 0.21949 0.0
C2498 C 0.59529 0.56756 0.15494 0.0
C2499 C 0.57849 0.54779 0.14296 0.0
C2500 C 0.59354 0.55254 0.19331 0.0
C2501 C 0.56934 0.53089 0.15688 0.0
C2502 C 0.58936 0.54683 0.2365 0.0
C2503 C 0.63328 0.56467 0.25106 0.0
N2504 N 0.57696 0.53368 0.18151 0.0
N2505 N 0.62385 0.56276 0.22726 0.0
H2506 H 0.22302 0.77993 0.96923 0.0
H2507 H 0.26372 0.81069 0.84859 0.0
H2508 H 0.21003 0.8379 0.93258 0.0
H2509 H 0.27875 0.75516 0.88817 0.0
H2510 H 0.23609 0.81404 0.87271 0.0
H2511 H 0.2324 0.76177 0.93179 0.0
C2512 C 0.22103 0.78811 0.95279 0.0
C2513 C 0.21636 0.81069 0.95399 0.0
C2514 C 0.24529 0.80099 0.87603 0.0
C2515 C 0.22809 0.79092 0.91184 0.0
C2516 C 0.26126 0.7993 0.86252 0.0
C2517 C 0.27366 0.78286 0.86677 0.0
C2518 C 0.24194 0.78638 0.89414 0.0
C2519 C 0.26971 0.76833 0.88471 0.0
C2520 C 0.22675 0.77799 0.93155 0.0
C2521 C 0.21387 0.8206 0.93235 0.0
N2522 N 0.25425 0.77058 0.89793 0.0
N2523 N 0.2206 0.8111 0.91229 0.0
H2524 H 0.98744 0.55898 0.76966 0.0
H2525 H 0.97668 0.54554 0.62058 0.0
H2526 H 0.93029 0.56333 0.7225 0.0
H2527 H 0.03656 0.55701 0.67049 0.0
H2528 H 0.95876 0.5492 0.65654 0.0
H2529 H 1.00467 0.55579 0.73342 0.0
C2530 C 0.97841 0.55941 0.75178 0.0
C2531 C 0.95716 0.56168 0.74974 0.0
C2532 C 0.97582 0.55085 0.65967 0.0
C2533 C 0.9772 0.55749 0.70706 0.0
C2534 C 0.98614 0.54862 0.63897 0.0
C2535 C 1.0084 0.55081 0.642 0.0
C2536 C 0.98759 0.55506 0.68403 0.0
C2537 C 0.01947 0.55508 0.66674 0.0
C2538 C 0.98838 0.55752 0.73088 0.0
C2539 C 0.94665 0.56187 0.72552 0.0
N2540 N 1.00908 0.55692 0.68642 0.0
N2541 N 0.95662 0.5597 0.70543 0.0
H2542 H 0.29087 0.19155 0.4602 0.0
H2543 H 0.28566 0.30824 0.39893 0.0
H2544 H 0.25941 0.24458 0.48803 0.0
H2545 H 0.29139 0.2424 0.35731 0.0
H2546 H 0.27972 0.28703 0.43387 0.0
H2547 H 0.29532 0.2119 0.42436 0.0
C2548 C 0.28498 0.2075 0.45882 0.0
C2549 C 0.27474 0.21636 0.47713 0.0
C2550 C 0.28211 0.27719 0.41702 0.0
C2551 C 0.27992 0.23979 0.43636 0.0
C2552 C 0.28547 0.28927 0.39711 0.0
C2553 C 0.28887 0.27701 0.37523 0.0
C2554 C 0.28259 0.25281 0.41517 0.0
C2555 C 0.28863 0.25246 0.37382 0.0
C2556 C 0.28742 0.21901 0.43833 0.0
C2557 C 0.26733 0.23706 0.47433 0.0
N2558 N 0.28576 0.24121 0.39362 0.0
N2559 N 0.27019 0.24814 0.45445 0.0
H2560 H 0.37963 0.60406 0.60623 0.0
H2561 H 0.47163 0.59569 0.53813 0.0
H2562 H 0.40962 0.66695 0.57767 0.0
H2563 H 0.41469 0.53676 0.52481 0.0
H2564 H 0.45123 0.62303 0.55326 0.0
H2565 H 0.395 0.57925 0.57894 0.0
C2566 C 0.38953 0.61262 0.5942 0.0
C2567 C 0.39361 0.6375 0.59421 0.0
C2568 C 0.44315 0.60423 0.54637 0.0
C2569 C 0.41103 0.60934 0.56304 0.0
C2570 C 0.4547 0.58859 0.53758 0.0
C2571 C 0.44488 0.56378 0.53049 0.0
C2572 C 0.42191 0.59483 0.54851 0.0
C2573 C 0.423 0.55562 0.53069 0.0
C2574 C 0.39802 0.59844 0.57845 0.0
C2575 C 0.40624 0.64775 0.5781 0.0
N2576 N 0.41233 0.57104 0.54017 0.0
N2577 N 0.4149 0.63359 0.5633 0.0
H2578 H 0.90823 0.92419 0.58114 0.0
H2579 H 0.98232 0.05621 0.58276 0.0
H2580 H 0.89062 0.99029 0.60327 0.0
H2581 H 1.00315 0.99122 0.56679 0.0
H2582 H 0.94839 0.03201 0.58931 0.0
H2583 H 0.94267 0.94793 0.57519 0.0
C2584 C 0.91159 0.94371 0.58485 0.0
C2585 C 0.89638 0.95522 0.59271 0.0
C2586 C 0.96032 0.02294 0.58434 0.0
C2587 C 0.93595 0.98259 0.58574 0.0
C2588 C 0.97973 0.03677 0.58052 0.0
C2589 C 0.99564 0.02574 0.57411 0.0
C2590 C 0.95659 0.99772 0.58171 0.0
C2591 C 0.99134 1.00048 0.57157 0.0
C2592 C 0.93131 0.95726 0.58141 0.0
C2593 C 0.90177 0.98058 0.59722 0.0
N2594 N 0.97223 0.98731 0.57535 0.0
N2595 N 0.92103 0.99335 0.59359 0.0
H2596 H 0.89316 0.05982 0.23533 0.0
H2597 H 0.85656 0.1568 0.32174 0.0
H2598 H 0.91722 0.07812 0.31397 0.0
H2599 H 0.84823 0.15095 0.2424 0.0
H2600 H 0.87774 0.12692 0.31987 0.0
H2601 H 0.87508 0.09213 0.2381 0.0
C2602 C 0.89465 0.0707 0.25321 0.0
C2603 C 0.90663 0.06636 0.27451 0.0
C2604 C 0.87147 0.13244 0.30295 0.0
C2605 C 0.88605 0.1033 0.27776 0.0
C2606 C 0.85938 0.14932 0.304 0.0
C2607 C 0.85078 0.1562 0.28218 0.0
C2608 C 0.87469 0.12236 0.27991 0.0
C2609 C 0.85485 0.14625 0.25963 0.0
C2610 C 0.88442 0.0892 0.25474 0.0
C2611 C 0.90813 0.081 0.29715 0.0
N2612 N 0.86644 0.12964 0.25906 0.0
N2613 N 0.8978 0.09885 0.29823 0.0
H2614 H 0.77865 0.18971 0.14172 0.0
H2615 H 0.69402 0.06246 0.12241 0.0
H2616 H 0.79471 0.12336 0.11619 0.0
H2617 H 0.67764 0.1295 0.11316 0.0
H2618 H 0.73218 0.08374 0.12884 0.0
H2619 H 0.74245 0.16665 0.14171 0.0
C2620 C 0.77467 0.17025 0.13649 0.0
C2621 C 0.78959 0.15843 0.12865 0.0
C2622 C 0.72013 0.09364 0.12532 0.0
C2623 C 0.74827 0.13211 0.12843 0.0
C2624 C 0.69853 0.08159 0.12162 0.0
C2625 C 0.68291 0.09431 0.11694 0.0
C2626 C 0.72585 0.11854 0.12492 0.0
C2627 C 0.68931 0.11905 0.11629 0.0
C2628 C 0.754 0.15716 0.13634 0.0
C2629 C 0.78359 0.13316 0.12219 0.0
N2630 N 0.71034 0.13042 0.12037 0.0
N2631 N 0.76322 0.12076 0.12201 0.0
H2632 H 0.19797 0.43808 0.33835 0.0
H2633 H 0.29825 0.3825 0.31686 0.0
H2634 H 0.24757 0.47372 0.30285 0.0
H2635 H 0.23718 0.33662 0.32056 0.0
H2636 H 0.28215 0.41714 0.31714 0.0
H2637 H 0.21364 0.40295 0.33737 0.0
C2638 C 0.21222 0.43876 0.33043 0.0
C2639 C 0.22117 0.4595 0.32065 0.0
C2640 C 0.27218 0.39957 0.31793 0.0
C2641 C 0.2399 0.41844 0.31991 0.0
C2642 C 0.28145 0.37952 0.31788 0.0
C2643 C 0.26933 0.35597 0.31868 0.0
C2644 C 0.25039 0.39683 0.31942 0.0
C2645 C 0.24747 0.35403 0.31985 0.0
C2646 C 0.22119 0.41842 0.32981 0.0
C2647 C 0.23976 0.45853 0.31061 0.0
N2648 N 0.23894 0.37391 0.32042 0.0
N2649 N 0.24845 0.43881 0.31076 0.0
H2650 H 0.2677 0.43902 0.06144 0.0
H2651 H 0.20172 0.52091 0.12762 0.0
H2652 H 0.29033 0.48254 0.13387 0.0
H2653 H 0.18298 0.48734 0.05099 0.0
H2654 H 0.23343 0.50525 0.13056 0.0
H2655 H 0.23587 0.45496 0.05746 0.0
C2656 C 0.26603 0.45198 0.07645 0.0
C2657 C 0.28178 0.45953 0.09797 0.0
C2658 C 0.22242 0.50129 0.11306 0.0
C2659 C 0.24534 0.47767 0.09362 0.0
C2660 C 0.20419 0.51009 0.11142 0.0
C2661 C 0.18952 0.50527 0.08906 0.0
C2662 C 0.22612 0.48746 0.09223 0.0
C2663 C 0.19389 0.49159 0.06856 0.0
C2664 C 0.24787 0.46107 0.07417 0.0
C2665 C 0.2787 0.47628 0.11688 0.0
N2666 N 0.21175 0.48307 0.07066 0.0
N2667 N 0.26085 0.4847 0.11429 0.0
H2668 H 0.87929 0.9517 0.25243 0.0
H2669 H 0.84274 0.85134 0.33279 0.0
H2670 H 0.92363 0.931 0.30628 0.0
H2671 H 0.80532 0.85356 0.26262 0.0
H2672 H 0.87193 0.8825 0.32492 0.0
H2673 H 0.85108 0.91766 0.25733 0.0
C2674 C 0.88315 0.93982 0.26507 0.0
C2675 C 0.90383 0.94406 0.27892 0.0
C2676 C 0.85741 0.87604 0.31114 0.0
C2677 C 0.87167 0.90545 0.28475 0.0
C2678 C 0.84084 0.85818 0.31554 0.0
C2679 C 0.82192 0.84958 0.29801 0.0
C2680 C 0.85474 0.88579 0.28936 0.0
C2681 C 0.8198 0.8597 0.27646 0.0
C2682 C 0.86706 0.92043 0.26782 0.0
C2683 C 0.90794 0.92824 0.29511 0.0
N2684 N 0.83606 0.87745 0.27274 0.0
N2685 N 0.8919 0.90969 0.29775 0.0
H2686 H 0.73774 0.08641 0.81386 0.0
H2687 H 0.76198 0.22922 0.86716 0.0
H2688 H 0.70536 0.11502 0.86823 0.0
H2689 H 0.78039 0.20232 0.79984 0.0
H2690 H 0.74416 0.18754 0.87034 0.0
H2691 H 0.75653 0.12799 0.81128 0.0
C2692 C 0.73477 0.10129 0.8256 0.0
C2693 C 0.71986 0.09671 0.84148 0.0
C2694 C 0.7521 0.19069 0.85485 0.0
C2695 C 0.74158 0.14511 0.83846 0.0
C2696 C 0.76237 0.21464 0.85302 0.0
C2697 C 0.77282 0.21972 0.83314 0.0
C2698 C 0.75241 0.17117 0.83693 0.0
C2699 C 0.77254 0.19964 0.81547 0.0
C2700 C 0.74544 0.12519 0.82393 0.0
C2701 C 0.71666 0.11723 0.85578 0.0
N2702 N 0.76272 0.17652 0.81785 0.0
N2703 N 0.72736 0.1402 0.854 0.0
loop_
_geom_bond_atom_site_label_1
_geom_bond_atom_site_label_2
_geom_bond_distance
_geom_bond_site_symmetry_2
_ccdc_geom_bond_type
O0 Cd1 2.223 1_655 S
O0 C8 1.315 . S
Cd1 O0 2.223 1_455 S
Cd1 O4 2.297 . S
Cd1 O5 2.439 . S
Cd1 O11 2.240 1_455 S
Cd2 O3 2.240 1_655 S
Cd2 O10 2.223 . S
Cd2 O12 2.297 . S
Cd2 O13 2.439 1_655 S
O3 Cd2 2.240 1_455 S
O3 C8 1.279 1_455 S
O4 Cd1 2.297 . S
O4 C6 1.247 . S
O5 Cd1 2.439 . S
O5 C6 1.208 . S
C6 O4 1.247 . S
C6 O5 1.208 . S
C7 O12 1.247 1_455 S
C7 O13 1.208 . S
C8 O0 1.315 . S
C8 O3 1.279 1_655 S
C9 O10 1.315 . S
C9 O11 1.279 . S
O10 Cd2 2.223 . S
O10 C9 1.315 . S
O11 Cd1 2.240 1_655 S
O11 C9 1.279 . S
O12 Cd2 2.297 . S
O12 C7 1.247 1_655 S
O13 Cd2 2.439 1_455 S
O13 C7 1.208 . S
O14 Cd15 2.223 . S
O14 C22 1.315 . S
Cd15 O14 2.223 . S
Cd15 O18 2.297 . S
Cd15 O19 2.439 . S
Cd15 O25 2.240 . S
Cd16 O17 2.240 . S
Cd16 O24 2.223 . S
Cd16 O26 2.297 . S
Cd16 O27 2.439 . S
O17 Cd16 2.240 . S
O17 C22 1.279 . S
O18 Cd15 2.297 . S
O18 C20 1.247 . S
O19 Cd15 2.439 . S
O19 C20 1.208 . S
C20 O18 1.247 . S
C20 O19 1.208 . S
C21 O26 1.247 . S
C21 O27 1.208 . S
C22 O14 1.315 . S
C22 O17 1.279 . S
C23 O24 1.315 . S
C23 O25 1.279 . S
O24 Cd16 2.223 . S
O24 C23 1.315 . S
O25 Cd15 2.240 . S
O25 C23 1.279 . S
O26 Cd16 2.297 . S
O26 C21 1.247 . S
O27 Cd16 2.439 . S
O27 C21 1.208 . S
O28 Cd29 2.223 . S
O28 C36 1.315 . S
Cd29 O28 2.223 . S
Cd29 O32 2.297 . S
Cd29 O33 2.439 . S
Cd29 O39 2.240 . S
Cd30 O31 2.240 . S
Cd30 O38 2.223 . S
Cd30 O40 2.297 . S
Cd30 O41 2.439 . S
O31 Cd30 2.240 . S
O31 C36 1.279 . S
O32 Cd29 2.297 . S
O32 C34 1.247 . S
O33 Cd29 2.439 . S
O33 C34 1.208 . S
C34 O32 1.247 . S
C34 O33 1.208 . S
C35 O40 1.247 . S
C35 O41 1.208 . S
C36 O28 1.315 . S
C36 O31 1.279 . S
C37 O38 1.315 . S
C37 O39 1.279 . S
O38 Cd30 2.223 . S
O38 C37 1.315 . S
O39 Cd29 2.240 . S
O39 C37 1.279 . S
O40 Cd30 2.297 . S
O40 C35 1.247 . S
O41 Cd30 2.439 . S
O41 C35 1.208 . S
O42 Cd43 2.223 . S
O42 C50 1.315 . S
Cd43 O42 2.223 . S
Cd43 O46 2.297 . S
Cd43 O47 2.439 . S
Cd43 O53 2.240 . S
Cd44 O45 2.240 . S
Cd44 O52 2.223 . S
Cd44 O54 2.297 . S
Cd44 O55 2.439 . S
O45 Cd44 2.240 . S
O45 C50 1.279 . S
O46 Cd43 2.297 . S
O46 C48 1.247 . S
O47 Cd43 2.439 . S
O47 C48 1.208 . S
C48 O46 1.247 . S
C48 O47 1.208 . S
C49 O54 1.247 . S
C49 O55 1.208 . S
C50 O42 1.315 . S
C50 O45 1.279 . S
C51 O52 1.315 . S
C51 O53 1.279 . S
O52 Cd44 2.223 . S
O52 C51 1.315 . S
O53 Cd43 2.240 . S
O53 C51 1.279 . S
O54 Cd44 2.297 . S
O54 C49 1.247 . S
O55 Cd44 2.439 . S
O55 C49 1.208 . S
O56 Cd57 2.223 . S
O56 C64 1.315 . S
Cd57 O56 2.223 . S
Cd57 O60 2.297 . S
Cd57 O61 2.439 . S
Cd57 O67 2.240 . S
Cd58 O59 2.240 . S
Cd58 O66 2.223 . S
Cd58 O68 2.297 . S
Cd58 O69 2.439 . S
O59 Cd58 2.240 . S
O59 C64 1.279 . S
O60 Cd57 2.297 . S
O60 C62 1.247 . S
O61 Cd57 2.439 . S
O61 C62 1.208 . S
C62 O60 1.247 . S
C62 O61 1.208 . S
C63 O68 1.247 . S
C63 O69 1.208 . S
C64 O56 1.315 . S
C64 O59 1.279 . S
C65 O66 1.315 . S
C65 O67 1.279 . S
O66 Cd58 2.223 . S
O66 C65 1.315 . S
O67 Cd57 2.240 . S
O67 C65 1.279 . S
O68 Cd58 2.297 . S
O68 C63 1.247 . S
O69 Cd58 2.439 . S
O69 C63 1.208 . S
O70 Cd71 2.223 . S
O70 C78 1.315 . S
Cd71 O70 2.223 . S
Cd71 O74 2.297 . S
Cd71 O75 2.439 . S
Cd71 O81 2.240 . S
Cd72 O73 2.240 . S
Cd72 O80 2.223 . S
Cd72 O82 2.297 . S
Cd72 O83 2.439 . S
O73 Cd72 2.240 . S
O73 C78 1.279 . S
O74 Cd71 2.297 . S
O74 C76 1.247 . S
O75 Cd71 2.439 . S
O75 C76 1.208 . S
C76 O74 1.247 . S
C76 O75 1.208 . S
C77 O82 1.247 . S
C77 O83 1.208 . S
C78 O70 1.315 . S
C78 O73 1.279 . S
C79 O80 1.315 . S
C79 O81 1.279 . S
O80 Cd72 2.223 . S
O80 C79 1.315 . S
O81 Cd71 2.240 . S
O81 C79 1.279 . S
O82 Cd72 2.297 . S
O82 C77 1.247 . S
O83 Cd72 2.439 . S
O83 C77 1.208 . S
O84 Cd85 2.223 . S
O84 C92 1.315 . S
Cd85 O84 2.223 . S
Cd85 O88 2.297 . S
Cd85 O89 2.439 . S
Cd85 O95 2.240 . S
Cd86 O87 2.240 . S
Cd86 O94 2.223 . S
Cd86 O96 2.297 . S
Cd86 O97 2.439 . S
O87 Cd86 2.240 . S
O87 C92 1.279 . S
O88 Cd85 2.297 . S
O88 C90 1.247 . S
O89 Cd85 2.439 . S
O89 C90 1.208 . S
C90 O88 1.247 . S
C90 O89 1.208 . S
C91 O96 1.247 . S
C91 O97 1.208 . S
C92 O84 1.315 . S
C92 O87 1.279 . S
C93 O94 1.315 . S
C93 O95 1.279 . S
O94 Cd86 2.223 . S
O94 C93 1.315 . S
O95 Cd85 2.240 . S
O95 C93 1.279 . S
O96 Cd86 2.297 . S
O96 C91 1.247 . S
O97 Cd86 2.439 . S
O97 C91 1.208 . S
O98 Cd99 2.223 . S
O98 C106 1.315 . S
Cd99 O98 2.223 . S
Cd99 O102 2.297 . S
Cd99 O103 2.439 . S
Cd99 O109 2.240 1_455 S
Cd100 O101 2.240 . S
Cd100 O108 2.223 1_455 S
Cd100 O110 2.300 . S
Cd100 O111 2.439 . S
O101 Cd100 2.240 . S
O101 C106 1.279 . S
O102 Cd99 2.297 . S
O102 C104 1.247 . S
O103 Cd99 2.439 . S
O103 C104 1.208 . S
C104 O102 1.247 . S
C104 O103 1.208 . S
C105 O110 1.252 . S
C105 O111 1.208 . S
C106 O98 1.315 . S
C106 O101 1.279 . S
C107 O108 1.315 . S
C107 O109 1.279 . S
O108 Cd100 2.223 1_655 S
O108 C107 1.315 . S
O109 Cd99 2.240 1_655 S
O109 C107 1.279 . S
O110 Cd100 2.300 . S
O110 C105 1.252 . S
O111 Cd100 2.439 . S
O111 C105 1.208 . S
O112 Cd113 2.223 . S
O112 C120 1.315 . S
Cd113 O112 2.223 . S
Cd113 O116 2.297 . S
Cd113 O117 2.439 . S
Cd113 O123 2.240 . S
Cd114 O115 2.240 . S
Cd114 O122 2.223 1_545 S
Cd114 O124 2.297 . S
Cd114 O125 2.439 . S
O115 Cd114 2.240 . S
O115 C120 1.279 . S
O116 Cd113 2.297 . S
O116 C118 1.247 . S
O117 Cd113 2.439 . S
O117 C118 1.208 . S
C118 O116 1.247 . S
C118 O117 1.208 . S
C119 O124 1.247 . S
C119 O125 1.208 . S
C120 O112 1.315 . S
C120 O115 1.279 . S
C121 O122 1.315 . S
C121 O123 1.279 1_565 S
O122 Cd114 2.223 1_565 S
O122 C121 1.315 . S
O123 Cd113 2.240 . S
O123 C121 1.279 1_545 S
O124 Cd114 2.297 . S
O124 C119 1.247 . S
O125 Cd114 2.439 . S
O125 C119 1.208 . S
O126 Cd127 2.223 . S
O126 C134 1.315 . S
Cd127 O126 2.223 . S
Cd127 O130 2.297 . S
Cd127 O131 2.439 . S
Cd127 O137 2.240 . S
Cd128 O129 2.240 . S
Cd128 O136 2.223 . S
Cd128 O138 2.297 . S
Cd128 O139 2.439 . S
O129 Cd128 2.240 . S
O129 C134 1.279 . S
O130 Cd127 2.297 . S
O130 C132 1.247 . S
O131 Cd127 2.439 . S
O131 C132 1.208 . S
C132 O130 1.247 . S
C132 O131 1.208 . S
C133 O138 1.247 . S
C133 O139 1.208 . S
C134 O126 1.315 . S
C134 O129 1.279 . S
C135 O136 1.315 . S
C135 O137 1.279 . S
O136 Cd128 2.223 . S
O136 C135 1.315 . S
O137 Cd127 2.240 . S
O137 C135 1.279 . S
O138 Cd128 2.297 . S
O138 C133 1.247 . S
O139 Cd128 2.439 . S
O139 C133 1.208 . S
O140 Cd141 2.223 . S
O140 C148 1.315 . S
Cd141 O140 2.223 . S
Cd141 O144 2.297 1_545 S
Cd141 O145 2.439 1_545 S
Cd141 O151 2.240 . S
Cd142 O143 2.240 . S
Cd142 O150 2.223 . S
Cd142 O152 2.297 . S
Cd142 O153 2.439 . S
O143 Cd142 2.240 . S
O143 C148 1.279 . S
O144 Cd141 2.297 1_565 S
O144 C146 1.247 . S
O145 Cd141 2.439 1_565 S
O145 C146 1.208 . S
C146 O144 1.247 . S
C146 O145 1.208 . S
C147 O152 1.247 . S
C147 O153 1.208 . S
C148 O140 1.315 . S
C148 O143 1.279 . S
C149 O150 1.315 . S
C149 O151 1.279 . S
O150 Cd142 2.223 . S
O150 C149 1.315 . S
O151 Cd141 2.240 . S
O151 C149 1.279 . S
O152 Cd142 2.297 . S
O152 C147 1.247 . S
O153 Cd142 2.439 . S
O153 C147 1.208 . S
O154 Cd155 2.223 . S
O154 C162 1.315 . S
Cd155 O154 2.223 . S
Cd155 O158 2.297 . S
Cd155 O159 2.439 1_554 S
Cd155 O165 2.218 1_554 S
Cd156 O157 2.240 1_556 S
Cd156 O164 2.223 1_556 S
Cd156 O166 2.297 . S
Cd156 O167 2.439 . S
O157 Cd156 2.240 1_554 S
O157 C162 1.279 . S
O158 Cd155 2.297 . S
O158 C160 1.247 . S
O159 Cd155 2.439 1_556 S
O159 C160 1.208 1_556 S
C160 O158 1.247 . S
C160 O159 1.208 1_554 S
C161 O166 1.247 . S
C161 O167 1.208 . S
C162 O154 1.315 . S
C162 O157 1.279 . S
C163 O164 1.315 . S
C163 O165 1.268 1_554 S
O164 Cd156 2.223 1_554 S
O164 C163 1.315 . S
O165 Cd155 2.218 1_556 S
O165 C163 1.268 1_556 S
O166 Cd156 2.297 . S
O166 C161 1.247 . S
O167 Cd156 2.439 . S
O167 C161 1.208 . S
O168 Cd169 2.223 . S
O168 C176 1.315 . S
Cd169 O168 2.223 . S
Cd169 O172 2.297 . S
Cd169 O173 2.439 . S
Cd169 O179 2.240 . S
Cd170 O171 2.240 . S
Cd170 O178 2.223 . S
Cd170 O180 2.297 . S
Cd170 O181 2.439 . S
O171 Cd170 2.240 . S
O171 C176 1.279 . S
O172 Cd169 2.297 . S
O172 C174 1.247 . S
O173 Cd169 2.439 . S
O173 C174 1.208 . S
C174 O172 1.247 . S
C174 O173 1.208 . S
C175 O180 1.247 . S
C175 O181 1.208 . S
C176 O168 1.315 . S
C176 O171 1.279 . S
C177 O178 1.315 . S
C177 O179 1.279 . S
O178 Cd170 2.223 . S
O178 C177 1.315 . S
O179 Cd169 2.240 . S
O179 C177 1.279 . S
O180 Cd170 2.297 . S
O180 C175 1.247 . S
O181 Cd170 2.439 . S
O181 C175 1.208 . S
O182 Cd183 2.223 . S
O182 C190 1.315 . S
Cd183 O182 2.223 . S
Cd183 O186 2.297 . S
Cd183 O187 2.439 . S
Cd183 O193 2.240 . S
Cd184 O185 2.240 . S
Cd184 O192 2.223 . S
Cd184 O194 2.297 . S
Cd184 O195 2.439 . S
O185 Cd184 2.240 . S
O185 C190 1.279 . S
O186 Cd183 2.297 . S
O186 C188 1.247 . S
O187 Cd183 2.439 . S
O187 C188 1.208 . S
C188 O186 1.247 . S
C188 O187 1.208 . S
C189 O194 1.247 . S
C189 O195 1.208 . S
C190 O182 1.315 . S
C190 O185 1.279 . S
C191 O192 1.315 . S
C191 O193 1.279 . S
O192 Cd184 2.223 . S
O192 C191 1.315 . S
O193 Cd183 2.240 . S
O193 C191 1.279 . S
O194 Cd184 2.297 . S
O194 C189 1.247 . S
O195 Cd184 2.439 . S
O195 C189 1.208 . S
O196 Cd197 2.223 . S
O196 C204 1.315 . S
Cd197 O196 2.223 . S
Cd197 O200 2.297 . S
Cd197 O201 2.439 . S
Cd197 O207 2.240 . S
Cd198 O199 2.240 . S
Cd198 O206 2.223 . S
Cd198 O208 2.297 . S
Cd198 O209 2.439 . S
O199 Cd198 2.240 . S
O199 C204 1.279 . S
O200 Cd197 2.297 . S
O200 C202 1.247 . S
O201 Cd197 2.439 . S
O201 C202 1.208 . S
C202 O200 1.247 . S
C202 O201 1.208 . S
C203 O208 1.247 . S
C203 O209 1.208 . S
C204 O196 1.315 . S
C204 O199 1.279 . S
C205 O206 1.315 . S
C205 O207 1.279 . S
O206 Cd198 2.223 . S
O206 C205 1.315 . S
O207 Cd197 2.240 . S
O207 C205 1.279 . S
O208 Cd198 2.297 . S
O208 C203 1.247 . S
O209 Cd198 2.439 . S
O209 C203 1.208 . S
O210 Cd211 2.223 . S
O210 C218 1.315 . S
Cd211 O210 2.223 . S
Cd211 O214 2.297 . S
Cd211 O215 2.439 . S
Cd211 O221 2.240 . S
Cd212 O213 2.240 . S
Cd212 O220 2.223 . S
Cd212 O222 2.297 . S
Cd212 O223 2.439 . S
O213 Cd212 2.240 . S
O213 C218 1.279 . S
O214 Cd211 2.297 . S
O214 C216 1.247 . S
O215 Cd211 2.439 . S
O215 C216 1.208 . S
C216 O214 1.247 . S
C216 O215 1.208 . S
C217 O222 1.247 . S
C217 O223 1.208 . S
C218 O210 1.315 . S
C218 O213 1.279 . S
C219 O220 1.315 . S
C219 O221 1.279 . S
O220 Cd212 2.223 . S
O220 C219 1.315 . S
O221 Cd211 2.240 . S
O221 C219 1.279 . S
O222 Cd212 2.297 . S
O222 C217 1.247 . S
O223 Cd212 2.439 . S
O223 C217 1.208 . S
O224 Cd225 2.230 . S
O224 C232 1.315 . S
Cd225 O224 2.230 . S
Cd225 O228 2.272 1_565 S
Cd225 O229 2.418 1_565 S
Cd225 O235 2.263 . S
Cd226 O227 2.240 1_565 S
Cd226 O234 2.223 . S
Cd226 O236 2.297 . S
Cd226 O237 2.439 1_565 S
O227 Cd226 2.240 1_545 S
O227 C232 1.279 1_545 S
O228 Cd225 2.272 1_545 S
O228 C230 1.247 . S
O229 Cd225 2.418 1_545 S
O229 C230 1.208 . S
C230 O228 1.247 . S
C230 O229 1.208 . S
C231 O236 1.207 1_545 S
C231 O237 1.249 . S
C232 O224 1.315 . S
C232 O227 1.279 1_565 S
C233 O234 1.315 . S
C233 O235 1.279 . S
O234 Cd226 2.223 . S
O234 C233 1.315 . S
O235 Cd225 2.263 . S
O235 C233 1.279 . S
O236 Cd226 2.297 . S
O236 C231 1.207 1_565 S
O237 Cd226 2.439 1_545 S
O237 C231 1.249 . S
O238 Cd239 2.223 . S
O238 C246 1.315 . S
Cd239 O238 2.223 . S
Cd239 O242 2.297 . S
Cd239 O243 2.439 . S
Cd239 O249 2.240 . S
Cd240 O241 2.240 . S
Cd240 O248 2.223 . S
Cd240 O250 2.297 . S
Cd240 O251 2.439 . S
O241 Cd240 2.240 . S
O241 C246 1.279 . S
O242 Cd239 2.297 . S
O242 C244 1.247 . S
O243 Cd239 2.439 . S
O243 C244 1.208 . S
C244 O242 1.247 . S
C244 O243 1.208 . S
C245 O250 1.247 . S
C245 O251 1.208 . S
C246 O238 1.315 . S
C246 O241 1.279 . S
C247 O248 1.315 . S
C247 O249 1.279 . S
O248 Cd240 2.223 . S
O248 C247 1.315 . S
O249 Cd239 2.240 . S
O249 C247 1.279 . S
O250 Cd240 2.297 . S
O250 C245 1.247 . S
O251 Cd240 2.439 . S
O251 C245 1.208 . S
O252 Cd253 2.223 . S
O252 C260 1.315 . S
Cd253 O252 2.223 . S
Cd253 O256 2.297 . S
Cd253 O257 2.439 . S
Cd253 O263 2.240 . S
Cd254 O255 2.240 . S
Cd254 O262 2.223 . S
Cd254 O264 2.297 . S
Cd254 O265 2.439 . S
O255 Cd254 2.240 . S
O255 C260 1.279 . S
O256 Cd253 2.297 . S
O256 C258 1.247 . S
O257 Cd253 2.439 . S
O257 C258 1.208 . S
C258 O256 1.247 . S
C258 O257 1.208 . S
C259 O264 1.247 . S
C259 O265 1.208 . S
C260 O252 1.315 . S
C260 O255 1.279 . S
C261 O262 1.315 . S
C261 O263 1.279 . S
O262 Cd254 2.223 . S
O262 C261 1.315 . S
O263 Cd253 2.240 . S
O263 C261 1.279 . S
O264 Cd254 2.297 . S
O264 C259 1.247 . S
O265 Cd254 2.439 . S
O265 C259 1.208 . S
O266 Cd267 2.223 . S
O266 C274 1.315 . S
Cd267 O266 2.223 . S
Cd267 O270 2.297 1_545 S
Cd267 O271 2.439 1_545 S
Cd267 O277 2.240 . S
Cd268 O269 2.240 . S
Cd268 O276 2.223 . S
Cd268 O278 2.297 . S
Cd268 O279 2.439 . S
O269 Cd268 2.240 . S
O269 C274 1.279 . S
O270 Cd267 2.297 1_565 S
O270 C272 1.247 . S
O271 Cd267 2.439 1_565 S
O271 C272 1.208 . S
C272 O270 1.247 . S
C272 O271 1.208 . S
C273 O278 1.247 . S
C273 O279 1.208 . S
C274 O266 1.315 . S
C274 O269 1.279 . S
C275 O276 1.315 . S
C275 O277 1.279 . S
O276 Cd268 2.223 . S
O276 C275 1.315 . S
O277 Cd267 2.240 . S
O277 C275 1.279 . S
O278 Cd268 2.297 . S
O278 C273 1.247 . S
O279 Cd268 2.439 . S
O279 C273 1.208 . S
O280 Cd281 2.223 . S
O280 C288 1.315 . S
Cd281 O280 2.223 . S
Cd281 O284 2.297 . S
Cd281 O285 2.439 . S
Cd281 O291 2.240 . S
Cd282 O283 2.240 . S
Cd282 O290 2.223 . S
Cd282 O292 2.297 . S
Cd282 O293 2.439 . S
O283 Cd282 2.240 . S
O283 C288 1.279 . S
O284 Cd281 2.297 . S
O284 C286 1.247 . S
O285 Cd281 2.439 . S
O285 C286 1.208 . S
C286 O284 1.247 . S
C286 O285 1.208 . S
C287 O292 1.247 . S
C287 O293 1.208 . S
C288 O280 1.315 . S
C288 O283 1.279 . S
C289 O290 1.315 . S
C289 O291 1.279 . S
O290 Cd282 2.223 . S
O290 C289 1.315 . S
O291 Cd281 2.240 . S
O291 C289 1.279 . S
O292 Cd282 2.297 . S
O292 C287 1.247 . S
O293 Cd282 2.439 . S
O293 C287 1.208 . S
O294 Cd295 2.223 . S
O294 C302 1.315 . S
Cd295 O294 2.223 . S
Cd295 O298 2.297 . S
Cd295 O299 2.439 . S
Cd295 O305 2.240 . S
Cd296 O297 2.240 . S
Cd296 O304 2.223 . S
Cd296 O306 2.297 . S
Cd296 O307 2.439 . S
O297 Cd296 2.240 . S
O297 C302 1.279 . S
O298 Cd295 2.297 . S
O298 C300 1.247 . S
O299 Cd295 2.439 . S
O299 C300 1.208 . S
C300 O298 1.247 . S
C300 O299 1.208 . S
C301 O306 1.247 . S
C301 O307 1.208 . S
C302 O294 1.315 . S
C302 O297 1.279 . S
C303 O304 1.315 . S
C303 O305 1.279 . S
O304 Cd296 2.223 . S
O304 C303 1.315 . S
O305 Cd295 2.240 . S
O305 C303 1.279 . S
O306 Cd296 2.297 . S
O306 C301 1.247 . S
O307 Cd296 2.439 . S
O307 C301 1.208 . S
O308 Cd309 2.223 . S
O308 C316 1.315 . S
Cd309 O308 2.223 . S
Cd309 O312 2.297 . S
Cd309 O313 2.439 . S
Cd309 O319 2.240 . S
Cd310 O311 2.240 . S
Cd310 O318 2.223 . S
Cd310 O320 2.297 . S
Cd310 O321 2.439 . S
O311 Cd310 2.240 . S
O311 C316 1.279 . S
O312 Cd309 2.297 . S
O312 C314 1.247 . S
O313 Cd309 2.439 . S
O313 C314 1.208 . S
C314 O312 1.247 . S
C314 O313 1.208 . S
C315 O320 1.247 . S
C315 O321 1.208 . S
C316 O308 1.315 . S
C316 O311 1.279 . S
C317 O318 1.315 . S
C317 O319 1.279 . S
O318 Cd310 2.223 . S
O318 C317 1.315 . S
O319 Cd309 2.240 . S
O319 C317 1.279 . S
O320 Cd310 2.297 . S
O320 C315 1.247 . S
O321 Cd310 2.439 . S
O321 C315 1.208 . S
O322 Cd323 2.223 . S
O322 C330 1.315 . S
Cd323 O322 2.223 . S
Cd323 O326 2.297 . S
Cd323 O327 2.439 . S
Cd323 O333 2.240 . S
Cd324 O325 2.240 . S
Cd324 O332 2.223 . S
Cd324 O334 2.297 . S
Cd324 O335 2.439 . S
O325 Cd324 2.240 . S
O325 C330 1.279 . S
O326 Cd323 2.297 . S
O326 C328 1.247 . S
O327 Cd323 2.439 . S
O327 C328 1.208 . S
C328 O326 1.247 . S
C328 O327 1.208 . S
C329 O334 1.247 . S
C329 O335 1.208 . S
C330 O322 1.315 . S
C330 O325 1.279 . S
C331 O332 1.315 . S
C331 O333 1.279 . S
O332 Cd324 2.223 . S
O332 C331 1.315 . S
O333 Cd323 2.240 . S
O333 C331 1.279 . S
O334 Cd324 2.297 . S
O334 C329 1.247 . S
O335 Cd324 2.439 . S
O335 C329 1.208 . S
Tb336 C338 2.809 1_455 S
Tb336 O356 2.484 1_455 S
Tb336 O357 2.440 1_455 S
Tb336 O358 2.658 . S
Tb336 O359 2.409 . S
Tb336 O360 2.378 . S
Tb336 O364 2.325 . S
Tb336 O367 2.341 1_545 S
Tb337 C347 2.809 . S
Tb337 O358 2.325 . S
Tb337 O361 2.341 . S
Tb337 O362 2.484 . S
Tb337 O363 2.440 . S
Tb337 O364 2.658 . S
Tb337 O365 2.409 . S
Tb337 O366 2.378 . S
C338 Tb336 2.809 1_655 S
C338 C339 1.514 . S
C338 O356 1.248 . S
C338 O357 1.266 . S
C339 C338 1.514 . S
C339 C340 1.359 . S
C339 C344 1.348 . S
C340 C339 1.359 . S
C340 C341 1.380 . S
C340 H368 0.929 . S
C341 C340 1.380 . S
C341 C342 1.347 . S
C341 H369 0.931 . S
C342 C341 1.347 . S
C342 C343 1.369 . S
C343 C342 1.369 . S
C343 C344 1.408 . S
C343 H370 0.930 . S
C344 C339 1.348 . S
C344 C343 1.408 . S
C344 H371 0.930 . S
C345 O358 1.281 . S
C345 O359 1.254 . S
C346 O360 1.236 . S
C346 O361 1.266 . S
C347 Tb337 2.809 . S
C347 C348 1.514 . S
C347 O362 1.248 . S
C347 O363 1.266 . S
C348 C347 1.514 . S
C348 C349 1.359 1_545 S
C348 C353 1.348 . S
C349 C348 1.359 1_565 S
C349 C350 1.380 . S
C349 H372 0.929 . S
C350 C349 1.380 . S
C350 C351 1.347 . S
C350 H373 0.931 . S
C351 C350 1.347 . S
C351 C352 1.369 . S
C352 C351 1.369 . S
C352 C353 1.408 1_565 S
C352 H374 0.930 . S
C353 C348 1.348 . S
C353 C352 1.408 1_545 S
C353 H375 0.930 . S
C354 O364 1.281 . S
C354 O365 1.254 . S
C355 O366 1.236 1_565 S
C355 O367 1.266 . S
O356 Tb336 2.484 1_655 S
O356 C338 1.248 . S
O357 Tb336 2.440 1_655 S
O357 C338 1.266 . S
O358 Tb336 2.658 . S
O358 Tb337 2.325 . S
O358 C345 1.281 . S
O359 Tb336 2.409 . S
O359 C345 1.254 . S
O360 Tb336 2.378 . S
O360 C346 1.236 . S
O361 Tb337 2.341 . S
O361 C346 1.266 . S
O362 Tb337 2.484 . S
O362 C347 1.248 . S
O363 Tb337 2.440 . S
O363 C347 1.266 . S
O364 Tb336 2.325 . S
O364 Tb337 2.658 . S
O364 C354 1.281 . S
O365 Tb337 2.409 . S
O365 C354 1.254 . S
O366 Tb337 2.378 . S
O366 C355 1.236 1_545 S
O367 Tb336 2.341 1_565 S
O367 C355 1.266 . S
H368 C340 0.929 . S
H369 C341 0.931 . S
H370 C343 0.930 . S
H371 C344 0.930 . S
H372 C349 0.929 . S
H373 C350 0.931 . S
H374 C352 0.930 . S
H375 C353 0.930 . S
Tb376 C378 2.809 . S
Tb376 O396 2.484 . S
Tb376 O397 2.440 . S
Tb376 O398 2.658 . S
Tb376 O399 2.409 . S
Tb376 O400 2.378 . S
Tb376 O404 2.325 . S
Tb376 O407 2.341 . S
Tb377 C387 2.809 . S
Tb377 O398 2.325 . S
Tb377 O401 2.341 . S
Tb377 O402 2.484 . S
Tb377 O403 2.440 . S
Tb377 O404 2.658 . S
Tb377 O405 2.409 . S
Tb377 O406 2.378 . S
C378 Tb376 2.809 . S
C378 C379 1.514 . S
C378 O396 1.248 . S
C378 O397 1.266 . S
C379 C378 1.514 . S
C379 C380 1.359 . S
C379 C384 1.348 . S
C380 C379 1.359 . S
C380 C381 1.380 . S
C380 H408 0.929 . S
C381 C380 1.380 . S
C381 C382 1.347 . S
C381 H409 0.931 . S
C382 C381 1.347 . S
C382 C383 1.369 . S
C383 C382 1.369 . S
C383 C384 1.408 . S
C383 H410 0.930 . S
C384 C379 1.348 . S
C384 C383 1.408 . S
C384 H411 0.930 . S
C385 O398 1.281 . S
C385 O399 1.254 . S
C386 O400 1.236 . S
C386 O401 1.266 . S
C387 Tb377 2.809 . S
C387 C388 1.514 . S
C387 O402 1.248 . S
C387 O403 1.266 . S
C388 C387 1.514 . S
C388 C389 1.359 . S
C388 C393 1.348 . S
C389 C388 1.359 . S
C389 C390 1.380 . S
C389 H412 0.929 . S
C390 C389 1.380 . S
C390 C391 1.347 . S
C390 H413 0.931 . S
C391 C390 1.347 . S
C391 C392 1.369 . S
C392 C391 1.369 . S
C392 C393 1.408 . S
C392 H414 0.930 . S
C393 C388 1.348 . S
C393 C392 1.408 . S
C393 H415 0.930 . S
C394 O404 1.281 . S
C394 O405 1.254 . S
C395 O406 1.236 . S
C395 O407 1.266 . S
O396 Tb376 2.484 . S
O396 C378 1.248 . S
O397 Tb376 2.440 . S
O397 C378 1.266 . S
O398 Tb376 2.658 . S
O398 Tb377 2.325 . S
O398 C385 1.281 . S
O399 Tb376 2.409 . S
O399 C385 1.254 . S
O400 Tb376 2.378 . S
O400 C386 1.236 . S
O401 Tb377 2.341 . S
O401 C386 1.266 . S
O402 Tb377 2.484 . S
O402 C387 1.248 . S
O403 Tb377 2.440 . S
O403 C387 1.266 . S
O404 Tb376 2.325 . S
O404 Tb377 2.658 . S
O404 C394 1.281 . S
O405 Tb377 2.409 . S
O405 C394 1.254 . S
O406 Tb377 2.378 . S
O406 C395 1.236 . S
O407 Tb376 2.341 . S
O407 C395 1.266 . S
H408 C380 0.929 . S
H409 C381 0.931 . S
H410 C383 0.930 . S
H411 C384 0.930 . S
H412 C389 0.929 . S
H413 C390 0.931 . S
H414 C392 0.930 . S
H415 C393 0.930 . S
Tb416 C418 2.809 . S
Tb416 O436 2.484 . S
Tb416 O437 2.440 . S
Tb416 O438 2.658 . S
Tb416 O439 2.409 . S
Tb416 O440 2.378 1_545 S
Tb416 O444 2.325 . S
Tb416 O447 2.341 . S
Tb417 C427 2.809 . S
Tb417 O438 2.325 . S
Tb417 O441 2.341 1_545 S
Tb417 O442 2.484 . S
Tb417 O443 2.440 . S
Tb417 O444 2.658 . S
Tb417 O445 2.409 . S
Tb417 O446 2.378 . S
C418 Tb416 2.809 . S
C418 C419 1.514 1_545 S
C418 O436 1.248 . S
C418 O437 1.266 . S
C419 C418 1.514 1_565 S
C419 C420 1.359 . S
C419 C424 1.348 . S
C420 C419 1.359 . S
C420 C421 1.380 . S
C420 H448 0.929 . S
C421 C420 1.380 . S
C421 C422 1.347 . S
C421 H449 0.931 . S
C422 C421 1.347 . S
C422 C423 1.369 . S
C423 C422 1.369 . S
C423 C424 1.408 . S
C423 H450 0.930 . S
C424 C419 1.348 . S
C424 C423 1.408 . S
C424 H451 0.930 . S
C425 O438 1.281 . S
C425 O439 1.254 . S
C426 O440 1.236 . S
C426 O441 1.266 . S
C427 Tb417 2.809 . S
C427 C428 1.514 . S
C427 O442 1.248 . S
C427 O443 1.266 . S
C428 C427 1.514 . S
C428 C429 1.359 . S
C428 C433 1.348 . S
C429 C428 1.359 . S
C429 C430 1.380 . S
C429 H452 0.929 . S
C430 C429 1.380 . S
C430 C431 1.347 . S
C430 H453 0.931 . S
C431 C430 1.347 . S
C431 C432 1.369 . S
C432 C431 1.369 . S
C432 C433 1.408 . S
C432 H454 0.930 . S
C433 C428 1.348 . S
C433 C432 1.408 . S
C433 H455 0.930 . S
C434 O444 1.281 . S
C434 O445 1.254 . S
C435 O446 1.236 . S
C435 O447 1.266 . S
O436 Tb416 2.484 . S
O436 C418 1.248 . S
O437 Tb416 2.440 . S
O437 C418 1.266 . S
O438 Tb416 2.658 . S
O438 Tb417 2.325 . S
O438 C425 1.281 . S
O439 Tb416 2.409 . S
O439 C425 1.254 . S
O440 Tb416 2.378 1_565 S
O440 C426 1.236 . S
O441 Tb417 2.341 1_565 S
O441 C426 1.266 . S
O442 Tb417 2.484 . S
O442 C427 1.248 . S
O443 Tb417 2.440 . S
O443 C427 1.266 . S
O444 Tb416 2.325 . S
O444 Tb417 2.658 . S
O444 C434 1.281 . S
O445 Tb417 2.409 . S
O445 C434 1.254 . S
O446 Tb417 2.378 . S
O446 C435 1.236 . S
O447 Tb416 2.341 . S
O447 C435 1.266 . S
H448 C420 0.929 . S
H449 C421 0.931 . S
H450 C423 0.930 . S
H451 C424 0.930 . S
H452 C429 0.929 . S
H453 C430 0.931 . S
H454 C432 0.930 . S
H455 C433 0.930 . S
Tb456 C458 2.809 . S
Tb456 O476 2.484 . S
Tb456 O477 2.440 . S
Tb456 O478 2.658 . S
Tb456 O479 2.409 . S
Tb456 O480 2.378 . S
Tb456 O484 2.325 . S
Tb456 O487 2.341 . S
Tb457 C467 2.809 . S
Tb457 O478 2.325 . S
Tb457 O481 2.341 . S
Tb457 O482 2.484 . S
Tb457 O483 2.440 . S
Tb457 O484 2.658 . S
Tb457 O485 2.409 . S
Tb457 O486 2.378 . S
C458 Tb456 2.809 . S
C458 C459 1.514 . S
C458 O476 1.248 . S
C458 O477 1.266 . S
C459 C458 1.514 . S
C459 C460 1.359 . S
C459 C464 1.348 . S
C460 C459 1.359 . S
C460 C461 1.380 . S
C460 H488 0.929 . S
C461 C460 1.380 . S
C461 C462 1.347 . S
C461 H489 0.931 . S
C462 C461 1.347 . S
C462 C463 1.369 . S
C463 C462 1.369 . S
C463 C464 1.408 . S
C463 H490 0.930 . S
C464 C459 1.348 . S
C464 C463 1.408 . S
C464 H491 0.930 . S
C465 O478 1.281 . S
C465 O479 1.254 . S
C466 O480 1.236 . S
C466 O481 1.266 . S
C467 Tb457 2.809 . S
C467 C468 1.514 . S
C467 O482 1.248 . S
C467 O483 1.266 . S
C468 C467 1.514 . S
C468 C469 1.359 . S
C468 C473 1.348 . S
C469 C468 1.359 . S
C469 C470 1.380 . S
C469 H492 0.929 . S
C470 C469 1.380 . S
C470 C471 1.347 . S
C470 H493 0.931 . S
C471 C470 1.347 . S
C471 C472 1.369 . S
C472 C471 1.369 . S
C472 C473 1.408 . S
C472 H494 0.930 . S
C473 C468 1.348 . S
C473 C472 1.408 . S
C473 H495 0.930 . S
C474 O484 1.281 . S
C474 O485 1.254 . S
C475 O486 1.236 . S
C475 O487 1.266 . S
O476 Tb456 2.484 . S
O476 C458 1.248 . S
O477 Tb456 2.440 . S
O477 C458 1.266 . S
O478 Tb456 2.658 . S
O478 Tb457 2.325 . S
O478 C465 1.281 . S
O479 Tb456 2.409 . S
O479 C465 1.254 . S
O480 Tb456 2.378 . S
O480 C466 1.236 . S
O481 Tb457 2.341 . S
O481 C466 1.266 . S
O482 Tb457 2.484 . S
O482 C467 1.248 . S
O483 Tb457 2.440 . S
O483 C467 1.266 . S
O484 Tb456 2.325 . S
O484 Tb457 2.658 . S
O484 C474 1.281 . S
O485 Tb457 2.409 . S
O485 C474 1.254 . S
O486 Tb457 2.378 . S
O486 C475 1.236 . S
O487 Tb456 2.341 . S
O487 C475 1.266 . S
H488 C460 0.929 . S
H489 C461 0.931 . S
H490 C463 0.930 . S
H491 C464 0.930 . S
H492 C469 0.929 . S
H493 C470 0.931 . S
H494 C472 0.930 . S
H495 C473 0.930 . S
Tb496 C498 2.809 . S
Tb496 O516 2.484 . S
Tb496 O517 2.440 . S
Tb496 O518 2.658 . S
Tb496 O519 2.409 1_455 S
Tb496 O520 2.378 . S
Tb496 O524 2.325 . S
Tb496 O527 2.341 . S
Tb497 C507 2.809 . S
Tb497 O518 2.325 1_565 S
Tb497 O521 2.341 1_565 S
Tb497 O522 2.484 . S
Tb497 O523 2.440 . S
Tb497 O524 2.658 1_565 S
Tb497 O525 2.409 1_565 S
Tb497 O526 2.378 1_565 S
C498 Tb496 2.809 . S
C498 C499 1.514 . S
C498 O516 1.248 . S
C498 O517 1.266 . S
C499 C498 1.514 . S
C499 C500 1.359 . S
C499 C504 1.348 . S
C500 C499 1.359 . S
C500 C501 1.380 . S
C500 H528 0.929 . S
C501 C500 1.380 . S
C501 C502 1.347 . S
C501 H529 0.931 . S
C502 C501 1.347 . S
C502 C503 1.369 1_455 S
C503 C502 1.369 1_655 S
C503 C504 1.408 1_655 S
C503 H530 0.930 . S
C504 C499 1.348 . S
C504 C503 1.408 1_455 S
C504 H531 0.930 1_455 S
C505 O518 1.281 . S
C505 O519 1.254 1_455 S
C506 O520 1.236 . S
C506 O521 1.266 . S
C507 Tb497 2.809 . S
C507 C508 1.514 . S
C507 O522 1.248 . S
C507 O523 1.266 . S
C508 C507 1.514 . S
C508 C509 1.359 . S
C508 C513 1.348 . S
C509 C508 1.359 . S
C509 C510 1.380 . S
C509 H532 0.929 . S
C510 C509 1.380 . S
C510 C511 1.347 . S
C510 H533 0.931 . S
C511 C510 1.347 . S
C511 C512 1.369 . S
C512 C511 1.369 . S
C512 C513 1.408 . S
C512 H534 0.930 . S
C513 C508 1.348 . S
C513 C512 1.408 . S
C513 H535 0.930 . S
C514 O524 1.281 . S
C514 O525 1.254 . S
C515 O526 1.236 . S
C515 O527 1.266 . S
O516 Tb496 2.484 . S
O516 C498 1.248 . S
O517 Tb496 2.440 . S
O517 C498 1.266 . S
O518 Tb496 2.658 . S
O518 Tb497 2.325 1_545 S
O518 C505 1.281 . S
O519 Tb496 2.409 1_655 S
O519 C505 1.254 1_655 S
O520 Tb496 2.378 . S
O520 C506 1.236 . S
O521 Tb497 2.341 1_545 S
O521 C506 1.266 . S
O522 Tb497 2.484 . S
O522 C507 1.248 . S
O523 Tb497 2.440 . S
O523 C507 1.266 . S
O524 Tb496 2.325 . S
O524 Tb497 2.658 1_545 S
O524 C514 1.281 . S
O525 Tb497 2.409 1_545 S
O525 C514 1.254 . S
O526 Tb497 2.378 1_545 S
O526 C515 1.236 . S
O527 Tb496 2.341 . S
O527 C515 1.266 . S
H528 C500 0.929 . S
H529 C501 0.931 . S
H530 C503 0.930 . S
H531 C504 0.930 1_655 S
H532 C509 0.929 . S
H533 C510 0.931 . S
H534 C512 0.930 . S
H535 C513 0.930 . S
Tb536 C538 2.809 . S
Tb536 O556 2.484 . S
Tb536 O557 2.440 . S
Tb536 O558 2.658 . S
Tb536 O559 2.409 . S
Tb536 O560 2.378 . S
Tb536 O564 2.325 . S
Tb536 O567 2.341 . S
Tb537 C547 2.809 . S
Tb537 O558 2.325 . S
Tb537 O561 2.341 . S
Tb537 O562 2.484 . S
Tb537 O563 2.440 . S
Tb537 O564 2.658 . S
Tb537 O565 2.409 . S
Tb537 O566 2.378 . S
C538 Tb536 2.809 . S
C538 C539 1.514 . S
C538 O556 1.248 . S
C538 O557 1.266 . S
C539 C538 1.514 . S
C539 C540 1.359 . S
C539 C544 1.348 . S
C540 C539 1.359 . S
C540 C541 1.380 . S
C540 H568 0.929 . S
C541 C540 1.380 . S
C541 C542 1.347 . S
C541 H569 0.931 . S
C542 C541 1.347 . S
C542 C543 1.369 . S
C543 C542 1.369 . S
C543 C544 1.408 . S
C543 H570 0.930 . S
C544 C539 1.348 . S
C544 C543 1.408 . S
C544 H571 0.930 . S
C545 O558 1.281 . S
C545 O559 1.254 . S
C546 O560 1.236 . S
C546 O561 1.266 . S
C547 Tb537 2.809 . S
C547 C548 1.514 . S
C547 O562 1.248 . S
C547 O563 1.266 . S
C548 C547 1.514 . S
C548 C549 1.359 . S
C548 C553 1.348 . S
C549 C548 1.359 . S
C549 C550 1.380 . S
C549 H572 0.929 . S
C550 C549 1.380 . S
C550 C551 1.347 . S
C550 H573 0.931 . S
C551 C550 1.347 . S
C551 C552 1.369 . S
C552 C551 1.369 . S
C552 C553 1.408 . S
C552 H574 0.930 . S
C553 C548 1.348 . S
C553 C552 1.408 . S
C553 H575 0.930 . S
C554 O564 1.281 . S
C554 O565 1.254 . S
C555 O566 1.236 . S
C555 O567 1.266 . S
O556 Tb536 2.484 . S
O556 C538 1.248 . S
O557 Tb536 2.440 . S
O557 C538 1.266 . S
O558 Tb536 2.658 . S
O558 Tb537 2.325 . S
O558 C545 1.281 . S
O559 Tb536 2.409 . S
O559 C545 1.254 . S
O560 Tb536 2.378 . S
O560 C546 1.236 . S
O561 Tb537 2.341 . S
O561 C546 1.266 . S
O562 Tb537 2.484 . S
O562 C547 1.248 . S
O563 Tb537 2.440 . S
O563 C547 1.266 . S
O564 Tb536 2.325 . S
O564 Tb537 2.658 . S
O564 C554 1.281 . S
O565 Tb537 2.409 . S
O565 C554 1.254 . S
O566 Tb537 2.378 . S
O566 C555 1.236 . S
O567 Tb536 2.341 . S
O567 C555 1.266 . S
H568 C540 0.929 . S
H569 C541 0.931 . S
H570 C543 0.930 . S
H571 C544 0.930 . S
H572 C549 0.929 . S
H573 C550 0.931 . S
H574 C552 0.930 . S
H575 C553 0.930 . S
Tb576 C578 2.809 1_545 S
Tb576 O596 2.484 1_545 S
Tb576 O597 2.440 . S
Tb576 O598 2.658 . S
Tb576 O599 2.409 . S
Tb576 O600 2.378 . S
Tb576 O604 2.325 1_545 S
Tb576 O607 2.341 . S
Tb577 C587 2.809 . S
Tb577 O598 2.325 . S
Tb577 O601 2.341 . S
Tb577 O602 2.484 . S
Tb577 O603 2.440 . S
Tb577 O604 2.658 1_545 S
Tb577 O605 2.409 1_545 S
Tb577 O606 2.378 . S
C578 Tb576 2.809 1_565 S
C578 C579 1.514 . S
C578 O596 1.248 . S
C578 O597 1.266 1_565 S
C579 C578 1.514 . S
C579 C580 1.359 . S
C579 C584 1.348 1_565 S
C580 C579 1.359 . S
C580 C581 1.380 . S
C580 H608 0.929 . S
C581 C580 1.380 . S
C581 C582 1.347 . S
C581 H609 0.931 . S
C582 C581 1.347 . S
C582 C583 1.369 . S
C583 C582 1.369 . S
C583 C584 1.408 1_565 S
C583 H610 0.930 1_565 S
C584 C579 1.348 1_545 S
C584 C583 1.408 1_545 S
C584 H611 0.930 . S
C585 O598 1.281 . S
C585 O599 1.254 . S
C586 O600 1.236 . S
C586 O601 1.266 . S
C587 Tb577 2.809 . S
C587 C588 1.514 . S
C587 O602 1.248 . S
C587 O603 1.266 . S
C588 C587 1.514 . S
C588 C589 1.359 . S
C588 C593 1.348 . S
C589 C588 1.359 . S
C589 C590 1.380 . S
C589 H612 0.929 . S
C590 C589 1.380 . S
C590 C591 1.347 . S
C590 H613 0.931 . S
C591 C590 1.347 . S
C591 C592 1.369 . S
C592 C591 1.369 . S
C592 C593 1.408 . S
C592 H614 0.930 . S
C593 C588 1.348 . S
C593 C592 1.408 . S
C593 H615 0.930 . S
C594 O604 1.281 . S
C594 O605 1.254 . S
C595 O606 1.236 . S
C595 O607 1.266 . S
O596 Tb576 2.484 1_565 S
O596 C578 1.248 . S
O597 Tb576 2.440 . S
O597 C578 1.266 1_545 S
O598 Tb576 2.658 . S
O598 Tb577 2.325 . S
O598 C585 1.281 . S
O599 Tb576 2.409 . S
O599 C585 1.254 . S
O600 Tb576 2.378 . S
O600 C586 1.236 . S
O601 Tb577 2.341 . S
O601 C586 1.266 . S
O602 Tb577 2.484 . S
O602 C587 1.248 . S
O603 Tb577 2.440 . S
O603 C587 1.266 . S
O604 Tb576 2.325 1_565 S
O604 Tb577 2.658 1_565 S
O604 C594 1.281 . S
O605 Tb577 2.409 1_565 S
O605 C594 1.254 . S
O606 Tb577 2.378 . S
O606 C595 1.236 . S
O607 Tb576 2.341 . S
O607 C595 1.266 . S
H608 C580 0.929 . S
H609 C581 0.931 . S
H610 C583 0.930 1_545 S
H611 C584 0.930 . S
H612 C589 0.929 . S
H613 C590 0.931 . S
H614 C592 0.930 . S
H615 C593 0.930 . S
Tb616 C618 2.809 . S
Tb616 O636 2.484 . S
Tb616 O637 2.440 . S
Tb616 O638 2.658 . S
Tb616 O639 2.409 . S
Tb616 O640 2.378 . S
Tb616 O644 2.325 . S
Tb616 O647 2.341 . S
Tb617 C627 2.809 . S
Tb617 O638 2.325 . S
Tb617 O641 2.341 . S
Tb617 O642 2.484 . S
Tb617 O643 2.440 . S
Tb617 O644 2.658 . S
Tb617 O645 2.409 . S
Tb617 O646 2.378 . S
C618 Tb616 2.809 . S
C618 C619 1.514 . S
C618 O636 1.248 . S
C618 O637 1.266 . S
C619 C618 1.514 . S
C619 C620 1.359 . S
C619 C624 1.348 . S
C620 C619 1.359 . S
C620 C621 1.380 . S
C620 H648 0.929 . S
C621 C620 1.380 . S
C621 C622 1.347 . S
C621 H649 0.931 . S
C622 C621 1.347 . S
C622 C623 1.369 . S
C623 C622 1.369 . S
C623 C624 1.408 . S
C623 H650 0.930 . S
C624 C619 1.348 . S
C624 C623 1.408 . S
C624 H651 0.930 . S
C625 O638 1.281 . S
C625 O639 1.254 . S
C626 O640 1.236 . S
C626 O641 1.266 . S
C627 Tb617 2.809 . S
C627 C628 1.514 . S
C627 O642 1.248 . S
C627 O643 1.266 . S
C628 C627 1.514 . S
C628 C629 1.359 . S
C628 C633 1.348 . S
C629 C628 1.359 . S
C629 C630 1.380 . S
C629 H652 0.929 . S
C630 C629 1.380 . S
C630 C631 1.347 . S
C630 H653 0.931 . S
C631 C630 1.347 . S
C631 C632 1.369 . S
C632 C631 1.369 . S
C632 C633 1.408 . S
C632 H654 0.930 . S
C633 C628 1.348 . S
C633 C632 1.408 . S
C633 H655 0.930 . S
C634 O644 1.281 . S
C634 O645 1.254 . S
C635 O646 1.236 . S
C635 O647 1.266 . S
O636 Tb616 2.484 . S
O636 C618 1.248 . S
O637 Tb616 2.440 . S
O637 C618 1.266 . S
O638 Tb616 2.658 . S
O638 Tb617 2.325 . S
O638 C625 1.281 . S
O639 Tb616 2.409 . S
O639 C625 1.254 . S
O640 Tb616 2.378 . S
O640 C626 1.236 . S
O641 Tb617 2.341 . S
O641 C626 1.266 . S
O642 Tb617 2.484 . S
O642 C627 1.248 . S
O643 Tb617 2.440 . S
O643 C627 1.266 . S
O644 Tb616 2.325 . S
O644 Tb617 2.658 . S
O644 C634 1.281 . S
O645 Tb617 2.409 . S
O645 C634 1.254 . S
O646 Tb617 2.378 . S
O646 C635 1.236 . S
O647 Tb616 2.341 . S
O647 C635 1.266 . S
H648 C620 0.929 . S
H649 C621 0.931 . S
H650 C623 0.930 . S
H651 C624 0.930 . S
H652 C629 0.929 . S
H653 C630 0.931 . S
H654 C632 0.930 . S
H655 C633 0.930 . S
Tb656 C658 2.809 . S
Tb656 O676 2.484 . S
Tb656 O677 2.440 . S
Tb656 O678 2.658 . S
Tb656 O679 2.409 . S
Tb656 O680 2.378 . S
Tb656 O684 2.325 . S
Tb656 O687 2.341 . S
Tb657 C667 2.809 . S
Tb657 O678 2.325 . S
Tb657 O681 2.341 . S
Tb657 O682 2.484 . S
Tb657 O683 2.440 . S
Tb657 O684 2.658 . S
Tb657 O685 2.409 . S
Tb657 O686 2.378 . S
C658 Tb656 2.809 . S
C658 C659 1.514 . S
C658 O676 1.248 . S
C658 O677 1.266 . S
C659 C658 1.514 . S
C659 C660 1.359 . S
C659 C664 1.348 . S
C660 C659 1.359 . S
C660 C661 1.380 . S
C660 H688 0.929 . S
C661 C660 1.380 . S
C661 C662 1.345 . S
C661 H689 0.931 1_554 S
C662 C661 1.345 . S
C662 C663 1.388 . S
C663 C662 1.388 . S
C663 C664 1.408 . S
C663 H690 0.930 . S
C664 C659 1.348 . S
C664 C663 1.408 . S
C664 H691 0.930 . S
C665 O678 1.281 . S
C665 O679 1.254 . S
C666 O680 1.236 . S
C666 O681 1.266 . S
C667 Tb657 2.809 . S
C667 C668 1.514 . S
C667 O682 1.248 . S
C667 O683 1.266 . S
C668 C667 1.514 . S
C668 C669 1.359 . S
C668 C673 1.348 . S
C669 C668 1.359 . S
C669 C670 1.380 . S
C669 H692 0.929 . S
C670 C669 1.380 . S
C670 C671 1.347 . S
C670 H693 0.931 . S
C671 C670 1.347 . S
C671 C672 1.369 . S
C672 C671 1.369 . S
C672 C673 1.408 . S
C672 H694 0.930 . S
C673 C668 1.348 . S
C673 C672 1.408 . S
C673 H695 0.930 . S
C674 O684 1.281 . S
C674 O685 1.254 . S
C675 O686 1.236 . S
C675 O687 1.266 . S
O676 Tb656 2.484 . S
O676 C658 1.248 . S
O677 Tb656 2.440 . S
O677 C658 1.266 . S
O678 Tb656 2.658 . S
O678 Tb657 2.325 . S
O678 C665 1.281 . S
O679 Tb656 2.409 . S
O679 C665 1.254 . S
O680 Tb656 2.378 . S
O680 C666 1.236 . S
O681 Tb657 2.341 . S
O681 C666 1.266 . S
O682 Tb657 2.484 . S
O682 C667 1.248 . S
O683 Tb657 2.440 . S
O683 C667 1.266 . S
O684 Tb656 2.325 . S
O684 Tb657 2.658 . S
O684 C674 1.281 . S
O685 Tb657 2.409 . S
O685 C674 1.254 . S
O686 Tb657 2.378 . S
O686 C675 1.236 . S
O687 Tb656 2.341 . S
O687 C675 1.266 . S
H688 C660 0.929 . S
H689 C661 0.931 1_556 S
H690 C663 0.930 . S
H691 C664 0.930 . S
H692 C669 0.929 . S
H693 C670 0.931 . S
H694 C672 0.930 . S
H695 C673 0.930 . S
Tb696 C698 2.809 . S
Tb696 O716 2.484 . S
Tb696 O717 2.440 . S
Tb696 O718 2.658 . S
Tb696 O719 2.409 . S
Tb696 O720 2.378 . S
Tb696 O724 2.325 . S
Tb696 O727 2.341 . S
Tb697 C707 2.809 . S
Tb697 O718 2.325 . S
Tb697 O721 2.341 . S
Tb697 O722 2.484 . S
Tb697 O723 2.440 . S
Tb697 O724 2.658 . S
Tb697 O725 2.409 . S
Tb697 O726 2.378 . S
C698 Tb696 2.809 . S
C698 C699 1.514 . S
C698 O716 1.248 . S
C698 O717 1.266 . S
C699 C698 1.514 . S
C699 C700 1.359 . S
C699 C704 1.348 . S
C700 C699 1.359 . S
C700 C701 1.380 . S
C700 H728 0.929 . S
C701 C700 1.380 . S
C701 C702 1.347 . S
C701 H729 0.931 . S
C702 C701 1.347 . S
C702 C703 1.369 . S
C703 C702 1.369 . S
C703 C704 1.408 . S
C703 H730 0.930 . S
C704 C699 1.348 . S
C704 C703 1.408 . S
C704 H731 0.930 . S
C705 O718 1.281 . S
C705 O719 1.254 . S
C706 O720 1.236 . S
C706 O721 1.266 . S
C707 Tb697 2.809 . S
C707 C708 1.514 . S
C707 O722 1.248 . S
C707 O723 1.266 . S
C708 C707 1.514 . S
C708 C709 1.359 . S
C708 C713 1.348 . S
C709 C708 1.359 . S
C709 C710 1.380 . S
C709 H732 0.929 . S
C710 C709 1.380 . S
C710 C711 1.347 . S
C710 H733 0.931 . S
C711 C710 1.347 . S
C711 C712 1.369 . S
C712 C711 1.369 . S
C712 C713 1.408 . S
C712 H734 0.930 . S
C713 C708 1.348 . S
C713 C712 1.408 . S
C713 H735 0.930 . S
C714 O724 1.281 . S
C714 O725 1.254 . S
C715 O726 1.236 . S
C715 O727 1.266 . S
O716 Tb696 2.484 . S
O716 C698 1.248 . S
O717 Tb696 2.440 . S
O717 C698 1.266 . S
O718 Tb696 2.658 . S
O718 Tb697 2.325 . S
O718 C705 1.281 . S
O719 Tb696 2.409 . S
O719 C705 1.254 . S
O720 Tb696 2.378 . S
O720 C706 1.236 . S
O721 Tb697 2.341 . S
O721 C706 1.266 . S
O722 Tb697 2.484 . S
O722 C707 1.248 . S
O723 Tb697 2.440 . S
O723 C707 1.266 . S
O724 Tb696 2.325 . S
O724 Tb697 2.658 . S
O724 C714 1.281 . S
O725 Tb697 2.409 . S
O725 C714 1.254 . S
O726 Tb697 2.378 . S
O726 C715 1.236 . S
O727 Tb696 2.341 . S
O727 C715 1.266 . S
H728 C700 0.929 . S
H729 C701 0.931 . S
H730 C703 0.930 . S
H731 C704 0.930 . S
H732 C709 0.929 . S
H733 C710 0.931 . S
H734 C712 0.930 . S
H735 C713 0.930 . S
Tb736 C738 2.773 1_455 S
Tb736 O756 2.460 1_455 S
Tb736 O757 2.401 1_455 S
Tb736 O758 2.683 . S
Tb736 O759 2.404 . S
Tb736 O760 2.370 1_455 S
Tb736 O764 2.352 . S
Tb736 O767 2.374 . S
Tb737 C747 2.809 . S
Tb737 O758 2.325 . S
Tb737 O761 2.341 . S
Tb737 O762 2.484 . S
Tb737 O763 2.440 . S
Tb737 O764 2.658 . S
Tb737 O765 2.409 . S
Tb737 O766 2.378 . S
C738 Tb736 2.773 1_655 S
C738 C739 1.514 . S
C738 O756 1.248 . S
C738 O757 1.266 . S
C739 C738 1.514 . S
C739 C740 1.359 . S
C739 C744 1.348 . S
C740 C739 1.359 . S
C740 C741 1.380 . S
C740 H768 0.929 . S
C741 C740 1.380 . S
C741 C742 1.347 . S
C741 H769 0.931 . S
C742 C741 1.347 . S
C742 C743 1.369 . S
C743 C742 1.369 . S
C743 C744 1.408 . S
C743 H770 0.930 . S
C744 C739 1.348 . S
C744 C743 1.408 . S
C744 H771 0.930 . S
C745 O758 1.281 . S
C745 O759 1.254 . S
C746 O760 1.236 1_455 S
C746 O761 1.266 . S
C747 Tb737 2.809 . S
C747 C748 1.514 . S
C747 O762 1.248 . S
C747 O763 1.266 . S
C748 C747 1.514 . S
C748 C749 1.359 . S
C748 C753 1.348 . S
C749 C748 1.359 . S
C749 C750 1.380 . S
C749 H772 0.929 . S
C750 C749 1.380 . S
C750 C751 1.347 . S
C750 H773 0.931 . S
C751 C750 1.347 . S
C751 C752 1.369 . S
C752 C751 1.369 . S
C752 C753 1.408 . S
C752 H774 0.930 . S
C753 C748 1.348 . S
C753 C752 1.408 . S
C753 H775 0.930 . S
C754 O764 1.281 . S
C754 O765 1.254 . S
C755 O766 1.236 . S
C755 O767 1.266 . S
O756 Tb736 2.460 1_655 S
O756 C738 1.248 . S
O757 Tb736 2.401 1_655 S
O757 C738 1.266 . S
O758 Tb736 2.683 . S
O758 Tb737 2.325 . S
O758 C745 1.281 . S
O759 Tb736 2.404 . S
O759 C745 1.254 . S
O760 Tb736 2.370 1_655 S
O760 C746 1.236 1_655 S
O761 Tb737 2.341 . S
O761 C746 1.266 . S
O762 Tb737 2.484 . S
O762 C747 1.248 . S
O763 Tb737 2.440 . S
O763 C747 1.266 . S
O764 Tb736 2.352 . S
O764 Tb737 2.658 . S
O764 C754 1.281 . S
O765 Tb737 2.409 . S
O765 C754 1.254 . S
O766 Tb737 2.378 . S
O766 C755 1.236 . S
O767 Tb736 2.374 . S
O767 C755 1.266 . S
H768 C740 0.929 . S
H769 C741 0.931 . S
H770 C743 0.930 . S
H771 C744 0.930 . S
H772 C749 0.929 . S
H773 C750 0.931 . S
H774 C752 0.930 . S
H775 C753 0.930 . S
Tb776 C778 2.809 . S
Tb776 O796 2.484 . S
Tb776 O797 2.440 . S
Tb776 O798 2.658 . S
Tb776 O799 2.409 . S
Tb776 O800 2.378 . S
Tb776 O804 2.325 . S
Tb776 O807 2.341 . S
Tb777 C787 2.809 . S
Tb777 O798 2.325 . S
Tb777 O801 2.341 . S
Tb777 O802 2.484 . S
Tb777 O803 2.440 . S
Tb777 O804 2.658 . S
Tb777 O805 2.409 . S
Tb777 O806 2.378 . S
C778 Tb776 2.809 . S
C778 C779 1.514 . S
C778 O796 1.248 . S
C778 O797 1.266 . S
C779 C778 1.514 . S
C779 C780 1.359 . S
C779 C784 1.348 . S
C780 C779 1.359 . S
C780 C781 1.380 . S
C780 H808 0.929 . S
C781 C780 1.380 . S
C781 C782 1.347 . S
C781 H809 0.931 . S
C782 C781 1.347 . S
C782 C783 1.369 . S
C783 C782 1.369 . S
C783 C784 1.408 . S
C783 H810 0.930 . S
C784 C779 1.348 . S
C784 C783 1.408 . S
C784 H811 0.930 . S
C785 O798 1.281 . S
C785 O799 1.254 . S
C786 O800 1.236 . S
C786 O801 1.266 . S
C787 Tb777 2.809 . S
C787 C788 1.514 . S
C787 O802 1.248 . S
C787 O803 1.266 . S
C788 C787 1.514 . S
C788 C789 1.359 . S
C788 C793 1.348 . S
C789 C788 1.359 . S
C789 C790 1.380 . S
C789 H812 0.929 . S
C790 C789 1.380 . S
C790 C791 1.347 . S
C790 H813 0.931 . S
C791 C790 1.347 . S
C791 C792 1.369 . S
C792 C791 1.369 . S
C792 C793 1.408 . S
C792 H814 0.930 . S
C793 C788 1.348 . S
C793 C792 1.408 . S
C793 H815 0.930 . S
C794 O804 1.281 . S
C794 O805 1.254 . S
C795 O806 1.236 . S
C795 O807 1.266 . S
O796 Tb776 2.484 . S
O796 C778 1.248 . S
O797 Tb776 2.440 . S
O797 C778 1.266 . S
O798 Tb776 2.658 . S
O798 Tb777 2.325 . S
O798 C785 1.281 . S
O799 Tb776 2.409 . S
O799 C785 1.254 . S
O800 Tb776 2.378 . S
O800 C786 1.236 . S
O801 Tb777 2.341 . S
O801 C786 1.266 . S
O802 Tb777 2.484 . S
O802 C787 1.248 . S
O803 Tb777 2.440 . S
O803 C787 1.266 . S
O804 Tb776 2.325 . S
O804 Tb777 2.658 . S
O804 C794 1.281 . S
O805 Tb777 2.409 . S
O805 C794 1.254 . S
O806 Tb777 2.378 . S
O806 C795 1.236 . S
O807 Tb776 2.341 . S
O807 C795 1.266 . S
H808 C780 0.929 . S
H809 C781 0.931 . S
H810 C783 0.930 . S
H811 C784 0.930 . S
H812 C789 0.929 . S
H813 C790 0.931 . S
H814 C792 0.930 . S
H815 C793 0.930 . S
Tb816 C818 2.809 . S
Tb816 O836 2.484 . S
Tb816 O837 2.440 . S
Tb816 O838 2.658 . S
Tb816 O839 2.409 . S
Tb816 O840 2.378 . S
Tb816 O844 2.325 . S
Tb816 O847 2.341 . S
Tb817 C827 2.809 . S
Tb817 O838 2.325 . S
Tb817 O841 2.341 . S
Tb817 O842 2.484 . S
Tb817 O843 2.440 . S
Tb817 O844 2.658 . S
Tb817 O845 2.409 . S
Tb817 O846 2.378 . S
C818 Tb816 2.809 . S
C818 C819 1.514 . S
C818 O836 1.248 . S
C818 O837 1.266 . S
C819 C818 1.514 . S
C819 C820 1.359 . S
C819 C824 1.348 . S
C820 C819 1.359 . S
C820 C821 1.380 . S
C820 H848 0.929 . S
C821 C820 1.380 . S
C821 C822 1.347 . S
C821 H849 0.931 . S
C822 C821 1.347 . S
C822 C823 1.369 . S
C823 C822 1.369 . S
C823 C824 1.408 . S
C823 H850 0.930 . S
C824 C819 1.348 . S
C824 C823 1.408 . S
C824 H851 0.930 . S
C825 O838 1.281 . S
C825 O839 1.254 . S
C826 O840 1.236 . S
C826 O841 1.266 . S
C827 Tb817 2.809 . S
C827 C828 1.514 . S
C827 O842 1.248 . S
C827 O843 1.266 . S
C828 C827 1.514 . S
C828 C829 1.359 . S
C828 C833 1.348 . S
C829 C828 1.359 . S
C829 C830 1.380 . S
C829 H852 0.929 . S
C830 C829 1.380 . S
C830 C831 1.347 . S
C830 H853 0.931 . S
C831 C830 1.347 . S
C831 C832 1.369 . S
C832 C831 1.369 . S
C832 C833 1.408 . S
C832 H854 0.930 . S
C833 C828 1.348 . S
C833 C832 1.408 . S
C833 H855 0.930 . S
C834 O844 1.281 . S
C834 O845 1.254 . S
C835 O846 1.236 . S
C835 O847 1.266 . S
O836 Tb816 2.484 . S
O836 C818 1.248 . S
O837 Tb816 2.440 . S
O837 C818 1.266 . S
O838 Tb816 2.658 . S
O838 Tb817 2.325 . S
O838 C825 1.281 . S
O839 Tb816 2.409 . S
O839 C825 1.254 . S
O840 Tb816 2.378 . S
O840 C826 1.236 . S
O841 Tb817 2.341 . S
O841 C826 1.266 . S
O842 Tb817 2.484 . S
O842 C827 1.248 . S
O843 Tb817 2.440 . S
O843 C827 1.266 . S
O844 Tb816 2.325 . S
O844 Tb817 2.658 . S
O844 C834 1.281 . S
O845 Tb817 2.409 . S
O845 C834 1.254 . S
O846 Tb817 2.378 . S
O846 C835 1.236 . S
O847 Tb816 2.341 . S
O847 C835 1.266 . S
H848 C820 0.929 . S
H849 C821 0.931 . S
H850 C823 0.930 . S
H851 C824 0.930 . S
H852 C829 0.929 . S
H853 C830 0.931 . S
H854 C832 0.930 . S
H855 C833 0.930 . S
Tb856 C858 2.809 . S
Tb856 O876 2.484 . S
Tb856 O877 2.440 . S
Tb856 O878 2.658 . S
Tb856 O879 2.409 . S
Tb856 O880 2.378 . S
Tb856 O884 2.325 . S
Tb856 O887 2.341 . S
Tb857 C867 2.809 . S
Tb857 O878 2.325 . S
Tb857 O881 2.341 . S
Tb857 O882 2.484 . S
Tb857 O883 2.440 . S
Tb857 O884 2.658 . S
Tb857 O885 2.409 . S
Tb857 O886 2.378 . S
C858 Tb856 2.809 . S
C858 C859 1.514 . S
C858 O876 1.248 . S
C858 O877 1.266 . S
C859 C858 1.514 . S
C859 C860 1.359 . S
C859 C864 1.348 . S
C860 C859 1.359 . S
C860 C861 1.380 . S
C860 H888 0.929 . S
C861 C860 1.380 . S
C861 C862 1.347 . S
C861 H889 0.931 . S
C862 C861 1.347 . S
C862 C863 1.369 . S
C863 C862 1.369 . S
C863 C864 1.408 . S
C863 H890 0.930 . S
C864 C859 1.348 . S
C864 C863 1.408 . S
C864 H891 0.930 . S
C865 O878 1.281 . S
C865 O879 1.254 . S
C866 O880 1.236 . S
C866 O881 1.266 . S
C867 Tb857 2.809 . S
C867 C868 1.514 . S
C867 O882 1.248 . S
C867 O883 1.266 . S
C868 C867 1.514 . S
C868 C869 1.359 . S
C868 C873 1.348 . S
C869 C868 1.359 . S
C869 C870 1.380 . S
C869 H892 0.929 . S
C870 C869 1.380 . S
C870 C871 1.347 . S
C870 H893 0.931 . S
C871 C870 1.347 . S
C871 C872 1.369 . S
C872 C871 1.369 . S
C872 C873 1.408 . S
C872 H894 0.930 . S
C873 C868 1.348 . S
C873 C872 1.408 . S
C873 H895 0.930 . S
C874 O884 1.281 . S
C874 O885 1.254 . S
C875 O886 1.236 . S
C875 O887 1.266 . S
O876 Tb856 2.484 . S
O876 C858 1.248 . S
O877 Tb856 2.440 . S
O877 C858 1.266 . S
O878 Tb856 2.658 . S
O878 Tb857 2.325 . S
O878 C865 1.281 . S
O879 Tb856 2.409 . S
O879 C865 1.254 . S
O880 Tb856 2.378 . S
O880 C866 1.236 . S
O881 Tb857 2.341 . S
O881 C866 1.266 . S
O882 Tb857 2.484 . S
O882 C867 1.248 . S
O883 Tb857 2.440 . S
O883 C867 1.266 . S
O884 Tb856 2.325 . S
O884 Tb857 2.658 . S
O884 C874 1.281 . S
O885 Tb857 2.409 . S
O885 C874 1.254 . S
O886 Tb857 2.378 . S
O886 C875 1.236 . S
O887 Tb856 2.341 . S
O887 C875 1.266 . S
H888 C860 0.929 . S
H889 C861 0.931 . S
H890 C863 0.930 . S
H891 C864 0.930 . S
H892 C869 0.929 . S
H893 C870 0.931 . S
H894 C872 0.930 . S
H895 C873 0.930 . S
Tb896 C898 2.809 . S
Tb896 O916 2.484 . S
Tb896 O917 2.440 . S
Tb896 O918 2.658 . S
Tb896 O919 2.409 . S
Tb896 O920 2.378 . S
Tb896 O924 2.325 . S
Tb896 O927 2.341 . S
Tb897 C907 2.809 . S
Tb897 O918 2.325 . S
Tb897 O921 2.341 . S
Tb897 O922 2.484 . S
Tb897 O923 2.440 . S
Tb897 O924 2.658 . S
Tb897 O925 2.409 . S
Tb897 O926 2.378 . S
C898 Tb896 2.809 . S
C898 C899 1.514 . S
C898 O916 1.248 . S
C898 O917 1.266 . S
C899 C898 1.514 . S
C899 C900 1.359 . S
C899 C904 1.348 . S
C900 C899 1.359 . S
C900 C901 1.380 . S
C900 H928 0.929 . S
C901 C900 1.380 . S
C901 C902 1.347 . S
C901 H929 0.931 . S
C902 C901 1.347 . S
C902 C903 1.369 . S
C903 C902 1.369 . S
C903 C904 1.408 . S
C903 H930 0.930 . S
C904 C899 1.348 . S
C904 C903 1.408 . S
C904 H931 0.930 . S
C905 O918 1.281 . S
C905 O919 1.254 . S
C906 O920 1.236 . S
C906 O921 1.266 . S
C907 Tb897 2.809 . S
C907 C908 1.514 . S
C907 O922 1.248 . S
C907 O923 1.266 . S
C908 C907 1.514 . S
C908 C909 1.359 . S
C908 C913 1.348 . S
C909 C908 1.359 . S
C909 C910 1.380 . S
C909 H932 0.929 . S
C910 C909 1.380 . S
C910 C911 1.347 . S
C910 H933 0.931 . S
C911 C910 1.347 . S
C911 C912 1.369 . S
C912 C911 1.369 . S
C912 C913 1.408 . S
C912 H934 0.930 . S
C913 C908 1.348 . S
C913 C912 1.408 . S
C913 H935 0.930 . S
C914 O924 1.281 . S
C914 O925 1.254 . S
C915 O926 1.236 . S
C915 O927 1.266 . S
O916 Tb896 2.484 . S
O916 C898 1.248 . S
O917 Tb896 2.440 . S
O917 C898 1.266 . S
O918 Tb896 2.658 . S
O918 Tb897 2.325 . S
O918 C905 1.281 . S
O919 Tb896 2.409 . S
O919 C905 1.254 . S
O920 Tb896 2.378 . S
O920 C906 1.236 . S
O921 Tb897 2.341 . S
O921 C906 1.266 . S
O922 Tb897 2.484 . S
O922 C907 1.248 . S
O923 Tb897 2.440 . S
O923 C907 1.266 . S
O924 Tb896 2.325 . S
O924 Tb897 2.658 . S
O924 C914 1.281 . S
O925 Tb897 2.409 . S
O925 C914 1.254 . S
O926 Tb897 2.378 . S
O926 C915 1.236 . S
O927 Tb896 2.341 . S
O927 C915 1.266 . S
H928 C900 0.929 . S
H929 C901 0.931 . S
H930 C903 0.930 . S
H931 C904 0.930 . S
H932 C909 0.929 . S
H933 C910 0.931 . S
H934 C912 0.930 . S
H935 C913 0.930 . S
Tb936 C938 2.809 . S
Tb936 O956 2.484 . S
Tb936 O957 2.440 . S
Tb936 O958 2.658 . S
Tb936 O959 2.409 . S
Tb936 O960 2.378 . S
Tb936 O964 2.325 . S
Tb936 O967 2.341 . S
Tb937 C947 2.809 1_455 S
Tb937 O958 2.325 . S
Tb937 O961 2.341 . S
Tb937 O962 2.484 1_455 S
Tb937 O963 2.440 1_455 S
Tb937 O964 2.658 . S
Tb937 O965 2.409 . S
Tb937 O966 2.378 . S
C938 Tb936 2.809 . S
C938 C939 1.514 . S
C938 O956 1.248 . S
C938 O957 1.266 . S
C939 C938 1.514 . S
C939 C940 1.359 . S
C939 C944 1.348 . S
C940 C939 1.359 . S
C940 C941 1.380 . S
C940 H968 0.929 . S
C941 C940 1.380 . S
C941 C942 1.347 . S
C941 H969 0.931 . S
C942 C941 1.347 . S
C942 C943 1.369 . S
C943 C942 1.369 . S
C943 C944 1.408 . S
C943 H970 0.930 . S
C944 C939 1.348 . S
C944 C943 1.408 . S
C944 H971 0.930 . S
C945 O958 1.281 . S
C945 O959 1.254 . S
C946 O960 1.236 . S
C946 O961 1.266 . S
C947 Tb937 2.809 1_655 S
C947 C948 1.514 . S
C947 O962 1.248 . S
C947 O963 1.266 . S
C948 C947 1.514 . S
C948 C949 1.359 . S
C948 C953 1.348 . S
C949 C948 1.359 . S
C949 C950 1.380 . S
C949 H972 0.929 . S
C950 C949 1.380 . S
C950 C951 1.347 . S
C950 H973 0.931 . S
C951 C950 1.347 . S
C951 C952 1.369 . S
C952 C951 1.369 . S
C952 C953 1.408 . S
C952 H974 0.930 . S
C953 C948 1.348 . S
C953 C952 1.408 . S
C953 H975 0.930 . S
C954 O964 1.281 . S
C954 O965 1.254 . S
C955 O966 1.236 . S
C955 O967 1.266 . S
O956 Tb936 2.484 . S
O956 C938 1.248 . S
O957 Tb936 2.440 . S
O957 C938 1.266 . S
O958 Tb936 2.658 . S
O958 Tb937 2.325 . S
O958 C945 1.281 . S
O959 Tb936 2.409 . S
O959 C945 1.254 . S
O960 Tb936 2.378 . S
O960 C946 1.236 . S
O961 Tb937 2.341 . S
O961 C946 1.266 . S
O962 Tb937 2.484 1_655 S
O962 C947 1.248 . S
O963 Tb937 2.440 1_655 S
O963 C947 1.266 . S
O964 Tb936 2.325 . S
O964 Tb937 2.658 . S
O964 C954 1.281 . S
O965 Tb937 2.409 . S
O965 C954 1.254 . S
O966 Tb937 2.378 . S
O966 C955 1.236 . S
O967 Tb936 2.341 . S
O967 C955 1.266 . S
H968 C940 0.929 . S
H969 C941 0.931 . S
H970 C943 0.930 . S
H971 C944 0.930 . S
H972 C949 0.929 . S
H973 C950 0.931 . S
H974 C952 0.930 . S
H975 C953 0.930 . S
H976 C982 0.930 . S
H977 C986 0.930 . S
H978 C991 0.929 . S
H979 C989 0.929 . S
H980 C984 0.929 1_655 S
H981 C990 0.930 . S
C982 H976 0.930 . S
C982 C983 1.367 . S
C982 C990 1.407 . S
C983 C982 1.367 . S
C983 C991 1.433 1_455 S
C984 H980 0.929 1_455 S
C984 C986 1.378 . S
C984 C988 1.350 . S
C985 C988 1.463 . S
C985 C990 1.317 1_554 S
C985 N993 1.428 . S
C986 H977 0.930 . S
C986 C984 1.378 . S
C986 C987 1.367 . S
C987 C986 1.367 . S
C987 C989 1.433 . S
C988 C984 1.350 . S
C988 C985 1.463 . S
C988 N992 1.427 . S
C989 H979 0.929 . S
C989 C987 1.433 . S
C989 N992 1.384 . S
C990 H981 0.930 . S
C990 C982 1.407 . S
C990 C985 1.317 1_556 S
C991 H978 0.929 . S
C991 C983 1.433 1_655 S
C991 N993 1.383 1_656 S
N992 C988 1.427 . S
N992 C989 1.384 . S
N993 C985 1.428 . S
N993 C991 1.383 1_454 S
H994 C1000 0.930 . S
H995 C1004 0.930 . S
H996 C1009 0.929 . S
H997 C1007 0.929 . S
H998 C1002 0.929 . S
H999 C1008 0.929 . S
C1000 H994 0.930 . S
C1000 C1001 1.367 . S
C1000 C1008 1.378 . S
C1001 C1000 1.367 . S
C1001 C1009 1.433 . S
C1002 H998 0.929 . S
C1002 C1004 1.378 . S
C1002 C1006 1.350 . S
C1003 C1006 1.463 . S
C1003 C1008 1.350 . S
C1003 N1011 1.427 . S
C1004 H995 0.930 . S
C1004 C1002 1.378 . S
C1004 C1005 1.367 . S
C1005 C1004 1.367 . S
C1005 C1007 1.433 . S
C1006 C1002 1.350 . S
C1006 C1003 1.463 . S
C1006 N1010 1.427 . S
C1007 H997 0.929 . S
C1007 C1005 1.433 . S
C1007 N1010 1.384 . S
C1008 H999 0.929 . S
C1008 C1000 1.378 . S
C1008 C1003 1.350 . S
C1009 H996 0.929 . S
C1009 C1001 1.433 . S
C1009 N1011 1.384 . S
N1010 C1006 1.427 . S
N1010 C1007 1.384 . S
N1011 C1003 1.427 . S
N1011 C1009 1.384 . S
H1012 C1018 0.930 . S
H1013 C1022 0.930 . S
H1014 C1027 0.929 . S
H1015 C1025 0.929 . S
H1016 C1020 0.929 . S
H1017 C1026 0.929 . S
C1018 H1012 0.930 . S
C1018 C1019 1.367 . S
C1018 C1026 1.378 . S
C1019 C1018 1.367 . S
C1019 C1027 1.433 . S
C1020 H1016 0.929 . S
C1020 C1022 1.378 . S
C1020 C1024 1.350 . S
C1021 C1024 1.463 . S
C1021 C1026 1.350 . S
C1021 N1029 1.427 . S
C1022 H1013 0.930 . S
C1022 C1020 1.378 . S
C1022 C1023 1.367 . S
C1023 C1022 1.367 . S
C1023 C1025 1.433 . S
C1024 C1020 1.350 . S
C1024 C1021 1.463 . S
C1024 N1028 1.427 . S
C1025 H1015 0.929 . S
C1025 C1023 1.433 . S
C1025 N1028 1.384 . S
C1026 H1017 0.929 . S
C1026 C1018 1.378 . S
C1026 C1021 1.350 . S
C1027 H1014 0.929 . S
C1027 C1019 1.433 . S
C1027 N1029 1.384 . S
N1028 C1024 1.427 . S
N1028 C1025 1.384 . S
N1029 C1021 1.427 . S
N1029 C1027 1.384 . S
H1030 C1036 0.930 . S
H1031 C1040 0.930 . S
H1032 C1045 0.929 . S
H1033 C1043 0.929 . S
H1034 C1038 0.929 . S
H1035 C1044 0.929 . S
C1036 H1030 0.930 . S
C1036 C1037 1.367 . S
C1036 C1044 1.378 . S
C1037 C1036 1.367 . S
C1037 C1045 1.433 . S
C1038 H1034 0.929 . S
C1038 C1040 1.378 . S
C1038 C1042 1.350 . S
C1039 C1042 1.463 . S
C1039 C1044 1.350 . S
C1039 N1047 1.427 . S
C1040 H1031 0.930 . S
C1040 C1038 1.378 . S
C1040 C1041 1.367 . S
C1041 C1040 1.367 . S
C1041 C1043 1.433 . S
C1042 C1038 1.350 . S
C1042 C1039 1.463 . S
C1042 N1046 1.427 . S
C1043 H1033 0.929 . S
C1043 C1041 1.433 . S
C1043 N1046 1.384 . S
C1044 H1035 0.929 . S
C1044 C1036 1.378 . S
C1044 C1039 1.350 . S
C1045 H1032 0.929 . S
C1045 C1037 1.433 . S
C1045 N1047 1.384 . S
N1046 C1042 1.427 . S
N1046 C1043 1.384 . S
N1047 C1039 1.427 . S
N1047 C1045 1.384 . S
H1048 C1054 0.930 . S
H1049 C1058 0.930 . S
H1050 C1063 0.929 . S
H1051 C1061 0.929 . S
H1052 C1056 0.929 . S
H1053 C1062 0.929 . S
C1054 H1048 0.930 . S
C1054 C1055 1.367 . S
C1054 C1062 1.378 . S
C1055 C1054 1.367 . S
C1055 C1063 1.433 . S
C1056 H1052 0.929 . S
C1056 C1058 1.378 . S
C1056 C1060 1.350 . S
C1057 C1060 1.463 . S
C1057 C1062 1.350 . S
C1057 N1065 1.427 . S
C1058 H1049 0.930 . S
C1058 C1056 1.378 . S
C1058 C1059 1.367 . S
C1059 C1058 1.367 . S
C1059 C1061 1.433 . S
C1060 C1056 1.350 . S
C1060 C1057 1.463 . S
C1060 N1064 1.427 . S
C1061 H1051 0.929 . S
C1061 C1059 1.433 . S
C1061 N1064 1.384 . S
C1062 H1053 0.929 . S
C1062 C1054 1.378 . S
C1062 C1057 1.350 . S
C1063 H1050 0.929 . S
C1063 C1055 1.433 . S
C1063 N1065 1.384 . S
N1064 C1060 1.427 . S
N1064 C1061 1.384 . S
N1065 C1057 1.427 . S
N1065 C1063 1.384 . S
H1066 C1072 0.930 . S
H1067 C1076 0.930 . S
H1068 C1081 0.929 . S
H1069 C1079 0.929 . S
H1070 C1074 0.929 . S
H1071 C1080 0.929 . S
C1072 H1066 0.930 . S
C1072 C1073 1.367 . S
C1072 C1080 1.378 . S
C1073 C1072 1.367 . S
C1073 C1081 1.433 . S
C1074 H1070 0.929 . S
C1074 C1076 1.378 . S
C1074 C1078 1.350 . S
C1075 C1078 1.463 . S
C1075 C1080 1.350 . S
C1075 N1083 1.427 . S
C1076 H1067 0.930 . S
C1076 C1074 1.378 . S
C1076 C1077 1.367 . S
C1077 C1076 1.367 . S
C1077 C1079 1.433 . S
C1078 C1074 1.350 . S
C1078 C1075 1.463 . S
C1078 N1082 1.427 . S
C1079 H1069 0.929 . S
C1079 C1077 1.433 . S
C1079 N1082 1.384 . S
C1080 H1071 0.929 . S
C1080 C1072 1.378 . S
C1080 C1075 1.350 . S
C1081 H1068 0.929 . S
C1081 C1073 1.433 . S
C1081 N1083 1.384 . S
N1082 C1078 1.427 . S
N1082 C1079 1.384 . S
N1083 C1075 1.427 . S
N1083 C1081 1.384 . S
H1084 C1090 0.930 . S
H1085 C1094 0.930 . S
H1086 C1099 0.929 . S
H1087 C1097 0.929 . S
H1088 C1092 0.929 . S
H1089 C1098 0.929 . S
C1090 H1084 0.930 . S
C1090 C1091 1.367 . S
C1090 C1098 1.378 . S
C1091 C1090 1.367 . S
C1091 C1099 1.433 . S
C1092 H1088 0.929 . S
C1092 C1094 1.378 . S
C1092 C1096 1.350 . S
C1093 C1096 1.463 . S
C1093 C1098 1.350 . S
C1093 N1101 1.427 . S
C1094 H1085 0.930 . S
C1094 C1092 1.378 . S
C1094 C1095 1.367 . S
C1095 C1094 1.367 . S
C1095 C1097 1.433 . S
C1096 C1092 1.350 . S
C1096 C1093 1.463 . S
C1096 N1100 1.427 . S
C1097 H1087 0.929 . S
C1097 C1095 1.433 . S
C1097 N1100 1.384 . S
C1098 H1089 0.929 . S
C1098 C1090 1.378 . S
C1098 C1093 1.350 . S
C1099 H1086 0.929 . S
C1099 C1091 1.433 . S
C1099 N1101 1.384 . S
N1100 C1096 1.427 . S
N1100 C1097 1.384 . S
N1101 C1093 1.427 . S
N1101 C1099 1.384 . S
H1102 C1108 0.930 . S
H1103 C1112 0.930 . S
H1104 C1117 0.929 . S
H1105 C1115 0.929 . S
H1106 C1110 0.929 . S
H1107 C1116 0.929 . S
C1108 H1102 0.930 . S
C1108 C1109 1.367 . S
C1108 C1116 1.378 . S
C1109 C1108 1.367 . S
C1109 C1117 1.433 . S
C1110 H1106 0.929 . S
C1110 C1112 1.378 . S
C1110 C1114 1.350 . S
C1111 C1114 1.463 . S
C1111 C1116 1.350 . S
C1111 N1119 1.427 . S
C1112 H1103 0.930 . S
C1112 C1110 1.378 . S
C1112 C1113 1.367 . S
C1113 C1112 1.367 . S
C1113 C1115 1.433 . S
C1114 C1110 1.350 . S
C1114 C1111 1.463 . S
C1114 N1118 1.427 . S
C1115 H1105 0.929 . S
C1115 C1113 1.433 . S
C1115 N1118 1.384 . S
C1116 H1107 0.929 . S
C1116 C1108 1.378 . S
C1116 C1111 1.350 . S
C1117 H1104 0.929 . S
C1117 C1109 1.433 . S
C1117 N1119 1.384 . S
N1118 C1114 1.427 . S
N1118 C1115 1.384 . S
N1119 C1111 1.427 . S
N1119 C1117 1.384 . S
H1120 C1126 0.930 . S
H1121 C1130 0.930 . S
H1122 C1135 0.929 . S
H1123 C1133 0.929 1_565 S
H1124 C1128 0.929 . S
H1125 C1134 0.929 . S
C1126 H1120 0.930 . S
C1126 C1127 1.363 1_565 S
C1126 C1134 1.378 . S
C1127 C1126 1.363 1_545 S
C1127 C1135 1.438 . S
C1128 H1124 0.929 . S
C1128 C1130 1.378 . S
C1128 C1132 1.350 1_455 S
C1129 C1132 1.463 . S
C1129 C1134 1.350 1_545 S
C1129 N1137 1.427 . S
C1130 H1121 0.930 . S
C1130 C1128 1.378 . S
C1130 C1131 1.367 . S
C1131 C1130 1.367 . S
C1131 C1133 1.433 . S
C1132 C1128 1.350 1_655 S
C1132 C1129 1.463 . S
C1132 N1136 1.427 . S
C1133 H1123 0.929 1_545 S
C1133 C1131 1.433 . S
C1133 N1136 1.384 1_455 S
C1134 H1125 0.929 . S
C1134 C1126 1.378 . S
C1134 C1129 1.350 1_565 S
C1135 H1122 0.929 . S
C1135 C1127 1.438 . S
C1135 N1137 1.384 . S
N1136 C1132 1.427 . S
N1136 C1133 1.384 1_655 S
N1137 C1129 1.427 . S
N1137 C1135 1.384 . S
H1138 C1144 0.930 . S
H1139 C1148 0.930 . S
H1140 C1153 0.929 . S
H1141 C1151 0.929 . S
H1142 C1146 0.929 . S
H1143 C1152 0.929 . S
C1144 H1138 0.930 . S
C1144 C1145 1.367 . S
C1144 C1152 1.378 . S
C1145 C1144 1.367 . S
C1145 C1153 1.433 . S
C1146 H1142 0.929 . S
C1146 C1148 1.378 . S
C1146 C1150 1.350 . S
C1147 C1150 1.463 . S
C1147 C1152 1.350 . S
C1147 N1155 1.427 . S
C1148 H1139 0.930 . S
C1148 C1146 1.378 . S
C1148 C1149 1.367 . S
C1149 C1148 1.367 . S
C1149 C1151 1.433 . S
C1150 C1146 1.350 . S
C1150 C1147 1.463 . S
C1150 N1154 1.427 . S
C1151 H1141 0.929 . S
C1151 C1149 1.433 . S
C1151 N1154 1.384 . S
C1152 H1143 0.929 . S
C1152 C1144 1.378 . S
C1152 C1147 1.350 . S
C1153 H1140 0.929 . S
C1153 C1145 1.433 . S
C1153 N1155 1.384 . S
N1154 C1150 1.427 . S
N1154 C1151 1.384 . S
N1155 C1147 1.427 . S
N1155 C1153 1.384 . S
H1156 C1162 0.930 . S
H1157 C1166 0.930 . S
H1158 C1171 0.929 . S
H1159 C1169 0.929 . S
H1160 C1164 0.929 . S
H1161 C1170 0.929 . S
C1162 H1156 0.930 . S
C1162 C1163 1.367 . S
C1162 C1170 1.378 . S
C1163 C1162 1.367 . S
C1163 C1171 1.433 . S
C1164 H1160 0.929 . S
C1164 C1166 1.378 . S
C1164 C1168 1.350 . S
C1165 C1168 1.463 . S
C1165 C1170 1.350 . S
C1165 N1173 1.427 . S
C1166 H1157 0.930 . S
C1166 C1164 1.378 . S
C1166 C1167 1.367 . S
C1167 C1166 1.367 . S
C1167 C1169 1.433 . S
C1168 C1164 1.350 . S
C1168 C1165 1.463 . S
C1168 N1172 1.427 . S
C1169 H1159 0.929 . S
C1169 C1167 1.433 . S
C1169 N1172 1.384 . S
C1170 H1161 0.929 . S
C1170 C1162 1.378 . S
C1170 C1165 1.350 . S
C1171 H1158 0.929 . S
C1171 C1163 1.433 . S
C1171 N1173 1.384 . S
N1172 C1168 1.427 . S
N1172 C1169 1.384 . S
N1173 C1165 1.427 . S
N1173 C1171 1.384 . S
H1174 C1180 0.930 . S
H1175 C1184 0.930 . S
H1176 C1189 0.929 . S
H1177 C1187 0.929 . S
H1178 C1182 0.929 . S
H1179 C1188 0.929 . S
C1180 H1174 0.930 . S
C1180 C1181 1.367 . S
C1180 C1188 1.378 . S
C1181 C1180 1.367 . S
C1181 C1189 1.433 . S
C1182 H1178 0.929 . S
C1182 C1184 1.378 . S
C1182 C1186 1.350 . S
C1183 C1186 1.463 . S
C1183 C1188 1.350 . S
C1183 N1191 1.427 . S
C1184 H1175 0.930 . S
C1184 C1182 1.378 . S
C1184 C1185 1.367 . S
C1185 C1184 1.367 . S
C1185 C1187 1.433 . S
C1186 C1182 1.350 . S
C1186 C1183 1.463 . S
C1186 N1190 1.427 . S
C1187 H1177 0.929 . S
C1187 C1185 1.433 . S
C1187 N1190 1.384 . S
C1188 H1179 0.929 . S
C1188 C1180 1.378 . S
C1188 C1183 1.350 . S
C1189 H1176 0.929 . S
C1189 C1181 1.433 . S
C1189 N1191 1.384 . S
N1190 C1186 1.427 . S
N1190 C1187 1.384 . S
N1191 C1183 1.427 . S
N1191 C1189 1.384 . S
H1192 C1198 0.930 . S
H1193 C1202 0.930 . S
H1194 C1207 0.929 . S
H1195 C1205 0.929 1_565 S
H1196 C1200 0.929 . S
H1197 C1206 0.929 . S
C1198 H1192 0.930 . S
C1198 C1199 1.367 1_565 S
C1198 C1206 1.378 . S
C1199 C1198 1.367 1_545 S
C1199 C1207 1.433 . S
C1200 H1196 0.929 . S
C1200 C1202 1.378 1_655 S
C1200 C1204 1.350 . S
C1201 C1204 1.463 . S
C1201 C1206 1.350 1_545 S
C1201 N1209 1.427 . S
C1202 H1193 0.930 . S
C1202 C1200 1.378 1_455 S
C1202 C1203 1.367 . S
C1203 C1202 1.367 . S
C1203 C1205 1.433 . S
C1204 C1200 1.350 . S
C1204 C1201 1.463 . S
C1204 N1208 1.440 1_655 S
C1205 H1195 0.929 1_545 S
C1205 C1203 1.433 . S
C1205 N1208 1.381 . S
C1206 H1197 0.929 . S
C1206 C1198 1.378 . S
C1206 C1201 1.350 1_565 S
C1207 H1194 0.929 . S
C1207 C1199 1.433 . S
C1207 N1209 1.384 . S
N1208 C1204 1.440 1_455 S
N1208 C1205 1.381 . S
N1209 C1201 1.427 . S
N1209 C1207 1.384 . S
H1210 C1216 0.930 . S
H1211 C1220 0.930 . S
H1212 C1225 0.929 . S
H1213 C1223 0.929 . S
H1214 C1218 0.929 . S
H1215 C1224 0.929 . S
C1216 H1210 0.930 . S
C1216 C1217 1.367 . S
C1216 C1224 1.378 . S
C1217 C1216 1.367 . S
C1217 C1225 1.433 . S
C1218 H1214 0.929 . S
C1218 C1220 1.378 . S
C1218 C1222 1.350 . S
C1219 C1222 1.463 . S
C1219 C1224 1.350 . S
C1219 N1227 1.427 . S
C1220 H1211 0.930 . S
C1220 C1218 1.378 . S
C1220 C1221 1.367 . S
C1221 C1220 1.367 . S
C1221 C1223 1.433 . S
C1222 C1218 1.350 . S
C1222 C1219 1.463 . S
C1222 N1226 1.427 . S
C1223 H1213 0.929 . S
C1223 C1221 1.433 . S
C1223 N1226 1.384 . S
C1224 H1215 0.929 . S
C1224 C1216 1.378 . S
C1224 C1219 1.350 . S
C1225 H1212 0.929 . S
C1225 C1217 1.433 . S
C1225 N1227 1.384 . S
N1226 C1222 1.427 . S
N1226 C1223 1.384 . S
N1227 C1219 1.427 . S
N1227 C1225 1.384 . S
H1228 C1234 0.930 . S
H1229 C1238 0.930 . S
H1230 C1243 0.929 . S
H1231 C1241 0.929 . S
H1232 C1236 0.929 . S
H1233 C1242 0.929 . S
C1234 H1228 0.930 . S
C1234 C1235 1.367 . S
C1234 C1242 1.378 . S
C1235 C1234 1.367 . S
C1235 C1243 1.433 . S
C1236 H1232 0.929 . S
C1236 C1238 1.378 . S
C1236 C1240 1.350 . S
C1237 C1240 1.463 . S
C1237 C1242 1.350 . S
C1237 N1245 1.427 . S
C1238 H1229 0.930 . S
C1238 C1236 1.378 . S
C1238 C1239 1.367 1_556 S
C1239 C1238 1.367 1_554 S
C1239 C1241 1.433 . S
C1240 C1236 1.350 . S
C1240 C1237 1.463 . S
C1240 N1244 1.427 . S
C1241 H1231 0.929 . S
C1241 C1239 1.433 . S
C1241 N1244 1.384 1_554 S
C1242 H1233 0.929 . S
C1242 C1234 1.378 . S
C1242 C1237 1.350 . S
C1243 H1230 0.929 . S
C1243 C1235 1.433 . S
C1243 N1245 1.384 . S
N1244 C1240 1.427 . S
N1244 C1241 1.384 1_556 S
N1245 C1237 1.427 . S
N1245 C1243 1.384 . S
H1246 C1252 0.930 . S
H1247 C1256 0.930 . S
H1248 C1261 0.929 . S
H1249 C1259 0.929 . S
H1250 C1254 0.929 . S
H1251 C1260 0.929 . S
C1252 H1246 0.930 . S
C1252 C1253 1.367 . S
C1252 C1260 1.378 . S
C1253 C1252 1.367 . S
C1253 C1261 1.433 . S
C1254 H1250 0.929 . S
C1254 C1256 1.378 . S
C1254 C1258 1.350 . S
C1255 C1258 1.463 . S
C1255 C1260 1.350 . S
C1255 N1263 1.427 . S
C1256 H1247 0.930 . S
C1256 C1254 1.378 . S
C1256 C1257 1.367 . S
C1257 C1256 1.367 . S
C1257 C1259 1.433 . S
C1258 C1254 1.350 . S
C1258 C1255 1.463 . S
C1258 N1262 1.427 . S
C1259 H1249 0.929 . S
C1259 C1257 1.433 . S
C1259 N1262 1.384 . S
C1260 H1251 0.929 . S
C1260 C1252 1.378 . S
C1260 C1255 1.350 . S
C1261 H1248 0.929 . S
C1261 C1253 1.433 . S
C1261 N1263 1.384 . S
N1262 C1258 1.427 . S
N1262 C1259 1.384 . S
N1263 C1255 1.427 . S
N1263 C1261 1.384 . S
H1264 C1270 0.930 1_556 S
H1265 C1274 0.930 . S
H1266 C1279 0.929 . S
H1267 C1277 0.929 . S
H1268 C1272 0.929 . S
H1269 C1278 0.929 . S
C1270 H1264 0.930 1_554 S
C1270 C1271 1.367 . S
C1270 C1278 1.378 . S
C1271 C1270 1.367 . S
C1271 C1279 1.433 . S
C1272 H1268 0.929 . S
C1272 C1274 1.378 . S
C1272 C1276 1.350 . S
C1273 C1276 1.463 . S
C1273 C1278 1.350 . S
C1273 N1281 1.427 . S
C1274 H1265 0.930 . S
C1274 C1272 1.378 . S
C1274 C1275 1.367 . S
C1275 C1274 1.367 . S
C1275 C1277 1.433 . S
C1276 C1272 1.350 . S
C1276 C1273 1.463 . S
C1276 N1280 1.427 . S
C1277 H1267 0.929 . S
C1277 C1275 1.433 . S
C1277 N1280 1.384 . S
C1278 H1269 0.929 . S
C1278 C1270 1.378 . S
C1278 C1273 1.350 . S
C1279 H1266 0.929 . S
C1279 C1271 1.433 . S
C1279 N1281 1.384 . S
N1280 C1276 1.427 . S
N1280 C1277 1.384 . S
N1281 C1273 1.427 . S
N1281 C1279 1.384 . S
H1282 C1288 0.930 . S
H1283 C1292 0.930 . S
H1284 C1297 0.929 . S
H1285 C1295 0.929 . S
H1286 C1290 0.929 . S
H1287 C1296 0.929 . S
C1288 H1282 0.930 . S
C1288 C1289 1.367 . S
C1288 C1296 1.378 . S
C1289 C1288 1.367 . S
C1289 C1297 1.433 . S
C1290 H1286 0.929 . S
C1290 C1292 1.378 . S
C1290 C1294 1.350 . S
C1291 C1294 1.463 . S
C1291 C1296 1.350 . S
C1291 N1299 1.427 . S
C1292 H1283 0.930 . S
C1292 C1290 1.378 . S
C1292 C1293 1.367 . S
C1293 C1292 1.367 . S
C1293 C1295 1.433 . S
C1294 C1290 1.350 . S
C1294 C1291 1.463 . S
C1294 N1298 1.427 . S
C1295 H1285 0.929 . S
C1295 C1293 1.433 . S
C1295 N1298 1.384 . S
C1296 H1287 0.929 . S
C1296 C1288 1.378 . S
C1296 C1291 1.350 . S
C1297 H1284 0.929 . S
C1297 C1289 1.433 . S
C1297 N1299 1.384 . S
N1298 C1294 1.427 . S
N1298 C1295 1.384 . S
N1299 C1291 1.427 . S
N1299 C1297 1.384 . S
H1300 C1306 0.930 . S
H1301 C1310 0.930 . S
H1302 C1315 0.929 . S
H1303 C1313 0.929 . S
H1304 C1308 0.929 . S
H1305 C1314 0.929 . S
C1306 H1300 0.930 . S
C1306 C1307 1.367 . S
C1306 C1314 1.378 . S
C1307 C1306 1.367 . S
C1307 C1315 1.433 . S
C1308 H1304 0.929 . S
C1308 C1310 1.378 . S
C1308 C1312 1.350 . S
C1309 C1312 1.463 . S
C1309 C1314 1.350 . S
C1309 N1317 1.427 . S
C1310 H1301 0.930 . S
C1310 C1308 1.378 . S
C1310 C1311 1.367 . S
C1311 C1310 1.367 . S
C1311 C1313 1.433 . S
C1312 C1308 1.350 . S
C1312 C1309 1.463 . S
C1312 N1316 1.427 . S
C1313 H1303 0.929 . S
C1313 C1311 1.433 . S
C1313 N1316 1.384 . S
C1314 H1305 0.929 . S
C1314 C1306 1.378 . S
C1314 C1309 1.350 . S
C1315 H1302 0.929 . S
C1315 C1307 1.433 . S
C1315 N1317 1.384 . S
N1316 C1312 1.427 . S
N1316 C1313 1.384 . S
N1317 C1309 1.427 . S
N1317 C1315 1.384 . S
H1318 C1324 0.930 . S
H1319 C1328 0.930 . S
H1320 C1333 0.929 . S
H1321 C1331 0.929 . S
H1322 C1326 0.929 . S
H1323 C1332 0.929 . S
C1324 H1318 0.930 . S
C1324 C1325 1.367 . S
C1324 C1332 1.378 . S
C1325 C1324 1.367 . S
C1325 C1333 1.433 . S
C1326 H1322 0.929 . S
C1326 C1328 1.378 . S
C1326 C1330 1.350 . S
C1327 C1330 1.463 . S
C1327 C1332 1.350 . S
C1327 N1335 1.427 . S
C1328 H1319 0.930 . S
C1328 C1326 1.378 . S
C1328 C1329 1.367 . S
C1329 C1328 1.367 . S
C1329 C1331 1.433 . S
C1330 C1326 1.350 . S
C1330 C1327 1.463 . S
C1330 N1334 1.427 . S
C1331 H1321 0.929 . S
C1331 C1329 1.433 . S
C1331 N1334 1.384 . S
C1332 H1323 0.929 . S
C1332 C1324 1.378 . S
C1332 C1327 1.350 . S
C1333 H1320 0.929 . S
C1333 C1325 1.433 . S
C1333 N1335 1.384 . S
N1334 C1330 1.427 . S
N1334 C1331 1.384 . S
N1335 C1327 1.427 . S
N1335 C1333 1.384 . S
H1336 C1342 0.930 . S
H1337 C1346 0.930 . S
H1338 C1351 0.929 . S
H1339 C1349 0.929 . S
H1340 C1344 0.929 . S
H1341 C1350 0.929 . S
C1342 H1336 0.930 . S
C1342 C1343 1.367 . S
C1342 C1350 1.378 . S
C1343 C1342 1.367 . S
C1343 C1351 1.433 . S
C1344 H1340 0.929 . S
C1344 C1346 1.378 . S
C1344 C1348 1.350 . S
C1345 C1348 1.463 . S
C1345 C1350 1.350 . S
C1345 N1353 1.427 . S
C1346 H1337 0.930 . S
C1346 C1344 1.378 . S
C1346 C1347 1.367 . S
C1347 C1346 1.367 . S
C1347 C1349 1.433 . S
C1348 C1344 1.350 . S
C1348 C1345 1.463 . S
C1348 N1352 1.427 . S
C1349 H1339 0.929 . S
C1349 C1347 1.433 . S
C1349 N1352 1.384 . S
C1350 H1341 0.929 . S
C1350 C1342 1.378 . S
C1350 C1345 1.350 . S
C1351 H1338 0.929 . S
C1351 C1343 1.433 . S
C1351 N1353 1.384 . S
N1352 C1348 1.427 . S
N1352 C1349 1.384 . S
N1353 C1345 1.427 . S
N1353 C1351 1.384 . S
H1354 C1360 0.930 . S
H1355 C1364 0.930 . S
H1356 C1369 0.929 . S
H1357 C1367 0.929 . S
H1358 C1362 0.929 . S
H1359 C1368 0.929 . S
C1360 H1354 0.930 . S
C1360 C1361 1.367 . S
C1360 C1368 1.378 . S
C1361 C1360 1.367 . S
C1361 C1369 1.433 . S
C1362 H1358 0.929 . S
C1362 C1364 1.378 . S
C1362 C1366 1.350 . S
C1363 C1366 1.463 . S
C1363 C1368 1.350 . S
C1363 N1371 1.427 . S
C1364 H1355 0.930 . S
C1364 C1362 1.378 . S
C1364 C1365 1.367 . S
C1365 C1364 1.367 . S
C1365 C1367 1.433 . S
C1366 C1362 1.350 . S
C1366 C1363 1.463 . S
C1366 N1370 1.427 . S
C1367 H1357 0.929 . S
C1367 C1365 1.433 . S
C1367 N1370 1.384 . S
C1368 H1359 0.929 . S
C1368 C1360 1.378 . S
C1368 C1363 1.350 . S
C1369 H1356 0.929 . S
C1369 C1361 1.433 . S
C1369 N1371 1.384 . S
N1370 C1366 1.427 . S
N1370 C1367 1.384 . S
N1371 C1363 1.427 . S
N1371 C1369 1.384 . S
H1372 C1378 0.930 . S
H1373 C1382 0.930 . S
H1374 C1387 0.929 . S
H1375 C1385 0.929 . S
H1376 C1380 0.929 . S
H1377 C1386 0.929 . S
C1378 H1372 0.930 . S
C1378 C1379 1.367 . S
C1378 C1386 1.378 . S
C1379 C1378 1.367 . S
C1379 C1387 1.433 . S
C1380 H1376 0.929 . S
C1380 C1382 1.378 . S
C1380 C1384 1.350 . S
C1381 C1384 1.463 . S
C1381 C1386 1.350 . S
C1381 N1389 1.427 . S
C1382 H1373 0.930 . S
C1382 C1380 1.378 . S
C1382 C1383 1.367 . S
C1383 C1382 1.367 . S
C1383 C1385 1.433 . S
C1384 C1380 1.350 . S
C1384 C1381 1.463 . S
C1384 N1388 1.427 . S
C1385 H1375 0.929 . S
C1385 C1383 1.433 . S
C1385 N1388 1.384 . S
C1386 H1377 0.929 . S
C1386 C1378 1.378 . S
C1386 C1381 1.350 . S
C1387 H1374 0.929 . S
C1387 C1379 1.433 . S
C1387 N1389 1.384 . S
N1388 C1384 1.427 . S
N1388 C1385 1.384 . S
N1389 C1381 1.427 . S
N1389 C1387 1.384 . S
H1390 C1396 0.930 . S
H1391 C1400 0.930 . S
H1392 C1405 0.929 . S
H1393 C1403 0.929 . S
H1394 C1398 0.929 . S
H1395 C1404 0.929 . S
C1396 H1390 0.930 . S
C1396 C1397 1.367 . S
C1396 C1404 1.378 . S
C1397 C1396 1.367 . S
C1397 C1405 1.433 . S
C1398 H1394 0.929 . S
C1398 C1400 1.378 . S
C1398 C1402 1.350 . S
C1399 C1402 1.463 . S
C1399 C1404 1.350 . S
C1399 N1407 1.427 . S
C1400 H1391 0.930 . S
C1400 C1398 1.378 . S
C1400 C1401 1.367 . S
C1401 C1400 1.367 . S
C1401 C1403 1.433 . S
C1402 C1398 1.350 . S
C1402 C1399 1.463 . S
C1402 N1406 1.427 . S
C1403 H1393 0.929 . S
C1403 C1401 1.433 . S
C1403 N1406 1.384 . S
C1404 H1395 0.929 . S
C1404 C1396 1.378 . S
C1404 C1399 1.350 . S
C1405 H1392 0.929 . S
C1405 C1397 1.433 . S
C1405 N1407 1.384 . S
N1406 C1402 1.427 . S
N1406 C1403 1.384 . S
N1407 C1399 1.427 . S
N1407 C1405 1.384 . S
H1408 C1414 0.930 . S
H1409 C1418 0.930 . S
H1410 C1423 0.929 . S
H1411 C1421 0.929 . S
H1412 C1416 0.929 . S
H1413 C1422 0.929 . S
C1414 H1408 0.930 . S
C1414 C1415 1.367 . S
C1414 C1422 1.378 . S
C1415 C1414 1.367 . S
C1415 C1423 1.433 . S
C1416 H1412 0.929 . S
C1416 C1418 1.378 . S
C1416 C1420 1.350 . S
C1417 C1420 1.463 . S
C1417 C1422 1.350 . S
C1417 N1425 1.427 . S
C1418 H1409 0.930 . S
C1418 C1416 1.378 . S
C1418 C1419 1.367 . S
C1419 C1418 1.367 . S
C1419 C1421 1.433 . S
C1420 C1416 1.350 . S
C1420 C1417 1.463 . S
C1420 N1424 1.427 . S
C1421 H1411 0.929 . S
C1421 C1419 1.433 . S
C1421 N1424 1.384 . S
C1422 H1413 0.929 . S
C1422 C1414 1.378 . S
C1422 C1417 1.350 . S
C1423 H1410 0.929 . S
C1423 C1415 1.433 . S
C1423 N1425 1.384 . S
N1424 C1420 1.427 . S
N1424 C1421 1.384 . S
N1425 C1417 1.427 . S
N1425 C1423 1.384 . S
H1426 C1432 0.930 . S
H1427 C1436 0.930 . S
H1428 C1441 0.929 . S
H1429 C1439 0.929 . S
H1430 C1434 0.929 . S
H1431 C1440 0.929 . S
C1432 H1426 0.930 . S
C1432 C1433 1.367 . S
C1432 C1440 1.378 . S
C1433 C1432 1.367 . S
C1433 C1441 1.433 . S
C1434 H1430 0.929 . S
C1434 C1436 1.378 . S
C1434 C1438 1.350 . S
C1435 C1438 1.463 . S
C1435 C1440 1.350 . S
C1435 N1443 1.427 . S
C1436 H1427 0.930 . S
C1436 C1434 1.378 . S
C1436 C1437 1.367 . S
C1437 C1436 1.367 . S
C1437 C1439 1.433 . S
C1438 C1434 1.350 . S
C1438 C1435 1.463 . S
C1438 N1442 1.427 . S
C1439 H1429 0.929 . S
C1439 C1437 1.433 . S
C1439 N1442 1.384 . S
C1440 H1431 0.929 . S
C1440 C1432 1.378 . S
C1440 C1435 1.350 . S
C1441 H1428 0.929 . S
C1441 C1433 1.433 . S
C1441 N1443 1.384 . S
N1442 C1438 1.427 . S
N1442 C1439 1.384 . S
N1443 C1435 1.427 . S
N1443 C1441 1.384 . S
H1444 C1450 0.930 . S
H1445 C1454 0.930 . S
H1446 C1459 0.929 . S
H1447 C1457 0.929 . S
H1448 C1452 0.929 . S
H1449 C1458 0.929 . S
C1450 H1444 0.930 . S
C1450 C1451 1.367 . S
C1450 C1458 1.378 . S
C1451 C1450 1.367 . S
C1451 C1459 1.433 . S
C1452 H1448 0.929 . S
C1452 C1454 1.378 . S
C1452 C1456 1.350 . S
C1453 C1456 1.463 . S
C1453 C1458 1.350 . S
C1453 N1461 1.427 . S
C1454 H1445 0.930 . S
C1454 C1452 1.378 . S
C1454 C1455 1.367 . S
C1455 C1454 1.367 . S
C1455 C1457 1.433 . S
C1456 C1452 1.350 . S
C1456 C1453 1.463 . S
C1456 N1460 1.427 . S
C1457 H1447 0.929 . S
C1457 C1455 1.433 . S
C1457 N1460 1.384 . S
C1458 H1449 0.929 . S
C1458 C1450 1.378 . S
C1458 C1453 1.350 . S
C1459 H1446 0.929 . S
C1459 C1451 1.433 . S
C1459 N1461 1.384 . S
N1460 C1456 1.427 . S
N1460 C1457 1.384 . S
N1461 C1453 1.427 . S
N1461 C1459 1.384 . S
H1462 C1468 0.930 . S
H1463 C1472 0.930 . S
H1464 C1477 0.929 . S
H1465 C1475 0.929 . S
H1466 C1470 0.929 . S
H1467 C1476 0.929 . S
C1468 H1462 0.930 . S
C1468 C1469 1.367 . S
C1468 C1476 1.378 . S
C1469 C1468 1.367 . S
C1469 C1477 1.433 . S
C1470 H1466 0.929 . S
C1470 C1472 1.378 . S
C1470 C1474 1.350 . S
C1471 C1474 1.463 . S
C1471 C1476 1.350 . S
C1471 N1479 1.427 . S
C1472 H1463 0.930 . S
C1472 C1470 1.378 . S
C1472 C1473 1.367 . S
C1473 C1472 1.367 . S
C1473 C1475 1.433 . S
C1474 C1470 1.350 . S
C1474 C1471 1.463 . S
C1474 N1478 1.427 . S
C1475 H1465 0.929 . S
C1475 C1473 1.433 . S
C1475 N1478 1.384 . S
C1476 H1467 0.929 . S
C1476 C1468 1.378 . S
C1476 C1471 1.350 . S
C1477 H1464 0.929 . S
C1477 C1469 1.433 . S
C1477 N1479 1.384 . S
N1478 C1474 1.427 . S
N1478 C1475 1.384 . S
N1479 C1471 1.427 . S
N1479 C1477 1.384 . S
H1480 C1486 0.930 . S
H1481 C1490 0.930 . S
H1482 C1495 0.929 . S
H1483 C1493 0.929 . S
H1484 C1488 0.929 . S
H1485 C1494 0.929 . S
C1486 H1480 0.930 . S
C1486 C1487 1.367 . S
C1486 C1494 1.378 . S
C1487 C1486 1.367 . S
C1487 C1495 1.433 1_655 S
C1488 H1484 0.929 . S
C1488 C1490 1.378 . S
C1488 C1492 1.350 . S
C1489 C1492 1.463 . S
C1489 C1494 1.350 1_455 S
C1489 N1497 1.427 . S
C1490 H1481 0.930 . S
C1490 C1488 1.378 . S
C1490 C1491 1.367 . S
C1491 C1490 1.367 . S
C1491 C1493 1.433 1_455 S
C1492 C1488 1.350 . S
C1492 C1489 1.463 . S
C1492 N1496 1.427 1_455 S
C1493 H1483 0.929 . S
C1493 C1491 1.433 1_655 S
C1493 N1496 1.384 . S
C1494 H1485 0.929 . S
C1494 C1486 1.378 . S
C1494 C1489 1.350 1_655 S
C1495 H1482 0.929 . S
C1495 C1487 1.433 1_455 S
C1495 N1497 1.384 . S
N1496 C1492 1.427 1_655 S
N1496 C1493 1.384 . S
N1497 C1489 1.427 . S
N1497 C1495 1.384 . S
H1498 C1504 0.930 . S
H1499 C1508 0.930 . S
H1500 C1513 0.929 . S
H1501 C1511 0.929 . S
H1502 C1506 0.929 . S
H1503 C1512 0.929 . S
C1504 H1498 0.930 . S
C1504 C1505 1.367 . S
C1504 C1512 1.378 . S
C1505 C1504 1.367 . S
C1505 C1513 1.433 . S
C1506 H1502 0.929 . S
C1506 C1508 1.378 . S
C1506 C1510 1.350 . S
C1507 C1510 1.463 . S
C1507 C1512 1.350 . S
C1507 N1515 1.427 . S
C1508 H1499 0.930 . S
C1508 C1506 1.378 . S
C1508 C1509 1.367 . S
C1509 C1508 1.367 . S
C1509 C1511 1.433 . S
C1510 C1506 1.350 . S
C1510 C1507 1.463 . S
C1510 N1514 1.427 . S
C1511 H1501 0.929 . S
C1511 C1509 1.433 . S
C1511 N1514 1.384 . S
C1512 H1503 0.929 . S
C1512 C1504 1.378 . S
C1512 C1507 1.350 . S
C1513 H1500 0.929 . S
C1513 C1505 1.433 . S
C1513 N1515 1.384 . S
N1514 C1510 1.427 . S
N1514 C1511 1.384 . S
N1515 C1507 1.427 . S
N1515 C1513 1.384 . S
H1516 C1522 0.930 . S
H1517 C1526 0.930 . S
H1518 C1531 0.929 . S
H1519 C1529 0.929 . S
H1520 C1524 0.929 . S
H1521 C1530 0.929 . S
C1522 H1516 0.930 . S
C1522 C1523 1.367 . S
C1522 C1530 1.378 . S
C1523 C1522 1.367 . S
C1523 C1531 1.433 . S
C1524 H1520 0.929 . S
C1524 C1526 1.378 1_556 S
C1524 C1528 1.350 . S
C1525 C1528 1.463 . S
C1525 C1530 1.350 . S
C1525 N1533 1.427 . S
C1526 H1517 0.930 . S
C1526 C1524 1.378 1_554 S
C1526 C1527 1.367 . S
C1527 C1526 1.367 . S
C1527 C1529 1.433 . S
C1528 C1524 1.350 . S
C1528 C1525 1.463 . S
C1528 N1532 1.427 1_556 S
C1529 H1519 0.929 . S
C1529 C1527 1.433 . S
C1529 N1532 1.384 . S
C1530 H1521 0.929 . S
C1530 C1522 1.378 . S
C1530 C1525 1.350 . S
C1531 H1518 0.929 . S
C1531 C1523 1.433 . S
C1531 N1533 1.384 . S
N1532 C1528 1.427 1_554 S
N1532 C1529 1.384 . S
N1533 C1525 1.427 . S
N1533 C1531 1.384 . S
H1534 C1540 0.930 . S
H1535 C1544 0.930 . S
H1536 C1549 0.929 . S
H1537 C1547 0.929 . S
H1538 C1542 0.929 . S
H1539 C1548 0.929 . S
C1540 H1534 0.930 . S
C1540 C1541 1.367 . S
C1540 C1548 1.378 . S
C1541 C1540 1.367 . S
C1541 C1549 1.433 1_655 S
C1542 H1538 0.929 . S
C1542 C1544 1.378 . S
C1542 C1546 1.350 . S
C1543 C1546 1.463 . S
C1543 C1548 1.350 . S
C1543 N1551 1.427 . S
C1544 H1535 0.930 . S
C1544 C1542 1.378 . S
C1544 C1545 1.367 . S
C1545 C1544 1.367 . S
C1545 C1547 1.433 . S
C1546 C1542 1.350 . S
C1546 C1543 1.463 . S
C1546 N1550 1.427 . S
C1547 H1537 0.929 . S
C1547 C1545 1.433 . S
C1547 N1550 1.384 . S
C1548 H1539 0.929 . S
C1548 C1540 1.378 . S
C1548 C1543 1.350 . S
C1549 H1536 0.929 . S
C1549 C1541 1.433 1_455 S
C1549 N1551 1.384 1_455 S
N1550 C1546 1.427 . S
N1550 C1547 1.384 . S
N1551 C1543 1.427 . S
N1551 C1549 1.384 1_655 S
H1552 C1558 0.930 . S
H1553 C1562 0.930 . S
H1554 C1567 0.929 . S
H1555 C1565 0.924 1_554 S
H1556 C1560 0.929 . S
H1557 C1566 0.929 . S
C1558 H1552 0.930 . S
C1558 C1559 1.367 . S
C1558 C1566 1.378 . S
C1559 C1558 1.367 . S
C1559 C1567 1.433 . S
C1560 H1556 0.929 . S
C1560 C1562 1.378 . S
C1560 C1564 1.350 . S
C1561 C1564 1.463 . S
C1561 C1566 1.350 . S
C1561 N1569 1.427 . S
C1562 H1553 0.930 . S
C1562 C1560 1.378 . S
C1562 C1563 1.367 . S
C1563 C1562 1.367 . S
C1563 C1565 1.433 . S
C1564 C1560 1.350 . S
C1564 C1561 1.463 . S
C1564 N1568 1.427 . S
C1565 H1555 0.924 1_556 S
C1565 C1563 1.433 . S
C1565 N1568 1.384 . S
C1566 H1557 0.929 . S
C1566 C1558 1.378 . S
C1566 C1561 1.350 . S
C1567 H1554 0.929 . S
C1567 C1559 1.433 . S
C1567 N1569 1.384 . S
N1568 C1564 1.427 . S
N1568 C1565 1.384 . S
N1569 C1561 1.427 . S
N1569 C1567 1.384 . S
H1570 C1576 0.930 . S
H1571 C1580 0.930 . S
H1572 C1585 0.929 . S
H1573 C1583 0.929 . S
H1574 C1578 0.929 . S
H1575 C1584 0.929 . S
C1576 H1570 0.930 . S
C1576 C1577 1.367 . S
C1576 C1584 1.378 . S
C1577 C1576 1.367 . S
C1577 C1585 1.433 . S
C1578 H1574 0.929 . S
C1578 C1580 1.378 . S
C1578 C1582 1.350 . S
C1579 C1582 1.463 . S
C1579 C1584 1.350 . S
C1579 N1587 1.427 . S
C1580 H1571 0.930 . S
C1580 C1578 1.378 . S
C1580 C1581 1.367 . S
C1581 C1580 1.367 . S
C1581 C1583 1.433 . S
C1582 C1578 1.350 . S
C1582 C1579 1.463 . S
C1582 N1586 1.427 . S
C1583 H1573 0.929 . S
C1583 C1581 1.433 . S
C1583 N1586 1.384 . S
C1584 H1575 0.929 . S
C1584 C1576 1.378 . S
C1584 C1579 1.350 . S
C1585 H1572 0.929 . S
C1585 C1577 1.433 . S
C1585 N1587 1.384 . S
N1586 C1582 1.427 . S
N1586 C1583 1.384 . S
N1587 C1579 1.427 . S
N1587 C1585 1.384 . S
H1588 C1594 0.930 . S
H1589 C1598 0.930 . S
H1590 C1603 0.929 . S
H1591 C1601 0.929 . S
H1592 C1596 0.929 . S
H1593 C1602 0.929 . S
C1594 H1588 0.930 . S
C1594 C1595 1.367 . S
C1594 C1602 1.378 . S
C1595 C1594 1.367 . S
C1595 C1603 1.433 . S
C1596 H1592 0.929 . S
C1596 C1598 1.378 . S
C1596 C1600 1.350 . S
C1597 C1600 1.463 . S
C1597 C1602 1.350 . S
C1597 N1605 1.427 . S
C1598 H1589 0.930 . S
C1598 C1596 1.378 . S
C1598 C1599 1.367 . S
C1599 C1598 1.367 . S
C1599 C1601 1.433 . S
C1600 C1596 1.350 . S
C1600 C1597 1.463 . S
C1600 N1604 1.427 . S
C1601 H1591 0.929 . S
C1601 C1599 1.433 . S
C1601 N1604 1.384 . S
C1602 H1593 0.929 . S
C1602 C1594 1.378 . S
C1602 C1597 1.350 . S
C1603 H1590 0.929 . S
C1603 C1595 1.433 . S
C1603 N1605 1.384 . S
N1604 C1600 1.427 . S
N1604 C1601 1.384 . S
N1605 C1597 1.427 . S
N1605 C1603 1.384 . S
H1606 C1612 0.930 . S
H1607 C1616 0.930 . S
H1608 C1621 0.929 . S
H1609 C1619 0.929 . S
H1610 C1614 0.929 . S
H1611 C1620 0.929 . S
C1612 H1606 0.930 . S
C1612 C1613 1.367 . S
C1612 C1620 1.378 . S
C1613 C1612 1.367 . S
C1613 C1621 1.433 . S
C1614 H1610 0.929 . S
C1614 C1616 1.378 . S
C1614 C1618 1.350 . S
C1615 C1618 1.463 . S
C1615 C1620 1.350 . S
C1615 N1623 1.427 . S
C1616 H1607 0.930 . S
C1616 C1614 1.378 . S
C1616 C1617 1.367 . S
C1617 C1616 1.367 . S
C1617 C1619 1.433 . S
C1618 C1614 1.350 . S
C1618 C1615 1.463 . S
C1618 N1622 1.427 . S
C1619 H1609 0.929 . S
C1619 C1617 1.433 . S
C1619 N1622 1.384 . S
C1620 H1611 0.929 . S
C1620 C1612 1.378 . S
C1620 C1615 1.350 . S
C1621 H1608 0.929 . S
C1621 C1613 1.433 . S
C1621 N1623 1.384 . S
N1622 C1618 1.427 . S
N1622 C1619 1.384 . S
N1623 C1615 1.427 . S
N1623 C1621 1.384 . S
H1624 C1630 0.930 1_565 S
H1625 C1634 0.930 . S
H1626 C1639 0.929 . S
H1627 C1637 0.929 1_565 S
H1628 C1632 0.929 . S
H1629 C1638 0.929 1_565 S
C1630 H1624 0.930 1_545 S
C1630 C1631 1.367 . S
C1630 C1638 1.378 . S
C1631 C1630 1.367 . S
C1631 C1639 1.433 . S
C1632 H1628 0.929 . S
C1632 C1634 1.378 . S
C1632 C1636 1.350 . S
C1633 C1636 1.463 . S
C1633 C1638 1.350 . S
C1633 N1641 1.427 . S
C1634 H1625 0.930 . S
C1634 C1632 1.378 . S
C1634 C1635 1.367 . S
C1635 C1634 1.367 . S
C1635 C1637 1.433 . S
C1636 C1632 1.350 . S
C1636 C1633 1.463 . S
C1636 N1640 1.427 . S
C1637 H1627 0.929 1_545 S
C1637 C1635 1.433 . S
C1637 N1640 1.384 . S
C1638 H1629 0.929 1_545 S
C1638 C1630 1.378 . S
C1638 C1633 1.350 . S
C1639 H1626 0.929 . S
C1639 C1631 1.433 . S
C1639 N1641 1.384 . S
N1640 C1636 1.427 . S
N1640 C1637 1.384 . S
N1641 C1633 1.427 . S
N1641 C1639 1.384 . S
H1642 C1648 0.930 . S
H1643 C1652 0.930 . S
H1644 C1657 0.929 . S
H1645 C1655 0.929 . S
H1646 C1650 0.929 . S
H1647 C1656 0.929 . S
C1648 H1642 0.930 . S
C1648 C1649 1.367 . S
C1648 C1656 1.378 . S
C1649 C1648 1.367 . S
C1649 C1657 1.433 . S
C1650 H1646 0.929 . S
C1650 C1652 1.378 . S
C1650 C1654 1.350 . S
C1651 C1654 1.463 . S
C1651 C1656 1.350 . S
C1651 N1659 1.427 . S
C1652 H1643 0.930 . S
C1652 C1650 1.378 . S
C1652 C1653 1.367 . S
C1653 C1652 1.367 . S
C1653 C1655 1.433 . S
C1654 C1650 1.350 . S
C1654 C1651 1.463 . S
C1654 N1658 1.427 . S
C1655 H1645 0.929 . S
C1655 C1653 1.433 . S
C1655 N1658 1.384 . S
C1656 H1647 0.929 . S
C1656 C1648 1.378 . S
C1656 C1651 1.350 . S
C1657 H1644 0.929 . S
C1657 C1649 1.433 . S
C1657 N1659 1.384 . S
N1658 C1654 1.427 . S
N1658 C1655 1.384 . S
N1659 C1651 1.427 . S
N1659 C1657 1.384 . S
H1660 C1666 0.930 . S
H1661 C1670 0.930 . S
H1662 C1675 0.929 . S
H1663 C1673 0.929 . S
H1664 C1668 0.929 . S
H1665 C1674 0.929 . S
C1666 H1660 0.930 . S
C1666 C1667 1.367 . S
C1666 C1674 1.378 . S
C1667 C1666 1.367 . S
C1667 C1675 1.433 1_545 S
C1668 H1664 0.929 . S
C1668 C1670 1.378 . S
C1668 C1672 1.350 1_565 S
C1669 C1672 1.463 . S
C1669 C1674 1.350 . S
C1669 N1677 1.427 1_545 S
C1670 H1661 0.930 . S
C1670 C1668 1.378 . S
C1670 C1671 1.367 1_565 S
C1671 C1670 1.367 1_545 S
C1671 C1673 1.433 . S
C1672 C1668 1.350 1_545 S
C1672 C1669 1.463 . S
C1672 N1676 1.427 . S
C1673 H1663 0.929 . S
C1673 C1671 1.433 . S
C1673 N1676 1.384 . S
C1674 H1665 0.929 . S
C1674 C1666 1.378 . S
C1674 C1669 1.350 . S
C1675 H1662 0.929 . S
C1675 C1667 1.433 1_565 S
C1675 N1677 1.384 . S
N1676 C1672 1.427 . S
N1676 C1673 1.384 . S
N1677 C1669 1.427 1_565 S
N1677 C1675 1.384 . S
H1678 C1684 0.930 . S
H1679 C1688 0.930 . S
H1680 C1693 0.929 . S
H1681 C1691 0.929 . S
H1682 C1686 0.929 . S
H1683 C1692 0.929 . S
C1684 H1678 0.930 . S
C1684 C1685 1.367 . S
C1684 C1692 1.378 . S
C1685 C1684 1.367 . S
C1685 C1693 1.433 . S
C1686 H1682 0.929 . S
C1686 C1688 1.378 . S
C1686 C1690 1.350 . S
C1687 C1690 1.463 . S
C1687 C1692 1.350 . S
C1687 N1695 1.427 . S
C1688 H1679 0.930 . S
C1688 C1686 1.378 . S
C1688 C1689 1.367 . S
C1689 C1688 1.367 . S
C1689 C1691 1.433 . S
C1690 C1686 1.350 . S
C1690 C1687 1.463 . S
C1690 N1694 1.427 . S
C1691 H1681 0.929 . S
C1691 C1689 1.433 . S
C1691 N1694 1.384 . S
C1692 H1683 0.929 . S
C1692 C1684 1.378 . S
C1692 C1687 1.350 . S
C1693 H1680 0.929 . S
C1693 C1685 1.433 . S
C1693 N1695 1.384 . S
N1694 C1690 1.427 . S
N1694 C1691 1.384 . S
N1695 C1687 1.427 . S
N1695 C1693 1.384 . S
H1696 C1702 0.930 . S
H1697 C1706 0.930 . S
H1698 C1711 0.929 . S
H1699 C1709 0.929 . S
H1700 C1704 0.929 . S
H1701 C1710 0.929 . S
C1702 H1696 0.930 . S
C1702 C1703 1.367 . S
C1702 C1710 1.378 . S
C1703 C1702 1.367 . S
C1703 C1711 1.433 . S
C1704 H1700 0.929 . S
C1704 C1706 1.378 . S
C1704 C1708 1.350 . S
C1705 C1708 1.463 . S
C1705 C1710 1.350 . S
C1705 N1713 1.427 . S
C1706 H1697 0.930 . S
C1706 C1704 1.378 . S
C1706 C1707 1.367 . S
C1707 C1706 1.367 . S
C1707 C1709 1.433 . S
C1708 C1704 1.350 . S
C1708 C1705 1.463 . S
C1708 N1712 1.427 . S
C1709 H1699 0.929 . S
C1709 C1707 1.433 . S
C1709 N1712 1.384 . S
C1710 H1701 0.929 . S
C1710 C1702 1.378 . S
C1710 C1705 1.350 . S
C1711 H1698 0.929 . S
C1711 C1703 1.433 . S
C1711 N1713 1.384 . S
N1712 C1708 1.427 . S
N1712 C1709 1.384 . S
N1713 C1705 1.427 . S
N1713 C1711 1.384 . S
H1714 C1720 0.930 . S
H1715 C1724 0.930 . S
H1716 C1729 0.929 . S
H1717 C1727 0.929 . S
H1718 C1722 0.929 . S
H1719 C1728 0.929 . S
C1720 H1714 0.930 . S
C1720 C1721 1.367 . S
C1720 C1728 1.378 . S
C1721 C1720 1.367 . S
C1721 C1729 1.433 . S
C1722 H1718 0.929 . S
C1722 C1724 1.378 . S
C1722 C1726 1.350 . S
C1723 C1726 1.463 . S
C1723 C1728 1.350 . S
C1723 N1731 1.427 . S
C1724 H1715 0.930 . S
C1724 C1722 1.378 . S
C1724 C1725 1.367 . S
C1725 C1724 1.367 . S
C1725 C1727 1.433 . S
C1726 C1722 1.350 . S
C1726 C1723 1.463 . S
C1726 N1730 1.427 . S
C1727 H1717 0.929 . S
C1727 C1725 1.433 . S
C1727 N1730 1.384 . S
C1728 H1719 0.929 . S
C1728 C1720 1.378 . S
C1728 C1723 1.350 . S
C1729 H1716 0.929 . S
C1729 C1721 1.433 . S
C1729 N1731 1.384 . S
N1730 C1726 1.427 . S
N1730 C1727 1.384 . S
N1731 C1723 1.427 . S
N1731 C1729 1.384 . S
H1732 C1738 0.930 . S
H1733 C1742 0.930 . S
H1734 C1747 0.929 . S
H1735 C1745 0.929 . S
H1736 C1740 0.929 . S
H1737 C1746 0.929 . S
C1738 H1732 0.930 . S
C1738 C1739 1.367 . S
C1738 C1746 1.378 . S
C1739 C1738 1.367 . S
C1739 C1747 1.433 . S
C1740 H1736 0.929 . S
C1740 C1742 1.378 . S
C1740 C1744 1.350 . S
C1741 C1744 1.463 . S
C1741 C1746 1.350 . S
C1741 N1749 1.427 . S
C1742 H1733 0.930 . S
C1742 C1740 1.378 . S
C1742 C1743 1.367 . S
C1743 C1742 1.367 . S
C1743 C1745 1.433 . S
C1744 C1740 1.350 . S
C1744 C1741 1.463 . S
C1744 N1748 1.427 . S
C1745 H1735 0.929 . S
C1745 C1743 1.433 . S
C1745 N1748 1.384 . S
C1746 H1737 0.929 . S
C1746 C1738 1.378 . S
C1746 C1741 1.350 . S
C1747 H1734 0.929 . S
C1747 C1739 1.433 . S
C1747 N1749 1.384 . S
N1748 C1744 1.427 . S
N1748 C1745 1.384 . S
N1749 C1741 1.427 . S
N1749 C1747 1.384 . S
H1750 C1756 0.930 . S
H1751 C1760 0.930 . S
H1752 C1765 0.929 . S
H1753 C1763 0.929 . S
H1754 C1758 0.929 . S
H1755 C1764 0.929 . S
C1756 H1750 0.930 . S
C1756 C1757 1.367 . S
C1756 C1764 1.378 . S
C1757 C1756 1.367 . S
C1757 C1765 1.433 . S
C1758 H1754 0.929 . S
C1758 C1760 1.378 . S
C1758 C1762 1.350 . S
C1759 C1762 1.463 . S
C1759 C1764 1.350 . S
C1759 N1767 1.427 . S
C1760 H1751 0.930 . S
C1760 C1758 1.378 . S
C1760 C1761 1.367 . S
C1761 C1760 1.367 . S
C1761 C1763 1.433 . S
C1762 C1758 1.350 . S
C1762 C1759 1.463 . S
C1762 N1766 1.427 . S
C1763 H1753 0.929 . S
C1763 C1761 1.433 . S
C1763 N1766 1.384 . S
C1764 H1755 0.929 . S
C1764 C1756 1.378 . S
C1764 C1759 1.350 . S
C1765 H1752 0.929 . S
C1765 C1757 1.433 . S
C1765 N1767 1.384 . S
N1766 C1762 1.427 . S
N1766 C1763 1.384 . S
N1767 C1759 1.427 . S
N1767 C1765 1.384 . S
H1768 C1774 0.930 . S
H1769 C1778 0.930 . S
H1770 C1783 0.929 . S
H1771 C1781 0.929 . S
H1772 C1776 0.929 . S
H1773 C1782 0.929 . S
C1774 H1768 0.930 . S
C1774 C1775 1.367 . S
C1774 C1782 1.378 . S
C1775 C1774 1.367 . S
C1775 C1783 1.433 . S
C1776 H1772 0.929 . S
C1776 C1778 1.378 . S
C1776 C1780 1.350 . S
C1777 C1780 1.463 . S
C1777 C1782 1.350 . S
C1777 N1785 1.427 . S
C1778 H1769 0.930 . S
C1778 C1776 1.378 . S
C1778 C1779 1.367 . S
C1779 C1778 1.367 . S
C1779 C1781 1.433 . S
C1780 C1776 1.350 . S
C1780 C1777 1.463 . S
C1780 N1784 1.427 . S
C1781 H1771 0.929 . S
C1781 C1779 1.433 . S
C1781 N1784 1.384 . S
C1782 H1773 0.929 . S
C1782 C1774 1.378 . S
C1782 C1777 1.350 . S
C1783 H1770 0.929 . S
C1783 C1775 1.433 . S
C1783 N1785 1.384 . S
N1784 C1780 1.427 . S
N1784 C1781 1.384 . S
N1785 C1777 1.427 . S
N1785 C1783 1.384 . S
H1786 C1792 0.930 . S
H1787 C1796 0.930 . S
H1788 C1801 0.929 . S
H1789 C1799 0.929 . S
H1790 C1794 0.929 . S
H1791 C1800 0.929 . S
C1792 H1786 0.930 . S
C1792 C1793 1.367 . S
C1792 C1800 1.378 . S
C1793 C1792 1.367 . S
C1793 C1801 1.433 . S
C1794 H1790 0.929 . S
C1794 C1796 1.378 . S
C1794 C1798 1.350 . S
C1795 C1798 1.463 . S
C1795 C1800 1.350 . S
C1795 N1803 1.427 . S
C1796 H1787 0.930 . S
C1796 C1794 1.378 . S
C1796 C1797 1.367 . S
C1797 C1796 1.367 . S
C1797 C1799 1.433 . S
C1798 C1794 1.350 . S
C1798 C1795 1.463 . S
C1798 N1802 1.427 . S
C1799 H1789 0.929 . S
C1799 C1797 1.433 . S
C1799 N1802 1.384 . S
C1800 H1791 0.929 . S
C1800 C1792 1.378 . S
C1800 C1795 1.350 . S
C1801 H1788 0.929 . S
C1801 C1793 1.433 . S
C1801 N1803 1.384 . S
N1802 C1798 1.427 . S
N1802 C1799 1.384 . S
N1803 C1795 1.427 . S
N1803 C1801 1.384 . S
H1804 C1810 0.930 . S
H1805 C1814 0.930 . S
H1806 C1819 0.929 . S
H1807 C1817 0.929 . S
H1808 C1812 0.929 . S
H1809 C1818 0.929 . S
C1810 H1804 0.930 . S
C1810 C1811 1.367 . S
C1810 C1818 1.378 . S
C1811 C1810 1.367 . S
C1811 C1819 1.433 . S
C1812 H1808 0.929 . S
C1812 C1814 1.378 . S
C1812 C1816 1.350 . S
C1813 C1816 1.463 . S
C1813 C1818 1.350 . S
C1813 N1821 1.427 . S
C1814 H1805 0.930 . S
C1814 C1812 1.378 . S
C1814 C1815 1.367 . S
C1815 C1814 1.367 . S
C1815 C1817 1.433 . S
C1816 C1812 1.350 . S
C1816 C1813 1.463 . S
C1816 N1820 1.427 . S
C1817 H1807 0.929 . S
C1817 C1815 1.433 . S
C1817 N1820 1.384 . S
C1818 H1809 0.929 . S
C1818 C1810 1.378 . S
C1818 C1813 1.350 . S
C1819 H1806 0.929 . S
C1819 C1811 1.433 . S
C1819 N1821 1.384 . S
N1820 C1816 1.427 . S
N1820 C1817 1.384 . S
N1821 C1813 1.427 . S
N1821 C1819 1.384 . S
H1822 C1828 0.930 . S
H1823 C1832 0.930 . S
H1824 C1837 0.929 . S
H1825 C1835 0.929 . S
H1826 C1830 0.929 . S
H1827 C1836 0.929 . S
C1828 H1822 0.930 . S
C1828 C1829 1.367 . S
C1828 C1836 1.378 . S
C1829 C1828 1.367 . S
C1829 C1837 1.433 . S
C1830 H1826 0.929 . S
C1830 C1832 1.378 . S
C1830 C1834 1.350 . S
C1831 C1834 1.463 . S
C1831 C1836 1.350 . S
C1831 N1839 1.427 . S
C1832 H1823 0.930 . S
C1832 C1830 1.378 . S
C1832 C1833 1.367 . S
C1833 C1832 1.367 . S
C1833 C1835 1.433 . S
C1834 C1830 1.350 . S
C1834 C1831 1.463 . S
C1834 N1838 1.427 . S
C1835 H1825 0.929 . S
C1835 C1833 1.433 . S
C1835 N1838 1.384 . S
C1836 H1827 0.929 . S
C1836 C1828 1.378 . S
C1836 C1831 1.350 . S
C1837 H1824 0.929 . S
C1837 C1829 1.433 . S
C1837 N1839 1.384 . S
N1838 C1834 1.427 . S
N1838 C1835 1.384 . S
N1839 C1831 1.427 . S
N1839 C1837 1.384 . S
H1840 C1846 0.930 . S
H1841 C1850 0.930 . S
H1842 C1855 0.929 . S
H1843 C1853 0.929 . S
H1844 C1848 0.929 . S
H1845 C1854 0.929 . S
C1846 H1840 0.930 . S
C1846 C1847 1.367 . S
C1846 C1854 1.378 . S
C1847 C1846 1.367 . S
C1847 C1855 1.433 . S
C1848 H1844 0.929 . S
C1848 C1850 1.378 . S
C1848 C1852 1.350 . S
C1849 C1852 1.463 . S
C1849 C1854 1.350 . S
C1849 N1857 1.427 . S
C1850 H1841 0.930 . S
C1850 C1848 1.378 . S
C1850 C1851 1.367 . S
C1851 C1850 1.367 . S
C1851 C1853 1.433 . S
C1852 C1848 1.350 . S
C1852 C1849 1.463 . S
C1852 N1856 1.427 . S
C1853 H1843 0.929 . S
C1853 C1851 1.433 . S
C1853 N1856 1.384 . S
C1854 H1845 0.929 . S
C1854 C1846 1.378 . S
C1854 C1849 1.350 . S
C1855 H1842 0.929 . S
C1855 C1847 1.433 . S
C1855 N1857 1.384 . S
N1856 C1852 1.427 . S
N1856 C1853 1.384 . S
N1857 C1849 1.427 . S
N1857 C1855 1.384 . S
H1858 C1864 0.930 . S
H1859 C1868 0.930 . S
H1860 C1873 0.929 . S
H1861 C1871 0.929 . S
H1862 C1866 0.929 . S
H1863 C1872 0.929 . S
C1864 H1858 0.930 . S
C1864 C1865 1.367 . S
C1864 C1872 1.378 . S
C1865 C1864 1.367 . S
C1865 C1873 1.433 . S
C1866 H1862 0.929 . S
C1866 C1868 1.378 . S
C1866 C1870 1.350 . S
C1867 C1870 1.463 . S
C1867 C1872 1.350 . S
C1867 N1875 1.427 . S
C1868 H1859 0.930 . S
C1868 C1866 1.378 . S
C1868 C1869 1.367 . S
C1869 C1868 1.367 . S
C1869 C1871 1.433 . S
C1870 C1866 1.350 . S
C1870 C1867 1.463 . S
C1870 N1874 1.427 . S
C1871 H1861 0.929 . S
C1871 C1869 1.433 . S
C1871 N1874 1.384 . S
C1872 H1863 0.929 . S
C1872 C1864 1.378 . S
C1872 C1867 1.350 . S
C1873 H1860 0.929 . S
C1873 C1865 1.433 . S
C1873 N1875 1.384 . S
N1874 C1870 1.427 . S
N1874 C1871 1.384 . S
N1875 C1867 1.427 . S
N1875 C1873 1.384 . S
H1876 C1882 0.930 1_655 S
H1877 C1886 0.930 . S
H1878 C1891 0.929 . S
H1879 C1889 0.929 . S
H1880 C1884 0.929 . S
H1881 C1890 0.929 . S
C1882 H1876 0.930 1_455 S
C1882 C1883 1.367 . S
C1882 C1890 1.378 . S
C1883 C1882 1.367 . S
C1883 C1891 1.433 1_556 S
C1884 H1880 0.929 . S
C1884 C1886 1.378 . S
C1884 C1888 1.350 . S
C1885 C1888 1.463 . S
C1885 C1890 1.350 1_554 S
C1885 N1893 1.427 . S
C1886 H1877 0.930 . S
C1886 C1884 1.378 . S
C1886 C1887 1.367 . S
C1887 C1886 1.367 . S
C1887 C1889 1.433 . S
C1888 C1884 1.350 . S
C1888 C1885 1.463 . S
C1888 N1892 1.427 . S
C1889 H1879 0.929 . S
C1889 C1887 1.433 . S
C1889 N1892 1.384 . S
C1890 H1881 0.929 . S
C1890 C1882 1.378 . S
C1890 C1885 1.350 1_556 S
C1891 H1878 0.929 . S
C1891 C1883 1.433 1_554 S
C1891 N1893 1.384 . S
N1892 C1888 1.427 . S
N1892 C1889 1.384 . S
N1893 C1885 1.427 . S
N1893 C1891 1.384 . S
H1894 C1900 0.930 . S
H1895 C1904 0.930 . S
H1896 C1909 0.929 1_455 S
H1897 C1907 0.929 . S
H1898 C1902 0.929 . S
H1899 C1908 0.929 . S
C1900 H1894 0.930 . S
C1900 C1901 1.367 . S
C1900 C1908 1.378 . S
C1901 C1900 1.367 . S
C1901 C1909 1.433 . S
C1902 H1898 0.929 . S
C1902 C1904 1.378 . S
C1902 C1906 1.350 . S
C1903 C1906 1.463 . S
C1903 C1908 1.350 . S
C1903 N1911 1.427 . S
C1904 H1895 0.930 . S
C1904 C1902 1.378 . S
C1904 C1905 1.367 . S
C1905 C1904 1.367 . S
C1905 C1907 1.433 . S
C1906 C1902 1.350 . S
C1906 C1903 1.463 . S
C1906 N1910 1.427 . S
C1907 H1897 0.929 . S
C1907 C1905 1.433 . S
C1907 N1910 1.384 . S
C1908 H1899 0.929 . S
C1908 C1900 1.378 . S
C1908 C1903 1.350 . S
C1909 H1896 0.929 1_655 S
C1909 C1901 1.433 . S
C1909 N1911 1.384 . S
N1910 C1906 1.427 . S
N1910 C1907 1.384 . S
N1911 C1903 1.427 . S
N1911 C1909 1.384 . S
H1912 C1918 0.930 . S
H1913 C1922 0.930 . S
H1914 C1927 0.929 . S
H1915 C1925 0.929 . S
H1916 C1920 0.929 . S
H1917 C1926 0.929 . S
C1918 H1912 0.930 . S
C1918 C1919 1.367 . S
C1918 C1926 1.378 . S
C1919 C1918 1.367 . S
C1919 C1927 1.433 . S
C1920 H1916 0.929 . S
C1920 C1922 1.378 . S
C1920 C1924 1.350 . S
C1921 C1924 1.463 . S
C1921 C1926 1.350 . S
C1921 N1929 1.427 . S
C1922 H1913 0.930 . S
C1922 C1920 1.378 . S
C1922 C1923 1.367 . S
C1923 C1922 1.367 . S
C1923 C1925 1.433 . S
C1924 C1920 1.350 . S
C1924 C1921 1.463 . S
C1924 N1928 1.427 . S
C1925 H1915 0.929 . S
C1925 C1923 1.433 . S
C1925 N1928 1.384 . S
C1926 H1917 0.929 . S
C1926 C1918 1.378 . S
C1926 C1921 1.350 . S
C1927 H1914 0.929 . S
C1927 C1919 1.433 . S
C1927 N1929 1.384 . S
N1928 C1924 1.427 . S
N1928 C1925 1.384 . S
N1929 C1921 1.427 . S
N1929 C1927 1.384 . S
H1930 C1936 0.930 . S
H1931 C1940 0.930 . S
H1932 C1945 0.929 . S
H1933 C1943 0.929 . S
H1934 C1938 0.929 . S
H1935 C1944 0.929 . S
C1936 H1930 0.930 . S
C1936 C1937 1.367 . S
C1936 C1944 1.378 . S
C1937 C1936 1.367 . S
C1937 C1945 1.433 . S
C1938 H1934 0.929 . S
C1938 C1940 1.378 . S
C1938 C1942 1.350 . S
C1939 C1942 1.463 . S
C1939 C1944 1.350 . S
C1939 N1947 1.427 . S
C1940 H1931 0.930 . S
C1940 C1938 1.378 . S
C1940 C1941 1.367 . S
C1941 C1940 1.367 . S
C1941 C1943 1.433 . S
C1942 C1938 1.350 . S
C1942 C1939 1.463 . S
C1942 N1946 1.427 . S
C1943 H1933 0.929 . S
C1943 C1941 1.433 . S
C1943 N1946 1.384 . S
C1944 H1935 0.929 . S
C1944 C1936 1.378 . S
C1944 C1939 1.350 . S
C1945 H1932 0.929 . S
C1945 C1937 1.433 . S
C1945 N1947 1.384 . S
N1946 C1942 1.427 . S
N1946 C1943 1.384 . S
N1947 C1939 1.427 . S
N1947 C1945 1.384 . S
H1948 C1954 0.930 . S
H1949 C1958 0.930 . S
H1950 C1963 0.929 . S
H1951 C1961 0.929 . S
H1952 C1956 0.929 . S
H1953 C1962 0.929 . S
C1954 H1948 0.930 . S
C1954 C1955 1.367 . S
C1954 C1962 1.378 . S
C1955 C1954 1.367 . S
C1955 C1963 1.433 . S
C1956 H1952 0.929 . S
C1956 C1958 1.378 . S
C1956 C1960 1.350 . S
C1957 C1960 1.463 . S
C1957 C1962 1.350 . S
C1957 N1965 1.427 . S
C1958 H1949 0.930 . S
C1958 C1956 1.378 . S
C1958 C1959 1.367 . S
C1959 C1958 1.367 . S
C1959 C1961 1.433 . S
C1960 C1956 1.350 . S
C1960 C1957 1.463 . S
C1960 N1964 1.427 . S
C1961 H1951 0.929 . S
C1961 C1959 1.433 . S
C1961 N1964 1.384 . S
C1962 H1953 0.929 . S
C1962 C1954 1.378 . S
C1962 C1957 1.350 . S
C1963 H1950 0.929 . S
C1963 C1955 1.433 . S
C1963 N1965 1.384 . S
N1964 C1960 1.427 . S
N1964 C1961 1.384 . S
N1965 C1957 1.427 . S
N1965 C1963 1.384 . S
H1966 C1972 0.930 . S
H1967 C1976 0.930 . S
H1968 C1981 0.929 . S
H1969 C1979 0.929 . S
H1970 C1974 0.929 . S
H1971 C1980 0.929 . S
C1972 H1966 0.930 . S
C1972 C1973 1.367 . S
C1972 C1980 1.378 . S
C1973 C1972 1.367 . S
C1973 C1981 1.433 . S
C1974 H1970 0.929 . S
C1974 C1976 1.378 . S
C1974 C1978 1.350 . S
C1975 C1978 1.463 . S
C1975 C1980 1.350 . S
C1975 N1983 1.427 . S
C1976 H1967 0.930 . S
C1976 C1974 1.378 . S
C1976 C1977 1.367 . S
C1977 C1976 1.367 . S
C1977 C1979 1.433 . S
C1978 C1974 1.350 . S
C1978 C1975 1.463 . S
C1978 N1982 1.427 . S
C1979 H1969 0.929 . S
C1979 C1977 1.433 . S
C1979 N1982 1.384 . S
C1980 H1971 0.929 . S
C1980 C1972 1.378 . S
C1980 C1975 1.350 . S
C1981 H1968 0.929 . S
C1981 C1973 1.433 . S
C1981 N1983 1.384 . S
N1982 C1978 1.427 . S
N1982 C1979 1.384 . S
N1983 C1975 1.427 . S
N1983 C1981 1.384 . S
H1984 C1990 0.930 . S
H1985 C1994 0.930 . S
H1986 C1999 0.929 . S
H1987 C1997 0.929 . S
H1988 C1992 0.929 . S
H1989 C1998 0.929 . S
C1990 H1984 0.930 . S
C1990 C1991 1.367 . S
C1990 C1998 1.378 . S
C1991 C1990 1.367 . S
C1991 C1999 1.433 . S
C1992 H1988 0.929 . S
C1992 C1994 1.378 . S
C1992 C1996 1.350 . S
C1993 C1996 1.463 . S
C1993 C1998 1.350 . S
C1993 N2001 1.427 . S
C1994 H1985 0.930 . S
C1994 C1992 1.378 . S
C1994 C1995 1.367 . S
C1995 C1994 1.367 . S
C1995 C1997 1.433 . S
C1996 C1992 1.350 . S
C1996 C1993 1.463 . S
C1996 N2000 1.427 . S
C1997 H1987 0.929 . S
C1997 C1995 1.433 . S
C1997 N2000 1.384 . S
C1998 H1989 0.929 . S
C1998 C1990 1.378 . S
C1998 C1993 1.350 . S
C1999 H1986 0.929 . S
C1999 C1991 1.433 . S
C1999 N2001 1.384 . S
N2000 C1996 1.427 . S
N2000 C1997 1.384 . S
N2001 C1993 1.427 . S
N2001 C1999 1.384 . S
H2002 C2008 0.930 . S
H2003 C2012 0.930 . S
H2004 C2017 0.929 . S
H2005 C2015 0.929 . S
H2006 C2010 0.929 . S
H2007 C2016 0.931 . S
C2008 H2002 0.930 . S
C2008 C2009 1.367 . S
C2008 C2016 1.378 . S
C2009 C2008 1.367 . S
C2009 C2017 1.433 . S
C2010 H2006 0.929 . S
C2010 C2012 1.378 . S
C2010 C2014 1.350 . S
C2011 C2014 1.463 1_554 S
C2011 C2016 1.350 . S
C2011 N2019 1.427 . S
C2012 H2003 0.930 . S
C2012 C2010 1.378 . S
C2012 C2013 1.367 . S
C2013 C2012 1.367 . S
C2013 C2015 1.433 . S
C2014 C2010 1.350 . S
C2014 C2011 1.463 1_556 S
C2014 N2018 1.427 . S
C2015 H2005 0.929 . S
C2015 C2013 1.433 . S
C2015 N2018 1.384 . S
C2016 H2007 0.931 . S
C2016 C2008 1.378 . S
C2016 C2011 1.350 . S
C2017 H2004 0.929 . S
C2017 C2009 1.433 . S
C2017 N2019 1.384 . S
N2018 C2014 1.427 . S
N2018 C2015 1.384 . S
N2019 C2011 1.427 . S
N2019 C2017 1.384 . S
H2020 C2026 0.930 . S
H2021 C2030 0.930 . S
H2022 C2035 0.929 . S
H2023 C2033 0.929 . S
H2024 C2028 0.929 . S
H2025 C2034 0.929 . S
C2026 H2020 0.930 . S
C2026 C2027 1.367 . S
C2026 C2034 1.378 . S
C2027 C2026 1.367 . S
C2027 C2035 1.433 . S
C2028 H2024 0.929 . S
C2028 C2030 1.378 . S
C2028 C2032 1.350 . S
C2029 C2032 1.463 . S
C2029 C2034 1.350 . S
C2029 N2037 1.427 . S
C2030 H2021 0.930 . S
C2030 C2028 1.378 . S
C2030 C2031 1.367 . S
C2031 C2030 1.367 . S
C2031 C2033 1.433 . S
C2032 C2028 1.350 . S
C2032 C2029 1.463 . S
C2032 N2036 1.427 . S
C2033 H2023 0.929 . S
C2033 C2031 1.433 . S
C2033 N2036 1.384 . S
C2034 H2025 0.929 . S
C2034 C2026 1.378 . S
C2034 C2029 1.350 . S
C2035 H2022 0.929 . S
C2035 C2027 1.433 . S
C2035 N2037 1.384 . S
N2036 C2032 1.427 . S
N2036 C2033 1.384 . S
N2037 C2029 1.427 . S
N2037 C2035 1.384 . S
H2038 C2044 0.930 . S
H2039 C2048 0.930 . S
H2040 C2053 0.929 . S
H2041 C2051 0.929 . S
H2042 C2046 0.929 . S
H2043 C2052 0.929 . S
C2044 H2038 0.930 . S
C2044 C2045 1.367 . S
C2044 C2052 1.378 . S
C2045 C2044 1.367 . S
C2045 C2053 1.433 . S
C2046 H2042 0.929 . S
C2046 C2048 1.378 . S
C2046 C2050 1.350 . S
C2047 C2050 1.463 . S
C2047 C2052 1.350 . S
C2047 N2055 1.427 . S
C2048 H2039 0.930 . S
C2048 C2046 1.378 . S
C2048 C2049 1.367 . S
C2049 C2048 1.367 . S
C2049 C2051 1.433 . S
C2050 C2046 1.350 . S
C2050 C2047 1.463 . S
C2050 N2054 1.427 . S
C2051 H2041 0.929 . S
C2051 C2049 1.433 . S
C2051 N2054 1.384 . S
C2052 H2043 0.929 . S
C2052 C2044 1.378 . S
C2052 C2047 1.350 . S
C2053 H2040 0.929 . S
C2053 C2045 1.433 . S
C2053 N2055 1.384 . S
N2054 C2050 1.427 . S
N2054 C2051 1.384 . S
N2055 C2047 1.427 . S
N2055 C2053 1.384 . S
H2056 C2062 0.930 . S
H2057 C2066 0.930 . S
H2058 C2071 0.929 . S
H2059 C2069 0.929 1_554 S
H2060 C2064 0.929 . S
H2061 C2070 0.929 . S
C2062 H2056 0.930 . S
C2062 C2063 1.367 . S
C2062 C2070 1.378 . S
C2063 C2062 1.367 . S
C2063 C2071 1.433 . S
C2064 H2060 0.929 . S
C2064 C2066 1.378 . S
C2064 C2068 1.350 . S
C2065 C2068 1.463 . S
C2065 C2070 1.350 . S
C2065 N2073 1.427 . S
C2066 H2057 0.930 . S
C2066 C2064 1.378 . S
C2066 C2067 1.367 . S
C2067 C2066 1.367 . S
C2067 C2069 1.433 . S
C2068 C2064 1.350 . S
C2068 C2065 1.463 . S
C2068 N2072 1.427 . S
C2069 H2059 0.929 1_556 S
C2069 C2067 1.433 . S
C2069 N2072 1.384 . S
C2070 H2061 0.929 . S
C2070 C2062 1.378 . S
C2070 C2065 1.350 . S
C2071 H2058 0.929 . S
C2071 C2063 1.433 . S
C2071 N2073 1.384 . S
N2072 C2068 1.427 . S
N2072 C2069 1.384 . S
N2073 C2065 1.427 . S
N2073 C2071 1.384 . S
H2074 C2080 0.930 . S
H2075 C2084 0.930 . S
H2076 C2089 0.929 . S
H2077 C2087 0.929 . S
H2078 C2082 0.929 . S
H2079 C2088 0.929 . S
C2080 H2074 0.930 . S
C2080 C2081 1.367 . S
C2080 C2088 1.378 . S
C2081 C2080 1.367 . S
C2081 C2089 1.433 . S
C2082 H2078 0.929 . S
C2082 C2084 1.378 . S
C2082 C2086 1.350 . S
C2083 C2086 1.463 . S
C2083 C2088 1.350 . S
C2083 N2091 1.427 . S
C2084 H2075 0.930 . S
C2084 C2082 1.378 . S
C2084 C2085 1.367 . S
C2085 C2084 1.367 . S
C2085 C2087 1.433 . S
C2086 C2082 1.350 . S
C2086 C2083 1.463 . S
C2086 N2090 1.427 . S
C2087 H2077 0.929 . S
C2087 C2085 1.433 . S
C2087 N2090 1.384 . S
C2088 H2079 0.929 . S
C2088 C2080 1.378 . S
C2088 C2083 1.350 . S
C2089 H2076 0.929 . S
C2089 C2081 1.433 . S
C2089 N2091 1.384 . S
N2090 C2086 1.427 . S
N2090 C2087 1.384 . S
N2091 C2083 1.427 . S
N2091 C2089 1.384 . S
H2092 C2098 0.930 . S
H2093 C2102 0.930 . S
H2094 C2107 0.929 . S
H2095 C2105 0.929 . S
H2096 C2100 0.929 . S
H2097 C2106 0.929 . S
C2098 H2092 0.930 . S
C2098 C2099 1.367 . S
C2098 C2106 1.378 . S
C2099 C2098 1.367 . S
C2099 C2107 1.433 . S
C2100 H2096 0.929 . S
C2100 C2102 1.378 . S
C2100 C2104 1.350 . S
C2101 C2104 1.463 . S
C2101 C2106 1.350 . S
C2101 N2109 1.427 . S
C2102 H2093 0.930 . S
C2102 C2100 1.378 . S
C2102 C2103 1.367 . S
C2103 C2102 1.367 . S
C2103 C2105 1.433 . S
C2104 C2100 1.350 . S
C2104 C2101 1.463 . S
C2104 N2108 1.427 . S
C2105 H2095 0.929 . S
C2105 C2103 1.433 . S
C2105 N2108 1.384 . S
C2106 H2097 0.929 . S
C2106 C2098 1.378 . S
C2106 C2101 1.350 . S
C2107 H2094 0.929 . S
C2107 C2099 1.433 . S
C2107 N2109 1.384 . S
N2108 C2104 1.427 . S
N2108 C2105 1.384 . S
N2109 C2101 1.427 . S
N2109 C2107 1.384 . S
H2110 C2116 0.930 . S
H2111 C2120 0.930 . S
H2112 C2125 0.929 . S
H2113 C2123 0.929 . S
H2114 C2118 0.929 . S
H2115 C2124 0.929 . S
C2116 H2110 0.930 . S
C2116 C2117 1.367 . S
C2116 C2124 1.378 . S
C2117 C2116 1.367 . S
C2117 C2125 1.433 . S
C2118 H2114 0.929 . S
C2118 C2120 1.378 . S
C2118 C2122 1.350 . S
C2119 C2122 1.463 . S
C2119 C2124 1.350 . S
C2119 N2127 1.427 . S
C2120 H2111 0.930 . S
C2120 C2118 1.378 . S
C2120 C2121 1.367 . S
C2121 C2120 1.367 . S
C2121 C2123 1.433 . S
C2122 C2118 1.350 . S
C2122 C2119 1.463 . S
C2122 N2126 1.427 . S
C2123 H2113 0.929 . S
C2123 C2121 1.433 . S
C2123 N2126 1.384 . S
C2124 H2115 0.929 . S
C2124 C2116 1.378 . S
C2124 C2119 1.350 . S
C2125 H2112 0.929 . S
C2125 C2117 1.433 . S
C2125 N2127 1.384 . S
N2126 C2122 1.427 . S
N2126 C2123 1.384 . S
N2127 C2119 1.427 . S
N2127 C2125 1.384 . S
H2128 C2134 0.930 . S
H2129 C2138 0.930 . S
H2130 C2143 0.929 . S
H2131 C2141 0.929 . S
H2132 C2136 0.929 . S
H2133 C2142 0.929 . S
C2134 H2128 0.930 . S
C2134 C2135 1.367 . S
C2134 C2142 1.378 . S
C2135 C2134 1.367 . S
C2135 C2143 1.433 . S
C2136 H2132 0.929 . S
C2136 C2138 1.378 . S
C2136 C2140 1.350 . S
C2137 C2140 1.463 . S
C2137 C2142 1.350 . S
C2137 N2145 1.427 . S
C2138 H2129 0.930 . S
C2138 C2136 1.378 . S
C2138 C2139 1.367 . S
C2139 C2138 1.367 . S
C2139 C2141 1.433 . S
C2140 C2136 1.350 . S
C2140 C2137 1.463 . S
C2140 N2144 1.427 . S
C2141 H2131 0.929 . S
C2141 C2139 1.433 . S
C2141 N2144 1.384 . S
C2142 H2133 0.929 . S
C2142 C2134 1.378 . S
C2142 C2137 1.350 . S
C2143 H2130 0.929 . S
C2143 C2135 1.433 . S
C2143 N2145 1.384 . S
N2144 C2140 1.427 . S
N2144 C2141 1.384 . S
N2145 C2137 1.427 . S
N2145 C2143 1.384 . S
H2146 C2152 0.930 . S
H2147 C2156 0.930 . S
H2148 C2161 0.929 . S
H2149 C2159 0.929 . S
H2150 C2154 0.929 . S
H2151 C2160 0.929 . S
C2152 H2146 0.930 . S
C2152 C2153 1.367 . S
C2152 C2160 1.378 . S
C2153 C2152 1.367 . S
C2153 C2161 1.433 . S
C2154 H2150 0.929 . S
C2154 C2156 1.378 . S
C2154 C2158 1.350 . S
C2155 C2158 1.463 . S
C2155 C2160 1.350 . S
C2155 N2163 1.427 . S
C2156 H2147 0.930 . S
C2156 C2154 1.378 . S
C2156 C2157 1.367 . S
C2157 C2156 1.367 . S
C2157 C2159 1.433 . S
C2158 C2154 1.350 . S
C2158 C2155 1.463 . S
C2158 N2162 1.427 . S
C2159 H2149 0.929 . S
C2159 C2157 1.433 . S
C2159 N2162 1.384 . S
C2160 H2151 0.929 . S
C2160 C2152 1.378 . S
C2160 C2155 1.350 . S
C2161 H2148 0.929 . S
C2161 C2153 1.433 . S
C2161 N2163 1.384 . S
N2162 C2158 1.427 . S
N2162 C2159 1.384 . S
N2163 C2155 1.427 . S
N2163 C2161 1.384 . S
H2164 C2170 0.930 . S
H2165 C2174 0.930 . S
H2166 C2179 0.929 . S
H2167 C2177 0.929 . S
H2168 C2172 0.929 . S
H2169 C2178 0.929 . S
C2170 H2164 0.930 . S
C2170 C2171 1.367 . S
C2170 C2178 1.378 . S
C2171 C2170 1.367 . S
C2171 C2179 1.433 . S
C2172 H2168 0.929 . S
C2172 C2174 1.378 . S
C2172 C2176 1.350 . S
C2173 C2176 1.463 . S
C2173 C2178 1.350 . S
C2173 N2181 1.427 . S
C2174 H2165 0.930 . S
C2174 C2172 1.378 . S
C2174 C2175 1.367 . S
C2175 C2174 1.367 . S
C2175 C2177 1.433 . S
C2176 C2172 1.350 . S
C2176 C2173 1.463 . S
C2176 N2180 1.427 . S
C2177 H2167 0.929 . S
C2177 C2175 1.433 . S
C2177 N2180 1.384 . S
C2178 H2169 0.929 . S
C2178 C2170 1.378 . S
C2178 C2173 1.350 . S
C2179 H2166 0.929 . S
C2179 C2171 1.433 . S
C2179 N2181 1.384 . S
N2180 C2176 1.427 . S
N2180 C2177 1.384 . S
N2181 C2173 1.427 . S
N2181 C2179 1.384 . S
H2182 C2188 0.930 1_556 S
H2183 C2192 0.930 . S
H2184 C2197 0.929 . S
H2185 C2195 0.929 . S
H2186 C2190 0.929 . S
H2187 C2196 0.929 . S
C2188 H2182 0.930 1_554 S
C2188 C2189 1.367 . S
C2188 C2196 1.378 . S
C2189 C2188 1.367 . S
C2189 C2197 1.433 . S
C2190 H2186 0.929 . S
C2190 C2192 1.378 . S
C2190 C2194 1.350 . S
C2191 C2194 1.463 . S
C2191 C2196 1.350 . S
C2191 N2199 1.427 . S
C2192 H2183 0.930 . S
C2192 C2190 1.378 . S
C2192 C2193 1.367 . S
C2193 C2192 1.367 . S
C2193 C2195 1.433 . S
C2194 C2190 1.350 . S
C2194 C2191 1.463 . S
C2194 N2198 1.427 . S
C2195 H2185 0.929 . S
C2195 C2193 1.433 . S
C2195 N2198 1.384 . S
C2196 H2187 0.929 . S
C2196 C2188 1.378 . S
C2196 C2191 1.350 . S
C2197 H2184 0.929 . S
C2197 C2189 1.433 . S
C2197 N2199 1.384 . S
N2198 C2194 1.427 . S
N2198 C2195 1.384 . S
N2199 C2191 1.427 . S
N2199 C2197 1.384 . S
H2200 C2206 0.930 . S
H2201 C2210 0.930 . S
H2202 C2215 0.929 . S
H2203 C2213 0.929 . S
H2204 C2208 0.929 . S
H2205 C2214 0.929 . S
C2206 H2200 0.930 . S
C2206 C2207 1.367 . S
C2206 C2214 1.378 . S
C2207 C2206 1.367 . S
C2207 C2215 1.433 . S
C2208 H2204 0.929 . S
C2208 C2210 1.378 . S
C2208 C2212 1.350 . S
C2209 C2212 1.463 . S
C2209 C2214 1.350 . S
C2209 N2217 1.427 . S
C2210 H2201 0.930 . S
C2210 C2208 1.378 . S
C2210 C2211 1.367 . S
C2211 C2210 1.367 . S
C2211 C2213 1.433 . S
C2212 C2208 1.350 . S
C2212 C2209 1.463 . S
C2212 N2216 1.427 . S
C2213 H2203 0.929 . S
C2213 C2211 1.433 . S
C2213 N2216 1.384 . S
C2214 H2205 0.929 . S
C2214 C2206 1.378 . S
C2214 C2209 1.350 . S
C2215 H2202 0.929 . S
C2215 C2207 1.433 . S
C2215 N2217 1.384 . S
N2216 C2212 1.427 . S
N2216 C2213 1.384 . S
N2217 C2209 1.427 . S
N2217 C2215 1.384 . S
H2218 C2224 0.930 . S
H2219 C2228 0.930 . S
H2220 C2233 0.929 . S
H2221 C2231 0.929 . S
H2222 C2226 0.929 . S
H2223 C2232 0.929 . S
C2224 H2218 0.930 . S
C2224 C2225 1.367 . S
C2224 C2232 1.378 . S
C2225 C2224 1.367 . S
C2225 C2233 1.433 . S
C2226 H2222 0.929 . S
C2226 C2228 1.378 . S
C2226 C2230 1.350 . S
C2227 C2230 1.463 . S
C2227 C2232 1.350 . S
C2227 N2235 1.427 . S
C2228 H2219 0.930 . S
C2228 C2226 1.378 . S
C2228 C2229 1.367 . S
C2229 C2228 1.367 . S
C2229 C2231 1.433 . S
C2230 C2226 1.350 . S
C2230 C2227 1.463 . S
C2230 N2234 1.427 . S
C2231 H2221 0.929 . S
C2231 C2229 1.433 . S
C2231 N2234 1.384 . S
C2232 H2223 0.929 . S
C2232 C2224 1.378 . S
C2232 C2227 1.350 . S
C2233 H2220 0.929 . S
C2233 C2225 1.433 . S
C2233 N2235 1.384 . S
N2234 C2230 1.427 . S
N2234 C2231 1.384 . S
N2235 C2227 1.427 . S
N2235 C2233 1.384 . S
H2236 C2242 0.930 . S
H2237 C2246 0.930 . S
H2238 C2251 0.929 . S
H2239 C2249 0.929 . S
H2240 C2244 0.929 . S
H2241 C2250 0.929 . S
C2242 H2236 0.930 . S
C2242 C2243 1.367 . S
C2242 C2250 1.378 . S
C2243 C2242 1.367 . S
C2243 C2251 1.433 . S
C2244 H2240 0.929 . S
C2244 C2246 1.378 . S
C2244 C2248 1.350 . S
C2245 C2248 1.463 . S
C2245 C2250 1.350 . S
C2245 N2253 1.427 . S
C2246 H2237 0.930 . S
C2246 C2244 1.378 . S
C2246 C2247 1.367 . S
C2247 C2246 1.367 . S
C2247 C2249 1.433 . S
C2248 C2244 1.350 . S
C2248 C2245 1.463 . S
C2248 N2252 1.427 . S
C2249 H2239 0.929 . S
C2249 C2247 1.433 . S
C2249 N2252 1.384 . S
C2250 H2241 0.929 . S
C2250 C2242 1.378 . S
C2250 C2245 1.350 . S
C2251 H2238 0.929 . S
C2251 C2243 1.433 . S
C2251 N2253 1.384 . S
N2252 C2248 1.427 . S
N2252 C2249 1.384 . S
N2253 C2245 1.427 . S
N2253 C2251 1.384 . S
H2254 C2260 0.930 . S
H2255 C2264 0.930 . S
H2256 C2269 0.929 . S
H2257 C2267 0.929 . S
H2258 C2262 0.929 . S
H2259 C2268 0.929 . S
C2260 H2254 0.930 . S
C2260 C2261 1.367 . S
C2260 C2268 1.378 . S
C2261 C2260 1.367 . S
C2261 C2269 1.433 . S
C2262 H2258 0.929 . S
C2262 C2264 1.378 . S
C2262 C2266 1.350 . S
C2263 C2266 1.463 . S
C2263 C2268 1.350 . S
C2263 N2271 1.427 . S
C2264 H2255 0.930 . S
C2264 C2262 1.378 . S
C2264 C2265 1.367 . S
C2265 C2264 1.367 . S
C2265 C2267 1.433 . S
C2266 C2262 1.350 . S
C2266 C2263 1.463 . S
C2266 N2270 1.427 . S
C2267 H2257 0.929 . S
C2267 C2265 1.433 . S
C2267 N2270 1.384 . S
C2268 H2259 0.929 . S
C2268 C2260 1.378 . S
C2268 C2263 1.350 . S
C2269 H2256 0.929 . S
C2269 C2261 1.433 . S
C2269 N2271 1.384 . S
N2270 C2266 1.427 . S
N2270 C2267 1.384 . S
N2271 C2263 1.427 . S
N2271 C2269 1.384 . S
H2272 C2278 0.930 . S
H2273 C2282 0.930 . S
H2274 C2287 0.929 . S
H2275 C2285 0.929 . S
H2276 C2280 0.929 . S
H2277 C2286 0.929 . S
C2278 H2272 0.930 . S
C2278 C2279 1.367 . S
C2278 C2286 1.378 . S
C2279 C2278 1.367 . S
C2279 C2287 1.433 . S
C2280 H2276 0.929 . S
C2280 C2282 1.378 . S
C2280 C2284 1.350 . S
C2281 C2284 1.463 . S
C2281 C2286 1.350 . S
C2281 N2289 1.427 . S
C2282 H2273 0.930 . S
C2282 C2280 1.378 . S
C2282 C2283 1.367 . S
C2283 C2282 1.367 . S
C2283 C2285 1.433 . S
C2284 C2280 1.350 . S
C2284 C2281 1.463 . S
C2284 N2288 1.427 . S
C2285 H2275 0.929 . S
C2285 C2283 1.433 . S
C2285 N2288 1.384 . S
C2286 H2277 0.929 . S
C2286 C2278 1.378 . S
C2286 C2281 1.350 . S
C2287 H2274 0.929 . S
C2287 C2279 1.433 . S
C2287 N2289 1.384 . S
N2288 C2284 1.427 . S
N2288 C2285 1.384 . S
N2289 C2281 1.427 . S
N2289 C2287 1.384 . S
H2290 C2296 0.930 . S
H2291 C2300 0.930 . S
H2292 C2305 0.929 . S
H2293 C2303 0.929 . S
H2294 C2298 0.929 . S
H2295 C2304 0.929 . S
C2296 H2290 0.930 . S
C2296 C2297 1.367 . S
C2296 C2304 1.378 . S
C2297 C2296 1.367 . S
C2297 C2305 1.433 . S
C2298 H2294 0.929 . S
C2298 C2300 1.378 . S
C2298 C2302 1.350 . S
C2299 C2302 1.463 . S
C2299 C2304 1.350 . S
C2299 N2307 1.427 . S
C2300 H2291 0.930 . S
C2300 C2298 1.378 . S
C2300 C2301 1.367 . S
C2301 C2300 1.367 . S
C2301 C2303 1.433 . S
C2302 C2298 1.350 . S
C2302 C2299 1.463 . S
C2302 N2306 1.427 . S
C2303 H2293 0.929 . S
C2303 C2301 1.433 . S
C2303 N2306 1.384 . S
C2304 H2295 0.929 . S
C2304 C2296 1.378 . S
C2304 C2299 1.350 . S
C2305 H2292 0.929 . S
C2305 C2297 1.433 . S
C2305 N2307 1.384 . S
N2306 C2302 1.427 . S
N2306 C2303 1.384 . S
N2307 C2299 1.427 . S
N2307 C2305 1.384 . S
H2308 C2314 0.930 . S
H2309 C2318 0.930 . S
H2310 C2323 0.929 . S
H2311 C2321 0.929 . S
H2312 C2316 0.929 . S
H2313 C2322 0.929 . S
C2314 H2308 0.930 . S
C2314 C2315 1.367 . S
C2314 C2322 1.378 . S
C2315 C2314 1.367 . S
C2315 C2323 1.433 . S
C2316 H2312 0.929 . S
C2316 C2318 1.378 . S
C2316 C2320 1.350 . S
C2317 C2320 1.463 . S
C2317 C2322 1.350 . S
C2317 N2325 1.427 . S
C2318 H2309 0.930 . S
C2318 C2316 1.378 . S
C2318 C2319 1.367 . S
C2319 C2318 1.367 . S
C2319 C2321 1.433 . S
C2320 C2316 1.350 . S
C2320 C2317 1.463 . S
C2320 N2324 1.427 . S
C2321 H2311 0.929 . S
C2321 C2319 1.433 . S
C2321 N2324 1.384 . S
C2322 H2313 0.929 . S
C2322 C2314 1.378 . S
C2322 C2317 1.350 . S
C2323 H2310 0.929 . S
C2323 C2315 1.433 . S
C2323 N2325 1.384 . S
N2324 C2320 1.427 . S
N2324 C2321 1.384 . S
N2325 C2317 1.427 . S
N2325 C2323 1.384 . S
H2326 C2332 0.930 . S
H2327 C2336 0.930 . S
H2328 C2341 0.929 . S
H2329 C2339 0.929 . S
H2330 C2334 0.929 . S
H2331 C2340 0.929 . S
C2332 H2326 0.930 . S
C2332 C2333 1.367 . S
C2332 C2340 1.378 . S
C2333 C2332 1.367 . S
C2333 C2341 1.433 . S
C2334 H2330 0.929 . S
C2334 C2336 1.378 . S
C2334 C2338 1.350 . S
C2335 C2338 1.463 . S
C2335 C2340 1.350 . S
C2335 N2343 1.427 . S
C2336 H2327 0.930 . S
C2336 C2334 1.378 . S
C2336 C2337 1.367 . S
C2337 C2336 1.367 . S
C2337 C2339 1.433 . S
C2338 C2334 1.350 . S
C2338 C2335 1.463 . S
C2338 N2342 1.427 . S
C2339 H2329 0.929 . S
C2339 C2337 1.433 . S
C2339 N2342 1.384 . S
C2340 H2331 0.929 . S
C2340 C2332 1.378 . S
C2340 C2335 1.350 . S
C2341 H2328 0.929 . S
C2341 C2333 1.433 . S
C2341 N2343 1.384 . S
N2342 C2338 1.427 . S
N2342 C2339 1.384 . S
N2343 C2335 1.427 . S
N2343 C2341 1.384 . S
H2344 C2350 0.930 . S
H2345 C2354 0.930 . S
H2346 C2359 0.929 . S
H2347 C2357 0.929 . S
H2348 C2352 0.929 . S
H2349 C2358 0.929 . S
C2350 H2344 0.930 . S
C2350 C2351 1.367 . S
C2350 C2358 1.378 . S
C2351 C2350 1.367 . S
C2351 C2359 1.433 . S
C2352 H2348 0.929 . S
C2352 C2354 1.378 . S
C2352 C2356 1.350 . S
C2353 C2356 1.463 . S
C2353 C2358 1.350 . S
C2353 N2361 1.427 . S
C2354 H2345 0.930 . S
C2354 C2352 1.378 . S
C2354 C2355 1.367 . S
C2355 C2354 1.367 . S
C2355 C2357 1.433 1_556 S
C2356 C2352 1.350 . S
C2356 C2353 1.463 . S
C2356 N2360 1.427 . S
C2357 H2347 0.929 . S
C2357 C2355 1.433 1_554 S
C2357 N2360 1.384 1_554 S
C2358 H2349 0.929 . S
C2358 C2350 1.378 . S
C2358 C2353 1.350 . S
C2359 H2346 0.929 . S
C2359 C2351 1.433 . S
C2359 N2361 1.384 . S
N2360 C2356 1.427 . S
N2360 C2357 1.384 1_556 S
N2361 C2353 1.427 . S
N2361 C2359 1.384 . S
H2362 C2368 0.930 . S
H2363 C2372 0.930 . S
H2364 C2377 0.929 . S
H2365 C2375 0.929 . S
H2366 C2370 0.929 . S
H2367 C2376 0.929 . S
C2368 H2362 0.930 . S
C2368 C2369 1.367 . S
C2368 C2376 1.378 . S
C2369 C2368 1.367 . S
C2369 C2377 1.433 . S
C2370 H2366 0.929 . S
C2370 C2372 1.378 . S
C2370 C2374 1.350 . S
C2371 C2374 1.463 . S
C2371 C2376 1.350 . S
C2371 N2379 1.427 . S
C2372 H2363 0.930 . S
C2372 C2370 1.378 . S
C2372 C2373 1.367 . S
C2373 C2372 1.367 . S
C2373 C2375 1.433 . S
C2374 C2370 1.350 . S
C2374 C2371 1.463 . S
C2374 N2378 1.427 . S
C2375 H2365 0.929 . S
C2375 C2373 1.433 . S
C2375 N2378 1.384 . S
C2376 H2367 0.929 . S
C2376 C2368 1.378 . S
C2376 C2371 1.350 . S
C2377 H2364 0.929 . S
C2377 C2369 1.433 . S
C2377 N2379 1.384 . S
N2378 C2374 1.427 . S
N2378 C2375 1.384 . S
N2379 C2371 1.427 . S
N2379 C2377 1.384 . S
H2380 C2386 0.930 . S
H2381 C2390 0.930 1_655 S
H2382 C2395 0.929 . S
H2383 C2393 0.929 . S
H2384 C2388 0.929 1_655 S
H2385 C2394 0.929 . S
C2386 H2380 0.930 . S
C2386 C2387 1.367 . S
C2386 C2394 1.378 . S
C2387 C2386 1.367 . S
C2387 C2395 1.433 1_455 S
C2388 H2384 0.929 1_455 S
C2388 C2390 1.378 . S
C2388 C2392 1.350 . S
C2389 C2392 1.463 . S
C2389 C2394 1.350 . S
C2389 N2397 1.427 1_455 S
C2390 H2381 0.930 1_455 S
C2390 C2388 1.378 . S
C2390 C2391 1.367 . S
C2391 C2390 1.367 . S
C2391 C2393 1.433 . S
C2392 C2388 1.350 . S
C2392 C2389 1.463 . S
C2392 N2396 1.427 . S
C2393 H2383 0.929 . S
C2393 C2391 1.433 . S
C2393 N2396 1.384 . S
C2394 H2385 0.929 . S
C2394 C2386 1.378 . S
C2394 C2389 1.350 . S
C2395 H2382 0.929 . S
C2395 C2387 1.433 1_655 S
C2395 N2397 1.384 . S
N2396 C2392 1.427 . S
N2396 C2393 1.384 . S
N2397 C2389 1.427 1_655 S
N2397 C2395 1.384 . S
H2398 C2404 0.930 . S
H2399 C2408 0.930 . S
H2400 C2413 0.929 . S
H2401 C2411 0.929 . S
H2402 C2406 0.929 . S
H2403 C2412 0.929 . S
C2404 H2398 0.930 . S
C2404 C2405 1.367 . S
C2404 C2412 1.378 . S
C2405 C2404 1.367 . S
C2405 C2413 1.433 . S
C2406 H2402 0.929 . S
C2406 C2408 1.378 . S
C2406 C2410 1.350 . S
C2407 C2410 1.463 . S
C2407 C2412 1.350 . S
C2407 N2415 1.427 . S
C2408 H2399 0.930 . S
C2408 C2406 1.378 . S
C2408 C2409 1.367 . S
C2409 C2408 1.367 . S
C2409 C2411 1.433 . S
C2410 C2406 1.350 . S
C2410 C2407 1.463 . S
C2410 N2414 1.427 . S
C2411 H2401 0.929 . S
C2411 C2409 1.433 . S
C2411 N2414 1.384 . S
C2412 H2403 0.929 . S
C2412 C2404 1.378 . S
C2412 C2407 1.350 . S
C2413 H2400 0.929 . S
C2413 C2405 1.433 . S
C2413 N2415 1.384 . S
N2414 C2410 1.427 . S
N2414 C2411 1.384 . S
N2415 C2407 1.427 . S
N2415 C2413 1.384 . S
H2416 C2422 0.930 . S
H2417 C2426 0.930 . S
H2418 C2431 0.929 . S
H2419 C2429 0.929 . S
H2420 C2424 0.929 . S
H2421 C2430 0.929 . S
C2422 H2416 0.930 . S
C2422 C2423 1.367 . S
C2422 C2430 1.378 . S
C2423 C2422 1.367 . S
C2423 C2431 1.433 . S
C2424 H2420 0.929 . S
C2424 C2426 1.378 . S
C2424 C2428 1.350 . S
C2425 C2428 1.463 . S
C2425 C2430 1.350 . S
C2425 N2433 1.427 . S
C2426 H2417 0.930 . S
C2426 C2424 1.378 . S
C2426 C2427 1.367 . S
C2427 C2426 1.367 . S
C2427 C2429 1.433 . S
C2428 C2424 1.350 . S
C2428 C2425 1.463 . S
C2428 N2432 1.427 . S
C2429 H2419 0.929 . S
C2429 C2427 1.433 . S
C2429 N2432 1.384 . S
C2430 H2421 0.929 . S
C2430 C2422 1.378 . S
C2430 C2425 1.350 . S
C2431 H2418 0.929 . S
C2431 C2423 1.433 . S
C2431 N2433 1.384 . S
N2432 C2428 1.427 . S
N2432 C2429 1.384 . S
N2433 C2425 1.427 . S
N2433 C2431 1.384 . S
H2434 C2440 0.930 . S
H2435 C2444 0.930 . S
H2436 C2449 0.929 . S
H2437 C2447 0.929 . S
H2438 C2442 0.929 . S
H2439 C2448 0.929 . S
C2440 H2434 0.930 . S
C2440 C2441 1.367 . S
C2440 C2448 1.378 . S
C2441 C2440 1.367 . S
C2441 C2449 1.433 . S
C2442 H2438 0.929 . S
C2442 C2444 1.378 . S
C2442 C2446 1.350 . S
C2443 C2446 1.463 . S
C2443 C2448 1.350 . S
C2443 N2451 1.427 . S
C2444 H2435 0.930 . S
C2444 C2442 1.378 . S
C2444 C2445 1.367 . S
C2445 C2444 1.367 . S
C2445 C2447 1.433 . S
C2446 C2442 1.350 . S
C2446 C2443 1.463 . S
C2446 N2450 1.427 . S
C2447 H2437 0.929 . S
C2447 C2445 1.433 . S
C2447 N2450 1.384 . S
C2448 H2439 0.929 . S
C2448 C2440 1.378 . S
C2448 C2443 1.350 . S
C2449 H2436 0.929 . S
C2449 C2441 1.433 . S
C2449 N2451 1.384 . S
N2450 C2446 1.427 . S
N2450 C2447 1.384 . S
N2451 C2443 1.427 . S
N2451 C2449 1.384 . S
H2452 C2458 0.930 . S
H2453 C2462 0.930 1_554 S
H2454 C2467 0.929 . S
H2455 C2465 0.929 . S
H2456 C2460 0.929 . S
H2457 C2466 0.929 . S
C2458 H2452 0.930 . S
C2458 C2459 1.367 . S
C2458 C2466 1.378 . S
C2459 C2458 1.367 . S
C2459 C2467 1.433 . S
C2460 H2456 0.929 . S
C2460 C2462 1.378 . S
C2460 C2464 1.350 . S
C2461 C2464 1.463 . S
C2461 C2466 1.350 . S
C2461 N2469 1.427 . S
C2462 H2453 0.930 1_556 S
C2462 C2460 1.378 . S
C2462 C2463 1.367 1_655 S
C2463 C2462 1.367 1_455 S
C2463 C2465 1.433 . S
C2464 C2460 1.350 . S
C2464 C2461 1.463 . S
C2464 N2468 1.427 . S
C2465 H2455 0.929 . S
C2465 C2463 1.433 . S
C2465 N2468 1.384 1_455 S
C2466 H2457 0.929 . S
C2466 C2458 1.378 . S
C2466 C2461 1.350 . S
C2467 H2454 0.929 . S
C2467 C2459 1.433 . S
C2467 N2469 1.384 . S
N2468 C2464 1.427 . S
N2468 C2465 1.384 1_655 S
N2469 C2461 1.427 . S
N2469 C2467 1.384 . S
H2470 C2476 0.930 . S
H2471 C2480 0.930 . S
H2472 C2485 0.929 . S
H2473 C2483 0.929 . S
H2474 C2478 0.929 . S
H2475 C2484 0.929 . S
C2476 H2470 0.930 . S
C2476 C2477 1.367 . S
C2476 C2484 1.378 . S
C2477 C2476 1.367 . S
C2477 C2485 1.433 . S
C2478 H2474 0.929 . S
C2478 C2480 1.378 . S
C2478 C2482 1.350 . S
C2479 C2482 1.463 . S
C2479 C2484 1.350 . S
C2479 N2487 1.427 . S
C2480 H2471 0.930 . S
C2480 C2478 1.378 . S
C2480 C2481 1.367 . S
C2481 C2480 1.367 . S
C2481 C2483 1.433 . S
C2482 C2478 1.350 . S
C2482 C2479 1.463 . S
C2482 N2486 1.427 . S
C2483 H2473 0.929 . S
C2483 C2481 1.433 . S
C2483 N2486 1.384 . S
C2484 H2475 0.929 . S
C2484 C2476 1.378 . S
C2484 C2479 1.350 . S
C2485 H2472 0.929 . S
C2485 C2477 1.433 . S
C2485 N2487 1.384 . S
N2486 C2482 1.427 . S
N2486 C2483 1.384 . S
N2487 C2479 1.427 . S
N2487 C2485 1.384 . S
H2488 C2494 0.930 . S
H2489 C2498 0.930 . S
H2490 C2503 0.929 . S
H2491 C2501 0.929 . S
H2492 C2496 0.929 . S
H2493 C2502 0.929 . S
C2494 H2488 0.930 . S
C2494 C2495 1.367 . S
C2494 C2502 1.378 . S
C2495 C2494 1.367 . S
C2495 C2503 1.433 . S
C2496 H2492 0.929 . S
C2496 C2498 1.378 . S
C2496 C2500 1.350 . S
C2497 C2500 1.463 . S
C2497 C2502 1.350 . S
C2497 N2505 1.427 . S
C2498 H2489 0.930 . S
C2498 C2496 1.378 . S
C2498 C2499 1.367 . S
C2499 C2498 1.367 . S
C2499 C2501 1.433 . S
C2500 C2496 1.350 . S
C2500 C2497 1.463 . S
C2500 N2504 1.427 . S
C2501 H2491 0.929 . S
C2501 C2499 1.433 . S
C2501 N2504 1.384 . S
C2502 H2493 0.929 . S
C2502 C2494 1.378 . S
C2502 C2497 1.350 . S
C2503 H2490 0.929 . S
C2503 C2495 1.433 . S
C2503 N2505 1.384 . S
N2504 C2500 1.427 . S
N2504 C2501 1.384 . S
N2505 C2497 1.427 . S
N2505 C2503 1.384 . S
H2506 C2512 0.930 . S
H2507 C2516 0.930 . S
H2508 C2521 0.929 . S
H2509 C2519 0.929 . S
H2510 C2514 0.929 . S
H2511 C2520 0.929 . S
C2512 H2506 0.930 . S
C2512 C2513 1.367 . S
C2512 C2520 1.378 . S
C2513 C2512 1.367 . S
C2513 C2521 1.433 . S
C2514 H2510 0.929 . S
C2514 C2516 1.378 . S
C2514 C2518 1.350 . S
C2515 C2518 1.463 . S
C2515 C2520 1.350 . S
C2515 N2523 1.427 . S
C2516 H2507 0.930 . S
C2516 C2514 1.378 . S
C2516 C2517 1.367 . S
C2517 C2516 1.367 . S
C2517 C2519 1.433 . S
C2518 C2514 1.350 . S
C2518 C2515 1.463 . S
C2518 N2522 1.427 . S
C2519 H2509 0.929 . S
C2519 C2517 1.433 . S
C2519 N2522 1.384 . S
C2520 H2511 0.929 . S
C2520 C2512 1.378 . S
C2520 C2515 1.350 . S
C2521 H2508 0.929 . S
C2521 C2513 1.433 . S
C2521 N2523 1.384 . S
N2522 C2518 1.427 . S
N2522 C2519 1.384 . S
N2523 C2515 1.427 . S
N2523 C2521 1.384 . S
H2524 C2530 0.930 . S
H2525 C2534 0.930 . S
H2526 C2539 0.929 . S
H2527 C2537 0.929 . S
H2528 C2532 0.929 . S
H2529 C2538 0.929 . S
C2530 H2524 0.930 . S
C2530 C2531 1.367 . S
C2530 C2538 1.378 . S
C2531 C2530 1.367 . S
C2531 C2539 1.433 . S
C2532 H2528 0.929 . S
C2532 C2534 1.378 . S
C2532 C2536 1.350 . S
C2533 C2536 1.463 . S
C2533 C2538 1.350 . S
C2533 N2541 1.427 . S
C2534 H2525 0.930 . S
C2534 C2532 1.378 . S
C2534 C2535 1.367 . S
C2535 C2534 1.367 . S
C2535 C2537 1.433 . S
C2536 C2532 1.350 . S
C2536 C2533 1.463 . S
C2536 N2540 1.427 . S
C2537 H2527 0.929 . S
C2537 C2535 1.433 . S
C2537 N2540 1.384 . S
C2538 H2529 0.929 . S
C2538 C2530 1.378 . S
C2538 C2533 1.350 . S
C2539 H2526 0.929 . S
C2539 C2531 1.433 . S
C2539 N2541 1.384 . S
N2540 C2536 1.427 . S
N2540 C2537 1.384 . S
N2541 C2533 1.427 . S
N2541 C2539 1.384 . S
H2542 C2548 0.930 . S
H2543 C2552 0.930 . S
H2544 C2557 0.929 . S
H2545 C2555 0.929 . S
H2546 C2550 0.929 . S
H2547 C2556 0.929 . S
C2548 H2542 0.930 . S
C2548 C2549 1.367 . S
C2548 C2556 1.378 . S
C2549 C2548 1.367 . S
C2549 C2557 1.433 . S
C2550 H2546 0.929 . S
C2550 C2552 1.378 . S
C2550 C2554 1.350 . S
C2551 C2554 1.463 . S
C2551 C2556 1.350 . S
C2551 N2559 1.427 . S
C2552 H2543 0.930 . S
C2552 C2550 1.378 . S
C2552 C2553 1.367 . S
C2553 C2552 1.367 . S
C2553 C2555 1.433 . S
C2554 C2550 1.350 . S
C2554 C2551 1.463 . S
C2554 N2558 1.427 . S
C2555 H2545 0.929 . S
C2555 C2553 1.433 . S
C2555 N2558 1.384 . S
C2556 H2547 0.929 . S
C2556 C2548 1.378 . S
C2556 C2551 1.350 . S
C2557 H2544 0.929 . S
C2557 C2549 1.433 . S
C2557 N2559 1.384 . S
N2558 C2554 1.427 . S
N2558 C2555 1.384 . S
N2559 C2551 1.427 . S
N2559 C2557 1.384 . S
H2560 C2566 0.930 . S
H2561 C2570 0.930 . S
H2562 C2575 0.929 . S
H2563 C2573 0.929 . S
H2564 C2568 0.929 . S
H2565 C2574 0.929 . S
C2566 H2560 0.930 . S
C2566 C2567 1.367 . S
C2566 C2574 1.378 . S
C2567 C2566 1.367 . S
C2567 C2575 1.433 . S
C2568 H2564 0.929 . S
C2568 C2570 1.378 . S
C2568 C2572 1.350 . S
C2569 C2572 1.463 . S
C2569 C2574 1.350 . S
C2569 N2577 1.427 . S
C2570 H2561 0.930 . S
C2570 C2568 1.378 . S
C2570 C2571 1.367 . S
C2571 C2570 1.367 . S
C2571 C2573 1.433 . S
C2572 C2568 1.350 . S
C2572 C2569 1.463 . S
C2572 N2576 1.427 . S
C2573 H2563 0.929 . S
C2573 C2571 1.433 . S
C2573 N2576 1.384 . S
C2574 H2565 0.929 . S
C2574 C2566 1.378 . S
C2574 C2569 1.350 . S
C2575 H2562 0.929 . S
C2575 C2567 1.433 . S
C2575 N2577 1.384 . S
N2576 C2572 1.427 . S
N2576 C2573 1.384 . S
N2577 C2569 1.427 . S
N2577 C2575 1.384 . S
H2578 C2584 0.930 . S
H2579 C2588 0.930 1_545 S
H2580 C2593 0.929 . S
H2581 C2591 0.929 . S
H2582 C2586 0.929 . S
H2583 C2592 0.929 . S
C2584 H2578 0.930 . S
C2584 C2585 1.367 . S
C2584 C2592 1.378 . S
C2585 C2584 1.367 . S
C2585 C2593 1.433 . S
C2586 H2582 0.929 . S
C2586 C2588 1.378 . S
C2586 C2590 1.350 . S
C2587 C2590 1.463 . S
C2587 C2592 1.350 . S
C2587 N2595 1.427 . S
C2588 H2579 0.930 1_565 S
C2588 C2586 1.378 . S
C2588 C2589 1.367 . S
C2589 C2588 1.367 . S
C2589 C2591 1.433 . S
C2590 C2586 1.350 . S
C2590 C2587 1.463 . S
C2590 N2594 1.427 . S
C2591 H2581 0.929 . S
C2591 C2589 1.433 . S
C2591 N2594 1.384 . S
C2592 H2583 0.929 . S
C2592 C2584 1.378 . S
C2592 C2587 1.350 . S
C2593 H2580 0.929 . S
C2593 C2585 1.433 . S
C2593 N2595 1.384 . S
N2594 C2590 1.427 . S
N2594 C2591 1.384 . S
N2595 C2587 1.427 . S
N2595 C2593 1.384 . S
H2596 C2602 0.930 . S
H2597 C2606 0.930 . S
H2598 C2611 0.929 . S
H2599 C2609 0.929 . S
H2600 C2604 0.929 . S
H2601 C2610 0.929 . S
C2602 H2596 0.930 . S
C2602 C2603 1.367 . S
C2602 C2610 1.378 . S
C2603 C2602 1.367 . S
C2603 C2611 1.433 . S
C2604 H2600 0.929 . S
C2604 C2606 1.378 . S
C2604 C2608 1.350 . S
C2605 C2608 1.463 . S
C2605 C2610 1.350 . S
C2605 N2613 1.427 . S
C2606 H2597 0.930 . S
C2606 C2604 1.378 . S
C2606 C2607 1.367 . S
C2607 C2606 1.367 . S
C2607 C2609 1.433 . S
C2608 C2604 1.350 . S
C2608 C2605 1.463 . S
C2608 N2612 1.427 . S
C2609 H2599 0.929 . S
C2609 C2607 1.433 . S
C2609 N2612 1.384 . S
C2610 H2601 0.929 . S
C2610 C2602 1.378 . S
C2610 C2605 1.350 . S
C2611 H2598 0.929 . S
C2611 C2603 1.433 . S
C2611 N2613 1.384 . S
N2612 C2608 1.427 . S
N2612 C2609 1.384 . S
N2613 C2605 1.427 . S
N2613 C2611 1.384 . S
H2614 C2620 0.930 . S
H2615 C2624 0.930 . S
H2616 C2629 0.929 . S
H2617 C2627 0.929 . S
H2618 C2622 0.929 . S
H2619 C2628 0.929 . S
C2620 H2614 0.930 . S
C2620 C2621 1.367 . S
C2620 C2628 1.378 . S
C2621 C2620 1.367 . S
C2621 C2629 1.433 . S
C2622 H2618 0.929 . S
C2622 C2624 1.378 . S
C2622 C2626 1.350 . S
C2623 C2626 1.463 . S
C2623 C2628 1.350 . S
C2623 N2631 1.427 . S
C2624 H2615 0.930 . S
C2624 C2622 1.378 . S
C2624 C2625 1.367 . S
C2625 C2624 1.367 . S
C2625 C2627 1.433 . S
C2626 C2622 1.350 . S
C2626 C2623 1.463 . S
C2626 N2630 1.427 . S
C2627 H2617 0.929 . S
C2627 C2625 1.433 . S
C2627 N2630 1.384 . S
C2628 H2619 0.929 . S
C2628 C2620 1.378 . S
C2628 C2623 1.350 . S
C2629 H2616 0.929 . S
C2629 C2621 1.433 . S
C2629 N2631 1.384 . S
N2630 C2626 1.427 . S
N2630 C2627 1.384 . S
N2631 C2623 1.427 . S
N2631 C2629 1.384 . S
H2632 C2638 0.930 . S
H2633 C2642 0.930 . S
H2634 C2647 0.929 . S
H2635 C2645 0.929 . S
H2636 C2640 0.929 . S
H2637 C2646 0.929 . S
C2638 H2632 0.930 . S
C2638 C2639 1.367 . S
C2638 C2646 1.378 . S
C2639 C2638 1.367 . S
C2639 C2647 1.433 . S
C2640 H2636 0.929 . S
C2640 C2642 1.378 . S
C2640 C2644 1.350 . S
C2641 C2644 1.463 . S
C2641 C2646 1.350 . S
C2641 N2649 1.427 . S
C2642 H2633 0.930 . S
C2642 C2640 1.378 . S
C2642 C2643 1.367 . S
C2643 C2642 1.367 . S
C2643 C2645 1.433 . S
C2644 C2640 1.350 . S
C2644 C2641 1.463 . S
C2644 N2648 1.427 . S
C2645 H2635 0.929 . S
C2645 C2643 1.433 . S
C2645 N2648 1.384 . S
C2646 H2637 0.929 . S
C2646 C2638 1.378 . S
C2646 C2641 1.350 . S
C2647 H2634 0.929 . S
C2647 C2639 1.433 . S
C2647 N2649 1.384 . S
N2648 C2644 1.427 . S
N2648 C2645 1.384 . S
N2649 C2641 1.427 . S
N2649 C2647 1.384 . S
H2650 C2656 0.930 . S
H2651 C2660 0.930 . S
H2652 C2665 0.929 . S
H2653 C2663 0.929 . S
H2654 C2658 0.929 . S
H2655 C2664 0.929 . S
C2656 H2650 0.930 . S
C2656 C2657 1.367 . S
C2656 C2664 1.378 . S
C2657 C2656 1.367 . S
C2657 C2665 1.433 . S
C2658 H2654 0.929 . S
C2658 C2660 1.378 . S
C2658 C2662 1.350 . S
C2659 C2662 1.463 . S
C2659 C2664 1.350 . S
C2659 N2667 1.427 . S
C2660 H2651 0.930 . S
C2660 C2658 1.378 . S
C2660 C2661 1.367 . S
C2661 C2660 1.367 . S
C2661 C2663 1.433 . S
C2662 C2658 1.350 . S
C2662 C2659 1.463 . S
C2662 N2666 1.427 . S
C2663 H2653 0.929 . S
C2663 C2661 1.433 . S
C2663 N2666 1.384 . S
C2664 H2655 0.929 . S
C2664 C2656 1.378 . S
C2664 C2659 1.350 . S
C2665 H2652 0.929 . S
C2665 C2657 1.433 . S
C2665 N2667 1.384 . S
N2666 C2662 1.427 . S
N2666 C2663 1.384 . S
N2667 C2659 1.427 . S
N2667 C2665 1.384 . S
H2668 C2674 0.930 . S
H2669 C2678 0.930 . S
H2670 C2683 0.929 . S
H2671 C2681 0.929 . S
H2672 C2676 0.929 . S
H2673 C2682 0.929 . S
C2674 H2668 0.930 . S
C2674 C2675 1.367 . S
C2674 C2682 1.378 . S
C2675 C2674 1.367 . S
C2675 C2683 1.433 . S
C2676 H2672 0.929 . S
C2676 C2678 1.378 . S
C2676 C2680 1.350 . S
C2677 C2680 1.463 . S
C2677 C2682 1.350 . S
C2677 N2685 1.427 . S
C2678 H2669 0.930 . S
C2678 C2676 1.378 . S
C2678 C2679 1.367 . S
C2679 C2678 1.367 . S
C2679 C2681 1.433 . S
C2680 C2676 1.350 . S
C2680 C2677 1.463 . S
C2680 N2684 1.427 . S
C2681 H2671 0.929 . S
C2681 C2679 1.433 . S
C2681 N2684 1.384 . S
C2682 H2673 0.929 . S
C2682 C2674 1.378 . S
C2682 C2677 1.350 . S
C2683 H2670 0.929 . S
C2683 C2675 1.433 . S
C2683 N2685 1.384 . S
N2684 C2680 1.427 . S
N2684 C2681 1.384 . S
N2685 C2677 1.427 . S
N2685 C2683 1.384 . S
H2686 C2692 0.930 . S
H2687 C2696 0.930 . S
H2688 C2701 0.929 . S
H2689 C2699 0.929 . S
H2690 C2694 0.929 . S
H2691 C2700 0.929 . S
C2692 H2686 0.930 . S
C2692 C2693 1.367 . S
C2692 C2700 1.378 . S
C2693 C2692 1.367 . S
C2693 C2701 1.433 . S
C2694 H2690 0.929 . S
C2694 C2696 1.378 . S
C2694 C2698 1.350 . S
C2695 C2698 1.463 . S
C2695 C2700 1.350 . S
C2695 N2703 1.427 . S
C2696 H2687 0.930 . S
C2696 C2694 1.378 . S
C2696 C2697 1.367 . S
C2697 C2696 1.367 . S
C2697 C2699 1.433 . S
C2698 C2694 1.350 . S
C2698 C2695 1.463 . S
C2698 N2702 1.427 . S
C2699 H2689 0.929 . S
C2699 C2697 1.433 . S
C2699 N2702 1.384 . S
C2700 H2691 0.929 . S
C2700 C2692 1.378 . S
C2700 C2695 1.350 . S
C2701 H2688 0.929 . S
C2701 C2693 1.433 . S
C2701 N2703 1.384 . S
N2702 C2698 1.427 . S
N2702 C2699 1.384 . S
N2703 C2695 1.427 . S
N2703 C2701 1.384 . S
C983 C106 2.652 . S
C987 C346 2.592 . S
C1001 C65 2.010 . S
C1005 C394 1.994 . S
C1019 C79 1.645 . S
C1023 C426 1.630 . S
C1041 C471 1.384 . S
C1037 C90 1.395 . S
C1055 C21 0.703 . S
C1059 C511 0.714 . S
C1077 C546 1.040 . S
C1073 C35 1.045 . S
C1095 C585 1.291 . S
C1091 C50 1.306 . S
C1109 C6 1.222 . S
C1113 C622 1.260 . S
C1131 C354 2.341 . S
C1127 C232 2.308 1_545 S
C1145 C245 0.436 . S
C1149 C391 0.447 . S
C1167 C434 2.452 . S
C1163 C274 2.471 . S
C1185 C466 1.083 . S
C1181 C175 1.084 1_556 S
C1199 C231 1.086 . S
C1203 C506 1.089 . S
C1221 C554 0.353 . S
C1217 C246 0.322 . S
C1239 C595 1.920 . S
C1235 C273 1.901 . S
C1257 C625 2.215 . S
C1253 C176 2.191 . S
C1275 C351 1.547 . S
C1271 C160 1.471 . S
C1289 C289 2.139 . S
C1293 C674 2.120 . S
C1311 C711 1.293 . S
C1307 C328 1.253 . S
C1329 C742 0.900 . S
C1325 C317 0.918 . S
C1343 C118 2.664 . S
C1347 C635 2.692 . S
C1361 C132 1.422 . S
C1365 C431 1.441 . S
C1379 C331 1.804 . S
C1383 C794 1.800 . S
C1401 C826 1.938 . S
C1397 C303 1.930 . S
C1419 C355 2.143 . S
C1415 C63 2.186 . S
C1437 C825 2.469 . S
C1433 C107 2.433 . S
C1451 C92 1.441 . S
C1455 C435 1.440 . S
C1469 C78 1.829 . S
C1473 C782 1.812 . S
C1491 C502 1.204 . S
C1487 C8 1.190 . S
C1505 C51 1.093 . S
C1509 C715 1.123 . S
C1527 C594 1.549 . S
C1523 C37 1.561 . S
C1545 C871 1.246 . S
C1541 C20 1.240 1_655 S
C1563 C345 2.060 1_556 S
C1559 C147 2.027 . S
C1581 C822 0.541 . S
C1577 C316 0.477 . S
C1595 C119 2.340 . S
C1599 C425 2.403 . S
C1613 C288 1.225 . S
C1617 C795 1.217 . S
C1631 C148 1.432 . S
C1635 C515 1.428 . S
C1653 C705 0.443 . S
C1649 C315 0.529 . S
C1667 C120 2.313 . S
C1671 C586 2.212 . S
C1685 C287 1.935 1_556 S
C1689 C874 1.942 . S
C1703 C188 1.228 . S
C1707 C342 1.253 . S
C1721 C177 2.503 . S
C1725 C665 2.510 . S
C1739 C258 1.245 . S
C1743 C542 1.284 . S
C1757 C247 0.761 . S
C1761 C751 0.754 . S
C1779 C866 2.638 . S
C1775 C272 2.631 . S
C1793 C216 1.332 . S
C1797 C422 1.330 . S
C1815 C465 2.061 . S
C1811 C261 2.031 . S
C1833 C395 2.108 . S
C1829 C205 2.127 . S
C1847 C76 2.265 . S
C1851 C906 2.230 . S
C1869 C834 2.070 . S
C1865 C93 2.081 . S
C1883 C105 1.252 . S
C1887 C946 1.251 . S
C1901 C62 1.418 1_655 S
C1905 C791 1.411 . S
C1919 C49 0.708 . S
C1923 C671 0.692 . S
C1941 C706 1.409 . S
C1937 C9 1.410 . S
C1959 C745 1.213 . S
C1955 C22 1.218 . S
C1977 C862 1.563 . S
C1973 C36 1.556 . S
C1995 C914 2.275 . S
C1991 C260 2.242 . S
C2009 C189 0.445 . S
C2013 C831 0.468 . S
C2031 C954 2.371 . S
C2027 C204 2.386 . S
C2049 C786 0.914 . S
C2045 C217 0.920 . S
C2067 C666 1.253 1_556 S
C2063 C259 1.254 . S
C2081 C190 0.313 . S
C2085 C714 0.338 . S
C2103 C755 2.097 . S
C2099 C203 2.075 . S
C2117 C218 2.281 . S
C2121 C865 2.304 . S
C2139 C911 1.535 . S
C2135 C314 1.453 . S
C2153 C135 2.207 . S
C2157 C514 2.182 . S
C2175 C551 1.265 . S
C2171 C146 1.225 . S
C2193 C582 0.859 . S
C2189 C163 0.862 . S
C2211 C875 2.747 . S
C2207 C300 2.726 . S
C2225 C286 1.376 . S
C2229 C951 1.397 . S
C2247 C474 1.738 . S
C2243 C149 1.737 . S
C2265 C386 1.886 . S
C2261 C121 1.893 . S
C2279 C91 2.167 . S
C2283 C915 2.134 . S
C2301 C385 2.050 . S
C2297 C77 1.977 . S
C2315 C64 1.418 . S
C2319 C955 1.430 . S
C2333 C104 1.537 . S
C2337 C462 1.533 . S
C2351 C34 0.855 . S
C2355 C662 0.864 1_556 S
C2373 C555 1.080 . S
C2369 C23 1.065 . S
C2387 C7 1.112 . S
C2391 C754 1.160 . S
C2405 C48 1.211 . S
C2409 C631 1.222 . S
C2427 C905 2.019 . S
C2423 C329 1.986 . S
C2441 C162 0.468 . S
C2445 C382 0.506 . S
C2463 C945 2.384 1_556 S
C2459 C301 2.333 . S
C2477 C134 1.238 . S
C2481 C475 1.231 . S
C2495 C330 1.449 . S
C2499 C675 1.441 . S
C2517 C545 0.490 . S
C2513 C161 0.509 . S
C2531 C302 2.271 . S
C2535 C746 2.172 1_655 S
C2553 C634 1.912 . S
C2549 C133 1.913 . S
C2571 C902 1.369 . S
C2567 C244 1.338 . S
C2589 C505 2.490 1_665 S
C2585 C219 2.476 . S
C2603 C230 1.060 . S
C2607 C702 1.092 . S
C2625 C591 0.846 . S
C2621 C191 0.858 . S
C2639 C202 2.879 . S
C2643 C626 2.885 . S
C2657 C174 1.507 . S
C2661 C942 1.515 . S
C2679 C785 2.054 . S
C2675 C233 2.018 . S
C2697 C835 2.060 . S
C2693 C275 2.085 . S
