# Generated by pormake.
# Topology sit, (3,6)-cn, num edge types: 1
# Building blocks:
#     Node 0, Type 0, BuildingBlock: OLANEW_clean_sbu_2, # of connection points: 3
#     Node 1, Type 0, BuildingBlock: OLANEW_clean_sbu_2, # of connection points: 3
#     Node 2, Type 0, BuildingBlock: OLANEW_clean_sbu_2, # of connection points: 3
#     Node 3, Type 0, BuildingBlock: OLANEW_clean_sbu_2, # of connection points: 3
#     Node 4, Type 1, BuildingBlock: MIDCAF_clean_sbu_0, # of connection points: 6
#     Node 5, Type 1, BuildingBlock: MIDCAF_clean_sbu_0, # of connection points: 6
#     Edge 6, Type (0, 1), BuildingBlock: XIVTED_clean_linker_0, # of connection points: 2
#     Edge 7, Type (0, 1), BuildingBlock: XIVTED_clean_linker_0, # of connection points: 2
#     Edge 8, Type (0, 1), BuildingBlock: XIVTED_clean_linker_0, # of connection points: 2
#     Edge 9, Type (0, 1), BuildingBlock: XIVTED_clean_linker_0, # of connection points: 2
#     Edge 10, Type (0, 1), BuildingBlock: XIVTED_clean_linker_0, # of connection points: 2
#     Edge 11, Type (0, 1), BuildingBlock: XIVTED_clean_linker_0, # of connection points: 2
#     Edge 12, Type (0, 1), BuildingBlock: XIVTED_clean_linker_0, # of connection points: 2
#     Edge 13, Type (0, 1), BuildingBlock: XIVTED_clean_linker_0, # of connection points: 2
#     Edge 14, Type (0, 1), BuildingBlock: XIVTED_clean_linker_0, # of connection points: 2
#     Edge 15, Type (0, 1), BuildingBlock: XIVTED_clean_linker_0, # of connection points: 2
#     Edge 16, Type (0, 1), BuildingBlock: XIVTED_clean_linker_0, # of connection points: 2
#     Edge 17, Type (0, 1), BuildingBlock: XIVTED_clean_linker_0, # of connection points: 2
# Relax obj value: 0.079
# Max RMSD: 0.184
# Mean RMSD: 0.109
data_MOF--net-sit--node1-OLANEW_clean_sbu_2--node2-MIDCAF_clean_sbu_0--edge1-XIVTED_clean_linker_0
_symmetry_space_group_name_H-M    P1
_symmetry_Int_Tables_number       1
_symmetry_cell_setting            triclinic
loop_
_symmetry_equiv_pos_as_xyz
'x, y, z'
_cell_length_a     22.45376
_cell_length_b     35.25385
_cell_length_c     39.456953
_cell_angle_alpha  89.306394
_cell_angle_beta   83.316383
_cell_angle_gamma 83.866091
loop_
_atom_site_label
_atom_site_type_symbol
_atom_site_fract_x
_atom_site_fract_y
_atom_site_fract_z
_atom_type_partial_charge
O0 O 0.23739 0.25481 0.00319 0.0
Cd1 Cd 0.18375 0.19752 0.00247 0.0
O2 O 0.15338 0.29344 0.00838 0.0
Cd3 Cd 0.10071 0.34961 0.01112 0.0
O4 O 0.0371 0.40005 0.00543 0.0
C5 C 0.04856 0.4248 0.98257 0.0
O6 O 0.10075 0.4207 0.9634 0.0
C7 C 0.2107 0.28856 0.00406 0.0
C8 C 0.15258 0.16046 0.06396 0.0
O9 O 0.20435 0.15208 0.04682 0.0
O10 O 0.11678 0.18716 0.05262 0.0
O11 O 0.07126 0.67185 0.07296 0.0
Cd12 Cd 0.99085 0.71055 0.10846 0.0
O13 O 0.07436 0.71432 0.0317 0.0
Cd14 Cd 0.98854 0.74537 0.05101 0.0
O15 O 0.90721 0.73452 0.02933 0.0
C16 C 0.91987 0.71496 0.00208 0.0
O17 O 0.97686 0.70568 0.99071 0.0
C18 C 0.09495 0.6829 0.04423 0.0
C19 C 0.03106 0.77243 0.13937 0.0
O20 O 0.03882 0.73854 0.15133 0.0
O21 O 0.0043 0.77742 0.11246 0.0
O22 O 0.70789 0.75411 0.48214 0.0
Cd23 Cd 0.65583 0.69597 0.48682 0.0
O24 O 0.63759 0.79225 0.51218 0.0
Cd25 Cd 0.59764 0.85037 0.52533 0.0
O26 O 0.53676 0.90227 0.52001 0.0
C27 C 0.54663 0.92382 0.49434 0.0
O28 O 0.59589 0.91582 0.47312 0.0
C29 C 0.68817 0.7871 0.49389 0.0
C30 C 0.62971 0.66345 0.551 0.0
O31 O 0.68051 0.65424 0.5331 0.0
O32 O 0.5926 0.68894 0.53906 0.0
O33 O 0.65636 0.12594 0.63246 0.0
Cd34 Cd 0.59726 0.16109 0.68018 0.0
O35 O 0.5875 0.14726 0.60022 0.0
Cd36 Cd 0.54217 0.15799 0.55445 0.0
O37 O 0.48309 0.15439 0.51491 0.0
C38 C 0.43129 0.17324 0.51834 0.0
O39 O 0.41596 0.19579 0.54491 0.0
C40 C 0.63696 0.127 0.60347 0.0
C41 C 0.60172 0.24 0.67758 0.0
O42 O 0.64387 0.21751 0.68866 0.0
O43 O 0.55757 0.22521 0.66696 0.0
Zn44 Zn 0.00097 0.0929 0.35919 0.0
Zn45 Zn 0.10724 0.95226 0.38003 0.0
Zn46 Zn 0.05769 0.02122 0.36577 0.0
C47 C 0.09932 0.95822 0.30839 0.0
C48 C 0.99165 0.9572 0.41282 0.0
O49 O 0.1151 0.06141 0.38303 0.0
O50 O 0.06375 0.11853 0.38028 0.0
C51 C 0.03291 0.05967 0.29346 0.0
O52 O 0.07365 0.99192 0.31608 0.0
O53 O 0.11896 0.93653 0.33128 0.0
O54 O 0.03914 0.93432 0.41035 0.0
O55 O 0.99117 0.99 0.39796 0.0
O56 O 0.00618 0.08905 0.30881 0.0
O57 O 0.05491 0.0311 0.31042 0.0
O58 O 0.96895 0.02909 0.39777 0.0
O59 O 0.92374 0.08624 0.38722 0.0
C60 C 0.92357 0.05489 0.40298 0.0
O61 O 0.14325 0.02463 0.38929 0.0
O62 O 0.17732 0.96517 0.40095 0.0
C63 C 0.11027 0.09783 0.38726 0.0
C64 C 0.18253 1.00036 0.40139 0.0
Zn65 Zn 0.50649 0.59612 0.85264 0.0
Zn66 Zn 0.6152 0.45919 0.86591 0.0
Zn67 Zn 0.55874 0.52669 0.85849 0.0
C68 C 0.59875 0.46648 0.79708 0.0
C69 C 0.50391 0.46031 0.9059 0.0
O70 O 0.61483 0.56728 0.87787 0.0
O71 O 0.56088 0.62368 0.87761 0.0
C72 C 0.53649 0.56854 0.78659 0.0
O73 O 0.57326 0.49955 0.80718 0.0
O74 O 0.62122 0.44327 0.81789 0.0
O75 O 0.55321 0.43952 0.89933 0.0
O76 O 0.49654 0.4937 0.89232 0.0
O77 O 0.51422 0.59845 0.80261 0.0
O78 O 0.55444 0.53837 0.80298 0.0
O79 O 0.46889 0.53111 0.8898 0.0
O80 O 0.4272 0.5881 0.87602 0.0
C81 C 0.42368 0.55713 0.89204 0.0
O82 O 0.64483 0.5307 0.88133 0.0
O83 O 0.68901 0.47156 0.88288 0.0
C84 C 0.60777 0.60336 0.88436 0.0
C85 C 0.6892 0.50665 0.8883 0.0
H86 H 0.21926 0.10471 0.09709 0.0
H87 H 0.95705 0.09321 0.2508 0.0
H88 H 0.04269 0.1677 0.10236 0.0
H89 H 0.13356 0.03175 0.25113 0.0
H90 H 0.98368 0.11161 0.19178 0.0
H91 H 0.18633 0.07093 0.14954 0.0
C92 C 0.17357 0.11139 0.1092 0.0
C93 C 0.13386 0.13941 0.09548 0.0
C94 C 0.0165 0.09362 0.20442 0.0
C95 C 0.09578 0.10056 0.15519 0.0
C96 C 0.00108 0.08286 0.23808 0.0
C97 C 0.04339 0.06127 0.25589 0.0
C98 C 0.07516 0.08332 0.18851 0.0
C99 C 0.09969 0.04845 0.23822 0.0
C100 C 0.15477 0.09197 0.13905 0.0
C101 C 0.0751 0.14666 0.11212 0.0
N102 N 0.11446 0.06031 0.20559 0.0
N103 N 0.05804 0.12751 0.14108 0.0
H104 H 0.11941 0.7698 0.1811 0.0
H105 H 0.01933 0.97356 0.2608 0.0
H106 H 0.98825 0.84837 0.13763 0.0
H107 H 0.18381 0.90495 0.27814 0.0
H108 H 0.01088 0.93269 0.21185 0.0
H109 H 0.14666 0.82181 0.21414 0.0
C110 C 0.09661 0.79815 0.17836 0.0
C111 C 0.05117 0.80475 0.15688 0.0
C112 C 0.04956 0.92723 0.22591 0.0
C113 C 0.08158 0.86465 0.19504 0.0
C114 C 0.05459 0.9507 0.25365 0.0
C115 C 0.10172 0.94209 0.27385 0.0
C116 C 0.09181 0.89506 0.21873 0.0
C117 C 0.14609 0.91209 0.26362 0.0
C118 C 0.11238 0.82797 0.1971 0.0
C119 C 0.02349 0.84215 0.15404 0.0
N120 N 0.1395 0.88931 0.2372 0.0
N121 N 0.03838 0.87067 0.1734 0.0
H122 H 0.5227 0.6735 0.59198 0.0
H123 H 0.63084 0.53651 0.74144 0.0
H124 H 0.69891 0.6098 0.58497 0.0
H125 H 0.46067 0.6068 0.74667 0.0
H126 H 0.65194 0.55459 0.68107 0.0
H127 H 0.49556 0.64239 0.64608 0.0
C128 C 0.55581 0.65298 0.60185 0.0
C129 C 0.61339 0.64457 0.58403 0.0
C130 C 0.60955 0.56547 0.69534 0.0
C131 C 0.58244 0.6085 0.64628 0.0
C132 C 0.59727 0.55481 0.72961 0.0
C133 C 0.54421 0.5705 0.74899 0.0
C134 C 0.56823 0.59175 0.68065 0.0
C135 C 0.50243 0.59441 0.73266 0.0
C136 C 0.54018 0.63503 0.63276 0.0
C137 C 0.65413 0.61737 0.598 0.0
N138 N 0.51557 0.60457 0.69963 0.0
N139 N 0.63803 0.60045 0.62843 0.0
H140 H 0.50649 0.29561 0.67656 0.0
H141 H 0.696 0.4446 0.75213 0.0
H142 H 0.6977 0.27963 0.68403 0.0
H143 H 0.502 0.45378 0.76481 0.0
H144 H 0.69781 0.39658 0.70785 0.0
H145 H 0.50552 0.36316 0.69111 0.0
C146 C 0.54849 0.30648 0.68049 0.0
C147 C 0.60207 0.28183 0.67981 0.0
C148 C 0.65466 0.40988 0.71946 0.0
C149 C 0.60128 0.35891 0.69622 0.0
C150 C 0.65368 0.43767 0.74439 0.0
C151 C 0.59881 0.45281 0.76211 0.0
C152 C 0.60037 0.3965 0.71295 0.0
C153 C 0.54519 0.44269 0.75156 0.0
C154 C 0.54786 0.34501 0.68881 0.0
C155 C 0.65517 0.29745 0.68494 0.0
N156 N 0.54724 0.41426 0.72825 0.0
N157 N 0.65328 0.33483 0.69331 0.0
H158 H 0.18325 0.35345 0.96769 0.0
H159 H 0.51677 0.41268 0.95947 0.0
H160 H 0.32164 0.29655 0.02298 0.0
H161 H 0.38129 0.47105 0.90298 0.0
H162 H 0.44026 0.37718 0.9902 0.0
H163 H 0.24868 0.40326 0.95102 0.0
C164 C 0.22656 0.35214 0.97736 0.0
C165 C 0.24655 0.32123 -0.00262 0.0
C166 C 0.4268 0.39809 0.97147 0.0
C167 C 0.32278 0.37732 0.97718 0.0
C168 C 0.47051 0.41844 0.95394 0.0
C169 C 0.45534 0.44462 0.92849 0.0
C170 C 0.36738 0.40341 0.96316 0.0
C171 C 0.39473 0.45123 0.92254 0.0
C172 C 0.2643 0.38034 0.96738 0.0
C173 C 0.30441 0.31996 0.00763 0.0
N174 N 0.35299 0.43026 0.93938 0.0
N175 N 0.34056 0.34746 -0.00274 0.0
H176 H 0.79685 0.72894 0.01716 0.0
H177 H 0.72951 0.59021 0.87013 0.0
H178 H 0.93481 0.66882 0.94619 0.0
H179 H 0.58995 0.65781 0.93392 0.0
H180 H 0.80563 0.6179 0.89879 0.0
H181 H 0.71994 0.70297 0.98771 0.0
C182 C 0.81094 0.71042 0.99535 0.0
C183 C 0.87231 0.701 0.98415 0.0
C184 C 0.75839 0.62672 0.90661 0.0
C185 C 0.78483 0.67111 0.95051 0.0
C186 C 0.71513 0.61053 0.89056 0.0
C187 C 0.6538 0.62104 0.90042 0.0
C188 C 0.73998 0.6539 0.93255 0.0
C189 C 0.63705 0.64883 0.92584 0.0
C190 C 0.76708 0.69561 0.97855 0.0
C191 C 0.88805 0.67687 0.95575 0.0
N192 N 0.67996 0.66419 0.94123 0.0
N193 N 0.84463 0.66268 0.94002 0.0
H194 H 0.93926 0.44552 0.01966 0.0
H195 H 0.79918 0.51695 0.85602 0.0
H196 H 0.0469 0.47002 0.92566 0.0
H197 H 0.69662 0.51889 0.95527 0.0
H198 H 0.89224 0.51301 0.88303 0.0
H199 H 0.85294 0.48373 -0.00022 0.0
C200 C 0.94503 0.45948 0.99506 0.0
C201 C -2e-05 0.45379 0.97393 0.0
C202 C 0.84947 0.51553 0.89907 0.0
C203 C 0.90109 0.49725 0.95081 0.0
C204 C 0.79642 0.51808 0.88359 0.0
C205 C 0.74066 0.51842 0.90359 0.0
C206 C 0.84653 0.51178 0.93473 0.0
C207 C 0.73905 0.51899 0.93914 0.0
C208 C 0.89572 0.48144 0.98375 0.0
C209 C 0.00512 0.47309 0.94257 0.0
N210 N 0.79139 0.51474 0.95365 0.0
N211 N 0.95594 0.49327 0.93164 0.0
H212 H 0.12209 0.6845 0.97552 0.0
H213 H 0.41474 0.54258 0.96056 0.0
H214 H 0.17133 0.62266 0.06495 0.0
H215 H 0.3091 0.56886 0.8773 0.0
H216 H 0.32701 0.56637 0.00084 0.0
H217 H 0.19358 0.64103 0.94007 0.0
C218 C 0.14838 0.66189 0.98776 0.0
C219 C 0.1412 0.65747 0.02329 0.0
C220 C 0.32248 0.56561 0.97384 0.0
C221 C 0.22327 0.60706 0.98259 0.0
C222 C 0.37222 0.55162 0.95094 0.0
C223 C 0.36889 0.55428 0.91571 0.0
C224 C 0.27009 0.58253 0.96101 0.0
C225 C 0.31333 0.56669 0.90435 0.0
C226 C 0.18868 0.63668 0.96743 0.0
C227 C 0.17586 0.62716 0.03763 0.0
N228 N 0.2665 0.58116 0.92686 0.0
N229 N 0.21618 0.60329 0.01722 0.0
H230 H 0.72928 0.80781 0.42976 0.0
H231 H 0.97716 0.92286 0.47485 0.0
H232 H 0.72419 0.83982 0.5352 0.0
H233 H 0.88144 0.9606 0.38995 0.0
H234 H 0.89111 0.88915 0.49801 0.0
H235 H 0.79184 0.85952 0.4132 0.0
C236 C 0.74113 0.82597 0.44934 0.0
C237 C 0.72209 0.81969 0.48382 0.0
C238 C 0.88846 0.90559 0.47475 0.0
C239 C 0.79408 0.87798 0.46525 0.0
C240 C 0.93736 0.92469 0.46156 0.0
C241 C 0.93606 0.9443 0.4305 0.0
C242 C 0.83926 0.90494 0.45598 0.0
C243 C 0.88382 0.9458 0.41404 0.0
C244 C 0.77624 0.85554 0.4399 0.0
C245 C 0.73823 0.84395 0.50834 0.0
N246 N 0.83796 0.9254 0.4265 0.0
N247 N 0.77461 0.87163 0.49865 0.0
H248 H 0.44592 0.12521 0.46324 0.0
H249 H 0.09773 0.15482 0.4345 0.0
H250 H 0.31539 0.2069 0.51951 0.0
H251 H 0.23127 0.08097 0.37247 0.0
H252 H 0.178 0.17794 0.46319 0.0
H253 H 0.36922 0.11136 0.42751 0.0
C254 C 0.4013 0.14054 0.46788 0.0
C255 C 0.38696 0.1671 0.49458 0.0
C256 C 0.18989 0.15676 0.44322 0.0
C257 C 0.29885 0.15132 0.45374 0.0
C258 C 0.14415 0.14372 0.4268 0.0
C259 C 0.15821 0.11517 0.40191 0.0
C260 C 0.24994 0.14114 0.4345 0.0
C261 C 0.2188 0.10191 0.39256 0.0
C262 C 0.35749 0.13261 0.44743 0.0
C263 C 0.32838 0.18607 0.49935 0.0
N264 N 0.26252 0.11468 0.4091 0.0
N265 N 0.28636 0.17762 0.47928 0.0
H266 H 0.44018 0.94905 0.53264 0.0
H267 H 0.29165 0.01074 0.3677 0.0
H268 H 0.54212 0.96389 0.43459 0.0
H269 H 0.19292 0.01239 0.46801 0.0
H270 H 0.38594 1.00833 0.39348 0.0
H271 H 0.35284 0.98563 0.51224 0.0
C272 C 0.44456 0.96058 0.50701 0.0
C273 C 0.49811 0.95253 0.48501 0.0
C274 C 0.34369 0.01041 0.40999 0.0
C275 C 0.39794 0.99406 0.46129 0.0
C276 C 0.28993 0.01212 0.39522 0.0
C277 C 0.23488 0.01214 0.41588 0.0
C278 C 0.34225 1.00722 0.44564 0.0
C279 C 0.23472 0.01282 0.45135 0.0
C280 C 0.39462 0.98155 0.49536 0.0
C281 C 0.50143 0.96877 0.45226 0.0
N282 N 0.28774 0.00957 0.46517 0.0
N283 N 0.45165 0.98805 0.44116 0.0
H284 H 0.6005 0.10193 0.54359 0.0
H285 H 0.93287 0.02161 0.46512 0.0
H286 H 0.75677 0.10191 0.5977 0.0
H287 H 0.80447 0.08069 0.4044 0.0
H288 H 0.85726 0.02951 0.51534 0.0
H289 H 0.66541 0.07464 0.4939 0.0
C290 C 0.64838 0.09702 0.54492 0.0
C291 C 0.67354 0.10642 0.57426 0.0
C292 C 0.84532 0.03989 0.49081 0.0
C293 C 0.74727 0.07241 0.51841 0.0
C294 C 0.8881 0.03504 0.46212 0.0
C295 C 0.87476 0.0507 0.4307 0.0
C296 C 0.78883 0.0601 0.48781 0.0
C297 C 0.81646 0.06846 0.4283 0.0
C298 C 0.68519 0.08059 0.51677 0.0
C299 C 0.73548 0.09602 0.57536 0.0
N300 N 0.77565 0.07297 0.45658 0.0
N301 N 0.77031 0.07984 0.54775 0.0
loop_
_geom_bond_atom_site_label_1
_geom_bond_atom_site_label_2
_geom_bond_distance
_geom_bond_site_symmetry_2
_ccdc_geom_bond_type
O0 Cd1 2.300 . S
O0 C7 1.275 . S
Cd1 O0 2.300 . S
Cd1 O9 2.381 . S
Cd1 O10 2.378 . S
O2 Cd3 2.385 . S
O2 C7 1.255 . S
Cd3 O2 2.385 . S
Cd3 O4 2.317 . S
O4 Cd3 2.317 . S
O4 C5 1.232 1_554 S
C5 O4 1.232 1_556 S
C5 O6 1.218 . S
O6 C5 1.218 . S
C7 O0 1.275 . S
C7 O2 1.255 . S
C8 O9 1.258 . S
C8 O10 1.256 . S
O9 Cd1 2.381 . S
O9 C8 1.258 . S
O10 Cd1 2.378 . S
O10 C8 1.256 . S
O11 Cd12 2.300 . S
O11 C18 1.275 . S
Cd12 O11 2.300 . S
Cd12 O20 2.381 . S
Cd12 O21 2.378 1_455 S
O13 Cd14 2.385 1_455 S
O13 C18 1.255 1_556 S
Cd14 O13 2.385 1_655 S
Cd14 O15 2.298 1_556 S
O15 Cd14 2.298 1_554 S
O15 C16 1.216 1_554 S
C16 O15 1.216 1_556 S
C16 O17 1.218 . S
O17 C16 1.218 . S
C18 O11 1.275 . S
C18 O13 1.255 1_554 S
C19 O20 1.258 . S
C19 O21 1.256 1_455 S
O20 Cd12 2.381 . S
O20 C19 1.258 . S
O21 Cd12 2.378 1_655 S
O21 C19 1.256 1_655 S
O22 Cd23 2.300 . S
O22 C29 1.275 . S
Cd23 O22 2.300 . S
Cd23 O31 2.381 . S
Cd23 O32 2.378 . S
O24 Cd25 2.385 . S
O24 C29 1.255 . S
Cd25 O24 2.385 . S
Cd25 O26 2.317 . S
O26 Cd25 2.317 . S
O26 C27 1.232 . S
C27 O26 1.232 . S
C27 O28 1.218 . S
O28 C27 1.218 . S
C29 O22 1.275 . S
C29 O24 1.255 . S
C30 O31 1.258 . S
C30 O32 1.256 . S
O31 Cd23 2.381 . S
O31 C30 1.258 . S
O32 Cd23 2.378 . S
O32 C30 1.256 . S
O33 Cd34 2.300 . S
O33 C40 1.275 . S
Cd34 O33 2.300 . S
Cd34 O42 2.381 . S
Cd34 O43 2.378 . S
O35 Cd36 2.385 . S
O35 C40 1.255 . S
Cd36 O35 2.385 . S
Cd36 O37 2.317 . S
O37 Cd36 2.317 . S
O37 C38 1.232 . S
C38 O37 1.232 . S
C38 O39 1.218 . S
O39 C38 1.218 . S
C40 O33 1.275 . S
C40 O35 1.255 . S
C41 O42 1.258 . S
C41 O43 1.256 . S
O42 Cd34 2.381 . S
O42 C41 1.258 . S
O43 Cd34 2.378 . S
O43 C41 1.256 . S
Zn44 O50 1.920 . S
Zn44 O56 1.898 . S
Zn44 O59 1.905 1_455 S
Zn45 O53 1.905 . S
Zn45 O54 1.898 . S
Zn45 O62 1.920 . S
Zn46 O49 2.080 . S
Zn46 O52 2.114 1_545 S
Zn46 O55 2.120 1_545 S
Zn46 O57 2.120 . S
Zn46 O58 2.114 1_455 S
Zn46 O61 2.080 1_545 S
C47 O52 1.166 . S
C47 O53 1.182 . S
C48 O54 1.167 . S
C48 O55 1.299 . S
O49 Zn46 2.080 . S
O49 C63 1.305 . S
O50 Zn44 1.920 . S
O50 C63 1.234 . S
C51 O56 1.167 . S
C51 O57 1.299 . S
O52 Zn46 2.114 1_565 S
O52 C47 1.166 . S
O53 Zn45 1.905 . S
O53 C47 1.182 . S
O54 Zn45 1.898 . S
O54 C48 1.167 . S
O55 Zn46 2.120 1_565 S
O55 C48 1.299 . S
O56 Zn44 1.898 . S
O56 C51 1.167 . S
O57 Zn46 2.120 . S
O57 C51 1.299 . S
O58 Zn46 2.114 1_655 S
O58 C60 1.166 . S
O59 Zn44 1.905 1_655 S
O59 C60 1.182 . S
C60 O58 1.166 . S
C60 O59 1.182 . S
O61 Zn46 2.080 1_565 S
O61 C64 1.305 . S
O62 Zn45 1.920 . S
O62 C64 1.234 . S
C63 O49 1.305 . S
C63 O50 1.234 . S
C64 O61 1.305 . S
C64 O62 1.234 . S
Zn65 O71 1.920 . S
Zn65 O77 1.898 . S
Zn65 O80 1.905 . S
Zn66 O74 1.905 . S
Zn66 O75 1.898 . S
Zn66 O83 1.920 . S
Zn67 O70 2.080 . S
Zn67 O73 2.114 . S
Zn67 O76 2.120 . S
Zn67 O78 2.120 . S
Zn67 O79 2.114 . S
Zn67 O82 2.080 . S
C68 O73 1.166 . S
C68 O74 1.182 . S
C69 O75 1.167 . S
C69 O76 1.299 . S
O70 Zn67 2.080 . S
O70 C84 1.305 . S
O71 Zn65 1.920 . S
O71 C84 1.234 . S
C72 O77 1.167 . S
C72 O78 1.299 . S
O73 Zn67 2.114 . S
O73 C68 1.166 . S
O74 Zn66 1.905 . S
O74 C68 1.182 . S
O75 Zn66 1.898 . S
O75 C69 1.167 . S
O76 Zn67 2.120 . S
O76 C69 1.299 . S
O77 Zn65 1.898 . S
O77 C72 1.167 . S
O78 Zn67 2.120 . S
O78 C72 1.299 . S
O79 Zn67 2.114 . S
O79 C81 1.166 . S
O80 Zn65 1.905 . S
O80 C81 1.182 . S
C81 O79 1.166 . S
C81 O80 1.182 . S
O82 Zn67 2.080 . S
O82 C85 1.305 . S
O83 Zn66 1.920 . S
O83 C85 1.234 . S
C84 O70 1.305 . S
C84 O71 1.234 . S
C85 O82 1.305 . S
C85 O83 1.234 . S
H86 C92 0.930 . S
H87 C96 0.930 . S
H88 C101 0.929 . S
H89 C99 0.929 . S
H90 C94 0.929 . S
H91 C100 0.929 . S
C92 H86 0.930 . S
C92 C93 1.367 . S
C92 C100 1.378 . S
C93 C92 1.367 . S
C93 C101 1.433 . S
C94 H90 0.929 . S
C94 C96 1.378 . S
C94 C98 1.350 . S
C95 C98 1.463 . S
C95 C100 1.350 . S
C95 N103 1.427 . S
C96 H87 0.930 . S
C96 C94 1.378 . S
C96 C97 1.367 . S
C97 C96 1.367 . S
C97 C99 1.433 . S
C98 C94 1.350 . S
C98 C95 1.463 . S
C98 N102 1.427 . S
C99 H89 0.929 . S
C99 C97 1.433 . S
C99 N102 1.384 . S
C100 H91 0.929 . S
C100 C92 1.378 . S
C100 C95 1.350 . S
C101 H88 0.929 . S
C101 C93 1.433 . S
C101 N103 1.384 . S
N102 C98 1.427 . S
N102 C99 1.384 . S
N103 C95 1.427 . S
N103 C101 1.384 . S
H104 C110 0.930 . S
H105 C114 0.930 . S
H106 C119 0.929 . S
H107 C117 0.929 . S
H108 C112 0.929 . S
H109 C118 0.929 . S
C110 H104 0.930 . S
C110 C111 1.367 . S
C110 C118 1.378 . S
C111 C110 1.367 . S
C111 C119 1.433 . S
C112 H108 0.929 . S
C112 C114 1.378 . S
C112 C116 1.350 . S
C113 C116 1.463 . S
C113 C118 1.350 . S
C113 N121 1.427 . S
C114 H105 0.930 . S
C114 C112 1.378 . S
C114 C115 1.367 . S
C115 C114 1.367 . S
C115 C117 1.433 . S
C116 C112 1.350 . S
C116 C113 1.463 . S
C116 N120 1.427 . S
C117 H107 0.929 . S
C117 C115 1.433 . S
C117 N120 1.384 . S
C118 H109 0.929 . S
C118 C110 1.378 . S
C118 C113 1.350 . S
C119 H106 0.929 . S
C119 C111 1.433 . S
C119 N121 1.384 . S
N120 C116 1.427 . S
N120 C117 1.384 . S
N121 C113 1.427 . S
N121 C119 1.384 . S
H122 C128 0.930 . S
H123 C132 0.930 . S
H124 C137 0.929 . S
H125 C135 0.929 . S
H126 C130 0.929 . S
H127 C136 0.929 . S
C128 H122 0.930 . S
C128 C129 1.367 . S
C128 C136 1.378 . S
C129 C128 1.367 . S
C129 C137 1.433 . S
C130 H126 0.929 . S
C130 C132 1.378 . S
C130 C134 1.350 . S
C131 C134 1.463 . S
C131 C136 1.350 . S
C131 N139 1.427 . S
C132 H123 0.930 . S
C132 C130 1.378 . S
C132 C133 1.367 . S
C133 C132 1.367 . S
C133 C135 1.433 . S
C134 C130 1.350 . S
C134 C131 1.463 . S
C134 N138 1.427 . S
C135 H125 0.929 . S
C135 C133 1.433 . S
C135 N138 1.384 . S
C136 H127 0.929 . S
C136 C128 1.378 . S
C136 C131 1.350 . S
C137 H124 0.929 . S
C137 C129 1.433 . S
C137 N139 1.384 . S
N138 C134 1.427 . S
N138 C135 1.384 . S
N139 C131 1.427 . S
N139 C137 1.384 . S
H140 C146 0.930 . S
H141 C150 0.930 . S
H142 C155 0.929 . S
H143 C153 0.929 . S
H144 C148 0.929 . S
H145 C154 0.929 . S
C146 H140 0.930 . S
C146 C147 1.367 . S
C146 C154 1.378 . S
C147 C146 1.367 . S
C147 C155 1.433 . S
C148 H144 0.929 . S
C148 C150 1.378 . S
C148 C152 1.350 . S
C149 C152 1.463 . S
C149 C154 1.350 . S
C149 N157 1.427 . S
C150 H141 0.930 . S
C150 C148 1.378 . S
C150 C151 1.367 . S
C151 C150 1.367 . S
C151 C153 1.433 . S
C152 C148 1.350 . S
C152 C149 1.463 . S
C152 N156 1.427 . S
C153 H143 0.929 . S
C153 C151 1.433 . S
C153 N156 1.384 . S
C154 H145 0.929 . S
C154 C146 1.378 . S
C154 C149 1.350 . S
C155 H142 0.929 . S
C155 C147 1.433 . S
C155 N157 1.384 . S
N156 C152 1.427 . S
N156 C153 1.384 . S
N157 C149 1.427 . S
N157 C155 1.384 . S
H158 C164 0.930 . S
H159 C168 0.930 . S
H160 C173 0.929 . S
H161 C171 0.929 . S
H162 C166 0.929 . S
H163 C172 0.929 . S
C164 H158 0.930 . S
C164 C165 1.367 . S
C164 C172 1.378 . S
C165 C164 1.367 . S
C165 C173 1.433 1_556 S
C166 H162 0.929 . S
C166 C168 1.378 . S
C166 C170 1.350 . S
C167 C170 1.463 . S
C167 C172 1.350 . S
C167 N175 1.454 . S
C168 H159 0.930 . S
C168 C166 1.378 . S
C168 C169 1.367 . S
C169 C168 1.367 . S
C169 C171 1.433 . S
C170 C166 1.350 . S
C170 C167 1.463 . S
C170 N174 1.427 . S
C171 H161 0.929 . S
C171 C169 1.433 . S
C171 N174 1.384 . S
C172 H163 0.929 . S
C172 C164 1.378 . S
C172 C167 1.350 . S
C173 H160 0.929 . S
C173 C165 1.433 1_554 S
C173 N175 1.376 1_554 S
N174 C170 1.427 . S
N174 C171 1.384 . S
N175 C167 1.454 . S
N175 C173 1.376 1_556 S
H176 C182 0.930 . S
H177 C186 0.930 . S
H178 C191 0.929 . S
H179 C189 0.929 . S
H180 C184 0.929 . S
H181 C190 0.929 . S
C182 H176 0.930 . S
C182 C183 1.367 . S
C182 C190 1.378 . S
C183 C182 1.367 . S
C183 C191 1.433 1_556 S
C184 H180 0.929 . S
C184 C186 1.378 . S
C184 C188 1.350 . S
C185 C188 1.463 . S
C185 C190 1.350 . S
C185 N193 1.427 . S
C186 H177 0.930 . S
C186 C184 1.378 . S
C186 C187 1.367 . S
C187 C186 1.367 . S
C187 C189 1.433 . S
C188 C184 1.350 . S
C188 C185 1.463 . S
C188 N192 1.427 . S
C189 H179 0.929 . S
C189 C187 1.433 . S
C189 N192 1.384 . S
C190 H181 0.929 . S
C190 C182 1.378 . S
C190 C185 1.350 . S
C191 H178 0.929 . S
C191 C183 1.433 1_554 S
C191 N193 1.384 1_554 S
N192 C188 1.427 . S
N192 C189 1.384 . S
N193 C185 1.427 . S
N193 C191 1.384 1_556 S
H194 C200 0.930 1_554 S
H195 C204 0.930 . S
H196 C209 0.929 1_455 S
H197 C207 0.929 . S
H198 C202 0.929 . S
H199 C208 0.929 . S
C200 H194 0.930 1_556 S
C200 C201 1.367 . S
C200 C208 1.378 . S
C201 C200 1.367 . S
C201 C209 1.433 . S
C202 H198 0.929 . S
C202 C204 1.378 . S
C202 C206 1.350 . S
C203 C206 1.463 . S
C203 C208 1.350 . S
C203 N211 1.427 . S
C204 H195 0.930 . S
C204 C202 1.378 . S
C204 C205 1.367 . S
C205 C204 1.367 . S
C205 C207 1.433 . S
C206 C202 1.350 . S
C206 C203 1.463 . S
C206 N210 1.427 . S
C207 H197 0.929 . S
C207 C205 1.433 . S
C207 N210 1.384 . S
C208 H199 0.929 . S
C208 C200 1.378 . S
C208 C203 1.350 . S
C209 H196 0.929 1_655 S
C209 C201 1.433 . S
C209 N211 1.384 . S
N210 C206 1.427 . S
N210 C207 1.384 . S
N211 C203 1.427 . S
N211 C209 1.384 . S
H212 C218 0.930 . S
H213 C222 0.930 . S
H214 C227 0.929 . S
H215 C225 0.929 . S
H216 C220 0.929 . S
H217 C226 0.929 . S
C218 H212 0.930 . S
C218 C219 1.367 . S
C218 C226 1.378 . S
C219 C218 1.367 . S
C219 C227 1.433 1_556 S
C220 H216 0.929 . S
C220 C222 1.378 . S
C220 C224 1.350 . S
C221 C224 1.463 . S
C221 C226 1.350 . S
C221 N229 1.427 . S
C222 H213 0.930 . S
C222 C220 1.378 . S
C222 C223 1.367 . S
C223 C222 1.367 . S
C223 C225 1.433 . S
C224 C220 1.350 . S
C224 C221 1.463 . S
C224 N228 1.427 . S
C225 H215 0.929 . S
C225 C223 1.433 . S
C225 N228 1.384 . S
C226 H217 0.929 . S
C226 C218 1.378 . S
C226 C221 1.350 . S
C227 H214 0.929 . S
C227 C219 1.433 1_554 S
C227 N229 1.384 1_554 S
N228 C224 1.427 . S
N228 C225 1.384 . S
N229 C221 1.427 . S
N229 C227 1.384 1_556 S
H230 C236 0.930 . S
H231 C240 0.930 . S
H232 C245 0.929 . S
H233 C243 0.929 . S
H234 C238 0.929 . S
H235 C244 0.929 . S
C236 H230 0.930 . S
C236 C237 1.367 . S
C236 C244 1.378 . S
C237 C236 1.367 . S
C237 C245 1.433 . S
C238 H234 0.929 . S
C238 C240 1.378 . S
C238 C242 1.350 . S
C239 C242 1.463 . S
C239 C244 1.350 . S
C239 N247 1.427 . S
C240 H231 0.930 . S
C240 C238 1.378 . S
C240 C241 1.367 . S
C241 C240 1.367 . S
C241 C243 1.433 . S
C242 C238 1.350 . S
C242 C239 1.463 . S
C242 N246 1.427 . S
C243 H233 0.929 . S
C243 C241 1.433 . S
C243 N246 1.384 . S
C244 H235 0.929 . S
C244 C236 1.378 . S
C244 C239 1.350 . S
C245 H232 0.929 . S
C245 C237 1.433 . S
C245 N247 1.384 . S
N246 C242 1.427 . S
N246 C243 1.384 . S
N247 C239 1.427 . S
N247 C245 1.384 . S
H248 C254 0.930 . S
H249 C258 0.930 . S
H250 C263 0.929 . S
H251 C261 0.929 . S
H252 C256 0.929 . S
H253 C262 0.929 . S
C254 H248 0.930 . S
C254 C255 1.367 . S
C254 C262 1.378 . S
C255 C254 1.367 . S
C255 C263 1.433 . S
C256 H252 0.929 . S
C256 C258 1.378 . S
C256 C260 1.350 . S
C257 C260 1.463 . S
C257 C262 1.350 . S
C257 N265 1.427 . S
C258 H249 0.930 . S
C258 C256 1.378 . S
C258 C259 1.367 . S
C259 C258 1.367 . S
C259 C261 1.433 . S
C260 C256 1.350 . S
C260 C257 1.463 . S
C260 N264 1.427 . S
C261 H251 0.929 . S
C261 C259 1.433 . S
C261 N264 1.384 . S
C262 H253 0.929 . S
C262 C254 1.378 . S
C262 C257 1.350 . S
C263 H250 0.929 . S
C263 C255 1.433 . S
C263 N265 1.384 . S
N264 C260 1.427 . S
N264 C261 1.384 . S
N265 C257 1.427 . S
N265 C263 1.384 . S
H266 C272 0.930 . S
H267 C276 0.930 . S
H268 C281 0.929 . S
H269 C279 0.929 . S
H270 C274 0.929 . S
H271 C280 0.929 . S
C272 H266 0.930 . S
C272 C273 1.367 . S
C272 C280 1.378 . S
C273 C272 1.367 . S
C273 C281 1.433 . S
C274 H270 0.929 . S
C274 C276 1.378 . S
C274 C278 1.350 . S
C275 C278 1.463 . S
C275 C280 1.350 . S
C275 N283 1.427 . S
C276 H267 0.930 . S
C276 C274 1.378 . S
C276 C277 1.367 . S
C277 C276 1.367 . S
C277 C279 1.433 . S
C278 C274 1.350 . S
C278 C275 1.463 . S
C278 N282 1.427 . S
C279 H269 0.929 . S
C279 C277 1.433 . S
C279 N282 1.384 . S
C280 H271 0.929 . S
C280 C272 1.378 . S
C280 C275 1.350 . S
C281 H268 0.929 . S
C281 C273 1.433 . S
C281 N283 1.384 . S
N282 C278 1.427 . S
N282 C279 1.384 . S
N283 C275 1.427 . S
N283 C281 1.384 . S
H284 C290 0.930 . S
H285 C294 0.930 . S
H286 C299 0.929 . S
H287 C297 0.929 . S
H288 C292 0.929 . S
H289 C298 0.929 . S
C290 H284 0.930 . S
C290 C291 1.367 . S
C290 C298 1.378 . S
C291 C290 1.367 . S
C291 C299 1.433 . S
C292 H288 0.929 . S
C292 C294 1.378 . S
C292 C296 1.350 . S
C293 C296 1.463 . S
C293 C298 1.350 . S
C293 N301 1.427 . S
C294 H285 0.930 . S
C294 C292 1.378 . S
C294 C295 1.367 . S
C295 C294 1.367 . S
C295 C297 1.433 . S
C296 C292 1.350 . S
C296 C293 1.463 . S
C296 N300 1.427 . S
C297 H287 0.929 . S
C297 C295 1.433 . S
C297 N300 1.384 . S
C298 H289 0.929 . S
C298 C290 1.378 . S
C298 C293 1.350 . S
C299 H286 0.929 . S
C299 C291 1.433 . S
C299 N301 1.384 . S
N300 C296 1.427 . S
N300 C297 1.384 . S
N301 C293 1.427 . S
N301 C299 1.384 . S
C97 C51 1.437 . S
C93 C8 1.536 . S
C115 C47 1.410 . S
C111 C19 1.514 . S
C133 C72 1.457 . S
C129 C30 1.524 . S
C147 C41 1.515 . S
C151 C68 1.395 . S
C165 C7 1.235 1_556 S
C169 C69 1.124 . S
C187 C84 1.120 . S
C183 C16 1.129 . S
C201 C5 1.428 1_655 S
C205 C85 1.564 . S
C223 C81 1.633 . S
C219 C18 1.756 1_556 S
C241 C48 1.138 1_655 S
C237 C29 1.240 . S
C255 C38 1.128 . S
C259 C63 1.119 . S
C277 C64 1.557 . S
C273 C27 1.425 . S
C295 C60 1.620 . S
C291 C40 1.762 . S
