# Generated by pormake.
# Topology nia, (6,6)-cn, num edge types: 1
# Building blocks:
#     Node 0, Type 0, BuildingBlock: KUMBOL_clean_sbu_1, # of connection points: 6
#     Node 1, Type 0, BuildingBlock: KUMBOL_clean_sbu_1, # of connection points: 6
#     Node 2, Type 1, BuildingBlock: MIDCAF_clean_sbu_0, # of connection points: 6
#     Node 3, Type 1, BuildingBlock: MIDCAF_clean_sbu_0, # of connection points: 6
#     Edge 4, Type (0, 1), BuildingBlock: MIFKUJ_clean_linker_0, # of connection points: 2
#     Edge 5, Type (0, 1), BuildingBlock: MIFKUJ_clean_linker_0, # of connection points: 2
#     Edge 6, Type (0, 1), BuildingBlock: MIFKUJ_clean_linker_0, # of connection points: 2
#     Edge 7, Type (0, 1), BuildingBlock: MIFKUJ_clean_linker_0, # of connection points: 2
#     Edge 8, Type (0, 1), BuildingBlock: MIFKUJ_clean_linker_0, # of connection points: 2
#     Edge 9, Type (0, 1), BuildingBlock: MIFKUJ_clean_linker_0, # of connection points: 2
#     Edge 10, Type (0, 1), BuildingBlock: MIFKUJ_clean_linker_0, # of connection points: 2
#     Edge 11, Type (0, 1), BuildingBlock: MIFKUJ_clean_linker_0, # of connection points: 2
#     Edge 12, Type (0, 1), BuildingBlock: MIFKUJ_clean_linker_0, # of connection points: 2
#     Edge 13, Type (0, 1), BuildingBlock: MIFKUJ_clean_linker_0, # of connection points: 2
#     Edge 14, Type (0, 1), BuildingBlock: MIFKUJ_clean_linker_0, # of connection points: 2
#     Edge 15, Type (0, 1), BuildingBlock: MIFKUJ_clean_linker_0, # of connection points: 2
# Relax obj value: 0.166
# Max RMSD: 0.273
# Mean RMSD: 0.198
data_MOF--net-nia--node1-KUMBOL_clean_sbu_1--node2-MIDCAF_clean_sbu_0--edge1-MIFKUJ_clean_linker_0
_symmetry_space_group_name_H-M    P1
_symmetry_Int_Tables_number       1
_symmetry_cell_setting            triclinic
loop_
_symmetry_equiv_pos_as_xyz
'x, y, z'
_cell_length_a     35.329149
_cell_length_b     35.263467
_cell_length_c     40.427726
_cell_angle_alpha  89.871155
_cell_angle_beta   90.065098
_cell_angle_gamma 133.9835
loop_
_atom_site_label
_atom_site_type_symbol
_atom_site_fract_x
_atom_site_fract_y
_atom_site_fract_z
_atom_type_partial_charge
C0 C 0.96323 0.02908 0.89981 0.0
C1 C 0.86979 0.95087 0.89503 0.0
C2 C 0.91509 0.98737 0.91472 0.0
C3 C 0.87354 0.95655 0.86047 0.0
C4 C 0.96667 0.03576 0.86516 0.0
C5 C 0.92176 -0.00103 0.8456 0.0
N6 N 0.00636 0.0639 0.91913 0.0
C7 C 0.05313 0.10774 0.9059 0.0
C8 C 0.01505 0.07981 0.85123 0.0
C9 C 0.05832 0.11625 0.87174 0.0
Gd10 Gd 0.02126 0.97747 0.03719 0.0
Gd11 Gd 0.9934 0.04711 0.97578 0.0
N12 N 0.9124 0.98295 0.94836 0.0
C13 C 0.82178 0.91005 0.91065 0.0
C14 C 0.86518 0.9443 0.96365 0.0
C15 C 0.81943 0.90705 0.94509 0.0
H16 H 0.8618 0.94189 0.99003 0.0
H17 H 0.78223 0.87624 0.95741 0.0
H18 H 0.149 0.08422 0.011 0.0
H19 H 0.08677 0.13567 0.92173 0.0
H20 H 0.23464 0.15293 0.03611 0.0
H21 H 0.78615 0.88122 0.89639 0.0
H22 H 0.83914 0.92875 0.84502 0.0
H23 H 0.93541 0.92508 0.09933 0.0
H24 H 0.0192 0.0864 0.82474 0.0
H25 H 0.09571 0.15075 0.86127 0.0
H26 H 0.2002 0.13329 0.15234 0.0
H27 H 0.92377 0.00328 0.81894 0.0
H28 H 0.02126 0.0039 0.18868 0.0
H29 H 0.93642 0.93628 0.15971 0.0
N30 N 0.01799 0.98753 0.09402 0.0
C31 C 0.06516 0.02477 0.10937 0.0
C32 C 0.97221 0.95582 0.11162 0.0
C33 C 0.02085 -0.00041 0.16212 0.0
C34 C 0.97286 0.96157 0.14586 0.0
C35 C 0.06776 0.03173 0.14394 0.0
H36 H 0.11962 0.07636 0.18576 0.0
N37 N 0.1066 0.05273 0.05651 0.0
C38 C 0.11065 0.0581 0.09015 0.0
C39 C 0.20483 0.1318 0.08583 0.0
C40 C 0.15984 0.09807 0.10557 0.0
C41 C 0.15063 0.08683 0.0373 0.0
C42 C 0.20007 0.12657 0.05159 0.0
O43 O 0.97673 0.97824 0.95366 0.0
O44 O 0.95754 0.92604 0.99842 0.0
O45 O 0.05755 0.94668 0.03404 0.0
O46 O 0.99091 0.90961 0.06615 0.0
O47 O 0.9433 0.00746 0.02224 0.0
O48 O 0.93708 0.93883 0.03388 0.0
O49 O 0.02578 0.03943 0.05799 0.0
O50 O 0.06002 0.08885 0.012 0.0
O51 O 0.95921 0.07963 0.96765 0.0
O52 O 0.04028 0.13019 0.98213 0.0
O53 O 0.06734 0.0078 0.98889 0.0
O54 O 0.06442 0.06324 0.95924 0.0
C55 C 0.95888 0.93397 0.96636 0.0
C56 C 0.92094 0.96288 0.03756 0.0
C57 C 0.00759 0.85805 0.05077 0.0
C58 C 0.01499 0.79686 0.06771 0.0
C59 C 0.94199 0.76703 0.03312 0.0
C60 C 0.96131 0.81754 0.03352 0.0
C61 C 0.96834 0.75652 0.05023 0.0
C62 C 0.03469 0.84786 0.06719 0.0
C63 C 0.02555 0.90962 0.05563 0.0
C64 C 0.16269 0.1035 0.14012 0.0
C65 C 0.11679 0.07082 0.15921 0.0
H66 H 0.24338 0.16223 0.0967 0.0
C67 C 0.05067 0.08449 0.04367 0.0
C68 C 0.08189 0.04048 0.96422 0.0
C69 C 0.02062 0.16743 0.946 0.0
C70 C 0.00024 0.20602 0.90863 0.0
C71 C 0.08914 0.24263 0.91143 0.0
C72 C 0.07354 0.20617 0.93578 0.0
C73 C 0.05285 0.24246 0.89778 0.0
C74 C 0.98419 0.16793 0.93249 0.0
C75 C 0.00414 0.12806 0.97152 0.0
H76 H 0.90588 0.73564 0.02004 0.0
H77 H 0.93959 0.8247 0.02121 0.0
H78 H 0.95145 0.7166 0.05033 0.0
H79 H 0.07072 0.8798 0.08019 0.0
H80 H 0.12971 0.27148 0.9033 0.0
H81 H 0.1031 0.20824 0.94635 0.0
H82 H 0.06619 0.27128 0.87885 0.0
H83 H 0.94389 0.13969 0.94125 0.0
C84 C 0.00899 0.05225 0.61715 0.0
C85 C 0.09368 0.14254 0.62259 0.0
C86 C 0.05152 0.10065 0.60281 0.0
C87 C 0.09254 0.13525 0.65687 0.0
C88 C 0.00779 0.04487 0.65156 0.0
C89 C 0.04976 0.0866 0.67131 0.0
N90 N 0.96932 0.01219 0.5974 0.0
C91 C 0.92658 0.9644 0.61049 0.0
C92 C 0.96453 0.99563 0.6651 0.0
C93 C 0.92365 0.95533 0.64448 0.0
Gd94 Gd 0.02848 0.98638 0.47671 0.0
Gd95 Gd 0.97891 0.03152 0.54084 0.0
N96 N 0.05262 0.10594 0.56931 0.0
C97 C 0.136 0.19038 0.60726 0.0
C98 C 0.09285 0.153 0.55439 0.0
C99 C 0.13537 0.19573 0.57306 0.0
H100 H 0.09242 0.15792 0.52816 0.0
H101 H 0.16758 0.23282 0.56108 0.0
H102 H 0.94776 0.86111 0.50694 0.0
H103 H 0.89445 0.9334 0.59472 0.0
H104 H 0.86967 0.77188 0.48915 0.0
H105 H 0.16917 0.2235 0.6216 0.0
H106 H 0.12468 0.16697 0.67245 0.0
H107 H 0.06734 0.06393 0.41113 0.0
H108 H 0.96218 0.9884 0.69142 0.0
H109 H 0.88985 0.91733 0.65476 0.0
H110 H 0.84579 0.79332 0.37664 0.0
H111 H 0.04956 0.08161 0.69778 0.0
H112 H 0.96397 0.96692 0.33063 0.0
H113 H 0.04066 0.05499 0.35296 0.0
N114 N 0.00468 0.98257 0.42197 0.0
C115 C 0.96292 0.93364 0.41017 0.0
C116 C 0.03295 0.02575 0.40184 0.0
C117 C 0.9751 0.97082 0.35629 0.0
C118 C 0.0183 0.02063 0.36882 0.0
C119 C 0.94702 0.92655 0.37691 0.0
H120 H 0.89139 0.8694 0.33971 0.0
N121 N 0.95196 0.89854 0.46363 0.0
C122 C 0.9355 0.89067 0.43164 0.0
C123 C 0.86761 0.79659 0.44104 0.0
C124 C 0.89264 0.83947 0.41965 0.0
C125 C 0.93046 0.85629 0.4835 0.0
C126 C 0.88704 0.80503 0.47297 0.0
O127 O 0.04555 0.04002 0.55746 0.0
O128 O 0.09123 0.05235 0.51105 0.0
O129 O 0.05735 0.94838 0.48018 0.0
O130 O 0.08502 0.00453 0.44125 0.0
O131 O 0.01863 0.07929 0.49356 0.0
O132 O 0.077 0.07357 0.47573 0.0
O133 O 0.9684 0.98885 0.46119 0.0
O134 O 0.91859 0.96273 0.50761 0.0
O135 O 0.96117 0.07688 0.52558 0.0
O136 O 0.92205 0.0253 0.5682 0.0
O137 O 0.00046 0.94838 0.52776 0.0
O138 O 0.9347 0.94562 0.5388 0.0
C139 C 0.08788 0.05602 0.54307 0.0
C140 C 0.0591 0.09619 0.47556 0.0
C141 C 0.14058 0.99305 0.45642 0.0
C142 C 0.20196 0.98778 0.43632 0.0
C143 C 0.23233 0.05997 0.47213 0.0
C144 C 0.18146 0.03944 0.47346 0.0
C145 C 0.24272 0.03459 0.45358 0.0
C146 C 0.15072 0.96704 0.43841 0.0
C147 C 0.08793 0.97312 0.45454 0.0
C148 C 0.87731 0.83237 0.38644 0.0
C149 C 0.90393 0.87572 0.36524 0.0
H150 H 0.83466 0.75669 0.43274 0.0
C151 C 0.92303 0.96432 0.47533 0.0
C152 C 0.95839 0.92968 0.54441 0.0
C153 C 0.87677 0.04167 0.53971 0.0
C154 C 0.81082 0.0438 0.55263 0.0
C155 C 0.79931 0.99405 0.50525 0.0
C156 C 0.84698 0.00924 0.51244 0.0
C157 C 0.78122 0.01117 0.52517 0.0
C158 C 0.85874 0.0589 0.55955 0.0
C159 C 0.92619 0.05741 0.54881 0.0
H160 H 0.26397 0.09612 0.4851 0.0
H161 H 0.17411 0.06009 0.48711 0.0
H162 H 0.28282 0.05228 0.45227 0.0
H163 H 0.11845 0.9308 0.4257 0.0
H164 H 0.77627 0.96887 0.48421 0.0
H165 H 0.86057 0.99581 0.49687 0.0
H166 H 0.74398 -0.00145 0.51926 0.0
H167 H 0.88268 0.0848 0.58021 0.0
Zn168 Zn 0.36658 0.6735 0.19199 0.0
Zn169 Zn 0.3358 0.64786 0.31642 0.0
Zn170 Zn 0.35348 0.66146 0.25468 0.0
C171 C 0.44188 0.7035 0.30705 0.0
C172 C 0.2741 0.54861 0.29427 0.0
O173 O 0.31867 0.6913 0.23578 0.0
O174 O 0.31948 0.68344 0.18154 0.0
C175 C 0.46637 0.7415 0.21665 0.0
O176 O 0.43107 0.70655 0.27733 0.0
O177 O 0.40583 0.67614 0.32845 0.0
O178 O 0.27561 0.57077 0.31939 0.0
O179 O 0.30215 0.57632 0.26859 0.0
O180 O 0.44342 0.73522 0.19031 0.0
O181 O 0.43926 0.71517 0.24287 0.0
O182 O 0.31003 0.58287 0.23393 0.0
O183 O 0.33984 0.60317 0.18256 0.0
C184 C 0.3127 0.56919 0.20519 0.0
O185 O 0.32146 0.6956 0.27019 0.0
O186 O 0.32416 0.69387 0.32481 0.0
C187 C 0.30638 0.6938 0.20632 0.0
C188 C 0.31621 0.70744 0.29891 0.0
Zn189 Zn 0.65865 0.35554 0.81863 0.0
Zn190 Zn 0.6778 0.37291 0.69162 0.0
Zn191 Zn 0.66281 0.36079 0.75464 0.0
C192 C 0.73214 0.47191 0.71274 0.0
C193 C 0.56878 0.30472 0.70304 0.0
O194 O 0.6952 0.32747 0.77212 0.0
O195 O 0.69019 0.32738 0.82665 0.0
C196 C 0.71843 0.46029 0.80422 0.0
O197 O 0.71264 0.44581 0.74021 0.0
O198 O 0.72391 0.44869 0.68612 0.0
O199 O 0.60289 0.32738 0.68035 0.0
O200 O 0.58294 0.31182 0.73358 0.0
O201 O 0.69895 0.42989 0.82891 0.0
O202 O 0.71014 0.44187 0.77474 0.0
O203 O 0.57785 0.30805 0.76856 0.0
O204 O 0.58202 0.30479 0.823 0.0
C205 C 0.55515 0.2907 0.79711 0.0
O206 O 0.69529 0.32775 0.7374 0.0
O207 O 0.7091 0.34505 0.68374 0.0
C208 C 0.70224 0.31743 0.80099 0.0
C209 C 0.7108 0.32558 0.70916 0.0
H210 H 0.0659 0.83985 0.12735 0.0
H211 H 0.11432 0.82523 0.1581 0.0
H212 H 0.07174 0.71196 0.08538 0.0
H213 H 0.02569 0.72845 0.05316 0.0
H214 H 0.05801 0.6835 0.1597 0.0
H215 H 0.18314 0.81836 0.07677 0.0
H216 H 0.23245 0.90441 0.04976 0.0
H217 H 0.30101 0.98271 0.14302 0.0
H218 H 0.25142 0.89694 0.17066 0.0
H219 H 0.21806 0.63607 0.17014 0.0
H220 H 0.16693 0.65662 0.15571 0.0
H221 H 0.27125 0.79857 0.21422 0.0
H222 H 0.32397 0.77862 0.2277 0.0
H223 H 0.25327 0.81915 0.15727 0.0
H224 H 0.14455 0.6932 0.23992 0.0
H225 H 0.0965 0.61109 0.2716 0.0
H226 H 0.99574 0.52069 0.18831 0.0
H227 H 0.04423 0.60221 0.15573 0.0
C228 C 0.06738 0.8124 0.11745 0.0
C229 C 0.04228 0.78586 0.08738 0.0
C230 C 0.09461 0.8037 0.13536 0.0
C231 C 0.0965 0.7676 0.12395 0.0
C232 C 0.07036 0.73981 0.0946 0.0
C233 C 0.04388 0.74916 0.07631 0.0
C234 C 0.12741 0.76018 0.14198 0.0
C235 C 0.10067 0.71282 0.15905 0.0
C236 C 0.18298 0.7998 0.14254 0.0
C237 C 0.21311 0.85125 0.12582 0.0
C238 C 0.20834 0.85388 0.09156 0.0
C239 C 0.23642 0.90261 0.07613 0.0
C240 C 0.26971 0.94899 0.09468 0.0
C241 C 0.27513 0.94675 0.12869 0.0
C242 C 0.24707 0.8981 0.14424 0.0
C243 C 0.22965 0.67134 0.18022 0.0
C244 C 0.27401 0.7052 0.20063 0.0
C245 C 0.20025 0.6829 0.17218 0.0
C246 C 0.21445 0.72856 0.18446 0.0
C247 C 0.2592 0.76283 0.20474 0.0
C248 C 0.28896 0.75128 0.21267 0.0
C249 C 0.18397 0.7413 0.17407 0.0
C250 C 0.21064 0.78984 0.15851 0.0
C251 C 0.12827 0.70328 0.17575 0.0
C252 C 0.09835 0.65393 0.19528 0.0
C253 C 0.11244 0.65582 0.22825 0.0
C254 C 0.08507 0.60936 0.24639 0.0
C255 C 0.04302 0.56071 0.23201 0.0
C256 C 0.02831 0.55843 0.19943 0.0
C257 C 0.05575 0.60478 0.18109 0.0
H258 H 0.02184 0.52478 0.24611 0.0
H259 H 0.29142 0.98668 0.0827 0.0
H260 H 0.19115 0.12016 0.52529 0.0
H261 H 0.26456 0.15207 0.56066 0.0
H262 H 0.16078 0.07642 0.64507 0.0
H263 H 0.08697 0.043 0.60973 0.0
H264 H 0.2561 0.1768 0.65933 0.0
H265 H 0.19346 0.01915 0.61203 0.0
H266 H 0.16331 0.95535 0.56783 0.0
H267 H 0.31535 0.06684 0.52183 0.0
H268 H 0.34609 0.13191 0.56527 0.0
H269 H 0.47822 0.22152 0.73638 0.0
H270 H 0.38691 0.17095 0.71925 0.0
H271 H 0.44406 0.25842 0.6278 0.0
H272 H 0.53424 0.31195 0.64599 0.0
H273 H 0.35978 0.13524 0.6282 0.0
H274 H 0.41792 0.29578 0.67669 0.0
H275 H 0.44524 0.35416 0.72373 0.0
H276 H 0.29577 0.23176 0.77053 0.0
H277 H 0.26779 0.17244 0.72383 0.0
C278 C 0.18382 0.10964 0.55123 0.0
C279 C 0.13309 0.07811 0.5645 0.0
C280 C 0.2258 0.12824 0.57148 0.0
C281 C 0.21781 0.11587 0.60537 0.0
C282 C 0.16766 0.08617 0.61897 0.0
C283 C 0.12558 0.06718 0.59868 0.0
C284 C 0.26189 0.1332 0.62624 0.0
C285 C 0.27833 0.16705 0.65298 0.0
C286 C 0.29019 0.11967 0.61811 0.0
C287 C 0.272 0.0806 0.59187 0.0
C288 C 0.22037 0.03029 0.59234 0.0
C289 C 0.20317 0.99386 0.56742 0.0
C290 C 0.23741 0.00702 0.54206 0.0
C291 C 0.28892 0.05667 0.54155 0.0
C292 C 0.30622 0.09338 0.56629 0.0
C293 C 0.4711 0.23136 0.71341 0.0
C294 C 0.51337 0.27214 0.69329 0.0
C295 C 0.4191 0.20178 0.70333 0.0
C296 C 0.40913 0.21152 0.67243 0.0
C297 C 0.45119 0.25072 0.65184 0.0
C298 C 0.50269 0.28117 0.66231 0.0
C299 C 0.35529 0.18064 0.66024 0.0
C300 C 0.33685 0.14401 0.63508 0.0
C301 C 0.3251 0.1914 0.67008 0.0
C302 C 0.3417 0.22841 0.69746 0.0
C303 C 0.39134 0.28062 0.69736 0.0
C304 C 0.40679 0.31423 0.72385 0.0
C305 C 0.37256 0.29649 0.75035 0.0
C306 C 0.32253 0.24533 0.75018 0.0
C307 C 0.30695 0.21164 0.72374 0.0
H308 H 0.38462 0.32253 0.77085 0.0
H309 H 0.22402 0.97877 0.52278 0.0
H310 H 0.11906 0.1884 0.02485 0.0
H311 H 0.1586 0.26454 0.06014 0.0
H312 H 0.07923 0.1625 0.14513 0.0
H313 H 0.03716 0.08587 0.10996 0.0
H314 H 0.08641 0.26421 0.11513 0.0
H315 H 0.21022 0.25308 0.19455 0.0
H316 H 0.26155 0.22937 0.19325 0.0
H317 H 0.29052 0.26512 0.08944 0.0
H318 H 0.24007 0.28974 0.09031 0.0
H319 H 0.21712 0.4792 0.22907 0.0
H320 H 0.16719 0.38844 0.21159 0.0
H321 H 0.2935 0.44551 0.14547 0.0
H322 H 0.34375 0.5354 0.16356 0.0
H323 H 0.25387 0.35641 0.17452 0.0
H324 H 0.18586 0.42372 0.12059 0.0
H325 H 0.14366 0.45737 0.12128 0.0
H326 H 0.00855 0.31618 0.17015 0.0
H327 H 0.05018 0.28192 0.16992 0.0
C328 C 0.10943 0.18199 0.05092 0.0
C329 C 0.07491 0.131 0.06452 0.0
C330 C 0.1323 0.22553 0.07105 0.0
C331 C 0.12203 0.21887 0.10514 0.0
C332 C 0.08782 0.16825 0.11887 0.0
C333 C 0.06406 0.12461 0.09869 0.0
C334 C 0.14653 0.26496 0.12627 0.0
C335 C 0.12279 0.28422 0.1284 0.0
C336 C 0.19349 0.29043 0.14374 0.0
C337 C 0.22057 0.2722 0.14238 0.0
C338 C 0.22722 0.25543 0.17142 0.0
C339 C 0.25645 0.24222 0.17081 0.0
C340 C 0.27941 0.2459 0.1413 0.0
C341 C 0.2727 0.26227 0.11227 0.0
C342 C 0.24354 0.27557 0.11277 0.0
C343 C 0.23469 0.47197 0.2116 0.0
C344 C 0.28434 0.51409 0.19783 0.0
C345 C 0.20598 0.42024 0.20138 0.0
C346 C 0.22649 0.41023 0.17705 0.0
C347 C 0.27695 0.45223 0.16434 0.0
C348 C 0.30549 0.50362 0.17453 0.0
C349 C 0.19495 0.35716 0.16257 0.0
C350 C 0.21689 0.33595 0.16191 0.0
C351 C 0.14665 0.33035 0.14613 0.0
C352 C 0.12143 0.35065 0.1457 0.0
C353 C 0.14729 0.40003 0.13166 0.0
C354 C 0.12345 0.41917 0.13192 0.0
C355 C 0.07355 0.38903 0.14587 0.0
C356 C 0.04727 0.33957 0.15944 0.0
C357 C 0.07095 0.32027 0.15925 0.0
H358 H 0.05517 0.40393 0.14607 0.0
H359 H 0.30224 0.23589 0.14092 0.0
H360 H 0.76518 0.07881 0.53292 0.0
H361 H 0.74523 0.12025 0.56711 0.0
H362 H 0.79777 0.09651 0.65392 0.0
H363 H 0.81668 0.05391 0.62011 0.0
H364 H 0.68201 0.08966 0.622 0.0
H365 H 0.87327 0.21473 0.6991 0.0
H366 H 0.96266 0.25025 0.69478 0.0
H367 H 0.95445 0.25119 0.58885 0.0
H368 H 0.86533 0.2164 0.59255 0.0
H369 H 0.66667 0.23082 0.73537 0.0
H370 H 0.68371 0.17737 0.71744 0.0
H371 H 0.80856 0.30422 0.65395 0.0
H372 H 0.79182 0.35743 0.6719 0.0
H373 H 0.83418 0.25531 0.67843 0.0
H374 H 0.68308 0.20699 0.62599 0.0
H375 H 0.59589 0.17696 0.62508 0.0
H376 H 0.52773 0.03187 0.67207 0.0
H377 H 0.61464 0.0613 0.67357 0.0
C378 C 0.77138 0.08129 0.55938 0.0
C379 C 0.79315 0.06362 0.5737 0.0
C380 C 0.76008 0.1051 0.57887 0.0
C381 C 0.77068 0.11199 0.61294 0.0
C382 C 0.79001 0.09218 0.62758 0.0
C383 C 0.80106 0.06814 0.60817 0.0
C384 C 0.76476 0.14295 0.63266 0.0
C385 C 0.71511 0.12558 0.63463 0.0
C386 C 0.80824 0.1903 0.64864 0.0
C387 C 0.8622 0.21204 0.64612 0.0
C388 C 0.89051 0.2225 0.67489 0.0
C389 C 0.94118 0.24258 0.67255 0.0
C390 C 0.96411 0.25269 0.64156 0.0
C391 C 0.93653 0.24305 0.61284 0.0
C392 C 0.8859 0.22308 0.61505 0.0
C393 C 0.69881 0.24769 0.71844 0.0
C394 C 0.72797 0.29804 0.70493 0.0
C395 C 0.70841 0.21714 0.70811 0.0
C396 C 0.74703 0.23657 0.68405 0.0
C397 C 0.7786 0.28837 0.67251 0.0
C398 C 0.76892 0.31868 0.68269 0.0
C399 C 0.75131 0.20192 0.66797 0.0
C400 C 0.80079 0.2188 0.66641 0.0
C401 C 0.70795 0.15482 0.65167 0.0
C402 C 0.65552 0.13671 0.65038 0.0
C403 C 0.64956 0.16885 0.63635 0.0
C404 C 0.60018 0.15191 0.63569 0.0
C405 C 0.55633 0.10264 0.64864 0.0
C406 C 0.56176 0.07011 0.66216 0.0
C407 C 0.61109 0.08691 0.66293 0.0
H408 H 0.51813 0.08959 0.64811 0.0
H409 H 0.00332 0.26818 0.6398 0.0
H410 H 0.88515 0.00688 0.05882 0.0
H411 H 0.81419 0.97025 0.09773 0.0
H412 H 0.78421 0.82936 0.10675 0.0
H413 H 0.85316 0.8645 0.06613 0.0
H414 H 0.69612 0.80209 0.10608 0.0
H415 H 0.8523 0.92951 0.16752 0.0
H416 H 0.94104 0.0161 0.1791 0.0
H417 H 0.88054 0.08766 0.17977 0.0
H418 H 0.79153 0.00168 0.16761 0.0
H419 H 0.51924 0.71511 0.23664 0.0
H420 H 0.60669 0.75644 0.21711 0.0
H421 H 0.62813 0.88091 0.17149 0.0
H422 H 0.54056 0.83913 0.19023 0.0
H423 H 0.72525 0.91212 0.19874 0.0
H424 H 0.57233 0.7823 0.1267 0.0
H425 H 0.48442 0.6937 0.117 0.0
H426 H 0.54346 0.62396 0.14092 0.0
H427 H 0.63156 0.71223 0.15131 0.0
C428 C 0.86325 0.96789 0.06882 0.0
C429 C 0.87561 0.93907 0.05976 0.0
C430 C 0.82298 0.9472 0.09146 0.0
C431 C 0.79479 0.89766 0.10612 0.0
C432 C 0.80574 0.86795 0.09618 0.0
C433 C 0.84539 0.88822 0.07302 0.0
C434 C 0.75325 0.87663 0.13123 0.0
C435 C 0.70307 0.8259 0.12671 0.0
C436 C 0.76188 0.9074 0.15834 0.0
C437 C 0.81518 0.95909 0.16644 0.0
C438 C 0.85791 0.96373 0.16998 0.0
C439 C 0.90829 0.01272 0.17663 0.0
C440 C 0.91643 0.05735 0.1801 0.0
C441 C 0.87416 0.05304 0.17706 0.0
C442 C 0.8237 0.00416 0.17032 0.0
C443 C 0.54363 0.75245 0.22366 0.0
C444 C 0.52341 0.77407 0.21488 0.0
C445 C 0.59342 0.7759 0.21243 0.0
C446 C 0.62362 0.82149 0.19264 0.0
C447 C 0.60557 0.84592 0.18683 0.0
C448 C 0.55556 0.82203 0.19751 0.0
C449 C 0.66867 0.83839 0.17303 0.0
C450 C 0.71917 0.88824 0.17849 0.0
C451 C 0.6608 0.80653 0.14719 0.0
C452 C 0.60827 0.75371 0.14013 0.0
C453 C 0.56644 0.74803 0.13009 0.0
C454 C 0.51661 0.6979 0.12446 0.0
C455 C 0.50832 0.65321 0.12843 0.0
C456 C 0.54991 0.6586 0.13792 0.0
C457 C 0.59979 0.70865 0.14368 0.0
H458 H 0.4697 0.61442 0.12409 0.0
H459 H 0.95548 0.09526 0.18519 0.0
H460 H 0.86449 0.82817 0.54519 0.0
H461 H 0.83105 0.76176 0.58751 0.0
H462 H 0.9699 0.87896 0.64663 0.0
H463 H 0.00571 0.94341 0.6021 0.0
H464 H 0.95295 0.80245 0.65591 0.0
H465 H 0.83526 0.81942 0.66679 0.0
H466 H 0.77447 0.8289 0.65199 0.0
H467 H 0.66557 0.67241 0.61176 0.0
H468 H 0.72616 0.66235 0.62573 0.0
H469 H 0.71379 0.52752 0.74298 0.0
H470 H 0.75924 0.61922 0.73136 0.0
H471 H 0.86334 0.63341 0.66411 0.0
H472 H 0.81977 0.54349 0.67665 0.0
H473 H 0.76168 0.65863 0.67806 0.0
H474 H 0.97588 0.7493 0.65347 0.0
H475 H 0.03946 0.75186 0.68182 0.0
H476 H 0.95988 0.71459 0.77414 0.0
H477 H 0.89603 0.7122 0.74645 0.0
C478 C 0.8878 0.83931 0.56719 0.0
C479 C 0.93769 0.89032 0.57045 0.0
C480 C 0.86833 0.80166 0.59177 0.0
C481 C 0.89704 0.81511 0.62107 0.0
C482 C 0.94675 0.86693 0.62443 0.0
C483 C 0.96728 0.90388 0.59906 0.0
C484 C 0.87659 0.77409 0.64682 0.0
C485 C 0.91119 0.77161 0.66103 0.0
C486 C 0.82253 0.73493 0.65556 0.0
C487 C 0.78551 0.74031 0.64712 0.0
C488 C 0.79853 0.78717 0.65456 0.0
C489 C 0.76407 0.79263 0.64634 0.0
C490 C 0.71621 0.7513 0.63091 0.0
C491 C 0.70266 0.70439 0.62372 0.0
C492 C 0.73704 0.69876 0.63183 0.0
C493 C 0.7476 0.5511 0.72666 0.0
C494 C 0.76383 0.52888 0.71101 0.0
C495 C 0.77328 0.60331 0.71981 0.0
C496 C 0.81523 0.63376 0.69709 0.0
C497 C 0.83218 0.61165 0.68239 0.0
C498 C 0.80692 0.55997 0.68935 0.0
C499 C 0.83775 0.68602 0.6853 0.0
C500 C 0.80357 0.69044 0.67356 0.0
C501 C 0.8926 0.72903 0.68113 0.0
C502 C 0.93099 0.73035 0.6978 0.0
C503 C 0.97206 0.7419 0.67984 0.0
C504 C 0.00807 0.74319 0.69579 0.0
C505 C 0.0036 0.73324 0.72974 0.0
C506 C 0.96311 0.72201 0.74782 0.0
C507 C 0.92692 0.72055 0.73199 0.0
H508 H 0.03156 0.73432 0.74204 0.0
H509 H 0.68957 0.75559 0.62455 0.0
H510 H 0.27201 0.97868 0.44829 0.0
H511 H 0.28903 0.93474 0.41416 0.0
H512 H 0.1718 0.89018 0.34423 0.0
H513 H 0.15639 0.93642 0.37706 0.0
H514 H 0.16386 0.80555 0.36633 0.0
H515 H 0.28517 0.97749 0.31848 0.0
H516 H 0.35507 0.07456 0.31873 0.0
H517 H 0.46115 0.06928 0.36437 0.0
H518 H 0.39158 0.9721 0.36488 0.0
H519 H 0.235 0.69186 0.27189 0.0
H520 H 0.21336 0.74356 0.28325 0.0
H521 H 0.34661 0.84338 0.34914 0.0
H522 H 0.3697 0.79409 0.33626 0.0
H523 H 0.3392 0.90142 0.31746 0.0
H524 H 0.21417 0.73247 0.37566 0.0
H525 H 0.14477 0.6353 0.37783 0.0
H526 H 0.04679 0.6351 0.3147 0.0
H527 H 0.11592 0.73229 0.31188 0.0
C528 C 0.25042 0.96041 0.42539 0.0
C529 C 0.21268 0.96114 0.41561 0.0
C530 C 0.25996 0.93499 0.40604 0.0
C531 C 0.23163 0.90931 0.37673 0.0
C532 C 0.19382 0.90958 0.36688 0.0
C533 C 0.18486 0.93575 0.3859 0.0
C534 C 0.2413 0.88161 0.35677 0.0
C535 C 0.20182 0.82645 0.35504 0.0
C536 C 0.2909 0.90903 0.3423 0.0
C537 C 0.33299 0.96748 0.34195 0.0
C538 C 0.32325 0.99701 0.32884 0.0
C539 C 0.36285 0.05207 0.32879 0.0
C540 C 0.41249 0.07808 0.34162 0.0
C541 C 0.42266 0.04907 0.35446 0.0
C542 C 0.38317 0.994 0.3546 0.0
C543 C 0.26037 0.72592 0.28793 0.0
C544 C 0.30456 0.7399 0.30269 0.0
C545 C 0.24765 0.75494 0.29478 0.0
C546 C 0.27806 0.79715 0.31732 0.0
C547 C 0.32271 0.81136 0.3315 0.0
C548 C 0.33573 0.78301 0.3243 0.0
C549 C 0.26251 0.82499 0.3282 0.0
C550 C 0.30085 0.88037 0.32816 0.0
C551 C 0.21199 0.79773 0.34133 0.0
C552 C 0.17028 0.73947 0.34334 0.0
C553 C 0.17788 0.71163 0.36216 0.0
C554 C 0.13862 0.65659 0.3635 0.0
C555 C 0.09143 0.62905 0.34639 0.0
C556 C 0.08334 0.6565 0.32797 0.0
C557 C 0.12254 0.71153 0.32647 0.0
H558 H 0.06112 0.58643 0.3474 0.0
H559 H 0.44311 0.12071 0.34155 0.0
H560 H 0.15523 0.03525 0.97421 0.0
H561 H 0.22725 0.0674 0.9373 0.0
H562 H 0.16949 0.10493 0.86327 0.0
H563 H 0.09675 0.07137 0.89963 0.0
H564 H 0.20981 0.06795 0.83513 0.0
H565 H 0.26306 0.19906 0.91398 0.0
H566 H 0.27374 0.23374 0.9697 0.0
H567 H 0.37056 0.20676 0.99818 0.0
H568 H 0.35965 0.17099 0.94278 0.0
H569 H 0.48598 0.29611 0.773 0.0
H570 H 0.39424 0.24135 0.79154 0.0
H571 H 0.40586 0.14867 0.85162 0.0
H572 H 0.49598 0.2017 0.8327 0.0
H573 H 0.38655 0.2156 0.88242 0.0
H574 H 0.3345 0.08641 0.8012 0.0
H575 H 0.32429 0.05429 0.74479 0.0
H576 H 0.22445 0.07859 0.71948 0.0
H577 H 0.23552 0.11269 0.77557 0.0
C578 C 0.15763 0.05012 0.95005 0.0
C579 C 0.1218 0.0536 0.94061 0.0
C580 C 0.19876 0.06833 0.92892 0.0
C581 C 0.20453 0.08988 0.89786 0.0
C582 C 0.16636 0.0893 0.88731 0.0
C583 C 0.12537 0.07118 0.90846 0.0
C584 C 0.25274 0.11729 0.87781 0.0
C585 C 0.24848 0.10056 0.84528 0.0
C586 C 0.30313 0.15997 0.89106 0.0
C587 C 0.31018 0.18195 0.92431 0.0
C588 C 0.28633 0.20018 0.93219 0.0
C589 C 0.29246 0.22007 0.96371 0.0
C590 C 0.32283 0.22247 0.98745 0.0
C591 C 0.34707 0.20491 0.97974 0.0
C592 C 0.34094 0.18483 0.94829 0.0
C593 C 0.46802 0.26274 0.78913 0.0
C594 C 0.49764 0.25267 0.80127 0.0
C595 C 0.41588 0.23166 0.79972 0.0
C596 C 0.39345 0.19092 0.82278 0.0
C597 C 0.42235 0.17958 0.83358 0.0
C598 C 0.47377 0.20992 0.82279 0.0
C599 C 0.34381 0.16559 0.84005 0.0
C600 C 0.34789 0.18313 0.87214 0.0
C601 C 0.29358 0.12398 0.82621 0.0
C602 C 0.28705 0.10356 0.79244 0.0
C603 C 0.31134 0.08612 0.78347 0.0
C604 C 0.30514 0.06724 0.75157 0.0
C605 C 0.27415 0.06489 0.72846 0.0
C606 C 0.24882 0.08087 0.73735 0.0
C607 C 0.25512 0.10007 0.76919 0.0
H608 H 0.26953 0.05045 0.70374 0.0
H609 H 0.3276 0.23796 0.01182 0.0
H610 H 0.15175 0.15397 0.44101 0.0
H611 H 0.18829 0.22384 0.40048 0.0
H612 H 0.05853 0.20985 0.41758 0.0
H613 H 0.02122 0.13944 0.45753 0.0
H614 H 0.07858 0.21701 0.35205 0.0
H615 H 0.17922 0.30919 0.45169 0.0
H616 H 0.23617 0.33006 0.4983 0.0
H617 H 0.35501 0.37546 0.4302 0.0
H618 H 0.29836 0.35406 0.38315 0.0
H619 H 0.17681 0.46978 0.31984 0.0
H620 H 0.13962 0.38358 0.33851 0.0
H621 H 0.27232 0.41642 0.29706 0.0
H622 H 0.30902 0.5025 0.27744 0.0
H623 H 0.25688 0.39559 0.36682 0.0
H624 H 0.16094 0.31307 0.26715 0.0
H625 H 0.10396 0.29113 0.2203 0.0
H626 H 0.97843 0.23022 0.28751 0.0
H627 H 0.03451 0.25129 0.33482 0.0
C628 C 0.13104 0.16586 0.43623 0.0
C629 C 0.08353 0.14104 0.45261 0.0
C630 C 0.15201 0.20583 0.41303 0.0
C631 C 0.12621 0.2222 0.40599 0.0
C632 C 0.079 0.19771 0.42244 0.0
C633 C 0.05798 0.15774 0.44556 0.0
C634 C 0.14866 0.26554 0.38203 0.0
C635 C 0.11748 0.25612 0.35537 0.0
C636 C 0.2001 0.31616 0.38564 0.0
C637 C 0.23432 0.32943 0.41391 0.0
C638 C 0.21733 0.32323 0.44666 0.0
C639 C 0.24957 0.33521 0.47316 0.0
C640 C 0.29911 0.35393 0.46722 0.0
C641 C 0.31658 0.36085 0.43476 0.0
C642 C 0.28443 0.34882 0.40817 0.0
C643 C 0.19696 0.4577 0.3136 0.0
C644 C 0.24557 0.49251 0.29714 0.0
C645 C 0.17575 0.40851 0.32428 0.0
C646 C 0.20331 0.39369 0.31927 0.0
C647 C 0.2504 0.42709 0.30107 0.0
C648 C 0.27112 0.47601 0.28972 0.0
C649 C 0.18639 0.3473 0.33729 0.0
C650 C 0.21846 0.35619 0.36304 0.0
C651 C 0.13587 0.2963 0.33282 0.0
C652 C 0.10206 0.28407 0.30456 0.0
C653 C 0.12131 0.29533 0.27198 0.0
C654 C 0.08912 0.28293 0.24532 0.0
C655 C 0.03773 0.25965 0.25093 0.0
C656 C 0.01828 0.24834 0.2832 0.0
C657 C 0.05015 0.26024 0.30995 0.0
H658 H 0.0129 0.25019 0.23027 0.0
H659 H 0.32402 0.36319 0.48776 0.0
H660 H 0.02132 0.2953 0.8963 0.0
H661 H 0.96254 0.30262 0.87437 0.0
H662 H 0.83583 0.13315 0.87165 0.0
H663 H 0.89563 0.12539 0.89211 0.0
H664 H 0.83338 0.17422 0.81779 0.0
H665 H 0.84206 0.2035 0.93294 0.0
H666 H 0.88348 0.2422 0.98737 0.0
H667 H 0.95976 0.39569 0.95098 0.0
H668 H 0.91939 0.35802 0.89615 0.0
H669 H 0.67037 0.24453 0.8467 0.0
H670 H 0.71016 0.21123 0.86043 0.0
H671 H 0.81914 0.29979 0.77943 0.0
H672 H 0.78061 0.33535 0.76638 0.0
H673 H 0.82063 0.28822 0.87664 0.0
H674 H 0.83221 0.19736 0.75923 0.0
H675 H 0.77707 0.13816 0.71259 0.0
H676 H 0.63995 0.0877 0.76029 0.0
H677 H 0.6934 0.14387 0.80818 0.0
C678 C 0.9812 0.25943 0.89061 0.0
C679 C 0.96333 0.2097 0.89587 0.0
C680 C 0.94741 0.26373 0.8784 0.0
C681 C 0.89456 0.21847 0.87176 0.0
C682 C 0.87645 0.16864 0.87669 0.0
C683 C 0.91051 0.16426 0.88872 0.0
C684 C 0.85855 0.22381 0.8601 0.0
C685 C 0.83066 0.19934 0.83046 0.0
C686 C 0.85366 0.25507 0.87739 0.0
C687 C 0.87804 0.27798 0.91034 0.0
C688 C 0.86799 0.24557 0.93646 0.0
C689 C 0.89123 0.26731 0.9674 0.0
C690 C 0.92433 0.32138 0.97261 0.0
C691 C 0.93416 0.35381 0.9469 0.0
C692 C 0.91106 0.33228 0.91589 0.0
C693 C 0.7023 0.25634 0.83145 0.0
C694 C 0.72218 0.29223 0.80528 0.0
C695 C 0.7247 0.23698 0.8392 0.0
C696 C 0.76717 0.25262 0.82077 0.0
C697 C 0.78572 0.28653 0.79357 0.0
C698 C 0.7636 0.30662 0.78604 0.0
C699 C 0.79691 0.24029 0.83355 0.0
C700 C 0.82369 0.26357 0.8636 0.0
C701 C 0.79921 0.20657 0.81706 0.0
C702 C 0.76729 0.17604 0.78714 0.0
C703 C 0.79036 0.17395 0.75975 0.0
C704 C 0.75932 0.1406 0.73316 0.0
C705 C 0.70524 0.10978 0.73329 0.0
C706 C 0.68196 0.11194 0.76013 0.0
C707 C 0.71266 0.14459 0.78705 0.0
H708 H 0.68138 0.08392 0.71269 0.0
H709 H 0.94227 0.33814 0.99659 0.0
H710 H 0.82004 0.89184 0.4946 0.0
H711 H 0.74247 0.84884 0.46005 0.0
H712 H 0.84174 0.93221 0.3745 0.0
H713 H 0.91973 0.97895 0.40935 0.0
H714 H 0.74596 0.92551 0.40163 0.0
H715 H 0.73807 0.78096 0.33048 0.0
H716 H 0.75082 0.7207 0.33569 0.0
H717 H 0.72562 0.71029 0.44052 0.0
H718 H 0.71019 0.76825 0.43564 0.0
H719 H 0.5355 0.79766 0.28422 0.0
H720 H 0.62399 0.84464 0.3053 0.0
H721 H 0.55647 0.71843 0.37494 0.0
H722 H 0.46919 0.67108 0.35333 0.0
H723 H 0.6433 0.75063 0.34947 0.0
H724 H 0.58661 0.83061 0.39687 0.0
H725 H 0.55758 0.87712 0.39456 0.0
H726 H 0.70042 0.00726 0.34448 0.0
H727 H 0.72997 0.96114 0.34614 0.0
C728 C 0.82543 0.90103 0.46844 0.0
C729 C 0.87605 0.93782 0.45451 0.0
C730 C 0.78109 0.87601 0.44871 0.0
C731 C 0.78656 0.886 0.41462 0.0
C732 C 0.83687 0.92299 0.40065 0.0
C733 C 0.8813 0.94925 0.42054 0.0
C734 C 0.73981 0.86096 0.39412 0.0
C735 C 0.72371 0.88749 0.38992 0.0
C736 C 0.71092 0.81137 0.37908 0.0
C737 C 0.72485 0.78052 0.38285 0.0
C738 C 0.73581 0.76622 0.35468 0.0
C739 C 0.74266 0.73179 0.3575 0.0
C740 C 0.73908 0.71172 0.38843 0.0
C741 C 0.72867 0.72609 0.4166 0.0
C742 C 0.72099 0.75988 0.41383 0.0
C743 C 0.53997 0.77953 0.30337 0.0
C744 C 0.49572 0.73067 0.317 0.0
C745 C 0.5903 0.80658 0.31566 0.0
C746 C 0.59668 0.78514 0.34187 0.0
C747 C 0.55253 0.73564 0.35466 0.0
C748 C 0.50263 0.70877 0.34243 0.0
C749 C 0.64846 0.81444 0.35754 0.0
C750 C 0.66603 0.78913 0.3606 0.0
C751 C 0.67785 0.86447 0.37223 0.0
C752 C 0.66017 0.89218 0.37125 0.0
C753 C 0.61161 0.86896 0.38513 0.0
C754 C 0.59511 0.89527 0.38398 0.0
C755 C 0.62706 0.94504 0.36928 0.0
C756 C 0.67566 0.96866 0.35578 0.0
C757 C 0.69231 0.94246 0.35683 0.0
H758 H 0.61422 0.96536 0.36842 0.0
H759 H 0.74459 0.68522 0.39059 0.0
H760 H 0.89552 0.82943 0.98069 0.0
H761 H 0.86751 0.75956 0.94332 0.0
H762 H 0.94624 0.87031 0.86221 0.0
H763 H 0.97494 0.94063 0.89961 0.0
H764 H 0.85331 0.78089 0.84295 0.0
H765 H -0.00087 0.8298 0.89656 0.0
H766 H 0.05868 0.85238 0.94174 0.0
H767 H 0.94112 0.69491 0.98002 0.0
H768 H 0.88005 0.67175 0.93576 0.0
H769 H 0.81201 0.54844 0.77644 0.0
H770 H 0.86339 0.64097 0.79142 0.0
H771 H 0.7439 0.5892 0.86185 0.0
H772 H 0.69228 0.49767 0.8466 0.0
H773 H 0.87829 0.66332 0.87399 0.0
H774 H 0.72812 0.63249 0.82184 0.0
H775 H 0.67793 0.62131 0.77393 0.0
H776 H 0.82131 0.75775 0.72764 0.0
H777 H 0.87242 0.76829 0.77465 0.0
C778 C 0.90742 0.83907 0.95502 0.0
C779 C 0.93831 0.89073 0.94331 0.0
C780 C 0.89132 0.79909 0.93364 0.0
C781 C 0.90578 0.80996 0.9001 0.0
C782 C 0.93503 0.86114 0.88804 0.0
C783 C 0.95126 0.90122 0.90946 0.0
C784 C 0.88916 0.7673 0.87773 0.0
C785 C 0.85954 0.75571 0.8495 0.0
C786 C 0.89851 0.73525 0.88568 0.0
C787 C 0.93475 0.7491 0.91284 0.0
C788 C 0.98563 0.80009 0.91482 0.0
C789 C 0.01972 0.81301 0.94028 0.0
C790 C 0.00372 0.7751 0.96371 0.0
C791 C 0.9535 0.72422 0.9618 0.0
C792 C 0.91905 0.71121 0.93658 0.0
C793 C 0.79618 0.55718 0.79434 0.0
C794 C 0.74792 0.51617 0.81004 0.0
C795 C 0.82545 0.60984 0.80283 0.0
C796 C 0.80666 0.62179 0.8271 0.0
C797 C 0.75831 0.5808 0.84243 0.0
C798 C 0.72915 0.52858 0.83392 0.0
C799 C 0.84001 0.67547 0.8407 0.0
C800 C 0.87315 0.6893 0.86723 0.0
C801 C 0.8349 0.71016 0.83081 0.0
C802 C 0.80417 0.70037 0.8014 0.0
C803 C 0.74906 0.65911 0.80103 0.0
C804 C 0.72038 0.65311 0.7741 0.0
C805 C 0.7464 0.68861 0.74763 0.0
C806 C 0.80117 0.72996 0.74796 0.0
C807 C 0.83 0.73576 0.77464 0.0
H808 H 0.72416 0.68412 0.72689 0.0
H809 H 0.0302 0.78515 0.98337 0.0
loop_
_geom_bond_atom_site_label_1
_geom_bond_atom_site_label_2
_geom_bond_distance
_geom_bond_site_symmetry_2
_ccdc_geom_bond_type
C0 C2 1.422 . S
C0 C4 1.415 . S
C0 N6 1.364 1_665 S
C1 C2 1.421 . S
C1 C3 1.417 . S
C1 C13 1.422 . S
C2 C0 1.422 . S
C2 C1 1.421 . S
C2 N12 1.359 . S
C3 C1 1.417 . S
C3 C5 1.329 . S
C3 H22 0.930 . S
C4 C0 1.415 . S
C4 C5 1.437 . S
C4 C8 1.413 1_665 S
C5 C3 1.329 . S
C5 C4 1.437 . S
C5 H27 0.929 . S
N6 C0 1.364 1_445 S
N6 C7 1.348 . S
N6 Gd11 2.618 1_455 S
C7 N6 1.348 . S
C7 C9 1.378 . S
C7 H19 0.929 . S
C8 C4 1.413 1_445 S
C8 C9 1.348 . S
C8 H24 0.931 1_545 S
C9 C7 1.378 . S
C9 C8 1.348 . S
C9 H25 0.930 . S
Gd10 N30 2.622 . S
Gd10 N37 2.570 1_565 S
Gd10 O44 2.359 1_455 S
Gd10 O45 2.468 . S
Gd10 O46 2.427 . S
Gd10 O48 2.388 1_455 S
Gd10 O49 2.386 1_565 S
Gd10 O53 2.298 1_564 S
Gd10 C63 2.805 . S
Gd11 N6 2.618 1_655 S
Gd11 N12 2.570 1_545 S
Gd11 O43 2.386 1_545 S
Gd11 O47 2.307 1_546 S
Gd11 O50 2.353 1_656 S
Gd11 O51 2.468 . S
Gd11 O52 2.427 1_655 S
Gd11 O54 2.388 1_655 S
Gd11 C75 2.805 . S
N12 C2 1.359 . S
N12 Gd11 2.570 1_565 S
N12 C14 1.343 . S
C13 C1 1.422 . S
C13 C15 1.321 . S
C13 H21 0.931 . S
C14 N12 1.343 . S
C14 C15 1.390 . S
C14 H16 0.931 . S
C15 C13 1.321 . S
C15 C14 1.390 . S
C15 H17 0.930 . S
H16 C14 0.931 . S
H17 C15 0.930 . S
H18 C41 0.931 . S
H19 C7 0.929 . S
H20 C42 0.930 . S
H21 C13 0.931 . S
H22 C3 0.930 . S
H23 C32 0.929 . S
H24 C8 0.931 1_565 S
H25 C9 0.930 . S
H26 C64 0.930 . S
H27 C5 0.929 . S
H28 C33 0.931 . S
H29 C34 0.930 . S
N30 Gd10 2.622 . S
N30 C31 1.369 1_565 S
N30 C32 1.338 1_455 S
C31 N30 1.369 1_545 S
C31 C35 1.415 . S
C31 C38 1.422 . S
C32 H23 0.929 . S
C32 N30 1.338 1_655 S
C32 C34 1.378 . S
C33 H28 0.931 . S
C33 C34 1.348 1_545 S
C33 C35 1.413 1_655 S
C34 H29 0.930 . S
C34 C32 1.378 . S
C34 C33 1.348 1_565 S
C35 C31 1.415 . S
C35 C33 1.413 1_455 S
C35 C65 1.437 . S
H36 C65 0.929 . S
N37 Gd10 2.570 1_545 S
N37 C38 1.359 . S
N37 C41 1.343 . S
C38 C31 1.422 . S
C38 N37 1.359 . S
C38 C40 1.421 . S
C39 C40 1.422 . S
C39 C42 1.321 . S
C39 H66 0.931 . S
C40 C38 1.421 . S
C40 C39 1.422 . S
C40 C64 1.417 . S
C41 H18 0.931 . S
C41 N37 1.343 . S
C41 C42 1.390 . S
C42 H20 0.930 . S
C42 C39 1.321 . S
C42 C41 1.390 . S
O43 Gd11 2.386 1_565 S
O43 C55 1.265 . S
O44 Gd10 2.359 1_655 S
O44 C55 1.235 1_554 S
O45 Gd10 2.468 . S
O45 C63 1.263 . S
O46 Gd10 2.427 . S
O46 C63 1.252 . S
O47 Gd11 2.307 1_564 S
O47 C56 1.261 . S
O48 Gd10 2.388 1_655 S
O48 C56 1.252 . S
O49 Gd10 2.386 1_545 S
O49 C67 1.265 . S
O50 Gd11 2.353 1_454 S
O50 C67 1.242 . S
O51 Gd11 2.468 . S
O51 C75 1.263 . S
O52 Gd11 2.427 1_455 S
O52 C75 1.252 1_455 S
O53 Gd10 2.298 1_546 S
O53 C68 1.271 . S
O54 Gd11 2.388 1_455 S
O54 C68 1.252 . S
C55 O43 1.265 . S
C55 O44 1.235 1_556 S
C56 O47 1.261 . S
C56 O48 1.252 . S
C57 C60 1.394 . S
C57 C62 1.370 . S
C57 C63 1.500 . S
C58 C61 1.383 . S
C58 C62 1.395 . S
C59 C60 1.396 . S
C59 C61 1.365 . S
C59 H76 0.929 . S
C60 C57 1.394 . S
C60 C59 1.396 . S
C60 H77 0.930 1_455 S
C61 C58 1.383 . S
C61 C59 1.365 . S
C61 H78 0.931 . S
C62 C57 1.370 . S
C62 C58 1.395 . S
C62 H79 0.930 . S
C63 Gd10 2.805 . S
C63 O45 1.263 . S
C63 O46 1.252 . S
C63 C57 1.500 . S
C64 H26 0.930 . S
C64 C40 1.417 . S
C64 C65 1.329 . S
C65 C35 1.437 . S
C65 H36 0.929 . S
C65 C64 1.329 . S
H66 C39 0.931 . S
C67 O49 1.265 . S
C67 O50 1.242 . S
C68 O53 1.271 . S
C68 O54 1.252 . S
C69 C72 1.394 . S
C69 C74 1.370 . S
C69 C75 1.500 . S
C70 C73 1.383 . S
C70 C74 1.395 . S
C71 C72 1.396 . S
C71 C73 1.365 . S
C71 H80 0.929 . S
C72 C69 1.394 . S
C72 C71 1.396 . S
C72 H81 0.930 1_655 S
C73 C70 1.383 . S
C73 C71 1.365 . S
C73 H82 0.931 . S
C74 C69 1.370 . S
C74 C70 1.395 . S
C74 H83 0.930 . S
C75 Gd11 2.805 . S
C75 O51 1.263 . S
C75 O52 1.252 1_655 S
C75 C69 1.500 . S
H76 C59 0.929 . S
H77 C60 0.930 1_655 S
H78 C61 0.931 . S
H79 C62 0.930 . S
H80 C71 0.929 . S
H81 C72 0.930 1_455 S
H82 C73 0.931 . S
H83 C74 0.930 . S
C84 C86 1.422 . S
C84 C88 1.415 . S
C84 N90 1.373 . S
C85 C86 1.421 . S
C85 C87 1.417 . S
C85 C97 1.422 . S
C86 C84 1.422 . S
C86 C85 1.421 . S
C86 N96 1.359 . S
C87 C85 1.417 . S
C87 C89 1.329 . S
C87 H106 0.930 . S
C88 C84 1.415 . S
C88 C89 1.437 . S
C88 C92 1.413 . S
C89 C87 1.329 . S
C89 C88 1.437 . S
C89 H111 0.929 . S
N90 C84 1.373 . S
N90 C91 1.338 1_445 S
N90 Gd95 2.619 1_455 S
C91 N90 1.338 1_665 S
C91 C93 1.378 . S
C91 H103 0.929 . S
C92 C88 1.413 . S
C92 C93 1.348 1_445 S
C92 H108 0.925 1_545 S
C93 C91 1.378 . S
C93 C92 1.348 1_665 S
C93 H109 0.930 . S
Gd94 N114 2.622 1_565 S
Gd94 N121 2.570 1_455 S
Gd94 O128 2.353 1_565 S
Gd94 O129 2.468 . S
Gd94 O130 2.427 1_565 S
Gd94 O132 2.388 1_565 S
Gd94 O133 2.386 1_455 S
Gd94 O137 2.307 1_455 S
Gd94 C147 2.805 . S
Gd95 N90 2.619 1_655 S
Gd95 N96 2.570 1_655 S
Gd95 O127 2.386 1_655 S
Gd95 O131 2.307 1_655 S
Gd95 O134 2.353 1_545 S
Gd95 O135 2.468 . S
Gd95 O136 2.427 . S
Gd95 O138 2.388 1_545 S
Gd95 C159 2.805 . S
N96 C86 1.359 . S
N96 Gd95 2.570 1_455 S
N96 C98 1.343 . S
C97 C85 1.422 . S
C97 C99 1.321 . S
C97 H105 0.931 . S
C98 N96 1.343 . S
C98 C99 1.390 . S
C98 H100 0.931 . S
C99 C97 1.321 . S
C99 C98 1.390 . S
C99 H101 0.930 . S
H100 C98 0.931 . S
H101 C99 0.930 . S
H102 C125 0.931 . S
H103 C91 0.929 . S
H104 C126 0.930 . S
H105 C97 0.931 . S
H106 C87 0.930 . S
H107 C116 0.929 . S
H108 C92 0.925 1_565 S
H109 C93 0.930 . S
H110 C148 0.930 . S
H111 C89 0.929 . S
H112 C117 0.931 . S
H113 C118 0.930 . S
N114 Gd94 2.622 1_545 S
N114 C115 1.369 1_445 S
N114 C116 1.338 . S
C115 N114 1.369 1_665 S
C115 C119 1.415 . S
C115 C122 1.422 . S
C116 H107 0.929 . S
C116 N114 1.338 . S
C116 C118 1.378 . S
C117 H112 0.931 . S
C117 C118 1.348 . S
C117 C119 1.413 1_445 S
C118 H113 0.930 . S
C118 C116 1.378 . S
C118 C117 1.348 . S
C119 C115 1.415 . S
C119 C117 1.413 1_665 S
C119 C149 1.437 . S
H120 C149 0.929 . S
N121 Gd94 2.570 1_655 S
N121 C122 1.359 . S
N121 C125 1.343 . S
C122 C115 1.422 . S
C122 N121 1.359 . S
C122 C124 1.421 . S
C123 C124 1.422 . S
C123 C126 1.321 . S
C123 H150 0.931 . S
C124 C122 1.421 . S
C124 C123 1.422 . S
C124 C148 1.417 . S
C125 H102 0.931 . S
C125 N121 1.343 . S
C125 C126 1.390 . S
C126 H104 0.930 . S
C126 C123 1.321 . S
C126 C125 1.390 . S
O127 Gd95 2.386 1_455 S
O127 C139 1.265 . S
O128 Gd94 2.353 1_545 S
O128 C139 1.242 . S
O129 Gd94 2.468 . S
O129 C147 1.263 . S
O130 Gd94 2.427 1_545 S
O130 C147 1.252 1_545 S
O131 Gd95 2.307 1_455 S
O131 C140 1.261 . S
O132 Gd94 2.388 1_545 S
O132 C140 1.252 . S
O133 Gd94 2.386 1_655 S
O133 C151 1.265 . S
O134 Gd95 2.353 1_565 S
O134 C151 1.242 . S
O135 Gd95 2.468 . S
O135 C159 1.263 . S
O136 Gd95 2.427 . S
O136 C159 1.252 . S
O137 Gd94 2.307 1_655 S
O137 C152 1.261 . S
O138 Gd95 2.388 1_565 S
O138 C152 1.252 . S
C139 O127 1.265 . S
C139 O128 1.242 . S
C140 O131 1.261 . S
C140 O132 1.252 . S
C141 C144 1.394 . S
C141 C146 1.370 . S
C141 C147 1.500 . S
C142 C145 1.383 . S
C142 C146 1.395 . S
C143 C144 1.396 . S
C143 C145 1.365 . S
C143 H160 0.929 1_565 S
C144 C141 1.394 . S
C144 C143 1.396 . S
C144 H161 0.930 1_565 S
C145 C142 1.383 . S
C145 C143 1.365 . S
C145 H162 0.931 . S
C146 C141 1.370 . S
C146 C142 1.395 . S
C146 H163 0.930 . S
C147 Gd94 2.805 . S
C147 O129 1.263 . S
C147 O130 1.252 1_565 S
C147 C141 1.500 . S
C148 H110 0.930 . S
C148 C124 1.417 . S
C148 C149 1.329 . S
C149 C119 1.437 . S
C149 H120 0.929 . S
C149 C148 1.329 . S
H150 C123 0.931 . S
C151 O133 1.265 . S
C151 O134 1.242 . S
C152 O137 1.261 . S
C152 O138 1.252 . S
C153 C156 1.394 . S
C153 C158 1.370 . S
C153 C159 1.500 . S
C154 C157 1.383 . S
C154 C158 1.395 . S
C155 C156 1.396 . S
C155 C157 1.365 . S
C155 H164 0.929 . S
C156 C153 1.394 . S
C156 C155 1.396 . S
C156 H165 0.930 . S
C157 C154 1.383 . S
C157 C155 1.365 . S
C157 H166 0.931 . S
C158 C153 1.370 . S
C158 C154 1.395 . S
C158 H167 0.930 . S
C159 Gd95 2.805 . S
C159 O135 1.263 . S
C159 O136 1.252 . S
C159 C153 1.500 . S
H160 C143 0.929 1_545 S
H161 C144 0.930 1_545 S
H162 C145 0.931 . S
H163 C146 0.930 . S
H164 C155 0.929 . S
H165 C156 0.930 . S
H166 C157 0.931 . S
H167 C158 0.930 . S
Zn168 O174 1.920 . S
Zn168 O180 1.898 . S
Zn168 O183 1.905 . S
Zn169 O177 1.905 . S
Zn169 O178 1.898 . S
Zn169 O186 1.920 . S
Zn170 O173 2.080 . S
Zn170 O176 2.114 . S
Zn170 O179 2.120 . S
Zn170 O181 2.120 . S
Zn170 O182 2.114 . S
Zn170 O185 2.080 . S
C171 O176 1.166 . S
C171 O177 1.182 . S
C172 O178 1.167 . S
C172 O179 1.299 . S
O173 Zn170 2.080 . S
O173 C187 1.305 . S
O174 Zn168 1.920 . S
O174 C187 1.234 . S
C175 O180 1.167 . S
C175 O181 1.299 . S
O176 Zn170 2.114 . S
O176 C171 1.166 . S
O177 Zn169 1.905 . S
O177 C171 1.182 . S
O178 Zn169 1.898 . S
O178 C172 1.167 . S
O179 Zn170 2.120 . S
O179 C172 1.299 . S
O180 Zn168 1.898 . S
O180 C175 1.167 . S
O181 Zn170 2.120 . S
O181 C175 1.299 . S
O182 Zn170 2.114 . S
O182 C184 1.166 . S
O183 Zn168 1.905 . S
O183 C184 1.182 . S
C184 O182 1.166 . S
C184 O183 1.182 . S
O185 Zn170 2.080 . S
O185 C188 1.305 . S
O186 Zn169 1.920 . S
O186 C188 1.234 . S
C187 O173 1.305 . S
C187 O174 1.234 . S
C188 O185 1.305 . S
C188 O186 1.234 . S
Zn189 O195 1.920 . S
Zn189 O201 1.898 . S
Zn189 O204 1.905 . S
Zn190 O198 1.905 . S
Zn190 O199 1.898 . S
Zn190 O207 1.920 . S
Zn191 O194 2.080 . S
Zn191 O197 2.114 . S
Zn191 O200 2.120 . S
Zn191 O202 2.120 . S
Zn191 O203 2.114 . S
Zn191 O206 2.080 . S
C192 O197 1.166 . S
C192 O198 1.182 . S
C193 O199 1.167 . S
C193 O200 1.299 . S
O194 Zn191 2.080 . S
O194 C208 1.305 . S
O195 Zn189 1.920 . S
O195 C208 1.234 . S
C196 O201 1.167 . S
C196 O202 1.299 . S
O197 Zn191 2.114 . S
O197 C192 1.166 . S
O198 Zn190 1.905 . S
O198 C192 1.182 . S
O199 Zn190 1.898 . S
O199 C193 1.167 . S
O200 Zn191 2.120 . S
O200 C193 1.299 . S
O201 Zn189 1.898 . S
O201 C196 1.167 . S
O202 Zn191 2.120 . S
O202 C196 1.299 . S
O203 Zn191 2.114 . S
O203 C205 1.166 . S
O204 Zn189 1.905 . S
O204 C205 1.182 . S
C205 O203 1.166 . S
C205 O204 1.182 . S
O206 Zn191 2.080 . S
O206 C209 1.305 . S
O207 Zn190 1.920 . S
O207 C209 1.234 . S
C208 O194 1.305 . S
C208 O195 1.234 . S
C209 O206 1.305 . S
C209 O207 1.234 . S
H210 C228 0.951 . S
H211 C230 0.951 . S
H212 C232 0.950 . S
H213 C233 0.950 . S
H214 C235 0.950 . S
H215 C238 0.950 . S
H216 C239 0.950 . S
H217 C241 0.950 . S
H218 C242 0.950 . S
H219 C243 0.951 . S
H220 C245 0.951 . S
H221 C247 0.950 . S
H222 C248 0.950 . S
H223 C250 0.950 . S
H224 C253 0.950 . S
H225 C254 0.950 . S
H226 C256 0.950 . S
H227 C257 0.950 . S
C228 H210 0.951 . S
C228 C229 1.366 . S
C228 C230 1.388 . S
C229 C228 1.366 . S
C229 C233 1.385 . S
C230 H211 0.951 . S
C230 C228 1.388 . S
C230 C231 1.366 . S
C231 C230 1.366 . S
C231 C232 1.414 . S
C231 C234 1.499 . S
C232 H212 0.950 . S
C232 C231 1.414 . S
C232 C233 1.374 . S
C233 H213 0.950 . S
C233 C229 1.385 . S
C233 C232 1.374 . S
C234 C231 1.499 . S
C234 C235 1.373 . S
C234 C236 1.389 . S
C235 H214 0.950 . S
C235 C234 1.373 . S
C235 C251 1.377 . S
C236 C234 1.389 . S
C236 C237 1.524 . S
C236 C250 1.377 . S
C237 C236 1.524 . S
C237 C238 1.397 . S
C237 C242 1.363 . S
C238 H215 0.950 . S
C238 C237 1.397 . S
C238 C239 1.334 . S
C239 H216 0.950 . S
C239 C238 1.334 . S
C239 C240 1.287 . S
C240 C239 1.287 . S
C240 C241 1.524 . S
C240 H259 0.913 1_565 S
C241 H217 0.950 . S
C241 C240 1.524 . S
C241 C242 1.415 . S
C242 H218 0.950 . S
C242 C237 1.363 . S
C242 C241 1.415 . S
C243 H219 0.951 . S
C243 C244 1.366 . S
C243 C245 1.388 . S
C244 C243 1.366 . S
C244 C248 1.385 . S
C245 H220 0.951 . S
C245 C243 1.388 . S
C245 C246 1.366 . S
C246 C245 1.366 . S
C246 C247 1.414 . S
C246 C249 1.499 . S
C247 H221 0.950 . S
C247 C246 1.414 . S
C247 C248 1.374 . S
C248 H222 0.950 . S
C248 C244 1.385 . S
C248 C247 1.374 . S
C249 C246 1.499 . S
C249 C250 1.373 . S
C249 C251 1.389 . S
C250 H223 0.950 . S
C250 C236 1.377 . S
C250 C249 1.373 . S
C251 C235 1.377 . S
C251 C249 1.389 . S
C251 C252 1.524 . S
C252 C251 1.524 . S
C252 C253 1.397 . S
C252 C257 1.363 . S
C253 H224 0.950 . S
C253 C252 1.397 . S
C253 C254 1.334 . S
C254 H225 0.950 . S
C254 C253 1.334 . S
C254 C255 1.287 . S
C255 C254 1.287 . S
C255 C256 1.524 . S
C255 H258 0.999 . S
C256 H226 0.950 . S
C256 C255 1.524 . S
C256 C257 1.415 . S
C257 H227 0.950 . S
C257 C252 1.363 . S
C257 C256 1.415 . S
H258 C255 0.999 . S
H259 C240 0.913 1_545 S
H260 C278 0.951 . S
H261 C280 0.951 . S
H262 C282 0.950 . S
H263 C283 0.950 . S
H264 C285 0.950 . S
H265 C288 0.950 . S
H266 C289 0.950 . S
H267 C291 0.950 . S
H268 C292 0.950 . S
H269 C293 0.951 . S
H270 C295 0.951 . S
H271 C297 0.950 . S
H272 C298 0.950 . S
H273 C300 0.950 . S
H274 C303 0.950 . S
H275 C304 0.950 . S
H276 C306 0.950 . S
H277 C307 0.950 . S
C278 H260 0.951 . S
C278 C279 1.366 . S
C278 C280 1.388 . S
C279 C278 1.366 . S
C279 C283 1.385 . S
C280 H261 0.951 . S
C280 C278 1.388 . S
C280 C281 1.366 . S
C281 C280 1.366 . S
C281 C282 1.414 . S
C281 C284 1.499 . S
C282 H262 0.950 . S
C282 C281 1.414 . S
C282 C283 1.374 . S
C283 H263 0.950 . S
C283 C279 1.385 . S
C283 C282 1.374 . S
C284 C281 1.499 . S
C284 C285 1.373 . S
C284 C286 1.389 . S
C285 H264 0.950 . S
C285 C284 1.373 . S
C285 C301 1.377 . S
C286 C284 1.389 . S
C286 C287 1.524 . S
C286 C300 1.377 . S
C287 C286 1.524 . S
C287 C288 1.397 . S
C287 C292 1.363 . S
C288 H265 0.950 . S
C288 C287 1.397 . S
C288 C289 1.334 1_545 S
C289 H266 0.950 . S
C289 C288 1.334 1_565 S
C289 C290 1.287 . S
C290 C289 1.287 . S
C290 C291 1.524 1_565 S
C290 H309 0.913 . S
C291 H267 0.950 . S
C291 C290 1.524 1_545 S
C291 C292 1.415 . S
C292 H268 0.950 . S
C292 C287 1.363 . S
C292 C291 1.415 . S
C293 H269 0.951 . S
C293 C294 1.366 . S
C293 C295 1.388 . S
C294 C293 1.366 . S
C294 C298 1.385 . S
C295 H270 0.951 . S
C295 C293 1.388 . S
C295 C296 1.366 . S
C296 C295 1.366 . S
C296 C297 1.414 . S
C296 C299 1.499 . S
C297 H271 0.950 . S
C297 C296 1.414 . S
C297 C298 1.374 . S
C298 H272 0.950 . S
C298 C294 1.385 . S
C298 C297 1.374 . S
C299 C296 1.499 . S
C299 C300 1.373 . S
C299 C301 1.389 . S
C300 H273 0.950 . S
C300 C286 1.377 . S
C300 C299 1.373 . S
C301 C285 1.377 . S
C301 C299 1.389 . S
C301 C302 1.524 . S
C302 C301 1.524 . S
C302 C303 1.397 . S
C302 C307 1.363 . S
C303 H274 0.950 . S
C303 C302 1.397 . S
C303 C304 1.334 . S
C304 H275 0.950 . S
C304 C303 1.334 . S
C304 C305 1.287 . S
C305 C304 1.287 . S
C305 C306 1.524 . S
C305 H308 0.999 . S
C306 H276 0.950 . S
C306 C305 1.524 . S
C306 C307 1.415 . S
C307 H277 0.950 . S
C307 C302 1.363 . S
C307 C306 1.415 . S
H308 C305 0.999 . S
H309 C290 0.913 . S
H310 C328 0.951 . S
H311 C330 0.951 . S
H312 C332 0.950 . S
H313 C333 0.950 . S
H314 C335 0.950 . S
H315 C338 0.950 . S
H316 C339 0.950 . S
H317 C341 0.950 . S
H318 C342 0.950 . S
H319 C343 0.951 . S
H320 C345 0.951 . S
H321 C347 0.950 . S
H322 C348 0.950 . S
H323 C350 0.950 . S
H324 C353 0.950 . S
H325 C354 0.950 . S
H326 C356 0.950 . S
H327 C357 0.950 . S
C328 H310 0.951 . S
C328 C329 1.366 . S
C328 C330 1.388 . S
C329 C328 1.366 . S
C329 C333 1.385 . S
C330 H311 0.951 . S
C330 C328 1.388 . S
C330 C331 1.366 . S
C331 C330 1.366 . S
C331 C332 1.414 . S
C331 C334 1.499 . S
C332 H312 0.950 . S
C332 C331 1.414 . S
C332 C333 1.374 . S
C333 H313 0.950 . S
C333 C329 1.385 . S
C333 C332 1.374 . S
C334 C331 1.499 . S
C334 C335 1.373 . S
C334 C336 1.389 . S
C335 H314 0.950 . S
C335 C334 1.373 . S
C335 C351 1.377 . S
C336 C334 1.389 . S
C336 C337 1.524 . S
C336 C350 1.377 . S
C337 C336 1.524 . S
C337 C338 1.397 . S
C337 C342 1.363 . S
C338 H315 0.950 . S
C338 C337 1.397 . S
C338 C339 1.334 . S
C339 H316 0.950 . S
C339 C338 1.334 . S
C339 C340 1.287 . S
C340 C339 1.287 . S
C340 C341 1.524 . S
C340 H359 0.913 . S
C341 H317 0.950 . S
C341 C340 1.524 . S
C341 C342 1.415 . S
C342 H318 0.950 . S
C342 C337 1.363 . S
C342 C341 1.415 . S
C343 H319 0.951 . S
C343 C344 1.366 . S
C343 C345 1.388 . S
C344 C343 1.366 . S
C344 C348 1.385 . S
C345 H320 0.951 . S
C345 C343 1.388 . S
C345 C346 1.366 . S
C346 C345 1.366 . S
C346 C347 1.414 . S
C346 C349 1.499 . S
C347 H321 0.950 . S
C347 C346 1.414 . S
C347 C348 1.374 . S
C348 H322 0.950 . S
C348 C344 1.385 . S
C348 C347 1.374 . S
C349 C346 1.499 . S
C349 C350 1.373 . S
C349 C351 1.389 . S
C350 H323 0.950 . S
C350 C336 1.377 . S
C350 C349 1.373 . S
C351 C335 1.377 . S
C351 C349 1.389 . S
C351 C352 1.524 . S
C352 C351 1.524 . S
C352 C353 1.397 . S
C352 C357 1.363 . S
C353 H324 0.950 . S
C353 C352 1.397 . S
C353 C354 1.334 . S
C354 H325 0.950 . S
C354 C353 1.334 . S
C354 C355 1.287 . S
C355 C354 1.287 . S
C355 C356 1.524 . S
C355 H358 0.999 . S
C356 H326 0.950 . S
C356 C355 1.524 . S
C356 C357 1.415 . S
C357 H327 0.950 . S
C357 C352 1.363 . S
C357 C356 1.415 . S
H358 C355 0.999 . S
H359 C340 0.913 . S
H360 C378 0.951 . S
H361 C380 0.951 . S
H362 C382 0.950 . S
H363 C383 0.950 . S
H364 C385 0.950 . S
H365 C388 0.950 . S
H366 C389 0.950 . S
H367 C391 0.950 . S
H368 C392 0.950 . S
H369 C393 0.951 . S
H370 C395 0.951 . S
H371 C397 0.950 . S
H372 C398 0.950 . S
H373 C400 0.950 . S
H374 C403 0.950 . S
H375 C404 0.950 . S
H376 C406 0.950 . S
H377 C407 0.950 . S
C378 H360 0.951 . S
C378 C379 1.366 . S
C378 C380 1.388 . S
C379 C378 1.366 . S
C379 C383 1.385 . S
C380 H361 0.951 . S
C380 C378 1.388 . S
C380 C381 1.366 . S
C381 C380 1.366 . S
C381 C382 1.414 . S
C381 C384 1.499 . S
C382 H362 0.950 . S
C382 C381 1.414 . S
C382 C383 1.374 . S
C383 H363 0.950 . S
C383 C379 1.385 . S
C383 C382 1.374 . S
C384 C381 1.499 . S
C384 C385 1.373 . S
C384 C386 1.389 . S
C385 H364 0.950 . S
C385 C384 1.373 . S
C385 C401 1.377 . S
C386 C384 1.389 . S
C386 C387 1.524 . S
C386 C400 1.377 . S
C387 C386 1.524 . S
C387 C388 1.397 . S
C387 C392 1.363 . S
C388 H365 0.950 . S
C388 C387 1.397 . S
C388 C389 1.334 . S
C389 H366 0.950 . S
C389 C388 1.334 . S
C389 C390 1.287 . S
C390 C389 1.287 . S
C390 C391 1.524 . S
C390 H409 0.913 . S
C391 H367 0.950 . S
C391 C390 1.524 . S
C391 C392 1.415 . S
C392 H368 0.950 . S
C392 C387 1.363 . S
C392 C391 1.415 . S
C393 H369 0.951 . S
C393 C394 1.366 . S
C393 C395 1.388 . S
C394 C393 1.366 . S
C394 C398 1.385 . S
C395 H370 0.951 . S
C395 C393 1.388 . S
C395 C396 1.366 . S
C396 C395 1.366 . S
C396 C397 1.414 . S
C396 C399 1.499 . S
C397 H371 0.950 . S
C397 C396 1.414 . S
C397 C398 1.374 . S
C398 H372 0.950 . S
C398 C394 1.385 . S
C398 C397 1.374 . S
C399 C396 1.499 . S
C399 C400 1.373 . S
C399 C401 1.389 . S
C400 H373 0.950 . S
C400 C386 1.377 . S
C400 C399 1.373 . S
C401 C385 1.377 . S
C401 C399 1.389 . S
C401 C402 1.524 . S
C402 C401 1.524 . S
C402 C403 1.397 . S
C402 C407 1.363 . S
C403 H374 0.950 . S
C403 C402 1.397 . S
C403 C404 1.334 . S
C404 H375 0.950 . S
C404 C403 1.334 . S
C404 C405 1.287 . S
C405 C404 1.287 . S
C405 C406 1.524 . S
C405 H408 0.999 . S
C406 H376 0.950 . S
C406 C405 1.524 . S
C406 C407 1.415 . S
C407 H377 0.950 . S
C407 C402 1.363 . S
C407 C406 1.415 . S
H408 C405 0.999 . S
H409 C390 0.913 . S
H410 C428 0.951 . S
H411 C430 0.951 . S
H412 C432 0.950 . S
H413 C433 0.950 . S
H414 C435 0.950 . S
H415 C438 0.950 . S
H416 C439 0.950 . S
H417 C441 0.950 . S
H418 C442 0.950 . S
H419 C443 0.951 . S
H420 C445 0.951 . S
H421 C447 0.950 . S
H422 C448 0.950 . S
H423 C450 0.950 . S
H424 C453 0.950 . S
H425 C454 0.950 . S
H426 C456 0.950 . S
H427 C457 0.950 . S
C428 H410 0.951 . S
C428 C429 1.366 . S
C428 C430 1.388 . S
C429 C428 1.366 . S
C429 C433 1.385 . S
C430 H411 0.951 . S
C430 C428 1.388 . S
C430 C431 1.366 . S
C431 C430 1.366 . S
C431 C432 1.414 . S
C431 C434 1.499 . S
C432 H412 0.950 . S
C432 C431 1.414 . S
C432 C433 1.374 . S
C433 H413 0.950 . S
C433 C429 1.385 . S
C433 C432 1.374 . S
C434 C431 1.499 . S
C434 C435 1.373 . S
C434 C436 1.389 . S
C435 H414 0.950 . S
C435 C434 1.373 . S
C435 C451 1.377 . S
C436 C434 1.389 . S
C436 C437 1.524 . S
C436 C450 1.377 . S
C437 C436 1.524 . S
C437 C438 1.397 . S
C437 C442 1.363 . S
C438 H415 0.950 . S
C438 C437 1.397 . S
C438 C439 1.334 1_565 S
C439 H416 0.950 . S
C439 C438 1.334 1_545 S
C439 C440 1.287 . S
C440 C439 1.287 . S
C440 C441 1.524 . S
C440 H459 0.913 . S
C441 H417 0.950 . S
C441 C440 1.524 . S
C441 C442 1.415 1_545 S
C442 H418 0.950 . S
C442 C437 1.363 . S
C442 C441 1.415 1_565 S
C443 H419 0.951 . S
C443 C444 1.366 . S
C443 C445 1.388 . S
C444 C443 1.366 . S
C444 C448 1.385 . S
C445 H420 0.951 . S
C445 C443 1.388 . S
C445 C446 1.366 . S
C446 C445 1.366 . S
C446 C447 1.414 . S
C446 C449 1.499 . S
C447 H421 0.950 . S
C447 C446 1.414 . S
C447 C448 1.374 . S
C448 H422 0.950 . S
C448 C444 1.385 . S
C448 C447 1.374 . S
C449 C446 1.499 . S
C449 C450 1.373 . S
C449 C451 1.389 . S
C450 H423 0.950 . S
C450 C436 1.377 . S
C450 C449 1.373 . S
C451 C435 1.377 . S
C451 C449 1.389 . S
C451 C452 1.524 . S
C452 C451 1.524 . S
C452 C453 1.397 . S
C452 C457 1.363 . S
C453 H424 0.950 . S
C453 C452 1.397 . S
C453 C454 1.334 . S
C454 H425 0.950 . S
C454 C453 1.334 . S
C454 C455 1.287 . S
C455 C454 1.287 . S
C455 C456 1.524 . S
C455 H458 0.999 . S
C456 H426 0.950 . S
C456 C455 1.524 . S
C456 C457 1.415 . S
C457 H427 0.950 . S
C457 C452 1.363 . S
C457 C456 1.415 . S
H458 C455 0.999 . S
H459 C440 0.913 . S
H460 C478 0.951 . S
H461 C480 0.951 . S
H462 C482 0.950 . S
H463 C483 0.950 . S
H464 C485 0.950 . S
H465 C488 0.950 . S
H466 C489 0.950 . S
H467 C491 0.950 . S
H468 C492 0.950 . S
H469 C493 0.951 . S
H470 C495 0.951 . S
H471 C497 0.950 . S
H472 C498 0.950 . S
H473 C500 0.950 . S
H474 C503 0.950 . S
H475 C504 0.950 . S
H476 C506 0.950 . S
H477 C507 0.950 . S
C478 H460 0.951 . S
C478 C479 1.366 . S
C478 C480 1.388 . S
C479 C478 1.366 . S
C479 C483 1.385 . S
C480 H461 0.951 . S
C480 C478 1.388 . S
C480 C481 1.366 . S
C481 C480 1.366 . S
C481 C482 1.414 . S
C481 C484 1.499 . S
C482 H462 0.950 . S
C482 C481 1.414 . S
C482 C483 1.374 . S
C483 H463 0.950 . S
C483 C479 1.385 . S
C483 C482 1.374 . S
C484 C481 1.499 . S
C484 C485 1.373 . S
C484 C486 1.389 . S
C485 H464 0.950 . S
C485 C484 1.373 . S
C485 C501 1.377 . S
C486 C484 1.389 . S
C486 C487 1.524 . S
C486 C500 1.377 . S
C487 C486 1.524 . S
C487 C488 1.397 . S
C487 C492 1.363 . S
C488 H465 0.950 . S
C488 C487 1.397 . S
C488 C489 1.334 . S
C489 H466 0.950 . S
C489 C488 1.334 . S
C489 C490 1.287 . S
C490 C489 1.287 . S
C490 C491 1.524 . S
C490 H509 0.913 . S
C491 H467 0.950 . S
C491 C490 1.524 . S
C491 C492 1.415 . S
C492 H468 0.950 . S
C492 C487 1.363 . S
C492 C491 1.415 . S
C493 H469 0.951 . S
C493 C494 1.366 . S
C493 C495 1.388 . S
C494 C493 1.366 . S
C494 C498 1.385 . S
C495 H470 0.951 . S
C495 C493 1.388 . S
C495 C496 1.366 . S
C496 C495 1.366 . S
C496 C497 1.414 . S
C496 C499 1.499 . S
C497 H471 0.950 . S
C497 C496 1.414 . S
C497 C498 1.374 . S
C498 H472 0.950 . S
C498 C494 1.385 . S
C498 C497 1.374 . S
C499 C496 1.499 . S
C499 C500 1.373 . S
C499 C501 1.389 . S
C500 H473 0.950 . S
C500 C486 1.377 . S
C500 C499 1.373 . S
C501 C485 1.377 . S
C501 C499 1.389 . S
C501 C502 1.524 . S
C502 C501 1.524 . S
C502 C503 1.397 . S
C502 C507 1.363 . S
C503 H474 0.950 . S
C503 C502 1.397 . S
C503 C504 1.334 . S
C504 H475 0.950 . S
C504 C503 1.334 . S
C504 C505 1.287 . S
C505 C504 1.287 . S
C505 C506 1.524 . S
C505 H508 0.999 . S
C506 H476 0.950 . S
C506 C505 1.524 . S
C506 C507 1.415 . S
C507 H477 0.950 . S
C507 C502 1.363 . S
C507 C506 1.415 . S
H508 C505 0.999 . S
H509 C490 0.913 . S
H510 C528 0.951 . S
H511 C530 0.951 . S
H512 C532 0.950 . S
H513 C533 0.950 . S
H514 C535 0.950 . S
H515 C538 0.950 . S
H516 C539 0.950 . S
H517 C541 0.950 . S
H518 C542 0.950 . S
H519 C543 0.951 . S
H520 C545 0.951 . S
H521 C547 0.950 . S
H522 C548 0.950 . S
H523 C550 0.950 . S
H524 C553 0.950 . S
H525 C554 0.950 . S
H526 C556 0.950 . S
H527 C557 0.950 . S
C528 H510 0.951 . S
C528 C529 1.366 . S
C528 C530 1.388 . S
C529 C528 1.366 . S
C529 C533 1.385 . S
C530 H511 0.951 . S
C530 C528 1.388 . S
C530 C531 1.366 . S
C531 C530 1.366 . S
C531 C532 1.414 . S
C531 C534 1.499 . S
C532 H512 0.950 . S
C532 C531 1.414 . S
C532 C533 1.374 . S
C533 H513 0.950 . S
C533 C529 1.385 . S
C533 C532 1.374 . S
C534 C531 1.499 . S
C534 C535 1.373 . S
C534 C536 1.389 . S
C535 H514 0.950 . S
C535 C534 1.373 . S
C535 C551 1.377 . S
C536 C534 1.389 . S
C536 C537 1.524 . S
C536 C550 1.377 . S
C537 C536 1.524 . S
C537 C538 1.397 . S
C537 C542 1.363 . S
C538 H515 0.950 . S
C538 C537 1.397 . S
C538 C539 1.334 . S
C539 H516 0.950 . S
C539 C538 1.334 . S
C539 C540 1.287 1_565 S
C540 C539 1.287 1_545 S
C540 C541 1.524 . S
C540 H559 0.913 . S
C541 H517 0.950 . S
C541 C540 1.524 . S
C541 C542 1.415 1_545 S
C542 H518 0.950 . S
C542 C537 1.363 . S
C542 C541 1.415 1_565 S
C543 H519 0.951 . S
C543 C544 1.366 . S
C543 C545 1.388 . S
C544 C543 1.366 . S
C544 C548 1.385 . S
C545 H520 0.951 . S
C545 C543 1.388 . S
C545 C546 1.366 . S
C546 C545 1.366 . S
C546 C547 1.414 . S
C546 C549 1.499 . S
C547 H521 0.950 . S
C547 C546 1.414 . S
C547 C548 1.374 . S
C548 H522 0.950 . S
C548 C544 1.385 . S
C548 C547 1.374 . S
C549 C546 1.499 . S
C549 C550 1.373 . S
C549 C551 1.389 . S
C550 H523 0.950 . S
C550 C536 1.377 . S
C550 C549 1.373 . S
C551 C535 1.377 . S
C551 C549 1.389 . S
C551 C552 1.524 . S
C552 C551 1.524 . S
C552 C553 1.397 . S
C552 C557 1.363 . S
C553 H524 0.950 . S
C553 C552 1.397 . S
C553 C554 1.334 . S
C554 H525 0.950 . S
C554 C553 1.334 . S
C554 C555 1.287 . S
C555 C554 1.287 . S
C555 C556 1.524 . S
C555 H558 0.999 . S
C556 H526 0.950 . S
C556 C555 1.524 . S
C556 C557 1.415 . S
C557 H527 0.950 . S
C557 C552 1.363 . S
C557 C556 1.415 . S
H558 C555 0.999 . S
H559 C540 0.913 . S
H560 C578 0.951 . S
H561 C580 0.951 . S
H562 C582 0.950 . S
H563 C583 0.950 . S
H564 C585 0.950 . S
H565 C588 0.950 . S
H566 C589 0.950 . S
H567 C591 0.950 1_554 S
H568 C592 0.950 . S
H569 C593 0.951 . S
H570 C595 0.951 . S
H571 C597 0.950 . S
H572 C598 0.950 . S
H573 C600 0.950 . S
H574 C603 0.950 . S
H575 C604 0.950 . S
H576 C606 0.950 . S
H577 C607 0.950 . S
C578 H560 0.951 . S
C578 C579 1.366 . S
C578 C580 1.388 . S
C579 C578 1.366 . S
C579 C583 1.385 . S
C580 H561 0.951 . S
C580 C578 1.388 . S
C580 C581 1.366 . S
C581 C580 1.366 . S
C581 C582 1.414 . S
C581 C584 1.499 . S
C582 H562 0.950 . S
C582 C581 1.414 . S
C582 C583 1.374 . S
C583 H563 0.950 . S
C583 C579 1.385 . S
C583 C582 1.374 . S
C584 C581 1.499 . S
C584 C585 1.373 . S
C584 C586 1.389 . S
C585 H564 0.950 . S
C585 C584 1.373 . S
C585 C601 1.377 . S
C586 C584 1.389 . S
C586 C587 1.524 . S
C586 C600 1.377 . S
C587 C586 1.524 . S
C587 C588 1.397 . S
C587 C592 1.363 . S
C588 H565 0.950 . S
C588 C587 1.397 . S
C588 C589 1.334 . S
C589 H566 0.950 . S
C589 C588 1.334 . S
C589 C590 1.287 . S
C590 C589 1.287 . S
C590 C591 1.524 . S
C590 H609 0.913 1_556 S
C591 H567 0.950 1_556 S
C591 C590 1.524 . S
C591 C592 1.415 . S
C592 H568 0.950 . S
C592 C587 1.363 . S
C592 C591 1.415 . S
C593 H569 0.951 . S
C593 C594 1.366 . S
C593 C595 1.388 . S
C594 C593 1.366 . S
C594 C598 1.385 . S
C595 H570 0.951 . S
C595 C593 1.388 . S
C595 C596 1.366 . S
C596 C595 1.366 . S
C596 C597 1.414 . S
C596 C599 1.499 . S
C597 H571 0.950 . S
C597 C596 1.414 . S
C597 C598 1.374 . S
C598 H572 0.950 . S
C598 C594 1.385 . S
C598 C597 1.374 . S
C599 C596 1.499 . S
C599 C600 1.373 . S
C599 C601 1.389 . S
C600 H573 0.950 . S
C600 C586 1.377 . S
C600 C599 1.373 . S
C601 C585 1.377 . S
C601 C599 1.389 . S
C601 C602 1.524 . S
C602 C601 1.524 . S
C602 C603 1.397 . S
C602 C607 1.363 . S
C603 H574 0.950 . S
C603 C602 1.397 . S
C603 C604 1.334 . S
C604 H575 0.950 . S
C604 C603 1.334 . S
C604 C605 1.287 . S
C605 C604 1.287 . S
C605 C606 1.524 . S
C605 H608 0.999 . S
C606 H576 0.950 . S
C606 C605 1.524 . S
C606 C607 1.415 . S
C607 H577 0.950 . S
C607 C602 1.363 . S
C607 C606 1.415 . S
H608 C605 0.999 . S
H609 C590 0.913 1_554 S
H610 C628 0.951 . S
H611 C630 0.951 . S
H612 C632 0.950 . S
H613 C633 0.950 . S
H614 C635 0.950 . S
H615 C638 0.950 . S
H616 C639 0.950 . S
H617 C641 0.950 . S
H618 C642 0.950 . S
H619 C643 0.951 . S
H620 C645 0.951 . S
H621 C647 0.950 . S
H622 C648 0.950 . S
H623 C650 0.950 . S
H624 C653 0.950 . S
H625 C654 0.950 . S
H626 C656 0.950 1_655 S
H627 C657 0.950 . S
C628 H610 0.951 . S
C628 C629 1.366 . S
C628 C630 1.388 . S
C629 C628 1.366 . S
C629 C633 1.385 . S
C630 H611 0.951 . S
C630 C628 1.388 . S
C630 C631 1.366 . S
C631 C630 1.366 . S
C631 C632 1.414 . S
C631 C634 1.499 . S
C632 H612 0.950 . S
C632 C631 1.414 . S
C632 C633 1.374 . S
C633 H613 0.950 . S
C633 C629 1.385 . S
C633 C632 1.374 . S
C634 C631 1.499 . S
C634 C635 1.373 . S
C634 C636 1.389 . S
C635 H614 0.950 . S
C635 C634 1.373 . S
C635 C651 1.377 . S
C636 C634 1.389 . S
C636 C637 1.524 . S
C636 C650 1.377 . S
C637 C636 1.524 . S
C637 C638 1.397 . S
C637 C642 1.363 . S
C638 H615 0.950 . S
C638 C637 1.397 . S
C638 C639 1.334 . S
C639 H616 0.950 . S
C639 C638 1.334 . S
C639 C640 1.287 . S
C640 C639 1.287 . S
C640 C641 1.524 . S
C640 H659 0.913 . S
C641 H617 0.950 . S
C641 C640 1.524 . S
C641 C642 1.415 . S
C642 H618 0.950 . S
C642 C637 1.363 . S
C642 C641 1.415 . S
C643 H619 0.951 . S
C643 C644 1.366 . S
C643 C645 1.388 . S
C644 C643 1.366 . S
C644 C648 1.385 . S
C645 H620 0.951 . S
C645 C643 1.388 . S
C645 C646 1.366 . S
C646 C645 1.366 . S
C646 C647 1.414 . S
C646 C649 1.499 . S
C647 H621 0.950 . S
C647 C646 1.414 . S
C647 C648 1.374 . S
C648 H622 0.950 . S
C648 C644 1.385 . S
C648 C647 1.374 . S
C649 C646 1.499 . S
C649 C650 1.373 . S
C649 C651 1.389 . S
C650 H623 0.950 . S
C650 C636 1.377 . S
C650 C649 1.373 . S
C651 C635 1.377 . S
C651 C649 1.389 . S
C651 C652 1.524 . S
C652 C651 1.524 . S
C652 C653 1.397 . S
C652 C657 1.363 . S
C653 H624 0.950 . S
C653 C652 1.397 . S
C653 C654 1.334 . S
C654 H625 0.950 . S
C654 C653 1.334 . S
C654 C655 1.287 . S
C655 C654 1.287 . S
C655 C656 1.524 . S
C655 H658 0.999 1_455 S
C656 H626 0.950 1_455 S
C656 C655 1.524 . S
C656 C657 1.415 . S
C657 H627 0.950 . S
C657 C652 1.363 . S
C657 C656 1.415 . S
H658 C655 0.999 1_655 S
H659 C640 0.913 . S
H660 C678 0.951 . S
H661 C680 0.951 . S
H662 C682 0.950 . S
H663 C683 0.950 . S
H664 C685 0.950 . S
H665 C688 0.950 . S
H666 C689 0.950 1_554 S
H667 C691 0.950 . S
H668 C692 0.950 . S
H669 C693 0.951 . S
H670 C695 0.951 . S
H671 C697 0.950 . S
H672 C698 0.950 . S
H673 C700 0.950 . S
H674 C703 0.950 . S
H675 C704 0.950 . S
H676 C706 0.950 . S
H677 C707 0.950 . S
C678 H660 0.951 . S
C678 C679 1.366 . S
C678 C680 1.388 . S
C679 C678 1.366 . S
C679 C683 1.385 . S
C680 H661 0.951 . S
C680 C678 1.388 . S
C680 C681 1.366 . S
C681 C680 1.366 . S
C681 C682 1.414 . S
C681 C684 1.499 . S
C682 H662 0.950 . S
C682 C681 1.414 . S
C682 C683 1.374 . S
C683 H663 0.950 . S
C683 C679 1.385 . S
C683 C682 1.374 . S
C684 C681 1.499 . S
C684 C685 1.373 . S
C684 C686 1.389 . S
C685 H664 0.950 . S
C685 C684 1.373 . S
C685 C701 1.377 . S
C686 C684 1.389 . S
C686 C687 1.524 . S
C686 C700 1.377 . S
C687 C686 1.524 . S
C687 C688 1.397 . S
C687 C692 1.363 . S
C688 H665 0.950 . S
C688 C687 1.397 . S
C688 C689 1.334 . S
C689 H666 0.950 1_556 S
C689 C688 1.334 . S
C689 C690 1.291 . S
C690 C689 1.291 . S
C690 C691 1.537 . S
C690 H709 0.894 1_556 S
C691 H667 0.950 . S
C691 C690 1.537 . S
C691 C692 1.415 . S
C692 H668 0.950 . S
C692 C687 1.363 . S
C692 C691 1.415 . S
C693 H669 0.951 . S
C693 C694 1.366 . S
C693 C695 1.388 . S
C694 C693 1.366 . S
C694 C698 1.385 . S
C695 H670 0.951 . S
C695 C693 1.388 . S
C695 C696 1.366 . S
C696 C695 1.366 . S
C696 C697 1.414 . S
C696 C699 1.499 . S
C697 H671 0.950 . S
C697 C696 1.414 . S
C697 C698 1.374 . S
C698 H672 0.950 . S
C698 C694 1.385 . S
C698 C697 1.374 . S
C699 C696 1.499 . S
C699 C700 1.373 . S
C699 C701 1.389 . S
C700 H673 0.950 . S
C700 C686 1.377 . S
C700 C699 1.373 . S
C701 C685 1.377 . S
C701 C699 1.389 . S
C701 C702 1.524 . S
C702 C701 1.524 . S
C702 C703 1.397 . S
C702 C707 1.363 . S
C703 H674 0.950 . S
C703 C702 1.397 . S
C703 C704 1.334 . S
C704 H675 0.950 . S
C704 C703 1.334 . S
C704 C705 1.287 . S
C705 C704 1.287 . S
C705 C706 1.524 . S
C705 H708 0.999 . S
C706 H676 0.950 . S
C706 C705 1.524 . S
C706 C707 1.415 . S
C707 H677 0.950 . S
C707 C702 1.363 . S
C707 C706 1.415 . S
H708 C705 0.999 . S
H709 C690 0.894 1_554 S
H710 C728 0.951 . S
H711 C730 0.951 . S
H712 C732 0.950 . S
H713 C733 0.950 1_545 S
H714 C735 0.950 . S
H715 C738 0.950 . S
H716 C739 0.950 . S
H717 C741 0.950 . S
H718 C742 0.950 . S
H719 C743 0.951 . S
H720 C745 0.951 . S
H721 C747 0.950 . S
H722 C748 0.950 . S
H723 C750 0.950 . S
H724 C753 0.950 . S
H725 C754 0.950 . S
H726 C756 0.950 . S
H727 C757 0.950 . S
C728 H710 0.951 . S
C728 C729 1.366 . S
C728 C730 1.388 . S
C729 C728 1.366 . S
C729 C733 1.385 . S
C730 H711 0.951 . S
C730 C728 1.388 . S
C730 C731 1.366 . S
C731 C730 1.366 . S
C731 C732 1.414 . S
C731 C734 1.499 . S
C732 H712 0.950 . S
C732 C731 1.414 . S
C732 C733 1.374 . S
C733 H713 0.950 1_565 S
C733 C729 1.385 . S
C733 C732 1.374 . S
C734 C731 1.499 . S
C734 C735 1.373 . S
C734 C736 1.389 . S
C735 H714 0.950 . S
C735 C734 1.373 . S
C735 C751 1.377 . S
C736 C734 1.389 . S
C736 C737 1.524 . S
C736 C750 1.377 . S
C737 C736 1.524 . S
C737 C738 1.397 . S
C737 C742 1.363 . S
C738 H715 0.950 . S
C738 C737 1.397 . S
C738 C739 1.334 . S
C739 H716 0.950 . S
C739 C738 1.334 . S
C739 C740 1.287 . S
C740 C739 1.287 . S
C740 C741 1.524 . S
C740 H759 0.913 . S
C741 H717 0.950 . S
C741 C740 1.524 . S
C741 C742 1.415 . S
C742 H718 0.950 . S
C742 C737 1.363 . S
C742 C741 1.415 . S
C743 H719 0.951 . S
C743 C744 1.366 . S
C743 C745 1.388 . S
C744 C743 1.366 . S
C744 C748 1.385 . S
C745 H720 0.951 . S
C745 C743 1.388 . S
C745 C746 1.366 . S
C746 C745 1.366 . S
C746 C747 1.414 . S
C746 C749 1.499 . S
C747 H721 0.950 . S
C747 C746 1.414 . S
C747 C748 1.374 . S
C748 H722 0.950 . S
C748 C744 1.385 . S
C748 C747 1.374 . S
C749 C746 1.499 . S
C749 C750 1.373 . S
C749 C751 1.389 . S
C750 H723 0.950 . S
C750 C736 1.377 . S
C750 C749 1.373 . S
C751 C735 1.377 . S
C751 C749 1.389 . S
C751 C752 1.524 . S
C752 C751 1.524 . S
C752 C753 1.397 . S
C752 C757 1.363 . S
C753 H724 0.950 . S
C753 C752 1.397 . S
C753 C754 1.334 . S
C754 H725 0.950 . S
C754 C753 1.334 . S
C754 C755 1.287 . S
C755 C754 1.287 . S
C755 C756 1.524 . S
C755 H758 0.999 . S
C756 H726 0.950 . S
C756 C755 1.524 . S
C756 C757 1.415 . S
C757 H727 0.950 . S
C757 C752 1.363 . S
C757 C756 1.415 . S
H758 C755 0.999 . S
H759 C740 0.913 . S
H760 C778 0.951 . S
H761 C780 0.951 . S
H762 C782 0.950 . S
H763 C783 0.950 . S
H764 C785 0.950 . S
H765 C788 0.950 . S
H766 C789 0.950 . S
H767 C791 0.950 . S
H768 C792 0.950 . S
H769 C793 0.951 . S
H770 C795 0.951 . S
H771 C797 0.950 . S
H772 C798 0.950 . S
H773 C800 0.950 . S
H774 C803 0.950 . S
H775 C804 0.950 . S
H776 C806 0.950 . S
H777 C807 0.950 . S
C778 H760 0.951 . S
C778 C779 1.366 . S
C778 C780 1.388 . S
C779 C778 1.366 . S
C779 C783 1.385 . S
C780 H761 0.951 . S
C780 C778 1.388 . S
C780 C781 1.366 . S
C781 C780 1.366 . S
C781 C782 1.414 . S
C781 C784 1.499 . S
C782 H762 0.950 . S
C782 C781 1.414 . S
C782 C783 1.374 . S
C783 H763 0.950 . S
C783 C779 1.385 . S
C783 C782 1.374 . S
C784 C781 1.499 . S
C784 C785 1.373 . S
C784 C786 1.389 . S
C785 H764 0.950 . S
C785 C784 1.373 . S
C785 C801 1.377 . S
C786 C784 1.389 . S
C786 C787 1.524 . S
C786 C800 1.377 . S
C787 C786 1.524 . S
C787 C788 1.397 . S
C787 C792 1.363 . S
C788 H765 0.950 . S
C788 C787 1.397 . S
C788 C789 1.334 1_655 S
C789 H766 0.950 . S
C789 C788 1.334 1_455 S
C789 C790 1.287 . S
C790 C789 1.287 . S
C790 C791 1.524 1_455 S
C790 H809 0.913 . S
C791 H767 0.950 . S
C791 C790 1.524 1_655 S
C791 C792 1.415 . S
C792 H768 0.950 . S
C792 C787 1.363 . S
C792 C791 1.415 . S
C793 H769 0.951 . S
C793 C794 1.366 . S
C793 C795 1.388 . S
C794 C793 1.366 . S
C794 C798 1.385 . S
C795 H770 0.951 . S
C795 C793 1.388 . S
C795 C796 1.366 . S
C796 C795 1.366 . S
C796 C797 1.414 . S
C796 C799 1.499 . S
C797 H771 0.950 . S
C797 C796 1.414 . S
C797 C798 1.374 . S
C798 H772 0.950 . S
C798 C794 1.385 . S
C798 C797 1.374 . S
C799 C796 1.499 . S
C799 C800 1.373 . S
C799 C801 1.389 . S
C800 H773 0.950 . S
C800 C786 1.377 . S
C800 C799 1.373 . S
C801 C785 1.377 . S
C801 C799 1.389 . S
C801 C802 1.524 . S
C802 C801 1.524 . S
C802 C803 1.397 . S
C802 C807 1.363 . S
C803 H774 0.950 . S
C803 C802 1.397 . S
C803 C804 1.334 . S
C804 H775 0.950 . S
C804 C803 1.334 . S
C804 C805 1.287 . S
C805 C804 1.287 . S
C805 C806 1.524 . S
C805 H808 0.999 . S
C806 H776 0.950 . S
C806 C805 1.524 . S
C806 C807 1.415 . S
C807 H777 0.950 . S
C807 C802 1.363 . S
C807 C806 1.415 . S
H808 C805 0.999 . S
H809 C790 0.913 . S
C229 C58 1.162 . S
C244 C187 1.246 . S
C279 C139 1.515 . S
C294 C193 1.378 . S
C329 C67 1.585 . S
C344 C184 1.462 . S
C379 C154 1.191 . S
C394 C209 1.251 . S
C429 C56 1.567 . S
C444 C175 1.436 . S
C494 C192 1.515 . S
C479 C152 1.608 . S
C529 C142 1.165 . S
C544 C188 1.247 . S
C594 C205 1.515 . S
C579 C68 1.608 . S
C644 C172 1.434 . S
C629 C140 1.567 . S
C694 C208 1.250 . S
C679 C70 1.191 . S
C744 C171 1.461 . S
C729 C151 1.585 . S
C794 C196 1.378 . S
C779 C55 1.515 . S
