# Generated by pormake.
# Topology nia, (6,6)-cn, num edge types: 1
# Building blocks:
#     Node 0, Type 0, BuildingBlock: BETFAJ_clean_sbu_0, # of connection points: 6
#     Node 1, Type 0, BuildingBlock: BETFAJ_clean_sbu_0, # of connection points: 6
#     Node 2, Type 1, BuildingBlock: MIDCAF_clean_sbu_0, # of connection points: 6
#     Node 3, Type 1, BuildingBlock: MIDCAF_clean_sbu_0, # of connection points: 6
#     Edge 4, Type (0, 1), BuildingBlock: TEMPAE_clean_linker_10, # of connection points: 2
#     Edge 5, Type (0, 1), BuildingBlock: TEMPAE_clean_linker_10, # of connection points: 2
#     Edge 6, Type (0, 1), BuildingBlock: TEMPAE_clean_linker_10, # of connection points: 2
#     Edge 7, Type (0, 1), BuildingBlock: TEMPAE_clean_linker_10, # of connection points: 2
#     Edge 8, Type (0, 1), BuildingBlock: TEMPAE_clean_linker_10, # of connection points: 2
#     Edge 9, Type (0, 1), BuildingBlock: TEMPAE_clean_linker_10, # of connection points: 2
#     Edge 10, Type (0, 1), BuildingBlock: TEMPAE_clean_linker_10, # of connection points: 2
#     Edge 11, Type (0, 1), BuildingBlock: TEMPAE_clean_linker_10, # of connection points: 2
#     Edge 12, Type (0, 1), BuildingBlock: TEMPAE_clean_linker_10, # of connection points: 2
#     Edge 13, Type (0, 1), BuildingBlock: TEMPAE_clean_linker_10, # of connection points: 2
#     Edge 14, Type (0, 1), BuildingBlock: TEMPAE_clean_linker_10, # of connection points: 2
#     Edge 15, Type (0, 1), BuildingBlock: TEMPAE_clean_linker_10, # of connection points: 2
# Relax obj value: 0.324
# Max RMSD: 0.268
# Mean RMSD: 0.248
data_MOF--net-nia--node1-BETFAJ_clean_sbu_0--node2-MIDCAF_clean_sbu_0--edge1-TEMPAE_clean_linker_10
_symmetry_space_group_name_H-M    P1
_symmetry_Int_Tables_number       1
_symmetry_cell_setting            triclinic
loop_
_symmetry_equiv_pos_as_xyz
'x, y, z'
_cell_length_a     25.817903
_cell_length_b     28.913869
_cell_length_c     34.441965
_cell_angle_alpha  68.631176
_cell_angle_beta   100.76855
_cell_angle_gamma 127.36532
loop_
_atom_site_label
_atom_site_type_symbol
_atom_site_fract_x
_atom_site_fract_y
_atom_site_fract_z
_atom_type_partial_charge
Sm0 Sm 0.07899 0.04743 0.04298 0.0
Sm1 Sm 0.96664 0.92838 1.02055 0.0
C2 C 0.17903 0.15632 0.04764 0.0
C3 C 0.19132 0.19487 0.07122 0.0
C4 C 0.23115 0.25883 0.05319 0.0
C5 C 0.24221 0.29601 0.07507 0.0
C6 C 0.21374 0.26956 0.11536 0.0
C7 C 0.17376 0.20541 0.13336 0.0
C8 C 0.1622 0.16824 0.11129 0.0
C9 C 0.97223 0.96485 0.09959 0.0
C10 C 0.96797 0.05102 0.97923 0.0
C11 C 0.86181 0.82086 1.01794 0.0
C12 C 0.85266 0.77801 0.99948 0.0
C13 C 0.89855 0.7652 1.00469 0.0
C14 C 0.89568 0.73312 0.98136 0.0
C15 C 0.84766 0.7144 0.95199 0.0
C16 C 0.80083 0.72581 0.94763 0.0
C17 C 0.80319 0.75717 0.97132 0.0
C18 C 0.07474 -0.00469 0.96638 0.0
C19 C 0.08521 0.93195 0.07521 0.0
O20 O 0.13606 0.14918 1.01896 0.0
O21 O 0.17289 0.10545 0.06957 0.0
O22 O 0.9707 0.97745 0.06055 0.0
O23 O 0.03165 0.00045 0.10979 0.0
O24 O 0.02697 0.0833 0.99329 0.0
O25 O 0.93305 -0.00934 0.98864 0.0
O26 O 0.89706 0.82777 0.05104 0.0
O27 O 0.87564 0.87282 0.99061 0.0
O28 O 0.06818 0.0078 0.99548 0.0
O29 O 0.02088 0.94385 0.9645 0.0
O30 O 0.02101 0.89771 0.0727 0.0
O31 O 0.12061 -0.00787 0.05744 0.0
H32 H 0.25362 0.27994 1.02221 0.0
H33 H 0.27375 0.34547 0.06078 0.0
H34 H 0.15097 0.18412 0.16424 0.0
H35 H 0.13051 0.11877 0.12549 0.0
H36 H 0.93802 0.78183 1.02564 0.0
H37 H 0.93227 0.72479 0.98522 0.0
H38 H 0.76271 0.71089 0.92561 0.0
H39 H 0.76788 0.76726 0.9665 0.0
Sm40 Sm 0.98532 0.01322 0.54739 0.0
Sm41 Sm 0.05999 0.97135 0.52279 0.0
C42 C 0.9439 0.07004 0.56164 0.0
C43 C 0.91133 0.06765 0.59365 0.0
C44 C 0.87806 0.09449 0.58072 0.0
C45 C 0.84668 0.09368 0.60997 0.0
C46 C 0.8477 0.06573 0.6529 0.0
C47 C 0.88085 0.03833 0.66586 0.0
C48 C 0.91231 0.03906 0.63634 0.0
C49 C 0.9356 0.89071 0.58486 0.0
C50 C 0.94121 0.9665 0.46713 0.0
C51 C 0.0911 0.90152 0.51867 0.0
C52 C 0.10594 0.88482 0.48899 0.0
C53 C 0.08956 0.82555 0.50074 0.0
C54 C 0.1073 0.8094 0.47477 0.0
C55 C 0.14201 0.8524 0.43654 0.0
C56 C 0.15616 0.91119 0.42403 0.0
C57 C 0.13826 0.92733 0.45012 0.0
C58 C 0.10548 0.09045 0.47142 0.0
C59 C 0.1159 0.03263 0.59822 0.0
O60 O 0.9081 0.0257 0.54532 0.0
O61 O 0.00352 0.08613 0.56794 0.0
O62 O 0.99517 0.93517 0.5782 0.0
O63 O 0.89982 0.91054 0.57457 0.0
O64 O 0.95171 0.00809 0.48144 0.0
O65 O 0.9696 0.93839 0.48297 0.0
O66 O 0.13446 0.9572 0.52092 0.0
O67 O 0.03056 0.88211 0.52151 0.0
O68 O 0.06209 0.05539 0.50025 0.0
O69 O 0.12683 0.0614 0.46772 0.0
O70 O 0.1174 0.00167 0.57863 0.0
O71 O 0.07237 0.04478 0.5907 0.0
H72 H 0.87691 0.11673 0.54787 0.0
H73 H 0.82304 0.11653 0.59892 0.0
H74 H 0.88244 0.01646 0.69868 0.0
H75 H 0.93756 0.01773 0.64677 0.0
H76 H 0.06417 0.79204 0.53049 0.0
H77 H 0.09469 0.76343 0.48492 0.0
H78 H 0.18307 0.94532 0.39485 0.0
H79 H 0.15096 0.97329 0.44042 0.0
Zn80 Zn 0.42118 0.72983 0.19554 0.0
Zn81 Zn 0.38539 0.65483 0.35445 0.0
Zn82 Zn 0.40317 0.69073 0.27385 0.0
C83 C 0.52078 0.73846 0.33639 0.0
C84 C 0.32804 0.5468 0.33927 0.0
O85 O 0.35002 0.73449 0.24181 0.0
O86 O 0.35742 0.74864 0.17505 0.0
C87 C 0.54428 0.7904 0.22029 0.0
O88 O 0.50226 0.73958 0.2988 0.0
O89 O 0.47883 0.70492 0.36639 0.0
O90 O 0.34077 0.56567 0.36987 0.0
O91 O 0.34611 0.58562 0.30174 0.0
O92 O 0.51517 0.79762 0.18741 0.0
O93 O 0.51088 0.75176 0.25519 0.0
O94 O 0.36019 0.60786 0.25854 0.0
O95 O 0.39815 0.6521 0.19297 0.0
C96 C 0.36868 0.6045 0.22431 0.0
O97 O 0.35036 0.7231 0.28514 0.0
O98 O 0.33374 0.68492 0.35394 0.0
C99 C 0.33496 0.75031 0.20362 0.0
C100 C 0.32719 0.7153 0.31886 0.0
Zn101 Zn 0.64806 0.27052 0.87101 0.0
Zn102 Zn 0.66674 0.32634 0.71137 0.0
Zn103 Zn 0.65468 0.29888 0.79094 0.0
C104 C 0.73681 0.43902 0.72089 0.0
C105 C 0.53282 0.25625 0.73195 0.0
O106 O 0.70641 0.25391 0.82266 0.0
O107 O 0.70018 0.23824 0.8899 0.0
C108 C 0.71095 0.39794 0.83583 0.0
O109 O 0.71289 0.40292 0.75849 0.0
O110 O 0.72654 0.41634 0.69284 0.0
O111 O 0.57291 0.28823 0.70099 0.0
O112 O 0.55353 0.25221 0.76928 0.0
O113 O 0.68741 0.35477 0.87006 0.0
O114 O 0.70612 0.38701 0.80182 0.0
O115 O 0.54896 0.24008 0.8127 0.0
O116 O 0.55307 0.21113 0.88144 0.0
C117 C 0.51994 0.20919 0.84934 0.0
O118 O 0.69826 0.25742 0.78053 0.0
O119 O 0.70203 0.28202 0.71178 0.0
C120 C 0.71986 0.23504 0.86076 0.0
C121 C 0.71154 0.25505 0.7473 0.0
C122 C 0.08716 0.84704 0.13025 0.0
C123 C 0.1189 0.90297 0.09745 0.0
C124 C 0.11968 0.82029 0.15176 0.0
C125 C 0.18484 0.84918 0.1394 0.0
C126 C 0.21691 0.9056 0.1062 0.0
C127 C 0.18389 0.93207 0.08604 0.0
C128 C 0.08441 0.76113 0.18774 0.0
C129 C 0.2858 0.93754 0.09134 0.0
C130 C 0.29553 0.80924 0.20891 0.0
C131 C 0.29116 0.77004 0.19164 0.0
C132 C 0.25942 0.83369 0.19333 0.0
C133 C 0.21847 0.81901 0.15943 0.0
C134 C 0.21274 0.7781 0.14272 0.0
C135 C 0.24908 0.75431 0.15895 0.0
C136 C 0.26778 0.87772 0.21173 0.0
C137 C 0.17025 0.76137 0.10646 0.0
H138 H 0.03721 0.82465 0.13955 0.0
H139 H 0.20868 0.97514 0.06059 0.0
H140 H 0.07972 0.72435 0.18056 0.0
H141 H 0.11305 0.76716 0.21615 0.0
H142 H 0.03491 0.74572 0.19468 0.0
H143 H 0.30395 -0.01877 0.06525 0.0
H144 H 0.3191 0.94768 0.11743 0.0
H145 H 0.28814 0.90692 0.0807 0.0
H146 H 0.32975 0.82344 0.23295 0.0
H147 H 0.24565 0.72419 0.14532 0.0
H148 H 0.22032 0.86887 0.21498 0.0
H149 H 0.30038 0.9254 0.19053 0.0
H150 H 0.28977 0.87467 0.24264 0.0
H151 H 0.11967 0.74265 0.11392 0.0
H152 H 0.16888 0.7269 0.09823 0.0
H153 H 0.18885 0.80317 0.07867 0.0
C154 C 0.22031 0.05421 0.63053 0.0
C155 C 0.16696 0.05632 0.62858 0.0
C156 C 0.27304 0.08226 0.6552 0.0
C157 C 0.2724 0.11271 0.67909 0.0
C158 C 0.21673 0.11125 0.67974 0.0
C159 C 0.16485 0.08363 0.65409 0.0
C160 C 0.33131 0.08251 0.6536 0.0
C161 C 0.21323 0.14098 0.70624 0.0
C162 C 0.41601 0.16403 0.74971 0.0
C163 C 0.46255 0.22315 0.72368 0.0
C164 C 0.35137 0.12896 0.73754 0.0
C165 C 0.33383 0.15316 0.69795 0.0
C166 C 0.37975 0.21441 0.67298 0.0
C167 C 0.44331 0.24859 0.68624 0.0
C168 C 0.30375 0.06461 0.76582 0.0
C169 C 0.36354 0.24234 0.63055 0.0
H170 H 0.22245 0.03285 0.61133 0.0
H171 H 0.12339 0.08462 0.6534 0.0
H172 H 0.37413 0.13021 0.63877 0.0
H173 H 0.3441 0.06573 0.68563 0.0
H174 H 0.32244 0.05342 0.63565 0.0
H175 H 0.1634 0.12829 0.70808 0.0
H176 H 0.22826 0.12749 0.73831 0.0
H177 H 0.24753 0.19169 0.69284 0.0
H178 H 0.43082 0.14384 0.77843 0.0
H179 H 0.47908 0.29457 0.66619 0.0
H180 H 0.30637 0.03218 0.75785 0.0
H181 H 0.25288 0.0504 0.76219 0.0
H182 H 0.31596 0.06063 0.79905 0.0
H183 H 0.35663 0.21853 0.60897 0.0
H184 H 0.40263 0.29215 0.6168 0.0
H185 H 0.3173 0.23625 0.63262 0.0
C186 C 0.22163 0.3578 0.11926 0.0
C187 C 0.22699 0.30923 0.13868 0.0
C188 C 0.24006 0.39953 0.13942 0.0
C189 C 0.26471 0.39245 0.17986 0.0
C190 C 0.26751 0.34185 0.20035 0.0
C191 C 0.24839 0.3006 0.17946 0.0
C192 C 0.23633 0.45298 0.11656 0.0
C193 C 0.29476 0.3331 0.24298 0.0
C194 C 0.38467 0.54417 0.19928 0.0
C195 C 0.34486 0.54588 0.2204 0.0
C196 C 0.36006 0.49253 0.18823 0.0
C197 C 0.29384 0.44192 0.19821 0.0
C198 C 0.25442 0.44201 0.22171 0.0
C199 C 0.2806 0.49439 0.23262 0.0
C200 C 0.4038 0.49371 0.16367 0.0
C201 C 0.184 0.38811 0.23342 0.0
H202 H 0.2042 0.36382 0.0879 0.0
H203 H 0.25299 0.26318 0.19435 0.0
H204 H 0.20972 0.45595 0.1363 0.0
H205 H 0.28632 0.49654 0.10978 0.0
H206 H 0.21158 0.44923 0.08662 0.0
H207 H 0.27035 0.28348 0.26055 0.0
H208 H 0.34743 0.35471 0.2393 0.0
H209 H 0.28972 0.35449 0.26159 0.0
H210 H 0.43458 0.58429 0.19005 0.0
H211 H 0.24978 0.49669 0.24812 0.0
H212 H 0.3858 0.49353 0.13179 0.0
H213 H 0.40269 0.45203 0.17874 0.0
H214 H 0.45519 0.53491 0.16092 0.0
H215 H 0.15685 0.3787 0.20498 0.0
H216 H 0.15953 0.39621 0.25073 0.0
H217 H 0.18112 0.3464 0.25294 0.0
C218 C 0.75897 0.06341 0.67473 0.0
C219 C 0.81784 0.06971 0.68335 0.0
C220 C 0.73857 0.08285 0.69637 0.0
C221 C 0.77753 0.10827 0.72786 0.0
C222 C 0.83202 0.10672 0.74053 0.0
C223 C 0.85207 0.08802 0.7178 0.0
C224 C 0.67927 0.08235 0.68234 0.0
C225 C 0.87279 0.13023 0.77542 0.0
C226 C 0.78543 0.24592 0.71971 0.0
C227 C 0.73719 0.22064 0.74934 0.0
C228 C 0.80241 0.2107 0.71479 0.0
C229 C 0.76969 0.14822 0.73992 0.0
C230 C 0.72404 0.12358 0.772 0.0
C231 C 0.70835 0.16035 0.77641 0.0
C232 C 0.85187 0.23929 0.68044 0.0
C233 C 0.68787 0.05739 0.79951 0.0
H234 H 0.73107 0.04715 0.64905 0.0
H235 H 0.8972 0.09228 0.7251 0.0
H236 H 0.64757 0.06388 0.70961 0.0
H237 H 0.69501 0.13012 0.66547 0.0
H238 H 0.65005 0.05444 0.6612 0.0
H239 H 0.90015 0.11013 0.78924 0.0
H240 H 0.90865 0.18088 0.76302 0.0
H241 H 0.84186 0.11943 0.80029 0.0
H242 H 0.80801 0.29281 0.69904 0.0
H243 H 0.67079 0.14079 0.79929 0.0
H244 H 0.82764 0.21649 0.65613 0.0
H245 H 0.89047 0.23261 0.69301 0.0
H246 H 0.87542 0.28931 0.66537 0.0
H247 H 0.64198 0.02898 0.78487 0.0
H248 H 0.67441 0.05184 0.83054 0.0
H249 H 0.71692 0.03938 0.80388 0.0
C250 C 0.91946 0.94753 0.16277 0.0
C251 C 0.91381 0.93367 0.12645 0.0
C252 C 0.86367 0.92425 0.18528 0.0
C253 C 0.80079 0.88537 0.17154 0.0
C254 C 0.79507 0.86862 0.1362 0.0
C255 C 0.85154 0.89344 0.1139 0.0
C256 C 0.8721 0.94391 0.22239 0.0
C257 C 0.72915 0.82636 0.12084 0.0
C258 C 0.64193 0.7885 0.23637 0.0
C259 C 0.61523 0.82086 0.21601 0.0
C260 C 0.70433 0.81064 0.2241 0.0
C261 C 0.741 0.86676 0.19112 0.0
C262 C 0.71643 0.9021 0.17329 0.0
C263 C 0.6537 0.87843 0.18561 0.0
C264 C 0.72847 0.77145 0.2441 0.0
C265 C 0.75444 0.96306 0.13902 0.0
H266 H 0.96751 0.9788 0.17258 0.0
H267 H 0.84693 0.88232 0.086 0.0
H268 H 0.85716 0.97496 0.21447 0.0
H269 H 0.84027 0.9036 0.24936 0.0
H270 H 0.92341 0.96844 0.23198 0.0
H271 H 0.73288 0.81289 0.09568 0.0
H272 H 0.69748 0.78413 0.14696 0.0
H273 H 0.70482 0.8496 0.10856 0.0
H274 H 0.61221 0.74379 0.25972 0.0
H275 H 0.63338 0.90378 0.16997 0.0
H276 H 0.7808 0.7999 0.25089 0.0
H277 H 0.7237 0.74907 0.22213 0.0
H278 H 0.70018 0.73506 0.27353 0.0
H279 H 0.80573 -0.00769 0.14753 0.0
H280 H 0.73272 -0.01156 0.13241 0.0
H281 H 0.7553 0.95529 0.10995 0.0
C282 C 0.94616 0.81044 0.63827 0.0
C283 C 0.90983 0.82568 0.60791 0.0
C284 C 0.9203 0.74862 0.66146 0.0
C285 C 0.85786 0.70088 0.65281 0.0
C286 C 0.82136 0.71634 0.62189 0.0
C287 C 0.84729 0.77848 0.60043 0.0
C288 C 0.95936 0.73427 0.69553 0.0
C289 C 0.75532 0.66721 0.61092 0.0
C290 C 0.81953 0.54404 0.67427 0.0
C291 C 0.77423 0.50697 0.70842 0.0
C292 C 0.84832 0.60725 0.6568 0.0
C293 C 0.83223 0.63484 0.67407 0.0
C294 C 0.78856 0.59816 0.70969 0.0
C295 C 0.7596 0.53458 0.72616 0.0
C296 C 0.89334 0.64382 0.61837 0.0
C297 C 0.76915 0.62483 0.7292 0.0
H298 H 0.99414 0.84691 0.64461 0.0
H299 H 0.81911 0.79021 0.577 0.0
H300 H 0.92973 0.7051 0.72541 0.0
H301 H 0.97171 0.70779 0.68792 0.0
H302 H 0.00532 0.77647 0.7001 0.0
H303 H 0.73391 0.68679 0.5854 0.0
H304 H 0.75946 0.63698 0.6011 0.0
H305 H 0.72123 0.63799 0.63874 0.0
H306 H 0.83092 0.52305 0.66017 0.0
H307 H 0.72298 0.50612 0.75147 0.0
H308 H 0.94093 0.68396 0.62367 0.0
H309 H 0.8718 0.66181 0.59178 0.0
H310 H 0.90226 0.6159 0.60939 0.0
H311 H 0.80961 0.67326 0.72668 0.0
H312 H 0.75342 0.5974 0.76256 0.0
H313 H 0.72735 0.62377 0.71278 0.0
C314 C 0.19543 0.80632 0.43121 0.0
C315 C 0.16652 0.83668 0.41132 0.0
C316 C 0.21907 0.79069 0.40852 0.0
C317 C 0.21388 0.80585 0.36465 0.0
C318 C 0.18478 0.83659 0.34422 0.0
C319 C 0.16181 0.85206 0.36782 0.0
C320 C 0.2498 0.75796 0.43165 0.0
C321 C 0.17862 0.85386 0.29755 0.0
C322 C 0.33402 0.80462 0.31804 0.0
C323 C 0.29552 0.74384 0.31811 0.0
C324 C 0.30655 0.82789 0.32912 0.0
C325 C 0.23932 0.78892 0.34103 0.0
C326 C 0.1994 0.72913 0.33756 0.0
C327 C 0.22822 0.70704 0.32646 0.0
C328 C 0.35049 0.89234 0.33147 0.0
C329 C 0.12742 0.68645 0.34944 0.0
H330 H 0.2004 0.79541 0.46471 0.0
H331 H 0.1394 0.87548 0.35231 0.0
H332 H 0.22332 0.71339 0.42596 0.0
H333 H 0.30109 0.78593 0.41998 0.0
H334 H 0.24944 0.749 0.46586 0.0
H335 H 0.22716 0.89382 0.28221 0.0
H336 H 0.16182 0.81555 0.28633 0.0
H337 H 0.14425 0.86666 0.28757 0.0
H338 H 0.38629 0.83266 0.31193 0.0
H339 H 0.19886 0.65974 0.3269 0.0
H340 H 0.35884 0.8904 0.36465 0.0
H341 H 0.32724 0.91643 0.31777 0.0
H342 H 0.39856 0.91967 0.31494 0.0
H343 H 0.12056 0.67032 0.3839 0.0
H344 H 0.10169 0.64564 0.33893 0.0
H345 H 0.10444 0.71082 0.33584 0.0
C346 C 0.13702 0.00925 0.91053 0.0
C347 C 0.13532 0.03025 0.9408 0.0
C348 C 0.19556 0.03871 0.88853 0.0
C349 C 0.25375 0.09039 0.89702 0.0
C350 C 0.25147 0.11347 0.92615 0.0
C351 C 0.19231 0.08305 0.94774 0.0
C352 C 0.19564 0.01333 0.85726 0.0
C353 C 0.31221 0.1687 0.93595 0.0
C354 C 0.41725 0.12056 0.89107 0.0
C355 C 0.44838 0.17303 0.85578 0.0
C356 C 0.35282 0.09154 0.90343 0.0
C357 C 0.31821 0.11547 0.87993 0.0
C358 C 0.3478 0.16599 0.84259 0.0
C359 C 0.41295 0.19463 0.83113 0.0
C360 C 0.32309 0.0372 0.94306 0.0
C361 C 0.31246 0.19235 0.81607 0.0
H362 H 0.09284 0.96872 0.9048 0.0
H363 H 0.19109 0.09964 0.97093 0.0
H364 H 0.21478 0.04967 0.8264 0.0
H365 H 0.22844 -0.00125 0.86702 0.0
H366 H 0.14614 0.97346 0.85367 0.0
H367 H 0.30128 0.18428 0.95634 0.0
H368 H 0.34631 0.15715 0.95195 0.0
H369 H 0.33762 0.20734 0.90669 0.0
H370 H 0.44441 0.10354 0.91014 0.0
H371 H 0.43705 0.23563 0.80413 0.0
H372 H 0.2748 -0.00175 0.93721 0.0
H373 H 0.31523 0.04987 0.96705 0.0
H374 H 0.35456 0.02139 0.95596 0.0
H375 H 0.26024 0.15554 0.81422 0.0
H376 H 0.33487 0.22039 0.7839 0.0
H377 H 0.31485 0.22228 0.83039 0.0
C378 C 0.12384 0.18959 0.46285 0.0
C379 C 0.13146 0.15541 0.44726 0.0
C380 C 0.15343 0.25274 0.44189 0.0
C381 C 0.19014 0.28218 0.40378 0.0
C382 C 0.19539 0.24692 0.38714 0.0
C383 C 0.16683 0.18434 0.4093 0.0
C384 C 0.14762 0.28848 0.46146 0.0
C385 C 0.23201 0.27556 0.34614 0.0
C386 C 0.23226 0.44123 0.33758 0.0
C387 C 0.29618 0.48025 0.34881 0.0
C388 C 0.19754 0.37663 0.35427 0.0
C389 C 0.22724 0.35054 0.38318 0.0
C390 C 0.29238 0.39011 0.39372 0.0
C391 C 0.32575 0.45417 0.37654 0.0
C392 C 0.12829 0.33624 0.34218 0.0
C393 C 0.32604 0.36485 0.42464 0.0
H394 H 0.09678 0.1675 0.49229 0.0
H395 H 0.1724 0.15798 0.39694 0.0
H396 H 0.19652 0.32323 0.47015 0.0
H397 H 0.12927 0.31364 0.43879 0.0
H398 H 0.11449 0.25838 0.48986 0.0
H399 H 0.2299 0.24159 0.33672 0.0
H400 H 0.21112 0.29644 0.32141 0.0
H401 H 0.2839 0.31295 0.34819 0.0
H402 H 0.20829 0.4611 0.31748 0.0
H403 H 0.37464 0.48422 0.38603 0.0
H404 H 0.09487 0.30589 0.37036 0.0
H405 H 0.12441 0.30604 0.32739 0.0
H406 H 0.11146 0.36335 0.32025 0.0
H407 H 0.29893 0.33818 0.45538 0.0
H408 H 0.37721 0.40166 0.4289 0.0
H409 H 0.32622 0.33295 0.41414 0.0
C410 C 0.88147 0.05279 0.93259 0.0
C411 C 0.93792 0.08276 0.95438 0.0
C412 C 0.84916 0.07983 0.91197 0.0
C413 C 0.87282 0.13783 0.9138 0.0
C414 C 0.9313 0.16944 0.93428 0.0
C415 C 0.96337 0.1418 0.95403 0.0
C416 C 0.78794 0.04445 0.88998 0.0
C417 C 0.95836 0.23133 0.93693 0.0
C418 C 0.80634 0.22789 0.84541 0.0
C419 C 0.75696 0.20823 0.87199 0.0
C420 C 0.84406 0.20499 0.85802 0.0
C421 C 0.83283 0.16213 0.89853 0.0
C422 C 0.78286 0.14226 0.92532 0.0
C423 C 0.74559 0.16523 0.9117 0.0
C424 C 0.8971 0.22898 0.82808 0.0
C425 C 0.76956 0.09758 0.96894 0.0
H426 H 0.86163 0.0075 0.93213 0.0
H427 H 0.00705 0.16555 0.97061 0.0
H428 H 0.74553 0.01315 0.91268 0.0
H429 H 0.77926 0.07545 0.86437 0.0
H430 H 0.79047 0.01588 0.87695 0.0
H431 H 0.00503 0.25067 0.95314 0.0
H432 H 0.96668 0.26415 0.90511 0.0
H433 H 0.92244 0.22712 0.95395 0.0
H434 H 0.81691 0.26252 0.81523 0.0
H435 H 0.70763 0.14987 0.93255 0.0
H436 H 0.91395 0.19947 0.83602 0.0
H437 H 0.93946 0.27559 0.82849 0.0
H438 H 0.87998 0.23354 0.79573 0.0
H439 H 0.75361 0.053 0.96744 0.0
H440 H 0.73124 0.08915 0.98664 0.0
H441 H 0.8149 0.11541 0.98651 0.0
C442 C 0.88687 0.91059 0.41448 0.0
C443 C 0.89189 0.94679 0.43528 0.0
C444 C 0.83403 0.88356 0.38937 0.0
C445 C 0.78435 0.89171 0.38585 0.0
C446 C 0.79188 0.93206 0.40409 0.0
C447 C 0.84578 0.95945 0.42833 0.0
C448 C 0.82914 0.84295 0.36896 0.0
C449 C 0.74022 0.94227 0.40098 0.0
C450 C 0.63806 0.83074 0.31735 0.0
C451 C 0.59059 0.77537 0.34616 0.0
C452 C 0.7029 0.86766 0.32872 0.0
C453 C 0.71966 0.84983 0.37038 0.0
C454 C 0.6722 0.79309 0.39915 0.0
C455 C 0.60873 0.7565 0.38657 0.0
C456 C 0.75229 0.92676 0.29659 0.0
C457 C 0.68755 0.77205 0.44394 0.0
H458 H 0.92298 0.90152 0.41899 0.0
H459 H 0.84945 -0.01226 0.44395 0.0
H460 H 0.7927 0.79404 0.38683 0.0
H461 H 0.81237 0.85133 0.33669 0.0
H462 H 0.87657 0.85052 0.36788 0.0
H463 H 0.7565 -0.02014 0.41293 0.0
H464 H 0.72675 0.95354 0.36812 0.0
H465 H 0.69561 0.8994 0.41939 0.0
H466 H 0.62411 0.84662 0.28655 0.0
H467 H 0.57251 0.71352 0.40901 0.0
H468 H 0.80137 0.93663 0.30085 0.0
H469 H 0.75593 0.96535 0.29997 0.0
H470 H 0.73775 0.92523 0.26435 0.0
H471 H 0.72964 0.77042 0.44506 0.0
H472 H 0.64557 0.72589 0.46201 0.0
H473 H 0.70133 0.8053 0.4596 0.0
C474 C 0.84645 0.63116 0.94466 0.0
C475 C 0.84572 0.68257 0.92599 0.0
C476 C 0.83557 0.59553 0.92122 0.0
C477 C 0.82417 0.61216 0.87811 0.0
C478 C 0.82938 0.66722 0.85849 0.0
C479 C 0.83946 0.70155 0.8828 0.0
C480 C 0.83106 0.53741 0.94333 0.0
C481 C 0.82051 0.68795 0.8124 0.0
C482 C 0.80549 0.50671 0.82742 0.0
C483 C 0.73878 0.45962 0.83578 0.0
C484 C 0.83415 0.56036 0.83752 0.0
C485 C 0.79474 0.56597 0.85642 0.0
C486 C 0.72629 0.52085 0.86085 0.0
C487 C 0.69928 0.46793 0.85078 0.0
C488 C 0.90701 0.60803 0.83125 0.0
C489 C 0.68209 0.5256 0.87984 0.0
H490 H 0.85173 0.61677 0.97805 0.0
H491 H 0.84065 0.74237 0.86823 0.0
H492 H 0.77957 0.49689 0.94497 0.0
H493 H 0.8603 0.53447 0.92573 0.0
H494 H 0.84834 0.53472 0.9756 0.0
H495 H 0.83598 0.73605 0.80091 0.0
H496 H 0.84913 0.68452 0.7947 0.0
H497 H 0.76834 0.65766 0.80588 0.0
H498 H 0.83575 0.49991 0.81567 0.0
H499 H 0.6475 0.43127 0.85682 0.0
H500 H 0.93052 0.59783 0.86029 0.0
H501 H 0.9208 0.6549 0.82428 0.0
H502 H 0.92664 0.60737 0.80551 0.0
H503 H 0.69134 0.5197 0.9135 0.0
H504 H 0.62966 0.49015 0.87684 0.0
H505 H 0.69231 0.57158 0.86472 0.0
loop_
_geom_bond_atom_site_label_1
_geom_bond_atom_site_label_2
_geom_bond_distance
_geom_bond_site_symmetry_2
_ccdc_geom_bond_type
Sm0 C2 2.846 . S
Sm0 O20 2.543 . S
Sm0 O21 2.450 . S
Sm0 O22 2.681 1_445 S
Sm0 O23 2.464 1_445 S
Sm0 O24 2.396 . S
Sm0 O28 2.386 1_554 S
Sm0 O31 2.408 1_545 S
Sm1 C11 2.846 . S
Sm1 O22 2.386 1_556 S
Sm1 O25 2.408 1_565 S
Sm1 O26 2.543 . S
Sm1 O27 2.450 . S
Sm1 O28 2.681 1_665 S
Sm1 O29 2.464 1_665 S
Sm1 O30 2.396 1_656 S
C2 Sm0 2.846 . S
C2 C3 1.506 . S
C2 O20 1.261 . S
C2 O21 1.242 . S
C3 C2 1.506 . S
C3 C4 1.358 . S
C3 C8 1.382 . S
C4 C3 1.358 . S
C4 C5 1.385 . S
C4 H32 0.930 . S
C5 C4 1.385 . S
C5 C6 1.395 . S
C5 H33 0.929 . S
C6 C5 1.395 . S
C6 C7 1.335 . S
C7 C6 1.335 . S
C7 C8 1.398 . S
C7 H34 0.930 . S
C8 C3 1.382 . S
C8 C7 1.398 . S
C8 H35 0.929 . S
C9 O22 1.271 . S
C9 O23 1.251 . S
C10 O24 1.252 1_656 S
C10 O25 1.272 . S
C11 Sm1 2.846 . S
C11 C12 1.506 . S
C11 O26 1.261 . S
C11 O27 1.242 . S
C12 C11 1.506 . S
C12 C13 1.358 . S
C12 C17 1.382 . S
C13 C12 1.358 . S
C13 C14 1.385 . S
C13 H36 0.930 1_556 S
C14 C13 1.385 . S
C14 C15 1.395 . S
C14 H37 0.929 . S
C15 C14 1.395 . S
C15 C16 1.335 . S
C16 C15 1.335 . S
C16 C17 1.398 . S
C16 H38 0.930 . S
C17 C12 1.382 . S
C17 C16 1.398 . S
C17 H39 0.929 . S
C18 O28 1.271 . S
C18 O29 1.251 . S
C19 O30 1.252 . S
C19 O31 1.272 . S
O20 Sm0 2.543 . S
O20 C2 1.261 . S
O21 Sm0 2.450 . S
O21 C2 1.242 . S
O22 Sm0 2.681 1_665 S
O22 Sm1 2.386 1_554 S
O22 C9 1.271 . S
O23 Sm0 2.464 1_665 S
O23 C9 1.251 . S
O24 Sm0 2.396 . S
O24 C10 1.252 1_454 S
O25 Sm1 2.408 1_545 S
O25 C10 1.272 . S
O26 Sm1 2.543 . S
O26 C11 1.261 . S
O27 Sm1 2.450 . S
O27 C11 1.242 . S
O28 Sm0 2.386 1_556 S
O28 Sm1 2.681 1_445 S
O28 C18 1.271 . S
O29 Sm1 2.464 1_445 S
O29 C18 1.251 . S
O30 Sm1 2.396 1_454 S
O30 C19 1.252 . S
O31 Sm0 2.408 1_565 S
O31 C19 1.272 . S
H32 C4 0.930 . S
H33 C5 0.929 . S
H34 C7 0.930 . S
H35 C8 0.929 . S
H36 C13 0.930 1_554 S
H37 C14 0.929 . S
H38 C16 0.930 . S
H39 C17 0.929 . S
Sm40 C42 2.846 1_455 S
Sm40 O60 2.543 1_455 S
Sm40 O61 2.450 1_455 S
Sm40 O62 2.681 1_545 S
Sm40 O63 2.464 1_445 S
Sm40 O64 2.396 1_445 S
Sm40 O68 2.386 . S
Sm40 O71 2.408 . S
Sm41 C51 2.846 . S
Sm41 O62 2.386 . S
Sm41 O65 2.408 1_455 S
Sm41 O66 2.543 . S
Sm41 O67 2.450 1_565 S
Sm41 O68 2.681 1_565 S
Sm41 O69 2.464 1_565 S
Sm41 O70 2.396 1_565 S
C42 Sm40 2.846 1_655 S
C42 C43 1.506 . S
C42 O60 1.261 . S
C42 O61 1.242 . S
C43 C42 1.506 . S
C43 C44 1.358 . S
C43 C48 1.382 . S
C44 C43 1.358 . S
C44 C45 1.385 . S
C44 H72 0.930 . S
C45 C44 1.385 . S
C45 C46 1.395 . S
C45 H73 0.929 . S
C46 C45 1.395 . S
C46 C47 1.335 . S
C47 C46 1.335 . S
C47 C48 1.398 . S
C47 H74 0.930 . S
C48 C43 1.382 . S
C48 C47 1.398 . S
C48 H75 0.929 . S
C49 O62 1.271 1_655 S
C49 O63 1.251 . S
C50 O64 1.252 . S
C50 O65 1.272 . S
C51 Sm41 2.846 . S
C51 C52 1.506 . S
C51 O66 1.261 . S
C51 O67 1.242 1_565 S
C52 C51 1.506 . S
C52 C53 1.358 . S
C52 C57 1.382 1_565 S
C53 C52 1.358 . S
C53 C54 1.385 . S
C53 H76 0.930 . S
C54 C53 1.385 . S
C54 C55 1.395 . S
C54 H77 0.929 . S
C55 C54 1.395 . S
C55 C56 1.335 . S
C56 C55 1.335 . S
C56 C57 1.388 1_565 S
C56 H78 0.930 1_565 S
C57 C52 1.382 1_545 S
C57 C56 1.388 1_545 S
C57 H79 0.940 . S
C58 O68 1.271 . S
C58 O69 1.251 . S
C59 O70 1.252 . S
C59 O71 1.272 . S
O60 Sm40 2.543 1_655 S
O60 C42 1.261 . S
O61 Sm40 2.450 1_655 S
O61 C42 1.242 . S
O62 Sm40 2.681 1_565 S
O62 Sm41 2.386 . S
O62 C49 1.271 1_455 S
O63 Sm40 2.464 1_665 S
O63 C49 1.251 . S
O64 Sm40 2.396 1_665 S
O64 C50 1.252 . S
O65 Sm41 2.408 1_655 S
O65 C50 1.272 . S
O66 Sm41 2.543 . S
O66 C51 1.261 . S
O67 Sm41 2.450 1_545 S
O67 C51 1.242 1_545 S
O68 Sm40 2.386 . S
O68 Sm41 2.681 1_545 S
O68 C58 1.271 . S
O69 Sm41 2.464 1_545 S
O69 C58 1.251 . S
O70 Sm41 2.396 1_545 S
O70 C59 1.252 . S
O71 Sm40 2.408 . S
O71 C59 1.272 . S
H72 C44 0.930 . S
H73 C45 0.929 . S
H74 C47 0.930 . S
H75 C48 0.929 . S
H76 C53 0.930 . S
H77 C54 0.929 . S
H78 C56 0.930 1_545 S
H79 C57 0.940 . S
Zn80 O86 1.920 . S
Zn80 O92 1.898 . S
Zn80 O95 1.905 . S
Zn81 O89 1.905 . S
Zn81 O90 1.898 . S
Zn81 O98 1.920 . S
Zn82 O85 2.080 . S
Zn82 O88 2.114 . S
Zn82 O91 2.120 . S
Zn82 O93 2.120 . S
Zn82 O94 2.114 . S
Zn82 O97 2.080 . S
C83 O88 1.166 . S
C83 O89 1.182 . S
C84 O90 1.167 . S
C84 O91 1.299 . S
O85 Zn82 2.080 . S
O85 C99 1.305 . S
O86 Zn80 1.920 . S
O86 C99 1.234 . S
C87 O92 1.167 . S
C87 O93 1.299 . S
O88 Zn82 2.114 . S
O88 C83 1.166 . S
O89 Zn81 1.905 . S
O89 C83 1.182 . S
O90 Zn81 1.898 . S
O90 C84 1.167 . S
O91 Zn82 2.120 . S
O91 C84 1.299 . S
O92 Zn80 1.898 . S
O92 C87 1.167 . S
O93 Zn82 2.120 . S
O93 C87 1.299 . S
O94 Zn82 2.114 . S
O94 C96 1.166 . S
O95 Zn80 1.905 . S
O95 C96 1.182 . S
C96 O94 1.166 . S
C96 O95 1.182 . S
O97 Zn82 2.080 . S
O97 C100 1.305 . S
O98 Zn81 1.920 . S
O98 C100 1.234 . S
C99 O85 1.305 . S
C99 O86 1.234 . S
C100 O97 1.305 . S
C100 O98 1.234 . S
Zn101 O107 1.920 . S
Zn101 O113 1.898 . S
Zn101 O116 1.905 . S
Zn102 O110 1.905 . S
Zn102 O111 1.898 . S
Zn102 O119 1.920 . S
Zn103 O106 2.080 . S
Zn103 O109 2.114 . S
Zn103 O112 2.120 . S
Zn103 O114 2.120 . S
Zn103 O115 2.114 . S
Zn103 O118 2.080 . S
C104 O109 1.166 . S
C104 O110 1.182 . S
C105 O111 1.167 . S
C105 O112 1.299 . S
O106 Zn103 2.080 . S
O106 C120 1.305 . S
O107 Zn101 1.920 . S
O107 C120 1.234 . S
C108 O113 1.167 . S
C108 O114 1.299 . S
O109 Zn103 2.114 . S
O109 C104 1.166 . S
O110 Zn102 1.905 . S
O110 C104 1.182 . S
O111 Zn102 1.898 . S
O111 C105 1.167 . S
O112 Zn103 2.120 . S
O112 C105 1.299 . S
O113 Zn101 1.898 . S
O113 C108 1.167 . S
O114 Zn103 2.120 . S
O114 C108 1.299 . S
O115 Zn103 2.114 . S
O115 C117 1.166 . S
O116 Zn101 1.905 . S
O116 C117 1.182 . S
C117 O115 1.166 . S
C117 O116 1.182 . S
O118 Zn103 2.080 . S
O118 C121 1.305 . S
O119 Zn102 1.920 . S
O119 C121 1.234 . S
C120 O106 1.305 . S
C120 O107 1.234 . S
C121 O118 1.305 . S
C121 O119 1.234 . S
C122 C123 1.391 . S
C122 C124 1.394 . S
C122 H138 0.931 . S
C123 C122 1.391 . S
C123 C127 1.376 . S
C124 C122 1.394 . S
C124 C125 1.369 . S
C124 C128 1.531 . S
C125 C124 1.369 . S
C125 C126 1.410 . S
C125 C133 1.503 . S
C126 C125 1.410 . S
C126 C127 1.392 . S
C126 C129 1.511 . S
C127 C123 1.376 . S
C127 C126 1.392 . S
C127 H139 0.929 . S
C128 C124 1.531 . S
C128 H140 0.960 . S
C128 H141 0.962 . S
C128 H142 0.960 . S
C129 C126 1.511 . S
C129 H143 0.961 . S
C129 H144 0.961 . S
C129 H145 0.961 . S
C130 C131 1.370 . S
C130 C132 1.363 . S
C130 H146 0.931 . S
C131 C130 1.370 . S
C131 C135 1.408 . S
C132 C130 1.363 . S
C132 C133 1.370 . S
C132 C136 1.524 . S
C133 C125 1.503 . S
C133 C132 1.370 . S
C133 C134 1.403 . S
C134 C133 1.403 . S
C134 C135 1.404 . S
C134 C137 1.539 . S
C135 C131 1.408 . S
C135 C134 1.404 . S
C135 H147 0.930 . S
C136 C132 1.524 . S
C136 H148 0.956 . S
C136 H149 0.961 . S
C136 H150 0.961 . S
C137 C134 1.539 . S
C137 H151 0.958 . S
C137 H152 0.961 . S
C137 H153 0.960 . S
H138 C122 0.931 . S
H139 C127 0.929 . S
H140 C128 0.960 . S
H141 C128 0.962 . S
H142 C128 0.960 . S
H143 C129 0.961 . S
H144 C129 0.961 . S
H145 C129 0.961 . S
H146 C130 0.931 . S
H147 C135 0.930 . S
H148 C136 0.956 . S
H149 C136 0.961 . S
H150 C136 0.961 . S
H151 C137 0.958 . S
H152 C137 0.961 . S
H153 C137 0.960 . S
C154 C155 1.391 . S
C154 C156 1.394 . S
C154 H170 0.931 . S
C155 C154 1.391 . S
C155 C159 1.376 . S
C156 C154 1.394 . S
C156 C157 1.369 . S
C156 C160 1.531 . S
C157 C156 1.369 . S
C157 C158 1.410 . S
C157 C165 1.503 . S
C158 C157 1.410 . S
C158 C159 1.392 . S
C158 C161 1.511 . S
C159 C155 1.376 . S
C159 C158 1.392 . S
C159 H171 0.929 . S
C160 C156 1.531 . S
C160 H172 0.960 . S
C160 H173 0.962 . S
C160 H174 0.960 . S
C161 C158 1.511 . S
C161 H175 0.961 . S
C161 H176 0.961 . S
C161 H177 0.961 . S
C162 C163 1.370 . S
C162 C164 1.363 . S
C162 H178 0.931 . S
C163 C162 1.370 . S
C163 C167 1.408 . S
C164 C162 1.363 . S
C164 C165 1.370 . S
C164 C168 1.524 . S
C165 C157 1.503 . S
C165 C164 1.370 . S
C165 C166 1.403 . S
C166 C165 1.403 . S
C166 C167 1.404 . S
C166 C169 1.539 . S
C167 C163 1.408 . S
C167 C166 1.404 . S
C167 H179 0.930 . S
C168 C164 1.524 . S
C168 H180 0.956 . S
C168 H181 0.961 . S
C168 H182 0.961 . S
C169 C166 1.539 . S
C169 H183 0.958 . S
C169 H184 0.961 . S
C169 H185 0.960 . S
H170 C154 0.931 . S
H171 C159 0.929 . S
H172 C160 0.960 . S
H173 C160 0.962 . S
H174 C160 0.960 . S
H175 C161 0.961 . S
H176 C161 0.961 . S
H177 C161 0.961 . S
H178 C162 0.931 . S
H179 C167 0.930 . S
H180 C168 0.956 . S
H181 C168 0.961 . S
H182 C168 0.961 . S
H183 C169 0.958 . S
H184 C169 0.961 . S
H185 C169 0.960 . S
C186 C187 1.391 . S
C186 C188 1.394 . S
C186 H202 0.931 . S
C187 C186 1.391 . S
C187 C191 1.376 . S
C188 C186 1.394 . S
C188 C189 1.369 . S
C188 C192 1.531 . S
C189 C188 1.369 . S
C189 C190 1.410 . S
C189 C197 1.503 . S
C190 C189 1.410 . S
C190 C191 1.392 . S
C190 C193 1.511 . S
C191 C187 1.376 . S
C191 C190 1.392 . S
C191 H203 0.929 . S
C192 C188 1.531 . S
C192 H204 0.960 . S
C192 H205 0.962 . S
C192 H206 0.960 . S
C193 C190 1.511 . S
C193 H207 0.961 . S
C193 H208 0.961 . S
C193 H209 0.961 . S
C194 C195 1.370 . S
C194 C196 1.363 . S
C194 H210 0.931 . S
C195 C194 1.370 . S
C195 C199 1.408 . S
C196 C194 1.363 . S
C196 C197 1.370 . S
C196 C200 1.524 . S
C197 C189 1.503 . S
C197 C196 1.370 . S
C197 C198 1.403 . S
C198 C197 1.403 . S
C198 C199 1.404 . S
C198 C201 1.539 . S
C199 C195 1.408 . S
C199 C198 1.404 . S
C199 H211 0.930 . S
C200 C196 1.524 . S
C200 H212 0.956 . S
C200 H213 0.961 . S
C200 H214 0.961 . S
C201 C198 1.539 . S
C201 H215 0.958 . S
C201 H216 0.961 . S
C201 H217 0.960 . S
H202 C186 0.931 . S
H203 C191 0.929 . S
H204 C192 0.960 . S
H205 C192 0.962 . S
H206 C192 0.960 . S
H207 C193 0.961 . S
H208 C193 0.961 . S
H209 C193 0.961 . S
H210 C194 0.931 . S
H211 C199 0.930 . S
H212 C200 0.956 . S
H213 C200 0.961 . S
H214 C200 0.961 . S
H215 C201 0.958 . S
H216 C201 0.961 . S
H217 C201 0.960 . S
C218 C219 1.391 . S
C218 C220 1.394 . S
C218 H234 0.931 . S
C219 C218 1.391 . S
C219 C223 1.376 . S
C220 C218 1.394 . S
C220 C221 1.369 . S
C220 C224 1.531 . S
C221 C220 1.369 . S
C221 C222 1.410 . S
C221 C229 1.503 . S
C222 C221 1.410 . S
C222 C223 1.392 . S
C222 C225 1.511 . S
C223 C219 1.376 . S
C223 C222 1.392 . S
C223 H235 0.929 . S
C224 C220 1.531 . S
C224 H236 0.960 . S
C224 H237 0.962 . S
C224 H238 0.960 . S
C225 C222 1.511 . S
C225 H239 0.961 . S
C225 H240 0.961 . S
C225 H241 0.961 . S
C226 C227 1.370 . S
C226 C228 1.363 . S
C226 H242 0.931 . S
C227 C226 1.370 . S
C227 C231 1.408 . S
C228 C226 1.363 . S
C228 C229 1.370 . S
C228 C232 1.524 . S
C229 C221 1.503 . S
C229 C228 1.370 . S
C229 C230 1.403 . S
C230 C229 1.403 . S
C230 C231 1.404 . S
C230 C233 1.539 . S
C231 C227 1.408 . S
C231 C230 1.404 . S
C231 H243 0.930 . S
C232 C228 1.524 . S
C232 H244 0.956 . S
C232 H245 0.961 . S
C232 H246 0.961 . S
C233 C230 1.539 . S
C233 H247 0.958 . S
C233 H248 0.961 . S
C233 H249 0.960 . S
H234 C218 0.931 . S
H235 C223 0.929 . S
H236 C224 0.960 . S
H237 C224 0.962 . S
H238 C224 0.960 . S
H239 C225 0.961 . S
H240 C225 0.961 . S
H241 C225 0.961 . S
H242 C226 0.931 . S
H243 C231 0.930 . S
H244 C232 0.956 . S
H245 C232 0.961 . S
H246 C232 0.961 . S
H247 C233 0.958 . S
H248 C233 0.961 . S
H249 C233 0.960 . S
C250 C251 1.391 . S
C250 C252 1.394 . S
C250 H266 0.931 . S
C251 C250 1.391 . S
C251 C255 1.376 . S
C252 C250 1.394 . S
C252 C253 1.369 . S
C252 C256 1.531 . S
C253 C252 1.369 . S
C253 C254 1.410 . S
C253 C261 1.503 . S
C254 C253 1.410 . S
C254 C255 1.392 . S
C254 C257 1.511 . S
C255 C251 1.376 . S
C255 C254 1.392 . S
C255 H267 0.929 . S
C256 C252 1.531 . S
C256 H268 0.960 . S
C256 H269 0.962 . S
C256 H270 0.960 . S
C257 C254 1.511 . S
C257 H271 0.961 . S
C257 H272 0.961 . S
C257 H273 0.961 . S
C258 C259 1.370 . S
C258 C260 1.363 . S
C258 H274 0.931 . S
C259 C258 1.370 . S
C259 C263 1.408 . S
C260 C258 1.363 . S
C260 C261 1.370 . S
C260 C264 1.524 . S
C261 C253 1.503 . S
C261 C260 1.370 . S
C261 C262 1.403 . S
C262 C261 1.403 . S
C262 C263 1.404 . S
C262 C265 1.539 . S
C263 C259 1.408 . S
C263 C262 1.404 . S
C263 H275 0.930 . S
C264 C260 1.524 . S
C264 H276 0.956 . S
C264 H277 0.961 . S
C264 H278 0.961 . S
C265 C262 1.539 . S
C265 H279 0.958 1_565 S
C265 H280 0.961 1_565 S
C265 H281 0.960 . S
H266 C250 0.931 . S
H267 C255 0.929 . S
H268 C256 0.960 . S
H269 C256 0.962 . S
H270 C256 0.960 . S
H271 C257 0.961 . S
H272 C257 0.961 . S
H273 C257 0.961 . S
H274 C258 0.931 . S
H275 C263 0.930 . S
H276 C264 0.956 . S
H277 C264 0.961 . S
H278 C264 0.961 . S
H279 C265 0.958 1_545 S
H280 C265 0.961 1_545 S
H281 C265 0.960 . S
C282 C283 1.391 . S
C282 C284 1.394 . S
C282 H298 0.931 . S
C283 C282 1.391 . S
C283 C287 1.376 . S
C284 C282 1.394 . S
C284 C285 1.369 . S
C284 C288 1.531 . S
C285 C284 1.369 . S
C285 C286 1.410 . S
C285 C293 1.503 . S
C286 C285 1.410 . S
C286 C287 1.392 . S
C286 C289 1.511 . S
C287 C283 1.376 . S
C287 C286 1.392 . S
C287 H299 0.929 . S
C288 C284 1.531 . S
C288 H300 0.960 . S
C288 H301 0.962 . S
C288 H302 0.960 . S
C289 C286 1.511 . S
C289 H303 0.961 . S
C289 H304 0.961 . S
C289 H305 0.961 . S
C290 C291 1.370 . S
C290 C292 1.363 . S
C290 H306 0.931 . S
C291 C290 1.370 . S
C291 C295 1.408 . S
C292 C290 1.363 . S
C292 C293 1.370 . S
C292 C296 1.524 . S
C293 C285 1.503 . S
C293 C292 1.370 . S
C293 C294 1.403 . S
C294 C293 1.403 . S
C294 C295 1.404 . S
C294 C297 1.539 . S
C295 C291 1.408 . S
C295 C294 1.404 . S
C295 H307 0.930 . S
C296 C292 1.524 . S
C296 H308 0.956 . S
C296 H309 0.961 . S
C296 H310 0.961 . S
C297 C294 1.539 . S
C297 H311 0.958 . S
C297 H312 0.961 . S
C297 H313 0.960 . S
H298 C282 0.931 . S
H299 C287 0.929 . S
H300 C288 0.960 . S
H301 C288 0.962 . S
H302 C288 0.960 . S
H303 C289 0.961 . S
H304 C289 0.961 . S
H305 C289 0.961 . S
H306 C290 0.931 . S
H307 C295 0.930 . S
H308 C296 0.956 . S
H309 C296 0.961 . S
H310 C296 0.961 . S
H311 C297 0.958 . S
H312 C297 0.961 . S
H313 C297 0.960 . S
C314 C315 1.391 . S
C314 C316 1.394 . S
C314 H330 0.931 . S
C315 C314 1.391 . S
C315 C319 1.376 . S
C316 C314 1.394 . S
C316 C317 1.369 . S
C316 C320 1.531 . S
C317 C316 1.369 . S
C317 C318 1.410 . S
C317 C325 1.503 . S
C318 C317 1.410 . S
C318 C319 1.392 . S
C318 C321 1.511 . S
C319 C315 1.376 . S
C319 C318 1.392 . S
C319 H331 0.929 . S
C320 C316 1.531 . S
C320 H332 0.960 . S
C320 H333 0.962 . S
C320 H334 0.960 . S
C321 C318 1.511 . S
C321 H335 0.961 . S
C321 H336 0.961 . S
C321 H337 0.961 . S
C322 C323 1.370 . S
C322 C324 1.363 . S
C322 H338 0.931 . S
C323 C322 1.370 . S
C323 C327 1.408 . S
C324 C322 1.363 . S
C324 C325 1.370 . S
C324 C328 1.524 . S
C325 C317 1.503 . S
C325 C324 1.370 . S
C325 C326 1.403 . S
C326 C325 1.403 . S
C326 C327 1.404 . S
C326 C329 1.539 . S
C327 C323 1.408 . S
C327 C326 1.404 . S
C327 H339 0.930 . S
C328 C324 1.524 . S
C328 H340 0.956 . S
C328 H341 0.961 . S
C328 H342 0.961 . S
C329 C326 1.539 . S
C329 H343 0.958 . S
C329 H344 0.961 . S
C329 H345 0.960 . S
H330 C314 0.931 . S
H331 C319 0.929 . S
H332 C320 0.960 . S
H333 C320 0.962 . S
H334 C320 0.960 . S
H335 C321 0.961 . S
H336 C321 0.961 . S
H337 C321 0.961 . S
H338 C322 0.931 . S
H339 C327 0.930 . S
H340 C328 0.956 . S
H341 C328 0.961 . S
H342 C328 0.961 . S
H343 C329 0.958 . S
H344 C329 0.961 . S
H345 C329 0.960 . S
C346 C347 1.391 . S
C346 C348 1.394 . S
C346 H362 0.931 . S
C347 C346 1.391 . S
C347 C351 1.376 . S
C348 C346 1.394 . S
C348 C349 1.369 . S
C348 C352 1.531 . S
C349 C348 1.369 . S
C349 C350 1.410 . S
C349 C357 1.503 . S
C350 C349 1.410 . S
C350 C351 1.392 . S
C350 C353 1.511 . S
C351 C347 1.376 . S
C351 C350 1.392 . S
C351 H363 0.929 . S
C352 C348 1.531 . S
C352 H364 0.960 . S
C352 H365 0.962 . S
C352 H366 0.960 . S
C353 C350 1.511 . S
C353 H367 0.961 . S
C353 H368 0.961 . S
C353 H369 0.961 . S
C354 C355 1.370 . S
C354 C356 1.363 . S
C354 H370 0.931 . S
C355 C354 1.370 . S
C355 C359 1.408 . S
C356 C354 1.363 . S
C356 C357 1.370 . S
C356 C360 1.524 . S
C357 C349 1.503 . S
C357 C356 1.370 . S
C357 C358 1.403 . S
C358 C357 1.403 . S
C358 C359 1.404 . S
C358 C361 1.539 . S
C359 C355 1.408 . S
C359 C358 1.404 . S
C359 H371 0.930 . S
C360 C356 1.524 . S
C360 H372 0.956 . S
C360 H373 0.961 . S
C360 H374 0.961 . S
C361 C358 1.539 . S
C361 H375 0.958 . S
C361 H376 0.961 . S
C361 H377 0.960 . S
H362 C346 0.931 . S
H363 C351 0.929 . S
H364 C352 0.960 . S
H365 C352 0.962 . S
H366 C352 0.960 . S
H367 C353 0.961 . S
H368 C353 0.961 . S
H369 C353 0.961 . S
H370 C354 0.931 . S
H371 C359 0.930 . S
H372 C360 0.956 . S
H373 C360 0.961 . S
H374 C360 0.961 . S
H375 C361 0.958 . S
H376 C361 0.961 . S
H377 C361 0.960 . S
C378 C379 1.391 . S
C378 C380 1.394 . S
C378 H394 0.931 . S
C379 C378 1.391 . S
C379 C383 1.376 . S
C380 C378 1.394 . S
C380 C381 1.369 . S
C380 C384 1.531 . S
C381 C380 1.369 . S
C381 C382 1.410 . S
C381 C389 1.503 . S
C382 C381 1.410 . S
C382 C383 1.392 . S
C382 C385 1.511 . S
C383 C379 1.376 . S
C383 C382 1.392 . S
C383 H395 0.929 . S
C384 C380 1.531 . S
C384 H396 0.960 . S
C384 H397 0.962 . S
C384 H398 0.960 . S
C385 C382 1.511 . S
C385 H399 0.961 . S
C385 H400 0.961 . S
C385 H401 0.961 . S
C386 C387 1.370 . S
C386 C388 1.363 . S
C386 H402 0.931 . S
C387 C386 1.370 . S
C387 C391 1.408 . S
C388 C386 1.363 . S
C388 C389 1.370 . S
C388 C392 1.524 . S
C389 C381 1.503 . S
C389 C388 1.370 . S
C389 C390 1.403 . S
C390 C389 1.403 . S
C390 C391 1.404 . S
C390 C393 1.539 . S
C391 C387 1.408 . S
C391 C390 1.404 . S
C391 H403 0.930 . S
C392 C388 1.524 . S
C392 H404 0.956 . S
C392 H405 0.961 . S
C392 H406 0.961 . S
C393 C390 1.539 . S
C393 H407 0.958 . S
C393 H408 0.961 . S
C393 H409 0.960 . S
H394 C378 0.931 . S
H395 C383 0.929 . S
H396 C384 0.960 . S
H397 C384 0.962 . S
H398 C384 0.960 . S
H399 C385 0.961 . S
H400 C385 0.961 . S
H401 C385 0.961 . S
H402 C386 0.931 . S
H403 C391 0.930 . S
H404 C392 0.956 . S
H405 C392 0.961 . S
H406 C392 0.961 . S
H407 C393 0.958 . S
H408 C393 0.961 . S
H409 C393 0.960 . S
C410 C411 1.391 . S
C410 C412 1.394 . S
C410 H426 0.931 . S
C411 C410 1.391 . S
C411 C415 1.376 . S
C412 C410 1.394 . S
C412 C413 1.369 . S
C412 C416 1.531 . S
C413 C412 1.369 . S
C413 C414 1.410 . S
C413 C421 1.503 . S
C414 C413 1.410 . S
C414 C415 1.392 . S
C414 C417 1.511 . S
C415 C411 1.376 . S
C415 C414 1.392 . S
C415 H427 0.929 1_655 S
C416 C412 1.531 . S
C416 H428 0.960 . S
C416 H429 0.962 . S
C416 H430 0.960 . S
C417 C414 1.511 . S
C417 H431 0.961 . S
C417 H432 0.961 . S
C417 H433 0.961 . S
C418 C419 1.370 . S
C418 C420 1.363 . S
C418 H434 0.931 . S
C419 C418 1.370 . S
C419 C423 1.408 . S
C420 C418 1.363 . S
C420 C421 1.370 . S
C420 C424 1.524 . S
C421 C413 1.503 . S
C421 C420 1.370 . S
C421 C422 1.403 . S
C422 C421 1.403 . S
C422 C423 1.404 . S
C422 C425 1.539 . S
C423 C419 1.408 . S
C423 C422 1.404 . S
C423 H435 0.930 . S
C424 C420 1.524 . S
C424 H436 0.956 . S
C424 H437 0.961 . S
C424 H438 0.961 . S
C425 C422 1.539 . S
C425 H439 0.958 . S
C425 H440 0.961 . S
C425 H441 0.960 . S
H426 C410 0.931 . S
H427 C415 0.929 1_455 S
H428 C416 0.960 . S
H429 C416 0.962 . S
H430 C416 0.960 . S
H431 C417 0.961 . S
H432 C417 0.961 . S
H433 C417 0.961 . S
H434 C418 0.931 . S
H435 C423 0.930 . S
H436 C424 0.956 . S
H437 C424 0.961 . S
H438 C424 0.961 . S
H439 C425 0.958 . S
H440 C425 0.961 . S
H441 C425 0.960 . S
C442 C443 1.391 . S
C442 C444 1.394 . S
C442 H458 0.931 . S
C443 C442 1.391 . S
C443 C447 1.376 . S
C444 C442 1.394 . S
C444 C445 1.369 . S
C444 C448 1.531 . S
C445 C444 1.369 . S
C445 C446 1.410 . S
C445 C453 1.503 . S
C446 C445 1.410 . S
C446 C447 1.392 . S
C446 C449 1.511 . S
C447 C443 1.376 . S
C447 C446 1.392 . S
C447 H459 0.929 . S
C448 C444 1.531 . S
C448 H460 0.960 . S
C448 H461 0.962 . S
C448 H462 0.960 . S
C449 C446 1.511 . S
C449 H463 0.961 . S
C449 H464 0.961 . S
C449 H465 0.961 . S
C450 C451 1.370 . S
C450 C452 1.363 . S
C450 H466 0.931 . S
C451 C450 1.370 . S
C451 C455 1.408 . S
C452 C450 1.363 . S
C452 C453 1.370 . S
C452 C456 1.524 . S
C453 C445 1.503 . S
C453 C452 1.370 . S
C453 C454 1.403 . S
C454 C453 1.403 . S
C454 C455 1.404 . S
C454 C457 1.539 . S
C455 C451 1.408 . S
C455 C454 1.404 . S
C455 H467 0.930 . S
C456 C452 1.524 . S
C456 H468 0.956 . S
C456 H469 0.961 . S
C456 H470 0.961 . S
C457 C454 1.539 . S
C457 H471 0.958 . S
C457 H472 0.961 . S
C457 H473 0.960 . S
H458 C442 0.931 . S
H459 C447 0.929 . S
H460 C448 0.960 . S
H461 C448 0.962 . S
H462 C448 0.960 . S
H463 C449 0.961 . S
H464 C449 0.961 . S
H465 C449 0.961 . S
H466 C450 0.931 . S
H467 C455 0.930 . S
H468 C456 0.956 . S
H469 C456 0.961 . S
H470 C456 0.961 . S
H471 C457 0.958 . S
H472 C457 0.961 . S
H473 C457 0.960 . S
C474 C475 1.391 . S
C474 C476 1.394 . S
C474 H490 0.931 . S
C475 C474 1.391 . S
C475 C479 1.376 . S
C476 C474 1.394 . S
C476 C477 1.369 . S
C476 C480 1.531 . S
C477 C476 1.369 . S
C477 C478 1.410 . S
C477 C485 1.503 . S
C478 C477 1.410 . S
C478 C479 1.392 . S
C478 C481 1.511 . S
C479 C475 1.376 . S
C479 C478 1.392 . S
C479 H491 0.929 . S
C480 C476 1.531 . S
C480 H492 0.960 . S
C480 H493 0.962 . S
C480 H494 0.960 . S
C481 C478 1.511 . S
C481 H495 0.961 . S
C481 H496 0.961 . S
C481 H497 0.961 . S
C482 C483 1.370 . S
C482 C484 1.363 . S
C482 H498 0.931 . S
C483 C482 1.370 . S
C483 C487 1.408 . S
C484 C482 1.363 . S
C484 C485 1.370 . S
C484 C488 1.524 . S
C485 C477 1.503 . S
C485 C484 1.370 . S
C485 C486 1.403 . S
C486 C485 1.403 . S
C486 C487 1.404 . S
C486 C489 1.539 . S
C487 C483 1.408 . S
C487 C486 1.404 . S
C487 H499 0.930 . S
C488 C484 1.524 . S
C488 H500 0.956 . S
C488 H501 0.961 . S
C488 H502 0.961 . S
C489 C486 1.539 . S
C489 H503 0.958 . S
C489 H504 0.961 . S
C489 H505 0.960 . S
H490 C474 0.931 . S
H491 C479 0.929 . S
H492 C480 0.960 . S
H493 C480 0.962 . S
H494 C480 0.960 . S
H495 C481 0.961 . S
H496 C481 0.961 . S
H497 C481 0.961 . S
H498 C482 0.931 . S
H499 C487 0.930 . S
H500 C488 0.956 . S
H501 C488 0.961 . S
H502 C488 0.961 . S
H503 C489 0.958 . S
H504 C489 0.961 . S
H505 C489 0.960 . S
C123 C19 1.886 . S
C131 C99 1.824 . S
C155 C59 1.189 . S
C163 C105 1.107 . S
C187 C6 0.879 . S
C195 C96 0.885 . S
C219 C46 1.429 . S
C227 C121 1.268 . S
C251 C9 2.078 . S
C259 C87 2.003 . S
C291 C104 2.283 . S
C283 C49 2.322 . S
C315 C55 1.265 . S
C323 C100 1.158 . S
C355 C117 1.754 . S
C347 C18 1.840 . S
C387 C84 2.087 . S
C379 C58 2.178 . S
C419 C120 2.032 . S
C411 C10 2.094 . S
C451 C83 1.366 . S
C443 C50 1.426 . S
C483 C108 0.867 . S
C475 C15 0.853 . S
