# Generated by pormake.
# Topology eea, (3,6)-cn, num edge types: 1
# Building blocks:
#     Node 0, Type 0, BuildingBlock: WUSLED_clean_sbu_0, # of connection points: 3
#     Node 1, Type 0, BuildingBlock: WUSLED_clean_sbu_0, # of connection points: 3
#     Node 2, Type 0, BuildingBlock: WUSLED_clean_sbu_0, # of connection points: 3
#     Node 3, Type 0, BuildingBlock: WUSLED_clean_sbu_0, # of connection points: 3
#     Node 4, Type 0, BuildingBlock: WUSLED_clean_sbu_0, # of connection points: 3
#     Node 5, Type 0, BuildingBlock: WUSLED_clean_sbu_0, # of connection points: 3
#     Node 6, Type 0, BuildingBlock: WUSLED_clean_sbu_0, # of connection points: 3
#     Node 7, Type 0, BuildingBlock: WUSLED_clean_sbu_0, # of connection points: 3
#     Node 8, Type 0, BuildingBlock: WUSLED_clean_sbu_0, # of connection points: 3
#     Node 9, Type 0, BuildingBlock: WUSLED_clean_sbu_0, # of connection points: 3
#     Node 10, Type 0, BuildingBlock: WUSLED_clean_sbu_0, # of connection points: 3
#     Node 11, Type 0, BuildingBlock: WUSLED_clean_sbu_0, # of connection points: 3
#     Node 12, Type 0, BuildingBlock: WUSLED_clean_sbu_0, # of connection points: 3
#     Node 13, Type 0, BuildingBlock: WUSLED_clean_sbu_0, # of connection points: 3
#     Node 14, Type 0, BuildingBlock: WUSLED_clean_sbu_0, # of connection points: 3
#     Node 15, Type 0, BuildingBlock: WUSLED_clean_sbu_0, # of connection points: 3
#     Node 16, Type 0, BuildingBlock: WUSLED_clean_sbu_0, # of connection points: 3
#     Node 17, Type 0, BuildingBlock: WUSLED_clean_sbu_0, # of connection points: 3
#     Node 18, Type 1, BuildingBlock: KUMJIN_clean_sbu_0, # of connection points: 6
#     Node 19, Type 1, BuildingBlock: KUMJIN_clean_sbu_0, # of connection points: 6
#     Node 20, Type 1, BuildingBlock: KUMJIN_clean_sbu_0, # of connection points: 6
#     Node 21, Type 1, BuildingBlock: KUMJIN_clean_sbu_0, # of connection points: 6
#     Node 22, Type 1, BuildingBlock: KUMJIN_clean_sbu_0, # of connection points: 6
#     Node 23, Type 1, BuildingBlock: KUMJIN_clean_sbu_0, # of connection points: 6
#     Node 24, Type 1, BuildingBlock: KUMJIN_clean_sbu_0, # of connection points: 6
#     Node 25, Type 1, BuildingBlock: KUMJIN_clean_sbu_0, # of connection points: 6
#     Node 26, Type 1, BuildingBlock: KUMJIN_clean_sbu_0, # of connection points: 6
#     Edge 27, Type (0, 1), BuildingBlock: XIVTED_clean_linker_0, # of connection points: 2
#     Edge 28, Type (0, 1), BuildingBlock: XIVTED_clean_linker_0, # of connection points: 2
#     Edge 29, Type (0, 1), BuildingBlock: XIVTED_clean_linker_0, # of connection points: 2
#     Edge 30, Type (0, 1), BuildingBlock: XIVTED_clean_linker_0, # of connection points: 2
#     Edge 31, Type (0, 1), BuildingBlock: XIVTED_clean_linker_0, # of connection points: 2
#     Edge 32, Type (0, 1), BuildingBlock: XIVTED_clean_linker_0, # of connection points: 2
#     Edge 33, Type (0, 1), BuildingBlock: XIVTED_clean_linker_0, # of connection points: 2
#     Edge 34, Type (0, 1), BuildingBlock: XIVTED_clean_linker_0, # of connection points: 2
#     Edge 35, Type (0, 1), BuildingBlock: XIVTED_clean_linker_0, # of connection points: 2
#     Edge 36, Type (0, 1), BuildingBlock: XIVTED_clean_linker_0, # of connection points: 2
#     Edge 37, Type (0, 1), BuildingBlock: XIVTED_clean_linker_0, # of connection points: 2
#     Edge 38, Type (0, 1), BuildingBlock: XIVTED_clean_linker_0, # of connection points: 2
#     Edge 39, Type (0, 1), BuildingBlock: XIVTED_clean_linker_0, # of connection points: 2
#     Edge 40, Type (0, 1), BuildingBlock: XIVTED_clean_linker_0, # of connection points: 2
#     Edge 41, Type (0, 1), BuildingBlock: XIVTED_clean_linker_0, # of connection points: 2
#     Edge 42, Type (0, 1), BuildingBlock: XIVTED_clean_linker_0, # of connection points: 2
#     Edge 43, Type (0, 1), BuildingBlock: XIVTED_clean_linker_0, # of connection points: 2
#     Edge 44, Type (0, 1), BuildingBlock: XIVTED_clean_linker_0, # of connection points: 2
#     Edge 45, Type (0, 1), BuildingBlock: XIVTED_clean_linker_0, # of connection points: 2
#     Edge 46, Type (0, 1), BuildingBlock: XIVTED_clean_linker_0, # of connection points: 2
#     Edge 47, Type (0, 1), BuildingBlock: XIVTED_clean_linker_0, # of connection points: 2
#     Edge 48, Type (0, 1), BuildingBlock: XIVTED_clean_linker_0, # of connection points: 2
#     Edge 49, Type (0, 1), BuildingBlock: XIVTED_clean_linker_0, # of connection points: 2
#     Edge 50, Type (0, 1), BuildingBlock: XIVTED_clean_linker_0, # of connection points: 2
#     Edge 51, Type (0, 1), BuildingBlock: XIVTED_clean_linker_0, # of connection points: 2
#     Edge 52, Type (0, 1), BuildingBlock: XIVTED_clean_linker_0, # of connection points: 2
#     Edge 53, Type (0, 1), BuildingBlock: XIVTED_clean_linker_0, # of connection points: 2
#     Edge 54, Type (0, 1), BuildingBlock: XIVTED_clean_linker_0, # of connection points: 2
#     Edge 55, Type (0, 1), BuildingBlock: XIVTED_clean_linker_0, # of connection points: 2
#     Edge 56, Type (0, 1), BuildingBlock: XIVTED_clean_linker_0, # of connection points: 2
#     Edge 57, Type (0, 1), BuildingBlock: XIVTED_clean_linker_0, # of connection points: 2
#     Edge 58, Type (0, 1), BuildingBlock: XIVTED_clean_linker_0, # of connection points: 2
#     Edge 59, Type (0, 1), BuildingBlock: XIVTED_clean_linker_0, # of connection points: 2
#     Edge 60, Type (0, 1), BuildingBlock: XIVTED_clean_linker_0, # of connection points: 2
#     Edge 61, Type (0, 1), BuildingBlock: XIVTED_clean_linker_0, # of connection points: 2
#     Edge 62, Type (0, 1), BuildingBlock: XIVTED_clean_linker_0, # of connection points: 2
#     Edge 63, Type (0, 1), BuildingBlock: XIVTED_clean_linker_0, # of connection points: 2
#     Edge 64, Type (0, 1), BuildingBlock: XIVTED_clean_linker_0, # of connection points: 2
#     Edge 65, Type (0, 1), BuildingBlock: XIVTED_clean_linker_0, # of connection points: 2
#     Edge 66, Type (0, 1), BuildingBlock: XIVTED_clean_linker_0, # of connection points: 2
#     Edge 67, Type (0, 1), BuildingBlock: XIVTED_clean_linker_0, # of connection points: 2
#     Edge 68, Type (0, 1), BuildingBlock: XIVTED_clean_linker_0, # of connection points: 2
#     Edge 69, Type (0, 1), BuildingBlock: XIVTED_clean_linker_0, # of connection points: 2
#     Edge 70, Type (0, 1), BuildingBlock: XIVTED_clean_linker_0, # of connection points: 2
#     Edge 71, Type (0, 1), BuildingBlock: XIVTED_clean_linker_0, # of connection points: 2
#     Edge 72, Type (0, 1), BuildingBlock: XIVTED_clean_linker_0, # of connection points: 2
#     Edge 73, Type (0, 1), BuildingBlock: XIVTED_clean_linker_0, # of connection points: 2
#     Edge 74, Type (0, 1), BuildingBlock: XIVTED_clean_linker_0, # of connection points: 2
#     Edge 75, Type (0, 1), BuildingBlock: XIVTED_clean_linker_0, # of connection points: 2
#     Edge 76, Type (0, 1), BuildingBlock: XIVTED_clean_linker_0, # of connection points: 2
#     Edge 77, Type (0, 1), BuildingBlock: XIVTED_clean_linker_0, # of connection points: 2
#     Edge 78, Type (0, 1), BuildingBlock: XIVTED_clean_linker_0, # of connection points: 2
#     Edge 79, Type (0, 1), BuildingBlock: XIVTED_clean_linker_0, # of connection points: 2
#     Edge 80, Type (0, 1), BuildingBlock: XIVTED_clean_linker_0, # of connection points: 2
# Relax obj value: 0.009
# Max RMSD: 0.093
# Mean RMSD: 0.061
data_MOF--net-eea--node1-WUSLED_clean_sbu_0--node2-KUMJIN_clean_sbu_0--edge1-XIVTED_clean_linker_0
_symmetry_space_group_name_H-M    P1
_symmetry_Int_Tables_number       1
_symmetry_cell_setting            triclinic
loop_
_symmetry_equiv_pos_as_xyz
'x, y, z'
_cell_length_a     67.1604
_cell_length_b     68.569995
_cell_length_c     91.295458
_cell_angle_alpha  89.74257
_cell_angle_beta   89.987523
_cell_angle_gamma 120.02203
loop_
_atom_site_label
_atom_site_type_symbol
_atom_site_fract_x
_atom_site_fract_y
_atom_site_fract_z
_atom_type_partial_charge
C0 C 0.22046 0.15325 0.41134 0.0
C1 C 0.23771 0.17601 0.41215 0.0
C2 C 0.21224 0.18749 0.40082 0.0
C3 C 0.23367 0.19292 0.4069 0.0
C4 C 0.19488 0.16469 0.40032 0.0
C5 C 0.19899 0.14778 0.40547 0.0
U6 U 0.24135 0.1248 0.4389 0.0
O7 O 0.22691 0.08896 0.44435 0.0
O8 O 0.26167 0.10817 0.435 0.0
C9 C 0.2447 0.08827 0.43892 0.0
C10 C 0.22468 0.13494 0.41595 0.0
C11 C 0.23982 0.06942 0.42897 0.0
C12 C 0.21325 0.03614 0.41514 0.0
C13 C 0.21761 0.0549 0.42355 0.0
C14 C 0.25332 0.04655 0.41701 0.0
C15 C 0.231 0.03153 0.41197 0.0
C16 C 0.25763 0.06519 0.42546 0.0
C17 C 0.26536 0.15162 0.47627 0.0
C18 C 0.29432 0.14978 0.49131 0.0
C19 C 0.26583 0.15662 0.50267 0.0
C20 C 0.25609 0.15555 0.48894 0.0
C21 C 0.28521 0.15394 0.50404 0.0
C22 C 0.28447 0.14854 0.4776 0.0
C23 C 0.25513 0.15124 0.46186 0.0
O24 O 0.24632 0.14017 0.41708 0.0
O25 O 0.21166 0.12188 0.42666 0.0
O26 O 0.2337 0.13517 0.46002 0.0
O27 O 0.26815 0.15456 0.45029 0.0
H28 H 0.25446 0.18077 0.41663 0.0
H29 H 0.24756 0.21023 0.40731 0.0
H30 H 0.17804 0.15984 0.39598 0.0
H31 H 0.18541 0.13035 0.40476 0.0
H32 H 0.19583 0.02486 0.41155 0.0
H33 H 0.20349 0.05772 0.42606 0.0
H34 H 0.2675 0.04379 0.41456 0.0
H35 H 0.2749 0.07613 0.42948 0.0
H36 H 0.30939 0.14792 0.49187 0.0
H37 H 0.25805 0.15944 0.51222 0.0
H38 H 0.2413 0.15787 0.4882 0.0
H39 H 0.29197 0.14542 0.46803 0.0
C40 C 0.95163 0.15804 0.4083 0.0
C41 C 0.95086 0.17385 0.3988 0.0
C42 C 0.99272 0.19457 0.39666 0.0
C43 C 0.97111 0.19192 0.39312 0.0
C44 C 0.9935 0.17868 0.4061 0.0
C45 C 0.97323 0.16063 0.41183 0.0
U46 U 0.904 0.12621 0.43735 0.0
O47 O 0.8665 0.1059 0.43455 0.0
O48 O 0.88554 0.09023 0.44344 0.0
C49 C 0.86556 0.08722 0.43905 0.0
C50 C 0.9299 0.13827 0.41367 0.0
C51 C 0.85125 0.06691 0.43028 0.0
C52 C 0.84149 0.04589 0.40745 0.0
C53 C 0.85609 0.06526 0.41552 0.0
C54 C 0.81733 0.02969 0.42886 0.0
C55 C 0.82176 0.02794 0.414 0.0
C56 C 0.8319 0.04894 0.43688 0.0
C57 C 0.90788 0.15506 0.47433 0.0
C58 C 0.88211 0.13753 0.49511 0.0
C59 C 0.90954 0.17754 0.49531 0.0
C60 C 0.91755 0.17583 0.48151 0.0
C61 C 0.89163 0.15846 0.50229 0.0
C62 C 0.89012 0.13587 0.48122 0.0
C63 C 0.91652 0.15406 0.45966 0.0
O64 O 0.9316 0.1262 0.42432 0.0
O65 O 0.91212 0.14123 0.41525 0.0
O66 O 0.9045 0.15484 0.44855 0.0
O67 O 0.92328 0.13923 0.4579 0.0
H68 H 0.93453 0.17215 0.39561 0.0
H69 H 0.96978 0.20359 0.3857 0.0
H70 H 1.00981 0.18028 0.40919 0.0
H71 H 0.97454 0.14866 0.41896 0.0
H72 H 0.84535 0.04518 0.39602 0.0
H73 H 0.87098 0.07901 0.41023 0.0
H74 H 0.8026 0.01609 0.43436 0.0
H75 H 0.82792 0.04985 0.44828 0.0
H76 H 0.86816 0.12254 0.50009 0.0
H77 H 0.91754 0.19384 0.50058 0.0
H78 H 0.93133 0.19083 0.4764 0.0
H79 H 0.88236 0.11967 0.47583 0.0
C80 C 0.86445 0.79926 0.40716 0.0
C81 C 0.86207 0.81754 0.41182 0.0
C82 C 0.82743 0.80456 0.39702 0.0
C83 C 0.84378 0.82013 0.40682 0.0
C84 C 0.82979 0.78625 0.39244 0.0
C85 C 0.84809 0.78371 0.39739 0.0
U86 U 0.89971 0.78423 0.434 0.0
O87 O 0.91867 0.76638 0.42937 0.0
O88 O 0.93714 0.80117 0.43736 0.0
C89 C 0.93873 0.78403 0.43238 0.0
C90 C 0.88466 0.7971 0.41141 0.0
C91 C 0.95756 0.78924 0.4219 0.0
C92 C 0.98371 0.81181 0.40228 0.0
C93 C 0.96484 0.80658 0.41142 0.0
C94 C 0.98784 0.78214 0.41375 0.0
C95 C 0.99556 0.79974 0.40339 0.0
C96 C 0.96909 0.77699 0.42287 0.0
C97 C 0.87587 0.76148 0.47304 0.0
C98 C 0.86612 0.72954 0.48928 0.0
C99 C 0.8811 0.76675 0.49949 0.0
C100 C 0.88264 0.77556 0.48538 0.0
C101 C 0.87257 0.74355 0.50167 0.0
C102 C 0.86769 0.73835 0.47518 0.0
C103 C 0.87521 0.77052 0.45828 0.0
O104 O 0.8987 0.81114 0.42131 0.0
O105 O 0.88098 0.7765 0.4131 0.0
O106 O 0.87183 0.75735 0.447 0.0
O107 O 0.89038 0.79175 0.45558 0.0
H108 H 0.87445 0.83001 0.41922 0.0
H109 H 0.84239 0.8343 0.41071 0.0
H110 H 0.81778 0.77412 0.38472 0.0
H111 H 0.84965 0.76969 0.39335 0.0
H112 H 0.98901 0.82531 0.39434 0.0
H113 H 0.95614 0.81622 0.41043 0.0
H114 H 0.99669 0.77271 0.41514 0.0
H115 H 0.96384 0.76362 0.43091 0.0
H116 H 0.85909 0.71155 0.49047 0.0
H117 H 0.8865 0.77813 0.50871 0.0
H118 H 0.88874 0.7934 0.48417 0.0
H119 H 0.86192 0.72687 0.46601 0.0
C120 C 0.07454 0.21379 0.63189 0.0
C121 C 0.06513 0.22571 0.62504 0.0
C122 C 0.03241 0.20911 0.64193 0.0
C123 C 0.04431 0.22343 0.63003 0.0
C124 C 0.04178 0.19691 0.64856 0.0
C125 C 0.06261 0.19927 0.64359 0.0
U126 U 0.12401 0.23016 0.60417 0.0
O127 O 0.16145 0.24927 0.60787 0.0
O128 O 0.14504 0.21426 0.60035 0.0
C129 C 0.16408 0.23197 0.60485 0.0
C130 C 0.09706 0.21676 0.6274 0.0
C131 C 0.17894 0.22794 0.61493 0.0
C132 C 0.18511 0.20573 0.63344 0.0
C133 C 0.17016 0.2095 0.62465 0.0
C134 C 0.21765 0.23893 0.62307 0.0
C135 C 0.20909 0.22039 0.63273 0.0
C136 C 0.20277 0.24262 0.61431 0.0
C137 C 0.1198 0.25119 0.56547 0.0
C138 C 0.14928 0.26367 0.54652 0.0
C139 C 0.11445 0.26501 0.54205 0.0
C140 C 0.10649 0.25625 0.55608 0.0
C141 C 0.13599 0.26891 0.53705 0.0
C142 C 0.14125 0.25489 0.5606 0.0
C143 C 0.111 0.24245 0.58031 0.0
O144 O 0.09664 0.20286 0.61738 0.0
O145 O 0.11365 0.23764 0.62531 0.0
O146 O 0.12185 0.25618 0.59119 0.0
O147 O 0.10578 0.22158 0.58303 0.0
H148 H 0.07399 0.23693 0.61593 0.0
H149 H 0.03747 0.23282 0.62451 0.0
H150 H 0.0333 0.18594 0.65783 0.0
H151 H 0.0696 0.18996 0.64906 0.0
H152 H 0.17788 0.19141 0.64084 0.0
H153 H 0.15182 0.19792 0.62537 0.0
H154 H 0.23597 0.25036 0.62198 0.0
H155 H 0.20996 0.25685 0.60682 0.0
H156 H 0.16581 0.2662 0.54303 0.0
H157 H 0.10388 0.26917 0.53525 0.0
H158 H 0.08993 0.25362 0.55966 0.0
H159 H 0.15179 0.25106 0.5677 0.0
C160 C 0.8028 0.86536 0.62911 0.0
C161 C 0.78572 0.84265 0.62756 0.0
C162 C 0.80997 0.83064 0.64005 0.0
C163 C 0.78924 0.82549 0.63302 0.0
C164 C 0.82715 0.85342 0.64132 0.0
C165 C 0.82355 0.87055 0.63595 0.0
U166 U 0.78285 0.89348 0.60069 0.0
O167 O 0.76394 0.91166 0.60381 0.0
O168 O 0.79861 0.92916 0.59425 0.0
C169 C 0.78112 0.93088 0.59908 0.0
C170 C 0.79921 0.88389 0.62405 0.0
C171 C 0.78688 0.95074 0.60808 0.0
C172 C 0.79913 0.97142 0.63099 0.0
C173 C 0.79427 0.95242 0.62264 0.0
C174 C 0.78943 0.98719 0.61023 0.0
C175 C 0.79658 0.98897 0.6249 0.0
C176 C 0.78462 0.96827 0.60194 0.0
C177 C 0.75772 0.86494 0.56384 0.0
C178 C 0.75938 0.86249 0.5373 0.0
C179 C 0.72709 0.86312 0.54856 0.0
C180 C 0.73671 0.86464 0.5624 0.0
C181 C 0.73824 0.86195 0.53581 0.0
C182 C 0.76893 0.86388 0.55115 0.0
C183 C 0.76788 0.86572 0.5784 0.0
O184 O 0.81228 0.89613 0.6131 0.0
O185 O 0.77775 0.87924 0.6229 0.0
O186 O 0.75517 0.86356 0.58993 0.0
O187 O 0.78959 0.88124 0.58003 0.0
H188 H 0.76954 0.83813 0.62229 0.0
H189 H 0.77549 0.80821 0.63198 0.0
H190 H 0.8435 0.85809 0.64638 0.0
H191 H 0.837 0.88794 0.63722 0.0
H192 H 0.80445 0.97218 0.64226 0.0
H193 H 0.79611 0.93899 0.62755 0.0
H194 H 0.78771 1.00053 0.60509 0.0
H195 H 0.77905 0.96731 0.5907 0.0
H196 H 0.76867 0.86197 0.52775 0.0
H197 H 0.71064 0.8624 0.54791 0.0
H198 H 0.72755 0.86536 0.57195 0.0
H199 H 0.78512 0.86406 0.55194 0.0
C200 C 0.07177 0.85728 0.6314 0.0
C201 C 0.06193 0.83617 0.62458 0.0
C202 C 0.03014 0.82075 0.64219 0.0
C203 C 0.04133 0.81808 0.62994 0.0
C204 C 0.03999 0.84208 0.64882 0.0
C205 C 0.06058 0.8601 0.64348 0.0
U206 U 0.12099 0.88809 0.60328 0.0
O207 O 0.14078 0.92421 0.59779 0.0
O208 O 0.15838 0.90738 0.60714 0.0
C209 C 0.16007 0.9266 0.60311 0.0
C210 C 0.09395 0.87638 0.62644 0.0
C211 C 0.1739 0.94627 0.61273 0.0
C212 C 0.18104 0.9812 0.62434 0.0
C213 C 0.16661 0.96162 0.61643 0.0
C214 C 0.21011 0.97024 0.62528 0.0
C215 C 0.20314 0.98594 0.62869 0.0
C216 C 0.19572 0.95075 0.61737 0.0
C217 C 0.11806 0.86021 0.56596 0.0
C218 C 0.14917 0.87338 0.54811 0.0
C219 C 0.11168 0.84182 0.54231 0.0
C220 C 0.10352 0.84363 0.55605 0.0
C221 C 0.13465 0.85659 0.53815 0.0
C222 C 0.14093 0.87519 0.56189 0.0
C223 C 0.109 0.86107 0.58054 0.0
O224 O 0.111 0.87228 0.62508 0.0
O225 O 0.09299 0.88858 0.61561 0.0
O226 O 0.10279 0.87631 0.58224 0.0
O227 O 0.12023 0.85953 0.59186 0.0
H228 H 0.07025 0.83365 0.6152 0.0
H229 H 0.03411 0.80202 0.62442 0.0
H230 H 0.03208 0.84475 0.65835 0.0
H231 H 0.06793 0.87625 0.64892 0.0
H232 H 0.17514 0.99296 0.62661 0.0
H233 H 0.14996 0.95882 0.61296 0.0
H234 H 0.22679 0.97305 0.62865 0.0
H235 H 0.20189 0.93933 0.61462 0.0
H236 H 0.16686 0.88521 0.54524 0.0
H237 H 0.10007 0.82847 0.53509 0.0
H238 H 0.08583 0.83185 0.55901 0.0
H239 H 0.15243 0.88816 0.56938 0.0
C240 C 0.889 0.48409 0.74368 0.0
C241 C 0.89156 0.50115 0.75325 0.0
C242 C 0.88198 0.51917 0.73352 0.0
C243 C 0.88807 0.51855 0.74821 0.0
C244 C 0.87961 0.50204 0.724 0.0
C245 C 0.88308 0.48469 0.72905 0.0
U246 U 0.90752 0.45532 0.77241 0.0
O247 O 0.89185 0.41946 0.77825 0.0
O248 O 0.92696 0.43757 0.76936 0.0
C249 C 0.90941 0.41799 0.77322 0.0
C250 C 0.89251 0.46561 0.74868 0.0
C251 C 0.90415 0.39883 0.76343 0.0
C252 C 0.87717 0.36577 0.74956 0.0
C253 C 0.88188 0.38462 0.75799 0.0
C254 C 0.91697 0.37531 0.75153 0.0
C255 C 0.8946 0.36071 0.74636 0.0
C256 C 0.92163 0.39405 0.76001 0.0
C257 C 0.93037 0.483 0.8097 0.0
C258 C 0.94324 0.4666 0.82849 0.0
C259 C 0.94552 0.50252 0.8327 0.0
C260 C 0.93618 0.50143 0.81884 0.0
C261 C 0.94923 0.48515 0.83772 0.0
C262 C 0.93388 0.46554 0.8146 0.0
C263 C 0.92096 0.48247 0.79505 0.0
O264 O 0.91403 0.47084 0.75049 0.0
O265 O 0.8789 0.45294 0.7593 0.0
O266 O 0.89951 0.46664 0.79297 0.0
O267 O 0.93452 0.48476 0.784 0.0
H268 H 0.89616 0.50095 0.7646 0.0
H269 H 0.88982 0.53132 0.75588 0.0
H270 H 0.87533 0.50216 0.71258 0.0
H271 H 0.88117 0.47173 0.72149 0.0
H272 H 0.8597 0.35481 0.74591 0.0
H273 H 0.86799 0.3878 0.76043 0.0
H274 H 0.93094 0.37224 0.74908 0.0
H275 H 0.93894 0.40472 0.76406 0.0
H276 H 0.94561 0.45281 0.83205 0.0
H277 H 0.95023 0.51721 0.83937 0.0
H278 H 0.93366 0.5151 0.8152 0.0
H279 H 0.92945 0.45114 0.80768 0.0
C280 C 0.61899 0.48935 0.74224 0.0
C281 C 0.62875 0.51039 0.74914 0.0
C282 C 0.66008 0.52631 0.73122 0.0
C283 C 0.64907 0.5287 0.74367 0.0
C284 C 0.65028 0.50507 0.72447 0.0
C285 C 0.62996 0.48682 0.72993 0.0
U286 U 0.57111 0.45889 0.77106 0.0
O287 O 0.53366 0.43875 0.768 0.0
O288 O 0.55229 0.423 0.77738 0.0
C289 C 0.53247 0.42005 0.7727 0.0
C290 C 0.59721 0.46999 0.74749 0.0
C291 C 0.51836 0.3997 0.7639 0.0
C292 C 0.50817 0.3792 0.74085 0.0
C293 C 0.52264 0.39858 0.74896 0.0
C294 C 0.48529 0.36189 0.7626 0.0
C295 C 0.48914 0.36068 0.74756 0.0
C296 C 0.49973 0.38117 0.77065 0.0
C297 C 0.57473 0.4883 0.80779 0.0
C298 C 0.54927 0.47102 0.82874 0.0
C299 C 0.57619 0.51115 0.82851 0.0
C300 C 0.58415 0.50924 0.81473 0.0
C301 C 0.55857 0.4921 0.8357 0.0
C302 C 0.55723 0.46915 0.81488 0.0
C303 C 0.5835 0.48704 0.7932 0.0
O304 O 0.59891 0.45844 0.75847 0.0
O305 O 0.57981 0.47354 0.7489 0.0
O306 O 0.5717 0.4878 0.78195 0.0
O307 O 0.59013 0.47208 0.79167 0.0
H308 H 0.6206 0.51267 0.75871 0.0
H309 H 0.65626 0.54468 0.74928 0.0
H310 H 0.65807 0.50262 0.71479 0.0
H311 H 0.62266 0.47073 0.72442 0.0
H312 H 0.51157 0.37892 0.72929 0.0
H313 H 0.53695 0.41276 0.74354 0.0
H314 H 0.47113 0.34785 0.76821 0.0
H315 H 0.4962 0.38166 0.78218 0.0
H316 H 0.53554 0.45604 0.83388 0.0
H317 H 0.58403 0.52757 0.8336 0.0
H318 H 0.59773 0.52421 0.80947 0.0
H319 H 0.54967 0.45282 0.80968 0.0
C320 C 0.53246 0.13434 0.74007 0.0
C321 C 0.52952 0.15211 0.74513 0.0
C322 C 0.49517 0.13931 0.73004 0.0
C323 C 0.51111 0.15455 0.74017 0.0
C324 C 0.49809 0.1215 0.72507 0.0
C325 C 0.51653 0.11912 0.72997 0.0
U326 U 0.56814 0.12087 0.76749 0.0
O327 O 0.5866 0.10226 0.76382 0.0
O328 O 0.60567 0.13772 0.77047 0.0
C329 C 0.60686 0.12002 0.76624 0.0
C330 C 0.55268 0.13221 0.74437 0.0
C331 C 0.62549 0.12386 0.75588 0.0
C332 C 0.65473 0.14647 0.73764 0.0
C333 C 0.63605 0.14277 0.74654 0.0
C334 C 0.65224 0.1123 0.74711 0.0
C335 C 0.66314 0.13131 0.73786 0.0
C336 C 0.63371 0.10867 0.75598 0.0
C337 C 0.54439 0.10155 0.80692 0.0
C338 C 0.55412 0.08061 0.82435 0.0
C339 C 0.5307 0.09639 0.83211 0.0
C340 C 0.53218 0.10515 0.81802 0.0
C341 C 0.54141 0.08375 0.83546 0.0
C342 C 0.55562 0.08944 0.81022 0.0
C343 C 0.5439 0.10946 0.7919 0.0
O344 O 0.56722 0.14693 0.75378 0.0
O345 O 0.54877 0.11167 0.74678 0.0
O346 O 0.54045 0.09526 0.78126 0.0
O347 O 0.55952 0.13032 0.78867 0.0
H348 H 0.54152 0.16428 0.75283 0.0
H349 H 0.50928 0.16832 0.74436 0.0
H350 H 0.4864 0.10963 0.71711 0.0
H351 H 0.51851 0.10548 0.72567 0.0
H352 H 0.66253 0.16116 0.73057 0.0
H353 H 0.63007 0.15478 0.74622 0.0
H354 H 0.65842 0.10046 0.74783 0.0
H355 H 0.62601 0.09409 0.76318 0.0
H356 H 0.56285 0.07124 0.82655 0.0
H357 H 0.5205 0.09893 0.84025 0.0
H358 H 0.52329 0.11435 0.8157 0.0
H359 H 0.56522 0.08651 0.80183 0.0
C360 C 0.73995 0.54696 0.96582 0.0
C361 C 0.73088 0.55925 0.95905 0.0
C362 C 0.6982 0.54299 0.97597 0.0
C363 C 0.71023 0.55731 0.9641 0.0
C364 C 0.70727 0.53051 0.98255 0.0
C365 C 0.72792 0.53251 0.97753 0.0
U366 U 0.78923 0.56247 0.93805 0.0
O367 O 0.82654 0.57984 0.94187 0.0
O368 O 0.80879 0.54505 0.9339 0.0
C369 C 0.8281 0.56191 0.93888 0.0
C370 C 0.76213 0.54933 0.9612 0.0
C371 C 0.84152 0.55612 0.9492 0.0
C372 C 0.86654 0.56476 0.97046 0.0
C373 C 0.85194 0.56906 0.96177 0.0
C374 C 0.8601 0.53409 0.9545 0.0
C375 C 0.87109 0.54743 0.96682 0.0
C376 C 0.8456 0.53846 0.94578 0.0
C377 C 0.78652 0.58489 0.89956 0.0
C378 C 0.81622 0.59681 0.88082 0.0
C379 C 0.78202 0.59917 0.87609 0.0
C380 C 0.77369 0.59044 0.89007 0.0
C381 C 0.80344 0.60255 0.87125 0.0
C382 C 0.80784 0.58806 0.89485 0.0
C383 C 0.77737 0.57618 0.91434 0.0
O384 O 0.76116 0.53544 0.95098 0.0
O385 O 0.77921 0.57002 0.95929 0.0
O386 O 0.78863 0.58951 0.92531 0.0
O387 O 0.77112 0.555 0.9169 0.0
H388 H 0.73984 0.57043 0.94994 0.0
H389 H 0.70362 0.56694 0.95863 0.0
H390 H 0.69869 0.51953 0.9918 0.0
H391 H 0.73466 0.52293 0.98293 0.0
H392 H 0.87449 0.5752 0.97996 0.0
H393 H 0.84925 0.58284 0.96475 0.0
H394 H 0.8634 0.5208 0.95124 0.0
H395 H 0.83804 0.52837 0.93608 0.0
H396 H 0.83265 0.59893 0.87745 0.0
H397 H 0.77184 0.60371 0.8692 0.0
H398 H 0.75724 0.58821 0.89353 0.0
H399 H 0.81799 0.58383 0.90202 0.0
C400 C 0.47354 0.20204 0.96152 0.0
C401 C 0.456 0.17939 0.9607 0.0
C402 C 0.48081 0.16733 0.97236 0.0
C403 C 0.45958 0.16224 0.96611 0.0
C404 C 0.49842 0.19004 0.97291 0.0
C405 C 0.49477 0.20717 0.9676 0.0
U406 U 0.45311 0.2299 0.93325 0.0
O407 O 0.43425 0.24809 0.93644 0.0
O408 O 0.46876 0.26551 0.92665 0.0
C409 C 0.45135 0.26727 0.9316 0.0
C410 C 0.46994 0.22058 0.95648 0.0
C411 C 0.45725 0.28719 0.94057 0.0
C412 C 0.46823 0.30734 0.9637 0.0
C413 C 0.46353 0.28839 0.95535 0.0
C414 C 0.4607 0.32405 0.94252 0.0
C415 C 0.46663 0.3253 0.95741 0.0
C416 C 0.45605 0.30519 0.93422 0.0
C417 C 0.42703 0.20073 0.89669 0.0
C418 C 0.42855 0.19893 0.8701 0.0
C419 C 0.39537 0.19727 0.88174 0.0
C420 C 0.40536 0.1991 0.89549 0.0
C421 C 0.40678 0.19709 0.86885 0.0
C422 C 0.43849 0.20063 0.88385 0.0
C423 C 0.43758 0.20178 0.91115 0.0
O424 O 0.48279 0.23266 0.94541 0.0
O425 O 0.4485 0.21603 0.95554 0.0
O426 O 0.42517 0.1998 0.92281 0.0
O427 O 0.45933 0.21733 0.91256 0.0
H428 H 0.43943 0.17489 0.95604 0.0
H429 H 0.44551 0.14504 0.96565 0.0
H430 H 0.51513 0.19463 0.97737 0.0
H431 H 0.50857 0.2245 0.9683 0.0
H432 H 0.47262 0.3077 0.97515 0.0
H433 H 0.46455 0.27461 0.96043 0.0
H434 H 0.45974 0.33772 0.93723 0.0
H435 H 0.45134 0.30459 0.9228 0.0
H436 H 0.43802 0.19917 0.86043 0.0
H437 H 0.37845 0.19554 0.88126 0.0
H438 H 0.39596 0.199 0.90515 0.0
H439 H 0.45516 0.2018 0.88445 0.0
C440 C 0.74097 0.19061 0.96342 0.0
C441 C 0.71936 0.18721 0.95905 0.0
C442 C 0.69985 0.15425 0.97504 0.0
C443 C 0.69906 0.16924 0.96479 0.0
C444 C 0.72146 0.15765 0.97936 0.0
C445 C 0.74173 0.17564 0.97367 0.0
U446 U 0.78871 0.22384 0.93459 0.0
O447 O 0.80754 0.26017 0.92965 0.0
O448 O 0.82622 0.24364 0.93771 0.0
C449 C 0.82723 0.2628 0.9344 0.0
C450 C 0.76273 0.2104 0.95823 0.0
C451 C 0.84094 0.282 0.94437 0.0
C452 C 0.84835 0.31684 0.95621 0.0
C453 C 0.83407 0.29773 0.94789 0.0
C454 C 0.87644 0.30467 0.95792 0.0
C455 C 0.86989 0.32073 0.96116 0.0
C456 C 0.86221 0.28564 0.94958 0.0
C457 C 0.78531 0.19819 0.89658 0.0
C458 C 0.81534 0.21521 0.87803 0.0
C459 C 0.7806 0.17994 0.87305 0.0
C460 C 0.77222 0.18042 0.88699 0.0
C461 C 0.80232 0.19726 0.86837 0.0
C462 C 0.8069 0.21567 0.892 0.0
C463 C 0.77631 0.1978 0.91137 0.0
O464 O 0.78025 0.20716 0.95619 0.0
O465 O 0.76117 0.2232 0.94805 0.0
O466 O 0.76963 0.21254 0.91383 0.0
O467 O 0.78811 0.19605 0.92227 0.0
H468 H 0.71806 0.1985 0.95129 0.0
H469 H 0.68273 0.167 0.9611 0.0
H470 H 0.72275 0.14665 0.98738 0.0
H471 H 0.75808 0.17802 0.97747 0.0
H472 H 0.84283 0.32893 0.95834 0.0
H473 H 0.81789 0.2956 0.94396 0.0
H474 H 0.8927 0.30687 0.96173 0.0
H475 H 0.86808 0.27394 0.94697 0.0
H476 H 0.83201 0.22897 0.87476 0.0
H477 H 0.77023 0.16568 0.86606 0.0
H478 H 0.75555 0.16673 0.89036 0.0
H479 H 0.81725 0.22957 0.89927 0.0
C480 C 0.55587 0.81868 0.07668 0.0
C481 C 0.55876 0.83598 0.08614 0.0
C482 C 0.54883 0.85367 0.06638 0.0
C483 C 0.55527 0.85333 0.08103 0.0
C484 C 0.54607 0.83627 0.05699 0.0
C485 C 0.54955 0.81896 0.0621 0.0
U486 U 0.57497 0.79045 0.10544 0.0
O487 O 0.55956 0.75468 0.11146 0.0
O488 O 0.59455 0.77285 0.10239 0.0
C489 C 0.57714 0.75328 0.1064 0.0
C490 C 0.55952 0.8003 0.08174 0.0
C491 C 0.57192 0.734 0.09674 0.0
C492 C 0.54495 0.7006 0.08315 0.0
C493 C 0.54962 0.71958 0.09142 0.0
C494 C 0.58485 0.71045 0.08504 0.0
C495 C 0.56245 0.69562 0.08 0.0
C496 C 0.58947 0.72932 0.09336 0.0
C497 C 0.59836 0.81836 0.14251 0.0
C498 C 0.61092 0.80155 0.16122 0.0
C499 C 0.61469 0.83814 0.16528 0.0
C500 C 0.60505 0.8371 0.15152 0.0
C501 C 0.61781 0.82041 0.17031 0.0
C502 C 0.60129 0.80054 0.14744 0.0
C503 C 0.58869 0.81784 0.12796 0.0
O504 O 0.58108 0.80564 0.08344 0.0
O505 O 0.54609 0.78777 0.09247 0.0
O506 O 0.56721 0.80197 0.12601 0.0
O507 O 0.60206 0.82011 0.1168 0.0
H508 H 0.56367 0.83601 0.09745 0.0
H509 H 0.55731 0.86631 0.08861 0.0
H510 H 0.54151 0.83616 0.0456 0.0
H511 H 0.54738 0.8058 0.05463 0.0
H512 H 0.52746 0.68947 0.0796 0.0
H513 H 0.53567 0.7227 0.09384 0.0
H514 H 0.59887 0.70744 0.08262 0.0
H515 H 0.6068 0.74015 0.09732 0.0
H516 H 0.61281 0.78749 0.16479 0.0
H517 H 0.6201 0.85306 0.17185 0.0
H518 H 0.603 0.85104 0.14786 0.0
H519 H 0.59617 0.78591 0.14061 0.0
C520 C 0.28734 0.8277 0.07438 0.0
C521 C 0.28688 0.84346 0.06468 0.0
C522 C 0.32874 0.86383 0.06286 0.0
C523 C 0.3073 0.86134 0.05906 0.0
C524 C 0.32922 0.84804 0.07255 0.0
C525 C 0.30878 0.83018 0.07822 0.0
U526 U 0.23878 0.79457 0.1028 0.0
O527 O 0.20135 0.77506 0.09927 0.0
O528 O 0.21954 0.75822 0.10764 0.0
C529 C 0.20002 0.75581 0.10273 0.0
C530 C 0.2654 0.80798 0.07944 0.0
C531 C 0.18618 0.73653 0.09286 0.0
C532 C 0.17833 0.70131 0.08139 0.0
C533 C 0.19288 0.72063 0.08946 0.0
C534 C 0.15036 0.71363 0.07968 0.0
C535 C 0.15671 0.69739 0.07659 0.0
C536 C 0.16486 0.73288 0.08776 0.0
C537 C 0.24071 0.81954 0.14098 0.0
C538 C 0.24512 0.82087 0.16753 0.0
C539 C 0.21234 0.82118 0.15682 0.0
C540 C 0.22017 0.82005 0.1428 0.0
C541 C 0.22479 0.82179 0.16939 0.0
C542 C 0.253 0.81984 0.1535 0.0
C543 C 0.2503 0.8201 0.12622 0.0
O544 O 0.26665 0.79513 0.08973 0.0
O545 O 0.24789 0.8113 0.08123 0.0
O546 O 0.2395 0.82251 0.11495 0.0
O547 O 0.25721 0.80551 0.12385 0.0
H548 H 0.27067 0.84181 0.06126 0.0
H549 H 0.30622 0.87295 0.05146 0.0
H550 H 0.34542 0.84956 0.07583 0.0
H551 H 0.30983 0.81823 0.08551 0.0
H552 H 0.18371 0.68908 0.07937 0.0
H553 H 0.20909 0.72276 0.09332 0.0
H554 H 0.13404 0.7114 0.07597 0.0
H555 H 0.15913 0.74471 0.09029 0.0
H556 H 0.25501 0.82095 0.17692 0.0
H557 H 0.19681 0.82219 0.15775 0.0
H558 H 0.21029 0.81998 0.13341 0.0
H559 H 0.26892 0.81956 0.15244 0.0
C560 C 0.19848 0.46791 0.07455 0.0
C561 C 0.19474 0.48515 0.07968 0.0
C562 C 0.16065 0.47171 0.06429 0.0
C563 C 0.17606 0.48702 0.07461 0.0
C564 C 0.16432 0.45439 0.05927 0.0
C565 C 0.18305 0.45259 0.06429 0.0
U566 U 0.23504 0.45562 0.10197 0.0
O567 O 0.25538 0.43902 0.09817 0.0
O568 O 0.27261 0.47423 0.10534 0.0
C569 C 0.27509 0.45747 0.10063 0.0
C570 C 0.21911 0.46656 0.07891 0.0
C571 C 0.29405 0.46325 0.09001 0.0
C572 C 0.30939 0.45507 0.06813 0.0
C573 C 0.2907 0.45078 0.07713 0.0
C574 C 0.33505 0.48486 0.08438 0.0
C575 C 0.33188 0.47195 0.07174 0.0
C576 C 0.31639 0.4805 0.09341 0.0
C577 C 0.21087 0.43491 0.14123 0.0
C578 C 0.22037 0.41389 0.15874 0.0
C579 C 0.19726 0.43006 0.16642 0.0
C580 C 0.1988 0.43875 0.15231 0.0
C581 C 0.20777 0.41726 0.16982 0.0
C582 C 0.22193 0.42265 0.14458 0.0
C583 C 0.21035 0.44272 0.12618 0.0
O584 O 0.23307 0.48132 0.08852 0.0
O585 O 0.21604 0.44627 0.08111 0.0
O586 O 0.20793 0.42892 0.1155 0.0
O587 O 0.22519 0.4639 0.12313 0.0
H588 H 0.20635 0.49738 0.0875 0.0
H589 H 0.17363 0.50041 0.07884 0.0
H590 H 0.15303 0.44249 0.05119 0.0
H591 H 0.18565 0.43935 0.05995 0.0
H592 H 0.30626 0.44497 0.05839 0.0
H593 H 0.27373 0.43736 0.07415 0.0
H594 H 0.35211 0.49779 0.08763 0.0
H595 H 0.31954 0.49024 0.10333 0.0
H596 H 0.22894 0.40439 0.16098 0.0
H597 H 0.18714 0.43277 0.17454 0.0
H598 H 0.19004 0.44805 0.14994 0.0
H599 H 0.23142 0.41953 0.13621 0.0
C600 C 0.4093 0.88433 0.29825 0.0
C601 C 0.38808 0.86881 0.29196 0.0
C602 C 0.36754 0.87954 0.30928 0.0
C603 C 0.36746 0.86645 0.29742 0.0
C604 C 0.3888 0.89521 0.31543 0.0
C605 C 0.40938 0.89749 0.31002 0.0
U606 U 0.45824 0.89778 0.27031 0.0
O607 O 0.49556 0.91465 0.27402 0.0
O608 O 0.47714 0.87962 0.2665 0.0
C609 C 0.49667 0.89641 0.27127 0.0
C610 C 0.43128 0.88603 0.2935 0.0
C611 C 0.50997 0.89061 0.28168 0.0
C612 C 0.53486 0.89925 0.30301 0.0
C613 C 0.52032 0.90356 0.29426 0.0
C614 C 0.52846 0.86854 0.2871 0.0
C615 C 0.53939 0.88189 0.29943 0.0
C616 C 0.51403 0.87292 0.27832 0.0
C617 C 0.45567 0.91956 0.23154 0.0
C618 C 0.48531 0.93112 0.21279 0.0
C619 C 0.45122 0.93365 0.20799 0.0
C620 C 0.44289 0.92509 0.22199 0.0
C621 C 0.4726 0.93689 0.20317 0.0
C622 C 0.47691 0.92253 0.22685 0.0
C623 C 0.44662 0.91127 0.2464 0.0
O624 O 0.43015 0.8716 0.28361 0.0
O625 O 0.44876 0.90646 0.29143 0.0
O626 O 0.45816 0.92478 0.25723 0.0
O627 O 0.44001 0.89006 0.24918 0.0
H628 H 0.38733 0.85831 0.28291 0.0
H629 H 0.35144 0.85441 0.29229 0.0
H630 H 0.38954 0.90537 0.32469 0.0
H631 H 0.42541 0.90936 0.31523 0.0
H632 H 0.54276 0.9097 0.31251 0.0
H633 H 0.51763 0.91735 0.29719 0.0
H634 H 0.53176 0.85523 0.28389 0.0
H635 H 0.50653 0.86282 0.26862 0.0
H636 H 0.5017 0.93312 0.20944 0.0
H637 H 0.4411 0.93823 0.20106 0.0
H638 H 0.4265 0.92302 0.22544 0.0
H639 H 0.48703 0.91833 0.23407 0.0
C640 C 0.12957 0.53179 0.29787 0.0
C641 C 0.1272 0.51482 0.28828 0.0
C642 C 0.13725 0.49708 0.30795 0.0
C643 C 0.13101 0.49761 0.29328 0.0
C644 C 0.13937 0.51408 0.3175 0.0
C645 C 0.13558 0.53125 0.31249 0.0
U646 U 0.11063 0.56021 0.26917 0.0
O647 O 0.09214 0.57884 0.27225 0.0
O648 O 0.1269 0.59597 0.26282 0.0
C649 C 0.10971 0.59803 0.26783 0.0
C650 C 0.12603 0.55025 0.29285 0.0
C651 C 0.11618 0.6177 0.27725 0.0
C652 C 0.12467 0.63584 0.30111 0.0
C653 C 0.11811 0.61665 0.29252 0.0
C654 C 0.12746 0.65719 0.27923 0.0
C655 C 0.12962 0.6564 0.29453 0.0
C656 C 0.12081 0.63806 0.27071 0.0
C657 C 0.08732 0.53201 0.23202 0.0
C658 C 0.07529 0.54859 0.21283 0.0
C659 C 0.07268 0.51246 0.20896 0.0
C660 C 0.08155 0.51349 0.22298 0.0
C661 C 0.06941 0.52999 0.20369 0.0
C662 C 0.08419 0.5496 0.22688 0.0
C663 C 0.09657 0.53262 0.24674 0.0
O664 O 0.13943 0.56267 0.28208 0.0
O665 O 0.1045 0.54511 0.29122 0.0
O666 O 0.08314 0.53087 0.25775 0.0
O667 O 0.11815 0.54815 0.24876 0.0
H668 H 0.12257 0.51499 0.27693 0.0
H669 H 0.12945 0.48495 0.28559 0.0
H670 H 0.14376 0.51402 0.32891 0.0
H671 H 0.13737 0.54416 0.32006 0.0
H672 H 0.12633 0.63472 0.31284 0.0
H673 H 0.1147 0.60107 0.29777 0.0
H674 H 0.13078 0.67263 0.27382 0.0
H675 H 0.11937 0.63918 0.25895 0.0
H676 H 0.07326 0.5625 0.20909 0.0
H677 H 0.06803 0.49772 0.20235 0.0
H678 H 0.0838 0.49973 0.22679 0.0
H679 H 0.08863 0.56408 0.23372 0.0
C680 C 0.40448 0.52445 0.29714 0.0
C681 C 0.38292 0.52135 0.29296 0.0
C682 C 0.36323 0.48831 0.30891 0.0
C683 C 0.36256 0.5035 0.29876 0.0
C684 C 0.38481 0.49144 0.31305 0.0
C685 C 0.40513 0.5093 0.30731 0.0
U686 U 0.45272 0.55724 0.26843 0.0
O687 O 0.47198 0.59355 0.2634 0.0
O688 O 0.49021 0.57675 0.27176 0.0
C689 C 0.49154 0.59599 0.26825 0.0
C690 C 0.42634 0.54415 0.29192 0.0
C691 C 0.50552 0.61535 0.27808 0.0
C692 C 0.51347 0.65054 0.28968 0.0
C693 C 0.49886 0.63125 0.28159 0.0
C694 C 0.54147 0.63825 0.29117 0.0
C695 C 0.53513 0.65446 0.29441 0.0
C696 C 0.52692 0.61904 0.28307 0.0
C697 C 0.44895 0.52997 0.23069 0.0
C698 C 0.47636 0.54698 0.21062 0.0
C699 C 0.44562 0.50822 0.20893 0.0
C700 C 0.43761 0.50988 0.22274 0.0
C701 C 0.46521 0.52667 0.20271 0.0
C702 C 0.46835 0.54859 0.22453 0.0
C703 C 0.44034 0.53071 0.24543 0.0
O704 O 0.44387 0.54086 0.29012 0.0
O705 O 0.42496 0.55681 0.28155 0.0
O706 O 0.43409 0.54584 0.24752 0.0
O707 O 0.45198 0.52908 0.25647 0.0
H708 H 0.3817 0.5328 0.28529 0.0
H709 H 0.34626 0.5015 0.2952 0.0
H710 H 0.38605 0.48033 0.32101 0.0
H711 H 0.42144 0.51144 0.31099 0.0
H712 H 0.50807 0.66273 0.29181 0.0
H713 H 0.4826 0.62911 0.27781 0.0
H714 H 0.55781 0.64045 0.29481 0.0
H715 H 0.53264 0.60722 0.28046 0.0
H716 H 0.49159 0.56145 0.20622 0.0
H717 H 0.43637 0.49246 0.20308 0.0
H718 H 0.42257 0.49535 0.22728 0.0
H719 H 0.47738 0.56425 0.23052 0.0
Eu720 Eu 0.50362 0.99567 1.0012 0.0
C721 C 0.55568 0.07667 0.04433 0.0
C722 C 0.59554 0.08628 0.04254 0.0
C723 C 0.58609 0.1153 0.04826 0.0
C724 C 0.57188 0.07032 0.04165 0.0
C725 C 0.56257 0.09911 0.04801 0.0
C726 C 0.60255 0.1089 0.04551 0.0
C727 C 0.52258 0.08744 0.05216 0.0
N728 N 0.53315 0.06058 0.04413 0.0
C729 C 0.51662 0.06541 0.04848 0.0
C730 C 0.54564 0.10445 0.05175 0.0
Eu731 Eu 0.52421 0.02386 0.03723 0.0
N732 N 0.5645 0.0483 0.03897 0.0
C733 C 0.57986 0.04081 0.03814 0.0
C734 C 0.61141 0.0789 0.04081 0.0
C735 C 0.60351 0.05601 0.03883 0.0
H736 H 0.49876 0.05233 0.04871 0.0
H737 H 0.61563 0.05005 0.03777 0.0
H738 H 0.62064 0.12144 0.04609 0.0
H739 H 0.50939 0.09131 0.05529 0.0
H740 H 0.57404 0.02319 0.03654 0.0
H741 H 0.41235 0.97003 1.00028 0.0
H742 H 0.62973 0.09063 0.04136 0.0
H743 H 0.52884 0.9667 0.99028 0.0
H744 H 0.45397 0.99673 1.00151 0.0
H745 H 0.51799 0.92749 0.98418 0.0
H746 H 0.59173 0.13268 0.05093 0.0
H747 H 0.39802 0.92934 0.99707 0.0
H748 H 0.40687 0.89827 0.99279 0.0
H749 H 0.55022 0.12149 0.05465 0.0
H750 H 0.43562 0.88668 0.98833 0.0
N751 N 0.46332 0.97143 0.99941 0.0
C752 C 0.44806 0.97906 1.00006 0.0
C753 C 0.41636 0.941 0.99761 0.0
C754 C 0.43213 0.93346 0.99608 0.0
C755 C 0.42438 0.96396 0.99938 0.0
C756 C 0.45582 0.94933 0.99693 0.0
H757 H 0.47707 0.89752 0.98486 0.0
N758 N 0.4945 0.95877 0.99464 0.0
C759 C 0.50486 0.93154 0.98711 0.0
C760 C 0.47193 0.94279 0.99446 0.0
C761 C 0.51095 0.95371 0.99052 0.0
C762 C 0.48176 0.91466 0.98755 0.0
C763 C 0.46491 0.92023 0.99103 0.0
O764 O 0.52096 1.00238 0.97994 0.0
O765 O 0.53221 0.02348 1.01359 0.0
O766 O 0.52057 0.04823 0.02215 0.0
O767 O 0.49461 0.02338 1.00494 0.0
O768 O 0.54159 0.00717 0.99857 0.0
O769 O 0.49246 0.00828 0.98275 0.0
O770 O 0.50707 0.01683 0.05858 0.0
O771 O 0.49561 0.99622 0.0248 0.0
O772 O 0.5068 0.97129 1.01648 0.0
O773 O 0.53339 0.99627 0.03333 0.0
O774 O 0.48623 0.01232 0.03995 0.0
O775 O 0.53548 0.01089 0.05543 0.0
C776 C 0.54926 0.02346 1.00784 0.0
C777 C 0.49837 0.99811 0.95908 0.0
C778 C 0.49943 1.00144 0.93229 0.0
C779 C 0.50758 0.01104 0.94622 0.0
C780 C 0.4818 0.97876 0.93155 0.0
C781 C 0.48086 0.97557 0.95799 0.0
C782 C 0.47264 0.96599 0.9443 0.0
C783 C 0.50572 0.04343 1.01131 0.0
C784 C 0.50727 0.00811 0.97356 0.0
C785 C 0.44136 0.90415 0.9908 0.0
C786 C 0.42499 0.91075 0.99334 0.0
C787 C 0.47854 0.9962 0.03056 0.0
C788 C 0.52982 0.02061 0.07927 0.0
C789 C 0.52152 0.00708 0.09197 0.0
C790 C 0.5301 0.01621 0.10594 0.0
C791 C 0.54698 0.03916 0.10689 0.0
C792 C 0.54671 0.04335 0.08057 0.0
C793 C 0.55519 0.05254 0.09431 0.0
C794 C 0.52189 0.9761 0.02716 0.0
C795 C 0.52077 0.01092 0.06475 0.0
H796 H 0.52127 0.02841 0.94708 0.0
H797 H 0.47481 0.97091 0.9211 0.0
H798 H 0.47354 0.9654 0.96772 0.0
H799 H 0.45905 0.9486 0.94355 0.0
H800 H 0.50863 0.98944 0.09092 0.0
H801 H 0.55366 0.04693 0.11741 0.0
H802 H 0.55331 0.05398 0.07096 0.0
H803 H 0.56813 0.07015 0.09522 0.0
Eu804 Eu 0.02984 0.51458 1.00294 0.0
C805 C 0.94011 0.47719 0.04079 0.0
C806 C 0.92872 0.50547 0.03885 0.0
C807 C 0.89968 0.46616 0.04244 0.0
C808 C 0.94591 0.49939 0.03874 0.0
C809 C 0.91699 0.46037 0.04299 0.0
C810 C 0.90553 0.48868 0.04036 0.0
C811 C 0.93002 0.43376 0.04734 0.0
N812 N 0.95726 0.47223 0.04141 0.0
C813 C 0.95269 0.45106 0.04515 0.0
C814 C 0.91205 0.43837 0.04608 0.0
Eu815 Eu 0.9951 0.50208 0.03696 0.0
N816 N 0.96847 0.51519 0.03748 0.0
C817 C 0.97516 0.53756 0.03743 0.0
C818 C 0.9354 0.52831 0.03788 0.0
C819 C 0.95875 0.54444 0.0374 0.0
H820 H 0.96655 0.44741 0.04604 0.0
H821 H 0.96414 0.56218 0.03695 0.0
H822 H 0.89207 0.493 0.04033 0.0
H823 H 0.92642 0.4169 0.04998 0.0
H824 H 0.99312 0.55022 0.03698 0.0
H825 H 0.06053 0.45422 1.00286 0.0
H826 H 0.92273 0.53369 0.03788 0.0
H827 H 0.05848 0.56923 0.99381 0.0
H828 H 0.03168 0.46631 1.00315 0.0
H829 H 0.09854 0.59957 0.98953 0.0
H830 H 0.88179 0.45345 0.04397 0.0
H831 H 0.10193 0.48256 1.00131 0.0
H832 H 0.13262 0.52315 0.99849 0.0
H833 H 0.8945 0.42497 0.04784 0.0
H834 H 0.14299 0.56272 0.99481 0.0
N835 N 0.05637 0.50132 1.00218 0.0
C836 C 0.04963 0.47893 1.00243 0.0
C837 C 0.08931 0.48801 1.00144 0.0
C838 C 0.09605 0.51084 1.00034 0.0
C839 C 0.06596 0.47196 1.00228 0.0
C840 C 0.07892 0.51703 1.00062 0.0
H841 H 0.13037 0.59132 0.99122 0.0
N842 N 0.06768 0.54427 0.99819 0.0
C843 C 0.09492 0.58269 0.99212 0.0
C844 C 0.08476 0.53922 0.99858 0.0
C845 C 0.07227 0.56548 0.99451 0.0
C846 C 0.11284 0.57798 0.99313 0.0
C847 C 0.10786 0.55596 0.99617 0.0
O848 O 0.02527 0.52563 0.98133 0.0
O849 O 0.99889 0.51244 1.01351 0.0
O850 O 0.9736 0.47532 0.02027 0.0
O851 O 1.00274 0.47723 1.00537 0.0
O852 O 0.01716 0.53941 0.99959 0.0
O853 O 0.01971 0.49193 0.9842 0.0
O854 O 0.99913 0.49088 0.05866 0.0
O855 O 0.02601 0.50437 0.02638 0.0
O856 O 0.05141 0.54138 0.01955 0.0
O857 O 0.02248 0.53943 0.03474 0.0
O858 O 1.00841 0.47771 0.04059 0.0
O859 O 1.00468 0.52459 0.05575 0.0
C860 C 0.99921 0.52939 1.00784 0.0
C861 C 0.0321 0.50885 0.9609 0.0
C862 C 0.03031 0.50602 0.93417 0.0
C863 C 0.01959 0.50421 0.94779 0.0
C864 C 0.05381 0.5126 0.93396 0.0
C865 C 0.05546 0.51534 0.96043 0.0
C866 C 0.06623 0.5172 0.94701 0.0
C867 C 0.98112 0.46684 1.0101 0.0
C868 C 0.0205 0.50684 0.97494 0.0
C869 C 0.12511 0.55008 0.9965 0.0
C870 C 0.11921 0.52755 0.99859 0.0
C871 C 0.02622 0.48779 0.03222 0.0
C872 C 0.99162 0.50746 0.07895 0.0
C873 C 1.00372 0.51204 0.09223 0.0
C874 C 0.99255 0.51011 0.1057 0.0
C875 C 0.96902 0.50345 0.10556 0.0
C876 C 0.96823 0.50088 0.0791 0.0
C877 C 0.95702 0.4989 0.09236 0.0
C878 C 0.04401 0.54986 0.02981 0.0
C879 C 1.00365 0.50961 0.06506 0.0
H880 H 1.00145 0.49893 0.94825 0.0
H881 H 0.06274 0.51454 0.92371 0.0
H882 H 0.06534 0.51897 0.97041 0.0
H883 H 0.08431 0.52231 0.9467 0.0
H884 H 0.02188 0.51736 0.09203 0.0
H885 H 0.95976 0.50141 0.11569 0.0
H886 H 0.95867 0.4973 0.06899 0.0
H887 H 0.93892 0.49373 0.09241 0.0
Eu888 Eu 0.52262 0.50261 0.03694 0.0
C889 C 0.47488 0.54166 0.99697 0.0
C890 C 0.43437 0.51378 0.99809 0.0
C891 C 0.44626 0.55325 0.99431 0.0
C892 C 0.45767 0.51955 0.99881 0.0
C893 C 0.46941 0.55872 0.99438 0.0
C894 C 0.42877 0.53082 0.99617 0.0
C895 C 0.50996 0.58492 0.9909 0.0
N896 N 0.49701 0.5463 0.99695 0.0
C897 C 0.51449 0.56739 0.99346 0.0
C898 C 0.48733 0.58063 0.99154 0.0
Eu899 Eu 0.50354 0.51609 1.00205 0.0
N900 N 0.46369 0.5035 1.00045 0.0
C901 C 0.44729 0.48122 1.00028 0.0
C902 C 0.41744 0.49102 0.99884 0.0
C903 C 0.42395 0.47465 0.9997 0.0
H904 H 0.53202 0.5708 0.99306 0.0
H905 H 0.41101 0.45697 0.99998 0.0
H906 H 0.41098 0.52674 0.99573 0.0
H907 H 0.5239 0.60171 0.98846 0.0
H908 H 0.45205 0.46838 1.00101 0.0
H909 H 0.61511 0.56204 0.03898 0.0
H910 H 0.39935 0.48589 0.99836 0.0
H911 H 0.49426 0.44783 0.04577 0.0
H912 H 0.57408 0.55049 0.03775 0.0
H913 H 0.50252 0.41704 0.05046 0.0
H914 H 0.4417 0.56615 0.99247 0.0
H915 H 0.62691 0.53327 0.04106 0.0
H916 H 0.61544 0.49249 0.04393 0.0
H917 H 0.48384 0.59421 0.98949 0.0
H918 H 0.58481 0.45303 0.04711 0.0
N919 N 0.56251 0.51538 0.03872 0.0
C920 C 0.57886 0.53769 0.0387 0.0
C921 C 0.60881 0.52806 0.04052 0.0
C922 C 0.59194 0.50529 0.04138 0.0
C923 C 0.60222 0.54435 0.03938 0.0
C924 C 0.56862 0.49942 0.04055 0.0
H925 H 0.54268 0.42478 0.04978 0.0
N926 N 0.5293 0.47252 0.04216 0.0
C927 C 0.51645 0.43389 0.04813 0.0
C928 C 0.55146 0.47728 0.04232 0.0
C929 C 0.51183 0.45135 0.04551 0.0
C930 C 0.53913 0.43832 0.0477 0.0
C931 C 0.55701 0.46029 0.04498 0.0
O932 O 0.50493 0.49136 0.05805 0.0
O933 O 0.4949 0.50544 0.02538 0.0
O934 O 0.50861 0.54278 0.01857 0.0
O935 O 0.53422 0.54005 0.03457 0.0
O936 O 0.48431 0.47802 0.03911 0.0
O937 O 0.53474 0.52461 0.05606 0.0
O938 O 0.52078 0.5274 0.9808 0.0
O939 O 0.5311 0.5132 1.01362 0.0
O940 O 0.51766 0.47599 0.02043 0.0
O941 O 0.49209 0.47863 1.00433 0.0
O942 O 0.54198 0.54028 0.99963 0.0
O943 O 0.49122 0.49401 0.98298 0.0
C944 C 0.47738 0.48844 0.03059 0.0
C945 C 0.52752 0.50672 0.07923 0.0
C946 C 0.52544 0.50632 0.10603 0.0
C947 C 0.51817 0.5098 0.09225 0.0
C948 C 0.54242 0.50001 0.1065 0.0
C949 C 0.54439 0.50043 0.08002 0.0
C950 C 0.55181 0.49715 0.0936 0.0
C951 C 0.52393 0.55082 0.02928 0.0
C952 C 0.5193 0.50971 0.0649 0.0
C953 C 0.58019 0.46587 0.04521 0.0
C954 C 0.59762 0.48834 0.0434 0.0
C955 C 0.54876 0.52985 1.00826 0.0
C956 C 0.49779 0.51176 0.95979 0.0
C957 C 0.50717 0.509 0.94667 0.0
C958 C 0.49936 0.51207 0.93296 0.0
C959 C 0.48186 0.51768 0.93268 0.0
C960 C 0.48043 0.5174 0.95918 0.0
C961 C 0.4725 0.52029 0.94568 0.0
C962 C 0.50236 0.46789 1.00972 0.0
C963 C 0.50639 0.50896 0.97404 0.0
H964 H 0.50495 0.51444 0.09163 0.0
H965 H 0.54861 0.49748 0.11689 0.0
H966 H 0.55179 0.49802 0.07015 0.0
H967 H 0.56488 0.49233 0.09413 0.0
H968 H 0.52077 0.50488 0.94717 0.0
H969 H 0.47519 0.51983 0.92237 0.0
H970 H 0.47301 0.51956 0.96912 0.0
H971 H 0.45903 0.52457 0.94529 0.0
Eu972 Eu 0.16716 0.32939 0.33555 0.0
C973 C 0.21799 0.41032 0.37864 0.0
C974 C 0.25802 0.42049 0.37698 0.0
C975 C 0.24797 0.44915 0.38248 0.0
C976 C 0.23445 0.40427 0.37608 0.0
C977 C 0.22454 0.43272 0.3822 0.0
C978 C 0.26469 0.44305 0.37986 0.0
C979 C 0.18438 0.42057 0.38614 0.0
N980 N 0.19555 0.394 0.37842 0.0
C981 C 0.17877 0.39858 0.3826 0.0
C982 C 0.20735 0.43779 0.38576 0.0
Eu983 Eu 0.18721 0.35742 0.37163 0.0
N984 N 0.2274 0.3823 0.37345 0.0
C985 C 0.24303 0.37512 0.3727 0.0
C986 C 0.27416 0.41342 0.37535 0.0
C987 C 0.26661 0.39058 0.37342 0.0
H988 H 0.16098 0.38533 0.3828 0.0
H989 H 0.27893 0.38487 0.37243 0.0
H990 H 0.28272 0.45578 0.38045 0.0
H991 H 0.171 0.42423 0.38912 0.0
H992 H 0.23747 0.35755 0.37114 0.0
H993 H 0.0755 0.30221 0.33477 0.0
H994 H 0.29244 0.42536 0.37592 0.0
H995 H 0.19321 0.30142 0.32419 0.0
H996 H 0.11698 0.32943 0.33607 0.0
H997 H 0.18305 0.26256 0.31765 0.0
H998 H 0.25335 0.46651 0.38506 0.0
H999 H 0.06186 0.26171 0.33126 0.0
H1000 H 0.07145 0.23122 0.32663 0.0
H1001 H 0.21167 0.4548 0.38855 0.0
H1002 H 0.10072 0.22042 0.32188 0.0
N1003 N 0.12695 0.30461 0.33374 0.0
C1004 C 0.11137 0.31185 0.33449 0.0
C1005 C 0.08015 0.2736 0.33183 0.0
C1006 C 0.09623 0.26647 0.33018 0.0
C1007 C 0.08778 0.29645 0.33377 0.0
C1008 C 0.11983 0.28263 0.33109 0.0
H1009 H 0.14236 0.23206 0.31824 0.0
N1010 N 0.15869 0.29279 0.3287 0.0
C1011 C 0.16972 0.26623 0.32074 0.0
C1012 C 0.13623 0.27653 0.32847 0.0
C1013 C 0.17541 0.2882 0.32441 0.0
C1014 C 0.14673 0.24905 0.32112 0.0
C1015 C 0.12961 0.25414 0.32481 0.0
O1016 O 0.18478 0.33677 0.31436 0.0
O1017 O 0.19552 0.35743 0.34799 0.0
O1018 O 0.18345 0.38161 0.35649 0.0
O1019 O 0.15744 0.35661 0.33939 0.0
O1020 O 0.20524 0.34134 0.33302 0.0
O1021 O 0.15563 0.34167 0.31711 0.0
O1022 O 0.17018 0.35044 0.39302 0.0
O1023 O 0.15891 0.32949 0.35917 0.0
O1024 O 0.17096 0.30517 0.35066 0.0
O1025 O 0.19698 0.33029 0.36771 0.0
O1026 O 0.14907 0.34522 0.3743 0.0
O1027 O 0.19867 0.34465 0.38983 0.0
C1028 C 0.21271 0.35763 0.34228 0.0
C1029 C 0.16215 0.33196 0.29345 0.0
C1030 C 0.16391 0.33519 0.26666 0.0
C1031 C 0.17174 0.34483 0.28062 0.0
C1032 C 0.14623 0.31253 0.26586 0.0
C1033 C 0.1446 0.30945 0.29231 0.0
C1034 C 0.13671 0.29983 0.27859 0.0
C1035 C 0.16842 0.37666 0.34576 0.0
C1036 C 0.17074 0.34201 0.30796 0.0
C1037 C 0.10616 0.23776 0.32453 0.0
C1038 C 0.08949 0.24391 0.32723 0.0
C1039 C 0.14165 0.32908 0.36493 0.0
C1040 C 0.19305 0.35436 0.41369 0.0
C1041 C 0.18513 0.34078 0.4264 0.0
C1042 C 0.19386 0.34997 0.44034 0.0
C1043 C 0.21045 0.37302 0.44125 0.0
C1044 C 0.20965 0.3772 0.41495 0.0
C1045 C 0.21824 0.38644 0.42867 0.0
C1046 C 0.18594 0.31017 0.36145 0.0
C1047 C 0.18396 0.34463 0.39918 0.0
H1048 H 0.18546 0.36217 0.28152 0.0
H1049 H 0.13947 0.30465 0.25538 0.0
H1050 H 0.13699 0.29933 0.30201 0.0
H1051 H 0.12309 0.28246 0.2778 0.0
H1052 H 0.17246 0.32307 0.42537 0.0
H1053 H 0.21723 0.38082 0.45175 0.0
H1054 H 0.21595 0.38787 0.40535 0.0
H1055 H 0.23097 0.40413 0.42955 0.0
Eu1056 Eu 0.69741 0.8483 0.33593 0.0
C1057 C 0.60748 0.81151 0.37353 0.0
C1058 C 0.5967 0.84025 0.37167 0.0
C1059 C 0.5672 0.80107 0.37512 0.0
C1060 C 0.61363 0.83382 0.37155 0.0
C1061 C 0.58425 0.79493 0.37566 0.0
C1062 C 0.57342 0.8237 0.37311 0.0
C1063 C 0.59667 0.76783 0.37992 0.0
N1064 N 0.62438 0.80621 0.37414 0.0
C1065 C 0.61946 0.7849 0.37779 0.0
C1066 C 0.57894 0.7728 0.37867 0.0
Eu1067 Eu 0.66245 0.8357 0.36981 0.0
N1068 N 0.63629 0.84938 0.37036 0.0
C1069 C 0.6433 0.87183 0.37038 0.0
C1070 C 0.60373 0.86318 0.37077 0.0
C1071 C 0.62716 0.87905 0.37036 0.0
H1072 H 0.63311 0.78098 0.37867 0.0
H1073 H 0.63282 0.89685 0.36997 0.0
H1074 H 0.56015 0.82829 0.37308 0.0
H1075 H 0.59278 0.75086 0.38249 0.0
H1076 H 0.66133 0.8843 0.36998 0.0
H1077 H 0.72698 0.78708 0.33552 0.0
H1078 H 0.59127 0.86882 0.37078 0.0
H1079 H 0.72674 0.90306 0.32712 0.0
H1080 H 0.69851 0.79965 0.33576 0.0
H1081 H 0.76702 0.93314 0.32315 0.0
H1082 H 0.54923 0.78854 0.3766 0.0
H1083 H 0.76851 0.81507 0.33435 0.0
H1084 H 0.79962 0.85557 0.33188 0.0
H1085 H 0.5613 0.75956 0.38037 0.0
H1086 H 0.81054 0.89533 0.32843 0.0
N1087 N 0.72355 0.83457 0.33514 0.0
C1088 C 0.71652 0.81212 0.3352 0.0
C1089 C 0.75606 0.82072 0.33445 0.0
C1090 C 0.7631 0.84365 0.33351 0.0
C1091 C 0.73264 0.80488 0.33507 0.0
C1092 C 0.74619 0.8501 0.33376 0.0
H1093 H 0.79848 0.92436 0.32494 0.0
N1094 N 0.73545 0.87774 0.33141 0.0
C1095 C 0.76314 0.91614 0.32564 0.0
C1096 C 0.75234 0.87241 0.33184 0.0
C1097 C 0.74037 0.89908 0.32785 0.0
C1098 C 0.78086 0.91113 0.3267 0.0
C1099 C 0.77555 0.88898 0.32961 0.0
O1100 O 0.69326 0.85989 0.31441 0.0
O1101 O 0.66651 0.84633 0.34643 0.0
O1102 O 0.64083 0.80922 0.353 0.0
O1103 O 0.66983 0.81099 0.338 0.0
O1104 O 0.68515 0.8735 0.33274 0.0
O1105 O 0.68734 0.82601 0.31701 0.0
O1106 O 0.66593 0.82394 0.39145 0.0
O1107 O 0.6933 0.83773 0.35931 0.0
O1108 O 0.71911 0.87479 0.35271 0.0
O1109 O 0.69023 0.87299 0.36788 0.0
O1110 O 0.67512 0.8108 0.37324 0.0
O1111 O 0.67232 0.85797 0.38873 0.0
C1112 C 0.66706 0.86345 0.34087 0.0
C1113 C 0.69992 0.84327 0.29382 0.0
C1114 C 0.6981 0.84105 0.26707 0.0
C1115 C 0.68745 0.8391 0.28073 0.0
C1116 C 0.7215 0.84725 0.2668 0.0
C1117 C 0.72319 0.84941 0.29329 0.0
C1118 C 0.73389 0.85137 0.27983 0.0
C1119 C 0.6482 0.80072 0.34274 0.0
C1120 C 0.68835 0.84116 0.30788 0.0
C1121 C 0.79258 0.88281 0.32999 0.0
C1122 C 0.78637 0.86018 0.33194 0.0
C1123 C 0.69308 0.82085 0.36499 0.0
C1124 C 0.6588 0.84065 0.41181 0.0
C1125 C 0.67064 0.84428 0.42512 0.0
C1126 C 0.65961 0.84275 0.43856 0.0
C1127 C 0.63646 0.83741 0.43841 0.0
C1128 C 0.63575 0.83531 0.41192 0.0
C1129 C 0.62465 0.83368 0.42518 0.0
C1130 C 0.7118 0.88329 0.36302 0.0
C1131 C 0.67082 0.8427 0.39794 0.0
H1132 H 0.66938 0.83409 0.28124 0.0
H1133 H 0.73037 0.84926 0.25651 0.0
H1134 H 0.73303 0.85268 0.30326 0.0
H1135 H 0.75189 0.8562 0.27947 0.0
H1136 H 0.68855 0.84864 0.42496 0.0
H1137 H 0.62736 0.8358 0.44855 0.0
H1138 H 0.62637 0.83245 0.40179 0.0
H1139 H 0.60683 0.8295 0.42521 0.0
Eu1140 Eu 0.18872 0.83637 0.37201 0.0
C1141 C 0.13645 0.86484 0.33128 0.0
C1142 C 0.09898 0.83103 0.33174 0.0
C1143 C 0.10191 0.86755 0.3284 0.0
C1144 C 0.12315 0.84171 0.3327 0.0
C1145 C 0.126 0.87796 0.32862 0.0
C1146 C 0.08842 0.84413 0.32998 0.0
C1147 C 0.16389 0.91009 0.32468 0.0
N1148 N 0.15965 0.87429 0.33133 0.0
C1149 C 0.17339 0.89633 0.32729 0.0
C1150 C 0.14009 0.90095 0.32563 0.0
Eu1151 Eu 0.17447 0.84992 0.33585 0.0
N1152 N 0.13389 0.82955 0.33437 0.0
C1153 C 0.12162 0.80658 0.33422 0.0
C1154 C 0.08622 0.80748 0.33217 0.0
C1155 C 0.09763 0.7952 0.33319 0.0
H1156 H 0.19182 0.90339 0.32654 0.0
H1157 H 0.08795 0.77697 0.33327 0.0
H1158 H 0.06986 0.83625 0.32939 0.0
H1159 H 0.17489 0.9277 0.32193 0.0
H1160 H 0.13025 0.79695 0.33498 0.0
H1161 H 0.28018 0.90018 0.37733 0.0
H1162 H 0.06763 0.79863 0.33144 0.0
H1163 H 0.16566 0.78035 0.38009 0.0
H1164 H 0.23886 0.88604 0.37767 0.0
H1165 H 0.1776 0.75182 0.37997 0.0
H1166 H 0.09356 0.87738 0.32656 0.0
H1167 H 0.29495 0.87405 0.37353 0.0
H1168 H 0.28675 0.83446 0.37079 0.0
H1169 H 0.13274 0.9116 0.32351 0.0
H1170 H 0.25871 0.79392 0.37123 0.0
N1171 N 0.22938 0.85187 0.37342 0.0
C1172 C 0.24459 0.87419 0.37584 0.0
C1173 C 0.27656 0.86762 0.37363 0.0
C1174 C 0.261 0.84459 0.37225 0.0
C1175 C 0.26829 0.8824 0.37578 0.0
C1176 C 0.23717 0.83705 0.37241 0.0
H1177 H 0.21809 0.76299 0.37493 0.0
N1178 N 0.19873 0.80751 0.37396 0.0
C1179 C 0.19007 0.76926 0.37766 0.0
C1180 C 0.22138 0.81422 0.37252 0.0
C1181 C 0.18339 0.78556 0.37764 0.0
C1182 C 0.2129 0.77562 0.37477 0.0
C1183 C 0.22903 0.7984 0.37264 0.0
O1184 O 0.16958 0.81642 0.39115 0.0
O1185 O 0.15983 0.83258 0.35728 0.0
O1186 O 0.18108 0.87861 0.35129 0.0
O1187 O 0.20145 0.87391 0.37043 0.0
O1188 O 0.16069 0.84358 0.3785 0.0
O1189 O 0.19786 0.85057 0.39395 0.0
O1190 O 0.19135 0.86575 0.3151 0.0
O1191 O 0.20113 0.8472 0.34891 0.0
O1192 O 0.16759 0.80387 0.35914 0.0
O1193 O 0.17526 0.81732 0.33529 0.0
O1194 O 0.21229 0.87604 0.33622 0.0
O1195 O 0.16604 0.83042 0.31565 0.0
C1196 C 0.14973 0.83863 0.36637 0.0
C1197 C 0.18791 0.82618 0.41445 0.0
C1198 C 0.1867 0.8263 0.44129 0.0
C1199 C 0.18078 0.83152 0.42759 0.0
C1200 C 0.19986 0.8155 0.44153 0.0
C1201 C 0.20113 0.8156 0.41496 0.0
C1202 C 0.20698 0.81023 0.42846 0.0
C1203 C 0.19386 0.88576 0.36328 0.0
C1204 C 0.18185 0.83246 0.40041 0.0
C1205 C 0.25259 0.80585 0.37141 0.0
C1206 C 0.26856 0.82892 0.3712 0.0
C1207 C 0.21882 0.86505 0.3446 0.0
C1208 C 0.17057 0.84958 0.2933 0.0
C1209 C 0.17846 0.84484 0.28025 0.0
C1210 C 0.16925 0.84597 0.26659 0.0
C1211 C 0.15218 0.85215 0.26626 0.0
C1212 C 0.1535 0.85562 0.29268 0.0
C1213 C 0.14443 0.85696 0.27921 0.0
C1214 C 0.16941 0.80102 0.34499 0.0
C1215 C 0.17981 0.84747 0.30746 0.0
H1216 H 0.17096 0.84013 0.42709 0.0
H1217 H 0.20445 0.81086 0.4518 0.0
H1218 H 0.20697 0.81158 0.40497 0.0
H1219 H 0.2171 0.80195 0.42882 0.0
H1220 H 0.19142 0.83985 0.28078 0.0
H1221 H 0.14496 0.85351 0.25596 0.0
H1222 H 0.14712 0.85919 0.30257 0.0
H1223 H 0.1313 0.86171 0.2788 0.0
Eu1224 Eu 0.83489 0.66023 0.66898 0.0
C1225 C 0.88538 0.74106 0.71223 0.0
C1226 C 0.92547 0.75149 0.71036 0.0
C1227 C 0.91522 0.7799 0.71624 0.0
C1228 C 0.90192 0.73518 0.70948 0.0
C1229 C 0.89182 0.76337 0.716 0.0
C1230 C 0.93202 0.77398 0.71341 0.0
C1231 C 0.85166 0.75088 0.72024 0.0
N1232 N 0.86298 0.72465 0.71204 0.0
C1233 C 0.84615 0.729 0.71646 0.0
C1234 C 0.87457 0.76822 0.71982 0.0
Eu1235 Eu 0.85482 0.68821 0.70503 0.0
N1236 N 0.89498 0.71327 0.70674 0.0
C1237 C 0.91071 0.70623 0.70584 0.0
C1238 C 0.9417 0.74458 0.70856 0.0
C1239 C 0.93427 0.72179 0.70651 0.0
H1240 H 0.8284 0.71566 0.7167 0.0
H1241 H 0.94666 0.71619 0.7054 0.0
H1242 H 0.95003 0.78679 0.71398 0.0
H1243 H 0.83823 0.75437 0.72343 0.0
H1244 H 0.90523 0.68869 0.70419 0.0
H1245 H 0.74309 0.63241 0.66831 0.0
H1246 H 0.95996 0.75659 0.7091 0.0
H1247 H 0.86135 0.63249 0.65785 0.0
H1248 H 0.78453 0.65986 0.66961 0.0
H1249 H 0.85148 0.59364 0.65152 0.0
H1250 H 0.92052 0.79719 0.71897 0.0
H1251 H 0.72976 0.59198 0.66471 0.0
H1252 H 0.73965 0.56169 0.66012 0.0
H1253 H 0.87881 0.78514 0.72279 0.0
H1254 H 0.76913 0.55113 0.65551 0.0
N1255 N 0.79474 0.63524 0.66717 0.0
C1256 C 0.77904 0.64232 0.66799 0.0
C1257 C 0.74802 0.60397 0.66528 0.0
C1258 C 0.76424 0.59701 0.66361 0.0
C1259 C 0.75548 0.62678 0.66727 0.0
C1260 C 0.78779 0.6133 0.66451 0.0
H1261 H 0.81086 0.56298 0.65205 0.0
N1262 N 0.82675 0.62369 0.66224 0.0
C1263 C 0.83805 0.59724 0.6545 0.0
C1264 C 0.80432 0.60733 0.66197 0.0
C1265 C 0.84358 0.6192 0.65805 0.0
C1266 C 0.81511 0.57997 0.65485 0.0
C1267 C 0.79786 0.58495 0.6584 0.0
O1268 O 0.8528 0.66816 0.64789 0.0
O1269 O 0.86318 0.68842 0.68137 0.0
O1270 O 0.85068 0.71237 0.69005 0.0
O1271 O 0.82508 0.68738 0.67276 0.0
O1272 O 0.87297 0.67227 0.66649 0.0
O1273 O 0.82276 0.67165 0.65037 0.0
O1274 O 0.83764 0.68084 0.72638 0.0
O1275 O 0.82656 0.66024 0.69259 0.0
O1276 O 0.83857 0.63603 0.68412 0.0
O1277 O 0.86467 0.66106 0.70115 0.0
O1278 O 0.81665 0.67588 0.70771 0.0
O1279 O 0.86666 0.67583 0.72326 0.0
C1280 C 0.88041 0.68866 0.67567 0.0
C1281 C 0.83033 0.66252 0.6268 0.0
C1282 C 0.83221 0.66596 0.60003 0.0
C1283 C 0.83911 0.67578 0.61402 0.0
C1284 C 0.81626 0.64276 0.59911 0.0
C1285 C 0.81439 0.63949 0.62554 0.0
C1286 C 0.80741 0.6297 0.61177 0.0
C1287 C 0.83584 0.70741 0.67918 0.0
C1288 C 0.83833 0.67268 0.64135 0.0
C1289 C 0.77445 0.56846 0.65809 0.0
C1290 C 0.75766 0.57448 0.66071 0.0
C1291 C 0.80925 0.65973 0.69836 0.0
C1292 C 0.86061 0.68534 0.74709 0.0
C1293 C 0.85229 0.67194 0.75983 0.0
C1294 C 0.86071 0.68126 0.77379 0.0
C1295 C 0.87742 0.70427 0.77468 0.0
C1296 C 0.87733 0.70814 0.74832 0.0
C1297 C 0.88563 0.71753 0.76204 0.0
C1298 C 0.85358 0.64096 0.69486 0.0
C1299 C 0.85173 0.67547 0.73257 0.0
H1300 H 0.85157 0.69357 0.61498 0.0
H1301 H 0.81035 0.63474 0.58856 0.0
H1302 H 0.80739 0.62906 0.6352 0.0
H1303 H 0.79508 0.61189 0.6109 0.0
H1304 H 0.83953 0.65425 0.75884 0.0
H1305 H 0.88396 0.71218 0.78518 0.0
H1306 H 0.88395 0.71869 0.73868 0.0
H1307 H 0.89844 0.73519 0.7629 0.0
Eu1308 Eu 0.36354 0.18159 0.66968 0.0
C1309 C 0.27339 0.14337 0.70722 0.0
C1310 C 0.26197 0.17165 0.7055 0.0
C1311 C 0.23295 0.13228 0.70886 0.0
C1312 C 0.27918 0.16558 0.70532 0.0
C1313 C 0.25027 0.1265 0.70934 0.0
C1314 C 0.23879 0.15482 0.70693 0.0
C1315 C 0.2633 0.09986 0.71348 0.0
N1316 N 0.29055 0.13842 0.70778 0.0
C1317 C 0.28598 0.1172 0.71137 0.0
C1318 C 0.24533 0.10447 0.71228 0.0
Eu1319 Eu 0.32841 0.16835 0.70349 0.0
N1320 N 0.30175 0.18142 0.70412 0.0
C1321 C 0.30841 0.20378 0.70421 0.0
C1322 C 0.26864 0.1945 0.70467 0.0
C1323 C 0.29199 0.21065 0.70426 0.0
H1324 H 0.29983 0.11354 0.71221 0.0
H1325 H 0.29736 0.22838 0.70392 0.0
H1326 H 0.22532 0.15913 0.70694 0.0
H1327 H 0.25971 0.08296 0.716 0.0
H1328 H 0.32637 0.21646 0.70383 0.0
H1329 H 0.39371 0.12082 0.66896 0.0
H1330 H 0.25596 0.19986 0.70473 0.0
H1331 H 0.39259 0.23642 0.66111 0.0
H1332 H 0.36504 0.13312 0.66929 0.0
H1333 H 0.4328 0.26672 0.65723 0.0
H1334 H 0.21505 0.11954 0.71032 0.0
H1335 H 0.43519 0.14903 0.66791 0.0
H1336 H 0.46611 0.18962 0.66561 0.0
H1337 H 0.22778 0.09103 0.71397 0.0
H1338 H 0.47677 0.22934 0.66233 0.0
N1339 N 0.38989 0.16811 0.66884 0.0
C1340 C 0.38302 0.14569 0.66878 0.0
C1341 C 0.42265 0.15457 0.66805 0.0
C1342 C 0.42954 0.17746 0.66722 0.0
C1343 C 0.39926 0.1386 0.6686 0.0
C1344 C 0.4125 0.18376 0.66752 0.0
H1345 H 0.46445 0.2582 0.65895 0.0
N1346 N 0.40152 0.21123 0.66528 0.0
C1347 C 0.42904 0.24974 0.65965 0.0
C1348 C 0.41851 0.20604 0.66568 0.0
C1349 C 0.4063 0.23256 0.66182 0.0
C1350 C 0.44685 0.24488 0.66067 0.0
C1351 C 0.44169 0.22274 0.66351 0.0
O1352 O 0.36016 0.19354 0.64808 0.0
O1353 O 0.33238 0.17915 0.68013 0.0
O1354 O 0.30703 0.14187 0.68661 0.0
O1355 O 0.33624 0.14415 0.67159 0.0
O1356 O 0.35086 0.20648 0.66653 0.0
O1357 O 0.35306 0.15927 0.65079 0.0
O1358 O 0.33218 0.15668 0.72508 0.0
O1359 O 0.35955 0.17092 0.69302 0.0
O1360 O 0.38491 0.20806 0.68657 0.0
O1361 O 0.35574 0.20578 0.70165 0.0
O1362 O 0.34157 0.1438 0.70683 0.0
O1363 O 0.33787 0.19049 0.72245 0.0
C1364 C 0.33274 0.19621 0.67461 0.0
C1365 C 0.36639 0.17629 0.62764 0.0
C1366 C 0.36489 0.17395 0.60092 0.0
C1367 C 0.35437 0.17304 0.61445 0.0
C1368 C 0.3877 0.17827 0.60082 0.0
C1369 C 0.38914 0.18068 0.62731 0.0
C1370 C 0.39971 0.18167 0.61394 0.0
C1371 C 0.3146 0.1336 0.67632 0.0
C1372 C 0.35477 0.17464 0.6416 0.0
C1373 C 0.45884 0.21673 0.66384 0.0
C1374 C 0.45277 0.19412 0.66571 0.0
C1375 C 0.35957 0.15411 0.69864 0.0
C1376 C 0.32471 0.173 0.74552 0.0
C1377 C 0.33674 0.17699 0.75877 0.0
C1378 C 0.32572 0.17515 0.77226 0.0
C1379 C 0.30237 0.16916 0.77222 0.0
C1380 C 0.30147 0.16702 0.74572 0.0
C1381 C 0.29038 0.16511 0.75904 0.0
C1382 C 0.37737 0.21633 0.69689 0.0
C1383 C 0.33673 0.17532 0.73162 0.0
H1384 H 0.33671 0.16943 0.61477 0.0
H1385 H 0.39636 0.17932 0.5906 0.0
H1386 H 0.39864 0.18324 0.63736 0.0
H1387 H 0.41728 0.18508 0.61374 0.0
H1388 H 0.35479 0.18184 0.75853 0.0
H1389 H 0.29328 0.1673 0.78239 0.0
H1390 H 0.29195 0.16389 0.73563 0.0
H1391 H 0.27242 0.16043 0.75914 0.0
Eu1392 Eu 0.85686 0.16818 0.70322 0.0
C1393 C 0.80888 0.20757 0.6638 0.0
C1394 C 0.76831 0.1799 0.66504 0.0
C1395 C 0.78045 0.21945 0.66138 0.0
C1396 C 0.79157 0.1855 0.66565 0.0
C1397 C 0.80354 0.22475 0.66133 0.0
C1398 C 0.76286 0.19705 0.66324 0.0
C1399 C 0.84411 0.25075 0.65772 0.0
N1400 N 0.83095 0.21206 0.66366 0.0
C1401 C 0.84851 0.23311 0.66017 0.0
C1402 C 0.82154 0.24662 0.65847 0.0
Eu1403 Eu 0.83725 0.18166 0.66857 0.0
N1404 N 0.79745 0.16935 0.66719 0.0
C1405 C 0.78093 0.1471 0.66704 0.0
C1406 C 0.75126 0.15718 0.6658 0.0
C1407 C 0.75762 0.14069 0.66657 0.0
H1408 H 0.86599 0.2364 0.65968 0.0
H1409 H 0.74459 0.12304 0.66686 0.0
H1410 H 0.7451 0.19311 0.66289 0.0
H1411 H 0.85811 0.26751 0.65527 0.0
H1412 H 0.78556 0.13417 0.66769 0.0
H1413 H 0.94951 0.2271 0.70482 0.0
H1414 H 0.7332 0.15217 0.66541 0.0
H1415 H 0.82825 0.11341 0.71208 0.0
H1416 H 0.90854 0.21583 0.70378 0.0
H1417 H 0.83626 0.08245 0.71669 0.0
H1418 H 0.77599 0.23244 0.65963 0.0
H1419 H 0.96103 0.19812 0.70686 0.0
H1420 H 0.94928 0.15728 0.70976 0.0
H1421 H 0.81816 0.26029 0.65651 0.0
H1422 H 0.91848 0.11791 0.71304 0.0
N1423 N 0.89671 0.18067 0.7048 0.0
C1424 C 0.91319 0.20294 0.7047 0.0
C1425 C 0.94295 0.19304 0.7064 0.0
C1426 C 0.92596 0.17031 0.70733 0.0
C1427 C 0.93652 0.20944 0.70528 0.0
C1428 C 0.90268 0.16461 0.7066 0.0
H1429 H 0.87631 0.0899 0.71585 0.0
N1430 N 0.86332 0.13792 0.70836 0.0
C1431 C 0.85025 0.09925 0.71432 0.0
C1432 C 0.88543 0.14253 0.70843 0.0
C1433 C 0.84578 0.11681 0.71175 0.0
C1434 C 0.87287 0.10351 0.7138 0.0
C1435 C 0.89084 0.12543 0.71104 0.0
O1436 O 0.83986 0.15716 0.72454 0.0
O1437 O 0.829 0.17109 0.69194 0.0
O1438 O 0.84268 0.20837 0.68519 0.0
O1439 O 0.86876 0.20567 0.70074 0.0
O1440 O 0.81853 0.14384 0.70579 0.0
O1441 O 0.86928 0.1906 0.72212 0.0
O1442 O 0.85411 0.19283 0.64721 0.0
O1443 O 0.86495 0.17858 0.67985 0.0
O1444 O 0.85141 0.14144 0.68668 0.0
O1445 O 0.82554 0.14413 0.67088 0.0
O1446 O 0.8757 0.20564 0.66584 0.0
O1447 O 0.82447 0.1595 0.64957 0.0
C1448 C 0.81152 0.15422 0.69731 0.0
C1449 C 0.86285 0.17345 0.74546 0.0
C1450 C 0.86305 0.17645 0.7722 0.0
C1451 C 0.8549 0.17852 0.75836 0.0
C1452 C 0.87923 0.1691 0.77283 0.0
C1453 C 0.87898 0.16622 0.74638 0.0
C1454 C 0.88709 0.16406 0.76001 0.0
C1455 C 0.85831 0.21643 0.69572 0.0
C1456 C 0.85419 0.17579 0.73115 0.0
C1457 C 0.91397 0.13084 0.71118 0.0
C1458 C 0.9315 0.15325 0.70931 0.0
C1459 C 0.88255 0.19515 0.67436 0.0
C1460 C 0.83069 0.17718 0.62638 0.0
C1461 C 0.83991 0.17445 0.6132 0.0
C1462 C 0.83193 0.17752 0.59956 0.0
C1463 C 0.81441 0.18311 0.59941 0.0
C1464 C 0.81331 0.1828 0.62592 0.0
C1465 C 0.8052 0.18569 0.61249 0.0
C1466 C 0.83579 0.1333 0.67615 0.0
C1467 C 0.83951 0.17439 0.64053 0.0
H1468 H 0.84262 0.18434 0.75757 0.0
H1469 H 0.88558 0.16691 0.78324 0.0
H1470 H 0.88527 0.16225 0.73659 0.0
H1471 H 0.89948 0.15838 0.76066 0.0
H1472 H 0.85354 0.17036 0.61358 0.0
H1473 H 0.80762 0.18527 0.58915 0.0
H1474 H 0.80601 0.18494 0.63592 0.0
H1475 H 0.79171 0.18996 0.61221 0.0
H1476 H 0.36712 0.86309 0.05302 0.0
H1477 H 0.43891 0.99579 0.03667 0.0
H1478 H 0.33997 0.90786 0.05857 0.0
H1479 H 0.46613 0.95141 0.02995 0.0
H1480 H 0.40168 0.96323 0.04318 0.0
H1481 H 0.40279 0.89464 0.04336 0.0
C1482 C 0.36866 0.87955 0.05227 0.0
C1483 C 0.35047 0.88278 0.05671 0.0
C1484 C 0.41568 0.96052 0.04011 0.0
C1485 C 0.39129 0.91902 0.04551 0.0
C1486 C 0.43689 0.9791 0.03636 0.0
C1487 C 0.45546 0.97623 0.03253 0.0
C1488 C 0.4131 0.93887 0.04033 0.0
C1489 C 0.45212 0.95431 0.03253 0.0
C1490 C 0.38899 0.89754 0.04664 0.0
C1491 C 0.35338 0.90446 0.05519 0.0
N1492 N 0.43137 0.93648 0.03643 0.0
N1493 N 0.37338 0.92171 0.0498 0.0
H1494 H 0.11639 0.43803 0.05886 0.0
H1495 H 0.0715 0.52147 0.03325 0.0
H1496 H 0.15983 0.51029 0.05688 0.0
H1497 H 0.02759 0.44976 0.03835 0.0
H1498 H 0.10468 0.51763 0.04004 0.0
H1499 H 0.08434 0.44187 0.04969 0.0
C1500 C 0.11926 0.45472 0.05642 0.0
C1501 C 0.14092 0.47386 0.0587 0.0
C1502 C 0.08783 0.50269 0.03958 0.0
C1503 C 0.10407 0.47841 0.04825 0.0
C1504 C 0.06891 0.50487 0.03557 0.0
C1505 C 0.04686 0.48582 0.03494 0.0
C1506 C 0.08461 0.48133 0.04318 0.0
C1507 C 0.04437 0.46481 0.03853 0.0
C1508 C 0.10089 0.45691 0.05123 0.0
C1509 C 0.14341 0.49506 0.0555 0.0
N1510 N 0.06299 0.46311 0.04246 0.0
N1511 N 0.12525 0.49676 0.05045 0.0
H1512 H 0.57998 0.66768 0.0851 0.0
H1513 H 0.50422 0.5771 0.02417 0.0
H1514 H 0.53297 0.6755 0.05674 0.0
H1515 H 0.55731 0.57484 0.04954 0.0
H1516 H 0.51398 0.61286 0.03586 0.0
H1517 H 0.57137 0.63341 0.07214 0.0
C1518 C 0.568 0.66235 0.07605 0.0
C1519 C 0.55731 0.67469 0.072 0.0
C1520 C 0.52355 0.60456 0.03879 0.0
C1521 C 0.54698 0.63494 0.05719 0.0
C1522 C 0.51805 0.58417 0.03207 0.0
C1523 C 0.53002 0.57291 0.03579 0.0
C1524 C 0.54103 0.6137 0.04939 0.0
C1525 C 0.54755 0.5828 0.04629 0.0
C1526 C 0.56296 0.64263 0.0687 0.0
C1527 C 0.54148 0.66648 0.06038 0.0
N1528 N 0.55245 0.60253 0.05272 0.0
N1529 N 0.53678 0.64713 0.0534 0.0
H1530 H 0.8596 0.34339 0.98205 0.0
H1531 H 0.99073 0.44149 0.9914 0.0
H1532 H 0.91679 0.34649 0.95839 0.0
H1533 H 0.9341 0.44162 1.01371 0.0
H1534 H 0.96374 0.40581 0.98008 0.0
H1535 H 0.88636 0.3785 0.99444 0.0
C1536 C 0.87774 0.35143 0.97942 0.0
C1537 C 0.88588 0.34182 0.96915 0.0
C1538 C 0.95717 0.41356 0.98749 0.0
C1539 C 0.91667 0.38201 0.98342 0.0
C1540 C 0.97263 0.43401 0.994 0.0
C1541 C 0.96477 0.44465 1.00361 0.0
C1542 C 0.93355 0.40353 0.99055 0.0
C1543 C 0.94103 0.43399 1.00649 0.0
C1544 C 0.89303 0.37144 0.98657 0.0
C1545 C 0.90966 0.35294 0.96638 0.0
N1546 N 0.92627 0.41406 0.99998 0.0
N1547 N 0.92414 0.37238 0.97344 0.0
H1548 H 0.6881 0.57691 0.97947 0.0
H1549 H 0.55909 0.49572 1.00789 0.0
H1550 H 0.65876 0.50525 0.98557 0.0
H1551 H 0.58937 0.56747 1.00231 0.0
H1552 H 0.59597 0.49893 1.00119 0.0
H1553 H 0.6525 0.57383 0.98871 0.0
C1554 C 0.67414 0.56049 0.98267 0.0
C1555 C 0.6765 0.5413 0.98164 0.0
C1556 C 0.59464 0.51402 1.00156 0.0
C1557 C 0.63557 0.53768 0.99246 0.0
C1558 C 0.57363 0.5122 1.00552 0.0
C1559 C 0.57133 0.53144 1.00593 0.0
C1560 C 0.61338 0.53519 0.99773 0.0
C1561 C 0.59053 0.55228 1.00228 0.0
C1562 C 0.65384 0.55876 0.98806 0.0
C1563 C 0.65788 0.52055 0.98626 0.0
N1564 N 0.61069 0.5536 0.99832 0.0
N1565 N 0.63822 0.51928 0.9914 0.0
H1566 H 0.50536 0.16846 0.99682 0.0
H1567 H 0.47449 0.03997 0.99061 0.0
H1568 H 0.46466 0.12443 0.96178 0.0
H1569 H 0.52722 0.08804 0.01927 0.0
H1570 H 0.46827 0.0699 0.98127 0.0
H1571 H 0.51135 0.1385 1.0064 0.0
C1572 C 0.4978 0.15258 0.99105 0.0
C1573 C 0.48452 0.14911 0.97839 0.0
C1574 C 0.48115 0.07388 0.98964 0.0
C1575 C 0.49099 0.11446 0.98956 0.0
C1576 C 0.48471 0.05677 0.99502 0.0
C1577 C 0.5013 0.06137 1.00587 0.0
C1578 C 0.49419 0.09581 0.99516 0.0
C1579 C 0.514 0.08355 1.01109 0.0
C1580 C 0.50113 0.13541 0.99661 0.0
C1581 C 0.47475 0.12789 0.97166 0.0
N1582 N 0.51015 0.0999 1.00571 0.0
N1583 N 0.47816 0.11142 0.97732 0.0
H1584 H 0.68986 0.11083 0.98041 0.0
H1585 H 0.56146 0.06815 1.00885 0.0
H1586 H 0.66058 0.15411 0.98388 0.0
H1587 H 0.58891 0.0242 1.00106 0.0
H1588 H 0.59886 0.10056 1.00234 0.0
H1589 H 0.65427 0.07969 0.99032 0.0
C1590 C 0.67602 0.11385 0.98335 0.0
C1591 C 0.67826 0.13517 0.98123 0.0
C1592 C 0.59679 0.08386 1.00218 0.0
C1593 C 0.63723 0.09939 0.99254 0.0
C1594 C 0.57549 0.06538 1.00603 0.0
C1595 C 0.57225 0.04352 1.00573 0.0
C1596 C 0.61488 0.08042 0.99781 0.0
C1597 C 0.59082 0.04082 1.00157 0.0
C1598 C 0.65562 0.096 0.98895 0.0
C1599 C 0.65954 0.13792 0.9851 0.0
N1600 N 0.61131 0.05902 0.99777 0.0
N1601 N 0.63985 0.12026 0.99054 0.0
H1602 H 0.86882 0.50761 0.97508 0.0
H1603 H 0.99909 0.56821 1.00283 0.0
H1604 H 0.91271 0.57972 0.97771 0.0
H1605 H 0.95372 0.4964 1.00546 0.0
H1606 H 0.96678 0.57262 0.99489 0.0
H1607 H 0.89869 0.5029 0.98724 0.0
C1608 C 0.88468 0.52246 0.97825 0.0
C1609 C 0.88823 0.54411 0.97527 0.0
C1610 C 0.96373 0.55589 0.99738 0.0
C1611 C 0.92255 0.53881 0.98924 0.0
C1612 C 0.98218 0.5534 1.00192 0.0
C1613 C 0.97897 0.53197 1.005 0.0
C1614 C 0.94192 0.53674 0.99552 0.0
C1615 C 0.95682 0.51326 1.00345 0.0
C1616 C 0.90169 0.51974 0.98527 0.0
C1617 C 0.90904 0.5627 0.97986 0.0
N1618 N 0.93915 0.51606 0.99872 0.0
N1619 N 0.92541 0.55962 0.98647 0.0
H1620 H 0.44247 0.34772 0.95682 0.0
H1621 H 0.52338 0.44267 1.01416 0.0
H1622 H 0.50001 0.34821 0.97822 0.0
H1623 H 0.46778 0.44272 0.99042 0.0
H1624 H 0.51388 0.40696 1.00251 0.0
H1625 H 0.4504 0.3814 0.97031 0.0
C1626 C 0.45686 0.35496 0.96433 0.0
C1627 C 0.47075 0.3452 0.96624 0.0
C1628 C 0.50372 0.41476 0.99992 0.0
C1629 C 0.47982 0.38386 0.98194 0.0
C1630 C 0.50906 0.43512 1.00662 0.0
C1631 C 0.49635 0.44577 1.00331 0.0
C1632 C 0.48555 0.40497 0.98982 0.0
C1633 C 0.47814 0.43525 0.99331 0.0
C1634 C 0.46131 0.37417 0.97211 0.0
C1635 C 0.48879 0.35508 0.97642 0.0
N1636 N 0.47335 0.41552 0.98693 0.0
N1637 N 0.49289 0.37393 0.98383 0.0
H1638 H 0.16626 0.67395 0.05591 0.0
H1639 H 0.03485 0.57552 0.04856 0.0
H1640 H 0.10988 0.67186 0.07997 0.0
H1641 H 0.09089 0.57496 0.02574 0.0
H1642 H 0.06216 0.61154 0.05941 0.0
H1643 H 0.13909 0.63842 0.04413 0.0
C1644 C 0.14821 0.66605 0.05875 0.0
C1645 C 0.14042 0.67605 0.06896 0.0
C1646 C 0.06852 0.60361 0.05199 0.0
C1647 C 0.10914 0.63537 0.05539 0.0
C1648 C 0.05288 0.58297 0.04576 0.0
C1649 C 0.06049 0.57213 0.03613 0.0
C1650 C 0.09204 0.61361 0.04863 0.0
C1651 C 0.08415 0.58274 0.03298 0.0
C1652 C 0.13268 0.64579 0.05196 0.0
C1653 C 0.11673 0.66508 0.07202 0.0
N1654 N 0.09906 0.60285 0.03922 0.0
N1655 N 0.102 0.6454 0.0653 0.0
H1656 H 0.3707 0.51167 0.06381 0.0
H1657 H 0.43703 0.44992 0.03476 0.0
H1658 H 0.3394 0.43956 0.05975 0.0
H1659 H 0.46621 0.52192 0.03268 0.0
H1660 H 0.40031 0.44599 0.04243 0.0
H1661 H 0.40501 0.51611 0.05125 0.0
C1662 C 0.37097 0.49677 0.06023 0.0
C1663 C 0.3521 0.47518 0.06295 0.0
C1664 C 0.41459 0.46267 0.04011 0.0
C1665 C 0.3914 0.48018 0.04852 0.0
C1666 C 0.43553 0.46488 0.03571 0.0
C1667 C 0.45455 0.48622 0.03293 0.0
C1668 C 0.41273 0.482 0.04213 0.0
C1669 C 0.45184 0.50513 0.0345 0.0
C1670 C 0.39054 0.49933 0.05298 0.0
C1671 C 0.35337 0.45654 0.05783 0.0
N1672 N 0.43137 0.50259 0.03913 0.0
N1673 N 0.37271 0.45946 0.05102 0.0
H1674 H 0.57357 0.89895 0.07257 0.0
H1675 H 0.49785 0.93104 0.02065 0.0
H1676 H 0.51539 0.85038 0.04754 0.0
H1677 H 0.55513 0.97972 0.0463 0.0
H1678 H 0.50449 0.90144 0.03007 0.0
H1679 H 0.5672 0.92879 0.06307 0.0
C1680 C 0.55936 0.89451 0.06516 0.0
C1681 C 0.54502 0.87205 0.06086 0.0
C1682 C 0.51566 0.9186 0.03362 0.0
C1683 C 0.5378 0.90626 0.04977 0.0
C1684 C 0.51196 0.93558 0.02816 0.0
C1685 C 0.52606 0.95801 0.03257 0.0
C1686 C 0.53355 0.92399 0.04362 0.0
C1687 C 0.54382 0.96271 0.04255 0.0
C1688 C 0.55583 0.9116 0.05965 0.0
C1689 C 0.52711 0.86744 0.05102 0.0
N1690 N 0.54704 0.94586 0.04773 0.0
N1691 N 0.52403 0.88436 0.04582 0.0
H1692 H 0.03145 0.19468 0.38655 0.0
H1693 H 0.10164 0.3278 0.37129 0.0
H1694 H 1.00335 0.23853 0.39276 0.0
H1695 H 0.12997 0.28446 0.36408 0.0
H1696 H 0.06468 0.29477 0.37767 0.0
H1697 H 0.06693 0.22676 0.37712 0.0
C1698 C 0.03273 0.21104 0.38599 0.0
C1699 C 0.01431 0.21384 0.39055 0.0
C1700 C 0.07887 0.29239 0.37454 0.0
C1701 C 0.05496 0.25071 0.37961 0.0
C1702 C 0.09993 0.31124 0.37086 0.0
C1703 C 0.11874 0.30881 0.36692 0.0
C1704 C 0.07666 0.27089 0.37457 0.0
C1705 C 0.11577 0.28704 0.36676 0.0
C1706 C 0.05297 0.22934 0.3805 0.0
C1707 C 0.01692 0.23543 0.38927 0.0
N1708 N 0.09516 0.26892 0.37059 0.0
N1709 N 0.03683 0.25299 0.38401 0.0
H1710 H 0.82831 0.84367 0.38871 0.0
H1711 H 0.69344 0.78222 0.37063 0.0
H1712 H 0.78236 0.77197 0.3926 0.0
H1713 H 0.73862 0.8539 0.36653 0.0
H1714 H 0.72634 0.7781 0.37758 0.0
H1715 H 0.79625 0.84781 0.37973 0.0
C1716 C 0.81148 0.8288 0.38776 0.0
C1717 C 0.8081 0.80743 0.39149 0.0
C1718 C 0.72917 0.79473 0.37504 0.0
C1719 C 0.77127 0.81206 0.38106 0.0
C1720 C 0.71039 0.79706 0.37103 0.0
C1721 C 0.71341 0.81835 0.36772 0.0
C1722 C 0.75116 0.81391 0.37601 0.0
C1723 C 0.73564 0.83711 0.36867 0.0
C1724 C 0.7932 0.83117 0.38253 0.0
C1725 C 0.78592 0.78875 0.38974 0.0
N1726 N 0.75367 0.83446 0.37274 0.0
N1727 N 0.76842 0.79152 0.38472 0.0
H1728 H 0.24867 1.00395 0.41762 0.0
H1729 H 0.1761 0.91315 0.35598 0.0
H1730 H 0.20199 0.01107 0.38853 0.0
H1731 H 0.22453 0.90904 0.38508 0.0
H1732 H 0.18563 0.94929 0.36701 0.0
H1733 H 0.24043 0.96954 0.40507 0.0
C1734 C 0.23684 0.99843 0.40848 0.0
C1735 C 0.22614 0.0106 0.4041 0.0
C1736 C 0.19429 0.94052 0.37086 0.0
C1737 C 0.21621 0.97066 0.38975 0.0
C1738 C 0.18899 0.91994 0.36448 0.0
C1739 C 0.1998 0.90808 0.36937 0.0
C1740 C 0.21042 0.94924 0.38227 0.0
C1741 C 0.21587 0.9175 0.38077 0.0
C1742 C 0.232 0.97861 0.40136 0.0
C1743 C 0.21051 1.00217 0.39238 0.0
N1744 N 0.22065 0.93743 0.38679 0.0
N1745 N 0.20601 0.98271 0.38561 0.0
H1746 H 0.52555 0.67774 0.31524 0.0
H1747 H 0.65724 0.7752 0.32376 0.0
H1748 H 0.58204 0.67997 0.29122 0.0
H1749 H 0.60118 0.77588 0.34646 0.0
H1750 H 0.62983 0.7396 0.31248 0.0
H1751 H 0.55276 0.71295 0.32735 0.0
C1752 C 0.54363 0.68561 0.31247 0.0
C1753 C 0.55143 0.67571 0.30218 0.0
C1754 C 0.62349 0.74746 0.31997 0.0
C1755 C 0.58277 0.71605 0.31615 0.0
C1756 C 0.63918 0.76787 0.32645 0.0
C1757 C 0.63161 0.77863 0.33618 0.0
C1758 C 0.59992 0.73759 0.32316 0.0
C1759 C 0.60791 0.76816 0.33916 0.0
C1760 C 0.55919 0.70569 0.31946 0.0
C1761 C 0.57516 0.68665 0.29923 0.0
N1762 N 0.59293 0.74827 0.33268 0.0
N1763 N 0.5899 0.70615 0.30614 0.0
H1764 H 0.3264 0.84036 0.31383 0.0
H1765 H 0.26019 0.90327 0.34219 0.0
H1766 H 0.35852 0.91243 0.31861 0.0
H1767 H 0.2282 0.83109 0.33922 0.0
H1768 H 0.29677 0.90676 0.33446 0.0
H1769 H 0.29063 0.83638 0.32368 0.0
C1770 C 0.32593 0.85537 0.31687 0.0
C1771 C 0.34558 0.87679 0.31531 0.0
C1772 C 0.28186 0.89012 0.33564 0.0
C1773 C 0.3046 0.87231 0.32676 0.0
C1774 C 0.26102 0.88815 0.3401 0.0
C1775 C 0.24136 0.86688 0.34168 0.0
C1776 C 0.28296 0.87066 0.3324 0.0
C1777 C 0.24314 0.8478 0.33849 0.0
C1778 C 0.30552 0.85306 0.3226 0.0
C1779 C 0.34396 0.89557 0.31972 0.0
N1780 N 0.26357 0.85013 0.33399 0.0
N1781 N 0.32387 0.89289 0.32516 0.0
H1782 H 0.11373 0.45193 0.30127 0.0
H1783 H 0.19138 0.42161 0.35265 0.0
H1784 H 0.17079 0.50091 0.32689 0.0
H1785 H 0.13496 0.37251 0.32662 0.0
H1786 H 0.18369 0.45071 0.34359 0.0
H1787 H 0.12116 0.4226 0.31041 0.0
C1788 C 0.12791 0.45657 0.30874 0.0
C1789 C 0.14162 0.47899 0.31331 0.0
C1790 C 0.17294 0.43356 0.33989 0.0
C1791 C 0.15007 0.44535 0.32398 0.0
C1792 C 0.17724 0.41686 0.34513 0.0
C1793 C 0.16368 0.39446 0.34052 0.0
C1794 C 0.15498 0.42792 0.32989 0.0
C1795 C 0.14586 0.38951 0.33053 0.0
C1796 C 0.13205 0.43976 0.31404 0.0
C1797 C 0.15953 0.48385 0.32321 0.0
N1798 N 0.14204 0.40608 0.32556 0.0
N1799 N 0.16322 0.46721 0.32819 0.0
H1800 H 0.35299 0.4448 0.31428 0.0
H1801 H 0.22478 0.40236 0.34319 0.0
H1802 H 0.32402 0.48834 0.31786 0.0
H1803 H 0.25247 0.35854 0.33565 0.0
H1804 H 0.26213 0.43481 0.33649 0.0
H1805 H 0.31747 0.41384 0.32436 0.0
C1806 C 0.33924 0.44793 0.31728 0.0
C1807 C 0.34159 0.46929 0.31515 0.0
C1808 C 0.26012 0.41813 0.33644 0.0
C1809 C 0.30056 0.43365 0.32666 0.0
C1810 C 0.23886 0.39963 0.3404 0.0
C1811 C 0.23568 0.37778 0.3402 0.0
C1812 C 0.27824 0.41471 0.33207 0.0
C1813 C 0.25431 0.37514 0.33607 0.0
C1814 C 0.31887 0.43017 0.32299 0.0
C1815 C 0.32293 0.47213 0.31908 0.0
N1816 N 0.27473 0.39334 0.33217 0.0
N1817 N 0.30325 0.45454 0.32462 0.0
H1818 H 0.53699 0.84205 0.30777 0.0
H1819 H 0.66714 0.90237 0.33576 0.0
H1820 H 0.58099 0.91414 0.31037 0.0
H1821 H 0.62156 0.8306 0.33834 0.0
H1822 H 0.63494 0.90691 0.32771 0.0
H1823 H 0.56677 0.83728 0.32001 0.0
C1824 C 0.55286 0.85689 0.31095 0.0
C1825 C 0.55647 0.87855 0.30794 0.0
C1826 C 0.63183 0.89016 0.33021 0.0
C1827 C 0.59069 0.87318 0.32199 0.0
C1828 C 0.65022 0.8876 0.33482 0.0
C1829 C 0.64691 0.86614 0.33791 0.0
C1830 C 0.61 0.87106 0.32832 0.0
C1831 C 0.62474 0.84748 0.33632 0.0
C1832 C 0.56982 0.85414 0.31801 0.0
C1833 C 0.57728 0.89712 0.31254 0.0
N1834 N 0.60714 0.85035 0.33154 0.0
N1835 N 0.59361 0.894 0.3192 0.0
H1836 H 0.16407 0.69898 0.28807 0.0
H1837 H 0.14248 0.75843 0.35697 0.0
H1838 H 0.11308 0.66121 0.32117 0.0
H1839 H 0.18592 0.79339 0.31992 0.0
H1840 H 0.13417 0.7224 0.34593 0.0
H1841 H 0.17503 0.73345 0.3015 0.0
C1842 C 0.15512 0.69794 0.29817 0.0
C1843 C 0.13738 0.67717 0.30337 0.0
C1844 C 0.14559 0.73801 0.34029 0.0
C1845 C 0.14999 0.71682 0.31897 0.0
C1846 C 0.15042 0.75855 0.34662 0.0
C1847 C 0.1648 0.77894 0.33932 0.0
C1848 C 0.15538 0.738 0.32666 0.0
C1849 C 0.1745 0.77811 0.32588 0.0
C1850 C 0.16145 0.71767 0.30589 0.0
C1851 C 0.12684 0.67686 0.31675 0.0
N1852 N 0.16959 0.75807 0.32002 0.0
N1853 N 0.13318 0.69642 0.32405 0.0
H1854 H 0.77465 1.00478 0.41502 0.0
H1855 H 0.75882 0.90801 0.35924 0.0
H1856 H 0.83171 1.00456 0.39346 0.0
H1857 H 0.70287 0.90909 0.38181 0.0
H1858 H 0.78575 0.94395 0.37067 0.0
H1859 H 0.74824 0.97042 0.40209 0.0
C1860 C 0.78167 0.99747 0.4076 0.0
C1861 C 0.80554 0.00755 0.40548 0.0
C1862 C 0.76757 0.93635 0.37306 0.0
C1863 C 0.77515 0.96803 0.39041 0.0
C1864 C 0.75213 0.91584 0.36648 0.0
C1865 C 0.72844 0.90544 0.36949 0.0
C1866 C 0.75931 0.94657 0.38276 0.0
C1867 C 0.72092 0.91635 0.37914 0.0
C1868 C 0.76652 0.97785 0.40014 0.0
C1869 C 0.81348 0.99749 0.39541 0.0
N1870 N 0.73627 0.93622 0.38542 0.0
N1871 N 0.79835 0.97824 0.38832 0.0
H1872 H 0.0305 0.84201 0.39553 0.0
H1873 H 0.11201 0.79685 0.3662 0.0
H1874 H 1.00855 0.77153 0.39058 0.0
H1875 H 0.13296 0.86721 0.36842 0.0
H1876 H 0.07254 0.78723 0.37215 0.0
H1877 H 0.06638 0.85163 0.38286 0.0
C1878 C 0.03302 0.82852 0.3916 0.0
C1879 C 0.01647 0.80588 0.39433 0.0
C1880 C 0.08559 0.8048 0.37102 0.0
C1881 C 0.05785 0.81685 0.37995 0.0
C1882 C 0.10804 0.81024 0.36744 0.0
C1883 C 0.12546 0.83281 0.36631 0.0
C1884 C 0.08067 0.82208 0.37395 0.0
C1885 C 0.11978 0.8496 0.36881 0.0
C1886 C 0.05362 0.83405 0.38442 0.0
C1887 C 0.02095 0.78921 0.38906 0.0
N1888 N 0.0979 0.84392 0.37257 0.0
N1889 N 0.04122 0.79502 0.38226 0.0
H1890 H 0.18736 0.18585 0.37643 0.0
H1891 H 0.2174 0.31409 0.38209 0.0
H1892 H 0.22788 0.2303 0.41136 0.0
H1893 H 0.16463 0.26552 0.35367 0.0
H1894 H 0.22386 0.28439 0.39158 0.0
H1895 H 0.181 0.21552 0.36674 0.0
C1896 C 0.19479 0.20175 0.38216 0.0
C1897 C 0.20815 0.20545 0.3948 0.0
C1898 C 0.21092 0.28026 0.38323 0.0
C1899 C 0.20126 0.23975 0.38352 0.0
C1900 C 0.20723 0.29723 0.37776 0.0
C1901 C 0.19054 0.29241 0.36694 0.0
C1902 C 0.19793 0.25825 0.37782 0.0
C1903 C 0.1779 0.27017 0.36183 0.0
C1904 C 0.19126 0.21876 0.37654 0.0
C1905 C 0.21774 0.22669 0.40149 0.0
N1906 N 0.18188 0.25395 0.36729 0.0
N1907 N 0.21414 0.243 0.39576 0.0
H1908 H 0.67064 0.57045 0.72863 0.0
H1909 H 0.7978 0.61517 0.69702 0.0
H1910 H 0.69849 0.52696 0.71993 0.0
H1911 H 0.76927 0.658 0.70559 0.0
H1912 H 0.76082 0.58227 0.70365 0.0
H1913 H 0.70598 0.60233 0.71905 0.0
C1914 C 0.68421 0.56758 0.72478 0.0
C1915 C 0.68152 0.5459 0.7252 0.0
C1916 C 0.76255 0.59883 0.70394 0.0
C1917 C 0.72216 0.5825 0.714 0.0
C1918 C 0.78362 0.61761 0.70002 0.0
C1919 C 0.78646 0.63931 0.70049 0.0
C1920 C 0.74429 0.60181 0.70862 0.0
C1921 C 0.76769 0.64152 0.70493 0.0
C1922 C 0.70437 0.58581 0.71919 0.0
C1923 C 0.69963 0.54327 0.71973 0.0
N1924 N 0.74747 0.62306 0.70884 0.0
N1925 N 0.71916 0.56132 0.71444 0.0
H1926 H 0.49529 0.17836 0.72255 0.0
H1927 H 0.36048 0.11571 0.70409 0.0
H1928 H 0.45042 0.10633 0.72504 0.0
H1929 H 0.40497 0.18753 0.70033 0.0
H1930 H 0.39368 0.11197 0.71091 0.0
H1931 H 0.46294 0.18218 0.71378 0.0
C1932 C 0.47863 0.16334 0.72133 0.0
C1933 C 0.47565 0.14197 0.72461 0.0
C1934 C 0.39629 0.12856 0.70847 0.0
C1935 C 0.43847 0.14625 0.71443 0.0
C1936 C 0.37734 0.13067 0.70455 0.0
C1937 C 0.38007 0.15188 0.70135 0.0
C1938 C 0.41816 0.14789 0.70949 0.0
C1939 C 0.4022 0.1708 0.70236 0.0
C1940 C 0.46019 0.16553 0.71622 0.0
C1941 C 0.45368 0.12313 0.72254 0.0
N1942 N 0.42039 0.16837 0.70636 0.0
N1943 N 0.436 0.12572 0.71765 0.0
H1944 H 0.86526 0.34128 0.72294 0.0
H1945 H 0.89225 0.24038 0.71567 0.0
H1946 H 0.9119 0.33245 0.75103 0.0
H1947 H 0.83848 0.24277 0.69119 0.0
H1948 H 0.90136 0.27567 0.72737 0.0
H1949 H 0.85667 0.30668 0.71006 0.0
C1950 C 0.87366 0.33209 0.72645 0.0
C1951 C 0.8894 0.33994 0.73811 0.0
C1952 C 0.88761 0.26856 0.71941 0.0
C1953 C 0.87981 0.3004 0.72326 0.0
C1954 C 0.88238 0.24834 0.71267 0.0
C1955 C 0.86457 0.2385 0.70235 0.0
C1956 C 0.87499 0.27919 0.71585 0.0
C1957 C 0.85248 0.24977 0.69897 0.0
C1958 C 0.86882 0.31238 0.71902 0.0
C1959 C 0.89997 0.3274 0.74197 0.0
N1960 N 0.85789 0.2695 0.70571 0.0
N1961 N 0.89499 0.30833 0.73459 0.0
H1962 H 0.19324 0.00874 0.64972 0.0
H1963 H 0.32411 0.10855 0.6572 0.0
H1964 H 0.24985 0.01261 0.62491 0.0
H1965 H 0.26764 0.10805 0.68017 0.0
H1966 H 0.29709 0.07269 0.64602 0.0
H1967 H 0.22003 0.04436 0.66157 0.0
C1968 C 0.21125 0.01706 0.64671 0.0
C1969 C 0.2192 0.00748 0.63628 0.0
C1970 C 0.29057 0.08035 0.65355 0.0
C1971 C 0.25009 0.0483 0.64997 0.0
C1972 C 0.30604 0.10091 0.65997 0.0
C1973 C 0.29825 0.11141 0.66976 0.0
C1974 C 0.26701 0.07007 0.65687 0.0
C1975 C 0.27455 0.10054 0.67284 0.0
C1976 C 0.22658 0.03737 0.65356 0.0
C1977 C 0.24286 0.01901 0.63304 0.0
N1978 N 0.2598 0.08051 0.66642 0.0
N1979 N 0.25738 0.03872 0.63982 0.0
H1980 H 0.02186 0.24273 0.64528 0.0
H1981 H 0.89305 0.1611 0.67396 0.0
H1982 H 0.99319 0.17122 0.65172 0.0
H1983 H 0.92306 0.2328 0.66829 0.0
H1984 H 0.92999 0.16445 0.66719 0.0
H1985 H 0.98615 0.2394 0.6545 0.0
C1986 C 1.00802 0.22628 0.64854 0.0
C1987 C 1.01061 0.20722 0.6476 0.0
C1988 C 0.92858 0.17949 0.66755 0.0
C1989 C 0.96951 0.2033 0.65841 0.0
C1990 C 0.90753 0.1776 0.67155 0.0
C1991 C 0.90515 0.19679 0.67196 0.0
C1992 C 0.94726 0.20068 0.66369 0.0
C1993 C 0.92428 0.21764 0.66826 0.0
C1994 C 0.98764 0.22441 0.65393 0.0
C1995 C 0.99213 0.18643 0.65233 0.0
N1996 N 0.94447 0.21903 0.66427 0.0
N1997 N 0.97239 0.18502 0.65745 0.0
H1998 H 0.83259 0.83107 0.66531 0.0
H1999 H 0.80507 0.70377 0.65805 0.0
H2000 H 0.79556 0.78836 0.62884 0.0
H2001 H 0.85626 0.75179 0.68751 0.0
H2002 H 0.79848 0.73347 0.64868 0.0
H2003 H 0.83869 0.80122 0.67496 0.0
C2004 C 0.82586 0.81552 0.65924 0.0
C2005 C 0.8136 0.8124 0.64615 0.0
C2006 C 0.81109 0.73747 0.65724 0.0
C2007 C 0.82018 0.77784 0.65739 0.0
C2008 C 0.81485 0.72049 0.66264 0.0
C2009 C 0.83113 0.72515 0.67373 0.0
C2010 C 0.82357 0.75931 0.663 0.0
C2011 C 0.84329 0.74724 0.67915 0.0
C2012 C 0.82925 0.7984 0.66483 0.0
C2013 C 0.80484 0.79154 0.63904 0.0
N2014 N 0.83922 0.76345 0.67377 0.0
N2015 N 0.80828 0.7751 0.64475 0.0
H2016 H 0.01915 0.77655 0.64516 0.0
H2017 H 0.89227 0.73334 0.67686 0.0
H2018 H 0.99175 0.82063 0.65307 0.0
H2019 H 0.92011 0.6899 0.66834 0.0
H2020 H 0.92936 0.76597 0.66998 0.0
H2021 H 0.98366 0.74503 0.65485 0.0
C2022 C 1.00564 0.77962 0.64885 0.0
C2023 C 1.00851 0.80136 0.64818 0.0
C2024 C 0.92745 0.74933 0.66975 0.0
C2025 C 0.9677 0.76518 0.65953 0.0
C2026 C 0.90632 0.73072 0.67381 0.0
C2027 C 0.90326 0.70893 0.6734 0.0
C2028 C 0.94552 0.74608 0.66503 0.0
C2029 C 0.92185 0.70646 0.66894 0.0
C2030 C 0.9854 0.7616 0.6545 0.0
C2031 C 0.99047 0.80426 0.65346 0.0
N2032 N 0.94213 0.72475 0.6649 0.0
N2033 N 0.97085 0.78641 0.65884 0.0
H2034 H 0.24855 0.25156 0.64658 0.0
H2035 H 0.28722 0.16325 0.67204 0.0
H2036 H 0.20693 0.18 0.63937 0.0
H2037 H 0.33263 0.23509 0.66975 0.0
H2038 H 0.25525 0.16855 0.66407 0.0
H2039 H 0.27701 0.24524 0.65898 0.0
C2040 C 0.24535 0.23448 0.6476 0.0
C2041 C 0.22538 0.21634 0.64167 0.0
C2042 C 0.27216 0.18316 0.66547 0.0
C2043 C 0.25803 0.20893 0.65609 0.0
C2044 C 0.29034 0.18015 0.67013 0.0
C2045 C 0.31251 0.19882 0.67173 0.0
C2046 C 0.27624 0.20497 0.66233 0.0
C2047 C 0.31575 0.22029 0.66875 0.0
C2048 C 0.26161 0.23088 0.65475 0.0
C2049 C 0.22199 0.19453 0.64375 0.0
N2050 N 0.29787 0.22278 0.66421 0.0
N2051 N 0.23822 0.19145 0.65068 0.0
H2052 H 0.77198 0.01097 0.62527 0.0
H2053 H 0.8567 0.10792 0.68028 0.0
H2054 H 0.8315 0.01277 0.64463 0.0
H2055 H 0.8003 0.10781 0.6575 0.0
H2056 H 0.84635 0.07178 0.66895 0.0
H2057 H 0.78078 0.04511 0.63853 0.0
C2058 C 0.78697 0.01858 0.63229 0.0
C2059 C 0.80116 0.00906 0.63368 0.0
C2060 C 0.8362 0.07965 0.66649 0.0
C2061 C 0.81125 0.04824 0.6491 0.0
C2062 C 0.84203 0.10026 0.67301 0.0
C2063 C 0.82934 0.11099 0.66987 0.0
C2064 C 0.81753 0.06966 0.65677 0.0
C2065 C 0.81066 0.10029 0.66023 0.0
C2066 C 0.79193 0.03806 0.63992 0.0
C2067 C 0.82002 0.01943 0.64325 0.0
N2068 N 0.80537 0.0803 0.65403 0.0
N2069 N 0.82459 0.03853 0.65053 0.0
H2070 H 0.49931 0.33882 0.72603 0.0
H2071 H 0.36788 0.24139 0.71597 0.0
H2072 H 0.4421 0.33589 0.74951 0.0
H2073 H 0.42439 0.24169 0.6932 0.0
H2074 H 0.39497 0.27692 0.72747 0.0
H2075 H 0.47235 0.30448 0.7129 0.0
C2076 C 0.4811 0.33108 0.72837 0.0
C2077 C 0.47305 0.34025 0.73901 0.0
C2078 C 0.40148 0.2693 0.71991 0.0
C2079 C 0.44206 0.30078 0.72407 0.0
C2080 C 0.38598 0.24893 0.71331 0.0
C2081 C 0.39377 0.23844 0.70352 0.0
C2082 C 0.4251 0.27941 0.71678 0.0
C2083 C 0.4175 0.24919 0.70056 0.0
C2084 C 0.46572 0.31139 0.72092 0.0
C2085 C 0.44922 0.32928 0.74163 0.0
N2086 N 0.43231 0.26902 0.70718 0.0
N2087 N 0.43466 0.3102 0.73426 0.0
H2088 H 0.67014 0.1003 0.72322 0.0
H2089 H 0.80019 0.18762 0.69937 0.0
H2090 H 0.70288 0.17156 0.73194 0.0
H2091 H 0.77121 0.11564 0.70148 0.0
H2092 H 0.76276 0.18278 0.70686 0.0
H2093 H 0.70507 0.10645 0.71091 0.0
C2094 C 0.68464 0.11728 0.72255 0.0
C2095 C 0.68356 0.13536 0.7289 0.0
C2096 C 0.76454 0.16805 0.70551 0.0
C2097 C 0.72379 0.14258 0.71456 0.0
C2098 C 0.78582 0.17079 0.70111 0.0
C2099 C 0.78865 0.15195 0.69964 0.0
C2100 C 0.74605 0.14631 0.70848 0.0
C2101 C 0.76966 0.13057 0.7024 0.0
C2102 C 0.7046 0.12079 0.71544 0.0
C2103 C 0.70281 0.15707 0.72723 0.0
N2104 N 0.74923 0.12833 0.70667 0.0
N2105 N 0.72218 0.16005 0.72034 0.0
H2106 H 0.90612 0.56435 0.74013 0.0
H2107 H 0.83025 0.59602 0.68805 0.0
H2108 H 0.84879 0.51586 0.71447 0.0
H2109 H 0.88675 0.64481 0.71417 0.0
H2110 H 0.83731 0.56664 0.69733 0.0
H2111 H 0.89946 0.59409 0.73078 0.0
C2112 C 0.89204 0.5599 0.73261 0.0
C2113 C 0.87803 0.5375 0.72808 0.0
C2114 C 0.84822 0.58378 0.70101 0.0
C2115 C 0.87047 0.5716 0.71717 0.0
C2116 C 0.84429 0.60064 0.69563 0.0
C2117 C 0.85805 0.62304 0.70021 0.0
C2118 C 0.86601 0.58924 0.71111 0.0
C2119 C 0.87571 0.62782 0.71029 0.0
C2120 C 0.88834 0.57694 0.72719 0.0
C2121 C 0.86027 0.53289 0.71812 0.0
N2122 N 0.87917 0.61108 0.7154 0.0
N2123 N 0.85702 0.54975 0.71302 0.0
H2124 H 0.51724 0.96717 0.19517 0.0
H2125 H 0.48578 0.98334 0.11292 0.0
H2126 H 0.44881 0.92945 0.17725 0.0
H2127 H 0.5548 0.01706 0.13019 0.0
H2128 H 0.47202 0.96243 0.13601 0.0
H2129 H 0.5314 0.98459 0.17119 0.0
C2130 C 0.50519 0.96233 0.18619 0.0
C2131 C 0.48172 0.94681 0.18836 0.0
C2132 C 0.4902 0.97435 0.13472 0.0
C2133 C 0.49786 0.96709 0.16075 0.0
C2134 C 0.4981 0.98622 0.12148 0.0
C2135 C 0.52151 1.0022 0.11957 0.0
C2136 C 0.50576 0.97844 0.1462 0.0
C2137 C 0.53655 1.0053 0.1312 0.0
C2138 C 0.51329 0.97243 0.17247 0.0
C2139 C 0.46696 0.94158 0.17624 0.0
N2140 N 0.52843 0.99366 0.14398 0.0
N2141 N 0.47524 0.95174 0.16302 0.0
H2142 H 0.07822 0.51419 0.17828 0.0
H2143 H 0.98879 0.53179 0.12988 0.0
H2144 H 0.03819 0.54259 0.19505 0.0
H2145 H 0.02522 0.49916 0.1139 0.0
H2146 H 1.00831 0.53776 0.15339 0.0
H2147 H 0.06063 0.51044 0.15427 0.0
C2148 C 0.06569 0.51959 0.17695 0.0
C2149 C 0.05962 0.5286 0.1888 0.0
C2150 C 1.01209 0.52934 0.14474 0.0
C2151 C 0.03951 0.52455 0.16118 0.0
C2152 C 1.00084 0.52581 0.13131 0.0
C2153 C 1.0052 0.5148 0.11986 0.0
C2154 C 0.02789 0.52184 0.14682 0.0
C2155 C 0.02141 0.50789 0.12232 0.0
C2156 C 0.05573 0.51755 0.16319 0.0
C2157 C 0.0436 0.53574 0.18626 0.0
N2158 N 0.03207 0.51143 0.13552 0.0
N2159 N 0.03407 0.53348 0.17277 0.0
H2160 H 0.48203 0.55703 0.1797 0.0
H2161 H 0.51155 0.47855 0.13003 0.0
H2162 H 0.46877 0.49096 0.1926 0.0
H2163 H 0.51634 0.53993 0.11381 0.0
H2164 H 0.49693 0.48372 0.15328 0.0
H2165 H 0.49602 0.55219 0.15591 0.0
C2166 C 0.48214 0.54156 0.17757 0.0
C2167 C 0.4741 0.52435 0.1882 0.0
C2168 C 0.5011 0.49608 0.14465 0.0
C2169 C 0.49001 0.51866 0.16094 0.0
C2170 C 0.50956 0.49317 0.13137 0.0
C2171 C 0.51534 0.5089 0.11995 0.0
C2172 C 0.49846 0.51496 0.14669 0.0
C2173 C 0.512 0.52732 0.12228 0.0
C2174 C 0.48999 0.53875 0.16394 0.0
C2175 C 0.47446 0.50458 0.18473 0.0
N2176 N 0.50393 0.52993 0.1354 0.0
N2177 N 0.4823 0.50233 0.17147 0.0
H2178 H 0.94121 0.50078 0.86347 0.0
H2179 H 0.03319 0.48424 0.90975 0.0
H2180 H 0.98118 0.47306 0.84551 0.0
H2181 H 0.99742 0.51701 0.92665 0.0
H2182 H 0.01268 0.47804 0.88661 0.0
H2183 H 0.95993 0.50483 0.8871 0.0
C2184 C 0.95396 0.49558 0.86446 0.0
C2185 C 0.95968 0.48668 0.85239 0.0
C2186 C 1.00927 0.48655 0.89539 0.0
C2187 C 0.98108 0.49108 0.87957 0.0
C2188 C 0.02108 0.49021 0.9086 0.0
C2189 C 0.01718 0.5013 0.9202 0.0
C2190 C 0.99336 0.49399 0.89368 0.0
C2191 C 1.00088 0.5082 0.91811 0.0
C2192 C 0.96457 0.49781 0.87801 0.0
C2193 C 0.97601 0.47982 0.85449 0.0
N2194 N 0.98965 0.50451 0.90512 0.0
N2195 N 0.98617 0.48224 0.86777 0.0
H2196 H 0.5466 0.46396 0.85982 0.0
H2197 H 0.51095 0.5389 0.90851 0.0
H2198 H 0.55061 0.52564 0.84491 0.0
H2199 H 0.51059 0.47983 0.92532 0.0
H2200 H 0.5253 0.53386 0.88513 0.0
H2201 H 0.53289 0.46878 0.88369 0.0
C2202 C 0.54451 0.47845 0.86151 0.0
C2203 C 0.54987 0.49445 0.85029 0.0
C2204 C 0.52214 0.52198 0.89391 0.0
C2205 C 0.53432 0.50016 0.87768 0.0
C2206 C 0.51383 0.5248 0.90728 0.0
C2207 C 0.50936 0.50968 0.91893 0.0
C2208 C 0.52602 0.50382 0.89202 0.0
C2209 C 0.5139 0.49198 0.91671 0.0
C2210 C 0.53682 0.48127 0.8752 0.0
C2211 C 0.54705 0.51303 0.85325 0.0
N2212 N 0.52185 0.48947 0.90351 0.0
N2213 N 0.53947 0.51532 0.86659 0.0
H2214 H 0.54051 0.10121 0.86247 0.0
H2215 H 0.50937 0.98786 0.90641 0.0
H2216 H 0.53515 0.04192 0.84236 0.0
H2217 H 0.51109 0.04547 0.92658 0.0
H2218 H 0.52171 0.00863 0.88331 0.0
H2219 H 0.53259 0.08232 0.88631 0.0
C2220 C 0.5377 0.08423 0.86303 0.0
C2221 C 0.53839 0.07315 0.85027 0.0
C2222 C 0.5195 0.01681 0.89279 0.0
C2223 C 0.52945 0.05142 0.8777 0.0
C2224 C 0.51234 1.0049 0.906 0.0
C2225 C 0.5089 0.01479 0.91849 0.0
C2226 C 0.52329 0.03887 0.89192 0.0
C2227 C 0.51357 0.03715 0.9173 0.0
C2228 C 0.53327 0.07349 0.8767 0.0
C2229 C 0.53503 0.05129 0.85183 0.0
N2230 N 0.52035 0.04835 0.90425 0.0
N2231 N 0.5306 0.04115 0.86523 0.0
H2232 H 0.11152 0.26062 0.51135 0.0
H2233 H 0.21942 0.35114 0.46417 0.0
H2234 H 0.18018 0.30006 0.52864 0.0
H2235 H 0.14988 0.31671 0.44777 0.0
H2236 H 0.2057 0.33033 0.48717 0.0
H2237 H 0.12556 0.27876 0.4875 0.0
C2238 C 0.12955 0.27311 0.51018 0.0
C2239 C 0.14461 0.27886 0.52216 0.0
C2240 C 0.19341 0.32724 0.47854 0.0
C2241 C 0.16089 0.2996 0.49467 0.0
C2242 C 0.20123 0.33922 0.46538 0.0
C2243 C 0.18578 0.33593 0.45399 0.0
C2244 C 0.16991 0.31171 0.48044 0.0
C2245 C 0.16248 0.31978 0.45617 0.0
C2246 C 0.13757 0.28339 0.4965 0.0
C2247 C 0.1679 0.29485 0.51977 0.0
N2248 N 0.15526 0.3084 0.46914 0.0
N2249 N 0.17526 0.30468 0.50637 0.0
H2250 H 0.73811 0.83695 0.51226 0.0
H2251 H 0.65843 0.86634 0.46242 0.0
H2252 H 0.71418 0.88204 0.52566 0.0
H2253 H 0.68926 0.82811 0.44695 0.0
H2254 H 0.67812 0.87164 0.48581 0.0
H2255 H 0.72017 0.83325 0.4884 0.0
C2256 C 0.72927 0.84624 0.51018 0.0
C2257 C 0.7277 0.85983 0.52108 0.0
C2258 C 0.68065 0.86215 0.4773 0.0
C2259 C 0.7067 0.85531 0.49374 0.0
C2260 C 0.66929 0.859 0.46395 0.0
C2261 C 0.6721 0.84667 0.45269 0.0
C2262 C 0.69487 0.85281 0.4795 0.0
C2263 C 0.68672 0.83788 0.45526 0.0
C2264 C 0.71889 0.84399 0.49655 0.0
C2265 C 0.71558 0.87109 0.51774 0.0
N2266 N 0.69746 0.84102 0.4684 0.0
N2267 N 0.70553 0.86853 0.50441 0.0
H2268 H 0.17685 0.86126 0.53148 0.0
H2269 H 0.1454 0.82394 0.4476 0.0
H2270 H 0.11239 0.84595 0.51154 0.0
H2271 H 0.21091 0.84184 0.46703 0.0
H2272 H 0.13341 0.83283 0.47072 0.0
H2273 H 0.19002 0.85528 0.50784 0.0
C2274 C 0.16551 0.85686 0.52212 0.0
C2275 C 0.14339 0.85404 0.52361 0.0
C2276 C 0.15043 0.83485 0.46992 0.0
C2277 C 0.15833 0.84682 0.49642 0.0
C2278 C 0.15737 0.82989 0.45667 0.0
C2279 C 0.17923 0.83205 0.45529 0.0
C2280 C 0.16541 0.84204 0.48198 0.0
C2281 C 0.19377 0.83954 0.46758 0.0
C2282 C 0.17301 0.85329 0.50862 0.0
C2283 C 0.12942 0.84797 0.51106 0.0
N2284 N 0.1866 0.84421 0.48037 0.0
N2285 N 0.13708 0.84452 0.49805 0.0
H2286 H 0.64886 0.80701 0.17773 0.0
H2287 H 0.66574 0.85293 0.26 0.0
H2288 H 0.61148 0.8372 0.19611 0.0
H2289 H 0.70048 0.81962 0.2423 0.0
H2290 H 0.6451 0.84659 0.23689 0.0
H2291 H 0.66725 0.81069 0.20144 0.0
C2292 C 0.64434 0.81423 0.18677 0.0
C2293 C 0.6286 0.82185 0.18485 0.0
C2294 C 0.6572 0.84062 0.23806 0.0
C2295 C 0.64992 0.82642 0.21207 0.0
C2296 C 0.66892 0.84412 0.25131 0.0
C2297 C 0.68497 0.83686 0.25314 0.0
C2298 C 0.66152 0.82979 0.22649 0.0
C2299 C 0.68857 0.82584 0.24135 0.0
C2300 C 0.65498 0.81646 0.20031 0.0
C2301 C 0.62376 0.8314 0.19697 0.0
N2302 N 0.677 0.82269 0.22855 0.0
N2303 N 0.63439 0.83345 0.21002 0.0
H2304 H 0.25111 0.84617 0.19288 0.0
H2305 H 0.14324 0.82141 0.24324 0.0
H2306 H 0.18049 0.80267 0.18004 0.0
H2307 H 0.21347 0.85849 0.25821 0.0
H2308 H 0.15667 0.81445 0.22004 0.0
H2309 H 0.23783 0.8506 0.21687 0.0
C2310 C 0.23282 0.83734 0.19511 0.0
C2311 C 0.21694 0.82403 0.1843 0.0
C2312 C 0.16917 0.82404 0.22841 0.0
C2313 C 0.20156 0.82942 0.21182 0.0
C2314 C 0.16151 0.82814 0.24165 0.0
C2315 C 0.17724 0.8407 0.2527 0.0
C2316 C 0.1928 0.83266 0.22608 0.0
C2317 C 0.20069 0.84861 0.25007 0.0
C2318 C 0.22524 0.84002 0.20883 0.0
C2319 C 0.19342 0.8134 0.18786 0.0
N2320 N 0.20776 0.84459 0.23701 0.0
N2321 N 0.18648 0.81639 0.20126 0.0
H2322 H 0.2071 0.43498 0.19676 0.0
H2323 H 0.1743 0.32146 0.24099 0.0
H2324 H 0.20103 0.37528 0.17683 0.0
H2325 H 0.17594 0.37927 0.2608 0.0
H2326 H 0.18722 0.34219 0.2179 0.0
H2327 H 0.19879 0.41615 0.22063 0.0
C2328 C 0.20405 0.41793 0.19737 0.0
C2329 C 0.20464 0.40671 0.18465 0.0
C2330 C 0.18486 0.35042 0.2273 0.0
C2331 C 0.19526 0.38505 0.21211 0.0
C2332 C 0.17737 0.33854 0.24051 0.0
C2333 C 0.17373 0.34849 0.25289 0.0
C2334 C 0.18879 0.37252 0.22634 0.0
C2335 C 0.17857 0.37089 0.25161 0.0
C2336 C 0.1994 0.40722 0.21105 0.0
C2337 C 0.20099 0.38476 0.18627 0.0
N2338 N 0.18568 0.38207 0.23856 0.0
N2339 N 0.19634 0.37465 0.19969 0.0
H2340 H 0.84801 0.63304 0.86323 0.0
H2341 H 0.81646 0.64822 0.78078 0.0
H2342 H 0.77959 0.59498 0.84535 0.0
H2343 H 0.8854 0.6826 0.79816 0.0
H2344 H 0.80273 0.62754 0.80395 0.0
H2345 H 0.86209 0.65036 0.83922 0.0
C2346 C 0.83594 0.62811 0.85425 0.0
C2347 C 0.8125 0.61251 0.85643 0.0
C2348 C 0.82088 0.63956 0.80267 0.0
C2349 C 0.82856 0.63267 0.82879 0.0
C2350 C 0.82877 0.65129 0.78938 0.0
C2351 C 0.85214 0.66738 0.78748 0.0
C2352 C 0.83643 0.6439 0.8142 0.0
C2353 C 0.86717 0.67074 0.79916 0.0
C2354 C 0.844 0.63815 0.84052 0.0
C2355 C 0.79772 0.60717 0.84432 0.0
N2356 N 0.85907 0.65922 0.81198 0.0
N2357 N 0.80596 0.61726 0.83108 0.0
H2358 H 0.40782 0.17315 0.84503 0.0
H2359 H 0.32385 0.19814 0.79627 0.0
H2360 H 0.38065 0.21525 0.85922 0.0
H2361 H 0.35658 0.16187 0.78037 0.0
H2362 H 0.34408 0.2041 0.81952 0.0
H2363 H 0.38919 0.16876 0.82134 0.0
C2364 C 0.39811 0.18165 0.84316 0.0
C2365 C 0.39585 0.1946 0.85423 0.0
C2366 C 0.3469 0.19488 0.81094 0.0
C2367 C 0.37407 0.18928 0.82709 0.0
C2368 C 0.33524 0.19135 0.79768 0.0
C2369 C 0.33843 0.1794 0.78633 0.0
C2370 C 0.36184 0.18632 0.81296 0.0
C2371 C 0.35373 0.17135 0.78873 0.0
C2372 C 0.38734 0.179 0.82963 0.0
C2373 C 0.38263 0.20482 0.85116 0.0
N2374 N 0.36476 0.17487 0.80179 0.0
N2375 N 0.37224 0.2019 0.83793 0.0
H2376 H 0.7789 0.183 0.84229 0.0
H2377 H 0.88783 0.19783 0.79681 0.0
H2378 H 0.84662 0.209 0.86078 0.0
H2379 H 0.81914 0.167 0.77914 0.0
H2380 H 0.87349 0.20432 0.81978 0.0
H2381 H 0.79375 0.1793 0.81865 0.0
C2382 C 0.79689 0.18791 0.84142 0.0
C2383 C 0.81146 0.1962 0.85365 0.0
C2384 C 0.86155 0.19619 0.81088 0.0
C2385 C 0.82868 0.19219 0.82645 0.0
C2386 C 0.86971 0.19236 0.79775 0.0
C2387 C 0.85467 0.18166 0.78599 0.0
C2388 C 0.83812 0.1893 0.81236 0.0
C2389 C 0.83145 0.17544 0.78782 0.0
C2390 C 0.80539 0.18589 0.82787 0.0
C2391 C 0.83474 0.20272 0.85168 0.0
N2392 N 0.82388 0.17925 0.80075 0.0
N2393 N 0.84257 0.20048 0.8384 0.0
H2394 H 0.30475 0.12976 0.51477 0.0
H2395 H 0.33716 0.19091 0.59277 0.0
H2396 H 0.29064 0.18254 0.52671 0.0
H2397 H 0.36355 0.14887 0.57721 0.0
H2398 H 0.31685 0.18529 0.56954 0.0
H2399 H 0.32356 0.13411 0.53838 0.0
C2400 C 0.30566 0.14234 0.52229 0.0
C2401 C 0.2961 0.15586 0.51862 0.0
C2402 C 0.32709 0.17729 0.57121 0.0
C2403 C 0.31738 0.16065 0.54589 0.0
C2404 C 0.33857 0.18038 0.5845 0.0
C2405 C 0.35214 0.1704 0.58694 0.0
C2406 C 0.329 0.16396 0.56027 0.0
C2407 C 0.35353 0.15712 0.57575 0.0
C2408 C 0.31632 0.14472 0.53583 0.0
C2409 C 0.29743 0.17151 0.52905 0.0
N2410 N 0.34209 0.15427 0.56293 0.0
N2411 N 0.30786 0.17347 0.54217 0.0
H2412 H 0.87905 0.12984 0.52616 0.0
H2413 H 0.84332 0.20442 0.57515 0.0
H2414 H 0.88396 0.19208 0.51167 0.0
H2415 H 0.84308 0.1453 0.59177 0.0
H2416 H 0.85772 0.19955 0.55174 0.0
H2417 H 0.86509 0.13438 0.55002 0.0
C2418 C 0.8771 0.1444 0.52795 0.0
C2419 C 0.8828 0.16064 0.51685 0.0
C2420 C 0.85458 0.18763 0.56048 0.0
C2421 C 0.86694 0.16601 0.54421 0.0
C2422 C 0.84623 0.19034 0.57387 0.0
C2423 C 0.84181 0.17517 0.58547 0.0
C2424 C 0.85852 0.16952 0.55854 0.0
C2425 C 0.84637 0.1575 0.58319 0.0
C2426 C 0.86927 0.14705 0.54162 0.0
C2427 C 0.88014 0.17928 0.51991 0.0
N2428 N 0.85435 0.15509 0.56998 0.0
N2429 N 0.87241 0.18142 0.53324 0.0
H2430 H 0.87949 0.70914 0.51103 0.0
H2431 H 0.83793 0.70778 0.5937 0.0
H2432 H 0.85875 0.75555 0.52688 0.0
H2433 H 0.84719 0.65513 0.57509 0.0
H2434 H 0.8501 0.72826 0.5703 0.0
H2435 H 0.87196 0.69176 0.5353 0.0
C2436 C 0.87333 0.7157 0.51958 0.0
C2437 C 0.86959 0.73379 0.51675 0.0
C2438 C 0.84956 0.71227 0.57137 0.0
C2439 C 0.86117 0.71401 0.5448 0.0
C2440 C 0.84276 0.70064 0.58475 0.0
C2441 C 0.84134 0.6796 0.58634 0.0
C2442 C 0.85519 0.7029 0.5595 0.0
C2443 C 0.84767 0.67112 0.57432 0.0
C2444 C 0.86913 0.70581 0.53349 0.0
C2445 C 0.8621 0.74181 0.52848 0.0
N2446 N 0.85424 0.68274 0.56145 0.0
N2447 N 0.85805 0.73183 0.54193 0.0
loop_
_geom_bond_atom_site_label_1
_geom_bond_atom_site_label_2
_geom_bond_distance
_geom_bond_site_symmetry_2
_ccdc_geom_bond_type
C0 C1 1.264 . S
C0 C5 1.479 . S
C0 C10 1.465 . S
C1 C0 1.264 . S
C1 C3 1.339 . S
C1 H28 0.931 . S
C2 C3 1.395 . S
C2 C4 1.320 . S
C3 C1 1.339 . S
C3 C2 1.395 . S
C3 H29 0.929 . S
C4 C2 1.320 . S
C4 C5 1.405 . S
C4 H30 0.930 . S
C5 C0 1.479 . S
C5 C4 1.405 . S
C5 H31 0.931 . S
U6 O7 2.454 . S
U6 O8 2.458 . S
U6 C9 2.984 . S
U6 C10 2.847 . S
U6 C23 2.882 . S
U6 O24 2.441 . S
U6 O25 2.420 . S
U6 O26 2.455 . S
U6 O27 2.449 . S
O7 U6 2.454 . S
O7 C9 1.353 . S
O8 U6 2.458 . S
O8 C9 1.286 . S
C9 U6 2.984 . S
C9 O7 1.353 . S
C9 O8 1.286 . S
C9 C11 1.363 . S
C10 C0 1.465 . S
C10 U6 2.847 . S
C10 O24 1.249 . S
C10 O25 1.202 . S
C11 C9 1.363 . S
C11 C13 1.408 . S
C11 C16 1.342 . S
C12 C13 1.310 . S
C12 C15 1.461 . S
C12 H32 0.932 . S
C13 C11 1.408 . S
C13 C12 1.310 . S
C13 H33 0.930 . S
C14 C15 1.474 . S
C14 C16 1.285 . S
C14 H34 0.929 . S
C15 C12 1.461 . S
C15 C14 1.474 . S
C16 C11 1.342 . S
C16 C14 1.285 . S
C16 H35 0.930 . S
C17 C20 1.424 . S
C17 C22 1.245 . S
C17 C23 1.428 . S
C18 C21 1.260 . S
C18 C22 1.477 . S
C18 H36 0.932 . S
C19 C20 1.384 . S
C19 C21 1.479 . S
C19 H37 0.929 . S
C20 C17 1.424 . S
C20 C19 1.384 . S
C20 H38 0.928 . S
C21 C18 1.260 . S
C21 C19 1.479 . S
C22 C17 1.245 . S
C22 C18 1.477 . S
C22 H39 0.932 . S
C23 U6 2.882 . S
C23 C17 1.428 . S
C23 O26 1.301 . S
C23 O27 1.282 . S
O24 U6 2.441 . S
O24 C10 1.249 . S
O25 U6 2.420 . S
O25 C10 1.202 . S
O26 U6 2.455 . S
O26 C23 1.301 . S
O27 U6 2.449 . S
O27 C23 1.282 . S
H28 C1 0.931 . S
H29 C3 0.929 . S
H30 C4 0.930 . S
H31 C5 0.931 . S
H32 C12 0.932 . S
H33 C13 0.930 . S
H34 C14 0.929 . S
H35 C16 0.930 . S
H36 C18 0.932 . S
H37 C19 0.929 . S
H38 C20 0.928 . S
H39 C22 0.932 . S
C40 C41 1.264 . S
C40 C45 1.479 . S
C40 C50 1.465 . S
C41 C40 1.264 . S
C41 C43 1.339 . S
C41 H68 0.931 . S
C42 C43 1.395 . S
C42 C44 1.320 . S
C43 C41 1.339 . S
C43 C42 1.395 . S
C43 H69 0.929 . S
C44 C42 1.320 . S
C44 C45 1.405 . S
C44 H70 0.930 . S
C45 C40 1.479 . S
C45 C44 1.405 . S
C45 H71 0.931 . S
U46 O47 2.454 . S
U46 O48 2.458 . S
U46 C49 2.984 . S
U46 C50 2.847 . S
U46 C63 2.882 . S
U46 O64 2.441 . S
U46 O65 2.420 . S
U46 O66 2.455 . S
U46 O67 2.449 . S
O47 U46 2.454 . S
O47 C49 1.353 . S
O48 U46 2.458 . S
O48 C49 1.286 . S
C49 U46 2.984 . S
C49 O47 1.353 . S
C49 O48 1.286 . S
C49 C51 1.363 . S
C50 C40 1.465 . S
C50 U46 2.847 . S
C50 O64 1.249 . S
C50 O65 1.202 . S
C51 C49 1.363 . S
C51 C53 1.408 . S
C51 C56 1.342 . S
C52 C53 1.310 . S
C52 C55 1.461 . S
C52 H72 0.932 . S
C53 C51 1.408 . S
C53 C52 1.310 . S
C53 H73 0.930 . S
C54 C55 1.474 . S
C54 C56 1.285 . S
C54 H74 0.929 . S
C55 C52 1.461 . S
C55 C54 1.474 . S
C56 C51 1.342 . S
C56 C54 1.285 . S
C56 H75 0.930 . S
C57 C60 1.424 . S
C57 C62 1.245 . S
C57 C63 1.428 . S
C58 C61 1.260 . S
C58 C62 1.477 . S
C58 H76 0.932 . S
C59 C60 1.384 . S
C59 C61 1.479 . S
C59 H77 0.929 . S
C60 C57 1.424 . S
C60 C59 1.384 . S
C60 H78 0.928 . S
C61 C58 1.260 . S
C61 C59 1.479 . S
C62 C57 1.245 . S
C62 C58 1.477 . S
C62 H79 0.932 . S
C63 U46 2.882 . S
C63 C57 1.428 . S
C63 O66 1.301 . S
C63 O67 1.282 . S
O64 U46 2.441 . S
O64 C50 1.249 . S
O65 U46 2.420 . S
O65 C50 1.202 . S
O66 U46 2.455 . S
O66 C63 1.301 . S
O67 U46 2.449 . S
O67 C63 1.282 . S
H68 C41 0.931 . S
H69 C43 0.929 . S
H70 C44 0.930 . S
H71 C45 0.931 . S
H72 C52 0.932 . S
H73 C53 0.930 . S
H74 C54 0.929 . S
H75 C56 0.930 . S
H76 C58 0.932 . S
H77 C59 0.929 . S
H78 C60 0.928 . S
H79 C62 0.932 . S
C80 C81 1.264 . S
C80 C85 1.479 . S
C80 C90 1.465 . S
C81 C80 1.264 . S
C81 C83 1.339 . S
C81 H108 0.931 . S
C82 C83 1.395 . S
C82 C84 1.320 . S
C83 C81 1.339 . S
C83 C82 1.395 . S
C83 H109 0.929 . S
C84 C82 1.320 . S
C84 C85 1.405 . S
C84 H110 0.930 . S
C85 C80 1.479 . S
C85 C84 1.405 . S
C85 H111 0.931 . S
U86 O87 2.454 . S
U86 O88 2.458 . S
U86 C89 2.984 . S
U86 C90 2.847 . S
U86 C103 2.882 . S
U86 O104 2.441 . S
U86 O105 2.420 . S
U86 O106 2.455 . S
U86 O107 2.449 . S
O87 U86 2.454 . S
O87 C89 1.353 . S
O88 U86 2.458 . S
O88 C89 1.286 . S
C89 U86 2.984 . S
C89 O87 1.353 . S
C89 O88 1.286 . S
C89 C91 1.363 . S
C90 C80 1.465 . S
C90 U86 2.847 . S
C90 O104 1.249 . S
C90 O105 1.202 . S
C91 C89 1.363 . S
C91 C93 1.408 . S
C91 C96 1.342 . S
C92 C93 1.310 . S
C92 C95 1.461 . S
C92 H112 0.932 . S
C93 C91 1.408 . S
C93 C92 1.310 . S
C93 H113 0.930 . S
C94 C95 1.474 . S
C94 C96 1.285 . S
C94 H114 0.929 . S
C95 C92 1.461 . S
C95 C94 1.474 . S
C96 C91 1.342 . S
C96 C94 1.285 . S
C96 H115 0.930 . S
C97 C100 1.424 . S
C97 C102 1.245 . S
C97 C103 1.428 . S
C98 C101 1.260 . S
C98 C102 1.477 . S
C98 H116 0.932 . S
C99 C100 1.384 . S
C99 C101 1.479 . S
C99 H117 0.929 . S
C100 C97 1.424 . S
C100 C99 1.384 . S
C100 H118 0.928 . S
C101 C98 1.260 . S
C101 C99 1.479 . S
C102 C97 1.245 . S
C102 C98 1.477 . S
C102 H119 0.932 . S
C103 U86 2.882 . S
C103 C97 1.428 . S
C103 O106 1.301 . S
C103 O107 1.282 . S
O104 U86 2.441 . S
O104 C90 1.249 . S
O105 U86 2.420 . S
O105 C90 1.202 . S
O106 U86 2.455 . S
O106 C103 1.301 . S
O107 U86 2.449 . S
O107 C103 1.282 . S
H108 C81 0.931 . S
H109 C83 0.929 . S
H110 C84 0.930 . S
H111 C85 0.931 . S
H112 C92 0.932 . S
H113 C93 0.930 . S
H114 C94 0.929 . S
H115 C96 0.930 . S
H116 C98 0.932 . S
H117 C99 0.929 . S
H118 C100 0.928 . S
H119 C102 0.932 . S
C120 C121 1.264 . S
C120 C125 1.479 . S
C120 C130 1.465 . S
C121 C120 1.264 . S
C121 C123 1.339 . S
C121 H148 0.931 . S
C122 C123 1.395 . S
C122 C124 1.320 . S
C123 C121 1.339 . S
C123 C122 1.395 . S
C123 H149 0.929 . S
C124 C122 1.320 . S
C124 C125 1.405 . S
C124 H150 0.930 . S
C125 C120 1.479 . S
C125 C124 1.405 . S
C125 H151 0.931 . S
U126 O127 2.454 . S
U126 O128 2.458 . S
U126 C129 2.984 . S
U126 C130 2.847 . S
U126 C143 2.882 . S
U126 O144 2.441 . S
U126 O145 2.420 . S
U126 O146 2.455 . S
U126 O147 2.449 . S
O127 U126 2.454 . S
O127 C129 1.353 . S
O128 U126 2.458 . S
O128 C129 1.286 . S
C129 U126 2.984 . S
C129 O127 1.353 . S
C129 O128 1.286 . S
C129 C131 1.363 . S
C130 C120 1.465 . S
C130 U126 2.847 . S
C130 O144 1.249 . S
C130 O145 1.202 . S
C131 C129 1.363 . S
C131 C133 1.408 . S
C131 C136 1.342 . S
C132 C133 1.310 . S
C132 C135 1.461 . S
C132 H152 0.932 . S
C133 C131 1.408 . S
C133 C132 1.310 . S
C133 H153 0.930 . S
C134 C135 1.474 . S
C134 C136 1.285 . S
C134 H154 0.929 . S
C135 C132 1.461 . S
C135 C134 1.474 . S
C136 C131 1.342 . S
C136 C134 1.285 . S
C136 H155 0.930 . S
C137 C140 1.424 . S
C137 C142 1.245 . S
C137 C143 1.428 . S
C138 C141 1.260 . S
C138 C142 1.477 . S
C138 H156 0.932 . S
C139 C140 1.384 . S
C139 C141 1.479 . S
C139 H157 0.929 . S
C140 C137 1.424 . S
C140 C139 1.384 . S
C140 H158 0.928 . S
C141 C138 1.260 . S
C141 C139 1.479 . S
C142 C137 1.245 . S
C142 C138 1.477 . S
C142 H159 0.932 . S
C143 U126 2.882 . S
C143 C137 1.428 . S
C143 O146 1.301 . S
C143 O147 1.282 . S
O144 U126 2.441 . S
O144 C130 1.249 . S
O145 U126 2.420 . S
O145 C130 1.202 . S
O146 U126 2.455 . S
O146 C143 1.301 . S
O147 U126 2.449 . S
O147 C143 1.282 . S
H148 C121 0.931 . S
H149 C123 0.929 . S
H150 C124 0.930 . S
H151 C125 0.931 . S
H152 C132 0.932 . S
H153 C133 0.930 . S
H154 C134 0.929 . S
H155 C136 0.930 . S
H156 C138 0.932 . S
H157 C139 0.929 . S
H158 C140 0.928 . S
H159 C142 0.932 . S
C160 C161 1.264 . S
C160 C165 1.479 . S
C160 C170 1.465 . S
C161 C160 1.264 . S
C161 C163 1.339 . S
C161 H188 0.931 . S
C162 C163 1.395 . S
C162 C164 1.320 . S
C163 C161 1.339 . S
C163 C162 1.395 . S
C163 H189 0.929 . S
C164 C162 1.320 . S
C164 C165 1.405 . S
C164 H190 0.930 . S
C165 C160 1.479 . S
C165 C164 1.405 . S
C165 H191 0.931 . S
U166 O167 2.454 . S
U166 O168 2.458 . S
U166 C169 2.984 . S
U166 C170 2.847 . S
U166 C183 2.882 . S
U166 O184 2.441 . S
U166 O185 2.420 . S
U166 O186 2.455 . S
U166 O187 2.449 . S
O167 U166 2.454 . S
O167 C169 1.353 . S
O168 U166 2.458 . S
O168 C169 1.286 . S
C169 U166 2.984 . S
C169 O167 1.353 . S
C169 O168 1.286 . S
C169 C171 1.363 . S
C170 C160 1.465 . S
C170 U166 2.847 . S
C170 O184 1.249 . S
C170 O185 1.202 . S
C171 C169 1.363 . S
C171 C173 1.408 . S
C171 C176 1.342 . S
C172 C173 1.310 . S
C172 C175 1.461 . S
C172 H192 0.932 . S
C173 C171 1.408 . S
C173 C172 1.310 . S
C173 H193 0.930 . S
C174 C175 1.474 . S
C174 C176 1.285 . S
C174 H194 0.929 . S
C175 C172 1.461 . S
C175 C174 1.474 . S
C176 C171 1.342 . S
C176 C174 1.285 . S
C176 H195 0.930 . S
C177 C180 1.424 . S
C177 C182 1.245 . S
C177 C183 1.428 . S
C178 C181 1.260 . S
C178 C182 1.477 . S
C178 H196 0.932 . S
C179 C180 1.384 . S
C179 C181 1.479 . S
C179 H197 0.929 . S
C180 C177 1.424 . S
C180 C179 1.384 . S
C180 H198 0.928 . S
C181 C178 1.260 . S
C181 C179 1.479 . S
C182 C177 1.245 . S
C182 C178 1.477 . S
C182 H199 0.932 . S
C183 U166 2.882 . S
C183 C177 1.428 . S
C183 O186 1.301 . S
C183 O187 1.282 . S
O184 U166 2.441 . S
O184 C170 1.249 . S
O185 U166 2.420 . S
O185 C170 1.202 . S
O186 U166 2.455 . S
O186 C183 1.301 . S
O187 U166 2.449 . S
O187 C183 1.282 . S
H188 C161 0.931 . S
H189 C163 0.929 . S
H190 C164 0.930 . S
H191 C165 0.931 . S
H192 C172 0.932 . S
H193 C173 0.930 . S
H194 C174 0.929 . S
H195 C176 0.930 . S
H196 C178 0.932 . S
H197 C179 0.929 . S
H198 C180 0.928 . S
H199 C182 0.932 . S
C200 C201 1.264 . S
C200 C205 1.479 . S
C200 C210 1.465 . S
C201 C200 1.264 . S
C201 C203 1.339 . S
C201 H228 0.931 . S
C202 C203 1.395 . S
C202 C204 1.320 . S
C203 C201 1.339 . S
C203 C202 1.395 . S
C203 H229 0.929 . S
C204 C202 1.320 . S
C204 C205 1.405 . S
C204 H230 0.930 . S
C205 C200 1.479 . S
C205 C204 1.405 . S
C205 H231 0.931 . S
U206 O207 2.454 . S
U206 O208 2.458 . S
U206 C209 2.984 . S
U206 C210 2.847 . S
U206 C223 2.882 . S
U206 O224 2.441 . S
U206 O225 2.420 . S
U206 O226 2.455 . S
U206 O227 2.449 . S
O207 U206 2.454 . S
O207 C209 1.353 . S
O208 U206 2.458 . S
O208 C209 1.286 . S
C209 U206 2.984 . S
C209 O207 1.353 . S
C209 O208 1.286 . S
C209 C211 1.363 . S
C210 C200 1.465 . S
C210 U206 2.847 . S
C210 O224 1.249 . S
C210 O225 1.202 . S
C211 C209 1.363 . S
C211 C213 1.408 . S
C211 C216 1.342 . S
C212 C213 1.310 . S
C212 C215 1.461 . S
C212 H232 0.932 . S
C213 C211 1.408 . S
C213 C212 1.310 . S
C213 H233 0.930 . S
C214 C215 1.474 . S
C214 C216 1.285 . S
C214 H234 0.929 . S
C215 C212 1.461 . S
C215 C214 1.474 . S
C216 C211 1.342 . S
C216 C214 1.285 . S
C216 H235 0.930 . S
C217 C220 1.424 . S
C217 C222 1.245 . S
C217 C223 1.428 . S
C218 C221 1.260 . S
C218 C222 1.477 . S
C218 H236 0.932 . S
C219 C220 1.384 . S
C219 C221 1.479 . S
C219 H237 0.929 . S
C220 C217 1.424 . S
C220 C219 1.384 . S
C220 H238 0.928 . S
C221 C218 1.260 . S
C221 C219 1.479 . S
C222 C217 1.245 . S
C222 C218 1.477 . S
C222 H239 0.932 . S
C223 U206 2.882 . S
C223 C217 1.428 . S
C223 O226 1.301 . S
C223 O227 1.282 . S
O224 U206 2.441 . S
O224 C210 1.249 . S
O225 U206 2.420 . S
O225 C210 1.202 . S
O226 U206 2.455 . S
O226 C223 1.301 . S
O227 U206 2.449 . S
O227 C223 1.282 . S
H228 C201 0.931 . S
H229 C203 0.929 . S
H230 C204 0.930 . S
H231 C205 0.931 . S
H232 C212 0.932 . S
H233 C213 0.930 . S
H234 C214 0.929 . S
H235 C216 0.930 . S
H236 C218 0.932 . S
H237 C219 0.929 . S
H238 C220 0.928 . S
H239 C222 0.932 . S
C240 C241 1.264 . S
C240 C245 1.479 . S
C240 C250 1.465 . S
C241 C240 1.264 . S
C241 C243 1.339 . S
C241 H268 0.931 . S
C242 C243 1.395 . S
C242 C244 1.320 . S
C243 C241 1.339 . S
C243 C242 1.395 . S
C243 H269 0.929 . S
C244 C242 1.320 . S
C244 C245 1.405 . S
C244 H270 0.930 . S
C245 C240 1.479 . S
C245 C244 1.405 . S
C245 H271 0.931 . S
U246 O247 2.454 . S
U246 O248 2.458 . S
U246 C249 2.984 . S
U246 C250 2.847 . S
U246 C263 2.882 . S
U246 O264 2.441 . S
U246 O265 2.420 . S
U246 O266 2.455 . S
U246 O267 2.449 . S
O247 U246 2.454 . S
O247 C249 1.353 . S
O248 U246 2.458 . S
O248 C249 1.286 . S
C249 U246 2.984 . S
C249 O247 1.353 . S
C249 O248 1.286 . S
C249 C251 1.363 . S
C250 C240 1.465 . S
C250 U246 2.847 . S
C250 O264 1.249 . S
C250 O265 1.202 . S
C251 C249 1.363 . S
C251 C253 1.408 . S
C251 C256 1.342 . S
C252 C253 1.310 . S
C252 C255 1.461 . S
C252 H272 0.932 . S
C253 C251 1.408 . S
C253 C252 1.310 . S
C253 H273 0.930 . S
C254 C255 1.474 . S
C254 C256 1.285 . S
C254 H274 0.929 . S
C255 C252 1.461 . S
C255 C254 1.474 . S
C256 C251 1.342 . S
C256 C254 1.285 . S
C256 H275 0.930 . S
C257 C260 1.424 . S
C257 C262 1.245 . S
C257 C263 1.428 . S
C258 C261 1.260 . S
C258 C262 1.477 . S
C258 H276 0.932 . S
C259 C260 1.384 . S
C259 C261 1.479 . S
C259 H277 0.929 . S
C260 C257 1.424 . S
C260 C259 1.384 . S
C260 H278 0.928 . S
C261 C258 1.260 . S
C261 C259 1.479 . S
C262 C257 1.245 . S
C262 C258 1.477 . S
C262 H279 0.932 . S
C263 U246 2.882 . S
C263 C257 1.428 . S
C263 O266 1.301 . S
C263 O267 1.282 . S
O264 U246 2.441 . S
O264 C250 1.249 . S
O265 U246 2.420 . S
O265 C250 1.202 . S
O266 U246 2.455 . S
O266 C263 1.301 . S
O267 U246 2.449 . S
O267 C263 1.282 . S
H268 C241 0.931 . S
H269 C243 0.929 . S
H270 C244 0.930 . S
H271 C245 0.931 . S
H272 C252 0.932 . S
H273 C253 0.930 . S
H274 C254 0.929 . S
H275 C256 0.930 . S
H276 C258 0.932 . S
H277 C259 0.929 . S
H278 C260 0.928 . S
H279 C262 0.932 . S
C280 C281 1.264 . S
C280 C285 1.479 . S
C280 C290 1.465 . S
C281 C280 1.264 . S
C281 C283 1.339 . S
C281 H308 0.931 . S
C282 C283 1.395 . S
C282 C284 1.320 . S
C283 C281 1.339 . S
C283 C282 1.395 . S
C283 H309 0.929 . S
C284 C282 1.320 . S
C284 C285 1.405 . S
C284 H310 0.930 . S
C285 C280 1.479 . S
C285 C284 1.405 . S
C285 H311 0.931 . S
U286 O287 2.454 . S
U286 O288 2.458 . S
U286 C289 2.984 . S
U286 C290 2.847 . S
U286 C303 2.882 . S
U286 O304 2.441 . S
U286 O305 2.420 . S
U286 O306 2.455 . S
U286 O307 2.449 . S
O287 U286 2.454 . S
O287 C289 1.353 . S
O288 U286 2.458 . S
O288 C289 1.286 . S
C289 U286 2.984 . S
C289 O287 1.353 . S
C289 O288 1.286 . S
C289 C291 1.363 . S
C290 C280 1.465 . S
C290 U286 2.847 . S
C290 O304 1.249 . S
C290 O305 1.202 . S
C291 C289 1.363 . S
C291 C293 1.408 . S
C291 C296 1.342 . S
C292 C293 1.310 . S
C292 C295 1.461 . S
C292 H312 0.932 . S
C293 C291 1.408 . S
C293 C292 1.310 . S
C293 H313 0.930 . S
C294 C295 1.474 . S
C294 C296 1.285 . S
C294 H314 0.929 . S
C295 C292 1.461 . S
C295 C294 1.474 . S
C296 C291 1.342 . S
C296 C294 1.285 . S
C296 H315 0.930 . S
C297 C300 1.424 . S
C297 C302 1.245 . S
C297 C303 1.428 . S
C298 C301 1.260 . S
C298 C302 1.477 . S
C298 H316 0.932 . S
C299 C300 1.384 . S
C299 C301 1.479 . S
C299 H317 0.929 . S
C300 C297 1.424 . S
C300 C299 1.384 . S
C300 H318 0.928 . S
C301 C298 1.260 . S
C301 C299 1.479 . S
C302 C297 1.245 . S
C302 C298 1.477 . S
C302 H319 0.932 . S
C303 U286 2.882 . S
C303 C297 1.428 . S
C303 O306 1.301 . S
C303 O307 1.282 . S
O304 U286 2.441 . S
O304 C290 1.249 . S
O305 U286 2.420 . S
O305 C290 1.202 . S
O306 U286 2.455 . S
O306 C303 1.301 . S
O307 U286 2.449 . S
O307 C303 1.282 . S
H308 C281 0.931 . S
H309 C283 0.929 . S
H310 C284 0.930 . S
H311 C285 0.931 . S
H312 C292 0.932 . S
H313 C293 0.930 . S
H314 C294 0.929 . S
H315 C296 0.930 . S
H316 C298 0.932 . S
H317 C299 0.929 . S
H318 C300 0.928 . S
H319 C302 0.932 . S
C320 C321 1.264 . S
C320 C325 1.479 . S
C320 C330 1.465 . S
C321 C320 1.264 . S
C321 C323 1.339 . S
C321 H348 0.931 . S
C322 C323 1.395 . S
C322 C324 1.320 . S
C323 C321 1.339 . S
C323 C322 1.395 . S
C323 H349 0.929 . S
C324 C322 1.320 . S
C324 C325 1.405 . S
C324 H350 0.930 . S
C325 C320 1.479 . S
C325 C324 1.405 . S
C325 H351 0.931 . S
U326 O327 2.454 . S
U326 O328 2.458 . S
U326 C329 2.984 . S
U326 C330 2.847 . S
U326 C343 2.882 . S
U326 O344 2.441 . S
U326 O345 2.420 . S
U326 O346 2.455 . S
U326 O347 2.449 . S
O327 U326 2.454 . S
O327 C329 1.353 . S
O328 U326 2.458 . S
O328 C329 1.286 . S
C329 U326 2.984 . S
C329 O327 1.353 . S
C329 O328 1.286 . S
C329 C331 1.363 . S
C330 C320 1.465 . S
C330 U326 2.847 . S
C330 O344 1.249 . S
C330 O345 1.202 . S
C331 C329 1.363 . S
C331 C333 1.408 . S
C331 C336 1.342 . S
C332 C333 1.310 . S
C332 C335 1.461 . S
C332 H352 0.932 . S
C333 C331 1.408 . S
C333 C332 1.310 . S
C333 H353 0.930 . S
C334 C335 1.474 . S
C334 C336 1.285 . S
C334 H354 0.929 . S
C335 C332 1.461 . S
C335 C334 1.474 . S
C336 C331 1.342 . S
C336 C334 1.285 . S
C336 H355 0.930 . S
C337 C340 1.424 . S
C337 C342 1.245 . S
C337 C343 1.428 . S
C338 C341 1.260 . S
C338 C342 1.477 . S
C338 H356 0.932 . S
C339 C340 1.384 . S
C339 C341 1.479 . S
C339 H357 0.929 . S
C340 C337 1.424 . S
C340 C339 1.384 . S
C340 H358 0.928 . S
C341 C338 1.260 . S
C341 C339 1.479 . S
C342 C337 1.245 . S
C342 C338 1.477 . S
C342 H359 0.932 . S
C343 U326 2.882 . S
C343 C337 1.428 . S
C343 O346 1.301 . S
C343 O347 1.282 . S
O344 U326 2.441 . S
O344 C330 1.249 . S
O345 U326 2.420 . S
O345 C330 1.202 . S
O346 U326 2.455 . S
O346 C343 1.301 . S
O347 U326 2.449 . S
O347 C343 1.282 . S
H348 C321 0.931 . S
H349 C323 0.929 . S
H350 C324 0.930 . S
H351 C325 0.931 . S
H352 C332 0.932 . S
H353 C333 0.930 . S
H354 C334 0.929 . S
H355 C336 0.930 . S
H356 C338 0.932 . S
H357 C339 0.929 . S
H358 C340 0.928 . S
H359 C342 0.932 . S
C360 C361 1.264 . S
C360 C365 1.479 . S
C360 C370 1.465 . S
C361 C360 1.264 . S
C361 C363 1.339 . S
C361 H388 0.931 . S
C362 C363 1.395 . S
C362 C364 1.320 . S
C363 C361 1.339 . S
C363 C362 1.395 . S
C363 H389 0.929 . S
C364 C362 1.320 . S
C364 C365 1.405 . S
C364 H390 0.930 . S
C365 C360 1.479 . S
C365 C364 1.405 . S
C365 H391 0.931 . S
U366 O367 2.454 . S
U366 O368 2.458 . S
U366 C369 2.984 . S
U366 C370 2.847 . S
U366 C383 2.882 . S
U366 O384 2.441 . S
U366 O385 2.420 . S
U366 O386 2.455 . S
U366 O387 2.449 . S
O367 U366 2.454 . S
O367 C369 1.353 . S
O368 U366 2.458 . S
O368 C369 1.286 . S
C369 U366 2.984 . S
C369 O367 1.353 . S
C369 O368 1.286 . S
C369 C371 1.363 . S
C370 C360 1.465 . S
C370 U366 2.847 . S
C370 O384 1.249 . S
C370 O385 1.202 . S
C371 C369 1.363 . S
C371 C373 1.408 . S
C371 C376 1.342 . S
C372 C373 1.310 . S
C372 C375 1.461 . S
C372 H392 0.932 . S
C373 C371 1.408 . S
C373 C372 1.310 . S
C373 H393 0.930 . S
C374 C375 1.474 . S
C374 C376 1.285 . S
C374 H394 0.929 . S
C375 C372 1.461 . S
C375 C374 1.474 . S
C376 C371 1.342 . S
C376 C374 1.285 . S
C376 H395 0.930 . S
C377 C380 1.424 . S
C377 C382 1.245 . S
C377 C383 1.428 . S
C378 C381 1.260 . S
C378 C382 1.477 . S
C378 H396 0.932 . S
C379 C380 1.384 . S
C379 C381 1.479 . S
C379 H397 0.929 . S
C380 C377 1.424 . S
C380 C379 1.384 . S
C380 H398 0.928 . S
C381 C378 1.260 . S
C381 C379 1.479 . S
C382 C377 1.245 . S
C382 C378 1.477 . S
C382 H399 0.932 . S
C383 U366 2.882 . S
C383 C377 1.428 . S
C383 O386 1.301 . S
C383 O387 1.282 . S
O384 U366 2.441 . S
O384 C370 1.249 . S
O385 U366 2.420 . S
O385 C370 1.202 . S
O386 U366 2.455 . S
O386 C383 1.301 . S
O387 U366 2.449 . S
O387 C383 1.282 . S
H388 C361 0.931 . S
H389 C363 0.929 . S
H390 C364 0.930 . S
H391 C365 0.931 . S
H392 C372 0.932 . S
H393 C373 0.930 . S
H394 C374 0.929 . S
H395 C376 0.930 . S
H396 C378 0.932 . S
H397 C379 0.929 . S
H398 C380 0.928 . S
H399 C382 0.932 . S
C400 C401 1.264 . S
C400 C405 1.479 . S
C400 C410 1.465 . S
C401 C400 1.264 . S
C401 C403 1.339 . S
C401 H428 0.931 . S
C402 C403 1.395 . S
C402 C404 1.320 . S
C403 C401 1.339 . S
C403 C402 1.395 . S
C403 H429 0.929 . S
C404 C402 1.320 . S
C404 C405 1.405 . S
C404 H430 0.930 . S
C405 C400 1.479 . S
C405 C404 1.405 . S
C405 H431 0.931 . S
U406 O407 2.454 . S
U406 O408 2.458 . S
U406 C409 2.984 . S
U406 C410 2.847 . S
U406 C423 2.882 . S
U406 O424 2.441 . S
U406 O425 2.420 . S
U406 O426 2.455 . S
U406 O427 2.449 . S
O407 U406 2.454 . S
O407 C409 1.353 . S
O408 U406 2.458 . S
O408 C409 1.286 . S
C409 U406 2.984 . S
C409 O407 1.353 . S
C409 O408 1.286 . S
C409 C411 1.363 . S
C410 C400 1.465 . S
C410 U406 2.847 . S
C410 O424 1.249 . S
C410 O425 1.202 . S
C411 C409 1.363 . S
C411 C413 1.408 . S
C411 C416 1.342 . S
C412 C413 1.310 . S
C412 C415 1.461 . S
C412 H432 0.932 . S
C413 C411 1.408 . S
C413 C412 1.310 . S
C413 H433 0.930 . S
C414 C415 1.474 . S
C414 C416 1.285 . S
C414 H434 0.929 . S
C415 C412 1.461 . S
C415 C414 1.474 . S
C416 C411 1.342 . S
C416 C414 1.285 . S
C416 H435 0.930 . S
C417 C420 1.424 . S
C417 C422 1.245 . S
C417 C423 1.428 . S
C418 C421 1.260 . S
C418 C422 1.477 . S
C418 H436 0.932 . S
C419 C420 1.384 . S
C419 C421 1.479 . S
C419 H437 0.929 . S
C420 C417 1.424 . S
C420 C419 1.384 . S
C420 H438 0.928 . S
C421 C418 1.260 . S
C421 C419 1.479 . S
C422 C417 1.245 . S
C422 C418 1.477 . S
C422 H439 0.932 . S
C423 U406 2.882 . S
C423 C417 1.428 . S
C423 O426 1.301 . S
C423 O427 1.282 . S
O424 U406 2.441 . S
O424 C410 1.249 . S
O425 U406 2.420 . S
O425 C410 1.202 . S
O426 U406 2.455 . S
O426 C423 1.301 . S
O427 U406 2.449 . S
O427 C423 1.282 . S
H428 C401 0.931 . S
H429 C403 0.929 . S
H430 C404 0.930 . S
H431 C405 0.931 . S
H432 C412 0.932 . S
H433 C413 0.930 . S
H434 C414 0.929 . S
H435 C416 0.930 . S
H436 C418 0.932 . S
H437 C419 0.929 . S
H438 C420 0.928 . S
H439 C422 0.932 . S
C440 C441 1.264 . S
C440 C445 1.479 . S
C440 C450 1.465 . S
C441 C440 1.264 . S
C441 C443 1.339 . S
C441 H468 0.931 . S
C442 C443 1.395 . S
C442 C444 1.320 . S
C443 C441 1.339 . S
C443 C442 1.395 . S
C443 H469 0.929 . S
C444 C442 1.320 . S
C444 C445 1.405 . S
C444 H470 0.930 . S
C445 C440 1.479 . S
C445 C444 1.405 . S
C445 H471 0.931 . S
U446 O447 2.454 . S
U446 O448 2.458 . S
U446 C449 2.984 . S
U446 C450 2.847 . S
U446 C463 2.882 . S
U446 O464 2.441 . S
U446 O465 2.420 . S
U446 O466 2.455 . S
U446 O467 2.449 . S
O447 U446 2.454 . S
O447 C449 1.353 . S
O448 U446 2.458 . S
O448 C449 1.286 . S
C449 U446 2.984 . S
C449 O447 1.353 . S
C449 O448 1.286 . S
C449 C451 1.363 . S
C450 C440 1.465 . S
C450 U446 2.847 . S
C450 O464 1.249 . S
C450 O465 1.202 . S
C451 C449 1.363 . S
C451 C453 1.408 . S
C451 C456 1.342 . S
C452 C453 1.310 . S
C452 C455 1.461 . S
C452 H472 0.932 . S
C453 C451 1.408 . S
C453 C452 1.310 . S
C453 H473 0.930 . S
C454 C455 1.474 . S
C454 C456 1.285 . S
C454 H474 0.929 . S
C455 C452 1.461 . S
C455 C454 1.474 . S
C456 C451 1.342 . S
C456 C454 1.285 . S
C456 H475 0.930 . S
C457 C460 1.424 . S
C457 C462 1.245 . S
C457 C463 1.428 . S
C458 C461 1.260 . S
C458 C462 1.477 . S
C458 H476 0.932 . S
C459 C460 1.384 . S
C459 C461 1.479 . S
C459 H477 0.929 . S
C460 C457 1.424 . S
C460 C459 1.384 . S
C460 H478 0.928 . S
C461 C458 1.260 . S
C461 C459 1.479 . S
C462 C457 1.245 . S
C462 C458 1.477 . S
C462 H479 0.932 . S
C463 U446 2.882 . S
C463 C457 1.428 . S
C463 O466 1.301 . S
C463 O467 1.282 . S
O464 U446 2.441 . S
O464 C450 1.249 . S
O465 U446 2.420 . S
O465 C450 1.202 . S
O466 U446 2.455 . S
O466 C463 1.301 . S
O467 U446 2.449 . S
O467 C463 1.282 . S
H468 C441 0.931 . S
H469 C443 0.929 . S
H470 C444 0.930 . S
H471 C445 0.931 . S
H472 C452 0.932 . S
H473 C453 0.930 . S
H474 C454 0.929 . S
H475 C456 0.930 . S
H476 C458 0.932 . S
H477 C459 0.929 . S
H478 C460 0.928 . S
H479 C462 0.932 . S
C480 C481 1.264 . S
C480 C485 1.479 . S
C480 C490 1.465 . S
C481 C480 1.264 . S
C481 C483 1.339 . S
C481 H508 0.931 . S
C482 C483 1.395 . S
C482 C484 1.320 . S
C483 C481 1.339 . S
C483 C482 1.395 . S
C483 H509 0.929 . S
C484 C482 1.320 . S
C484 C485 1.405 . S
C484 H510 0.930 . S
C485 C480 1.479 . S
C485 C484 1.405 . S
C485 H511 0.931 . S
U486 O487 2.454 . S
U486 O488 2.458 . S
U486 C489 2.984 . S
U486 C490 2.847 . S
U486 C503 2.882 . S
U486 O504 2.441 . S
U486 O505 2.420 . S
U486 O506 2.455 . S
U486 O507 2.449 . S
O487 U486 2.454 . S
O487 C489 1.353 . S
O488 U486 2.458 . S
O488 C489 1.286 . S
C489 U486 2.984 . S
C489 O487 1.353 . S
C489 O488 1.286 . S
C489 C491 1.363 . S
C490 C480 1.465 . S
C490 U486 2.847 . S
C490 O504 1.249 . S
C490 O505 1.202 . S
C491 C489 1.363 . S
C491 C493 1.408 . S
C491 C496 1.342 . S
C492 C493 1.310 . S
C492 C495 1.461 . S
C492 H512 0.932 . S
C493 C491 1.408 . S
C493 C492 1.310 . S
C493 H513 0.930 . S
C494 C495 1.474 . S
C494 C496 1.285 . S
C494 H514 0.929 . S
C495 C492 1.461 . S
C495 C494 1.474 . S
C496 C491 1.342 . S
C496 C494 1.285 . S
C496 H515 0.930 . S
C497 C500 1.424 . S
C497 C502 1.245 . S
C497 C503 1.428 . S
C498 C501 1.260 . S
C498 C502 1.477 . S
C498 H516 0.932 . S
C499 C500 1.384 . S
C499 C501 1.479 . S
C499 H517 0.929 . S
C500 C497 1.424 . S
C500 C499 1.384 . S
C500 H518 0.928 . S
C501 C498 1.260 . S
C501 C499 1.479 . S
C502 C497 1.245 . S
C502 C498 1.477 . S
C502 H519 0.932 . S
C503 U486 2.882 . S
C503 C497 1.428 . S
C503 O506 1.301 . S
C503 O507 1.282 . S
O504 U486 2.441 . S
O504 C490 1.249 . S
O505 U486 2.420 . S
O505 C490 1.202 . S
O506 U486 2.455 . S
O506 C503 1.301 . S
O507 U486 2.449 . S
O507 C503 1.282 . S
H508 C481 0.931 . S
H509 C483 0.929 . S
H510 C484 0.930 . S
H511 C485 0.931 . S
H512 C492 0.932 . S
H513 C493 0.930 . S
H514 C494 0.929 . S
H515 C496 0.930 . S
H516 C498 0.932 . S
H517 C499 0.929 . S
H518 C500 0.928 . S
H519 C502 0.932 . S
C520 C521 1.264 . S
C520 C525 1.479 . S
C520 C530 1.465 . S
C521 C520 1.264 . S
C521 C523 1.339 . S
C521 H548 0.931 . S
C522 C523 1.395 . S
C522 C524 1.320 . S
C523 C521 1.339 . S
C523 C522 1.395 . S
C523 H549 0.929 . S
C524 C522 1.320 . S
C524 C525 1.405 . S
C524 H550 0.930 . S
C525 C520 1.479 . S
C525 C524 1.405 . S
C525 H551 0.931 . S
U526 O527 2.454 . S
U526 O528 2.458 . S
U526 C529 2.984 . S
U526 C530 2.847 . S
U526 C543 2.882 . S
U526 O544 2.441 . S
U526 O545 2.420 . S
U526 O546 2.455 . S
U526 O547 2.449 . S
O527 U526 2.454 . S
O527 C529 1.353 . S
O528 U526 2.458 . S
O528 C529 1.286 . S
C529 U526 2.984 . S
C529 O527 1.353 . S
C529 O528 1.286 . S
C529 C531 1.363 . S
C530 C520 1.465 . S
C530 U526 2.847 . S
C530 O544 1.249 . S
C530 O545 1.202 . S
C531 C529 1.363 . S
C531 C533 1.408 . S
C531 C536 1.342 . S
C532 C533 1.310 . S
C532 C535 1.461 . S
C532 H552 0.932 . S
C533 C531 1.408 . S
C533 C532 1.310 . S
C533 H553 0.930 . S
C534 C535 1.474 . S
C534 C536 1.285 . S
C534 H554 0.929 . S
C535 C532 1.461 . S
C535 C534 1.474 . S
C536 C531 1.342 . S
C536 C534 1.285 . S
C536 H555 0.930 . S
C537 C540 1.424 . S
C537 C542 1.245 . S
C537 C543 1.428 . S
C538 C541 1.260 . S
C538 C542 1.477 . S
C538 H556 0.932 . S
C539 C540 1.384 . S
C539 C541 1.479 . S
C539 H557 0.929 . S
C540 C537 1.424 . S
C540 C539 1.384 . S
C540 H558 0.928 . S
C541 C538 1.260 . S
C541 C539 1.479 . S
C542 C537 1.245 . S
C542 C538 1.477 . S
C542 H559 0.932 . S
C543 U526 2.882 . S
C543 C537 1.428 . S
C543 O546 1.301 . S
C543 O547 1.282 . S
O544 U526 2.441 . S
O544 C530 1.249 . S
O545 U526 2.420 . S
O545 C530 1.202 . S
O546 U526 2.455 . S
O546 C543 1.301 . S
O547 U526 2.449 . S
O547 C543 1.282 . S
H548 C521 0.931 . S
H549 C523 0.929 . S
H550 C524 0.930 . S
H551 C525 0.931 . S
H552 C532 0.932 . S
H553 C533 0.930 . S
H554 C534 0.929 . S
H555 C536 0.930 . S
H556 C538 0.932 . S
H557 C539 0.929 . S
H558 C540 0.928 . S
H559 C542 0.932 . S
C560 C561 1.264 . S
C560 C565 1.479 . S
C560 C570 1.465 . S
C561 C560 1.264 . S
C561 C563 1.339 . S
C561 H588 0.931 . S
C562 C563 1.395 . S
C562 C564 1.320 . S
C563 C561 1.339 . S
C563 C562 1.395 . S
C563 H589 0.929 . S
C564 C562 1.320 . S
C564 C565 1.405 . S
C564 H590 0.930 . S
C565 C560 1.479 . S
C565 C564 1.405 . S
C565 H591 0.931 . S
U566 O567 2.454 . S
U566 O568 2.458 . S
U566 C569 2.984 . S
U566 C570 2.847 . S
U566 C583 2.882 . S
U566 O584 2.441 . S
U566 O585 2.420 . S
U566 O586 2.455 . S
U566 O587 2.449 . S
O567 U566 2.454 . S
O567 C569 1.353 . S
O568 U566 2.458 . S
O568 C569 1.286 . S
C569 U566 2.984 . S
C569 O567 1.353 . S
C569 O568 1.286 . S
C569 C571 1.363 . S
C570 C560 1.465 . S
C570 U566 2.847 . S
C570 O584 1.249 . S
C570 O585 1.202 . S
C571 C569 1.363 . S
C571 C573 1.408 . S
C571 C576 1.342 . S
C572 C573 1.310 . S
C572 C575 1.461 . S
C572 H592 0.932 . S
C573 C571 1.408 . S
C573 C572 1.310 . S
C573 H593 0.930 . S
C574 C575 1.474 . S
C574 C576 1.285 . S
C574 H594 0.929 . S
C575 C572 1.461 . S
C575 C574 1.474 . S
C576 C571 1.342 . S
C576 C574 1.285 . S
C576 H595 0.930 . S
C577 C580 1.424 . S
C577 C582 1.245 . S
C577 C583 1.428 . S
C578 C581 1.260 . S
C578 C582 1.477 . S
C578 H596 0.932 . S
C579 C580 1.384 . S
C579 C581 1.479 . S
C579 H597 0.929 . S
C580 C577 1.424 . S
C580 C579 1.384 . S
C580 H598 0.928 . S
C581 C578 1.260 . S
C581 C579 1.479 . S
C582 C577 1.245 . S
C582 C578 1.477 . S
C582 H599 0.932 . S
C583 U566 2.882 . S
C583 C577 1.428 . S
C583 O586 1.301 . S
C583 O587 1.282 . S
O584 U566 2.441 . S
O584 C570 1.249 . S
O585 U566 2.420 . S
O585 C570 1.202 . S
O586 U566 2.455 . S
O586 C583 1.301 . S
O587 U566 2.449 . S
O587 C583 1.282 . S
H588 C561 0.931 . S
H589 C563 0.929 . S
H590 C564 0.930 . S
H591 C565 0.931 . S
H592 C572 0.932 . S
H593 C573 0.930 . S
H594 C574 0.929 . S
H595 C576 0.930 . S
H596 C578 0.932 . S
H597 C579 0.929 . S
H598 C580 0.928 . S
H599 C582 0.932 . S
C600 C601 1.264 . S
C600 C605 1.479 . S
C600 C610 1.465 . S
C601 C600 1.264 . S
C601 C603 1.339 . S
C601 H628 0.931 . S
C602 C603 1.395 . S
C602 C604 1.320 . S
C603 C601 1.339 . S
C603 C602 1.395 . S
C603 H629 0.929 . S
C604 C602 1.320 . S
C604 C605 1.405 . S
C604 H630 0.930 . S
C605 C600 1.479 . S
C605 C604 1.405 . S
C605 H631 0.931 . S
U606 O607 2.454 . S
U606 O608 2.458 . S
U606 C609 2.984 . S
U606 C610 2.847 . S
U606 C623 2.882 . S
U606 O624 2.441 . S
U606 O625 2.420 . S
U606 O626 2.455 . S
U606 O627 2.449 . S
O607 U606 2.454 . S
O607 C609 1.353 . S
O608 U606 2.458 . S
O608 C609 1.286 . S
C609 U606 2.984 . S
C609 O607 1.353 . S
C609 O608 1.286 . S
C609 C611 1.363 . S
C610 C600 1.465 . S
C610 U606 2.847 . S
C610 O624 1.249 . S
C610 O625 1.202 . S
C611 C609 1.363 . S
C611 C613 1.408 . S
C611 C616 1.342 . S
C612 C613 1.310 . S
C612 C615 1.461 . S
C612 H632 0.932 . S
C613 C611 1.408 . S
C613 C612 1.310 . S
C613 H633 0.930 . S
C614 C615 1.474 . S
C614 C616 1.285 . S
C614 H634 0.929 . S
C615 C612 1.461 . S
C615 C614 1.474 . S
C616 C611 1.342 . S
C616 C614 1.285 . S
C616 H635 0.930 . S
C617 C620 1.424 . S
C617 C622 1.245 . S
C617 C623 1.428 . S
C618 C621 1.260 . S
C618 C622 1.477 . S
C618 H636 0.932 . S
C619 C620 1.384 . S
C619 C621 1.479 . S
C619 H637 0.929 . S
C620 C617 1.424 . S
C620 C619 1.384 . S
C620 H638 0.928 . S
C621 C618 1.260 . S
C621 C619 1.479 . S
C622 C617 1.245 . S
C622 C618 1.477 . S
C622 H639 0.932 . S
C623 U606 2.882 . S
C623 C617 1.428 . S
C623 O626 1.301 . S
C623 O627 1.282 . S
O624 U606 2.441 . S
O624 C610 1.249 . S
O625 U606 2.420 . S
O625 C610 1.202 . S
O626 U606 2.455 . S
O626 C623 1.301 . S
O627 U606 2.449 . S
O627 C623 1.282 . S
H628 C601 0.931 . S
H629 C603 0.929 . S
H630 C604 0.930 . S
H631 C605 0.931 . S
H632 C612 0.932 . S
H633 C613 0.930 . S
H634 C614 0.929 . S
H635 C616 0.930 . S
H636 C618 0.932 . S
H637 C619 0.929 . S
H638 C620 0.928 . S
H639 C622 0.932 . S
C640 C641 1.264 . S
C640 C645 1.479 . S
C640 C650 1.465 . S
C641 C640 1.264 . S
C641 C643 1.339 . S
C641 H668 0.931 . S
C642 C643 1.395 . S
C642 C644 1.320 . S
C643 C641 1.339 . S
C643 C642 1.395 . S
C643 H669 0.929 . S
C644 C642 1.320 . S
C644 C645 1.405 . S
C644 H670 0.930 . S
C645 C640 1.479 . S
C645 C644 1.405 . S
C645 H671 0.931 . S
U646 O647 2.454 . S
U646 O648 2.458 . S
U646 C649 2.984 . S
U646 C650 2.847 . S
U646 C663 2.882 . S
U646 O664 2.441 . S
U646 O665 2.420 . S
U646 O666 2.455 . S
U646 O667 2.449 . S
O647 U646 2.454 . S
O647 C649 1.353 . S
O648 U646 2.458 . S
O648 C649 1.286 . S
C649 U646 2.984 . S
C649 O647 1.353 . S
C649 O648 1.286 . S
C649 C651 1.363 . S
C650 C640 1.465 . S
C650 U646 2.847 . S
C650 O664 1.249 . S
C650 O665 1.202 . S
C651 C649 1.363 . S
C651 C653 1.408 . S
C651 C656 1.342 . S
C652 C653 1.310 . S
C652 C655 1.461 . S
C652 H672 0.932 . S
C653 C651 1.408 . S
C653 C652 1.310 . S
C653 H673 0.930 . S
C654 C655 1.474 . S
C654 C656 1.285 . S
C654 H674 0.929 . S
C655 C652 1.461 . S
C655 C654 1.474 . S
C656 C651 1.342 . S
C656 C654 1.285 . S
C656 H675 0.930 . S
C657 C660 1.424 . S
C657 C662 1.245 . S
C657 C663 1.428 . S
C658 C661 1.260 . S
C658 C662 1.477 . S
C658 H676 0.932 . S
C659 C660 1.384 . S
C659 C661 1.479 . S
C659 H677 0.929 . S
C660 C657 1.424 . S
C660 C659 1.384 . S
C660 H678 0.928 . S
C661 C658 1.260 . S
C661 C659 1.479 . S
C662 C657 1.245 . S
C662 C658 1.477 . S
C662 H679 0.932 . S
C663 U646 2.882 . S
C663 C657 1.428 . S
C663 O666 1.301 . S
C663 O667 1.282 . S
O664 U646 2.441 . S
O664 C650 1.249 . S
O665 U646 2.420 . S
O665 C650 1.202 . S
O666 U646 2.455 . S
O666 C663 1.301 . S
O667 U646 2.449 . S
O667 C663 1.282 . S
H668 C641 0.931 . S
H669 C643 0.929 . S
H670 C644 0.930 . S
H671 C645 0.931 . S
H672 C652 0.932 . S
H673 C653 0.930 . S
H674 C654 0.929 . S
H675 C656 0.930 . S
H676 C658 0.932 . S
H677 C659 0.929 . S
H678 C660 0.928 . S
H679 C662 0.932 . S
C680 C681 1.264 . S
C680 C685 1.479 . S
C680 C690 1.465 . S
C681 C680 1.264 . S
C681 C683 1.339 . S
C681 H708 0.931 . S
C682 C683 1.395 . S
C682 C684 1.320 . S
C683 C681 1.339 . S
C683 C682 1.395 . S
C683 H709 0.929 . S
C684 C682 1.320 . S
C684 C685 1.405 . S
C684 H710 0.930 . S
C685 C680 1.479 . S
C685 C684 1.405 . S
C685 H711 0.931 . S
U686 O687 2.454 . S
U686 O688 2.458 . S
U686 C689 2.984 . S
U686 C690 2.847 . S
U686 C703 2.882 . S
U686 O704 2.441 . S
U686 O705 2.420 . S
U686 O706 2.455 . S
U686 O707 2.449 . S
O687 U686 2.454 . S
O687 C689 1.353 . S
O688 U686 2.458 . S
O688 C689 1.286 . S
C689 U686 2.984 . S
C689 O687 1.353 . S
C689 O688 1.286 . S
C689 C691 1.363 . S
C690 C680 1.465 . S
C690 U686 2.847 . S
C690 O704 1.249 . S
C690 O705 1.202 . S
C691 C689 1.363 . S
C691 C693 1.408 . S
C691 C696 1.342 . S
C692 C693 1.310 . S
C692 C695 1.461 . S
C692 H712 0.932 . S
C693 C691 1.408 . S
C693 C692 1.310 . S
C693 H713 0.930 . S
C694 C695 1.474 . S
C694 C696 1.285 . S
C694 H714 0.929 . S
C695 C692 1.461 . S
C695 C694 1.474 . S
C696 C691 1.342 . S
C696 C694 1.285 . S
C696 H715 0.930 . S
C697 C700 1.424 . S
C697 C702 1.245 . S
C697 C703 1.428 . S
C698 C701 1.260 . S
C698 C702 1.477 . S
C698 H716 0.932 . S
C699 C700 1.384 . S
C699 C701 1.479 . S
C699 H717 0.929 . S
C700 C697 1.424 . S
C700 C699 1.384 . S
C700 H718 0.928 . S
C701 C698 1.260 . S
C701 C699 1.479 . S
C702 C697 1.245 . S
C702 C698 1.477 . S
C702 H719 0.932 . S
C703 U686 2.882 . S
C703 C697 1.428 . S
C703 O706 1.301 . S
C703 O707 1.282 . S
O704 U686 2.441 . S
O704 C690 1.249 . S
O705 U686 2.420 . S
O705 C690 1.202 . S
O706 U686 2.455 . S
O706 C703 1.301 . S
O707 U686 2.449 . S
O707 C703 1.282 . S
H708 C681 0.931 . S
H709 C683 0.929 . S
H710 C684 0.930 . S
H711 C685 0.931 . S
H712 C692 0.932 . S
H713 C693 0.930 . S
H714 C694 0.929 . S
H715 C696 0.930 . S
H716 C698 0.932 . S
H717 C699 0.929 . S
H718 C700 0.928 . S
H719 C702 0.932 . S
Eu720 N751 2.657 . S
Eu720 N758 2.609 . S
Eu720 O764 2.558 . S
Eu720 O765 2.652 1_565 S
Eu720 O767 2.339 1_565 S
Eu720 O768 2.563 1_565 S
Eu720 O769 2.419 . S
Eu720 O771 2.380 1_556 S
Eu720 O772 2.432 . S
Eu720 C784 2.848 . S
C721 C724 1.429 . S
C721 C725 1.411 . S
C721 N728 1.377 . S
C722 C724 1.420 . S
C722 C726 1.423 . S
C722 C734 1.392 . S
C723 C725 1.420 . S
C723 C726 1.351 . S
C723 H746 0.931 . S
C724 C721 1.429 . S
C724 C722 1.420 . S
C724 N732 1.362 . S
C725 C721 1.411 . S
C725 C723 1.420 . S
C725 C730 1.395 . S
C726 C722 1.423 . S
C726 C723 1.351 . S
C726 H738 0.930 . S
C727 C729 1.400 . S
C727 C730 1.386 . S
C727 H739 0.930 . S
N728 C721 1.377 . S
N728 C729 1.321 . S
N728 Eu731 2.609 . S
C729 C727 1.400 . S
C729 N728 1.321 . S
C729 H736 0.930 . S
C730 C725 1.395 . S
C730 C727 1.386 . S
C730 H749 0.930 . S
Eu731 N728 2.609 . S
Eu731 N732 2.657 . S
Eu731 O765 2.316 1_554 S
Eu731 O766 2.432 . S
Eu731 O770 2.558 . S
Eu731 O771 2.612 1_545 S
Eu731 O773 2.339 1_545 S
Eu731 O774 2.563 1_545 S
Eu731 O775 2.419 . S
Eu731 C795 2.848 . S
N732 C724 1.362 . S
N732 Eu731 2.657 . S
N732 C733 1.334 . S
C733 N732 1.334 . S
C733 C735 1.413 . S
C733 H740 0.929 . S
C734 C722 1.392 . S
C734 C735 1.367 . S
C734 H742 0.930 . S
C735 C733 1.413 . S
C735 C734 1.367 . S
C735 H737 0.930 . S
H736 C729 0.930 . S
H737 C735 0.930 . S
H738 C726 0.930 . S
H739 C727 0.930 . S
H740 C733 0.929 . S
H741 C755 0.930 . S
H742 C734 0.930 . S
H743 C761 0.930 . S
H744 C752 0.929 . S
H745 C759 0.930 . S
H746 C723 0.931 . S
H747 C753 0.930 . S
H748 C786 0.930 . S
H749 C730 0.930 . S
H750 C785 0.931 . S
N751 Eu720 2.657 . S
N751 C752 1.334 . S
N751 C756 1.362 . S
C752 H744 0.929 . S
C752 N751 1.334 . S
C752 C755 1.413 . S
C753 H747 0.930 . S
C753 C754 1.392 . S
C753 C755 1.367 . S
C754 C753 1.392 . S
C754 C756 1.420 . S
C754 C786 1.423 . S
C755 H741 0.930 . S
C755 C752 1.413 . S
C755 C753 1.367 . S
C756 N751 1.362 . S
C756 C754 1.420 . S
C756 C760 1.429 . S
H757 C762 0.930 . S
N758 Eu720 2.609 . S
N758 C760 1.377 . S
N758 C761 1.321 . S
C759 H745 0.930 . S
C759 C761 1.400 . S
C759 C762 1.386 . S
C760 C756 1.429 . S
C760 N758 1.377 . S
C760 C763 1.411 . S
C761 H743 0.930 . S
C761 N758 1.321 . S
C761 C759 1.400 . S
C762 H757 0.930 . S
C762 C759 1.386 . S
C762 C763 1.395 . S
C763 C760 1.411 . S
C763 C762 1.395 . S
C763 C785 1.420 . S
O764 Eu720 2.558 . S
O764 C784 1.257 . S
O765 Eu720 2.652 1_545 S
O765 Eu731 2.316 1_556 S
O765 C776 1.329 . S
O766 Eu731 2.432 . S
O766 C783 1.264 1_554 S
O767 Eu720 2.339 1_545 S
O767 C783 1.254 . S
O768 Eu720 2.563 1_545 S
O768 C776 1.235 . S
O769 Eu720 2.419 . S
O769 C784 1.249 . S
O770 Eu731 2.558 . S
O770 C795 1.257 . S
O771 Eu720 2.380 1_554 S
O771 Eu731 2.612 1_565 S
O771 C787 1.276 . S
O772 Eu720 2.432 . S
O772 C794 1.264 1_556 S
O773 Eu731 2.339 1_565 S
O773 C794 1.254 . S
O774 Eu731 2.563 1_565 S
O774 C787 1.235 . S
O775 Eu731 2.419 . S
O775 C795 1.249 . S
C776 O765 1.329 . S
C776 O768 1.235 . S
C777 C779 1.393 1_565 S
C777 C781 1.395 . S
C777 C784 1.492 . S
C778 C779 1.392 . S
C778 C780 1.386 1_545 S
C779 C777 1.393 1_545 S
C779 C778 1.392 . S
C779 H796 0.930 . S
C780 C778 1.386 1_565 S
C780 C782 1.395 . S
C780 H797 0.932 . S
C781 C777 1.395 . S
C781 C782 1.379 . S
C781 H798 0.930 . S
C782 C780 1.395 . S
C782 C781 1.379 . S
C782 H799 0.930 . S
C783 O766 1.264 1_556 S
C783 O767 1.254 . S
C784 Eu720 2.848 . S
C784 O764 1.257 . S
C784 O769 1.249 . S
C784 C777 1.492 . S
C785 H750 0.931 . S
C785 C763 1.420 . S
C785 C786 1.351 . S
C786 H748 0.930 . S
C786 C754 1.423 . S
C786 C785 1.351 . S
C787 O771 1.276 . S
C787 O774 1.235 . S
C788 C789 1.393 1_545 S
C788 C792 1.395 . S
C788 C795 1.492 . S
C789 C788 1.393 1_565 S
C789 C790 1.392 . S
C789 H800 0.930 . S
C790 C789 1.392 . S
C790 C791 1.386 1_565 S
C791 C790 1.386 1_545 S
C791 C793 1.395 . S
C791 H801 0.930 . S
C792 C788 1.395 . S
C792 C793 1.379 . S
C792 H802 0.930 . S
C793 C791 1.395 . S
C793 C792 1.379 . S
C793 H803 0.930 . S
C794 O772 1.264 1_554 S
C794 O773 1.254 . S
C795 Eu731 2.848 . S
C795 O770 1.257 . S
C795 O775 1.249 . S
C795 C788 1.492 . S
H796 C779 0.930 . S
H797 C780 0.932 . S
H798 C781 0.930 . S
H799 C782 0.930 . S
H800 C789 0.930 . S
H801 C791 0.930 . S
H802 C792 0.930 . S
H803 C793 0.930 . S
Eu804 N835 2.657 . S
Eu804 N842 2.609 . S
Eu804 O848 2.558 . S
Eu804 O849 2.612 1_455 S
Eu804 O851 2.339 1_455 S
Eu804 O852 2.563 1_455 S
Eu804 O853 2.419 . S
Eu804 O855 2.380 1_556 S
Eu804 O856 2.432 . S
Eu804 C868 2.848 . S
C805 C808 1.429 . S
C805 C809 1.411 . S
C805 N812 1.377 . S
C806 C808 1.420 . S
C806 C810 1.423 . S
C806 C818 1.392 . S
C807 C809 1.420 . S
C807 C810 1.351 . S
C807 H830 0.931 . S
C808 C805 1.429 . S
C808 C806 1.420 . S
C808 N816 1.362 . S
C809 C805 1.411 . S
C809 C807 1.420 . S
C809 C814 1.395 . S
C810 C806 1.423 . S
C810 C807 1.351 . S
C810 H822 0.930 . S
C811 C813 1.400 . S
C811 C814 1.386 . S
C811 H823 0.930 . S
N812 C805 1.377 . S
N812 C813 1.321 . S
N812 Eu815 2.609 . S
C813 C811 1.400 . S
C813 N812 1.321 . S
C813 H820 0.930 . S
C814 C809 1.395 . S
C814 C811 1.386 . S
C814 H833 0.930 . S
Eu815 N812 2.609 . S
Eu815 N816 2.657 . S
Eu815 O849 2.380 1_554 S
Eu815 O850 2.432 . S
Eu815 O854 2.558 . S
Eu815 O855 2.612 1_655 S
Eu815 O857 2.339 1_655 S
Eu815 O858 2.563 1_655 S
Eu815 O859 2.419 . S
Eu815 C879 2.848 . S
N816 C808 1.362 . S
N816 Eu815 2.657 . S
N816 C817 1.334 . S
C817 N816 1.334 . S
C817 C819 1.413 . S
C817 H824 0.929 . S
C818 C806 1.392 . S
C818 C819 1.367 . S
C818 H826 0.930 . S
C819 C817 1.413 . S
C819 C818 1.367 . S
C819 H821 0.930 . S
H820 C813 0.930 . S
H821 C819 0.930 . S
H822 C810 0.930 . S
H823 C811 0.930 . S
H824 C817 0.929 . S
H825 C839 0.930 . S
H826 C818 0.930 . S
H827 C845 0.930 . S
H828 C836 0.929 . S
H829 C843 0.930 . S
H830 C807 0.931 . S
H831 C837 0.930 . S
H832 C870 0.930 . S
H833 C814 0.930 . S
H834 C869 0.931 . S
N835 Eu804 2.657 . S
N835 C836 1.334 . S
N835 C840 1.362 . S
C836 H828 0.929 . S
C836 N835 1.334 . S
C836 C839 1.413 . S
C837 H831 0.930 . S
C837 C838 1.392 . S
C837 C839 1.367 . S
C838 C837 1.392 . S
C838 C840 1.420 . S
C838 C870 1.423 . S
C839 H825 0.930 . S
C839 C836 1.413 . S
C839 C837 1.367 . S
C840 N835 1.362 . S
C840 C838 1.420 . S
C840 C844 1.429 . S
H841 C846 0.930 . S
N842 Eu804 2.609 . S
N842 C844 1.377 . S
N842 C845 1.321 . S
C843 H829 0.930 . S
C843 C845 1.400 . S
C843 C846 1.386 . S
C844 C840 1.429 . S
C844 N842 1.377 . S
C844 C847 1.411 . S
C845 H827 0.930 . S
C845 N842 1.321 . S
C845 C843 1.400 . S
C846 H841 0.930 . S
C846 C843 1.386 . S
C846 C847 1.395 . S
C847 C844 1.411 . S
C847 C846 1.395 . S
C847 C869 1.420 . S
O848 Eu804 2.558 . S
O848 C868 1.257 . S
O849 Eu804 2.612 1_655 S
O849 Eu815 2.380 1_556 S
O849 C860 1.276 . S
O850 Eu815 2.432 . S
O850 C867 1.264 1_554 S
O851 Eu804 2.339 1_655 S
O851 C867 1.254 . S
O852 Eu804 2.563 1_655 S
O852 C860 1.235 . S
O853 Eu804 2.419 . S
O853 C868 1.249 . S
O854 Eu815 2.558 . S
O854 C879 1.257 . S
O855 Eu804 2.380 1_554 S
O855 Eu815 2.612 1_455 S
O855 C871 1.276 . S
O856 Eu804 2.432 . S
O856 C878 1.264 1_556 S
O857 Eu815 2.339 1_455 S
O857 C878 1.254 . S
O858 Eu815 2.563 1_455 S
O858 C871 1.235 . S
O859 Eu815 2.419 . S
O859 C879 1.249 . S
C860 O849 1.276 . S
C860 O852 1.235 . S
C861 C863 1.393 1_455 S
C861 C865 1.395 . S
C861 C868 1.492 . S
C862 C863 1.392 . S
C862 C864 1.386 1_655 S
C863 C861 1.393 1_655 S
C863 C862 1.392 . S
C863 H880 0.930 . S
C864 C862 1.386 1_455 S
C864 C866 1.395 . S
C864 H881 0.930 . S
C865 C861 1.395 . S
C865 C866 1.379 . S
C865 H882 0.930 . S
C866 C864 1.395 . S
C866 C865 1.379 . S
C866 H883 0.930 . S
C867 O850 1.264 1_556 S
C867 O851 1.254 . S
C868 Eu804 2.848 . S
C868 O848 1.257 . S
C868 O853 1.249 . S
C868 C861 1.492 . S
C869 H834 0.931 . S
C869 C847 1.420 . S
C869 C870 1.351 . S
C870 H832 0.930 . S
C870 C838 1.423 . S
C870 C869 1.351 . S
C871 O855 1.276 . S
C871 O858 1.235 . S
C872 C873 1.393 1_655 S
C872 C876 1.395 . S
C872 C879 1.492 . S
C873 C872 1.393 1_455 S
C873 C874 1.392 . S
C873 H884 0.930 . S
C874 C873 1.392 . S
C874 C875 1.386 1_455 S
C875 C874 1.386 1_655 S
C875 C877 1.395 . S
C875 H885 0.930 . S
C876 C872 1.395 . S
C876 C877 1.379 . S
C876 H886 0.930 . S
C877 C875 1.395 . S
C877 C876 1.379 . S
C877 H887 0.930 . S
C878 O856 1.264 1_554 S
C878 O857 1.254 . S
C879 Eu815 2.848 . S
C879 O854 1.257 . S
C879 O859 1.249 . S
C879 C872 1.492 . S
H880 C863 0.930 . S
H881 C864 0.930 . S
H882 C865 0.930 . S
H883 C866 0.930 . S
H884 C873 0.930 . S
H885 C875 0.930 . S
H886 C876 0.930 . S
H887 C877 0.930 . S
Eu888 N919 2.657 . S
Eu888 N926 2.609 . S
Eu888 O932 2.558 . S
Eu888 O933 2.612 . S
Eu888 O935 2.339 . S
Eu888 O936 2.563 . S
Eu888 O937 2.419 . S
Eu888 O939 2.380 1_554 S
Eu888 O940 2.432 . S
Eu888 C952 2.848 . S
C889 C892 1.429 . S
C889 C893 1.411 . S
C889 N896 1.377 . S
C890 C892 1.420 . S
C890 C894 1.423 . S
C890 C902 1.392 . S
C891 C893 1.420 . S
C891 C894 1.351 . S
C891 H914 0.931 . S
C892 C889 1.429 . S
C892 C890 1.420 . S
C892 N900 1.362 . S
C893 C889 1.411 . S
C893 C891 1.420 . S
C893 C898 1.395 . S
C894 C890 1.423 . S
C894 C891 1.351 . S
C894 H906 0.930 . S
C895 C897 1.400 . S
C895 C898 1.386 . S
C895 H907 0.930 . S
N896 C889 1.377 . S
N896 C897 1.321 . S
N896 Eu899 2.609 . S
C897 C895 1.400 . S
C897 N896 1.321 . S
C897 H904 0.930 . S
C898 C893 1.395 . S
C898 C895 1.386 . S
C898 H917 0.930 . S
Eu899 N896 2.609 . S
Eu899 N900 2.657 . S
Eu899 O933 2.380 1_556 S
Eu899 O934 2.432 . S
Eu899 O938 2.558 . S
Eu899 O939 2.612 . S
Eu899 O941 2.339 . S
Eu899 O942 2.563 . S
Eu899 O943 2.419 . S
Eu899 C963 2.848 . S
N900 C892 1.362 . S
N900 Eu899 2.657 . S
N900 C901 1.334 . S
C901 N900 1.334 . S
C901 C903 1.413 . S
C901 H908 0.929 . S
C902 C890 1.392 . S
C902 C903 1.367 . S
C902 H910 0.930 . S
C903 C901 1.413 . S
C903 C902 1.367 . S
C903 H905 0.930 . S
H904 C897 0.930 . S
H905 C903 0.930 . S
H906 C894 0.930 . S
H907 C895 0.930 . S
H908 C901 0.929 . S
H909 C923 0.930 . S
H910 C902 0.930 . S
H911 C929 0.930 . S
H912 C920 0.929 . S
H913 C927 0.930 . S
H914 C891 0.931 . S
H915 C921 0.930 . S
H916 C954 0.930 . S
H917 C898 0.930 . S
H918 C953 0.931 . S
N919 Eu888 2.657 . S
N919 C920 1.334 . S
N919 C924 1.362 . S
C920 H912 0.929 . S
C920 N919 1.334 . S
C920 C923 1.413 . S
C921 H915 0.930 . S
C921 C922 1.392 . S
C921 C923 1.367 . S
C922 C921 1.392 . S
C922 C924 1.420 . S
C922 C954 1.423 . S
C923 H909 0.930 . S
C923 C920 1.413 . S
C923 C921 1.367 . S
C924 N919 1.362 . S
C924 C922 1.420 . S
C924 C928 1.429 . S
H925 C930 0.930 . S
N926 Eu888 2.609 . S
N926 C928 1.377 . S
N926 C929 1.321 . S
C927 H913 0.930 . S
C927 C929 1.400 . S
C927 C930 1.386 . S
C928 C924 1.429 . S
C928 N926 1.377 . S
C928 C931 1.411 . S
C929 H911 0.930 . S
C929 N926 1.321 . S
C929 C927 1.400 . S
C930 H925 0.930 . S
C930 C927 1.386 . S
C930 C931 1.395 . S
C931 C928 1.411 . S
C931 C930 1.395 . S
C931 C953 1.420 . S
O932 Eu888 2.558 . S
O932 C952 1.257 . S
O933 Eu888 2.612 . S
O933 Eu899 2.380 1_554 S
O933 C944 1.276 . S
O934 Eu899 2.432 . S
O934 C951 1.264 1_556 S
O935 Eu888 2.339 . S
O935 C951 1.254 . S
O936 Eu888 2.563 . S
O936 C944 1.235 . S
O937 Eu888 2.419 . S
O937 C952 1.249 . S
O938 Eu899 2.558 . S
O938 C963 1.257 . S
O939 Eu888 2.380 1_556 S
O939 Eu899 2.612 . S
O939 C955 1.276 . S
O940 Eu888 2.432 . S
O940 C962 1.264 1_554 S
O941 Eu899 2.339 . S
O941 C962 1.254 . S
O942 Eu899 2.563 . S
O942 C955 1.235 . S
O943 Eu899 2.419 . S
O943 C963 1.249 . S
C944 O933 1.276 . S
C944 O936 1.235 . S
C945 C947 1.393 . S
C945 C949 1.395 . S
C945 C952 1.492 . S
C946 C947 1.392 . S
C946 C948 1.386 . S
C947 C945 1.393 . S
C947 C946 1.392 . S
C947 H964 0.930 . S
C948 C946 1.386 . S
C948 C950 1.395 . S
C948 H965 0.930 . S
C949 C945 1.395 . S
C949 C950 1.379 . S
C949 H966 0.930 . S
C950 C948 1.395 . S
C950 C949 1.379 . S
C950 H967 0.930 . S
C951 O934 1.264 1_554 S
C951 O935 1.254 . S
C952 Eu888 2.848 . S
C952 O932 1.257 . S
C952 O937 1.249 . S
C952 C945 1.492 . S
C953 H918 0.931 . S
C953 C931 1.420 . S
C953 C954 1.351 . S
C954 H916 0.930 . S
C954 C922 1.423 . S
C954 C953 1.351 . S
C955 O939 1.276 . S
C955 O942 1.235 . S
C956 C957 1.393 . S
C956 C960 1.395 . S
C956 C963 1.492 . S
C957 C956 1.393 . S
C957 C958 1.392 . S
C957 H968 0.930 . S
C958 C957 1.392 . S
C958 C959 1.386 . S
C959 C958 1.386 . S
C959 C961 1.395 . S
C959 H969 0.930 . S
C960 C956 1.395 . S
C960 C961 1.379 . S
C960 H970 0.930 . S
C961 C959 1.395 . S
C961 C960 1.379 . S
C961 H971 0.930 . S
C962 O940 1.264 1_556 S
C962 O941 1.254 . S
C963 Eu899 2.848 . S
C963 O938 1.257 . S
C963 O943 1.249 . S
C963 C956 1.492 . S
H964 C947 0.930 . S
H965 C948 0.930 . S
H966 C949 0.930 . S
H967 C950 0.930 . S
H968 C957 0.930 . S
H969 C959 0.930 . S
H970 C960 0.930 . S
H971 C961 0.930 . S
Eu972 N1003 2.657 . S
Eu972 N1010 2.609 . S
Eu972 O1016 2.558 . S
Eu972 O1017 2.612 . S
Eu972 O1019 2.339 . S
Eu972 O1020 2.563 . S
Eu972 O1021 2.419 . S
Eu972 O1023 2.380 . S
Eu972 O1024 2.432 . S
Eu972 C1036 2.848 . S
C973 C976 1.429 . S
C973 C977 1.411 . S
C973 N980 1.377 . S
C974 C976 1.420 . S
C974 C978 1.423 . S
C974 C986 1.392 . S
C975 C977 1.420 . S
C975 C978 1.351 . S
C975 H998 0.931 . S
C976 C973 1.429 . S
C976 C974 1.420 . S
C976 N984 1.362 . S
C977 C973 1.411 . S
C977 C975 1.420 . S
C977 C982 1.395 . S
C978 C974 1.423 . S
C978 C975 1.351 . S
C978 H990 0.930 . S
C979 C981 1.400 . S
C979 C982 1.386 . S
C979 H991 0.930 . S
N980 C973 1.377 . S
N980 C981 1.321 . S
N980 Eu983 2.609 . S
C981 C979 1.400 . S
C981 N980 1.321 . S
C981 H988 0.930 . S
C982 C977 1.395 . S
C982 C979 1.386 . S
C982 H1001 0.930 . S
Eu983 N980 2.609 . S
Eu983 N984 2.657 . S
Eu983 O1017 2.380 . S
Eu983 O1018 2.432 . S
Eu983 O1022 2.558 . S
Eu983 O1023 2.612 . S
Eu983 O1025 2.339 . S
Eu983 O1026 2.563 . S
Eu983 O1027 2.419 . S
Eu983 C1047 2.848 . S
N984 C976 1.362 . S
N984 Eu983 2.657 . S
N984 C985 1.334 . S
C985 N984 1.334 . S
C985 C987 1.413 . S
C985 H992 0.929 . S
C986 C974 1.392 . S
C986 C987 1.367 . S
C986 H994 0.930 . S
C987 C985 1.413 . S
C987 C986 1.367 . S
C987 H989 0.930 . S
H988 C981 0.930 . S
H989 C987 0.930 . S
H990 C978 0.930 . S
H991 C979 0.930 . S
H992 C985 0.929 . S
H993 C1007 0.930 . S
H994 C986 0.930 . S
H995 C1013 0.930 . S
H996 C1004 0.929 . S
H997 C1011 0.930 . S
H998 C975 0.931 . S
H999 C1005 0.930 . S
H1000 C1038 0.930 . S
H1001 C982 0.930 . S
H1002 C1037 0.931 . S
N1003 Eu972 2.657 . S
N1003 C1004 1.334 . S
N1003 C1008 1.362 . S
C1004 H996 0.929 . S
C1004 N1003 1.334 . S
C1004 C1007 1.413 . S
C1005 H999 0.930 . S
C1005 C1006 1.392 . S
C1005 C1007 1.367 . S
C1006 C1005 1.392 . S
C1006 C1008 1.420 . S
C1006 C1038 1.423 . S
C1007 H993 0.930 . S
C1007 C1004 1.413 . S
C1007 C1005 1.367 . S
C1008 N1003 1.362 . S
C1008 C1006 1.420 . S
C1008 C1012 1.429 . S
H1009 C1014 0.930 . S
N1010 Eu972 2.609 . S
N1010 C1012 1.377 . S
N1010 C1013 1.321 . S
C1011 H997 0.930 . S
C1011 C1013 1.400 . S
C1011 C1014 1.386 . S
C1012 C1008 1.429 . S
C1012 N1010 1.377 . S
C1012 C1015 1.411 . S
C1013 H995 0.930 . S
C1013 N1010 1.321 . S
C1013 C1011 1.400 . S
C1014 H1009 0.930 . S
C1014 C1011 1.386 . S
C1014 C1015 1.395 . S
C1015 C1012 1.411 . S
C1015 C1014 1.395 . S
C1015 C1037 1.420 . S
O1016 Eu972 2.558 . S
O1016 C1036 1.257 . S
O1017 Eu972 2.612 . S
O1017 Eu983 2.380 . S
O1017 C1028 1.276 . S
O1018 Eu983 2.432 . S
O1018 C1035 1.264 . S
O1019 Eu972 2.339 . S
O1019 C1035 1.254 . S
O1020 Eu972 2.563 . S
O1020 C1028 1.235 . S
O1021 Eu972 2.419 . S
O1021 C1036 1.249 . S
O1022 Eu983 2.558 . S
O1022 C1047 1.257 . S
O1023 Eu972 2.380 . S
O1023 Eu983 2.612 . S
O1023 C1039 1.276 . S
O1024 Eu972 2.432 . S
O1024 C1046 1.264 . S
O1025 Eu983 2.339 . S
O1025 C1046 1.254 . S
O1026 Eu983 2.563 . S
O1026 C1039 1.235 . S
O1027 Eu983 2.419 . S
O1027 C1047 1.249 . S
C1028 O1017 1.276 . S
C1028 O1020 1.235 . S
C1029 C1031 1.393 . S
C1029 C1033 1.395 . S
C1029 C1036 1.492 . S
C1030 C1031 1.392 . S
C1030 C1032 1.386 . S
C1031 C1029 1.393 . S
C1031 C1030 1.392 . S
C1031 H1048 0.930 . S
C1032 C1030 1.386 . S
C1032 C1034 1.395 . S
C1032 H1049 0.930 . S
C1033 C1029 1.395 . S
C1033 C1034 1.379 . S
C1033 H1050 0.930 . S
C1034 C1032 1.395 . S
C1034 C1033 1.379 . S
C1034 H1051 0.930 . S
C1035 O1018 1.264 . S
C1035 O1019 1.254 . S
C1036 Eu972 2.848 . S
C1036 O1016 1.257 . S
C1036 O1021 1.249 . S
C1036 C1029 1.492 . S
C1037 H1002 0.931 . S
C1037 C1015 1.420 . S
C1037 C1038 1.351 . S
C1038 H1000 0.930 . S
C1038 C1006 1.423 . S
C1038 C1037 1.351 . S
C1039 O1023 1.276 . S
C1039 O1026 1.235 . S
C1040 C1041 1.393 . S
C1040 C1044 1.395 . S
C1040 C1047 1.492 . S
C1041 C1040 1.393 . S
C1041 C1042 1.392 . S
C1041 H1052 0.930 . S
C1042 C1041 1.392 . S
C1042 C1043 1.386 . S
C1043 C1042 1.386 . S
C1043 C1045 1.395 . S
C1043 H1053 0.930 . S
C1044 C1040 1.395 . S
C1044 C1045 1.379 . S
C1044 H1054 0.930 . S
C1045 C1043 1.395 . S
C1045 C1044 1.379 . S
C1045 H1055 0.930 . S
C1046 O1024 1.264 . S
C1046 O1025 1.254 . S
C1047 Eu983 2.848 . S
C1047 O1022 1.257 . S
C1047 O1027 1.249 . S
C1047 C1040 1.492 . S
H1048 C1031 0.930 . S
H1049 C1032 0.930 . S
H1050 C1033 0.930 . S
H1051 C1034 0.930 . S
H1052 C1041 0.930 . S
H1053 C1043 0.930 . S
H1054 C1044 0.930 . S
H1055 C1045 0.930 . S
Eu1056 N1087 2.657 . S
Eu1056 N1094 2.609 . S
Eu1056 O1100 2.558 . S
Eu1056 O1101 2.612 . S
Eu1056 O1103 2.339 . S
Eu1056 O1104 2.563 . S
Eu1056 O1105 2.419 . S
Eu1056 O1107 2.380 . S
Eu1056 O1108 2.432 . S
Eu1056 C1120 2.848 . S
C1057 C1060 1.429 . S
C1057 C1061 1.411 . S
C1057 N1064 1.377 . S
C1058 C1060 1.420 . S
C1058 C1062 1.423 . S
C1058 C1070 1.392 . S
C1059 C1061 1.420 . S
C1059 C1062 1.351 . S
C1059 H1082 0.931 . S
C1060 C1057 1.429 . S
C1060 C1058 1.420 . S
C1060 N1068 1.362 . S
C1061 C1057 1.411 . S
C1061 C1059 1.420 . S
C1061 C1066 1.395 . S
C1062 C1058 1.423 . S
C1062 C1059 1.351 . S
C1062 H1074 0.930 . S
C1063 C1065 1.400 . S
C1063 C1066 1.386 . S
C1063 H1075 0.930 . S
N1064 C1057 1.377 . S
N1064 C1065 1.321 . S
N1064 Eu1067 2.609 . S
C1065 C1063 1.400 . S
C1065 N1064 1.321 . S
C1065 H1072 0.930 . S
C1066 C1061 1.395 . S
C1066 C1063 1.386 . S
C1066 H1085 0.930 . S
Eu1067 N1064 2.609 . S
Eu1067 N1068 2.657 . S
Eu1067 O1101 2.380 . S
Eu1067 O1102 2.432 . S
Eu1067 O1106 2.558 . S
Eu1067 O1107 2.612 . S
Eu1067 O1109 2.339 . S
Eu1067 O1110 2.563 . S
Eu1067 O1111 2.419 . S
Eu1067 C1131 2.848 . S
N1068 C1060 1.362 . S
N1068 Eu1067 2.657 . S
N1068 C1069 1.334 . S
C1069 N1068 1.334 . S
C1069 C1071 1.413 . S
C1069 H1076 0.929 . S
C1070 C1058 1.392 . S
C1070 C1071 1.367 . S
C1070 H1078 0.930 . S
C1071 C1069 1.413 . S
C1071 C1070 1.367 . S
C1071 H1073 0.930 . S
H1072 C1065 0.930 . S
H1073 C1071 0.930 . S
H1074 C1062 0.930 . S
H1075 C1063 0.930 . S
H1076 C1069 0.929 . S
H1077 C1091 0.930 . S
H1078 C1070 0.930 . S
H1079 C1097 0.930 . S
H1080 C1088 0.929 . S
H1081 C1095 0.930 . S
H1082 C1059 0.931 . S
H1083 C1089 0.930 . S
H1084 C1122 0.930 . S
H1085 C1066 0.930 . S
H1086 C1121 0.931 . S
N1087 Eu1056 2.657 . S
N1087 C1088 1.334 . S
N1087 C1092 1.362 . S
C1088 H1080 0.929 . S
C1088 N1087 1.334 . S
C1088 C1091 1.413 . S
C1089 H1083 0.930 . S
C1089 C1090 1.392 . S
C1089 C1091 1.367 . S
C1090 C1089 1.392 . S
C1090 C1092 1.420 . S
C1090 C1122 1.423 . S
C1091 H1077 0.930 . S
C1091 C1088 1.413 . S
C1091 C1089 1.367 . S
C1092 N1087 1.362 . S
C1092 C1090 1.420 . S
C1092 C1096 1.429 . S
H1093 C1098 0.930 . S
N1094 Eu1056 2.609 . S
N1094 C1096 1.377 . S
N1094 C1097 1.321 . S
C1095 H1081 0.930 . S
C1095 C1097 1.400 . S
C1095 C1098 1.386 . S
C1096 C1092 1.429 . S
C1096 N1094 1.377 . S
C1096 C1099 1.411 . S
C1097 H1079 0.930 . S
C1097 N1094 1.321 . S
C1097 C1095 1.400 . S
C1098 H1093 0.930 . S
C1098 C1095 1.386 . S
C1098 C1099 1.395 . S
C1099 C1096 1.411 . S
C1099 C1098 1.395 . S
C1099 C1121 1.420 . S
O1100 Eu1056 2.558 . S
O1100 C1120 1.257 . S
O1101 Eu1056 2.612 . S
O1101 Eu1067 2.380 . S
O1101 C1112 1.276 . S
O1102 Eu1067 2.432 . S
O1102 C1119 1.264 . S
O1103 Eu1056 2.339 . S
O1103 C1119 1.254 . S
O1104 Eu1056 2.563 . S
O1104 C1112 1.235 . S
O1105 Eu1056 2.419 . S
O1105 C1120 1.249 . S
O1106 Eu1067 2.558 . S
O1106 C1131 1.257 . S
O1107 Eu1056 2.380 . S
O1107 Eu1067 2.612 . S
O1107 C1123 1.276 . S
O1108 Eu1056 2.432 . S
O1108 C1130 1.264 . S
O1109 Eu1067 2.339 . S
O1109 C1130 1.254 . S
O1110 Eu1067 2.563 . S
O1110 C1123 1.235 . S
O1111 Eu1067 2.419 . S
O1111 C1131 1.249 . S
C1112 O1101 1.276 . S
C1112 O1104 1.235 . S
C1113 C1115 1.393 . S
C1113 C1117 1.395 . S
C1113 C1120 1.492 . S
C1114 C1115 1.392 . S
C1114 C1116 1.386 . S
C1115 C1113 1.393 . S
C1115 C1114 1.392 . S
C1115 H1132 0.930 . S
C1116 C1114 1.386 . S
C1116 C1118 1.395 . S
C1116 H1133 0.930 . S
C1117 C1113 1.395 . S
C1117 C1118 1.379 . S
C1117 H1134 0.930 . S
C1118 C1116 1.395 . S
C1118 C1117 1.379 . S
C1118 H1135 0.930 . S
C1119 O1102 1.264 . S
C1119 O1103 1.254 . S
C1120 Eu1056 2.848 . S
C1120 O1100 1.257 . S
C1120 O1105 1.249 . S
C1120 C1113 1.492 . S
C1121 H1086 0.931 . S
C1121 C1099 1.420 . S
C1121 C1122 1.351 . S
C1122 H1084 0.930 . S
C1122 C1090 1.423 . S
C1122 C1121 1.351 . S
C1123 O1107 1.276 . S
C1123 O1110 1.235 . S
C1124 C1125 1.393 . S
C1124 C1128 1.395 . S
C1124 C1131 1.492 . S
C1125 C1124 1.393 . S
C1125 C1126 1.392 . S
C1125 H1136 0.930 . S
C1126 C1125 1.392 . S
C1126 C1127 1.386 . S
C1127 C1126 1.386 . S
C1127 C1129 1.395 . S
C1127 H1137 0.930 . S
C1128 C1124 1.395 . S
C1128 C1129 1.379 . S
C1128 H1138 0.930 . S
C1129 C1127 1.395 . S
C1129 C1128 1.379 . S
C1129 H1139 0.930 . S
C1130 O1108 1.264 . S
C1130 O1109 1.254 . S
C1131 Eu1067 2.848 . S
C1131 O1106 1.257 . S
C1131 O1111 1.249 . S
C1131 C1124 1.492 . S
H1132 C1115 0.930 . S
H1133 C1116 0.930 . S
H1134 C1117 0.930 . S
H1135 C1118 0.930 . S
H1136 C1125 0.930 . S
H1137 C1127 0.930 . S
H1138 C1128 0.930 . S
H1139 C1129 0.930 . S
Eu1140 N1171 2.657 . S
Eu1140 N1178 2.609 . S
Eu1140 O1184 2.558 . S
Eu1140 O1185 2.612 . S
Eu1140 O1187 2.339 . S
Eu1140 O1188 2.563 . S
Eu1140 O1189 2.419 . S
Eu1140 O1191 2.380 . S
Eu1140 O1192 2.432 . S
Eu1140 C1204 2.848 . S
C1141 C1144 1.429 . S
C1141 C1145 1.411 . S
C1141 N1148 1.377 . S
C1142 C1144 1.420 . S
C1142 C1146 1.423 . S
C1142 C1154 1.392 . S
C1143 C1145 1.420 . S
C1143 C1146 1.351 . S
C1143 H1166 0.931 . S
C1144 C1141 1.429 . S
C1144 C1142 1.420 . S
C1144 N1152 1.362 . S
C1145 C1141 1.411 . S
C1145 C1143 1.420 . S
C1145 C1150 1.395 . S
C1146 C1142 1.423 . S
C1146 C1143 1.351 . S
C1146 H1158 0.930 . S
C1147 C1149 1.400 . S
C1147 C1150 1.386 . S
C1147 H1159 0.930 . S
N1148 C1141 1.377 . S
N1148 C1149 1.321 . S
N1148 Eu1151 2.609 . S
C1149 C1147 1.400 . S
C1149 N1148 1.321 . S
C1149 H1156 0.930 . S
C1150 C1145 1.395 . S
C1150 C1147 1.386 . S
C1150 H1169 0.930 . S
Eu1151 N1148 2.609 . S
Eu1151 N1152 2.657 . S
Eu1151 O1185 2.380 . S
Eu1151 O1186 2.432 . S
Eu1151 O1190 2.558 . S
Eu1151 O1191 2.612 . S
Eu1151 O1193 2.339 . S
Eu1151 O1194 2.563 . S
Eu1151 O1195 2.419 . S
Eu1151 C1215 2.848 . S
N1152 C1144 1.362 . S
N1152 Eu1151 2.657 . S
N1152 C1153 1.334 . S
C1153 N1152 1.334 . S
C1153 C1155 1.413 . S
C1153 H1160 0.929 . S
C1154 C1142 1.392 . S
C1154 C1155 1.367 . S
C1154 H1162 0.930 . S
C1155 C1153 1.413 . S
C1155 C1154 1.367 . S
C1155 H1157 0.930 . S
H1156 C1149 0.930 . S
H1157 C1155 0.930 . S
H1158 C1146 0.930 . S
H1159 C1147 0.930 . S
H1160 C1153 0.929 . S
H1161 C1175 0.930 . S
H1162 C1154 0.930 . S
H1163 C1181 0.930 . S
H1164 C1172 0.929 . S
H1165 C1179 0.930 . S
H1166 C1143 0.931 . S
H1167 C1173 0.930 . S
H1168 C1206 0.930 . S
H1169 C1150 0.930 . S
H1170 C1205 0.931 . S
N1171 Eu1140 2.657 . S
N1171 C1172 1.334 . S
N1171 C1176 1.362 . S
C1172 H1164 0.929 . S
C1172 N1171 1.334 . S
C1172 C1175 1.413 . S
C1173 H1167 0.930 . S
C1173 C1174 1.392 . S
C1173 C1175 1.367 . S
C1174 C1173 1.392 . S
C1174 C1176 1.420 . S
C1174 C1206 1.423 . S
C1175 H1161 0.930 . S
C1175 C1172 1.413 . S
C1175 C1173 1.367 . S
C1176 N1171 1.362 . S
C1176 C1174 1.420 . S
C1176 C1180 1.429 . S
H1177 C1182 0.930 . S
N1178 Eu1140 2.609 . S
N1178 C1180 1.377 . S
N1178 C1181 1.321 . S
C1179 H1165 0.930 . S
C1179 C1181 1.400 . S
C1179 C1182 1.386 . S
C1180 C1176 1.429 . S
C1180 N1178 1.377 . S
C1180 C1183 1.411 . S
C1181 H1163 0.930 . S
C1181 N1178 1.321 . S
C1181 C1179 1.400 . S
C1182 H1177 0.930 . S
C1182 C1179 1.386 . S
C1182 C1183 1.395 . S
C1183 C1180 1.411 . S
C1183 C1182 1.395 . S
C1183 C1205 1.420 . S
O1184 Eu1140 2.558 . S
O1184 C1204 1.257 . S
O1185 Eu1140 2.612 . S
O1185 Eu1151 2.380 . S
O1185 C1196 1.276 . S
O1186 Eu1151 2.432 . S
O1186 C1203 1.264 . S
O1187 Eu1140 2.339 . S
O1187 C1203 1.254 . S
O1188 Eu1140 2.563 . S
O1188 C1196 1.235 . S
O1189 Eu1140 2.419 . S
O1189 C1204 1.249 . S
O1190 Eu1151 2.558 . S
O1190 C1215 1.257 . S
O1191 Eu1140 2.380 . S
O1191 Eu1151 2.612 . S
O1191 C1207 1.276 . S
O1192 Eu1140 2.432 . S
O1192 C1214 1.264 . S
O1193 Eu1151 2.339 . S
O1193 C1214 1.254 . S
O1194 Eu1151 2.563 . S
O1194 C1207 1.235 . S
O1195 Eu1151 2.419 . S
O1195 C1215 1.249 . S
C1196 O1185 1.276 . S
C1196 O1188 1.235 . S
C1197 C1199 1.393 . S
C1197 C1201 1.395 . S
C1197 C1204 1.492 . S
C1198 C1199 1.392 . S
C1198 C1200 1.386 . S
C1199 C1197 1.393 . S
C1199 C1198 1.392 . S
C1199 H1216 0.930 . S
C1200 C1198 1.386 . S
C1200 C1202 1.395 . S
C1200 H1217 0.930 . S
C1201 C1197 1.395 . S
C1201 C1202 1.379 . S
C1201 H1218 0.930 . S
C1202 C1200 1.395 . S
C1202 C1201 1.379 . S
C1202 H1219 0.930 . S
C1203 O1186 1.264 . S
C1203 O1187 1.254 . S
C1204 Eu1140 2.848 . S
C1204 O1184 1.257 . S
C1204 O1189 1.249 . S
C1204 C1197 1.492 . S
C1205 H1170 0.931 . S
C1205 C1183 1.420 . S
C1205 C1206 1.351 . S
C1206 H1168 0.930 . S
C1206 C1174 1.423 . S
C1206 C1205 1.351 . S
C1207 O1191 1.276 . S
C1207 O1194 1.235 . S
C1208 C1209 1.393 . S
C1208 C1212 1.395 . S
C1208 C1215 1.492 . S
C1209 C1208 1.393 . S
C1209 C1210 1.392 . S
C1209 H1220 0.930 . S
C1210 C1209 1.392 . S
C1210 C1211 1.386 . S
C1211 C1210 1.386 . S
C1211 C1213 1.395 . S
C1211 H1221 0.930 . S
C1212 C1208 1.395 . S
C1212 C1213 1.379 . S
C1212 H1222 0.930 . S
C1213 C1211 1.395 . S
C1213 C1212 1.379 . S
C1213 H1223 0.930 . S
C1214 O1192 1.264 . S
C1214 O1193 1.254 . S
C1215 Eu1151 2.848 . S
C1215 O1190 1.257 . S
C1215 O1195 1.249 . S
C1215 C1208 1.492 . S
H1216 C1199 0.930 . S
H1217 C1200 0.930 . S
H1218 C1201 0.930 . S
H1219 C1202 0.930 . S
H1220 C1209 0.930 . S
H1221 C1211 0.930 . S
H1222 C1212 0.930 . S
H1223 C1213 0.930 . S
Eu1224 N1255 2.657 . S
Eu1224 N1262 2.609 . S
Eu1224 O1268 2.558 . S
Eu1224 O1269 2.612 . S
Eu1224 O1271 2.339 . S
Eu1224 O1272 2.563 . S
Eu1224 O1273 2.419 . S
Eu1224 O1275 2.380 . S
Eu1224 O1276 2.432 . S
Eu1224 C1288 2.848 . S
C1225 C1228 1.429 . S
C1225 C1229 1.411 . S
C1225 N1232 1.377 . S
C1226 C1228 1.420 . S
C1226 C1230 1.423 . S
C1226 C1238 1.392 . S
C1227 C1229 1.420 . S
C1227 C1230 1.351 . S
C1227 H1250 0.931 . S
C1228 C1225 1.429 . S
C1228 C1226 1.420 . S
C1228 N1236 1.362 . S
C1229 C1225 1.411 . S
C1229 C1227 1.420 . S
C1229 C1234 1.395 . S
C1230 C1226 1.423 . S
C1230 C1227 1.351 . S
C1230 H1242 0.930 . S
C1231 C1233 1.400 . S
C1231 C1234 1.386 . S
C1231 H1243 0.930 . S
N1232 C1225 1.377 . S
N1232 C1233 1.321 . S
N1232 Eu1235 2.609 . S
C1233 C1231 1.400 . S
C1233 N1232 1.321 . S
C1233 H1240 0.930 . S
C1234 C1229 1.395 . S
C1234 C1231 1.386 . S
C1234 H1253 0.930 . S
Eu1235 N1232 2.609 . S
Eu1235 N1236 2.657 . S
Eu1235 O1269 2.380 . S
Eu1235 O1270 2.432 . S
Eu1235 O1274 2.558 . S
Eu1235 O1275 2.612 . S
Eu1235 O1277 2.339 . S
Eu1235 O1278 2.563 . S
Eu1235 O1279 2.419 . S
Eu1235 C1299 2.848 . S
N1236 C1228 1.362 . S
N1236 Eu1235 2.657 . S
N1236 C1237 1.334 . S
C1237 N1236 1.334 . S
C1237 C1239 1.413 . S
C1237 H1244 0.929 . S
C1238 C1226 1.392 . S
C1238 C1239 1.367 . S
C1238 H1246 0.930 . S
C1239 C1237 1.413 . S
C1239 C1238 1.367 . S
C1239 H1241 0.930 . S
H1240 C1233 0.930 . S
H1241 C1239 0.930 . S
H1242 C1230 0.930 . S
H1243 C1231 0.930 . S
H1244 C1237 0.929 . S
H1245 C1259 0.930 . S
H1246 C1238 0.930 . S
H1247 C1265 0.930 . S
H1248 C1256 0.929 . S
H1249 C1263 0.930 . S
H1250 C1227 0.931 . S
H1251 C1257 0.930 . S
H1252 C1290 0.930 . S
H1253 C1234 0.930 . S
H1254 C1289 0.931 . S
N1255 Eu1224 2.657 . S
N1255 C1256 1.334 . S
N1255 C1260 1.362 . S
C1256 H1248 0.929 . S
C1256 N1255 1.334 . S
C1256 C1259 1.413 . S
C1257 H1251 0.930 . S
C1257 C1258 1.392 . S
C1257 C1259 1.367 . S
C1258 C1257 1.392 . S
C1258 C1260 1.420 . S
C1258 C1290 1.423 . S
C1259 H1245 0.930 . S
C1259 C1256 1.413 . S
C1259 C1257 1.367 . S
C1260 N1255 1.362 . S
C1260 C1258 1.420 . S
C1260 C1264 1.429 . S
H1261 C1266 0.930 . S
N1262 Eu1224 2.609 . S
N1262 C1264 1.377 . S
N1262 C1265 1.321 . S
C1263 H1249 0.930 . S
C1263 C1265 1.400 . S
C1263 C1266 1.386 . S
C1264 C1260 1.429 . S
C1264 N1262 1.377 . S
C1264 C1267 1.411 . S
C1265 H1247 0.930 . S
C1265 N1262 1.321 . S
C1265 C1263 1.400 . S
C1266 H1261 0.930 . S
C1266 C1263 1.386 . S
C1266 C1267 1.395 . S
C1267 C1264 1.411 . S
C1267 C1266 1.395 . S
C1267 C1289 1.420 . S
O1268 Eu1224 2.558 . S
O1268 C1288 1.257 . S
O1269 Eu1224 2.612 . S
O1269 Eu1235 2.380 . S
O1269 C1280 1.276 . S
O1270 Eu1235 2.432 . S
O1270 C1287 1.264 . S
O1271 Eu1224 2.339 . S
O1271 C1287 1.254 . S
O1272 Eu1224 2.563 . S
O1272 C1280 1.235 . S
O1273 Eu1224 2.419 . S
O1273 C1288 1.249 . S
O1274 Eu1235 2.558 . S
O1274 C1299 1.257 . S
O1275 Eu1224 2.380 . S
O1275 Eu1235 2.612 . S
O1275 C1291 1.276 . S
O1276 Eu1224 2.432 . S
O1276 C1298 1.264 . S
O1277 Eu1235 2.339 . S
O1277 C1298 1.254 . S
O1278 Eu1235 2.563 . S
O1278 C1291 1.235 . S
O1279 Eu1235 2.419 . S
O1279 C1299 1.249 . S
C1280 O1269 1.276 . S
C1280 O1272 1.235 . S
C1281 C1283 1.393 . S
C1281 C1285 1.395 . S
C1281 C1288 1.492 . S
C1282 C1283 1.392 . S
C1282 C1284 1.386 . S
C1283 C1281 1.393 . S
C1283 C1282 1.392 . S
C1283 H1300 0.930 . S
C1284 C1282 1.386 . S
C1284 C1286 1.395 . S
C1284 H1301 0.930 . S
C1285 C1281 1.395 . S
C1285 C1286 1.379 . S
C1285 H1302 0.930 . S
C1286 C1284 1.395 . S
C1286 C1285 1.379 . S
C1286 H1303 0.930 . S
C1287 O1270 1.264 . S
C1287 O1271 1.254 . S
C1288 Eu1224 2.848 . S
C1288 O1268 1.257 . S
C1288 O1273 1.249 . S
C1288 C1281 1.492 . S
C1289 H1254 0.931 . S
C1289 C1267 1.420 . S
C1289 C1290 1.351 . S
C1290 H1252 0.930 . S
C1290 C1258 1.423 . S
C1290 C1289 1.351 . S
C1291 O1275 1.276 . S
C1291 O1278 1.235 . S
C1292 C1293 1.393 . S
C1292 C1296 1.395 . S
C1292 C1299 1.492 . S
C1293 C1292 1.393 . S
C1293 C1294 1.392 . S
C1293 H1304 0.930 . S
C1294 C1293 1.392 . S
C1294 C1295 1.386 . S
C1295 C1294 1.386 . S
C1295 C1297 1.395 . S
C1295 H1305 0.930 . S
C1296 C1292 1.395 . S
C1296 C1297 1.379 . S
C1296 H1306 0.930 . S
C1297 C1295 1.395 . S
C1297 C1296 1.379 . S
C1297 H1307 0.930 . S
C1298 O1276 1.264 . S
C1298 O1277 1.254 . S
C1299 Eu1235 2.848 . S
C1299 O1274 1.257 . S
C1299 O1279 1.249 . S
C1299 C1292 1.492 . S
H1300 C1283 0.930 . S
H1301 C1284 0.930 . S
H1302 C1285 0.930 . S
H1303 C1286 0.930 . S
H1304 C1293 0.930 . S
H1305 C1295 0.930 . S
H1306 C1296 0.930 . S
H1307 C1297 0.930 . S
Eu1308 N1339 2.657 . S
Eu1308 N1346 2.609 . S
Eu1308 O1352 2.558 . S
Eu1308 O1353 2.612 . S
Eu1308 O1355 2.339 . S
Eu1308 O1356 2.563 . S
Eu1308 O1357 2.419 . S
Eu1308 O1359 2.380 . S
Eu1308 O1360 2.432 . S
Eu1308 C1372 2.848 . S
C1309 C1312 1.429 . S
C1309 C1313 1.411 . S
C1309 N1316 1.377 . S
C1310 C1312 1.420 . S
C1310 C1314 1.423 . S
C1310 C1322 1.392 . S
C1311 C1313 1.420 . S
C1311 C1314 1.351 . S
C1311 H1334 0.931 . S
C1312 C1309 1.429 . S
C1312 C1310 1.420 . S
C1312 N1320 1.362 . S
C1313 C1309 1.411 . S
C1313 C1311 1.420 . S
C1313 C1318 1.395 . S
C1314 C1310 1.423 . S
C1314 C1311 1.351 . S
C1314 H1326 0.930 . S
C1315 C1317 1.400 . S
C1315 C1318 1.386 . S
C1315 H1327 0.930 . S
N1316 C1309 1.377 . S
N1316 C1317 1.321 . S
N1316 Eu1319 2.609 . S
C1317 C1315 1.400 . S
C1317 N1316 1.321 . S
C1317 H1324 0.930 . S
C1318 C1313 1.395 . S
C1318 C1315 1.386 . S
C1318 H1337 0.930 . S
Eu1319 N1316 2.609 . S
Eu1319 N1320 2.657 . S
Eu1319 O1353 2.380 . S
Eu1319 O1354 2.432 . S
Eu1319 O1358 2.558 . S
Eu1319 O1359 2.612 . S
Eu1319 O1361 2.339 . S
Eu1319 O1362 2.563 . S
Eu1319 O1363 2.419 . S
Eu1319 C1383 2.848 . S
N1320 C1312 1.362 . S
N1320 Eu1319 2.657 . S
N1320 C1321 1.334 . S
C1321 N1320 1.334 . S
C1321 C1323 1.413 . S
C1321 H1328 0.929 . S
C1322 C1310 1.392 . S
C1322 C1323 1.367 . S
C1322 H1330 0.930 . S
C1323 C1321 1.413 . S
C1323 C1322 1.367 . S
C1323 H1325 0.930 . S
H1324 C1317 0.930 . S
H1325 C1323 0.930 . S
H1326 C1314 0.930 . S
H1327 C1315 0.930 . S
H1328 C1321 0.929 . S
H1329 C1343 0.930 . S
H1330 C1322 0.930 . S
H1331 C1349 0.930 . S
H1332 C1340 0.929 . S
H1333 C1347 0.930 . S
H1334 C1311 0.931 . S
H1335 C1341 0.930 . S
H1336 C1374 0.930 . S
H1337 C1318 0.930 . S
H1338 C1373 0.931 . S
N1339 Eu1308 2.657 . S
N1339 C1340 1.334 . S
N1339 C1344 1.362 . S
C1340 H1332 0.929 . S
C1340 N1339 1.334 . S
C1340 C1343 1.413 . S
C1341 H1335 0.930 . S
C1341 C1342 1.392 . S
C1341 C1343 1.367 . S
C1342 C1341 1.392 . S
C1342 C1344 1.420 . S
C1342 C1374 1.423 . S
C1343 H1329 0.930 . S
C1343 C1340 1.413 . S
C1343 C1341 1.367 . S
C1344 N1339 1.362 . S
C1344 C1342 1.420 . S
C1344 C1348 1.429 . S
H1345 C1350 0.930 . S
N1346 Eu1308 2.609 . S
N1346 C1348 1.377 . S
N1346 C1349 1.321 . S
C1347 H1333 0.930 . S
C1347 C1349 1.400 . S
C1347 C1350 1.386 . S
C1348 C1344 1.429 . S
C1348 N1346 1.377 . S
C1348 C1351 1.411 . S
C1349 H1331 0.930 . S
C1349 N1346 1.321 . S
C1349 C1347 1.400 . S
C1350 H1345 0.930 . S
C1350 C1347 1.386 . S
C1350 C1351 1.395 . S
C1351 C1348 1.411 . S
C1351 C1350 1.395 . S
C1351 C1373 1.420 . S
O1352 Eu1308 2.558 . S
O1352 C1372 1.257 . S
O1353 Eu1308 2.612 . S
O1353 Eu1319 2.380 . S
O1353 C1364 1.276 . S
O1354 Eu1319 2.432 . S
O1354 C1371 1.264 . S
O1355 Eu1308 2.339 . S
O1355 C1371 1.254 . S
O1356 Eu1308 2.563 . S
O1356 C1364 1.235 . S
O1357 Eu1308 2.419 . S
O1357 C1372 1.249 . S
O1358 Eu1319 2.558 . S
O1358 C1383 1.257 . S
O1359 Eu1308 2.380 . S
O1359 Eu1319 2.612 . S
O1359 C1375 1.276 . S
O1360 Eu1308 2.432 . S
O1360 C1382 1.264 . S
O1361 Eu1319 2.339 . S
O1361 C1382 1.254 . S
O1362 Eu1319 2.563 . S
O1362 C1375 1.235 . S
O1363 Eu1319 2.419 . S
O1363 C1383 1.249 . S
C1364 O1353 1.276 . S
C1364 O1356 1.235 . S
C1365 C1367 1.393 . S
C1365 C1369 1.395 . S
C1365 C1372 1.492 . S
C1366 C1367 1.392 . S
C1366 C1368 1.386 . S
C1367 C1365 1.393 . S
C1367 C1366 1.392 . S
C1367 H1384 0.930 . S
C1368 C1366 1.386 . S
C1368 C1370 1.395 . S
C1368 H1385 0.930 . S
C1369 C1365 1.395 . S
C1369 C1370 1.379 . S
C1369 H1386 0.930 . S
C1370 C1368 1.395 . S
C1370 C1369 1.379 . S
C1370 H1387 0.930 . S
C1371 O1354 1.264 . S
C1371 O1355 1.254 . S
C1372 Eu1308 2.848 . S
C1372 O1352 1.257 . S
C1372 O1357 1.249 . S
C1372 C1365 1.492 . S
C1373 H1338 0.931 . S
C1373 C1351 1.420 . S
C1373 C1374 1.351 . S
C1374 H1336 0.930 . S
C1374 C1342 1.423 . S
C1374 C1373 1.351 . S
C1375 O1359 1.276 . S
C1375 O1362 1.235 . S
C1376 C1377 1.393 . S
C1376 C1380 1.395 . S
C1376 C1383 1.492 . S
C1377 C1376 1.393 . S
C1377 C1378 1.392 . S
C1377 H1388 0.930 . S
C1378 C1377 1.392 . S
C1378 C1379 1.386 . S
C1379 C1378 1.386 . S
C1379 C1381 1.395 . S
C1379 H1389 0.930 . S
C1380 C1376 1.395 . S
C1380 C1381 1.379 . S
C1380 H1390 0.930 . S
C1381 C1379 1.395 . S
C1381 C1380 1.379 . S
C1381 H1391 0.930 . S
C1382 O1360 1.264 . S
C1382 O1361 1.254 . S
C1383 Eu1319 2.848 . S
C1383 O1358 1.257 . S
C1383 O1363 1.249 . S
C1383 C1376 1.492 . S
H1384 C1367 0.930 . S
H1385 C1368 0.930 . S
H1386 C1369 0.930 . S
H1387 C1370 0.930 . S
H1388 C1377 0.930 . S
H1389 C1379 0.930 . S
H1390 C1380 0.930 . S
H1391 C1381 0.930 . S
Eu1392 N1423 2.657 . S
Eu1392 N1430 2.609 . S
Eu1392 O1436 2.558 . S
Eu1392 O1437 2.612 . S
Eu1392 O1439 2.339 . S
Eu1392 O1440 2.563 . S
Eu1392 O1441 2.419 . S
Eu1392 O1443 2.380 . S
Eu1392 O1444 2.432 . S
Eu1392 C1456 2.848 . S
C1393 C1396 1.429 . S
C1393 C1397 1.411 . S
C1393 N1400 1.377 . S
C1394 C1396 1.420 . S
C1394 C1398 1.423 . S
C1394 C1406 1.392 . S
C1395 C1397 1.420 . S
C1395 C1398 1.351 . S
C1395 H1418 0.931 . S
C1396 C1393 1.429 . S
C1396 C1394 1.420 . S
C1396 N1404 1.362 . S
C1397 C1393 1.411 . S
C1397 C1395 1.420 . S
C1397 C1402 1.395 . S
C1398 C1394 1.423 . S
C1398 C1395 1.351 . S
C1398 H1410 0.930 . S
C1399 C1401 1.400 . S
C1399 C1402 1.386 . S
C1399 H1411 0.930 . S
N1400 C1393 1.377 . S
N1400 C1401 1.321 . S
N1400 Eu1403 2.609 . S
C1401 C1399 1.400 . S
C1401 N1400 1.321 . S
C1401 H1408 0.930 . S
C1402 C1397 1.395 . S
C1402 C1399 1.386 . S
C1402 H1421 0.930 . S
Eu1403 N1400 2.609 . S
Eu1403 N1404 2.657 . S
Eu1403 O1437 2.380 . S
Eu1403 O1438 2.432 . S
Eu1403 O1442 2.558 . S
Eu1403 O1443 2.612 . S
Eu1403 O1445 2.339 . S
Eu1403 O1446 2.563 . S
Eu1403 O1447 2.419 . S
Eu1403 C1467 2.848 . S
N1404 C1396 1.362 . S
N1404 Eu1403 2.657 . S
N1404 C1405 1.334 . S
C1405 N1404 1.334 . S
C1405 C1407 1.413 . S
C1405 H1412 0.929 . S
C1406 C1394 1.392 . S
C1406 C1407 1.367 . S
C1406 H1414 0.930 . S
C1407 C1405 1.413 . S
C1407 C1406 1.367 . S
C1407 H1409 0.930 . S
H1408 C1401 0.930 . S
H1409 C1407 0.930 . S
H1410 C1398 0.930 . S
H1411 C1399 0.930 . S
H1412 C1405 0.929 . S
H1413 C1427 0.930 . S
H1414 C1406 0.930 . S
H1415 C1433 0.930 . S
H1416 C1424 0.929 . S
H1417 C1431 0.930 . S
H1418 C1395 0.931 . S
H1419 C1425 0.930 . S
H1420 C1458 0.930 . S
H1421 C1402 0.930 . S
H1422 C1457 0.931 . S
N1423 Eu1392 2.657 . S
N1423 C1424 1.334 . S
N1423 C1428 1.362 . S
C1424 H1416 0.929 . S
C1424 N1423 1.334 . S
C1424 C1427 1.413 . S
C1425 H1419 0.930 . S
C1425 C1426 1.392 . S
C1425 C1427 1.367 . S
C1426 C1425 1.392 . S
C1426 C1428 1.420 . S
C1426 C1458 1.423 . S
C1427 H1413 0.930 . S
C1427 C1424 1.413 . S
C1427 C1425 1.367 . S
C1428 N1423 1.362 . S
C1428 C1426 1.420 . S
C1428 C1432 1.429 . S
H1429 C1434 0.930 . S
N1430 Eu1392 2.609 . S
N1430 C1432 1.377 . S
N1430 C1433 1.321 . S
C1431 H1417 0.930 . S
C1431 C1433 1.400 . S
C1431 C1434 1.386 . S
C1432 C1428 1.429 . S
C1432 N1430 1.377 . S
C1432 C1435 1.411 . S
C1433 H1415 0.930 . S
C1433 N1430 1.321 . S
C1433 C1431 1.400 . S
C1434 H1429 0.930 . S
C1434 C1431 1.386 . S
C1434 C1435 1.395 . S
C1435 C1432 1.411 . S
C1435 C1434 1.395 . S
C1435 C1457 1.420 . S
O1436 Eu1392 2.558 . S
O1436 C1456 1.257 . S
O1437 Eu1392 2.612 . S
O1437 Eu1403 2.380 . S
O1437 C1448 1.276 . S
O1438 Eu1403 2.432 . S
O1438 C1455 1.264 . S
O1439 Eu1392 2.339 . S
O1439 C1455 1.254 . S
O1440 Eu1392 2.563 . S
O1440 C1448 1.235 . S
O1441 Eu1392 2.419 . S
O1441 C1456 1.249 . S
O1442 Eu1403 2.558 . S
O1442 C1467 1.257 . S
O1443 Eu1392 2.380 . S
O1443 Eu1403 2.612 . S
O1443 C1459 1.276 . S
O1444 Eu1392 2.432 . S
O1444 C1466 1.264 . S
O1445 Eu1403 2.339 . S
O1445 C1466 1.254 . S
O1446 Eu1403 2.563 . S
O1446 C1459 1.235 . S
O1447 Eu1403 2.419 . S
O1447 C1467 1.249 . S
C1448 O1437 1.276 . S
C1448 O1440 1.235 . S
C1449 C1451 1.393 . S
C1449 C1453 1.395 . S
C1449 C1456 1.492 . S
C1450 C1451 1.392 . S
C1450 C1452 1.386 . S
C1451 C1449 1.393 . S
C1451 C1450 1.392 . S
C1451 H1468 0.930 . S
C1452 C1450 1.386 . S
C1452 C1454 1.395 . S
C1452 H1469 0.930 . S
C1453 C1449 1.395 . S
C1453 C1454 1.379 . S
C1453 H1470 0.930 . S
C1454 C1452 1.395 . S
C1454 C1453 1.379 . S
C1454 H1471 0.930 . S
C1455 O1438 1.264 . S
C1455 O1439 1.254 . S
C1456 Eu1392 2.848 . S
C1456 O1436 1.257 . S
C1456 O1441 1.249 . S
C1456 C1449 1.492 . S
C1457 H1422 0.931 . S
C1457 C1435 1.420 . S
C1457 C1458 1.351 . S
C1458 H1420 0.930 . S
C1458 C1426 1.423 . S
C1458 C1457 1.351 . S
C1459 O1443 1.276 . S
C1459 O1446 1.235 . S
C1460 C1461 1.393 . S
C1460 C1464 1.395 . S
C1460 C1467 1.492 . S
C1461 C1460 1.393 . S
C1461 C1462 1.392 . S
C1461 H1472 0.930 . S
C1462 C1461 1.392 . S
C1462 C1463 1.386 . S
C1463 C1462 1.386 . S
C1463 C1465 1.395 . S
C1463 H1473 0.930 . S
C1464 C1460 1.395 . S
C1464 C1465 1.379 . S
C1464 H1474 0.930 . S
C1465 C1463 1.395 . S
C1465 C1464 1.379 . S
C1465 H1475 0.930 . S
C1466 O1444 1.264 . S
C1466 O1445 1.254 . S
C1467 Eu1403 2.848 . S
C1467 O1442 1.257 . S
C1467 O1447 1.249 . S
C1467 C1460 1.492 . S
H1468 C1451 0.930 . S
H1469 C1452 0.930 . S
H1470 C1453 0.930 . S
H1471 C1454 0.930 . S
H1472 C1461 0.930 . S
H1473 C1463 0.930 . S
H1474 C1464 0.930 . S
H1475 C1465 0.930 . S
H1476 C1482 0.930 . S
H1477 C1486 0.930 . S
H1478 C1491 0.929 . S
H1479 C1489 0.929 1_556 S
H1480 C1484 0.929 . S
H1481 C1490 0.929 . S
C1482 H1476 0.930 . S
C1482 C1483 1.367 . S
C1482 C1490 1.378 . S
C1483 C1482 1.367 . S
C1483 C1491 1.433 . S
C1484 H1480 0.929 . S
C1484 C1486 1.378 . S
C1484 C1488 1.350 . S
C1485 C1488 1.463 . S
C1485 C1490 1.350 . S
C1485 N1493 1.427 . S
C1486 H1477 0.930 . S
C1486 C1484 1.378 . S
C1486 C1487 1.367 . S
C1487 C1486 1.367 . S
C1487 C1489 1.433 . S
C1488 C1484 1.350 . S
C1488 C1485 1.463 . S
C1488 N1492 1.427 . S
C1489 H1479 0.929 1_554 S
C1489 C1487 1.433 . S
C1489 N1492 1.384 . S
C1490 H1481 0.929 . S
C1490 C1482 1.378 . S
C1490 C1485 1.350 . S
C1491 H1478 0.929 . S
C1491 C1483 1.433 . S
C1491 N1493 1.384 . S
N1492 C1488 1.427 . S
N1492 C1489 1.384 . S
N1493 C1485 1.427 . S
N1493 C1491 1.384 . S
H1494 C1500 0.930 . S
H1495 C1504 0.930 . S
H1496 C1509 0.929 . S
H1497 C1507 0.929 . S
H1498 C1502 0.929 . S
H1499 C1508 0.929 . S
C1500 H1494 0.930 . S
C1500 C1501 1.367 . S
C1500 C1508 1.378 . S
C1501 C1500 1.367 . S
C1501 C1509 1.433 . S
C1502 H1498 0.929 . S
C1502 C1504 1.378 . S
C1502 C1506 1.350 . S
C1503 C1506 1.463 . S
C1503 C1508 1.350 . S
C1503 N1511 1.427 . S
C1504 H1495 0.930 . S
C1504 C1502 1.378 . S
C1504 C1505 1.367 . S
C1505 C1504 1.367 . S
C1505 C1507 1.433 . S
C1506 C1502 1.350 . S
C1506 C1503 1.463 . S
C1506 N1510 1.427 . S
C1507 H1497 0.929 . S
C1507 C1505 1.433 . S
C1507 N1510 1.384 . S
C1508 H1499 0.929 . S
C1508 C1500 1.378 . S
C1508 C1503 1.350 . S
C1509 H1496 0.929 . S
C1509 C1501 1.433 . S
C1509 N1511 1.384 . S
N1510 C1506 1.427 . S
N1510 C1507 1.384 . S
N1511 C1503 1.427 . S
N1511 C1509 1.384 . S
H1512 C1518 0.930 . S
H1513 C1522 0.930 . S
H1514 C1527 0.929 . S
H1515 C1525 0.929 . S
H1516 C1520 0.929 . S
H1517 C1526 0.929 . S
C1518 H1512 0.930 . S
C1518 C1519 1.367 . S
C1518 C1526 1.378 . S
C1519 C1518 1.367 . S
C1519 C1527 1.433 . S
C1520 H1516 0.929 . S
C1520 C1522 1.378 . S
C1520 C1524 1.350 . S
C1521 C1524 1.463 . S
C1521 C1526 1.350 . S
C1521 N1529 1.427 . S
C1522 H1513 0.930 . S
C1522 C1520 1.378 . S
C1522 C1523 1.367 . S
C1523 C1522 1.367 . S
C1523 C1525 1.433 . S
C1524 C1520 1.350 . S
C1524 C1521 1.463 . S
C1524 N1528 1.427 . S
C1525 H1515 0.929 . S
C1525 C1523 1.433 . S
C1525 N1528 1.384 . S
C1526 H1517 0.929 . S
C1526 C1518 1.378 . S
C1526 C1521 1.350 . S
C1527 H1514 0.929 . S
C1527 C1519 1.433 . S
C1527 N1529 1.384 . S
N1528 C1524 1.427 . S
N1528 C1525 1.384 . S
N1529 C1521 1.427 . S
N1529 C1527 1.384 . S
H1530 C1536 0.930 . S
H1531 C1540 0.930 . S
H1532 C1545 0.929 . S
H1533 C1543 0.929 1_554 S
H1534 C1538 0.929 . S
H1535 C1544 0.929 . S
C1536 H1530 0.930 . S
C1536 C1537 1.367 . S
C1536 C1544 1.378 . S
C1537 C1536 1.367 . S
C1537 C1545 1.433 . S
C1538 H1534 0.929 . S
C1538 C1540 1.378 . S
C1538 C1542 1.350 . S
C1539 C1542 1.463 . S
C1539 C1544 1.350 . S
C1539 N1547 1.427 . S
C1540 H1531 0.930 . S
C1540 C1538 1.378 . S
C1540 C1541 1.367 . S
C1541 C1540 1.367 . S
C1541 C1543 1.433 . S
C1542 C1538 1.350 . S
C1542 C1539 1.463 . S
C1542 N1546 1.427 . S
C1543 H1533 0.929 1_556 S
C1543 C1541 1.433 . S
C1543 N1546 1.384 . S
C1544 H1535 0.929 . S
C1544 C1536 1.378 . S
C1544 C1539 1.350 . S
C1545 H1532 0.929 . S
C1545 C1537 1.433 . S
C1545 N1547 1.384 . S
N1546 C1542 1.427 . S
N1546 C1543 1.384 . S
N1547 C1539 1.427 . S
N1547 C1545 1.384 . S
H1548 C1554 0.930 . S
H1549 C1558 0.930 . S
H1550 C1563 0.929 . S
H1551 C1561 0.929 . S
H1552 C1556 0.929 . S
H1553 C1562 0.929 . S
C1554 H1548 0.930 . S
C1554 C1555 1.367 . S
C1554 C1562 1.378 . S
C1555 C1554 1.367 . S
C1555 C1563 1.433 . S
C1556 H1552 0.929 . S
C1556 C1558 1.378 . S
C1556 C1560 1.350 . S
C1557 C1560 1.463 . S
C1557 C1562 1.350 . S
C1557 N1565 1.427 . S
C1558 H1549 0.930 . S
C1558 C1556 1.378 . S
C1558 C1559 1.367 . S
C1559 C1558 1.367 . S
C1559 C1561 1.433 . S
C1560 C1556 1.350 . S
C1560 C1557 1.463 . S
C1560 N1564 1.427 . S
C1561 H1551 0.929 . S
C1561 C1559 1.433 . S
C1561 N1564 1.384 . S
C1562 H1553 0.929 . S
C1562 C1554 1.378 . S
C1562 C1557 1.350 . S
C1563 H1550 0.929 . S
C1563 C1555 1.433 . S
C1563 N1565 1.384 . S
N1564 C1560 1.427 . S
N1564 C1561 1.384 . S
N1565 C1557 1.427 . S
N1565 C1563 1.384 . S
H1566 C1572 0.930 . S
H1567 C1576 0.930 . S
H1568 C1581 0.929 . S
H1569 C1579 0.929 1_554 S
H1570 C1574 0.929 . S
H1571 C1580 0.929 . S
C1572 H1566 0.930 . S
C1572 C1573 1.367 . S
C1572 C1580 1.378 . S
C1573 C1572 1.367 . S
C1573 C1581 1.433 . S
C1574 H1570 0.929 . S
C1574 C1576 1.378 . S
C1574 C1578 1.350 . S
C1575 C1578 1.463 . S
C1575 C1580 1.350 . S
C1575 N1583 1.427 . S
C1576 H1567 0.930 . S
C1576 C1574 1.378 . S
C1576 C1577 1.367 . S
C1577 C1576 1.367 . S
C1577 C1579 1.433 . S
C1578 C1574 1.350 . S
C1578 C1575 1.463 . S
C1578 N1582 1.427 . S
C1579 H1569 0.929 1_556 S
C1579 C1577 1.433 . S
C1579 N1582 1.384 . S
C1580 H1571 0.929 . S
C1580 C1572 1.378 . S
C1580 C1575 1.350 . S
C1581 H1568 0.929 . S
C1581 C1573 1.433 . S
C1581 N1583 1.384 . S
N1582 C1578 1.427 . S
N1582 C1579 1.384 . S
N1583 C1575 1.427 . S
N1583 C1581 1.384 . S
H1584 C1590 0.930 . S
H1585 C1594 0.930 . S
H1586 C1599 0.929 . S
H1587 C1597 0.929 1_554 S
H1588 C1592 0.929 . S
H1589 C1598 0.929 . S
C1590 H1584 0.930 . S
C1590 C1591 1.367 . S
C1590 C1598 1.378 . S
C1591 C1590 1.367 . S
C1591 C1599 1.433 . S
C1592 H1588 0.929 . S
C1592 C1594 1.378 . S
C1592 C1596 1.350 . S
C1593 C1596 1.463 . S
C1593 C1598 1.350 . S
C1593 N1601 1.427 . S
C1594 H1585 0.930 . S
C1594 C1592 1.378 . S
C1594 C1595 1.367 . S
C1595 C1594 1.367 . S
C1595 C1597 1.433 . S
C1596 C1592 1.350 . S
C1596 C1593 1.463 . S
C1596 N1600 1.427 . S
C1597 H1587 0.929 1_556 S
C1597 C1595 1.433 . S
C1597 N1600 1.384 . S
C1598 H1589 0.929 . S
C1598 C1590 1.378 . S
C1598 C1593 1.350 . S
C1599 H1586 0.929 . S
C1599 C1591 1.433 . S
C1599 N1601 1.384 . S
N1600 C1596 1.427 . S
N1600 C1597 1.384 . S
N1601 C1593 1.427 . S
N1601 C1599 1.384 . S
H1602 C1608 0.930 . S
H1603 C1612 0.930 1_554 S
H1604 C1617 0.929 . S
H1605 C1615 0.929 . S
H1606 C1610 0.929 . S
H1607 C1616 0.929 . S
C1608 H1602 0.930 . S
C1608 C1609 1.367 . S
C1608 C1616 1.378 . S
C1609 C1608 1.367 . S
C1609 C1617 1.433 . S
C1610 H1606 0.929 . S
C1610 C1612 1.378 . S
C1610 C1614 1.350 . S
C1611 C1614 1.463 . S
C1611 C1616 1.350 . S
C1611 N1619 1.427 . S
C1612 H1603 0.930 1_556 S
C1612 C1610 1.378 . S
C1612 C1613 1.367 . S
C1613 C1612 1.367 . S
C1613 C1615 1.433 . S
C1614 C1610 1.350 . S
C1614 C1611 1.463 . S
C1614 N1618 1.427 . S
C1615 H1605 0.929 . S
C1615 C1613 1.433 . S
C1615 N1618 1.384 . S
C1616 H1607 0.929 . S
C1616 C1608 1.378 . S
C1616 C1611 1.350 . S
C1617 H1604 0.929 . S
C1617 C1609 1.433 . S
C1617 N1619 1.384 . S
N1618 C1614 1.427 . S
N1618 C1615 1.384 . S
N1619 C1611 1.427 . S
N1619 C1617 1.384 . S
H1620 C1626 0.930 . S
H1621 C1630 0.930 1_554 S
H1622 C1635 0.929 . S
H1623 C1633 0.929 . S
H1624 C1628 0.929 . S
H1625 C1634 0.929 . S
C1626 H1620 0.930 . S
C1626 C1627 1.367 . S
C1626 C1634 1.378 . S
C1627 C1626 1.367 . S
C1627 C1635 1.433 . S
C1628 H1624 0.929 . S
C1628 C1630 1.378 . S
C1628 C1632 1.350 . S
C1629 C1632 1.463 . S
C1629 C1634 1.350 . S
C1629 N1637 1.427 . S
C1630 H1621 0.930 1_556 S
C1630 C1628 1.378 . S
C1630 C1631 1.367 . S
C1631 C1630 1.367 . S
C1631 C1633 1.433 . S
C1632 C1628 1.350 . S
C1632 C1629 1.463 . S
C1632 N1636 1.427 . S
C1633 H1623 0.929 . S
C1633 C1631 1.433 . S
C1633 N1636 1.384 . S
C1634 H1625 0.929 . S
C1634 C1626 1.378 . S
C1634 C1629 1.350 . S
C1635 H1622 0.929 . S
C1635 C1627 1.433 . S
C1635 N1637 1.384 . S
N1636 C1632 1.427 . S
N1636 C1633 1.384 . S
N1637 C1629 1.427 . S
N1637 C1635 1.384 . S
H1638 C1644 0.930 . S
H1639 C1648 0.930 . S
H1640 C1653 0.929 . S
H1641 C1651 0.929 1_556 S
H1642 C1646 0.929 . S
H1643 C1652 0.929 . S
C1644 H1638 0.930 . S
C1644 C1645 1.367 . S
C1644 C1652 1.378 . S
C1645 C1644 1.367 . S
C1645 C1653 1.433 . S
C1646 H1642 0.929 . S
C1646 C1648 1.378 . S
C1646 C1650 1.350 . S
C1647 C1650 1.463 . S
C1647 C1652 1.350 . S
C1647 N1655 1.427 . S
C1648 H1639 0.930 . S
C1648 C1646 1.378 . S
C1648 C1649 1.367 . S
C1649 C1648 1.367 . S
C1649 C1651 1.433 . S
C1650 C1646 1.350 . S
C1650 C1647 1.463 . S
C1650 N1654 1.427 . S
C1651 H1641 0.929 1_554 S
C1651 C1649 1.433 . S
C1651 N1654 1.384 . S
C1652 H1643 0.929 . S
C1652 C1644 1.378 . S
C1652 C1647 1.350 . S
C1653 H1640 0.929 . S
C1653 C1645 1.433 . S
C1653 N1655 1.384 . S
N1654 C1650 1.427 . S
N1654 C1651 1.384 . S
N1655 C1647 1.427 . S
N1655 C1653 1.384 . S
H1656 C1662 0.930 . S
H1657 C1666 0.930 . S
H1658 C1671 0.929 . S
H1659 C1669 0.929 . S
H1660 C1664 0.929 . S
H1661 C1670 0.929 . S
C1662 H1656 0.930 . S
C1662 C1663 1.367 . S
C1662 C1670 1.378 . S
C1663 C1662 1.367 . S
C1663 C1671 1.433 . S
C1664 H1660 0.929 . S
C1664 C1666 1.378 . S
C1664 C1668 1.350 . S
C1665 C1668 1.463 . S
C1665 C1670 1.350 . S
C1665 N1673 1.427 . S
C1666 H1657 0.930 . S
C1666 C1664 1.378 . S
C1666 C1667 1.367 . S
C1667 C1666 1.367 . S
C1667 C1669 1.433 . S
C1668 C1664 1.350 . S
C1668 C1665 1.463 . S
C1668 N1672 1.427 . S
C1669 H1659 0.929 . S
C1669 C1667 1.433 . S
C1669 N1672 1.384 . S
C1670 H1661 0.929 . S
C1670 C1662 1.378 . S
C1670 C1665 1.350 . S
C1671 H1658 0.929 . S
C1671 C1663 1.433 . S
C1671 N1673 1.384 . S
N1672 C1668 1.427 . S
N1672 C1669 1.384 . S
N1673 C1665 1.427 . S
N1673 C1671 1.384 . S
H1674 C1680 0.930 . S
H1675 C1684 0.930 . S
H1676 C1689 0.929 . S
H1677 C1687 0.929 . S
H1678 C1682 0.929 . S
H1679 C1688 0.929 . S
C1680 H1674 0.930 . S
C1680 C1681 1.367 . S
C1680 C1688 1.378 . S
C1681 C1680 1.367 . S
C1681 C1689 1.433 . S
C1682 H1678 0.929 . S
C1682 C1684 1.378 . S
C1682 C1686 1.350 . S
C1683 C1686 1.463 . S
C1683 C1688 1.350 . S
C1683 N1691 1.427 . S
C1684 H1675 0.930 . S
C1684 C1682 1.378 . S
C1684 C1685 1.367 . S
C1685 C1684 1.367 . S
C1685 C1687 1.433 . S
C1686 C1682 1.350 . S
C1686 C1683 1.463 . S
C1686 N1690 1.427 . S
C1687 H1677 0.929 . S
C1687 C1685 1.433 . S
C1687 N1690 1.384 . S
C1688 H1679 0.929 . S
C1688 C1680 1.378 . S
C1688 C1683 1.350 . S
C1689 H1676 0.929 . S
C1689 C1681 1.433 . S
C1689 N1691 1.384 . S
N1690 C1686 1.427 . S
N1690 C1687 1.384 . S
N1691 C1683 1.427 . S
N1691 C1689 1.384 . S
H1692 C1698 0.930 1_655 S
H1693 C1702 0.930 . S
H1694 C1707 0.929 . S
H1695 C1705 0.929 . S
H1696 C1700 0.929 . S
H1697 C1706 0.929 . S
C1698 H1692 0.930 1_455 S
C1698 C1699 1.367 . S
C1698 C1706 1.378 . S
C1699 C1698 1.367 . S
C1699 C1707 1.433 . S
C1700 H1696 0.929 . S
C1700 C1702 1.378 . S
C1700 C1704 1.350 . S
C1701 C1704 1.463 . S
C1701 C1706 1.350 . S
C1701 N1709 1.427 . S
C1702 H1693 0.930 . S
C1702 C1700 1.378 . S
C1702 C1703 1.367 . S
C1703 C1702 1.367 . S
C1703 C1705 1.433 . S
C1704 C1700 1.350 . S
C1704 C1701 1.463 . S
C1704 N1708 1.427 . S
C1705 H1695 0.929 . S
C1705 C1703 1.433 . S
C1705 N1708 1.384 . S
C1706 H1697 0.929 . S
C1706 C1698 1.378 . S
C1706 C1701 1.350 . S
C1707 H1694 0.929 . S
C1707 C1699 1.433 . S
C1707 N1709 1.384 . S
N1708 C1704 1.427 . S
N1708 C1705 1.384 . S
N1709 C1701 1.427 . S
N1709 C1707 1.384 . S
H1710 C1716 0.930 . S
H1711 C1720 0.930 . S
H1712 C1725 0.929 . S
H1713 C1723 0.929 . S
H1714 C1718 0.929 . S
H1715 C1724 0.929 . S
C1716 H1710 0.930 . S
C1716 C1717 1.367 . S
C1716 C1724 1.378 . S
C1717 C1716 1.367 . S
C1717 C1725 1.433 . S
C1718 H1714 0.929 . S
C1718 C1720 1.378 . S
C1718 C1722 1.350 . S
C1719 C1722 1.463 . S
C1719 C1724 1.350 . S
C1719 N1727 1.427 . S
C1720 H1711 0.930 . S
C1720 C1718 1.378 . S
C1720 C1721 1.367 . S
C1721 C1720 1.367 . S
C1721 C1723 1.433 . S
C1722 C1718 1.350 . S
C1722 C1719 1.463 . S
C1722 N1726 1.427 . S
C1723 H1713 0.929 . S
C1723 C1721 1.433 . S
C1723 N1726 1.384 . S
C1724 H1715 0.929 . S
C1724 C1716 1.378 . S
C1724 C1719 1.350 . S
C1725 H1712 0.929 . S
C1725 C1717 1.433 . S
C1725 N1727 1.384 . S
N1726 C1722 1.427 . S
N1726 C1723 1.384 . S
N1727 C1719 1.427 . S
N1727 C1725 1.384 . S
H1728 C1734 0.930 . S
H1729 C1738 0.930 . S
H1730 C1743 0.882 1_545 S
H1731 C1741 0.929 . S
H1732 C1736 0.929 . S
H1733 C1742 0.929 . S
C1734 H1728 0.930 . S
C1734 C1735 1.367 1_565 S
C1734 C1742 1.378 . S
C1735 C1734 1.367 1_545 S
C1735 C1743 1.432 1_545 S
C1736 H1732 0.929 . S
C1736 C1738 1.378 . S
C1736 C1740 1.350 . S
C1737 C1740 1.463 . S
C1737 C1742 1.350 . S
C1737 N1745 1.427 . S
C1738 H1729 0.930 . S
C1738 C1736 1.378 . S
C1738 C1739 1.367 . S
C1739 C1738 1.367 . S
C1739 C1741 1.433 . S
C1740 C1736 1.350 . S
C1740 C1737 1.463 . S
C1740 N1744 1.427 . S
C1741 H1731 0.929 . S
C1741 C1739 1.433 . S
C1741 N1744 1.384 . S
C1742 H1733 0.929 . S
C1742 C1734 1.378 . S
C1742 C1737 1.350 . S
C1743 H1730 0.882 1_565 S
C1743 C1735 1.432 1_565 S
C1743 N1745 1.436 . S
N1744 C1740 1.427 . S
N1744 C1741 1.384 . S
N1745 C1737 1.427 . S
N1745 C1743 1.436 . S
H1746 C1752 0.930 . S
H1747 C1756 0.930 . S
H1748 C1761 0.929 . S
H1749 C1759 0.929 . S
H1750 C1754 0.929 . S
H1751 C1760 0.929 . S
C1752 H1746 0.930 . S
C1752 C1753 1.367 . S
C1752 C1760 1.378 . S
C1753 C1752 1.367 . S
C1753 C1761 1.433 . S
C1754 H1750 0.929 . S
C1754 C1756 1.378 . S
C1754 C1758 1.350 . S
C1755 C1758 1.463 . S
C1755 C1760 1.350 . S
C1755 N1763 1.427 . S
C1756 H1747 0.930 . S
C1756 C1754 1.378 . S
C1756 C1757 1.367 . S
C1757 C1756 1.367 . S
C1757 C1759 1.433 . S
C1758 C1754 1.350 . S
C1758 C1755 1.463 . S
C1758 N1762 1.427 . S
C1759 H1749 0.929 . S
C1759 C1757 1.433 . S
C1759 N1762 1.384 . S
C1760 H1751 0.929 . S
C1760 C1752 1.378 . S
C1760 C1755 1.350 . S
C1761 H1748 0.929 . S
C1761 C1753 1.433 . S
C1761 N1763 1.384 . S
N1762 C1758 1.427 . S
N1762 C1759 1.384 . S
N1763 C1755 1.427 . S
N1763 C1761 1.384 . S
H1764 C1770 0.930 . S
H1765 C1774 0.930 . S
H1766 C1779 0.929 . S
H1767 C1777 0.929 . S
H1768 C1772 0.929 . S
H1769 C1778 0.929 . S
C1770 H1764 0.930 . S
C1770 C1771 1.367 . S
C1770 C1778 1.378 . S
C1771 C1770 1.367 . S
C1771 C1779 1.433 . S
C1772 H1768 0.929 . S
C1772 C1774 1.378 . S
C1772 C1776 1.350 . S
C1773 C1776 1.463 . S
C1773 C1778 1.350 . S
C1773 N1781 1.427 . S
C1774 H1765 0.930 . S
C1774 C1772 1.378 . S
C1774 C1775 1.367 . S
C1775 C1774 1.367 . S
C1775 C1777 1.433 . S
C1776 C1772 1.350 . S
C1776 C1773 1.463 . S
C1776 N1780 1.427 . S
C1777 H1767 0.929 . S
C1777 C1775 1.433 . S
C1777 N1780 1.384 . S
C1778 H1769 0.929 . S
C1778 C1770 1.378 . S
C1778 C1773 1.350 . S
C1779 H1766 0.929 . S
C1779 C1771 1.433 . S
C1779 N1781 1.384 . S
N1780 C1776 1.427 . S
N1780 C1777 1.384 . S
N1781 C1773 1.427 . S
N1781 C1779 1.384 . S
H1782 C1788 0.930 . S
H1783 C1792 0.930 . S
H1784 C1797 0.929 . S
H1785 C1795 0.929 . S
H1786 C1790 0.929 . S
H1787 C1796 0.929 . S
C1788 H1782 0.930 . S
C1788 C1789 1.367 . S
C1788 C1796 1.378 . S
C1789 C1788 1.367 . S
C1789 C1797 1.433 . S
C1790 H1786 0.929 . S
C1790 C1792 1.378 . S
C1790 C1794 1.350 . S
C1791 C1794 1.463 . S
C1791 C1796 1.350 . S
C1791 N1799 1.427 . S
C1792 H1783 0.930 . S
C1792 C1790 1.378 . S
C1792 C1793 1.367 . S
C1793 C1792 1.367 . S
C1793 C1795 1.433 . S
C1794 C1790 1.350 . S
C1794 C1791 1.463 . S
C1794 N1798 1.427 . S
C1795 H1785 0.929 . S
C1795 C1793 1.433 . S
C1795 N1798 1.384 . S
C1796 H1787 0.929 . S
C1796 C1788 1.378 . S
C1796 C1791 1.350 . S
C1797 H1784 0.929 . S
C1797 C1789 1.433 . S
C1797 N1799 1.384 . S
N1798 C1794 1.427 . S
N1798 C1795 1.384 . S
N1799 C1791 1.427 . S
N1799 C1797 1.384 . S
H1800 C1806 0.930 . S
H1801 C1810 0.930 . S
H1802 C1815 0.929 . S
H1803 C1813 0.929 . S
H1804 C1808 0.929 . S
H1805 C1814 0.929 . S
C1806 H1800 0.930 . S
C1806 C1807 1.367 . S
C1806 C1814 1.378 . S
C1807 C1806 1.367 . S
C1807 C1815 1.433 . S
C1808 H1804 0.929 . S
C1808 C1810 1.378 . S
C1808 C1812 1.350 . S
C1809 C1812 1.463 . S
C1809 C1814 1.350 . S
C1809 N1817 1.427 . S
C1810 H1801 0.930 . S
C1810 C1808 1.378 . S
C1810 C1811 1.367 . S
C1811 C1810 1.367 . S
C1811 C1813 1.433 . S
C1812 C1808 1.350 . S
C1812 C1809 1.463 . S
C1812 N1816 1.427 . S
C1813 H1803 0.929 . S
C1813 C1811 1.433 . S
C1813 N1816 1.384 . S
C1814 H1805 0.929 . S
C1814 C1806 1.378 . S
C1814 C1809 1.350 . S
C1815 H1802 0.929 . S
C1815 C1807 1.433 . S
C1815 N1817 1.384 . S
N1816 C1812 1.427 . S
N1816 C1813 1.384 . S
N1817 C1809 1.427 . S
N1817 C1815 1.384 . S
H1818 C1824 0.930 . S
H1819 C1828 0.930 . S
H1820 C1833 0.929 . S
H1821 C1831 0.929 . S
H1822 C1826 0.929 . S
H1823 C1832 0.929 . S
C1824 H1818 0.930 . S
C1824 C1825 1.367 . S
C1824 C1832 1.378 . S
C1825 C1824 1.367 . S
C1825 C1833 1.433 . S
C1826 H1822 0.929 . S
C1826 C1828 1.378 . S
C1826 C1830 1.350 . S
C1827 C1830 1.463 . S
C1827 C1832 1.350 . S
C1827 N1835 1.427 . S
C1828 H1819 0.930 . S
C1828 C1826 1.378 . S
C1828 C1829 1.367 . S
C1829 C1828 1.367 . S
C1829 C1831 1.433 . S
C1830 C1826 1.350 . S
C1830 C1827 1.463 . S
C1830 N1834 1.427 . S
C1831 H1821 0.929 . S
C1831 C1829 1.433 . S
C1831 N1834 1.384 . S
C1832 H1823 0.929 . S
C1832 C1824 1.378 . S
C1832 C1827 1.350 . S
C1833 H1820 0.929 . S
C1833 C1825 1.433 . S
C1833 N1835 1.384 . S
N1834 C1830 1.427 . S
N1834 C1831 1.384 . S
N1835 C1827 1.427 . S
N1835 C1833 1.384 . S
H1836 C1842 0.930 . S
H1837 C1846 0.930 . S
H1838 C1851 0.929 . S
H1839 C1849 0.929 . S
H1840 C1844 0.929 . S
H1841 C1850 0.929 . S
C1842 H1836 0.930 . S
C1842 C1843 1.367 . S
C1842 C1850 1.378 . S
C1843 C1842 1.367 . S
C1843 C1851 1.433 . S
C1844 H1840 0.929 . S
C1844 C1846 1.378 . S
C1844 C1848 1.350 . S
C1845 C1848 1.463 . S
C1845 C1850 1.350 . S
C1845 N1853 1.427 . S
C1846 H1837 0.930 . S
C1846 C1844 1.378 . S
C1846 C1847 1.367 . S
C1847 C1846 1.367 . S
C1847 C1849 1.433 . S
C1848 C1844 1.350 . S
C1848 C1845 1.463 . S
C1848 N1852 1.427 . S
C1849 H1839 0.929 . S
C1849 C1847 1.433 . S
C1849 N1852 1.384 . S
C1850 H1841 0.929 . S
C1850 C1842 1.378 . S
C1850 C1845 1.350 . S
C1851 H1838 0.929 . S
C1851 C1843 1.433 . S
C1851 N1853 1.384 . S
N1852 C1848 1.427 . S
N1852 C1849 1.384 . S
N1853 C1845 1.427 . S
N1853 C1851 1.384 . S
H1854 C1860 0.930 1_545 S
H1855 C1864 0.930 . S
H1856 C1869 0.929 . S
H1857 C1867 0.929 . S
H1858 C1862 0.929 . S
H1859 C1868 0.929 . S
C1860 H1854 0.930 1_565 S
C1860 C1861 1.367 1_565 S
C1860 C1868 1.378 . S
C1861 C1860 1.367 1_545 S
C1861 C1869 1.433 1_545 S
C1862 H1858 0.929 . S
C1862 C1864 1.378 . S
C1862 C1866 1.350 . S
C1863 C1866 1.463 . S
C1863 C1868 1.350 . S
C1863 N1871 1.427 . S
C1864 H1855 0.930 . S
C1864 C1862 1.378 . S
C1864 C1865 1.367 . S
C1865 C1864 1.367 . S
C1865 C1867 1.433 . S
C1866 C1862 1.350 . S
C1866 C1863 1.463 . S
C1866 N1870 1.427 . S
C1867 H1857 0.929 . S
C1867 C1865 1.433 . S
C1867 N1870 1.384 . S
C1868 H1859 0.929 . S
C1868 C1860 1.378 . S
C1868 C1863 1.350 . S
C1869 H1856 0.929 . S
C1869 C1861 1.433 1_565 S
C1869 N1871 1.384 . S
N1870 C1866 1.427 . S
N1870 C1867 1.384 . S
N1871 C1863 1.427 . S
N1871 C1869 1.384 . S
H1872 C1878 0.930 . S
H1873 C1882 0.930 . S
H1874 C1887 0.929 . S
H1875 C1885 0.929 . S
H1876 C1880 0.929 . S
H1877 C1886 0.929 . S
C1878 H1872 0.930 . S
C1878 C1879 1.367 . S
C1878 C1886 1.378 . S
C1879 C1878 1.367 . S
C1879 C1887 1.433 . S
C1880 H1876 0.929 . S
C1880 C1882 1.378 . S
C1880 C1884 1.350 . S
C1881 C1884 1.463 . S
C1881 C1886 1.350 . S
C1881 N1889 1.427 . S
C1882 H1873 0.930 . S
C1882 C1880 1.378 . S
C1882 C1883 1.367 . S
C1883 C1882 1.367 . S
C1883 C1885 1.433 . S
C1884 C1880 1.350 . S
C1884 C1881 1.463 . S
C1884 N1888 1.427 . S
C1885 H1875 0.929 . S
C1885 C1883 1.433 . S
C1885 N1888 1.384 . S
C1886 H1877 0.929 . S
C1886 C1878 1.378 . S
C1886 C1881 1.350 . S
C1887 H1874 0.929 . S
C1887 C1879 1.433 . S
C1887 N1889 1.384 . S
N1888 C1884 1.427 . S
N1888 C1885 1.384 . S
N1889 C1881 1.427 . S
N1889 C1887 1.384 . S
H1890 C1896 0.930 . S
H1891 C1900 0.930 . S
H1892 C1905 0.929 . S
H1893 C1903 0.929 . S
H1894 C1898 0.929 . S
H1895 C1904 0.929 . S
C1896 H1890 0.930 . S
C1896 C1897 1.367 . S
C1896 C1904 1.378 . S
C1897 C1896 1.367 . S
C1897 C1905 1.433 . S
C1898 H1894 0.929 . S
C1898 C1900 1.378 . S
C1898 C1902 1.350 . S
C1899 C1902 1.463 . S
C1899 C1904 1.350 . S
C1899 N1907 1.427 . S
C1900 H1891 0.930 . S
C1900 C1898 1.378 . S
C1900 C1901 1.367 . S
C1901 C1900 1.367 . S
C1901 C1903 1.433 . S
C1902 C1898 1.350 . S
C1902 C1899 1.463 . S
C1902 N1906 1.427 . S
C1903 H1893 0.929 . S
C1903 C1901 1.433 . S
C1903 N1906 1.384 . S
C1904 H1895 0.929 . S
C1904 C1896 1.378 . S
C1904 C1899 1.350 . S
C1905 H1892 0.929 . S
C1905 C1897 1.433 . S
C1905 N1907 1.384 . S
N1906 C1902 1.427 . S
N1906 C1903 1.384 . S
N1907 C1899 1.427 . S
N1907 C1905 1.384 . S
H1908 C1914 0.930 . S
H1909 C1918 0.930 . S
H1910 C1923 0.929 . S
H1911 C1921 0.929 . S
H1912 C1916 0.929 . S
H1913 C1922 0.929 . S
C1914 H1908 0.930 . S
C1914 C1915 1.367 . S
C1914 C1922 1.378 . S
C1915 C1914 1.367 . S
C1915 C1923 1.433 . S
C1916 H1912 0.929 . S
C1916 C1918 1.378 . S
C1916 C1920 1.350 . S
C1917 C1920 1.463 . S
C1917 C1922 1.350 . S
C1917 N1925 1.427 . S
C1918 H1909 0.930 . S
C1918 C1916 1.378 . S
C1918 C1919 1.367 . S
C1919 C1918 1.367 . S
C1919 C1921 1.433 . S
C1920 C1916 1.350 . S
C1920 C1917 1.463 . S
C1920 N1924 1.427 . S
C1921 H1911 0.929 . S
C1921 C1919 1.433 . S
C1921 N1924 1.384 . S
C1922 H1913 0.929 . S
C1922 C1914 1.378 . S
C1922 C1917 1.350 . S
C1923 H1910 0.929 . S
C1923 C1915 1.433 . S
C1923 N1925 1.384 . S
N1924 C1920 1.427 . S
N1924 C1921 1.384 . S
N1925 C1917 1.427 . S
N1925 C1923 1.384 . S
H1926 C1932 0.930 . S
H1927 C1936 0.930 . S
H1928 C1941 0.929 . S
H1929 C1939 0.929 . S
H1930 C1934 0.929 . S
H1931 C1940 0.929 . S
C1932 H1926 0.930 . S
C1932 C1933 1.367 . S
C1932 C1940 1.378 . S
C1933 C1932 1.367 . S
C1933 C1941 1.433 . S
C1934 H1930 0.929 . S
C1934 C1936 1.378 . S
C1934 C1938 1.350 . S
C1935 C1938 1.463 . S
C1935 C1940 1.350 . S
C1935 N1943 1.427 . S
C1936 H1927 0.930 . S
C1936 C1934 1.378 . S
C1936 C1937 1.367 . S
C1937 C1936 1.367 . S
C1937 C1939 1.433 . S
C1938 C1934 1.350 . S
C1938 C1935 1.463 . S
C1938 N1942 1.427 . S
C1939 H1929 0.929 . S
C1939 C1937 1.433 . S
C1939 N1942 1.384 . S
C1940 H1931 0.929 . S
C1940 C1932 1.378 . S
C1940 C1935 1.350 . S
C1941 H1928 0.929 . S
C1941 C1933 1.433 . S
C1941 N1943 1.384 . S
N1942 C1938 1.427 . S
N1942 C1939 1.384 . S
N1943 C1935 1.427 . S
N1943 C1941 1.384 . S
H1944 C1950 0.930 . S
H1945 C1954 0.930 . S
H1946 C1959 0.929 . S
H1947 C1957 0.929 . S
H1948 C1952 0.929 . S
H1949 C1958 0.929 . S
C1950 H1944 0.930 . S
C1950 C1951 1.367 . S
C1950 C1958 1.378 . S
C1951 C1950 1.367 . S
C1951 C1959 1.433 . S
C1952 H1948 0.929 . S
C1952 C1954 1.378 . S
C1952 C1956 1.350 . S
C1953 C1956 1.463 . S
C1953 C1958 1.350 . S
C1953 N1961 1.427 . S
C1954 H1945 0.930 . S
C1954 C1952 1.378 . S
C1954 C1955 1.367 . S
C1955 C1954 1.367 . S
C1955 C1957 1.433 . S
C1956 C1952 1.350 . S
C1956 C1953 1.463 . S
C1956 N1960 1.427 . S
C1957 H1947 0.929 . S
C1957 C1955 1.433 . S
C1957 N1960 1.384 . S
C1958 H1949 0.929 . S
C1958 C1950 1.378 . S
C1958 C1953 1.350 . S
C1959 H1946 0.929 . S
C1959 C1951 1.433 . S
C1959 N1961 1.384 . S
N1960 C1956 1.427 . S
N1960 C1957 1.384 . S
N1961 C1953 1.427 . S
N1961 C1959 1.384 . S
H1962 C1968 0.930 1_565 S
H1963 C1972 0.930 . S
H1964 C1977 0.929 . S
H1965 C1975 0.929 . S
H1966 C1970 0.929 . S
H1967 C1976 0.929 . S
C1968 H1962 0.930 1_545 S
C1968 C1969 1.355 . S
C1968 C1976 1.378 . S
C1969 C1968 1.355 . S
C1969 C1977 1.482 . S
C1970 H1966 0.929 . S
C1970 C1972 1.378 . S
C1970 C1974 1.350 . S
C1971 C1974 1.463 . S
C1971 C1976 1.350 . S
C1971 N1979 1.427 . S
C1972 H1963 0.930 . S
C1972 C1970 1.378 . S
C1972 C1973 1.367 . S
C1973 C1972 1.367 . S
C1973 C1975 1.433 . S
C1974 C1970 1.350 . S
C1974 C1971 1.463 . S
C1974 N1978 1.427 . S
C1975 H1965 0.929 . S
C1975 C1973 1.433 . S
C1975 N1978 1.384 . S
C1976 H1967 0.929 . S
C1976 C1968 1.378 . S
C1976 C1971 1.350 . S
C1977 H1964 0.929 . S
C1977 C1969 1.482 . S
C1977 N1979 1.384 . S
N1978 C1974 1.427 . S
N1978 C1975 1.384 . S
N1979 C1971 1.427 . S
N1979 C1977 1.384 . S
H1980 C1986 0.930 . S
H1981 C1990 0.930 . S
H1982 C1995 0.929 . S
H1983 C1993 0.929 . S
H1984 C1988 0.929 . S
H1985 C1994 0.929 . S
C1986 H1980 0.930 . S
C1986 C1987 1.367 . S
C1986 C1994 1.378 . S
C1987 C1986 1.367 . S
C1987 C1995 1.433 . S
C1988 H1984 0.929 . S
C1988 C1990 1.378 . S
C1988 C1992 1.350 . S
C1989 C1992 1.463 . S
C1989 C1994 1.350 . S
C1989 N1997 1.427 . S
C1990 H1981 0.930 . S
C1990 C1988 1.378 . S
C1990 C1991 1.367 . S
C1991 C1990 1.367 . S
C1991 C1993 1.433 . S
C1992 C1988 1.350 . S
C1992 C1989 1.463 . S
C1992 N1996 1.427 . S
C1993 H1983 0.929 . S
C1993 C1991 1.433 . S
C1993 N1996 1.384 . S
C1994 H1985 0.929 . S
C1994 C1986 1.378 . S
C1994 C1989 1.350 . S
C1995 H1982 0.929 . S
C1995 C1987 1.433 . S
C1995 N1997 1.384 . S
N1996 C1992 1.427 . S
N1996 C1993 1.384 . S
N1997 C1989 1.427 . S
N1997 C1995 1.384 . S
H1998 C2004 0.930 . S
H1999 C2008 0.930 . S
H2000 C2013 0.929 . S
H2001 C2011 0.929 . S
H2002 C2006 0.929 . S
H2003 C2012 0.929 . S
C2004 H1998 0.930 . S
C2004 C2005 1.367 . S
C2004 C2012 1.378 . S
C2005 C2004 1.367 . S
C2005 C2013 1.433 . S
C2006 H2002 0.929 . S
C2006 C2008 1.378 . S
C2006 C2010 1.350 . S
C2007 C2010 1.463 . S
C2007 C2012 1.350 . S
C2007 N2015 1.427 . S
C2008 H1999 0.930 . S
C2008 C2006 1.378 . S
C2008 C2009 1.367 . S
C2009 C2008 1.367 . S
C2009 C2011 1.433 . S
C2010 C2006 1.350 . S
C2010 C2007 1.463 . S
C2010 N2014 1.427 . S
C2011 H2001 0.929 . S
C2011 C2009 1.433 . S
C2011 N2014 1.384 . S
C2012 H2003 0.929 . S
C2012 C2004 1.378 . S
C2012 C2007 1.350 . S
C2013 H2000 0.929 . S
C2013 C2005 1.433 . S
C2013 N2015 1.384 . S
N2014 C2010 1.427 . S
N2014 C2011 1.384 . S
N2015 C2007 1.427 . S
N2015 C2013 1.384 . S
H2016 C2022 0.930 1_455 S
H2017 C2026 0.930 . S
H2018 C2031 0.929 . S
H2019 C2029 0.929 . S
H2020 C2024 0.929 . S
H2021 C2030 0.929 . S
C2022 H2016 0.930 1_655 S
C2022 C2023 1.367 . S
C2022 C2030 1.378 . S
C2023 C2022 1.367 . S
C2023 C2031 1.433 . S
C2024 H2020 0.929 . S
C2024 C2026 1.378 . S
C2024 C2028 1.350 . S
C2025 C2028 1.463 . S
C2025 C2030 1.350 . S
C2025 N2033 1.427 . S
C2026 H2017 0.930 . S
C2026 C2024 1.378 . S
C2026 C2027 1.367 . S
C2027 C2026 1.367 . S
C2027 C2029 1.433 . S
C2028 C2024 1.350 . S
C2028 C2025 1.463 . S
C2028 N2032 1.427 . S
C2029 H2019 0.929 . S
C2029 C2027 1.433 . S
C2029 N2032 1.384 . S
C2030 H2021 0.929 . S
C2030 C2022 1.378 . S
C2030 C2025 1.350 . S
C2031 H2018 0.929 . S
C2031 C2023 1.433 . S
C2031 N2033 1.384 . S
N2032 C2028 1.427 . S
N2032 C2029 1.384 . S
N2033 C2025 1.427 . S
N2033 C2031 1.384 . S
H2034 C2040 0.930 . S
H2035 C2044 0.930 . S
H2036 C2049 0.929 . S
H2037 C2047 0.929 . S
H2038 C2042 0.929 . S
H2039 C2048 0.929 . S
C2040 H2034 0.930 . S
C2040 C2041 1.367 . S
C2040 C2048 1.378 . S
C2041 C2040 1.367 . S
C2041 C2049 1.433 . S
C2042 H2038 0.929 . S
C2042 C2044 1.378 . S
C2042 C2046 1.350 . S
C2043 C2046 1.463 . S
C2043 C2048 1.350 . S
C2043 N2051 1.427 . S
C2044 H2035 0.930 . S
C2044 C2042 1.378 . S
C2044 C2045 1.367 . S
C2045 C2044 1.367 . S
C2045 C2047 1.433 . S
C2046 C2042 1.350 . S
C2046 C2043 1.463 . S
C2046 N2050 1.427 . S
C2047 H2037 0.929 . S
C2047 C2045 1.433 . S
C2047 N2050 1.384 . S
C2048 H2039 0.929 . S
C2048 C2040 1.378 . S
C2048 C2043 1.350 . S
C2049 H2036 0.929 . S
C2049 C2041 1.433 . S
C2049 N2051 1.384 . S
N2050 C2046 1.427 . S
N2050 C2047 1.384 . S
N2051 C2043 1.427 . S
N2051 C2049 1.384 . S
H2052 C2058 0.930 . S
H2053 C2062 0.930 . S
H2054 C2067 0.889 1_565 S
H2055 C2065 0.929 . S
H2056 C2060 0.929 . S
H2057 C2066 0.929 . S
C2058 H2052 0.930 . S
C2058 C2059 1.315 1_545 S
C2058 C2066 1.378 . S
C2059 C2058 1.315 1_565 S
C2059 C2067 1.434 1_565 S
C2060 H2056 0.929 . S
C2060 C2062 1.378 . S
C2060 C2064 1.350 . S
C2061 C2064 1.463 . S
C2061 C2066 1.350 . S
C2061 N2069 1.427 . S
C2062 H2053 0.930 . S
C2062 C2060 1.378 . S
C2062 C2063 1.367 . S
C2063 C2062 1.367 . S
C2063 C2065 1.433 . S
C2064 C2060 1.350 . S
C2064 C2061 1.463 . S
C2064 N2068 1.427 . S
C2065 H2055 0.929 . S
C2065 C2063 1.433 . S
C2065 N2068 1.384 . S
C2066 H2057 0.929 . S
C2066 C2058 1.378 . S
C2066 C2061 1.350 . S
C2067 H2054 0.889 1_545 S
C2067 C2059 1.434 1_545 S
C2067 N2069 1.384 . S
N2068 C2064 1.427 . S
N2068 C2065 1.384 . S
N2069 C2061 1.427 . S
N2069 C2067 1.384 . S
H2070 C2076 0.930 . S
H2071 C2080 0.930 . S
H2072 C2085 0.929 . S
H2073 C2083 0.929 . S
H2074 C2078 0.929 . S
H2075 C2084 0.929 . S
C2076 H2070 0.930 . S
C2076 C2077 1.367 . S
C2076 C2084 1.378 . S
C2077 C2076 1.367 . S
C2077 C2085 1.433 . S
C2078 H2074 0.929 . S
C2078 C2080 1.378 . S
C2078 C2082 1.350 . S
C2079 C2082 1.463 . S
C2079 C2084 1.350 . S
C2079 N2087 1.427 . S
C2080 H2071 0.930 . S
C2080 C2078 1.378 . S
C2080 C2081 1.367 . S
C2081 C2080 1.367 . S
C2081 C2083 1.433 . S
C2082 C2078 1.350 . S
C2082 C2079 1.463 . S
C2082 N2086 1.427 . S
C2083 H2073 0.929 . S
C2083 C2081 1.433 . S
C2083 N2086 1.384 . S
C2084 H2075 0.929 . S
C2084 C2076 1.378 . S
C2084 C2079 1.350 . S
C2085 H2072 0.929 . S
C2085 C2077 1.433 . S
C2085 N2087 1.384 . S
N2086 C2082 1.427 . S
N2086 C2083 1.384 . S
N2087 C2079 1.427 . S
N2087 C2085 1.384 . S
H2088 C2094 0.930 . S
H2089 C2098 0.930 . S
H2090 C2103 0.929 . S
H2091 C2101 0.929 . S
H2092 C2096 0.929 . S
H2093 C2102 0.929 . S
C2094 H2088 0.930 . S
C2094 C2095 1.367 . S
C2094 C2102 1.378 . S
C2095 C2094 1.367 . S
C2095 C2103 1.433 . S
C2096 H2092 0.929 . S
C2096 C2098 1.378 . S
C2096 C2100 1.350 . S
C2097 C2100 1.463 . S
C2097 C2102 1.350 . S
C2097 N2105 1.427 . S
C2098 H2089 0.930 . S
C2098 C2096 1.378 . S
C2098 C2099 1.367 . S
C2099 C2098 1.367 . S
C2099 C2101 1.433 . S
C2100 C2096 1.350 . S
C2100 C2097 1.463 . S
C2100 N2104 1.427 . S
C2101 H2091 0.929 . S
C2101 C2099 1.433 . S
C2101 N2104 1.384 . S
C2102 H2093 0.929 . S
C2102 C2094 1.378 . S
C2102 C2097 1.350 . S
C2103 H2090 0.929 . S
C2103 C2095 1.433 . S
C2103 N2105 1.384 . S
N2104 C2100 1.427 . S
N2104 C2101 1.384 . S
N2105 C2097 1.427 . S
N2105 C2103 1.384 . S
H2106 C2112 0.930 . S
H2107 C2116 0.930 . S
H2108 C2121 0.929 . S
H2109 C2119 0.929 . S
H2110 C2114 0.929 . S
H2111 C2120 0.929 . S
C2112 H2106 0.930 . S
C2112 C2113 1.367 . S
C2112 C2120 1.378 . S
C2113 C2112 1.367 . S
C2113 C2121 1.433 . S
C2114 H2110 0.929 . S
C2114 C2116 1.378 . S
C2114 C2118 1.350 . S
C2115 C2118 1.463 . S
C2115 C2120 1.350 . S
C2115 N2123 1.427 . S
C2116 H2107 0.930 . S
C2116 C2114 1.378 . S
C2116 C2117 1.367 . S
C2117 C2116 1.367 . S
C2117 C2119 1.433 . S
C2118 C2114 1.350 . S
C2118 C2115 1.463 . S
C2118 N2122 1.427 . S
C2119 H2109 0.929 . S
C2119 C2117 1.433 . S
C2119 N2122 1.384 . S
C2120 H2111 0.929 . S
C2120 C2112 1.378 . S
C2120 C2115 1.350 . S
C2121 H2108 0.929 . S
C2121 C2113 1.433 . S
C2121 N2123 1.384 . S
N2122 C2118 1.427 . S
N2122 C2119 1.384 . S
N2123 C2115 1.427 . S
N2123 C2121 1.384 . S
H2124 C2130 0.930 . S
H2125 C2134 0.930 . S
H2126 C2139 0.929 . S
H2127 C2137 0.929 . S
H2128 C2132 0.929 . S
H2129 C2138 0.929 . S
C2130 H2124 0.930 . S
C2130 C2131 1.367 . S
C2130 C2138 1.378 . S
C2131 C2130 1.367 . S
C2131 C2139 1.433 . S
C2132 H2128 0.929 . S
C2132 C2134 1.378 . S
C2132 C2136 1.350 . S
C2133 C2136 1.463 . S
C2133 C2138 1.350 . S
C2133 N2141 1.427 . S
C2134 H2125 0.930 . S
C2134 C2132 1.378 . S
C2134 C2135 1.367 . S
C2135 C2134 1.367 . S
C2135 C2137 1.433 . S
C2136 C2132 1.350 . S
C2136 C2133 1.463 . S
C2136 N2140 1.427 . S
C2137 H2127 0.929 . S
C2137 C2135 1.433 . S
C2137 N2140 1.384 . S
C2138 H2129 0.929 . S
C2138 C2130 1.378 . S
C2138 C2133 1.350 . S
C2139 H2126 0.929 . S
C2139 C2131 1.433 . S
C2139 N2141 1.384 . S
N2140 C2136 1.427 . S
N2140 C2137 1.384 . S
N2141 C2133 1.427 . S
N2141 C2139 1.384 . S
H2142 C2148 0.930 . S
H2143 C2152 0.930 1_655 S
H2144 C2157 0.929 . S
H2145 C2155 0.929 . S
H2146 C2150 0.933 . S
H2147 C2156 0.929 . S
C2148 H2142 0.930 . S
C2148 C2149 1.367 . S
C2148 C2156 1.378 . S
C2149 C2148 1.367 . S
C2149 C2157 1.433 . S
C2150 H2146 0.933 . S
C2150 C2152 1.378 . S
C2150 C2154 1.350 . S
C2151 C2154 1.463 . S
C2151 C2156 1.350 . S
C2151 N2159 1.427 . S
C2152 H2143 0.930 1_455 S
C2152 C2150 1.378 . S
C2152 C2153 1.367 . S
C2153 C2152 1.367 . S
C2153 C2155 1.433 . S
C2154 C2150 1.350 . S
C2154 C2151 1.463 . S
C2154 N2158 1.427 . S
C2155 H2145 0.929 . S
C2155 C2153 1.433 . S
C2155 N2158 1.384 . S
C2156 H2147 0.929 . S
C2156 C2148 1.378 . S
C2156 C2151 1.350 . S
C2157 H2144 0.929 . S
C2157 C2149 1.433 . S
C2157 N2159 1.384 . S
N2158 C2154 1.427 . S
N2158 C2155 1.384 . S
N2159 C2151 1.427 . S
N2159 C2157 1.384 . S
H2160 C2166 0.930 . S
H2161 C2170 0.930 . S
H2162 C2175 0.929 . S
H2163 C2173 0.929 . S
H2164 C2168 0.929 . S
H2165 C2174 0.929 . S
C2166 H2160 0.930 . S
C2166 C2167 1.367 . S
C2166 C2174 1.378 . S
C2167 C2166 1.367 . S
C2167 C2175 1.433 . S
C2168 H2164 0.929 . S
C2168 C2170 1.378 . S
C2168 C2172 1.350 . S
C2169 C2172 1.463 . S
C2169 C2174 1.350 . S
C2169 N2177 1.427 . S
C2170 H2161 0.930 . S
C2170 C2168 1.378 . S
C2170 C2171 1.367 . S
C2171 C2170 1.367 . S
C2171 C2173 1.433 . S
C2172 C2168 1.350 . S
C2172 C2169 1.463 . S
C2172 N2176 1.427 . S
C2173 H2163 0.929 . S
C2173 C2171 1.433 . S
C2173 N2176 1.384 . S
C2174 H2165 0.929 . S
C2174 C2166 1.378 . S
C2174 C2169 1.350 . S
C2175 H2162 0.929 . S
C2175 C2167 1.433 . S
C2175 N2177 1.384 . S
N2176 C2172 1.427 . S
N2176 C2173 1.384 . S
N2177 C2169 1.427 . S
N2177 C2175 1.384 . S
H2178 C2184 0.930 . S
H2179 C2188 0.930 . S
H2180 C2193 0.929 . S
H2181 C2191 0.929 . S
H2182 C2186 0.929 . S
H2183 C2192 0.929 . S
C2184 H2178 0.930 . S
C2184 C2185 1.367 . S
C2184 C2192 1.378 . S
C2185 C2184 1.367 . S
C2185 C2193 1.433 . S
C2186 H2182 0.929 . S
C2186 C2188 1.378 . S
C2186 C2190 1.350 . S
C2187 C2190 1.463 . S
C2187 C2192 1.350 . S
C2187 N2195 1.427 . S
C2188 H2179 0.930 . S
C2188 C2186 1.378 . S
C2188 C2189 1.367 . S
C2189 C2188 1.367 . S
C2189 C2191 1.433 . S
C2190 C2186 1.350 . S
C2190 C2187 1.463 . S
C2190 N2194 1.427 . S
C2191 H2181 0.929 . S
C2191 C2189 1.433 . S
C2191 N2194 1.384 . S
C2192 H2183 0.929 . S
C2192 C2184 1.378 . S
C2192 C2187 1.350 . S
C2193 H2180 0.929 . S
C2193 C2185 1.433 . S
C2193 N2195 1.384 . S
N2194 C2190 1.427 . S
N2194 C2191 1.384 . S
N2195 C2187 1.427 . S
N2195 C2193 1.384 . S
H2196 C2202 0.930 . S
H2197 C2206 0.930 . S
H2198 C2211 0.929 . S
H2199 C2209 0.929 . S
H2200 C2204 0.929 . S
H2201 C2210 0.929 . S
C2202 H2196 0.930 . S
C2202 C2203 1.367 . S
C2202 C2210 1.378 . S
C2203 C2202 1.367 . S
C2203 C2211 1.433 . S
C2204 H2200 0.929 . S
C2204 C2206 1.378 . S
C2204 C2208 1.350 . S
C2205 C2208 1.463 . S
C2205 C2210 1.350 . S
C2205 N2213 1.427 . S
C2206 H2197 0.930 . S
C2206 C2204 1.378 . S
C2206 C2207 1.367 . S
C2207 C2206 1.367 . S
C2207 C2209 1.433 . S
C2208 C2204 1.350 . S
C2208 C2205 1.463 . S
C2208 N2212 1.427 . S
C2209 H2199 0.929 . S
C2209 C2207 1.433 . S
C2209 N2212 1.384 . S
C2210 H2201 0.929 . S
C2210 C2202 1.378 . S
C2210 C2205 1.350 . S
C2211 H2198 0.929 . S
C2211 C2203 1.433 . S
C2211 N2213 1.384 . S
N2212 C2208 1.427 . S
N2212 C2209 1.384 . S
N2213 C2205 1.427 . S
N2213 C2211 1.384 . S
H2214 C2220 0.930 . S
H2215 C2224 0.930 . S
H2216 C2229 0.929 . S
H2217 C2227 0.929 . S
H2218 C2222 0.929 . S
H2219 C2228 0.929 . S
C2220 H2214 0.930 . S
C2220 C2221 1.367 . S
C2220 C2228 1.378 . S
C2221 C2220 1.367 . S
C2221 C2229 1.433 . S
C2222 H2218 0.929 . S
C2222 C2224 1.378 . S
C2222 C2226 1.350 . S
C2223 C2226 1.463 . S
C2223 C2228 1.350 . S
C2223 N2231 1.427 . S
C2224 H2215 0.930 . S
C2224 C2222 1.378 . S
C2224 C2225 1.367 . S
C2225 C2224 1.367 . S
C2225 C2227 1.433 . S
C2226 C2222 1.350 . S
C2226 C2223 1.463 . S
C2226 N2230 1.427 . S
C2227 H2217 0.929 . S
C2227 C2225 1.433 . S
C2227 N2230 1.384 . S
C2228 H2219 0.929 . S
C2228 C2220 1.378 . S
C2228 C2223 1.350 . S
C2229 H2216 0.929 . S
C2229 C2221 1.433 . S
C2229 N2231 1.384 . S
N2230 C2226 1.427 . S
N2230 C2227 1.384 . S
N2231 C2223 1.427 . S
N2231 C2229 1.384 . S
H2232 C2238 0.930 . S
H2233 C2242 0.930 . S
H2234 C2247 0.929 . S
H2235 C2245 0.929 . S
H2236 C2240 0.929 . S
H2237 C2246 0.929 . S
C2238 H2232 0.930 . S
C2238 C2239 1.367 . S
C2238 C2246 1.378 . S
C2239 C2238 1.367 . S
C2239 C2247 1.433 . S
C2240 H2236 0.929 . S
C2240 C2242 1.378 . S
C2240 C2244 1.350 . S
C2241 C2244 1.463 . S
C2241 C2246 1.350 . S
C2241 N2249 1.427 . S
C2242 H2233 0.930 . S
C2242 C2240 1.378 . S
C2242 C2243 1.367 . S
C2243 C2242 1.367 . S
C2243 C2245 1.433 . S
C2244 C2240 1.350 . S
C2244 C2241 1.463 . S
C2244 N2248 1.427 . S
C2245 H2235 0.929 . S
C2245 C2243 1.433 . S
C2245 N2248 1.384 . S
C2246 H2237 0.929 . S
C2246 C2238 1.378 . S
C2246 C2241 1.350 . S
C2247 H2234 0.929 . S
C2247 C2239 1.433 . S
C2247 N2249 1.384 . S
N2248 C2244 1.427 . S
N2248 C2245 1.384 . S
N2249 C2241 1.427 . S
N2249 C2247 1.384 . S
H2250 C2256 0.930 . S
H2251 C2260 0.930 . S
H2252 C2265 0.929 . S
H2253 C2263 0.929 . S
H2254 C2258 0.929 . S
H2255 C2264 0.929 . S
C2256 H2250 0.930 . S
C2256 C2257 1.367 . S
C2256 C2264 1.378 . S
C2257 C2256 1.367 . S
C2257 C2265 1.433 . S
C2258 H2254 0.929 . S
C2258 C2260 1.378 . S
C2258 C2262 1.350 . S
C2259 C2262 1.463 . S
C2259 C2264 1.350 . S
C2259 N2267 1.427 . S
C2260 H2251 0.930 . S
C2260 C2258 1.378 . S
C2260 C2261 1.367 . S
C2261 C2260 1.367 . S
C2261 C2263 1.433 . S
C2262 C2258 1.350 . S
C2262 C2259 1.463 . S
C2262 N2266 1.427 . S
C2263 H2253 0.929 . S
C2263 C2261 1.433 . S
C2263 N2266 1.384 . S
C2264 H2255 0.929 . S
C2264 C2256 1.378 . S
C2264 C2259 1.350 . S
C2265 H2252 0.929 . S
C2265 C2257 1.433 . S
C2265 N2267 1.384 . S
N2266 C2262 1.427 . S
N2266 C2263 1.384 . S
N2267 C2259 1.427 . S
N2267 C2265 1.384 . S
H2268 C2274 0.930 . S
H2269 C2278 0.930 . S
H2270 C2283 0.929 . S
H2271 C2281 0.929 . S
H2272 C2276 0.929 . S
H2273 C2282 0.929 . S
C2274 H2268 0.930 . S
C2274 C2275 1.367 . S
C2274 C2282 1.378 . S
C2275 C2274 1.367 . S
C2275 C2283 1.433 . S
C2276 H2272 0.929 . S
C2276 C2278 1.378 . S
C2276 C2280 1.350 . S
C2277 C2280 1.463 . S
C2277 C2282 1.350 . S
C2277 N2285 1.427 . S
C2278 H2269 0.930 . S
C2278 C2276 1.378 . S
C2278 C2279 1.367 . S
C2279 C2278 1.367 . S
C2279 C2281 1.433 . S
C2280 C2276 1.350 . S
C2280 C2277 1.463 . S
C2280 N2284 1.427 . S
C2281 H2271 0.929 . S
C2281 C2279 1.433 . S
C2281 N2284 1.384 . S
C2282 H2273 0.929 . S
C2282 C2274 1.378 . S
C2282 C2277 1.350 . S
C2283 H2270 0.929 . S
C2283 C2275 1.433 . S
C2283 N2285 1.384 . S
N2284 C2280 1.427 . S
N2284 C2281 1.384 . S
N2285 C2277 1.427 . S
N2285 C2283 1.384 . S
H2286 C2292 0.930 . S
H2287 C2296 0.930 . S
H2288 C2301 0.929 . S
H2289 C2299 0.929 . S
H2290 C2294 0.929 . S
H2291 C2300 0.929 . S
C2292 H2286 0.930 . S
C2292 C2293 1.367 . S
C2292 C2300 1.378 . S
C2293 C2292 1.367 . S
C2293 C2301 1.433 . S
C2294 H2290 0.929 . S
C2294 C2296 1.378 . S
C2294 C2298 1.350 . S
C2295 C2298 1.463 . S
C2295 C2300 1.350 . S
C2295 N2303 1.427 . S
C2296 H2287 0.930 . S
C2296 C2294 1.378 . S
C2296 C2297 1.367 . S
C2297 C2296 1.367 . S
C2297 C2299 1.433 . S
C2298 C2294 1.350 . S
C2298 C2295 1.463 . S
C2298 N2302 1.427 . S
C2299 H2289 0.929 . S
C2299 C2297 1.433 . S
C2299 N2302 1.384 . S
C2300 H2291 0.929 . S
C2300 C2292 1.378 . S
C2300 C2295 1.350 . S
C2301 H2288 0.929 . S
C2301 C2293 1.433 . S
C2301 N2303 1.384 . S
N2302 C2298 1.427 . S
N2302 C2299 1.384 . S
N2303 C2295 1.427 . S
N2303 C2301 1.384 . S
H2304 C2310 0.930 . S
H2305 C2314 0.930 . S
H2306 C2319 0.929 . S
H2307 C2317 0.929 . S
H2308 C2312 0.929 . S
H2309 C2318 0.929 . S
C2310 H2304 0.930 . S
C2310 C2311 1.367 . S
C2310 C2318 1.378 . S
C2311 C2310 1.367 . S
C2311 C2319 1.433 . S
C2312 H2308 0.929 . S
C2312 C2314 1.378 . S
C2312 C2316 1.350 . S
C2313 C2316 1.463 . S
C2313 C2318 1.350 . S
C2313 N2321 1.427 . S
C2314 H2305 0.930 . S
C2314 C2312 1.378 . S
C2314 C2315 1.367 . S
C2315 C2314 1.367 . S
C2315 C2317 1.433 . S
C2316 C2312 1.350 . S
C2316 C2313 1.463 . S
C2316 N2320 1.427 . S
C2317 H2307 0.929 . S
C2317 C2315 1.433 . S
C2317 N2320 1.384 . S
C2318 H2309 0.929 . S
C2318 C2310 1.378 . S
C2318 C2313 1.350 . S
C2319 H2306 0.929 . S
C2319 C2311 1.433 . S
C2319 N2321 1.384 . S
N2320 C2316 1.427 . S
N2320 C2317 1.384 . S
N2321 C2313 1.427 . S
N2321 C2319 1.384 . S
H2322 C2328 0.930 . S
H2323 C2332 0.930 . S
H2324 C2337 0.929 . S
H2325 C2335 0.929 . S
H2326 C2330 0.929 . S
H2327 C2336 0.929 . S
C2328 H2322 0.930 . S
C2328 C2329 1.367 . S
C2328 C2336 1.378 . S
C2329 C2328 1.367 . S
C2329 C2337 1.433 . S
C2330 H2326 0.929 . S
C2330 C2332 1.378 . S
C2330 C2334 1.350 . S
C2331 C2334 1.463 . S
C2331 C2336 1.350 . S
C2331 N2339 1.427 . S
C2332 H2323 0.930 . S
C2332 C2330 1.378 . S
C2332 C2333 1.367 . S
C2333 C2332 1.367 . S
C2333 C2335 1.433 . S
C2334 C2330 1.350 . S
C2334 C2331 1.463 . S
C2334 N2338 1.427 . S
C2335 H2325 0.929 . S
C2335 C2333 1.433 . S
C2335 N2338 1.384 . S
C2336 H2327 0.929 . S
C2336 C2328 1.378 . S
C2336 C2331 1.350 . S
C2337 H2324 0.929 . S
C2337 C2329 1.433 . S
C2337 N2339 1.384 . S
N2338 C2334 1.427 . S
N2338 C2335 1.384 . S
N2339 C2331 1.427 . S
N2339 C2337 1.384 . S
H2340 C2346 0.930 . S
H2341 C2350 0.930 . S
H2342 C2355 0.929 . S
H2343 C2353 0.929 . S
H2344 C2348 0.929 . S
H2345 C2354 0.929 . S
C2346 H2340 0.930 . S
C2346 C2347 1.367 . S
C2346 C2354 1.378 . S
C2347 C2346 1.367 . S
C2347 C2355 1.433 . S
C2348 H2344 0.929 . S
C2348 C2350 1.378 . S
C2348 C2352 1.350 . S
C2349 C2352 1.463 . S
C2349 C2354 1.350 . S
C2349 N2357 1.427 . S
C2350 H2341 0.930 . S
C2350 C2348 1.378 . S
C2350 C2351 1.367 . S
C2351 C2350 1.367 . S
C2351 C2353 1.433 . S
C2352 C2348 1.350 . S
C2352 C2349 1.463 . S
C2352 N2356 1.427 . S
C2353 H2343 0.929 . S
C2353 C2351 1.433 . S
C2353 N2356 1.384 . S
C2354 H2345 0.929 . S
C2354 C2346 1.378 . S
C2354 C2349 1.350 . S
C2355 H2342 0.929 . S
C2355 C2347 1.433 . S
C2355 N2357 1.384 . S
N2356 C2352 1.427 . S
N2356 C2353 1.384 . S
N2357 C2349 1.427 . S
N2357 C2355 1.384 . S
H2358 C2364 0.930 . S
H2359 C2368 0.930 . S
H2360 C2373 0.929 . S
H2361 C2371 0.929 . S
H2362 C2366 0.929 . S
H2363 C2372 0.929 . S
C2364 H2358 0.930 . S
C2364 C2365 1.367 . S
C2364 C2372 1.378 . S
C2365 C2364 1.367 . S
C2365 C2373 1.433 . S
C2366 H2362 0.929 . S
C2366 C2368 1.378 . S
C2366 C2370 1.350 . S
C2367 C2370 1.463 . S
C2367 C2372 1.350 . S
C2367 N2375 1.427 . S
C2368 H2359 0.930 . S
C2368 C2366 1.378 . S
C2368 C2369 1.367 . S
C2369 C2368 1.367 . S
C2369 C2371 1.433 . S
C2370 C2366 1.350 . S
C2370 C2367 1.463 . S
C2370 N2374 1.427 . S
C2371 H2361 0.929 . S
C2371 C2369 1.433 . S
C2371 N2374 1.384 . S
C2372 H2363 0.929 . S
C2372 C2364 1.378 . S
C2372 C2367 1.350 . S
C2373 H2360 0.929 . S
C2373 C2365 1.433 . S
C2373 N2375 1.384 . S
N2374 C2370 1.427 . S
N2374 C2371 1.384 . S
N2375 C2367 1.427 . S
N2375 C2373 1.384 . S
H2376 C2382 0.930 . S
H2377 C2386 0.930 . S
H2378 C2391 0.929 . S
H2379 C2389 0.929 . S
H2380 C2384 0.929 . S
H2381 C2390 0.929 . S
C2382 H2376 0.930 . S
C2382 C2383 1.367 . S
C2382 C2390 1.378 . S
C2383 C2382 1.367 . S
C2383 C2391 1.433 . S
C2384 H2380 0.929 . S
C2384 C2386 1.378 . S
C2384 C2388 1.350 . S
C2385 C2388 1.463 . S
C2385 C2390 1.350 . S
C2385 N2393 1.427 . S
C2386 H2377 0.930 . S
C2386 C2384 1.378 . S
C2386 C2387 1.367 . S
C2387 C2386 1.367 . S
C2387 C2389 1.433 . S
C2388 C2384 1.350 . S
C2388 C2385 1.463 . S
C2388 N2392 1.427 . S
C2389 H2379 0.929 . S
C2389 C2387 1.433 . S
C2389 N2392 1.384 . S
C2390 H2381 0.929 . S
C2390 C2382 1.378 . S
C2390 C2385 1.350 . S
C2391 H2378 0.929 . S
C2391 C2383 1.433 . S
C2391 N2393 1.384 . S
N2392 C2388 1.427 . S
N2392 C2389 1.384 . S
N2393 C2385 1.427 . S
N2393 C2391 1.384 . S
H2394 C2400 0.930 . S
H2395 C2404 0.930 . S
H2396 C2409 0.929 . S
H2397 C2407 0.929 . S
H2398 C2402 0.929 . S
H2399 C2408 0.929 . S
C2400 H2394 0.930 . S
C2400 C2401 1.367 . S
C2400 C2408 1.378 . S
C2401 C2400 1.367 . S
C2401 C2409 1.433 . S
C2402 H2398 0.929 . S
C2402 C2404 1.378 . S
C2402 C2406 1.350 . S
C2403 C2406 1.463 . S
C2403 C2408 1.350 . S
C2403 N2411 1.427 . S
C2404 H2395 0.930 . S
C2404 C2402 1.378 . S
C2404 C2405 1.367 . S
C2405 C2404 1.367 . S
C2405 C2407 1.433 . S
C2406 C2402 1.350 . S
C2406 C2403 1.463 . S
C2406 N2410 1.427 . S
C2407 H2397 0.929 . S
C2407 C2405 1.433 . S
C2407 N2410 1.384 . S
C2408 H2399 0.929 . S
C2408 C2400 1.378 . S
C2408 C2403 1.350 . S
C2409 H2396 0.929 . S
C2409 C2401 1.433 . S
C2409 N2411 1.384 . S
N2410 C2406 1.427 . S
N2410 C2407 1.384 . S
N2411 C2403 1.427 . S
N2411 C2409 1.384 . S
H2412 C2418 0.930 . S
H2413 C2422 0.930 . S
H2414 C2427 0.929 . S
H2415 C2425 0.929 . S
H2416 C2420 0.929 . S
H2417 C2426 0.929 . S
C2418 H2412 0.930 . S
C2418 C2419 1.367 . S
C2418 C2426 1.378 . S
C2419 C2418 1.367 . S
C2419 C2427 1.433 . S
C2420 H2416 0.929 . S
C2420 C2422 1.378 . S
C2420 C2424 1.350 . S
C2421 C2424 1.463 . S
C2421 C2426 1.350 . S
C2421 N2429 1.427 . S
C2422 H2413 0.930 . S
C2422 C2420 1.378 . S
C2422 C2423 1.367 . S
C2423 C2422 1.367 . S
C2423 C2425 1.433 . S
C2424 C2420 1.350 . S
C2424 C2421 1.463 . S
C2424 N2428 1.427 . S
C2425 H2415 0.929 . S
C2425 C2423 1.433 . S
C2425 N2428 1.384 . S
C2426 H2417 0.929 . S
C2426 C2418 1.378 . S
C2426 C2421 1.350 . S
C2427 H2414 0.929 . S
C2427 C2419 1.433 . S
C2427 N2429 1.384 . S
N2428 C2424 1.427 . S
N2428 C2425 1.384 . S
N2429 C2421 1.427 . S
N2429 C2427 1.384 . S
H2430 C2436 0.930 . S
H2431 C2440 0.930 . S
H2432 C2445 0.929 . S
H2433 C2443 0.929 . S
H2434 C2438 0.929 . S
H2435 C2444 0.929 . S
C2436 H2430 0.930 . S
C2436 C2437 1.367 . S
C2436 C2444 1.378 . S
C2437 C2436 1.367 . S
C2437 C2445 1.433 . S
C2438 H2434 0.929 . S
C2438 C2440 1.378 . S
C2438 C2442 1.350 . S
C2439 C2442 1.463 . S
C2439 C2444 1.350 . S
C2439 N2447 1.427 . S
C2440 H2431 0.930 . S
C2440 C2438 1.378 . S
C2440 C2441 1.367 . S
C2441 C2440 1.367 . S
C2441 C2443 1.433 . S
C2442 C2438 1.350 . S
C2442 C2439 1.463 . S
C2442 N2446 1.427 . S
C2443 H2433 0.929 . S
C2443 C2441 1.433 . S
C2443 N2446 1.384 . S
C2444 H2435 0.929 . S
C2444 C2436 1.378 . S
C2444 C2439 1.350 . S
C2445 H2432 0.929 . S
C2445 C2437 1.433 . S
C2445 N2447 1.384 . S
N2446 C2442 1.427 . S
N2446 C2443 1.384 . S
N2447 C2439 1.427 . S
N2447 C2445 1.384 . S
C1483 C522 1.454 . S
C1487 C787 1.370 . S
C1501 C562 1.452 . S
C1505 C871 1.386 . S
C1519 C495 1.480 . S
C1523 C951 1.436 . S
C1537 C455 1.438 . S
C1541 C867 1.400 . S
C1559 C955 1.326 . S
C1555 C362 1.388 . S
C1573 C402 1.432 . S
C1577 C783 1.385 . S
C1595 C776 1.401 . S
C1591 C442 1.455 . S
C1613 C860 1.371 . S
C1609 C375 1.430 . S
C1627 C415 1.487 . S
C1631 C962 1.441 . S
C1645 C535 1.440 . S
C1649 C878 1.400 . S
C1663 C575 1.364 . S
C1667 C944 1.301 . S
C1685 C794 1.408 . S
C1681 C482 1.424 . S
C1703 C1039 1.369 . S
C1699 C42 1.454 1_455 S
C1717 C82 1.456 . S
C1721 C1123 1.392 . S
C1735 C15 1.483 . S
C1739 C1203 1.443 . S
C1753 C695 1.439 . S
C1757 C1119 1.403 . S
C1771 C602 1.390 . S
C1775 C1207 1.318 . S
C1789 C642 1.434 . S
C1793 C1035 1.382 . S
C1807 C682 1.453 . S
C1811 C1028 1.398 . S
C1825 C615 1.430 . S
C1829 C1112 1.369 . S
C1847 C1214 1.434 . S
C1843 C655 1.485 . S
C1861 C55 1.440 . S
C1865 C1130 1.403 . S
C1883 C1196 1.288 . S
C1879 C95 1.365 1_455 S
C1897 C2 1.423 . S
C1901 C1046 1.409 . S
C1919 C1291 1.387 . S
C1915 C282 1.456 . S
C1933 C322 1.456 . S
C1937 C1375 1.391 . S
C1955 C1455 1.449 . S
C1951 C255 1.488 . S
C1973 C1371 1.405 . S
C1969 C215 1.408 1_545 S
C1991 C1459 1.326 . S
C1987 C122 1.388 1_655 S
C2005 C162 1.431 . S
C2009 C1287 1.383 . S
C2023 C202 1.457 1_655 S
C2027 C1280 1.411 . S
C2041 C135 1.433 . S
C2045 C1364 1.370 . S
C2063 C1466 1.445 . S
C2059 C175 1.544 . S
C2077 C295 1.438 . S
C2081 C1382 1.392 . S
C2095 C335 1.367 . S
C2099 C1448 1.306 . S
C2113 C242 1.428 . S
C2117 C1298 1.413 . S
C2131 C621 1.411 . S
C2135 C790 1.316 . S
C2153 C874 1.346 . S
C2149 C661 1.507 . S
C2167 C701 1.474 . S
C2171 C946 1.343 . S
C2185 C261 1.505 . S
C2189 C862 1.374 . S
C2203 C301 1.465 . S
C2207 C958 1.323 . S
C2225 C778 1.300 . S
C2221 C341 1.416 . S
C2239 C141 1.415 . S
C2243 C1042 1.309 . S
C2257 C181 1.507 . S
C2261 C1126 1.346 . S
C2275 C221 1.476 . S
C2279 C1198 1.347 . S
C2293 C501 1.507 . S
C2297 C1114 1.370 . S
C2315 C1210 1.323 . S
C2311 C541 1.466 . S
C2329 C581 1.416 . S
C2333 C1030 1.300 . S
C2347 C381 1.410 . S
C2351 C1294 1.317 . S
C2365 C421 1.507 . S
C2369 C1378 1.346 . S
C2387 C1450 1.355 . S
C2383 C461 1.475 . S
C2401 C21 1.507 . S
C2405 C1366 1.369 . S
C2419 C61 1.465 . S
C2423 C1462 1.323 . S
C2437 C101 1.413 . S
C2441 C1282 1.315 . S
