# Generated by pormake.
# Topology pth, (4,4)-cn, num edge types: 1
# Building blocks:
#     Node 0, Type 0, BuildingBlock: KUFVIS_clean_sbu_0, # of connection points: 4
#     Node 1, Type 0, BuildingBlock: KUFVIS_clean_sbu_0, # of connection points: 4
#     Node 2, Type 0, BuildingBlock: KUFVIS_clean_sbu_0, # of connection points: 4
#     Node 3, Type 1, BuildingBlock: MUDLON_clean_sbu_0, # of connection points: 4
#     Node 4, Type 1, BuildingBlock: MUDLON_clean_sbu_0, # of connection points: 4
#     Node 5, Type 1, BuildingBlock: MUDLON_clean_sbu_0, # of connection points: 4
#     Edge 6, Type (0, 1), BuildingBlock: UVAHIK_clean_linker_0, # of connection points: 2
#     Edge 7, Type (0, 1), BuildingBlock: UVAHIK_clean_linker_0, # of connection points: 2
#     Edge 8, Type (0, 1), BuildingBlock: UVAHIK_clean_linker_0, # of connection points: 2
#     Edge 9, Type (0, 1), BuildingBlock: UVAHIK_clean_linker_0, # of connection points: 2
#     Edge 10, Type (0, 1), BuildingBlock: UVAHIK_clean_linker_0, # of connection points: 2
#     Edge 11, Type (0, 1), BuildingBlock: UVAHIK_clean_linker_0, # of connection points: 2
#     Edge 12, Type (0, 1), BuildingBlock: UVAHIK_clean_linker_0, # of connection points: 2
#     Edge 13, Type (0, 1), BuildingBlock: UVAHIK_clean_linker_0, # of connection points: 2
#     Edge 14, Type (0, 1), BuildingBlock: UVAHIK_clean_linker_0, # of connection points: 2
#     Edge 15, Type (0, 1), BuildingBlock: UVAHIK_clean_linker_0, # of connection points: 2
#     Edge 16, Type (0, 1), BuildingBlock: UVAHIK_clean_linker_0, # of connection points: 2
#     Edge 17, Type (0, 1), BuildingBlock: UVAHIK_clean_linker_0, # of connection points: 2
# Relax obj value: 0.022
# Max RMSD: 0.097
# Mean RMSD: 0.069
data_MOF--net-pth--node1-KUFVIS_clean_sbu_0--node2-MUDLON_clean_sbu_0--edge1-UVAHIK_clean_linker_0
_symmetry_space_group_name_H-M    P1
_symmetry_Int_Tables_number       1
_symmetry_cell_setting            triclinic
loop_
_symmetry_equiv_pos_as_xyz
'x, y, z'
_cell_length_a     28.785365
_cell_length_b     28.771657
_cell_length_c     78.117041
_cell_angle_alpha  90.516725
_cell_angle_beta   91.664682
_cell_angle_gamma 120.03854
loop_
_atom_site_label
_atom_site_type_symbol
_atom_site_fract_x
_atom_site_fract_y
_atom_site_fract_z
_atom_type_partial_charge
Mn0 Mn 0.08352 0.12028 0.08166 0.0
Mn1 Mn 0.01117 0.15652 0.05578 0.0
C2 C 0.0288 0.06313 0.05951 0.0
C3 C 0.09575 0.08032 0.10605 0.0
C4 C 0.13016 0.19924 0.05221 0.0
O5 O 0.08364 0.18066 0.09568 0.0
O6 O 0.03502 0.20094 0.07731 0.0
C7 C 0.91757 0.12066 0.07771 0.0
N8 N 0.93803 0.11958 0.06231 0.0
C9 C 0.84966 0.06097 0.04986 0.0
C10 C 0.82762 0.06172 0.06556 0.0
C11 C 0.86175 0.09154 0.07956 0.0
C12 C 0.90558 0.09063 0.0488 0.0
H13 H 0.94363 0.14357 0.0885 0.0
C14 C 0.06122 0.2079 0.09155 0.0
O15 O 0.13605 0.11707 0.09804 0.0
O16 O 0.04808 0.0681 0.10028 0.0
N17 N 0.98442 0.11722 0.03446 0.0
C18 C 0.01212 0.11901 0.02039 0.0
C19 C 0.98389 0.09118 1.00527 0.0
C20 C 0.92751 0.06223 1.00471 0.0
C21 C 0.89984 0.06114 0.01931 0.0
C22 C 0.93012 0.09009 0.03397 0.0
H23 H 0.05542 0.14119 0.02072 0.0
O24 O 0.06888 0.05916 0.06577 0.0
O25 O 0.02163 0.10035 0.06634 0.0
O26 O 0.13572 0.17446 0.06485 0.0
O27 O 0.08534 0.19541 0.0477 0.0
C28 C 0.84344 0.03179 0.01999 0.0
C29 C 0.81838 0.03149 0.03528 0.0
H30 H 0.78459 0.03931 0.06705 0.0
H31 H 0.84506 0.09215 0.09175 0.0
H32 H 1.00554 0.09202 0.99407 0.0
H33 H 0.90587 0.0407 0.99305 0.0
H34 H 0.819 0.00872 0.00889 0.0
H35 H 0.77502 0.0082 0.03571 0.0
Mn36 Mn 0.04254 0.09917 0.4121 0.0
Mn37 Mn 0.11268 0.21255 0.43663 0.0
C38 C 0.10281 0.10408 0.43338 0.0
C39 C 0.02996 0.04678 0.38746 0.0
C40 C 0.99498 0.13156 0.4413 0.0
O41 O 0.03537 0.15555 0.39835 0.0
O42 O 0.08901 0.22963 0.4146 0.0
C43 C 0.2073 0.27143 0.41526 0.0
N44 N 0.18625 0.2503 0.43058 0.0
C45 C 0.27431 0.28302 0.44362 0.0
C46 C 0.29695 0.30543 0.42801 0.0
C47 C 0.26328 0.29946 0.41376 0.0
C48 C 0.21826 0.25562 0.44435 0.0
H49 H 0.18157 0.26687 0.40428 0.0
C50 C 0.05958 0.20638 0.40111 0.0
O51 O 0.99002 0.04034 0.39641 0.0
O52 O 0.07753 0.08459 0.39263 0.0
N53 N 0.1389 0.20229 0.45825 0.0
C54 C 0.11064 0.17562 0.47207 0.0
C55 C 0.13836 0.17629 0.48725 0.0
C56 C 0.19476 0.20475 0.48812 0.0
C57 C 0.22297 0.23237 0.4738 0.0
C58 C 0.19318 0.23053 0.45905 0.0
H59 H 0.0673 0.15379 0.47152 0.0
O60 O 0.06445 0.05777 0.4276 0.0
O61 O 0.10507 0.14607 0.42648 0.0
O62 O 0.99118 0.09806 0.42981 0.0
O63 O 0.03789 0.17645 0.44438 0.0
C64 C 0.27946 0.26069 0.47346 0.0
C65 C 0.30511 0.2859 0.45837 0.0
H66 H 0.3401 0.32689 0.42678 0.0
H67 H 0.28045 0.31641 0.40165 0.0
H68 H 0.1163 0.15483 0.49825 0.0
H69 H 0.216 0.20478 0.49981 0.0
H70 H 0.30354 0.26255 0.48465 0.0
H71 H 0.34854 0.30681 0.45818 0.0
Mn72 Mn 0.07318 0.08963 0.74701 0.0
Mn73 Mn 0.03174 0.16276 0.76935 0.0
C74 C 0.12675 0.14657 0.76944 0.0
C75 C 0.11468 0.07625 0.72367 0.0
C76 C 0.98769 0.04338 0.77409 0.0
O77 O 0.01315 0.08624 0.73149 0.0
O78 O 0.99405 0.14154 0.74646 0.0
C79 C 0.0767 0.25838 0.74762 0.0
N80 N 0.07218 0.23643 0.76328 0.0
C81 C 0.12756 0.32354 0.77677 0.0
C82 C 0.13233 0.34715 0.76081 0.0
C83 C 0.10705 0.31438 0.74616 0.0
C84 C 0.09718 0.2675 0.77741 0.0
H85 H 0.05736 0.23332 0.73633 0.0
C86 C 0.98812 0.11211 0.73325 0.0
O87 O 0.07858 0.03646 0.73204 0.0
O88 O 0.12647 0.12423 0.72873 0.0
N89 N 0.06486 0.18714 0.79172 0.0
C90 C 0.05799 0.15801 0.80605 0.0
C91 C 0.0814 0.18472 0.82178 0.0
C92 C 0.11102 0.24108 0.82269 0.0
C93 C 0.11696 0.27023 0.80783 0.0
C94 C 0.09271 0.24142 0.79251 0.0
H95 H 0.03518 0.11473 0.80546 0.0
O96 O 0.13325 0.10731 0.76421 0.0
O97 O 0.08979 0.15189 0.76128 0.0
O98 O 0.01792 0.0385 0.76352 0.0
O99 O 0.98852 0.08763 0.77696 0.0
C100 C 0.14628 0.32674 0.8076 0.0
C101 C 0.15202 0.35337 0.79206 0.0
H102 H 0.15557 0.39034 0.75964 0.0
H103 H 0.11083 0.33226 0.73377 0.0
H104 H 0.07664 0.1619 0.83319 0.0
H105 H 0.12926 0.26155 0.83483 0.0
H106 H 0.16526 0.3501 0.81927 0.0
H107 H 0.17551 0.39681 0.79199 0.0
Mg108 Mg 0.05423 0.62758 0.2457 0.0
C109 C 0.0472 0.54599 0.26826 0.0
O110 O 1.00216 0.52493 0.25896 0.0
C111 C 0.12782 0.70937 0.21984 0.0
O112 O 0.12275 0.66666 0.21183 0.0
C113 C 1.00996 0.56488 0.21024 0.0
O114 O 1.00713 0.60639 0.20467 0.0
O115 O 0.02392 0.56443 0.2258 0.0
O116 O 0.0827 0.59466 0.26583 0.0
O117 O 0.99832 0.64501 0.25855 0.0
C118 C 0.99361 0.68461 0.25369 0.0
O119 O 0.01298 0.70598 0.23892 0.0
O120 O 0.1101 0.70469 0.23483 0.0
Mg121 Mg 0.52552 0.05757 0.57799 0.0
C122 C 0.49622 0.09047 0.54567 0.0
O123 O 0.49883 0.04769 0.54134 0.0
C124 C 0.5835 0.06044 0.60919 0.0
O125 O 0.5408 0.01228 0.6078 0.0
C126 C 0.41046 0.01599 0.58836 0.0
O127 O 0.40813 0.0369 0.57371 0.0
O128 O 0.45226 0.0133 0.59231 0.0
O129 O 0.50953 0.10886 0.56103 0.0
O130 O 0.55142 0.0143 0.56094 0.0
C131 C 0.59196 0.00885 0.56429 0.0
O132 O 0.61354 0.01988 0.57988 0.0
O133 O 0.58908 0.09475 0.59803 0.0
Mg134 Mg 0.58504 0.58791 0.91242 0.0
C135 C 0.46944 0.53089 0.90005 0.0
O136 O 0.46399 0.51262 0.91564 0.0
C137 C 0.66776 0.67649 0.93322 0.0
O138 O 0.6914 0.65284 0.92599 0.0
C139 C 0.56639 0.51999 0.944 0.0
O140 O 0.60029 0.5669 0.95117 0.0
O141 O 0.55852 0.51647 0.9278 0.0
O142 O 0.51499 0.56926 0.89601 0.0
O143 O 0.64958 0.60947 0.89471 0.0
C144 C 0.64159 0.60477 0.87853 0.0
O145 O 0.59227 0.57606 0.87212 0.0
O146 O 0.61774 0.65765 0.93003 0.0
C147 C 0.04865 0.28596 0.09836 0.0
C148 C 0.06227 0.24781 0.10399 0.0
C149 C 0.04418 0.32042 0.11003 0.0
C150 C 0.01623 0.33082 0.15499 0.0
H151 H 0.06938 0.48049 0.14493 0.0
C152 C 0.01497 0.48189 0.2041 0.0
C153 C 1.0068 0.52331 0.19808 0.0
C154 C 0.01943 0.44681 0.19267 0.0
C155 C 0.05349 0.4386 0.14783 0.0
H156 H 0.08303 0.21695 0.12637 0.0
H157 H 0.07516 0.27745 0.14684 0.0
H158 H 0.08573 0.42438 0.1253 0.0
H159 H 0.99432 0.55851 0.17523 0.0
H160 H 1.0008 0.49642 0.15525 0.0
H161 H 0.98338 0.34475 0.1774 0.0
C162 C 0.06769 0.28027 0.13333 0.0
C163 C 0.06318 0.4065 0.13661 0.0
C164 C 0.07268 0.24597 0.12159 0.0
C165 C 1.00079 0.52722 0.18032 0.0
C166 C 1.00507 0.49193 0.16886 0.0
C167 C 1.00625 0.36286 0.16617 0.0
C168 C 0.05285 0.31752 0.12767 0.0
C169 C 0.04461 0.35221 0.14003 0.0
C170 C 0.01558 0.45195 0.17488 0.0
C171 C 0.02471 0.4172 0.16273 0.0
H172 H 0.04043 0.28868 0.0849 0.0
H173 H 0.03222 0.34825 0.10524 0.0
H174 H 1.00062 0.28893 0.15785 0.0
H175 H 0.01984 0.47758 0.21769 0.0
H176 H 0.028 0.41696 0.19782 0.0
C177 C 0.90198 0.06524 0.45041 0.0
C178 C 0.94838 0.11628 0.45229 0.0
C179 C 0.85985 0.04924 0.46161 0.0
C180 C 0.76514 0.03436 0.48232 0.0
H181 H 0.80412 0.07572 0.53023 0.0
C182 C 0.61271 0.01293 0.53314 0.0
C183 C 0.62254 1.00364 0.55016 0.0
C184 C 0.6488 0.01967 0.52045 0.0
C185 C 0.79238 0.06311 0.51695 0.0
H186 H 0.98571 0.19109 0.46721 0.0
H187 H 0.91201 0.16356 0.48649 0.0
H188 H 0.87413 0.10306 0.50962 0.0
H189 H 0.67547 0.98946 0.56684 0.0
H190 H 0.73739 0.99963 0.54466 0.0
H191 H 0.68324 0.9936 0.48978 0.0
C192 C 0.90865 0.13544 0.47655 0.0
C193 C 0.83264 0.07963 0.50505 0.0
C194 C 0.95082 0.15141 0.46538 0.0
C195 C 0.66698 0.99716 0.5539 0.0
C196 C 0.7028 1.00351 0.54121 0.0
C197 C 0.72474 0.01774 0.49425 0.0
C198 C 0.86296 0.08386 0.47498 0.0
C199 C 0.81962 0.06578 0.48757 0.0
C200 C 0.69532 0.0169 0.52447 0.0
C201 C 0.73787 0.03202 0.51173 0.0
H202 H 0.89859 0.03698 0.44051 0.0
H203 H 0.82554 0.00908 0.4601 0.0
H204 H 0.7536 0.02324 0.46894 0.0
H205 H 0.57894 0.0183 0.5298 0.0
H206 H 0.64174 0.03007 0.50773 0.0
C207 C 0.93253 1.00119 0.7998 0.0
C208 C 0.95112 0.99553 0.78389 0.0
C209 C 0.90129 0.95613 0.80955 0.0
C210 C 0.80253 0.81807 0.80826 0.0
H211 H 0.8632 0.80248 0.8513 0.0
C212 C 0.67997 0.63342 0.84953 0.0
C213 C 0.68485 0.6419 0.86738 0.0
C214 C 0.71617 0.67303 0.83883 0.0
C215 C 0.84509 0.80635 0.83947 0.0
H216 H 0.94944 0.93772 0.76546 0.0
H217 H 0.89292 0.85891 0.78227 0.0
H218 H 0.91615 0.88025 0.83384 0.0
H219 H 0.73267 0.69804 0.88803 0.0
H220 H 0.79388 0.76754 0.86956 0.0
H221 H 0.73046 0.74634 0.81408 0.0
C222 C 0.90377 0.89846 0.78727 0.0
C223 C 0.87573 0.85082 0.82944 0.0
C224 C 0.93612 0.94357 0.7777 0.0
C225 C 0.72801 0.6899 0.87433 0.0
C226 C 0.76344 0.72992 0.86365 0.0
C227 C 0.77132 0.77421 0.81846 0.0
C228 C 0.88682 0.9045 0.80336 0.0
C229 C 0.85461 0.85706 0.8138 0.0
C230 C 0.75745 0.72265 0.84569 0.0
C231 C 0.792 0.76773 0.83429 0.0
H232 H 0.94308 0.04049 0.80492 0.0
H233 H 0.88828 0.96153 0.82191 0.0
H234 H 0.78547 0.82232 0.79623 0.0
H235 H 0.64728 0.59672 0.8438 0.0
H236 H 0.71094 0.66499 0.82514 0.0
C237 C 0.15622 0.06378 0.12565 0.0
C238 C 0.10401 0.05091 0.12023 0.0
C239 C 0.1643 0.03296 0.13786 0.0
C240 C 0.16876 0.93974 0.15429 0.0
H241 H 0.07606 0.88034 0.19267 0.0
C242 C 0.15069 0.76029 0.19253 0.0
C243 C 0.14101 0.75839 0.21013 0.0
C244 C 0.15311 0.8017 0.18263 0.0
C245 C 0.10283 0.89711 0.18216 0.0
H246 H 0.01933 0.99632 0.12375 0.0
H247 H 0.03335 0.94235 0.14497 0.0
H248 H 0.06574 0.94212 0.17394 0.0
H249 H 0.12966 0.8007 0.23128 0.0
H250 H 0.13473 0.87322 0.21406 0.0
H251 H 0.20591 0.89479 0.16254 0.0
C252 C 0.06814 0.97661 0.13991 0.0
C253 C 0.09641 0.93204 0.17127 0.0
C254 C 0.06006 0.00745 0.12768 0.0
C255 C 0.13697 0.80067 0.21776 0.0
C256 C 0.13934 0.84205 0.20785 0.0
C257 C 0.17512 0.90473 0.16516 0.0
C258 C 0.12038 0.98847 0.14497 0.0
C259 C 0.12895 0.95344 0.1571 0.0
C260 C 0.14594 0.8423 0.19007 0.0
C261 C 0.14192 0.88256 0.17916 0.0
H262 H 0.19101 0.0971 0.12022 0.0
H263 H 0.20506 0.04383 0.14165 0.0
H264 H 0.19422 0.95498 0.14341 0.0
H265 H 0.15388 0.72841 0.1862 0.0
H266 H 0.15793 0.80034 0.16897 0.0
C267 C 0.13573 0.07868 0.45963 0.0
C268 C 0.14662 0.10749 0.4445 0.0
C269 C 0.17793 0.08364 0.47034 0.0
C270 C 0.27293 0.12406 0.49556 0.0
H271 H 0.40162 0.13834 0.47613 0.0
C272 C 0.44771 0.14124 0.53899 0.0
C273 C 0.46923 0.1095 0.53352 0.0
C274 C 0.41415 0.15047 0.52786 0.0
C275 C 0.36591 0.13414 0.48183 0.0
H276 H 0.20898 0.15937 0.42764 0.0
H277 H 0.28276 0.1696 0.44641 0.0
H278 H 0.32927 0.12967 0.45727 0.0
H279 H 0.47503 0.06534 0.51181 0.0
H280 H 0.4164 0.08014 0.49278 0.0
H281 H 0.30838 0.12502 0.52011 0.0
C282 C 0.24208 0.14344 0.45027 0.0
C283 C 0.32448 0.12987 0.47096 0.0
C284 C 0.19989 0.13828 0.4396 0.0
C285 C 0.45901 0.08984 0.51649 0.0
C286 C 0.42552 0.09876 0.50546 0.0
C287 C 0.31412 0.12752 0.50644 0.0
C288 C 0.2318 0.11696 0.46596 0.0
C289 C 0.27698 0.12391 0.47764 0.0
C290 C 0.40154 0.12813 0.51106 0.0
C291 C 0.36078 0.13157 0.4997 0.0
H292 H 0.09469 0.05347 0.46338 0.0
H293 H 0.16821 0.06123 0.48202 0.0
H294 H 0.23763 0.12092 0.50123 0.0
H295 H 0.45477 0.15688 0.55205 0.0
H296 H 0.39713 0.17404 0.53254 0.0
C297 C 0.17381 0.17212 0.79821 0.0
C298 C 0.16528 0.18712 0.78195 0.0
C299 C 0.20823 0.21122 0.81036 0.0
C300 C 0.27811 0.36049 0.81902 0.0
H301 H 0.34325 0.32411 0.85677 0.0
C302 C 0.43589 0.51402 0.86925 0.0
C303 C 0.42852 0.49829 0.88642 0.0
C304 C 0.40267 0.47849 0.85607 0.0
C305 C 0.32484 0.33468 0.84637 0.0
H306 H 0.19002 0.25324 0.76477 0.0
H307 H 0.25267 0.32133 0.78545 0.0
H308 H 0.2931 0.25768 0.83413 0.0
H309 H 0.37837 0.4339 0.90323 0.0
H310 H 0.32102 0.37217 0.88027 0.0
H311 H 0.31199 0.43844 0.83122 0.0
C312 C 0.23048 0.28014 0.78944 0.0
C313 C 0.2957 0.29643 0.83336 0.0
C314 C 0.19484 0.24113 0.77749 0.0
C315 C 0.3854 0.44741 0.89017 0.0
C316 C 0.35273 0.41177 0.87701 0.0
C317 C 0.30792 0.39899 0.83194 0.0
C318 C 0.2367 0.26608 0.80626 0.0
C319 C 0.27095 0.30828 0.8196 0.0
C320 C 0.36189 0.42639 0.85981 0.0
C321 C 0.33095 0.38623 0.84586 0.0
H322 H 0.15185 0.13043 0.80179 0.0
H323 H 0.21076 0.19823 0.82312 0.0
H324 H 0.25989 0.37175 0.8088 0.0
H325 H 0.46871 0.55289 0.86591 0.0
H326 H 0.41058 0.49082 0.84292 0.0
C327 C 0.93967 0.15136 0.71739 0.0
C328 C 0.95061 0.10913 0.71932 0.0
C329 C 0.90313 0.14849 0.70467 0.0
C330 C 0.78212 0.05379 0.68141 0.0
H331 H 0.81585 0.16571 0.6486 0.0
C332 C 0.63037 0.02533 0.62752 0.0
C333 C 0.62744 0.06974 0.62156 0.0
C334 C 0.67145 0.03217 0.63896 0.0
C335 C 0.80537 0.1345 0.65783 0.0
H336 H 0.93202 0.03094 0.7093 0.0
H337 H 0.86643 0.02516 0.68735 0.0
H338 H 0.88527 0.1737 0.6692 0.0
H339 H 0.66557 0.15642 0.62288 0.0
H340 H 0.73647 0.16861 0.64371 0.0
H341 H 0.70198 0.01556 0.67089 0.0
C342 C 0.88696 0.06073 0.69561 0.0
C343 C 0.84534 0.13892 0.66952 0.0
C344 C 0.92451 0.06411 0.70811 0.0
C345 C 0.66683 0.12147 0.6273 0.0
C346 C 0.70763 0.12834 0.63913 0.0
C347 C 0.74195 0.04986 0.67002 0.0
C348 C 0.87588 0.10286 0.69383 0.0
C349 C 0.83413 0.09829 0.68128 0.0
C350 C 0.71034 0.08362 0.64518 0.0
C351 C 0.75305 0.08975 0.65788 0.0
H352 H 0.95928 0.18674 0.72575 0.0
H353 H 0.89501 0.1813 0.70362 0.0
H354 H 0.77223 0.02246 0.69059 0.0
H355 H 0.6013 0.98492 0.62308 0.0
H356 H 0.67285 0.99679 0.64275 0.0
C357 C 1.00637 0.00747 0.03265 0.0
C358 C 0.9894 0.02175 0.0474 0.0
C359 C 0.96861 0.97023 0.02072 0.0
C360 C 0.82522 0.86389 0.01434 0.0
H361 H 0.85454 0.89888 0.96661 0.0
C362 C 0.67553 0.73549 0.9585 0.0
C363 C 0.69954 0.722 0.94542 0.0
C364 C 0.70757 0.77489 0.97102 0.0
C365 C 0.84578 0.88847 0.97988 0.0
H366 H 0.92089 1.0041 0.06248 0.0
H367 H 0.85453 0.93956 0.04157 0.0
H368 H 0.91793 0.95844 0.98883 0.0
H369 H 0.77554 0.74066 0.93475 0.0
H370 H 0.83079 0.80889 0.9563 0.0
H371 H 0.75323 0.79329 1.00523 0.0
C372 C 0.89672 0.95753 0.03895 0.0
C373 C 0.88228 0.92249 0.99264 0.0
C374 C 0.93457 0.99498 0.05082 0.0
C375 C 0.75578 0.74996 0.9447 0.0
C376 C 0.78754 0.78943 0.95701 0.0
C377 C 0.78861 0.82974 1.00153 0.0
C378 C 0.9132 0.9459 0.02349 0.0
C379 C 0.873 0.91023 0.01003 0.0
C380 C 0.76399 0.80189 0.97046 0.0
C381 C 0.79902 0.84117 0.98414 0.0
H382 H 0.04869 0.02657 0.03004 0.0
H383 H 0.98285 0.96099 0.00922 0.0
H384 H 0.81688 0.85302 0.0276 0.0
H385 H 0.63227 0.71439 0.9594 0.0
H386 H 0.68831 0.78391 0.9812 0.0
C387 C 0.06495 0.01533 0.36353 0.0
C388 C 0.02135 0.01095 0.37247 0.0
C389 C 0.05654 0.97949 0.34995 0.0
C390 C 0.02547 0.91583 0.3161 0.0
H391 H 0.9205 0.76517 0.32095 0.0
C392 C 0.98113 0.76228 0.26143 0.0
C393 C 0.97984 0.71463 0.26618 0.0
C394 C 0.97898 0.79651 0.27381 0.0
C395 C 0.95003 0.80706 0.3194 0.0
H396 H 0.9346 0.96613 0.37394 0.0
H397 H 0.91996 0.90425 0.35019 0.0
H398 H 0.93379 0.82981 0.34369 0.0
H399 H 0.97168 0.66398 0.28762 0.0
H400 H 0.9682 0.72371 0.30918 0.0
H401 H 0.04301 0.89293 0.29209 0.0
C402 C 0.96073 0.93475 0.35381 0.0
C403 C 0.9573 0.84426 0.33237 0.0
C404 C 0.96914 0.97053 0.36736 0.0
C405 C 0.97276 0.70032 0.28348 0.0
C406 C 0.97069 0.73463 0.29587 0.0
C407 C 0.01817 0.87867 0.30314 0.0
C408 C 1.00433 0.93845 0.34501 0.0
C409 C 0.99541 0.89909 0.33095 0.0
C410 C 0.97549 0.78398 0.29126 0.0
C411 C 0.98061 0.82373 0.30465 0.0
H412 H 0.10568 0.04589 0.36718 0.0
H413 H 0.09112 0.98318 0.34359 0.0
H414 H 0.05473 0.95777 0.31448 0.0
H415 H 0.98619 0.77443 0.24821 0.0
H416 H 0.98152 0.83358 0.26975 0.0
C417 C 0.18225 0.10999 0.70058 0.0
C418 C 0.14158 0.06685 0.70923 0.0
C419 C 0.20823 0.10062 0.68722 0.0
C420 C 0.23556 0.06865 0.65331 0.0
H421 H 0.27196 0.95629 0.65752 0.0
C422 C 0.32656 0.01374 0.59741 0.0
C423 C 0.37094 0.00744 0.60153 0.0
C424 C 0.29455 0.0154 0.61026 0.0
C425 C 0.26226 0.98794 0.65615 0.0
H426 H 0.09596 0.97998 0.7105 0.0
H427 H 0.14069 0.96371 0.68715 0.0
H428 H 0.2264 0.9729 0.68061 0.0
H429 H 0.41458 0.99497 0.6224 0.0
H430 H 0.35895 0.99815 0.64481 0.0
H431 H 0.2727 0.08475 0.62909 0.0
C432 C 0.15318 1.00482 0.69082 0.0
C433 C 0.23563 0.99714 0.66933 0.0
C434 C 0.12725 0.01418 0.70415 0.0
C435 C 0.38065 0.99974 0.61874 0.0
C436 C 0.34866 1.00153 0.63161 0.0
C437 C 0.26212 0.05944 0.64014 0.0
C438 C 0.19414 0.04789 0.6822 0.0
C439 C 0.22209 0.03775 0.6681 0.0
C440 C 0.30611 0.01091 0.62758 0.0
C441 C 0.27595 0.01904 0.64139 0.0
H442 H 0.19436 0.15104 0.70421 0.0
H443 H 0.24002 0.13479 0.68101 0.0
H444 H 0.22528 0.09986 0.65183 0.0
H445 H 0.31763 0.01941 0.58428 0.0
H446 H 0.26136 0.02142 0.60663 0.0
C447 C 0.17012 0.24516 0.0249 0.0
C448 C 0.17736 0.23201 0.04167 0.0
C449 C 0.21395 0.27315 0.01452 0.0
C450 C 0.35941 0.31492 0.01103 0.0
H451 H 0.35267 0.40779 0.97659 0.0
C452 C 0.5377 0.47838 0.97267 0.0
C453 C 0.52811 0.47615 0.95483 0.0
C454 C 0.49714 0.44351 0.98333 0.0
C455 C 0.35488 0.38165 0.98608 0.0
H456 H 0.23695 0.23965 0.06084 0.0
H457 H 0.31374 0.29108 0.04311 0.0
H458 H 0.27852 0.36142 0.99559 0.0
H459 H 0.46931 0.4331 0.93415 0.0
H460 H 0.39825 0.37355 0.95284 0.0
H461 H 0.43763 0.33819 1.00184 0.0
C462 C 0.27394 0.27789 0.03766 0.0
C463 C 0.31218 0.35467 0.99695 0.0
C464 C 0.22984 0.24876 0.04794 0.0
C465 C 0.47812 0.43614 0.94782 0.0
C466 C 0.43729 0.40213 0.9585 0.0
C467 C 0.40275 0.34301 1.00037 0.0
C468 C 0.26665 0.29017 0.02072 0.0
C469 C 0.3134 0.32036 0.0095 0.0
C470 C 0.44601 0.40647 0.97637 0.0
C471 C 0.40053 0.37615 0.98769 0.0
H472 H 0.13035 0.23279 0.01958 0.0
H473 H 0.20607 0.28047 1.00148 0.0
H474 H 0.36183 0.28836 0.02028 0.0
H475 H 0.57578 0.50864 0.97847 0.0
H476 H 0.50476 0.4476 0.99708 0.0
C477 C 0.08937 0.29754 0.38936 0.0
C478 C 0.05658 0.2413 0.38772 0.0
C479 C 0.08947 0.33083 0.37645 0.0
C480 C 1.00922 0.33615 0.33986 0.0
H481 H 0.14524 0.45365 0.32566 0.0
C482 C 0.01961 0.45688 0.28068 0.0
C483 C 0.05416 0.51283 0.28137 0.0
C484 C 0.02214 0.4247 0.29349 0.0
C485 C 0.10689 0.4215 0.32961 0.0
H486 H 0.99758 0.17632 0.37114 0.0
H487 H 0.99746 0.23473 0.34862 0.0
H488 H 0.14404 0.39519 0.34833 0.0
H489 H 0.11958 0.5788 0.29587 0.0
H490 H 0.12349 0.52245 0.3186 0.0
H491 H 0.97186 0.36258 0.3214 0.0
C492 C 0.02304 0.25285 0.35999 0.0
C493 C 0.1062 0.38789 0.34258 0.0
C494 C 0.02321 0.21937 0.37289 0.0
C495 C 0.0925 0.53579 0.29498 0.0
C496 C 0.09476 0.50344 0.30796 0.0
C497 C 1.00987 0.36988 0.327 0.0
C498 C 0.05655 0.30895 0.36158 0.0
C499 C 0.05735 0.34468 0.3478 0.0
C500 C 0.05893 0.44752 0.30749 0.0
C501 C 0.05871 0.41279 0.32159 0.0
H502 H 0.11576 0.3161 0.40055 0.0
H503 H 0.11517 0.37388 0.37818 0.0
H504 H 0.97091 0.30382 0.34379 0.0
H505 H 0.99007 0.4377 0.27025 0.0
H506 H 0.99495 0.38175 0.2924 0.0
loop_
_geom_bond_atom_site_label_1
_geom_bond_atom_site_label_2
_geom_bond_distance
_geom_bond_site_symmetry_2
_ccdc_geom_bond_type
Mn0 O5 2.095 . S
Mn0 O15 2.162 . S
Mn0 O16 2.297 . S
Mn0 O24 2.385 . S
Mn0 O25 2.209 . S
Mn0 O26 2.094 . S
Mn1 O6 2.121 . S
Mn1 N8 2.257 1_455 S
Mn1 N17 2.282 . S
Mn1 O25 2.215 . S
Mn1 O27 2.117 . S
C2 O24 1.234 . S
C2 O25 1.283 . S
C3 O15 1.281 . S
C3 O16 1.236 . S
C4 O26 1.240 . S
C4 O27 1.264 . S
O5 Mn0 2.095 . S
O5 C14 1.250 . S
O6 Mn1 2.121 . S
O6 C14 1.258 . S
C7 N8 1.326 . S
C7 C11 1.460 . S
C7 H13 0.929 . S
N8 Mn1 2.257 1_655 S
N8 C7 1.326 . S
N8 C12 1.362 . S
C9 C10 1.258 . S
C9 C12 1.431 . S
C9 C29 1.449 . S
C10 C9 1.258 . S
C10 C11 1.477 . S
C10 H30 0.931 . S
C11 C7 1.460 . S
C11 C10 1.477 . S
C11 H31 0.930 . S
C12 N8 1.362 . S
C12 C9 1.431 . S
C12 C22 1.476 . S
H13 C7 0.929 . S
C14 O5 1.250 . S
C14 O6 1.258 . S
O15 Mn0 2.162 . S
O15 C3 1.281 . S
O16 Mn0 2.297 . S
O16 C3 1.236 . S
N17 Mn1 2.282 . S
N17 C18 1.328 . S
N17 C22 1.318 1_455 S
C18 N17 1.328 . S
C18 C19 1.457 1_554 S
C18 H23 0.929 . S
C19 C18 1.457 1_556 S
C19 C20 1.291 1_455 S
C19 H32 0.931 . S
C20 C19 1.291 1_655 S
C20 C21 1.373 1_556 S
C20 H33 0.929 . S
C21 C20 1.373 1_554 S
C21 C22 1.396 . S
C21 C28 1.409 . S
C22 C12 1.476 . S
C22 N17 1.318 1_655 S
C22 C21 1.396 . S
H23 C18 0.929 . S
O24 Mn0 2.385 . S
O24 C2 1.234 . S
O25 Mn0 2.209 . S
O25 Mn1 2.215 . S
O25 C2 1.283 . S
O26 Mn0 2.094 . S
O26 C4 1.240 . S
O27 Mn1 2.117 . S
O27 C4 1.264 . S
C28 C21 1.409 . S
C28 C29 1.425 . S
C28 H34 0.897 1_554 S
C29 C9 1.449 . S
C29 C28 1.425 . S
C29 H35 0.930 . S
H30 C10 0.931 . S
H31 C11 0.930 . S
H32 C19 0.931 . S
H33 C20 0.929 . S
H34 C28 0.897 1_556 S
H35 C29 0.930 . S
Mn36 O41 2.095 . S
Mn36 O51 2.162 1_445 S
Mn36 O52 2.297 . S
Mn36 O60 2.385 . S
Mn36 O61 2.209 . S
Mn36 O62 2.094 1_455 S
Mn37 O42 2.121 . S
Mn37 N44 2.257 . S
Mn37 N53 2.282 . S
Mn37 O61 2.215 . S
Mn37 O63 2.117 1_455 S
C38 O60 1.234 . S
C38 O61 1.283 . S
C39 O51 1.281 1_455 S
C39 O52 1.236 1_565 S
C40 O62 1.240 . S
C40 O63 1.264 . S
O41 Mn36 2.095 . S
O41 C50 1.250 . S
O42 Mn37 2.121 . S
O42 C50 1.258 . S
C43 N44 1.326 . S
C43 C47 1.460 . S
C43 H49 0.929 . S
N44 Mn37 2.257 . S
N44 C43 1.326 . S
N44 C48 1.362 . S
C45 C46 1.258 . S
C45 C48 1.431 . S
C45 C65 1.449 . S
C46 C45 1.258 . S
C46 C47 1.477 . S
C46 H66 0.931 . S
C47 C43 1.460 . S
C47 C46 1.477 . S
C47 H67 0.930 . S
C48 N44 1.362 . S
C48 C45 1.431 . S
C48 C58 1.476 . S
H49 C43 0.929 . S
C50 O41 1.250 . S
C50 O42 1.258 . S
O51 Mn36 2.162 1_665 S
O51 C39 1.281 1_655 S
O52 Mn36 2.297 . S
O52 C39 1.236 1_545 S
N53 Mn37 2.282 . S
N53 C54 1.328 . S
N53 C58 1.318 . S
C54 N53 1.328 . S
C54 C55 1.457 . S
C54 H59 0.929 . S
C55 C54 1.457 . S
C55 C56 1.291 . S
C55 H68 0.931 . S
C56 C55 1.291 . S
C56 C57 1.373 . S
C56 H69 0.929 . S
C57 C56 1.373 . S
C57 C58 1.396 . S
C57 C64 1.403 . S
C58 C48 1.476 . S
C58 N53 1.318 . S
C58 C57 1.396 . S
H59 C54 0.929 . S
O60 Mn36 2.385 . S
O60 C38 1.234 . S
O61 Mn36 2.209 . S
O61 Mn37 2.215 . S
O61 C38 1.283 . S
O62 Mn36 2.094 1_655 S
O62 C40 1.240 . S
O63 Mn37 2.117 1_655 S
O63 C40 1.264 . S
C64 C57 1.403 . S
C64 C65 1.399 . S
C64 H70 0.929 . S
C65 C45 1.449 . S
C65 C64 1.399 . S
C65 H71 0.930 . S
H66 C46 0.931 . S
H67 C47 0.930 . S
H68 C55 0.931 . S
H69 C56 0.929 . S
H70 C64 0.929 . S
H71 C65 0.930 . S
Mn72 O77 2.095 1_455 S
Mn72 O87 2.162 . S
Mn72 O88 2.297 . S
Mn72 O96 2.385 . S
Mn72 O97 2.209 . S
Mn72 O98 2.094 . S
Mn73 O78 2.121 . S
Mn73 N80 2.257 1_655 S
Mn73 N89 2.282 1_655 S
Mn73 O97 2.215 1_655 S
Mn73 O99 2.117 . S
C74 O96 1.234 . S
C74 O97 1.283 . S
C75 O87 1.281 . S
C75 O88 1.236 . S
C76 O98 1.240 1_655 S
C76 O99 1.264 . S
O77 Mn72 2.095 1_655 S
O77 C86 1.250 . S
O78 Mn73 2.121 . S
O78 C86 1.258 . S
C79 N80 1.326 . S
C79 C83 1.460 . S
C79 H85 0.929 1_455 S
N80 Mn73 2.257 1_455 S
N80 C79 1.326 . S
N80 C84 1.362 . S
C81 C82 1.258 . S
C81 C84 1.431 . S
C81 C101 1.449 . S
C82 C81 1.258 . S
C82 C83 1.477 . S
C82 H102 0.931 . S
C83 C79 1.460 . S
C83 C82 1.477 . S
C83 H103 0.930 . S
C84 N80 1.362 . S
C84 C81 1.431 . S
C84 C94 1.476 . S
H85 C79 0.929 1_655 S
C86 O77 1.250 . S
C86 O78 1.258 . S
O87 Mn72 2.162 . S
O87 C75 1.281 . S
O88 Mn72 2.297 . S
O88 C75 1.236 . S
N89 Mn73 2.282 1_455 S
N89 C90 1.328 . S
N89 C94 1.318 . S
C90 N89 1.328 . S
C90 C91 1.457 . S
C90 H95 0.929 . S
C91 C90 1.457 . S
C91 C92 1.291 . S
C91 H104 0.931 . S
C92 C91 1.291 . S
C92 C93 1.373 . S
C92 H105 0.929 . S
C93 C92 1.373 . S
C93 C94 1.396 . S
C93 C100 1.403 . S
C94 C84 1.476 . S
C94 N89 1.318 . S
C94 C93 1.396 . S
H95 C90 0.929 . S
O96 Mn72 2.385 . S
O96 C74 1.234 . S
O97 Mn72 2.209 . S
O97 Mn73 2.215 1_455 S
O97 C74 1.283 . S
O98 Mn72 2.094 . S
O98 C76 1.240 1_455 S
O99 Mn73 2.117 . S
O99 C76 1.264 . S
C100 C93 1.403 . S
C100 C101 1.399 . S
C100 H106 0.929 . S
C101 C81 1.449 . S
C101 C100 1.399 . S
C101 H107 0.930 . S
H102 C82 0.931 . S
H103 C83 0.930 . S
H104 C91 0.931 . S
H105 C92 0.929 . S
H106 C100 0.929 . S
H107 C101 0.930 . S
Mg108 O115 2.141 . S
Mg108 O116 2.048 . S
Mg108 O117 2.048 . S
Mg108 O120 2.141 . S
C109 O110 1.313 1_455 S
C109 O116 1.195 . S
O110 C109 1.313 1_655 S
C111 O112 1.245 1_455 S
C111 O120 1.289 . S
O112 C111 1.245 1_655 S
C113 O114 1.245 1_455 S
C113 O115 1.289 . S
O114 C113 1.245 1_655 S
O115 Mg108 2.141 . S
O115 C113 1.289 . S
O116 Mg108 2.048 . S
O116 C109 1.195 . S
O117 Mg108 2.048 . S
O117 C118 1.195 . S
C118 O117 1.195 . S
C118 O119 1.313 1_455 S
O119 C118 1.313 1_655 S
O120 Mg108 2.141 . S
O120 C111 1.289 . S
Mg121 O128 2.141 . S
Mg121 O129 2.048 . S
Mg121 O130 2.048 . S
Mg121 O133 2.141 . S
C122 O123 1.313 . S
C122 O129 1.195 . S
O123 C122 1.313 . S
C124 O125 1.245 . S
C124 O133 1.289 . S
O125 C124 1.245 . S
C126 O127 1.245 . S
C126 O128 1.289 . S
O127 C126 1.245 . S
O128 Mg121 2.141 . S
O128 C126 1.289 . S
O129 Mg121 2.048 . S
O129 C122 1.195 . S
O130 Mg121 2.048 . S
O130 C131 1.195 . S
C131 O130 1.195 . S
C131 O132 1.313 . S
O132 C131 1.313 . S
O133 Mg121 2.141 . S
O133 C124 1.289 . S
Mg134 O141 2.141 . S
Mg134 O142 2.048 . S
Mg134 O143 2.048 . S
Mg134 O146 2.141 . S
C135 O136 1.313 . S
C135 O142 1.195 . S
O136 C135 1.313 . S
C137 O138 1.245 . S
C137 O146 1.289 . S
O138 C137 1.245 . S
C139 O140 1.245 . S
C139 O141 1.289 . S
O140 C139 1.245 . S
O141 Mg134 2.141 . S
O141 C139 1.289 . S
O142 Mg134 2.048 . S
O142 C135 1.195 . S
O143 Mg134 2.048 . S
O143 C144 1.195 . S
C144 O143 1.195 . S
C144 O145 1.313 . S
O145 C144 1.313 . S
O146 Mg134 2.141 . S
O146 C137 1.289 . S
C147 C148 1.349 . S
C147 C149 1.327 . S
C147 H172 0.950 . S
C148 C147 1.349 . S
C148 C164 1.349 . S
C149 C147 1.327 . S
C149 C168 1.429 . S
C149 H173 0.950 . S
C150 C167 1.574 . S
C150 C169 1.368 . S
C150 H174 0.949 . S
H151 C155 0.949 . S
C152 C153 1.349 . S
C152 C154 1.327 . S
C152 H175 0.950 . S
C153 C152 1.349 . S
C153 C165 1.349 . S
C154 C152 1.327 . S
C154 C170 1.429 . S
C154 H176 0.950 . S
C155 H151 0.949 . S
C155 C163 1.574 . S
C155 C171 1.368 . S
H156 C164 0.950 . S
H157 C162 0.950 . S
H158 C163 0.949 . S
H159 C165 0.950 . S
H160 C166 0.950 . S
H161 C167 0.949 . S
C162 H157 0.950 . S
C162 C164 1.327 . S
C162 C168 1.429 . S
C163 C155 1.574 . S
C163 H158 0.949 . S
C163 C169 1.368 . S
C164 C148 1.349 . S
C164 H156 0.950 . S
C164 C162 1.327 . S
C165 C153 1.349 . S
C165 H159 0.950 . S
C165 C166 1.327 . S
C166 H160 0.950 . S
C166 C165 1.327 . S
C166 C170 1.429 . S
C167 C150 1.574 . S
C167 H161 0.949 . S
C167 C171 1.368 . S
C168 C149 1.429 . S
C168 C162 1.429 . S
C168 C169 1.523 . S
C169 C150 1.368 . S
C169 C163 1.368 . S
C169 C168 1.523 . S
C170 C154 1.429 . S
C170 C166 1.429 . S
C170 C171 1.523 . S
C171 C155 1.368 . S
C171 C167 1.368 . S
C171 C170 1.523 . S
H172 C147 0.950 . S
H173 C149 0.950 . S
H174 C150 0.949 . S
H175 C152 0.950 . S
H176 C154 0.950 . S
C177 C178 1.349 . S
C177 C179 1.327 . S
C177 H202 0.950 . S
C178 C177 1.349 . S
C178 C194 1.349 . S
C179 C177 1.327 . S
C179 C198 1.429 . S
C179 H203 0.950 . S
C180 C197 1.574 . S
C180 C199 1.368 . S
C180 H204 0.949 . S
H181 C185 0.949 . S
C182 C183 1.349 . S
C182 C184 1.327 . S
C182 H205 0.950 . S
C183 C182 1.349 . S
C183 C195 1.349 . S
C184 C182 1.327 . S
C184 C200 1.429 . S
C184 H206 0.950 . S
C185 H181 0.949 . S
C185 C193 1.574 . S
C185 C201 1.368 . S
H186 C194 0.950 . S
H187 C192 0.950 . S
H188 C193 0.949 . S
H189 C195 0.950 . S
H190 C196 0.950 . S
H191 C197 0.949 . S
C192 H187 0.950 . S
C192 C194 1.327 . S
C192 C198 1.429 . S
C193 C185 1.574 . S
C193 H188 0.949 . S
C193 C199 1.368 . S
C194 C178 1.349 . S
C194 H186 0.950 . S
C194 C192 1.327 . S
C195 C183 1.349 . S
C195 H189 0.950 . S
C195 C196 1.327 . S
C196 H190 0.950 . S
C196 C195 1.327 . S
C196 C200 1.429 . S
C197 C180 1.574 . S
C197 H191 0.949 . S
C197 C201 1.368 . S
C198 C179 1.429 . S
C198 C192 1.429 . S
C198 C199 1.523 . S
C199 C180 1.368 . S
C199 C193 1.368 . S
C199 C198 1.523 . S
C200 C184 1.429 . S
C200 C196 1.429 . S
C200 C201 1.523 . S
C201 C185 1.368 . S
C201 C197 1.368 . S
C201 C200 1.523 . S
H202 C177 0.950 . S
H203 C179 0.950 . S
H204 C180 0.949 . S
H205 C182 0.950 . S
H206 C184 0.950 . S
C207 C208 1.349 . S
C207 C209 1.327 . S
C207 H232 0.950 1_565 S
C208 C207 1.349 . S
C208 C224 1.349 . S
C209 C207 1.327 . S
C209 C228 1.429 . S
C209 H233 0.950 . S
C210 C227 1.574 . S
C210 C229 1.368 . S
C210 H234 0.949 . S
H211 C215 0.949 . S
C212 C213 1.349 . S
C212 C214 1.327 . S
C212 H235 0.950 . S
C213 C212 1.349 . S
C213 C225 1.349 . S
C214 C212 1.327 . S
C214 C230 1.429 . S
C214 H236 0.950 . S
C215 H211 0.949 . S
C215 C223 1.574 . S
C215 C231 1.368 . S
H216 C224 0.950 . S
H217 C222 0.950 . S
H218 C223 0.949 . S
H219 C225 0.950 . S
H220 C226 0.950 . S
H221 C227 0.949 . S
C222 H217 0.950 . S
C222 C224 1.327 . S
C222 C228 1.429 . S
C223 C215 1.574 . S
C223 H218 0.949 . S
C223 C229 1.368 . S
C224 C208 1.349 . S
C224 H216 0.950 . S
C224 C222 1.327 . S
C225 C213 1.349 . S
C225 H219 0.950 . S
C225 C226 1.327 . S
C226 H220 0.950 . S
C226 C225 1.327 . S
C226 C230 1.429 . S
C227 C210 1.574 . S
C227 H221 0.949 . S
C227 C231 1.368 . S
C228 C209 1.429 . S
C228 C222 1.429 . S
C228 C229 1.523 . S
C229 C210 1.368 . S
C229 C223 1.368 . S
C229 C228 1.523 . S
C230 C214 1.429 . S
C230 C226 1.429 . S
C230 C231 1.523 . S
C231 C215 1.368 . S
C231 C227 1.368 . S
C231 C230 1.523 . S
H232 C207 0.950 1_545 S
H233 C209 0.950 . S
H234 C210 0.949 . S
H235 C212 0.950 . S
H236 C214 0.950 . S
C237 C238 1.349 1_545 S
C237 C239 1.327 1_545 S
C237 H262 0.950 . S
C238 C237 1.349 1_565 S
C238 C254 1.349 . S
C239 C237 1.327 1_565 S
C239 C258 1.429 . S
C239 H263 0.950 . S
C240 C257 1.574 . S
C240 C259 1.368 . S
C240 H264 0.949 . S
H241 C245 0.949 . S
C242 C243 1.349 . S
C242 C244 1.327 . S
C242 H265 0.950 . S
C243 C242 1.349 . S
C243 C255 1.349 . S
C244 C242 1.327 . S
C244 C260 1.429 . S
C244 H266 0.950 . S
C245 H241 0.949 . S
C245 C253 1.574 . S
C245 C261 1.368 . S
H246 C254 0.950 . S
H247 C252 0.950 . S
H248 C253 0.949 . S
H249 C255 0.950 . S
H250 C256 0.950 . S
H251 C257 0.949 . S
C252 H247 0.950 . S
C252 C254 1.327 . S
C252 C258 1.429 . S
C253 C245 1.574 . S
C253 H248 0.949 . S
C253 C259 1.368 . S
C254 C238 1.349 . S
C254 H246 0.950 . S
C254 C252 1.327 . S
C255 C243 1.349 . S
C255 H249 0.950 . S
C255 C256 1.327 . S
C256 H250 0.950 . S
C256 C255 1.327 . S
C256 C260 1.429 . S
C257 C240 1.574 . S
C257 H251 0.949 . S
C257 C261 1.368 . S
C258 C239 1.429 . S
C258 C252 1.429 . S
C258 C259 1.523 . S
C259 C240 1.368 . S
C259 C253 1.368 . S
C259 C258 1.523 . S
C260 C244 1.429 . S
C260 C256 1.429 . S
C260 C261 1.523 . S
C261 C245 1.368 . S
C261 C257 1.368 . S
C261 C260 1.523 . S
H262 C237 0.950 . S
H263 C239 0.950 . S
H264 C240 0.949 . S
H265 C242 0.950 . S
H266 C244 0.950 . S
C267 C268 1.349 . S
C267 C269 1.327 . S
C267 H292 0.950 . S
C268 C267 1.349 . S
C268 C284 1.349 . S
C269 C267 1.327 . S
C269 C288 1.429 . S
C269 H293 0.950 . S
C270 C287 1.574 . S
C270 C289 1.368 . S
C270 H294 0.949 . S
H271 C275 0.949 . S
C272 C273 1.349 . S
C272 C274 1.327 . S
C272 H295 0.950 . S
C273 C272 1.349 . S
C273 C285 1.349 . S
C274 C272 1.327 . S
C274 C290 1.429 . S
C274 H296 0.950 . S
C275 H271 0.949 . S
C275 C283 1.574 . S
C275 C291 1.368 . S
H276 C284 0.950 . S
H277 C282 0.950 . S
H278 C283 0.949 . S
H279 C285 0.950 . S
H280 C286 0.950 . S
H281 C287 0.949 . S
C282 H277 0.950 . S
C282 C284 1.327 . S
C282 C288 1.429 . S
C283 C275 1.574 . S
C283 H278 0.949 . S
C283 C289 1.368 . S
C284 C268 1.349 . S
C284 H276 0.950 . S
C284 C282 1.327 . S
C285 C273 1.349 . S
C285 H279 0.950 . S
C285 C286 1.327 . S
C286 H280 0.950 . S
C286 C285 1.327 . S
C286 C290 1.429 . S
C287 C270 1.574 . S
C287 H281 0.949 . S
C287 C291 1.368 . S
C288 C269 1.429 . S
C288 C282 1.429 . S
C288 C289 1.523 . S
C289 C270 1.368 . S
C289 C283 1.368 . S
C289 C288 1.523 . S
C290 C274 1.429 . S
C290 C286 1.429 . S
C290 C291 1.523 . S
C291 C275 1.368 . S
C291 C287 1.368 . S
C291 C290 1.523 . S
H292 C267 0.950 . S
H293 C269 0.950 . S
H294 C270 0.949 . S
H295 C272 0.950 . S
H296 C274 0.950 . S
C297 C298 1.349 . S
C297 C299 1.327 . S
C297 H322 0.950 . S
C298 C297 1.349 . S
C298 C314 1.349 . S
C299 C297 1.327 . S
C299 C318 1.429 . S
C299 H323 0.950 . S
C300 C317 1.574 . S
C300 C319 1.368 . S
C300 H324 0.949 . S
H301 C305 0.949 . S
C302 C303 1.349 . S
C302 C304 1.327 . S
C302 H325 0.950 . S
C303 C302 1.349 . S
C303 C315 1.349 . S
C304 C302 1.327 . S
C304 C320 1.429 . S
C304 H326 0.950 . S
C305 H301 0.949 . S
C305 C313 1.574 . S
C305 C321 1.368 . S
H306 C314 0.950 . S
H307 C312 0.950 . S
H308 C313 0.949 . S
H309 C315 0.950 . S
H310 C316 0.950 . S
H311 C317 0.949 . S
C312 H307 0.950 . S
C312 C314 1.327 . S
C312 C318 1.429 . S
C313 C305 1.574 . S
C313 H308 0.949 . S
C313 C319 1.368 . S
C314 C298 1.349 . S
C314 H306 0.950 . S
C314 C312 1.327 . S
C315 C303 1.349 . S
C315 H309 0.950 . S
C315 C316 1.327 . S
C316 H310 0.950 . S
C316 C315 1.327 . S
C316 C320 1.429 . S
C317 C300 1.574 . S
C317 H311 0.949 . S
C317 C321 1.368 . S
C318 C299 1.429 . S
C318 C312 1.429 . S
C318 C319 1.523 . S
C319 C300 1.368 . S
C319 C313 1.368 . S
C319 C318 1.523 . S
C320 C304 1.429 . S
C320 C316 1.429 . S
C320 C321 1.523 . S
C321 C305 1.368 . S
C321 C317 1.368 . S
C321 C320 1.523 . S
H322 C297 0.950 . S
H323 C299 0.950 . S
H324 C300 0.949 . S
H325 C302 0.950 . S
H326 C304 0.950 . S
C327 C328 1.349 . S
C327 C329 1.327 . S
C327 H352 0.962 . S
C328 C327 1.349 . S
C328 C344 1.349 . S
C329 C327 1.327 . S
C329 C348 1.429 . S
C329 H353 0.950 . S
C330 C347 1.574 . S
C330 C349 1.368 . S
C330 H354 0.949 . S
H331 C335 0.949 . S
C332 C333 1.349 . S
C332 C334 1.327 . S
C332 H355 0.950 . S
C333 C332 1.349 . S
C333 C345 1.349 . S
C334 C332 1.327 . S
C334 C350 1.429 . S
C334 H356 0.950 . S
C335 H331 0.949 . S
C335 C343 1.574 . S
C335 C351 1.368 . S
H336 C344 0.950 . S
H337 C342 0.950 . S
H338 C343 0.949 . S
H339 C345 0.950 . S
H340 C346 0.950 . S
H341 C347 0.949 . S
C342 H337 0.950 . S
C342 C344 1.327 . S
C342 C348 1.429 . S
C343 C335 1.574 . S
C343 H338 0.949 . S
C343 C349 1.368 . S
C344 C328 1.349 . S
C344 H336 0.950 . S
C344 C342 1.327 . S
C345 C333 1.349 . S
C345 H339 0.950 . S
C345 C346 1.327 . S
C346 H340 0.950 . S
C346 C345 1.327 . S
C346 C350 1.429 . S
C347 C330 1.574 . S
C347 H341 0.949 . S
C347 C351 1.368 . S
C348 C329 1.429 . S
C348 C342 1.429 . S
C348 C349 1.523 . S
C349 C330 1.368 . S
C349 C343 1.368 . S
C349 C348 1.523 . S
C350 C334 1.429 . S
C350 C346 1.429 . S
C350 C351 1.523 . S
C351 C335 1.368 . S
C351 C347 1.368 . S
C351 C350 1.523 . S
H352 C327 0.962 . S
H353 C329 0.950 . S
H354 C330 0.949 . S
H355 C332 0.950 . S
H356 C334 0.950 . S
C357 C358 1.349 1_565 S
C357 C359 1.327 . S
C357 H382 0.950 1_665 S
C358 C357 1.349 1_545 S
C358 C374 1.349 1_545 S
C359 C357 1.327 . S
C359 C378 1.429 . S
C359 H383 0.950 . S
C360 C377 1.574 1_554 S
C360 C379 1.368 . S
C360 H384 0.949 . S
H361 C365 0.949 . S
C362 C363 1.349 . S
C362 C364 1.327 . S
C362 H385 0.950 . S
C363 C362 1.349 . S
C363 C375 1.349 . S
C364 C362 1.327 . S
C364 C380 1.429 . S
C364 H386 0.950 . S
C365 H361 0.949 . S
C365 C373 1.574 . S
C365 C381 1.368 . S
H366 C374 0.950 . S
H367 C372 0.950 . S
H368 C373 0.949 . S
H369 C375 0.950 . S
H370 C376 0.950 . S
H371 C377 0.949 . S
C372 H367 0.950 . S
C372 C374 1.327 . S
C372 C378 1.429 . S
C373 C365 1.574 . S
C373 H368 0.949 . S
C373 C379 1.368 1_556 S
C374 C358 1.349 1_565 S
C374 H366 0.950 . S
C374 C372 1.327 . S
C375 C363 1.349 . S
C375 H369 0.950 . S
C375 C376 1.327 . S
C376 H370 0.950 . S
C376 C375 1.327 . S
C376 C380 1.429 . S
C377 C360 1.574 1_556 S
C377 H371 0.949 . S
C377 C381 1.368 . S
C378 C359 1.429 . S
C378 C372 1.429 . S
C378 C379 1.523 . S
C379 C360 1.368 . S
C379 C373 1.368 1_554 S
C379 C378 1.523 . S
C380 C364 1.429 . S
C380 C376 1.429 . S
C380 C381 1.523 . S
C381 C365 1.368 . S
C381 C377 1.368 . S
C381 C380 1.523 . S
H382 C357 0.950 1_445 S
H383 C359 0.950 . S
H384 C360 0.949 . S
H385 C362 0.950 . S
H386 C364 0.950 . S
C387 C388 1.349 . S
C387 C389 1.327 . S
C387 H412 0.950 . S
C388 C387 1.349 . S
C388 C404 1.349 1_455 S
C389 C387 1.327 . S
C389 C408 1.429 . S
C389 H413 0.950 . S
C390 C407 1.574 . S
C390 C409 1.368 1_655 S
C390 H414 0.949 . S
H391 C395 0.949 . S
C392 C393 1.349 . S
C392 C394 1.327 1_455 S
C392 H415 0.950 1_455 S
C393 C392 1.349 . S
C393 C405 1.349 . S
C394 C392 1.327 1_655 S
C394 C410 1.429 1_655 S
C394 H416 0.950 . S
C395 H391 0.949 . S
C395 C403 1.574 . S
C395 C411 1.368 . S
H396 C404 0.950 . S
H397 C402 0.950 . S
H398 C403 0.949 . S
H399 C405 0.950 . S
H400 C406 0.950 . S
H401 C407 0.949 . S
C402 H397 0.950 . S
C402 C404 1.327 . S
C402 C408 1.429 1_655 S
C403 C395 1.574 . S
C403 H398 0.949 . S
C403 C409 1.368 . S
C404 C388 1.349 1_655 S
C404 H396 0.950 . S
C404 C402 1.327 . S
C405 C393 1.349 . S
C405 H399 0.950 . S
C405 C406 1.327 . S
C406 H400 0.950 . S
C406 C405 1.327 . S
C406 C410 1.429 . S
C407 C390 1.574 . S
C407 H401 0.949 . S
C407 C411 1.368 1_655 S
C408 C389 1.429 . S
C408 C402 1.429 1_455 S
C408 C409 1.523 . S
C409 C390 1.368 1_455 S
C409 C403 1.368 . S
C409 C408 1.523 . S
C410 C394 1.429 1_455 S
C410 C406 1.429 . S
C410 C411 1.523 . S
C411 C395 1.368 . S
C411 C407 1.368 1_455 S
C411 C410 1.523 . S
H412 C387 0.950 . S
H413 C389 0.950 . S
H414 C390 0.949 . S
H415 C392 0.950 1_655 S
H416 C394 0.950 . S
C417 C418 1.349 . S
C417 C419 1.327 . S
C417 H442 0.950 . S
C418 C417 1.349 . S
C418 C434 1.349 . S
C419 C417 1.327 . S
C419 C438 1.429 . S
C419 H443 0.950 . S
C420 C437 1.574 . S
C420 C439 1.368 . S
C420 H444 0.949 . S
H421 C425 0.949 . S
C422 C423 1.349 . S
C422 C424 1.327 . S
C422 H445 0.950 . S
C423 C422 1.349 . S
C423 C435 1.349 . S
C424 C422 1.327 . S
C424 C440 1.429 . S
C424 H446 0.950 . S
C425 H421 0.949 . S
C425 C433 1.574 . S
C425 C441 1.368 . S
H426 C434 0.950 . S
H427 C432 0.950 . S
H428 C433 0.949 . S
H429 C435 0.950 . S
H430 C436 0.950 . S
H431 C437 0.949 . S
C432 H427 0.950 . S
C432 C434 1.327 . S
C432 C438 1.429 . S
C433 C425 1.574 . S
C433 H428 0.949 . S
C433 C439 1.368 . S
C434 C418 1.349 . S
C434 H426 0.950 . S
C434 C432 1.327 . S
C435 C423 1.349 . S
C435 H429 0.950 . S
C435 C436 1.327 . S
C436 H430 0.950 . S
C436 C435 1.327 . S
C436 C440 1.429 . S
C437 C420 1.574 . S
C437 H431 0.949 . S
C437 C441 1.368 . S
C438 C419 1.429 . S
C438 C432 1.429 . S
C438 C439 1.523 . S
C439 C420 1.368 . S
C439 C433 1.368 . S
C439 C438 1.523 . S
C440 C424 1.429 . S
C440 C436 1.429 . S
C440 C441 1.523 . S
C441 C425 1.368 . S
C441 C437 1.368 . S
C441 C440 1.523 . S
H442 C417 0.950 . S
H443 C419 0.950 . S
H444 C420 0.949 . S
H445 C422 0.950 . S
H446 C424 0.950 . S
C447 C448 1.349 . S
C447 C449 1.327 . S
C447 H472 0.950 . S
C448 C447 1.349 . S
C448 C464 1.349 . S
C449 C447 1.327 . S
C449 C468 1.429 . S
C449 H473 0.928 1_554 S
C450 C467 1.574 1_554 S
C450 C469 1.368 . S
C450 H474 0.949 . S
H451 C455 0.949 . S
C452 C453 1.349 . S
C452 C454 1.327 . S
C452 H475 0.950 . S
C453 C452 1.349 . S
C453 C465 1.349 . S
C454 C452 1.327 . S
C454 C470 1.429 . S
C454 H476 0.950 . S
C455 H451 0.949 . S
C455 C463 1.574 . S
C455 C471 1.368 . S
H456 C464 0.950 . S
H457 C462 0.950 . S
H458 C463 0.949 . S
H459 C465 0.950 . S
H460 C466 0.950 . S
H461 C467 0.949 . S
C462 H457 0.950 . S
C462 C464 1.327 . S
C462 C468 1.429 . S
C463 C455 1.574 . S
C463 H458 0.949 . S
C463 C469 1.368 1_556 S
C464 C448 1.349 . S
C464 H456 0.950 . S
C464 C462 1.327 . S
C465 C453 1.349 . S
C465 H459 0.950 . S
C465 C466 1.327 . S
C466 H460 0.950 . S
C466 C465 1.327 . S
C466 C470 1.429 . S
C467 C450 1.574 1_556 S
C467 H461 0.949 . S
C467 C471 1.368 . S
C468 C449 1.429 . S
C468 C462 1.429 . S
C468 C469 1.523 . S
C469 C450 1.368 . S
C469 C463 1.368 1_554 S
C469 C468 1.523 . S
C470 C454 1.429 . S
C470 C466 1.429 . S
C470 C471 1.523 . S
C471 C455 1.368 . S
C471 C467 1.368 . S
C471 C470 1.523 . S
H472 C447 0.950 . S
H473 C449 0.928 1_556 S
H474 C450 0.949 . S
H475 C452 0.950 . S
H476 C454 0.950 . S
C477 C478 1.349 . S
C477 C479 1.327 . S
C477 H502 0.950 . S
C478 C477 1.349 . S
C478 C494 1.349 . S
C479 C477 1.327 . S
C479 C498 1.429 . S
C479 H503 0.950 . S
C480 C497 1.565 . S
C480 C499 1.393 . S
C480 H504 0.935 1_455 S
H481 C485 0.949 . S
C482 C483 1.349 . S
C482 C484 1.327 . S
C482 H505 0.950 1_455 S
C483 C482 1.349 . S
C483 C495 1.349 . S
C484 C482 1.327 . S
C484 C500 1.429 . S
C484 H506 0.950 1_455 S
C485 H481 0.949 . S
C485 C493 1.574 . S
C485 C501 1.368 . S
H486 C494 0.950 1_655 S
H487 C492 0.950 1_655 S
H488 C493 0.949 . S
H489 C495 0.950 . S
H490 C496 0.950 . S
H491 C497 0.949 1_655 S
C492 H487 0.950 1_455 S
C492 C494 1.327 . S
C492 C498 1.429 . S
C493 C485 1.574 . S
C493 H488 0.949 . S
C493 C499 1.368 . S
C494 C478 1.349 . S
C494 H486 0.950 1_455 S
C494 C492 1.327 . S
C495 C483 1.349 . S
C495 H489 0.950 . S
C495 C496 1.327 . S
C496 H490 0.950 . S
C496 C495 1.327 . S
C496 C500 1.429 . S
C497 C480 1.565 . S
C497 H491 0.949 1_455 S
C497 C501 1.368 . S
C498 C479 1.429 . S
C498 C492 1.429 . S
C498 C499 1.523 . S
C499 C480 1.393 . S
C499 C493 1.368 . S
C499 C498 1.523 . S
C500 C484 1.429 . S
C500 C496 1.429 . S
C500 C501 1.523 . S
C501 C485 1.368 . S
C501 C497 1.368 . S
C501 C500 1.523 . S
H502 C477 0.950 . S
H503 C479 0.950 . S
H504 C480 0.935 1_655 S
H505 C482 0.950 1_655 S
H506 C484 0.950 1_655 S
C153 C113 1.397 . S
C148 C14 1.376 . S
C178 C40 1.460 . S
C183 C131 1.468 . S
C208 C76 1.449 1_565 S
C213 C144 1.457 . S
C238 C3 1.361 1_565 S
C243 C111 1.356 . S
C273 C122 1.483 . S
C268 C38 1.473 . S
C298 C74 1.454 . S
C303 C135 1.466 . S
C333 C124 1.349 . S
C328 C86 1.330 . S
C358 C2 1.379 1_655 S
C363 C137 1.385 . S
C393 C118 1.429 . S
C388 C39 1.434 . S
C423 C126 1.357 . S
C418 C75 1.371 . S
C453 C139 1.377 . S
C448 C4 1.374 . S
C478 C50 1.447 . S
C483 C109 1.478 . S
