# Generated by pormake.
# Topology iac, (4,6)-cn, num edge types: 1
# Building blocks:
#     Node 0, Type 0, BuildingBlock: CEKHIL_clean_sbu_0, # of connection points: 4
#     Node 1, Type 0, BuildingBlock: CEKHIL_clean_sbu_0, # of connection points: 4
#     Node 2, Type 0, BuildingBlock: CEKHIL_clean_sbu_0, # of connection points: 4
#     Node 3, Type 0, BuildingBlock: CEKHIL_clean_sbu_0, # of connection points: 4
#     Node 4, Type 0, BuildingBlock: CEKHIL_clean_sbu_0, # of connection points: 4
#     Node 5, Type 0, BuildingBlock: CEKHIL_clean_sbu_0, # of connection points: 4
#     Node 6, Type 0, BuildingBlock: CEKHIL_clean_sbu_0, # of connection points: 4
#     Node 7, Type 0, BuildingBlock: CEKHIL_clean_sbu_0, # of connection points: 4
#     Node 8, Type 0, BuildingBlock: CEKHIL_clean_sbu_0, # of connection points: 4
#     Node 9, Type 0, BuildingBlock: CEKHIL_clean_sbu_0, # of connection points: 4
#     Node 10, Type 0, BuildingBlock: CEKHIL_clean_sbu_0, # of connection points: 4
#     Node 11, Type 0, BuildingBlock: CEKHIL_clean_sbu_0, # of connection points: 4
#     Node 12, Type 0, BuildingBlock: CEKHIL_clean_sbu_0, # of connection points: 4
#     Node 13, Type 0, BuildingBlock: CEKHIL_clean_sbu_0, # of connection points: 4
#     Node 14, Type 0, BuildingBlock: CEKHIL_clean_sbu_0, # of connection points: 4
#     Node 15, Type 0, BuildingBlock: CEKHIL_clean_sbu_0, # of connection points: 4
#     Node 16, Type 0, BuildingBlock: CEKHIL_clean_sbu_0, # of connection points: 4
#     Node 17, Type 0, BuildingBlock: CEKHIL_clean_sbu_0, # of connection points: 4
#     Node 18, Type 0, BuildingBlock: CEKHIL_clean_sbu_0, # of connection points: 4
#     Node 19, Type 0, BuildingBlock: CEKHIL_clean_sbu_0, # of connection points: 4
#     Node 20, Type 0, BuildingBlock: CEKHIL_clean_sbu_0, # of connection points: 4
#     Node 21, Type 0, BuildingBlock: CEKHIL_clean_sbu_0, # of connection points: 4
#     Node 22, Type 0, BuildingBlock: CEKHIL_clean_sbu_0, # of connection points: 4
#     Node 23, Type 0, BuildingBlock: CEKHIL_clean_sbu_0, # of connection points: 4
#     Node 24, Type 1, BuildingBlock: JUFBIX_clean_sbu_0, # of connection points: 6
#     Node 25, Type 1, BuildingBlock: JUFBIX_clean_sbu_0, # of connection points: 6
#     Node 26, Type 1, BuildingBlock: JUFBIX_clean_sbu_0, # of connection points: 6
#     Node 27, Type 1, BuildingBlock: JUFBIX_clean_sbu_0, # of connection points: 6
#     Node 28, Type 1, BuildingBlock: JUFBIX_clean_sbu_0, # of connection points: 6
#     Node 29, Type 1, BuildingBlock: JUFBIX_clean_sbu_0, # of connection points: 6
#     Node 30, Type 1, BuildingBlock: JUFBIX_clean_sbu_0, # of connection points: 6
#     Node 31, Type 1, BuildingBlock: JUFBIX_clean_sbu_0, # of connection points: 6
#     Node 32, Type 1, BuildingBlock: JUFBIX_clean_sbu_0, # of connection points: 6
#     Node 33, Type 1, BuildingBlock: JUFBIX_clean_sbu_0, # of connection points: 6
#     Node 34, Type 1, BuildingBlock: JUFBIX_clean_sbu_0, # of connection points: 6
#     Node 35, Type 1, BuildingBlock: JUFBIX_clean_sbu_0, # of connection points: 6
#     Node 36, Type 1, BuildingBlock: JUFBIX_clean_sbu_0, # of connection points: 6
#     Node 37, Type 1, BuildingBlock: JUFBIX_clean_sbu_0, # of connection points: 6
#     Node 38, Type 1, BuildingBlock: JUFBIX_clean_sbu_0, # of connection points: 6
#     Node 39, Type 1, BuildingBlock: JUFBIX_clean_sbu_0, # of connection points: 6
#     Edge 40, Type (0, 1), BuildingBlock: OJICUG_clean_linker_0, # of connection points: 2
#     Edge 41, Type (0, 1), BuildingBlock: OJICUG_clean_linker_0, # of connection points: 2
#     Edge 42, Type (0, 1), BuildingBlock: OJICUG_clean_linker_0, # of connection points: 2
#     Edge 43, Type (0, 1), BuildingBlock: OJICUG_clean_linker_0, # of connection points: 2
#     Edge 44, Type (0, 1), BuildingBlock: OJICUG_clean_linker_0, # of connection points: 2
#     Edge 45, Type (0, 1), BuildingBlock: OJICUG_clean_linker_0, # of connection points: 2
#     Edge 46, Type (0, 1), BuildingBlock: OJICUG_clean_linker_0, # of connection points: 2
#     Edge 47, Type (0, 1), BuildingBlock: OJICUG_clean_linker_0, # of connection points: 2
#     Edge 48, Type (0, 1), BuildingBlock: OJICUG_clean_linker_0, # of connection points: 2
#     Edge 49, Type (0, 1), BuildingBlock: OJICUG_clean_linker_0, # of connection points: 2
#     Edge 50, Type (0, 1), BuildingBlock: OJICUG_clean_linker_0, # of connection points: 2
#     Edge 51, Type (0, 1), BuildingBlock: OJICUG_clean_linker_0, # of connection points: 2
#     Edge 52, Type (0, 1), BuildingBlock: OJICUG_clean_linker_0, # of connection points: 2
#     Edge 53, Type (0, 1), BuildingBlock: OJICUG_clean_linker_0, # of connection points: 2
#     Edge 54, Type (0, 1), BuildingBlock: OJICUG_clean_linker_0, # of connection points: 2
#     Edge 55, Type (0, 1), BuildingBlock: OJICUG_clean_linker_0, # of connection points: 2
#     Edge 56, Type (0, 1), BuildingBlock: OJICUG_clean_linker_0, # of connection points: 2
#     Edge 57, Type (0, 1), BuildingBlock: OJICUG_clean_linker_0, # of connection points: 2
#     Edge 58, Type (0, 1), BuildingBlock: OJICUG_clean_linker_0, # of connection points: 2
#     Edge 59, Type (0, 1), BuildingBlock: OJICUG_clean_linker_0, # of connection points: 2
#     Edge 60, Type (0, 1), BuildingBlock: OJICUG_clean_linker_0, # of connection points: 2
#     Edge 61, Type (0, 1), BuildingBlock: OJICUG_clean_linker_0, # of connection points: 2
#     Edge 62, Type (0, 1), BuildingBlock: OJICUG_clean_linker_0, # of connection points: 2
#     Edge 63, Type (0, 1), BuildingBlock: OJICUG_clean_linker_0, # of connection points: 2
#     Edge 64, Type (0, 1), BuildingBlock: OJICUG_clean_linker_0, # of connection points: 2
#     Edge 65, Type (0, 1), BuildingBlock: OJICUG_clean_linker_0, # of connection points: 2
#     Edge 66, Type (0, 1), BuildingBlock: OJICUG_clean_linker_0, # of connection points: 2
#     Edge 67, Type (0, 1), BuildingBlock: OJICUG_clean_linker_0, # of connection points: 2
#     Edge 68, Type (0, 1), BuildingBlock: OJICUG_clean_linker_0, # of connection points: 2
#     Edge 69, Type (0, 1), BuildingBlock: OJICUG_clean_linker_0, # of connection points: 2
#     Edge 70, Type (0, 1), BuildingBlock: OJICUG_clean_linker_0, # of connection points: 2
#     Edge 71, Type (0, 1), BuildingBlock: OJICUG_clean_linker_0, # of connection points: 2
#     Edge 72, Type (0, 1), BuildingBlock: OJICUG_clean_linker_0, # of connection points: 2
#     Edge 73, Type (0, 1), BuildingBlock: OJICUG_clean_linker_0, # of connection points: 2
#     Edge 74, Type (0, 1), BuildingBlock: OJICUG_clean_linker_0, # of connection points: 2
#     Edge 75, Type (0, 1), BuildingBlock: OJICUG_clean_linker_0, # of connection points: 2
#     Edge 76, Type (0, 1), BuildingBlock: OJICUG_clean_linker_0, # of connection points: 2
#     Edge 77, Type (0, 1), BuildingBlock: OJICUG_clean_linker_0, # of connection points: 2
#     Edge 78, Type (0, 1), BuildingBlock: OJICUG_clean_linker_0, # of connection points: 2
#     Edge 79, Type (0, 1), BuildingBlock: OJICUG_clean_linker_0, # of connection points: 2
#     Edge 80, Type (0, 1), BuildingBlock: OJICUG_clean_linker_0, # of connection points: 2
#     Edge 81, Type (0, 1), BuildingBlock: OJICUG_clean_linker_0, # of connection points: 2
#     Edge 82, Type (0, 1), BuildingBlock: OJICUG_clean_linker_0, # of connection points: 2
#     Edge 83, Type (0, 1), BuildingBlock: OJICUG_clean_linker_0, # of connection points: 2
#     Edge 84, Type (0, 1), BuildingBlock: OJICUG_clean_linker_0, # of connection points: 2
#     Edge 85, Type (0, 1), BuildingBlock: OJICUG_clean_linker_0, # of connection points: 2
#     Edge 86, Type (0, 1), BuildingBlock: OJICUG_clean_linker_0, # of connection points: 2
#     Edge 87, Type (0, 1), BuildingBlock: OJICUG_clean_linker_0, # of connection points: 2
#     Edge 88, Type (0, 1), BuildingBlock: OJICUG_clean_linker_0, # of connection points: 2
#     Edge 89, Type (0, 1), BuildingBlock: OJICUG_clean_linker_0, # of connection points: 2
#     Edge 90, Type (0, 1), BuildingBlock: OJICUG_clean_linker_0, # of connection points: 2
#     Edge 91, Type (0, 1), BuildingBlock: OJICUG_clean_linker_0, # of connection points: 2
#     Edge 92, Type (0, 1), BuildingBlock: OJICUG_clean_linker_0, # of connection points: 2
#     Edge 93, Type (0, 1), BuildingBlock: OJICUG_clean_linker_0, # of connection points: 2
#     Edge 94, Type (0, 1), BuildingBlock: OJICUG_clean_linker_0, # of connection points: 2
#     Edge 95, Type (0, 1), BuildingBlock: OJICUG_clean_linker_0, # of connection points: 2
#     Edge 96, Type (0, 1), BuildingBlock: OJICUG_clean_linker_0, # of connection points: 2
#     Edge 97, Type (0, 1), BuildingBlock: OJICUG_clean_linker_0, # of connection points: 2
#     Edge 98, Type (0, 1), BuildingBlock: OJICUG_clean_linker_0, # of connection points: 2
#     Edge 99, Type (0, 1), BuildingBlock: OJICUG_clean_linker_0, # of connection points: 2
#     Edge 100, Type (0, 1), BuildingBlock: OJICUG_clean_linker_0, # of connection points: 2
#     Edge 101, Type (0, 1), BuildingBlock: OJICUG_clean_linker_0, # of connection points: 2
#     Edge 102, Type (0, 1), BuildingBlock: OJICUG_clean_linker_0, # of connection points: 2
#     Edge 103, Type (0, 1), BuildingBlock: OJICUG_clean_linker_0, # of connection points: 2
#     Edge 104, Type (0, 1), BuildingBlock: OJICUG_clean_linker_0, # of connection points: 2
#     Edge 105, Type (0, 1), BuildingBlock: OJICUG_clean_linker_0, # of connection points: 2
#     Edge 106, Type (0, 1), BuildingBlock: OJICUG_clean_linker_0, # of connection points: 2
#     Edge 107, Type (0, 1), BuildingBlock: OJICUG_clean_linker_0, # of connection points: 2
#     Edge 108, Type (0, 1), BuildingBlock: OJICUG_clean_linker_0, # of connection points: 2
#     Edge 109, Type (0, 1), BuildingBlock: OJICUG_clean_linker_0, # of connection points: 2
#     Edge 110, Type (0, 1), BuildingBlock: OJICUG_clean_linker_0, # of connection points: 2
#     Edge 111, Type (0, 1), BuildingBlock: OJICUG_clean_linker_0, # of connection points: 2
#     Edge 112, Type (0, 1), BuildingBlock: OJICUG_clean_linker_0, # of connection points: 2
#     Edge 113, Type (0, 1), BuildingBlock: OJICUG_clean_linker_0, # of connection points: 2
#     Edge 114, Type (0, 1), BuildingBlock: OJICUG_clean_linker_0, # of connection points: 2
#     Edge 115, Type (0, 1), BuildingBlock: OJICUG_clean_linker_0, # of connection points: 2
#     Edge 116, Type (0, 1), BuildingBlock: OJICUG_clean_linker_0, # of connection points: 2
#     Edge 117, Type (0, 1), BuildingBlock: OJICUG_clean_linker_0, # of connection points: 2
#     Edge 118, Type (0, 1), BuildingBlock: OJICUG_clean_linker_0, # of connection points: 2
#     Edge 119, Type (0, 1), BuildingBlock: OJICUG_clean_linker_0, # of connection points: 2
#     Edge 120, Type (0, 1), BuildingBlock: OJICUG_clean_linker_0, # of connection points: 2
#     Edge 121, Type (0, 1), BuildingBlock: OJICUG_clean_linker_0, # of connection points: 2
#     Edge 122, Type (0, 1), BuildingBlock: OJICUG_clean_linker_0, # of connection points: 2
#     Edge 123, Type (0, 1), BuildingBlock: OJICUG_clean_linker_0, # of connection points: 2
#     Edge 124, Type (0, 1), BuildingBlock: OJICUG_clean_linker_0, # of connection points: 2
#     Edge 125, Type (0, 1), BuildingBlock: OJICUG_clean_linker_0, # of connection points: 2
#     Edge 126, Type (0, 1), BuildingBlock: OJICUG_clean_linker_0, # of connection points: 2
#     Edge 127, Type (0, 1), BuildingBlock: OJICUG_clean_linker_0, # of connection points: 2
#     Edge 128, Type (0, 1), BuildingBlock: OJICUG_clean_linker_0, # of connection points: 2
#     Edge 129, Type (0, 1), BuildingBlock: OJICUG_clean_linker_0, # of connection points: 2
#     Edge 130, Type (0, 1), BuildingBlock: OJICUG_clean_linker_0, # of connection points: 2
#     Edge 131, Type (0, 1), BuildingBlock: OJICUG_clean_linker_0, # of connection points: 2
#     Edge 132, Type (0, 1), BuildingBlock: OJICUG_clean_linker_0, # of connection points: 2
#     Edge 133, Type (0, 1), BuildingBlock: OJICUG_clean_linker_0, # of connection points: 2
#     Edge 134, Type (0, 1), BuildingBlock: OJICUG_clean_linker_0, # of connection points: 2
#     Edge 135, Type (0, 1), BuildingBlock: OJICUG_clean_linker_0, # of connection points: 2
# Relax obj value: 0.256
# Max RMSD: 0.246
# Mean RMSD: 0.116
data_MOF--net-iac--node1-CEKHIL_clean_sbu_0--node2-JUFBIX_clean_sbu_0--edge1-OJICUG_clean_linker_0
_symmetry_space_group_name_H-M    P1
_symmetry_Int_Tables_number       1
_symmetry_cell_setting            triclinic
loop_
_symmetry_equiv_pos_as_xyz
'x, y, z'
_cell_length_a     39.999403
_cell_length_b     40.766465
_cell_length_c     40.128388
_cell_angle_alpha  89.038725
_cell_angle_beta   87.998656
_cell_angle_gamma 88.47882
loop_
_atom_site_label
_atom_site_type_symbol
_atom_site_fract_x
_atom_site_fract_y
_atom_site_fract_z
_atom_type_partial_charge
Co0 Co 0.04523 0.29944 0.15999 0.0
O1 O 0.99606 0.30142 0.15484 0.0
O2 O 0.02002 0.2882 0.20142 0.0
C3 C 0.05556 0.35122 0.13351 0.0
O4 O 0.09317 0.29633 0.18046 0.0
Co5 Co 0.09777 0.29623 0.10716 0.0
O6 O 0.13195 0.30591 0.14066 0.0
C7 C 0.0581 0.23654 0.11671 0.0
C8 C 0.99227 0.29323 0.18619 0.0
C9 C 0.12403 0.30193 0.17142 0.0
O10 O 0.04629 0.25007 0.14416 0.0
O11 O 0.07763 0.25253 0.09677 0.0
O12 O 0.04596 0.34822 0.16464 0.0
O13 O 0.05759 0.32318 0.11842 0.0
Co14 Co 0.07527 0.78276 0.42951 0.0
O15 O 0.12304 0.77693 0.43382 0.0
O16 O 0.09607 0.77872 0.38631 0.0
C17 C 0.06777 0.82404 0.46538 0.0
O18 O 0.02831 0.78996 0.41355 0.0
Co19 Co 0.02155 0.77367 0.48586 0.0
O20 O 0.99239 0.80036 0.45636 0.0
C21 C 0.05105 0.71581 0.45063 0.0
C22 C 0.12419 0.77595 0.40137 0.0
C23 C 0.99981 0.80025 0.4253 0.0
O24 O 0.06947 0.73422 0.43194 0.0
O25 O 0.03115 0.72655 0.4739 0.0
O26 O 0.07893 0.82961 0.43504 0.0
O27 O 0.06405 0.7936 0.47397 0.0
Co28 Co 0.54678 0.80109 0.66104 0.0
O29 O 0.4976 0.80312 0.65611 0.0
O30 O 0.52184 0.78913 0.70236 0.0
C31 C 0.55727 0.85339 0.63547 0.0
O32 O 0.59478 0.79771 0.68127 0.0
Co33 Co 0.59876 0.79811 0.608 0.0
O34 O 0.63323 0.80768 0.64128 0.0
C35 C 0.55912 0.73841 0.61705 0.0
C36 C 0.49401 0.79428 0.6873 0.0
C37 C 0.62555 0.8035 0.67207 0.0
O38 O 0.54761 0.75185 0.64464 0.0
O39 O 0.5786 0.75448 0.59712 0.0
O40 O 0.54764 0.84979 0.66653 0.0
O41 O 0.55904 0.82562 0.61981 0.0
Co42 Co 0.56935 0.29218 0.92415 0.0
O43 O 0.61749 0.29286 0.92508 0.0
O44 O 0.58761 0.28789 0.87986 0.0
C45 C 0.55839 0.33458 0.95788 0.0
O46 O 0.52085 0.29207 0.91212 0.0
Co47 Co 0.52237 0.28005 0.98627 0.0
O48 O 0.48795 0.30104 0.95766 0.0
C49 C 0.5618 0.22533 0.95523 0.0
C50 C 0.61674 0.28967 0.89289 0.0
C51 C 0.49263 0.30014 0.92615 0.0
O52 O 0.57062 0.24339 0.93022 0.0
O53 O 0.54502 0.23579 0.98084 0.0
O54 O 0.56669 0.33975 0.92664 0.0
O55 O 0.56 0.30446 0.96826 0.0
Co56 Co 0.15436 0.02108 0.33152 0.0
O57 O 0.15465 0.97437 0.32685 0.0
O58 O 0.19526 1.00752 0.30928 0.0
C59 C 0.13631 0.0222 0.38438 0.0
O60 O 0.16394 0.06921 0.33185 0.0
Co61 Co 0.09012 0.06294 0.34608 0.0
O62 O 0.12113 0.09923 0.3539 0.0
C63 C 0.10233 0.03277 0.28051 0.0
C64 C 0.18361 0.97811 0.31167 0.0
C65 C 0.15118 0.09628 0.34264 0.0
O66 O 0.13246 0.0258 0.28822 0.0
O67 O 0.08049 0.04597 0.30055 0.0
O68 O 0.16795 0.01691 0.37722 0.0
O69 O 0.11642 0.02434 0.35969 0.0
Co70 Co 0.27685 0.91188 0.55707 0.0
O71 O 0.23005 0.91127 0.56819 0.0
O72 O 0.26394 0.95222 0.57808 0.0
C73 C 0.27628 0.89354 0.5053 0.0
O74 O 0.32518 0.92227 0.54782 0.0
Co75 Co 0.31835 0.84784 0.54263 0.0
O76 O 0.35392 0.87835 0.52746 0.0
C77 C 0.28793 0.8605 0.60863 0.0
C78 C 0.23414 0.94032 0.58015 0.0
C79 C 0.35121 0.90886 0.53371 0.0
O80 O 0.2862 0.89115 0.60122 0.0
O81 O 0.29685 0.83852 0.58751 0.0
O82 O 0.26831 0.92412 0.51114 0.0
O83 O 0.27929 0.87458 0.53118 0.0
Co84 Co 0.42726 0.08205 0.77472 0.0
O85 O 0.4301 0.12878 0.77525 0.0
O86 O 0.38594 0.10111 0.76028 0.0
C87 C 0.44856 0.07022 0.82395 0.0
O88 O 0.41458 0.0346 0.77288 0.0
Co89 Co 0.49175 0.03735 0.77495 0.0
O90 O 0.45934 1.00193 0.78371 0.0
C91 C 0.47629 0.07947 0.71764 0.0
C92 C 0.39969 0.12917 0.76479 0.0
C93 C 0.42804 1.00651 0.77992 0.0
O94 O 0.44565 0.08185 0.72785 0.0
O95 O 0.49946 0.06628 0.73491 0.0
O96 O 0.41748 0.08029 0.82252 0.0
O97 O 0.46633 0.07248 0.79665 0.0
Co98 Co 0.30193 0.17123 0.02823 0.0
O99 O 0.35082 0.17866 0.02571 0.0
O100 O 0.32903 0.1314 0.03843 0.0
C101 C 0.29022 0.19808 0.97683 0.0
O102 O 0.25436 0.1494 0.03145 0.0
Co103 Co 0.24751 0.22194 0.03317 0.0
O104 O 0.21477 0.18774 0.02246 0.0
C105 C 0.28869 0.21263 0.0925 0.0
C106 C 0.35609 0.14788 0.03336 0.0
C107 C 0.22334 0.15761 0.02587 0.0
O108 O 0.3006 0.18587 0.07848 0.0
O109 O 0.26872 0.23204 0.07689 0.0
O110 O 0.30112 0.16781 0.97863 0.0
O111 O 0.28791 0.21199 0.00574 0.0
Co112 Co 0.77522 0.40707 0.04945 0.0
O113 O 0.72751 0.40676 0.05223 0.0
O114 O 0.75936 0.4455 0.07206 0.0
C115 C 0.78239 0.39375 0.99616 0.0
O116 O 0.82411 0.41644 0.05051 0.0
Co117 Co 0.81803 0.34384 0.03521 0.0
O118 O 0.85381 0.37596 0.02501 0.0
C119 C 0.78334 0.35288 0.10031 0.0
C120 C 0.72973 0.43434 0.06778 0.0
C121 C 0.85119 0.40467 0.03701 0.0
O122 O 0.77703 0.3829 0.09264 0.0
O123 O 0.79694 0.33221 0.07996 0.0
O124 O 0.77454 0.42385 0.00402 0.0
O125 O 0.7816 0.37229 0.02027 0.0
Co126 Co 0.93709 0.57493 0.276 0.0
O127 O 0.93779 0.62162 0.28083 0.0
O128 O 0.89781 0.59452 0.25692 0.0
C129 C 0.95096 0.56 0.32756 0.0
O130 O 0.92687 0.52735 0.268 0.0
Co131 Co 1.00176 0.53131 0.283 0.0
O132 O 0.96825 0.49646 0.28997 0.0
C133 C 0.99353 0.57396 0.22421 0.0
C134 C 0.9094 0.62237 0.26598 0.0
C135 C 0.9386 0.5 0.27958 0.0
O136 O 0.96244 0.57871 0.23225 0.0
O137 O 1.01417 0.55853 0.24285 0.0
O138 O 0.92027 0.56924 0.32187 0.0
O139 O 0.97245 0.56447 0.3033 0.0
Co140 Co 0.80117 0.67038 0.52947 0.0
O141 O 0.85014 0.67664 0.52693 0.0
O142 O 0.82703 0.63016 0.54059 0.0
C143 C 0.79085 0.69638 0.47738 0.0
O144 O 0.75318 0.64958 0.53276 0.0
Co145 Co 0.74816 0.72193 0.53317 0.0
O146 O 0.71454 0.68848 0.52264 0.0
C147 C 0.78852 0.71301 0.59306 0.0
C148 C 0.85451 0.64588 0.53511 0.0
C149 C 0.72242 0.65825 0.52666 0.0
O150 O 0.79999 0.68589 0.57947 0.0
O151 O 0.76898 0.73249 0.57699 0.0
O152 O 0.80067 0.66586 0.48006 0.0
O153 O 0.78852 0.71107 0.50591 0.0
Co154 Co 0.64993 0.52543 0.83252 0.0
O155 O 0.64995 0.47874 0.82631 0.0
O156 O 0.69135 0.51189 0.81132 0.0
C157 C 0.62954 0.52621 0.8848 0.0
O158 O 0.66029 0.57331 0.83429 0.0
Co159 Co 0.58594 0.56837 0.84525 0.0
O160 O 0.61702 0.60457 0.85341 0.0
C161 C 0.59982 0.53787 0.78011 0.0
C162 C 0.67922 0.48267 0.81176 0.0
C163 C 0.64754 0.60081 0.8439 0.0
O164 O 0.62987 0.53149 0.78842 0.0
O165 O 0.57736 0.55067 0.79976 0.0
O166 O 0.6613 0.52011 0.87891 0.0
O167 O 0.61091 0.52902 0.85922 0.0
Co168 Co 0.05748 0.80382 0.91249 0.0
O169 O 0.10601 0.80593 0.9198 0.0
O170 O 0.08538 0.79026 0.87326 0.0
C171 C 0.04698 0.85706 0.93531 0.0
O172 O 1.01014 0.80011 0.88999 0.0
Co173 Co 1.00361 0.80334 0.96185 0.0
O174 O 0.96851 0.8017 0.92816 0.0
C175 C 0.04077 0.74073 0.9558 0.0
C176 C 0.11197 0.79636 0.88945 0.0
C177 C 0.97822 0.7995 0.89782 0.0
O178 O 0.0572 0.755 0.93114 0.0
O179 O 0.01831 0.75676 0.97265 0.0
O180 O 0.05621 0.85225 0.9044 0.0
O181 O 0.04366 0.82972 0.9523 0.0
Co182 Co 1.00426 0.33601 0.64077 0.0
O183 O 0.95834 0.33912 0.62816 0.0
O184 O 0.978 0.30821 0.66951 0.0
C185 C 1.01215 0.38997 0.6402 0.0
O186 O 0.04882 0.32681 0.6618 0.0
Co187 Co 0.0614 0.36153 0.59352 0.0
O188 O 0.09059 0.34868 0.6307 0.0
C189 C 0.03726 0.29417 0.58647 0.0
C190 C 0.95237 0.3197 0.65351 0.0
C191 C 0.07994 0.33229 0.65605 0.0
O192 O 0.01469 0.29903 0.60961 0.0
O193 O 0.05672 0.31651 0.57521 0.0
O194 O 0.99784 0.37616 0.66606 0.0
O195 O 0.01839 0.37172 0.61463 0.0
Co196 Co 0.55548 0.30562 0.41194 0.0
O197 O 0.60417 0.30809 0.41832 0.0
O198 O 0.58268 0.29234 0.37221 0.0
C199 C 0.54489 0.35876 0.43512 0.0
O200 O 0.50804 0.30166 0.38987 0.0
Co201 Co 0.5022 0.30432 0.46153 0.0
O202 O 0.46667 0.30254 0.42826 0.0
C203 C 0.53968 0.24205 0.45509 0.0
C204 C 0.60955 0.29863 0.38782 0.0
C205 C 0.47619 0.30068 0.39785 0.0
O206 O 0.55586 0.25668 0.43048 0.0
O207 O 0.51703 0.25769 0.47206 0.0
O208 O 0.55371 0.35409 0.40408 0.0
O209 O 0.54193 0.33132 0.45205 0.0
Co210 Co 0.50987 0.83517 0.14826 0.0
O211 O 0.46345 0.83478 0.13775 0.0
O212 O 0.48621 0.81003 0.18152 0.0
C213 C 0.51367 0.88906 0.13959 0.0
O214 O 0.55555 0.82995 0.16793 0.0
Co215 Co 0.56432 0.85815 0.09684 0.0
O216 O 0.59615 0.84701 0.13232 0.0
C217 C 0.54213 0.78943 0.09767 0.0
C218 C 0.45947 0.81834 0.16551 0.0
C219 C 0.58652 0.83362 0.1598 0.0
O220 O 0.52055 0.79533 0.12144 0.0
O221 O 0.5599 0.81149 0.0832 0.0
O222 O 0.50277 0.87806 0.16834 0.0
O223 O 0.52071 0.86769 0.11691 0.0
Co224 Co 0.9049 0.09896 0.78835 0.0
O225 O 0.9132 0.14456 0.78449 0.0
O226 O 0.87758 0.11771 0.75429 0.0
C227 C 0.89978 0.09907 0.84357 0.0
O228 O 0.8892 0.05269 0.78591 0.0
Co229 Co 0.95126 0.05076 0.82819 0.0
O230 O 0.91445 0.01986 0.82346 0.0
C231 C 0.97001 0.0717 0.75909 0.0
C232 C 0.88962 0.1455 0.76304 0.0
C233 C 0.89288 0.02513 0.80127 0.0
O234 O 0.94254 0.08841 0.75598 0.0
O235 O 0.9785 0.05654 0.78581 0.0
O236 O 0.8741 0.10777 0.82633 0.0
O237 O 0.92741 0.09248 0.82733 0.0
Co238 Co 0.84652 0.1776 0.516 0.0
O239 O 0.89349 0.17932 0.52302 0.0
O240 O 0.86189 0.13591 0.53296 0.0
C241 C 0.84888 0.20197 0.46561 0.0
O242 O 0.79802 0.16636 0.51164 0.0
Co243 Co 0.80141 0.24309 0.50405 0.0
O244 O 0.76443 0.21187 0.51296 0.0
C245 C 0.82878 0.22448 0.56464 0.0
C246 C 0.89133 0.1487 0.53223 0.0
C247 C 0.76909 0.18074 0.51436 0.0
O248 O 0.83518 0.19387 0.56147 0.0
O249 O 0.83517 0.24333 0.53984 0.0
O250 O 0.85577 0.1707 0.46865 0.0
O251 O 0.84231 0.2175 0.49281 0.0
Co252 Co 0.66531 1.00536 0.31122 0.0
O253 O 0.65452 0.96201 0.29826 0.0
O254 O 0.70147 0.9878 0.28458 0.0
C255 C 0.6495 0.99691 0.36403 0.0
O256 O 0.68682 0.04795 0.32008 0.0
Co257 Co 0.61575 0.05613 0.34349 0.0
O258 O 0.65493 0.08432 0.34854 0.0
C259 C 0.62092 0.0489 0.26978 0.0
C260 C 0.68488 0.96081 0.28554 0.0
C261 C 0.68248 0.07578 0.33393 0.0
O262 O 0.6438 0.02624 0.27184 0.0
O263 O 0.60579 0.06193 0.29512 0.0
O264 O 0.67936 0.98764 0.35387 0.0
O265 O 0.63018 0.01042 0.34238 0.0
Co266 Co 0.7915 0.92247 0.02529 0.0
O267 O 0.74232 0.91752 0.02427 0.0
O268 O 0.76584 0.96231 0.03917 0.0
C269 C 0.80039 0.89873 0.97193 0.0
O270 O 0.83952 0.94295 0.02811 0.0
Co271 Co 0.84531 0.87174 0.02296 0.0
O272 O 0.88054 0.90499 0.02499 0.0
C273 C 0.80921 0.87886 0.08767 0.0
C274 C 0.73821 0.94787 0.03333 0.0
C275 C 0.87122 0.93482 0.02814 0.0
O276 O 0.79274 0.90371 0.07449 0.0
O277 O 0.83067 0.86196 0.07045 0.0
O278 O 0.79218 0.92953 0.97591 0.0
O279 O 0.8038 0.88286 1.0 0.0
Co280 Co 0.34569 0.67517 0.01239 0.0
O281 O 0.38729 0.6844 0.0329 0.0
O282 O 0.3604 0.63749 0.03706 0.0
C283 C 0.36126 0.69698 0.96308 0.0
O284 O 0.30468 0.65437 0.99571 0.0
Co285 Co 0.29689 0.72447 0.97821 0.0
O286 O 0.26855 0.68675 0.9686 0.0
C287 C 0.29449 0.71432 0.05213 0.0
C288 C 0.38666 0.654 0.04333 0.0
C289 C 0.2772 0.6589 0.98074 0.0
O290 O 0.31808 0.69217 0.05123 0.0
O291 O 0.2848 0.73058 0.02649 0.0
O292 O 0.37032 0.66691 0.97037 0.0
O293 O 0.3434 0.71254 0.98523 0.0
Co294 Co 0.15464 0.51048 0.80041 0.0
O295 O 0.14458 0.46731 0.7858 0.0
O296 O 0.19293 0.49227 0.77756 0.0
C297 C 0.13288 0.50191 0.8515 0.0
O298 O 0.17647 0.55214 0.812 0.0
Co299 Co 0.10482 0.56303 0.82901 0.0
O300 O 0.14408 0.5903 0.8371 0.0
C301 C 0.11785 0.55728 0.75558 0.0
C302 C 0.17618 0.46548 0.77685 0.0
C303 C 0.17233 0.58034 0.82507 0.0
O304 O 0.13837 0.5327 0.75913 0.0
O305 O 0.10132 0.57082 0.77981 0.0
O306 O 0.16321 0.49178 0.84405 0.0
O307 O 0.11653 0.51658 0.82817 0.0
Co308 Co 0.28985 0.42246 0.52389 0.0
O309 O 0.24097 0.41637 0.52178 0.0
O310 O 0.26311 0.46203 0.53631 0.0
C311 C 0.29999 0.39819 0.47099 0.0
O312 O 0.33753 0.44387 0.52745 0.0
Co313 Co 0.34385 0.37286 0.52413 0.0
O314 O 0.37891 0.40627 0.52607 0.0
C315 C 0.3061 0.38041 0.58775 0.0
C316 C 0.23601 0.44681 0.5301 0.0
C317 C 0.36931 0.4361 0.52832 0.0
O318 O 0.28982 0.40474 0.5735 0.0
O319 O 0.32832 0.36352 0.5715 0.0
O320 O 0.29158 0.42897 0.47456 0.0
O321 O 0.30307 0.38254 0.49928 0.0
Co322 Co 0.41203 0.59328 0.28975 0.0
O323 O 0.42447 0.63803 0.28835 0.0
O324 O 0.38991 0.61515 0.25387 0.0
C325 C 0.4013 0.5926 0.34449 0.0
O326 O 0.3925 0.54894 0.2843 0.0
Co327 Co 0.45012 0.54038 0.33129 0.0
O328 O 0.40938 0.51498 0.3253 0.0
C329 C 0.47668 0.56087 0.26483 0.0
C330 C 0.40282 0.64159 0.2651 0.0
C331 C 0.39087 0.52194 0.30088 0.0
O332 O 0.45143 0.58046 0.26062 0.0
O333 O 0.48131 0.5435 0.29121 0.0
O334 O 0.37858 0.60381 0.32473 0.0
O335 O 0.42984 0.58394 0.33087 0.0
Co336 Co 0.03962 0.05763 0.00914 0.0
C337 C 0.03709 0.10133 0.06502 0.0
Co338 Co 0.05436 0.03309 0.05479 0.0
C339 C 0.99753 0.07244 0.95625 0.0
C340 C 0.03149 0.11117 0.96308 0.0
N341 N 0.0254 0.0798 0.97194 0.0
N342 N 0.98442 0.09845 0.93976 0.0
C343 C 1.00629 0.12273 0.9432 0.0
H344 H 0.98552 0.04916 0.95955 0.0
H345 H 0.05088 0.12568 0.97318 0.0
C346 C 0.05661 0.98977 0.99817 0.0
N347 N 0.06663 0.01125 0.09295 0.0
C348 C 0.07472 0.02481 0.12178 0.0
C349 C 0.06424 0.97884 0.09998 0.0
N350 N 0.07685 1.00237 0.14651 0.0
C351 C 0.07079 0.97327 0.13301 0.0
C352 C 0.98607 0.02283 0.04173 0.0
O353 O 0.0477 0.01639 0.98311 0.0
O354 O 0.06366 0.99226 0.02887 0.0
O355 O 1.0087 0.01676 0.06272 0.0
O356 O 0.99335 0.04285 0.01815 0.0
O357 O 0.04471 0.07473 0.0807 0.0
H358 H 0.05631 0.96064 0.08285 0.0
H359 H 0.07802 0.05079 0.12506 0.0
O360 O 0.03148 0.09852 0.03417 0.0
O361 O 0.08553 0.07264 1.00061 0.0
O362 O 0.10064 0.04903 0.04718 0.0
C363 C 0.10793 0.06795 0.02232 0.0
H364 H 1.00358 0.14757 0.93362 0.0
H365 H 0.06934 0.95009 0.14649 0.0
Co366 Co 0.30164 0.81596 0.29721 0.0
C367 C 0.31737 0.754 0.27854 0.0
Co368 Co 0.2718 0.80096 0.25572 0.0
C369 C 0.31217 0.8501 0.35578 0.0
C370 C 0.35634 0.82218 0.34173 0.0
N371 N 0.32532 0.8306 0.33185 0.0
N372 N 0.33328 0.85388 0.38051 0.0
C373 C 0.36109 0.83612 0.37222 0.0
H374 H 0.28639 0.85898 0.35662 0.0
H375 H 0.37347 0.80546 0.32871 0.0
C376 C 0.25794 0.86389 0.27277 0.0
N377 N 0.24812 0.78598 0.22138 0.0
C378 C 0.26171 0.76681 0.19745 0.0
C379 C 0.21557 0.78981 0.21404 0.0
N380 N 0.23924 0.75822 0.17542 0.0
C381 C 0.21008 0.77293 0.18527 0.0
C382 C 0.24122 0.78942 0.31706 0.0
O383 O 0.28046 0.85736 0.29341 0.0
O384 O 0.24938 0.84211 0.25283 0.0
O385 O 0.23827 0.78641 0.28592 0.0
O386 O 0.26737 0.80202 0.32772 0.0
O387 O 0.29426 0.75987 0.25841 0.0
H388 H 0.19725 0.80415 0.22842 0.0
H389 H 0.28811 0.76023 0.1955 0.0
O390 O 0.32345 0.77498 0.30027 0.0
O391 O 0.33538 0.82901 0.26777 0.0
O392 O 0.30637 0.81506 0.22512 0.0
C393 C 0.33346 0.8248 0.23674 0.0
H394 H 0.38228 0.83197 0.38796 0.0
H395 H 0.18682 0.77196 0.17238 0.0
Co396 Co 0.53634 0.04032 0.5284 0.0
C397 C 0.55627 0.1045 0.50795 0.0
Co398 Co 0.58387 0.05201 0.54978 0.0
C399 C 0.47687 1.00524 0.5214 0.0
C400 C 0.48513 0.03795 0.47985 0.0
N401 N 0.4975 0.02846 0.50949 0.0
N402 N 0.45253 0.99946 0.5003 0.0
C403 C 0.45707 0.02022 0.47424 0.0
H404 H 0.47964 0.99247 0.54504 0.0
H405 H 0.49635 0.05578 0.46294 0.0
C406 C 0.56322 0.98758 0.57042 0.0
N407 N 0.62342 0.06497 0.56705 0.0
C408 C 0.648 0.07854 0.54807 0.0
C409 C 0.6309 0.07149 0.59876 0.0
N410 N 0.66999 0.09402 0.56637 0.0
C411 C 0.65949 0.08976 0.59837 0.0
C412 C 0.52808 0.07099 0.58758 0.0
O413 O 0.5404 0.99611 0.55027 0.0
O414 O 0.58545 1.00894 0.57559 0.0
O415 O 0.55971 0.07179 0.58497 0.0
O416 O 0.51206 0.05664 0.5656 0.0
O417 O 0.58181 0.09501 0.5242 0.0
H418 H 0.61514 0.06583 0.62044 0.0
H419 H 0.64787 0.08004 0.52111 0.0
O420 O 0.53252 0.08428 0.50676 0.0
O421 O 0.56013 0.02398 0.49142 0.0
O422 O 0.60796 0.03202 0.51436 0.0
C423 C 0.59173 0.02121 0.49059 0.0
H424 H 0.4419 0.02162 0.45242 0.0
H425 H 0.67057 0.10064 0.61966 0.0
Co426 Co 0.308 0.31017 0.7921 0.0
C427 C 0.29349 0.32478 0.72534 0.0
Co428 Co 0.26415 0.28334 0.77826 0.0
C429 C 0.36924 0.31494 0.82418 0.0
C430 C 0.35234 0.36235 0.80709 0.0
N431 N 0.34531 0.33015 0.80648 0.0
N432 N 0.39053 0.33625 0.83635 0.0
C433 C 0.38015 0.36621 0.82588 0.0
H434 H 0.36978 0.28888 0.82994 0.0
H435 H 0.3373 0.38184 0.79608 0.0
C436 C 0.27981 0.26857 0.84527 0.0
N437 N 0.22542 0.26532 0.76396 0.0
C438 C 0.20454 0.28374 0.74544 0.0
C439 C 0.21064 0.236 0.76738 0.0
N440 N 0.17775 0.26751 0.73648 0.0
C441 C 0.18091 0.23735 0.75044 0.0
C442 C 0.32141 0.24802 0.76677 0.0
O443 O 0.30119 0.29048 0.8376 0.0
O444 O 0.25957 0.26107 0.82269 0.0
O445 O 0.29006 0.24742 0.76295 0.0
O446 O 0.33404 0.27304 0.77934 0.0
O447 O 0.26979 0.30557 0.7336 0.0
H448 H 0.2208 0.21513 0.78102 0.0
H449 H 0.20867 0.30918 0.73876 0.0
O450 O 0.31508 0.3297 0.74727 0.0
O451 O 0.28188 0.34727 0.80376 0.0
O452 O 0.23778 0.31947 0.79327 0.0
C453 C 0.25057 0.34626 0.80068 0.0
H454 H 0.39135 0.38912 0.83207 0.0
H455 H 0.16356 0.21768 0.74795 0.0
Co456 Co 0.04989 0.02129 0.57622 0.0
C457 C 0.04161 0.04999 0.63618 0.0
Co458 Co 0.07675 0.06747 0.57815 0.0
C459 C 0.04853 0.95628 0.55484 0.0
C460 C 1.00299 0.96742 0.58225 0.0
N461 N 0.03276 0.98 0.57273 0.0
N462 N 0.02975 0.92977 0.5518 0.0
C463 C 1.00109 0.93626 0.56936 0.0
H464 H 0.07308 0.95891 0.543 0.0
H465 H 0.98341 0.9806 0.59615 0.0
C466 C 0.0852 0.03944 0.51784 0.0
N467 N 0.09389 0.10878 0.57957 0.0
C468 C 0.07489 0.13573 0.58619 0.0
C469 C 0.12336 0.12012 0.56762 0.0
N470 N 0.09054 0.1636 0.57772 0.0
C471 C 0.12137 0.15396 0.56642 0.0
C472 C 0.11627 0.01732 0.59711 0.0
O473 O 0.06454 0.01944 0.53067 0.0
O474 O 0.09492 0.0629 0.53493 0.0
O475 O 0.11605 0.04844 0.59506 0.0
O476 O 0.09053 1.002 0.58938 0.0
O477 O 0.05859 0.07218 0.62162 0.0
H478 H 0.14398 0.10483 0.55818 0.0
H479 H 0.04892 0.13466 0.59446 0.0
O480 O 0.0355 0.02379 0.62107 0.0
O481 O 1.00911 0.04071 0.56347 0.0
O482 O 0.03703 0.08612 0.56091 0.0
C483 C 1.00994 0.07131 0.55759 0.0
H484 H 0.9797 0.92053 0.57106 0.0
H485 H 0.14062 0.16999 0.55666 0.0
Co486 Co 0.31068 0.811 0.80314 0.0
C487 C 0.2472 0.79059 0.82477 0.0
Co488 Co 0.3004 0.76347 0.78207 0.0
C489 C 0.33969 0.87344 0.80023 0.0
C490 C 0.31194 0.86676 0.84631 0.0
N491 N 0.32061 0.85189 0.81736 0.0
N492 N 0.34359 0.90098 0.81732 0.0
C493 C 0.32601 0.89725 0.84628 0.0
H494 H 0.35068 0.86908 0.77561 0.0
H495 H 0.29691 0.85592 0.86633 0.0
C496 C 0.36337 0.78465 0.75978 0.0
N497 N 0.28997 0.72212 0.7696 0.0
C498 C 0.27495 0.70134 0.79135 0.0
C499 C 0.29124 0.70649 0.74022 0.0
N500 N 0.26593 0.67375 0.77696 0.0
C501 C 0.27634 0.67641 0.74474 0.0
C502 C 0.28003 0.81264 0.74176 0.0
O503 O 0.35441 0.80771 0.77949 0.0
O504 O 0.34315 0.7613 0.7564 0.0
O505 O 0.28016 0.7817 0.74523 0.0
O506 O 0.29174 0.82999 0.76441 0.0
O507 O 0.25696 0.76633 0.80703 0.0
H508 H 0.30089 0.71684 0.71693 0.0
H509 H 0.26954 0.70683 0.81732 0.0
O510 O 0.26721 0.81416 0.82692 0.0
O511 O 0.33001 0.79213 0.84116 0.0
O512 O 0.3215 0.74461 0.81904 0.0
C513 C 0.33312 0.76111 0.84215 0.0
H514 H 0.32443 0.91479 0.86626 0.0
H515 H 0.27175 0.65885 0.72559 0.0
Co516 Co 0.5422 0.03833 0.01502 0.0
C517 C 0.60795 0.02127 0.03394 0.0
Co518 Co 0.55718 0.06782 0.05641 0.0
C519 C 0.50589 0.02518 0.95869 0.0
C520 C 0.53745 0.98368 0.97011 0.0
N521 N 0.5282 0.01401 0.98057 0.0
N522 N 0.50061 1.00334 0.93506 0.0
C523 C 0.52087 0.97729 0.94141 0.0
H524 H 0.49543 0.04995 0.95846 0.0
H525 H 0.55593 0.96785 0.98176 0.0
C526 C 0.49099 0.0841 0.03771 0.0
N527 N 0.57075 0.09175 0.09113 0.0
C528 C 0.58718 0.0784 0.11673 0.0
C529 C 0.56415 0.12322 0.09955 0.0
N530 N 0.59079 0.09984 0.14121 0.0
C531 C 0.57623 0.1282 0.13082 0.0
C532 C 0.57203 0.09602 0.99562 0.0
O533 O 0.49815 0.06069 0.01793 0.0
O534 O 0.51366 0.09241 0.05728 0.0
O535 O 0.57487 0.09862 0.02677 0.0
O536 O 0.55785 0.07122 0.98432 0.0
O537 O 0.60068 0.04343 0.0553 0.0
H538 H 0.55002 0.14077 0.08478 0.0
H539 H 0.594 0.05256 0.11856 0.0
O540 O 0.58598 0.01538 0.01271 0.0
O541 O 0.52646 1.00658 0.04472 0.0
O542 O 0.53931 0.03647 0.08698 0.0
C543 C 0.52689 0.01079 0.07588 0.0
H544 H 0.52443 0.95606 0.92572 0.0
H545 H 0.57327 0.15031 0.14531 0.0
Co546 Co 0.29252 0.27455 0.29768 0.0
C547 C 0.36133 0.28945 0.30765 0.0
Co548 Co 0.30777 0.31903 0.27176 0.0
C549 C 0.25609 0.21635 0.31244 0.0
C550 C 0.2875 0.22891 0.35217 0.0
N551 N 0.27985 0.23726 0.32058 0.0
N552 N 0.24803 0.19587 0.33796 0.0
C553 C 0.26777 0.20349 0.36301 0.0
H554 H 0.24338 0.2175 0.28905 0.0
H555 H 0.30488 0.24173 0.36702 0.0
C556 C 0.23926 0.30476 0.26177 0.0
N557 N 0.31935 0.35699 0.25027 0.0
C558 C 0.33571 0.38045 0.26535 0.0
C559 C 0.30779 0.37123 0.22219 0.0
N560 N 0.33347 0.40936 0.24905 0.0
C561 C 0.31655 0.40376 0.22136 0.0
C562 C 0.3109 0.26421 0.22852 0.0
O563 O 0.24591 0.28129 0.28217 0.0
O564 O 0.26216 0.32544 0.25595 0.0
O565 O 0.31762 0.29454 0.23087 0.0
O566 O 0.30191 0.24912 0.25558 0.0
O567 O 0.35413 0.31288 0.28741 0.0
H568 H 0.2918 0.35955 0.20498 0.0
H569 H 0.34712 0.37683 0.28923 0.0
O570 O 0.33885 0.26811 0.31336 0.0
O571 O 0.28317 0.29962 0.33919 0.0
O572 O 0.29753 0.34435 0.31313 0.0
C573 C 0.28918 0.33013 0.3406 0.0
H574 H 0.26732 0.19205 0.38756 0.0
H575 H 0.30892 0.42224 0.20329 0.0
Co576 Co 0.54408 0.52359 0.07591 0.0
C577 C 0.54415 0.54449 0.13969 0.0
Co578 Co 0.57411 0.56725 0.08089 0.0
C579 C 0.5343 0.46328 0.04631 0.0
C580 C 0.49472 0.47166 0.08255 0.0
N581 N 0.52281 0.4849 0.06916 0.0
N582 N 0.51453 0.43747 0.04419 0.0
C583 C 0.48966 0.44205 0.06725 0.0
H584 H 0.55717 0.46622 0.03142 0.0
H585 H 0.47887 0.48289 0.10179 0.0
C586 C 0.57518 0.54673 0.01696 0.0
N587 N 0.59588 0.6056 0.08583 0.0
C588 C 0.58064 0.63284 0.09778 0.0
C589 C 0.6249 0.61561 0.07145 0.0
N590 N 0.59789 0.65987 0.09004 0.0
C591 C 0.62611 0.64924 0.07382 0.0
C592 C 0.61141 0.51216 0.08883 0.0
O593 O 0.55417 0.52669 0.02907 0.0
O594 O 0.58754 0.56737 0.0358 0.0
O595 O 0.61306 0.54307 0.09081 0.0
O596 O 0.58394 0.4995 0.08202 0.0
O597 O 0.56115 0.56721 0.12613 0.0
H598 H 0.64238 0.6 0.05744 0.0
H599 H 0.55546 0.6332 0.10857 0.0
O600 O 0.5344 0.52111 0.12218 0.0
O601 O 0.50415 0.54749 0.07025 0.0
O602 O 0.53411 0.5916 0.07076 0.0
C603 C 0.50587 0.57847 0.06872 0.0
H604 H 0.46915 0.42565 0.07213 0.0
H605 H 0.64502 0.66474 0.06245 0.0
Co606 Co 0.80656 0.3146 0.29807 0.0
C607 C 0.74319 0.29394 0.31988 0.0
Co608 Co 0.79773 0.26544 0.28008 0.0
C609 C 0.83356 0.37853 0.29278 0.0
C610 C 0.81056 0.36949 0.34097 0.0
N611 N 0.8154 0.35651 0.31042 0.0
N612 N 0.84102 0.40429 0.31135 0.0
C613 C 0.82668 0.39884 0.34171 0.0
H614 H 0.84358 0.37445 0.26773 0.0
H615 H 0.79822 0.3573 0.36196 0.0
C616 C 0.8609 0.28676 0.25797 0.0
N617 N 0.7889 0.22306 0.26993 0.0
C618 C 0.77429 0.20292 0.29257 0.0
C619 C 0.79269 0.20534 0.24191 0.0
N620 N 0.76809 0.17358 0.28006 0.0
C621 C 0.77981 0.17459 0.24815 0.0
C622 C 0.77777 0.31112 0.23589 0.0
O623 O 0.85117 0.31089 0.27603 0.0
O624 O 0.84111 0.26288 0.25564 0.0
O625 O 0.77821 0.28056 0.24192 0.0
O626 O 0.78863 0.3306 0.25728 0.0
O627 O 0.75372 0.26868 0.30399 0.0
H628 H 0.80318 0.21445 0.21844 0.0
H629 H 0.76778 0.20984 0.31795 0.0
O630 O 0.76244 0.31828 0.32031 0.0
O631 O 0.82447 0.29826 0.33826 0.0
O632 O 0.81783 0.24948 0.31841 0.0
C633 C 0.82744 0.26737 0.34135 0.0
H634 H 0.82932 0.41404 0.36328 0.0
H635 H 0.77786 0.15514 0.23034 0.0
Co636 Co 0.03591 0.53034 0.51572 0.0
C637 C 0.10416 0.51674 0.52861 0.0
Co638 Co 0.05574 0.5655 0.54991 0.0
C639 C 0.99442 0.51158 0.46505 0.0
C640 C 0.0278 0.47163 0.47687 0.0
N641 N 0.01806 0.5021 0.48636 0.0
N642 N 0.98933 0.48894 0.44207 0.0
C643 C 1.01054 0.46373 0.44902 0.0
H644 H 0.98421 0.53642 0.46352 0.0
H645 H 0.04806 0.45736 0.48756 0.0
C646 C 0.98749 0.5789 0.53755 0.0
N647 N 0.07318 0.59381 0.57899 0.0
C648 C 0.09257 0.58367 0.60387 0.0
C649 C 0.06667 0.62594 0.5844 0.0
N650 N 0.09782 0.60763 0.62541 0.0
C651 C 0.08153 0.63446 0.61343 0.0
C652 C 0.06208 0.58585 0.48514 0.0
O653 O 0.9922 0.55271 0.52105 0.0
O654 O 1.01237 0.58976 0.55264 0.0
O655 O 0.06933 0.59251 0.51465 0.0
O656 O 0.04704 0.55959 0.47955 0.0
O657 O 0.09881 0.54168 0.54693 0.0
H658 H 0.05022 0.6414 0.5697 0.0
H659 H 0.09961 0.55815 0.60819 0.0
O660 O 0.08005 0.50755 0.51121 0.0
O661 O 0.02432 0.50223 0.55088 0.0
O662 O 0.04208 0.53782 0.58624 0.0
C663 C 0.02876 0.51072 0.58057 0.0
H664 H 0.01546 0.44269 0.43332 0.0
H665 H 0.07849 0.65768 0.62603 0.0
Co666 Co 0.81661 0.80434 0.29023 0.0
C667 C 0.80204 0.81879 0.22341 0.0
Co668 Co 0.77274 0.77742 0.27626 0.0
C669 C 0.87813 0.81087 0.32235 0.0
C670 C 0.86062 0.85707 0.30265 0.0
N671 N 0.85383 0.82478 0.30416 0.0
N672 N 0.8994 0.83318 0.33273 0.0
C673 C 0.8886 0.86238 0.32066 0.0
H674 H 0.87914 0.78513 0.32949 0.0
H675 H 0.8454 0.87571 0.29049 0.0
C676 C 0.78753 0.76355 0.34364 0.0
N677 N 0.73367 0.75989 0.26176 0.0
C678 C 0.71379 0.7785 0.24228 0.0
C679 C 0.7165 0.73221 0.26777 0.0
N680 N 0.68534 0.76401 0.23532 0.0
C681 C 0.68637 0.73479 0.25152 0.0
C682 C 0.8302 0.74155 0.26584 0.0
O683 O 0.8096 0.78483 0.33587 0.0
O684 O 0.76743 0.75605 0.32093 0.0
O685 O 0.79882 0.74082 0.26181 0.0
O686 O 0.84271 0.76701 0.27774 0.0
O687 O 0.77893 0.79897 0.23154 0.0
H688 H 0.72484 0.712 0.28348 0.0
H689 H 0.7192 0.8034 0.23451 0.0
O690 O 0.82356 0.82396 0.24531 0.0
O691 O 0.79067 0.84131 0.30189 0.0
O692 O 0.74656 0.81395 0.29052 0.0
C693 C 0.75942 0.84048 0.29859 0.0
H694 H 0.89973 0.88575 0.32517 0.0
H695 H 0.6669 0.71684 0.2517 0.0
Co696 Co 0.79396 0.32373 0.78385 0.0
C697 C 0.80612 0.26029 0.76791 0.0
Co698 Co 0.76276 0.30849 0.74316 0.0
C699 C 0.80747 0.35606 0.84337 0.0
C700 C 0.85086 0.32926 0.82509 0.0
N701 N 0.81904 0.33767 0.81783 0.0
N702 N 0.83044 0.35898 0.86664 0.0
C703 C 0.85779 0.34199 0.85557 0.0
H704 H 0.78177 0.36491 0.84617 0.0
H705 H 0.86723 0.31339 0.81014 0.0
C706 C 0.7522 0.37281 0.75933 0.0
N707 N 0.73837 0.29395 0.70829 0.0
C708 C 0.74991 0.26993 0.68813 0.0
C709 C 0.71166 0.30721 0.69282 0.0
N710 N 0.73245 0.26788 0.66041 0.0
C711 C 0.70839 0.29155 0.66285 0.0
C712 C 0.73192 0.30073 0.80462 0.0
O713 O 0.77509 0.36581 0.77944 0.0
O714 O 0.74253 0.3511 0.73975 0.0
O715 O 0.72851 0.29662 0.77365 0.0
O716 O 0.75891 0.31231 0.81467 0.0
O717 O 0.7832 0.26614 0.74756 0.0
H718 H 0.69757 0.32876 0.70105 0.0
H719 H 0.77371 0.25715 0.69104 0.0
O720 O 0.81341 0.28212 0.78819 0.0
O721 O 0.82829 0.33421 0.75367 0.0
O722 O 0.79804 0.31992 0.71204 0.0
C723 C 0.82571 0.32903 0.72287 0.0
H724 H 0.88033 0.33768 0.86935 0.0
H725 H 0.6919 0.29901 0.64313 0.0
Co726 Co 0.79371 0.77531 0.79828 0.0
C727 C 0.86272 0.78921 0.80825 0.0
Co728 Co 0.80944 0.81972 0.7724 0.0
C729 C 0.75583 0.71794 0.81311 0.0
C730 C 0.78786 0.72954 0.85265 0.0
N731 N 0.78031 0.73813 0.82111 0.0
N732 N 0.74724 0.6977 0.83869 0.0
C733 C 0.76738 0.70472 0.86361 0.0
H734 H 0.743 0.7195 0.7898 0.0
H735 H 0.80566 0.74187 0.86744 0.0
C736 C 0.74084 0.80631 0.76232 0.0
N737 N 0.82181 0.85773 0.75131 0.0
C738 C 0.83944 0.8803 0.76642 0.0
C739 C 0.80993 0.87295 0.72391 0.0
N740 N 0.8378 0.90965 0.7508 0.0
C741 C 0.81978 0.90512 0.72354 0.0
C742 C 0.81178 0.76493 0.72899 0.0
O743 O 0.7473 0.78274 0.78265 0.0
O744 O 0.76389 0.82686 0.75657 0.0
O745 O 0.81884 0.79521 0.73133 0.0
O746 O 0.80282 0.74988 0.7561 0.0
O747 O 0.85572 0.8127 0.78802 0.0
H748 H 0.79302 0.86223 0.70694 0.0
H749 H 0.85134 0.87567 0.78987 0.0
O750 O 0.83997 0.76817 0.81408 0.0
O751 O 0.78456 0.80045 0.8398 0.0
O752 O 0.79956 0.84503 0.81384 0.0
C753 C 0.79087 0.8309 0.84125 0.0
H754 H 0.76671 0.69333 0.88818 0.0
H755 H 0.81212 0.92413 0.70605 0.0
Co756 Co 0.53801 0.55953 0.5094 0.0
C757 C 0.53585 0.60323 0.56551 0.0
Co758 Co 0.55247 0.53483 0.55503 0.0
C759 C 0.49634 0.57481 0.45651 0.0
C760 C 0.52899 0.61415 0.46519 0.0
N761 N 0.52406 0.58219 0.47237 0.0
N762 N 0.48193 0.60134 0.44193 0.0
C763 C 0.50304 0.62604 0.44649 0.0
H764 H 0.48559 0.55082 0.45828 0.0
H765 H 0.54789 0.62874 0.47603 0.0
C766 C 0.5546 0.49155 0.49827 0.0
N767 N 0.56467 0.51292 0.59312 0.0
C768 C 0.57359 0.52668 0.62156 0.0
C769 C 0.56155 0.4807 0.60068 0.0
N770 N 0.57542 0.50459 0.64661 0.0
C771 C 0.56841 0.47545 0.63372 0.0
C772 C 0.48407 0.52478 0.5417 0.0
O773 O 0.54601 0.51829 0.48317 0.0
O774 O 0.56147 0.49394 0.52903 0.0
O775 O 0.50658 0.51879 0.56286 0.0
O776 O 0.49152 0.54477 0.5181 0.0
O777 O 0.5432 0.57654 0.58113 0.0
H778 H 0.55289 0.4625 0.58392 0.0
H779 H 0.57756 0.55261 0.6244 0.0
O780 O 0.53004 0.60042 0.53471 0.0
O781 O 0.58395 0.5744 0.50106 0.0
O782 O 0.59888 0.55045 0.54749 0.0
C783 C 0.60629 0.56947 0.52277 0.0
H784 H 0.49921 0.65137 0.43886 0.0
H785 H 0.56639 0.45258 0.64766 0.0
Co786 Co 0.03383 0.53989 0.02937 0.0
C787 C 0.05603 0.60257 0.00725 0.0
Co788 Co 0.08532 0.54688 0.04361 0.0
C789 C 0.9692 0.51286 0.03387 0.0
C790 C 0.97708 0.54057 0.9886 0.0
N791 N 0.99064 0.53326 0.01824 0.0
N792 N 0.94353 0.50607 0.01465 0.0
C793 C 0.94811 0.52353 0.9862 0.0
H794 H 0.97402 0.50051 0.05738 0.0
H795 H 0.98908 0.55481 0.96882 0.0
C796 C 0.06148 0.48396 0.06608 0.0
N797 N 0.1304 0.55249 0.05151 0.0
C798 C 0.14812 0.57885 0.04152 0.0
C799 C 0.15343 0.52777 0.05333 0.0
N800 N 0.18065 0.5712 0.03481 0.0
C801 C 0.18421 0.53915 0.04311 0.0
C802 C 0.04034 0.56871 0.09062 0.0
O803 O 0.0367 0.4946 0.04939 0.0
O804 O 0.08606 0.50329 0.06805 0.0
O805 O 0.07151 0.56741 0.08321 0.0
O806 O 0.01966 0.55704 0.07083 0.0
O807 O 0.08306 0.59069 0.01922 0.0
H808 H 0.14779 0.5022 0.05735 0.0
H809 H 0.13693 0.60272 0.03662 0.0
O810 O 0.0306 0.5844 0.00962 0.0
O811 O 0.0481 0.52298 0.98811 0.0
O812 O 0.09938 0.52631 0.00414 0.0
C813 C 0.0791 0.51817 0.98255 0.0
H814 H 0.93289 0.52226 0.96449 0.0
H815 H 0.20655 0.52405 0.0389 0.0
C816 C 0.04664 0.17399 0.12739 0.0
C817 C 0.04897 0.20182 0.10577 0.0
H818 H 0.04179 0.12109 0.13234 0.0
C819 C 0.04545 0.19571 0.07147 0.0
H820 H 0.04958 0.17696 0.15387 0.0
C821 C 0.04024 0.16388 0.05921 0.0
C822 C 0.03899 0.13578 0.08032 0.0
H823 H 0.04709 0.21586 0.0536 0.0
H824 H 0.03827 0.16126 0.03254 0.0
C825 C 0.04221 0.14163 0.11488 0.0
C826 C 0.15527 0.76584 0.34796 0.0
C827 C 0.15582 0.77407 0.38173 0.0
H828 H 0.18202 0.76377 0.30115 0.0
C829 C 0.1859 0.7837 0.39516 0.0
H830 H 0.13246 0.75798 0.33707 0.0
C831 C 0.21444 0.78727 0.37443 0.0
C832 C 0.21321 0.781 0.34013 0.0
H833 H 0.1869 0.79016 0.42117 0.0
H834 H 0.23696 0.79627 0.38496 0.0
C835 C 0.18369 0.76915 0.32738 0.0
C836 C 0.55059 0.89353 0.5852 0.0
C837 C 0.56049 0.88746 0.61831 0.0
H838 H 0.54269 0.92866 0.54505 0.0
C839 C 0.57212 0.91501 0.63523 0.0
H840 H 0.54118 0.87359 0.57103 0.0
C841 C 0.57416 0.94679 0.61973 0.0
C842 C 0.56339 0.95301 0.58691 0.0
H843 H 0.57995 0.91197 0.66069 0.0
H844 H 0.58335 0.9668 0.63395 0.0
C845 C 0.55139 0.92551 0.57018 0.0
C846 C 0.44318 0.33526 0.91142 0.0
C847 C 0.46506 0.30863 0.90428 0.0
H848 H 0.40243 0.36572 0.89425 0.0
C849 C 0.46237 0.29169 0.87438 0.0
H850 H 0.44521 0.34889 0.93419 0.0
C851 C 0.43798 0.30106 0.85201 0.0
C852 C 0.41652 0.32801 0.85876 0.0
H853 H 0.47911 0.27115 0.86835 0.0
H854 H 0.43598 0.2875 0.82921 0.0
C855 C 0.41923 0.34516 0.88853 0.0
C856 C 0.0395 0.84484 0.51795 0.0
C857 C 0.05695 0.85104 0.48752 0.0
H858 H 0.01665 0.86558 0.5624 0.0
C859 C 0.06392 0.88347 0.47814 0.0
H860 H 0.03361 0.82002 0.52568 0.0
C861 C 0.05437 0.90918 0.49906 0.0
C862 C 0.03749 0.90307 0.52974 0.0
H863 H 0.07708 0.88904 0.45476 0.0
H864 H 0.0602 0.93398 0.49119 0.0
C865 C 0.02961 0.87077 0.53884 0.0
C866 C 0.45639 0.79979 0.73928 0.0
C867 C 0.46036 0.79127 0.70542 0.0
H868 H 0.42314 0.80524 0.78233 0.0
C869 C 0.43199 0.77978 0.68969 0.0
H870 H 0.47744 0.80881 0.75234 0.0
C871 C 0.40091 0.77648 0.70742 0.0
C872 C 0.39688 0.78572 0.74111 0.0
H873 H 0.43394 0.77287 0.66374 0.0
H874 H 0.37977 0.76748 0.69448 0.0
C875 C 0.42512 0.79771 0.75656 0.0
C876 C 0.55272 0.16759 0.94073 0.0
C877 C 0.57232 0.19091 0.95556 0.0
H878 H 0.53825 0.11738 0.94132 0.0
C879 C 0.59788 0.18079 0.9766 0.0
H880 H 0.53279 0.17528 0.92449 0.0
C881 C 0.60124 0.14791 0.98596 0.0
C882 C 0.57867 0.12507 0.97473 0.0
H883 H 0.61318 0.19866 0.98815 0.0
H884 H 0.61899 0.14105 0.00481 0.0
C885 C 0.55604 0.13455 0.95015 0.0
C886 C 0.15176 0.28593 0.22722 0.0
C887 C 0.15175 0.30385 0.19668 0.0
H888 H 0.17878 0.27143 0.27125 0.0
C889 C 0.18001 0.32311 0.18932 0.0
H890 H 0.13084 0.27058 0.23402 0.0
C891 C 0.20704 0.32432 0.21106 0.0
C892 C 0.20776 0.30571 0.24107 0.0
H893 H 0.18141 0.33741 0.16634 0.0
H894 H 0.2281 0.33924 0.20361 0.0
C895 C 0.17944 0.28644 0.24873 0.0
C896 C 0.10786 0.99568 0.23253 0.0
C897 C 0.09307 0.02392 0.24703 0.0
H898 H 0.1138 0.96657 0.18873 0.0
C899 C 0.07131 0.04402 0.22866 0.0
H900 H 0.12453 0.97965 0.24648 0.0
C901 C 0.06571 0.03672 0.19554 0.0
C902 C 0.08125 1.00893 0.18085 0.0
H903 H 0.0597 0.06587 0.23946 0.0
H904 H 0.04939 0.0528 0.18131 0.0
C905 C 0.10171 0.98807 0.19974 0.0
C906 C 0.3063 0.85236 0.46958 0.0
C907 C 0.29064 0.88347 0.47281 0.0
H908 H 0.33379 0.81919 0.43744 0.0
C909 C 0.29128 0.90554 0.4456 0.0
H910 H 0.30599 0.83468 0.48999 0.0
C911 C 0.30696 0.89636 0.4155 0.0
C912 C 0.32279 0.86541 0.41257 0.0
H913 H 0.27951 0.92971 0.44747 0.0
H914 H 0.30625 0.91304 0.39423 0.0
C915 C 0.32266 0.84359 0.4398 0.0
C916 C 0.51704 0.0991 0.6751 0.0
C917 C 0.485 0.0877 0.68305 0.0
H918 H 0.55569 0.1036 0.63766 0.0
C919 C 0.46433 0.07807 0.65766 0.0
H920 H 0.53305 0.10719 0.69442 0.0
C921 C 0.47741 0.07548 0.62516 0.0
C922 C 0.51105 0.08279 0.61809 0.0
H923 H 0.43939 0.06937 0.66344 0.0
H924 H 0.46216 0.06508 0.60641 0.0
C925 C 0.52994 0.09692 0.64268 0.0
C926 C 0.27554 0.20056 0.91466 0.0
C927 C 0.28561 0.21658 0.94356 0.0
H928 H 0.26464 0.20394 0.86224 0.0
C929 C 0.29255 0.25031 0.9397 0.0
H930 H 0.26998 0.17471 0.91612 0.0
C931 C 0.29054 0.26693 0.9083 0.0
C932 C 0.2802 0.25101 0.87945 0.0
H933 H 0.30063 0.26378 0.96088 0.0
H934 H 0.2971 0.29252 0.90665 0.0
C935 C 0.27232 0.2175 0.88353 0.0
C936 C 0.14341 0.04051 0.44227 0.0
C937 C 0.12359 0.02635 0.41858 0.0
H938 H 0.14618 0.0565 0.49261 0.0
C939 C 0.09116 0.01645 0.42758 0.0
H940 H 0.16845 0.04842 0.43563 0.0
C941 C 0.07875 0.02032 0.46015 0.0
C942 C 0.0983 0.03506 0.48373 0.0
H943 H 0.07558 1.00533 0.40956 0.0
H944 H 0.05375 0.01226 0.46675 0.0
C945 C 0.13063 0.04528 0.47462 0.0
C946 C 0.28324 0.8718 0.66946 0.0
C947 C 0.28008 0.85009 0.64303 0.0
H948 H 0.28506 0.87691 0.72227 0.0
C949 C 0.27039 0.8178 0.64975 0.0
H950 H 0.29014 0.89703 0.66481 0.0
C951 C 0.26676 0.80651 0.68247 0.0
C952 C 0.27337 0.8272 0.70894 0.0
H953 H 0.26682 0.80088 0.62973 0.0
H954 H 0.26114 0.78091 0.68682 0.0
C955 C 0.28004 0.86037 0.7023 0.0
C956 C 0.49242 0.03468 0.84945 0.0
C957 C 0.46051 0.04997 0.85182 0.0
H958 H 0.52966 1.00581 0.8744 0.0
C959 C 0.44002 0.04472 0.88035 0.0
H960 H 0.50883 0.03825 0.82777 0.0
C961 C 0.45218 0.02612 0.90694 0.0
C962 C 0.48462 0.01219 0.90503 0.0
H963 H 0.41519 0.05589 0.88263 0.0
H964 H 0.43718 0.02423 0.92987 0.0
C965 C 0.50421 0.01558 0.87575 0.0
C966 C 0.2997 0.20242 0.15579 0.0
C967 C 0.29843 0.22344 0.12733 0.0
H968 H 0.30396 0.19805 0.20953 0.0
C969 C 0.30337 0.25709 0.13294 0.0
H970 H 0.29561 0.17647 0.15311 0.0
C971 C 0.3089 0.26935 0.16504 0.0
C972 C 0.30902 0.24886 0.19381 0.0
H973 H 0.30253 0.27442 0.11221 0.0
H974 H 0.31189 0.29554 0.16735 0.0
C975 C 0.30445 0.21495 0.18842 0.0
C976 C 0.16829 0.13896 1.00302 0.0
C977 C 0.19594 0.13222 0.02332 0.0
H978 H 0.12055 0.12445 0.98599 0.0
C979 C 0.19525 0.10248 0.04202 0.0
H980 H 0.1674 0.16135 0.98812 0.0
C981 C 0.16746 0.08121 0.04132 0.0
C982 C 0.13969 0.0883 0.02111 0.0
H983 H 0.21561 0.09618 0.05822 0.0
H984 H 0.16755 0.05937 0.05703 0.0
C985 C 0.14116 0.11744 1.00163 0.0
C986 C 0.66841 0.43862 0.07775 0.0
C987 C 0.69977 0.45297 0.07867 0.0
H988 H 0.61556 0.44617 0.08114 0.0
C989 C 0.70203 0.48591 0.08778 0.0
H990 H 0.66611 0.41309 0.07132 0.0
C991 C 0.67306 0.505 0.09329 0.0
C992 C 0.64162 0.4912 0.08994 0.0
H993 H 0.72606 0.4974 0.08896 0.0
H994 H 0.67532 0.53083 0.09846 0.0
C995 C 0.63952 0.45756 0.08352 0.0
C996 C 0.91714 0.45457 0.31525 0.0
C997 C 0.91523 0.47327 0.28564 0.0
H998 H 0.89405 0.41835 0.34701 0.0
C999 C 0.88867 0.46873 0.26436 0.0
H1000 H 0.93706 0.45808 0.33237 0.0
C1001 C 0.86435 0.44572 0.27264 0.0
C1002 C 0.86576 0.42792 0.30277 0.0
H1003 H 0.8866 0.48314 0.24155 0.0
H1004 H 0.84403 0.44229 0.25601 0.0
C1005 C 0.89237 0.43233 0.32391 0.0
C1006 C 0.89241 0.5948 0.53313 0.0
C1007 C 0.88871 0.62907 0.53678 0.0
H1008 H 0.92574 0.55256 0.52989 0.0
C1009 C 0.91807 0.64672 0.54144 0.0
H1010 H 0.87067 0.58022 0.52933 0.0
C1011 C 0.94987 0.63057 0.5427 0.0
C1012 C 0.95354 0.59634 0.53836 0.0
H1013 H 0.91646 0.67308 0.54435 0.0
H1014 H 0.97173 0.64506 0.54627 0.0
C1015 C 0.92419 0.57885 0.53341 0.0
C1016 C 0.17646 0.14466 0.36827 0.0
C1017 C 0.17276 0.12471 0.34061 0.0
H1018 H 0.20442 0.18303 0.38922 0.0
C1019 C 0.19297 0.12948 0.31174 0.0
H1020 H 0.1613 0.14102 0.39086 0.0
C1021 C 0.21713 0.15342 0.31069 0.0
C1022 C 0.222 0.17242 0.33876 0.0
H1023 H 0.19051 0.11419 0.29017 0.0
H1024 H 0.23285 0.15633 0.28837 0.0
C1025 C 0.20128 0.16821 0.36747 0.0
C1026 C 0.36921 0.96172 0.50908 0.0
C1027 C 0.37783 0.93069 0.52247 0.0
H1028 H 0.38694 1.00798 0.49067 0.0
C1029 C 0.41153 0.9215 0.52573 0.0
H1030 H 0.34324 0.96902 0.50591 0.0
C1031 C 0.43628 0.94397 0.51748 0.0
C1032 C 0.42754 0.97537 0.50511 0.0
H1033 H 0.41859 0.8976 0.53584 0.0
H1034 H 0.46224 0.93712 0.52125 0.0
C1035 C 0.39398 0.98381 0.50008 0.0
C1036 C 0.90463 0.68322 0.26927 0.0
C1037 C 0.89036 0.65339 0.26135 0.0
H1038 H 0.89691 0.73464 0.27629 0.0
C1039 C 0.85712 0.65334 0.25115 0.0
H1040 H 0.93031 0.68403 0.27688 0.0
C1041 C 0.83784 0.68241 0.25087 0.0
C1042 C 0.8516 0.71196 0.26063 0.0
H1043 H 0.84556 0.63067 0.24473 0.0
H1044 H 0.81184 0.68146 0.24433 0.0
C1045 C 0.88547 0.71224 0.26882 0.0
C1046 C 0.68033 0.4285 0.78368 0.0
C1047 C 0.69738 0.45574 0.79469 0.0
H1048 H 0.68476 0.38088 0.76187 0.0
C1049 C 0.73205 0.45749 0.7887 0.0
H1050 H 0.65346 0.42697 0.78748 0.0
C1051 C 0.7498 0.43131 0.77413 0.0
C1052 C 0.73303 0.40338 0.76462 0.0
H1053 H 0.74569 0.47843 0.79663 0.0
H1054 H 0.77685 0.43214 0.77187 0.0
C1055 C 0.69806 0.40255 0.76839 0.0
C1056 C 0.05154 0.89491 0.98626 0.0
C1057 C 0.04886 0.89115 0.95145 0.0
H1058 H 0.05677 0.92737 0.02769 0.0
C1059 C 0.04953 0.92062 0.93212 0.0
H1060 H 0.0514 0.87339 1.00244 0.0
C1061 C 0.05226 0.95209 0.94682 0.0
C1062 C 0.05535 0.95581 0.98162 0.0
H1063 H 0.04767 0.91944 0.90532 0.0
H1064 H 0.05205 0.97366 0.93071 0.0
C1065 C 0.05495 0.92628 1.00088 0.0
C1066 C 0.91413 0.30413 0.70041 0.0
C1067 C 0.91826 0.31669 0.66787 0.0
H1068 H 0.88171 0.2993 0.74327 0.0
C1069 C 0.89054 0.33121 0.652 0.0
H1070 H 0.93486 0.29268 0.71329 0.0
C1071 C 0.85963 0.33471 0.66929 0.0
C1072 C 0.85667 0.32456 0.70276 0.0
H1073 H 0.89309 0.34105 0.62683 0.0
H1074 H 0.83866 0.34653 0.65712 0.0
C1075 C 0.8838 0.30838 0.71776 0.0
C1076 C 0.5178 0.18557 0.47187 0.0
C1077 C 0.54551 0.2057 0.46462 0.0
H1078 H 0.49922 0.13911 0.48976 0.0
C1079 C 0.57742 0.1915 0.4709 0.0
H1080 H 0.49273 0.19523 0.46795 0.0
C1081 C 0.58114 0.15905 0.48469 0.0
C1082 C 0.5532 0.13905 0.492 0.0
H1083 H 0.5995 0.20594 0.46645 0.0
H1084 H 0.60605 0.14968 0.48982 0.0
C1085 C 0.52155 0.15304 0.48464 0.0
C1086 C 0.64583 0.81784 0.17095 0.0
C1087 C 0.61184 0.81701 0.18072 0.0
H1088 H 0.69545 0.80027 0.17985 0.0
C1089 C 0.60211 0.79678 0.20809 0.0
H1090 H 0.65427 0.83259 0.14974 0.0
C1091 C 0.62596 0.77798 0.22531 0.0
C1092 C 0.65986 0.77923 0.21551 0.0
H1093 H 0.57604 0.79512 0.216 0.0
H1094 H 0.61811 0.76322 0.24671 0.0
C1095 C 0.66943 0.79909 0.18802 0.0
C1096 C 0.03161 0.23424 0.5969 0.0
C1097 C 0.0462 0.25981 0.57811 0.0
H1098 H 0.03518 0.18447 0.61304 0.0
C1099 C 0.07407 0.25257 0.55687 0.0
H1100 H 1.01023 0.2388 0.61367 0.0
C1101 C 0.08842 0.22096 0.55632 0.0
C1102 C 0.07522 0.19598 0.57702 0.0
H1103 H 0.08593 0.27166 0.54196 0.0
H1104 H 0.11017 0.21635 0.54015 0.0
C1105 C 0.04614 0.20287 0.59665 0.0
C1106 C 0.65113 0.27599 0.34376 0.0
C1107 C 0.64411 0.29661 0.37117 0.0
H1108 H 0.68744 0.2583 0.3069 0.0
C1109 C 0.67026 0.31615 0.38165 0.0
H1110 H 0.63182 0.26056 0.33484 0.0
C1111 C 0.70201 0.31561 0.36489 0.0
C1112 C 0.70911 0.2948 0.33764 0.0
H1113 H 0.66598 0.33249 0.40245 0.0
H1114 H 0.72118 0.33135 0.37356 0.0
C1115 C 0.68317 0.2747 0.32766 0.0
C1116 C 0.49129 0.93104 0.10207 0.0
C1117 C 0.5102 0.92336 0.12994 0.0
H1118 H 0.48113 0.96594 0.06345 0.0
C1119 C 0.52941 0.94728 0.14422 0.0
H1120 H 0.47604 0.91276 0.0911 0.0
C1121 C 0.53246 0.97787 0.1283 0.0
C1122 C 0.51633 0.98413 0.09819 0.0
H1123 H 0.54412 0.94144 0.1658 0.0
H1124 H 0.54965 0.99527 0.13779 0.0
C1125 C 0.4942 0.96134 0.08634 0.0
C1126 C 0.92318 0.77525 0.88089 0.0
C1127 C 0.95118 0.79455 0.8722 0.0
H1128 H 0.87506 0.75758 0.86809 0.0
C1129 C 0.95068 0.81056 0.84064 0.0
H1130 H 0.92206 0.76251 0.90479 0.0
C1131 C 0.92277 0.80832 0.81953 0.0
C1132 C 0.89464 0.78915 0.82856 0.0
H1133 H 0.97122 0.826 0.83283 0.0
H1134 H 0.92303 0.82214 0.79625 0.0
C1135 C 0.89594 0.77226 0.85953 0.0
C1136 C 0.91257 0.13083 0.89105 0.0
C1137 C 0.90076 0.10123 0.87944 0.0
H1138 H 0.94983 0.15329 0.91898 0.0
C1139 C 0.90922 0.07192 0.89594 0.0
H1140 H 0.90585 0.15386 0.87879 0.0
C1141 C 0.93541 0.07117 0.91781 0.0
C1142 C 0.95247 0.1001 0.92423 0.0
H1143 H 0.89994 0.04883 0.88751 0.0
H1144 H 0.94402 0.04739 0.92668 0.0
C1145 C 0.93874 0.13029 0.9131 0.0
C1146 C 0.78558 0.26578 0.58417 0.0
C1147 C 0.80063 0.23431 0.58736 0.0
H1148 H 0.74996 0.30071 0.60451 0.0
C1149 C 0.78719 0.21205 0.61098 0.0
H1150 H 0.79484 0.28339 0.56581 0.0
C1151 C 0.76092 0.22196 0.63257 0.0
C1152 C 0.74774 0.25419 0.63095 0.0
H1153 H 0.79772 0.18743 0.61362 0.0
H1154 H 0.75275 0.20544 0.65246 0.0
C1155 C 0.75919 0.27551 0.60563 0.0
C1156 C 0.65812 1.00541 0.42399 0.0
C1157 C 0.63809 0.99482 0.39859 0.0
H1158 H 0.65865 0.02254 0.47409 0.0
C1159 C 0.60455 0.98755 0.40534 0.0
H1160 H 0.68411 0.01117 0.41888 0.0
C1161 C 0.59011 0.99379 0.43647 0.0
C1162 C 0.60903 1.00782 0.46103 0.0
H1163 H 0.58896 0.97896 0.38588 0.0
H1164 H 0.56363 0.98958 0.44053 0.0
C1165 C 0.64353 0.01204 0.4553 0.0
C1166 C 0.83351 0.86615 0.14429 0.0
C1167 C 0.80513 0.86856 0.12422 0.0
H1168 H 0.85492 0.84969 0.19047 0.0
C1169 C 0.7754 0.85495 0.13765 0.0
H1170 H 0.85713 0.87551 0.13477 0.0
C1171 C 0.77442 0.83898 0.16948 0.0
C1172 C 0.80299 0.83632 0.18939 0.0
H1173 H 0.75322 0.8553 0.12291 0.0
H1174 H 0.75116 0.82843 0.17841 0.0
C1175 C 0.83234 0.85092 0.17633 0.0
C1176 C 1.00493 0.03579 0.72224 0.0
C1177 C 0.99153 0.06716 0.7294 0.0
H1178 H 0.03105 1.00558 0.68619 0.0
C1179 C 0.99662 0.09321 0.70678 0.0
H1180 H 1.00091 0.01533 0.73937 0.0
C1181 C 0.01453 0.08782 0.67695 0.0
C1182 C 0.02651 0.0561 0.6691 0.0
H1183 H 0.98636 0.11754 0.71199 0.0
H1184 H 0.01769 0.10808 0.65939 0.0
C1185 C 0.02191 0.03017 0.69195 0.0
C1186 C 0.84279 0.2533 0.43213 0.0
C1187 C 0.84718 0.21897 0.43335 0.0
H1188 H 0.83367 0.29587 0.40161 0.0
C1189 C 0.84899 0.20129 0.40374 0.0
H1190 H 0.84182 0.26755 0.45471 0.0
C1191 C 0.84446 0.21753 0.37342 0.0
C1192 C 0.83822 0.25166 0.37235 0.0
H1193 H 0.85272 0.17487 0.40407 0.0
H1194 H 0.84462 0.20315 0.35094 0.0
C1195 C 0.83845 0.26958 0.40179 0.0
C1196 C 0.63255 0.05253 0.20849 0.0
C1197 C 0.61356 0.06273 0.23668 0.0
H1198 H 0.64084 0.05769 0.15583 0.0
C1199 C 0.58903 0.08787 0.23326 0.0
H1200 H 0.65206 0.03371 0.21031 0.0
C1201 C 0.58293 0.10176 0.20204 0.0
C1202 C 0.60115 0.09065 0.17383 0.0
H1203 H 0.57423 0.09659 0.25459 0.0
H1204 H 0.56295 0.12001 0.19973 0.0
C1205 C 0.62643 0.06646 0.17739 0.0
C1206 C 0.79759 0.89916 0.90761 0.0
C1207 C 0.79833 0.88151 0.93828 0.0
H1208 H 0.79501 0.89787 0.85389 0.0
C1209 C 0.79564 0.84704 0.93636 0.0
H1210 H 0.79947 0.92561 0.90748 0.0
C1211 C 0.7922 0.83107 0.90545 0.0
C1212 C 0.79177 0.84865 0.87472 0.0
H1213 H 0.79586 0.8322 0.95899 0.0
H1214 H 0.79046 0.8046 0.90564 0.0
C1215 C 0.79479 0.88311 0.87658 0.0
C1216 C 0.926 0.9506 0.05333 0.0
C1217 C 0.89832 0.95969 0.03388 0.0
H1218 H 0.9738 0.963 0.07197 0.0
C1219 C 0.89876 0.99129 0.01884 0.0
H1220 H 0.92698 0.92665 0.0654 0.0
C1221 C 0.92647 0.01219 0.02202 0.0
C1222 C 0.9543 1.00279 0.04132 0.0
H1223 H 0.87834 0.99935 1.00341 0.0
H1224 H 0.92635 0.03558 0.00882 0.0
C1225 C 0.95303 0.97174 0.05733 0.0
C1226 C 0.41478 0.60331 0.06455 0.0
C1227 C 0.41652 0.63677 0.05597 0.0
H1228 H 0.44169 0.5586 0.07479 0.0
C1229 C 0.44779 0.6517 0.05443 0.0
H1230 H 0.39102 0.59113 0.06612 0.0
C1231 C 0.47699 0.63293 0.05936 0.0
C1232 C 0.47526 0.59897 0.06567 0.0
H1233 H 0.44985 0.67746 0.0478 0.0
H1234 H 0.50092 0.64477 0.05707 0.0
C1235 C 0.44385 0.58456 0.06919 0.0
C1236 C 0.19519 0.63684 0.82665 0.0
C1237 C 0.19961 0.60358 0.81885 0.0
H1238 H 0.21294 0.68547 0.81881 0.0
C1239 C 0.22807 0.59354 0.7994 0.0
H1240 H 0.17357 0.64541 0.84136 0.0
C1241 C 0.25002 0.61653 0.78584 0.0
C1242 C 0.24454 0.6498 0.79223 0.0
H1243 H 0.23249 0.56806 0.79297 0.0
H1244 H 0.27099 0.60845 0.76996 0.0
C1245 C 0.2176 0.65974 0.81356 0.0
C1246 C 0.17401 0.45005 0.51581 0.0
C1247 C 0.20183 0.46399 0.53047 0.0
H1248 H 0.12211 0.45543 0.50311 0.0
C1249 C 0.19695 0.49543 0.54425 0.0
H1250 H 0.17655 0.42605 0.5047 0.0
C1251 C 0.16557 0.5122 0.54361 0.0
C1252 C 0.13781 0.49853 0.52861 0.0
H1253 H 0.2175 0.50723 0.5557 0.0
H1254 H 0.16318 0.53619 0.55476 0.0
C1255 C 0.14267 0.46708 0.5147 0.0
C1256 C 0.86751 0.99553 0.75534 0.0
C1257 C 0.87472 0.99727 0.78929 0.0
H1258 H 0.85092 0.96566 0.71619 0.0
C1259 C 0.86738 0.97091 0.81075 0.0
H1260 H 0.87323 0.01562 0.73823 0.0
C1261 C 0.85408 0.94269 0.79827 0.0
C1262 C 0.84876 0.93995 0.76388 0.0
H1263 H 0.87236 0.97195 0.83708 0.0
H1264 H 0.84836 0.92299 0.81574 0.0
C1265 C 0.85483 0.96697 0.74267 0.0
C1266 C 0.7191 0.16992 0.551 0.0
C1267 C 0.74095 0.16 0.52467 0.0
H1268 H 0.67985 0.15593 0.58578 0.0
C1269 C 0.73908 0.12811 0.51235 0.0
H1270 H 0.72064 0.19416 0.56145 0.0
C1271 C 0.71573 0.10647 0.52615 0.0
C1272 C 0.69467 0.11601 0.55315 0.0
H1273 H 0.75602 0.11979 0.4924 0.0
H1274 H 0.7145 0.082 0.51624 0.0
C1275 C 0.69635 0.14795 0.56537 0.0
C1276 C 0.17783 0.40469 0.78535 0.0
C1277 C 0.19459 0.43383 0.77754 0.0
H1278 H 0.18251 0.35402 0.79991 0.0
C1279 C 0.2297 0.43377 0.77791 0.0
H1280 H 0.15077 0.4041 0.78566 0.0
C1281 C 0.24762 0.40573 0.78749 0.0
C1282 C 0.23093 0.37682 0.7961 0.0
H1283 H 0.24343 0.45584 0.77222 0.0
H1284 H 0.27467 0.40662 0.78745 0.0
C1285 C 0.19591 0.37631 0.79432 0.0
C1286 C 0.39455 0.69964 0.28072 0.0
C1287 C 0.38553 0.67344 0.2609 0.0
H1288 H 0.37933 0.74498 0.30302 0.0
C1289 C 0.35504 0.67527 0.24457 0.0
H1290 H 0.41799 0.69903 0.29348 0.0
C1291 C 0.33267 0.70147 0.25042 0.0
C1292 C 0.34049 0.72609 0.27271 0.0
H1293 H 0.34744 0.65544 0.22911 0.0
H1294 H 0.30887 0.70191 0.2383 0.0
C1295 C 0.37208 0.72559 0.28684 0.0
C1296 C 0.54649 0.67599 0.62772 0.0
C1297 C 0.54972 0.7037 0.60604 0.0
H1298 H 0.54036 0.62324 0.63286 0.0
C1299 C 0.5465 0.69748 0.5717 0.0
H1300 H 0.54911 0.679 0.65425 0.0
C1301 C 0.54067 0.66572 0.55951 0.0
C1302 C 0.53848 0.63772 0.58072 0.0
H1303 H 0.54879 0.7175 0.55375 0.0
H1304 H 0.53894 0.66304 0.53283 0.0
C1305 C 0.54148 0.64367 0.6153 0.0
C1306 C 0.64538 0.28146 0.83772 0.0
C1307 C 0.64731 0.28926 0.87151 0.0
H1308 H 0.67072 0.27856 0.7902 0.0
C1309 C 0.67808 0.2983 0.88389 0.0
H1310 H 0.62203 0.2741 0.82755 0.0
C1311 C 0.70612 0.30099 0.86236 0.0
C1312 C 0.70376 0.29446 0.82824 0.0
H1313 H 0.68021 0.30438 0.90989 0.0
H1314 H 0.72932 0.30908 0.87226 0.0
C1315 C 0.67332 0.28394 0.81632 0.0
C1316 C 0.0726 0.41209 0.13095 0.0
C1317 C 0.05854 0.38485 0.11559 0.0
H1318 H 0.08577 0.4633 0.12769 0.0
C1319 C 0.04606 0.39081 0.0834 0.0
H1320 H 0.08244 0.40907 0.15564 0.0
C1321 C 0.04676 0.42253 0.06781 0.0
C1322 C 0.06127 0.44966 0.08293 0.0
H1323 H 0.03474 0.37104 0.07051 0.0
H1324 H 0.03611 0.42573 0.04349 0.0
C1325 C 0.07457 0.44348 0.11475 0.0
C1326 C 0.95092 0.83522 0.40829 0.0
C1327 C 0.97428 0.80972 0.40142 0.0
H1328 H 0.90885 0.86346 0.39057 0.0
C1329 C 0.97346 0.79316 0.37107 0.0
H1330 H 0.95131 0.8484 0.43149 0.0
C1331 C 0.9491 0.80135 0.34828 0.0
C1332 C 0.92584 0.8268 0.35506 0.0
H1333 H 0.99118 0.77331 0.36531 0.0
H1334 H 0.9482 0.78779 0.32536 0.0
C1335 C 0.92704 0.84402 0.38494 0.0
C1336 C 0.54354 0.39337 0.96767 0.0
C1337 C 0.54405 0.36075 0.97922 0.0
H1338 H 0.53288 0.44356 0.97962 0.0
C1339 C 0.53105 0.3534 0.01147 0.0
H1340 H 0.55304 0.39972 0.94285 0.0
C1341 C 0.51907 0.37851 0.03233 0.0
C1342 C 0.52035 0.41122 0.02131 0.0
H1343 H 0.53088 0.32837 0.02092 0.0
H1344 H 0.51054 0.37262 0.05758 0.0
C1345 C 0.5319 0.41838 0.98859 0.0
C1346 C 0.95425 0.30091 0.2377 0.0
C1347 C 0.95848 0.291 0.20426 0.0
H1348 H 0.9206 0.30824 0.28021 0.0
C1349 C 0.93018 0.27904 0.18879 0.0
H1350 H 0.97524 0.31036 0.25053 0.0
C1351 C 0.89895 0.27657 0.20639 0.0
C1352 C 0.89463 0.28719 0.23963 0.0
H1353 H 0.93231 0.27109 0.16317 0.0
H1354 H 0.87788 0.26711 0.19367 0.0
C1355 C 0.92279 0.29968 0.2548 0.0
C1356 C 0.02699 0.66058 0.44752 0.0
C1357 C 0.05519 0.68025 0.44739 0.0
H1358 H 1.00793 0.61276 0.45725 0.0
C1359 C 0.08714 0.6656 0.44984 0.0
H1360 H 1.00217 0.67157 0.44544 0.0
C1361 C 0.09039 0.63215 0.4573 0.0
C1362 C 0.06177 0.61313 0.46123 0.0
H1363 H 0.10917 0.68052 0.44977 0.0
H1364 H 0.1147 0.62199 0.46364 0.0
C1365 C 0.03038 0.62692 0.45369 0.0
C1366 C 0.68174 0.82449 0.6897 0.0
C1367 C 0.65339 0.80539 0.6972 0.0
H1368 H 0.72992 0.84052 0.70389 0.0
C1369 C 0.6533 0.7877 0.72787 0.0
H1370 H 0.6832 0.83862 0.66662 0.0
C1371 C 0.68096 0.78827 0.74938 0.0
C1372 C 0.70937 0.80736 0.74159 0.0
H1373 H 0.6323 0.77251 0.7348 0.0
H1374 H 0.68021 0.77342 0.772 0.0
C1375 C 0.70877 0.82575 0.71144 0.0
C1376 C 0.6067 0.50024 0.73261 0.0
C1377 C 0.59125 0.52845 0.74659 0.0
H1378 H 0.61313 0.47031 0.68938 0.0
C1379 C 0.56907 0.54771 0.72787 0.0
H1380 H 0.62366 0.48482 0.74686 0.0
C1381 C 0.56361 0.53961 0.69495 0.0
C1382 C 0.57969 0.51182 0.68081 0.0
H1383 H 0.55693 0.56949 0.73827 0.0
H1384 H 0.54696 0.55506 0.68042 0.0
C1385 C 0.60065 0.4918 0.70001 0.0
C1386 C 0.81433 0.3559 0.9581 0.0
C1387 C 0.79654 0.38567 0.96306 0.0
H1388 H 0.84037 0.32463 0.92299 0.0
C1389 C 0.79287 0.40787 0.93627 0.0
H1390 H 0.81758 0.33833 0.97832 0.0
C1391 C 0.80562 0.39975 0.90465 0.0
C1392 C 0.82287 0.36978 0.89969 0.0
H1393 H 0.77933 0.43103 0.93952 0.0
H1394 H 0.80132 0.41637 0.88381 0.0
C1395 C 0.82777 0.34819 0.92667 0.0
C1396 C 0.03969 0.58319 0.18237 0.0
C1397 C 1.00522 0.58225 0.19014 0.0
H1398 H 0.07802 0.58025 0.14414 0.0
C1399 C 0.98242 0.58398 0.16433 0.0
H1400 H 0.05776 0.58258 0.20187 0.0
C1401 C 0.99401 0.58238 0.13128 0.0
C1402 C 0.02849 0.57942 0.12375 0.0
H1403 H 0.95568 0.58367 0.16963 0.0
H1404 H 0.97594 0.58113 0.11188 0.0
C1405 C 0.05127 0.58195 0.14932 0.0
C1406 C 0.79694 0.74739 0.43892 0.0
C1407 C 0.78813 0.7142 0.44353 0.0
H1408 H 0.80459 0.78835 0.40478 0.0
C1409 C 0.77817 0.69786 0.41479 0.0
H1410 H 0.80505 0.76105 0.45996 0.0
C1411 C 0.77679 0.71399 0.38308 0.0
C1412 C 0.78651 0.7469 0.37828 0.0
H1413 H 0.77125 0.67238 0.41683 0.0
H1414 H 0.76901 0.70022 0.36198 0.0
C1415 C 0.79676 0.76315 0.40697 0.0
C1416 C 0.63504 0.5458 0.94258 0.0
C1417 C 0.61554 0.53198 0.91842 0.0
H1418 H 0.63692 0.56231 0.99275 0.0
C1419 C 0.58216 0.52427 0.92631 0.0
H1420 H 0.66075 0.55218 0.93683 0.0
C1421 C 0.5687 0.52946 0.95836 0.0
C1422 C 0.58815 0.54341 0.98254 0.0
H1423 H 0.56672 0.51358 0.9079 0.0
H1424 H 0.54317 0.52254 0.96426 0.0
C1425 C 0.62129 0.55189 0.97433 0.0
C1426 C 0.77488 0.36604 0.1603 0.0
C1427 C 0.77628 0.34261 0.13492 0.0
H1428 H 0.77388 0.37436 0.21279 0.0
C1429 C 0.77244 0.3094 0.14312 0.0
H1430 H 0.77745 0.39193 0.15456 0.0
C1431 C 0.76959 0.29949 0.17637 0.0
C1432 C 0.77131 0.3226 0.20188 0.0
H1433 H 0.77273 0.291 0.12394 0.0
H1434 H 0.76834 0.27345 0.18199 0.0
C1435 C 0.77265 0.35607 0.19362 0.0
C1436 C 0.99145 0.52374 0.35725 0.0
C1437 C 0.95933 0.53845 0.35598 0.0
H1438 H 0.02548 0.49415 0.38547 0.0
C1439 C 0.93542 0.53144 0.38135 0.0
H1440 H 1.01051 0.52864 0.33816 0.0
C1441 C 0.94432 0.51175 0.40861 0.0
C1442 C 0.97687 0.49828 0.41037 0.0
H1443 H 0.91038 0.54218 0.38081 0.0
H1444 H 0.92658 0.50871 0.42937 0.0
C1445 C 0.99994 0.5034 0.38393 0.0
C1446 C 0.80024 0.70305 0.65631 0.0
C1447 C 0.7982 0.72406 0.62789 0.0
H1448 H 0.8054 0.69869 0.70995 0.0
C1449 C 0.80266 0.75781 0.63351 0.0
H1450 H 0.7966 0.67702 0.65366 0.0
C1451 C 0.8085 0.77013 0.66554 0.0
C1452 C 0.80944 0.74961 0.69427 0.0
H1453 H 0.80127 0.77516 0.61284 0.0
H1454 H 0.81112 0.79636 0.66786 0.0
C1455 C 0.80527 0.71562 0.68888 0.0
C1456 C 0.69382 0.60335 0.54263 0.0
C1457 C 0.69462 0.63327 0.52422 0.0
H1458 H 0.66595 0.56025 0.55728 0.0
C1459 C 0.66692 0.64038 0.50409 0.0
H1460 H 0.71423 0.59674 0.55865 0.0
C1461 C 0.63967 0.61904 0.50258 0.0
C1462 C 0.63813 0.58969 0.52173 0.0
H1463 H 0.66612 0.6629 0.4894 0.0
H1464 H 0.61903 0.62632 0.48708 0.0
C1465 C 0.66591 0.58226 0.5418 0.0
C1466 C 0.175 0.9449 0.60002 0.0
C1467 C 0.20555 0.95995 0.59299 0.0
H1468 H 0.12242 0.95172 0.60823 0.0
C1469 C 0.20747 0.99423 0.59462 0.0
H1470 H 0.17309 0.91845 0.59965 0.0
C1471 C 0.17837 0.01342 0.59935 0.0
C1472 C 0.14727 0.99837 0.60265 0.0
H1473 H 0.23095 1.00634 0.58967 0.0
H1474 H 0.17999 0.03989 0.59767 0.0
C1475 C 0.14606 0.96399 0.60505 0.0
C1476 C 0.37372 0.98571 0.8019 0.0
C1477 C 0.40568 0.97926 0.78738 0.0
H1478 H 0.32899 0.96527 0.82358 0.0
C1479 C 0.41677 0.94673 0.78263 0.0
H1480 H 0.36482 0.01066 0.80629 0.0
C1481 C 0.39609 0.921 0.79216 0.0
C1482 C 0.36447 0.9275 0.80727 0.0
H1483 H 0.44138 0.94121 0.7717 0.0
H1484 H 0.40505 0.89598 0.78844 0.0
C1485 C 0.35341 0.95995 0.81213 0.0
C1486 C 0.41911 0.1497 0.04357 0.0
C1487 C 0.3908 0.13195 0.03514 0.0
H1488 H 0.47224 0.14878 0.05209 0.0
C1489 C 0.39605 0.09836 0.02814 0.0
H1490 H 0.41633 0.17553 0.0492 0.0
C1491 C 0.42828 0.08327 0.0288 0.0
C1492 C 0.45654 0.10079 0.03767 0.0
H1493 H 0.37518 0.08372 0.02141 0.0
H1494 H 0.431 0.05755 0.02263 0.0
C1495 C 0.45129 0.13426 0.04538 0.0
C1496 C 0.68954 0.63339 0.81269 0.0
C1497 C 0.66965 0.62884 0.84182 0.0
H1498 H 0.7299 0.65926 0.78897 0.0
C1499 C 0.67444 0.64829 0.86961 0.0
H1500 H 0.68629 0.61839 0.79104 0.0
C1501 C 0.69999 0.67113 0.86865 0.0
C1502 C 0.7204 0.67509 0.83967 0.0
H1503 H 0.65958 0.64477 0.89241 0.0
H1504 H 0.70395 0.68555 0.89051 0.0
C1505 C 0.71444 0.65659 0.81149 0.0
C1506 C 0.88448 0.44948 0.05811 0.0
C1507 C 0.87874 0.42721 0.03278 0.0
H1508 H 0.90997 0.49252 0.07179 0.0
C1509 C 0.89529 0.43059 1.0016 0.0
H1510 H 0.8716 0.44738 0.08224 0.0
C1511 C 0.91628 0.45692 0.99541 0.0
C1512 C 0.9213 0.47965 0.02052 0.0
H1513 H 0.89064 0.41394 0.9816 0.0
H1514 H 0.9286 0.45956 0.9711 0.0
C1515 C 0.90596 0.47533 0.05212 0.0
C1516 C 0.3959 0.19002 0.76645 0.0
C1517 C 0.3809 0.16015 0.76013 0.0
H1518 H 0.38877 0.24157 0.77304 0.0
C1519 C 0.34714 0.16002 0.75169 0.0
H1520 H 0.42201 0.19084 0.77264 0.0
C1521 C 0.32807 0.18911 0.75183 0.0
C1522 C 0.34253 0.21866 0.76045 0.0
H1523 H 0.33507 0.13731 0.74638 0.0
H1524 H 0.30169 0.18812 0.74679 0.0
C1525 C 0.37687 0.21907 0.7666 0.0
C1526 C 0.23752 0.95078 0.29525 0.0
C1527 C 0.2025 0.95021 0.29756 0.0
H1528 H 0.28285 0.92313 0.28528 0.0
C1529 C 0.18582 0.92255 0.28711 0.0
H1530 H 0.25081 0.972 0.30303 0.0
C1531 C 0.20411 0.89507 0.27589 0.0
C1532 C 0.23916 0.89486 0.27589 0.0
H1533 H 0.15874 0.92192 0.28829 0.0
H1534 H 0.19092 0.87332 0.26943 0.0
C1535 C 0.25577 0.92304 0.28493 0.0
C1536 C 0.54959 0.39661 0.48616 0.0
C1537 C 0.54681 0.39287 0.45134 0.0
H1538 H 0.55488 0.42903 0.52763 0.0
C1539 C 0.54737 0.4224 0.43209 0.0
H1540 H 0.54953 0.37507 0.50231 0.0
C1541 C 0.55011 0.45387 0.44684 0.0
C1542 C 0.55328 0.45757 0.48164 0.0
H1543 H 0.54543 0.42128 0.40529 0.0
H1544 H 0.54983 0.47546 0.43075 0.0
C1545 C 0.55298 0.42799 0.50083 0.0
C1546 C 0.39717 0.82581 0.16493 0.0
C1547 C 0.42614 0.81531 0.18148 0.0
H1548 H 0.34438 0.83721 0.16965 0.0
C1549 C 0.42372 0.80668 0.21537 0.0
H1550 H 0.39846 0.83261 0.13872 0.0
C1551 C 0.39349 0.81047 0.23295 0.0
C1552 C 0.36482 0.82233 0.21694 0.0
H1553 H 0.4455 0.79843 0.2288 0.0
H1554 H 0.39263 0.80397 0.25927 0.0
C1555 C 0.36646 0.82888 0.18256 0.0
C1556 C 0.01817 0.68579 0.97643 0.0
C1557 C 0.04601 0.70436 0.96552 0.0
H1558 H 0.99921 0.64052 0.99685 0.0
C1559 C 0.07778 0.68841 0.96765 0.0
H1560 H 0.99322 0.6967 0.97558 0.0
C1561 C 0.08135 0.65577 0.98103 0.0
C1562 C 0.05326 0.6374 0.99205 0.0
H1563 H 0.10004 0.70155 0.96012 0.0
H1564 H 0.10624 0.64494 0.98281 0.0
C1565 C 0.02164 0.65317 0.98885 0.0
C1566 C 0.139 0.31951 0.67039 0.0
C1567 C 0.10473 0.31581 0.67759 0.0
H1568 H 0.18888 0.30576 0.68267 0.0
C1569 C 0.09471 0.294 0.70352 0.0
H1570 H 0.14775 0.33557 0.65034 0.0
C1571 C 0.11861 0.27671 0.72212 0.0
C1572 C 0.15276 0.28111 0.7151 0.0
H1573 H 0.06845 0.2902 0.70941 0.0
H1574 H 0.11053 0.26078 0.74253 0.0
C1575 C 0.16263 0.30228 0.6888 0.0
C1576 C 0.54352 0.73113 0.11618 0.0
C1577 C 0.55239 0.75501 0.09207 0.0
H1578 H 0.55277 0.68297 0.13562 0.0
C1579 C 0.57633 0.74691 0.06683 0.0
H1580 H 0.52563 0.7366 0.13634 0.0
C1581 C 0.59191 0.71591 0.06647 0.0
C1582 C 0.58388 0.69256 0.09138 0.0
H1583 H 0.58383 0.76485 0.048 0.0
H1584 H 0.61002 0.7102 0.04661 0.0
C1585 C 0.55938 0.70044 0.11604 0.0
C1586 C 0.15427 0.77392 0.8459 0.0
C1587 C 0.14692 0.79399 0.87365 0.0
H1588 H 0.19116 0.75643 0.80953 0.0
C1589 C 0.17321 0.81259 0.88544 0.0
H1590 H 0.13491 0.7592 0.83599 0.0
C1591 C 0.20541 0.81172 0.86961 0.0
C1592 C 0.21282 0.7915 0.84197 0.0
H1593 H 0.1687 0.82848 0.90657 0.0
H1594 H 0.22465 0.8268 0.87923 0.0
C1595 C 0.18671 0.77232 0.83068 0.0
C1596 C 0.98648 0.44328 0.62623 0.0
C1597 C 0.01456 0.42531 0.63685 0.0
H1598 H 0.96926 0.48603 0.59957 0.0
C1599 C 0.04606 0.43952 0.63583 0.0
H1600 H 0.96213 0.43221 0.62642 0.0
C1601 C 0.04995 0.4706 0.6214 0.0
C1602 C 0.0225 0.48686 0.60716 0.0
H1603 H 0.06797 0.42551 0.64348 0.0
H1604 H 0.07491 0.48011 0.61791 0.0
C1605 C 0.99051 0.47391 0.61103 0.0
C1606 C 0.4489 0.3114 0.34052 0.0
C1607 C 0.44917 0.29569 0.37224 0.0
H1608 H 0.42161 0.32249 0.29579 0.0
C1609 C 0.42113 0.27645 0.38093 0.0
H1610 H 0.4695 0.32675 0.33269 0.0
C1611 C 0.3941 0.2732 0.35938 0.0
C1612 C 0.39304 0.28976 0.32821 0.0
H1613 H 0.41986 0.26391 0.40493 0.0
H1614 H 0.37319 0.25856 0.36792 0.0
C1615 C 0.42118 0.30893 0.31922 0.0
C1616 C 0.40616 0.57281 0.4009 0.0
C1617 C 0.4005 0.59968 0.37969 0.0
H1618 H 0.43679 0.55196 0.43794 0.0
C1619 C 0.41322 0.63018 0.38749 0.0
H1620 H 0.39586 0.54919 0.39562 0.0
C1621 C 0.43854 0.63163 0.41034 0.0
C1622 C 0.44991 0.60275 0.42648 0.0
H1623 H 0.40848 0.65145 0.37158 0.0
H1624 H 0.45112 0.65456 0.41258 0.0
C1625 C 0.43083 0.57428 0.42433 0.0
C1626 C 0.28832 0.70796 0.11401 0.0
C1627 C 0.27708 0.72179 0.08408 0.0
H1628 H 0.28378 0.70823 0.16721 0.0
C1629 C 0.24915 0.74361 0.08486 0.0
H1630 H 0.30928 0.69058 0.11421 0.0
C1631 C 0.23455 0.75351 0.11512 0.0
C1632 C 0.2477 0.74183 0.145 0.0
H1633 H 0.23931 0.75415 0.06215 0.0
H1634 H 0.21465 0.77204 0.11516 0.0
C1635 C 0.27366 0.7179 0.14426 0.0
C1636 C 0.08408 0.5049 0.89069 0.0
C1637 C 0.11869 0.5002 0.88536 0.0
H1638 H 0.04409 0.51354 0.92623 0.0
C1639 C 0.13953 0.49639 0.91254 0.0
H1640 H 0.06751 0.50731 0.86994 0.0
C1641 C 0.12618 0.50013 0.94475 0.0
C1642 C 0.09186 0.50734 0.94993 0.0
H1643 H 0.16629 0.49245 0.90887 0.0
H1644 H 0.14295 0.49899 0.9654 0.0
C1645 C 0.07067 0.50824 0.92284 0.0
C1646 C 0.32881 0.36731 0.64501 0.0
C1647 C 0.30088 0.3709 0.62446 0.0
H1648 H 0.34853 0.35115 0.69203 0.0
C1649 C 0.27003 0.35985 0.63802 0.0
H1650 H 0.35317 0.37482 0.63555 0.0
C1651 C 0.26757 0.34508 0.67042 0.0
C1652 C 0.29571 0.34127 0.69082 0.0
H1653 H 0.24804 0.36128 0.62302 0.0
H1654 H 0.24352 0.3364 0.67945 0.0
C1655 C 0.3262 0.35339 0.67757 0.0
C1656 C 0.5066 0.52448 0.22449 0.0
C1657 C 0.49976 0.5562 0.23638 0.0
H1658 H 0.52591 0.4958 0.18352 0.0
C1659 C 0.51103 0.58356 0.2182 0.0
H1660 H 0.49767 0.50315 0.23821 0.0
C1661 C 0.52772 0.57937 0.18757 0.0
C1662 C 0.53233 0.54782 0.17436 0.0
H1663 H 0.50576 0.60818 0.2271 0.0
H1664 H 0.53503 0.601 0.17332 0.0
C1665 C 0.52245 0.52031 0.1933 0.0
C1666 C 0.36673 0.74572 0.92706 0.0
C1667 C 0.36453 0.71148 0.92979 0.0
H1668 H 0.35852 0.7885 0.89679 0.0
C1669 C 0.35762 0.69319 0.90182 0.0
H1670 H 0.37222 0.76016 0.94855 0.0
C1671 C 0.34934 0.70943 0.87226 0.0
C1672 C 0.34809 0.744 0.87061 0.0
H1673 H 0.35558 0.66677 0.90364 0.0
H1674 H 0.34183 0.69498 0.85151 0.0
C1675 C 0.35863 0.76192 0.8976 0.0
C1676 C 0.13635 0.56286 0.6958 0.0
C1677 C 0.11467 0.57248 0.7223 0.0
H1678 H 0.14877 0.56819 0.64377 0.0
C1679 C 0.09096 0.59804 0.71716 0.0
H1680 H 0.15546 0.54387 0.69912 0.0
C1681 C 0.08756 0.61218 0.68562 0.0
C1682 C 0.10774 0.60096 0.65874 0.0
H1683 H 0.07424 0.60647 0.73723 0.0
H1684 H 0.06758 0.63015 0.68179 0.0
C1685 C 0.13297 0.57712 0.66432 0.0
C1686 C 0.29538 0.34626 0.43561 0.0
C1687 C 0.29768 0.38076 0.43747 0.0
H1688 H 0.29022 0.30374 0.40496 0.0
C1689 C 0.29615 0.39841 0.40683 0.0
H1690 H 0.29619 0.33143 0.45823 0.0
C1691 C 0.29292 0.38233 0.37589 0.0
C1692 C 0.29034 0.34784 0.37407 0.0
H1693 H 0.29766 0.42489 0.40666 0.0
H1694 H 0.29242 0.39711 0.35324 0.0
C1695 C 0.29158 0.33024 0.40476 0.0
C1696 C 0.42359 0.45278 0.55411 0.0
C1697 C 0.39621 0.46133 0.534 0.0
H1698 H 0.47108 0.46562 0.57317 0.0
C1699 C 0.39699 0.49257 0.51816 0.0
H1700 H 0.42437 0.42912 0.56679 0.0
C1701 C 0.42469 0.51358 0.52127 0.0
C1702 C 0.45222 0.50469 0.54122 0.0
H1703 H 0.37688 0.50024 0.50217 0.0
H1704 H 0.4248 0.53664 0.50748 0.0
C1705 C 0.4506 0.47401 0.55798 0.0
C1706 C 0.95281 0.14328 0.53798 0.0
C1707 C 0.9214 0.12877 0.53929 0.0
H1708 H 1.00546 0.13634 0.54223 0.0
C1709 C 0.91924 0.09489 0.54569 0.0
H1710 H 0.95523 0.16931 0.53291 0.0
C1711 C 0.94814 0.07583 0.55082 0.0
C1712 C 0.97954 0.09044 0.54968 0.0
H1713 H 0.89529 0.08307 0.54659 0.0
H1714 H 0.94584 0.04982 0.55608 0.0
C1715 C 0.9816 0.12431 0.54313 0.0
C1716 C 0.70193 0.13351 0.33341 0.0
C1717 C 0.70814 0.10034 0.32618 0.0
H1718 H 0.71593 0.18298 0.3236 0.0
C1719 C 0.73645 0.09152 0.30597 0.0
H1720 H 0.68036 0.14116 0.34869 0.0
C1721 C 0.75644 0.11551 0.29113 0.0
C1722 C 0.74899 0.14865 0.29681 0.0
H1723 H 0.74219 0.06612 0.30003 0.0
H1724 H 0.77733 0.10826 0.27475 0.0
C1725 C 0.72223 0.15745 0.31888 0.0
C1726 C 0.69975 0.99601 0.05134 0.0
C1727 C 0.70439 0.96587 0.0347 0.0
H1728 H 0.66642 0.0365 0.06472 0.0
C1729 C 0.6767 0.95415 0.01801 0.0
H1730 H 0.72024 1.00611 0.06444 0.0
C1731 C 0.64587 0.9721 0.01748 0.0
C1732 C 0.64119 1.00221 0.0342 0.0
H1733 H 0.67904 0.93128 0.00467 0.0
H1734 H 0.62551 0.96218 0.00404 0.0
C1735 C 0.6687 0.01359 0.05144 0.0
C1736 C 0.36665 0.49365 0.25342 0.0
C1737 C 0.3706 0.49609 0.28798 0.0
H1738 H 0.35207 0.46322 0.21369 0.0
C1739 C 0.35835 0.47166 0.30957 0.0
H1740 H 0.37601 0.51235 0.23628 0.0
C1741 C 0.34428 0.44407 0.2967 0.0
C1742 C 0.34303 0.4401 0.26199 0.0
H1743 H 0.36061 0.4734 0.33632 0.0
H1744 H 0.33535 0.42541 0.31402 0.0
C1745 C 0.35306 0.46565 0.24046 0.0
C1746 C 0.21799 0.64046 0.98388 0.0
C1747 C 0.25229 0.63298 0.98595 0.0
H1748 H 0.1683 0.6268 0.9974 0.0
C1749 C 0.26231 0.6029 1.00075 0.0
H1750 H 0.20937 0.66333 0.97258 0.0
C1751 C 0.23886 0.5825 0.01624 0.0
C1752 C 0.20467 0.59123 0.01673 0.0
H1753 H 0.28857 0.59614 1.00257 0.0
H1754 H 0.24785 0.56069 0.02914 0.0
C1755 C 0.19442 0.61975 0.99899 0.0
C1756 C 0.73822 0.92905 0.2815 0.0
C1757 C 0.7031 0.92926 0.28289 0.0
H1758 H 0.78343 0.9011 0.2872 0.0
C1759 C 0.68644 0.89979 0.28924 0.0
H1760 H 0.75182 0.95138 0.27685 0.0
C1761 C 0.7047 0.87083 0.29537 0.0
C1762 C 0.73978 0.87113 0.29575 0.0
H1763 H 0.65936 0.89934 0.29072 0.0
H1764 H 0.69141 0.84832 0.30013 0.0
C1765 C 0.75636 0.90037 0.28827 0.0
C1766 C 0.83976 0.17668 0.74277 0.0
C1767 C 0.8714 0.17653 0.75694 0.0
H1768 H 0.79363 0.2035 0.73572 0.0
C1769 C 0.88209 0.20487 0.77231 0.0
H1770 H 0.83089 0.15509 0.73081 0.0
C1771 C 0.86048 0.23177 0.77622 0.0
C1772 C 0.82804 0.2312 0.76409 0.0
H1773 H 0.90643 0.20559 0.78328 0.0
H1774 H 0.86918 0.25291 0.78908 0.0
C1775 C 0.81823 0.20403 0.74614 0.0
loop_
_geom_bond_atom_site_label_1
_geom_bond_atom_site_label_2
_geom_bond_distance
_geom_bond_site_symmetry_2
_ccdc_geom_bond_type
Co0 O1 2.216 1_455 S
Co0 O2 2.091 1_455 S
Co0 O4 2.004 . S
Co0 O10 2.021 . S
Co0 O12 2.137 . S
Co0 O13 2.244 . S
O1 Co0 2.216 1_655 S
O1 C8 1.247 . S
O2 Co0 2.091 1_655 S
O2 C8 1.261 . S
C3 O12 1.247 . S
C3 O13 1.272 . S
O4 Co0 2.004 . S
O4 C9 1.259 . S
Co5 O6 2.061 . S
Co5 O11 2.052 . S
Co5 O13 2.135 . S
O6 Co5 2.061 . S
O6 C9 1.235 . S
C7 O10 1.238 . S
C7 O11 1.241 . S
C8 O1 1.247 . S
C8 O2 1.261 . S
C9 O4 1.259 . S
C9 O6 1.235 . S
O10 Co0 2.021 . S
O10 C7 1.238 . S
O11 Co5 2.052 . S
O11 C7 1.241 . S
O12 Co0 2.137 . S
O12 C3 1.247 . S
O13 Co0 2.244 . S
O13 C3 1.272 . S
O13 Co5 2.135 . S
Co14 O15 2.216 . S
Co14 O16 2.091 . S
Co14 O18 2.004 . S
Co14 O24 2.021 . S
Co14 O26 2.137 . S
Co14 O27 2.244 . S
O15 Co14 2.216 . S
O15 C22 1.247 . S
O16 Co14 2.091 . S
O16 C22 1.261 . S
C17 O26 1.247 . S
C17 O27 1.272 . S
O18 Co14 2.004 . S
O18 C23 1.259 . S
Co19 O20 2.061 1_455 S
Co19 O25 2.052 . S
Co19 O27 2.135 . S
O20 Co19 2.061 1_655 S
O20 C23 1.235 1_655 S
C21 O24 1.238 . S
C21 O25 1.241 . S
C22 O15 1.247 . S
C22 O16 1.261 . S
C23 O18 1.259 . S
C23 O20 1.235 1_455 S
O24 Co14 2.021 . S
O24 C21 1.238 . S
O25 Co19 2.052 . S
O25 C21 1.241 . S
O26 Co14 2.137 . S
O26 C17 1.247 . S
O27 Co14 2.244 . S
O27 C17 1.272 . S
O27 Co19 2.135 . S
Co28 O29 2.216 . S
Co28 O30 2.091 . S
Co28 O32 2.004 . S
Co28 O38 2.021 . S
Co28 O40 2.137 . S
Co28 O41 2.244 . S
O29 Co28 2.216 . S
O29 C36 1.247 . S
O30 Co28 2.091 . S
O30 C36 1.261 . S
C31 O40 1.247 . S
C31 O41 1.272 . S
O32 Co28 2.004 . S
O32 C37 1.259 . S
Co33 O34 2.061 . S
Co33 O39 2.052 . S
Co33 O41 2.135 . S
O34 Co33 2.061 . S
O34 C37 1.235 . S
C35 O38 1.238 . S
C35 O39 1.241 . S
C36 O29 1.247 . S
C36 O30 1.261 . S
C37 O32 1.259 . S
C37 O34 1.235 . S
O38 Co28 2.021 . S
O38 C35 1.238 . S
O39 Co33 2.052 . S
O39 C35 1.241 . S
O40 Co28 2.137 . S
O40 C31 1.247 . S
O41 Co28 2.244 . S
O41 C31 1.272 . S
O41 Co33 2.135 . S
Co42 O43 2.216 . S
Co42 O44 2.091 . S
Co42 O46 2.004 . S
Co42 O52 2.021 . S
Co42 O54 2.137 . S
Co42 O55 2.244 . S
O43 Co42 2.216 . S
O43 C50 1.247 . S
O44 Co42 2.091 . S
O44 C50 1.261 . S
C45 O54 1.247 . S
C45 O55 1.272 . S
O46 Co42 2.004 . S
O46 C51 1.259 . S
Co47 O48 2.061 . S
Co47 O53 2.052 . S
Co47 O55 2.135 . S
O48 Co47 2.061 . S
O48 C51 1.235 . S
C49 O52 1.238 . S
C49 O53 1.241 . S
C50 O43 1.247 . S
C50 O44 1.261 . S
C51 O46 1.259 . S
C51 O48 1.235 . S
O52 Co42 2.021 . S
O52 C49 1.238 . S
O53 Co47 2.052 . S
O53 C49 1.241 . S
O54 Co42 2.137 . S
O54 C45 1.247 . S
O55 Co42 2.244 . S
O55 C45 1.272 . S
O55 Co47 2.135 . S
Co56 O57 2.235 . S
Co56 O58 2.103 . S
Co56 O60 1.988 1_565 S
Co56 O66 2.020 1_565 S
Co56 O68 2.139 . S
Co56 O69 2.239 1_565 S
O57 Co56 2.235 . S
O57 C64 1.247 . S
O58 Co56 2.103 . S
O58 C64 1.261 . S
C59 O68 1.247 1_545 S
C59 O69 1.272 . S
O60 Co56 1.988 1_545 S
O60 C65 1.259 . S
Co61 O62 2.061 . S
Co61 O67 2.052 . S
Co61 O69 2.135 . S
O62 Co61 2.061 . S
O62 C65 1.235 . S
C63 O66 1.238 . S
C63 O67 1.241 . S
C64 O57 1.247 . S
C64 O58 1.261 . S
C65 O60 1.259 . S
C65 O62 1.235 . S
O66 Co56 2.020 1_545 S
O66 C63 1.238 . S
O67 Co61 2.052 . S
O67 C63 1.241 . S
O68 Co56 2.139 . S
O68 C59 1.247 1_565 S
O69 Co56 2.239 1_545 S
O69 C59 1.272 . S
O69 Co61 2.135 . S
Co70 O71 2.216 . S
Co70 O72 2.091 . S
Co70 O74 2.004 . S
Co70 O80 2.021 . S
Co70 O82 2.137 . S
Co70 O83 2.244 . S
O71 Co70 2.216 . S
O71 C78 1.247 . S
O72 Co70 2.091 . S
O72 C78 1.261 . S
C73 O82 1.247 . S
C73 O83 1.272 . S
O74 Co70 2.004 . S
O74 C79 1.259 . S
Co75 O76 2.061 . S
Co75 O81 2.052 . S
Co75 O83 2.135 . S
O76 Co75 2.061 . S
O76 C79 1.235 . S
C77 O80 1.238 . S
C77 O81 1.241 . S
C78 O71 1.247 . S
C78 O72 1.261 . S
C79 O74 1.259 . S
C79 O76 1.235 . S
O80 Co70 2.021 . S
O80 C77 1.238 . S
O81 Co75 2.052 . S
O81 C77 1.241 . S
O82 Co70 2.137 . S
O82 C73 1.247 . S
O83 Co70 2.244 . S
O83 C73 1.272 . S
O83 Co75 2.135 . S
Co84 O85 2.216 . S
Co84 O86 2.091 . S
Co84 O88 2.004 . S
Co84 O94 2.021 . S
Co84 O96 2.137 . S
Co84 O97 2.244 . S
O85 Co84 2.216 . S
O85 C92 1.247 . S
O86 Co84 2.091 . S
O86 C92 1.261 . S
C87 O96 1.247 . S
C87 O97 1.272 . S
O88 Co84 2.004 . S
O88 C93 1.259 . S
Co89 O90 2.061 . S
Co89 O95 2.052 . S
Co89 O97 2.135 . S
O90 Co89 2.061 . S
O90 C93 1.235 . S
C91 O94 1.238 . S
C91 O95 1.241 . S
C92 O85 1.247 . S
C92 O86 1.261 . S
C93 O88 1.259 . S
C93 O90 1.235 . S
O94 Co84 2.021 . S
O94 C91 1.238 . S
O95 Co89 2.052 . S
O95 C91 1.241 . S
O96 Co84 2.137 . S
O96 C87 1.247 . S
O97 Co84 2.244 . S
O97 C87 1.272 . S
O97 Co89 2.135 . S
Co98 O99 2.216 . S
Co98 O100 2.091 . S
Co98 O102 2.004 . S
Co98 O108 2.021 . S
Co98 O110 2.137 1_554 S
Co98 O111 2.244 . S
O99 Co98 2.216 . S
O99 C106 1.247 . S
O100 Co98 2.091 . S
O100 C106 1.261 . S
C101 O110 1.247 . S
C101 O111 1.272 1_556 S
O102 Co98 2.004 . S
O102 C107 1.259 . S
Co103 O104 2.061 . S
Co103 O109 2.052 . S
Co103 O111 2.135 . S
O104 Co103 2.061 . S
O104 C107 1.235 . S
C105 O108 1.238 . S
C105 O109 1.241 . S
C106 O99 1.247 . S
C106 O100 1.261 . S
C107 O102 1.259 . S
C107 O104 1.235 . S
O108 Co98 2.021 . S
O108 C105 1.238 . S
O109 Co103 2.052 . S
O109 C105 1.241 . S
O110 Co98 2.137 1_556 S
O110 C101 1.247 . S
O111 Co98 2.244 . S
O111 C101 1.272 1_554 S
O111 Co103 2.135 . S
Co112 O113 2.216 . S
Co112 O114 2.091 . S
Co112 O116 2.004 . S
Co112 O122 2.021 . S
Co112 O124 2.137 . S
Co112 O125 2.244 . S
O113 Co112 2.216 . S
O113 C120 1.247 . S
O114 Co112 2.091 . S
O114 C120 1.261 . S
C115 O124 1.247 . S
C115 O125 1.272 . S
O116 Co112 2.004 . S
O116 C121 1.259 . S
Co117 O118 2.061 . S
Co117 O123 2.052 . S
Co117 O125 2.135 . S
O118 Co117 2.061 . S
O118 C121 1.235 . S
C119 O122 1.238 . S
C119 O123 1.241 . S
C120 O113 1.247 . S
C120 O114 1.261 . S
C121 O116 1.259 . S
C121 O118 1.235 . S
O122 Co112 2.021 . S
O122 C119 1.238 . S
O123 Co117 2.052 . S
O123 C119 1.241 . S
O124 Co112 2.137 . S
O124 C115 1.247 . S
O125 Co112 2.244 . S
O125 C115 1.272 . S
O125 Co117 2.135 . S
Co126 O127 2.216 . S
Co126 O128 2.091 . S
Co126 O130 2.004 . S
Co126 O136 2.021 . S
Co126 O138 2.137 . S
Co126 O139 2.244 . S
O127 Co126 2.216 . S
O127 C134 1.247 . S
O128 Co126 2.091 . S
O128 C134 1.261 . S
C129 O138 1.247 . S
C129 O139 1.272 . S
O130 Co126 2.004 . S
O130 C135 1.259 . S
Co131 O132 2.061 . S
Co131 O137 2.052 . S
Co131 O139 2.135 . S
O132 Co131 2.061 . S
O132 C135 1.235 . S
C133 O136 1.238 . S
C133 O137 1.241 . S
C134 O127 1.247 . S
C134 O128 1.261 . S
C135 O130 1.259 . S
C135 O132 1.235 . S
O136 Co126 2.021 . S
O136 C133 1.238 . S
O137 Co131 2.052 . S
O137 C133 1.241 . S
O138 Co126 2.137 . S
O138 C129 1.247 . S
O139 Co126 2.244 . S
O139 C129 1.272 . S
O139 Co131 2.135 . S
Co140 O141 2.216 . S
Co140 O142 2.091 . S
Co140 O144 2.004 . S
Co140 O150 2.021 . S
Co140 O152 2.137 . S
Co140 O153 2.244 . S
O141 Co140 2.216 . S
O141 C148 1.247 . S
O142 Co140 2.091 . S
O142 C148 1.261 . S
C143 O152 1.247 . S
C143 O153 1.272 . S
O144 Co140 2.004 . S
O144 C149 1.259 . S
Co145 O146 2.061 . S
Co145 O151 2.052 . S
Co145 O153 2.135 . S
O146 Co145 2.061 . S
O146 C149 1.235 . S
C147 O150 1.238 . S
C147 O151 1.241 . S
C148 O141 1.247 . S
C148 O142 1.261 . S
C149 O144 1.259 . S
C149 O146 1.235 . S
O150 Co140 2.021 . S
O150 C147 1.238 . S
O151 Co145 2.052 . S
O151 C147 1.241 . S
O152 Co140 2.137 . S
O152 C143 1.247 . S
O153 Co140 2.244 . S
O153 C143 1.272 . S
O153 Co145 2.135 . S
Co154 O155 2.216 . S
Co154 O156 2.091 . S
Co154 O158 2.004 . S
Co154 O164 2.021 . S
Co154 O166 2.137 . S
Co154 O167 2.244 . S
O155 Co154 2.216 . S
O155 C162 1.247 . S
O156 Co154 2.091 . S
O156 C162 1.261 . S
C157 O166 1.247 . S
C157 O167 1.272 . S
O158 Co154 2.004 . S
O158 C163 1.259 . S
Co159 O160 2.061 . S
Co159 O165 2.052 . S
Co159 O167 2.135 . S
O160 Co159 2.061 . S
O160 C163 1.235 . S
C161 O164 1.238 . S
C161 O165 1.241 . S
C162 O155 1.247 . S
C162 O156 1.261 . S
C163 O158 1.259 . S
C163 O160 1.235 . S
O164 Co154 2.021 . S
O164 C161 1.238 . S
O165 Co159 2.052 . S
O165 C161 1.241 . S
O166 Co154 2.137 . S
O166 C157 1.247 . S
O167 Co154 2.244 . S
O167 C157 1.272 . S
O167 Co159 2.135 . S
Co168 O169 2.216 . S
Co168 O170 2.091 . S
Co168 O172 2.004 1_455 S
Co168 O178 2.021 . S
Co168 O180 2.137 . S
Co168 O181 2.244 . S
O169 Co168 2.216 . S
O169 C176 1.247 . S
O170 Co168 2.091 . S
O170 C176 1.261 . S
C171 O180 1.247 . S
C171 O181 1.272 . S
O172 Co168 2.004 1_655 S
O172 C177 1.259 . S
Co173 O174 2.061 . S
Co173 O179 2.052 1_655 S
Co173 O181 2.135 1_655 S
O174 Co173 2.061 . S
O174 C177 1.235 . S
C175 O178 1.238 . S
C175 O179 1.241 . S
C176 O169 1.247 . S
C176 O170 1.261 . S
C177 O172 1.259 . S
C177 O174 1.235 . S
O178 Co168 2.021 . S
O178 C175 1.238 . S
O179 Co173 2.052 1_455 S
O179 C175 1.241 . S
O180 Co168 2.137 . S
O180 C171 1.247 . S
O181 Co168 2.244 . S
O181 C171 1.272 . S
O181 Co173 2.135 1_455 S
Co182 O183 2.216 . S
Co182 O184 2.091 . S
Co182 O186 2.004 1_655 S
Co182 O192 2.021 . S
Co182 O194 2.137 . S
Co182 O195 2.244 1_655 S
O183 Co182 2.216 . S
O183 C190 1.247 . S
O184 Co182 2.091 . S
O184 C190 1.261 . S
C185 O194 1.236 1_455 S
C185 O195 1.280 . S
O186 Co182 2.004 1_455 S
O186 C191 1.259 . S
Co187 O188 2.061 . S
Co187 O193 2.052 . S
Co187 O195 2.135 . S
O188 Co187 2.061 . S
O188 C191 1.235 . S
C189 O192 1.238 1_455 S
C189 O193 1.241 . S
C190 O183 1.247 . S
C190 O184 1.261 . S
C191 O186 1.259 . S
C191 O188 1.235 . S
O192 Co182 2.021 . S
O192 C189 1.238 1_655 S
O193 Co187 2.052 . S
O193 C189 1.241 . S
O194 Co182 2.137 . S
O194 C185 1.236 1_655 S
O195 Co182 2.244 1_455 S
O195 C185 1.280 . S
O195 Co187 2.135 . S
Co196 O197 2.216 . S
Co196 O198 2.091 . S
Co196 O200 2.004 . S
Co196 O206 2.021 . S
Co196 O208 2.137 . S
Co196 O209 2.244 . S
O197 Co196 2.216 . S
O197 C204 1.247 . S
O198 Co196 2.091 . S
O198 C204 1.261 . S
C199 O208 1.247 . S
C199 O209 1.272 . S
O200 Co196 2.004 . S
O200 C205 1.259 . S
Co201 O202 2.061 . S
Co201 O207 2.052 . S
Co201 O209 2.135 . S
O202 Co201 2.061 . S
O202 C205 1.235 . S
C203 O206 1.238 . S
C203 O207 1.241 . S
C204 O197 1.247 . S
C204 O198 1.261 . S
C205 O200 1.259 . S
C205 O202 1.235 . S
O206 Co196 2.021 . S
O206 C203 1.238 . S
O207 Co201 2.052 . S
O207 C203 1.241 . S
O208 Co196 2.137 . S
O208 C199 1.247 . S
O209 Co196 2.244 . S
O209 C199 1.272 . S
O209 Co201 2.135 . S
Co210 O211 2.216 . S
Co210 O212 2.091 . S
Co210 O214 2.004 . S
Co210 O220 2.021 . S
Co210 O222 2.137 . S
Co210 O223 2.244 . S
O211 Co210 2.216 . S
O211 C218 1.247 . S
O212 Co210 2.091 . S
O212 C218 1.261 . S
C213 O222 1.247 . S
C213 O223 1.272 . S
O214 Co210 2.004 . S
O214 C219 1.259 . S
Co215 O216 2.061 . S
Co215 O221 2.052 . S
Co215 O223 2.135 . S
O216 Co215 2.061 . S
O216 C219 1.235 . S
C217 O220 1.238 . S
C217 O221 1.241 . S
C218 O211 1.247 . S
C218 O212 1.261 . S
C219 O214 1.259 . S
C219 O216 1.235 . S
O220 Co210 2.021 . S
O220 C217 1.238 . S
O221 Co215 2.052 . S
O221 C217 1.241 . S
O222 Co210 2.137 . S
O222 C213 1.247 . S
O223 Co210 2.244 . S
O223 C213 1.272 . S
O223 Co215 2.135 . S
Co224 O225 2.216 . S
Co224 O226 2.091 . S
Co224 O228 2.004 . S
Co224 O234 2.021 . S
Co224 O236 2.137 . S
Co224 O237 2.244 . S
O225 Co224 2.216 . S
O225 C232 1.247 . S
O226 Co224 2.091 . S
O226 C232 1.261 . S
C227 O236 1.247 . S
C227 O237 1.272 . S
O228 Co224 2.004 . S
O228 C233 1.259 . S
Co229 O230 2.061 . S
Co229 O235 2.052 . S
Co229 O237 2.135 . S
O230 Co229 2.061 . S
O230 C233 1.235 . S
C231 O234 1.238 . S
C231 O235 1.241 . S
C232 O225 1.247 . S
C232 O226 1.261 . S
C233 O228 1.259 . S
C233 O230 1.235 . S
O234 Co224 2.021 . S
O234 C231 1.238 . S
O235 Co229 2.052 . S
O235 C231 1.241 . S
O236 Co224 2.137 . S
O236 C227 1.247 . S
O237 Co224 2.244 . S
O237 C227 1.272 . S
O237 Co229 2.135 . S
Co238 O239 2.216 . S
Co238 O240 2.091 . S
Co238 O242 2.004 . S
Co238 O248 2.021 . S
Co238 O250 2.137 . S
Co238 O251 2.244 . S
O239 Co238 2.216 . S
O239 C246 1.247 . S
O240 Co238 2.091 . S
O240 C246 1.261 . S
C241 O250 1.247 . S
C241 O251 1.272 . S
O242 Co238 2.004 . S
O242 C247 1.259 . S
Co243 O244 2.061 . S
Co243 O249 2.052 . S
Co243 O251 2.135 . S
O244 Co243 2.061 . S
O244 C247 1.235 . S
C245 O248 1.238 . S
C245 O249 1.241 . S
C246 O239 1.247 . S
C246 O240 1.261 . S
C247 O242 1.259 . S
C247 O244 1.235 . S
O248 Co238 2.021 . S
O248 C245 1.238 . S
O249 Co243 2.052 . S
O249 C245 1.241 . S
O250 Co238 2.137 . S
O250 C241 1.247 . S
O251 Co238 2.244 . S
O251 C241 1.272 . S
O251 Co243 2.135 . S
Co252 O253 2.206 1_545 S
Co252 O254 2.085 1_545 S
Co252 O256 2.013 . S
Co252 O262 2.021 . S
Co252 O264 2.137 1_545 S
Co252 O265 2.247 . S
O253 Co252 2.206 1_565 S
O253 C260 1.247 . S
O254 Co252 2.085 1_565 S
O254 C260 1.261 . S
C255 O264 1.247 1_545 S
C255 O265 1.272 . S
O256 Co252 2.013 . S
O256 C261 1.259 . S
Co257 O258 2.061 . S
Co257 O263 2.052 . S
Co257 O265 2.135 . S
O258 Co257 2.061 . S
O258 C261 1.235 . S
C259 O262 1.238 . S
C259 O263 1.241 . S
C260 O253 1.247 . S
C260 O254 1.261 . S
C261 O256 1.259 . S
C261 O258 1.235 . S
O262 Co252 2.021 . S
O262 C259 1.238 . S
O263 Co257 2.052 . S
O263 C259 1.241 . S
O264 Co252 2.137 1_565 S
O264 C255 1.247 1_565 S
O265 Co252 2.247 . S
O265 C255 1.272 . S
O265 Co257 2.135 . S
Co266 O267 2.216 . S
Co266 O268 2.091 . S
Co266 O270 2.004 . S
Co266 O276 2.021 . S
Co266 O278 2.137 1_554 S
Co266 O279 2.244 . S
O267 Co266 2.216 . S
O267 C274 1.247 . S
O268 Co266 2.091 . S
O268 C274 1.261 . S
C269 O278 1.247 . S
C269 O279 1.272 1_556 S
O270 Co266 2.004 . S
O270 C275 1.259 . S
Co271 O272 2.061 . S
Co271 O277 2.052 . S
Co271 O279 2.135 . S
O272 Co271 2.061 . S
O272 C275 1.235 . S
C273 O276 1.238 . S
C273 O277 1.241 . S
C274 O267 1.247 . S
C274 O268 1.261 . S
C275 O270 1.259 . S
C275 O272 1.235 . S
O276 Co266 2.021 . S
O276 C273 1.238 . S
O277 Co271 2.052 . S
O277 C273 1.241 . S
O278 Co266 2.137 1_556 S
O278 C269 1.247 . S
O279 Co266 2.244 . S
O279 C269 1.272 1_554 S
O279 Co271 2.135 . S
Co280 O281 2.216 . S
Co280 O282 2.091 1_556 S
Co280 O284 2.004 . S
Co280 O290 2.021 1_556 S
Co280 O292 2.137 . S
Co280 O293 2.244 . S
O281 Co280 2.216 . S
O281 C288 1.247 . S
O282 Co280 2.091 1_554 S
O282 C288 1.261 1_554 S
C283 O292 1.247 . S
C283 O293 1.272 . S
O284 Co280 2.004 . S
O284 C289 1.259 1_556 S
Co285 O286 2.061 1_556 S
Co285 O291 2.050 1_556 S
Co285 O293 2.136 . S
O286 Co285 2.061 1_554 S
O286 C289 1.235 . S
C287 O290 1.238 . S
C287 O291 1.241 . S
C288 O281 1.247 . S
C288 O282 1.261 1_556 S
C289 O284 1.259 1_554 S
C289 O286 1.235 . S
O290 Co280 2.021 1_554 S
O290 C287 1.238 . S
O291 Co285 2.050 1_554 S
O291 C287 1.241 . S
O292 Co280 2.137 . S
O292 C283 1.247 . S
O293 Co280 2.244 . S
O293 C283 1.272 . S
O293 Co285 2.136 . S
Co294 O295 2.216 . S
Co294 O296 2.091 . S
Co294 O298 2.004 . S
Co294 O304 2.021 . S
Co294 O306 2.137 . S
Co294 O307 2.244 . S
O295 Co294 2.216 . S
O295 C302 1.247 . S
O296 Co294 2.091 . S
O296 C302 1.261 . S
C297 O306 1.247 . S
C297 O307 1.272 . S
O298 Co294 2.004 . S
O298 C303 1.259 . S
Co299 O300 2.061 . S
Co299 O305 2.052 . S
Co299 O307 2.135 . S
O300 Co299 2.061 . S
O300 C303 1.235 . S
C301 O304 1.238 . S
C301 O305 1.241 . S
C302 O295 1.247 . S
C302 O296 1.261 . S
C303 O298 1.259 . S
C303 O300 1.235 . S
O304 Co294 2.021 . S
O304 C301 1.238 . S
O305 Co299 2.052 . S
O305 C301 1.241 . S
O306 Co294 2.137 . S
O306 C297 1.247 . S
O307 Co294 2.244 . S
O307 C297 1.272 . S
O307 Co299 2.135 . S
Co308 O309 2.216 . S
Co308 O310 2.091 . S
Co308 O312 2.004 . S
Co308 O318 2.021 . S
Co308 O320 2.137 . S
Co308 O321 2.244 . S
O309 Co308 2.216 . S
O309 C316 1.247 . S
O310 Co308 2.091 . S
O310 C316 1.261 . S
C311 O320 1.247 . S
C311 O321 1.272 . S
O312 Co308 2.004 . S
O312 C317 1.259 . S
Co313 O314 2.061 . S
Co313 O319 2.052 . S
Co313 O321 2.135 . S
O314 Co313 2.061 . S
O314 C317 1.235 . S
C315 O318 1.238 . S
C315 O319 1.241 . S
C316 O309 1.247 . S
C316 O310 1.261 . S
C317 O312 1.259 . S
C317 O314 1.235 . S
O318 Co308 2.021 . S
O318 C315 1.238 . S
O319 Co313 2.052 . S
O319 C315 1.241 . S
O320 Co308 2.137 . S
O320 C311 1.247 . S
O321 Co308 2.244 . S
O321 C311 1.272 . S
O321 Co313 2.135 . S
Co322 O323 2.216 . S
Co322 O324 2.091 . S
Co322 O326 2.004 . S
Co322 O332 2.021 . S
Co322 O334 2.137 . S
Co322 O335 2.244 . S
O323 Co322 2.216 . S
O323 C330 1.247 . S
O324 Co322 2.091 . S
O324 C330 1.261 . S
C325 O334 1.247 . S
C325 O335 1.272 . S
O326 Co322 2.004 . S
O326 C331 1.259 . S
Co327 O328 2.061 . S
Co327 O333 2.052 . S
Co327 O335 2.135 . S
O328 Co327 2.061 . S
O328 C331 1.235 . S
C329 O332 1.238 . S
C329 O333 1.241 . S
C330 O323 1.247 . S
C330 O324 1.261 . S
C331 O326 1.259 . S
C331 O328 1.235 . S
O332 Co322 2.021 . S
O332 C329 1.238 . S
O333 Co327 2.052 . S
O333 C329 1.241 . S
O334 Co322 2.137 . S
O334 C325 1.247 . S
O335 Co322 2.244 . S
O335 C325 1.272 . S
O335 Co327 2.135 . S
Co336 N341 2.057 1_554 S
Co336 O353 2.021 1_554 S
Co336 O356 2.062 1_455 S
Co336 O360 2.117 . S
Co336 O361 2.020 . S
C337 O357 1.259 . S
C337 O360 1.258 . S
Co338 N347 2.057 . S
Co338 O354 2.117 1_545 S
Co338 O355 2.020 1_455 S
Co338 O357 2.021 . S
Co338 O362 2.062 . S
C339 N341 1.322 . S
C339 N342 1.338 1_455 S
C339 H344 0.934 . S
C340 N341 1.375 1_655 S
C340 C343 1.350 . S
C340 H345 0.932 . S
N341 Co336 2.057 1_556 S
N341 C339 1.322 . S
N341 C340 1.375 1_455 S
N342 C339 1.338 1_655 S
N342 C343 1.373 . S
C343 C340 1.350 . S
C343 N342 1.373 . S
C343 H364 0.931 . S
H344 C339 0.934 . S
H345 C340 0.932 . S
C346 O353 1.259 1_564 S
C346 O354 1.258 . S
N347 Co338 2.057 . S
N347 C348 1.316 . S
N347 C349 1.375 1_545 S
C348 N347 1.316 . S
C348 N350 1.347 1_545 S
C348 H359 0.931 . S
C349 N347 1.375 1_565 S
C349 C351 1.350 . S
C349 H358 0.930 . S
N350 C348 1.347 1_565 S
N350 C351 1.373 . S
C351 C349 1.350 . S
C351 N350 1.373 . S
C351 H365 0.931 . S
C352 O355 1.256 . S
C352 O356 1.255 . S
O353 Co336 2.021 1_556 S
O353 C346 1.259 1_546 S
O354 Co338 2.117 1_565 S
O354 C346 1.258 . S
O355 Co338 2.020 1_655 S
O355 C352 1.256 . S
O356 Co336 2.062 1_655 S
O356 C352 1.255 . S
O357 C337 1.259 . S
O357 Co338 2.021 . S
H358 C349 0.930 . S
H359 C348 0.931 . S
O360 Co336 2.117 . S
O360 C337 1.258 . S
O361 Co336 2.020 . S
O361 C363 1.256 . S
O362 Co338 2.062 . S
O362 C363 1.255 . S
C363 O361 1.256 . S
C363 O362 1.255 . S
H364 C343 0.931 . S
H365 C351 0.931 . S
Co366 N371 2.057 . S
Co366 O383 2.021 . S
Co366 O386 2.062 . S
Co366 O390 2.117 . S
Co366 O391 2.020 . S
C367 O387 1.259 . S
C367 O390 1.258 . S
Co368 N377 2.057 . S
Co368 O384 2.117 . S
Co368 O385 2.020 . S
Co368 O387 2.021 . S
Co368 O392 2.062 . S
C369 N371 1.316 . S
C369 N372 1.347 . S
C369 H374 0.931 . S
C370 N371 1.375 . S
C370 C373 1.350 . S
C370 H375 0.930 . S
N371 Co366 2.057 . S
N371 C369 1.316 . S
N371 C370 1.375 . S
N372 C369 1.347 . S
N372 C373 1.373 . S
C373 C370 1.350 . S
C373 N372 1.373 . S
C373 H394 0.931 . S
H374 C369 0.931 . S
H375 C370 0.930 . S
C376 O383 1.259 . S
C376 O384 1.258 . S
N377 Co368 2.057 . S
N377 C378 1.316 . S
N377 C379 1.375 . S
C378 N377 1.316 . S
C378 N380 1.347 . S
C378 H389 0.931 . S
C379 N377 1.375 . S
C379 C381 1.350 . S
C379 H388 0.930 . S
N380 C378 1.347 . S
N380 C381 1.373 . S
C381 C379 1.350 . S
C381 N380 1.373 . S
C381 H395 0.931 . S
C382 O385 1.256 . S
C382 O386 1.255 . S
O383 Co366 2.021 . S
O383 C376 1.259 . S
O384 Co368 2.117 . S
O384 C376 1.258 . S
O385 Co368 2.020 . S
O385 C382 1.256 . S
O386 Co366 2.062 . S
O386 C382 1.255 . S
O387 C367 1.259 . S
O387 Co368 2.021 . S
H388 C379 0.930 . S
H389 C378 0.931 . S
O390 Co366 2.117 . S
O390 C367 1.258 . S
O391 Co366 2.020 . S
O391 C393 1.256 . S
O392 Co368 2.062 . S
O392 C393 1.255 . S
C393 O391 1.256 . S
C393 O392 1.255 . S
H394 C373 0.931 . S
H395 C381 0.931 . S
Co396 N401 2.057 . S
Co396 O413 2.021 1_545 S
Co396 O416 2.062 . S
Co396 O420 2.117 . S
Co396 O421 2.020 . S
C397 O417 1.259 . S
C397 O420 1.258 . S
Co398 N407 2.057 . S
Co398 O414 2.117 . S
Co398 O415 2.020 . S
Co398 O417 2.021 . S
Co398 O422 2.062 . S
C399 N401 1.316 1_565 S
C399 N402 1.347 1_565 S
C399 H404 0.931 . S
C400 N401 1.375 . S
C400 C403 1.350 . S
C400 H405 0.930 . S
N401 Co396 2.057 . S
N401 C399 1.316 1_545 S
N401 C400 1.375 . S
N402 C399 1.347 1_545 S
N402 C403 1.373 . S
C403 C400 1.350 . S
C403 N402 1.373 . S
C403 H424 0.931 . S
H404 C399 0.931 . S
H405 C400 0.930 . S
C406 O413 1.259 . S
C406 O414 1.258 1_565 S
N407 Co398 2.057 . S
N407 C408 1.316 . S
N407 C409 1.375 . S
C408 N407 1.316 . S
C408 N410 1.347 . S
C408 H419 0.931 . S
C409 N407 1.375 . S
C409 C411 1.350 . S
C409 H418 0.930 . S
N410 C408 1.347 . S
N410 C411 1.373 . S
C411 C409 1.350 . S
C411 N410 1.373 . S
C411 H425 0.931 . S
C412 O415 1.256 . S
C412 O416 1.255 . S
O413 Co396 2.021 1_565 S
O413 C406 1.259 . S
O414 Co398 2.117 . S
O414 C406 1.258 1_545 S
O415 Co398 2.020 . S
O415 C412 1.256 . S
O416 Co396 2.062 . S
O416 C412 1.255 . S
O417 C397 1.259 . S
O417 Co398 2.021 . S
H418 C409 0.930 . S
H419 C408 0.931 . S
O420 Co396 2.117 . S
O420 C397 1.258 . S
O421 Co396 2.020 . S
O421 C423 1.256 . S
O422 Co398 2.062 . S
O422 C423 1.255 . S
C423 O421 1.256 . S
C423 O422 1.255 . S
H424 C403 0.931 . S
H425 C411 0.931 . S
Co426 N431 2.057 . S
Co426 O443 2.021 . S
Co426 O446 2.062 . S
Co426 O450 2.117 . S
Co426 O451 2.020 . S
C427 O447 1.259 . S
C427 O450 1.258 . S
Co428 N437 2.057 . S
Co428 O444 2.117 . S
Co428 O445 2.020 . S
Co428 O447 2.021 . S
Co428 O452 2.062 . S
C429 N431 1.316 . S
C429 N432 1.347 . S
C429 H434 0.931 . S
C430 N431 1.375 . S
C430 C433 1.350 . S
C430 H435 0.930 . S
N431 Co426 2.057 . S
N431 C429 1.316 . S
N431 C430 1.375 . S
N432 C429 1.347 . S
N432 C433 1.373 . S
C433 C430 1.350 . S
C433 N432 1.373 . S
C433 H454 0.931 . S
H434 C429 0.931 . S
H435 C430 0.930 . S
C436 O443 1.259 . S
C436 O444 1.258 . S
N437 Co428 2.057 . S
N437 C438 1.316 . S
N437 C439 1.375 . S
C438 N437 1.316 . S
C438 N440 1.347 . S
C438 H449 0.931 . S
C439 N437 1.375 . S
C439 C441 1.350 . S
C439 H448 0.930 . S
N440 C438 1.347 . S
N440 C441 1.373 . S
C441 C439 1.350 . S
C441 N440 1.373 . S
C441 H455 0.931 . S
C442 O445 1.256 . S
C442 O446 1.255 . S
O443 Co426 2.021 . S
O443 C436 1.259 . S
O444 Co428 2.117 . S
O444 C436 1.258 . S
O445 Co428 2.020 . S
O445 C442 1.256 . S
O446 Co426 2.062 . S
O446 C442 1.255 . S
O447 C427 1.259 . S
O447 Co428 2.021 . S
H448 C439 0.930 . S
H449 C438 0.931 . S
O450 Co426 2.117 . S
O450 C427 1.258 . S
O451 Co426 2.020 . S
O451 C453 1.256 . S
O452 Co428 2.062 . S
O452 C453 1.255 . S
C453 O451 1.256 . S
C453 O452 1.255 . S
H454 C433 0.931 . S
H455 C441 0.931 . S
Co456 N461 2.057 1_545 S
Co456 O473 2.021 . S
Co456 O476 2.062 1_545 S
Co456 O480 2.117 . S
Co456 O481 2.020 1_455 S
C457 O477 1.259 . S
C457 O480 1.258 . S
Co458 N467 2.057 . S
Co458 O474 2.117 . S
Co458 O475 2.020 . S
Co458 O477 2.021 . S
Co458 O482 2.062 1_455 S
C459 N461 1.316 . S
C459 N462 1.347 . S
C459 H464 0.931 . S
C460 N461 1.375 1_655 S
C460 C463 1.350 . S
C460 H465 0.930 . S
N461 Co456 2.057 1_565 S
N461 C459 1.316 . S
N461 C460 1.375 1_455 S
N462 C459 1.347 . S
N462 C463 1.373 1_455 S
C463 C460 1.350 . S
C463 N462 1.373 1_655 S
C463 H484 0.931 . S
H464 C459 0.931 . S
H465 C460 0.930 . S
C466 O473 1.259 . S
C466 O474 1.258 . S
N467 Co458 2.057 . S
N467 C468 1.316 . S
N467 C469 1.375 . S
C468 N467 1.316 . S
C468 N470 1.347 . S
C468 H479 0.931 . S
C469 N467 1.375 . S
C469 C471 1.350 . S
C469 H478 0.930 . S
N470 C468 1.347 . S
N470 C471 1.373 . S
C471 C469 1.350 . S
C471 N470 1.373 . S
C471 H485 0.931 . S
C472 O475 1.256 . S
C472 O476 1.255 1_545 S
O473 Co456 2.021 . S
O473 C466 1.259 . S
O474 Co458 2.117 . S
O474 C466 1.258 . S
O475 Co458 2.020 . S
O475 C472 1.256 . S
O476 Co456 2.062 1_565 S
O476 C472 1.255 1_565 S
O477 C457 1.259 . S
O477 Co458 2.021 . S
H478 C469 0.930 . S
H479 C468 0.931 . S
O480 Co456 2.117 . S
O480 C457 1.258 . S
O481 Co456 2.020 1_655 S
O481 C483 1.256 . S
O482 Co458 2.062 1_655 S
O482 C483 1.255 . S
C483 O481 1.256 . S
C483 O482 1.255 . S
H484 C463 0.931 . S
H485 C471 0.931 . S
Co486 N491 2.057 . S
Co486 O503 2.021 . S
Co486 O506 2.062 . S
Co486 O510 2.117 . S
Co486 O511 2.020 . S
C487 O507 1.259 . S
C487 O510 1.258 . S
Co488 N497 2.057 . S
Co488 O504 2.117 . S
Co488 O505 2.020 . S
Co488 O507 2.021 . S
Co488 O512 2.062 . S
C489 N491 1.316 . S
C489 N492 1.347 . S
C489 H494 0.931 . S
C490 N491 1.375 . S
C490 C493 1.350 . S
C490 H495 0.930 . S
N491 Co486 2.057 . S
N491 C489 1.316 . S
N491 C490 1.375 . S
N492 C489 1.347 . S
N492 C493 1.373 . S
C493 C490 1.350 . S
C493 N492 1.373 . S
C493 H514 0.931 . S
H494 C489 0.931 . S
H495 C490 0.930 . S
C496 O503 1.259 . S
C496 O504 1.258 . S
N497 Co488 2.057 . S
N497 C498 1.316 . S
N497 C499 1.375 . S
C498 N497 1.316 . S
C498 N500 1.347 . S
C498 H509 0.931 . S
C499 N497 1.375 . S
C499 C501 1.350 . S
C499 H508 0.930 . S
N500 C498 1.347 . S
N500 C501 1.373 . S
C501 C499 1.350 . S
C501 N500 1.373 . S
C501 H515 0.931 . S
C502 O505 1.256 . S
C502 O506 1.255 . S
O503 Co486 2.021 . S
O503 C496 1.259 . S
O504 Co488 2.117 . S
O504 C496 1.258 . S
O505 Co488 2.020 . S
O505 C502 1.256 . S
O506 Co486 2.062 . S
O506 C502 1.255 . S
O507 C487 1.259 . S
O507 Co488 2.021 . S
H508 C499 0.930 . S
H509 C498 0.931 . S
O510 Co486 2.117 . S
O510 C487 1.258 . S
O511 Co486 2.020 . S
O511 C513 1.256 . S
O512 Co488 2.062 . S
O512 C513 1.255 . S
C513 O511 1.256 . S
C513 O512 1.255 . S
H514 C493 0.931 . S
H515 C501 0.931 . S
Co516 N521 2.057 1_554 S
Co516 O533 2.021 . S
Co516 O536 2.062 1_554 S
Co516 O540 2.117 . S
Co516 O541 2.020 1_545 S
C517 O537 1.259 . S
C517 O540 1.258 . S
Co518 N527 2.057 . S
Co518 O534 2.117 . S
Co518 O535 2.020 . S
Co518 O537 2.021 . S
Co518 O542 2.076 . S
C519 N521 1.316 . S
C519 N522 1.347 . S
C519 H524 0.931 . S
C520 N521 1.375 . S
C520 C523 1.350 . S
C520 H525 0.930 1_545 S
N521 Co516 2.057 1_556 S
N521 C519 1.316 . S
N521 C520 1.375 . S
N522 C519 1.347 . S
N522 C523 1.373 . S
C523 C520 1.350 . S
C523 N522 1.373 . S
C523 H544 0.931 1_545 S
H524 C519 0.931 . S
H525 C520 0.930 1_565 S
C526 O533 1.259 . S
C526 O534 1.258 . S
N527 Co518 2.057 . S
N527 C528 1.316 . S
N527 C529 1.375 . S
C528 N527 1.316 . S
C528 N530 1.347 . S
C528 H539 0.931 . S
C529 N527 1.375 . S
C529 C531 1.350 . S
C529 H538 0.930 . S
N530 C528 1.347 . S
N530 C531 1.373 . S
C531 C529 1.350 . S
C531 N530 1.373 . S
C531 H545 0.931 . S
C532 O535 1.256 . S
C532 O536 1.255 1_554 S
O533 Co516 2.021 . S
O533 C526 1.259 . S
O534 Co518 2.117 . S
O534 C526 1.258 . S
O535 Co518 2.020 . S
O535 C532 1.256 . S
O536 Co516 2.062 1_556 S
O536 C532 1.255 1_556 S
O537 C517 1.259 . S
O537 Co518 2.021 . S
H538 C529 0.930 . S
H539 C528 0.931 . S
O540 Co516 2.117 . S
O540 C517 1.258 . S
O541 Co516 2.020 1_565 S
O541 C543 1.256 . S
O542 Co518 2.076 . S
O542 C543 1.245 1_545 S
C543 O541 1.256 . S
C543 O542 1.245 1_565 S
H544 C523 0.931 1_565 S
H545 C531 0.931 . S
Co546 N551 2.057 . S
Co546 O563 2.021 . S
Co546 O566 2.062 . S
Co546 O570 2.117 . S
Co546 O571 2.020 . S
C547 O567 1.259 . S
C547 O570 1.258 . S
Co548 N557 2.057 . S
Co548 O564 2.117 . S
Co548 O565 2.020 . S
Co548 O567 2.021 . S
Co548 O572 2.062 . S
C549 N551 1.316 . S
C549 N552 1.347 . S
C549 H554 0.931 . S
C550 N551 1.375 . S
C550 C553 1.350 . S
C550 H555 0.930 . S
N551 Co546 2.057 . S
N551 C549 1.316 . S
N551 C550 1.375 . S
N552 C549 1.347 . S
N552 C553 1.373 . S
C553 C550 1.350 . S
C553 N552 1.373 . S
C553 H574 0.931 . S
H554 C549 0.931 . S
H555 C550 0.930 . S
C556 O563 1.259 . S
C556 O564 1.258 . S
N557 Co548 2.057 . S
N557 C558 1.316 . S
N557 C559 1.375 . S
C558 N557 1.316 . S
C558 N560 1.347 . S
C558 H569 0.931 . S
C559 N557 1.375 . S
C559 C561 1.350 . S
C559 H568 0.930 . S
N560 C558 1.347 . S
N560 C561 1.373 . S
C561 C559 1.350 . S
C561 N560 1.373 . S
C561 H575 0.931 . S
C562 O565 1.256 . S
C562 O566 1.255 . S
O563 Co546 2.021 . S
O563 C556 1.259 . S
O564 Co548 2.117 . S
O564 C556 1.258 . S
O565 Co548 2.020 . S
O565 C562 1.256 . S
O566 Co546 2.062 . S
O566 C562 1.255 . S
O567 C547 1.259 . S
O567 Co548 2.021 . S
H568 C559 0.930 . S
H569 C558 0.931 . S
O570 Co546 2.117 . S
O570 C547 1.258 . S
O571 Co546 2.020 . S
O571 C573 1.256 . S
O572 Co548 2.062 . S
O572 C573 1.255 . S
C573 O571 1.256 . S
C573 O572 1.255 . S
H574 C553 0.931 . S
H575 C561 0.931 . S
Co576 N581 2.057 . S
Co576 O593 2.021 1_554 S
Co576 O596 2.062 . S
Co576 O600 2.117 . S
Co576 O601 2.020 . S
C577 O597 1.259 . S
C577 O600 1.258 . S
Co578 N587 2.057 . S
Co578 O594 2.119 . S
Co578 O595 2.020 . S
Co578 O597 2.021 . S
Co578 O602 2.062 . S
C579 N581 1.316 1_556 S
C579 N582 1.347 1_556 S
C579 H584 0.931 . S
C580 N581 1.375 . S
C580 C583 1.350 . S
C580 H585 0.930 . S
N581 Co576 2.057 . S
N581 C579 1.316 1_554 S
N581 C580 1.375 . S
N582 C579 1.347 1_554 S
N582 C583 1.373 . S
C583 C580 1.350 . S
C583 N582 1.373 . S
C583 H604 0.931 . S
H584 C579 0.931 . S
H585 C580 0.930 . S
C586 O593 1.259 . S
C586 O594 1.257 1_556 S
N587 Co578 2.057 . S
N587 C588 1.316 . S
N587 C589 1.375 . S
C588 N587 1.316 . S
C588 N590 1.347 . S
C588 H599 0.931 . S
C589 N587 1.375 . S
C589 C591 1.350 . S
C589 H598 0.930 . S
N590 C588 1.347 . S
N590 C591 1.373 . S
C591 C589 1.350 . S
C591 N590 1.373 . S
C591 H605 0.931 . S
C592 O595 1.256 . S
C592 O596 1.255 . S
O593 Co576 2.021 1_556 S
O593 C586 1.259 . S
O594 Co578 2.119 . S
O594 C586 1.257 1_554 S
O595 Co578 2.020 . S
O595 C592 1.256 . S
O596 Co576 2.062 . S
O596 C592 1.255 . S
O597 C577 1.259 . S
O597 Co578 2.021 . S
H598 C589 0.930 . S
H599 C588 0.931 . S
O600 Co576 2.117 . S
O600 C577 1.258 . S
O601 Co576 2.020 . S
O601 C603 1.256 . S
O602 Co578 2.062 . S
O602 C603 1.255 . S
C603 O601 1.256 . S
C603 O602 1.255 . S
H604 C583 0.931 . S
H605 C591 0.931 . S
Co606 N611 2.057 . S
Co606 O623 2.021 . S
Co606 O626 2.062 . S
Co606 O630 2.117 . S
Co606 O631 2.020 . S
C607 O627 1.259 . S
C607 O630 1.258 . S
Co608 N617 2.057 . S
Co608 O624 2.117 . S
Co608 O625 2.020 . S
Co608 O627 2.021 . S
Co608 O632 2.062 . S
C609 N611 1.316 . S
C609 N612 1.347 . S
C609 H614 0.931 . S
C610 N611 1.375 . S
C610 C613 1.350 . S
C610 H615 0.930 . S
N611 Co606 2.057 . S
N611 C609 1.316 . S
N611 C610 1.375 . S
N612 C609 1.347 . S
N612 C613 1.373 . S
C613 C610 1.350 . S
C613 N612 1.373 . S
C613 H634 0.931 . S
H614 C609 0.931 . S
H615 C610 0.930 . S
C616 O623 1.259 . S
C616 O624 1.258 . S
N617 Co608 2.057 . S
N617 C618 1.316 . S
N617 C619 1.375 . S
C618 N617 1.316 . S
C618 N620 1.347 . S
C618 H629 0.931 . S
C619 N617 1.375 . S
C619 C621 1.350 . S
C619 H628 0.930 . S
N620 C618 1.347 . S
N620 C621 1.373 . S
C621 C619 1.350 . S
C621 N620 1.373 . S
C621 H635 0.931 . S
C622 O625 1.256 . S
C622 O626 1.255 . S
O623 Co606 2.021 . S
O623 C616 1.259 . S
O624 Co608 2.117 . S
O624 C616 1.258 . S
O625 Co608 2.020 . S
O625 C622 1.256 . S
O626 Co606 2.062 . S
O626 C622 1.255 . S
O627 C607 1.259 . S
O627 Co608 2.021 . S
H628 C619 0.930 . S
H629 C618 0.931 . S
O630 Co606 2.117 . S
O630 C607 1.258 . S
O631 Co606 2.020 . S
O631 C633 1.256 . S
O632 Co608 2.062 . S
O632 C633 1.255 . S
C633 O631 1.256 . S
C633 O632 1.255 . S
H634 C613 0.931 . S
H635 C621 0.931 . S
Co636 N641 2.057 . S
Co636 O653 2.021 1_455 S
Co636 O656 2.062 . S
Co636 O660 2.117 . S
Co636 O661 2.020 . S
C637 O657 1.259 . S
C637 O660 1.258 . S
Co638 N647 2.057 . S
Co638 O654 2.117 1_455 S
Co638 O655 2.020 . S
Co638 O657 2.021 . S
Co638 O662 2.062 . S
C639 N641 1.316 1_655 S
C639 N642 1.347 . S
C639 H644 0.931 . S
C640 N641 1.375 . S
C640 C643 1.350 . S
C640 H645 0.930 . S
N641 Co636 2.057 . S
N641 C639 1.316 1_455 S
N641 C640 1.375 . S
N642 C639 1.347 . S
N642 C643 1.373 1_655 S
C643 C640 1.350 . S
C643 N642 1.373 1_455 S
C643 H664 0.931 . S
H644 C639 0.931 . S
H645 C640 0.930 . S
C646 O653 1.259 . S
C646 O654 1.258 . S
N647 Co638 2.057 . S
N647 C648 1.316 . S
N647 C649 1.375 . S
C648 N647 1.316 . S
C648 N650 1.347 . S
C648 H659 0.931 . S
C649 N647 1.375 . S
C649 C651 1.350 . S
C649 H658 0.930 . S
N650 C648 1.347 . S
N650 C651 1.373 . S
C651 C649 1.350 . S
C651 N650 1.373 . S
C651 H665 0.931 . S
C652 O655 1.256 . S
C652 O656 1.255 . S
O653 Co636 2.021 1_655 S
O653 C646 1.259 . S
O654 Co638 2.117 1_655 S
O654 C646 1.258 . S
O655 Co638 2.020 . S
O655 C652 1.256 . S
O656 Co636 2.062 . S
O656 C652 1.255 . S
O657 C637 1.259 . S
O657 Co638 2.021 . S
H658 C649 0.930 . S
H659 C648 0.931 . S
O660 Co636 2.117 . S
O660 C637 1.258 . S
O661 Co636 2.020 . S
O661 C663 1.256 . S
O662 Co638 2.062 . S
O662 C663 1.255 . S
C663 O661 1.256 . S
C663 O662 1.255 . S
H664 C643 0.931 . S
H665 C651 0.931 . S
Co666 N671 2.057 . S
Co666 O683 2.021 . S
Co666 O686 2.062 . S
Co666 O690 2.117 . S
Co666 O691 2.020 . S
C667 O687 1.259 . S
C667 O690 1.258 . S
Co668 N677 2.057 . S
Co668 O684 2.117 . S
Co668 O685 2.020 . S
Co668 O687 2.021 . S
Co668 O692 2.062 . S
C669 N671 1.316 . S
C669 N672 1.347 . S
C669 H674 0.931 . S
C670 N671 1.375 . S
C670 C673 1.350 . S
C670 H675 0.930 . S
N671 Co666 2.057 . S
N671 C669 1.316 . S
N671 C670 1.375 . S
N672 C669 1.347 . S
N672 C673 1.373 . S
C673 C670 1.350 . S
C673 N672 1.373 . S
C673 H694 0.931 . S
H674 C669 0.931 . S
H675 C670 0.930 . S
C676 O683 1.259 . S
C676 O684 1.258 . S
N677 Co668 2.057 . S
N677 C678 1.316 . S
N677 C679 1.375 . S
C678 N677 1.316 . S
C678 N680 1.347 . S
C678 H689 0.931 . S
C679 N677 1.375 . S
C679 C681 1.350 . S
C679 H688 0.930 . S
N680 C678 1.347 . S
N680 C681 1.373 . S
C681 C679 1.350 . S
C681 N680 1.373 . S
C681 H695 0.931 . S
C682 O685 1.256 . S
C682 O686 1.255 . S
O683 Co666 2.021 . S
O683 C676 1.259 . S
O684 Co668 2.117 . S
O684 C676 1.258 . S
O685 Co668 2.020 . S
O685 C682 1.256 . S
O686 Co666 2.062 . S
O686 C682 1.255 . S
O687 C667 1.259 . S
O687 Co668 2.021 . S
H688 C679 0.930 . S
H689 C678 0.931 . S
O690 Co666 2.117 . S
O690 C667 1.258 . S
O691 Co666 2.020 . S
O691 C693 1.256 . S
O692 Co668 2.062 . S
O692 C693 1.255 . S
C693 O691 1.256 . S
C693 O692 1.255 . S
H694 C673 0.931 . S
H695 C681 0.931 . S
Co696 N701 2.057 . S
Co696 O713 2.021 . S
Co696 O716 2.062 . S
Co696 O720 2.117 . S
Co696 O721 2.020 . S
C697 O717 1.259 . S
C697 O720 1.258 . S
Co698 N707 2.057 . S
Co698 O714 2.117 . S
Co698 O715 2.020 . S
Co698 O717 2.021 . S
Co698 O722 2.062 . S
C699 N701 1.316 . S
C699 N702 1.347 . S
C699 H704 0.931 . S
C700 N701 1.375 . S
C700 C703 1.350 . S
C700 H705 0.930 . S
N701 Co696 2.057 . S
N701 C699 1.316 . S
N701 C700 1.375 . S
N702 C699 1.347 . S
N702 C703 1.373 . S
C703 C700 1.350 . S
C703 N702 1.373 . S
C703 H724 0.931 . S
H704 C699 0.931 . S
H705 C700 0.930 . S
C706 O713 1.259 . S
C706 O714 1.258 . S
N707 Co698 2.057 . S
N707 C708 1.316 . S
N707 C709 1.375 . S
C708 N707 1.316 . S
C708 N710 1.347 . S
C708 H719 0.931 . S
C709 N707 1.375 . S
C709 C711 1.350 . S
C709 H718 0.930 . S
N710 C708 1.347 . S
N710 C711 1.373 . S
C711 C709 1.350 . S
C711 N710 1.373 . S
C711 H725 0.931 . S
C712 O715 1.256 . S
C712 O716 1.255 . S
O713 Co696 2.021 . S
O713 C706 1.259 . S
O714 Co698 2.117 . S
O714 C706 1.258 . S
O715 Co698 2.020 . S
O715 C712 1.256 . S
O716 Co696 2.062 . S
O716 C712 1.255 . S
O717 C697 1.259 . S
O717 Co698 2.021 . S
H718 C709 0.930 . S
H719 C708 0.931 . S
O720 Co696 2.117 . S
O720 C697 1.258 . S
O721 Co696 2.020 . S
O721 C723 1.256 . S
O722 Co698 2.062 . S
O722 C723 1.255 . S
C723 O721 1.256 . S
C723 O722 1.255 . S
H724 C703 0.931 . S
H725 C711 0.931 . S
Co726 N731 2.057 . S
Co726 O743 2.021 . S
Co726 O746 2.062 . S
Co726 O750 2.117 . S
Co726 O751 2.020 . S
C727 O747 1.259 . S
C727 O750 1.258 . S
Co728 N737 2.057 . S
Co728 O744 2.117 . S
Co728 O745 2.020 . S
Co728 O747 2.021 . S
Co728 O752 2.062 . S
C729 N731 1.316 . S
C729 N732 1.347 . S
C729 H734 0.931 . S
C730 N731 1.375 . S
C730 C733 1.350 . S
C730 H735 0.930 . S
N731 Co726 2.057 . S
N731 C729 1.316 . S
N731 C730 1.375 . S
N732 C729 1.347 . S
N732 C733 1.373 . S
C733 C730 1.350 . S
C733 N732 1.373 . S
C733 H754 0.931 . S
H734 C729 0.931 . S
H735 C730 0.930 . S
C736 O743 1.259 . S
C736 O744 1.258 . S
N737 Co728 2.057 . S
N737 C738 1.316 . S
N737 C739 1.375 . S
C738 N737 1.316 . S
C738 N740 1.347 . S
C738 H749 0.931 . S
C739 N737 1.375 . S
C739 C741 1.350 . S
C739 H748 0.930 . S
N740 C738 1.347 . S
N740 C741 1.373 . S
C741 C739 1.350 . S
C741 N740 1.373 . S
C741 H755 0.931 . S
C742 O745 1.256 . S
C742 O746 1.255 . S
O743 Co726 2.021 . S
O743 C736 1.259 . S
O744 Co728 2.117 . S
O744 C736 1.258 . S
O745 Co728 2.020 . S
O745 C742 1.256 . S
O746 Co726 2.062 . S
O746 C742 1.255 . S
O747 C727 1.259 . S
O747 Co728 2.021 . S
H748 C739 0.930 . S
H749 C738 0.931 . S
O750 Co726 2.117 . S
O750 C727 1.258 . S
O751 Co726 2.020 . S
O751 C753 1.256 . S
O752 Co728 2.062 . S
O752 C753 1.255 . S
C753 O751 1.256 . S
C753 O752 1.255 . S
H754 C733 0.931 . S
H755 C741 0.931 . S
Co756 N761 2.057 . S
Co756 O773 2.021 . S
Co756 O776 2.062 . S
Co756 O780 2.117 . S
Co756 O781 2.020 . S
C757 O777 1.259 . S
C757 O780 1.258 . S
Co758 N767 2.057 . S
Co758 O774 2.117 . S
Co758 O775 2.020 . S
Co758 O777 2.021 . S
Co758 O782 2.062 . S
C759 N761 1.316 . S
C759 N762 1.347 . S
C759 H764 0.931 . S
C760 N761 1.375 . S
C760 C763 1.350 . S
C760 H765 0.930 . S
N761 Co756 2.057 . S
N761 C759 1.316 . S
N761 C760 1.375 . S
N762 C759 1.347 . S
N762 C763 1.373 . S
C763 C760 1.350 . S
C763 N762 1.373 . S
C763 H784 0.931 . S
H764 C759 0.931 . S
H765 C760 0.930 . S
C766 O773 1.259 . S
C766 O774 1.258 . S
N767 Co758 2.057 . S
N767 C768 1.316 . S
N767 C769 1.375 . S
C768 N767 1.316 . S
C768 N770 1.347 . S
C768 H779 0.931 . S
C769 N767 1.375 . S
C769 C771 1.350 . S
C769 H778 0.930 . S
N770 C768 1.347 . S
N770 C771 1.373 . S
C771 C769 1.350 . S
C771 N770 1.373 . S
C771 H785 0.931 . S
C772 O775 1.256 . S
C772 O776 1.255 . S
O773 Co756 2.021 . S
O773 C766 1.259 . S
O774 Co758 2.117 . S
O774 C766 1.258 . S
O775 Co758 2.020 . S
O775 C772 1.256 . S
O776 Co756 2.062 . S
O776 C772 1.255 . S
O777 C757 1.259 . S
O777 Co758 2.021 . S
H778 C769 0.930 . S
H779 C768 0.931 . S
O780 Co756 2.117 . S
O780 C757 1.258 . S
O781 Co756 2.020 . S
O781 C783 1.256 . S
O782 Co758 2.062 . S
O782 C783 1.255 . S
C783 O781 1.256 . S
C783 O782 1.255 . S
H784 C763 0.931 . S
H785 C771 0.931 . S
Co786 N791 2.057 1_455 S
Co786 O803 2.021 . S
Co786 O806 2.062 1_455 S
Co786 O810 2.117 . S
Co786 O811 2.020 1_554 S
C787 O807 1.259 . S
C787 O810 1.258 . S
Co788 N797 2.057 . S
Co788 O804 2.117 . S
Co788 O805 2.020 . S
Co788 O807 2.021 . S
Co788 O812 2.062 1_554 S
C789 N791 1.316 . S
C789 N792 1.347 . S
C789 H794 0.931 . S
C790 N791 1.375 1_556 S
C790 C793 1.350 . S
C790 H795 0.930 . S
N791 Co786 2.057 1_655 S
N791 C789 1.316 . S
N791 C790 1.375 1_554 S
N792 C789 1.347 . S
N792 C793 1.373 1_554 S
C793 C790 1.350 . S
C793 N792 1.373 1_556 S
C793 H814 0.931 . S
H794 C789 0.931 . S
H795 C790 0.930 . S
C796 O803 1.259 . S
C796 O804 1.258 . S
N797 Co788 2.057 . S
N797 C798 1.316 . S
N797 C799 1.375 . S
C798 N797 1.316 . S
C798 N800 1.347 . S
C798 H809 0.931 . S
C799 N797 1.375 . S
C799 C801 1.350 . S
C799 H808 0.930 . S
N800 C798 1.347 . S
N800 C801 1.373 . S
C801 C799 1.350 . S
C801 N800 1.373 . S
C801 H815 0.931 . S
C802 O805 1.256 . S
C802 O806 1.255 1_455 S
O803 Co786 2.021 . S
O803 C796 1.259 . S
O804 Co788 2.117 . S
O804 C796 1.258 . S
O805 Co788 2.020 . S
O805 C802 1.256 . S
O806 Co786 2.062 1_655 S
O806 C802 1.255 1_655 S
O807 C787 1.259 . S
O807 Co788 2.021 . S
H808 C799 0.930 . S
H809 C798 0.931 . S
O810 Co786 2.117 . S
O810 C787 1.258 . S
O811 Co786 2.020 1_556 S
O811 C813 1.256 . S
O812 Co788 2.062 1_556 S
O812 C813 1.255 . S
C813 O811 1.256 . S
C813 O812 1.255 . S
H814 C793 0.931 . S
H815 C801 0.931 . S
C816 C817 1.387 . S
C816 H820 0.950 . S
C816 C825 1.390 . S
C817 C816 1.387 . S
C817 C819 1.387 . S
H818 C825 0.950 . S
C819 C817 1.387 . S
C819 C821 1.390 . S
C819 H823 0.950 . S
H820 C816 0.950 . S
C821 C819 1.390 . S
C821 C822 1.387 . S
C821 H824 0.950 . S
C822 C821 1.387 . S
C822 C825 1.387 . S
H823 C819 0.950 . S
H824 C821 0.950 . S
C825 C816 1.390 . S
C825 H818 0.950 . S
C825 C822 1.387 . S
C826 C827 1.387 . S
C826 H830 0.950 . S
C826 C835 1.390 . S
C827 C826 1.387 . S
C827 C829 1.387 . S
H828 C835 0.950 . S
C829 C827 1.387 . S
C829 C831 1.390 . S
C829 H833 0.950 . S
H830 C826 0.950 . S
C831 C829 1.390 . S
C831 C832 1.387 . S
C831 H834 0.950 . S
C832 C831 1.387 . S
C832 C835 1.387 . S
H833 C829 0.950 . S
H834 C831 0.950 . S
C835 C826 1.390 . S
C835 H828 0.950 . S
C835 C832 1.387 . S
C836 C837 1.387 . S
C836 H840 0.950 . S
C836 C845 1.390 . S
C837 C836 1.387 . S
C837 C839 1.387 . S
H838 C845 0.950 . S
C839 C837 1.387 . S
C839 C841 1.390 . S
C839 H843 0.950 . S
H840 C836 0.950 . S
C841 C839 1.390 . S
C841 C842 1.387 . S
C841 H844 0.950 . S
C842 C841 1.387 . S
C842 C845 1.387 . S
H843 C839 0.950 . S
H844 C841 0.950 . S
C845 C836 1.390 . S
C845 H838 0.950 . S
C845 C842 1.387 . S
C846 C847 1.387 . S
C846 H850 0.950 . S
C846 C855 1.390 . S
C847 C846 1.387 . S
C847 C849 1.387 . S
H848 C855 0.950 . S
C849 C847 1.387 . S
C849 C851 1.390 . S
C849 H853 0.950 . S
H850 C846 0.950 . S
C851 C849 1.390 . S
C851 C852 1.387 . S
C851 H854 0.950 . S
C852 C851 1.387 . S
C852 C855 1.387 . S
H853 C849 0.950 . S
H854 C851 0.950 . S
C855 C846 1.390 . S
C855 H848 0.950 . S
C855 C852 1.387 . S
C856 C857 1.387 . S
C856 H860 0.950 . S
C856 C865 1.390 . S
C857 C856 1.387 . S
C857 C859 1.387 . S
H858 C865 0.950 . S
C859 C857 1.387 . S
C859 C861 1.390 . S
C859 H863 0.950 . S
H860 C856 0.950 . S
C861 C859 1.390 . S
C861 C862 1.387 . S
C861 H864 0.950 . S
C862 C861 1.387 . S
C862 C865 1.387 . S
H863 C859 0.950 . S
H864 C861 0.950 . S
C865 C856 1.390 . S
C865 H858 0.950 . S
C865 C862 1.387 . S
C866 C867 1.387 . S
C866 H870 0.950 . S
C866 C875 1.390 . S
C867 C866 1.387 . S
C867 C869 1.387 . S
H868 C875 0.950 . S
C869 C867 1.387 . S
C869 C871 1.390 . S
C869 H873 0.950 . S
H870 C866 0.950 . S
C871 C869 1.390 . S
C871 C872 1.387 . S
C871 H874 0.950 . S
C872 C871 1.387 . S
C872 C875 1.387 . S
H873 C869 0.950 . S
H874 C871 0.950 . S
C875 C866 1.390 . S
C875 H868 0.950 . S
C875 C872 1.387 . S
C876 C877 1.387 . S
C876 H880 0.950 . S
C876 C885 1.390 . S
C877 C876 1.387 . S
C877 C879 1.387 . S
H878 C885 0.950 . S
C879 C877 1.387 . S
C879 C881 1.390 . S
C879 H883 0.950 . S
H880 C876 0.950 . S
C881 C879 1.390 . S
C881 C882 1.387 . S
C881 H884 0.950 1_556 S
C882 C881 1.387 . S
C882 C885 1.387 . S
H883 C879 0.950 . S
H884 C881 0.950 1_554 S
C885 C876 1.390 . S
C885 H878 0.950 . S
C885 C882 1.387 . S
C886 C887 1.387 . S
C886 H890 0.950 . S
C886 C895 1.390 . S
C887 C886 1.387 . S
C887 C889 1.387 . S
H888 C895 0.950 . S
C889 C887 1.387 . S
C889 C891 1.390 . S
C889 H893 0.950 . S
H890 C886 0.950 . S
C891 C889 1.390 . S
C891 C892 1.387 . S
C891 H894 0.950 . S
C892 C891 1.387 . S
C892 C895 1.387 . S
H893 C889 0.950 . S
H894 C891 0.950 . S
C895 C886 1.390 . S
C895 H888 0.950 . S
C895 C892 1.387 . S
C896 C897 1.387 1_565 S
C896 H900 0.950 . S
C896 C905 1.390 . S
C897 C896 1.387 1_545 S
C897 C899 1.387 . S
H898 C905 0.950 . S
C899 C897 1.387 . S
C899 C901 1.390 . S
C899 H903 0.950 . S
H900 C896 0.950 . S
C901 C899 1.390 . S
C901 C902 1.387 . S
C901 H904 0.950 . S
C902 C901 1.387 . S
C902 C905 1.387 1_545 S
H903 C899 0.950 . S
H904 C901 0.950 . S
C905 C896 1.390 . S
C905 H898 0.950 . S
C905 C902 1.387 1_565 S
C906 C907 1.387 . S
C906 H910 0.950 . S
C906 C915 1.390 . S
C907 C906 1.387 . S
C907 C909 1.387 . S
H908 C915 0.950 . S
C909 C907 1.387 . S
C909 C911 1.390 . S
C909 H913 0.950 . S
H910 C906 0.950 . S
C911 C909 1.390 . S
C911 C912 1.387 . S
C911 H914 0.950 . S
C912 C911 1.387 . S
C912 C915 1.387 . S
H913 C909 0.950 . S
H914 C911 0.950 . S
C915 C906 1.390 . S
C915 H908 0.950 . S
C915 C912 1.387 . S
C916 C917 1.387 . S
C916 H920 0.950 . S
C916 C925 1.390 . S
C917 C916 1.387 . S
C917 C919 1.387 . S
H918 C925 0.950 . S
C919 C917 1.387 . S
C919 C921 1.390 . S
C919 H923 0.950 . S
H920 C916 0.950 . S
C921 C919 1.390 . S
C921 C922 1.387 . S
C921 H924 0.950 . S
C922 C921 1.387 . S
C922 C925 1.387 . S
H923 C919 0.950 . S
H924 C921 0.950 . S
C925 C916 1.390 . S
C925 H918 0.950 . S
C925 C922 1.387 . S
C926 C927 1.387 . S
C926 H930 0.950 . S
C926 C935 1.390 . S
C927 C926 1.387 . S
C927 C929 1.387 . S
H928 C935 0.950 . S
C929 C927 1.387 . S
C929 C931 1.390 . S
C929 H933 0.950 . S
H930 C926 0.950 . S
C931 C929 1.390 . S
C931 C932 1.387 . S
C931 H934 0.950 . S
C932 C931 1.387 . S
C932 C935 1.387 . S
H933 C929 0.950 . S
H934 C931 0.950 . S
C935 C926 1.390 . S
C935 H928 0.950 . S
C935 C932 1.387 . S
C936 C937 1.387 . S
C936 H940 0.950 . S
C936 C945 1.390 . S
C937 C936 1.387 . S
C937 C939 1.387 1_545 S
H938 C945 0.950 . S
C939 C937 1.387 1_565 S
C939 C941 1.390 1_565 S
C939 H943 0.950 . S
H940 C936 0.950 . S
C941 C939 1.390 1_545 S
C941 C942 1.387 . S
C941 H944 0.950 1_545 S
C942 C941 1.387 . S
C942 C945 1.387 . S
H943 C939 0.950 . S
H944 C941 0.950 1_565 S
C945 C936 1.390 . S
C945 H938 0.950 . S
C945 C942 1.387 . S
C946 C947 1.387 . S
C946 H950 0.950 . S
C946 C955 1.390 . S
C947 C946 1.387 . S
C947 C949 1.387 . S
H948 C955 0.950 . S
C949 C947 1.387 . S
C949 C951 1.390 . S
C949 H953 0.950 . S
H950 C946 0.950 . S
C951 C949 1.390 . S
C951 C952 1.387 . S
C951 H954 0.950 . S
C952 C951 1.387 . S
C952 C955 1.387 . S
H953 C949 0.950 . S
H954 C951 0.950 . S
C955 C946 1.390 . S
C955 H948 0.950 . S
C955 C952 1.387 . S
C956 C957 1.387 . S
C956 H960 0.950 . S
C956 C965 1.390 . S
C957 C956 1.387 . S
C957 C959 1.387 . S
H958 C965 0.950 1_565 S
C959 C957 1.387 . S
C959 C961 1.390 . S
C959 H963 0.950 . S
H960 C956 0.950 . S
C961 C959 1.390 . S
C961 C962 1.387 . S
C961 H964 0.950 . S
C962 C961 1.387 . S
C962 C965 1.387 . S
H963 C959 0.950 . S
H964 C961 0.950 . S
C965 C956 1.390 . S
C965 H958 0.950 1_545 S
C965 C962 1.387 . S
C966 C967 1.387 . S
C966 H970 0.950 . S
C966 C975 1.390 . S
C967 C966 1.387 . S
C967 C969 1.387 . S
H968 C975 0.950 . S
C969 C967 1.387 . S
C969 C971 1.390 . S
C969 H973 0.950 . S
H970 C966 0.950 . S
C971 C969 1.390 . S
C971 C972 1.387 . S
C971 H974 0.950 . S
C972 C971 1.387 . S
C972 C975 1.387 . S
H973 C969 0.950 . S
H974 C971 0.950 . S
C975 C966 1.390 . S
C975 H968 0.950 . S
C975 C972 1.387 . S
C976 C977 1.387 . S
C976 H980 0.950 1_554 S
C976 C985 1.389 1_554 S
C977 C976 1.387 . S
C977 C979 1.387 . S
H978 C985 0.954 . S
C979 C977 1.387 . S
C979 C981 1.390 . S
C979 H983 0.950 . S
H980 C976 0.950 1_556 S
C981 C979 1.390 . S
C981 C982 1.387 . S
C981 H984 0.950 . S
C982 C981 1.387 . S
C982 C985 1.384 1_554 S
H983 C979 0.950 . S
H984 C981 0.950 . S
C985 C976 1.389 1_556 S
C985 H978 0.954 . S
C985 C982 1.384 1_556 S
C986 C987 1.387 . S
C986 H990 0.950 . S
C986 C995 1.390 . S
C987 C986 1.387 . S
C987 C989 1.387 . S
H988 C995 0.950 . S
C989 C987 1.387 . S
C989 C991 1.390 . S
C989 H993 0.950 . S
H990 C986 0.950 . S
C991 C989 1.390 . S
C991 C992 1.387 . S
C991 H994 0.950 . S
C992 C991 1.387 . S
C992 C995 1.387 . S
H993 C989 0.950 . S
H994 C991 0.950 . S
C995 C986 1.390 . S
C995 H988 0.950 . S
C995 C992 1.387 . S
C996 C997 1.387 . S
C996 H1000 0.950 . S
C996 C1005 1.390 . S
C997 C996 1.387 . S
C997 C999 1.387 . S
H998 C1005 0.950 . S
C999 C997 1.387 . S
C999 C1001 1.390 . S
C999 H1003 0.950 . S
H1000 C996 0.950 . S
C1001 C999 1.390 . S
C1001 C1002 1.387 . S
C1001 H1004 0.950 . S
C1002 C1001 1.387 . S
C1002 C1005 1.387 . S
H1003 C999 0.950 . S
H1004 C1001 0.950 . S
C1005 C996 1.390 . S
C1005 H998 0.950 . S
C1005 C1002 1.387 . S
C1006 C1007 1.387 . S
C1006 H1010 0.950 . S
C1006 C1015 1.390 . S
C1007 C1006 1.387 . S
C1007 C1009 1.387 . S
H1008 C1015 0.950 . S
C1009 C1007 1.387 . S
C1009 C1011 1.390 . S
C1009 H1013 0.950 . S
H1010 C1006 0.950 . S
C1011 C1009 1.390 . S
C1011 C1012 1.387 . S
C1011 H1014 0.950 . S
C1012 C1011 1.387 . S
C1012 C1015 1.387 . S
H1013 C1009 0.950 . S
H1014 C1011 0.950 . S
C1015 C1006 1.390 . S
C1015 H1008 0.950 . S
C1015 C1012 1.387 . S
C1016 C1017 1.387 . S
C1016 H1020 0.950 . S
C1016 C1025 1.390 . S
C1017 C1016 1.387 . S
C1017 C1019 1.387 . S
H1018 C1025 0.950 . S
C1019 C1017 1.387 . S
C1019 C1021 1.390 . S
C1019 H1023 0.950 . S
H1020 C1016 0.950 . S
C1021 C1019 1.390 . S
C1021 C1022 1.387 . S
C1021 H1024 0.950 . S
C1022 C1021 1.387 . S
C1022 C1025 1.387 . S
H1023 C1019 0.950 . S
H1024 C1021 0.950 . S
C1025 C1016 1.390 . S
C1025 H1018 0.950 . S
C1025 C1022 1.387 . S
C1026 C1027 1.387 . S
C1026 H1030 0.950 . S
C1026 C1035 1.390 1_565 S
C1027 C1026 1.387 . S
C1027 C1029 1.387 . S
H1028 C1035 0.950 . S
C1029 C1027 1.387 . S
C1029 C1031 1.390 . S
C1029 H1033 0.950 . S
H1030 C1026 0.950 . S
C1031 C1029 1.390 . S
C1031 C1032 1.387 . S
C1031 H1034 0.950 . S
C1032 C1031 1.387 . S
C1032 C1035 1.387 1_565 S
H1033 C1029 0.950 . S
H1034 C1031 0.950 . S
C1035 C1026 1.390 1_545 S
C1035 H1028 0.950 . S
C1035 C1032 1.387 1_545 S
C1036 C1037 1.387 . S
C1036 H1040 0.950 . S
C1036 C1045 1.390 . S
C1037 C1036 1.387 . S
C1037 C1039 1.387 . S
H1038 C1045 0.950 . S
C1039 C1037 1.387 . S
C1039 C1041 1.390 . S
C1039 H1043 0.950 . S
H1040 C1036 0.950 . S
C1041 C1039 1.390 . S
C1041 C1042 1.387 . S
C1041 H1044 0.950 . S
C1042 C1041 1.387 . S
C1042 C1045 1.387 . S
H1043 C1039 0.950 . S
H1044 C1041 0.950 . S
C1045 C1036 1.390 . S
C1045 H1038 0.950 . S
C1045 C1042 1.387 . S
C1046 C1047 1.387 . S
C1046 H1050 0.950 . S
C1046 C1055 1.390 . S
C1047 C1046 1.387 . S
C1047 C1049 1.387 . S
H1048 C1055 0.950 . S
C1049 C1047 1.387 . S
C1049 C1051 1.390 . S
C1049 H1053 0.950 . S
H1050 C1046 0.950 . S
C1051 C1049 1.390 . S
C1051 C1052 1.387 . S
C1051 H1054 0.950 . S
C1052 C1051 1.387 . S
C1052 C1055 1.387 . S
H1053 C1049 0.950 . S
H1054 C1051 0.950 . S
C1055 C1046 1.390 . S
C1055 H1048 0.950 . S
C1055 C1052 1.387 . S
C1056 C1057 1.387 . S
C1056 H1060 0.950 . S
C1056 C1065 1.390 . S
C1057 C1056 1.387 . S
C1057 C1059 1.387 . S
H1058 C1065 0.950 1_554 S
C1059 C1057 1.387 . S
C1059 C1061 1.390 . S
C1059 H1063 0.950 1_455 S
H1060 C1056 0.950 . S
C1061 C1059 1.390 . S
C1061 C1062 1.387 . S
C1061 H1064 0.950 . S
C1062 C1061 1.387 . S
C1062 C1065 1.387 . S
H1063 C1059 0.950 1_655 S
H1064 C1061 0.950 . S
C1065 C1056 1.390 . S
C1065 H1058 0.950 1_556 S
C1065 C1062 1.387 . S
C1066 C1067 1.387 . S
C1066 H1070 0.950 . S
C1066 C1075 1.390 . S
C1067 C1066 1.387 . S
C1067 C1069 1.387 . S
H1068 C1075 0.950 . S
C1069 C1067 1.387 . S
C1069 C1071 1.390 . S
C1069 H1073 0.950 . S
H1070 C1066 0.950 . S
C1071 C1069 1.390 . S
C1071 C1072 1.387 . S
C1071 H1074 0.950 . S
C1072 C1071 1.387 . S
C1072 C1075 1.387 . S
H1073 C1069 0.950 . S
H1074 C1071 0.950 . S
C1075 C1066 1.390 . S
C1075 H1068 0.950 . S
C1075 C1072 1.387 . S
C1076 C1077 1.387 . S
C1076 H1080 0.950 . S
C1076 C1085 1.390 . S
C1077 C1076 1.387 . S
C1077 C1079 1.387 . S
H1078 C1085 0.950 . S
C1079 C1077 1.387 . S
C1079 C1081 1.390 . S
C1079 H1083 0.950 . S
H1080 C1076 0.950 . S
C1081 C1079 1.390 . S
C1081 C1082 1.387 . S
C1081 H1084 0.950 . S
C1082 C1081 1.387 . S
C1082 C1085 1.387 . S
H1083 C1079 0.950 . S
H1084 C1081 0.950 . S
C1085 C1076 1.390 . S
C1085 H1078 0.950 . S
C1085 C1082 1.387 . S
C1086 C1087 1.387 . S
C1086 H1090 0.950 . S
C1086 C1095 1.390 . S
C1087 C1086 1.387 . S
C1087 C1089 1.387 . S
H1088 C1095 0.950 . S
C1089 C1087 1.387 . S
C1089 C1091 1.390 . S
C1089 H1093 0.950 . S
H1090 C1086 0.950 . S
C1091 C1089 1.390 . S
C1091 C1092 1.387 . S
C1091 H1094 0.950 . S
C1092 C1091 1.387 . S
C1092 C1095 1.387 . S
H1093 C1089 0.950 . S
H1094 C1091 0.950 . S
C1095 C1086 1.390 . S
C1095 H1088 0.950 . S
C1095 C1092 1.387 . S
C1096 C1097 1.387 . S
C1096 H1100 0.950 . S
C1096 C1105 1.390 . S
C1097 C1096 1.387 . S
C1097 C1099 1.387 . S
H1098 C1105 0.950 . S
C1099 C1097 1.387 . S
C1099 C1101 1.390 . S
C1099 H1103 0.950 . S
H1100 C1096 0.950 . S
C1101 C1099 1.390 . S
C1101 C1102 1.387 . S
C1101 H1104 0.950 . S
C1102 C1101 1.387 . S
C1102 C1105 1.387 . S
H1103 C1099 0.950 . S
H1104 C1101 0.950 . S
C1105 C1096 1.390 . S
C1105 H1098 0.950 . S
C1105 C1102 1.387 . S
C1106 C1107 1.387 . S
C1106 H1110 0.950 . S
C1106 C1115 1.390 . S
C1107 C1106 1.387 . S
C1107 C1109 1.387 . S
H1108 C1115 0.950 . S
C1109 C1107 1.387 . S
C1109 C1111 1.390 . S
C1109 H1113 0.950 . S
H1110 C1106 0.950 . S
C1111 C1109 1.390 . S
C1111 C1112 1.387 . S
C1111 H1114 0.950 . S
C1112 C1111 1.387 . S
C1112 C1115 1.387 . S
H1113 C1109 0.950 . S
H1114 C1111 0.950 . S
C1115 C1106 1.390 . S
C1115 H1108 0.950 . S
C1115 C1112 1.387 . S
C1116 C1117 1.387 . S
C1116 H1120 0.950 . S
C1116 C1125 1.390 . S
C1117 C1116 1.387 . S
C1117 C1119 1.387 . S
H1118 C1125 0.950 . S
C1119 C1117 1.387 . S
C1119 C1121 1.390 . S
C1119 H1123 0.950 . S
H1120 C1116 0.950 . S
C1121 C1119 1.390 . S
C1121 C1122 1.387 . S
C1121 H1124 0.950 . S
C1122 C1121 1.387 . S
C1122 C1125 1.387 . S
H1123 C1119 0.950 . S
H1124 C1121 0.950 . S
C1125 C1116 1.390 . S
C1125 H1118 0.950 . S
C1125 C1122 1.387 . S
C1126 C1127 1.387 . S
C1126 H1130 0.950 . S
C1126 C1135 1.390 . S
C1127 C1126 1.387 . S
C1127 C1129 1.387 . S
H1128 C1135 0.950 . S
C1129 C1127 1.387 . S
C1129 C1131 1.390 . S
C1129 H1133 0.950 . S
H1130 C1126 0.950 . S
C1131 C1129 1.390 . S
C1131 C1132 1.387 . S
C1131 H1134 0.950 . S
C1132 C1131 1.387 . S
C1132 C1135 1.387 . S
H1133 C1129 0.950 . S
H1134 C1131 0.950 . S
C1135 C1126 1.390 . S
C1135 H1128 0.950 . S
C1135 C1132 1.387 . S
C1136 C1137 1.387 . S
C1136 H1140 0.950 . S
C1136 C1145 1.390 . S
C1137 C1136 1.387 . S
C1137 C1139 1.387 . S
H1138 C1145 0.950 . S
C1139 C1137 1.387 . S
C1139 C1141 1.390 . S
C1139 H1143 0.950 . S
H1140 C1136 0.950 . S
C1141 C1139 1.390 . S
C1141 C1142 1.387 . S
C1141 H1144 0.950 . S
C1142 C1141 1.387 . S
C1142 C1145 1.387 . S
H1143 C1139 0.950 . S
H1144 C1141 0.950 . S
C1145 C1136 1.390 . S
C1145 H1138 0.950 . S
C1145 C1142 1.387 . S
C1146 C1147 1.387 . S
C1146 H1150 0.950 . S
C1146 C1155 1.390 . S
C1147 C1146 1.387 . S
C1147 C1149 1.387 . S
H1148 C1155 0.950 . S
C1149 C1147 1.387 . S
C1149 C1151 1.390 . S
C1149 H1153 0.950 . S
H1150 C1146 0.950 . S
C1151 C1149 1.390 . S
C1151 C1152 1.387 . S
C1151 H1154 0.950 . S
C1152 C1151 1.387 . S
C1152 C1155 1.387 . S
H1153 C1149 0.950 . S
H1154 C1151 0.950 . S
C1155 C1146 1.390 . S
C1155 H1148 0.950 . S
C1155 C1152 1.387 . S
C1156 C1157 1.387 . S
C1156 H1160 0.950 . S
C1156 C1165 1.390 . S
C1157 C1156 1.387 . S
C1157 C1159 1.387 1_545 S
H1158 C1165 0.950 . S
C1159 C1157 1.387 1_565 S
C1159 C1161 1.390 . S
C1159 H1163 0.950 . S
H1160 C1156 0.950 . S
C1161 C1159 1.390 . S
C1161 C1162 1.387 1_565 S
C1161 H1164 0.950 . S
C1162 C1161 1.387 1_545 S
C1162 C1165 1.387 . S
H1163 C1159 0.950 . S
H1164 C1161 0.950 . S
C1165 C1156 1.390 . S
C1165 H1158 0.950 . S
C1165 C1162 1.387 . S
C1166 C1167 1.387 . S
C1166 H1170 0.950 . S
C1166 C1175 1.390 . S
C1167 C1166 1.387 . S
C1167 C1169 1.387 . S
H1168 C1175 0.950 . S
C1169 C1167 1.387 . S
C1169 C1171 1.390 . S
C1169 H1173 0.950 . S
H1170 C1166 0.950 . S
C1171 C1169 1.390 . S
C1171 C1172 1.387 . S
C1171 H1174 0.950 . S
C1172 C1171 1.387 . S
C1172 C1175 1.387 . S
H1173 C1169 0.950 . S
H1174 C1171 0.950 . S
C1175 C1166 1.390 . S
C1175 H1168 0.950 . S
C1175 C1172 1.387 . S
C1176 C1177 1.387 . S
C1176 H1180 0.950 . S
C1176 C1185 1.390 . S
C1177 C1176 1.387 . S
C1177 C1179 1.387 . S
H1178 C1185 0.950 1_565 S
C1179 C1177 1.387 . S
C1179 C1181 1.390 . S
C1179 H1183 0.950 . S
H1180 C1176 0.950 . S
C1181 C1179 1.390 . S
C1181 C1182 1.387 . S
C1181 H1184 0.950 . S
C1182 C1181 1.387 . S
C1182 C1185 1.387 . S
H1183 C1179 0.950 . S
H1184 C1181 0.950 . S
C1185 C1176 1.390 . S
C1185 H1178 0.950 1_545 S
C1185 C1182 1.387 . S
C1186 C1187 1.387 . S
C1186 H1190 0.950 . S
C1186 C1195 1.390 . S
C1187 C1186 1.387 . S
C1187 C1189 1.387 . S
H1188 C1195 0.950 . S
C1189 C1187 1.387 . S
C1189 C1191 1.390 . S
C1189 H1193 0.950 . S
H1190 C1186 0.950 . S
C1191 C1189 1.390 . S
C1191 C1192 1.387 . S
C1191 H1194 0.950 . S
C1192 C1191 1.387 . S
C1192 C1195 1.387 . S
H1193 C1189 0.950 . S
H1194 C1191 0.950 . S
C1195 C1186 1.390 . S
C1195 H1188 0.950 . S
C1195 C1192 1.387 . S
C1196 C1197 1.387 . S
C1196 H1200 0.950 . S
C1196 C1205 1.390 . S
C1197 C1196 1.387 . S
C1197 C1199 1.387 . S
H1198 C1205 0.950 . S
C1199 C1197 1.387 . S
C1199 C1201 1.390 . S
C1199 H1203 0.950 . S
H1200 C1196 0.950 . S
C1201 C1199 1.390 . S
C1201 C1202 1.387 . S
C1201 H1204 0.950 . S
C1202 C1201 1.387 . S
C1202 C1205 1.387 . S
H1203 C1199 0.950 . S
H1204 C1201 0.950 . S
C1205 C1196 1.390 . S
C1205 H1198 0.950 . S
C1205 C1202 1.387 . S
C1206 C1207 1.387 . S
C1206 H1210 0.950 . S
C1206 C1215 1.390 . S
C1207 C1206 1.387 . S
C1207 C1209 1.387 . S
H1208 C1215 0.950 . S
C1209 C1207 1.387 . S
C1209 C1211 1.390 . S
C1209 H1213 0.950 . S
H1210 C1206 0.950 . S
C1211 C1209 1.390 . S
C1211 C1212 1.387 . S
C1211 H1214 0.950 . S
C1212 C1211 1.387 . S
C1212 C1215 1.387 . S
H1213 C1209 0.950 . S
H1214 C1211 0.950 . S
C1215 C1206 1.390 . S
C1215 H1208 0.950 . S
C1215 C1212 1.387 . S
C1216 C1217 1.387 . S
C1216 H1220 0.950 . S
C1216 C1225 1.390 . S
C1217 C1216 1.387 . S
C1217 C1219 1.387 . S
H1218 C1225 0.950 . S
C1219 C1217 1.387 . S
C1219 C1221 1.381 1_565 S
C1219 H1223 0.950 1_554 S
H1220 C1216 0.950 . S
C1221 C1219 1.381 1_545 S
C1221 C1222 1.388 1_545 S
C1221 H1224 0.959 1_554 S
C1222 C1221 1.388 1_565 S
C1222 C1225 1.396 . S
H1223 C1219 0.950 1_556 S
H1224 C1221 0.959 1_556 S
C1225 C1216 1.390 . S
C1225 H1218 0.950 . S
C1225 C1222 1.396 . S
C1226 C1227 1.387 . S
C1226 H1230 0.950 . S
C1226 C1235 1.390 . S
C1227 C1226 1.387 . S
C1227 C1229 1.387 1_554 S
H1228 C1235 0.950 . S
C1229 C1227 1.387 1_556 S
C1229 C1231 1.390 . S
C1229 H1233 0.950 . S
H1230 C1226 0.950 . S
C1231 C1229 1.390 . S
C1231 C1232 1.387 1_556 S
C1231 H1234 0.950 . S
C1232 C1231 1.387 1_554 S
C1232 C1235 1.387 . S
H1233 C1229 0.950 . S
H1234 C1231 0.950 . S
C1235 C1226 1.390 . S
C1235 H1228 0.950 . S
C1235 C1232 1.387 . S
C1236 C1237 1.387 . S
C1236 H1240 0.950 . S
C1236 C1245 1.390 . S
C1237 C1236 1.387 . S
C1237 C1239 1.387 . S
H1238 C1245 0.950 . S
C1239 C1237 1.387 . S
C1239 C1241 1.390 . S
C1239 H1243 0.950 . S
H1240 C1236 0.950 . S
C1241 C1239 1.390 . S
C1241 C1242 1.387 . S
C1241 H1244 0.950 . S
C1242 C1241 1.387 . S
C1242 C1245 1.387 . S
H1243 C1239 0.950 . S
H1244 C1241 0.950 . S
C1245 C1236 1.390 . S
C1245 H1238 0.950 . S
C1245 C1242 1.387 . S
C1246 C1247 1.387 . S
C1246 H1250 0.950 . S
C1246 C1255 1.390 . S
C1247 C1246 1.387 . S
C1247 C1249 1.387 . S
H1248 C1255 0.950 . S
C1249 C1247 1.387 . S
C1249 C1251 1.390 . S
C1249 H1253 0.950 . S
H1250 C1246 0.950 . S
C1251 C1249 1.390 . S
C1251 C1252 1.387 . S
C1251 H1254 0.950 . S
C1252 C1251 1.387 . S
C1252 C1255 1.387 . S
H1253 C1249 0.950 . S
H1254 C1251 0.950 . S
C1255 C1246 1.390 . S
C1255 H1248 0.950 . S
C1255 C1252 1.387 . S
C1256 C1257 1.387 . S
C1256 H1260 0.950 . S
C1256 C1265 1.390 . S
C1257 C1256 1.387 . S
C1257 C1259 1.387 . S
H1258 C1265 0.950 . S
C1259 C1257 1.387 . S
C1259 C1261 1.390 . S
C1259 H1263 0.950 . S
H1260 C1256 0.950 . S
C1261 C1259 1.390 . S
C1261 C1262 1.387 . S
C1261 H1264 0.950 . S
C1262 C1261 1.387 . S
C1262 C1265 1.387 . S
H1263 C1259 0.950 . S
H1264 C1261 0.950 . S
C1265 C1256 1.390 . S
C1265 H1258 0.950 . S
C1265 C1262 1.387 . S
C1266 C1267 1.387 . S
C1266 H1270 0.950 . S
C1266 C1275 1.390 . S
C1267 C1266 1.387 . S
C1267 C1269 1.387 . S
H1268 C1275 0.950 . S
C1269 C1267 1.387 . S
C1269 C1271 1.390 . S
C1269 H1273 0.950 . S
H1270 C1266 0.950 . S
C1271 C1269 1.390 . S
C1271 C1272 1.387 . S
C1271 H1274 0.950 . S
C1272 C1271 1.387 . S
C1272 C1275 1.387 . S
H1273 C1269 0.950 . S
H1274 C1271 0.950 . S
C1275 C1266 1.390 . S
C1275 H1268 0.950 . S
C1275 C1272 1.387 . S
C1276 C1277 1.387 . S
C1276 H1280 0.950 . S
C1276 C1285 1.390 . S
C1277 C1276 1.387 . S
C1277 C1279 1.387 . S
H1278 C1285 0.950 . S
C1279 C1277 1.387 . S
C1279 C1281 1.390 . S
C1279 H1283 0.950 . S
H1280 C1276 0.950 . S
C1281 C1279 1.390 . S
C1281 C1282 1.387 . S
C1281 H1284 0.950 . S
C1282 C1281 1.387 . S
C1282 C1285 1.387 . S
H1283 C1279 0.950 . S
H1284 C1281 0.950 . S
C1285 C1276 1.390 . S
C1285 H1278 0.950 . S
C1285 C1282 1.387 . S
C1286 C1287 1.387 . S
C1286 H1290 0.950 . S
C1286 C1295 1.390 . S
C1287 C1286 1.387 . S
C1287 C1289 1.387 . S
H1288 C1295 0.950 . S
C1289 C1287 1.387 . S
C1289 C1291 1.390 . S
C1289 H1293 0.950 . S
H1290 C1286 0.950 . S
C1291 C1289 1.390 . S
C1291 C1292 1.387 . S
C1291 H1294 0.950 . S
C1292 C1291 1.387 . S
C1292 C1295 1.387 . S
H1293 C1289 0.950 . S
H1294 C1291 0.950 . S
C1295 C1286 1.390 . S
C1295 H1288 0.950 . S
C1295 C1292 1.387 . S
C1296 C1297 1.387 . S
C1296 H1300 0.950 . S
C1296 C1305 1.390 . S
C1297 C1296 1.387 . S
C1297 C1299 1.387 . S
H1298 C1305 0.950 . S
C1299 C1297 1.387 . S
C1299 C1301 1.390 . S
C1299 H1303 0.950 . S
H1300 C1296 0.950 . S
C1301 C1299 1.390 . S
C1301 C1302 1.387 . S
C1301 H1304 0.950 . S
C1302 C1301 1.387 . S
C1302 C1305 1.387 . S
H1303 C1299 0.950 . S
H1304 C1301 0.950 . S
C1305 C1296 1.390 . S
C1305 H1298 0.950 . S
C1305 C1302 1.387 . S
C1306 C1307 1.387 . S
C1306 H1310 0.950 . S
C1306 C1315 1.390 . S
C1307 C1306 1.387 . S
C1307 C1309 1.387 . S
H1308 C1315 0.950 . S
C1309 C1307 1.387 . S
C1309 C1311 1.390 . S
C1309 H1313 0.950 . S
H1310 C1306 0.950 . S
C1311 C1309 1.390 . S
C1311 C1312 1.387 . S
C1311 H1314 0.950 . S
C1312 C1311 1.387 . S
C1312 C1315 1.387 . S
H1313 C1309 0.950 . S
H1314 C1311 0.950 . S
C1315 C1306 1.390 . S
C1315 H1308 0.950 . S
C1315 C1312 1.387 . S
C1316 C1317 1.387 . S
C1316 H1320 0.950 . S
C1316 C1325 1.390 . S
C1317 C1316 1.387 . S
C1317 C1319 1.387 . S
H1318 C1325 0.950 . S
C1319 C1317 1.387 . S
C1319 C1321 1.390 . S
C1319 H1323 0.950 . S
H1320 C1316 0.950 . S
C1321 C1319 1.390 . S
C1321 C1322 1.387 . S
C1321 H1324 0.950 . S
C1322 C1321 1.387 . S
C1322 C1325 1.387 . S
H1323 C1319 0.950 . S
H1324 C1321 0.950 . S
C1325 C1316 1.390 . S
C1325 H1318 0.950 . S
C1325 C1322 1.387 . S
C1326 C1327 1.387 . S
C1326 H1330 0.950 . S
C1326 C1335 1.390 . S
C1327 C1326 1.387 . S
C1327 C1329 1.387 . S
H1328 C1335 0.950 . S
C1329 C1327 1.387 . S
C1329 C1331 1.390 . S
C1329 H1333 0.950 . S
H1330 C1326 0.950 . S
C1331 C1329 1.390 . S
C1331 C1332 1.387 . S
C1331 H1334 0.950 . S
C1332 C1331 1.387 . S
C1332 C1335 1.387 . S
H1333 C1329 0.950 . S
H1334 C1331 0.950 . S
C1335 C1326 1.390 . S
C1335 H1328 0.950 . S
C1335 C1332 1.387 . S
C1336 C1337 1.387 . S
C1336 H1340 0.950 . S
C1336 C1345 1.390 . S
C1337 C1336 1.387 . S
C1337 C1339 1.387 . S
H1338 C1345 0.950 . S
C1339 C1337 1.387 . S
C1339 C1341 1.390 . S
C1339 H1343 0.950 . S
H1340 C1336 0.950 . S
C1341 C1339 1.390 . S
C1341 C1342 1.387 . S
C1341 H1344 0.950 1_556 S
C1342 C1341 1.387 . S
C1342 C1345 1.387 . S
H1343 C1339 0.950 . S
H1344 C1341 0.950 1_554 S
C1345 C1336 1.390 . S
C1345 H1338 0.950 . S
C1345 C1342 1.387 . S
C1346 C1347 1.387 . S
C1346 H1350 0.950 . S
C1346 C1355 1.390 . S
C1347 C1346 1.387 . S
C1347 C1349 1.387 . S
H1348 C1355 0.950 . S
C1349 C1347 1.387 . S
C1349 C1351 1.390 . S
C1349 H1353 0.950 . S
H1350 C1346 0.950 . S
C1351 C1349 1.390 . S
C1351 C1352 1.387 . S
C1351 H1354 0.950 . S
C1352 C1351 1.387 . S
C1352 C1355 1.387 . S
H1353 C1349 0.950 . S
H1354 C1351 0.950 . S
C1355 C1346 1.390 . S
C1355 H1348 0.950 . S
C1355 C1352 1.387 . S
C1356 C1357 1.387 . S
C1356 H1360 0.950 . S
C1356 C1365 1.390 . S
C1357 C1356 1.387 . S
C1357 C1359 1.387 . S
H1358 C1365 0.950 . S
C1359 C1357 1.387 . S
C1359 C1361 1.390 . S
C1359 H1363 0.950 . S
H1360 C1356 0.950 . S
C1361 C1359 1.390 . S
C1361 C1362 1.387 . S
C1361 H1364 0.950 . S
C1362 C1361 1.387 . S
C1362 C1365 1.387 . S
H1363 C1359 0.950 . S
H1364 C1361 0.950 . S
C1365 C1356 1.390 . S
C1365 H1358 0.950 . S
C1365 C1362 1.387 . S
C1366 C1367 1.387 . S
C1366 H1370 0.950 . S
C1366 C1375 1.390 . S
C1367 C1366 1.387 . S
C1367 C1369 1.387 . S
H1368 C1375 0.950 . S
C1369 C1367 1.387 . S
C1369 C1371 1.390 . S
C1369 H1373 0.950 . S
H1370 C1366 0.950 . S
C1371 C1369 1.390 . S
C1371 C1372 1.387 . S
C1371 H1374 0.950 . S
C1372 C1371 1.387 . S
C1372 C1375 1.387 . S
H1373 C1369 0.950 . S
H1374 C1371 0.950 . S
C1375 C1366 1.390 . S
C1375 H1368 0.950 . S
C1375 C1372 1.387 . S
C1376 C1377 1.387 . S
C1376 H1380 0.950 . S
C1376 C1385 1.390 . S
C1377 C1376 1.387 . S
C1377 C1379 1.387 . S
H1378 C1385 0.950 . S
C1379 C1377 1.387 . S
C1379 C1381 1.390 . S
C1379 H1383 0.950 . S
H1380 C1376 0.950 . S
C1381 C1379 1.390 . S
C1381 C1382 1.387 . S
C1381 H1384 0.950 . S
C1382 C1381 1.387 . S
C1382 C1385 1.387 . S
H1383 C1379 0.950 . S
H1384 C1381 0.950 . S
C1385 C1376 1.390 . S
C1385 H1378 0.950 . S
C1385 C1382 1.387 . S
C1386 C1387 1.387 . S
C1386 H1390 0.950 . S
C1386 C1395 1.390 . S
C1387 C1386 1.387 . S
C1387 C1389 1.387 . S
H1388 C1395 0.950 . S
C1389 C1387 1.387 . S
C1389 C1391 1.390 . S
C1389 H1393 0.950 . S
H1390 C1386 0.950 . S
C1391 C1389 1.390 . S
C1391 C1392 1.387 . S
C1391 H1394 0.950 . S
C1392 C1391 1.387 . S
C1392 C1395 1.387 . S
H1393 C1389 0.950 . S
H1394 C1391 0.950 . S
C1395 C1386 1.390 . S
C1395 H1388 0.950 . S
C1395 C1392 1.387 . S
C1396 C1397 1.387 . S
C1396 H1400 0.950 . S
C1396 C1405 1.390 . S
C1397 C1396 1.387 . S
C1397 C1399 1.387 . S
H1398 C1405 0.950 . S
C1399 C1397 1.387 . S
C1399 C1401 1.390 . S
C1399 H1403 0.950 . S
H1400 C1396 0.950 . S
C1401 C1399 1.390 . S
C1401 C1402 1.387 . S
C1401 H1404 0.950 . S
C1402 C1401 1.387 . S
C1402 C1405 1.387 . S
H1403 C1399 0.950 . S
H1404 C1401 0.950 . S
C1405 C1396 1.390 . S
C1405 H1398 0.950 . S
C1405 C1402 1.387 . S
C1406 C1407 1.387 . S
C1406 H1410 0.950 . S
C1406 C1415 1.390 . S
C1407 C1406 1.387 . S
C1407 C1409 1.387 . S
H1408 C1415 0.950 . S
C1409 C1407 1.387 . S
C1409 C1411 1.390 . S
C1409 H1413 0.950 . S
H1410 C1406 0.950 . S
C1411 C1409 1.390 . S
C1411 C1412 1.387 . S
C1411 H1414 0.950 . S
C1412 C1411 1.387 . S
C1412 C1415 1.387 . S
H1413 C1409 0.950 . S
H1414 C1411 0.950 . S
C1415 C1406 1.390 . S
C1415 H1408 0.950 . S
C1415 C1412 1.387 . S
C1416 C1417 1.387 . S
C1416 H1420 0.950 . S
C1416 C1425 1.390 . S
C1417 C1416 1.387 . S
C1417 C1419 1.387 . S
H1418 C1425 0.950 . S
C1419 C1417 1.387 . S
C1419 C1421 1.390 . S
C1419 H1423 0.950 . S
H1420 C1416 0.950 . S
C1421 C1419 1.390 . S
C1421 C1422 1.387 . S
C1421 H1424 0.950 . S
C1422 C1421 1.387 . S
C1422 C1425 1.387 . S
H1423 C1419 0.950 . S
H1424 C1421 0.950 . S
C1425 C1416 1.390 . S
C1425 H1418 0.950 . S
C1425 C1422 1.387 . S
C1426 C1427 1.387 . S
C1426 H1430 0.950 . S
C1426 C1435 1.390 . S
C1427 C1426 1.387 . S
C1427 C1429 1.387 . S
H1428 C1435 0.950 . S
C1429 C1427 1.387 . S
C1429 C1431 1.390 . S
C1429 H1433 0.950 . S
H1430 C1426 0.950 . S
C1431 C1429 1.390 . S
C1431 C1432 1.387 . S
C1431 H1434 0.950 . S
C1432 C1431 1.387 . S
C1432 C1435 1.387 . S
H1433 C1429 0.950 . S
H1434 C1431 0.950 . S
C1435 C1426 1.390 . S
C1435 H1428 0.950 . S
C1435 C1432 1.387 . S
C1436 C1437 1.387 . S
C1436 H1440 0.950 . S
C1436 C1445 1.390 . S
C1437 C1436 1.387 . S
C1437 C1439 1.387 . S
H1438 C1445 0.950 1_455 S
C1439 C1437 1.387 . S
C1439 C1441 1.390 . S
C1439 H1443 0.950 . S
H1440 C1436 0.950 . S
C1441 C1439 1.390 . S
C1441 C1442 1.387 . S
C1441 H1444 0.950 . S
C1442 C1441 1.387 . S
C1442 C1445 1.387 . S
H1443 C1439 0.950 . S
H1444 C1441 0.950 . S
C1445 C1436 1.390 . S
C1445 H1438 0.950 1_655 S
C1445 C1442 1.387 . S
C1446 C1447 1.387 . S
C1446 H1450 0.950 . S
C1446 C1455 1.390 . S
C1447 C1446 1.387 . S
C1447 C1449 1.387 . S
H1448 C1455 0.950 . S
C1449 C1447 1.387 . S
C1449 C1451 1.390 . S
C1449 H1453 0.950 . S
H1450 C1446 0.950 . S
C1451 C1449 1.390 . S
C1451 C1452 1.387 . S
C1451 H1454 0.950 . S
C1452 C1451 1.387 . S
C1452 C1455 1.387 . S
H1453 C1449 0.950 . S
H1454 C1451 0.950 . S
C1455 C1446 1.390 . S
C1455 H1448 0.950 . S
C1455 C1452 1.387 . S
C1456 C1457 1.387 . S
C1456 H1460 0.950 . S
C1456 C1465 1.390 . S
C1457 C1456 1.387 . S
C1457 C1459 1.387 . S
H1458 C1465 0.950 . S
C1459 C1457 1.387 . S
C1459 C1461 1.390 . S
C1459 H1463 0.950 . S
H1460 C1456 0.950 . S
C1461 C1459 1.390 . S
C1461 C1462 1.387 . S
C1461 H1464 0.950 . S
C1462 C1461 1.387 . S
C1462 C1465 1.387 . S
H1463 C1459 0.950 . S
H1464 C1461 0.950 . S
C1465 C1456 1.390 . S
C1465 H1458 0.950 . S
C1465 C1462 1.387 . S
C1466 C1467 1.387 . S
C1466 H1470 0.950 . S
C1466 C1475 1.390 . S
C1467 C1466 1.387 . S
C1467 C1469 1.387 . S
H1468 C1475 0.950 . S
C1469 C1467 1.387 . S
C1469 C1471 1.390 1_565 S
C1469 H1473 0.950 . S
H1470 C1466 0.950 . S
C1471 C1469 1.390 1_545 S
C1471 C1472 1.389 . S
C1471 H1474 0.950 . S
C1472 C1471 1.389 . S
C1472 C1475 1.382 1_545 S
H1473 C1469 0.950 . S
H1474 C1471 0.950 . S
C1475 C1466 1.390 . S
C1475 H1468 0.950 . S
C1475 C1472 1.382 1_565 S
C1476 C1477 1.387 . S
C1476 H1480 0.950 1_565 S
C1476 C1485 1.390 . S
C1477 C1476 1.387 . S
C1477 C1479 1.387 . S
H1478 C1485 0.950 . S
C1479 C1477 1.387 . S
C1479 C1481 1.390 . S
C1479 H1483 0.950 . S
H1480 C1476 0.950 1_545 S
C1481 C1479 1.390 . S
C1481 C1482 1.387 . S
C1481 H1484 0.950 . S
C1482 C1481 1.387 . S
C1482 C1485 1.387 . S
H1483 C1479 0.950 . S
H1484 C1481 0.950 . S
C1485 C1476 1.390 . S
C1485 H1478 0.950 . S
C1485 C1482 1.387 . S
C1486 C1487 1.387 . S
C1486 H1490 0.950 . S
C1486 C1495 1.390 . S
C1487 C1486 1.387 . S
C1487 C1489 1.387 . S
H1488 C1495 0.950 . S
C1489 C1487 1.387 . S
C1489 C1491 1.390 . S
C1489 H1493 0.950 . S
H1490 C1486 0.950 . S
C1491 C1489 1.390 . S
C1491 C1492 1.387 . S
C1491 H1494 0.950 . S
C1492 C1491 1.387 . S
C1492 C1495 1.387 . S
H1493 C1489 0.950 . S
H1494 C1491 0.950 . S
C1495 C1486 1.390 . S
C1495 H1488 0.950 . S
C1495 C1492 1.387 . S
C1496 C1497 1.387 . S
C1496 H1500 0.950 . S
C1496 C1505 1.390 . S
C1497 C1496 1.387 . S
C1497 C1499 1.387 . S
H1498 C1505 0.950 . S
C1499 C1497 1.387 . S
C1499 C1501 1.390 . S
C1499 H1503 0.950 . S
H1500 C1496 0.950 . S
C1501 C1499 1.390 . S
C1501 C1502 1.387 . S
C1501 H1504 0.950 . S
C1502 C1501 1.387 . S
C1502 C1505 1.387 . S
H1503 C1499 0.950 . S
H1504 C1501 0.950 . S
C1505 C1496 1.390 . S
C1505 H1498 0.950 . S
C1505 C1502 1.387 . S
C1506 C1507 1.387 . S
C1506 H1510 0.950 . S
C1506 C1515 1.390 . S
C1507 C1506 1.387 . S
C1507 C1509 1.387 . S
H1508 C1515 0.950 . S
C1509 C1507 1.387 . S
C1509 C1511 1.390 . S
C1509 H1513 0.950 . S
H1510 C1506 0.950 . S
C1511 C1509 1.390 . S
C1511 C1512 1.387 . S
C1511 H1514 0.950 1_554 S
C1512 C1511 1.387 . S
C1512 C1515 1.387 . S
H1513 C1509 0.950 . S
H1514 C1511 0.950 1_556 S
C1515 C1506 1.390 . S
C1515 H1508 0.950 . S
C1515 C1512 1.387 . S
C1516 C1517 1.387 . S
C1516 H1520 0.950 . S
C1516 C1525 1.390 . S
C1517 C1516 1.387 . S
C1517 C1519 1.387 . S
H1518 C1525 0.950 . S
C1519 C1517 1.387 . S
C1519 C1521 1.390 . S
C1519 H1523 0.950 . S
H1520 C1516 0.950 . S
C1521 C1519 1.390 . S
C1521 C1522 1.387 . S
C1521 H1524 0.950 . S
C1522 C1521 1.387 . S
C1522 C1525 1.387 . S
H1523 C1519 0.950 . S
H1524 C1521 0.950 . S
C1525 C1516 1.390 . S
C1525 H1518 0.950 . S
C1525 C1522 1.387 . S
C1526 C1527 1.387 . S
C1526 H1530 0.950 . S
C1526 C1535 1.390 . S
C1527 C1526 1.387 . S
C1527 C1529 1.387 . S
H1528 C1535 0.950 . S
C1529 C1527 1.387 . S
C1529 C1531 1.390 . S
C1529 H1533 0.950 . S
H1530 C1526 0.950 . S
C1531 C1529 1.390 . S
C1531 C1532 1.387 . S
C1531 H1534 0.950 . S
C1532 C1531 1.387 . S
C1532 C1535 1.387 . S
H1533 C1529 0.950 . S
H1534 C1531 0.950 . S
C1535 C1526 1.390 . S
C1535 H1528 0.950 . S
C1535 C1532 1.387 . S
C1536 C1537 1.387 . S
C1536 H1540 0.950 . S
C1536 C1545 1.390 . S
C1537 C1536 1.387 . S
C1537 C1539 1.387 . S
H1538 C1545 0.950 . S
C1539 C1537 1.387 . S
C1539 C1541 1.390 . S
C1539 H1543 0.950 . S
H1540 C1536 0.950 . S
C1541 C1539 1.390 . S
C1541 C1542 1.387 . S
C1541 H1544 0.950 . S
C1542 C1541 1.387 . S
C1542 C1545 1.387 . S
H1543 C1539 0.950 . S
H1544 C1541 0.950 . S
C1545 C1536 1.390 . S
C1545 H1538 0.950 . S
C1545 C1542 1.387 . S
C1546 C1547 1.387 . S
C1546 H1550 0.950 . S
C1546 C1555 1.390 . S
C1547 C1546 1.387 . S
C1547 C1549 1.387 . S
H1548 C1555 0.950 . S
C1549 C1547 1.387 . S
C1549 C1551 1.390 . S
C1549 H1553 0.950 . S
H1550 C1546 0.950 . S
C1551 C1549 1.390 . S
C1551 C1552 1.387 . S
C1551 H1554 0.950 . S
C1552 C1551 1.387 . S
C1552 C1555 1.387 . S
H1553 C1549 0.950 . S
H1554 C1551 0.950 . S
C1555 C1546 1.390 . S
C1555 H1548 0.950 . S
C1555 C1552 1.387 . S
C1556 C1557 1.387 . S
C1556 H1560 0.952 . S
C1556 C1565 1.390 . S
C1557 C1556 1.387 . S
C1557 C1559 1.387 . S
H1558 C1565 0.950 1_655 S
C1559 C1557 1.387 . S
C1559 C1561 1.390 1_556 S
C1559 H1563 0.950 1_556 S
H1560 C1556 0.952 . S
C1561 C1559 1.390 1_554 S
C1561 C1562 1.387 1_554 S
C1561 H1564 0.950 . S
C1562 C1561 1.387 1_556 S
C1562 C1565 1.387 . S
H1563 C1559 0.950 1_554 S
H1564 C1561 0.950 . S
C1565 C1556 1.390 . S
C1565 H1558 0.950 1_455 S
C1565 C1562 1.387 . S
C1566 C1567 1.387 . S
C1566 H1570 0.950 . S
C1566 C1575 1.390 . S
C1567 C1566 1.387 . S
C1567 C1569 1.387 . S
H1568 C1575 0.950 . S
C1569 C1567 1.387 . S
C1569 C1571 1.390 . S
C1569 H1573 0.950 . S
H1570 C1566 0.950 . S
C1571 C1569 1.390 . S
C1571 C1572 1.387 . S
C1571 H1574 0.950 . S
C1572 C1571 1.387 . S
C1572 C1575 1.387 . S
H1573 C1569 0.950 . S
H1574 C1571 0.950 . S
C1575 C1566 1.390 . S
C1575 H1568 0.950 . S
C1575 C1572 1.387 . S
C1576 C1577 1.387 . S
C1576 H1580 0.950 . S
C1576 C1585 1.390 . S
C1577 C1576 1.387 . S
C1577 C1579 1.387 . S
H1578 C1585 0.950 . S
C1579 C1577 1.387 . S
C1579 C1581 1.390 . S
C1579 H1583 0.950 . S
H1580 C1576 0.950 . S
C1581 C1579 1.390 . S
C1581 C1582 1.387 . S
C1581 H1584 0.950 . S
C1582 C1581 1.387 . S
C1582 C1585 1.387 . S
H1583 C1579 0.950 . S
H1584 C1581 0.950 . S
C1585 C1576 1.390 . S
C1585 H1578 0.950 . S
C1585 C1582 1.387 . S
C1586 C1587 1.387 . S
C1586 H1590 0.950 . S
C1586 C1595 1.390 . S
C1587 C1586 1.387 . S
C1587 C1589 1.387 . S
H1588 C1595 0.950 . S
C1589 C1587 1.387 . S
C1589 C1591 1.390 . S
C1589 H1593 0.950 . S
H1590 C1586 0.950 . S
C1591 C1589 1.390 . S
C1591 C1592 1.387 . S
C1591 H1594 0.950 . S
C1592 C1591 1.387 . S
C1592 C1595 1.387 . S
H1593 C1589 0.950 . S
H1594 C1591 0.950 . S
C1595 C1586 1.390 . S
C1595 H1588 0.950 . S
C1595 C1592 1.387 . S
C1596 C1597 1.387 1_655 S
C1596 H1600 0.950 . S
C1596 C1605 1.390 . S
C1597 C1596 1.387 1_455 S
C1597 C1599 1.387 . S
H1598 C1605 0.950 . S
C1599 C1597 1.387 . S
C1599 C1601 1.390 . S
C1599 H1603 0.950 . S
H1600 C1596 0.950 . S
C1601 C1599 1.390 . S
C1601 C1602 1.387 . S
C1601 H1604 0.950 . S
C1602 C1601 1.387 . S
C1602 C1605 1.387 1_455 S
H1603 C1599 0.950 . S
H1604 C1601 0.950 . S
C1605 C1596 1.390 . S
C1605 H1598 0.950 . S
C1605 C1602 1.387 1_655 S
C1606 C1607 1.387 . S
C1606 H1610 0.950 . S
C1606 C1615 1.390 . S
C1607 C1606 1.387 . S
C1607 C1609 1.387 . S
H1608 C1615 0.950 . S
C1609 C1607 1.387 . S
C1609 C1611 1.390 . S
C1609 H1613 0.950 . S
H1610 C1606 0.950 . S
C1611 C1609 1.390 . S
C1611 C1612 1.387 . S
C1611 H1614 0.950 . S
C1612 C1611 1.387 . S
C1612 C1615 1.387 . S
H1613 C1609 0.950 . S
H1614 C1611 0.950 . S
C1615 C1606 1.390 . S
C1615 H1608 0.950 . S
C1615 C1612 1.387 . S
C1616 C1617 1.387 . S
C1616 H1620 0.950 . S
C1616 C1625 1.390 . S
C1617 C1616 1.387 . S
C1617 C1619 1.387 . S
H1618 C1625 0.950 . S
C1619 C1617 1.387 . S
C1619 C1621 1.390 . S
C1619 H1623 0.950 . S
H1620 C1616 0.950 . S
C1621 C1619 1.390 . S
C1621 C1622 1.387 . S
C1621 H1624 0.950 . S
C1622 C1621 1.387 . S
C1622 C1625 1.387 . S
H1623 C1619 0.950 . S
H1624 C1621 0.950 . S
C1625 C1616 1.390 . S
C1625 H1618 0.950 . S
C1625 C1622 1.387 . S
C1626 C1627 1.387 . S
C1626 H1630 0.950 . S
C1626 C1635 1.390 . S
C1627 C1626 1.387 . S
C1627 C1629 1.387 . S
H1628 C1635 0.950 . S
C1629 C1627 1.387 . S
C1629 C1631 1.390 . S
C1629 H1633 0.950 . S
H1630 C1626 0.950 . S
C1631 C1629 1.390 . S
C1631 C1632 1.387 . S
C1631 H1634 0.950 . S
C1632 C1631 1.387 . S
C1632 C1635 1.387 . S
H1633 C1629 0.950 . S
H1634 C1631 0.950 . S
C1635 C1626 1.390 . S
C1635 H1628 0.950 . S
C1635 C1632 1.387 . S
C1636 C1637 1.387 . S
C1636 H1640 0.950 . S
C1636 C1645 1.390 . S
C1637 C1636 1.387 . S
C1637 C1639 1.387 . S
H1638 C1645 0.950 . S
C1639 C1637 1.387 . S
C1639 C1641 1.390 . S
C1639 H1643 0.950 . S
H1640 C1636 0.950 . S
C1641 C1639 1.390 . S
C1641 C1642 1.387 . S
C1641 H1644 0.950 . S
C1642 C1641 1.387 . S
C1642 C1645 1.387 . S
H1643 C1639 0.950 . S
H1644 C1641 0.950 . S
C1645 C1636 1.390 . S
C1645 H1638 0.950 . S
C1645 C1642 1.387 . S
C1646 C1647 1.387 . S
C1646 H1650 0.950 . S
C1646 C1655 1.390 . S
C1647 C1646 1.387 . S
C1647 C1649 1.387 . S
H1648 C1655 0.950 . S
C1649 C1647 1.387 . S
C1649 C1651 1.390 . S
C1649 H1653 0.950 . S
H1650 C1646 0.950 . S
C1651 C1649 1.390 . S
C1651 C1652 1.387 . S
C1651 H1654 0.950 . S
C1652 C1651 1.387 . S
C1652 C1655 1.387 . S
H1653 C1649 0.950 . S
H1654 C1651 0.950 . S
C1655 C1646 1.390 . S
C1655 H1648 0.950 . S
C1655 C1652 1.387 . S
C1656 C1657 1.387 . S
C1656 H1660 0.950 . S
C1656 C1665 1.390 . S
C1657 C1656 1.387 . S
C1657 C1659 1.387 . S
H1658 C1665 0.950 . S
C1659 C1657 1.387 . S
C1659 C1661 1.390 . S
C1659 H1663 0.950 . S
H1660 C1656 0.950 . S
C1661 C1659 1.390 . S
C1661 C1662 1.387 . S
C1661 H1664 0.950 . S
C1662 C1661 1.387 . S
C1662 C1665 1.387 . S
H1663 C1659 0.950 . S
H1664 C1661 0.950 . S
C1665 C1656 1.390 . S
C1665 H1658 0.950 . S
C1665 C1662 1.387 . S
C1666 C1667 1.387 . S
C1666 H1670 0.950 . S
C1666 C1675 1.390 . S
C1667 C1666 1.387 . S
C1667 C1669 1.387 . S
H1668 C1675 0.950 . S
C1669 C1667 1.387 . S
C1669 C1671 1.390 . S
C1669 H1673 0.950 . S
H1670 C1666 0.950 . S
C1671 C1669 1.390 . S
C1671 C1672 1.387 . S
C1671 H1674 0.950 . S
C1672 C1671 1.387 . S
C1672 C1675 1.387 . S
H1673 C1669 0.950 . S
H1674 C1671 0.950 . S
C1675 C1666 1.390 . S
C1675 H1668 0.950 . S
C1675 C1672 1.387 . S
C1676 C1677 1.387 . S
C1676 H1680 0.950 . S
C1676 C1685 1.390 . S
C1677 C1676 1.387 . S
C1677 C1679 1.387 . S
H1678 C1685 0.950 . S
C1679 C1677 1.387 . S
C1679 C1681 1.390 . S
C1679 H1683 0.950 . S
H1680 C1676 0.950 . S
C1681 C1679 1.390 . S
C1681 C1682 1.387 . S
C1681 H1684 0.950 . S
C1682 C1681 1.387 . S
C1682 C1685 1.387 . S
H1683 C1679 0.950 . S
H1684 C1681 0.950 . S
C1685 C1676 1.390 . S
C1685 H1678 0.950 . S
C1685 C1682 1.387 . S
C1686 C1687 1.387 . S
C1686 H1690 0.950 . S
C1686 C1695 1.390 . S
C1687 C1686 1.387 . S
C1687 C1689 1.387 . S
H1688 C1695 0.950 . S
C1689 C1687 1.387 . S
C1689 C1691 1.390 . S
C1689 H1693 0.950 . S
H1690 C1686 0.950 . S
C1691 C1689 1.390 . S
C1691 C1692 1.387 . S
C1691 H1694 0.950 . S
C1692 C1691 1.387 . S
C1692 C1695 1.387 . S
H1693 C1689 0.950 . S
H1694 C1691 0.950 . S
C1695 C1686 1.390 . S
C1695 H1688 0.950 . S
C1695 C1692 1.387 . S
C1696 C1697 1.387 . S
C1696 H1700 0.950 . S
C1696 C1705 1.390 . S
C1697 C1696 1.387 . S
C1697 C1699 1.387 . S
H1698 C1705 0.950 . S
C1699 C1697 1.387 . S
C1699 C1701 1.390 . S
C1699 H1703 0.950 . S
H1700 C1696 0.950 . S
C1701 C1699 1.390 . S
C1701 C1702 1.387 . S
C1701 H1704 0.950 . S
C1702 C1701 1.387 . S
C1702 C1705 1.387 . S
H1703 C1699 0.950 . S
H1704 C1701 0.950 . S
C1705 C1696 1.390 . S
C1705 H1698 0.950 . S
C1705 C1702 1.387 . S
C1706 C1707 1.387 . S
C1706 H1710 0.950 . S
C1706 C1715 1.390 . S
C1707 C1706 1.387 . S
C1707 C1709 1.387 . S
H1708 C1715 0.950 . S
C1709 C1707 1.387 . S
C1709 C1711 1.390 . S
C1709 H1713 0.950 . S
H1710 C1706 0.950 . S
C1711 C1709 1.390 . S
C1711 C1712 1.387 . S
C1711 H1714 0.950 . S
C1712 C1711 1.387 . S
C1712 C1715 1.387 . S
H1713 C1709 0.950 . S
H1714 C1711 0.950 . S
C1715 C1706 1.390 . S
C1715 H1708 0.950 . S
C1715 C1712 1.387 . S
C1716 C1717 1.387 . S
C1716 H1720 0.950 . S
C1716 C1725 1.390 . S
C1717 C1716 1.387 . S
C1717 C1719 1.387 . S
H1718 C1725 0.950 . S
C1719 C1717 1.387 . S
C1719 C1721 1.390 . S
C1719 H1723 0.950 . S
H1720 C1716 0.950 . S
C1721 C1719 1.390 . S
C1721 C1722 1.387 . S
C1721 H1724 0.950 . S
C1722 C1721 1.387 . S
C1722 C1725 1.387 . S
H1723 C1719 0.950 . S
H1724 C1721 0.950 . S
C1725 C1716 1.390 . S
C1725 H1718 0.950 . S
C1725 C1722 1.387 . S
C1726 C1727 1.387 . S
C1726 H1730 0.950 . S
C1726 C1735 1.390 . S
C1727 C1726 1.387 . S
C1727 C1729 1.411 . S
H1728 C1735 0.950 1_545 S
C1729 C1727 1.411 . S
C1729 C1731 1.386 1_554 S
C1729 H1733 0.931 1_554 S
H1730 C1726 0.950 . S
C1731 C1729 1.386 1_556 S
C1731 C1732 1.387 1_556 S
C1731 H1734 0.950 . S
C1732 C1731 1.387 1_554 S
C1732 C1735 1.387 . S
H1733 C1729 0.931 1_556 S
H1734 C1731 0.950 . S
C1735 C1726 1.390 . S
C1735 H1728 0.950 1_565 S
C1735 C1732 1.387 . S
C1736 C1737 1.387 . S
C1736 H1740 0.950 . S
C1736 C1745 1.390 . S
C1737 C1736 1.387 . S
C1737 C1739 1.387 . S
H1738 C1745 0.950 . S
C1739 C1737 1.387 . S
C1739 C1741 1.390 . S
C1739 H1743 0.950 . S
H1740 C1736 0.950 . S
C1741 C1739 1.390 . S
C1741 C1742 1.387 . S
C1741 H1744 0.950 . S
C1742 C1741 1.387 . S
C1742 C1745 1.387 . S
H1743 C1739 0.950 . S
H1744 C1741 0.950 . S
C1745 C1736 1.390 . S
C1745 H1738 0.950 . S
C1745 C1742 1.387 . S
C1746 C1747 1.393 . S
C1746 H1750 0.936 1_554 S
C1746 C1755 1.399 . S
C1747 C1746 1.393 . S
C1747 C1749 1.387 . S
H1748 C1755 0.950 . S
C1749 C1747 1.387 . S
C1749 C1751 1.390 . S
C1749 H1753 0.950 . S
H1750 C1746 0.936 1_556 S
C1751 C1749 1.390 . S
C1751 C1752 1.387 . S
C1751 H1754 0.950 . S
C1752 C1751 1.387 . S
C1752 C1755 1.387 . S
H1753 C1749 0.950 . S
H1754 C1751 0.950 . S
C1755 C1746 1.399 . S
C1755 H1748 0.950 . S
C1755 C1752 1.387 . S
C1756 C1757 1.387 . S
C1756 H1760 0.950 . S
C1756 C1765 1.390 . S
C1757 C1756 1.387 . S
C1757 C1759 1.387 . S
H1758 C1765 0.950 . S
C1759 C1757 1.387 . S
C1759 C1761 1.390 . S
C1759 H1763 0.950 . S
H1760 C1756 0.950 . S
C1761 C1759 1.390 . S
C1761 C1762 1.387 . S
C1761 H1764 0.950 . S
C1762 C1761 1.387 . S
C1762 C1765 1.387 . S
H1763 C1759 0.950 . S
H1764 C1761 0.950 . S
C1765 C1756 1.390 . S
C1765 H1758 0.950 . S
C1765 C1762 1.387 . S
C1766 C1767 1.387 . S
C1766 H1770 0.950 . S
C1766 C1775 1.390 . S
C1767 C1766 1.387 . S
C1767 C1769 1.387 . S
H1768 C1775 0.950 . S
C1769 C1767 1.387 . S
C1769 C1771 1.390 . S
C1769 H1773 0.950 . S
H1770 C1766 0.950 . S
C1771 C1769 1.390 . S
C1771 C1772 1.387 . S
C1771 H1774 0.950 . S
C1772 C1771 1.387 . S
C1772 C1775 1.387 . S
H1773 C1769 0.950 . S
H1774 C1771 0.950 . S
C1775 C1766 1.390 . S
C1775 H1768 0.950 . S
C1775 C1772 1.387 . S
C822 C337 1.917 . S
C817 C7 1.949 . S
C827 C22 1.110 . S
C832 C382 1.117 . S
C837 C31 1.831 . S
C842 C406 1.796 . S
C852 N432 1.266 . S
C847 C51 1.233 . S
C857 C17 1.316 . S
C862 N462 1.333 . S
C872 C496 1.648 . S
C867 C36 1.683 . S
C882 C532 1.303 1_556 S
C877 C49 1.258 . S
C887 C9 1.900 . S
C892 C556 1.858 . S
C897 C63 1.091 . S
C902 N350 1.107 1_545 S
C907 C73 1.317 . S
C912 N372 1.334 . S
C922 C412 1.165 . S
C917 C91 1.122 . S
C932 C436 1.830 . S
C927 C101 1.870 . S
C937 C59 1.355 . S
C942 C466 1.303 . S
C952 C502 1.238 . S
C947 C77 1.181 . S
C962 N522 1.279 . S
C957 C87 1.260 . S
C972 C562 1.840 . S
C967 C105 1.855 . S
C982 C363 1.799 . S
C977 C107 1.831 . S
C992 C592 1.131 . S
C987 C120 1.122 . S
C997 C135 1.268 . S
C1002 N612 1.303 . S
C1012 C646 1.652 . S
C1007 C148 1.689 . S
C1017 C65 1.057 . S
C1022 N552 1.061 . S
C1032 N402 1.287 1_565 S
C1027 C79 1.252 . S
C1037 C134 1.159 . S
C1042 C682 1.167 . S
C1052 C706 1.158 . S
C1047 C162 1.200 . S
C1057 C171 1.916 . S
C1062 C346 1.885 1_556 S
C1072 C723 1.083 . S
C1067 C190 1.081 . S
C1077 C203 1.760 . S
C1082 C397 1.768 . S
C1087 C219 1.223 . S
C1092 N680 1.244 . S
C1102 N470 1.313 . S
C1097 C189 1.201 . S
C1112 C607 1.621 . S
C1107 C204 1.650 . S
C1122 C543 1.263 . S
C1117 C213 1.273 . S
C1132 C727 1.831 . S
C1127 C177 1.880 . S
C1142 N342 1.089 . S
C1137 C227 1.087 . S
C1147 C245 1.197 . S
C1152 N710 1.317 . S
C1162 C423 1.126 . S
C1157 C255 1.136 . S
C1167 C273 1.780 . S
C1172 C667 1.800 . S
C1177 C231 1.224 . S
C1182 C457 1.272 1_655 S
C1187 C241 1.207 . S
C1192 C633 1.199 . S
C1202 N530 1.265 . S
C1197 C259 1.155 . S
C1207 C269 1.832 . S
C1212 C753 1.808 . S
C1217 C275 1.810 . S
C1222 C352 1.763 1_565 S
C1227 C288 1.098 1_554 S
C1232 C603 1.099 . S
C1237 C303 1.261 . S
C1242 N500 1.284 . S
C1247 C316 1.652 . S
C1252 C637 1.622 . S
C1262 N740 1.046 . S
C1257 C233 1.044 1_565 S
C1272 N410 1.271 . S
C1267 C247 1.249 . S
C1282 C453 1.134 . S
C1277 C302 1.133 . S
C1292 C367 1.125 . S
C1287 C330 1.150 . S
C1297 C35 1.949 . S
C1302 C757 1.917 . S
C1312 C712 1.119 . S
C1307 C50 1.112 . S
C1322 C796 1.797 . S
C1317 C3 1.832 . S
C1327 C23 1.232 1_655 S
C1332 N672 1.266 . S
C1337 C45 1.318 . S
C1342 N582 1.335 1_556 S
C1352 C616 1.648 . S
C1347 C8 1.683 . S
C1362 C652 1.305 . S
C1357 C21 1.260 . S
C1372 C736 1.859 . S
C1367 C37 1.900 . S
C1382 N770 1.107 . S
C1377 C161 1.091 . S
C1387 C115 1.317 1_556 S
C1392 N702 1.334 . S
C1397 C133 1.122 . S
C1402 C802 1.165 1_655 S
C1412 C676 1.828 . S
C1407 C143 1.870 . S
C1422 C586 1.302 . S
C1417 C157 1.354 . S
C1427 C119 1.181 . S
C1432 C622 1.238 . S
C1442 N642 1.278 . S
C1437 C129 1.259 . S
C1447 C147 1.855 . S
C1452 C742 1.840 . S
C1462 C783 1.797 . S
C1457 C149 1.831 . S
C1472 C472 1.135 . S
C1467 C78 1.121 . S
C1482 N492 1.303 . S
C1477 C93 1.268 1_565 S
C1487 C106 1.690 . S
C1492 C526 1.653 . S
C1502 N732 1.061 . S
C1497 C163 1.058 . S
C1507 C121 1.254 . S
C1512 N792 1.288 . S
C1522 C442 1.167 . S
C1517 C92 1.159 . S
C1532 C376 1.156 . S
C1527 C64 1.198 . S
C1537 C199 1.916 . S
C1542 C766 1.885 . S
C1552 C393 1.083 . S
C1547 C218 1.082 . S
C1562 C787 1.767 1_556 S
C1557 C175 1.759 . S
C1567 C191 1.222 . S
C1572 N440 1.244 . S
C1577 C217 1.201 . S
C1582 N590 1.313 . S
C1587 C176 1.650 . S
C1592 C487 1.621 . S
C1597 C185 1.275 . S
C1602 C663 1.262 . S
C1607 C205 1.880 . S
C1612 C547 1.832 . S
C1622 N762 1.089 . S
C1617 C325 1.087 . S
C1627 C287 1.194 . S
C1632 N380 1.313 . S
C1642 C813 1.125 . S
C1637 C297 1.135 . S
C1647 C315 1.780 . S
C1652 C427 1.799 . S
C1657 C329 1.225 . S
C1662 C577 1.273 . S
C1672 C513 1.198 . S
C1667 C283 1.210 . S
C1677 C301 1.158 . S
C1682 N650 1.266 . S
C1692 C573 1.809 . S
C1687 C311 1.833 . S
C1702 C772 1.770 . S
C1697 C317 1.810 . S
C1712 C483 1.098 . S
C1707 C246 1.095 . S
C1717 C261 1.263 . S
C1722 N620 1.285 . S
C1732 C517 1.622 1_565 S
C1727 C274 1.653 . S
C1742 N560 1.046 . S
C1737 C331 1.044 . S
C1747 C289 1.249 . S
C1752 N800 1.269 . S
C1762 C693 1.134 . S
C1757 C260 1.133 . S
C1772 C697 1.131 . S
C1767 C232 1.154 . S
