# Generated by pormake.
# Topology iac, (4,6)-cn, num edge types: 1
# Building blocks:
#     Node 0, Type 0, BuildingBlock: CEKHIL_clean_sbu_0, # of connection points: 4
#     Node 1, Type 0, BuildingBlock: CEKHIL_clean_sbu_0, # of connection points: 4
#     Node 2, Type 0, BuildingBlock: CEKHIL_clean_sbu_0, # of connection points: 4
#     Node 3, Type 0, BuildingBlock: CEKHIL_clean_sbu_0, # of connection points: 4
#     Node 4, Type 0, BuildingBlock: CEKHIL_clean_sbu_0, # of connection points: 4
#     Node 5, Type 0, BuildingBlock: CEKHIL_clean_sbu_0, # of connection points: 4
#     Node 6, Type 0, BuildingBlock: CEKHIL_clean_sbu_0, # of connection points: 4
#     Node 7, Type 0, BuildingBlock: CEKHIL_clean_sbu_0, # of connection points: 4
#     Node 8, Type 0, BuildingBlock: CEKHIL_clean_sbu_0, # of connection points: 4
#     Node 9, Type 0, BuildingBlock: CEKHIL_clean_sbu_0, # of connection points: 4
#     Node 10, Type 0, BuildingBlock: CEKHIL_clean_sbu_0, # of connection points: 4
#     Node 11, Type 0, BuildingBlock: CEKHIL_clean_sbu_0, # of connection points: 4
#     Node 12, Type 0, BuildingBlock: CEKHIL_clean_sbu_0, # of connection points: 4
#     Node 13, Type 0, BuildingBlock: CEKHIL_clean_sbu_0, # of connection points: 4
#     Node 14, Type 0, BuildingBlock: CEKHIL_clean_sbu_0, # of connection points: 4
#     Node 15, Type 0, BuildingBlock: CEKHIL_clean_sbu_0, # of connection points: 4
#     Node 16, Type 0, BuildingBlock: CEKHIL_clean_sbu_0, # of connection points: 4
#     Node 17, Type 0, BuildingBlock: CEKHIL_clean_sbu_0, # of connection points: 4
#     Node 18, Type 0, BuildingBlock: CEKHIL_clean_sbu_0, # of connection points: 4
#     Node 19, Type 0, BuildingBlock: CEKHIL_clean_sbu_0, # of connection points: 4
#     Node 20, Type 0, BuildingBlock: CEKHIL_clean_sbu_0, # of connection points: 4
#     Node 21, Type 0, BuildingBlock: CEKHIL_clean_sbu_0, # of connection points: 4
#     Node 22, Type 0, BuildingBlock: CEKHIL_clean_sbu_0, # of connection points: 4
#     Node 23, Type 0, BuildingBlock: CEKHIL_clean_sbu_0, # of connection points: 4
#     Node 24, Type 1, BuildingBlock: JUFBIX_clean_sbu_0, # of connection points: 6
#     Node 25, Type 1, BuildingBlock: JUFBIX_clean_sbu_0, # of connection points: 6
#     Node 26, Type 1, BuildingBlock: JUFBIX_clean_sbu_0, # of connection points: 6
#     Node 27, Type 1, BuildingBlock: JUFBIX_clean_sbu_0, # of connection points: 6
#     Node 28, Type 1, BuildingBlock: JUFBIX_clean_sbu_0, # of connection points: 6
#     Node 29, Type 1, BuildingBlock: JUFBIX_clean_sbu_0, # of connection points: 6
#     Node 30, Type 1, BuildingBlock: JUFBIX_clean_sbu_0, # of connection points: 6
#     Node 31, Type 1, BuildingBlock: JUFBIX_clean_sbu_0, # of connection points: 6
#     Node 32, Type 1, BuildingBlock: JUFBIX_clean_sbu_0, # of connection points: 6
#     Node 33, Type 1, BuildingBlock: JUFBIX_clean_sbu_0, # of connection points: 6
#     Node 34, Type 1, BuildingBlock: JUFBIX_clean_sbu_0, # of connection points: 6
#     Node 35, Type 1, BuildingBlock: JUFBIX_clean_sbu_0, # of connection points: 6
#     Node 36, Type 1, BuildingBlock: JUFBIX_clean_sbu_0, # of connection points: 6
#     Node 37, Type 1, BuildingBlock: JUFBIX_clean_sbu_0, # of connection points: 6
#     Node 38, Type 1, BuildingBlock: JUFBIX_clean_sbu_0, # of connection points: 6
#     Node 39, Type 1, BuildingBlock: JUFBIX_clean_sbu_0, # of connection points: 6
#     Edge 40, Type (0, 1), BuildingBlock: UVAHIK_clean_linker_0, # of connection points: 2
#     Edge 41, Type (0, 1), BuildingBlock: UVAHIK_clean_linker_0, # of connection points: 2
#     Edge 42, Type (0, 1), BuildingBlock: UVAHIK_clean_linker_0, # of connection points: 2
#     Edge 43, Type (0, 1), BuildingBlock: UVAHIK_clean_linker_0, # of connection points: 2
#     Edge 44, Type (0, 1), BuildingBlock: UVAHIK_clean_linker_0, # of connection points: 2
#     Edge 45, Type (0, 1), BuildingBlock: UVAHIK_clean_linker_0, # of connection points: 2
#     Edge 46, Type (0, 1), BuildingBlock: UVAHIK_clean_linker_0, # of connection points: 2
#     Edge 47, Type (0, 1), BuildingBlock: UVAHIK_clean_linker_0, # of connection points: 2
#     Edge 48, Type (0, 1), BuildingBlock: UVAHIK_clean_linker_0, # of connection points: 2
#     Edge 49, Type (0, 1), BuildingBlock: UVAHIK_clean_linker_0, # of connection points: 2
#     Edge 50, Type (0, 1), BuildingBlock: UVAHIK_clean_linker_0, # of connection points: 2
#     Edge 51, Type (0, 1), BuildingBlock: UVAHIK_clean_linker_0, # of connection points: 2
#     Edge 52, Type (0, 1), BuildingBlock: UVAHIK_clean_linker_0, # of connection points: 2
#     Edge 53, Type (0, 1), BuildingBlock: UVAHIK_clean_linker_0, # of connection points: 2
#     Edge 54, Type (0, 1), BuildingBlock: UVAHIK_clean_linker_0, # of connection points: 2
#     Edge 55, Type (0, 1), BuildingBlock: UVAHIK_clean_linker_0, # of connection points: 2
#     Edge 56, Type (0, 1), BuildingBlock: UVAHIK_clean_linker_0, # of connection points: 2
#     Edge 57, Type (0, 1), BuildingBlock: UVAHIK_clean_linker_0, # of connection points: 2
#     Edge 58, Type (0, 1), BuildingBlock: UVAHIK_clean_linker_0, # of connection points: 2
#     Edge 59, Type (0, 1), BuildingBlock: UVAHIK_clean_linker_0, # of connection points: 2
#     Edge 60, Type (0, 1), BuildingBlock: UVAHIK_clean_linker_0, # of connection points: 2
#     Edge 61, Type (0, 1), BuildingBlock: UVAHIK_clean_linker_0, # of connection points: 2
#     Edge 62, Type (0, 1), BuildingBlock: UVAHIK_clean_linker_0, # of connection points: 2
#     Edge 63, Type (0, 1), BuildingBlock: UVAHIK_clean_linker_0, # of connection points: 2
#     Edge 64, Type (0, 1), BuildingBlock: UVAHIK_clean_linker_0, # of connection points: 2
#     Edge 65, Type (0, 1), BuildingBlock: UVAHIK_clean_linker_0, # of connection points: 2
#     Edge 66, Type (0, 1), BuildingBlock: UVAHIK_clean_linker_0, # of connection points: 2
#     Edge 67, Type (0, 1), BuildingBlock: UVAHIK_clean_linker_0, # of connection points: 2
#     Edge 68, Type (0, 1), BuildingBlock: UVAHIK_clean_linker_0, # of connection points: 2
#     Edge 69, Type (0, 1), BuildingBlock: UVAHIK_clean_linker_0, # of connection points: 2
#     Edge 70, Type (0, 1), BuildingBlock: UVAHIK_clean_linker_0, # of connection points: 2
#     Edge 71, Type (0, 1), BuildingBlock: UVAHIK_clean_linker_0, # of connection points: 2
#     Edge 72, Type (0, 1), BuildingBlock: UVAHIK_clean_linker_0, # of connection points: 2
#     Edge 73, Type (0, 1), BuildingBlock: UVAHIK_clean_linker_0, # of connection points: 2
#     Edge 74, Type (0, 1), BuildingBlock: UVAHIK_clean_linker_0, # of connection points: 2
#     Edge 75, Type (0, 1), BuildingBlock: UVAHIK_clean_linker_0, # of connection points: 2
#     Edge 76, Type (0, 1), BuildingBlock: UVAHIK_clean_linker_0, # of connection points: 2
#     Edge 77, Type (0, 1), BuildingBlock: UVAHIK_clean_linker_0, # of connection points: 2
#     Edge 78, Type (0, 1), BuildingBlock: UVAHIK_clean_linker_0, # of connection points: 2
#     Edge 79, Type (0, 1), BuildingBlock: UVAHIK_clean_linker_0, # of connection points: 2
#     Edge 80, Type (0, 1), BuildingBlock: UVAHIK_clean_linker_0, # of connection points: 2
#     Edge 81, Type (0, 1), BuildingBlock: UVAHIK_clean_linker_0, # of connection points: 2
#     Edge 82, Type (0, 1), BuildingBlock: UVAHIK_clean_linker_0, # of connection points: 2
#     Edge 83, Type (0, 1), BuildingBlock: UVAHIK_clean_linker_0, # of connection points: 2
#     Edge 84, Type (0, 1), BuildingBlock: UVAHIK_clean_linker_0, # of connection points: 2
#     Edge 85, Type (0, 1), BuildingBlock: UVAHIK_clean_linker_0, # of connection points: 2
#     Edge 86, Type (0, 1), BuildingBlock: UVAHIK_clean_linker_0, # of connection points: 2
#     Edge 87, Type (0, 1), BuildingBlock: UVAHIK_clean_linker_0, # of connection points: 2
#     Edge 88, Type (0, 1), BuildingBlock: UVAHIK_clean_linker_0, # of connection points: 2
#     Edge 89, Type (0, 1), BuildingBlock: UVAHIK_clean_linker_0, # of connection points: 2
#     Edge 90, Type (0, 1), BuildingBlock: UVAHIK_clean_linker_0, # of connection points: 2
#     Edge 91, Type (0, 1), BuildingBlock: UVAHIK_clean_linker_0, # of connection points: 2
#     Edge 92, Type (0, 1), BuildingBlock: UVAHIK_clean_linker_0, # of connection points: 2
#     Edge 93, Type (0, 1), BuildingBlock: UVAHIK_clean_linker_0, # of connection points: 2
#     Edge 94, Type (0, 1), BuildingBlock: UVAHIK_clean_linker_0, # of connection points: 2
#     Edge 95, Type (0, 1), BuildingBlock: UVAHIK_clean_linker_0, # of connection points: 2
#     Edge 96, Type (0, 1), BuildingBlock: UVAHIK_clean_linker_0, # of connection points: 2
#     Edge 97, Type (0, 1), BuildingBlock: UVAHIK_clean_linker_0, # of connection points: 2
#     Edge 98, Type (0, 1), BuildingBlock: UVAHIK_clean_linker_0, # of connection points: 2
#     Edge 99, Type (0, 1), BuildingBlock: UVAHIK_clean_linker_0, # of connection points: 2
#     Edge 100, Type (0, 1), BuildingBlock: UVAHIK_clean_linker_0, # of connection points: 2
#     Edge 101, Type (0, 1), BuildingBlock: UVAHIK_clean_linker_0, # of connection points: 2
#     Edge 102, Type (0, 1), BuildingBlock: UVAHIK_clean_linker_0, # of connection points: 2
#     Edge 103, Type (0, 1), BuildingBlock: UVAHIK_clean_linker_0, # of connection points: 2
#     Edge 104, Type (0, 1), BuildingBlock: UVAHIK_clean_linker_0, # of connection points: 2
#     Edge 105, Type (0, 1), BuildingBlock: UVAHIK_clean_linker_0, # of connection points: 2
#     Edge 106, Type (0, 1), BuildingBlock: UVAHIK_clean_linker_0, # of connection points: 2
#     Edge 107, Type (0, 1), BuildingBlock: UVAHIK_clean_linker_0, # of connection points: 2
#     Edge 108, Type (0, 1), BuildingBlock: UVAHIK_clean_linker_0, # of connection points: 2
#     Edge 109, Type (0, 1), BuildingBlock: UVAHIK_clean_linker_0, # of connection points: 2
#     Edge 110, Type (0, 1), BuildingBlock: UVAHIK_clean_linker_0, # of connection points: 2
#     Edge 111, Type (0, 1), BuildingBlock: UVAHIK_clean_linker_0, # of connection points: 2
#     Edge 112, Type (0, 1), BuildingBlock: UVAHIK_clean_linker_0, # of connection points: 2
#     Edge 113, Type (0, 1), BuildingBlock: UVAHIK_clean_linker_0, # of connection points: 2
#     Edge 114, Type (0, 1), BuildingBlock: UVAHIK_clean_linker_0, # of connection points: 2
#     Edge 115, Type (0, 1), BuildingBlock: UVAHIK_clean_linker_0, # of connection points: 2
#     Edge 116, Type (0, 1), BuildingBlock: UVAHIK_clean_linker_0, # of connection points: 2
#     Edge 117, Type (0, 1), BuildingBlock: UVAHIK_clean_linker_0, # of connection points: 2
#     Edge 118, Type (0, 1), BuildingBlock: UVAHIK_clean_linker_0, # of connection points: 2
#     Edge 119, Type (0, 1), BuildingBlock: UVAHIK_clean_linker_0, # of connection points: 2
#     Edge 120, Type (0, 1), BuildingBlock: UVAHIK_clean_linker_0, # of connection points: 2
#     Edge 121, Type (0, 1), BuildingBlock: UVAHIK_clean_linker_0, # of connection points: 2
#     Edge 122, Type (0, 1), BuildingBlock: UVAHIK_clean_linker_0, # of connection points: 2
#     Edge 123, Type (0, 1), BuildingBlock: UVAHIK_clean_linker_0, # of connection points: 2
#     Edge 124, Type (0, 1), BuildingBlock: UVAHIK_clean_linker_0, # of connection points: 2
#     Edge 125, Type (0, 1), BuildingBlock: UVAHIK_clean_linker_0, # of connection points: 2
#     Edge 126, Type (0, 1), BuildingBlock: UVAHIK_clean_linker_0, # of connection points: 2
#     Edge 127, Type (0, 1), BuildingBlock: UVAHIK_clean_linker_0, # of connection points: 2
#     Edge 128, Type (0, 1), BuildingBlock: UVAHIK_clean_linker_0, # of connection points: 2
#     Edge 129, Type (0, 1), BuildingBlock: UVAHIK_clean_linker_0, # of connection points: 2
#     Edge 130, Type (0, 1), BuildingBlock: UVAHIK_clean_linker_0, # of connection points: 2
#     Edge 131, Type (0, 1), BuildingBlock: UVAHIK_clean_linker_0, # of connection points: 2
#     Edge 132, Type (0, 1), BuildingBlock: UVAHIK_clean_linker_0, # of connection points: 2
#     Edge 133, Type (0, 1), BuildingBlock: UVAHIK_clean_linker_0, # of connection points: 2
#     Edge 134, Type (0, 1), BuildingBlock: UVAHIK_clean_linker_0, # of connection points: 2
#     Edge 135, Type (0, 1), BuildingBlock: UVAHIK_clean_linker_0, # of connection points: 2
# Relax obj value: 0.217
# Max RMSD: 0.233
# Mean RMSD: 0.112
data_MOF--net-iac--node1-CEKHIL_clean_sbu_0--node2-JUFBIX_clean_sbu_0--edge1-UVAHIK_clean_linker_0
_symmetry_space_group_name_H-M    P1
_symmetry_Int_Tables_number       1
_symmetry_cell_setting            triclinic
loop_
_symmetry_equiv_pos_as_xyz
'x, y, z'
_cell_length_a     70.251597
_cell_length_b     70.660082
_cell_length_c     69.29027
_cell_angle_alpha  89.428138
_cell_angle_beta   88.694128
_cell_angle_gamma 89.365579
loop_
_atom_site_label
_atom_site_type_symbol
_atom_site_fract_x
_atom_site_fract_y
_atom_site_fract_z
_atom_type_partial_charge
Co0 Co 0.02167 0.27715 0.14188 0.0
O1 O 0.99447 0.27795 0.13784 0.0
O2 O 0.00767 0.2681 0.16473 0.0
C3 C 0.02683 0.30698 0.12971 0.0
O4 O 0.04892 0.27537 0.15245 0.0
Co5 Co 0.05099 0.27989 0.10866 0.0
O6 O 0.07037 0.28173 0.12883 0.0
C7 C 0.03077 0.24378 0.11495 0.0
C8 C 0.99217 0.27171 0.15539 0.0
C9 C 0.06624 0.27819 0.14647 0.0
O10 O 0.02331 0.25034 0.1308 0.0
O11 O 0.04107 0.25395 0.10353 0.0
O12 O 0.02122 0.30435 0.14752 0.0
O13 O 0.0282 0.29176 0.11954 0.0
Co14 Co 0.0365 0.76919 0.40817 0.0
O15 O 0.06372 0.77128 0.4088 0.0
O16 O 0.04715 0.76583 0.38258 0.0
C17 C 0.02976 0.7947 0.42626 0.0
O18 O 0.00863 0.7669 0.40165 0.0
Co19 Co 0.01208 0.76237 0.44546 0.0
O20 O 0.99045 0.76928 0.42866 0.0
C21 C 0.03585 0.73154 0.42903 0.0
C22 C 0.06361 0.7684 0.39032 0.0
C23 C 0.99236 0.7687 0.41034 0.0
O24 O 0.03859 0.74125 0.41347 0.0
O25 O 0.02724 0.73808 0.44408 0.0
O26 O 0.03372 0.79667 0.40794 0.0
O27 O 0.03161 0.77778 0.43323 0.0
Co28 Co 0.51944 0.779 0.64276 0.0
O29 O 0.49225 0.77963 0.63879 0.0
O30 O 0.50554 0.77022 0.66579 0.0
C31 C 0.52446 0.80875 0.63039 0.0
O32 O 0.54677 0.77745 0.65306 0.0
Co33 Co 0.54843 0.78164 0.60917 0.0
O34 O 0.56715 0.78662 0.62948 0.0
C35 C 0.52764 0.74585 0.61551 0.0
C36 C 0.49001 0.7737 0.65645 0.0
C37 C 0.5636 0.78231 0.64708 0.0
O38 O 0.52117 0.75214 0.63189 0.0
O39 O 0.53747 0.75611 0.60374 0.0
O40 O 0.51891 0.80622 0.64822 0.0
O41 O 0.52577 0.79346 0.62031 0.0
Co42 Co 0.5307 0.26669 0.90962 0.0
O43 O 0.558 0.26791 0.91001 0.0
O44 O 0.54096 0.26238 0.88411 0.0
C45 C 0.52455 0.29271 0.92697 0.0
O46 O 0.5028 0.26534 0.90316 0.0
Co47 Co 0.50613 0.26098 0.94692 0.0
O48 O 0.48421 0.26612 0.92996 0.0
C49 C 0.53009 0.22988 0.93173 0.0
C50 C 0.55758 0.26457 0.89161 0.0
C51 C 0.48638 0.26639 0.91165 0.0
O52 O 0.53206 0.23885 0.91562 0.0
O53 O 0.52191 0.23708 0.94668 0.0
O54 O 0.52878 0.29415 0.90865 0.0
O55 O 0.526 0.27596 0.93447 0.0
Co56 Co 0.14751 0.0001 0.29421 0.0
O57 O 0.15062 0.97375 0.2882 0.0
O58 O 0.17317 0.99539 0.28513 0.0
C59 C 0.13218 0.99573 0.32264 0.0
O60 O 0.15031 0.02808 0.29931 0.0
Co61 Co 0.10823 0.02005 0.29946 0.0
O62 O 0.12286 0.04158 0.30944 0.0
C63 C 0.12322 0.01098 0.26026 0.0
C64 C 0.16811 0.97787 0.28347 0.0
C65 C 0.14071 0.04224 0.30599 0.0
O66 O 0.13919 0.00554 0.26721 0.0
O67 O 0.10886 0.01611 0.27077 0.0
O68 O 0.15066 0.99452 0.32156 0.0
O69 O 0.12363 0.99822 0.30651 0.0
Co70 Co 0.25668 0.89332 0.5176 0.0
O71 O 0.22937 0.89392 0.51716 0.0
O72 O 0.24753 0.91721 0.52724 0.0
C73 C 0.26217 0.88159 0.48814 0.0
O74 O 0.28493 0.89826 0.51932 0.0
Co75 Co 0.27913 0.85524 0.51589 0.0
O76 O 0.30176 0.87169 0.51287 0.0
C77 C 0.25639 0.86503 0.55047 0.0
C78 C 0.23057 0.91077 0.52435 0.0
C79 C 0.30074 0.88944 0.51595 0.0
O80 O 0.25532 0.88222 0.54438 0.0
O81 O 0.26372 0.85162 0.54037 0.0
O82 O 0.25841 0.89953 0.49021 0.0
O83 O 0.26023 0.8712 0.5035 0.0
Co84 Co 0.40175 0.04011 0.77061 0.0
O85 O 0.40263 0.0672 0.76861 0.0
O86 O 0.37805 0.04955 0.76084 0.0
C87 C 0.41365 0.0367 0.80011 0.0
O88 O 0.39532 0.01218 0.77165 0.0
Co89 Co 0.43909 0.01632 0.77299 0.0
O90 O 0.42157 0.99504 0.77849 0.0
C91 C 0.42886 0.03425 0.73631 0.0
C92 C 0.38548 0.06626 0.76207 0.0
C93 C 0.4037 0.99648 0.77601 0.0
O94 O 0.41227 0.03812 0.74348 0.0
O95 O 0.44228 0.02702 0.74625 0.0
O96 O 0.39587 0.04147 0.79813 0.0
O97 O 0.42403 0.0367 0.78445 0.0
Co98 Co 0.27235 0.14635 0.01506 0.0
O99 O 0.29957 0.15019 0.01518 0.0
O100 O 0.28557 0.12356 0.02386 0.0
C101 C 0.26849 0.15929 0.9851 0.0
O102 O 0.24485 0.13631 0.01573 0.0
Co103 Co 0.24358 0.17935 0.01214 0.0
O104 O 0.2255 0.15942 0.00503 0.0
C105 C 0.26218 0.17174 0.04947 0.0
C106 C 0.30134 0.13276 0.02096 0.0
C107 C 0.22854 0.14217 0.00962 0.0
O108 O 0.26986 0.15644 0.04257 0.0
O109 O 0.25224 0.18315 0.03921 0.0
O110 O 0.27376 0.14172 0.98715 0.0
O111 O 0.26673 0.16868 0.00095 0.0
Co112 Co 0.76027 0.38849 0.0236 0.0
O113 O 0.73298 0.38871 0.02525 0.0
O114 O 0.75132 0.41371 0.02921 0.0
C115 C 0.7633 0.37144 0.99657 0.0
O116 O 0.7885 0.39391 0.02225 0.0
Co117 Co 0.78356 0.351 0.02666 0.0
O118 O 0.80499 0.36693 0.01703 0.0
C119 C 0.76376 0.36674 0.06095 0.0
C120 C 0.73432 0.40664 0.02894 0.0
C121 C 0.80402 0.38492 0.01803 0.0
O122 O 0.76125 0.38248 0.05192 0.0
O123 O 0.77073 0.35188 0.0529 0.0
O124 O 0.75976 0.38952 0.99549 0.0
O125 O 0.76302 0.36413 0.01373 0.0
Co126 Co 0.8996 0.54024 0.26158 0.0
O127 O 0.90083 0.56733 0.26005 0.0
O128 O 0.87543 0.5503 0.25356 0.0
C129 C 0.91353 0.53655 0.29014 0.0
O130 O 0.89273 0.51239 0.26253 0.0
Co131 Co 0.93658 0.51558 0.26193 0.0
O132 O 0.91884 0.49488 0.26888 0.0
C133 C 0.92501 0.53488 0.22617 0.0
C134 C 0.88324 0.56685 0.25467 0.0
C135 C 0.90091 0.49657 0.26686 0.0
O136 O 0.90863 0.53867 0.23389 0.0
O137 O 0.93864 0.52721 0.23551 0.0
O138 O 0.89559 0.54119 0.2895 0.0
O139 O 0.92269 0.53643 0.27378 0.0
Co140 Co 0.77279 0.64655 0.51718 0.0
O141 O 0.79985 0.65128 0.51778 0.0
O142 O 0.78652 0.62423 0.52624 0.0
C143 C 0.76886 0.65938 0.48718 0.0
O144 O 0.74569 0.63557 0.51745 0.0
Co145 Co 0.74282 0.67855 0.51392 0.0
O146 O 0.72539 0.65797 0.507 0.0
C147 C 0.7614 0.67164 0.55138 0.0
C148 C 0.80203 0.63391 0.52365 0.0
C149 C 0.72913 0.64084 0.51152 0.0
O150 O 0.76949 0.6565 0.54463 0.0
O151 O 0.75129 0.68278 0.54099 0.0
O152 O 0.77491 0.64206 0.48928 0.0
O153 O 0.76646 0.66865 0.50304 0.0
Co154 Co 0.64722 0.50084 0.79511 0.0
O155 O 0.6528 0.47419 0.79553 0.0
O156 O 0.67306 0.49657 0.78618 0.0
C157 C 0.63283 0.50155 0.82436 0.0
O158 O 0.64725 0.52951 0.79355 0.0
Co159 Co 0.60602 0.51725 0.79735 0.0
O160 O 0.61874 0.54159 0.80257 0.0
C161 C 0.62087 0.49956 0.7614 0.0
C162 C 0.66973 0.47872 0.78924 0.0
C163 C 0.63631 0.54352 0.79814 0.0
O164 O 0.63782 0.49908 0.76802 0.0
O165 O 0.60622 0.50476 0.77143 0.0
O166 O 0.65131 0.50199 0.82287 0.0
O167 O 0.62394 0.49947 0.80846 0.0
Co168 Co 0.02225 0.78016 0.8935 0.0
O169 O 0.04967 0.78044 0.89582 0.0
O170 O 0.03481 0.77075 0.8701 0.0
C171 C 0.01769 0.81012 0.90535 0.0
O172 O 0.99449 0.77866 0.88471 0.0
Co173 Co 0.99494 0.78327 0.92841 0.0
O174 O 0.9741 0.78375 0.90956 0.0
C175 C 0.01617 0.74757 0.92224 0.0
C176 C 0.05087 0.77405 0.87834 0.0
C177 C 0.9774 0.78064 0.89172 0.0
O178 O 0.02126 0.75346 0.90519 0.0
O179 O 0.00726 0.75815 0.9344 0.0
O180 O 0.02228 0.80737 0.88732 0.0
O181 O 0.01692 0.79489 0.91584 0.0
Co182 Co 0.99453 0.30391 0.63234 0.0
O183 O 0.96876 0.30056 0.6244 0.0
O184 O 0.98266 0.28484 0.64824 0.0
C185 C 0.99389 0.33554 0.63265 0.0
O186 O 0.02005 0.30376 0.64537 0.0
Co187 Co 0.02492 0.32384 0.60645 0.0
O188 O 0.04049 0.3232 0.62998 0.0
C189 C 0.01426 0.28463 0.59812 0.0
C190 C 0.96749 0.28811 0.63829 0.0
C191 C 0.03604 0.31236 0.64413 0.0
O192 O 0.00367 0.28431 0.61348 0.0
O193 O 0.02324 0.29932 0.59216 0.0
O194 O 0.98681 0.32601 0.64719 0.0
O195 O 0.99945 0.32581 0.6178 0.0
Co196 Co 0.52449 0.28181 0.39338 0.0
O197 O 0.55187 0.28176 0.39667 0.0
O198 O 0.53779 0.27253 0.37033 0.0
C199 C 0.51987 0.31168 0.40543 0.0
O200 O 0.49704 0.28063 0.38336 0.0
Co201 Co 0.49547 0.28522 0.42685 0.0
O202 O 0.47565 0.28676 0.40707 0.0
C203 C 0.51429 0.24819 0.42 0.0
C204 C 0.5536 0.27556 0.37914 0.0
C205 C 0.4797 0.28321 0.38947 0.0
O206 O 0.52283 0.255 0.40477 0.0
O207 O 0.50352 0.25819 0.4311 0.0
O208 O 0.52505 0.30906 0.38753 0.0
O209 O 0.51842 0.29636 0.41573 0.0
Co210 Co 0.49725 0.79931 0.12672 0.0
O211 O 0.47127 0.79468 0.12045 0.0
O212 O 0.48722 0.77974 0.14344 0.0
C213 C 0.49436 0.83089 0.12669 0.0
O214 O 0.52357 0.80043 0.13795 0.0
Co215 Co 0.52478 0.82075 0.0992 0.0
O216 O 0.54261 0.82004 0.12102 0.0
C217 C 0.5143 0.78155 0.09056 0.0
C218 C 0.47137 0.78223 0.13436 0.0
C219 C 0.53936 0.8092 0.13549 0.0
O220 O 0.50598 0.78019 0.10722 0.0
O221 O 0.52157 0.79694 0.08401 0.0
O222 O 0.48949 0.82114 0.14198 0.0
O223 O 0.49974 0.8213 0.1117 0.0
Co224 Co 0.88347 0.0498 0.77011 0.0
O225 O 0.87931 0.07657 0.76685 0.0
O226 O 0.86552 0.05415 0.75002 0.0
C227 C 0.88093 0.04917 0.80235 0.0
O228 O 0.88325 0.02118 0.76951 0.0
Co229 Co 0.91789 0.03279 0.79199 0.0
O230 O 0.90535 0.00807 0.78849 0.0
C231 C 0.9236 0.04964 0.75318 0.0
C232 C 0.86731 0.07202 0.75369 0.0
C233 C 0.89131 0.0067 0.77729 0.0
O234 O 0.90546 0.05066 0.75106 0.0
O235 O 0.93127 0.04452 0.76902 0.0
O236 O 0.86563 0.04951 0.79218 0.0
O237 O 0.89691 0.05086 0.79298 0.0
Co238 Co 0.79201 0.15319 0.48869 0.0
O239 O 0.8188 0.15761 0.49106 0.0
O240 O 0.8019 0.13723 0.50877 0.0
C241 C 0.7923 0.15117 0.45648 0.0
O242 O 0.76481 0.14405 0.49025 0.0
Co243 Co 0.76527 0.18104 0.46701 0.0
O244 O 0.74577 0.1612 0.47106 0.0
C245 C 0.77826 0.19041 0.50593 0.0
C246 C 0.81835 0.14454 0.5044 0.0
C247 C 0.74859 0.1474 0.48266 0.0
O248 O 0.7858 0.17382 0.50764 0.0
O249 O 0.77082 0.19652 0.49033 0.0
O250 O 0.79732 0.1366 0.46682 0.0
O251 O 0.7889 0.16669 0.46568 0.0
Co252 Co 0.64389 0.00542 0.29741 0.0
O253 O 0.63738 0.97913 0.29656 0.0
O254 O 0.66011 0.99283 0.27877 0.0
C255 C 0.64444 0.00727 0.32963 0.0
O256 O 0.65519 0.03155 0.29461 0.0
Co257 Co 0.61692 0.03537 0.31637 0.0
O258 O 0.63836 0.05301 0.31176 0.0
C259 C 0.60886 0.02106 0.27755 0.0
C260 C 0.65126 0.97747 0.28396 0.0
C261 C 0.65255 0.04842 0.30094 0.0
O262 O 0.62474 0.01182 0.27723 0.0
O263 O 0.6025 0.03 0.29238 0.0
O264 O 0.6591 0.00054 0.32013 0.0
O265 O 0.62953 0.01111 0.31968 0.0
Co266 Co 0.76687 0.90361 0.01293 0.0
O267 O 0.73948 0.90078 0.01399 0.0
O268 O 0.75453 0.92633 0.02305 0.0
C269 C 0.77035 0.89189 0.9824 0.0
O270 O 0.79462 0.9128 0.01325 0.0
Co271 Co 0.79478 0.87001 0.00782 0.0
O272 O 0.81505 0.88916 0.00589 0.0
C273 C 0.77693 0.87685 0.04626 0.0
C274 C 0.73842 0.91792 0.02052 0.0
C275 C 0.81167 0.90641 0.00995 0.0
O276 O 0.76889 0.89217 0.03998 0.0
O277 O 0.78691 0.86578 0.03548 0.0
O278 O 0.76577 0.90954 0.9852 0.0
O279 O 0.77191 0.88178 0.99793 0.0
Co280 Co 0.29221 0.64262 0.99069 0.0
O281 O 0.31641 0.649 0.00105 0.0
O282 O 0.30119 0.62212 0.00672 0.0
C283 C 0.3002 0.65225 0.96067 0.0
O284 O 0.26764 0.63047 0.98268 0.0
Co285 Co 0.26525 0.67144 0.97104 0.0
O286 O 0.24934 0.64951 0.96473 0.0
C287 C 0.2667 0.66898 0.01385 0.0
C288 C 0.31622 0.63234 0.00912 0.0
C289 C 0.25262 0.63362 0.97286 0.0
O290 O 0.27842 0.65485 0.0131 0.0
O291 O 0.26087 0.67793 0.9989 0.0
O292 O 0.30482 0.63528 0.96639 0.0
O293 O 0.29136 0.66281 0.97309 0.0
Co294 Co 0.14821 0.50095 0.79385 0.0
O295 O 0.13793 0.47616 0.79022 0.0
O296 O 0.16368 0.48756 0.77525 0.0
C297 C 0.14635 0.50018 0.82613 0.0
O298 O 0.16369 0.52488 0.7941 0.0
Co299 Co 0.1256 0.53363 0.81354 0.0
O300 O 0.15049 0.54665 0.81371 0.0
C301 C 0.11763 0.52346 0.77325 0.0
C302 C 0.15233 0.47341 0.77842 0.0
C303 C 0.16411 0.5408 0.80282 0.0
O304 O 0.13177 0.51174 0.77307 0.0
O305 O 0.1121 0.53252 0.78832 0.0
O306 O 0.16062 0.49204 0.81718 0.0
O307 O 0.13319 0.50724 0.81542 0.0
Co308 Co 0.26757 0.40401 0.51153 0.0
O309 O 0.24017 0.40093 0.51254 0.0
O310 O 0.25498 0.42667 0.52145 0.0
C311 C 0.27113 0.39204 0.48112 0.0
O312 O 0.29518 0.41366 0.51185 0.0
Co313 Co 0.29637 0.37127 0.50641 0.0
O314 O 0.31574 0.39106 0.50206 0.0
C315 C 0.27803 0.37748 0.54483 0.0
C316 C 0.23895 0.41814 0.5189 0.0
C317 C 0.31218 0.40806 0.50701 0.0
O318 O 0.26966 0.39266 0.5386 0.0
O319 O 0.28843 0.36678 0.53404 0.0
O320 O 0.26639 0.40968 0.48373 0.0
O321 O 0.27297 0.38214 0.49674 0.0
Co322 Co 0.38582 0.5508 0.27491 0.0
O323 O 0.38311 0.57768 0.27122 0.0
O324 O 0.36831 0.55574 0.25461 0.0
C325 C 0.38293 0.55083 0.30708 0.0
O326 O 0.38407 0.52231 0.27464 0.0
Co327 Co 0.41896 0.53212 0.29732 0.0
O328 O 0.40433 0.50837 0.29509 0.0
C329 C 0.42588 0.5475 0.25804 0.0
C330 C 0.37093 0.57353 0.25808 0.0
C331 C 0.39075 0.50762 0.28327 0.0
O332 O 0.40789 0.55016 0.25609 0.0
O333 O 0.43326 0.54182 0.27384 0.0
O334 O 0.36778 0.55178 0.29672 0.0
O335 O 0.39912 0.55147 0.2979 0.0
Co336 Co 0.01478 0.03254 0.00328 0.0
C337 C 0.01384 0.0549 0.03678 0.0
Co338 Co 0.02343 0.01731 0.02942 0.0
C339 C 0.99253 0.04102 0.97046 0.0
C340 C 0.0106 0.06412 0.97718 0.0
N341 N 0.00666 0.04603 0.9821 0.0
N342 N 0.98709 0.05537 0.95883 0.0
C343 C 0.99846 0.06995 0.96291 0.0
H344 H 0.98533 0.02757 0.97156 0.0
H345 H 0.02076 0.07284 0.98437 0.0
C346 C 0.02408 0.9949 0.99594 0.0
N347 N 0.03133 0.00376 0.05061 0.0
C348 C 0.04419 0.00898 0.06358 0.0
C349 C 0.02655 0.98594 0.05568 0.0
N350 N 0.04779 0.99508 0.07654 0.0
C351 C 0.03663 0.98057 0.07164 0.0
C352 C 0.98479 0.01407 0.02277 0.0
O353 O 0.01885 0.01023 0.98768 0.0
O354 O 0.0274 0.99522 0.0139 0.0
O355 O 0.99774 0.00938 0.03447 0.0
O356 O 0.98912 0.02468 0.00849 0.0
O357 O 0.01939 0.03967 0.04501 0.0
H358 H 0.01667 0.97729 0.04801 0.0
H359 H 0.05078 0.02275 0.06344 0.0
O360 O 0.01062 0.05457 0.01881 0.0
O361 O 0.04046 0.04046 0.99825 0.0
O362 O 0.04914 0.02516 0.02427 0.0
C363 C 0.05345 0.03578 0.00993 0.0
H364 H 0.99753 0.084 0.95661 0.0
H365 H 0.03608 0.96688 0.07876 0.0
Co366 Co 0.27451 0.77385 0.2667 0.0
C367 C 0.26571 0.73779 0.25566 0.0
Co368 Co 0.25705 0.77331 0.24076 0.0
C369 C 0.28873 0.78843 0.30173 0.0
C370 C 0.30312 0.76269 0.29396 0.0
N371 N 0.28928 0.77479 0.28831 0.0
N372 N 0.30169 0.78543 0.31547 0.0
C373 C 0.3107 0.76914 0.31082 0.0
H374 H 0.27881 0.80026 0.30159 0.0
H375 H 0.30751 0.75007 0.28626 0.0
C376 C 0.26609 0.80935 0.25116 0.0
N377 N 0.24262 0.77219 0.21903 0.0
C378 C 0.24547 0.75957 0.20486 0.0
C379 C 0.22781 0.783 0.21334 0.0
N380 N 0.23318 0.76196 0.19037 0.0
C381 C 0.22195 0.77672 0.19566 0.0
C382 C 0.23578 0.77512 0.27468 0.0
O383 O 0.27459 0.80081 0.26475 0.0
O384 O 0.25736 0.79981 0.23882 0.0
O385 O 0.23474 0.77454 0.25642 0.0
O386 O 0.25204 0.77502 0.28237 0.0
O387 O 0.2569 0.74668 0.24259 0.0
H388 H 0.22179 0.79473 0.22143 0.0
H389 H 0.2564 0.74871 0.20536 0.0
O390 O 0.27431 0.74705 0.26835 0.0
O391 O 0.29685 0.77248 0.25103 0.0
O392 O 0.27947 0.77196 0.22521 0.0
C393 C 0.29572 0.77147 0.23282 0.0
H394 H 0.32207 0.76256 0.31888 0.0
H395 H 0.21055 0.78279 0.18729 0.0
Co396 Co 0.51388 0.02358 0.51533 0.0
C397 C 0.52342 0.06095 0.50714 0.0
Co398 Co 0.53553 0.03409 0.5348 0.0
C399 C 0.48163 0.00212 0.50493 0.0
C400 C 0.49208 0.01864 0.48098 0.0
N401 N 0.49539 0.01436 0.49964 0.0
N402 N 0.46983 0.99863 0.49039 0.0
C403 C 0.47621 0.00906 0.47528 0.0
H404 H 0.47996 0.99627 0.51936 0.0
H405 H 0.50053 0.02826 0.47217 0.0
C406 C 0.52606 0.9966 0.54268 0.0
N407 N 0.55433 0.04336 0.55013 0.0
C408 C 0.56838 0.05455 0.54339 0.0
C409 C 0.55838 0.04011 0.56883 0.0
N410 N 0.58105 0.05852 0.55697 0.0
C411 C 0.57502 0.04934 0.57306 0.0
C412 C 0.4993 0.04051 0.54856 0.0
O413 O 0.51577 0.99938 0.52804 0.0
O414 O 0.53586 0.01028 0.54879 0.0
O415 O 0.51671 0.04352 0.55175 0.0
O416 O 0.49472 0.03138 0.53367 0.0
O417 O 0.53502 0.05779 0.52064 0.0
H418 H 0.55008 0.03124 0.57858 0.0
H419 H 0.56983 0.05902 0.52844 0.0
O420 O 0.51214 0.04785 0.50262 0.0
O421 O 0.53313 0.01579 0.49726 0.0
O422 O 0.55442 0.02476 0.51776 0.0
C423 C 0.55047 0.01743 0.50176 0.0
H424 H 0.46988 0.00965 0.46118 0.0
H425 H 0.5822 0.04916 0.58671 0.0
Co426 Co 0.27682 0.27416 0.76762 0.0
C427 C 0.26597 0.28224 0.7302 0.0
Co428 Co 0.2505 0.25978 0.76022 0.0
C429 C 0.31214 0.27892 0.78658 0.0
C430 C 0.3058 0.30265 0.76831 0.0
N431 N 0.29913 0.28568 0.77422 0.0
N432 N 0.32662 0.291 0.7887 0.0
C433 C 0.3228 0.30593 0.77714 0.0
H434 H 0.31103 0.26534 0.79387 0.0
H435 H 0.29864 0.31215 0.75844 0.0
C436 C 0.26128 0.2519 0.79772 0.0
N437 N 0.22806 0.24863 0.75368 0.0
C438 C 0.21371 0.25774 0.74489 0.0
C439 C 0.22168 0.23094 0.75702 0.0
N440 N 0.19854 0.2466 0.74259 0.0
C441 C 0.20341 0.22966 0.75026 0.0
C442 C 0.2824 0.23839 0.75218 0.0
O443 O 0.2742 0.26374 0.79328 0.0
O444 O 0.24919 0.24774 0.7851 0.0
O445 O 0.26444 0.23892 0.75052 0.0
O446 O 0.29073 0.25232 0.75967 0.0
O447 O 0.25191 0.27196 0.73519 0.0
H448 H 0.22967 0.21983 0.76416 0.0
H449 H 0.21419 0.27257 0.74084 0.0
O450 O 0.27922 0.2845 0.74211 0.0
O451 O 0.26288 0.29597 0.77529 0.0
O452 O 0.23658 0.28076 0.76993 0.0
C453 C 0.24483 0.29567 0.77515 0.0
H454 H 0.3314 0.3185 0.77561 0.0
H455 H 0.19444 0.21731 0.75096 0.0
Co456 Co 0.01728 0.01492 0.53812 0.0
C457 C 0.01804 0.03434 0.57262 0.0
Co458 Co 0.03219 0.04213 0.5361 0.0
C459 C 0.01051 0.97569 0.53206 0.0
C460 C 0.9878 0.98845 0.54861 0.0
N461 N 0.00482 0.99215 0.54008 0.0
N462 N 0.99768 0.96187 0.53507 0.0
C463 C 0.98331 0.96982 0.54547 0.0
H464 H 0.02351 0.9741 0.52352 0.0
H465 H 0.97905 0.99875 0.55625 0.0
C466 C 0.0317 0.02281 0.50161 0.0
N467 N 0.04454 0.06489 0.53383 0.0
C468 C 0.03781 0.08171 0.54003 0.0
C469 C 0.06104 0.06883 0.52438 0.0
N470 N 0.04923 0.09613 0.53462 0.0
C471 C 0.06398 0.08806 0.52486 0.0
C472 C 0.0558 0.0121 0.54506 0.0
O473 O 0.02223 0.0107 0.51137 0.0
O474 O 0.03721 0.0377 0.50977 0.0
O475 O 0.05531 0.02989 0.5423 0.0
O476 O 0.04057 0.00271 0.54394 0.0
O477 O 0.02709 0.04654 0.56257 0.0
H478 H 0.07002 0.05846 0.51712 0.0
H479 H 0.02458 0.08326 0.54819 0.0
O480 O 0.01257 0.01924 0.56472 0.0
O481 O 0.99401 0.0273 0.53239 0.0
O482 O 0.00898 0.05426 0.52993 0.0
C483 C 0.99362 0.04505 0.52941 0.0
H484 H 0.97044 0.96273 0.55028 0.0
H485 H 0.07571 0.09553 0.51799 0.0
Co486 Co 0.26998 0.7854 0.76838 0.0
C487 C 0.23453 0.76935 0.77815 0.0
Co488 Co 0.26441 0.75879 0.7535 0.0
C489 C 0.28924 0.81696 0.78518 0.0
C490 C 0.25908 0.82112 0.78399 0.0
N491 N 0.27305 0.80839 0.78018 0.0
N492 N 0.28594 0.83467 0.79177 0.0
C493 C 0.26691 0.83722 0.79111 0.0
H494 H 0.3032 0.81052 0.78341 0.0
H495 H 0.2442 0.81919 0.78092 0.0
C496 C 0.30002 0.77453 0.74399 0.0
N497 N 0.2611 0.73585 0.74185 0.0
C498 C 0.25507 0.72008 0.75098 0.0
C499 C 0.26628 0.73026 0.72393 0.0
N500 N 0.25663 0.70464 0.73975 0.0
C501 C 0.26354 0.71104 0.72258 0.0
C502 C 0.25172 0.78932 0.73311 0.0
O503 O 0.29433 0.78767 0.75523 0.0
O504 O 0.28903 0.76068 0.74124 0.0
O505 O 0.25334 0.77143 0.73251 0.0
O506 O 0.258 0.79808 0.74752 0.0
O507 O 0.23965 0.75692 0.76589 0.0
H508 H 0.27242 0.7394 0.71288 0.0
H509 H 0.2501 0.72001 0.76586 0.0
O510 O 0.24583 0.78278 0.7815 0.0
O511 O 0.28191 0.77273 0.78908 0.0
O512 O 0.27562 0.74617 0.77463 0.0
C513 C 0.2827 0.75477 0.7887 0.0
H514 H 0.25924 0.85021 0.79435 0.0
H515 H 0.26714 0.70243 0.71018 0.0
Co516 Co 0.51875 0.02081 0.01635 0.0
C517 C 0.55483 0.01324 0.03156 0.0
Co518 Co 0.52608 0.03911 0.04052 0.0
C519 C 0.4967 0.00039 0.98883 0.0
C520 C 0.52671 0.99762 0.98351 0.0
N521 N 0.5137 0.0053 0.99581 0.0
N522 N 0.49857 0.99018 0.9725 0.0
C523 C 0.51749 0.98833 0.96925 0.0
H524 H 0.48321 0.00488 0.99518 0.0
H525 H 0.54193 0.99949 0.98422 0.0
C526 C 0.4899 0.04657 0.02559 0.0
N527 N 0.53137 0.05435 0.06106 0.0
C528 C 0.53612 0.04815 0.07874 0.0
C529 C 0.53029 0.07337 0.06251 0.0
N530 N 0.5378 0.06241 0.09128 0.0
C531 C 0.53436 0.07839 0.08115 0.0
C532 C 0.53733 0.05374 0.00523 0.0
O533 O 0.49465 0.03354 0.01383 0.0
O534 O 0.50166 0.05128 0.03835 0.0
O535 O 0.53691 0.05688 0.02324 0.0
O536 O 0.53016 0.03861 0.999 0.0
O537 O 0.55058 0.02689 0.04273 0.0
H538 H 0.52636 0.08289 0.05091 0.0
H539 H 0.53822 0.03336 0.0824 0.0
O540 O 0.54277 0.00827 0.01927 0.0
O541 O 0.50735 0.00317 0.03355 0.0
O542 O 0.51507 0.02111 0.05768 0.0
C543 C 0.50736 0.00625 0.05157 0.0
H544 H 0.52424 0.98201 0.95664 0.0
H545 H 0.53421 0.09257 0.08694 0.0
Co546 Co 0.26878 0.25956 0.27736 0.0
C547 C 0.30704 0.26932 0.28033 0.0
Co548 Co 0.27607 0.28534 0.26106 0.0
C549 C 0.25074 0.2242 0.28736 0.0
C550 C 0.26785 0.23471 0.31 0.0
N551 N 0.26262 0.23831 0.29169 0.0
N552 N 0.24815 0.21214 0.30237 0.0
C553 C 0.25889 0.21866 0.31664 0.0
H554 H 0.24348 0.22327 0.27379 0.0
H555 H 0.27712 0.24355 0.31821 0.0
C556 C 0.23779 0.27561 0.25816 0.0
N557 N 0.28233 0.30696 0.24752 0.0
C558 C 0.29342 0.32063 0.25432 0.0
C559 C 0.27639 0.31352 0.23032 0.0
N560 N 0.29454 0.33572 0.24233 0.0
C561 C 0.28391 0.33127 0.22708 0.0
C562 C 0.27946 0.2525 0.23905 0.0
O563 O 0.24284 0.26204 0.2692 0.0
O564 O 0.25008 0.28793 0.25319 0.0
O565 O 0.28151 0.27038 0.23879 0.0
O566 O 0.27433 0.24442 0.25484 0.0
O567 O 0.30211 0.28265 0.26899 0.0
H568 H 0.26684 0.30614 0.22105 0.0
H569 H 0.30035 0.31948 0.26806 0.0
O570 O 0.29467 0.25717 0.28546 0.0
O571 O 0.26325 0.27476 0.29968 0.0
O572 O 0.27061 0.30038 0.28348 0.0
C573 C 0.26551 0.29257 0.29931 0.0
H574 H 0.25999 0.21239 0.3309 0.0
H575 H 0.2812 0.34035 0.21476 0.0
Co576 Co 0.52084 0.51277 0.04159 0.0
C577 C 0.5229 0.52984 0.07751 0.0
Co578 Co 0.53525 0.5403 0.0413 0.0
C579 C 0.51175 0.47486 0.03127 0.0
C580 C 0.49343 0.48498 0.05408 0.0
N581 N 0.50838 0.48994 0.04262 0.0
N582 N 0.49944 0.46074 0.03504 0.0
C583 C 0.48794 0.46695 0.0495 0.0
H584 H 0.523 0.47428 0.02034 0.0
H585 H 0.48668 0.49404 0.06477 0.0
C586 C 0.53359 0.52343 0.00538 0.0
N587 N 0.54772 0.56313 0.03991 0.0
C588 C 0.54046 0.58035 0.0441 0.0
C589 C 0.56523 0.56646 0.03231 0.0
N590 N 0.55258 0.59437 0.03918 0.0
C591 C 0.56827 0.58566 0.03186 0.0
C592 C 0.55947 0.50971 0.04696 0.0
O593 O 0.52466 0.51047 0.01444 0.0
O594 O 0.53923 0.53769 0.01453 0.0
O595 O 0.55861 0.52763 0.04574 0.0
O596 O 0.54434 0.50021 0.04551 0.0
O597 O 0.53126 0.54302 0.06819 0.0
H598 H 0.57488 0.55569 0.02674 0.0
H599 H 0.52614 0.58258 0.04973 0.0
O600 O 0.5174 0.51534 0.06856 0.0
O601 O 0.49728 0.52533 0.03774 0.0
O602 O 0.51164 0.55267 0.03694 0.0
C603 C 0.49642 0.54323 0.0362 0.0
H604 H 0.47605 0.45928 0.05583 0.0
H605 H 0.58088 0.59262 0.02619 0.0
Co606 Co 0.7759 0.27963 0.27333 0.0
C607 C 0.73878 0.26789 0.28129 0.0
Co608 Co 0.76665 0.25763 0.25352 0.0
C609 C 0.79201 0.31482 0.28275 0.0
C610 C 0.7812 0.30098 0.30823 0.0
N611 N 0.78351 0.29887 0.289 0.0
N612 N 0.79499 0.327 0.29717 0.0
C613 C 0.78832 0.31831 0.31333 0.0
H614 H 0.79594 0.31737 0.26776 0.0
H615 H 0.77449 0.29075 0.31783 0.0
C616 C 0.80382 0.26929 0.24572 0.0
N617 N 0.759 0.23836 0.23783 0.0
C618 C 0.75272 0.22148 0.24427 0.0
C619 C 0.75906 0.23713 0.21839 0.0
N620 N 0.74911 0.20963 0.22978 0.0
C621 C 0.75282 0.2194 0.21337 0.0
C622 C 0.75818 0.29311 0.24013 0.0
O623 O 0.80013 0.28013 0.25991 0.0
O624 O 0.79095 0.25813 0.24024 0.0
O625 O 0.75699 0.27567 0.23622 0.0
O626 O 0.76601 0.29796 0.25563 0.0
O627 O 0.74228 0.25716 0.26695 0.0
H628 H 0.76362 0.24826 0.20856 0.0
H629 H 0.75079 0.2179 0.25941 0.0
O630 O 0.75174 0.27898 0.28667 0.0
O631 O 0.78572 0.26126 0.29089 0.0
O632 O 0.77643 0.23961 0.27092 0.0
C633 C 0.78431 0.24392 0.2865 0.0
H634 H 0.78818 0.32418 0.32769 0.0
H635 H 0.75157 0.21397 0.19891 0.0
Co636 Co 0.01931 0.52335 0.51673 0.0
C637 C 0.05643 0.51609 0.52833 0.0
Co638 Co 0.02853 0.54272 0.53918 0.0
C639 C 0.00386 0.5125 0.48104 0.0
C640 C 0.01303 0.4882 0.49712 0.0
N641 N 0.01168 0.50724 0.49782 0.0
N642 N 1.00039 0.49758 0.46974 0.0
C643 C 0.00601 0.48219 0.47983 0.0
H644 H 1.00074 0.52708 0.47723 0.0
H645 H 0.01897 0.47932 0.50833 0.0
C646 C 0.99126 0.54964 0.52755 0.0
N647 N 0.03617 0.55872 0.5582 0.0
C648 C 0.0456 0.55329 0.57402 0.0
C649 C 0.03267 0.57738 0.5605 0.0
N650 N 0.04805 0.56769 0.58626 0.0
C651 C 0.03987 0.58294 0.57789 0.0
C652 C 0.03671 0.55584 0.50247 0.0
O653 O 0.99514 0.53604 0.5162 0.0
O654 O 0.00397 0.55501 0.53904 0.0
O655 O 0.03766 0.5597 0.52026 0.0
O656 O 0.02914 0.54044 0.49751 0.0
O657 O 0.05307 0.53023 0.53918 0.0
H658 H 0.02491 0.58621 0.55047 0.0
H659 H 0.04978 0.53877 0.57694 0.0
O660 O 0.0434 0.51061 0.51732 0.0
O661 O 0.00959 0.50656 0.53595 0.0
O662 O 0.01941 0.52566 0.55825 0.0
C663 C 0.0113 0.51046 0.55368 0.0
H664 H 0.00556 0.46773 0.47487 0.0
H665 H 0.03891 0.59695 0.58402 0.0
Co666 Co 0.77927 0.77739 0.27112 0.0
C667 C 0.76786 0.78651 0.23417 0.0
Co668 Co 0.75212 0.76415 0.26419 0.0
C669 C 0.81632 0.78056 0.28742 0.0
C670 C 0.8066 0.8068 0.27521 0.0
N671 N 0.80184 0.78846 0.27764 0.0
N672 N 0.82977 0.79329 0.29142 0.0
C673 C 0.82374 0.80984 0.28381 0.0
H674 H 0.81656 0.76595 0.2923 0.0
H675 H 0.79787 0.81739 0.26817 0.0
C676 C 0.76354 0.75515 0.30122 0.0
N677 N 0.72934 0.75361 0.25761 0.0
C678 C 0.71554 0.76278 0.24799 0.0
C679 C 0.72259 0.73604 0.26083 0.0
N680 N 0.70045 0.75173 0.2449 0.0
C681 C 0.70473 0.73485 0.25306 0.0
C682 C 0.78353 0.74191 0.25511 0.0
O683 O 0.77718 0.76606 0.2964 0.0
O684 O 0.75059 0.75222 0.28909 0.0
O685 O 0.76549 0.74289 0.2544 0.0
O686 O 0.7926 0.75563 0.26209 0.0
O687 O 0.75379 0.77629 0.23923 0.0
H688 H 0.7302 0.72484 0.26825 0.0
H689 H 0.7165 0.77747 0.24353 0.0
O690 O 0.78127 0.78859 0.24594 0.0
O691 O 0.76573 0.79915 0.27993 0.0
O692 O 0.73877 0.78541 0.27393 0.0
C693 C 0.74768 0.7997 0.27972 0.0
H694 H 0.83106 0.8232 0.28469 0.0
H695 H 0.69577 0.72249 0.25312 0.0
Co696 Co 0.76788 0.26827 0.76833 0.0
C697 C 0.76049 0.23401 0.75159 0.0
Co698 Co 0.75118 0.271 0.7419 0.0
C699 C 0.77677 0.27454 0.80764 0.0
C700 C 0.79783 0.25679 0.79399 0.0
N701 N 0.78138 0.2662 0.79076 0.0
N702 N 0.78964 0.27078 0.8213 0.0
C703 C 0.80302 0.25968 0.8128 0.0
H704 H 0.76439 0.28363 0.80972 0.0
H705 H 0.8056 0.24849 0.78333 0.0
C706 C 0.75898 0.3053 0.75827 0.0
N707 N 0.73791 0.27303 0.71937 0.0
C708 C 0.74259 0.26374 0.70309 0.0
C709 C 0.72314 0.28439 0.71466 0.0
N710 N 0.73153 0.26884 0.68826 0.0
C711 C 0.71924 0.28191 0.69541 0.0
C712 C 0.72873 0.26756 0.77465 0.0
O713 O 0.76725 0.29504 0.77077 0.0
O714 O 0.75089 0.29756 0.74424 0.0
O715 O 0.7281 0.26949 0.75643 0.0
O716 O 0.74477 0.26665 0.78269 0.0
O717 O 0.75181 0.24433 0.73949 0.0
H718 H 0.71606 0.2942 0.72441 0.0
H719 H 0.75458 0.25403 0.70192 0.0
O720 O 0.76842 0.24165 0.7658 0.0
O721 O 0.79093 0.26974 0.75373 0.0
O722 O 0.77428 0.27246 0.72752 0.0
C723 C 0.79031 0.27134 0.7355 0.0
H724 H 0.81555 0.254 0.81971 0.0
H725 H 0.70846 0.28935 0.68727 0.0
Co726 Co 0.76583 0.76112 0.77833 0.0
C727 C 0.80439 0.76902 0.78245 0.0
Co728 Co 0.77499 0.78621 0.76184 0.0
C729 C 0.74649 0.72641 0.78714 0.0
C730 C 0.76114 0.73694 0.81151 0.0
N731 N 0.75792 0.74046 0.79268 0.0
N732 N 0.74228 0.71441 0.80182 0.0
C733 C 0.75143 0.72096 0.81721 0.0
H734 H 0.74081 0.7254 0.77279 0.0
H735 H 0.76967 0.74568 0.8206 0.0
C736 C 0.7364 0.77842 0.75774 0.0
N737 N 0.78292 0.80691 0.74768 0.0
C738 C 0.79524 0.82006 0.75342 0.0
C739 C 0.77837 0.81207 0.72956 0.0
N740 N 0.79868 0.83322 0.73962 0.0
C741 C 0.78801 0.82834 0.72457 0.0
C742 C 0.77741 0.75274 0.74065 0.0
O743 O 0.74029 0.76491 0.76934 0.0
O744 O 0.74955 0.78987 0.75287 0.0
O745 O 0.78044 0.77044 0.7402 0.0
O746 O 0.77122 0.74524 0.75633 0.0
O747 O 0.80042 0.78242 0.7708 0.0
H748 H 0.7688 0.80441 0.72053 0.0
H749 H 0.8014 0.82005 0.7676 0.0
O750 O 0.79133 0.75748 0.78737 0.0
O751 O 0.76053 0.77704 0.80005 0.0
O752 O 0.76957 0.80211 0.7837 0.0
C753 C 0.76366 0.79472 0.79951 0.0
H754 H 0.75105 0.71469 0.83152 0.0
H755 H 0.78744 0.83581 0.71088 0.0
Co756 Co 0.51603 0.53338 0.50489 0.0
C757 C 0.51491 0.55601 0.53845 0.0
Co758 Co 0.52311 0.51822 0.5316 0.0
C759 C 0.49491 0.54294 0.47166 0.0
C760 C 0.51385 0.56518 0.47878 0.0
N761 N 0.50909 0.54725 0.48351 0.0
N762 N 0.49015 0.5576 0.46013 0.0
C763 C 0.50209 0.57165 0.46444 0.0
H764 H 0.48709 0.52984 0.47264 0.0
H765 H 0.52423 0.57345 0.48623 0.0
C766 C 0.52415 0.49567 0.49793 0.0
N767 N 0.52975 0.50409 0.55293 0.0
C768 C 0.54352 0.50734 0.56569 0.0
C769 C 0.52294 0.48687 0.55775 0.0
N770 N 0.54571 0.4927 0.57812 0.0
C771 C 0.53272 0.47983 0.57322 0.0
C772 C 0.48464 0.51619 0.52347 0.0
O773 O 0.51979 0.51109 0.48938 0.0
O774 O 0.52669 0.49598 0.51605 0.0
O775 O 0.49692 0.51138 0.53582 0.0
O776 O 0.48995 0.52638 0.50919 0.0
O777 O 0.51947 0.54069 0.54715 0.0
H778 H 0.51194 0.47963 0.55013 0.0
H779 H 0.55224 0.51988 0.56537 0.0
O780 O 0.51229 0.55551 0.52036 0.0
O781 O 0.542 0.54033 0.5007 0.0
O782 O 0.54933 0.5251 0.52722 0.0
C783 C 0.55444 0.53536 0.51285 0.0
H784 H 0.50173 0.58582 0.45836 0.0
H785 H 0.53048 0.46627 0.58027 0.0
Co786 Co 0.01524 0.52051 0.01177 0.0
C787 C 0.02625 0.55722 0.00226 0.0
Co788 Co 0.03728 0.53097 0.03097 0.0
C789 C 0.98035 0.50287 0.00205 0.0
C790 C 0.99661 0.51082 0.97681 0.0
N791 N 0.99656 0.51143 0.99627 0.0
N792 N 0.97035 0.49679 0.987 0.0
C793 C 0.98052 0.50168 0.97106 0.0
H794 H 0.97629 0.50055 0.01705 0.0
H795 H 0.0078 0.51634 0.96744 0.0
C796 C 0.02617 0.49421 0.04035 0.0
N797 N 0.05668 0.5401 0.04573 0.0
C798 C 0.07086 0.55067 0.03816 0.0
C799 C 0.06201 0.53605 0.06392 0.0
N800 N 0.08492 0.55333 0.05063 0.0
C801 C 0.07958 0.54406 0.06692 0.0
C802 C 0.00126 0.53959 0.04406 0.0
O803 O 0.01525 0.49714 0.02619 0.0
O804 O 0.0372 0.50741 0.04535 0.0
O805 O 0.01876 0.54116 0.04793 0.0
O806 O 0.99646 0.53082 0.02903 0.0
O807 O 0.03692 0.55435 0.01657 0.0
H808 H 0.0542 0.52703 0.07393 0.0
H809 H 0.07165 0.55507 0.02315 0.0
O810 O 0.01538 0.54397 0.99718 0.0
O811 O 0.03401 0.51014 0.99498 0.0
O812 O 0.05597 0.5208 0.01382 0.0
C813 C 0.05143 0.51181 0.99893 0.0
H814 H 0.97662 0.49878 0.95636 0.0
H815 H 0.08804 0.54259 0.07972 0.0
C816 C 0.03831 0.21612 0.09343 0.0
C817 C 0.02782 0.22359 0.10923 0.0
C818 C 0.03556 0.19761 0.0872 0.0
C819 C 0.01568 0.15055 0.10107 0.0
H820 H 0.0187 0.14313 0.04573 0.0
C821 C 0.00393 0.08917 0.03855 0.0
C822 C 0.0124 0.07324 0.04735 0.0
C823 C 0.00411 0.10695 0.04733 0.0
C824 C 0.01755 0.14483 0.06122 0.0
H825 H 0.00634 0.21683 0.1311 0.0
H826 H 0.00134 0.18435 0.12 0.0
H827 H 0.02161 0.17467 0.0586 0.0
H828 H 0.02731 0.06364 0.07273 0.0
H829 H 0.02795 0.09477 0.08794 0.0
H830 H 0.01126 0.12056 0.10353 0.0
C831 C 0.01186 0.19298 0.11253 0.0
C832 C 0.01953 0.16304 0.06868 0.0
C833 C 0.01467 0.21166 0.11887 0.0
C834 C 0.02056 0.07554 0.06555 0.0
C835 C 0.02087 0.09345 0.07431 0.0
C836 C 0.01366 0.13222 0.09357 0.0
C837 C 0.02212 0.18577 0.09639 0.0
C838 C 0.01886 0.16623 0.08872 0.0
C839 C 0.01296 0.10954 0.06515 0.0
C840 C 0.01464 0.12906 0.07349 0.0
H841 H 0.04878 0.2246 0.0857 0.0
H842 H 0.04414 0.19257 0.07509 0.0
H843 H 0.01517 0.15235 0.11657 0.0
H844 H 0.99736 0.08799 0.02462 0.0
H845 H 0.9974 0.11875 0.03996 0.0
C846 C 0.08099 0.76669 0.35849 0.0
C847 C 0.08141 0.76838 0.37864 0.0
C848 C 0.09785 0.76726 0.34744 0.0
C849 C 0.1475 0.7835 0.34905 0.0
H850 H 0.15497 0.74993 0.30554 0.0
C851 C 0.21918 0.77606 0.30702 0.0
C852 C 0.21824 0.77526 0.28681 0.0
C853 C 0.20256 0.77541 0.31845 0.0
C854 C 0.153 0.75952 0.31754 0.0
H855 H 0.0998 0.77166 0.4031 0.0
H856 H 0.12923 0.77236 0.38385 0.0
H857 H 0.1258 0.74799 0.32515 0.0
H858 H 0.19914 0.77349 0.26271 0.0
H859 H 0.17019 0.77246 0.28267 0.0
H860 H 0.17477 0.79495 0.34145 0.0
C861 C 0.11587 0.77094 0.37654 0.0
C862 C 0.1363 0.75842 0.32876 0.0
C863 C 0.09901 0.77042 0.38757 0.0
C864 C 0.20036 0.77406 0.27825 0.0
C865 C 0.18378 0.77335 0.28967 0.0
C866 C 0.16423 0.78456 0.33786 0.0
C867 C 0.11546 0.76947 0.35634 0.0
C868 C 0.13333 0.77044 0.3446 0.0
C869 C 0.18472 0.77389 0.30988 0.0
C870 C 0.16711 0.77263 0.32195 0.0
H871 H 0.06762 0.76517 0.3512 0.0
H872 H 0.09704 0.76632 0.33189 0.0
H873 H 0.14551 0.79316 0.36099 0.0
H874 H 0.23276 0.77698 0.31404 0.0
H875 H 0.20372 0.77571 0.33401 0.0
C876 C 0.52644 0.8306 0.60149 0.0
C877 C 0.52679 0.82798 0.62164 0.0
C878 C 0.52699 0.84884 0.59328 0.0
C879 C 0.54144 0.89803 0.60141 0.0
H880 H 0.5029 0.91109 0.5643 0.0
C881 C 0.53359 0.97495 0.57089 0.0
C882 C 0.5267 0.97751 0.55214 0.0
C883 C 0.53381 0.95692 0.5797 0.0
C884 C 0.51406 0.90773 0.57432 0.0
H885 H 0.52862 0.84255 0.64889 0.0
H886 H 0.53018 0.87437 0.63449 0.0
H887 H 0.50376 0.87945 0.57841 0.0
H888 H 0.51504 0.9629 0.52781 0.0
H889 H 0.51624 0.93165 0.54256 0.0
H890 H 0.55222 0.92599 0.59693 0.0
C891 C 0.52926 0.86228 0.62508 0.0
C892 C 0.51444 0.8895 0.58253 0.0
C893 C 0.52832 0.84405 0.63332 0.0
C894 C 0.52028 0.96154 0.54234 0.0
C895 C 0.52082 0.94351 0.55096 0.0
C896 C 0.54131 0.91619 0.59291 0.0
C897 C 0.5283 0.86494 0.60496 0.0
C898 C 0.52811 0.88439 0.59619 0.0
C899 C 0.52743 0.94083 0.56988 0.0
C900 C 0.5276 0.9214 0.57919 0.0
H901 H 0.52521 0.81856 0.59206 0.0
H902 H 0.52638 0.85035 0.57774 0.0
H903 H 0.55225 0.89452 0.61179 0.0
H904 H 0.53855 0.98694 0.57892 0.0
H905 H 0.53872 0.95573 0.59435 0.0
C906 C 0.47165 0.27436 0.88013 0.0
C907 C 0.46948 0.26849 0.89949 0.0
C908 C 0.45579 0.27692 0.86863 0.0
C909 C 0.40701 0.26214 0.86256 0.0
H910 H 0.40188 0.30886 0.83316 0.0
C911 C 0.33992 0.27931 0.8192 0.0
C912 C 0.34237 0.28868 0.80138 0.0
C913 C 0.35517 0.27706 0.83159 0.0
C914 C 0.40322 0.29562 0.84104 0.0
H915 H 0.44898 0.26043 0.92191 0.0
H916 H 0.42117 0.26463 0.90156 0.0
H917 H 0.42904 0.30426 0.85403 0.0
H918 H 0.36263 0.30281 0.78234 0.0
H919 H 0.38951 0.29843 0.80368 0.0
H920 H 0.38156 0.25318 0.84921 0.0
C921 C 0.43522 0.26732 0.89543 0.0
C922 C 0.41871 0.29305 0.85306 0.0
C923 C 0.4511 0.265 0.90705 0.0
C924 C 0.36036 0.29572 0.79612 0.0
C925 C 0.3757 0.29326 0.80839 0.0
C926 C 0.39163 0.26459 0.85034 0.0
C927 C 0.43746 0.27344 0.87617 0.0
C928 C 0.42075 0.27629 0.86388 0.0
C929 C 0.37327 0.28393 0.82631 0.0
C930 C 0.38956 0.28135 0.83941 0.0
H931 H 0.4856 0.27724 0.87387 0.0
H932 H 0.45788 0.28148 0.85376 0.0
H933 H 0.40842 0.249 0.87062 0.0
H934 H 0.3261 0.27402 0.82373 0.0
H935 H 0.35267 0.27014 0.84542 0.0
C936 C 0.01969 0.80777 0.45824 0.0
C937 C 0.02325 0.81061 0.43839 0.0
C938 C 0.01445 0.82295 0.47001 0.0
C939 C 0.01799 0.85941 0.49232 0.0
H940 H 0.98303 0.89888 0.47575 0.0
C941 C 0.0164 0.93415 0.52418 0.0
C942 C 0.99866 0.9431 0.52727 0.0
C943 C 0.01761 0.91664 0.51512 0.0
C944 C 0.99263 0.88785 0.48069 0.0
H945 H 0.0236 0.8314 0.41517 0.0
H946 H 0.01453 0.858 0.43579 0.0
H947 H 0.98781 0.87072 0.45598 0.0
H948 H 0.96824 0.94056 0.52371 0.0
H949 H 0.97033 0.90979 0.50786 0.0
H950 H 0.023 0.87663 0.51689 0.0
C951 C 0.01567 0.84401 0.44221 0.0
C952 C 0.99552 0.87185 0.46928 0.0
C953 C 0.02098 0.82882 0.43043 0.0
C954 C 0.98208 0.93392 0.52163 0.0
C955 C 0.98329 0.91643 0.51241 0.0
C956 C 0.01518 0.87545 0.50366 0.0
C957 C 0.01259 0.84126 0.46215 0.0
C958 C 0.00842 0.85759 0.47486 0.0
C959 C 1.0011 0.90774 0.50887 0.0
C960 C 0.00269 0.88995 0.49782 0.0
H961 H 0.02123 0.79386 0.46476 0.0
H962 H 0.01195 0.82038 0.48529 0.0
H963 H 0.02814 0.84873 0.49692 0.0
H964 H 0.02939 0.94082 0.52857 0.0
H965 H 0.03155 0.91036 0.51244 0.0
C966 C 0.45443 0.7767 0.65484 0.0
C967 C 0.47064 0.77226 0.66561 0.0
C968 C 0.4362 0.77658 0.66346 0.0
C969 C 0.39816 0.76611 0.68206 0.0
H970 H 0.3906 0.78487 0.73408 0.0
C971 C 0.32554 0.75983 0.72275 0.0
C972 C 0.31942 0.77477 0.73475 0.0
C973 C 0.34394 0.75951 0.71453 0.0
C974 C 0.3924 0.77973 0.71948 0.0
H975 H 0.48025 0.76398 0.69399 0.0
H976 H 0.44838 0.76348 0.70903 0.0
H977 H 0.42256 0.78411 0.71949 0.0
H978 H 0.32806 0.80117 0.7474 0.0
H979 H 0.3601 0.80077 0.73283 0.0
H980 H 0.368 0.76215 0.6818 0.0
C981 C 0.4498 0.76733 0.69391 0.0
C982 C 0.41082 0.77904 0.71118 0.0
C983 C 0.4681 0.76745 0.68524 0.0
C984 C 0.33224 0.78945 0.73822 0.0
C985 C 0.35071 0.78913 0.72997 0.0
C986 C 0.37977 0.76679 0.69034 0.0
C987 C 0.43357 0.77199 0.68315 0.0
C988 C 0.41399 0.77227 0.69231 0.0
C989 C 0.35686 0.77412 0.71801 0.0
C990 C 0.37657 0.77361 0.70917 0.0
H991 H 0.45581 0.7806 0.63972 0.0
H992 H 0.42419 0.78054 0.65471 0.0
H993 H 0.39995 0.76059 0.66761 0.0
H994 H 0.31614 0.7482 0.71981 0.0
H995 H 0.34815 0.74755 0.7057 0.0
C996 C 0.54316 0.20317 0.95116 0.0
C997 C 0.53764 0.2104 0.93318 0.0
C998 C 0.54974 0.18459 0.95288 0.0
C999 C 0.54169 0.13891 0.93427 0.0
H1000 H 0.58355 0.12471 0.96717 0.0
C1001 C 0.54301 0.06641 0.97168 0.0
C1002 C 0.54506 0.06814 0.99172 0.0
C1003 C 0.54814 0.0813 0.95923 0.0
C1004 C 0.57191 0.12839 0.9578 0.0
H1005 H 0.53505 0.20406 0.90279 0.0
H1006 H 0.54591 0.17105 0.90603 0.0
H1007 H 0.5812 0.15704 0.95461 0.0
H1008 H 0.55532 0.0862 0.01429 0.0
H1009 H 0.56386 0.11211 0.99284 0.0
H1010 H 0.53136 0.11088 0.93884 0.0
C1011 C 0.54543 0.18 0.91864 0.0
C1012 C 0.57064 0.14683 0.95057 0.0
C1013 C 0.5392 0.1988 0.91683 0.0
C1014 C 0.55343 0.08447 0.99894 0.0
C1015 C 0.55855 0.09928 0.98656 0.0
C1016 C 0.54283 0.1205 0.94169 0.0
C1017 C 0.55064 0.17275 0.93672 0.0
C1018 C 0.555 0.15246 0.93956 0.0
C1019 C 0.55546 0.09811 0.96663 0.0
C1020 C 0.55739 0.11537 0.95441 0.0
H1021 H 0.54228 0.21184 0.96396 0.0
H1022 H 0.55339 0.17923 0.96704 0.0
H1023 H 0.52946 0.14296 0.92586 0.0
H1024 H 0.53674 0.05389 0.96567 0.0
H1025 H 0.54575 0.07991 0.94393 0.0
C1026 C 0.10081 0.27239 0.15319 0.0
C1027 C 0.08234 0.27687 0.1602 0.0
C1028 C 0.1163 0.27164 0.16554 0.0
C1029 C 0.13446 0.2905 0.21046 0.0
H1030 H 0.17045 0.24856 0.20709 0.0
C1031 C 0.21162 0.29245 0.24013 0.0
C1032 C 0.21832 0.27622 0.24991 0.0
C1033 C 0.19393 0.29247 0.23107 0.0
C1034 C 0.1605 0.26033 0.20833 0.0
H1035 H 0.06584 0.28413 0.18592 0.0
H1036 H 0.09317 0.28329 0.20754 0.0
H1037 H 0.14164 0.24829 0.18796 0.0
H1038 H 0.21139 0.24731 0.25789 0.0
H1039 H 0.18076 0.24727 0.24182 0.0
H1040 H 0.15366 0.30277 0.23044 0.0
C1041 C 0.09549 0.28019 0.19239 0.0
C1042 C 0.14402 0.26022 0.19727 0.0
C1043 C 0.07982 0.28056 0.18003 0.0
C1044 C 0.2067 0.2601 0.2506 0.0
C1045 C 0.18916 0.26003 0.24127 0.0
C1046 C 0.15115 0.29076 0.22129 0.0
C1047 C 0.11393 0.27567 0.18527 0.0
C1048 C 0.13082 0.27534 0.19809 0.0
C1049 C 0.18259 0.27616 0.23124 0.0
C1050 C 0.16443 0.2757 0.22031 0.0
H1051 H 0.10334 0.26939 0.13804 0.0
H1052 H 0.13028 0.26827 0.15953 0.0
H1053 H 0.12467 0.30242 0.21133 0.0
H1054 H 0.22018 0.3051 0.23924 0.0
H1055 H 0.1894 0.30509 0.22336 0.0
C1056 C 0.10615 0.02123 0.23068 0.0
C1057 C 0.12114 0.01103 0.23912 0.0
C1058 C 0.10338 0.02041 0.21087 0.0
C1059 C 0.1098 0.98846 0.17091 0.0
H1060 H 0.09308 0.03196 0.14093 0.0
C1061 C 0.05818 0.98382 0.1085 0.0
C1062 C 0.06077 0.99571 0.0923 0.0
C1063 C 0.07008 0.98516 0.12425 0.0
C1064 C 0.09805 0.01971 0.14896 0.0
H1065 H 0.14534 0.99239 0.23332 0.0
H1066 H 0.14023 0.99074 0.19858 0.0
H1067 H 0.10637 0.03662 0.17274 0.0
H1068 H 0.07864 0.01763 0.07957 0.0
H1069 H 0.09913 0.02024 0.10732 0.0
H1070 H 0.10077 0.97151 0.14744 0.0
C1071 C 0.13072 0.9994 0.20739 0.0
C1072 C 0.10551 0.02237 0.1672 0.0
C1073 C 0.13364 0.0004 0.22723 0.0
C1074 C 0.07594 0.00856 0.09198 0.0
C1075 C 0.08777 0.00998 0.10779 0.0
C1076 C 0.10222 0.98579 0.15271 0.0
C1077 C 0.11543 0.00924 0.19909 0.0
C1078 C 0.11089 0.00674 0.17857 0.0
C1079 C 0.08478 0.99847 0.12417 0.0
C1080 C 0.09574 0.00136 0.14184 0.0
H1081 H 0.09636 0.02966 0.23941 0.0
H1082 H 0.09133 0.02794 0.20488 0.0
H1083 H 0.11377 0.97616 0.17943 0.0
H1084 H 0.04656 0.97391 0.10935 0.0
H1085 H 0.06725 0.97631 0.13682 0.0
C1086 C 0.2758 0.85477 0.46909 0.0
C1087 C 0.27019 0.87388 0.47003 0.0
C1088 C 0.28341 0.84736 0.45199 0.0
C1089 C 0.28202 0.85451 0.40008 0.0
H1090 H 0.32364 0.81794 0.39915 0.0
C1091 C 0.30247 0.81685 0.33021 0.0
C1092 C 0.30453 0.79714 0.33191 0.0
C1093 C 0.30268 0.82817 0.34654 0.0
C1094 C 0.31198 0.8281 0.3992 0.0
H1095 H 0.26847 0.90034 0.45401 0.0
H1096 H 0.28166 0.8873 0.42397 0.0
H1097 H 0.31535 0.83439 0.4291 0.0
H1098 H 0.30945 0.7738 0.35168 0.0
H1099 H 0.30928 0.79349 0.38046 0.0
H1100 H 0.278 0.84775 0.37056 0.0
C1101 C 0.2801 0.87808 0.43648 0.0
C1102 C 0.30727 0.83752 0.41631 0.0
C1103 C 0.27256 0.88552 0.45364 0.0
C1104 C 0.3079 0.78899 0.35006 0.0
C1105 C 0.30787 0.8003 0.36649 0.0
C1106 C 0.28665 0.84505 0.38304 0.0
C1107 C 0.28549 0.85889 0.43547 0.0
C1108 C 0.29201 0.85054 0.41697 0.0
C1109 C 0.30468 0.81995 0.36494 0.0
C1110 C 0.30146 0.83149 0.38248 0.0
H1111 H 0.27418 0.84546 0.48152 0.0
H1112 H 0.28717 0.83246 0.45154 0.0
H1113 H 0.27002 0.86426 0.40024 0.0
H1114 H 0.30025 0.82344 0.31625 0.0
H1115 H 0.30067 0.84331 0.34481 0.0
C1116 C 0.41845 0.0468 0.70415 0.0
C1117 C 0.43261 0.03844 0.71563 0.0
C1118 C 0.42223 0.05105 0.6847 0.0
C1119 C 0.43189 0.04688 0.64138 0.0
H1120 H 0.48203 0.06596 0.62798 0.0
C1121 C 0.47013 0.03433 0.56857 0.0
C1122 C 0.48491 0.0465 0.56295 0.0
C1123 C 0.45939 0.03797 0.58538 0.0
C1124 C 0.46776 0.06108 0.63133 0.0
H1125 H 0.46173 0.0278 0.71555 0.0
H1126 H 0.46818 0.03502 0.68175 0.0
H1127 H 0.47222 0.0634 0.66157 0.0
H1128 H 0.49864 0.07307 0.5687 0.0
H1129 H 0.47925 0.08001 0.59741 0.0
H1130 H 0.42756 0.04438 0.611 0.0
C1131 C 0.45428 0.03858 0.68784 0.0
C1132 C 0.46228 0.05933 0.65067 0.0
C1133 C 0.45052 0.03432 0.7072 0.0
C1134 C 0.48748 0.06334 0.57304 0.0
C1135 C 0.47645 0.06722 0.58951 0.0
C1136 C 0.43735 0.04873 0.62192 0.0
C1137 C 0.44024 0.04711 0.67643 0.0
C1138 C 0.4446 0.05158 0.65591 0.0
C1139 C 0.4631 0.05402 0.59654 0.0
C1140 C 0.4556 0.05531 0.6167 0.0
H1141 H 0.40448 0.05019 0.71018 0.0
H1142 H 0.41118 0.05766 0.67622 0.0
H1143 H 0.41813 0.04091 0.64505 0.0
H1144 H 0.46796 0.02124 0.56095 0.0
H1145 H 0.44929 0.02744 0.59037 0.0
C1146 C 0.26351 0.15764 0.94924 0.0
C1147 C 0.26609 0.16845 0.96589 0.0
C1148 C 0.26203 0.16646 0.93106 0.0
C1149 C 0.27766 0.20776 0.90368 0.0
H1150 H 0.23471 0.19989 0.87072 0.0
C1151 C 0.26994 0.25083 0.83273 0.0
C1152 C 0.26078 0.24263 0.8171 0.0
C1153 C 0.26994 0.24186 0.85087 0.0
C1154 C 0.24704 0.20205 0.87947 0.0
H1155 H 0.26914 0.197 0.97649 0.0
H1156 H 0.26719 0.21226 0.94474 0.0
H1157 H 0.23615 0.18356 0.90186 0.0
H1158 H 0.24465 0.21839 0.80825 0.0
H1159 H 0.24543 0.20227 0.83943 0.0
H1160 H 0.28914 0.22549 0.88127 0.0
C1161 C 0.26607 0.19701 0.94579 0.0
C1162 C 0.24775 0.19273 0.89743 0.0
C1163 C 0.2671 0.18825 0.96397 0.0
C1164 C 0.25167 0.2252 0.82005 0.0
C1165 C 0.25203 0.216 0.83807 0.0
C1166 C 0.2772 0.21674 0.88557 0.0
C1167 C 0.26356 0.18622 0.92913 0.0
C1168 C 0.26298 0.19562 0.9098 0.0
C1169 C 0.26119 0.22414 0.85384 0.0
C1170 C 0.26179 0.21421 0.87317 0.0
H1171 H 0.26266 0.14236 0.95025 0.0
H1172 H 0.26015 0.1578 0.91845 0.0
H1173 H 0.2897 0.21009 0.91283 0.0
H1174 H 0.277 0.26431 0.83099 0.0
H1175 H 0.27674 0.24899 0.86257 0.0
C1176 C 0.13094 0.99397 0.35873 0.0
C1177 C 0.12149 0.9956 0.34116 0.0
C1178 C 0.12064 0.99461 0.3762 0.0
C1179 C 0.09687 0.01085 0.4092 0.0
H1180 H 0.0473 0.9877 0.41614 0.0
C1181 C 0.04665 0.03341 0.47054 0.0
C1182 C 0.03814 0.01894 0.48164 0.0
C1183 C 0.05563 0.02936 0.45294 0.0
C1184 C 0.06118 0.99413 0.41444 0.0
H1185 H 0.09386 0.99866 0.32801 0.0
H1186 H 0.07598 1.00006 0.35842 0.0
H1187 H 0.06633 0.98142 0.38685 0.0
H1188 H 0.0314 0.98905 0.48254 0.0
H1189 H 0.0473 0.98192 0.45164 0.0
H1190 H 0.09185 0.02346 0.43675 0.0
C1191 C 0.09128 0.99805 0.35876 0.0
C1192 C 0.072 0.99065 0.39766 0.0
C1193 C 0.10155 0.99742 0.34134 0.0
C1194 C 0.03782 0.00049 0.47426 0.0
C1195 C 0.04692 0.99641 0.4566 0.0
C1196 C 0.08607 0.01433 0.42592 0.0
C1197 C 0.10072 0.99687 0.37638 0.0
C1198 C 0.08986 0.99917 0.39478 0.0
C1199 C 0.05641 0.01073 0.44609 0.0
C1200 C 0.068 0.00625 0.42859 0.0
H1201 H 0.14629 0.99244 0.35899 0.0
H1202 H 0.12828 0.99346 0.38957 0.0
H1203 H 0.11048 0.01777 0.40734 0.0
H1204 H 0.04693 0.04781 0.47575 0.0
H1205 H 0.06241 0.04076 0.44489 0.0
C1206 C 0.24458 0.87505 0.58327 0.0
C1207 C 0.24893 0.86055 0.57006 0.0
C1208 C 0.23824 0.87065 0.60202 0.0
C1209 C 0.21866 0.83216 0.63273 0.0
H1210 H 0.25084 0.85237 0.67212 0.0
C1211 C 0.23896 0.79048 0.69983 0.0
C1212 C 0.24355 0.79993 0.71679 0.0
C1213 C 0.23335 0.80069 0.68358 0.0
C1214 C 0.24129 0.84694 0.66149 0.0
H1215 H 0.24916 0.83013 0.5659 0.0
H1216 H 0.23819 0.82252 0.59855 0.0
H1217 H 0.25234 0.86568 0.63967 0.0
H1218 H 0.24448 0.82735 0.73057 0.0
H1219 H 0.23446 0.84519 0.70216 0.0
H1220 H 0.2082 0.81288 0.65437 0.0
C1221 C 0.2396 0.83727 0.5944 0.0
C1222 C 0.2422 0.85457 0.64286 0.0
C1223 C 0.24612 0.84163 0.57576 0.0
C1224 C 0.24128 0.81969 0.71759 0.0
C1225 C 0.23557 0.82991 0.70133 0.0
C1226 C 0.21764 0.82462 0.65141 0.0
C1227 C 0.23589 0.85171 0.60778 0.0
C1228 C 0.23154 0.84667 0.62814 0.0
C1229 C 0.23209 0.82056 0.68398 0.0
C1230 C 0.22962 0.83134 0.66574 0.0
H1231 H 0.24649 0.88978 0.57928 0.0
H1232 H 0.23545 0.88203 0.6121 0.0
H1233 H 0.21006 0.82605 0.62166 0.0
H1234 H 0.24049 0.77525 0.69879 0.0
H1235 H 0.23105 0.79303 0.67039 0.0
C1236 C 0.41027 0.03155 0.83569 0.0
C1237 C 0.42049 0.02856 0.81834 0.0
C1238 C 0.41636 0.02318 0.85285 0.0
C1239 C 0.45929 0.00085 0.87399 0.0
H1240 H 0.42387 0.98806 0.91576 0.0
C1241 C 0.48753 0.97283 0.94426 0.0
C1242 C 0.48409 0.98632 0.95873 0.0
C1243 C 0.47632 0.97262 0.92792 0.0
C1244 C 0.43383 0.99136 0.90407 0.0
H1245 H 0.44486 0.01419 0.8052 0.0
H1246 H 0.45486 0.99876 0.83468 0.0
H1247 H 0.41167 0.99879 0.88465 0.0
H1248 H 0.46457 0.00847 0.96854 0.0
H1249 H 0.4449 0.00783 0.94017 0.0
H1250 H 0.48139 0.99337 0.89337 0.0
C1251 C 0.44257 0.00813 0.83537 0.0
C1252 C 0.42692 0.99772 0.88635 0.0
C1253 C 0.43677 0.0169 0.81837 0.0
C1254 C 0.46773 0.99794 0.95769 0.0
C1255 C 0.45639 0.99758 0.94142 0.0
C1256 C 0.46612 0.99412 0.89147 0.0
C1257 C 0.43258 0.0113 0.8529 0.0
C1258 C 0.43961 0.00294 0.87122 0.0
C1259 C 0.46131 0.98569 0.92596 0.0
C1260 C 0.4535 0.98967 0.90677 0.0
H1261 H 0.39766 0.04052 0.83604 0.0
H1262 H 0.40852 0.0263 0.86608 0.0
H1263 H 0.46957 0.00513 0.86297 0.0
H1264 H 0.49967 0.9633 0.94492 0.0
H1265 H 0.48019 0.96316 0.91622 0.0
C1266 C 0.25299 0.19112 0.0784 0.0
C1267 C 0.26476 0.17698 0.07011 0.0
C1268 C 0.25589 0.19751 0.0971 0.0
C1269 C 0.27925 0.18685 0.14363 0.0
H1270 H 0.27268 0.24096 0.15028 0.0
C1271 C 0.2744 0.22321 0.21918 0.0
C1272 C 0.28146 0.24169 0.2207 0.0
C1273 C 0.27426 0.21408 0.20124 0.0
C1274 C 0.27484 0.22585 0.14876 0.0
H1275 H 0.28852 0.15801 0.0756 0.0
H1276 H 0.29375 0.16938 0.10847 0.0
H1277 H 0.26906 0.22734 0.11865 0.0
H1278 H 0.29486 0.26459 0.20459 0.0
H1279 H 0.29509 0.24864 0.17366 0.0
H1280 H 0.2853 0.18553 0.17389 0.0
C1281 C 0.28215 0.17543 0.10033 0.0
C1282 C 0.27247 0.21795 0.13056 0.0
C1283 C 0.27919 0.16892 0.08147 0.0
C1284 C 0.28914 0.25044 0.204 0.0
C1285 C 0.28913 0.2413 0.18615 0.0
C1286 C 0.28164 0.19479 0.16196 0.0
C1287 C 0.27075 0.19011 0.10824 0.0
C1288 C 0.2744 0.19831 0.1277 0.0
C1289 C 0.28125 0.22318 0.18436 0.0
C1290 C 0.27938 0.21444 0.16482 0.0
H1291 H 0.24151 0.19751 0.07034 0.0
H1292 H 0.24644 0.20842 0.10279 0.0
H1293 H 0.2808 0.17167 0.14204 0.0
H1294 H 0.26829 0.21605 0.23172 0.0
H1295 H 0.26796 0.2002 0.2005 0.0
C1296 C 0.19677 0.13369 0.99663 0.0
C1297 C 0.21221 0.1289 0.00837 0.0
C1298 C 0.18064 0.1223 0.99617 0.0
C1299 C 0.1615 0.0746 0.00969 0.0
H1300 H 0.11312 0.10098 0.00475 0.0
C1301 C 0.08737 0.03858 0.0207 0.0
C1302 C 0.07287 0.04402 0.008 0.0
C1303 C 0.10503 0.04771 0.02016 0.0
C1304 C 0.1265 0.09333 0.00592 0.0
H1305 H 0.22288 0.10789 0.02849 0.0
H1306 H 0.19442 0.08813 0.02811 0.0
H1307 H 0.14235 0.11895 0.00545 0.0
H1308 H 0.06591 0.06311 0.98444 0.0
H1309 H 0.0966 0.07899 0.98352 0.0
H1310 H 0.1453 0.04896 0.01063 0.0
C1311 C 0.19493 0.10065 0.01899 0.0
C1312 C 0.14338 0.10366 0.00627 0.0
C1313 C 0.21127 0.11202 0.01927 0.0
C1314 C 0.0767 0.0585 0.99442 0.0
C1315 C 0.09428 0.06773 0.994 0.0
C1316 C 0.14452 0.06425 0.00951 0.0
C1317 C 0.17922 0.10581 0.00764 0.0
C1318 C 0.1612 0.0945 0.00794 0.0
C1319 C 0.1086 0.06266 0.00704 0.0
C1320 C 0.1268 0.07348 0.00743 0.0
H1321 H 0.19706 0.14641 0.98777 0.0
H1322 H 0.16923 0.12654 0.98677 0.0
H1323 H 0.17487 0.06696 0.01083 0.0
H1324 H 0.08494 0.02754 0.0314 0.0
H1325 H 0.11565 0.0435 0.03049 0.0
C1326 C 0.71868 0.43778 0.03635 0.0
C1327 C 0.71722 0.41826 0.03313 0.0
C1328 C 0.70238 0.44866 0.04041 0.0
C1329 C 0.65256 0.44488 0.05766 0.0
H1330 H 0.64513 0.49181 0.02919 0.0
C1331 C 0.57918 0.48017 0.04908 0.0
C1332 C 0.57799 0.50002 0.04912 0.0
C1333 C 0.59685 0.47103 0.04973 0.0
C1334 C 0.64712 0.47892 0.03752 0.0
H1335 H 0.69767 0.39478 0.03174 0.0
H1336 H 0.66928 0.41377 0.03867 0.0
H1337 H 0.67506 0.47433 0.02541 0.0
H1338 H 0.5943 0.52588 0.05054 0.0
H1339 H 0.62515 0.50986 0.05187 0.0
H1340 H 0.62449 0.44928 0.06951 0.0
C1341 C 0.68299 0.42063 0.03828 0.0
C1342 C 0.66425 0.46891 0.03533 0.0
C1343 C 0.69924 0.4098 0.03415 0.0
C1344 C 0.59477 0.51055 0.05039 0.0
C1345 C 0.61244 0.5014 0.05106 0.0
C1346 C 0.63545 0.4549 0.05988 0.0
C1347 C 0.68439 0.44017 0.04142 0.0
C1348 C 0.66699 0.45163 0.04511 0.0
C1349 C 0.61367 0.48156 0.05047 0.0
C1350 C 0.63243 0.47185 0.04957 0.0
H1351 H 0.73238 0.44466 0.03571 0.0
H1352 H 0.70386 0.46368 0.04288 0.0
H1353 H 0.65443 0.43174 0.06561 0.0
H1354 H 0.56651 0.47167 0.04807 0.0
H1355 H 0.59736 0.45573 0.049 0.0
C1356 C 0.89742 0.4615 0.26967 0.0
C1357 C 0.88904 0.47965 0.26994 0.0
C1358 C 0.88635 0.4455 0.27302 0.0
C1359 C 0.84255 0.42914 0.29643 0.0
H1360 H 0.84758 0.38709 0.26104 0.0
C1361 C 0.81266 0.35368 0.31084 0.0
C1362 C 0.80341 0.34544 0.29528 0.0
C1363 C 0.82198 0.37096 0.3084 0.0
C1364 C 0.84599 0.39876 0.27099 0.0
H1365 H 0.86251 0.49527 0.27412 0.0
H1366 H 0.84318 0.46716 0.28017 0.0
H1367 H 0.86627 0.41558 0.25523 0.0
H1368 H 0.79559 0.34958 0.26536 0.0
H1369 H 0.8122 0.37933 0.26107 0.0
H1370 H 0.82234 0.41213 0.31228 0.0
C1371 C 0.85832 0.46543 0.27731 0.0
C1372 C 0.85676 0.41496 0.26774 0.0
C1373 C 0.86936 0.48146 0.2737 0.0
C1374 C 0.80305 0.35519 0.27749 0.0
C1375 C 0.81247 0.3723 0.27503 0.0
C1376 C 0.83193 0.41278 0.29983 0.0
C1377 C 0.86673 0.44733 0.27694 0.0
C1378 C 0.85512 0.4303 0.2804 0.0
C1379 C 0.82228 0.38018 0.29035 0.0
C1380 C 0.83352 0.3975 0.28707 0.0
H1381 H 0.91254 0.45962 0.2668 0.0
H1382 H 0.89318 0.43167 0.27278 0.0
H1383 H 0.84116 0.44076 0.30646 0.0
H1384 H 0.81325 0.34652 0.32469 0.0
H1385 H 0.82953 0.37677 0.32041 0.0
C1386 C 0.8237 0.6066 0.53253 0.0
C1387 C 0.82133 0.62541 0.52611 0.0
C1388 C 0.84195 0.59844 0.53376 0.0
C1389 C 0.88088 0.58095 0.52402 0.0
H1390 H 0.92388 0.61148 0.53795 0.0
C1391 C 0.95857 0.55379 0.51389 0.0
C1392 C 0.972 0.55871 0.52768 0.0
C1393 C 0.94027 0.5619 0.51425 0.0
C1394 C 0.91205 0.60263 0.53421 0.0
H1395 H 0.83641 0.65038 0.51608 0.0
H1396 H 0.868 0.63616 0.51787 0.0
H1397 H 0.89201 0.62529 0.53863 0.0
H1398 H 0.97658 0.5761 0.55271 0.0
H1399 H 0.94463 0.58997 0.55359 0.0
H1400 H 0.90086 0.55814 0.52011 0.0
C1401 C 0.85587 0.62773 0.52234 0.0
C1402 C 0.89371 0.61067 0.53435 0.0
C1403 C 0.83767 0.63589 0.5212 0.0
C1404 C 0.96666 0.57204 0.5418 0.0
C1405 C 0.9483 0.58008 0.54223 0.0
C1406 C 0.89921 0.57289 0.52397 0.0
C1407 C 0.85833 0.60883 0.52853 0.0
C1408 C 0.87784 0.60001 0.52912 0.0
C1409 C 0.93479 0.57511 0.52848 0.0
C1410 C 0.91512 0.58363 0.52894 0.0
H1411 H 0.81143 0.59812 0.53646 0.0
H1412 H 0.8432 0.58396 0.53888 0.0
H1413 H 0.86914 0.57228 0.51969 0.0
H1414 H 0.96219 0.54364 0.50274 0.0
H1415 H 0.93048 0.55793 0.50318 0.0
C1416 C 0.14326 0.07477 0.31991 0.0
C1417 C 0.15062 0.0604 0.30789 0.0
C1418 C 0.15235 0.09226 0.32065 0.0
C1419 C 0.17891 0.12486 0.29171 0.0
H1420 H 0.20499 0.14148 0.33713 0.0
C1421 C 0.2336 0.18456 0.28742 0.0
C1422 C 0.23558 0.19629 0.30341 0.0
C1423 C 0.22172 0.16887 0.2886 0.0
C1424 C 0.19746 0.13731 0.32442 0.0
H1425 H 0.1732 0.05306 0.28726 0.0
H1426 H 0.18863 0.08373 0.28825 0.0
H1427 H 0.18628 0.11255 0.33865 0.0
H1428 H 0.22627 0.20143 0.3329 0.0
H1429 H 0.20492 0.17449 0.33484 0.0
H1430 H 0.18963 0.14956 0.27743 0.0
C1431 C 0.17603 0.08133 0.29721 0.0
C1432 C 0.18683 0.12072 0.32533 0.0
C1433 C 0.16724 0.06379 0.29677 0.0
C1434 C 0.22518 0.19236 0.32049 0.0
C1435 C 0.21302 0.17689 0.32158 0.0
C1436 C 0.1892 0.14162 0.29087 0.0
C1437 C 0.16859 0.09568 0.30905 0.0
C1438 C 0.17784 0.11424 0.30887 0.0
C1439 C 0.21126 0.16483 0.30571 0.0
C1440 C 0.19897 0.14785 0.30709 0.0
H1441 H 0.13049 0.07251 0.32865 0.0
H1442 H 0.14648 0.10325 0.32989 0.0
H1443 H 0.17195 0.12005 0.27888 0.0
H1444 H 0.24164 0.18726 0.27418 0.0
H1445 H 0.22109 0.15971 0.27621 0.0
C1446 C 0.33619 0.892 0.51731 0.0
C1447 C 0.31834 0.9006 0.51459 0.0
C1448 C 0.35283 0.90251 0.51501 0.0
C1449 C 0.37021 0.9521 0.51086 0.0
H1450 H 0.41506 0.92763 0.4884 0.0
C1451 C 0.43639 0.99264 0.48275 0.0
C1452 C 0.45337 0.98682 0.49141 0.0
C1453 C 0.41997 0.98184 0.48513 0.0
C1454 C 0.40261 0.93457 0.4947 0.0
H1455 H 0.30385 0.92686 0.50719 0.0
H1456 H 0.33276 0.94495 0.50241 0.0
H1457 H 0.38611 0.90941 0.4939 0.0
H1458 H 0.46687 0.96498 0.50862 0.0
H1459 H 0.4382 0.94574 0.51236 0.0
H1460 H 0.38671 0.97742 0.51096 0.0
C1461 C 0.33403 0.9303 0.50697 0.0
C1462 C 0.38608 0.92415 0.49803 0.0
C1463 C 0.31741 0.9199 0.50963 0.0
C1464 C 0.45387 0.96975 0.50193 0.0
C1465 C 0.43757 0.95875 0.50397 0.0
C1466 C 0.38663 0.96258 0.50718 0.0
C1467 C 0.35197 0.92174 0.50957 0.0
C1468 C 0.36967 0.93276 0.50622 0.0
C1469 C 0.42044 0.96488 0.49585 0.0
C1470 C 0.40295 0.95388 0.49914 0.0
H1471 H 0.3373 0.87717 0.52127 0.0
H1472 H 0.36635 0.89552 0.51754 0.0
H1473 H 0.35803 0.95915 0.51754 0.0
H1474 H 0.4357 0.00584 0.47472 0.0
H1475 H 0.40687 0.98675 0.47869 0.0
C1476 C 0.88152 0.60201 0.25181 0.0
C1477 C 0.87269 0.5844 0.25008 0.0
C1478 C 0.87146 0.61873 0.24812 0.0
C1479 C 0.82279 0.63764 0.248 0.0
H1480 H 0.84705 0.68147 0.22443 0.0
C1481 C 0.78346 0.70899 0.2423 0.0
C1482 C 0.79367 0.72449 0.24905 0.0
C1483 C 0.79273 0.69183 0.23846 0.0
C1484 C 0.84011 0.66934 0.23104 0.0
H1485 H 0.8466 0.5704 0.24257 0.0
H1486 H 0.82901 0.59968 0.23599 0.0
H1487 H 0.86395 0.65108 0.22492 0.0
H1488 H 0.82173 0.73445 0.25621 0.0
H1489 H 0.83787 0.70443 0.24967 0.0
H1490 H 0.79917 0.65595 0.25457 0.0
C1491 C 0.84365 0.60054 0.24044 0.0
C1492 C 0.84977 0.65197 0.23134 0.0
C1493 C 0.85373 0.58379 0.24416 0.0
C1494 C 0.81346 0.72275 0.25106 0.0
C1495 C 0.82274 0.70559 0.24719 0.0
C1496 C 0.81313 0.65498 0.24766 0.0
C1497 C 0.85237 0.61819 0.24257 0.0
C1498 C 0.84136 0.63604 0.2402 0.0
C1499 C 0.81239 0.68985 0.24125 0.0
C1500 C 0.82184 0.67109 0.23953 0.0
H1501 H 0.89614 0.60294 0.25634 0.0
H1502 H 0.8785 0.63209 0.25019 0.0
H1503 H 0.81603 0.62571 0.25517 0.0
H1504 H 0.7682 0.70992 0.24048 0.0
H1505 H 0.78445 0.68 0.23365 0.0
C1506 C 0.6833 0.44674 0.79579 0.0
C1507 C 0.68449 0.46414 0.78591 0.0
C1508 C 0.69685 0.43257 0.79232 0.0
C1509 C 0.72103 0.40964 0.75652 0.0
H1510 H 0.757 0.39026 0.79369 0.0
C1511 C 0.75663 0.33771 0.74415 0.0
C1512 C 0.75777 0.32592 0.76049 0.0
C1513 C 0.7532 0.35708 0.7462 0.0
C1514 C 0.74698 0.39541 0.78317 0.0
H1515 H 0.70077 0.48056 0.76486 0.0
H1516 H 0.72417 0.45517 0.75814 0.0
H1517 H 0.73998 0.42004 0.79991 0.0
H1518 H 0.75703 0.32499 0.79173 0.0
H1519 H 0.74983 0.3585 0.79541 0.0
H1520 H 0.72632 0.38449 0.74057 0.0
C1521 C 0.71296 0.45285 0.76887 0.0
C1522 C 0.73746 0.41254 0.78667 0.0
C1523 C 0.69961 0.46725 0.77268 0.0
C1524 C 0.75626 0.33387 0.77892 0.0
C1525 C 0.75228 0.35315 0.78098 0.0
C1526 C 0.73018 0.39233 0.75321 0.0
C1527 C 0.71158 0.43546 0.77867 0.0
C1528 C 0.72418 0.41951 0.77353 0.0
C1529 C 0.7502 0.36495 0.76462 0.0
C1530 C 0.74292 0.38471 0.76673 0.0
H1531 H 0.67184 0.44405 0.80615 0.0
H1532 H 0.6955 0.41911 0.79983 0.0
H1533 H 0.71059 0.41474 0.74637 0.0
H1534 H 0.75806 0.33189 0.72978 0.0
H1535 H 0.75231 0.36575 0.73327 0.0
C1536 C 0.01713 0.84579 0.90218 0.0
C1537 C 0.01659 0.82944 0.91394 0.0
C1538 C 0.01763 0.86392 0.91036 0.0
C1539 C 0.03173 0.8883 0.95483 0.0
H1540 H 0.00149 0.93036 0.93568 0.0
C1541 C 0.02732 0.95939 0.99572 0.0
C1542 C 0.02477 0.97648 0.98544 0.0
C1543 C 0.0266 0.94188 0.98644 0.0
C1544 C 0.01032 0.91892 0.94107 0.0
H1545 H 0.01582 0.81948 0.94363 0.0
H1546 H 0.01684 0.85095 0.95784 0.0
H1547 H 0.99928 0.89935 0.92067 0.0
H1548 H 0.01973 0.98834 0.95704 0.0
H1549 H 0.01913 0.95785 0.94066 0.0
H1550 H 0.04315 0.90772 0.97489 0.0
C1551 C 0.01696 0.8498 0.94226 0.0
C1552 C 0.00895 0.90104 0.93246 0.0
C1553 C 0.01622 0.83172 0.9341 0.0
C1554 C 0.02179 0.97551 0.96545 0.0
C1555 C 0.02125 0.95793 0.95608 0.0
C1556 C 0.03327 0.90618 0.96327 0.0
C1557 C 0.01786 0.86618 0.93053 0.0
C1558 C 0.0195 0.88541 0.93935 0.0
C1559 C 0.02352 0.94077 0.96645 0.0
C1560 C 0.02245 0.9218 0.95671 0.0
H1561 H 0.01747 0.84459 0.8866 0.0
H1562 H 0.01841 0.87616 0.90085 0.0
H1563 H 0.04037 0.87674 0.9603 0.0
H1564 H 0.02942 0.95946 0.01116 0.0
H1565 H 0.02802 0.92917 0.99516 0.0
C1566 C 0.94699 0.27033 0.6618 0.0
C1567 C 0.94911 0.27967 0.64392 0.0
C1568 C 0.92894 0.26547 0.66886 0.0
C1569 C 0.87979 0.28231 0.66444 0.0
H1570 H 0.86916 0.24108 0.70032 0.0
C1571 C 0.80709 0.27391 0.70349 0.0
C1572 C 0.80789 0.27083 0.72352 0.0
C1573 C 0.82356 0.27266 0.69195 0.0
C1574 C 0.87198 0.25266 0.69032 0.0
H1575 H 0.93436 0.28962 0.61855 0.0
H1576 H 0.90283 0.28064 0.63064 0.0
H1577 H 0.8993 0.24136 0.68201 0.0
H1578 H 0.82651 0.26386 0.74719 0.0
H1579 H 0.85537 0.26178 0.72697 0.0
H1580 H 0.8526 0.29371 0.67294 0.0
C1581 C 0.91503 0.27762 0.63949 0.0
C1582 C 0.88919 0.25282 0.67985 0.0
C1583 C 0.93308 0.28267 0.63252 0.0
C1584 C 0.82548 0.26641 0.7318 0.0
C1585 C 0.84194 0.26502 0.72023 0.0
C1586 C 0.86255 0.28204 0.67478 0.0
C1587 C 0.91269 0.26968 0.65808 0.0
C1588 C 0.89346 0.26788 0.6671 0.0
C1589 C 0.84112 0.26816 0.70021 0.0
C1590 C 0.85866 0.26744 0.6881 0.0
H1591 H 0.95912 0.2678 0.67089 0.0
H1592 H 0.92767 0.25952 0.68329 0.0
H1593 H 0.88273 0.29432 0.65506 0.0
H1594 H 0.79372 0.27724 0.69667 0.0
H1595 H 0.82255 0.27504 0.67654 0.0
C1596 C 0.49973 0.21752 0.43011 0.0
C1597 C 0.51616 0.22776 0.42509 0.0
C1598 C 0.50102 0.19898 0.43731 0.0
C1599 C 0.53532 0.15828 0.44607 0.0
H1600 H 0.49515 0.14288 0.48201 0.0
C1601 C 0.53892 0.09168 0.4972 0.0
C1602 C 0.52312 0.0796 0.49686 0.0
C1603 C 0.53865 0.10925 0.48751 0.0
C1604 C 0.50643 0.14691 0.47191 0.0
H1605 H 0.5469 0.22647 0.42345 0.0
H1606 H 0.54937 0.19438 0.43692 0.0
H1607 H 0.49393 0.17415 0.46722 0.0
H1608 H 0.4946 0.07668 0.48606 0.0
H1609 H 0.49389 0.10761 0.46977 0.0
H1610 H 0.54818 0.13107 0.45182 0.0
C1611 C 0.53533 0.20035 0.43474 0.0
C1612 C 0.5057 0.16489 0.4632 0.0
C1613 C 0.53398 0.21883 0.42701 0.0
C1614 C 0.50702 0.08559 0.48663 0.0
C1615 C 0.50659 0.10334 0.47733 0.0
C1616 C 0.53625 0.1404 0.45517 0.0
C1617 C 0.51884 0.19019 0.44037 0.0
C1618 C 0.52 0.17089 0.44991 0.0
C1619 C 0.52241 0.11538 0.47762 0.0
C1620 C 0.52171 0.13445 0.46807 0.0
H1621 H 0.48577 0.22398 0.42866 0.0
H1622 H 0.48788 0.19167 0.44065 0.0
H1623 H 0.54654 0.16202 0.43582 0.0
H1624 H 0.55159 0.0875 0.50486 0.0
H1625 H 0.55101 0.11823 0.4881 0.0
C1626 C 0.55174 0.79273 0.16487 0.0
C1627 C 0.55472 0.80541 0.14934 0.0
C1628 C 0.56664 0.78769 0.17692 0.0
C1629 C 0.61438 0.80178 0.19209 0.0
H1630 H 0.62118 0.74814 0.20277 0.0
C1631 C 0.68444 0.77123 0.22035 0.0
C1632 C 0.68355 0.75717 0.23482 0.0
C1633 C 0.66803 0.77727 0.2111 0.0
C1634 C 0.61932 0.76318 0.20017 0.0
H1635 H 0.57559 0.8233 0.13479 0.0
H1636 H 0.60162 0.81443 0.15583 0.0
H1637 H 0.59358 0.7591 0.18492 0.0
H1638 H 0.66478 0.73823 0.25075 0.0
H1639 H 0.63593 0.74881 0.23451 0.0
H1640 H 0.64022 0.80585 0.20716 0.0
C1641 C 0.58769 0.80847 0.1587 0.0
C1642 C 0.60352 0.76946 0.18995 0.0
C1643 C 0.57279 0.81349 0.14659 0.0
C1644 C 0.66591 0.74898 0.23956 0.0
C1645 C 0.64942 0.75506 0.23029 0.0
C1646 C 0.63015 0.7955 0.20234 0.0
C1647 C 0.58484 0.79527 0.17378 0.0
C1648 C 0.601 0.7888 0.18562 0.0
C1649 C 0.65031 0.7694 0.21608 0.0
C1650 C 0.63293 0.77612 0.20626 0.0
H1651 H 0.53798 0.78631 0.16751 0.0
H1652 H 0.56395 0.77771 0.18861 0.0
H1653 H 0.61265 0.81679 0.18923 0.0
H1654 H 0.69788 0.77751 0.21604 0.0
H1655 H 0.66927 0.78801 0.19989 0.0
C1656 C 0.0028 0.25285 0.58888 0.0
C1657 C 0.01683 0.26681 0.5875 0.0
C1658 C 0.00595 0.23517 0.58063 0.0
C1659 C 0.038 0.20792 0.54736 0.0
H1660 H 0.01996 0.16575 0.57877 0.0
C1661 C 0.06082 0.12892 0.53764 0.0
C1662 C 0.04575 0.11597 0.53795 0.0
C1663 C 0.0574 0.148 0.54179 0.0
C1664 C 0.02496 0.17741 0.5698 0.0
H1665 H 0.04489 0.27352 0.57586 0.0
H1666 H 0.05072 0.24233 0.562 0.0
H1667 H 0.0136 0.19791 0.58936 0.0
H1668 H 0.01508 0.11327 0.54168 0.0
H1669 H 0.00933 0.14627 0.54947 0.0
H1670 H 0.04991 0.18704 0.52814 0.0
C1671 C 0.0371 0.24516 0.56907 0.0
C1672 C 0.02122 0.19584 0.57577 0.0
C1673 C 0.0338 0.26301 0.57707 0.0
C1674 C 0.02714 0.12264 0.54189 0.0
C1675 C 0.02378 0.14159 0.54621 0.0
C1676 C 0.04196 0.18938 0.5415 0.0
C1677 C 0.02337 0.2309 0.57115 0.0
C1678 C 0.02751 0.21134 0.56455 0.0
C1679 C 0.03889 0.15436 0.54646 0.0
C1680 C 0.0353 0.17402 0.55262 0.0
H1681 H 0.98947 0.25551 0.5966 0.0
H1682 H 0.99484 0.22471 0.58202 0.0
H1683 H 0.04293 0.21953 0.53831 0.0
H1684 H 0.07532 0.12426 0.53475 0.0
H1685 H 0.06928 0.15763 0.542 0.0
C1686 C 0.57449 0.26517 0.35093 0.0
C1687 C 0.57264 0.27315 0.36942 0.0
C1688 C 0.59237 0.26382 0.3415 0.0
C1689 C 0.64016 0.2855 0.3404 0.0
H1690 H 0.65604 0.24036 0.31282 0.0
C1691 C 0.71693 0.27748 0.30892 0.0
C1692 C 0.71983 0.26771 0.29148 0.0
C1693 C 0.69907 0.27763 0.3184 0.0
C1694 C 0.6518 0.25322 0.32018 0.0
H1695 H 0.58831 0.28581 0.3925 0.0
H1696 H 0.61934 0.28357 0.37607 0.0
H1697 H 0.62486 0.24152 0.32906 0.0
H1698 H 0.70601 0.25041 0.2704 0.0
H1699 H 0.6748 0.2511 0.28657 0.0
H1700 H 0.66677 0.29743 0.33129 0.0
C1701 C 0.60697 0.27841 0.36879 0.0
C1702 C 0.63387 0.25384 0.32958 0.0
C1703 C 0.58916 0.27957 0.37829 0.0
C1704 C 0.70435 0.25803 0.28384 0.0
C1705 C 0.68642 0.25833 0.29323 0.0
C1706 C 0.65798 0.28496 0.33086 0.0
C1707 C 0.60884 0.27063 0.35021 0.0
C1708 C 0.62784 0.26995 0.33992 0.0
C1709 C 0.68344 0.26819 0.31067 0.0
C1710 C 0.66419 0.26877 0.32067 0.0
H1711 H 0.56208 0.26011 0.34364 0.0
H1712 H 0.59323 0.25786 0.32716 0.0
H1713 H 0.6359 0.29827 0.34793 0.0
H1714 H 0.72852 0.28498 0.31534 0.0
H1715 H 0.69763 0.28505 0.33196 0.0
C1716 C 0.48959 0.86252 0.14223 0.0
C1717 C 0.49158 0.85149 0.12551 0.0
C1718 C 0.48628 0.88205 0.14068 0.0
C1719 C 0.46651 0.91788 0.10904 0.0
H1720 H 0.50927 0.9501 0.11957 0.0
C1721 C 0.48986 0.9764 0.05856 0.0
C1722 C 0.49912 0.99242 0.06534 0.0
C1723 C 0.48358 0.96242 0.07142 0.0
C1724 C 0.49687 0.94156 0.11707 0.0
H1725 H 0.49147 0.852 0.0942 0.0
H1726 H 0.48533 0.88584 0.09157 0.0
H1727 H 0.50816 0.91821 0.13334 0.0
H1728 H 0.50811 0.00694 0.09101 0.0
H1729 H 0.49717 0.98233 0.11352 0.0
H1730 H 0.45574 0.94068 0.09181 0.0
C1731 C 0.48637 0.87946 0.1058 0.0
C1732 C 0.49628 0.92331 0.12497 0.0
C1733 C 0.49008 0.86017 0.10732 0.0
C1734 C 0.50114 0.99465 0.08534 0.0
C1735 C 0.49489 0.9806 0.09824 0.0
C1736 C 0.46699 0.93614 0.10131 0.0
C1737 C 0.48441 0.89053 0.12242 0.0
C1738 C 0.48167 0.91105 0.12003 0.0
C1739 C 0.48641 0.96415 0.09135 0.0
C1740 C 0.4828 0.94769 0.10424 0.0
H1741 H 0.49071 0.85609 0.15642 0.0
H1742 H 0.48503 0.89048 0.15363 0.0
H1743 H 0.45507 0.90858 0.10518 0.0
H1744 H 0.48799 0.97433 0.04325 0.0
H1745 H 0.47742 0.94977 0.06558 0.0
C1746 C 0.96224 0.78197 0.85887 0.0
C1747 C 0.96074 0.77859 0.8789 0.0
C1748 C 0.94624 0.78031 0.84715 0.0
C1749 C 0.90005 0.75662 0.84429 0.0
H1750 H 0.88481 0.79825 0.81108 0.0
C1751 C 0.82599 0.75804 0.80892 0.0
C1752 C 0.82346 0.768 0.79148 0.0
C1753 C 0.84338 0.75862 0.81847 0.0
C1754 C 0.88895 0.78625 0.81991 0.0
H1755 H 0.94124 0.77037 0.90215 0.0
H1756 H 0.91369 0.76697 0.88172 0.0
H1757 H 0.9141 0.80033 0.82913 0.0
H1758 H 0.83753 0.78592 0.77014 0.0
H1759 H 0.86805 0.78613 0.78612 0.0
H1760 H 0.87541 0.74219 0.83486 0.0
C1761 C 0.92714 0.77113 0.87509 0.0
C1762 C 0.90578 0.78754 0.83037 0.0
C1763 C 0.94295 0.7732 0.88682 0.0
C1764 C 0.83896 0.77811 0.78357 0.0
C1765 C 0.85647 0.77839 0.79293 0.0
C1766 C 0.88345 0.75513 0.83356 0.0
C1767 C 0.92852 0.77475 0.85514 0.0
C1768 C 0.91139 0.77286 0.84291 0.0
C1769 C 0.85894 0.76889 0.81073 0.0
C1770 C 0.87739 0.77004 0.82138 0.0
H1771 H 0.97569 0.78617 0.85228 0.0
H1772 H 0.94777 0.78314 0.83181 0.0
H1773 H 0.9041 0.74495 0.85366 0.0
H1774 H 0.8143 0.75032 0.81559 0.0
H1775 H 0.84432 0.7514 0.83226 0.0
C1776 C 0.87061 0.06031 0.83489 0.0
C1777 C 0.8805 0.0471 0.82336 0.0
C1778 C 0.87406 0.06111 0.85467 0.0
C1779 C 0.89712 0.03677 0.8954 0.0
H1780 H 0.92449 0.08357 0.90175 0.0
C1781 C 0.96536 0.03911 0.93742 0.0
C1782 C 0.97059 0.05558 0.94699 0.0
C1783 C 0.94887 0.03886 0.92665 0.0
C1784 C 0.91651 0.07062 0.90065 0.0
H1785 H 0.90026 0.02341 0.82327 0.0
H1786 H 0.90573 0.02427 0.8578 0.0
H1787 H 0.90228 0.08082 0.87558 0.0
H1788 H 0.9625 0.08456 0.95331 0.0
H1789 H 0.93346 0.08416 0.93455 0.0
H1790 H 0.91191 0.02625 0.91996 0.0
C1791 C 0.89548 0.03409 0.85172 0.0
C1792 C 0.90372 0.06909 0.88565 0.0
C1793 C 0.89247 0.03366 0.83196 0.0
C1794 C 0.95894 0.0718 0.94573 0.0
C1795 C 0.94228 0.07151 0.9351 0.0
C1796 C 0.90969 0.03839 0.91058 0.0
C1797 C 0.88699 0.04835 0.86308 0.0
C1798 C 0.89477 0.05181 0.88229 0.0
C1799 C 0.93708 0.05503 0.92538 0.0
C1800 C 0.92038 0.05495 0.91265 0.0
H1801 H 0.86145 0.07091 0.82838 0.0
H1802 H 0.8675 0.07231 0.86317 0.0
H1803 H 0.89026 0.02335 0.8931 0.0
H1804 H 0.9742 0.02648 0.93808 0.0
H1805 H 0.94567 0.02609 0.91891 0.0
C1806 C 0.78278 0.19555 0.54119 0.0
C1807 C 0.77678 0.20249 0.52323 0.0
C1808 C 0.77928 0.20593 0.55792 0.0
C1809 C 0.74594 0.24146 0.57748 0.0
H1810 H 0.78012 0.23969 0.62062 0.0
C1811 C 0.73038 0.27508 0.65309 0.0
C1812 C 0.73424 0.26279 0.66864 0.0
C1813 C 0.73559 0.26995 0.63422 0.0
C1814 C 0.77046 0.2403 0.60866 0.0
H1815 H 0.76338 0.22635 0.50866 0.0
H1816 H 0.75753 0.24455 0.53791 0.0
H1817 H 0.79095 0.22768 0.58934 0.0
H1818 H 0.74514 0.23499 0.67648 0.0
H1819 H 0.7544 0.22621 0.64373 0.0
H1820 H 0.72539 0.25392 0.59705 0.0
C1821 C 0.7646 0.2309 0.53904 0.0
C1822 C 0.77663 0.23342 0.59079 0.0
C1823 C 0.76805 0.22048 0.52227 0.0
C1824 C 0.74245 0.24495 0.66486 0.0
C1825 C 0.74776 0.23993 0.64614 0.0
C1826 C 0.73981 0.2485 0.59537 0.0
C1827 C 0.76981 0.22354 0.55708 0.0
C1828 C 0.76425 0.2334 0.57516 0.0
C1829 C 0.74481 0.25254 0.63073 0.0
C1830 C 0.75185 0.24744 0.61122 0.0
H1831 H 0.78955 0.18176 0.54249 0.0
H1832 H 0.78328 0.19974 0.57163 0.0
H1833 H 0.736 0.2415 0.56576 0.0
H1834 H 0.72415 0.28894 0.65558 0.0
H1835 H 0.73311 0.27986 0.62249 0.0
C1836 C 0.65412 0.99606 0.36218 0.0
C1837 C 0.64408 0.00904 0.35067 0.0
C1838 C 0.65099 0.99568 0.38217 0.0
C1839 C 0.62345 0.98914 0.41701 0.0
H1840 H 0.61832 0.03371 0.449 0.0
C1841 C 0.56225 0.00274 0.47098 0.0
C1842 C 0.56605 0.01191 0.48832 0.0
C1843 C 0.57694 0.99923 0.45754 0.0
C1844 C 0.62003 0.02102 0.44046 0.0
H1845 H 0.62427 0.03274 0.35081 0.0
H1846 H 0.61922 0.03246 0.38572 0.0
H1847 H 0.63696 0.0353 0.41886 0.0
H1848 H 0.58833 0.02372 0.50567 0.0
H1849 H 0.61383 0.01787 0.48199 0.0
H1850 H 0.60526 0.97529 0.43786 0.0
C1851 C 0.62931 0.02247 0.37938 0.0
C1852 C 0.63065 0.02197 0.42325 0.0
C1853 C 0.63206 0.02255 0.35943 0.0
C1854 C 0.58492 0.01672 0.49236 0.0
C1855 C 0.59954 0.01338 0.47886 0.0
C1856 C 0.6126 0.98827 0.43411 0.0
C1857 C 0.63822 0.00863 0.39082 0.0
C1858 C 0.63179 0.00626 0.41105 0.0
C1859 C 0.59561 0.00498 0.46118 0.0
C1860 C 0.61022 0.00442 0.44557 0.0
H1861 H 0.66341 0.98547 0.35565 0.0
H1862 H 0.65792 0.98485 0.39078 0.0
H1863 H 0.62401 0.9769 0.40771 0.0
H1864 H 0.54788 0.99879 0.46753 0.0
H1865 H 0.57351 0.99294 0.44387 0.0
C1866 C 0.79166 0.86487 0.07637 0.0
C1867 C 0.77537 0.87151 0.06698 0.0
C1868 C 0.79038 0.85723 0.09502 0.0
C1869 C 0.75757 0.85041 0.13809 0.0
H1870 H 0.79301 0.80929 0.14857 0.0
C1871 C 0.75149 0.7991 0.20468 0.0
C1872 C 0.76829 0.79639 0.21511 0.0
C1873 C 0.75179 0.80897 0.18701 0.0
C1874 C 0.78309 0.82082 0.14592 0.0
H1875 H 0.74493 0.87584 0.06995 0.0
H1876 H 0.7424 0.86174 0.10238 0.0
H1877 H 0.79423 0.82525 0.11738 0.0
H1878 H 0.79859 0.80187 0.21501 0.0
H1879 H 0.7992 0.81856 0.1839 0.0
H1880 H 0.74603 0.84518 0.16663 0.0
C1881 C 0.75635 0.86286 0.09555 0.0
C1882 C 0.78384 0.83015 0.12802 0.0
C1883 C 0.75774 0.87096 0.07693 0.0
C1884 C 0.78541 0.80366 0.20735 0.0
C1885 C 0.78577 0.81319 0.18952 0.0
C1886 C 0.7566 0.84079 0.15593 0.0
C1887 C 0.77263 0.85546 0.10471 0.0
C1888 C 0.77128 0.84529 0.12385 0.0
C1889 C 0.76896 0.81603 0.17917 0.0
C1890 C 0.7695 0.82602 0.1601 0.0
H1891 H 0.80548 0.86531 0.06911 0.0
H1892 H 0.80338 0.85244 0.10168 0.0
H1893 H 0.74775 0.86205 0.13564 0.0
H1894 H 0.73803 0.7938 0.2103 0.0
H1895 H 0.73864 0.81083 0.17931 0.0
C1896 C 0.95613 0.05145 0.7378 0.0
C1897 C 0.93627 0.05343 0.73627 0.0
C1898 C 0.968 0.05297 0.72147 0.0
C1899 C 0.98545 0.04032 0.68335 0.0
H1900 H 0.97728 0.07555 0.64099 0.0
C1901 C 0.00521 0.02368 0.60471 0.0
C1902 C 0.01301 0.03808 0.59299 0.0
C1903 C 0.99906 0.02752 0.62354 0.0
C1904 C 0.97994 0.0658 0.65281 0.0
H1905 H 0.91344 0.05972 0.71651 0.0
H1906 H 0.93418 0.06218 0.68799 0.0
H1907 H 0.96026 0.08024 0.67176 0.0
H1908 H 0.02095 0.06768 0.59191 0.0
H1909 H 0.00998 0.0744 0.6249 0.0
H1910 H 0.0047 0.02558 0.66426 0.0
C1911 C 0.94055 0.05954 0.70187 0.0
C1912 C 0.97008 0.06839 0.67033 0.0
C1913 C 0.92865 0.05798 0.7182 0.0
C1914 C 0.015 0.05629 0.60063 0.0
C1915 C 0.00866 0.06017 0.61944 0.0
C1916 C 0.9952 0.03767 0.66582 0.0
C1917 C 0.96028 0.05657 0.70328 0.0
C1918 C 0.97245 0.05543 0.68562 0.0
C1919 C 1.00045 0.04586 0.63097 0.0
C1920 C 0.99219 0.05013 0.65026 0.0
H1921 H 0.96253 0.04814 0.75152 0.0
H1922 H 0.98319 0.05087 0.72299 0.0
H1923 H 0.98744 0.03 0.69482 0.0
H1924 H 0.00352 0.0095 0.59923 0.0
H1925 H 0.99257 0.01627 0.63205 0.0
C1926 C 0.77776 0.16156 0.42598 0.0
C1927 C 0.79157 0.15069 0.43541 0.0
C1928 C 0.77887 0.16407 0.40605 0.0
C1929 C 0.81411 0.17242 0.37045 0.0
H1930 H 0.77121 0.1743 0.33623 0.0
C1931 C 0.78755 0.20966 0.29487 0.0
C1932 C 0.79069 0.22867 0.29961 0.0
C1933 C 0.79145 0.19518 0.30805 0.0
C1934 C 0.7835 0.17352 0.34537 0.0
H1935 H 0.81681 0.13311 0.43168 0.0
H1936 H 0.81926 0.13824 0.39655 0.0
H1937 H 0.76926 0.15529 0.36579 0.0
H1938 H 0.80155 0.24733 0.32134 0.0
H1939 H 0.80834 0.22196 0.34446 0.0
H1940 H 0.82775 0.19188 0.3508 0.0
C1941 C 0.80737 0.1444 0.4046 0.0
C1942 C 0.78235 0.16267 0.36226 0.0
C1943 C 0.80595 0.14146 0.42458 0.0
C1944 C 0.79889 0.23283 0.31733 0.0
C1945 C 0.80292 0.2183 0.33048 0.0
C1946 C 0.81517 0.18348 0.35366 0.0
C1947 C 0.79407 0.15611 0.39531 0.0
C1948 C 0.79733 0.16267 0.37529 0.0
C1949 C 0.79873 0.19942 0.32615 0.0
C1950 C 0.79956 0.18471 0.34141 0.0
H1951 H 0.76653 0.16875 0.4341 0.0
H1952 H 0.76857 0.17334 0.39923 0.0
H1953 H 0.82577 0.17276 0.3804 0.0
H1954 H 0.78141 0.20594 0.28124 0.0
H1955 H 0.7882 0.18073 0.30434 0.0
C1956 C 0.581 0.03317 0.25896 0.0
C1957 C 0.59838 0.02311 0.25937 0.0
C1958 C 0.57254 0.03755 0.24141 0.0
C1959 C 0.58581 0.04577 0.19087 0.0
H1960 H 0.53179 0.04171 0.18159 0.0
C1961 C 0.5529 0.07376 0.12074 0.0
C1962 C 0.54171 0.06045 0.11144 0.0
C1963 C 0.55815 0.07073 0.13987 0.0
C1964 C 0.54689 0.04297 0.18404 0.0
H1965 H 0.61989 0.00877 0.24166 0.0
H1966 H 0.60505 0.01638 0.21111 0.0
H1967 H 0.54429 0.03161 0.21275 0.0
H1968 H 0.52617 0.03428 0.11508 0.0
H1969 H 0.5354 0.02892 0.14835 0.0
H1970 H 0.58853 0.05677 0.16209 0.0
C1971 C 0.59817 0.02112 0.22438 0.0
C1972 C 0.55401 0.03726 0.20185 0.0
C1973 C 0.60658 0.01665 0.24191 0.0
C1974 C 0.53509 0.04458 0.12183 0.0
C1975 C 0.54018 0.04164 0.14094 0.0
C1976 C 0.57869 0.05158 0.17313 0.0
C1977 C 0.58135 0.03202 0.22395 0.0
C1978 C 0.57358 0.03837 0.20531 0.0
C1979 C 0.55208 0.05446 0.15001 0.0
C1980 C 0.5592 0.05003 0.16947 0.0
H1981 H 0.57423 0.03829 0.27214 0.0
H1982 H 0.55957 0.04598 0.24148 0.0
H1983 H 0.60093 0.04706 0.19328 0.0
H1984 H 0.55816 0.08608 0.11299 0.0
H1985 H 0.56722 0.08091 0.14662 0.0
C1986 C 0.76964 0.89427 0.94601 0.0
C1987 C 0.77103 0.88317 0.96291 0.0
C1988 C 0.76877 0.88572 0.92782 0.0
C1989 C 0.75446 0.84124 0.90518 0.0
H1990 H 0.78483 0.8578 0.86091 0.0
C1991 C 0.75953 0.79695 0.83553 0.0
C1992 C 0.7622 0.80605 0.81754 0.0
C1993 C 0.75989 0.80717 0.85274 0.0
C1994 C 0.77595 0.85315 0.87298 0.0
H1995 H 0.77297 0.85436 0.97381 0.0
H1996 H 0.77123 0.83954 0.94228 0.0
H1997 H 0.78722 0.87423 0.89162 0.0
H1998 H 0.76694 0.83326 0.80365 0.0
H1999 H 0.76689 0.85122 0.8336 0.0
H2000 H 0.74284 0.82047 0.88672 0.0
C2001 C 0.77076 0.85484 0.94304 0.0
C2002 C 0.77742 0.86256 0.89065 0.0
C2003 C 0.77189 0.86337 0.96113 0.0
C2004 C 0.76482 0.82577 0.81723 0.0
C2005 C 0.76499 0.83605 0.83448 0.0
C2006 C 0.7528 0.832 0.88751 0.0
C2007 C 0.76898 0.86587 0.92616 0.0
C2008 C 0.76689 0.85654 0.90705 0.0
C2009 C 0.76273 0.82688 0.85256 0.0
C2010 C 0.76372 0.8376 0.87115 0.0
H2011 H 0.76893 0.90956 0.94686 0.0
H2012 H 0.76736 0.89462 0.91511 0.0
H2013 H 0.74587 0.83645 0.91742 0.0
H2014 H 0.75769 0.78177 0.83641 0.0
H2015 H 0.75847 0.7994 0.86623 0.0
C2016 C 0.84594 0.91117 0.01743 0.0
C2017 C 0.82834 0.91903 0.01207 0.0
C2018 C 0.86192 0.92252 0.01944 0.0
C2019 C 0.87772 0.97308 0.02281 0.0
H2020 H 0.92707 0.94991 0.01201 0.0
C2021 C 0.95025 0.01323 0.01386 0.0
C2022 C 0.96551 0.00556 0.02432 0.0
C2023 C 0.93272 0.00391 0.01344 0.0
C2024 C 0.9134 0.95655 0.0152 0.0
H2025 H 0.81379 0.9452 0.00473 0.0
H2026 H 0.84198 0.96505 0.00726 0.0
H2027 H 0.89839 0.93163 0.00802 0.0
H2028 H 0.97414 0.9822 0.04279 0.0
H2029 H 0.94373 0.96575 0.04164 0.0
H2030 H 0.89314 0.99836 0.02907 0.0
C2031 C 0.84334 0.95008 0.01048 0.0
C2032 C 0.89684 0.94602 0.01306 0.0
C2033 C 0.82713 0.93869 0.00888 0.0
C2034 C 0.96267 0.98859 0.03472 0.0
C2035 C 0.94529 0.97909 0.03396 0.0
C2036 C 0.89435 0.98376 0.02455 0.0
C2037 C 0.86107 0.94214 0.01568 0.0
C2038 C 0.87868 0.95396 0.01712 0.0
C2039 C 0.9302 0.9865 0.02312 0.0
C2040 C 0.91238 0.97551 0.02102 0.0
H2041 H 0.84734 0.89614 0.02039 0.0
H2042 H 0.87494 0.91578 0.02414 0.0
H2043 H 0.86416 0.97977 0.02631 0.0
H2044 H 0.95198 0.02623 0.00562 0.0
H2045 H 0.92139 0.00991 0.00489 0.0
C2046 C 0.33483 0.60512 0.02256 0.0
C2047 C 0.33335 0.62455 0.01835 0.0
C2048 C 0.3523 0.59715 0.02774 0.0
C2049 C 0.39036 0.58441 0.04393 0.0
H2050 H 0.4323 0.60196 0.01129 0.0
C2051 C 0.4609 0.5426 0.03488 0.0
C2052 C 0.47784 0.553 0.03467 0.0
C2053 C 0.44327 0.55188 0.03446 0.0
C2054 C 0.42082 0.59707 0.02071 0.0
H2055 H 0.34847 0.65116 0.01785 0.0
H2056 H 0.37882 0.63732 0.02725 0.0
H2057 H 0.40135 0.61752 0.00938 0.0
H2058 H 0.48959 0.58129 0.0338 0.0
H2059 H 0.4588 0.59747 0.03311 0.0
H2060 H 0.40987 0.5637 0.05497 0.0
C2061 C 0.36665 0.62815 0.02606 0.0
C2062 C 0.40309 0.60602 0.01967 0.0
C2063 C 0.34924 0.63609 0.0208 0.0
C2064 C 0.4768 0.57286 0.03387 0.0
C2065 C 0.45917 0.58214 0.03343 0.0
C2066 C 0.40814 0.57543 0.04496 0.0
C2067 C 0.36854 0.6085 0.02887 0.0
C2068 C 0.38763 0.59973 0.03117 0.0
C2069 C 0.44222 0.57175 0.03381 0.0
C2070 C 0.42351 0.58159 0.03325 0.0
H2071 H 0.32281 0.59588 0.0208 0.0
H2072 H 0.3533 0.58195 0.02974 0.0
H2073 H 0.37876 0.57935 0.05309 0.0
H2074 H 0.46122 0.52728 0.03551 0.0
H2075 H 0.43045 0.54349 0.03447 0.0
C2076 C 0.1913 0.55059 0.78137 0.0
C2077 C 0.18003 0.55362 0.79813 0.0
C2078 C 0.20438 0.56412 0.77508 0.0
C2079 C 0.23205 0.605 0.78815 0.0
H2080 H 0.21767 0.62597 0.73856 0.0
C2081 C 0.2509 0.68044 0.76518 0.0
C2082 C 0.25276 0.68536 0.7455 0.0
C2083 C 0.24596 0.66217 0.77085 0.0
C2084 C 0.22233 0.62006 0.75216 0.0
H2085 H 0.17466 0.57249 0.8222 0.0
H2086 H 0.19792 0.59603 0.81129 0.0
H2087 H 0.20262 0.59728 0.75065 0.0
H2088 H 0.25185 0.67435 0.71641 0.0
H2089 H 0.24412 0.64221 0.72635 0.0
H2090 H 0.25184 0.62762 0.78973 0.0
C2091 C 0.1964 0.58322 0.80303 0.0
C2092 C 0.21359 0.60367 0.75911 0.0
C2093 C 0.18305 0.56983 0.80918 0.0
C2094 C 0.25049 0.67118 0.73167 0.0
C2095 C 0.24585 0.65275 0.73739 0.0
C2096 C 0.24111 0.62119 0.78103 0.0
C2097 C 0.20669 0.58071 0.78562 0.0
C2098 C 0.21801 0.59634 0.77737 0.0
C2099 C 0.24313 0.64812 0.75705 0.0
C2100 C 0.2359 0.62928 0.76322 0.0
H2101 H 0.18935 0.53824 0.77252 0.0
H2102 H 0.21224 0.56193 0.76163 0.0
H2103 H 0.23574 0.59943 0.80222 0.0
H2104 H 0.25303 0.69067 0.77639 0.0
H2105 H 0.24375 0.65932 0.78611 0.0
C2106 C 0.2034 0.41935 0.51572 0.0
C2107 C 0.2202 0.42787 0.52183 0.0
C2108 C 0.18587 0.42893 0.51716 0.0
C2109 C 0.16013 0.46792 0.54215 0.0
H2110 H 0.1275 0.46676 0.49784 0.0
C2111 C 0.0908 0.51361 0.53803 0.0
C2112 C 0.07522 0.5061 0.52839 0.0
C2113 C 0.10855 0.50427 0.53765 0.0
C2114 C 0.13622 0.46704 0.51051 0.0
H2115 H 0.23159 0.45306 0.5347 0.0
H2116 H 0.2009 0.46971 0.53745 0.0
H2117 H 0.1579 0.44995 0.49685 0.0
H2118 H 0.06609 0.48256 0.51116 0.0
H2119 H 0.09664 0.46608 0.51097 0.0
H2120 H 0.13833 0.48472 0.55599 0.0
C2121 C 0.20133 0.45559 0.53151 0.0
C2122 C 0.15376 0.45741 0.50989 0.0
C2123 C 0.21894 0.44606 0.52987 0.0
C2124 C 0.07779 0.48888 0.5186 0.0
C2125 C 0.09544 0.47947 0.51838 0.0
C2126 C 0.14247 0.47742 0.54286 0.0
C2127 C 0.18459 0.44724 0.52493 0.0
C2128 C 0.16595 0.45767 0.5257 0.0
C2129 C 0.11118 0.48706 0.52776 0.0
C2130 C 0.13019 0.4771 0.52706 0.0
H2131 H 0.20382 0.40537 0.50945 0.0
H2132 H 0.17325 0.42197 0.51218 0.0
H2133 H 0.16908 0.46829 0.55466 0.0
H2134 H 0.08936 0.52687 0.54567 0.0
H2135 H 0.12029 0.51077 0.54485 0.0
C2136 C 0.86959 0.98594 0.75913 0.0
C2137 C 0.88413 0.98774 0.77258 0.0
C2138 C 0.86275 0.96818 0.75446 0.0
C2139 C 0.85808 0.92004 0.77346 0.0
H2140 H 0.84592 0.90844 0.72055 0.0
C2141 C 0.82675 0.8484 0.75318 0.0
C2142 C 0.81097 0.84924 0.74108 0.0
C2143 C 0.83792 0.86432 0.75576 0.0
C2144 C 0.84917 0.91152 0.73539 0.0
H2145 H 0.90295 0.9722 0.79162 0.0
H2146 H 0.89092 0.94107 0.78342 0.0
H2147 H 0.86151 0.93817 0.72771 0.0
H2148 H 0.79482 0.86724 0.72181 0.0
H2149 H 0.81426 0.89516 0.72638 0.0
H2150 H 0.84537 0.89363 0.78123 0.0
C2151 C 0.8848 0.9535 0.77659 0.0
C2152 C 0.85809 0.92851 0.73949 0.0
C2153 C 0.89171 0.97132 0.78124 0.0
C2154 C 0.80697 0.86614 0.73109 0.0
C2155 C 0.81813 0.88211 0.7337 0.0
C2156 C 0.84914 0.90307 0.76937 0.0
C2157 C 0.87026 0.95178 0.76315 0.0
C2158 C 0.86236 0.93306 0.75859 0.0
C2159 C 0.83353 0.88143 0.7463 0.0
C2160 C 0.84434 0.89876 0.75033 0.0
H2161 H 0.86339 0.99826 0.75216 0.0
H2162 H 0.85132 0.96732 0.74429 0.0
H2163 H 0.86099 0.92328 0.78834 0.0
H2164 H 0.83044 0.83543 0.76073 0.0
H2165 H 0.84992 0.86327 0.76527 0.0
C2166 C 0.71379 0.14 0.4827 0.0
C2167 C 0.73222 0.13573 0.48905 0.0
C2168 C 0.6981 0.13039 0.49044 0.0
C2169 C 0.68256 0.10412 0.53391 0.0
H2170 H 0.64005 0.09088 0.5022 0.0
C2171 C 0.61558 0.0626 0.56101 0.0
C2172 C 0.59821 0.06896 0.55356 0.0
C2173 C 0.63269 0.07067 0.55446 0.0
C2174 C 0.65176 0.09465 0.51126 0.0
H2175 H 0.74864 0.11739 0.50794 0.0
H2176 H 0.72121 0.10052 0.52122 0.0
H2177 H 0.66872 0.10381 0.48701 0.0
H2178 H 0.58479 0.08967 0.53492 0.0
H2179 H 0.61449 0.1039 0.52369 0.0
H2180 H 0.66543 0.09494 0.55818 0.0
C2181 C 0.71893 0.11153 0.51051 0.0
C2182 C 0.66817 0.10203 0.50256 0.0
C2183 C 0.73464 0.12113 0.50278 0.0
C2184 C 0.59807 0.08434 0.5406 0.0
C2185 C 0.61504 0.09239 0.53411 0.0
C2186 C 0.66611 0.09666 0.54263 0.0
C2187 C 0.70047 0.11628 0.50465 0.0
C2188 C 0.68364 0.10711 0.5138 0.0
C2189 C 0.63255 0.0852 0.54043 0.0
C2190 C 0.65044 0.09218 0.5314 0.0
H2191 H 0.71139 0.15117 0.47219 0.0
H2192 H 0.68402 0.1345 0.48576 0.0
H2193 H 0.6942 0.10808 0.54297 0.0
H2194 H 0.616 0.05067 0.57092 0.0
H2195 H 0.64602 0.0649 0.55958 0.0
C2196 C 0.1753 0.45093 0.76292 0.0
C2197 C 0.15732 0.45432 0.7715 0.0
C2198 C 0.18205 0.43247 0.76056 0.0
C2199 C 0.17563 0.38595 0.78367 0.0
H2200 H 0.214 0.37096 0.74555 0.0
C2201 C 0.21365 0.31238 0.78003 0.0
C2202 C 0.23359 0.31316 0.77798 0.0
C2203 C 0.20267 0.32893 0.77911 0.0
C2204 C 0.20331 0.37503 0.75628 0.0
H2205 H 0.13147 0.44115 0.78247 0.0
H2206 H 0.14302 0.40882 0.77774 0.0
H2207 H 0.19617 0.40042 0.74096 0.0
H2208 H 0.25772 0.33186 0.77422 0.0
H2209 H 0.23843 0.36075 0.77242 0.0
H2210 H 0.18281 0.36035 0.79885 0.0
C2211 C 0.15218 0.42042 0.77346 0.0
C2212 C 0.1931 0.39186 0.75368 0.0
C2213 C 0.14549 0.43894 0.77601 0.0
C2214 C 0.24239 0.33083 0.77593 0.0
C2215 C 0.23139 0.34732 0.7747 0.0
C2216 C 0.18565 0.36896 0.7861 0.0
C2217 C 0.17086 0.41701 0.76654 0.0
C2218 C 0.17949 0.39778 0.7676 0.0
C2219 C 0.21145 0.34642 0.77582 0.0
C2220 C 0.19989 0.36364 0.77267 0.0
H2221 H 0.18473 0.46251 0.75924 0.0
H2222 H 0.19655 0.43044 0.7553 0.0
H2223 H 0.1655 0.39018 0.79486 0.0
H2224 H 0.2065 0.29893 0.78161 0.0
H2225 H 0.18729 0.32796 0.78005 0.0
C2226 C 0.36381 0.60732 0.25036 0.0
C2227 C 0.35871 0.58821 0.24952 0.0
C2228 C 0.35064 0.62145 0.24568 0.0
C2229 C 0.31969 0.6474 0.22788 0.0
H2230 H 0.27837 0.64589 0.26608 0.0
C2231 C 0.26587 0.70834 0.23628 0.0
C2232 C 0.26859 0.7172 0.25409 0.0
C2233 C 0.27267 0.68999 0.23318 0.0
C2234 C 0.28961 0.64627 0.25512 0.0
H2235 H 0.3364 0.56876 0.24206 0.0
H2236 H 0.31316 0.59362 0.23453 0.0
H2237 H 0.29993 0.61856 0.2625 0.0
H2238 H 0.27886 0.71327 0.28314 0.0
H2239 H 0.29024 0.68086 0.27784 0.0
H2240 H 0.30975 0.67535 0.22094 0.0
C2241 C 0.32739 0.59756 0.23852 0.0
C2242 C 0.30184 0.6307 0.25301 0.0
C2243 C 0.34069 0.58341 0.24278 0.0
C2244 C 0.27664 0.7068 0.26928 0.0
C2245 C 0.28308 0.68828 0.26627 0.0
C2246 C 0.3072 0.6628 0.2297 0.0
C2247 C 0.33213 0.61664 0.24047 0.0
C2248 C 0.31729 0.63143 0.2398 0.0
C2249 C 0.28182 0.68009 0.24798 0.0
C2250 C 0.29246 0.66253 0.24373 0.0
H2251 H 0.37763 0.61135 0.25546 0.0
H2252 H 0.3545 0.63614 0.24739 0.0
H2253 H 0.33161 0.64823 0.21772 0.0
H2254 H 0.25973 0.71601 0.22428 0.0
H2255 H 0.27158 0.68386 0.21898 0.0
C2256 C 0.525 0.72125 0.58988 0.0
C2257 C 0.52403 0.7259 0.60958 0.0
C2258 C 0.52312 0.70255 0.5838 0.0
C2259 C 0.50828 0.6537 0.59951 0.0
H2260 H 0.53783 0.63991 0.55374 0.0
C2261 C 0.51606 0.57613 0.56869 0.0
C2262 C 0.51412 0.57467 0.54855 0.0
C2263 C 0.51659 0.594 0.57757 0.0
C2264 C 0.52938 0.64351 0.56649 0.0
H2265 H 0.51978 0.71422 0.63835 0.0
H2266 H 0.51702 0.68131 0.6278 0.0
H2267 H 0.54028 0.67158 0.56662 0.0
H2268 H 0.51091 0.5911 0.52216 0.0
H2269 H 0.5121 0.62184 0.53749 0.0
H2270 H 0.49783 0.62514 0.5994 0.0
C2271 C 0.51896 0.69229 0.61696 0.0
C2272 C 0.53067 0.66182 0.57388 0.0
C2273 C 0.52059 0.71121 0.62306 0.0
C2274 C 0.51243 0.59153 0.53767 0.0
C2275 C 0.51322 0.60925 0.54647 0.0
C2276 C 0.50719 0.63519 0.59221 0.0
C2277 C 0.52052 0.68762 0.59719 0.0
C2278 C 0.51986 0.66744 0.59028 0.0
C2279 C 0.51553 0.6108 0.56649 0.0
C2280 C 0.51746 0.62997 0.57536 0.0
H2281 H 0.52729 0.73214 0.57899 0.0
H2282 H 0.52374 0.69987 0.56845 0.0
H2283 H 0.49964 0.65734 0.61209 0.0
H2284 H 0.51743 0.5635 0.57755 0.0
H2285 H 0.51842 0.59466 0.59303 0.0
C2286 C 0.59302 0.26477 0.88829 0.0
C2287 C 0.57517 0.2636 0.87969 0.0
C2288 C 0.60967 0.26443 0.87694 0.0
C2289 C 0.62863 0.25142 0.82864 0.0
H2290 H 0.66876 0.28623 0.84102 0.0
C2291 C 0.69323 0.26598 0.77782 0.0
C2292 C 0.71108 0.26654 0.78652 0.0
C2293 C 0.67658 0.26514 0.78917 0.0
C2294 C 0.65775 0.27631 0.83751 0.0
H2295 H 0.56071 0.26098 0.85253 0.0
H2296 H 0.58978 0.26072 0.83268 0.0
H2297 H 0.63978 0.28545 0.86098 0.0
H2298 H 0.72552 0.26663 0.81391 0.0
H2299 H 0.69646 0.26515 0.83365 0.0
H2300 H 0.64659 0.24247 0.80499 0.0
C2301 C 0.59093 0.2616 0.8482 0.0
C2302 C 0.64118 0.27583 0.84895 0.0
C2303 C 0.57428 0.26186 0.85956 0.0
C2304 C 0.71197 0.26623 0.80676 0.0
C2305 C 0.69534 0.26548 0.81808 0.0
C2306 C 0.64518 0.25197 0.81713 0.0
C2307 C 0.6088 0.263 0.85676 0.0
C2308 C 0.62645 0.26336 0.84466 0.0
C2309 C 0.6775 0.26496 0.80941 0.0
C2310 C 0.6599 0.2644 0.82149 0.0
H2311 H 0.59414 0.26601 0.90379 0.0
H2312 H 0.62324 0.26523 0.88399 0.0
H2313 H 0.61764 0.24147 0.82512 0.0
H2314 H 0.6921 0.26622 0.76225 0.0
H2315 H 0.66298 0.26492 0.78213 0.0
C2316 C 0.03032 0.34237 0.1326 0.0
C2317 C 0.02878 0.32627 0.12095 0.0
C2318 C 0.03089 0.36062 0.12432 0.0
C2319 C 0.0147 0.38769 0.08231 0.0
H2320 H 0.05311 0.42424 0.09483 0.0
C2321 C 0.01923 0.45935 0.04112 0.0
C2322 C 0.02645 0.47534 0.05028 0.0
C2323 C 0.01985 0.44144 0.05001 0.0
C2324 C 0.042 0.41444 0.09136 0.0
H2325 H 0.02674 0.31683 0.09142 0.0
H2326 H 0.02719 0.34862 0.07708 0.0
H2327 H 0.05364 0.3929 0.10996 0.0
H2328 H 0.03976 0.48494 0.07624 0.0
H2329 H 0.04 0.45399 0.09222 0.0
H2330 H 0.00245 0.40914 0.0644 0.0
C2331 C 0.02815 0.34712 0.0926 0.0
C2332 C 0.04243 0.39635 0.1 0.0
C2333 C 0.028 0.32888 0.10083 0.0
C2334 C 0.03415 0.47293 0.06872 0.0
C2335 C 0.03442 0.45504 0.07782 0.0
C2336 C 0.014 0.40587 0.07398 0.0
C2337 C 0.02949 0.36324 0.10423 0.0
C2338 C 0.0289 0.38268 0.09543 0.0
C2339 C 0.02733 0.4389 0.0686 0.0
C2340 C 0.02777 0.41957 0.07814 0.0
H2341 H 0.03094 0.34088 0.14814 0.0
H2342 H 0.03186 0.37273 0.13369 0.0
H2343 H 0.00387 0.3776 0.07869 0.0
H2344 H 0.01339 0.46059 0.02682 0.0
H2345 H 0.01468 0.42954 0.04202 0.0
C2346 C 0.97498 0.76126 0.38039 0.0
C2347 C 0.97523 0.77 0.39848 0.0
C2348 C 0.95893 0.76274 0.36895 0.0
C2349 C 0.90756 0.7771 0.37072 0.0
H2350 H 0.91472 0.77947 0.31506 0.0
C2351 C 0.85115 0.80365 0.31679 0.0
C2352 C 0.84617 0.79021 0.30305 0.0
C2353 C 0.86672 0.8004 0.32858 0.0
C2354 C 0.91259 0.77871 0.33059 0.0
H2355 H 0.95906 0.7873 0.41876 0.0
H2356 H 0.9314 0.79075 0.39845 0.0
H2357 H 0.94234 0.77572 0.33549 0.0
H2358 H 0.85352 0.76309 0.29053 0.0
H2359 H 0.88137 0.75767 0.31081 0.0
H2360 H 0.87779 0.78111 0.36556 0.0
C2361 C 0.94325 0.78212 0.3933 0.0
C2362 C 0.92835 0.77643 0.34233 0.0
C2363 C 0.95915 0.78026 0.40494 0.0
C2364 C 0.85713 0.77358 0.30109 0.0
C2365 C 0.87299 0.77053 0.31258 0.0
C2366 C 0.89186 0.77981 0.35896 0.0
C2367 C 0.94291 0.77338 0.37513 0.0
C2368 C 0.92606 0.77557 0.36258 0.0
C2369 C 0.87777 0.78386 0.32649 0.0
C2370 C 0.89429 0.78061 0.33884 0.0
H2371 H 0.98714 0.75309 0.37516 0.0
H2372 H 0.95911 0.75542 0.35529 0.0
H2373 H 0.90511 0.77609 0.38617 0.0
H2374 H 0.84275 0.81646 0.31865 0.0
H2375 H 0.87024 0.81086 0.33921 0.0
C2376 C 0.51812 0.32732 0.93024 0.0
C2377 C 0.51801 0.30907 0.9384 0.0
C2378 C 0.51269 0.34293 0.94131 0.0
C2379 C 0.50902 0.35826 0.9918 0.0
H2380 H 0.48288 0.40149 0.9693 0.0
C2381 C 0.49228 0.42663 0.03442 0.0
C2382 C 0.49821 0.44322 0.02483 0.0
C2383 C 0.49173 0.40952 0.02452 0.0
C2384 C 0.49016 0.38949 0.97575 0.0
H2385 H 0.51155 0.29269 0.96433 0.0
H2386 H 0.50176 0.31994 0.98361 0.0
H2387 H 0.48703 0.37256 0.95064 0.0
H2388 H 0.50748 0.45514 0.99729 0.0
H2389 H 0.5066 0.42531 0.98004 0.0
H2390 H 0.51236 0.37534 0.01681 0.0
C2391 C 0.50638 0.32224 0.96876 0.0
C2392 C 0.49259 0.37297 0.96508 0.0
C2393 C 0.51192 0.30664 0.9577 0.0
C2394 C 0.50312 0.44251 0.00509 0.0
C2395 C 0.50238 0.4255 0.99517 0.0
C2396 C 0.50646 0.37475 0.00252 0.0
C2397 C 0.50691 0.34058 0.96075 0.0
C2398 C 0.50244 0.35733 0.97281 0.0
C2399 C 0.49685 0.40881 0.00482 0.0
C2400 C 0.4974 0.39065 0.99442 0.0
H2401 H 0.52277 0.3296 0.91539 0.0
H2402 H 0.51355 0.35689 0.93478 0.0
H2403 H 0.51687 0.34656 0.9981 0.0
H2404 H 0.48849 0.42682 0.04965 0.0
H2405 H 0.48735 0.39683 0.03225 0.0
C2406 C 0.9569 0.27792 0.15527 0.0
C2407 C 0.97281 0.27003 0.1645 0.0
C2408 C 0.93877 0.27746 0.16411 0.0
C2409 C 0.90924 0.2524 0.20068 0.0
H2410 H 0.87867 0.29846 0.20053 0.0
C2411 C 0.82891 0.25459 0.22377 0.0
C2412 C 0.82302 0.26937 0.23608 0.0
C2413 C 0.84723 0.25438 0.21525 0.0
C2414 C 0.88703 0.28549 0.20076 0.0
H2415 H 0.98195 0.2551 0.19019 0.0
H2416 H 0.95013 0.25394 0.2055 0.0
H2417 H 0.91049 0.29839 0.18548 0.0
H2418 H 0.83186 0.29567 0.24883 0.0
H2419 H 0.86363 0.29548 0.23369 0.0
H2420 H 0.88566 0.23949 0.21583 0.0
C2421 C 0.95177 0.26058 0.19141 0.0
C2422 C 0.90523 0.28541 0.192 0.0
C2423 C 0.97002 0.26129 0.18267 0.0
C2424 C 0.83588 0.28406 0.23944 0.0
C2425 C 0.85409 0.28399 0.23069 0.0
C2426 C 0.89089 0.25241 0.20919 0.0
C2427 C 0.93594 0.26887 0.18234 0.0
C2428 C 0.9166 0.26888 0.19185 0.0
C2429 C 0.86007 0.2691 0.21857 0.0
C2430 C 0.87956 0.26898 0.20939 0.0
H2431 H 0.95848 0.2848 0.1413 0.0
H2432 H 0.92689 0.28378 0.15661 0.0
H2433 H 0.91755 0.23941 0.20073 0.0
H2434 H 0.81942 0.24302 0.22089 0.0
H2435 H 0.85129 0.24278 0.20586 0.0
C2436 C 0.04254 0.70051 0.41296 0.0
C2437 C 0.04263 0.71176 0.42958 0.0
C2438 C 0.04742 0.68128 0.41409 0.0
C2439 C 0.07193 0.64557 0.44333 0.0
H2440 H 0.02832 0.61347 0.43605 0.0
C2441 C 0.05416 0.58526 0.49387 0.0
C2442 C 0.04374 0.56962 0.48791 0.0
C2443 C 0.05914 0.59952 0.48079 0.0
C2444 C 0.04092 0.62197 0.43759 0.0
H2445 H 0.04891 0.71217 0.46005 0.0
H2446 H 0.0579 0.67879 0.46189 0.0
H2447 H 0.02815 0.64566 0.4231 0.0
H2448 H 0.03133 0.55603 0.46331 0.0
H2449 H 0.04006 0.58119 0.44029 0.0
H2450 H 0.08439 0.62227 0.45858 0.0
C2451 C 0.0539 0.68474 0.44808 0.0
C2452 C 0.04078 0.64043 0.4302 0.0
C2453 C 0.04858 0.70376 0.44707 0.0
C2454 C 0.03927 0.56801 0.46833 0.0
C2455 C 0.04424 0.5824 0.45517 0.0
C2456 C 0.07221 0.62705 0.45047 0.0
C2457 C 0.053 0.67326 0.43171 0.0
C2458 C 0.05581 0.65266 0.434 0.0
C2459 C 0.05385 0.59853 0.46139 0.0
C2460 C 0.05619 0.61547 0.44876 0.0
H2461 H 0.03795 0.70638 0.39931 0.0
H2462 H 0.0465 0.67261 0.40134 0.0
H2463 H 0.08376 0.65475 0.44623 0.0
H2464 H 0.05794 0.58686 0.50883 0.0
H2465 H 0.06622 0.61185 0.48623 0.0
C2466 C 0.57915 0.77283 0.67854 0.0
C2467 C 0.57977 0.78265 0.66075 0.0
C2468 C 0.59496 0.77268 0.6907 0.0
C2469 C 0.63898 0.7991 0.70106 0.0
H2470 H 0.65744 0.75172 0.72259 0.0
C2471 C 0.71403 0.79279 0.73359 0.0
C2472 C 0.71723 0.78 0.7489 0.0
C2473 C 0.69651 0.79343 0.72429 0.0
C2474 C 0.65238 0.76518 0.71702 0.0
H2475 H 0.59753 0.80037 0.64217 0.0
H2476 H 0.62468 0.80029 0.66329 0.0
H2477 H 0.62811 0.75234 0.70434 0.0
H2478 H 0.70415 0.75803 0.76659 0.0
H2479 H 0.67343 0.75952 0.75082 0.0
H2480 H 0.66298 0.81206 0.71378 0.0
C2481 C 0.61207 0.79265 0.66789 0.0
C2482 C 0.63551 0.7655 0.70648 0.0
C2483 C 0.59646 0.79259 0.65568 0.0
C2484 C 0.70224 0.76808 0.75486 0.0
C2485 C 0.68462 0.76882 0.74565 0.0
C2486 C 0.65571 0.79883 0.71174 0.0
C2487 C 0.61164 0.78262 0.68551 0.0
C2488 C 0.62874 0.78242 0.69809 0.0
C2489 C 0.68149 0.78141 0.73008 0.0
C2490 C 0.6629 0.78182 0.71966 0.0
H2491 H 0.56659 0.765 0.68293 0.0
H2492 H 0.59409 0.76488 0.70422 0.0
H2493 H 0.63405 0.81246 0.6951 0.0
H2494 H 0.72526 0.80207 0.72844 0.0
H2495 H 0.69497 0.80308 0.71219 0.0
C2496 C 0.63324 0.49418 0.72758 0.0
C2497 C 0.618 0.49429 0.74111 0.0
C2498 C 0.62999 0.49052 0.70813 0.0
C2499 C 0.61412 0.4978 0.66769 0.0
H2500 H 0.57713 0.46049 0.65319 0.0
C2501 C 0.56535 0.507 0.60305 0.0
C2502 C 0.55928 0.49093 0.59327 0.0
C2503 C 0.57724 0.5051 0.61884 0.0
C2504 C 0.58779 0.47074 0.65682 0.0
H2505 H 0.58763 0.4898 0.74504 0.0
H2506 H 0.58205 0.48344 0.71132 0.0
H2507 H 0.58948 0.45997 0.68568 0.0
H2508 H 0.56202 0.46042 0.59136 0.0
H2509 H 0.58281 0.45707 0.61891 0.0
H2510 H 0.61198 0.50892 0.63894 0.0
C2511 C 0.59648 0.48612 0.71566 0.0
C2512 C 0.59472 0.47053 0.6755 0.0
C2513 C 0.59966 0.48996 0.73497 0.0
C2514 C 0.5661 0.47301 0.59894 0.0
C2515 C 0.57806 0.4711 0.61465 0.0
C2516 C 0.60717 0.49802 0.64896 0.0
C2517 C 0.61153 0.48662 0.702 0.0
C2518 C 0.60739 0.48448 0.68132 0.0
C2519 C 0.58336 0.48708 0.62508 0.0
C2520 C 0.59342 0.4849 0.64355 0.0
H2521 H 0.64754 0.49745 0.7319 0.0
H2522 H 0.64184 0.49095 0.69785 0.0
H2523 H 0.62386 0.50875 0.67182 0.0
H2524 H 0.56024 0.52097 0.59905 0.0
H2525 H 0.58082 0.51767 0.62672 0.0
C2526 C 0.77015 0.36853 0.96115 0.0
C2527 C 0.76852 0.36007 0.97952 0.0
C2528 C 0.77482 0.35757 0.94503 0.0
C2529 C 0.79437 0.33212 0.91511 0.0
H2530 H 0.76638 0.28556 0.9094 0.0
C2531 C 0.80608 0.28271 0.84978 0.0
C2532 C 0.78918 0.27786 0.84066 0.0
C2533 C 0.80537 0.29114 0.86795 0.0
C2534 C 0.77435 0.29848 0.91085 0.0
H2535 H 0.77085 0.33364 0.99555 0.0
H2536 H 0.77896 0.31453 0.9674 0.0
H2537 H 0.76186 0.30415 0.93864 0.0
H2538 H 0.75844 0.2771 0.84368 0.0
H2539 H 0.75717 0.29178 0.87536 0.0
H2540 H 0.80642 0.32669 0.88702 0.0
C2541 C 0.77649 0.32957 0.96543 0.0
C2542 C 0.77188 0.30905 0.92763 0.0
C2543 C 0.7719 0.34053 0.98154 0.0
C2544 C 0.77165 0.28091 0.85031 0.0
C2545 C 0.77095 0.28913 0.8685 0.0
C2546 C 0.79693 0.32147 0.89836 0.0
C2547 C 0.77786 0.33795 0.947 0.0
C2548 C 0.78162 0.32613 0.92979 0.0
C2549 C 0.78777 0.2946 0.87738 0.0
C2550 C 0.78668 0.30474 0.89594 0.0
H2551 H 0.76766 0.38358 0.9592 0.0
H2552 H 0.77558 0.36436 0.93095 0.0
H2553 H 0.8022 0.34514 0.91651 0.0
H2554 H 0.81975 0.28058 0.84257 0.0
H2555 H 0.81855 0.29512 0.87456 0.0
C2556 C 0.94643 0.53607 0.19702 0.0
C2557 C 0.92857 0.54 0.20568 0.0
C2558 C 0.95035 0.54157 0.17805 0.0
C2559 C 0.95916 0.56466 0.14275 0.0
H2560 H 0.92629 0.55006 0.1014 0.0
C2561 C 0.98998 0.56402 0.06722 0.0
C2562 C 0.98677 0.54705 0.05759 0.0
C2563 C 0.97802 0.56951 0.08253 0.0
C2564 C 0.93558 0.55433 0.11278 0.0
H2565 H 0.90066 0.55255 0.20098 0.0
H2566 H 0.90763 0.5621 0.16749 0.0
H2567 H 0.91522 0.54664 0.13496 0.0
H2568 H 0.96795 0.52322 0.05511 0.0
H2569 H 0.94779 0.53198 0.0827 0.0
H2570 H 0.98015 0.57081 0.12118 0.0
C2571 C 0.91852 0.55478 0.1756 0.0
C2572 C 0.92915 0.55255 0.13197 0.0
C2573 C 0.91457 0.54931 0.19473 0.0
C2574 C 0.97067 0.53635 0.06246 0.0
C2575 C 0.95903 0.54152 0.07818 0.0
C2576 C 0.96564 0.56626 0.12371 0.0
C2577 C 0.93656 0.55117 0.16721 0.0
C2578 C 0.94128 0.55687 0.1471 0.0
C2579 C 0.96311 0.55772 0.08897 0.0
C2580 C 0.95427 0.56033 0.10849 0.0
H2581 H 0.95752 0.52882 0.2049 0.0
H2582 H 0.96423 0.53817 0.17179 0.0
H2583 H 0.96863 0.56848 0.15417 0.0
H2584 H 0.00215 0.57267 0.06336 0.0
H2585 H 0.9812 0.58243 0.09004 0.0
C2586 C 0.75994 0.6874 0.46657 0.0
C2587 C 0.76625 0.66849 0.46794 0.0
C2588 C 0.75871 0.69652 0.44858 0.0
C2589 C 0.75727 0.68791 0.39562 0.0
H2590 H 0.77331 0.74018 0.39204 0.0
C2591 C 0.74827 0.73319 0.32581 0.0
C2592 C 0.76309 0.74556 0.32049 0.0
C2593 C 0.74817 0.72378 0.34374 0.0
C2594 C 0.76889 0.72555 0.3927 0.0
H2595 H 0.77585 0.64422 0.45136 0.0
H2596 H 0.77384 0.66014 0.41997 0.0
H2597 H 0.77409 0.72359 0.42298 0.0
H2598 H 0.78947 0.75767 0.33003 0.0
H2599 H 0.78937 0.74122 0.36111 0.0
H2600 H 0.75249 0.68978 0.36521 0.0
C2601 C 0.76966 0.66791 0.4328 0.0
C2602 C 0.76911 0.71607 0.41056 0.0
C2603 C 0.77088 0.65878 0.45082 0.0
C2604 C 0.77776 0.74834 0.33363 0.0
C2605 C 0.77765 0.73895 0.35155 0.0
C2606 C 0.75703 0.69741 0.37774 0.0
C2607 C 0.76377 0.687 0.43143 0.0
C2608 C 0.76332 0.6971 0.41231 0.0
C2609 C 0.76288 0.72649 0.35688 0.0
C2610 C 0.76288 0.71637 0.376 0.0
H2611 H 0.75616 0.69529 0.47945 0.0
H2612 H 0.75377 0.71108 0.44815 0.0
H2613 H 0.75254 0.67339 0.39638 0.0
H2614 H 0.73672 0.7307 0.31608 0.0
H2615 H 0.73642 0.71451 0.34738 0.0
C2616 C 0.63184 0.50474 0.86034 0.0
C2617 C 0.62229 0.50375 0.84282 0.0
C2618 C 0.62151 0.50632 0.87774 0.0
C2619 C 0.59632 0.52131 0.91049 0.0
H2620 H 0.54946 0.49332 0.91808 0.0
C2621 C 0.54634 0.53693 0.97451 0.0
C2622 C 0.53938 0.52125 0.98496 0.0
C2623 C 0.55498 0.53457 0.9564 0.0
C2624 C 0.56256 0.50114 0.91622 0.0
H2625 H 0.59452 0.50384 0.82968 0.0
H2626 H 0.57662 0.50699 0.85986 0.0
H2627 H 0.56861 0.48887 0.88863 0.0
H2628 H 0.53499 0.49094 0.98426 0.0
H2629 H 0.55038 0.48673 0.9526 0.0
H2630 H 0.59057 0.53322 0.93824 0.0
C2631 C 0.59201 0.50615 0.86029 0.0
C2632 C 0.57344 0.49873 0.89929 0.0
C2633 C 0.6023 0.5045 0.84297 0.0
C2634 C 0.54019 0.50329 0.97648 0.0
C2635 C 0.549 0.50089 0.95836 0.0
C2636 C 0.58548 0.52367 0.92742 0.0
C2637 C 0.60147 0.50699 0.87788 0.0
C2638 C 0.59037 0.5089 0.8962 0.0
C2639 C 0.557 0.51644 0.94843 0.0
C2640 C 0.56841 0.51374 0.93039 0.0
H2641 H 0.64724 0.5041 0.86062 0.0
H2642 H 0.62919 0.50678 0.8911 0.0
H2643 H 0.60919 0.52946 0.90847 0.0
H2644 H 0.54571 0.55099 0.98061 0.0
H2645 H 0.56053 0.54689 0.94886 0.0
C2646 C 0.75208 0.34829 0.0895 0.0
C2647 C 0.75799 0.36562 0.08149 0.0
C2648 C 0.7466 0.34703 0.1089 0.0
C2649 C 0.75804 0.36426 0.15464 0.0
H2650 H 0.71312 0.3367 0.17155 0.0
C2651 C 0.75596 0.32666 0.22814 0.0
C2652 C 0.75143 0.30745 0.2262 0.0
C2653 C 0.75157 0.33967 0.21351 0.0
C2654 C 0.72565 0.34458 0.16713 0.0
H2655 H 0.76268 0.39529 0.08736 0.0
H2656 H 0.75385 0.3928 0.12181 0.0
H2657 H 0.71548 0.34888 0.13849 0.0
H2658 H 0.73758 0.28705 0.20817 0.0
H2659 H 0.73031 0.30943 0.1827 0.0
H2660 H 0.76911 0.3584 0.18254 0.0
C2661 C 0.7531 0.38038 0.11283 0.0
C2662 C 0.72692 0.35161 0.14828 0.0
C2663 C 0.75818 0.38175 0.09322 0.0
C2664 C 0.74141 0.30173 0.21002 0.0
C2665 C 0.73701 0.31467 0.19549 0.0
C2666 C 0.75689 0.35699 0.17344 0.0
C2667 C 0.74726 0.36299 0.12076 0.0
C2668 C 0.74353 0.36064 0.14165 0.0
C2669 C 0.74251 0.33368 0.19678 0.0
C2670 C 0.74114 0.34614 0.1795 0.0
H2671 H 0.75163 0.33568 0.08076 0.0
H2672 H 0.74242 0.3334 0.11481 0.0
H2673 H 0.77101 0.37115 0.14976 0.0
H2674 H 0.76359 0.33149 0.24055 0.0
H2675 H 0.75586 0.35425 0.21497 0.0
C2676 C 0.94082 0.52173 0.30712 0.0
C2677 C 0.92244 0.52971 0.30795 0.0
C2678 C 0.94941 0.51517 0.32386 0.0
C2679 C 0.93976 0.50213 0.37508 0.0
H2680 H 0.99288 0.51504 0.38046 0.0
C2681 C 0.99596 0.5144 0.43891 0.0
C2682 C 0.9929 0.49835 0.45063 0.0
C2683 C 0.98805 0.51573 0.42073 0.0
C2684 C 0.97804 0.51134 0.37918 0.0
H2685 H 0.89849 0.53693 0.32683 0.0
H2686 H 0.91378 0.52605 0.3563 0.0
H2687 H 0.97705 0.52243 0.35049 0.0
H2688 H 0.97947 0.4709 0.45234 0.0
H2689 H 0.96575 0.4731 0.4202 0.0
H2690 H 0.94062 0.4919 0.40424 0.0
C2691 C 0.92138 0.52445 0.34263 0.0
C2692 C 0.96901 0.51537 0.36192 0.0
C2693 C 0.9127 0.53085 0.32581 0.0
C2694 C 0.98211 0.4834 0.44357 0.0
C2695 C 0.97414 0.48474 0.42529 0.0
C2696 C 0.9488 0.49817 0.39243 0.0
C2697 C 0.93991 0.51668 0.34184 0.0
C2698 C 0.9497 0.51108 0.35976 0.0
C2699 C 0.97696 0.50098 0.41375 0.0
C2700 C 0.96793 0.50309 0.39476 0.0
H2701 H 0.94863 0.5205 0.29353 0.0
H2702 H 0.96355 0.50897 0.3227 0.0
H2703 H 0.92494 0.49841 0.37375 0.0
H2704 H 0.00448 0.52601 0.44379 0.0
H2705 H 0.9903 0.52854 0.4123 0.0
C2706 C 0.77775 0.66855 0.58368 0.0
C2707 C 0.7638 0.677 0.57201 0.0
C2708 C 0.78054 0.675 0.60258 0.0
C2709 C 0.77183 0.71781 0.63243 0.0
H2710 H 0.78207 0.68501 0.67623 0.0
C2711 C 0.78831 0.74972 0.70607 0.0
C2712 C 0.77952 0.74159 0.72255 0.0
C2713 C 0.78838 0.74044 0.68831 0.0
C2714 C 0.77914 0.69437 0.66416 0.0
H2715 H 0.74122 0.69826 0.57168 0.0
H2716 H 0.74588 0.70912 0.60421 0.0
H2717 H 0.77776 0.67126 0.64428 0.0
H2718 H 0.76451 0.71688 0.73334 0.0
H2719 H 0.76438 0.70077 0.70223 0.0
H2720 H 0.77262 0.74084 0.6521 0.0
C2721 C 0.75507 0.69789 0.59873 0.0
C2722 C 0.77687 0.68649 0.64579 0.0
C2723 C 0.75233 0.69154 0.57999 0.0
C2724 C 0.77147 0.72353 0.72096 0.0
C2725 C 0.77144 0.71426 0.70309 0.0
C2726 C 0.77411 0.72565 0.65067 0.0
C2727 C 0.76944 0.69003 0.61021 0.0
C2728 C 0.77295 0.69812 0.62971 0.0
C2729 C 0.77951 0.7228 0.6864 0.0
C2730 C 0.77772 0.7141 0.66687 0.0
H2731 H 0.78685 0.65732 0.57806 0.0
H2732 H 0.79176 0.66861 0.61099 0.0
H2733 H 0.76913 0.72729 0.6204 0.0
H2734 H 0.79481 0.76352 0.70675 0.0
H2735 H 0.79517 0.7473 0.67596 0.0
C2736 C 0.71323 0.61008 0.52142 0.0
C2737 C 0.71336 0.62694 0.51042 0.0
C2738 C 0.69748 0.59794 0.52119 0.0
C2739 C 0.65547 0.58576 0.49238 0.0
H2740 H 0.63301 0.56869 0.54101 0.0
C2741 C 0.57886 0.55673 0.49727 0.0
C2742 C 0.5742 0.54282 0.5112 0.0
C2743 C 0.59688 0.56506 0.49674 0.0
C2744 C 0.63922 0.57299 0.52723 0.0
H2745 H 0.6972 0.64381 0.49006 0.0
H2746 H 0.67016 0.62268 0.48947 0.0
H2747 H 0.66281 0.58614 0.54078 0.0
H2748 H 0.58516 0.5265 0.53525 0.0
H2749 H 0.61673 0.5406 0.53398 0.0
H2750 H 0.63207 0.57264 0.47875 0.0
C2751 C 0.68211 0.61882 0.49835 0.0
C2752 C 0.65635 0.58306 0.52713 0.0
C2753 C 0.69763 0.63102 0.49879 0.0
C2754 C 0.58822 0.53716 0.52431 0.0
C2755 C 0.60633 0.54541 0.52369 0.0
C2756 C 0.63848 0.57555 0.49245 0.0
C2757 C 0.68169 0.60221 0.50968 0.0
C2758 C 0.66451 0.58988 0.50973 0.0
C2759 C 0.61088 0.55967 0.51002 0.0
C2760 C 0.62986 0.5693 0.5099 0.0
H2761 H 0.72506 0.60651 0.53057 0.0
H2762 H 0.69767 0.5852 0.53001 0.0
H2763 H 0.66151 0.59053 0.47868 0.0
H2764 H 0.5684 0.56161 0.48706 0.0
H2765 H 0.59957 0.57619 0.4862 0.0
C2766 C 0.21482 0.94075 0.53541 0.0
C2767 C 0.21338 0.92186 0.52952 0.0
C2768 C 0.19846 0.95119 0.5403 0.0
C2769 C 0.14826 0.94629 0.5554 0.0
H2770 H 0.14173 0.99555 0.53115 0.0
C2771 C 0.07526 0.98247 0.54761 0.0
C2772 C 0.07409 0.00231 0.54826 0.0
C2773 C 0.09286 0.97326 0.54861 0.0
C2774 C 0.14346 0.982 0.53838 0.0
H2775 H 0.19384 0.89898 0.5244 0.0
H2776 H 0.16529 0.91725 0.53291 0.0
H2777 H 0.17168 0.97832 0.52665 0.0
H2778 H 0.09027 0.02802 0.55149 0.0
H2779 H 0.121 0.01189 0.55366 0.0
H2780 H 0.11997 0.94984 0.56695 0.0
C2781 C 0.17905 0.92392 0.53386 0.0
C2782 C 0.1606 0.97213 0.53575 0.0
C2783 C 0.19536 0.91354 0.52883 0.0
C2784 C 0.09075 0.01272 0.55079 0.0
C2785 C 0.10835 0.00349 0.55193 0.0
C2786 C 0.13116 0.95622 0.55815 0.0
C2787 C 0.18044 0.94286 0.53955 0.0
C2788 C 0.16301 0.95404 0.54392 0.0
C2789 C 0.10964 0.9837 0.55043 0.0
C2790 C 0.12845 0.97403 0.54936 0.0
H2791 H 0.22855 0.9475 0.53614 0.0
H2792 H 0.19989 0.96575 0.54474 0.0
H2793 H 0.14989 0.93246 0.56208 0.0
H2794 H 0.06266 0.97407 0.5456 0.0
H2795 H 0.09337 0.95802 0.54715 0.0
C2796 C 0.37281 0.98123 0.78472 0.0
C2797 C 0.39202 0.97947 0.77895 0.0
C2798 C 0.36195 0.96515 0.78844 0.0
C2799 C 0.36626 0.91325 0.79763 0.0
H2800 H 0.31312 0.91417 0.78367 0.0
C2801 C 0.31826 0.84792 0.78734 0.0
C2802 C 0.29972 0.84907 0.79546 0.0
C2803 C 0.33055 0.86325 0.78837 0.0
C2804 C 0.3279 0.91382 0.78784 0.0
H2805 H 0.41489 0.95961 0.7722 0.0
H2806 H 0.39571 0.9315 0.77776 0.0
H2807 H 0.33231 0.94221 0.77822 0.0
H2808 H 0.28036 0.86662 0.81258 0.0
H2809 H 0.30163 0.89356 0.81373 0.0
H2810 H 0.3618 0.88437 0.80632 0.0
C2811 C 0.38916 0.94525 0.7801 0.0
C2812 C 0.3389 0.92989 0.7848 0.0
C2813 C 0.40012 0.96135 0.77673 0.0
C2814 C 0.29429 0.86543 0.8057 0.0
C2815 C 0.30647 0.88081 0.80648 0.0
C2816 C 0.35529 0.89704 0.80035 0.0
C2817 C 0.36995 0.94695 0.7861 0.0
C2818 C 0.35823 0.92984 0.78964 0.0
C2819 C 0.32447 0.88002 0.79736 0.0
C2820 C 0.33603 0.89724 0.7955 0.0
H2821 H 0.36628 0.99504 0.78682 0.0
H2822 H 0.34733 0.96703 0.79342 0.0
H2823 H 0.381 0.91279 0.80186 0.0
H2824 H 0.32298 0.83565 0.77927 0.0
H2825 H 0.34437 0.8624 0.78116 0.0
C2826 C 0.33697 0.13404 0.01816 0.0
C2827 C 0.32048 0.12375 0.02298 0.0
C2828 C 0.35504 0.12554 0.01895 0.0
C2829 C 0.39257 0.10786 0.03078 0.0
H2830 H 0.39955 0.05564 0.01533 0.0
C2831 C 0.46483 0.0687 0.03924 0.0
C2832 C 0.47065 0.05565 0.02503 0.0
C2833 C 0.44651 0.07675 0.03924 0.0
C2834 C 0.39794 0.0703 0.01953 0.0
H2835 H 0.31019 0.09639 0.03265 0.0
H2836 H 0.34178 0.0816 0.03443 0.0
H2837 H 0.36787 0.07004 0.01494 0.0
H2838 H 0.46164 0.04099 -0.00048 0.0
H2839 H 0.42987 0.05534 -0.00077 0.0
H2840 H 0.42266 0.10836 0.03477 0.0
C2841 C 0.34072 0.09622 0.0297 0.0
C2842 C 0.37964 0.0785 0.01958 0.0
C2843 C 0.32257 0.10474 0.02884 0.0
C2844 C 0.45767 0.05097 0.01071 0.0
C2845 C 0.43934 0.05911 0.01065 0.0
C2846 C 0.41084 0.09969 0.03066 0.0
C2847 C 0.35724 0.10648 0.02467 0.0
C2848 C 0.37667 0.09745 0.02514 0.0
C2849 C 0.43345 0.07209 0.02495 0.0
C2850 C 0.41385 0.08078 0.02502 0.0
H2851 H 0.33595 0.14867 0.01344 0.0
H2852 H 0.36728 0.13388 0.01462 0.0
H2853 H 0.39093 0.12238 0.03542 0.0
H2854 H 0.47436 0.07255 0.05059 0.0
H2855 H 0.44251 0.08641 0.0507 0.0
C2856 C 0.66022 0.56661 0.78556 0.0
C2857 C 0.64457 0.56261 0.79787 0.0
C2858 C 0.66856 0.58441 0.78561 0.0
C2859 C 0.67859 0.62306 0.81654 0.0
H2860 H 0.6874 0.65197 0.76938 0.0
C2861 C 0.71766 0.69433 0.81707 0.0
C2862 C 0.72987 0.69844 0.80133 0.0
C2863 C 0.70548 0.67888 0.81654 0.0
C2864 C 0.6853 0.64398 0.78266 0.0
H2865 H 0.62534 0.57404 0.81983 0.0
H2866 H 0.64046 0.60518 0.82033 0.0
H2867 H 0.66922 0.62279 0.7685 0.0
H2868 H 0.73921 0.68965 0.77281 0.0
H2869 H 0.71864 0.66215 0.77208 0.0
H2870 H 0.69547 0.64346 0.83062 0.0
C2871 C 0.64598 0.59452 0.8105 0.0
C2872 C 0.67474 0.62738 0.78214 0.0
C2873 C 0.63733 0.5768 0.81015 0.0
C2874 C 0.72976 0.68683 0.78504 0.0
C2875 C 0.71786 0.67116 0.78462 0.0
C2876 C 0.68945 0.63946 0.81702 0.0
C2877 C 0.66166 0.59842 0.79823 0.0
C2878 C 0.67144 0.61674 0.79905 0.0
C2879 C 0.70552 0.66699 0.80036 0.0
C2880 C 0.69311 0.65006 0.80004 0.0
H2881 H 0.66602 0.55596 0.77588 0.0
H2882 H 0.68074 0.58709 0.77614 0.0
H2883 H 0.67638 0.61491 0.82972 0.0
H2884 H 0.71731 0.70329 0.82967 0.0
H2885 H 0.69593 0.67638 0.82876 0.0
C2886 C 0.8227 0.41446 0.02139 0.0
C2887 C 0.82134 0.39605 0.01415 0.0
C2888 C 0.83878 0.4253 0.01732 0.0
C2889 C 0.889 0.42161 -0.00015 0.0
H2890 H 0.88289 0.47589 0.99312 0.0
C2891 C 0.95013 0.47125 0.97535 0.0
C2892 C 0.95302 0.48627 0.98803 0.0
C2893 C 0.93377 0.46027 0.9772 0.0
C2894 C 0.88475 0.46075 0.99497 0.0
H2895 H 0.83563 0.37457 0.99683 0.0
H2896 H 0.86348 0.39373 0.98912 0.0
H2897 H 0.85487 0.45636 0.99866 0.0
H2898 H 0.94103 0.50205 0.0121 0.0
H2899 H 0.91215 0.48307 0.01509 0.0
H2900 H 0.91894 0.42615 0.99573 0.0
C2901 C 0.85237 0.39964 0.99841 0.0
C2902 C 0.86876 0.44955 0.99829 0.0
C2903 C 0.83639 0.38866 0.00276 0.0
C2904 C 0.93911 0.49045 0.00225 0.0
C2905 C 0.92261 0.47971 0.00387 0.0
C2906 C 0.90496 0.43279 0.99622 0.0
C2907 C 0.85374 0.41811 0.00561 0.0
C2908 C 0.8707 0.42987 0.00107 0.0
C2909 C 0.91993 0.4644 0.99151 0.0
C2910 C 0.90296 0.45246 0.99401 0.0
H2911 H 0.81139 0.42047 0.03037 0.0
H2912 H 0.83952 0.43927 0.02351 0.0
H2913 H 0.89109 0.40656 0.0022 0.0
H2914 H 0.96077 0.46769 0.96439 0.0
H2915 H 0.93193 0.44854 0.96748 0.0
C2916 C 0.38322 0.10132 0.75814 0.0
C2917 C 0.37498 0.08345 0.7562 0.0
C2918 C 0.37313 0.11768 0.75314 0.0
C2919 C 0.3243 0.13526 0.74871 0.0
H2920 H 0.34907 0.17915 0.72585 0.0
C2921 C 0.28388 0.20549 0.73934 0.0
C2922 C 0.29328 0.22125 0.74665 0.0
C2923 C 0.29377 0.18854 0.73612 0.0
C2924 C 0.34198 0.16699 0.73222 0.0
H2925 H 0.34997 0.06859 0.74695 0.0
H2926 H 0.33234 0.09723 0.7381 0.0
H2927 H 0.36661 0.14921 0.72836 0.0
H2928 H 0.32059 0.23193 0.75539 0.0
H2929 H 0.33778 0.20228 0.74998 0.0
H2930 H 0.29988 0.1531 0.7531 0.0
C2931 C 0.34652 0.09858 0.74371 0.0
C2932 C 0.352 0.14988 0.73369 0.0
C2933 C 0.35662 0.0822 0.74874 0.0
C2934 C 0.31294 0.22001 0.74979 0.0
C2935 C 0.32282 0.20307 0.74656 0.0
C2936 C 0.31428 0.15233 0.74722 0.0
C2937 C 0.3546 0.11649 0.74605 0.0
C2938 C 0.34339 0.13396 0.74234 0.0
C2939 C 0.31323 0.18704 0.74013 0.0
C2940 C 0.32315 0.16847 0.73935 0.0
H2941 H 0.39736 0.10272 0.76382 0.0
H2942 H 0.37963 0.13128 0.75539 0.0
H2943 H 0.31735 0.12333 0.75568 0.0
H2944 H 0.26876 0.20604 0.73663 0.0
H2945 H 0.28608 0.17648 0.73091 0.0
C2946 C 0.20094 0.96751 0.27312 0.0
C2947 C 0.18167 0.96321 0.27666 0.0
C2948 C 0.21381 0.9534 0.26717 0.0
C2949 C 0.2386 0.91736 0.26809 0.0
H2950 H 0.22187 0.87941 0.23242 0.0
C2951 C 0.26586 0.84056 0.26767 0.0
C2952 C 0.26465 0.83013 0.25063 0.0
C2953 C 0.26047 0.85965 0.26789 0.0
C2954 C 0.22706 0.89005 0.24206 0.0
H2955 H 0.16072 0.9409 0.2766 0.0
H2956 H 0.18312 0.91633 0.26635 0.0
H2957 H 0.20247 0.9075 0.23784 0.0
H2958 H 0.25907 0.83178 0.22002 0.0
H2959 H 0.25033 0.86523 0.22021 0.0
H2960 H 0.26311 0.89967 0.27252 0.0
C2961 C 0.18828 0.93061 0.26793 0.0
C2962 C 0.21576 0.90604 0.24537 0.0
C2963 C 0.17547 0.94465 0.27394 0.0
C2964 C 0.25978 0.83946 0.23344 0.0
C2965 C 0.25471 0.85858 0.23357 0.0
C2966 C 0.25 0.90133 0.26474 0.0
C2967 C 0.20758 0.93481 0.26453 0.0
C2968 C 0.22108 0.91952 0.25889 0.0
C2969 C 0.25404 0.86863 0.25099 0.0
C2970 C 0.24405 0.88722 0.25211 0.0
H2971 H 0.20611 0.98173 0.2751 0.0
H2972 H 0.22859 0.95702 0.26456 0.0
H2973 H 0.24305 0.92756 0.27861 0.0
H2974 H 0.26962 0.83369 0.28113 0.0
H2975 H 0.26004 0.86691 0.28158 0.0
C2976 C 0.51996 0.34738 0.40264 0.0
C2977 C 0.51861 0.33091 0.41418 0.0
C2978 C 0.52023 0.36541 0.41106 0.0
C2979 C 0.53208 0.38915 0.45666 0.0
H2980 H 0.50364 0.4318 0.43609 0.0
C2981 C 0.52642 0.46007 0.49781 0.0
C2982 C 0.52488 0.47724 0.48745 0.0
C2983 C 0.5259 0.44261 0.4884 0.0
C2984 C 0.51196 0.42018 0.44191 0.0
H2985 H 0.51615 0.32067 0.44371 0.0
H2986 H 0.51677 0.35196 0.45834 0.0
H2987 H 0.50188 0.40096 0.42066 0.0
H2988 H 0.5218 0.48928 0.4588 0.0
H2989 H 0.52151 0.45888 0.44226 0.0
H2990 H 0.54253 0.40822 0.47761 0.0
C2991 C 0.51771 0.35097 0.44276 0.0
C2992 C 0.51086 0.4024 0.43305 0.0
C2993 C 0.51721 0.33299 0.43434 0.0
C2994 C 0.52305 0.47639 0.46729 0.0
C2995 C 0.5227 0.45887 0.45781 0.0
C2996 C 0.53335 0.40692 0.46538 0.0
C2997 C 0.51941 0.36745 0.43127 0.0
C2998 C 0.52077 0.38657 0.44041 0.0
C2999 C 0.524 0.44164 0.46822 0.0
C3000 C 0.52318 0.42275 0.4583 0.0
H3001 H 0.5211 0.34634 0.38707 0.0
H3002 H 0.52166 0.37773 0.40174 0.0
H3003 H 0.54022 0.37742 0.46254 0.0
H3004 H 0.52763 0.46006 0.51337 0.0
H3005 H 0.52654 0.42984 0.49713 0.0
C3006 C 0.45187 0.7656 0.15962 0.0
C3007 C 0.45367 0.77296 0.1408 0.0
C3008 C 0.43404 0.76042 0.16708 0.0
C3009 C 0.38418 0.77385 0.16005 0.0
H3010 H 0.37504 0.73729 0.20123 0.0
C3011 C 0.3119 0.76883 0.20046 0.0
C3012 C 0.31303 0.76885 0.22068 0.0
C3013 C 0.32824 0.76601 0.18898 0.0
C3014 C 0.37742 0.74753 0.18971 0.0
H3015 H 0.43879 0.77885 0.11431 0.0
H3016 H 0.40776 0.76917 0.12708 0.0
H3017 H 0.40537 0.73663 0.18322 0.0
H3018 H 0.33207 0.7656 0.24475 0.0
H3019 H 0.36062 0.76082 0.22466 0.0
H3020 H 0.35643 0.78497 0.16677 0.0
C3021 C 0.41994 0.76804 0.13634 0.0
C3022 C 0.39475 0.74717 0.17942 0.0
C3023 C 0.43771 0.77348 0.12899 0.0
C3024 C 0.33076 0.76577 0.2292 0.0
C3025 C 0.34707 0.76282 0.21772 0.0
C3026 C 0.36684 0.7741 0.17021 0.0
C3027 C 0.41775 0.76229 0.15574 0.0
C3028 C 0.39849 0.76062 0.16477 0.0
C3029 C 0.34597 0.76303 0.19751 0.0
C3030 C 0.36348 0.76124 0.18542 0.0
H3031 H 0.46398 0.76505 0.16903 0.0
H3032 H 0.43289 0.75617 0.18212 0.0
H3033 H 0.38666 0.78468 0.14915 0.0
H3034 H 0.2984 0.77103 0.19347 0.0
H3035 H 0.32701 0.76614 0.17342 0.0
C3036 C 0.0188 0.71241 0.91555 0.0
C3037 C 0.02004 0.72762 0.92838 0.0
C3038 C 0.01999 0.69357 0.92234 0.0
C3039 C 0.01633 0.66557 0.96895 0.0
H3040 H 0.03532 0.62407 0.93756 0.0
C3041 C 0.03401 0.59187 0.00127 0.0
C3042 C 0.02609 0.57608 0.99231 0.0
C3043 C 0.03334 0.60983 0.99254 0.0
C3044 C 0.02987 0.63552 0.94645 0.0
H3045 H 0.02472 0.73494 0.95815 0.0
H3046 H 0.02793 0.7026 0.96971 0.0
H3047 H 0.03489 0.65625 0.92414 0.0
H3048 H 0.01167 0.56688 0.96678 0.0
H3049 H 0.01097 0.59832 0.95126 0.0
H3050 H 0.01197 0.6449 0.99144 0.0
C3051 C 0.02505 0.70487 0.95459 0.0
C3052 C 0.02954 0.65403 0.93874 0.0
C3053 C 0.02344 0.72356 0.9479 0.0
C3054 C 0.01786 0.57871 0.97412 0.0
C3055 C 0.01752 0.5967 0.96519 0.0
C3056 C 0.01701 0.6472 0.97672 0.0
C3057 C 0.02279 0.68947 0.9421 0.0
C3058 C 0.02289 0.66945 0.94993 0.0
C3059 C 0.02505 0.61253 0.97442 0.0
C3060 C 0.02387 0.63194 0.96565 0.0
H3061 H 0.01604 0.71504 0.90044 0.0
H3062 H 0.01805 0.68227 0.91217 0.0
H3063 H 0.01047 0.67671 0.97797 0.0
H3064 H 0.04048 0.59044 0.01526 0.0
H3065 H 0.03939 0.62168 -2e-05 0.0
C3066 C 0.04654 0.295 0.67378 0.0
C3067 C 0.05041 0.30818 0.65889 0.0
C3068 C 0.06081 0.28931 0.68634 0.0
C3069 C 0.10883 0.30122 0.70304 0.0
H3070 H 0.11504 0.24682 0.70867 0.0
C3071 C 0.18028 0.26711 0.72073 0.0
C3072 C 0.18072 0.2524 0.73451 0.0
C3073 C 0.16303 0.27404 0.714 0.0
C3074 C 0.11331 0.26204 0.70752 0.0
H3075 H 0.07204 0.32649 0.64621 0.0
H3076 H 0.09692 0.31643 0.66798 0.0
H3077 H 0.08681 0.25973 0.6932 0.0
H3078 H 0.16341 0.23305 0.75164 0.0
H3079 H 0.13302 0.24506 0.73958 0.0
H3080 H 0.13562 0.30349 0.71682 0.0
C3081 C 0.08283 0.31058 0.67003 0.0
C3082 C 0.09715 0.26944 0.6987 0.0
C3083 C 0.06858 0.31626 0.65746 0.0
C3084 C 0.1635 0.2443 0.74093 0.0
C3085 C 0.14615 0.25122 0.73412 0.0
C3086 C 0.12498 0.29382 0.71183 0.0
C3087 C 0.0792 0.29673 0.68431 0.0
C3088 C 0.09498 0.28909 0.69596 0.0
C3089 C 0.14578 0.26637 0.72082 0.0
C3090 C 0.1276 0.27415 0.71369 0.0
H3091 H 0.03265 0.2886 0.67542 0.0
H3092 H 0.05756 0.27881 0.69739 0.0
H3093 H 0.10737 0.31643 0.70143 0.0
H3094 H 0.19332 0.27334 0.71515 0.0
H3095 H 0.16321 0.28537 0.70335 0.0
C3096 C 0.50565 0.74812 0.08412 0.0
C3097 C 0.51604 0.76429 0.07879 0.0
C3098 C 0.50832 0.73128 0.07413 0.0
C3099 C 0.54503 0.70575 0.04722 0.0
H3100 H 0.50425 0.66994 0.04084 0.0
C3101 C 0.55818 0.62708 0.02737 0.0
C3102 C 0.54859 0.61438 0.03988 0.0
C3103 C 0.55367 0.64638 0.02762 0.0
C3104 C 0.51576 0.67985 0.04244 0.0
H3105 H 0.5368 0.7757 0.05823 0.0
H3106 H 0.54152 0.74606 0.04077 0.0
H3107 H 0.49656 0.70285 0.04838 0.0
H3108 H 0.52711 0.61219 0.06279 0.0
H3109 H 0.51914 0.64569 0.06303 0.0
H3110 H 0.56423 0.68252 0.042 0.0
C3111 C 0.53138 0.7465 0.05278 0.0
C3112 C 0.51137 0.69864 0.04673 0.0
C3113 C 0.52863 0.76345 0.06274 0.0
C3114 C 0.53451 0.62145 0.05269 0.0
C3115 C 0.5299 0.64065 0.05281 0.0
C3116 C 0.54942 0.68694 0.04284 0.0
C3117 C 0.52147 0.73019 0.0586 0.0
C3118 C 0.52597 0.71158 0.04994 0.0
C3119 C 0.53938 0.65328 0.04024 0.0
C3120 C 0.53482 0.6737 0.04118 0.0
H3121 H 0.49572 0.7483 0.09632 0.0
H3122 H 0.50066 0.71888 0.07915 0.0
H3123 H 0.55658 0.71538 0.04975 0.0
H3124 H 0.56892 0.62211 0.01714 0.0
H3125 H 0.56117 0.65588 0.0178 0.0
C3126 C 0.08613 0.77934 0.87598 0.0
C3127 C 0.06962 0.77177 0.86808 0.0
C3128 C 0.10366 0.77834 0.86599 0.0
C3129 C 0.1309 0.75245 0.8284 0.0
H3130 H 0.16056 0.79831 0.82468 0.0
C3131 C 0.20116 0.75665 0.78206 0.0
C3132 C 0.21565 0.76852 0.78838 0.0
C3133 C 0.18319 0.75656 0.79142 0.0
C3134 C 0.15272 0.78523 0.8258 0.0
H3135 H 0.05878 0.75679 0.84357 0.0
H3136 H 0.08958 0.7547 0.82624 0.0
H3137 H 0.12997 0.79868 0.84181 0.0
H3138 H 0.2227 0.78919 0.80991 0.0
H3139 H 0.19194 0.78852 0.82658 0.0
H3140 H 0.15384 0.73881 0.81286 0.0
C3141 C 0.08886 0.76151 0.84018 0.0
C3142 C 0.13505 0.7855 0.83558 0.0
C3143 C 0.07121 0.76276 0.85008 0.0
C3144 C 0.21184 0.78 0.8045 0.0
C3145 C 0.19403 0.77972 0.814 0.0
C3146 C 0.14875 0.75208 0.81882 0.0
C3147 C 0.10526 0.76952 0.84791 0.0
C3148 C 0.12393 0.76912 0.83709 0.0
C3149 C 0.17929 0.76818 0.80751 0.0
C3150 C 0.16002 0.76847 0.81743 0.0
H3151 H 0.08547 0.7864 0.88979 0.0
H3152 H 0.11603 0.78447 0.87246 0.0
H3153 H 0.12276 0.73954 0.82942 0.0
H3154 H 0.20356 0.74768 0.76964 0.0
H3155 H 0.17227 0.74763 0.78574 0.0
C3156 C 0.00869 0.36523 0.62059 0.0
C3157 C 0.99548 0.35622 0.63292 0.0
C3158 C 0.00928 0.38489 0.6196 0.0
C3159 C 0.97821 0.42455 0.62065 0.0
H3160 H 0.02526 0.45266 0.61652 0.0
C3161 C 0.01095 0.49905 0.5879 0.0
C3162 C 0.00494 0.49704 0.56881 0.0
C3163 C 0.00685 0.48511 0.60174 0.0
C3164 C 0.01191 0.44521 0.61807 0.0
H3165 H 0.97288 0.36047 0.65433 0.0
H3166 H 0.97343 0.39517 0.65198 0.0
H3167 H 0.02531 0.42114 0.63123 0.0
H3168 H 0.98882 0.47964 0.54957 0.0
H3169 H 0.98165 0.45533 0.57374 0.0
H3170 H 0.96511 0.44803 0.60609 0.0
C3171 C 0.98352 0.38692 0.64341 0.0
C3172 C 0.01198 0.42717 0.62639 0.0
C3173 C 0.98322 0.36717 0.64472 0.0
C3174 C 0.99376 0.48148 0.56413 0.0
C3175 C 0.98948 0.46768 0.57802 0.0
C3176 C 0.97818 0.44252 0.6121 0.0
C3177 C 0.99644 0.39588 0.63067 0.0
C3178 C 0.99532 0.41641 0.62697 0.0
C3179 C 0.99646 0.46909 0.59678 0.0
C3180 C 0.99521 0.45262 0.61 0.0
H3181 H 0.01835 0.3571 0.61143 0.0
H3182 H 0.01918 0.39151 0.60946 0.0
H3183 H 0.96521 0.41643 0.62086 0.0
H3184 H 0.01953 0.51095 0.59196 0.0
H3185 H 0.01236 0.4865 0.61613 0.0
C3186 C 0.46539 0.28471 0.35614 0.0
C3187 C 0.4635 0.28101 0.37609 0.0
C3188 C 0.44967 0.28297 0.34402 0.0
C3189 C 0.40438 0.25817 0.3396 0.0
H3190 H 0.38722 0.30064 0.30853 0.0
C3191 C 0.32977 0.25839 0.30578 0.0
C3192 C 0.32637 0.26895 0.28888 0.0
C3193 C 0.34733 0.25927 0.31494 0.0
C3194 C 0.39191 0.28842 0.31674 0.0
H3195 H 0.44365 0.27208 0.39875 0.0
H3196 H 0.41667 0.26848 0.37763 0.0
H3197 H 0.4166 0.30301 0.32647 0.0
H3198 H 0.33912 0.28839 0.26811 0.0
H3199 H 0.37003 0.28921 0.28342 0.0
H3200 H 0.38024 0.24327 0.3297 0.0
C3201 C 0.43017 0.273 0.37138 0.0
C3202 C 0.40879 0.28988 0.32713 0.0
C3203 C 0.44565 0.27518 0.3835 0.0
C3204 C 0.34122 0.28007 0.28112 0.0
C3205 C 0.35895 0.28069 0.29009 0.0
C3206 C 0.38775 0.25655 0.32894 0.0
C3207 C 0.4319 0.27697 0.35152 0.0
C3208 C 0.41503 0.27489 0.33896 0.0
C3209 C 0.36228 0.27047 0.30733 0.0
C3210 C 0.38094 0.27178 0.3176 0.0
H3211 H 0.4789 0.28926 0.34996 0.0
H3212 H 0.45145 0.28608 0.32875 0.0
H3213 H 0.40892 0.24629 0.34843 0.0
H3214 H 0.3186 0.24988 0.31236 0.0
H3215 H 0.34889 0.2515 0.32836 0.0
C3216 C 0.37232 0.56367 0.33883 0.0
C3217 C 0.38209 0.54972 0.32814 0.0
C3218 C 0.3754 0.56529 0.35862 0.0
C3219 C 0.39719 0.5423 0.4008 0.0
H3220 H 0.42707 0.58791 0.40435 0.0
C3221 C 0.46711 0.54245 0.43933 0.0
C3222 C 0.47347 0.55868 0.44858 0.0
C3223 C 0.45017 0.54288 0.42932 0.0
C3224 C 0.41838 0.57536 0.40403 0.0
H3225 H 0.40119 0.52556 0.32955 0.0
H3226 H 0.40598 0.52782 0.36411 0.0
H3227 H 0.40423 0.58508 0.37874 0.0
H3228 H 0.46701 0.58806 0.45488 0.0
H3229 H 0.43724 0.58889 0.43723 0.0
H3230 H 0.41203 0.53213 0.42547 0.0
C3231 C 0.39611 0.53761 0.35737 0.0
C3232 C 0.40522 0.57378 0.38937 0.0
C3233 C 0.3935 0.53637 0.3376 0.0
C3234 C 0.46258 0.57544 0.44757 0.0
C3235 C 0.44548 0.57586 0.43762 0.0
C3236 C 0.41014 0.54397 0.41562 0.0
C3237 C 0.3878 0.55258 0.36787 0.0
C3238 C 0.39544 0.55678 0.38696 0.0
C3239 C 0.43906 0.55953 0.42845 0.0
C3240 C 0.42177 0.56 0.41658 0.0
H3241 H 0.36358 0.5742 0.33164 0.0
H3242 H 0.36902 0.57704 0.36645 0.0
H3243 H 0.38968 0.52911 0.39924 0.0
H3244 H 0.47536 0.52942 0.43977 0.0
H3245 H 0.446 0.53021 0.42191 0.0
C3246 C 0.26925 0.67151 0.0497 0.0
C3247 C 0.25922 0.67527 0.03279 0.0
C3248 C 0.26257 0.67861 0.06735 0.0
C3249 C 0.23217 0.71712 0.08666 0.0
H3250 H 0.24153 0.69157 0.13535 0.0
C3251 C 0.21638 0.75084 0.16154 0.0
C3252 C 0.23268 0.75096 0.17298 0.0
C3253 C 0.21606 0.73989 0.14484 0.0
C3254 C 0.23868 0.69876 0.12182 0.0
H3255 H 0.23375 0.68835 0.02121 0.0
H3256 H 0.22188 0.70028 0.05201 0.0
H3257 H 0.24734 0.67474 0.10514 0.0
H3258 H 0.26165 0.73999 0.17524 0.0
H3259 H 0.26073 0.72068 0.14676 0.0
H3260 H 0.2238 0.74123 0.10346 0.0
C3261 C 0.23519 0.6924 0.05161 0.0
C3262 C 0.24213 0.68921 0.10455 0.0
C3263 C 0.24199 0.68553 0.03397 0.0
C3264 C 0.2486 0.73993 0.16727 0.0
C3265 C 0.24815 0.72883 0.15087 0.0
C3266 C 0.22852 0.72658 0.10394 0.0
C3267 C 0.2456 0.68938 0.06844 0.0
C3268 C 0.23948 0.69849 0.08677 0.0
C3269 C 0.23192 0.7287 0.13952 0.0
C3270 C 0.23231 0.71766 0.1216 0.0
H3271 H 0.28258 0.66364 0.0492 0.0
H3272 H 0.27109 0.67624 0.08 0.0
H3273 H 0.23019 0.72479 0.07323 0.0
H3274 H 0.20383 0.75903 0.16552 0.0
H3275 H 0.20342 0.74004 0.13617 0.0
C3276 C 0.13031 0.51185 0.85586 0.0
C3277 C 0.144 0.49988 0.84723 0.0
C3278 C 0.12501 0.50929 0.87512 0.0
C3279 C 0.13423 0.49135 0.92203 0.0
H3280 H 0.07976 0.48287 0.92265 0.0
C3281 C 0.08412 0.51231 0.98434 0.0
C3282 C 0.06625 0.50374 0.98614 0.0
C3283 C 0.09728 0.50615 0.97032 0.0
C3284 C 0.09504 0.48464 0.92294 0.0
H3285 H 0.16414 0.47696 0.8522 0.0
H3286 H 0.15459 0.47238 0.8863 0.0
H3287 H 0.09712 0.4842 0.89218 0.0
H3288 H 0.04881 0.48073 0.97652 0.0
H3289 H 0.07208 0.46937 0.9526 0.0
H3290 H 0.13198 0.49247 0.95291 0.0
C3291 C 0.14809 0.4837 0.878 0.0
C3292 C 0.10492 0.48561 0.9054 0.0
C3293 C 0.15349 0.48632 0.85859 0.0
C3294 C 0.06235 0.48786 0.97501 0.0
C3295 C 0.07568 0.48137 0.96135 0.0
C3296 C 0.1243 0.49033 0.93975 0.0
C3297 C 0.13325 0.49469 0.88605 0.0
C3298 C 0.12436 0.48978 0.90479 0.0
C3299 C 0.09288 0.49106 0.95816 0.0
C3300 C 0.10442 0.48773 0.94031 0.0
H3301 H 0.12299 0.52261 0.84751 0.0
H3302 H 0.11369 0.51807 0.88123 0.0
H3303 H 0.1493 0.49449 0.92175 0.0
H3304 H 0.08747 0.52452 0.99293 0.0
H3305 H 0.11027 0.51406 0.9682 0.0
C3306 C 0.25823 0.3707 0.57491 0.0
C3307 C 0.27607 0.37168 0.56541 0.0
C3308 C 0.25645 0.36199 0.59322 0.0
C3309 C 0.28333 0.32827 0.62515 0.0
H3310 H 0.24462 0.34178 0.66345 0.0
C3311 C 0.28375 0.29957 0.7037 0.0
C3312 C 0.26657 0.29216 0.71115 0.0
C3313 C 0.28429 0.30943 0.68605 0.0
C3314 C 0.25543 0.33779 0.65282 0.0
H3315 H 0.30615 0.36558 0.5681 0.0
H3316 H 0.30335 0.35163 0.60017 0.0
H3317 H 0.24689 0.3597 0.63309 0.0
H3318 H 0.23639 0.28958 0.70595 0.0
H3319 H 0.2373 0.30717 0.67525 0.0
H3320 H 0.29219 0.30676 0.64515 0.0
C3321 C 0.29049 0.35658 0.59335 0.0
C3322 C 0.25672 0.34802 0.63535 0.0
C3323 C 0.29217 0.36485 0.575 0.0
C3324 C 0.24989 0.29498 0.70056 0.0
C3325 C 0.25037 0.30517 0.68305 0.0
C3326 C 0.28224 0.31831 0.64269 0.0
C3327 C 0.27254 0.35437 0.60253 0.0
C3328 C 0.27079 0.3435 0.62124 0.0
C3329 C 0.2676 0.31245 0.67556 0.0
C3330 C 0.26834 0.32296 0.65677 0.0
H3331 H 0.24555 0.3757 0.56776 0.0
H3332 H 0.24235 0.36056 0.59965 0.0
H3333 H 0.29398 0.32381 0.61457 0.0
H3334 H 0.29685 0.29772 0.71149 0.0
H3335 H 0.29776 0.31496 0.68072 0.0
C3336 C 0.43082 0.5556 0.22311 0.0
C3337 C 0.43848 0.5499 0.24083 0.0
C3338 C 0.44214 0.55561 0.20634 0.0
C3339 C 0.46414 0.53737 0.17362 0.0
H3340 H 0.51598 0.55536 0.16802 0.0
C3341 C 0.50984 0.51668 0.10845 0.0
C3342 C 0.51813 0.53185 0.0982 0.0
C3343 C 0.50271 0.51923 0.12716 0.0
C3344 C 0.50151 0.55031 0.16944 0.0
H3345 H 0.4644 0.541 0.25503 0.0
H3346 H 0.4841 0.54092 0.22559 0.0
H3347 H 0.49783 0.56115 0.19813 0.0
H3348 H 0.52666 0.5612 0.09992 0.0
H3349 H 0.51396 0.56567 0.13272 0.0
H3350 H 0.46761 0.52659 0.1451 0.0
C3351 C 0.46934 0.54538 0.22477 0.0
C3352 C 0.49119 0.55355 0.18662 0.0
C3353 C 0.458 0.54533 0.24159 0.0
C3354 C 0.52027 0.54928 0.10747 0.0
C3355 C 0.51308 0.55183 0.12624 0.0
C3356 C 0.47445 0.53402 0.15661 0.0
C3357 C 0.46134 0.54997 0.20693 0.0
C3358 C 0.47238 0.54716 0.18878 0.0
C3359 C 0.50368 0.53699 0.13597 0.0
C3360 C 0.49323 0.54039 0.15436 0.0
H3361 H 0.41592 0.55945 0.22201 0.0
H3362 H 0.43572 0.55951 0.19277 0.0
H3363 H 0.44977 0.53204 0.175 0.0
H3364 H 0.50821 0.503 0.10179 0.0
H3365 H 0.49583 0.50746 0.13452 0.0
C3366 C 0.30398 0.65064 0.92473 0.0
C3367 C 0.30637 0.66029 0.94206 0.0
C3368 C 0.30691 0.66013 0.90708 0.0
C3369 C 0.30394 0.70891 0.88914 0.0
H3370 H 0.3215 0.68787 0.84037 0.0
C3371 C 0.29968 0.75299 0.82 0.0
C3372 C 0.29111 0.7438 0.80463 0.0
C3373 C 0.30621 0.74256 0.83578 0.0
C3374 C 0.31659 0.69391 0.85393 0.0
H3375 H 0.31548 0.68638 0.95493 0.0
H3376 H 0.32137 0.70261 0.92433 0.0
H3377 H 0.32483 0.66924 0.87016 0.0
H3378 H 0.28354 0.71643 0.79322 0.0
H3379 H 0.29451 0.69835 0.82093 0.0
H3380 H 0.29514 0.73324 0.87312 0.0
C3381 C 0.31652 0.68812 0.92415 0.0
C3382 C 0.31847 0.68325 0.87092 0.0
C3383 C 0.31322 0.67883 0.94164 0.0
C3384 C 0.29 0.72394 0.80491 0.0
C3385 C 0.29645 0.71354 0.8207 0.0
C3386 C 0.3021 0.71951 0.87227 0.0
C3387 C 0.31252 0.67922 0.90671 0.0
C3388 C 0.312 0.69062 0.88868 0.0
C3389 C 0.3042 0.72278 0.8365 0.0
C3390 C 0.30819 0.71208 0.85445 0.0
H3391 H 0.29871 0.63629 0.92485 0.0
H3392 H 0.30367 0.65292 0.89385 0.0
H3393 H 0.29835 0.71485 0.90249 0.0
H3394 H 0.30095 0.76825 0.82007 0.0
H3395 H 0.31239 0.75003 0.84764 0.0
C3396 C 0.11347 0.51773 0.73803 0.0
C3397 C 0.10793 0.52742 0.7549 0.0
C3398 C 0.10538 0.52243 0.72042 0.0
C3399 C 0.08206 0.56183 0.69524 0.0
H3400 H 0.07046 0.52307 0.6582 0.0
C3401 C 0.04824 0.57667 0.62061 0.0
C3402 C 0.05583 0.56604 0.60518 0.0
C3403 C 0.05404 0.57297 0.63946 0.0
C3404 C 0.07378 0.53405 0.66836 0.0
H3405 H 0.08906 0.54927 0.76655 0.0
H3406 H 0.07486 0.55733 0.73573 0.0
H3407 H 0.08043 0.51385 0.69042 0.0
H3408 H 0.07642 0.54432 0.59707 0.0
H3409 H 0.08662 0.53793 0.62985 0.0
H3410 H 0.07551 0.58202 0.673 0.0
C3411 C 0.08566 0.54628 0.73617 0.0
C3412 C 0.07945 0.52877 0.68679 0.0
C3413 C 0.09372 0.54156 0.75383 0.0
C3414 C 0.07005 0.55243 0.60877 0.0
C3415 C 0.07583 0.54874 0.62751 0.0
C3416 C 0.07634 0.56712 0.67676 0.0
C3417 C 0.09157 0.53691 0.71926 0.0
C3418 C 0.08396 0.54259 0.70031 0.0
C3419 C 0.06752 0.5586 0.6431 0.0
C3420 C 0.07249 0.55326 0.66305 0.0
H3421 H 0.12435 0.50676 0.73831 0.0
H3422 H 0.11038 0.5151 0.70759 0.0
H3423 H 0.08562 0.57278 0.70532 0.0
H3424 H 0.03716 0.58715 0.61824 0.0
H3425 H 0.04741 0.58077 0.65124 0.0
C3426 C 0.26975 0.39379 0.4447 0.0
C3427 C 0.27185 0.38305 0.46175 0.0
C3428 C 0.26894 0.38488 0.42668 0.0
C3429 C 0.25649 0.33921 0.40503 0.0
H3430 H 0.28491 0.35687 0.35991 0.0
C3431 C 0.26229 0.29458 0.33548 0.0
C3432 C 0.26395 0.30377 0.31743 0.0
C3433 C 0.26256 0.30488 0.35266 0.0
C3434 C 0.27658 0.35188 0.37223 0.0
H3435 H 0.27516 0.3545 0.47307 0.0
H3436 H 0.27359 0.33907 0.44186 0.0
H3437 H 0.28703 0.37382 0.39032 0.0
H3438 H 0.26676 0.33119 0.30341 0.0
H3439 H 0.26655 0.34921 0.33327 0.0
H3440 H 0.24571 0.31753 0.3871 0.0
C3441 C 0.27246 0.35436 0.44237 0.0
C3442 C 0.27789 0.36161 0.38973 0.0
C3443 C 0.2735 0.36325 0.46028 0.0
C3444 C 0.26545 0.32361 0.31704 0.0
C3445 C 0.26553 0.33396 0.33424 0.0
C3446 C 0.255 0.32963 0.38753 0.0
C3447 C 0.26996 0.36501 0.42534 0.0
C3448 C 0.26804 0.35525 0.40642 0.0
C3449 C 0.2643 0.32475 0.35237 0.0
C3450 C 0.2652 0.33564 0.37086 0.0
H3451 H 0.26841 0.40906 0.44531 0.0
H3452 H 0.26696 0.3935 0.41387 0.0
H3453 H 0.24843 0.33412 0.4175 0.0
H3454 H 0.26133 0.27931 0.3364 0.0
H3455 H 0.26193 0.29711 0.3662 0.0
C3456 C 0.34706 0.41514 0.50281 0.0
C3457 C 0.3286 0.42127 0.50835 0.0
C3458 C 0.36285 0.42671 0.50523 0.0
C3459 C 0.37791 0.47626 0.51279 0.0
H3460 H 0.42413 0.45171 0.53029 0.0
C3461 C 0.45196 0.51257 0.50978 0.0
C3462 C 0.46502 0.50828 0.52436 0.0
C3463 C 0.4344 0.50336 0.50919 0.0
C3464 C 0.41133 0.4589 0.52561 0.0
H3465 H 0.31244 0.44485 0.52039 0.0
H3466 H 0.34011 0.4651 0.52463 0.0
H3467 H 0.3955 0.4332 0.52657 0.0
H3468 H 0.46937 0.49134 0.55017 0.0
H3469 H 0.4387 0.47552 0.54931 0.0
H3470 H 0.39383 0.50203 0.51197 0.0
C3471 C 0.34227 0.45126 0.51833 0.0
C3472 C 0.3949 0.4482 0.52322 0.0
C3473 C 0.32639 0.43961 0.51594 0.0
C3474 C 0.45972 0.49502 0.53872 0.0
C3475 C 0.44216 0.4858 0.53812 0.0
C3476 C 0.39441 0.487 0.51513 0.0
C3477 C 0.36078 0.44483 0.51328 0.0
C3478 C 0.37799 0.45665 0.51659 0.0
C3479 C 0.42938 0.48956 0.52313 0.0
C3480 C 0.41142 0.47844 0.52147 0.0
H3481 H 0.34945 0.40122 0.49677 0.0
H3482 H 0.37676 0.42139 0.50075 0.0
H3483 H 0.36521 0.48327 0.50759 0.0
H3484 H 0.45555 0.52263 0.49841 0.0
H3485 H 0.42508 0.50655 0.49732 0.0
C3486 C 0.85364 0.14498 0.5077 0.0
C3487 C 0.83603 0.13671 0.51243 0.0
C3488 C 0.8706 0.13577 0.51245 0.0
C3489 C 0.88876 0.08804 0.51803 0.0
H3490 H 0.9339 0.11188 0.53726 0.0
C3491 C 0.95809 0.04604 0.53119 0.0
C3492 C 0.97536 0.05515 0.52694 0.0
C3493 C 0.94091 0.0561 0.5306 0.0
C3494 C 0.92148 0.10508 0.53165 0.0
H3495 H 0.8223 0.11298 0.52692 0.0
H3496 H 0.85198 0.09684 0.53508 0.0
H3497 H 0.90412 0.12994 0.53567 0.0
H3498 H 0.9882 0.08176 0.51816 0.0
H3499 H 0.95817 0.09914 0.51644 0.0
H3500 H 0.90608 0.06343 0.5133 0.0
C3501 C 0.85262 0.11037 0.5276 0.0
C3502 C 0.90444 0.11539 0.53089 0.0
C3503 C 0.83566 0.11966 0.52302 0.0
C3504 C 0.9751 0.07437 0.52158 0.0
C3505 C 0.95791 0.08438 0.52079 0.0
C3506 C 0.90581 0.0778 0.51859 0.0
C3507 C 0.8702 0.11809 0.52185 0.0
C3508 C 0.88796 0.10696 0.52401 0.0
C3509 C 0.94063 0.07542 0.52554 0.0
C3510 C 0.9224 0.08622 0.52531 0.0
H3511 H 0.85434 0.15815 0.49959 0.0
H3512 H 0.88399 0.14198 0.5078 0.0
H3513 H 0.87631 0.08132 0.51233 0.0
H3514 H 0.95786 0.03128 0.53555 0.0
H3515 H 0.92789 0.04882 0.53459 0.0
C3516 C 0.66133 0.08256 0.29758 0.0
C3517 C 0.66541 0.06345 0.29366 0.0
C3518 C 0.67192 0.09685 0.28856 0.0
C3519 C 0.68715 0.12298 0.25716 0.0
H3520 H 0.74231 0.12137 0.25348 0.0
C3521 C 0.72901 0.18309 0.22017 0.0
C3522 C 0.74297 0.19044 0.23205 0.0
C3523 C 0.72104 0.16544 0.22445 0.0
C3524 C 0.72689 0.12192 0.25429 0.0
H3525 H 0.68445 0.04437 0.27788 0.0
H3526 H 0.70291 0.06937 0.26222 0.0
H3527 H 0.72524 0.09521 0.26907 0.0
H3528 H 0.76072 0.1847 0.25662 0.0
H3529 H 0.74686 0.15406 0.26417 0.0
H3530 H 0.68879 0.14998 0.24308 0.0
C3531 C 0.69149 0.07325 0.27223 0.0
C3532 C 0.71714 0.10694 0.26313 0.0
C3533 C 0.68087 0.05894 0.28121 0.0
C3534 C 0.74976 0.1794 0.24743 0.0
C3535 C 0.74196 0.16178 0.2516 0.0
C3536 C 0.69689 0.13791 0.24827 0.0
C3537 C 0.68683 0.09233 0.2755 0.0
C3538 C 0.6972 0.10754 0.26503 0.0
C3539 C 0.72714 0.15485 0.24052 0.0
C3540 C 0.71687 0.13772 0.24712 0.0
H3541 H 0.64959 0.08655 0.30714 0.0
H3542 H 0.66828 0.11146 0.29164 0.0
H3543 H 0.67175 0.12364 0.25812 0.0
H3544 H 0.72359 0.1914 0.20825 0.0
H3545 H 0.70973 0.16032 0.21557 0.0
C3546 C 0.71848 0.94567 0.03216 0.0
C3547 C 0.71972 0.92763 0.02378 0.0
C3548 C 0.70084 0.95509 0.03418 0.0
C3549 C 0.65323 0.95715 0.01286 0.0
H3550 H 0.63729 0.98271 0.05985 0.0
C3551 C 0.57673 0.98643 0.02221 0.0
C3552 C 0.57366 0.00339 0.0323 0.0
C3553 C 0.59456 0.9774 0.02203 0.0
C3554 C 0.64158 0.97589 0.0465 0.0
H3555 H 0.70327 0.90528 0.01119 0.0
H3556 H 0.67269 0.92172 0.01453 0.0
H3557 H 0.66839 0.96687 0.05798 0.0
H3558 H 0.58703 0.02407 0.05031 0.0
H3559 H 0.61835 0.00863 0.04958 0.0
H3560 H 0.62683 0.9664 0.0011 0.0
C3561 C 0.68533 0.92864 0.01951 0.0
C3562 C 0.65943 0.96675 0.04547 0.0
C3563 C 0.70288 0.91916 0.0177 0.0
C3564 C 0.58887 0.01099 0.04244 0.0
C3565 C 0.60684 0.00204 0.04209 0.0
C3566 C 0.63554 0.96643 0.01379 0.0
C3567 C 0.68408 0.94679 0.02762 0.0
C3568 C 0.66539 0.95709 0.0287 0.0
C3569 C 0.61001 0.98517 0.03172 0.0
C3570 C 0.62929 0.97578 0.03069 0.0
H3571 H 0.73116 0.95261 0.03699 0.0
H3572 H 0.70039 0.9691 0.0404 0.0
H3573 H 0.65751 0.95017 -0.00042 0.0
H3574 H 0.56532 0.98005 0.01437 0.0
H3575 H 0.59616 0.96422 0.01429 0.0
C3576 C 0.37377 0.48674 0.26086 0.0
C3577 C 0.38248 0.4892 0.27871 0.0
C3578 C 0.36527 0.46963 0.25653 0.0
C3579 C 0.34095 0.43049 0.2789 0.0
H3580 H 0.35188 0.40387 0.23115 0.0
C3581 C 0.30945 0.35775 0.26479 0.0
C3582 C 0.30428 0.35315 0.24592 0.0
C3583 C 0.31929 0.37426 0.26838 0.0
C3584 C 0.34844 0.41128 0.24439 0.0
H3585 H 0.38934 0.47571 0.30595 0.0
H3586 H 0.37393 0.44576 0.2985 0.0
H3587 H 0.36926 0.43261 0.23833 0.0
H3588 H 0.30526 0.36269 0.21605 0.0
H3589 H 0.32171 0.39206 0.22248 0.0
H3590 H 0.31967 0.40979 0.28477 0.0
C3591 C 0.37391 0.45711 0.28787 0.0
C3592 C 0.3585 0.42761 0.24855 0.0
C3593 C 0.38275 0.47415 0.29208 0.0
C3594 C 0.30891 0.36577 0.23076 0.0
C3595 C 0.31857 0.38251 0.23442 0.0
C3596 C 0.33068 0.41437 0.27463 0.0
C3597 C 0.36506 0.45479 0.27008 0.0
C3598 C 0.3549 0.43724 0.26589 0.0
C3599 C 0.32393 0.38689 0.25329 0.0
C3600 C 0.33439 0.40447 0.25739 0.0
H3601 H 0.37348 0.49806 0.2502 0.0
H3602 H 0.35841 0.46817 0.24278 0.0
H3603 H 0.33772 0.43792 0.2922 0.0
H3604 H 0.30585 0.34873 0.27698 0.0
H3605 H 0.32342 0.37698 0.28305 0.0
C3606 C 0.2186 0.62463 0.96868 0.0
C3607 C 0.23705 0.61969 0.97455 0.0
C3608 C 0.20295 0.6141 0.97509 0.0
C3609 C 0.18919 0.58556 0.01729 0.0
H3610 H 0.14233 0.57949 0.98969 0.0
C3611 C 0.12007 0.55261 0.05078 0.0
C3612 C 0.10297 0.56149 0.04547 0.0
C3613 C 0.13738 0.5583 0.04227 0.0
C3614 C 0.1553 0.58121 0.99762 0.0
H3615 H 0.25367 0.59849 0.98986 0.0
H3616 H 0.22636 0.58002 0.00075 0.0
H3617 H 0.17093 0.5899 0.97224 0.0
H3618 H 0.09059 0.58411 0.02845 0.0
H3619 H 0.12071 0.59427 0.01385 0.0
H3620 H 0.17341 0.5772 0.04275 0.0
C3621 C 0.22399 0.59236 0.99167 0.0
C3622 C 0.17168 0.58709 0.9876 0.0
C3623 C 0.23965 0.60288 0.98527 0.0
C3624 C 0.10359 0.57692 0.03257 0.0
C3625 C 0.12078 0.58259 0.02411 0.0
C3626 C 0.17279 0.57964 0.02731 0.0
C3627 C 0.20542 0.59836 0.9874 0.0
C3628 C 0.18872 0.58969 0.99738 0.0
C3629 C 0.13777 0.57294 0.02835 0.0
C3630 C 0.15559 0.57781 0.01765 0.0
H3631 H 0.21605 0.63743 0.96036 0.0
H3632 H 0.18883 0.61913 0.97152 0.0
H3633 H 0.20202 0.58771 0.02533 0.0
H3634 H 0.11991 0.54056 0.06056 0.0
H3635 H 0.15029 0.55064 0.04584 0.0
C3636 C 0.67712 0.95661 0.27082 0.0
C3637 C 0.65846 0.95867 0.27821 0.0
C3638 C 0.68552 0.93868 0.26937 0.0
C3639 C 0.68101 0.89142 0.29196 0.0
H3640 H 0.72079 0.87823 0.25462 0.0
C3641 C 0.7173 0.81758 0.28543 0.0
C3642 C 0.73724 0.81753 0.28336 0.0
C3643 C 0.70708 0.83462 0.28546 0.0
C3644 C 0.70978 0.88184 0.2652 0.0
H3645 H 0.6333 0.94365 0.28817 0.0
H3646 H 0.64767 0.91226 0.28486 0.0
H3647 H 0.70282 0.90769 0.25058 0.0
H3648 H 0.76221 0.83526 0.28055 0.0
H3649 H 0.74425 0.86505 0.2804 0.0
H3650 H 0.68785 0.86529 0.3063 0.0
C3651 C 0.6561 0.9245 0.28091 0.0
C3652 C 0.69948 0.89867 0.2629 0.0
C3653 C 0.6478 0.94245 0.28262 0.0
C3654 C 0.74685 0.83486 0.28224 0.0
C3655 C 0.7366 0.85188 0.28197 0.0
C3656 C 0.69113 0.87446 0.29408 0.0
C3657 C 0.67531 0.92245 0.27503 0.0
C3658 C 0.68512 0.90379 0.27639 0.0
C3659 C 0.71663 0.85185 0.28313 0.0
C3660 C 0.70575 0.86967 0.28086 0.0
H3661 H 0.6857 0.96888 0.26737 0.0
H3662 H 0.70037 0.9377 0.26492 0.0
H3663 H 0.67035 0.89506 0.30286 0.0
H3664 H 0.70953 0.80442 0.28632 0.0
H3665 H 0.69167 0.83428 0.28636 0.0
C3666 C 0.83721 0.08103 0.73745 0.0
C3667 C 0.85479 0.08635 0.74489 0.0
C3668 C 0.82381 0.09481 0.7323 0.0
C3669 C 0.79617 0.12726 0.74345 0.0
H3670 H 0.80708 0.17331 0.71455 0.0
C3671 C 0.76925 0.2015 0.76273 0.0
C3672 C 0.76364 0.21376 0.7478 0.0
C3673 C 0.7757 0.18323 0.75855 0.0
C3674 C 0.80365 0.16037 0.72233 0.0
H3675 H 0.8728 0.11004 0.75139 0.0
H3676 H 0.84954 0.13414 0.74192 0.0
H3677 H 0.8292 0.14638 0.71234 0.0
H3678 H 0.75929 0.21627 0.71696 0.0
H3679 H 0.77115 0.1844 0.70964 0.0
H3680 H 0.77141 0.1418 0.75464 0.0
C3681 C 0.84608 0.11935 0.74024 0.0
C3682 C 0.81633 0.14506 0.72114 0.0
C3683 C 0.85932 0.1056 0.74576 0.0
C3684 C 0.76347 0.20707 0.72876 0.0
C3685 C 0.7703 0.1889 0.72454 0.0
C3686 C 0.78368 0.14269 0.74492 0.0
C3687 C 0.828 0.11406 0.7341 0.0
C3688 C 0.81295 0.12861 0.73212 0.0
C3689 C 0.77693 0.17706 0.73935 0.0
C3690 C 0.78763 0.15954 0.7348 0.0
H3691 H 0.83335 0.06626 0.73668 0.0
H3692 H 0.80993 0.09046 0.7276 0.0
H3693 H 0.79339 0.11476 0.7522 0.0
H3694 H 0.76947 0.20632 0.77752 0.0
H3695 H 0.78092 0.17438 0.77019 0.0
loop_
_geom_bond_atom_site_label_1
_geom_bond_atom_site_label_2
_geom_bond_distance
_geom_bond_site_symmetry_2
_ccdc_geom_bond_type
Co0 O1 2.216 1_455 S
Co0 O2 2.091 1_455 S
Co0 O4 2.004 . S
Co0 O10 2.021 . S
Co0 O12 2.137 . S
Co0 O13 2.244 . S
O1 Co0 2.216 1_655 S
O1 C8 1.247 . S
O2 Co0 2.091 1_655 S
O2 C8 1.261 . S
C3 O12 1.247 . S
C3 O13 1.272 . S
O4 Co0 2.004 . S
O4 C9 1.259 . S
Co5 O6 2.061 . S
Co5 O11 2.052 . S
Co5 O13 2.135 . S
O6 Co5 2.061 . S
O6 C9 1.235 . S
C7 O10 1.238 . S
C7 O11 1.241 . S
C8 O1 1.247 . S
C8 O2 1.261 . S
C9 O4 1.259 . S
C9 O6 1.235 . S
O10 Co0 2.021 . S
O10 C7 1.238 . S
O11 Co5 2.052 . S
O11 C7 1.241 . S
O12 Co0 2.137 . S
O12 C3 1.247 . S
O13 Co0 2.244 . S
O13 C3 1.272 . S
O13 Co5 2.135 . S
Co14 O15 2.216 . S
Co14 O16 2.091 . S
Co14 O18 2.004 . S
Co14 O24 2.021 . S
Co14 O26 2.137 . S
Co14 O27 2.244 . S
O15 Co14 2.216 . S
O15 C22 1.247 . S
O16 Co14 2.091 . S
O16 C22 1.261 . S
C17 O26 1.247 . S
C17 O27 1.272 . S
O18 Co14 2.004 . S
O18 C23 1.259 . S
Co19 O20 2.061 1_455 S
Co19 O25 2.052 . S
Co19 O27 2.135 . S
O20 Co19 2.061 1_655 S
O20 C23 1.235 1_655 S
C21 O24 1.238 . S
C21 O25 1.241 . S
C22 O15 1.247 . S
C22 O16 1.261 . S
C23 O18 1.259 . S
C23 O20 1.235 1_455 S
O24 Co14 2.021 . S
O24 C21 1.238 . S
O25 Co19 2.052 . S
O25 C21 1.241 . S
O26 Co14 2.137 . S
O26 C17 1.247 . S
O27 Co14 2.244 . S
O27 C17 1.272 . S
O27 Co19 2.135 . S
Co28 O29 2.216 . S
Co28 O30 2.091 . S
Co28 O32 2.004 . S
Co28 O38 2.021 . S
Co28 O40 2.137 . S
Co28 O41 2.244 . S
O29 Co28 2.216 . S
O29 C36 1.247 . S
O30 Co28 2.091 . S
O30 C36 1.261 . S
C31 O40 1.247 . S
C31 O41 1.272 . S
O32 Co28 2.004 . S
O32 C37 1.259 . S
Co33 O34 2.061 . S
Co33 O39 2.052 . S
Co33 O41 2.135 . S
O34 Co33 2.061 . S
O34 C37 1.235 . S
C35 O38 1.238 . S
C35 O39 1.241 . S
C36 O29 1.247 . S
C36 O30 1.261 . S
C37 O32 1.259 . S
C37 O34 1.235 . S
O38 Co28 2.021 . S
O38 C35 1.238 . S
O39 Co33 2.052 . S
O39 C35 1.241 . S
O40 Co28 2.137 . S
O40 C31 1.247 . S
O41 Co28 2.244 . S
O41 C31 1.272 . S
O41 Co33 2.135 . S
Co42 O43 2.216 . S
Co42 O44 2.091 . S
Co42 O46 2.004 . S
Co42 O52 2.021 . S
Co42 O54 2.137 . S
Co42 O55 2.244 . S
O43 Co42 2.216 . S
O43 C50 1.247 . S
O44 Co42 2.091 . S
O44 C50 1.261 . S
C45 O54 1.247 . S
C45 O55 1.272 . S
O46 Co42 2.004 . S
O46 C51 1.259 . S
Co47 O48 2.061 . S
Co47 O53 2.052 . S
Co47 O55 2.135 . S
O48 Co47 2.061 . S
O48 C51 1.235 . S
C49 O52 1.238 . S
C49 O53 1.241 . S
C50 O43 1.247 . S
C50 O44 1.261 . S
C51 O46 1.259 . S
C51 O48 1.235 . S
O52 Co42 2.021 . S
O52 C49 1.238 . S
O53 Co47 2.052 . S
O53 C49 1.241 . S
O54 Co42 2.137 . S
O54 C45 1.247 . S
O55 Co42 2.244 . S
O55 C45 1.272 . S
O55 Co47 2.135 . S
Co56 O57 2.216 1_545 S
Co56 O58 2.091 1_545 S
Co56 O60 2.004 . S
Co56 O66 2.021 . S
Co56 O68 2.136 1_545 S
Co56 O69 2.244 . S
O57 Co56 2.216 1_565 S
O57 C64 1.247 . S
O58 Co56 2.091 1_565 S
O58 C64 1.261 . S
C59 O68 1.236 1_545 S
C59 O69 1.272 . S
O60 Co56 2.004 . S
O60 C65 1.259 . S
Co61 O62 2.061 . S
Co61 O67 2.052 . S
Co61 O69 2.135 . S
O62 Co61 2.061 . S
O62 C65 1.235 . S
C63 O66 1.238 . S
C63 O67 1.241 . S
C64 O57 1.247 . S
C64 O58 1.261 . S
C65 O60 1.259 . S
C65 O62 1.235 . S
O66 Co56 2.021 . S
O66 C63 1.238 . S
O67 Co61 2.052 . S
O67 C63 1.241 . S
O68 Co56 2.136 1_565 S
O68 C59 1.236 1_565 S
O69 Co56 2.244 . S
O69 C59 1.272 . S
O69 Co61 2.135 . S
Co70 O71 2.216 . S
Co70 O72 2.091 . S
Co70 O74 2.004 . S
Co70 O80 2.021 . S
Co70 O82 2.137 . S
Co70 O83 2.244 . S
O71 Co70 2.216 . S
O71 C78 1.247 . S
O72 Co70 2.091 . S
O72 C78 1.261 . S
C73 O82 1.247 . S
C73 O83 1.272 . S
O74 Co70 2.004 . S
O74 C79 1.259 . S
Co75 O76 2.061 . S
Co75 O81 2.052 . S
Co75 O83 2.135 . S
O76 Co75 2.061 . S
O76 C79 1.235 . S
C77 O80 1.238 . S
C77 O81 1.241 . S
C78 O71 1.247 . S
C78 O72 1.261 . S
C79 O74 1.259 . S
C79 O76 1.235 . S
O80 Co70 2.021 . S
O80 C77 1.238 . S
O81 Co75 2.052 . S
O81 C77 1.241 . S
O82 Co70 2.137 . S
O82 C73 1.247 . S
O83 Co70 2.244 . S
O83 C73 1.272 . S
O83 Co75 2.135 . S
Co84 O85 2.216 . S
Co84 O86 2.091 . S
Co84 O88 2.004 . S
Co84 O94 2.021 . S
Co84 O96 2.137 . S
Co84 O97 2.244 . S
O85 Co84 2.216 . S
O85 C92 1.247 . S
O86 Co84 2.091 . S
O86 C92 1.261 . S
C87 O96 1.247 . S
C87 O97 1.272 . S
O88 Co84 2.004 . S
O88 C93 1.259 . S
Co89 O90 2.061 . S
Co89 O95 2.052 . S
Co89 O97 2.135 . S
O90 Co89 2.061 . S
O90 C93 1.235 . S
C91 O94 1.238 . S
C91 O95 1.241 . S
C92 O85 1.247 . S
C92 O86 1.261 . S
C93 O88 1.259 . S
C93 O90 1.235 . S
O94 Co84 2.021 . S
O94 C91 1.238 . S
O95 Co89 2.052 . S
O95 C91 1.241 . S
O96 Co84 2.137 . S
O96 C87 1.247 . S
O97 Co84 2.244 . S
O97 C87 1.272 . S
O97 Co89 2.135 . S
Co98 O99 2.216 . S
Co98 O100 2.091 . S
Co98 O102 2.004 . S
Co98 O108 2.021 . S
Co98 O110 2.137 1_554 S
Co98 O111 2.244 . S
O99 Co98 2.216 . S
O99 C106 1.247 . S
O100 Co98 2.091 . S
O100 C106 1.261 . S
C101 O110 1.247 . S
C101 O111 1.272 1_556 S
O102 Co98 2.004 . S
O102 C107 1.259 . S
Co103 O104 2.061 . S
Co103 O109 2.052 . S
Co103 O111 2.135 . S
O104 Co103 2.061 . S
O104 C107 1.235 . S
C105 O108 1.238 . S
C105 O109 1.241 . S
C106 O99 1.247 . S
C106 O100 1.261 . S
C107 O102 1.259 . S
C107 O104 1.235 . S
O108 Co98 2.021 . S
O108 C105 1.238 . S
O109 Co103 2.052 . S
O109 C105 1.241 . S
O110 Co98 2.137 1_556 S
O110 C101 1.247 . S
O111 Co98 2.244 . S
O111 C101 1.272 1_554 S
O111 Co103 2.135 . S
Co112 O113 2.216 . S
Co112 O114 2.091 . S
Co112 O116 2.004 . S
Co112 O122 2.021 . S
Co112 O124 2.137 . S
Co112 O125 2.244 . S
O113 Co112 2.216 . S
O113 C120 1.247 . S
O114 Co112 2.091 . S
O114 C120 1.261 . S
C115 O124 1.247 . S
C115 O125 1.272 . S
O116 Co112 2.004 . S
O116 C121 1.259 . S
Co117 O118 2.061 . S
Co117 O123 2.052 . S
Co117 O125 2.135 . S
O118 Co117 2.061 . S
O118 C121 1.235 . S
C119 O122 1.238 . S
C119 O123 1.241 . S
C120 O113 1.247 . S
C120 O114 1.261 . S
C121 O116 1.259 . S
C121 O118 1.235 . S
O122 Co112 2.021 . S
O122 C119 1.238 . S
O123 Co117 2.052 . S
O123 C119 1.241 . S
O124 Co112 2.137 . S
O124 C115 1.247 . S
O125 Co112 2.244 . S
O125 C115 1.272 . S
O125 Co117 2.135 . S
Co126 O127 2.216 . S
Co126 O128 2.091 . S
Co126 O130 2.004 . S
Co126 O136 2.021 . S
Co126 O138 2.137 . S
Co126 O139 2.244 . S
O127 Co126 2.216 . S
O127 C134 1.247 . S
O128 Co126 2.091 . S
O128 C134 1.261 . S
C129 O138 1.247 . S
C129 O139 1.272 . S
O130 Co126 2.004 . S
O130 C135 1.259 . S
Co131 O132 2.061 . S
Co131 O137 2.052 . S
Co131 O139 2.135 . S
O132 Co131 2.061 . S
O132 C135 1.235 . S
C133 O136 1.238 . S
C133 O137 1.241 . S
C134 O127 1.247 . S
C134 O128 1.261 . S
C135 O130 1.259 . S
C135 O132 1.235 . S
O136 Co126 2.021 . S
O136 C133 1.238 . S
O137 Co131 2.052 . S
O137 C133 1.241 . S
O138 Co126 2.137 . S
O138 C129 1.247 . S
O139 Co126 2.244 . S
O139 C129 1.272 . S
O139 Co131 2.135 . S
Co140 O141 2.216 . S
Co140 O142 2.091 . S
Co140 O144 2.004 . S
Co140 O150 2.021 . S
Co140 O152 2.137 . S
Co140 O153 2.244 . S
O141 Co140 2.216 . S
O141 C148 1.247 . S
O142 Co140 2.091 . S
O142 C148 1.261 . S
C143 O152 1.247 . S
C143 O153 1.272 . S
O144 Co140 2.004 . S
O144 C149 1.259 . S
Co145 O146 2.061 . S
Co145 O151 2.052 . S
Co145 O153 2.135 . S
O146 Co145 2.061 . S
O146 C149 1.235 . S
C147 O150 1.238 . S
C147 O151 1.241 . S
C148 O141 1.247 . S
C148 O142 1.261 . S
C149 O144 1.259 . S
C149 O146 1.235 . S
O150 Co140 2.021 . S
O150 C147 1.238 . S
O151 Co145 2.052 . S
O151 C147 1.241 . S
O152 Co140 2.137 . S
O152 C143 1.247 . S
O153 Co140 2.244 . S
O153 C143 1.272 . S
O153 Co145 2.135 . S
Co154 O155 2.216 . S
Co154 O156 2.091 . S
Co154 O158 2.004 . S
Co154 O164 2.021 . S
Co154 O166 2.137 . S
Co154 O167 2.244 . S
O155 Co154 2.216 . S
O155 C162 1.247 . S
O156 Co154 2.091 . S
O156 C162 1.261 . S
C157 O166 1.247 . S
C157 O167 1.272 . S
O158 Co154 2.004 . S
O158 C163 1.259 . S
Co159 O160 2.061 . S
Co159 O165 2.052 . S
Co159 O167 2.135 . S
O160 Co159 2.061 . S
O160 C163 1.235 . S
C161 O164 1.238 . S
C161 O165 1.241 . S
C162 O155 1.247 . S
C162 O156 1.261 . S
C163 O158 1.259 . S
C163 O160 1.235 . S
O164 Co154 2.021 . S
O164 C161 1.238 . S
O165 Co159 2.052 . S
O165 C161 1.241 . S
O166 Co154 2.137 . S
O166 C157 1.247 . S
O167 Co154 2.244 . S
O167 C157 1.272 . S
O167 Co159 2.135 . S
Co168 O169 2.216 . S
Co168 O170 2.091 . S
Co168 O172 2.004 1_455 S
Co168 O178 2.021 . S
Co168 O180 2.137 . S
Co168 O181 2.244 . S
O169 Co168 2.216 . S
O169 C176 1.247 . S
O170 Co168 2.091 . S
O170 C176 1.261 . S
C171 O180 1.247 . S
C171 O181 1.272 . S
O172 Co168 2.004 1_655 S
O172 C177 1.259 . S
Co173 O174 2.061 . S
Co173 O179 2.052 1_655 S
Co173 O181 2.135 1_655 S
O174 Co173 2.061 . S
O174 C177 1.235 . S
C175 O178 1.238 . S
C175 O179 1.241 . S
C176 O169 1.247 . S
C176 O170 1.261 . S
C177 O172 1.259 . S
C177 O174 1.235 . S
O178 Co168 2.021 . S
O178 C175 1.238 . S
O179 Co173 2.052 1_455 S
O179 C175 1.241 . S
O180 Co168 2.137 . S
O180 C171 1.247 . S
O181 Co168 2.244 . S
O181 C171 1.272 . S
O181 Co173 2.135 1_455 S
Co182 O183 2.216 . S
Co182 O184 2.091 . S
Co182 O186 2.004 1_655 S
Co182 O192 2.021 . S
Co182 O194 2.137 . S
Co182 O195 2.244 1_655 S
O183 Co182 2.216 . S
O183 C190 1.247 . S
O184 Co182 2.091 . S
O184 C190 1.261 . S
C185 O194 1.233 1_455 S
C185 O195 1.283 . S
O186 Co182 2.004 1_455 S
O186 C191 1.259 . S
Co187 O188 2.061 . S
Co187 O193 2.052 . S
Co187 O195 2.135 . S
O188 Co187 2.061 . S
O188 C191 1.235 . S
C189 O192 1.238 1_455 S
C189 O193 1.241 . S
C190 O183 1.247 . S
C190 O184 1.261 . S
C191 O186 1.259 . S
C191 O188 1.235 . S
O192 Co182 2.021 . S
O192 C189 1.238 1_655 S
O193 Co187 2.052 . S
O193 C189 1.241 . S
O194 Co182 2.137 . S
O194 C185 1.233 1_655 S
O195 Co182 2.244 1_455 S
O195 C185 1.283 . S
O195 Co187 2.135 . S
Co196 O197 2.216 . S
Co196 O198 2.091 . S
Co196 O200 2.004 . S
Co196 O206 2.021 . S
Co196 O208 2.137 . S
Co196 O209 2.244 . S
O197 Co196 2.216 . S
O197 C204 1.247 . S
O198 Co196 2.091 . S
O198 C204 1.261 . S
C199 O208 1.247 . S
C199 O209 1.272 . S
O200 Co196 2.004 . S
O200 C205 1.259 . S
Co201 O202 2.061 . S
Co201 O207 2.052 . S
Co201 O209 2.135 . S
O202 Co201 2.061 . S
O202 C205 1.235 . S
C203 O206 1.238 . S
C203 O207 1.241 . S
C204 O197 1.247 . S
C204 O198 1.261 . S
C205 O200 1.259 . S
C205 O202 1.235 . S
O206 Co196 2.021 . S
O206 C203 1.238 . S
O207 Co201 2.052 . S
O207 C203 1.241 . S
O208 Co196 2.137 . S
O208 C199 1.247 . S
O209 Co196 2.244 . S
O209 C199 1.272 . S
O209 Co201 2.135 . S
Co210 O211 2.216 . S
Co210 O212 2.091 . S
Co210 O214 2.004 . S
Co210 O220 2.021 . S
Co210 O222 2.137 . S
Co210 O223 2.244 . S
O211 Co210 2.216 . S
O211 C218 1.247 . S
O212 Co210 2.091 . S
O212 C218 1.261 . S
C213 O222 1.247 . S
C213 O223 1.272 . S
O214 Co210 2.004 . S
O214 C219 1.259 . S
Co215 O216 2.061 . S
Co215 O221 2.052 . S
Co215 O223 2.135 . S
O216 Co215 2.061 . S
O216 C219 1.235 . S
C217 O220 1.238 . S
C217 O221 1.241 . S
C218 O211 1.247 . S
C218 O212 1.261 . S
C219 O214 1.259 . S
C219 O216 1.235 . S
O220 Co210 2.021 . S
O220 C217 1.238 . S
O221 Co215 2.052 . S
O221 C217 1.241 . S
O222 Co210 2.137 . S
O222 C213 1.247 . S
O223 Co210 2.244 . S
O223 C213 1.272 . S
O223 Co215 2.135 . S
Co224 O225 2.216 . S
Co224 O226 2.091 . S
Co224 O228 2.004 . S
Co224 O234 2.021 . S
Co224 O236 2.137 . S
Co224 O237 2.244 . S
O225 Co224 2.216 . S
O225 C232 1.247 . S
O226 Co224 2.091 . S
O226 C232 1.261 . S
C227 O236 1.247 . S
C227 O237 1.272 . S
O228 Co224 2.004 . S
O228 C233 1.259 . S
Co229 O230 2.061 . S
Co229 O235 2.052 . S
Co229 O237 2.135 . S
O230 Co229 2.061 . S
O230 C233 1.235 . S
C231 O234 1.238 . S
C231 O235 1.241 . S
C232 O225 1.247 . S
C232 O226 1.261 . S
C233 O228 1.259 . S
C233 O230 1.235 . S
O234 Co224 2.021 . S
O234 C231 1.238 . S
O235 Co229 2.052 . S
O235 C231 1.241 . S
O236 Co224 2.137 . S
O236 C227 1.247 . S
O237 Co224 2.244 . S
O237 C227 1.272 . S
O237 Co229 2.135 . S
Co238 O239 2.216 . S
Co238 O240 2.091 . S
Co238 O242 2.004 . S
Co238 O248 2.021 . S
Co238 O250 2.137 . S
Co238 O251 2.244 . S
O239 Co238 2.216 . S
O239 C246 1.247 . S
O240 Co238 2.091 . S
O240 C246 1.261 . S
C241 O250 1.247 . S
C241 O251 1.272 . S
O242 Co238 2.004 . S
O242 C247 1.259 . S
Co243 O244 2.061 . S
Co243 O249 2.052 . S
Co243 O251 2.135 . S
O244 Co243 2.061 . S
O244 C247 1.235 . S
C245 O248 1.238 . S
C245 O249 1.241 . S
C246 O239 1.247 . S
C246 O240 1.261 . S
C247 O242 1.259 . S
C247 O244 1.235 . S
O248 Co238 2.021 . S
O248 C245 1.238 . S
O249 Co243 2.052 . S
O249 C245 1.241 . S
O250 Co238 2.137 . S
O250 C241 1.247 . S
O251 Co238 2.244 . S
O251 C241 1.272 . S
O251 Co243 2.135 . S
Co252 O253 2.174 1_545 S
Co252 O254 2.064 1_545 S
Co252 O256 2.042 . S
Co252 O262 2.024 . S
Co252 O264 2.135 1_545 S
Co252 O265 2.257 . S
O253 Co252 2.174 1_565 S
O253 C260 1.247 . S
O254 Co252 2.064 1_565 S
O254 C260 1.261 . S
C255 O264 1.247 1_545 S
C255 O265 1.272 . S
O256 Co252 2.042 . S
O256 C261 1.259 . S
Co257 O258 2.061 . S
Co257 O263 2.052 . S
Co257 O265 2.135 . S
O258 Co257 2.061 . S
O258 C261 1.235 . S
C259 O262 1.238 . S
C259 O263 1.241 . S
C260 O253 1.247 . S
C260 O254 1.261 . S
C261 O256 1.259 . S
C261 O258 1.235 . S
O262 Co252 2.024 . S
O262 C259 1.238 . S
O263 Co257 2.052 . S
O263 C259 1.241 . S
O264 Co252 2.135 1_565 S
O264 C255 1.247 1_565 S
O265 Co252 2.257 . S
O265 C255 1.272 . S
O265 Co257 2.135 . S
Co266 O267 2.216 . S
Co266 O268 2.091 . S
Co266 O270 2.004 . S
Co266 O276 2.021 . S
Co266 O278 2.137 1_554 S
Co266 O279 2.263 . S
O267 Co266 2.216 . S
O267 C274 1.247 . S
O268 Co266 2.091 . S
O268 C274 1.261 . S
C269 O278 1.247 . S
C269 O279 1.235 1_556 S
O270 Co266 2.004 . S
O270 C275 1.259 . S
Co271 O272 2.061 . S
Co271 O277 2.052 . S
Co271 O279 2.158 . S
O272 Co271 2.061 . S
O272 C275 1.235 . S
C273 O276 1.238 . S
C273 O277 1.241 . S
C274 O267 1.247 . S
C274 O268 1.261 . S
C275 O270 1.259 . S
C275 O272 1.235 . S
O276 Co266 2.021 . S
O276 C273 1.238 . S
O277 Co271 2.052 . S
O277 C273 1.241 . S
O278 Co266 2.137 1_556 S
O278 C269 1.247 . S
O279 Co266 2.263 . S
O279 C269 1.235 1_554 S
O279 Co271 2.158 . S
Co280 O281 2.216 . S
Co280 O282 2.090 1_556 S
Co280 O284 2.004 . S
Co280 O290 2.021 1_556 S
Co280 O292 2.137 . S
Co280 O293 2.244 . S
O281 Co280 2.216 . S
O281 C288 1.248 . S
O282 Co280 2.090 1_554 S
O282 C288 1.261 1_554 S
C283 O292 1.247 . S
C283 O293 1.272 . S
O284 Co280 2.004 . S
O284 C289 1.262 . S
Co285 O286 2.061 1_556 S
Co285 O291 2.046 1_556 S
Co285 O293 2.139 . S
O286 Co285 2.061 1_554 S
O286 C289 1.233 1_554 S
C287 O290 1.238 . S
C287 O291 1.241 . S
C288 O281 1.248 . S
C288 O282 1.261 1_556 S
C289 O284 1.262 . S
C289 O286 1.233 1_556 S
O290 Co280 2.021 1_554 S
O290 C287 1.238 . S
O291 Co285 2.046 1_554 S
O291 C287 1.241 . S
O292 Co280 2.137 . S
O292 C283 1.247 . S
O293 Co280 2.244 . S
O293 C283 1.272 . S
O293 Co285 2.139 . S
Co294 O295 2.216 . S
Co294 O296 2.091 . S
Co294 O298 2.004 . S
Co294 O304 2.021 . S
Co294 O306 2.137 . S
Co294 O307 2.244 . S
O295 Co294 2.216 . S
O295 C302 1.247 . S
O296 Co294 2.091 . S
O296 C302 1.261 . S
C297 O306 1.247 . S
C297 O307 1.272 . S
O298 Co294 2.004 . S
O298 C303 1.259 . S
Co299 O300 2.061 . S
Co299 O305 2.052 . S
Co299 O307 2.135 . S
O300 Co299 2.061 . S
O300 C303 1.235 . S
C301 O304 1.238 . S
C301 O305 1.241 . S
C302 O295 1.247 . S
C302 O296 1.261 . S
C303 O298 1.259 . S
C303 O300 1.235 . S
O304 Co294 2.021 . S
O304 C301 1.238 . S
O305 Co299 2.052 . S
O305 C301 1.241 . S
O306 Co294 2.137 . S
O306 C297 1.247 . S
O307 Co294 2.244 . S
O307 C297 1.272 . S
O307 Co299 2.135 . S
Co308 O309 2.216 . S
Co308 O310 2.091 . S
Co308 O312 2.004 . S
Co308 O318 2.021 . S
Co308 O320 2.137 . S
Co308 O321 2.244 . S
O309 Co308 2.216 . S
O309 C316 1.247 . S
O310 Co308 2.091 . S
O310 C316 1.261 . S
C311 O320 1.247 . S
C311 O321 1.272 . S
O312 Co308 2.004 . S
O312 C317 1.259 . S
Co313 O314 2.061 . S
Co313 O319 2.052 . S
Co313 O321 2.135 . S
O314 Co313 2.061 . S
O314 C317 1.235 . S
C315 O318 1.238 . S
C315 O319 1.241 . S
C316 O309 1.247 . S
C316 O310 1.261 . S
C317 O312 1.259 . S
C317 O314 1.235 . S
O318 Co308 2.021 . S
O318 C315 1.238 . S
O319 Co313 2.052 . S
O319 C315 1.241 . S
O320 Co308 2.137 . S
O320 C311 1.247 . S
O321 Co308 2.244 . S
O321 C311 1.272 . S
O321 Co313 2.135 . S
Co322 O323 2.216 . S
Co322 O324 2.091 . S
Co322 O326 2.004 . S
Co322 O332 2.021 . S
Co322 O334 2.137 . S
Co322 O335 2.244 . S
O323 Co322 2.216 . S
O323 C330 1.247 . S
O324 Co322 2.091 . S
O324 C330 1.261 . S
C325 O334 1.247 . S
C325 O335 1.272 . S
O326 Co322 2.004 . S
O326 C331 1.259 . S
Co327 O328 2.061 . S
Co327 O333 2.052 . S
Co327 O335 2.135 . S
O328 Co327 2.061 . S
O328 C331 1.235 . S
C329 O332 1.238 . S
C329 O333 1.241 . S
C330 O323 1.247 . S
C330 O324 1.261 . S
C331 O326 1.259 . S
C331 O328 1.235 . S
O332 Co322 2.021 . S
O332 C329 1.238 . S
O333 Co327 2.052 . S
O333 C329 1.241 . S
O334 Co322 2.137 . S
O334 C325 1.247 . S
O335 Co322 2.244 . S
O335 C325 1.272 . S
O335 Co327 2.135 . S
Co336 N341 2.009 1_554 S
Co336 O353 2.004 1_554 S
Co336 O356 2.080 1_455 S
Co336 O360 2.153 . S
Co336 O361 2.020 . S
C337 O357 1.259 . S
C337 O360 1.258 . S
Co338 N347 2.057 . S
Co338 O354 2.117 1_545 S
Co338 O355 2.020 1_455 S
Co338 O357 2.021 . S
Co338 O362 2.062 . S
C339 N341 1.316 1_655 S
C339 N342 1.347 . S
C339 H344 0.931 1_655 S
C340 N341 1.375 1_655 S
C340 C343 1.350 . S
C340 H345 0.930 . S
N341 Co336 2.009 1_556 S
N341 C339 1.316 1_455 S
N341 C340 1.375 1_455 S
N342 C339 1.347 . S
N342 C343 1.373 . S
C343 C340 1.350 . S
C343 N342 1.373 . S
C343 H364 0.931 . S
H344 C339 0.931 1_455 S
H345 C340 0.930 . S
C346 O353 1.259 1_564 S
C346 O354 1.258 . S
N347 Co338 2.057 . S
N347 C348 1.316 . S
N347 C349 1.375 1_545 S
C348 N347 1.316 . S
C348 N350 1.347 . S
C348 H359 0.931 . S
C349 N347 1.375 1_565 S
C349 C351 1.350 . S
C349 H358 0.930 . S
N350 C348 1.347 . S
N350 C351 1.373 1_545 S
C351 C349 1.350 . S
C351 N350 1.373 1_565 S
C351 H365 0.931 . S
C352 O355 1.256 . S
C352 O356 1.255 . S
O353 Co336 2.004 1_556 S
O353 C346 1.259 1_546 S
O354 Co338 2.117 1_565 S
O354 C346 1.258 . S
O355 Co338 2.020 1_655 S
O355 C352 1.256 . S
O356 Co336 2.080 1_655 S
O356 C352 1.255 . S
O357 C337 1.259 . S
O357 Co338 2.021 . S
H358 C349 0.930 . S
H359 C348 0.931 . S
O360 Co336 2.153 . S
O360 C337 1.258 . S
O361 Co336 2.020 . S
O361 C363 1.292 . S
O362 Co338 2.062 . S
O362 C363 1.255 . S
C363 O361 1.292 . S
C363 O362 1.255 . S
H364 C343 0.931 . S
H365 C351 0.931 . S
Co366 N371 2.057 . S
Co366 O383 2.021 . S
Co366 O386 2.062 . S
Co366 O390 2.117 . S
Co366 O391 2.020 . S
C367 O387 1.259 . S
C367 O390 1.258 . S
Co368 N377 2.057 . S
Co368 O384 2.117 . S
Co368 O385 2.020 . S
Co368 O387 2.021 . S
Co368 O392 2.062 . S
C369 N371 1.316 . S
C369 N372 1.347 . S
C369 H374 0.931 . S
C370 N371 1.375 . S
C370 C373 1.350 . S
C370 H375 0.930 . S
N371 Co366 2.057 . S
N371 C369 1.316 . S
N371 C370 1.375 . S
N372 C369 1.347 . S
N372 C373 1.373 . S
C373 C370 1.350 . S
C373 N372 1.373 . S
C373 H394 0.931 . S
H374 C369 0.931 . S
H375 C370 0.930 . S
C376 O383 1.259 . S
C376 O384 1.258 . S
N377 Co368 2.057 . S
N377 C378 1.316 . S
N377 C379 1.375 . S
C378 N377 1.316 . S
C378 N380 1.347 . S
C378 H389 0.931 . S
C379 N377 1.375 . S
C379 C381 1.350 . S
C379 H388 0.930 . S
N380 C378 1.347 . S
N380 C381 1.373 . S
C381 C379 1.350 . S
C381 N380 1.373 . S
C381 H395 0.931 . S
C382 O385 1.256 . S
C382 O386 1.255 . S
O383 Co366 2.021 . S
O383 C376 1.259 . S
O384 Co368 2.117 . S
O384 C376 1.258 . S
O385 Co368 2.020 . S
O385 C382 1.256 . S
O386 Co366 2.062 . S
O386 C382 1.255 . S
O387 C367 1.259 . S
O387 Co368 2.021 . S
H388 C379 0.930 . S
H389 C378 0.931 . S
O390 Co366 2.117 . S
O390 C367 1.258 . S
O391 Co366 2.020 . S
O391 C393 1.256 . S
O392 Co368 2.062 . S
O392 C393 1.255 . S
C393 O391 1.256 . S
C393 O392 1.255 . S
H394 C373 0.931 . S
H395 C381 0.931 . S
Co396 N401 2.057 . S
Co396 O413 2.021 1_545 S
Co396 O416 2.062 . S
Co396 O420 2.117 . S
Co396 O421 2.020 . S
C397 O417 1.259 . S
C397 O420 1.258 . S
Co398 N407 2.057 . S
Co398 O414 2.117 . S
Co398 O415 2.020 . S
Co398 O417 2.021 . S
Co398 O422 2.062 . S
C399 N401 1.281 1_565 S
C399 N402 1.340 1_565 S
C399 H404 0.969 . S
C400 N401 1.375 . S
C400 C403 1.350 . S
C400 H405 0.930 . S
N401 Co396 2.057 . S
N401 C399 1.281 1_545 S
N401 C400 1.375 . S
N402 C399 1.340 1_545 S
N402 C403 1.373 . S
C403 C400 1.350 . S
C403 N402 1.373 . S
C403 H424 0.931 . S
H404 C399 0.969 . S
H405 C400 0.930 . S
C406 O413 1.259 . S
C406 O414 1.258 1_565 S
N407 Co398 2.057 . S
N407 C408 1.316 . S
N407 C409 1.375 . S
C408 N407 1.316 . S
C408 N410 1.347 . S
C408 H419 0.931 . S
C409 N407 1.375 . S
C409 C411 1.350 . S
C409 H418 0.930 . S
N410 C408 1.347 . S
N410 C411 1.373 . S
C411 C409 1.350 . S
C411 N410 1.373 . S
C411 H425 0.931 . S
C412 O415 1.256 . S
C412 O416 1.255 . S
O413 Co396 2.021 1_565 S
O413 C406 1.259 . S
O414 Co398 2.117 . S
O414 C406 1.258 1_545 S
O415 Co398 2.020 . S
O415 C412 1.256 . S
O416 Co396 2.062 . S
O416 C412 1.255 . S
O417 C397 1.259 . S
O417 Co398 2.021 . S
H418 C409 0.930 . S
H419 C408 0.931 . S
O420 Co396 2.117 . S
O420 C397 1.258 . S
O421 Co396 2.020 . S
O421 C423 1.256 . S
O422 Co398 2.062 . S
O422 C423 1.255 . S
C423 O421 1.256 . S
C423 O422 1.255 . S
H424 C403 0.931 . S
H425 C411 0.931 . S
Co426 N431 2.057 . S
Co426 O443 2.021 . S
Co426 O446 2.062 . S
Co426 O450 2.117 . S
Co426 O451 2.020 . S
C427 O447 1.259 . S
C427 O450 1.258 . S
Co428 N437 2.057 . S
Co428 O444 2.117 . S
Co428 O445 2.020 . S
Co428 O447 2.021 . S
Co428 O452 2.062 . S
C429 N431 1.316 . S
C429 N432 1.347 . S
C429 H434 0.931 . S
C430 N431 1.375 . S
C430 C433 1.350 . S
C430 H435 0.930 . S
N431 Co426 2.057 . S
N431 C429 1.316 . S
N431 C430 1.375 . S
N432 C429 1.347 . S
N432 C433 1.373 . S
C433 C430 1.350 . S
C433 N432 1.373 . S
C433 H454 0.931 . S
H434 C429 0.931 . S
H435 C430 0.930 . S
C436 O443 1.259 . S
C436 O444 1.258 . S
N437 Co428 2.057 . S
N437 C438 1.316 . S
N437 C439 1.375 . S
C438 N437 1.316 . S
C438 N440 1.347 . S
C438 H449 0.931 . S
C439 N437 1.375 . S
C439 C441 1.350 . S
C439 H448 0.930 . S
N440 C438 1.347 . S
N440 C441 1.373 . S
C441 C439 1.350 . S
C441 N440 1.373 . S
C441 H455 0.931 . S
C442 O445 1.256 . S
C442 O446 1.255 . S
O443 Co426 2.021 . S
O443 C436 1.259 . S
O444 Co428 2.117 . S
O444 C436 1.258 . S
O445 Co428 2.020 . S
O445 C442 1.256 . S
O446 Co426 2.062 . S
O446 C442 1.255 . S
O447 C427 1.259 . S
O447 Co428 2.021 . S
H448 C439 0.930 . S
H449 C438 0.931 . S
O450 Co426 2.117 . S
O450 C427 1.258 . S
O451 Co426 2.020 . S
O451 C453 1.256 . S
O452 Co428 2.062 . S
O452 C453 1.255 . S
C453 O451 1.256 . S
C453 O452 1.255 . S
H454 C433 0.931 . S
H455 C441 0.931 . S
Co456 N461 2.057 1_545 S
Co456 O473 2.021 . S
Co456 O476 2.064 . S
Co456 O480 2.117 . S
Co456 O481 2.020 1_455 S
C457 O477 1.259 . S
C457 O480 1.258 . S
Co458 N467 2.057 . S
Co458 O474 2.117 . S
Co458 O475 2.020 . S
Co458 O477 2.021 . S
Co458 O482 2.062 1_455 S
C459 N461 1.316 . S
C459 N462 1.347 . S
C459 H464 0.931 . S
C460 N461 1.375 1_655 S
C460 C463 1.350 . S
C460 H465 0.930 . S
N461 Co456 2.057 1_565 S
N461 C459 1.316 . S
N461 C460 1.375 1_455 S
N462 C459 1.347 . S
N462 C463 1.373 1_455 S
C463 C460 1.350 . S
C463 N462 1.373 1_655 S
C463 H484 0.931 . S
H464 C459 0.931 . S
H465 C460 0.930 . S
C466 O473 1.259 . S
C466 O474 1.258 . S
N467 Co458 2.057 . S
N467 C468 1.316 . S
N467 C469 1.375 . S
C468 N467 1.316 . S
C468 N470 1.347 . S
C468 H479 0.931 . S
C469 N467 1.375 . S
C469 C471 1.350 . S
C469 H478 0.930 . S
N470 C468 1.347 . S
N470 C471 1.373 . S
C471 C469 1.350 . S
C471 N470 1.373 . S
C471 H485 0.931 . S
C472 O475 1.256 . S
C472 O476 1.261 . S
O473 Co456 2.021 . S
O473 C466 1.259 . S
O474 Co458 2.117 . S
O474 C466 1.258 . S
O475 Co458 2.020 . S
O475 C472 1.256 . S
O476 Co456 2.064 . S
O476 C472 1.261 . S
O477 C457 1.259 . S
O477 Co458 2.021 . S
H478 C469 0.930 . S
H479 C468 0.931 . S
O480 Co456 2.117 . S
O480 C457 1.258 . S
O481 Co456 2.020 1_655 S
O481 C483 1.256 . S
O482 Co458 2.062 1_655 S
O482 C483 1.255 . S
C483 O481 1.256 . S
C483 O482 1.255 . S
H484 C463 0.931 . S
H485 C471 0.931 . S
Co486 N491 2.057 . S
Co486 O503 2.021 . S
Co486 O506 2.062 . S
Co486 O510 2.117 . S
Co486 O511 2.020 . S
C487 O507 1.259 . S
C487 O510 1.258 . S
Co488 N497 2.057 . S
Co488 O504 2.117 . S
Co488 O505 2.020 . S
Co488 O507 2.021 . S
Co488 O512 2.062 . S
C489 N491 1.316 . S
C489 N492 1.347 . S
C489 H494 0.931 . S
C490 N491 1.375 . S
C490 C493 1.350 . S
C490 H495 0.930 . S
N491 Co486 2.057 . S
N491 C489 1.316 . S
N491 C490 1.375 . S
N492 C489 1.347 . S
N492 C493 1.373 . S
C493 C490 1.350 . S
C493 N492 1.373 . S
C493 H514 0.931 . S
H494 C489 0.931 . S
H495 C490 0.930 . S
C496 O503 1.259 . S
C496 O504 1.258 . S
N497 Co488 2.057 . S
N497 C498 1.316 . S
N497 C499 1.375 . S
C498 N497 1.316 . S
C498 N500 1.347 . S
C498 H509 0.931 . S
C499 N497 1.375 . S
C499 C501 1.350 . S
C499 H508 0.930 . S
N500 C498 1.347 . S
N500 C501 1.373 . S
C501 C499 1.350 . S
C501 N500 1.373 . S
C501 H515 0.931 . S
C502 O505 1.256 . S
C502 O506 1.255 . S
O503 Co486 2.021 . S
O503 C496 1.259 . S
O504 Co488 2.117 . S
O504 C496 1.258 . S
O505 Co488 2.020 . S
O505 C502 1.256 . S
O506 Co486 2.062 . S
O506 C502 1.255 . S
O507 C487 1.259 . S
O507 Co488 2.021 . S
H508 C499 0.930 . S
H509 C498 0.931 . S
O510 Co486 2.117 . S
O510 C487 1.258 . S
O511 Co486 2.020 . S
O511 C513 1.256 . S
O512 Co488 2.062 . S
O512 C513 1.255 . S
C513 O511 1.256 . S
C513 O512 1.255 . S
H514 C493 0.931 . S
H515 C501 0.931 . S
Co516 N521 2.057 1_554 S
Co516 O533 2.021 . S
Co516 O536 2.062 1_554 S
Co516 O540 2.117 . S
Co516 O541 2.020 1_545 S
C517 O537 1.259 . S
C517 O540 1.258 . S
Co518 N527 2.057 . S
Co518 O534 2.117 . S
Co518 O535 2.020 . S
Co518 O537 2.021 . S
Co518 O542 2.062 . S
C519 N521 1.316 . S
C519 N522 1.347 . S
C519 H524 0.931 . S
C520 N521 1.375 . S
C520 C523 1.350 . S
C520 H525 0.930 1_545 S
N521 Co516 2.057 1_556 S
N521 C519 1.316 . S
N521 C520 1.375 . S
N522 C519 1.347 . S
N522 C523 1.373 . S
C523 C520 1.350 . S
C523 N522 1.373 . S
C523 H544 0.931 1_545 S
H524 C519 0.931 . S
H525 C520 0.930 1_565 S
C526 O533 1.259 . S
C526 O534 1.258 . S
N527 Co518 2.057 . S
N527 C528 1.316 . S
N527 C529 1.375 . S
C528 N527 1.316 . S
C528 N530 1.347 . S
C528 H539 0.931 . S
C529 N527 1.375 . S
C529 C531 1.350 . S
C529 H538 0.930 . S
N530 C528 1.347 . S
N530 C531 1.373 . S
C531 C529 1.350 . S
C531 N530 1.373 . S
C531 H545 0.931 . S
C532 O535 1.256 . S
C532 O536 1.255 1_554 S
O533 Co516 2.021 . S
O533 C526 1.259 . S
O534 Co518 2.117 . S
O534 C526 1.258 . S
O535 Co518 2.020 . S
O535 C532 1.256 . S
O536 Co516 2.062 1_556 S
O536 C532 1.255 1_556 S
O537 C517 1.259 . S
O537 Co518 2.021 . S
H538 C529 0.930 . S
H539 C528 0.931 . S
O540 Co516 2.117 . S
O540 C517 1.258 . S
O541 Co516 2.020 1_565 S
O541 C543 1.256 . S
O542 Co518 2.062 . S
O542 C543 1.255 1_545 S
C543 O541 1.256 . S
C543 O542 1.255 1_565 S
H544 C523 0.931 1_565 S
H545 C531 0.931 . S
Co546 N551 2.057 . S
Co546 O563 2.021 . S
Co546 O566 2.062 . S
Co546 O570 2.117 . S
Co546 O571 2.020 . S
C547 O567 1.259 . S
C547 O570 1.258 . S
Co548 N557 2.057 . S
Co548 O564 2.117 . S
Co548 O565 2.020 . S
Co548 O567 2.021 . S
Co548 O572 2.062 . S
C549 N551 1.316 . S
C549 N552 1.347 . S
C549 H554 0.931 . S
C550 N551 1.375 . S
C550 C553 1.350 . S
C550 H555 0.930 . S
N551 Co546 2.057 . S
N551 C549 1.316 . S
N551 C550 1.375 . S
N552 C549 1.347 . S
N552 C553 1.373 . S
C553 C550 1.350 . S
C553 N552 1.373 . S
C553 H574 0.931 . S
H554 C549 0.931 . S
H555 C550 0.930 . S
C556 O563 1.259 . S
C556 O564 1.258 . S
N557 Co548 2.057 . S
N557 C558 1.316 . S
N557 C559 1.375 . S
C558 N557 1.316 . S
C558 N560 1.347 . S
C558 H569 0.931 . S
C559 N557 1.375 . S
C559 C561 1.350 . S
C559 H568 0.930 . S
N560 C558 1.347 . S
N560 C561 1.373 . S
C561 C559 1.350 . S
C561 N560 1.373 . S
C561 H575 0.931 . S
C562 O565 1.256 . S
C562 O566 1.255 . S
O563 Co546 2.021 . S
O563 C556 1.259 . S
O564 Co548 2.117 . S
O564 C556 1.258 . S
O565 Co548 2.020 . S
O565 C562 1.256 . S
O566 Co546 2.062 . S
O566 C562 1.255 . S
O567 C547 1.259 . S
O567 Co548 2.021 . S
H568 C559 0.930 . S
H569 C558 0.931 . S
O570 Co546 2.117 . S
O570 C547 1.258 . S
O571 Co546 2.020 . S
O571 C573 1.256 . S
O572 Co548 2.062 . S
O572 C573 1.255 . S
C573 O571 1.256 . S
C573 O572 1.255 . S
H574 C553 0.931 . S
H575 C561 0.931 . S
Co576 N581 2.057 . S
Co576 O593 2.021 1_554 S
Co576 O596 2.062 . S
Co576 O600 2.117 . S
Co576 O601 2.020 . S
C577 O597 1.259 . S
C577 O600 1.258 . S
Co578 N587 2.057 . S
Co578 O594 2.117 . S
Co578 O595 2.020 . S
Co578 O597 2.021 . S
Co578 O602 2.062 . S
C579 N581 1.316 1_556 S
C579 N582 1.347 1_556 S
C579 H584 0.931 . S
C580 N581 1.375 . S
C580 C583 1.350 . S
C580 H585 0.930 . S
N581 Co576 2.057 . S
N581 C579 1.316 1_554 S
N581 C580 1.375 . S
N582 C579 1.347 1_554 S
N582 C583 1.373 . S
C583 C580 1.350 . S
C583 N582 1.373 . S
C583 H604 0.931 . S
H584 C579 0.931 . S
H585 C580 0.930 . S
C586 O593 1.259 . S
C586 O594 1.258 1_556 S
N587 Co578 2.057 . S
N587 C588 1.316 . S
N587 C589 1.375 . S
C588 N587 1.316 . S
C588 N590 1.347 . S
C588 H599 0.931 . S
C589 N587 1.375 . S
C589 C591 1.350 . S
C589 H598 0.930 . S
N590 C588 1.347 . S
N590 C591 1.373 . S
C591 C589 1.350 . S
C591 N590 1.373 . S
C591 H605 0.931 . S
C592 O595 1.256 . S
C592 O596 1.255 . S
O593 Co576 2.021 1_556 S
O593 C586 1.259 . S
O594 Co578 2.117 . S
O594 C586 1.258 1_554 S
O595 Co578 2.020 . S
O595 C592 1.256 . S
O596 Co576 2.062 . S
O596 C592 1.255 . S
O597 C577 1.259 . S
O597 Co578 2.021 . S
H598 C589 0.930 . S
H599 C588 0.931 . S
O600 Co576 2.117 . S
O600 C577 1.258 . S
O601 Co576 2.020 . S
O601 C603 1.256 . S
O602 Co578 2.062 . S
O602 C603 1.255 . S
C603 O601 1.256 . S
C603 O602 1.255 . S
H604 C583 0.931 . S
H605 C591 0.931 . S
Co606 N611 2.057 . S
Co606 O623 2.021 . S
Co606 O626 2.062 . S
Co606 O630 2.117 . S
Co606 O631 2.020 . S
C607 O627 1.259 . S
C607 O630 1.258 . S
Co608 N617 2.057 . S
Co608 O624 2.117 . S
Co608 O625 2.020 . S
Co608 O627 2.021 . S
Co608 O632 2.062 . S
C609 N611 1.316 . S
C609 N612 1.347 . S
C609 H614 0.931 . S
C610 N611 1.375 . S
C610 C613 1.350 . S
C610 H615 0.930 . S
N611 Co606 2.057 . S
N611 C609 1.316 . S
N611 C610 1.375 . S
N612 C609 1.347 . S
N612 C613 1.373 . S
C613 C610 1.350 . S
C613 N612 1.373 . S
C613 H634 0.931 . S
H614 C609 0.931 . S
H615 C610 0.930 . S
C616 O623 1.259 . S
C616 O624 1.258 . S
N617 Co608 2.057 . S
N617 C618 1.316 . S
N617 C619 1.375 . S
C618 N617 1.316 . S
C618 N620 1.347 . S
C618 H629 0.931 . S
C619 N617 1.375 . S
C619 C621 1.350 . S
C619 H628 0.930 . S
N620 C618 1.347 . S
N620 C621 1.373 . S
C621 C619 1.350 . S
C621 N620 1.373 . S
C621 H635 0.931 . S
C622 O625 1.256 . S
C622 O626 1.255 . S
O623 Co606 2.021 . S
O623 C616 1.259 . S
O624 Co608 2.117 . S
O624 C616 1.258 . S
O625 Co608 2.020 . S
O625 C622 1.256 . S
O626 Co606 2.062 . S
O626 C622 1.255 . S
O627 C607 1.259 . S
O627 Co608 2.021 . S
H628 C619 0.930 . S
H629 C618 0.931 . S
O630 Co606 2.117 . S
O630 C607 1.258 . S
O631 Co606 2.020 . S
O631 C633 1.256 . S
O632 Co608 2.062 . S
O632 C633 1.255 . S
C633 O631 1.256 . S
C633 O632 1.255 . S
H634 C613 0.931 . S
H635 C621 0.931 . S
Co636 N641 2.057 . S
Co636 O653 2.021 1_455 S
Co636 O656 2.062 . S
Co636 O660 2.117 . S
Co636 O661 2.020 . S
C637 O657 1.259 . S
C637 O660 1.258 . S
Co638 N647 2.057 . S
Co638 O654 2.065 1_455 S
Co638 O655 2.020 . S
Co638 O657 2.021 . S
Co638 O662 2.062 . S
C639 N641 1.316 1_655 S
C639 N642 1.347 . S
C639 H644 0.931 . S
C640 N641 1.375 . S
C640 C643 1.350 . S
C640 H645 0.930 . S
N641 Co636 2.057 . S
N641 C639 1.316 1_455 S
N641 C640 1.375 . S
N642 C639 1.347 . S
N642 C643 1.373 1_655 S
C643 C640 1.350 . S
C643 N642 1.373 1_455 S
C643 H664 0.931 . S
H644 C639 0.931 . S
H645 C640 0.930 . S
C646 O653 1.259 . S
C646 O654 1.300 . S
N647 Co638 2.057 . S
N647 C648 1.316 . S
N647 C649 1.375 . S
C648 N647 1.316 . S
C648 N650 1.347 . S
C648 H659 0.931 . S
C649 N647 1.375 . S
C649 C651 1.350 . S
C649 H658 0.930 . S
N650 C648 1.347 . S
N650 C651 1.373 . S
C651 C649 1.350 . S
C651 N650 1.373 . S
C651 H665 0.931 . S
C652 O655 1.256 . S
C652 O656 1.255 . S
O653 Co636 2.021 1_655 S
O653 C646 1.259 . S
O654 Co638 2.065 1_655 S
O654 C646 1.300 . S
O655 Co638 2.020 . S
O655 C652 1.256 . S
O656 Co636 2.062 . S
O656 C652 1.255 . S
O657 C637 1.259 . S
O657 Co638 2.021 . S
H658 C649 0.930 . S
H659 C648 0.931 . S
O660 Co636 2.117 . S
O660 C637 1.258 . S
O661 Co636 2.020 . S
O661 C663 1.256 . S
O662 Co638 2.062 . S
O662 C663 1.255 . S
C663 O661 1.256 . S
C663 O662 1.255 . S
H664 C643 0.931 . S
H665 C651 0.931 . S
Co666 N671 2.057 . S
Co666 O683 2.021 . S
Co666 O686 2.062 . S
Co666 O690 2.117 . S
Co666 O691 2.020 . S
C667 O687 1.259 . S
C667 O690 1.258 . S
Co668 N677 2.057 . S
Co668 O684 2.117 . S
Co668 O685 2.020 . S
Co668 O687 2.021 . S
Co668 O692 2.062 . S
C669 N671 1.316 . S
C669 N672 1.347 . S
C669 H674 0.931 . S
C670 N671 1.375 . S
C670 C673 1.350 . S
C670 H675 0.930 . S
N671 Co666 2.057 . S
N671 C669 1.316 . S
N671 C670 1.375 . S
N672 C669 1.347 . S
N672 C673 1.373 . S
C673 C670 1.350 . S
C673 N672 1.373 . S
C673 H694 0.931 . S
H674 C669 0.931 . S
H675 C670 0.930 . S
C676 O683 1.259 . S
C676 O684 1.258 . S
N677 Co668 2.057 . S
N677 C678 1.316 . S
N677 C679 1.375 . S
C678 N677 1.316 . S
C678 N680 1.347 . S
C678 H689 0.931 . S
C679 N677 1.375 . S
C679 C681 1.350 . S
C679 H688 0.930 . S
N680 C678 1.347 . S
N680 C681 1.373 . S
C681 C679 1.350 . S
C681 N680 1.373 . S
C681 H695 0.931 . S
C682 O685 1.256 . S
C682 O686 1.255 . S
O683 Co666 2.021 . S
O683 C676 1.259 . S
O684 Co668 2.117 . S
O684 C676 1.258 . S
O685 Co668 2.020 . S
O685 C682 1.256 . S
O686 Co666 2.062 . S
O686 C682 1.255 . S
O687 C667 1.259 . S
O687 Co668 2.021 . S
H688 C679 0.930 . S
H689 C678 0.931 . S
O690 Co666 2.117 . S
O690 C667 1.258 . S
O691 Co666 2.020 . S
O691 C693 1.256 . S
O692 Co668 2.062 . S
O692 C693 1.255 . S
C693 O691 1.256 . S
C693 O692 1.255 . S
H694 C673 0.931 . S
H695 C681 0.931 . S
Co696 N701 2.057 . S
Co696 O713 2.021 . S
Co696 O716 2.062 . S
Co696 O720 2.117 . S
Co696 O721 2.020 . S
C697 O717 1.259 . S
C697 O720 1.258 . S
Co698 N707 2.057 . S
Co698 O714 2.117 . S
Co698 O715 2.020 . S
Co698 O717 2.021 . S
Co698 O722 2.062 . S
C699 N701 1.316 . S
C699 N702 1.347 . S
C699 H704 0.931 . S
C700 N701 1.375 . S
C700 C703 1.350 . S
C700 H705 0.930 . S
N701 Co696 2.057 . S
N701 C699 1.316 . S
N701 C700 1.375 . S
N702 C699 1.347 . S
N702 C703 1.373 . S
C703 C700 1.350 . S
C703 N702 1.373 . S
C703 H724 0.931 . S
H704 C699 0.931 . S
H705 C700 0.930 . S
C706 O713 1.259 . S
C706 O714 1.258 . S
N707 Co698 2.057 . S
N707 C708 1.316 . S
N707 C709 1.375 . S
C708 N707 1.316 . S
C708 N710 1.347 . S
C708 H719 0.931 . S
C709 N707 1.375 . S
C709 C711 1.350 . S
C709 H718 0.930 . S
N710 C708 1.347 . S
N710 C711 1.373 . S
C711 C709 1.350 . S
C711 N710 1.373 . S
C711 H725 0.931 . S
C712 O715 1.256 . S
C712 O716 1.255 . S
O713 Co696 2.021 . S
O713 C706 1.259 . S
O714 Co698 2.117 . S
O714 C706 1.258 . S
O715 Co698 2.020 . S
O715 C712 1.256 . S
O716 Co696 2.062 . S
O716 C712 1.255 . S
O717 C697 1.259 . S
O717 Co698 2.021 . S
H718 C709 0.930 . S
H719 C708 0.931 . S
O720 Co696 2.117 . S
O720 C697 1.258 . S
O721 Co696 2.020 . S
O721 C723 1.256 . S
O722 Co698 2.062 . S
O722 C723 1.255 . S
C723 O721 1.256 . S
C723 O722 1.255 . S
H724 C703 0.931 . S
H725 C711 0.931 . S
Co726 N731 2.057 . S
Co726 O743 2.021 . S
Co726 O746 2.062 . S
Co726 O750 2.117 . S
Co726 O751 2.020 . S
C727 O747 1.259 . S
C727 O750 1.258 . S
Co728 N737 2.057 . S
Co728 O744 2.117 . S
Co728 O745 2.020 . S
Co728 O747 2.021 . S
Co728 O752 2.062 . S
C729 N731 1.316 . S
C729 N732 1.347 . S
C729 H734 0.931 . S
C730 N731 1.375 . S
C730 C733 1.350 . S
C730 H735 0.930 . S
N731 Co726 2.057 . S
N731 C729 1.316 . S
N731 C730 1.375 . S
N732 C729 1.347 . S
N732 C733 1.373 . S
C733 C730 1.350 . S
C733 N732 1.373 . S
C733 H754 0.931 . S
H734 C729 0.931 . S
H735 C730 0.930 . S
C736 O743 1.259 . S
C736 O744 1.258 . S
N737 Co728 2.057 . S
N737 C738 1.316 . S
N737 C739 1.375 . S
C738 N737 1.316 . S
C738 N740 1.347 . S
C738 H749 0.931 . S
C739 N737 1.375 . S
C739 C741 1.350 . S
C739 H748 0.930 . S
N740 C738 1.347 . S
N740 C741 1.373 . S
C741 C739 1.350 . S
C741 N740 1.373 . S
C741 H755 0.931 . S
C742 O745 1.256 . S
C742 O746 1.255 . S
O743 Co726 2.021 . S
O743 C736 1.259 . S
O744 Co728 2.117 . S
O744 C736 1.258 . S
O745 Co728 2.020 . S
O745 C742 1.256 . S
O746 Co726 2.062 . S
O746 C742 1.255 . S
O747 C727 1.259 . S
O747 Co728 2.021 . S
H748 C739 0.930 . S
H749 C738 0.931 . S
O750 Co726 2.117 . S
O750 C727 1.258 . S
O751 Co726 2.020 . S
O751 C753 1.256 . S
O752 Co728 2.062 . S
O752 C753 1.255 . S
C753 O751 1.256 . S
C753 O752 1.255 . S
H754 C733 0.931 . S
H755 C741 0.931 . S
Co756 N761 2.057 . S
Co756 O773 2.021 . S
Co756 O776 2.062 . S
Co756 O780 2.117 . S
Co756 O781 2.020 . S
C757 O777 1.259 . S
C757 O780 1.258 . S
Co758 N767 2.057 . S
Co758 O774 2.117 . S
Co758 O775 2.020 . S
Co758 O777 2.021 . S
Co758 O782 2.062 . S
C759 N761 1.316 . S
C759 N762 1.347 . S
C759 H764 0.931 . S
C760 N761 1.375 . S
C760 C763 1.350 . S
C760 H765 0.930 . S
N761 Co756 2.057 . S
N761 C759 1.316 . S
N761 C760 1.375 . S
N762 C759 1.347 . S
N762 C763 1.373 . S
C763 C760 1.350 . S
C763 N762 1.373 . S
C763 H784 0.931 . S
H764 C759 0.931 . S
H765 C760 0.930 . S
C766 O773 1.259 . S
C766 O774 1.258 . S
N767 Co758 2.057 . S
N767 C768 1.316 . S
N767 C769 1.375 . S
C768 N767 1.316 . S
C768 N770 1.347 . S
C768 H779 0.931 . S
C769 N767 1.375 . S
C769 C771 1.350 . S
C769 H778 0.930 . S
N770 C768 1.347 . S
N770 C771 1.373 . S
C771 C769 1.350 . S
C771 N770 1.373 . S
C771 H785 0.931 . S
C772 O775 1.256 . S
C772 O776 1.255 . S
O773 Co756 2.021 . S
O773 C766 1.259 . S
O774 Co758 2.117 . S
O774 C766 1.258 . S
O775 Co758 2.020 . S
O775 C772 1.256 . S
O776 Co756 2.062 . S
O776 C772 1.255 . S
O777 C757 1.259 . S
O777 Co758 2.021 . S
H778 C769 0.930 . S
H779 C768 0.931 . S
O780 Co756 2.117 . S
O780 C757 1.258 . S
O781 Co756 2.020 . S
O781 C783 1.256 . S
O782 Co758 2.062 . S
O782 C783 1.255 . S
C783 O781 1.256 . S
C783 O782 1.255 . S
H784 C763 0.931 . S
H785 C771 0.931 . S
Co786 N791 2.057 1_455 S
Co786 O803 2.021 . S
Co786 O806 2.062 1_455 S
Co786 O810 2.117 . S
Co786 O811 2.020 1_554 S
C787 O807 1.259 . S
C787 O810 1.258 . S
Co788 N797 2.057 . S
Co788 O804 2.117 . S
Co788 O805 2.020 . S
Co788 O807 2.021 . S
Co788 O812 2.062 1_554 S
C789 N791 1.316 . S
C789 N792 1.347 . S
C789 H794 0.931 . S
C790 N791 1.375 1_556 S
C790 C793 1.350 . S
C790 H795 0.930 . S
N791 Co786 2.057 1_655 S
N791 C789 1.316 . S
N791 C790 1.375 1_554 S
N792 C789 1.347 . S
N792 C793 1.373 1_554 S
C793 C790 1.350 . S
C793 N792 1.373 1_556 S
C793 H814 0.931 . S
H794 C789 0.931 . S
H795 C790 0.930 . S
C796 O803 1.259 . S
C796 O804 1.258 . S
N797 Co788 2.057 . S
N797 C798 1.316 . S
N797 C799 1.375 . S
C798 N797 1.316 . S
C798 N800 1.347 . S
C798 H809 0.931 . S
C799 N797 1.375 . S
C799 C801 1.350 . S
C799 H808 0.930 . S
N800 C798 1.347 . S
N800 C801 1.373 . S
C801 C799 1.350 . S
C801 N800 1.373 . S
C801 H815 0.931 . S
C802 O805 1.256 . S
C802 O806 1.255 1_455 S
O803 Co786 2.021 . S
O803 C796 1.259 . S
O804 Co788 2.117 . S
O804 C796 1.258 . S
O805 Co788 2.020 . S
O805 C802 1.256 . S
O806 Co786 2.062 1_655 S
O806 C802 1.255 1_655 S
O807 C787 1.259 . S
O807 Co788 2.021 . S
H808 C799 0.930 . S
H809 C798 0.931 . S
O810 Co786 2.117 . S
O810 C787 1.258 . S
O811 Co786 2.020 1_556 S
O811 C813 1.256 . S
O812 Co788 2.062 1_556 S
O812 C813 1.255 . S
C813 O811 1.256 . S
C813 O812 1.255 . S
H814 C793 0.931 . S
H815 C801 0.931 . S
C816 C817 1.349 . S
C816 C818 1.327 . S
C816 H841 0.950 . S
C817 C816 1.349 . S
C817 C833 1.349 . S
C818 C816 1.327 . S
C818 C837 1.429 . S
C818 H842 0.950 . S
C819 C836 1.574 . S
C819 C838 1.368 1_655 S
C819 H843 0.949 . S
H820 C824 0.949 . S
C821 C822 1.349 1_655 S
C821 C823 1.327 . S
C821 H844 0.950 . S
C822 C821 1.349 1_455 S
C822 C834 1.349 . S
C823 C821 1.327 . S
C823 C839 1.429 1_655 S
C823 H845 0.950 . S
C824 H820 0.949 . S
C824 C832 1.574 . S
C824 C840 1.368 . S
H825 C833 0.950 1_655 S
H826 C831 0.950 1_655 S
H827 C832 0.949 . S
H828 C834 0.950 . S
H829 C835 0.950 . S
H830 C836 0.949 . S
C831 H826 0.950 1_455 S
C831 C833 1.327 . S
C831 C837 1.429 . S
C832 C824 1.574 . S
C832 H827 0.949 . S
C832 C838 1.368 . S
C833 C817 1.349 . S
C833 H825 0.950 1_455 S
C833 C831 1.327 . S
C834 C822 1.349 . S
C834 H828 0.950 . S
C834 C835 1.327 . S
C835 H829 0.950 . S
C835 C834 1.327 . S
C835 C839 1.429 . S
C836 C819 1.574 . S
C836 H830 0.949 . S
C836 C840 1.368 1_655 S
C837 C818 1.429 . S
C837 C831 1.429 . S
C837 C838 1.523 . S
C838 C819 1.368 1_455 S
C838 C832 1.368 . S
C838 C837 1.523 . S
C839 C823 1.429 1_455 S
C839 C835 1.429 . S
C839 C840 1.523 . S
C840 C824 1.368 . S
C840 C836 1.368 1_455 S
C840 C839 1.523 . S
H841 C816 0.950 . S
H842 C818 0.950 . S
H843 C819 0.949 . S
H844 C821 0.950 . S
H845 C823 0.950 . S
C846 C847 1.349 . S
C846 C848 1.327 . S
C846 H871 0.950 . S
C847 C846 1.349 . S
C847 C863 1.349 . S
C848 C846 1.327 . S
C848 C867 1.429 . S
C848 H872 0.950 . S
C849 C866 1.574 . S
C849 C868 1.368 . S
C849 H873 0.949 . S
H850 C854 0.949 . S
C851 C852 1.349 . S
C851 C853 1.327 . S
C851 H874 0.950 . S
C852 C851 1.349 . S
C852 C864 1.349 . S
C853 C851 1.327 . S
C853 C869 1.429 . S
C853 H875 0.950 . S
C854 H850 0.949 . S
C854 C862 1.574 . S
C854 C870 1.368 . S
H855 C863 0.950 . S
H856 C861 0.950 . S
H857 C862 0.949 . S
H858 C864 0.950 . S
H859 C865 0.950 . S
H860 C866 0.949 . S
C861 H856 0.950 . S
C861 C863 1.327 . S
C861 C867 1.429 . S
C862 C854 1.574 . S
C862 H857 0.949 . S
C862 C868 1.368 . S
C863 C847 1.349 . S
C863 H855 0.950 . S
C863 C861 1.327 . S
C864 C852 1.349 . S
C864 H858 0.950 . S
C864 C865 1.327 . S
C865 H859 0.950 . S
C865 C864 1.327 . S
C865 C869 1.429 . S
C866 C849 1.574 . S
C866 H860 0.949 . S
C866 C870 1.368 . S
C867 C848 1.429 . S
C867 C861 1.429 . S
C867 C868 1.523 . S
C868 C849 1.368 . S
C868 C862 1.368 . S
C868 C867 1.523 . S
C869 C853 1.429 . S
C869 C865 1.429 . S
C869 C870 1.523 . S
C870 C854 1.368 . S
C870 C866 1.368 . S
C870 C869 1.523 . S
H871 C846 0.950 . S
H872 C848 0.950 . S
H873 C849 0.949 . S
H874 C851 0.950 . S
H875 C853 0.950 . S
C876 C877 1.349 . S
C876 C878 1.327 . S
C876 H901 0.950 . S
C877 C876 1.349 . S
C877 C893 1.349 . S
C878 C876 1.327 . S
C878 C897 1.429 . S
C878 H902 0.950 . S
C879 C896 1.574 . S
C879 C898 1.368 . S
C879 H903 0.949 . S
H880 C884 0.949 . S
C881 C882 1.349 . S
C881 C883 1.327 . S
C881 H904 0.950 . S
C882 C881 1.349 . S
C882 C894 1.349 . S
C883 C881 1.327 . S
C883 C899 1.429 . S
C883 H905 0.950 . S
C884 H880 0.949 . S
C884 C892 1.574 . S
C884 C900 1.368 . S
H885 C893 0.950 . S
H886 C891 0.950 . S
H887 C892 0.949 . S
H888 C894 0.950 . S
H889 C895 0.950 . S
H890 C896 0.949 . S
C891 H886 0.950 . S
C891 C893 1.327 . S
C891 C897 1.429 . S
C892 C884 1.574 . S
C892 H887 0.949 . S
C892 C898 1.368 . S
C893 C877 1.349 . S
C893 H885 0.950 . S
C893 C891 1.327 . S
C894 C882 1.349 . S
C894 H888 0.950 . S
C894 C895 1.327 . S
C895 H889 0.950 . S
C895 C894 1.327 . S
C895 C899 1.429 . S
C896 C879 1.574 . S
C896 H890 0.949 . S
C896 C900 1.368 . S
C897 C878 1.429 . S
C897 C891 1.429 . S
C897 C898 1.523 . S
C898 C879 1.368 . S
C898 C892 1.368 . S
C898 C897 1.523 . S
C899 C883 1.429 . S
C899 C895 1.429 . S
C899 C900 1.523 . S
C900 C884 1.368 . S
C900 C896 1.368 . S
C900 C899 1.523 . S
H901 C876 0.950 . S
H902 C878 0.950 . S
H903 C879 0.949 . S
H904 C881 0.950 . S
H905 C883 0.950 . S
C906 C907 1.349 . S
C906 C908 1.327 . S
C906 H931 0.950 . S
C907 C906 1.349 . S
C907 C923 1.349 . S
C908 C906 1.327 . S
C908 C927 1.429 . S
C908 H932 0.950 . S
C909 C926 1.574 . S
C909 C928 1.368 . S
C909 H933 0.949 . S
H910 C914 0.949 . S
C911 C912 1.349 . S
C911 C913 1.327 . S
C911 H934 0.950 . S
C912 C911 1.349 . S
C912 C924 1.349 . S
C913 C911 1.327 . S
C913 C929 1.429 . S
C913 H935 0.950 . S
C914 H910 0.949 . S
C914 C922 1.574 . S
C914 C930 1.368 . S
H915 C923 0.950 . S
H916 C921 0.950 . S
H917 C922 0.949 . S
H918 C924 0.950 . S
H919 C925 0.950 . S
H920 C926 0.949 . S
C921 H916 0.950 . S
C921 C923 1.327 . S
C921 C927 1.429 . S
C922 C914 1.574 . S
C922 H917 0.949 . S
C922 C928 1.368 . S
C923 C907 1.349 . S
C923 H915 0.950 . S
C923 C921 1.327 . S
C924 C912 1.349 . S
C924 H918 0.950 . S
C924 C925 1.327 . S
C925 H919 0.950 . S
C925 C924 1.327 . S
C925 C929 1.429 . S
C926 C909 1.574 . S
C926 H920 0.949 . S
C926 C930 1.368 . S
C927 C908 1.429 . S
C927 C921 1.429 . S
C927 C928 1.523 . S
C928 C909 1.368 . S
C928 C922 1.368 . S
C928 C927 1.523 . S
C929 C913 1.429 . S
C929 C925 1.429 . S
C929 C930 1.523 . S
C930 C914 1.368 . S
C930 C926 1.368 . S
C930 C929 1.523 . S
H931 C906 0.950 . S
H932 C908 0.950 . S
H933 C909 0.949 . S
H934 C911 0.950 . S
H935 C913 0.950 . S
C936 C937 1.349 . S
C936 C938 1.327 . S
C936 H961 0.950 . S
C937 C936 1.349 . S
C937 C953 1.349 . S
C938 C936 1.327 . S
C938 C957 1.429 . S
C938 H962 1.003 . S
C939 C956 1.574 . S
C939 C958 1.368 . S
C939 H963 0.949 . S
H940 C944 0.949 1_655 S
C941 C942 1.349 . S
C941 C943 1.327 . S
C941 H964 0.950 . S
C942 C941 1.349 . S
C942 C954 1.349 1_455 S
C943 C941 1.327 . S
C943 C959 1.429 . S
C943 H965 0.950 . S
C944 H940 0.949 1_455 S
C944 C952 1.574 . S
C944 C960 1.368 . S
H945 C953 0.950 . S
H946 C951 0.950 . S
H947 C952 0.949 1_655 S
H948 C954 0.950 . S
H949 C955 0.950 . S
H950 C956 0.949 . S
C951 H946 0.950 . S
C951 C953 1.327 . S
C951 C957 1.429 . S
C952 C944 1.574 . S
C952 H947 0.949 1_455 S
C952 C958 1.368 . S
C953 C937 1.349 . S
C953 H945 0.950 . S
C953 C951 1.327 . S
C954 C942 1.349 1_655 S
C954 H948 0.950 . S
C954 C955 1.327 . S
C955 H949 0.950 . S
C955 C954 1.327 . S
C955 C959 1.429 1_655 S
C956 C939 1.574 . S
C956 H950 0.949 . S
C956 C960 1.368 . S
C957 C938 1.429 . S
C957 C951 1.429 . S
C957 C958 1.523 . S
C958 C939 1.368 . S
C958 C952 1.368 . S
C958 C957 1.523 . S
C959 C943 1.429 . S
C959 C955 1.429 1_455 S
C959 C960 1.523 . S
C960 C944 1.368 . S
C960 C956 1.368 . S
C960 C959 1.523 . S
H961 C936 0.950 . S
H962 C938 1.003 . S
H963 C939 0.949 . S
H964 C941 0.950 . S
H965 C943 0.950 . S
C966 C967 1.349 . S
C966 C968 1.327 . S
C966 H991 0.950 . S
C967 C966 1.349 . S
C967 C983 1.349 . S
C968 C966 1.327 . S
C968 C987 1.429 . S
C968 H992 0.950 . S
C969 C986 1.574 . S
C969 C988 1.368 . S
C969 H993 0.949 . S
H970 C974 0.949 . S
C971 C972 1.349 . S
C971 C973 1.327 . S
C971 H994 0.950 . S
C972 C971 1.349 . S
C972 C984 1.349 . S
C973 C971 1.327 . S
C973 C989 1.429 . S
C973 H995 0.950 . S
C974 H970 0.949 . S
C974 C982 1.574 . S
C974 C990 1.368 . S
H975 C983 0.950 . S
H976 C981 0.950 . S
H977 C982 0.949 . S
H978 C984 0.950 . S
H979 C985 0.950 . S
H980 C986 0.949 . S
C981 H976 0.950 . S
C981 C983 1.327 . S
C981 C987 1.429 . S
C982 C974 1.574 . S
C982 H977 0.949 . S
C982 C988 1.368 . S
C983 C967 1.349 . S
C983 H975 0.950 . S
C983 C981 1.327 . S
C984 C972 1.349 . S
C984 H978 0.950 . S
C984 C985 1.327 . S
C985 H979 0.950 . S
C985 C984 1.327 . S
C985 C989 1.429 . S
C986 C969 1.574 . S
C986 H980 0.949 . S
C986 C990 1.368 . S
C987 C968 1.429 . S
C987 C981 1.429 . S
C987 C988 1.523 . S
C988 C969 1.368 . S
C988 C982 1.368 . S
C988 C987 1.523 . S
C989 C973 1.429 . S
C989 C985 1.429 . S
C989 C990 1.523 . S
C990 C974 1.368 . S
C990 C986 1.368 . S
C990 C989 1.523 . S
H991 C966 0.950 . S
H992 C968 0.950 . S
H993 C969 0.949 . S
H994 C971 0.950 . S
H995 C973 0.950 . S
C996 C997 1.349 . S
C996 C998 1.327 . S
C996 H1021 0.950 . S
C997 C996 1.349 . S
C997 C1013 1.349 . S
C998 C996 1.327 . S
C998 C1017 1.429 . S
C998 H1022 0.950 . S
C999 C1016 1.574 . S
C999 C1018 1.368 . S
C999 H1023 0.949 . S
H1000 C1004 0.949 . S
C1001 C1002 1.338 1_556 S
C1001 C1003 1.327 . S
C1001 H1024 0.950 . S
C1002 C1001 1.338 1_554 S
C1002 C1014 1.344 1_554 S
C1003 C1001 1.327 . S
C1003 C1019 1.429 . S
C1003 H1025 0.950 . S
C1004 H1000 0.949 . S
C1004 C1012 1.574 . S
C1004 C1020 1.368 . S
H1005 C1013 0.950 . S
H1006 C1011 0.950 . S
H1007 C1012 0.949 . S
H1008 C1014 0.928 1_554 S
H1009 C1015 0.950 . S
H1010 C1016 0.949 . S
C1011 H1006 0.950 . S
C1011 C1013 1.327 . S
C1011 C1017 1.429 . S
C1012 C1004 1.574 . S
C1012 H1007 0.949 . S
C1012 C1018 1.368 . S
C1013 C997 1.349 . S
C1013 H1005 0.950 . S
C1013 C1011 1.327 . S
C1014 C1002 1.344 1_556 S
C1014 H1008 0.928 1_556 S
C1014 C1015 1.356 . S
C1015 H1009 0.950 . S
C1015 C1014 1.356 . S
C1015 C1019 1.429 . S
C1016 C999 1.574 . S
C1016 H1010 0.949 . S
C1016 C1020 1.368 . S
C1017 C998 1.429 . S
C1017 C1011 1.429 . S
C1017 C1018 1.523 . S
C1018 C999 1.368 . S
C1018 C1012 1.368 . S
C1018 C1017 1.523 . S
C1019 C1003 1.429 . S
C1019 C1015 1.429 . S
C1019 C1020 1.523 . S
C1020 C1004 1.368 . S
C1020 C1016 1.368 . S
C1020 C1019 1.523 . S
H1021 C996 0.950 . S
H1022 C998 0.950 . S
H1023 C999 0.949 . S
H1024 C1001 0.950 . S
H1025 C1003 0.950 . S
C1026 C1027 1.349 . S
C1026 C1028 1.327 . S
C1026 H1051 0.950 . S
C1027 C1026 1.349 . S
C1027 C1043 1.349 . S
C1028 C1026 1.327 . S
C1028 C1047 1.429 . S
C1028 H1052 0.950 . S
C1029 C1046 1.574 . S
C1029 C1048 1.368 . S
C1029 H1053 0.949 . S
H1030 C1034 0.949 . S
C1031 C1032 1.349 . S
C1031 C1033 1.327 . S
C1031 H1054 0.950 . S
C1032 C1031 1.349 . S
C1032 C1044 1.349 . S
C1033 C1031 1.327 . S
C1033 C1049 1.429 . S
C1033 H1055 0.950 . S
C1034 H1030 0.949 . S
C1034 C1042 1.574 . S
C1034 C1050 1.368 . S
H1035 C1043 0.950 . S
H1036 C1041 0.950 . S
H1037 C1042 0.949 . S
H1038 C1044 0.950 . S
H1039 C1045 0.950 . S
H1040 C1046 0.949 . S
C1041 H1036 0.950 . S
C1041 C1043 1.327 . S
C1041 C1047 1.429 . S
C1042 C1034 1.574 . S
C1042 H1037 0.949 . S
C1042 C1048 1.368 . S
C1043 C1027 1.349 . S
C1043 H1035 0.950 . S
C1043 C1041 1.327 . S
C1044 C1032 1.349 . S
C1044 H1038 0.950 . S
C1044 C1045 1.327 . S
C1045 H1039 0.950 . S
C1045 C1044 1.327 . S
C1045 C1049 1.429 . S
C1046 C1029 1.574 . S
C1046 H1040 0.949 . S
C1046 C1050 1.368 . S
C1047 C1028 1.429 . S
C1047 C1041 1.429 . S
C1047 C1048 1.523 . S
C1048 C1029 1.368 . S
C1048 C1042 1.368 . S
C1048 C1047 1.523 . S
C1049 C1033 1.429 . S
C1049 C1045 1.429 . S
C1049 C1050 1.523 . S
C1050 C1034 1.368 . S
C1050 C1046 1.368 . S
C1050 C1049 1.523 . S
H1051 C1026 0.950 . S
H1052 C1028 0.950 . S
H1053 C1029 0.949 . S
H1054 C1031 0.950 . S
H1055 C1033 0.950 . S
C1056 C1057 1.349 . S
C1056 C1058 1.327 . S
C1056 H1081 0.950 . S
C1057 C1056 1.349 . S
C1057 C1073 1.349 1_545 S
C1058 C1056 1.327 . S
C1058 C1077 1.429 . S
C1058 H1082 0.950 . S
C1059 C1076 1.574 . S
C1059 C1078 1.368 1_565 S
C1059 H1083 0.949 . S
H1060 C1064 0.949 . S
C1061 C1062 1.349 1_565 S
C1061 C1063 1.327 . S
C1061 H1084 0.950 . S
C1062 C1061 1.349 1_545 S
C1062 C1074 1.349 . S
C1063 C1061 1.327 . S
C1063 C1079 1.429 1_565 S
C1063 H1085 0.950 . S
C1064 H1060 0.949 . S
C1064 C1072 1.574 . S
C1064 C1080 1.368 . S
H1065 C1073 0.950 . S
H1066 C1071 0.950 . S
H1067 C1072 0.949 . S
H1068 C1074 0.950 . S
H1069 C1075 0.950 . S
H1070 C1076 0.949 . S
C1071 H1066 0.950 . S
C1071 C1073 1.327 . S
C1071 C1077 1.429 1_565 S
C1072 C1064 1.574 . S
C1072 H1067 0.949 . S
C1072 C1078 1.368 . S
C1073 C1057 1.349 1_565 S
C1073 H1065 0.950 . S
C1073 C1071 1.327 . S
C1074 C1062 1.349 . S
C1074 H1068 0.950 . S
C1074 C1075 1.327 . S
C1075 H1069 0.950 . S
C1075 C1074 1.327 . S
C1075 C1079 1.429 . S
C1076 C1059 1.574 . S
C1076 H1070 0.949 . S
C1076 C1080 1.368 1_565 S
C1077 C1058 1.429 . S
C1077 C1071 1.429 1_545 S
C1077 C1078 1.523 . S
C1078 C1059 1.368 1_545 S
C1078 C1072 1.368 . S
C1078 C1077 1.523 . S
C1079 C1063 1.429 1_545 S
C1079 C1075 1.429 . S
C1079 C1080 1.523 . S
C1080 C1064 1.368 . S
C1080 C1076 1.368 1_545 S
C1080 C1079 1.523 . S
H1081 C1056 0.950 . S
H1082 C1058 0.950 . S
H1083 C1059 0.949 . S
H1084 C1061 0.950 . S
H1085 C1063 0.950 . S
C1086 C1087 1.349 . S
C1086 C1088 1.327 . S
C1086 H1111 0.950 . S
C1087 C1086 1.349 . S
C1087 C1103 1.349 . S
C1088 C1086 1.327 . S
C1088 C1107 1.429 . S
C1088 H1112 0.950 . S
C1089 C1106 1.574 . S
C1089 C1108 1.368 . S
C1089 H1113 0.949 . S
H1090 C1094 0.949 . S
C1091 C1092 1.349 . S
C1091 C1093 1.327 . S
C1091 H1114 0.950 . S
C1092 C1091 1.349 . S
C1092 C1104 1.349 . S
C1093 C1091 1.327 . S
C1093 C1109 1.429 . S
C1093 H1115 0.950 . S
C1094 H1090 0.949 . S
C1094 C1102 1.574 . S
C1094 C1110 1.368 . S
H1095 C1103 0.950 . S
H1096 C1101 0.950 . S
H1097 C1102 0.949 . S
H1098 C1104 0.950 . S
H1099 C1105 0.950 . S
H1100 C1106 0.949 . S
C1101 H1096 0.950 . S
C1101 C1103 1.327 . S
C1101 C1107 1.429 . S
C1102 C1094 1.574 . S
C1102 H1097 0.949 . S
C1102 C1108 1.368 . S
C1103 C1087 1.349 . S
C1103 H1095 0.950 . S
C1103 C1101 1.327 . S
C1104 C1092 1.349 . S
C1104 H1098 0.950 . S
C1104 C1105 1.327 . S
C1105 H1099 0.950 . S
C1105 C1104 1.327 . S
C1105 C1109 1.429 . S
C1106 C1089 1.574 . S
C1106 H1100 0.949 . S
C1106 C1110 1.368 . S
C1107 C1088 1.429 . S
C1107 C1101 1.429 . S
C1107 C1108 1.523 . S
C1108 C1089 1.368 . S
C1108 C1102 1.368 . S
C1108 C1107 1.523 . S
C1109 C1093 1.429 . S
C1109 C1105 1.429 . S
C1109 C1110 1.523 . S
C1110 C1094 1.368 . S
C1110 C1106 1.368 . S
C1110 C1109 1.523 . S
H1111 C1086 0.950 . S
H1112 C1088 0.950 . S
H1113 C1089 0.949 . S
H1114 C1091 0.950 . S
H1115 C1093 0.950 . S
C1116 C1117 1.349 . S
C1116 C1118 1.327 . S
C1116 H1141 0.950 . S
C1117 C1116 1.349 . S
C1117 C1133 1.349 . S
C1118 C1116 1.327 . S
C1118 C1137 1.429 . S
C1118 H1142 0.950 . S
C1119 C1136 1.574 . S
C1119 C1138 1.368 . S
C1119 H1143 0.949 . S
H1120 C1124 0.949 . S
C1121 C1122 1.349 . S
C1121 C1123 1.327 . S
C1121 H1144 0.950 . S
C1122 C1121 1.349 . S
C1122 C1134 1.349 . S
C1123 C1121 1.327 . S
C1123 C1139 1.429 . S
C1123 H1145 0.950 . S
C1124 H1120 0.949 . S
C1124 C1132 1.574 . S
C1124 C1140 1.368 . S
H1125 C1133 0.950 . S
H1126 C1131 0.950 . S
H1127 C1132 0.949 . S
H1128 C1134 0.950 . S
H1129 C1135 0.950 . S
H1130 C1136 0.949 . S
C1131 H1126 0.950 . S
C1131 C1133 1.327 . S
C1131 C1137 1.429 . S
C1132 C1124 1.574 . S
C1132 H1127 0.949 . S
C1132 C1138 1.368 . S
C1133 C1117 1.349 . S
C1133 H1125 0.950 . S
C1133 C1131 1.327 . S
C1134 C1122 1.349 . S
C1134 H1128 0.950 . S
C1134 C1135 1.327 . S
C1135 H1129 0.950 . S
C1135 C1134 1.327 . S
C1135 C1139 1.429 . S
C1136 C1119 1.574 . S
C1136 H1130 0.949 . S
C1136 C1140 1.368 . S
C1137 C1118 1.429 . S
C1137 C1131 1.429 . S
C1137 C1138 1.523 . S
C1138 C1119 1.368 . S
C1138 C1132 1.368 . S
C1138 C1137 1.523 . S
C1139 C1123 1.429 . S
C1139 C1135 1.429 . S
C1139 C1140 1.523 . S
C1140 C1124 1.368 . S
C1140 C1136 1.368 . S
C1140 C1139 1.523 . S
H1141 C1116 0.950 . S
H1142 C1118 0.950 . S
H1143 C1119 0.949 . S
H1144 C1121 0.950 . S
H1145 C1123 0.950 . S
C1146 C1147 1.349 . S
C1146 C1148 1.327 . S
C1146 H1171 0.950 . S
C1147 C1146 1.349 . S
C1147 C1163 1.349 . S
C1148 C1146 1.327 . S
C1148 C1167 1.429 . S
C1148 H1172 0.950 . S
C1149 C1166 1.574 . S
C1149 C1168 1.368 . S
C1149 H1173 0.949 . S
H1150 C1154 0.949 . S
C1151 C1152 1.349 . S
C1151 C1153 1.327 . S
C1151 H1174 0.950 . S
C1152 C1151 1.349 . S
C1152 C1164 1.349 . S
C1153 C1151 1.327 . S
C1153 C1169 1.429 . S
C1153 H1175 0.950 . S
C1154 H1150 0.949 . S
C1154 C1162 1.574 . S
C1154 C1170 1.368 . S
H1155 C1163 0.950 . S
H1156 C1161 0.950 . S
H1157 C1162 0.949 . S
H1158 C1164 0.950 . S
H1159 C1165 0.950 . S
H1160 C1166 0.949 . S
C1161 H1156 0.950 . S
C1161 C1163 1.327 . S
C1161 C1167 1.429 . S
C1162 C1154 1.574 . S
C1162 H1157 0.949 . S
C1162 C1168 1.368 . S
C1163 C1147 1.349 . S
C1163 H1155 0.950 . S
C1163 C1161 1.327 . S
C1164 C1152 1.349 . S
C1164 H1158 0.950 . S
C1164 C1165 1.327 . S
C1165 H1159 0.950 . S
C1165 C1164 1.327 . S
C1165 C1169 1.429 . S
C1166 C1149 1.574 . S
C1166 H1160 0.949 . S
C1166 C1170 1.368 . S
C1167 C1148 1.429 . S
C1167 C1161 1.429 . S
C1167 C1168 1.523 . S
C1168 C1149 1.368 . S
C1168 C1162 1.368 . S
C1168 C1167 1.523 . S
C1169 C1153 1.429 . S
C1169 C1165 1.429 . S
C1169 C1170 1.523 . S
C1170 C1154 1.368 . S
C1170 C1166 1.368 . S
C1170 C1169 1.523 . S
H1171 C1146 0.950 . S
H1172 C1148 0.950 . S
H1173 C1149 0.949 . S
H1174 C1151 0.950 . S
H1175 C1153 0.950 . S
C1176 C1177 1.349 1_565 S
C1176 C1178 1.327 . S
C1176 H1201 0.950 . S
C1177 C1176 1.349 1_545 S
C1177 C1193 1.349 . S
C1178 C1176 1.327 . S
C1178 C1197 1.429 1_565 S
C1178 H1202 0.950 . S
C1179 C1196 1.574 . S
C1179 C1198 1.368 . S
C1179 H1203 0.949 . S
H1180 C1184 0.949 1_565 S
C1181 C1182 1.349 . S
C1181 C1183 1.327 . S
C1181 H1204 0.950 . S
C1182 C1181 1.349 . S
C1182 C1194 1.349 . S
C1183 C1181 1.327 . S
C1183 C1199 1.429 . S
C1183 H1205 0.950 . S
C1184 H1180 0.949 1_545 S
C1184 C1192 1.574 . S
C1184 C1200 1.368 . S
H1185 C1193 0.950 . S
H1186 C1191 0.950 . S
H1187 C1192 0.949 1_565 S
H1188 C1194 0.950 . S
H1189 C1195 0.950 . S
H1190 C1196 0.949 . S
C1191 H1186 0.950 . S
C1191 C1193 1.327 . S
C1191 C1197 1.429 . S
C1192 C1184 1.574 . S
C1192 H1187 0.949 1_545 S
C1192 C1198 1.368 . S
C1193 C1177 1.349 . S
C1193 H1185 0.950 . S
C1193 C1191 1.327 . S
C1194 C1182 1.349 . S
C1194 H1188 0.950 . S
C1194 C1195 1.327 . S
C1195 H1189 0.950 . S
C1195 C1194 1.327 . S
C1195 C1199 1.429 . S
C1196 C1179 1.574 . S
C1196 H1190 0.949 . S
C1196 C1200 1.368 . S
C1197 C1178 1.429 1_545 S
C1197 C1191 1.429 . S
C1197 C1198 1.523 . S
C1198 C1179 1.368 . S
C1198 C1192 1.368 . S
C1198 C1197 1.523 . S
C1199 C1183 1.429 . S
C1199 C1195 1.429 . S
C1199 C1200 1.523 . S
C1200 C1184 1.368 . S
C1200 C1196 1.368 . S
C1200 C1199 1.523 . S
H1201 C1176 0.950 . S
H1202 C1178 0.950 . S
H1203 C1179 0.949 . S
H1204 C1181 0.950 . S
H1205 C1183 0.950 . S
C1206 C1207 1.349 . S
C1206 C1208 1.327 . S
C1206 H1231 0.950 . S
C1207 C1206 1.349 . S
C1207 C1223 1.349 . S
C1208 C1206 1.327 . S
C1208 C1227 1.429 . S
C1208 H1232 0.950 . S
C1209 C1226 1.574 . S
C1209 C1228 1.368 . S
C1209 H1233 0.949 . S
H1210 C1214 0.949 . S
C1211 C1212 1.349 . S
C1211 C1213 1.327 . S
C1211 H1234 0.950 . S
C1212 C1211 1.349 . S
C1212 C1224 1.349 . S
C1213 C1211 1.327 . S
C1213 C1229 1.429 . S
C1213 H1235 0.950 . S
C1214 H1210 0.949 . S
C1214 C1222 1.574 . S
C1214 C1230 1.368 . S
H1215 C1223 0.950 . S
H1216 C1221 0.950 . S
H1217 C1222 0.949 . S
H1218 C1224 0.950 . S
H1219 C1225 0.950 . S
H1220 C1226 0.949 . S
C1221 H1216 0.950 . S
C1221 C1223 1.327 . S
C1221 C1227 1.429 . S
C1222 C1214 1.574 . S
C1222 H1217 0.949 . S
C1222 C1228 1.368 . S
C1223 C1207 1.349 . S
C1223 H1215 0.950 . S
C1223 C1221 1.327 . S
C1224 C1212 1.349 . S
C1224 H1218 0.950 . S
C1224 C1225 1.327 . S
C1225 H1219 0.950 . S
C1225 C1224 1.327 . S
C1225 C1229 1.429 . S
C1226 C1209 1.574 . S
C1226 H1220 0.949 . S
C1226 C1230 1.368 . S
C1227 C1208 1.429 . S
C1227 C1221 1.429 . S
C1227 C1228 1.523 . S
C1228 C1209 1.368 . S
C1228 C1222 1.368 . S
C1228 C1227 1.523 . S
C1229 C1213 1.429 . S
C1229 C1225 1.429 . S
C1229 C1230 1.523 . S
C1230 C1214 1.368 . S
C1230 C1226 1.368 . S
C1230 C1229 1.523 . S
H1231 C1206 0.950 . S
H1232 C1208 0.950 . S
H1233 C1209 0.949 . S
H1234 C1211 0.950 . S
H1235 C1213 0.950 . S
C1236 C1237 1.349 . S
C1236 C1238 1.327 . S
C1236 H1261 0.950 . S
C1237 C1236 1.349 . S
C1237 C1253 1.349 . S
C1238 C1236 1.327 . S
C1238 C1257 1.429 . S
C1238 H1262 0.950 . S
C1239 C1256 1.574 . S
C1239 C1258 1.368 . S
C1239 H1263 0.949 . S
H1240 C1244 0.949 . S
C1241 C1242 1.379 . S
C1241 C1243 1.335 . S
C1241 H1264 0.913 1_545 S
C1242 C1241 1.379 . S
C1242 C1254 1.349 . S
C1243 C1241 1.335 . S
C1243 C1259 1.429 . S
C1243 H1265 0.950 1_545 S
C1244 H1240 0.949 . S
C1244 C1252 1.574 . S
C1244 C1260 1.368 . S
H1245 C1253 0.950 . S
H1246 C1251 0.950 . S
H1247 C1252 0.949 . S
H1248 C1254 0.950 . S
H1249 C1255 0.950 . S
H1250 C1256 0.929 1_565 S
C1251 H1246 0.950 . S
C1251 C1253 1.327 . S
C1251 C1257 1.429 . S
C1252 C1244 1.574 . S
C1252 H1247 0.949 . S
C1252 C1258 1.368 . S
C1253 C1237 1.349 . S
C1253 H1245 0.950 . S
C1253 C1251 1.327 . S
C1254 C1242 1.349 . S
C1254 H1248 0.950 . S
C1254 C1255 1.327 . S
C1255 H1249 0.950 . S
C1255 C1254 1.327 . S
C1255 C1259 1.429 . S
C1256 C1239 1.574 . S
C1256 H1250 0.929 1_545 S
C1256 C1260 1.368 . S
C1257 C1238 1.429 . S
C1257 C1251 1.429 . S
C1257 C1258 1.523 . S
C1258 C1239 1.368 . S
C1258 C1252 1.368 . S
C1258 C1257 1.523 . S
C1259 C1243 1.429 . S
C1259 C1255 1.429 . S
C1259 C1260 1.523 . S
C1260 C1244 1.368 . S
C1260 C1256 1.368 . S
C1260 C1259 1.523 . S
H1261 C1236 0.950 . S
H1262 C1238 0.950 . S
H1263 C1239 0.949 . S
H1264 C1241 0.913 1_565 S
H1265 C1243 0.950 1_565 S
C1266 C1267 1.349 . S
C1266 C1268 1.327 . S
C1266 H1291 0.950 . S
C1267 C1266 1.349 . S
C1267 C1283 1.349 . S
C1268 C1266 1.327 . S
C1268 C1287 1.429 . S
C1268 H1292 0.950 . S
C1269 C1286 1.574 . S
C1269 C1288 1.368 . S
C1269 H1293 0.949 . S
H1270 C1274 0.949 . S
C1271 C1272 1.349 . S
C1271 C1273 1.327 . S
C1271 H1294 0.950 . S
C1272 C1271 1.349 . S
C1272 C1284 1.349 . S
C1273 C1271 1.327 . S
C1273 C1289 1.429 . S
C1273 H1295 0.950 . S
C1274 H1270 0.949 . S
C1274 C1282 1.574 . S
C1274 C1290 1.368 . S
H1275 C1283 0.950 . S
H1276 C1281 0.950 . S
H1277 C1282 0.949 . S
H1278 C1284 0.950 . S
H1279 C1285 0.950 . S
H1280 C1286 0.949 . S
C1281 H1276 0.950 . S
C1281 C1283 1.327 . S
C1281 C1287 1.429 . S
C1282 C1274 1.574 . S
C1282 H1277 0.949 . S
C1282 C1288 1.368 . S
C1283 C1267 1.349 . S
C1283 H1275 0.950 . S
C1283 C1281 1.327 . S
C1284 C1272 1.349 . S
C1284 H1278 0.950 . S
C1284 C1285 1.327 . S
C1285 H1279 0.950 . S
C1285 C1284 1.327 . S
C1285 C1289 1.429 . S
C1286 C1269 1.574 . S
C1286 H1280 0.949 . S
C1286 C1290 1.368 . S
C1287 C1268 1.429 . S
C1287 C1281 1.429 . S
C1287 C1288 1.523 . S
C1288 C1269 1.368 . S
C1288 C1282 1.368 . S
C1288 C1287 1.523 . S
C1289 C1273 1.429 . S
C1289 C1285 1.429 . S
C1289 C1290 1.523 . S
C1290 C1274 1.368 . S
C1290 C1286 1.368 . S
C1290 C1289 1.523 . S
H1291 C1266 0.950 . S
H1292 C1268 0.950 . S
H1293 C1269 0.949 . S
H1294 C1271 0.950 . S
H1295 C1273 0.950 . S
C1296 C1297 1.349 . S
C1296 C1298 1.327 . S
C1296 H1321 0.950 . S
C1297 C1296 1.349 . S
C1297 C1313 1.349 . S
C1298 C1296 1.327 . S
C1298 C1317 1.429 . S
C1298 H1322 0.950 . S
C1299 C1316 1.574 . S
C1299 C1318 1.368 . S
C1299 H1323 0.949 . S
H1300 C1304 0.949 . S
C1301 C1302 1.349 . S
C1301 C1303 1.327 . S
C1301 H1324 0.950 . S
C1302 C1301 1.349 . S
C1302 C1314 1.349 . S
C1303 C1301 1.327 . S
C1303 C1319 1.429 . S
C1303 H1325 0.950 . S
C1304 H1300 0.949 . S
C1304 C1312 1.574 . S
C1304 C1320 1.368 . S
H1305 C1313 0.950 . S
H1306 C1311 0.950 . S
H1307 C1312 0.949 . S
H1308 C1314 0.950 . S
H1309 C1315 0.950 . S
H1310 C1316 0.949 . S
C1311 H1306 0.950 . S
C1311 C1313 1.327 . S
C1311 C1317 1.429 . S
C1312 C1304 1.574 . S
C1312 H1307 0.949 . S
C1312 C1318 1.368 . S
C1313 C1297 1.349 . S
C1313 H1305 0.950 . S
C1313 C1311 1.327 . S
C1314 C1302 1.349 . S
C1314 H1308 0.950 . S
C1314 C1315 1.327 . S
C1315 H1309 0.950 . S
C1315 C1314 1.327 . S
C1315 C1319 1.429 . S
C1316 C1299 1.574 . S
C1316 H1310 0.949 . S
C1316 C1320 1.368 . S
C1317 C1298 1.429 . S
C1317 C1311 1.429 . S
C1317 C1318 1.523 . S
C1318 C1299 1.368 . S
C1318 C1312 1.368 . S
C1318 C1317 1.523 . S
C1319 C1303 1.429 . S
C1319 C1315 1.429 . S
C1319 C1320 1.523 . S
C1320 C1304 1.368 . S
C1320 C1316 1.368 . S
C1320 C1319 1.523 . S
H1321 C1296 0.950 . S
H1322 C1298 0.950 . S
H1323 C1299 0.949 . S
H1324 C1301 0.950 . S
H1325 C1303 0.950 . S
C1326 C1327 1.349 . S
C1326 C1328 1.327 . S
C1326 H1351 0.950 . S
C1327 C1326 1.349 . S
C1327 C1343 1.349 . S
C1328 C1326 1.327 . S
C1328 C1347 1.429 . S
C1328 H1352 0.950 . S
C1329 C1346 1.574 . S
C1329 C1348 1.368 . S
C1329 H1353 0.949 . S
H1330 C1334 0.949 . S
C1331 C1332 1.349 . S
C1331 C1333 1.327 . S
C1331 H1354 0.950 . S
C1332 C1331 1.349 . S
C1332 C1344 1.349 . S
C1333 C1331 1.327 . S
C1333 C1349 1.429 . S
C1333 H1355 0.950 . S
C1334 H1330 0.949 . S
C1334 C1342 1.574 . S
C1334 C1350 1.368 . S
H1335 C1343 0.950 . S
H1336 C1341 0.950 . S
H1337 C1342 0.949 . S
H1338 C1344 0.950 . S
H1339 C1345 0.950 . S
H1340 C1346 0.949 . S
C1341 H1336 0.950 . S
C1341 C1343 1.327 . S
C1341 C1347 1.429 . S
C1342 C1334 1.574 . S
C1342 H1337 0.949 . S
C1342 C1348 1.368 . S
C1343 C1327 1.349 . S
C1343 H1335 0.950 . S
C1343 C1341 1.327 . S
C1344 C1332 1.349 . S
C1344 H1338 0.950 . S
C1344 C1345 1.327 . S
C1345 H1339 0.950 . S
C1345 C1344 1.327 . S
C1345 C1349 1.429 . S
C1346 C1329 1.574 . S
C1346 H1340 0.949 . S
C1346 C1350 1.368 . S
C1347 C1328 1.429 . S
C1347 C1341 1.429 . S
C1347 C1348 1.523 . S
C1348 C1329 1.368 . S
C1348 C1342 1.368 . S
C1348 C1347 1.523 . S
C1349 C1333 1.429 . S
C1349 C1345 1.429 . S
C1349 C1350 1.523 . S
C1350 C1334 1.368 . S
C1350 C1346 1.368 . S
C1350 C1349 1.523 . S
H1351 C1326 0.950 . S
H1352 C1328 0.950 . S
H1353 C1329 0.949 . S
H1354 C1331 0.950 . S
H1355 C1333 0.950 . S
C1356 C1357 1.349 . S
C1356 C1358 1.327 . S
C1356 H1381 0.950 . S
C1357 C1356 1.349 . S
C1357 C1373 1.349 . S
C1358 C1356 1.327 . S
C1358 C1377 1.429 . S
C1358 H1382 0.950 . S
C1359 C1376 1.574 . S
C1359 C1378 1.368 . S
C1359 H1383 0.949 . S
H1360 C1364 0.949 . S
C1361 C1362 1.349 . S
C1361 C1363 1.327 . S
C1361 H1384 0.950 . S
C1362 C1361 1.349 . S
C1362 C1374 1.349 . S
C1363 C1361 1.327 . S
C1363 C1379 1.429 . S
C1363 H1385 0.950 . S
C1364 H1360 0.949 . S
C1364 C1372 1.574 . S
C1364 C1380 1.368 . S
H1365 C1373 0.950 . S
H1366 C1371 0.950 . S
H1367 C1372 0.949 . S
H1368 C1374 0.950 . S
H1369 C1375 0.950 . S
H1370 C1376 0.949 . S
C1371 H1366 0.950 . S
C1371 C1373 1.327 . S
C1371 C1377 1.429 . S
C1372 C1364 1.574 . S
C1372 H1367 0.949 . S
C1372 C1378 1.368 . S
C1373 C1357 1.349 . S
C1373 H1365 0.950 . S
C1373 C1371 1.327 . S
C1374 C1362 1.349 . S
C1374 H1368 0.950 . S
C1374 C1375 1.327 . S
C1375 H1369 0.950 . S
C1375 C1374 1.327 . S
C1375 C1379 1.429 . S
C1376 C1359 1.574 . S
C1376 H1370 0.949 . S
C1376 C1380 1.368 . S
C1377 C1358 1.429 . S
C1377 C1371 1.429 . S
C1377 C1378 1.523 . S
C1378 C1359 1.368 . S
C1378 C1372 1.368 . S
C1378 C1377 1.523 . S
C1379 C1363 1.429 . S
C1379 C1375 1.429 . S
C1379 C1380 1.523 . S
C1380 C1364 1.368 . S
C1380 C1376 1.368 . S
C1380 C1379 1.523 . S
H1381 C1356 0.950 . S
H1382 C1358 0.950 . S
H1383 C1359 0.949 . S
H1384 C1361 0.950 . S
H1385 C1363 0.950 . S
C1386 C1387 1.349 . S
C1386 C1388 1.327 . S
C1386 H1411 0.950 . S
C1387 C1386 1.349 . S
C1387 C1403 1.349 . S
C1388 C1386 1.327 . S
C1388 C1407 1.429 . S
C1388 H1412 0.950 . S
C1389 C1406 1.574 . S
C1389 C1408 1.368 . S
C1389 H1413 0.949 . S
H1390 C1394 0.949 . S
C1391 C1392 1.349 . S
C1391 C1393 1.327 . S
C1391 H1414 0.950 . S
C1392 C1391 1.349 . S
C1392 C1404 1.349 . S
C1393 C1391 1.327 . S
C1393 C1409 1.429 . S
C1393 H1415 0.950 . S
C1394 H1390 0.949 . S
C1394 C1402 1.574 . S
C1394 C1410 1.368 . S
H1395 C1403 0.950 . S
H1396 C1401 0.950 . S
H1397 C1402 0.949 . S
H1398 C1404 0.950 . S
H1399 C1405 0.950 . S
H1400 C1406 0.949 . S
C1401 H1396 0.950 . S
C1401 C1403 1.327 . S
C1401 C1407 1.429 . S
C1402 C1394 1.574 . S
C1402 H1397 0.949 . S
C1402 C1408 1.368 . S
C1403 C1387 1.349 . S
C1403 H1395 0.950 . S
C1403 C1401 1.327 . S
C1404 C1392 1.349 . S
C1404 H1398 0.950 . S
C1404 C1405 1.327 . S
C1405 H1399 0.950 . S
C1405 C1404 1.327 . S
C1405 C1409 1.429 . S
C1406 C1389 1.574 . S
C1406 H1400 0.949 . S
C1406 C1410 1.368 . S
C1407 C1388 1.429 . S
C1407 C1401 1.429 . S
C1407 C1408 1.523 . S
C1408 C1389 1.368 . S
C1408 C1402 1.368 . S
C1408 C1407 1.523 . S
C1409 C1393 1.429 . S
C1409 C1405 1.429 . S
C1409 C1410 1.523 . S
C1410 C1394 1.368 . S
C1410 C1406 1.368 . S
C1410 C1409 1.523 . S
H1411 C1386 0.950 . S
H1412 C1388 0.950 . S
H1413 C1389 0.949 . S
H1414 C1391 0.950 . S
H1415 C1393 0.950 . S
C1416 C1417 1.349 . S
C1416 C1418 1.327 . S
C1416 H1441 0.950 . S
C1417 C1416 1.349 . S
C1417 C1433 1.349 . S
C1418 C1416 1.327 . S
C1418 C1437 1.429 . S
C1418 H1442 0.950 . S
C1419 C1436 1.574 . S
C1419 C1438 1.368 . S
C1419 H1443 0.949 . S
H1420 C1424 0.949 . S
C1421 C1422 1.349 . S
C1421 C1423 1.327 . S
C1421 H1444 0.950 . S
C1422 C1421 1.349 . S
C1422 C1434 1.349 . S
C1423 C1421 1.327 . S
C1423 C1439 1.429 . S
C1423 H1445 0.950 . S
C1424 H1420 0.949 . S
C1424 C1432 1.574 . S
C1424 C1440 1.368 . S
H1425 C1433 0.950 . S
H1426 C1431 0.950 . S
H1427 C1432 0.949 . S
H1428 C1434 0.950 . S
H1429 C1435 0.950 . S
H1430 C1436 0.949 . S
C1431 H1426 0.950 . S
C1431 C1433 1.327 . S
C1431 C1437 1.429 . S
C1432 C1424 1.574 . S
C1432 H1427 0.949 . S
C1432 C1438 1.368 . S
C1433 C1417 1.349 . S
C1433 H1425 0.950 . S
C1433 C1431 1.327 . S
C1434 C1422 1.349 . S
C1434 H1428 0.950 . S
C1434 C1435 1.327 . S
C1435 H1429 0.950 . S
C1435 C1434 1.327 . S
C1435 C1439 1.429 . S
C1436 C1419 1.574 . S
C1436 H1430 0.949 . S
C1436 C1440 1.368 . S
C1437 C1418 1.429 . S
C1437 C1431 1.429 . S
C1437 C1438 1.523 . S
C1438 C1419 1.368 . S
C1438 C1432 1.368 . S
C1438 C1437 1.523 . S
C1439 C1423 1.429 . S
C1439 C1435 1.429 . S
C1439 C1440 1.523 . S
C1440 C1424 1.368 . S
C1440 C1436 1.368 . S
C1440 C1439 1.523 . S
H1441 C1416 0.950 . S
H1442 C1418 0.950 . S
H1443 C1419 0.949 . S
H1444 C1421 0.950 . S
H1445 C1423 0.950 . S
C1446 C1447 1.349 . S
C1446 C1448 1.327 . S
C1446 H1471 0.950 . S
C1447 C1446 1.349 . S
C1447 C1463 1.349 . S
C1448 C1446 1.327 . S
C1448 C1467 1.429 . S
C1448 H1472 0.950 . S
C1449 C1466 1.574 . S
C1449 C1468 1.368 . S
C1449 H1473 0.949 . S
H1450 C1454 0.949 . S
C1451 C1452 1.361 . S
C1451 C1453 1.357 . S
C1451 H1474 0.911 1_565 S
C1452 C1451 1.361 . S
C1452 C1464 1.349 . S
C1453 C1451 1.357 . S
C1453 C1469 1.429 . S
C1453 H1475 0.950 . S
C1454 H1450 0.949 . S
C1454 C1462 1.574 . S
C1454 C1470 1.368 . S
H1455 C1463 0.950 . S
H1456 C1461 0.950 . S
H1457 C1462 0.949 . S
H1458 C1464 0.950 . S
H1459 C1465 0.950 . S
H1460 C1466 0.949 . S
C1461 H1456 0.950 . S
C1461 C1463 1.327 . S
C1461 C1467 1.429 . S
C1462 C1454 1.574 . S
C1462 H1457 0.949 . S
C1462 C1468 1.368 . S
C1463 C1447 1.349 . S
C1463 H1455 0.950 . S
C1463 C1461 1.327 . S
C1464 C1452 1.349 . S
C1464 H1458 0.950 . S
C1464 C1465 1.327 . S
C1465 H1459 0.950 . S
C1465 C1464 1.327 . S
C1465 C1469 1.429 . S
C1466 C1449 1.574 . S
C1466 H1460 0.949 . S
C1466 C1470 1.368 . S
C1467 C1448 1.429 . S
C1467 C1461 1.429 . S
C1467 C1468 1.523 . S
C1468 C1449 1.368 . S
C1468 C1462 1.368 . S
C1468 C1467 1.523 . S
C1469 C1453 1.429 . S
C1469 C1465 1.429 . S
C1469 C1470 1.523 . S
C1470 C1454 1.368 . S
C1470 C1466 1.368 . S
C1470 C1469 1.523 . S
H1471 C1446 0.950 . S
H1472 C1448 0.950 . S
H1473 C1449 0.949 . S
H1474 C1451 0.911 1_545 S
H1475 C1453 0.950 . S
C1476 C1477 1.349 . S
C1476 C1478 1.327 . S
C1476 H1501 0.950 . S
C1477 C1476 1.349 . S
C1477 C1493 1.349 . S
C1478 C1476 1.327 . S
C1478 C1497 1.429 . S
C1478 H1502 0.950 . S
C1479 C1496 1.574 . S
C1479 C1498 1.368 . S
C1479 H1503 0.949 . S
H1480 C1484 0.949 . S
C1481 C1482 1.349 . S
C1481 C1483 1.327 . S
C1481 H1504 0.950 . S
C1482 C1481 1.349 . S
C1482 C1494 1.349 . S
C1483 C1481 1.327 . S
C1483 C1499 1.429 . S
C1483 H1505 0.950 . S
C1484 H1480 0.949 . S
C1484 C1492 1.574 . S
C1484 C1500 1.368 . S
H1485 C1493 0.950 . S
H1486 C1491 0.950 . S
H1487 C1492 0.949 . S
H1488 C1494 0.950 . S
H1489 C1495 0.950 . S
H1490 C1496 0.949 . S
C1491 H1486 0.950 . S
C1491 C1493 1.327 . S
C1491 C1497 1.429 . S
C1492 C1484 1.574 . S
C1492 H1487 0.949 . S
C1492 C1498 1.368 . S
C1493 C1477 1.349 . S
C1493 H1485 0.950 . S
C1493 C1491 1.327 . S
C1494 C1482 1.349 . S
C1494 H1488 0.950 . S
C1494 C1495 1.327 . S
C1495 H1489 0.950 . S
C1495 C1494 1.327 . S
C1495 C1499 1.429 . S
C1496 C1479 1.574 . S
C1496 H1490 0.949 . S
C1496 C1500 1.368 . S
C1497 C1478 1.429 . S
C1497 C1491 1.429 . S
C1497 C1498 1.523 . S
C1498 C1479 1.368 . S
C1498 C1492 1.368 . S
C1498 C1497 1.523 . S
C1499 C1483 1.429 . S
C1499 C1495 1.429 . S
C1499 C1500 1.523 . S
C1500 C1484 1.368 . S
C1500 C1496 1.368 . S
C1500 C1499 1.523 . S
H1501 C1476 0.950 . S
H1502 C1478 0.950 . S
H1503 C1479 0.949 . S
H1504 C1481 0.950 . S
H1505 C1483 0.950 . S
C1506 C1507 1.349 . S
C1506 C1508 1.327 . S
C1506 H1531 0.950 . S
C1507 C1506 1.349 . S
C1507 C1523 1.349 . S
C1508 C1506 1.327 . S
C1508 C1527 1.429 . S
C1508 H1532 0.950 . S
C1509 C1526 1.574 . S
C1509 C1528 1.368 . S
C1509 H1533 0.949 . S
H1510 C1514 0.949 . S
C1511 C1512 1.349 . S
C1511 C1513 1.327 . S
C1511 H1534 0.950 . S
C1512 C1511 1.349 . S
C1512 C1524 1.349 . S
C1513 C1511 1.327 . S
C1513 C1529 1.429 . S
C1513 H1535 0.950 . S
C1514 H1510 0.949 . S
C1514 C1522 1.574 . S
C1514 C1530 1.368 . S
H1515 C1523 0.950 . S
H1516 C1521 0.950 . S
H1517 C1522 0.949 . S
H1518 C1524 0.950 . S
H1519 C1525 0.950 . S
H1520 C1526 0.949 . S
C1521 H1516 0.950 . S
C1521 C1523 1.327 . S
C1521 C1527 1.429 . S
C1522 C1514 1.574 . S
C1522 H1517 0.949 . S
C1522 C1528 1.368 . S
C1523 C1507 1.349 . S
C1523 H1515 0.950 . S
C1523 C1521 1.327 . S
C1524 C1512 1.349 . S
C1524 H1518 0.950 . S
C1524 C1525 1.327 . S
C1525 H1519 0.950 . S
C1525 C1524 1.327 . S
C1525 C1529 1.429 . S
C1526 C1509 1.574 . S
C1526 H1520 0.949 . S
C1526 C1530 1.368 . S
C1527 C1508 1.429 . S
C1527 C1521 1.429 . S
C1527 C1528 1.523 . S
C1528 C1509 1.368 . S
C1528 C1522 1.368 . S
C1528 C1527 1.523 . S
C1529 C1513 1.429 . S
C1529 C1525 1.429 . S
C1529 C1530 1.523 . S
C1530 C1514 1.368 . S
C1530 C1526 1.368 . S
C1530 C1529 1.523 . S
H1531 C1506 0.950 . S
H1532 C1508 0.950 . S
H1533 C1509 0.949 . S
H1534 C1511 0.950 . S
H1535 C1513 0.950 . S
C1536 C1537 1.349 . S
C1536 C1538 1.327 . S
C1536 H1561 0.950 . S
C1537 C1536 1.349 . S
C1537 C1553 1.349 . S
C1538 C1536 1.327 . S
C1538 C1557 1.429 . S
C1538 H1562 0.950 . S
C1539 C1556 1.574 . S
C1539 C1558 1.368 . S
C1539 H1563 0.949 . S
H1540 C1544 0.949 . S
C1541 C1542 1.349 1_554 S
C1541 C1543 1.302 1_554 S
C1541 H1564 0.950 . S
C1542 C1541 1.349 1_556 S
C1542 C1554 1.349 . S
C1543 C1541 1.302 1_556 S
C1543 C1559 1.487 . S
C1543 H1565 0.919 1_556 S
C1544 H1540 0.949 . S
C1544 C1552 1.574 . S
C1544 C1560 1.368 . S
H1545 C1553 0.950 . S
H1546 C1551 0.950 . S
H1547 C1552 0.949 . S
H1548 C1554 0.950 . S
H1549 C1555 0.950 . S
H1550 C1556 0.949 . S
C1551 H1546 0.950 . S
C1551 C1553 1.327 . S
C1551 C1557 1.429 . S
C1552 C1544 1.574 . S
C1552 H1547 0.949 . S
C1552 C1558 1.368 . S
C1553 C1537 1.349 . S
C1553 H1545 0.950 . S
C1553 C1551 1.327 . S
C1554 C1542 1.349 . S
C1554 H1548 0.950 . S
C1554 C1555 1.327 . S
C1555 H1549 0.950 . S
C1555 C1554 1.327 . S
C1555 C1559 1.429 . S
C1556 C1539 1.574 . S
C1556 H1550 0.949 . S
C1556 C1560 1.368 . S
C1557 C1538 1.429 . S
C1557 C1551 1.429 . S
C1557 C1558 1.523 . S
C1558 C1539 1.368 . S
C1558 C1552 1.368 . S
C1558 C1557 1.523 . S
C1559 C1543 1.487 . S
C1559 C1555 1.429 . S
C1559 C1560 1.523 . S
C1560 C1544 1.368 . S
C1560 C1556 1.368 . S
C1560 C1559 1.523 . S
H1561 C1536 0.950 . S
H1562 C1538 0.950 . S
H1563 C1539 0.949 . S
H1564 C1541 0.950 . S
H1565 C1543 0.919 1_554 S
C1566 C1567 1.349 . S
C1566 C1568 1.327 . S
C1566 H1591 0.950 . S
C1567 C1566 1.349 . S
C1567 C1583 1.349 . S
C1568 C1566 1.327 . S
C1568 C1587 1.429 . S
C1568 H1592 0.950 . S
C1569 C1586 1.574 . S
C1569 C1588 1.368 . S
C1569 H1593 0.949 . S
H1570 C1574 0.949 . S
C1571 C1572 1.349 . S
C1571 C1573 1.327 . S
C1571 H1594 0.950 . S
C1572 C1571 1.349 . S
C1572 C1584 1.349 . S
C1573 C1571 1.327 . S
C1573 C1589 1.429 . S
C1573 H1595 0.950 . S
C1574 H1570 0.949 . S
C1574 C1582 1.574 . S
C1574 C1590 1.368 . S
H1575 C1583 0.950 . S
H1576 C1581 0.950 . S
H1577 C1582 0.949 . S
H1578 C1584 0.950 . S
H1579 C1585 0.950 . S
H1580 C1586 0.949 . S
C1581 H1576 0.950 . S
C1581 C1583 1.327 . S
C1581 C1587 1.429 . S
C1582 C1574 1.574 . S
C1582 H1577 0.949 . S
C1582 C1588 1.368 . S
C1583 C1567 1.349 . S
C1583 H1575 0.950 . S
C1583 C1581 1.327 . S
C1584 C1572 1.349 . S
C1584 H1578 0.950 . S
C1584 C1585 1.327 . S
C1585 H1579 0.950 . S
C1585 C1584 1.327 . S
C1585 C1589 1.429 . S
C1586 C1569 1.574 . S
C1586 H1580 0.949 . S
C1586 C1590 1.368 . S
C1587 C1568 1.429 . S
C1587 C1581 1.429 . S
C1587 C1588 1.523 . S
C1588 C1569 1.368 . S
C1588 C1582 1.368 . S
C1588 C1587 1.523 . S
C1589 C1573 1.429 . S
C1589 C1585 1.429 . S
C1589 C1590 1.523 . S
C1590 C1574 1.368 . S
C1590 C1586 1.368 . S
C1590 C1589 1.523 . S
H1591 C1566 0.950 . S
H1592 C1568 0.950 . S
H1593 C1569 0.949 . S
H1594 C1571 0.950 . S
H1595 C1573 0.950 . S
C1596 C1597 1.349 . S
C1596 C1598 1.327 . S
C1596 H1621 0.950 . S
C1597 C1596 1.349 . S
C1597 C1613 1.349 . S
C1598 C1596 1.327 . S
C1598 C1617 1.429 . S
C1598 H1622 0.950 . S
C1599 C1616 1.574 . S
C1599 C1618 1.368 . S
C1599 H1623 0.949 . S
H1600 C1604 0.949 . S
C1601 C1602 1.349 . S
C1601 C1603 1.327 . S
C1601 H1624 0.950 . S
C1602 C1601 1.349 . S
C1602 C1614 1.349 . S
C1603 C1601 1.327 . S
C1603 C1619 1.429 . S
C1603 H1625 0.950 . S
C1604 H1600 0.949 . S
C1604 C1612 1.574 . S
C1604 C1620 1.368 . S
H1605 C1613 0.950 . S
H1606 C1611 0.950 . S
H1607 C1612 0.949 . S
H1608 C1614 0.950 . S
H1609 C1615 0.950 . S
H1610 C1616 0.949 . S
C1611 H1606 0.950 . S
C1611 C1613 1.327 . S
C1611 C1617 1.429 . S
C1612 C1604 1.574 . S
C1612 H1607 0.949 . S
C1612 C1618 1.368 . S
C1613 C1597 1.349 . S
C1613 H1605 0.950 . S
C1613 C1611 1.327 . S
C1614 C1602 1.349 . S
C1614 H1608 0.950 . S
C1614 C1615 1.327 . S
C1615 H1609 0.950 . S
C1615 C1614 1.327 . S
C1615 C1619 1.429 . S
C1616 C1599 1.574 . S
C1616 H1610 0.949 . S
C1616 C1620 1.368 . S
C1617 C1598 1.429 . S
C1617 C1611 1.429 . S
C1617 C1618 1.523 . S
C1618 C1599 1.368 . S
C1618 C1612 1.368 . S
C1618 C1617 1.523 . S
C1619 C1603 1.429 . S
C1619 C1615 1.429 . S
C1619 C1620 1.523 . S
C1620 C1604 1.368 . S
C1620 C1616 1.368 . S
C1620 C1619 1.523 . S
H1621 C1596 0.950 . S
H1622 C1598 0.950 . S
H1623 C1599 0.949 . S
H1624 C1601 0.950 . S
H1625 C1603 0.950 . S
C1626 C1627 1.349 . S
C1626 C1628 1.327 . S
C1626 H1651 0.950 . S
C1627 C1626 1.349 . S
C1627 C1643 1.349 . S
C1628 C1626 1.327 . S
C1628 C1647 1.429 . S
C1628 H1652 0.950 . S
C1629 C1646 1.574 . S
C1629 C1648 1.368 . S
C1629 H1653 0.949 . S
H1630 C1634 0.949 . S
C1631 C1632 1.349 . S
C1631 C1633 1.327 . S
C1631 H1654 0.950 . S
C1632 C1631 1.349 . S
C1632 C1644 1.349 . S
C1633 C1631 1.327 . S
C1633 C1649 1.429 . S
C1633 H1655 0.950 . S
C1634 H1630 0.949 . S
C1634 C1642 1.574 . S
C1634 C1650 1.368 . S
H1635 C1643 0.950 . S
H1636 C1641 0.950 . S
H1637 C1642 0.949 . S
H1638 C1644 0.950 . S
H1639 C1645 0.950 . S
H1640 C1646 0.949 . S
C1641 H1636 0.950 . S
C1641 C1643 1.327 . S
C1641 C1647 1.429 . S
C1642 C1634 1.574 . S
C1642 H1637 0.949 . S
C1642 C1648 1.368 . S
C1643 C1627 1.349 . S
C1643 H1635 0.950 . S
C1643 C1641 1.327 . S
C1644 C1632 1.349 . S
C1644 H1638 0.950 . S
C1644 C1645 1.327 . S
C1645 H1639 0.950 . S
C1645 C1644 1.327 . S
C1645 C1649 1.429 . S
C1646 C1629 1.574 . S
C1646 H1640 0.949 . S
C1646 C1650 1.368 . S
C1647 C1628 1.429 . S
C1647 C1641 1.429 . S
C1647 C1648 1.523 . S
C1648 C1629 1.368 . S
C1648 C1642 1.368 . S
C1648 C1647 1.523 . S
C1649 C1633 1.429 . S
C1649 C1645 1.429 . S
C1649 C1650 1.523 . S
C1650 C1634 1.368 . S
C1650 C1646 1.368 . S
C1650 C1649 1.523 . S
H1651 C1626 0.950 . S
H1652 C1628 0.950 . S
H1653 C1629 0.949 . S
H1654 C1631 0.950 . S
H1655 C1633 0.950 . S
C1656 C1657 1.349 1_655 S
C1656 C1658 1.327 . S
C1656 H1681 0.950 . S
C1657 C1656 1.349 1_455 S
C1657 C1673 1.349 . S
C1658 C1656 1.327 . S
C1658 C1677 1.429 1_655 S
C1658 H1682 0.950 . S
C1659 C1676 1.574 . S
C1659 C1678 1.368 . S
C1659 H1683 0.949 . S
H1660 C1664 0.949 1_655 S
C1661 C1662 1.349 . S
C1661 C1663 1.327 . S
C1661 H1684 0.950 . S
C1662 C1661 1.349 . S
C1662 C1674 1.349 . S
C1663 C1661 1.327 . S
C1663 C1679 1.429 . S
C1663 H1685 0.950 . S
C1664 H1660 0.949 1_455 S
C1664 C1672 1.574 1_455 S
C1664 C1680 1.368 . S
H1665 C1673 0.950 . S
H1666 C1671 0.950 . S
H1667 C1672 0.949 . S
H1668 C1674 0.950 . S
H1669 C1675 0.907 1_655 S
H1670 C1676 0.949 . S
C1671 H1666 0.950 . S
C1671 C1673 1.327 . S
C1671 C1677 1.429 . S
C1672 C1664 1.574 1_655 S
C1672 H1667 0.949 . S
C1672 C1678 1.368 1_655 S
C1673 C1657 1.349 . S
C1673 H1665 0.950 . S
C1673 C1671 1.327 . S
C1674 C1662 1.349 . S
C1674 H1668 0.950 . S
C1674 C1675 1.327 . S
C1675 H1669 0.907 1_455 S
C1675 C1674 1.327 . S
C1675 C1679 1.429 . S
C1676 C1659 1.574 . S
C1676 H1670 0.949 . S
C1676 C1680 1.368 . S
C1677 C1658 1.429 1_455 S
C1677 C1671 1.429 . S
C1677 C1678 1.523 . S
C1678 C1659 1.368 . S
C1678 C1672 1.368 1_455 S
C1678 C1677 1.523 . S
C1679 C1663 1.429 . S
C1679 C1675 1.429 . S
C1679 C1680 1.523 . S
C1680 C1664 1.368 . S
C1680 C1676 1.368 . S
C1680 C1679 1.523 . S
H1681 C1656 0.950 . S
H1682 C1658 0.950 . S
H1683 C1659 0.949 . S
H1684 C1661 0.950 . S
H1685 C1663 0.950 . S
C1686 C1687 1.349 . S
C1686 C1688 1.327 . S
C1686 H1711 0.950 . S
C1687 C1686 1.349 . S
C1687 C1703 1.349 . S
C1688 C1686 1.327 . S
C1688 C1707 1.429 . S
C1688 H1712 0.950 . S
C1689 C1706 1.574 . S
C1689 C1708 1.368 . S
C1689 H1713 0.949 . S
H1690 C1694 0.949 . S
C1691 C1692 1.349 . S
C1691 C1693 1.327 . S
C1691 H1714 0.950 . S
C1692 C1691 1.349 . S
C1692 C1704 1.349 . S
C1693 C1691 1.327 . S
C1693 C1709 1.429 . S
C1693 H1715 0.950 . S
C1694 H1690 0.949 . S
C1694 C1702 1.574 . S
C1694 C1710 1.368 . S
H1695 C1703 0.950 . S
H1696 C1701 0.950 . S
H1697 C1702 0.949 . S
H1698 C1704 0.950 . S
H1699 C1705 0.950 . S
H1700 C1706 0.949 . S
C1701 H1696 0.950 . S
C1701 C1703 1.327 . S
C1701 C1707 1.429 . S
C1702 C1694 1.574 . S
C1702 H1697 0.949 . S
C1702 C1708 1.368 . S
C1703 C1687 1.349 . S
C1703 H1695 0.950 . S
C1703 C1701 1.327 . S
C1704 C1692 1.349 . S
C1704 H1698 0.950 . S
C1704 C1705 1.327 . S
C1705 H1699 0.950 . S
C1705 C1704 1.327 . S
C1705 C1709 1.429 . S
C1706 C1689 1.574 . S
C1706 H1700 0.949 . S
C1706 C1710 1.368 . S
C1707 C1688 1.429 . S
C1707 C1701 1.429 . S
C1707 C1708 1.523 . S
C1708 C1689 1.368 . S
C1708 C1702 1.368 . S
C1708 C1707 1.523 . S
C1709 C1693 1.429 . S
C1709 C1705 1.429 . S
C1709 C1710 1.523 . S
C1710 C1694 1.368 . S
C1710 C1706 1.368 . S
C1710 C1709 1.523 . S
H1711 C1686 0.950 . S
H1712 C1688 0.950 . S
H1713 C1689 0.949 . S
H1714 C1691 0.950 . S
H1715 C1693 0.950 . S
C1716 C1717 1.349 . S
C1716 C1718 1.327 . S
C1716 H1741 0.950 . S
C1717 C1716 1.349 . S
C1717 C1733 1.349 . S
C1718 C1716 1.327 . S
C1718 C1737 1.429 . S
C1718 H1742 0.950 . S
C1719 C1736 1.574 . S
C1719 C1738 1.368 . S
C1719 H1743 0.949 . S
H1720 C1724 0.949 . S
C1721 C1722 1.349 . S
C1721 C1723 1.327 . S
C1721 H1744 0.950 . S
C1722 C1721 1.349 . S
C1722 C1734 1.349 . S
C1723 C1721 1.327 . S
C1723 C1739 1.429 . S
C1723 H1745 0.950 . S
C1724 H1720 0.949 . S
C1724 C1732 1.574 . S
C1724 C1740 1.368 . S
H1725 C1733 0.950 . S
H1726 C1731 0.950 . S
H1727 C1732 0.949 . S
H1728 C1734 0.950 . S
H1729 C1735 0.950 . S
H1730 C1736 0.949 . S
C1731 H1726 0.950 . S
C1731 C1733 1.327 . S
C1731 C1737 1.429 . S
C1732 C1724 1.574 . S
C1732 H1727 0.949 . S
C1732 C1738 1.368 . S
C1733 C1717 1.349 . S
C1733 H1725 0.950 . S
C1733 C1731 1.327 . S
C1734 C1722 1.349 . S
C1734 H1728 0.950 . S
C1734 C1735 1.327 . S
C1735 H1729 0.950 . S
C1735 C1734 1.327 . S
C1735 C1739 1.429 . S
C1736 C1719 1.574 . S
C1736 H1730 0.949 . S
C1736 C1740 1.368 . S
C1737 C1718 1.429 . S
C1737 C1731 1.429 . S
C1737 C1738 1.523 . S
C1738 C1719 1.368 . S
C1738 C1732 1.368 . S
C1738 C1737 1.523 . S
C1739 C1723 1.429 . S
C1739 C1735 1.429 . S
C1739 C1740 1.523 . S
C1740 C1724 1.368 . S
C1740 C1736 1.368 . S
C1740 C1739 1.523 . S
H1741 C1716 0.950 . S
H1742 C1718 0.950 . S
H1743 C1719 0.949 . S
H1744 C1721 0.950 . S
H1745 C1723 0.950 . S
C1746 C1747 1.349 . S
C1746 C1748 1.327 . S
C1746 H1771 0.950 . S
C1747 C1746 1.349 . S
C1747 C1763 1.349 . S
C1748 C1746 1.327 . S
C1748 C1767 1.429 . S
C1748 H1772 0.950 . S
C1749 C1766 1.574 . S
C1749 C1768 1.368 . S
C1749 H1773 0.949 . S
H1750 C1754 0.949 . S
C1751 C1752 1.349 . S
C1751 C1753 1.327 . S
C1751 H1774 0.950 . S
C1752 C1751 1.349 . S
C1752 C1764 1.349 . S
C1753 C1751 1.327 . S
C1753 C1769 1.429 . S
C1753 H1775 0.950 . S
C1754 H1750 0.949 . S
C1754 C1762 1.574 . S
C1754 C1770 1.368 . S
H1755 C1763 0.950 . S
H1756 C1761 0.950 . S
H1757 C1762 0.949 . S
H1758 C1764 0.950 . S
H1759 C1765 0.950 . S
H1760 C1766 0.949 . S
C1761 H1756 0.950 . S
C1761 C1763 1.327 . S
C1761 C1767 1.429 . S
C1762 C1754 1.574 . S
C1762 H1757 0.949 . S
C1762 C1768 1.368 . S
C1763 C1747 1.349 . S
C1763 H1755 0.950 . S
C1763 C1761 1.327 . S
C1764 C1752 1.349 . S
C1764 H1758 0.950 . S
C1764 C1765 1.327 . S
C1765 H1759 0.950 . S
C1765 C1764 1.327 . S
C1765 C1769 1.429 . S
C1766 C1749 1.574 . S
C1766 H1760 0.949 . S
C1766 C1770 1.368 . S
C1767 C1748 1.429 . S
C1767 C1761 1.429 . S
C1767 C1768 1.523 . S
C1768 C1749 1.368 . S
C1768 C1762 1.368 . S
C1768 C1767 1.523 . S
C1769 C1753 1.429 . S
C1769 C1765 1.429 . S
C1769 C1770 1.523 . S
C1770 C1754 1.368 . S
C1770 C1766 1.368 . S
C1770 C1769 1.523 . S
H1771 C1746 0.950 . S
H1772 C1748 0.950 . S
H1773 C1749 0.949 . S
H1774 C1751 0.950 . S
H1775 C1753 0.950 . S
C1776 C1777 1.349 . S
C1776 C1778 1.327 . S
C1776 H1801 0.950 . S
C1777 C1776 1.349 . S
C1777 C1793 1.349 . S
C1778 C1776 1.327 . S
C1778 C1797 1.429 . S
C1778 H1802 0.950 . S
C1779 C1796 1.574 . S
C1779 C1798 1.368 . S
C1779 H1803 0.949 . S
H1780 C1784 0.949 . S
C1781 C1782 1.349 . S
C1781 C1783 1.327 . S
C1781 H1804 0.950 . S
C1782 C1781 1.349 . S
C1782 C1794 1.349 . S
C1783 C1781 1.327 . S
C1783 C1799 1.429 . S
C1783 H1805 0.950 . S
C1784 H1780 0.949 . S
C1784 C1792 1.574 . S
C1784 C1800 1.368 . S
H1785 C1793 0.950 . S
H1786 C1791 0.950 . S
H1787 C1792 0.949 . S
H1788 C1794 0.950 . S
H1789 C1795 0.950 . S
H1790 C1796 0.949 . S
C1791 H1786 0.950 . S
C1791 C1793 1.327 . S
C1791 C1797 1.429 . S
C1792 C1784 1.574 . S
C1792 H1787 0.949 . S
C1792 C1798 1.368 . S
C1793 C1777 1.349 . S
C1793 H1785 0.950 . S
C1793 C1791 1.327 . S
C1794 C1782 1.349 . S
C1794 H1788 0.950 . S
C1794 C1795 1.327 . S
C1795 H1789 0.950 . S
C1795 C1794 1.327 . S
C1795 C1799 1.429 . S
C1796 C1779 1.574 . S
C1796 H1790 0.949 . S
C1796 C1800 1.368 . S
C1797 C1778 1.429 . S
C1797 C1791 1.429 . S
C1797 C1798 1.523 . S
C1798 C1779 1.368 . S
C1798 C1792 1.368 . S
C1798 C1797 1.523 . S
C1799 C1783 1.429 . S
C1799 C1795 1.429 . S
C1799 C1800 1.523 . S
C1800 C1784 1.368 . S
C1800 C1796 1.368 . S
C1800 C1799 1.523 . S
H1801 C1776 0.950 . S
H1802 C1778 0.950 . S
H1803 C1779 0.949 . S
H1804 C1781 0.950 . S
H1805 C1783 0.950 . S
C1806 C1807 1.349 . S
C1806 C1808 1.327 . S
C1806 H1831 0.950 . S
C1807 C1806 1.349 . S
C1807 C1823 1.349 . S
C1808 C1806 1.327 . S
C1808 C1827 1.429 . S
C1808 H1832 0.950 . S
C1809 C1826 1.574 . S
C1809 C1828 1.368 . S
C1809 H1833 0.949 . S
H1810 C1814 0.949 . S
C1811 C1812 1.349 . S
C1811 C1813 1.327 . S
C1811 H1834 0.950 . S
C1812 C1811 1.349 . S
C1812 C1824 1.349 . S
C1813 C1811 1.327 . S
C1813 C1829 1.429 . S
C1813 H1835 0.950 . S
C1814 H1810 0.949 . S
C1814 C1822 1.574 . S
C1814 C1830 1.368 . S
H1815 C1823 0.950 . S
H1816 C1821 0.950 . S
H1817 C1822 0.949 . S
H1818 C1824 0.950 . S
H1819 C1825 0.950 . S
H1820 C1826 0.949 . S
C1821 H1816 0.950 . S
C1821 C1823 1.327 . S
C1821 C1827 1.429 . S
C1822 C1814 1.574 . S
C1822 H1817 0.949 . S
C1822 C1828 1.368 . S
C1823 C1807 1.349 . S
C1823 H1815 0.950 . S
C1823 C1821 1.327 . S
C1824 C1812 1.349 . S
C1824 H1818 0.950 . S
C1824 C1825 1.327 . S
C1825 H1819 0.950 . S
C1825 C1824 1.327 . S
C1825 C1829 1.429 . S
C1826 C1809 1.574 . S
C1826 H1820 0.949 . S
C1826 C1830 1.368 . S
C1827 C1808 1.429 . S
C1827 C1821 1.429 . S
C1827 C1828 1.523 . S
C1828 C1809 1.368 . S
C1828 C1822 1.368 . S
C1828 C1827 1.523 . S
C1829 C1813 1.429 . S
C1829 C1825 1.429 . S
C1829 C1830 1.523 . S
C1830 C1814 1.368 . S
C1830 C1826 1.368 . S
C1830 C1829 1.523 . S
H1831 C1806 0.950 . S
H1832 C1808 0.950 . S
H1833 C1809 0.949 . S
H1834 C1811 0.950 . S
H1835 C1813 0.950 . S
C1836 C1837 1.349 1_565 S
C1836 C1838 1.327 . S
C1836 H1861 0.950 . S
C1837 C1836 1.349 1_545 S
C1837 C1853 1.349 . S
C1838 C1836 1.327 . S
C1838 C1857 1.429 1_565 S
C1838 H1862 0.950 . S
C1839 C1856 1.574 . S
C1839 C1858 1.368 . S
C1839 H1863 0.949 . S
H1840 C1844 0.949 . S
C1841 C1842 1.349 . S
C1841 C1843 1.327 . S
C1841 H1864 0.950 . S
C1842 C1841 1.349 . S
C1842 C1854 1.352 . S
C1843 C1841 1.327 . S
C1843 C1859 1.429 . S
C1843 H1865 0.950 . S
C1844 H1840 0.949 . S
C1844 C1852 1.574 . S
C1844 C1860 1.368 1_565 S
H1845 C1853 0.950 . S
H1846 C1851 0.950 . S
H1847 C1852 0.949 . S
H1848 C1854 0.947 1_565 S
H1849 C1855 0.950 . S
H1850 C1856 0.949 . S
C1851 H1846 0.950 . S
C1851 C1853 1.327 . S
C1851 C1857 1.429 . S
C1852 C1844 1.574 . S
C1852 H1847 0.949 . S
C1852 C1858 1.368 1_565 S
C1853 C1837 1.349 . S
C1853 H1845 0.950 . S
C1853 C1851 1.327 . S
C1854 C1842 1.352 . S
C1854 H1848 0.947 1_545 S
C1854 C1855 1.327 1_545 S
C1855 H1849 0.950 . S
C1855 C1854 1.327 1_565 S
C1855 C1859 1.429 1_565 S
C1856 C1839 1.574 . S
C1856 H1850 0.949 . S
C1856 C1860 1.368 . S
C1857 C1838 1.429 1_545 S
C1857 C1851 1.429 . S
C1857 C1858 1.523 . S
C1858 C1839 1.368 . S
C1858 C1852 1.368 1_545 S
C1858 C1857 1.523 . S
C1859 C1843 1.429 . S
C1859 C1855 1.429 1_545 S
C1859 C1860 1.523 . S
C1860 C1844 1.368 1_545 S
C1860 C1856 1.368 . S
C1860 C1859 1.523 . S
H1861 C1836 0.950 . S
H1862 C1838 0.950 . S
H1863 C1839 0.949 . S
H1864 C1841 0.950 . S
H1865 C1843 0.950 . S
C1866 C1867 1.349 . S
C1866 C1868 1.327 . S
C1866 H1891 0.950 . S
C1867 C1866 1.349 . S
C1867 C1883 1.349 . S
C1868 C1866 1.327 . S
C1868 C1887 1.429 . S
C1868 H1892 0.950 . S
C1869 C1886 1.574 . S
C1869 C1888 1.368 . S
C1869 H1893 0.949 . S
H1870 C1874 0.949 . S
C1871 C1872 1.349 . S
C1871 C1873 1.327 . S
C1871 H1894 0.950 . S
C1872 C1871 1.349 . S
C1872 C1884 1.349 . S
C1873 C1871 1.327 . S
C1873 C1889 1.429 . S
C1873 H1895 0.950 . S
C1874 H1870 0.949 . S
C1874 C1882 1.574 . S
C1874 C1890 1.368 . S
H1875 C1883 0.950 . S
H1876 C1881 0.950 . S
H1877 C1882 0.949 . S
H1878 C1884 0.950 . S
H1879 C1885 0.950 . S
H1880 C1886 0.949 . S
C1881 H1876 0.950 . S
C1881 C1883 1.327 . S
C1881 C1887 1.429 . S
C1882 C1874 1.574 . S
C1882 H1877 0.949 . S
C1882 C1888 1.368 . S
C1883 C1867 1.349 . S
C1883 H1875 0.950 . S
C1883 C1881 1.327 . S
C1884 C1872 1.349 . S
C1884 H1878 0.950 . S
C1884 C1885 1.327 . S
C1885 H1879 0.950 . S
C1885 C1884 1.327 . S
C1885 C1889 1.429 . S
C1886 C1869 1.574 . S
C1886 H1880 0.949 . S
C1886 C1890 1.368 . S
C1887 C1868 1.429 . S
C1887 C1881 1.429 . S
C1887 C1888 1.523 . S
C1888 C1869 1.368 . S
C1888 C1882 1.368 . S
C1888 C1887 1.523 . S
C1889 C1873 1.429 . S
C1889 C1885 1.429 . S
C1889 C1890 1.523 . S
C1890 C1874 1.368 . S
C1890 C1886 1.368 . S
C1890 C1889 1.523 . S
H1891 C1866 0.950 . S
H1892 C1868 0.950 . S
H1893 C1869 0.949 . S
H1894 C1871 0.950 . S
H1895 C1873 0.950 . S
C1896 C1897 1.349 . S
C1896 C1898 1.327 . S
C1896 H1921 0.950 . S
C1897 C1896 1.349 . S
C1897 C1913 1.349 . S
C1898 C1896 1.327 . S
C1898 C1917 1.429 . S
C1898 H1922 0.950 . S
C1899 C1916 1.574 . S
C1899 C1918 1.368 . S
C1899 H1923 0.949 . S
H1900 C1904 0.949 . S
C1901 C1902 1.349 . S
C1901 C1903 1.327 . S
C1901 H1924 0.950 1_545 S
C1902 C1901 1.349 . S
C1902 C1914 1.349 . S
C1903 C1901 1.327 . S
C1903 C1919 1.429 . S
C1903 H1925 0.950 1_545 S
C1904 H1900 0.949 . S
C1904 C1912 1.574 . S
C1904 C1920 1.368 . S
H1905 C1913 0.950 . S
H1906 C1911 0.950 . S
H1907 C1912 0.949 . S
H1908 C1914 0.950 1_455 S
H1909 C1915 0.950 . S
H1910 C1916 0.949 . S
C1911 H1906 0.950 . S
C1911 C1913 1.327 . S
C1911 C1917 1.429 . S
C1912 C1904 1.574 . S
C1912 H1907 0.949 . S
C1912 C1918 1.368 . S
C1913 C1897 1.349 . S
C1913 H1905 0.950 . S
C1913 C1911 1.327 . S
C1914 C1902 1.349 . S
C1914 H1908 0.950 1_655 S
C1914 C1915 1.327 . S
C1915 H1909 0.950 . S
C1915 C1914 1.327 . S
C1915 C1919 1.429 . S
C1916 C1899 1.574 . S
C1916 H1910 0.949 . S
C1916 C1920 1.368 . S
C1917 C1898 1.429 . S
C1917 C1911 1.429 . S
C1917 C1918 1.523 . S
C1918 C1899 1.368 . S
C1918 C1912 1.368 . S
C1918 C1917 1.523 . S
C1919 C1903 1.429 . S
C1919 C1915 1.429 . S
C1919 C1920 1.523 . S
C1920 C1904 1.368 . S
C1920 C1916 1.368 . S
C1920 C1919 1.523 . S
H1921 C1896 0.950 . S
H1922 C1898 0.950 . S
H1923 C1899 0.949 . S
H1924 C1901 0.950 1_565 S
H1925 C1903 0.950 1_565 S
C1926 C1927 1.349 . S
C1926 C1928 1.327 . S
C1926 H1951 0.950 . S
C1927 C1926 1.349 . S
C1927 C1943 1.349 . S
C1928 C1926 1.327 . S
C1928 C1947 1.429 . S
C1928 H1952 0.950 . S
C1929 C1946 1.574 . S
C1929 C1948 1.368 . S
C1929 H1953 0.949 . S
H1930 C1934 0.949 . S
C1931 C1932 1.349 . S
C1931 C1933 1.327 . S
C1931 H1954 0.950 . S
C1932 C1931 1.349 . S
C1932 C1944 1.349 . S
C1933 C1931 1.327 . S
C1933 C1949 1.429 . S
C1933 H1955 0.950 . S
C1934 H1930 0.949 . S
C1934 C1942 1.574 . S
C1934 C1950 1.368 . S
H1935 C1943 0.950 . S
H1936 C1941 0.950 . S
H1937 C1942 0.949 . S
H1938 C1944 0.950 . S
H1939 C1945 0.950 . S
H1940 C1946 0.949 . S
C1941 H1936 0.950 . S
C1941 C1943 1.327 . S
C1941 C1947 1.429 . S
C1942 C1934 1.574 . S
C1942 H1937 0.949 . S
C1942 C1948 1.368 . S
C1943 C1927 1.349 . S
C1943 H1935 0.950 . S
C1943 C1941 1.327 . S
C1944 C1932 1.349 . S
C1944 H1938 0.950 . S
C1944 C1945 1.327 . S
C1945 H1939 0.950 . S
C1945 C1944 1.327 . S
C1945 C1949 1.429 . S
C1946 C1929 1.574 . S
C1946 H1940 0.949 . S
C1946 C1950 1.368 . S
C1947 C1928 1.429 . S
C1947 C1941 1.429 . S
C1947 C1948 1.523 . S
C1948 C1929 1.368 . S
C1948 C1942 1.368 . S
C1948 C1947 1.523 . S
C1949 C1933 1.429 . S
C1949 C1945 1.429 . S
C1949 C1950 1.523 . S
C1950 C1934 1.368 . S
C1950 C1946 1.368 . S
C1950 C1949 1.523 . S
H1951 C1926 0.950 . S
H1952 C1928 0.950 . S
H1953 C1929 0.949 . S
H1954 C1931 0.950 . S
H1955 C1933 0.950 . S
C1956 C1957 1.349 1_565 S
C1956 C1958 1.327 . S
C1956 H1981 0.950 . S
C1957 C1956 1.349 1_545 S
C1957 C1973 1.349 . S
C1958 C1956 1.327 . S
C1958 C1977 1.429 1_565 S
C1958 H1982 0.950 . S
C1959 C1976 1.574 . S
C1959 C1978 1.368 . S
C1959 H1983 0.949 . S
H1960 C1964 0.921 1_565 S
C1961 C1962 1.349 . S
C1961 C1963 1.327 . S
C1961 H1984 0.950 . S
C1962 C1961 1.349 . S
C1962 C1974 1.349 . S
C1963 C1961 1.327 . S
C1963 C1979 1.429 . S
C1963 H1985 0.950 . S
C1964 H1960 0.921 1_545 S
C1964 C1972 1.574 . S
C1964 C1980 1.368 . S
H1965 C1973 0.950 . S
H1966 C1971 0.950 . S
H1967 C1972 0.949 1_565 S
H1968 C1974 0.950 . S
H1969 C1975 0.950 . S
H1970 C1976 0.949 . S
C1971 H1966 0.950 . S
C1971 C1973 1.327 . S
C1971 C1977 1.429 . S
C1972 C1964 1.574 . S
C1972 H1967 0.949 1_545 S
C1972 C1978 1.368 . S
C1973 C1957 1.349 . S
C1973 H1965 0.950 . S
C1973 C1971 1.327 . S
C1974 C1962 1.349 . S
C1974 H1968 0.950 . S
C1974 C1975 1.327 . S
C1975 H1969 0.950 . S
C1975 C1974 1.327 . S
C1975 C1979 1.429 . S
C1976 C1959 1.574 . S
C1976 H1970 0.949 . S
C1976 C1980 1.368 . S
C1977 C1958 1.429 1_545 S
C1977 C1971 1.429 . S
C1977 C1978 1.523 . S
C1978 C1959 1.368 . S
C1978 C1972 1.368 . S
C1978 C1977 1.523 . S
C1979 C1963 1.429 . S
C1979 C1975 1.429 . S
C1979 C1980 1.523 . S
C1980 C1964 1.368 . S
C1980 C1976 1.368 . S
C1980 C1979 1.523 . S
H1981 C1956 0.950 . S
H1982 C1958 0.950 . S
H1983 C1959 0.949 . S
H1984 C1961 0.950 . S
H1985 C1963 0.950 . S
C1986 C1987 1.349 . S
C1986 C1988 1.327 . S
C1986 H2011 0.950 . S
C1987 C1986 1.349 . S
C1987 C2003 1.349 . S
C1988 C1986 1.327 . S
C1988 C2007 1.429 . S
C1988 H2012 0.950 . S
C1989 C2006 1.574 . S
C1989 C2008 1.368 . S
C1989 H2013 0.949 . S
H1990 C1994 0.949 . S
C1991 C1992 1.349 . S
C1991 C1993 1.327 . S
C1991 H2014 0.950 . S
C1992 C1991 1.349 . S
C1992 C2004 1.349 . S
C1993 C1991 1.327 . S
C1993 C2009 1.429 . S
C1993 H2015 0.950 . S
C1994 H1990 0.949 . S
C1994 C2002 1.574 . S
C1994 C2010 1.368 . S
H1995 C2003 0.950 . S
H1996 C2001 0.950 . S
H1997 C2002 0.949 . S
H1998 C2004 0.950 . S
H1999 C2005 0.950 . S
H2000 C2006 0.949 . S
C2001 H1996 0.950 . S
C2001 C2003 1.327 . S
C2001 C2007 1.429 . S
C2002 C1994 1.574 . S
C2002 H1997 0.949 . S
C2002 C2008 1.368 . S
C2003 C1987 1.349 . S
C2003 H1995 0.950 . S
C2003 C2001 1.327 . S
C2004 C1992 1.349 . S
C2004 H1998 0.950 . S
C2004 C2005 1.327 . S
C2005 H1999 0.950 . S
C2005 C2004 1.327 . S
C2005 C2009 1.429 . S
C2006 C1989 1.574 . S
C2006 H2000 0.949 . S
C2006 C2010 1.368 . S
C2007 C1988 1.429 . S
C2007 C2001 1.429 . S
C2007 C2008 1.523 . S
C2008 C1989 1.368 . S
C2008 C2002 1.368 . S
C2008 C2007 1.523 . S
C2009 C1993 1.429 . S
C2009 C2005 1.429 . S
C2009 C2010 1.523 . S
C2010 C1994 1.368 . S
C2010 C2006 1.368 . S
C2010 C2009 1.523 . S
H2011 C1986 0.950 . S
H2012 C1988 0.950 . S
H2013 C1989 0.949 . S
H2014 C1991 0.950 . S
H2015 C1993 0.950 . S
C2016 C2017 1.349 . S
C2016 C2018 1.327 . S
C2016 H2041 0.950 . S
C2017 C2016 1.349 . S
C2017 C2033 1.349 . S
C2018 C2016 1.327 . S
C2018 C2037 1.429 . S
C2018 H2042 0.950 . S
C2019 C2036 1.574 . S
C2019 C2038 1.368 . S
C2019 H2043 0.909 1_554 S
H2020 C2024 0.949 . S
C2021 C2022 1.349 . S
C2021 C2023 1.332 . S
C2021 H2044 0.950 . S
C2022 C2021 1.349 . S
C2022 C2034 1.349 1_545 S
C2023 C2021 1.332 . S
C2023 C2039 1.421 1_545 S
C2023 H2045 0.953 . S
C2024 H2020 0.949 . S
C2024 C2032 1.574 . S
C2024 C2040 1.368 . S
H2025 C2033 0.950 1_556 S
H2026 C2031 0.950 1_556 S
H2027 C2032 0.949 . S
H2028 C2034 0.950 . S
H2029 C2035 0.950 . S
H2030 C2036 0.949 . S
C2031 H2026 0.950 1_554 S
C2031 C2033 1.327 . S
C2031 C2037 1.429 . S
C2032 C2024 1.574 . S
C2032 H2027 0.949 . S
C2032 C2038 1.368 . S
C2033 C2017 1.349 . S
C2033 H2025 0.950 1_554 S
C2033 C2031 1.327 . S
C2034 C2022 1.349 1_565 S
C2034 H2028 0.950 . S
C2034 C2035 1.327 . S
C2035 H2029 0.950 . S
C2035 C2034 1.327 . S
C2035 C2039 1.429 . S
C2036 C2019 1.574 . S
C2036 H2030 0.949 . S
C2036 C2040 1.368 . S
C2037 C2018 1.429 . S
C2037 C2031 1.429 . S
C2037 C2038 1.523 . S
C2038 C2019 1.368 . S
C2038 C2032 1.368 . S
C2038 C2037 1.523 . S
C2039 C2023 1.421 1_565 S
C2039 C2035 1.429 . S
C2039 C2040 1.523 . S
C2040 C2024 1.368 . S
C2040 C2036 1.368 . S
C2040 C2039 1.523 . S
H2041 C2016 0.950 . S
H2042 C2018 0.950 . S
H2043 C2019 0.909 1_556 S
H2044 C2021 0.950 . S
H2045 C2023 0.953 . S
C2046 C2047 1.327 1_556 S
C2046 C2048 1.327 . S
C2046 H2071 0.950 . S
C2047 C2046 1.327 1_554 S
C2047 C2063 1.373 . S
C2048 C2046 1.327 . S
C2048 C2067 1.429 1_556 S
C2048 H2072 0.950 . S
C2049 C2066 1.574 . S
C2049 C2068 1.368 . S
C2049 H2073 0.949 . S
H2050 C2054 0.949 . S
C2051 C2052 1.349 . S
C2051 C2053 1.327 . S
C2051 H2074 0.950 . S
C2052 C2051 1.349 . S
C2052 C2064 1.349 1_554 S
C2053 C2051 1.327 . S
C2053 C2069 1.429 . S
C2053 H2075 0.950 . S
C2054 H2050 0.949 . S
C2054 C2062 1.574 . S
C2054 C2070 1.368 1_556 S
H2055 C2063 0.950 . S
H2056 C2061 0.950 . S
H2057 C2062 0.949 . S
H2058 C2064 0.950 . S
H2059 C2065 0.950 . S
H2060 C2066 0.949 . S
C2061 H2056 0.950 . S
C2061 C2063 1.327 . S
C2061 C2067 1.429 . S
C2062 C2054 1.574 . S
C2062 H2057 0.949 . S
C2062 C2068 1.368 1_556 S
C2063 C2047 1.373 . S
C2063 H2055 0.950 . S
C2063 C2061 1.327 . S
C2064 C2052 1.349 1_556 S
C2064 H2058 0.950 . S
C2064 C2065 1.327 . S
C2065 H2059 0.950 . S
C2065 C2064 1.327 . S
C2065 C2069 1.429 1_556 S
C2066 C2049 1.574 . S
C2066 H2060 0.949 . S
C2066 C2070 1.368 . S
C2067 C2048 1.429 1_554 S
C2067 C2061 1.429 . S
C2067 C2068 1.523 . S
C2068 C2049 1.368 . S
C2068 C2062 1.368 1_554 S
C2068 C2067 1.523 . S
C2069 C2053 1.429 . S
C2069 C2065 1.429 1_554 S
C2069 C2070 1.523 . S
C2070 C2054 1.368 1_554 S
C2070 C2066 1.368 . S
C2070 C2069 1.523 . S
H2071 C2046 0.950 . S
H2072 C2048 0.950 . S
H2073 C2049 0.949 . S
H2074 C2051 0.950 . S
H2075 C2053 0.950 . S
C2076 C2077 1.349 . S
C2076 C2078 1.327 . S
C2076 H2101 0.950 . S
C2077 C2076 1.349 . S
C2077 C2093 1.349 . S
C2078 C2076 1.327 . S
C2078 C2097 1.429 . S
C2078 H2102 0.950 . S
C2079 C2096 1.574 . S
C2079 C2098 1.368 . S
C2079 H2103 0.949 . S
H2080 C2084 0.949 . S
C2081 C2082 1.349 . S
C2081 C2083 1.327 . S
C2081 H2104 0.950 . S
C2082 C2081 1.349 . S
C2082 C2094 1.349 . S
C2083 C2081 1.327 . S
C2083 C2099 1.429 . S
C2083 H2105 0.950 . S
C2084 H2080 0.949 . S
C2084 C2092 1.574 . S
C2084 C2100 1.368 . S
H2085 C2093 0.950 . S
H2086 C2091 0.950 . S
H2087 C2092 0.949 . S
H2088 C2094 0.950 . S
H2089 C2095 0.950 . S
H2090 C2096 0.949 . S
C2091 H2086 0.950 . S
C2091 C2093 1.327 . S
C2091 C2097 1.429 . S
C2092 C2084 1.574 . S
C2092 H2087 0.949 . S
C2092 C2098 1.368 . S
C2093 C2077 1.349 . S
C2093 H2085 0.950 . S
C2093 C2091 1.327 . S
C2094 C2082 1.349 . S
C2094 H2088 0.950 . S
C2094 C2095 1.327 . S
C2095 H2089 0.950 . S
C2095 C2094 1.327 . S
C2095 C2099 1.429 . S
C2096 C2079 1.574 . S
C2096 H2090 0.949 . S
C2096 C2100 1.368 . S
C2097 C2078 1.429 . S
C2097 C2091 1.429 . S
C2097 C2098 1.523 . S
C2098 C2079 1.368 . S
C2098 C2092 1.368 . S
C2098 C2097 1.523 . S
C2099 C2083 1.429 . S
C2099 C2095 1.429 . S
C2099 C2100 1.523 . S
C2100 C2084 1.368 . S
C2100 C2096 1.368 . S
C2100 C2099 1.523 . S
H2101 C2076 0.950 . S
H2102 C2078 0.950 . S
H2103 C2079 0.949 . S
H2104 C2081 0.950 . S
H2105 C2083 0.950 . S
C2106 C2107 1.349 . S
C2106 C2108 1.327 . S
C2106 H2131 0.950 . S
C2107 C2106 1.349 . S
C2107 C2123 1.349 . S
C2108 C2106 1.327 . S
C2108 C2127 1.429 . S
C2108 H2132 0.950 . S
C2109 C2126 1.574 . S
C2109 C2128 1.368 . S
C2109 H2133 0.949 . S
H2110 C2114 0.949 . S
C2111 C2112 1.349 . S
C2111 C2113 1.327 . S
C2111 H2134 0.950 . S
C2112 C2111 1.349 . S
C2112 C2124 1.349 . S
C2113 C2111 1.327 . S
C2113 C2129 1.429 . S
C2113 H2135 0.950 . S
C2114 H2110 0.949 . S
C2114 C2122 1.574 . S
C2114 C2130 1.368 . S
H2115 C2123 0.950 . S
H2116 C2121 0.950 . S
H2117 C2122 0.949 . S
H2118 C2124 0.950 . S
H2119 C2125 0.950 . S
H2120 C2126 0.949 . S
C2121 H2116 0.950 . S
C2121 C2123 1.327 . S
C2121 C2127 1.429 . S
C2122 C2114 1.574 . S
C2122 H2117 0.949 . S
C2122 C2128 1.368 . S
C2123 C2107 1.349 . S
C2123 H2115 0.950 . S
C2123 C2121 1.327 . S
C2124 C2112 1.349 . S
C2124 H2118 0.950 . S
C2124 C2125 1.327 . S
C2125 H2119 0.950 . S
C2125 C2124 1.327 . S
C2125 C2129 1.429 . S
C2126 C2109 1.574 . S
C2126 H2120 0.949 . S
C2126 C2130 1.368 . S
C2127 C2108 1.429 . S
C2127 C2121 1.429 . S
C2127 C2128 1.523 . S
C2128 C2109 1.368 . S
C2128 C2122 1.368 . S
C2128 C2127 1.523 . S
C2129 C2113 1.429 . S
C2129 C2125 1.429 . S
C2129 C2130 1.523 . S
C2130 C2114 1.368 . S
C2130 C2126 1.368 . S
C2130 C2129 1.523 . S
H2131 C2106 0.950 . S
H2132 C2108 0.950 . S
H2133 C2109 0.949 . S
H2134 C2111 0.950 . S
H2135 C2113 0.950 . S
C2136 C2137 1.349 . S
C2136 C2138 1.327 . S
C2136 H2161 0.950 . S
C2137 C2136 1.349 . S
C2137 C2153 1.349 . S
C2138 C2136 1.327 . S
C2138 C2157 1.429 . S
C2138 H2162 0.950 . S
C2139 C2156 1.574 . S
C2139 C2158 1.368 . S
C2139 H2163 0.949 . S
H2140 C2144 0.949 . S
C2141 C2142 1.349 . S
C2141 C2143 1.327 . S
C2141 H2164 0.950 . S
C2142 C2141 1.349 . S
C2142 C2154 1.349 . S
C2143 C2141 1.327 . S
C2143 C2159 1.429 . S
C2143 H2165 0.950 . S
C2144 H2140 0.949 . S
C2144 C2152 1.574 . S
C2144 C2160 1.368 . S
H2145 C2153 0.950 1_545 S
H2146 C2151 0.950 . S
H2147 C2152 0.949 . S
H2148 C2154 0.950 . S
H2149 C2155 0.950 . S
H2150 C2156 0.949 . S
C2151 H2146 0.950 . S
C2151 C2153 1.327 . S
C2151 C2157 1.429 . S
C2152 C2144 1.574 . S
C2152 H2147 0.949 . S
C2152 C2158 1.368 . S
C2153 C2137 1.349 . S
C2153 H2145 0.950 1_565 S
C2153 C2151 1.327 . S
C2154 C2142 1.349 . S
C2154 H2148 0.950 . S
C2154 C2155 1.327 . S
C2155 H2149 0.950 . S
C2155 C2154 1.327 . S
C2155 C2159 1.429 . S
C2156 C2139 1.574 . S
C2156 H2150 0.949 . S
C2156 C2160 1.368 . S
C2157 C2138 1.429 . S
C2157 C2151 1.429 . S
C2157 C2158 1.523 . S
C2158 C2139 1.368 . S
C2158 C2152 1.368 . S
C2158 C2157 1.523 . S
C2159 C2143 1.429 . S
C2159 C2155 1.429 . S
C2159 C2160 1.523 . S
C2160 C2144 1.368 . S
C2160 C2156 1.368 . S
C2160 C2159 1.523 . S
H2161 C2136 0.950 . S
H2162 C2138 0.950 . S
H2163 C2139 0.949 . S
H2164 C2141 0.950 . S
H2165 C2143 0.950 . S
C2166 C2167 1.349 . S
C2166 C2168 1.327 . S
C2166 H2191 0.950 . S
C2167 C2166 1.349 . S
C2167 C2183 1.349 . S
C2168 C2166 1.327 . S
C2168 C2187 1.429 . S
C2168 H2192 0.950 . S
C2169 C2186 1.574 . S
C2169 C2188 1.368 . S
C2169 H2193 0.949 . S
H2170 C2174 0.949 . S
C2171 C2172 1.349 . S
C2171 C2173 1.327 . S
C2171 H2194 0.950 . S
C2172 C2171 1.349 . S
C2172 C2184 1.349 . S
C2173 C2171 1.327 . S
C2173 C2189 1.429 . S
C2173 H2195 0.950 . S
C2174 H2170 0.949 . S
C2174 C2182 1.574 . S
C2174 C2190 1.368 . S
H2175 C2183 0.950 . S
H2176 C2181 0.950 . S
H2177 C2182 0.949 . S
H2178 C2184 0.950 . S
H2179 C2185 0.950 . S
H2180 C2186 0.949 . S
C2181 H2176 0.950 . S
C2181 C2183 1.327 . S
C2181 C2187 1.429 . S
C2182 C2174 1.574 . S
C2182 H2177 0.949 . S
C2182 C2188 1.368 . S
C2183 C2167 1.349 . S
C2183 H2175 0.950 . S
C2183 C2181 1.327 . S
C2184 C2172 1.349 . S
C2184 H2178 0.950 . S
C2184 C2185 1.327 . S
C2185 H2179 0.950 . S
C2185 C2184 1.327 . S
C2185 C2189 1.429 . S
C2186 C2169 1.574 . S
C2186 H2180 0.949 . S
C2186 C2190 1.368 . S
C2187 C2168 1.429 . S
C2187 C2181 1.429 . S
C2187 C2188 1.523 . S
C2188 C2169 1.368 . S
C2188 C2182 1.368 . S
C2188 C2187 1.523 . S
C2189 C2173 1.429 . S
C2189 C2185 1.429 . S
C2189 C2190 1.523 . S
C2190 C2174 1.368 . S
C2190 C2186 1.368 . S
C2190 C2189 1.523 . S
H2191 C2166 0.950 . S
H2192 C2168 0.950 . S
H2193 C2169 0.949 . S
H2194 C2171 0.950 . S
H2195 C2173 0.950 . S
C2196 C2197 1.349 . S
C2196 C2198 1.327 . S
C2196 H2221 0.950 . S
C2197 C2196 1.349 . S
C2197 C2213 1.349 . S
C2198 C2196 1.327 . S
C2198 C2217 1.429 . S
C2198 H2222 0.950 . S
C2199 C2216 1.574 . S
C2199 C2218 1.368 . S
C2199 H2223 0.949 . S
H2200 C2204 0.949 . S
C2201 C2202 1.349 . S
C2201 C2203 1.327 . S
C2201 H2224 0.950 . S
C2202 C2201 1.349 . S
C2202 C2214 1.349 . S
C2203 C2201 1.327 . S
C2203 C2219 1.429 . S
C2203 H2225 0.950 . S
C2204 H2200 0.949 . S
C2204 C2212 1.574 . S
C2204 C2220 1.368 . S
H2205 C2213 0.950 . S
H2206 C2211 0.950 . S
H2207 C2212 0.949 . S
H2208 C2214 0.950 . S
H2209 C2215 0.950 . S
H2210 C2216 0.949 . S
C2211 H2206 0.950 . S
C2211 C2213 1.327 . S
C2211 C2217 1.429 . S
C2212 C2204 1.574 . S
C2212 H2207 0.949 . S
C2212 C2218 1.368 . S
C2213 C2197 1.349 . S
C2213 H2205 0.950 . S
C2213 C2211 1.327 . S
C2214 C2202 1.349 . S
C2214 H2208 0.950 . S
C2214 C2215 1.327 . S
C2215 H2209 0.950 . S
C2215 C2214 1.327 . S
C2215 C2219 1.429 . S
C2216 C2199 1.574 . S
C2216 H2210 0.949 . S
C2216 C2220 1.368 . S
C2217 C2198 1.429 . S
C2217 C2211 1.429 . S
C2217 C2218 1.523 . S
C2218 C2199 1.368 . S
C2218 C2212 1.368 . S
C2218 C2217 1.523 . S
C2219 C2203 1.429 . S
C2219 C2215 1.429 . S
C2219 C2220 1.523 . S
C2220 C2204 1.368 . S
C2220 C2216 1.368 . S
C2220 C2219 1.523 . S
H2221 C2196 0.950 . S
H2222 C2198 0.950 . S
H2223 C2199 0.949 . S
H2224 C2201 0.950 . S
H2225 C2203 0.950 . S
C2226 C2227 1.349 . S
C2226 C2228 1.327 . S
C2226 H2251 0.950 . S
C2227 C2226 1.349 . S
C2227 C2243 1.349 . S
C2228 C2226 1.327 . S
C2228 C2247 1.429 . S
C2228 H2252 0.950 . S
C2229 C2246 1.574 . S
C2229 C2248 1.368 . S
C2229 H2253 0.949 . S
H2230 C2234 0.949 . S
C2231 C2232 1.349 . S
C2231 C2233 1.327 . S
C2231 H2254 0.950 . S
C2232 C2231 1.349 . S
C2232 C2244 1.349 . S
C2233 C2231 1.327 . S
C2233 C2249 1.429 . S
C2233 H2255 0.950 . S
C2234 H2230 0.949 . S
C2234 C2242 1.574 . S
C2234 C2250 1.368 . S
H2235 C2243 0.950 . S
H2236 C2241 0.950 . S
H2237 C2242 0.949 . S
H2238 C2244 0.950 . S
H2239 C2245 0.950 . S
H2240 C2246 0.949 . S
C2241 H2236 0.950 . S
C2241 C2243 1.327 . S
C2241 C2247 1.429 . S
C2242 C2234 1.574 . S
C2242 H2237 0.949 . S
C2242 C2248 1.368 . S
C2243 C2227 1.349 . S
C2243 H2235 0.950 . S
C2243 C2241 1.327 . S
C2244 C2232 1.349 . S
C2244 H2238 0.950 . S
C2244 C2245 1.327 . S
C2245 H2239 0.950 . S
C2245 C2244 1.327 . S
C2245 C2249 1.429 . S
C2246 C2229 1.574 . S
C2246 H2240 0.949 . S
C2246 C2250 1.368 . S
C2247 C2228 1.429 . S
C2247 C2241 1.429 . S
C2247 C2248 1.523 . S
C2248 C2229 1.368 . S
C2248 C2242 1.368 . S
C2248 C2247 1.523 . S
C2249 C2233 1.429 . S
C2249 C2245 1.429 . S
C2249 C2250 1.523 . S
C2250 C2234 1.368 . S
C2250 C2246 1.368 . S
C2250 C2249 1.523 . S
H2251 C2226 0.950 . S
H2252 C2228 0.950 . S
H2253 C2229 0.949 . S
H2254 C2231 0.950 . S
H2255 C2233 0.950 . S
C2256 C2257 1.349 . S
C2256 C2258 1.327 . S
C2256 H2281 0.950 . S
C2257 C2256 1.349 . S
C2257 C2273 1.349 . S
C2258 C2256 1.327 . S
C2258 C2277 1.429 . S
C2258 H2282 0.950 . S
C2259 C2276 1.574 . S
C2259 C2278 1.368 . S
C2259 H2283 0.949 . S
H2260 C2264 0.949 . S
C2261 C2262 1.349 . S
C2261 C2263 1.327 . S
C2261 H2284 0.950 . S
C2262 C2261 1.349 . S
C2262 C2274 1.349 . S
C2263 C2261 1.327 . S
C2263 C2279 1.429 . S
C2263 H2285 0.950 . S
C2264 H2260 0.949 . S
C2264 C2272 1.574 . S
C2264 C2280 1.368 . S
H2265 C2273 0.950 . S
H2266 C2271 0.950 . S
H2267 C2272 0.949 . S
H2268 C2274 0.950 . S
H2269 C2275 0.950 . S
H2270 C2276 0.949 . S
C2271 H2266 0.950 . S
C2271 C2273 1.327 . S
C2271 C2277 1.429 . S
C2272 C2264 1.574 . S
C2272 H2267 0.949 . S
C2272 C2278 1.368 . S
C2273 C2257 1.349 . S
C2273 H2265 0.950 . S
C2273 C2271 1.327 . S
C2274 C2262 1.349 . S
C2274 H2268 0.950 . S
C2274 C2275 1.327 . S
C2275 H2269 0.950 . S
C2275 C2274 1.327 . S
C2275 C2279 1.429 . S
C2276 C2259 1.574 . S
C2276 H2270 0.949 . S
C2276 C2280 1.368 . S
C2277 C2258 1.429 . S
C2277 C2271 1.429 . S
C2277 C2278 1.523 . S
C2278 C2259 1.368 . S
C2278 C2272 1.368 . S
C2278 C2277 1.523 . S
C2279 C2263 1.429 . S
C2279 C2275 1.429 . S
C2279 C2280 1.523 . S
C2280 C2264 1.368 . S
C2280 C2276 1.368 . S
C2280 C2279 1.523 . S
H2281 C2256 0.950 . S
H2282 C2258 0.950 . S
H2283 C2259 0.949 . S
H2284 C2261 0.950 . S
H2285 C2263 0.950 . S
C2286 C2287 1.349 . S
C2286 C2288 1.327 . S
C2286 H2311 0.950 . S
C2287 C2286 1.349 . S
C2287 C2303 1.349 . S
C2288 C2286 1.327 . S
C2288 C2307 1.429 . S
C2288 H2312 0.950 . S
C2289 C2306 1.574 . S
C2289 C2308 1.368 . S
C2289 H2313 0.949 . S
H2290 C2294 0.949 . S
C2291 C2292 1.349 . S
C2291 C2293 1.327 . S
C2291 H2314 0.950 . S
C2292 C2291 1.349 . S
C2292 C2304 1.349 . S
C2293 C2291 1.327 . S
C2293 C2309 1.429 . S
C2293 H2315 0.950 . S
C2294 H2290 0.949 . S
C2294 C2302 1.574 . S
C2294 C2310 1.368 . S
H2295 C2303 0.950 . S
H2296 C2301 0.950 . S
H2297 C2302 0.949 . S
H2298 C2304 0.950 . S
H2299 C2305 0.950 . S
H2300 C2306 0.949 . S
C2301 H2296 0.950 . S
C2301 C2303 1.327 . S
C2301 C2307 1.429 . S
C2302 C2294 1.574 . S
C2302 H2297 0.949 . S
C2302 C2308 1.368 . S
C2303 C2287 1.349 . S
C2303 H2295 0.950 . S
C2303 C2301 1.327 . S
C2304 C2292 1.349 . S
C2304 H2298 0.950 . S
C2304 C2305 1.327 . S
C2305 H2299 0.950 . S
C2305 C2304 1.327 . S
C2305 C2309 1.429 . S
C2306 C2289 1.574 . S
C2306 H2300 0.949 . S
C2306 C2310 1.368 . S
C2307 C2288 1.429 . S
C2307 C2301 1.429 . S
C2307 C2308 1.523 . S
C2308 C2289 1.368 . S
C2308 C2302 1.368 . S
C2308 C2307 1.523 . S
C2309 C2293 1.429 . S
C2309 C2305 1.429 . S
C2309 C2310 1.523 . S
C2310 C2294 1.368 . S
C2310 C2306 1.368 . S
C2310 C2309 1.523 . S
H2311 C2286 0.950 . S
H2312 C2288 0.950 . S
H2313 C2289 0.949 . S
H2314 C2291 0.950 . S
H2315 C2293 0.950 . S
C2316 C2317 1.349 . S
C2316 C2318 1.327 . S
C2316 H2341 0.950 . S
C2317 C2316 1.349 . S
C2317 C2333 1.349 . S
C2318 C2316 1.327 . S
C2318 C2337 1.429 . S
C2318 H2342 0.950 . S
C2319 C2336 1.574 . S
C2319 C2338 1.368 . S
C2319 H2343 0.949 . S
H2320 C2324 0.949 . S
C2321 C2322 1.349 . S
C2321 C2323 1.327 . S
C2321 H2344 0.950 . S
C2322 C2321 1.349 . S
C2322 C2334 1.349 . S
C2323 C2321 1.327 . S
C2323 C2339 1.429 . S
C2323 H2345 0.950 . S
C2324 H2320 0.949 . S
C2324 C2332 1.574 . S
C2324 C2340 1.368 . S
H2325 C2333 0.950 . S
H2326 C2331 0.950 . S
H2327 C2332 0.949 . S
H2328 C2334 0.950 . S
H2329 C2335 0.950 . S
H2330 C2336 0.949 . S
C2331 H2326 0.950 . S
C2331 C2333 1.327 . S
C2331 C2337 1.429 . S
C2332 C2324 1.574 . S
C2332 H2327 0.949 . S
C2332 C2338 1.368 . S
C2333 C2317 1.349 . S
C2333 H2325 0.950 . S
C2333 C2331 1.327 . S
C2334 C2322 1.349 . S
C2334 H2328 0.950 . S
C2334 C2335 1.327 . S
C2335 H2329 0.950 . S
C2335 C2334 1.327 . S
C2335 C2339 1.429 . S
C2336 C2319 1.574 . S
C2336 H2330 0.949 . S
C2336 C2340 1.368 . S
C2337 C2318 1.429 . S
C2337 C2331 1.429 . S
C2337 C2338 1.523 . S
C2338 C2319 1.368 . S
C2338 C2332 1.368 . S
C2338 C2337 1.523 . S
C2339 C2323 1.429 . S
C2339 C2335 1.429 . S
C2339 C2340 1.523 . S
C2340 C2324 1.368 . S
C2340 C2336 1.368 . S
C2340 C2339 1.523 . S
H2341 C2316 0.950 . S
H2342 C2318 0.950 . S
H2343 C2319 0.949 . S
H2344 C2321 0.950 . S
H2345 C2323 0.950 . S
C2346 C2347 1.349 . S
C2346 C2348 1.327 . S
C2346 H2371 0.950 . S
C2347 C2346 1.349 . S
C2347 C2363 1.349 . S
C2348 C2346 1.327 . S
C2348 C2367 1.429 . S
C2348 H2372 0.950 . S
C2349 C2366 1.574 . S
C2349 C2368 1.368 . S
C2349 H2373 0.949 . S
H2350 C2354 0.949 . S
C2351 C2352 1.349 . S
C2351 C2353 1.327 . S
C2351 H2374 0.950 . S
C2352 C2351 1.349 . S
C2352 C2364 1.349 . S
C2353 C2351 1.327 . S
C2353 C2369 1.429 . S
C2353 H2375 0.950 . S
C2354 H2350 0.949 . S
C2354 C2362 1.574 . S
C2354 C2370 1.368 . S
H2355 C2363 0.950 . S
H2356 C2361 0.950 . S
H2357 C2362 0.949 . S
H2358 C2364 0.950 . S
H2359 C2365 0.950 . S
H2360 C2366 0.949 . S
C2361 H2356 0.950 . S
C2361 C2363 1.327 . S
C2361 C2367 1.429 . S
C2362 C2354 1.574 . S
C2362 H2357 0.949 . S
C2362 C2368 1.368 . S
C2363 C2347 1.349 . S
C2363 H2355 0.950 . S
C2363 C2361 1.327 . S
C2364 C2352 1.349 . S
C2364 H2358 0.950 . S
C2364 C2365 1.327 . S
C2365 H2359 0.950 . S
C2365 C2364 1.327 . S
C2365 C2369 1.429 . S
C2366 C2349 1.574 . S
C2366 H2360 0.949 . S
C2366 C2370 1.368 . S
C2367 C2348 1.429 . S
C2367 C2361 1.429 . S
C2367 C2368 1.523 . S
C2368 C2349 1.368 . S
C2368 C2362 1.368 . S
C2368 C2367 1.523 . S
C2369 C2353 1.429 . S
C2369 C2365 1.429 . S
C2369 C2370 1.523 . S
C2370 C2354 1.368 . S
C2370 C2366 1.368 . S
C2370 C2369 1.523 . S
H2371 C2346 0.950 . S
H2372 C2348 0.950 . S
H2373 C2349 0.949 . S
H2374 C2351 0.950 . S
H2375 C2353 0.950 . S
C2376 C2377 1.349 . S
C2376 C2378 1.327 . S
C2376 H2401 0.950 . S
C2377 C2376 1.349 . S
C2377 C2393 1.349 . S
C2378 C2376 1.327 . S
C2378 C2397 1.429 . S
C2378 H2402 0.950 . S
C2379 C2396 1.574 . S
C2379 C2398 1.368 . S
C2379 H2403 0.949 . S
H2380 C2384 0.949 . S
C2381 C2382 1.349 1_554 S
C2381 C2383 1.327 1_554 S
C2381 H2404 0.950 . S
C2382 C2381 1.349 1_556 S
C2382 C2394 1.349 . S
C2383 C2381 1.327 1_556 S
C2383 C2399 1.429 . S
C2383 H2405 0.946 1_556 S
C2384 H2380 0.949 . S
C2384 C2392 1.574 . S
C2384 C2400 1.368 . S
H2385 C2393 0.950 . S
H2386 C2391 0.950 . S
H2387 C2392 0.949 . S
H2388 C2394 0.950 . S
H2389 C2395 0.950 . S
H2390 C2396 0.949 . S
C2391 H2386 0.950 . S
C2391 C2393 1.327 . S
C2391 C2397 1.429 . S
C2392 C2384 1.574 . S
C2392 H2387 0.949 . S
C2392 C2398 1.368 . S
C2393 C2377 1.349 . S
C2393 H2385 0.950 . S
C2393 C2391 1.327 . S
C2394 C2382 1.349 . S
C2394 H2388 0.950 . S
C2394 C2395 1.327 . S
C2395 H2389 0.950 . S
C2395 C2394 1.327 . S
C2395 C2399 1.429 . S
C2396 C2379 1.574 . S
C2396 H2390 0.949 . S
C2396 C2400 1.368 . S
C2397 C2378 1.429 . S
C2397 C2391 1.429 . S
C2397 C2398 1.523 . S
C2398 C2379 1.368 . S
C2398 C2392 1.368 . S
C2398 C2397 1.523 . S
C2399 C2383 1.429 . S
C2399 C2395 1.429 . S
C2399 C2400 1.523 . S
C2400 C2384 1.368 . S
C2400 C2396 1.368 . S
C2400 C2399 1.523 . S
H2401 C2376 0.950 . S
H2402 C2378 0.950 . S
H2403 C2379 0.949 . S
H2404 C2381 0.950 . S
H2405 C2383 0.946 1_554 S
C2406 C2407 1.349 . S
C2406 C2408 1.327 . S
C2406 H2431 0.950 . S
C2407 C2406 1.349 . S
C2407 C2423 1.349 . S
C2408 C2406 1.327 . S
C2408 C2427 1.429 . S
C2408 H2432 0.950 . S
C2409 C2426 1.574 . S
C2409 C2428 1.368 . S
C2409 H2433 0.949 . S
H2410 C2414 0.949 . S
C2411 C2412 1.349 . S
C2411 C2413 1.327 . S
C2411 H2434 0.950 . S
C2412 C2411 1.349 . S
C2412 C2424 1.349 . S
C2413 C2411 1.327 . S
C2413 C2429 1.429 . S
C2413 H2435 0.950 . S
C2414 H2410 0.949 . S
C2414 C2422 1.574 . S
C2414 C2430 1.368 . S
H2415 C2423 0.950 . S
H2416 C2421 0.950 . S
H2417 C2422 0.949 . S
H2418 C2424 0.950 . S
H2419 C2425 0.950 . S
H2420 C2426 0.949 . S
C2421 H2416 0.950 . S
C2421 C2423 1.327 . S
C2421 C2427 1.429 . S
C2422 C2414 1.574 . S
C2422 H2417 0.949 . S
C2422 C2428 1.368 . S
C2423 C2407 1.349 . S
C2423 H2415 0.950 . S
C2423 C2421 1.327 . S
C2424 C2412 1.349 . S
C2424 H2418 0.950 . S
C2424 C2425 1.327 . S
C2425 H2419 0.950 . S
C2425 C2424 1.327 . S
C2425 C2429 1.429 . S
C2426 C2409 1.574 . S
C2426 H2420 0.949 . S
C2426 C2430 1.368 . S
C2427 C2408 1.429 . S
C2427 C2421 1.429 . S
C2427 C2428 1.523 . S
C2428 C2409 1.368 . S
C2428 C2422 1.368 . S
C2428 C2427 1.523 . S
C2429 C2413 1.429 . S
C2429 C2425 1.429 . S
C2429 C2430 1.523 . S
C2430 C2414 1.368 . S
C2430 C2426 1.368 . S
C2430 C2429 1.523 . S
H2431 C2406 0.950 . S
H2432 C2408 0.950 . S
H2433 C2409 0.949 . S
H2434 C2411 0.950 . S
H2435 C2413 0.950 . S
C2436 C2437 1.349 . S
C2436 C2438 1.327 . S
C2436 H2461 0.950 . S
C2437 C2436 1.349 . S
C2437 C2453 1.349 . S
C2438 C2436 1.327 . S
C2438 C2457 1.429 . S
C2438 H2462 0.950 . S
C2439 C2456 1.574 . S
C2439 C2458 1.368 . S
C2439 H2463 0.949 . S
H2440 C2444 0.949 . S
C2441 C2442 1.349 . S
C2441 C2443 1.327 . S
C2441 H2464 0.950 . S
C2442 C2441 1.349 . S
C2442 C2454 1.349 . S
C2443 C2441 1.327 . S
C2443 C2459 1.429 . S
C2443 H2465 0.950 . S
C2444 H2440 0.949 . S
C2444 C2452 1.574 . S
C2444 C2460 1.368 . S
H2445 C2453 0.950 . S
H2446 C2451 0.950 . S
H2447 C2452 0.949 . S
H2448 C2454 0.950 . S
H2449 C2455 0.950 . S
H2450 C2456 0.949 . S
C2451 H2446 0.950 . S
C2451 C2453 1.327 . S
C2451 C2457 1.429 . S
C2452 C2444 1.574 . S
C2452 H2447 0.949 . S
C2452 C2458 1.368 . S
C2453 C2437 1.349 . S
C2453 H2445 0.950 . S
C2453 C2451 1.327 . S
C2454 C2442 1.349 . S
C2454 H2448 0.950 . S
C2454 C2455 1.327 . S
C2455 H2449 0.950 . S
C2455 C2454 1.327 . S
C2455 C2459 1.429 . S
C2456 C2439 1.574 . S
C2456 H2450 0.949 . S
C2456 C2460 1.368 . S
C2457 C2438 1.429 . S
C2457 C2451 1.429 . S
C2457 C2458 1.523 . S
C2458 C2439 1.368 . S
C2458 C2452 1.368 . S
C2458 C2457 1.523 . S
C2459 C2443 1.429 . S
C2459 C2455 1.429 . S
C2459 C2460 1.523 . S
C2460 C2444 1.368 . S
C2460 C2456 1.368 . S
C2460 C2459 1.523 . S
H2461 C2436 0.950 . S
H2462 C2438 0.950 . S
H2463 C2439 0.949 . S
H2464 C2441 0.950 . S
H2465 C2443 0.950 . S
C2466 C2467 1.349 . S
C2466 C2468 1.327 . S
C2466 H2491 0.950 . S
C2467 C2466 1.349 . S
C2467 C2483 1.349 . S
C2468 C2466 1.327 . S
C2468 C2487 1.429 . S
C2468 H2492 0.950 . S
C2469 C2486 1.574 . S
C2469 C2488 1.368 . S
C2469 H2493 0.949 . S
H2470 C2474 0.949 . S
C2471 C2472 1.349 . S
C2471 C2473 1.327 . S
C2471 H2494 0.950 . S
C2472 C2471 1.349 . S
C2472 C2484 1.349 . S
C2473 C2471 1.327 . S
C2473 C2489 1.429 . S
C2473 H2495 0.950 . S
C2474 H2470 0.949 . S
C2474 C2482 1.574 . S
C2474 C2490 1.368 . S
H2475 C2483 0.950 . S
H2476 C2481 0.950 . S
H2477 C2482 0.949 . S
H2478 C2484 0.950 . S
H2479 C2485 0.950 . S
H2480 C2486 0.949 . S
C2481 H2476 0.950 . S
C2481 C2483 1.327 . S
C2481 C2487 1.429 . S
C2482 C2474 1.574 . S
C2482 H2477 0.949 . S
C2482 C2488 1.368 . S
C2483 C2467 1.349 . S
C2483 H2475 0.950 . S
C2483 C2481 1.327 . S
C2484 C2472 1.349 . S
C2484 H2478 0.950 . S
C2484 C2485 1.327 . S
C2485 H2479 0.950 . S
C2485 C2484 1.327 . S
C2485 C2489 1.429 . S
C2486 C2469 1.574 . S
C2486 H2480 0.949 . S
C2486 C2490 1.368 . S
C2487 C2468 1.429 . S
C2487 C2481 1.429 . S
C2487 C2488 1.523 . S
C2488 C2469 1.368 . S
C2488 C2482 1.368 . S
C2488 C2487 1.523 . S
C2489 C2473 1.429 . S
C2489 C2485 1.429 . S
C2489 C2490 1.523 . S
C2490 C2474 1.368 . S
C2490 C2486 1.368 . S
C2490 C2489 1.523 . S
H2491 C2466 0.950 . S
H2492 C2468 0.950 . S
H2493 C2469 0.949 . S
H2494 C2471 0.950 . S
H2495 C2473 0.950 . S
C2496 C2497 1.349 . S
C2496 C2498 1.327 . S
C2496 H2521 0.950 . S
C2497 C2496 1.349 . S
C2497 C2513 1.349 . S
C2498 C2496 1.327 . S
C2498 C2517 1.429 . S
C2498 H2522 0.950 . S
C2499 C2516 1.574 . S
C2499 C2518 1.368 . S
C2499 H2523 0.949 . S
H2500 C2504 0.949 . S
C2501 C2502 1.349 . S
C2501 C2503 1.327 . S
C2501 H2524 0.950 . S
C2502 C2501 1.349 . S
C2502 C2514 1.349 . S
C2503 C2501 1.327 . S
C2503 C2519 1.429 . S
C2503 H2525 0.950 . S
C2504 H2500 0.949 . S
C2504 C2512 1.574 . S
C2504 C2520 1.368 . S
H2505 C2513 0.950 . S
H2506 C2511 0.950 . S
H2507 C2512 0.949 . S
H2508 C2514 0.950 . S
H2509 C2515 0.950 . S
H2510 C2516 0.949 . S
C2511 H2506 0.950 . S
C2511 C2513 1.327 . S
C2511 C2517 1.429 . S
C2512 C2504 1.574 . S
C2512 H2507 0.949 . S
C2512 C2518 1.368 . S
C2513 C2497 1.349 . S
C2513 H2505 0.950 . S
C2513 C2511 1.327 . S
C2514 C2502 1.349 . S
C2514 H2508 0.950 . S
C2514 C2515 1.327 . S
C2515 H2509 0.950 . S
C2515 C2514 1.327 . S
C2515 C2519 1.429 . S
C2516 C2499 1.574 . S
C2516 H2510 0.949 . S
C2516 C2520 1.368 . S
C2517 C2498 1.429 . S
C2517 C2511 1.429 . S
C2517 C2518 1.523 . S
C2518 C2499 1.368 . S
C2518 C2512 1.368 . S
C2518 C2517 1.523 . S
C2519 C2503 1.429 . S
C2519 C2515 1.429 . S
C2519 C2520 1.523 . S
C2520 C2504 1.368 . S
C2520 C2516 1.368 . S
C2520 C2519 1.523 . S
H2521 C2496 0.950 . S
H2522 C2498 0.950 . S
H2523 C2499 0.949 . S
H2524 C2501 0.950 . S
H2525 C2503 0.950 . S
C2526 C2527 1.349 . S
C2526 C2528 1.327 . S
C2526 H2551 0.950 . S
C2527 C2526 1.349 . S
C2527 C2543 1.349 . S
C2528 C2526 1.327 . S
C2528 C2547 1.429 . S
C2528 H2552 0.950 . S
C2529 C2546 1.574 . S
C2529 C2548 1.368 . S
C2529 H2553 0.949 . S
H2530 C2534 0.949 . S
C2531 C2532 1.349 . S
C2531 C2533 1.327 . S
C2531 H2554 0.950 . S
C2532 C2531 1.349 . S
C2532 C2544 1.349 . S
C2533 C2531 1.327 . S
C2533 C2549 1.429 . S
C2533 H2555 0.950 . S
C2534 H2530 0.949 . S
C2534 C2542 1.574 . S
C2534 C2550 1.368 . S
H2535 C2543 0.971 . S
H2536 C2541 0.950 . S
H2537 C2542 0.949 . S
H2538 C2544 0.950 . S
H2539 C2545 0.950 . S
H2540 C2546 0.949 . S
C2541 H2536 0.950 . S
C2541 C2543 1.327 . S
C2541 C2547 1.429 . S
C2542 C2534 1.574 . S
C2542 H2537 0.949 . S
C2542 C2548 1.368 . S
C2543 C2527 1.349 . S
C2543 H2535 0.971 . S
C2543 C2541 1.327 . S
C2544 C2532 1.349 . S
C2544 H2538 0.950 . S
C2544 C2545 1.327 . S
C2545 H2539 0.950 . S
C2545 C2544 1.327 . S
C2545 C2549 1.429 . S
C2546 C2529 1.574 . S
C2546 H2540 0.949 . S
C2546 C2550 1.368 . S
C2547 C2528 1.429 . S
C2547 C2541 1.429 . S
C2547 C2548 1.523 . S
C2548 C2529 1.368 . S
C2548 C2542 1.368 . S
C2548 C2547 1.523 . S
C2549 C2533 1.429 . S
C2549 C2545 1.429 . S
C2549 C2550 1.523 . S
C2550 C2534 1.368 . S
C2550 C2546 1.368 . S
C2550 C2549 1.523 . S
H2551 C2526 0.950 . S
H2552 C2528 0.950 . S
H2553 C2529 0.949 . S
H2554 C2531 0.950 . S
H2555 C2533 0.950 . S
C2556 C2557 1.349 . S
C2556 C2558 1.327 . S
C2556 H2581 0.950 . S
C2557 C2556 1.349 . S
C2557 C2573 1.349 . S
C2558 C2556 1.327 . S
C2558 C2577 1.429 . S
C2558 H2582 0.950 . S
C2559 C2576 1.574 . S
C2559 C2578 1.368 . S
C2559 H2583 0.949 . S
H2560 C2564 0.949 . S
C2561 C2562 1.340 1_455 S
C2561 C2563 1.327 1_455 S
C2561 H2584 0.950 . S
C2562 C2561 1.340 1_655 S
C2562 C2574 1.388 . S
C2563 C2561 1.327 1_655 S
C2563 C2579 1.429 . S
C2563 H2585 0.950 . S
C2564 H2560 0.949 . S
C2564 C2572 1.574 . S
C2564 C2580 1.368 . S
H2565 C2573 0.950 . S
H2566 C2571 0.950 . S
H2567 C2572 0.949 . S
H2568 C2574 0.950 . S
H2569 C2575 0.950 . S
H2570 C2576 0.949 . S
C2571 H2566 0.950 . S
C2571 C2573 1.327 . S
C2571 C2577 1.429 . S
C2572 C2564 1.574 . S
C2572 H2567 0.949 . S
C2572 C2578 1.368 . S
C2573 C2557 1.349 . S
C2573 H2565 0.950 . S
C2573 C2571 1.327 . S
C2574 C2562 1.388 . S
C2574 H2568 0.950 . S
C2574 C2575 1.327 . S
C2575 H2569 0.950 . S
C2575 C2574 1.327 . S
C2575 C2579 1.429 . S
C2576 C2559 1.574 . S
C2576 H2570 0.949 . S
C2576 C2580 1.368 . S
C2577 C2558 1.429 . S
C2577 C2571 1.429 . S
C2577 C2578 1.523 . S
C2578 C2559 1.368 . S
C2578 C2572 1.368 . S
C2578 C2577 1.523 . S
C2579 C2563 1.429 . S
C2579 C2575 1.429 . S
C2579 C2580 1.523 . S
C2580 C2564 1.368 . S
C2580 C2576 1.368 . S
C2580 C2579 1.523 . S
H2581 C2556 0.950 . S
H2582 C2558 0.950 . S
H2583 C2559 0.949 . S
H2584 C2561 0.950 . S
H2585 C2563 0.950 . S
C2586 C2587 1.349 . S
C2586 C2588 1.327 . S
C2586 H2611 0.950 . S
C2587 C2586 1.349 . S
C2587 C2603 1.349 . S
C2588 C2586 1.327 . S
C2588 C2607 1.429 . S
C2588 H2612 0.950 . S
C2589 C2606 1.574 . S
C2589 C2608 1.368 . S
C2589 H2613 0.949 . S
H2590 C2594 0.949 . S
C2591 C2592 1.349 . S
C2591 C2593 1.327 . S
C2591 H2614 0.950 . S
C2592 C2591 1.349 . S
C2592 C2604 1.349 . S
C2593 C2591 1.327 . S
C2593 C2609 1.429 . S
C2593 H2615 0.950 . S
C2594 H2590 0.949 . S
C2594 C2602 1.574 . S
C2594 C2610 1.368 . S
H2595 C2603 0.950 . S
H2596 C2601 0.950 . S
H2597 C2602 0.949 . S
H2598 C2604 0.950 . S
H2599 C2605 0.950 . S
H2600 C2606 0.949 . S
C2601 H2596 0.950 . S
C2601 C2603 1.327 . S
C2601 C2607 1.429 . S
C2602 C2594 1.574 . S
C2602 H2597 0.949 . S
C2602 C2608 1.368 . S
C2603 C2587 1.349 . S
C2603 H2595 0.950 . S
C2603 C2601 1.327 . S
C2604 C2592 1.349 . S
C2604 H2598 0.950 . S
C2604 C2605 1.327 . S
C2605 H2599 0.950 . S
C2605 C2604 1.327 . S
C2605 C2609 1.429 . S
C2606 C2589 1.574 . S
C2606 H2600 0.949 . S
C2606 C2610 1.368 . S
C2607 C2588 1.429 . S
C2607 C2601 1.429 . S
C2607 C2608 1.523 . S
C2608 C2589 1.368 . S
C2608 C2602 1.368 . S
C2608 C2607 1.523 . S
C2609 C2593 1.429 . S
C2609 C2605 1.429 . S
C2609 C2610 1.523 . S
C2610 C2594 1.368 . S
C2610 C2606 1.368 . S
C2610 C2609 1.523 . S
H2611 C2586 0.950 . S
H2612 C2588 0.950 . S
H2613 C2589 0.949 . S
H2614 C2591 0.950 . S
H2615 C2593 0.950 . S
C2616 C2617 1.349 . S
C2616 C2618 1.327 . S
C2616 H2641 0.950 . S
C2617 C2616 1.349 . S
C2617 C2633 1.349 . S
C2618 C2616 1.327 . S
C2618 C2637 1.429 . S
C2618 H2642 0.950 . S
C2619 C2636 1.574 . S
C2619 C2638 1.368 . S
C2619 H2643 0.949 . S
H2620 C2624 0.949 . S
C2621 C2622 1.349 . S
C2621 C2623 1.327 . S
C2621 H2644 0.950 . S
C2622 C2621 1.349 . S
C2622 C2634 1.349 . S
C2623 C2621 1.327 . S
C2623 C2639 1.429 . S
C2623 H2645 0.950 . S
C2624 H2620 0.949 . S
C2624 C2632 1.574 . S
C2624 C2640 1.368 . S
H2625 C2633 0.950 . S
H2626 C2631 0.950 . S
H2627 C2632 0.949 . S
H2628 C2634 0.950 . S
H2629 C2635 0.950 . S
H2630 C2636 0.949 . S
C2631 H2626 0.950 . S
C2631 C2633 1.327 . S
C2631 C2637 1.429 . S
C2632 C2624 1.574 . S
C2632 H2627 0.949 . S
C2632 C2638 1.368 . S
C2633 C2617 1.349 . S
C2633 H2625 0.950 . S
C2633 C2631 1.327 . S
C2634 C2622 1.349 . S
C2634 H2628 0.950 . S
C2634 C2635 1.327 . S
C2635 H2629 0.950 . S
C2635 C2634 1.327 . S
C2635 C2639 1.429 . S
C2636 C2619 1.574 . S
C2636 H2630 0.949 . S
C2636 C2640 1.368 . S
C2637 C2618 1.429 . S
C2637 C2631 1.429 . S
C2637 C2638 1.523 . S
C2638 C2619 1.368 . S
C2638 C2632 1.368 . S
C2638 C2637 1.523 . S
C2639 C2623 1.429 . S
C2639 C2635 1.429 . S
C2639 C2640 1.523 . S
C2640 C2624 1.368 . S
C2640 C2636 1.368 . S
C2640 C2639 1.523 . S
H2641 C2616 0.950 . S
H2642 C2618 0.950 . S
H2643 C2619 0.949 . S
H2644 C2621 0.950 . S
H2645 C2623 0.950 . S
C2646 C2647 1.349 . S
C2646 C2648 1.327 . S
C2646 H2671 0.950 . S
C2647 C2646 1.349 . S
C2647 C2663 1.349 . S
C2648 C2646 1.327 . S
C2648 C2667 1.429 . S
C2648 H2672 0.950 . S
C2649 C2666 1.574 . S
C2649 C2668 1.368 . S
C2649 H2673 0.949 . S
H2650 C2654 0.949 . S
C2651 C2652 1.349 . S
C2651 C2653 1.327 . S
C2651 H2674 0.950 . S
C2652 C2651 1.349 . S
C2652 C2664 1.349 . S
C2653 C2651 1.327 . S
C2653 C2669 1.429 . S
C2653 H2675 0.950 . S
C2654 H2650 0.949 . S
C2654 C2662 1.574 . S
C2654 C2670 1.368 . S
H2655 C2663 0.950 . S
H2656 C2661 0.950 . S
H2657 C2662 0.949 . S
H2658 C2664 0.950 . S
H2659 C2665 0.950 . S
H2660 C2666 0.949 . S
C2661 H2656 0.950 . S
C2661 C2663 1.327 . S
C2661 C2667 1.429 . S
C2662 C2654 1.574 . S
C2662 H2657 0.949 . S
C2662 C2668 1.368 . S
C2663 C2647 1.349 . S
C2663 H2655 0.950 . S
C2663 C2661 1.327 . S
C2664 C2652 1.349 . S
C2664 H2658 0.950 . S
C2664 C2665 1.327 . S
C2665 H2659 0.950 . S
C2665 C2664 1.327 . S
C2665 C2669 1.429 . S
C2666 C2649 1.574 . S
C2666 H2660 0.949 . S
C2666 C2670 1.368 . S
C2667 C2648 1.429 . S
C2667 C2661 1.429 . S
C2667 C2668 1.523 . S
C2668 C2649 1.368 . S
C2668 C2662 1.368 . S
C2668 C2667 1.523 . S
C2669 C2653 1.429 . S
C2669 C2665 1.429 . S
C2669 C2670 1.523 . S
C2670 C2654 1.368 . S
C2670 C2666 1.368 . S
C2670 C2669 1.523 . S
H2671 C2646 0.950 . S
H2672 C2648 0.950 . S
H2673 C2649 0.949 . S
H2674 C2651 0.950 . S
H2675 C2653 0.950 . S
C2676 C2677 1.349 . S
C2676 C2678 1.327 . S
C2676 H2701 0.950 . S
C2677 C2676 1.349 . S
C2677 C2693 1.349 . S
C2678 C2676 1.327 . S
C2678 C2697 1.429 . S
C2678 H2702 0.950 . S
C2679 C2696 1.574 . S
C2679 C2698 1.368 . S
C2679 H2703 0.949 . S
H2680 C2684 0.949 . S
C2681 C2682 1.349 . S
C2681 C2683 1.327 . S
C2681 H2704 0.950 . S
C2682 C2681 1.349 . S
C2682 C2694 1.349 . S
C2683 C2681 1.327 . S
C2683 C2699 1.429 . S
C2683 H2705 0.950 . S
C2684 H2680 0.949 . S
C2684 C2692 1.574 . S
C2684 C2700 1.368 . S
H2685 C2693 0.950 . S
H2686 C2691 0.950 . S
H2687 C2692 0.949 . S
H2688 C2694 0.951 1_455 S
H2689 C2695 0.950 . S
H2690 C2696 0.949 . S
C2691 H2686 0.950 . S
C2691 C2693 1.327 . S
C2691 C2697 1.429 . S
C2692 C2684 1.574 . S
C2692 H2687 0.949 . S
C2692 C2698 1.368 . S
C2693 C2677 1.349 . S
C2693 H2685 0.950 . S
C2693 C2691 1.327 . S
C2694 C2682 1.349 . S
C2694 H2688 0.951 1_655 S
C2694 C2695 1.327 . S
C2695 H2689 0.950 . S
C2695 C2694 1.327 . S
C2695 C2699 1.429 . S
C2696 C2679 1.574 . S
C2696 H2690 0.949 . S
C2696 C2700 1.368 . S
C2697 C2678 1.429 . S
C2697 C2691 1.429 . S
C2697 C2698 1.523 . S
C2698 C2679 1.368 . S
C2698 C2692 1.368 . S
C2698 C2697 1.523 . S
C2699 C2683 1.429 . S
C2699 C2695 1.429 . S
C2699 C2700 1.523 . S
C2700 C2684 1.368 . S
C2700 C2696 1.368 . S
C2700 C2699 1.523 . S
H2701 C2676 0.950 . S
H2702 C2678 0.950 . S
H2703 C2679 0.949 . S
H2704 C2681 0.950 . S
H2705 C2683 0.950 . S
C2706 C2707 1.349 . S
C2706 C2708 1.327 . S
C2706 H2731 0.950 . S
C2707 C2706 1.349 . S
C2707 C2723 1.349 . S
C2708 C2706 1.327 . S
C2708 C2727 1.429 . S
C2708 H2732 0.950 . S
C2709 C2726 1.574 . S
C2709 C2728 1.368 . S
C2709 H2733 0.949 . S
H2710 C2714 0.949 . S
C2711 C2712 1.349 . S
C2711 C2713 1.327 . S
C2711 H2734 0.950 . S
C2712 C2711 1.349 . S
C2712 C2724 1.349 . S
C2713 C2711 1.327 . S
C2713 C2729 1.429 . S
C2713 H2735 0.950 . S
C2714 H2710 0.949 . S
C2714 C2722 1.574 . S
C2714 C2730 1.368 . S
H2715 C2723 0.950 . S
H2716 C2721 0.950 . S
H2717 C2722 0.949 . S
H2718 C2724 0.950 . S
H2719 C2725 0.950 . S
H2720 C2726 0.949 . S
C2721 H2716 0.950 . S
C2721 C2723 1.327 . S
C2721 C2727 1.429 . S
C2722 C2714 1.574 . S
C2722 H2717 0.949 . S
C2722 C2728 1.368 . S
C2723 C2707 1.349 . S
C2723 H2715 0.950 . S
C2723 C2721 1.327 . S
C2724 C2712 1.349 . S
C2724 H2718 0.950 . S
C2724 C2725 1.327 . S
C2725 H2719 0.950 . S
C2725 C2724 1.327 . S
C2725 C2729 1.429 . S
C2726 C2709 1.574 . S
C2726 H2720 0.949 . S
C2726 C2730 1.368 . S
C2727 C2708 1.429 . S
C2727 C2721 1.429 . S
C2727 C2728 1.523 . S
C2728 C2709 1.368 . S
C2728 C2722 1.368 . S
C2728 C2727 1.523 . S
C2729 C2713 1.429 . S
C2729 C2725 1.429 . S
C2729 C2730 1.523 . S
C2730 C2714 1.368 . S
C2730 C2726 1.368 . S
C2730 C2729 1.523 . S
H2731 C2706 0.950 . S
H2732 C2708 0.950 . S
H2733 C2709 0.949 . S
H2734 C2711 0.950 . S
H2735 C2713 0.950 . S
C2736 C2737 1.349 . S
C2736 C2738 1.327 . S
C2736 H2761 0.950 . S
C2737 C2736 1.349 . S
C2737 C2753 1.349 . S
C2738 C2736 1.327 . S
C2738 C2757 1.429 . S
C2738 H2762 0.950 . S
C2739 C2756 1.574 . S
C2739 C2758 1.368 . S
C2739 H2763 0.949 . S
H2740 C2744 0.949 . S
C2741 C2742 1.349 . S
C2741 C2743 1.327 . S
C2741 H2764 0.950 . S
C2742 C2741 1.349 . S
C2742 C2754 1.349 . S
C2743 C2741 1.327 . S
C2743 C2759 1.429 . S
C2743 H2765 0.950 . S
C2744 H2740 0.949 . S
C2744 C2752 1.574 . S
C2744 C2760 1.368 . S
H2745 C2753 0.950 . S
H2746 C2751 0.950 . S
H2747 C2752 0.949 . S
H2748 C2754 0.950 . S
H2749 C2755 0.950 . S
H2750 C2756 0.949 . S
C2751 H2746 0.950 . S
C2751 C2753 1.327 . S
C2751 C2757 1.429 . S
C2752 C2744 1.574 . S
C2752 H2747 0.949 . S
C2752 C2758 1.368 . S
C2753 C2737 1.349 . S
C2753 H2745 0.950 . S
C2753 C2751 1.327 . S
C2754 C2742 1.349 . S
C2754 H2748 0.950 . S
C2754 C2755 1.327 . S
C2755 H2749 0.950 . S
C2755 C2754 1.327 . S
C2755 C2759 1.429 . S
C2756 C2739 1.574 . S
C2756 H2750 0.949 . S
C2756 C2760 1.368 . S
C2757 C2738 1.429 . S
C2757 C2751 1.429 . S
C2757 C2758 1.523 . S
C2758 C2739 1.368 . S
C2758 C2752 1.368 . S
C2758 C2757 1.523 . S
C2759 C2743 1.429 . S
C2759 C2755 1.429 . S
C2759 C2760 1.523 . S
C2760 C2744 1.368 . S
C2760 C2756 1.368 . S
C2760 C2759 1.523 . S
H2761 C2736 0.950 . S
H2762 C2738 0.950 . S
H2763 C2739 0.949 . S
H2764 C2741 0.950 . S
H2765 C2743 0.950 . S
C2766 C2767 1.349 . S
C2766 C2768 1.327 . S
C2766 H2791 0.950 . S
C2767 C2766 1.349 . S
C2767 C2783 1.349 . S
C2768 C2766 1.327 . S
C2768 C2787 1.429 . S
C2768 H2792 0.950 . S
C2769 C2786 1.574 . S
C2769 C2788 1.368 . S
C2769 H2793 0.949 . S
H2770 C2774 0.949 . S
C2771 C2772 1.349 1_565 S
C2771 C2773 1.327 . S
C2771 H2794 0.950 . S
C2772 C2771 1.349 1_545 S
C2772 C2784 1.349 . S
C2773 C2771 1.327 . S
C2773 C2789 1.429 . S
C2773 H2795 0.950 . S
C2774 H2770 0.949 . S
C2774 C2782 1.574 . S
C2774 C2790 1.368 . S
H2775 C2783 0.950 . S
H2776 C2781 0.950 . S
H2777 C2782 0.949 . S
H2778 C2784 0.950 . S
H2779 C2785 0.950 . S
H2780 C2786 0.949 . S
C2781 H2776 0.950 . S
C2781 C2783 1.327 . S
C2781 C2787 1.429 . S
C2782 C2774 1.574 . S
C2782 H2777 0.949 . S
C2782 C2788 1.368 . S
C2783 C2767 1.349 . S
C2783 H2775 0.950 . S
C2783 C2781 1.327 . S
C2784 C2772 1.349 . S
C2784 H2778 0.950 . S
C2784 C2785 1.328 . S
C2785 H2779 0.950 . S
C2785 C2784 1.328 . S
C2785 C2789 1.427 1_545 S
C2786 C2769 1.574 . S
C2786 H2780 0.949 . S
C2786 C2790 1.368 . S
C2787 C2768 1.429 . S
C2787 C2781 1.429 . S
C2787 C2788 1.523 . S
C2788 C2769 1.368 . S
C2788 C2782 1.368 . S
C2788 C2787 1.523 . S
C2789 C2773 1.429 . S
C2789 C2785 1.427 1_565 S
C2789 C2790 1.523 . S
C2790 C2774 1.368 . S
C2790 C2786 1.368 . S
C2790 C2789 1.523 . S
H2791 C2766 0.950 . S
H2792 C2768 0.950 . S
H2793 C2769 0.949 . S
H2794 C2771 0.950 . S
H2795 C2773 0.950 . S
C2796 C2797 1.349 . S
C2796 C2798 1.327 . S
C2796 H2821 0.950 1_565 S
C2797 C2796 1.349 . S
C2797 C2813 1.349 . S
C2798 C2796 1.327 . S
C2798 C2817 1.429 . S
C2798 H2822 0.950 . S
C2799 C2816 1.574 . S
C2799 C2818 1.368 . S
C2799 H2823 0.949 . S
H2800 C2804 0.949 . S
C2801 C2802 1.349 . S
C2801 C2803 1.327 . S
C2801 H2824 0.950 . S
C2802 C2801 1.349 . S
C2802 C2814 1.349 . S
C2803 C2801 1.327 . S
C2803 C2819 1.429 . S
C2803 H2825 0.950 . S
C2804 H2800 0.949 . S
C2804 C2812 1.574 . S
C2804 C2820 1.368 . S
H2805 C2813 0.950 . S
H2806 C2811 0.950 . S
H2807 C2812 0.949 . S
H2808 C2814 0.950 . S
H2809 C2815 0.950 . S
H2810 C2816 0.949 . S
C2811 H2806 0.950 . S
C2811 C2813 1.327 . S
C2811 C2817 1.429 . S
C2812 C2804 1.574 . S
C2812 H2807 0.949 . S
C2812 C2818 1.368 . S
C2813 C2797 1.349 . S
C2813 H2805 0.950 . S
C2813 C2811 1.327 . S
C2814 C2802 1.349 . S
C2814 H2808 0.950 . S
C2814 C2815 1.327 . S
C2815 H2809 0.950 . S
C2815 C2814 1.327 . S
C2815 C2819 1.429 . S
C2816 C2799 1.574 . S
C2816 H2810 0.949 . S
C2816 C2820 1.368 . S
C2817 C2798 1.429 . S
C2817 C2811 1.429 . S
C2817 C2818 1.523 . S
C2818 C2799 1.368 . S
C2818 C2812 1.368 . S
C2818 C2817 1.523 . S
C2819 C2803 1.429 . S
C2819 C2815 1.429 . S
C2819 C2820 1.523 . S
C2820 C2804 1.368 . S
C2820 C2816 1.368 . S
C2820 C2819 1.523 . S
H2821 C2796 0.950 1_545 S
H2822 C2798 0.950 . S
H2823 C2799 0.949 . S
H2824 C2801 0.950 . S
H2825 C2803 0.950 . S
C2826 C2827 1.349 . S
C2826 C2828 1.327 . S
C2826 H2851 0.927 1_554 S
C2827 C2826 1.349 . S
C2827 C2843 1.349 . S
C2828 C2826 1.327 . S
C2828 C2847 1.429 . S
C2828 H2852 0.950 . S
C2829 C2846 1.574 . S
C2829 C2848 1.368 . S
C2829 H2853 0.949 . S
H2830 C2834 0.949 . S
C2831 C2832 1.349 . S
C2831 C2833 1.327 . S
C2831 H2854 0.950 . S
C2832 C2831 1.349 . S
C2832 C2844 1.349 . S
C2833 C2831 1.327 . S
C2833 C2849 1.429 . S
C2833 H2855 0.950 . S
C2834 H2830 0.949 . S
C2834 C2842 1.574 . S
C2834 C2850 1.368 . S
H2835 C2843 0.950 . S
H2836 C2841 0.950 . S
H2837 C2842 0.949 . S
H2838 C2844 0.950 . S
H2839 C2845 0.950 . S
H2840 C2846 0.949 . S
C2841 H2836 0.950 . S
C2841 C2843 1.327 . S
C2841 C2847 1.429 . S
C2842 C2834 1.574 . S
C2842 H2837 0.949 . S
C2842 C2848 1.368 . S
C2843 C2827 1.349 . S
C2843 H2835 0.950 . S
C2843 C2841 1.327 . S
C2844 C2832 1.349 . S
C2844 H2838 0.950 . S
C2844 C2845 1.327 . S
C2845 H2839 0.950 . S
C2845 C2844 1.327 . S
C2845 C2849 1.429 . S
C2846 C2829 1.574 . S
C2846 H2840 0.949 . S
C2846 C2850 1.368 . S
C2847 C2828 1.429 . S
C2847 C2841 1.429 . S
C2847 C2848 1.523 . S
C2848 C2829 1.368 . S
C2848 C2842 1.368 . S
C2848 C2847 1.523 . S
C2849 C2833 1.429 . S
C2849 C2845 1.429 . S
C2849 C2850 1.523 . S
C2850 C2834 1.368 . S
C2850 C2846 1.368 . S
C2850 C2849 1.523 . S
H2851 C2826 0.927 1_556 S
H2852 C2828 0.950 . S
H2853 C2829 0.949 . S
H2854 C2831 0.950 . S
H2855 C2833 0.950 . S
C2856 C2857 1.349 . S
C2856 C2858 1.327 . S
C2856 H2881 0.950 . S
C2857 C2856 1.349 . S
C2857 C2873 1.349 . S
C2858 C2856 1.327 . S
C2858 C2877 1.429 . S
C2858 H2882 0.950 . S
C2859 C2876 1.574 . S
C2859 C2878 1.368 . S
C2859 H2883 0.949 . S
H2860 C2864 0.949 . S
C2861 C2862 1.349 . S
C2861 C2863 1.327 . S
C2861 H2884 0.950 . S
C2862 C2861 1.349 . S
C2862 C2874 1.349 . S
C2863 C2861 1.327 . S
C2863 C2879 1.429 . S
C2863 H2885 0.950 . S
C2864 H2860 0.949 . S
C2864 C2872 1.574 . S
C2864 C2880 1.368 . S
H2865 C2873 0.950 . S
H2866 C2871 0.950 . S
H2867 C2872 0.949 . S
H2868 C2874 0.950 . S
H2869 C2875 0.950 . S
H2870 C2876 0.949 . S
C2871 H2866 0.950 . S
C2871 C2873 1.327 . S
C2871 C2877 1.429 . S
C2872 C2864 1.574 . S
C2872 H2867 0.949 . S
C2872 C2878 1.368 . S
C2873 C2857 1.349 . S
C2873 H2865 0.950 . S
C2873 C2871 1.327 . S
C2874 C2862 1.349 . S
C2874 H2868 0.950 . S
C2874 C2875 1.327 . S
C2875 H2869 0.950 . S
C2875 C2874 1.327 . S
C2875 C2879 1.429 . S
C2876 C2859 1.574 . S
C2876 H2870 0.949 . S
C2876 C2880 1.368 . S
C2877 C2858 1.429 . S
C2877 C2871 1.429 . S
C2877 C2878 1.523 . S
C2878 C2859 1.368 . S
C2878 C2872 1.368 . S
C2878 C2877 1.523 . S
C2879 C2863 1.429 . S
C2879 C2875 1.429 . S
C2879 C2880 1.523 . S
C2880 C2864 1.368 . S
C2880 C2876 1.368 . S
C2880 C2879 1.523 . S
H2881 C2856 0.950 . S
H2882 C2858 0.950 . S
H2883 C2859 0.949 . S
H2884 C2861 0.950 . S
H2885 C2863 0.950 . S
C2886 C2887 1.349 . S
C2886 C2888 1.327 . S
C2886 H2911 0.950 . S
C2887 C2886 1.349 . S
C2887 C2903 1.349 . S
C2888 C2886 1.327 . S
C2888 C2907 1.429 . S
C2888 H2912 0.950 . S
C2889 C2906 1.574 . S
C2889 C2908 1.368 . S
C2889 H2913 0.949 . S
H2890 C2894 0.949 . S
C2891 C2892 1.349 1_556 S
C2891 C2893 1.331 . S
C2891 H2914 0.950 . S
C2892 C2891 1.349 1_554 S
C2892 C2904 1.349 . S
C2893 C2891 1.331 . S
C2893 C2909 1.407 1_556 S
C2893 H2915 0.968 . S
C2894 H2890 0.949 . S
C2894 C2902 1.574 . S
C2894 C2910 1.368 . S
H2895 C2903 0.950 . S
H2896 C2901 0.950 . S
H2897 C2902 0.949 . S
H2898 C2904 0.950 . S
H2899 C2905 0.950 . S
H2900 C2906 0.949 1_556 S
C2901 H2896 0.950 . S
C2901 C2903 1.327 . S
C2901 C2907 1.429 . S
C2902 C2894 1.574 . S
C2902 H2897 0.949 . S
C2902 C2908 1.368 . S
C2903 C2887 1.349 . S
C2903 H2895 0.950 . S
C2903 C2901 1.327 . S
C2904 C2892 1.349 . S
C2904 H2898 0.950 . S
C2904 C2905 1.327 . S
C2905 H2899 0.950 . S
C2905 C2904 1.327 . S
C2905 C2909 1.429 . S
C2906 C2889 1.574 . S
C2906 H2900 0.949 1_554 S
C2906 C2910 1.368 . S
C2907 C2888 1.429 . S
C2907 C2901 1.429 . S
C2907 C2908 1.523 . S
C2908 C2889 1.368 . S
C2908 C2902 1.368 . S
C2908 C2907 1.523 . S
C2909 C2893 1.407 1_554 S
C2909 C2905 1.429 . S
C2909 C2910 1.523 . S
C2910 C2894 1.368 . S
C2910 C2906 1.368 . S
C2910 C2909 1.523 . S
H2911 C2886 0.950 . S
H2912 C2888 0.950 . S
H2913 C2889 0.949 . S
H2914 C2891 0.950 . S
H2915 C2893 0.968 . S
C2916 C2917 1.349 . S
C2916 C2918 1.327 . S
C2916 H2941 0.950 . S
C2917 C2916 1.349 . S
C2917 C2933 1.349 . S
C2918 C2916 1.327 . S
C2918 C2937 1.429 . S
C2918 H2942 0.950 . S
C2919 C2936 1.574 . S
C2919 C2938 1.368 . S
C2919 H2943 0.949 . S
H2920 C2924 0.949 . S
C2921 C2922 1.349 . S
C2921 C2923 1.327 . S
C2921 H2944 0.950 . S
C2922 C2921 1.349 . S
C2922 C2934 1.349 . S
C2923 C2921 1.327 . S
C2923 C2939 1.429 . S
C2923 H2945 0.950 . S
C2924 H2920 0.949 . S
C2924 C2932 1.574 . S
C2924 C2940 1.368 . S
H2925 C2933 0.950 . S
H2926 C2931 0.950 . S
H2927 C2932 0.949 . S
H2928 C2934 0.950 . S
H2929 C2935 0.950 . S
H2930 C2936 0.949 . S
C2931 H2926 0.950 . S
C2931 C2933 1.327 . S
C2931 C2937 1.429 . S
C2932 C2924 1.574 . S
C2932 H2927 0.949 . S
C2932 C2938 1.368 . S
C2933 C2917 1.349 . S
C2933 H2925 0.950 . S
C2933 C2931 1.327 . S
C2934 C2922 1.349 . S
C2934 H2928 0.950 . S
C2934 C2935 1.327 . S
C2935 H2929 0.950 . S
C2935 C2934 1.327 . S
C2935 C2939 1.429 . S
C2936 C2919 1.574 . S
C2936 H2930 0.949 . S
C2936 C2940 1.368 . S
C2937 C2918 1.429 . S
C2937 C2931 1.429 . S
C2937 C2938 1.523 . S
C2938 C2919 1.368 . S
C2938 C2932 1.368 . S
C2938 C2937 1.523 . S
C2939 C2923 1.429 . S
C2939 C2935 1.429 . S
C2939 C2940 1.523 . S
C2940 C2924 1.368 . S
C2940 C2936 1.368 . S
C2940 C2939 1.523 . S
H2941 C2916 0.950 . S
H2942 C2918 0.950 . S
H2943 C2919 0.949 . S
H2944 C2921 0.950 . S
H2945 C2923 0.950 . S
C2946 C2947 1.349 . S
C2946 C2948 1.327 . S
C2946 H2971 0.950 . S
C2947 C2946 1.349 . S
C2947 C2963 1.349 . S
C2948 C2946 1.327 . S
C2948 C2967 1.429 . S
C2948 H2972 0.950 . S
C2949 C2966 1.574 . S
C2949 C2968 1.368 . S
C2949 H2973 0.949 . S
H2950 C2954 0.949 . S
C2951 C2952 1.349 . S
C2951 C2953 1.327 . S
C2951 H2974 0.950 . S
C2952 C2951 1.349 . S
C2952 C2964 1.349 . S
C2953 C2951 1.327 . S
C2953 C2969 1.429 . S
C2953 H2975 0.950 . S
C2954 H2950 0.949 . S
C2954 C2962 1.574 . S
C2954 C2970 1.368 . S
H2955 C2963 0.950 . S
H2956 C2961 0.950 . S
H2957 C2962 0.949 . S
H2958 C2964 0.950 . S
H2959 C2965 0.950 . S
H2960 C2966 0.949 . S
C2961 H2956 0.950 . S
C2961 C2963 1.327 . S
C2961 C2967 1.429 . S
C2962 C2954 1.574 . S
C2962 H2957 0.949 . S
C2962 C2968 1.368 . S
C2963 C2947 1.349 . S
C2963 H2955 0.950 . S
C2963 C2961 1.327 . S
C2964 C2952 1.349 . S
C2964 H2958 0.950 . S
C2964 C2965 1.327 . S
C2965 H2959 0.950 . S
C2965 C2964 1.327 . S
C2965 C2969 1.429 . S
C2966 C2949 1.574 . S
C2966 H2960 0.949 . S
C2966 C2970 1.368 . S
C2967 C2948 1.429 . S
C2967 C2961 1.429 . S
C2967 C2968 1.523 . S
C2968 C2949 1.368 . S
C2968 C2962 1.368 . S
C2968 C2967 1.523 . S
C2969 C2953 1.429 . S
C2969 C2965 1.429 . S
C2969 C2970 1.523 . S
C2970 C2954 1.368 . S
C2970 C2966 1.368 . S
C2970 C2969 1.523 . S
H2971 C2946 0.950 . S
H2972 C2948 0.950 . S
H2973 C2949 0.949 . S
H2974 C2951 0.950 . S
H2975 C2953 0.950 . S
C2976 C2977 1.349 . S
C2976 C2978 1.327 . S
C2976 H3001 0.950 . S
C2977 C2976 1.349 . S
C2977 C2993 1.349 . S
C2978 C2976 1.327 . S
C2978 C2997 1.429 . S
C2978 H3002 0.950 . S
C2979 C2996 1.574 . S
C2979 C2998 1.368 . S
C2979 H3003 0.949 . S
H2980 C2984 0.949 . S
C2981 C2982 1.349 . S
C2981 C2983 1.327 . S
C2981 H3004 0.950 . S
C2982 C2981 1.349 . S
C2982 C2994 1.349 . S
C2983 C2981 1.327 . S
C2983 C2999 1.429 . S
C2983 H3005 0.950 . S
C2984 H2980 0.949 . S
C2984 C2992 1.574 . S
C2984 C3000 1.368 . S
H2985 C2993 0.950 . S
H2986 C2991 0.950 . S
H2987 C2992 0.949 . S
H2988 C2994 0.950 . S
H2989 C2995 0.950 . S
H2990 C2996 0.949 . S
C2991 H2986 0.950 . S
C2991 C2993 1.327 . S
C2991 C2997 1.429 . S
C2992 C2984 1.574 . S
C2992 H2987 0.949 . S
C2992 C2998 1.368 . S
C2993 C2977 1.349 . S
C2993 H2985 0.950 . S
C2993 C2991 1.327 . S
C2994 C2982 1.349 . S
C2994 H2988 0.950 . S
C2994 C2995 1.327 . S
C2995 H2989 0.950 . S
C2995 C2994 1.327 . S
C2995 C2999 1.429 . S
C2996 C2979 1.574 . S
C2996 H2990 0.949 . S
C2996 C3000 1.368 . S
C2997 C2978 1.429 . S
C2997 C2991 1.429 . S
C2997 C2998 1.523 . S
C2998 C2979 1.368 . S
C2998 C2992 1.368 . S
C2998 C2997 1.523 . S
C2999 C2983 1.429 . S
C2999 C2995 1.429 . S
C2999 C3000 1.523 . S
C3000 C2984 1.368 . S
C3000 C2996 1.368 . S
C3000 C2999 1.523 . S
H3001 C2976 0.950 . S
H3002 C2978 0.950 . S
H3003 C2979 0.949 . S
H3004 C2981 0.950 . S
H3005 C2983 0.950 . S
C3006 C3007 1.349 . S
C3006 C3008 1.327 . S
C3006 H3031 0.950 . S
C3007 C3006 1.349 . S
C3007 C3023 1.349 . S
C3008 C3006 1.327 . S
C3008 C3027 1.429 . S
C3008 H3032 0.950 . S
C3009 C3026 1.574 . S
C3009 C3028 1.368 . S
C3009 H3033 0.949 . S
H3010 C3014 0.949 . S
C3011 C3012 1.349 . S
C3011 C3013 1.327 . S
C3011 H3034 0.950 . S
C3012 C3011 1.349 . S
C3012 C3024 1.349 . S
C3013 C3011 1.327 . S
C3013 C3029 1.429 . S
C3013 H3035 0.950 . S
C3014 H3010 0.949 . S
C3014 C3022 1.574 . S
C3014 C3030 1.368 . S
H3015 C3023 0.950 . S
H3016 C3021 0.950 . S
H3017 C3022 0.949 . S
H3018 C3024 0.950 . S
H3019 C3025 0.950 . S
H3020 C3026 0.949 . S
C3021 H3016 0.950 . S
C3021 C3023 1.327 . S
C3021 C3027 1.429 . S
C3022 C3014 1.574 . S
C3022 H3017 0.949 . S
C3022 C3028 1.368 . S
C3023 C3007 1.349 . S
C3023 H3015 0.950 . S
C3023 C3021 1.327 . S
C3024 C3012 1.349 . S
C3024 H3018 0.950 . S
C3024 C3025 1.327 . S
C3025 H3019 0.950 . S
C3025 C3024 1.327 . S
C3025 C3029 1.429 . S
C3026 C3009 1.574 . S
C3026 H3020 0.949 . S
C3026 C3030 1.368 . S
C3027 C3008 1.429 . S
C3027 C3021 1.429 . S
C3027 C3028 1.523 . S
C3028 C3009 1.368 . S
C3028 C3022 1.368 . S
C3028 C3027 1.523 . S
C3029 C3013 1.429 . S
C3029 C3025 1.429 . S
C3029 C3030 1.523 . S
C3030 C3014 1.368 . S
C3030 C3026 1.368 . S
C3030 C3029 1.523 . S
H3031 C3006 0.950 . S
H3032 C3008 0.950 . S
H3033 C3009 0.949 . S
H3034 C3011 0.950 . S
H3035 C3013 0.950 . S
C3036 C3037 1.349 . S
C3036 C3038 1.327 . S
C3036 H3061 0.950 . S
C3037 C3036 1.349 . S
C3037 C3053 1.349 . S
C3038 C3036 1.327 . S
C3038 C3057 1.429 . S
C3038 H3062 0.950 . S
C3039 C3056 1.574 . S
C3039 C3058 1.368 . S
C3039 H3063 0.953 . S
H3040 C3044 0.949 . S
C3041 C3042 1.349 1_554 S
C3041 C3043 1.327 1_554 S
C3041 H3064 0.950 1_455 S
C3042 C3041 1.349 1_556 S
C3042 C3054 1.349 . S
C3043 C3041 1.327 1_556 S
C3043 C3059 1.429 . S
C3043 H3065 0.950 1_456 S
C3044 H3040 0.949 . S
C3044 C3052 1.574 . S
C3044 C3060 1.368 . S
H3045 C3053 0.950 . S
H3046 C3051 0.950 . S
H3047 C3052 0.949 . S
H3048 C3054 0.950 . S
H3049 C3055 0.950 . S
H3050 C3056 0.949 1_655 S
C3051 H3046 0.950 . S
C3051 C3053 1.327 . S
C3051 C3057 1.429 . S
C3052 C3044 1.574 . S
C3052 H3047 0.949 . S
C3052 C3058 1.368 . S
C3053 C3037 1.349 . S
C3053 H3045 0.950 . S
C3053 C3051 1.327 . S
C3054 C3042 1.349 . S
C3054 H3048 0.950 . S
C3054 C3055 1.327 . S
C3055 H3049 0.950 . S
C3055 C3054 1.327 . S
C3055 C3059 1.429 . S
C3056 C3039 1.574 . S
C3056 H3050 0.949 1_455 S
C3056 C3060 1.368 . S
C3057 C3038 1.429 . S
C3057 C3051 1.429 . S
C3057 C3058 1.523 . S
C3058 C3039 1.368 . S
C3058 C3052 1.368 . S
C3058 C3057 1.523 . S
C3059 C3043 1.429 . S
C3059 C3055 1.429 . S
C3059 C3060 1.523 . S
C3060 C3044 1.368 . S
C3060 C3056 1.368 . S
C3060 C3059 1.523 . S
H3061 C3036 0.950 . S
H3062 C3038 0.950 . S
H3063 C3039 0.953 . S
H3064 C3041 0.950 1_655 S
H3065 C3043 0.950 1_654 S
C3066 C3067 1.349 . S
C3066 C3068 1.327 . S
C3066 H3091 0.950 . S
C3067 C3066 1.349 . S
C3067 C3083 1.349 . S
C3068 C3066 1.327 . S
C3068 C3087 1.429 . S
C3068 H3092 0.950 . S
C3069 C3086 1.574 . S
C3069 C3088 1.368 . S
C3069 H3093 0.949 . S
H3070 C3074 0.949 . S
C3071 C3072 1.349 . S
C3071 C3073 1.327 . S
C3071 H3094 0.950 . S
C3072 C3071 1.349 . S
C3072 C3084 1.349 . S
C3073 C3071 1.327 . S
C3073 C3089 1.429 . S
C3073 H3095 0.950 . S
C3074 H3070 0.949 . S
C3074 C3082 1.574 . S
C3074 C3090 1.368 . S
H3075 C3083 0.950 . S
H3076 C3081 0.950 . S
H3077 C3082 0.949 . S
H3078 C3084 0.950 . S
H3079 C3085 0.950 . S
H3080 C3086 0.949 . S
C3081 H3076 0.950 . S
C3081 C3083 1.327 . S
C3081 C3087 1.429 . S
C3082 C3074 1.574 . S
C3082 H3077 0.949 . S
C3082 C3088 1.368 . S
C3083 C3067 1.349 . S
C3083 H3075 0.950 . S
C3083 C3081 1.327 . S
C3084 C3072 1.349 . S
C3084 H3078 0.950 . S
C3084 C3085 1.327 . S
C3085 H3079 0.950 . S
C3085 C3084 1.327 . S
C3085 C3089 1.429 . S
C3086 C3069 1.574 . S
C3086 H3080 0.949 . S
C3086 C3090 1.368 . S
C3087 C3068 1.429 . S
C3087 C3081 1.429 . S
C3087 C3088 1.523 . S
C3088 C3069 1.368 . S
C3088 C3082 1.368 . S
C3088 C3087 1.523 . S
C3089 C3073 1.429 . S
C3089 C3085 1.429 . S
C3089 C3090 1.523 . S
C3090 C3074 1.368 . S
C3090 C3086 1.368 . S
C3090 C3089 1.523 . S
H3091 C3066 0.950 . S
H3092 C3068 0.950 . S
H3093 C3069 0.949 . S
H3094 C3071 0.950 . S
H3095 C3073 0.950 . S
C3096 C3097 1.349 . S
C3096 C3098 1.327 . S
C3096 H3121 0.950 . S
C3097 C3096 1.349 . S
C3097 C3113 1.349 . S
C3098 C3096 1.327 . S
C3098 C3117 1.429 . S
C3098 H3122 0.950 . S
C3099 C3116 1.574 . S
C3099 C3118 1.368 . S
C3099 H3123 0.949 . S
H3100 C3104 0.949 . S
C3101 C3102 1.349 . S
C3101 C3103 1.327 . S
C3101 H3124 0.950 . S
C3102 C3101 1.349 . S
C3102 C3114 1.349 . S
C3103 C3101 1.327 . S
C3103 C3119 1.429 . S
C3103 H3125 0.950 . S
C3104 H3100 0.949 . S
C3104 C3112 1.574 . S
C3104 C3120 1.368 . S
H3105 C3113 0.950 . S
H3106 C3111 0.950 . S
H3107 C3112 0.949 . S
H3108 C3114 0.950 . S
H3109 C3115 0.950 . S
H3110 C3116 0.949 . S
C3111 H3106 0.950 . S
C3111 C3113 1.327 . S
C3111 C3117 1.429 . S
C3112 C3104 1.574 . S
C3112 H3107 0.949 . S
C3112 C3118 1.368 . S
C3113 C3097 1.349 . S
C3113 H3105 0.950 . S
C3113 C3111 1.327 . S
C3114 C3102 1.349 . S
C3114 H3108 0.950 . S
C3114 C3115 1.327 . S
C3115 H3109 0.950 . S
C3115 C3114 1.327 . S
C3115 C3119 1.429 . S
C3116 C3099 1.574 . S
C3116 H3110 0.949 . S
C3116 C3120 1.368 . S
C3117 C3098 1.429 . S
C3117 C3111 1.429 . S
C3117 C3118 1.523 . S
C3118 C3099 1.368 . S
C3118 C3112 1.368 . S
C3118 C3117 1.523 . S
C3119 C3103 1.429 . S
C3119 C3115 1.429 . S
C3119 C3120 1.523 . S
C3120 C3104 1.368 . S
C3120 C3116 1.368 . S
C3120 C3119 1.523 . S
H3121 C3096 0.950 . S
H3122 C3098 0.950 . S
H3123 C3099 0.949 . S
H3124 C3101 0.950 . S
H3125 C3103 0.950 . S
C3126 C3127 1.349 . S
C3126 C3128 1.327 . S
C3126 H3151 0.950 . S
C3127 C3126 1.349 . S
C3127 C3143 1.349 . S
C3128 C3126 1.327 . S
C3128 C3147 1.429 . S
C3128 H3152 0.950 . S
C3129 C3146 1.574 . S
C3129 C3148 1.368 . S
C3129 H3153 0.949 . S
H3130 C3134 0.949 . S
C3131 C3132 1.349 . S
C3131 C3133 1.327 . S
C3131 H3154 0.950 . S
C3132 C3131 1.349 . S
C3132 C3144 1.349 . S
C3133 C3131 1.327 . S
C3133 C3149 1.429 . S
C3133 H3155 0.950 . S
C3134 H3130 0.949 . S
C3134 C3142 1.574 . S
C3134 C3150 1.368 . S
H3135 C3143 0.950 . S
H3136 C3141 0.950 . S
H3137 C3142 0.949 . S
H3138 C3144 0.950 . S
H3139 C3145 0.950 . S
H3140 C3146 0.949 . S
C3141 H3136 0.950 . S
C3141 C3143 1.327 . S
C3141 C3147 1.429 . S
C3142 C3134 1.574 . S
C3142 H3137 0.949 . S
C3142 C3148 1.368 . S
C3143 C3127 1.349 . S
C3143 H3135 0.950 . S
C3143 C3141 1.327 . S
C3144 C3132 1.349 . S
C3144 H3138 0.950 . S
C3144 C3145 1.327 . S
C3145 H3139 0.950 . S
C3145 C3144 1.327 . S
C3145 C3149 1.429 . S
C3146 C3129 1.574 . S
C3146 H3140 0.949 . S
C3146 C3150 1.368 . S
C3147 C3128 1.429 . S
C3147 C3141 1.429 . S
C3147 C3148 1.523 . S
C3148 C3129 1.368 . S
C3148 C3142 1.368 . S
C3148 C3147 1.523 . S
C3149 C3133 1.429 . S
C3149 C3145 1.429 . S
C3149 C3150 1.523 . S
C3150 C3134 1.368 . S
C3150 C3146 1.368 . S
C3150 C3149 1.523 . S
H3151 C3126 0.950 . S
H3152 C3128 0.950 . S
H3153 C3129 0.949 . S
H3154 C3131 0.950 . S
H3155 C3133 0.950 . S
C3156 C3157 1.349 1_655 S
C3156 C3158 1.327 . S
C3156 H3181 0.950 . S
C3157 C3156 1.349 1_455 S
C3157 C3173 1.349 . S
C3158 C3156 1.327 . S
C3158 C3177 1.429 1_655 S
C3158 H3182 0.950 . S
C3159 C3176 1.574 . S
C3159 C3178 1.368 . S
C3159 H3183 0.949 . S
H3160 C3164 0.949 . S
C3161 C3162 1.349 . S
C3161 C3163 1.327 . S
C3161 H3184 0.950 . S
C3162 C3161 1.349 . S
C3162 C3174 1.349 1_455 S
C3163 C3161 1.327 . S
C3163 C3179 1.429 . S
C3163 H3185 0.950 . S
C3164 H3160 0.949 . S
C3164 C3172 1.574 . S
C3164 C3180 1.368 1_655 S
H3165 C3173 0.950 . S
H3166 C3171 0.950 . S
H3167 C3172 0.949 . S
H3168 C3174 0.950 . S
H3169 C3175 0.950 . S
H3170 C3176 0.949 . S
C3171 H3166 0.950 . S
C3171 C3173 1.327 . S
C3171 C3177 1.429 . S
C3172 C3164 1.574 . S
C3172 H3167 0.949 . S
C3172 C3178 1.368 1_655 S
C3173 C3157 1.349 . S
C3173 H3165 0.950 . S
C3173 C3171 1.327 . S
C3174 C3162 1.349 1_655 S
C3174 H3168 0.950 . S
C3174 C3175 1.327 . S
C3175 H3169 0.950 . S
C3175 C3174 1.327 . S
C3175 C3179 1.429 1_655 S
C3176 C3159 1.574 . S
C3176 H3170 0.949 . S
C3176 C3180 1.368 . S
C3177 C3158 1.429 1_455 S
C3177 C3171 1.429 . S
C3177 C3178 1.523 . S
C3178 C3159 1.368 . S
C3178 C3172 1.368 1_455 S
C3178 C3177 1.523 . S
C3179 C3163 1.429 . S
C3179 C3175 1.429 1_455 S
C3179 C3180 1.523 . S
C3180 C3164 1.368 1_455 S
C3180 C3176 1.368 . S
C3180 C3179 1.523 . S
H3181 C3156 0.950 . S
H3182 C3158 0.950 . S
H3183 C3159 0.949 . S
H3184 C3161 0.950 . S
H3185 C3163 0.950 . S
C3186 C3187 1.349 . S
C3186 C3188 1.327 . S
C3186 H3211 0.950 . S
C3187 C3186 1.349 . S
C3187 C3203 1.349 . S
C3188 C3186 1.327 . S
C3188 C3207 1.429 . S
C3188 H3212 0.950 . S
C3189 C3206 1.574 . S
C3189 C3208 1.368 . S
C3189 H3213 0.949 . S
H3190 C3194 0.949 . S
C3191 C3192 1.349 . S
C3191 C3193 1.327 . S
C3191 H3214 0.950 . S
C3192 C3191 1.349 . S
C3192 C3204 1.349 . S
C3193 C3191 1.327 . S
C3193 C3209 1.429 . S
C3193 H3215 0.950 . S
C3194 H3190 0.949 . S
C3194 C3202 1.574 . S
C3194 C3210 1.368 . S
H3195 C3203 0.950 . S
H3196 C3201 0.950 . S
H3197 C3202 0.949 . S
H3198 C3204 0.950 . S
H3199 C3205 0.950 . S
H3200 C3206 0.949 . S
C3201 H3196 0.950 . S
C3201 C3203 1.327 . S
C3201 C3207 1.429 . S
C3202 C3194 1.574 . S
C3202 H3197 0.949 . S
C3202 C3208 1.368 . S
C3203 C3187 1.349 . S
C3203 H3195 0.950 . S
C3203 C3201 1.327 . S
C3204 C3192 1.349 . S
C3204 H3198 0.950 . S
C3204 C3205 1.327 . S
C3205 H3199 0.950 . S
C3205 C3204 1.327 . S
C3205 C3209 1.429 . S
C3206 C3189 1.574 . S
C3206 H3200 0.949 . S
C3206 C3210 1.368 . S
C3207 C3188 1.429 . S
C3207 C3201 1.429 . S
C3207 C3208 1.523 . S
C3208 C3189 1.368 . S
C3208 C3202 1.368 . S
C3208 C3207 1.523 . S
C3209 C3193 1.429 . S
C3209 C3205 1.429 . S
C3209 C3210 1.523 . S
C3210 C3194 1.368 . S
C3210 C3206 1.368 . S
C3210 C3209 1.523 . S
H3211 C3186 0.950 . S
H3212 C3188 0.950 . S
H3213 C3189 0.949 . S
H3214 C3191 0.950 . S
H3215 C3193 0.950 . S
C3216 C3217 1.349 . S
C3216 C3218 1.327 . S
C3216 H3241 0.950 . S
C3217 C3216 1.349 . S
C3217 C3233 1.349 . S
C3218 C3216 1.327 . S
C3218 C3237 1.429 . S
C3218 H3242 0.950 . S
C3219 C3236 1.574 . S
C3219 C3238 1.368 . S
C3219 H3243 0.949 . S
H3220 C3224 0.949 . S
C3221 C3222 1.349 . S
C3221 C3223 1.327 . S
C3221 H3244 0.950 . S
C3222 C3221 1.349 . S
C3222 C3234 1.349 . S
C3223 C3221 1.327 . S
C3223 C3239 1.429 . S
C3223 H3245 0.950 . S
C3224 H3220 0.949 . S
C3224 C3232 1.574 . S
C3224 C3240 1.368 . S
H3225 C3233 0.950 . S
H3226 C3231 0.950 . S
H3227 C3232 0.949 . S
H3228 C3234 0.950 . S
H3229 C3235 0.950 . S
H3230 C3236 0.949 . S
C3231 H3226 0.950 . S
C3231 C3233 1.327 . S
C3231 C3237 1.429 . S
C3232 C3224 1.574 . S
C3232 H3227 0.949 . S
C3232 C3238 1.368 . S
C3233 C3217 1.349 . S
C3233 H3225 0.950 . S
C3233 C3231 1.327 . S
C3234 C3222 1.349 . S
C3234 H3228 0.950 . S
C3234 C3235 1.327 . S
C3235 H3229 0.950 . S
C3235 C3234 1.327 . S
C3235 C3239 1.429 . S
C3236 C3219 1.574 . S
C3236 H3230 0.949 . S
C3236 C3240 1.368 . S
C3237 C3218 1.429 . S
C3237 C3231 1.429 . S
C3237 C3238 1.523 . S
C3238 C3219 1.368 . S
C3238 C3232 1.368 . S
C3238 C3237 1.523 . S
C3239 C3223 1.429 . S
C3239 C3235 1.429 . S
C3239 C3240 1.523 . S
C3240 C3224 1.368 . S
C3240 C3236 1.368 . S
C3240 C3239 1.523 . S
H3241 C3216 0.950 . S
H3242 C3218 0.950 . S
H3243 C3219 0.949 . S
H3244 C3221 0.950 . S
H3245 C3223 0.950 . S
C3246 C3247 1.349 . S
C3246 C3248 1.327 . S
C3246 H3271 0.950 . S
C3247 C3246 1.349 . S
C3247 C3263 1.349 . S
C3248 C3246 1.327 . S
C3248 C3267 1.429 . S
C3248 H3272 0.950 . S
C3249 C3266 1.574 . S
C3249 C3268 1.368 . S
C3249 H3273 0.949 . S
H3250 C3254 0.949 . S
C3251 C3252 1.349 . S
C3251 C3253 1.327 . S
C3251 H3274 0.950 . S
C3252 C3251 1.349 . S
C3252 C3264 1.349 . S
C3253 C3251 1.327 . S
C3253 C3269 1.429 . S
C3253 H3275 0.950 . S
C3254 H3250 0.949 . S
C3254 C3262 1.574 . S
C3254 C3270 1.368 . S
H3255 C3263 0.950 . S
H3256 C3261 0.950 . S
H3257 C3262 0.949 . S
H3258 C3264 0.950 . S
H3259 C3265 0.950 . S
H3260 C3266 0.949 . S
C3261 H3256 0.950 . S
C3261 C3263 1.327 . S
C3261 C3267 1.429 . S
C3262 C3254 1.574 . S
C3262 H3257 0.949 . S
C3262 C3268 1.368 . S
C3263 C3247 1.349 . S
C3263 H3255 0.950 . S
C3263 C3261 1.327 . S
C3264 C3252 1.349 . S
C3264 H3258 0.950 . S
C3264 C3265 1.327 . S
C3265 H3259 0.950 . S
C3265 C3264 1.327 . S
C3265 C3269 1.429 . S
C3266 C3249 1.574 . S
C3266 H3260 0.949 . S
C3266 C3270 1.368 . S
C3267 C3248 1.429 . S
C3267 C3261 1.429 . S
C3267 C3268 1.523 . S
C3268 C3249 1.368 . S
C3268 C3262 1.368 . S
C3268 C3267 1.523 . S
C3269 C3253 1.429 . S
C3269 C3265 1.429 . S
C3269 C3270 1.523 . S
C3270 C3254 1.368 . S
C3270 C3266 1.368 . S
C3270 C3269 1.523 . S
H3271 C3246 0.950 . S
H3272 C3248 0.950 . S
H3273 C3249 0.949 . S
H3274 C3251 0.950 . S
H3275 C3253 0.950 . S
C3276 C3277 1.349 . S
C3276 C3278 1.327 . S
C3276 H3301 0.950 . S
C3277 C3276 1.349 . S
C3277 C3293 1.349 . S
C3278 C3276 1.327 . S
C3278 C3297 1.429 . S
C3278 H3302 0.950 . S
C3279 C3296 1.574 . S
C3279 C3298 1.368 . S
C3279 H3303 0.949 . S
H3280 C3284 0.949 . S
C3281 C3282 1.349 . S
C3281 C3283 1.327 . S
C3281 H3304 0.950 . S
C3282 C3281 1.349 . S
C3282 C3294 1.349 . S
C3283 C3281 1.327 . S
C3283 C3299 1.429 . S
C3283 H3305 0.950 . S
C3284 H3280 0.949 . S
C3284 C3292 1.574 . S
C3284 C3300 1.368 . S
H3285 C3293 0.950 . S
H3286 C3291 0.950 . S
H3287 C3292 0.949 . S
H3288 C3294 0.950 . S
H3289 C3295 0.950 . S
H3290 C3296 0.949 . S
C3291 H3286 0.950 . S
C3291 C3293 1.327 . S
C3291 C3297 1.429 . S
C3292 C3284 1.574 . S
C3292 H3287 0.949 . S
C3292 C3298 1.368 . S
C3293 C3277 1.349 . S
C3293 H3285 0.950 . S
C3293 C3291 1.327 . S
C3294 C3282 1.349 . S
C3294 H3288 0.950 . S
C3294 C3295 1.327 . S
C3295 H3289 0.950 . S
C3295 C3294 1.327 . S
C3295 C3299 1.429 . S
C3296 C3279 1.574 . S
C3296 H3290 0.949 . S
C3296 C3300 1.368 . S
C3297 C3278 1.429 . S
C3297 C3291 1.429 . S
C3297 C3298 1.523 . S
C3298 C3279 1.368 . S
C3298 C3292 1.368 . S
C3298 C3297 1.523 . S
C3299 C3283 1.429 . S
C3299 C3295 1.429 . S
C3299 C3300 1.523 . S
C3300 C3284 1.368 . S
C3300 C3296 1.368 . S
C3300 C3299 1.523 . S
H3301 C3276 0.950 . S
H3302 C3278 0.950 . S
H3303 C3279 0.949 . S
H3304 C3281 0.950 . S
H3305 C3283 0.950 . S
C3306 C3307 1.349 . S
C3306 C3308 1.327 . S
C3306 H3331 0.950 . S
C3307 C3306 1.349 . S
C3307 C3323 1.349 . S
C3308 C3306 1.327 . S
C3308 C3327 1.429 . S
C3308 H3332 0.950 . S
C3309 C3326 1.574 . S
C3309 C3328 1.368 . S
C3309 H3333 0.949 . S
H3310 C3314 0.949 . S
C3311 C3312 1.349 . S
C3311 C3313 1.327 . S
C3311 H3334 0.950 . S
C3312 C3311 1.349 . S
C3312 C3324 1.349 . S
C3313 C3311 1.327 . S
C3313 C3329 1.429 . S
C3313 H3335 0.950 . S
C3314 H3310 0.949 . S
C3314 C3322 1.574 . S
C3314 C3330 1.368 . S
H3315 C3323 0.950 . S
H3316 C3321 0.950 . S
H3317 C3322 0.949 . S
H3318 C3324 0.950 . S
H3319 C3325 0.950 . S
H3320 C3326 0.949 . S
C3321 H3316 0.950 . S
C3321 C3323 1.327 . S
C3321 C3327 1.429 . S
C3322 C3314 1.574 . S
C3322 H3317 0.949 . S
C3322 C3328 1.368 . S
C3323 C3307 1.349 . S
C3323 H3315 0.950 . S
C3323 C3321 1.327 . S
C3324 C3312 1.349 . S
C3324 H3318 0.950 . S
C3324 C3325 1.327 . S
C3325 H3319 0.950 . S
C3325 C3324 1.327 . S
C3325 C3329 1.429 . S
C3326 C3309 1.574 . S
C3326 H3320 0.949 . S
C3326 C3330 1.368 . S
C3327 C3308 1.429 . S
C3327 C3321 1.429 . S
C3327 C3328 1.523 . S
C3328 C3309 1.368 . S
C3328 C3322 1.368 . S
C3328 C3327 1.523 . S
C3329 C3313 1.429 . S
C3329 C3325 1.429 . S
C3329 C3330 1.523 . S
C3330 C3314 1.368 . S
C3330 C3326 1.368 . S
C3330 C3329 1.523 . S
H3331 C3306 0.950 . S
H3332 C3308 0.950 . S
H3333 C3309 0.949 . S
H3334 C3311 0.950 . S
H3335 C3313 0.950 . S
C3336 C3337 1.349 . S
C3336 C3338 1.327 . S
C3336 H3361 0.950 . S
C3337 C3336 1.349 . S
C3337 C3353 1.349 . S
C3338 C3336 1.327 . S
C3338 C3357 1.429 . S
C3338 H3362 0.950 . S
C3339 C3356 1.574 . S
C3339 C3358 1.368 . S
C3339 H3363 0.949 . S
H3340 C3344 0.949 . S
C3341 C3342 1.349 . S
C3341 C3343 1.327 . S
C3341 H3364 0.950 . S
C3342 C3341 1.349 . S
C3342 C3354 1.349 . S
C3343 C3341 1.327 . S
C3343 C3359 1.429 . S
C3343 H3365 0.950 . S
C3344 H3340 0.949 . S
C3344 C3352 1.574 . S
C3344 C3360 1.368 . S
H3345 C3353 0.950 . S
H3346 C3351 0.950 . S
H3347 C3352 0.949 . S
H3348 C3354 0.950 . S
H3349 C3355 0.950 . S
H3350 C3356 0.949 . S
C3351 H3346 0.950 . S
C3351 C3353 1.327 . S
C3351 C3357 1.429 . S
C3352 C3344 1.574 . S
C3352 H3347 0.949 . S
C3352 C3358 1.368 . S
C3353 C3337 1.349 . S
C3353 H3345 0.950 . S
C3353 C3351 1.327 . S
C3354 C3342 1.349 . S
C3354 H3348 0.950 . S
C3354 C3355 1.327 . S
C3355 H3349 0.950 . S
C3355 C3354 1.327 . S
C3355 C3359 1.429 . S
C3356 C3339 1.574 . S
C3356 H3350 0.949 . S
C3356 C3360 1.368 . S
C3357 C3338 1.429 . S
C3357 C3351 1.429 . S
C3357 C3358 1.523 . S
C3358 C3339 1.368 . S
C3358 C3352 1.368 . S
C3358 C3357 1.523 . S
C3359 C3343 1.429 . S
C3359 C3355 1.429 . S
C3359 C3360 1.523 . S
C3360 C3344 1.368 . S
C3360 C3356 1.368 . S
C3360 C3359 1.523 . S
H3361 C3336 0.950 . S
H3362 C3338 0.950 . S
H3363 C3339 0.949 . S
H3364 C3341 0.950 . S
H3365 C3343 0.950 . S
C3366 C3367 1.349 . S
C3366 C3368 1.327 . S
C3366 H3391 0.950 . S
C3367 C3366 1.349 . S
C3367 C3383 1.349 . S
C3368 C3366 1.327 . S
C3368 C3387 1.429 . S
C3368 H3392 0.950 . S
C3369 C3386 1.574 . S
C3369 C3388 1.368 . S
C3369 H3393 0.949 . S
H3370 C3374 0.949 . S
C3371 C3372 1.349 . S
C3371 C3373 1.327 . S
C3371 H3394 0.950 . S
C3372 C3371 1.349 . S
C3372 C3384 1.349 . S
C3373 C3371 1.327 . S
C3373 C3389 1.429 . S
C3373 H3395 0.950 . S
C3374 H3370 0.949 . S
C3374 C3382 1.574 . S
C3374 C3390 1.368 . S
H3375 C3383 0.950 . S
H3376 C3381 0.950 . S
H3377 C3382 0.949 . S
H3378 C3384 0.950 . S
H3379 C3385 0.950 . S
H3380 C3386 0.949 . S
C3381 H3376 0.950 . S
C3381 C3383 1.327 . S
C3381 C3387 1.429 . S
C3382 C3374 1.574 . S
C3382 H3377 0.949 . S
C3382 C3388 1.368 . S
C3383 C3367 1.349 . S
C3383 H3375 0.950 . S
C3383 C3381 1.327 . S
C3384 C3372 1.349 . S
C3384 H3378 0.950 . S
C3384 C3385 1.327 . S
C3385 H3379 0.950 . S
C3385 C3384 1.327 . S
C3385 C3389 1.429 . S
C3386 C3369 1.574 . S
C3386 H3380 0.949 . S
C3386 C3390 1.368 . S
C3387 C3368 1.429 . S
C3387 C3381 1.429 . S
C3387 C3388 1.523 . S
C3388 C3369 1.368 . S
C3388 C3382 1.368 . S
C3388 C3387 1.523 . S
C3389 C3373 1.429 . S
C3389 C3385 1.429 . S
C3389 C3390 1.523 . S
C3390 C3374 1.368 . S
C3390 C3386 1.368 . S
C3390 C3389 1.523 . S
H3391 C3366 0.950 . S
H3392 C3368 0.950 . S
H3393 C3369 0.949 . S
H3394 C3371 0.950 . S
H3395 C3373 0.950 . S
C3396 C3397 1.349 . S
C3396 C3398 1.327 . S
C3396 H3421 0.950 . S
C3397 C3396 1.349 . S
C3397 C3413 1.349 . S
C3398 C3396 1.327 . S
C3398 C3417 1.429 . S
C3398 H3422 0.950 . S
C3399 C3416 1.574 . S
C3399 C3418 1.368 . S
C3399 H3423 0.949 . S
H3400 C3404 0.949 . S
C3401 C3402 1.349 . S
C3401 C3403 1.327 . S
C3401 H3424 0.950 . S
C3402 C3401 1.349 . S
C3402 C3414 1.349 . S
C3403 C3401 1.327 . S
C3403 C3419 1.429 . S
C3403 H3425 0.950 . S
C3404 H3400 0.949 . S
C3404 C3412 1.574 . S
C3404 C3420 1.368 . S
H3405 C3413 0.950 . S
H3406 C3411 0.950 . S
H3407 C3412 0.949 . S
H3408 C3414 0.950 . S
H3409 C3415 0.950 . S
H3410 C3416 0.949 . S
C3411 H3406 0.950 . S
C3411 C3413 1.327 . S
C3411 C3417 1.429 . S
C3412 C3404 1.574 . S
C3412 H3407 0.949 . S
C3412 C3418 1.368 . S
C3413 C3397 1.349 . S
C3413 H3405 0.950 . S
C3413 C3411 1.327 . S
C3414 C3402 1.349 . S
C3414 H3408 0.950 . S
C3414 C3415 1.327 . S
C3415 H3409 0.950 . S
C3415 C3414 1.327 . S
C3415 C3419 1.429 . S
C3416 C3399 1.574 . S
C3416 H3410 0.949 . S
C3416 C3420 1.368 . S
C3417 C3398 1.429 . S
C3417 C3411 1.429 . S
C3417 C3418 1.523 . S
C3418 C3399 1.368 . S
C3418 C3412 1.368 . S
C3418 C3417 1.523 . S
C3419 C3403 1.429 . S
C3419 C3415 1.429 . S
C3419 C3420 1.523 . S
C3420 C3404 1.368 . S
C3420 C3416 1.368 . S
C3420 C3419 1.523 . S
H3421 C3396 0.950 . S
H3422 C3398 0.950 . S
H3423 C3399 0.949 . S
H3424 C3401 0.950 . S
H3425 C3403 0.950 . S
C3426 C3427 1.349 . S
C3426 C3428 1.327 . S
C3426 H3451 0.950 . S
C3427 C3426 1.349 . S
C3427 C3443 1.349 . S
C3428 C3426 1.327 . S
C3428 C3447 1.429 . S
C3428 H3452 0.950 . S
C3429 C3446 1.574 . S
C3429 C3448 1.368 . S
C3429 H3453 0.949 . S
H3430 C3434 0.949 . S
C3431 C3432 1.349 . S
C3431 C3433 1.327 . S
C3431 H3454 0.950 . S
C3432 C3431 1.349 . S
C3432 C3444 1.349 . S
C3433 C3431 1.327 . S
C3433 C3449 1.429 . S
C3433 H3455 0.950 . S
C3434 H3430 0.949 . S
C3434 C3442 1.574 . S
C3434 C3450 1.368 . S
H3435 C3443 0.950 . S
H3436 C3441 0.950 . S
H3437 C3442 0.949 . S
H3438 C3444 0.950 . S
H3439 C3445 0.950 . S
H3440 C3446 0.949 . S
C3441 H3436 0.950 . S
C3441 C3443 1.327 . S
C3441 C3447 1.429 . S
C3442 C3434 1.574 . S
C3442 H3437 0.949 . S
C3442 C3448 1.368 . S
C3443 C3427 1.349 . S
C3443 H3435 0.950 . S
C3443 C3441 1.327 . S
C3444 C3432 1.349 . S
C3444 H3438 0.950 . S
C3444 C3445 1.327 . S
C3445 H3439 0.950 . S
C3445 C3444 1.327 . S
C3445 C3449 1.429 . S
C3446 C3429 1.574 . S
C3446 H3440 0.949 . S
C3446 C3450 1.368 . S
C3447 C3428 1.429 . S
C3447 C3441 1.429 . S
C3447 C3448 1.523 . S
C3448 C3429 1.368 . S
C3448 C3442 1.368 . S
C3448 C3447 1.523 . S
C3449 C3433 1.429 . S
C3449 C3445 1.429 . S
C3449 C3450 1.523 . S
C3450 C3434 1.368 . S
C3450 C3446 1.368 . S
C3450 C3449 1.523 . S
H3451 C3426 0.950 . S
H3452 C3428 0.950 . S
H3453 C3429 0.949 . S
H3454 C3431 0.950 . S
H3455 C3433 0.950 . S
C3456 C3457 1.349 . S
C3456 C3458 1.327 . S
C3456 H3481 0.950 . S
C3457 C3456 1.349 . S
C3457 C3473 1.349 . S
C3458 C3456 1.327 . S
C3458 C3477 1.429 . S
C3458 H3482 0.950 . S
C3459 C3476 1.574 . S
C3459 C3478 1.368 . S
C3459 H3483 0.949 . S
H3460 C3464 0.949 . S
C3461 C3462 1.349 . S
C3461 C3463 1.327 . S
C3461 H3484 0.950 . S
C3462 C3461 1.349 . S
C3462 C3474 1.349 . S
C3463 C3461 1.327 . S
C3463 C3479 1.429 . S
C3463 H3485 0.950 . S
C3464 H3460 0.949 . S
C3464 C3472 1.574 . S
C3464 C3480 1.368 . S
H3465 C3473 0.950 . S
H3466 C3471 0.950 . S
H3467 C3472 0.949 . S
H3468 C3474 0.950 . S
H3469 C3475 0.950 . S
H3470 C3476 0.949 . S
C3471 H3466 0.950 . S
C3471 C3473 1.327 . S
C3471 C3477 1.429 . S
C3472 C3464 1.574 . S
C3472 H3467 0.949 . S
C3472 C3478 1.368 . S
C3473 C3457 1.349 . S
C3473 H3465 0.950 . S
C3473 C3471 1.327 . S
C3474 C3462 1.349 . S
C3474 H3468 0.950 . S
C3474 C3475 1.327 . S
C3475 H3469 0.950 . S
C3475 C3474 1.327 . S
C3475 C3479 1.429 . S
C3476 C3459 1.574 . S
C3476 H3470 0.949 . S
C3476 C3480 1.368 . S
C3477 C3458 1.429 . S
C3477 C3471 1.429 . S
C3477 C3478 1.523 . S
C3478 C3459 1.368 . S
C3478 C3472 1.368 . S
C3478 C3477 1.523 . S
C3479 C3463 1.429 . S
C3479 C3475 1.429 . S
C3479 C3480 1.523 . S
C3480 C3464 1.368 . S
C3480 C3476 1.368 . S
C3480 C3479 1.523 . S
H3481 C3456 0.950 . S
H3482 C3458 0.950 . S
H3483 C3459 0.949 . S
H3484 C3461 0.950 . S
H3485 C3463 0.950 . S
C3486 C3487 1.349 . S
C3486 C3488 1.327 . S
C3486 H3511 0.950 . S
C3487 C3486 1.349 . S
C3487 C3503 1.349 . S
C3488 C3486 1.327 . S
C3488 C3507 1.429 . S
C3488 H3512 0.950 . S
C3489 C3506 1.574 . S
C3489 C3508 1.368 . S
C3489 H3513 0.949 . S
H3490 C3494 0.949 . S
C3491 C3492 1.349 . S
C3491 C3493 1.327 . S
C3491 H3514 0.950 . S
C3492 C3491 1.349 . S
C3492 C3504 1.349 . S
C3493 C3491 1.327 . S
C3493 C3509 1.429 . S
C3493 H3515 0.950 . S
C3494 H3490 0.949 . S
C3494 C3502 1.574 . S
C3494 C3510 1.368 . S
H3495 C3503 0.950 . S
H3496 C3501 0.950 . S
H3497 C3502 0.949 . S
H3498 C3504 0.950 . S
H3499 C3505 0.950 . S
H3500 C3506 0.949 . S
C3501 H3496 0.950 . S
C3501 C3503 1.327 . S
C3501 C3507 1.429 . S
C3502 C3494 1.574 . S
C3502 H3497 0.949 . S
C3502 C3508 1.368 . S
C3503 C3487 1.349 . S
C3503 H3495 0.950 . S
C3503 C3501 1.327 . S
C3504 C3492 1.349 . S
C3504 H3498 0.950 . S
C3504 C3505 1.327 . S
C3505 H3499 0.950 . S
C3505 C3504 1.327 . S
C3505 C3509 1.429 . S
C3506 C3489 1.574 . S
C3506 H3500 0.949 . S
C3506 C3510 1.368 . S
C3507 C3488 1.429 . S
C3507 C3501 1.429 . S
C3507 C3508 1.523 . S
C3508 C3489 1.368 . S
C3508 C3502 1.368 . S
C3508 C3507 1.523 . S
C3509 C3493 1.429 . S
C3509 C3505 1.429 . S
C3509 C3510 1.523 . S
C3510 C3494 1.368 . S
C3510 C3506 1.368 . S
C3510 C3509 1.523 . S
H3511 C3486 0.950 . S
H3512 C3488 0.950 . S
H3513 C3489 0.949 . S
H3514 C3491 0.950 . S
H3515 C3493 0.950 . S
C3516 C3517 1.349 . S
C3516 C3518 1.327 . S
C3516 H3541 0.950 . S
C3517 C3516 1.349 . S
C3517 C3533 1.349 . S
C3518 C3516 1.327 . S
C3518 C3537 1.429 . S
C3518 H3542 0.950 . S
C3519 C3536 1.574 . S
C3519 C3538 1.368 . S
C3519 H3543 0.949 . S
H3520 C3524 0.949 . S
C3521 C3522 1.349 . S
C3521 C3523 1.327 . S
C3521 H3544 0.950 . S
C3522 C3521 1.349 . S
C3522 C3534 1.349 . S
C3523 C3521 1.327 . S
C3523 C3539 1.429 . S
C3523 H3545 0.950 . S
C3524 H3520 0.949 . S
C3524 C3532 1.574 . S
C3524 C3540 1.368 . S
H3525 C3533 0.950 . S
H3526 C3531 0.950 . S
H3527 C3532 0.949 . S
H3528 C3534 0.950 . S
H3529 C3535 0.950 . S
H3530 C3536 0.949 . S
C3531 H3526 0.950 . S
C3531 C3533 1.327 . S
C3531 C3537 1.429 . S
C3532 C3524 1.574 . S
C3532 H3527 0.949 . S
C3532 C3538 1.368 . S
C3533 C3517 1.349 . S
C3533 H3525 0.950 . S
C3533 C3531 1.327 . S
C3534 C3522 1.349 . S
C3534 H3528 0.950 . S
C3534 C3535 1.327 . S
C3535 H3529 0.950 . S
C3535 C3534 1.327 . S
C3535 C3539 1.429 . S
C3536 C3519 1.574 . S
C3536 H3530 0.949 . S
C3536 C3540 1.368 . S
C3537 C3518 1.429 . S
C3537 C3531 1.429 . S
C3537 C3538 1.523 . S
C3538 C3519 1.368 . S
C3538 C3532 1.368 . S
C3538 C3537 1.523 . S
C3539 C3523 1.429 . S
C3539 C3535 1.429 . S
C3539 C3540 1.523 . S
C3540 C3524 1.368 . S
C3540 C3536 1.368 . S
C3540 C3539 1.523 . S
H3541 C3516 0.950 . S
H3542 C3518 0.950 . S
H3543 C3519 0.949 . S
H3544 C3521 0.950 . S
H3545 C3523 0.950 . S
C3546 C3547 1.349 . S
C3546 C3548 1.327 . S
C3546 H3571 0.950 . S
C3547 C3546 1.349 . S
C3547 C3563 1.349 . S
C3548 C3546 1.327 . S
C3548 C3567 1.429 . S
C3548 H3572 0.950 . S
C3549 C3566 1.574 . S
C3549 C3568 1.368 . S
C3549 H3573 0.949 1_554 S
H3550 C3554 0.949 . S
C3551 C3552 1.327 1_566 S
C3551 C3553 1.326 . S
C3551 H3574 0.974 . S
C3552 C3551 1.327 1_544 S
C3552 C3564 1.349 . S
C3553 C3551 1.326 . S
C3553 C3569 1.429 1_556 S
C3553 H3575 0.949 . S
C3554 H3550 0.949 . S
C3554 C3562 1.574 . S
C3554 C3570 1.368 . S
H3555 C3563 0.950 1_556 S
H3556 C3561 0.950 1_556 S
H3557 C3562 0.949 . S
H3558 C3564 0.950 . S
H3559 C3565 0.930 1_545 S
H3560 C3566 0.949 1_556 S
C3561 H3556 0.950 1_554 S
C3561 C3563 1.327 . S
C3561 C3567 1.429 . S
C3562 C3554 1.574 . S
C3562 H3557 0.949 . S
C3562 C3568 1.368 . S
C3563 C3547 1.349 . S
C3563 H3555 0.950 1_554 S
C3563 C3561 1.327 . S
C3564 C3552 1.349 . S
C3564 H3558 0.950 . S
C3564 C3565 1.302 1_545 S
C3565 H3559 0.930 1_565 S
C3565 C3564 1.302 1_565 S
C3565 C3569 1.475 . S
C3566 C3549 1.574 . S
C3566 H3560 0.949 1_554 S
C3566 C3570 1.368 . S
C3567 C3548 1.429 . S
C3567 C3561 1.429 . S
C3567 C3568 1.523 . S
C3568 C3549 1.368 . S
C3568 C3562 1.368 . S
C3568 C3567 1.523 . S
C3569 C3553 1.429 1_554 S
C3569 C3565 1.475 . S
C3569 C3570 1.523 . S
C3570 C3554 1.368 . S
C3570 C3566 1.368 . S
C3570 C3569 1.523 . S
H3571 C3546 0.950 . S
H3572 C3548 0.950 . S
H3573 C3549 0.949 1_556 S
H3574 C3551 0.974 . S
H3575 C3553 0.949 . S
C3576 C3577 1.349 . S
C3576 C3578 1.327 . S
C3576 H3601 0.950 . S
C3577 C3576 1.349 . S
C3577 C3593 1.349 . S
C3578 C3576 1.327 . S
C3578 C3597 1.429 . S
C3578 H3602 0.950 . S
C3579 C3596 1.574 . S
C3579 C3598 1.368 . S
C3579 H3603 0.949 . S
H3580 C3584 0.949 . S
C3581 C3582 1.349 . S
C3581 C3583 1.327 . S
C3581 H3604 0.950 . S
C3582 C3581 1.349 . S
C3582 C3594 1.349 . S
C3583 C3581 1.327 . S
C3583 C3599 1.429 . S
C3583 H3605 0.950 . S
C3584 H3580 0.949 . S
C3584 C3592 1.574 . S
C3584 C3600 1.368 . S
H3585 C3593 0.950 . S
H3586 C3591 0.950 . S
H3587 C3592 0.949 . S
H3588 C3594 0.950 . S
H3589 C3595 0.950 . S
H3590 C3596 0.949 . S
C3591 H3586 0.950 . S
C3591 C3593 1.327 . S
C3591 C3597 1.429 . S
C3592 C3584 1.574 . S
C3592 H3587 0.949 . S
C3592 C3598 1.368 . S
C3593 C3577 1.349 . S
C3593 H3585 0.950 . S
C3593 C3591 1.327 . S
C3594 C3582 1.349 . S
C3594 H3588 0.950 . S
C3594 C3595 1.327 . S
C3595 H3589 0.950 . S
C3595 C3594 1.327 . S
C3595 C3599 1.429 . S
C3596 C3579 1.574 . S
C3596 H3590 0.949 . S
C3596 C3600 1.368 . S
C3597 C3578 1.429 . S
C3597 C3591 1.429 . S
C3597 C3598 1.523 . S
C3598 C3579 1.368 . S
C3598 C3592 1.368 . S
C3598 C3597 1.523 . S
C3599 C3583 1.429 . S
C3599 C3595 1.429 . S
C3599 C3600 1.523 . S
C3600 C3584 1.368 . S
C3600 C3596 1.368 . S
C3600 C3599 1.523 . S
H3601 C3576 0.950 . S
H3602 C3578 0.950 . S
H3603 C3579 0.949 . S
H3604 C3581 0.950 . S
H3605 C3583 0.950 . S
C3606 C3607 1.381 . S
C3606 C3608 1.327 . S
C3606 H3631 0.950 . S
C3607 C3606 1.381 . S
C3607 C3623 1.325 1_554 S
C3608 C3606 1.327 . S
C3608 C3627 1.429 . S
C3608 H3632 0.950 . S
C3609 C3626 1.573 . S
C3609 C3628 1.364 . S
C3609 H3633 0.954 1_554 S
H3610 C3614 0.949 . S
C3611 C3612 1.349 . S
C3611 C3613 1.327 . S
C3611 H3634 0.950 . S
C3612 C3611 1.349 . S
C3612 C3624 1.349 . S
C3613 C3611 1.327 . S
C3613 C3629 1.429 . S
C3613 H3635 0.950 . S
C3614 H3610 0.949 . S
C3614 C3622 1.574 . S
C3614 C3630 1.368 . S
H3615 C3623 0.950 . S
H3616 C3621 0.950 . S
H3617 C3622 0.949 . S
H3618 C3624 0.950 . S
H3619 C3625 0.950 . S
H3620 C3626 0.949 1_556 S
C3621 H3616 0.950 . S
C3621 C3623 1.327 . S
C3621 C3627 1.429 1_556 S
C3622 C3614 1.574 . S
C3622 H3617 0.949 . S
C3622 C3628 1.368 . S
C3623 C3607 1.325 1_556 S
C3623 H3615 0.950 . S
C3623 C3621 1.327 . S
C3624 C3612 1.349 . S
C3624 H3618 0.950 . S
C3624 C3625 1.327 . S
C3625 H3619 0.950 . S
C3625 C3624 1.327 . S
C3625 C3629 1.429 . S
C3626 C3609 1.573 . S
C3626 H3620 0.949 1_554 S
C3626 C3630 1.368 . S
C3627 C3608 1.429 . S
C3627 C3621 1.429 1_554 S
C3627 C3628 1.523 . S
C3628 C3609 1.364 . S
C3628 C3622 1.368 . S
C3628 C3627 1.523 . S
C3629 C3613 1.429 . S
C3629 C3625 1.429 . S
C3629 C3630 1.523 . S
C3630 C3614 1.368 . S
C3630 C3626 1.368 . S
C3630 C3629 1.523 . S
H3631 C3606 0.950 . S
H3632 C3608 0.950 . S
H3633 C3609 0.954 1_556 S
H3634 C3611 0.950 . S
H3635 C3613 0.950 . S
C3636 C3637 1.349 . S
C3636 C3638 1.327 . S
C3636 H3661 0.950 . S
C3637 C3636 1.349 . S
C3637 C3653 1.349 . S
C3638 C3636 1.327 . S
C3638 C3657 1.429 . S
C3638 H3662 0.950 . S
C3639 C3656 1.574 . S
C3639 C3658 1.368 . S
C3639 H3663 0.949 . S
H3640 C3644 0.949 . S
C3641 C3642 1.349 . S
C3641 C3643 1.327 . S
C3641 H3664 0.950 . S
C3642 C3641 1.349 . S
C3642 C3654 1.349 . S
C3643 C3641 1.327 . S
C3643 C3659 1.429 . S
C3643 H3665 0.950 . S
C3644 H3640 0.949 . S
C3644 C3652 1.574 . S
C3644 C3660 1.368 . S
H3645 C3653 0.950 . S
H3646 C3651 0.950 . S
H3647 C3652 0.949 . S
H3648 C3654 0.950 . S
H3649 C3655 0.950 . S
H3650 C3656 0.949 . S
C3651 H3646 0.950 . S
C3651 C3653 1.327 . S
C3651 C3657 1.429 . S
C3652 C3644 1.574 . S
C3652 H3647 0.949 . S
C3652 C3658 1.368 . S
C3653 C3637 1.349 . S
C3653 H3645 0.950 . S
C3653 C3651 1.327 . S
C3654 C3642 1.349 . S
C3654 H3648 0.950 . S
C3654 C3655 1.327 . S
C3655 H3649 0.950 . S
C3655 C3654 1.327 . S
C3655 C3659 1.429 . S
C3656 C3639 1.574 . S
C3656 H3650 0.949 . S
C3656 C3660 1.368 . S
C3657 C3638 1.429 . S
C3657 C3651 1.429 . S
C3657 C3658 1.523 . S
C3658 C3639 1.368 . S
C3658 C3652 1.368 . S
C3658 C3657 1.523 . S
C3659 C3643 1.429 . S
C3659 C3655 1.429 . S
C3659 C3660 1.523 . S
C3660 C3644 1.368 . S
C3660 C3656 1.368 . S
C3660 C3659 1.523 . S
H3661 C3636 0.950 . S
H3662 C3638 0.950 . S
H3663 C3639 0.949 . S
H3664 C3641 0.950 . S
H3665 C3643 0.950 . S
C3666 C3667 1.349 . S
C3666 C3668 1.327 . S
C3666 H3691 0.950 . S
C3667 C3666 1.349 . S
C3667 C3683 1.349 . S
C3668 C3666 1.327 . S
C3668 C3687 1.429 . S
C3668 H3692 0.950 . S
C3669 C3686 1.574 . S
C3669 C3688 1.368 . S
C3669 H3693 0.949 . S
H3670 C3674 0.949 . S
C3671 C3672 1.349 . S
C3671 C3673 1.327 . S
C3671 H3694 0.950 . S
C3672 C3671 1.349 . S
C3672 C3684 1.349 . S
C3673 C3671 1.327 . S
C3673 C3689 1.429 . S
C3673 H3695 0.950 . S
C3674 H3670 0.949 . S
C3674 C3682 1.574 . S
C3674 C3690 1.368 . S
H3675 C3683 0.950 . S
H3676 C3681 0.950 . S
H3677 C3682 0.949 . S
H3678 C3684 0.950 . S
H3679 C3685 0.950 . S
H3680 C3686 0.949 . S
C3681 H3676 0.950 . S
C3681 C3683 1.327 . S
C3681 C3687 1.429 . S
C3682 C3674 1.574 . S
C3682 H3677 0.949 . S
C3682 C3688 1.368 . S
C3683 C3667 1.349 . S
C3683 H3675 0.950 . S
C3683 C3681 1.327 . S
C3684 C3672 1.349 . S
C3684 H3678 0.950 . S
C3684 C3685 1.327 . S
C3685 H3679 0.950 . S
C3685 C3684 1.327 . S
C3685 C3689 1.429 . S
C3686 C3669 1.574 . S
C3686 H3680 0.949 . S
C3686 C3690 1.368 . S
C3687 C3668 1.429 . S
C3687 C3681 1.429 . S
C3687 C3688 1.523 . S
C3688 C3669 1.368 . S
C3688 C3682 1.368 . S
C3688 C3687 1.523 . S
C3689 C3673 1.429 . S
C3689 C3685 1.429 . S
C3689 C3690 1.523 . S
C3690 C3674 1.368 . S
C3690 C3686 1.368 . S
C3690 C3689 1.523 . S
H3691 C3666 0.950 . S
H3692 C3668 0.950 . S
H3693 C3669 0.949 . S
H3694 C3671 0.950 . S
H3695 C3673 0.950 . S
C822 C337 1.742 . S
C817 C7 1.745 . S
C847 C22 0.915 . S
C852 C382 0.914 . S
C877 C31 1.684 . S
C882 C406 1.660 . S
C912 N432 0.947 . S
C907 C51 0.942 . S
C937 C17 1.006 . S
C942 N462 1.007 . S
C972 C496 1.509 . S
C967 C36 1.531 . S
C1002 C532 1.140 . S
C997 C49 1.109 . S
C1027 C9 1.704 . S
C1032 C556 1.685 . S
C1057 C63 0.868 . S
C1062 N350 0.875 . S
C1087 C73 0.984 . S
C1092 N372 0.985 . S
C1122 C412 0.956 . S
C1117 C91 0.940 . S
C1152 C436 1.731 . S
C1147 C101 1.759 . S
C1177 C59 1.183 . S
C1182 C466 1.158 . S
C1212 C502 1.012 . S
C1207 C77 0.992 . S
C1242 N522 0.974 . S
C1237 C87 0.973 . S
C1272 C562 1.634 . S
C1267 C105 1.622 . S
C1302 C363 1.586 . S
C1297 C107 1.594 . S
C1332 C592 0.918 . S
C1327 C120 0.919 . S
C1357 C135 0.975 . S
C1362 N612 0.981 . S
C1392 C646 1.508 . S
C1387 C148 1.532 . S
C1417 C65 0.804 . S
C1422 N552 0.805 . S
C1452 N402 0.972 1_565 S
C1447 C79 0.966 . S
C1477 C134 0.958 . S
C1482 C682 0.957 . S
C1512 C706 0.932 . S
C1507 C162 0.945 . S
C1537 C171 1.708 . S
C1542 C346 1.687 1_556 S
C1572 C723 0.865 . S
C1567 C190 0.870 . S
C1597 C203 1.602 . S
C1602 C397 1.613 . S
C1627 C219 0.902 . S
C1632 N680 0.905 . S
C1662 N470 0.968 . S
C1657 C189 0.945 . S
C1692 C607 1.462 . S
C1687 C204 1.481 . S
C1722 C543 1.069 . S
C1717 C213 1.075 . S
C1752 C727 1.635 . S
C1747 C177 1.656 . S
C1782 N342 0.838 . S
C1777 C227 0.839 . S
C1807 C245 0.921 . S
C1812 N710 0.946 . S
C1842 C423 0.898 . S
C1837 C255 0.901 . S
C1867 C273 1.667 . S
C1872 C667 1.683 . S
C1897 C231 1.086 . S
C1902 C457 1.104 1_655 S
C1927 C241 0.957 . S
C1932 C633 0.953 . S
C1962 N530 0.940 . S
C1957 C259 0.917 . S
C1987 C269 1.593 . S
C1992 C753 1.580 . S
C2017 C275 1.547 . S
C2022 C352 1.536 . S
C2047 C288 0.868 1_554 S
C2052 C603 0.867 . S
C2077 C303 0.937 . S
C2082 N500 0.940 . S
C2107 C316 1.479 . S
C2112 C637 1.458 . S
C2142 N740 0.770 . S
C2137 C233 0.770 1_565 S
C2172 N410 0.933 . S
C2167 C247 0.930 . S
C2202 C453 0.909 . S
C2197 C302 0.911 . S
C2232 C367 0.875 . S
C2227 C330 0.882 . S
C2257 C35 1.745 . S
C2262 C757 1.742 . S
C2292 C712 0.914 . S
C2287 C50 0.915 . S
C2322 C796 1.660 . S
C2317 C3 1.684 . S
C2347 C23 0.941 1_655 S
C2352 N672 0.947 . S
C2377 C45 1.006 . S
C2382 N582 1.007 1_556 S
C2412 C616 1.509 . S
C2407 C8 1.531 . S
C2442 C652 1.129 . S
C2437 C21 1.109 . S
C2472 C736 1.685 . S
C2467 C37 1.704 . S
C2502 N770 0.875 . S
C2497 C161 0.868 . S
C2527 C115 0.984 1_556 S
C2532 N702 0.985 . S
C2557 C133 0.940 . S
C2562 C802 0.934 1_655 S
C2592 C676 1.731 . S
C2587 C143 1.759 . S
C2622 C586 1.158 . S
C2617 C157 1.183 . S
C2647 C119 0.992 . S
C2652 C622 1.012 . S
C2682 N642 0.974 . S
C2677 C129 0.973 . S
C2707 C147 1.622 . S
C2712 C742 1.634 . S
C2742 C783 1.586 . S
C2737 C149 1.594 . S
C2772 C472 0.918 . S
C2767 C78 0.919 . S
C2802 N492 0.981 . S
C2797 C93 0.975 1_565 S
C2827 C106 1.532 . S
C2832 C526 1.508 . S
C2862 N732 0.805 . S
C2857 C163 0.804 . S
C2887 C121 0.966 . S
C2892 N792 0.972 . S
C2922 C442 0.958 . S
C2917 C92 0.959 . S
C2952 C376 0.932 . S
C2947 C64 0.945 . S
C2977 C199 1.708 . S
C2982 C766 1.687 . S
C3012 C393 0.865 . S
C3007 C218 0.867 . S
C3042 C787 1.613 1_556 S
C3037 C175 1.602 . S
C3067 C191 0.902 . S
C3072 N440 0.901 . S
C3097 C217 0.944 . S
C3102 N590 0.968 . S
C3127 C176 1.481 . S
C3132 C487 1.462 . S
C3157 C185 1.078 . S
C3162 C663 1.068 . S
C3187 C205 1.656 . S
C3192 C547 1.635 . S
C3222 N762 0.838 . S
C3217 C325 0.839 . S
C3247 C287 0.921 . S
C3252 N380 0.940 . S
C3282 C813 0.898 . S
C3277 C297 0.902 . S
C3307 C315 1.667 . S
C3312 C427 1.683 . S
C3337 C329 1.086 . S
C3342 C577 1.103 . S
C3372 C513 0.953 . S
C3367 C283 0.964 . S
C3397 C301 0.917 . S
C3402 N650 0.940 . S
C3432 C573 1.580 . S
C3427 C311 1.593 . S
C3462 C772 1.536 . S
C3457 C317 1.547 . S
C3492 C483 0.869 . S
C3487 C246 0.871 . S
C3517 C261 0.936 . S
C3522 N620 0.940 . S
C3552 C517 1.458 . S
C3547 C274 1.479 . S
C3582 N560 0.770 . S
C3577 C331 0.770 . S
C3607 C289 0.928 1_554 S
C3612 N800 0.932 . S
C3642 C693 0.909 . S
C3637 C260 0.911 . S
C3672 C697 0.875 . S
C3667 C232 0.882 . S
