# Generated by pormake.
# Topology gar, (4,6)-cn, num edge types: 1
# Building blocks:
#     Node 0, Type 0, BuildingBlock: KUFVIS_clean_sbu_0, # of connection points: 4
#     Node 1, Type 0, BuildingBlock: KUFVIS_clean_sbu_0, # of connection points: 4
#     Node 2, Type 0, BuildingBlock: KUFVIS_clean_sbu_0, # of connection points: 4
#     Node 3, Type 0, BuildingBlock: KUFVIS_clean_sbu_0, # of connection points: 4
#     Node 4, Type 0, BuildingBlock: KUFVIS_clean_sbu_0, # of connection points: 4
#     Node 5, Type 0, BuildingBlock: KUFVIS_clean_sbu_0, # of connection points: 4
#     Node 6, Type 0, BuildingBlock: KUFVIS_clean_sbu_0, # of connection points: 4
#     Node 7, Type 0, BuildingBlock: KUFVIS_clean_sbu_0, # of connection points: 4
#     Node 8, Type 0, BuildingBlock: KUFVIS_clean_sbu_0, # of connection points: 4
#     Node 9, Type 0, BuildingBlock: KUFVIS_clean_sbu_0, # of connection points: 4
#     Node 10, Type 0, BuildingBlock: KUFVIS_clean_sbu_0, # of connection points: 4
#     Node 11, Type 0, BuildingBlock: KUFVIS_clean_sbu_0, # of connection points: 4
#     Node 12, Type 0, BuildingBlock: KUFVIS_clean_sbu_0, # of connection points: 4
#     Node 13, Type 0, BuildingBlock: KUFVIS_clean_sbu_0, # of connection points: 4
#     Node 14, Type 0, BuildingBlock: KUFVIS_clean_sbu_0, # of connection points: 4
#     Node 15, Type 0, BuildingBlock: KUFVIS_clean_sbu_0, # of connection points: 4
#     Node 16, Type 0, BuildingBlock: KUFVIS_clean_sbu_0, # of connection points: 4
#     Node 17, Type 0, BuildingBlock: KUFVIS_clean_sbu_0, # of connection points: 4
#     Node 18, Type 0, BuildingBlock: KUFVIS_clean_sbu_0, # of connection points: 4
#     Node 19, Type 0, BuildingBlock: KUFVIS_clean_sbu_0, # of connection points: 4
#     Node 20, Type 0, BuildingBlock: KUFVIS_clean_sbu_0, # of connection points: 4
#     Node 21, Type 0, BuildingBlock: KUFVIS_clean_sbu_0, # of connection points: 4
#     Node 22, Type 0, BuildingBlock: KUFVIS_clean_sbu_0, # of connection points: 4
#     Node 23, Type 0, BuildingBlock: KUFVIS_clean_sbu_0, # of connection points: 4
#     Node 24, Type 1, BuildingBlock: KUMJIN_clean_sbu_1, # of connection points: 6
#     Node 25, Type 1, BuildingBlock: KUMJIN_clean_sbu_1, # of connection points: 6
#     Node 26, Type 1, BuildingBlock: KUMJIN_clean_sbu_1, # of connection points: 6
#     Node 27, Type 1, BuildingBlock: KUMJIN_clean_sbu_1, # of connection points: 6
#     Node 28, Type 1, BuildingBlock: KUMJIN_clean_sbu_1, # of connection points: 6
#     Node 29, Type 1, BuildingBlock: KUMJIN_clean_sbu_1, # of connection points: 6
#     Node 30, Type 1, BuildingBlock: KUMJIN_clean_sbu_1, # of connection points: 6
#     Node 31, Type 1, BuildingBlock: KUMJIN_clean_sbu_1, # of connection points: 6
#     Node 32, Type 1, BuildingBlock: KUMJIN_clean_sbu_1, # of connection points: 6
#     Node 33, Type 1, BuildingBlock: KUMJIN_clean_sbu_1, # of connection points: 6
#     Node 34, Type 1, BuildingBlock: KUMJIN_clean_sbu_1, # of connection points: 6
#     Node 35, Type 1, BuildingBlock: KUMJIN_clean_sbu_1, # of connection points: 6
#     Node 36, Type 1, BuildingBlock: KUMJIN_clean_sbu_1, # of connection points: 6
#     Node 37, Type 1, BuildingBlock: KUMJIN_clean_sbu_1, # of connection points: 6
#     Node 38, Type 1, BuildingBlock: KUMJIN_clean_sbu_1, # of connection points: 6
#     Node 39, Type 1, BuildingBlock: KUMJIN_clean_sbu_1, # of connection points: 6
#     Edge 40, Type (0, 1), BuildingBlock: TEMPAE_clean_linker_10, # of connection points: 2
#     Edge 41, Type (0, 1), BuildingBlock: TEMPAE_clean_linker_10, # of connection points: 2
#     Edge 42, Type (0, 1), BuildingBlock: TEMPAE_clean_linker_10, # of connection points: 2
#     Edge 43, Type (0, 1), BuildingBlock: TEMPAE_clean_linker_10, # of connection points: 2
#     Edge 44, Type (0, 1), BuildingBlock: TEMPAE_clean_linker_10, # of connection points: 2
#     Edge 45, Type (0, 1), BuildingBlock: TEMPAE_clean_linker_10, # of connection points: 2
#     Edge 46, Type (0, 1), BuildingBlock: TEMPAE_clean_linker_10, # of connection points: 2
#     Edge 47, Type (0, 1), BuildingBlock: TEMPAE_clean_linker_10, # of connection points: 2
#     Edge 48, Type (0, 1), BuildingBlock: TEMPAE_clean_linker_10, # of connection points: 2
#     Edge 49, Type (0, 1), BuildingBlock: TEMPAE_clean_linker_10, # of connection points: 2
#     Edge 50, Type (0, 1), BuildingBlock: TEMPAE_clean_linker_10, # of connection points: 2
#     Edge 51, Type (0, 1), BuildingBlock: TEMPAE_clean_linker_10, # of connection points: 2
#     Edge 52, Type (0, 1), BuildingBlock: TEMPAE_clean_linker_10, # of connection points: 2
#     Edge 53, Type (0, 1), BuildingBlock: TEMPAE_clean_linker_10, # of connection points: 2
#     Edge 54, Type (0, 1), BuildingBlock: TEMPAE_clean_linker_10, # of connection points: 2
#     Edge 55, Type (0, 1), BuildingBlock: TEMPAE_clean_linker_10, # of connection points: 2
#     Edge 56, Type (0, 1), BuildingBlock: TEMPAE_clean_linker_10, # of connection points: 2
#     Edge 57, Type (0, 1), BuildingBlock: TEMPAE_clean_linker_10, # of connection points: 2
#     Edge 58, Type (0, 1), BuildingBlock: TEMPAE_clean_linker_10, # of connection points: 2
#     Edge 59, Type (0, 1), BuildingBlock: TEMPAE_clean_linker_10, # of connection points: 2
#     Edge 60, Type (0, 1), BuildingBlock: TEMPAE_clean_linker_10, # of connection points: 2
#     Edge 61, Type (0, 1), BuildingBlock: TEMPAE_clean_linker_10, # of connection points: 2
#     Edge 62, Type (0, 1), BuildingBlock: TEMPAE_clean_linker_10, # of connection points: 2
#     Edge 63, Type (0, 1), BuildingBlock: TEMPAE_clean_linker_10, # of connection points: 2
#     Edge 64, Type (0, 1), BuildingBlock: TEMPAE_clean_linker_10, # of connection points: 2
#     Edge 65, Type (0, 1), BuildingBlock: TEMPAE_clean_linker_10, # of connection points: 2
#     Edge 66, Type (0, 1), BuildingBlock: TEMPAE_clean_linker_10, # of connection points: 2
#     Edge 67, Type (0, 1), BuildingBlock: TEMPAE_clean_linker_10, # of connection points: 2
#     Edge 68, Type (0, 1), BuildingBlock: TEMPAE_clean_linker_10, # of connection points: 2
#     Edge 69, Type (0, 1), BuildingBlock: TEMPAE_clean_linker_10, # of connection points: 2
#     Edge 70, Type (0, 1), BuildingBlock: TEMPAE_clean_linker_10, # of connection points: 2
#     Edge 71, Type (0, 1), BuildingBlock: TEMPAE_clean_linker_10, # of connection points: 2
#     Edge 72, Type (0, 1), BuildingBlock: TEMPAE_clean_linker_10, # of connection points: 2
#     Edge 73, Type (0, 1), BuildingBlock: TEMPAE_clean_linker_10, # of connection points: 2
#     Edge 74, Type (0, 1), BuildingBlock: TEMPAE_clean_linker_10, # of connection points: 2
#     Edge 75, Type (0, 1), BuildingBlock: TEMPAE_clean_linker_10, # of connection points: 2
#     Edge 76, Type (0, 1), BuildingBlock: TEMPAE_clean_linker_10, # of connection points: 2
#     Edge 77, Type (0, 1), BuildingBlock: TEMPAE_clean_linker_10, # of connection points: 2
#     Edge 78, Type (0, 1), BuildingBlock: TEMPAE_clean_linker_10, # of connection points: 2
#     Edge 79, Type (0, 1), BuildingBlock: TEMPAE_clean_linker_10, # of connection points: 2
#     Edge 80, Type (0, 1), BuildingBlock: TEMPAE_clean_linker_10, # of connection points: 2
#     Edge 81, Type (0, 1), BuildingBlock: TEMPAE_clean_linker_10, # of connection points: 2
#     Edge 82, Type (0, 1), BuildingBlock: TEMPAE_clean_linker_10, # of connection points: 2
#     Edge 83, Type (0, 1), BuildingBlock: TEMPAE_clean_linker_10, # of connection points: 2
#     Edge 84, Type (0, 1), BuildingBlock: TEMPAE_clean_linker_10, # of connection points: 2
#     Edge 85, Type (0, 1), BuildingBlock: TEMPAE_clean_linker_10, # of connection points: 2
#     Edge 86, Type (0, 1), BuildingBlock: TEMPAE_clean_linker_10, # of connection points: 2
#     Edge 87, Type (0, 1), BuildingBlock: TEMPAE_clean_linker_10, # of connection points: 2
#     Edge 88, Type (0, 1), BuildingBlock: TEMPAE_clean_linker_10, # of connection points: 2
#     Edge 89, Type (0, 1), BuildingBlock: TEMPAE_clean_linker_10, # of connection points: 2
#     Edge 90, Type (0, 1), BuildingBlock: TEMPAE_clean_linker_10, # of connection points: 2
#     Edge 91, Type (0, 1), BuildingBlock: TEMPAE_clean_linker_10, # of connection points: 2
#     Edge 92, Type (0, 1), BuildingBlock: TEMPAE_clean_linker_10, # of connection points: 2
#     Edge 93, Type (0, 1), BuildingBlock: TEMPAE_clean_linker_10, # of connection points: 2
#     Edge 94, Type (0, 1), BuildingBlock: TEMPAE_clean_linker_10, # of connection points: 2
#     Edge 95, Type (0, 1), BuildingBlock: TEMPAE_clean_linker_10, # of connection points: 2
#     Edge 96, Type (0, 1), BuildingBlock: TEMPAE_clean_linker_10, # of connection points: 2
#     Edge 97, Type (0, 1), BuildingBlock: TEMPAE_clean_linker_10, # of connection points: 2
#     Edge 98, Type (0, 1), BuildingBlock: TEMPAE_clean_linker_10, # of connection points: 2
#     Edge 99, Type (0, 1), BuildingBlock: TEMPAE_clean_linker_10, # of connection points: 2
#     Edge 100, Type (0, 1), BuildingBlock: TEMPAE_clean_linker_10, # of connection points: 2
#     Edge 101, Type (0, 1), BuildingBlock: TEMPAE_clean_linker_10, # of connection points: 2
#     Edge 102, Type (0, 1), BuildingBlock: TEMPAE_clean_linker_10, # of connection points: 2
#     Edge 103, Type (0, 1), BuildingBlock: TEMPAE_clean_linker_10, # of connection points: 2
#     Edge 104, Type (0, 1), BuildingBlock: TEMPAE_clean_linker_10, # of connection points: 2
#     Edge 105, Type (0, 1), BuildingBlock: TEMPAE_clean_linker_10, # of connection points: 2
#     Edge 106, Type (0, 1), BuildingBlock: TEMPAE_clean_linker_10, # of connection points: 2
#     Edge 107, Type (0, 1), BuildingBlock: TEMPAE_clean_linker_10, # of connection points: 2
#     Edge 108, Type (0, 1), BuildingBlock: TEMPAE_clean_linker_10, # of connection points: 2
#     Edge 109, Type (0, 1), BuildingBlock: TEMPAE_clean_linker_10, # of connection points: 2
#     Edge 110, Type (0, 1), BuildingBlock: TEMPAE_clean_linker_10, # of connection points: 2
#     Edge 111, Type (0, 1), BuildingBlock: TEMPAE_clean_linker_10, # of connection points: 2
#     Edge 112, Type (0, 1), BuildingBlock: TEMPAE_clean_linker_10, # of connection points: 2
#     Edge 113, Type (0, 1), BuildingBlock: TEMPAE_clean_linker_10, # of connection points: 2
#     Edge 114, Type (0, 1), BuildingBlock: TEMPAE_clean_linker_10, # of connection points: 2
#     Edge 115, Type (0, 1), BuildingBlock: TEMPAE_clean_linker_10, # of connection points: 2
#     Edge 116, Type (0, 1), BuildingBlock: TEMPAE_clean_linker_10, # of connection points: 2
#     Edge 117, Type (0, 1), BuildingBlock: TEMPAE_clean_linker_10, # of connection points: 2
#     Edge 118, Type (0, 1), BuildingBlock: TEMPAE_clean_linker_10, # of connection points: 2
#     Edge 119, Type (0, 1), BuildingBlock: TEMPAE_clean_linker_10, # of connection points: 2
#     Edge 120, Type (0, 1), BuildingBlock: TEMPAE_clean_linker_10, # of connection points: 2
#     Edge 121, Type (0, 1), BuildingBlock: TEMPAE_clean_linker_10, # of connection points: 2
#     Edge 122, Type (0, 1), BuildingBlock: TEMPAE_clean_linker_10, # of connection points: 2
#     Edge 123, Type (0, 1), BuildingBlock: TEMPAE_clean_linker_10, # of connection points: 2
#     Edge 124, Type (0, 1), BuildingBlock: TEMPAE_clean_linker_10, # of connection points: 2
#     Edge 125, Type (0, 1), BuildingBlock: TEMPAE_clean_linker_10, # of connection points: 2
#     Edge 126, Type (0, 1), BuildingBlock: TEMPAE_clean_linker_10, # of connection points: 2
#     Edge 127, Type (0, 1), BuildingBlock: TEMPAE_clean_linker_10, # of connection points: 2
#     Edge 128, Type (0, 1), BuildingBlock: TEMPAE_clean_linker_10, # of connection points: 2
#     Edge 129, Type (0, 1), BuildingBlock: TEMPAE_clean_linker_10, # of connection points: 2
#     Edge 130, Type (0, 1), BuildingBlock: TEMPAE_clean_linker_10, # of connection points: 2
#     Edge 131, Type (0, 1), BuildingBlock: TEMPAE_clean_linker_10, # of connection points: 2
#     Edge 132, Type (0, 1), BuildingBlock: TEMPAE_clean_linker_10, # of connection points: 2
#     Edge 133, Type (0, 1), BuildingBlock: TEMPAE_clean_linker_10, # of connection points: 2
#     Edge 134, Type (0, 1), BuildingBlock: TEMPAE_clean_linker_10, # of connection points: 2
#     Edge 135, Type (0, 1), BuildingBlock: TEMPAE_clean_linker_10, # of connection points: 2
# Relax obj value: 0.065
# Max RMSD: 0.180
# Mean RMSD: 0.107
data_MOF--net-gar--node1-KUFVIS_clean_sbu_0--node2-KUMJIN_clean_sbu_1--edge1-TEMPAE_clean_linker_10
_symmetry_space_group_name_H-M    P1
_symmetry_Int_Tables_number       1
_symmetry_cell_setting            triclinic
loop_
_symmetry_equiv_pos_as_xyz
'x, y, z'
_cell_length_a     60.149637
_cell_length_b     60.426867
_cell_length_c     57.705746
_cell_angle_alpha  96.100109
_cell_angle_beta   96.191217
_cell_angle_gamma 101.45474
loop_
_atom_site_label
_atom_site_type_symbol
_atom_site_fract_x
_atom_site_fract_y
_atom_site_fract_z
_atom_type_partial_charge
Mn0 Mn 0.04714 0.31224 0.37287 0.0
Mn1 Mn 0.04677 0.34459 0.3293 0.0
C2 C 0.01125 0.31801 0.355 0.0
C3 C 0.04648 0.27743 0.38839 0.0
C4 C 0.05585 0.36524 0.38118 0.0
O5 O 0.07952 0.31252 0.36205 0.0
O6 O 0.07853 0.33691 0.3356 0.0
C7 C 0.05234 0.30896 0.29203 0.0
N8 N 0.04009 0.32403 0.30052 0.0
C9 C 0.01072 0.31194 0.26723 0.0
C10 C 0.02309 0.29642 0.25817 0.0
C11 C 0.04398 0.29492 0.27064 0.0
C12 C 0.01986 0.32544 0.28871 0.0
H13 H 0.06835 0.30752 0.30145 0.0
C14 C 0.08908 0.32372 0.34671 0.0
O15 O 0.05513 0.29699 0.40081 0.0
O16 O 0.03887 0.27794 0.36654 0.0
N17 N 0.0183 0.35284 0.31968 0.0
C18 C 1.00898 0.36951 0.32999 0.0
C19 C 0.98843 0.37374 0.31931 0.0
C20 C 0.97781 0.36101 0.29785 0.0
C21 C 0.98786 0.34419 0.28726 0.0
C22 C 1.00848 0.34088 0.29869 0.0
H23 H 0.01719 0.37955 0.34615 0.0
O24 O 0.0139 0.31249 0.37605 0.0
O25 O 0.02993 0.31986 0.34474 0.0
O26 O 0.05648 0.3461 0.38858 0.0
O27 O 0.05232 0.36693 0.3591 0.0
C28 C 0.97839 0.33083 0.26564 0.0
C29 C 0.98972 0.31459 0.25572 0.0
H30 H 0.01672 0.28558 0.24165 0.0
H31 H 0.05361 0.28294 0.2638 0.0
H32 H 0.98089 0.38689 0.32752 0.0
H33 H 0.96218 0.36459 0.28945 0.0
H34 H 0.96244 0.33297 0.25643 0.0
H35 H 0.98226 0.30439 0.23909 0.0
Mn36 Mn 0.02783 0.74686 0.69436 0.0
Mn37 Mn 0.04041 0.78802 0.74105 0.0
C38 C 0.06693 0.75882 0.71302 0.0
C39 C 0.0187 0.70839 0.67451 0.0
C40 C 0.03372 0.7985 0.6908 0.0
O41 O 0.99488 0.74796 0.70491 0.0
O42 O 1.00598 0.7756 0.73569 0.0
C43 C 0.02834 0.75876 0.77776 0.0
N44 N 0.04392 0.77425 0.76913 0.0
C45 C 0.07214 0.77577 0.80249 0.0
C46 C 0.05635 0.75991 0.81181 0.0
C47 C 0.03439 0.75132 0.79934 0.0
C48 C 0.06517 0.78246 0.78086 0.0
H49 H 0.01145 0.75214 0.76822 0.0
C50 C 0.99003 0.76122 0.72202 0.0
O51 O 0.01478 0.72556 0.66433 0.0
O52 O 0.02563 0.71306 0.69696 0.0
N53 N 0.07212 0.80208 0.74893 0.0
C54 C 0.08559 0.81655 0.73703 0.0
C55 C 0.10809 0.8267 0.74709 0.0
C56 C 0.11641 0.82204 0.76933 0.0
C57 C 0.10233 0.80689 0.78111 0.0
C58 C 0.08 0.79743 0.77029 0.0
H59 H 0.07919 0.8204 0.72004 0.0
O60 O 0.06148 0.74917 0.69148 0.0
O61 O 0.04894 0.76129 0.7235 0.0
O62 O 0.02937 0.77773 0.6814 0.0
O63 O 0.03779 0.8043 0.71304 0.0
C64 C 0.1096 0.80073 0.80309 0.0
C65 C 0.09455 0.78507 0.81371 0.0
H66 H 0.06094 0.75415 0.82846 0.0
H67 H 0.02214 0.73902 0.80638 0.0
H68 H 0.11891 0.83826 0.73783 0.0
H69 H 0.13359 0.83029 0.77723 0.0
H70 H 0.12682 0.80769 0.81183 0.0
H71 H 0.10043 0.78024 0.83047 0.0
Mn72 Mn 0.54668 0.81467 0.87492 0.0
Mn73 Mn 0.54697 0.84969 0.83371 0.0
C74 C 0.51065 0.82007 0.857 0.0
C75 C 0.54682 0.77905 0.88833 0.0
C76 C 0.55552 0.86752 0.88631 0.0
O77 O 0.57978 0.81682 0.86469 0.0
O78 O 0.57806 0.84009 0.83718 0.0
C79 C 0.54926 0.81669 0.79263 0.0
N80 N 0.5384 0.83182 0.80347 0.0
C81 C 0.50836 0.82478 0.77078 0.0
C82 C 0.51934 0.80929 0.75921 0.0
C83 C 0.53985 0.80521 0.7702 0.0
C84 C 0.51859 0.8358 0.79307 0.0
H85 H 0.56494 0.81331 0.80101 0.0
C86 C 0.58891 0.82729 0.84858 0.0
O87 O 0.55476 0.79814 0.90183 0.0
O88 O 0.53955 0.78051 0.86662 0.0
N89 N 0.51893 0.85982 0.8275 0.0
C90 C 0.50981 0.87438 0.84146 0.0
C91 C 0.48902 0.87986 0.83319 0.0
C92 C 0.47788 0.87044 0.81064 0.0
C93 C 0.48755 0.85551 0.79659 0.0
C94 C 0.50838 0.85074 0.80571 0.0
H95 H 0.51819 0.88167 0.85884 0.0
O96 O 0.51313 0.81324 0.87748 0.0
O97 O 0.52975 0.82351 0.84731 0.0
O98 O 0.55386 0.8477 0.89277 0.0
O99 O 0.55486 0.87036 0.86456 0.0
C100 C 0.47715 0.84488 0.77404 0.0
C101 C 0.48751 0.82948 0.76118 0.0
H102 H 0.51208 0.80032 0.74195 0.0
H103 H 0.54837 0.79319 0.76144 0.0
H104 H 0.48159 0.89129 0.84419 0.0
H105 H 0.46187 0.87475 0.80432 0.0
H106 H 0.46105 0.84822 0.76653 0.0
H107 H 0.4792 0.8212 0.74398 0.0
Mn108 Mn 0.5279 0.24903 0.19743 0.0
Mn109 Mn 0.48599 0.2423 0.15113 0.0
C110 C 0.51332 0.21248 0.17487 0.0
C111 C 0.56918 0.25505 0.21208 0.0
C112 C 0.47567 0.25084 0.20195 0.0
O113 O 0.53138 0.28143 0.18779 0.0
O114 O 0.50314 0.27466 0.15699 0.0
C115 C 0.51325 0.25179 0.11216 0.0
N116 N 0.49743 0.23745 0.1218 0.0
C117 C 0.48895 0.21061 0.08648 0.0
C118 C 0.50509 0.22513 0.07613 0.0
C119 C 0.51739 0.24574 0.08909 0.0
C120 C 0.48557 0.21753 0.10952 0.0
H121 H 0.52252 0.2678 0.12192 0.0
C122 C 0.51993 0.28787 0.17058 0.0
O123 O 0.55405 0.25917 0.2255 0.0
O124 O 0.56052 0.24806 0.19045 0.0
N125 N 0.4687 0.21173 0.14342 0.0
C126 C 0.4552 0.1989 0.15667 0.0
C127 C 0.44292 0.17704 0.14691 0.0
C128 C 0.44445 0.16875 0.12357 0.0
C129 C 0.45847 0.18229 0.11029 0.0
C130 C 0.47055 0.20378 0.12108 0.0
H131 H 0.45387 0.2053 0.17456 0.0
O132 O 0.52205 0.21455 0.19679 0.0
O133 O 0.51176 0.23179 0.16747 0.0
O134 O 0.49638 0.25191 0.21201 0.0
O135 O 0.471 0.24709 0.17961 0.0
C136 C 0.46115 0.17523 0.08687 0.0
C137 C 0.47635 0.18938 0.07496 0.0
H138 H 0.50835 0.22051 0.05835 0.0
H139 H 0.52992 0.25701 0.08125 0.0
H140 H 0.43221 0.16666 0.1573 0.0
H141 H 0.4349 0.1519 0.11608 0.0
H142 H 0.45181 0.1588 0.07794 0.0
H143 H 0.47854 0.18359 0.0571 0.0
Mn144 Mn 0.07908 0.79993 0.1199 0.0
Mn145 Mn 0.03713 0.78653 0.07373 0.0
C146 C 0.06675 0.76088 0.10204 0.0
C147 C 0.11757 0.80885 0.13997 0.0
C148 C 0.02723 0.7941 0.12382 0.0
O149 O 0.07846 0.83243 0.10851 0.0
O150 O 0.04909 0.82071 0.07943 0.0
C151 C 0.06605 0.79934 0.03688 0.0
N152 N 0.05077 0.78354 0.0455 0.0
C153 C 0.04889 0.75602 0.01161 0.0
C154 C 0.06453 0.77202 1.0023 0.0
C155 C 0.07321 0.79375 0.01504 0.0
C156 C 0.0425 0.76253 0.03351 0.0
H157 H 0.07267 0.81607 0.04659 0.0
C158 C 0.06405 0.83687 0.09214 0.0
O159 O 0.10033 0.81323 0.14983 0.0
O160 O 0.113 0.80159 0.11758 0.0
N161 N 0.02335 0.75493 0.06565 0.0
C162 C 1.00905 0.74125 0.07752 0.0
C163 C 0.99881 0.71895 0.0672 0.0
C164 C 1.00317 0.71108 0.0447 0.0
C165 C 0.01814 0.72538 0.03295 0.0
C166 C 0.02773 0.74748 0.04405 0.0
H167 H 1.00539 0.74734 0.09468 0.0
O168 O 0.07637 0.76658 0.12359 0.0
O169 O 0.06435 0.77851 0.0911 0.0
O170 O 0.04822 0.79928 0.13288 0.0
O171 O 0.02101 0.78873 0.10176 0.0
C172 C 0.02399 0.71858 0.01069 0.0
C173 C 0.03945 0.73384 1.00009 0.0
H174 H 0.07005 0.7678 0.98544 0.0
H175 H 0.08532 0.80617 0.008 0.0
H176 H 0.98738 0.70795 0.07643 0.0
H177 H 0.99481 0.69408 0.03658 0.0
H178 H 0.01691 0.70155 1.00171 0.0
H179 H 0.04404 0.72833 0.9831 0.0
Mn180 Mn 0.50209 0.76807 0.44971 0.0
Mn181 Mn 0.50447 0.79941 0.40377 0.0
C182 C 0.46724 0.77158 0.42589 0.0
C183 C 0.50495 0.73105 0.46441 0.0
C184 C 0.51202 0.82191 0.45498 0.0
O185 O 0.53617 0.77256 0.4432 0.0
O186 O 0.5323 0.78741 0.40926 0.0
C187 C 0.50289 0.76206 0.36551 0.0
N188 N 0.49565 0.78083 0.37417 0.0
C189 C 0.47739 0.7846 0.33616 0.0
C190 C 0.48488 0.76546 0.32659 0.0
C191 C 0.49731 0.75387 0.34143 0.0
C192 C 0.48239 0.79109 0.36043 0.0
H193 H 0.51282 0.75357 0.37693 0.0
C194 C 0.5438 0.77886 0.42445 0.0
O195 O 0.50945 0.75048 0.47783 0.0
O196 O 0.49823 0.73286 0.4427 0.0
N197 N 0.47926 0.81296 0.39513 0.0
C198 C 0.4722 0.83017 0.40751 0.0
C199 C 0.46002 0.84396 0.39545 0.0
C200 C 0.45595 0.8404 0.37077 0.0
C201 C 0.46299 0.82228 0.35842 0.0
C202 C 0.47435 0.80869 0.37145 0.0
H203 H 0.47647 0.83384 0.42635 0.0
O204 O 0.46693 0.76473 0.44651 0.0
O205 O 0.48751 0.77551 0.41962 0.0
O206 O 0.5072 0.80338 0.46467 0.0
O207 O 0.51353 0.82109 0.43301 0.0
C208 C 0.45918 0.81714 0.33367 0.0
C209 C 0.46571 0.79787 0.32262 0.0
H210 H 0.48121 0.75955 0.30792 0.0
H211 H 0.50303 0.73901 0.33424 0.0
H212 H 0.45448 0.85778 0.40511 0.0
H213 H 0.44707 0.85144 0.36149 0.0
H214 H 0.45048 0.82741 0.32308 0.0
H215 H 0.46197 0.79362 0.3037 0.0
Mn216 Mn 0.57607 0.29661 0.62321 0.0
Mn217 Mn 0.53525 0.28441 0.57599 0.0
C218 C 0.56372 0.25783 0.60425 0.0
C219 C 0.61425 0.30526 0.64433 0.0
C220 C 0.52387 0.29048 0.62584 0.0
O221 O 0.57596 0.32945 0.61255 0.0
O222 O 0.54727 0.31863 0.58263 0.0
C223 C 0.56579 0.29825 0.54076 0.0
N224 N 0.54998 0.28219 0.54838 0.0
C225 C 0.54979 0.25526 0.51447 0.0
C226 C 0.56599 0.27155 0.50618 0.0
C227 C 0.57408 0.29311 0.51943 0.0
C228 C 0.54231 0.2613 0.53594 0.0
H229 H 0.57204 0.31484 0.55088 0.0
C230 C 0.56217 0.33438 0.59591 0.0
O231 O 0.59659 0.30901 0.65381 0.0
O232 O 0.61031 0.29864 0.62179 0.0
N233 N 0.52146 0.25293 0.56675 0.0
C234 C 0.50608 0.23907 0.5774 0.0
C235 C 0.49587 0.2171 0.56615 0.0
C236 C 0.50139 0.20971 0.54401 0.0
C237 C 0.5175 0.22413 0.53357 0.0
C238 C 0.5269 0.24595 0.54547 0.0
H239 H 0.50149 0.24479 0.59424 0.0
O240 O 0.57296 0.26295 0.62597 0.0
O241 O 0.56188 0.27586 0.59379 0.0
O242 O 0.54473 0.29579 0.63534 0.0
O243 O 0.51828 0.28563 0.60361 0.0
C244 C 0.52453 0.21776 0.51177 0.0
C245 C 0.5408 0.23325 0.50232 0.0
H246 H 0.57237 0.26768 0.4897 0.0
H247 H 0.58662 0.30575 0.51319 0.0
H248 H 0.48353 0.20599 0.57437 0.0
H249 H 0.49295 0.19302 0.53509 0.0
H250 H 0.51767 0.20092 0.50223 0.0
H251 H 0.54625 0.22808 0.48567 0.0
Mn252 Mn 1.00386 0.26984 0.95014 0.0
Mn253 Mn 1.00717 0.30037 0.90359 0.0
C254 C 0.96923 0.27357 0.9262 0.0
C255 C 1.00603 0.23284 0.96532 0.0
C256 C 0.01482 0.32365 0.95457 0.0
O257 O 0.03801 0.2739 0.94408 0.0
O258 O 0.03491 0.28821 0.90977 0.0
C259 C 1.00579 0.26217 0.8664 0.0
N260 N 0.99833 0.28104 0.8744 0.0
C261 C 0.97791 0.28199 0.83654 0.0
C262 C 0.98564 0.26276 0.82766 0.0
C263 C 0.99936 0.25258 0.84277 0.0
C264 C 0.98415 0.29016 0.86042 0.0
H265 H 0.01652 0.2546 0.87801 0.0
C266 C 0.04607 0.27986 0.92542 0.0
O267 O 0.01051 0.25238 0.97857 0.0
O268 O 0.99973 0.2346 0.94349 0.0
N269 N 0.98211 0.31393 0.89427 0.0
C270 C 0.97568 0.33199 0.90586 0.0
C271 C 0.96291 0.34489 0.89322 0.0
C272 C 0.9572 0.33931 0.86877 0.0
C273 C 0.96317 0.3201 0.85733 0.0
C274 C 0.97604 0.30802 0.87082 0.0
H275 H 0.98104 0.33712 0.92443 0.0
O276 O 0.96886 0.26695 0.94691 0.0
O277 O 0.98954 0.2771 0.91983 0.0
O278 O 1.0094 0.30532 0.96447 0.0
O279 O 0.01631 0.32259 0.93256 0.0
C280 C 0.95753 0.31287 0.83296 0.0
C281 C 0.96446 0.29352 0.82266 0.0
H282 H 0.98109 0.25561 0.80934 0.0
H283 H 1.00524 0.23762 0.83614 0.0
H284 H 0.95806 0.35951 0.90219 0.0
H285 H 0.94792 0.34973 0.859 0.0
H286 H 0.94772 0.32196 0.82199 0.0
H287 H 0.95959 0.28784 0.80403 0.0
Mn288 Mn 0.39101 0.02304 0.30591 0.0
Mn289 Mn 0.35083 0.02214 0.34239 0.0
C290 C 0.372 0.98911 0.31564 0.0
C291 C 0.40342 0.02203 0.26945 0.0
C292 C 0.40161 0.03482 0.35909 0.0
O293 O 0.38375 0.05436 0.30548 0.0
O294 O 0.35598 0.0514 0.32902 0.0
C295 C 0.31147 0.0215 0.30654 0.0
N296 N 0.32131 0.01201 0.32428 0.0
C297 C 0.28769 0.98224 0.32182 0.0
C298 C 0.27708 0.99186 0.30374 0.0
C299 C 0.2891 0.01148 0.29596 0.0
C300 C 0.31013 0.99279 0.33146 0.0
H301 H 0.32066 0.03653 0.30044 0.0
C302 C 0.36859 0.06226 0.31561 0.0
O303 O 0.41723 0.03077 0.28848 0.0
O304 O 0.38188 0.01521 0.27136 0.0
N305 N 0.3438 0.99461 0.35627 0.0
C306 C 0.35675 0.98698 0.37329 0.0
C307 C 0.34742 0.96718 0.38262 0.0
C308 C 0.32474 0.95572 0.37472 0.0
C309 C 0.31164 0.9641 0.35745 0.0
C310 C 0.32195 0.98372 0.34858 0.0
H311 H 0.37411 0.99582 0.3796 0.0
O312 O 0.39181 0.99058 0.30831 0.0
O313 O 0.36379 0.00742 0.31681 0.0
O314 O 0.40769 0.0322 0.33879 0.0
O315 O 0.38071 0.03194 0.3627 0.0
C316 C 0.2887 0.95385 0.3488 0.0
C317 C 0.27685 0.96266 0.33072 0.0
H318 H 0.25976 0.98426 0.29564 0.0
H319 H 0.2811 0.01892 0.28189 0.0
H320 H 0.35765 0.96083 0.39594 0.0
H321 H 0.31756 0.94051 0.38203 0.0
H322 H 0.28005 0.93902 0.35578 0.0
H323 H 0.25938 0.9543 0.32385 0.0
Mn324 Mn 0.2628 0.18746 0.52183 0.0
Mn325 Mn 0.25482 0.1431 0.47851 0.0
C326 C 0.22627 0.16395 0.50993 0.0
C327 C 0.26932 0.20337 0.56234 0.0
C328 C 0.26326 0.1923 0.46854 0.0
O329 O 0.29506 0.18085 0.52226 0.0
O330 O 0.2875 0.15156 0.49276 0.0
C331 C 0.26537 0.10697 0.50614 0.0
N332 N 0.25059 0.11475 0.49104 0.0
C333 C 0.22365 0.0788 0.48565 0.0
C334 C 0.23862 0.07038 0.50108 0.0
C335 C 0.25951 0.08458 0.51146 0.0
C336 C 0.23039 0.10127 0.48106 0.0
H337 H 0.28157 0.1177 0.51397 0.0
C338 C 0.30116 0.16516 0.50919 0.0
O339 O 0.27342 0.21577 0.54562 0.0
O340 O 0.26224 0.18171 0.55564 0.0
N341 N 0.22383 0.13294 0.46397 0.0
C342 C 0.21049 0.14436 0.45132 0.0
C343 C 0.18859 0.13294 0.44054 0.0
C344 C 0.18068 0.1099 0.44286 0.0
C345 C 0.19454 0.09864 0.45642 0.0
C346 C 0.21619 0.11094 0.46677 0.0
H347 H 0.21649 0.16206 0.44961 0.0
O348 O 0.22858 0.18505 0.51893 0.0
O349 O 0.24531 0.15777 0.50674 0.0
O350 O 0.26554 0.20133 0.49006 0.0
O351 O 0.25867 0.17081 0.46259 0.0
C352 C 0.18763 0.07581 0.46032 0.0
C353 C 0.20216 0.06591 0.47495 0.0
H354 H 0.23415 0.05313 0.50525 0.0
H355 H 0.27112 0.07823 0.52344 0.0
H356 H 0.17786 0.14185 0.43042 0.0
H357 H 0.16379 0.10112 0.43446 0.0
H358 H 0.17106 0.06579 0.45239 0.0
H359 H 0.19649 0.04846 0.47813 0.0
Mn360 Mn 0.13576 0.06131 0.79328 0.0
Mn361 Mn 0.18151 0.06772 0.83497 0.0
C362 C 0.16014 0.09727 0.80529 0.0
C363 C 0.11963 0.05472 0.75279 0.0
C364 C 0.1324 0.05933 0.84647 0.0
O365 O 0.14156 0.02885 0.79251 0.0
O366 O 0.1736 0.0359 0.81901 0.0
C367 C 0.21773 0.06041 0.80584 0.0
N368 N 0.2097 0.0738 0.82206 0.0
C369 C 0.24531 0.10142 0.82863 0.0
C370 C 0.25395 0.08797 0.81196 0.0
C371 C 0.24003 0.06744 0.8004 0.0
C372 C 0.22285 0.09371 0.83306 0.0
H373 H 0.20723 0.04446 0.79722 0.0
C374 C 0.15842 0.02266 0.80367 0.0
O375 O 0.10708 0.05136 0.76957 0.0
O376 O 0.14142 0.06141 0.75944 0.0
N377 N 0.19095 0.09802 0.85112 0.0
C378 C 0.17928 0.11002 0.86496 0.0
C379 C 0.19038 0.13148 0.87694 0.0
C380 C 0.21342 0.1402 0.87482 0.0
C381 C 0.22499 0.12758 0.86033 0.0
C382 C 0.21291 0.10653 0.84846 0.0
H383 H 0.16164 0.10328 0.8668 0.0
O384 O 0.13902 0.09554 0.7963 0.0
O385 O 0.16588 0.07804 0.80794 0.0
O386 O 0.12252 0.05917 0.82554 0.0
O387 O 0.15403 0.06195 0.8511 0.0
C388 C 0.24801 0.13508 0.85712 0.0
C389 C 0.25809 0.12219 0.84103 0.0
H390 H 0.2712 0.09327 0.80782 0.0
H391 H 0.24657 0.05696 0.7875 0.0
H392 H 0.18126 0.14117 0.88795 0.0
H393 H 0.22198 0.15669 0.88423 0.0
H394 H 0.25802 0.15097 0.86664 0.0
H395 H 0.27562 0.12847 0.83824 0.0
Mn396 Mn 0.3034 0.92978 0.00717 0.0
Mn397 Mn 0.31188 0.96915 0.96998 0.0
C398 C 0.3399 0.94469 1.00082 0.0
C399 C 0.29888 0.92025 0.04426 0.0
C400 C 0.29594 0.91857 0.95399 0.0
O401 O 0.27345 0.93957 1.00342 0.0
O402 O 0.28124 0.96749 0.98073 0.0
C403 C 0.31355 0.0106 1.0031 0.0
N404 N 0.32315 0.99897 0.98676 0.0
C405 C 0.35379 0.03136 0.98692 0.0
C406 C 0.34405 0.04382 1.00349 0.0
C407 C 0.32396 0.03332 0.01176 0.0
C408 C 0.34273 0.00874 0.97906 0.0
H409 H 0.29811 1.00257 0.00946 0.0
C410 C 0.26798 0.95539 0.99269 0.0
O411 O 0.29076 0.90559 0.02567 0.0
O412 O 0.30859 0.9407 0.0412 0.0
N413 N 0.34078 0.97309 0.95831 0.0
C414 C 0.34917 0.95799 0.94429 0.0
C415 C 0.3698 0.96539 0.93537 0.0
C416 C 0.38147 0.98824 0.94083 0.0
C417 C 0.37274 1.00335 0.95567 0.0
C418 C 0.35206 0.99502 0.96394 0.0
H419 H 0.34018 0.94046 0.93992 0.0
O420 O 0.33503 0.92531 0.00888 0.0
O421 O 0.32316 0.95525 0.99706 0.0
O422 O 0.29608 0.91228 0.97433 0.0
O423 O 0.30092 0.93935 0.95048 0.0
C424 C 0.38382 0.02628 0.96274 0.0
C425 C 0.37434 0.04029 0.97835 0.0
H426 H 0.35204 0.06134 0.01024 0.0
H427 H 0.31647 0.04275 0.02473 0.0
H428 H 0.3766 0.95355 0.92418 0.0
H429 H 0.39726 0.99393 0.93373 0.0
H430 H 0.39984 0.0332 0.95662 0.0
H431 H 0.38327 0.05775 0.98406 0.0
Mn432 Mn 0.31325 0.38174 0.04776 0.0
Mn433 Mn 0.3106 0.42172 0.01082 0.0
C434 C 0.34715 0.4059 0.04057 0.0
C435 C 0.31039 0.36917 0.08563 0.0
C436 C 0.3043 0.37129 0.99348 0.0
O437 O 0.27955 0.38475 0.04513 0.0
O438 O 0.28152 0.41416 0.02389 0.0
C439 C 0.30717 0.46048 0.04527 0.0
N440 N 0.31751 0.45169 0.02767 0.0
C441 C 0.33984 0.48861 0.02435 0.0
C442 C 0.32949 0.49813 0.04247 0.0
C443 C 0.31326 0.48395 0.05315 0.0
C444 C 0.33367 0.46502 0.01784 0.0
H445 H 0.29427 0.44969 0.05305 0.0
C446 C 0.27088 0.39993 0.03581 0.0
O447 O 0.30622 0.3552 0.06625 0.0
O448 O 0.3167 0.39056 0.0832 0.0
N449 N 0.33744 0.43136 0.9965 0.0
C450 C 0.34646 0.41931 0.97997 0.0
C451 C 0.36268 0.43092 0.9673 0.0
C452 C 0.36901 0.4548 0.97135 0.0
C453 C 0.35981 0.46681 0.98877 0.0
C454 C 0.34394 0.4543 1.00101 0.0
H455 H 0.34091 0.40106 0.97606 0.0
O456 O 0.34766 0.38676 0.04879 0.0
O457 O 0.32699 0.41059 0.03722 0.0
O458 O 0.3087 0.36478 0.01357 0.0
O459 O 0.30336 0.3918 0.99094 0.0
C460 C 0.36533 0.49074 0.9941 0.0
C461 C 0.35576 0.50159 0.01224 0.0
H462 H 0.33384 0.51628 0.04829 0.0
H463 H 0.30517 0.49116 0.06713 0.0
H464 H 0.36984 0.42153 0.954 0.0
H465 H 0.38109 0.46372 0.96111 0.0
H466 H 0.37704 0.50098 0.98446 0.0
H467 H 0.36058 0.51993 0.01654 0.0
Mn468 Mn 0.77423 0.14365 0.05993 0.0
Mn469 Mn 0.759 0.09778 0.01824 0.0
C470 C 0.73637 0.1245 0.05182 0.0
C471 C 0.78764 0.16131 0.09789 0.0
C472 C 0.76879 0.14621 0.0074 0.0
O473 O 0.80489 0.13546 0.05492 0.0
O474 O 0.79174 0.10328 0.0297 0.0
C475 C 0.7665 0.06171 0.04726 0.0
N476 N 0.7527 0.07016 0.0318 0.0
C477 C 0.72414 0.03535 0.02593 0.0
C478 C 0.73797 0.02623 0.04188 0.0
C479 C 0.75917 0.03955 0.05274 0.0
C480 C 0.73208 0.05772 0.0217 0.0
H481 H 0.78303 0.07176 0.05513 0.0
C482 C 0.80794 0.11796 0.04224 0.0
O483 O 0.78983 0.17221 0.07983 0.0
O484 O 0.77847 0.13965 0.09389 0.0
N485 N 0.72765 0.09017 0.00497 0.0
C486 C 0.71592 0.10212 0.99122 0.0
C487 C 0.69458 0.09131 0.97873 0.0
C488 C 0.6859 0.06815 0.97996 0.0
C489 C 0.69791 0.05644 0.99494 0.0
C490 C 0.71899 0.0682 0.0071 0.0
H491 H 0.72298 0.11965 0.98947 0.0
O492 O 0.74179 0.14534 0.06219 0.0
O493 O 0.75329 0.11507 0.04708 0.0
O494 O 0.77198 0.15588 0.02846 0.0
O495 O 0.76468 0.12475 1.00169 0.0
C496 C 0.68993 0.03355 0.99816 0.0
C497 C 0.70286 0.02312 0.01394 0.0
H498 H 0.73252 0.00903 0.04589 0.0
H499 H 0.76997 0.03261 0.06501 0.0
H500 H 0.6851 0.10072 0.96787 0.0
H501 H 0.66977 0.05964 0.96963 0.0
H502 H 0.67374 0.02389 0.98885 0.0
H503 H 0.69633 1.00568 0.01664 0.0
Mn504 Mn 0.17994 0.55833 0.25682 0.0
Mn505 Mn 0.22834 0.568 0.29536 0.0
C506 C 0.20015 0.59497 0.26901 0.0
C507 C 0.16007 0.55006 0.21928 0.0
C508 C 0.18092 0.55765 0.30962 0.0
O509 O 0.18739 0.527 0.25585 0.0
O510 O 0.22069 0.53602 0.2802 0.0
C511 C 0.26086 0.56234 0.26129 0.0
N512 N 0.25452 0.575 0.27938 0.0
C513 C 0.28927 0.60347 0.28272 0.0
C514 C 0.29629 0.59068 0.26422 0.0
C515 C 0.28194 0.57011 0.25334 0.0
C516 C 0.26793 0.59506 0.2896 0.0
H517 H 0.24994 0.54644 0.25305 0.0
C518 C 0.20512 0.52187 0.26614 0.0
O519 O 0.15013 0.54555 0.23759 0.0
O520 O 0.18192 0.55873 0.22268 0.0
N521 N 0.23821 0.59827 0.31155 0.0
C522 C 0.22835 0.60909 0.32831 0.0
C523 C 0.24036 0.63001 0.34081 0.0
C524 C 0.26251 0.63935 0.33624 0.0
C525 C 0.27223 0.628 0.31876 0.0
C526 C 0.25941 0.60725 0.30686 0.0
H527 H 0.21156 0.6017 0.33231 0.0
O528 O 0.17876 0.59111 0.26021 0.0
O529 O 0.20944 0.57734 0.26979 0.0
O530 O 0.17018 0.55598 0.2891 0.0
O531 O 0.20269 0.56157 0.31391 0.0
C532 C 0.29418 0.63634 0.3128 0.0
C533 C 0.30257 0.62425 0.29458 0.0
H534 H 0.31261 0.59654 0.25816 0.0
H535 H 0.28719 0.56019 0.23899 0.0
H536 H 0.23273 0.63872 0.35421 0.0
H537 H 0.27188 0.65528 0.34623 0.0
H538 H 0.30471 0.65213 0.32198 0.0
H539 H 0.31927 0.63108 0.28984 0.0
Mn540 Mn 0.81019 0.88449 0.54721 0.0
Mn541 Mn 0.81148 0.92636 0.51188 0.0
C542 C 0.84558 0.90748 0.54141 0.0
C543 C 0.80655 0.8712 0.58492 0.0
C544 C 0.80368 0.87626 0.49232 0.0
O545 O 0.77683 0.8893 0.5443 0.0
O546 O 0.7814 0.91813 0.52245 0.0
C547 C 0.80646 0.96351 0.54743 0.0
N548 N 0.81777 0.95557 0.53022 0.0
C549 C 0.84043 0.99294 0.52937 0.0
C550 C 0.82916 1.00157 0.54721 0.0
C551 C 0.81224 0.98673 0.55643 0.0
C552 C 0.83454 0.96952 0.52177 0.0
H553 H 0.79298 0.95222 0.554 0.0
C554 C 0.7692 0.90439 0.53368 0.0
O555 O 0.80146 0.85761 0.56525 0.0
O556 O 0.81383 0.89251 0.58283 0.0
N557 N 0.8392 0.93677 0.4994 0.0
C558 C 0.84835 0.92561 0.48228 0.0
C559 C 0.86439 0.93809 0.47006 0.0
C560 C 0.87052 0.9619 0.47529 0.0
C561 C 0.8615 0.97295 0.49354 0.0
C562 C 0.84548 0.95964 0.50497 0.0
H563 H 0.84284 0.90743 0.47738 0.0
O564 O 0.84458 0.88772 0.54869 0.0
O565 O 0.82604 0.91346 0.53803 0.0
O566 O 0.80535 0.86839 0.51217 0.0
O567 O 0.80514 0.89739 0.49093 0.0
C568 C 0.8672 0.99671 0.50034 0.0
C569 C 0.857 1.00664 0.51856 0.0
H570 H 0.83326 0.01955 0.55386 0.0
H571 H 0.80338 0.99327 0.57011 0.0
H572 H 0.8715 0.92945 0.45618 0.0
H573 H 0.88233 0.97152 0.46527 0.0
H574 H 0.87947 0.00751 0.49174 0.0
H575 H 0.86177 0.02487 0.52386 0.0
Mn576 Mn 0.94192 0.00802 0.26779 0.0
Mn577 Mn 0.89795 1.00562 0.30046 0.0
C578 C 0.91943 0.97222 0.27305 0.0
C579 C 0.95601 0.01272 0.23059 0.0
C580 C 0.94814 0.01584 0.32231 0.0
O581 O 0.93623 0.04083 0.27055 0.0
O582 O 0.90383 0.03461 0.28727 0.0
C583 C 0.86067 1.00418 0.26192 0.0
N584 N 0.86895 0.99611 0.28146 0.0
C585 C 0.8323 0.97242 0.28359 0.0
C586 C 0.82311 0.98094 0.26386 0.0
C587 C 0.83747 0.9966 0.25272 0.0
C588 C 0.85566 0.98009 0.29142 0.0
H589 H 0.87178 0.01612 0.25343 0.0
C590 C 0.9186 0.04712 0.27734 0.0
O591 O 0.9693 0.01764 0.25052 0.0
O592 O 0.9346 1.00478 0.23215 0.0
N593 N 0.88925 0.97873 0.31482 0.0
C594 C 0.90124 0.97109 0.33256 0.0
C595 C 0.88956 0.95561 0.34588 0.0
C596 C 0.86567 0.94835 0.34097 0.0
C597 C 0.85381 0.95565 0.32196 0.0
C598 C 0.86635 0.97121 0.30947 0.0
H599 H 0.91947 0.97728 0.33696 0.0
O600 O 0.93954 0.9738 0.26628 0.0
O601 O 0.91283 0.99137 0.27597 0.0
O602 O 0.9569 0.01299 0.30312 0.0
O603 O 0.92678 0.0151 0.32241 0.0
C604 C 0.82998 0.94851 0.3152 0.0
C605 C 0.8193 0.95656 0.29575 0.0
H606 H 0.80515 0.97536 0.25694 0.0
H607 H 0.83062 1.00297 0.23726 0.0
H608 H 0.89887 0.9497 0.36026 0.0
H609 H 0.85667 0.93683 0.35168 0.0
H610 H 0.81972 0.93665 0.32466 0.0
H611 H 0.80109 0.9505 0.29033 0.0
Mn612 Mn 0.26792 0.64686 0.55889 0.0
Mn613 Mn 0.25677 0.59891 0.51994 0.0
C614 C 0.23071 0.62742 0.54719 0.0
C615 C 0.27722 0.66626 0.59658 0.0
C616 C 0.2682 0.64626 0.5061 0.0
O617 O 0.299 0.63857 0.5593 0.0
O618 O 0.28888 0.60548 0.53497 0.0
C619 C 0.26165 0.56552 0.55314 0.0
N620 N 0.24911 0.57259 0.53541 0.0
C621 C 0.22009 0.5382 0.53098 0.0
C622 C 0.23272 0.53047 0.54915 0.0
C623 C 0.25349 0.54428 0.56041 0.0
C624 C 0.22886 0.55969 0.52484 0.0
H625 H 0.27776 0.57599 0.56159 0.0
C626 C 0.30354 0.62061 0.54898 0.0
O627 O 0.28164 0.67625 0.57829 0.0
O628 O 0.26794 0.64464 0.59306 0.0
N629 N 0.22624 0.59012 0.5039 0.0
C630 C 0.2156 0.60067 0.48762 0.0
C631 C 0.19446 0.5893 0.47491 0.0
C632 C 0.18475 0.56707 0.47872 0.0
C633 C 0.19595 0.55663 0.4957 0.0
C634 C 0.21686 0.56887 0.50795 0.0
H635 H 0.2233 0.6175 0.48415 0.0
O636 O 0.23512 0.64871 0.55609 0.0
O637 O 0.24815 0.61783 0.54592 0.0
O638 O 0.27006 0.65689 0.52665 0.0
O639 O 0.26391 0.6246 0.50174 0.0
C640 C 0.18732 0.5345 0.50083 0.0
C641 C 0.19919 0.52543 0.5187 0.0
H642 H 0.22659 0.514 0.55464 0.0
H643 H 0.26331 0.53846 0.57448 0.0
H644 H 0.18587 0.59748 0.4619 0.0
H645 H 0.16865 0.55821 0.46856 0.0
H646 H 0.17141 0.52439 0.49132 0.0
H647 H 0.1921 0.50861 0.52283 0.0
Mn648 Mn 0.44237 0.50974 0.76789 0.0
Mn649 Mn 0.40201 0.51136 0.80478 0.0
C650 C 0.4178 0.47577 0.77421 0.0
C651 C 0.45532 0.51254 0.73008 0.0
C652 C 0.45214 0.51531 0.82269 0.0
O653 O 0.43947 0.54329 0.77066 0.0
O654 O 0.41261 0.54156 0.79507 0.0
C655 C 0.36614 0.52042 0.76986 0.0
N656 N 0.37279 0.50794 0.78662 0.0
C657 C 0.33419 0.48728 0.786 0.0
C658 C 0.32686 0.49987 0.76872 0.0
C659 C 0.34296 0.51637 0.76046 0.0
C660 C 0.35761 0.49153 0.79408 0.0
H661 H 0.37841 0.53344 0.76386 0.0
C662 C 0.42606 0.55237 0.78251 0.0
O663 O 0.46924 0.51669 0.74957 0.0
O664 O 0.43379 0.50649 0.73241 0.0
N665 N 0.38919 0.48383 0.81631 0.0
C666 C 0.39913 0.47316 0.83294 0.0
C667 C 0.38534 0.45717 0.84411 0.0
C668 C 0.36145 0.45266 0.83839 0.0
C669 C 0.35161 0.46335 0.82075 0.0
C670 C 0.36622 0.47918 0.81031 0.0
H671 H 0.41737 0.47737 0.8382 0.0
O672 O 0.43729 0.4755 0.76651 0.0
O673 O 0.41303 0.49581 0.77781 0.0
O674 O 0.45917 0.51407 0.80245 0.0
O675 O 0.43125 0.51461 0.82537 0.0
C676 C 0.32784 0.45937 0.81354 0.0
C677 C 0.31918 0.47096 0.79581 0.0
H678 H 0.30893 0.49709 0.76175 0.0
H679 H 0.33745 0.5262 0.74716 0.0
H680 H 0.39305 0.44881 0.85755 0.0
H681 H 0.35083 0.44083 0.84759 0.0
H682 H 0.31606 0.44729 0.82139 0.0
H683 H 0.30092 0.46746 0.79013 0.0
Mn684 Mn 0.68485 0.06004 0.75568 0.0
Mn685 Mn 0.7345 0.07133 0.79268 0.0
C686 C 0.70317 0.09701 0.76835 0.0
C687 C 0.66381 0.05139 0.71885 0.0
C688 C 0.68811 0.05793 0.80825 0.0
O689 O 0.69412 0.02968 0.75351 0.0
O690 O 0.72802 0.03961 0.77679 0.0
C691 C 0.76616 0.06855 0.75713 0.0
N692 N 0.75971 0.08026 0.77583 0.0
C693 C 0.79283 0.11063 0.77839 0.0
C694 C 0.79989 0.09888 0.75918 0.0
C695 C 0.78642 0.07781 0.74842 0.0
C696 C 0.77231 0.10071 0.78604 0.0
H697 H 0.75594 0.05225 0.749 0.0
C698 C 0.71252 0.02517 0.76293 0.0
O699 O 0.65493 0.046 0.73751 0.0
O700 O 0.68537 0.06126 0.72146 0.0
N701 N 0.74333 0.10137 0.80956 0.0
C702 C 0.73368 0.11084 0.8274 0.0
C703 C 0.7451 0.13178 0.84026 0.0
C704 C 0.76647 0.14257 0.83488 0.0
C705 C 0.77591 0.13271 0.81622 0.0
C706 C 0.76381 0.11173 0.80416 0.0
H707 H 0.71758 0.10231 0.83207 0.0
O708 O 0.68161 0.09206 0.76002 0.0
O709 O 0.71386 0.08027 0.76816 0.0
O710 O 0.67651 0.0565 0.78825 0.0
O711 O 0.70987 0.063 0.81207 0.0
C712 C 0.79693 0.14273 0.80924 0.0
C713 C 0.80528 0.13181 0.79019 0.0
H714 H 0.81558 0.1059 0.7525 0.0
H715 H 0.79173 0.06867 0.73356 0.0
H716 H 0.73766 0.13938 0.85455 0.0
H717 H 0.7755 0.15841 0.84528 0.0
H718 H 0.80672 0.15894 0.81824 0.0
H719 H 0.82128 0.13986 0.78475 0.0
Mn720 Mn 0.76168 0.69082 0.02395 0.0
Mn721 Mn 0.75483 0.64584 0.98146 0.0
C722 C 0.72537 0.66706 0.01156 0.0
C723 C 0.76772 0.70647 0.06463 0.0
C724 C 0.76341 0.69488 0.9706 0.0
O725 O 0.79404 0.68444 0.02512 0.0
O726 O 0.78714 0.65417 0.99665 0.0
C727 C 0.76394 0.60983 0.00994 0.0
N728 N 0.74975 0.61766 0.99426 0.0
C729 C 0.72252 0.58187 0.9883 0.0
C730 C 0.73686 0.57341 0.00435 0.0
C731 C 0.75759 0.58751 0.01533 0.0
C732 C 0.72968 0.6043 0.98375 0.0
H733 H 0.78002 0.62048 0.01818 0.0
C734 C 0.80039 0.66849 0.01275 0.0
O735 O 0.77209 0.71908 0.0481 0.0
O736 O 0.76052 0.6849 0.05762 0.0
N737 N 0.72417 0.63591 0.96593 0.0
C738 C 0.71154 0.64729 0.95238 0.0
C739 C 0.6898 0.63599 0.94103 0.0
C740 C 0.68141 0.61307 0.94354 0.0
C741 C 0.69468 0.60179 0.95775 0.0
C742 C 0.71609 0.614 0.96882 0.0
H743 H 0.718 0.66485 0.95028 0.0
O744 O 0.72739 0.68815 0.02043 0.0
O745 O 0.74457 0.66102 0.00889 0.0
O746 O 0.76468 0.70443 0.99186 0.0
O747 O 0.75966 0.67331 0.96545 0.0
C748 C 0.68744 0.57895 0.9615 0.0
C749 C 0.7013 0.56903 0.97683 0.0
H750 H 0.73204 0.5562 0.00853 0.0
H751 H 0.76873 0.58113 0.02778 0.0
H752 H 0.67959 0.64486 0.93025 0.0
H753 H 0.66467 0.60438 0.93468 0.0
H754 H 0.67115 0.56892 0.95283 0.0
H755 H 0.69535 0.55159 0.97989 0.0
Mn756 Mn 0.89978 0.52825 0.81205 0.0
Mn757 Mn 0.85809 0.52202 0.847 0.0
C758 C 0.88218 0.49247 0.81819 0.0
C759 C 0.91233 0.53177 0.77591 0.0
C760 C 0.90842 0.53553 0.86557 0.0
O761 O 0.89106 0.55878 0.81406 0.0
O762 O 0.86259 0.55266 0.83643 0.0
C763 C 0.81893 0.52311 0.81159 0.0
N764 N 0.82879 0.51256 0.82838 0.0
C765 C 0.79471 0.48328 0.82549 0.0
C766 C 0.78411 0.49388 0.80826 0.0
C767 C 0.79634 0.5138 0.80117 0.0
C768 C 0.81734 0.49317 0.83501 0.0
H769 H 0.82821 0.53852 0.80624 0.0
C770 C 0.87526 0.56516 0.82429 0.0
O771 O 0.92597 0.53948 0.79533 0.0
O772 O 0.89113 0.52293 0.77752 0.0
N773 N 0.8514 0.49315 0.85831 0.0
C774 C 0.86473 0.48404 0.87365 0.0
C775 C 0.85524 0.4639 0.88228 0.0
C776 C 0.83211 0.4535 0.87524 0.0
C777 C 0.81886 0.4629 0.859 0.0
C778 C 0.82925 0.48301 0.85106 0.0
H779 H 0.88242 0.49215 0.87938 0.0
O780 O 0.9024 0.4961 0.81157 0.0
O781 O 0.87263 0.50995 0.82089 0.0
O782 O 0.91556 0.53543 0.84563 0.0
O783 O 0.88728 0.53112 0.86814 0.0
C784 C 0.79578 0.45312 0.85037 0.0
C785 C 0.78379 0.46316 0.83344 0.0
H786 H 0.76666 0.4868 0.80025 0.0
H787 H 0.78832 0.52204 0.78781 0.0
H788 H 0.86564 0.45656 0.89456 0.0
H789 H 0.82476 0.43818 0.88227 0.0
H790 H 0.78717 0.43768 0.85636 0.0
H791 H 0.76622 0.45519 0.82654 0.0
Mn792 Mn 0.80253 0.43027 0.50523 0.0
Mn793 Mn 0.802 0.47134 0.4702 0.0
C794 C 0.83594 0.44914 0.49453 0.0
C795 C 0.80403 0.41811 0.54181 0.0
C796 C 0.78924 0.42125 0.45195 0.0
O797 O 0.77187 0.4379 0.50782 0.0
O798 O 0.77254 0.46494 0.48363 0.0
C799 C 0.80183 0.50912 0.50733 0.0
N800 N 0.81171 0.5002 0.4894 0.0
C801 C 0.84153 0.53397 0.49359 0.0
C802 C 0.83161 0.54357 0.51201 0.0
C803 C 0.81172 0.53104 0.51897 0.0
C804 C 0.83102 0.51198 0.48279 0.0
H805 H 0.78654 0.49959 0.51275 0.0
C806 C 0.76293 0.45239 0.49783 0.0
O807 O 0.79485 0.40417 0.52299 0.0
O808 O 0.81191 0.43924 0.53942 0.0
N809 N 0.82955 0.4796 0.45645 0.0
C810 C 0.83772 0.46745 0.43927 0.0
C811 C 0.8577 0.47743 0.43054 0.0
C812 C 0.86895 0.49988 0.43938 0.0
C813 C 0.86025 0.51204 0.45708 0.0
C814 C 0.84032 0.50117 0.46517 0.0
H815 H 0.82922 0.45018 0.43247 0.0
O816 O 0.83462 0.42908 0.50111 0.0
O817 O 0.81768 0.45755 0.49453 0.0
O818 O 0.79164 0.4144 0.47199 0.0
O819 O 0.79266 0.44225 0.44903 0.0
C820 C 0.87057 0.53452 0.46705 0.0
C821 C 0.86143 0.54536 0.48552 0.0
H822 H 0.83915 0.56051 0.52097 0.0
H823 H 0.804 0.5383 0.53323 0.0
H824 H 0.86442 0.46785 0.41702 0.0
H825 H 0.88432 0.50754 0.43254 0.0
H826 H 0.88567 0.54358 0.46076 0.0
H827 H 0.86981 0.56248 0.49335 0.0
Mn828 Mn 0.63669 0.55763 0.29321 0.0
Mn829 Mn 0.68229 0.56292 0.33495 0.0
C830 C 0.6612 0.5933 0.30634 0.0
C831 C 0.62037 0.55218 0.25276 0.0
C832 C 0.63325 0.55481 0.34639 0.0
O833 O 0.64243 0.52513 0.29128 0.0
O834 O 0.67361 0.53119 0.31876 0.0
C835 C 0.71778 0.55494 0.3051 0.0
N836 N 0.71035 0.56841 0.32174 0.0
C837 C 0.74651 0.59519 0.32823 0.0
C838 C 0.75455 0.58162 0.31115 0.0
C839 C 0.74006 0.56149 0.29943 0.0
C840 C 0.72404 0.58797 0.33288 0.0
H841 H 0.70683 0.53928 0.29631 0.0
C842 C 0.65875 0.51842 0.30279 0.0
O843 O 0.60795 0.54827 0.26955 0.0
O844 O 0.64218 0.5588 0.25938 0.0
N845 N 0.6926 0.59303 0.35141 0.0
C846 C 0.68141 0.60533 0.36551 0.0
C847 C 0.69313 0.62648 0.37773 0.0
C848 C 0.71627 0.63459 0.37555 0.0
C849 C 0.72732 0.6217 0.36071 0.0
C850 C 0.71464 0.60098 0.34864 0.0
H851 H 0.66367 0.5991 0.3673 0.0
O852 O 0.64011 0.5919 0.29742 0.0
O853 O 0.66685 0.57392 0.30825 0.0
O854 O 0.62347 0.55449 0.32538 0.0
O855 O 0.6549 0.55772 0.35126 0.0
C856 C 0.75037 0.62864 0.35732 0.0
C857 C 0.75987 0.61559 0.34083 0.0
H858 H 0.77178 0.58655 0.30684 0.0
H859 H 0.74613 0.55093 0.28621 0.0
H860 H 0.68441 0.63642 0.38895 0.0
H861 H 0.72532 0.65084 0.38512 0.0
H862 H 0.76085 0.64421 0.36704 0.0
H863 H 0.77744 0.62147 0.33789 0.0
Eu864 Eu 0.06694 0.05263 0.05149 0.0
C865 C 0.99937 0.96722 0.01106 0.0
N866 N 0.00979 0.98507 1.00081 0.0
C867 C 0.01912 0.95942 0.97059 0.0
C868 C 0.99961 0.94466 1.00206 0.0
C869 C 0.01879 0.98153 0.98034 0.0
C870 C 0.00973 0.94092 0.98164 0.0
C871 C 0.97854 0.95349 0.04222 0.0
C872 C 0.98899 0.97168 0.03095 0.0
C873 C 0.9795 0.93105 0.03383 0.0
C874 C 0.98993 0.92664 0.01376 0.0
Eu875 Eu 1.00836 0.0218 0.0183 0.0
N876 N 0.98836 0.99362 0.03874 0.0
C877 C 0.96693 0.95833 0.06125 0.0
C878 C 0.97519 0.99808 0.05582 0.0
C879 C 0.96487 0.98067 0.06777 0.0
H880 H 0.02598 0.9958 0.97174 0.0
H881 H 0.95506 0.98445 0.08178 0.0
H882 H 0.0559 0.06065 0.1085 0.0
H883 H 0.1113 0.11645 1.0031 0.0
H884 H 0.97226 0.01498 0.06015 0.0
H885 H 0.95876 0.94485 0.07042 0.0
H886 H 0.09672 0.07755 0.01262 0.0
H887 H 0.02667 0.95666 0.95461 0.0
H888 H 0.97182 0.91692 0.04246 0.0
H889 H 0.99027 0.90921 0.00733 0.0
H890 H 0.04952 0.09164 0.13632 0.0
H891 H 0.01025 0.92382 0.97419 0.0
H892 H 0.10434 0.14992 0.0277 0.0
N893 N 0.06321 0.08151 0.08147 0.0
C894 C 0.06901 0.10333 0.07668 0.0
C895 C 0.05457 0.09514 0.11941 0.0
C896 C 0.06658 0.12182 0.0926 0.0
C897 C 0.05764 0.07743 0.10321 0.0
C898 C 0.05857 0.11738 0.11387 0.0
N899 N 0.08176 0.08922 0.04201 0.0
C900 C 0.09394 0.0922 0.02351 0.0
C901 C 0.08671 0.12974 0.05171 0.0
C902 C 0.07903 0.10734 0.05659 0.0
C903 C 0.09816 0.13297 0.03204 0.0
C904 C 0.10215 0.11412 0.01811 0.0
H905 H 0.05645 0.1311 0.12658 0.0
H906 H 0.07105 0.15855 0.09913 0.0
H907 H 0.08861 0.16546 0.06324 0.0
O908 O 0.09888 0.04402 0.04349 0.0
O909 O 0.04898 0.07389 0.02674 0.0
O910 O 0.01074 0.06087 0.02696 0.0
O911 O 0.09685 0.05981 0.07838 0.0
O912 O 0.06752 0.03505 0.01426 0.0
O913 O 0.03322 0.03776 0.9946 0.0
O914 O 0.97132 0.01508 0.00867 0.0
O915 O 0.0362 1.00008 0.02626 0.0
O916 O 0.05516 0.01664 0.06181 0.0
O917 O 0.99356 0.02345 0.9825 0.0
O918 O 1.007 0.04021 0.05491 0.0
O919 O 0.04075 0.03557 0.07364 0.0
C920 C 0.02787 0.07736 0.02384 0.0
C921 C 0.11832 0.03103 0.07455 0.0
C922 C 0.14227 1.00349 0.0689 0.0
C923 C 0.13419 0.99301 0.08784 0.0
C924 C 0.10993 0.02024 0.09323 0.0
C925 C 0.11803 1.0014 0.09993 0.0
C926 C 0.13454 0.02265 0.06264 0.0
C927 C 0.05494 0.03723 0.99482 0.0
C928 C 0.10866 0.0492 0.06515 0.0
C929 C 0.07307 0.14416 0.08724 0.0
C930 C 0.08314 0.14812 0.06684 0.0
C931 C 0.04698 0.99796 0.04693 0.0
C932 C 0.95995 0.03749 0.98018 0.0
C933 C 0.93894 0.06723 0.98929 0.0
C934 C 0.93623 0.07 0.96529 0.0
C935 C 0.95704 0.04049 0.95637 0.0
C936 C 0.95122 0.05117 0.99663 0.0
C937 C 0.94538 0.05681 0.94902 0.0
C938 C 0.01943 0.0375 0.07419 0.0
C939 C 0.97275 0.02056 0.98759 0.0
H940 H 0.13999 0.97814 0.09291 0.0
H941 H 0.09687 0.02604 0.10231 0.0
H942 H 0.11147 0.99304 0.11423 0.0
H943 H 0.1408 0.03081 0.04803 0.0
H944 H 0.92645 0.08186 0.95891 0.0
H945 H 0.96386 0.03024 0.94347 0.0
H946 H 0.95388 0.04927 0.01513 0.0
H947 H 0.94311 0.059 0.9306 0.0
Eu948 Eu 0.26852 0.77953 0.30447 0.0
C949 C 0.33988 0.75823 0.22413 0.0
N950 N 0.34322 0.77047 0.2459 0.0
C951 C 0.37808 0.75783 0.25534 0.0
C952 C 0.35543 0.74485 0.21738 0.0
C953 C 0.36228 0.77087 0.26127 0.0
C954 C 0.37459 0.74465 0.23337 0.0
C955 C 0.31681 0.74628 0.18592 0.0
C956 C 0.32079 0.75898 0.20849 0.0
C957 C 0.33222 0.7329 0.17925 0.0
C958 C 0.35146 0.73218 0.19492 0.0
Eu959 Eu 0.31575 0.79242 0.25365 0.0
N960 N 0.30579 0.77163 0.21561 0.0
C961 C 0.2974 0.74737 0.17071 0.0
C962 C 0.28723 0.77329 0.20058 0.0
C963 C 0.28263 0.76104 0.17804 0.0
H964 H 0.36578 0.78163 0.27794 0.0
H965 H 0.26778 0.76227 0.16627 0.0
H966 H 0.21991 0.79108 0.2804 0.0
H967 H 0.31754 0.81191 0.39163 0.0
H968 H 0.27601 0.78423 0.20567 0.0
H969 H 0.29376 0.73788 0.15323 0.0
H970 H 0.30624 0.78585 0.35499 0.0
H971 H 0.3931 0.75814 0.26764 0.0
H972 H 0.32942 0.72302 0.16199 0.0
H973 H 0.36321 0.72179 0.18948 0.0
H974 H 0.19515 0.81838 0.28792 0.0
H975 H 0.38691 0.7346 0.22882 0.0
H976 H 0.29633 0.84212 0.40086 0.0
N977 N 0.24302 0.80367 0.31167 0.0
C978 C 0.24799 0.81833 0.33192 0.0
C979 C 0.21002 0.81863 0.30039 0.0
C980 C 0.2344 0.8343 0.33691 0.0
C981 C 0.22414 0.80326 0.29612 0.0
C982 C 0.21527 0.83435 0.32079 0.0
N983 N 0.27966 0.80188 0.34203 0.0
C984 C 0.29715 0.7993 0.35802 0.0
C985 C 0.27269 0.83266 0.36864 0.0
C986 C 0.26698 0.81756 0.34746 0.0
C987 C 0.29139 0.83086 0.38441 0.0
C988 C 0.30346 0.81389 0.37922 0.0
H989 H 0.20438 0.84635 0.32399 0.0
H990 H 0.23022 0.8622 0.36178 0.0
H991 H 0.26371 0.86072 0.38961 0.0
O992 O 0.26369 0.75093 0.32439 0.0
O993 O 0.27806 0.81611 0.29857 0.0
O994 O 0.31202 0.81116 0.28867 0.0
O995 O 0.23579 0.75488 0.29934 0.0
O996 O 0.30455 0.77256 0.31548 0.0
O997 O 0.33148 0.78849 0.29145 0.0
O998 O 0.31755 0.82169 0.2343 0.0
O999 O 0.29912 0.75482 0.24727 0.0
O1000 O 0.28814 0.77075 0.27721 0.0
O1001 O 0.34864 0.8141 0.25096 0.0
O1002 O 0.27917 0.8 0.24628 0.0
O1003 O 0.25277 0.777 0.2658 0.0
C1004 C 0.29756 0.82448 0.29154 0.0
C1005 C 0.22707 0.74015 0.33466 0.0
C1006 C 0.22231 0.72626 0.37224 0.0
C1007 C 0.20356 0.73674 0.37393 0.0
C1008 C 0.20844 0.75073 0.33655 0.0
C1009 C 0.19655 0.7487 0.356 0.0
C1010 C 0.23333 0.72736 0.35211 0.0
C1011 C 0.32592 0.77891 0.31056 0.0
C1012 C 0.24205 0.74405 0.31641 0.0
C1013 C 0.24035 0.84969 0.35771 0.0
C1014 C 0.25945 0.84887 0.37353 0.0
C1015 C 0.2871 0.75187 0.26405 0.0
C1016 C 0.35062 0.82958 0.21508 0.0
C1017 C 0.3506 0.84482 0.17762 0.0
C1018 C 0.37196 0.83917 0.17538 0.0
C1019 C 0.37182 0.82385 0.21242 0.0
C1020 C 0.34002 0.83971 0.19749 0.0
C1021 C 0.38232 0.82855 0.19258 0.0
C1022 C 0.25785 0.78998 0.24901 0.0
C1023 C 0.33986 0.82613 0.2365 0.0
H1024 H 0.19476 0.73628 0.38933 0.0
H1025 H 0.2034 0.76093 0.32337 0.0
H1026 H 0.1823 0.757 0.35753 0.0
H1027 H 0.24754 0.71898 0.35038 0.0
H1028 H 0.3809 0.84328 0.16058 0.0
H1029 H 0.38041 0.81596 0.22572 0.0
H1030 H 0.32344 0.84362 0.19937 0.0
H1031 H 0.39874 0.82427 0.1907 0.0
Eu1032 Eu 0.50421 0.03711 0.54634 0.0
C1033 C 0.58904 0.08749 0.50584 0.0
N1034 N 0.57511 0.06689 0.49731 0.0
C1035 C 0.57063 0.07867 0.45893 0.0
C1036 C 0.59327 0.10487 0.49135 0.0
C1037 C 0.56715 0.06187 0.47384 0.0
C1038 C 0.58334 0.10039 0.46782 0.0
C1039 C 0.61553 0.11167 0.53771 0.0
C1040 C 0.60014 0.09094 0.52881 0.0
C1041 C 0.61889 0.12928 0.52362 0.0
C1042 C 0.60776 0.12591 0.50053 0.0
Eu1043 Eu 0.56859 0.04119 0.52555 0.0
N1044 N 0.59601 0.07397 0.54247 0.0
C1045 C 0.62723 0.11401 0.56048 0.0
C1046 C 0.60811 0.0757 0.56424 0.0
C1047 C 0.62374 0.09582 0.57367 0.0
H1048 H 0.55827 0.04491 0.46625 0.0
H1049 H 0.63298 0.09732 0.59112 0.0
H1050 H 0.51815 0.0196 0.59958 0.0
H1051 H 0.4402 0.99519 0.4725 0.0
H1052 H 0.60549 0.06165 0.57438 0.0
H1053 H 0.6392 0.12967 0.56792 0.0
H1054 H 0.47044 0.02646 0.49456 0.0
H1055 H 0.56373 0.07475 0.4405 0.0
H1056 H 0.63038 0.14545 0.53028 0.0
H1057 H 0.61093 0.13951 0.48971 0.0
H1058 H 0.50656 0.9863 0.61961 0.0
H1059 H 0.58613 0.11331 0.45616 0.0
H1060 H 0.42627 0.96088 0.49096 0.0
N1061 N 0.4954 1.00612 0.56801 0.0
C1062 C 0.47762 0.98906 0.55742 0.0
C1063 C 0.49849 0.98675 0.60202 0.0
C1064 C 0.4703 0.96973 0.56859 0.0
C1065 C 0.50531 1.00554 0.59032 0.0
C1066 C 0.48107 0.96869 0.59106 0.0
N1067 N 0.4749 0.00896 0.52405 0.0
C1068 C 0.46512 0.0111 0.50224 0.0
C1069 C 0.44937 0.97266 0.52333 0.0
C1070 C 0.46707 0.99056 0.53497 0.0
C1071 C 0.43977 0.97437 0.50054 0.0
C1072 C 0.44766 0.99368 0.49 0.0
H1073 H 0.47589 0.95414 0.60021 0.0
H1074 H 0.44681 0.93701 0.56534 0.0
H1075 H 0.42866 0.93949 0.52575 0.0
O1076 O 0.47231 0.04973 0.53991 0.0
O1077 O 0.51208 1.00209 0.5306 0.0
O1078 O 0.54684 1.00521 0.51527 0.0
O1079 O 0.48985 0.05219 0.57571 0.0
O1080 O 0.51508 0.05205 0.51431 0.0
O1081 O 0.53843 0.03206 0.49662 0.0
O1082 O 0.59533 0.02538 0.54175 0.0
O1083 O 0.56202 0.07358 0.54823 0.0
O1084 O 0.52347 0.07211 0.53871 0.0
O1085 O 0.59149 0.02718 0.50432 0.0
O1086 O 0.55294 0.02588 0.55514 0.0
O1087 O 0.53351 0.04691 0.57579 0.0
C1088 C 0.52738 0.99294 0.51984 0.0
C1089 C 0.45492 0.06686 0.57202 0.0
C1090 C 0.42394 0.08772 0.56829 0.0
C1091 C 0.42137 0.08604 0.59198 0.0
C1092 C 0.452 0.06565 0.5957 0.0
C1093 C 0.43535 0.07516 0.60556 0.0
C1094 C 0.44088 0.07814 0.55828 0.0
C1095 C 0.51988 0.04039 0.49588 0.0
C1096 C 0.47265 0.05624 0.56222 0.0
C1097 C 0.45256 0.952 0.55703 0.0
C1098 C 0.44217 0.95344 0.53448 0.0
C1099 C 0.54436 0.08387 0.54708 0.0
C1100 C 0.62729 0.02155 0.52143 0.0
C1101 C 0.6602 1.00326 0.52598 0.0
C1102 C 0.67281 0.02093 0.51557 0.0
C1103 C 0.64046 0.03914 0.51165 0.0
C1104 C 0.63722 1.00368 0.52869 0.0
C1105 C 0.66306 0.03872 0.50867 0.0
C1106 C 0.55163 0.03834 0.57446 0.0
C1107 C 0.60263 0.02027 0.52183 0.0
H1108 H 0.40856 0.09332 0.60007 0.0
H1109 H 0.4625 0.05712 0.60663 0.0
H1110 H 0.43322 0.07404 0.62382 0.0
H1111 H 0.44296 0.07928 0.53999 0.0
H1112 H 0.6902 0.02087 0.51236 0.0
H1113 H 0.63309 0.05287 0.50577 0.0
H1114 H 0.62698 0.99009 0.53621 0.0
H1115 H 0.673 0.05208 0.50064 0.0
Eu1116 Eu 0.31986 0.27612 0.78588 0.0
C1117 C 0.23868 0.32289 0.73959 0.0
N1118 N 0.25185 0.32725 0.76086 0.0
C1119 C 0.25754 0.36739 0.75895 0.0
C1120 C 0.23488 0.34071 0.7268 0.0
C1121 C 0.26043 0.34914 0.77114 0.0
C1122 C 0.24497 0.36315 0.73653 0.0
C1123 C 0.21203 0.29558 0.71053 0.0
C1124 C 0.22757 0.30064 0.73142 0.0
C1125 C 0.20903 0.31311 0.69712 0.0
C1126 C 0.2205 0.33562 0.7052 0.0
Eu1127 Eu 0.25763 0.2951 0.77887 0.0
N1128 N 0.23081 0.28414 0.74477 0.0
C1129 C 0.19935 0.27323 0.70427 0.0
C1130 C 0.21761 0.26265 0.73959 0.0
C1131 C 0.20185 0.25678 0.71912 0.0
H1132 H 0.26958 0.35258 0.78876 0.0
H1133 H 0.19174 0.23961 0.71475 0.0
H1134 H 0.31244 0.2272 0.80952 0.0
H1135 H 0.3726 0.35966 0.82289 0.0
H1136 H 0.21953 0.25004 0.75116 0.0
H1137 H 0.18717 0.26865 0.68839 0.0
H1138 H 0.35283 0.32929 0.79114 0.0
H1139 H 0.2648 0.38471 0.76695 0.0
H1140 H 0.19739 0.30953 0.68085 0.0
H1141 H 0.21753 0.34907 0.69501 0.0
H1142 H 0.31881 0.21452 0.84852 0.0
H1143 H 0.24253 0.37734 0.72724 0.0
H1144 H 0.37663 0.35135 0.86401 0.0
N1145 N 0.3274 0.26195 0.8218 0.0
C1146 C 0.33902 0.27737 0.84013 0.0
C1147 C 0.32445 0.23227 0.84644 0.0
C1148 C 0.34308 0.27089 0.8627 0.0
C1149 C 0.32071 0.23953 0.82441 0.0
C1150 C 0.33546 0.24805 0.86573 0.0
N1151 N 0.34225 0.30553 0.8143 0.0
C1152 C 0.35285 0.32615 0.80912 0.0
C1153 C 0.35859 0.3162 0.85497 0.0
C1154 C 0.34642 0.29983 0.83632 0.0
C1155 C 0.36723 0.33826 0.85018 0.0
C1156 C 0.36484 0.34308 0.82702 0.0
H1157 H 0.33821 0.2424 0.88281 0.0
H1158 H 0.35752 0.28274 0.89899 0.0
H1159 H 0.3714 0.32233 0.89216 0.0
O1160 O 0.35378 0.28427 0.77387 0.0
O1161 O 0.29825 0.28042 0.81633 0.0
O1162 O 0.28466 0.31179 0.80931 0.0
O1163 O 0.33934 0.24983 0.77853 0.0
O1164 O 0.31607 0.30597 0.76555 0.0
O1165 O 0.29081 0.32198 0.78503 0.0
O1166 O 0.24024 0.28078 0.80723 0.0
O1167 O 0.26544 0.27744 0.74418 0.0
O1168 O 0.30115 0.26744 0.74877 0.0
O1169 O 0.22757 0.30643 0.78976 0.0
O1170 O 0.25679 0.25787 0.78148 0.0
O1171 O 0.29088 0.24471 0.78001 0.0
C1172 C 0.29286 0.29968 0.82428 0.0
C1173 C 0.36249 0.25485 0.74755 0.0
C1174 C 0.39027 0.25528 0.71897 0.0
C1175 C 0.37516 0.23666 0.70516 0.0
C1176 C 0.34788 0.23634 0.73302 0.0
C1177 C 0.35421 0.22737 0.71211 0.0
C1178 C 0.38374 0.26455 0.74023 0.0
C1179 C 0.30759 0.32374 0.77204 0.0
C1180 C 0.35578 0.26317 0.77056 0.0
C1181 C 0.35445 0.28735 0.88147 0.0
C1182 C 0.36223 0.30993 0.8776 0.0
C1183 C 0.28209 0.26882 0.73588 0.0
C1184 C 0.22089 0.30472 0.82926 0.0
C1185 C 0.19591 0.30829 0.85988 0.0
C1186 C 0.21154 0.32815 0.87058 0.0
C1187 C 0.23622 0.32446 0.8405 0.0
C1188 C 0.2008 0.29644 0.83918 0.0
C1189 C 0.23156 0.33605 0.86102 0.0
C1190 C 0.2686 0.24171 0.78094 0.0
C1191 C 0.22521 0.29364 0.80652 0.0
H1192 H 0.37956 0.22929 0.68876 0.0
H1193 H 0.33146 0.22863 0.73784 0.0
H1194 H 0.34278 0.21307 0.70118 0.0
H1195 H 0.39529 0.27874 0.75123 0.0
H1196 H 0.20822 0.33761 0.8864 0.0
H1197 H 0.2516 0.33117 0.83312 0.0
H1198 H 0.18872 0.28135 0.83044 0.0
H1199 H 0.24339 0.35143 0.86938 0.0
Eu1200 Eu 0.04997 1.00307 0.53535 0.0
C1201 C 0.01688 0.08261 0.58555 0.0
N1202 N 1.00686 0.06845 0.56559 0.0
C1203 C 0.97096 0.06214 0.58106 0.0
C1204 C 1.00441 0.08628 0.60444 0.0
C1205 C 0.98387 0.05939 0.56263 0.0
C1206 C 0.98136 0.07529 0.60222 0.0
C1207 C 0.04956 0.11083 0.60617 0.0
C1208 C 0.03928 0.0947 0.58656 0.0
C1209 C 0.03751 0.11372 0.62539 0.0
C1210 C 0.01503 0.10141 0.62457 0.0
Eu1211 Eu 0.03122 0.06431 0.53636 0.0
N1212 N 0.05087 0.09112 0.56806 0.0
C1213 C 0.07155 0.1238 0.60568 0.0
C1214 C 0.07174 0.10447 0.56685 0.0
C1215 C 0.08258 0.12079 0.58581 0.0
H1216 H 0.97511 0.05036 0.54597 0.0
H1217 H 0.09936 0.13105 0.58506 0.0
H1218 H 0.0982 0.01632 0.51054 0.0
H1219 H 0.9737 0.93564 0.50668 0.0
H1220 H 0.07996 0.10232 0.55126 0.0
H1221 H 0.08001 0.1364 0.62038 0.0
H1222 H 0.99949 0.96633 0.53416 0.0
H1223 H 0.95287 0.05445 0.57876 0.0
H1224 H 0.04525 0.12577 0.64077 0.0
H1225 H 1.00575 0.10423 0.63932 0.0
H1226 H 0.11325 1.00466 0.47417 0.0
H1227 H 0.97122 0.07764 0.61635 0.0
H1228 H 0.98543 0.92287 0.46859 0.0
N1229 N 0.06605 0.99321 0.50123 0.0
C1230 C 0.05321 0.97557 0.48575 0.0
C1231 C 0.09626 0.99648 0.47712 0.0
C1232 C 0.06126 0.96819 0.46484 0.0
C1233 C 0.08757 1.00324 0.49761 0.0
C1234 C 0.083 0.97899 0.46058 0.0
N1235 N 0.02422 0.97293 0.5108 0.0
C1236 C 1.00411 0.96196 0.51704 0.0
C1237 C 0.01789 0.94713 0.47472 0.0
C1238 C 0.03167 0.96528 0.49061 0.0
C1239 C 0.99654 0.93681 0.48035 0.0
C1240 C 0.98976 0.94408 0.50175 0.0
H1241 H 0.08979 0.97381 0.44471 0.0
H1242 H 0.05329 0.94449 0.43267 0.0
H1243 H 0.01541 0.92601 0.44136 0.0
O1244 O 0.04741 0.97001 0.54922 0.0
O1245 O 0.04096 0.01564 0.49933 0.0
O1246 O 0.01457 0.03814 0.50509 0.0
O1247 O 0.08024 0.99425 0.55366 0.0
O1248 O 0.01741 1.00672 0.55072 0.0
O1249 O 1.00223 0.03222 0.53011 0.0
O1250 O 0.04202 0.08865 0.51178 0.0
O1251 O 0.0558 0.05833 0.56765 0.0
O1252 O 0.04142 0.0209 0.56874 0.0
O1253 O 0.01275 0.09107 0.52944 0.0
O1254 O 0.06246 0.05863 0.51972 0.0
O1255 O 0.0794 0.03466 0.54081 0.0
C1256 C 0.02496 0.02615 0.49107 0.0
C1257 C 0.08024 0.95846 0.57005 0.0
C1258 C 0.08016 0.92729 0.59461 0.0
C1259 C 0.10333 0.92844 0.59177 0.0
C1260 C 0.10346 0.95929 0.56837 0.0
C1261 C 0.11479 0.94429 0.57896 0.0
C1262 C 0.06845 0.94224 0.58314 0.0
C1263 C 0.99979 0.0138 0.54092 0.0
C1264 C 0.06897 0.97449 0.55761 0.0
C1265 C 0.04742 0.95034 0.44887 0.0
C1266 C 0.02583 0.93982 0.45382 0.0
C1267 C 0.05341 0.04055 0.57926 0.0
C1268 C 0.01358 0.10567 0.49291 0.0
C1269 C 0.01005 0.13328 0.46511 0.0
C1270 C 0.98869 0.11973 0.45518 0.0
C1271 C 0.99226 0.09245 0.48248 0.0
C1272 C 0.02262 0.12601 0.48393 0.0
C1273 C 0.97997 0.09944 0.46371 0.0
C1274 C 0.08069 0.05307 0.53007 0.0
C1275 C 0.0255 0.09936 0.51426 0.0
H1276 H 0.11276 0.91687 0.59938 0.0
H1277 H 0.11284 0.97135 0.55843 0.0
H1278 H 0.13263 0.9449 0.57716 0.0
H1279 H 0.05059 0.94165 0.58481 0.0
H1280 H 0.97872 0.12486 0.4407 0.0
H1281 H 0.98499 0.07681 0.48902 0.0
H1282 H 0.03892 0.13651 0.49207 0.0
H1283 H 0.96352 0.08915 0.45582 0.0
Eu1284 Eu 0.29063 0.81844 0.77471 0.0
C1285 C 0.24032 0.72738 0.81236 0.0
N1286 N 0.26081 0.74144 0.82156 0.0
C1287 C 0.24967 0.74132 0.86034 0.0
C1288 C 0.2234 0.72071 0.82692 0.0
C1289 C 0.26609 0.74718 0.84543 0.0
C1290 C 0.2281 0.7284 0.85102 0.0
C1291 C 0.21603 0.70282 0.77908 0.0
C1292 C 0.23651 0.71847 0.78852 0.0
C1293 C 0.19897 0.69699 0.79344 0.0
C1294 C 0.2026 0.70597 0.81723 0.0
Eu1295 Eu 0.28614 0.7504 0.79333 0.0
N1296 N 0.25284 0.725 0.77452 0.0
C1297 C 0.21344 0.69318 0.7555 0.0
C1298 C 0.25095 0.71484 0.75193 0.0
C1299 C 0.23112 0.69898 0.74198 0.0
H1300 H 0.28305 0.75585 0.85346 0.0
H1301 H 0.22951 0.6912 0.72393 0.0
H1302 H 0.28083 0.81611 0.71496 0.0
H1303 H 0.35675 0.87634 0.83689 0.0
H1304 H 0.26484 0.71877 0.74176 0.0
H1305 H 0.19802 0.681 0.74769 0.0
H1306 H 0.32052 0.84801 0.82444 0.0
H1307 H 0.25384 0.7464 0.87912 0.0
H1308 H 0.18302 0.68522 0.7864 0.0
H1309 H 0.18941 0.70089 0.82818 0.0
H1310 H 0.30232 0.82896 0.68319 0.0
H1311 H 0.21553 0.72367 0.86272 0.0
H1312 H 0.38121 0.88959 0.80713 0.0
N1313 N 0.30842 0.83044 0.74225 0.0
C1314 C 0.3293 0.84481 0.74796 0.0
C1315 C 0.31022 0.83327 0.7013 0.0
C1316 C 0.34177 0.85332 0.73026 0.0
C1317 C 0.29827 0.82566 0.7194 0.0
C1318 C 0.33221 0.84685 0.70672 0.0
N1319 N 0.32524 0.84443 0.78845 0.0
C1320 C 0.33136 0.85341 0.81153 0.0
C1321 C 0.35837 0.86867 0.77785 0.0
C1322 C 0.3377 0.8523 0.77159 0.0
C1323 C 0.36543 0.87704 0.80165 0.0
C1324 C 0.35173 0.86956 0.81853 0.0
H1325 H 0.3413 0.85298 0.69265 0.0
H1326 H 0.37279 0.87518 0.72315 0.0
H1327 H 0.38723 0.88869 0.76475 0.0
O1328 O 0.27888 0.84297 0.7986 0.0
O1329 O 0.32557 0.80962 0.78993 0.0
O1330 O 0.3229 0.7735 0.80317 0.0
O1331 O 0.27171 0.84265 0.76108 0.0
O1332 O 0.27909 0.79561 0.8007 0.0
O1333 O 0.29607 0.777 0.82504 0.0
O1334 O 0.30355 0.72587 0.77564 0.0
O1335 O 0.25174 0.7592 0.77529 0.0
O1336 O 0.25415 0.79665 0.7661 0.0
O1337 O 0.29419 0.72191 0.81015 0.0
O1338 O 0.30037 0.76951 0.76511 0.0
O1339 O 0.28234 0.7908 0.74368 0.0
C1340 C 0.33502 0.79383 0.79974 0.0
C1341 C 0.27371 0.87743 0.78478 0.0
C1342 C 0.25862 0.9122 0.789 0.0
C1343 C 0.28093 0.92502 0.7891 0.0
C1344 C 0.2957 0.89061 0.7849 0.0
C1345 C 0.29926 0.91427 0.78713 0.0
C1346 C 0.25517 0.88824 0.78676 0.0
C1347 C 0.29002 0.79584 0.82136 0.0
C1348 C 0.26972 0.85241 0.78178 0.0
C1349 C 0.36294 0.86865 0.73654 0.0
C1350 C 0.37116 0.87639 0.76024 0.0
C1351 C 0.24224 0.77588 0.76744 0.0
C1352 C 0.32803 0.71058 0.80195 0.0
C1353 C 0.35789 0.68843 0.79964 0.0
C1354 C 0.37062 0.70241 0.81959 0.0
C1355 C 0.34103 0.72398 0.82212 0.0
C1356 C 0.3364 0.69249 0.79086 0.0
C1357 C 0.36209 0.71984 0.83086 0.0
C1358 C 0.28839 0.77143 0.74557 0.0
C1359 C 0.30524 0.71476 0.7937 0.0
H1360 H 0.28419 0.94341 0.79033 0.0
H1361 H 0.31006 0.88268 0.78302 0.0
H1362 H 0.31628 0.92434 0.7871 0.0
H1363 H 0.23816 0.87802 0.78667 0.0
H1364 H 0.38695 0.69938 0.8269 0.0
H1365 H 0.33468 0.73748 0.83141 0.0
H1366 H 0.32627 0.68162 0.77566 0.0
H1367 H 0.3717 0.72996 0.84668 0.0
Eu1368 Eu 0.54179 0.06166 0.00955 0.0
C1369 C 0.56862 0.99543 0.09169 0.0
N1370 N 0.55372 0.98944 0.07155 0.0
C1371 C 0.56641 0.95453 0.06403 0.0
C1372 C 0.58344 0.98124 0.09858 0.0
C1373 C 0.55218 0.96924 0.05783 0.0
C1374 C 0.58218 0.96058 0.08445 0.0
C1375 C 0.58504 0.023 0.12593 0.0
C1376 C 0.56933 0.01606 0.10519 0.0
C1377 C 0.59992 0.00897 0.13279 0.0
C1378 C 0.59909 0.98813 0.11918 0.0
Eu1379 Eu 0.53042 0.01508 0.06206 0.0
N1380 N 0.55485 0.0294 0.09794 0.0
C1381 C 0.58532 0.04384 0.13919 0.0
C1382 C 0.5545 0.0493 0.11139 0.0
C1383 C 0.56987 0.05695 0.13196 0.0
H1384 H 0.53986 0.9643 0.04217 0.0
H1385 H 0.56963 0.07289 0.14235 0.0
H1386 H 0.53499 0.11192 0.03779 0.0
H1387 H 0.50672 0.02062 0.92078 0.0
H1388 H 0.54226 0.0593 0.10679 0.0
H1389 H 0.59717 0.04981 0.15517 0.0
H1390 H 0.53142 0.02647 0.9589 0.0
H1391 H 0.5652 0.93853 0.05308 0.0
H1392 H 0.61211 0.01406 0.14864 0.0
H1393 H 0.61066 0.97747 0.12473 0.0
H1394 H 0.5103 0.13927 0.03271 0.0
H1395 H 0.59325 0.94919 0.08916 0.0
H1396 H 0.48056 0.04656 0.9128 0.0
N1397 N 0.5199 0.09011 0.00612 0.0
C1398 C 0.50556 0.08782 0.98566 0.0
C1399 C 0.50857 0.12472 0.01947 0.0
C1400 C 0.49161 0.10363 0.9817 0.0
C1401 C 0.52225 0.10878 0.02251 0.0
C1402 C 0.49299 0.122 0.99911 0.0
N1403 N 0.51873 0.05489 0.97265 0.0
C1404 C 0.51988 0.03772 0.95571 0.0
C1405 C 0.49089 0.06728 0.94672 0.0
C1406 C 0.50523 0.06995 0.96827 0.0
C1407 C 0.49132 0.04918 0.92959 0.0
C1408 C 0.50602 0.03445 0.93404 0.0
H1409 H 0.48254 0.13448 0.99674 0.0
H1410 H 0.46611 0.11275 0.95712 0.0
H1411 H 0.46545 0.08091 0.92655 0.0
O1412 O 0.57097 0.0612 0.99037 0.0
O1413 O 0.50532 0.04202 1.00143 0.0
O1414 O 0.51888 0.0327 0.03362 0.0
O1415 O 0.56423 0.09338 0.00453 0.0
O1416 O 0.54674 0.02445 0.99994 0.0
O1417 O 0.53106 0.99764 0.02444 0.0
O1418 O 0.50441 0.01075 0.08531 0.0
O1419 O 0.5676 0.02531 0.05742 0.0
O1420 O 0.55874 0.05597 0.04434 0.0
O1421 O 0.50526 0.9828 0.05875 0.0
O1422 O 0.51981 0.05019 0.06946 0.0
O1423 O 0.54068 0.07668 0.0483 0.0
C1424 C 0.50121 0.0297 0.01781 0.0
C1425 C 0.57546 0.09036 0.96664 0.0
C1426 C 0.58811 0.08628 0.92815 0.0
C1427 C 0.57248 0.099 0.91978 0.0
C1428 C 0.55992 0.10314 0.95809 0.0
C1429 C 0.55853 0.10745 0.93476 0.0
C1430 C 0.58959 0.08217 0.95164 0.0
C1431 C 0.54033 1.00321 0.00522 0.0
C1432 C 0.5753 0.08314 0.99011 0.0
C1433 C 0.47701 0.10084 0.96039 0.0
C1434 C 0.47667 0.08273 0.94295 0.0
C1435 C 0.57355 0.04314 0.04693 0.0
C1436 C 0.49119 0.97423 0.09471 0.0
C1437 C 0.47372 0.96794 0.13027 0.0
C1438 C 0.48346 0.94874 0.13197 0.0
C1439 C 0.501 0.95519 0.09662 0.0
C1440 C 0.47716 0.98006 0.11114 0.0
C1441 C 0.49686 0.94234 0.11509 0.0
C1442 C 0.52732 0.0715 0.0649 0.0
C1443 C 0.49602 0.98949 0.07695 0.0
H1444 H 0.57123 0.10259 0.90174 0.0
H1445 H 0.54856 0.10945 0.96922 0.0
H1446 H 0.54647 0.11718 0.92823 0.0
H1447 H 0.60119 0.07186 0.95805 0.0
H1448 H 0.48128 0.93907 0.14663 0.0
H1449 H 0.51199 0.95045 0.08414 0.0
H1450 H 0.46937 0.99461 0.10927 0.0
H1451 H 0.5045 0.9277 0.11665 0.0
Eu1452 Eu 0.2717 0.25945 0.26444 0.0
C1453 C 0.35337 0.3246 0.32164 0.0
N1454 N 0.33192 0.31676 0.32697 0.0
C1455 C 0.34799 0.30941 0.36462 0.0
C1456 C 0.37297 0.32405 0.33722 0.0
C1457 C 0.32911 0.31063 0.34878 0.0
C1458 C 0.37001 0.31571 0.35863 0.0
C1459 C 0.37767 0.34399 0.29571 0.0
C1460 C 0.3558 0.33455 0.3012 0.0
C1461 C 0.39719 0.34252 0.31066 0.0
C1462 C 0.39485 0.33255 0.33134 0.0
Eu1463 Eu 0.30127 0.31836 0.29781 0.0
N1464 N 0.33665 0.33517 0.28671 0.0
C1465 C 0.37922 0.35487 0.2755 0.0
C1466 C 0.33793 0.34664 0.2676 0.0
C1467 C 0.35924 0.35644 0.26153 0.0
H1468 H 0.31246 0.30724 0.35451 0.0
H1469 H 0.36024 0.36514 0.2461 0.0
H1470 H 0.25194 0.27826 0.21486 0.0
H1471 H 0.22473 0.20747 0.32307 0.0
H1472 H 0.32247 0.34801 0.25696 0.0
H1473 H 0.39571 0.36236 0.2707 0.0
H1474 H 0.25889 0.22653 0.30758 0.0
H1475 H 0.34555 0.30404 0.38164 0.0
H1476 H 0.41416 0.34943 0.30661 0.0
H1477 H 0.41007 0.33203 0.34299 0.0
H1478 H 0.21505 0.27732 0.19147 0.0
H1479 H 0.38462 0.31501 0.37107 0.0
H1480 H 0.18624 0.20691 0.30276 0.0
N1481 N 0.23717 0.26043 0.24123 0.0
C1482 C 0.21771 0.24849 0.24782 0.0
C1483 C 0.21553 0.26937 0.20742 0.0
C1484 C 0.19619 0.24733 0.23475 0.0
C1485 C 0.23645 0.27021 0.22098 0.0
C1486 C 0.19529 0.25804 0.21441 0.0
N1487 N 0.24025 0.23927 0.28043 0.0
C1488 C 0.24234 0.22771 0.29935 0.0
C1489 C 0.19918 0.22651 0.27594 0.0
C1490 C 0.21925 0.23811 0.26823 0.0
C1491 C 0.20124 0.21591 0.29624 0.0
C1492 C 0.22293 0.2163 0.30783 0.0
H1493 H 0.17909 0.25752 0.20391 0.0
H1494 H 0.15959 0.23496 0.23278 0.0
H1495 H 0.16218 0.21685 0.26885 0.0
O1496 O 0.26887 0.2226 0.25789 0.0
O1497 O 0.24717 0.28405 0.27451 0.0
O1498 O 0.26539 0.30596 0.3085 0.0
O1499 O 0.27389 0.24298 0.22962 0.0
O1500 O 0.28839 0.25774 0.30162 0.0
O1501 O 0.28599 0.29218 0.32087 0.0
O1502 O 0.28979 0.34924 0.29066 0.0
O1503 O 0.32397 0.3008 0.27445 0.0
O1504 O 0.3107 0.26289 0.27513 0.0
O1505 O 0.30911 0.34838 0.32426 0.0
O1506 O 0.28318 0.31777 0.26062 0.0
O1507 O 0.2888 0.28469 0.24171 0.0
C1508 C 0.24614 0.29658 0.29462 0.0
C1509 C 0.2934 0.21287 0.23057 0.0
C1510 C 0.32003 0.18825 0.23883 0.0
C1511 C 0.33055 0.19404 0.21912 0.0
C1512 C 0.30415 0.21843 0.21082 0.0
C1513 C 0.3227 0.20917 0.20529 0.0
C1514 C 0.30157 0.19778 0.2446 0.0
C1515 C 0.28694 0.27061 0.32106 0.0
C1516 C 0.27414 0.22325 0.23661 0.0
C1517 C 0.17626 0.23587 0.24251 0.0
C1518 C 0.17774 0.22561 0.2631 0.0
C1519 C 0.32731 0.27973 0.27181 0.0
C1520 C 0.27846 0.36763 0.32382 0.0
C1521 C 0.24723 0.38788 0.32171 0.0
C1522 C 0.24211 0.38164 0.34362 0.0
C1523 C 0.27314 0.36151 0.34572 0.0
C1524 C 0.26556 0.38093 0.31206 0.0
C1525 C 0.25514 0.36865 0.35559 0.0
C1526 C 0.28749 0.3061 0.24169 0.0
C1527 C 0.2963 0.35923 0.31214 0.0
H1528 H 0.34485 0.18685 0.21448 0.0
H1529 H 0.29829 0.23002 0.19968 0.0
H1530 H 0.33093 0.21365 0.19016 0.0
H1531 H 0.29342 0.19311 0.25976 0.0
H1532 H 0.22808 0.3868 0.35148 0.0
H1533 H 0.28265 0.35101 0.35511 0.0
H1534 H 0.26999 0.38601 0.29538 0.0
H1535 H 0.25116 0.36396 0.37249 0.0
Eu1536 Eu 0.54995 0.5058 0.03528 0.0
C1537 C 0.51163 0.58432 0.0846 0.0
N1538 N 0.50316 0.57085 0.06387 0.0
C1539 C 0.46552 0.56438 0.07554 0.0
C1540 C 0.49741 0.58765 0.10201 0.0
C1541 C 0.48018 0.562 0.05865 0.0
C1542 C 0.47424 0.57693 0.09748 0.0
C1543 C 0.54304 0.61192 0.10807 0.0
C1544 C 0.53419 0.5962 0.08776 0.0
C1545 C 0.52927 0.61442 0.12592 0.0
C1546 C 0.50653 0.60223 0.12294 0.0
Eu1547 Eu 0.53012 0.56661 0.0374 0.0
N1548 N 0.54726 0.59313 0.07043 0.0
C1549 C 0.56527 0.62505 0.10953 0.0
C1550 C 0.56838 0.60677 0.07103 0.0
C1551 C 0.57789 0.62267 0.09076 0.0
H1552 H 0.47289 0.55328 0.04138 0.0
H1553 H 0.59487 0.63309 0.09146 0.0
H1554 H 0.60066 0.51872 0.01512 0.0
H1555 H 0.47237 0.44331 0.99671 0.0
H1556 H 0.57787 0.60507 0.05632 0.0
H1557 H 0.57267 0.63735 0.12482 0.0
H1558 H 0.49841 0.4693 0.02847 0.0
H1559 H 0.44743 0.55686 0.07147 0.0
H1560 H 0.53586 0.62615 0.14183 0.0
H1561 H 0.49591 0.6048 0.13659 0.0
H1562 H 0.61728 0.51084 0.97864 0.0
H1563 H 0.46277 0.57901 0.1104 0.0
H1564 H 0.48518 0.43559 0.95789 0.0
N1565 N 0.56794 0.49799 1.0019 0.0
C1566 C 0.55506 0.48279 0.98401 0.0
C1567 C 0.59971 0.50296 0.97987 0.0
C1568 C 0.56384 0.47783 0.96283 0.0
C1569 C 0.59019 0.50755 1.00044 0.0
C1570 C 0.58643 0.48821 0.96089 0.0
N1571 N 0.52462 0.47824 0.00723 0.0
C1572 C 0.50369 0.46704 0.01132 0.0
C1573 C 0.51865 0.45765 0.96813 0.0
C1574 C 0.53266 0.47292 0.98663 0.0
C1575 C 0.49649 0.4474 0.97166 0.0
C1576 C 0.48914 0.45182 0.9935 0.0
H1577 H 0.5938 0.48487 0.9449 0.0
H1578 H 0.55612 0.45917 0.92772 0.0
H1579 H 0.51661 0.44146 0.93238 0.0
O1580 O 0.54649 0.47172 0.04667 0.0
O1581 O 0.54265 0.52121 1.00066 0.0
O1582 O 0.51348 0.5397 0.00661 0.0
O1583 O 0.57934 0.496 0.05444 0.0
O1584 O 0.51683 0.50774 0.0504 0.0
O1585 O 0.5017 0.53406 0.03096 0.0
O1586 O 0.54421 0.59171 0.01519 0.0
O1587 O 0.55369 0.56062 0.06949 0.0
O1588 O 0.54087 0.52261 0.06898 0.0
O1589 O 0.51133 0.59213 0.02621 0.0
O1590 O 0.56214 0.5616 0.02191 0.0
O1591 O 0.57915 0.53753 0.04265 0.0
C1592 C 0.5243 0.52838 0.99245 0.0
C1593 C 0.57759 0.45903 0.06908 0.0
C1594 C 0.57472 0.42709 0.09263 0.0
C1595 C 0.5986 0.42981 0.09464 0.0
C1596 C 0.60141 0.46114 0.0715 0.0
C1597 C 0.61176 0.44657 0.08404 0.0
C1598 C 0.56411 0.44165 0.07951 0.0
C1599 C 0.49925 0.5156 0.0417 0.0
C1600 C 0.56752 0.47596 0.05684 0.0
C1601 C 0.54975 0.463 0.94422 0.0
C1602 C 0.52722 0.45297 0.94685 0.0
C1603 C 0.5522 0.54226 0.08017 0.0
C1604 C 0.51831 0.60565 0.9899 0.0
C1605 C 0.5184 0.63104 0.95941 0.0
C1606 C 0.50424 0.61305 0.94386 0.0
C1607 C 0.50391 0.58813 0.97411 0.0
C1608 C 0.52537 0.62727 0.98258 0.0
C1609 C 0.49691 0.59185 0.95126 0.0
C1610 C 0.58034 0.55642 0.03278 0.0
C1611 C 0.5266 0.60117 0.01366 0.0
H1612 H 0.60712 0.41886 0.10448 0.0
H1613 H 0.61213 0.47419 0.06375 0.0
H1614 H 0.63016 0.44841 0.08575 0.0
H1615 H 0.54572 0.43991 0.07808 0.0
H1616 H 0.49861 0.61553 0.92602 0.0
H1617 H 0.49813 0.57159 0.9795 0.0
H1618 H 0.53648 0.64095 0.99469 0.0
H1619 H 0.48572 0.57822 0.93928 0.0
Eu1620 Eu 0.79215 0.31589 0.2692 0.0
C1621 C 0.7488 0.22771 0.31897 0.0
N1622 N 0.76926 0.24263 0.3254 0.0
C1623 C 0.76442 0.24235 0.3661 0.0
C1624 C 0.73507 0.22001 0.33607 0.0
C1625 C 0.77764 0.24919 0.34862 0.0
C1626 C 0.74292 0.22793 0.35981 0.0
C1627 C 0.7215 0.20263 0.28838 0.0
C1628 C 0.74193 0.21919 0.29531 0.0
C1629 C 0.70756 0.1955 0.30534 0.0
C1630 C 0.71426 0.20423 0.32908 0.0
Eu1631 Eu 0.78952 0.25309 0.29399 0.0
N1632 N 0.75533 0.22684 0.27905 0.0
C1633 C 0.71573 0.19369 0.26458 0.0
C1634 C 0.75043 0.21738 0.25605 0.0
C1635 C 0.73037 0.20095 0.24839 0.0
H1636 H 0.79467 0.25946 0.35386 0.0
H1637 H 0.72629 0.19381 0.23005 0.0
H1638 H 0.78533 0.31014 0.20957 0.0
H1639 H 0.85728 0.37452 0.332 0.0
H1640 H 0.76194 0.2227 0.24367 0.0
H1641 H 0.70016 0.18099 0.25858 0.0
H1642 H 0.82043 0.34714 0.31888 0.0
H1643 H 0.77097 0.24792 0.38445 0.0
H1644 H 0.69166 0.18303 0.30029 0.0
H1645 H 0.70346 0.19829 0.34198 0.0
H1646 H 0.80842 0.32114 0.17821 0.0
H1647 H 0.73284 0.22246 0.37343 0.0
H1648 H 0.88362 0.38554 0.30306 0.0
N1649 N 0.81161 0.32645 0.23737 0.0
C1650 C 0.83252 0.34066 0.24336 0.0
C1651 C 0.81549 0.32654 0.19646 0.0
C1652 C 0.84605 0.3478 0.22592 0.0
C1653 C 0.80257 0.32009 0.21431 0.0
C1654 C 0.83743 0.3402 0.20228 0.0
N1655 N 0.82663 0.34209 0.28343 0.0
C1656 C 0.83201 0.35177 0.30634 0.0
C1657 C 0.86113 0.36464 0.27353 0.0
C1658 C 0.84008 0.34897 0.26694 0.0
C1659 C 0.86754 0.37352 0.29729 0.0
C1660 C 0.85275 0.36731 0.31371 0.0
H1661 H 0.84732 0.34529 0.18839 0.0
H1662 H 0.87816 0.36818 0.21939 0.0
H1663 H 0.89133 0.3829 0.26103 0.0
O1664 O 0.77725 0.34035 0.28986 0.0
O1665 O 0.82746 0.30824 0.28465 0.0
O1666 O 0.82376 0.27851 0.30795 0.0
O1667 O 0.77569 0.3402 0.25228 0.0
O1668 O 0.77766 0.30009 0.29906 0.0
O1669 O 0.79746 0.28269 0.32308 0.0
O1670 O 0.8038 0.22755 0.27415 0.0
O1671 O 0.75395 0.26096 0.27822 0.0
O1672 O 0.75798 0.29116 0.25543 0.0
O1673 O 0.80409 0.22773 0.31144 0.0
O1674 O 0.80464 0.26777 0.26368 0.0
O1675 O 0.7846 0.28604 0.24042 0.0
C1676 C 0.83644 0.29583 0.2996 0.0
C1677 C 0.77517 0.37498 0.27493 0.0
C1678 C 0.76064 0.41002 0.28053 0.0
C1679 C 0.78282 0.4226 0.27944 0.0
C1680 C 0.79705 0.38793 0.27403 0.0
C1681 C 0.80083 0.41161 0.27634 0.0
C1682 C 0.75701 0.38603 0.27825 0.0
C1683 C 0.78953 0.3007 0.31931 0.0
C1684 C 0.77089 0.34995 0.27182 0.0
C1685 C 0.86746 0.36269 0.23254 0.0
C1686 C 0.87496 0.37111 0.25626 0.0
C1687 C 0.74509 0.2741 0.26382 0.0
C1688 C 0.83486 0.21624 0.29473 0.0
C1689 C 0.86365 0.19305 0.29172 0.0
C1690 C 0.88095 0.2126 0.29891 0.0
C1691 C 0.85252 0.23548 0.30173 0.0
C1692 C 0.84049 0.19482 0.2897 0.0
C1693 C 0.87536 0.2337 0.30392 0.0
C1694 C 0.7927 0.26793 0.24358 0.0
C1695 C 0.81081 0.21882 0.29255 0.0
H1696 H 0.78624 0.44099 0.28058 0.0
H1697 H 0.81115 0.37977 0.27127 0.0
H1698 H 0.81775 0.42151 0.27547 0.0
H1699 H 0.74015 0.37594 0.27914 0.0
H1700 H 0.8988 0.21149 0.30068 0.0
H1701 H 0.84858 0.25189 0.30544 0.0
H1702 H 0.82705 0.17975 0.28417 0.0
H1703 H 0.88876 0.24873 0.30944 0.0
Eu1704 Eu 0.04516 0.55468 0.51177 0.0
C1705 C 0.07069 0.48969 0.59586 0.0
N1706 N 0.05938 0.48511 0.57355 0.0
C1707 C 0.07732 0.45348 0.56572 0.0
C1708 C 0.08627 0.47656 0.60368 0.0
C1709 C 0.06203 0.46691 0.55872 0.0
C1710 C 0.08962 0.45842 0.58822 0.0
C1711 C 0.07836 0.51286 0.63411 0.0
C1712 C 0.0668 0.5077 0.61096 0.0
C1713 C 0.09399 0.4999 0.64182 0.0
C1714 C 0.09794 0.48182 0.62665 0.0
Eu1715 Eu 0.03394 0.50904 0.56377 0.0
N1716 N 0.05199 0.52037 0.60289 0.0
C1717 C 0.07382 0.53087 0.6489 0.0
C1718 C 0.0468 0.53732 0.61756 0.0
C1719 C 0.05782 0.543 0.64064 0.0
H1720 H 0.05213 0.46222 0.54161 0.0
H1721 H 0.05379 0.55662 0.65212 0.0
H1722 H 0.03808 0.60535 0.53505 0.0
H1723 H 1.00219 0.50145 0.42976 0.0
H1724 H 0.03388 0.54627 0.61183 0.0
H1725 H 0.08233 0.53533 0.66681 0.0
H1726 H 0.03062 0.51243 0.46467 0.0
H1727 H 0.07944 0.43918 0.55381 0.0
H1728 H 0.10307 0.50368 0.65952 0.0
H1729 H 0.11 0.47195 0.6329 0.0
H1730 H 0.013 0.63222 0.52763 0.0
H1731 H 0.10143 0.44794 0.59358 0.0
H1732 H 0.97505 0.52596 0.42016 0.0
N1733 N 0.02251 0.58159 0.5051 0.0
C1734 C 1.00687 0.57688 0.48551 0.0
C1735 C 0.01099 0.61666 0.51571 0.0
C1736 C 0.99215 0.59175 0.48056 0.0
C1737 C 0.02504 0.60129 0.51998 0.0
C1738 C 0.99436 0.61181 0.49598 0.0
N1739 N 0.01961 0.5428 0.47611 0.0
C1740 C 0.01886 0.52331 0.46137 0.0
C1741 C 0.98876 0.55121 0.45044 0.0
C1742 C 1.00529 0.55687 0.47064 0.0
C1743 C 0.98754 0.53093 0.43578 0.0
C1744 C 1.00277 0.51702 0.44119 0.0
H1745 H 0.98341 0.62369 0.49277 0.0
H1746 H 0.96412 0.59727 0.45651 0.0
H1747 H 0.9611 0.56173 0.43017 0.0
O1748 O 0.07167 0.55842 0.48898 0.0
O1749 O 1.00878 0.54506 0.51845 0.0
O1750 O 0.01435 0.51145 0.52859 0.0
O1751 O 0.07096 0.58644 0.51543 0.0
O1752 O 0.05255 0.51885 0.50134 0.0
O1753 O 0.03835 0.49225 0.52643 0.0
O1754 O 1.00318 0.50542 0.58102 0.0
O1755 O 0.07128 0.52721 0.57046 0.0
O1756 O 0.05519 0.53575 0.53917 0.0
O1757 O 0.01469 0.47539 0.56772 0.0
O1758 O 0.0258 0.5454 0.57029 0.0
O1759 O 0.04838 0.57138 0.5501 0.0
C1760 C 1.00063 0.5255 0.52536 0.0
C1761 C 0.08283 0.59486 0.4788 0.0
C1762 C 0.09628 0.60023 0.44115 0.0
C1763 C 0.08415 0.61771 0.43905 0.0
C1764 C 0.07061 0.61221 0.47654 0.0
C1765 C 0.0716 0.62382 0.45684 0.0
C1766 C 0.09618 0.58959 0.46154 0.0
C1767 C 0.04725 0.49762 0.50687 0.0
C1768 C 0.07987 0.5798 0.49701 0.0
C1769 C 0.97566 0.58611 0.46053 0.0
C1770 C 0.97395 0.56588 0.44554 0.0
C1771 C 0.0741 0.53825 0.55297 0.0
C1772 C 0.99675 0.47356 0.60218 0.0
C1773 C 0.98463 0.47649 0.64123 0.0
C1774 C 0.98558 0.45348 0.64217 0.0
C1775 C 0.99767 0.45069 0.60356 0.0
C1776 C 0.99069 0.48646 0.62126 0.0
C1777 C 0.99233 0.44083 0.62357 0.0
C1778 C 0.03587 0.56658 0.56733 0.0
C1779 C 1.0007 0.48341 0.58032 0.0
H1780 H 0.08379 0.62618 0.42343 0.0
H1781 H 0.05996 0.61644 0.48959 0.0
H1782 H 0.06204 0.63707 0.455 0.0
H1783 H 0.10576 0.57634 0.4636 0.0
H1784 H 0.98054 0.44499 0.65696 0.0
H1785 H 1.0022 0.44033 0.58904 0.0
H1786 H 0.99042 0.50422 0.62042 0.0
H1787 H 0.99289 0.42314 0.62443 0.0
Eu1788 Eu 0.82278 0.77187 0.28527 0.0
C1789 C 0.7433 0.82408 0.24847 0.0
N1790 N 0.75725 0.82673 0.26918 0.0
C1791 C 0.7643 0.86736 0.2702 0.0
C1792 C 0.73998 0.8431 0.23738 0.0
C1793 C 0.76682 0.84803 0.28067 0.0
C1794 C 0.75108 0.86488 0.24829 0.0
C1795 C 0.71578 0.79918 0.21809 0.0
C1796 C 0.73124 0.80238 0.23897 0.0
C1797 C 0.71315 0.81798 0.20654 0.0
C1798 C 0.72521 0.83988 0.21616 0.0
Eu1799 Eu 0.76134 0.79266 0.28446 0.0
N1800 N 0.73407 0.78449 0.2505 0.0
C1801 C 0.70315 0.77719 0.20964 0.0
C1802 C 0.72127 0.76315 0.24279 0.0
C1803 C 0.70578 0.75914 0.22217 0.0
H1804 H 0.77649 0.85022 0.29797 0.0
H1805 H 0.69587 0.74214 0.21596 0.0
H1806 H 0.81347 0.71943 0.30464 0.0
H1807 H 0.88894 0.84694 0.32054 0.0
H1808 H 0.72299 0.74915 0.25246 0.0
H1809 H 0.69114 0.77404 0.19365 0.0
H1810 H 0.85996 0.82167 0.2904 0.0
H1811 H 0.77237 0.88417 0.27913 0.0
H1812 H 0.7015 0.81581 0.19038 0.0
H1813 H 0.72261 0.85429 0.2073 0.0
H1814 H 0.82231 0.70332 0.34092 0.0
H1815 H 0.749 0.87991 0.24031 0.0
H1816 H 0.89847 0.83417 0.35907 0.0
N1817 N 0.83179 0.75315 0.31824 0.0
C1818 C 0.8474 0.76607 0.33585 0.0
C1819 C 0.82918 0.7211 0.3399 0.0
C1820 C 0.85353 0.75722 0.35673 0.0
C1821 C 0.82377 0.73053 0.31947 0.0
C1822 C 0.84377 0.73461 0.35879 0.0
N1823 N 0.85197 0.79605 0.31235 0.0
C1824 C 0.86351 0.81643 0.30742 0.0
C1825 C 0.87478 0.80153 0.35025 0.0
C1826 C 0.8581 0.78794 0.33266 0.0
C1827 C 0.88559 0.8232 0.34598 0.0
C1828 C 0.88018 0.83053 0.32431 0.0
H1829 H 0.84803 0.7272 0.37454 0.0
H1830 H 0.87429 0.76452 0.39086 0.0
H1831 H 0.89278 0.80334 0.38523 0.0
O1832 O 0.84955 0.779 0.2613 0.0
O1833 O 0.81782 0.79639 0.31659 0.0
O1834 O 0.78053 0.78109 0.31538 0.0
O1835 O 0.84297 0.74714 0.27631 0.0
O1836 O 0.81673 0.80163 0.26628 0.0
O1837 O 0.79527 0.81875 0.29015 0.0
O1838 O 0.72894 0.77998 0.29737 0.0
O1839 O 0.77118 0.78187 0.24792 0.0
O1840 O 0.79536 0.75678 0.25412 0.0
O1841 O 0.74918 0.81286 0.31247 0.0
O1842 O 0.75644 0.75455 0.282 0.0
O1843 O 0.79168 0.74362 0.2887 0.0
C1844 C 0.79941 0.79358 0.32712 0.0
C1845 C 0.87338 0.75076 0.25171 0.0
C1846 C 0.90355 0.75302 0.22576 0.0
C1847 C 0.90738 0.73204 0.2319 0.0
C1848 C 0.87778 0.72972 0.25705 0.0
C1849 C 0.89462 0.72056 0.2473 0.0
C1850 C 0.88657 0.76262 0.23605 0.0
C1851 C 0.81151 0.82006 0.2764 0.0
C1852 C 0.85517 0.75948 0.26321 0.0
C1853 C 0.8696 0.77097 0.37463 0.0
C1854 C 0.88018 0.79306 0.3714 0.0
C1855 C 0.78252 0.76647 0.24001 0.0
C1856 C 0.70908 0.80609 0.31459 0.0
C1857 C 0.67547 0.80834 0.33494 0.0
C1858 C 0.66748 0.81994 0.31686 0.0
C1859 C 0.70073 0.81789 0.29717 0.0
C1860 C 0.69648 0.80135 0.33351 0.0
C1861 C 0.68005 0.82477 0.29835 0.0
C1862 C 0.76894 0.73949 0.28612 0.0
C1863 C 0.73039 0.79781 0.31266 0.0
H1864 H 0.9205 0.72445 0.2248 0.0
H1865 H 0.86823 0.7202 0.26898 0.0
H1866 H 0.89782 0.70442 0.25175 0.0
H1867 H 0.88346 0.77883 0.23167 0.0
H1868 H 0.65118 0.825 0.31666 0.0
H1869 H 0.71006 0.82155 0.28252 0.0
H1870 H 0.70311 0.79233 0.34702 0.0
H1871 H 0.67358 0.83367 0.28467 0.0
Eu1872 Eu 0.77029 0.28835 0.80952 0.0
C1873 C 0.83958 0.25419 0.73281 0.0
N1874 N 0.84328 0.26966 0.75252 0.0
C1875 C 0.87835 0.25843 0.76485 0.0
C1876 C 0.85492 0.23974 0.72875 0.0
C1877 C 0.86275 0.27245 0.76808 0.0
C1878 C 0.87432 0.24185 0.74524 0.0
C1879 C 0.81615 0.23709 0.69584 0.0
C1880 C 0.82049 0.25293 0.71643 0.0
C1881 C 0.83125 0.22251 0.69193 0.0
C1882 C 0.85057 0.22383 0.70834 0.0
Eu1883 Eu 0.8157 0.29246 0.75609 0.0
N1884 N 0.80582 0.26683 0.72095 0.0
C1885 C 0.79671 0.23635 0.67981 0.0
C1886 C 0.7872 0.26665 0.70511 0.0
C1887 C 0.78225 0.25128 0.68442 0.0
H1888 H 0.86673 0.28581 0.78278 0.0
H1889 H 0.76733 0.251 0.67201 0.0
H1890 H 0.72224 0.301 0.78521 0.0
H1891 H 0.82672 0.32851 0.8906 0.0
H1892 H 0.77609 0.27829 0.7084 0.0
H1893 H 0.79279 0.22442 0.66379 0.0
H1894 H 0.81263 0.29955 0.85654 0.0
H1895 H 0.89361 0.26059 0.77738 0.0
H1896 H 0.82817 0.21019 0.67624 0.0
H1897 H 0.86212 0.21255 0.705 0.0
H1898 H 0.69927 0.33016 0.79146 0.0
H1899 H 0.8865 0.23107 0.74275 0.0
H1900 H 0.80627 0.3595 0.89903 0.0
N1901 N 0.747 0.31503 0.81495 0.0
C1902 C 0.75335 0.33105 0.83413 0.0
C1903 C 0.71451 0.33069 0.80352 0.0
C1904 C 0.74075 0.34807 0.83838 0.0
C1905 C 0.72765 0.31428 0.79994 0.0
C1906 C 0.72116 0.34776 0.82274 0.0
N1907 N 0.78491 0.31435 0.84425 0.0
C1908 C 0.80371 0.31314 0.85924 0.0
C1909 C 0.78023 0.34754 0.86894 0.0
C1910 C 0.77285 0.33072 0.8492 0.0
C1911 C 0.8 0.34684 0.88376 0.0
C1912 C 0.81165 0.32945 0.87899 0.0
H1913 H 0.71102 0.36053 0.8254 0.0
H1914 H 0.73878 0.3782 0.86138 0.0
H1915 H 0.7734 0.37779 0.8881 0.0
O1916 O 0.76245 0.26673 0.83661 0.0
O1917 O 0.78088 0.32339 0.7993 0.0
O1918 O 0.81328 0.31471 0.78927 0.0
O1919 O 0.73727 0.26397 0.80538 0.0
O1920 O 0.80503 0.27777 0.81948 0.0
O1921 O 0.8319 0.29232 0.79477 0.0
O1922 O 0.81689 0.3178 0.7317 0.0
O1923 O 0.79584 0.25604 0.75281 0.0
O1924 O 0.78836 0.27476 0.78312 0.0
O1925 O 0.84815 0.3138 0.75153 0.0
O1926 O 0.77945 0.30064 0.74758 0.0
O1927 O 0.75281 0.28345 0.77122 0.0
C1928 C 0.79995 0.32929 0.79044 0.0
C1929 C 0.72672 0.23948 0.83516 0.0
C1930 C 0.72031 0.21447 0.86529 0.0
C1931 C 0.69701 0.20808 0.85609 0.0
C1932 C 0.70346 0.23291 0.82605 0.0
C1933 C 0.68867 0.21731 0.83656 0.0
C1934 C 0.73503 0.23007 0.85461 0.0
C1935 C 0.82642 0.2834 0.81423 0.0
C1936 C 0.74218 0.25718 0.82562 0.0
C1937 C 0.74815 0.3649 0.85791 0.0
C1938 C 0.76786 0.36465 0.87313 0.0
C1939 C 0.7846 0.25526 0.77037 0.0
C1940 C 0.85098 0.32588 0.71404 0.0
C1941 C 0.854 0.34167 0.67702 0.0
C1942 C 0.8753 0.33543 0.67626 0.0
C1943 C 0.87205 0.31945 0.71274 0.0
C1944 C 0.84189 0.33652 0.69595 0.0
C1945 C 0.88405 0.32414 0.69385 0.0
C1946 C 0.75813 0.29312 0.75226 0.0
C1947 C 0.83917 0.32354 0.73495 0.0
H1948 H 0.68522 0.19623 0.86415 0.0
H1949 H 0.69666 0.24007 0.81109 0.0
H1950 H 0.67071 0.21237 0.82958 0.0
H1951 H 0.75304 0.23495 0.86153 0.0
H1952 H 0.88548 0.33958 0.66233 0.0
H1953 H 0.87949 0.31119 0.72647 0.0
H1954 H 0.82539 0.34095 0.69686 0.0
H1955 H 0.90043 0.31943 0.69308 0.0
Eu1956 Eu 0.77223 0.76267 0.76581 0.0
C1957 C 0.85361 0.83051 0.8293 0.0
N1958 N 0.8318 0.82138 0.8328 0.0
C1959 C 0.84512 0.81731 0.87255 0.0
C1960 C 0.87208 0.83289 0.84731 0.0
C1961 C 0.82729 0.81559 0.85435 0.0
C1962 C 0.86762 0.8258 0.86897 0.0
C1963 C 0.87981 0.84798 0.80387 0.0
C1964 C 0.85748 0.83802 0.80779 0.0
C1965 C 0.89819 0.85016 0.82173 0.0
C1966 C 0.89436 0.84257 0.84334 0.0
Eu1967 Eu 0.80319 0.81974 0.80059 0.0
N1968 N 0.83949 0.83503 0.79046 0.0
C1969 C 0.88304 0.85519 0.78197 0.0
C1970 C 0.84239 0.84288 0.76947 0.0
C1971 C 0.86422 0.85277 0.76476 0.0
H1972 H 0.80999 0.81028 0.85801 0.0
H1973 H 0.86648 0.85871 0.74795 0.0
H1974 H 0.76262 0.77393 0.70933 0.0
H1975 H 0.71153 0.72615 0.82248 0.0
H1976 H 0.82791 0.84187 0.75643 0.0
H1977 H 0.89994 0.86282 0.77826 0.0
H1978 H 0.74955 0.74052 0.81127 0.0
H1979 H 0.84143 0.81246 0.88948 0.0
H1980 H 0.91547 0.85765 0.81898 0.0
H1981 H 0.90873 0.84445 0.85697 0.0
H1982 H 0.72984 0.77319 0.67986 0.0
H1983 H 0.88136 0.82732 0.88321 0.0
H1984 H 0.67679 0.72432 0.79455 0.0
N1985 N 0.74225 0.76278 0.73563 0.0
C1986 C 0.72072 0.75429 0.74042 0.0
C1987 C 0.72703 0.7681 0.69692 0.0
C1988 C 0.70144 0.75299 0.72366 0.0
C1989 C 0.74564 0.76898 0.71397 0.0
C1990 C 0.70484 0.76025 0.70183 0.0
N1991 N 0.73663 0.74889 0.77842 0.0
C1992 C 0.73461 0.74086 0.79944 0.0
C1993 C 0.69573 0.73816 0.76762 0.0
C1994 C 0.71785 0.74688 0.76222 0.0
C1995 C 0.69349 0.73104 0.78972 0.0
C1996 C 0.71304 0.73221 0.80561 0.0
H1997 H 0.69046 0.7595 0.6885 0.0
H1998 H 0.66446 0.74332 0.71642 0.0
H1999 H 0.65948 0.73041 0.75486 0.0
O2000 O 0.77643 0.72871 0.77236 0.0
O2001 O 0.74779 0.78706 0.77705 0.0
O2002 O 0.76646 0.8095 0.81064 0.0
O2003 O 0.7643 0.73451 0.73736 0.0
O2004 O 0.78911 0.76109 0.8033 0.0
O2005 O 0.78543 0.79464 0.82284 0.0
O2006 O 0.79384 0.85136 0.79229 0.0
O2007 O 0.82909 0.79796 0.78763 0.0
O2008 O 0.80989 0.77015 0.75777 0.0
O2009 O 0.81069 0.8497 0.82694 0.0
O2010 O 0.7878 0.82066 0.76234 0.0
O2011 O 0.79082 0.78668 0.74303 0.0
C2012 C 0.74705 0.80028 0.79681 0.0
C2013 C 0.78884 0.70866 0.7405 0.0
C2014 C 0.81509 0.68317 0.74542 0.0
C2015 C 0.82097 0.68576 0.72284 0.0
C2016 C 0.79499 0.71125 0.71792 0.0
C2017 C 0.81099 0.69983 0.70921 0.0
C2018 C 0.79904 0.69461 0.75415 0.0
C2019 C 0.78706 0.77338 0.82289 0.0
C2020 C 0.77201 0.7205 0.75012 0.0
C2021 C 0.67943 0.74437 0.72908 0.0
C2022 C 0.67659 0.73697 0.75096 0.0
C2023 C 0.8294 0.78191 0.77001 0.0
C2024 C 0.78104 0.86995 0.82457 0.0
C2025 C 0.75042 0.89075 0.82061 0.0
C2026 C 0.74413 0.88481 0.84225 0.0
C2027 C 0.77464 0.8642 0.84627 0.0
C2028 C 0.76903 0.88339 0.81203 0.0
C2029 C 0.75635 0.87176 0.85507 0.0
C2030 C 0.79055 0.80832 0.74302 0.0
C2031 C 0.79923 0.86108 0.81404 0.0
H2032 H 0.83335 0.67699 0.71585 0.0
H2033 H 0.78751 0.72207 0.70697 0.0
H2034 H 0.81565 0.70189 0.69184 0.0
H2035 H 0.79426 0.6923 0.77147 0.0
H2036 H 0.72983 0.89029 0.84927 0.0
H2037 H 0.78351 0.85365 0.85631 0.0
H2038 H 0.77439 0.88827 0.7956 0.0
H2039 H 0.75155 0.86735 0.8718 0.0
Eu2040 Eu 0.56313 0.55077 0.55052 0.0
C2041 C 0.49528 0.47088 0.48242 0.0
N2042 N 0.503 0.49319 0.48016 0.0
C2043 C 0.50562 0.48313 0.43934 0.0
C2044 C 0.49301 0.45372 0.46321 0.0
C2045 C 0.50741 0.49956 0.45881 0.0
C2046 C 0.49863 0.46009 0.4416 0.0
C2047 C 0.48039 0.44232 0.50665 0.0
C2048 C 0.48898 0.46521 0.50385 0.0
C2049 C 0.4786 0.42516 0.48771 0.0
C2050 C 0.48491 0.43084 0.46606 0.0
Eu2051 Eu 0.50645 0.51942 0.51457 0.0
N2052 N 0.49151 0.4821 0.52209 0.0
C2053 C 0.47391 0.43738 0.52844 0.0
C2054 C 0.48417 0.47756 0.54299 0.0
C2055 C 0.4756 0.45512 0.54661 0.0
H2056 H 0.51195 0.51732 0.45653 0.0
H2057 H 0.47023 0.45152 0.56337 0.0
H2058 H 0.54709 0.56511 0.60355 0.0
H2059 H 0.60053 0.60541 0.48866 0.0
H2060 H 0.48507 0.49121 0.5569 0.0
H2061 H 0.46734 0.42 0.53133 0.0
H2062 H 0.58901 0.56939 0.50471 0.0
H2063 H 0.50942 0.48826 0.42254 0.0
H2064 H 0.47222 0.40745 0.48958 0.0
H2065 H 0.4832 0.41742 0.45154 0.0
H2066 H 0.54404 0.59978 0.6284 0.0
H2067 H 0.49714 0.44742 0.42643 0.0
H2068 H 0.59699 0.64164 0.5108 0.0
N2069 N 0.55987 0.58283 0.57617 0.0
C2070 C 0.56759 0.60351 0.56914 0.0
C2071 C 0.55048 0.60104 0.61168 0.0
C2072 C 0.56622 0.62379 0.58291 0.0
C2073 C 0.55192 0.58136 0.59735 0.0
C2074 C 0.5575 0.62233 0.60437 0.0
N2075 N 0.57648 0.58446 0.53416 0.0
C2076 C 0.58613 0.58478 0.51385 0.0
C2077 C 0.58308 0.62548 0.53939 0.0
C2078 C 0.57595 0.60433 0.54752 0.0
C2079 C 0.59145 0.62574 0.51769 0.0
C2080 C 0.5933 0.60532 0.50504 0.0
H2081 H 0.5562 0.63754 0.61546 0.0
H2082 H 0.57215 0.66056 0.58505 0.0
H2083 H 0.58685 0.66203 0.547 0.0
O2084 O 0.59919 0.55137 0.54835 0.0
O2085 O 0.53537 0.57199 0.54032 0.0
O2086 O 0.51944 0.55513 0.50391 0.0
O2087 O 0.58807 0.55834 0.58219 0.0
O2088 O 0.56625 0.53265 0.51401 0.0
O2089 O 0.53304 0.53615 0.4933 0.0
O2090 O 0.47714 0.53207 0.52537 0.0
O2091 O 0.5275 0.49353 0.52823 0.0
O2092 O 0.55657 0.51284 0.557 0.0
O2093 O 0.47487 0.51407 0.49036 0.0
O2094 O 0.50524 0.53301 0.55325 0.0
O2095 O 0.53973 0.53166 0.57343 0.0
C2096 C 0.52597 0.57393 0.51896 0.0
C2097 C 0.61575 0.53565 0.57985 0.0
C2098 C 0.63942 0.50789 0.57282 0.0
C2099 C 0.63415 0.49911 0.59362 0.0
C2100 C 0.61086 0.52686 0.60081 0.0
C2101 C 0.62007 0.50871 0.6076 0.0
C2102 C 0.63028 0.52623 0.56616 0.0
C2103 C 0.55413 0.53349 0.49381 0.0
C2104 C 0.60447 0.55329 0.5711 0.0
C2105 C 0.57324 0.64482 0.57476 0.0
C2106 C 0.58159 0.64566 0.55306 0.0
C2107 C 0.54407 0.49343 0.54541 0.0
C2108 C 0.45947 0.54703 0.49433 0.0
C2109 C 0.44069 0.57908 0.49853 0.0
C2110 C 0.44997 0.58702 0.47888 0.0
C2111 C 0.46894 0.55536 0.47488 0.0
C2112 C 0.4454 0.55895 0.50602 0.0
C2113 C 0.46407 0.57521 0.46718 0.0
C2114 C 0.51763 0.53027 0.57258 0.0
C2115 C 0.466 0.52743 0.50414 0.0
H2116 H 0.64119 0.4851 0.59924 0.0
H2117 H 0.59964 0.53369 0.61176 0.0
H2118 H 0.61617 0.50197 0.62368 0.0
H2119 H 0.634 0.53277 0.54989 0.0
H2120 H 0.44634 0.60234 0.47263 0.0
H2121 H 0.48038 0.54679 0.46587 0.0
H2122 H 0.43811 0.55247 0.52099 0.0
H2123 H 0.4714 0.58158 0.45223 0.0
Eu2124 Eu 1.00702 0.53836 0.04176 0.0
C2125 C 0.10364 0.58969 0.0061 0.0
N2126 N 0.09008 0.56923 0.9963 0.0
C2127 C 0.09417 0.57957 0.95765 0.0
C2128 C 0.11187 0.6063 0.99183 0.0
C2129 C 0.08673 0.56349 0.97237 0.0
C2130 C 0.10634 0.60123 0.96741 0.0
C2131 C 0.12628 0.61391 0.04049 0.0
C2132 C 0.11083 0.59357 0.03034 0.0
C2133 C 0.1334 0.63082 0.0264 0.0
C2134 C 0.12616 0.62706 1.00218 0.0
Eu2135 Eu 0.07789 0.54447 0.02399 0.0
N2136 N 0.10332 0.57724 0.04393 0.0
C2137 C 0.13458 0.61644 0.06447 0.0
C2138 C 0.11234 0.57904 0.06693 0.0
C2139 C 0.12783 0.59878 0.07765 0.0
H2140 H 0.07862 0.54642 0.96433 0.0
H2141 H 0.13466 0.60031 0.09602 0.0
H2142 H 1.00835 0.54887 0.10142 0.0
H2143 H 0.94804 0.47106 0.98172 0.0
H2144 H 0.10789 0.56514 0.07686 0.0
H2145 H 0.14657 0.63175 0.07284 0.0
H2146 H 0.97433 0.5086 0.99334 0.0
H2147 H 0.09089 0.57508 0.93875 0.0
H2148 H 0.14499 0.64667 0.03398 0.0
H2149 H 0.13237 0.64004 0.99145 0.0
H2150 H 0.99822 0.52691 0.13378 0.0
H2151 H 0.11235 0.61355 0.95591 0.0
H2152 H 0.93995 0.44495 0.01147 0.0
N2153 N 0.99632 0.52046 0.07468 0.0
C2154 C 0.98374 0.49877 0.0694 0.0
C2155 C 0.99436 0.5187 0.11578 0.0
C2156 C 0.97697 0.48584 0.0874 0.0
C2157 C 1.00035 0.53098 0.09738 0.0
C2158 C 0.98304 0.49588 0.11081 0.0
N2159 N 0.98141 0.5033 0.02895 0.0
C2160 C 0.97085 0.49725 0.00633 0.0
C2161 C 0.96106 0.46847 0.04011 0.0
C2162 C 0.97589 0.49006 0.04595 0.0
C2163 C 0.95146 0.46138 0.01662 0.0
C2164 C 0.95593 0.47608 0.99977 0.0
H2165 H 0.97818 0.48649 0.12511 0.0
H2166 H 0.95839 0.45347 0.09513 0.0
H2167 H 0.94442 0.43832 0.05376 0.0
O2168 O 0.98208 0.54922 0.0174 0.0
O2169 O 0.0158 0.50464 0.02393 0.0
O2170 O 0.05437 0.50801 0.01652 0.0
O2171 O 0.98369 0.55878 0.05469 0.0
O2172 O 0.03345 0.54629 0.01889 0.0
O2173 O 0.05262 0.53853 0.99091 0.0
O2174 O 0.10263 0.52816 0.04293 0.0
O2175 O 0.06824 0.57813 0.0418 0.0
O2176 O 0.02926 0.57482 0.04735 0.0
O2177 O 0.10472 0.53288 0.00671 0.0
O2178 O 0.05656 0.53022 0.05095 0.0
O2179 O 0.03451 0.54656 0.07307 0.0
C2180 C 0.0332 0.49583 0.01688 0.0
C2181 C 0.94802 0.55507 0.03187 0.0
C2182 C 0.91251 0.56924 0.02834 0.0
C2183 C 0.90036 0.54719 0.03036 0.0
C2184 C 0.93546 0.53336 0.03385 0.0
C2185 C 0.91176 0.52945 0.03297 0.0
C2186 C 0.93654 0.573 0.02912 0.0
C2187 C 0.03324 0.54172 0.99646 0.0
C2188 C 0.97316 0.55945 0.03392 0.0
C2189 C 0.96349 0.46371 0.08152 0.0
C2190 C 0.95552 0.45507 0.05794 0.0
C2191 C 0.0504 0.58703 0.04758 0.0
C2192 C 0.11403 0.49945 0.01844 0.0
C2193 C 0.13463 0.46864 0.02171 0.0
C2194 C 0.11704 0.45402 0.00604 0.0
C2195 C 0.09697 0.48458 1.00234 0.0
C2196 C 0.13312 0.49148 0.0279 0.0
C2197 C 0.09849 0.46207 0.99626 0.0
C2198 C 0.05438 0.54155 0.07078 0.0
C2199 C 0.11218 0.52337 0.02433 0.0
H2200 H 0.882 0.54368 0.0304 0.0
H2201 H 0.94397 0.51951 0.03647 0.0
H2202 H 0.90219 0.51266 0.03466 0.0
H2203 H 0.94631 0.58979 0.02759 0.0
H2204 H 0.11799 0.4365 1.00088 0.0
H2205 H 0.08249 0.49041 0.99421 0.0
H2206 H 0.14672 0.50293 0.03985 0.0
H2207 H 0.08528 0.45085 0.98377 0.0
C2208 C 0.01898 0.20891 0.99728 0.0
C2209 C 1.00856 0.20994 0.97432 0.0
C2210 C 0.02196 0.18791 0.00553 0.0
C2211 C 0.01416 0.16651 0.99091 0.0
C2212 C 1.00344 0.16744 0.96779 0.0
C2213 C 1.00097 0.18871 0.95989 0.0
C2214 C 0.03376 0.18868 0.0301 0.0
C2215 C 0.99448 0.14573 0.95117 0.0
C2216 C 0.0401 0.11338 1.00375 0.0
C2217 C 0.02375 0.09993 0.01524 0.0
C2218 C 0.03731 0.13455 0.99601 0.0
C2219 C 0.01749 0.14348 0.9995 0.0
C2220 C 1.00086 0.13 0.0111 0.0
C2221 C 1.00398 0.10866 0.01845 0.0
C2222 C 0.05592 0.14752 0.9841 0.0
C2223 C 0.97964 0.13833 0.01601 0.0
H2224 H 0.02517 0.22474 0.00894 0.0
H2225 H 0.99289 0.18862 0.94216 0.0
H2226 H 0.02228 0.1781 0.04037 0.0
H2227 H 0.04925 0.18138 0.02944 0.0
H2228 H 0.0389 0.20629 0.03952 0.0
H2229 H 0.98624 0.14883 0.93398 0.0
H2230 H 1.00869 0.13704 0.94803 0.0
H2231 H 0.9818 0.13394 0.95917 0.0
H2232 H 0.05522 0.10711 1.00038 0.0
H2233 H 0.99094 0.09895 0.02712 0.0
H2234 H 0.06332 0.16432 0.99468 0.0
H2235 H 0.04869 0.15078 0.96659 0.0
H2236 H 0.06992 0.13826 0.98181 0.0
H2237 H 0.98437 0.1556 0.02617 0.0
H2238 H 0.96878 0.12688 0.02609 0.0
H2239 H 0.96956 0.13977 0.99917 0.0
C2240 C 0.14404 0.81725 0.17867 0.0
C2241 C 0.14009 0.80884 0.15453 0.0
C2242 C 0.16366 0.81497 0.19342 0.0
C2243 C 0.18003 0.80373 0.18416 0.0
C2244 C 0.1764 0.79559 0.1597 0.0
C2245 C 0.15668 0.7983 0.14527 0.0
C2246 C 0.16662 0.82421 0.21917 0.0
C2247 C 0.19304 0.78331 0.14885 0.0
C2248 C 0.24024 0.81228 0.21953 0.0
C2249 C 0.23822 0.79326 0.2319 0.0
C2250 C 0.22167 0.81587 0.20405 0.0
C2251 C 0.20039 0.79988 0.20021 0.0
C2252 C 0.19843 0.78042 0.21231 0.0
C2253 C 0.21712 0.77749 0.22803 0.0
C2254 C 0.22472 0.83708 0.1921 0.0
C2255 C 0.17647 0.76259 0.20869 0.0
H2256 H 0.13146 0.82532 0.18626 0.0
H2257 H 0.15389 0.79143 0.12682 0.0
H2258 H 0.16593 0.81001 0.22996 0.0
H2259 H 0.18364 0.83578 0.22429 0.0
H2260 H 0.15321 0.83364 0.22351 0.0
H2261 H 0.18845 0.77876 0.12953 0.0
H2262 H 0.21059 0.79405 0.15251 0.0
H2263 H 0.19344 0.76748 0.15688 0.0
H2264 H 0.25629 0.82471 0.22232 0.0
H2265 H 0.2152 0.76262 0.23721 0.0
H2266 H 0.21229 0.8474 0.19733 0.0
H2267 H 0.22112 0.83244 0.17275 0.0
H2268 H 0.24228 0.84778 0.1966 0.0
H2269 H 0.16244 0.7702 0.21475 0.0
H2270 H 0.17793 0.74787 0.21835 0.0
H2271 H 0.17154 0.75625 0.1897 0.0
C2272 C 0.5117 0.85157 0.49168 0.0
C2273 C 0.51459 0.84624 0.46791 0.0
C2274 C 0.51297 0.8746 0.50204 0.0
C2275 C 0.51686 0.89321 0.4885 0.0
C2276 C 0.51969 0.88782 0.46462 0.0
C2277 C 0.51876 0.865 0.45494 0.0
C2278 C 0.51016 0.87907 0.52762 0.0
C2279 C 0.52363 0.90632 0.44893 0.0
C2280 C 0.50214 0.95268 0.50568 0.0
C2281 C 0.52377 0.96706 0.5133 0.0
C2282 C 0.49949 0.92879 0.49838 0.0
C2283 C 0.51884 0.91833 0.49894 0.0
C2284 C 0.5406 0.93273 0.50736 0.0
C2285 C 0.54277 0.95652 0.51406 0.0
C2286 C 0.47591 0.91487 0.48921 0.0
C2287 C 0.56191 0.92307 0.50891 0.0
H2288 H 0.50833 0.83778 0.50223 0.0
H2289 H 0.52104 0.86194 0.4366 0.0
H2290 H 0.52548 0.89127 0.5372 0.0
H2291 H 0.49524 0.88706 0.52942 0.0
H2292 H 0.50765 0.86324 0.53608 0.0
H2293 H 0.52445 0.89948 0.43047 0.0
H2294 H 0.50967 0.91587 0.44903 0.0
H2295 H 0.53989 0.91864 0.45568 0.0
H2296 H 0.48728 0.96024 0.5045 0.0
H2297 H 0.55966 0.96702 0.52002 0.0
H2298 H 0.47218 0.89965 0.49848 0.0
H2299 H 0.47512 0.9087 0.47026 0.0
H2300 H 0.4624 0.9248 0.49133 0.0
H2301 H 0.55946 0.90794 0.51846 0.0
H2302 H 0.57719 0.93571 0.51798 0.0
H2303 H 0.56532 0.91736 0.49098 0.0
C2304 C 0.48212 0.2805 0.63161 0.0
C2305 C 0.50515 0.28872 0.64131 0.0
C2306 C 0.46443 0.27721 0.6459 0.0
C2307 C 0.46963 0.28229 0.6707 0.0
C2308 C 0.49273 0.29118 0.68062 0.0
C2309 C 0.51014 0.29422 0.6659 0.0
C2310 C 0.44017 0.26763 0.63441 0.0
C2311 C 0.49916 0.29692 0.70689 0.0
C2312 C 0.41874 0.28614 0.70492 0.0
C2313 C 0.41278 0.26392 0.71066 0.0
C2314 C 0.43768 0.2927 0.69268 0.0
C2315 C 0.45109 0.27673 0.68613 0.0
C2316 C 0.44575 0.25467 0.69305 0.0
C2317 C 0.42674 0.24857 0.70508 0.0
C2318 C 0.44264 0.31637 0.68573 0.0
C2319 C 0.45949 0.23705 0.68676 0.0
H2320 H 0.47785 0.27612 0.61273 0.0
H2321 H 0.52775 0.30061 0.67376 0.0
H2322 H 0.43387 0.25071 0.63993 0.0
H2323 H 0.42876 0.27888 0.64019 0.0
H2324 H 0.4387 0.26566 0.61491 0.0
H2325 H 0.51753 0.30519 0.71183 0.0
H2326 H 0.48863 0.30845 0.71412 0.0
H2327 H 0.49559 0.28115 0.71533 0.0
H2328 H 0.40791 0.29801 0.70888 0.0
H2329 H 0.42223 0.23136 0.70943 0.0
H2330 H 0.43881 0.31539 0.66636 0.0
H2331 H 0.46104 0.3244 0.69065 0.0
H2332 H 0.43228 0.32748 0.69409 0.0
H2333 H 0.45722 0.23246 0.66739 0.0
H2334 H 0.45425 0.22129 0.69489 0.0
H2335 H 0.47798 0.24406 0.6925 0.0
C2336 C 0.04447 0.81411 0.65374 0.0
C2337 C 0.03584 0.81698 0.67528 0.0
C2338 C 0.04918 0.83226 0.64024 0.0
C2339 C 0.04452 0.85377 0.64796 0.0
C2340 C 0.03463 0.85637 0.66907 0.0
C2341 C 0.03083 0.83817 0.68263 0.0
C2342 C 0.0603 0.82871 0.61829 0.0
C2343 C 0.02866 0.87864 0.67773 0.0
C2344 C 0.08214 0.90625 0.62998 0.0
C2345 C 0.0692 0.91037 0.60968 0.0
C2346 C 0.07421 0.88819 0.64254 0.0
C2347 C 0.05225 0.87405 0.63537 0.0
C2348 C 0.03836 0.87897 0.61584 0.0
C2349 C 0.04703 0.89691 0.60313 0.0
C2350 C 0.08986 0.88372 0.66301 0.0
C2351 C 0.01456 0.86486 0.60797 0.0
H2352 H 0.04864 0.79793 0.64798 0.0
H2353 H 0.02403 0.84058 0.69915 0.0
H2354 H 0.05029 0.8336 0.6031 0.0
H2355 H 0.07766 0.83984 0.6207 0.0
H2356 H 0.06186 0.81077 0.614 0.0
H2357 H 0.01824 0.87702 0.69247 0.0
H2358 H 0.04457 0.89167 0.6839 0.0
H2359 H 0.01906 0.88495 0.66322 0.0
H2360 H 0.09899 0.91688 0.6358 0.0
H2361 H 0.03675 0.89982 0.58759 0.0
H2362 H 0.09327 0.86636 0.65953 0.0
H2363 H 0.08154 0.88441 0.67922 0.0
H2364 H 0.10649 0.89619 0.66632 0.0
H2365 H 0.0156 0.84751 0.60037 0.0
H2366 H 1.00489 0.87245 0.59453 0.0
H2367 H 1.00486 0.86303 0.62322 0.0
C2368 C 0.47673 0.80805 0.82326 0.0
C2369 C 0.48629 0.82001 0.84561 0.0
C2370 C 0.45285 0.80474 0.81472 0.0
C2371 C 0.4374 0.81326 0.82872 0.0
C2372 C 0.4471 0.8255 0.85118 0.0
C2373 C 0.47092 0.82849 0.85925 0.0
C2374 C 0.44392 0.7912 0.79096 0.0
C2375 C 0.432 0.83467 0.86731 0.0
C2376 C 0.37619 0.818 0.80099 0.0
C2377 C 0.36128 0.79904 0.80726 0.0
C2378 C 0.40047 0.82279 0.80772 0.0
C2379 C 0.41112 0.80812 0.82087 0.0
C2380 C 0.39621 0.78882 0.8271 0.0
C2381 C 0.37199 0.78469 0.82041 0.0
C2382 C 0.4148 0.84387 0.80085 0.0
C2383 C 0.40542 0.77191 0.84074 0.0
H2384 H 0.48779 0.80045 0.8127 0.0
H2385 H 0.47755 0.83719 0.87678 0.0
H2386 H 0.43174 0.77537 0.79311 0.0
H2387 H 0.43439 0.80109 0.77991 0.0
H2388 H 0.45786 0.78654 0.78158 0.0
H2389 H 0.44198 0.84509 0.88351 0.0
H2390 H 0.42177 0.84525 0.85804 0.0
H2391 H 0.4198 0.82026 0.87246 0.0
H2392 H 0.36894 0.82913 0.79047 0.0
H2393 H 0.36139 0.77 0.82572 0.0
H2394 H 0.42832 0.83923 0.79086 0.0
H2395 H 0.42347 0.8554 0.81692 0.0
H2396 H 0.4045 0.85326 0.78996 0.0
H2397 H 0.42357 0.77782 0.84853 0.0
H2398 H 0.40385 0.75586 0.8288 0.0
H2399 H 0.39504 0.76792 0.85513 0.0
C2400 C 0.52015 0.1922 0.13619 0.0
C2401 C 0.51291 0.19101 0.1585 0.0
C2402 C 0.52138 0.17246 0.12114 0.0
C2403 C 0.51663 0.15066 0.12887 0.0
C2404 C 0.51017 0.1494 0.15178 0.0
C2405 C 0.50818 0.16939 0.16609 0.0
C2406 C 0.52774 0.17495 0.09681 0.0
C2407 C 0.50583 0.12696 0.16147 0.0
C2408 C 0.50257 0.09572 0.08393 0.0
C2409 C 0.52425 0.09097 0.08197 0.0
C2410 C 0.49979 0.11494 0.09888 0.0
C2411 C 0.51905 0.1295 0.11318 0.0
C2412 C 0.54088 0.12407 0.11187 0.0
C2413 C 0.54327 0.10542 0.09593 0.0
C2414 C 0.47606 0.11943 0.09926 0.0
C2415 C 0.56183 0.13782 0.12758 0.0
H2416 H 0.52544 0.20875 0.13061 0.0
H2417 H 0.50329 0.16813 0.18352 0.0
H2418 H 0.54316 0.16804 0.09427 0.0
H2419 H 0.51364 0.1649 0.08351 0.0
H2420 H 0.53121 0.19296 0.09339 0.0
H2421 H 0.50446 0.12916 0.18058 0.0
H2422 H 0.48963 0.11606 0.15216 0.0
H2423 H 0.51978 0.11782 0.1585 0.0
H2424 H 0.48775 0.08473 0.07322 0.0
H2425 H 0.56009 0.10183 0.09469 0.0
H2426 H 0.47643 0.13789 0.10244 0.0
H2427 H 0.46826 0.11135 0.11367 0.0
H2428 H 0.46486 0.11209 0.08251 0.0
H2429 H 0.56639 0.15511 0.12235 0.0
H2430 H 0.57685 0.12976 0.12674 0.0
H2431 H 0.5583 0.13987 0.14609 0.0
C2432 C 0.12194 0.30138 0.34574 0.0
C2433 C 0.11272 0.32027 0.3401 0.0
C2434 C 0.14298 0.29719 0.33835 0.0
C2435 C 0.15623 0.3123 0.32511 0.0
C2436 C 0.14722 0.3316 0.31973 0.0
C2437 C 0.12588 0.33511 0.32686 0.0
C2438 C 0.15098 0.27622 0.34464 0.0
C2439 C 0.1603 0.34882 0.30635 0.0
C2440 C 0.22176 0.31229 0.32444 0.0
C2441 C 0.22296 0.30049 0.30218 0.0
C2442 C 0.20069 0.31616 0.33193 0.0
C2443 C 0.17933 0.3081 0.31718 0.0
C2444 C 0.18038 0.29608 0.29473 0.0
C2445 C 0.20176 0.29267 0.2876 0.0
C2446 C 0.20148 0.32937 0.35579 0.0
C2447 C 0.15869 0.28638 0.27814 0.0
H2448 H 0.11239 0.28939 0.35562 0.0
H2449 H 0.11952 0.34978 0.32205 0.0
H2450 H 0.153 0.2656 0.3284 0.0
H2451 H 0.16801 0.28119 0.3555 0.0
H2452 H 0.13891 0.26574 0.35449 0.0
H2453 H 0.15164 0.36316 0.30377 0.0
H2454 H 0.17773 0.35579 0.31594 0.0
H2455 H 0.16234 0.34045 0.28888 0.0
H2456 H 0.23751 0.31861 0.33629 0.0
H2457 H 0.20178 0.28392 0.27032 0.0
H2458 H 0.18751 0.32129 0.36518 0.0
H2459 H 0.19902 0.34677 0.35352 0.0
H2460 H 0.21805 0.33078 0.36696 0.0
H2461 H 0.14796 0.27263 0.28584 0.0
H2462 H 0.16213 0.27924 0.26066 0.0
H2463 H 0.14862 0.29966 0.27568 0.0
C2464 C 0.98632 0.03028 0.20646 0.0
C2465 C 0.96475 0.01638 0.20732 0.0
C2466 C 0.99463 0.03418 0.18482 0.0
C2467 C 0.98143 0.02356 0.16312 0.0
C2468 C 0.95971 0.00933 0.16389 0.0
C2469 C 0.95158 1.00617 0.18578 0.0
C2470 C 0.01763 0.04982 0.1852 0.0
C2471 C 0.94515 0.99709 0.14152 0.0
C2472 C 0.99423 0.0472 0.10496 0.0
C2473 C 1.00895 0.03381 0.09646 0.0
C2474 C 0.98537 0.04425 0.12655 0.0
C2475 C 0.99059 0.02692 0.1398 0.0
C2476 C 1.00494 0.01295 0.13081 0.0
C2477 C 0.01419 0.01683 0.10969 0.0
C2478 C 0.97076 0.06005 0.13544 0.0
C2479 C 0.01051 0.99373 0.14348 0.0
H2480 H 0.9967 0.03844 0.22281 0.0
H2481 H 0.93494 0.99534 0.18601 0.0
H2482 H 0.02959 0.04016 0.17761 0.0
H2483 H 0.01589 0.06349 0.17415 0.0
H2484 H 0.02531 0.05779 0.20327 0.0
H2485 H 0.92885 0.9864 0.14492 0.0
H2486 H 0.9411 0.00959 0.12984 0.0
H2487 H 0.95475 0.98606 0.13187 0.0
H2488 H 0.99016 0.06046 0.09504 0.0
H2489 H 0.02531 1.00619 0.10324 0.0
H2490 H 0.9787 0.06908 0.15305 0.0
H2491 H 0.95365 0.05013 0.13749 0.0
H2492 H 0.96853 0.07289 0.12346 0.0
H2493 H 0.02031 1.00065 0.16101 0.0
H2494 H 0.02072 0.98353 0.13357 0.0
H2495 H 0.99449 0.98225 0.14636 0.0
C2496 C 0.26704 0.68265 0.48986 0.0
C2497 C 0.26795 0.65954 0.48607 0.0
C2498 C 0.262 0.69438 0.47102 0.0
C2499 C 0.25814 0.68278 0.44788 0.0
C2500 C 0.26093 0.66007 0.44376 0.0
C2501 C 0.26571 0.64864 0.46296 0.0
C2502 C 0.25915 0.71865 0.47605 0.0
C2503 C 0.25748 0.64741 0.41919 0.0
C2504 C 0.21653 0.70144 0.40405 0.0
C2505 C 0.2314 0.71518 0.39177 0.0
C2506 C 0.22509 0.69075 0.42238 0.0
C2507 C 0.24906 0.69371 0.4283 0.0
C2508 C 0.26419 0.70742 0.4159 0.0
C2509 C 0.25517 0.71822 0.39796 0.0
C2510 C 0.20848 0.67634 0.43546 0.0
C2511 C 0.28984 0.7107 0.42162 0.0
H2512 H 0.2689 0.6913 0.50763 0.0
H2513 H 0.26666 0.63086 0.45986 0.0
H2514 H 0.26878 0.72966 0.46469 0.0
H2515 H 0.24082 0.71918 0.47201 0.0
H2516 H 0.26505 0.72592 0.49471 0.0
H2517 H 0.26327 0.63103 0.41879 0.0
H2518 H 0.23905 0.6437 0.41207 0.0
H2519 H 0.26688 0.65798 0.40731 0.0
H2520 H 0.1982 0.69885 0.39917 0.0
H2521 H 0.26679 0.72922 0.38886 0.0
H2522 H 0.21167 0.68299 0.45447 0.0
H2523 H 0.21107 0.6586 0.43377 0.0
H2524 H 0.19036 0.67602 0.42884 0.0
H2525 H 0.29545 0.71925 0.43988 0.0
H2526 H 0.29921 0.72107 0.40952 0.0
H2527 H 0.2948 0.69393 0.42059 0.0
C2528 C 0.65703 0.0586 0.67713 0.0
C2529 C 0.64923 0.04802 0.69607 0.0
C2530 C 0.6422 0.05752 0.65634 0.0
C2531 C 0.61923 0.04553 0.65465 0.0
C2532 C 0.61152 0.03423 0.67345 0.0
C2533 C 0.62664 0.03562 0.69395 0.0
C2534 C 0.65088 0.06971 0.63651 0.0
C2535 C 0.58715 0.0211 0.67212 0.0
C2536 C 0.57225 0.05883 0.61282 0.0
C2537 C 0.56914 0.04067 0.5948 0.0
C2538 C 0.58917 0.06113 0.63212 0.0
C2539 C 0.60301 0.04475 0.63332 0.0
C2540 C 0.60011 0.02658 0.61495 0.0
C2541 C 0.5831 0.02471 0.59592 0.0
C2542 C 0.59195 0.08078 0.65144 0.0
C2543 C 0.61455 0.00881 0.61567 0.0
H2544 H 0.67447 0.06828 0.67879 0.0
H2545 H 0.62058 0.02733 0.70853 0.0
H2546 H 0.64728 0.05787 0.61984 0.0
H2547 H 0.64178 0.08368 0.63382 0.0
H2548 H 0.66956 0.07705 0.64004 0.0
H2549 H 0.58408 0.01285 0.68813 0.0
H2550 H 0.57516 0.03272 0.66983 0.0
H2551 H 0.58298 0.00775 0.65663 0.0
H2552 H 0.56155 0.07127 0.61176 0.0
H2553 H 0.58055 0.01053 0.58204 0.0
H2554 H 0.61001 0.09028 0.65479 0.0
H2555 H 0.58764 0.07419 0.66799 0.0
H2556 H 0.58082 0.0928 0.6471 0.0
H2557 H 0.63299 0.01708 0.61876 0.0
H2558 H 0.61123 0.99675 0.59913 0.0
H2559 H 0.61093 0.99895 0.63049 0.0
C2560 C 0.3214 0.34992 0.96283 0.0
C2561 C 0.3019 0.35526 0.97142 0.0
C2562 C 0.32035 0.33922 0.93959 0.0
C2563 C 0.29916 0.33317 0.92457 0.0
C2564 C 0.27919 0.33748 0.93374 0.0
C2565 C 0.28091 0.34886 0.95676 0.0
C2566 C 0.3422 0.33561 0.93069 0.0
C2567 C 0.25604 0.33148 0.91901 0.0
C2568 C 0.29839 0.33126 0.8578 0.0
C2569 C 0.29535 0.30789 0.85006 0.0
C2570 C 0.3 0.33961 0.88183 0.0
C2571 C 0.29826 0.32428 0.89887 0.0
C2572 C 0.29526 0.30062 0.89116 0.0
C2573 C 0.29403 0.29274 0.86695 0.0
C2574 C 0.3033 0.36493 0.88893 0.0
C2575 C 0.2926 0.28353 0.90843 0.0
H2576 H 0.33779 0.35538 0.97385 0.0
H2577 H 0.26584 0.35338 0.96306 0.0
H2578 H 0.34051 0.31742 0.92384 0.0
H2579 H 0.34548 0.34561 0.91589 0.0
H2580 H 0.35722 0.34078 0.94457 0.0
H2581 H 0.24224 0.32692 0.93009 0.0
H2582 H 0.25306 0.34666 0.91092 0.0
H2583 H 0.25462 0.31716 0.90483 0.0
H2584 H 0.29957 0.34317 0.84496 0.0
H2585 H 0.29147 0.27465 0.86119 0.0
H2586 H 0.31815 0.37099 0.90288 0.0
H2587 H 0.28795 0.36865 0.89629 0.0
H2588 H 0.30612 0.37474 0.87389 0.0
H2589 H 0.30757 0.28754 0.92233 0.0
H2590 H 0.29084 0.26581 0.89983 0.0
H2591 H 0.27722 0.28457 0.91719 0.0
C2592 C 0.98638 0.0218 0.34919 0.0
C2593 C 0.96236 0.01843 0.34614 0.0
C2594 C 0.99903 0.02342 0.37184 0.0
C2595 C 0.9875 0.02111 0.39202 0.0
C2596 C 0.96332 0.01759 0.38895 0.0
C2597 C 0.95124 0.0166 0.36641 0.0
C2598 C 0.02478 0.02783 0.37423 0.0
C2599 C 0.95002 0.01475 0.4096 0.0
C2600 C 0.01388 1.00444 0.4498 0.0
C2601 C 0.01812 0.02496 0.46504 0.0
C2602 C 1.00488 1.00307 0.42582 0.0
C2603 C 1.00032 0.02281 0.4165 0.0
C2604 C 1.00582 0.04383 0.43157 0.0
C2605 C 0.01431 0.04455 0.45552 0.0
C2606 C 0.99916 0.9802 0.41077 0.0
C2607 C 1.00193 0.06554 0.42271 0.0
H2608 H 0.99533 0.02332 0.33393 0.0
H2609 H 0.93277 0.01398 0.36472 0.0
H2610 H 0.03218 0.04375 0.38634 0.0
H2611 H 0.03095 0.0138 0.38205 0.0
H2612 H 0.03132 0.02942 0.35706 0.0
H2613 H 0.93122 0.01092 0.40421 0.0
H2614 H 0.95446 1.00075 0.41892 0.0
H2615 H 0.95468 0.03056 0.42233 0.0
H2616 H 0.01648 0.98917 0.45681 0.0
H2617 H 0.0179 0.06059 0.46695 0.0
H2618 H 1.00654 0.98141 0.39403 0.0
H2619 H 0.98031 0.97471 0.40625 0.0
H2620 H 1.00558 0.96692 0.41979 0.0
H2621 H 1.00682 0.06654 0.4048 0.0
H2622 H 0.01182 0.08085 0.43452 0.0
H2623 H 0.98348 0.06586 0.42171 0.0
C2624 C 0.26992 0.67105 0.63843 0.0
C2625 C 0.28099 0.67961 0.62007 0.0
C2626 C 0.27113 0.68486 0.65987 0.0
C2627 C 0.28384 0.70758 0.66292 0.0
C2628 C 0.29582 0.71594 0.64479 0.0
C2629 C 0.29418 0.70186 0.62354 0.0
C2630 C 0.25814 0.67545 0.6789 0.0
C2631 C 0.3098 0.74001 0.64755 0.0
C2632 C 0.26945 0.75281 0.70593 0.0
C2633 C 0.28688 0.75487 0.72463 0.0
C2634 C 0.26783 0.73693 0.68594 0.0
C2635 C 0.28415 0.723 0.68473 0.0
C2636 C 0.30165 0.72489 0.70371 0.0
C2637 C 0.30292 0.74099 0.72338 0.0
C2638 C 0.24892 0.7353 0.66598 0.0
C2639 C 0.31931 0.7103 0.70306 0.0
H2640 H 0.25962 0.65387 0.63574 0.0
H2641 H 0.30288 0.70848 0.60942 0.0
H2642 H 0.26953 0.67834 0.69588 0.0
H2643 H 0.24409 0.68452 0.68149 0.0
H2644 H 0.25063 0.65693 0.67453 0.0
H2645 H 0.3189 0.74353 0.63214 0.0
H2646 H 0.29847 0.75228 0.64986 0.0
H2647 H 0.32262 0.7432 0.66352 0.0
H2648 H 0.25701 0.76353 0.707 0.0
H2649 H 0.31669 0.74287 0.73767 0.0
H2650 H 0.239 0.7175 0.66171 0.0
H2651 H 0.25639 0.74008 0.64999 0.0
H2652 H 0.23699 0.74658 0.67018 0.0
H2653 H 0.31081 0.69204 0.6987 0.0
H2654 H 0.33063 0.7126 0.72006 0.0
H2655 H 0.33008 0.71468 0.68907 0.0
C2656 C 0.66928 0.04061 0.84023 0.0
C2657 C 0.67562 0.05932 0.8283 0.0
C2658 C 0.6552 0.0419 0.85798 0.0
C2659 C 0.64758 0.06232 0.8635 0.0
C2660 C 0.65463 0.0814 0.85178 0.0
C2661 C 0.6685 0.07957 0.83415 0.0
C2662 C 0.64818 0.02146 0.87052 0.0
C2663 C 0.64718 0.10361 0.85747 0.0
C2664 C 0.59384 0.06669 0.88972 0.0
C2665 C 0.60295 0.07732 0.91246 0.0
C2666 C 0.6081 0.05993 0.87398 0.0
C2667 C 0.63194 0.06407 0.88126 0.0
C2668 C 0.64102 0.07341 0.90464 0.0
C2669 C 0.62637 0.07999 0.92003 0.0
C2670 C 0.59788 0.04981 0.84915 0.0
C2671 C 0.66637 0.07816 0.91297 0.0
H2672 H 0.67486 0.02497 0.83531 0.0
H2673 H 0.6735 0.09388 0.82457 0.0
H2674 H 0.65262 0.02632 0.88981 0.0
H2675 H 0.62935 0.01523 0.86693 0.0
H2676 H 0.65654 0.00731 0.86497 0.0
H2677 H 0.65469 0.1169 0.84698 0.0
H2678 H 0.62826 0.1008 0.85401 0.0
H2679 H 0.65233 0.11014 0.8764 0.0
H2680 H 0.57562 0.06413 0.88409 0.0
H2681 H 0.63346 0.0882 0.93764 0.0
H2682 H 0.6047 0.03461 0.8436 0.0
H2683 H 0.60272 0.06247 0.83699 0.0
H2684 H 0.57891 0.04486 0.84724 0.0
H2685 H 0.67482 0.06545 0.90425 0.0
H2686 H 0.6696 0.07811 0.93219 0.0
H2687 H 0.67443 0.09524 0.90891 0.0
C2688 C 0.29496 0.33881 0.11029 0.0
C2689 C 0.30736 0.36092 0.10912 0.0
C2690 C 0.29158 0.33068 0.13204 0.0
C2691 C 0.30121 0.34468 0.15354 0.0
C2692 C 0.31392 0.36698 0.15248 0.0
C2693 C 0.31659 0.37488 0.13044 0.0
C2694 C 0.27751 0.30701 0.13198 0.0
C2695 C 0.32503 0.38243 0.17471 0.0
C2696 C 0.27696 0.33052 0.21083 0.0
C2697 C 0.29143 0.31701 0.21987 0.0
C2698 C 0.27985 0.33953 0.18938 0.0
C2699 C 0.29824 0.33579 0.17694 0.0
C2700 C 0.31337 0.32281 0.18658 0.0
C2701 C 0.30952 0.31327 0.20752 0.0
C2702 C 0.2628 0.35254 0.17967 0.0
C2703 C 0.33368 0.3189 0.17472 0.0
H2704 H 0.28756 0.32783 0.09408 0.0
H2705 H 0.32624 0.39195 0.12991 0.0
H2706 H 0.28825 0.29628 0.14023 0.0
H2707 H 0.26327 0.30774 0.14257 0.0
H2708 H 0.27023 0.29861 0.11394 0.0
H2709 H 0.3348 0.39904 0.17107 0.0
H2710 H 0.31181 0.38567 0.18586 0.0
H2711 H 0.33682 0.37402 0.18503 0.0
H2712 H 0.26283 0.33335 0.22012 0.0
H2713 H 0.32094 0.30304 0.21447 0.0
H2714 H 0.25428 0.34385 0.16212 0.0
H2715 H 0.27168 0.36989 0.17724 0.0
H2716 H 0.24947 0.35404 0.19131 0.0
H2717 H 0.3277 0.30833 0.15742 0.0
H2718 H 0.34494 0.3102 0.18541 0.0
H2719 H 0.34395 0.33539 0.17142 0.0
C2720 C 0.22835 0.94478 1.00217 0.0
C2721 C 0.24609 0.9614 0.99666 0.0
C2722 C 0.20938 0.95087 0.01104 0.0
C2723 C 0.20847 0.97414 0.01487 0.0
C2724 C 0.22551 0.99083 0.00775 0.0
C2725 C 0.24406 0.98418 0.99839 0.0
C2726 C 0.19119 0.93257 0.01788 0.0
C2727 C 0.22513 0.01585 0.01176 0.0
C2728 C 0.15398 0.99053 0.03059 0.0
C2729 C 0.15856 0.99455 0.05519 0.0
C2730 C 0.17004 0.98372 0.01712 0.0
C2731 C 0.19114 0.98115 0.02864 0.0
C2732 C 0.19575 0.98501 0.05351 0.0
C2733 C 0.17925 0.99153 0.06654 0.0
C2734 C 0.1645 0.97938 0.99066 0.0
C2735 C 0.21823 0.98261 0.06633 0.0
H2736 H 0.22979 0.92709 1.00051 0.0
H2737 H 0.25773 0.99703 0.99404 0.0
H2738 H 0.19264 0.93377 0.03732 0.0
H2739 H 0.17386 0.93494 0.01145 0.0
H2740 H 0.19279 0.91521 0.0108 0.0
H2741 H 0.2382 0.02631 1.00292 0.0
H2742 H 0.20803 0.01874 0.0053 0.0
H2743 H 0.22856 0.02191 0.0309 0.0
H2744 H 0.13783 0.99281 0.02191 0.0
H2745 H 0.18278 0.99494 0.08555 0.0
H2746 H 0.16555 0.96169 0.98424 0.0
H2747 H 0.17725 0.99094 0.98253 0.0
H2748 H 0.14716 0.98193 0.98448 0.0
H2749 H 0.22062 0.96493 0.06232 0.0
H2750 H 0.21925 0.98671 0.08569 0.0
H2751 H 0.23262 0.99408 0.06025 0.0
C2752 C 0.70526 0.62946 0.02154 0.0
C2753 C 0.70396 0.64997 0.01263 0.0
C2754 C 0.68546 0.61354 0.0242 0.0
C2755 C 0.66362 0.61867 0.01907 0.0
C2756 C 0.66219 0.63964 0.01061 0.0
C2757 C 0.68233 0.65497 0.00741 0.0
C2758 C 0.68792 0.59111 0.03233 0.0
C2759 C 0.63934 0.64592 0.00503 0.0
C2760 C 0.60932 0.57133 0.00742 0.0
C2761 C 0.60286 0.57033 0.02993 0.0
C2762 C 0.62904 0.58669 1.00358 0.0
C2763 C 0.64242 0.60207 0.02268 0.0
C2764 C 0.63554 0.60139 0.04545 0.0
C2765 C 0.61619 0.58515 0.04888 0.0
C2766 C 0.6347 0.58631 0.97875 0.0
C2767 C 0.6479 0.61858 0.066 0.0
H2768 H 0.72191 0.62597 0.02686 0.0
H2769 H 0.68118 0.671 1.00105 0.0
H2770 H 0.68047 0.58905 0.04891 0.0
H2771 H 0.67829 0.57689 0.01898 0.0
H2772 H 0.70606 0.58957 0.03535 0.0
H2773 H 0.64116 0.66362 1.00072 0.0
H2774 H 0.62924 0.63411 0.98979 0.0
H2775 H 0.6295 0.64412 0.02018 0.0
H2776 H 0.59874 0.5602 0.99263 0.0
H2777 H 0.6108 0.58483 0.0662 0.0
H2778 H 0.63638 0.56889 0.97206 0.0
H2779 H 0.65053 0.59857 0.97703 0.0
H2780 H 0.62031 0.59021 0.96729 0.0
H2781 H 0.66579 0.61663 0.07001 0.0
H2782 H 0.63943 0.61685 0.0821 0.0
H2783 H 0.64861 0.63609 0.06145 0.0
C2784 C 0.66389 0.47977 0.31005 0.0
C2785 C 0.66414 0.49635 0.29482 0.0
C2786 C 0.67592 0.46224 0.30634 0.0
C2787 C 0.68937 0.46201 0.28763 0.0
C2788 C 0.68855 0.47801 0.27145 0.0
C2789 C 0.67565 0.49478 0.27507 0.0
C2790 C 0.67568 0.44509 0.32355 0.0
C2791 C 0.70314 0.47895 0.25171 0.0
C2792 C 0.74573 0.44298 0.29842 0.0
C2793 C 0.74155 0.42215 0.2837 0.0
C2794 C 0.72882 0.45586 0.30002 0.0
C2795 C 0.70682 0.44753 0.28703 0.0
C2796 C 0.70207 0.42603 0.27296 0.0
C2797 C 0.71953 0.41366 0.27132 0.0
C2798 C 0.73478 0.47877 0.31514 0.0
C2799 C 0.67874 0.41637 0.2592 0.0
H2800 H 0.65538 0.48128 0.3256 0.0
H2801 H 0.67638 0.50803 0.2637 0.0
H2802 H 0.67428 0.42775 0.3142 0.0
H2803 H 0.69196 0.44945 0.33571 0.0
H2804 H 0.66131 0.44484 0.33417 0.0
H2805 H 0.69864 0.4906 0.23918 0.0
H2806 H 0.72141 0.48506 0.25919 0.0
H2807 H 0.70138 0.46176 0.2419 0.0
H2808 H 0.76244 0.44944 0.30857 0.0
H2809 H 0.71607 0.39767 0.25978 0.0
H2810 H 0.72318 0.47914 0.32879 0.0
H2811 H 0.73239 0.49236 0.30419 0.0
H2812 H 0.75271 0.48285 0.324 0.0
H2813 H 0.66524 0.41698 0.27078 0.0
H2814 H 0.67705 0.3985 0.25109 0.0
H2815 H 0.67559 0.42685 0.24502 0.0
C2816 C 0.86521 0.48318 0.51151 0.0
C2817 C 0.8585 0.46365 0.49497 0.0
C2818 C 0.888 0.49509 0.51561 0.0
C2819 C 0.90414 0.48745 0.50239 0.0
C2820 C 0.89702 0.46859 0.48454 0.0
C2821 C 0.87431 0.45642 0.48154 0.0
C2822 C 0.89504 0.51482 0.53511 0.0
C2823 C 0.91352 0.46082 0.46919 0.0
C2824 C 0.96206 0.52696 0.50594 0.0
C2825 C 0.9758 0.51646 0.52048 0.0
C2826 C 0.93882 0.5174 0.49935 0.0
C2827 C 0.92879 0.49771 0.50874 0.0
C2828 C 0.94242 0.4875 0.52416 0.0
C2829 C 0.96593 0.49662 0.52922 0.0
C2830 C 0.92523 0.52843 0.48225 0.0
C2831 C 0.93224 0.4669 0.53523 0.0
H2832 H 0.85287 0.48835 0.52217 0.0
H2833 H 0.86892 0.44116 0.46888 0.0
H2834 H 0.90716 0.5106 0.54903 0.0
H2835 H 0.90404 0.53017 0.52836 0.0
H2836 H 0.88017 0.51904 0.54315 0.0
H2837 H 0.90459 0.44808 0.45407 0.0
H2838 H 0.92363 0.47559 0.46235 0.0
H2839 H 0.92574 0.45305 0.47971 0.0
H2840 H 0.96953 0.54229 0.499 0.0
H2841 H 0.97655 0.48819 0.53998 0.0
H2842 H 0.91541 0.539 0.49213 0.0
H2843 H 0.91302 0.51538 0.46957 0.0
H2844 H 0.93643 0.53967 0.47225 0.0
H2845 H 0.91735 0.47008 0.54388 0.0
H2846 H 0.94484 0.46241 0.54851 0.0
H2847 H 0.92597 0.45203 0.52147 0.0
C2848 C 0.34176 0.08858 0.31184 0.0
C2849 C 0.36351 0.08408 0.30971 0.0
C2850 C 0.33512 0.1072 0.30279 0.0
C2851 C 0.35087 0.12205 0.292 0.0
C2852 C 0.37345 0.11867 0.2915 0.0
C2853 C 0.37943 0.09948 0.30007 0.0
C2854 C 0.31073 0.10992 0.3032 0.0
C2855 C 0.3909 0.13461 0.28077 0.0
C2856 C 0.32753 0.14971 0.24167 0.0
C2857 C 0.32775 0.17149 0.25275 0.0
C2858 C 0.33474 0.13339 0.25441 0.0
C2859 C 0.3429 0.13928 0.27868 0.0
C2860 C 0.34321 0.16133 0.28998 0.0
C2861 C 0.33528 0.17716 0.27687 0.0
C2862 C 0.3335 0.10981 0.2419 0.0
C2863 C 0.35221 0.16827 0.31572 0.0
H2864 H 0.32937 0.07681 0.31936 0.0
H2865 H 0.39636 0.09625 0.29868 0.0
H2866 H 0.31025 0.12771 0.30978 0.0
H2867 H 0.30151 0.10607 0.28504 0.0
H2868 H 0.30137 0.09837 0.31434 0.0
H2869 H 0.40843 0.13156 0.28482 0.0
H2870 H 0.38631 0.13221 0.26139 0.0
H2871 H 0.39097 0.1526 0.28722 0.0
H2872 H 0.32139 0.14537 0.22305 0.0
H2873 H 0.3354 0.1941 0.28532 0.0
H2874 H 0.32313 0.09686 0.25087 0.0
H2875 H 0.35091 0.10619 0.24254 0.0
H2876 H 0.32585 0.10779 0.2232 0.0
H2877 H 0.34257 0.1566 0.32651 0.0
H2878 H 0.351 0.18599 0.3219 0.0
H2879 H 0.37038 0.16689 0.31885 0.0
C2880 C 0.33255 0.14594 0.49832 0.0
C2881 C 0.32409 0.15973 0.51496 0.0
C2882 C 0.35112 0.13593 0.50468 0.0
C2883 C 0.3616 0.13968 0.52833 0.0
C2884 C 0.35428 0.15492 0.54484 0.0
C2885 C 0.33566 0.16481 0.53796 0.0
C2886 C 0.35837 0.11998 0.48643 0.0
C2887 C 0.36501 0.15948 0.57022 0.0
C2888 C 0.38468 0.09174 0.55343 0.0
C2889 C 0.40839 0.09938 0.55465 0.0
C2890 C 0.36937 0.1044 0.54432 0.0
C2891 C 0.37795 0.12546 0.53639 0.0
C2892 C 0.40192 0.13288 0.53673 0.0
C2893 C 0.41689 0.11967 0.54579 0.0
C2894 C 0.34399 0.09557 0.54398 0.0
C2895 C 0.41177 0.15518 0.52846 0.0
H2896 H 0.32387 0.14198 0.48044 0.0
H2897 H 0.32924 0.17527 0.55101 0.0
H2898 H 0.37728 0.12352 0.48732 0.0
H2899 H 0.35275 0.10217 0.48996 0.0
H2900 H 0.35085 0.12134 0.46832 0.0
H2901 H 0.35938 0.17369 0.58018 0.0
H2902 H 0.36019 0.14393 0.57878 0.0
H2903 H 0.38394 0.16362 0.57143 0.0
H2904 H 0.37812 0.07605 0.5603 0.0
H2905 H 0.43524 0.12574 0.54698 0.0
H2906 H 0.33493 0.09454 0.52598 0.0
H2907 H 0.33702 0.10753 0.55567 0.0
H2908 H 0.34008 0.07846 0.54985 0.0
H2909 H 0.40328 0.1561 0.51065 0.0
H2910 H 0.43051 0.15764 0.52801 0.0
H2911 H 0.40849 0.16946 0.54042 0.0
C2912 C 0.67506 0.63591 0.31492 0.0
C2913 C 0.67875 0.61452 0.30646 0.0
C2914 C 0.6909 0.65608 0.31303 0.0
C2915 C 0.71071 0.65489 0.302 0.0
C2916 C 0.71463 0.63325 0.29382 0.0
C2917 C 0.69852 0.61343 0.29588 0.0
C2918 C 0.68631 0.67873 0.32254 0.0
C2919 C 0.73563 0.63103 0.2824 0.0
C2920 C 0.73683 0.70587 0.27256 0.0
C2921 C 0.75596 0.71656 0.28883 0.0
C2922 C 0.7222 0.68576 0.27655 0.0
C2923 C 0.7265 0.67622 0.29758 0.0
C2924 C 0.74592 0.68704 0.31402 0.0
C2925 C 0.76053 0.70686 0.3093 0.0
C2926 C 0.70192 0.67491 0.25838 0.0
C2927 C 0.75163 0.67788 0.33662 0.0
H2928 H 0.6597 0.63685 0.3229 0.0
H2929 H 0.70112 0.59701 0.28857 0.0
H2930 H 0.70121 0.68839 0.33511 0.0
H2931 H 0.68406 0.68901 0.30796 0.0
H2932 H 0.67078 0.67681 0.3316 0.0
H2933 H 0.73637 0.61297 0.27722 0.0
H2934 H 0.7359 0.63989 0.26651 0.0
H2935 H 0.75124 0.63934 0.29471 0.0
H2936 H 0.73321 0.71337 0.25671 0.0
H2937 H 0.77496 0.71537 0.32221 0.0
H2938 H 0.68583 0.67432 0.26629 0.0
H2939 H 0.70279 0.65708 0.25231 0.0
H2940 H 0.70107 0.68428 0.24286 0.0
H2941 H 0.73612 0.66892 0.34322 0.0
H2942 H 0.76112 0.69167 0.35054 0.0
H2943 H 0.76294 0.66579 0.33331 0.0
C2944 C 0.84678 0.46297 0.80533 0.0
C2945 C 0.86936 0.46896 0.81644 0.0
C2946 C 0.83501 0.44022 0.80135 0.0
C2947 C 0.84667 0.42308 0.8074 0.0
C2948 C 0.86977 0.42899 0.8179 0.0
C2949 C 0.8808 0.45198 0.82255 0.0
C2950 C 0.81022 0.43449 0.79056 0.0
C2951 C 0.88289 0.41103 0.82386 0.0
C2952 C 0.81202 0.36599 0.81599 0.0
C2953 C 0.81079 0.35346 0.79398 0.0
C2954 C 0.82384 0.3886 0.82068 0.0
C2955 C 0.83464 0.39894 0.8028 0.0
C2956 C 0.83367 0.38624 0.78049 0.0
C2957 C 0.8215 0.36359 0.77631 0.0
C2958 C 0.82416 0.40135 0.84463 0.0
C2959 C 0.8456 0.39645 0.76116 0.0
H2960 H 0.83849 0.47604 0.79924 0.0
H2961 H 0.89854 0.45668 0.83048 0.0
H2962 H 0.80804 0.42305 0.77376 0.0
H2963 H 0.7996 0.42524 0.80251 0.0
H2964 H 0.80364 0.44991 0.78706 0.0
H2965 H 0.90108 0.41846 0.83095 0.0
H2966 H 0.87481 0.40125 0.8371 0.0
H2967 H 0.88233 0.39877 0.80795 0.0
H2968 H 0.80419 0.35796 0.82977 0.0
H2969 H 0.82021 0.35393 0.75924 0.0
H2970 H 0.84112 0.41257 0.85105 0.0
H2971 H 0.81967 0.3897 0.85786 0.0
H2972 H 0.81129 0.41207 0.84322 0.0
H2973 H 0.83729 0.41002 0.75512 0.0
H2974 H 0.84514 0.38354 0.74579 0.0
H2975 H 0.86372 0.40444 0.76786 0.0
C2976 C 0.08245 0.87925 0.08808 0.0
C2977 C 0.06301 0.86149 0.08733 0.0
C2978 C 0.08078 0.90124 0.0814 0.0
C2979 C 0.05908 0.90661 0.07437 0.0
C2980 C 0.03947 0.8889 0.07428 0.0
C2981 C 0.04168 0.86695 0.08018 0.0
C2982 C 0.10247 0.91867 0.08123 0.0
C2983 C 0.0158 0.89311 0.06791 0.0
C2984 C 0.05327 0.97063 0.07745 0.0
C2985 C 0.05045 0.97462 0.05371 0.0
C2986 C 0.05591 0.94906 0.08426 0.0
C2987 C 0.05672 0.93038 0.06721 0.0
C2988 C 0.05444 0.93451 0.0432 0.0
C2989 C 0.05117 0.9561 0.03686 0.0
C2990 C 0.05734 0.94617 0.10997 0.0
C2991 C 0.0555 0.91602 0.02391 0.0
H2992 H 0.09915 0.87575 0.09312 0.0
H2993 H 0.0263 0.85387 0.07939 0.0
H2994 H 0.10305 0.92401 0.06344 0.0
H2995 H 0.10277 0.9341 0.09361 0.0
H2996 H 0.11804 0.91205 0.08619 0.0
H2997 H 1.00218 0.87884 0.07108 0.0
H2998 H 0.01383 0.90902 0.07825 0.0
H2999 H 0.0132 0.89538 0.04907 0.0
H3000 H 0.05299 0.98441 0.09096 0.0
H3001 H 0.0496 0.9586 0.01851 0.0
H3002 H 0.07417 0.94249 0.11612 0.0
H3003 H 0.04398 0.93143 0.1126 0.0
H3004 H 0.05513 0.96157 0.12106 0.0
H3005 H 0.07052 0.9084 0.0283 0.0
H3006 H 0.05659 0.92245 0.00665 0.0
H3007 H 0.03996 0.90227 0.0222 0.0
C3008 C 0.94324 0.26535 0.88693 0.0
C3009 C 0.94759 0.27497 0.9107 0.0
C3010 C 0.92316 0.26662 0.87213 0.0
C3011 C 0.90613 0.27705 0.88123 0.0
C3012 C 0.91007 0.28607 0.90549 0.0
C3013 C 0.93053 0.28489 0.9198 0.0
C3014 C 0.92026 0.25696 0.84653 0.0
C3015 C 0.89276 0.29736 0.91631 0.0
C3016 C 0.86557 0.29924 0.83676 0.0
C3017 C 0.846 0.28166 0.83219 0.0
C3018 C 0.88436 0.29851 0.8534 0.0
C3019 C 0.88472 0.27906 0.86522 0.0
C3020 C 0.86467 0.2613 0.86096 0.0
C3021 C 0.84554 0.26295 0.84486 0.0
C3022 C 0.90382 0.31883 0.85767 0.0
C3023 C 0.8634 0.2405 0.87345 0.0
H3024 H 0.95559 0.25663 0.87984 0.0
H3025 H 0.93331 0.29205 0.93817 0.0
H3026 H 0.90429 0.24367 0.84213 0.0
H3027 H 0.91861 0.27062 0.83543 0.0
H3028 H 0.93485 0.24938 0.84196 0.0
H3029 H 0.89746 0.30235 0.93557 0.0
H3030 H 0.89128 0.31284 0.90799 0.0
H3031 H 0.87565 0.28572 0.91296 0.0
H3032 H 0.8661 0.31403 0.82753 0.0
H3033 H 0.83044 0.24928 0.84173 0.0
H3034 H 0.91437 0.31756 0.84323 0.0
H3035 H 0.91441 0.31995 0.87483 0.0
H3036 H 0.89745 0.33483 0.85708 0.0
H3037 H 0.87667 0.23121 0.86841 0.0
H3038 H 0.84639 0.2287 0.86926 0.0
H3039 H 0.867 0.24567 0.89275 0.0
C3040 C 0.54966 0.21537 0.60609 0.0
C3041 C 0.55866 0.23277 0.59306 0.0
C3042 C 0.54741 0.19174 0.59813 0.0
C3043 C 0.5546 0.18444 0.57639 0.0
C3044 C 0.56361 0.20192 0.563 0.0
C3045 C 0.56577 0.22554 0.5715 0.0
C3046 C 0.53752 0.17447 0.61332 0.0
C3047 C 0.57135 0.19567 0.53967 0.0
C3048 C 0.56792 0.12325 0.56729 0.0
C3049 C 0.54773 0.10976 0.5541 0.0
C3050 C 0.57056 0.14722 0.57416 0.0
C3051 C 0.55261 0.15872 0.568 0.0
C3052 C 0.53228 0.14511 0.55461 0.0
C3053 C 0.53014 0.12129 0.54794 0.0
C3054 C 0.59263 0.16026 0.58839 0.0
C3055 C 0.5126 0.15575 0.54689 0.0
H3056 H 0.54448 0.2203 0.62297 0.0
H3057 H 0.57361 0.23842 0.56145 0.0
H3058 H 0.52221 0.16258 0.60331 0.0
H3059 H 0.55021 0.16417 0.61828 0.0
H3060 H 0.53252 0.18254 0.62962 0.0
H3061 H 0.57758 0.21087 0.53102 0.0
H3062 H 0.58527 0.1862 0.54215 0.0
H3063 H 0.55698 0.18422 0.52776 0.0
H3064 H 0.58163 0.11497 0.57272 0.0
H3065 H 0.5144 0.1116 0.53771 0.0
H3066 H 0.58913 0.16794 0.6056 0.0
H3067 H 0.60048 0.17443 0.57915 0.0
H3068 H 0.60516 0.1493 0.59157 0.0
H3069 H 0.50842 0.16653 0.56191 0.0
H3070 H 0.49697 0.14285 0.53922 0.0
H3071 H 0.51769 0.1668 0.53337 0.0
C3072 C 0.58715 0.78624 0.43233 0.0
C3073 C 0.56653 0.776 0.41802 0.0
C3074 C 0.60818 0.7897 0.42282 0.0
C3075 C 0.60842 0.78341 0.39837 0.0
C3076 C 0.58782 0.77163 0.38444 0.0
C3077 C 0.56743 0.76777 0.39451 0.0
C3078 C 0.62983 0.80142 0.43864 0.0
C3079 C 0.58675 0.76494 0.35827 0.0
C3080 C 0.64809 0.81862 0.36248 0.0
C3081 C 0.66127 0.80327 0.35452 0.0
C3082 C 0.63182 0.81288 0.37783 0.0
C3083 C 0.629 0.79149 0.38636 0.0
C3084 C 0.64369 0.77675 0.38019 0.0
C3085 C 0.65941 0.78264 0.36416 0.0
C3086 C 0.61653 0.82919 0.38356 0.0
C3087 C 0.64201 0.75419 0.38957 0.0
H3088 H 0.5867 0.79292 0.45043 0.0
H3089 H 0.55167 0.75978 0.38331 0.0
H3090 H 0.6447 0.79462 0.43356 0.0
H3091 H 0.63334 0.81989 0.43707 0.0
H3092 H 0.62825 0.79942 0.45735 0.0
H3093 H 0.56961 0.75501 0.35012 0.0
H3094 H 0.59084 0.7805 0.34956 0.0
H3095 H 0.59961 0.75465 0.35465 0.0
H3096 H 0.64989 0.835 0.35605 0.0
H3097 H 0.66945 0.77057 0.35843 0.0
H3098 H 0.61695 0.8328 0.40286 0.0
H3099 H 0.59858 0.8213 0.37602 0.0
H3100 H 0.6216 0.84559 0.37649 0.0
H3101 H 0.63962 0.75597 0.40843 0.0
H3102 H 0.65749 0.74712 0.38753 0.0
H3103 H 0.62695 0.74176 0.37984 0.0
C3104 C 0.03143 0.23514 0.38687 0.0
C3105 C 0.04411 0.25584 0.39925 0.0
C3106 C 0.0275 0.21513 0.39776 0.0
C3107 C 0.0365 0.21571 0.42165 0.0
C3108 C 0.04987 0.23642 0.434 0.0
C3109 C 0.05346 0.25616 0.42271 0.0
C3110 C 0.01313 0.19349 0.38388 0.0
C3111 C 0.05982 0.23794 0.45942 0.0
C3112 C 1.00454 0.17151 0.45574 0.0
C3113 C 0.01829 0.15529 0.45606 0.0
C3114 C 0.01057 0.1914 0.44515 0.0
C3115 C 0.03069 0.1951 0.43411 0.0
C3116 C 0.0449 0.17894 0.43474 0.0
C3117 C 0.03863 0.15933 0.44589 0.0
C3118 C 0.9951 0.20826 0.44538 0.0
C3119 C 0.06634 0.18203 0.42303 0.0
H3120 H 0.02406 0.23466 0.36879 0.0
H3121 H 0.06332 0.27201 0.43249 0.0
H3122 H 0.02241 0.17939 0.38476 0.0
H3123 H 0.9971 0.18846 0.39167 0.0
H3124 H 1.00859 0.19539 0.36513 0.0
H3125 H 0.07101 0.25485 0.46614 0.0
H3126 H 0.04577 0.23478 0.47043 0.0
H3127 H 0.06993 0.22464 0.46161 0.0
H3128 H 0.98883 0.16847 0.46364 0.0
H3129 H 0.04918 0.14672 0.44588 0.0
H3130 H 0.98803 0.2095 0.42711 0.0
H3131 H 1.005 0.22544 0.45312 0.0
H3132 H 0.98063 0.2034 0.45556 0.0
H3133 H 0.0618 0.18191 0.40385 0.0
H3134 H 0.07599 0.16843 0.42577 0.0
H3135 H 0.0777 0.19878 0.42989 0.0
C3136 C 0.60528 0.26854 0.24301 0.0
C3137 C 0.5948 0.25749 0.22056 0.0
C3138 C 0.62921 0.27094 0.25056 0.0
C3139 C 0.6436 0.26177 0.23572 0.0
C3140 C 0.63298 0.25032 0.21321 0.0
C3141 C 0.60917 0.24853 0.20595 0.0
C3142 C 0.6392 0.28368 0.27449 0.0
C3143 C 0.64686 0.2398 0.19658 0.0
C3144 C 0.70962 0.28575 0.24378 0.0
C3145 C 0.719 0.27027 0.25658 0.0
C3146 C 0.68561 0.2834 0.23739 0.0
C3147 C 0.66966 0.26476 0.24326 0.0
C3148 C 0.67893 0.24897 0.25606 0.0
C3149 C 0.70308 0.25211 0.26278 0.0
C3150 C 0.67728 0.3012 0.22438 0.0
C3151 C 0.66327 0.2285 0.26259 0.0
H3152 H 0.59479 0.27565 0.25468 0.0
H3153 H 0.60172 0.23983 0.18864 0.0
H3154 H 0.64721 0.27248 0.28526 0.0
H3155 H 0.65289 0.29845 0.27266 0.0
H3156 H 0.62612 0.28994 0.28405 0.0
H3157 H 0.63618 0.23048 0.18022 0.0
H3158 H 0.66033 0.25325 0.19175 0.0
H3159 H 0.65563 0.22781 0.20536 0.0
H3160 H 0.72113 0.30018 0.2389 0.0
H3161 H 0.70943 0.24025 0.27302 0.0
H3162 H 0.665 0.30859 0.23418 0.0
H3163 H 0.66803 0.29326 0.20688 0.0
H3164 H 0.69149 0.31522 0.22188 0.0
H3165 H 0.65113 0.23409 0.27393 0.0
H3166 H 0.67283 0.21746 0.27202 0.0
H3167 H 0.65296 0.21824 0.2465 0.0
C3168 C 0.54628 0.88459 0.9257 0.0
C3169 C 0.55564 0.88779 0.9046 0.0
C3170 C 0.5439 0.90318 0.94191 0.0
C3171 C 0.55154 0.92604 0.93764 0.0
C3172 C 0.56154 0.92941 0.91666 0.0
C3173 C 0.56311 0.91047 0.9004 0.0
C3174 C 0.53255 0.89826 0.96342 0.0
C3175 C 0.57054 0.95317 0.91126 0.0
C3176 C 0.52672 0.97457 0.96825 0.0
C3177 C 0.54332 0.98379 0.98777 0.0
C3178 C 0.52913 0.95601 0.95201 0.0
C3179 C 0.54881 0.94624 0.95489 0.0
C3180 C 0.56568 0.95572 0.97457 0.0
C3181 C 0.56267 0.97408 0.9907 0.0
C3182 C 0.51036 0.94663 0.93183 0.0
C3183 C 0.5871 0.94649 0.9786 0.0
H3184 H 0.53999 0.86736 0.92925 0.0
H3185 H 0.57025 0.91349 0.88428 0.0
H3186 H 0.54433 0.90631 0.97956 0.0
H3187 H 0.51714 0.90576 0.96337 0.0
H3188 H 0.52736 0.87971 0.96434 0.0
H3189 H 0.5791 0.95316 0.89513 0.0
H3190 H 0.55628 0.9622 0.90886 0.0
H3191 H 0.58294 0.96298 0.92624 0.0
H3192 H 0.51164 0.98178 0.9658 0.0
H3193 H 0.5756 0.98094 0.00569 0.0
H3194 H 0.50356 0.92828 0.93253 0.0
H3195 H 0.5173 0.94802 0.91488 0.0
H3196 H 0.49601 0.9557 0.93207 0.0
H3197 H 0.58257 0.92835 0.98139 0.0
H3198 H 0.59903 0.9561 0.99406 0.0
H3199 H 0.59611 0.9472 0.96281 0.0
C3200 C 0.95265 0.77646 0.71668 0.0
C3201 C 0.965 0.76129 0.7265 0.0
C3202 C 0.93083 0.77931 0.72313 0.0
C3203 C 0.9202 0.76689 0.74022 0.0
C3204 C 0.93256 0.7514 0.75007 0.0
C3205 C 0.95445 0.74901 0.7434 0.0
C3206 C 0.9193 0.79623 0.71191 0.0
C3207 C 0.92279 0.73747 0.76819 0.0
C3208 C 0.87416 0.78982 0.77467 0.0
C3209 C 0.85268 0.77773 0.76267 0.0
C3210 C 0.89567 0.78671 0.76761 0.0
C3211 C 0.89676 0.77047 0.74807 0.0
C3212 C 0.87516 0.75778 0.73618 0.0
C3213 C 0.85387 0.76158 0.74336 0.0
C3214 C 0.91745 0.80123 0.78111 0.0
C3215 C 0.87445 0.73979 0.71577 0.0
H3216 H 0.96038 0.7867 0.70416 0.0
H3217 H 0.96359 0.73767 0.75187 0.0
H3218 H 0.90186 0.7877 0.70332 0.0
H3219 H 0.91739 0.80979 0.72564 0.0
H3220 H 0.92906 0.80427 0.6986 0.0
H3221 H 0.93346 0.72534 0.77344 0.0
H3222 H 0.92143 0.74894 0.78408 0.0
H3223 H 0.90524 0.72776 0.76123 0.0
H3224 H 0.87429 0.80184 0.78992 0.0
H3225 H 0.83796 0.75166 0.73367 0.0
H3226 H 0.92633 0.81245 0.76942 0.0
H3227 H 0.92919 0.79035 0.78709 0.0
H3228 H 0.91424 0.81204 0.79667 0.0
H3229 H 0.88441 0.74718 0.7023 0.0
H3230 H 0.85671 0.73208 0.7074 0.0
H3231 H 0.88254 0.72611 0.72194 0.0
C3232 C 0.13035 0.06483 0.89009 0.0
C3233 C 0.11905 0.05675 0.86715 0.0
C3234 C 0.1193 0.06177 0.91024 0.0
C3235 C 0.09623 0.04979 0.90792 0.0
C3236 C 0.08455 0.04165 0.88485 0.0
C3237 C 0.09596 0.04541 0.86481 0.0
C3238 C 0.13251 0.07135 0.93416 0.0
C3239 C 0.06011 0.02847 0.88136 0.0
C3240 C 0.07805 0.02483 0.96354 0.0
C3241 C 0.06549 0.04019 0.97265 0.0
C3242 C 0.08723 0.02718 0.94209 0.0
C3243 C 0.08466 0.04587 0.92973 0.0
C3244 C 0.07224 0.06161 0.93918 0.0
C3245 C 0.06246 0.05832 0.96012 0.0
C3246 C 0.09974 0.00958 0.93266 0.0
C3247 C 0.06974 0.08233 0.92749 0.0
H3248 H 0.14812 0.07368 0.89244 0.0
H3249 H 0.08699 0.03887 0.84736 0.0
H3250 H 0.12307 0.0825 0.94388 0.0
H3251 H 0.13429 0.0573 0.94465 0.0
H3252 H 0.14988 0.08135 0.93301 0.0
H3253 H 0.05337 0.02311 0.86248 0.0
H3254 H 0.05892 0.01308 0.89047 0.0
H3255 H 0.04903 0.03898 0.8893 0.0
H3256 H 0.08025 0.01064 0.97294 0.0
H3257 H 0.05288 0.07033 0.96709 0.0
H3258 H 0.11805 0.01751 0.93284 0.0
H3259 H 0.09258 1.00292 0.91412 0.0
H3260 H 0.09861 0.99508 0.94311 0.0
H3261 H 0.08691 0.09279 0.92645 0.0
H3262 H 0.05985 0.09311 0.93711 0.0
H3263 H 0.06104 0.07705 0.90923 0.0
C3264 C 0.82625 0.42068 0.5811 0.0
C3265 C 0.80747 0.40974 0.56459 0.0
C3266 C 0.83229 0.41072 0.60102 0.0
C3267 C 0.81876 0.3897 0.60468 0.0
C3268 C 0.79868 0.37958 0.58904 0.0
C3269 C 0.79346 0.38956 0.56888 0.0
C3270 C 0.85408 0.42178 0.61707 0.0
C3271 C 0.7834 0.35761 0.59291 0.0
C3272 C 0.84877 0.34932 0.63512 0.0
C3273 C 0.84457 0.35382 0.65842 0.0
C3274 C 0.84063 0.36109 0.61757 0.0
C3275 C 0.8271 0.37706 0.62319 0.0
C3276 C 0.82208 0.38121 0.6464 0.0
C3277 C 0.83134 0.36997 0.66386 0.0
C3278 C 0.84677 0.35661 0.59304 0.0
C3279 C 0.80707 0.3976 0.6528 0.0
H3280 H 0.83712 0.43627 0.57769 0.0
H3281 H 0.77876 0.38128 0.55618 0.0
H3282 H 0.85097 0.42319 0.6357 0.0
H3283 H 0.86691 0.41101 0.61526 0.0
H3284 H 0.86152 0.43904 0.61294 0.0
H3285 H 0.76676 0.35395 0.58131 0.0
H3286 H 0.79204 0.34327 0.58921 0.0
H3287 H 0.78008 0.35825 0.61149 0.0
H3288 H 0.85842 0.33653 0.63049 0.0
H3289 H 0.82835 0.3741 0.68183 0.0
H3290 H 0.85533 0.3728 0.58739 0.0
H3291 H 0.83103 0.34965 0.58045 0.0
H3292 H 0.85831 0.3444 0.59186 0.0
H3293 H 0.81585 0.41523 0.65121 0.0
H3294 H 0.80283 0.39707 0.67103 0.0
H3295 H 0.79088 0.39362 0.64049 0.0
C3296 C 0.44295 0.04452 0.3754 0.0
C3297 C 0.41993 0.03926 0.37928 0.0
C3298 C 0.46069 0.04554 0.3935 0.0
C3299 C 0.45532 0.04127 0.41606 0.0
C3300 C 0.43221 0.03697 0.42042 0.0
C3301 C 0.41477 0.03599 0.40192 0.0
C3302 C 0.48517 0.05064 0.38836 0.0
C3303 C 0.42545 0.03216 0.44412 0.0
C3304 C 0.49842 0.02146 0.45749 0.0
C3305 C 0.50695 0.04134 0.47319 0.0
C3306 C 0.48164 0.02119 0.43852 0.0
C3307 C 0.47399 0.04146 0.43504 0.0
C3308 C 0.48369 0.06187 0.45012 0.0
C3309 C 0.49999 0.06152 0.46916 0.0
C3310 C 0.47113 0.999 0.42312 0.0
C3311 C 0.47589 0.08375 0.44696 0.0
H3312 H 0.44716 0.04729 0.35799 0.0
H3313 H 0.39707 0.03185 0.40509 0.0
H3314 H 0.4953 0.06546 0.40064 0.0
H3315 H 0.49309 0.03588 0.39116 0.0
H3316 H 0.48647 0.05435 0.37005 0.0
H3317 H 0.40978 0.0385 0.4473 0.0
H3318 H 0.42138 0.01345 0.4442 0.0
H3319 H 0.43914 0.03983 0.45886 0.0
H3320 H 0.50361 1.00582 0.46104 0.0
H3321 H 0.5067 0.07687 0.48146 0.0
H3322 H 0.47193 1.00109 0.40434 0.0
H3323 H 0.45279 0.99392 0.42536 0.0
H3324 H 0.47977 0.98505 0.42745 0.0
H3325 H 0.47677 0.08759 0.42866 0.0
H3326 H 0.48634 0.09847 0.45922 0.0
H3327 H 0.45776 0.08178 0.45012 0.0
C3328 C 0.75975 0.70278 0.10634 0.0
C3329 C 0.76994 0.71606 0.09015 0.0
C3330 C 0.76116 0.71145 0.13032 0.0
C3331 C 0.77348 0.73393 0.13879 0.0
C3332 C 0.78391 0.74741 0.12256 0.0
C3333 C 0.78184 0.73844 0.09852 0.0
C3334 C 0.74939 0.69647 0.14664 0.0
C3335 C 0.79757 0.77127 0.13066 0.0
C3336 C 0.76272 0.76319 0.19806 0.0
C3337 C 0.78011 0.75862 0.21399 0.0
C3338 C 0.76027 0.75527 0.17372 0.0
C3339 C 0.77599 0.74298 0.16469 0.0
C3340 C 0.79396 0.73889 0.18061 0.0
C3341 C 0.79563 0.74648 0.20488 0.0
C3342 C 0.74057 0.75976 0.15772 0.0
C3343 C 0.81154 0.72644 0.17202 0.0
H3344 H 0.75036 0.68554 0.1002 0.0
H3345 H 0.78982 0.74891 0.08631 0.0
H3346 H 0.76224 0.6933 0.16049 0.0
H3347 H 0.73747 0.70519 0.15561 0.0
H3348 H 0.73961 0.6798 0.13725 0.0
H3349 H 0.80465 0.77963 0.11601 0.0
H3350 H 0.78666 0.78184 0.13884 0.0
H3351 H 0.81193 0.77087 0.14429 0.0
H3352 H 0.75079 0.77274 0.20462 0.0
H3353 H 0.80942 0.74306 0.21675 0.0
H3354 H 0.72931 0.74334 0.14951 0.0
H3355 H 0.74702 0.76886 0.14328 0.0
H3356 H 0.73015 0.77003 0.16723 0.0
H3357 H 0.8031 0.7088 0.16424 0.0
H3358 H 0.82517 0.72567 0.18634 0.0
H3359 H 0.81963 0.73497 0.158 0.0
C3360 C 0.12356 0.04924 0.70949 0.0
C3361 C 0.10973 0.0518 0.72732 0.0
C3362 C 0.11473 0.04703 0.68543 0.0
C3363 C 0.09156 0.04799 0.67877 0.0
C3364 C 0.07756 0.05074 0.69673 0.0
C3365 C 0.08668 0.05229 0.72065 0.0
C3366 C 0.13026 0.04358 0.66709 0.0
C3367 C 0.05296 0.05241 0.69068 0.0
C3368 C 0.07539 0.06356 0.61712 0.0
C3369 C 0.06364 0.04255 0.60459 0.0
C3370 C 0.08414 0.06566 0.64119 0.0
C3371 C 0.08201 0.0461 0.65309 0.0
C3372 C 0.0709 0.02467 0.6403 0.0
C3373 C 0.06166 0.02321 0.61646 0.0
C3374 C 0.09537 0.08896 0.65398 0.0
C3375 C 0.06884 1.00317 0.65176 0.0
H3376 H 0.14136 0.04876 0.71433 0.0
H3377 H 0.07585 0.05445 0.7342 0.0
H3378 H 0.12263 0.0278 0.65486 0.0
H3379 H 0.13207 0.05794 0.65647 0.0
H3380 H 0.14757 0.04234 0.675 0.0
H3381 H 0.04444 0.05513 0.70658 0.0
H3382 H 0.05211 0.06671 0.68026 0.0
H3383 H 0.04322 0.0366 0.67962 0.0
H3384 H 0.07777 0.07846 0.60815 0.0
H3385 H 0.05298 1.00675 0.60706 0.0
H3386 H 0.11291 0.08899 0.66222 0.0
H3387 H 0.0855 0.09339 0.66833 0.0
H3388 H 0.0964 0.10238 0.64217 0.0
H3389 H 0.08602 1.00132 0.65938 0.0
H3390 H 0.06081 0.9877 0.63918 0.0
H3391 H 0.05842 1.00414 0.66641 0.0
C3392 C 0.77721 0.38082 0.43352 0.0
C3393 C 0.78493 0.40384 0.4311 0.0
C3394 C 0.77666 0.36367 0.41503 0.0
C3395 C 0.78439 0.36971 0.39383 0.0
C3396 C 0.79129 0.3929 0.39087 0.0
C3397 C 0.79113 0.40975 0.40947 0.0
C3398 C 0.76854 0.33907 0.41848 0.0
C3399 C 0.79983 0.39989 0.36848 0.0
C3400 C 0.8063 0.32504 0.35698 0.0
C3401 C 0.78807 0.31762 0.33888 0.0
C3402 C 0.8055 0.34236 0.37487 0.0
C3403 C 0.78566 0.35169 0.3749 0.0
C3404 C 0.76695 0.34368 0.357 0.0
C3405 C 0.76848 0.32684 0.33904 0.0
C3406 C 0.82598 0.35095 0.39345 0.0
C3407 C 0.74533 0.35285 0.35681 0.0
H3408 H 0.77213 0.37614 0.4501 0.0
H3409 H 0.79693 0.42749 0.40738 0.0
H3410 H 0.75515 0.33025 0.40387 0.0
H3411 H 0.78298 0.33017 0.41822 0.0
H3412 H 0.7615 0.33736 0.43538 0.0
H3413 H 0.80422 0.41868 0.36887 0.0
H3414 H 0.81529 0.39304 0.36568 0.0
H3415 H 0.78671 0.39259 0.35313 0.0
H3416 H 0.82145 0.31788 0.35664 0.0
H3417 H 0.75422 0.32074 0.32517 0.0
H3418 H 0.82104 0.34825 0.41107 0.0
H3419 H 0.83218 0.36955 0.39365 0.0
H3420 H 0.84029 0.3423 0.39048 0.0
H3421 H 0.7381 0.35064 0.37352 0.0
H3422 H 0.7321 0.34423 0.34193 0.0
H3423 H 0.74924 0.37136 0.3555 0.0
C3424 C 0.43477 0.01247 0.24874 0.0
C3425 C 0.41262 0.01666 0.24746 0.0
C3426 C 0.44327 1.00449 0.22861 0.0
C3427 C 0.42954 1.00139 0.20654 0.0
C3428 C 0.40746 1.00643 0.20497 0.0
C3429 C 0.39903 0.01363 0.22562 0.0
C3430 C 0.4667 0.99879 0.23109 0.0
C3431 C 0.39276 1.00407 0.18156 0.0
C3432 C 0.46438 0.99989 0.15605 0.0
C3433 C 0.46113 0.97636 0.14891 0.0
C3434 C 0.45306 0.00832 0.17385 0.0
C3435 C 0.43862 0.99286 0.18528 0.0
C3436 C 0.43491 0.96914 0.17798 0.0
C3437 C 0.44612 0.96117 0.15975 0.0
C3438 C 0.45725 0.03376 0.181 0.0
C3439 C 0.41985 0.95215 0.19007 0.0
H3440 H 0.44516 0.01445 0.26569 0.0
H3441 H 0.38188 0.01687 0.2247 0.0
H3442 H 0.46537 0.9807 0.22401 0.0
H3443 H 0.47808 0.00936 0.22073 0.0
H3444 H 0.47489 1.00162 0.24967 0.0
H3445 H 0.37657 0.00995 0.18324 0.0
H3446 H 0.40231 0.01409 0.16935 0.0
H3447 H 0.3885 0.98602 0.17345 0.0
H3448 H 0.47628 0.01179 0.14813 0.0
H3449 H 0.44327 0.94303 0.15409 0.0
H3450 H 0.46755 0.03833 0.19862 0.0
H3451 H 0.4408 0.03917 0.18228 0.0
H3452 H 0.46655 0.04351 0.16842 0.0
H3453 H 0.42746 0.95309 0.20864 0.0
H3454 H 0.41769 0.9344 0.18139 0.0
H3455 H 0.40271 0.95629 0.19027 0.0
C3456 C 0.75761 0.69786 0.92711 0.0
C3457 C 0.76629 0.70855 0.95016 0.0
C3458 C 0.76111 0.70905 0.90712 0.0
C3459 C 0.77408 0.73168 0.90968 0.0
C3460 C 0.78279 0.74277 0.93286 0.0
C3461 C 0.77864 0.73122 0.95274 0.0
C3462 C 0.75092 0.69646 0.88311 0.0
C3463 C 0.79696 0.76673 0.93662 0.0
C3464 C 0.79901 0.74945 0.85377 0.0
C3465 C 0.78418 0.7628 0.84514 0.0
C3466 C 0.79661 0.74019 0.87519 0.0
C3467 C 0.77831 0.74344 0.88801 0.0
C3468 C 0.76313 0.75671 0.87908 0.0
C3469 C 0.76656 0.76659 0.85823 0.0
C3470 C 0.81371 0.72688 0.88412 0.0
C3471 C 0.74277 0.75996 0.8912 0.0
H3472 H 0.74795 0.68043 0.92456 0.0
H3473 H 0.78567 0.73973 0.97024 0.0
H3474 H 0.74016 0.70651 0.87372 0.0
H3475 H 0.76476 0.69424 0.87243 0.0
H3476 H 0.74027 0.6794 0.88407 0.0
H3477 H 0.80273 0.77303 0.95553 0.0
H3478 H 0.81223 0.76741 0.92727 0.0
H3479 H 0.78694 0.77842 0.92908 0.0
H3480 H 0.81285 0.74666 0.84402 0.0
H3481 H 0.75493 0.77679 0.85169 0.0
H3482 H 0.80513 0.70879 0.88372 0.0
H3483 H 0.82075 0.73358 0.90268 0.0
H3484 H 0.82811 0.72761 0.87348 0.0
H3485 H 0.73146 0.74315 0.89171 0.0
H3486 H 0.7326 0.77079 0.88219 0.0
H3487 H 0.7485 0.76789 0.90965 0.0
C3488 C 0.84984 0.12344 0.0575 0.0
C3489 C 0.83122 0.11446 0.04002 0.0
C3490 C 0.87155 0.11876 0.05498 0.0
C3491 C 0.87448 0.10524 0.03437 0.0
C3492 C 0.85575 0.09656 0.01659 0.0
C3493 C 0.83449 0.10129 0.01966 0.0
C3494 C 0.89123 0.12829 0.07421 0.0
C3495 C 0.85798 0.08207 0.99422 0.0
C3496 C 0.92534 0.10209 1.00378 0.0
C3497 C 0.9273 0.07969 0.00613 0.0
C3498 C 0.91045 0.11237 0.01611 0.0
C3499 C 0.8968 0.09966 0.03061 0.0
C3500 C 0.90072 0.07814 0.03527 0.0
C3501 C 0.91592 0.06835 0.02289 0.0
C3502 C 0.90718 0.1356 0.01111 0.0
C3503 C 0.88663 0.06412 0.05079 0.0
H3504 H 0.84735 0.13368 0.07322 0.0
H3505 H 0.82029 0.09462 0.00583 0.0
H3506 H 0.90103 0.11511 0.0782 0.0
H3507 H 0.90313 0.14239 0.06826 0.0
H3508 H 0.88533 0.13499 0.09062 0.0
H3509 H 0.84159 0.07671 0.98223 0.0
H3510 H 0.8709 0.09166 0.98461 0.0
H3511 H 0.86384 0.06652 0.99851 0.0
H3512 H 0.93442 0.11115 0.99124 0.0
H3513 H 0.91725 0.05101 0.0249 0.0
H3514 H 0.90391 0.14568 0.02711 0.0
H3515 H 0.89211 0.13359 0.99755 0.0
H3516 H 0.92235 0.14525 0.00441 0.0
H3517 H 0.88345 0.075 0.06629 0.0
H3518 H 0.89511 0.05067 0.05697 0.0
H3519 H 0.86977 0.0557 0.04066 0.0
C3520 C 0.37178 0.44537 0.04844 0.0
C3521 C 0.36871 0.42247 0.0389 0.0
C3522 C 0.39241 0.46113 0.04798 0.0
C3523 C 0.41087 0.45374 0.03846 0.0
C3524 C 0.40789 0.43052 0.02896 0.0
C3525 C 0.38692 0.41519 0.02937 0.0
C3526 C 0.39454 0.48569 0.0579 0.0
C3527 C 0.42687 0.42186 0.01831 0.0
C3528 C 0.45942 0.49865 0.02226 0.0
C3529 C 0.47604 0.50148 0.04185 0.0
C3530 C 0.43858 0.48274 0.02056 0.0
C3531 C 0.43353 0.47007 0.0394 0.0
C3532 C 0.45026 0.4732 0.05945 0.0
C3533 C 0.47133 0.48865 0.06032 0.0
C3534 C 0.42217 0.47979 0.99841 0.0
C3535 C 0.4461 0.45982 0.07978 0.0
H3536 H 0.3581 0.45093 0.05664 0.0
H3537 H 0.38475 0.39745 0.02221 0.0
H3538 H 0.40854 0.49063 0.07284 0.0
H3539 H 0.39908 0.49684 0.04427 0.0
H3540 H 0.37848 0.48892 0.0641 0.0
H3541 H 0.42234 0.40319 0.0127 0.0
H3542 H 0.43073 0.43055 1.00277 0.0
H3543 H 0.44271 0.42593 0.03113 0.0
H3544 H 0.46313 0.50813 0.0077 0.0
H3545 H 0.48429 0.49056 0.07541 0.0
H3546 H 0.41073 0.4918 1.0009 0.0
H3547 H 0.41187 0.4622 0.9944 0.0
H3548 H 0.43122 0.48392 0.98311 0.0
H3549 H 0.43068 0.46325 0.08724 0.0
H3550 H 0.46085 0.46408 0.09401 0.0
H3551 H 0.44277 0.44131 0.07353 0.0
C3552 C 0.42496 0.59103 0.80073 0.0
C3553 C 0.42314 0.57575 0.78024 0.0
C3554 C 0.41518 0.61029 0.80069 0.0
C3555 C 0.40279 0.61415 0.77971 0.0
C3556 C 0.40196 0.59942 0.75864 0.0
C3557 C 0.41223 0.58041 0.75914 0.0
C3558 C 0.41678 0.62562 0.82352 0.0
C3559 C 0.38882 0.60279 0.73596 0.0
C3560 C 0.35589 0.6466 0.79075 0.0
C3561 C 0.36705 0.66901 0.78948 0.0
C3562 C 0.36691 0.62836 0.78645 0.0
C3563 C 0.38952 0.63265 0.78046 0.0
C3564 C 0.40017 0.65511 0.77758 0.0
C3565 C 0.38889 0.67303 0.78234 0.0
C3566 C 0.35495 0.60472 0.78988 0.0
C3567 C 0.42405 0.66045 0.77092 0.0
H3568 H 0.4329 0.58712 0.81715 0.0
H3569 H 0.41012 0.5682 0.74346 0.0
H3570 H 0.42274 0.6437 0.82105 0.0
H3571 H 0.39958 0.62391 0.8293 0.0
H3572 H 0.42863 0.62144 0.83774 0.0
H3573 H 0.39227 0.59183 0.72063 0.0
H3574 H 0.37021 0.59856 0.73719 0.0
H3575 H 0.39319 0.62085 0.73283 0.0
H3576 H 0.33914 0.64352 0.79661 0.0
H3577 H 0.39757 0.6904 0.78147 0.0
H3578 H 0.36386 0.59942 0.80554 0.0
H3579 H 0.35562 0.59229 0.77452 0.0
H3580 H 0.33676 0.60384 0.79245 0.0
H3581 H 0.43651 0.65857 0.78583 0.0
H3582 H 0.42872 0.67807 0.76644 0.0
H3583 H 0.42569 0.64831 0.75569 0.0
C3584 C 0.20229 0.59365 0.55317 0.0
C3585 C 0.20711 0.61431 0.54402 0.0
C3586 C 0.17973 0.58181 0.55246 0.0
C3587 C 0.1616 0.5915 0.54339 0.0
C3588 C 0.16636 0.61245 0.53415 0.0
C3589 C 0.1892 0.62367 0.53458 0.0
C3590 C 0.1753 0.55922 0.56196 0.0
C3591 C 0.14738 0.6233 0.52453 0.0
C3592 C 0.10476 0.54998 0.52928 0.0
C3593 C 0.09544 0.55325 0.55012 0.0
C3594 C 0.12558 0.56352 0.52612 0.0
C3595 C 0.13774 0.58003 0.54475 0.0
C3596 C 0.12807 0.5837 0.56579 0.0
C3597 C 0.10694 0.57006 0.5683 0.0
C3598 C 0.135 0.55908 0.50338 0.0
C3599 C 0.14037 0.60145 0.58589 0.0
H3600 H 0.21619 0.58704 0.56146 0.0
H3601 H 0.19309 0.63995 0.52796 0.0
H3602 H 0.16576 0.5604 0.5773 0.0
H3603 H 0.16454 0.54591 0.54835 0.0
H3604 H 0.19138 0.55368 0.56752 0.0
H3605 H 0.154 0.63913 0.51703 0.0
H3606 H 0.13547 0.61121 0.51067 0.0
H3607 H 0.1373 0.6275 0.53877 0.0
H3608 H 0.09603 0.5364 0.5156 0.0
H3609 H 0.0995 0.57236 0.58446 0.0
H3610 H 0.14765 0.54836 0.50625 0.0
H3611 H 0.14369 0.57513 0.49763 0.0
H3612 H 0.12146 0.5498 0.48907 0.0
H3613 H 0.15588 0.59623 0.59377 0.0
H3614 H 0.12942 0.60387 0.59988 0.0
H3615 H 0.1461 0.61802 0.57942 0.0
C3616 C 0.73706 0.99686 0.7633 0.0
C3617 C 0.7151 1.00145 0.76049 0.0
C3618 C 0.74022 0.97543 0.76801 0.0
C3619 C 0.72092 0.95844 0.77016 0.0
C3620 C 0.6986 0.96218 0.76461 0.0
C3621 C 0.69592 0.98377 0.75969 0.0
C3622 C 0.76433 0.9719 0.77332 0.0
C3623 C 0.67765 0.94433 0.7665 0.0
C3624 C 0.73462 0.90229 0.78293 0.0
C3625 C 0.73888 0.90598 0.8076 0.0
C3626 C 0.72747 0.91872 0.77027 0.0
C3627 C 0.72439 0.93909 0.78268 0.0
C3628 C 0.72708 0.94215 0.80758 0.0
C3629 C 0.73439 0.92556 0.81975 0.0
C3630 C 0.72468 0.9149 0.74374 0.0
C3631 C 0.72376 0.96366 0.82144 0.0
H3632 H 0.75187 0.0105 0.7635 0.0
H3633 H 0.67889 0.98731 0.75743 0.0
H3634 H 0.76867 0.97249 0.7926 0.0
H3635 H 0.76583 0.95498 0.76493 0.0
H3636 H 0.77706 0.98524 0.7672 0.0
H3637 H 0.66198 0.94785 0.75686 0.0
H3638 H 0.67967 0.9271 0.75959 0.0
H3639 H 0.67522 0.9442 0.78528 0.0
H3640 H 0.73772 0.88692 0.77351 0.0
H3641 H 0.73787 0.92858 0.83877 0.0
H3642 H 0.73967 0.92531 0.7375 0.0
H3643 H 0.70921 0.92037 0.73617 0.0
H3644 H 0.72348 0.89676 0.73687 0.0
H3645 H 0.73727 0.97827 0.81885 0.0
H3646 H 0.72455 0.96245 0.84058 0.0
H3647 H 0.70699 0.96742 0.81512 0.0
C3648 C 0.73488 0.91471 0.51408 0.0
C3649 C 0.74553 0.90796 0.53422 0.0
C3650 C 0.71714 0.92652 0.51528 0.0
C3651 C 0.70912 0.9311 0.53709 0.0
C3652 C 0.71773 0.92168 0.55687 0.0
C3653 C 0.73616 0.91047 0.55531 0.0
C3654 C 0.70889 0.93632 0.49371 0.0
C3655 C 0.70885 0.92502 0.58015 0.0
C3656 C 0.69444 0.98938 0.54263 0.0
C3657 C 0.67125 0.98441 0.53312 0.0
C3658 C 0.70656 0.97207 0.54562 0.0
C3659 C 0.69513 0.94895 0.53963 0.0
C3660 C 0.67118 0.9437 0.53233 0.0
C3661 C 0.65955 0.96147 0.52888 0.0
C3662 C 0.73205 0.97869 0.55345 0.0
C3663 C 0.65808 0.91934 0.52686 0.0
H3664 H 0.74194 0.91262 0.49766 0.0
H3665 H 0.74429 0.90536 0.57098 0.0
H3666 H 0.68996 0.932 0.49015 0.0
H3667 H 0.71428 0.95517 0.49678 0.0
H3668 H 0.71584 0.93002 0.4778 0.0
H3669 H 0.71155 0.91135 0.5909 0.0
H3670 H 0.71822 0.94154 0.59014 0.0
H3671 H 0.69036 0.92529 0.57768 0.0
H3672 H 0.70348 1.007 0.54684 0.0
H3673 H 0.64158 0.95729 0.52176 0.0
H3674 H 0.74131 0.97334 0.53892 0.0
H3675 H 0.73673 0.96988 0.56857 0.0
H3676 H 0.73811 0.99734 0.55867 0.0
H3677 H 0.66052 0.91223 0.50902 0.0
H3678 H 0.63945 0.91804 0.52729 0.0
H3679 H 0.66442 0.90866 0.53952 0.0
C3680 C 0.37809 0.45127 0.76501 0.0
C3681 C 0.40099 0.45411 0.77491 0.0
C3682 C 0.36222 0.43051 0.76445 0.0
C3683 C 0.36946 0.41176 0.77344 0.0
C3684 C 0.3927 0.41454 0.78325 0.0
C3685 C 0.40813 0.43558 0.78378 0.0
C3686 C 0.33772 0.42858 0.75399 0.0
C3687 C 0.40128 0.39547 0.7937 0.0
C3688 C 0.32374 0.36406 0.78961 0.0
C3689 C 0.32151 0.34682 0.77076 0.0
C3690 C 0.33962 0.38478 0.79098 0.0
C3691 C 0.35278 0.38928 0.77239 0.0
C3692 C 0.35003 0.37212 0.75285 0.0
C3693 C 0.33475 0.35099 0.75245 0.0
C3694 C 0.34234 0.40165 0.8126 0.0
C3695 C 0.36366 0.37589 0.73264 0.0
H3696 H 0.37264 0.46524 0.75736 0.0
H3697 H 0.42585 0.4376 0.79127 0.0
H3698 H 0.33303 0.41481 0.73888 0.0
H3699 H 0.32614 0.42393 0.76723 0.0
H3700 H 0.33471 0.4447 0.74789 0.0
H3701 H 0.42027 0.3989 0.79695 0.0
H3702 H 0.39466 0.39352 0.81073 0.0
H3703 H 0.39501 0.37907 0.78206 0.0
H3704 H 0.31401 0.36087 0.80411 0.0
H3705 H 0.33331 0.33763 0.73793 0.0
H3706 H 0.33361 0.41535 0.80808 0.0
H3707 H 0.36069 0.40908 0.81861 0.0
H3708 H 0.33457 0.39399 0.8273 0.0
H3709 H 0.36074 0.39141 0.72517 0.0
H3710 H 0.3591 0.36122 0.71842 0.0
H3711 H 0.3822 0.37872 0.73904 0.0
C3712 C 0.23406 0.62335 0.26325 0.0
C3713 C 0.21361 0.61833 0.27289 0.0
C3714 C 0.24601 0.64585 0.26443 0.0
C3715 C 0.23663 0.6637 0.27456 0.0
C3716 C 0.21602 0.65871 0.28452 0.0
C3717 C 0.20467 0.63594 0.28352 0.0
C3718 C 0.26827 0.65054 0.25417 0.0
C3719 C 0.20561 0.6774 0.29544 0.0
C3720 C 0.2778 0.72068 0.28765 0.0
C3721 C 0.27311 0.73015 0.26717 0.0
C3722 C 0.26493 0.69968 0.29109 0.0
C3723 C 0.24772 0.68753 0.27306 0.0
C3724 C 0.2427 0.69732 0.25237 0.0
C3725 C 0.25563 0.71864 0.24961 0.0
C3726 C 0.27067 0.69023 0.31355 0.0
C3727 C 0.22416 0.68502 0.23292 0.0
H3728 H 0.24037 0.60969 0.25418 0.0
H3729 H 0.18858 0.63188 0.2906 0.0
H3730 H 0.26644 0.6602 0.23901 0.0
H3731 H 0.28196 0.6612 0.26749 0.0
H3732 H 0.27378 0.63465 0.2481 0.0
H3733 H 0.18999 0.67058 0.30328 0.0
H3734 H 0.2182 0.6887 0.30933 0.0
H3735 H 0.20107 0.68807 0.2819 0.0
H3736 H 0.29182 0.72951 0.30087 0.0
H3737 H 0.25223 0.72624 0.23375 0.0
H3738 H 0.28211 0.67836 0.3102 0.0
H3739 H 0.2551 0.68079 0.31965 0.0
H3740 H 0.27974 0.70386 0.32783 0.0
H3741 H 0.22916 0.66963 0.22462 0.0
H3742 H 0.22098 0.6959 0.21909 0.0
H3743 H 0.20796 0.67924 0.24017 0.0
C3744 C 0.48927 0.69003 0.47335 0.0
C3745 C 0.50801 0.70826 0.47311 0.0
C3746 C 0.49187 0.66887 0.48143 0.0
C3747 C 0.51395 0.6646 0.48876 0.0
C3748 C 0.53298 0.68285 0.48806 0.0
C3749 C 0.5298 0.7042 0.48083 0.0
C3750 C 0.47061 0.65094 0.48175 0.0
C3751 C 0.557 0.67965 0.49445 0.0
C3752 C 0.52243 0.61621 0.52785 0.0
C3753 C 0.52296 0.59722 0.51148 0.0
C3754 C 0.51941 0.63768 0.52088 0.0
C3755 C 0.51718 0.64126 0.49669 0.0
C3756 C 0.5179 0.62214 0.48014 0.0
C3757 C 0.52048 0.60076 0.48757 0.0
C3758 C 0.51816 0.65656 0.53965 0.0
C3759 C 0.51598 0.62421 0.45425 0.0
H3760 H 0.47227 0.69239 0.46748 0.0
H3761 H 0.54465 0.71765 0.48065 0.0
H3762 H 0.46782 0.63871 0.46544 0.0
H3763 H 0.4723 0.64136 0.497 0.0
H3764 H 0.45523 0.65846 0.48234 0.0
H3765 H 0.57013 0.69463 0.4919 0.0
H3766 H 0.55961 0.67666 0.51308 0.0
H3767 H 0.55971 0.66436 0.48356 0.0
H3768 H 0.52399 0.6142 0.54634 0.0
H3769 H 0.52075 0.58668 0.47439 0.0
H3770 H 0.50212 0.66269 0.53567 0.0
H3771 H 0.53266 0.67117 0.53989 0.0
H3772 H 0.51874 0.65106 0.55743 0.0
H3773 H 0.49847 0.62612 0.44795 0.0
H3774 H 0.51945 0.60908 0.44372 0.0
H3775 H 0.52814 0.63963 0.45103 0.0
C3776 C 0.63698 0.30383 0.68357 0.0
C3777 C 0.63662 0.30543 0.65935 0.0
C3778 C 0.65701 0.30202 0.69797 0.0
C3779 C 0.67781 0.30232 0.68836 0.0
C3780 C 0.67774 0.30445 0.664 0.0
C3781 C 0.65722 0.30564 0.64982 0.0
C3782 C 0.65574 0.29933 0.72354 0.0
C3783 C 0.69937 0.30529 0.65284 0.0
C3784 C 0.73412 0.31711 0.73168 0.0
C3785 C 0.73846 0.29557 0.73493 0.0
C3786 C 0.71474 0.31957 0.71658 0.0
C3787 C 0.69934 0.30007 0.70378 0.0
C3788 C 0.70407 0.27829 0.70666 0.0
C3789 C 0.72324 0.27631 0.72235 0.0
C3790 C 0.71046 0.34312 0.71476 0.0
C3791 C 0.68866 0.25692 0.69337 0.0
H3792 H 0.62126 0.3033 0.69129 0.0
H3793 H 0.65735 0.30678 0.63122 0.0
H3794 H 0.66026 0.28301 0.72727 0.0
H3795 H 0.66834 0.31321 0.73489 0.0
H3796 H 0.63845 0.29954 0.72852 0.0
H3797 H 0.69693 0.30792 0.63405 0.0
H3798 H 0.71314 0.31929 0.66244 0.0
H3799 H 0.70533 0.28917 0.65409 0.0
H3800 H 0.74557 0.33208 0.74154 0.0
H3801 H 0.72638 0.2596 0.72473 0.0
H3802 H 0.69405 0.34455 0.72131 0.0
H3803 H 0.70884 0.3462 0.69609 0.0
H3804 H 0.72433 0.35662 0.72503 0.0
H3805 H 0.67128 0.25509 0.69871 0.0
H3806 H 0.69517 0.24139 0.69654 0.0
H3807 H 0.68696 0.25808 0.67423 0.0
C3808 C 0.02918 0.36658 0.95655 0.0
C3809 C 0.01859 0.34808 0.9675 0.0
C3810 C 0.03078 0.38975 0.96554 0.0
C3811 C 0.02178 0.39566 0.98655 0.0
C3812 C 0.01143 0.37722 0.99813 0.0
C3813 C 0.00993 0.35392 0.9886 0.0
C3814 C 0.04211 0.40806 0.95218 0.0
C3815 C 1.0014 0.38212 0.02046 0.0
C3816 C 0.04582 0.45776 0.0178 0.0
C3817 C 0.02936 0.46997 0.00994 0.0
C3818 C 0.04319 0.43384 0.01118 0.0
C3819 C 0.02354 0.42102 0.99603 0.0
C3820 C 1.00658 0.43318 0.98848 0.0
C3821 C 0.00967 0.45716 0.99542 0.0
C3822 C 0.06175 0.42227 0.02028 0.0
C3823 C 0.98524 0.42093 0.97246 0.0
H3824 H 0.03612 0.36297 0.94034 0.0
H3825 H 1.00139 0.3403 0.99736 0.0
H3826 H 0.03038 0.41955 0.94799 0.0
H3827 H 0.05757 0.41855 0.96329 0.0
H3828 H 0.04728 0.40096 0.93553 0.0
H3829 H 0.99486 0.36636 0.02811 0.0
H3830 H 0.01447 0.39373 0.03368 0.0
H3831 H 0.98712 0.39093 0.01684 0.0
H3832 H 0.06094 0.46701 0.02937 0.0
H3833 H 0.99694 0.46604 0.98872 0.0
H3834 H 0.06939 0.41501 0.00535 0.0
H3835 H 0.05439 0.4079 0.02952 0.0
H3836 H 0.07557 0.43411 0.03257 0.0
H3837 H 0.98986 0.41486 0.95515 0.0
H3838 H 0.97277 0.43201 0.96965 0.0
H3839 H 0.97685 0.40571 0.97991 0.0
C3840 C 0.01214 0.785 0.16149 0.0
C3841 C 1.00905 0.79292 0.13962 0.0
C3842 C 0.99417 0.78129 0.17539 0.0
C3843 C 0.9727 0.78628 0.16767 0.0
C3844 C 0.96995 0.79548 0.1462 0.0
C3845 C 0.98794 0.79827 0.13226 0.0
C3846 C 0.99782 0.77088 0.19778 0.0
C3847 C 0.94773 0.80177 0.13758 0.0
C3848 C 0.92087 0.7503 0.18833 0.0
C3849 C 0.91782 0.76387 0.20859 0.0
C3850 C 0.93814 0.75767 0.1746 0.0
C3851 C 0.95259 0.77954 0.18076 0.0
C3852 C 0.94848 0.7941 0.20014 0.0
C3853 C 0.93124 0.78604 0.21394 0.0
C3854 C 0.94178 0.74139 0.15431 0.0
C3855 C 0.963 0.81777 0.20698 0.0
H3856 H 0.0283 0.78063 0.16723 0.0
H3857 H 0.98544 0.80456 0.11547 0.0
H3858 H 0.99353 0.78157 0.21278 0.0
H3859 H 0.98622 0.75387 0.19612 0.0
H3860 H 0.01573 0.76886 0.2019 0.0
H3861 H 0.94931 0.81159 0.1224 0.0
H3862 H 0.93426 0.7861 0.13208 0.0
H3863 H 0.94191 0.81203 0.15193 0.0
H3864 H 0.9104 0.73324 0.1839 0.0
H3865 H 0.92913 0.79663 0.22958 0.0
H3866 H 0.95889 0.73724 0.15783 0.0
H3867 H 0.94141 0.7494 0.1379 0.0
H3868 H 0.92863 0.72526 0.15135 0.0
H3869 H 0.98033 0.81669 0.2149 0.0
H3870 H 0.95555 0.82812 0.21992 0.0
H3871 H 0.96503 0.82668 0.19124 0.0
C3872 C 0.51166 0.32452 0.15871 0.0
C3873 C 0.52759 0.31098 0.1637 0.0
C3874 C 0.51767 0.34464 0.14835 0.0
C3875 C 0.53988 0.35097 0.14177 0.0
C3876 C 0.55607 0.33738 0.14695 0.0
C3877 C 0.54985 0.31781 0.15815 0.0
C3878 C 0.50004 0.35886 0.14395 0.0
C3879 C 0.57972 0.34296 0.13973 0.0
C3880 C 0.54984 0.38828 0.0924 0.0
C3881 C 0.56183 0.40914 0.10495 0.0
C3882 C 0.54204 0.36941 0.10414 0.0
C3883 C 0.54612 0.37146 0.12908 0.0
C3884 C 0.55724 0.39289 0.1418 0.0
C3885 C 0.56515 0.41132 0.12961 0.0
C3886 C 0.53051 0.34693 0.08976 0.0
C3887 C 0.56163 0.39615 0.16831 0.0
H3888 H 0.49433 0.31914 0.16264 0.0
H3889 H 0.56203 0.30708 0.16133 0.0
H3890 H 0.50729 0.37694 0.15116 0.0
H3891 H 0.49519 0.35824 0.12476 0.0
H3892 H 0.48433 0.35285 0.15199 0.0
H3893 H 0.59036 0.33082 0.14505 0.0
H3894 H 0.5784 0.34259 0.12035 0.0
H3895 H 0.58863 0.36042 0.14768 0.0
H3896 H 0.54766 0.38638 0.07335 0.0
H3897 H 0.5747 0.42732 0.13936 0.0
H3898 H 0.51382 0.34029 0.09569 0.0
H3899 H 0.54128 0.33423 0.09238 0.0
H3900 H 0.5276 0.34834 0.07068 0.0
H3901 H 0.54564 0.38975 0.17569 0.0
H3902 H 0.56832 0.41431 0.17566 0.0
H3903 H 0.57428 0.38617 0.17424 0.0
C3904 C 0.97383 0.33214 0.35408 0.0
C3905 C 0.9871 0.31815 0.34347 0.0
C3906 C 0.9502 0.33042 0.34593 0.0
C3907 C 0.93838 0.3132 0.32746 0.0
C3908 C 0.95176 0.29901 0.31662 0.0
C3909 C 0.97567 0.30178 0.32448 0.0
C3910 C 0.9378 0.34708 0.35742 0.0
C3911 C 0.94057 0.28007 0.29726 0.0
C3912 C 0.87235 0.29282 0.32696 0.0
C3913 C 0.86249 0.30142 0.3074 0.0
C3914 C 0.89652 0.29614 0.33324 0.0
C3915 C 0.91211 0.30932 0.32047 0.0
C3916 C 0.90223 0.31877 0.30124 0.0
C3917 C 0.87798 0.31449 0.29485 0.0
C3918 C 0.90538 0.285 0.35346 0.0
C3919 C 0.91722 0.33403 0.28756 0.0
H3920 H 0.98205 0.34466 0.36895 0.0
H3921 H 0.98524 0.29034 0.31639 0.0
H3922 H 0.92583 0.33829 0.3685 0.0
H3923 H 0.9498 0.36155 0.36867 0.0
H3924 H 0.92752 0.35394 0.34386 0.0
H3925 H 0.95319 0.27133 0.28958 0.0
H3926 H 0.92804 0.26736 0.30437 0.0
H3927 H 0.93102 0.28679 0.28304 0.0
H3928 H 0.86107 0.28295 0.33729 0.0
H3929 H 0.87118 0.32121 0.27963 0.0
H3930 H 0.9142 0.29823 0.36814 0.0
H3931 H 0.9181 0.27516 0.34795 0.0
H3932 H 0.89146 0.27335 0.36008 0.0
H3933 H 0.92394 0.35072 0.29857 0.0
H3934 H 0.90773 0.33699 0.27096 0.0
H3935 H 0.93202 0.32674 0.28332 0.0
C3936 C 0.03059 0.67009 0.66941 0.0
C3937 C 0.01853 0.6857 0.66036 0.0
C3938 C 0.03311 0.65024 0.65523 0.0
C3939 C 0.02307 0.64534 0.63128 0.0
C3940 C 0.01026 0.66067 0.6223 0.0
C3941 C 1.00836 0.68058 0.63673 0.0
C3942 C 0.04726 0.63487 0.66573 0.0
C3943 C 0.99886 0.6563 0.59715 0.0
C3944 C 0.04784 0.60788 0.58641 0.0
C3945 C 0.03281 0.58645 0.58424 0.0
C3946 C 0.04506 0.62684 0.6017 0.0
C3947 C 0.02664 0.62479 0.61539 0.0
C3948 C 0.01148 0.60316 0.61341 0.0
C3949 C 0.01477 0.58441 0.59807 0.0
C3950 C 0.06193 0.64921 0.60314 0.0
C3951 C 0.99149 0.59987 0.62729 0.0
H3952 H 0.03886 0.67381 0.68744 0.0
H3953 H 0.99909 0.69238 0.62931 0.0
H3954 H 0.03718 0.61711 0.66344 0.0
H3955 H 0.06242 0.63475 0.65636 0.0
H3956 H 0.05324 0.64037 0.68474 0.0
H3957 H 0.98833 0.66891 0.59312 0.0
H3958 H 0.01203 0.65698 0.58504 0.0
H3959 H 0.98774 0.63898 0.59352 0.0
H3960 H 0.06201 0.60989 0.57615 0.0
H3961 H 1.00288 0.56815 0.59665 0.0
H3962 H 0.06972 0.65512 0.62164 0.0
H3963 H 0.05294 0.66238 0.59724 0.0
H3964 H 0.07582 0.64795 0.59217 0.0
H3965 H 0.9976 0.60457 0.64635 0.0
H3966 H 0.98149 0.58203 0.62431 0.0
H3967 H 0.97994 0.6113 0.62231 0.0
C3968 C 0.62556 0.8382 0.82805 0.0
C3969 C 0.61261 0.82373 0.84182 0.0
C3970 C 0.64704 0.83477 0.82105 0.0
C3971 C 0.65649 0.81588 0.82704 0.0
C3972 C 0.64343 0.8011 0.84077 0.0
C3973 C 0.62227 0.80524 0.84805 0.0
C3974 C 0.65982 0.8517 0.80719 0.0
C3975 C 0.65178 0.78051 0.84772 0.0
C3976 C 0.70252 0.79627 0.78979 0.0
C3977 C 0.72376 0.80429 0.80434 0.0
C3978 C 0.68103 0.79951 0.79689 0.0
C3979 C 0.67979 0.81175 0.8192 0.0
C3980 C 0.70121 0.82009 0.83387 0.0
C3981 C 0.72239 0.81623 0.82649 0.0
C3982 C 0.65937 0.78929 0.78043 0.0
C3983 C 0.702 0.83371 0.8575 0.0
H3984 H 0.61896 0.85259 0.82276 0.0
H3985 H 0.61298 0.79352 0.85838 0.0
H3986 H 0.67727 0.85897 0.8166 0.0
H3987 H 0.66182 0.84301 0.78985 0.0
H3988 H 0.65097 0.86585 0.80428 0.0
H3989 H 0.63977 0.77013 0.8577 0.0
H3990 H 0.6541 0.76967 0.83177 0.0
H3991 H 0.66872 0.78595 0.8587 0.0
H3992 H 0.70258 0.78742 0.77252 0.0
H3993 H 0.7381 0.82268 0.83835 0.0
H3994 H 0.6489 0.80223 0.77787 0.0
H3995 H 0.649 0.77542 0.78831 0.0
H3996 H 0.66287 0.78215 0.76298 0.0
H3997 H 0.70012 0.85121 0.85485 0.0
H3998 H 0.71838 0.83485 0.8689 0.0
H3999 H 0.68772 0.82621 0.86683 0.0
C4000 C 0.48639 0.52597 0.70517 0.0
C4001 C 0.46371 0.51498 0.70653 0.0
C4002 C 0.49461 0.52865 0.68331 0.0
C4003 C 0.48008 0.51978 0.66189 0.0
C4004 C 0.4572 0.50853 0.66314 0.0
C4005 C 0.44927 0.50649 0.68528 0.0
C4006 C 0.51894 0.54116 0.68317 0.0
C4007 C 0.44109 0.49835 0.64103 0.0
C4008 C 0.49489 0.54279 0.60418 0.0
C4009 C 0.507 0.52715 0.59472 0.0
C4010 C 0.48627 0.54075 0.62596 0.0
C4011 C 0.48893 0.52209 0.63834 0.0
C4012 C 0.5006 0.5059 0.62836 0.0
C4013 C 0.50988 0.5089 0.60709 0.0
C4014 C 0.47481 0.55895 0.63604 0.0
C4015 C 0.50333 0.48531 0.64016 0.0
H4016 H 0.49777 0.53276 0.72131 0.0
H4017 H 0.43176 0.49793 0.68592 0.0
H4018 H 0.52875 0.52958 0.67471 0.0
H4019 H 0.51916 0.55554 0.67267 0.0
H4020 H 0.52781 0.54794 0.70117 0.0
H4021 H 0.42403 0.48969 0.64481 0.0
H4022 H 0.43878 0.51184 0.62995 0.0
H4023 H 0.44853 0.48583 0.63057 0.0
H4024 H 0.49287 0.55712 0.59493 0.0
H4025 H 0.51917 0.49671 0.59989 0.0
H4026 H 0.48408 0.56685 0.65356 0.0
H4027 H 0.45704 0.55131 0.6386 0.0
H4028 H 0.47431 0.57253 0.62455 0.0
H4029 H 0.51132 0.47346 0.62942 0.0
H4030 H 0.48639 0.47594 0.64349 0.0
H4031 H 0.5141 0.49076 0.65745 0.0
C4032 C 0.74735 0.171 0.98761 0.0
C4033 C 0.76572 0.16 0.98852 0.0
C4034 C 0.74107 0.18075 0.96765 0.0
C4035 C 0.75401 0.18003 0.94861 0.0
C4036 C 0.77345 0.17007 0.9501 0.0
C4037 C 0.77879 0.15964 0.96994 0.0
C4038 C 0.71988 0.19068 0.96644 0.0
C4039 C 0.7881 0.16978 0.93046 0.0
C4040 C 0.72294 0.18228 0.88856 0.0
C4041 C 0.72936 0.20546 0.88636 0.0
C4042 C 0.7312 0.17367 0.90861 0.0
C4043 C 0.74638 0.18863 0.92671 0.0
C4044 C 0.75332 0.21194 0.92436 0.0
C4045 C 0.74459 0.22012 0.90426 0.0
C4046 C 0.72335 0.14868 0.91061 0.0
C4047 C 0.76967 0.22829 0.94323 0.0
H4048 H 0.73705 0.17074 1.00195 0.0
H4049 H 0.79291 0.15092 0.97082 0.0
H4050 H 0.72398 0.20847 0.96244 0.0
H4051 H 0.70691 0.18074 0.95199 0.0
H4052 H 0.71218 0.19053 0.9831 0.0
H4053 H 0.8039 0.16354 0.93544 0.0
H4054 H 0.77822 0.15857 0.91471 0.0
H4055 H 0.79302 0.18712 0.9254 0.0
H4056 H 0.7115 0.17087 0.87455 0.0
H4057 H 0.74941 0.23812 0.90274 0.0
H4058 H 0.71453 0.14667 0.92642 0.0
H4059 H 0.73833 0.14059 0.9128 0.0
H4060 H 0.71151 0.13938 0.89494 0.0
H4061 H 0.76162 0.22988 0.95956 0.0
H4062 H 0.77469 0.24553 0.93789 0.0
H4063 H 0.78536 0.22169 0.94751 0.0
C4064 C 0.15554 0.55758 0.17747 0.0
C4065 C 0.14648 0.54709 0.19593 0.0
C4066 C 0.14174 0.55699 0.1561 0.0
C4067 C 0.11849 0.54555 0.15325 0.0
C4068 C 0.10952 0.53428 0.17155 0.0
C4069 C 0.12362 0.53524 0.1927 0.0
C4070 C 0.15178 0.56929 0.13694 0.0
C4071 C 0.08484 0.52168 0.16901 0.0
C4072 C 0.07394 0.56087 0.1099 0.0
C4073 C 0.07117 0.54307 0.09155 0.0
C4074 C 0.09003 0.56242 0.12979 0.0
C4075 C 0.10324 0.54553 0.13134 0.0
C4076 C 0.10059 0.52764 0.1127 0.0
C4077 C 0.08446 0.52656 0.09304 0.0
C4078 C 0.09261 0.58186 0.14928 0.0
C4079 C 0.11436 0.50933 0.11377 0.0
H4080 H 0.17317 0.56689 0.17998 0.0
H4081 H 0.11658 0.52702 0.2069 0.0
H4082 H 0.1477 0.5581 0.11984 0.0
H4083 H 0.14409 0.58431 0.13487 0.0
H4084 H 0.17065 0.57523 0.14091 0.0
H4085 H 0.08077 0.51318 0.18465 0.0
H4086 H 0.07335 0.53372 0.16638 0.0
H4087 H 0.08099 0.5086 0.15329 0.0
H4088 H 0.06366 0.57365 0.10858 0.0
H4089 H 0.082 0.51257 0.07896 0.0
H4090 H 0.11079 0.5909 0.15341 0.0
H4091 H 0.08739 0.57513 0.16548 0.0
H4092 H 0.08209 0.59433 0.14466 0.0
H4093 H 0.13289 0.51711 0.11783 0.0
H4094 H 0.11146 0.49761 0.09702 0.0
H4095 H 0.10965 0.49918 0.12812 0.0
C4096 C 0.80661 0.83963 0.46711 0.0
C4097 C 0.80099 0.86119 0.46914 0.0
C4098 C 0.80638 0.82713 0.44474 0.0
C4099 C 0.80034 0.83627 0.42378 0.0
C4100 C 0.7941 0.85772 0.42582 0.0
C4101 C 0.79446 0.86973 0.4482 0.0
C4102 C 0.81311 0.80434 0.44351 0.0
C4103 C 0.78744 0.86832 0.40425 0.0
C4104 C 0.81989 0.81829 0.36459 0.0
C4105 C 0.79999 0.80386 0.35215 0.0
C4106 C 0.82052 0.82818 0.38807 0.0
C4107 C 0.80069 0.82384 0.39963 0.0
C4108 C 0.78061 0.80912 0.3872 0.0
C4109 C 0.78052 0.79934 0.3638 0.0
C4110 C 0.84233 0.84379 0.40031 0.0
C4111 C 0.75895 0.80406 0.39844 0.0
H4112 H 0.81184 0.8328 0.48294 0.0
H4113 H 0.78989 0.88624 0.44921 0.0
H4114 H 0.79931 0.79109 0.43281 0.0
H4115 H 0.82868 0.80505 0.43466 0.0
H4116 H 0.81658 0.79911 0.46119 0.0
H4117 H 0.78254 0.88488 0.40874 0.0
H4118 H 0.80194 0.87113 0.39379 0.0
H4119 H 0.77285 0.85663 0.39288 0.0
H4120 H 0.83498 0.8222 0.35587 0.0
H4121 H 0.765 0.78824 0.35454 0.0
H4122 H 0.84721 0.83852 0.41765 0.0
H4123 H 0.83959 0.86141 0.40356 0.0
H4124 H 0.85678 0.84391 0.3898 0.0
H4125 H 0.76245 0.79754 0.41543 0.0
H4126 H 0.74514 0.79137 0.38702 0.0
H4127 H 0.75269 0.81997 0.4023 0.0
C4128 C 0.46795 0.49675 0.85574 0.0
C4129 C 0.4682 0.51636 0.84464 0.0
C4130 C 0.47894 0.49789 0.87889 0.0
C4131 C 0.49055 0.51923 0.89158 0.0
C4132 C 0.49175 0.53898 0.87994 0.0
C4133 C 0.48042 0.53732 0.85679 0.0
C4134 C 0.47709 0.47631 0.89022 0.0
C4135 C 0.50368 0.56232 0.89208 0.0
C4136 C 0.49317 0.52621 0.95881 0.0
C4137 C 0.51577 0.52481 0.96656 0.0
C4138 C 0.48494 0.52454 0.9347 0.0
C4139 C 0.49943 0.52098 0.91746 0.0
C4140 C 0.52216 0.51906 0.92512 0.0
C4141 C 0.53005 0.52102 0.94946 0.0
C4142 C 0.46066 0.5268 0.9277 0.0
C4143 C 0.53834 0.51548 0.90756 0.0
H4144 H 0.45835 0.48051 0.84658 0.0
H4145 H 0.4803 0.55265 0.84861 0.0
H4146 H 0.49423 0.47466 0.89816 0.0
H4147 H 0.46632 0.47702 0.90461 0.0
H4148 H 0.4694 0.46088 0.87748 0.0
H4149 H 0.51276 0.57238 0.87958 0.0
H4150 H 0.49061 0.5715 0.89795 0.0
H4151 H 0.51615 0.56179 0.90753 0.0
H4152 H 0.48181 0.52888 0.97171 0.0
H4153 H 0.54759 0.52017 0.95509 0.0
H4154 H 0.45082 0.51092 0.91684 0.0
H4155 H 0.46059 0.54086 0.91679 0.0
H4156 H 0.45175 0.53025 0.94316 0.0
H4157 H 0.53075 0.50006 0.8948 0.0
H4158 H 0.55518 0.51354 0.91612 0.0
H4159 H 0.5411 0.5302 0.89744 0.0
C4160 C 0.80597 0.1962 0.12529 0.0
C4161 C 0.79272 0.17397 0.12178 0.0
C4162 C 0.8074 0.21037 0.14645 0.0
C4163 C 0.79515 0.20211 0.16445 0.0
C4164 C 0.78291 0.17921 0.1616 0.0
C4165 C 0.7819 0.16531 0.14024 0.0
C4166 C 0.82092 0.23461 0.14899 0.0
C4167 C 0.76979 0.16983 0.18055 0.0
C4168 C 0.81012 0.23805 0.22404 0.0
C4169 C 0.79314 0.25095 0.22346 0.0
C4170 C 0.81052 0.22145 0.20532 0.0
C4171 C 0.79381 0.21806 0.18536 0.0
C4172 C 0.7766 0.23104 0.18468 0.0
C4173 C 0.7765 0.24741 0.20378 0.0
C4174 C 0.82915 0.20797 0.20671 0.0
C4175 C 0.75848 0.22786 0.16365 0.0
H4176 H 0.8145 0.20288 0.1111 0.0
H4177 H 0.77157 0.14814 0.13753 0.0
H4178 H 0.80907 0.24652 0.14964 0.0
H4179 H 0.8328 0.23867 0.16568 0.0
H4180 H 0.831 0.23777 0.13419 0.0
H4181 H 0.76322 0.15112 0.17667 0.0
H4182 H 0.78077 0.17369 0.19782 0.0
H4183 H 0.75504 0.17813 0.1822 0.0
H4184 H 0.82339 0.24117 0.23899 0.0
H4185 H 0.76333 0.25734 0.20339 0.0
H4186 H 0.84104 0.21298 0.19385 0.0
H4187 H 0.82172 0.1895 0.20205 0.0
H4188 H 0.83915 0.21081 0.22452 0.0
H4189 H 0.76664 0.23226 0.14791 0.0
H4190 H 0.74574 0.23861 0.16634 0.0
H4191 H 0.74934 0.20976 0.15984 0.0
C4192 C 0.14393 0.55698 0.32546 0.0
C4193 C 0.16756 0.55799 0.3296 0.0
C4194 C 0.13168 0.56183 0.34391 0.0
C4195 C 0.1433 0.56749 0.36705 0.0
C4196 C 0.16671 0.56681 0.37165 0.0
C4197 C 0.17863 0.56214 0.3528 0.0
C4198 C 0.10667 0.56242 0.33839 0.0
C4199 C 0.17944 0.57226 0.39629 0.0
C4200 C 0.12059 0.60727 0.40903 0.0
C4201 C 0.10807 0.59194 0.42182 0.0
C4202 C 0.13214 0.59947 0.39106 0.0
C4203 C 0.13136 0.57585 0.38612 0.0
C4204 C 0.11882 0.56028 0.39897 0.0
C4205 C 0.10703 0.56849 0.41644 0.0
C4206 C 0.14515 0.6165 0.37735 0.0
C4207 C 0.1179 0.535 0.39431 0.0
H4208 H 0.13514 0.55359 0.30763 0.0
H4209 H 0.19684 0.56275 0.3562 0.0
H4210 H 0.09632 0.55243 0.35002 0.0
H4211 H 0.10452 0.58026 0.3417 0.0
H4212 H 0.09974 0.55561 0.31981 0.0
H4213 H 0.19676 0.56833 0.3972 0.0
H4214 H 0.18134 0.59064 0.40253 0.0
H4215 H 0.16968 0.56257 0.40857 0.0
H4216 H 0.12161 0.62539 0.41325 0.0
H4217 H 0.0969 0.55645 0.42585 0.0
H4218 H 0.13863 0.61218 0.35834 0.0
H4219 H 0.16353 0.61576 0.37946 0.0
H4220 H 0.14366 0.63422 0.38312 0.0
H4221 H 0.10997 0.52833 0.376 0.0
H4222 H 0.10798 0.52526 0.40649 0.0
H4223 H 0.13549 0.53177 0.39614 0.0
C4224 C 0.8189 0.87337 0.62887 0.0
C4225 C 0.80404 0.86278 0.60847 0.0
C4226 C 0.81717 0.8651 0.6509 0.0
C4227 C 0.79952 0.84623 0.65315 0.0
C4228 C 0.78409 0.83589 0.63268 0.0
C4229 C 0.78681 0.84392 0.6107 0.0
C4230 C 0.83464 0.87628 0.67171 0.0
C4231 C 0.76451 0.81632 0.634 0.0
C4232 C 0.80519 0.80947 0.70348 0.0
C4233 C 0.79314 0.81862 0.72041 0.0
C4234 C 0.80778 0.81853 0.68203 0.0
C4235 C 0.79753 0.83695 0.67661 0.0
C4236 C 0.78521 0.84618 0.69362 0.0
C4237 C 0.78349 0.83721 0.71531 0.0
C4238 C 0.8217 0.80839 0.66515 0.0
C4239 C 0.77338 0.8653 0.6887 0.0
H4240 H 0.83239 0.88783 0.62748 0.0
H4241 H 0.77507 0.83565 0.59522 0.0
H4242 H 0.82605 0.88326 0.68599 0.0
H4243 H 0.84344 0.86343 0.67876 0.0
H4244 H 0.8477 0.8903 0.6671 0.0
H4245 H 0.75301 0.81116 0.61707 0.0
H4246 H 0.77124 0.8014 0.63886 0.0
H4247 H 0.75429 0.8211 0.64791 0.0
H4248 H 0.81294 0.79527 0.70716 0.0
H4249 H 0.77405 0.84442 0.72807 0.0
H4250 H 0.83532 0.82197 0.66074 0.0
H4251 H 0.81062 0.80058 0.64851 0.0
H4252 H 0.82979 0.79517 0.67245 0.0
H4253 H 0.78608 0.88044 0.68583 0.0
H4254 H 0.76401 0.8703 0.7033 0.0
H4255 H 0.76109 0.86007 0.67233 0.0
C4256 C 0.72397 0.4606 0.49027 0.0
C4257 C 0.74207 0.45739 0.50601 0.0
C4258 C 0.70479 0.46697 0.49863 0.0
C4259 C 0.70443 0.4711 0.5232 0.0
C4260 C 0.72275 0.46779 0.53907 0.0
C4261 C 0.74118 0.46058 0.53022 0.0
C4262 C 0.6852 0.46975 0.4813 0.0
C4263 C 0.72338 0.47281 0.56539 0.0
C4264 C 0.67243 0.51286 0.54988 0.0
C4265 C 0.65476 0.49827 0.55818 0.0
C4266 C 0.68802 0.50415 0.53719 0.0
C4267 C 0.68577 0.48029 0.53269 0.0
C4268 C 0.66731 0.46545 0.54001 0.0
C4269 C 0.65203 0.47465 0.55281 0.0
C4270 C 0.70768 0.52051 0.52989 0.0
C4271 C 0.66429 0.4399 0.53521 0.0
H4272 H 0.72484 0.45809 0.47153 0.0
H4273 H 0.75548 0.45845 0.54232 0.0
H4274 H 0.66873 0.46025 0.48565 0.0
H4275 H 0.68424 0.48796 0.4824 0.0
H4276 H 0.6871 0.46362 0.46292 0.0
H4277 H 0.73885 0.46912 0.57525 0.0
H4278 H 0.72314 0.49102 0.57027 0.0
H4279 H 0.70801 0.46255 0.57112 0.0
H4280 H 0.67461 0.53115 0.55411 0.0
H4281 H 0.63807 0.46338 0.55885 0.0
H4282 H 0.7091 0.51614 0.51103 0.0
H4283 H 0.72397 0.51916 0.54011 0.0
H4284 H 0.70577 0.53847 0.53286 0.0
H4285 H 0.66584 0.43464 0.51654 0.0
H4286 H 0.64748 0.43084 0.53924 0.0
H4287 H 0.678 0.4344 0.54616 0.0
C4288 C 0.20606 0.12617 0.51949 0.0
C4289 C 0.20481 0.147 0.51128 0.0
C4290 C 0.18624 0.11031 0.52227 0.0
C4291 C 0.16445 0.11577 0.51796 0.0
C4292 C 0.16313 0.13721 0.51052 0.0
C4293 C 0.18325 0.15244 0.5071 0.0
C4294 C 0.18865 0.08766 0.52982 0.0
C4295 C 0.14046 0.14419 0.50643 0.0
C4296 C 0.10904 0.06986 0.5049 0.0
C4297 C 0.10325 0.0671 0.52741 0.0
C4298 C 0.12897 0.08521 0.50156 0.0
C4299 C 0.14317 0.09905 0.52124 0.0
C4300 C 0.13693 0.09661 0.5441 0.0
C4301 C 0.11747 0.0802 0.54691 0.0
C4302 C 0.13399 0.08656 0.47667 0.0
C4303 C 0.15018 0.11159 0.5658 0.0
H4304 H 0.22269 0.12236 0.52416 0.0
H4305 H 0.18215 0.16877 0.50141 0.0
H4306 H 0.18273 0.08608 0.5472 0.0
H4307 H 0.17775 0.0736 0.5171 0.0
H4308 H 0.20662 0.08546 0.53122 0.0
H4309 H 0.14257 0.16248 0.50414 0.0
H4310 H 0.13018 0.13389 0.49036 0.0
H4311 H 0.13065 0.14091 0.5214 0.0
H4312 H 0.09785 0.05999 0.48973 0.0
H4313 H 0.11268 0.07854 0.56434 0.0
H4314 H 0.15096 0.09714 0.47554 0.0
H4315 H 0.12072 0.09376 0.46698 0.0
H4316 H 0.13293 0.06917 0.46755 0.0
H4317 H 0.16206 0.10233 0.57473 0.0
H4318 H 0.13841 0.11554 0.57848 0.0
H4319 H 0.16022 0.12788 0.56179 0.0
C4320 C 0.17743 0.99922 0.77806 0.0
C4321 C 0.16373 1.00046 0.79608 0.0
C4322 C 0.18977 0.98187 0.77541 0.0
C4323 C 0.18785 0.96501 0.79081 0.0
C4324 C 0.17225 0.965 0.80757 0.0
C4325 C 0.16075 0.98307 0.81038 0.0
C4326 C 0.20659 0.98299 0.75772 0.0
C4327 C 0.16912 0.94697 0.82381 0.0
C4328 C 0.21818 0.9163 0.77664 0.0
C4329 C 0.23929 0.92414 0.79101 0.0
C4330 C 0.20081 0.92891 0.77697 0.0
C4331 C 0.20474 0.94991 0.79184 0.0
C4332 C 0.22569 0.95741 0.80698 0.0
C4333 C 0.24253 0.94437 0.80651 0.0
C4334 C 0.17861 0.92016 0.76083 0.0
C4335 C 0.23073 0.9797 0.82311 0.0
H4336 H 0.18012 0.013 0.76738 0.0
H4337 H 0.15048 0.98429 0.82461 0.0
H4338 H 0.22429 0.98803 0.76713 0.0
H4339 H 0.2049 0.96607 0.74737 0.0
H4340 H 0.20424 0.99554 0.74541 0.0
H4341 H 0.15349 0.94679 0.83251 0.0
H4342 H 0.16798 0.92986 0.81404 0.0
H4343 H 0.18412 0.95032 0.83764 0.0
H4344 H 0.2155 0.90074 0.76454 0.0
H4345 H 0.25855 0.95028 0.81808 0.0
H4346 H 0.17768 0.93096 0.74651 0.0
H4347 H 0.16382 0.92118 0.77054 0.0
H4348 H 0.17696 0.90227 0.75278 0.0
H4349 H 0.23037 0.99399 0.81257 0.0
H4350 H 0.2477 0.98289 0.83405 0.0
H4351 H 0.21741 0.97983 0.83497 0.0
C4352 C 0.38008 0.94204 0.9984 0.0
C4353 C 0.36406 0.95561 1.00186 0.0
C4354 C 0.40356 0.95147 1.00277 0.0
C4355 C 0.41101 0.97522 0.0094 0.0
C4356 C 0.39484 0.98896 0.01308 0.0
C4357 C 0.37157 0.97873 0.0102 0.0
C4358 C 0.42027 0.93601 1.0003 0.0
C4359 C 0.40208 0.01438 0.0204 0.0
C4360 C 0.46937 0.0091 0.03626 0.0
C4361 C 0.47989 0.01289 0.01631 0.0
C4362 C 0.44777 0.99473 0.03451 0.0
C4363 C 0.43559 0.986 0.0119 0.0
C4364 C 0.44637 0.98981 0.99157 0.0
C4365 C 0.46862 1.00284 0.99414 0.0
C4366 C 0.43842 0.98905 0.05697 0.0
C4367 C 0.43479 0.98118 0.96682 0.0
H4368 H 0.37423 0.92388 0.99291 0.0
H4369 H 0.35929 0.98873 0.01491 0.0
H4370 H 0.42672 0.93693 0.98306 0.0
H4371 H 0.43518 0.94133 0.0143 0.0
H4372 H 0.41211 0.91798 1.00115 0.0
H4373 H 0.38723 0.02265 0.02116 0.0
H4374 H 0.41214 0.01807 0.03813 0.0
H4375 H 0.41314 0.02228 0.00799 0.0
H4376 H 0.47752 0.01824 0.05308 0.0
H4377 H 0.47681 1.00602 0.9786 0.0
H4378 H 0.44513 0.97439 0.06267 0.0
H4379 H 0.41951 0.98409 0.05498 0.0
H4380 H 0.44428 1.00355 0.07128 0.0
H4381 H 0.44404 0.96891 0.95854 0.0
H4382 H 0.43606 0.99556 0.95619 0.0
H4383 H 0.41659 0.97271 0.96572 0.0
C4384 C 0.84829 0.59162 0.82425 0.0
C4385 C 0.86932 0.58687 0.8193 0.0
C4386 C 0.84013 0.60947 0.81512 0.0
C4387 C 0.85346 0.62294 0.80093 0.0
C4388 C 0.87553 0.6195 0.79758 0.0
C4389 C 0.88321 0.60145 0.80679 0.0
C4390 C 0.81648 0.61266 0.81905 0.0
C4391 C 0.89032 0.63377 0.78276 0.0
C4392 C 0.82294 0.64514 0.75064 0.0
C4393 C 0.82508 0.66796 0.75971 0.0
C4394 C 0.83173 0.6302 0.76417 0.0
C4395 C 0.84325 0.63851 0.7871 0.0
C4396 C 0.84544 0.66157 0.79636 0.0
C4397 C 0.83611 0.67606 0.78255 0.0
C4398 C 0.82871 0.60556 0.7539 0.0
C4399 C 0.85784 0.67094 0.82065 0.0
H4400 H 0.83747 0.58052 0.83401 0.0
H4401 H 0.89962 0.5981 0.80315 0.0
H4402 H 0.81646 0.63094 0.82364 0.0
H4403 H 0.80455 0.6064 0.80256 0.0
H4404 H 0.80984 0.60318 0.83321 0.0
H4405 H 0.90808 0.63093 0.78443 0.0
H4406 H 0.88281 0.62939 0.764 0.0
H4407 H 0.89094 0.65214 0.78779 0.0
H4408 H 0.81406 0.63894 0.73308 0.0
H4409 H 0.83767 0.69379 0.78944 0.0
H4410 H 0.81997 0.59426 0.76562 0.0
H4411 H 0.84569 0.60132 0.75259 0.0
H4412 H 0.81858 0.60172 0.73614 0.0
H4413 H 0.85017 0.66089 0.83391 0.0
H4414 H 0.85735 0.68911 0.82553 0.0
H4415 H 0.87598 0.6694 0.82152 0.0
C4416 C 0.8387 0.66372 1.00326 0.0
C4417 C 0.8229 0.66316 0.01943 0.0
C4418 C 0.85679 0.6522 0.00599 0.0
C4419 C 0.85841 0.63896 0.02473 0.0
C4420 C 0.84321 0.63947 0.04184 0.0
C4421 C 0.82581 0.65183 0.03912 0.0
C4422 C 0.87303 0.65273 0.98778 0.0
C4423 C 0.84381 0.62515 0.06171 0.0
C4424 C 0.87825 0.58346 0.01234 0.0
C4425 C 0.89986 0.58801 0.0259 0.0
C4426 C 0.86484 0.59997 0.01166 0.0
C4427 C 0.87338 0.62194 0.0244 0.0
C4428 C 0.89563 0.62708 0.03725 0.0
C4429 C 0.90855 0.61002 0.03799 0.0
C4430 C 0.84118 0.5936 0.99781 0.0
C4431 C 0.90552 0.6504 0.0507 0.0
H4432 H 0.83617 0.67213 0.9878 0.0
H4433 H 0.81318 0.65087 0.05125 0.0
H4434 H 0.89088 0.6546 0.99625 0.0
H4435 H 0.8685 0.63645 0.97577 0.0
H4436 H 0.87226 0.66688 0.9771 0.0
H4437 H 0.83272 0.62944 0.07497 0.0
H4438 H 0.83779 0.60689 0.0545 0.0
H4439 H 0.86153 0.62734 0.07061 0.0
H4440 H 0.87159 0.56676 1.00242 0.0
H4441 H 0.92516 0.61375 0.04863 0.0
H4442 H 0.8397 0.60506 0.98419 0.0
H4443 H 0.82817 0.59574 0.00965 0.0
H4444 H 0.83703 0.57573 0.98902 0.0
H4445 H 0.90375 0.66377 0.03927 0.0
H4446 H 0.92388 0.65247 0.05764 0.0
H4447 H 0.8959 0.65327 0.0657 0.0
C4448 C 0.19738 0.11685 0.79405 0.0
C4449 C 0.17757 0.11837 0.80441 0.0
C4450 C 0.21331 0.13645 0.79099 0.0
C4451 C 0.20909 0.15831 0.79773 0.0
C4452 C 0.18912 0.15996 0.80831 0.0
C4453 C 0.17354 0.14 0.81138 0.0
C4454 C 0.23454 0.13377 0.78021 0.0
C4455 C 0.18414 0.18287 0.81622 0.0
C4456 C 0.25893 0.21015 0.8049 0.0
C4457 C 0.25549 0.21886 0.78362 0.0
C4458 C 0.24396 0.1907 0.80986 0.0
C4459 C 0.22515 0.17932 0.79295 0.0
C4460 C 0.2218 0.18801 0.77122 0.0
C4461 C 0.23687 0.20777 0.76693 0.0
C4462 C 0.24871 0.18254 0.83325 0.0
C4463 C 0.20202 0.17669 0.75266 0.0
H4464 H 0.20017 0.10023 0.78773 0.0
H4465 H 0.15811 0.14128 0.81907 0.0
H4466 H 0.23521 0.14212 0.76401 0.0
H4467 H 0.24996 0.14232 0.79268 0.0
H4468 H 0.23527 0.11561 0.77571 0.0
H4469 H 0.16814 0.18136 0.82446 0.0
H4470 H 0.19857 0.19297 0.8291 0.0
H4471 H 0.1826 0.19248 0.80098 0.0
H4472 H 0.27275 0.21917 0.81823 0.0
H4473 H 0.23392 0.21477 0.75061 0.0
H4474 H 0.26063 0.17084 0.83138 0.0
H4475 H 0.23294 0.17345 0.83929 0.0
H4476 H 0.25722 0.19692 0.84699 0.0
H4477 H 0.20299 0.15873 0.74745 0.0
H4478 H 0.20177 0.1855 0.73672 0.0
H4479 H 0.18562 0.17644 0.7599 0.0
C4480 C 0.36428 0.95139 0.32971 0.0
C4481 C 0.35745 0.96664 0.31534 0.0
C4482 C 0.35188 0.92889 0.32737 0.0
C4483 C 0.33347 0.92122 0.30897 0.0
C4484 C 0.32645 0.93675 0.2945 0.0
C4485 C 0.33829 0.9595 0.29824 0.0
C4486 C 0.35902 0.91316 0.34402 0.0
C4487 C 0.30774 0.92902 0.27392 0.0
C4488 C 0.32608 0.85889 0.28633 0.0
C4489 C 0.30585 0.84933 0.2947 0.0
C4490 C 0.33457 0.88244 0.28978 0.0
C4491 C 0.32333 0.89658 0.30335 0.0
C4492 C 0.30309 0.88696 0.31223 0.0
C4493 C 0.29424 0.8635 0.30726 0.0
C4494 C 0.35576 0.89206 0.27921 0.0
C4495 C 0.29119 0.90124 0.3276 0.0
H4496 H 0.37932 0.95707 0.34273 0.0
H4497 H 0.33349 0.9714 0.28682 0.0
H4498 H 0.34379 0.90303 0.35016 0.0
H4499 H 0.36779 0.90104 0.33479 0.0
H4500 H 0.37086 0.92266 0.35959 0.0
H4501 H 0.30303 0.94357 0.26573 0.0
H4502 H 0.31363 0.91785 0.2604 0.0
H4503 H 0.2922 0.91886 0.27939 0.0
H4504 H 0.33545 0.84798 0.27731 0.0
H4505 H 0.2787 0.85621 0.31406 0.0
H4506 H 0.37038 0.89836 0.29334 0.0
H4507 H 0.35311 0.90672 0.26998 0.0
H4508 H 0.36048 0.87915 0.26654 0.0
H4509 H 0.30348 0.91051 0.34291 0.0
H4510 H 0.27632 0.89091 0.33417 0.0
H4511 H 0.28508 0.91399 0.31757 0.0
C4512 C 0.54339 0.36923 0.59601 0.0
C4513 C 0.56208 0.35921 0.59144 0.0
C4514 C 0.54107 0.39096 0.58933 0.0
C4515 C 0.55738 0.40355 0.57677 0.0
C4516 C 0.57631 0.39347 0.57203 0.0
C4517 C 0.57844 0.37186 0.57936 0.0
C4518 C 0.52079 0.4004 0.59562 0.0
C4519 C 0.59416 0.4053 0.55847 0.0
C4520 C 0.53825 0.44921 0.53935 0.0
C4521 C 0.54791 0.47043 0.55314 0.0
C4522 C 0.54128 0.42785 0.54656 0.0
C4523 C 0.55439 0.42678 0.56845 0.0
C4524 C 0.56426 0.44817 0.58242 0.0
C4525 C 0.5611 0.4693 0.57468 0.0
C4526 C 0.53029 0.40624 0.53048 0.0
C4527 C 0.57829 0.44886 0.60585 0.0
H4528 H 0.53021 0.35985 0.60479 0.0
H4529 H 0.59267 0.36447 0.57488 0.0
H4530 H 0.52669 0.41781 0.60536 0.0
H4531 H 0.50978 0.40179 0.57936 0.0
H4532 H 0.51028 0.38958 0.60655 0.0
H4533 H 0.60788 0.39571 0.55606 0.0
H4534 H 0.58597 0.40745 0.54091 0.0
H4535 H 0.60206 0.42257 0.56772 0.0
H4536 H 0.52839 0.44922 0.52254 0.0
H4537 H 0.56885 0.48509 0.58588 0.0
H4538 H 0.51726 0.39566 0.53919 0.0
H4539 H 0.54333 0.39612 0.52684 0.0
H4540 H 0.52186 0.40962 0.51351 0.0
H4541 H 0.56903 0.43668 0.61645 0.0
H4542 H 0.58241 0.46612 0.61608 0.0
H4543 H 0.59456 0.44363 0.60305 0.0
C4544 C 0.44157 0.7613 0.38665 0.0
C4545 C 0.4457 0.77226 0.40993 0.0
C4546 C 0.4214 0.76139 0.37139 0.0
C4547 C 0.40456 0.7729 0.37924 0.0
C4548 C 0.40867 0.78398 0.40283 0.0
C4549 C 0.42884 0.78323 0.41786 0.0
C4550 C 0.41829 0.74927 0.34665 0.0
C4551 C 0.39195 0.79711 0.41212 0.0
C4552 C 0.36615 0.79303 0.33114 0.0
C4553 C 0.34539 0.77708 0.32861 0.0
C4554 C 0.38479 0.79213 0.34783 0.0
C4555 C 0.38356 0.77451 0.36237 0.0
C4556 C 0.36244 0.75837 0.3601 0.0
C4557 C 0.34362 0.75998 0.34356 0.0
C4558 C 0.40616 0.80999 0.34961 0.0
C4559 C 0.3598 0.73918 0.37495 0.0
H4560 H 0.45409 0.75231 0.38036 0.0
H4561 H 0.43169 0.79174 0.43576 0.0
H4562 H 0.40129 0.73745 0.3427 0.0
H4563 H 0.41883 0.76186 0.33395 0.0
H4564 H 0.43176 0.73948 0.34375 0.0
H4565 H 0.39694 0.80404 0.43099 0.0
H4566 H 0.39088 0.8115 0.40189 0.0
H4567 H 0.37458 0.78603 0.40989 0.0
H4568 H 0.36779 0.80661 0.32016 0.0
H4569 H 0.32766 0.74754 0.34199 0.0
H4570 H 0.40532 0.82207 0.33647 0.0
H4571 H 0.42013 0.80113 0.34684 0.0
H4572 H 0.40984 0.81963 0.36753 0.0
H4573 H 0.37236 0.72849 0.37129 0.0
H4574 H 0.34231 0.72823 0.37156 0.0
H4575 H 0.36354 0.74614 0.39386 0.0
C4576 C 0.06764 0.72828 0.06912 0.0
C4577 C 0.06227 0.73569 0.09147 0.0
C4578 C 0.06581 0.70466 0.06092 0.0
C4579 C 0.05932 0.68746 0.07556 0.0
C4580 C 0.05424 0.69497 0.09823 0.0
C4581 C 0.05573 0.71854 0.10573 0.0
C4582 C 0.07099 0.69808 0.03648 0.0
C4583 C 0.04744 0.67799 0.11491 0.0
C4584 C 0.03468 0.6235 0.05072 0.0
C4585 C 0.05348 0.61291 0.05425 0.0
C4586 C 0.03644 0.6473 0.05698 0.0
C4587 C 0.05759 0.6618 0.06742 0.0
C4588 C 0.07672 0.65124 0.07101 0.0
C4589 C 0.07448 0.62729 0.06436 0.0
C4590 C 0.01551 0.65697 0.05171 0.0
C4591 C 0.09966 0.66524 0.08233 0.0
H4592 H 0.07381 0.74101 0.05814 0.0
H4593 H 0.05203 0.72365 0.12324 0.0
H4594 H 0.0852 0.68886 0.03728 0.0
H4595 H 0.05579 0.68631 0.02614 0.0
H4596 H 0.07574 0.7131 0.0271 0.0
H4597 H 0.04463 0.68629 0.13215 0.0
H4598 H 0.03147 0.66571 0.10703 0.0
H4599 H 0.06094 0.6681 0.11792 0.0
H4600 H 0.01828 0.6131 0.0427 0.0
H4601 H 0.08911 0.61973 0.06774 0.0
H4602 H 0.01762 0.66636 0.03632 0.0
H4603 H 0.01344 0.66912 0.06673 0.0
H4604 H 0.99964 0.64348 0.04743 0.0
H4605 H 0.10566 0.67884 0.07157 0.0
H4606 H 0.11282 0.6548 0.08439 0.0
H4607 H 0.09803 0.67371 0.09991 0.0
C4608 C 0.08924 0.28742 0.9352 0.0
C4609 C 0.06918 0.27712 0.92004 0.0
C4610 C 0.1109 0.29032 0.92701 0.0
C4611 C 0.11248 0.28298 0.90309 0.0
C4612 C 0.09237 0.2713 0.88828 0.0
C4613 C 0.07118 0.26846 0.89694 0.0
C4614 C 0.13191 0.30253 0.94356 0.0
C4615 C 0.09287 0.26333 0.86266 0.0
C4616 C 0.15926 0.31602 0.87242 0.0
C4617 C 0.1742 0.30104 0.87007 0.0
C4618 C 0.13939 0.31043 0.8833 0.0
C4619 C 0.13441 0.28949 0.89267 0.0
C4620 C 0.14958 0.27435 0.89052 0.0
C4621 C 0.16914 0.28018 0.87902 0.0
C4622 C 0.12353 0.3269 0.88447 0.0
C4623 C 0.14523 0.25206 0.90055 0.0
H4624 H 0.08789 0.29453 0.95292 0.0
H4625 H 0.05584 0.26055 0.88504 0.0
H4626 H 0.14614 0.29351 0.94186 0.0
H4627 H 0.13763 0.31993 0.93894 0.0
H4628 H 0.12857 0.30399 0.96217 0.0
H4629 H 0.07613 0.25285 0.85401 0.0
H4630 H 0.09732 0.27832 0.85319 0.0
H4631 H 0.10617 0.25317 0.86074 0.0
H4632 H 0.16313 0.33218 0.86557 0.0
H4633 H 0.18079 0.26868 0.87755 0.0
H4634 H 0.12152 0.33201 0.90304 0.0
H4635 H 0.10631 0.31851 0.87517 0.0
H4636 H 0.12986 0.34249 0.87646 0.0
H4637 H 0.14366 0.25522 0.91954 0.0
H4638 H 0.15908 0.24259 0.89838 0.0
H4639 H 0.12879 0.24114 0.89178 0.0
C4640 C 0.52745 0.73805 0.88802 0.0
C4641 C 0.54473 0.7569 0.89796 0.0
C4642 C 0.52384 0.71779 0.8985 0.0
C4643 C 0.53827 0.71602 0.91907 0.0
C4644 C 0.55623 0.73477 0.92868 0.0
C4645 C 0.559 0.75504 0.91826 0.0
C4646 C 0.50415 0.6985 0.88792 0.0
C4647 C 0.57247 0.73349 0.95011 0.0
C4648 C 0.51638 0.67212 0.9591 0.0
C4649 C 0.52547 0.65355 0.95102 0.0
C4650 C 0.52047 0.69255 0.94897 0.0
C4651 C 0.53442 0.69467 0.93064 0.0
C4652 C 0.54429 0.67615 0.92306 0.0
C4653 C 0.53943 0.65574 0.93309 0.0
C4654 C 0.50919 0.71159 0.95731 0.0
C4655 C 0.55972 0.67775 0.90406 0.0
H4656 H 0.51616 0.73944 0.87252 0.0
H4657 H 0.57241 0.76951 0.92604 0.0
H4658 H 0.51058 0.68289 0.88302 0.0
H4659 H 0.49231 0.69454 0.90111 0.0
H4660 H 0.49437 0.70257 0.87206 0.0
H4661 H 0.58636 0.749 0.95461 0.0
H4662 H 0.56296 0.7313 0.96543 0.0
H4663 H 0.5803 0.71845 0.94712 0.0
H4664 H 0.50531 0.67031 0.97273 0.0
H4665 H 0.54635 0.64133 0.92673 0.0
H4666 H 0.49774 0.71526 0.94247 0.0
H4667 H 0.52231 0.72739 0.96352 0.0
H4668 H 0.49899 0.70738 0.9718 0.0
H4669 H 0.54986 0.67951 0.88722 0.0
H4670 H 0.56736 0.66253 0.90135 0.0
H4671 H 0.57373 0.69312 0.90861 0.0
C4672 C 0.10961 0.77054 0.70996 0.0
C4673 C 0.09226 0.76342 0.72391 0.0
C4674 C 0.13331 0.77197 0.71748 0.0
C4675 C 0.14085 0.76616 0.73985 0.0
C4676 C 0.12346 0.75907 0.75418 0.0
C4677 C 0.09969 0.7574 0.74598 0.0
C4678 C 0.15042 0.77946 0.70109 0.0
C4679 C 0.12996 0.75303 0.77829 0.0
C4680 C 0.2018 0.7515 0.7504 0.0
C4681 C 0.21609 0.77233 0.76099 0.0
C4682 C 0.17765 0.74912 0.74382 0.0
C4683 C 0.16674 0.76789 0.74803 0.0
C4684 C 0.18114 0.7888 0.75909 0.0
C4685 C 0.20514 0.79075 0.76516 0.0
C4686 C 0.16382 0.72645 0.73182 0.0
C4687 C 0.17113 0.8093 0.76509 0.0
H4688 H 0.10453 0.77473 0.69264 0.0
H4689 H 0.08687 0.75081 0.75673 0.0
H4690 H 0.16275 0.79517 0.70949 0.0
H4691 H 0.16038 0.76613 0.69755 0.0
H4692 H 0.14213 0.78287 0.68407 0.0
H4693 H 0.11482 0.74795 0.7875 0.0
H4694 H 0.13915 0.73885 0.77693 0.0
H4695 H 0.14182 0.76784 0.78912 0.0
H4696 H 0.20961 0.73718 0.74648 0.0
H4697 H 0.21546 0.80699 0.77355 0.0
H4698 H 0.15579 0.72847 0.71414 0.0
H4699 H 0.14979 0.72016 0.74201 0.0
H4700 H 0.1744 0.71342 0.72982 0.0
H4701 H 0.15997 0.81237 0.74969 0.0
H4702 H 0.18451 0.82497 0.77117 0.0
H4703 H 0.16043 0.80596 0.77935 0.0
C4704 C 0.07174 0.38979 0.42076 0.0
C4705 C 0.05714 0.3859 0.39926 0.0
C4706 C 0.07174 0.4082 0.43838 0.0
C4707 C 0.05604 0.42277 0.43522 0.0
C4708 C 0.04114 0.41874 0.41368 0.0
C4709 C 0.04218 0.40087 0.39607 0.0
C4710 C 0.08857 0.41201 0.4605 0.0
C4711 C 0.02345 0.43295 0.40944 0.0
C4712 C 0.03863 0.45568 0.48936 0.0
C4713 C 0.0503 0.47831 0.48915 0.0
C4714 C 0.04057 0.43763 0.47232 0.0
C4715 C 0.05474 0.44185 0.45438 0.0
C4716 C 0.06684 0.4646 0.45428 0.0
C4717 C 0.06438 0.48238 0.47138 0.0
C4718 C 0.0269 0.414 0.47321 0.0
C4719 C 0.08239 0.47026 0.43593 0.0
H4720 H 0.08337 0.37848 0.42377 0.0
H4721 H 0.03041 0.39814 0.38012 0.0
H4722 H 0.09848 0.42986 0.46341 0.0
H4723 H 0.07925 0.40936 0.47589 0.0
H4724 H 0.10071 0.40037 0.4598 0.0
H4725 H 0.01287 0.42763 0.39199 0.0
H4726 H 0.01194 0.43153 0.42326 0.0
H4727 H 0.03191 0.45116 0.4106 0.0
H4728 H 0.02744 0.45207 0.50261 0.0
H4729 H 0.07361 0.49961 0.4708 0.0
H4730 H 0.03844 0.40184 0.47442 0.0
H4731 H 0.01483 0.40819 0.45675 0.0
H4732 H 0.01698 0.41326 0.48837 0.0
H4733 H 0.09508 0.4592 0.4359 0.0
H4734 H 0.09169 0.48836 0.43892 0.0
H4735 H 0.07225 0.46687 0.41822 0.0
C4736 C 0.43266 0.24941 0.20228 0.0
C4737 C 0.45498 0.25406 0.21514 0.0
C4738 C 0.41282 0.25317 0.21229 0.0
C4739 C 0.41422 0.26192 0.23639 0.0
C4740 C 0.43652 0.26636 0.2498 0.0
C4741 C 0.45634 0.26248 0.23922 0.0
C4742 C 0.39013 0.24802 0.19666 0.0
C4743 C 0.43949 0.27548 0.27551 0.0
C4744 C 0.36515 0.29192 0.25448 0.0
C4745 C 0.34981 0.27503 0.26344 0.0
C4746 C 0.38594 0.28814 0.24637 0.0
C4747 C 0.39249 0.26673 0.24691 0.0
C4748 C 0.37707 0.24954 0.25594 0.0
C4749 C 0.35624 0.25376 0.26381 0.0
C4750 C 0.40084 0.30722 0.23674 0.0
C4751 C 0.38251 0.22636 0.25713 0.0
H4752 H 0.43048 0.24282 0.18379 0.0
H4753 H 0.47296 0.26638 0.24982 0.0
H4754 H 0.37753 0.23539 0.2038 0.0
H4755 H 0.38322 0.26372 0.1963 0.0
H4756 H 0.3915 0.24122 0.17833 0.0
H4757 H 0.45731 0.2772 0.28405 0.0
H4758 H 0.43488 0.29241 0.27763 0.0
H4759 H 0.42771 0.26402 0.28478 0.0
H4760 H 0.36064 0.30823 0.25324 0.0
H4761 H 0.34493 0.24022 0.27034 0.0
H4762 H 0.40302 0.30164 0.21833 0.0
H4763 H 0.4181 0.31163 0.24714 0.0
H4764 H 0.39359 0.32276 0.23711 0.0
H4765 H 0.38177 0.21762 0.23908 0.0
H4766 H 0.37039 0.21549 0.26657 0.0
H4767 H 0.40015 0.22807 0.26611 0.0
C4768 C 0.63024 0.56172 0.38969 0.0
C4769 C 0.61971 0.55205 0.36687 0.0
C4770 C 0.61907 0.55855 0.40975 0.0
C4771 C 0.5968 0.54466 0.40746 0.0
C4772 C 0.58595 0.53477 0.3845 0.0
C4773 C 0.59735 0.53881 0.36452 0.0
C4774 C 0.63125 0.57015 0.4335 0.0
C4775 C 0.56246 0.51945 0.38111 0.0
C4776 C 0.5797 0.52177 0.46447 0.0
C4777 C 0.56518 0.53589 0.4718 0.0
C4778 C 0.58926 0.52375 0.44316 0.0
C4779 C 0.58503 0.54089 0.42916 0.0
C4780 C 0.57064 0.5554 0.43681 0.0
C4781 C 0.56059 0.5524 0.4576 0.0
C4782 C 0.60388 0.50742 0.43558 0.0
C4783 C 0.56632 0.57459 0.4234 0.0
H4784 H 0.64748 0.57195 0.39201 0.0
H4785 H 0.58905 0.53097 0.34716 0.0
H4786 H 0.62037 0.58043 0.44221 0.0
H4787 H 0.63439 0.55721 0.44499 0.0
H4788 H 0.64792 0.58149 0.43222 0.0
H4789 H 0.55647 0.51259 0.36235 0.0
H4790 H 0.56264 0.50499 0.39143 0.0
H4791 H 0.54995 0.52893 0.38779 0.0
H4792 H 0.58317 0.50882 0.47514 0.0
H4793 H 0.54955 0.56354 0.46316 0.0
H4794 H 0.62177 0.5168 0.43593 0.0
H4795 H 0.59763 0.49938 0.41722 0.0
H4796 H 0.60389 0.49382 0.4471 0.0
H4797 H 0.5828 0.5864 0.42251 0.0
H4798 H 0.5548 0.58443 0.43163 0.0
H4799 H 0.55859 0.56778 0.40507 0.0
C4800 C 0.31987 0.92325 0.08405 0.0
C4801 C 0.30079 0.91285 0.06764 0.0
C4802 C 0.32554 0.9131 0.10391 0.0
C4803 C 0.31127 0.89256 0.10773 0.0
C4804 C 0.29066 0.88337 0.09253 0.0
C4805 C 0.28587 0.89341 0.07229 0.0
C4806 C 0.34794 0.92316 0.11943 0.0
C4807 C 0.27453 0.86207 0.09674 0.0
C4808 C 0.34176 0.85126 0.13578 0.0
C4809 C 0.33949 0.85635 0.15956 0.0
C4810 C 0.33238 0.86278 0.11871 0.0
C4811 C 0.31964 0.87917 0.12546 0.0
C4812 C 0.31628 0.88366 0.1492 0.0
C4813 C 0.3267 0.87259 0.16606 0.0
C4814 C 0.33668 0.85786 0.09354 0.0
C4815 C 0.30217 0.9005 0.15688 0.0
H4816 H 0.33148 0.93824 0.08036 0.0
H4817 H 0.27099 0.88554 0.05965 0.0
H4818 H 0.34541 0.92464 0.13823 0.0
H4819 H 0.36004 0.91168 0.11697 0.0
H4820 H 0.35596 0.94025 0.11532 0.0
H4821 H 0.25745 0.85978 0.08621 0.0
H4822 H 0.28175 0.84699 0.09176 0.0
H4823 H 0.27235 0.86256 0.11563 0.0
H4824 H 0.35103 0.83834 0.13044 0.0
H4825 H 0.32511 0.87705 0.1844 0.0
H4826 H 0.34551 0.87374 0.08751 0.0
H4827 H 0.32021 0.85165 0.0819 0.0
H4828 H 0.34733 0.84491 0.09134 0.0
H4829 H 0.31178 0.91808 0.15641 0.0
H4830 H 0.29796 0.89909 0.17502 0.0
H4831 H 0.28599 0.89787 0.14473 0.0
C4832 C 0.91924 0.53201 0.90788 0.0
C4833 C 0.92562 0.53873 0.88656 0.0
C4834 C 0.93583 0.53207 0.92691 0.0
C4835 C 0.95922 0.53935 0.92458 0.0
C4836 C 0.96573 0.547 0.90349 0.0
C4837 C 0.94884 0.54654 0.88471 0.0
C4838 C 0.92841 0.52379 0.94926 0.0
C4839 C 0.99057 0.55521 0.90059 0.0
C4840 C 1.00348 0.55902 0.97802 0.0
C4841 C 0.01336 0.54006 0.97914 0.0
C4842 C 0.98513 0.55867 0.96086 0.0
C4843 C 0.97707 0.53906 0.94415 0.0
C4844 C 0.98718 0.51984 0.94516 0.0
C4845 C 1.00558 0.52071 0.96258 0.0
C4846 C 0.97481 0.57948 0.96026 0.0
C4847 C 0.97885 0.4986 0.92766 0.0
H4848 H 0.90133 0.52593 0.90946 0.0
H4849 H 0.95391 0.55193 0.86837 0.0
H4850 H 0.93561 0.50874 0.95274 0.0
H4851 H 0.93516 0.53718 0.96446 0.0
H4852 H 0.90949 0.51902 0.94834 0.0
H4853 H 0.99268 0.56119 0.88325 0.0
H4854 H 0.99878 0.56938 0.91461 0.0
H4855 H 0.99988 0.54123 0.90238 0.0
H4856 H 0.01023 0.57419 0.99057 0.0
H4857 H 0.01375 0.50629 0.96341 0.0
H4858 H 0.95604 0.57472 0.96033 0.0
H4859 H 0.97775 0.58691 0.9438 0.0
H4860 H 0.98222 0.59276 0.97545 0.0
H4861 H 0.96011 0.49252 0.92711 0.0
H4862 H 0.98748 0.48463 0.93196 0.0
H4863 H 0.98203 0.5025 0.9098 0.0
C4864 C 0.27651 0.23718 0.59424 0.0
C4865 C 0.27151 0.21346 0.58768 0.0
C4866 C 0.27776 0.24684 0.6179 0.0
C4867 C 0.27407 0.23255 0.63574 0.0
C4868 C 0.26917 0.20859 0.62923 0.0
C4869 C 0.26786 0.19939 0.60542 0.0
C4870 C 0.28325 0.27242 0.62388 0.0
C4871 C 0.26541 0.19261 0.64751 0.0
C4872 C 0.29896 0.25561 0.69986 0.0
C4873 C 0.27978 0.26008 0.71004 0.0
C4874 C 0.29743 0.24717 0.67584 0.0
C4875 C 0.27608 0.24258 0.66125 0.0
C4876 C 0.2567 0.24737 0.67124 0.0
C4877 C 0.25882 0.25617 0.6953 0.0
C4878 C 0.31877 0.24281 0.66626 0.0
C4879 C 0.2336 0.24306 0.65649 0.0
H4880 H 0.27931 0.2483 0.5808 0.0
H4881 H 0.26397 0.18107 0.60071 0.0
H4882 H 0.26953 0.27798 0.63292 0.0
H4883 H 0.2994 0.27789 0.63619 0.0
H4884 H 0.28513 0.28125 0.60805 0.0
H4885 H 0.26128 0.17444 0.63968 0.0
H4886 H 0.28102 0.19558 0.66054 0.0
H4887 H 0.25123 0.19605 0.65719 0.0
H4888 H 0.31543 0.2589 0.71065 0.0
H4889 H 0.24396 0.25973 0.70259 0.0
H4890 H 0.31968 0.24805 0.64848 0.0
H4891 H 0.3185 0.2243 0.66475 0.0
H4892 H 0.33453 0.25206 0.67788 0.0
H4893 H 0.23468 0.25301 0.6414 0.0
H4894 H 0.2202 0.24771 0.66669 0.0
H4895 H 0.22826 0.2248 0.64915 0.0
C4896 C 0.58672 0.54835 0.22099 0.0
C4897 C 0.61026 0.54989 0.22738 0.0
C4898 C 0.57724 0.54718 0.19723 0.0
C4899 C 0.59143 0.54706 0.17909 0.0
C4900 C 0.61515 0.54823 0.18544 0.0
C4901 C 0.62425 0.54985 0.20936 0.0
C4902 C 0.55199 0.54639 0.19156 0.0
C4903 C 0.63099 0.54774 0.16689 0.0
C4904 C 0.56288 0.52369 0.11592 0.0
C4905 C 0.56255 0.54362 0.1054 0.0
C4906 C 0.57242 0.52453 0.13959 0.0
C4907 C 0.58154 0.54585 0.15358 0.0
C4908 C 0.5813 0.56602 0.14306 0.0
C4909 C 0.57221 0.56463 0.11916 0.0
C4910 C 0.5728 0.5025 0.14958 0.0
C4911 C 0.59043 0.58918 0.15713 0.0
H4912 H 0.57571 0.54851 0.23465 0.0
H4913 H 0.64243 0.55095 0.21395 0.0
H4914 H 0.54942 0.56097 0.18217 0.0
H4915 H 0.54367 0.53059 0.17965 0.0
H4916 H 0.54327 0.54697 0.20756 0.0
H4917 H 0.64883 0.54801 0.1745 0.0
H4918 H 0.62476 0.53221 0.15393 0.0
H4919 H 0.63111 0.56262 0.15715 0.0
H4920 H 0.55582 0.50725 0.10557 0.0
H4921 H 0.57261 0.58009 0.11132 0.0
H4922 H 0.56238 0.5013 0.1643 0.0
H4923 H 0.59055 0.5021 0.1568 0.0
H4924 H 0.56606 0.48732 0.1362 0.0
H4925 H 0.58066 0.5912 0.17219 0.0
H4926 H 0.58927 0.60325 0.14644 0.0
H4927 H 0.60858 0.59082 0.1645 0.0
C4928 C 0.28355 0.87796 0.93606 0.0
C4929 C 0.29213 0.90079 0.93354 0.0
C4930 C 0.28252 0.86058 0.91766 0.0
C4931 C 0.29052 0.86621 0.89644 0.0
C4932 C 0.2986 0.88921 0.89349 0.0
C4933 C 0.29908 0.90629 0.91204 0.0
C4934 C 0.27333 0.83617 0.92111 0.0
C4935 C 0.30738 0.89572 0.87104 0.0
C4936 C 0.30915 0.82017 0.85825 0.0
C4937 C 0.29043 0.8137 0.84061 0.0
C4938 C 0.30956 0.83755 0.87651 0.0
C4939 C 0.29047 0.84796 0.87728 0.0
C4940 C 0.27125 0.84089 0.85982 0.0
C4941 C 0.27144 0.82371 0.8417 0.0
C4942 C 0.33046 0.84498 0.89475 0.0
C4943 C 0.2505 0.85144 0.86028 0.0
H4944 H 0.27799 0.8736 0.95256 0.0
H4945 H 0.30573 0.92389 0.90993 0.0
H4946 H 0.25922 0.82808 0.90691 0.0
H4947 H 0.287 0.82633 0.92006 0.0
H4948 H 0.26685 0.83479 0.93833 0.0
H4949 H 0.31306 0.91444 0.87159 0.0
H4950 H 0.32201 0.88767 0.86783 0.0
H4951 H 0.29385 0.88932 0.85583 0.0
H4952 H 0.32366 0.81209 0.85737 0.0
H4953 H 0.25665 0.818 0.82836 0.0
H4954 H 0.32563 0.84267 0.9125 0.0
H4955 H 0.33776 0.86337 0.89492 0.0
H4956 H 0.34392 0.83527 0.89144 0.0
H4957 H 0.24339 0.84943 0.87708 0.0
H4958 H 0.23684 0.84367 0.84549 0.0
H4959 H 0.25545 0.86997 0.8593 0.0
C4960 C 0.94257 0.54331 0.75066 0.0
C4961 C 0.92138 0.52989 0.7533 0.0
C4962 C 0.95343 0.53857 0.73097 0.0
C4963 C 0.94311 0.51956 0.71411 0.0
C4964 C 0.92107 0.50686 0.716 0.0
C4965 C 0.91031 0.51242 0.73546 0.0
C4966 C 0.97649 0.55306 0.72895 0.0
C4967 C 0.90965 0.48623 0.69854 0.0
C4968 C 0.96281 0.50563 0.65532 0.0
C4969 C 0.97615 0.48965 0.66042 0.0
C4970 C 0.95326 0.51682 0.673 0.0
C4971 C 0.95627 0.51116 0.69609 0.0
C4972 C 0.97027 0.49567 0.70156 0.0
C4973 C 0.98041 0.48547 0.68375 0.0
C4974 C 0.93913 0.53389 0.6667 0.0
C4975 C 0.97363 0.48898 0.72599 0.0
H4976 H 0.95103 0.55698 0.76439 0.0
H4977 H 0.89395 0.50198 0.73754 0.0
H4978 H 0.99009 0.54368 0.73354 0.0
H4979 H 0.97746 0.55683 0.71063 0.0
H4980 H 0.98012 0.56939 0.74091 0.0
H4981 H 0.89194 0.47905 0.70177 0.0
H4982 H 0.90903 0.49064 0.68035 0.0
H4983 H 0.91979 0.47282 0.69965 0.0
H4984 H 0.95907 0.50889 0.63737 0.0
H4985 H 0.99125 0.47376 0.68808 0.0
H4986 H 0.94277 0.54888 0.68049 0.0
H4987 H 0.92069 0.52594 0.66543 0.0
H4988 H 0.94241 0.53986 0.64958 0.0
H4989 H 0.98063 0.5043 0.73902 0.0
H4990 H 0.9854 0.47701 0.72741 0.0
H4991 H 0.95688 0.48073 0.73083 0.0
C4992 C 0.28623 0.22349 0.44908 0.0
C4993 C 0.26625 0.20681 0.44896 0.0
C4994 C 0.29054 0.23457 0.42899 0.0
C4995 C 0.27426 0.2294 0.40832 0.0
C4996 C 0.25371 0.21316 0.40853 0.0
C4997 C 0.25021 0.20188 0.4285 0.0
C4998 C 0.31293 0.25125 0.42959 0.0
C4999 C 0.23544 0.20739 0.38744 0.0
C5000 C 0.2751 0.27099 0.36198 0.0
C5001 C 0.28463 0.26037 0.34371 0.0
C5002 C 0.27201 0.26139 0.38305 0.0
C5003 C 0.27866 0.24056 0.38637 0.0
C5004 C 0.28861 0.22992 0.36813 0.0
C5005 C 0.29142 0.23987 0.34717 0.0
C5006 C 0.26109 0.27337 0.4016 0.0
C5007 C 0.29611 0.20781 0.37063 0.0
H5008 H 0.299 0.22713 0.46451 0.0
H5009 H 0.2348 0.18897 0.42801 0.0
H5010 H 0.32266 0.24498 0.41592 0.0
H5011 H 0.30974 0.26795 0.42545 0.0
H5012 H 0.32368 0.25381 0.44695 0.0
H5013 H 0.21988 0.19545 0.39078 0.0
H5014 H 0.23048 0.22314 0.38241 0.0
H5015 H 0.2422 0.19952 0.3722 0.0
H5016 H 0.26961 0.28674 0.35966 0.0
H5017 H 0.2989 0.23148 0.33338 0.0
H5018 H 0.27247 0.27688 0.41862 0.0
H5019 H 0.24484 0.26218 0.40436 0.0
H5020 H 0.25738 0.2897 0.39676 0.0
H5021 H 0.30808 0.20963 0.38709 0.0
H5022 H 0.30464 0.20226 0.35557 0.0
H5023 H 0.28106 0.19423 0.37191 0.0
C5024 C 0.34565 0.63614 0.55387 0.0
C5025 C 0.32722 0.61742 0.55143 0.0
C5026 C 0.36752 0.63296 0.55006 0.0
C5027 C 0.37071 0.61063 0.54376 0.0
C5028 C 0.35268 0.59165 0.54386 0.0
C5029 C 0.33112 0.59531 0.54771 0.0
C5030 C 0.38656 0.65353 0.5506 0.0
C5031 C 0.35545 0.56752 0.53752 0.0
C5032 C 0.40731 0.59766 0.49735 0.0
C5033 C 0.42509 0.59093 0.5106 0.0
C5034 C 0.39028 0.60569 0.50825 0.0
C5035 C 0.39112 0.60699 0.53299 0.0
C5036 C 0.40987 0.60174 0.54663 0.0
C5037 C 0.42668 0.59369 0.53523 0.0
C5038 C 0.37048 0.61114 0.49307 0.0
C5039 C 0.41141 0.60315 0.57305 0.0
H5040 H 0.34267 0.65326 0.55691 0.0
H5041 H 0.31692 0.58081 0.54629 0.0
H5042 H 0.40308 0.65047 0.55869 0.0
H5043 H 0.38854 0.65694 0.53233 0.0
H5044 H 0.38292 0.66894 0.56045 0.0
H5045 H 0.34073 0.55475 0.54133 0.0
H5046 H 0.35684 0.56452 0.51847 0.0
H5047 H 0.37134 0.5647 0.54728 0.0
H5048 H 0.40596 0.59539 0.47832 0.0
H5049 H 0.44069 0.58885 0.54553 0.0
H5050 H 0.36737 0.62799 0.49978 0.0
H5051 H 0.35468 0.59823 0.49371 0.0
H5052 H 0.3735 0.61125 0.47442 0.0
H5053 H 0.40622 0.61869 0.58066 0.0
H5054 H 0.42899 0.60315 0.58129 0.0
H5055 H 0.39957 0.58824 0.57773 0.0
C5056 C 0.87192 0.94615 0.5498 0.0
C5057 C 0.868 0.92311 0.54046 0.0
C5058 C 0.89299 0.9612 0.54925 0.0
C5059 C 0.91114 0.95291 0.54004 0.0
C5060 C 0.9075 0.92942 0.53128 0.0
C5061 C 0.88602 0.91486 0.53156 0.0
C5062 C 0.89585 0.98603 0.55857 0.0
C5063 C 0.92628 0.91967 0.5215 0.0
C5064 C 0.96011 0.99595 0.52172 0.0
C5065 C 0.97659 0.99982 0.54151 0.0
C5066 C 0.93925 0.98021 0.52065 0.0
C5067 C 0.93404 0.96872 0.54027 0.0
C5068 C 0.95072 0.9728 0.56046 0.0
C5069 C 0.97178 0.98814 0.56078 0.0
C5070 C 0.92296 0.97625 0.49834 0.0
C5071 C 0.94655 0.96051 0.58154 0.0
H5072 H 0.85846 0.95243 0.55773 0.0
H5073 H 0.88328 0.89699 0.5247 0.0
H5074 H 0.90979 0.99091 0.57357 0.0
H5075 H 0.90088 0.99669 0.54469 0.0
H5076 H 0.87996 0.99 0.56453 0.0
H5077 H 0.92141 0.90086 0.51702 0.0
H5078 H 0.93038 0.92724 0.50538 0.0
H5079 H 0.94208 0.92408 0.53439 0.0
H5080 H 0.96392 1.00454 0.50658 0.0
H5081 H 0.98466 0.99083 0.57604 0.0
H5082 H 0.91253 0.95867 0.49516 0.0
H5083 H 0.93211 0.97938 0.48287 0.0
H5084 H 0.91164 0.98853 0.4999 0.0
H5085 H 0.9313 0.96455 0.58886 0.0
H5086 H 0.9614 0.96516 0.59565 0.0
H5087 H 0.94296 0.94183 0.57615 0.0
C5088 C 0.89073 0.07012 0.2652 0.0
C5089 C 0.91343 0.06945 0.27321 0.0
C5090 C 0.88319 0.0906 0.26609 0.0
C5091 C 0.89873 0.11118 0.27532 0.0
C5092 C 0.9221 0.11092 0.28211 0.0
C5093 C 0.92923 0.08996 0.28095 0.0
C5094 C 0.85818 0.08996 0.25854 0.0
C5095 C 0.9392 0.13257 0.29193 0.0
C5096 C 0.87895 0.16594 0.26551 0.0
C5097 C 0.87046 0.17108 0.28663 0.0
C5098 C 0.88852 0.14667 0.26165 0.0
C5099 C 0.88988 0.13244 0.27951 0.0
C5100 C 0.88123 0.13764 0.3009 0.0
C5101 C 0.87157 0.15691 0.30418 0.0
C5102 C 0.89723 0.14158 0.23853 0.0
C5103 C 0.88228 0.1229 0.32038 0.0
H5104 H 0.87843 0.05438 0.25919 0.0
H5105 H 0.94671 0.08952 0.28745 0.0
H5106 H 0.84993 0.09454 0.27414 0.0
H5107 H 0.85632 0.10263 0.24628 0.0
H5108 H 0.8488 0.07288 0.24981 0.0
H5109 H 0.95706 0.12999 0.2936 0.0
H5110 H 0.93782 0.14609 0.2806 0.0
H5111 H 0.93546 0.13878 0.30959 0.0
H5112 H 0.8784 0.17725 0.25217 0.0
H5113 H 0.86541 0.16127 0.32069 0.0
H5114 H 0.88784 0.12464 0.22953 0.0
H5115 H 0.91559 0.14088 0.24167 0.0
H5116 H 0.89525 0.15454 0.22661 0.0
H5117 H 0.8722 0.10543 0.31411 0.0
H5118 H 0.87554 0.12971 0.33621 0.0
H5119 H 0.90023 0.12153 0.32551 0.0
C5120 C 0.70755 0.08981 0.05546 0.0
C5121 C 0.71254 0.11185 0.04929 0.0
C5122 C 0.68485 0.078 0.05439 0.0
C5123 C 0.6668 0.08899 0.04812 0.0
C5124 C 0.6718 0.11154 0.04248 0.0
C5125 C 0.69469 0.12268 0.04305 0.0
C5126 C 0.68016 0.05386 0.06017 0.0
C5127 C 0.65301 0.12392 0.03609 0.0
C5128 C 0.60794 0.05183 0.02749 0.0
C5129 C 0.59764 0.05339 0.04783 0.0
C5130 C 0.63011 0.06409 0.02709 0.0
C5131 C 0.64272 0.07704 0.04797 0.0
C5132 C 0.63238 0.07814 0.06888 0.0
C5133 C 0.60973 0.0664 0.06848 0.0
C5134 C 0.63993 0.06268 0.00431 0.0
C5135 C 0.64506 0.09198 0.09145 0.0
H5136 H 0.72143 0.08195 0.06146 0.0
H5137 H 0.69867 0.13997 0.0388 0.0
H5138 H 0.67051 0.05274 0.07548 0.0
H5139 H 0.66934 0.04238 0.0451 0.0
H5140 H 0.69613 0.04764 0.06427 0.0
H5141 H 0.65982 0.14156 0.03261 0.0
H5142 H 0.64164 0.1145 0.0202 0.0
H5143 H 0.64232 0.12467 0.05056 0.0
H5144 H 0.5985 0.04126 0.01177 0.0
H5145 H 0.60136 0.06757 0.08417 0.0
H5146 H 0.65053 0.0793 1.00197 0.0
H5147 H 0.6264 0.05715 0.98894 0.0
H5148 H 0.65069 0.04985 0.00471 0.0
H5149 H 0.65068 0.11003 0.08869 0.0
H5150 H 0.66067 0.08565 0.09686 0.0
H5151 H 0.63439 0.09128 0.10603 0.0
C5152 C 0.22921 0.49321 0.26556 0.0
C5153 C 0.20731 0.49801 0.2639 0.0
C5154 C 0.23259 0.47184 0.27024 0.0
C5155 C 0.21358 0.45505 0.27356 0.0
C5156 C 0.19116 0.45898 0.26933 0.0
C5157 C 0.18825 0.48056 0.26443 0.0
C5158 C 0.25677 0.46818 0.27415 0.0
C5159 C 0.1705 0.44131 0.27236 0.0
C5160 C 0.22899 0.39916 0.28493 0.0
C5161 C 0.23468 0.40292 0.30949 0.0
C5162 C 0.22055 0.41535 0.27286 0.0
C5163 C 0.21778 0.43563 0.28573 0.0
C5164 C 0.22198 0.43875 0.31062 0.0
C5165 C 0.23042 0.42234 0.32219 0.0
C5166 C 0.21611 0.41139 0.24634 0.0
C5167 C 0.21915 0.46018 0.325 0.0
H5168 H 0.24391 0.50668 0.2648 0.0
H5169 H 0.17129 0.4843 0.2631 0.0
H5170 H 0.26202 0.46854 0.29324 0.0
H5171 H 0.25784 0.45131 0.26526 0.0
H5172 H 0.26912 0.48155 0.26759 0.0
H5173 H 0.15444 0.44494 0.2637 0.0
H5174 H 0.17209 0.42402 0.26509 0.0
H5175 H 0.16918 0.44122 0.29139 0.0
H5176 H 0.23191 0.38393 0.27508 0.0
H5177 H 0.23496 0.42541 0.34112 0.0
H5178 H 0.23065 0.42148 0.23912 0.0
H5179 H 0.20042 0.41709 0.2398 0.0
H5180 H 0.2143 0.39317 0.23941 0.0
H5181 H 0.23222 0.47487 0.32173 0.0
H5182 H 0.22107 0.45898 0.34416 0.0
H5183 H 0.20208 0.46379 0.31972 0.0
C5184 C 0.22963 0.39631 0.02249 0.0
C5185 C 0.24818 0.40356 0.04031 0.0
C5186 C 0.21026 0.40609 0.02243 0.0
C5187 C 0.20975 0.42391 0.04035 0.0
C5188 C 0.22794 0.43032 0.05911 0.0
C5189 C 0.24693 0.42002 0.05887 0.0
C5190 C 0.19118 0.39856 1.00219 0.0
C5191 C 0.22821 0.44931 0.07845 0.0
C5192 C 0.17586 0.46755 0.0219 0.0
C5193 C 0.15496 0.45984 0.03001 0.0
C5194 C 0.19404 0.45632 0.02565 0.0
C5195 C 0.19132 0.43718 0.03817 0.0
C5196 C 0.17059 0.43015 0.04747 0.0
C5197 C 0.15254 0.44139 0.04301 0.0
C5198 C 0.21575 0.46426 0.0152 0.0
C5199 C 0.16714 0.41016 0.06126 0.0
H5200 H 0.23093 0.38409 0.00778 0.0
H5201 H 0.26162 0.42613 0.07225 0.0
H5202 H 0.17433 0.3953 0.00877 0.0
H5203 H 0.19128 0.41234 0.9909 0.0
H5204 H 0.19293 0.38291 0.9912 0.0
H5205 H 0.24199 0.45028 0.0932 0.0
H5206 H 0.23097 0.46582 0.07127 0.0
H5207 H 0.21152 0.44702 0.08539 0.0
H5208 H 0.17754 0.48158 0.0115 0.0
H5209 H 0.13625 0.43537 0.0491 0.0
H5210 H 0.21807 0.45068 1.00172 0.0
H5211 H 0.2308 0.46761 0.02898 0.0
H5212 H 0.21553 0.47997 0.00685 0.0
H5213 H 0.16681 0.39428 0.04953 0.0
H5214 H 0.15091 0.40818 0.06913 0.0
H5215 H 0.1816 0.41216 0.07552 0.0
C5216 C 0.91281 0.93229 0.28386 0.0
C5217 C 0.90421 0.94968 0.27411 0.0
C5218 C 0.89856 0.91077 0.28444 0.0
C5219 C 0.87503 0.9065 0.27519 0.0
C5220 C 0.86643 0.92397 0.265 0.0
C5221 C 0.88119 0.94505 0.26413 0.0
C5222 C 0.90863 0.89266 0.29519 0.0
C5223 C 0.84152 0.92041 0.25512 0.0
C5224 C 0.83893 0.84618 0.25627 0.0
C5225 C 0.82701 0.84237 0.27559 0.0
C5226 C 0.85491 0.8667 0.25611 0.0
C5227 C 0.85935 0.88382 0.27586 0.0
C5228 C 0.848 0.87941 0.29576 0.0
C5229 C 0.83161 0.85914 0.29513 0.0
C5230 C 0.8674 0.86985 0.23499 0.0
C5231 C 0.85282 0.89569 0.31808 0.0
H5232 H 0.9307 0.93557 0.2912 0.0
H5233 H 0.87472 0.95795 0.25544 0.0
H5234 H 0.90126 0.88934 0.31161 0.0
H5235 H 0.90416 0.87645 0.28304 0.0
H5236 H 0.92754 0.89774 0.29944 0.0
H5237 H 0.83737 0.9357 0.24805 0.0
H5238 H 0.83694 0.9059 0.24079 0.0
H5239 H 0.83066 0.91602 0.26905 0.0
H5240 H 0.83579 0.83305 0.24125 0.0
H5241 H 0.82304 0.85608 0.31045 0.0
H5242 H 0.88616 0.87383 0.24058 0.0
H5243 H 0.86319 0.88446 0.22664 0.0
H5244 H 0.86299 0.85447 0.22162 0.0
H5245 H 0.85318 0.88631 0.33363 0.0
H5246 H 0.83863 0.90481 0.31877 0.0
H5247 H 0.8693 0.90803 0.31944 0.0
C5248 C 0.73499 0.12855 0.76427 0.0
C5249 C 0.71485 0.12089 0.77367 0.0
C5250 C 0.74509 0.15174 0.76707 0.0
C5251 C 0.73395 0.16758 0.77836 0.0
C5252 C 0.71344 0.15986 0.78767 0.0
C5253 C 0.70419 0.13648 0.78539 0.0
C5254 C 0.76729 0.15933 0.75734 0.0
C5255 C 0.70108 0.17628 0.79956 0.0
C5256 C 0.77142 0.22613 0.79523 0.0
C5257 C 0.76836 0.2352 0.77418 0.0
C5258 C 0.75899 0.20461 0.79769 0.0
C5259 C 0.74307 0.19219 0.77863 0.0
C5260 C 0.73841 0.20239 0.75815 0.0
C5261 C 0.75161 0.22369 0.75593 0.0
C5262 C 0.76489 0.19455 0.81971 0.0
C5263 C 0.72058 0.19021 0.73801 0.0
H5264 H 0.74253 0.11643 0.75425 0.0
H5265 H 0.68832 0.13036 0.79224 0.0
H5266 H 0.76448 0.16933 0.74266 0.0
H5267 H 0.78006 0.17056 0.77116 0.0
H5268 H 0.77454 0.14472 0.75069 0.0
H5269 H 0.71199 0.18534 0.8158 0.0
H5270 H 0.69805 0.18925 0.78801 0.0
H5271 H 0.68443 0.16762 0.80431 0.0
H5272 H 0.78468 0.2351 0.80916 0.0
H5273 H 0.74935 0.23104 0.73971 0.0
H5274 H 0.77884 0.18546 0.81684 0.0
H5275 H 0.75012 0.18236 0.82412 0.0
H5276 H 0.77128 0.20801 0.83495 0.0
H5277 H 0.72706 0.17648 0.72831 0.0
H5278 H 0.7163 0.20195 0.72545 0.0
H5279 H 0.70469 0.18217 0.74467 0.0
loop_
_geom_bond_atom_site_label_1
_geom_bond_atom_site_label_2
_geom_bond_distance
_geom_bond_site_symmetry_2
_ccdc_geom_bond_type
Mn0 O5 2.095 . S
Mn0 O15 2.162 . S
Mn0 O16 2.297 . S
Mn0 O24 2.383 1_455 S
Mn0 O25 2.209 . S
Mn0 O26 2.094 . S
Mn1 O6 2.121 . S
Mn1 N8 2.257 . S
Mn1 N17 2.282 . S
Mn1 O25 2.215 . S
Mn1 O27 2.117 . S
C2 O24 1.233 1_455 S
C2 O25 1.283 . S
C3 O15 1.281 . S
C3 O16 1.236 . S
C4 O26 1.240 . S
C4 O27 1.264 . S
O5 Mn0 2.095 . S
O5 C14 1.250 . S
O6 Mn1 2.121 . S
O6 C14 1.258 . S
C7 N8 1.326 . S
C7 C11 1.460 . S
C7 H13 0.929 . S
N8 Mn1 2.257 . S
N8 C7 1.326 . S
N8 C12 1.362 . S
C9 C10 1.258 1_655 S
C9 C12 1.431 1_655 S
C9 C29 1.449 . S
C10 C9 1.258 1_455 S
C10 C11 1.477 . S
C10 H30 0.932 . S
C11 C7 1.460 . S
C11 C10 1.477 . S
C11 H31 0.930 . S
C12 N8 1.362 . S
C12 C9 1.431 1_455 S
C12 C22 1.476 1_455 S
H13 C7 0.929 . S
C14 O5 1.250 . S
C14 O6 1.258 . S
O15 Mn0 2.162 . S
O15 C3 1.281 . S
O16 Mn0 2.297 . S
O16 C3 1.236 . S
N17 Mn1 2.282 . S
N17 C18 1.328 1_455 S
N17 C22 1.318 1_455 S
C18 N17 1.328 1_655 S
C18 C19 1.457 . S
C18 H23 0.929 1_655 S
C19 C18 1.457 . S
C19 C20 1.291 . S
C19 H32 0.931 . S
C20 C19 1.291 . S
C20 C21 1.373 . S
C20 H33 0.929 . S
C21 C20 1.373 . S
C21 C22 1.396 . S
C21 C28 1.403 . S
C22 C12 1.476 1_655 S
C22 N17 1.318 1_655 S
C22 C21 1.396 . S
H23 C18 0.929 1_455 S
O24 Mn0 2.383 1_655 S
O24 C2 1.233 1_655 S
O25 Mn0 2.209 . S
O25 Mn1 2.215 . S
O25 C2 1.283 . S
O26 Mn0 2.094 . S
O26 C4 1.240 . S
O27 Mn1 2.117 . S
O27 C4 1.264 . S
C28 C21 1.403 . S
C28 C29 1.399 . S
C28 H34 0.929 . S
C29 C9 1.449 . S
C29 C28 1.399 . S
C29 H35 0.930 . S
H30 C10 0.932 . S
H31 C11 0.930 . S
H32 C19 0.931 . S
H33 C20 0.929 . S
H34 C28 0.929 . S
H35 C29 0.930 . S
Mn36 O41 2.095 1_455 S
Mn36 O51 2.162 . S
Mn36 O52 2.297 . S
Mn36 O60 2.385 . S
Mn36 O61 2.209 . S
Mn36 O62 2.094 . S
Mn37 O42 2.121 1_455 S
Mn37 N44 2.257 . S
Mn37 N53 2.282 . S
Mn37 O61 2.215 . S
Mn37 O63 2.117 . S
C38 O60 1.234 . S
C38 O61 1.283 . S
C39 O51 1.281 . S
C39 O52 1.236 . S
C40 O62 1.240 . S
C40 O63 1.264 . S
O41 Mn36 2.095 1_655 S
O41 C50 1.250 . S
O42 Mn37 2.121 1_655 S
O42 C50 1.258 . S
C43 N44 1.326 . S
C43 C47 1.460 . S
C43 H49 0.929 . S
N44 Mn37 2.257 . S
N44 C43 1.326 . S
N44 C48 1.362 . S
C45 C46 1.258 . S
C45 C48 1.431 . S
C45 C65 1.449 . S
C46 C45 1.258 . S
C46 C47 1.477 . S
C46 H66 0.931 . S
C47 C43 1.460 . S
C47 C46 1.477 . S
C47 H67 0.930 . S
C48 N44 1.362 . S
C48 C45 1.431 . S
C48 C58 1.476 . S
H49 C43 0.929 . S
C50 O41 1.250 . S
C50 O42 1.258 . S
O51 Mn36 2.162 . S
O51 C39 1.281 . S
O52 Mn36 2.297 . S
O52 C39 1.236 . S
N53 Mn37 2.282 . S
N53 C54 1.328 . S
N53 C58 1.318 . S
C54 N53 1.328 . S
C54 C55 1.457 . S
C54 H59 0.929 . S
C55 C54 1.457 . S
C55 C56 1.291 . S
C55 H68 0.931 . S
C56 C55 1.291 . S
C56 C57 1.373 . S
C56 H69 0.929 . S
C57 C56 1.373 . S
C57 C58 1.396 . S
C57 C64 1.403 . S
C58 C48 1.476 . S
C58 N53 1.318 . S
C58 C57 1.396 . S
H59 C54 0.929 . S
O60 Mn36 2.385 . S
O60 C38 1.234 . S
O61 Mn36 2.209 . S
O61 Mn37 2.215 . S
O61 C38 1.283 . S
O62 Mn36 2.094 . S
O62 C40 1.240 . S
O63 Mn37 2.117 . S
O63 C40 1.264 . S
C64 C57 1.403 . S
C64 C65 1.399 . S
C64 H70 0.929 . S
C65 C45 1.449 . S
C65 C64 1.399 . S
C65 H71 0.930 . S
H66 C46 0.931 . S
H67 C47 0.930 . S
H68 C55 0.931 . S
H69 C56 0.929 . S
H70 C64 0.929 . S
H71 C65 0.930 . S
Mn72 O77 2.095 . S
Mn72 O87 2.162 . S
Mn72 O88 2.297 . S
Mn72 O96 2.385 . S
Mn72 O97 2.209 . S
Mn72 O98 2.094 . S
Mn73 O78 2.121 . S
Mn73 N80 2.257 . S
Mn73 N89 2.282 . S
Mn73 O97 2.215 . S
Mn73 O99 2.117 . S
C74 O96 1.234 . S
C74 O97 1.283 . S
C75 O87 1.281 . S
C75 O88 1.236 . S
C76 O98 1.240 . S
C76 O99 1.264 . S
O77 Mn72 2.095 . S
O77 C86 1.250 . S
O78 Mn73 2.121 . S
O78 C86 1.258 . S
C79 N80 1.326 . S
C79 C83 1.460 . S
C79 H85 0.929 . S
N80 Mn73 2.257 . S
N80 C79 1.326 . S
N80 C84 1.362 . S
C81 C82 1.258 . S
C81 C84 1.431 . S
C81 C101 1.449 . S
C82 C81 1.258 . S
C82 C83 1.477 . S
C82 H102 0.931 . S
C83 C79 1.460 . S
C83 C82 1.477 . S
C83 H103 0.930 . S
C84 N80 1.362 . S
C84 C81 1.431 . S
C84 C94 1.476 . S
H85 C79 0.929 . S
C86 O77 1.250 . S
C86 O78 1.258 . S
O87 Mn72 2.162 . S
O87 C75 1.281 . S
O88 Mn72 2.297 . S
O88 C75 1.236 . S
N89 Mn73 2.282 . S
N89 C90 1.328 . S
N89 C94 1.318 . S
C90 N89 1.328 . S
C90 C91 1.457 . S
C90 H95 0.929 . S
C91 C90 1.457 . S
C91 C92 1.291 . S
C91 H104 0.931 . S
C92 C91 1.291 . S
C92 C93 1.373 . S
C92 H105 0.929 . S
C93 C92 1.373 . S
C93 C94 1.396 . S
C93 C100 1.403 . S
C94 C84 1.476 . S
C94 N89 1.318 . S
C94 C93 1.396 . S
H95 C90 0.929 . S
O96 Mn72 2.385 . S
O96 C74 1.234 . S
O97 Mn72 2.209 . S
O97 Mn73 2.215 . S
O97 C74 1.283 . S
O98 Mn72 2.094 . S
O98 C76 1.240 . S
O99 Mn73 2.117 . S
O99 C76 1.264 . S
C100 C93 1.403 . S
C100 C101 1.399 . S
C100 H106 0.929 . S
C101 C81 1.449 . S
C101 C100 1.399 . S
C101 H107 0.930 . S
H102 C82 0.931 . S
H103 C83 0.930 . S
H104 C91 0.931 . S
H105 C92 0.929 . S
H106 C100 0.929 . S
H107 C101 0.930 . S
Mn108 O113 2.095 . S
Mn108 O123 2.162 . S
Mn108 O124 2.297 . S
Mn108 O132 2.385 . S
Mn108 O133 2.209 . S
Mn108 O134 2.094 . S
Mn109 O114 2.121 . S
Mn109 N116 2.257 . S
Mn109 N125 2.282 . S
Mn109 O133 2.215 . S
Mn109 O135 2.117 . S
C110 O132 1.234 . S
C110 O133 1.283 . S
C111 O123 1.281 . S
C111 O124 1.236 . S
C112 O134 1.240 . S
C112 O135 1.264 . S
O113 Mn108 2.095 . S
O113 C122 1.250 . S
O114 Mn109 2.121 . S
O114 C122 1.258 . S
C115 N116 1.326 . S
C115 C119 1.460 . S
C115 H121 0.929 . S
N116 Mn109 2.257 . S
N116 C115 1.326 . S
N116 C120 1.362 . S
C117 C118 1.258 . S
C117 C120 1.431 . S
C117 C137 1.449 . S
C118 C117 1.258 . S
C118 C119 1.477 . S
C118 H138 0.931 . S
C119 C115 1.460 . S
C119 C118 1.477 . S
C119 H139 0.930 . S
C120 N116 1.362 . S
C120 C117 1.431 . S
C120 C130 1.476 . S
H121 C115 0.929 . S
C122 O113 1.250 . S
C122 O114 1.258 . S
O123 Mn108 2.162 . S
O123 C111 1.281 . S
O124 Mn108 2.297 . S
O124 C111 1.236 . S
N125 Mn109 2.282 . S
N125 C126 1.328 . S
N125 C130 1.318 . S
C126 N125 1.328 . S
C126 C127 1.457 . S
C126 H131 0.929 . S
C127 C126 1.457 . S
C127 C128 1.291 . S
C127 H140 0.931 . S
C128 C127 1.291 . S
C128 C129 1.373 . S
C128 H141 0.929 . S
C129 C128 1.373 . S
C129 C130 1.396 . S
C129 C136 1.403 . S
C130 C120 1.476 . S
C130 N125 1.318 . S
C130 C129 1.396 . S
H131 C126 0.929 . S
O132 Mn108 2.385 . S
O132 C110 1.234 . S
O133 Mn108 2.209 . S
O133 Mn109 2.215 . S
O133 C110 1.283 . S
O134 Mn108 2.094 . S
O134 C112 1.240 . S
O135 Mn109 2.117 . S
O135 C112 1.264 . S
C136 C129 1.403 . S
C136 C137 1.399 . S
C136 H142 0.929 . S
C137 C117 1.449 . S
C137 C136 1.399 . S
C137 H143 0.930 . S
H138 C118 0.931 . S
H139 C119 0.930 . S
H140 C127 0.931 . S
H141 C128 0.929 . S
H142 C136 0.929 . S
H143 C137 0.930 . S
Mn144 O149 2.095 . S
Mn144 O159 2.162 . S
Mn144 O160 2.297 . S
Mn144 O168 2.385 . S
Mn144 O169 2.209 . S
Mn144 O170 2.094 . S
Mn145 O150 2.121 . S
Mn145 N152 2.257 . S
Mn145 N161 2.282 . S
Mn145 O169 2.215 . S
Mn145 O171 2.117 . S
C146 O168 1.234 . S
C146 O169 1.283 . S
C147 O159 1.281 . S
C147 O160 1.236 . S
C148 O170 1.240 . S
C148 O171 1.264 . S
O149 Mn144 2.095 . S
O149 C158 1.250 . S
O150 Mn145 2.121 . S
O150 C158 1.258 . S
C151 N152 1.326 . S
C151 C155 1.460 1_554 S
C151 H157 0.929 . S
N152 Mn145 2.257 . S
N152 C151 1.326 . S
N152 C156 1.362 . S
C153 C154 1.258 1_554 S
C153 C156 1.431 . S
C153 C173 1.445 1_454 S
C154 C153 1.258 1_556 S
C154 C155 1.477 . S
C154 H174 0.931 . S
C155 C151 1.460 1_556 S
C155 C154 1.477 . S
C155 H175 0.930 . S
C156 N152 1.362 . S
C156 C153 1.431 . S
C156 C166 1.460 1_455 S
H157 C151 0.929 . S
C158 O149 1.250 . S
C158 O150 1.258 . S
O159 Mn144 2.162 . S
O159 C147 1.281 . S
O160 Mn144 2.297 . S
O160 C147 1.236 . S
N161 Mn145 2.282 . S
N161 C162 1.328 1_455 S
N161 C166 1.323 1_455 S
C162 N161 1.328 1_655 S
C162 C163 1.457 . S
C162 H167 0.929 . S
C163 C162 1.457 . S
C163 C164 1.291 . S
C163 H176 0.931 . S
C164 C163 1.291 . S
C164 C165 1.373 . S
C164 H177 0.929 . S
C165 C164 1.373 . S
C165 C166 1.408 . S
C165 C172 1.403 . S
C166 C156 1.460 1_655 S
C166 N161 1.323 1_655 S
C166 C165 1.408 . S
H167 C162 0.929 . S
O168 Mn144 2.385 . S
O168 C146 1.234 . S
O169 Mn144 2.209 . S
O169 Mn145 2.215 . S
O169 C146 1.283 . S
O170 Mn144 2.094 . S
O170 C148 1.240 . S
O171 Mn145 2.117 . S
O171 C148 1.264 . S
C172 C165 1.403 . S
C172 C173 1.360 1_554 S
C172 H178 0.929 . S
C173 C153 1.445 1_656 S
C173 C172 1.360 1_556 S
C173 H179 0.975 . S
H174 C154 0.931 . S
H175 C155 0.930 . S
H176 C163 0.931 . S
H177 C164 0.929 . S
H178 C172 0.929 . S
H179 C173 0.975 . S
Mn180 O185 2.095 . S
Mn180 O195 2.162 . S
Mn180 O196 2.297 . S
Mn180 O204 2.385 . S
Mn180 O205 2.209 . S
Mn180 O206 2.094 . S
Mn181 O186 2.121 . S
Mn181 N188 2.257 . S
Mn181 N197 2.282 . S
Mn181 O205 2.215 . S
Mn181 O207 2.117 . S
C182 O204 1.234 . S
C182 O205 1.283 . S
C183 O195 1.281 . S
C183 O196 1.236 . S
C184 O206 1.240 . S
C184 O207 1.264 . S
O185 Mn180 2.095 . S
O185 C194 1.250 . S
O186 Mn181 2.121 . S
O186 C194 1.258 . S
C187 N188 1.326 . S
C187 C191 1.460 . S
C187 H193 0.929 . S
N188 Mn181 2.257 . S
N188 C187 1.326 . S
N188 C192 1.362 . S
C189 C190 1.258 . S
C189 C192 1.431 . S
C189 C209 1.449 . S
C190 C189 1.258 . S
C190 C191 1.477 . S
C190 H210 0.931 . S
C191 C187 1.460 . S
C191 C190 1.477 . S
C191 H211 0.930 . S
C192 N188 1.362 . S
C192 C189 1.431 . S
C192 C202 1.476 . S
H193 C187 0.929 . S
C194 O185 1.250 . S
C194 O186 1.258 . S
O195 Mn180 2.162 . S
O195 C183 1.281 . S
O196 Mn180 2.297 . S
O196 C183 1.236 . S
N197 Mn181 2.282 . S
N197 C198 1.328 . S
N197 C202 1.318 . S
C198 N197 1.328 . S
C198 C199 1.457 . S
C198 H203 0.929 . S
C199 C198 1.457 . S
C199 C200 1.291 . S
C199 H212 0.931 . S
C200 C199 1.291 . S
C200 C201 1.373 . S
C200 H213 0.929 . S
C201 C200 1.373 . S
C201 C202 1.396 . S
C201 C208 1.403 . S
C202 C192 1.476 . S
C202 N197 1.318 . S
C202 C201 1.396 . S
H203 C198 0.929 . S
O204 Mn180 2.385 . S
O204 C182 1.234 . S
O205 Mn180 2.209 . S
O205 Mn181 2.215 . S
O205 C182 1.283 . S
O206 Mn180 2.094 . S
O206 C184 1.240 . S
O207 Mn181 2.117 . S
O207 C184 1.264 . S
C208 C201 1.403 . S
C208 C209 1.399 . S
C208 H214 0.929 . S
C209 C189 1.449 . S
C209 C208 1.399 . S
C209 H215 0.930 . S
H210 C190 0.931 . S
H211 C191 0.930 . S
H212 C199 0.931 . S
H213 C200 0.929 . S
H214 C208 0.929 . S
H215 C209 0.930 . S
Mn216 O221 2.095 . S
Mn216 O231 2.162 . S
Mn216 O232 2.297 . S
Mn216 O240 2.385 . S
Mn216 O241 2.209 . S
Mn216 O242 2.094 . S
Mn217 O222 2.121 . S
Mn217 N224 2.257 . S
Mn217 N233 2.282 . S
Mn217 O241 2.215 . S
Mn217 O243 2.117 . S
C218 O240 1.234 . S
C218 O241 1.283 . S
C219 O231 1.281 . S
C219 O232 1.236 . S
C220 O242 1.240 . S
C220 O243 1.264 . S
O221 Mn216 2.095 . S
O221 C230 1.250 . S
O222 Mn217 2.121 . S
O222 C230 1.258 . S
C223 N224 1.326 . S
C223 C227 1.460 . S
C223 H229 0.929 . S
N224 Mn217 2.257 . S
N224 C223 1.326 . S
N224 C228 1.362 . S
C225 C226 1.258 . S
C225 C228 1.431 . S
C225 C245 1.449 . S
C226 C225 1.258 . S
C226 C227 1.477 . S
C226 H246 0.931 . S
C227 C223 1.460 . S
C227 C226 1.477 . S
C227 H247 0.930 . S
C228 N224 1.362 . S
C228 C225 1.431 . S
C228 C238 1.476 . S
H229 C223 0.929 . S
C230 O221 1.250 . S
C230 O222 1.258 . S
O231 Mn216 2.162 . S
O231 C219 1.281 . S
O232 Mn216 2.297 . S
O232 C219 1.236 . S
N233 Mn217 2.282 . S
N233 C234 1.328 . S
N233 C238 1.318 . S
C234 N233 1.328 . S
C234 C235 1.457 . S
C234 H239 0.929 . S
C235 C234 1.457 . S
C235 C236 1.291 . S
C235 H248 0.931 . S
C236 C235 1.291 . S
C236 C237 1.373 . S
C236 H249 0.929 . S
C237 C236 1.373 . S
C237 C238 1.396 . S
C237 C244 1.403 . S
C238 C228 1.476 . S
C238 N233 1.318 . S
C238 C237 1.396 . S
H239 C234 0.929 . S
O240 Mn216 2.385 . S
O240 C218 1.234 . S
O241 Mn216 2.209 . S
O241 Mn217 2.215 . S
O241 C218 1.283 . S
O242 Mn216 2.094 . S
O242 C220 1.240 . S
O243 Mn217 2.117 . S
O243 C220 1.264 . S
C244 C237 1.403 . S
C244 C245 1.399 . S
C244 H250 0.929 . S
C245 C225 1.449 . S
C245 C244 1.399 . S
C245 H251 0.930 . S
H246 C226 0.931 . S
H247 C227 0.930 . S
H248 C235 0.931 . S
H249 C236 0.929 . S
H250 C244 0.929 . S
H251 C245 0.930 . S
Mn252 O257 2.073 1_655 S
Mn252 O267 2.159 1_655 S
Mn252 O268 2.294 . S
Mn252 O276 2.409 . S
Mn252 O277 2.219 . S
Mn252 O278 2.097 1_655 S
Mn253 O258 2.121 1_655 S
Mn253 N260 2.257 . S
Mn253 N269 2.282 . S
Mn253 O277 2.215 . S
Mn253 O279 2.117 1_655 S
C254 O276 1.234 . S
C254 O277 1.283 . S
C255 O267 1.281 1_655 S
C255 O268 1.236 . S
C256 O278 1.240 . S
C256 O279 1.264 . S
O257 Mn252 2.073 1_455 S
O257 C266 1.250 . S
O258 Mn253 2.121 1_455 S
O258 C266 1.258 . S
C259 N260 1.326 . S
C259 C263 1.460 . S
C259 H265 0.929 1_655 S
N260 Mn253 2.257 . S
N260 C259 1.326 . S
N260 C264 1.362 . S
C261 C262 1.258 . S
C261 C264 1.431 . S
C261 C281 1.449 . S
C262 C261 1.258 . S
C262 C263 1.477 . S
C262 H282 0.931 . S
C263 C259 1.460 . S
C263 C262 1.477 . S
C263 H283 0.930 . S
C264 N260 1.362 . S
C264 C261 1.431 . S
C264 C274 1.476 . S
H265 C259 0.929 1_455 S
C266 O257 1.250 . S
C266 O258 1.258 . S
O267 Mn252 2.159 1_455 S
O267 C255 1.281 1_455 S
O268 Mn252 2.294 . S
O268 C255 1.236 . S
N269 Mn253 2.282 . S
N269 C270 1.328 . S
N269 C274 1.318 . S
C270 N269 1.328 . S
C270 C271 1.457 . S
C270 H275 0.929 . S
C271 C270 1.457 . S
C271 C272 1.291 . S
C271 H284 0.931 . S
C272 C271 1.291 . S
C272 C273 1.373 . S
C272 H285 0.929 . S
C273 C272 1.373 . S
C273 C274 1.396 . S
C273 C280 1.403 . S
C274 C264 1.476 . S
C274 N269 1.318 . S
C274 C273 1.396 . S
H275 C270 0.929 . S
O276 Mn252 2.409 . S
O276 C254 1.234 . S
O277 Mn252 2.219 . S
O277 Mn253 2.215 . S
O277 C254 1.283 . S
O278 Mn252 2.097 1_455 S
O278 C256 1.240 . S
O279 Mn253 2.117 1_455 S
O279 C256 1.264 . S
C280 C273 1.403 . S
C280 C281 1.399 . S
C280 H286 0.929 . S
C281 C261 1.449 . S
C281 C280 1.399 . S
C281 H287 0.930 . S
H282 C262 0.931 . S
H283 C263 0.930 . S
H284 C271 0.931 . S
H285 C272 0.929 . S
H286 C280 0.929 . S
H287 C281 0.930 . S
Mn288 O293 2.095 . S
Mn288 O303 2.162 . S
Mn288 O304 2.297 . S
Mn288 O312 2.385 1_545 S
Mn288 O313 2.209 1_545 S
Mn288 O314 2.094 . S
Mn289 O294 2.121 . S
Mn289 N296 2.257 1_545 S
Mn289 N305 2.282 1_545 S
Mn289 O313 2.215 1_545 S
Mn289 O315 2.117 . S
C290 O312 1.234 . S
C290 O313 1.283 . S
C291 O303 1.281 . S
C291 O304 1.236 . S
C292 O314 1.240 . S
C292 O315 1.264 . S
O293 Mn288 2.095 . S
O293 C302 1.250 . S
O294 Mn289 2.121 . S
O294 C302 1.258 . S
C295 N296 1.326 . S
C295 C299 1.460 . S
C295 H301 0.929 1_565 S
N296 Mn289 2.257 1_565 S
N296 C295 1.326 . S
N296 C300 1.362 . S
C297 C298 1.258 . S
C297 C300 1.431 . S
C297 C317 1.449 . S
C298 C297 1.258 . S
C298 C299 1.477 . S
C298 H318 0.931 . S
C299 C295 1.460 . S
C299 C298 1.477 . S
C299 H319 0.930 . S
C300 N296 1.362 . S
C300 C297 1.431 . S
C300 C310 1.476 . S
H301 C295 0.929 1_545 S
C302 O293 1.250 . S
C302 O294 1.258 . S
O303 Mn288 2.162 . S
O303 C291 1.281 . S
O304 Mn288 2.297 . S
O304 C291 1.236 . S
N305 Mn289 2.282 1_565 S
N305 C306 1.328 . S
N305 C310 1.318 . S
C306 N305 1.328 . S
C306 C307 1.457 . S
C306 H311 0.929 . S
C307 C306 1.457 . S
C307 C308 1.291 . S
C307 H320 0.931 . S
C308 C307 1.291 . S
C308 C309 1.373 . S
C308 H321 0.929 . S
C309 C308 1.373 . S
C309 C310 1.396 . S
C309 C316 1.403 . S
C310 C300 1.476 . S
C310 N305 1.318 . S
C310 C309 1.396 . S
H311 C306 0.929 . S
O312 Mn288 2.385 1_565 S
O312 C290 1.234 . S
O313 Mn288 2.209 1_565 S
O313 Mn289 2.215 1_565 S
O313 C290 1.283 . S
O314 Mn288 2.094 . S
O314 C292 1.240 . S
O315 Mn289 2.117 . S
O315 C292 1.264 . S
C316 C309 1.403 . S
C316 C317 1.399 . S
C316 H322 0.929 . S
C317 C297 1.449 . S
C317 C316 1.399 . S
C317 H323 0.930 . S
H318 C298 0.931 . S
H319 C299 0.930 . S
H320 C307 0.931 . S
H321 C308 0.929 . S
H322 C316 0.929 . S
H323 C317 0.930 . S
Mn324 O329 2.095 . S
Mn324 O339 2.162 . S
Mn324 O340 2.297 . S
Mn324 O348 2.385 . S
Mn324 O349 2.209 . S
Mn324 O350 2.094 . S
Mn325 O330 2.121 . S
Mn325 N332 2.257 . S
Mn325 N341 2.282 . S
Mn325 O349 2.215 . S
Mn325 O351 2.117 . S
C326 O348 1.234 . S
C326 O349 1.283 . S
C327 O339 1.281 . S
C327 O340 1.236 . S
C328 O350 1.240 . S
C328 O351 1.264 . S
O329 Mn324 2.095 . S
O329 C338 1.250 . S
O330 Mn325 2.121 . S
O330 C338 1.258 . S
C331 N332 1.326 . S
C331 C335 1.460 . S
C331 H337 0.929 . S
N332 Mn325 2.257 . S
N332 C331 1.326 . S
N332 C336 1.362 . S
C333 C334 1.258 . S
C333 C336 1.431 . S
C333 C353 1.449 . S
C334 C333 1.258 . S
C334 C335 1.477 . S
C334 H354 0.931 . S
C335 C331 1.460 . S
C335 C334 1.477 . S
C335 H355 0.930 . S
C336 N332 1.362 . S
C336 C333 1.431 . S
C336 C346 1.476 . S
H337 C331 0.929 . S
C338 O329 1.250 . S
C338 O330 1.258 . S
O339 Mn324 2.162 . S
O339 C327 1.281 . S
O340 Mn324 2.297 . S
O340 C327 1.236 . S
N341 Mn325 2.282 . S
N341 C342 1.328 . S
N341 C346 1.318 . S
C342 N341 1.328 . S
C342 C343 1.457 . S
C342 H347 0.929 . S
C343 C342 1.457 . S
C343 C344 1.291 . S
C343 H356 0.931 . S
C344 C343 1.291 . S
C344 C345 1.373 . S
C344 H357 0.929 . S
C345 C344 1.373 . S
C345 C346 1.396 . S
C345 C352 1.403 . S
C346 C336 1.476 . S
C346 N341 1.318 . S
C346 C345 1.396 . S
H347 C342 0.929 . S
O348 Mn324 2.385 . S
O348 C326 1.234 . S
O349 Mn324 2.209 . S
O349 Mn325 2.215 . S
O349 C326 1.283 . S
O350 Mn324 2.094 . S
O350 C328 1.240 . S
O351 Mn325 2.117 . S
O351 C328 1.264 . S
C352 C345 1.403 . S
C352 C353 1.399 . S
C352 H358 0.929 . S
C353 C333 1.449 . S
C353 C352 1.399 . S
C353 H359 0.930 . S
H354 C334 0.931 . S
H355 C335 0.930 . S
H356 C343 0.931 . S
H357 C344 0.929 . S
H358 C352 0.929 . S
H359 C353 0.930 . S
Mn360 O365 2.095 . S
Mn360 O375 2.162 . S
Mn360 O376 2.297 . S
Mn360 O384 2.385 . S
Mn360 O385 2.209 . S
Mn360 O386 2.094 . S
Mn361 O366 2.121 . S
Mn361 N368 2.257 . S
Mn361 N377 2.282 . S
Mn361 O385 2.215 . S
Mn361 O387 2.117 . S
C362 O384 1.234 . S
C362 O385 1.283 . S
C363 O375 1.281 . S
C363 O376 1.236 . S
C364 O386 1.240 . S
C364 O387 1.264 . S
O365 Mn360 2.095 . S
O365 C374 1.250 . S
O366 Mn361 2.121 . S
O366 C374 1.258 . S
C367 N368 1.326 . S
C367 C371 1.460 . S
C367 H373 0.929 . S
N368 Mn361 2.257 . S
N368 C367 1.326 . S
N368 C372 1.362 . S
C369 C370 1.258 . S
C369 C372 1.431 . S
C369 C389 1.449 . S
C370 C369 1.258 . S
C370 C371 1.477 . S
C370 H390 0.931 . S
C371 C367 1.460 . S
C371 C370 1.477 . S
C371 H391 0.930 . S
C372 N368 1.362 . S
C372 C369 1.431 . S
C372 C382 1.476 . S
H373 C367 0.929 . S
C374 O365 1.250 . S
C374 O366 1.258 . S
O375 Mn360 2.162 . S
O375 C363 1.281 . S
O376 Mn360 2.297 . S
O376 C363 1.236 . S
N377 Mn361 2.282 . S
N377 C378 1.328 . S
N377 C382 1.318 . S
C378 N377 1.328 . S
C378 C379 1.457 . S
C378 H383 0.929 . S
C379 C378 1.457 . S
C379 C380 1.291 . S
C379 H392 0.931 . S
C380 C379 1.291 . S
C380 C381 1.373 . S
C380 H393 0.929 . S
C381 C380 1.373 . S
C381 C382 1.396 . S
C381 C388 1.403 . S
C382 C372 1.476 . S
C382 N377 1.318 . S
C382 C381 1.396 . S
H383 C378 0.929 . S
O384 Mn360 2.385 . S
O384 C362 1.234 . S
O385 Mn360 2.209 . S
O385 Mn361 2.215 . S
O385 C362 1.283 . S
O386 Mn360 2.094 . S
O386 C364 1.240 . S
O387 Mn361 2.117 . S
O387 C364 1.264 . S
C388 C381 1.403 . S
C388 C389 1.399 . S
C388 H394 0.929 . S
C389 C369 1.449 . S
C389 C388 1.399 . S
C389 H395 0.930 . S
H390 C370 0.931 . S
H391 C371 0.930 . S
H392 C379 0.931 . S
H393 C380 0.929 . S
H394 C388 0.929 . S
H395 C389 0.930 . S
Mn396 O401 2.095 1_554 S
Mn396 O411 2.162 . S
Mn396 O412 2.297 . S
Mn396 O420 2.385 . S
Mn396 O421 2.207 1_554 S
Mn396 O422 2.094 1_554 S
Mn397 O402 2.121 . S
Mn397 N404 2.269 . S
Mn397 N413 2.282 . S
Mn397 O421 2.221 . S
Mn397 O423 2.117 . S
C398 O420 1.234 . S
C398 O421 1.282 1_554 S
C399 O411 1.281 . S
C399 O412 1.236 . S
C400 O422 1.240 . S
C400 O423 1.264 . S
O401 Mn396 2.095 1_556 S
O401 C410 1.250 . S
O402 Mn397 2.121 . S
O402 C410 1.258 . S
C403 N404 1.317 1_545 S
C403 C407 1.460 . S
C403 H409 0.929 . S
N404 Mn397 2.269 . S
N404 C403 1.317 1_565 S
N404 C408 1.360 1_565 S
C405 C406 1.258 . S
C405 C408 1.431 . S
C405 C425 1.449 . S
C406 C405 1.258 . S
C406 C407 1.477 . S
C406 H426 0.931 . S
C407 C403 1.460 . S
C407 C406 1.477 . S
C407 H427 0.930 . S
C408 N404 1.360 1_545 S
C408 C405 1.431 . S
C408 C418 1.476 1_545 S
H409 C403 0.929 . S
C410 O401 1.250 . S
C410 O402 1.258 . S
O411 Mn396 2.162 . S
O411 C399 1.281 . S
O412 Mn396 2.297 . S
O412 C399 1.236 . S
N413 Mn397 2.282 . S
N413 C414 1.328 . S
N413 C418 1.318 . S
C414 N413 1.328 . S
C414 C415 1.457 . S
C414 H419 0.929 . S
C415 C414 1.457 . S
C415 C416 1.291 . S
C415 H428 0.931 . S
C416 C415 1.291 . S
C416 C417 1.373 . S
C416 H429 0.929 . S
C417 C416 1.373 . S
C417 C418 1.396 . S
C417 C424 1.403 1_565 S
C418 C408 1.476 1_565 S
C418 N413 1.318 . S
C418 C417 1.396 . S
H419 C414 0.929 . S
O420 Mn396 2.385 . S
O420 C398 1.234 . S
O421 Mn396 2.207 1_556 S
O421 Mn397 2.221 . S
O421 C398 1.282 1_556 S
O422 Mn396 2.094 1_556 S
O422 C400 1.240 . S
O423 Mn397 2.117 . S
O423 C400 1.264 . S
C424 C417 1.403 1_545 S
C424 C425 1.399 . S
C424 H430 0.929 . S
C425 C405 1.449 . S
C425 C424 1.399 . S
C425 H431 0.930 . S
H426 C406 0.931 . S
H427 C407 0.930 . S
H428 C415 0.931 . S
H429 C416 0.929 . S
H430 C424 0.929 . S
H431 C425 0.930 . S
Mn432 O437 2.095 . S
Mn432 O447 2.162 . S
Mn432 O448 2.297 . S
Mn432 O456 2.385 . S
Mn432 O457 2.209 . S
Mn432 O458 2.094 . S
Mn433 O438 2.121 . S
Mn433 N440 2.257 . S
Mn433 N449 2.282 1_554 S
Mn433 O457 2.215 . S
Mn433 O459 2.117 1_554 S
C434 O456 1.234 . S
C434 O457 1.283 . S
C435 O447 1.281 . S
C435 O448 1.236 . S
C436 O458 1.240 1_556 S
C436 O459 1.264 . S
O437 Mn432 2.095 . S
O437 C446 1.250 . S
O438 Mn433 2.121 . S
O438 C446 1.258 . S
C439 N440 1.326 . S
C439 C443 1.460 . S
C439 H445 0.929 . S
N440 Mn433 2.257 . S
N440 C439 1.326 . S
N440 C444 1.362 . S
C441 C442 1.258 . S
C441 C444 1.431 . S
C441 C461 1.449 . S
C442 C441 1.258 . S
C442 C443 1.477 . S
C442 H462 0.931 . S
C443 C439 1.460 . S
C443 C442 1.477 . S
C443 H463 0.930 . S
C444 N440 1.362 . S
C444 C441 1.431 . S
C444 C454 1.476 1_554 S
H445 C439 0.929 . S
C446 O437 1.250 . S
C446 O438 1.258 . S
O447 Mn432 2.162 . S
O447 C435 1.281 . S
O448 Mn432 2.297 . S
O448 C435 1.236 . S
N449 Mn433 2.282 1_556 S
N449 C450 1.328 . S
N449 C454 1.318 . S
C450 N449 1.328 . S
C450 C451 1.457 . S
C450 H455 0.929 . S
C451 C450 1.457 . S
C451 C452 1.291 . S
C451 H464 0.931 . S
C452 C451 1.291 . S
C452 C453 1.373 . S
C452 H465 0.929 . S
C453 C452 1.373 . S
C453 C454 1.396 . S
C453 C460 1.403 . S
C454 C444 1.476 1_556 S
C454 N449 1.318 . S
C454 C453 1.396 . S
H455 C450 0.929 . S
O456 Mn432 2.385 . S
O456 C434 1.234 . S
O457 Mn432 2.209 . S
O457 Mn433 2.215 . S
O457 C434 1.283 . S
O458 Mn432 2.094 . S
O458 C436 1.240 1_554 S
O459 Mn433 2.117 1_556 S
O459 C436 1.264 . S
C460 C453 1.403 . S
C460 C461 1.399 1_556 S
C460 H466 0.929 . S
C461 C441 1.449 . S
C461 C460 1.399 1_554 S
C461 H467 0.930 . S
H462 C442 0.931 . S
H463 C443 0.930 . S
H464 C451 0.931 . S
H465 C452 0.929 . S
H466 C460 0.929 . S
H467 C461 0.930 . S
Mn468 O473 2.095 . S
Mn468 O483 2.162 . S
Mn468 O484 2.297 . S
Mn468 O492 2.385 . S
Mn468 O493 2.209 . S
Mn468 O494 2.094 . S
Mn469 O474 2.121 . S
Mn469 N476 2.257 . S
Mn469 N485 2.269 1_554 S
Mn469 O493 2.215 . S
Mn469 O495 2.117 . S
C470 O492 1.234 . S
C470 O493 1.283 . S
C471 O483 1.281 . S
C471 O484 1.236 . S
C472 O494 1.240 . S
C472 O495 1.264 . S
O473 Mn468 2.095 . S
O473 C482 1.250 . S
O474 Mn469 2.121 . S
O474 C482 1.258 . S
C475 N476 1.326 . S
C475 C479 1.460 . S
C475 H481 0.929 . S
N476 Mn469 2.257 . S
N476 C475 1.326 . S
N476 C480 1.362 . S
C477 C478 1.258 . S
C477 C480 1.431 . S
C477 C497 1.449 1_554 S
C478 C477 1.258 . S
C478 C479 1.477 . S
C478 H498 0.931 1_545 S
C479 C475 1.460 . S
C479 C478 1.477 . S
C479 H499 0.930 . S
C480 N476 1.362 . S
C480 C477 1.431 . S
C480 C490 1.476 1_554 S
H481 C475 0.929 . S
C482 O473 1.250 . S
C482 O474 1.258 . S
O483 Mn468 2.162 . S
O483 C471 1.281 . S
O484 Mn468 2.297 . S
O484 C471 1.236 . S
N485 Mn469 2.269 1_556 S
N485 C486 1.342 . S
N485 C490 1.314 . S
C486 N485 1.342 . S
C486 C487 1.457 . S
C486 H491 0.929 . S
C487 C486 1.457 . S
C487 C488 1.291 . S
C487 H500 0.931 . S
C488 C487 1.291 . S
C488 C489 1.373 . S
C488 H501 0.929 . S
C489 C488 1.373 . S
C489 C490 1.396 . S
C489 C496 1.403 . S
C490 C480 1.476 1_556 S
C490 N485 1.314 . S
C490 C489 1.396 . S
H491 C486 0.929 . S
O492 Mn468 2.385 . S
O492 C470 1.234 . S
O493 Mn468 2.209 . S
O493 Mn469 2.215 . S
O493 C470 1.283 . S
O494 Mn468 2.094 . S
O494 C472 1.240 . S
O495 Mn469 2.117 . S
O495 C472 1.264 . S
C496 C489 1.403 . S
C496 C497 1.399 . S
C496 H502 0.929 . S
C497 C477 1.449 1_556 S
C497 C496 1.399 . S
C497 H503 0.930 . S
H498 C478 0.931 1_565 S
H499 C479 0.930 . S
H500 C487 0.931 . S
H501 C488 0.929 . S
H502 C496 0.929 . S
H503 C497 0.930 . S
Mn504 O509 2.095 . S
Mn504 O519 2.162 . S
Mn504 O520 2.297 . S
Mn504 O528 2.385 . S
Mn504 O529 2.209 . S
Mn504 O530 2.094 . S
Mn505 O510 2.121 . S
Mn505 N512 2.257 . S
Mn505 N521 2.282 . S
Mn505 O529 2.215 . S
Mn505 O531 2.117 . S
C506 O528 1.234 . S
C506 O529 1.283 . S
C507 O519 1.281 . S
C507 O520 1.236 . S
C508 O530 1.240 . S
C508 O531 1.264 . S
O509 Mn504 2.095 . S
O509 C518 1.250 . S
O510 Mn505 2.121 . S
O510 C518 1.258 . S
C511 N512 1.326 . S
C511 C515 1.460 . S
C511 H517 0.929 . S
N512 Mn505 2.257 . S
N512 C511 1.326 . S
N512 C516 1.362 . S
C513 C514 1.258 . S
C513 C516 1.431 . S
C513 C533 1.449 . S
C514 C513 1.258 . S
C514 C515 1.477 . S
C514 H534 0.931 . S
C515 C511 1.460 . S
C515 C514 1.477 . S
C515 H535 0.930 . S
C516 N512 1.362 . S
C516 C513 1.431 . S
C516 C526 1.476 . S
H517 C511 0.929 . S
C518 O509 1.250 . S
C518 O510 1.258 . S
O519 Mn504 2.162 . S
O519 C507 1.281 . S
O520 Mn504 2.297 . S
O520 C507 1.236 . S
N521 Mn505 2.282 . S
N521 C522 1.328 . S
N521 C526 1.318 . S
C522 N521 1.328 . S
C522 C523 1.457 . S
C522 H527 0.929 . S
C523 C522 1.457 . S
C523 C524 1.291 . S
C523 H536 0.931 . S
C524 C523 1.291 . S
C524 C525 1.373 . S
C524 H537 0.929 . S
C525 C524 1.373 . S
C525 C526 1.396 . S
C525 C532 1.403 . S
C526 C516 1.476 . S
C526 N521 1.318 . S
C526 C525 1.396 . S
H527 C522 0.929 . S
O528 Mn504 2.385 . S
O528 C506 1.234 . S
O529 Mn504 2.209 . S
O529 Mn505 2.215 . S
O529 C506 1.283 . S
O530 Mn504 2.094 . S
O530 C508 1.240 . S
O531 Mn505 2.117 . S
O531 C508 1.264 . S
C532 C525 1.403 . S
C532 C533 1.399 . S
C532 H538 0.929 . S
C533 C513 1.449 . S
C533 C532 1.399 . S
C533 H539 0.930 . S
H534 C514 0.931 . S
H535 C515 0.930 . S
H536 C523 0.931 . S
H537 C524 0.929 . S
H538 C532 0.929 . S
H539 C533 0.930 . S
Mn540 O545 2.095 . S
Mn540 O555 2.162 . S
Mn540 O556 2.297 . S
Mn540 O564 2.385 . S
Mn540 O565 2.209 . S
Mn540 O566 2.094 . S
Mn541 O546 2.121 . S
Mn541 N548 2.257 . S
Mn541 N557 2.282 . S
Mn541 O565 2.215 . S
Mn541 O567 2.117 . S
C542 O564 1.234 . S
C542 O565 1.283 . S
C543 O555 1.281 . S
C543 O556 1.236 . S
C544 O566 1.240 . S
C544 O567 1.264 . S
O545 Mn540 2.095 . S
O545 C554 1.250 . S
O546 Mn541 2.121 . S
O546 C554 1.258 . S
C547 N548 1.326 . S
C547 C551 1.460 . S
C547 H553 0.929 . S
N548 Mn541 2.257 . S
N548 C547 1.326 . S
N548 C552 1.362 . S
C549 C550 1.258 1_565 S
C549 C552 1.431 . S
C549 C569 1.449 . S
C550 C549 1.258 1_545 S
C550 C551 1.477 1_545 S
C550 H570 0.931 . S
C551 C547 1.460 . S
C551 C550 1.477 1_565 S
C551 H571 0.930 1_565 S
C552 N548 1.362 . S
C552 C549 1.431 . S
C552 C562 1.476 . S
H553 C547 0.929 . S
C554 O545 1.250 . S
C554 O546 1.258 . S
O555 Mn540 2.162 . S
O555 C543 1.281 . S
O556 Mn540 2.297 . S
O556 C543 1.236 . S
N557 Mn541 2.282 . S
N557 C558 1.328 . S
N557 C562 1.318 . S
C558 N557 1.328 . S
C558 C559 1.457 . S
C558 H563 0.929 . S
C559 C558 1.457 . S
C559 C560 1.291 . S
C559 H572 0.931 . S
C560 C559 1.291 . S
C560 C561 1.373 . S
C560 H573 0.929 . S
C561 C560 1.373 . S
C561 C562 1.396 . S
C561 C568 1.403 . S
C562 C552 1.476 . S
C562 N557 1.318 . S
C562 C561 1.396 . S
H563 C558 0.929 . S
O564 Mn540 2.385 . S
O564 C542 1.234 . S
O565 Mn540 2.209 . S
O565 Mn541 2.215 . S
O565 C542 1.283 . S
O566 Mn540 2.094 . S
O566 C544 1.240 . S
O567 Mn541 2.117 . S
O567 C544 1.264 . S
C568 C561 1.403 . S
C568 C569 1.399 . S
C568 H574 0.929 . S
C569 C549 1.449 . S
C569 C568 1.399 . S
C569 H575 0.930 1_565 S
H570 C550 0.931 . S
H571 C551 0.930 1_545 S
H572 C559 0.931 . S
H573 C560 0.929 . S
H574 C568 0.929 . S
H575 C569 0.930 1_545 S
Mn576 O581 2.095 . S
Mn576 O591 2.162 . S
Mn576 O592 2.297 . S
Mn576 O600 2.385 1_545 S
Mn576 O601 2.209 1_545 S
Mn576 O602 2.094 . S
Mn577 O582 2.121 . S
Mn577 N584 2.257 1_545 S
Mn577 N593 2.282 1_545 S
Mn577 O601 2.215 1_545 S
Mn577 O603 2.117 . S
C578 O600 1.234 . S
C578 O601 1.283 . S
C579 O591 1.281 . S
C579 O592 1.236 . S
C580 O602 1.240 . S
C580 O603 1.264 . S
O581 Mn576 2.095 . S
O581 C590 1.250 . S
O582 Mn577 2.121 . S
O582 C590 1.258 . S
C583 N584 1.326 1_545 S
C583 C587 1.460 1_545 S
C583 H589 0.929 . S
N584 Mn577 2.257 1_565 S
N584 C583 1.326 1_565 S
N584 C588 1.362 . S
C585 C586 1.258 . S
C585 C588 1.431 . S
C585 C605 1.449 . S
C586 C585 1.258 . S
C586 C587 1.477 . S
C586 H606 0.931 . S
C587 C583 1.460 1_565 S
C587 C586 1.477 . S
C587 H607 0.915 1_565 S
C588 N584 1.362 . S
C588 C585 1.431 . S
C588 C598 1.476 . S
H589 C583 0.929 . S
C590 O581 1.250 . S
C590 O582 1.258 . S
O591 Mn576 2.162 . S
O591 C579 1.281 . S
O592 Mn576 2.297 . S
O592 C579 1.236 . S
N593 Mn577 2.282 1_565 S
N593 C594 1.328 . S
N593 C598 1.318 . S
C594 N593 1.328 . S
C594 C595 1.457 . S
C594 H599 0.929 . S
C595 C594 1.457 . S
C595 C596 1.291 . S
C595 H608 0.931 . S
C596 C595 1.291 . S
C596 C597 1.373 . S
C596 H609 0.929 . S
C597 C596 1.373 . S
C597 C598 1.396 . S
C597 C604 1.403 . S
C598 C588 1.476 . S
C598 N593 1.318 . S
C598 C597 1.396 . S
H599 C594 0.929 . S
O600 Mn576 2.385 1_565 S
O600 C578 1.234 . S
O601 Mn576 2.209 1_565 S
O601 Mn577 2.215 1_565 S
O601 C578 1.283 . S
O602 Mn576 2.094 . S
O602 C580 1.240 . S
O603 Mn577 2.117 . S
O603 C580 1.264 . S
C604 C597 1.403 . S
C604 C605 1.399 . S
C604 H610 0.929 . S
C605 C585 1.449 . S
C605 C604 1.399 . S
C605 H611 0.930 . S
H606 C586 0.931 . S
H607 C587 0.915 1_545 S
H608 C595 0.931 . S
H609 C596 0.929 . S
H610 C604 0.929 . S
H611 C605 0.930 . S
Mn612 O617 2.095 . S
Mn612 O627 2.162 . S
Mn612 O628 2.297 . S
Mn612 O636 2.385 . S
Mn612 O637 2.209 . S
Mn612 O638 2.094 . S
Mn613 O618 2.121 . S
Mn613 N620 2.257 . S
Mn613 N629 2.282 . S
Mn613 O637 2.215 . S
Mn613 O639 2.117 . S
C614 O636 1.234 . S
C614 O637 1.283 . S
C615 O627 1.281 . S
C615 O628 1.236 . S
C616 O638 1.240 . S
C616 O639 1.264 . S
O617 Mn612 2.095 . S
O617 C626 1.250 . S
O618 Mn613 2.121 . S
O618 C626 1.258 . S
C619 N620 1.326 . S
C619 C623 1.460 . S
C619 H625 0.929 . S
N620 Mn613 2.257 . S
N620 C619 1.326 . S
N620 C624 1.362 . S
C621 C622 1.258 . S
C621 C624 1.431 . S
C621 C641 1.449 . S
C622 C621 1.258 . S
C622 C623 1.477 . S
C622 H642 0.931 . S
C623 C619 1.460 . S
C623 C622 1.477 . S
C623 H643 0.930 . S
C624 N620 1.362 . S
C624 C621 1.431 . S
C624 C634 1.476 . S
H625 C619 0.929 . S
C626 O617 1.250 . S
C626 O618 1.258 . S
O627 Mn612 2.162 . S
O627 C615 1.281 . S
O628 Mn612 2.297 . S
O628 C615 1.236 . S
N629 Mn613 2.282 . S
N629 C630 1.328 . S
N629 C634 1.318 . S
C630 N629 1.328 . S
C630 C631 1.457 . S
C630 H635 0.929 . S
C631 C630 1.457 . S
C631 C632 1.291 . S
C631 H644 0.931 . S
C632 C631 1.291 . S
C632 C633 1.373 . S
C632 H645 0.929 . S
C633 C632 1.373 . S
C633 C634 1.396 . S
C633 C640 1.403 . S
C634 C624 1.476 . S
C634 N629 1.318 . S
C634 C633 1.396 . S
H635 C630 0.929 . S
O636 Mn612 2.385 . S
O636 C614 1.234 . S
O637 Mn612 2.209 . S
O637 Mn613 2.215 . S
O637 C614 1.283 . S
O638 Mn612 2.094 . S
O638 C616 1.240 . S
O639 Mn613 2.117 . S
O639 C616 1.264 . S
C640 C633 1.403 . S
C640 C641 1.399 . S
C640 H646 0.929 . S
C641 C621 1.449 . S
C641 C640 1.399 . S
C641 H647 0.930 . S
H642 C622 0.931 . S
H643 C623 0.930 . S
H644 C631 0.931 . S
H645 C632 0.929 . S
H646 C640 0.929 . S
H647 C641 0.930 . S
Mn648 O653 2.095 . S
Mn648 O663 2.162 . S
Mn648 O664 2.297 . S
Mn648 O672 2.385 . S
Mn648 O673 2.209 . S
Mn648 O674 2.094 . S
Mn649 O654 2.121 . S
Mn649 N656 2.257 . S
Mn649 N665 2.282 . S
Mn649 O673 2.215 . S
Mn649 O675 2.117 . S
C650 O672 1.234 . S
C650 O673 1.283 . S
C651 O663 1.281 . S
C651 O664 1.236 . S
C652 O674 1.240 . S
C652 O675 1.264 . S
O653 Mn648 2.095 . S
O653 C662 1.250 . S
O654 Mn649 2.121 . S
O654 C662 1.258 . S
C655 N656 1.326 . S
C655 C659 1.460 . S
C655 H661 0.929 . S
N656 Mn649 2.257 . S
N656 C655 1.326 . S
N656 C660 1.362 . S
C657 C658 1.258 . S
C657 C660 1.431 . S
C657 C677 1.449 . S
C658 C657 1.258 . S
C658 C659 1.477 . S
C658 H678 0.931 . S
C659 C655 1.460 . S
C659 C658 1.477 . S
C659 H679 0.930 . S
C660 N656 1.362 . S
C660 C657 1.431 . S
C660 C670 1.476 . S
H661 C655 0.929 . S
C662 O653 1.250 . S
C662 O654 1.258 . S
O663 Mn648 2.162 . S
O663 C651 1.281 . S
O664 Mn648 2.297 . S
O664 C651 1.236 . S
N665 Mn649 2.282 . S
N665 C666 1.328 . S
N665 C670 1.318 . S
C666 N665 1.328 . S
C666 C667 1.457 . S
C666 H671 0.929 . S
C667 C666 1.457 . S
C667 C668 1.291 . S
C667 H680 0.931 . S
C668 C667 1.291 . S
C668 C669 1.373 . S
C668 H681 0.929 . S
C669 C668 1.373 . S
C669 C670 1.396 . S
C669 C676 1.403 . S
C670 C660 1.476 . S
C670 N665 1.318 . S
C670 C669 1.396 . S
H671 C666 0.929 . S
O672 Mn648 2.385 . S
O672 C650 1.234 . S
O673 Mn648 2.209 . S
O673 Mn649 2.215 . S
O673 C650 1.283 . S
O674 Mn648 2.094 . S
O674 C652 1.240 . S
O675 Mn649 2.117 . S
O675 C652 1.264 . S
C676 C669 1.403 . S
C676 C677 1.399 . S
C676 H682 0.929 . S
C677 C657 1.449 . S
C677 C676 1.399 . S
C677 H683 0.930 . S
H678 C658 0.931 . S
H679 C659 0.930 . S
H680 C667 0.931 . S
H681 C668 0.929 . S
H682 C676 0.929 . S
H683 C677 0.930 . S
Mn684 O689 2.095 . S
Mn684 O699 2.162 . S
Mn684 O700 2.297 . S
Mn684 O708 2.385 . S
Mn684 O709 2.209 . S
Mn684 O710 2.094 . S
Mn685 O690 2.121 . S
Mn685 N692 2.257 . S
Mn685 N701 2.282 . S
Mn685 O709 2.215 . S
Mn685 O711 2.117 . S
C686 O708 1.234 . S
C686 O709 1.283 . S
C687 O699 1.281 . S
C687 O700 1.236 . S
C688 O710 1.240 . S
C688 O711 1.264 . S
O689 Mn684 2.095 . S
O689 C698 1.250 . S
O690 Mn685 2.121 . S
O690 C698 1.258 . S
C691 N692 1.326 . S
C691 C695 1.460 . S
C691 H697 0.929 . S
N692 Mn685 2.257 . S
N692 C691 1.326 . S
N692 C696 1.362 . S
C693 C694 1.258 . S
C693 C696 1.431 . S
C693 C713 1.449 . S
C694 C693 1.258 . S
C694 C695 1.477 . S
C694 H714 0.931 . S
C695 C691 1.460 . S
C695 C694 1.477 . S
C695 H715 0.930 . S
C696 N692 1.362 . S
C696 C693 1.431 . S
C696 C706 1.476 . S
H697 C691 0.929 . S
C698 O689 1.250 . S
C698 O690 1.258 . S
O699 Mn684 2.162 . S
O699 C687 1.281 . S
O700 Mn684 2.297 . S
O700 C687 1.236 . S
N701 Mn685 2.282 . S
N701 C702 1.328 . S
N701 C706 1.318 . S
C702 N701 1.328 . S
C702 C703 1.457 . S
C702 H707 0.929 . S
C703 C702 1.457 . S
C703 C704 1.291 . S
C703 H716 0.931 . S
C704 C703 1.291 . S
C704 C705 1.373 . S
C704 H717 0.929 . S
C705 C704 1.373 . S
C705 C706 1.396 . S
C705 C712 1.403 . S
C706 C696 1.476 . S
C706 N701 1.318 . S
C706 C705 1.396 . S
H707 C702 0.929 . S
O708 Mn684 2.385 . S
O708 C686 1.234 . S
O709 Mn684 2.209 . S
O709 Mn685 2.215 . S
O709 C686 1.283 . S
O710 Mn684 2.094 . S
O710 C688 1.240 . S
O711 Mn685 2.117 . S
O711 C688 1.264 . S
C712 C705 1.403 . S
C712 C713 1.399 . S
C712 H718 0.929 . S
C713 C693 1.449 . S
C713 C712 1.399 . S
C713 H719 0.930 . S
H714 C694 0.931 . S
H715 C695 0.930 . S
H716 C703 0.931 . S
H717 C704 0.929 . S
H718 C712 0.929 . S
H719 C713 0.930 . S
Mn720 O725 2.095 . S
Mn720 O735 2.162 . S
Mn720 O736 2.297 . S
Mn720 O744 2.385 . S
Mn720 O745 2.209 . S
Mn720 O746 2.094 1_554 S
Mn721 O726 2.121 . S
Mn721 N728 2.257 . S
Mn721 N737 2.282 . S
Mn721 O745 2.215 1_556 S
Mn721 O747 2.117 . S
C722 O744 1.234 . S
C722 O745 1.283 . S
C723 O735 1.281 . S
C723 O736 1.236 . S
C724 O746 1.240 . S
C724 O747 1.264 . S
O725 Mn720 2.095 . S
O725 C734 1.250 . S
O726 Mn721 2.121 . S
O726 C734 1.258 1_556 S
C727 N728 1.326 . S
C727 C731 1.460 . S
C727 H733 0.929 . S
N728 Mn721 2.257 . S
N728 C727 1.326 . S
N728 C732 1.362 . S
C729 C730 1.258 . S
C729 C732 1.431 . S
C729 C749 1.449 . S
C730 C729 1.258 . S
C730 C731 1.477 . S
C730 H750 0.931 . S
C731 C727 1.460 . S
C731 C730 1.477 . S
C731 H751 0.930 . S
C732 N728 1.362 . S
C732 C729 1.431 . S
C732 C742 1.476 . S
H733 C727 0.929 . S
C734 O725 1.250 . S
C734 O726 1.258 1_554 S
O735 Mn720 2.162 . S
O735 C723 1.281 . S
O736 Mn720 2.297 . S
O736 C723 1.236 . S
N737 Mn721 2.282 . S
N737 C738 1.328 . S
N737 C742 1.318 . S
C738 N737 1.328 . S
C738 C739 1.457 . S
C738 H743 0.929 . S
C739 C738 1.457 . S
C739 C740 1.291 . S
C739 H752 0.931 . S
C740 C739 1.291 . S
C740 C741 1.373 . S
C740 H753 0.929 . S
C741 C740 1.373 . S
C741 C742 1.396 . S
C741 C748 1.403 . S
C742 C732 1.476 . S
C742 N737 1.318 . S
C742 C741 1.396 . S
H743 C738 0.929 . S
O744 Mn720 2.385 . S
O744 C722 1.234 . S
O745 Mn720 2.209 . S
O745 Mn721 2.215 1_554 S
O745 C722 1.283 . S
O746 Mn720 2.094 1_556 S
O746 C724 1.240 . S
O747 Mn721 2.117 . S
O747 C724 1.264 . S
C748 C741 1.403 . S
C748 C749 1.399 . S
C748 H754 0.929 . S
C749 C729 1.449 . S
C749 C748 1.399 . S
C749 H755 0.930 . S
H750 C730 0.931 . S
H751 C731 0.930 . S
H752 C739 0.931 . S
H753 C740 0.929 . S
H754 C748 0.929 . S
H755 C749 0.930 . S
Mn756 O761 2.095 . S
Mn756 O771 2.162 . S
Mn756 O772 2.297 . S
Mn756 O780 2.385 . S
Mn756 O781 2.209 . S
Mn756 O782 2.094 . S
Mn757 O762 2.121 . S
Mn757 N764 2.257 . S
Mn757 N773 2.282 . S
Mn757 O781 2.215 . S
Mn757 O783 2.117 . S
C758 O780 1.234 . S
C758 O781 1.283 . S
C759 O771 1.281 . S
C759 O772 1.236 . S
C760 O782 1.240 . S
C760 O783 1.264 . S
O761 Mn756 2.095 . S
O761 C770 1.250 . S
O762 Mn757 2.121 . S
O762 C770 1.258 . S
C763 N764 1.326 . S
C763 C767 1.460 . S
C763 H769 0.929 . S
N764 Mn757 2.257 . S
N764 C763 1.326 . S
N764 C768 1.362 . S
C765 C766 1.258 . S
C765 C768 1.431 . S
C765 C785 1.449 . S
C766 C765 1.258 . S
C766 C767 1.477 . S
C766 H786 0.931 . S
C767 C763 1.460 . S
C767 C766 1.477 . S
C767 H787 0.930 . S
C768 N764 1.362 . S
C768 C765 1.431 . S
C768 C778 1.476 . S
H769 C763 0.929 . S
C770 O761 1.250 . S
C770 O762 1.258 . S
O771 Mn756 2.162 . S
O771 C759 1.281 . S
O772 Mn756 2.297 . S
O772 C759 1.236 . S
N773 Mn757 2.282 . S
N773 C774 1.328 . S
N773 C778 1.318 . S
C774 N773 1.328 . S
C774 C775 1.457 . S
C774 H779 0.929 . S
C775 C774 1.457 . S
C775 C776 1.291 . S
C775 H788 0.931 . S
C776 C775 1.291 . S
C776 C777 1.373 . S
C776 H789 0.929 . S
C777 C776 1.373 . S
C777 C778 1.396 . S
C777 C784 1.403 . S
C778 C768 1.476 . S
C778 N773 1.318 . S
C778 C777 1.396 . S
H779 C774 0.929 . S
O780 Mn756 2.385 . S
O780 C758 1.234 . S
O781 Mn756 2.209 . S
O781 Mn757 2.215 . S
O781 C758 1.283 . S
O782 Mn756 2.094 . S
O782 C760 1.240 . S
O783 Mn757 2.117 . S
O783 C760 1.264 . S
C784 C777 1.403 . S
C784 C785 1.399 . S
C784 H790 0.929 . S
C785 C765 1.449 . S
C785 C784 1.399 . S
C785 H791 0.930 . S
H786 C766 0.931 . S
H787 C767 0.930 . S
H788 C775 0.931 . S
H789 C776 0.929 . S
H790 C784 0.929 . S
H791 C785 0.930 . S
Mn792 O797 2.095 . S
Mn792 O807 2.162 . S
Mn792 O808 2.297 . S
Mn792 O816 2.385 . S
Mn792 O817 2.209 . S
Mn792 O818 2.094 . S
Mn793 O798 2.121 . S
Mn793 N800 2.257 . S
Mn793 N809 2.282 . S
Mn793 O817 2.215 . S
Mn793 O819 2.117 . S
C794 O816 1.234 . S
C794 O817 1.283 . S
C795 O807 1.281 . S
C795 O808 1.236 . S
C796 O818 1.240 . S
C796 O819 1.264 . S
O797 Mn792 2.095 . S
O797 C806 1.250 . S
O798 Mn793 2.121 . S
O798 C806 1.258 . S
C799 N800 1.326 . S
C799 C803 1.460 . S
C799 H805 0.929 . S
N800 Mn793 2.257 . S
N800 C799 1.326 . S
N800 C804 1.362 . S
C801 C802 1.258 . S
C801 C804 1.431 . S
C801 C821 1.449 . S
C802 C801 1.258 . S
C802 C803 1.477 . S
C802 H822 0.931 . S
C803 C799 1.460 . S
C803 C802 1.477 . S
C803 H823 0.930 . S
C804 N800 1.362 . S
C804 C801 1.431 . S
C804 C814 1.476 . S
H805 C799 0.929 . S
C806 O797 1.250 . S
C806 O798 1.258 . S
O807 Mn792 2.162 . S
O807 C795 1.281 . S
O808 Mn792 2.297 . S
O808 C795 1.236 . S
N809 Mn793 2.282 . S
N809 C810 1.328 . S
N809 C814 1.318 . S
C810 N809 1.328 . S
C810 C811 1.457 . S
C810 H815 0.929 . S
C811 C810 1.457 . S
C811 C812 1.291 . S
C811 H824 0.931 . S
C812 C811 1.291 . S
C812 C813 1.373 . S
C812 H825 0.929 . S
C813 C812 1.373 . S
C813 C814 1.396 . S
C813 C820 1.403 . S
C814 C804 1.476 . S
C814 N809 1.318 . S
C814 C813 1.396 . S
H815 C810 0.929 . S
O816 Mn792 2.385 . S
O816 C794 1.234 . S
O817 Mn792 2.209 . S
O817 Mn793 2.215 . S
O817 C794 1.283 . S
O818 Mn792 2.094 . S
O818 C796 1.240 . S
O819 Mn793 2.117 . S
O819 C796 1.264 . S
C820 C813 1.403 . S
C820 C821 1.399 . S
C820 H826 0.929 . S
C821 C801 1.449 . S
C821 C820 1.399 . S
C821 H827 0.930 . S
H822 C802 0.931 . S
H823 C803 0.930 . S
H824 C811 0.931 . S
H825 C812 0.929 . S
H826 C820 0.929 . S
H827 C821 0.930 . S
Mn828 O833 2.095 . S
Mn828 O843 2.162 . S
Mn828 O844 2.297 . S
Mn828 O852 2.385 . S
Mn828 O853 2.209 . S
Mn828 O854 2.094 . S
Mn829 O834 2.121 . S
Mn829 N836 2.257 . S
Mn829 N845 2.282 . S
Mn829 O853 2.215 . S
Mn829 O855 2.117 . S
C830 O852 1.234 . S
C830 O853 1.283 . S
C831 O843 1.281 . S
C831 O844 1.236 . S
C832 O854 1.240 . S
C832 O855 1.264 . S
O833 Mn828 2.095 . S
O833 C842 1.250 . S
O834 Mn829 2.121 . S
O834 C842 1.258 . S
C835 N836 1.326 . S
C835 C839 1.460 . S
C835 H841 0.929 . S
N836 Mn829 2.257 . S
N836 C835 1.326 . S
N836 C840 1.362 . S
C837 C838 1.258 . S
C837 C840 1.431 . S
C837 C857 1.449 . S
C838 C837 1.258 . S
C838 C839 1.477 . S
C838 H858 0.931 . S
C839 C835 1.460 . S
C839 C838 1.477 . S
C839 H859 0.930 . S
C840 N836 1.362 . S
C840 C837 1.431 . S
C840 C850 1.476 . S
H841 C835 0.929 . S
C842 O833 1.250 . S
C842 O834 1.258 . S
O843 Mn828 2.162 . S
O843 C831 1.281 . S
O844 Mn828 2.297 . S
O844 C831 1.236 . S
N845 Mn829 2.282 . S
N845 C846 1.328 . S
N845 C850 1.318 . S
C846 N845 1.328 . S
C846 C847 1.457 . S
C846 H851 0.929 . S
C847 C846 1.457 . S
C847 C848 1.291 . S
C847 H860 0.931 . S
C848 C847 1.291 . S
C848 C849 1.373 . S
C848 H861 0.929 . S
C849 C848 1.373 . S
C849 C850 1.396 . S
C849 C856 1.403 . S
C850 C840 1.476 . S
C850 N845 1.318 . S
C850 C849 1.396 . S
H851 C846 0.929 . S
O852 Mn828 2.385 . S
O852 C830 1.234 . S
O853 Mn828 2.209 . S
O853 Mn829 2.215 . S
O853 C830 1.283 . S
O854 Mn828 2.094 . S
O854 C832 1.240 . S
O855 Mn829 2.117 . S
O855 C832 1.264 . S
C856 C849 1.403 . S
C856 C857 1.399 . S
C856 H862 0.929 . S
C857 C837 1.449 . S
C857 C856 1.399 . S
C857 H863 0.930 . S
H858 C838 0.931 . S
H859 C839 0.930 . S
H860 C847 0.931 . S
H861 C848 0.929 . S
H862 C856 0.929 . S
H863 C857 0.930 . S
Eu864 N893 2.600 . S
Eu864 N899 2.562 . S
Eu864 O908 2.462 . S
Eu864 O909 2.373 . S
Eu864 O911 2.432 . S
Eu864 O912 2.291 . S
Eu864 O916 2.335 1_545 S
Eu864 O919 2.372 . S
Eu864 C928 2.787 . S
C865 N866 1.365 . S
C865 C868 1.405 . S
C865 C872 1.448 1_556 S
N866 C865 1.365 . S
N866 C869 1.319 . S
N866 Eu875 2.600 1_566 S
C867 C869 1.397 . S
C867 C870 1.367 . S
C867 H887 0.931 . S
C868 C865 1.405 . S
C868 C870 1.403 . S
C868 C874 1.439 . S
C869 N866 1.319 . S
C869 C867 1.397 . S
C869 H880 0.930 . S
C870 C867 1.367 . S
C870 C868 1.403 . S
C870 H891 0.929 . S
C871 C872 1.430 . S
C871 C873 1.387 1_554 S
C871 C877 1.404 . S
C872 C865 1.448 1_554 S
C872 C871 1.430 . S
C872 N876 1.351 . S
C873 C871 1.387 1_556 S
C873 C874 1.374 . S
C873 H888 0.931 . S
C874 C868 1.439 . S
C874 C873 1.374 . S
C874 H889 0.931 . S
Eu875 N866 2.600 1_544 S
Eu875 N876 2.562 1_545 S
Eu875 O910 2.335 1_655 S
Eu875 O913 2.372 1_654 S
Eu875 O914 2.462 . S
Eu875 O915 2.373 1_645 S
Eu875 O917 2.432 1_554 S
Eu875 O918 2.291 1_655 S
Eu875 C939 2.787 . S
N876 C872 1.351 . S
N876 Eu875 2.562 1_565 S
N876 C878 1.325 . S
C877 C871 1.404 . S
C877 C879 1.366 . S
C877 H885 0.930 . S
C878 N876 1.325 . S
C878 C879 1.416 . S
C878 H884 0.929 . S
C879 C877 1.366 . S
C879 C878 1.416 . S
C879 H881 0.930 . S
H880 C869 0.930 . S
H881 C879 0.930 . S
H882 C897 0.930 . S
H883 C904 0.930 1_556 S
H884 C878 0.929 . S
H885 C877 0.930 . S
H886 C900 0.929 1_556 S
H887 C867 0.931 . S
H888 C873 0.931 . S
H889 C874 0.931 . S
H890 C895 0.931 . S
H891 C870 0.929 . S
H892 C903 0.930 . S
N893 Eu864 2.600 . S
N893 C894 1.365 . S
N893 C897 1.319 . S
C894 N893 1.365 . S
C894 C896 1.405 . S
C894 C902 1.448 . S
C895 H890 0.931 . S
C895 C897 1.397 . S
C895 C898 1.367 . S
C896 C894 1.405 . S
C896 C898 1.403 . S
C896 C929 1.439 . S
C897 H882 0.930 . S
C897 N893 1.319 . S
C897 C895 1.397 . S
C898 C895 1.367 . S
C898 C896 1.403 . S
C898 H905 0.929 . S
N899 Eu864 2.562 . S
N899 C900 1.325 . S
N899 C902 1.351 . S
C900 H886 0.929 1_554 S
C900 N899 1.325 . S
C900 C904 1.416 . S
C901 C902 1.430 . S
C901 C903 1.404 . S
C901 C930 1.387 . S
C902 C894 1.448 . S
C902 N899 1.351 . S
C902 C901 1.430 . S
C903 H892 0.930 . S
C903 C901 1.404 . S
C903 C904 1.366 . S
C904 H883 0.930 1_554 S
C904 C900 1.416 . S
C904 C903 1.366 . S
H905 C898 0.929 . S
H906 C929 0.931 . S
H907 C930 0.931 . S
O908 Eu864 2.462 . S
O908 C928 1.252 . S
O909 Eu864 2.373 . S
O909 C920 1.249 . S
O910 Eu875 2.335 1_455 S
O910 C920 1.264 . S
O911 Eu864 2.432 . S
O911 C928 1.268 . S
O912 Eu864 2.291 . S
O912 C927 1.255 1_554 S
O913 Eu875 2.372 1_456 S
O913 C927 1.257 . S
O914 Eu875 2.462 . S
O914 C939 1.252 . S
O915 Eu875 2.373 1_465 S
O915 C931 1.249 . S
O916 Eu864 2.335 1_565 S
O916 C931 1.264 . S
O917 Eu875 2.432 1_556 S
O917 C939 1.268 1_556 S
O918 Eu875 2.291 1_455 S
O918 C938 1.255 . S
O919 Eu864 2.372 . S
O919 C938 1.257 . S
C920 O909 1.249 . S
C920 O910 1.264 . S
C921 C924 1.382 . S
C921 C926 1.390 . S
C921 C928 1.506 . S
C922 C923 1.405 1_565 S
C922 C926 1.389 1_565 S
C923 C922 1.405 1_545 S
C923 C925 1.382 . S
C923 H940 0.915 1_545 S
C924 C921 1.382 . S
C924 C925 1.390 . S
C924 H941 0.931 . S
C925 C923 1.382 . S
C925 C924 1.390 . S
C925 H942 0.929 . S
C926 C921 1.390 . S
C926 C922 1.389 1_545 S
C926 H943 0.930 . S
C927 O912 1.255 1_556 S
C927 O913 1.257 . S
C928 Eu864 2.787 . S
C928 O908 1.252 . S
C928 O911 1.268 . S
C928 C921 1.506 . S
C929 C896 1.439 . S
C929 H906 0.931 . S
C929 C930 1.374 . S
C930 C901 1.387 . S
C930 H907 0.931 . S
C930 C929 1.374 . S
C931 O915 1.249 . S
C931 O916 1.264 . S
C932 C935 1.382 . S
C932 C936 1.390 1_556 S
C932 C939 1.506 1_556 S
C933 C934 1.398 1_554 S
C933 C936 1.392 . S
C934 C933 1.398 1_556 S
C934 C937 1.372 . S
C934 H944 0.931 . S
C935 C932 1.382 . S
C935 C937 1.390 . S
C935 H945 0.931 . S
C936 C932 1.390 1_554 S
C936 C933 1.392 . S
C936 H946 0.930 . S
C937 C934 1.372 . S
C937 C935 1.390 . S
C937 H947 0.929 . S
C938 O918 1.255 . S
C938 O919 1.257 . S
C939 Eu875 2.787 . S
C939 O914 1.252 . S
C939 O917 1.268 1_554 S
C939 C932 1.506 1_554 S
H940 C923 0.915 1_565 S
H941 C924 0.931 . S
H942 C925 0.929 . S
H943 C926 0.930 . S
H944 C934 0.931 . S
H945 C935 0.931 . S
H946 C936 0.930 . S
H947 C937 0.929 . S
Eu948 N977 2.600 . S
Eu948 N983 2.562 . S
Eu948 O992 2.462 . S
Eu948 O993 2.373 . S
Eu948 O995 2.432 . S
Eu948 O996 2.291 . S
Eu948 O1000 2.335 . S
Eu948 O1003 2.372 . S
Eu948 C1012 2.787 . S
C949 N950 1.365 . S
C949 C952 1.405 . S
C949 C956 1.448 . S
N950 C949 1.365 . S
N950 C953 1.319 . S
N950 Eu959 2.600 . S
C951 C953 1.397 . S
C951 C954 1.367 . S
C951 H971 0.931 . S
C952 C949 1.405 . S
C952 C954 1.403 . S
C952 C958 1.439 . S
C953 N950 1.319 . S
C953 C951 1.397 . S
C953 H964 0.930 . S
C954 C951 1.367 . S
C954 C952 1.403 . S
C954 H975 0.929 . S
C955 C956 1.430 . S
C955 C957 1.387 . S
C955 C961 1.404 . S
C956 C949 1.448 . S
C956 C955 1.430 . S
C956 N960 1.351 . S
C957 C955 1.387 . S
C957 C958 1.374 . S
C957 H972 0.931 . S
C958 C952 1.439 . S
C958 C957 1.374 . S
C958 H973 0.931 . S
Eu959 N950 2.600 . S
Eu959 N960 2.562 . S
Eu959 O994 2.335 . S
Eu959 O997 2.372 . S
Eu959 O998 2.462 . S
Eu959 O999 2.373 . S
Eu959 O1001 2.432 . S
Eu959 O1002 2.291 . S
Eu959 C1023 2.787 . S
N960 C956 1.351 . S
N960 Eu959 2.562 . S
N960 C962 1.325 . S
C961 C955 1.404 . S
C961 C963 1.366 . S
C961 H969 0.930 . S
C962 N960 1.325 . S
C962 C963 1.416 . S
C962 H968 0.929 . S
C963 C961 1.366 . S
C963 C962 1.416 . S
C963 H965 0.930 . S
H964 C953 0.930 . S
H965 C963 0.930 . S
H966 C981 0.930 . S
H967 C988 0.930 . S
H968 C962 0.929 . S
H969 C961 0.930 . S
H970 C984 0.929 . S
H971 C951 0.931 . S
H972 C957 0.931 . S
H973 C958 0.931 . S
H974 C979 0.931 . S
H975 C954 0.929 . S
H976 C987 0.930 . S
N977 Eu948 2.600 . S
N977 C978 1.365 . S
N977 C981 1.319 . S
C978 N977 1.365 . S
C978 C980 1.405 . S
C978 C986 1.448 . S
C979 H974 0.931 . S
C979 C981 1.397 . S
C979 C982 1.367 . S
C980 C978 1.405 . S
C980 C982 1.403 . S
C980 C1013 1.439 . S
C981 H966 0.930 . S
C981 N977 1.319 . S
C981 C979 1.397 . S
C982 C979 1.367 . S
C982 C980 1.403 . S
C982 H989 0.929 . S
N983 Eu948 2.562 . S
N983 C984 1.325 . S
N983 C986 1.351 . S
C984 H970 0.929 . S
C984 N983 1.325 . S
C984 C988 1.416 . S
C985 C986 1.430 . S
C985 C987 1.404 . S
C985 C1014 1.387 . S
C986 C978 1.448 . S
C986 N983 1.351 . S
C986 C985 1.430 . S
C987 H976 0.930 . S
C987 C985 1.404 . S
C987 C988 1.366 . S
C988 H967 0.930 . S
C988 C984 1.416 . S
C988 C987 1.366 . S
H989 C982 0.929 . S
H990 C1013 0.931 . S
H991 C1014 0.931 . S
O992 Eu948 2.462 . S
O992 C1012 1.252 . S
O993 Eu948 2.373 . S
O993 C1004 1.249 . S
O994 Eu959 2.335 . S
O994 C1004 1.264 . S
O995 Eu948 2.432 . S
O995 C1012 1.268 . S
O996 Eu948 2.291 . S
O996 C1011 1.255 . S
O997 Eu959 2.372 . S
O997 C1011 1.257 . S
O998 Eu959 2.462 . S
O998 C1023 1.252 . S
O999 Eu959 2.373 . S
O999 C1015 1.249 . S
O1000 Eu948 2.335 . S
O1000 C1015 1.264 . S
O1001 Eu959 2.432 . S
O1001 C1023 1.268 . S
O1002 Eu959 2.291 . S
O1002 C1022 1.255 . S
O1003 Eu948 2.372 . S
O1003 C1022 1.257 . S
C1004 O993 1.249 . S
C1004 O994 1.264 . S
C1005 C1008 1.382 . S
C1005 C1010 1.390 . S
C1005 C1012 1.506 . S
C1006 C1007 1.398 . S
C1006 C1010 1.392 . S
C1007 C1006 1.398 . S
C1007 C1009 1.372 . S
C1007 H1024 0.931 . S
C1008 C1005 1.382 . S
C1008 C1009 1.390 . S
C1008 H1025 0.931 . S
C1009 C1007 1.372 . S
C1009 C1008 1.390 . S
C1009 H1026 0.929 . S
C1010 C1005 1.390 . S
C1010 C1006 1.392 . S
C1010 H1027 0.930 . S
C1011 O996 1.255 . S
C1011 O997 1.257 . S
C1012 Eu948 2.787 . S
C1012 O992 1.252 . S
C1012 O995 1.268 . S
C1012 C1005 1.506 . S
C1013 C980 1.439 . S
C1013 H990 0.931 . S
C1013 C1014 1.374 . S
C1014 C985 1.387 . S
C1014 H991 0.931 . S
C1014 C1013 1.374 . S
C1015 O999 1.249 . S
C1015 O1000 1.264 . S
C1016 C1019 1.382 . S
C1016 C1020 1.390 . S
C1016 C1023 1.506 . S
C1017 C1018 1.398 . S
C1017 C1020 1.392 . S
C1018 C1017 1.398 . S
C1018 C1021 1.372 . S
C1018 H1028 0.931 . S
C1019 C1016 1.382 . S
C1019 C1021 1.390 . S
C1019 H1029 0.931 . S
C1020 C1016 1.390 . S
C1020 C1017 1.392 . S
C1020 H1030 0.930 . S
C1021 C1018 1.372 . S
C1021 C1019 1.390 . S
C1021 H1031 0.929 . S
C1022 O1002 1.255 . S
C1022 O1003 1.257 . S
C1023 Eu959 2.787 . S
C1023 O998 1.252 . S
C1023 O1001 1.268 . S
C1023 C1016 1.506 . S
H1024 C1007 0.931 . S
H1025 C1008 0.931 . S
H1026 C1009 0.929 . S
H1027 C1010 0.930 . S
H1028 C1018 0.931 . S
H1029 C1019 0.931 . S
H1030 C1020 0.930 . S
H1031 C1021 0.929 . S
Eu1032 N1061 2.600 . S
Eu1032 N1067 2.562 1_545 S
Eu1032 O1076 2.462 . S
Eu1032 O1077 2.373 1_545 S
Eu1032 O1079 2.432 . S
Eu1032 O1080 2.291 . S
Eu1032 O1084 2.335 . S
Eu1032 O1087 2.372 . S
Eu1032 C1096 2.787 . S
C1033 N1034 1.365 . S
C1033 C1036 1.405 . S
C1033 C1040 1.448 . S
N1034 C1033 1.365 . S
N1034 C1037 1.319 . S
N1034 Eu1043 2.600 . S
C1035 C1037 1.397 . S
C1035 C1038 1.367 . S
C1035 H1055 0.931 . S
C1036 C1033 1.405 . S
C1036 C1038 1.403 . S
C1036 C1042 1.439 . S
C1037 N1034 1.319 . S
C1037 C1035 1.397 . S
C1037 H1048 0.930 . S
C1038 C1035 1.367 . S
C1038 C1036 1.403 . S
C1038 H1059 0.929 . S
C1039 C1040 1.430 . S
C1039 C1041 1.387 . S
C1039 C1045 1.404 . S
C1040 C1033 1.448 . S
C1040 C1039 1.430 . S
C1040 N1044 1.351 . S
C1041 C1039 1.387 . S
C1041 C1042 1.374 . S
C1041 H1056 0.931 . S
C1042 C1036 1.439 . S
C1042 C1041 1.374 . S
C1042 H1057 0.931 . S
Eu1043 N1034 2.600 . S
Eu1043 N1044 2.562 . S
Eu1043 O1078 2.335 . S
Eu1043 O1081 2.372 . S
Eu1043 O1082 2.462 . S
Eu1043 O1083 2.373 . S
Eu1043 O1085 2.432 . S
Eu1043 O1086 2.291 . S
Eu1043 C1107 2.787 . S
N1044 C1040 1.351 . S
N1044 Eu1043 2.562 . S
N1044 C1046 1.325 . S
C1045 C1039 1.404 . S
C1045 C1047 1.366 . S
C1045 H1053 0.930 . S
C1046 N1044 1.325 . S
C1046 C1047 1.416 . S
C1046 H1052 0.929 . S
C1047 C1045 1.366 . S
C1047 C1046 1.416 . S
C1047 H1049 0.930 . S
H1048 C1037 0.930 . S
H1049 C1047 0.930 . S
H1050 C1065 0.930 . S
H1051 C1072 0.930 . S
H1052 C1046 0.929 . S
H1053 C1045 0.930 . S
H1054 C1068 0.929 1_545 S
H1055 C1035 0.931 . S
H1056 C1041 0.931 . S
H1057 C1042 0.931 . S
H1058 C1063 0.931 . S
H1059 C1038 0.929 . S
H1060 C1071 0.930 . S
N1061 Eu1032 2.600 . S
N1061 C1062 1.365 1_545 S
N1061 C1065 1.319 . S
C1062 N1061 1.365 1_565 S
C1062 C1064 1.405 . S
C1062 C1070 1.448 . S
C1063 H1058 0.931 . S
C1063 C1065 1.397 1_565 S
C1063 C1066 1.367 . S
C1064 C1062 1.405 . S
C1064 C1066 1.403 . S
C1064 C1097 1.439 . S
C1065 H1050 0.930 . S
C1065 N1061 1.319 . S
C1065 C1063 1.397 1_545 S
C1066 C1063 1.367 . S
C1066 C1064 1.403 . S
C1066 H1073 0.929 . S
N1067 Eu1032 2.562 1_565 S
N1067 C1068 1.325 . S
N1067 C1070 1.351 . S
C1068 H1054 0.929 1_565 S
C1068 N1067 1.325 . S
C1068 C1072 1.416 . S
C1069 C1070 1.430 . S
C1069 C1071 1.404 . S
C1069 C1098 1.387 . S
C1070 C1062 1.448 . S
C1070 N1067 1.351 . S
C1070 C1069 1.430 . S
C1071 H1060 0.930 . S
C1071 C1069 1.404 . S
C1071 C1072 1.366 . S
C1072 H1051 0.930 . S
C1072 C1068 1.416 . S
C1072 C1071 1.366 . S
H1073 C1066 0.929 . S
H1074 C1097 0.931 . S
H1075 C1098 0.931 . S
O1076 Eu1032 2.462 . S
O1076 C1096 1.252 . S
O1077 Eu1032 2.373 1_565 S
O1077 C1088 1.249 . S
O1078 Eu1043 2.335 . S
O1078 C1088 1.264 1_545 S
O1079 Eu1032 2.432 . S
O1079 C1096 1.268 . S
O1080 Eu1032 2.291 . S
O1080 C1095 1.255 . S
O1081 Eu1043 2.372 . S
O1081 C1095 1.257 . S
O1082 Eu1043 2.462 . S
O1082 C1107 1.252 . S
O1083 Eu1043 2.373 . S
O1083 C1099 1.249 . S
O1084 Eu1032 2.335 . S
O1084 C1099 1.264 . S
O1085 Eu1043 2.432 . S
O1085 C1107 1.268 . S
O1086 Eu1043 2.291 . S
O1086 C1106 1.255 . S
O1087 Eu1032 2.372 . S
O1087 C1106 1.257 . S
C1088 O1077 1.249 . S
C1088 O1078 1.264 1_565 S
C1089 C1092 1.382 . S
C1089 C1094 1.390 . S
C1089 C1096 1.506 . S
C1090 C1091 1.398 . S
C1090 C1094 1.392 . S
C1091 C1090 1.398 . S
C1091 C1093 1.372 . S
C1091 H1108 0.931 . S
C1092 C1089 1.382 . S
C1092 C1093 1.390 . S
C1092 H1109 0.931 . S
C1093 C1091 1.372 . S
C1093 C1092 1.390 . S
C1093 H1110 0.929 . S
C1094 C1089 1.390 . S
C1094 C1090 1.392 . S
C1094 H1111 0.930 . S
C1095 O1080 1.255 . S
C1095 O1081 1.257 . S
C1096 Eu1032 2.787 . S
C1096 O1076 1.252 . S
C1096 O1079 1.268 . S
C1096 C1089 1.506 . S
C1097 C1064 1.439 . S
C1097 H1074 0.931 . S
C1097 C1098 1.374 . S
C1098 C1069 1.387 . S
C1098 H1075 0.931 . S
C1098 C1097 1.374 . S
C1099 O1083 1.249 . S
C1099 O1084 1.264 . S
C1100 C1103 1.382 1_545 S
C1100 C1104 1.390 1_545 S
C1100 C1107 1.506 . S
C1101 C1102 1.398 . S
C1101 C1104 1.392 . S
C1102 C1101 1.398 . S
C1102 C1105 1.372 . S
C1102 H1112 0.931 . S
C1103 C1100 1.382 1_565 S
C1103 C1105 1.390 . S
C1103 H1113 0.931 1_565 S
C1104 C1100 1.390 1_565 S
C1104 C1101 1.392 . S
C1104 H1114 0.931 . S
C1105 C1102 1.372 . S
C1105 C1103 1.390 . S
C1105 H1115 0.929 . S
C1106 O1086 1.255 . S
C1106 O1087 1.257 . S
C1107 Eu1043 2.787 . S
C1107 O1082 1.252 . S
C1107 O1085 1.268 . S
C1107 C1100 1.506 . S
H1108 C1091 0.931 . S
H1109 C1092 0.931 . S
H1110 C1093 0.929 . S
H1111 C1094 0.930 . S
H1112 C1102 0.931 . S
H1113 C1103 0.931 1_545 S
H1114 C1104 0.931 . S
H1115 C1105 0.929 . S
Eu1116 N1145 2.600 . S
Eu1116 N1151 2.562 . S
Eu1116 O1160 2.462 . S
Eu1116 O1161 2.373 . S
Eu1116 O1163 2.432 . S
Eu1116 O1164 2.291 . S
Eu1116 O1168 2.335 . S
Eu1116 O1171 2.372 . S
Eu1116 C1180 2.787 . S
C1117 N1118 1.365 . S
C1117 C1120 1.405 . S
C1117 C1124 1.448 . S
N1118 C1117 1.365 . S
N1118 C1121 1.319 . S
N1118 Eu1127 2.600 . S
C1119 C1121 1.397 . S
C1119 C1122 1.367 . S
C1119 H1139 0.931 . S
C1120 C1117 1.405 . S
C1120 C1122 1.403 . S
C1120 C1126 1.439 . S
C1121 N1118 1.319 . S
C1121 C1119 1.397 . S
C1121 H1132 0.930 . S
C1122 C1119 1.367 . S
C1122 C1120 1.403 . S
C1122 H1143 0.929 . S
C1123 C1124 1.430 . S
C1123 C1125 1.387 . S
C1123 C1129 1.404 . S
C1124 C1117 1.448 . S
C1124 C1123 1.430 . S
C1124 N1128 1.351 . S
C1125 C1123 1.387 . S
C1125 C1126 1.374 . S
C1125 H1140 0.931 . S
C1126 C1120 1.439 . S
C1126 C1125 1.374 . S
C1126 H1141 0.931 . S
Eu1127 N1118 2.600 . S
Eu1127 N1128 2.562 . S
Eu1127 O1162 2.335 . S
Eu1127 O1165 2.372 . S
Eu1127 O1166 2.462 . S
Eu1127 O1167 2.373 . S
Eu1127 O1169 2.432 . S
Eu1127 O1170 2.291 . S
Eu1127 C1191 2.787 . S
N1128 C1124 1.351 . S
N1128 Eu1127 2.562 . S
N1128 C1130 1.325 . S
C1129 C1123 1.404 . S
C1129 C1131 1.366 . S
C1129 H1137 0.930 . S
C1130 N1128 1.325 . S
C1130 C1131 1.416 . S
C1130 H1136 0.929 . S
C1131 C1129 1.366 . S
C1131 C1130 1.416 . S
C1131 H1133 0.930 . S
H1132 C1121 0.930 . S
H1133 C1131 0.930 . S
H1134 C1149 0.930 . S
H1135 C1156 0.930 . S
H1136 C1130 0.929 . S
H1137 C1129 0.930 . S
H1138 C1152 0.929 . S
H1139 C1119 0.931 . S
H1140 C1125 0.931 . S
H1141 C1126 0.931 . S
H1142 C1147 0.931 . S
H1143 C1122 0.929 . S
H1144 C1155 0.930 . S
N1145 Eu1116 2.600 . S
N1145 C1146 1.365 . S
N1145 C1149 1.319 . S
C1146 N1145 1.365 . S
C1146 C1148 1.405 . S
C1146 C1154 1.448 . S
C1147 H1142 0.931 . S
C1147 C1149 1.397 . S
C1147 C1150 1.367 . S
C1148 C1146 1.405 . S
C1148 C1150 1.403 . S
C1148 C1181 1.439 . S
C1149 H1134 0.930 . S
C1149 N1145 1.319 . S
C1149 C1147 1.397 . S
C1150 C1147 1.367 . S
C1150 C1148 1.403 . S
C1150 H1157 0.929 . S
N1151 Eu1116 2.562 . S
N1151 C1152 1.325 . S
N1151 C1154 1.351 . S
C1152 H1138 0.929 . S
C1152 N1151 1.325 . S
C1152 C1156 1.416 . S
C1153 C1154 1.430 . S
C1153 C1155 1.404 . S
C1153 C1182 1.387 . S
C1154 C1146 1.448 . S
C1154 N1151 1.351 . S
C1154 C1153 1.430 . S
C1155 H1144 0.930 . S
C1155 C1153 1.404 . S
C1155 C1156 1.366 . S
C1156 H1135 0.930 . S
C1156 C1152 1.416 . S
C1156 C1155 1.366 . S
H1157 C1150 0.929 . S
H1158 C1181 0.931 . S
H1159 C1182 0.931 . S
O1160 Eu1116 2.462 . S
O1160 C1180 1.252 . S
O1161 Eu1116 2.373 . S
O1161 C1172 1.249 . S
O1162 Eu1127 2.335 . S
O1162 C1172 1.264 . S
O1163 Eu1116 2.432 . S
O1163 C1180 1.268 . S
O1164 Eu1116 2.291 . S
O1164 C1179 1.255 . S
O1165 Eu1127 2.372 . S
O1165 C1179 1.257 . S
O1166 Eu1127 2.462 . S
O1166 C1191 1.252 . S
O1167 Eu1127 2.373 . S
O1167 C1183 1.249 . S
O1168 Eu1116 2.335 . S
O1168 C1183 1.264 . S
O1169 Eu1127 2.432 . S
O1169 C1191 1.268 . S
O1170 Eu1127 2.291 . S
O1170 C1190 1.255 . S
O1171 Eu1116 2.372 . S
O1171 C1190 1.257 . S
C1172 O1161 1.249 . S
C1172 O1162 1.264 . S
C1173 C1176 1.382 . S
C1173 C1178 1.390 . S
C1173 C1180 1.506 . S
C1174 C1175 1.398 . S
C1174 C1178 1.392 . S
C1175 C1174 1.398 . S
C1175 C1177 1.372 . S
C1175 H1192 0.931 . S
C1176 C1173 1.382 . S
C1176 C1177 1.390 . S
C1176 H1193 0.931 . S
C1177 C1175 1.372 . S
C1177 C1176 1.390 . S
C1177 H1194 0.929 . S
C1178 C1173 1.390 . S
C1178 C1174 1.392 . S
C1178 H1195 0.930 . S
C1179 O1164 1.255 . S
C1179 O1165 1.257 . S
C1180 Eu1116 2.787 . S
C1180 O1160 1.252 . S
C1180 O1163 1.268 . S
C1180 C1173 1.506 . S
C1181 C1148 1.439 . S
C1181 H1158 0.931 . S
C1181 C1182 1.374 . S
C1182 C1153 1.387 . S
C1182 H1159 0.931 . S
C1182 C1181 1.374 . S
C1183 O1167 1.249 . S
C1183 O1168 1.264 . S
C1184 C1187 1.382 . S
C1184 C1188 1.390 . S
C1184 C1191 1.506 . S
C1185 C1186 1.398 . S
C1185 C1188 1.392 . S
C1186 C1185 1.398 . S
C1186 C1189 1.372 . S
C1186 H1196 0.931 . S
C1187 C1184 1.382 . S
C1187 C1189 1.390 . S
C1187 H1197 0.931 . S
C1188 C1184 1.390 . S
C1188 C1185 1.392 . S
C1188 H1198 0.930 . S
C1189 C1186 1.372 . S
C1189 C1187 1.390 . S
C1189 H1199 0.929 . S
C1190 O1170 1.255 . S
C1190 O1171 1.257 . S
C1191 Eu1127 2.787 . S
C1191 O1166 1.252 . S
C1191 O1169 1.268 . S
C1191 C1184 1.506 . S
H1192 C1175 0.931 . S
H1193 C1176 0.931 . S
H1194 C1177 0.929 . S
H1195 C1178 0.930 . S
H1196 C1186 0.931 . S
H1197 C1187 0.931 . S
H1198 C1188 0.930 . S
H1199 C1189 0.929 . S
Eu1200 N1229 2.601 1_545 S
Eu1200 N1235 2.564 1_545 S
Eu1200 O1244 2.464 1_545 S
Eu1200 O1245 2.371 . S
Eu1200 O1247 2.434 1_545 S
Eu1200 O1248 2.290 . S
Eu1200 O1252 2.334 . S
Eu1200 O1255 2.369 . S
Eu1200 C1264 2.790 1_545 S
C1201 N1202 1.365 1_455 S
C1201 C1204 1.405 1_455 S
C1201 C1208 1.448 . S
N1202 C1201 1.365 1_655 S
N1202 C1205 1.319 . S
N1202 Eu1211 2.600 1_655 S
C1203 C1205 1.397 . S
C1203 C1206 1.367 . S
C1203 H1223 0.931 . S
C1204 C1201 1.405 1_655 S
C1204 C1206 1.403 . S
C1204 C1210 1.439 1_655 S
C1205 N1202 1.319 . S
C1205 C1203 1.397 . S
C1205 H1216 0.930 . S
C1206 C1203 1.367 . S
C1206 C1204 1.403 . S
C1206 H1227 0.929 . S
C1207 C1208 1.430 . S
C1207 C1209 1.387 . S
C1207 C1213 1.404 . S
C1208 C1201 1.448 . S
C1208 C1207 1.430 . S
C1208 N1212 1.351 . S
C1209 C1207 1.387 . S
C1209 C1210 1.374 . S
C1209 H1224 0.931 . S
C1210 C1204 1.439 1_455 S
C1210 C1209 1.374 . S
C1210 H1225 0.931 1_455 S
Eu1211 N1202 2.600 1_455 S
Eu1211 N1212 2.562 . S
Eu1211 O1246 2.335 . S
Eu1211 O1249 2.372 1_455 S
Eu1211 O1250 2.462 . S
Eu1211 O1251 2.373 . S
Eu1211 O1253 2.432 1_455 S
Eu1211 O1254 2.291 . S
Eu1211 C1275 2.787 . S
N1212 C1208 1.351 . S
N1212 Eu1211 2.562 . S
N1212 C1214 1.325 . S
C1213 C1207 1.404 . S
C1213 C1215 1.366 . S
C1213 H1221 0.930 . S
C1214 N1212 1.325 . S
C1214 C1215 1.416 . S
C1214 H1220 0.929 . S
C1215 C1213 1.366 . S
C1215 C1214 1.416 . S
C1215 H1217 0.930 . S
H1216 C1205 0.930 . S
H1217 C1215 0.930 . S
H1218 C1233 0.930 1_545 S
H1219 C1240 0.930 . S
H1220 C1214 0.929 . S
H1221 C1213 0.930 . S
H1222 C1236 0.929 . S
H1223 C1203 0.931 . S
H1224 C1209 0.931 . S
H1225 C1210 0.931 1_655 S
H1226 C1231 0.936 . S
H1227 C1206 0.929 . S
H1228 C1239 0.930 . S
N1229 Eu1200 2.601 1_565 S
N1229 C1230 1.365 . S
N1229 C1233 1.319 . S
C1230 N1229 1.365 . S
C1230 C1232 1.405 . S
C1230 C1238 1.448 . S
C1231 H1226 0.936 . S
C1231 C1233 1.397 . S
C1231 C1234 1.367 . S
C1232 C1230 1.405 . S
C1232 C1234 1.403 . S
C1232 C1265 1.439 . S
C1233 H1218 0.930 1_565 S
C1233 N1229 1.319 . S
C1233 C1231 1.397 . S
C1234 C1231 1.367 . S
C1234 C1232 1.403 . S
C1234 H1241 0.929 . S
N1235 Eu1200 2.564 1_565 S
N1235 C1236 1.325 1_455 S
N1235 C1238 1.351 . S
C1236 H1222 0.929 . S
C1236 N1235 1.325 1_655 S
C1236 C1240 1.416 . S
C1237 C1238 1.430 . S
C1237 C1239 1.404 1_455 S
C1237 C1266 1.387 . S
C1238 C1230 1.448 . S
C1238 N1235 1.351 . S
C1238 C1237 1.430 . S
C1239 H1228 0.930 . S
C1239 C1237 1.404 1_655 S
C1239 C1240 1.366 . S
C1240 H1219 0.930 . S
C1240 C1236 1.416 . S
C1240 C1239 1.366 . S
H1241 C1234 0.929 . S
H1242 C1265 0.931 . S
H1243 C1266 0.931 . S
O1244 Eu1200 2.464 1_565 S
O1244 C1264 1.252 . S
O1245 Eu1200 2.371 . S
O1245 C1256 1.249 . S
O1246 Eu1211 2.335 . S
O1246 C1256 1.264 . S
O1247 Eu1200 2.434 1_565 S
O1247 C1264 1.268 . S
O1248 Eu1200 2.290 . S
O1248 C1263 1.255 1_455 S
O1249 Eu1211 2.372 1_655 S
O1249 C1263 1.257 . S
O1250 Eu1211 2.462 . S
O1250 C1275 1.252 . S
O1251 Eu1211 2.373 . S
O1251 C1267 1.249 . S
O1252 Eu1200 2.334 . S
O1252 C1267 1.264 . S
O1253 Eu1211 2.432 1_655 S
O1253 C1275 1.268 1_655 S
O1254 Eu1211 2.291 . S
O1254 C1274 1.255 . S
O1255 Eu1200 2.369 . S
O1255 C1274 1.257 . S
C1256 O1245 1.249 . S
C1256 O1246 1.264 . S
C1257 C1260 1.382 . S
C1257 C1262 1.390 . S
C1257 C1264 1.506 . S
C1258 C1259 1.398 . S
C1258 C1262 1.392 . S
C1259 C1258 1.398 . S
C1259 C1261 1.372 . S
C1259 H1276 0.931 . S
C1260 C1257 1.382 . S
C1260 C1261 1.390 . S
C1260 H1277 0.931 . S
C1261 C1259 1.372 . S
C1261 C1260 1.390 . S
C1261 H1278 0.929 . S
C1262 C1257 1.390 . S
C1262 C1258 1.392 . S
C1262 H1279 0.930 . S
C1263 O1248 1.255 1_655 S
C1263 O1249 1.257 . S
C1264 Eu1200 2.790 1_565 S
C1264 O1244 1.252 . S
C1264 O1247 1.268 . S
C1264 C1257 1.506 . S
C1265 C1232 1.439 . S
C1265 H1242 0.931 . S
C1265 C1266 1.374 . S
C1266 C1237 1.387 . S
C1266 H1243 0.931 . S
C1266 C1265 1.374 . S
C1267 O1251 1.249 . S
C1267 O1252 1.264 . S
C1268 C1271 1.382 1_455 S
C1268 C1272 1.390 . S
C1268 C1275 1.506 . S
C1269 C1270 1.398 1_455 S
C1269 C1272 1.392 . S
C1270 C1269 1.398 1_655 S
C1270 C1273 1.372 . S
C1270 H1280 0.931 . S
C1271 C1268 1.382 1_655 S
C1271 C1273 1.390 . S
C1271 H1281 0.931 . S
C1272 C1268 1.390 . S
C1272 C1269 1.392 . S
C1272 H1282 0.930 . S
C1273 C1270 1.372 . S
C1273 C1271 1.390 . S
C1273 H1283 0.929 . S
C1274 O1254 1.255 . S
C1274 O1255 1.257 . S
C1275 Eu1211 2.787 . S
C1275 O1250 1.252 . S
C1275 O1253 1.268 1_455 S
C1275 C1268 1.506 . S
H1276 C1259 0.931 . S
H1277 C1260 0.931 . S
H1278 C1261 0.929 . S
H1279 C1262 0.930 . S
H1280 C1270 0.931 . S
H1281 C1271 0.931 . S
H1282 C1272 0.930 . S
H1283 C1273 0.929 . S
Eu1284 N1313 2.600 . S
Eu1284 N1319 2.562 . S
Eu1284 O1328 2.462 . S
Eu1284 O1329 2.373 . S
Eu1284 O1331 2.432 . S
Eu1284 O1332 2.291 . S
Eu1284 O1336 2.335 . S
Eu1284 O1339 2.372 . S
Eu1284 C1348 2.787 . S
C1285 N1286 1.365 . S
C1285 C1288 1.405 . S
C1285 C1292 1.448 . S
N1286 C1285 1.365 . S
N1286 C1289 1.319 . S
N1286 Eu1295 2.600 . S
C1287 C1289 1.397 . S
C1287 C1290 1.367 . S
C1287 H1307 0.931 . S
C1288 C1285 1.405 . S
C1288 C1290 1.403 . S
C1288 C1294 1.439 . S
C1289 N1286 1.319 . S
C1289 C1287 1.397 . S
C1289 H1300 0.930 . S
C1290 C1287 1.367 . S
C1290 C1288 1.403 . S
C1290 H1311 0.929 . S
C1291 C1292 1.430 . S
C1291 C1293 1.387 . S
C1291 C1297 1.404 . S
C1292 C1285 1.448 . S
C1292 C1291 1.430 . S
C1292 N1296 1.351 . S
C1293 C1291 1.387 . S
C1293 C1294 1.374 . S
C1293 H1308 0.931 . S
C1294 C1288 1.439 . S
C1294 C1293 1.374 . S
C1294 H1309 0.931 . S
Eu1295 N1286 2.600 . S
Eu1295 N1296 2.562 . S
Eu1295 O1330 2.335 . S
Eu1295 O1333 2.372 . S
Eu1295 O1334 2.462 . S
Eu1295 O1335 2.373 . S
Eu1295 O1337 2.432 . S
Eu1295 O1338 2.291 . S
Eu1295 C1359 2.787 . S
N1296 C1292 1.351 . S
N1296 Eu1295 2.562 . S
N1296 C1298 1.325 . S
C1297 C1291 1.404 . S
C1297 C1299 1.366 . S
C1297 H1305 0.930 . S
C1298 N1296 1.325 . S
C1298 C1299 1.416 . S
C1298 H1304 0.929 . S
C1299 C1297 1.366 . S
C1299 C1298 1.416 . S
C1299 H1301 0.930 . S
H1300 C1289 0.930 . S
H1301 C1299 0.930 . S
H1302 C1317 0.930 . S
H1303 C1324 0.930 . S
H1304 C1298 0.929 . S
H1305 C1297 0.930 . S
H1306 C1320 0.929 . S
H1307 C1287 0.931 . S
H1308 C1293 0.931 . S
H1309 C1294 0.931 . S
H1310 C1315 0.931 . S
H1311 C1290 0.929 . S
H1312 C1323 0.930 . S
N1313 Eu1284 2.600 . S
N1313 C1314 1.365 . S
N1313 C1317 1.319 . S
C1314 N1313 1.365 . S
C1314 C1316 1.405 . S
C1314 C1322 1.448 . S
C1315 H1310 0.931 . S
C1315 C1317 1.397 . S
C1315 C1318 1.367 . S
C1316 C1314 1.405 . S
C1316 C1318 1.403 . S
C1316 C1349 1.439 . S
C1317 H1302 0.930 . S
C1317 N1313 1.319 . S
C1317 C1315 1.397 . S
C1318 C1315 1.367 . S
C1318 C1316 1.403 . S
C1318 H1325 0.929 . S
N1319 Eu1284 2.562 . S
N1319 C1320 1.325 . S
N1319 C1322 1.351 . S
C1320 H1306 0.929 . S
C1320 N1319 1.325 . S
C1320 C1324 1.416 . S
C1321 C1322 1.430 . S
C1321 C1323 1.404 . S
C1321 C1350 1.387 . S
C1322 C1314 1.448 . S
C1322 N1319 1.351 . S
C1322 C1321 1.430 . S
C1323 H1312 0.930 . S
C1323 C1321 1.404 . S
C1323 C1324 1.366 . S
C1324 H1303 0.930 . S
C1324 C1320 1.416 . S
C1324 C1323 1.366 . S
H1325 C1318 0.929 . S
H1326 C1349 0.931 . S
H1327 C1350 0.931 . S
O1328 Eu1284 2.462 . S
O1328 C1348 1.252 . S
O1329 Eu1284 2.373 . S
O1329 C1340 1.249 . S
O1330 Eu1295 2.335 . S
O1330 C1340 1.264 . S
O1331 Eu1284 2.432 . S
O1331 C1348 1.268 . S
O1332 Eu1284 2.291 . S
O1332 C1347 1.255 . S
O1333 Eu1295 2.372 . S
O1333 C1347 1.257 . S
O1334 Eu1295 2.462 . S
O1334 C1359 1.252 . S
O1335 Eu1295 2.373 . S
O1335 C1351 1.249 . S
O1336 Eu1284 2.335 . S
O1336 C1351 1.264 . S
O1337 Eu1295 2.432 . S
O1337 C1359 1.268 . S
O1338 Eu1295 2.291 . S
O1338 C1358 1.255 . S
O1339 Eu1284 2.372 . S
O1339 C1358 1.257 . S
C1340 O1329 1.249 . S
C1340 O1330 1.264 . S
C1341 C1344 1.382 . S
C1341 C1346 1.390 . S
C1341 C1348 1.506 . S
C1342 C1343 1.398 . S
C1342 C1346 1.392 . S
C1343 C1342 1.398 . S
C1343 C1345 1.372 . S
C1343 H1360 0.931 . S
C1344 C1341 1.382 . S
C1344 C1345 1.390 . S
C1344 H1361 0.931 . S
C1345 C1343 1.372 . S
C1345 C1344 1.390 . S
C1345 H1362 0.929 . S
C1346 C1341 1.390 . S
C1346 C1342 1.392 . S
C1346 H1363 0.930 . S
C1347 O1332 1.255 . S
C1347 O1333 1.257 . S
C1348 Eu1284 2.787 . S
C1348 O1328 1.252 . S
C1348 O1331 1.268 . S
C1348 C1341 1.506 . S
C1349 C1316 1.439 . S
C1349 H1326 0.931 . S
C1349 C1350 1.374 . S
C1350 C1321 1.387 . S
C1350 H1327 0.931 . S
C1350 C1349 1.374 . S
C1351 O1335 1.249 . S
C1351 O1336 1.264 . S
C1352 C1355 1.382 . S
C1352 C1356 1.390 . S
C1352 C1359 1.506 . S
C1353 C1354 1.398 . S
C1353 C1356 1.392 . S
C1354 C1353 1.398 . S
C1354 C1357 1.372 . S
C1354 H1364 0.931 . S
C1355 C1352 1.382 . S
C1355 C1357 1.390 . S
C1355 H1365 0.931 . S
C1356 C1352 1.390 . S
C1356 C1353 1.392 . S
C1356 H1366 0.930 . S
C1357 C1354 1.372 . S
C1357 C1355 1.390 . S
C1357 H1367 0.929 . S
C1358 O1338 1.255 . S
C1358 O1339 1.257 . S
C1359 Eu1295 2.787 . S
C1359 O1334 1.252 . S
C1359 O1337 1.268 . S
C1359 C1352 1.506 . S
H1360 C1343 0.931 . S
H1361 C1344 0.931 . S
H1362 C1345 0.929 . S
H1363 C1346 0.930 . S
H1364 C1354 0.931 . S
H1365 C1355 0.931 . S
H1366 C1356 0.930 . S
H1367 C1357 0.929 . S
Eu1368 N1397 2.600 . S
Eu1368 N1403 2.562 . S
Eu1368 O1412 2.462 . S
Eu1368 O1413 2.373 1_556 S
Eu1368 O1415 2.432 . S
Eu1368 O1416 2.291 1_556 S
Eu1368 O1420 2.335 1_556 S
Eu1368 O1423 2.372 1_556 S
Eu1368 C1432 2.787 . S
C1369 N1370 1.365 1_545 S
C1369 C1372 1.405 1_545 S
C1369 C1376 1.448 . S
N1370 C1369 1.365 1_565 S
N1370 C1373 1.319 . S
N1370 Eu1379 2.600 1_565 S
C1371 C1373 1.397 . S
C1371 C1374 1.367 . S
C1371 H1391 0.931 . S
C1372 C1369 1.405 1_565 S
C1372 C1374 1.403 . S
C1372 C1378 1.439 1_565 S
C1373 N1370 1.319 . S
C1373 C1371 1.397 . S
C1373 H1384 0.930 . S
C1374 C1371 1.367 . S
C1374 C1372 1.403 . S
C1374 H1395 0.929 . S
C1375 C1376 1.430 . S
C1375 C1377 1.387 . S
C1375 C1381 1.404 . S
C1376 C1369 1.448 . S
C1376 C1375 1.430 . S
C1376 N1380 1.351 . S
C1377 C1375 1.387 . S
C1377 C1378 1.374 . S
C1377 H1392 0.931 . S
C1378 C1372 1.439 1_545 S
C1378 C1377 1.374 . S
C1378 H1393 0.931 1_545 S
Eu1379 N1370 2.600 1_545 S
Eu1379 N1380 2.562 . S
Eu1379 O1414 2.335 . S
Eu1379 O1417 2.372 1_545 S
Eu1379 O1418 2.462 . S
Eu1379 O1419 2.373 . S
Eu1379 O1421 2.432 1_545 S
Eu1379 O1422 2.291 . S
Eu1379 C1443 2.787 . S
N1380 C1376 1.351 . S
N1380 Eu1379 2.562 . S
N1380 C1382 1.325 . S
C1381 C1375 1.404 . S
C1381 C1383 1.366 . S
C1381 H1389 0.930 . S
C1382 N1380 1.325 . S
C1382 C1383 1.416 . S
C1382 H1388 0.929 . S
C1383 C1381 1.366 . S
C1383 C1382 1.416 . S
C1383 H1385 0.930 . S
H1384 C1373 0.930 . S
H1385 C1383 0.930 . S
H1386 C1401 0.930 1_554 S
H1387 C1408 0.926 . S
H1388 C1382 0.929 . S
H1389 C1381 0.930 . S
H1390 C1404 0.929 . S
H1391 C1371 0.931 . S
H1392 C1377 0.931 . S
H1393 C1378 0.931 1_565 S
H1394 C1399 0.936 . S
H1395 C1374 0.929 . S
H1396 C1407 0.930 . S
N1397 Eu1368 2.600 . S
N1397 C1398 1.365 . S
N1397 C1401 1.319 . S
C1398 N1397 1.365 . S
C1398 C1400 1.405 . S
C1398 C1406 1.448 . S
C1399 H1394 0.936 . S
C1399 C1401 1.397 . S
C1399 C1402 1.367 . S
C1400 C1398 1.405 . S
C1400 C1402 1.403 . S
C1400 C1433 1.439 . S
C1401 H1386 0.930 1_556 S
C1401 N1397 1.319 . S
C1401 C1399 1.397 . S
C1402 C1399 1.367 . S
C1402 C1400 1.403 . S
C1402 H1409 0.929 . S
N1403 Eu1368 2.562 . S
N1403 C1404 1.325 . S
N1403 C1406 1.351 . S
C1404 H1390 0.929 . S
C1404 N1403 1.325 . S
C1404 C1408 1.417 1_545 S
C1405 C1406 1.430 . S
C1405 C1407 1.404 . S
C1405 C1434 1.387 . S
C1406 C1398 1.448 . S
C1406 N1403 1.351 . S
C1406 C1405 1.430 . S
C1407 H1396 0.930 . S
C1407 C1405 1.404 . S
C1407 C1408 1.369 1_545 S
C1408 H1387 0.926 . S
C1408 C1404 1.417 1_565 S
C1408 C1407 1.369 1_565 S
H1409 C1402 0.929 . S
H1410 C1433 0.931 . S
H1411 C1434 0.931 . S
O1412 Eu1368 2.462 . S
O1412 C1432 1.252 . S
O1413 Eu1368 2.373 1_554 S
O1413 C1424 1.249 . S
O1414 Eu1379 2.335 . S
O1414 C1424 1.264 . S
O1415 Eu1368 2.432 . S
O1415 C1432 1.268 . S
O1416 Eu1368 2.291 1_554 S
O1416 C1431 1.255 1_545 S
O1417 Eu1379 2.372 1_565 S
O1417 C1431 1.257 . S
O1418 Eu1379 2.462 . S
O1418 C1443 1.252 . S
O1419 Eu1379 2.373 . S
O1419 C1435 1.249 . S
O1420 Eu1368 2.335 1_554 S
O1420 C1435 1.264 . S
O1421 Eu1379 2.432 1_565 S
O1421 C1443 1.268 1_565 S
O1422 Eu1379 2.291 . S
O1422 C1442 1.255 . S
O1423 Eu1368 2.372 1_554 S
O1423 C1442 1.257 . S
C1424 O1413 1.249 . S
C1424 O1414 1.264 . S
C1425 C1428 1.382 . S
C1425 C1430 1.390 . S
C1425 C1432 1.506 . S
C1426 C1427 1.398 . S
C1426 C1430 1.392 . S
C1427 C1426 1.398 . S
C1427 C1429 1.372 . S
C1427 H1444 0.931 . S
C1428 C1425 1.382 . S
C1428 C1429 1.390 . S
C1428 H1445 0.931 . S
C1429 C1427 1.372 . S
C1429 C1428 1.390 . S
C1429 H1446 0.929 . S
C1430 C1425 1.390 . S
C1430 C1426 1.392 . S
C1430 H1447 0.930 . S
C1431 O1416 1.255 1_565 S
C1431 O1417 1.257 . S
C1432 Eu1368 2.787 . S
C1432 O1412 1.252 . S
C1432 O1415 1.268 . S
C1432 C1425 1.506 . S
C1433 C1400 1.439 . S
C1433 H1410 0.931 . S
C1433 C1434 1.374 . S
C1434 C1405 1.387 . S
C1434 H1411 0.931 . S
C1434 C1433 1.374 . S
C1435 O1419 1.249 . S
C1435 O1420 1.264 . S
C1436 C1439 1.382 . S
C1436 C1440 1.390 1_565 S
C1436 C1443 1.506 1_565 S
C1437 C1438 1.398 1_545 S
C1437 C1440 1.392 . S
C1438 C1437 1.398 1_565 S
C1438 C1441 1.372 . S
C1438 H1448 0.931 . S
C1439 C1436 1.382 . S
C1439 C1441 1.390 . S
C1439 H1449 0.931 . S
C1440 C1436 1.390 1_545 S
C1440 C1437 1.392 . S
C1440 H1450 0.930 . S
C1441 C1438 1.372 . S
C1441 C1439 1.390 . S
C1441 H1451 0.929 . S
C1442 O1422 1.255 . S
C1442 O1423 1.257 . S
C1443 Eu1379 2.787 . S
C1443 O1418 1.252 . S
C1443 O1421 1.268 1_545 S
C1443 C1436 1.506 1_545 S
H1444 C1427 0.931 . S
H1445 C1428 0.931 . S
H1446 C1429 0.929 . S
H1447 C1430 0.930 . S
H1448 C1438 0.931 . S
H1449 C1439 0.931 . S
H1450 C1440 0.930 . S
H1451 C1441 0.929 . S
Eu1452 N1481 2.600 . S
Eu1452 N1487 2.562 . S
Eu1452 O1496 2.462 . S
Eu1452 O1497 2.373 . S
Eu1452 O1499 2.432 . S
Eu1452 O1500 2.291 . S
Eu1452 O1504 2.335 . S
Eu1452 O1507 2.372 . S
Eu1452 C1516 2.787 . S
C1453 N1454 1.365 . S
C1453 C1456 1.405 . S
C1453 C1460 1.448 . S
N1454 C1453 1.365 . S
N1454 C1457 1.319 . S
N1454 Eu1463 2.600 . S
C1455 C1457 1.397 . S
C1455 C1458 1.367 . S
C1455 H1475 0.931 . S
C1456 C1453 1.405 . S
C1456 C1458 1.403 . S
C1456 C1462 1.439 . S
C1457 N1454 1.319 . S
C1457 C1455 1.397 . S
C1457 H1468 0.930 . S
C1458 C1455 1.367 . S
C1458 C1456 1.403 . S
C1458 H1479 0.929 . S
C1459 C1460 1.430 . S
C1459 C1461 1.387 . S
C1459 C1465 1.404 . S
C1460 C1453 1.448 . S
C1460 C1459 1.430 . S
C1460 N1464 1.351 . S
C1461 C1459 1.387 . S
C1461 C1462 1.374 . S
C1461 H1476 0.931 . S
C1462 C1456 1.439 . S
C1462 C1461 1.374 . S
C1462 H1477 0.931 . S
Eu1463 N1454 2.600 . S
Eu1463 N1464 2.562 . S
Eu1463 O1498 2.335 . S
Eu1463 O1501 2.372 . S
Eu1463 O1502 2.462 . S
Eu1463 O1503 2.373 . S
Eu1463 O1505 2.432 . S
Eu1463 O1506 2.291 . S
Eu1463 C1527 2.787 . S
N1464 C1460 1.351 . S
N1464 Eu1463 2.562 . S
N1464 C1466 1.325 . S
C1465 C1459 1.404 . S
C1465 C1467 1.366 . S
C1465 H1473 0.930 . S
C1466 N1464 1.325 . S
C1466 C1467 1.416 . S
C1466 H1472 0.929 . S
C1467 C1465 1.366 . S
C1467 C1466 1.416 . S
C1467 H1469 0.930 . S
H1468 C1457 0.930 . S
H1469 C1467 0.930 . S
H1470 C1485 0.930 . S
H1471 C1492 0.930 . S
H1472 C1466 0.929 . S
H1473 C1465 0.930 . S
H1474 C1488 0.929 . S
H1475 C1455 0.931 . S
H1476 C1461 0.931 . S
H1477 C1462 0.931 . S
H1478 C1483 0.931 . S
H1479 C1458 0.929 . S
H1480 C1491 0.930 . S
N1481 Eu1452 2.600 . S
N1481 C1482 1.365 . S
N1481 C1485 1.319 . S
C1482 N1481 1.365 . S
C1482 C1484 1.405 . S
C1482 C1490 1.448 . S
C1483 H1478 0.931 . S
C1483 C1485 1.397 . S
C1483 C1486 1.367 . S
C1484 C1482 1.405 . S
C1484 C1486 1.403 . S
C1484 C1517 1.439 . S
C1485 H1470 0.930 . S
C1485 N1481 1.319 . S
C1485 C1483 1.397 . S
C1486 C1483 1.367 . S
C1486 C1484 1.403 . S
C1486 H1493 0.929 . S
N1487 Eu1452 2.562 . S
N1487 C1488 1.325 . S
N1487 C1490 1.351 . S
C1488 H1474 0.929 . S
C1488 N1487 1.325 . S
C1488 C1492 1.416 . S
C1489 C1490 1.430 . S
C1489 C1491 1.404 . S
C1489 C1518 1.387 . S
C1490 C1482 1.448 . S
C1490 N1487 1.351 . S
C1490 C1489 1.430 . S
C1491 H1480 0.930 . S
C1491 C1489 1.404 . S
C1491 C1492 1.366 . S
C1492 H1471 0.930 . S
C1492 C1488 1.416 . S
C1492 C1491 1.366 . S
H1493 C1486 0.929 . S
H1494 C1517 0.931 . S
H1495 C1518 0.931 . S
O1496 Eu1452 2.462 . S
O1496 C1516 1.252 . S
O1497 Eu1452 2.373 . S
O1497 C1508 1.249 . S
O1498 Eu1463 2.335 . S
O1498 C1508 1.264 . S
O1499 Eu1452 2.432 . S
O1499 C1516 1.268 . S
O1500 Eu1452 2.291 . S
O1500 C1515 1.255 . S
O1501 Eu1463 2.372 . S
O1501 C1515 1.257 . S
O1502 Eu1463 2.462 . S
O1502 C1527 1.252 . S
O1503 Eu1463 2.373 . S
O1503 C1519 1.249 . S
O1504 Eu1452 2.335 . S
O1504 C1519 1.264 . S
O1505 Eu1463 2.432 . S
O1505 C1527 1.268 . S
O1506 Eu1463 2.291 . S
O1506 C1526 1.255 . S
O1507 Eu1452 2.372 . S
O1507 C1526 1.257 . S
C1508 O1497 1.249 . S
C1508 O1498 1.264 . S
C1509 C1512 1.382 . S
C1509 C1514 1.390 . S
C1509 C1516 1.506 . S
C1510 C1511 1.398 . S
C1510 C1514 1.392 . S
C1511 C1510 1.398 . S
C1511 C1513 1.372 . S
C1511 H1528 0.931 . S
C1512 C1509 1.382 . S
C1512 C1513 1.390 . S
C1512 H1529 0.931 . S
C1513 C1511 1.372 . S
C1513 C1512 1.390 . S
C1513 H1530 0.929 . S
C1514 C1509 1.390 . S
C1514 C1510 1.392 . S
C1514 H1531 0.930 . S
C1515 O1500 1.255 . S
C1515 O1501 1.257 . S
C1516 Eu1452 2.787 . S
C1516 O1496 1.252 . S
C1516 O1499 1.268 . S
C1516 C1509 1.506 . S
C1517 C1484 1.439 . S
C1517 H1494 0.931 . S
C1517 C1518 1.374 . S
C1518 C1489 1.387 . S
C1518 H1495 0.931 . S
C1518 C1517 1.374 . S
C1519 O1503 1.249 . S
C1519 O1504 1.264 . S
C1520 C1523 1.382 . S
C1520 C1524 1.390 . S
C1520 C1527 1.506 . S
C1521 C1522 1.398 . S
C1521 C1524 1.392 . S
C1522 C1521 1.398 . S
C1522 C1525 1.372 . S
C1522 H1532 0.931 . S
C1523 C1520 1.382 . S
C1523 C1525 1.390 . S
C1523 H1533 0.931 . S
C1524 C1520 1.390 . S
C1524 C1521 1.392 . S
C1524 H1534 0.930 . S
C1525 C1522 1.372 . S
C1525 C1523 1.390 . S
C1525 H1535 0.929 . S
C1526 O1506 1.255 . S
C1526 O1507 1.257 . S
C1527 Eu1463 2.787 . S
C1527 O1502 1.252 . S
C1527 O1505 1.268 . S
C1527 C1520 1.506 . S
H1528 C1511 0.931 . S
H1529 C1512 0.931 . S
H1530 C1513 0.929 . S
H1531 C1514 0.930 . S
H1532 C1522 0.931 . S
H1533 C1523 0.931 . S
H1534 C1524 0.930 . S
H1535 C1525 0.929 . S
Eu1536 N1565 2.600 1_554 S
Eu1536 N1571 2.562 1_554 S
Eu1536 O1580 2.462 . S
Eu1536 O1581 2.373 1_554 S
Eu1536 O1583 2.432 . S
Eu1536 O1584 2.291 . S
Eu1536 O1588 2.335 . S
Eu1536 O1591 2.372 . S
Eu1536 C1600 2.787 . S
C1537 N1538 1.365 . S
C1537 C1540 1.405 . S
C1537 C1544 1.448 . S
N1538 C1537 1.365 . S
N1538 C1541 1.319 . S
N1538 Eu1547 2.600 . S
C1539 C1541 1.397 . S
C1539 C1542 1.367 . S
C1539 H1559 0.931 . S
C1540 C1537 1.405 . S
C1540 C1542 1.403 . S
C1540 C1546 1.439 . S
C1541 N1538 1.319 . S
C1541 C1539 1.397 . S
C1541 H1552 0.930 . S
C1542 C1539 1.367 . S
C1542 C1540 1.403 . S
C1542 H1563 0.929 . S
C1543 C1544 1.430 . S
C1543 C1545 1.387 . S
C1543 C1549 1.404 . S
C1544 C1537 1.448 . S
C1544 C1543 1.430 . S
C1544 N1548 1.351 . S
C1545 C1543 1.387 . S
C1545 C1546 1.374 . S
C1545 H1560 0.931 . S
C1546 C1540 1.439 . S
C1546 C1545 1.374 . S
C1546 H1561 0.931 . S
Eu1547 N1538 2.600 . S
Eu1547 N1548 2.562 . S
Eu1547 O1582 2.335 1_554 S
Eu1547 O1585 2.372 . S
Eu1547 O1586 2.462 . S
Eu1547 O1587 2.373 . S
Eu1547 O1589 2.432 . S
Eu1547 O1590 2.291 . S
Eu1547 C1611 2.787 . S
N1548 C1544 1.351 . S
N1548 Eu1547 2.562 . S
N1548 C1550 1.325 . S
C1549 C1543 1.404 . S
C1549 C1551 1.366 . S
C1549 H1557 0.930 . S
C1550 N1548 1.325 . S
C1550 C1551 1.416 . S
C1550 H1556 0.929 . S
C1551 C1549 1.366 . S
C1551 C1550 1.416 . S
C1551 H1553 0.930 . S
H1552 C1541 0.930 . S
H1553 C1551 0.930 . S
H1554 C1569 0.930 1_554 S
H1555 C1576 0.930 . S
H1556 C1550 0.929 . S
H1557 C1549 0.930 . S
H1558 C1572 0.929 1_554 S
H1559 C1539 0.931 . S
H1560 C1545 0.931 . S
H1561 C1546 0.931 . S
H1562 C1567 0.931 . S
H1563 C1542 0.929 . S
H1564 C1575 0.930 . S
N1565 Eu1536 2.600 1_556 S
N1565 C1566 1.365 . S
N1565 C1569 1.319 . S
C1566 N1565 1.365 . S
C1566 C1568 1.405 . S
C1566 C1574 1.448 . S
C1567 H1562 0.931 . S
C1567 C1569 1.397 . S
C1567 C1570 1.367 . S
C1568 C1566 1.405 . S
C1568 C1570 1.403 . S
C1568 C1601 1.439 . S
C1569 H1554 0.930 1_556 S
C1569 N1565 1.319 . S
C1569 C1567 1.397 . S
C1570 C1567 1.367 . S
C1570 C1568 1.403 . S
C1570 H1577 0.929 . S
N1571 Eu1536 2.562 1_556 S
N1571 C1572 1.325 . S
N1571 C1574 1.351 . S
C1572 H1558 0.929 1_556 S
C1572 N1571 1.325 . S
C1572 C1576 1.416 . S
C1573 C1574 1.430 . S
C1573 C1575 1.404 . S
C1573 C1602 1.387 . S
C1574 C1566 1.448 . S
C1574 N1571 1.351 . S
C1574 C1573 1.430 . S
C1575 H1564 0.930 . S
C1575 C1573 1.404 . S
C1575 C1576 1.366 . S
C1576 H1555 0.930 . S
C1576 C1572 1.416 . S
C1576 C1575 1.366 . S
H1577 C1570 0.929 . S
H1578 C1601 0.931 . S
H1579 C1602 0.931 . S
O1580 Eu1536 2.462 . S
O1580 C1600 1.252 . S
O1581 Eu1536 2.373 1_556 S
O1581 C1592 1.249 . S
O1582 Eu1547 2.335 1_556 S
O1582 C1592 1.264 . S
O1583 Eu1536 2.432 . S
O1583 C1600 1.268 . S
O1584 Eu1536 2.291 . S
O1584 C1599 1.255 . S
O1585 Eu1547 2.372 . S
O1585 C1599 1.257 . S
O1586 Eu1547 2.462 . S
O1586 C1611 1.252 . S
O1587 Eu1547 2.373 . S
O1587 C1603 1.249 . S
O1588 Eu1536 2.335 . S
O1588 C1603 1.264 . S
O1589 Eu1547 2.432 . S
O1589 C1611 1.268 . S
O1590 Eu1547 2.291 . S
O1590 C1610 1.255 . S
O1591 Eu1536 2.372 . S
O1591 C1610 1.257 . S
C1592 O1581 1.249 . S
C1592 O1582 1.264 . S
C1593 C1596 1.382 . S
C1593 C1598 1.390 . S
C1593 C1600 1.506 . S
C1594 C1595 1.398 . S
C1594 C1598 1.392 . S
C1595 C1594 1.398 . S
C1595 C1597 1.372 . S
C1595 H1612 0.931 . S
C1596 C1593 1.382 . S
C1596 C1597 1.390 . S
C1596 H1613 0.931 . S
C1597 C1595 1.372 . S
C1597 C1596 1.390 . S
C1597 H1614 0.929 . S
C1598 C1593 1.390 . S
C1598 C1594 1.392 . S
C1598 H1615 0.930 . S
C1599 O1584 1.255 . S
C1599 O1585 1.257 . S
C1600 Eu1536 2.787 . S
C1600 O1580 1.252 . S
C1600 O1583 1.268 . S
C1600 C1593 1.506 . S
C1601 C1568 1.439 . S
C1601 H1578 0.931 . S
C1601 C1602 1.374 . S
C1602 C1573 1.387 . S
C1602 H1579 0.931 . S
C1602 C1601 1.374 . S
C1603 O1587 1.249 . S
C1603 O1588 1.264 . S
C1604 C1607 1.382 . S
C1604 C1608 1.390 . S
C1604 C1611 1.506 1_556 S
C1605 C1606 1.398 . S
C1605 C1608 1.392 . S
C1606 C1605 1.398 . S
C1606 C1609 1.372 . S
C1606 H1616 0.931 . S
C1607 C1604 1.382 . S
C1607 C1609 1.390 . S
C1607 H1617 0.931 . S
C1608 C1604 1.390 . S
C1608 C1605 1.392 . S
C1608 H1618 0.930 . S
C1609 C1606 1.372 . S
C1609 C1607 1.390 . S
C1609 H1619 0.929 . S
C1610 O1590 1.255 . S
C1610 O1591 1.257 . S
C1611 Eu1547 2.787 . S
C1611 O1586 1.252 . S
C1611 O1589 1.268 . S
C1611 C1604 1.506 1_554 S
H1612 C1595 0.931 . S
H1613 C1596 0.931 . S
H1614 C1597 0.929 . S
H1615 C1598 0.930 . S
H1616 C1606 0.931 . S
H1617 C1607 0.931 . S
H1618 C1608 0.930 . S
H1619 C1609 0.929 . S
Eu1620 N1649 2.600 . S
Eu1620 N1655 2.562 . S
Eu1620 O1664 2.462 . S
Eu1620 O1665 2.373 . S
Eu1620 O1667 2.432 . S
Eu1620 O1668 2.291 . S
Eu1620 O1672 2.335 . S
Eu1620 O1675 2.372 . S
Eu1620 C1684 2.787 . S
C1621 N1622 1.365 . S
C1621 C1624 1.405 . S
C1621 C1628 1.448 . S
N1622 C1621 1.365 . S
N1622 C1625 1.319 . S
N1622 Eu1631 2.600 . S
C1623 C1625 1.397 . S
C1623 C1626 1.367 . S
C1623 H1643 0.931 . S
C1624 C1621 1.405 . S
C1624 C1626 1.403 . S
C1624 C1630 1.439 . S
C1625 N1622 1.319 . S
C1625 C1623 1.397 . S
C1625 H1636 0.930 . S
C1626 C1623 1.367 . S
C1626 C1624 1.403 . S
C1626 H1647 0.929 . S
C1627 C1628 1.430 . S
C1627 C1629 1.387 . S
C1627 C1633 1.404 . S
C1628 C1621 1.448 . S
C1628 C1627 1.430 . S
C1628 N1632 1.351 . S
C1629 C1627 1.387 . S
C1629 C1630 1.374 . S
C1629 H1644 0.931 . S
C1630 C1624 1.439 . S
C1630 C1629 1.374 . S
C1630 H1645 0.931 . S
Eu1631 N1622 2.600 . S
Eu1631 N1632 2.562 . S
Eu1631 O1666 2.335 . S
Eu1631 O1669 2.372 . S
Eu1631 O1670 2.462 . S
Eu1631 O1671 2.373 . S
Eu1631 O1673 2.432 . S
Eu1631 O1674 2.291 . S
Eu1631 C1695 2.787 . S
N1632 C1628 1.351 . S
N1632 Eu1631 2.562 . S
N1632 C1634 1.325 . S
C1633 C1627 1.404 . S
C1633 C1635 1.366 . S
C1633 H1641 0.930 . S
C1634 N1632 1.325 . S
C1634 C1635 1.416 . S
C1634 H1640 0.929 . S
C1635 C1633 1.366 . S
C1635 C1634 1.416 . S
C1635 H1637 0.930 . S
H1636 C1625 0.930 . S
H1637 C1635 0.930 . S
H1638 C1653 0.930 . S
H1639 C1660 0.930 . S
H1640 C1634 0.929 . S
H1641 C1633 0.930 . S
H1642 C1656 0.929 . S
H1643 C1623 0.931 . S
H1644 C1629 0.931 . S
H1645 C1630 0.931 . S
H1646 C1651 0.931 . S
H1647 C1626 0.929 . S
H1648 C1659 0.930 . S
N1649 Eu1620 2.600 . S
N1649 C1650 1.365 . S
N1649 C1653 1.319 . S
C1650 N1649 1.365 . S
C1650 C1652 1.405 . S
C1650 C1658 1.448 . S
C1651 H1646 0.931 . S
C1651 C1653 1.397 . S
C1651 C1654 1.367 . S
C1652 C1650 1.405 . S
C1652 C1654 1.403 . S
C1652 C1685 1.439 . S
C1653 H1638 0.930 . S
C1653 N1649 1.319 . S
C1653 C1651 1.397 . S
C1654 C1651 1.367 . S
C1654 C1652 1.403 . S
C1654 H1661 0.929 . S
N1655 Eu1620 2.562 . S
N1655 C1656 1.325 . S
N1655 C1658 1.351 . S
C1656 H1642 0.929 . S
C1656 N1655 1.325 . S
C1656 C1660 1.416 . S
C1657 C1658 1.430 . S
C1657 C1659 1.404 . S
C1657 C1686 1.387 . S
C1658 C1650 1.448 . S
C1658 N1655 1.351 . S
C1658 C1657 1.430 . S
C1659 H1648 0.930 . S
C1659 C1657 1.404 . S
C1659 C1660 1.366 . S
C1660 H1639 0.930 . S
C1660 C1656 1.416 . S
C1660 C1659 1.366 . S
H1661 C1654 0.929 . S
H1662 C1685 0.931 . S
H1663 C1686 0.931 . S
O1664 Eu1620 2.462 . S
O1664 C1684 1.252 . S
O1665 Eu1620 2.373 . S
O1665 C1676 1.249 . S
O1666 Eu1631 2.335 . S
O1666 C1676 1.264 . S
O1667 Eu1620 2.432 . S
O1667 C1684 1.268 . S
O1668 Eu1620 2.291 . S
O1668 C1683 1.255 . S
O1669 Eu1631 2.372 . S
O1669 C1683 1.257 . S
O1670 Eu1631 2.462 . S
O1670 C1695 1.252 . S
O1671 Eu1631 2.373 . S
O1671 C1687 1.249 . S
O1672 Eu1620 2.335 . S
O1672 C1687 1.264 . S
O1673 Eu1631 2.432 . S
O1673 C1695 1.268 . S
O1674 Eu1631 2.291 . S
O1674 C1694 1.255 . S
O1675 Eu1620 2.372 . S
O1675 C1694 1.257 . S
C1676 O1665 1.249 . S
C1676 O1666 1.264 . S
C1677 C1680 1.382 . S
C1677 C1682 1.390 . S
C1677 C1684 1.506 . S
C1678 C1679 1.398 . S
C1678 C1682 1.392 . S
C1679 C1678 1.398 . S
C1679 C1681 1.372 . S
C1679 H1696 0.931 . S
C1680 C1677 1.382 . S
C1680 C1681 1.390 . S
C1680 H1697 0.931 . S
C1681 C1679 1.372 . S
C1681 C1680 1.390 . S
C1681 H1698 0.929 . S
C1682 C1677 1.390 . S
C1682 C1678 1.392 . S
C1682 H1699 0.930 . S
C1683 O1668 1.255 . S
C1683 O1669 1.257 . S
C1684 Eu1620 2.787 . S
C1684 O1664 1.252 . S
C1684 O1667 1.268 . S
C1684 C1677 1.506 . S
C1685 C1652 1.439 . S
C1685 H1662 0.931 . S
C1685 C1686 1.374 . S
C1686 C1657 1.387 . S
C1686 H1663 0.931 . S
C1686 C1685 1.374 . S
C1687 O1671 1.249 . S
C1687 O1672 1.264 . S
C1688 C1691 1.382 . S
C1688 C1692 1.390 . S
C1688 C1695 1.506 . S
C1689 C1690 1.398 . S
C1689 C1692 1.392 . S
C1690 C1689 1.398 . S
C1690 C1693 1.372 . S
C1690 H1700 0.931 . S
C1691 C1688 1.382 . S
C1691 C1693 1.390 . S
C1691 H1701 0.931 . S
C1692 C1688 1.390 . S
C1692 C1689 1.392 . S
C1692 H1702 0.930 . S
C1693 C1690 1.372 . S
C1693 C1691 1.390 . S
C1693 H1703 0.929 . S
C1694 O1674 1.255 . S
C1694 O1675 1.257 . S
C1695 Eu1631 2.787 . S
C1695 O1670 1.252 . S
C1695 O1673 1.268 . S
C1695 C1688 1.506 . S
H1696 C1679 0.931 . S
H1697 C1680 0.931 . S
H1698 C1681 0.929 . S
H1699 C1682 0.930 . S
H1700 C1690 0.931 . S
H1701 C1691 0.931 . S
H1702 C1692 0.930 . S
H1703 C1693 0.929 . S
Eu1704 N1733 2.603 . S
Eu1704 N1739 2.562 1_455 S
Eu1704 O1748 2.462 . S
Eu1704 O1749 2.373 1_455 S
Eu1704 O1751 2.432 . S
Eu1704 O1752 2.291 . S
Eu1704 O1756 2.335 . S
Eu1704 O1759 2.372 . S
Eu1704 C1768 2.787 . S
C1705 N1706 1.365 . S
C1705 C1708 1.405 . S
C1705 C1712 1.448 . S
N1706 C1705 1.365 . S
N1706 C1709 1.319 . S
N1706 Eu1715 2.600 . S
C1707 C1709 1.397 . S
C1707 C1710 1.367 . S
C1707 H1727 0.931 . S
C1708 C1705 1.405 . S
C1708 C1710 1.403 . S
C1708 C1714 1.439 . S
C1709 N1706 1.319 . S
C1709 C1707 1.397 . S
C1709 H1720 0.930 . S
C1710 C1707 1.367 . S
C1710 C1708 1.403 . S
C1710 H1731 0.929 . S
C1711 C1712 1.430 . S
C1711 C1713 1.387 . S
C1711 C1717 1.404 . S
C1712 C1705 1.448 . S
C1712 C1711 1.430 . S
C1712 N1716 1.351 . S
C1713 C1711 1.387 . S
C1713 C1714 1.374 . S
C1713 H1728 0.931 . S
C1714 C1708 1.439 . S
C1714 C1713 1.374 . S
C1714 H1729 0.931 . S
Eu1715 N1706 2.600 . S
Eu1715 N1716 2.562 . S
Eu1715 O1750 2.335 1_455 S
Eu1715 O1753 2.372 . S
Eu1715 O1754 2.462 . S
Eu1715 O1755 2.373 . S
Eu1715 O1757 2.432 . S
Eu1715 O1758 2.291 . S
Eu1715 C1779 2.787 . S
N1716 C1712 1.351 . S
N1716 Eu1715 2.562 . S
N1716 C1718 1.325 . S
C1717 C1711 1.404 . S
C1717 C1719 1.366 . S
C1717 H1725 0.930 . S
C1718 N1716 1.325 . S
C1718 C1719 1.416 . S
C1718 H1724 0.929 . S
C1719 C1717 1.366 . S
C1719 C1718 1.416 . S
C1719 H1721 0.930 . S
H1720 C1709 0.930 . S
H1721 C1719 0.930 . S
H1722 C1737 0.930 . S
H1723 C1744 0.930 . S
H1724 C1718 0.929 . S
H1725 C1717 0.930 . S
H1726 C1740 0.929 1_455 S
H1727 C1707 0.931 . S
H1728 C1713 0.931 . S
H1729 C1714 0.931 . S
H1730 C1735 0.931 . S
H1731 C1710 0.929 . S
H1732 C1743 0.930 . S
N1733 Eu1704 2.603 . S
N1733 C1734 1.362 1_455 S
N1733 C1737 1.318 . S
C1734 N1733 1.362 1_655 S
C1734 C1736 1.405 . S
C1734 C1742 1.448 . S
C1735 H1730 0.931 . S
C1735 C1737 1.397 1_655 S
C1735 C1738 1.367 . S
C1736 C1734 1.405 . S
C1736 C1738 1.403 . S
C1736 C1769 1.439 . S
C1737 H1722 0.930 . S
C1737 N1733 1.318 . S
C1737 C1735 1.397 1_455 S
C1738 C1735 1.367 . S
C1738 C1736 1.403 . S
C1738 H1745 0.929 . S
N1739 Eu1704 2.562 1_655 S
N1739 C1740 1.325 . S
N1739 C1742 1.351 . S
C1740 H1726 0.929 1_655 S
C1740 N1739 1.325 . S
C1740 C1744 1.416 . S
C1741 C1742 1.430 . S
C1741 C1743 1.404 . S
C1741 C1770 1.387 . S
C1742 C1734 1.448 . S
C1742 N1739 1.351 . S
C1742 C1741 1.430 . S
C1743 H1732 0.930 . S
C1743 C1741 1.404 . S
C1743 C1744 1.366 . S
C1744 H1723 0.930 . S
C1744 C1740 1.416 . S
C1744 C1743 1.366 . S
H1745 C1738 0.929 . S
H1746 C1769 0.931 . S
H1747 C1770 0.931 . S
O1748 Eu1704 2.462 . S
O1748 C1768 1.252 . S
O1749 Eu1704 2.373 1_655 S
O1749 C1760 1.249 . S
O1750 Eu1715 2.335 1_655 S
O1750 C1760 1.264 . S
O1751 Eu1704 2.432 . S
O1751 C1768 1.268 . S
O1752 Eu1704 2.291 . S
O1752 C1767 1.255 . S
O1753 Eu1715 2.372 . S
O1753 C1767 1.257 . S
O1754 Eu1715 2.462 . S
O1754 C1779 1.252 . S
O1755 Eu1715 2.373 . S
O1755 C1771 1.249 . S
O1756 Eu1704 2.335 . S
O1756 C1771 1.264 . S
O1757 Eu1715 2.432 . S
O1757 C1779 1.268 . S
O1758 Eu1715 2.291 . S
O1758 C1778 1.255 . S
O1759 Eu1704 2.372 . S
O1759 C1778 1.257 . S
C1760 O1749 1.249 . S
C1760 O1750 1.264 . S
C1761 C1764 1.382 . S
C1761 C1766 1.390 . S
C1761 C1768 1.506 . S
C1762 C1763 1.398 . S
C1762 C1766 1.392 . S
C1763 C1762 1.398 . S
C1763 C1765 1.372 . S
C1763 H1780 0.931 . S
C1764 C1761 1.382 . S
C1764 C1765 1.390 . S
C1764 H1781 0.931 . S
C1765 C1763 1.372 . S
C1765 C1764 1.390 . S
C1765 H1782 0.929 . S
C1766 C1761 1.390 . S
C1766 C1762 1.392 . S
C1766 H1783 0.930 . S
C1767 O1752 1.255 . S
C1767 O1753 1.257 . S
C1768 Eu1704 2.787 . S
C1768 O1748 1.252 . S
C1768 O1751 1.268 . S
C1768 C1761 1.506 . S
C1769 C1736 1.439 . S
C1769 H1746 0.931 . S
C1769 C1770 1.374 . S
C1770 C1741 1.387 . S
C1770 H1747 0.931 . S
C1770 C1769 1.374 . S
C1771 O1755 1.249 . S
C1771 O1756 1.264 . S
C1772 C1775 1.382 . S
C1772 C1776 1.390 . S
C1772 C1779 1.506 1_655 S
C1773 C1774 1.398 . S
C1773 C1776 1.392 . S
C1774 C1773 1.398 . S
C1774 C1777 1.372 . S
C1774 H1784 0.931 . S
C1775 C1772 1.382 . S
C1775 C1777 1.390 . S
C1775 H1785 0.931 . S
C1776 C1772 1.390 . S
C1776 C1773 1.392 . S
C1776 H1786 0.930 . S
C1777 C1774 1.372 . S
C1777 C1775 1.390 . S
C1777 H1787 0.929 . S
C1778 O1758 1.255 . S
C1778 O1759 1.257 . S
C1779 Eu1715 2.787 . S
C1779 O1754 1.252 . S
C1779 O1757 1.268 . S
C1779 C1772 1.506 1_455 S
H1780 C1763 0.931 . S
H1781 C1764 0.931 . S
H1782 C1765 0.929 . S
H1783 C1766 0.930 . S
H1784 C1774 0.931 . S
H1785 C1775 0.931 . S
H1786 C1776 0.930 . S
H1787 C1777 0.929 . S
Eu1788 N1817 2.600 . S
Eu1788 N1823 2.562 . S
Eu1788 O1832 2.462 . S
Eu1788 O1833 2.373 . S
Eu1788 O1835 2.432 . S
Eu1788 O1836 2.291 . S
Eu1788 O1840 2.335 . S
Eu1788 O1843 2.372 . S
Eu1788 C1852 2.787 . S
C1789 N1790 1.365 . S
C1789 C1792 1.405 . S
C1789 C1796 1.448 . S
N1790 C1789 1.365 . S
N1790 C1793 1.319 . S
N1790 Eu1799 2.600 . S
C1791 C1793 1.397 . S
C1791 C1794 1.367 . S
C1791 H1811 0.931 . S
C1792 C1789 1.405 . S
C1792 C1794 1.403 . S
C1792 C1798 1.439 . S
C1793 N1790 1.319 . S
C1793 C1791 1.397 . S
C1793 H1804 0.930 . S
C1794 C1791 1.367 . S
C1794 C1792 1.403 . S
C1794 H1815 0.929 . S
C1795 C1796 1.430 . S
C1795 C1797 1.387 . S
C1795 C1801 1.404 . S
C1796 C1789 1.448 . S
C1796 C1795 1.430 . S
C1796 N1800 1.351 . S
C1797 C1795 1.387 . S
C1797 C1798 1.374 . S
C1797 H1812 0.931 . S
C1798 C1792 1.439 . S
C1798 C1797 1.374 . S
C1798 H1813 0.931 . S
Eu1799 N1790 2.600 . S
Eu1799 N1800 2.562 . S
Eu1799 O1834 2.335 . S
Eu1799 O1837 2.372 . S
Eu1799 O1838 2.462 . S
Eu1799 O1839 2.373 . S
Eu1799 O1841 2.432 . S
Eu1799 O1842 2.291 . S
Eu1799 C1863 2.787 . S
N1800 C1796 1.351 . S
N1800 Eu1799 2.562 . S
N1800 C1802 1.325 . S
C1801 C1795 1.404 . S
C1801 C1803 1.366 . S
C1801 H1809 0.930 . S
C1802 N1800 1.325 . S
C1802 C1803 1.416 . S
C1802 H1808 0.929 . S
C1803 C1801 1.366 . S
C1803 C1802 1.416 . S
C1803 H1805 0.930 . S
H1804 C1793 0.930 . S
H1805 C1803 0.930 . S
H1806 C1821 0.930 . S
H1807 C1828 0.930 . S
H1808 C1802 0.929 . S
H1809 C1801 0.930 . S
H1810 C1824 0.929 . S
H1811 C1791 0.931 . S
H1812 C1797 0.931 . S
H1813 C1798 0.931 . S
H1814 C1819 0.931 . S
H1815 C1794 0.929 . S
H1816 C1827 0.930 . S
N1817 Eu1788 2.600 . S
N1817 C1818 1.365 . S
N1817 C1821 1.319 . S
C1818 N1817 1.365 . S
C1818 C1820 1.405 . S
C1818 C1826 1.448 . S
C1819 H1814 0.931 . S
C1819 C1821 1.397 . S
C1819 C1822 1.367 . S
C1820 C1818 1.405 . S
C1820 C1822 1.403 . S
C1820 C1853 1.439 . S
C1821 H1806 0.930 . S
C1821 N1817 1.319 . S
C1821 C1819 1.397 . S
C1822 C1819 1.367 . S
C1822 C1820 1.403 . S
C1822 H1829 0.929 . S
N1823 Eu1788 2.562 . S
N1823 C1824 1.325 . S
N1823 C1826 1.351 . S
C1824 H1810 0.929 . S
C1824 N1823 1.325 . S
C1824 C1828 1.416 . S
C1825 C1826 1.430 . S
C1825 C1827 1.404 . S
C1825 C1854 1.387 . S
C1826 C1818 1.448 . S
C1826 N1823 1.351 . S
C1826 C1825 1.430 . S
C1827 H1816 0.930 . S
C1827 C1825 1.404 . S
C1827 C1828 1.366 . S
C1828 H1807 0.930 . S
C1828 C1824 1.416 . S
C1828 C1827 1.366 . S
H1829 C1822 0.929 . S
H1830 C1853 0.931 . S
H1831 C1854 0.931 . S
O1832 Eu1788 2.462 . S
O1832 C1852 1.252 . S
O1833 Eu1788 2.373 . S
O1833 C1844 1.249 . S
O1834 Eu1799 2.335 . S
O1834 C1844 1.264 . S
O1835 Eu1788 2.432 . S
O1835 C1852 1.268 . S
O1836 Eu1788 2.291 . S
O1836 C1851 1.255 . S
O1837 Eu1799 2.372 . S
O1837 C1851 1.257 . S
O1838 Eu1799 2.462 . S
O1838 C1863 1.252 . S
O1839 Eu1799 2.373 . S
O1839 C1855 1.249 . S
O1840 Eu1788 2.335 . S
O1840 C1855 1.264 . S
O1841 Eu1799 2.432 . S
O1841 C1863 1.268 . S
O1842 Eu1799 2.291 . S
O1842 C1862 1.255 . S
O1843 Eu1788 2.372 . S
O1843 C1862 1.257 . S
C1844 O1833 1.249 . S
C1844 O1834 1.264 . S
C1845 C1848 1.382 . S
C1845 C1850 1.390 . S
C1845 C1852 1.506 . S
C1846 C1847 1.398 . S
C1846 C1850 1.392 . S
C1847 C1846 1.398 . S
C1847 C1849 1.372 . S
C1847 H1864 0.931 . S
C1848 C1845 1.382 . S
C1848 C1849 1.390 . S
C1848 H1865 0.931 . S
C1849 C1847 1.372 . S
C1849 C1848 1.390 . S
C1849 H1866 0.929 . S
C1850 C1845 1.390 . S
C1850 C1846 1.392 . S
C1850 H1867 0.930 . S
C1851 O1836 1.255 . S
C1851 O1837 1.257 . S
C1852 Eu1788 2.787 . S
C1852 O1832 1.252 . S
C1852 O1835 1.268 . S
C1852 C1845 1.506 . S
C1853 C1820 1.439 . S
C1853 H1830 0.931 . S
C1853 C1854 1.374 . S
C1854 C1825 1.387 . S
C1854 H1831 0.931 . S
C1854 C1853 1.374 . S
C1855 O1839 1.249 . S
C1855 O1840 1.264 . S
C1856 C1859 1.382 . S
C1856 C1860 1.390 . S
C1856 C1863 1.506 . S
C1857 C1858 1.398 . S
C1857 C1860 1.392 . S
C1858 C1857 1.398 . S
C1858 C1861 1.372 . S
C1858 H1868 0.931 . S
C1859 C1856 1.382 . S
C1859 C1861 1.390 . S
C1859 H1869 0.931 . S
C1860 C1856 1.390 . S
C1860 C1857 1.392 . S
C1860 H1870 0.930 . S
C1861 C1858 1.372 . S
C1861 C1859 1.390 . S
C1861 H1871 0.929 . S
C1862 O1842 1.255 . S
C1862 O1843 1.257 . S
C1863 Eu1799 2.787 . S
C1863 O1838 1.252 . S
C1863 O1841 1.268 . S
C1863 C1856 1.506 . S
H1864 C1847 0.931 . S
H1865 C1848 0.931 . S
H1866 C1849 0.929 . S
H1867 C1850 0.930 . S
H1868 C1858 0.931 . S
H1869 C1859 0.931 . S
H1870 C1860 0.930 . S
H1871 C1861 0.929 . S
Eu1872 N1901 2.600 . S
Eu1872 N1907 2.562 . S
Eu1872 O1916 2.462 . S
Eu1872 O1917 2.373 . S
Eu1872 O1919 2.432 . S
Eu1872 O1920 2.291 . S
Eu1872 O1924 2.335 . S
Eu1872 O1927 2.372 . S
Eu1872 C1936 2.787 . S
C1873 N1874 1.365 . S
C1873 C1876 1.405 . S
C1873 C1880 1.448 . S
N1874 C1873 1.365 . S
N1874 C1877 1.319 . S
N1874 Eu1883 2.600 . S
C1875 C1877 1.397 . S
C1875 C1878 1.367 . S
C1875 H1895 0.931 . S
C1876 C1873 1.405 . S
C1876 C1878 1.403 . S
C1876 C1882 1.439 . S
C1877 N1874 1.319 . S
C1877 C1875 1.397 . S
C1877 H1888 0.930 . S
C1878 C1875 1.367 . S
C1878 C1876 1.403 . S
C1878 H1899 0.929 . S
C1879 C1880 1.430 . S
C1879 C1881 1.387 . S
C1879 C1885 1.404 . S
C1880 C1873 1.448 . S
C1880 C1879 1.430 . S
C1880 N1884 1.351 . S
C1881 C1879 1.387 . S
C1881 C1882 1.374 . S
C1881 H1896 0.931 . S
C1882 C1876 1.439 . S
C1882 C1881 1.374 . S
C1882 H1897 0.931 . S
Eu1883 N1874 2.600 . S
Eu1883 N1884 2.562 . S
Eu1883 O1918 2.335 . S
Eu1883 O1921 2.372 . S
Eu1883 O1922 2.462 . S
Eu1883 O1923 2.373 . S
Eu1883 O1925 2.432 . S
Eu1883 O1926 2.291 . S
Eu1883 C1947 2.787 . S
N1884 C1880 1.351 . S
N1884 Eu1883 2.562 . S
N1884 C1886 1.325 . S
C1885 C1879 1.404 . S
C1885 C1887 1.366 . S
C1885 H1893 0.930 . S
C1886 N1884 1.325 . S
C1886 C1887 1.416 . S
C1886 H1892 0.929 . S
C1887 C1885 1.366 . S
C1887 C1886 1.416 . S
C1887 H1889 0.930 . S
H1888 C1877 0.930 . S
H1889 C1887 0.930 . S
H1890 C1905 0.930 . S
H1891 C1912 0.930 . S
H1892 C1886 0.929 . S
H1893 C1885 0.930 . S
H1894 C1908 0.929 . S
H1895 C1875 0.931 . S
H1896 C1881 0.931 . S
H1897 C1882 0.931 . S
H1898 C1903 0.931 . S
H1899 C1878 0.929 . S
H1900 C1911 0.930 . S
N1901 Eu1872 2.600 . S
N1901 C1902 1.365 . S
N1901 C1905 1.319 . S
C1902 N1901 1.365 . S
C1902 C1904 1.405 . S
C1902 C1910 1.448 . S
C1903 H1898 0.931 . S
C1903 C1905 1.397 . S
C1903 C1906 1.367 . S
C1904 C1902 1.405 . S
C1904 C1906 1.403 . S
C1904 C1937 1.439 . S
C1905 H1890 0.930 . S
C1905 N1901 1.319 . S
C1905 C1903 1.397 . S
C1906 C1903 1.367 . S
C1906 C1904 1.403 . S
C1906 H1913 0.929 . S
N1907 Eu1872 2.562 . S
N1907 C1908 1.325 . S
N1907 C1910 1.351 . S
C1908 H1894 0.929 . S
C1908 N1907 1.325 . S
C1908 C1912 1.416 . S
C1909 C1910 1.430 . S
C1909 C1911 1.404 . S
C1909 C1938 1.387 . S
C1910 C1902 1.448 . S
C1910 N1907 1.351 . S
C1910 C1909 1.430 . S
C1911 H1900 0.930 . S
C1911 C1909 1.404 . S
C1911 C1912 1.366 . S
C1912 H1891 0.930 . S
C1912 C1908 1.416 . S
C1912 C1911 1.366 . S
H1913 C1906 0.929 . S
H1914 C1937 0.931 . S
H1915 C1938 0.931 . S
O1916 Eu1872 2.462 . S
O1916 C1936 1.252 . S
O1917 Eu1872 2.373 . S
O1917 C1928 1.249 . S
O1918 Eu1883 2.335 . S
O1918 C1928 1.264 . S
O1919 Eu1872 2.432 . S
O1919 C1936 1.268 . S
O1920 Eu1872 2.291 . S
O1920 C1935 1.255 . S
O1921 Eu1883 2.372 . S
O1921 C1935 1.257 . S
O1922 Eu1883 2.462 . S
O1922 C1947 1.252 . S
O1923 Eu1883 2.373 . S
O1923 C1939 1.249 . S
O1924 Eu1872 2.335 . S
O1924 C1939 1.264 . S
O1925 Eu1883 2.432 . S
O1925 C1947 1.268 . S
O1926 Eu1883 2.291 . S
O1926 C1946 1.255 . S
O1927 Eu1872 2.372 . S
O1927 C1946 1.257 . S
C1928 O1917 1.249 . S
C1928 O1918 1.264 . S
C1929 C1932 1.382 . S
C1929 C1934 1.390 . S
C1929 C1936 1.506 . S
C1930 C1931 1.398 . S
C1930 C1934 1.392 . S
C1931 C1930 1.398 . S
C1931 C1933 1.372 . S
C1931 H1948 0.931 . S
C1932 C1929 1.382 . S
C1932 C1933 1.390 . S
C1932 H1949 0.931 . S
C1933 C1931 1.372 . S
C1933 C1932 1.390 . S
C1933 H1950 0.929 . S
C1934 C1929 1.390 . S
C1934 C1930 1.392 . S
C1934 H1951 0.930 . S
C1935 O1920 1.255 . S
C1935 O1921 1.257 . S
C1936 Eu1872 2.787 . S
C1936 O1916 1.252 . S
C1936 O1919 1.268 . S
C1936 C1929 1.506 . S
C1937 C1904 1.439 . S
C1937 H1914 0.931 . S
C1937 C1938 1.374 . S
C1938 C1909 1.387 . S
C1938 H1915 0.931 . S
C1938 C1937 1.374 . S
C1939 O1923 1.249 . S
C1939 O1924 1.264 . S
C1940 C1943 1.382 . S
C1940 C1944 1.390 . S
C1940 C1947 1.506 . S
C1941 C1942 1.398 . S
C1941 C1944 1.392 . S
C1942 C1941 1.398 . S
C1942 C1945 1.372 . S
C1942 H1952 0.931 . S
C1943 C1940 1.382 . S
C1943 C1945 1.390 . S
C1943 H1953 0.931 . S
C1944 C1940 1.390 . S
C1944 C1941 1.392 . S
C1944 H1954 0.930 . S
C1945 C1942 1.372 . S
C1945 C1943 1.390 . S
C1945 H1955 0.929 . S
C1946 O1926 1.255 . S
C1946 O1927 1.257 . S
C1947 Eu1883 2.787 . S
C1947 O1922 1.252 . S
C1947 O1925 1.268 . S
C1947 C1940 1.506 . S
H1948 C1931 0.931 . S
H1949 C1932 0.931 . S
H1950 C1933 0.929 . S
H1951 C1934 0.930 . S
H1952 C1942 0.931 . S
H1953 C1943 0.931 . S
H1954 C1944 0.930 . S
H1955 C1945 0.929 . S
Eu1956 N1985 2.600 . S
Eu1956 N1991 2.562 . S
Eu1956 O2000 2.462 . S
Eu1956 O2001 2.373 . S
Eu1956 O2003 2.432 . S
Eu1956 O2004 2.291 . S
Eu1956 O2008 2.335 . S
Eu1956 O2011 2.372 . S
Eu1956 C2020 2.787 . S
C1957 N1958 1.365 . S
C1957 C1960 1.405 . S
C1957 C1964 1.448 . S
N1958 C1957 1.365 . S
N1958 C1961 1.319 . S
N1958 Eu1967 2.600 . S
C1959 C1961 1.397 . S
C1959 C1962 1.367 . S
C1959 H1979 0.931 . S
C1960 C1957 1.405 . S
C1960 C1962 1.403 . S
C1960 C1966 1.439 . S
C1961 N1958 1.319 . S
C1961 C1959 1.397 . S
C1961 H1972 0.930 . S
C1962 C1959 1.367 . S
C1962 C1960 1.403 . S
C1962 H1983 0.929 . S
C1963 C1964 1.430 . S
C1963 C1965 1.387 . S
C1963 C1969 1.404 . S
C1964 C1957 1.448 . S
C1964 C1963 1.430 . S
C1964 N1968 1.351 . S
C1965 C1963 1.387 . S
C1965 C1966 1.374 . S
C1965 H1980 0.931 . S
C1966 C1960 1.439 . S
C1966 C1965 1.374 . S
C1966 H1981 0.931 . S
Eu1967 N1958 2.600 . S
Eu1967 N1968 2.562 . S
Eu1967 O2002 2.335 . S
Eu1967 O2005 2.372 . S
Eu1967 O2006 2.462 . S
Eu1967 O2007 2.373 . S
Eu1967 O2009 2.432 . S
Eu1967 O2010 2.291 . S
Eu1967 C2031 2.787 . S
N1968 C1964 1.351 . S
N1968 Eu1967 2.562 . S
N1968 C1970 1.325 . S
C1969 C1963 1.404 . S
C1969 C1971 1.366 . S
C1969 H1977 0.930 . S
C1970 N1968 1.325 . S
C1970 C1971 1.416 . S
C1970 H1976 0.929 . S
C1971 C1969 1.366 . S
C1971 C1970 1.416 . S
C1971 H1973 0.930 . S
H1972 C1961 0.930 . S
H1973 C1971 0.930 . S
H1974 C1989 0.930 . S
H1975 C1996 0.930 . S
H1976 C1970 0.929 . S
H1977 C1969 0.930 . S
H1978 C1992 0.929 . S
H1979 C1959 0.931 . S
H1980 C1965 0.931 . S
H1981 C1966 0.931 . S
H1982 C1987 0.931 . S
H1983 C1962 0.929 . S
H1984 C1995 0.930 . S
N1985 Eu1956 2.600 . S
N1985 C1986 1.365 . S
N1985 C1989 1.319 . S
C1986 N1985 1.365 . S
C1986 C1988 1.405 . S
C1986 C1994 1.448 . S
C1987 H1982 0.931 . S
C1987 C1989 1.397 . S
C1987 C1990 1.367 . S
C1988 C1986 1.405 . S
C1988 C1990 1.403 . S
C1988 C2021 1.439 . S
C1989 H1974 0.930 . S
C1989 N1985 1.319 . S
C1989 C1987 1.397 . S
C1990 C1987 1.367 . S
C1990 C1988 1.403 . S
C1990 H1997 0.929 . S
N1991 Eu1956 2.562 . S
N1991 C1992 1.325 . S
N1991 C1994 1.351 . S
C1992 H1978 0.929 . S
C1992 N1991 1.325 . S
C1992 C1996 1.416 . S
C1993 C1994 1.430 . S
C1993 C1995 1.404 . S
C1993 C2022 1.387 . S
C1994 C1986 1.448 . S
C1994 N1991 1.351 . S
C1994 C1993 1.430 . S
C1995 H1984 0.930 . S
C1995 C1993 1.404 . S
C1995 C1996 1.366 . S
C1996 H1975 0.930 . S
C1996 C1992 1.416 . S
C1996 C1995 1.366 . S
H1997 C1990 0.929 . S
H1998 C2021 0.931 . S
H1999 C2022 0.931 . S
O2000 Eu1956 2.462 . S
O2000 C2020 1.252 . S
O2001 Eu1956 2.373 . S
O2001 C2012 1.249 . S
O2002 Eu1967 2.335 . S
O2002 C2012 1.264 . S
O2003 Eu1956 2.432 . S
O2003 C2020 1.268 . S
O2004 Eu1956 2.291 . S
O2004 C2019 1.255 . S
O2005 Eu1967 2.372 . S
O2005 C2019 1.257 . S
O2006 Eu1967 2.462 . S
O2006 C2031 1.252 . S
O2007 Eu1967 2.373 . S
O2007 C2023 1.249 . S
O2008 Eu1956 2.335 . S
O2008 C2023 1.264 . S
O2009 Eu1967 2.432 . S
O2009 C2031 1.268 . S
O2010 Eu1967 2.291 . S
O2010 C2030 1.255 . S
O2011 Eu1956 2.372 . S
O2011 C2030 1.257 . S
C2012 O2001 1.249 . S
C2012 O2002 1.264 . S
C2013 C2016 1.382 . S
C2013 C2018 1.390 . S
C2013 C2020 1.506 . S
C2014 C2015 1.398 . S
C2014 C2018 1.392 . S
C2015 C2014 1.398 . S
C2015 C2017 1.372 . S
C2015 H2032 0.931 . S
C2016 C2013 1.382 . S
C2016 C2017 1.390 . S
C2016 H2033 0.931 . S
C2017 C2015 1.372 . S
C2017 C2016 1.390 . S
C2017 H2034 0.929 . S
C2018 C2013 1.390 . S
C2018 C2014 1.392 . S
C2018 H2035 0.930 . S
C2019 O2004 1.255 . S
C2019 O2005 1.257 . S
C2020 Eu1956 2.787 . S
C2020 O2000 1.252 . S
C2020 O2003 1.268 . S
C2020 C2013 1.506 . S
C2021 C1988 1.439 . S
C2021 H1998 0.931 . S
C2021 C2022 1.374 . S
C2022 C1993 1.387 . S
C2022 H1999 0.931 . S
C2022 C2021 1.374 . S
C2023 O2007 1.249 . S
C2023 O2008 1.264 . S
C2024 C2027 1.382 . S
C2024 C2028 1.390 . S
C2024 C2031 1.506 . S
C2025 C2026 1.398 . S
C2025 C2028 1.392 . S
C2026 C2025 1.398 . S
C2026 C2029 1.372 . S
C2026 H2036 0.931 . S
C2027 C2024 1.382 . S
C2027 C2029 1.390 . S
C2027 H2037 0.931 . S
C2028 C2024 1.390 . S
C2028 C2025 1.392 . S
C2028 H2038 0.930 . S
C2029 C2026 1.372 . S
C2029 C2027 1.390 . S
C2029 H2039 0.929 . S
C2030 O2010 1.255 . S
C2030 O2011 1.257 . S
C2031 Eu1967 2.787 . S
C2031 O2006 1.252 . S
C2031 O2009 1.268 . S
C2031 C2024 1.506 . S
H2032 C2015 0.931 . S
H2033 C2016 0.931 . S
H2034 C2017 0.929 . S
H2035 C2018 0.930 . S
H2036 C2026 0.931 . S
H2037 C2027 0.931 . S
H2038 C2028 0.930 . S
H2039 C2029 0.929 . S
Eu2040 N2069 2.600 . S
Eu2040 N2075 2.562 . S
Eu2040 O2084 2.462 . S
Eu2040 O2085 2.373 . S
Eu2040 O2087 2.432 . S
Eu2040 O2088 2.291 . S
Eu2040 O2092 2.335 . S
Eu2040 O2095 2.372 . S
Eu2040 C2104 2.787 . S
C2041 N2042 1.365 . S
C2041 C2044 1.405 . S
C2041 C2048 1.448 . S
N2042 C2041 1.365 . S
N2042 C2045 1.319 . S
N2042 Eu2051 2.600 . S
C2043 C2045 1.397 . S
C2043 C2046 1.367 . S
C2043 H2063 0.931 . S
C2044 C2041 1.405 . S
C2044 C2046 1.403 . S
C2044 C2050 1.439 . S
C2045 N2042 1.319 . S
C2045 C2043 1.397 . S
C2045 H2056 0.930 . S
C2046 C2043 1.367 . S
C2046 C2044 1.403 . S
C2046 H2067 0.929 . S
C2047 C2048 1.430 . S
C2047 C2049 1.387 . S
C2047 C2053 1.404 . S
C2048 C2041 1.448 . S
C2048 C2047 1.430 . S
C2048 N2052 1.351 . S
C2049 C2047 1.387 . S
C2049 C2050 1.374 . S
C2049 H2064 0.931 . S
C2050 C2044 1.439 . S
C2050 C2049 1.374 . S
C2050 H2065 0.931 . S
Eu2051 N2042 2.600 . S
Eu2051 N2052 2.562 . S
Eu2051 O2086 2.335 . S
Eu2051 O2089 2.372 . S
Eu2051 O2090 2.462 . S
Eu2051 O2091 2.373 . S
Eu2051 O2093 2.432 . S
Eu2051 O2094 2.291 . S
Eu2051 C2115 2.787 . S
N2052 C2048 1.351 . S
N2052 Eu2051 2.562 . S
N2052 C2054 1.325 . S
C2053 C2047 1.404 . S
C2053 C2055 1.366 . S
C2053 H2061 0.930 . S
C2054 N2052 1.325 . S
C2054 C2055 1.416 . S
C2054 H2060 0.929 . S
C2055 C2053 1.366 . S
C2055 C2054 1.416 . S
C2055 H2057 0.930 . S
H2056 C2045 0.930 . S
H2057 C2055 0.930 . S
H2058 C2073 0.930 . S
H2059 C2080 0.930 . S
H2060 C2054 0.929 . S
H2061 C2053 0.930 . S
H2062 C2076 0.929 . S
H2063 C2043 0.931 . S
H2064 C2049 0.931 . S
H2065 C2050 0.931 . S
H2066 C2071 0.931 . S
H2067 C2046 0.929 . S
H2068 C2079 0.930 . S
N2069 Eu2040 2.600 . S
N2069 C2070 1.365 . S
N2069 C2073 1.319 . S
C2070 N2069 1.365 . S
C2070 C2072 1.405 . S
C2070 C2078 1.448 . S
C2071 H2066 0.931 . S
C2071 C2073 1.397 . S
C2071 C2074 1.367 . S
C2072 C2070 1.405 . S
C2072 C2074 1.403 . S
C2072 C2105 1.439 . S
C2073 H2058 0.930 . S
C2073 N2069 1.319 . S
C2073 C2071 1.397 . S
C2074 C2071 1.367 . S
C2074 C2072 1.403 . S
C2074 H2081 0.929 . S
N2075 Eu2040 2.562 . S
N2075 C2076 1.325 . S
N2075 C2078 1.351 . S
C2076 H2062 0.929 . S
C2076 N2075 1.325 . S
C2076 C2080 1.416 . S
C2077 C2078 1.430 . S
C2077 C2079 1.404 . S
C2077 C2106 1.387 . S
C2078 C2070 1.448 . S
C2078 N2075 1.351 . S
C2078 C2077 1.430 . S
C2079 H2068 0.930 . S
C2079 C2077 1.404 . S
C2079 C2080 1.366 . S
C2080 H2059 0.930 . S
C2080 C2076 1.416 . S
C2080 C2079 1.366 . S
H2081 C2074 0.929 . S
H2082 C2105 0.931 . S
H2083 C2106 0.931 . S
O2084 Eu2040 2.462 . S
O2084 C2104 1.252 . S
O2085 Eu2040 2.373 . S
O2085 C2096 1.249 . S
O2086 Eu2051 2.335 . S
O2086 C2096 1.264 . S
O2087 Eu2040 2.432 . S
O2087 C2104 1.268 . S
O2088 Eu2040 2.291 . S
O2088 C2103 1.255 . S
O2089 Eu2051 2.372 . S
O2089 C2103 1.257 . S
O2090 Eu2051 2.462 . S
O2090 C2115 1.252 . S
O2091 Eu2051 2.373 . S
O2091 C2107 1.249 . S
O2092 Eu2040 2.335 . S
O2092 C2107 1.264 . S
O2093 Eu2051 2.432 . S
O2093 C2115 1.268 . S
O2094 Eu2051 2.291 . S
O2094 C2114 1.255 . S
O2095 Eu2040 2.372 . S
O2095 C2114 1.257 . S
C2096 O2085 1.249 . S
C2096 O2086 1.264 . S
C2097 C2100 1.382 . S
C2097 C2102 1.390 . S
C2097 C2104 1.506 . S
C2098 C2099 1.398 . S
C2098 C2102 1.392 . S
C2099 C2098 1.398 . S
C2099 C2101 1.372 . S
C2099 H2116 0.931 . S
C2100 C2097 1.382 . S
C2100 C2101 1.390 . S
C2100 H2117 0.931 . S
C2101 C2099 1.372 . S
C2101 C2100 1.390 . S
C2101 H2118 0.929 . S
C2102 C2097 1.390 . S
C2102 C2098 1.392 . S
C2102 H2119 0.930 . S
C2103 O2088 1.255 . S
C2103 O2089 1.257 . S
C2104 Eu2040 2.787 . S
C2104 O2084 1.252 . S
C2104 O2087 1.268 . S
C2104 C2097 1.506 . S
C2105 C2072 1.439 . S
C2105 H2082 0.931 . S
C2105 C2106 1.374 . S
C2106 C2077 1.387 . S
C2106 H2083 0.931 . S
C2106 C2105 1.374 . S
C2107 O2091 1.249 . S
C2107 O2092 1.264 . S
C2108 C2111 1.382 . S
C2108 C2112 1.390 . S
C2108 C2115 1.506 . S
C2109 C2110 1.398 . S
C2109 C2112 1.392 . S
C2110 C2109 1.398 . S
C2110 C2113 1.372 . S
C2110 H2120 0.931 . S
C2111 C2108 1.382 . S
C2111 C2113 1.390 . S
C2111 H2121 0.931 . S
C2112 C2108 1.390 . S
C2112 C2109 1.392 . S
C2112 H2122 0.930 . S
C2113 C2110 1.372 . S
C2113 C2111 1.390 . S
C2113 H2123 0.929 . S
C2114 O2094 1.255 . S
C2114 O2095 1.257 . S
C2115 Eu2051 2.787 . S
C2115 O2090 1.252 . S
C2115 O2093 1.268 . S
C2115 C2108 1.506 . S
H2116 C2099 0.931 . S
H2117 C2100 0.931 . S
H2118 C2101 0.929 . S
H2119 C2102 0.930 . S
H2120 C2110 0.931 . S
H2121 C2111 0.931 . S
H2122 C2112 0.930 . S
H2123 C2113 0.929 . S
Eu2124 N2153 2.589 1_455 S
Eu2124 N2159 2.535 1_455 S
Eu2124 O2168 2.426 1_455 S
Eu2124 O2169 2.396 . S
Eu2124 O2171 2.402 1_455 S
Eu2124 O2172 2.299 . S
Eu2124 O2176 2.348 . S
Eu2124 O2179 2.401 . S
Eu2124 C2188 2.750 1_455 S
C2125 N2126 1.365 . S
C2125 C2128 1.405 . S
C2125 C2132 1.448 1_556 S
N2126 C2125 1.365 . S
N2126 C2129 1.319 . S
N2126 Eu2135 2.600 1_556 S
C2127 C2129 1.397 . S
C2127 C2130 1.367 . S
C2127 H2147 0.931 . S
C2128 C2125 1.405 . S
C2128 C2130 1.403 . S
C2128 C2134 1.439 . S
C2129 N2126 1.319 . S
C2129 C2127 1.397 . S
C2129 H2140 0.930 . S
C2130 C2127 1.367 . S
C2130 C2128 1.403 . S
C2130 H2151 0.929 . S
C2131 C2132 1.430 . S
C2131 C2133 1.387 . S
C2131 C2137 1.404 . S
C2132 C2125 1.448 1_554 S
C2132 C2131 1.430 . S
C2132 N2136 1.351 . S
C2133 C2131 1.387 . S
C2133 C2134 1.374 1_554 S
C2133 H2148 0.931 . S
C2134 C2128 1.439 . S
C2134 C2133 1.374 1_556 S
C2134 H2149 0.931 . S
Eu2135 N2126 2.600 1_554 S
Eu2135 N2136 2.562 . S
Eu2135 O2170 2.335 . S
Eu2135 O2173 2.372 1_554 S
Eu2135 O2174 2.462 . S
Eu2135 O2175 2.373 . S
Eu2135 O2177 2.432 1_554 S
Eu2135 O2178 2.291 . S
Eu2135 C2199 2.787 . S
N2136 C2132 1.351 . S
N2136 Eu2135 2.562 . S
N2136 C2138 1.325 . S
C2137 C2131 1.404 . S
C2137 C2139 1.366 . S
C2137 H2145 0.930 . S
C2138 N2136 1.325 . S
C2138 C2139 1.416 . S
C2138 H2144 0.929 . S
C2139 C2137 1.366 . S
C2139 C2138 1.416 . S
C2139 H2141 0.930 . S
H2140 C2129 0.930 . S
H2141 C2139 0.930 . S
H2142 C2157 0.930 1_455 S
H2143 C2164 0.973 . S
H2144 C2138 0.929 . S
H2145 C2137 0.930 . S
H2146 C2160 0.929 1_556 S
H2147 C2127 0.931 . S
H2148 C2133 0.931 . S
H2149 C2134 0.931 . S
H2150 C2155 0.924 1_455 S
H2151 C2130 0.929 . S
H2152 C2163 0.930 . S
N2153 Eu2124 2.589 1_655 S
N2153 C2154 1.365 . S
N2153 C2157 1.319 . S
C2154 N2153 1.365 . S
C2154 C2156 1.405 . S
C2154 C2162 1.448 . S
C2155 H2150 0.924 1_655 S
C2155 C2157 1.397 . S
C2155 C2158 1.367 . S
C2156 C2154 1.405 . S
C2156 C2158 1.403 . S
C2156 C2189 1.439 . S
C2157 H2142 0.930 1_655 S
C2157 N2153 1.319 . S
C2157 C2155 1.397 . S
C2158 C2155 1.367 . S
C2158 C2156 1.403 . S
C2158 H2165 0.929 . S
N2159 Eu2124 2.535 1_655 S
N2159 C2160 1.325 . S
N2159 C2162 1.351 . S
C2160 H2146 0.929 1_554 S
C2160 N2159 1.325 . S
C2160 C2164 1.406 1_554 S
C2161 C2162 1.430 . S
C2161 C2163 1.404 . S
C2161 C2190 1.387 . S
C2162 C2154 1.448 . S
C2162 N2159 1.351 . S
C2162 C2161 1.430 . S
C2163 H2152 0.930 . S
C2163 C2161 1.404 . S
C2163 C2164 1.332 1_554 S
C2164 H2143 0.973 . S
C2164 C2160 1.406 1_556 S
C2164 C2163 1.332 1_556 S
H2165 C2158 0.929 . S
H2166 C2189 0.931 . S
H2167 C2190 0.931 . S
O2168 Eu2124 2.426 1_655 S
O2168 C2188 1.252 . S
O2169 Eu2124 2.396 . S
O2169 C2180 1.249 . S
O2170 Eu2135 2.335 . S
O2170 C2180 1.264 . S
O2171 Eu2124 2.402 1_655 S
O2171 C2188 1.268 . S
O2172 Eu2124 2.299 . S
O2172 C2187 1.255 1_554 S
O2173 Eu2135 2.372 1_556 S
O2173 C2187 1.257 . S
O2174 Eu2135 2.462 . S
O2174 C2199 1.252 . S
O2175 Eu2135 2.373 . S
O2175 C2191 1.249 . S
O2176 Eu2124 2.348 . S
O2176 C2191 1.264 . S
O2177 Eu2135 2.432 1_556 S
O2177 C2199 1.268 1_556 S
O2178 Eu2135 2.291 . S
O2178 C2198 1.255 . S
O2179 Eu2124 2.401 . S
O2179 C2198 1.257 . S
C2180 O2169 1.249 . S
C2180 O2170 1.264 . S
C2181 C2184 1.382 . S
C2181 C2186 1.390 . S
C2181 C2188 1.506 . S
C2182 C2183 1.398 . S
C2182 C2186 1.392 . S
C2183 C2182 1.398 . S
C2183 C2185 1.372 . S
C2183 H2200 0.931 . S
C2184 C2181 1.382 . S
C2184 C2185 1.390 . S
C2184 H2201 0.931 . S
C2185 C2183 1.372 . S
C2185 C2184 1.390 . S
C2185 H2202 0.929 . S
C2186 C2181 1.390 . S
C2186 C2182 1.392 . S
C2186 H2203 0.930 . S
C2187 O2172 1.255 1_556 S
C2187 O2173 1.257 . S
C2188 Eu2124 2.750 1_655 S
C2188 O2168 1.252 . S
C2188 O2171 1.268 . S
C2188 C2181 1.506 . S
C2189 C2156 1.439 . S
C2189 H2166 0.931 . S
C2189 C2190 1.374 . S
C2190 C2161 1.387 . S
C2190 H2167 0.931 . S
C2190 C2189 1.374 . S
C2191 O2175 1.249 . S
C2191 O2176 1.264 . S
C2192 C2195 1.382 . S
C2192 C2196 1.390 1_556 S
C2192 C2199 1.506 1_556 S
C2193 C2194 1.398 1_554 S
C2193 C2196 1.392 . S
C2194 C2193 1.398 1_556 S
C2194 C2197 1.372 . S
C2194 H2204 0.931 . S
C2195 C2192 1.382 . S
C2195 C2197 1.390 . S
C2195 H2205 0.931 . S
C2196 C2192 1.390 1_554 S
C2196 C2193 1.392 . S
C2196 H2206 0.930 . S
C2197 C2194 1.372 . S
C2197 C2195 1.390 . S
C2197 H2207 0.929 . S
C2198 O2178 1.255 . S
C2198 O2179 1.257 . S
C2199 Eu2135 2.787 . S
C2199 O2174 1.252 . S
C2199 O2177 1.268 1_554 S
C2199 C2192 1.506 1_554 S
H2200 C2183 0.931 . S
H2201 C2184 0.931 . S
H2202 C2185 0.929 . S
H2203 C2186 0.930 . S
H2204 C2194 0.931 . S
H2205 C2195 0.931 . S
H2206 C2196 0.930 . S
H2207 C2197 0.929 . S
C2208 C2209 1.391 1_455 S
C2208 C2210 1.394 1_556 S
C2208 H2224 0.931 . S
C2209 C2208 1.391 1_655 S
C2209 C2213 1.376 . S
C2210 C2208 1.394 1_554 S
C2210 C2211 1.369 1_554 S
C2210 C2214 1.531 . S
C2211 C2210 1.369 1_556 S
C2211 C2212 1.410 1_455 S
C2211 C2219 1.503 1_556 S
C2212 C2211 1.410 1_655 S
C2212 C2213 1.392 . S
C2212 C2215 1.511 . S
C2213 C2209 1.376 . S
C2213 C2212 1.392 . S
C2213 H2225 0.929 . S
C2214 C2210 1.531 . S
C2214 H2226 0.960 . S
C2214 H2227 0.962 . S
C2214 H2228 0.960 . S
C2215 C2212 1.511 . S
C2215 H2229 0.961 . S
C2215 H2230 0.961 . S
C2215 H2231 0.961 . S
C2216 C2217 1.370 1_556 S
C2216 C2218 1.363 . S
C2216 H2232 0.931 . S
C2217 C2216 1.370 1_554 S
C2217 C2221 1.408 . S
C2218 C2216 1.363 . S
C2218 C2219 1.370 1_556 S
C2218 C2222 1.524 . S
C2219 C2211 1.503 1_554 S
C2219 C2218 1.370 1_554 S
C2219 C2220 1.403 . S
C2220 C2219 1.403 . S
C2220 C2221 1.404 . S
C2220 C2223 1.539 1_455 S
C2221 C2217 1.408 . S
C2221 C2220 1.404 . S
C2221 H2233 0.930 . S
C2222 C2218 1.524 . S
C2222 H2234 0.956 . S
C2222 H2235 0.961 . S
C2222 H2236 0.961 . S
C2223 C2220 1.539 1_655 S
C2223 H2237 0.958 . S
C2223 H2238 0.961 . S
C2223 H2239 0.960 . S
H2224 C2208 0.931 . S
H2225 C2213 0.929 . S
H2226 C2214 0.960 . S
H2227 C2214 0.962 . S
H2228 C2214 0.960 . S
H2229 C2215 0.961 . S
H2230 C2215 0.961 . S
H2231 C2215 0.961 . S
H2232 C2216 0.931 . S
H2233 C2221 0.930 . S
H2234 C2222 0.956 . S
H2235 C2222 0.961 . S
H2236 C2222 0.961 . S
H2237 C2223 0.958 . S
H2238 C2223 0.961 . S
H2239 C2223 0.960 . S
C2240 C2241 1.391 . S
C2240 C2242 1.394 . S
C2240 H2256 0.931 . S
C2241 C2240 1.391 . S
C2241 C2245 1.376 . S
C2242 C2240 1.394 . S
C2242 C2243 1.369 . S
C2242 C2246 1.531 . S
C2243 C2242 1.369 . S
C2243 C2244 1.410 . S
C2243 C2251 1.503 . S
C2244 C2243 1.410 . S
C2244 C2245 1.392 . S
C2244 C2247 1.511 . S
C2245 C2241 1.376 . S
C2245 C2244 1.392 . S
C2245 H2257 0.929 . S
C2246 C2242 1.531 . S
C2246 H2258 0.960 . S
C2246 H2259 0.962 . S
C2246 H2260 0.960 . S
C2247 C2244 1.511 . S
C2247 H2261 0.961 . S
C2247 H2262 0.961 . S
C2247 H2263 0.961 . S
C2248 C2249 1.370 . S
C2248 C2250 1.363 . S
C2248 H2264 0.931 . S
C2249 C2248 1.370 . S
C2249 C2253 1.408 . S
C2250 C2248 1.363 . S
C2250 C2251 1.370 . S
C2250 C2254 1.524 . S
C2251 C2243 1.503 . S
C2251 C2250 1.370 . S
C2251 C2252 1.403 . S
C2252 C2251 1.403 . S
C2252 C2253 1.404 . S
C2252 C2255 1.539 . S
C2253 C2249 1.408 . S
C2253 C2252 1.404 . S
C2253 H2265 0.930 . S
C2254 C2250 1.524 . S
C2254 H2266 0.956 . S
C2254 H2267 0.961 . S
C2254 H2268 0.961 . S
C2255 C2252 1.539 . S
C2255 H2269 0.958 . S
C2255 H2270 0.961 . S
C2255 H2271 0.960 . S
H2256 C2240 0.931 . S
H2257 C2245 0.929 . S
H2258 C2246 0.960 . S
H2259 C2246 0.962 . S
H2260 C2246 0.960 . S
H2261 C2247 0.961 . S
H2262 C2247 0.961 . S
H2263 C2247 0.961 . S
H2264 C2248 0.931 . S
H2265 C2253 0.930 . S
H2266 C2254 0.956 . S
H2267 C2254 0.961 . S
H2268 C2254 0.961 . S
H2269 C2255 0.958 . S
H2270 C2255 0.961 . S
H2271 C2255 0.960 . S
C2272 C2273 1.391 . S
C2272 C2274 1.394 . S
C2272 H2288 0.931 . S
C2273 C2272 1.391 . S
C2273 C2277 1.376 . S
C2274 C2272 1.394 . S
C2274 C2275 1.369 . S
C2274 C2278 1.531 . S
C2275 C2274 1.369 . S
C2275 C2276 1.410 . S
C2275 C2283 1.503 . S
C2276 C2275 1.410 . S
C2276 C2277 1.392 . S
C2276 C2279 1.511 . S
C2277 C2273 1.376 . S
C2277 C2276 1.392 . S
C2277 H2289 0.929 . S
C2278 C2274 1.531 . S
C2278 H2290 0.960 . S
C2278 H2291 0.962 . S
C2278 H2292 0.960 . S
C2279 C2276 1.511 . S
C2279 H2293 0.961 . S
C2279 H2294 0.961 . S
C2279 H2295 0.961 . S
C2280 C2281 1.370 . S
C2280 C2282 1.363 . S
C2280 H2296 0.931 . S
C2281 C2280 1.370 . S
C2281 C2285 1.408 . S
C2282 C2280 1.363 . S
C2282 C2283 1.370 . S
C2282 C2286 1.524 . S
C2283 C2275 1.503 . S
C2283 C2282 1.370 . S
C2283 C2284 1.403 . S
C2284 C2283 1.403 . S
C2284 C2285 1.404 . S
C2284 C2287 1.539 . S
C2285 C2281 1.408 . S
C2285 C2284 1.404 . S
C2285 H2297 0.930 . S
C2286 C2282 1.524 . S
C2286 H2298 0.956 . S
C2286 H2299 0.961 . S
C2286 H2300 0.961 . S
C2287 C2284 1.539 . S
C2287 H2301 0.958 . S
C2287 H2302 0.961 . S
C2287 H2303 0.960 . S
H2288 C2272 0.931 . S
H2289 C2277 0.929 . S
H2290 C2278 0.960 . S
H2291 C2278 0.962 . S
H2292 C2278 0.960 . S
H2293 C2279 0.961 . S
H2294 C2279 0.961 . S
H2295 C2279 0.961 . S
H2296 C2280 0.931 . S
H2297 C2285 0.930 . S
H2298 C2286 0.956 . S
H2299 C2286 0.961 . S
H2300 C2286 0.961 . S
H2301 C2287 0.958 . S
H2302 C2287 0.961 . S
H2303 C2287 0.960 . S
C2304 C2305 1.391 . S
C2304 C2306 1.394 . S
C2304 H2320 0.931 . S
C2305 C2304 1.391 . S
C2305 C2309 1.376 . S
C2306 C2304 1.394 . S
C2306 C2307 1.369 . S
C2306 C2310 1.531 . S
C2307 C2306 1.369 . S
C2307 C2308 1.410 . S
C2307 C2315 1.503 . S
C2308 C2307 1.410 . S
C2308 C2309 1.392 . S
C2308 C2311 1.511 . S
C2309 C2305 1.376 . S
C2309 C2308 1.392 . S
C2309 H2321 0.929 . S
C2310 C2306 1.531 . S
C2310 H2322 0.960 . S
C2310 H2323 0.962 . S
C2310 H2324 0.960 . S
C2311 C2308 1.511 . S
C2311 H2325 0.961 . S
C2311 H2326 0.961 . S
C2311 H2327 0.961 . S
C2312 C2313 1.370 . S
C2312 C2314 1.363 . S
C2312 H2328 0.931 . S
C2313 C2312 1.370 . S
C2313 C2317 1.408 . S
C2314 C2312 1.363 . S
C2314 C2315 1.370 . S
C2314 C2318 1.524 . S
C2315 C2307 1.503 . S
C2315 C2314 1.370 . S
C2315 C2316 1.403 . S
C2316 C2315 1.403 . S
C2316 C2317 1.404 . S
C2316 C2319 1.539 . S
C2317 C2313 1.408 . S
C2317 C2316 1.404 . S
C2317 H2329 0.930 . S
C2318 C2314 1.524 . S
C2318 H2330 0.956 . S
C2318 H2331 0.961 . S
C2318 H2332 0.961 . S
C2319 C2316 1.539 . S
C2319 H2333 0.958 . S
C2319 H2334 0.961 . S
C2319 H2335 0.960 . S
H2320 C2304 0.931 . S
H2321 C2309 0.929 . S
H2322 C2310 0.960 . S
H2323 C2310 0.962 . S
H2324 C2310 0.960 . S
H2325 C2311 0.961 . S
H2326 C2311 0.961 . S
H2327 C2311 0.961 . S
H2328 C2312 0.931 . S
H2329 C2317 0.930 . S
H2330 C2318 0.956 . S
H2331 C2318 0.961 . S
H2332 C2318 0.961 . S
H2333 C2319 0.958 . S
H2334 C2319 0.961 . S
H2335 C2319 0.960 . S
C2336 C2337 1.391 . S
C2336 C2338 1.394 . S
C2336 H2352 0.931 . S
C2337 C2336 1.391 . S
C2337 C2341 1.376 . S
C2338 C2336 1.394 . S
C2338 C2339 1.369 . S
C2338 C2342 1.531 . S
C2339 C2338 1.369 . S
C2339 C2340 1.410 . S
C2339 C2347 1.503 . S
C2340 C2339 1.410 . S
C2340 C2341 1.392 . S
C2340 C2343 1.511 1_455 S
C2341 C2337 1.376 . S
C2341 C2340 1.392 . S
C2341 H2353 0.929 1_455 S
C2342 C2338 1.531 . S
C2342 H2354 0.960 . S
C2342 H2355 0.962 . S
C2342 H2356 0.960 . S
C2343 C2340 1.511 1_655 S
C2343 H2357 0.961 . S
C2343 H2358 0.961 . S
C2343 H2359 0.961 . S
C2344 C2345 1.370 . S
C2344 C2346 1.363 . S
C2344 H2360 0.931 . S
C2345 C2344 1.370 . S
C2345 C2349 1.408 . S
C2346 C2344 1.363 . S
C2346 C2347 1.370 . S
C2346 C2350 1.524 . S
C2347 C2339 1.503 . S
C2347 C2346 1.370 . S
C2347 C2348 1.403 . S
C2348 C2347 1.403 . S
C2348 C2349 1.404 . S
C2348 C2351 1.539 1_455 S
C2349 C2345 1.408 . S
C2349 C2348 1.404 . S
C2349 H2361 0.930 . S
C2350 C2346 1.524 . S
C2350 H2362 0.956 . S
C2350 H2363 0.961 . S
C2350 H2364 0.961 . S
C2351 C2348 1.539 1_655 S
C2351 H2365 0.992 . S
C2351 H2366 0.961 . S
C2351 H2367 0.960 . S
H2352 C2336 0.931 . S
H2353 C2341 0.929 1_655 S
H2354 C2342 0.960 . S
H2355 C2342 0.962 . S
H2356 C2342 0.960 . S
H2357 C2343 0.961 . S
H2358 C2343 0.961 . S
H2359 C2343 0.961 . S
H2360 C2344 0.931 . S
H2361 C2349 0.930 . S
H2362 C2350 0.956 . S
H2363 C2350 0.961 . S
H2364 C2350 0.961 . S
H2365 C2351 0.992 . S
H2366 C2351 0.961 . S
H2367 C2351 0.960 . S
C2368 C2369 1.391 . S
C2368 C2370 1.394 . S
C2368 H2384 0.931 . S
C2369 C2368 1.391 . S
C2369 C2373 1.376 . S
C2370 C2368 1.394 . S
C2370 C2371 1.369 . S
C2370 C2374 1.531 . S
C2371 C2370 1.369 . S
C2371 C2372 1.410 . S
C2371 C2379 1.503 . S
C2372 C2371 1.410 . S
C2372 C2373 1.392 . S
C2372 C2375 1.511 . S
C2373 C2369 1.376 . S
C2373 C2372 1.392 . S
C2373 H2385 0.929 . S
C2374 C2370 1.531 . S
C2374 H2386 0.960 . S
C2374 H2387 0.962 . S
C2374 H2388 0.960 . S
C2375 C2372 1.511 . S
C2375 H2389 0.961 . S
C2375 H2390 0.961 . S
C2375 H2391 0.961 . S
C2376 C2377 1.370 . S
C2376 C2378 1.363 . S
C2376 H2392 0.931 . S
C2377 C2376 1.370 . S
C2377 C2381 1.408 . S
C2378 C2376 1.363 . S
C2378 C2379 1.370 . S
C2378 C2382 1.524 . S
C2379 C2371 1.503 . S
C2379 C2378 1.370 . S
C2379 C2380 1.403 . S
C2380 C2379 1.403 . S
C2380 C2381 1.404 . S
C2380 C2383 1.539 . S
C2381 C2377 1.408 . S
C2381 C2380 1.404 . S
C2381 H2393 0.930 . S
C2382 C2378 1.524 . S
C2382 H2394 0.956 . S
C2382 H2395 0.961 . S
C2382 H2396 0.961 . S
C2383 C2380 1.539 . S
C2383 H2397 0.958 . S
C2383 H2398 0.961 . S
C2383 H2399 0.960 . S
H2384 C2368 0.931 . S
H2385 C2373 0.929 . S
H2386 C2374 0.960 . S
H2387 C2374 0.962 . S
H2388 C2374 0.960 . S
H2389 C2375 0.961 . S
H2390 C2375 0.961 . S
H2391 C2375 0.961 . S
H2392 C2376 0.931 . S
H2393 C2381 0.930 . S
H2394 C2382 0.956 . S
H2395 C2382 0.961 . S
H2396 C2382 0.961 . S
H2397 C2383 0.958 . S
H2398 C2383 0.961 . S
H2399 C2383 0.960 . S
C2400 C2401 1.391 . S
C2400 C2402 1.394 . S
C2400 H2416 0.931 . S
C2401 C2400 1.391 . S
C2401 C2405 1.376 . S
C2402 C2400 1.394 . S
C2402 C2403 1.369 . S
C2402 C2406 1.531 . S
C2403 C2402 1.369 . S
C2403 C2404 1.410 . S
C2403 C2411 1.503 . S
C2404 C2403 1.410 . S
C2404 C2405 1.392 . S
C2404 C2407 1.511 . S
C2405 C2401 1.376 . S
C2405 C2404 1.392 . S
C2405 H2417 0.929 . S
C2406 C2402 1.531 . S
C2406 H2418 0.960 . S
C2406 H2419 0.962 . S
C2406 H2420 0.960 . S
C2407 C2404 1.511 . S
C2407 H2421 0.961 . S
C2407 H2422 0.961 . S
C2407 H2423 0.961 . S
C2408 C2409 1.370 . S
C2408 C2410 1.363 . S
C2408 H2424 0.931 . S
C2409 C2408 1.370 . S
C2409 C2413 1.408 . S
C2410 C2408 1.363 . S
C2410 C2411 1.370 . S
C2410 C2414 1.524 . S
C2411 C2403 1.503 . S
C2411 C2410 1.370 . S
C2411 C2412 1.403 . S
C2412 C2411 1.403 . S
C2412 C2413 1.404 . S
C2412 C2415 1.539 . S
C2413 C2409 1.408 . S
C2413 C2412 1.404 . S
C2413 H2425 0.930 . S
C2414 C2410 1.524 . S
C2414 H2426 0.956 . S
C2414 H2427 0.961 . S
C2414 H2428 0.961 . S
C2415 C2412 1.539 . S
C2415 H2429 0.958 . S
C2415 H2430 0.961 . S
C2415 H2431 0.960 . S
H2416 C2400 0.931 . S
H2417 C2405 0.929 . S
H2418 C2406 0.960 . S
H2419 C2406 0.962 . S
H2420 C2406 0.960 . S
H2421 C2407 0.961 . S
H2422 C2407 0.961 . S
H2423 C2407 0.961 . S
H2424 C2408 0.931 . S
H2425 C2413 0.930 . S
H2426 C2414 0.956 . S
H2427 C2414 0.961 . S
H2428 C2414 0.961 . S
H2429 C2415 0.958 . S
H2430 C2415 0.961 . S
H2431 C2415 0.960 . S
C2432 C2433 1.391 . S
C2432 C2434 1.394 . S
C2432 H2448 0.931 . S
C2433 C2432 1.391 . S
C2433 C2437 1.376 . S
C2434 C2432 1.394 . S
C2434 C2435 1.369 . S
C2434 C2438 1.531 . S
C2435 C2434 1.369 . S
C2435 C2436 1.410 . S
C2435 C2443 1.503 . S
C2436 C2435 1.410 . S
C2436 C2437 1.392 . S
C2436 C2439 1.511 . S
C2437 C2433 1.376 . S
C2437 C2436 1.392 . S
C2437 H2449 0.929 . S
C2438 C2434 1.531 . S
C2438 H2450 0.960 . S
C2438 H2451 0.962 . S
C2438 H2452 0.960 . S
C2439 C2436 1.511 . S
C2439 H2453 0.961 . S
C2439 H2454 0.961 . S
C2439 H2455 0.961 . S
C2440 C2441 1.370 . S
C2440 C2442 1.363 . S
C2440 H2456 0.931 . S
C2441 C2440 1.370 . S
C2441 C2445 1.408 . S
C2442 C2440 1.363 . S
C2442 C2443 1.370 . S
C2442 C2446 1.524 . S
C2443 C2435 1.503 . S
C2443 C2442 1.370 . S
C2443 C2444 1.403 . S
C2444 C2443 1.403 . S
C2444 C2445 1.404 . S
C2444 C2447 1.539 . S
C2445 C2441 1.408 . S
C2445 C2444 1.404 . S
C2445 H2457 0.930 . S
C2446 C2442 1.524 . S
C2446 H2458 0.956 . S
C2446 H2459 0.961 . S
C2446 H2460 0.961 . S
C2447 C2444 1.539 . S
C2447 H2461 0.958 . S
C2447 H2462 0.961 . S
C2447 H2463 0.960 . S
H2448 C2432 0.931 . S
H2449 C2437 0.929 . S
H2450 C2438 0.960 . S
H2451 C2438 0.962 . S
H2452 C2438 0.960 . S
H2453 C2439 0.961 . S
H2454 C2439 0.961 . S
H2455 C2439 0.961 . S
H2456 C2440 0.931 . S
H2457 C2445 0.930 . S
H2458 C2446 0.956 . S
H2459 C2446 0.961 . S
H2460 C2446 0.961 . S
H2461 C2447 0.958 . S
H2462 C2447 0.961 . S
H2463 C2447 0.960 . S
C2464 C2465 1.391 . S
C2464 C2466 1.394 . S
C2464 H2480 0.931 . S
C2465 C2464 1.391 . S
C2465 C2469 1.376 . S
C2466 C2464 1.394 . S
C2466 C2467 1.369 . S
C2466 C2470 1.531 1_655 S
C2467 C2466 1.369 . S
C2467 C2468 1.410 . S
C2467 C2475 1.503 . S
C2468 C2467 1.410 . S
C2468 C2469 1.392 . S
C2468 C2471 1.511 . S
C2469 C2465 1.376 . S
C2469 C2468 1.392 . S
C2469 H2481 0.929 . S
C2470 C2466 1.531 1_455 S
C2470 H2482 0.960 . S
C2470 H2483 0.962 . S
C2470 H2484 0.960 . S
C2471 C2468 1.511 . S
C2471 H2485 0.961 . S
C2471 H2486 0.961 . S
C2471 H2487 1.004 . S
C2472 C2473 1.370 . S
C2472 C2474 1.363 1_455 S
C2472 H2488 0.931 . S
C2473 C2472 1.370 . S
C2473 C2477 1.408 1_455 S
C2474 C2472 1.363 1_655 S
C2474 C2475 1.370 . S
C2474 C2478 1.524 . S
C2475 C2467 1.503 . S
C2475 C2474 1.370 . S
C2475 C2476 1.403 . S
C2476 C2475 1.403 . S
C2476 C2477 1.404 . S
C2476 C2479 1.539 1_545 S
C2477 C2473 1.408 1_655 S
C2477 C2476 1.404 . S
C2477 H2489 0.930 1_545 S
C2478 C2474 1.524 . S
C2478 H2490 0.963 . S
C2478 H2491 0.961 . S
C2478 H2492 0.961 . S
C2479 C2476 1.539 1_565 S
C2479 H2493 0.958 . S
C2479 H2494 0.961 . S
C2479 H2495 0.960 . S
H2480 C2464 0.931 . S
H2481 C2469 0.929 . S
H2482 C2470 0.960 . S
H2483 C2470 0.962 . S
H2484 C2470 0.960 . S
H2485 C2471 0.961 . S
H2486 C2471 0.961 . S
H2487 C2471 1.004 . S
H2488 C2472 0.931 . S
H2489 C2477 0.930 1_565 S
H2490 C2478 0.963 . S
H2491 C2478 0.961 . S
H2492 C2478 0.961 . S
H2493 C2479 0.958 . S
H2494 C2479 0.961 . S
H2495 C2479 0.960 . S
C2496 C2497 1.391 . S
C2496 C2498 1.394 . S
C2496 H2512 0.931 . S
C2497 C2496 1.391 . S
C2497 C2501 1.376 . S
C2498 C2496 1.394 . S
C2498 C2499 1.369 . S
C2498 C2502 1.531 . S
C2499 C2498 1.369 . S
C2499 C2500 1.410 . S
C2499 C2507 1.503 . S
C2500 C2499 1.410 . S
C2500 C2501 1.392 . S
C2500 C2503 1.511 . S
C2501 C2497 1.376 . S
C2501 C2500 1.392 . S
C2501 H2513 0.929 . S
C2502 C2498 1.531 . S
C2502 H2514 0.960 . S
C2502 H2515 0.962 . S
C2502 H2516 0.960 . S
C2503 C2500 1.511 . S
C2503 H2517 0.961 . S
C2503 H2518 0.961 . S
C2503 H2519 0.961 . S
C2504 C2505 1.370 . S
C2504 C2506 1.363 . S
C2504 H2520 0.931 . S
C2505 C2504 1.370 . S
C2505 C2509 1.408 . S
C2506 C2504 1.363 . S
C2506 C2507 1.370 . S
C2506 C2510 1.524 . S
C2507 C2499 1.503 . S
C2507 C2506 1.370 . S
C2507 C2508 1.403 . S
C2508 C2507 1.403 . S
C2508 C2509 1.404 . S
C2508 C2511 1.539 . S
C2509 C2505 1.408 . S
C2509 C2508 1.404 . S
C2509 H2521 0.930 . S
C2510 C2506 1.524 . S
C2510 H2522 0.956 . S
C2510 H2523 0.961 . S
C2510 H2524 0.961 . S
C2511 C2508 1.539 . S
C2511 H2525 0.958 . S
C2511 H2526 0.961 . S
C2511 H2527 0.960 . S
H2512 C2496 0.931 . S
H2513 C2501 0.929 . S
H2514 C2502 0.960 . S
H2515 C2502 0.962 . S
H2516 C2502 0.960 . S
H2517 C2503 0.961 . S
H2518 C2503 0.961 . S
H2519 C2503 0.961 . S
H2520 C2504 0.931 . S
H2521 C2509 0.930 . S
H2522 C2510 0.956 . S
H2523 C2510 0.961 . S
H2524 C2510 0.961 . S
H2525 C2511 0.958 . S
H2526 C2511 0.961 . S
H2527 C2511 0.960 . S
C2528 C2529 1.391 . S
C2528 C2530 1.394 . S
C2528 H2544 0.931 . S
C2529 C2528 1.391 . S
C2529 C2533 1.376 . S
C2530 C2528 1.394 . S
C2530 C2531 1.369 . S
C2530 C2534 1.531 . S
C2531 C2530 1.369 . S
C2531 C2532 1.410 . S
C2531 C2539 1.503 . S
C2532 C2531 1.410 . S
C2532 C2533 1.392 . S
C2532 C2535 1.511 . S
C2533 C2529 1.376 . S
C2533 C2532 1.392 . S
C2533 H2545 0.929 . S
C2534 C2530 1.531 . S
C2534 H2546 0.960 . S
C2534 H2547 0.962 . S
C2534 H2548 0.960 . S
C2535 C2532 1.511 . S
C2535 H2549 0.961 . S
C2535 H2550 0.961 . S
C2535 H2551 0.961 . S
C2536 C2537 1.370 . S
C2536 C2538 1.363 . S
C2536 H2552 0.931 . S
C2537 C2536 1.370 . S
C2537 C2541 1.408 . S
C2538 C2536 1.363 . S
C2538 C2539 1.370 . S
C2538 C2542 1.524 . S
C2539 C2531 1.503 . S
C2539 C2538 1.370 . S
C2539 C2540 1.403 . S
C2540 C2539 1.403 . S
C2540 C2541 1.404 . S
C2540 C2543 1.539 1_545 S
C2541 C2537 1.408 . S
C2541 C2540 1.404 . S
C2541 H2553 0.937 . S
C2542 C2538 1.524 . S
C2542 H2554 0.956 . S
C2542 H2555 0.961 . S
C2542 H2556 0.961 . S
C2543 C2540 1.539 1_565 S
C2543 H2557 0.958 . S
C2543 H2558 0.961 . S
C2543 H2559 0.960 . S
H2544 C2528 0.931 . S
H2545 C2533 0.929 . S
H2546 C2534 0.960 . S
H2547 C2534 0.962 . S
H2548 C2534 0.960 . S
H2549 C2535 0.961 . S
H2550 C2535 0.961 . S
H2551 C2535 0.961 . S
H2552 C2536 0.931 . S
H2553 C2541 0.937 . S
H2554 C2542 0.956 . S
H2555 C2542 0.961 . S
H2556 C2542 0.961 . S
H2557 C2543 0.958 . S
H2558 C2543 0.961 . S
H2559 C2543 0.960 . S
C2560 C2561 1.391 . S
C2560 C2562 1.394 . S
C2560 H2576 0.931 . S
C2561 C2560 1.391 . S
C2561 C2565 1.376 . S
C2562 C2560 1.394 . S
C2562 C2563 1.369 . S
C2562 C2566 1.531 . S
C2563 C2562 1.369 . S
C2563 C2564 1.410 . S
C2563 C2571 1.503 . S
C2564 C2563 1.410 . S
C2564 C2565 1.392 . S
C2564 C2567 1.511 . S
C2565 C2561 1.376 . S
C2565 C2564 1.392 . S
C2565 H2577 0.929 . S
C2566 C2562 1.531 . S
C2566 H2578 0.960 . S
C2566 H2579 0.962 . S
C2566 H2580 0.960 . S
C2567 C2564 1.511 . S
C2567 H2581 0.961 . S
C2567 H2582 0.961 . S
C2567 H2583 0.961 . S
C2568 C2569 1.370 . S
C2568 C2570 1.363 . S
C2568 H2584 0.931 . S
C2569 C2568 1.370 . S
C2569 C2573 1.408 . S
C2570 C2568 1.363 . S
C2570 C2571 1.370 . S
C2570 C2574 1.524 . S
C2571 C2563 1.503 . S
C2571 C2570 1.370 . S
C2571 C2572 1.403 . S
C2572 C2571 1.403 . S
C2572 C2573 1.404 . S
C2572 C2575 1.539 . S
C2573 C2569 1.408 . S
C2573 C2572 1.404 . S
C2573 H2585 0.930 . S
C2574 C2570 1.524 . S
C2574 H2586 0.956 . S
C2574 H2587 0.961 . S
C2574 H2588 0.961 . S
C2575 C2572 1.539 . S
C2575 H2589 0.958 . S
C2575 H2590 0.961 . S
C2575 H2591 0.960 . S
H2576 C2560 0.931 . S
H2577 C2565 0.929 . S
H2578 C2566 0.960 . S
H2579 C2566 0.962 . S
H2580 C2566 0.960 . S
H2581 C2567 0.961 . S
H2582 C2567 0.961 . S
H2583 C2567 0.961 . S
H2584 C2568 0.931 . S
H2585 C2573 0.930 . S
H2586 C2574 0.956 . S
H2587 C2574 0.961 . S
H2588 C2574 0.961 . S
H2589 C2575 0.958 . S
H2590 C2575 0.961 . S
H2591 C2575 0.960 . S
C2592 C2593 1.391 . S
C2592 C2594 1.394 . S
C2592 H2608 0.931 . S
C2593 C2592 1.391 . S
C2593 C2597 1.376 . S
C2594 C2592 1.394 . S
C2594 C2595 1.369 . S
C2594 C2598 1.531 1_655 S
C2595 C2594 1.369 . S
C2595 C2596 1.410 . S
C2595 C2603 1.503 . S
C2596 C2595 1.410 . S
C2596 C2597 1.392 . S
C2596 C2599 1.511 . S
C2597 C2593 1.376 . S
C2597 C2596 1.392 . S
C2597 H2609 0.929 . S
C2598 C2594 1.531 1_455 S
C2598 H2610 0.960 . S
C2598 H2611 0.962 . S
C2598 H2612 0.960 . S
C2599 C2596 1.511 . S
C2599 H2613 0.961 1_545 S
C2599 H2614 0.961 1_545 S
C2599 H2615 0.961 . S
C2600 C2601 1.370 . S
C2600 C2602 1.363 1_455 S
C2600 H2616 0.931 1_545 S
C2601 C2600 1.370 . S
C2601 C2605 1.408 1_455 S
C2602 C2600 1.363 1_655 S
C2602 C2603 1.370 . S
C2602 C2606 1.524 1_545 S
C2603 C2595 1.503 . S
C2603 C2602 1.370 . S
C2603 C2604 1.403 . S
C2604 C2603 1.403 . S
C2604 C2605 1.404 . S
C2604 C2607 1.539 . S
C2605 C2601 1.408 1_655 S
C2605 C2604 1.404 . S
C2605 H2617 0.930 . S
C2606 C2602 1.524 1_565 S
C2606 H2618 0.956 1_655 S
C2606 H2619 0.961 . S
C2606 H2620 0.961 1_655 S
C2607 C2604 1.539 . S
C2607 H2621 0.958 . S
C2607 H2622 0.961 . S
C2607 H2623 0.960 . S
H2608 C2592 0.931 . S
H2609 C2597 0.929 . S
H2610 C2598 0.960 . S
H2611 C2598 0.962 . S
H2612 C2598 0.960 . S
H2613 C2599 0.961 1_565 S
H2614 C2599 0.961 1_565 S
H2615 C2599 0.961 . S
H2616 C2600 0.931 1_565 S
H2617 C2605 0.930 . S
H2618 C2606 0.956 1_455 S
H2619 C2606 0.961 . S
H2620 C2606 0.961 1_455 S
H2621 C2607 0.958 . S
H2622 C2607 0.961 . S
H2623 C2607 0.960 . S
C2624 C2625 1.391 . S
C2624 C2626 1.394 . S
C2624 H2640 0.931 . S
C2625 C2624 1.391 . S
C2625 C2629 1.376 . S
C2626 C2624 1.394 . S
C2626 C2627 1.369 . S
C2626 C2630 1.531 . S
C2627 C2626 1.369 . S
C2627 C2628 1.410 . S
C2627 C2635 1.503 . S
C2628 C2627 1.410 . S
C2628 C2629 1.392 . S
C2628 C2631 1.511 . S
C2629 C2625 1.376 . S
C2629 C2628 1.392 . S
C2629 H2641 0.929 . S
C2630 C2626 1.531 . S
C2630 H2642 0.960 . S
C2630 H2643 0.962 . S
C2630 H2644 0.960 . S
C2631 C2628 1.511 . S
C2631 H2645 0.961 . S
C2631 H2646 0.961 . S
C2631 H2647 0.961 . S
C2632 C2633 1.370 . S
C2632 C2634 1.363 . S
C2632 H2648 0.931 . S
C2633 C2632 1.370 . S
C2633 C2637 1.408 . S
C2634 C2632 1.363 . S
C2634 C2635 1.370 . S
C2634 C2638 1.524 . S
C2635 C2627 1.503 . S
C2635 C2634 1.370 . S
C2635 C2636 1.403 . S
C2636 C2635 1.403 . S
C2636 C2637 1.404 . S
C2636 C2639 1.539 . S
C2637 C2633 1.408 . S
C2637 C2636 1.404 . S
C2637 H2649 0.930 . S
C2638 C2634 1.524 . S
C2638 H2650 0.956 . S
C2638 H2651 0.961 . S
C2638 H2652 0.961 . S
C2639 C2636 1.539 . S
C2639 H2653 0.958 . S
C2639 H2654 0.961 . S
C2639 H2655 0.960 . S
H2640 C2624 0.931 . S
H2641 C2629 0.929 . S
H2642 C2630 0.960 . S
H2643 C2630 0.962 . S
H2644 C2630 0.960 . S
H2645 C2631 0.961 . S
H2646 C2631 0.961 . S
H2647 C2631 0.961 . S
H2648 C2632 0.931 . S
H2649 C2637 0.930 . S
H2650 C2638 0.956 . S
H2651 C2638 0.961 . S
H2652 C2638 0.961 . S
H2653 C2639 0.958 . S
H2654 C2639 0.961 . S
H2655 C2639 0.960 . S
C2656 C2657 1.391 . S
C2656 C2658 1.394 . S
C2656 H2672 0.931 . S
C2657 C2656 1.391 . S
C2657 C2661 1.376 . S
C2658 C2656 1.394 . S
C2658 C2659 1.369 . S
C2658 C2662 1.531 . S
C2659 C2658 1.369 . S
C2659 C2660 1.410 . S
C2659 C2667 1.503 . S
C2660 C2659 1.410 . S
C2660 C2661 1.392 . S
C2660 C2663 1.511 . S
C2661 C2657 1.376 . S
C2661 C2660 1.392 . S
C2661 H2673 0.929 . S
C2662 C2658 1.531 . S
C2662 H2674 0.960 . S
C2662 H2675 0.962 . S
C2662 H2676 0.960 . S
C2663 C2660 1.511 . S
C2663 H2677 0.961 . S
C2663 H2678 0.961 . S
C2663 H2679 0.961 . S
C2664 C2665 1.370 . S
C2664 C2666 1.363 . S
C2664 H2680 0.931 . S
C2665 C2664 1.370 . S
C2665 C2669 1.408 . S
C2666 C2664 1.363 . S
C2666 C2667 1.370 . S
C2666 C2670 1.524 . S
C2667 C2659 1.503 . S
C2667 C2666 1.370 . S
C2667 C2668 1.403 . S
C2668 C2667 1.403 . S
C2668 C2669 1.404 . S
C2668 C2671 1.539 . S
C2669 C2665 1.408 . S
C2669 C2668 1.404 . S
C2669 H2681 0.930 . S
C2670 C2666 1.524 . S
C2670 H2682 0.956 . S
C2670 H2683 0.961 . S
C2670 H2684 0.961 . S
C2671 C2668 1.539 . S
C2671 H2685 0.958 . S
C2671 H2686 0.961 . S
C2671 H2687 0.960 . S
H2672 C2656 0.931 . S
H2673 C2661 0.929 . S
H2674 C2662 0.960 . S
H2675 C2662 0.962 . S
H2676 C2662 0.960 . S
H2677 C2663 0.961 . S
H2678 C2663 0.961 . S
H2679 C2663 0.961 . S
H2680 C2664 0.931 . S
H2681 C2669 0.930 . S
H2682 C2670 0.956 . S
H2683 C2670 0.961 . S
H2684 C2670 0.961 . S
H2685 C2671 0.958 . S
H2686 C2671 0.961 . S
H2687 C2671 0.960 . S
C2688 C2689 1.391 . S
C2688 C2690 1.394 . S
C2688 H2704 0.931 . S
C2689 C2688 1.391 . S
C2689 C2693 1.376 . S
C2690 C2688 1.394 . S
C2690 C2691 1.369 . S
C2690 C2694 1.531 . S
C2691 C2690 1.369 . S
C2691 C2692 1.410 . S
C2691 C2699 1.503 . S
C2692 C2691 1.410 . S
C2692 C2693 1.392 . S
C2692 C2695 1.511 . S
C2693 C2689 1.376 . S
C2693 C2692 1.392 . S
C2693 H2705 0.929 . S
C2694 C2690 1.531 . S
C2694 H2706 0.960 . S
C2694 H2707 0.962 . S
C2694 H2708 0.960 . S
C2695 C2692 1.511 . S
C2695 H2709 0.961 . S
C2695 H2710 0.961 . S
C2695 H2711 0.961 . S
C2696 C2697 1.370 . S
C2696 C2698 1.363 . S
C2696 H2712 0.931 . S
C2697 C2696 1.370 . S
C2697 C2701 1.408 . S
C2698 C2696 1.363 . S
C2698 C2699 1.370 . S
C2698 C2702 1.524 . S
C2699 C2691 1.503 . S
C2699 C2698 1.370 . S
C2699 C2700 1.403 . S
C2700 C2699 1.403 . S
C2700 C2701 1.404 . S
C2700 C2703 1.539 . S
C2701 C2697 1.408 . S
C2701 C2700 1.404 . S
C2701 H2713 0.930 . S
C2702 C2698 1.524 . S
C2702 H2714 0.956 . S
C2702 H2715 0.961 . S
C2702 H2716 0.961 . S
C2703 C2700 1.539 . S
C2703 H2717 0.958 . S
C2703 H2718 0.961 . S
C2703 H2719 0.960 . S
H2704 C2688 0.931 . S
H2705 C2693 0.929 . S
H2706 C2694 0.960 . S
H2707 C2694 0.962 . S
H2708 C2694 0.960 . S
H2709 C2695 0.961 . S
H2710 C2695 0.961 . S
H2711 C2695 0.961 . S
H2712 C2696 0.931 . S
H2713 C2701 0.930 . S
H2714 C2702 0.956 . S
H2715 C2702 0.961 . S
H2716 C2702 0.961 . S
H2717 C2703 0.958 . S
H2718 C2703 0.961 . S
H2719 C2703 0.960 . S
C2720 C2721 1.391 . S
C2720 C2722 1.394 . S
C2720 H2736 0.931 . S
C2721 C2720 1.391 . S
C2721 C2725 1.376 . S
C2722 C2720 1.394 . S
C2722 C2723 1.369 . S
C2722 C2726 1.531 . S
C2723 C2722 1.369 . S
C2723 C2724 1.410 . S
C2723 C2731 1.503 . S
C2724 C2723 1.410 . S
C2724 C2725 1.392 . S
C2724 C2727 1.511 1_565 S
C2725 C2721 1.376 . S
C2725 C2724 1.392 . S
C2725 H2737 0.929 1_554 S
C2726 C2722 1.531 . S
C2726 H2738 0.960 . S
C2726 H2739 0.962 . S
C2726 H2740 0.960 . S
C2727 C2724 1.511 1_545 S
C2727 H2741 0.925 1_554 S
C2727 H2742 0.961 . S
C2727 H2743 0.961 . S
C2728 C2729 1.370 . S
C2728 C2730 1.363 . S
C2728 H2744 0.931 1_554 S
C2729 C2728 1.370 . S
C2729 C2733 1.408 . S
C2730 C2728 1.363 . S
C2730 C2731 1.370 . S
C2730 C2734 1.524 1_554 S
C2731 C2723 1.503 . S
C2731 C2730 1.370 . S
C2731 C2732 1.403 . S
C2732 C2731 1.403 . S
C2732 C2733 1.404 . S
C2732 C2735 1.539 . S
C2733 C2729 1.408 . S
C2733 C2732 1.404 . S
C2733 H2745 0.930 1_565 S
C2734 C2730 1.524 1_556 S
C2734 H2746 0.956 . S
C2734 H2747 0.961 . S
C2734 H2748 0.961 . S
C2735 C2732 1.539 . S
C2735 H2749 0.958 . S
C2735 H2750 0.961 1_565 S
C2735 H2751 0.960 . S
H2736 C2720 0.931 . S
H2737 C2725 0.929 1_556 S
H2738 C2726 0.960 . S
H2739 C2726 0.962 . S
H2740 C2726 0.960 . S
H2741 C2727 0.925 1_556 S
H2742 C2727 0.961 . S
H2743 C2727 0.961 . S
H2744 C2728 0.931 1_556 S
H2745 C2733 0.930 1_545 S
H2746 C2734 0.956 . S
H2747 C2734 0.961 . S
H2748 C2734 0.961 . S
H2749 C2735 0.958 . S
H2750 C2735 0.961 1_545 S
H2751 C2735 0.960 . S
C2752 C2753 1.391 . S
C2752 C2754 1.394 . S
C2752 H2768 0.931 . S
C2753 C2752 1.391 . S
C2753 C2757 1.376 . S
C2754 C2752 1.394 . S
C2754 C2755 1.369 . S
C2754 C2758 1.531 . S
C2755 C2754 1.369 . S
C2755 C2756 1.410 . S
C2755 C2763 1.503 . S
C2756 C2755 1.410 . S
C2756 C2757 1.392 . S
C2756 C2759 1.502 1_554 S
C2757 C2753 1.376 . S
C2757 C2756 1.392 . S
C2757 H2769 0.929 1_554 S
C2758 C2754 1.531 . S
C2758 H2770 0.960 . S
C2758 H2771 0.962 . S
C2758 H2772 0.960 . S
C2759 C2756 1.502 1_556 S
C2759 H2773 0.991 . S
C2759 H2774 0.966 . S
C2759 H2775 0.936 1_556 S
C2760 C2761 1.370 . S
C2760 C2762 1.363 . S
C2760 H2776 0.931 1_554 S
C2761 C2760 1.370 . S
C2761 C2765 1.408 . S
C2762 C2760 1.363 . S
C2762 C2763 1.370 . S
C2762 C2766 1.524 1_554 S
C2763 C2755 1.503 . S
C2763 C2762 1.370 . S
C2763 C2764 1.403 . S
C2764 C2763 1.403 . S
C2764 C2765 1.404 . S
C2764 C2767 1.539 . S
C2765 C2761 1.408 . S
C2765 C2764 1.404 . S
C2765 H2777 0.930 . S
C2766 C2762 1.524 1_556 S
C2766 H2778 0.956 . S
C2766 H2779 0.961 . S
C2766 H2780 0.961 . S
C2767 C2764 1.539 . S
C2767 H2781 0.958 . S
C2767 H2782 0.961 . S
C2767 H2783 0.960 . S
H2768 C2752 0.931 . S
H2769 C2757 0.929 1_556 S
H2770 C2758 0.960 . S
H2771 C2758 0.962 . S
H2772 C2758 0.960 . S
H2773 C2759 0.991 . S
H2774 C2759 0.966 . S
H2775 C2759 0.936 1_554 S
H2776 C2760 0.931 1_556 S
H2777 C2765 0.930 . S
H2778 C2766 0.956 . S
H2779 C2766 0.961 . S
H2780 C2766 0.961 . S
H2781 C2767 0.958 . S
H2782 C2767 0.961 . S
H2783 C2767 0.960 . S
C2784 C2785 1.391 . S
C2784 C2786 1.394 . S
C2784 H2800 0.931 . S
C2785 C2784 1.391 . S
C2785 C2789 1.376 . S
C2786 C2784 1.394 . S
C2786 C2787 1.369 . S
C2786 C2790 1.531 . S
C2787 C2786 1.369 . S
C2787 C2788 1.410 . S
C2787 C2795 1.503 . S
C2788 C2787 1.410 . S
C2788 C2789 1.392 . S
C2788 C2791 1.511 . S
C2789 C2785 1.376 . S
C2789 C2788 1.392 . S
C2789 H2801 0.929 . S
C2790 C2786 1.531 . S
C2790 H2802 0.960 . S
C2790 H2803 0.962 . S
C2790 H2804 0.960 . S
C2791 C2788 1.511 . S
C2791 H2805 0.961 . S
C2791 H2806 0.961 . S
C2791 H2807 0.961 . S
C2792 C2793 1.370 . S
C2792 C2794 1.363 . S
C2792 H2808 0.931 . S
C2793 C2792 1.370 . S
C2793 C2797 1.408 . S
C2794 C2792 1.363 . S
C2794 C2795 1.370 . S
C2794 C2798 1.524 . S
C2795 C2787 1.503 . S
C2795 C2794 1.370 . S
C2795 C2796 1.403 . S
C2796 C2795 1.403 . S
C2796 C2797 1.404 . S
C2796 C2799 1.539 . S
C2797 C2793 1.408 . S
C2797 C2796 1.404 . S
C2797 H2809 0.930 . S
C2798 C2794 1.524 . S
C2798 H2810 0.956 . S
C2798 H2811 0.961 . S
C2798 H2812 0.961 . S
C2799 C2796 1.539 . S
C2799 H2813 0.958 . S
C2799 H2814 0.961 . S
C2799 H2815 0.960 . S
H2800 C2784 0.931 . S
H2801 C2789 0.929 . S
H2802 C2790 0.960 . S
H2803 C2790 0.962 . S
H2804 C2790 0.960 . S
H2805 C2791 0.961 . S
H2806 C2791 0.961 . S
H2807 C2791 0.961 . S
H2808 C2792 0.931 . S
H2809 C2797 0.930 . S
H2810 C2798 0.956 . S
H2811 C2798 0.961 . S
H2812 C2798 0.961 . S
H2813 C2799 0.958 . S
H2814 C2799 0.961 . S
H2815 C2799 0.960 . S
C2816 C2817 1.391 . S
C2816 C2818 1.394 . S
C2816 H2832 0.931 . S
C2817 C2816 1.391 . S
C2817 C2821 1.376 . S
C2818 C2816 1.394 . S
C2818 C2819 1.369 . S
C2818 C2822 1.531 . S
C2819 C2818 1.369 . S
C2819 C2820 1.410 . S
C2819 C2827 1.503 . S
C2820 C2819 1.410 . S
C2820 C2821 1.392 . S
C2820 C2823 1.511 . S
C2821 C2817 1.376 . S
C2821 C2820 1.392 . S
C2821 H2833 0.929 . S
C2822 C2818 1.531 . S
C2822 H2834 0.960 . S
C2822 H2835 0.962 . S
C2822 H2836 0.960 . S
C2823 C2820 1.511 . S
C2823 H2837 0.961 . S
C2823 H2838 0.961 . S
C2823 H2839 0.961 . S
C2824 C2825 1.370 . S
C2824 C2826 1.363 . S
C2824 H2840 0.931 . S
C2825 C2824 1.370 . S
C2825 C2829 1.408 . S
C2826 C2824 1.363 . S
C2826 C2827 1.370 . S
C2826 C2830 1.524 . S
C2827 C2819 1.503 . S
C2827 C2826 1.370 . S
C2827 C2828 1.403 . S
C2828 C2827 1.403 . S
C2828 C2829 1.404 . S
C2828 C2831 1.539 . S
C2829 C2825 1.408 . S
C2829 C2828 1.404 . S
C2829 H2841 0.930 . S
C2830 C2826 1.524 . S
C2830 H2842 0.956 . S
C2830 H2843 0.961 . S
C2830 H2844 0.961 . S
C2831 C2828 1.539 . S
C2831 H2845 0.958 . S
C2831 H2846 0.961 . S
C2831 H2847 0.960 . S
H2832 C2816 0.931 . S
H2833 C2821 0.929 . S
H2834 C2822 0.960 . S
H2835 C2822 0.962 . S
H2836 C2822 0.960 . S
H2837 C2823 0.961 . S
H2838 C2823 0.961 . S
H2839 C2823 0.961 . S
H2840 C2824 0.931 . S
H2841 C2829 0.930 . S
H2842 C2830 0.956 . S
H2843 C2830 0.961 . S
H2844 C2830 0.961 . S
H2845 C2831 0.958 . S
H2846 C2831 0.961 . S
H2847 C2831 0.960 . S
C2848 C2849 1.391 . S
C2848 C2850 1.394 . S
C2848 H2864 0.931 . S
C2849 C2848 1.391 . S
C2849 C2853 1.376 . S
C2850 C2848 1.394 . S
C2850 C2851 1.369 . S
C2850 C2854 1.531 . S
C2851 C2850 1.369 . S
C2851 C2852 1.410 . S
C2851 C2859 1.503 . S
C2852 C2851 1.410 . S
C2852 C2853 1.392 . S
C2852 C2855 1.511 . S
C2853 C2849 1.376 . S
C2853 C2852 1.392 . S
C2853 H2865 0.929 . S
C2854 C2850 1.531 . S
C2854 H2866 0.960 . S
C2854 H2867 0.962 . S
C2854 H2868 0.960 . S
C2855 C2852 1.511 . S
C2855 H2869 0.961 . S
C2855 H2870 0.961 . S
C2855 H2871 0.961 . S
C2856 C2857 1.370 . S
C2856 C2858 1.363 . S
C2856 H2872 0.931 . S
C2857 C2856 1.370 . S
C2857 C2861 1.408 . S
C2858 C2856 1.363 . S
C2858 C2859 1.370 . S
C2858 C2862 1.524 . S
C2859 C2851 1.503 . S
C2859 C2858 1.370 . S
C2859 C2860 1.403 . S
C2860 C2859 1.403 . S
C2860 C2861 1.404 . S
C2860 C2863 1.539 . S
C2861 C2857 1.408 . S
C2861 C2860 1.404 . S
C2861 H2873 0.930 . S
C2862 C2858 1.524 . S
C2862 H2874 0.956 . S
C2862 H2875 0.961 . S
C2862 H2876 0.961 . S
C2863 C2860 1.539 . S
C2863 H2877 0.958 . S
C2863 H2878 0.961 . S
C2863 H2879 0.960 . S
H2864 C2848 0.931 . S
H2865 C2853 0.929 . S
H2866 C2854 0.960 . S
H2867 C2854 0.962 . S
H2868 C2854 0.960 . S
H2869 C2855 0.961 . S
H2870 C2855 0.961 . S
H2871 C2855 0.961 . S
H2872 C2856 0.931 . S
H2873 C2861 0.930 . S
H2874 C2862 0.956 . S
H2875 C2862 0.961 . S
H2876 C2862 0.961 . S
H2877 C2863 0.958 . S
H2878 C2863 0.961 . S
H2879 C2863 0.960 . S
C2880 C2881 1.391 . S
C2880 C2882 1.394 . S
C2880 H2896 0.931 . S
C2881 C2880 1.391 . S
C2881 C2885 1.376 . S
C2882 C2880 1.394 . S
C2882 C2883 1.369 . S
C2882 C2886 1.531 . S
C2883 C2882 1.369 . S
C2883 C2884 1.410 . S
C2883 C2891 1.503 . S
C2884 C2883 1.410 . S
C2884 C2885 1.392 . S
C2884 C2887 1.511 . S
C2885 C2881 1.376 . S
C2885 C2884 1.392 . S
C2885 H2897 0.929 . S
C2886 C2882 1.531 . S
C2886 H2898 0.960 . S
C2886 H2899 0.962 . S
C2886 H2900 0.960 . S
C2887 C2884 1.511 . S
C2887 H2901 0.961 . S
C2887 H2902 0.961 . S
C2887 H2903 0.961 . S
C2888 C2889 1.370 . S
C2888 C2890 1.363 . S
C2888 H2904 0.931 . S
C2889 C2888 1.370 . S
C2889 C2893 1.408 . S
C2890 C2888 1.363 . S
C2890 C2891 1.370 . S
C2890 C2894 1.524 . S
C2891 C2883 1.503 . S
C2891 C2890 1.370 . S
C2891 C2892 1.403 . S
C2892 C2891 1.403 . S
C2892 C2893 1.404 . S
C2892 C2895 1.539 . S
C2893 C2889 1.408 . S
C2893 C2892 1.404 . S
C2893 H2905 0.930 . S
C2894 C2890 1.524 . S
C2894 H2906 0.956 . S
C2894 H2907 0.961 . S
C2894 H2908 0.961 . S
C2895 C2892 1.539 . S
C2895 H2909 0.958 . S
C2895 H2910 0.961 . S
C2895 H2911 0.960 . S
H2896 C2880 0.931 . S
H2897 C2885 0.929 . S
H2898 C2886 0.960 . S
H2899 C2886 0.962 . S
H2900 C2886 0.960 . S
H2901 C2887 0.961 . S
H2902 C2887 0.961 . S
H2903 C2887 0.961 . S
H2904 C2888 0.931 . S
H2905 C2893 0.930 . S
H2906 C2894 0.956 . S
H2907 C2894 0.961 . S
H2908 C2894 0.961 . S
H2909 C2895 0.958 . S
H2910 C2895 0.961 . S
H2911 C2895 0.960 . S
C2912 C2913 1.391 . S
C2912 C2914 1.394 . S
C2912 H2928 0.931 . S
C2913 C2912 1.391 . S
C2913 C2917 1.376 . S
C2914 C2912 1.394 . S
C2914 C2915 1.369 . S
C2914 C2918 1.531 . S
C2915 C2914 1.369 . S
C2915 C2916 1.410 . S
C2915 C2923 1.503 . S
C2916 C2915 1.410 . S
C2916 C2917 1.392 . S
C2916 C2919 1.511 . S
C2917 C2913 1.376 . S
C2917 C2916 1.392 . S
C2917 H2929 0.929 . S
C2918 C2914 1.531 . S
C2918 H2930 0.960 . S
C2918 H2931 0.962 . S
C2918 H2932 0.960 . S
C2919 C2916 1.511 . S
C2919 H2933 0.961 . S
C2919 H2934 0.961 . S
C2919 H2935 0.961 . S
C2920 C2921 1.370 . S
C2920 C2922 1.363 . S
C2920 H2936 0.931 . S
C2921 C2920 1.370 . S
C2921 C2925 1.408 . S
C2922 C2920 1.363 . S
C2922 C2923 1.370 . S
C2922 C2926 1.524 . S
C2923 C2915 1.503 . S
C2923 C2922 1.370 . S
C2923 C2924 1.403 . S
C2924 C2923 1.403 . S
C2924 C2925 1.404 . S
C2924 C2927 1.539 . S
C2925 C2921 1.408 . S
C2925 C2924 1.404 . S
C2925 H2937 0.930 . S
C2926 C2922 1.524 . S
C2926 H2938 0.956 . S
C2926 H2939 0.961 . S
C2926 H2940 0.961 . S
C2927 C2924 1.539 . S
C2927 H2941 0.958 . S
C2927 H2942 0.961 . S
C2927 H2943 0.960 . S
H2928 C2912 0.931 . S
H2929 C2917 0.929 . S
H2930 C2918 0.960 . S
H2931 C2918 0.962 . S
H2932 C2918 0.960 . S
H2933 C2919 0.961 . S
H2934 C2919 0.961 . S
H2935 C2919 0.961 . S
H2936 C2920 0.931 . S
H2937 C2925 0.930 . S
H2938 C2926 0.956 . S
H2939 C2926 0.961 . S
H2940 C2926 0.961 . S
H2941 C2927 0.958 . S
H2942 C2927 0.961 . S
H2943 C2927 0.960 . S
C2944 C2945 1.391 . S
C2944 C2946 1.394 . S
C2944 H2960 0.931 . S
C2945 C2944 1.391 . S
C2945 C2949 1.376 . S
C2946 C2944 1.394 . S
C2946 C2947 1.369 . S
C2946 C2950 1.531 . S
C2947 C2946 1.369 . S
C2947 C2948 1.410 . S
C2947 C2955 1.503 . S
C2948 C2947 1.410 . S
C2948 C2949 1.392 . S
C2948 C2951 1.511 . S
C2949 C2945 1.376 . S
C2949 C2948 1.392 . S
C2949 H2961 0.929 . S
C2950 C2946 1.531 . S
C2950 H2962 0.960 . S
C2950 H2963 0.962 . S
C2950 H2964 0.960 . S
C2951 C2948 1.511 . S
C2951 H2965 0.961 . S
C2951 H2966 0.961 . S
C2951 H2967 0.961 . S
C2952 C2953 1.370 . S
C2952 C2954 1.363 . S
C2952 H2968 0.931 . S
C2953 C2952 1.370 . S
C2953 C2957 1.408 . S
C2954 C2952 1.363 . S
C2954 C2955 1.370 . S
C2954 C2958 1.524 . S
C2955 C2947 1.503 . S
C2955 C2954 1.370 . S
C2955 C2956 1.403 . S
C2956 C2955 1.403 . S
C2956 C2957 1.404 . S
C2956 C2959 1.539 . S
C2957 C2953 1.408 . S
C2957 C2956 1.404 . S
C2957 H2969 0.930 . S
C2958 C2954 1.524 . S
C2958 H2970 0.956 . S
C2958 H2971 0.961 . S
C2958 H2972 0.961 . S
C2959 C2956 1.539 . S
C2959 H2973 0.958 . S
C2959 H2974 0.961 . S
C2959 H2975 0.960 . S
H2960 C2944 0.931 . S
H2961 C2949 0.929 . S
H2962 C2950 0.960 . S
H2963 C2950 0.962 . S
H2964 C2950 0.960 . S
H2965 C2951 0.961 . S
H2966 C2951 0.961 . S
H2967 C2951 0.961 . S
H2968 C2952 0.931 . S
H2969 C2957 0.930 . S
H2970 C2958 0.956 . S
H2971 C2958 0.961 . S
H2972 C2958 0.961 . S
H2973 C2959 0.958 . S
H2974 C2959 0.961 . S
H2975 C2959 0.960 . S
C2976 C2977 1.391 . S
C2976 C2978 1.394 . S
C2976 H2992 0.931 . S
C2977 C2976 1.391 . S
C2977 C2981 1.376 . S
C2978 C2976 1.394 . S
C2978 C2979 1.369 . S
C2978 C2982 1.531 . S
C2979 C2978 1.369 . S
C2979 C2980 1.410 . S
C2979 C2987 1.503 . S
C2980 C2979 1.410 . S
C2980 C2981 1.392 . S
C2980 C2983 1.511 . S
C2981 C2977 1.376 . S
C2981 C2980 1.392 . S
C2981 H2993 0.929 . S
C2982 C2978 1.531 . S
C2982 H2994 0.960 . S
C2982 H2995 0.962 . S
C2982 H2996 0.960 . S
C2983 C2980 1.511 . S
C2983 H2997 0.961 1_455 S
C2983 H2998 0.961 . S
C2983 H2999 0.961 . S
C2984 C2985 1.370 . S
C2984 C2986 1.363 . S
C2984 H3000 0.931 . S
C2985 C2984 1.370 . S
C2985 C2989 1.408 . S
C2986 C2984 1.363 . S
C2986 C2987 1.370 . S
C2986 C2990 1.524 . S
C2987 C2979 1.503 . S
C2987 C2986 1.370 . S
C2987 C2988 1.403 . S
C2988 C2987 1.403 . S
C2988 C2989 1.404 . S
C2988 C2991 1.539 . S
C2989 C2985 1.408 . S
C2989 C2988 1.404 . S
C2989 H3001 0.930 . S
C2990 C2986 1.524 . S
C2990 H3002 0.956 . S
C2990 H3003 0.961 . S
C2990 H3004 0.961 . S
C2991 C2988 1.539 . S
C2991 H3005 0.958 . S
C2991 H3006 0.961 1_554 S
C2991 H3007 0.960 . S
H2992 C2976 0.931 . S
H2993 C2981 0.929 . S
H2994 C2982 0.960 . S
H2995 C2982 0.962 . S
H2996 C2982 0.960 . S
H2997 C2983 0.961 1_655 S
H2998 C2983 0.961 . S
H2999 C2983 0.961 . S
H3000 C2984 0.931 . S
H3001 C2989 0.930 . S
H3002 C2990 0.956 . S
H3003 C2990 0.961 . S
H3004 C2990 0.961 . S
H3005 C2991 0.958 . S
H3006 C2991 0.961 1_556 S
H3007 C2991 0.960 . S
C3008 C3009 1.391 . S
C3008 C3010 1.394 . S
C3008 H3024 0.931 . S
C3009 C3008 1.391 . S
C3009 C3013 1.376 . S
C3010 C3008 1.394 . S
C3010 C3011 1.369 . S
C3010 C3014 1.531 . S
C3011 C3010 1.369 . S
C3011 C3012 1.410 . S
C3011 C3019 1.503 . S
C3012 C3011 1.410 . S
C3012 C3013 1.392 . S
C3012 C3015 1.511 . S
C3013 C3009 1.376 . S
C3013 C3012 1.392 . S
C3013 H3025 0.929 . S
C3014 C3010 1.531 . S
C3014 H3026 0.960 . S
C3014 H3027 0.962 . S
C3014 H3028 0.960 . S
C3015 C3012 1.511 . S
C3015 H3029 0.961 . S
C3015 H3030 0.961 . S
C3015 H3031 0.961 . S
C3016 C3017 1.370 . S
C3016 C3018 1.363 . S
C3016 H3032 0.931 . S
C3017 C3016 1.370 . S
C3017 C3021 1.408 . S
C3018 C3016 1.363 . S
C3018 C3019 1.370 . S
C3018 C3022 1.524 . S
C3019 C3011 1.503 . S
C3019 C3018 1.370 . S
C3019 C3020 1.403 . S
C3020 C3019 1.403 . S
C3020 C3021 1.404 . S
C3020 C3023 1.539 . S
C3021 C3017 1.408 . S
C3021 C3020 1.404 . S
C3021 H3033 0.930 . S
C3022 C3018 1.524 . S
C3022 H3034 0.956 . S
C3022 H3035 0.961 . S
C3022 H3036 0.961 . S
C3023 C3020 1.539 . S
C3023 H3037 0.958 . S
C3023 H3038 0.961 . S
C3023 H3039 0.960 . S
H3024 C3008 0.931 . S
H3025 C3013 0.929 . S
H3026 C3014 0.960 . S
H3027 C3014 0.962 . S
H3028 C3014 0.960 . S
H3029 C3015 0.961 . S
H3030 C3015 0.961 . S
H3031 C3015 0.961 . S
H3032 C3016 0.931 . S
H3033 C3021 0.930 . S
H3034 C3022 0.956 . S
H3035 C3022 0.961 . S
H3036 C3022 0.961 . S
H3037 C3023 0.958 . S
H3038 C3023 0.961 . S
H3039 C3023 0.960 . S
C3040 C3041 1.391 . S
C3040 C3042 1.394 . S
C3040 H3056 0.931 . S
C3041 C3040 1.391 . S
C3041 C3045 1.376 . S
C3042 C3040 1.394 . S
C3042 C3043 1.369 . S
C3042 C3046 1.531 . S
C3043 C3042 1.369 . S
C3043 C3044 1.410 . S
C3043 C3051 1.503 . S
C3044 C3043 1.410 . S
C3044 C3045 1.392 . S
C3044 C3047 1.511 . S
C3045 C3041 1.376 . S
C3045 C3044 1.392 . S
C3045 H3057 0.929 . S
C3046 C3042 1.531 . S
C3046 H3058 0.960 . S
C3046 H3059 0.962 . S
C3046 H3060 0.960 . S
C3047 C3044 1.511 . S
C3047 H3061 0.961 . S
C3047 H3062 0.961 . S
C3047 H3063 0.961 . S
C3048 C3049 1.370 . S
C3048 C3050 1.363 . S
C3048 H3064 0.931 . S
C3049 C3048 1.370 . S
C3049 C3053 1.408 . S
C3050 C3048 1.363 . S
C3050 C3051 1.370 . S
C3050 C3054 1.524 . S
C3051 C3043 1.503 . S
C3051 C3050 1.370 . S
C3051 C3052 1.403 . S
C3052 C3051 1.403 . S
C3052 C3053 1.404 . S
C3052 C3055 1.539 . S
C3053 C3049 1.408 . S
C3053 C3052 1.404 . S
C3053 H3065 0.930 . S
C3054 C3050 1.524 . S
C3054 H3066 0.956 . S
C3054 H3067 0.961 . S
C3054 H3068 0.961 . S
C3055 C3052 1.539 . S
C3055 H3069 0.958 . S
C3055 H3070 0.961 . S
C3055 H3071 0.960 . S
H3056 C3040 0.931 . S
H3057 C3045 0.929 . S
H3058 C3046 0.960 . S
H3059 C3046 0.962 . S
H3060 C3046 0.960 . S
H3061 C3047 0.961 . S
H3062 C3047 0.961 . S
H3063 C3047 0.961 . S
H3064 C3048 0.931 . S
H3065 C3053 0.930 . S
H3066 C3054 0.956 . S
H3067 C3054 0.961 . S
H3068 C3054 0.961 . S
H3069 C3055 0.958 . S
H3070 C3055 0.961 . S
H3071 C3055 0.960 . S
C3072 C3073 1.391 . S
C3072 C3074 1.394 . S
C3072 H3088 0.931 . S
C3073 C3072 1.391 . S
C3073 C3077 1.376 . S
C3074 C3072 1.394 . S
C3074 C3075 1.369 . S
C3074 C3078 1.531 . S
C3075 C3074 1.369 . S
C3075 C3076 1.410 . S
C3075 C3083 1.503 . S
C3076 C3075 1.410 . S
C3076 C3077 1.392 . S
C3076 C3079 1.511 . S
C3077 C3073 1.376 . S
C3077 C3076 1.392 . S
C3077 H3089 0.929 . S
C3078 C3074 1.531 . S
C3078 H3090 0.960 . S
C3078 H3091 0.962 . S
C3078 H3092 0.960 . S
C3079 C3076 1.511 . S
C3079 H3093 0.961 . S
C3079 H3094 0.961 . S
C3079 H3095 0.961 . S
C3080 C3081 1.370 . S
C3080 C3082 1.363 . S
C3080 H3096 0.931 . S
C3081 C3080 1.370 . S
C3081 C3085 1.408 . S
C3082 C3080 1.363 . S
C3082 C3083 1.370 . S
C3082 C3086 1.524 . S
C3083 C3075 1.503 . S
C3083 C3082 1.370 . S
C3083 C3084 1.403 . S
C3084 C3083 1.403 . S
C3084 C3085 1.404 . S
C3084 C3087 1.539 . S
C3085 C3081 1.408 . S
C3085 C3084 1.404 . S
C3085 H3097 0.930 . S
C3086 C3082 1.524 . S
C3086 H3098 0.956 . S
C3086 H3099 0.961 . S
C3086 H3100 0.961 . S
C3087 C3084 1.539 . S
C3087 H3101 0.958 . S
C3087 H3102 0.961 . S
C3087 H3103 0.960 . S
H3088 C3072 0.931 . S
H3089 C3077 0.929 . S
H3090 C3078 0.960 . S
H3091 C3078 0.962 . S
H3092 C3078 0.960 . S
H3093 C3079 0.961 . S
H3094 C3079 0.961 . S
H3095 C3079 0.961 . S
H3096 C3080 0.931 . S
H3097 C3085 0.930 . S
H3098 C3086 0.956 . S
H3099 C3086 0.961 . S
H3100 C3086 0.961 . S
H3101 C3087 0.958 . S
H3102 C3087 0.961 . S
H3103 C3087 0.960 . S
C3104 C3105 1.391 . S
C3104 C3106 1.394 . S
C3104 H3120 0.931 . S
C3105 C3104 1.391 . S
C3105 C3109 1.376 . S
C3106 C3104 1.394 . S
C3106 C3107 1.369 . S
C3106 C3110 1.531 1_455 S
C3107 C3106 1.369 . S
C3107 C3108 1.410 . S
C3107 C3115 1.503 . S
C3108 C3107 1.410 . S
C3108 C3109 1.392 . S
C3108 C3111 1.511 . S
C3109 C3105 1.376 . S
C3109 C3108 1.392 . S
C3109 H3121 0.929 . S
C3110 C3106 1.531 1_655 S
C3110 H3122 0.960 . S
C3110 H3123 0.962 . S
C3110 H3124 0.960 . S
C3111 C3108 1.511 . S
C3111 H3125 0.961 . S
C3111 H3126 0.961 . S
C3111 H3127 0.961 . S
C3112 C3113 1.370 . S
C3112 C3114 1.363 . S
C3112 H3128 0.931 . S
C3113 C3112 1.370 . S
C3113 C3117 1.408 . S
C3114 C3112 1.363 . S
C3114 C3115 1.370 . S
C3114 C3118 1.524 . S
C3115 C3107 1.503 . S
C3115 C3114 1.370 . S
C3115 C3116 1.403 . S
C3116 C3115 1.403 . S
C3116 C3117 1.404 . S
C3116 C3119 1.539 . S
C3117 C3113 1.408 . S
C3117 C3116 1.404 . S
C3117 H3129 0.930 . S
C3118 C3114 1.524 . S
C3118 H3130 0.956 . S
C3118 H3131 0.961 . S
C3118 H3132 0.961 . S
C3119 C3116 1.539 . S
C3119 H3133 0.958 . S
C3119 H3134 0.961 . S
C3119 H3135 0.960 . S
H3120 C3104 0.931 . S
H3121 C3109 0.929 . S
H3122 C3110 0.960 . S
H3123 C3110 0.962 . S
H3124 C3110 0.960 . S
H3125 C3111 0.961 . S
H3126 C3111 0.961 . S
H3127 C3111 0.961 . S
H3128 C3112 0.931 . S
H3129 C3117 0.930 . S
H3130 C3118 0.956 . S
H3131 C3118 0.961 . S
H3132 C3118 0.961 . S
H3133 C3119 0.958 . S
H3134 C3119 0.961 . S
H3135 C3119 0.960 . S
C3136 C3137 1.391 . S
C3136 C3138 1.394 . S
C3136 H3152 0.931 . S
C3137 C3136 1.391 . S
C3137 C3141 1.376 . S
C3138 C3136 1.394 . S
C3138 C3139 1.369 . S
C3138 C3142 1.531 . S
C3139 C3138 1.369 . S
C3139 C3140 1.410 . S
C3139 C3147 1.503 . S
C3140 C3139 1.410 . S
C3140 C3141 1.392 . S
C3140 C3143 1.511 . S
C3141 C3137 1.376 . S
C3141 C3140 1.392 . S
C3141 H3153 0.929 . S
C3142 C3138 1.531 . S
C3142 H3154 0.960 . S
C3142 H3155 0.962 . S
C3142 H3156 0.960 . S
C3143 C3140 1.511 . S
C3143 H3157 0.961 . S
C3143 H3158 0.961 . S
C3143 H3159 0.961 . S
C3144 C3145 1.370 . S
C3144 C3146 1.363 . S
C3144 H3160 0.931 . S
C3145 C3144 1.370 . S
C3145 C3149 1.408 . S
C3146 C3144 1.363 . S
C3146 C3147 1.370 . S
C3146 C3150 1.524 . S
C3147 C3139 1.503 . S
C3147 C3146 1.370 . S
C3147 C3148 1.403 . S
C3148 C3147 1.403 . S
C3148 C3149 1.404 . S
C3148 C3151 1.539 . S
C3149 C3145 1.408 . S
C3149 C3148 1.404 . S
C3149 H3161 0.930 . S
C3150 C3146 1.524 . S
C3150 H3162 0.956 . S
C3150 H3163 0.961 . S
C3150 H3164 0.961 . S
C3151 C3148 1.539 . S
C3151 H3165 0.958 . S
C3151 H3166 0.961 . S
C3151 H3167 0.960 . S
H3152 C3136 0.931 . S
H3153 C3141 0.929 . S
H3154 C3142 0.960 . S
H3155 C3142 0.962 . S
H3156 C3142 0.960 . S
H3157 C3143 0.961 . S
H3158 C3143 0.961 . S
H3159 C3143 0.961 . S
H3160 C3144 0.931 . S
H3161 C3149 0.930 . S
H3162 C3150 0.956 . S
H3163 C3150 0.961 . S
H3164 C3150 0.961 . S
H3165 C3151 0.958 . S
H3166 C3151 0.961 . S
H3167 C3151 0.960 . S
C3168 C3169 1.391 . S
C3168 C3170 1.394 . S
C3168 H3184 0.931 . S
C3169 C3168 1.391 . S
C3169 C3173 1.376 . S
C3170 C3168 1.394 . S
C3170 C3171 1.369 . S
C3170 C3174 1.531 . S
C3171 C3170 1.369 . S
C3171 C3172 1.410 . S
C3171 C3179 1.503 . S
C3172 C3171 1.410 . S
C3172 C3173 1.392 . S
C3172 C3175 1.511 . S
C3173 C3169 1.376 . S
C3173 C3172 1.392 . S
C3173 H3185 0.929 . S
C3174 C3170 1.531 . S
C3174 H3186 0.960 . S
C3174 H3187 0.962 . S
C3174 H3188 0.960 . S
C3175 C3172 1.511 . S
C3175 H3189 0.961 . S
C3175 H3190 0.961 . S
C3175 H3191 0.961 . S
C3176 C3177 1.370 . S
C3176 C3178 1.363 . S
C3176 H3192 0.931 . S
C3177 C3176 1.370 . S
C3177 C3181 1.408 . S
C3178 C3176 1.363 . S
C3178 C3179 1.370 . S
C3178 C3182 1.524 . S
C3179 C3171 1.503 . S
C3179 C3178 1.370 . S
C3179 C3180 1.403 . S
C3180 C3179 1.403 . S
C3180 C3181 1.404 . S
C3180 C3183 1.539 . S
C3181 C3177 1.408 . S
C3181 C3180 1.404 . S
C3181 H3193 0.930 1_556 S
C3182 C3178 1.524 . S
C3182 H3194 0.956 . S
C3182 H3195 0.961 . S
C3182 H3196 0.961 . S
C3183 C3180 1.539 . S
C3183 H3197 0.958 . S
C3183 H3198 0.959 . S
C3183 H3199 0.960 . S
H3184 C3168 0.931 . S
H3185 C3173 0.929 . S
H3186 C3174 0.960 . S
H3187 C3174 0.962 . S
H3188 C3174 0.960 . S
H3189 C3175 0.961 . S
H3190 C3175 0.961 . S
H3191 C3175 0.961 . S
H3192 C3176 0.931 . S
H3193 C3181 0.930 1_554 S
H3194 C3182 0.956 . S
H3195 C3182 0.961 . S
H3196 C3182 0.961 . S
H3197 C3183 0.958 . S
H3198 C3183 0.959 . S
H3199 C3183 0.960 . S
C3200 C3201 1.391 . S
C3200 C3202 1.394 . S
C3200 H3216 0.931 . S
C3201 C3200 1.391 . S
C3201 C3205 1.376 . S
C3202 C3200 1.394 . S
C3202 C3203 1.369 . S
C3202 C3206 1.531 . S
C3203 C3202 1.369 . S
C3203 C3204 1.410 . S
C3203 C3211 1.503 . S
C3204 C3203 1.410 . S
C3204 C3205 1.392 . S
C3204 C3207 1.511 . S
C3205 C3201 1.376 . S
C3205 C3204 1.392 . S
C3205 H3217 0.929 . S
C3206 C3202 1.531 . S
C3206 H3218 0.960 . S
C3206 H3219 0.962 . S
C3206 H3220 0.960 . S
C3207 C3204 1.511 . S
C3207 H3221 0.961 . S
C3207 H3222 0.961 . S
C3207 H3223 0.961 . S
C3208 C3209 1.370 . S
C3208 C3210 1.363 . S
C3208 H3224 0.931 . S
C3209 C3208 1.370 . S
C3209 C3213 1.408 . S
C3210 C3208 1.363 . S
C3210 C3211 1.370 . S
C3210 C3214 1.524 . S
C3211 C3203 1.503 . S
C3211 C3210 1.370 . S
C3211 C3212 1.403 . S
C3212 C3211 1.403 . S
C3212 C3213 1.404 . S
C3212 C3215 1.539 . S
C3213 C3209 1.408 . S
C3213 C3212 1.404 . S
C3213 H3225 0.930 . S
C3214 C3210 1.524 . S
C3214 H3226 0.956 . S
C3214 H3227 0.961 . S
C3214 H3228 0.961 . S
C3215 C3212 1.539 . S
C3215 H3229 0.958 . S
C3215 H3230 0.961 . S
C3215 H3231 0.960 . S
H3216 C3200 0.931 . S
H3217 C3205 0.929 . S
H3218 C3206 0.960 . S
H3219 C3206 0.962 . S
H3220 C3206 0.960 . S
H3221 C3207 0.961 . S
H3222 C3207 0.961 . S
H3223 C3207 0.961 . S
H3224 C3208 0.931 . S
H3225 C3213 0.930 . S
H3226 C3214 0.956 . S
H3227 C3214 0.961 . S
H3228 C3214 0.961 . S
H3229 C3215 0.958 . S
H3230 C3215 0.961 . S
H3231 C3215 0.960 . S
C3232 C3233 1.391 . S
C3232 C3234 1.394 . S
C3232 H3248 0.931 . S
C3233 C3232 1.391 . S
C3233 C3237 1.376 . S
C3234 C3232 1.394 . S
C3234 C3235 1.369 . S
C3234 C3238 1.531 . S
C3235 C3234 1.369 . S
C3235 C3236 1.410 . S
C3235 C3243 1.503 . S
C3236 C3235 1.410 . S
C3236 C3237 1.392 . S
C3236 C3239 1.511 . S
C3237 C3233 1.376 . S
C3237 C3236 1.392 . S
C3237 H3249 0.929 . S
C3238 C3234 1.531 . S
C3238 H3250 0.960 . S
C3238 H3251 0.962 . S
C3238 H3252 0.960 . S
C3239 C3236 1.511 . S
C3239 H3253 0.961 . S
C3239 H3254 0.961 . S
C3239 H3255 0.961 . S
C3240 C3241 1.370 . S
C3240 C3242 1.363 . S
C3240 H3256 0.931 1_545 S
C3241 C3240 1.370 . S
C3241 C3245 1.408 . S
C3242 C3240 1.363 . S
C3242 C3243 1.370 . S
C3242 C3246 1.524 1_545 S
C3243 C3235 1.503 . S
C3243 C3242 1.370 . S
C3243 C3244 1.403 . S
C3244 C3243 1.403 . S
C3244 C3245 1.404 . S
C3244 C3247 1.539 . S
C3245 C3241 1.408 . S
C3245 C3244 1.404 . S
C3245 H3257 0.930 . S
C3246 C3242 1.524 1_565 S
C3246 H3258 0.956 . S
C3246 H3259 0.961 . S
C3246 H3260 0.961 . S
C3247 C3244 1.539 . S
C3247 H3261 0.958 . S
C3247 H3262 0.961 . S
C3247 H3263 0.960 . S
H3248 C3232 0.931 . S
H3249 C3237 0.929 . S
H3250 C3238 0.960 . S
H3251 C3238 0.962 . S
H3252 C3238 0.960 . S
H3253 C3239 0.961 . S
H3254 C3239 0.961 . S
H3255 C3239 0.961 . S
H3256 C3240 0.931 1_565 S
H3257 C3245 0.930 . S
H3258 C3246 0.956 . S
H3259 C3246 0.961 . S
H3260 C3246 0.961 . S
H3261 C3247 0.958 . S
H3262 C3247 0.961 . S
H3263 C3247 0.960 . S
C3264 C3265 1.391 . S
C3264 C3266 1.394 . S
C3264 H3280 0.931 . S
C3265 C3264 1.391 . S
C3265 C3269 1.376 . S
C3266 C3264 1.394 . S
C3266 C3267 1.369 . S
C3266 C3270 1.531 . S
C3267 C3266 1.369 . S
C3267 C3268 1.410 . S
C3267 C3275 1.503 . S
C3268 C3267 1.410 . S
C3268 C3269 1.392 . S
C3268 C3271 1.511 . S
C3269 C3265 1.376 . S
C3269 C3268 1.392 . S
C3269 H3281 0.929 . S
C3270 C3266 1.531 . S
C3270 H3282 0.960 . S
C3270 H3283 0.962 . S
C3270 H3284 0.960 . S
C3271 C3268 1.511 . S
C3271 H3285 0.961 . S
C3271 H3286 0.961 . S
C3271 H3287 0.961 . S
C3272 C3273 1.370 . S
C3272 C3274 1.363 . S
C3272 H3288 0.931 . S
C3273 C3272 1.370 . S
C3273 C3277 1.408 . S
C3274 C3272 1.363 . S
C3274 C3275 1.370 . S
C3274 C3278 1.524 . S
C3275 C3267 1.503 . S
C3275 C3274 1.370 . S
C3275 C3276 1.403 . S
C3276 C3275 1.403 . S
C3276 C3277 1.404 . S
C3276 C3279 1.539 . S
C3277 C3273 1.408 . S
C3277 C3276 1.404 . S
C3277 H3289 0.930 . S
C3278 C3274 1.524 . S
C3278 H3290 0.956 . S
C3278 H3291 0.961 . S
C3278 H3292 0.961 . S
C3279 C3276 1.539 . S
C3279 H3293 0.958 . S
C3279 H3294 0.961 . S
C3279 H3295 0.960 . S
H3280 C3264 0.931 . S
H3281 C3269 0.929 . S
H3282 C3270 0.960 . S
H3283 C3270 0.962 . S
H3284 C3270 0.960 . S
H3285 C3271 0.961 . S
H3286 C3271 0.961 . S
H3287 C3271 0.961 . S
H3288 C3272 0.931 . S
H3289 C3277 0.930 . S
H3290 C3278 0.956 . S
H3291 C3278 0.961 . S
H3292 C3278 0.961 . S
H3293 C3279 0.958 . S
H3294 C3279 0.961 . S
H3295 C3279 0.960 . S
C3296 C3297 1.391 . S
C3296 C3298 1.394 . S
C3296 H3312 0.931 . S
C3297 C3296 1.391 . S
C3297 C3301 1.376 . S
C3298 C3296 1.394 . S
C3298 C3299 1.369 . S
C3298 C3302 1.531 . S
C3299 C3298 1.369 . S
C3299 C3300 1.410 . S
C3299 C3307 1.503 . S
C3300 C3299 1.410 . S
C3300 C3301 1.392 . S
C3300 C3303 1.511 . S
C3301 C3297 1.376 . S
C3301 C3300 1.392 . S
C3301 H3313 0.929 . S
C3302 C3298 1.531 . S
C3302 H3314 0.960 . S
C3302 H3315 0.962 . S
C3302 H3316 0.960 . S
C3303 C3300 1.511 . S
C3303 H3317 0.961 . S
C3303 H3318 0.961 . S
C3303 H3319 0.961 . S
C3304 C3305 1.370 . S
C3304 C3306 1.363 . S
C3304 H3320 0.931 . S
C3305 C3304 1.370 . S
C3305 C3309 1.408 . S
C3306 C3304 1.363 . S
C3306 C3307 1.370 . S
C3306 C3310 1.524 1_545 S
C3307 C3299 1.503 . S
C3307 C3306 1.370 . S
C3307 C3308 1.403 . S
C3308 C3307 1.403 . S
C3308 C3309 1.404 . S
C3308 C3311 1.539 . S
C3309 C3305 1.408 . S
C3309 C3308 1.404 . S
C3309 H3321 0.930 . S
C3310 C3306 1.524 1_565 S
C3310 H3322 0.956 . S
C3310 H3323 0.961 . S
C3310 H3324 0.961 . S
C3311 C3308 1.539 . S
C3311 H3325 0.958 . S
C3311 H3326 0.961 . S
C3311 H3327 0.960 . S
H3312 C3296 0.931 . S
H3313 C3301 0.929 . S
H3314 C3302 0.960 . S
H3315 C3302 0.962 . S
H3316 C3302 0.960 . S
H3317 C3303 0.961 . S
H3318 C3303 0.961 . S
H3319 C3303 0.961 . S
H3320 C3304 0.931 . S
H3321 C3309 0.930 . S
H3322 C3310 0.956 . S
H3323 C3310 0.961 . S
H3324 C3310 0.961 . S
H3325 C3311 0.958 . S
H3326 C3311 0.961 . S
H3327 C3311 0.960 . S
C3328 C3329 1.391 . S
C3328 C3330 1.394 . S
C3328 H3344 0.931 . S
C3329 C3328 1.391 . S
C3329 C3333 1.376 . S
C3330 C3328 1.394 . S
C3330 C3331 1.369 . S
C3330 C3334 1.531 . S
C3331 C3330 1.369 . S
C3331 C3332 1.410 . S
C3331 C3339 1.503 . S
C3332 C3331 1.410 . S
C3332 C3333 1.392 . S
C3332 C3335 1.511 . S
C3333 C3329 1.376 . S
C3333 C3332 1.392 . S
C3333 H3345 0.929 . S
C3334 C3330 1.531 . S
C3334 H3346 0.960 . S
C3334 H3347 0.962 . S
C3334 H3348 0.960 . S
C3335 C3332 1.511 . S
C3335 H3349 0.961 . S
C3335 H3350 0.961 . S
C3335 H3351 0.961 . S
C3336 C3337 1.370 . S
C3336 C3338 1.363 . S
C3336 H3352 0.931 . S
C3337 C3336 1.370 . S
C3337 C3341 1.408 . S
C3338 C3336 1.363 . S
C3338 C3339 1.370 . S
C3338 C3342 1.524 . S
C3339 C3331 1.503 . S
C3339 C3338 1.370 . S
C3339 C3340 1.403 . S
C3340 C3339 1.403 . S
C3340 C3341 1.404 . S
C3340 C3343 1.539 . S
C3341 C3337 1.408 . S
C3341 C3340 1.404 . S
C3341 H3353 0.930 . S
C3342 C3338 1.524 . S
C3342 H3354 0.956 . S
C3342 H3355 0.961 . S
C3342 H3356 0.961 . S
C3343 C3340 1.539 . S
C3343 H3357 0.958 . S
C3343 H3358 0.961 . S
C3343 H3359 0.960 . S
H3344 C3328 0.931 . S
H3345 C3333 0.929 . S
H3346 C3334 0.960 . S
H3347 C3334 0.962 . S
H3348 C3334 0.960 . S
H3349 C3335 0.961 . S
H3350 C3335 0.961 . S
H3351 C3335 0.961 . S
H3352 C3336 0.931 . S
H3353 C3341 0.930 . S
H3354 C3342 0.956 . S
H3355 C3342 0.961 . S
H3356 C3342 0.961 . S
H3357 C3343 0.958 . S
H3358 C3343 0.961 . S
H3359 C3343 0.960 . S
C3360 C3361 1.391 . S
C3360 C3362 1.394 . S
C3360 H3376 0.931 . S
C3361 C3360 1.391 . S
C3361 C3365 1.376 . S
C3362 C3360 1.394 . S
C3362 C3363 1.369 . S
C3362 C3366 1.531 . S
C3363 C3362 1.369 . S
C3363 C3364 1.410 . S
C3363 C3371 1.503 . S
C3364 C3363 1.410 . S
C3364 C3365 1.392 . S
C3364 C3367 1.511 . S
C3365 C3361 1.376 . S
C3365 C3364 1.392 . S
C3365 H3377 0.929 . S
C3366 C3362 1.531 . S
C3366 H3378 0.960 . S
C3366 H3379 0.962 . S
C3366 H3380 0.960 . S
C3367 C3364 1.511 . S
C3367 H3381 0.961 . S
C3367 H3382 0.961 . S
C3367 H3383 0.961 . S
C3368 C3369 1.370 . S
C3368 C3370 1.363 . S
C3368 H3384 0.931 . S
C3369 C3368 1.370 . S
C3369 C3373 1.408 . S
C3370 C3368 1.363 . S
C3370 C3371 1.370 . S
C3370 C3374 1.524 . S
C3371 C3363 1.503 . S
C3371 C3370 1.370 . S
C3371 C3372 1.403 . S
C3372 C3371 1.403 . S
C3372 C3373 1.404 . S
C3372 C3375 1.539 1_545 S
C3373 C3369 1.408 . S
C3373 C3372 1.404 . S
C3373 H3385 0.930 . S
C3374 C3370 1.524 . S
C3374 H3386 0.956 . S
C3374 H3387 0.961 . S
C3374 H3388 0.961 . S
C3375 C3372 1.539 1_565 S
C3375 H3389 0.958 . S
C3375 H3390 0.961 . S
C3375 H3391 0.960 . S
H3376 C3360 0.931 . S
H3377 C3365 0.929 . S
H3378 C3366 0.960 . S
H3379 C3366 0.962 . S
H3380 C3366 0.960 . S
H3381 C3367 0.961 . S
H3382 C3367 0.961 . S
H3383 C3367 0.961 . S
H3384 C3368 0.931 . S
H3385 C3373 0.930 . S
H3386 C3374 0.956 . S
H3387 C3374 0.961 . S
H3388 C3374 0.961 . S
H3389 C3375 0.958 . S
H3390 C3375 0.961 . S
H3391 C3375 0.960 . S
C3392 C3393 1.391 . S
C3392 C3394 1.394 . S
C3392 H3408 0.931 . S
C3393 C3392 1.391 . S
C3393 C3397 1.376 . S
C3394 C3392 1.394 . S
C3394 C3395 1.369 . S
C3394 C3398 1.531 . S
C3395 C3394 1.369 . S
C3395 C3396 1.410 . S
C3395 C3403 1.503 . S
C3396 C3395 1.410 . S
C3396 C3397 1.392 . S
C3396 C3399 1.511 . S
C3397 C3393 1.376 . S
C3397 C3396 1.392 . S
C3397 H3409 0.929 . S
C3398 C3394 1.531 . S
C3398 H3410 0.960 . S
C3398 H3411 0.962 . S
C3398 H3412 0.960 . S
C3399 C3396 1.511 . S
C3399 H3413 0.961 . S
C3399 H3414 0.961 . S
C3399 H3415 0.961 . S
C3400 C3401 1.370 . S
C3400 C3402 1.363 . S
C3400 H3416 0.931 . S
C3401 C3400 1.370 . S
C3401 C3405 1.408 . S
C3402 C3400 1.363 . S
C3402 C3403 1.370 . S
C3402 C3406 1.524 . S
C3403 C3395 1.503 . S
C3403 C3402 1.370 . S
C3403 C3404 1.403 . S
C3404 C3403 1.403 . S
C3404 C3405 1.404 . S
C3404 C3407 1.539 . S
C3405 C3401 1.408 . S
C3405 C3404 1.404 . S
C3405 H3417 0.930 . S
C3406 C3402 1.524 . S
C3406 H3418 0.956 . S
C3406 H3419 0.961 . S
C3406 H3420 0.961 . S
C3407 C3404 1.539 . S
C3407 H3421 0.958 . S
C3407 H3422 0.961 . S
C3407 H3423 0.960 . S
H3408 C3392 0.931 . S
H3409 C3397 0.929 . S
H3410 C3398 0.960 . S
H3411 C3398 0.962 . S
H3412 C3398 0.960 . S
H3413 C3399 0.961 . S
H3414 C3399 0.961 . S
H3415 C3399 0.961 . S
H3416 C3400 0.931 . S
H3417 C3405 0.930 . S
H3418 C3406 0.956 . S
H3419 C3406 0.961 . S
H3420 C3406 0.961 . S
H3421 C3407 0.958 . S
H3422 C3407 0.961 . S
H3423 C3407 0.960 . S
C3424 C3425 1.391 1_565 S
C3424 C3426 1.394 . S
C3424 H3440 0.931 . S
C3425 C3424 1.391 1_545 S
C3425 C3429 1.376 . S
C3426 C3424 1.394 . S
C3426 C3427 1.369 1_565 S
C3426 C3430 1.531 . S
C3427 C3426 1.369 1_545 S
C3427 C3428 1.410 . S
C3427 C3435 1.503 . S
C3428 C3427 1.410 . S
C3428 C3429 1.392 . S
C3428 C3431 1.511 . S
C3429 C3425 1.376 . S
C3429 C3428 1.392 . S
C3429 H3441 0.929 . S
C3430 C3426 1.531 . S
C3430 H3442 0.960 . S
C3430 H3443 0.962 . S
C3430 H3444 0.960 . S
C3431 C3428 1.511 . S
C3431 H3445 0.961 . S
C3431 H3446 0.961 . S
C3431 H3447 0.961 . S
C3432 C3433 1.370 . S
C3432 C3434 1.363 . S
C3432 H3448 0.931 . S
C3433 C3432 1.370 . S
C3433 C3437 1.408 1_545 S
C3434 C3432 1.363 . S
C3434 C3435 1.370 . S
C3434 C3438 1.524 . S
C3435 C3427 1.503 . S
C3435 C3434 1.370 . S
C3435 C3436 1.403 1_545 S
C3436 C3435 1.403 1_565 S
C3436 C3437 1.404 . S
C3436 C3439 1.539 . S
C3437 C3433 1.408 1_565 S
C3437 C3436 1.404 . S
C3437 H3449 0.930 . S
C3438 C3434 1.524 . S
C3438 H3450 0.956 . S
C3438 H3451 0.961 . S
C3438 H3452 0.961 . S
C3439 C3436 1.539 . S
C3439 H3453 0.958 . S
C3439 H3454 0.961 . S
C3439 H3455 0.960 . S
H3440 C3424 0.931 . S
H3441 C3429 0.929 . S
H3442 C3430 0.960 . S
H3443 C3430 0.962 . S
H3444 C3430 0.960 . S
H3445 C3431 0.961 . S
H3446 C3431 0.961 . S
H3447 C3431 0.961 . S
H3448 C3432 0.931 . S
H3449 C3437 0.930 . S
H3450 C3438 0.956 . S
H3451 C3438 0.961 . S
H3452 C3438 0.961 . S
H3453 C3439 0.958 . S
H3454 C3439 0.961 . S
H3455 C3439 0.960 . S
C3456 C3457 1.391 . S
C3456 C3458 1.394 . S
C3456 H3472 0.931 . S
C3457 C3456 1.391 . S
C3457 C3461 1.376 . S
C3458 C3456 1.394 . S
C3458 C3459 1.369 . S
C3458 C3462 1.531 . S
C3459 C3458 1.369 . S
C3459 C3460 1.410 . S
C3459 C3467 1.503 . S
C3460 C3459 1.410 . S
C3460 C3461 1.392 . S
C3460 C3463 1.511 . S
C3461 C3457 1.376 . S
C3461 C3460 1.392 . S
C3461 H3473 0.929 . S
C3462 C3458 1.531 . S
C3462 H3474 0.960 . S
C3462 H3475 0.962 . S
C3462 H3476 0.960 . S
C3463 C3460 1.511 . S
C3463 H3477 0.961 . S
C3463 H3478 0.961 . S
C3463 H3479 0.961 . S
C3464 C3465 1.370 . S
C3464 C3466 1.363 . S
C3464 H3480 0.931 . S
C3465 C3464 1.370 . S
C3465 C3469 1.408 . S
C3466 C3464 1.363 . S
C3466 C3467 1.370 . S
C3466 C3470 1.524 . S
C3467 C3459 1.503 . S
C3467 C3466 1.370 . S
C3467 C3468 1.403 . S
C3468 C3467 1.403 . S
C3468 C3469 1.404 . S
C3468 C3471 1.539 . S
C3469 C3465 1.408 . S
C3469 C3468 1.404 . S
C3469 H3481 0.930 . S
C3470 C3466 1.524 . S
C3470 H3482 0.956 . S
C3470 H3483 0.961 . S
C3470 H3484 0.961 . S
C3471 C3468 1.539 . S
C3471 H3485 0.958 . S
C3471 H3486 0.961 . S
C3471 H3487 0.960 . S
H3472 C3456 0.931 . S
H3473 C3461 0.929 . S
H3474 C3462 0.960 . S
H3475 C3462 0.962 . S
H3476 C3462 0.960 . S
H3477 C3463 0.961 . S
H3478 C3463 0.961 . S
H3479 C3463 0.961 . S
H3480 C3464 0.931 . S
H3481 C3469 0.930 . S
H3482 C3470 0.956 . S
H3483 C3470 0.961 . S
H3484 C3470 0.961 . S
H3485 C3471 0.958 . S
H3486 C3471 0.961 . S
H3487 C3471 0.960 . S
C3488 C3489 1.391 . S
C3488 C3490 1.394 . S
C3488 H3504 0.931 . S
C3489 C3488 1.391 . S
C3489 C3493 1.376 . S
C3490 C3488 1.394 . S
C3490 C3491 1.369 . S
C3490 C3494 1.531 . S
C3491 C3490 1.369 . S
C3491 C3492 1.410 . S
C3491 C3499 1.503 . S
C3492 C3491 1.410 . S
C3492 C3493 1.392 . S
C3492 C3495 1.511 . S
C3493 C3489 1.376 . S
C3493 C3492 1.392 . S
C3493 H3505 0.929 . S
C3494 C3490 1.531 . S
C3494 H3506 0.960 . S
C3494 H3507 0.962 . S
C3494 H3508 0.960 . S
C3495 C3492 1.511 . S
C3495 H3509 0.961 1_554 S
C3495 H3510 0.961 . S
C3495 H3511 0.961 . S
C3496 C3497 1.370 . S
C3496 C3498 1.363 . S
C3496 H3512 0.931 . S
C3497 C3496 1.370 . S
C3497 C3501 1.408 . S
C3498 C3496 1.363 . S
C3498 C3499 1.370 . S
C3498 C3502 1.524 . S
C3499 C3491 1.503 . S
C3499 C3498 1.370 . S
C3499 C3500 1.403 . S
C3500 C3499 1.403 . S
C3500 C3501 1.404 . S
C3500 C3503 1.539 . S
C3501 C3497 1.408 . S
C3501 C3500 1.404 . S
C3501 H3513 0.930 . S
C3502 C3498 1.524 . S
C3502 H3514 0.956 . S
C3502 H3515 0.961 . S
C3502 H3516 0.961 . S
C3503 C3500 1.539 . S
C3503 H3517 0.958 . S
C3503 H3518 0.961 . S
C3503 H3519 0.960 . S
H3504 C3488 0.931 . S
H3505 C3493 0.929 . S
H3506 C3494 0.960 . S
H3507 C3494 0.962 . S
H3508 C3494 0.960 . S
H3509 C3495 0.961 1_556 S
H3510 C3495 0.961 . S
H3511 C3495 0.961 . S
H3512 C3496 0.931 . S
H3513 C3501 0.930 . S
H3514 C3502 0.956 . S
H3515 C3502 0.961 . S
H3516 C3502 0.961 . S
H3517 C3503 0.958 . S
H3518 C3503 0.961 . S
H3519 C3503 0.960 . S
C3520 C3521 1.391 . S
C3520 C3522 1.394 . S
C3520 H3536 0.931 . S
C3521 C3520 1.391 . S
C3521 C3525 1.376 . S
C3522 C3520 1.394 . S
C3522 C3523 1.369 . S
C3522 C3526 1.531 . S
C3523 C3522 1.369 . S
C3523 C3524 1.410 . S
C3523 C3531 1.503 . S
C3524 C3523 1.410 . S
C3524 C3525 1.392 . S
C3524 C3527 1.511 . S
C3525 C3521 1.376 . S
C3525 C3524 1.392 . S
C3525 H3537 0.929 . S
C3526 C3522 1.531 . S
C3526 H3538 0.960 . S
C3526 H3539 0.962 . S
C3526 H3540 0.960 . S
C3527 C3524 1.511 . S
C3527 H3541 0.961 . S
C3527 H3542 0.961 . S
C3527 H3543 0.961 . S
C3528 C3529 1.370 . S
C3528 C3530 1.363 . S
C3528 H3544 0.931 . S
C3529 C3528 1.370 . S
C3529 C3533 1.408 . S
C3530 C3528 1.363 . S
C3530 C3531 1.370 . S
C3530 C3534 1.524 . S
C3531 C3523 1.503 . S
C3531 C3530 1.370 . S
C3531 C3532 1.403 . S
C3532 C3531 1.403 . S
C3532 C3533 1.404 . S
C3532 C3535 1.539 . S
C3533 C3529 1.408 . S
C3533 C3532 1.404 . S
C3533 H3545 0.930 . S
C3534 C3530 1.524 . S
C3534 H3546 0.956 . S
C3534 H3547 0.961 . S
C3534 H3548 0.961 1_554 S
C3535 C3532 1.539 . S
C3535 H3549 0.958 . S
C3535 H3550 0.961 . S
C3535 H3551 0.960 . S
H3536 C3520 0.931 . S
H3537 C3525 0.929 . S
H3538 C3526 0.960 . S
H3539 C3526 0.962 . S
H3540 C3526 0.960 . S
H3541 C3527 0.961 . S
H3542 C3527 0.961 . S
H3543 C3527 0.961 . S
H3544 C3528 0.931 . S
H3545 C3533 0.930 . S
H3546 C3534 0.956 . S
H3547 C3534 0.961 . S
H3548 C3534 0.961 1_556 S
H3549 C3535 0.958 . S
H3550 C3535 0.961 . S
H3551 C3535 0.960 . S
C3552 C3553 1.391 . S
C3552 C3554 1.394 . S
C3552 H3568 0.931 . S
C3553 C3552 1.391 . S
C3553 C3557 1.376 . S
C3554 C3552 1.394 . S
C3554 C3555 1.369 . S
C3554 C3558 1.531 . S
C3555 C3554 1.369 . S
C3555 C3556 1.410 . S
C3555 C3563 1.503 . S
C3556 C3555 1.410 . S
C3556 C3557 1.392 . S
C3556 C3559 1.511 . S
C3557 C3553 1.376 . S
C3557 C3556 1.392 . S
C3557 H3569 0.929 . S
C3558 C3554 1.531 . S
C3558 H3570 0.960 . S
C3558 H3571 0.962 . S
C3558 H3572 0.960 . S
C3559 C3556 1.511 . S
C3559 H3573 0.961 . S
C3559 H3574 0.961 . S
C3559 H3575 0.961 . S
C3560 C3561 1.370 . S
C3560 C3562 1.363 . S
C3560 H3576 0.931 . S
C3561 C3560 1.370 . S
C3561 C3565 1.408 . S
C3562 C3560 1.363 . S
C3562 C3563 1.370 . S
C3562 C3566 1.524 . S
C3563 C3555 1.503 . S
C3563 C3562 1.370 . S
C3563 C3564 1.403 . S
C3564 C3563 1.403 . S
C3564 C3565 1.404 . S
C3564 C3567 1.539 . S
C3565 C3561 1.408 . S
C3565 C3564 1.404 . S
C3565 H3577 0.930 . S
C3566 C3562 1.524 . S
C3566 H3578 0.956 . S
C3566 H3579 0.961 . S
C3566 H3580 0.961 . S
C3567 C3564 1.539 . S
C3567 H3581 0.958 . S
C3567 H3582 0.961 . S
C3567 H3583 0.960 . S
H3568 C3552 0.931 . S
H3569 C3557 0.929 . S
H3570 C3558 0.960 . S
H3571 C3558 0.962 . S
H3572 C3558 0.960 . S
H3573 C3559 0.961 . S
H3574 C3559 0.961 . S
H3575 C3559 0.961 . S
H3576 C3560 0.931 . S
H3577 C3565 0.930 . S
H3578 C3566 0.956 . S
H3579 C3566 0.961 . S
H3580 C3566 0.961 . S
H3581 C3567 0.958 . S
H3582 C3567 0.961 . S
H3583 C3567 0.960 . S
C3584 C3585 1.391 . S
C3584 C3586 1.394 . S
C3584 H3600 0.931 . S
C3585 C3584 1.391 . S
C3585 C3589 1.376 . S
C3586 C3584 1.394 . S
C3586 C3587 1.369 . S
C3586 C3590 1.531 . S
C3587 C3586 1.369 . S
C3587 C3588 1.410 . S
C3587 C3595 1.503 . S
C3588 C3587 1.410 . S
C3588 C3589 1.392 . S
C3588 C3591 1.511 . S
C3589 C3585 1.376 . S
C3589 C3588 1.392 . S
C3589 H3601 0.929 . S
C3590 C3586 1.531 . S
C3590 H3602 0.960 . S
C3590 H3603 0.962 . S
C3590 H3604 0.960 . S
C3591 C3588 1.511 . S
C3591 H3605 0.961 . S
C3591 H3606 0.961 . S
C3591 H3607 0.961 . S
C3592 C3593 1.370 . S
C3592 C3594 1.363 . S
C3592 H3608 0.931 . S
C3593 C3592 1.370 . S
C3593 C3597 1.408 . S
C3594 C3592 1.363 . S
C3594 C3595 1.370 . S
C3594 C3598 1.524 . S
C3595 C3587 1.503 . S
C3595 C3594 1.370 . S
C3595 C3596 1.403 . S
C3596 C3595 1.403 . S
C3596 C3597 1.404 . S
C3596 C3599 1.539 . S
C3597 C3593 1.408 . S
C3597 C3596 1.404 . S
C3597 H3609 0.930 . S
C3598 C3594 1.524 . S
C3598 H3610 0.956 . S
C3598 H3611 0.961 . S
C3598 H3612 0.961 . S
C3599 C3596 1.539 . S
C3599 H3613 0.958 . S
C3599 H3614 0.961 . S
C3599 H3615 0.960 . S
H3600 C3584 0.931 . S
H3601 C3589 0.929 . S
H3602 C3590 0.960 . S
H3603 C3590 0.962 . S
H3604 C3590 0.960 . S
H3605 C3591 0.961 . S
H3606 C3591 0.961 . S
H3607 C3591 0.961 . S
H3608 C3592 0.931 . S
H3609 C3597 0.930 . S
H3610 C3598 0.956 . S
H3611 C3598 0.961 . S
H3612 C3598 0.961 . S
H3613 C3599 0.958 . S
H3614 C3599 0.961 . S
H3615 C3599 0.960 . S
C3616 C3617 1.391 . S
C3616 C3618 1.394 1_545 S
C3616 H3632 0.931 . S
C3617 C3616 1.391 . S
C3617 C3621 1.376 1_545 S
C3618 C3616 1.394 1_565 S
C3618 C3619 1.369 . S
C3618 C3622 1.531 . S
C3619 C3618 1.369 . S
C3619 C3620 1.410 . S
C3619 C3627 1.503 . S
C3620 C3619 1.410 . S
C3620 C3621 1.392 . S
C3620 C3623 1.511 . S
C3621 C3617 1.376 1_565 S
C3621 C3620 1.392 . S
C3621 H3633 0.929 . S
C3622 C3618 1.531 . S
C3622 H3634 0.960 . S
C3622 H3635 0.962 . S
C3622 H3636 0.960 1_565 S
C3623 C3620 1.511 . S
C3623 H3637 0.961 . S
C3623 H3638 0.961 . S
C3623 H3639 0.961 . S
C3624 C3625 1.370 . S
C3624 C3626 1.363 . S
C3624 H3640 0.931 . S
C3625 C3624 1.370 . S
C3625 C3629 1.408 . S
C3626 C3624 1.363 . S
C3626 C3627 1.370 . S
C3626 C3630 1.524 . S
C3627 C3619 1.503 . S
C3627 C3626 1.370 . S
C3627 C3628 1.403 . S
C3628 C3627 1.403 . S
C3628 C3629 1.404 . S
C3628 C3631 1.539 . S
C3629 C3625 1.408 . S
C3629 C3628 1.404 . S
C3629 H3641 0.930 . S
C3630 C3626 1.524 . S
C3630 H3642 0.956 . S
C3630 H3643 0.961 . S
C3630 H3644 0.961 . S
C3631 C3628 1.539 . S
C3631 H3645 0.958 . S
C3631 H3646 0.961 . S
C3631 H3647 0.960 . S
H3632 C3616 0.931 . S
H3633 C3621 0.929 . S
H3634 C3622 0.960 . S
H3635 C3622 0.962 . S
H3636 C3622 0.960 1_545 S
H3637 C3623 0.961 . S
H3638 C3623 0.961 . S
H3639 C3623 0.961 . S
H3640 C3624 0.931 . S
H3641 C3629 0.930 . S
H3642 C3630 0.956 . S
H3643 C3630 0.961 . S
H3644 C3630 0.961 . S
H3645 C3631 0.958 . S
H3646 C3631 0.961 . S
H3647 C3631 0.960 . S
C3648 C3649 1.391 . S
C3648 C3650 1.394 . S
C3648 H3664 0.931 . S
C3649 C3648 1.391 . S
C3649 C3653 1.376 . S
C3650 C3648 1.394 . S
C3650 C3651 1.369 . S
C3650 C3654 1.531 . S
C3651 C3650 1.369 . S
C3651 C3652 1.410 . S
C3651 C3659 1.503 . S
C3652 C3651 1.410 . S
C3652 C3653 1.392 . S
C3652 C3655 1.511 . S
C3653 C3649 1.376 . S
C3653 C3652 1.392 . S
C3653 H3665 0.929 . S
C3654 C3650 1.531 . S
C3654 H3666 0.960 . S
C3654 H3667 0.962 . S
C3654 H3668 0.960 . S
C3655 C3652 1.511 . S
C3655 H3669 0.961 . S
C3655 H3670 0.961 . S
C3655 H3671 0.961 . S
C3656 C3657 1.370 . S
C3656 C3658 1.363 . S
C3656 H3672 0.931 . S
C3657 C3656 1.370 . S
C3657 C3661 1.408 . S
C3658 C3656 1.363 . S
C3658 C3659 1.370 . S
C3658 C3662 1.524 . S
C3659 C3651 1.503 . S
C3659 C3658 1.370 . S
C3659 C3660 1.403 . S
C3660 C3659 1.403 . S
C3660 C3661 1.404 . S
C3660 C3663 1.539 . S
C3661 C3657 1.408 . S
C3661 C3660 1.404 . S
C3661 H3673 0.930 . S
C3662 C3658 1.524 . S
C3662 H3674 0.956 . S
C3662 H3675 0.961 . S
C3662 H3676 0.961 . S
C3663 C3660 1.539 . S
C3663 H3677 0.958 . S
C3663 H3678 0.961 . S
C3663 H3679 0.960 . S
H3664 C3648 0.931 . S
H3665 C3653 0.929 . S
H3666 C3654 0.960 . S
H3667 C3654 0.962 . S
H3668 C3654 0.960 . S
H3669 C3655 0.961 . S
H3670 C3655 0.961 . S
H3671 C3655 0.961 . S
H3672 C3656 0.931 . S
H3673 C3661 0.930 . S
H3674 C3662 0.956 . S
H3675 C3662 0.961 . S
H3676 C3662 0.961 . S
H3677 C3663 0.958 . S
H3678 C3663 0.961 . S
H3679 C3663 0.960 . S
C3680 C3681 1.391 . S
C3680 C3682 1.394 . S
C3680 H3696 0.931 . S
C3681 C3680 1.391 . S
C3681 C3685 1.376 . S
C3682 C3680 1.394 . S
C3682 C3683 1.369 . S
C3682 C3686 1.531 . S
C3683 C3682 1.369 . S
C3683 C3684 1.410 . S
C3683 C3691 1.503 . S
C3684 C3683 1.410 . S
C3684 C3685 1.392 . S
C3684 C3687 1.511 . S
C3685 C3681 1.376 . S
C3685 C3684 1.392 . S
C3685 H3697 0.929 . S
C3686 C3682 1.531 . S
C3686 H3698 0.960 . S
C3686 H3699 0.962 . S
C3686 H3700 0.960 . S
C3687 C3684 1.511 . S
C3687 H3701 0.961 . S
C3687 H3702 0.961 . S
C3687 H3703 0.961 . S
C3688 C3689 1.370 . S
C3688 C3690 1.363 . S
C3688 H3704 0.931 . S
C3689 C3688 1.370 . S
C3689 C3693 1.408 . S
C3690 C3688 1.363 . S
C3690 C3691 1.370 . S
C3690 C3694 1.524 . S
C3691 C3683 1.503 . S
C3691 C3690 1.370 . S
C3691 C3692 1.403 . S
C3692 C3691 1.403 . S
C3692 C3693 1.404 . S
C3692 C3695 1.539 . S
C3693 C3689 1.408 . S
C3693 C3692 1.404 . S
C3693 H3705 0.930 . S
C3694 C3690 1.524 . S
C3694 H3706 0.956 . S
C3694 H3707 0.961 . S
C3694 H3708 0.961 . S
C3695 C3692 1.539 . S
C3695 H3709 0.958 . S
C3695 H3710 0.961 . S
C3695 H3711 0.960 . S
H3696 C3680 0.931 . S
H3697 C3685 0.929 . S
H3698 C3686 0.960 . S
H3699 C3686 0.962 . S
H3700 C3686 0.960 . S
H3701 C3687 0.961 . S
H3702 C3687 0.961 . S
H3703 C3687 0.961 . S
H3704 C3688 0.931 . S
H3705 C3693 0.930 . S
H3706 C3694 0.956 . S
H3707 C3694 0.961 . S
H3708 C3694 0.961 . S
H3709 C3695 0.958 . S
H3710 C3695 0.961 . S
H3711 C3695 0.960 . S
C3712 C3713 1.391 . S
C3712 C3714 1.394 . S
C3712 H3728 0.931 . S
C3713 C3712 1.391 . S
C3713 C3717 1.376 . S
C3714 C3712 1.394 . S
C3714 C3715 1.369 . S
C3714 C3718 1.531 . S
C3715 C3714 1.369 . S
C3715 C3716 1.410 . S
C3715 C3723 1.503 . S
C3716 C3715 1.410 . S
C3716 C3717 1.392 . S
C3716 C3719 1.511 . S
C3717 C3713 1.376 . S
C3717 C3716 1.392 . S
C3717 H3729 0.929 . S
C3718 C3714 1.531 . S
C3718 H3730 0.960 . S
C3718 H3731 0.962 . S
C3718 H3732 0.960 . S
C3719 C3716 1.511 . S
C3719 H3733 0.961 . S
C3719 H3734 0.961 . S
C3719 H3735 0.961 . S
C3720 C3721 1.370 . S
C3720 C3722 1.363 . S
C3720 H3736 0.931 . S
C3721 C3720 1.370 . S
C3721 C3725 1.408 . S
C3722 C3720 1.363 . S
C3722 C3723 1.370 . S
C3722 C3726 1.524 . S
C3723 C3715 1.503 . S
C3723 C3722 1.370 . S
C3723 C3724 1.403 . S
C3724 C3723 1.403 . S
C3724 C3725 1.404 . S
C3724 C3727 1.539 . S
C3725 C3721 1.408 . S
C3725 C3724 1.404 . S
C3725 H3737 0.930 . S
C3726 C3722 1.524 . S
C3726 H3738 0.956 . S
C3726 H3739 0.961 . S
C3726 H3740 0.961 . S
C3727 C3724 1.539 . S
C3727 H3741 0.958 . S
C3727 H3742 0.961 . S
C3727 H3743 0.960 . S
H3728 C3712 0.931 . S
H3729 C3717 0.929 . S
H3730 C3718 0.960 . S
H3731 C3718 0.962 . S
H3732 C3718 0.960 . S
H3733 C3719 0.961 . S
H3734 C3719 0.961 . S
H3735 C3719 0.961 . S
H3736 C3720 0.931 . S
H3737 C3725 0.930 . S
H3738 C3726 0.956 . S
H3739 C3726 0.961 . S
H3740 C3726 0.961 . S
H3741 C3727 0.958 . S
H3742 C3727 0.961 . S
H3743 C3727 0.960 . S
C3744 C3745 1.391 . S
C3744 C3746 1.394 . S
C3744 H3760 0.931 . S
C3745 C3744 1.391 . S
C3745 C3749 1.376 . S
C3746 C3744 1.394 . S
C3746 C3747 1.369 . S
C3746 C3750 1.531 . S
C3747 C3746 1.369 . S
C3747 C3748 1.410 . S
C3747 C3755 1.503 . S
C3748 C3747 1.410 . S
C3748 C3749 1.392 . S
C3748 C3751 1.511 . S
C3749 C3745 1.376 . S
C3749 C3748 1.392 . S
C3749 H3761 0.929 . S
C3750 C3746 1.531 . S
C3750 H3762 0.960 . S
C3750 H3763 0.962 . S
C3750 H3764 0.960 . S
C3751 C3748 1.511 . S
C3751 H3765 0.961 . S
C3751 H3766 0.961 . S
C3751 H3767 0.961 . S
C3752 C3753 1.370 . S
C3752 C3754 1.363 . S
C3752 H3768 0.931 . S
C3753 C3752 1.370 . S
C3753 C3757 1.408 . S
C3754 C3752 1.363 . S
C3754 C3755 1.370 . S
C3754 C3758 1.524 . S
C3755 C3747 1.503 . S
C3755 C3754 1.370 . S
C3755 C3756 1.403 . S
C3756 C3755 1.403 . S
C3756 C3757 1.404 . S
C3756 C3759 1.539 . S
C3757 C3753 1.408 . S
C3757 C3756 1.404 . S
C3757 H3769 0.930 . S
C3758 C3754 1.524 . S
C3758 H3770 0.956 . S
C3758 H3771 0.961 . S
C3758 H3772 0.961 . S
C3759 C3756 1.539 . S
C3759 H3773 0.958 . S
C3759 H3774 0.961 . S
C3759 H3775 0.960 . S
H3760 C3744 0.931 . S
H3761 C3749 0.929 . S
H3762 C3750 0.960 . S
H3763 C3750 0.962 . S
H3764 C3750 0.960 . S
H3765 C3751 0.961 . S
H3766 C3751 0.961 . S
H3767 C3751 0.961 . S
H3768 C3752 0.931 . S
H3769 C3757 0.930 . S
H3770 C3758 0.956 . S
H3771 C3758 0.961 . S
H3772 C3758 0.961 . S
H3773 C3759 0.958 . S
H3774 C3759 0.961 . S
H3775 C3759 0.960 . S
C3776 C3777 1.391 . S
C3776 C3778 1.394 . S
C3776 H3792 0.931 . S
C3777 C3776 1.391 . S
C3777 C3781 1.376 . S
C3778 C3776 1.394 . S
C3778 C3779 1.369 . S
C3778 C3782 1.531 . S
C3779 C3778 1.369 . S
C3779 C3780 1.410 . S
C3779 C3787 1.503 . S
C3780 C3779 1.410 . S
C3780 C3781 1.392 . S
C3780 C3783 1.511 . S
C3781 C3777 1.376 . S
C3781 C3780 1.392 . S
C3781 H3793 0.929 . S
C3782 C3778 1.531 . S
C3782 H3794 0.960 . S
C3782 H3795 0.962 . S
C3782 H3796 0.960 . S
C3783 C3780 1.511 . S
C3783 H3797 0.961 . S
C3783 H3798 0.961 . S
C3783 H3799 0.961 . S
C3784 C3785 1.370 . S
C3784 C3786 1.363 . S
C3784 H3800 0.931 . S
C3785 C3784 1.370 . S
C3785 C3789 1.408 . S
C3786 C3784 1.363 . S
C3786 C3787 1.370 . S
C3786 C3790 1.524 . S
C3787 C3779 1.503 . S
C3787 C3786 1.370 . S
C3787 C3788 1.403 . S
C3788 C3787 1.403 . S
C3788 C3789 1.404 . S
C3788 C3791 1.539 . S
C3789 C3785 1.408 . S
C3789 C3788 1.404 . S
C3789 H3801 0.930 . S
C3790 C3786 1.524 . S
C3790 H3802 0.956 . S
C3790 H3803 0.961 . S
C3790 H3804 0.961 . S
C3791 C3788 1.539 . S
C3791 H3805 0.958 . S
C3791 H3806 0.961 . S
C3791 H3807 0.960 . S
H3792 C3776 0.931 . S
H3793 C3781 0.929 . S
H3794 C3782 0.960 . S
H3795 C3782 0.962 . S
H3796 C3782 0.960 . S
H3797 C3783 0.961 . S
H3798 C3783 0.961 . S
H3799 C3783 0.961 . S
H3800 C3784 0.931 . S
H3801 C3789 0.930 . S
H3802 C3790 0.956 . S
H3803 C3790 0.961 . S
H3804 C3790 0.961 . S
H3805 C3791 0.958 . S
H3806 C3791 0.961 . S
H3807 C3791 0.960 . S
C3808 C3809 1.391 . S
C3808 C3810 1.394 . S
C3808 H3824 0.931 . S
C3809 C3808 1.391 . S
C3809 C3813 1.356 1_455 S
C3810 C3808 1.394 . S
C3810 C3811 1.369 . S
C3810 C3814 1.531 . S
C3811 C3810 1.369 . S
C3811 C3812 1.407 1_456 S
C3811 C3819 1.503 . S
C3812 C3811 1.407 1_654 S
C3812 C3813 1.399 1_554 S
C3812 C3815 1.516 . S
C3813 C3809 1.356 1_655 S
C3813 C3812 1.399 1_556 S
C3813 H3825 0.942 1_556 S
C3814 C3810 1.531 . S
C3814 H3826 0.960 . S
C3814 H3827 0.962 . S
C3814 H3828 0.960 . S
C3815 C3812 1.516 . S
C3815 H3829 0.961 . S
C3815 H3830 0.961 . S
C3815 H3831 0.961 . S
C3816 C3817 1.370 . S
C3816 C3818 1.363 . S
C3816 H3832 0.931 . S
C3817 C3816 1.370 . S
C3817 C3821 1.428 1_554 S
C3818 C3816 1.363 . S
C3818 C3819 1.370 1_554 S
C3818 C3822 1.524 . S
C3819 C3811 1.503 . S
C3819 C3818 1.370 1_556 S
C3819 C3820 1.403 1_455 S
C3820 C3819 1.403 1_655 S
C3820 C3821 1.407 1_655 S
C3820 C3823 1.539 . S
C3821 C3817 1.428 1_556 S
C3821 C3820 1.407 1_455 S
C3821 H3833 0.908 1_455 S
C3822 C3818 1.524 . S
C3822 H3834 0.956 . S
C3822 H3835 0.961 . S
C3822 H3836 0.961 . S
C3823 C3820 1.539 . S
C3823 H3837 0.958 . S
C3823 H3838 0.961 . S
C3823 H3839 0.960 . S
H3824 C3808 0.931 . S
H3825 C3813 0.942 1_554 S
H3826 C3814 0.960 . S
H3827 C3814 0.962 . S
H3828 C3814 0.960 . S
H3829 C3815 0.961 . S
H3830 C3815 0.961 . S
H3831 C3815 0.961 . S
H3832 C3816 0.931 . S
H3833 C3821 0.908 1_655 S
H3834 C3822 0.956 . S
H3835 C3822 0.961 . S
H3836 C3822 0.961 . S
H3837 C3823 0.958 . S
H3838 C3823 0.961 . S
H3839 C3823 0.960 . S
C3840 C3841 1.391 . S
C3840 C3842 1.394 . S
C3840 H3856 0.931 1_655 S
C3841 C3840 1.391 . S
C3841 C3845 1.376 . S
C3842 C3840 1.394 . S
C3842 C3843 1.369 . S
C3842 C3846 1.531 . S
C3843 C3842 1.369 . S
C3843 C3844 1.410 . S
C3843 C3851 1.503 . S
C3844 C3843 1.410 . S
C3844 C3845 1.392 . S
C3844 C3847 1.511 . S
C3845 C3841 1.376 . S
C3845 C3844 1.392 . S
C3845 H3857 0.929 . S
C3846 C3842 1.531 . S
C3846 H3858 0.960 . S
C3846 H3859 0.962 . S
C3846 H3860 0.960 . S
C3847 C3844 1.511 . S
C3847 H3861 0.961 . S
C3847 H3862 0.961 . S
C3847 H3863 0.961 . S
C3848 C3849 1.370 . S
C3848 C3850 1.363 . S
C3848 H3864 0.931 . S
C3849 C3848 1.370 . S
C3849 C3853 1.408 . S
C3850 C3848 1.363 . S
C3850 C3851 1.370 . S
C3850 C3854 1.524 . S
C3851 C3843 1.503 . S
C3851 C3850 1.370 . S
C3851 C3852 1.403 . S
C3852 C3851 1.403 . S
C3852 C3853 1.404 . S
C3852 C3855 1.539 . S
C3853 C3849 1.408 . S
C3853 C3852 1.404 . S
C3853 H3865 0.930 . S
C3854 C3850 1.524 . S
C3854 H3866 0.956 . S
C3854 H3867 0.961 . S
C3854 H3868 0.961 . S
C3855 C3852 1.539 . S
C3855 H3869 0.958 . S
C3855 H3870 0.961 . S
C3855 H3871 0.960 . S
H3856 C3840 0.931 1_455 S
H3857 C3845 0.929 . S
H3858 C3846 0.960 . S
H3859 C3846 0.962 . S
H3860 C3846 0.960 . S
H3861 C3847 0.961 . S
H3862 C3847 0.961 . S
H3863 C3847 0.961 . S
H3864 C3848 0.931 . S
H3865 C3853 0.930 . S
H3866 C3854 0.956 . S
H3867 C3854 0.961 . S
H3868 C3854 0.961 . S
H3869 C3855 0.958 . S
H3870 C3855 0.961 . S
H3871 C3855 0.960 . S
C3872 C3873 1.391 . S
C3872 C3874 1.394 . S
C3872 H3888 0.931 . S
C3873 C3872 1.391 . S
C3873 C3877 1.376 . S
C3874 C3872 1.394 . S
C3874 C3875 1.369 . S
C3874 C3878 1.531 . S
C3875 C3874 1.369 . S
C3875 C3876 1.410 . S
C3875 C3883 1.503 . S
C3876 C3875 1.410 . S
C3876 C3877 1.392 . S
C3876 C3879 1.511 . S
C3877 C3873 1.376 . S
C3877 C3876 1.392 . S
C3877 H3889 0.929 . S
C3878 C3874 1.531 . S
C3878 H3890 0.960 . S
C3878 H3891 0.962 . S
C3878 H3892 0.960 . S
C3879 C3876 1.511 . S
C3879 H3893 0.961 . S
C3879 H3894 0.961 . S
C3879 H3895 0.961 . S
C3880 C3881 1.370 . S
C3880 C3882 1.363 . S
C3880 H3896 0.931 . S
C3881 C3880 1.370 . S
C3881 C3885 1.408 . S
C3882 C3880 1.363 . S
C3882 C3883 1.370 . S
C3882 C3886 1.524 . S
C3883 C3875 1.503 . S
C3883 C3882 1.370 . S
C3883 C3884 1.403 . S
C3884 C3883 1.403 . S
C3884 C3885 1.404 . S
C3884 C3887 1.539 . S
C3885 C3881 1.408 . S
C3885 C3884 1.404 . S
C3885 H3897 0.930 . S
C3886 C3882 1.524 . S
C3886 H3898 0.956 . S
C3886 H3899 0.961 . S
C3886 H3900 0.961 . S
C3887 C3884 1.539 . S
C3887 H3901 0.958 . S
C3887 H3902 0.961 . S
C3887 H3903 0.960 . S
H3888 C3872 0.931 . S
H3889 C3877 0.929 . S
H3890 C3878 0.960 . S
H3891 C3878 0.962 . S
H3892 C3878 0.960 . S
H3893 C3879 0.961 . S
H3894 C3879 0.961 . S
H3895 C3879 0.961 . S
H3896 C3880 0.931 . S
H3897 C3885 0.930 . S
H3898 C3886 0.956 . S
H3899 C3886 0.961 . S
H3900 C3886 0.961 . S
H3901 C3887 0.958 . S
H3902 C3887 0.961 . S
H3903 C3887 0.960 . S
C3904 C3905 1.391 . S
C3904 C3906 1.394 . S
C3904 H3920 0.931 . S
C3905 C3904 1.391 . S
C3905 C3909 1.376 . S
C3906 C3904 1.394 . S
C3906 C3907 1.369 . S
C3906 C3910 1.531 . S
C3907 C3906 1.369 . S
C3907 C3908 1.410 . S
C3907 C3915 1.503 . S
C3908 C3907 1.410 . S
C3908 C3909 1.392 . S
C3908 C3911 1.511 . S
C3909 C3905 1.376 . S
C3909 C3908 1.392 . S
C3909 H3921 0.929 . S
C3910 C3906 1.531 . S
C3910 H3922 0.960 . S
C3910 H3923 0.962 . S
C3910 H3924 0.960 . S
C3911 C3908 1.511 . S
C3911 H3925 0.961 . S
C3911 H3926 0.961 . S
C3911 H3927 0.961 . S
C3912 C3913 1.370 . S
C3912 C3914 1.363 . S
C3912 H3928 0.931 . S
C3913 C3912 1.370 . S
C3913 C3917 1.408 . S
C3914 C3912 1.363 . S
C3914 C3915 1.370 . S
C3914 C3918 1.524 . S
C3915 C3907 1.503 . S
C3915 C3914 1.370 . S
C3915 C3916 1.403 . S
C3916 C3915 1.403 . S
C3916 C3917 1.404 . S
C3916 C3919 1.539 . S
C3917 C3913 1.408 . S
C3917 C3916 1.404 . S
C3917 H3929 0.930 . S
C3918 C3914 1.524 . S
C3918 H3930 0.956 . S
C3918 H3931 0.961 . S
C3918 H3932 0.961 . S
C3919 C3916 1.539 . S
C3919 H3933 0.958 . S
C3919 H3934 0.961 . S
C3919 H3935 0.960 . S
H3920 C3904 0.931 . S
H3921 C3909 0.929 . S
H3922 C3910 0.960 . S
H3923 C3910 0.962 . S
H3924 C3910 0.960 . S
H3925 C3911 0.961 . S
H3926 C3911 0.961 . S
H3927 C3911 0.961 . S
H3928 C3912 0.931 . S
H3929 C3917 0.930 . S
H3930 C3918 0.956 . S
H3931 C3918 0.961 . S
H3932 C3918 0.961 . S
H3933 C3919 0.958 . S
H3934 C3919 0.961 . S
H3935 C3919 0.960 . S
C3936 C3937 1.391 . S
C3936 C3938 1.394 . S
C3936 H3952 0.931 . S
C3937 C3936 1.391 . S
C3937 C3941 1.376 1_455 S
C3938 C3936 1.394 . S
C3938 C3939 1.369 . S
C3938 C3942 1.531 . S
C3939 C3938 1.369 . S
C3939 C3940 1.410 1_455 S
C3939 C3947 1.503 . S
C3940 C3939 1.410 1_655 S
C3940 C3941 1.392 . S
C3940 C3943 1.511 . S
C3941 C3937 1.376 1_655 S
C3941 C3940 1.392 . S
C3941 H3953 0.929 . S
C3942 C3938 1.531 . S
C3942 H3954 0.960 . S
C3942 H3955 0.962 . S
C3942 H3956 0.960 . S
C3943 C3940 1.511 . S
C3943 H3957 0.961 . S
C3943 H3958 0.961 . S
C3943 H3959 0.961 . S
C3944 C3945 1.370 . S
C3944 C3946 1.363 . S
C3944 H3960 0.931 . S
C3945 C3944 1.370 . S
C3945 C3949 1.408 . S
C3946 C3944 1.363 . S
C3946 C3947 1.370 . S
C3946 C3950 1.524 . S
C3947 C3939 1.503 . S
C3947 C3946 1.370 . S
C3947 C3948 1.403 . S
C3948 C3947 1.403 . S
C3948 C3949 1.404 . S
C3948 C3951 1.539 1_455 S
C3949 C3945 1.408 . S
C3949 C3948 1.404 . S
C3949 H3961 0.917 1_455 S
C3950 C3946 1.524 . S
C3950 H3962 0.956 . S
C3950 H3963 0.961 . S
C3950 H3964 0.961 . S
C3951 C3948 1.539 1_655 S
C3951 H3965 0.958 . S
C3951 H3966 0.961 . S
C3951 H3967 0.960 . S
H3952 C3936 0.931 . S
H3953 C3941 0.929 . S
H3954 C3942 0.960 . S
H3955 C3942 0.962 . S
H3956 C3942 0.960 . S
H3957 C3943 0.961 . S
H3958 C3943 0.961 . S
H3959 C3943 0.961 . S
H3960 C3944 0.931 . S
H3961 C3949 0.917 1_655 S
H3962 C3950 0.956 . S
H3963 C3950 0.961 . S
H3964 C3950 0.961 . S
H3965 C3951 0.958 . S
H3966 C3951 0.961 . S
H3967 C3951 0.960 . S
C3968 C3969 1.391 . S
C3968 C3970 1.394 . S
C3968 H3984 0.931 . S
C3969 C3968 1.391 . S
C3969 C3973 1.376 . S
C3970 C3968 1.394 . S
C3970 C3971 1.369 . S
C3970 C3974 1.531 . S
C3971 C3970 1.369 . S
C3971 C3972 1.410 . S
C3971 C3979 1.503 . S
C3972 C3971 1.410 . S
C3972 C3973 1.392 . S
C3972 C3975 1.511 . S
C3973 C3969 1.376 . S
C3973 C3972 1.392 . S
C3973 H3985 0.929 . S
C3974 C3970 1.531 . S
C3974 H3986 0.960 . S
C3974 H3987 0.962 . S
C3974 H3988 0.960 . S
C3975 C3972 1.511 . S
C3975 H3989 0.961 . S
C3975 H3990 0.961 . S
C3975 H3991 0.961 . S
C3976 C3977 1.370 . S
C3976 C3978 1.363 . S
C3976 H3992 0.931 . S
C3977 C3976 1.370 . S
C3977 C3981 1.408 . S
C3978 C3976 1.363 . S
C3978 C3979 1.370 . S
C3978 C3982 1.524 . S
C3979 C3971 1.503 . S
C3979 C3978 1.370 . S
C3979 C3980 1.403 . S
C3980 C3979 1.403 . S
C3980 C3981 1.404 . S
C3980 C3983 1.539 . S
C3981 C3977 1.408 . S
C3981 C3980 1.404 . S
C3981 H3993 0.930 . S
C3982 C3978 1.524 . S
C3982 H3994 0.956 . S
C3982 H3995 0.961 . S
C3982 H3996 0.961 . S
C3983 C3980 1.539 . S
C3983 H3997 0.958 . S
C3983 H3998 0.961 . S
C3983 H3999 0.960 . S
H3984 C3968 0.931 . S
H3985 C3973 0.929 . S
H3986 C3974 0.960 . S
H3987 C3974 0.962 . S
H3988 C3974 0.960 . S
H3989 C3975 0.961 . S
H3990 C3975 0.961 . S
H3991 C3975 0.961 . S
H3992 C3976 0.931 . S
H3993 C3981 0.930 . S
H3994 C3982 0.956 . S
H3995 C3982 0.961 . S
H3996 C3982 0.961 . S
H3997 C3983 0.958 . S
H3998 C3983 0.961 . S
H3999 C3983 0.960 . S
C4000 C4001 1.391 . S
C4000 C4002 1.394 . S
C4000 H4016 0.931 . S
C4001 C4000 1.391 . S
C4001 C4005 1.376 . S
C4002 C4000 1.394 . S
C4002 C4003 1.369 . S
C4002 C4006 1.531 . S
C4003 C4002 1.369 . S
C4003 C4004 1.410 . S
C4003 C4011 1.503 . S
C4004 C4003 1.410 . S
C4004 C4005 1.392 . S
C4004 C4007 1.511 . S
C4005 C4001 1.376 . S
C4005 C4004 1.392 . S
C4005 H4017 0.929 . S
C4006 C4002 1.531 . S
C4006 H4018 0.960 . S
C4006 H4019 0.962 . S
C4006 H4020 0.960 . S
C4007 C4004 1.511 . S
C4007 H4021 0.961 . S
C4007 H4022 0.961 . S
C4007 H4023 0.961 . S
C4008 C4009 1.370 . S
C4008 C4010 1.363 . S
C4008 H4024 0.931 . S
C4009 C4008 1.370 . S
C4009 C4013 1.408 . S
C4010 C4008 1.363 . S
C4010 C4011 1.370 . S
C4010 C4014 1.524 . S
C4011 C4003 1.503 . S
C4011 C4010 1.370 . S
C4011 C4012 1.403 . S
C4012 C4011 1.403 . S
C4012 C4013 1.404 . S
C4012 C4015 1.539 . S
C4013 C4009 1.408 . S
C4013 C4012 1.404 . S
C4013 H4025 0.930 . S
C4014 C4010 1.524 . S
C4014 H4026 0.956 . S
C4014 H4027 0.961 . S
C4014 H4028 0.961 . S
C4015 C4012 1.539 . S
C4015 H4029 0.958 . S
C4015 H4030 0.961 . S
C4015 H4031 0.960 . S
H4016 C4000 0.931 . S
H4017 C4005 0.929 . S
H4018 C4006 0.960 . S
H4019 C4006 0.962 . S
H4020 C4006 0.960 . S
H4021 C4007 0.961 . S
H4022 C4007 0.961 . S
H4023 C4007 0.961 . S
H4024 C4008 0.931 . S
H4025 C4013 0.930 . S
H4026 C4014 0.956 . S
H4027 C4014 0.961 . S
H4028 C4014 0.961 . S
H4029 C4015 0.958 . S
H4030 C4015 0.961 . S
H4031 C4015 0.960 . S
C4032 C4033 1.391 1_556 S
C4032 C4034 1.394 . S
C4032 H4048 0.931 . S
C4033 C4032 1.391 1_554 S
C4033 C4037 1.376 1_554 S
C4034 C4032 1.394 . S
C4034 C4035 1.369 . S
C4034 C4038 1.531 . S
C4035 C4034 1.369 . S
C4035 C4036 1.410 . S
C4035 C4043 1.503 . S
C4036 C4035 1.410 . S
C4036 C4037 1.392 . S
C4036 C4039 1.511 . S
C4037 C4033 1.376 1_556 S
C4037 C4036 1.392 . S
C4037 H4049 0.929 1_556 S
C4038 C4034 1.531 . S
C4038 H4050 0.960 . S
C4038 H4051 0.962 . S
C4038 H4052 0.960 . S
C4039 C4036 1.511 . S
C4039 H4053 0.961 . S
C4039 H4054 0.961 . S
C4039 H4055 0.961 . S
C4040 C4041 1.370 . S
C4040 C4042 1.363 . S
C4040 H4056 0.931 . S
C4041 C4040 1.370 . S
C4041 C4045 1.408 . S
C4042 C4040 1.363 . S
C4042 C4043 1.370 . S
C4042 C4046 1.524 . S
C4043 C4035 1.503 . S
C4043 C4042 1.370 . S
C4043 C4044 1.403 . S
C4044 C4043 1.403 . S
C4044 C4045 1.404 . S
C4044 C4047 1.539 . S
C4045 C4041 1.408 . S
C4045 C4044 1.404 . S
C4045 H4057 0.930 . S
C4046 C4042 1.524 . S
C4046 H4058 0.956 . S
C4046 H4059 0.961 . S
C4046 H4060 0.961 . S
C4047 C4044 1.539 . S
C4047 H4061 0.958 . S
C4047 H4062 0.961 . S
C4047 H4063 0.960 . S
H4048 C4032 0.931 . S
H4049 C4037 0.929 1_554 S
H4050 C4038 0.960 . S
H4051 C4038 0.962 . S
H4052 C4038 0.960 . S
H4053 C4039 0.961 . S
H4054 C4039 0.961 . S
H4055 C4039 0.961 . S
H4056 C4040 0.931 . S
H4057 C4045 0.930 . S
H4058 C4046 0.956 . S
H4059 C4046 0.961 . S
H4060 C4046 0.961 . S
H4061 C4047 0.958 . S
H4062 C4047 0.961 . S
H4063 C4047 0.960 . S
C4064 C4065 1.391 . S
C4064 C4066 1.394 . S
C4064 H4080 0.931 . S
C4065 C4064 1.391 . S
C4065 C4069 1.376 . S
C4066 C4064 1.394 . S
C4066 C4067 1.369 . S
C4066 C4070 1.531 . S
C4067 C4066 1.369 . S
C4067 C4068 1.410 . S
C4067 C4075 1.503 . S
C4068 C4067 1.410 . S
C4068 C4069 1.392 . S
C4068 C4071 1.511 . S
C4069 C4065 1.376 . S
C4069 C4068 1.392 . S
C4069 H4081 0.929 . S
C4070 C4066 1.531 . S
C4070 H4082 0.960 . S
C4070 H4083 0.962 . S
C4070 H4084 0.960 . S
C4071 C4068 1.511 . S
C4071 H4085 0.961 . S
C4071 H4086 0.961 . S
C4071 H4087 0.961 . S
C4072 C4073 1.370 . S
C4072 C4074 1.363 . S
C4072 H4088 0.931 . S
C4073 C4072 1.370 . S
C4073 C4077 1.408 . S
C4074 C4072 1.363 . S
C4074 C4075 1.370 . S
C4074 C4078 1.524 . S
C4075 C4067 1.503 . S
C4075 C4074 1.370 . S
C4075 C4076 1.403 . S
C4076 C4075 1.403 . S
C4076 C4077 1.404 . S
C4076 C4079 1.539 . S
C4077 C4073 1.408 . S
C4077 C4076 1.404 . S
C4077 H4089 0.930 . S
C4078 C4074 1.524 . S
C4078 H4090 0.956 . S
C4078 H4091 0.961 . S
C4078 H4092 0.961 . S
C4079 C4076 1.539 . S
C4079 H4093 0.958 . S
C4079 H4094 0.961 . S
C4079 H4095 0.960 . S
H4080 C4064 0.931 . S
H4081 C4069 0.929 . S
H4082 C4070 0.960 . S
H4083 C4070 0.962 . S
H4084 C4070 0.960 . S
H4085 C4071 0.961 . S
H4086 C4071 0.961 . S
H4087 C4071 0.961 . S
H4088 C4072 0.931 . S
H4089 C4077 0.930 . S
H4090 C4078 0.956 . S
H4091 C4078 0.961 . S
H4092 C4078 0.961 . S
H4093 C4079 0.958 . S
H4094 C4079 0.961 . S
H4095 C4079 0.960 . S
C4096 C4097 1.391 . S
C4096 C4098 1.394 . S
C4096 H4112 0.931 . S
C4097 C4096 1.391 . S
C4097 C4101 1.376 . S
C4098 C4096 1.394 . S
C4098 C4099 1.369 . S
C4098 C4102 1.531 . S
C4099 C4098 1.369 . S
C4099 C4100 1.410 . S
C4099 C4107 1.503 . S
C4100 C4099 1.410 . S
C4100 C4101 1.392 . S
C4100 C4103 1.511 . S
C4101 C4097 1.376 . S
C4101 C4100 1.392 . S
C4101 H4113 0.929 . S
C4102 C4098 1.531 . S
C4102 H4114 0.960 . S
C4102 H4115 0.962 . S
C4102 H4116 0.960 . S
C4103 C4100 1.511 . S
C4103 H4117 0.961 . S
C4103 H4118 0.961 . S
C4103 H4119 0.961 . S
C4104 C4105 1.370 . S
C4104 C4106 1.363 . S
C4104 H4120 0.931 . S
C4105 C4104 1.370 . S
C4105 C4109 1.408 . S
C4106 C4104 1.363 . S
C4106 C4107 1.370 . S
C4106 C4110 1.524 . S
C4107 C4099 1.503 . S
C4107 C4106 1.370 . S
C4107 C4108 1.403 . S
C4108 C4107 1.403 . S
C4108 C4109 1.404 . S
C4108 C4111 1.539 . S
C4109 C4105 1.408 . S
C4109 C4108 1.404 . S
C4109 H4121 0.930 . S
C4110 C4106 1.524 . S
C4110 H4122 0.956 . S
C4110 H4123 0.961 . S
C4110 H4124 0.961 . S
C4111 C4108 1.539 . S
C4111 H4125 0.958 . S
C4111 H4126 0.961 . S
C4111 H4127 0.960 . S
H4112 C4096 0.931 . S
H4113 C4101 0.929 . S
H4114 C4102 0.960 . S
H4115 C4102 0.962 . S
H4116 C4102 0.960 . S
H4117 C4103 0.961 . S
H4118 C4103 0.961 . S
H4119 C4103 0.961 . S
H4120 C4104 0.931 . S
H4121 C4109 0.930 . S
H4122 C4110 0.956 . S
H4123 C4110 0.961 . S
H4124 C4110 0.961 . S
H4125 C4111 0.958 . S
H4126 C4111 0.961 . S
H4127 C4111 0.960 . S
C4128 C4129 1.391 . S
C4128 C4130 1.394 . S
C4128 H4144 0.931 . S
C4129 C4128 1.391 . S
C4129 C4133 1.376 . S
C4130 C4128 1.394 . S
C4130 C4131 1.369 . S
C4130 C4134 1.531 . S
C4131 C4130 1.369 . S
C4131 C4132 1.410 . S
C4131 C4139 1.503 . S
C4132 C4131 1.410 . S
C4132 C4133 1.392 . S
C4132 C4135 1.511 . S
C4133 C4129 1.376 . S
C4133 C4132 1.392 . S
C4133 H4145 0.929 . S
C4134 C4130 1.531 . S
C4134 H4146 0.960 . S
C4134 H4147 0.962 . S
C4134 H4148 0.960 . S
C4135 C4132 1.511 . S
C4135 H4149 0.961 . S
C4135 H4150 0.961 . S
C4135 H4151 0.961 . S
C4136 C4137 1.370 . S
C4136 C4138 1.363 . S
C4136 H4152 0.931 . S
C4137 C4136 1.370 . S
C4137 C4141 1.408 . S
C4138 C4136 1.363 . S
C4138 C4139 1.370 . S
C4138 C4142 1.524 . S
C4139 C4131 1.503 . S
C4139 C4138 1.370 . S
C4139 C4140 1.403 . S
C4140 C4139 1.403 . S
C4140 C4141 1.404 . S
C4140 C4143 1.539 . S
C4141 C4137 1.408 . S
C4141 C4140 1.404 . S
C4141 H4153 0.930 . S
C4142 C4138 1.524 . S
C4142 H4154 0.956 . S
C4142 H4155 0.961 . S
C4142 H4156 0.961 . S
C4143 C4140 1.539 . S
C4143 H4157 0.958 . S
C4143 H4158 0.961 . S
C4143 H4159 0.960 . S
H4144 C4128 0.931 . S
H4145 C4133 0.929 . S
H4146 C4134 0.960 . S
H4147 C4134 0.962 . S
H4148 C4134 0.960 . S
H4149 C4135 0.961 . S
H4150 C4135 0.961 . S
H4151 C4135 0.961 . S
H4152 C4136 0.931 . S
H4153 C4141 0.930 . S
H4154 C4142 0.956 . S
H4155 C4142 0.961 . S
H4156 C4142 0.961 . S
H4157 C4143 0.958 . S
H4158 C4143 0.961 . S
H4159 C4143 0.960 . S
C4160 C4161 1.391 . S
C4160 C4162 1.394 . S
C4160 H4176 0.931 . S
C4161 C4160 1.391 . S
C4161 C4165 1.376 . S
C4162 C4160 1.394 . S
C4162 C4163 1.369 . S
C4162 C4166 1.531 . S
C4163 C4162 1.369 . S
C4163 C4164 1.410 . S
C4163 C4171 1.503 . S
C4164 C4163 1.410 . S
C4164 C4165 1.392 . S
C4164 C4167 1.511 . S
C4165 C4161 1.376 . S
C4165 C4164 1.392 . S
C4165 H4177 0.929 . S
C4166 C4162 1.531 . S
C4166 H4178 0.960 . S
C4166 H4179 0.962 . S
C4166 H4180 0.960 . S
C4167 C4164 1.511 . S
C4167 H4181 0.961 . S
C4167 H4182 0.961 . S
C4167 H4183 0.961 . S
C4168 C4169 1.370 . S
C4168 C4170 1.363 . S
C4168 H4184 0.931 . S
C4169 C4168 1.370 . S
C4169 C4173 1.408 . S
C4170 C4168 1.363 . S
C4170 C4171 1.370 . S
C4170 C4174 1.524 . S
C4171 C4163 1.503 . S
C4171 C4170 1.370 . S
C4171 C4172 1.403 . S
C4172 C4171 1.403 . S
C4172 C4173 1.404 . S
C4172 C4175 1.539 . S
C4173 C4169 1.408 . S
C4173 C4172 1.404 . S
C4173 H4185 0.930 . S
C4174 C4170 1.524 . S
C4174 H4186 0.956 . S
C4174 H4187 0.961 . S
C4174 H4188 0.961 . S
C4175 C4172 1.539 . S
C4175 H4189 0.958 . S
C4175 H4190 0.961 . S
C4175 H4191 0.960 . S
H4176 C4160 0.931 . S
H4177 C4165 0.929 . S
H4178 C4166 0.960 . S
H4179 C4166 0.962 . S
H4180 C4166 0.960 . S
H4181 C4167 0.961 . S
H4182 C4167 0.961 . S
H4183 C4167 0.961 . S
H4184 C4168 0.931 . S
H4185 C4173 0.930 . S
H4186 C4174 0.956 . S
H4187 C4174 0.961 . S
H4188 C4174 0.961 . S
H4189 C4175 0.958 . S
H4190 C4175 0.961 . S
H4191 C4175 0.960 . S
C4192 C4193 1.391 . S
C4192 C4194 1.394 . S
C4192 H4208 0.931 . S
C4193 C4192 1.391 . S
C4193 C4197 1.376 . S
C4194 C4192 1.394 . S
C4194 C4195 1.369 . S
C4194 C4198 1.531 . S
C4195 C4194 1.369 . S
C4195 C4196 1.410 . S
C4195 C4203 1.503 . S
C4196 C4195 1.410 . S
C4196 C4197 1.392 . S
C4196 C4199 1.511 . S
C4197 C4193 1.376 . S
C4197 C4196 1.392 . S
C4197 H4209 0.929 . S
C4198 C4194 1.531 . S
C4198 H4210 0.960 . S
C4198 H4211 0.962 . S
C4198 H4212 0.960 . S
C4199 C4196 1.511 . S
C4199 H4213 0.961 . S
C4199 H4214 0.961 . S
C4199 H4215 0.961 . S
C4200 C4201 1.370 . S
C4200 C4202 1.363 . S
C4200 H4216 0.931 . S
C4201 C4200 1.370 . S
C4201 C4205 1.408 . S
C4202 C4200 1.363 . S
C4202 C4203 1.370 . S
C4202 C4206 1.524 . S
C4203 C4195 1.503 . S
C4203 C4202 1.370 . S
C4203 C4204 1.403 . S
C4204 C4203 1.403 . S
C4204 C4205 1.404 . S
C4204 C4207 1.539 . S
C4205 C4201 1.408 . S
C4205 C4204 1.404 . S
C4205 H4217 0.930 . S
C4206 C4202 1.524 . S
C4206 H4218 0.956 . S
C4206 H4219 0.961 . S
C4206 H4220 0.961 . S
C4207 C4204 1.539 . S
C4207 H4221 0.958 . S
C4207 H4222 0.961 . S
C4207 H4223 0.960 . S
H4208 C4192 0.931 . S
H4209 C4197 0.929 . S
H4210 C4198 0.960 . S
H4211 C4198 0.962 . S
H4212 C4198 0.960 . S
H4213 C4199 0.961 . S
H4214 C4199 0.961 . S
H4215 C4199 0.961 . S
H4216 C4200 0.931 . S
H4217 C4205 0.930 . S
H4218 C4206 0.956 . S
H4219 C4206 0.961 . S
H4220 C4206 0.961 . S
H4221 C4207 0.958 . S
H4222 C4207 0.961 . S
H4223 C4207 0.960 . S
C4224 C4225 1.391 . S
C4224 C4226 1.394 . S
C4224 H4240 0.931 . S
C4225 C4224 1.391 . S
C4225 C4229 1.376 . S
C4226 C4224 1.394 . S
C4226 C4227 1.369 . S
C4226 C4230 1.531 . S
C4227 C4226 1.369 . S
C4227 C4228 1.410 . S
C4227 C4235 1.503 . S
C4228 C4227 1.410 . S
C4228 C4229 1.392 . S
C4228 C4231 1.511 . S
C4229 C4225 1.376 . S
C4229 C4228 1.392 . S
C4229 H4241 0.929 . S
C4230 C4226 1.531 . S
C4230 H4242 0.960 . S
C4230 H4243 0.962 . S
C4230 H4244 0.960 . S
C4231 C4228 1.511 . S
C4231 H4245 0.961 . S
C4231 H4246 0.961 . S
C4231 H4247 0.961 . S
C4232 C4233 1.370 . S
C4232 C4234 1.363 . S
C4232 H4248 0.931 . S
C4233 C4232 1.370 . S
C4233 C4237 1.408 . S
C4234 C4232 1.363 . S
C4234 C4235 1.370 . S
C4234 C4238 1.524 . S
C4235 C4227 1.503 . S
C4235 C4234 1.370 . S
C4235 C4236 1.403 . S
C4236 C4235 1.403 . S
C4236 C4237 1.404 . S
C4236 C4239 1.539 . S
C4237 C4233 1.408 . S
C4237 C4236 1.404 . S
C4237 H4249 0.930 . S
C4238 C4234 1.524 . S
C4238 H4250 0.956 . S
C4238 H4251 0.961 . S
C4238 H4252 0.961 . S
C4239 C4236 1.539 . S
C4239 H4253 0.958 . S
C4239 H4254 0.961 . S
C4239 H4255 0.960 . S
H4240 C4224 0.931 . S
H4241 C4229 0.929 . S
H4242 C4230 0.960 . S
H4243 C4230 0.962 . S
H4244 C4230 0.960 . S
H4245 C4231 0.961 . S
H4246 C4231 0.961 . S
H4247 C4231 0.961 . S
H4248 C4232 0.931 . S
H4249 C4237 0.930 . S
H4250 C4238 0.956 . S
H4251 C4238 0.961 . S
H4252 C4238 0.961 . S
H4253 C4239 0.958 . S
H4254 C4239 0.961 . S
H4255 C4239 0.960 . S
C4256 C4257 1.391 . S
C4256 C4258 1.394 . S
C4256 H4272 0.931 . S
C4257 C4256 1.391 . S
C4257 C4261 1.376 . S
C4258 C4256 1.394 . S
C4258 C4259 1.369 . S
C4258 C4262 1.531 . S
C4259 C4258 1.369 . S
C4259 C4260 1.410 . S
C4259 C4267 1.503 . S
C4260 C4259 1.410 . S
C4260 C4261 1.392 . S
C4260 C4263 1.511 . S
C4261 C4257 1.376 . S
C4261 C4260 1.392 . S
C4261 H4273 0.929 . S
C4262 C4258 1.531 . S
C4262 H4274 0.960 . S
C4262 H4275 0.962 . S
C4262 H4276 0.960 . S
C4263 C4260 1.511 . S
C4263 H4277 0.961 . S
C4263 H4278 0.961 . S
C4263 H4279 0.961 . S
C4264 C4265 1.370 . S
C4264 C4266 1.363 . S
C4264 H4280 0.931 . S
C4265 C4264 1.370 . S
C4265 C4269 1.408 . S
C4266 C4264 1.363 . S
C4266 C4267 1.370 . S
C4266 C4270 1.524 . S
C4267 C4259 1.503 . S
C4267 C4266 1.370 . S
C4267 C4268 1.403 . S
C4268 C4267 1.403 . S
C4268 C4269 1.404 . S
C4268 C4271 1.539 . S
C4269 C4265 1.408 . S
C4269 C4268 1.404 . S
C4269 H4281 0.930 . S
C4270 C4266 1.524 . S
C4270 H4282 0.956 . S
C4270 H4283 0.961 . S
C4270 H4284 0.961 . S
C4271 C4268 1.539 . S
C4271 H4285 0.958 . S
C4271 H4286 0.961 . S
C4271 H4287 0.960 . S
H4272 C4256 0.931 . S
H4273 C4261 0.929 . S
H4274 C4262 0.960 . S
H4275 C4262 0.962 . S
H4276 C4262 0.960 . S
H4277 C4263 0.961 . S
H4278 C4263 0.961 . S
H4279 C4263 0.961 . S
H4280 C4264 0.931 . S
H4281 C4269 0.930 . S
H4282 C4270 0.956 . S
H4283 C4270 0.961 . S
H4284 C4270 0.961 . S
H4285 C4271 0.958 . S
H4286 C4271 0.961 . S
H4287 C4271 0.960 . S
C4288 C4289 1.391 . S
C4288 C4290 1.394 . S
C4288 H4304 0.931 . S
C4289 C4288 1.391 . S
C4289 C4293 1.376 . S
C4290 C4288 1.394 . S
C4290 C4291 1.369 . S
C4290 C4294 1.531 . S
C4291 C4290 1.369 . S
C4291 C4292 1.410 . S
C4291 C4299 1.503 . S
C4292 C4291 1.410 . S
C4292 C4293 1.392 . S
C4292 C4295 1.511 . S
C4293 C4289 1.376 . S
C4293 C4292 1.392 . S
C4293 H4305 0.929 . S
C4294 C4290 1.531 . S
C4294 H4306 0.960 . S
C4294 H4307 0.962 . S
C4294 H4308 0.960 . S
C4295 C4292 1.511 . S
C4295 H4309 0.961 . S
C4295 H4310 0.961 . S
C4295 H4311 0.961 . S
C4296 C4297 1.370 . S
C4296 C4298 1.363 . S
C4296 H4312 0.931 . S
C4297 C4296 1.370 . S
C4297 C4301 1.408 . S
C4298 C4296 1.363 . S
C4298 C4299 1.370 . S
C4298 C4302 1.524 . S
C4299 C4291 1.503 . S
C4299 C4298 1.370 . S
C4299 C4300 1.403 . S
C4300 C4299 1.403 . S
C4300 C4301 1.404 . S
C4300 C4303 1.539 . S
C4301 C4297 1.408 . S
C4301 C4300 1.404 . S
C4301 H4313 0.930 . S
C4302 C4298 1.524 . S
C4302 H4314 0.956 . S
C4302 H4315 0.961 . S
C4302 H4316 0.961 . S
C4303 C4300 1.539 . S
C4303 H4317 0.958 . S
C4303 H4318 0.961 . S
C4303 H4319 0.960 . S
H4304 C4288 0.931 . S
H4305 C4293 0.929 . S
H4306 C4294 0.960 . S
H4307 C4294 0.962 . S
H4308 C4294 0.960 . S
H4309 C4295 0.961 . S
H4310 C4295 0.961 . S
H4311 C4295 0.961 . S
H4312 C4296 0.931 . S
H4313 C4301 0.930 . S
H4314 C4302 0.956 . S
H4315 C4302 0.961 . S
H4316 C4302 0.961 . S
H4317 C4303 0.958 . S
H4318 C4303 0.961 . S
H4319 C4303 0.960 . S
C4320 C4321 1.391 . S
C4320 C4322 1.394 . S
C4320 H4336 0.931 1_565 S
C4321 C4320 1.391 . S
C4321 C4325 1.376 . S
C4322 C4320 1.394 . S
C4322 C4323 1.369 . S
C4322 C4326 1.531 . S
C4323 C4322 1.369 . S
C4323 C4324 1.410 . S
C4323 C4331 1.503 . S
C4324 C4323 1.410 . S
C4324 C4325 1.392 . S
C4324 C4327 1.511 . S
C4325 C4321 1.376 . S
C4325 C4324 1.392 . S
C4325 H4337 0.929 . S
C4326 C4322 1.531 . S
C4326 H4338 0.960 . S
C4326 H4339 0.962 . S
C4326 H4340 0.960 1_565 S
C4327 C4324 1.511 . S
C4327 H4341 0.961 . S
C4327 H4342 0.961 . S
C4327 H4343 0.961 . S
C4328 C4329 1.370 . S
C4328 C4330 1.363 . S
C4328 H4344 0.931 . S
C4329 C4328 1.370 . S
C4329 C4333 1.408 . S
C4330 C4328 1.363 . S
C4330 C4331 1.370 . S
C4330 C4334 1.524 . S
C4331 C4323 1.503 . S
C4331 C4330 1.370 . S
C4331 C4332 1.403 . S
C4332 C4331 1.403 . S
C4332 C4333 1.404 . S
C4332 C4335 1.539 . S
C4333 C4329 1.408 . S
C4333 C4332 1.404 . S
C4333 H4345 0.930 . S
C4334 C4330 1.524 . S
C4334 H4346 0.956 . S
C4334 H4347 0.961 . S
C4334 H4348 0.961 . S
C4335 C4332 1.539 . S
C4335 H4349 0.958 . S
C4335 H4350 0.961 . S
C4335 H4351 0.960 . S
H4336 C4320 0.931 1_545 S
H4337 C4325 0.929 . S
H4338 C4326 0.960 . S
H4339 C4326 0.962 . S
H4340 C4326 0.960 1_545 S
H4341 C4327 0.961 . S
H4342 C4327 0.961 . S
H4343 C4327 0.961 . S
H4344 C4328 0.931 . S
H4345 C4333 0.930 . S
H4346 C4334 0.956 . S
H4347 C4334 0.961 . S
H4348 C4334 0.961 . S
H4349 C4335 0.958 . S
H4350 C4335 0.961 . S
H4351 C4335 0.960 . S
C4352 C4353 1.391 . S
C4352 C4354 1.394 . S
C4352 H4368 0.931 . S
C4353 C4352 1.391 . S
C4353 C4357 1.376 1_554 S
C4354 C4352 1.394 . S
C4354 C4355 1.369 . S
C4354 C4358 1.531 . S
C4355 C4354 1.369 . S
C4355 C4356 1.410 1_554 S
C4355 C4363 1.503 . S
C4356 C4355 1.410 1_556 S
C4356 C4357 1.392 . S
C4356 C4359 1.511 . S
C4357 C4353 1.376 1_556 S
C4357 C4356 1.392 . S
C4357 H4369 0.929 . S
C4358 C4354 1.531 . S
C4358 H4370 0.960 . S
C4358 H4371 0.962 . S
C4358 H4372 0.960 . S
C4359 C4356 1.511 . S
C4359 H4373 0.961 1_565 S
C4359 H4374 0.961 1_565 S
C4359 H4375 0.961 . S
C4360 C4361 1.370 . S
C4360 C4362 1.363 . S
C4360 H4376 0.931 . S
C4361 C4360 1.370 . S
C4361 C4365 1.408 1_545 S
C4362 C4360 1.363 . S
C4362 C4363 1.370 1_545 S
C4362 C4366 1.524 . S
C4363 C4355 1.503 . S
C4363 C4362 1.370 1_565 S
C4363 C4364 1.403 . S
C4364 C4363 1.403 . S
C4364 C4365 1.404 . S
C4364 C4367 1.539 1_554 S
C4365 C4361 1.408 1_565 S
C4365 C4364 1.404 . S
C4365 H4377 0.907 1_554 S
C4366 C4362 1.524 . S
C4366 H4378 0.956 . S
C4366 H4379 0.961 . S
C4366 H4380 0.961 . S
C4367 C4364 1.539 1_556 S
C4367 H4381 0.958 . S
C4367 H4382 0.961 . S
C4367 H4383 0.960 . S
H4368 C4352 0.931 . S
H4369 C4357 0.929 . S
H4370 C4358 0.960 . S
H4371 C4358 0.962 . S
H4372 C4358 0.960 . S
H4373 C4359 0.961 1_545 S
H4374 C4359 0.961 1_545 S
H4375 C4359 0.961 . S
H4376 C4360 0.931 . S
H4377 C4365 0.907 1_556 S
H4378 C4366 0.956 . S
H4379 C4366 0.961 . S
H4380 C4366 0.961 . S
H4381 C4367 0.958 . S
H4382 C4367 0.961 . S
H4383 C4367 0.960 . S
C4384 C4385 1.391 . S
C4384 C4386 1.394 . S
C4384 H4400 0.931 . S
C4385 C4384 1.391 . S
C4385 C4389 1.376 . S
C4386 C4384 1.394 . S
C4386 C4387 1.369 . S
C4386 C4390 1.531 . S
C4387 C4386 1.369 . S
C4387 C4388 1.410 . S
C4387 C4395 1.503 . S
C4388 C4387 1.410 . S
C4388 C4389 1.392 . S
C4388 C4391 1.511 . S
C4389 C4385 1.376 . S
C4389 C4388 1.392 . S
C4389 H4401 0.929 . S
C4390 C4386 1.531 . S
C4390 H4402 0.960 . S
C4390 H4403 0.962 . S
C4390 H4404 0.960 . S
C4391 C4388 1.511 . S
C4391 H4405 0.961 . S
C4391 H4406 0.961 . S
C4391 H4407 0.961 . S
C4392 C4393 1.370 . S
C4392 C4394 1.363 . S
C4392 H4408 0.931 . S
C4393 C4392 1.370 . S
C4393 C4397 1.408 . S
C4394 C4392 1.363 . S
C4394 C4395 1.370 . S
C4394 C4398 1.524 . S
C4395 C4387 1.503 . S
C4395 C4394 1.370 . S
C4395 C4396 1.403 . S
C4396 C4395 1.403 . S
C4396 C4397 1.404 . S
C4396 C4399 1.539 . S
C4397 C4393 1.408 . S
C4397 C4396 1.404 . S
C4397 H4409 0.930 . S
C4398 C4394 1.524 . S
C4398 H4410 0.956 . S
C4398 H4411 0.961 . S
C4398 H4412 0.961 . S
C4399 C4396 1.539 . S
C4399 H4413 0.958 . S
C4399 H4414 0.961 . S
C4399 H4415 0.960 . S
H4400 C4384 0.931 . S
H4401 C4389 0.929 . S
H4402 C4390 0.960 . S
H4403 C4390 0.962 . S
H4404 C4390 0.960 . S
H4405 C4391 0.961 . S
H4406 C4391 0.961 . S
H4407 C4391 0.961 . S
H4408 C4392 0.931 . S
H4409 C4397 0.930 . S
H4410 C4398 0.956 . S
H4411 C4398 0.961 . S
H4412 C4398 0.961 . S
H4413 C4399 0.958 . S
H4414 C4399 0.961 . S
H4415 C4399 0.960 . S
C4416 C4417 1.391 . S
C4416 C4418 1.394 . S
C4416 H4432 0.931 . S
C4417 C4416 1.391 . S
C4417 C4421 1.376 . S
C4418 C4416 1.394 . S
C4418 C4419 1.369 . S
C4418 C4422 1.531 . S
C4419 C4418 1.369 . S
C4419 C4420 1.410 . S
C4419 C4427 1.503 . S
C4420 C4419 1.410 . S
C4420 C4421 1.392 . S
C4420 C4423 1.511 . S
C4421 C4417 1.376 . S
C4421 C4420 1.392 . S
C4421 H4433 0.929 . S
C4422 C4418 1.531 . S
C4422 H4434 0.960 . S
C4422 H4435 0.962 1_554 S
C4422 H4436 0.960 . S
C4423 C4420 1.511 . S
C4423 H4437 0.961 . S
C4423 H4438 0.961 . S
C4423 H4439 0.961 . S
C4424 C4425 1.370 . S
C4424 C4426 1.363 . S
C4424 H4440 0.953 . S
C4425 C4424 1.370 . S
C4425 C4429 1.408 . S
C4426 C4424 1.363 . S
C4426 C4427 1.370 . S
C4426 C4430 1.524 1_554 S
C4427 C4419 1.503 . S
C4427 C4426 1.370 . S
C4427 C4428 1.403 . S
C4428 C4427 1.403 . S
C4428 C4429 1.404 . S
C4428 C4431 1.539 . S
C4429 C4425 1.408 . S
C4429 C4428 1.404 . S
C4429 H4441 0.930 . S
C4430 C4426 1.524 1_556 S
C4430 H4442 0.956 . S
C4430 H4443 0.961 . S
C4430 H4444 0.961 . S
C4431 C4428 1.539 . S
C4431 H4445 0.958 . S
C4431 H4446 0.961 . S
C4431 H4447 0.960 . S
H4432 C4416 0.931 . S
H4433 C4421 0.929 . S
H4434 C4422 0.960 . S
H4435 C4422 0.962 1_556 S
H4436 C4422 0.960 . S
H4437 C4423 0.961 . S
H4438 C4423 0.961 . S
H4439 C4423 0.961 . S
H4440 C4424 0.953 . S
H4441 C4429 0.930 . S
H4442 C4430 0.956 . S
H4443 C4430 0.961 . S
H4444 C4430 0.961 . S
H4445 C4431 0.958 . S
H4446 C4431 0.961 . S
H4447 C4431 0.960 . S
C4448 C4449 1.391 . S
C4448 C4450 1.394 . S
C4448 H4464 0.931 . S
C4449 C4448 1.391 . S
C4449 C4453 1.376 . S
C4450 C4448 1.394 . S
C4450 C4451 1.369 . S
C4450 C4454 1.531 . S
C4451 C4450 1.369 . S
C4451 C4452 1.410 . S
C4451 C4459 1.503 . S
C4452 C4451 1.410 . S
C4452 C4453 1.392 . S
C4452 C4455 1.511 . S
C4453 C4449 1.376 . S
C4453 C4452 1.392 . S
C4453 H4465 0.929 . S
C4454 C4450 1.531 . S
C4454 H4466 0.960 . S
C4454 H4467 0.962 . S
C4454 H4468 0.960 . S
C4455 C4452 1.511 . S
C4455 H4469 0.961 . S
C4455 H4470 0.961 . S
C4455 H4471 0.961 . S
C4456 C4457 1.370 . S
C4456 C4458 1.363 . S
C4456 H4472 0.931 . S
C4457 C4456 1.370 . S
C4457 C4461 1.408 . S
C4458 C4456 1.363 . S
C4458 C4459 1.370 . S
C4458 C4462 1.524 . S
C4459 C4451 1.503 . S
C4459 C4458 1.370 . S
C4459 C4460 1.403 . S
C4460 C4459 1.403 . S
C4460 C4461 1.404 . S
C4460 C4463 1.539 . S
C4461 C4457 1.408 . S
C4461 C4460 1.404 . S
C4461 H4473 0.930 . S
C4462 C4458 1.524 . S
C4462 H4474 0.956 . S
C4462 H4475 0.961 . S
C4462 H4476 0.961 . S
C4463 C4460 1.539 . S
C4463 H4477 0.958 . S
C4463 H4478 0.961 . S
C4463 H4479 0.960 . S
H4464 C4448 0.931 . S
H4465 C4453 0.929 . S
H4466 C4454 0.960 . S
H4467 C4454 0.962 . S
H4468 C4454 0.960 . S
H4469 C4455 0.961 . S
H4470 C4455 0.961 . S
H4471 C4455 0.961 . S
H4472 C4456 0.931 . S
H4473 C4461 0.930 . S
H4474 C4462 0.956 . S
H4475 C4462 0.961 . S
H4476 C4462 0.961 . S
H4477 C4463 0.958 . S
H4478 C4463 0.961 . S
H4479 C4463 0.960 . S
C4480 C4481 1.391 . S
C4480 C4482 1.394 . S
C4480 H4496 0.931 . S
C4481 C4480 1.391 . S
C4481 C4485 1.376 . S
C4482 C4480 1.394 . S
C4482 C4483 1.369 . S
C4482 C4486 1.531 . S
C4483 C4482 1.369 . S
C4483 C4484 1.410 . S
C4483 C4491 1.503 . S
C4484 C4483 1.410 . S
C4484 C4485 1.392 . S
C4484 C4487 1.511 . S
C4485 C4481 1.376 . S
C4485 C4484 1.392 . S
C4485 H4497 0.929 . S
C4486 C4482 1.531 . S
C4486 H4498 0.960 . S
C4486 H4499 0.962 . S
C4486 H4500 0.960 . S
C4487 C4484 1.511 . S
C4487 H4501 0.961 . S
C4487 H4502 0.961 . S
C4487 H4503 0.961 . S
C4488 C4489 1.370 . S
C4488 C4490 1.363 . S
C4488 H4504 0.931 . S
C4489 C4488 1.370 . S
C4489 C4493 1.408 . S
C4490 C4488 1.363 . S
C4490 C4491 1.370 . S
C4490 C4494 1.524 . S
C4491 C4483 1.503 . S
C4491 C4490 1.370 . S
C4491 C4492 1.403 . S
C4492 C4491 1.403 . S
C4492 C4493 1.404 . S
C4492 C4495 1.539 . S
C4493 C4489 1.408 . S
C4493 C4492 1.404 . S
C4493 H4505 0.930 . S
C4494 C4490 1.524 . S
C4494 H4506 0.956 . S
C4494 H4507 0.961 . S
C4494 H4508 0.961 . S
C4495 C4492 1.539 . S
C4495 H4509 0.958 . S
C4495 H4510 0.961 . S
C4495 H4511 0.960 . S
H4496 C4480 0.931 . S
H4497 C4485 0.929 . S
H4498 C4486 0.960 . S
H4499 C4486 0.962 . S
H4500 C4486 0.960 . S
H4501 C4487 0.961 . S
H4502 C4487 0.961 . S
H4503 C4487 0.961 . S
H4504 C4488 0.931 . S
H4505 C4493 0.930 . S
H4506 C4494 0.956 . S
H4507 C4494 0.961 . S
H4508 C4494 0.961 . S
H4509 C4495 0.958 . S
H4510 C4495 0.961 . S
H4511 C4495 0.960 . S
C4512 C4513 1.391 . S
C4512 C4514 1.394 . S
C4512 H4528 0.931 . S
C4513 C4512 1.391 . S
C4513 C4517 1.376 . S
C4514 C4512 1.394 . S
C4514 C4515 1.369 . S
C4514 C4518 1.531 . S
C4515 C4514 1.369 . S
C4515 C4516 1.410 . S
C4515 C4523 1.503 . S
C4516 C4515 1.410 . S
C4516 C4517 1.392 . S
C4516 C4519 1.511 . S
C4517 C4513 1.376 . S
C4517 C4516 1.392 . S
C4517 H4529 0.929 . S
C4518 C4514 1.531 . S
C4518 H4530 0.960 . S
C4518 H4531 0.962 . S
C4518 H4532 0.960 . S
C4519 C4516 1.511 . S
C4519 H4533 0.961 . S
C4519 H4534 0.961 . S
C4519 H4535 0.961 . S
C4520 C4521 1.370 . S
C4520 C4522 1.363 . S
C4520 H4536 0.931 . S
C4521 C4520 1.370 . S
C4521 C4525 1.408 . S
C4522 C4520 1.363 . S
C4522 C4523 1.370 . S
C4522 C4526 1.524 . S
C4523 C4515 1.503 . S
C4523 C4522 1.370 . S
C4523 C4524 1.403 . S
C4524 C4523 1.403 . S
C4524 C4525 1.404 . S
C4524 C4527 1.539 . S
C4525 C4521 1.408 . S
C4525 C4524 1.404 . S
C4525 H4537 0.930 . S
C4526 C4522 1.524 . S
C4526 H4538 0.956 . S
C4526 H4539 0.961 . S
C4526 H4540 0.961 . S
C4527 C4524 1.539 . S
C4527 H4541 0.958 . S
C4527 H4542 0.961 . S
C4527 H4543 0.960 . S
H4528 C4512 0.931 . S
H4529 C4517 0.929 . S
H4530 C4518 0.960 . S
H4531 C4518 0.962 . S
H4532 C4518 0.960 . S
H4533 C4519 0.961 . S
H4534 C4519 0.961 . S
H4535 C4519 0.961 . S
H4536 C4520 0.931 . S
H4537 C4525 0.930 . S
H4538 C4526 0.956 . S
H4539 C4526 0.961 . S
H4540 C4526 0.961 . S
H4541 C4527 0.958 . S
H4542 C4527 0.961 . S
H4543 C4527 0.960 . S
C4544 C4545 1.391 . S
C4544 C4546 1.394 . S
C4544 H4560 0.931 . S
C4545 C4544 1.391 . S
C4545 C4549 1.376 . S
C4546 C4544 1.394 . S
C4546 C4547 1.369 . S
C4546 C4550 1.531 . S
C4547 C4546 1.369 . S
C4547 C4548 1.410 . S
C4547 C4555 1.503 . S
C4548 C4547 1.410 . S
C4548 C4549 1.392 . S
C4548 C4551 1.511 . S
C4549 C4545 1.376 . S
C4549 C4548 1.392 . S
C4549 H4561 0.929 . S
C4550 C4546 1.531 . S
C4550 H4562 0.960 . S
C4550 H4563 0.962 . S
C4550 H4564 0.960 . S
C4551 C4548 1.511 . S
C4551 H4565 0.961 . S
C4551 H4566 0.961 . S
C4551 H4567 0.961 . S
C4552 C4553 1.370 . S
C4552 C4554 1.363 . S
C4552 H4568 0.931 . S
C4553 C4552 1.370 . S
C4553 C4557 1.408 . S
C4554 C4552 1.363 . S
C4554 C4555 1.370 . S
C4554 C4558 1.524 . S
C4555 C4547 1.503 . S
C4555 C4554 1.370 . S
C4555 C4556 1.403 . S
C4556 C4555 1.403 . S
C4556 C4557 1.404 . S
C4556 C4559 1.539 . S
C4557 C4553 1.408 . S
C4557 C4556 1.404 . S
C4557 H4569 0.930 . S
C4558 C4554 1.524 . S
C4558 H4570 0.956 . S
C4558 H4571 0.961 . S
C4558 H4572 0.961 . S
C4559 C4556 1.539 . S
C4559 H4573 0.958 . S
C4559 H4574 0.961 . S
C4559 H4575 0.960 . S
H4560 C4544 0.931 . S
H4561 C4549 0.929 . S
H4562 C4550 0.960 . S
H4563 C4550 0.962 . S
H4564 C4550 0.960 . S
H4565 C4551 0.961 . S
H4566 C4551 0.961 . S
H4567 C4551 0.961 . S
H4568 C4552 0.931 . S
H4569 C4557 0.930 . S
H4570 C4558 0.956 . S
H4571 C4558 0.961 . S
H4572 C4558 0.961 . S
H4573 C4559 0.958 . S
H4574 C4559 0.961 . S
H4575 C4559 0.960 . S
C4576 C4577 1.391 . S
C4576 C4578 1.394 . S
C4576 H4592 0.931 . S
C4577 C4576 1.391 . S
C4577 C4581 1.376 . S
C4578 C4576 1.394 . S
C4578 C4579 1.369 . S
C4578 C4582 1.531 . S
C4579 C4578 1.369 . S
C4579 C4580 1.410 . S
C4579 C4587 1.503 . S
C4580 C4579 1.410 . S
C4580 C4581 1.392 . S
C4580 C4583 1.511 . S
C4581 C4577 1.376 . S
C4581 C4580 1.392 . S
C4581 H4593 0.929 . S
C4582 C4578 1.531 . S
C4582 H4594 0.960 . S
C4582 H4595 0.944 1_455 S
C4582 H4596 0.960 . S
C4583 C4580 1.511 . S
C4583 H4597 0.961 . S
C4583 H4598 0.961 . S
C4583 H4599 0.961 . S
C4584 C4585 1.370 . S
C4584 C4586 1.363 . S
C4584 H4600 0.931 . S
C4585 C4584 1.370 . S
C4585 C4589 1.408 . S
C4586 C4584 1.363 . S
C4586 C4587 1.370 . S
C4586 C4590 1.524 . S
C4587 C4579 1.503 . S
C4587 C4586 1.370 . S
C4587 C4588 1.403 . S
C4588 C4587 1.403 . S
C4588 C4589 1.404 . S
C4588 C4591 1.539 . S
C4589 C4585 1.408 . S
C4589 C4588 1.404 . S
C4589 H4601 0.930 . S
C4590 C4586 1.524 . S
C4590 H4602 0.956 . S
C4590 H4603 0.961 . S
C4590 H4604 0.961 . S
C4591 C4588 1.539 . S
C4591 H4605 0.958 . S
C4591 H4606 0.961 . S
C4591 H4607 0.960 . S
H4592 C4576 0.931 . S
H4593 C4581 0.929 . S
H4594 C4582 0.960 . S
H4595 C4582 0.944 1_655 S
H4596 C4582 0.960 . S
H4597 C4583 0.961 . S
H4598 C4583 0.961 . S
H4599 C4583 0.961 . S
H4600 C4584 0.931 . S
H4601 C4589 0.930 . S
H4602 C4590 0.956 . S
H4603 C4590 0.961 . S
H4604 C4590 0.961 . S
H4605 C4591 0.958 . S
H4606 C4591 0.961 . S
H4607 C4591 0.960 . S
C4608 C4609 1.391 . S
C4608 C4610 1.394 . S
C4608 H4624 0.931 . S
C4609 C4608 1.391 . S
C4609 C4613 1.376 . S
C4610 C4608 1.394 . S
C4610 C4611 1.369 . S
C4610 C4614 1.531 . S
C4611 C4610 1.369 . S
C4611 C4612 1.410 . S
C4611 C4619 1.503 . S
C4612 C4611 1.410 . S
C4612 C4613 1.392 . S
C4612 C4615 1.511 . S
C4613 C4609 1.376 . S
C4613 C4612 1.392 . S
C4613 H4625 0.929 . S
C4614 C4610 1.531 . S
C4614 H4626 0.960 . S
C4614 H4627 0.962 . S
C4614 H4628 0.960 . S
C4615 C4612 1.511 . S
C4615 H4629 0.961 . S
C4615 H4630 0.961 . S
C4615 H4631 0.961 . S
C4616 C4617 1.370 . S
C4616 C4618 1.363 . S
C4616 H4632 0.931 . S
C4617 C4616 1.370 . S
C4617 C4621 1.408 . S
C4618 C4616 1.363 . S
C4618 C4619 1.370 . S
C4618 C4622 1.524 . S
C4619 C4611 1.503 . S
C4619 C4618 1.370 . S
C4619 C4620 1.403 . S
C4620 C4619 1.403 . S
C4620 C4621 1.404 . S
C4620 C4623 1.539 . S
C4621 C4617 1.408 . S
C4621 C4620 1.404 . S
C4621 H4633 0.930 . S
C4622 C4618 1.524 . S
C4622 H4634 0.956 . S
C4622 H4635 0.961 . S
C4622 H4636 0.961 . S
C4623 C4620 1.539 . S
C4623 H4637 0.958 . S
C4623 H4638 0.961 . S
C4623 H4639 0.960 . S
H4624 C4608 0.931 . S
H4625 C4613 0.929 . S
H4626 C4614 0.960 . S
H4627 C4614 0.962 . S
H4628 C4614 0.960 . S
H4629 C4615 0.961 . S
H4630 C4615 0.961 . S
H4631 C4615 0.961 . S
H4632 C4616 0.931 . S
H4633 C4621 0.930 . S
H4634 C4622 0.956 . S
H4635 C4622 0.961 . S
H4636 C4622 0.961 . S
H4637 C4623 0.958 . S
H4638 C4623 0.961 . S
H4639 C4623 0.960 . S
C4640 C4641 1.391 . S
C4640 C4642 1.394 . S
C4640 H4656 0.931 . S
C4641 C4640 1.391 . S
C4641 C4645 1.376 . S
C4642 C4640 1.394 . S
C4642 C4643 1.369 . S
C4642 C4646 1.531 . S
C4643 C4642 1.369 . S
C4643 C4644 1.410 . S
C4643 C4651 1.503 . S
C4644 C4643 1.410 . S
C4644 C4645 1.392 . S
C4644 C4647 1.511 . S
C4645 C4641 1.376 . S
C4645 C4644 1.392 . S
C4645 H4657 0.929 . S
C4646 C4642 1.531 . S
C4646 H4658 0.960 . S
C4646 H4659 0.962 . S
C4646 H4660 0.960 . S
C4647 C4644 1.511 . S
C4647 H4661 0.961 . S
C4647 H4662 0.961 . S
C4647 H4663 0.961 . S
C4648 C4649 1.370 . S
C4648 C4650 1.363 . S
C4648 H4664 0.931 . S
C4649 C4648 1.370 . S
C4649 C4653 1.408 . S
C4650 C4648 1.363 . S
C4650 C4651 1.370 . S
C4650 C4654 1.524 . S
C4651 C4643 1.503 . S
C4651 C4650 1.370 . S
C4651 C4652 1.403 . S
C4652 C4651 1.403 . S
C4652 C4653 1.404 . S
C4652 C4655 1.539 . S
C4653 C4649 1.408 . S
C4653 C4652 1.404 . S
C4653 H4665 0.930 . S
C4654 C4650 1.524 . S
C4654 H4666 0.956 . S
C4654 H4667 0.961 . S
C4654 H4668 0.961 . S
C4655 C4652 1.539 . S
C4655 H4669 0.958 . S
C4655 H4670 0.961 . S
C4655 H4671 0.960 . S
H4656 C4640 0.931 . S
H4657 C4645 0.929 . S
H4658 C4646 0.960 . S
H4659 C4646 0.962 . S
H4660 C4646 0.960 . S
H4661 C4647 0.961 . S
H4662 C4647 0.961 . S
H4663 C4647 0.961 . S
H4664 C4648 0.931 . S
H4665 C4653 0.930 . S
H4666 C4654 0.956 . S
H4667 C4654 0.961 . S
H4668 C4654 0.961 . S
H4669 C4655 0.958 . S
H4670 C4655 0.961 . S
H4671 C4655 0.960 . S
C4672 C4673 1.391 . S
C4672 C4674 1.394 . S
C4672 H4688 0.931 . S
C4673 C4672 1.391 . S
C4673 C4677 1.376 . S
C4674 C4672 1.394 . S
C4674 C4675 1.369 . S
C4674 C4678 1.531 . S
C4675 C4674 1.369 . S
C4675 C4676 1.410 . S
C4675 C4683 1.503 . S
C4676 C4675 1.410 . S
C4676 C4677 1.392 . S
C4676 C4679 1.511 . S
C4677 C4673 1.376 . S
C4677 C4676 1.392 . S
C4677 H4689 0.929 . S
C4678 C4674 1.531 . S
C4678 H4690 0.960 . S
C4678 H4691 0.962 . S
C4678 H4692 0.960 . S
C4679 C4676 1.511 . S
C4679 H4693 0.961 . S
C4679 H4694 0.961 . S
C4679 H4695 0.961 . S
C4680 C4681 1.370 . S
C4680 C4682 1.363 . S
C4680 H4696 0.931 . S
C4681 C4680 1.370 . S
C4681 C4685 1.408 . S
C4682 C4680 1.363 . S
C4682 C4683 1.370 . S
C4682 C4686 1.524 . S
C4683 C4675 1.503 . S
C4683 C4682 1.370 . S
C4683 C4684 1.403 . S
C4684 C4683 1.403 . S
C4684 C4685 1.404 . S
C4684 C4687 1.539 . S
C4685 C4681 1.408 . S
C4685 C4684 1.404 . S
C4685 H4697 0.930 . S
C4686 C4682 1.524 . S
C4686 H4698 0.956 . S
C4686 H4699 0.961 . S
C4686 H4700 0.961 . S
C4687 C4684 1.539 . S
C4687 H4701 0.958 . S
C4687 H4702 0.961 . S
C4687 H4703 0.960 . S
H4688 C4672 0.931 . S
H4689 C4677 0.929 . S
H4690 C4678 0.960 . S
H4691 C4678 0.962 . S
H4692 C4678 0.960 . S
H4693 C4679 0.961 . S
H4694 C4679 0.961 . S
H4695 C4679 0.961 . S
H4696 C4680 0.931 . S
H4697 C4685 0.930 . S
H4698 C4686 0.956 . S
H4699 C4686 0.961 . S
H4700 C4686 0.961 . S
H4701 C4687 0.958 . S
H4702 C4687 0.961 . S
H4703 C4687 0.960 . S
C4704 C4705 1.391 . S
C4704 C4706 1.394 . S
C4704 H4720 0.931 . S
C4705 C4704 1.391 . S
C4705 C4709 1.376 . S
C4706 C4704 1.394 . S
C4706 C4707 1.369 . S
C4706 C4710 1.531 . S
C4707 C4706 1.369 . S
C4707 C4708 1.410 . S
C4707 C4715 1.503 . S
C4708 C4707 1.410 . S
C4708 C4709 1.392 . S
C4708 C4711 1.511 . S
C4709 C4705 1.376 . S
C4709 C4708 1.392 . S
C4709 H4721 0.929 . S
C4710 C4706 1.531 . S
C4710 H4722 0.960 . S
C4710 H4723 0.962 . S
C4710 H4724 0.960 . S
C4711 C4708 1.511 . S
C4711 H4725 0.961 1_455 S
C4711 H4726 0.961 . S
C4711 H4727 0.961 . S
C4712 C4713 1.370 . S
C4712 C4714 1.363 . S
C4712 H4728 0.931 . S
C4713 C4712 1.370 . S
C4713 C4717 1.408 . S
C4714 C4712 1.363 . S
C4714 C4715 1.370 . S
C4714 C4718 1.524 . S
C4715 C4707 1.503 . S
C4715 C4714 1.370 . S
C4715 C4716 1.403 . S
C4716 C4715 1.403 . S
C4716 C4717 1.404 . S
C4716 C4719 1.539 . S
C4717 C4713 1.408 . S
C4717 C4716 1.404 . S
C4717 H4729 0.930 . S
C4718 C4714 1.524 . S
C4718 H4730 0.956 . S
C4718 H4731 0.961 . S
C4718 H4732 0.961 . S
C4719 C4716 1.539 . S
C4719 H4733 0.958 . S
C4719 H4734 0.961 . S
C4719 H4735 0.960 . S
H4720 C4704 0.931 . S
H4721 C4709 0.929 . S
H4722 C4710 0.960 . S
H4723 C4710 0.962 . S
H4724 C4710 0.960 . S
H4725 C4711 0.961 1_655 S
H4726 C4711 0.961 . S
H4727 C4711 0.961 . S
H4728 C4712 0.931 . S
H4729 C4717 0.930 . S
H4730 C4718 0.956 . S
H4731 C4718 0.961 . S
H4732 C4718 0.961 . S
H4733 C4719 0.958 . S
H4734 C4719 0.961 . S
H4735 C4719 0.960 . S
C4736 C4737 1.391 . S
C4736 C4738 1.394 . S
C4736 H4752 0.931 . S
C4737 C4736 1.391 . S
C4737 C4741 1.376 . S
C4738 C4736 1.394 . S
C4738 C4739 1.369 . S
C4738 C4742 1.531 . S
C4739 C4738 1.369 . S
C4739 C4740 1.410 . S
C4739 C4747 1.503 . S
C4740 C4739 1.410 . S
C4740 C4741 1.392 . S
C4740 C4743 1.511 . S
C4741 C4737 1.376 . S
C4741 C4740 1.392 . S
C4741 H4753 0.929 . S
C4742 C4738 1.531 . S
C4742 H4754 0.960 . S
C4742 H4755 0.962 . S
C4742 H4756 0.960 . S
C4743 C4740 1.511 . S
C4743 H4757 0.961 . S
C4743 H4758 0.961 . S
C4743 H4759 0.961 . S
C4744 C4745 1.370 . S
C4744 C4746 1.363 . S
C4744 H4760 0.931 . S
C4745 C4744 1.370 . S
C4745 C4749 1.408 . S
C4746 C4744 1.363 . S
C4746 C4747 1.370 . S
C4746 C4750 1.524 . S
C4747 C4739 1.503 . S
C4747 C4746 1.370 . S
C4747 C4748 1.403 . S
C4748 C4747 1.403 . S
C4748 C4749 1.404 . S
C4748 C4751 1.539 . S
C4749 C4745 1.408 . S
C4749 C4748 1.404 . S
C4749 H4761 0.930 . S
C4750 C4746 1.524 . S
C4750 H4762 0.956 . S
C4750 H4763 0.961 . S
C4750 H4764 0.961 . S
C4751 C4748 1.539 . S
C4751 H4765 0.958 . S
C4751 H4766 0.961 . S
C4751 H4767 0.960 . S
H4752 C4736 0.931 . S
H4753 C4741 0.929 . S
H4754 C4742 0.960 . S
H4755 C4742 0.962 . S
H4756 C4742 0.960 . S
H4757 C4743 0.961 . S
H4758 C4743 0.961 . S
H4759 C4743 0.961 . S
H4760 C4744 0.931 . S
H4761 C4749 0.930 . S
H4762 C4750 0.956 . S
H4763 C4750 0.961 . S
H4764 C4750 0.961 . S
H4765 C4751 0.958 . S
H4766 C4751 0.961 . S
H4767 C4751 0.960 . S
C4768 C4769 1.391 . S
C4768 C4770 1.394 . S
C4768 H4784 0.931 . S
C4769 C4768 1.391 . S
C4769 C4773 1.376 . S
C4770 C4768 1.394 . S
C4770 C4771 1.369 . S
C4770 C4774 1.531 . S
C4771 C4770 1.369 . S
C4771 C4772 1.410 . S
C4771 C4779 1.503 . S
C4772 C4771 1.410 . S
C4772 C4773 1.392 . S
C4772 C4775 1.511 . S
C4773 C4769 1.376 . S
C4773 C4772 1.392 . S
C4773 H4785 0.929 . S
C4774 C4770 1.531 . S
C4774 H4786 0.960 . S
C4774 H4787 0.962 . S
C4774 H4788 0.960 . S
C4775 C4772 1.511 . S
C4775 H4789 0.961 . S
C4775 H4790 0.961 . S
C4775 H4791 0.961 . S
C4776 C4777 1.370 . S
C4776 C4778 1.363 . S
C4776 H4792 0.931 . S
C4777 C4776 1.370 . S
C4777 C4781 1.408 . S
C4778 C4776 1.363 . S
C4778 C4779 1.370 . S
C4778 C4782 1.524 . S
C4779 C4771 1.503 . S
C4779 C4778 1.370 . S
C4779 C4780 1.403 . S
C4780 C4779 1.403 . S
C4780 C4781 1.404 . S
C4780 C4783 1.539 . S
C4781 C4777 1.408 . S
C4781 C4780 1.404 . S
C4781 H4793 0.930 . S
C4782 C4778 1.524 . S
C4782 H4794 0.956 . S
C4782 H4795 0.961 . S
C4782 H4796 0.961 . S
C4783 C4780 1.539 . S
C4783 H4797 0.958 . S
C4783 H4798 0.961 . S
C4783 H4799 0.960 . S
H4784 C4768 0.931 . S
H4785 C4773 0.929 . S
H4786 C4774 0.960 . S
H4787 C4774 0.962 . S
H4788 C4774 0.960 . S
H4789 C4775 0.961 . S
H4790 C4775 0.961 . S
H4791 C4775 0.961 . S
H4792 C4776 0.931 . S
H4793 C4781 0.930 . S
H4794 C4782 0.956 . S
H4795 C4782 0.961 . S
H4796 C4782 0.961 . S
H4797 C4783 0.958 . S
H4798 C4783 0.961 . S
H4799 C4783 0.960 . S
C4800 C4801 1.391 . S
C4800 C4802 1.394 . S
C4800 H4816 0.931 . S
C4801 C4800 1.391 . S
C4801 C4805 1.376 . S
C4802 C4800 1.394 . S
C4802 C4803 1.369 . S
C4802 C4806 1.531 . S
C4803 C4802 1.369 . S
C4803 C4804 1.410 . S
C4803 C4811 1.503 . S
C4804 C4803 1.410 . S
C4804 C4805 1.392 . S
C4804 C4807 1.511 . S
C4805 C4801 1.376 . S
C4805 C4804 1.392 . S
C4805 H4817 0.929 . S
C4806 C4802 1.531 . S
C4806 H4818 0.960 . S
C4806 H4819 0.962 . S
C4806 H4820 0.960 . S
C4807 C4804 1.511 . S
C4807 H4821 0.961 . S
C4807 H4822 0.961 . S
C4807 H4823 0.961 . S
C4808 C4809 1.370 . S
C4808 C4810 1.363 . S
C4808 H4824 0.931 . S
C4809 C4808 1.370 . S
C4809 C4813 1.408 . S
C4810 C4808 1.363 . S
C4810 C4811 1.370 . S
C4810 C4814 1.524 . S
C4811 C4803 1.503 . S
C4811 C4810 1.370 . S
C4811 C4812 1.403 . S
C4812 C4811 1.403 . S
C4812 C4813 1.404 . S
C4812 C4815 1.539 . S
C4813 C4809 1.408 . S
C4813 C4812 1.404 . S
C4813 H4825 0.930 . S
C4814 C4810 1.524 . S
C4814 H4826 0.956 . S
C4814 H4827 0.961 . S
C4814 H4828 0.961 . S
C4815 C4812 1.539 . S
C4815 H4829 0.958 . S
C4815 H4830 0.961 . S
C4815 H4831 0.960 . S
H4816 C4800 0.931 . S
H4817 C4805 0.929 . S
H4818 C4806 0.960 . S
H4819 C4806 0.962 . S
H4820 C4806 0.960 . S
H4821 C4807 0.961 . S
H4822 C4807 0.961 . S
H4823 C4807 0.961 . S
H4824 C4808 0.931 . S
H4825 C4813 0.930 . S
H4826 C4814 0.956 . S
H4827 C4814 0.961 . S
H4828 C4814 0.961 . S
H4829 C4815 0.958 . S
H4830 C4815 0.961 . S
H4831 C4815 0.960 . S
C4832 C4833 1.391 . S
C4832 C4834 1.394 . S
C4832 H4848 0.931 . S
C4833 C4832 1.391 . S
C4833 C4837 1.376 . S
C4834 C4832 1.394 . S
C4834 C4835 1.369 . S
C4834 C4838 1.531 . S
C4835 C4834 1.369 . S
C4835 C4836 1.410 . S
C4835 C4843 1.503 . S
C4836 C4835 1.410 . S
C4836 C4837 1.392 . S
C4836 C4839 1.511 . S
C4837 C4833 1.376 . S
C4837 C4836 1.392 . S
C4837 H4849 0.929 . S
C4838 C4834 1.531 . S
C4838 H4850 0.960 . S
C4838 H4851 0.962 . S
C4838 H4852 0.960 . S
C4839 C4836 1.511 . S
C4839 H4853 0.961 . S
C4839 H4854 0.961 . S
C4839 H4855 0.961 . S
C4840 C4841 1.370 . S
C4840 C4842 1.363 . S
C4840 H4856 0.931 . S
C4841 C4840 1.370 . S
C4841 C4845 1.408 . S
C4842 C4840 1.363 . S
C4842 C4843 1.370 . S
C4842 C4846 1.524 . S
C4843 C4835 1.503 . S
C4843 C4842 1.370 . S
C4843 C4844 1.403 . S
C4844 C4843 1.403 . S
C4844 C4845 1.404 . S
C4844 C4847 1.539 . S
C4845 C4841 1.408 . S
C4845 C4844 1.404 . S
C4845 H4857 0.930 . S
C4846 C4842 1.524 . S
C4846 H4858 0.956 . S
C4846 H4859 0.961 . S
C4846 H4860 0.961 . S
C4847 C4844 1.539 . S
C4847 H4861 0.958 . S
C4847 H4862 0.961 . S
C4847 H4863 0.960 . S
H4848 C4832 0.931 . S
H4849 C4837 0.929 . S
H4850 C4838 0.960 . S
H4851 C4838 0.962 . S
H4852 C4838 0.960 . S
H4853 C4839 0.961 . S
H4854 C4839 0.961 . S
H4855 C4839 0.961 . S
H4856 C4840 0.931 . S
H4857 C4845 0.930 . S
H4858 C4846 0.956 . S
H4859 C4846 0.961 . S
H4860 C4846 0.961 . S
H4861 C4847 0.958 . S
H4862 C4847 0.961 . S
H4863 C4847 0.960 . S
C4864 C4865 1.391 . S
C4864 C4866 1.394 . S
C4864 H4880 0.931 . S
C4865 C4864 1.391 . S
C4865 C4869 1.376 . S
C4866 C4864 1.394 . S
C4866 C4867 1.369 . S
C4866 C4870 1.531 . S
C4867 C4866 1.369 . S
C4867 C4868 1.410 . S
C4867 C4875 1.503 . S
C4868 C4867 1.410 . S
C4868 C4869 1.392 . S
C4868 C4871 1.511 . S
C4869 C4865 1.376 . S
C4869 C4868 1.392 . S
C4869 H4881 0.929 . S
C4870 C4866 1.531 . S
C4870 H4882 0.960 . S
C4870 H4883 0.962 . S
C4870 H4884 0.960 . S
C4871 C4868 1.511 . S
C4871 H4885 0.961 . S
C4871 H4886 0.961 . S
C4871 H4887 0.961 . S
C4872 C4873 1.370 . S
C4872 C4874 1.363 . S
C4872 H4888 0.931 . S
C4873 C4872 1.370 . S
C4873 C4877 1.408 . S
C4874 C4872 1.363 . S
C4874 C4875 1.370 . S
C4874 C4878 1.524 . S
C4875 C4867 1.503 . S
C4875 C4874 1.370 . S
C4875 C4876 1.403 . S
C4876 C4875 1.403 . S
C4876 C4877 1.404 . S
C4876 C4879 1.539 . S
C4877 C4873 1.408 . S
C4877 C4876 1.404 . S
C4877 H4889 0.930 . S
C4878 C4874 1.524 . S
C4878 H4890 0.956 . S
C4878 H4891 0.961 . S
C4878 H4892 0.961 . S
C4879 C4876 1.539 . S
C4879 H4893 0.958 . S
C4879 H4894 0.961 . S
C4879 H4895 0.960 . S
H4880 C4864 0.931 . S
H4881 C4869 0.929 . S
H4882 C4870 0.960 . S
H4883 C4870 0.962 . S
H4884 C4870 0.960 . S
H4885 C4871 0.961 . S
H4886 C4871 0.961 . S
H4887 C4871 0.961 . S
H4888 C4872 0.931 . S
H4889 C4877 0.930 . S
H4890 C4878 0.956 . S
H4891 C4878 0.961 . S
H4892 C4878 0.961 . S
H4893 C4879 0.958 . S
H4894 C4879 0.961 . S
H4895 C4879 0.960 . S
C4896 C4897 1.391 . S
C4896 C4898 1.394 . S
C4896 H4912 0.931 . S
C4897 C4896 1.391 . S
C4897 C4901 1.376 . S
C4898 C4896 1.394 . S
C4898 C4899 1.369 . S
C4898 C4902 1.531 . S
C4899 C4898 1.369 . S
C4899 C4900 1.410 . S
C4899 C4907 1.503 . S
C4900 C4899 1.410 . S
C4900 C4901 1.392 . S
C4900 C4903 1.511 . S
C4901 C4897 1.376 . S
C4901 C4900 1.392 . S
C4901 H4913 0.929 . S
C4902 C4898 1.531 . S
C4902 H4914 0.960 . S
C4902 H4915 0.962 . S
C4902 H4916 0.960 . S
C4903 C4900 1.511 . S
C4903 H4917 0.961 . S
C4903 H4918 0.961 . S
C4903 H4919 0.961 . S
C4904 C4905 1.370 . S
C4904 C4906 1.363 . S
C4904 H4920 0.931 . S
C4905 C4904 1.370 . S
C4905 C4909 1.408 . S
C4906 C4904 1.363 . S
C4906 C4907 1.370 . S
C4906 C4910 1.524 . S
C4907 C4899 1.503 . S
C4907 C4906 1.370 . S
C4907 C4908 1.403 . S
C4908 C4907 1.403 . S
C4908 C4909 1.404 . S
C4908 C4911 1.539 . S
C4909 C4905 1.408 . S
C4909 C4908 1.404 . S
C4909 H4921 0.930 . S
C4910 C4906 1.524 . S
C4910 H4922 0.956 . S
C4910 H4923 0.961 . S
C4910 H4924 0.961 . S
C4911 C4908 1.539 . S
C4911 H4925 0.958 . S
C4911 H4926 0.961 . S
C4911 H4927 0.960 . S
H4912 C4896 0.931 . S
H4913 C4901 0.929 . S
H4914 C4902 0.960 . S
H4915 C4902 0.962 . S
H4916 C4902 0.960 . S
H4917 C4903 0.961 . S
H4918 C4903 0.961 . S
H4919 C4903 0.961 . S
H4920 C4904 0.931 . S
H4921 C4909 0.930 . S
H4922 C4910 0.956 . S
H4923 C4910 0.961 . S
H4924 C4910 0.961 . S
H4925 C4911 0.958 . S
H4926 C4911 0.961 . S
H4927 C4911 0.960 . S
C4928 C4929 1.391 . S
C4928 C4930 1.394 . S
C4928 H4944 0.931 . S
C4929 C4928 1.391 . S
C4929 C4933 1.376 . S
C4930 C4928 1.394 . S
C4930 C4931 1.369 . S
C4930 C4934 1.531 . S
C4931 C4930 1.369 . S
C4931 C4932 1.410 . S
C4931 C4939 1.503 . S
C4932 C4931 1.410 . S
C4932 C4933 1.392 . S
C4932 C4935 1.511 . S
C4933 C4929 1.376 . S
C4933 C4932 1.392 . S
C4933 H4945 0.929 . S
C4934 C4930 1.531 . S
C4934 H4946 0.960 . S
C4934 H4947 0.962 . S
C4934 H4948 0.960 . S
C4935 C4932 1.511 . S
C4935 H4949 0.961 . S
C4935 H4950 0.961 . S
C4935 H4951 0.961 . S
C4936 C4937 1.370 . S
C4936 C4938 1.363 . S
C4936 H4952 0.931 . S
C4937 C4936 1.370 . S
C4937 C4941 1.408 . S
C4938 C4936 1.363 . S
C4938 C4939 1.370 . S
C4938 C4942 1.524 . S
C4939 C4931 1.503 . S
C4939 C4938 1.370 . S
C4939 C4940 1.403 . S
C4940 C4939 1.403 . S
C4940 C4941 1.404 . S
C4940 C4943 1.539 . S
C4941 C4937 1.408 . S
C4941 C4940 1.404 . S
C4941 H4953 0.930 . S
C4942 C4938 1.524 . S
C4942 H4954 0.956 . S
C4942 H4955 0.961 . S
C4942 H4956 0.961 . S
C4943 C4940 1.539 . S
C4943 H4957 0.958 . S
C4943 H4958 0.961 . S
C4943 H4959 0.960 . S
H4944 C4928 0.931 . S
H4945 C4933 0.929 . S
H4946 C4934 0.960 . S
H4947 C4934 0.962 . S
H4948 C4934 0.960 . S
H4949 C4935 0.961 . S
H4950 C4935 0.961 . S
H4951 C4935 0.961 . S
H4952 C4936 0.931 . S
H4953 C4941 0.930 . S
H4954 C4942 0.956 . S
H4955 C4942 0.961 . S
H4956 C4942 0.961 . S
H4957 C4943 0.958 . S
H4958 C4943 0.961 . S
H4959 C4943 0.960 . S
C4960 C4961 1.391 . S
C4960 C4962 1.394 . S
C4960 H4976 0.931 . S
C4961 C4960 1.391 . S
C4961 C4965 1.376 . S
C4962 C4960 1.394 . S
C4962 C4963 1.369 . S
C4962 C4966 1.531 . S
C4963 C4962 1.369 . S
C4963 C4964 1.410 . S
C4963 C4971 1.503 . S
C4964 C4963 1.410 . S
C4964 C4965 1.392 . S
C4964 C4967 1.511 . S
C4965 C4961 1.376 . S
C4965 C4964 1.392 . S
C4965 H4977 0.929 . S
C4966 C4962 1.531 . S
C4966 H4978 0.960 . S
C4966 H4979 0.962 . S
C4966 H4980 0.960 . S
C4967 C4964 1.511 . S
C4967 H4981 0.961 . S
C4967 H4982 0.961 . S
C4967 H4983 0.961 . S
C4968 C4969 1.370 . S
C4968 C4970 1.363 . S
C4968 H4984 0.931 . S
C4969 C4968 1.370 . S
C4969 C4973 1.408 . S
C4970 C4968 1.363 . S
C4970 C4971 1.370 . S
C4970 C4974 1.524 . S
C4971 C4963 1.503 . S
C4971 C4970 1.370 . S
C4971 C4972 1.403 . S
C4972 C4971 1.403 . S
C4972 C4973 1.404 . S
C4972 C4975 1.539 . S
C4973 C4969 1.408 . S
C4973 C4972 1.404 . S
C4973 H4985 0.930 . S
C4974 C4970 1.524 . S
C4974 H4986 0.956 . S
C4974 H4987 0.961 . S
C4974 H4988 0.961 . S
C4975 C4972 1.539 . S
C4975 H4989 0.958 . S
C4975 H4990 0.961 . S
C4975 H4991 0.960 . S
H4976 C4960 0.931 . S
H4977 C4965 0.929 . S
H4978 C4966 0.960 . S
H4979 C4966 0.962 . S
H4980 C4966 0.960 . S
H4981 C4967 0.961 . S
H4982 C4967 0.961 . S
H4983 C4967 0.961 . S
H4984 C4968 0.931 . S
H4985 C4973 0.930 . S
H4986 C4974 0.956 . S
H4987 C4974 0.961 . S
H4988 C4974 0.961 . S
H4989 C4975 0.958 . S
H4990 C4975 0.961 . S
H4991 C4975 0.960 . S
C4992 C4993 1.391 . S
C4992 C4994 1.394 . S
C4992 H5008 0.931 . S
C4993 C4992 1.391 . S
C4993 C4997 1.376 . S
C4994 C4992 1.394 . S
C4994 C4995 1.369 . S
C4994 C4998 1.531 . S
C4995 C4994 1.369 . S
C4995 C4996 1.410 . S
C4995 C5003 1.503 . S
C4996 C4995 1.410 . S
C4996 C4997 1.392 . S
C4996 C4999 1.511 . S
C4997 C4993 1.376 . S
C4997 C4996 1.392 . S
C4997 H5009 0.929 . S
C4998 C4994 1.531 . S
C4998 H5010 0.960 . S
C4998 H5011 0.962 . S
C4998 H5012 0.960 . S
C4999 C4996 1.511 . S
C4999 H5013 0.961 . S
C4999 H5014 0.961 . S
C4999 H5015 0.961 . S
C5000 C5001 1.370 . S
C5000 C5002 1.363 . S
C5000 H5016 0.931 . S
C5001 C5000 1.370 . S
C5001 C5005 1.408 . S
C5002 C5000 1.363 . S
C5002 C5003 1.370 . S
C5002 C5006 1.524 . S
C5003 C4995 1.503 . S
C5003 C5002 1.370 . S
C5003 C5004 1.403 . S
C5004 C5003 1.403 . S
C5004 C5005 1.404 . S
C5004 C5007 1.539 . S
C5005 C5001 1.408 . S
C5005 C5004 1.404 . S
C5005 H5017 0.930 . S
C5006 C5002 1.524 . S
C5006 H5018 0.956 . S
C5006 H5019 0.961 . S
C5006 H5020 0.961 . S
C5007 C5004 1.539 . S
C5007 H5021 0.958 . S
C5007 H5022 0.961 . S
C5007 H5023 0.960 . S
H5008 C4992 0.931 . S
H5009 C4997 0.929 . S
H5010 C4998 0.960 . S
H5011 C4998 0.962 . S
H5012 C4998 0.960 . S
H5013 C4999 0.961 . S
H5014 C4999 0.961 . S
H5015 C4999 0.961 . S
H5016 C5000 0.931 . S
H5017 C5005 0.930 . S
H5018 C5006 0.956 . S
H5019 C5006 0.961 . S
H5020 C5006 0.961 . S
H5021 C5007 0.958 . S
H5022 C5007 0.961 . S
H5023 C5007 0.960 . S
C5024 C5025 1.391 . S
C5024 C5026 1.394 . S
C5024 H5040 0.931 . S
C5025 C5024 1.391 . S
C5025 C5029 1.376 . S
C5026 C5024 1.394 . S
C5026 C5027 1.369 . S
C5026 C5030 1.531 . S
C5027 C5026 1.369 . S
C5027 C5028 1.410 . S
C5027 C5035 1.503 . S
C5028 C5027 1.410 . S
C5028 C5029 1.392 . S
C5028 C5031 1.511 . S
C5029 C5025 1.376 . S
C5029 C5028 1.392 . S
C5029 H5041 0.929 . S
C5030 C5026 1.531 . S
C5030 H5042 0.960 . S
C5030 H5043 0.962 . S
C5030 H5044 0.960 . S
C5031 C5028 1.511 . S
C5031 H5045 0.961 . S
C5031 H5046 0.961 . S
C5031 H5047 0.961 . S
C5032 C5033 1.370 . S
C5032 C5034 1.363 . S
C5032 H5048 0.931 . S
C5033 C5032 1.370 . S
C5033 C5037 1.408 . S
C5034 C5032 1.363 . S
C5034 C5035 1.370 . S
C5034 C5038 1.524 . S
C5035 C5027 1.503 . S
C5035 C5034 1.370 . S
C5035 C5036 1.403 . S
C5036 C5035 1.403 . S
C5036 C5037 1.404 . S
C5036 C5039 1.539 . S
C5037 C5033 1.408 . S
C5037 C5036 1.404 . S
C5037 H5049 0.930 . S
C5038 C5034 1.524 . S
C5038 H5050 0.956 . S
C5038 H5051 0.961 . S
C5038 H5052 0.961 . S
C5039 C5036 1.539 . S
C5039 H5053 0.958 . S
C5039 H5054 0.961 . S
C5039 H5055 0.960 . S
H5040 C5024 0.931 . S
H5041 C5029 0.929 . S
H5042 C5030 0.960 . S
H5043 C5030 0.962 . S
H5044 C5030 0.960 . S
H5045 C5031 0.961 . S
H5046 C5031 0.961 . S
H5047 C5031 0.961 . S
H5048 C5032 0.931 . S
H5049 C5037 0.930 . S
H5050 C5038 0.956 . S
H5051 C5038 0.961 . S
H5052 C5038 0.961 . S
H5053 C5039 0.958 . S
H5054 C5039 0.961 . S
H5055 C5039 0.960 . S
C5056 C5057 1.391 . S
C5056 C5058 1.394 . S
C5056 H5072 0.931 . S
C5057 C5056 1.391 . S
C5057 C5061 1.376 . S
C5058 C5056 1.394 . S
C5058 C5059 1.369 . S
C5058 C5062 1.531 . S
C5059 C5058 1.369 . S
C5059 C5060 1.410 . S
C5059 C5067 1.503 . S
C5060 C5059 1.410 . S
C5060 C5061 1.392 . S
C5060 C5063 1.511 . S
C5061 C5057 1.376 . S
C5061 C5060 1.392 . S
C5061 H5073 0.929 . S
C5062 C5058 1.531 . S
C5062 H5074 0.960 . S
C5062 H5075 0.962 . S
C5062 H5076 0.960 . S
C5063 C5060 1.511 . S
C5063 H5077 0.961 . S
C5063 H5078 0.961 . S
C5063 H5079 0.961 . S
C5064 C5065 1.370 . S
C5064 C5066 1.363 . S
C5064 H5080 0.931 . S
C5065 C5064 1.370 . S
C5065 C5069 1.408 . S
C5066 C5064 1.363 . S
C5066 C5067 1.370 . S
C5066 C5070 1.524 . S
C5067 C5059 1.503 . S
C5067 C5066 1.370 . S
C5067 C5068 1.403 . S
C5068 C5067 1.403 . S
C5068 C5069 1.404 . S
C5068 C5071 1.539 . S
C5069 C5065 1.408 . S
C5069 C5068 1.404 . S
C5069 H5081 0.930 . S
C5070 C5066 1.524 . S
C5070 H5082 0.956 . S
C5070 H5083 0.961 . S
C5070 H5084 0.961 . S
C5071 C5068 1.539 . S
C5071 H5085 0.958 . S
C5071 H5086 0.961 . S
C5071 H5087 0.960 . S
H5072 C5056 0.931 . S
H5073 C5061 0.929 . S
H5074 C5062 0.960 . S
H5075 C5062 0.962 . S
H5076 C5062 0.960 . S
H5077 C5063 0.961 . S
H5078 C5063 0.961 . S
H5079 C5063 0.961 . S
H5080 C5064 0.931 . S
H5081 C5069 0.930 . S
H5082 C5070 0.956 . S
H5083 C5070 0.961 . S
H5084 C5070 0.961 . S
H5085 C5071 0.958 . S
H5086 C5071 0.961 . S
H5087 C5071 0.960 . S
C5088 C5089 1.391 . S
C5088 C5090 1.394 . S
C5088 H5104 0.931 . S
C5089 C5088 1.391 . S
C5089 C5093 1.376 . S
C5090 C5088 1.394 . S
C5090 C5091 1.369 . S
C5090 C5094 1.531 . S
C5091 C5090 1.369 . S
C5091 C5092 1.410 . S
C5091 C5099 1.503 . S
C5092 C5091 1.410 . S
C5092 C5093 1.392 . S
C5092 C5095 1.511 . S
C5093 C5089 1.376 . S
C5093 C5092 1.392 . S
C5093 H5105 0.929 . S
C5094 C5090 1.531 . S
C5094 H5106 0.960 . S
C5094 H5107 0.962 . S
C5094 H5108 0.960 . S
C5095 C5092 1.511 . S
C5095 H5109 0.961 . S
C5095 H5110 0.961 . S
C5095 H5111 0.961 . S
C5096 C5097 1.370 . S
C5096 C5098 1.363 . S
C5096 H5112 0.931 . S
C5097 C5096 1.370 . S
C5097 C5101 1.408 . S
C5098 C5096 1.363 . S
C5098 C5099 1.370 . S
C5098 C5102 1.524 . S
C5099 C5091 1.503 . S
C5099 C5098 1.370 . S
C5099 C5100 1.403 . S
C5100 C5099 1.403 . S
C5100 C5101 1.404 . S
C5100 C5103 1.539 . S
C5101 C5097 1.408 . S
C5101 C5100 1.404 . S
C5101 H5113 0.930 . S
C5102 C5098 1.524 . S
C5102 H5114 0.956 . S
C5102 H5115 0.961 . S
C5102 H5116 0.961 . S
C5103 C5100 1.539 . S
C5103 H5117 0.958 . S
C5103 H5118 0.961 . S
C5103 H5119 0.960 . S
H5104 C5088 0.931 . S
H5105 C5093 0.929 . S
H5106 C5094 0.960 . S
H5107 C5094 0.962 . S
H5108 C5094 0.960 . S
H5109 C5095 0.961 . S
H5110 C5095 0.961 . S
H5111 C5095 0.961 . S
H5112 C5096 0.931 . S
H5113 C5101 0.930 . S
H5114 C5102 0.956 . S
H5115 C5102 0.961 . S
H5116 C5102 0.961 . S
H5117 C5103 0.958 . S
H5118 C5103 0.961 . S
H5119 C5103 0.960 . S
C5120 C5121 1.391 . S
C5120 C5122 1.394 . S
C5120 H5136 0.931 . S
C5121 C5120 1.391 . S
C5121 C5125 1.376 . S
C5122 C5120 1.394 . S
C5122 C5123 1.369 . S
C5122 C5126 1.531 . S
C5123 C5122 1.369 . S
C5123 C5124 1.410 . S
C5123 C5131 1.503 . S
C5124 C5123 1.410 . S
C5124 C5125 1.392 . S
C5124 C5127 1.511 . S
C5125 C5121 1.376 . S
C5125 C5124 1.392 . S
C5125 H5137 0.929 . S
C5126 C5122 1.531 . S
C5126 H5138 0.960 . S
C5126 H5139 0.962 1_554 S
C5126 H5140 0.960 . S
C5127 C5124 1.511 . S
C5127 H5141 0.961 . S
C5127 H5142 0.961 . S
C5127 H5143 0.961 . S
C5128 C5129 1.370 . S
C5128 C5130 1.363 . S
C5128 H5144 0.931 . S
C5129 C5128 1.370 . S
C5129 C5133 1.408 . S
C5130 C5128 1.363 . S
C5130 C5131 1.370 . S
C5130 C5134 1.524 . S
C5131 C5123 1.503 . S
C5131 C5130 1.370 . S
C5131 C5132 1.403 . S
C5132 C5131 1.403 . S
C5132 C5133 1.404 . S
C5132 C5135 1.539 . S
C5133 C5129 1.408 . S
C5133 C5132 1.404 . S
C5133 H5145 0.930 . S
C5134 C5130 1.524 . S
C5134 H5146 0.956 . S
C5134 H5147 0.961 . S
C5134 H5148 0.961 . S
C5135 C5132 1.539 . S
C5135 H5149 0.958 . S
C5135 H5150 0.961 . S
C5135 H5151 0.960 . S
H5136 C5120 0.931 . S
H5137 C5125 0.929 . S
H5138 C5126 0.960 . S
H5139 C5126 0.962 1_556 S
H5140 C5126 0.960 . S
H5141 C5127 0.961 . S
H5142 C5127 0.961 . S
H5143 C5127 0.961 . S
H5144 C5128 0.931 . S
H5145 C5133 0.930 . S
H5146 C5134 0.956 . S
H5147 C5134 0.961 . S
H5148 C5134 0.961 . S
H5149 C5135 0.958 . S
H5150 C5135 0.961 . S
H5151 C5135 0.960 . S
C5152 C5153 1.391 . S
C5152 C5154 1.394 . S
C5152 H5168 0.931 . S
C5153 C5152 1.391 . S
C5153 C5157 1.376 . S
C5154 C5152 1.394 . S
C5154 C5155 1.369 . S
C5154 C5158 1.531 . S
C5155 C5154 1.369 . S
C5155 C5156 1.410 . S
C5155 C5163 1.503 . S
C5156 C5155 1.410 . S
C5156 C5157 1.392 . S
C5156 C5159 1.511 . S
C5157 C5153 1.376 . S
C5157 C5156 1.392 . S
C5157 H5169 0.929 . S
C5158 C5154 1.531 . S
C5158 H5170 0.960 . S
C5158 H5171 0.962 . S
C5158 H5172 0.960 . S
C5159 C5156 1.511 . S
C5159 H5173 0.961 . S
C5159 H5174 0.961 . S
C5159 H5175 0.961 . S
C5160 C5161 1.370 . S
C5160 C5162 1.363 . S
C5160 H5176 0.931 . S
C5161 C5160 1.370 . S
C5161 C5165 1.408 . S
C5162 C5160 1.363 . S
C5162 C5163 1.370 . S
C5162 C5166 1.524 . S
C5163 C5155 1.503 . S
C5163 C5162 1.370 . S
C5163 C5164 1.403 . S
C5164 C5163 1.403 . S
C5164 C5165 1.404 . S
C5164 C5167 1.539 . S
C5165 C5161 1.408 . S
C5165 C5164 1.404 . S
C5165 H5177 0.930 . S
C5166 C5162 1.524 . S
C5166 H5178 0.956 . S
C5166 H5179 0.961 . S
C5166 H5180 0.961 . S
C5167 C5164 1.539 . S
C5167 H5181 0.958 . S
C5167 H5182 0.961 . S
C5167 H5183 0.960 . S
H5168 C5152 0.931 . S
H5169 C5157 0.929 . S
H5170 C5158 0.960 . S
H5171 C5158 0.962 . S
H5172 C5158 0.960 . S
H5173 C5159 0.961 . S
H5174 C5159 0.961 . S
H5175 C5159 0.961 . S
H5176 C5160 0.931 . S
H5177 C5165 0.930 . S
H5178 C5166 0.956 . S
H5179 C5166 0.961 . S
H5180 C5166 0.961 . S
H5181 C5167 0.958 . S
H5182 C5167 0.961 . S
H5183 C5167 0.960 . S
C5184 C5185 1.391 . S
C5184 C5186 1.394 . S
C5184 H5200 0.931 . S
C5185 C5184 1.391 . S
C5185 C5189 1.376 . S
C5186 C5184 1.394 . S
C5186 C5187 1.369 . S
C5186 C5190 1.531 . S
C5187 C5186 1.369 . S
C5187 C5188 1.410 . S
C5187 C5195 1.503 . S
C5188 C5187 1.410 . S
C5188 C5189 1.392 . S
C5188 C5191 1.511 . S
C5189 C5185 1.376 . S
C5189 C5188 1.392 . S
C5189 H5201 0.929 . S
C5190 C5186 1.531 . S
C5190 H5202 0.960 . S
C5190 H5203 0.962 . S
C5190 H5204 0.960 . S
C5191 C5188 1.511 . S
C5191 H5205 0.961 . S
C5191 H5206 0.961 . S
C5191 H5207 0.961 . S
C5192 C5193 1.370 . S
C5192 C5194 1.363 . S
C5192 H5208 0.931 1_554 S
C5193 C5192 1.370 . S
C5193 C5197 1.408 . S
C5194 C5192 1.363 . S
C5194 C5195 1.370 . S
C5194 C5198 1.524 1_554 S
C5195 C5187 1.503 . S
C5195 C5194 1.370 . S
C5195 C5196 1.403 . S
C5196 C5195 1.403 . S
C5196 C5197 1.404 . S
C5196 C5199 1.539 . S
C5197 C5193 1.408 . S
C5197 C5196 1.404 . S
C5197 H5209 0.930 . S
C5198 C5194 1.524 1_556 S
C5198 H5210 0.956 . S
C5198 H5211 0.961 . S
C5198 H5212 0.961 . S
C5199 C5196 1.539 . S
C5199 H5213 0.958 . S
C5199 H5214 0.961 . S
C5199 H5215 0.960 . S
H5200 C5184 0.931 . S
H5201 C5189 0.929 . S
H5202 C5190 0.960 . S
H5203 C5190 0.962 . S
H5204 C5190 0.960 . S
H5205 C5191 0.961 . S
H5206 C5191 0.961 . S
H5207 C5191 0.961 . S
H5208 C5192 0.931 1_556 S
H5209 C5197 0.930 . S
H5210 C5198 0.956 . S
H5211 C5198 0.961 . S
H5212 C5198 0.961 . S
H5213 C5199 0.958 . S
H5214 C5199 0.961 . S
H5215 C5199 0.960 . S
C5216 C5217 1.391 . S
C5216 C5218 1.394 . S
C5216 H5232 0.931 . S
C5217 C5216 1.391 . S
C5217 C5221 1.376 . S
C5218 C5216 1.394 . S
C5218 C5219 1.369 . S
C5218 C5222 1.531 . S
C5219 C5218 1.369 . S
C5219 C5220 1.410 . S
C5219 C5227 1.503 . S
C5220 C5219 1.410 . S
C5220 C5221 1.392 . S
C5220 C5223 1.511 . S
C5221 C5217 1.376 . S
C5221 C5220 1.392 . S
C5221 H5233 0.929 . S
C5222 C5218 1.531 . S
C5222 H5234 0.960 . S
C5222 H5235 0.962 . S
C5222 H5236 0.960 . S
C5223 C5220 1.511 . S
C5223 H5237 0.961 . S
C5223 H5238 0.961 . S
C5223 H5239 0.961 . S
C5224 C5225 1.370 . S
C5224 C5226 1.363 . S
C5224 H5240 0.931 . S
C5225 C5224 1.370 . S
C5225 C5229 1.408 . S
C5226 C5224 1.363 . S
C5226 C5227 1.370 . S
C5226 C5230 1.524 . S
C5227 C5219 1.503 . S
C5227 C5226 1.370 . S
C5227 C5228 1.403 . S
C5228 C5227 1.403 . S
C5228 C5229 1.404 . S
C5228 C5231 1.539 . S
C5229 C5225 1.408 . S
C5229 C5228 1.404 . S
C5229 H5241 0.930 . S
C5230 C5226 1.524 . S
C5230 H5242 0.956 . S
C5230 H5243 0.961 . S
C5230 H5244 0.961 . S
C5231 C5228 1.539 . S
C5231 H5245 0.958 . S
C5231 H5246 0.961 . S
C5231 H5247 0.960 . S
H5232 C5216 0.931 . S
H5233 C5221 0.929 . S
H5234 C5222 0.960 . S
H5235 C5222 0.962 . S
H5236 C5222 0.960 . S
H5237 C5223 0.961 . S
H5238 C5223 0.961 . S
H5239 C5223 0.961 . S
H5240 C5224 0.931 . S
H5241 C5229 0.930 . S
H5242 C5230 0.956 . S
H5243 C5230 0.961 . S
H5244 C5230 0.961 . S
H5245 C5231 0.958 . S
H5246 C5231 0.961 . S
H5247 C5231 0.960 . S
C5248 C5249 1.391 . S
C5248 C5250 1.394 . S
C5248 H5264 0.931 . S
C5249 C5248 1.391 . S
C5249 C5253 1.376 . S
C5250 C5248 1.394 . S
C5250 C5251 1.369 . S
C5250 C5254 1.531 . S
C5251 C5250 1.369 . S
C5251 C5252 1.410 . S
C5251 C5259 1.503 . S
C5252 C5251 1.410 . S
C5252 C5253 1.392 . S
C5252 C5255 1.511 . S
C5253 C5249 1.376 . S
C5253 C5252 1.392 . S
C5253 H5265 0.929 . S
C5254 C5250 1.531 . S
C5254 H5266 0.960 . S
C5254 H5267 0.962 . S
C5254 H5268 0.960 . S
C5255 C5252 1.511 . S
C5255 H5269 0.961 . S
C5255 H5270 0.961 . S
C5255 H5271 0.961 . S
C5256 C5257 1.370 . S
C5256 C5258 1.363 . S
C5256 H5272 0.931 . S
C5257 C5256 1.370 . S
C5257 C5261 1.408 . S
C5258 C5256 1.363 . S
C5258 C5259 1.370 . S
C5258 C5262 1.524 . S
C5259 C5251 1.503 . S
C5259 C5258 1.370 . S
C5259 C5260 1.403 . S
C5260 C5259 1.403 . S
C5260 C5261 1.404 . S
C5260 C5263 1.539 . S
C5261 C5257 1.408 . S
C5261 C5260 1.404 . S
C5261 H5273 0.930 . S
C5262 C5258 1.524 . S
C5262 H5274 0.956 . S
C5262 H5275 0.961 . S
C5262 H5276 0.961 . S
C5263 C5260 1.539 . S
C5263 H5277 0.958 . S
C5263 H5278 0.961 . S
C5263 H5279 0.960 . S
H5264 C5248 0.931 . S
H5265 C5253 0.929 . S
H5266 C5254 0.960 . S
H5267 C5254 0.962 . S
H5268 C5254 0.960 . S
H5269 C5255 0.961 . S
H5270 C5255 0.961 . S
H5271 C5255 0.961 . S
H5272 C5256 0.931 . S
H5273 C5261 0.930 . S
H5274 C5262 0.956 . S
H5275 C5262 0.961 . S
H5276 C5262 0.961 . S
H5277 C5263 0.958 . S
H5278 C5263 0.961 . S
H5279 C5263 0.960 . S
C2209 C255 2.065 . S
C2217 C920 2.078 . S
C2241 C147 1.855 . S
C2249 C1022 1.865 . S
C2273 C184 1.783 . S
C2281 C1088 1.806 . S
C2313 C1174 1.374 . S
C2305 C220 1.495 . S
C2337 C40 1.471 . S
C2345 C1258 1.377 . S
C2377 C1340 1.907 . S
C2369 C74 1.864 . S
C2409 C1442 1.892 . S
C2401 C110 1.897 . S
C2433 C14 2.042 . S
C2441 C1508 2.050 . S
C2473 C938 1.712 . S
C2465 C579 1.765 . S
C2497 C616 0.953 . S
C2505 C1006 0.931 . S
C2537 C1106 1.195 . S
C2529 C687 1.177 . S
C2569 C1172 1.675 . S
C2561 C436 1.672 . S
C2593 C580 1.631 . S
C2601 C1256 1.649 . S
C2633 C1358 1.169 . S
C2625 C615 1.179 . S
C2665 C1426 0.902 . S
C2657 C688 0.946 . S
C2697 C1526 1.694 . S
C2689 C435 1.747 . S
C2729 C922 0.951 . S
C2721 C410 1.009 1_554 S
C2753 C722 1.712 . S
C2761 C1610 1.710 . S
C2793 C1678 1.334 . S
C2785 C842 1.421 . S
C2825 C1760 0.862 . S
C2817 C794 0.831 . S
C2849 C302 1.014 . S
C2857 C1510 1.016 . S
C2881 C338 1.388 . S
C2889 C1090 1.319 . S
C2913 C830 1.759 . S
C2921 C1862 1.740 . S
C2953 C1928 0.921 . S
C2945 C758 0.905 . S
C2985 C931 2.058 . S
C2977 C158 1.938 . S
C3017 C1935 1.846 . S
C3009 C254 1.850 . S
C3041 C218 1.803 . S
C3049 C1099 1.829 . S
C3073 C194 1.440 . S
C3081 C1857 1.393 . S
C3113 C1269 1.367 . S
C3105 C3 1.458 . S
C3137 C111 1.735 . S
C3145 C1687 1.738 . S
C3177 C1431 1.855 1_556 S
C3169 C76 1.852 . S
C3209 C2023 2.112 . S
C3201 C50 2.023 . S
C3241 C927 1.658 . S
C3233 C364 1.713 . S
C3273 C1941 0.909 . S
C3265 C795 0.910 . S
C3297 C292 1.146 . S
C3305 C1095 1.142 . S
C3329 C723 1.608 . S
C3337 C1855 1.605 . S
C3361 C363 1.621 . S
C3369 C1267 1.617 . S
C3401 C1683 1.156 . S
C3393 C796 1.158 . S
C3425 C291 0.943 . S
C3433 C1437 0.872 . S
C3457 C724 1.727 . S
C3465 C2019 1.680 . S
C3489 C482 0.955 . S
C3497 C933 0.979 . S
C3521 C434 1.690 . S
C3529 C1599 1.686 . S
C3553 C662 1.375 . S
C3561 C1353 1.351 . S
C3585 C614 0.852 . S
C3593 C1771 0.854 . S
C3625 C2025 0.968 . S
C3617 C698 0.907 . S
C3649 C554 1.320 . S
C3657 C1101 1.320 . S
C3689 C1179 1.691 . S
C3681 C650 1.695 . S
C3721 C1015 0.858 . S
C3713 C506 0.836 . S
C3745 C183 2.053 . S
C3753 C2096 2.081 . S
C3785 C1946 1.866 . S
C3777 C219 1.859 . S
C3809 C256 1.754 . S
C3817 C2180 1.807 . S
C3841 C148 1.500 1_655 S
C3849 C1846 1.403 . S
C3873 C122 1.490 . S
C3881 C1594 1.393 . S
C3913 C1676 1.841 . S
C3905 C2 1.814 1_655 S
C3945 C1778 1.813 . S
C3937 C39 1.807 . S
C3977 C2012 2.116 . S
C3969 C86 2.105 . S
C4009 C2114 1.725 . S
C4001 C651 1.772 . S
C4033 C472 0.952 . S
C4041 C1930 0.904 . S
C4073 C2198 1.181 . S
C4065 C507 1.164 . S
C4105 C1844 1.681 . S
C4097 C544 1.676 . S
C4137 C1592 1.646 . S
C4129 C652 1.637 . S
C4161 C471 1.143 . S
C4169 C1694 1.137 . S
C4201 C1762 0.931 . S
C4193 C508 0.947 . S
C4225 C543 1.756 . S
C4233 C2030 1.722 . S
C4265 C2098 0.972 . S
C4257 C806 1.038 . S
C4289 C326 1.694 . S
C4297 C1274 1.685 . S
C4329 C1342 1.350 . S
C4321 C374 1.353 1_565 S
C4361 C1424 0.877 . S
C4353 C398 0.843 . S
C4393 C2014 0.992 . S
C4385 C770 1.026 . S
C4417 C734 1.386 . S
C4425 C2182 1.297 . S
C4457 C1190 1.723 . S
C4449 C362 1.721 . S
C4489 C1004 0.936 . S
C4481 C290 0.960 . S
C4513 C230 1.959 . S
C4521 C2107 2.051 . S
C4553 C1011 1.851 . S
C4545 C182 1.855 . S
C4577 C146 1.802 . S
C4585 C2191 1.831 . S
C4609 C266 1.450 . S
C4617 C1185 1.396 . S
C4641 C75 1.494 . S
C4649 C1605 1.397 . S
C4681 C1351 1.889 . S
C4673 C38 1.834 . S
C4705 C4 1.790 . S
C4713 C1767 1.790 . S
C4737 C112 2.014 . S
C4745 C1519 2.021 . S
C4777 C2103 1.660 . S
C4769 C832 1.715 . S
C4801 C399 0.936 . S
C4809 C1017 0.907 . S
C4841 C2187 1.114 1_655 S
C4833 C760 1.134 . S
C4865 C327 1.603 . S
C4873 C1183 1.607 . S
C4897 C831 1.646 . S
C4905 C1603 1.650 . S
C4937 C1347 1.161 . S
C4929 C400 1.170 . S
C4961 C759 0.927 . S
C4969 C1773 0.873 . S
C5001 C1515 1.688 . S
C4993 C328 1.723 . S
C5033 C2109 1.004 . S
C5025 C626 1.022 . S
C5065 C1263 1.694 1_565 S
C5057 C542 1.703 . S
C5089 C590 1.272 . S
C5097 C1689 1.293 . S
C5129 C1435 0.860 . S
C5121 C470 0.888 . S
C5153 C518 0.890 . S
C5161 C1521 0.946 . S
C5185 C446 1.363 . S
C5193 C2193 1.343 . S
C5225 C1851 1.692 . S
C5217 C578 1.698 . S
C5257 C1939 0.836 . S
C5249 C686 0.821 . S
