# Generated by pormake.
# Topology pto, (3,4)-cn, num edge types: 1
# Building blocks:
#     Node 0, Type 0, BuildingBlock: WUSLED_clean_sbu_0, # of connection points: 3
#     Node 1, Type 0, BuildingBlock: WUSLED_clean_sbu_0, # of connection points: 3
#     Node 2, Type 0, BuildingBlock: WUSLED_clean_sbu_0, # of connection points: 3
#     Node 3, Type 0, BuildingBlock: WUSLED_clean_sbu_0, # of connection points: 3
#     Node 4, Type 0, BuildingBlock: WUSLED_clean_sbu_0, # of connection points: 3
#     Node 5, Type 0, BuildingBlock: WUSLED_clean_sbu_0, # of connection points: 3
#     Node 6, Type 0, BuildingBlock: WUSLED_clean_sbu_0, # of connection points: 3
#     Node 7, Type 0, BuildingBlock: WUSLED_clean_sbu_0, # of connection points: 3
#     Node 8, Type 1, BuildingBlock: KOZSID_clean_sbu_0, # of connection points: 4
#     Node 9, Type 1, BuildingBlock: KOZSID_clean_sbu_0, # of connection points: 4
#     Node 10, Type 1, BuildingBlock: KOZSID_clean_sbu_0, # of connection points: 4
#     Node 11, Type 1, BuildingBlock: KOZSID_clean_sbu_0, # of connection points: 4
#     Node 12, Type 1, BuildingBlock: KOZSID_clean_sbu_0, # of connection points: 4
#     Node 13, Type 1, BuildingBlock: KOZSID_clean_sbu_0, # of connection points: 4
#     Edge 14, Type (0, 1), BuildingBlock: XUDNAN_clean_linker_2, # of connection points: 2
#     Edge 15, Type (0, 1), BuildingBlock: XUDNAN_clean_linker_2, # of connection points: 2
#     Edge 16, Type (0, 1), BuildingBlock: XUDNAN_clean_linker_2, # of connection points: 2
#     Edge 17, Type (0, 1), BuildingBlock: XUDNAN_clean_linker_2, # of connection points: 2
#     Edge 18, Type (0, 1), BuildingBlock: XUDNAN_clean_linker_2, # of connection points: 2
#     Edge 19, Type (0, 1), BuildingBlock: XUDNAN_clean_linker_2, # of connection points: 2
#     Edge 20, Type (0, 1), BuildingBlock: XUDNAN_clean_linker_2, # of connection points: 2
#     Edge 21, Type (0, 1), BuildingBlock: XUDNAN_clean_linker_2, # of connection points: 2
#     Edge 22, Type (0, 1), BuildingBlock: XUDNAN_clean_linker_2, # of connection points: 2
#     Edge 23, Type (0, 1), BuildingBlock: XUDNAN_clean_linker_2, # of connection points: 2
#     Edge 24, Type (0, 1), BuildingBlock: XUDNAN_clean_linker_2, # of connection points: 2
#     Edge 25, Type (0, 1), BuildingBlock: XUDNAN_clean_linker_2, # of connection points: 2
#     Edge 26, Type (0, 1), BuildingBlock: XUDNAN_clean_linker_2, # of connection points: 2
#     Edge 27, Type (0, 1), BuildingBlock: XUDNAN_clean_linker_2, # of connection points: 2
#     Edge 28, Type (0, 1), BuildingBlock: XUDNAN_clean_linker_2, # of connection points: 2
#     Edge 29, Type (0, 1), BuildingBlock: XUDNAN_clean_linker_2, # of connection points: 2
#     Edge 30, Type (0, 1), BuildingBlock: XUDNAN_clean_linker_2, # of connection points: 2
#     Edge 31, Type (0, 1), BuildingBlock: XUDNAN_clean_linker_2, # of connection points: 2
#     Edge 32, Type (0, 1), BuildingBlock: XUDNAN_clean_linker_2, # of connection points: 2
#     Edge 33, Type (0, 1), BuildingBlock: XUDNAN_clean_linker_2, # of connection points: 2
#     Edge 34, Type (0, 1), BuildingBlock: XUDNAN_clean_linker_2, # of connection points: 2
#     Edge 35, Type (0, 1), BuildingBlock: XUDNAN_clean_linker_2, # of connection points: 2
#     Edge 36, Type (0, 1), BuildingBlock: XUDNAN_clean_linker_2, # of connection points: 2
#     Edge 37, Type (0, 1), BuildingBlock: XUDNAN_clean_linker_2, # of connection points: 2
# Relax obj value: 0.000
# Max RMSD: 0.023
# Mean RMSD: 0.010
data_MOF--net-pto--node1-WUSLED_clean_sbu_0--node2-KOZSID_clean_sbu_0--edge1-XUDNAN_clean_linker_2
_symmetry_space_group_name_H-M    P1
_symmetry_Int_Tables_number       1
_symmetry_cell_setting            triclinic
loop_
_symmetry_equiv_pos_as_xyz
'x, y, z'
_cell_length_a     49.405601
_cell_length_b     65.667085
_cell_length_c     57.650052
_cell_angle_alpha  87.480421
_cell_angle_beta   88.260364
_cell_angle_gamma 92.87728
loop_
_atom_site_label
_atom_site_type_symbol
_atom_site_fract_x
_atom_site_fract_y
_atom_site_fract_z
_atom_type_partial_charge
C0 C 0.25858 0.23478 0.36603 0.0
C1 C 0.26953 0.21702 0.35778 0.0
C2 C 0.26488 0.20052 0.39669 0.0
C3 C 0.27256 0.19999 0.37298 0.0
C4 C 0.25361 0.21831 0.40464 0.0
C5 C 0.25053 0.2352 0.3895 0.0
U6 U 0.27358 0.26979 0.3106 0.0
O7 O 0.24565 0.28873 0.29103 0.0
O8 O 0.28044 0.30319 0.30787 0.0
C9 C 0.25842 0.30595 0.29613 0.0
C10 C 0.25539 0.2532 0.35086 0.0
C11 C 0.24196 0.32336 0.3025 0.0
C12 C 0.19922 0.34059 0.30246 0.0
C13 C 0.21361 0.3228 0.3003 0.0
C14 C 0.24103 0.35962 0.3098 0.0
C15 C 0.21292 0.35934 0.30655 0.0
C16 C 0.25534 0.34191 0.30774 0.0
C17 C 0.32294 0.25589 0.26209 0.0
C18 C 0.33349 0.27856 0.22815 0.0
C19 C 0.35484 0.24625 0.23202 0.0
C20 C 0.34076 0.24196 0.25327 0.0
C21 C 0.35136 0.26459 0.21912 0.0
C22 C 0.31943 0.27425 0.24942 0.0
C23 C 0.30835 0.25114 0.28454 0.0
O24 O 0.27658 0.26612 0.3486 0.0
O25 O 0.24302 0.25057 0.33125 0.0
O26 O 0.28192 0.24805 0.28356 0.0
O27 O 0.31557 0.26267 0.30158 0.0
H28 H 0.27592 0.21639 0.33969 0.0
H29 H 0.28146 0.18661 0.36629 0.0
H30 H 0.24702 0.21919 0.42264 0.0
H31 H 0.2419 0.24869 0.39621 0.0
H32 H 0.17761 0.33987 0.29974 0.0
H33 H 0.20265 0.30885 0.296 0.0
H34 H 0.25217 0.37372 0.3133 0.0
H35 H 0.27716 0.34296 0.30929 0.0
H36 H 0.33055 0.29295 0.21889 0.0
H37 H 0.36812 0.23501 0.22552 0.0
H38 H 0.34372 0.22769 0.2628 0.0
H39 H 0.30585 0.28525 0.25601 0.0
C40 C 0.24348 0.82276 0.69594 0.0
C41 C 0.25443 0.84132 0.70375 0.0
C42 C 0.25241 0.85712 0.66464 0.0
C43 C 0.25875 0.85839 0.68823 0.0
C44 C 0.24118 0.83851 0.65712 0.0
C45 C 0.23681 0.82158 0.67258 0.0
U46 U 0.25686 0.78723 0.74973 0.0
O47 O 0.22765 0.76803 0.7717 0.0
O48 O 0.2589 0.75372 0.7511 0.0
C49 C 0.23731 0.75087 0.76495 0.0
C50 C 0.23875 0.80429 0.71143 0.0
C51 C 0.21727 0.73464 0.75892 0.0
C52 C 0.17461 0.72323 0.74244 0.0
C53 C 0.19403 0.7389 0.74652 0.0
C54 C 0.20175 0.69882 0.76255 0.0
C55 C 0.17808 0.70299 0.75062 0.0
C56 C 0.22107 0.71447 0.76665 0.0
C57 C 0.31063 0.80071 0.79384 0.0
C58 C 0.32457 0.77625 0.82349 0.0
C59 C 0.3433 0.81108 0.8224 0.0
C60 C 0.3277 0.81576 0.80316 0.0
C61 C 0.34221 0.79118 0.83265 0.0
C62 C 0.30893 0.78097 0.8043 0.0
C63 C 0.29535 0.80565 0.77289 0.0
O64 O 0.25824 0.79139 0.71158 0.0
O65 O 0.22792 0.8067 0.73219 0.0
O66 O 0.26944 0.80854 0.77638 0.0
O67 O 0.30013 0.79445 0.75502 0.0
H68 H 0.25978 0.84256 0.72173 0.0
H69 H 0.26757 0.87243 0.69456 0.0
H70 H 0.23561 0.83702 0.63923 0.0
H71 H 0.22821 0.80747 0.66621 0.0
H72 H 0.15683 0.72698 0.73292 0.0
H73 H 0.19072 0.75435 0.74028 0.0
H74 H 0.20502 0.68355 0.76939 0.0
H75 H 0.23882 0.71085 0.77631 0.0
H76 H 0.32289 0.76085 0.83113 0.0
H77 H 0.35681 0.8229 0.82881 0.0
H78 H 0.3293 0.83109 0.79532 0.0
H79 H 0.29574 0.76916 0.79745 0.0
C80 C 0.73896 0.80045 0.26342 0.0
C81 C 0.73697 0.78079 0.25484 0.0
C82 C 0.70969 0.79298 0.22288 0.0
C83 C 0.72244 0.77708 0.23482 0.0
C84 C 0.71167 0.81264 0.23171 0.0
C85 C 0.72616 0.81631 0.25175 0.0
U86 U 0.78989 0.78579 0.30946 0.0
O87 O 0.82243 0.80458 0.32469 0.0
O88 O 0.78914 0.79065 0.34705 0.0
C89 C 0.81091 0.80309 0.3456 0.0
C90 C 0.75446 0.80473 0.2843 0.0
C91 C 0.81037 0.82218 0.35851 0.0
C92 C 0.78751 0.84562 0.38343 0.0
C93 C 0.78648 0.82886 0.36904 0.0
C94 C 0.83603 0.84965 0.37638 0.0
C95 C 0.81243 0.8559 0.38773 0.0
C96 C 0.835 0.83301 0.36205 0.0
C97 C 0.82244 0.73314 0.30437 0.0
C98 C 0.84322 0.71172 0.33372 0.0
C99 C 0.84819 0.70424 0.29313 0.0
C100 C 0.83297 0.721 0.28717 0.0
C101 C 0.85322 0.69915 0.31652 0.0
C102 C 0.82799 0.72854 0.32771 0.0
C103 C 0.80451 0.74959 0.2974 0.0
O104 O 0.74772 0.79318 0.30299 0.0
O105 O 0.78082 0.80756 0.2809 0.0
O106 O 0.81645 0.76678 0.28898 0.0
O107 O 0.78352 0.75234 0.31128 0.0
H108 H 0.74669 0.76832 0.2636 0.0
H109 H 0.72106 0.76168 0.22879 0.0
H110 H 0.70249 0.82531 0.22287 0.0
H111 H 0.72754 0.83162 0.25807 0.0
H112 H 0.76897 0.84996 0.39196 0.0
H113 H 0.76714 0.82083 0.36671 0.0
H114 H 0.85551 0.85741 0.37892 0.0
H115 H 0.85371 0.82822 0.35421 0.0
H116 H 0.84701 0.70848 0.35188 0.0
H117 H 0.8552 0.69485 0.27942 0.0
H118 H 0.82884 0.72421 0.26905 0.0
H119 H 0.8202 0.73773 0.34131 0.0
C120 C 0.77388 0.22908 0.72989 0.0
C121 C 0.77599 0.23643 0.70661 0.0
C122 C 0.77624 0.20154 0.69338 0.0
C123 C 0.77713 0.2228 0.68857 0.0
C124 C 0.77527 0.19433 0.71676 0.0
C125 C 0.77403 0.20795 0.73477 0.0
U126 U 0.78347 0.27947 0.76269 0.0
O127 O 0.75204 0.29623 0.78067 0.0
O128 O 0.78519 0.28358 0.80029 0.0
C129 C 0.76227 0.29293 0.8012 0.0
C130 C 0.76909 0.24278 0.7492 0.0
C131 C 0.74282 0.28689 0.82069 0.0
C132 C 0.70562 0.29624 0.8462 0.0
C133 C 0.72225 0.30004 0.82622 0.0
C134 C 0.72929 0.26566 0.85525 0.0
C135 C 0.70928 0.27923 0.86125 0.0
C136 C 0.74588 0.26944 0.8352 0.0
C137 C 0.83113 0.32473 0.73998 0.0
C138 C 0.82922 0.36169 0.73445 0.0
C139 C 0.86996 0.34731 0.74873 0.0
C140 C 0.85782 0.32763 0.74753 0.0
C141 C 0.8558 0.36464 0.74228 0.0
C142 C 0.81707 0.34204 0.73329 0.0
C143 C 0.81866 0.30373 0.73822 0.0
O144 O 0.7893 0.24628 0.76305 0.0
O145 O 0.75563 0.25912 0.74432 0.0
O146 O 0.79264 0.3022 0.73396 0.0
O147 O 0.82578 0.28988 0.75373 0.0
H148 H 0.77604 0.25266 0.70232 0.0
H149 H 0.77831 0.22893 0.67079 0.0
H150 H 0.7743 0.1781 0.72118 0.0
H151 H 0.77228 0.20191 0.75258 0.0
H152 H 0.69067 0.30714 0.85035 0.0
H153 H 0.71962 0.3137 0.81546 0.0
H154 H 0.73241 0.25224 0.86625 0.0
H155 H 0.76152 0.25897 0.83142 0.0
H156 H 0.81782 0.37459 0.72889 0.0
H157 H 0.89035 0.34893 0.75502 0.0
H158 H 0.86938 0.31465 0.75253 0.0
H159 H 0.79667 0.34047 0.72701 0.0
C160 C 0.81586 0.73971 0.76738 0.0
C161 C 0.82011 0.73531 0.74397 0.0
C162 C 0.84672 0.70628 0.75532 0.0
C163 C 0.83539 0.71875 0.73801 0.0
C164 C 0.84323 0.71128 0.77867 0.0
C165 C 0.82794 0.72778 0.78459 0.0
U166 U 0.78168 0.7921 0.76297 0.0
O167 O 0.73883 0.79803 0.76949 0.0
O168 O 0.76964 0.81083 0.79211 0.0
C169 C 0.74364 0.80773 0.78852 0.0
C170 C 0.79721 0.75537 0.77462 0.0
C171 C 0.72605 0.80153 0.80914 0.0
C172 C 0.694 0.77736 0.82996 0.0
C173 C 0.71254 0.78215 0.81143 0.0
C174 C 0.70306 0.81084 0.84483 0.0
C175 C 0.68873 0.79175 0.8467 0.0
C176 C 0.72143 0.81569 0.82619 0.0
C177 C 0.79924 0.83338 0.71447 0.0
C178 C 0.7988 0.8705 0.71454 0.0
C179 C 0.79126 0.85334 0.67885 0.0
C180 C 0.79413 0.83447 0.69063 0.0
C181 C 0.79359 0.87166 0.69062 0.0
C182 C 0.8015 0.85162 0.72633 0.0
C183 C 0.80276 0.81319 0.72636 0.0
O184 O 0.80828 0.77212 0.78272 0.0
O185 O 0.77663 0.75874 0.76128 0.0
O186 O 0.78239 0.79963 0.72526 0.0
O187 O 0.8136 0.81321 0.74693 0.0
H188 H 0.81111 0.74432 0.73033 0.0
H189 H 0.83801 0.71556 0.71983 0.0
H190 H 0.85135 0.70195 0.79249 0.0
H191 H 0.82481 0.73083 0.80277 0.0
H192 H 0.68358 0.76242 0.83107 0.0
H193 H 0.71586 0.77085 0.79866 0.0
H194 H 0.69932 0.82232 0.85731 0.0
H195 H 0.73156 0.83074 0.82476 0.0
H196 H 0.80118 0.88422 0.72418 0.0
H197 H 0.78687 0.85351 0.66056 0.0
H198 H 0.79233 0.82066 0.68105 0.0
H199 H 0.80552 0.85136 0.7447 0.0
C200 C 0.73869 0.25739 0.27359 0.0
C201 C 0.73965 0.27724 0.26346 0.0
C202 C 0.70561 0.26693 0.23582 0.0
C203 C 0.72327 0.28197 0.24476 0.0
C204 C 0.70523 0.24695 0.24576 0.0
C205 C 0.72158 0.24226 0.26449 0.0
U206 U 0.79081 0.27174 0.31883 0.0
O207 O 0.78989 0.26429 0.35648 0.0
O208 O 0.82253 0.25356 0.33429 0.0
C209 C 0.81091 0.25285 0.35515 0.0
C210 C 0.75471 0.2524 0.29403 0.0
C211 C 0.80738 0.23238 0.36684 0.0
C212 C 0.78511 0.19844 0.3708 0.0
C213 C 0.788 0.21786 0.3596 0.0
C214 C 0.82088 0.20786 0.39667 0.0
C215 C 0.80159 0.19313 0.38945 0.0
C216 C 0.82372 0.22726 0.38547 0.0
C217 C 0.82388 0.32734 0.31346 0.0
C218 C 0.83515 0.35477 0.33925 0.0
C219 C 0.85746 0.35453 0.30133 0.0
C220 C 0.84279 0.33638 0.29693 0.0
C221 C 0.85344 0.36421 0.32237 0.0
C222 C 0.82052 0.33656 0.33486 0.0
C223 C 0.80595 0.30986 0.3068 0.0
O224 O 0.78101 0.25174 0.2902 0.0
O225 O 0.74845 0.26196 0.31286 0.0
O226 O 0.78471 0.3046 0.32047 0.0
O227 O 0.81777 0.29412 0.29843 0.0
H228 H 0.75283 0.28912 0.2702 0.0
H229 H 0.7244 0.29743 0.23733 0.0
H230 H 0.6917 0.23505 0.23953 0.0
H231 H 0.72055 0.22685 0.27212 0.0
H232 H 0.7698 0.18764 0.36494 0.0
H233 H 0.77512 0.22154 0.34529 0.0
H234 H 0.83417 0.2043 0.41071 0.0
H235 H 0.83885 0.23825 0.39128 0.0
H236 H 0.83183 0.36162 0.35577 0.0
H237 H 0.87109 0.36142 0.28781 0.0
H238 H 0.84555 0.32976 0.28018 0.0
H239 H 0.80609 0.33003 0.34798 0.0
C240 C 0.24533 0.23727 0.70638 0.0
C241 C 0.24261 0.21685 0.71502 0.0
C242 C 0.25576 0.20483 0.67698 0.0
C243 C 0.24768 0.20079 0.70043 0.0
C244 C 0.25811 0.22525 0.66841 0.0
C245 C 0.25289 0.24122 0.68289 0.0
U246 U 0.25731 0.27061 0.75929 0.0
O247 O 0.26154 0.30399 0.76041 0.0
O248 O 0.22816 0.28728 0.78015 0.0
C249 C 0.23951 0.30522 0.77352 0.0
C250 C 0.23983 0.25476 0.72101 0.0
C251 C 0.22121 0.32145 0.76673 0.0
C252 C 0.20293 0.34446 0.73758 0.0
C253 C 0.21765 0.32734 0.74335 0.0
C254 C 0.19414 0.34949 0.77841 0.0
C255 C 0.19144 0.35601 0.75505 0.0
C256 C 0.20891 0.33243 0.78415 0.0
C257 C 0.31033 0.25716 0.80382 0.0
C258 C 0.32779 0.2813 0.8312 0.0
C259 C 0.34252 0.24666 0.83258 0.0
C260 C 0.32587 0.24211 0.81406 0.0
C261 C 0.34406 0.26642 0.84112 0.0
C262 C 0.31106 0.27671 0.81276 0.0
C263 C 0.29463 0.2526 0.78315 0.0
O264 O 0.22798 0.25073 0.74157 0.0
O265 O 0.25933 0.26913 0.7212 0.0
O266 O 0.30012 0.26495 0.76488 0.0
O267 O 0.26851 0.24842 0.78678 0.0
H268 H 0.2367 0.21327 0.73304 0.0
H269 H 0.24583 0.18524 0.70761 0.0
H270 H 0.26385 0.22893 0.65037 0.0
H271 H 0.25481 0.25677 0.67568 0.0
H272 H 0.2009 0.34883 0.71941 0.0
H273 H 0.22686 0.31906 0.72958 0.0
H274 H 0.18584 0.35808 0.79232 0.0
H275 H 0.21151 0.32822 0.8023 0.0
H276 H 0.32817 0.29658 0.83756 0.0
H277 H 0.35493 0.2349 0.83965 0.0
H278 H 0.3256 0.22694 0.80736 0.0
H279 H 0.29911 0.28852 0.80516 0.0
C280 C 0.19914 0.74054 0.32206 0.0
C281 C 0.18343 0.73796 0.30234 0.0
C282 C 0.16478 0.70496 0.3183 0.0
C283 C 0.16643 0.72041 0.30052 0.0
C284 C 0.18097 0.70735 0.33775 0.0
C285 C 0.19782 0.72497 0.33965 0.0
U286 U 0.25732 0.77992 0.3038 0.0
O287 O 0.25901 0.81345 0.30404 0.0
O288 O 0.28699 0.79615 0.32522 0.0
C289 C 0.27827 0.81418 0.31928 0.0
C290 C 0.21589 0.75961 0.32518 0.0
C291 C 0.27625 0.82915 0.33768 0.0
C292 C 0.25154 0.85422 0.3588 0.0
C293 C 0.25165 0.83761 0.34418 0.0
C294 C 0.30029 0.85352 0.36127 0.0
C295 C 0.27601 0.86275 0.36686 0.0
C296 C 0.30038 0.83694 0.3469 0.0
C297 C 0.30172 0.77096 0.24892 0.0
C298 C 0.31717 0.78009 0.20903 0.0
C299 C 0.34996 0.7729 0.23821 0.0
C300 C 0.32894 0.76931 0.25495 0.0
C301 C 0.3444 0.77825 0.21497 0.0
C302 C 0.29613 0.77641 0.22578 0.0
C303 C 0.27902 0.76559 0.26598 0.0
O304 O 0.24117 0.75735 0.33086 0.0
O305 O 0.21328 0.77483 0.30991 0.0
O306 O 0.2584 0.7775 0.26571 0.0
O307 O 0.28555 0.7598 0.28712 0.0
H308 H 0.18398 0.74959 0.2884 0.0
H309 H 0.15452 0.71896 0.28516 0.0
H310 H 0.18001 0.69586 0.35186 0.0
H311 H 0.20955 0.72659 0.3551 0.0
H312 H 0.23254 0.86106 0.36276 0.0
H313 H 0.23272 0.83194 0.33728 0.0
H314 H 0.31943 0.85959 0.36743 0.0
H315 H 0.31959 0.83075 0.34213 0.0
H316 H 0.31206 0.78442 0.19143 0.0
H317 H 0.37058 0.77098 0.24342 0.0
H318 H 0.33408 0.7649 0.27253 0.0
H319 H 0.27537 0.77761 0.22053 0.0
C320 C 0.06189 0.55863 0.34205 0.0
C321 C 0.07397 0.56375 0.36257 0.0
C322 C 0.06829 0.54763 0.37822 0.0
C323 C 0.05295 0.53367 0.3665 0.0
N324 N 0.04863 0.54005 0.34451 0.0
Co325 Co 0.02643 0.52525 0.32186 0.0
N326 N 0.00752 0.50768 0.34684 0.0
C327 C 0.01621 0.50473 0.36861 0.0
C328 C 0.99978 0.49107 0.38192 0.0
C329 C 0.97969 0.48481 0.36757 0.0
C330 C 0.98498 0.49507 0.34619 0.0
N331 N 1.00439 0.51052 0.29902 0.0
C332 C 0.98193 0.49785 0.30234 0.0
C333 C 0.97322 0.49074 0.28134 0.0
C334 C 0.99134 0.49874 0.26448 0.0
C335 C 0.00992 0.51042 0.27599 0.0
N336 N 0.04559 0.54272 0.29702 0.0
C337 C 0.04736 0.53881 0.27434 0.0
C338 C 0.06189 0.55391 0.26136 0.0
C339 C 0.06967 0.56817 0.27691 0.0
C340 C 0.05931 0.56094 0.29852 0.0
N341 N 0.05431 0.50504 0.31916 0.0
C342 C 0.09427 0.47621 0.31441 0.0
C343 C 0.10134 0.49714 0.3156 0.0
C344 C 0.08117 0.51122 0.31782 0.0
C345 C 0.06662 0.47013 0.31601 0.0
C346 C 0.0471 0.48468 0.31848 0.0
N347 N 0.99874 0.5455 0.32454 0.0
C348 C 0.97036 0.57015 0.30662 0.0
C349 C 0.9624 0.57694 0.32842 0.0
C350 C 0.97278 0.56731 0.34822 0.0
C351 C 0.99077 0.55167 0.34592 0.0
C352 C 0.9884 0.55443 0.30507 0.0
H353 H 0.99866 0.54486 0.36148 0.0
H354 H 0.99429 0.5497 0.28806 0.0
H355 H 0.08737 0.52717 0.31837 0.0
H356 H 0.02612 0.47936 0.31962 0.0
C357 C 0.03787 0.51678 0.37663 0.0
C358 C 0.06397 0.57114 0.32026 0.0
C359 C 0.97011 0.49059 0.32514 0.0
C360 C 0.03072 0.52329 0.26555 0.0
H361 H 0.0854 0.5777 0.36606 0.0
H362 H 0.07345 0.54673 0.39634 0.0
H363 H 1.0019 0.48642 0.4 0.0
H364 H 0.96345 0.47355 0.37217 0.0
H365 H 0.95592 0.48048 0.27852 0.0
H366 H 0.9907 0.49661 0.24599 0.0
H367 H 0.06526 0.55496 0.2427 0.0
H368 H 0.08147 0.58228 0.27283 0.0
H369 H 0.12235 0.50271 0.31494 0.0
H370 H 0.05992 0.45426 0.31489 0.0
H371 H 0.96261 0.57682 0.29081 0.0
H372 H 0.96756 0.57209 0.36545 0.0
C373 C 0.05879 0.56421 0.76333 0.0
C374 C 0.06815 0.57043 0.78446 0.0
C375 C 0.05567 0.55757 0.80119 0.0
C376 C 0.03954 0.54427 0.78934 0.0
N377 N 0.0413 0.54761 0.76603 0.0
Co378 Co 0.02058 0.53237 0.74228 0.0
N379 N 0.9987 0.51581 0.76699 0.0
C380 C 1.00069 0.5171 0.79024 0.0
C381 C 0.98338 0.50365 0.80293 0.0
C382 C 0.96948 0.49308 0.78686 0.0
C383 C 0.9791 0.50076 0.76516 0.0
N384 N 1.0002 0.51687 0.71847 0.0
C385 C 0.98084 0.50143 0.72119 0.0
C386 C 0.9725 0.49471 0.69992 0.0
C387 C 0.98731 0.50608 0.6832 0.0
C388 C 1.00375 0.5191 0.6951 0.0
N389 N 0.04204 0.54936 0.7176 0.0
C390 C 0.04043 0.548 0.69433 0.0
C391 C 0.05628 0.56257 0.68179 0.0
C392 C 0.06831 0.57423 0.698 0.0
C393 C 0.0591 0.56602 0.71956 0.0
N394 N 0.0484 0.51124 0.74222 0.0
C395 C 0.08552 0.47967 0.74137 0.0
C396 C 0.078 0.4898 0.72092 0.0
C397 C 0.05975 0.50535 0.72174 0.0
C398 C 0.07427 0.4858 0.76234 0.0
C399 C 0.05604 0.50152 0.76237 0.0
N400 N 0.9929 0.55339 0.74228 0.0
C401 C 0.96443 0.57612 0.72108 0.0
C402 C 0.95568 0.58477 0.74155 0.0
C403 C 0.96584 0.57729 0.76248 0.0
C404 C 0.98418 0.56164 0.76247 0.0
C405 C 0.98277 0.56062 0.72183 0.0
H406 H 0.99116 0.5565 0.77896 0.0
H407 H 0.98868 0.55486 0.70557 0.0
H408 H 0.05499 0.51218 0.70545 0.0
H409 H 0.04836 0.50544 0.77894 0.0
C410 C 0.02012 0.53026 0.79963 0.0
C411 C 0.06588 0.57525 0.74133 0.0
C412 C 0.96965 0.49271 0.74342 0.0
C413 C 0.02246 0.53375 0.68484 0.0
H414 H 0.08189 0.58334 0.78747 0.0
H415 H 0.05719 0.55844 0.81981 0.0
H416 H 0.98152 0.50148 0.82164 0.0
H417 H 0.95434 0.48082 0.79072 0.0
H418 H 0.95728 0.4828 0.6968 0.0
H419 H 0.98622 0.50499 0.66457 0.0
H420 H 0.05811 0.56489 0.66309 0.0
H421 H 0.08174 0.5876 0.69439 0.0
H422 H 0.08579 0.48555 0.70414 0.0
H423 H 0.0797 0.47868 0.77873 0.0
H424 H 0.95752 0.5815 0.70435 0.0
H425 H 0.95946 0.58327 0.77886 0.0
C426 C 0.29401 0.99689 0.56263 0.0
C427 C 0.31858 0.99036 0.5704 0.0
C428 C 0.3384 1.0026 0.55917 0.0
C429 C 0.32487 0.01588 0.54529 0.0
N430 N 0.29754 1.01317 0.54731 0.0
Co431 Co 0.27017 0.02857 0.52948 0.0
N432 N 0.29937 0.04563 0.51171 0.0
C433 C 0.32648 0.04456 0.51381 0.0
C434 C 0.34147 0.05875 0.50003 0.0
C435 C 0.32285 0.06987 0.48878 0.0
C436 C 0.29748 0.06182 0.49646 0.0
N437 N 0.24287 0.04369 0.51127 0.0
C438 C 0.24634 0.05994 0.49584 0.0
C439 C 0.22171 0.06622 0.4879 0.0
C440 C 0.20201 0.05365 0.49884 0.0
C441 C 0.21561 0.0405 0.51282 0.0
N442 N 0.24102 1.01177 0.54764 0.0
C443 C 0.21396 1.01336 0.54605 0.0
C444 C 0.19889 0.99939 0.56006 0.0
C445 C 0.2174 0.98799 0.57107 0.0
C446 C 0.24284 0.99573 0.56314 0.0
N447 N 0.26962 0.04971 0.55333 0.0
C448 C 0.27077 0.08392 0.58158 0.0
C449 C 0.24625 0.07565 0.57369 0.0
C450 C 0.24613 0.0586 0.55977 0.0
C451 C 0.29432 0.07388 0.57637 0.0
C452 C 0.29329 0.057 0.56246 0.0
N453 N 0.27081 1.00757 0.50547 0.0
C454 C 0.2479 0.98364 0.4807 0.0
C455 C 0.27265 0.97825 0.47092 0.0
C456 C 0.29635 0.98744 0.4792 0.0
C457 C 0.29499 1.00184 0.49624 0.0
C458 C 0.24744 0.99828 0.49777 0.0
H459 H 0.31388 1.00812 0.50161 0.0
H460 H 0.22796 1.00192 0.50439 0.0
H461 H 0.2269 0.05324 0.55387 0.0
H462 H 0.31213 0.0505 0.55885 0.0
C463 C 0.33721 0.0306 0.52959 0.0
C464 C 0.26801 0.9865 0.56958 0.0
C465 C 0.27228 0.07075 0.48956 0.0
C466 C 0.20337 0.0266 0.52944 0.0
H467 H 0.32182 0.97776 0.58258 0.0
H468 H 0.36011 1.00162 0.56054 0.0
H469 H 0.36332 0.06107 0.49875 0.0
H470 H 0.32738 0.08276 0.47669 0.0
H471 H 0.2182 0.07897 0.47606 0.0
H472 H 0.18029 0.0546 0.49754 0.0
H473 H 0.17702 0.99718 0.56136 0.0
H474 H 0.21263 0.97504 0.58299 0.0
H475 H 0.22738 0.08274 0.57741 0.0
H476 H 0.31373 0.07924 0.58266 0.0
H477 H 0.22894 0.97698 0.47485 0.0
H478 H 0.31609 0.98351 0.4726 0.0
C479 C 0.48119 0.80258 0.06628 0.0
C480 C 0.47249 0.82163 0.07172 0.0
C481 C 0.4867 0.83558 0.05726 0.0
C482 C 0.50302 0.82431 0.04374 0.0
N483 N 0.49992 0.80397 0.0485 0.0
Co484 Co 0.51931 0.78211 0.03256 0.0
N485 N 0.54231 0.80278 0.013 0.0
C486 C 0.54227 0.82331 0.0141 0.0
C487 C 0.55966 0.83365 0.99822 0.0
C488 C 0.5714 0.81887 0.98609 0.0
C489 C 0.56052 0.80024 0.99536 0.0
N490 N 0.53801 0.76021 0.01601 0.0
C491 C 0.55618 0.76166 0.99779 0.0
C492 C 0.56335 0.74256 0.99108 0.0
C493 C 0.54869 0.72853 1.00513 0.0
C494 C 0.53356 0.73981 0.01962 0.0
N495 N 0.497 0.76144 0.05275 0.0
C496 C 0.49825 0.7409 0.05273 0.0
C497 C 0.482 0.73065 0.06951 0.0
C498 C 0.46989 0.7455 0.08125 0.0
C499 C 0.47933 0.76406 0.07078 0.0
N500 N 0.49134 0.78166 1.0083 0.0
C501 C 0.45696 0.7796 0.96994 0.0
C502 C 0.46099 0.76235 0.98428 0.0
C503 C 0.47803 0.76369 1.00311 0.0
C504 C 0.46927 0.79818 0.97603 0.0
C505 C 0.48609 0.79888 0.99519 0.0
N506 N 0.54747 0.7825 0.05664 0.0
C507 C 0.57811 0.76449 0.08124 0.0
C508 C 0.58779 0.78266 0.0905 0.0
C509 C 0.57659 0.80078 0.08275 0.0
C510 C 0.55671 0.80038 0.06586 0.0
C511 C 0.55814 0.76475 0.06461 0.0
H512 H 0.5492 0.81472 0.06046 0.0
H513 H 0.5517 0.75032 0.0585 0.0
H514 H 0.48055 0.74984 0.0129 0.0
H515 H 0.49515 0.81346 0.9987 0.0
C516 C 0.52329 0.83243 0.02815 0.0
C517 C 0.47187 0.78377 0.07919 0.0
C518 C 0.56666 0.78065 0.98584 0.0
C519 C 0.51518 0.73171 0.03689 0.0
H520 H 0.45785 0.8251 0.08513 0.0
H521 H 0.48589 0.85203 0.05714 0.0
H522 H 0.56252 0.85 0.99511 0.0
H523 H 0.58562 0.82165 0.97153 0.0
H524 H 0.57749 0.73912 0.97726 0.0
H525 H 0.54887 0.71208 1.0047 0.0
H526 H 0.47964 0.71432 0.07308 0.0
H527 H 0.45609 0.74289 0.09613 0.0
H528 H 0.45128 0.74767 0.98087 0.0
H529 H 0.46678 0.81206 0.96563 0.0
H530 H 0.58575 0.74999 0.08695 0.0
H531 H 0.58351 0.81528 0.08931 0.0
C532 C 0.81365 1.00346 0.5761 0.0
C533 C 0.8381 0.99902 0.58594 0.0
C534 C 0.85774 1.0111 0.57427 0.0
C535 C 0.84426 0.02225 0.55808 0.0
N536 N 0.81712 0.01819 0.5588 0.0
Co537 Co 0.7901 0.03058 0.53771 0.0
N538 N 0.81914 0.04824 0.52042 0.0
C539 C 0.84592 0.04925 0.52476 0.0
C540 C 0.86083 0.06322 0.51063 0.0
C541 C 0.84247 0.07185 0.49654 0.0
C542 C 0.81729 0.06264 0.50296 0.0
N543 N 0.76318 0.04255 0.51624 0.0
C544 C 0.76666 0.05713 0.49879 0.0
C545 C 0.7423 0.06113 0.48851 0.0
C546 C 0.72279 0.04865 0.49978 0.0
C547 C 0.73622 0.03781 0.51627 0.0
N548 N 0.76096 1.01335 0.55541 0.0
C549 C 0.73407 1.01287 0.55156 0.0
C550 C 0.719 0.99934 0.56609 0.0
C551 C 0.73733 0.99058 0.58009 0.0
C552 C 0.76266 0.99937 0.57333 0.0
N553 N 0.78494 0.05305 0.55941 0.0
C554 C 0.7782 0.0872 0.58705 0.0
C555 C 0.75604 0.07724 0.57706 0.0
C556 C 0.75979 0.0603 0.56359 0.0
C557 C 0.80366 0.07923 0.58365 0.0
C558 C 0.80655 0.06234 0.5699 0.0
N559 N 0.79532 1.00809 0.516 0.0
C560 C 0.77737 0.97936 0.49503 0.0
C561 C 0.80348 0.974 0.48852 0.0
C562 C 0.82529 0.98664 0.49517 0.0
C563 C 0.82081 1.00337 0.50872 0.0
C564 C 0.77378 0.99634 0.50858 0.0
H565 H 0.8384 1.01208 0.51336 0.0
H566 H 0.75338 0.99941 0.51316 0.0
H567 H 0.74205 0.05348 0.55648 0.0
H568 H 0.82658 0.05732 0.5677 0.0
C569 C 0.85646 0.03682 0.54219 0.0
C570 C 0.78773 0.99339 0.58396 0.0
C571 C 0.7923 0.0681 0.49186 0.0
C572 C 0.72381 0.02425 0.53312 0.0
H573 H 0.84143 0.98817 0.60011 0.0
H574 H 0.87929 1.0117 0.57724 0.0
H575 H 0.88247 0.06676 0.51065 0.0
H576 H 0.8471 0.08366 0.48311 0.0
H577 H 0.73887 0.07221 0.4746 0.0
H578 H 0.70126 0.04795 0.49673 0.0
H579 H 0.69735 0.99588 0.5661 0.0
H580 H 0.73258 0.97875 0.59345 0.0
H581 H 0.73577 0.0825 0.57956 0.0
H582 H 0.82151 0.08638 0.59095 0.0
H583 H 0.75973 0.97016 0.49036 0.0
H584 H 0.84593 0.98359 0.49008 0.0
C585 C 0.4874 0.29739 0.07057 0.0
C586 C 0.48108 0.31647 0.07799 0.0
C587 C 0.49708 0.33049 0.06506 0.0
C588 C 0.51239 0.31926 0.05067 0.0
N589 N 0.50701 0.29888 0.05345 0.0
Co590 Co 0.52646 0.27703 0.03738 0.0
N591 N 0.54988 0.29774 0.01823 0.0
C592 C 0.54832 0.31826 0.01802 0.0
C593 C 0.56628 0.32858 1.00258 0.0
C594 C 0.58002 0.3138 0.99212 0.0
C595 C 0.56961 0.2952 1.00183 0.0
N596 N 0.54679 0.25519 0.02219 0.0
C597 C 0.56762 0.25664 1.00619 0.0
C598 C 0.5759 0.23752 1.00054 0.0
C599 C 0.55987 0.22353 0.01348 0.0
C600 C 0.54277 0.23481 0.02623 0.0
N601 N 0.5022 0.25633 0.05569 0.0
C602 C 0.50184 0.23585 0.05409 0.0
C603 C 0.48248 0.22549 0.06818 0.0
C604 C 0.46965 0.24023 0.07953 0.0
C605 C 0.48216 0.25882 0.07181 0.0
N606 N 0.49989 0.27711 0.01199 0.0
C607 C 0.46597 0.27851 0.97329 0.0
C608 C 0.47597 0.26008 0.98155 0.0
C609 C 0.49264 0.25971 1.00084 0.0
C610 C 0.47228 0.29597 0.98548 0.0
C611 C 0.48908 0.29495 1.00448 0.0
N612 N 0.55299 0.27709 0.06271 0.0
C613 C 0.57388 0.26014 0.0953 0.0
C614 C 0.58677 0.27851 0.10141 0.0
C615 C 0.58345 0.29587 0.08707 0.0
C616 C 0.56671 0.29484 0.06806 0.0
C617 C 0.55728 0.25975 0.07597 0.0
H618 H 0.5649 0.30873 0.05816 0.0
H619 H 0.54774 0.24534 0.07233 0.0
H620 H 0.49976 0.24522 1.00615 0.0
H621 H 0.49328 0.30896 0.01256 0.0
C622 C 0.53114 0.32739 0.0337 0.0
C623 C 0.4744 0.27835 0.08049 0.0
C624 C 0.57964 0.27562 0.99531 0.0
C625 C 0.52138 0.22673 0.04066 0.0
H626 H 0.46648 0.31992 0.09145 0.0
H627 H 0.49748 0.34693 0.06601 0.0
H628 H 0.56933 0.34494 0.99958 0.0
H629 H 0.59611 0.31643 0.97901 0.0
H630 H 0.59157 0.23402 0.98803 0.0
H631 H 0.5602 0.20707 0.0132 0.0
H632 H 0.47852 0.20914 0.0703 0.0
H633 H 0.45313 0.23755 0.09222 0.0
H634 H 0.47165 0.24607 0.97283 0.0
H635 H 0.46444 0.31054 0.98033 0.0
H636 H 0.57586 0.24622 0.10576 0.0
H637 H 0.59361 0.31036 0.09056 0.0
H638 H 0.16303 0.36765 0.32643 0.0
H639 H 0.23038 0.39518 0.28398 0.0
H640 H 0.20756 0.42767 0.28161 0.0
H641 H 0.11002 0.39324 0.2967 0.0
H642 H 0.09004 0.39671 0.32278 0.0
H643 H 0.11154 0.37542 0.32126 0.0
H644 H 0.13561 0.38674 0.35821 0.0
H645 H 0.11415 0.40805 0.35986 0.0
H646 H 0.1505 0.41233 0.35894 0.0
H647 H 0.17729 0.45696 0.28288 0.0
H648 H 0.14207 0.48158 0.28865 0.0
H649 H 0.09466 0.43603 0.33176 0.0
C650 C 0.1729 0.38051 0.31659 0.0
C651 C 0.19865 0.37885 0.30553 0.0
C652 C 0.21092 0.39611 0.29293 0.0
C653 C 0.19803 0.41463 0.29135 0.0
C654 C 0.17281 0.4158 0.30251 0.0
C655 C 0.16036 0.39927 0.31498 0.0
C656 C 0.13332 0.40484 0.32555 0.0
C657 C 0.10984 0.39177 0.316 0.0
C658 C 0.13341 0.40288 0.35222 0.0
C659 C 0.13254 0.42702 0.31697 0.0
C660 C 0.1555 0.43295 0.30365 0.0
C661 C 0.15932 0.45256 0.29349 0.0
C662 C 0.13921 0.46653 0.29707 0.0
C663 C 0.11551 0.46101 0.31091 0.0
C664 C 0.1123 0.44086 0.32093 0.0
H665 H 0.18478 0.66275 0.74041 0.0
H666 H 0.12284 0.70554 0.75469 0.0
H667 H 0.08746 0.67792 0.75202 0.0
H668 H 0.14629 0.63277 0.69967 0.0
H669 H 0.15915 0.60892 0.70996 0.0
H670 H 0.17956 0.6323 0.71164 0.0
H671 H 0.18411 0.62514 0.75588 0.0
H672 H 0.16372 0.60177 0.75432 0.0
H673 H 0.15393 0.62076 0.77415 0.0
H674 H 0.05879 0.64515 0.75007 0.0
H675 H 0.0392 0.60975 0.7481 0.0
H676 H 0.11945 0.58821 0.7353 0.0
C677 C 0.16378 0.66636 0.74294 0.0
C678 C 0.15669 0.68645 0.74767 0.0
C679 C 0.12888 0.69043 0.75065 0.0
C680 C 0.1086 0.67479 0.74931 0.0
C681 C 0.11634 0.65517 0.74488 0.0
C682 C 0.14326 0.65092 0.74162 0.0
C683 C 0.14619 0.62843 0.73762 0.0
C684 C 0.15853 0.62544 0.71327 0.0
C685 C 0.16298 0.61844 0.75663 0.0
C686 C 0.11675 0.62063 0.73952 0.0
C687 C 0.09983 0.63633 0.74362 0.0
C688 C 0.07183 0.6328 0.74666 0.0
C689 C 0.06088 0.61272 0.74552 0.0
C690 C 0.07786 0.5965 0.74134 0.0
C691 C 0.10611 0.6005 0.73825 0.0
H692 H 0.89743 0.68348 0.29408 0.0
H693 H 0.8414 0.67173 0.35319 0.0
H694 H 0.86355 0.63976 0.36291 0.0
H695 H 0.89908 0.63177 0.27718 0.0
H696 H 0.93462 0.63344 0.26889 0.0
H697 H 0.9152 0.65591 0.26706 0.0
H698 H 0.94913 0.67458 0.29329 0.0
H699 H 0.96872 0.65219 0.29513 0.0
H700 H 0.95636 0.66315 0.32128 0.0
H701 H 0.89063 0.60827 0.36541 0.0
H702 H 0.9214 0.58014 0.36115 0.0
H703 H 0.9602 0.61222 0.30055 0.0
C704 C 0.88977 0.6742 0.30907 0.0
C705 C 0.86764 0.68029 0.32291 0.0
C706 C 0.85854 0.6677 0.34251 0.0
C707 C 0.87089 0.64938 0.34809 0.0
C708 C 0.89242 0.64378 0.33397 0.0
C709 C 0.9019 0.65585 0.31492 0.0
C710 C 0.92523 0.64621 0.30249 0.0
C711 C 0.91809 0.64156 0.27742 0.0
C712 C 0.95141 0.65984 0.30309 0.0
C713 C 0.92719 0.62672 0.31737 0.0
C714 C 0.90811 0.62565 0.33546 0.0
C715 C 0.90579 0.60903 0.35141 0.0
C716 C 0.92351 0.59315 0.3489 0.0
C717 C 0.94343 0.59389 0.33059 0.0
C718 C 0.9451 0.61099 0.31462 0.0
H719 H 0.909 0.37817 0.73203 0.0
H720 H 0.83146 0.39895 0.75627 0.0
H721 H 0.85184 0.43384 0.75833 0.0
H722 H 0.9502 0.40933 0.76886 0.0
H723 H 0.97712 0.41427 0.74723 0.0
H724 H 0.95634 0.39093 0.74724 0.0
H725 H 0.94438 0.39918 0.70451 0.0
H726 H 0.96503 0.42258 0.70442 0.0
H727 H 0.92991 0.42315 0.69694 0.0
H728 H 0.8806 0.46665 0.75792 0.0
H729 H 0.91618 0.49475 0.75566 0.0
H730 H 0.97523 0.45278 0.73269 0.0
C731 C 0.89631 0.38999 0.73796 0.0
C732 C 0.86848 0.3857 0.74384 0.0
C733 C 0.85265 0.4018 0.75125 0.0
C734 C 0.8641 0.42169 0.75262 0.0
C735 C 0.89149 0.42537 0.7466 0.0
C736 C 0.90744 0.40997 0.73949 0.0
C737 C 0.93641 0.41801 0.73416 0.0
C738 C 0.95618 0.40751 0.75034 0.0
C739 C 0.94439 0.41558 0.70848 0.0
C740 C 0.93426 0.44031 0.73944 0.0
C741 C 0.90813 0.44425 0.74654 0.0
C742 C 0.90112 0.46374 0.75239 0.0
C743 C 0.92136 0.47958 0.75106 0.0
C744 C 0.94825 0.47583 0.74401 0.0
C745 C 0.95473 0.45597 0.73807 0.0
H746 H 0.25558 0.15909 0.39065 0.0
H747 H 0.28379 0.2022 0.4407 0.0
H748 H 0.28879 0.17384 0.46942 0.0
H749 H 0.21712 0.12538 0.43117 0.0
H750 H 0.22592 0.10235 0.4175 0.0
H751 H 0.22508 0.12593 0.40041 0.0
H752 H 0.27472 0.12219 0.38611 0.0
H753 H 0.27565 0.09853 0.40306 0.0
H754 H 0.30067 0.1189 0.40709 0.0
H755 H 0.28973 0.14107 0.49325 0.0
H756 H 0.28734 0.10569 0.51024 0.0
H757 H 0.25953 0.08334 0.44504 0.0
C758 C 0.26311 0.16254 0.40755 0.0
C759 C 0.26909 0.18298 0.41341 0.0
C760 C 0.27862 0.18677 0.43586 0.0
C761 C 0.28168 0.17073 0.45229 0.0
C762 C 0.27524 0.15085 0.44611 0.0
C763 C 0.26626 0.14664 0.42427 0.0
C764 C 0.26043 0.12384 0.42229 0.0
C765 C 0.23035 0.11911 0.41756 0.0
C766 C 0.27898 0.11537 0.40352 0.0
C767 C 0.26745 0.11597 0.44642 0.0
C768 C 0.27594 0.13185 0.45987 0.0
C769 C 0.28319 0.12851 0.48287 0.0
C770 C 0.28177 0.10843 0.49238 0.0
C771 C 0.27316 0.09194 0.47896 0.0
C772 C 0.26603 0.09576 0.45566 0.0
H773 H 0.3552 0.81367 0.87067 0.0
H774 H 0.37035 0.75656 0.83858 0.0
H775 H 0.40069 0.74751 0.87016 0.0
H776 H 0.42316 0.82369 0.88981 0.0
H777 H 0.41253 0.83415 0.9168 0.0
H778 H 0.39153 0.83613 0.89188 0.0
H779 H 0.35111 0.81839 0.91584 0.0
H780 H 0.37198 0.81638 0.94084 0.0
H781 H 0.35513 0.79383 0.93021 0.0
H782 H 0.43024 0.74488 0.90451 0.0
H783 H 0.45636 0.74841 0.93989 0.0
H784 H 0.42191 0.80697 0.95063 0.0
C785 C 0.36497 0.79929 0.87024 0.0
C786 C 0.36019 0.78578 0.85211 0.0
C787 C 0.37325 0.76703 0.85239 0.0
C788 C 0.3907 0.7618 0.8702 0.0
C789 C 0.39495 0.77544 0.88773 0.0
C790 C 0.38244 0.79377 0.88797 0.0
C791 C 0.39053 0.80562 0.90896 0.0
C792 C 0.40532 0.82611 0.9014 0.0
C793 C 0.36571 0.80873 0.9249 0.0
C794 C 0.40966 0.79111 0.92037 0.0
C795 C 0.41188 0.77381 0.90778 0.0
C796 C 0.42847 0.75827 0.91462 0.0
C797 C 0.4431 0.76037 0.93492 0.0
C798 C 0.44106 0.77785 0.94837 0.0
C799 C 0.42411 0.79345 0.94079 0.0
H800 H 0.77885 0.88804 0.39444 0.0
H801 H 0.8505 0.86037 0.42067 0.0
H802 H 0.85533 0.8871 0.44908 0.0
H803 H 0.80297 0.94022 0.39963 0.0
H804 H 0.77056 0.94907 0.40877 0.0
H805 H 0.77211 0.92751 0.39059 0.0
H806 H 0.74214 0.90557 0.42078 0.0
H807 H 0.74049 0.92707 0.43905 0.0
H808 H 0.75247 0.90329 0.45047 0.0
H809 H 0.85294 0.9166 0.47454 0.0
H810 H 0.84374 0.94747 0.49546 0.0
H811 H 0.77393 0.95716 0.45304 0.0
C812 C 0.79542 0.88755 0.40628 0.0
C813 C 0.81446 0.87212 0.4051 0.0
C814 C 0.83595 0.87216 0.42086 0.0
C815 C 0.83877 0.88723 0.43721 0.0
C816 C 0.81993 0.90227 0.43775 0.0
C817 C 0.79865 0.90262 0.42276 0.0
C818 C 0.78155 0.92083 0.42695 0.0
C819 C 0.78183 0.93526 0.40519 0.0
C820 C 0.75244 0.91376 0.43478 0.0
C821 C 0.79666 0.93062 0.44654 0.0
C822 C 0.81867 0.91957 0.45249 0.0
C823 C 0.83584 0.92545 0.46996 0.0
C824 C 0.83054 0.94317 0.48164 0.0
C825 C 0.80829 0.95503 0.47582 0.0
C826 C 0.79103 0.94847 0.45806 0.0
H827 H 0.65491 0.28511 0.86987 0.0
H828 H 0.72792 0.26735 0.9038 0.0
H829 H 0.70267 0.26416 0.94146 0.0
H830 H 0.63026 0.31559 0.91514 0.0
H831 H 0.5951 0.30792 0.91182 0.0
H832 H 0.61858 0.30812 0.88728 0.0
H833 H 0.60534 0.27008 0.88125 0.0
H834 H 0.58174 0.2698 0.90572 0.0
H835 H 0.6078 0.25157 0.90504 0.0
H836 H 0.66993 0.26403 0.97582 0.0
H837 H 0.63138 0.26591 1.00408 0.0
H838 H 0.57967 0.28376 0.94818 0.0
C839 C 0.66561 0.28054 0.88521 0.0
C840 C 0.69345 0.27638 0.88376 0.0
C841 C 0.70655 0.27028 0.9043 0.0
C842 C 0.69241 0.26857 0.92584 0.0
C843 C 0.6651 0.27294 0.92667 0.0
C844 C 0.65177 0.2787 0.90689 0.0
C845 C 0.62234 0.28261 0.9126 0.0
C846 C 0.61622 0.30489 0.90634 0.0
C847 C 0.60318 0.26762 0.90043 0.0
C848 C 0.62129 0.27837 0.93869 0.0
C849 C 0.64619 0.2728 0.94646 0.0
C850 C 0.65033 0.2683 0.96992 0.0
C851 C 0.62843 0.26942 0.98582 0.0
C852 C 0.60277 0.27497 0.9782 0.0
C853 C 0.59919 0.27951 0.95435 0.0
H854 H 0.2434 0.89802 0.67008 0.0
H855 H 0.27397 0.8562 0.62047 0.0
H856 H 0.28109 0.88459 0.5912 0.0
H857 H 0.20779 0.92868 0.62944 0.0
H858 H 0.21613 0.9525 0.64258 0.0
H859 H 0.21391 0.92904 0.6601 0.0
H860 H 0.26281 0.9363 0.67371 0.0
H861 H 0.2651 0.95986 0.65634 0.0
H862 H 0.29007 0.94112 0.65236 0.0
H863 H 0.28401 0.91717 0.56681 0.0
H864 H 0.28343 0.95225 0.54928 0.0
H865 H 0.25187 0.97351 0.61433 0.0
C866 C 0.25188 0.89489 0.65315 0.0
C867 C 0.25792 0.87476 0.64759 0.0
C868 C 0.26874 0.87135 0.6251 0.0
C869 C 0.273 0.88742 0.60835 0.0
C870 C 0.26646 0.90695 0.61425 0.0
C871 C 0.25624 0.91082 0.63612 0.0
C872 C 0.25063 0.93327 0.63775 0.0
C873 C 0.22031 0.93602 0.64276 0.0
C874 C 0.2682 0.94322 0.65613 0.0
C875 C 0.25922 0.94134 0.6134 0.0
C876 C 0.26826 0.92586 0.60015 0.0
C877 C 0.27703 0.92942 0.57704 0.0
C878 C 0.27661 0.94933 0.56721 0.0
C879 C 0.26749 0.96542 0.58044 0.0
C880 C 0.25876 0.96138 0.60385 0.0
H881 H 0.66197 0.80908 0.20832 0.0
H882 H 0.72412 0.76835 0.18777 0.0
H883 H 0.70003 0.76175 0.15183 0.0
H884 H 0.60543 0.78037 0.18638 0.0
H885 H 0.5882 0.80251 0.17642 0.0
H886 H 0.61028 0.80411 0.20063 0.0
H887 H 0.63796 0.83429 0.1794 0.0
H888 H 0.61598 0.83277 0.1551 0.0
H889 H 0.65207 0.83119 0.15064 0.0
H890 H 0.66922 0.75929 0.11821 0.0
H891 H 0.63363 0.76103 0.08921 0.0
H892 H 0.5916 0.80381 0.13083 0.0
C893 C 0.67069 0.79891 0.19619 0.0
C894 C 0.69498 0.78916 0.20107 0.0
C895 C 0.70537 0.77575 0.18476 0.0
C896 C 0.69192 0.77202 0.16415 0.0
C897 C 0.6681 0.78184 0.15994 0.0
C898 C 0.65755 0.79504 0.17546 0.0
C899 C 0.63148 0.80351 0.16674 0.0
C900 C 0.60743 0.79725 0.18354 0.0
C901 C 0.63457 0.82683 0.16273 0.0
C902 C 0.62901 0.79297 0.14394 0.0
C903 C 0.65037 0.78054 0.14039 0.0
C904 C 0.6524 0.76897 0.1208 0.0
C905 C 0.63198 0.76998 0.10447 0.0
C906 C 0.60972 0.78249 0.10773 0.0
C907 C 0.60845 0.79426 0.1277 0.0
H908 H 0.80153 0.16504 0.68936 0.0
H909 H 0.7466 0.20468 0.65411 0.0
H910 H 0.74179 0.18015 0.62315 0.0
H911 H 0.83496 0.14781 0.63722 0.0
H912 H 0.83779 0.12212 0.64893 0.0
H913 H 0.8376 0.14307 0.66809 0.0
H914 H 0.79706 0.12518 0.69176 0.0
H915 H 0.79709 0.10421 0.67264 0.0
H916 H 0.76665 0.11776 0.67708 0.0
H917 H 0.7414 0.15076 0.59667 0.0
H918 H 0.74699 0.11922 0.57569 0.0
H919 H 0.80206 0.09826 0.62783 0.0
C920 C 0.7885 0.16858 0.67512 0.0
C921 C 0.77456 0.18695 0.6742 0.0
C922 C 0.75788 0.19097 0.65511 0.0
C923 C 0.75485 0.17703 0.63747 0.0
C924 C 0.76869 0.15907 0.63901 0.0
C925 C 0.78533 0.15484 0.65726 0.0
C926 C 0.79783 0.13435 0.65472 0.0
C927 C 0.82889 0.137 0.65208 0.0
C928 C 0.78913 0.1195 0.67527 0.0
C929 C 0.78541 0.12765 0.63233 0.0
C930 C 0.76863 0.14215 0.62361 0.0
C931 C 0.75452 0.13932 0.60333 0.0
C932 C 0.75768 0.12125 0.59161 0.0
C933 C 0.77488 0.10615 0.60009 0.0
C934 C 0.78895 0.10953 0.62075 0.0
H935 H 0.40419 0.25678 0.20681 0.0
H936 H 0.33162 0.28219 0.17941 0.0
H937 H 0.35543 0.28921 0.14143 0.0
H938 H 0.45248 0.29198 0.17603 0.0
H939 H 0.47674 0.27294 0.17088 0.0
H940 H 0.45419 0.27028 0.1961 0.0
H941 H 0.43723 0.2345 0.18373 0.0
H942 H 0.45975 0.23706 0.15849 0.0
H943 H 0.42396 0.23175 0.15518 0.0
H944 H 0.38683 0.29268 0.10593 0.0
H945 H 0.42379 0.29253 0.07585 0.0
H946 H 0.47578 0.2649 0.12614 0.0
C947 C 0.39322 0.26372 0.19281 0.0
C948 C 0.36597 0.26898 0.19623 0.0
C949 C 0.35257 0.27829 0.17743 0.0
C950 C 0.36589 0.28223 0.15571 0.0
C951 C 0.39268 0.27682 0.15296 0.0
C952 C 0.40622 0.26779 0.17101 0.0
C953 C 0.43493 0.26334 0.16343 0.0
C954 C 0.45581 0.27536 0.17744 0.0
C955 C 0.43921 0.24029 0.16532 0.0
C956 C 0.43537 0.27118 0.13829 0.0
C957 C 0.41079 0.27891 0.13258 0.0
C958 C 0.40618 0.28675 0.11024 0.0
C959 C 0.42721 0.28664 0.0933 0.0
C960 C 0.4525 0.27881 0.09882 0.0
C961 C 0.45661 0.27104 0.1216 0.0
H962 H 0.89267 0.6907 0.77425 0.0
H963 H 0.83188 0.67878 0.72304 0.0
H964 H 0.8531 0.64673 0.71411 0.0
H965 H 0.94892 0.67032 0.7424 0.0
H966 H 0.96364 0.65942 0.76802 0.0
H967 H 0.94415 0.68177 0.76998 0.0
H968 H 0.91289 0.66307 0.80187 0.0
H969 H 0.9322 0.64062 0.79991 0.0
H970 H 0.8961 0.63891 0.79601 0.0
H971 H 0.87982 0.61541 0.71153 0.0
H972 H 0.91134 0.58756 0.71436 0.0
H973 H 0.95526 0.61952 0.76709 0.0
C974 C 0.88379 0.68136 0.76116 0.0
C975 C 0.8606 0.68742 0.74926 0.0
C976 C 0.84986 0.67475 0.73212 0.0
C977 C 0.86165 0.6564 0.72704 0.0
C978 C 0.88427 0.65083 0.73921 0.0
C979 C 0.89536 0.66296 0.75583 0.0
C980 C 0.91976 0.65336 0.76638 0.0
C981 C 0.94565 0.66703 0.76139 0.0
C982 C 0.91494 0.64872 0.7926 0.0
C983 C 0.9205 0.63386 0.75322 0.0
C984 C 0.89982 0.63274 0.73764 0.0
C985 C 0.89621 0.6162 0.72355 0.0
C986 C 0.91434 0.60047 0.72521 0.0
C987 C 0.93599 0.60132 0.74082 0.0
C988 C 0.93885 0.61826 0.75512 0.0
H989 H 0.90618 0.37764 0.31052 0.0
H990 H 0.83155 0.39717 0.34216 0.0
H991 H 0.85317 0.43142 0.34664 0.0
H992 H 0.95213 0.40621 0.34636 0.0
H993 H 0.97655 0.41233 0.32292 0.0
H994 H 0.95541 0.38917 0.32287 0.0
H995 H 0.9387 0.39994 0.28217 0.0
H996 H 0.95967 0.42318 0.28217 0.0
H997 H 0.92378 0.42427 0.2779 0.0
H998 H 0.88266 0.46418 0.34649 0.0
H999 H 0.91835 0.49226 0.34276 0.0
H1000 H 0.9735 0.45138 0.31146 0.0
C1001 C 0.89434 0.3891 0.31838 0.0
C1002 C 0.86711 0.38458 0.32607 0.0
C1003 C 0.85253 0.40006 0.33647 0.0
C1004 C 0.86459 0.41965 0.33894 0.0
C1005 C 0.89134 0.42361 0.33099 0.0
C1006 C 0.9061 0.40873 0.32105 0.0
C1007 C 0.9345 0.41694 0.31385 0.0
C1008 C 0.95591 0.40548 0.32731 0.0
C1009 C 0.93944 0.41603 0.28746 0.0
C1010 C 0.93334 0.43879 0.32111 0.0
C1011 C 0.90826 0.44238 0.33095 0.0
C1012 C 0.90235 0.46152 0.33881 0.0
C1013 C 0.92262 0.47737 0.33659 0.0
C1014 C 0.94836 0.47397 0.32655 0.0
C1015 C 0.95378 0.45439 0.31889 0.0
H1016 H 0.14517 0.37097 0.77497 0.0
H1017 H 0.20825 0.38545 0.72187 0.0
H1018 H 0.18814 0.41836 0.71285 0.0
H1019 H 0.09072 0.39393 0.74402 0.0
H1020 H 0.07511 0.40341 0.76979 0.0
H1021 H 0.0941 0.38071 0.77178 0.0
H1022 H 0.12433 0.39717 0.80254 0.0
H1023 H 0.10554 0.41996 0.80055 0.0
H1024 H 0.14182 0.42156 0.79575 0.0
H1025 H 0.16221 0.45018 0.71031 0.0
H1026 H 0.13109 0.47819 0.71325 0.0
H1027 H 0.08423 0.4433 0.76771 0.0
C1028 C 0.15478 0.38106 0.76146 0.0
C1029 C 0.17828 0.37547 0.74905 0.0
C1030 C 0.19002 0.38912 0.73136 0.0
C1031 C 0.17886 0.40797 0.72622 0.0
C1032 C 0.15587 0.41303 0.73887 0.0
C1033 C 0.14383 0.39995 0.75603 0.0
C1034 C 0.11917 0.40915 0.76696 0.0
C1035 C 0.09324 0.39602 0.76289 0.0
C1036 C 0.12295 0.41214 0.79299 0.0
C1037 C 0.11937 0.4295 0.75337 0.0
C1038 C 0.14074 0.43139 0.73728 0.0
C1039 C 0.14528 0.4488 0.72273 0.0
C1040 C 0.12736 0.46461 0.72446 0.0
C1041 C 0.10499 0.46299 0.74058 0.0
C1042 C 0.10119 0.44517 0.75533 0.0
H1043 H 0.17356 0.66452 0.32936 0.0
H1044 H 0.11227 0.70436 0.30429 0.0
H1045 H 0.0799 0.67463 0.30243 0.0
H1046 H 0.1557 0.62235 0.29379 0.0
H1047 H 0.16216 0.60311 0.31592 0.0
H1048 H 0.1805 0.62755 0.31535 0.0
H1049 H 0.16446 0.63237 0.35788 0.0
H1050 H 0.14596 0.60799 0.35853 0.0
H1051 H 0.12869 0.63061 0.36536 0.0
H1052 H 0.05383 0.64053 0.30371 0.0
H1053 H 0.03666 0.60433 0.30705 0.0
H1054 H 0.11492 0.58657 0.33045 0.0
C1055 C 0.15329 0.667 0.32359 0.0
C1056 C 0.14551 0.68683 0.31693 0.0
C1057 C 0.11885 0.68934 0.30921 0.0
C1058 C 0.10024 0.67255 0.30823 0.0
C1059 C 0.10854 0.65325 0.31494 0.0
C1060 C 0.13448 0.65037 0.32236 0.0
C1061 C 0.13836 0.62797 0.32826 0.0
C1062 C 0.16049 0.61977 0.31238 0.0
C1063 C 0.14475 0.62454 0.35404 0.0
C1064 C 0.11055 0.61875 0.32311 0.0
C1065 C 0.0936 0.6336 0.31553 0.0
C1066 C 0.0669 0.62879 0.3097 0.0
C1067 C 0.05731 0.60826 0.31167 0.0
C1068 C 0.0743 0.59286 0.31945 0.0
C1069 C 0.10133 0.59817 0.32502 0.0
H1070 H 0.81041 0.88404 0.64567 0.0
H1071 H 0.76919 0.90518 0.70704 0.0
H1072 H 0.76429 0.93859 0.68686 0.0
H1073 H 0.84658 0.93139 0.62841 0.0
H1074 H 0.84241 0.92845 0.59776 0.0
H1075 H 0.84332 0.90623 0.61714 0.0
H1076 H 0.79681 0.89286 0.60277 0.0
H1077 H 0.79583 0.915 0.58328 0.0
H1078 H 0.76832 0.90893 0.60408 0.0
H1079 H 0.76375 0.96992 0.66 0.0
H1080 H 0.76667 0.99641 0.62787 0.0
H1081 H 0.80649 0.95472 0.58351 0.0
C1082 C 0.80013 0.89559 0.65487 0.0
C1083 C 0.79038 0.89185 0.67813 0.0
C1084 C 0.77737 0.90764 0.68946 0.0
C1085 C 0.7743 0.92669 0.67806 0.0
C1086 C 0.78421 0.92982 0.65523 0.0
C1087 C 0.79676 0.91469 0.6437 0.0
C1088 C 0.80527 0.92194 0.61906 0.0
C1089 C 0.83623 0.92201 0.61539 0.0
C1090 C 0.79068 0.90891 0.60125 0.0
C1091 C 0.7955 0.94348 0.61853 0.0
C1092 C 0.7835 0.94776 0.63962 0.0
C1093 C 0.77304 0.96672 0.6434 0.0
C1094 C 0.77476 0.98164 0.62513 0.0
C1095 C 0.7867 0.9775 0.60335 0.0
C1096 C 0.79727 0.9582 0.60006 0.0
H1097 H 0.69165 0.24455 0.19799 0.0
H1098 H 0.67675 0.3013 0.23098 0.0
H1099 H 0.64509 0.31018 0.20035 0.0
H1100 H 0.68924 0.26455 0.13877 0.0
H1101 H 0.67231 0.24191 0.12844 0.0
H1102 H 0.69413 0.24 0.15283 0.0
H1103 H 0.65478 0.22181 0.17771 0.0
H1104 H 0.63282 0.22371 0.1534 0.0
H1105 H 0.62301 0.23395 0.18073 0.0
H1106 H 0.61441 0.31274 0.16681 0.0
H1107 H 0.58744 0.3093 0.13187 0.0
H1108 H 0.62205 0.25102 0.11993 0.0
C1109 C 0.68165 0.25881 0.19884 0.0
C1110 C 0.68688 0.27228 0.21692 0.0
C1111 C 0.67351 0.29087 0.21717 0.0
C1112 C 0.6553 0.296 0.19992 0.0
C1113 C 0.6506 0.28239 0.18244 0.0
C1114 C 0.6634 0.26421 0.18169 0.0
C1115 C 0.65473 0.25238 0.16086 0.0
C1116 C 0.67905 0.24955 0.14424 0.0
C1117 C 0.64048 0.23174 0.16865 0.0
C1118 C 0.63497 0.26674 0.15011 0.0
C1119 C 0.63293 0.28394 0.16289 0.0
C1120 C 0.61599 0.29941 0.15657 0.0
C1121 C 0.60086 0.29736 0.13656 0.0
C1122 C 0.60275 0.27999 0.1229 0.0
C1123 C 0.61998 0.26443 0.12999 0.0
H1124 H 0.22804 0.16748 0.67245 0.0
H1125 H 0.29894 0.20417 0.6464 0.0
H1126 H 0.30992 0.17744 0.61948 0.0
H1127 H 0.25852 0.11826 0.66976 0.0
H1128 H 0.22806 0.10511 0.66055 0.0
H1129 H 0.22578 0.127 0.67816 0.0
H1130 H 0.1967 0.14441 0.64715 0.0
H1131 H 0.19901 0.12262 0.6294 0.0
H1132 H 0.20964 0.14772 0.61758 0.0
H1133 H 0.31316 0.14734 0.59504 0.0
H1134 H 0.30891 0.11527 0.57465 0.0
H1135 H 0.23621 0.0971 0.61621 0.0
C1136 C 0.246 0.16978 0.66123 0.0
C1137 C 0.26255 0.18805 0.66148 0.0
C1138 C 0.28573 0.19051 0.64633 0.0
C1139 C 0.29222 0.17535 0.63103 0.0
C1140 C 0.27537 0.15771 0.63099 0.0
C1141 C 0.25276 0.15477 0.64568 0.0
C1142 C 0.23797 0.13438 0.64179 0.0
C1143 C 0.23757 0.12036 0.66388 0.0
C1144 C 0.20912 0.13748 0.63348 0.0
C1145 C 0.25584 0.12639 0.62265 0.0
C1146 C 0.27729 0.14014 0.61677 0.0
C1147 C 0.29656 0.13638 0.5996 0.0
C1148 C 0.29404 0.11801 0.5882 0.0
C1149 C 0.27242 0.10346 0.59395 0.0
C1150 C 0.25293 0.10788 0.61134 0.0
H1151 H 0.34501 0.76737 0.16916 0.0
H1152 H 0.39494 0.79675 0.22002 0.0
H1153 H 0.43272 0.80116 0.191 0.0
H1154 H 0.39724 0.74054 0.14171 0.0
H1155 H 0.38492 0.74432 0.11281 0.0
H1156 H 0.36161 0.74348 0.13751 0.0
H1157 H 0.34509 0.77893 0.12459 0.0
H1158 H 0.36825 0.77982 0.09977 0.0
H1159 H 0.36946 0.80018 0.11976 0.0
H1160 H 0.46559 0.80181 0.15664 0.0
H1161 H 0.49054 0.79933 0.11899 0.0
H1162 H 0.41891 0.77096 0.09 0.0
C1163 C 0.36373 0.77498 0.17417 0.0
C1164 C 0.3669 0.7816 0.19705 0.0
C1165 C 0.39203 0.7912 0.20282 0.0
C1166 C 0.41361 0.79391 0.18639 0.0
C1167 C 0.40982 0.78707 0.16412 0.0
C1168 C 0.38547 0.77791 0.15794 0.0
C1169 C 0.38672 0.77192 0.13282 0.0
C1170 C 0.38236 0.74868 0.13113 0.0
C1171 C 0.36616 0.7834 0.11839 0.0
C1172 C 0.41561 0.77906 0.12587 0.0
C1173 C 0.42861 0.78772 0.14422 0.0
C1174 C 0.45557 0.79513 0.14214 0.0
C1175 C 0.46957 0.79367 0.12078 0.0
C1176 C 0.45661 0.78491 0.10178 0.0
C1177 C 0.42925 0.77762 0.10436 0.0
H1178 H 0.80471 0.18231 0.43619 0.0
H1179 H 0.79299 0.15647 0.36895 0.0
H1180 H 0.78912 0.12193 0.38777 0.0
H1181 H 0.84581 0.14277 0.45924 0.0
H1182 H 0.83134 0.1432 0.48828 0.0
H1183 H 0.83276 0.16598 0.46961 0.0
H1184 H 0.78087 0.16863 0.47543 0.0
H1185 H 0.7793 0.14586 0.49413 0.0
H1186 H 0.75844 0.14724 0.46905 0.0
H1187 H 0.78708 0.08996 0.41386 0.0
H1188 H 0.78642 0.06312 0.44556 0.0
H1189 H 0.79993 0.10949 0.49568 0.0
C1190 C 0.80151 0.1694 0.42535 0.0
C1191 C 0.79906 0.17224 0.401 0.0
C1192 C 0.79452 0.15484 0.38763 0.0
C1193 C 0.79248 0.1351 0.39815 0.0
C1194 C 0.79503 0.13289 0.42213 0.0
C1195 C 0.79943 0.14957 0.43558 0.0
C1196 C 0.80142 0.14298 0.46102 0.0
C1197 C 0.8295 0.1491 0.47006 0.0
C1198 C 0.77865 0.1517 0.47577 0.0
C1199 C 0.79749 0.12 0.45977 0.0
C1200 C 0.79386 0.11449 0.43715 0.0
C1201 C 0.78987 0.09411 0.43162 0.0
C1202 C 0.78953 0.07899 0.44965 0.0
C1203 C 0.79308 0.08434 0.4729 0.0
C1204 C 0.79717 0.10509 0.47799 0.0
H1205 H 0.3557 0.24393 0.88099 0.0
H1206 H 0.37702 0.30103 0.84238 0.0
H1207 H 0.41023 0.31004 0.87179 0.0
H1208 H 0.36116 0.26389 0.93824 0.0
H1209 H 0.37541 0.24133 0.95073 0.0
H1210 H 0.35309 0.23931 0.92671 0.0
H1211 H 0.38996 0.22144 0.90338 0.0
H1212 H 0.41243 0.22346 0.9273 0.0
H1213 H 0.42322 0.23383 0.89885 0.0
H1214 H 0.4419 0.3126 0.90456 0.0
H1215 H 0.46896 0.30926 0.9395 0.0
H1216 H 0.42684 0.25085 0.95793 0.0
C1217 C 0.36742 0.2583 0.87869 0.0
C1218 C 0.36359 0.27183 0.85937 0.0
C1219 C 0.37921 0.29056 0.85716 0.0
C1220 C 0.39829 0.29576 0.87371 0.0
C1221 C 0.40157 0.2821 0.89247 0.0
C1222 C 0.38652 0.2638 0.89516 0.0
C1223 C 0.39396 0.252 0.91711 0.0
C1224 C 0.36945 0.24896 0.93421 0.0
C1225 C 0.40558 0.23147 0.9113 0.0
C1226 C 0.41562 0.2665 0.92624 0.0
C1227 C 0.41968 0.28373 0.91168 0.0
C1228 C 0.43872 0.29926 0.91621 0.0
C1229 C 0.45388 0.29726 0.93626 0.0
C1230 C 0.4499 0.27991 0.95178 0.0
C1231 C 0.43055 0.26427 0.94647 0.0
H1232 H 0.24549 0.87352 0.40531 0.0
H1233 H 0.30897 0.89624 0.35579 0.0
H1234 H 0.31284 0.92858 0.37581 0.0
H1235 H 0.21407 0.92253 0.41269 0.0
H1236 H 0.20732 0.91789 0.44342 0.0
H1237 H 0.2081 0.89676 0.42451 0.0
H1238 H 0.24448 0.88041 0.44968 0.0
H1239 H 0.24379 0.90145 0.46865 0.0
H1240 H 0.27537 0.895 0.45507 0.0
H1241 H 0.31125 0.95785 0.4013 0.0
H1242 H 0.30537 0.98236 0.4319 0.0
H1243 H 0.24365 0.94131 0.46639 0.0
C1244 C 0.25995 0.88543 0.39861 0.0
C1245 C 0.27702 0.88233 0.37901 0.0
C1246 C 0.29591 0.89818 0.37088 0.0
C1247 C 0.29815 0.91666 0.38206 0.0
C1248 C 0.28138 0.91917 0.40145 0.0
C1249 C 0.26266 0.90405 0.40977 0.0
C1250 C 0.24809 0.91056 0.43166 0.0
C1251 C 0.21758 0.91202 0.42784 0.0
C1252 C 0.25325 0.89599 0.4525 0.0
C1253 C 0.26179 0.93156 0.43438 0.0
C1254 C 0.28074 0.93619 0.41658 0.0
C1255 C 0.29648 0.9544 0.41535 0.0
C1256 C 0.29309 0.96819 0.43293 0.0
C1257 C 0.27423 0.96375 0.45172 0.0
C1258 C 0.25808 0.94525 0.4522 0.0
H1259 H 0.69078 0.79971 0.89326 0.0
H1260 H 0.63806 0.77398 0.84202 0.0
H1261 H 0.60164 0.76768 0.87213 0.0
H1262 H 0.66782 0.76461 0.94123 0.0
H1263 H 0.67008 0.7838 0.96261 0.0
H1264 H 0.69227 0.78588 0.93713 0.0
H1265 H 0.6757 0.82197 0.92723 0.0
H1266 H 0.65341 0.81996 0.95262 0.0
H1267 H 0.63993 0.82533 0.92443 0.0
H1268 H 0.57009 0.76577 0.90731 0.0
H1269 H 0.54639 0.76701 0.94569 0.0
H1270 H 0.61982 0.79269 0.97455 0.0
C1271 C 0.67158 0.79273 0.8884 0.0
C1272 C 0.66733 0.78727 0.86526 0.0
C1273 C 0.64195 0.77803 0.85966 0.0
C1274 C 0.62107 0.7745 0.87662 0.0
C1275 C 0.62588 0.78015 0.89921 0.0
C1276 C 0.65056 0.78892 0.90519 0.0
C1277 C 0.65041 0.79354 0.93075 0.0
C1278 C 0.67139 0.78122 0.94369 0.0
C1279 C 0.65514 0.81657 0.93393 0.0
C1280 C 0.6217 0.78623 0.93812 0.0
C1281 C 0.60787 0.77862 0.91962 0.0
C1282 C 0.58079 0.77155 0.92195 0.0
C1283 C 0.5675 0.7723 0.94374 0.0
C1284 C 0.58132 0.77996 0.96291 0.0
C1285 C 0.60883 0.78683 0.96008 0.0
loop_
_geom_bond_atom_site_label_1
_geom_bond_atom_site_label_2
_geom_bond_distance
_geom_bond_site_symmetry_2
_ccdc_geom_bond_type
C0 C1 1.264 . S
C0 C5 1.479 . S
C0 C10 1.465 . S
C1 C0 1.264 . S
C1 C3 1.339 . S
C1 H28 0.931 . S
C2 C3 1.395 . S
C2 C4 1.320 . S
C3 C1 1.339 . S
C3 C2 1.395 . S
C3 H29 0.929 . S
C4 C2 1.320 . S
C4 C5 1.405 . S
C4 H30 0.930 . S
C5 C0 1.479 . S
C5 C4 1.405 . S
C5 H31 0.931 . S
U6 O7 2.454 . S
U6 O8 2.458 . S
U6 C9 2.984 . S
U6 C10 2.847 . S
U6 C23 2.882 . S
U6 O24 2.441 . S
U6 O25 2.420 . S
U6 O26 2.455 . S
U6 O27 2.449 . S
O7 U6 2.454 . S
O7 C9 1.353 . S
O8 U6 2.458 . S
O8 C9 1.286 . S
C9 U6 2.984 . S
C9 O7 1.353 . S
C9 O8 1.286 . S
C9 C11 1.363 . S
C10 C0 1.465 . S
C10 U6 2.847 . S
C10 O24 1.249 . S
C10 O25 1.202 . S
C11 C9 1.363 . S
C11 C13 1.408 . S
C11 C16 1.342 . S
C12 C13 1.310 . S
C12 C15 1.461 . S
C12 H32 0.932 . S
C13 C11 1.408 . S
C13 C12 1.310 . S
C13 H33 0.930 . S
C14 C15 1.474 . S
C14 C16 1.285 . S
C14 H34 0.929 . S
C15 C12 1.461 . S
C15 C14 1.474 . S
C16 C11 1.342 . S
C16 C14 1.285 . S
C16 H35 0.930 . S
C17 C20 1.424 . S
C17 C22 1.245 . S
C17 C23 1.428 . S
C18 C21 1.260 . S
C18 C22 1.477 . S
C18 H36 0.932 . S
C19 C20 1.384 . S
C19 C21 1.479 . S
C19 H37 0.929 . S
C20 C17 1.424 . S
C20 C19 1.384 . S
C20 H38 0.928 . S
C21 C18 1.260 . S
C21 C19 1.479 . S
C22 C17 1.245 . S
C22 C18 1.477 . S
C22 H39 0.932 . S
C23 U6 2.882 . S
C23 C17 1.428 . S
C23 O26 1.301 . S
C23 O27 1.282 . S
O24 U6 2.441 . S
O24 C10 1.249 . S
O25 U6 2.420 . S
O25 C10 1.202 . S
O26 U6 2.455 . S
O26 C23 1.301 . S
O27 U6 2.449 . S
O27 C23 1.282 . S
H28 C1 0.931 . S
H29 C3 0.929 . S
H30 C4 0.930 . S
H31 C5 0.931 . S
H32 C12 0.932 . S
H33 C13 0.930 . S
H34 C14 0.929 . S
H35 C16 0.930 . S
H36 C18 0.932 . S
H37 C19 0.929 . S
H38 C20 0.928 . S
H39 C22 0.932 . S
C40 C41 1.264 . S
C40 C45 1.479 . S
C40 C50 1.465 . S
C41 C40 1.264 . S
C41 C43 1.339 . S
C41 H68 0.931 . S
C42 C43 1.395 . S
C42 C44 1.320 . S
C43 C41 1.339 . S
C43 C42 1.395 . S
C43 H69 0.929 . S
C44 C42 1.320 . S
C44 C45 1.405 . S
C44 H70 0.930 . S
C45 C40 1.479 . S
C45 C44 1.405 . S
C45 H71 0.931 . S
U46 O47 2.454 . S
U46 O48 2.458 . S
U46 C49 2.984 . S
U46 C50 2.847 . S
U46 C63 2.882 . S
U46 O64 2.441 . S
U46 O65 2.420 . S
U46 O66 2.455 . S
U46 O67 2.449 . S
O47 U46 2.454 . S
O47 C49 1.353 . S
O48 U46 2.458 . S
O48 C49 1.286 . S
C49 U46 2.984 . S
C49 O47 1.353 . S
C49 O48 1.286 . S
C49 C51 1.363 . S
C50 C40 1.465 . S
C50 U46 2.847 . S
C50 O64 1.249 . S
C50 O65 1.202 . S
C51 C49 1.363 . S
C51 C53 1.408 . S
C51 C56 1.342 . S
C52 C53 1.310 . S
C52 C55 1.461 . S
C52 H72 0.932 . S
C53 C51 1.408 . S
C53 C52 1.310 . S
C53 H73 0.930 . S
C54 C55 1.474 . S
C54 C56 1.285 . S
C54 H74 0.929 . S
C55 C52 1.461 . S
C55 C54 1.474 . S
C56 C51 1.342 . S
C56 C54 1.285 . S
C56 H75 0.930 . S
C57 C60 1.424 . S
C57 C62 1.245 . S
C57 C63 1.428 . S
C58 C61 1.260 . S
C58 C62 1.477 . S
C58 H76 0.932 . S
C59 C60 1.384 . S
C59 C61 1.479 . S
C59 H77 0.929 . S
C60 C57 1.424 . S
C60 C59 1.384 . S
C60 H78 0.928 . S
C61 C58 1.260 . S
C61 C59 1.479 . S
C62 C57 1.245 . S
C62 C58 1.477 . S
C62 H79 0.932 . S
C63 U46 2.882 . S
C63 C57 1.428 . S
C63 O66 1.301 . S
C63 O67 1.282 . S
O64 U46 2.441 . S
O64 C50 1.249 . S
O65 U46 2.420 . S
O65 C50 1.202 . S
O66 U46 2.455 . S
O66 C63 1.301 . S
O67 U46 2.449 . S
O67 C63 1.282 . S
H68 C41 0.931 . S
H69 C43 0.929 . S
H70 C44 0.930 . S
H71 C45 0.931 . S
H72 C52 0.932 . S
H73 C53 0.930 . S
H74 C54 0.929 . S
H75 C56 0.930 . S
H76 C58 0.932 . S
H77 C59 0.929 . S
H78 C60 0.928 . S
H79 C62 0.932 . S
C80 C81 1.264 . S
C80 C85 1.479 . S
C80 C90 1.465 . S
C81 C80 1.264 . S
C81 C83 1.339 . S
C81 H108 0.931 . S
C82 C83 1.395 . S
C82 C84 1.320 . S
C83 C81 1.339 . S
C83 C82 1.395 . S
C83 H109 0.929 . S
C84 C82 1.320 . S
C84 C85 1.405 . S
C84 H110 0.930 . S
C85 C80 1.479 . S
C85 C84 1.405 . S
C85 H111 0.931 . S
U86 O87 2.454 . S
U86 O88 2.458 . S
U86 C89 2.984 . S
U86 C90 2.847 . S
U86 C103 2.882 . S
U86 O104 2.441 . S
U86 O105 2.420 . S
U86 O106 2.455 . S
U86 O107 2.449 . S
O87 U86 2.454 . S
O87 C89 1.353 . S
O88 U86 2.458 . S
O88 C89 1.286 . S
C89 U86 2.984 . S
C89 O87 1.353 . S
C89 O88 1.286 . S
C89 C91 1.363 . S
C90 C80 1.465 . S
C90 U86 2.847 . S
C90 O104 1.249 . S
C90 O105 1.202 . S
C91 C89 1.363 . S
C91 C93 1.408 . S
C91 C96 1.342 . S
C92 C93 1.310 . S
C92 C95 1.461 . S
C92 H112 0.932 . S
C93 C91 1.408 . S
C93 C92 1.310 . S
C93 H113 0.930 . S
C94 C95 1.474 . S
C94 C96 1.285 . S
C94 H114 0.929 . S
C95 C92 1.461 . S
C95 C94 1.474 . S
C96 C91 1.342 . S
C96 C94 1.285 . S
C96 H115 0.930 . S
C97 C100 1.424 . S
C97 C102 1.245 . S
C97 C103 1.428 . S
C98 C101 1.260 . S
C98 C102 1.477 . S
C98 H116 0.932 . S
C99 C100 1.384 . S
C99 C101 1.479 . S
C99 H117 0.929 . S
C100 C97 1.424 . S
C100 C99 1.384 . S
C100 H118 0.928 . S
C101 C98 1.260 . S
C101 C99 1.479 . S
C102 C97 1.245 . S
C102 C98 1.477 . S
C102 H119 0.932 . S
C103 U86 2.882 . S
C103 C97 1.428 . S
C103 O106 1.301 . S
C103 O107 1.282 . S
O104 U86 2.441 . S
O104 C90 1.249 . S
O105 U86 2.420 . S
O105 C90 1.202 . S
O106 U86 2.455 . S
O106 C103 1.301 . S
O107 U86 2.449 . S
O107 C103 1.282 . S
H108 C81 0.931 . S
H109 C83 0.929 . S
H110 C84 0.930 . S
H111 C85 0.931 . S
H112 C92 0.932 . S
H113 C93 0.930 . S
H114 C94 0.929 . S
H115 C96 0.930 . S
H116 C98 0.932 . S
H117 C99 0.929 . S
H118 C100 0.928 . S
H119 C102 0.932 . S
C120 C121 1.264 . S
C120 C125 1.479 . S
C120 C130 1.465 . S
C121 C120 1.264 . S
C121 C123 1.339 . S
C121 H148 0.931 . S
C122 C123 1.395 . S
C122 C124 1.320 . S
C123 C121 1.339 . S
C123 C122 1.395 . S
C123 H149 0.929 . S
C124 C122 1.320 . S
C124 C125 1.405 . S
C124 H150 0.930 . S
C125 C120 1.479 . S
C125 C124 1.405 . S
C125 H151 0.931 . S
U126 O127 2.454 . S
U126 O128 2.458 . S
U126 C129 2.984 . S
U126 C130 2.847 . S
U126 C143 2.882 . S
U126 O144 2.441 . S
U126 O145 2.420 . S
U126 O146 2.455 . S
U126 O147 2.449 . S
O127 U126 2.454 . S
O127 C129 1.353 . S
O128 U126 2.458 . S
O128 C129 1.286 . S
C129 U126 2.984 . S
C129 O127 1.353 . S
C129 O128 1.286 . S
C129 C131 1.363 . S
C130 C120 1.465 . S
C130 U126 2.847 . S
C130 O144 1.249 . S
C130 O145 1.202 . S
C131 C129 1.363 . S
C131 C133 1.408 . S
C131 C136 1.342 . S
C132 C133 1.310 . S
C132 C135 1.461 . S
C132 H152 0.932 . S
C133 C131 1.408 . S
C133 C132 1.310 . S
C133 H153 0.930 . S
C134 C135 1.474 . S
C134 C136 1.285 . S
C134 H154 0.929 . S
C135 C132 1.461 . S
C135 C134 1.474 . S
C136 C131 1.342 . S
C136 C134 1.285 . S
C136 H155 0.930 . S
C137 C140 1.424 . S
C137 C142 1.245 . S
C137 C143 1.428 . S
C138 C141 1.260 . S
C138 C142 1.477 . S
C138 H156 0.932 . S
C139 C140 1.384 . S
C139 C141 1.479 . S
C139 H157 0.929 . S
C140 C137 1.424 . S
C140 C139 1.384 . S
C140 H158 0.928 . S
C141 C138 1.260 . S
C141 C139 1.479 . S
C142 C137 1.245 . S
C142 C138 1.477 . S
C142 H159 0.932 . S
C143 U126 2.882 . S
C143 C137 1.428 . S
C143 O146 1.301 . S
C143 O147 1.282 . S
O144 U126 2.441 . S
O144 C130 1.249 . S
O145 U126 2.420 . S
O145 C130 1.202 . S
O146 U126 2.455 . S
O146 C143 1.301 . S
O147 U126 2.449 . S
O147 C143 1.282 . S
H148 C121 0.931 . S
H149 C123 0.929 . S
H150 C124 0.930 . S
H151 C125 0.931 . S
H152 C132 0.932 . S
H153 C133 0.930 . S
H154 C134 0.929 . S
H155 C136 0.930 . S
H156 C138 0.932 . S
H157 C139 0.929 . S
H158 C140 0.928 . S
H159 C142 0.932 . S
C160 C161 1.264 . S
C160 C165 1.479 . S
C160 C170 1.465 . S
C161 C160 1.264 . S
C161 C163 1.339 . S
C161 H188 0.931 . S
C162 C163 1.395 . S
C162 C164 1.320 . S
C163 C161 1.339 . S
C163 C162 1.395 . S
C163 H189 0.929 . S
C164 C162 1.320 . S
C164 C165 1.405 . S
C164 H190 0.930 . S
C165 C160 1.479 . S
C165 C164 1.405 . S
C165 H191 0.931 . S
U166 O167 2.454 . S
U166 O168 2.458 . S
U166 C169 2.984 . S
U166 C170 2.847 . S
U166 C183 2.882 . S
U166 O184 2.441 . S
U166 O185 2.420 . S
U166 O186 2.455 . S
U166 O187 2.449 . S
O167 U166 2.454 . S
O167 C169 1.353 . S
O168 U166 2.458 . S
O168 C169 1.286 . S
C169 U166 2.984 . S
C169 O167 1.353 . S
C169 O168 1.286 . S
C169 C171 1.363 . S
C170 C160 1.465 . S
C170 U166 2.847 . S
C170 O184 1.249 . S
C170 O185 1.202 . S
C171 C169 1.363 . S
C171 C173 1.408 . S
C171 C176 1.342 . S
C172 C173 1.310 . S
C172 C175 1.461 . S
C172 H192 0.932 . S
C173 C171 1.408 . S
C173 C172 1.310 . S
C173 H193 0.930 . S
C174 C175 1.474 . S
C174 C176 1.285 . S
C174 H194 0.929 . S
C175 C172 1.461 . S
C175 C174 1.474 . S
C176 C171 1.342 . S
C176 C174 1.285 . S
C176 H195 0.930 . S
C177 C180 1.424 . S
C177 C182 1.245 . S
C177 C183 1.428 . S
C178 C181 1.260 . S
C178 C182 1.477 . S
C178 H196 0.932 . S
C179 C180 1.384 . S
C179 C181 1.479 . S
C179 H197 0.929 . S
C180 C177 1.424 . S
C180 C179 1.384 . S
C180 H198 0.928 . S
C181 C178 1.260 . S
C181 C179 1.479 . S
C182 C177 1.245 . S
C182 C178 1.477 . S
C182 H199 0.932 . S
C183 U166 2.882 . S
C183 C177 1.428 . S
C183 O186 1.301 . S
C183 O187 1.282 . S
O184 U166 2.441 . S
O184 C170 1.249 . S
O185 U166 2.420 . S
O185 C170 1.202 . S
O186 U166 2.455 . S
O186 C183 1.301 . S
O187 U166 2.449 . S
O187 C183 1.282 . S
H188 C161 0.931 . S
H189 C163 0.929 . S
H190 C164 0.930 . S
H191 C165 0.931 . S
H192 C172 0.932 . S
H193 C173 0.930 . S
H194 C174 0.929 . S
H195 C176 0.930 . S
H196 C178 0.932 . S
H197 C179 0.929 . S
H198 C180 0.928 . S
H199 C182 0.932 . S
C200 C201 1.264 . S
C200 C205 1.479 . S
C200 C210 1.465 . S
C201 C200 1.264 . S
C201 C203 1.339 . S
C201 H228 0.931 . S
C202 C203 1.395 . S
C202 C204 1.320 . S
C203 C201 1.339 . S
C203 C202 1.395 . S
C203 H229 0.929 . S
C204 C202 1.320 . S
C204 C205 1.405 . S
C204 H230 0.930 . S
C205 C200 1.479 . S
C205 C204 1.405 . S
C205 H231 0.931 . S
U206 O207 2.454 . S
U206 O208 2.458 . S
U206 C209 2.984 . S
U206 C210 2.847 . S
U206 C223 2.882 . S
U206 O224 2.441 . S
U206 O225 2.420 . S
U206 O226 2.455 . S
U206 O227 2.449 . S
O207 U206 2.454 . S
O207 C209 1.353 . S
O208 U206 2.458 . S
O208 C209 1.286 . S
C209 U206 2.984 . S
C209 O207 1.353 . S
C209 O208 1.286 . S
C209 C211 1.363 . S
C210 C200 1.465 . S
C210 U206 2.847 . S
C210 O224 1.249 . S
C210 O225 1.202 . S
C211 C209 1.363 . S
C211 C213 1.408 . S
C211 C216 1.342 . S
C212 C213 1.310 . S
C212 C215 1.461 . S
C212 H232 0.932 . S
C213 C211 1.408 . S
C213 C212 1.310 . S
C213 H233 0.930 . S
C214 C215 1.474 . S
C214 C216 1.285 . S
C214 H234 0.929 . S
C215 C212 1.461 . S
C215 C214 1.474 . S
C216 C211 1.342 . S
C216 C214 1.285 . S
C216 H235 0.930 . S
C217 C220 1.424 . S
C217 C222 1.245 . S
C217 C223 1.428 . S
C218 C221 1.260 . S
C218 C222 1.477 . S
C218 H236 0.932 . S
C219 C220 1.384 . S
C219 C221 1.479 . S
C219 H237 0.929 . S
C220 C217 1.424 . S
C220 C219 1.384 . S
C220 H238 0.928 . S
C221 C218 1.260 . S
C221 C219 1.479 . S
C222 C217 1.245 . S
C222 C218 1.477 . S
C222 H239 0.932 . S
C223 U206 2.882 . S
C223 C217 1.428 . S
C223 O226 1.301 . S
C223 O227 1.282 . S
O224 U206 2.441 . S
O224 C210 1.249 . S
O225 U206 2.420 . S
O225 C210 1.202 . S
O226 U206 2.455 . S
O226 C223 1.301 . S
O227 U206 2.449 . S
O227 C223 1.282 . S
H228 C201 0.931 . S
H229 C203 0.929 . S
H230 C204 0.930 . S
H231 C205 0.931 . S
H232 C212 0.932 . S
H233 C213 0.930 . S
H234 C214 0.929 . S
H235 C216 0.930 . S
H236 C218 0.932 . S
H237 C219 0.929 . S
H238 C220 0.928 . S
H239 C222 0.932 . S
C240 C241 1.264 . S
C240 C245 1.479 . S
C240 C250 1.465 . S
C241 C240 1.264 . S
C241 C243 1.339 . S
C241 H268 0.931 . S
C242 C243 1.395 . S
C242 C244 1.320 . S
C243 C241 1.339 . S
C243 C242 1.395 . S
C243 H269 0.929 . S
C244 C242 1.320 . S
C244 C245 1.405 . S
C244 H270 0.930 . S
C245 C240 1.479 . S
C245 C244 1.405 . S
C245 H271 0.931 . S
U246 O247 2.454 . S
U246 O248 2.458 . S
U246 C249 2.984 . S
U246 C250 2.847 . S
U246 C263 2.882 . S
U246 O264 2.441 . S
U246 O265 2.420 . S
U246 O266 2.455 . S
U246 O267 2.449 . S
O247 U246 2.454 . S
O247 C249 1.353 . S
O248 U246 2.458 . S
O248 C249 1.286 . S
C249 U246 2.984 . S
C249 O247 1.353 . S
C249 O248 1.286 . S
C249 C251 1.363 . S
C250 C240 1.465 . S
C250 U246 2.847 . S
C250 O264 1.249 . S
C250 O265 1.202 . S
C251 C249 1.363 . S
C251 C253 1.408 . S
C251 C256 1.342 . S
C252 C253 1.310 . S
C252 C255 1.461 . S
C252 H272 0.932 . S
C253 C251 1.408 . S
C253 C252 1.310 . S
C253 H273 0.930 . S
C254 C255 1.474 . S
C254 C256 1.285 . S
C254 H274 0.929 . S
C255 C252 1.461 . S
C255 C254 1.474 . S
C256 C251 1.342 . S
C256 C254 1.285 . S
C256 H275 0.930 . S
C257 C260 1.424 . S
C257 C262 1.245 . S
C257 C263 1.428 . S
C258 C261 1.260 . S
C258 C262 1.477 . S
C258 H276 0.932 . S
C259 C260 1.384 . S
C259 C261 1.479 . S
C259 H277 0.929 . S
C260 C257 1.424 . S
C260 C259 1.384 . S
C260 H278 0.928 . S
C261 C258 1.260 . S
C261 C259 1.479 . S
C262 C257 1.245 . S
C262 C258 1.477 . S
C262 H279 0.932 . S
C263 U246 2.882 . S
C263 C257 1.428 . S
C263 O266 1.301 . S
C263 O267 1.282 . S
O264 U246 2.441 . S
O264 C250 1.249 . S
O265 U246 2.420 . S
O265 C250 1.202 . S
O266 U246 2.455 . S
O266 C263 1.301 . S
O267 U246 2.449 . S
O267 C263 1.282 . S
H268 C241 0.931 . S
H269 C243 0.929 . S
H270 C244 0.930 . S
H271 C245 0.931 . S
H272 C252 0.932 . S
H273 C253 0.930 . S
H274 C254 0.929 . S
H275 C256 0.930 . S
H276 C258 0.932 . S
H277 C259 0.929 . S
H278 C260 0.928 . S
H279 C262 0.932 . S
C280 C281 1.264 . S
C280 C285 1.479 . S
C280 C290 1.465 . S
C281 C280 1.264 . S
C281 C283 1.339 . S
C281 H308 0.931 . S
C282 C283 1.395 . S
C282 C284 1.320 . S
C283 C281 1.339 . S
C283 C282 1.395 . S
C283 H309 0.929 . S
C284 C282 1.320 . S
C284 C285 1.405 . S
C284 H310 0.930 . S
C285 C280 1.479 . S
C285 C284 1.405 . S
C285 H311 0.931 . S
U286 O287 2.454 . S
U286 O288 2.458 . S
U286 C289 2.984 . S
U286 C290 2.847 . S
U286 C303 2.882 . S
U286 O304 2.441 . S
U286 O305 2.420 . S
U286 O306 2.455 . S
U286 O307 2.449 . S
O287 U286 2.454 . S
O287 C289 1.353 . S
O288 U286 2.458 . S
O288 C289 1.286 . S
C289 U286 2.984 . S
C289 O287 1.353 . S
C289 O288 1.286 . S
C289 C291 1.363 . S
C290 C280 1.465 . S
C290 U286 2.847 . S
C290 O304 1.249 . S
C290 O305 1.202 . S
C291 C289 1.363 . S
C291 C293 1.408 . S
C291 C296 1.342 . S
C292 C293 1.310 . S
C292 C295 1.461 . S
C292 H312 0.932 . S
C293 C291 1.408 . S
C293 C292 1.310 . S
C293 H313 0.930 . S
C294 C295 1.474 . S
C294 C296 1.285 . S
C294 H314 0.929 . S
C295 C292 1.461 . S
C295 C294 1.474 . S
C296 C291 1.342 . S
C296 C294 1.285 . S
C296 H315 0.930 . S
C297 C300 1.424 . S
C297 C302 1.245 . S
C297 C303 1.428 . S
C298 C301 1.260 . S
C298 C302 1.477 . S
C298 H316 0.932 . S
C299 C300 1.384 . S
C299 C301 1.479 . S
C299 H317 0.929 . S
C300 C297 1.424 . S
C300 C299 1.384 . S
C300 H318 0.928 . S
C301 C298 1.260 . S
C301 C299 1.479 . S
C302 C297 1.245 . S
C302 C298 1.477 . S
C302 H319 0.932 . S
C303 U286 2.882 . S
C303 C297 1.428 . S
C303 O306 1.301 . S
C303 O307 1.282 . S
O304 U286 2.441 . S
O304 C290 1.249 . S
O305 U286 2.420 . S
O305 C290 1.202 . S
O306 U286 2.455 . S
O306 C303 1.301 . S
O307 U286 2.449 . S
O307 C303 1.282 . S
H308 C281 0.931 . S
H309 C283 0.929 . S
H310 C284 0.930 . S
H311 C285 0.931 . S
H312 C292 0.932 . S
H313 C293 0.930 . S
H314 C294 0.929 . S
H315 C296 0.930 . S
H316 C298 0.932 . S
H317 C299 0.929 . S
H318 C300 0.928 . S
H319 C302 0.932 . S
C320 C321 1.443 . S
C320 N324 1.376 . S
C320 C358 1.389 . S
C321 C320 1.443 . S
C321 C322 1.340 . S
C321 H361 0.951 . S
C322 C321 1.340 . S
C322 C323 1.439 . S
C322 H362 0.950 . S
C323 C322 1.439 . S
C323 N324 1.374 . S
C323 C357 1.395 . S
N324 C320 1.376 . S
N324 C323 1.374 . S
N324 Co325 2.008 . S
Co325 N324 2.008 . S
Co325 N326 1.981 1_455 S
Co325 N331 2.008 . S
Co325 N336 1.995 . S
Co325 N341 2.282 . S
Co325 N347 2.282 1_455 S
N326 Co325 1.981 1_655 S
N326 C327 1.375 . S
N326 C330 1.400 . S
C327 N326 1.375 . S
C327 C328 1.447 . S
C327 C357 1.390 1_655 S
C328 C327 1.447 . S
C328 C329 1.339 . S
C328 H363 0.949 . S
C329 C328 1.339 . S
C329 C330 1.439 . S
C329 H364 0.950 . S
C330 N326 1.400 . S
C330 C329 1.439 . S
C330 C359 1.392 . S
N331 Co325 2.008 . S
N331 C332 1.376 1_455 S
N331 C335 1.374 . S
C332 N331 1.376 1_655 S
C332 C333 1.443 . S
C332 C359 1.389 . S
C333 C332 1.443 . S
C333 C334 1.340 . S
C333 H365 0.951 . S
C334 C333 1.340 . S
C334 C335 1.439 1_655 S
C334 H366 0.950 . S
C335 N331 1.374 . S
C335 C334 1.439 1_455 S
C335 C360 1.395 . S
N336 Co325 1.995 . S
N336 C337 1.376 . S
N336 C340 1.383 . S
C337 N336 1.376 . S
C337 C338 1.446 . S
C337 C360 1.391 . S
C338 C337 1.446 . S
C338 C339 1.339 . S
C338 H367 0.949 . S
C339 C338 1.339 . S
C339 C340 1.439 . S
C339 H368 0.950 . S
C340 N336 1.383 . S
C340 C339 1.439 . S
C340 C358 1.392 . S
N341 Co325 2.282 . S
N341 C344 1.332 . S
N341 C346 1.332 . S
C342 C343 1.386 . S
C342 C345 1.388 . S
C343 C342 1.386 . S
C343 C344 1.382 . S
C343 H369 0.950 . S
C344 N341 1.332 . S
C344 C343 1.382 . S
C344 H355 0.952 . S
C345 C342 1.388 . S
C345 C346 1.382 . S
C345 H370 0.950 . S
C346 N341 1.332 . S
C346 C345 1.382 . S
C346 H356 0.948 . S
N347 Co325 2.282 1_655 S
N347 C351 1.332 . S
N347 C352 1.332 . S
C348 C349 1.388 . S
C348 C352 1.382 . S
C348 H371 0.950 . S
C349 C348 1.388 . S
C349 C350 1.386 . S
C350 C349 1.386 . S
C350 C351 1.382 . S
C350 H372 0.950 . S
C351 N347 1.332 . S
C351 C350 1.382 . S
C351 H353 0.952 . S
C352 N347 1.332 . S
C352 C348 1.382 . S
C352 H354 0.948 . S
H353 C351 0.952 . S
H354 C352 0.948 . S
H355 C344 0.952 . S
H356 C346 0.948 . S
C357 C323 1.395 . S
C357 C327 1.390 1_455 S
C358 C320 1.389 . S
C358 C340 1.392 . S
C359 C330 1.392 . S
C359 C332 1.389 . S
C360 C335 1.395 . S
C360 C337 1.391 . S
H361 C321 0.951 . S
H362 C322 0.950 . S
H363 C328 0.949 . S
H364 C329 0.950 . S
H365 C333 0.951 . S
H366 C334 0.950 . S
H367 C338 0.949 . S
H368 C339 0.950 . S
H369 C343 0.950 . S
H370 C345 0.950 . S
H371 C348 0.950 . S
H372 C350 0.950 . S
C373 C374 1.443 . S
C373 N377 1.376 . S
C373 C411 1.389 . S
C374 C373 1.443 . S
C374 C375 1.340 . S
C374 H414 0.951 . S
C375 C374 1.340 . S
C375 C376 1.439 . S
C375 H415 0.950 . S
C376 C375 1.439 . S
C376 N377 1.374 . S
C376 C410 1.395 . S
N377 C373 1.376 . S
N377 C376 1.374 . S
N377 Co378 2.008 . S
Co378 N377 2.008 . S
Co378 N379 1.995 1_455 S
Co378 N384 2.008 1_455 S
Co378 N389 1.995 . S
Co378 N394 2.282 . S
Co378 N400 2.282 1_455 S
N379 Co378 1.995 1_655 S
N379 C380 1.376 . S
N379 C383 1.383 . S
C380 N379 1.376 . S
C380 C381 1.446 . S
C380 C410 1.391 1_655 S
C381 C380 1.446 . S
C381 C382 1.339 . S
C381 H416 0.949 . S
C382 C381 1.339 . S
C382 C383 1.439 . S
C382 H417 0.950 . S
C383 N379 1.383 . S
C383 C382 1.439 . S
C383 C412 1.392 . S
N384 Co378 2.008 1_655 S
N384 C385 1.376 . S
N384 C388 1.374 . S
C385 N384 1.376 . S
C385 C386 1.443 . S
C385 C412 1.389 . S
C386 C385 1.443 . S
C386 C387 1.340 . S
C386 H418 0.951 . S
C387 C386 1.340 . S
C387 C388 1.439 . S
C387 H419 0.950 . S
C388 N384 1.374 . S
C388 C387 1.439 . S
C388 C413 1.395 1_655 S
N389 Co378 1.995 . S
N389 C390 1.376 . S
N389 C393 1.383 . S
C390 N389 1.376 . S
C390 C391 1.446 . S
C390 C413 1.391 . S
C391 C390 1.446 . S
C391 C392 1.339 . S
C391 H420 0.949 . S
C392 C391 1.339 . S
C392 C393 1.439 . S
C392 H421 0.950 . S
C393 N389 1.383 . S
C393 C392 1.439 . S
C393 C411 1.392 . S
N394 Co378 2.282 . S
N394 C397 1.332 . S
N394 C399 1.332 . S
C395 C396 1.386 . S
C395 C398 1.388 . S
C396 C395 1.386 . S
C396 C397 1.382 . S
C396 H422 0.950 . S
C397 N394 1.332 . S
C397 C396 1.382 . S
C397 H408 0.952 . S
C398 C395 1.388 . S
C398 C399 1.382 . S
C398 H423 0.950 . S
C399 N394 1.332 . S
C399 C398 1.382 . S
C399 H409 0.948 . S
N400 Co378 2.282 1_655 S
N400 C404 1.332 . S
N400 C405 1.332 . S
C401 C402 1.388 . S
C401 C405 1.382 . S
C401 H424 0.950 . S
C402 C401 1.388 . S
C402 C403 1.386 . S
C403 C402 1.386 . S
C403 C404 1.382 . S
C403 H425 0.950 . S
C404 N400 1.332 . S
C404 C403 1.382 . S
C404 H406 0.952 . S
C405 N400 1.332 . S
C405 C401 1.382 . S
C405 H407 0.948 . S
H406 C404 0.952 . S
H407 C405 0.948 . S
H408 C397 0.952 . S
H409 C399 0.948 . S
C410 C376 1.395 . S
C410 C380 1.391 1_455 S
C411 C373 1.389 . S
C411 C393 1.392 . S
C412 C383 1.392 . S
C412 C385 1.389 . S
C413 C388 1.395 1_455 S
C413 C390 1.391 . S
H414 C374 0.951 . S
H415 C375 0.950 . S
H416 C381 0.949 . S
H417 C382 0.950 . S
H418 C386 0.951 . S
H419 C387 0.950 . S
H420 C391 0.949 . S
H421 C392 0.950 . S
H422 C396 0.950 . S
H423 C398 0.950 . S
H424 C401 0.950 . S
H425 C403 0.950 . S
C426 C427 1.443 . S
C426 N430 1.376 . S
C426 C464 1.389 . S
C427 C426 1.443 . S
C427 C428 1.340 . S
C427 H467 0.951 . S
C428 C427 1.340 . S
C428 C429 1.439 . S
C428 H468 0.950 . S
C429 C428 1.439 . S
C429 N430 1.374 . S
C429 C463 1.395 1_565 S
N430 C426 1.376 . S
N430 C429 1.374 . S
N430 Co431 2.008 1_565 S
Co431 N430 2.008 1_545 S
Co431 N432 1.995 . S
Co431 N437 2.008 . S
Co431 N442 1.995 1_545 S
Co431 N447 2.282 . S
Co431 N453 2.282 1_545 S
N432 Co431 1.995 . S
N432 C433 1.376 . S
N432 C436 1.383 . S
C433 N432 1.376 . S
C433 C434 1.446 . S
C433 C463 1.391 . S
C434 C433 1.446 . S
C434 C435 1.339 . S
C434 H469 0.949 . S
C435 C434 1.339 . S
C435 C436 1.439 . S
C435 H470 0.950 . S
C436 N432 1.383 . S
C436 C435 1.439 . S
C436 C465 1.392 . S
N437 Co431 2.008 . S
N437 C438 1.376 . S
N437 C441 1.374 . S
C438 N437 1.376 . S
C438 C439 1.443 . S
C438 C465 1.389 . S
C439 C438 1.443 . S
C439 C440 1.340 . S
C439 H471 0.951 . S
C440 C439 1.340 . S
C440 C441 1.439 . S
C440 H472 0.950 . S
C441 N437 1.374 . S
C441 C440 1.439 . S
C441 C466 1.395 . S
N442 Co431 1.995 1_565 S
N442 C443 1.376 . S
N442 C446 1.383 . S
C443 N442 1.376 . S
C443 C444 1.446 . S
C443 C466 1.391 1_565 S
C444 C443 1.446 . S
C444 C445 1.339 . S
C444 H473 0.949 . S
C445 C444 1.339 . S
C445 C446 1.439 . S
C445 H474 0.950 . S
C446 N442 1.383 . S
C446 C445 1.439 . S
C446 C464 1.392 . S
N447 Co431 2.282 . S
N447 C450 1.332 . S
N447 C452 1.332 . S
C448 C449 1.386 . S
C448 C451 1.388 . S
C449 C448 1.386 . S
C449 C450 1.382 . S
C449 H475 0.950 . S
C450 N447 1.332 . S
C450 C449 1.382 . S
C450 H461 0.952 . S
C451 C448 1.388 . S
C451 C452 1.382 . S
C451 H476 0.950 . S
C452 N447 1.332 . S
C452 C451 1.382 . S
C452 H462 0.948 . S
N453 Co431 2.282 1_565 S
N453 C457 1.332 . S
N453 C458 1.332 . S
C454 C455 1.388 . S
C454 C458 1.382 . S
C454 H477 0.950 . S
C455 C454 1.388 . S
C455 C456 1.386 . S
C456 C455 1.386 . S
C456 C457 1.382 . S
C456 H478 0.950 . S
C457 N453 1.332 . S
C457 C456 1.382 . S
C457 H459 0.952 . S
C458 N453 1.332 . S
C458 C454 1.382 . S
C458 H460 0.948 . S
H459 C457 0.952 . S
H460 C458 0.948 . S
H461 C450 0.952 . S
H462 C452 0.948 . S
C463 C429 1.395 1_545 S
C463 C433 1.391 . S
C464 C426 1.389 . S
C464 C446 1.392 . S
C465 C436 1.392 . S
C465 C438 1.389 . S
C466 C441 1.395 . S
C466 C443 1.391 1_545 S
H467 C427 0.951 . S
H468 C428 0.950 . S
H469 C434 0.949 . S
H470 C435 0.950 . S
H471 C439 0.951 . S
H472 C440 0.950 . S
H473 C444 0.949 . S
H474 C445 0.950 . S
H475 C449 0.950 . S
H476 C451 0.950 . S
H477 C454 0.950 . S
H478 C456 0.950 . S
C479 C480 1.443 . S
C479 N483 1.376 . S
C479 C517 1.389 . S
C480 C479 1.443 . S
C480 C481 1.340 . S
C480 H520 0.951 . S
C481 C480 1.340 . S
C481 C482 1.439 . S
C481 H521 0.950 . S
C482 C481 1.439 . S
C482 N483 1.374 . S
C482 C516 1.395 . S
N483 C479 1.376 . S
N483 C482 1.374 . S
N483 Co484 2.008 . S
Co484 N483 2.008 . S
Co484 N485 1.994 . S
Co484 N490 1.980 1_554 S
Co484 N495 1.995 . S
Co484 N500 2.282 1_554 S
Co484 N506 2.282 . S
N485 Co484 1.994 . S
N485 C486 1.376 . S
N485 C489 1.383 1_554 S
C486 N485 1.376 . S
C486 C487 1.446 1_554 S
C486 C516 1.391 . S
C487 C486 1.446 1_556 S
C487 C488 1.339 . S
C487 H522 0.949 . S
C488 C487 1.339 . S
C488 C489 1.439 . S
C488 H523 0.950 . S
C489 N485 1.383 1_556 S
C489 C488 1.439 . S
C489 C518 1.392 . S
N490 Co484 1.980 1_556 S
N490 C491 1.416 . S
N490 C494 1.375 1_556 S
C491 N490 1.416 . S
C491 C492 1.443 . S
C491 C518 1.389 . S
C492 C491 1.443 . S
C492 C493 1.340 . S
C492 H524 0.951 . S
C493 C492 1.340 . S
C493 C494 1.428 1_556 S
C493 H525 0.950 . S
C494 N490 1.375 1_554 S
C494 C493 1.428 1_554 S
C494 C519 1.404 . S
N495 Co484 1.995 . S
N495 C496 1.376 . S
N495 C499 1.383 . S
C496 N495 1.376 . S
C496 C497 1.446 . S
C496 C519 1.391 . S
C497 C496 1.446 . S
C497 C498 1.339 . S
C497 H526 0.949 . S
C498 C497 1.339 . S
C498 C499 1.439 . S
C498 H527 0.950 . S
C499 N495 1.383 . S
C499 C498 1.439 . S
C499 C517 1.392 . S
N500 Co484 2.282 1_556 S
N500 C503 1.332 . S
N500 C505 1.332 . S
C501 C502 1.386 . S
C501 C504 1.388 . S
C502 C501 1.386 . S
C502 C503 1.382 . S
C502 H528 0.950 . S
C503 N500 1.332 . S
C503 C502 1.382 . S
C503 H514 0.952 . S
C504 C501 1.388 . S
C504 C505 1.382 . S
C504 H529 0.950 . S
C505 N500 1.332 . S
C505 C504 1.382 . S
C505 H515 0.948 . S
N506 Co484 2.282 . S
N506 C510 1.332 . S
N506 C511 1.332 . S
C507 C508 1.388 . S
C507 C511 1.382 . S
C507 H530 0.950 . S
C508 C507 1.388 . S
C508 C509 1.386 . S
C509 C508 1.386 . S
C509 C510 1.382 . S
C509 H531 0.950 . S
C510 N506 1.332 . S
C510 C509 1.382 . S
C510 H512 0.952 . S
C511 N506 1.332 . S
C511 C507 1.382 . S
C511 H513 0.948 . S
H512 C510 0.952 . S
H513 C511 0.948 . S
H514 C503 0.952 . S
H515 C505 0.948 . S
C516 C482 1.395 . S
C516 C486 1.391 . S
C517 C479 1.389 . S
C517 C499 1.392 . S
C518 C489 1.392 . S
C518 C491 1.389 . S
C519 C494 1.404 . S
C519 C496 1.391 . S
H520 C480 0.951 . S
H521 C481 0.950 . S
H522 C487 0.949 . S
H523 C488 0.950 . S
H524 C492 0.951 . S
H525 C493 0.950 . S
H526 C497 0.949 . S
H527 C498 0.950 . S
H528 C502 0.950 . S
H529 C504 0.950 . S
H530 C507 0.950 . S
H531 C509 0.950 . S
C532 C533 1.443 . S
C532 N536 1.376 1_565 S
C532 C570 1.389 . S
C533 C532 1.443 . S
C533 C534 1.340 . S
C533 H573 0.951 . S
C534 C533 1.340 . S
C534 C535 1.439 1_565 S
C534 H574 0.950 . S
C535 C534 1.439 1_545 S
C535 N536 1.374 . S
C535 C569 1.395 . S
N536 C532 1.376 1_545 S
N536 C535 1.374 . S
N536 Co537 2.008 . S
Co537 N536 2.008 . S
Co537 N538 1.995 . S
Co537 N543 2.008 . S
Co537 N548 1.995 . S
Co537 N553 2.282 . S
Co537 N559 2.282 1_545 S
N538 Co537 1.995 . S
N538 C539 1.376 . S
N538 C542 1.383 . S
C539 N538 1.376 . S
C539 C540 1.446 . S
C539 C569 1.391 . S
C540 C539 1.446 . S
C540 C541 1.339 . S
C540 H575 0.949 . S
C541 C540 1.339 . S
C541 C542 1.439 . S
C541 H576 0.950 . S
C542 N538 1.383 . S
C542 C541 1.439 . S
C542 C571 1.392 . S
N543 Co537 2.008 . S
N543 C544 1.376 . S
N543 C547 1.374 . S
C544 N543 1.376 . S
C544 C545 1.443 . S
C544 C571 1.389 . S
C545 C544 1.443 . S
C545 C546 1.340 . S
C545 H577 0.951 . S
C546 C545 1.340 . S
C546 C547 1.439 . S
C546 H578 0.950 . S
C547 N543 1.374 . S
C547 C546 1.439 . S
C547 C572 1.395 . S
N548 Co537 1.995 . S
N548 C549 1.376 . S
N548 C552 1.383 1_545 S
C549 N548 1.376 . S
C549 C550 1.446 1_545 S
C549 C572 1.391 . S
C550 C549 1.446 1_565 S
C550 C551 1.339 . S
C550 H579 0.949 . S
C551 C550 1.339 . S
C551 C552 1.439 . S
C551 H580 0.950 . S
C552 N548 1.383 1_565 S
C552 C551 1.439 . S
C552 C570 1.392 . S
N553 Co537 2.282 . S
N553 C556 1.332 . S
N553 C558 1.332 . S
C554 C555 1.386 . S
C554 C557 1.388 . S
C555 C554 1.386 . S
C555 C556 1.382 . S
C555 H581 0.950 . S
C556 N553 1.332 . S
C556 C555 1.382 . S
C556 H567 0.952 . S
C557 C554 1.388 . S
C557 C558 1.382 . S
C557 H582 0.950 . S
C558 N553 1.332 . S
C558 C557 1.382 . S
C558 H568 0.948 . S
N559 Co537 2.282 1_565 S
N559 C563 1.332 . S
N559 C564 1.332 . S
C560 C561 1.388 . S
C560 C564 1.382 . S
C560 H583 0.950 . S
C561 C560 1.388 . S
C561 C562 1.386 . S
C562 C561 1.386 . S
C562 C563 1.382 . S
C562 H584 0.950 . S
C563 N559 1.332 . S
C563 C562 1.382 . S
C563 H565 0.952 . S
C564 N559 1.332 . S
C564 C560 1.382 . S
C564 H566 0.948 . S
H565 C563 0.952 . S
H566 C564 0.948 . S
H567 C556 0.952 . S
H568 C558 0.948 . S
C569 C535 1.395 . S
C569 C539 1.391 . S
C570 C532 1.389 . S
C570 C552 1.392 . S
C571 C542 1.392 . S
C571 C544 1.389 . S
C572 C547 1.395 . S
C572 C549 1.391 . S
H573 C533 0.951 . S
H574 C534 0.950 . S
H575 C540 0.949 . S
H576 C541 0.950 . S
H577 C545 0.951 . S
H578 C546 0.950 . S
H579 C550 0.949 . S
H580 C551 0.950 . S
H581 C555 0.950 . S
H582 C557 0.950 . S
H583 C560 0.950 . S
H584 C562 0.950 . S
C585 C586 1.443 . S
C585 N589 1.376 . S
C585 C623 1.389 . S
C586 C585 1.443 . S
C586 C587 1.340 . S
C586 H626 0.951 . S
C587 C586 1.340 . S
C587 C588 1.439 . S
C587 H627 0.950 . S
C588 C587 1.439 . S
C588 N589 1.374 . S
C588 C622 1.395 . S
N589 C585 1.376 . S
N589 C588 1.374 . S
N589 Co590 2.008 . S
Co590 N589 2.008 . S
Co590 N591 1.995 . S
Co590 N596 2.008 . S
Co590 N601 1.995 . S
Co590 N606 2.285 . S
Co590 N612 2.282 . S
N591 Co590 1.995 . S
N591 C592 1.376 . S
N591 C595 1.383 1_554 S
C592 N591 1.376 . S
C592 C593 1.446 1_554 S
C592 C622 1.391 . S
C593 C592 1.446 1_556 S
C593 C594 1.339 . S
C593 H628 0.949 . S
C594 C593 1.339 . S
C594 C595 1.439 . S
C594 H629 0.950 . S
C595 N591 1.383 1_556 S
C595 C594 1.439 . S
C595 C624 1.392 . S
N596 Co590 2.008 . S
N596 C597 1.376 1_554 S
N596 C600 1.374 . S
C597 N596 1.376 1_556 S
C597 C598 1.443 . S
C597 C624 1.389 . S
C598 C597 1.443 . S
C598 C599 1.340 . S
C598 H630 0.951 . S
C599 C598 1.340 . S
C599 C600 1.439 1_556 S
C599 H631 0.950 . S
C600 N596 1.374 . S
C600 C599 1.439 1_554 S
C600 C625 1.395 . S
N601 Co590 1.995 . S
N601 C602 1.376 . S
N601 C605 1.383 . S
C602 N601 1.376 . S
C602 C603 1.446 . S
C602 C625 1.391 . S
C603 C602 1.446 . S
C603 C604 1.339 . S
C603 H632 0.949 . S
C604 C603 1.339 . S
C604 C605 1.439 . S
C604 H633 0.950 . S
C605 N601 1.383 . S
C605 C604 1.439 . S
C605 C623 1.392 . S
N606 Co590 2.285 . S
N606 C609 1.331 1_554 S
N606 C611 1.330 1_554 S
C607 C608 1.386 . S
C607 C610 1.388 . S
C608 C607 1.386 . S
C608 C609 1.382 . S
C608 H634 0.950 . S
C609 N606 1.331 1_556 S
C609 C608 1.382 . S
C609 H620 0.952 1_556 S
C610 C607 1.388 . S
C610 C611 1.382 . S
C610 H635 0.950 . S
C611 N606 1.330 1_556 S
C611 C610 1.382 . S
C611 H621 0.948 . S
N612 Co590 2.282 . S
N612 C616 1.332 . S
N612 C617 1.332 . S
C613 C614 1.388 . S
C613 C617 1.382 . S
C613 H636 0.950 . S
C614 C613 1.388 . S
C614 C615 1.386 . S
C615 C614 1.386 . S
C615 C616 1.382 . S
C615 H637 0.950 . S
C616 N612 1.332 . S
C616 C615 1.382 . S
C616 H618 0.952 . S
C617 N612 1.332 . S
C617 C613 1.382 . S
C617 H619 0.948 . S
H618 C616 0.952 . S
H619 C617 0.948 . S
H620 C609 0.952 1_554 S
H621 C611 0.948 . S
C622 C588 1.395 . S
C622 C592 1.391 . S
C623 C585 1.389 . S
C623 C605 1.392 . S
C624 C595 1.392 . S
C624 C597 1.389 . S
C625 C600 1.395 . S
C625 C602 1.391 . S
H626 C586 0.951 . S
H627 C587 0.950 . S
H628 C593 0.949 . S
H629 C594 0.950 . S
H630 C598 0.951 . S
H631 C599 0.950 . S
H632 C603 0.949 . S
H633 C604 0.950 . S
H634 C608 0.950 . S
H635 C610 0.950 . S
H636 C613 0.950 . S
H637 C615 0.950 . S
H638 C650 0.930 . S
H639 C652 0.930 . S
H640 C653 0.930 . S
H641 C657 0.959 . S
H642 C657 0.959 . S
H643 C657 0.961 . S
H644 C658 0.960 . S
H645 C658 0.961 . S
H646 C658 0.959 . S
H647 C661 0.929 . S
H648 C662 0.931 . S
H649 C664 0.930 . S
C650 H638 0.930 . S
C650 C651 1.399 . S
C650 C655 1.399 . S
C651 C650 1.399 . S
C651 C652 1.376 . S
C652 H639 0.930 . S
C652 C651 1.376 . S
C652 C653 1.388 . S
C653 H640 0.930 . S
C653 C652 1.388 . S
C653 C654 1.390 . S
C654 C653 1.390 . S
C654 C655 1.394 . S
C654 C660 1.465 . S
C655 C650 1.399 . S
C655 C654 1.394 . S
C655 C656 1.516 . S
C656 C655 1.516 . S
C656 C657 1.502 . S
C656 C658 1.561 . S
C656 C659 1.526 . S
C657 H641 0.959 . S
C657 H642 0.959 . S
C657 H643 0.961 . S
C657 C656 1.502 . S
C658 H644 0.960 . S
C658 H645 0.961 . S
C658 H646 0.959 . S
C658 C656 1.561 . S
C659 C656 1.526 . S
C659 C660 1.396 . S
C659 C664 1.390 . S
C660 C654 1.465 . S
C660 C659 1.396 . S
C660 C661 1.399 . S
C661 H647 0.929 . S
C661 C660 1.399 . S
C661 C662 1.385 . S
C662 H648 0.931 . S
C662 C661 1.385 . S
C662 C663 1.389 . S
C663 C662 1.389 . S
C663 C664 1.387 . S
C664 H649 0.930 . S
C664 C659 1.390 . S
C664 C663 1.387 . S
H665 C677 0.930 . S
H666 C679 0.930 . S
H667 C680 0.930 . S
H668 C684 0.959 . S
H669 C684 0.959 . S
H670 C684 0.961 . S
H671 C685 0.960 . S
H672 C685 0.961 . S
H673 C685 0.959 . S
H674 C688 0.929 . S
H675 C689 0.931 . S
H676 C691 0.930 . S
C677 H665 0.930 . S
C677 C678 1.399 . S
C677 C682 1.399 . S
C678 C677 1.399 . S
C678 C679 1.376 . S
C679 H666 0.930 . S
C679 C678 1.376 . S
C679 C680 1.388 . S
C680 H667 0.930 . S
C680 C679 1.388 . S
C680 C681 1.390 . S
C681 C680 1.390 . S
C681 C682 1.394 . S
C681 C687 1.465 . S
C682 C677 1.399 . S
C682 C681 1.394 . S
C682 C683 1.516 . S
C683 C682 1.516 . S
C683 C684 1.502 . S
C683 C685 1.561 . S
C683 C686 1.526 . S
C684 H668 0.959 . S
C684 H669 0.959 . S
C684 H670 0.961 . S
C684 C683 1.502 . S
C685 H671 0.960 . S
C685 H672 0.961 . S
C685 H673 0.959 . S
C685 C683 1.561 . S
C686 C683 1.526 . S
C686 C687 1.396 . S
C686 C691 1.390 . S
C687 C681 1.465 . S
C687 C686 1.396 . S
C687 C688 1.399 . S
C688 H674 0.929 . S
C688 C687 1.399 . S
C688 C689 1.385 . S
C689 H675 0.931 . S
C689 C688 1.385 . S
C689 C690 1.389 . S
C690 C689 1.389 . S
C690 C691 1.387 . S
C691 H676 0.930 . S
C691 C686 1.390 . S
C691 C690 1.387 . S
H692 C704 0.930 . S
H693 C706 0.930 . S
H694 C707 0.930 . S
H695 C711 0.959 . S
H696 C711 0.959 . S
H697 C711 0.961 . S
H698 C712 0.960 . S
H699 C712 0.961 . S
H700 C712 0.959 . S
H701 C715 0.929 . S
H702 C716 0.931 . S
H703 C718 0.930 . S
C704 H692 0.930 . S
C704 C705 1.399 . S
C704 C709 1.399 . S
C705 C704 1.399 . S
C705 C706 1.376 . S
C706 H693 0.930 . S
C706 C705 1.376 . S
C706 C707 1.388 . S
C707 H694 0.930 . S
C707 C706 1.388 . S
C707 C708 1.390 . S
C708 C707 1.390 . S
C708 C709 1.394 . S
C708 C714 1.465 . S
C709 C704 1.399 . S
C709 C708 1.394 . S
C709 C710 1.516 . S
C710 C709 1.516 . S
C710 C711 1.502 . S
C710 C712 1.561 . S
C710 C713 1.526 . S
C711 H695 0.959 . S
C711 H696 0.959 . S
C711 H697 0.961 . S
C711 C710 1.502 . S
C712 H698 0.960 . S
C712 H699 0.961 . S
C712 H700 0.959 . S
C712 C710 1.561 . S
C713 C710 1.526 . S
C713 C714 1.396 . S
C713 C718 1.390 . S
C714 C708 1.465 . S
C714 C713 1.396 . S
C714 C715 1.399 . S
C715 H701 0.929 . S
C715 C714 1.399 . S
C715 C716 1.385 . S
C716 H702 0.931 . S
C716 C715 1.385 . S
C716 C717 1.389 . S
C717 C716 1.389 . S
C717 C718 1.387 . S
C718 H703 0.930 . S
C718 C713 1.390 . S
C718 C717 1.387 . S
H719 C731 0.930 . S
H720 C733 0.930 . S
H721 C734 0.930 . S
H722 C738 0.959 . S
H723 C738 0.959 . S
H724 C738 0.961 . S
H725 C739 0.960 . S
H726 C739 0.961 . S
H727 C739 0.959 . S
H728 C742 0.929 . S
H729 C743 0.931 . S
H730 C745 0.930 . S
C731 H719 0.930 . S
C731 C732 1.399 . S
C731 C736 1.399 . S
C732 C731 1.399 . S
C732 C733 1.376 . S
C733 H720 0.930 . S
C733 C732 1.376 . S
C733 C734 1.388 . S
C734 H721 0.930 . S
C734 C733 1.388 . S
C734 C735 1.390 . S
C735 C734 1.390 . S
C735 C736 1.394 . S
C735 C741 1.465 . S
C736 C731 1.399 . S
C736 C735 1.394 . S
C736 C737 1.516 . S
C737 C736 1.516 . S
C737 C738 1.502 . S
C737 C739 1.561 . S
C737 C740 1.526 . S
C738 H722 0.959 . S
C738 H723 0.959 . S
C738 H724 0.961 . S
C738 C737 1.502 . S
C739 H725 0.960 . S
C739 H726 0.961 . S
C739 H727 0.959 . S
C739 C737 1.561 . S
C740 C737 1.526 . S
C740 C741 1.396 . S
C740 C745 1.390 . S
C741 C735 1.465 . S
C741 C740 1.396 . S
C741 C742 1.399 . S
C742 H728 0.929 . S
C742 C741 1.399 . S
C742 C743 1.385 . S
C743 H729 0.931 . S
C743 C742 1.385 . S
C743 C744 1.389 . S
C744 C743 1.389 . S
C744 C745 1.387 . S
C745 H730 0.930 . S
C745 C740 1.390 . S
C745 C744 1.387 . S
H746 C758 0.930 . S
H747 C760 0.930 . S
H748 C761 0.930 . S
H749 C765 0.959 . S
H750 C765 0.959 . S
H751 C765 0.961 . S
H752 C766 0.960 . S
H753 C766 0.961 . S
H754 C766 0.959 . S
H755 C769 0.929 . S
H756 C770 0.931 . S
H757 C772 0.930 . S
C758 H746 0.930 . S
C758 C759 1.399 . S
C758 C763 1.399 . S
C759 C758 1.399 . S
C759 C760 1.376 . S
C760 H747 0.930 . S
C760 C759 1.376 . S
C760 C761 1.388 . S
C761 H748 0.930 . S
C761 C760 1.388 . S
C761 C762 1.390 . S
C762 C761 1.390 . S
C762 C763 1.394 . S
C762 C768 1.465 . S
C763 C758 1.399 . S
C763 C762 1.394 . S
C763 C764 1.516 . S
C764 C763 1.516 . S
C764 C765 1.502 . S
C764 C766 1.561 . S
C764 C767 1.526 . S
C765 H749 0.959 . S
C765 H750 0.959 . S
C765 H751 0.961 . S
C765 C764 1.502 . S
C766 H752 0.960 . S
C766 H753 0.961 . S
C766 H754 0.959 . S
C766 C764 1.561 . S
C767 C764 1.526 . S
C767 C768 1.396 . S
C767 C772 1.390 . S
C768 C762 1.465 . S
C768 C767 1.396 . S
C768 C769 1.399 . S
C769 H755 0.929 . S
C769 C768 1.399 . S
C769 C770 1.385 . S
C770 H756 0.931 . S
C770 C769 1.385 . S
C770 C771 1.389 . S
C771 C770 1.389 . S
C771 C772 1.387 . S
C772 H757 0.930 . S
C772 C767 1.390 . S
C772 C771 1.387 . S
H773 C785 0.930 . S
H774 C787 0.930 . S
H775 C788 0.930 . S
H776 C792 0.959 . S
H777 C792 0.959 . S
H778 C792 0.961 . S
H779 C793 0.960 . S
H780 C793 0.961 . S
H781 C793 0.959 . S
H782 C796 0.929 . S
H783 C797 0.931 . S
H784 C799 0.930 . S
C785 H773 0.930 . S
C785 C786 1.399 . S
C785 C790 1.399 . S
C786 C785 1.399 . S
C786 C787 1.376 . S
C787 H774 0.930 . S
C787 C786 1.376 . S
C787 C788 1.388 . S
C788 H775 0.930 . S
C788 C787 1.388 . S
C788 C789 1.390 . S
C789 C788 1.390 . S
C789 C790 1.394 . S
C789 C795 1.465 . S
C790 C785 1.399 . S
C790 C789 1.394 . S
C790 C791 1.516 . S
C791 C790 1.516 . S
C791 C792 1.502 . S
C791 C793 1.561 . S
C791 C794 1.526 . S
C792 H776 0.959 . S
C792 H777 0.959 . S
C792 H778 0.961 . S
C792 C791 1.502 . S
C793 H779 0.960 . S
C793 H780 0.961 . S
C793 H781 0.959 . S
C793 C791 1.561 . S
C794 C791 1.526 . S
C794 C795 1.396 . S
C794 C799 1.390 . S
C795 C789 1.465 . S
C795 C794 1.396 . S
C795 C796 1.399 . S
C796 H782 0.929 . S
C796 C795 1.399 . S
C796 C797 1.385 . S
C797 H783 0.931 . S
C797 C796 1.385 . S
C797 C798 1.389 . S
C798 C797 1.389 . S
C798 C799 1.387 . S
C799 H784 0.930 . S
C799 C794 1.390 . S
C799 C798 1.387 . S
H800 C812 0.930 . S
H801 C814 0.930 . S
H802 C815 0.930 . S
H803 C819 0.959 . S
H804 C819 0.959 . S
H805 C819 0.961 . S
H806 C820 0.960 . S
H807 C820 0.961 . S
H808 C820 0.959 . S
H809 C823 0.929 . S
H810 C824 0.931 . S
H811 C826 0.930 . S
C812 H800 0.930 . S
C812 C813 1.399 . S
C812 C817 1.399 . S
C813 C812 1.399 . S
C813 C814 1.376 . S
C814 H801 0.930 . S
C814 C813 1.376 . S
C814 C815 1.388 . S
C815 H802 0.930 . S
C815 C814 1.388 . S
C815 C816 1.390 . S
C816 C815 1.390 . S
C816 C817 1.394 . S
C816 C822 1.465 . S
C817 C812 1.399 . S
C817 C816 1.394 . S
C817 C818 1.516 . S
C818 C817 1.516 . S
C818 C819 1.502 . S
C818 C820 1.561 . S
C818 C821 1.526 . S
C819 H803 0.959 . S
C819 H804 0.959 . S
C819 H805 0.961 . S
C819 C818 1.502 . S
C820 H806 0.960 . S
C820 H807 0.961 . S
C820 H808 0.959 . S
C820 C818 1.561 . S
C821 C818 1.526 . S
C821 C822 1.396 . S
C821 C826 1.390 . S
C822 C816 1.465 . S
C822 C821 1.396 . S
C822 C823 1.399 . S
C823 H809 0.929 . S
C823 C822 1.399 . S
C823 C824 1.385 . S
C824 H810 0.931 . S
C824 C823 1.385 . S
C824 C825 1.389 . S
C825 C824 1.389 . S
C825 C826 1.387 . S
C826 H811 0.930 . S
C826 C821 1.390 . S
C826 C825 1.387 . S
H827 C839 0.930 . S
H828 C841 0.930 . S
H829 C842 0.930 . S
H830 C846 0.959 . S
H831 C846 0.959 . S
H832 C846 0.961 . S
H833 C847 0.960 . S
H834 C847 0.961 . S
H835 C847 0.959 . S
H836 C850 0.929 . S
H837 C851 0.931 . S
H838 C853 0.930 . S
C839 H827 0.930 . S
C839 C840 1.399 . S
C839 C844 1.399 . S
C840 C839 1.399 . S
C840 C841 1.376 . S
C841 H828 0.930 . S
C841 C840 1.376 . S
C841 C842 1.388 . S
C842 H829 0.930 . S
C842 C841 1.388 . S
C842 C843 1.390 . S
C843 C842 1.390 . S
C843 C844 1.394 . S
C843 C849 1.465 . S
C844 C839 1.399 . S
C844 C843 1.394 . S
C844 C845 1.516 . S
C845 C844 1.516 . S
C845 C846 1.502 . S
C845 C847 1.561 . S
C845 C848 1.526 . S
C846 H830 0.959 . S
C846 H831 0.959 . S
C846 H832 0.961 . S
C846 C845 1.502 . S
C847 H833 0.960 . S
C847 H834 0.961 . S
C847 H835 0.959 . S
C847 C845 1.561 . S
C848 C845 1.526 . S
C848 C849 1.396 . S
C848 C853 1.390 . S
C849 C843 1.465 . S
C849 C848 1.396 . S
C849 C850 1.399 . S
C850 H836 0.929 . S
C850 C849 1.399 . S
C850 C851 1.385 . S
C851 H837 0.931 . S
C851 C850 1.385 . S
C851 C852 1.389 . S
C852 C851 1.389 . S
C852 C853 1.387 . S
C853 H838 0.930 . S
C853 C848 1.390 . S
C853 C852 1.387 . S
H854 C866 0.930 . S
H855 C868 0.930 . S
H856 C869 0.930 . S
H857 C873 0.959 . S
H858 C873 0.959 . S
H859 C873 0.961 . S
H860 C874 0.960 . S
H861 C874 0.961 . S
H862 C874 0.959 . S
H863 C877 0.929 . S
H864 C878 0.931 . S
H865 C880 0.930 . S
C866 H854 0.930 . S
C866 C867 1.399 . S
C866 C871 1.399 . S
C867 C866 1.399 . S
C867 C868 1.376 . S
C868 H855 0.930 . S
C868 C867 1.376 . S
C868 C869 1.388 . S
C869 H856 0.930 . S
C869 C868 1.388 . S
C869 C870 1.390 . S
C870 C869 1.390 . S
C870 C871 1.394 . S
C870 C876 1.465 . S
C871 C866 1.399 . S
C871 C870 1.394 . S
C871 C872 1.516 . S
C872 C871 1.516 . S
C872 C873 1.502 . S
C872 C874 1.561 . S
C872 C875 1.526 . S
C873 H857 0.959 . S
C873 H858 0.959 . S
C873 H859 0.961 . S
C873 C872 1.502 . S
C874 H860 0.960 . S
C874 H861 0.961 . S
C874 H862 0.959 . S
C874 C872 1.561 . S
C875 C872 1.526 . S
C875 C876 1.396 . S
C875 C880 1.390 . S
C876 C870 1.465 . S
C876 C875 1.396 . S
C876 C877 1.399 . S
C877 H863 0.929 . S
C877 C876 1.399 . S
C877 C878 1.385 . S
C878 H864 0.931 . S
C878 C877 1.385 . S
C878 C879 1.389 . S
C879 C878 1.389 . S
C879 C880 1.387 . S
C880 H865 0.930 . S
C880 C875 1.390 . S
C880 C879 1.387 . S
H881 C893 0.930 . S
H882 C895 0.930 . S
H883 C896 0.930 . S
H884 C900 0.959 . S
H885 C900 0.959 . S
H886 C900 0.961 . S
H887 C901 0.960 . S
H888 C901 0.961 . S
H889 C901 0.959 . S
H890 C904 0.929 . S
H891 C905 0.931 . S
H892 C907 0.930 . S
C893 H881 0.930 . S
C893 C894 1.399 . S
C893 C898 1.399 . S
C894 C893 1.399 . S
C894 C895 1.376 . S
C895 H882 0.930 . S
C895 C894 1.376 . S
C895 C896 1.388 . S
C896 H883 0.930 . S
C896 C895 1.388 . S
C896 C897 1.390 . S
C897 C896 1.390 . S
C897 C898 1.394 . S
C897 C903 1.465 . S
C898 C893 1.399 . S
C898 C897 1.394 . S
C898 C899 1.516 . S
C899 C898 1.516 . S
C899 C900 1.502 . S
C899 C901 1.561 . S
C899 C902 1.526 . S
C900 H884 0.959 . S
C900 H885 0.959 . S
C900 H886 0.961 . S
C900 C899 1.502 . S
C901 H887 0.960 . S
C901 H888 0.961 . S
C901 H889 0.959 . S
C901 C899 1.561 . S
C902 C899 1.526 . S
C902 C903 1.396 . S
C902 C907 1.390 . S
C903 C897 1.465 . S
C903 C902 1.396 . S
C903 C904 1.399 . S
C904 H890 0.929 . S
C904 C903 1.399 . S
C904 C905 1.385 . S
C905 H891 0.931 . S
C905 C904 1.385 . S
C905 C906 1.389 . S
C906 C905 1.389 . S
C906 C907 1.387 . S
C907 H892 0.930 . S
C907 C902 1.390 . S
C907 C906 1.387 . S
H908 C920 0.930 . S
H909 C922 0.930 . S
H910 C923 0.930 . S
H911 C927 0.959 . S
H912 C927 0.959 . S
H913 C927 0.961 . S
H914 C928 0.960 . S
H915 C928 0.961 . S
H916 C928 0.959 . S
H917 C931 0.929 . S
H918 C932 0.931 . S
H919 C934 0.930 . S
C920 H908 0.930 . S
C920 C921 1.399 . S
C920 C925 1.399 . S
C921 C920 1.399 . S
C921 C922 1.376 . S
C922 H909 0.930 . S
C922 C921 1.376 . S
C922 C923 1.388 . S
C923 H910 0.930 . S
C923 C922 1.388 . S
C923 C924 1.390 . S
C924 C923 1.390 . S
C924 C925 1.394 . S
C924 C930 1.465 . S
C925 C920 1.399 . S
C925 C924 1.394 . S
C925 C926 1.516 . S
C926 C925 1.516 . S
C926 C927 1.502 . S
C926 C928 1.561 . S
C926 C929 1.526 . S
C927 H911 0.959 . S
C927 H912 0.959 . S
C927 H913 0.961 . S
C927 C926 1.502 . S
C928 H914 0.960 . S
C928 H915 0.961 . S
C928 H916 0.959 . S
C928 C926 1.561 . S
C929 C926 1.526 . S
C929 C930 1.396 . S
C929 C934 1.390 . S
C930 C924 1.465 . S
C930 C929 1.396 . S
C930 C931 1.399 . S
C931 H917 0.929 . S
C931 C930 1.399 . S
C931 C932 1.385 . S
C932 H918 0.931 . S
C932 C931 1.385 . S
C932 C933 1.389 . S
C933 C932 1.389 . S
C933 C934 1.387 . S
C934 H919 0.930 . S
C934 C929 1.390 . S
C934 C933 1.387 . S
H935 C947 0.930 . S
H936 C949 0.930 . S
H937 C950 0.930 . S
H938 C954 0.959 . S
H939 C954 0.959 . S
H940 C954 0.961 . S
H941 C955 0.960 . S
H942 C955 0.961 . S
H943 C955 0.959 . S
H944 C958 0.929 . S
H945 C959 0.931 . S
H946 C961 0.930 . S
C947 H935 0.930 . S
C947 C948 1.399 . S
C947 C952 1.399 . S
C948 C947 1.399 . S
C948 C949 1.376 . S
C949 H936 0.930 . S
C949 C948 1.376 . S
C949 C950 1.388 . S
C950 H937 0.930 . S
C950 C949 1.388 . S
C950 C951 1.390 . S
C951 C950 1.390 . S
C951 C952 1.394 . S
C951 C957 1.465 . S
C952 C947 1.399 . S
C952 C951 1.394 . S
C952 C953 1.516 . S
C953 C952 1.516 . S
C953 C954 1.502 . S
C953 C955 1.561 . S
C953 C956 1.526 . S
C954 H938 0.959 . S
C954 H939 0.959 . S
C954 H940 0.961 . S
C954 C953 1.502 . S
C955 H941 0.960 . S
C955 H942 0.961 . S
C955 H943 0.959 . S
C955 C953 1.561 . S
C956 C953 1.526 . S
C956 C957 1.396 . S
C956 C961 1.390 . S
C957 C951 1.465 . S
C957 C956 1.396 . S
C957 C958 1.399 . S
C958 H944 0.929 . S
C958 C957 1.399 . S
C958 C959 1.385 . S
C959 H945 0.931 . S
C959 C958 1.385 . S
C959 C960 1.389 . S
C960 C959 1.389 . S
C960 C961 1.387 . S
C961 H946 0.930 . S
C961 C956 1.390 . S
C961 C960 1.387 . S
H962 C974 0.930 . S
H963 C976 0.930 . S
H964 C977 0.930 . S
H965 C981 0.959 . S
H966 C981 0.959 . S
H967 C981 0.961 . S
H968 C982 0.960 . S
H969 C982 0.961 . S
H970 C982 0.959 . S
H971 C985 0.929 . S
H972 C986 0.931 . S
H973 C988 0.930 . S
C974 H962 0.930 . S
C974 C975 1.399 . S
C974 C979 1.399 . S
C975 C974 1.399 . S
C975 C976 1.376 . S
C976 H963 0.930 . S
C976 C975 1.376 . S
C976 C977 1.388 . S
C977 H964 0.930 . S
C977 C976 1.388 . S
C977 C978 1.390 . S
C978 C977 1.390 . S
C978 C979 1.394 . S
C978 C984 1.465 . S
C979 C974 1.399 . S
C979 C978 1.394 . S
C979 C980 1.516 . S
C980 C979 1.516 . S
C980 C981 1.502 . S
C980 C982 1.561 . S
C980 C983 1.526 . S
C981 H965 0.959 . S
C981 H966 0.959 . S
C981 H967 0.961 . S
C981 C980 1.502 . S
C982 H968 0.960 . S
C982 H969 0.961 . S
C982 H970 0.959 . S
C982 C980 1.561 . S
C983 C980 1.526 . S
C983 C984 1.396 . S
C983 C988 1.390 . S
C984 C978 1.465 . S
C984 C983 1.396 . S
C984 C985 1.399 . S
C985 H971 0.929 . S
C985 C984 1.399 . S
C985 C986 1.385 . S
C986 H972 0.931 . S
C986 C985 1.385 . S
C986 C987 1.389 . S
C987 C986 1.389 . S
C987 C988 1.387 . S
C988 H973 0.930 . S
C988 C983 1.390 . S
C988 C987 1.387 . S
H989 C1001 0.930 . S
H990 C1003 0.930 . S
H991 C1004 0.930 . S
H992 C1008 0.959 . S
H993 C1008 0.959 . S
H994 C1008 0.961 . S
H995 C1009 0.960 . S
H996 C1009 0.961 . S
H997 C1009 0.959 . S
H998 C1012 0.929 . S
H999 C1013 0.931 . S
H1000 C1015 0.930 . S
C1001 H989 0.930 . S
C1001 C1002 1.399 . S
C1001 C1006 1.399 . S
C1002 C1001 1.399 . S
C1002 C1003 1.376 . S
C1003 H990 0.930 . S
C1003 C1002 1.376 . S
C1003 C1004 1.388 . S
C1004 H991 0.930 . S
C1004 C1003 1.388 . S
C1004 C1005 1.390 . S
C1005 C1004 1.390 . S
C1005 C1006 1.394 . S
C1005 C1011 1.465 . S
C1006 C1001 1.399 . S
C1006 C1005 1.394 . S
C1006 C1007 1.516 . S
C1007 C1006 1.516 . S
C1007 C1008 1.502 . S
C1007 C1009 1.561 . S
C1007 C1010 1.526 . S
C1008 H992 0.959 . S
C1008 H993 0.959 . S
C1008 H994 0.961 . S
C1008 C1007 1.502 . S
C1009 H995 0.960 . S
C1009 H996 0.961 . S
C1009 H997 0.959 . S
C1009 C1007 1.561 . S
C1010 C1007 1.526 . S
C1010 C1011 1.396 . S
C1010 C1015 1.390 . S
C1011 C1005 1.465 . S
C1011 C1010 1.396 . S
C1011 C1012 1.399 . S
C1012 H998 0.929 . S
C1012 C1011 1.399 . S
C1012 C1013 1.385 . S
C1013 H999 0.931 . S
C1013 C1012 1.385 . S
C1013 C1014 1.389 . S
C1014 C1013 1.389 . S
C1014 C1015 1.387 . S
C1015 H1000 0.930 . S
C1015 C1010 1.390 . S
C1015 C1014 1.387 . S
H1016 C1028 0.930 . S
H1017 C1030 0.930 . S
H1018 C1031 0.930 . S
H1019 C1035 0.959 . S
H1020 C1035 0.959 . S
H1021 C1035 0.961 . S
H1022 C1036 0.960 . S
H1023 C1036 0.961 . S
H1024 C1036 0.959 . S
H1025 C1039 0.929 . S
H1026 C1040 0.931 . S
H1027 C1042 0.930 . S
C1028 H1016 0.930 . S
C1028 C1029 1.399 . S
C1028 C1033 1.399 . S
C1029 C1028 1.399 . S
C1029 C1030 1.376 . S
C1030 H1017 0.930 . S
C1030 C1029 1.376 . S
C1030 C1031 1.388 . S
C1031 H1018 0.930 . S
C1031 C1030 1.388 . S
C1031 C1032 1.390 . S
C1032 C1031 1.390 . S
C1032 C1033 1.394 . S
C1032 C1038 1.465 . S
C1033 C1028 1.399 . S
C1033 C1032 1.394 . S
C1033 C1034 1.516 . S
C1034 C1033 1.516 . S
C1034 C1035 1.502 . S
C1034 C1036 1.561 . S
C1034 C1037 1.526 . S
C1035 H1019 0.959 . S
C1035 H1020 0.959 . S
C1035 H1021 0.961 . S
C1035 C1034 1.502 . S
C1036 H1022 0.960 . S
C1036 H1023 0.961 . S
C1036 H1024 0.959 . S
C1036 C1034 1.561 . S
C1037 C1034 1.526 . S
C1037 C1038 1.396 . S
C1037 C1042 1.390 . S
C1038 C1032 1.465 . S
C1038 C1037 1.396 . S
C1038 C1039 1.399 . S
C1039 H1025 0.929 . S
C1039 C1038 1.399 . S
C1039 C1040 1.385 . S
C1040 H1026 0.931 . S
C1040 C1039 1.385 . S
C1040 C1041 1.389 . S
C1041 C1040 1.389 . S
C1041 C1042 1.387 . S
C1042 H1027 0.930 . S
C1042 C1037 1.390 . S
C1042 C1041 1.387 . S
H1043 C1055 0.930 . S
H1044 C1057 0.930 . S
H1045 C1058 0.930 . S
H1046 C1062 0.959 . S
H1047 C1062 0.959 . S
H1048 C1062 0.961 . S
H1049 C1063 0.960 . S
H1050 C1063 0.961 . S
H1051 C1063 0.959 . S
H1052 C1066 0.929 . S
H1053 C1067 0.931 . S
H1054 C1069 0.930 . S
C1055 H1043 0.930 . S
C1055 C1056 1.399 . S
C1055 C1060 1.399 . S
C1056 C1055 1.399 . S
C1056 C1057 1.376 . S
C1057 H1044 0.930 . S
C1057 C1056 1.376 . S
C1057 C1058 1.388 . S
C1058 H1045 0.930 . S
C1058 C1057 1.388 . S
C1058 C1059 1.390 . S
C1059 C1058 1.390 . S
C1059 C1060 1.394 . S
C1059 C1065 1.465 . S
C1060 C1055 1.399 . S
C1060 C1059 1.394 . S
C1060 C1061 1.516 . S
C1061 C1060 1.516 . S
C1061 C1062 1.502 . S
C1061 C1063 1.561 . S
C1061 C1064 1.526 . S
C1062 H1046 0.959 . S
C1062 H1047 0.959 . S
C1062 H1048 0.961 . S
C1062 C1061 1.502 . S
C1063 H1049 0.960 . S
C1063 H1050 0.961 . S
C1063 H1051 0.959 . S
C1063 C1061 1.561 . S
C1064 C1061 1.526 . S
C1064 C1065 1.396 . S
C1064 C1069 1.390 . S
C1065 C1059 1.465 . S
C1065 C1064 1.396 . S
C1065 C1066 1.399 . S
C1066 H1052 0.929 . S
C1066 C1065 1.399 . S
C1066 C1067 1.385 . S
C1067 H1053 0.931 . S
C1067 C1066 1.385 . S
C1067 C1068 1.389 . S
C1068 C1067 1.389 . S
C1068 C1069 1.387 . S
C1069 H1054 0.930 . S
C1069 C1064 1.390 . S
C1069 C1068 1.387 . S
H1070 C1082 0.930 . S
H1071 C1084 0.930 . S
H1072 C1085 0.930 . S
H1073 C1089 0.959 . S
H1074 C1089 0.959 . S
H1075 C1089 0.961 . S
H1076 C1090 0.960 . S
H1077 C1090 0.961 . S
H1078 C1090 0.959 . S
H1079 C1093 0.929 . S
H1080 C1094 0.931 . S
H1081 C1096 0.930 . S
C1082 H1070 0.930 . S
C1082 C1083 1.399 . S
C1082 C1087 1.399 . S
C1083 C1082 1.399 . S
C1083 C1084 1.376 . S
C1084 H1071 0.930 . S
C1084 C1083 1.376 . S
C1084 C1085 1.388 . S
C1085 H1072 0.930 . S
C1085 C1084 1.388 . S
C1085 C1086 1.390 . S
C1086 C1085 1.390 . S
C1086 C1087 1.394 . S
C1086 C1092 1.465 . S
C1087 C1082 1.399 . S
C1087 C1086 1.394 . S
C1087 C1088 1.516 . S
C1088 C1087 1.516 . S
C1088 C1089 1.502 . S
C1088 C1090 1.561 . S
C1088 C1091 1.526 . S
C1089 H1073 0.959 . S
C1089 H1074 0.959 . S
C1089 H1075 0.961 . S
C1089 C1088 1.502 . S
C1090 H1076 0.960 . S
C1090 H1077 0.961 . S
C1090 H1078 0.959 . S
C1090 C1088 1.561 . S
C1091 C1088 1.526 . S
C1091 C1092 1.396 . S
C1091 C1096 1.390 . S
C1092 C1086 1.465 . S
C1092 C1091 1.396 . S
C1092 C1093 1.399 . S
C1093 H1079 0.929 . S
C1093 C1092 1.399 . S
C1093 C1094 1.385 . S
C1094 H1080 0.931 . S
C1094 C1093 1.385 . S
C1094 C1095 1.389 . S
C1095 C1094 1.389 . S
C1095 C1096 1.387 . S
C1096 H1081 0.930 . S
C1096 C1091 1.390 . S
C1096 C1095 1.387 . S
H1097 C1109 0.930 . S
H1098 C1111 0.930 . S
H1099 C1112 0.930 . S
H1100 C1116 0.959 . S
H1101 C1116 0.959 . S
H1102 C1116 0.961 . S
H1103 C1117 0.960 . S
H1104 C1117 0.961 . S
H1105 C1117 0.959 . S
H1106 C1120 0.929 . S
H1107 C1121 0.931 . S
H1108 C1123 0.930 . S
C1109 H1097 0.930 . S
C1109 C1110 1.399 . S
C1109 C1114 1.399 . S
C1110 C1109 1.399 . S
C1110 C1111 1.376 . S
C1111 H1098 0.930 . S
C1111 C1110 1.376 . S
C1111 C1112 1.388 . S
C1112 H1099 0.930 . S
C1112 C1111 1.388 . S
C1112 C1113 1.390 . S
C1113 C1112 1.390 . S
C1113 C1114 1.394 . S
C1113 C1119 1.465 . S
C1114 C1109 1.399 . S
C1114 C1113 1.394 . S
C1114 C1115 1.516 . S
C1115 C1114 1.516 . S
C1115 C1116 1.502 . S
C1115 C1117 1.561 . S
C1115 C1118 1.526 . S
C1116 H1100 0.959 . S
C1116 H1101 0.959 . S
C1116 H1102 0.961 . S
C1116 C1115 1.502 . S
C1117 H1103 0.960 . S
C1117 H1104 0.961 . S
C1117 H1105 0.959 . S
C1117 C1115 1.561 . S
C1118 C1115 1.526 . S
C1118 C1119 1.396 . S
C1118 C1123 1.390 . S
C1119 C1113 1.465 . S
C1119 C1118 1.396 . S
C1119 C1120 1.399 . S
C1120 H1106 0.929 . S
C1120 C1119 1.399 . S
C1120 C1121 1.385 . S
C1121 H1107 0.931 . S
C1121 C1120 1.385 . S
C1121 C1122 1.389 . S
C1122 C1121 1.389 . S
C1122 C1123 1.387 . S
C1123 H1108 0.930 . S
C1123 C1118 1.390 . S
C1123 C1122 1.387 . S
H1124 C1136 0.930 . S
H1125 C1138 0.930 . S
H1126 C1139 0.930 . S
H1127 C1143 0.959 . S
H1128 C1143 0.959 . S
H1129 C1143 0.961 . S
H1130 C1144 0.960 . S
H1131 C1144 0.961 . S
H1132 C1144 0.959 . S
H1133 C1147 0.929 . S
H1134 C1148 0.931 . S
H1135 C1150 0.930 . S
C1136 H1124 0.930 . S
C1136 C1137 1.399 . S
C1136 C1141 1.399 . S
C1137 C1136 1.399 . S
C1137 C1138 1.376 . S
C1138 H1125 0.930 . S
C1138 C1137 1.376 . S
C1138 C1139 1.388 . S
C1139 H1126 0.930 . S
C1139 C1138 1.388 . S
C1139 C1140 1.390 . S
C1140 C1139 1.390 . S
C1140 C1141 1.394 . S
C1140 C1146 1.465 . S
C1141 C1136 1.399 . S
C1141 C1140 1.394 . S
C1141 C1142 1.516 . S
C1142 C1141 1.516 . S
C1142 C1143 1.502 . S
C1142 C1144 1.561 . S
C1142 C1145 1.526 . S
C1143 H1127 0.959 . S
C1143 H1128 0.959 . S
C1143 H1129 0.961 . S
C1143 C1142 1.502 . S
C1144 H1130 0.960 . S
C1144 H1131 0.961 . S
C1144 H1132 0.959 . S
C1144 C1142 1.561 . S
C1145 C1142 1.526 . S
C1145 C1146 1.396 . S
C1145 C1150 1.390 . S
C1146 C1140 1.465 . S
C1146 C1145 1.396 . S
C1146 C1147 1.399 . S
C1147 H1133 0.929 . S
C1147 C1146 1.399 . S
C1147 C1148 1.385 . S
C1148 H1134 0.931 . S
C1148 C1147 1.385 . S
C1148 C1149 1.389 . S
C1149 C1148 1.389 . S
C1149 C1150 1.387 . S
C1150 H1135 0.930 . S
C1150 C1145 1.390 . S
C1150 C1149 1.387 . S
H1151 C1163 0.930 . S
H1152 C1165 0.930 . S
H1153 C1166 0.930 . S
H1154 C1170 0.959 . S
H1155 C1170 0.959 . S
H1156 C1170 0.961 . S
H1157 C1171 0.960 . S
H1158 C1171 0.961 . S
H1159 C1171 0.959 . S
H1160 C1174 0.929 . S
H1161 C1175 0.931 . S
H1162 C1177 0.930 . S
C1163 H1151 0.930 . S
C1163 C1164 1.399 . S
C1163 C1168 1.399 . S
C1164 C1163 1.399 . S
C1164 C1165 1.376 . S
C1165 H1152 0.930 . S
C1165 C1164 1.376 . S
C1165 C1166 1.388 . S
C1166 H1153 0.930 . S
C1166 C1165 1.388 . S
C1166 C1167 1.390 . S
C1167 C1166 1.390 . S
C1167 C1168 1.394 . S
C1167 C1173 1.465 . S
C1168 C1163 1.399 . S
C1168 C1167 1.394 . S
C1168 C1169 1.516 . S
C1169 C1168 1.516 . S
C1169 C1170 1.502 . S
C1169 C1171 1.561 . S
C1169 C1172 1.526 . S
C1170 H1154 0.959 . S
C1170 H1155 0.959 . S
C1170 H1156 0.961 . S
C1170 C1169 1.502 . S
C1171 H1157 0.960 . S
C1171 H1158 0.961 . S
C1171 H1159 0.959 . S
C1171 C1169 1.561 . S
C1172 C1169 1.526 . S
C1172 C1173 1.396 . S
C1172 C1177 1.390 . S
C1173 C1167 1.465 . S
C1173 C1172 1.396 . S
C1173 C1174 1.399 . S
C1174 H1160 0.929 . S
C1174 C1173 1.399 . S
C1174 C1175 1.385 . S
C1175 H1161 0.931 . S
C1175 C1174 1.385 . S
C1175 C1176 1.389 . S
C1176 C1175 1.389 . S
C1176 C1177 1.387 . S
C1177 H1162 0.930 . S
C1177 C1172 1.390 . S
C1177 C1176 1.387 . S
H1178 C1190 0.930 . S
H1179 C1192 0.930 . S
H1180 C1193 0.930 . S
H1181 C1197 0.959 . S
H1182 C1197 0.959 . S
H1183 C1197 0.961 . S
H1184 C1198 0.960 . S
H1185 C1198 0.961 . S
H1186 C1198 0.959 . S
H1187 C1201 0.929 . S
H1188 C1202 0.931 . S
H1189 C1204 0.930 . S
C1190 H1178 0.930 . S
C1190 C1191 1.399 . S
C1190 C1195 1.399 . S
C1191 C1190 1.399 . S
C1191 C1192 1.376 . S
C1192 H1179 0.930 . S
C1192 C1191 1.376 . S
C1192 C1193 1.388 . S
C1193 H1180 0.930 . S
C1193 C1192 1.388 . S
C1193 C1194 1.390 . S
C1194 C1193 1.390 . S
C1194 C1195 1.394 . S
C1194 C1200 1.465 . S
C1195 C1190 1.399 . S
C1195 C1194 1.394 . S
C1195 C1196 1.516 . S
C1196 C1195 1.516 . S
C1196 C1197 1.502 . S
C1196 C1198 1.561 . S
C1196 C1199 1.526 . S
C1197 H1181 0.959 . S
C1197 H1182 0.959 . S
C1197 H1183 0.961 . S
C1197 C1196 1.502 . S
C1198 H1184 0.960 . S
C1198 H1185 0.961 . S
C1198 H1186 0.959 . S
C1198 C1196 1.561 . S
C1199 C1196 1.526 . S
C1199 C1200 1.396 . S
C1199 C1204 1.390 . S
C1200 C1194 1.465 . S
C1200 C1199 1.396 . S
C1200 C1201 1.399 . S
C1201 H1187 0.929 . S
C1201 C1200 1.399 . S
C1201 C1202 1.385 . S
C1202 H1188 0.931 . S
C1202 C1201 1.385 . S
C1202 C1203 1.389 . S
C1203 C1202 1.389 . S
C1203 C1204 1.387 . S
C1204 H1189 0.930 . S
C1204 C1199 1.390 . S
C1204 C1203 1.387 . S
H1205 C1217 0.930 . S
H1206 C1219 0.930 . S
H1207 C1220 0.930 . S
H1208 C1224 0.959 . S
H1209 C1224 0.959 . S
H1210 C1224 0.961 . S
H1211 C1225 0.960 . S
H1212 C1225 0.961 . S
H1213 C1225 0.959 . S
H1214 C1228 0.929 . S
H1215 C1229 0.931 . S
H1216 C1231 0.930 . S
C1217 H1205 0.930 . S
C1217 C1218 1.399 . S
C1217 C1222 1.399 . S
C1218 C1217 1.399 . S
C1218 C1219 1.376 . S
C1219 H1206 0.930 . S
C1219 C1218 1.376 . S
C1219 C1220 1.388 . S
C1220 H1207 0.930 . S
C1220 C1219 1.388 . S
C1220 C1221 1.390 . S
C1221 C1220 1.390 . S
C1221 C1222 1.394 . S
C1221 C1227 1.465 . S
C1222 C1217 1.399 . S
C1222 C1221 1.394 . S
C1222 C1223 1.516 . S
C1223 C1222 1.516 . S
C1223 C1224 1.502 . S
C1223 C1225 1.561 . S
C1223 C1226 1.526 . S
C1224 H1208 0.959 . S
C1224 H1209 0.959 . S
C1224 H1210 0.961 . S
C1224 C1223 1.502 . S
C1225 H1211 0.960 . S
C1225 H1212 0.961 . S
C1225 H1213 0.959 . S
C1225 C1223 1.561 . S
C1226 C1223 1.526 . S
C1226 C1227 1.396 . S
C1226 C1231 1.390 . S
C1227 C1221 1.465 . S
C1227 C1226 1.396 . S
C1227 C1228 1.399 . S
C1228 H1214 0.929 . S
C1228 C1227 1.399 . S
C1228 C1229 1.385 . S
C1229 H1215 0.931 . S
C1229 C1228 1.385 . S
C1229 C1230 1.389 . S
C1230 C1229 1.389 . S
C1230 C1231 1.387 . S
C1231 H1216 0.930 . S
C1231 C1226 1.390 . S
C1231 C1230 1.387 . S
H1232 C1244 0.930 . S
H1233 C1246 0.930 . S
H1234 C1247 0.930 . S
H1235 C1251 0.959 . S
H1236 C1251 0.959 . S
H1237 C1251 0.961 . S
H1238 C1252 0.960 . S
H1239 C1252 0.961 . S
H1240 C1252 0.959 . S
H1241 C1255 0.929 . S
H1242 C1256 0.931 . S
H1243 C1258 0.930 . S
C1244 H1232 0.930 . S
C1244 C1245 1.399 . S
C1244 C1249 1.399 . S
C1245 C1244 1.399 . S
C1245 C1246 1.376 . S
C1246 H1233 0.930 . S
C1246 C1245 1.376 . S
C1246 C1247 1.388 . S
C1247 H1234 0.930 . S
C1247 C1246 1.388 . S
C1247 C1248 1.390 . S
C1248 C1247 1.390 . S
C1248 C1249 1.394 . S
C1248 C1254 1.465 . S
C1249 C1244 1.399 . S
C1249 C1248 1.394 . S
C1249 C1250 1.516 . S
C1250 C1249 1.516 . S
C1250 C1251 1.502 . S
C1250 C1252 1.561 . S
C1250 C1253 1.526 . S
C1251 H1235 0.959 . S
C1251 H1236 0.959 . S
C1251 H1237 0.961 . S
C1251 C1250 1.502 . S
C1252 H1238 0.960 . S
C1252 H1239 0.961 . S
C1252 H1240 0.959 . S
C1252 C1250 1.561 . S
C1253 C1250 1.526 . S
C1253 C1254 1.396 . S
C1253 C1258 1.390 . S
C1254 C1248 1.465 . S
C1254 C1253 1.396 . S
C1254 C1255 1.399 . S
C1255 H1241 0.929 . S
C1255 C1254 1.399 . S
C1255 C1256 1.385 . S
C1256 H1242 0.931 . S
C1256 C1255 1.385 . S
C1256 C1257 1.389 . S
C1257 C1256 1.389 . S
C1257 C1258 1.387 . S
C1258 H1243 0.930 . S
C1258 C1253 1.390 . S
C1258 C1257 1.387 . S
H1259 C1271 0.930 . S
H1260 C1273 0.930 . S
H1261 C1274 0.930 . S
H1262 C1278 0.959 . S
H1263 C1278 0.959 . S
H1264 C1278 0.961 . S
H1265 C1279 0.960 . S
H1266 C1279 0.961 . S
H1267 C1279 0.959 . S
H1268 C1282 0.929 . S
H1269 C1283 0.931 . S
H1270 C1285 0.930 . S
C1271 H1259 0.930 . S
C1271 C1272 1.399 . S
C1271 C1276 1.399 . S
C1272 C1271 1.399 . S
C1272 C1273 1.376 . S
C1273 H1260 0.930 . S
C1273 C1272 1.376 . S
C1273 C1274 1.388 . S
C1274 H1261 0.930 . S
C1274 C1273 1.388 . S
C1274 C1275 1.390 . S
C1275 C1274 1.390 . S
C1275 C1276 1.394 . S
C1275 C1281 1.465 . S
C1276 C1271 1.399 . S
C1276 C1275 1.394 . S
C1276 C1277 1.516 . S
C1277 C1276 1.516 . S
C1277 C1278 1.502 . S
C1277 C1279 1.561 . S
C1277 C1280 1.526 . S
C1278 H1262 0.959 . S
C1278 H1263 0.959 . S
C1278 H1264 0.961 . S
C1278 C1277 1.502 . S
C1279 H1265 0.960 . S
C1279 H1266 0.961 . S
C1279 H1267 0.959 . S
C1279 C1277 1.561 . S
C1280 C1277 1.526 . S
C1280 C1281 1.396 . S
C1280 C1285 1.390 . S
C1281 C1275 1.465 . S
C1281 C1280 1.396 . S
C1281 C1282 1.399 . S
C1282 H1268 0.929 . S
C1282 C1281 1.399 . S
C1282 C1283 1.385 . S
C1283 H1269 0.931 . S
C1283 C1282 1.385 . S
C1283 C1284 1.389 . S
C1284 C1283 1.389 . S
C1284 C1285 1.387 . S
C1285 H1270 0.930 . S
C1285 C1280 1.390 . S
C1285 C1284 1.387 . S
C663 C342 1.518 . S
C651 C15 1.536 . S
C690 C411 1.518 . S
C678 C55 1.534 . S
C717 C349 1.572 . S
C705 C101 1.552 . S
C744 C412 1.561 . S
C732 C141 1.570 . S
C771 C465 1.511 . S
C759 C2 1.513 . S
C798 C501 1.510 . S
C786 C61 1.515 . S
C813 C95 1.608 . S
C825 C561 1.592 . S
C852 C624 1.504 . S
C840 C135 1.508 . S
C879 C464 1.494 . S
C867 C42 1.499 . S
C894 C82 1.495 . S
C906 C508 1.524 . S
C933 C554 1.572 . S
C921 C122 1.585 . S
C960 C623 1.521 . S
C948 C21 1.485 . S
C975 C162 1.560 . S
C987 C402 1.580 . S
C1014 C359 1.558 . S
C1002 C221 1.541 . S
C1029 C255 1.539 . S
C1041 C395 1.545 . S
C1056 C282 1.487 . S
C1068 C358 1.515 . S
C1095 C570 1.581 . S
C1083 C181 1.602 . S
C1122 C614 1.514 . S
C1110 C202 1.511 . S
C1149 C448 1.507 . S
C1137 C242 1.485 . S
C1164 C301 1.522 . S
C1176 C517 1.519 . S
C1203 C571 1.566 . S
C1191 C215 1.594 . S
C1230 C607 1.508 . S
C1218 C261 1.505 . S
C1257 C455 1.499 . S
C1245 C295 1.504 . S
C1272 C175 1.522 . S
C1284 C518 1.508 . S
