# Generated by pormake.
# Topology nia, (6,6)-cn, num edge types: 1
# Building blocks:
#     Node 0, Type 0, BuildingBlock: BETFEN_clean_sbu_0, # of connection points: 6
#     Node 1, Type 0, BuildingBlock: BETFEN_clean_sbu_0, # of connection points: 6
#     Node 2, Type 1, BuildingBlock: MIDCAF_clean_sbu_0, # of connection points: 6
#     Node 3, Type 1, BuildingBlock: MIDCAF_clean_sbu_0, # of connection points: 6
#     Edge 4, Type (0, 1), BuildingBlock: MIFKUJ_clean_linker_0, # of connection points: 2
#     Edge 5, Type (0, 1), BuildingBlock: MIFKUJ_clean_linker_0, # of connection points: 2
#     Edge 6, Type (0, 1), BuildingBlock: MIFKUJ_clean_linker_0, # of connection points: 2
#     Edge 7, Type (0, 1), BuildingBlock: MIFKUJ_clean_linker_0, # of connection points: 2
#     Edge 8, Type (0, 1), BuildingBlock: MIFKUJ_clean_linker_0, # of connection points: 2
#     Edge 9, Type (0, 1), BuildingBlock: MIFKUJ_clean_linker_0, # of connection points: 2
#     Edge 10, Type (0, 1), BuildingBlock: MIFKUJ_clean_linker_0, # of connection points: 2
#     Edge 11, Type (0, 1), BuildingBlock: MIFKUJ_clean_linker_0, # of connection points: 2
#     Edge 12, Type (0, 1), BuildingBlock: MIFKUJ_clean_linker_0, # of connection points: 2
#     Edge 13, Type (0, 1), BuildingBlock: MIFKUJ_clean_linker_0, # of connection points: 2
#     Edge 14, Type (0, 1), BuildingBlock: MIFKUJ_clean_linker_0, # of connection points: 2
#     Edge 15, Type (0, 1), BuildingBlock: MIFKUJ_clean_linker_0, # of connection points: 2
# Relax obj value: 0.211
# Max RMSD: 0.270
# Mean RMSD: 0.214
data_MOF--net-nia--node1-BETFEN_clean_sbu_0--node2-MIDCAF_clean_sbu_0--edge1-MIFKUJ_clean_linker_0
_symmetry_space_group_name_H-M    P1
_symmetry_Int_Tables_number       1
_symmetry_cell_setting            triclinic
loop_
_symmetry_equiv_pos_as_xyz
'x, y, z'
_cell_length_a     35.048624
_cell_length_b     35.099048
_cell_length_c     42.271068
_cell_angle_alpha  90.82665
_cell_angle_beta   90.767726
_cell_angle_gamma 134.34664
loop_
_atom_site_label
_atom_site_type_symbol
_atom_site_fract_x
_atom_site_fract_y
_atom_site_fract_z
_atom_type_partial_charge
Pr0 Pr 0.9852 0.02844 0.99942 0.0
Pr1 Pr 0.04274 0.98613 0.02519 0.0
C2 C 0.92011 0.0425 0.98814 0.0
C3 C 0.90807 0.06365 0.96429 0.0
C4 C 0.94755 0.11656 0.95454 0.0
C5 C 0.93436 0.13709 0.93399 0.0
C6 C 0.88144 0.10519 0.92261 0.0
C7 C 0.84239 0.05176 0.9317 0.0
C8 C 0.85556 0.03135 0.95238 0.0
C9 C 0.08551 0.08411 0.9733 0.0
C10 C 0.0543 0.07304 0.06879 0.0
C11 C 0.10883 0.97307 0.03545 0.0
C12 C 0.12311 0.95364 0.0589 0.0
C13 C 0.13565 0.9716 0.09077 0.0
C14 C 0.14979 0.95275 0.11218 0.0
C15 C 0.1512 0.91535 0.10216 0.0
C16 C 0.13851 0.89753 0.07026 0.0
C17 C 0.12475 0.91656 0.0489 0.0
C18 C 0.94284 0.93089 0.05193 0.0
C19 C 0.97511 0.94256 0.9552 0.0
O20 O 0.96566 0.07717 1.00425 0.0
O21 O 0.9063 0.99758 0.981 0.0
O22 O 0.06108 0.04799 0.99305 0.0
O23 O 0.05779 0.09523 0.96687 0.0
O24 O 0.07662 0.0557 0.06098 0.0
O25 O 0.01513 0.06172 0.05178 0.0
O26 O 0.06208 0.93692 0.02079 0.0
O27 O 0.12239 0.01801 0.04204 0.0
O28 O 0.96651 0.96619 0.03161 0.0
O29 O 0.97159 0.92115 0.05896 0.0
O30 O 0.95419 0.96179 0.96167 0.0
O31 O 0.01184 0.95136 0.97343 0.0
H32 H 0.98847 0.14255 0.96328 0.0
H33 H 0.96541 0.17853 0.92788 0.0
H34 H 0.80143 0.02567 0.92301 0.0
H35 H 0.8244 0.99044 0.95951 0.0
H36 H 0.13454 1.00011 0.09915 0.0
H37 H 0.15902 0.96697 0.13664 0.0
H38 H 0.14006 0.86944 0.06163 0.0
H39 H 0.11559 0.90243 0.02441 0.0
Pr40 Pr 0.99188 0.04268 0.52767 0.0
Pr41 Pr 0.03008 0.98146 0.50145 0.0
C42 C 0.97733 0.10704 0.53975 0.0
C43 C 0.95228 0.1145 0.56364 0.0
C44 C 0.97358 0.13326 0.59475 0.0
C45 C 0.949 0.14004 0.61673 0.0
C46 C 0.90249 0.12787 0.60812 0.0
C47 C 0.88144 0.10926 0.577 0.0
C48 C 0.90616 0.10289 0.55502 0.0
C49 C 0.9328 0.94109 0.55306 0.0
C50 C 0.94925 0.97772 0.45731 0.0
C51 C 0.03981 0.91291 0.49061 0.0
C52 C 0.06304 0.90118 0.46854 0.0
C53 C 0.11518 0.94179 0.45785 0.0
C54 C 0.138 0.92923 0.43915 0.0
C55 C 0.10904 0.87588 0.43059 0.0
C56 C 0.05626 0.83553 0.44051 0.0
C57 C 0.0336 0.84809 0.45938 0.0
C58 C 0.08989 0.08335 0.47634 0.0
C59 C 0.07627 0.05001 0.57085 0.0
O60 O 0.94461 0.06388 0.52142 0.0
O61 O 0.02138 0.11967 0.54809 0.0
O62 O 0.96744 0.96413 0.53239 0.0
O63 O 0.92501 0.97117 0.56081 0.0
O64 O 0.96162 0.95111 0.46568 0.0
O65 O 0.96321 0.01808 0.47438 0.0
O66 O 0.07327 0.95605 0.50886 0.0
O67 O 0.99831 0.90356 0.48036 0.0
O68 O 0.05398 0.05969 0.49624 0.0
O69 O 0.09834 0.05361 0.46901 0.0
O70 O 0.06124 0.07452 0.56315 0.0
O71 O 0.06251 0.00966 0.55388 0.0
H72 H 0.00917 0.14268 0.60216 0.0
H73 H 0.96608 0.15435 0.64055 0.0
H74 H 0.84629 0.10053 0.5694 0.0
H75 H 0.88918 0.08894 0.53115 0.0
H76 H 0.13867 0.98315 0.4644 0.0
H77 H 0.17848 0.96127 0.43154 0.0
H78 H 0.03307 0.79404 0.4346 0.0
H79 H 0.99339 0.81615 0.46745 0.0
Zn80 Zn 0.34965 0.63058 0.2011 0.0
Zn81 Zn 0.40276 0.67446 0.32666 0.0
Zn82 Zn 0.37763 0.65204 0.26404 0.0
C83 C 0.49609 0.7226 0.29358 0.0
C84 C 0.329 0.56335 0.31808 0.0
O85 O 0.34178 0.68251 0.24973 0.0
O86 O 0.31696 0.65893 0.19908 0.0
C87 C 0.46179 0.69934 0.2073 0.0
O88 O 0.46428 0.70443 0.26936 0.0
O89 O 0.47912 0.7135 0.32133 0.0
O90 O 0.35211 0.5989 0.33986 0.0
O91 O 0.33513 0.57589 0.28876 0.0
O92 O 0.4247 0.67667 0.1865 0.0
O93 O 0.45135 0.69387 0.23697 0.0
O94 O 0.32348 0.56547 0.25596 0.0
O95 O 0.30148 0.55217 0.20476 0.0
C96 C 0.29755 0.53406 0.23143 0.0
O97 O 0.35093 0.68972 0.28302 0.0
O98 O 0.38202 0.71443 0.33264 0.0
C99 C 0.32063 0.68151 0.22408 0.0
C100 C 0.35687 0.71204 0.30969 0.0
Zn101 Zn 0.6813 0.39675 0.8262 0.0
Zn102 Zn 0.64691 0.35602 0.70157 0.0
Zn103 Zn 0.66085 0.37693 0.76437 0.0
C104 C 0.71058 0.4654 0.70956 0.0
C105 C 0.54658 0.29922 0.72914 0.0
O106 O 0.69966 0.35073 0.78221 0.0
O107 O 0.71117 0.36602 0.83411 0.0
C108 C 0.73624 0.49413 0.79684 0.0
O109 O 0.70387 0.45294 0.73895 0.0
O110 O 0.69004 0.43005 0.68794 0.0
O111 O 0.56776 0.30522 0.70332 0.0
O112 O 0.57522 0.32371 0.75476 0.0
O113 O 0.72908 0.4749 0.82364 0.0
O114 O 0.71438 0.46374 0.77168 0.0
O115 O 0.58262 0.33384 0.78792 0.0
O116 O 0.6074 0.35637 0.83849 0.0
C117 C 0.57108 0.33213 0.8171 0.0
O118 O 0.68735 0.33695 0.74991 0.0
O119 O 0.67826 0.32676 0.69764 0.0
C120 C 0.71579 0.34915 0.80936 0.0
C121 C 0.69168 0.32116 0.72363 0.0
H122 H 0.10413 0.81283 0.10782 0.0
H123 H 0.13397 0.78079 0.14078 0.0
H124 H 0.26235 0.93973 0.1804 0.0
H125 H 0.23325 0.9724 0.14678 0.0
H126 H 0.29837 0.8971 0.16121 0.0
H127 H 0.15932 0.84177 0.2266 0.0
H128 H 0.06911 0.80026 0.24009 0.0
H129 H 0.00356 0.64772 0.20672 0.0
H130 H 0.09327 0.68839 0.19262 0.0
H131 H 0.37185 0.78112 0.24673 0.0
H132 H 0.34488 0.82856 0.23808 0.0
H133 H 0.20119 0.68954 0.18867 0.0
H134 H 0.22823 0.64233 0.19712 0.0
H135 H 0.17977 0.73509 0.22509 0.0
H136 H 0.31697 0.79545 0.1508 0.0
H137 H 0.40719 0.83716 0.13699 0.0
H138 H 0.4758 0.98128 0.18732 0.0
H139 H 0.38594 0.94018 0.20165 0.0
C140 C 0.13857 0.84097 0.12365 0.0
C141 C 0.16651 0.89523 0.12452 0.0
C142 C 0.15526 0.82248 0.14278 0.0
C143 C 0.20012 0.85772 0.16336 0.0
C144 C 0.22746 0.91176 0.16484 0.0
C145 C 0.21062 0.9303 0.14574 0.0
C146 C 0.22062 0.8385 0.18113 0.0
C147 C 0.27281 0.86243 0.17582 0.0
C148 C 0.18723 0.79299 0.19999 0.0
C149 C 0.13308 0.76825 0.20839 0.0
C150 C 0.12564 0.79944 0.22192 0.0
C151 C 0.07458 0.77604 0.22972 0.0
C152 C 0.03062 0.72141 0.22422 0.0
C153 C 0.03765 0.69004 0.21097 0.0
C154 C 0.08862 0.71323 0.20312 0.0
C155 C 0.33402 0.76053 0.23463 0.0
C156 C 0.30181 0.70806 0.22278 0.0
C157 C 0.31864 0.78764 0.22968 0.0
C158 C 0.27094 0.76272 0.21276 0.0
C159 C 0.23796 0.70957 0.20196 0.0
C160 C 0.2535 0.68269 0.20666 0.0
C161 C 0.25658 0.79238 0.20401 0.0
C162 C 0.20562 0.77047 0.21107 0.0
C163 C 0.29104 0.83971 0.18671 0.0
C164 C 0.34488 0.86449 0.17773 0.0
C165 C 0.35134 0.8359 0.15911 0.0
C166 C 0.40239 0.85945 0.15114 0.0
C167 C 0.44722 0.91176 0.16139 0.0
C168 C 0.44106 0.94072 0.17948 0.0
C169 C 0.3901 0.91733 0.18751 0.0
H170 H 0.48672 0.92992 0.15522 0.0
H171 H 0.99113 0.70337 0.23028 0.0
H172 H 0.10887 0.12618 0.61567 0.0
H173 H 0.1745 0.1634 0.65916 0.0
H174 H 0.19034 0.05585 0.63272 0.0
H175 H 0.12381 0.01728 0.59035 0.0
H176 H 0.1995 0.0685 0.69371 0.0
H177 H 0.27479 0.1881 0.60513 0.0
H178 H 0.28043 0.24519 0.56778 0.0
H179 H 0.30209 0.33939 0.64562 0.0
H180 H 0.29599 0.28243 0.68342 0.0
H181 H 0.46878 0.20109 0.70177 0.0
H182 H 0.37527 0.15333 0.6923 0.0
H183 H 0.40264 0.27808 0.74364 0.0
H184 H 0.49595 0.32534 0.75371 0.0
H185 H 0.36224 0.26114 0.68544 0.0
H186 H 0.31895 0.15225 0.77072 0.0
H187 H 0.31551 0.09316 0.80429 0.0
H188 H 0.23958 0.97661 0.72791 0.0
H189 H 0.24248 0.03487 0.69386 0.0
C190 C 0.12586 0.11002 0.61939 0.0
C191 C 0.11182 0.06946 0.5991 0.0
C192 C 0.1634 0.13137 0.64426 0.0
C193 C 0.18824 0.11323 0.64882 0.0
C194 C 0.17192 0.07069 0.62969 0.0
C195 C 0.13403 0.04891 0.60521 0.0
C196 C 0.23465 0.14111 0.67121 0.0
C197 C 0.23522 0.11062 0.69197 0.0
C198 C 0.28057 0.19647 0.66973 0.0
C199 C 0.28423 0.23066 0.64706 0.0
C200 C 0.2804 0.22079 0.61425 0.0
C201 C 0.28372 0.25313 0.59301 0.0
C202 C 0.29141 0.29576 0.60432 0.0
C203 C 0.29598 0.30625 0.6369 0.0
C204 C 0.29259 0.27397 0.65824 0.0
C205 C 0.45416 0.21728 0.71188 0.0
C206 C 0.48899 0.26641 0.72867 0.0
C207 C 0.40075 0.1899 0.70666 0.0
C208 C 0.38155 0.21162 0.71779 0.0
C209 C 0.41611 0.25996 0.73551 0.0
C210 C 0.46941 0.287 0.74115 0.0
C211 C 0.32828 0.18788 0.7066 0.0
C212 C 0.32629 0.21929 0.688 0.0
C213 C 0.28166 0.13304 0.70945 0.0
C214 C 0.28073 0.0981 0.72974 0.0
C215 C 0.30155 0.11411 0.76104 0.0
C216 C 0.29973 0.08073 0.78017 0.0
C217 C 0.27738 0.03121 0.76824 0.0
C218 C 0.25678 0.01495 0.73716 0.0
C219 C 0.25833 0.0481 0.71797 0.0
H220 H 0.27603 0.00544 0.78308 0.0
H221 H 0.29399 0.32076 0.58785 0.0
H222 H 0.1431 0.11851 0.10569 0.0
H223 H 0.18106 0.18271 0.15 0.0
H224 H 0.05038 0.17105 0.14096 0.0
H225 H 0.01177 0.10642 0.09718 0.0
H226 H 0.21743 0.27757 0.14549 0.0
H227 H 0.02829 0.20195 0.20901 0.0
H228 H 0.94158 0.11704 0.22579 0.0
H229 H 0.00368 0.0464 0.22619 0.0
H230 H 0.09096 0.13101 0.20977 0.0
H231 H 0.19536 0.45317 0.21042 0.0
H232 H 0.14943 0.36032 0.20073 0.0
H233 H 0.28249 0.39386 0.24458 0.0
H234 H 0.32867 0.48707 0.25404 0.0
H235 H 0.12177 0.27006 0.23457 0.0
H236 H 0.31825 0.35739 0.188 0.0
H237 H 0.40438 0.44412 0.17185 0.0
H238 H 0.32415 0.48807 0.13725 0.0
H239 H 0.23771 0.40149 0.15287 0.0
C240 C 0.12193 0.1289 0.11347 0.0
C241 C 0.07475 0.10784 0.09756 0.0
C242 C 0.14369 0.16558 0.13884 0.0
C243 C 0.11847 0.18151 0.14898 0.0
C244 C 0.07018 0.15878 0.13399 0.0
C245 C 0.04845 0.12222 0.10863 0.0
C246 C 0.1456 0.22656 0.17228 0.0
C247 C 0.19699 0.27529 0.16556 0.0
C248 C 0.1188 0.22411 0.19823 0.0
C249 C 0.06622 0.17291 0.208 0.0
C250 C 0.02359 0.16843 0.21283 0.0
C251 C 0.97431 0.12032 0.22229 0.0
C252 C 0.96718 0.07641 0.22715 0.0
C253 C 0.00927 0.08046 0.22244 0.0
C254 C 0.05862 0.12845 0.21296 0.0
C255 C 0.21375 0.44007 0.21908 0.0
C256 C 0.26514 0.47674 0.23324 0.0
C257 C 0.18742 0.38706 0.21373 0.0
C258 C 0.21263 0.37036 0.22192 0.0
C259 C 0.26223 0.40597 0.23838 0.0
C260 C 0.28841 0.45901 0.24395 0.0
C261 C 0.19247 0.32044 0.20714 0.0
C262 C 0.14256 0.27135 0.21522 0.0
C263 C 0.22037 0.32222 0.18241 0.0
C264 C 0.27181 0.37334 0.17182 0.0
C265 C 0.3191 0.38552 0.17678 0.0
C266 C 0.36791 0.43463 0.16776 0.0
C267 C 0.36973 0.47162 0.15362 0.0
C268 C 0.32272 0.45946 0.14828 0.0
C269 C 0.27385 0.41042 0.1572 0.0
H270 H 0.4075 0.50967 0.14677 0.0
H271 H 0.92897 0.03918 0.23441 0.0
H272 H 0.95023 0.21314 0.649 0.0
H273 H 0.90649 0.23142 0.68094 0.0
H274 H 0.75247 0.07938 0.65056 0.0
H275 H 0.79595 0.06105 0.61853 0.0
H276 H 0.75759 0.15521 0.63903 0.0
H277 H 0.79912 0.10744 0.72683 0.0
H278 H 0.85525 0.10761 0.76259 0.0
H279 H 0.94705 0.27048 0.79066 0.0
H280 H 0.89283 0.27208 0.75425 0.0
H281 H 0.66228 0.23875 0.75793 0.0
H282 H 0.69221 0.19325 0.7501 0.0
H283 H 0.79942 0.30541 0.67902 0.0
H284 H 0.76976 0.35038 0.68669 0.0
H285 H 0.79905 0.22897 0.74902 0.0
H286 H 0.76979 0.23142 0.61448 0.0
H287 H 0.71358 0.23069 0.57816 0.0
H288 H 0.59041 0.14907 0.64636 0.0
H289 H 0.64551 0.14854 0.68286 0.0
C290 C 0.90708 0.18306 0.64975 0.0
C291 C 0.87652 0.13593 0.63092 0.0
C292 C 0.88209 0.19349 0.66811 0.0
C293 C 0.82612 0.15674 0.66823 0.0
C294 C 0.79567 0.10842 0.65078 0.0
C295 C 0.82057 0.09812 0.63234 0.0
C296 C 0.79954 0.17164 0.68293 0.0
C297 C 0.76629 0.17063 0.66323 0.0
C298 C 0.81008 0.1911 0.71473 0.0
C299 C 0.84229 0.1901 0.73727 0.0
C300 C 0.83177 0.14361 0.74023 0.0
C301 C 0.86336 0.14341 0.7606 0.0
C302 C 0.90501 0.18916 0.77865 0.0
C303 C 0.91498 0.23515 0.7765 0.0
C304 C 0.88386 0.23574 0.75593 0.0
C305 C 0.69304 0.2541 0.74118 0.0
C306 C 0.71395 0.29795 0.7229 0.0
C307 C 0.7101 0.22827 0.73678 0.0
C308 C 0.74768 0.24585 0.71382 0.0
C309 C 0.77026 0.29119 0.69677 0.0
C310 C 0.75323 0.31672 0.70108 0.0
C311 C 0.75954 0.21428 0.70455 0.0
C312 C 0.78987 0.21236 0.72511 0.0
C313 C 0.74597 0.19138 0.67365 0.0
C314 C 0.71195 0.19025 0.65147 0.0
C315 C 0.73056 0.21299 0.62163 0.0
C316 C 0.69892 0.21286 0.60103 0.0
C317 C 0.6485 0.18995 0.60997 0.0
C318 C 0.62953 0.16693 0.63949 0.0
C319 C 0.66097 0.16688 0.66016 0.0
H320 H 0.62411 0.18998 0.59402 0.0
H321 H 0.92934 0.18885 0.79444 0.0
H322 H 0.88496 0.95653 0.04548 0.0
H323 H 0.80664 0.92125 0.07523 0.0
H324 H 0.81396 0.82074 0.12617 0.0
H325 H 0.8914 0.85522 0.09627 0.0
H326 H 0.71431 0.76621 0.10996 0.0
H327 H 0.85827 0.93396 0.15914 0.0
H328 H 0.93789 0.03073 0.16138 0.0
H329 H 0.84292 0.05936 0.13017 0.0
H330 H 0.76298 0.96251 0.12638 0.0
H331 H 0.53525 0.69922 0.22984 0.0
H332 H 0.62207 0.74439 0.20756 0.0
H333 H 0.5986 0.81605 0.13839 0.0
H334 H 0.5115 0.77023 0.16023 0.0
H335 H 0.70908 0.8866 0.16762 0.0
H336 H 0.56528 0.71113 0.11607 0.0
H337 H 0.4899 0.61338 0.11676 0.0
H338 H 0.5919 0.60052 0.16006 0.0
H339 H 0.66766 0.69827 0.16001 0.0
C340 C 0.86953 0.92664 0.06287 0.0
C341 C 0.89419 0.90855 0.06853 0.0
C342 C 0.82501 0.90674 0.08002 0.0
C343 C 0.80458 0.86863 0.10324 0.0
C344 C 0.82881 0.85001 0.10843 0.0
C345 C 0.87318 0.86986 0.09135 0.0
C346 C 0.75802 0.84801 0.12217 0.0
C347 C 0.71357 0.79267 0.12278 0.0
C348 C 0.7569 0.88235 0.13918 0.0
C349 C 0.80462 0.94078 0.1421 0.0
C350 C 0.85437 0.9608 0.15243 0.0
C351 C 0.8996 0.0157 0.15399 0.0
C352 C 0.89547 0.05119 0.146 0.0
C353 C 0.84607 0.0318 0.13634 0.0
C354 C 0.80078 0.97686 0.13437 0.0
C355 C 0.54932 0.72567 0.21041 0.0
C356 C 0.51692 0.73154 0.19685 0.0
C357 C 0.5988 0.75132 0.19762 0.0
C358 C 0.61687 0.78371 0.17131 0.0
C359 C 0.58562 0.79155 0.15877 0.0
C360 C 0.53581 0.76516 0.17115 0.0
C361 C 0.66547 0.80512 0.15479 0.0
C362 C 0.71019 0.86047 0.15472 0.0
C363 C 0.66747 0.77084 0.13885 0.0
C364 C 0.62195 0.71206 0.13847 0.0
C365 C 0.57149 0.6875 0.12603 0.0
C366 C 0.52872 0.63208 0.12624 0.0
C367 C 0.53607 0.60078 0.13854 0.0
C368 C 0.58622 0.62482 0.15061 0.0
C369 C 0.62907 0.68021 0.15051 0.0
H370 H 0.50301 0.55788 0.13861 0.0
H371 H 0.93055 0.0937 0.14732 0.0
H372 H 0.86265 0.89436 0.60052 0.0
H373 H 0.82975 0.81831 0.63116 0.0
H374 H 0.9199 0.8026 0.5745 0.0
H375 H 0.95391 0.87976 0.54414 0.0
H376 H 0.77079 0.71755 0.61669 0.0
H377 H 0.96196 0.75719 0.61968 0.0
H378 H 0.05954 0.834 0.61817 0.0
H379 H 0.04466 0.93679 0.65678 0.0
H380 H 0.94717 0.86047 0.65909 0.0
H381 H 0.78481 0.5191 0.66461 0.0
H382 H 0.82792 0.60524 0.64299 0.0
H383 H 0.74822 0.62146 0.71018 0.0
H384 H 0.70501 0.535 0.73204 0.0
H385 H 0.89393 0.70974 0.66686 0.0
H386 H 0.70673 0.67283 0.66888 0.0
H387 H 0.60895 0.59789 0.67141 0.0
H388 H 0.61675 0.49397 0.62493 0.0
H389 H 0.71445 0.5684 0.62184 0.0
C390 C 0.87537 0.8746 0.59453 0.0
C391 C 0.9109 0.89299 0.56998 0.0
C392 C 0.85645 0.83105 0.61205 0.0
C393 C 0.87274 0.80495 0.60548 0.0
C394 C 0.90743 0.82259 0.58044 0.0
C395 C 0.92655 0.8664 0.56293 0.0
C396 C 0.85313 0.75925 0.62483 0.0
C397 C 0.79787 0.71635 0.62804 0.0
C398 C 0.88827 0.75726 0.63955 0.0
C399 C 0.94713 0.80311 0.63923 0.0
C400 C 0.97954 0.7961 0.62804 0.0
C401 C 0.03484 0.83958 0.62703 0.0
C402 C 0.05826 0.89027 0.63727 0.0
C403 C 0.02646 0.89753 0.64876 0.0
C404 C 0.97117 0.85417 0.64992 0.0
C405 C 0.77732 0.54159 0.67516 0.0
C406 C 0.74191 0.52067 0.7001 0.0
C407 C 0.80213 0.59088 0.66288 0.0
C408 C 0.79117 0.61978 0.67483 0.0
C409 C 0.75719 0.59983 0.70056 0.0
C410 C 0.7327 0.5506 0.7131 0.0
C411 C 0.81171 0.66814 0.65843 0.0
C412 C 0.86707 0.71141 0.65573 0.0
C413 C 0.77675 0.67086 0.64446 0.0
C414 C 0.71793 0.62601 0.64554 0.0
C415 C 0.68751 0.634 0.65912 0.0
C416 C 0.63213 0.59162 0.66067 0.0
C417 C 0.60667 0.54115 0.64844 0.0
C418 C 0.63653 0.53302 0.63452 0.0
C419 C 0.69192 0.57527 0.63291 0.0
H420 H 0.5638 0.50838 0.64969 0.0
H421 H 0.10104 0.92391 0.63636 0.0
H422 H 0.06644 0.80381 0.38083 0.0
H423 H 0.10739 0.7785 0.3533 0.0
H424 H 0.24962 0.89071 0.41279 0.0
H425 H 0.20922 0.91657 0.44003 0.0
H426 H 0.27627 0.8951 0.35413 0.0
H427 H 0.15302 0.75415 0.42597 0.0
H428 H 0.06513 0.68299 0.44916 0.0
H429 H 1.00069 0.59978 0.35881 0.0
H430 H 0.0881 0.67085 0.335 0.0
H431 H 0.39646 0.79749 0.34685 0.0
H432 H 0.35378 0.82819 0.35963 0.0
H433 H 0.22052 0.70601 0.29665 0.0
H434 H 0.26208 0.67326 0.28524 0.0
H435 H 0.18538 0.70608 0.35025 0.0
H436 H 0.31151 0.84736 0.27913 0.0
H437 H 0.40067 0.9196 0.25716 0.0
H438 H 0.46027 0.00216 0.34767 0.0
H439 H 0.37184 0.93042 0.37018 0.0
C440 C 0.10645 0.82305 0.38802 0.0
C441 C 0.13453 0.86211 0.41268 0.0
C442 C 0.1298 0.80853 0.37228 0.0
C443 C 0.18139 0.83216 0.38123 0.0
C444 C 0.20986 0.87196 0.40538 0.0
C445 C 0.18673 0.8868 0.42092 0.0
C446 C 0.20559 0.81493 0.36603 0.0
C447 C 0.25649 0.85378 0.35346 0.0
C448 C 0.17938 0.76087 0.36435 0.0
C449 C 0.1269 0.71808 0.37864 0.0
C450 C 0.11999 0.72087 0.41101 0.0
C451 C 0.07029 0.68053 0.42427 0.0
C452 C 0.02731 0.63697 0.40545 0.0
C453 C 0.03399 0.63359 0.37335 0.0
C454 C 0.0836 0.67387 0.35996 0.0
C455 C 0.35835 0.77758 0.33542 0.0
C456 C 0.33311 0.73366 0.31452 0.0
C457 C 0.33418 0.79556 0.34247 0.0
C458 C 0.28431 0.77027 0.32861 0.0
C459 C 0.25922 0.7266 0.30744 0.0
C460 C 0.28322 0.70824 0.30064 0.0
C461 C 0.25648 0.78636 0.33866 0.0
C462 C 0.20486 0.74728 0.35038 0.0
C463 C 0.28215 0.84026 0.33974 0.0
C464 C 0.33536 0.88327 0.32635 0.0
C465 C 0.34389 0.88069 0.29435 0.0
C466 C 0.39414 0.92157 0.2818 0.0
C467 C 0.43606 0.96522 0.30102 0.0
C468 C 0.42779 0.96827 0.33281 0.0
C469 C 0.37761 0.9276 0.34546 0.0
H470 H 0.47492 0.99677 0.29124 0.0
H471 H 0.98887 0.60577 0.41576 0.0
H472 H 0.13085 0.04476 0.97013 0.0
H473 H 0.20786 0.07915 0.93932 0.0
H474 H 0.22739 0.20895 0.90947 0.0
H475 H 0.14916 0.17316 0.93886 0.0
H476 H 0.24117 0.17552 0.86167 0.0
H477 H 0.30855 0.2207 0.97016 0.0
H478 H 0.309 0.20071 0.02581 0.0
H479 H 0.32768 0.09715 0.99605 0.0
H480 H 0.32674 0.1161 0.94018 0.0
H481 H 0.54642 0.36394 0.86404 0.0
H482 H 0.45944 0.31639 0.88578 0.0
H483 H 0.38471 0.19045 0.81512 0.0
H484 H 0.47288 0.23735 0.79371 0.0
H485 H 0.39444 0.21288 0.91016 0.0
H486 H 0.24952 0.14863 0.80472 0.0
H487 H 0.24761 0.18032 0.75358 0.0
H488 H 0.38958 0.34108 0.78194 0.0
H489 H 0.39238 0.31041 0.83319 0.0
C490 C 0.15192 0.08081 0.95712 0.0
C491 C 0.13433 0.10655 0.95701 0.0
C492 C 0.19598 0.10052 0.93953 0.0
C493 C 0.22405 0.14709 0.92216 0.0
C494 C 0.20648 0.17286 0.92241 0.0
C495 C 0.16197 0.15264 0.93945 0.0
C496 C 0.27182 0.16961 0.90379 0.0
C497 C 0.27448 0.18317 0.8722 0.0
C498 C 0.31564 0.18015 0.91746 0.0
C499 C 0.31702 0.16938 0.95102 0.0
C500 C 0.31248 0.19347 0.9755 0.0
C501 C 0.31285 0.18234 1.00707 0.0
C502 C 0.31819 0.14756 0.01446 0.0
C503 C 0.32344 0.12401 0.99029 0.0
C504 C 0.32304 0.13496 0.95868 0.0
C505 C 0.51149 0.32631 0.85282 0.0
C506 C 0.51657 0.3047 0.82687 0.0
C507 C 0.46173 0.29923 0.86528 0.0
C508 C 0.41545 0.24992 0.85204 0.0
C509 C 0.41981 0.22877 0.82542 0.0
C510 C 0.47012 0.25578 0.81305 0.0
C511 C 0.36406 0.21951 0.8682 0.0
C512 C 0.36066 0.20415 0.89938 0.0
C513 C 0.32018 0.20867 0.85438 0.0
C514 C 0.3218 0.22698 0.82257 0.0
C515 C 0.28062 0.1907 0.79993 0.0
C516 C 0.27923 0.2085 0.77097 0.0
C517 C 0.31835 0.26269 0.76456 0.0
C518 C 0.35933 0.29909 0.78694 0.0
C519 C 0.36117 0.28142 0.81582 0.0
H520 H 0.3171 0.27645 0.74219 0.0
H521 H 0.3184 0.13894 0.03891 0.0
H522 H 0.17282 0.14026 0.43658 0.0
H523 H 0.20967 0.21931 0.40767 0.0
H524 H 0.09603 0.21603 0.4498 0.0
H525 H 0.05918 0.13685 0.47908 0.0
H526 H 0.10444 0.23238 0.3844 0.0
H527 H 0.21943 0.30575 0.47632 0.0
H528 H 0.27847 0.31575 0.51589 0.0
H529 H 0.38725 0.36121 0.44335 0.0
H530 H 0.32837 0.35061 0.40321 0.0
H531 H 0.23646 0.50005 0.34949 0.0
H532 H 0.19152 0.4145 0.37325 0.0
H533 H 0.30712 0.41871 0.33351 0.0
H534 H 0.35232 0.50465 0.31008 0.0
H535 H 0.29604 0.40048 0.397 0.0
H536 H 0.18059 0.33299 0.30528 0.0
H537 H 0.12091 0.3258 0.26809 0.0
H538 H 0.01091 0.27003 0.34197 0.0
H539 H 0.07079 0.27889 0.38006 0.0
C540 C 0.15591 0.15658 0.43985 0.0
C541 C 0.11339 0.13264 0.46023 0.0
C542 C 0.17697 0.20174 0.4233 0.0
C543 C 0.15577 0.22378 0.42662 0.0
C544 C 0.11299 0.1997 0.44684 0.0
C545 C 0.09223 0.15474 0.4637 0.0
C546 C 0.17882 0.27218 0.40911 0.0
C547 C 0.14616 0.2694 0.38741 0.0
C548 C 0.23349 0.32015 0.41262 0.0
C549 C 0.26918 0.32682 0.43669 0.0
C550 C 0.2557 0.31741 0.46874 0.0
C551 C 0.28917 0.32327 0.49129 0.0
C552 C 0.33651 0.33896 0.48212 0.0
C553 C 0.35052 0.34896 0.4504 0.0
C554 C 0.31713 0.34306 0.42774 0.0
C555 C 0.25124 0.48182 0.34516 0.0
C556 C 0.29678 0.5079 0.32722 0.0
C557 C 0.22569 0.43307 0.35878 0.0
C558 C 0.24567 0.40986 0.35501 0.0
C559 C 0.29076 0.43561 0.33659 0.0
C560 C 0.31611 0.48425 0.32283 0.0
C561 C 0.22177 0.36081 0.37208 0.0
C562 C 0.25434 0.36348 0.39381 0.0
C563 C 0.16689 0.31299 0.36876 0.0
C564 C 0.13056 0.30712 0.34569 0.0
C565 C 0.14398 0.31972 0.31375 0.0
C566 C 0.11007 0.31528 0.29247 0.0
C567 C 0.06215 0.29733 0.30261 0.0
C568 C 0.04807 0.28394 0.33413 0.0
C569 C 0.08205 0.2888 0.35562 0.0
H570 H 0.03592 0.29379 0.28605 0.0
H571 H 0.36238 0.34349 0.49962 0.0
H572 H 0.79104 0.0858 0.92485 0.0
H573 H 0.76796 0.12551 0.89388 0.0
H574 H 0.9159 0.21878 0.84517 0.0
H575 H 0.93877 0.178 0.87555 0.0
H576 H 0.90227 0.27916 0.85915 0.0
H577 H 0.79137 0.11107 0.80829 0.0
H578 H 0.72671 0.01348 0.80081 0.0
H579 H 0.60511 0.99763 0.84213 0.0
H580 H 0.66924 0.09517 0.85008 0.0
H581 H 0.79573 0.37007 0.77684 0.0
H582 H 0.8291 0.32777 0.78369 0.0
H583 H 0.71478 0.23036 0.85621 0.0
H584 H 0.68166 0.27218 0.84932 0.0
H585 H 0.71976 0.1727 0.81385 0.0
H586 H 0.8448 0.34407 0.87486 0.0
H587 H 0.91163 0.44237 0.8784 0.0
H588 H 0.00808 0.44998 0.81177 0.0
H589 H 0.94144 0.35165 0.80761 0.0
C590 C 0.81817 0.11369 0.90698 0.0
C591 C 0.86658 0.12813 0.90257 0.0
C592 C 0.80487 0.13649 0.8892 0.0
C593 C 0.83938 0.17412 0.86635 0.0
C594 C 0.88801 0.18908 0.86209 0.0
C595 C 0.90128 0.16605 0.87977 0.0
C596 C 0.82561 0.19973 0.84848 0.0
C597 C 0.86266 0.25565 0.84866 0.0
C598 C 0.77423 0.1695 0.83425 0.0
C599 C 0.73531 0.11061 0.82977 0.0
C600 C 0.75093 0.08681 0.81584 0.0
C601 C 0.71433 0.03146 0.81152 0.0
C602 C 0.66181 0.99935 0.821 0.0
C603 C 0.6458 0.02256 0.83477 0.0
C604 C 0.68227 0.07793 0.83911 0.0
C605 C 0.77775 0.33938 0.79405 0.0
C606 C 0.73596 0.32393 0.81243 0.0
C607 C 0.79685 0.31542 0.79802 0.0
C608 C 0.77437 0.27585 0.82047 0.0
C609 C 0.73242 0.26042 0.83858 0.0
C610 C 0.71375 0.28454 0.8348 0.0
C611 C 0.79516 0.25142 0.82662 0.0
C612 C 0.75958 0.19578 0.82386 0.0
C613 C 0.84803 0.28181 0.83796 0.0
C614 C 0.88799 0.3407 0.84068 0.0
C615 C 0.88011 0.36676 0.86083 0.0
C616 C 0.91796 0.42244 0.86297 0.0
C617 C 0.964 0.4524 0.84525 0.0
C618 C 0.97236 0.42673 0.82543 0.0
C619 C 0.9346 0.37106 0.82318 0.0
H620 H 0.99325 0.4955 0.84694 0.0
H621 H 0.63352 0.95648 0.81766 0.0
H622 H 0.94969 0.04022 0.4195 0.0
H623 H 0.89171 0.01196 0.37311 0.0
H624 H 0.81889 0.85059 0.38256 0.0
H625 H 0.87852 0.87921 0.42804 0.0
H626 H 0.82307 0.86993 0.32212 0.0
H627 H 0.76715 0.89843 0.41703 0.0
H628 H 0.78007 0.9525 0.46198 0.0
H629 H 0.81001 0.06388 0.39758 0.0
H630 H 0.79788 0.01071 0.35226 0.0
H631 H 0.547 0.69434 0.31189 0.0
H632 H 0.64339 0.75243 0.31746 0.0
H633 H 0.66911 0.87921 0.27426 0.0
H634 H 0.57187 0.81997 0.26778 0.0
H635 H 0.70527 0.89961 0.33715 0.0
H636 H 0.73863 0.85489 0.24159 0.0
H637 H 0.72613 0.79896 0.1982 0.0
H638 H 0.73131 0.71176 0.26508 0.0
H639 H 0.74514 0.76793 0.30888 0.0
C640 C 0.9217 0.99883 0.41142 0.0
C641 C 0.91783 0.96163 0.42766 0.0
C642 C 0.88868 0.98277 0.38489 0.0
C643 C 0.8501 0.92893 0.37476 0.0
C644 C 0.84828 0.89234 0.38994 0.0
C645 C 0.88214 0.90863 0.41605 0.0
C646 C 0.80802 0.90934 0.3507 0.0
C647 C 0.79737 0.87651 0.3253 0.0
C648 C 0.77552 0.91939 0.35416 0.0
C649 C 0.78231 0.95104 0.38134 0.0
C650 C 0.77679 0.93462 0.4125 0.0
C651 C 0.78395 0.96508 0.43802 0.0
C652 C 0.79604 0.0117 0.43264 0.0
C653 C 0.80079 0.02784 0.40171 0.0
C654 C 0.79378 0.99758 0.3761 0.0
C655 C 0.57337 0.73394 0.30247 0.0
C656 C 0.55264 0.75316 0.28967 0.0
C657 C 0.62838 0.76696 0.30537 0.0
C658 C 0.66346 0.82012 0.29618 0.0
C659 C 0.64269 0.83817 0.28119 0.0
C660 C 0.58738 0.80455 0.27764 0.0
C661 C 0.71888 0.8583 0.30935 0.0
C662 C 0.7321 0.89461 0.33304 0.0
C663 C 0.75306 0.85075 0.30458 0.0
C664 C 0.74275 0.81552 0.27852 0.0
C665 C 0.73674 0.82355 0.24708 0.0
C666 C 0.72965 0.79196 0.22239 0.0
C667 C 0.72753 0.75162 0.22888 0.0
C668 C 0.7329 0.743 0.26008 0.0
C669 C 0.74078 0.77496 0.28483 0.0
H670 H 0.72202 0.7272 0.20975 0.0
H671 H 0.80159 0.03524 0.45244 0.0
H672 H 0.97328 0.86488 0.94592 0.0
H673 H 0.94427 0.80922 0.89881 0.0
H674 H 0.90948 0.89026 0.85074 0.0
H675 H 0.93622 0.94478 0.89907 0.0
H676 H 0.83526 0.79393 0.83633 0.0
H677 H 0.01696 0.90415 0.82769 0.0
H678 H 0.11141 0.9598 0.84332 0.0
H679 H 0.07525 0.82079 0.87182 0.0
H680 H 0.98046 0.76432 0.85688 0.0
H681 H 0.8173 0.57278 0.75852 0.0
H682 H 0.86606 0.66797 0.76166 0.0
H683 H 0.76565 0.63506 0.83727 0.0
H684 H 0.7172 0.54147 0.83366 0.0
H685 H 0.92538 0.73555 0.80874 0.0
H686 H 0.74371 0.70795 0.84189 0.0
H687 H 0.65373 0.65874 0.8197 0.0
H688 H 0.69867 0.64608 0.72918 0.0
H689 H 0.78936 0.69615 0.75057 0.0
C690 C 0.95981 0.8712 0.92528 0.0
C691 C 0.95713 0.90926 0.92615 0.0
C692 C 0.94383 0.83974 0.89809 0.0
C693 C 0.92631 0.84656 0.87065 0.0
C694 C 0.92342 0.88457 0.87143 0.0
C695 C 0.93845 0.91552 0.89906 0.0
C696 C 0.90664 0.81008 0.84264 0.0
C697 C 0.85538 0.78181 0.82985 0.0
C698 C 0.93419 0.79639 0.83221 0.0
C699 C 0.99141 0.8299 0.84103 0.0
C700 C 0.02906 0.8854 0.83738 0.0
C701 C 0.0827 0.91713 0.84614 0.0
C702 C 0.09932 0.89384 0.85852 0.0
C703 C 0.06234 0.83876 0.86213 0.0
C704 C 0.00863 0.80683 0.85342 0.0
C705 C 0.80525 0.58618 0.77521 0.0
C706 C 0.76363 0.55022 0.79582 0.0
C707 C 0.83298 0.64032 0.77702 0.0
C708 C 0.81892 0.65865 0.79929 0.0
C709 C 0.7764 0.62199 0.81922 0.0
C710 C 0.74914 0.56852 0.81749 0.0
C711 C 0.8521 0.71629 0.80566 0.0
C712 C 0.90614 0.74898 0.81418 0.0
C713 C 0.82804 0.73544 0.81087 0.0
C714 C 0.77353 0.70592 0.79789 0.0
C715 C 0.73471 0.69523 0.81716 0.0
C716 C 0.68347 0.66702 0.80472 0.0
C717 C 0.67051 0.6493 0.77304 0.0
C718 C 0.70877 0.65978 0.7537 0.0
C719 C 0.76007 0.688 0.76599 0.0
H720 H 0.63081 0.62743 0.76347 0.0
H721 H 0.14086 0.91847 0.86532 0.0
loop_
_geom_bond_atom_site_label_1
_geom_bond_atom_site_label_2
_geom_bond_distance
_geom_bond_site_symmetry_2
_ccdc_geom_bond_type
Pr0 C2 2.880 . S
Pr0 O20 2.562 . S
Pr0 O21 2.490 . S
Pr0 O22 2.695 1_655 S
Pr0 O23 2.512 1_655 S
Pr0 O25 2.438 1_655 S
Pr0 O28 2.436 1_546 S
Pr0 O30 2.438 1_545 S
Pr1 C11 2.880 . S
Pr1 O22 2.436 1_564 S
Pr1 O24 2.438 1_565 S
Pr1 O26 2.562 . S
Pr1 O27 2.490 . S
Pr1 O28 2.695 1_455 S
Pr1 O29 2.512 1_455 S
Pr1 O31 2.437 1_455 S
C2 Pr0 2.880 . S
C2 C3 1.491 . S
C2 O20 1.254 . S
C2 O21 1.225 . S
C3 C2 1.491 . S
C3 C4 1.392 . S
C3 C8 1.356 . S
C4 C3 1.392 . S
C4 C5 1.368 . S
C4 H32 0.929 . S
C5 C4 1.368 . S
C5 C6 1.386 . S
C5 H33 0.929 . S
C6 C5 1.386 . S
C6 C7 1.373 . S
C7 C6 1.373 . S
C7 C8 1.409 . S
C7 H34 0.931 . S
C8 C3 1.356 . S
C8 C7 1.409 . S
C8 H35 0.930 . S
C9 O22 1.270 . S
C9 O23 1.248 . S
C10 O24 1.267 . S
C10 O25 1.276 1_554 S
C11 Pr1 2.880 . S
C11 C12 1.491 . S
C11 O26 1.254 . S
C11 O27 1.225 . S
C12 C11 1.491 . S
C12 C13 1.392 . S
C12 C17 1.356 . S
C13 C12 1.392 . S
C13 C14 1.368 . S
C13 H36 0.929 . S
C14 C13 1.368 . S
C14 C15 1.386 . S
C14 H37 0.929 . S
C15 C14 1.386 . S
C15 C16 1.373 . S
C16 C15 1.373 . S
C16 C17 1.409 . S
C16 H38 0.931 . S
C17 C12 1.356 . S
C17 C16 1.409 . S
C17 H39 0.930 . S
C18 O28 1.270 . S
C18 O29 1.248 . S
C19 O30 1.267 . S
C19 O31 1.278 1_556 S
O20 Pr0 2.562 . S
O20 C2 1.254 . S
O21 Pr0 2.490 . S
O21 C2 1.225 . S
O22 Pr0 2.695 1_455 S
O22 Pr1 2.436 1_546 S
O22 C9 1.270 . S
O23 Pr0 2.512 1_455 S
O23 C9 1.248 . S
O24 Pr1 2.438 1_545 S
O24 C10 1.267 . S
O25 Pr0 2.438 1_455 S
O25 C10 1.276 1_556 S
O26 Pr1 2.562 . S
O26 C11 1.254 . S
O27 Pr1 2.490 . S
O27 C11 1.225 . S
O28 Pr0 2.436 1_564 S
O28 Pr1 2.695 1_655 S
O28 C18 1.270 . S
O29 Pr1 2.512 1_655 S
O29 C18 1.248 . S
O30 Pr0 2.438 1_565 S
O30 C19 1.267 . S
O31 Pr1 2.437 1_655 S
O31 C19 1.278 1_554 S
H32 C4 0.929 . S
H33 C5 0.929 . S
H34 C7 0.931 . S
H35 C8 0.930 . S
H36 C13 0.929 . S
H37 C14 0.929 . S
H38 C16 0.931 . S
H39 C17 0.930 . S
Pr40 C42 2.880 1_455 S
Pr40 O60 2.562 1_455 S
Pr40 O61 2.490 1_455 S
Pr40 O62 2.695 1_545 S
Pr40 O63 2.512 1_445 S
Pr40 O65 2.437 1_445 S
Pr40 O68 2.436 . S
Pr40 O70 2.438 . S
Pr41 C51 2.880 . S
Pr41 O62 2.436 . S
Pr41 O64 2.438 1_455 S
Pr41 O66 2.562 . S
Pr41 O67 2.490 . S
Pr41 O68 2.695 1_565 S
Pr41 O69 2.512 1_565 S
Pr41 O71 2.437 1_565 S
C42 Pr40 2.880 1_655 S
C42 C43 1.491 . S
C42 O60 1.254 . S
C42 O61 1.225 . S
C43 C42 1.491 . S
C43 C44 1.392 . S
C43 C48 1.356 . S
C44 C43 1.392 . S
C44 C45 1.368 . S
C44 H72 0.929 . S
C45 C44 1.368 . S
C45 C46 1.386 . S
C45 H73 0.929 . S
C46 C45 1.386 . S
C46 C47 1.373 . S
C47 C46 1.373 . S
C47 C48 1.409 . S
C47 H74 0.931 . S
C48 C43 1.356 . S
C48 C47 1.409 . S
C48 H75 0.930 . S
C49 O62 1.270 1_655 S
C49 O63 1.248 . S
C50 O64 1.267 . S
C50 O65 1.278 . S
C51 Pr41 2.880 . S
C51 C52 1.491 . S
C51 O66 1.254 . S
C51 O67 1.225 . S
C52 C51 1.491 . S
C52 C53 1.392 . S
C52 C57 1.356 . S
C53 C52 1.392 . S
C53 C54 1.368 . S
C53 H76 0.937 . S
C54 C53 1.368 . S
C54 C55 1.386 . S
C54 H77 0.929 . S
C55 C54 1.386 . S
C55 C56 1.373 . S
C56 C55 1.373 . S
C56 C57 1.409 . S
C56 H78 0.931 . S
C57 C52 1.356 . S
C57 C56 1.409 . S
C57 H79 0.930 . S
C58 O68 1.270 . S
C58 O69 1.248 . S
C59 O70 1.267 . S
C59 O71 1.278 . S
O60 Pr40 2.562 1_655 S
O60 C42 1.254 . S
O61 Pr40 2.490 1_655 S
O61 C42 1.225 . S
O62 Pr40 2.695 1_565 S
O62 Pr41 2.436 . S
O62 C49 1.270 1_455 S
O63 Pr40 2.512 1_665 S
O63 C49 1.248 . S
O64 Pr41 2.438 1_655 S
O64 C50 1.267 . S
O65 Pr40 2.437 1_665 S
O65 C50 1.278 . S
O66 Pr41 2.562 . S
O66 C51 1.254 . S
O67 Pr41 2.490 . S
O67 C51 1.225 . S
O68 Pr40 2.436 . S
O68 Pr41 2.695 1_545 S
O68 C58 1.270 . S
O69 Pr41 2.512 1_545 S
O69 C58 1.248 . S
O70 Pr40 2.438 . S
O70 C59 1.267 . S
O71 Pr41 2.437 1_545 S
O71 C59 1.278 . S
H72 C44 0.929 . S
H73 C45 0.929 . S
H74 C47 0.931 . S
H75 C48 0.930 . S
H76 C53 0.937 . S
H77 C54 0.929 . S
H78 C56 0.931 . S
H79 C57 0.930 . S
Zn80 O86 1.920 . S
Zn80 O92 1.898 . S
Zn80 O95 1.905 . S
Zn81 O89 1.905 . S
Zn81 O90 1.898 . S
Zn81 O98 1.920 . S
Zn82 O85 2.080 . S
Zn82 O88 2.114 . S
Zn82 O91 2.120 . S
Zn82 O93 2.120 . S
Zn82 O94 2.114 . S
Zn82 O97 2.080 . S
C83 O88 1.166 . S
C83 O89 1.182 . S
C84 O90 1.167 . S
C84 O91 1.299 . S
O85 Zn82 2.080 . S
O85 C99 1.305 . S
O86 Zn80 1.920 . S
O86 C99 1.234 . S
C87 O92 1.167 . S
C87 O93 1.299 . S
O88 Zn82 2.114 . S
O88 C83 1.166 . S
O89 Zn81 1.905 . S
O89 C83 1.182 . S
O90 Zn81 1.898 . S
O90 C84 1.167 . S
O91 Zn82 2.120 . S
O91 C84 1.299 . S
O92 Zn80 1.898 . S
O92 C87 1.167 . S
O93 Zn82 2.120 . S
O93 C87 1.299 . S
O94 Zn82 2.114 . S
O94 C96 1.166 . S
O95 Zn80 1.905 . S
O95 C96 1.182 . S
C96 O94 1.166 . S
C96 O95 1.182 . S
O97 Zn82 2.080 . S
O97 C100 1.305 . S
O98 Zn81 1.920 . S
O98 C100 1.234 . S
C99 O85 1.305 . S
C99 O86 1.234 . S
C100 O97 1.305 . S
C100 O98 1.234 . S
Zn101 O107 1.920 . S
Zn101 O113 1.898 . S
Zn101 O116 1.905 . S
Zn102 O110 1.905 . S
Zn102 O111 1.898 . S
Zn102 O119 1.920 . S
Zn103 O106 2.080 . S
Zn103 O109 2.114 . S
Zn103 O112 2.120 . S
Zn103 O114 2.120 . S
Zn103 O115 2.114 . S
Zn103 O118 2.080 . S
C104 O109 1.166 . S
C104 O110 1.182 . S
C105 O111 1.167 . S
C105 O112 1.299 . S
O106 Zn103 2.080 . S
O106 C120 1.305 . S
O107 Zn101 1.920 . S
O107 C120 1.234 . S
C108 O113 1.167 . S
C108 O114 1.299 . S
O109 Zn103 2.114 . S
O109 C104 1.166 . S
O110 Zn102 1.905 . S
O110 C104 1.182 . S
O111 Zn102 1.898 . S
O111 C105 1.167 . S
O112 Zn103 2.120 . S
O112 C105 1.299 . S
O113 Zn101 1.898 . S
O113 C108 1.167 . S
O114 Zn103 2.120 . S
O114 C108 1.299 . S
O115 Zn103 2.114 . S
O115 C117 1.166 . S
O116 Zn101 1.905 . S
O116 C117 1.182 . S
C117 O115 1.166 . S
C117 O116 1.182 . S
O118 Zn103 2.080 . S
O118 C121 1.305 . S
O119 Zn102 1.920 . S
O119 C121 1.234 . S
C120 O106 1.305 . S
C120 O107 1.234 . S
C121 O118 1.305 . S
C121 O119 1.234 . S
H122 C140 0.951 . S
H123 C142 0.951 . S
H124 C144 0.950 . S
H125 C145 0.950 . S
H126 C147 0.950 . S
H127 C150 0.950 . S
H128 C151 0.929 1_655 S
H129 C153 0.950 . S
H130 C154 0.950 . S
H131 C155 0.951 . S
H132 C157 0.951 . S
H133 C159 0.950 . S
H134 C160 0.950 . S
H135 C162 0.950 . S
H136 C165 0.950 . S
H137 C166 0.950 . S
H138 C168 0.950 . S
H139 C169 0.950 . S
C140 H122 0.951 . S
C140 C141 1.366 . S
C140 C142 1.388 . S
C141 C140 1.366 . S
C141 C145 1.385 . S
C142 H123 0.951 . S
C142 C140 1.388 . S
C142 C143 1.366 . S
C143 C142 1.366 . S
C143 C144 1.414 . S
C143 C146 1.499 . S
C144 H124 0.950 . S
C144 C143 1.414 . S
C144 C145 1.374 . S
C145 H125 0.950 . S
C145 C141 1.385 . S
C145 C144 1.374 . S
C146 C143 1.499 . S
C146 C147 1.373 . S
C146 C148 1.389 . S
C147 H126 0.950 . S
C147 C146 1.373 . S
C147 C163 1.377 . S
C148 C146 1.389 . S
C148 C149 1.524 . S
C148 C162 1.377 . S
C149 C148 1.524 . S
C149 C150 1.397 . S
C149 C154 1.363 . S
C150 H127 0.950 . S
C150 C149 1.397 . S
C150 C151 1.345 . S
C151 H128 0.929 1_455 S
C151 C150 1.345 . S
C151 C152 1.289 . S
C152 C151 1.289 . S
C152 C153 1.540 . S
C152 H171 0.905 1_455 S
C153 H129 0.950 . S
C153 C152 1.540 . S
C153 C154 1.415 . S
C154 H130 0.950 . S
C154 C149 1.363 . S
C154 C153 1.415 . S
C155 H131 0.951 . S
C155 C156 1.366 . S
C155 C157 1.388 . S
C156 C155 1.366 . S
C156 C160 1.385 . S
C157 H132 0.951 . S
C157 C155 1.388 . S
C157 C158 1.366 . S
C158 C157 1.366 . S
C158 C159 1.414 . S
C158 C161 1.499 . S
C159 H133 0.950 . S
C159 C158 1.414 . S
C159 C160 1.374 . S
C160 H134 0.950 . S
C160 C156 1.385 . S
C160 C159 1.374 . S
C161 C158 1.499 . S
C161 C162 1.373 . S
C161 C163 1.389 . S
C162 H135 0.950 . S
C162 C148 1.377 . S
C162 C161 1.373 . S
C163 C147 1.377 . S
C163 C161 1.389 . S
C163 C164 1.524 . S
C164 C163 1.524 . S
C164 C165 1.397 . S
C164 C169 1.363 . S
C165 H136 0.950 . S
C165 C164 1.397 . S
C165 C166 1.334 . S
C166 H137 0.950 . S
C166 C165 1.334 . S
C166 C167 1.287 . S
C167 C166 1.287 . S
C167 C168 1.524 . S
C167 H170 0.999 . S
C168 H138 0.950 . S
C168 C167 1.524 . S
C168 C169 1.415 . S
C169 H139 0.950 . S
C169 C164 1.363 . S
C169 C168 1.415 . S
H170 C167 0.999 . S
H171 C152 0.905 1_655 S
H172 C190 0.951 . S
H173 C192 0.951 . S
H174 C194 0.950 . S
H175 C195 0.950 . S
H176 C197 0.950 . S
H177 C200 0.950 . S
H178 C201 0.950 . S
H179 C203 0.950 . S
H180 C204 0.950 . S
H181 C205 0.951 . S
H182 C207 0.951 . S
H183 C209 0.950 . S
H184 C210 0.950 . S
H185 C212 0.950 . S
H186 C215 0.950 . S
H187 C216 0.950 . S
H188 C218 0.950 . S
H189 C219 0.950 . S
C190 H172 0.951 . S
C190 C191 1.366 . S
C190 C192 1.388 . S
C191 C190 1.366 . S
C191 C195 1.385 . S
C192 H173 0.951 . S
C192 C190 1.388 . S
C192 C193 1.366 . S
C193 C192 1.366 . S
C193 C194 1.414 . S
C193 C196 1.499 . S
C194 H174 0.950 . S
C194 C193 1.414 . S
C194 C195 1.374 . S
C195 H175 0.950 . S
C195 C191 1.385 . S
C195 C194 1.374 . S
C196 C193 1.499 . S
C196 C197 1.373 . S
C196 C198 1.389 . S
C197 H176 0.950 . S
C197 C196 1.373 . S
C197 C213 1.377 . S
C198 C196 1.389 . S
C198 C199 1.524 . S
C198 C212 1.377 . S
C199 C198 1.524 . S
C199 C200 1.397 . S
C199 C204 1.363 . S
C200 H177 0.950 . S
C200 C199 1.397 . S
C200 C201 1.334 . S
C201 H178 0.950 . S
C201 C200 1.334 . S
C201 C202 1.287 . S
C202 C201 1.287 . S
C202 C203 1.524 . S
C202 H221 0.913 . S
C203 H179 0.950 . S
C203 C202 1.524 . S
C203 C204 1.415 . S
C204 H180 0.950 . S
C204 C199 1.363 . S
C204 C203 1.415 . S
C205 H181 0.951 . S
C205 C206 1.366 . S
C205 C207 1.388 . S
C206 C205 1.366 . S
C206 C210 1.385 . S
C207 H182 0.951 . S
C207 C205 1.388 . S
C207 C208 1.366 . S
C208 C207 1.366 . S
C208 C209 1.414 . S
C208 C211 1.499 . S
C209 H183 0.950 . S
C209 C208 1.414 . S
C209 C210 1.374 . S
C210 H184 0.950 . S
C210 C206 1.385 . S
C210 C209 1.374 . S
C211 C208 1.499 . S
C211 C212 1.373 . S
C211 C213 1.389 . S
C212 H185 0.950 . S
C212 C198 1.377 . S
C212 C211 1.373 . S
C213 C197 1.377 . S
C213 C211 1.389 . S
C213 C214 1.524 . S
C214 C213 1.524 . S
C214 C215 1.397 . S
C214 C219 1.363 . S
C215 H186 0.950 . S
C215 C214 1.397 . S
C215 C216 1.334 . S
C216 H187 0.950 . S
C216 C215 1.334 . S
C216 C217 1.287 . S
C217 C216 1.287 . S
C217 C218 1.524 . S
C217 H220 0.999 . S
C218 H188 0.950 . S
C218 C217 1.524 . S
C218 C219 1.415 . S
C219 H189 0.950 . S
C219 C214 1.363 . S
C219 C218 1.415 . S
H220 C217 0.999 . S
H221 C202 0.913 . S
H222 C240 0.951 . S
H223 C242 0.951 . S
H224 C244 0.950 . S
H225 C245 0.950 . S
H226 C247 0.950 . S
H227 C250 0.950 . S
H228 C251 0.950 . S
H229 C253 0.950 . S
H230 C254 0.950 . S
H231 C255 0.951 . S
H232 C257 0.951 . S
H233 C259 0.950 . S
H234 C260 0.950 . S
H235 C262 0.950 . S
H236 C265 0.950 . S
H237 C266 0.950 . S
H238 C268 0.950 . S
H239 C269 0.950 . S
C240 H222 0.951 . S
C240 C241 1.366 . S
C240 C242 1.388 . S
C241 C240 1.366 . S
C241 C245 1.385 . S
C242 H223 0.951 . S
C242 C240 1.388 . S
C242 C243 1.366 . S
C243 C242 1.366 . S
C243 C244 1.414 . S
C243 C246 1.499 . S
C244 H224 0.950 . S
C244 C243 1.414 . S
C244 C245 1.374 . S
C245 H225 0.950 . S
C245 C241 1.385 . S
C245 C244 1.374 . S
C246 C243 1.499 . S
C246 C247 1.373 . S
C246 C248 1.389 . S
C247 H226 0.950 . S
C247 C246 1.373 . S
C247 C263 1.377 . S
C248 C246 1.389 . S
C248 C249 1.524 . S
C248 C262 1.377 . S
C249 C248 1.524 . S
C249 C250 1.397 . S
C249 C254 1.363 . S
C250 H227 0.950 . S
C250 C249 1.397 . S
C250 C251 1.334 . S
C251 H228 0.950 . S
C251 C250 1.334 . S
C251 C252 1.287 . S
C252 C251 1.287 . S
C252 C253 1.524 . S
C252 H271 0.913 . S
C253 H229 0.950 . S
C253 C252 1.524 . S
C253 C254 1.415 . S
C254 H230 0.950 . S
C254 C249 1.363 . S
C254 C253 1.415 . S
C255 H231 0.951 . S
C255 C256 1.366 . S
C255 C257 1.388 . S
C256 C255 1.366 . S
C256 C260 1.385 . S
C257 H232 0.951 . S
C257 C255 1.388 . S
C257 C258 1.366 . S
C258 C257 1.366 . S
C258 C259 1.414 . S
C258 C261 1.499 . S
C259 H233 0.950 . S
C259 C258 1.414 . S
C259 C260 1.374 . S
C260 H234 0.950 . S
C260 C256 1.385 . S
C260 C259 1.374 . S
C261 C258 1.499 . S
C261 C262 1.373 . S
C261 C263 1.389 . S
C262 H235 0.950 . S
C262 C248 1.377 . S
C262 C261 1.373 . S
C263 C247 1.377 . S
C263 C261 1.389 . S
C263 C264 1.524 . S
C264 C263 1.524 . S
C264 C265 1.397 . S
C264 C269 1.363 . S
C265 H236 0.950 . S
C265 C264 1.397 . S
C265 C266 1.334 . S
C266 H237 0.950 . S
C266 C265 1.334 . S
C266 C267 1.287 . S
C267 C266 1.287 . S
C267 C268 1.524 . S
C267 H270 0.999 . S
C268 H238 0.950 . S
C268 C267 1.524 . S
C268 C269 1.415 . S
C269 H239 0.950 . S
C269 C264 1.363 . S
C269 C268 1.415 . S
H270 C267 0.999 . S
H271 C252 0.913 . S
H272 C290 0.951 . S
H273 C292 0.951 . S
H274 C294 0.950 . S
H275 C295 0.950 . S
H276 C297 0.950 . S
H277 C300 0.950 . S
H278 C301 0.950 . S
H279 C303 0.950 . S
H280 C304 0.950 . S
H281 C305 0.951 . S
H282 C307 0.951 . S
H283 C309 0.950 . S
H284 C310 0.950 . S
H285 C312 0.950 . S
H286 C315 0.950 . S
H287 C316 0.950 . S
H288 C318 0.950 . S
H289 C319 0.950 . S
C290 H272 0.951 . S
C290 C291 1.366 . S
C290 C292 1.388 . S
C291 C290 1.366 . S
C291 C295 1.385 . S
C292 H273 0.951 . S
C292 C290 1.388 . S
C292 C293 1.366 . S
C293 C292 1.366 . S
C293 C294 1.414 . S
C293 C296 1.499 . S
C294 H274 0.950 . S
C294 C293 1.414 . S
C294 C295 1.374 . S
C295 H275 0.950 . S
C295 C291 1.385 . S
C295 C294 1.374 . S
C296 C293 1.499 . S
C296 C297 1.373 . S
C296 C298 1.389 . S
C297 H276 0.950 . S
C297 C296 1.373 . S
C297 C313 1.377 . S
C298 C296 1.389 . S
C298 C299 1.524 . S
C298 C312 1.377 . S
C299 C298 1.524 . S
C299 C300 1.397 . S
C299 C304 1.363 . S
C300 H277 0.950 . S
C300 C299 1.397 . S
C300 C301 1.334 . S
C301 H278 0.950 . S
C301 C300 1.334 . S
C301 C302 1.287 . S
C302 C301 1.287 . S
C302 C303 1.524 . S
C302 H321 0.913 . S
C303 H279 0.950 . S
C303 C302 1.524 . S
C303 C304 1.415 . S
C304 H280 0.950 . S
C304 C299 1.363 . S
C304 C303 1.415 . S
C305 H281 0.951 . S
C305 C306 1.366 . S
C305 C307 1.388 . S
C306 C305 1.366 . S
C306 C310 1.385 . S
C307 H282 0.951 . S
C307 C305 1.388 . S
C307 C308 1.366 . S
C308 C307 1.366 . S
C308 C309 1.414 . S
C308 C311 1.499 . S
C309 H283 0.950 . S
C309 C308 1.414 . S
C309 C310 1.374 . S
C310 H284 0.950 . S
C310 C306 1.385 . S
C310 C309 1.374 . S
C311 C308 1.499 . S
C311 C312 1.373 . S
C311 C313 1.389 . S
C312 H285 0.950 . S
C312 C298 1.377 . S
C312 C311 1.373 . S
C313 C297 1.377 . S
C313 C311 1.389 . S
C313 C314 1.524 . S
C314 C313 1.524 . S
C314 C315 1.397 . S
C314 C319 1.363 . S
C315 H286 0.950 . S
C315 C314 1.397 . S
C315 C316 1.334 . S
C316 H287 0.950 . S
C316 C315 1.334 . S
C316 C317 1.287 . S
C317 C316 1.287 . S
C317 C318 1.524 . S
C317 H320 0.999 . S
C318 H288 0.950 . S
C318 C317 1.524 . S
C318 C319 1.415 . S
C319 H289 0.950 . S
C319 C314 1.363 . S
C319 C318 1.415 . S
H320 C317 0.999 . S
H321 C302 0.913 . S
H322 C340 0.951 . S
H323 C342 0.951 . S
H324 C344 0.950 . S
H325 C345 0.950 . S
H326 C347 0.950 . S
H327 C350 0.950 . S
H328 C351 0.950 . S
H329 C353 0.950 . S
H330 C354 0.950 . S
H331 C355 0.951 . S
H332 C357 0.951 . S
H333 C359 0.950 . S
H334 C360 0.950 . S
H335 C362 0.950 . S
H336 C365 0.950 . S
H337 C366 0.950 . S
H338 C368 0.950 . S
H339 C369 0.950 . S
C340 H322 0.951 . S
C340 C341 1.366 . S
C340 C342 1.388 . S
C341 C340 1.366 . S
C341 C345 1.385 . S
C342 H323 0.951 . S
C342 C340 1.388 . S
C342 C343 1.366 . S
C343 C342 1.366 . S
C343 C344 1.414 . S
C343 C346 1.499 . S
C344 H324 0.950 . S
C344 C343 1.414 . S
C344 C345 1.374 . S
C345 H325 0.950 . S
C345 C341 1.385 . S
C345 C344 1.374 . S
C346 C343 1.499 . S
C346 C347 1.373 . S
C346 C348 1.389 . S
C347 H326 0.950 . S
C347 C346 1.373 . S
C347 C363 1.377 . S
C348 C346 1.389 . S
C348 C349 1.524 . S
C348 C362 1.377 . S
C349 C348 1.524 . S
C349 C350 1.397 . S
C349 C354 1.363 . S
C350 H327 0.950 . S
C350 C349 1.397 . S
C350 C351 1.334 . S
C351 H328 0.950 . S
C351 C350 1.334 . S
C351 C352 1.287 1_565 S
C352 C351 1.287 1_545 S
C352 C353 1.524 . S
C352 H371 0.913 . S
C353 H329 0.950 . S
C353 C352 1.524 . S
C353 C354 1.415 1_545 S
C354 H330 0.950 . S
C354 C349 1.363 . S
C354 C353 1.415 1_565 S
C355 H331 0.951 . S
C355 C356 1.366 . S
C355 C357 1.388 . S
C356 C355 1.366 . S
C356 C360 1.385 . S
C357 H332 0.951 . S
C357 C355 1.388 . S
C357 C358 1.366 . S
C358 C357 1.366 . S
C358 C359 1.414 . S
C358 C361 1.499 . S
C359 H333 0.950 . S
C359 C358 1.414 . S
C359 C360 1.374 . S
C360 H334 0.950 . S
C360 C356 1.385 . S
C360 C359 1.374 . S
C361 C358 1.499 . S
C361 C362 1.373 . S
C361 C363 1.389 . S
C362 H335 0.950 . S
C362 C348 1.377 . S
C362 C361 1.373 . S
C363 C347 1.377 . S
C363 C361 1.389 . S
C363 C364 1.524 . S
C364 C363 1.524 . S
C364 C365 1.397 . S
C364 C369 1.363 . S
C365 H336 0.950 . S
C365 C364 1.397 . S
C365 C366 1.334 . S
C366 H337 0.950 . S
C366 C365 1.334 . S
C366 C367 1.287 . S
C367 C366 1.287 . S
C367 C368 1.524 . S
C367 H370 0.999 . S
C368 H338 0.950 . S
C368 C367 1.524 . S
C368 C369 1.415 . S
C369 H339 0.950 . S
C369 C364 1.363 . S
C369 C368 1.415 . S
H370 C367 0.999 . S
H371 C352 0.913 . S
H372 C390 0.951 . S
H373 C392 0.951 . S
H374 C394 0.950 . S
H375 C395 0.950 . S
H376 C397 0.950 . S
H377 C400 0.950 . S
H378 C401 0.954 . S
H379 C403 0.950 . S
H380 C404 0.950 . S
H381 C405 0.951 . S
H382 C407 0.951 . S
H383 C409 0.950 . S
H384 C410 0.950 . S
H385 C412 0.950 . S
H386 C415 0.950 . S
H387 C416 0.950 . S
H388 C418 0.950 . S
H389 C419 0.950 . S
C390 H372 0.951 . S
C390 C391 1.366 . S
C390 C392 1.388 . S
C391 C390 1.366 . S
C391 C395 1.385 . S
C392 H373 0.951 . S
C392 C390 1.388 . S
C392 C393 1.366 . S
C393 C392 1.366 . S
C393 C394 1.414 . S
C393 C396 1.499 . S
C394 H374 0.950 . S
C394 C393 1.414 . S
C394 C395 1.374 . S
C395 H375 0.950 . S
C395 C391 1.385 . S
C395 C394 1.374 . S
C396 C393 1.499 . S
C396 C397 1.373 . S
C396 C398 1.389 . S
C397 H376 0.950 . S
C397 C396 1.373 . S
C397 C413 1.377 . S
C398 C396 1.389 . S
C398 C399 1.524 . S
C398 C412 1.377 . S
C399 C398 1.524 . S
C399 C400 1.397 . S
C399 C404 1.363 . S
C400 H377 0.950 . S
C400 C399 1.397 . S
C400 C401 1.321 1_655 S
C401 H378 0.954 . S
C401 C400 1.321 1_455 S
C401 C402 1.296 . S
C402 C401 1.296 . S
C402 C403 1.524 . S
C402 H421 0.913 . S
C403 H379 0.950 . S
C403 C402 1.524 . S
C403 C404 1.415 1_455 S
C404 H380 0.950 . S
C404 C399 1.363 . S
C404 C403 1.415 1_655 S
C405 H381 0.951 . S
C405 C406 1.366 . S
C405 C407 1.388 . S
C406 C405 1.366 . S
C406 C410 1.385 . S
C407 H382 0.951 . S
C407 C405 1.388 . S
C407 C408 1.366 . S
C408 C407 1.366 . S
C408 C409 1.414 . S
C408 C411 1.499 . S
C409 H383 0.950 . S
C409 C408 1.414 . S
C409 C410 1.374 . S
C410 H384 0.950 . S
C410 C406 1.385 . S
C410 C409 1.374 . S
C411 C408 1.499 . S
C411 C412 1.373 . S
C411 C413 1.389 . S
C412 H385 0.950 . S
C412 C398 1.377 . S
C412 C411 1.373 . S
C413 C397 1.377 . S
C413 C411 1.389 . S
C413 C414 1.524 . S
C414 C413 1.524 . S
C414 C415 1.397 . S
C414 C419 1.363 . S
C415 H386 0.950 . S
C415 C414 1.397 . S
C415 C416 1.334 . S
C416 H387 0.950 . S
C416 C415 1.334 . S
C416 C417 1.287 . S
C417 C416 1.287 . S
C417 C418 1.524 . S
C417 H420 0.999 . S
C418 H388 0.950 . S
C418 C417 1.524 . S
C418 C419 1.415 . S
C419 H389 0.950 . S
C419 C414 1.363 . S
C419 C418 1.415 . S
H420 C417 0.999 . S
H421 C402 0.913 . S
H422 C440 0.951 . S
H423 C442 0.951 . S
H424 C444 0.950 . S
H425 C445 0.950 1_545 S
H426 C447 0.950 . S
H427 C450 0.950 . S
H428 C451 0.950 . S
H429 C453 0.950 . S
H430 C454 0.950 . S
H431 C455 0.951 . S
H432 C457 0.951 . S
H433 C459 0.950 . S
H434 C460 0.950 . S
H435 C462 0.950 . S
H436 C465 0.950 . S
H437 C466 0.950 . S
H438 C468 0.950 . S
H439 C469 0.950 . S
C440 H422 0.951 . S
C440 C441 1.366 . S
C440 C442 1.388 . S
C441 C440 1.366 . S
C441 C445 1.385 . S
C442 H423 0.951 . S
C442 C440 1.388 . S
C442 C443 1.366 . S
C443 C442 1.366 . S
C443 C444 1.414 . S
C443 C446 1.499 . S
C444 H424 0.950 . S
C444 C443 1.414 . S
C444 C445 1.374 . S
C445 H425 0.950 1_565 S
C445 C441 1.385 . S
C445 C444 1.374 . S
C446 C443 1.499 . S
C446 C447 1.373 . S
C446 C448 1.389 . S
C447 H426 0.950 . S
C447 C446 1.373 . S
C447 C463 1.377 . S
C448 C446 1.389 . S
C448 C449 1.524 . S
C448 C462 1.377 . S
C449 C448 1.524 . S
C449 C450 1.397 . S
C449 C454 1.363 . S
C450 H427 0.950 . S
C450 C449 1.397 . S
C450 C451 1.334 . S
C451 H428 0.950 . S
C451 C450 1.334 . S
C451 C452 1.287 . S
C452 C451 1.287 . S
C452 C453 1.524 . S
C452 H471 0.913 . S
C453 H429 0.950 . S
C453 C452 1.524 . S
C453 C454 1.415 . S
C454 H430 0.950 . S
C454 C449 1.363 . S
C454 C453 1.415 . S
C455 H431 0.951 . S
C455 C456 1.366 . S
C455 C457 1.388 . S
C456 C455 1.366 . S
C456 C460 1.385 . S
C457 H432 0.951 . S
C457 C455 1.388 . S
C457 C458 1.366 . S
C458 C457 1.366 . S
C458 C459 1.414 . S
C458 C461 1.499 . S
C459 H433 0.950 . S
C459 C458 1.414 . S
C459 C460 1.374 . S
C460 H434 0.950 . S
C460 C456 1.385 . S
C460 C459 1.374 . S
C461 C458 1.499 . S
C461 C462 1.373 . S
C461 C463 1.389 . S
C462 H435 0.950 . S
C462 C448 1.377 . S
C462 C461 1.373 . S
C463 C447 1.377 . S
C463 C461 1.389 . S
C463 C464 1.524 . S
C464 C463 1.524 . S
C464 C465 1.397 . S
C464 C469 1.363 . S
C465 H436 0.950 . S
C465 C464 1.397 . S
C465 C466 1.334 . S
C466 H437 0.950 . S
C466 C465 1.334 . S
C466 C467 1.287 . S
C467 C466 1.287 . S
C467 C468 1.524 . S
C467 H470 0.999 . S
C468 H438 0.950 . S
C468 C467 1.524 . S
C468 C469 1.415 . S
C469 H439 0.950 . S
C469 C464 1.363 . S
C469 C468 1.415 . S
H470 C467 0.999 . S
H471 C452 0.913 . S
H472 C490 0.951 . S
H473 C492 0.951 . S
H474 C494 0.950 . S
H475 C495 0.950 . S
H476 C497 0.950 . S
H477 C500 0.950 . S
H478 C501 0.950 1_554 S
H479 C503 0.950 . S
H480 C504 0.950 . S
H481 C505 0.951 . S
H482 C507 0.951 . S
H483 C509 0.950 . S
H484 C510 0.950 . S
H485 C512 0.950 . S
H486 C515 0.950 . S
H487 C516 0.950 . S
H488 C518 0.950 . S
H489 C519 0.950 . S
C490 H472 0.951 . S
C490 C491 1.366 . S
C490 C492 1.388 . S
C491 C490 1.366 . S
C491 C495 1.385 . S
C492 H473 0.951 . S
C492 C490 1.388 . S
C492 C493 1.366 . S
C493 C492 1.366 . S
C493 C494 1.414 . S
C493 C496 1.499 . S
C494 H474 0.950 . S
C494 C493 1.414 . S
C494 C495 1.374 . S
C495 H475 0.950 . S
C495 C491 1.385 . S
C495 C494 1.374 . S
C496 C493 1.499 . S
C496 C497 1.373 . S
C496 C498 1.389 . S
C497 H476 0.950 . S
C497 C496 1.373 . S
C497 C513 1.377 . S
C498 C496 1.389 . S
C498 C499 1.524 . S
C498 C512 1.377 . S
C499 C498 1.524 . S
C499 C500 1.397 . S
C499 C504 1.363 . S
C500 H477 0.950 . S
C500 C499 1.397 . S
C500 C501 1.334 . S
C501 H478 0.950 1_556 S
C501 C500 1.334 . S
C501 C502 1.287 . S
C502 C501 1.287 . S
C502 C503 1.524 . S
C502 H521 0.913 1_556 S
C503 H479 0.950 . S
C503 C502 1.524 . S
C503 C504 1.415 . S
C504 H480 0.950 . S
C504 C499 1.363 . S
C504 C503 1.415 . S
C505 H481 0.951 . S
C505 C506 1.366 . S
C505 C507 1.388 . S
C506 C505 1.366 . S
C506 C510 1.385 . S
C507 H482 0.951 . S
C507 C505 1.388 . S
C507 C508 1.366 . S
C508 C507 1.366 . S
C508 C509 1.414 . S
C508 C511 1.499 . S
C509 H483 0.950 . S
C509 C508 1.414 . S
C509 C510 1.374 . S
C510 H484 0.950 . S
C510 C506 1.385 . S
C510 C509 1.374 . S
C511 C508 1.499 . S
C511 C512 1.373 . S
C511 C513 1.389 . S
C512 H485 0.950 . S
C512 C498 1.377 . S
C512 C511 1.373 . S
C513 C497 1.377 . S
C513 C511 1.389 . S
C513 C514 1.524 . S
C514 C513 1.524 . S
C514 C515 1.397 . S
C514 C519 1.363 . S
C515 H486 0.950 . S
C515 C514 1.397 . S
C515 C516 1.334 . S
C516 H487 0.950 . S
C516 C515 1.334 . S
C516 C517 1.287 . S
C517 C516 1.287 . S
C517 C518 1.524 . S
C517 H520 0.999 . S
C518 H488 0.950 . S
C518 C517 1.524 . S
C518 C519 1.415 . S
C519 H489 0.950 . S
C519 C514 1.363 . S
C519 C518 1.415 . S
H520 C517 0.999 . S
H521 C502 0.913 1_554 S
H522 C540 0.951 . S
H523 C542 0.951 . S
H524 C544 0.950 . S
H525 C545 0.950 . S
H526 C547 0.950 . S
H527 C550 0.950 . S
H528 C551 0.950 . S
H529 C553 0.950 . S
H530 C554 0.950 . S
H531 C555 0.951 . S
H532 C557 0.951 . S
H533 C559 0.950 . S
H534 C560 0.950 . S
H535 C562 0.950 . S
H536 C565 0.950 . S
H537 C566 0.950 . S
H538 C568 0.950 . S
H539 C569 0.950 . S
C540 H522 0.951 . S
C540 C541 1.366 . S
C540 C542 1.388 . S
C541 C540 1.366 . S
C541 C545 1.385 . S
C542 H523 0.951 . S
C542 C540 1.388 . S
C542 C543 1.366 . S
C543 C542 1.366 . S
C543 C544 1.414 . S
C543 C546 1.499 . S
C544 H524 0.950 . S
C544 C543 1.414 . S
C544 C545 1.374 . S
C545 H525 0.950 . S
C545 C541 1.385 . S
C545 C544 1.374 . S
C546 C543 1.499 . S
C546 C547 1.373 . S
C546 C548 1.389 . S
C547 H526 0.950 . S
C547 C546 1.373 . S
C547 C563 1.377 . S
C548 C546 1.389 . S
C548 C549 1.524 . S
C548 C562 1.377 . S
C549 C548 1.524 . S
C549 C550 1.397 . S
C549 C554 1.363 . S
C550 H527 0.950 . S
C550 C549 1.397 . S
C550 C551 1.334 . S
C551 H528 0.950 . S
C551 C550 1.334 . S
C551 C552 1.287 . S
C552 C551 1.287 . S
C552 C553 1.524 . S
C552 H571 0.913 . S
C553 H529 0.950 . S
C553 C552 1.524 . S
C553 C554 1.415 . S
C554 H530 0.950 . S
C554 C549 1.363 . S
C554 C553 1.415 . S
C555 H531 0.951 . S
C555 C556 1.366 . S
C555 C557 1.388 . S
C556 C555 1.366 . S
C556 C560 1.385 . S
C557 H532 0.951 . S
C557 C555 1.388 . S
C557 C558 1.366 . S
C558 C557 1.366 . S
C558 C559 1.414 . S
C558 C561 1.499 . S
C559 H533 0.950 . S
C559 C558 1.414 . S
C559 C560 1.374 . S
C560 H534 0.950 . S
C560 C556 1.385 . S
C560 C559 1.374 . S
C561 C558 1.499 . S
C561 C562 1.373 . S
C561 C563 1.389 . S
C562 H535 0.950 . S
C562 C548 1.377 . S
C562 C561 1.373 . S
C563 C547 1.377 . S
C563 C561 1.389 . S
C563 C564 1.524 . S
C564 C563 1.524 . S
C564 C565 1.397 . S
C564 C569 1.363 . S
C565 H536 0.950 . S
C565 C564 1.397 . S
C565 C566 1.334 . S
C566 H537 0.950 . S
C566 C565 1.334 . S
C566 C567 1.287 . S
C567 C566 1.287 . S
C567 C568 1.524 . S
C567 H570 0.999 . S
C568 H538 0.950 . S
C568 C567 1.524 . S
C568 C569 1.415 . S
C569 H539 0.950 . S
C569 C564 1.363 . S
C569 C568 1.415 . S
H570 C567 0.999 . S
H571 C552 0.913 . S
H572 C590 0.951 . S
H573 C592 0.951 . S
H574 C594 0.950 . S
H575 C595 0.950 . S
H576 C597 0.950 . S
H577 C600 0.950 . S
H578 C601 0.950 . S
H579 C603 0.950 . S
H580 C604 0.950 . S
H581 C605 0.951 . S
H582 C607 0.951 . S
H583 C609 0.950 . S
H584 C610 0.950 . S
H585 C612 0.950 . S
H586 C615 0.950 . S
H587 C616 0.950 . S
H588 C618 0.950 . S
H589 C619 0.950 . S
C590 H572 0.951 . S
C590 C591 1.366 . S
C590 C592 1.388 . S
C591 C590 1.366 . S
C591 C595 1.385 . S
C592 H573 0.951 . S
C592 C590 1.388 . S
C592 C593 1.366 . S
C593 C592 1.366 . S
C593 C594 1.414 . S
C593 C596 1.499 . S
C594 H574 0.950 . S
C594 C593 1.414 . S
C594 C595 1.374 . S
C595 H575 0.950 . S
C595 C591 1.385 . S
C595 C594 1.374 . S
C596 C593 1.499 . S
C596 C597 1.373 . S
C596 C598 1.389 . S
C597 H576 0.950 . S
C597 C596 1.373 . S
C597 C613 1.377 . S
C598 C596 1.389 . S
C598 C599 1.524 . S
C598 C612 1.377 . S
C599 C598 1.524 . S
C599 C600 1.397 . S
C599 C604 1.363 . S
C600 H577 0.950 . S
C600 C599 1.397 . S
C600 C601 1.334 . S
C601 H578 0.950 . S
C601 C600 1.334 . S
C601 C602 1.287 . S
C602 C601 1.287 . S
C602 C603 1.524 . S
C602 H621 0.913 . S
C603 H579 0.950 . S
C603 C602 1.524 . S
C603 C604 1.415 . S
C604 H580 0.950 . S
C604 C599 1.363 . S
C604 C603 1.415 . S
C605 H581 0.951 . S
C605 C606 1.366 . S
C605 C607 1.388 . S
C606 C605 1.366 . S
C606 C610 1.385 . S
C607 H582 0.951 . S
C607 C605 1.388 . S
C607 C608 1.366 . S
C608 C607 1.366 . S
C608 C609 1.414 . S
C608 C611 1.499 . S
C609 H583 0.950 . S
C609 C608 1.414 . S
C609 C610 1.374 . S
C610 H584 0.950 . S
C610 C606 1.385 . S
C610 C609 1.374 . S
C611 C608 1.499 . S
C611 C612 1.373 . S
C611 C613 1.389 . S
C612 H585 0.950 . S
C612 C598 1.377 . S
C612 C611 1.373 . S
C613 C597 1.377 . S
C613 C611 1.389 . S
C613 C614 1.524 . S
C614 C613 1.524 . S
C614 C615 1.397 . S
C614 C619 1.363 . S
C615 H586 0.950 . S
C615 C614 1.397 . S
C615 C616 1.334 . S
C616 H587 0.950 . S
C616 C615 1.334 . S
C616 C617 1.287 . S
C617 C616 1.287 . S
C617 C618 1.524 . S
C617 H620 0.999 . S
C618 H588 0.950 . S
C618 C617 1.524 . S
C618 C619 1.415 . S
C619 H589 0.950 . S
C619 C614 1.363 . S
C619 C618 1.415 . S
H620 C617 0.999 . S
H621 C602 0.913 . S
H622 C640 0.951 1_545 S
H623 C642 0.951 . S
H624 C644 0.950 . S
H625 C645 0.950 . S
H626 C647 0.950 . S
H627 C650 0.950 . S
H628 C651 0.950 . S
H629 C653 0.950 . S
H630 C654 0.950 . S
H631 C655 0.951 . S
H632 C657 0.951 . S
H633 C659 0.950 . S
H634 C660 0.950 . S
H635 C662 0.950 . S
H636 C665 0.950 . S
H637 C666 0.950 . S
H638 C668 0.950 . S
H639 C669 0.950 . S
C640 H622 0.951 1_565 S
C640 C641 1.366 . S
C640 C642 1.388 . S
C641 C640 1.366 . S
C641 C645 1.385 . S
C642 H623 0.951 . S
C642 C640 1.388 . S
C642 C643 1.366 . S
C643 C642 1.366 . S
C643 C644 1.414 . S
C643 C646 1.499 . S
C644 H624 0.950 . S
C644 C643 1.414 . S
C644 C645 1.374 . S
C645 H625 0.950 . S
C645 C641 1.385 . S
C645 C644 1.374 . S
C646 C643 1.499 . S
C646 C647 1.373 . S
C646 C648 1.389 . S
C647 H626 0.950 . S
C647 C646 1.373 . S
C647 C663 1.377 . S
C648 C646 1.389 . S
C648 C649 1.524 . S
C648 C662 1.377 . S
C649 C648 1.524 . S
C649 C650 1.397 . S
C649 C654 1.363 . S
C650 H627 0.950 . S
C650 C649 1.397 . S
C650 C651 1.334 . S
C651 H628 0.950 . S
C651 C650 1.334 . S
C651 C652 1.301 . S
C652 C651 1.301 . S
C652 C653 1.520 1_565 S
C652 H671 0.902 1_565 S
C653 H629 0.950 . S
C653 C652 1.520 1_545 S
C653 C654 1.415 1_545 S
C654 H630 0.950 . S
C654 C649 1.363 . S
C654 C653 1.415 1_565 S
C655 H631 0.951 . S
C655 C656 1.366 . S
C655 C657 1.388 . S
C656 C655 1.366 . S
C656 C660 1.385 . S
C657 H632 0.951 . S
C657 C655 1.388 . S
C657 C658 1.366 . S
C658 C657 1.366 . S
C658 C659 1.414 . S
C658 C661 1.499 . S
C659 H633 0.950 . S
C659 C658 1.414 . S
C659 C660 1.374 . S
C660 H634 0.950 . S
C660 C656 1.385 . S
C660 C659 1.374 . S
C661 C658 1.499 . S
C661 C662 1.373 . S
C661 C663 1.389 . S
C662 H635 0.950 . S
C662 C648 1.377 . S
C662 C661 1.373 . S
C663 C647 1.377 . S
C663 C661 1.389 . S
C663 C664 1.524 . S
C664 C663 1.524 . S
C664 C665 1.397 . S
C664 C669 1.363 . S
C665 H636 0.950 . S
C665 C664 1.397 . S
C665 C666 1.334 . S
C666 H637 0.950 . S
C666 C665 1.334 . S
C666 C667 1.287 . S
C667 C666 1.287 . S
C667 C668 1.524 . S
C667 H670 0.999 . S
C668 H638 0.950 . S
C668 C667 1.524 . S
C668 C669 1.415 . S
C669 H639 0.950 . S
C669 C664 1.363 . S
C669 C668 1.415 . S
H670 C667 0.999 . S
H671 C652 0.902 1_545 S
H672 C690 0.951 . S
H673 C692 0.951 . S
H674 C694 0.950 . S
H675 C695 0.950 1_455 S
H676 C697 0.950 . S
H677 C700 0.950 . S
H678 C701 0.950 . S
H679 C703 0.950 1_554 S
H680 C704 0.950 . S
H681 C705 0.951 . S
H682 C707 0.951 . S
H683 C709 0.950 . S
H684 C710 0.950 . S
H685 C712 0.950 . S
H686 C715 0.950 . S
H687 C716 0.950 . S
H688 C718 0.950 . S
H689 C719 0.950 . S
C690 H672 0.951 . S
C690 C691 1.366 . S
C690 C692 1.388 . S
C691 C690 1.366 . S
C691 C695 1.385 . S
C692 H673 0.951 . S
C692 C690 1.388 . S
C692 C693 1.366 . S
C693 C692 1.366 . S
C693 C694 1.414 . S
C693 C696 1.499 . S
C694 H674 0.950 . S
C694 C693 1.414 . S
C694 C695 1.374 . S
C695 H675 0.950 1_655 S
C695 C691 1.385 . S
C695 C694 1.374 . S
C696 C693 1.499 . S
C696 C697 1.373 . S
C696 C698 1.389 . S
C697 H676 0.950 . S
C697 C696 1.373 . S
C697 C713 1.377 . S
C698 C696 1.389 . S
C698 C699 1.524 . S
C698 C712 1.377 . S
C699 C698 1.524 . S
C699 C700 1.397 . S
C699 C704 1.363 . S
C700 H677 0.950 . S
C700 C699 1.397 . S
C700 C701 1.334 . S
C701 H678 0.950 . S
C701 C700 1.334 . S
C701 C702 1.287 1_556 S
C702 C701 1.287 1_554 S
C702 C703 1.524 1_554 S
C702 H721 0.913 . S
C703 H679 0.950 1_556 S
C703 C702 1.524 1_556 S
C703 C704 1.415 . S
C704 H680 0.950 . S
C704 C699 1.363 . S
C704 C703 1.415 . S
C705 H681 0.951 . S
C705 C706 1.366 . S
C705 C707 1.388 . S
C706 C705 1.366 . S
C706 C710 1.385 . S
C707 H682 0.951 . S
C707 C705 1.388 . S
C707 C708 1.366 . S
C708 C707 1.366 . S
C708 C709 1.414 . S
C708 C711 1.499 . S
C709 H683 0.950 . S
C709 C708 1.414 . S
C709 C710 1.374 . S
C710 H684 0.950 . S
C710 C706 1.385 . S
C710 C709 1.374 . S
C711 C708 1.499 . S
C711 C712 1.373 . S
C711 C713 1.389 . S
C712 H685 0.950 . S
C712 C698 1.377 . S
C712 C711 1.373 . S
C713 C697 1.377 . S
C713 C711 1.389 . S
C713 C714 1.524 . S
C714 C713 1.524 . S
C714 C715 1.397 . S
C714 C719 1.363 . S
C715 H686 0.950 . S
C715 C714 1.397 . S
C715 C716 1.334 . S
C716 H687 0.950 . S
C716 C715 1.334 . S
C716 C717 1.287 . S
C717 C716 1.287 . S
C717 C718 1.524 . S
C717 H720 0.999 . S
C718 H688 0.950 . S
C718 C717 1.524 . S
C718 C719 1.415 . S
C719 H689 0.950 . S
C719 C714 1.363 . S
C719 C718 1.415 . S
H720 C717 0.999 . S
H721 C702 0.913 . S
C141 C15 1.348 . S
C156 C99 1.267 . S
C191 C59 1.138 . S
C206 C105 1.042 . S
C241 C10 1.229 . S
C256 C96 1.149 . S
C291 C46 1.400 . S
C306 C121 1.308 . S
C341 C18 1.918 . S
C356 C87 1.776 . S
C406 C104 1.880 . S
C391 C49 1.994 . S
C441 C55 1.347 . S
C456 C100 1.266 . S
C506 C117 1.880 . S
C491 C9 1.994 . S
C556 C84 1.774 . S
C541 C58 1.918 . S
C606 C120 1.307 . S
C591 C6 1.400 . S
C656 C83 1.147 . S
C641 C50 1.229 . S
C706 C108 1.042 . S
C691 C19 1.137 . S
