# Generated by pormake.
# Topology gar, (4,6)-cn, num edge types: 1
# Building blocks:
#     Node 0, Type 0, BuildingBlock: TATPOV_clean_sbu_0, # of connection points: 4
#     Node 1, Type 0, BuildingBlock: TATPOV_clean_sbu_0, # of connection points: 4
#     Node 2, Type 0, BuildingBlock: TATPOV_clean_sbu_0, # of connection points: 4
#     Node 3, Type 0, BuildingBlock: TATPOV_clean_sbu_0, # of connection points: 4
#     Node 4, Type 0, BuildingBlock: TATPOV_clean_sbu_0, # of connection points: 4
#     Node 5, Type 0, BuildingBlock: TATPOV_clean_sbu_0, # of connection points: 4
#     Node 6, Type 0, BuildingBlock: TATPOV_clean_sbu_0, # of connection points: 4
#     Node 7, Type 0, BuildingBlock: TATPOV_clean_sbu_0, # of connection points: 4
#     Node 8, Type 0, BuildingBlock: TATPOV_clean_sbu_0, # of connection points: 4
#     Node 9, Type 0, BuildingBlock: TATPOV_clean_sbu_0, # of connection points: 4
#     Node 10, Type 0, BuildingBlock: TATPOV_clean_sbu_0, # of connection points: 4
#     Node 11, Type 0, BuildingBlock: TATPOV_clean_sbu_0, # of connection points: 4
#     Node 12, Type 0, BuildingBlock: TATPOV_clean_sbu_0, # of connection points: 4
#     Node 13, Type 0, BuildingBlock: TATPOV_clean_sbu_0, # of connection points: 4
#     Node 14, Type 0, BuildingBlock: TATPOV_clean_sbu_0, # of connection points: 4
#     Node 15, Type 0, BuildingBlock: TATPOV_clean_sbu_0, # of connection points: 4
#     Node 16, Type 0, BuildingBlock: TATPOV_clean_sbu_0, # of connection points: 4
#     Node 17, Type 0, BuildingBlock: TATPOV_clean_sbu_0, # of connection points: 4
#     Node 18, Type 0, BuildingBlock: TATPOV_clean_sbu_0, # of connection points: 4
#     Node 19, Type 0, BuildingBlock: TATPOV_clean_sbu_0, # of connection points: 4
#     Node 20, Type 0, BuildingBlock: TATPOV_clean_sbu_0, # of connection points: 4
#     Node 21, Type 0, BuildingBlock: TATPOV_clean_sbu_0, # of connection points: 4
#     Node 22, Type 0, BuildingBlock: TATPOV_clean_sbu_0, # of connection points: 4
#     Node 23, Type 0, BuildingBlock: TATPOV_clean_sbu_0, # of connection points: 4
#     Node 24, Type 1, BuildingBlock: PAMTUU_clean_sbu_0, # of connection points: 6
#     Node 25, Type 1, BuildingBlock: PAMTUU_clean_sbu_0, # of connection points: 6
#     Node 26, Type 1, BuildingBlock: PAMTUU_clean_sbu_0, # of connection points: 6
#     Node 27, Type 1, BuildingBlock: PAMTUU_clean_sbu_0, # of connection points: 6
#     Node 28, Type 1, BuildingBlock: PAMTUU_clean_sbu_0, # of connection points: 6
#     Node 29, Type 1, BuildingBlock: PAMTUU_clean_sbu_0, # of connection points: 6
#     Node 30, Type 1, BuildingBlock: PAMTUU_clean_sbu_0, # of connection points: 6
#     Node 31, Type 1, BuildingBlock: PAMTUU_clean_sbu_0, # of connection points: 6
#     Node 32, Type 1, BuildingBlock: PAMTUU_clean_sbu_0, # of connection points: 6
#     Node 33, Type 1, BuildingBlock: PAMTUU_clean_sbu_0, # of connection points: 6
#     Node 34, Type 1, BuildingBlock: PAMTUU_clean_sbu_0, # of connection points: 6
#     Node 35, Type 1, BuildingBlock: PAMTUU_clean_sbu_0, # of connection points: 6
#     Node 36, Type 1, BuildingBlock: PAMTUU_clean_sbu_0, # of connection points: 6
#     Node 37, Type 1, BuildingBlock: PAMTUU_clean_sbu_0, # of connection points: 6
#     Node 38, Type 1, BuildingBlock: PAMTUU_clean_sbu_0, # of connection points: 6
#     Node 39, Type 1, BuildingBlock: PAMTUU_clean_sbu_0, # of connection points: 6
#     Edge 40, Type (0, 1), BuildingBlock: EZIPEK_clean_linker_0, # of connection points: 2
#     Edge 41, Type (0, 1), BuildingBlock: EZIPEK_clean_linker_0, # of connection points: 2
#     Edge 42, Type (0, 1), BuildingBlock: EZIPEK_clean_linker_0, # of connection points: 2
#     Edge 43, Type (0, 1), BuildingBlock: EZIPEK_clean_linker_0, # of connection points: 2
#     Edge 44, Type (0, 1), BuildingBlock: EZIPEK_clean_linker_0, # of connection points: 2
#     Edge 45, Type (0, 1), BuildingBlock: EZIPEK_clean_linker_0, # of connection points: 2
#     Edge 46, Type (0, 1), BuildingBlock: EZIPEK_clean_linker_0, # of connection points: 2
#     Edge 47, Type (0, 1), BuildingBlock: EZIPEK_clean_linker_0, # of connection points: 2
#     Edge 48, Type (0, 1), BuildingBlock: EZIPEK_clean_linker_0, # of connection points: 2
#     Edge 49, Type (0, 1), BuildingBlock: EZIPEK_clean_linker_0, # of connection points: 2
#     Edge 50, Type (0, 1), BuildingBlock: EZIPEK_clean_linker_0, # of connection points: 2
#     Edge 51, Type (0, 1), BuildingBlock: EZIPEK_clean_linker_0, # of connection points: 2
#     Edge 52, Type (0, 1), BuildingBlock: EZIPEK_clean_linker_0, # of connection points: 2
#     Edge 53, Type (0, 1), BuildingBlock: EZIPEK_clean_linker_0, # of connection points: 2
#     Edge 54, Type (0, 1), BuildingBlock: EZIPEK_clean_linker_0, # of connection points: 2
#     Edge 55, Type (0, 1), BuildingBlock: EZIPEK_clean_linker_0, # of connection points: 2
#     Edge 56, Type (0, 1), BuildingBlock: EZIPEK_clean_linker_0, # of connection points: 2
#     Edge 57, Type (0, 1), BuildingBlock: EZIPEK_clean_linker_0, # of connection points: 2
#     Edge 58, Type (0, 1), BuildingBlock: EZIPEK_clean_linker_0, # of connection points: 2
#     Edge 59, Type (0, 1), BuildingBlock: EZIPEK_clean_linker_0, # of connection points: 2
#     Edge 60, Type (0, 1), BuildingBlock: EZIPEK_clean_linker_0, # of connection points: 2
#     Edge 61, Type (0, 1), BuildingBlock: EZIPEK_clean_linker_0, # of connection points: 2
#     Edge 62, Type (0, 1), BuildingBlock: EZIPEK_clean_linker_0, # of connection points: 2
#     Edge 63, Type (0, 1), BuildingBlock: EZIPEK_clean_linker_0, # of connection points: 2
#     Edge 64, Type (0, 1), BuildingBlock: EZIPEK_clean_linker_0, # of connection points: 2
#     Edge 65, Type (0, 1), BuildingBlock: EZIPEK_clean_linker_0, # of connection points: 2
#     Edge 66, Type (0, 1), BuildingBlock: EZIPEK_clean_linker_0, # of connection points: 2
#     Edge 67, Type (0, 1), BuildingBlock: EZIPEK_clean_linker_0, # of connection points: 2
#     Edge 68, Type (0, 1), BuildingBlock: EZIPEK_clean_linker_0, # of connection points: 2
#     Edge 69, Type (0, 1), BuildingBlock: EZIPEK_clean_linker_0, # of connection points: 2
#     Edge 70, Type (0, 1), BuildingBlock: EZIPEK_clean_linker_0, # of connection points: 2
#     Edge 71, Type (0, 1), BuildingBlock: EZIPEK_clean_linker_0, # of connection points: 2
#     Edge 72, Type (0, 1), BuildingBlock: EZIPEK_clean_linker_0, # of connection points: 2
#     Edge 73, Type (0, 1), BuildingBlock: EZIPEK_clean_linker_0, # of connection points: 2
#     Edge 74, Type (0, 1), BuildingBlock: EZIPEK_clean_linker_0, # of connection points: 2
#     Edge 75, Type (0, 1), BuildingBlock: EZIPEK_clean_linker_0, # of connection points: 2
#     Edge 76, Type (0, 1), BuildingBlock: EZIPEK_clean_linker_0, # of connection points: 2
#     Edge 77, Type (0, 1), BuildingBlock: EZIPEK_clean_linker_0, # of connection points: 2
#     Edge 78, Type (0, 1), BuildingBlock: EZIPEK_clean_linker_0, # of connection points: 2
#     Edge 79, Type (0, 1), BuildingBlock: EZIPEK_clean_linker_0, # of connection points: 2
#     Edge 80, Type (0, 1), BuildingBlock: EZIPEK_clean_linker_0, # of connection points: 2
#     Edge 81, Type (0, 1), BuildingBlock: EZIPEK_clean_linker_0, # of connection points: 2
#     Edge 82, Type (0, 1), BuildingBlock: EZIPEK_clean_linker_0, # of connection points: 2
#     Edge 83, Type (0, 1), BuildingBlock: EZIPEK_clean_linker_0, # of connection points: 2
#     Edge 84, Type (0, 1), BuildingBlock: EZIPEK_clean_linker_0, # of connection points: 2
#     Edge 85, Type (0, 1), BuildingBlock: EZIPEK_clean_linker_0, # of connection points: 2
#     Edge 86, Type (0, 1), BuildingBlock: EZIPEK_clean_linker_0, # of connection points: 2
#     Edge 87, Type (0, 1), BuildingBlock: EZIPEK_clean_linker_0, # of connection points: 2
#     Edge 88, Type (0, 1), BuildingBlock: EZIPEK_clean_linker_0, # of connection points: 2
#     Edge 89, Type (0, 1), BuildingBlock: EZIPEK_clean_linker_0, # of connection points: 2
#     Edge 90, Type (0, 1), BuildingBlock: EZIPEK_clean_linker_0, # of connection points: 2
#     Edge 91, Type (0, 1), BuildingBlock: EZIPEK_clean_linker_0, # of connection points: 2
#     Edge 92, Type (0, 1), BuildingBlock: EZIPEK_clean_linker_0, # of connection points: 2
#     Edge 93, Type (0, 1), BuildingBlock: EZIPEK_clean_linker_0, # of connection points: 2
#     Edge 94, Type (0, 1), BuildingBlock: EZIPEK_clean_linker_0, # of connection points: 2
#     Edge 95, Type (0, 1), BuildingBlock: EZIPEK_clean_linker_0, # of connection points: 2
#     Edge 96, Type (0, 1), BuildingBlock: EZIPEK_clean_linker_0, # of connection points: 2
#     Edge 97, Type (0, 1), BuildingBlock: EZIPEK_clean_linker_0, # of connection points: 2
#     Edge 98, Type (0, 1), BuildingBlock: EZIPEK_clean_linker_0, # of connection points: 2
#     Edge 99, Type (0, 1), BuildingBlock: EZIPEK_clean_linker_0, # of connection points: 2
#     Edge 100, Type (0, 1), BuildingBlock: EZIPEK_clean_linker_0, # of connection points: 2
#     Edge 101, Type (0, 1), BuildingBlock: EZIPEK_clean_linker_0, # of connection points: 2
#     Edge 102, Type (0, 1), BuildingBlock: EZIPEK_clean_linker_0, # of connection points: 2
#     Edge 103, Type (0, 1), BuildingBlock: EZIPEK_clean_linker_0, # of connection points: 2
#     Edge 104, Type (0, 1), BuildingBlock: EZIPEK_clean_linker_0, # of connection points: 2
#     Edge 105, Type (0, 1), BuildingBlock: EZIPEK_clean_linker_0, # of connection points: 2
#     Edge 106, Type (0, 1), BuildingBlock: EZIPEK_clean_linker_0, # of connection points: 2
#     Edge 107, Type (0, 1), BuildingBlock: EZIPEK_clean_linker_0, # of connection points: 2
#     Edge 108, Type (0, 1), BuildingBlock: EZIPEK_clean_linker_0, # of connection points: 2
#     Edge 109, Type (0, 1), BuildingBlock: EZIPEK_clean_linker_0, # of connection points: 2
#     Edge 110, Type (0, 1), BuildingBlock: EZIPEK_clean_linker_0, # of connection points: 2
#     Edge 111, Type (0, 1), BuildingBlock: EZIPEK_clean_linker_0, # of connection points: 2
#     Edge 112, Type (0, 1), BuildingBlock: EZIPEK_clean_linker_0, # of connection points: 2
#     Edge 113, Type (0, 1), BuildingBlock: EZIPEK_clean_linker_0, # of connection points: 2
#     Edge 114, Type (0, 1), BuildingBlock: EZIPEK_clean_linker_0, # of connection points: 2
#     Edge 115, Type (0, 1), BuildingBlock: EZIPEK_clean_linker_0, # of connection points: 2
#     Edge 116, Type (0, 1), BuildingBlock: EZIPEK_clean_linker_0, # of connection points: 2
#     Edge 117, Type (0, 1), BuildingBlock: EZIPEK_clean_linker_0, # of connection points: 2
#     Edge 118, Type (0, 1), BuildingBlock: EZIPEK_clean_linker_0, # of connection points: 2
#     Edge 119, Type (0, 1), BuildingBlock: EZIPEK_clean_linker_0, # of connection points: 2
#     Edge 120, Type (0, 1), BuildingBlock: EZIPEK_clean_linker_0, # of connection points: 2
#     Edge 121, Type (0, 1), BuildingBlock: EZIPEK_clean_linker_0, # of connection points: 2
#     Edge 122, Type (0, 1), BuildingBlock: EZIPEK_clean_linker_0, # of connection points: 2
#     Edge 123, Type (0, 1), BuildingBlock: EZIPEK_clean_linker_0, # of connection points: 2
#     Edge 124, Type (0, 1), BuildingBlock: EZIPEK_clean_linker_0, # of connection points: 2
#     Edge 125, Type (0, 1), BuildingBlock: EZIPEK_clean_linker_0, # of connection points: 2
#     Edge 126, Type (0, 1), BuildingBlock: EZIPEK_clean_linker_0, # of connection points: 2
#     Edge 127, Type (0, 1), BuildingBlock: EZIPEK_clean_linker_0, # of connection points: 2
#     Edge 128, Type (0, 1), BuildingBlock: EZIPEK_clean_linker_0, # of connection points: 2
#     Edge 129, Type (0, 1), BuildingBlock: EZIPEK_clean_linker_0, # of connection points: 2
#     Edge 130, Type (0, 1), BuildingBlock: EZIPEK_clean_linker_0, # of connection points: 2
#     Edge 131, Type (0, 1), BuildingBlock: EZIPEK_clean_linker_0, # of connection points: 2
#     Edge 132, Type (0, 1), BuildingBlock: EZIPEK_clean_linker_0, # of connection points: 2
#     Edge 133, Type (0, 1), BuildingBlock: EZIPEK_clean_linker_0, # of connection points: 2
#     Edge 134, Type (0, 1), BuildingBlock: EZIPEK_clean_linker_0, # of connection points: 2
#     Edge 135, Type (0, 1), BuildingBlock: EZIPEK_clean_linker_0, # of connection points: 2
# Relax obj value: 0.256
# Max RMSD: 0.382
# Mean RMSD: 0.193
data_MOF--net-gar--node1-TATPOV_clean_sbu_0--node2-PAMTUU_clean_sbu_0--edge1-EZIPEK_clean_linker_0
_symmetry_space_group_name_H-M    P1
_symmetry_Int_Tables_number       1
_symmetry_cell_setting            triclinic
loop_
_symmetry_equiv_pos_as_xyz
'x, y, z'
_cell_length_a     45.713195
_cell_length_b     42.316286
_cell_length_c     45.148436
_cell_angle_alpha  94.557945
_cell_angle_beta   95.401684
_cell_angle_gamma 111.18378
loop_
_atom_site_label
_atom_site_type_symbol
_atom_site_fract_x
_atom_site_fract_y
_atom_site_fract_z
_atom_type_partial_charge
Zn0 Zn 0.04832 0.29814 0.45091 0.0
Zn1 Zn 0.09728 0.31358 0.41673 0.0
O2 O 0.1058 0.36338 0.44865 0.0
O3 O 0.06552 0.3466 0.47467 0.0
O4 O 0.14192 0.31819 0.38744 0.0
O5 O 0.05356 0.25544 0.46812 0.0
O6 O 0.09339 0.26566 0.4418 0.0
C7 C 0.08959 0.37088 0.46882 0.0
C8 C 1.01932 0.30332 0.39263 0.0
O9 O 0.04905 0.31053 0.38779 0.0
O10 O 1.01224 0.29386 0.41785 0.0
C11 C 0.16855 0.31198 0.39196 0.0
O12 O 0.17409 0.30194 0.41797 0.0
C13 C 0.07589 0.24694 0.46014 0.0
Zn14 Zn 0.07245 0.77745 0.72717 0.0
Zn15 Zn 0.08418 0.82684 0.69038 0.0
O16 O 0.03942 0.82426 0.71521 0.0
O17 O 0.03317 0.78523 0.74556 0.0
O18 O 0.09249 0.87559 0.66453 0.0
O19 O 0.11995 0.79307 0.74805 0.0
O20 O 0.13284 0.83125 0.71638 0.0
C21 C 1.02315 0.80722 0.73522 0.0
C22 C 0.07117 0.74669 0.6649 0.0
O23 O 0.0772 0.77821 0.65952 0.0
O24 O 0.06566 0.7396 0.6912 0.0
C25 C 0.07354 0.88612 0.64768 0.0
O26 O 0.04371 0.8655 0.64199 0.0
C27 C 0.14192 0.81506 0.7368 0.0
Zn28 Zn 0.54743 0.79468 0.94783 0.0
Zn29 Zn 0.59514 0.81008 0.91372 0.0
O30 O 0.60374 0.86108 0.94379 0.0
O31 O 0.56251 0.84463 0.96818 0.0
O32 O 0.63996 0.81493 0.88474 0.0
O33 O 0.5541 0.75402 0.96788 0.0
O34 O 0.59225 0.76273 0.93971 0.0
C35 C 0.58654 0.86912 0.96255 0.0
C36 C 0.51618 0.79736 0.89071 0.0
O37 O 0.54594 0.80584 0.88545 0.0
O38 O 0.50985 0.78736 0.91592 0.0
C39 C 0.66781 0.81157 0.89056 0.0
O40 O 0.67457 0.8051 0.91779 0.0
C41 C 0.57579 0.74487 0.95915 0.0
Zn42 Zn 0.57398 0.27617 0.22894 0.0
Zn43 Zn 0.58496 0.32602 0.19232 0.0
O44 O 0.5402 0.32308 0.21725 0.0
O45 O 0.53333 0.28294 0.24662 0.0
O46 O 0.59328 0.3751 0.16687 0.0
O47 O 0.62127 0.2928 0.25097 0.0
O48 O 0.63378 0.33126 0.2195 0.0
C49 C 0.52369 0.30548 0.23685 0.0
C50 C 0.57293 0.24635 0.16523 0.0
O51 O 0.57719 0.27762 0.16005 0.0
O52 O 0.56952 0.23976 0.19206 0.0
C53 C 0.57422 0.38625 0.15083 0.0
O54 O 0.54415 0.36629 0.14603 0.0
C55 C 0.64309 0.31569 0.24038 0.0
Zn56 Zn 0.17003 0.84237 0.10224 0.0
Zn57 Zn 0.13275 0.83145 0.14413 0.0
O58 O 0.1235 0.87101 0.12215 0.0
O59 O 0.15504 0.88131 0.08754 0.0
O60 O 0.10067 0.82249 0.17372 0.0
O61 O 0.14928 0.79058 0.08422 0.0
O62 O 0.12105 0.78164 0.12162 0.0
C63 C 0.13424 0.88817 0.10073 0.0
C64 C 0.20436 0.8512 0.1636 0.0
O65 O 0.17664 0.84464 0.17105 0.0
O66 O 0.20819 0.85248 0.13611 0.0
C67 C 0.09559 0.8466 0.18827 0.0
O68 O 0.11252 0.87843 0.18535 0.0
C69 C 0.13005 0.76971 0.09872 0.0
Zn70 Zn 0.48255 0.77222 0.49031 0.0
Zn71 Zn 0.52825 0.79179 0.45734 0.0
O72 O 0.53833 0.83731 0.48407 0.0
O73 O 0.5001 0.82253 0.51237 0.0
O74 O 0.56295 0.80395 0.43206 0.0
O75 O 0.49737 0.73248 0.50374 0.0
O76 O 0.53524 0.74986 0.47564 0.0
C77 C 0.52367 0.84552 0.50415 0.0
C78 C 0.45986 0.77593 0.42801 0.0
O79 O 0.48938 0.78522 0.42616 0.0
O80 O 0.44978 0.76638 0.4524 0.0
C81 C 0.56104 0.78133 0.41102 0.0
O82 O 0.53663 0.75224 0.40671 0.0
C83 C 0.52123 0.72913 0.4935 0.0
Zn84 Zn 0.6649 0.34861 0.60805 0.0
Zn85 Zn 0.62325 0.33671 0.64575 0.0
O86 O 0.61752 0.37847 0.62462 0.0
O87 O 0.65314 0.39019 0.59386 0.0
O88 O 0.58973 0.32799 0.67323 0.0
O89 O 0.64365 0.29767 0.58823 0.0
O90 O 0.61108 0.28812 0.62222 0.0
C91 C 0.63111 0.39689 0.60497 0.0
C92 C 0.6919 0.34753 0.67001 0.0
O93 O 0.66385 0.34368 0.67504 0.0
O94 O 0.69936 0.35227 0.64382 0.0
C95 C 0.58708 0.35229 0.68977 0.0
O96 O 0.60689 0.38373 0.68943 0.0
C97 C 0.62227 0.2767 0.60076 0.0
Zn98 Zn 0.97918 0.26155 0.98792 0.0
Zn99 Zn 1.02237 0.27933 0.95247 0.0
O100 O 0.03405 0.32553 0.97906 0.0
O101 O 0.99663 0.31275 0.00819 0.0
O102 O 0.05635 0.29131 0.92578 0.0
O103 O 0.99514 0.22307 1.00269 0.0
O104 O 0.03026 0.23759 0.97155 0.0
C105 C 1.02008 0.33502 0.99909 0.0
C106 C 0.95231 0.26275 0.92636 0.0
O107 O 0.98161 0.27276 0.92302 0.0
O108 O 0.94413 0.25278 0.95125 0.0
C109 C 0.06875 0.32086 0.91773 0.0
O110 O 0.05876 0.34517 0.92624 0.0
C111 C 1.01789 0.2184 0.9912 0.0
Zn112 Zn 0.566 0.07057 0.34308 0.0
Zn113 Zn 0.515 0.10217 0.33188 0.0
O114 O 0.52357 0.11496 0.37586 0.0
O115 O 0.56451 0.09833 0.38263 0.0
O116 O 0.49029 0.12729 0.31173 0.0
O117 O 0.59035 0.09281 0.30709 0.0
O118 O 0.55724 0.11386 0.32054 0.0
C119 C 0.54625 0.11221 0.39275 0.0
C120 C 0.49617 0.0253 0.32573 0.0
O121 O 0.48988 0.05212 0.32518 0.0
O122 O 0.5245 0.02696 0.33201 0.0
C123 C 0.46144 0.11081 0.30113 0.0
O124 O 0.44862 0.07796 0.30291 0.0
C125 C 0.56633 0.09975 0.29952 0.0
Zn126 Zn 0.29935 0.28775 0.54876 0.0
Zn127 Zn 0.3344 0.25173 0.55389 0.0
O128 O 0.34405 0.27248 0.51201 0.0
O129 O 0.31548 0.30405 0.50769 0.0
O130 O 0.36386 0.22649 0.55874 0.0
O131 O 0.31346 0.31026 0.594 0.0
O132 O 0.33898 0.27553 0.59836 0.0
C133 C 0.33392 0.29138 0.49635 0.0
C134 C 0.26435 0.21418 0.54758 0.0
O135 O 0.29169 0.21263 0.54928 0.0
O136 O 0.26103 0.24255 0.54616 0.0
C137 C 0.36201 0.20343 0.53804 0.0
O138 O 0.34235 0.19809 0.51336 0.0
C139 C 0.32834 0.29667 0.6108 0.0
Zn140 Zn 0.13027 0.07752 0.82752 0.0
Zn141 Zn 0.16439 0.03743 0.82392 0.0
O142 O 0.15401 0.03534 0.86697 0.0
O143 O 0.12897 0.07115 0.87058 0.0
O144 O 0.19486 0.01354 0.82175 0.0
O145 O 0.09748 0.04187 0.79755 0.0
O146 O 0.12635 0.0104 0.79235 0.0
C147 C 0.13992 0.05076 0.88204 0.0
C148 C 0.19024 0.11323 0.81164 0.0
O149 O 0.19241 0.08451 0.81434 0.0
O150 O 0.16502 0.11783 0.81571 0.0
C151 C 0.22309 0.03064 0.83389 0.0
O152 O 0.22988 0.06092 0.84877 0.0
C153 C 0.10084 0.01546 0.78565 0.0
Zn154 Zn 0.39591 0.93833 0.98071 0.0
Zn155 Zn 0.3612 0.97038 1.00097 0.0
O156 O 0.32939 0.92909 0.97147 0.0
O157 O 0.36088 0.90579 0.95298 0.0
O158 O 0.33368 0.99476 0.01645 0.0
O159 O 0.40326 0.92399 0.02081 0.0
O160 O 0.37802 0.95519 0.03893 0.0
C161 C 0.33351 0.906 0.95433 0.0
C162 C 0.42097 1.0078 0.97191 0.0
O163 O 0.39722 1.00795 0.98457 0.0
O164 O 0.42562 0.98021 0.96731 0.0
C165 C 0.32874 0.01854 1.00384 0.0
O166 O 0.34177 0.02821 0.97972 0.0
C167 C 0.39339 0.93566 0.04275 0.0
Zn168 Zn 0.36946 0.34561 0.06091 0.0
Zn169 Zn 0.3353 0.38287 0.05966 0.0
O170 O 0.32267 0.35547 0.01539 0.0
O171 O 0.35281 0.32542 0.01524 0.0
O172 O 0.30494 0.40817 0.05872 0.0
O173 O 0.35525 0.32739 0.10204 0.0
O174 O 0.33095 0.3635 0.10297 0.0
C175 C 0.33381 0.33621 1.00063 0.0
C176 C 0.40632 0.41819 0.06061 0.0
O177 O 0.37916 0.42043 0.05901 0.0
O178 O 0.40883 0.38966 0.06365 0.0
C179 C 0.31022 0.43511 0.04596 0.0
O180 O 0.33608 0.44736 0.03329 0.0
C181 C 0.34006 0.34222 0.11625 0.0
Zn182 Zn 0.76778 0.18076 0.1059 0.0
Zn183 Zn 0.80311 0.15033 0.09805 0.0
O184 O 0.79777 0.16997 0.05808 0.0
O185 O 0.75381 0.17848 0.06215 0.0
O186 O 0.83257 0.12561 0.09025 0.0
O187 O 0.80169 0.2217 0.12947 0.0
O188 O 0.82599 0.18584 0.13471 0.0
C189 C 0.7747 0.17693 0.04631 0.0
C190 C 0.74182 0.11665 0.12405 0.0
O191 O 0.76267 0.11292 0.10872 0.0
O192 O 0.74095 0.14607 0.12917 0.0
C193 C 0.82206 0.09534 0.0768 0.0
O194 O 0.79156 0.07961 0.06818 0.0
C195 C 0.82306 0.21388 0.14312 0.0
Zn196 Zn 0.15107 0.58981 0.23956 0.0
Zn197 Zn 0.19657 0.5662 0.2528 0.0
O198 O 0.1762 0.55908 0.29028 0.0
O199 O 0.14586 0.58901 0.28308 0.0
O200 O 0.23475 0.55518 0.26174 0.0
O201 O 0.12952 0.54738 0.21172 0.0
O202 O 0.17108 0.53275 0.21662 0.0
C203 C 0.15749 0.57246 0.29949 0.0
C204 C 0.20831 0.63932 0.23784 0.0
O205 O 0.21583 0.61634 0.24912 0.0
O206 O 0.1803 0.63271 0.22592 0.0
C207 C 0.2321 0.52856 0.27397 0.0
O208 O 0.20425 0.50848 0.27972 0.0
C209 C 0.1433 0.52741 0.20439 0.0
Zn210 Zn 0.8693 0.84774 0.55934 0.0
Zn211 Zn 0.83403 0.88376 0.55677 0.0
O212 O 0.82147 0.85557 0.51248 0.0
O213 O 0.85324 0.82732 0.51388 0.0
O214 O 0.80688 0.91285 0.55719 0.0
O215 O 0.85492 0.83004 0.60029 0.0
O216 O 0.8285 0.86412 0.6 0.0
C217 C 0.83377 0.83684 0.49849 0.0
C218 C 0.90571 0.91932 0.55844 0.0
O219 O 0.87826 0.92087 0.55604 0.0
O220 O 0.90876 0.89124 0.56227 0.0
C221 C 0.77902 0.90433 0.54349 0.0
O222 O 0.76538 0.87431 0.52742 0.0
C223 C 0.83839 0.8437 0.61378 0.0
Zn224 Zn 0.973 1.00071 0.22054 0.0
Zn225 Zn 0.95693 0.04913 0.23811 0.0
O226 O 0.99324 0.05283 0.26997 0.0
O227 O 1.0149 0.02087 0.24672 0.0
O228 O 0.93954 0.08438 0.25213 0.0
O229 O 0.96923 1.00893 0.17845 0.0
O230 O 0.97044 0.05909 0.19597 0.0
C231 C 1.01493 0.04067 0.26923 0.0
C232 C 0.91661 0.97573 0.24409 0.0
O233 O 0.91903 1.00643 0.24286 0.0
O234 O 0.93798 0.96582 0.23636 0.0
C235 C 0.93128 0.08296 0.2783 0.0
O236 O 0.93787 0.06218 0.29549 0.0
C237 C 0.97224 0.03903 0.17418 0.0
Zn238 Zn 0.31729 0.75035 0.58246 0.0
Zn239 Zn 0.35029 0.71093 0.57624 0.0
O240 O 0.36468 0.74525 0.54502 0.0
O241 O 0.33665 0.77756 0.55108 0.0
O242 O 0.37365 0.67885 0.56921 0.0
O243 O 0.33645 0.76442 0.62484 0.0
O244 O 0.36509 0.73241 0.62056 0.0
C245 C 0.35687 0.77001 0.53794 0.0
C246 C 0.27693 0.68205 0.56895 0.0
O247 O 0.30324 0.67785 0.56977 0.0
O248 O 0.27616 0.71157 0.57307 0.0
C249 C 0.36403 0.65605 0.54658 0.0
O250 O 0.33939 0.6539 0.52787 0.0
C251 C 0.3563 0.75295 0.63629 0.0
Zn252 Zn 0.47942 0.50254 0.72074 0.0
Zn253 Zn 0.4702 0.55352 0.75062 0.0
O254 O 0.50586 0.55073 0.77893 0.0
O255 O 0.51817 0.51336 0.75068 0.0
O256 O 0.4553 0.5886 0.76818 0.0
O257 O 0.48396 0.52571 0.68388 0.0
O258 O 0.48585 0.57127 0.7124 0.0
C259 C 0.52295 0.53321 0.77465 0.0
C260 C 0.4228 0.47996 0.74547 0.0
O261 O 0.43082 0.51191 0.752 0.0
O262 O 0.43942 0.46805 0.7307 0.0
C263 C 0.4475 0.5879 0.79443 0.0
O264 O 0.45512 0.56833 0.81238 0.0
C265 C 0.48955 0.55735 0.68784 0.0
Zn266 Zn 0.68104 0.09804 0.77007 0.0
Zn267 Zn 0.70526 0.05043 0.75434 0.0
O268 O 0.70418 0.04757 0.79931 0.0
O269 O 0.68576 0.08749 0.81246 0.0
O270 O 0.72599 0.01863 0.74155 0.0
O271 O 0.64141 0.07011 0.74212 0.0
O272 O 0.66249 0.033 0.72879 0.0
C273 C 0.69609 0.06464 0.81918 0.0
C274 C 0.73917 0.12491 0.74502 0.0
O275 O 0.73712 0.09414 0.74352 0.0
O276 O 0.7178 0.13356 0.75491 0.0
C277 C 0.75279 0.02613 0.7569 0.0
O278 O 0.76236 0.05133 0.77886 0.0
C279 C 0.63921 0.04277 0.72677 0.0
Zn280 Zn 0.8016 0.78204 0.0485 0.0
Zn281 Zn 0.83705 0.74637 0.05212 0.0
O282 O 0.84643 0.76831 0.01052 0.0
O283 O 0.81571 0.79752 0.00674 0.0
O284 O 0.86707 0.7215 0.05675 0.0
O285 O 0.81716 0.8053 0.09332 0.0
O286 O 0.84225 0.77006 0.09671 0.0
C287 C 0.83491 0.78631 0.99502 0.0
C288 C 0.76689 0.70874 0.04771 0.0
O289 O 0.79412 0.70703 0.04791 0.0
O290 O 0.76359 0.73719 0.04723 0.0
C291 C 0.86459 0.69685 0.03743 0.0
O292 O 0.84355 0.68896 0.01342 0.0
C293 C 0.83224 0.79148 0.10964 0.0
Zn294 Zn 0.95349 0.50379 0.83417 0.0
Zn295 Zn 0.92512 0.54884 0.84538 0.0
O296 O 0.9605 0.5646 0.88016 0.0
O297 O 0.98392 0.52805 0.87093 0.0
O298 O 0.89777 0.57548 0.85284 0.0
O299 O 0.96121 0.52107 0.79491 0.0
O300 O 0.94083 0.56015 0.80483 0.0
C301 C 0.98198 0.55295 0.88695 0.0
C302 C 0.89155 0.47112 0.84586 0.0
O303 O 0.89305 0.50171 0.84852 0.0
O304 O 0.91483 0.46408 0.83894 0.0
C305 C 0.87957 0.5677 0.87298 0.0
O306 O 0.88169 0.54556 0.89104 0.0
C307 C 0.95464 0.54627 0.7878 0.0
Zn308 Zn 0.83549 0.39757 0.53966 0.0
Zn309 Zn 0.82128 0.45211 0.5318 0.0
O310 O 0.81066 0.4246 0.48949 0.0
O311 O 0.8202 0.3781 0.49674 0.0
O312 O 0.80546 0.49034 0.52852 0.0
O313 O 0.80855 0.38484 0.57277 0.0
O314 O 0.80164 0.43288 0.56848 0.0
C315 C 0.81178 0.3961 0.47932 0.0
C316 C 0.88926 0.46263 0.55023 0.0
O317 O 0.8686 0.47543 0.54363 0.0
O318 O 0.88125 0.43063 0.55019 0.0
C319 C 0.82156 0.52031 0.52327 0.0
O320 O 0.85052 0.52783 0.51675 0.0
C321 C 0.7981 0.40708 0.58241 0.0
Zn322 Zn 0.6409 0.57703 0.33185 0.0
Zn323 Zn 0.66955 0.53248 0.32602 0.0
O324 O 0.65871 0.5287 0.36897 0.0
O325 O 0.63852 0.56873 0.37434 0.0
O326 O 0.69668 0.5051 0.32102 0.0
O327 O 0.60608 0.54554 0.30118 0.0
O328 O 0.63082 0.51013 0.29398 0.0
C329 C 0.64658 0.54579 0.38475 0.0
C330 C 0.70187 0.60892 0.31701 0.0
O331 O 0.70153 0.57899 0.31878 0.0
O332 O 0.67775 0.61578 0.32117 0.0
C333 C 0.72373 0.51753 0.33673 0.0
O334 O 0.73056 0.5444 0.35661 0.0
C335 C 0.60693 0.51838 0.28802 0.0
Tb336 Tb 0.11707 0.08555 0.06519 0.0
Tb337 Tb 0.04114 0.02701 0.03282 0.0
C338 C 0.06628 0.07436 0.09793 0.0
C339 C 0.20181 0.1106 0.06545 0.0
C340 C 0.24667 0.08415 0.04719 0.0
C341 C 0.24864 0.09687 0.07731 0.0
C342 C 0.22636 0.11003 0.08637 0.0
C343 C 0.2006 0.09875 0.03514 0.0
C344 C 0.22284 0.08573 0.02611 0.0
C345 C 0.17564 0.11958 0.07573 0.0
O346 O 0.11231 0.03318 0.07539 0.0
O347 O 0.06755 0.9938 0.04492 0.0
O348 O 0.066 0.02991 0.995 0.0
O349 O 0.11695 0.05931 0.02094 0.0
O350 O 1.00262 0.99475 0.05119 0.0
O351 O 0.9969 1.00666 1.00583 0.0
O352 O 0.04106 0.07739 0.02319 0.0
O353 O 0.09045 0.11663 0.04625 0.0
O354 O 0.09539 0.09418 0.10561 0.0
O355 O 0.06434 0.05962 0.07145 0.0
C356 C 0.09389 1.00122 0.06415 0.0
O357 O 0.15685 0.12535 0.05508 0.0
O358 O 0.15974 0.10026 0.09438 0.0
C359 C 0.09698 0.04345 0.99636 0.0
C360 C 0.95804 1.00708 0.03628 0.0
C361 C 0.91194 0.03288 0.05097 0.0
C362 C 0.90285 0.99951 0.03644 0.0
C363 C 0.92586 0.98664 0.02912 0.0
C364 C 0.96703 0.04029 0.05113 0.0
C365 C 0.94414 0.05308 0.05847 0.0
C366 C 0.98257 0.99432 0.02849 0.0
C367 C 0.06203 0.10912 0.03029 0.0
H368 H 0.26687 0.09574 0.09387 0.0
H369 H 0.22764 0.11867 0.10986 0.0
H370 H 0.18188 0.09846 0.01846 0.0
H371 H 0.22093 0.07597 1.00279 0.0
H372 H 0.87803 0.98367 0.0305 0.0
H373 H 0.91857 0.96096 0.01775 0.0
H374 H 0.9918 0.05637 0.05699 0.0
H375 H 0.95152 0.07885 0.0697 0.0
Tb376 Tb 0.32969 0.84138 0.31888 0.0
Tb377 Tb 0.36963 0.82793 0.26578 0.0
C378 C 0.30835 0.84732 0.2499 0.0
C379 C 0.31827 0.85989 0.39488 0.0
C380 C 0.34652 0.84469 0.44683 0.0
C381 C 0.31356 0.83038 0.43907 0.0
C382 C 0.29947 0.83812 0.41334 0.0
C383 C 0.35085 0.87716 0.40458 0.0
C384 C 0.36486 0.86968 0.43057 0.0
C385 C 0.3058 0.85657 0.36305 0.0
O386 O 0.30038 0.79123 0.29645 0.0
O387 O 0.33288 0.77874 0.26501 0.0
O388 O 0.3921 0.8168 0.3072 0.0
O389 O 0.35672 0.81464 0.34086 0.0
O390 O 0.37526 0.80547 0.22463 0.0
O391 O 0.41548 0.84186 0.25387 0.0
O392 O 0.38012 0.88175 0.2748 0.0
O393 O 0.37716 0.88044 0.32413 0.0
O394 O 0.30573 0.85241 0.27866 0.0
O395 O 0.33132 0.83862 0.24067 0.0
C396 C 0.30616 0.77074 0.27642 0.0
O397 O 0.32227 0.87926 0.34696 0.0
O398 O 0.29723 0.82565 0.3495 0.0
C399 C 0.38234 0.81045 0.33352 0.0
C400 C 0.413 0.8463 0.20225 0.0
C401 C 0.4148 0.88194 0.15246 0.0
C402 C 0.41358 0.84825 0.14885 0.0
C403 C 0.41267 0.83046 0.1737 0.0
C404 C 0.41619 0.88078 0.20596 0.0
C405 C 0.41718 0.89854 0.18116 0.0
C406 C 0.40492 0.82559 0.22694 0.0
C407 C 0.3895 0.89653 0.30214 0.0
H408 H 0.29906 0.81118 0.45161 0.0
H409 H 0.27439 0.82441 0.40625 0.0
H410 H 0.36598 0.89412 0.39081 0.0
H411 H 0.39023 0.88146 0.43679 0.0
H412 H 0.41162 0.83523 0.12667 0.0
H413 H 0.4099 0.80384 0.17043 0.0
H414 H 0.41621 0.8935 0.22775 0.0
H415 H 0.41807 0.92456 0.18413 0.0
Tb416 Tb 0.5352 0.05254 0.56594 0.0
Tb417 Tb 0.60904 0.0646 0.55536 0.0
C418 C 0.58196 0.04167 0.6147 0.0
C419 C 0.46198 0.06887 0.56692 0.0
C420 C 0.43003 0.11361 0.55784 0.0
C421 C 0.42458 0.0938 0.58173 0.0
C422 C 0.44043 0.07149 0.5862 0.0
C423 C 0.4676 0.08896 0.54316 0.0
C424 C 0.4516 0.11104 0.53857 0.0
C425 C 0.47938 0.04623 0.57233 0.0
O426 O 0.56332 0.10591 0.58475 0.0
O427 O 0.6091 0.11674 0.56285 0.0
O428 O 0.58463 0.06758 0.51254 0.0
O429 O 0.54441 0.08177 0.52877 0.0
O430 O 0.65763 0.08079 0.57154 0.0
O431 O 0.63986 0.0579 0.52602 0.0
O432 O 0.58428 1.00928 0.55283 0.0
O433 O 0.53316 1.00532 0.54009 0.0
O434 O 0.55291 0.02993 0.60111 0.0
O435 O 0.60592 0.0616 0.60275 0.0
C436 C 0.58965 0.12754 0.57684 0.0
O437 O 0.48714 0.03313 0.54857 0.0
O438 O 0.50272 0.05756 0.59424 0.0
C439 C 0.56254 0.08035 0.50849 0.0
C440 C 0.6817 0.04531 0.54947 0.0
C441 C 0.71398 0.99968 0.54974 0.0
C442 C 0.72912 0.03328 0.54338 0.0
C443 C 0.71307 0.05591 0.54323 0.0
C444 C 0.66674 0.0119 0.55638 0.0
C445 C 0.68277 0.98926 0.55654 0.0
C446 C 0.66419 0.06843 0.54677 0.0
C447 C 0.55456 0.9912 0.54236 0.0
H448 H 0.40798 0.09557 0.59679 0.0
H449 H 0.43601 0.05642 0.60477 0.0
H450 H 0.48441 0.08768 0.52818 0.0
H451 H 0.45608 0.12618 0.52005 0.0
H452 H 0.75316 0.04176 0.53806 0.0
H453 H 0.72495 0.0815 0.53768 0.0
H454 H 0.64247 1.00312 0.56103 0.0
H455 H 0.67068 0.96343 0.56144 0.0
Tb456 Tb 0.3553 0.30002 0.80969 0.0
Tb457 Tb 0.28659 0.30786 0.79914 0.0
C458 C 0.29209 0.23888 0.80244 0.0
C459 C 0.43514 0.30429 0.79773 0.0
C460 C 0.48526 0.32174 0.76301 0.0
C461 C 0.48246 0.29747 0.78312 0.0
C462 C 0.4575 0.28879 0.80039 0.0
C463 C 0.43803 0.32869 0.7777 0.0
C464 C 0.46299 0.33742 0.76048 0.0
C465 C 0.40851 0.29443 0.81534 0.0
O466 O 0.34331 0.29208 0.76013 0.0
O467 O 0.3015 0.31039 0.75388 0.0
O468 O 0.32024 0.35951 0.80992 0.0
O469 O 0.36277 0.3493 0.79451 0.0
O470 O 0.23814 0.28231 0.80041 0.0
O471 O 0.25582 0.33218 0.78528 0.0
O472 O 0.29601 0.30893 0.84863 0.0
O473 O 0.34892 0.31661 0.8554 0.0
O474 O 0.31915 0.25346 0.81968 0.0
O475 O 0.28241 0.25649 0.78429 0.0
C476 C 0.32331 0.30101 0.7427 0.0
O477 O 0.40284 0.31964 0.82886 0.0
O478 O 0.38259 0.27022 0.80204 0.0
C479 C 0.34755 0.36969 0.79973 0.0
C480 C 0.2098 0.31742 0.80934 0.0
C481 C 0.16779 0.32947 0.8459 0.0
C482 C 0.20033 0.34905 0.8522 0.0
C483 C 0.22135 0.34282 0.83411 0.0
C484 C 0.17721 0.29894 0.80243 0.0
C485 C 0.15632 0.30486 0.82064 0.0
C486 C 0.23114 0.30765 0.79175 0.0
C487 C 0.32276 0.31504 0.86649 0.0
H488 H 0.49946 0.28512 0.78524 0.0
H489 H 0.45554 0.26985 0.81568 0.0
H490 H 0.42092 0.34087 0.77534 0.0
H491 H 0.46483 0.35617 0.74503 0.0
H492 H 0.20946 0.36812 0.87168 0.0
H493 H 0.24654 0.35709 0.83988 0.0
H494 H 0.16802 0.27915 0.78347 0.0
H495 H 0.13127 0.28957 0.81553 0.0
Tb496 Tb 0.08141 0.08916 0.58373 0.0
Tb497 Tb 0.08816 0.04904 0.52318 0.0
C498 C 1.02318 0.02958 0.54654 0.0
C499 C 0.05823 0.09463 0.65628 0.0
C500 C 0.0483 0.04542 0.69595 0.0
C501 C 0.0701 0.07883 0.70495 0.0
C502 C 0.07504 0.10338 0.68519 0.0
C503 C 0.03354 0.06242 0.64883 0.0
C504 C 0.02864 0.03786 0.66862 0.0
C505 C 0.0722 0.11417 0.63229 0.0
O506 O 0.09093 0.04393 0.59993 0.0
O507 O 0.0858 0.0106 0.55556 0.0
O508 O 0.13563 0.07508 0.547 0.0
O509 O 0.12784 0.11903 0.5727 0.0
O510 O 0.07089 1.00949 0.48735 0.0
O511 O 0.11852 0.04604 0.4919 0.0
O512 O 0.08565 0.09768 0.50765 0.0
O513 O 0.07451 0.12295 0.54976 0.0
O514 O 0.03812 0.04468 0.57285 0.0
O515 O 0.03728 0.0356 0.52249 0.0
C516 C 0.08854 0.01411 0.58538 0.0
O517 O 0.09955 0.11276 0.6276 0.0
O518 O 0.05333 0.10929 0.60728 0.0
C519 C 0.14623 0.10684 0.55922 0.0
C520 C 0.09127 0.02892 0.44385 0.0
C521 C 0.0783 0.04051 0.38494 0.0
C522 C 0.09573 0.01993 0.39115 0.0
C523 C 0.10225 0.01418 0.42064 0.0
C524 C 0.0753 0.05089 0.4377 0.0
C525 C 0.0689 0.05672 0.40837 0.0
C526 C 0.09629 0.02159 0.4745 0.0
C527 C 0.07982 0.12351 0.52125 0.0
H528 H 0.08541 0.08493 0.72614 0.0
H529 H 0.09426 0.1279 0.69131 0.0
H530 H 1.02009 0.05496 0.62669 0.0
H531 H 1.01152 0.01227 0.66161 0.0
H532 H 0.10268 1.00692 0.37308 0.0
H533 H 0.11488 0.99745 0.42521 0.0
H534 H 0.06674 0.06248 0.45542 0.0
H535 H 0.05502 0.07224 0.40376 0.0
Tb536 Tb 0.35173 0.85045 0.80555 0.0
Tb537 Tb 0.31552 0.7711 0.80838 0.0
C538 C 0.35144 0.79682 0.75522 0.0
C539 C 0.35752 0.93725 0.80954 0.0
C540 C 0.31979 0.97594 0.81767 0.0
C541 C 0.34419 0.98629 0.79959 0.0
C542 C 0.36288 0.96676 0.79533 0.0
C543 C 0.33398 0.92802 0.82854 0.0
C544 C 0.31522 0.94707 0.83242 0.0
C545 C 0.37343 0.9136 0.80251 0.0
O546 O 0.30164 0.83931 0.78297 0.0
O547 O 0.27395 0.78483 0.79236 0.0
O548 O 0.29777 0.79262 0.84426 0.0
O549 O 0.33259 0.8481 0.84781 0.0
O550 O 0.30019 0.73004 0.83366 0.0
O551 O 0.29604 0.72123 0.7855 0.0
O552 O 0.36693 0.78134 0.82673 0.0
O553 O 0.39261 0.83883 0.82628 0.0
O554 O 0.36956 0.82423 0.77282 0.0
O555 O 0.32431 0.77752 0.76254 0.0
C556 C 0.2738 0.81346 0.78198 0.0
O557 O 0.38101 0.89972 0.82531 0.0
O558 O 0.35948 0.89089 0.77926 0.0
C559 C 0.30965 0.82395 0.85742 0.0
C560 C 0.31493 0.68606 0.81288 0.0
C561 C 0.35651 0.65088 0.81137 0.0
C562 C 0.36327 0.67916 0.83282 0.0
C563 C 0.34268 0.69664 0.83358 0.0
C564 C 0.30764 0.65695 0.7921 0.0
C565 C 0.32834 0.63941 0.79135 0.0
C566 C 0.29603 0.70774 0.81047 0.0
C567 C 0.39372 0.80903 0.83229 0.0
H568 H 0.34796 1.00866 0.78808 0.0
H569 H 0.38077 0.97407 0.78039 0.0
H570 H 0.32915 0.90525 0.83953 0.0
H571 H 0.2964 0.93871 0.84622 0.0
H572 H 0.38504 0.68838 0.84828 0.0
H573 H 0.34918 0.71919 0.8497 0.0
H574 H 0.28662 0.64862 0.77574 0.0
H575 H 0.32297 0.61767 0.77454 0.0
Tb576 Tb 0.55457 0.04187 0.06765 0.0
Tb577 Tb 0.60781 0.08917 0.03469 0.0
C578 C 0.62397 0.05946 0.09161 0.0
C579 C 0.50809 0.01483 0.12692 0.0
C580 C 0.50511 0.03583 0.18638 0.0
C581 C 0.53441 0.0416 0.17634 0.0
C582 C 0.53589 0.03113 0.14697 0.0
C583 C 0.47852 1.00883 0.13679 0.0
C584 C 0.47699 0.01909 0.16671 0.0
C585 C 0.51097 1.00787 0.09535 0.0
O586 O 0.55679 0.09443 0.0838 0.0
O587 O 0.60514 0.12644 0.07198 0.0
O588 O 0.56401 0.09511 0.01861 0.0
O589 O 0.53493 0.0401 0.02187 0.0
O590 O 0.65529 0.12156 0.03494 0.0
O591 O 0.62047 0.1119 0.99603 0.0
O592 O 0.59582 0.03628 0.00952 0.0
O593 O 0.5722 1.0046 0.04511 0.0
O594 O 0.59719 0.05907 0.09974 0.0
O595 O 0.62952 0.06363 0.06405 0.0
C596 C 0.58041 0.12459 0.08616 0.0
O597 O 0.5086 0.03091 0.07884 0.0
O598 O 0.53498 0.99939 0.09039 0.0
C599 C 0.5382 0.06836 0.01056 0.0
C600 C 0.67099 0.11738 0.98669 0.0
C601 C 0.69262 0.08909 0.93936 0.0
C602 C 0.68412 0.11743 0.93612 0.0
C603 C 0.67374 0.13177 0.95976 0.0
C604 C 0.68202 0.09081 0.9909 0.0
C605 C 0.69296 0.07676 0.96725 0.0
C606 C 0.65043 0.1252 0.00669 0.0
C607 C 0.58508 1.00591 0.01987 0.0
H608 H 0.55628 0.05444 0.19136 0.0
H609 H 0.55895 0.03649 0.13982 0.0
H610 H 0.45688 0.9968 0.12137 0.0
H611 H 0.45422 0.01437 0.17441 0.0
H612 H 0.68314 0.12682 0.91457 0.0
H613 H 0.66517 0.15209 0.95608 0.0
H614 H 0.67992 0.07924 0.01155 0.0
H615 H 0.69944 0.05485 0.96999 0.0
Tb616 Tb 0.3267 0.27418 0.29827 0.0
Tb617 Tb 0.35917 0.35276 0.3149 0.0
C618 C 0.33322 0.32231 0.24621 0.0
C619 C 0.31876 0.18782 0.27136 0.0
C620 C 0.36461 0.15969 0.26347 0.0
C621 C 0.33938 0.1435 0.27922 0.0
C622 C 0.31647 0.15748 0.2831 0.0
C623 C 0.34153 0.20131 0.25218 0.0
C624 C 0.36445 0.18722 0.24819 0.0
C625 C 0.30551 0.21021 0.28689 0.0
O626 O 0.37744 0.28329 0.28935 0.0
O627 O 0.4003 0.34127 0.29858 0.0
O628 O 0.37073 0.33358 0.35691 0.0
O629 O 0.32972 0.28267 0.34775 0.0
O630 O 0.38676 0.40047 0.30295 0.0
O631 O 0.36928 0.39674 0.34536 0.0
O632 O 0.30996 0.3425 0.32898 0.0
O633 O 0.28419 0.28679 0.30921 0.0
O634 O 0.33059 0.29207 0.25361 0.0
O635 O 0.3371 0.34716 0.2677 0.0
C636 C 0.40257 0.31185 0.28844 0.0
O637 O 0.32347 0.22711 0.31152 0.0
O638 O 0.29545 0.22971 0.27104 0.0
C639 C 0.35073 0.30692 0.36715 0.0
C640 C 0.36541 0.44003 0.31881 0.0
C641 C 0.33085 0.48114 0.30673 0.0
C642 C 0.36111 0.49558 0.32338 0.0
C643 C 0.3784 0.47493 0.3295 0.0
C644 C 0.33541 0.42602 0.3018 0.0
C645 C 0.31826 0.44642 0.29579 0.0
C646 C 0.38166 0.4171 0.32605 0.0
C647 C 0.28326 0.31465 0.3248 0.0
H648 H 0.33924 0.12218 0.29108 0.0
H649 H 0.29929 0.14694 0.29817 0.0
H650 H 0.34372 0.22483 0.24307 0.0
H651 H 0.38385 0.19998 0.23601 0.0
H652 H 0.37096 0.52246 0.33192 0.0
H653 H 0.40151 0.48596 0.34279 0.0
H654 H 0.325 0.39908 0.29355 0.0
H655 H 0.29489 0.43502 0.28298 0.0
Tb656 Tb 0.58223 0.58871 0.08437 0.0
Tb657 Tb 0.58937 0.5475 0.02519 0.0
C658 C 0.52416 0.52803 0.04813 0.0
C659 C 0.55981 0.5972 0.15707 0.0
C660 C 0.55109 0.55001 0.19848 0.0
C661 C 0.53087 0.54128 0.17141 0.0
C662 C 0.53521 0.56482 0.15072 0.0
C663 C 0.57706 0.60723 0.18578 0.0
C664 C 0.57274 0.58366 0.20641 0.0
C665 C 0.57334 0.61548 0.13229 0.0
O666 O 0.59178 0.54402 0.10197 0.0
O667 O 0.58655 0.50978 0.05823 0.0
O668 O 0.63636 0.5729 0.05011 0.0
O669 O 0.62865 0.61827 0.07283 0.0
O670 O 0.57361 0.50606 0.99117 0.0
O671 O 0.62037 0.5445 0.99465 0.0
O672 O 0.58667 0.59561 0.00809 0.0
O673 O 0.57427 0.62088 0.04937 0.0
O674 O 0.53907 0.54389 0.07427 0.0
O675 O 0.53832 0.53341 0.02403 0.0
C676 C 0.58936 0.51389 0.08799 0.0
O677 O 0.60065 0.61389 0.12772 0.0
O678 O 0.55416 0.60943 0.10732 0.0
C679 C 0.64724 0.6051 0.06095 0.0
C680 C 0.59465 0.52162 0.94676 0.0
C681 C 0.58638 0.52887 0.88609 0.0
C682 C 0.61159 0.52012 0.89761 0.0
C683 C 0.61559 0.51629 0.92796 0.0
C684 C 0.57042 0.532 0.9354 0.0
C685 C 0.56619 0.53537 0.90514 0.0
C686 C 0.59916 0.51803 0.97848 0.0
C687 C 0.58019 0.62143 0.02103 0.0
H688 H 0.51385 0.51548 0.16525 0.0
H689 H 0.52144 0.55638 0.12874 0.0
H690 H 0.59621 0.63192 0.19105 0.0
H691 H 0.58846 0.59067 0.22739 0.0
H692 H 0.6273 0.51513 0.88297 0.0
H693 H 0.63477 0.50892 0.93671 0.0
H694 H 0.55457 0.53707 0.94983 0.0
H695 H 0.54674 0.54232 0.89638 0.0
Tb696 Tb 0.85365 0.3537 0.30075 0.0
Tb697 Tb 0.81996 0.27877 0.32018 0.0
C698 C 0.84471 0.28978 0.25851 0.0
C699 C 0.86175 0.43822 0.28814 0.0
C700 C 0.82177 0.47277 0.30191 0.0
C701 C 0.81216 0.44677 0.27783 0.0
C702 C 0.83201 0.42965 0.2709 0.0
C703 C 0.87237 0.46638 0.31054 0.0
C704 C 0.85242 0.48355 0.31745 0.0
C705 C 0.87766 0.41346 0.28785 0.0
O706 O 0.80227 0.34635 0.28965 0.0
O707 O 0.77865 0.29019 0.29742 0.0
O708 O 0.81485 0.31012 0.35797 0.0
O709 O 0.83681 0.36337 0.34251 0.0
O710 O 0.78757 0.22875 0.30609 0.0
O711 O 0.81481 0.24159 0.34982 0.0
O712 O 0.87069 0.29133 0.33929 0.0
O713 O 0.89526 0.33905 0.31698 0.0
O714 O 0.84199 0.31936 0.25969 0.0
O715 O 0.8455 0.27514 0.28272 0.0
C716 C 0.77604 0.31857 0.28819 0.0
O717 O 0.88384 0.40477 0.31408 0.0
O718 O 0.86537 0.38682 0.26768 0.0
C719 C 0.82302 0.34334 0.36187 0.0
C720 C 0.81207 0.19144 0.32141 0.0
C721 C 0.84705 0.14987 0.31082 0.0
C722 C 0.82879 0.14536 0.33468 0.0
C723 C 0.81167 0.1664 0.34017 0.0
C724 C 0.82924 0.19454 0.29685 0.0
C725 C 0.84674 0.17425 0.29178 0.0
C726 C 0.79801 0.21697 0.32889 0.0
C727 C 0.89737 0.31483 0.33347 0.0
H728 H 0.78856 0.43835 0.2656 0.0
H729 H 0.82295 0.40805 0.25354 0.0
H730 H 0.89505 0.47334 0.32424 0.0
H731 H 0.86011 0.5038 0.33602 0.0
H732 H 0.82863 0.12637 0.34946 0.0
H733 H 0.7988 0.1637 0.35936 0.0
H734 H 0.82989 0.21325 0.28184 0.0
H735 H 0.8604 0.17783 0.27309 0.0
Tb736 Tb 0.09291 0.55275 0.59657 0.0
Tb737 Tb 0.07779 0.57559 0.53444 0.0
C738 C 0.1485 0.59091 0.56338 0.0
C739 C 0.08122 0.54728 0.67241 0.0
C740 C 0.03822 0.56062 0.7071 0.0
C741 C 0.05581 0.58538 0.69029 0.0
C742 C 0.07744 0.57894 0.6734 0.0
C743 C 0.06423 0.52289 0.68994 0.0
C744 C 0.04296 0.52962 0.70736 0.0
C745 C 0.09734 0.53753 0.64867 0.0
O746 O 0.0985 0.60774 0.60679 0.0
O747 O 0.06528 0.60976 0.56711 0.0
O748 O 0.03461 0.53602 0.54168 0.0
O749 O 0.04341 0.54739 0.592 0.0
O750 O 0.08514 0.61613 0.50857 0.0
O751 O 0.05142 0.56577 0.49187 0.0
O752 O 0.08962 0.53044 0.51924 0.0
O753 O 0.09094 0.50846 0.56377 0.0
O754 O 0.13846 0.56749 0.58111 0.0
O755 O 0.12902 0.60044 0.54644 0.0
C756 C 0.08083 0.62318 0.59411 0.0
O757 O 0.07819 0.51626 0.62647 0.0
O758 O 0.11933 0.5627 0.63923 0.0
C759 C 0.02388 0.5343 0.56737 0.0
C760 C 0.08472 0.59484 0.45962 0.0
C761 C 0.11473 0.58513 0.41096 0.0
C762 C 0.08657 0.5913 0.40636 0.0
C763 C 0.07148 0.5961 0.43077 0.0
C764 C 0.11307 0.58902 0.46406 0.0
C765 C 0.12808 0.58419 0.43981 0.0
C766 C 0.0679 0.59579 0.4851 0.0
C767 C 0.09136 0.50512 0.53409 0.0
H768 H 0.0523 0.60933 0.68976 0.0
H769 H 0.09007 0.59824 0.66005 0.0
H770 H 0.06627 0.49812 0.68903 0.0
H771 H 0.02934 0.51019 0.7202 0.0
H772 H 0.07625 0.59203 0.38394 0.0
H773 H 0.04934 0.60005 0.42714 0.0
H774 H 0.12315 0.58746 0.48628 0.0
H775 H 0.1498 0.57939 0.44344 0.0
Tb776 Tb 0.86221 0.79818 0.30896 0.0
Tb777 Tb 0.79056 0.79837 0.29721 0.0
C778 C 0.80235 0.7333 0.30402 0.0
C779 C 0.94374 0.80533 0.29705 0.0
C780 C 0.99368 0.81934 0.26189 0.0
C781 C 0.99158 0.79789 0.28443 0.0
C782 C 0.96676 0.79094 0.30188 0.0
C783 C 0.94588 0.82691 0.27458 0.0
C784 C 0.97072 0.8339 0.25712 0.0
C785 C 0.91722 0.7968 0.31498 0.0
O786 O 0.8497 0.7878 0.25939 0.0
O787 O 0.80623 0.80319 0.25247 0.0
O788 O 0.82062 0.85137 0.30835 0.0
O789 O 0.86543 0.8463 0.29321 0.0
O790 O 0.74288 0.76819 0.29696 0.0
O791 O 0.75658 0.8186 0.28294 0.0
O792 O 0.80021 0.8019 0.34683 0.0
O793 O 0.85421 0.81485 0.35422 0.0
O794 O 0.82908 0.75069 0.32103 0.0
O795 O 0.79124 0.74843 0.28444 0.0
C796 C 0.8289 0.79525 0.24161 0.0
O797 O 0.91031 0.8223 0.3261 0.0
O798 O 0.89188 0.77068 0.30348 0.0
C799 C 0.8479 0.86424 0.29844 0.0
C800 C 0.71024 0.79826 0.30583 0.0
C801 C 0.66321 0.79999 0.34048 0.0
C802 C 0.65549 0.78964 0.30956 0.0
C803 C 0.67896 0.78875 0.2923 0.0
C804 C 0.71828 0.81019 0.33651 0.0
C805 C 0.69479 0.81107 0.35381 0.0
C806 C 0.73327 0.79191 0.28842 0.0
C807 C 0.82733 0.81125 0.36493 0.0
H808 H 1.00906 0.78642 0.28836 0.0
H809 H 0.96541 0.77412 0.31902 0.0
H810 H 0.92831 0.83821 0.27051 0.0
H811 H 0.97196 0.85048 0.23981 0.0
H812 H 0.63115 0.78091 0.29911 0.0
H813 H 0.67249 0.7793 0.26865 0.0
H814 H 0.74239 0.81741 0.34723 0.0
H815 H 0.70093 0.819 0.37772 0.0
Tb816 Tb 0.79056 0.27171 0.80913 0.0
Tb817 Tb 0.84952 0.32355 0.7808 0.0
C818 C 0.77781 0.31309 0.75614 0.0
C819 C 0.75175 0.22091 0.86468 0.0
C820 C 0.76097 0.20451 0.92303 0.0
C821 C 0.74436 0.17864 0.89944 0.0
C822 C 0.73969 0.18679 0.8704 0.0
C823 C 0.76902 0.24666 0.88822 0.0
C824 C 0.77358 0.23852 0.91713 0.0
C825 C 0.7493 0.22937 0.83384 0.0
O826 O 0.7906 0.25155 0.7638 0.0
O827 O 0.84379 0.2716 0.76479 0.0
O828 O 0.87268 0.31309 0.82166 0.0
O829 O 0.83285 0.26352 0.82895 0.0
O830 O 0.87647 0.33422 0.74522 0.0
O831 O 0.88727 0.37109 0.78455 0.0
O832 O 0.82659 0.35207 0.80501 0.0
O833 O 0.81058 0.31734 0.84093 0.0
O834 O 0.76725 0.2968 0.77914 0.0
O835 O 0.80752 0.32134 0.75103 0.0
C836 C 0.81579 0.24914 0.75409 0.0
O837 O 0.75015 0.26018 0.83101 0.0
O838 O 0.7676 0.22089 0.81697 0.0
C839 C 0.86245 0.2852 0.83496 0.0
C840 C 0.88429 0.39002 0.73674 0.0
C841 C 0.84962 0.41088 0.6932 0.0
C842 C 0.87156 0.39681 0.68488 0.0
C843 C 0.889 0.38665 0.70657 0.0
C844 C 0.86541 0.40826 0.74534 0.0
C845 C 0.84825 0.41874 0.7236 0.0
C846 C 0.89054 0.36627 0.75629 0.0
C847 C 0.81806 0.34728 0.83165 0.0
H848 H 0.73524 0.15223 0.90348 0.0
H849 H 0.7271 0.16648 0.85239 0.0
H850 H 0.77928 0.27312 0.88426 0.0
H851 H 0.78677 0.25877 0.93501 0.0
H852 H 0.87308 0.39089 0.66141 0.0
H853 H 0.90334 0.37267 0.69939 0.0
H854 H 0.86136 0.41144 0.76846 0.0
H855 H 0.83201 0.43041 0.73031 0.0
Tb856 Tb 0.82627 0.77625 0.79504 0.0
Tb857 Tb 0.8599 0.85421 0.81453 0.0
C858 C 0.83188 0.82542 0.74408 0.0
C859 C 0.7979 0.68213 0.79875 0.0
C860 C 0.80335 0.63563 0.83768 0.0
C861 C 0.7887 0.65849 0.84586 0.0
C862 C 0.78681 0.68243 0.82673 0.0
C863 C 0.80819 0.65615 0.7891 0.0
C864 C 0.81122 0.63331 0.80851 0.0
C865 C 0.80691 0.71225 0.78274 0.0
O866 O 0.87421 0.78952 0.77786 0.0
O867 O 0.90203 0.84004 0.80582 0.0
O868 O 0.86637 0.83649 0.85812 0.0
O869 O 0.83442 0.78046 0.8451 0.0
O870 O 0.89929 0.89956 0.81417 0.0
O871 O 0.85922 0.90024 0.83483 0.0
O872 O 0.80979 0.84371 0.82695 0.0
O873 O 0.78488 0.78672 0.81123 0.0
O874 O 0.81885 0.79428 0.75138 0.0
O875 O 0.84703 0.85126 0.76525 0.0
C876 C 0.9022 0.81466 0.78649 0.0
O877 O 0.78828 0.72937 0.78024 0.0
O878 O 0.83642 0.73223 0.79019 0.0
C879 C 0.8504 0.80642 0.866 0.0
C880 C 0.88133 0.94425 0.80671 0.0
C881 C 0.84961 0.97683 0.77236 0.0
C882 C 0.8579 0.98686 0.80331 0.0
C883 C 0.87377 0.97062 0.82046 0.0
C884 C 0.87693 0.93764 0.77521 0.0
C885 C 0.86109 0.95399 0.75802 0.0
C886 C 0.88505 0.91855 0.82498 0.0
C887 C 0.78368 0.81528 0.82493 0.0
H888 H 0.78144 0.65984 0.86793 0.0
H889 H 0.77895 0.7025 0.83462 0.0
H890 H 0.81696 0.65564 0.76764 0.0
H891 H 0.82201 0.61545 0.8015 0.0
H892 H 0.84923 1.00466 0.81455 0.0
H893 H 0.87695 0.97601 0.84467 0.0
H894 H 0.88278 0.9175 0.76407 0.0
H895 H 0.85487 0.94616 0.7341 0.0
Tb896 Tb 0.61592 0.59179 0.55943 0.0
Tb897 Tb 0.54504 0.53885 0.53191 0.0
C898 C 0.55945 0.58309 0.59458 0.0
C899 C 0.70068 0.61931 0.57401 0.0
C900 C 0.74895 0.59827 0.55691 0.0
C901 C 0.75252 0.6327 0.55758 0.0
C902 C 0.72841 0.64317 0.56607 0.0
C903 C 0.69773 0.58509 0.5741 0.0
C904 C 0.72172 0.57472 0.56571 0.0
C905 C 0.67289 0.62846 0.577 0.0
O906 O 0.61033 0.5427 0.57751 0.0
O907 O 0.56978 0.50426 0.5437 0.0
O908 O 0.57304 0.54749 0.49497 0.0
O909 O 0.62111 0.55967 0.52238 0.0
O910 O 0.50135 0.50133 0.53749 0.0
O911 O 0.50882 0.52143 0.49537 0.0
O912 O 0.54258 0.58966 0.53151 0.0
O913 O 0.59503 0.62173 0.53186 0.0
O914 O 0.58591 0.60496 0.58816 0.0
O915 O 0.54473 0.55308 0.57896 0.0
C916 C 0.59377 0.51082 0.56522 0.0
O917 O 0.65789 0.62998 0.55151 0.0
O918 O 0.65341 0.61176 0.59481 0.0
C919 C 0.60271 0.55058 0.49684 0.0
C920 C 0.462 0.51939 0.51455 0.0
C921 C 0.42492 0.55931 0.52339 0.0
C922 C 0.43516 0.55552 0.49547 0.0
C923 C 0.45339 0.53559 0.49103 0.0
C924 C 0.4498 0.52146 0.54186 0.0
C925 C 0.4314 0.5412 0.54618 0.0
C926 C 0.48782 0.5061 0.51236 0.0
C927 C 0.56492 0.61839 0.52738 0.0
H928 H 0.77343 0.65111 0.55071 0.0
H929 H 0.73081 0.66949 0.56525 0.0
H930 H 0.67629 0.56602 0.57944 0.0
H931 H 0.71863 0.54804 0.56519 0.0
H932 H 0.4302 0.56917 0.47755 0.0
H933 H 0.46231 0.53455 0.46972 0.0
H934 H 0.45585 0.50936 0.56049 0.0
H935 H 0.4233 0.54351 0.56773 0.0
Tb936 Tb 0.04005 0.54714 0.06363 0.0
Tb937 Tb 0.1093 0.55682 0.04121 0.0
C938 C 0.08862 0.52406 0.1005 0.0
C939 C 0.96981 0.56803 0.07138 0.0
C940 C 0.93659 0.61149 0.06125 0.0
C941 C 0.93415 0.59497 0.08722 0.0
C942 C 0.95067 0.57333 0.09223 0.0
C943 C 0.97248 0.58493 0.04557 0.0
C944 C 0.95593 0.60641 0.04052 0.0
C945 C 0.98708 0.54514 0.07661 0.0
O946 O 0.07272 0.59858 0.08304 0.0
O947 O 0.10812 0.60859 0.04893 0.0
O948 O 0.07688 0.55135 1.00114 0.0
O949 O 0.0434 0.57179 0.02346 0.0
O950 O 0.15891 0.57862 0.05185 0.0
O951 O 0.13714 0.54993 0.00873 0.0
O952 O 0.08547 0.50114 0.03635 0.0
O953 O 0.03415 0.4957 0.04235 0.0
O954 O 0.0593 0.52132 0.09434 0.0
O955 O 0.11132 0.54409 0.08698 0.0
C956 C 0.09449 0.62007 0.06953 0.0
O957 O 0.99081 0.52855 0.05257 0.0
O958 O 1.01305 0.5578 0.09557 0.0
C959 C 0.05421 0.56336 0.99961 0.0
C960 C 0.184 0.54448 0.02994 0.0
C961 C 0.22377 0.50706 0.03614 0.0
C962 C 0.23662 0.54222 0.03394 0.0
C963 C 0.21687 0.56083 0.03099 0.0
C964 C 0.17116 0.50924 0.03203 0.0
C965 C 0.19092 0.49071 0.03531 0.0
C966 C 0.16343 0.56436 0.02693 0.0
C967 C 0.0552 0.48236 0.03558 0.0
H968 H 0.91928 0.59866 0.10342 0.0
H969 H 0.94841 0.56066 0.11229 0.0
H970 H 0.98724 0.58141 0.02919 0.0
H971 H 0.95805 0.61895 0.02038 0.0
H972 H 0.26193 0.55521 0.03454 0.0
H973 H 0.22722 0.58797 0.02944 0.0
H974 H 0.14585 0.49604 0.03101 0.0
H975 H 0.18061 0.46359 0.03692 0.0
C976 C 0.03399 0.16626 0.9797 0.0
C977 C 0.03032 0.19096 1.00107 0.0
C978 C 0.0456 0.1607 0.04142 0.0
C979 C 0.05216 0.13814 0.02026 0.0
N980 N 0.05681 0.12328 0.96887 0.0
N981 N 0.03966 0.215 0.05294 0.0
C982 C 0.04755 0.14213 0.9893 0.0
C983 C 0.03807 0.18899 0.0321 0.0
N984 N 1.02293 0.16446 0.95019 0.0
N985 N 0.04506 0.15421 0.0705 0.0
H986 H 0.03555 0.23657 0.04727 0.0
H987 H 0.04831 0.2169 0.07546 0.0
H988 H 0.04957 0.13346 0.07771 0.0
H989 H 0.03706 0.16709 0.08652 0.0
H990 H 1.02162 0.14492 0.93397 0.0
H991 H 1.01214 0.18061 0.94231 0.0
H992 H 0.05759 0.12745 0.94649 0.0
H993 H 0.06636 0.10536 0.97489 0.0
C994 C 0.23689 0.82028 0.18741 0.0
C995 C 0.23105 0.85095 0.186 0.0
C996 C 0.27559 0.87958 0.22672 0.0
C997 C 0.28277 0.84938 0.22681 0.0
N998 N 0.2722 0.79209 0.20346 0.0
N999 N 0.2468 0.9109 0.20183 0.0
C1000 C 0.26413 0.82022 0.20588 0.0
C1001 C 0.25095 0.88089 0.20506 0.0
N1002 N 0.21539 0.7905 0.17204 0.0
N1003 N 0.29242 0.90718 0.24736 0.0
H1004 H 0.22864 0.9124 0.18686 0.0
H1005 H 0.26231 0.93459 0.21241 0.0
H1006 H 0.31208 0.90838 0.26177 0.0
H1007 H 0.2862 0.92835 0.25121 0.0
H1008 H 0.21578 0.76648 0.17492 0.0
H1009 H 0.19526 0.78932 0.15832 0.0
H1010 H 0.26258 0.77233 0.1859 0.0
H1011 H 0.28976 0.78895 0.2179 0.0
C1012 C 0.52726 0.90457 0.49305 0.0
C1013 C 0.53114 0.88273 0.51432 0.0
C1014 C 0.54563 0.93098 0.55443 0.0
C1015 C 0.54515 0.95356 0.53277 0.0
N1016 N 0.53942 0.9625 0.48087 0.0
N1017 N 0.54785 0.8763 0.56488 0.0
C1018 C 0.53695 0.94047 0.50192 0.0
C1019 C 0.5413 0.89627 0.54495 0.0
N1020 N 0.513 0.89084 0.46452 0.0
N1021 N 0.5489 0.94233 0.58418 0.0
H1022 H 0.54485 0.85092 0.55877 0.0
H1023 H 0.5587 0.8856 0.58679 0.0
H1024 H 0.55109 0.96706 0.5918 0.0
H1025 H 0.54639 0.92652 0.60106 0.0
H1026 H 0.50607 0.90463 0.44906 0.0
H1027 H 0.50537 0.86487 0.45699 0.0
H1028 H 0.53748 0.95519 0.45797 0.0
H1029 H 0.54593 0.98876 0.48639 0.0
C1030 C 0.52921 0.32841 0.69482 0.0
C1031 C 0.56103 0.34527 0.70849 0.0
C1032 C 0.54265 0.3506 0.75726 0.0
C1033 C 0.5113 0.33029 0.74415 0.0
N1034 N 0.47516 0.29522 0.70145 0.0
N1035 N 0.5986 0.36748 0.75348 0.0
C1036 C 0.50467 0.31787 0.71318 0.0
C1037 C 0.56795 0.35518 0.73993 0.0
N1038 N 0.52223 0.32381 0.66428 0.0
N1039 N 0.54814 0.36622 0.78603 0.0
H1040 H 0.61781 0.37052 0.74171 0.0
H1041 H 0.60482 0.37168 0.77665 0.0
H1042 H 0.53017 0.36342 0.79942 0.0
H1043 H 0.56997 0.3843 0.79569 0.0
H1044 H 0.49921 0.31492 0.6532 0.0
H1045 H 0.5394 0.33207 0.64999 0.0
H1046 H 0.46992 0.28241 0.67979 0.0
H1047 H 0.45647 0.28693 0.71413 0.0
C1048 C 0.10582 0.93502 0.61598 0.0
C1049 C 0.0821 0.92209 0.63532 0.0
C1050 C 0.06204 0.96795 0.62063 0.0
C1051 C 0.08702 0.98265 0.60309 0.0
N1052 N 0.13563 0.9812 0.58813 0.0
N1053 N 0.04264 0.93397 0.66087 0.0
C1054 C 0.10967 0.96631 0.60202 0.0
C1055 C 0.0618 0.94093 0.63885 0.0
N1056 N 0.12403 0.9166 0.60971 0.0
N1057 N 0.03715 0.97856 0.61896 0.0
H1058 H 0.04279 0.91617 0.67555 0.0
H1059 H 0.02951 0.94854 0.66686 0.0
H1060 H 0.03616 0.99786 0.60646 0.0
H1061 H 1.01621 0.96593 0.62753 0.0
H1062 H 0.13913 0.92161 0.59333 0.0
H1063 H 0.12237 0.89471 0.61967 0.0
H1064 H 0.15484 0.97345 0.58892 0.0
H1065 H 0.13906 1.00325 0.57783 0.0
C1066 C 0.46802 0.77978 0.84673 0.0
C1067 C 0.4883 0.80354 0.87129 0.0
C1068 C 0.44587 0.82924 0.87163 0.0
C1069 C 0.42645 0.80686 0.8458 0.0
N1070 N 0.42497 0.76552 0.80536 0.0
N1071 N 0.49729 0.85525 0.90315 0.0
C1072 C 0.43929 0.78342 0.8326 0.0
C1073 C 0.47725 0.82949 0.88231 0.0
N1074 N 0.47555 0.75264 0.83722 0.0
N1075 N 0.43363 0.84931 0.88741 0.0
H1076 H 0.51986 0.85646 0.91128 0.0
H1077 H 0.49297 0.87704 0.91005 0.0
H1078 H 0.41109 0.84938 0.88126 0.0
H1079 H 0.44433 0.86327 0.90817 0.0
H1080 H 0.46026 0.73199 0.82227 0.0
H1081 H 0.49638 0.74993 0.84594 0.0
H1082 H 0.4351 0.7518 0.79244 0.0
H1083 H 0.40482 0.7676 0.7943 0.0
C1084 C 0.59323 0.22063 0.11858 0.0
C1085 C 0.57287 0.21638 0.14161 0.0
C1086 C 0.56156 0.15329 0.13083 0.0
C1087 C 0.57858 0.15684 0.10538 0.0
N1088 N 0.60383 0.19678 0.07158 0.0
N1089 N 0.5294 0.17451 0.16052 0.0
C1090 C 0.59249 0.19139 0.09837 0.0
C1091 C 0.55466 0.18147 0.14485 0.0
N1092 N 0.61449 0.2524 0.11634 0.0
N1093 N 0.55325 0.12347 0.14333 0.0
H1094 H 0.52177 0.19339 0.16908 0.0
H1095 H 0.51359 0.14969 0.16119 0.0
H1096 H 0.56044 0.10367 0.13643 0.0
H1097 H 0.54321 0.12049 0.16322 0.0
H1098 H 0.63217 0.25664 0.10247 0.0
H1099 H 0.61646 0.27404 0.13032 0.0
H1100 H 0.61139 0.22066 0.06392 0.0
H1101 H 0.60207 0.17697 0.05543 0.0
C1102 C 0.20301 0.28321 0.36439 0.0
C1103 C 0.19402 0.31239 0.3692 0.0
C1104 C 0.24068 0.34205 0.34091 0.0
C1105 C 0.25182 0.31398 0.33944 0.0
N1106 N 0.24413 0.26003 0.35804 0.0
N1107 N 0.20932 0.37187 0.36379 0.0
C1108 C 0.2328 0.2852 0.35325 0.0
C1109 C 0.21434 0.34231 0.35774 0.0
N1110 N 0.18232 0.25239 0.36993 0.0
N1111 N 0.25446 0.36848 0.3251 0.0
H1112 H 0.19045 0.37269 0.37474 0.0
H1113 H 0.22487 0.39563 0.35982 0.0
H1114 H 0.27222 0.36888 0.3121 0.0
H1115 H 0.24619 0.38814 0.32238 0.0
H1116 H 0.185 0.22938 0.36401 0.0
H1117 H 0.16057 0.24942 0.37719 0.0
H1118 H 0.23384 0.24057 0.37091 0.0
H1119 H 0.2659 0.26074 0.35242 0.0
C1120 C 0.98939 0.02703 0.12599 0.0
C1121 C 0.98625 0.05172 0.14684 0.0
C1122 C 0.03381 0.09461 0.13261 0.0
C1123 C 0.03976 0.06775 0.1162 0.0
N1124 N 0.02783 1.00708 0.10787 0.0
N1125 N 0.9967 0.11114 0.15969 0.0
C1126 C 1.01861 0.03359 0.11535 0.0
C1127 C 1.00591 0.0864 0.14715 0.0
N1128 N 0.96476 0.99672 0.11739 0.0
N1129 N 0.05529 0.12737 0.1356 0.0
H1130 H 0.97471 0.10513 0.16732 0.0
H1131 H 1.00859 0.13717 0.15931 0.0
H1132 H 0.07571 0.13459 0.12526 0.0
H1133 H 0.05396 0.14736 0.14967 0.0
H1134 H 0.96557 0.97847 0.10086 0.0
H1135 H 0.94269 0.99198 0.12467 0.0
H1136 H 1.01423 0.98187 0.11033 0.0
H1137 H 0.05001 0.01059 0.10162 0.0
C1138 C 0.38001 0.82633 0.52055 0.0
C1139 C 0.36997 0.79046 0.51388 0.0
C1140 C 0.36038 0.79556 0.46072 0.0
C1141 C 0.36158 0.82916 0.46879 0.0
N1142 N 0.37584 0.8785 0.50557 0.0
N1143 N 0.35525 0.74089 0.47723 0.0
C1144 C 0.37328 0.84555 0.49836 0.0
C1145 C 0.36256 0.77516 0.4837 0.0
N1146 N 0.39487 0.84137 0.54856 0.0
N1147 N 0.35663 0.78326 0.43112 0.0
H1148 H 0.35842 0.72565 0.49329 0.0
H1149 H 0.34545 0.72738 0.45612 0.0
H1150 H 0.35481 0.79782 0.41394 0.0
H1151 H 0.35837 0.76016 0.42365 0.0
H1152 H 0.4048 0.86769 0.55461 0.0
H1153 H 0.39974 0.82711 0.56485 0.0
H1154 H 0.38092 0.89064 0.52745 0.0
H1155 H 0.37142 0.8933 0.48962 0.0
C1156 C 0.58853 0.04026 0.69869 0.0
C1157 C 0.61263 0.02687 0.70202 0.0
C1158 C 0.60666 0.01141 0.64824 0.0
C1159 C 0.58819 0.03193 0.64449 0.0
N1160 N 0.55894 0.06375 0.66569 0.0
N1161 N 0.62853 0.98197 0.6827 0.0
C1162 C 0.57742 0.04483 0.66954 0.0
C1163 C 0.61651 1.00652 0.67759 0.0
N1164 N 0.57633 0.048 0.72347 0.0
N1165 N 0.61605 0.99807 0.62402 0.0
H1166 H 0.63309 0.97633 0.70435 0.0
H1167 H 0.63001 0.96458 0.6658 0.0
H1168 H 0.6085 1.0002 0.60208 0.0
H1169 H 0.63263 0.98648 0.62575 0.0
H1170 H 0.55713 0.05575 0.72273 0.0
H1171 H 0.58356 0.04288 0.7446 0.0
H1172 H 0.55332 0.07696 0.68332 0.0
H1173 H 0.55055 0.06797 0.64468 0.0
C1174 C 0.32503 0.29791 0.95037 0.0
C1175 C 0.32798 0.32985 0.96598 0.0
C1176 C 0.32211 0.34983 0.91584 0.0
C1177 C 0.32355 0.31968 0.90072 0.0
N1178 N 0.33245 0.26738 0.90553 0.0
N1179 N 0.33728 0.38936 0.96155 0.0
C1180 C 0.32689 0.29452 0.91861 0.0
C1181 C 0.32833 0.35657 0.94813 0.0
N1182 N 0.31902 0.27006 0.96556 0.0
N1183 N 0.31548 0.37273 0.89941 0.0
H1184 H 0.34491 0.39667 0.98436 0.0
H1185 H 0.34097 0.41019 0.94954 0.0
H1186 H 0.31249 0.36981 0.87603 0.0
H1187 H 0.31043 0.39309 0.909 0.0
H1188 H 0.31356 0.24544 0.95502 0.0
H1189 H 0.31576 0.27087 0.98812 0.0
H1190 H 0.33846 0.25025 0.91778 0.0
H1191 H 0.33387 0.26368 0.8827 0.0
C1192 C 1.02235 0.01081 0.31265 0.0
C1193 C 0.03331 0.04033 0.29759 0.0
C1194 C 0.07718 0.06798 0.3379 0.0
C1195 C 0.06437 0.0398 0.35405 0.0
N1196 N 1.02214 0.98694 0.35947 0.0
N1197 N 0.0691 0.09793 0.29598 0.0
C1198 C 0.03638 0.01177 0.34208 0.0
C1199 C 0.06022 0.06925 0.31022 0.0
N1200 N 0.99847 0.98171 0.29887 0.0
N1201 N 0.10567 0.09312 0.34895 0.0
H1202 H 0.05768 0.09904 0.27517 0.0
H1203 H 0.08651 0.12114 0.30536 0.0
H1204 H 0.11838 0.09282 0.36931 0.0
H1205 H 0.1178 0.1129 0.33716 0.0
H1206 H 0.99258 0.9582 0.30713 0.0
H1207 H 0.98572 0.98011 0.27812 0.0
H1208 H 0.99946 0.96857 0.35343 0.0
H1209 H 0.03169 0.98612 0.38116 0.0
C1210 C 0.35785 0.73977 0.68942 0.0
C1211 C 0.36766 0.76354 0.66855 0.0
C1212 C 0.37249 0.81054 0.70608 0.0
C1213 C 0.36151 0.78673 0.72688 0.0
N1214 N 0.35481 0.73108 0.7416 0.0
N1215 N 0.3955 0.82132 0.65987 0.0
C1216 C 0.35793 0.75208 0.71963 0.0
C1217 C 0.37924 0.79894 0.67818 0.0
N1218 N 0.34639 0.70551 0.68011 0.0
N1219 N 0.37371 0.84326 0.71149 0.0
H1220 H 0.40035 0.81292 0.63918 0.0
H1221 H 0.40681 0.84747 0.66653 0.0
H1222 H 0.36702 0.85263 0.73064 0.0
H1223 H 0.3784 0.8603 0.69553 0.0
H1224 H 0.33493 0.68713 0.69351 0.0
H1225 H 0.34696 0.69547 0.65845 0.0
H1226 H 0.35493 0.7065 0.73804 0.0
H1227 H 0.35537 0.73944 0.76407 0.0
C1228 C 0.67034 0.04049 0.86233 0.0
C1229 C 0.69852 0.05843 0.85069 0.0
C1230 C 0.72588 0.08048 0.90136 0.0
C1231 C 0.69618 0.07001 0.91195 0.0
N1232 N 0.64032 0.03629 0.90441 0.0
N1233 N 0.75416 0.09306 0.85827 0.0
C1234 C 0.66852 0.04798 0.89313 0.0
C1235 C 0.72692 0.07695 0.87003 0.0
N1236 N 0.64533 0.01718 0.8436 0.0
N1237 N 0.75277 0.09426 0.92137 0.0
H1238 H 0.75569 0.08991 0.83538 0.0
H1239 H 0.77471 0.11046 0.87097 0.0
H1240 H 0.75187 0.09668 0.94439 0.0
H1241 H 0.7754 0.09992 0.91541 0.0
H1242 H 0.62464 1.0014 0.85083 0.0
H1243 H 0.64658 0.01164 0.8209 0.0
H1244 H 0.61858 0.02327 0.89133 0.0
H1245 H 0.63865 0.04068 0.92713 0.0
C1246 C 0.31294 0.30902 0.15845 0.0
C1247 C 0.33663 0.33799 0.14956 0.0
C1248 C 0.35871 0.35604 0.20365 0.0
C1249 C 0.33348 0.32865 0.21288 0.0
N1250 N 0.28333 0.28238 0.19799 0.0
N1251 N 0.37918 0.39217 0.16507 0.0
C1252 C 0.30979 0.30602 0.18987 0.0
C1253 C 0.35842 0.36245 0.17266 0.0
N1254 N 0.2935 0.28392 0.13678 0.0
N1255 N 0.38444 0.37471 0.22409 0.0
H1256 H 0.38074 0.39733 0.14294 0.0
H1257 H 0.39301 0.41282 0.18079 0.0
H1258 H 0.38661 0.37015 0.24636 0.0
H1259 H 0.40514 0.39229 0.21835 0.0
H1260 H 0.27824 0.26031 0.14136 0.0
H1261 H 0.29428 0.28586 0.11395 0.0
H1262 H 0.26368 0.26735 0.1828 0.0
H1263 H 0.27967 0.2801 0.2203 0.0
C1264 C 0.27591 0.01548 0.01792 0.0
C1265 C 0.30813 0.03519 0.01614 0.0
C1266 C 0.29993 0.08739 0.03389 0.0
C1267 C 0.2684 0.06736 0.03771 0.0
N1268 N 0.22806 0.01193 0.03891 0.0
N1269 N 0.35251 0.08878 0.02784 0.0
C1270 C 0.25691 0.03124 0.0314 0.0
C1271 C 0.32064 0.07088 0.02562 0.0
N1272 N 0.26299 0.9821 1.0054 0.0
N1273 N 0.30979 0.12221 0.03725 0.0
H1274 H 0.36849 0.07748 0.02251 0.0
H1275 H 0.36347 0.11405 0.03757 0.0
H1276 H 0.29544 0.13521 0.04366 0.0
H1277 H 0.33126 0.13813 0.03144 0.0
H1278 H 0.23885 0.96756 1.00303 0.0
H1279 H 0.2759 0.9697 0.99486 0.0
H1280 H 0.21986 0.98543 0.03785 0.0
H1281 H 0.21342 0.02254 0.04876 0.0
C1282 C 0.73249 0.66837 0.07941 0.0
C1283 C 0.739 0.67799 0.05055 0.0
C1284 C 0.68684 0.63737 0.02814 0.0
C1285 C 0.67989 0.62779 0.05701 0.0
N1286 N 0.69774 0.62909 0.10909 0.0
N1287 N 0.72635 0.66649 0.99701 0.0
C1288 C 0.7033 0.64178 0.08238 0.0
C1289 C 0.7174 0.66076 0.02478 0.0
N1290 N 0.7539 0.6854 0.10401 0.0
N1291 N 0.66372 0.62562 1.00412 0.0
H1292 H 0.74859 0.68368 0.99394 0.0
H1293 H 0.71307 0.65212 0.97718 0.0
H1294 H 0.64146 0.60778 1.00533 0.0
H1295 H 0.66583 0.63512 0.98352 0.0
H1296 H 0.74928 0.68282 0.126 0.0
H1297 H 0.77621 0.70346 0.10243 0.0
H1298 H 0.71468 0.63577 0.12792 0.0
H1299 H 0.67659 0.60966 0.11182 0.0
C1300 C 0.75918 0.48522 0.34616 0.0
C1301 C 0.74935 0.50666 0.32847 0.0
C1302 C 0.79068 0.51035 0.29653 0.0
C1303 C 0.79838 0.48624 0.31236 0.0
N1304 N 0.78839 0.44764 0.35014 0.0
N1305 N 0.75366 0.53826 0.28575 0.0
C1306 C 0.78234 0.47294 0.33676 0.0
C1307 C 0.76453 0.51887 0.30332 0.0
N1308 N 0.74659 0.47693 0.37209 0.0
N1309 N 0.80899 0.52573 0.27558 0.0
H1310 H 0.73556 0.54647 0.29074 0.0
H1311 H 0.76119 0.54461 0.26522 0.0
H1312 H 0.82828 0.5199 0.27005 0.0
H1313 H 0.80683 0.54612 0.26538 0.0
H1314 H 0.75523 0.46461 0.38776 0.0
H1315 H 0.72874 0.48451 0.37906 0.0
H1316 H 0.77506 0.43418 0.3657 0.0
H1317 H 0.80544 0.43818 0.34416 0.0
C1318 C 0.94109 0.48068 0.58331 0.0
C1319 C 0.92304 0.48494 0.55764 0.0
C1320 C 0.97015 0.53018 0.54627 0.0
C1321 C 0.98916 0.52042 0.56751 0.0
N1322 N 0.99245 0.48334 0.60483 0.0
N1323 N 0.92195 0.51092 0.51178 0.0
C1324 C 0.97463 0.49515 0.58602 0.0
C1325 C 0.93784 0.5092 0.53844 0.0
N1326 N 0.92623 0.46345 0.60534 0.0
N1327 N 0.98282 0.55981 0.5339 0.0
H1328 H 0.89867 0.49495 0.50406 0.0
H1329 H 0.93305 0.52589 0.49583 0.0
H1330 H 1.00613 0.57671 0.54019 0.0
H1331 H 0.96919 0.56946 0.52024 0.0
H1332 H 0.93831 0.46238 0.62577 0.0
H1333 H 0.90165 0.45356 0.60458 0.0
H1334 H 0.98262 0.46244 0.61636 0.0
H1335 H 1.01702 0.49226 0.6069 0.0
C1336 C 0.43669 0.15467 0.3069 0.0
C1337 C 0.44131 0.1284 0.28867 0.0
C1338 C 0.39832 0.12629 0.25074 0.0
C1339 C 0.39386 0.15249 0.26901 0.0
N1340 N 0.41399 0.19818 0.30997 0.0
N1341 N 0.43232 0.0951 0.24049 0.0
C1342 C 0.415 0.16903 0.29547 0.0
C1343 C 0.42394 0.1161 0.25962 0.0
N1344 N 0.45092 0.16404 0.33596 0.0
N1345 N 0.37743 0.11045 0.22555 0.0
H1346 H 0.45121 0.08752 0.24633 0.0
H1347 H 0.42253 0.08767 0.2181 0.0
H1348 H 0.35926 0.11842 0.21793 0.0
H1349 H 0.37711 0.08851 0.21309 0.0
H1350 H 0.44526 0.17997 0.35127 0.0
H1351 H 0.46635 0.15367 0.34584 0.0
H1352 H 0.43107 0.21334 0.32744 0.0
H1353 H 0.39784 0.20907 0.3028 0.0
C1354 C 0.41305 0.19453 0.55016 0.0
C1355 C 0.37961 0.18061 0.54293 0.0
C1356 C 0.37985 0.12278 0.5424 0.0
C1357 C 0.41276 0.13678 0.55267 0.0
N1358 N 0.45997 0.18593 0.57126 0.0
N1359 N 0.33046 0.13189 0.53876 0.0
C1360 C 0.42921 0.17269 0.55797 0.0
C1361 C 0.36276 0.14482 0.54079 0.0
N1362 N 0.4295 0.22833 0.54842 0.0
N1363 N 0.36505 0.08855 0.53333 0.0
H1364 H 0.31694 0.14715 0.53868 0.0
H1365 H 0.31728 0.10634 0.54031 0.0
H1366 H 0.37679 0.07152 0.53392 0.0
H1367 H 0.34186 0.07756 0.52261 0.0
H1368 H 0.4541 0.23912 0.55037 0.0
H1369 H 0.41856 0.24504 0.54224 0.0
H1370 H 0.47212 0.21181 0.57855 0.0
H1371 H 0.47257 0.17074 0.57743 0.0
C1372 C 0.74762 0.66015 0.34043 0.0
C1373 C 0.7318 0.63703 0.31454 0.0
C1374 C 0.76989 0.67232 0.28442 0.0
C1375 C 0.78183 0.69841 0.30917 0.0
N1376 N 0.77874 0.71841 0.36013 0.0
N1377 N 0.72727 0.61986 0.26168 0.0
C1378 C 0.77029 0.69249 0.33722 0.0
C1379 C 0.74302 0.64248 0.28647 0.0
N1380 N 0.74085 0.65117 0.36817 0.0
N1381 N 0.78451 0.67607 0.25916 0.0
H1382 H 0.70816 0.5973 0.26276 0.0
H1383 H 0.73197 0.62422 0.23994 0.0
H1384 H 0.80451 0.69745 0.25731 0.0
H1385 H 0.77873 0.6569 0.24124 0.0
H1386 H 0.75399 0.6656 0.38805 0.0
H1387 H 0.72418 0.62759 0.37129 0.0
H1388 H 0.76804 0.71654 0.37964 0.0
H1389 H 0.79433 0.74284 0.35861 0.0
C1390 C 0.8687 0.42356 0.87578 0.0
C1391 C 0.8638 0.44375 0.85357 0.0
C1392 C 0.81107 0.40134 0.83743 0.0
C1393 C 0.82101 0.3778 0.85149 0.0
N1394 N 0.85035 0.36765 0.89373 0.0
N1395 N 0.82798 0.4553 0.81688 0.0
C1396 C 0.84661 0.38965 0.87461 0.0
C1397 C 0.83373 0.43436 0.83623 0.0
N1398 N 0.89473 0.43677 0.89701 0.0
N1399 N 0.78092 0.3905 0.82314 0.0
H1400 H 0.84416 0.47967 0.81541 0.0
H1401 H 0.8075 0.44818 0.80164 0.0
H1402 H 0.76523 0.36541 0.82329 0.0
H1403 H 0.77111 0.40652 0.81341 0.0
H1404 H 0.90002 0.42361 0.91391 0.0
H1405 H 0.91045 0.46206 0.89846 0.0
H1406 H 0.86968 0.37327 0.91011 0.0
H1407 H 0.83268 0.34364 0.89354 0.0
C1408 C 0.12316 0.94328 0.1133 0.0
C1409 C 0.12311 0.91677 0.09159 0.0
C1410 C 0.10805 0.9481 0.05209 0.0
C1411 C 0.10402 0.97207 0.0738 0.0
N1412 N 0.1045 0.98897 0.12626 0.0
N1413 N 0.10904 0.89154 0.03993 0.0
C1414 C 0.11068 0.96859 0.10472 0.0
C1415 C 0.11369 0.91858 0.0609 0.0
N1416 N 0.1369 0.94573 0.14203 0.0
N1417 N 0.10871 0.95468 0.02303 0.0
H1418 H 0.11185 0.86921 0.04532 0.0
H1419 H 0.09917 0.88988 0.01782 0.0
H1420 H 0.10759 0.97729 0.01645 0.0
H1421 H 0.11447 0.9401 0.00654 0.0
H1422 H 0.14097 0.96645 0.1581 0.0
H1423 H 0.14735 0.92896 0.14908 0.0
H1424 H 0.10489 0.98487 0.14872 0.0
H1425 H 0.09652 1.00834 0.12147 0.0
C1426 C 0.92824 0.25766 0.87151 0.0
C1427 C 0.92841 0.26691 0.90263 0.0
C1428 C 0.88237 0.28313 0.88909 0.0
C1429 C 0.88485 0.27813 0.85808 0.0
N1430 N 0.91346 0.26476 0.81995 0.0
N1431 N 0.91031 0.29795 0.93945 0.0
C1432 C 0.9089 0.26677 0.84938 0.0
C1433 C 0.9066 0.28204 0.91102 0.0
N1434 N 0.9454 0.23876 0.86298 0.0
N1435 N 0.85686 0.28906 0.89789 0.0
H1436 H 0.92913 0.30079 0.95568 0.0
H1437 H 0.897 0.31219 0.9458 0.0
H1438 H 0.83894 0.2906 0.88273 0.0
H1439 H 0.85209 0.28923 0.92001 0.0
H1440 H 0.9439 0.22839 0.84092 0.0
H1441 H 0.9586 0.23034 0.87832 0.0
H1442 H 0.93264 0.2602 0.81253 0.0
H1443 H 0.89941 0.27035 0.8032 0.0
C1444 C 0.63681 0.22393 0.60114 0.0
C1445 C 0.61378 0.23857 0.59376 0.0
C1446 C 0.5751 0.18069 0.57428 0.0
C1447 C 0.59749 0.16575 0.58347 0.0
N1448 N 0.6474 0.17336 0.61181 0.0
N1449 N 0.55952 0.23 0.57747 0.0
C1450 C 0.6278 0.18752 0.5984 0.0
C1451 C 0.58246 0.2166 0.58175 0.0
N1452 N 0.66747 0.24477 0.61114 0.0
N1453 N 0.54728 0.16104 0.55694 0.0
H1454 H 0.56428 0.25616 0.5807 0.0
H1455 H 0.53548 0.21514 0.57264 0.0
H1456 H 0.54074 0.13504 0.5507 0.0
H1457 H 0.53174 0.17093 0.54652 0.0
H1458 H 0.68607 0.23607 0.61308 0.0
H1459 H 0.67492 0.2712 0.6158 0.0
H1460 H 0.66822 0.18746 0.62594 0.0
H1461 H 0.64131 0.14708 0.61146 0.0
C1462 C 0.59568 0.81368 0.37527 0.0
C1463 C 0.58742 0.78655 0.39326 0.0
C1464 C 0.6277 0.76732 0.37532 0.0
C1465 C 0.63767 0.79602 0.35925 0.0
N1466 N 0.63493 0.84942 0.3472 0.0
N1467 N 0.59952 0.7419 0.41547 0.0
C1468 C 0.62277 0.82012 0.3602 0.0
C1469 C 0.60449 0.76451 0.3947 0.0
N1470 N 0.57692 0.83235 0.37164 0.0
N1471 N 0.6397 0.7422 0.37138 0.0
H1472 H 0.58311 0.73946 0.43055 0.0
H1473 H 0.61371 0.72785 0.41972 0.0
H1474 H 0.657 0.74335 0.35755 0.0
H1475 H 0.63064 0.71889 0.37984 0.0
H1476 H 0.57981 0.85004 0.35633 0.0
H1477 H 0.55669 0.82816 0.38214 0.0
H1478 H 0.62718 0.86966 0.34984 0.0
H1479 H 0.6546 0.85473 0.33571 0.0
C1480 C 0.05562 0.18097 0.46483 0.0
C1481 C 0.07982 0.21447 0.47261 0.0
C1482 C 0.10397 0.18857 0.51223 0.0
C1483 C 0.08007 0.15491 0.50401 0.0
N1484 N 0.03571 0.11937 0.46831 0.0
N1485 N 0.12961 0.24791 0.50191 0.0
C1486 C 0.05685 0.15141 0.47899 0.0
C1487 C 0.10472 0.21735 0.49576 0.0
N1488 N 0.03059 0.17737 0.444 0.0
N1489 N 0.12619 0.1933 0.53632 0.0
H1490 H 0.13055 0.26902 0.49102 0.0
H1491 H 0.15031 0.25188 0.51596 0.0
H1492 H 0.1277 0.17324 0.54752 0.0
H1493 H 0.14214 0.21705 0.54628 0.0
H1494 H 1.00997 0.15563 0.43976 0.0
H1495 H 0.02979 0.19703 0.4318 0.0
H1496 H 1.02074 0.11358 0.44815 0.0
H1497 H 0.03453 0.0979 0.47873 0.0
C1498 C 0.68934 0.29195 0.24174 0.0
C1499 C 0.67881 0.31923 0.25012 0.0
C1500 C 0.73119 0.34562 0.28457 0.0
C1501 C 0.74239 0.31913 0.27493 0.0
N1502 N 0.73259 0.27131 0.23778 0.0
N1503 N 0.69371 0.3749 0.27726 0.0
C1504 C 0.72133 0.29347 0.25184 0.0
C1505 C 0.70114 0.34688 0.27076 0.0
N1506 N 0.66846 0.26375 0.22384 0.0
N1507 N 0.74846 0.36895 0.30839 0.0
H1508 H 0.6723 0.37618 0.2684 0.0
H1509 H 0.70957 0.39769 0.28918 0.0
H1510 H 0.7695 0.36875 0.31933 0.0
H1511 H 0.7406 0.3865 0.3191 0.0
H1512 H 0.67225 0.241 0.22016 0.0
H1513 H 0.64637 0.26237 0.21404 0.0
H1514 H 0.72051 0.25439 0.21873 0.0
H1515 H 0.75565 0.27252 0.2431 0.0
C1516 C 0.6065 0.93805 0.96641 0.0
C1517 C 0.59135 0.90618 0.97794 0.0
C1518 C 0.56833 0.93899 0.01136 0.0
C1519 C 0.58706 0.97189 1.0037 0.0
N1520 N 0.63122 1.00006 0.97707 0.0
N1521 N 0.56896 0.88415 0.02203 0.0
C1522 C 0.60819 0.9706 0.98207 0.0
C1523 C 0.57583 0.90922 1.00365 0.0
N1524 N 0.61881 0.93791 0.94008 0.0
N1525 N 0.54173 0.93482 0.02454 0.0
H1526 H 0.57719 0.86418 0.01991 0.0
H1527 H 0.55936 0.88623 0.04183 0.0
H1528 H 0.53193 0.95349 0.02634 0.0
H1529 H 0.52671 0.91095 0.029 0.0
H1530 H 0.62686 0.95955 0.929 0.0
H1531 H 0.61845 0.91577 0.92802 0.0
H1532 H 0.64891 1.00031 0.96402 0.0
H1533 H 0.63505 0.02367 0.98868 0.0
C1534 C 0.98851 0.84241 0.75604 0.0
C1535 C 0.99166 0.81061 0.74647 0.0
C1536 C 0.93912 0.78266 0.76682 0.0
C1537 C 0.93402 0.81401 0.77355 0.0
N1538 N 0.9551 0.87436 0.76864 0.0
N1539 N 0.96279 0.74984 0.73702 0.0
C1540 C 0.95924 0.84395 0.76653 0.0
C1541 C 0.96484 0.7808 0.75038 0.0
N1542 N 1.01414 0.87181 0.75636 0.0
N1543 N 0.92039 0.75411 0.77776 0.0
H1544 H 0.97939 0.74706 0.72376 0.0
H1545 H 0.94272 0.72769 0.73596 0.0
H1546 H 0.90331 0.7543 0.79142 0.0
H1547 H 0.9246 0.73146 0.77662 0.0
H1548 H 1.01559 0.89549 0.7663 0.0
H1549 H 0.03511 0.872 0.74897 0.0
H1550 H 0.97 0.896 0.76056 0.0
H1551 H 0.93516 0.87727 0.77576 0.0
C1552 C 0.11229 0.01415 0.91939 0.0
C1553 C 0.13522 0.04501 0.91316 0.0
C1554 C 0.13256 0.07428 0.96076 0.0
C1555 C 0.11079 0.04312 0.96811 0.0
N1556 N 0.08411 0.98183 0.95661 0.0
N1557 N 0.17403 0.10081 0.93098 0.0
C1558 C 0.10204 0.01247 0.94817 0.0
C1559 C 0.14783 0.07373 0.93511 0.0
N1560 N 0.0989 0.98721 0.8973 0.0
N1561 N 0.13653 0.10486 0.97649 0.0
H1562 H 0.18569 0.10082 0.91216 0.0
H1563 H 0.18592 0.12129 0.94757 0.0
H1564 H 0.12367 0.10719 0.99385 0.0
H1565 H 0.14991 0.12834 0.97005 0.0
H1566 H 0.07914 0.96573 0.89927 0.0
H1567 H 0.1064 0.98712 0.8762 0.0
H1568 H 0.0803 0.95842 0.94442 0.0
H1569 H 0.07486 0.97946 0.97687 0.0
C1570 C 0.8059 0.43999 0.63231 0.0
C1571 C 0.79172 0.40823 0.61412 0.0
C1572 C 0.80128 0.37934 0.65646 0.0
C1573 C 0.82454 0.41111 0.67001 0.0
N1574 N 0.84625 0.4726 0.6735 0.0
N1575 N 0.76456 0.348 0.61182 0.0
C1576 C 0.82547 0.44193 0.65924 0.0
C1577 C 0.78496 0.37791 0.62767 0.0
N1578 N 0.80087 0.4679 0.62354 0.0
N1579 N 0.79595 0.35085 0.67071 0.0
H1580 H 0.75228 0.34781 0.59103 0.0
H1581 H 0.7595 0.32407 0.619 0.0
H1582 H 0.8077 0.35163 0.69189 0.0
H1583 H 0.7788 0.32701 0.66268 0.0
H1584 H 0.8093 0.49154 0.63668 0.0
H1585 H 0.78496 0.46589 0.60465 0.0
H1586 H 0.85035 0.49559 0.66465 0.0
H1587 H 0.86053 0.47476 0.69356 0.0
C1588 C 0.52213 0.09992 0.43925 0.0
C1589 C 0.54861 0.11859 0.42566 0.0
C1590 C 0.58351 0.12081 0.4709 0.0
C1591 C 0.55791 0.09449 0.48043 0.0
N1592 N 0.50277 0.05658 0.47179 0.0
N1593 N 0.60409 0.15202 0.42974 0.0
C1594 C 0.52701 0.08371 0.46438 0.0
C1595 C 0.57918 0.13123 0.44225 0.0
N1596 N 0.49248 0.09746 0.42812 0.0
N1597 N 0.61154 0.13619 0.48929 0.0
H1598 H 0.60071 0.16159 0.4096 0.0
H1599 H 0.62769 0.15879 0.43862 0.0
H1600 H 0.61565 0.12925 0.51039 0.0
H1601 H 0.62989 0.15765 0.48468 0.0
H1602 H 0.4726 0.0858 0.43858 0.0
H1603 H 0.48855 0.11127 0.4111 0.0
H1604 H 0.48062 0.04591 0.45886 0.0
H1605 H 0.50561 0.04236 0.48889 0.0
C1606 C 0.8031 0.77694 0.15548 0.0
C1607 C 0.83185 0.79397 0.14361 0.0
C1608 C 0.8585 0.81393 0.19604 0.0
C1609 C 0.83046 0.79424 0.20779 0.0
N1610 N 0.77792 0.75116 0.19733 0.0
N1611 N 0.8881 0.82486 0.15326 0.0
C1612 C 0.80325 0.77433 0.18707 0.0
C1613 C 0.85991 0.81115 0.16416 0.0
N1614 N 0.77526 0.7631 0.13659 0.0
N1615 N 0.88335 0.83686 0.21519 0.0
H1616 H 0.88976 0.82466 0.13036 0.0
H1617 H 0.9099 0.83425 0.16678 0.0
H1618 H 0.88287 0.84054 0.2382 0.0
H1619 H 0.90316 0.85448 0.20808 0.0
H1620 H 0.75318 0.75428 0.14409 0.0
H1621 H 0.77385 0.76253 0.11338 0.0
H1622 H 0.75888 0.73305 0.18326 0.0
H1623 H 0.77738 0.74746 0.21986 0.0
C1624 C 0.0464 0.99519 0.76037 0.0
C1625 C 0.07718 0.99502 0.76004 0.0
C1626 C 0.0775 1.0079 0.70893 0.0
C1627 C 0.05135 0.01786 0.71249 0.0
N1628 N 1.00532 0.01236 0.73654 0.0
N1629 N 0.11105 0.97944 0.72967 0.0
C1630 C 0.03329 1.00764 0.73625 0.0
C1631 C 0.08864 0.99328 0.73245 0.0
N1632 N 0.0318 0.98649 0.78512 0.0
N1633 N 0.0931 0.01522 0.6845 0.0
H1634 H 0.11865 0.96848 0.74728 0.0
H1635 H 0.11934 0.97573 0.70947 0.0
H1636 H 0.08519 0.0258 0.66681 0.0
H1637 H 0.11424 0.01177 0.68219 0.0
H1638 H 1.00931 0.98609 0.78769 0.0
H1639 H 0.04254 0.97818 0.80274 0.0
H1640 H 0.99144 1.0069 0.75382 0.0
H1641 H 0.99572 0.02135 0.71868 0.0
C1642 C 0.7852 0.36223 0.42941 0.0
C1643 C 0.81174 0.38786 0.44691 0.0
C1644 C 0.84532 0.38445 0.40867 0.0
C1645 C 0.81861 0.3596 0.3905 0.0
N1646 N 0.76193 0.33059 0.38029 0.0
N1647 N 0.86484 0.42958 0.45023 0.0
C1648 C 0.78809 0.35019 0.39986 0.0
C1649 C 0.84097 0.40121 0.43536 0.0
N1650 N 0.75757 0.34888 0.44134 0.0
N1651 N 0.87519 0.39025 0.40173 0.0
H1652 H 0.86287 0.44217 0.47031 0.0
H1653 H 0.88542 0.44254 0.44123 0.0
H1654 H 0.87987 0.37732 0.38325 0.0
H1655 H 0.89566 0.40528 0.41597 0.0
H1656 H 0.73845 0.32744 0.43113 0.0
H1657 H 0.75446 0.35845 0.46235 0.0
H1658 H 0.73886 0.32553 0.38483 0.0
H1659 H 0.76323 0.32186 0.35836 0.0
C1660 C 0.53676 0.04482 0.26403 0.0
C1661 C 0.54359 0.08042 0.27257 0.0
C1662 C 0.5106 0.08153 0.22664 0.0
C1663 C 0.50572 0.04706 0.21816 0.0
N1664 N 0.50209 0.993 0.23274 0.0
N1665 N 0.53254 0.13121 0.26391 0.0
C1666 C 0.51459 0.0278 0.23849 0.0
C1667 C 0.52848 0.09811 0.25479 0.0
N1668 N 0.5521 0.02714 0.27887 0.0
N1669 N 0.49999 0.09882 0.20662 0.0
H1670 H 0.54845 0.14609 0.28225 0.0
H1671 H 0.5191 0.14379 0.25403 0.0
H1672 H 0.48576 0.08645 0.18649 0.0
H1673 H 0.50563 0.12508 0.2094 0.0
H1674 H 0.55101 1.0031 0.27024 0.0
H1675 H 0.56696 0.03601 0.29899 0.0
H1676 H 0.50494 0.97696 0.24819 0.0
H1677 H 0.48584 0.98047 0.21374 0.0
C1678 C 0.84337 0.82355 0.95124 0.0
C1679 C 0.84194 0.79247 0.96253 0.0
C1680 C 0.85278 0.77398 0.91203 0.0
C1681 C 0.84867 0.80221 0.89959 0.0
N1682 N 0.83302 0.85065 0.90823 0.0
N1683 N 0.83858 0.73453 0.94905 0.0
C1684 C 0.84211 0.82614 0.91951 0.0
C1685 C 0.84505 0.76681 0.9417 0.0
N1686 N 0.8473 0.85148 0.97086 0.0
N1687 N 0.86532 0.75444 0.8961 0.0
H1688 H 0.83015 0.72669 0.9689 0.0
H1689 H 0.83788 0.71442 0.93376 0.0
H1690 H 0.87148 0.75872 0.87469 0.0
H1691 H 0.87334 0.73711 0.9059 0.0
H1692 H 0.85139 0.87556 0.96416 0.0
H1693 H 0.85055 0.85166 0.99404 0.0
H1694 H 0.82482 0.86635 0.92124 0.0
H1695 H 0.83021 0.85282 0.88544 0.0
C1696 C 0.84945 0.07233 0.04002 0.0
C1697 C 0.84422 0.07822 0.07014 0.0
C1698 C 0.88076 0.05078 0.08721 0.0
C1699 C 0.88783 0.04743 0.05745 0.0
N1700 N 0.88283 0.0592 0.00623 0.0
N1701 N 0.85616 0.07568 0.12289 0.0
C1702 C 0.87311 0.05917 0.03399 0.0
C1703 C 0.86033 0.06826 0.09391 0.0
N1704 N 0.83178 0.07928 0.01714 0.0
N1705 N 0.89291 0.03631 0.10881 0.0
H1706 H 0.83991 0.08644 0.12858 0.0
H1707 H 0.86992 0.0729 0.14147 0.0
H1708 H 0.90805 0.02351 0.10465 0.0
H1709 H 0.88632 0.03469 0.13024 0.0
H1710 H 0.83164 0.07169 0.9946 0.0
H1711 H 0.81552 0.09075 0.02061 0.0
H1712 H 0.87586 0.07113 0.98915 0.0
H1713 H 0.89994 0.04957 1.00081 0.0
C1714 C 0.44323 0.48059 0.07131 0.0
C1715 C 0.4347 0.44766 0.05521 0.0
C1716 C 0.48442 0.46743 0.03333 0.0
C1717 C 0.49188 0.50118 0.04736 0.0
N1718 N 0.4738 0.54119 0.07356 0.0
N1719 N 0.44258 0.41393 0.01311 0.0
C1720 C 0.46979 0.50816 0.06443 0.0
C1721 C 0.45383 0.4424 0.03375 0.0
N1722 N 0.42708 0.48538 0.09413 0.0
N1723 N 0.50696 0.45817 0.02146 0.0
H1724 H 0.41966 0.39578 0.01149 0.0
H1725 H 0.45468 0.41058 0.9954 0.0
H1726 H 0.53038 0.47459 0.02256 0.0
H1727 H 0.50319 0.43295 0.01372 0.0
H1728 H 0.43445 0.50804 0.10862 0.0
H1729 H 0.4081 0.46576 0.10044 0.0
H1730 H 0.45705 0.5479 0.08383 0.0
H1731 H 0.49223 0.56198 0.06792 0.0
C1732 C 0.43243 0.63904 0.7965 0.0
C1733 C 0.42553 0.60481 0.80223 0.0
C1734 C 0.37501 0.60251 0.81803 0.0
C1735 C 0.38025 0.63495 0.80849 0.0
N1736 N 0.41089 0.68098 0.78261 0.0
N1737 N 0.38652 0.55121 0.81184 0.0
C1738 C 0.40815 0.65243 0.79607 0.0
C1739 C 0.39591 0.58574 0.81147 0.0
N1740 N 0.46236 0.659 0.79208 0.0
N1741 N 0.35019 0.58778 0.83346 0.0
H1742 H 0.39991 0.53712 0.80542 0.0
H1743 H 0.36382 0.53588 0.81541 0.0
H1744 H 0.33416 0.5992 0.83833 0.0
H1745 H 0.34725 0.56577 0.84365 0.0
H1746 H 0.4693 0.68502 0.79034 0.0
H1747 H 0.48107 0.65034 0.79325 0.0
H1748 H 0.42919 0.6924 0.7702 0.0
H1749 H 0.39335 0.69136 0.78138 0.0
C1750 C 0.23013 0.63423 0.54027 0.0
C1751 C 0.24699 0.65279 0.56798 0.0
C1752 C 0.20002 0.62941 0.59295 0.0
C1753 C 0.18298 0.61019 0.56535 0.0
N1754 N 0.18348 0.58788 0.51474 0.0
N1755 N 0.25131 0.66102 0.62181 0.0
C1756 C 0.19859 0.61063 0.53955 0.0
C1757 C 0.23298 0.64786 0.59472 0.0
N1758 N 0.24387 0.64007 0.51463 0.0
N1759 N 0.18449 0.63206 0.61692 0.0
H1760 H 0.27567 0.67468 0.62377 0.0
H1761 H 0.24304 0.65548 0.64225 0.0
H1762 H 0.16016 0.61992 0.61655 0.0
H1763 H 0.19524 0.64892 0.63633 0.0
H1764 H 0.23161 0.63035 0.49324 0.0
H1765 H 0.26739 0.65621 0.51475 0.0
H1766 H 0.19432 0.58482 0.49602 0.0
H1767 H 0.16078 0.56979 0.51419 0.0
C1768 C 0.76695 0.97437 0.75275 0.0
C1769 C 0.77467 1.00928 0.74926 0.0
C1770 C 0.83013 0.01698 0.74713 0.0
C1771 C 0.82352 0.98463 0.7571 0.0
N1772 N 0.78616 0.9307 0.76726 0.0
N1773 N 0.81116 0.06235 0.73703 0.0
C1774 C 0.79191 0.96235 0.75839 0.0
C1775 C 0.80554 0.03 0.74404 0.0
N1776 N 0.73603 0.9531 0.75151 0.0
N1777 N 0.86003 0.03512 0.74131 0.0
H1778 H 0.79295 0.07139 0.73257 0.0
H1779 H 0.83347 0.0803 0.73565 0.0
H1780 H 0.87806 0.02546 0.74333 0.0
H1781 H 0.86665 0.05842 0.73274 0.0
H1782 H 0.72866 0.92673 0.75107 0.0
H1783 H 0.71717 0.96126 0.74829 0.0
H1784 H 0.76438 0.91488 0.77244 0.0
H1785 H 0.80364 0.9205 0.77072 0.0
C1786 C 0.75259 0.94002 0.51854 0.0
C1787 C 0.76223 0.92861 0.54516 0.0
C1788 C 0.7426 0.96605 0.57504 0.0
C1789 C 0.73048 0.97505 0.54825 0.0
N1790 N 0.71904 0.96619 0.49432 0.0
N1791 N 0.76161 0.92613 0.59832 0.0
C1792 C 0.73407 0.96075 0.51993 0.0
C1793 C 0.75599 0.94042 0.57334 0.0
N1794 N 0.76235 0.93238 0.49211 0.0
N1795 N 0.74208 0.98265 0.60211 0.0
H1796 H 0.77094 0.90698 0.59795 0.0
H1797 H 0.75442 0.93097 0.61884 0.0
H1798 H 0.73222 1.0013 0.60425 0.0
H1799 H 0.75367 0.98 0.62221 0.0
H1800 H 0.75903 0.94306 0.47268 0.0
H1801 H 0.77642 0.91784 0.4902 0.0
H1802 H 0.71782 0.9534 0.47329 0.0
H1803 H 0.70538 0.98131 0.49436 0.0
C1804 C 0.36974 0.43479 0.74658 0.0
C1805 C 0.39938 0.45695 0.7619 0.0
C1806 C 0.38956 0.4273 0.80654 0.0
C1807 C 0.3608 0.40404 0.79056 0.0
N1808 N 0.31887 0.39066 0.74956 0.0
N1809 N 0.43544 0.47932 0.80811 0.0
C1810 C 0.34928 0.4096 0.76195 0.0
C1811 C 0.40843 0.4551 0.7926 0.0
N1812 N 0.3618 0.43708 0.71708 0.0
N1813 N 0.39942 0.42153 0.83445 0.0
H1814 H 0.45129 0.49882 0.79839 0.0
H1815 H 0.44151 0.48146 0.83117 0.0
H1816 H 0.38497 0.40249 0.84577 0.0
H1817 H 0.42196 0.43459 0.84605 0.0
H1818 H 0.34233 0.41909 0.70346 0.0
H1819 H 0.37577 0.45637 0.7057 0.0
H1820 H 0.30818 0.39495 0.72971 0.0
H1821 H 0.30321 0.37273 0.76077 0.0
C1822 C 0.26393 0.67913 0.24057 0.0
C1823 C 0.23195 0.67444 0.24253 0.0
C1824 C 0.24847 0.73494 0.26033 0.0
C1825 C 0.28057 0.7376 0.26473 0.0
N1826 N 0.31707 0.70782 0.26537 0.0
N1827 N 0.19493 0.69748 0.26205 0.0
C1828 C 0.28797 0.70855 0.25643 0.0
C1829 C 0.22431 0.70218 0.25437 0.0
N1830 N 0.27137 0.65542 0.22389 0.0
N1831 N 0.24067 0.76322 0.26081 0.0
H1832 H 0.17661 0.67381 0.26049 0.0
H1833 H 0.18995 0.71701 0.2734 0.0
H1834 H 0.25726 0.78801 0.26299 0.0
H1835 H 0.21751 0.76171 0.25505 0.0
H1836 H 0.29451 0.65916 0.22022 0.0
H1837 H 0.25412 0.63406 0.21106 0.0
H1838 H 0.32235 0.68597 0.26155 0.0
H1839 H 0.33434 0.72724 0.28001 0.0
C1840 C 0.56048 0.70859 0.52307 0.0
C1841 C 0.53281 0.70098 0.50208 0.0
C1842 C 0.52941 0.64085 0.49455 0.0
C1843 C 0.55512 0.64758 0.51784 0.0
N1844 N 0.59073 0.68773 0.55833 0.0
N1845 N 0.48814 0.658 0.47126 0.0
C1846 C 0.56961 0.68152 0.53304 0.0
C1847 C 0.51643 0.66651 0.48899 0.0
N1848 N 0.57822 0.74187 0.5337 0.0
N1849 N 0.51835 0.61042 0.47642 0.0
H1850 H 0.47851 0.67599 0.46568 0.0
H1851 H 0.47303 0.63286 0.46416 0.0
H1852 H 0.52822 0.59187 0.47836 0.0
H1853 H 0.5018 0.60502 0.4574 0.0
H1854 H 0.60053 0.74961 0.54614 0.0
H1855 H 0.57167 0.76209 0.52818 0.0
H1856 H 0.59945 0.71082 0.5723 0.0
H1857 H 0.59719 0.66885 0.56718 0.0
C1858 C 0.74109 0.36521 0.70887 0.0
C1859 C 0.71359 0.33925 0.69286 0.0
C1860 C 0.72914 0.29589 0.71685 0.0
C1861 C 0.75529 0.32207 0.73467 0.0
N1862 N 0.78256 0.3821 0.75123 0.0
N1863 N 0.67935 0.27967 0.6842 0.0
C1864 C 0.76027 0.35685 0.73157 0.0
C1865 C 0.70698 0.30457 0.69777 0.0
N1866 N 0.74935 0.39791 0.70199 0.0
N1867 N 0.72624 0.2626 0.717 0.0
H1868 H 0.66328 0.28427 0.66886 0.0
H1869 H 0.6712 0.25476 0.68959 0.0
H1870 H 0.74163 0.25515 0.73065 0.0
H1871 H 0.71028 0.24259 0.70187 0.0
H1872 H 0.77103 0.41724 0.71017 0.0
H1873 H 0.73547 0.4051 0.68627 0.0
H1874 H 0.78423 0.4074 0.75304 0.0
H1875 H 0.79764 0.37733 0.76748 0.0
C1876 C 0.03708 0.38628 0.03943 0.0
C1877 C 0.02869 0.37268 0.00871 0.0
C1878 C 0.03844 0.43111 0.99551 0.0
C1879 C 0.04453 0.44428 0.02635 0.0
N1880 N 0.04328 0.43265 0.07763 0.0
N1881 N 1.01433 0.38152 0.95803 0.0
C1882 C 0.04195 0.42128 0.04827 0.0
C1883 C 0.02756 0.39498 0.98686 0.0
N1884 N 0.04159 0.36611 0.06018 0.0
N1885 N 0.04319 0.45314 0.97431 0.0
H1886 H 1.00485 0.35536 0.95092 0.0
H1887 H 1.00977 0.39595 0.94185 0.0
H1888 H 0.04956 0.47942 0.97959 0.0
H1889 H 0.04295 0.44569 0.95171 0.0
H1890 H 0.05113 0.37538 0.08243 0.0
H1891 H 0.03851 0.34061 0.05457 0.0
H1892 H 0.03853 0.41678 0.09449 0.0
H1893 H 0.0459 0.45758 0.08451 0.0
C1894 C 0.07633 0.8522 0.23808 0.0
C1895 C 0.06958 0.83898 0.20725 0.0
C1896 C 1.01354 0.81031 0.21302 0.0
C1897 C 1.01982 0.82622 0.24303 0.0
N1898 N 0.0561 0.86674 0.28283 0.0
N1899 N 0.03081 0.8109 0.16391 0.0
C1900 C 0.05094 0.84845 0.25522 0.0
C1901 C 0.03792 0.8194 0.1943 0.0
N1902 N 0.10705 0.86715 0.25132 0.0
N1903 N 0.98447 0.78583 0.20261 0.0
H1904 H 0.04776 0.81772 0.14925 0.0
H1905 H 1.00774 0.79994 0.15294 0.0
H1906 H 0.96593 0.7786 0.21556 0.0
H1907 H 0.97957 0.77063 0.18208 0.0
H1908 H 0.11347 0.87402 0.27435 0.0
H1909 H 0.1263 0.86982 0.23967 0.0
H1910 H 0.07756 0.88613 0.29153 0.0
H1911 H 0.03812 0.86461 0.29608 0.0
C1912 C 0.56354 0.44184 0.1427 0.0
C1913 C 0.58304 0.4222 0.13838 0.0
C1914 C 0.61006 0.4657 0.10429 0.0
C1915 C 0.58803 0.48278 0.10612 0.0
N1916 N 0.5392 0.4801 0.1236 0.0
N1917 N 0.62343 0.41523 0.11122 0.0
C1918 C 0.56368 0.46884 0.12449 0.0
C1919 C 0.60607 0.43439 0.11824 0.0
N1920 N 0.54528 0.43564 0.16544 0.0
N1921 N 0.63562 0.47992 0.08969 0.0
H1922 H 0.62167 0.39329 0.12113 0.0
H1923 H 0.63785 0.4197 0.09427 0.0
H1924 H 0.63924 0.50206 0.07948 0.0
H1925 H 0.65445 0.47158 0.08987 0.0
H1926 H 0.53286 0.4508 0.17196 0.0
H1927 H 0.54556 0.41784 0.18008 0.0
H1928 H 0.51859 0.46801 0.13288 0.0
H1929 H 0.53812 0.49937 0.1111 0.0
C1930 C 0.98705 0.33963 0.37266 0.0
C1931 C 0.99165 0.30774 0.37132 0.0
C1932 C 0.93675 0.2819 0.34135 0.0
C1933 C 0.93073 0.31302 0.34551 0.0
N1934 N 0.9513 0.37109 0.36918 0.0
N1935 N 0.9679 0.24753 0.35564 0.0
C1936 C 0.95651 0.34179 0.36195 0.0
C1937 C 0.96552 0.27878 0.35593 0.0
N1938 N 1.01227 0.36845 0.3844 0.0
N1939 N 0.91538 0.25523 0.32217 0.0
H1940 H 0.9886 0.24448 0.36422 0.0
H1941 H 0.94911 0.22466 0.34829 0.0
H1942 H 0.89513 0.25659 0.31058 0.0
H1943 H 0.91908 0.23304 0.31537 0.0
H1944 H 1.01257 0.39307 0.38356 0.0
H1945 H 0.03412 0.36775 0.39261 0.0
H1946 H 0.96697 0.39176 0.38385 0.0
H1947 H 0.92993 0.37372 0.36255 0.0
C1948 C 0.04588 0.68785 0.63132 0.0
C1949 C 0.07334 0.71762 0.64241 0.0
C1950 C 0.10542 0.68679 0.61948 0.0
C1951 C 0.07821 0.65602 0.61058 0.0
N1952 N 1.02251 0.62704 0.61214 0.0
N1953 N 0.1302 0.74263 0.64973 0.0
C1954 C 0.04844 0.65677 0.61744 0.0
C1955 C 0.10329 0.71621 0.63698 0.0
N1956 N 1.01687 0.68951 0.63354 0.0
N1957 N 0.13352 0.68851 0.61027 0.0
H1958 H 0.1298 0.76472 0.66141 0.0
H1959 H 0.15274 0.74181 0.65048 0.0
H1960 H 0.1361 0.66812 0.59773 0.0
H1961 H 0.15353 0.71088 0.61277 0.0
H1962 H 0.99565 0.67074 0.62341 0.0
H1963 H 1.01423 0.71133 0.64336 0.0
H1964 H 1.0009 0.62414 0.61952 0.0
H1965 H 0.02327 0.60419 0.60247 0.0
C1966 C 0.70493 0.78391 0.86641 0.0
C1967 C 0.69363 0.81163 0.86833 0.0
C1968 C 0.73907 0.84085 0.83853 0.0
C1969 C 0.75236 0.81455 0.83974 0.0
N1970 N 0.74875 0.76422 0.8631 0.0
N1971 N 0.70498 0.86926 0.85805 0.0
C1972 C 0.73517 0.78696 0.85576 0.0
C1973 C 0.7122 0.84073 0.85471 0.0
N1974 N 0.68605 0.7534 0.8743 0.0
N1975 N 0.75131 0.86583 0.82084 0.0
H1976 H 0.68567 0.86967 0.86848 0.0
H1977 H 0.71917 0.89281 0.85239 0.0
H1978 H 0.76971 0.86662 0.80855 0.0
H1979 H 0.74134 0.88373 0.81612 0.0
H1980 H 0.69044 0.731 0.87054 0.0
H1981 H 0.66407 0.74965 0.88133 0.0
H1982 H 0.73976 0.74597 0.87745 0.0
H1983 H 0.77105 0.76618 0.85806 0.0
C1984 C 0.54258 0.58667 0.67415 0.0
C1985 C 0.50954 0.57856 0.66796 0.0
C1986 C 0.51517 0.59182 0.61696 0.0
C1987 C 0.546 0.59098 0.62111 0.0
N1988 N 0.59037 0.58946 0.65368 0.0
N1989 N 0.46431 0.57727 0.63562 0.0
C1990 C 0.56055 0.59007 0.64994 0.0
C1991 C 0.49586 0.58297 0.64009 0.0
N1992 N 0.55635 0.58978 0.70301 0.0
N1993 N 0.50465 0.60087 0.59089 0.0
H1994 H 0.45029 0.57209 0.65294 0.0
H1995 H 0.452 0.57691 0.61494 0.0
H1996 H 0.51926 0.60886 0.57439 0.0
H1997 H 0.48307 0.60388 0.58698 0.0
H1998 H 0.58072 0.59841 0.70922 0.0
H1999 H 0.54354 0.5869 0.72119 0.0
H2000 H 0.60052 0.58416 0.67335 0.0
H2001 H 0.60454 0.59248 0.63653 0.0
C2002 C 0.75935 0.20881 0.00679 0.0
C2003 C 0.77237 0.18426 0.01462 0.0
C2004 C 0.7823 0.17672 0.96259 0.0
C2005 C 0.76431 0.19651 0.95427 0.0
N2006 N 0.7291 0.22454 0.96803 0.0
N2007 N 0.78971 0.13897 0.99743 0.0
C2008 C 0.75067 0.21033 0.97623 0.0
C2009 C 0.78216 0.16654 0.99184 0.0
N2010 N 0.75712 0.23225 0.0282 0.0
N2011 N 0.8001 0.16836 0.94299 0.0
H2012 H 0.78617 0.12791 0.01723 0.0
H2013 H 0.79589 0.12459 0.98112 0.0
H2014 H 0.80099 0.17562 0.92145 0.0
H2015 H 0.81612 0.15694 0.94916 0.0
H2016 H 0.74993 0.25211 0.02293 0.0
H2017 H 0.76655 0.2349 0.0506 0.0
H2018 H 0.71652 0.23217 0.98337 0.0
H2019 H 0.72134 0.22528 0.94571 0.0
C2020 C 0.14351 0.5018 0.15331 0.0
C2021 C 0.12764 0.50124 0.17861 0.0
C2022 C 0.07869 0.49349 0.14767 0.0
C2023 C 0.09721 0.50485 0.12404 0.0
N2024 N 0.13871 0.4966 0.09905 0.0
N2025 N 0.07888 0.47663 0.19812 0.0
C2026 C 0.12702 0.50129 0.12502 0.0
C2027 C 0.09442 0.48931 0.17478 0.0
N2028 N 0.17439 0.50487 0.15667 0.0
N2029 N 0.0472 0.48808 0.1451 0.0
H2030 H 0.09138 0.47498 0.21818 0.0
H2031 H 0.05435 0.46553 0.19684 0.0
H2032 H 0.03308 0.48462 0.12479 0.0
H2033 H 0.03449 0.48541 0.16331 0.0
H2034 H 0.18853 0.50979 0.1395 0.0
H2035 H 0.18561 0.50222 0.17702 0.0
H2036 H 0.15959 0.49215 0.09819 0.0
H2037 H 0.12523 0.49316 0.07826 0.0
C2038 C 0.82889 0.79791 0.44964 0.0
C2039 C 0.82868 0.82922 0.46386 0.0
C2040 C 0.82266 0.84633 0.4125 0.0
C2041 C 0.82751 0.8173 0.39902 0.0
N2042 N 0.84189 0.76885 0.40719 0.0
N2043 N 0.83322 0.88701 0.45688 0.0
C2044 C 0.8327 0.79422 0.41836 0.0
C2045 C 0.82735 0.85434 0.44473 0.0
N2046 N 0.82402 0.77078 0.46562 0.0
N2047 N 0.81424 0.867 0.3946 0.0
H2048 H 0.83948 0.89547 0.47966 0.0
H2049 H 0.83572 0.90696 0.44399 0.0
H2050 H 0.81234 0.86335 0.37128 0.0
H2051 H 0.80675 0.88611 0.40287 0.0
H2052 H 0.82097 0.74645 0.45588 0.0
H2053 H 0.81906 0.77151 0.48768 0.0
H2054 H 0.8491 0.75348 0.42074 0.0
H2055 H 0.84523 0.76527 0.38485 0.0
C2056 C 0.53746 0.4995 0.812 0.0
C2057 C 0.54448 0.53101 0.79986 0.0
C2058 C 0.58612 0.56006 0.84162 0.0
C2059 C 0.57865 0.52866 0.85375 0.0
N2060 N 0.55481 0.46721 0.84672 0.0
N2061 N 0.57959 0.58904 0.79861 0.0
C2062 C 0.55713 0.49788 0.83738 0.0
C2063 C 0.5703 0.56065 0.8132 0.0
N2064 N 0.51051 0.47196 0.80105 0.0
N2065 N 0.60727 0.58932 0.85793 0.0
H2066 H 0.56832 0.58992 0.77766 0.0
H2067 H 0.59987 0.61057 0.80599 0.0
H2068 H 0.62028 0.58915 0.87816 0.0
H2069 H 0.61104 0.61367 0.8521 0.0
H2070 H 0.50246 0.44988 0.81149 0.0
H2071 H 0.49433 0.47199 0.78321 0.0
H2072 H 0.54176 0.44382 0.83396 0.0
H2073 H 0.56844 0.46521 0.8658 0.0
C2074 C 0.81687 0.21612 0.19662 0.0
C2075 C 0.83516 0.23052 0.17401 0.0
C2076 C 0.86399 0.28256 0.20873 0.0
C2077 C 0.84208 0.26995 0.22927 0.0
N2078 N 0.79229 0.22857 0.23835 0.0
N2079 N 0.87515 0.27787 0.15728 0.0
C2080 C 0.81724 0.23761 0.2222 0.0
C2081 C 0.85863 0.2639 0.17972 0.0
N2082 N 0.79823 0.18217 0.19333 0.0
N2083 N 0.88999 0.31181 0.21708 0.0
H2084 H 0.87262 0.26397 0.1364 0.0
H2085 H 0.89012 0.3034 0.15892 0.0
H2086 H 0.89449 0.32587 0.23818 0.0
H2087 H 0.90823 0.32063 0.20403 0.0
H2088 H 0.78694 0.17017 0.21067 0.0
H2089 H 0.79662 0.16525 0.17465 0.0
H2090 H 0.772 0.20664 0.2323 0.0
H2091 H 0.79013 0.24516 0.25551 0.0
C2092 C 0.12862 0.54385 0.33974 0.0
C2093 C 0.15199 0.57243 0.33069 0.0
C2094 C 0.15476 0.60786 0.37677 0.0
C2095 C 0.13033 0.57975 0.3853 0.0
N2096 N 0.09979 0.51927 0.38 0.0
N2097 N 0.19381 0.62775 0.34288 0.0
C2098 C 0.11921 0.54703 0.36844 0.0
C2099 C 0.16731 0.6032 0.3501 0.0
N2100 N 0.1145 0.51447 0.32035 0.0
N2101 N 0.16478 0.63923 0.39338 0.0
H2102 H 0.20355 0.62478 0.32332 0.0
H2103 H 0.20778 0.64952 0.35733 0.0
H2104 H 0.1566 0.64343 0.41357 0.0
H2105 H 0.17983 0.66156 0.38641 0.0
H2106 H 0.09474 0.49405 0.32424 0.0
H2107 H 0.12178 0.51111 0.2995 0.0
H2108 H 0.09312 0.49424 0.36999 0.0
H2109 H 0.09238 0.52101 0.40103 0.0
C2110 C 0.80605 0.82282 0.65781 0.0
C2111 C 0.8355 0.84025 0.64727 0.0
C2112 C 0.86211 0.84671 0.69943 0.0
C2113 C 0.83258 0.83126 0.71064 0.0
N2114 N 0.77579 0.80928 0.70013 0.0
N2115 N 0.89064 0.87558 0.66044 0.0
C2116 C 0.80438 0.82054 0.6896 0.0
C2117 C 0.86314 0.85411 0.66886 0.0
N2118 N 0.77966 0.80748 0.6373 0.0
N2119 N 0.88967 0.85262 0.71751 0.0
H2120 H 0.89259 0.8819 0.63865 0.0
H2121 H 0.91059 0.88982 0.67564 0.0
H2122 H 0.89029 0.84699 0.73947 0.0
H2123 H 0.91167 0.85973 0.70984 0.0
H2124 H 0.7581 0.79118 0.64258 0.0
H2125 H 0.77999 0.80924 0.6144 0.0
H2126 H 0.75433 0.8043 0.68692 0.0
H2127 H 0.77375 0.8077 0.72283 0.0
C2128 C 0.78356 0.54802 0.50794 0.0
C2129 C 0.80858 0.54726 0.52859 0.0
C2130 C 0.79867 0.58626 0.56589 0.0
C2131 C 0.77276 0.58578 0.54572 0.0
N2132 N 0.74475 0.57353 0.49571 0.0
N2133 N 0.84486 0.57097 0.57415 0.0
C2134 C 0.7667 0.56911 0.51601 0.0
C2135 C 0.81792 0.56843 0.55649 0.0
N2136 N 0.77533 0.52761 0.48108 0.0
N2137 N 0.8037 0.60217 0.59452 0.0
H2138 H 0.85896 0.55741 0.56842 0.0
H2139 H 0.8547 0.58837 0.59336 0.0
H2140 H 0.7907 0.61643 0.60177 0.0
H2141 H 0.81958 0.60001 0.61157 0.0
H2142 H 0.75508 0.52371 0.46635 0.0
H2143 H 0.78838 0.51335 0.47394 0.0
H2144 H 0.74085 0.56448 0.47301 0.0
H2145 H 0.73199 0.58875 0.50116 0.0
C2146 C 0.21531 0.16586 0.52397 0.0
C2147 C 0.23642 0.18332 0.55001 0.0
C2148 C 0.2016 0.14496 0.5811 0.0
C2149 C 0.17858 0.13046 0.55553 0.0
N2150 N 0.16238 0.12881 0.50269 0.0
N2151 N 0.25053 0.19059 0.60362 0.0
C2152 C 0.18528 0.14104 0.5269 0.0
C2153 C 0.22997 0.17294 0.57866 0.0
N2154 N 0.22426 0.17266 0.49637 0.0
N2155 N 0.19653 0.13139 0.60751 0.0
H2156 H 0.27225 0.20999 0.60256 0.0
H2157 H 0.24557 0.18731 0.62545 0.0
H2158 H 0.17604 0.11082 0.60983 0.0
H2159 H 0.21345 0.13848 0.62639 0.0
H2160 H 0.21149 0.15823 0.47637 0.0
H2161 H 0.24605 0.19094 0.49355 0.0
H2162 H 0.16412 0.13898 0.48238 0.0
H2163 H 0.14061 0.10976 0.50344 0.0
C2164 C 0.25258 1.00704 0.79992 0.0
C2165 C 0.24877 0.01806 0.82935 0.0
C2166 C 0.29672 1.00966 0.84923 0.0
C2167 C 0.29756 0.99381 0.82063 0.0
N2168 N 0.27251 0.97155 0.7698 0.0
N2169 N 0.26417 0.02429 0.88285 0.0
C2170 C 0.27451 0.99092 0.79617 0.0
C2171 C 0.27013 0.01808 0.8543 0.0
N2172 N 0.23634 0.0132 0.77547 0.0
N2173 N 0.32146 0.01682 0.87147 0.0
H2174 H 0.24418 0.0291 0.88762 0.0
H2175 H 0.2773 0.0212 0.90178 0.0
H2176 H 0.3415 0.01127 0.86831 0.0
H2177 H 0.32346 0.03118 0.89193 0.0
H2178 H 0.24068 1.00852 0.75361 0.0
H2179 H 0.22113 0.02644 0.77706 0.0
H2180 H 0.25382 0.96559 0.75257 0.0
H2181 H 0.28782 0.95883 0.76609 0.0
C2182 C 0.45672 0.06703 0.99212 0.0
C2183 C 0.44738 0.03996 0.96861 0.0
C2184 C 0.5025 0.05143 0.96244 0.0
C2185 C 0.51096 0.06997 0.99142 0.0
N2186 N 0.4987 0.10266 0.0311 0.0
N2187 N 0.45965 0.01883 0.92266 0.0
C2188 C 0.48901 0.08103 1.00498 0.0
C2189 C 0.46999 0.03713 0.95038 0.0
N2190 N 0.43468 0.07855 1.00203 0.0
N2191 N 0.52529 0.04561 0.94792 0.0
H2192 H 0.43553 1.00839 0.91447 0.0
H2193 H 0.47448 0.01581 0.90748 0.0
H2194 H 0.54924 0.05681 0.9566 0.0
H2195 H 0.52072 0.0301 0.92764 0.0
H2196 H 0.43999 0.0992 0.01846 0.0
H2197 H 0.41148 0.06938 0.99118 0.0
H2198 H 0.48333 0.10871 0.04403 0.0
H2199 H 0.52253 0.11425 0.03998 0.0
C2200 C 0.8235 0.56302 0.86155 0.0
C2201 C 0.85505 0.58247 0.87473 0.0
C2202 C 0.84315 0.63425 0.87883 0.0
C2203 C 0.81454 0.61651 0.85942 0.0
N2204 N 0.77357 0.56376 0.83783 0.0
N2205 N 0.89439 0.63498 0.89964 0.0
C2206 C 0.80315 0.58048 0.85324 0.0
C2207 C 0.86444 0.61749 0.88517 0.0
N2208 N 0.81374 0.52828 0.85592 0.0
N2209 N 0.85013 0.66714 0.89076 0.0
H2210 H 0.90974 0.62279 0.9061 0.0
H2211 H 0.90452 0.66144 0.90436 0.0
H2212 H 0.83521 0.68026 0.88638 0.0
H2213 H 0.86899 0.68021 0.90741 0.0
H2214 H 0.79086 0.51216 0.84713 0.0
H2215 H 0.82842 0.51509 0.86152 0.0
H2216 H 0.76399 0.53782 0.83014 0.0
H2217 H 0.75833 0.57655 0.8328 0.0
C2218 C 0.91674 0.68993 0.04876 0.0
C2219 C 0.88318 0.67513 0.04339 0.0
C2220 C 0.88501 0.61834 0.04694 0.0
C2221 C 0.91824 0.63351 0.05529 0.0
N2222 N 0.96538 0.68414 0.06898 0.0
N2223 N 0.83506 0.62628 0.04391 0.0
C2224 C 0.93404 0.66947 0.05759 0.0
C2225 C 0.86718 0.63958 0.04421 0.0
N2226 N 0.93216 0.72313 0.04425 0.0
N2227 N 0.87053 0.58365 0.04077 0.0
H2228 H 0.8211 0.64105 0.04306 0.0
H2229 H 0.82264 0.60123 0.04764 0.0
H2230 H 0.88275 0.56714 0.04243 0.0
H2231 H 0.84695 0.57145 0.03138 0.0
H2232 H 0.95661 0.73425 0.04476 0.0
H2233 H 0.92035 0.73875 0.03725 0.0
H2234 H 0.97737 0.7104 0.07417 0.0
H2235 H 0.9788 0.66996 0.07571 0.0
C2236 C 0.23501 0.16494 0.83595 0.0
C2237 C 0.21903 0.1429 0.80947 0.0
C2238 C 0.25708 0.17957 0.78014 0.0
C2239 C 0.26983 0.20423 0.80587 0.0
N2240 N 0.26692 0.22246 0.85735 0.0
N2241 N 0.21346 0.12869 0.75603 0.0
C2242 C 0.2581 0.19733 0.83369 0.0
C2243 C 0.22982 0.14987 0.78142 0.0
N2244 N 0.22817 0.15487 0.86337 0.0
N2245 N 0.2714 0.18439 0.75472 0.0
H2246 H 0.19397 0.10629 0.75647 0.0
H2247 H 0.21795 0.13426 0.73448 0.0
H2248 H 0.29167 0.20566 0.75334 0.0
H2249 H 0.26501 0.16611 0.73602 0.0
H2250 H 0.24154 0.16839 0.88349 0.0
H2251 H 0.21105 0.13137 0.86598 0.0
H2252 H 0.25627 0.21992 0.87689 0.0
H2253 H 0.28265 0.24705 0.85644 0.0
C2254 C 0.46739 0.96551 0.33743 0.0
C2255 C 0.46957 0.99175 0.31902 0.0
C2256 C 0.41717 0.95686 0.29204 0.0
C2257 C 0.41693 0.92932 0.30805 0.0
N2258 N 0.44704 0.9047 0.33903 0.0
N2259 N 0.44933 1.00849 0.27374 0.0
C2260 C 0.44352 0.93278 0.32879 0.0
C2261 C 0.44529 0.98632 0.2948 0.0
N2262 N 0.48691 0.97195 0.36386 0.0
N2263 N 0.39031 0.95555 0.27502 0.0
H2264 H 0.46978 0.03003 0.27421 0.0
H2265 H 0.43373 1.00356 0.25405 0.0
H2266 H 0.36891 0.93482 0.27307 0.0
H2267 H 0.38846 0.97644 0.26538 0.0
H2268 H 0.484 0.9541 0.37909 0.0
H2269 H 0.50348 0.99608 0.37227 0.0
H2270 H 0.46742 0.90585 0.35231 0.0
H2271 H 0.4315 0.87993 0.33119 0.0
C2272 C 0.61478 0.42893 0.56384 0.0
C2273 C 0.62112 0.426 0.5949 0.0
C2274 C 0.6061 0.47647 0.60646 0.0
C2275 C 0.60307 0.48145 0.57556 0.0
N2276 N 0.61209 0.46568 0.52576 0.0
N2277 N 0.62859 0.45253 0.64577 0.0
C2278 C 0.60946 0.45848 0.55456 0.0
C2279 C 0.61824 0.45129 0.61617 0.0
N2280 N 0.61239 0.4027 0.54288 0.0
N2281 N 0.59626 0.49496 0.62668 0.0
H2282 H 0.63861 0.43576 0.65373 0.0
H2283 H 0.63033 0.47231 0.66196 0.0
H2284 H 0.58682 0.51294 0.62062 0.0
H2285 H 0.59454 0.49011 0.64883 0.0
H2286 H 0.60455 0.40161 0.52025 0.0
H2287 H 0.61489 0.38029 0.54844 0.0
H2288 H 0.61994 0.45213 0.51017 0.0
H2289 H 0.60983 0.48749 0.51838 0.0
C2290 C 0.42996 0.81185 0.40909 0.0
C2291 C 0.4387 0.78305 0.40387 0.0
C2292 C 0.40966 0.77107 0.3525 0.0
C2293 C 0.40249 0.80105 0.35725 0.0
N2294 N 0.41306 0.85418 0.38801 0.0
N2295 N 0.44049 0.73775 0.36929 0.0
C2296 C 0.41451 0.82244 0.38504 0.0
C2297 C 0.42966 0.76346 0.37511 0.0
N2298 N 0.43622 0.82933 0.43722 0.0
N2299 N 0.3965 0.7492 0.32676 0.0
H2300 H 0.45377 0.73057 0.38561 0.0
H2301 H 0.43801 0.72492 0.348 0.0
H2302 H 0.38256 0.75431 0.30965 0.0
H2303 H 0.3976 0.72508 0.32314 0.0
H2304 H 0.42694 0.84772 0.4432 0.0
H2305 H 0.44876 0.82394 0.45533 0.0
H2306 H 0.42631 0.87312 0.40539 0.0
H2307 H 0.40136 0.86293 0.37165 0.0
C2308 C 0.08838 0.70938 0.08268 0.0
C2309 C 0.12069 0.73129 0.09092 0.0
C2310 C 0.13532 0.67996 0.08792 0.0
C2311 C 0.10343 0.65841 0.07728 0.0
N2312 N 0.05019 0.65369 0.0605 0.0
N2313 N 0.17552 0.73716 0.09904 0.0
C2314 C 0.0801 0.67344 0.07382 0.0
C2315 C 0.14428 0.71644 0.09263 0.0
N2316 N 0.0654 0.72289 0.0832 0.0
N2317 N 0.15688 0.66541 0.0953 0.0
H2318 H 0.18331 0.76339 0.10527 0.0
H2319 H 0.194 0.72871 0.09656 0.0
H2320 H 0.15125 0.63908 0.09279 0.0
H2321 H 0.17954 0.67898 0.10648 0.0
H2322 H 0.04135 0.70816 0.08139 0.0
H2323 H 0.07042 0.74904 0.08725 0.0
H2324 H 0.03294 0.66338 0.05409 0.0
H2325 H 0.0432 0.62771 0.05345 0.0
C2326 C 0.09552 0.34007 0.87261 0.0
C2327 C 0.09633 0.32829 0.90112 0.0
C2328 C 0.14561 0.3199 0.89458 0.0
C2329 C 0.14545 0.33277 0.86652 0.0
N2330 N 0.12497 0.36282 0.83214 0.0
N2331 N 0.12655 0.31695 0.94287 0.0
C2332 C 0.12191 0.34546 0.85665 0.0
C2333 C 0.12281 0.32136 0.91327 0.0
N2334 N 0.06895 0.34419 0.85999 0.0
N2335 N 0.16633 0.30457 0.90276 0.0
H2336 H 0.11072 0.31882 0.95749 0.0
H2337 H 0.14698 0.31512 0.95359 0.0
H2338 H 0.18331 0.30252 0.88967 0.0
H2339 H 0.16491 0.29128 0.92137 0.0
H2340 H 0.06576 0.349 0.8379 0.0
H2341 H 0.04892 0.34007 0.87074 0.0
H2342 H 0.11017 0.37549 0.82551 0.0
H2343 H 0.1442 0.36729 0.82011 0.0
C2344 C 0.59445 0.71699 1.00381 0.0
C2345 C 0.58117 0.71374 0.9731 0.0
C2346 C 0.56598 0.64973 0.97349 0.0
C2347 C 0.58091 0.65323 1.00379 0.0
N2348 N 0.61679 0.69357 0.04389 0.0
N2349 N 0.55822 0.67541 0.92783 0.0
C2350 C 0.59703 0.68787 0.01773 0.0
C2351 C 0.56834 0.67957 0.9578 0.0
N2352 N 0.60455 0.74835 0.0203 0.0
N2353 N 0.54773 0.61769 0.95993 0.0
H2354 H 0.55893 0.69596 0.91618 0.0
H2355 H 0.5518 0.65238 0.9141 0.0
H2356 H 0.54453 0.59586 0.97045 0.0
H2357 H 0.53342 0.61282 0.93946 0.0
H2358 H 0.6104 0.75216 0.04352 0.0
H2359 H 0.60511 0.7703 0.01096 0.0
H2360 H 0.63196 0.7178 0.0537 0.0
H2361 H 0.6208 0.67401 0.05405 0.0
C2362 C 0.18488 0.78679 0.74137 0.0
C2363 C 0.1773 0.81697 0.74532 0.0
C2364 C 0.23343 0.84628 0.77226 0.0
C2365 C 0.24111 0.81596 0.76802 0.0
N2366 N 0.22458 0.76078 0.73902 0.0
N2367 N 0.19815 0.87728 0.76057 0.0
C2368 C 0.21672 0.78723 0.75011 0.0
C2369 C 0.20289 0.84718 0.75942 0.0
N2370 N 0.16145 0.75692 0.72863 0.0
N2371 N 0.2548 0.87439 0.7898 0.0
H2372 H 0.17644 0.87857 0.7528 0.0
H2373 H 0.21607 0.90111 0.76689 0.0
H2374 H 0.2769 0.87568 0.79908 0.0
H2375 H 0.24991 0.89564 0.79721 0.0
H2376 H 0.16325 0.73313 0.72929 0.0
H2377 H 0.13951 0.75559 0.71853 0.0
H2378 H 0.20967 0.74078 0.72325 0.0
H2379 H 0.24747 0.76087 0.74249 0.0
C2380 C 0.08947 0.4104 0.51619 0.0
C2381 C 0.09594 0.4074 0.48582 0.0
C2382 C 0.10475 0.47014 0.48819 0.0
C2383 C 0.09317 0.47146 0.51693 0.0
N2384 N 0.06468 0.43496 0.55177 0.0
N2385 N 0.10388 0.43597 0.44153 0.0
C2386 C 0.08301 0.4394 0.5291 0.0
C2387 C 0.10202 0.4378 0.47156 0.0
N2388 N 0.08986 0.38547 0.53344 0.0
N2389 N 0.11963 0.49974 0.47663 0.0
H2390 H 0.1022 0.41368 0.42868 0.0
H2391 H 0.10422 0.45572 0.42899 0.0
H2392 H 0.12366 0.52371 0.48749 0.0
H2393 H 0.13124 0.50067 0.45774 0.0
H2394 H 0.0881 0.38751 0.55632 0.0
H2395 H 0.09595 0.36505 0.52576 0.0
H2396 H 0.05465 0.41147 0.55975 0.0
H2397 H 0.05536 0.45273 0.55935 0.0
C2398 C 0.46088 0.28757 0.23595 0.0
C2399 C 0.49263 0.30958 0.24846 0.0
C2400 C 0.46594 0.33109 0.28874 0.0
C2401 C 0.43402 0.31098 0.27484 0.0
N2402 N 0.40392 0.27586 0.22955 0.0
N2403 N 0.52326 0.35609 0.28604 0.0
C2404 C 0.43255 0.29074 0.247 0.0
C2405 C 0.49424 0.33239 0.27457 0.0
N2406 N 0.4574 0.26265 0.21329 0.0
N2407 N 0.46968 0.34786 0.31675 0.0
H2408 H 0.54381 0.35732 0.27705 0.0
H2409 H 0.52665 0.37618 0.30253 0.0
H2410 H 0.45059 0.34687 0.32808 0.0
H2411 H 0.4915 0.35986 0.32998 0.0
H2412 H 0.43587 0.24287 0.20552 0.0
H2413 H 0.47661 0.26035 0.20382 0.0
H2414 H 0.40106 0.26384 0.20785 0.0
H2415 H 0.38352 0.27892 0.23541 0.0
C2416 C 0.61342 0.51341 0.42109 0.0
C2417 C 0.64133 0.53974 0.41567 0.0
C2418 C 0.6445 0.57213 0.4635 0.0
C2419 C 0.61662 0.54584 0.46943 0.0
N2420 N 0.57904 0.4878 0.45746 0.0
N2421 N 0.68875 0.58767 0.43482 0.0
C2422 C 0.60249 0.51518 0.44938 0.0
C2423 C 0.65886 0.56664 0.43826 0.0
N2424 N 0.59654 0.48783 0.39868 0.0
N2425 N 0.65553 0.60349 0.48014 0.0
H2426 H 0.69946 0.58391 0.41612 0.0
H2427 H 0.70378 0.60621 0.45172 0.0
H2428 H 0.64347 0.60998 0.49655 0.0
H2429 H 0.67429 0.62433 0.47515 0.0
H2430 H 0.57394 0.47029 0.3999 0.0
H2431 H 0.60474 0.48517 0.37818 0.0
H2432 H 0.57006 0.46378 0.44494 0.0
H2433 H 0.5704 0.48822 0.47799 0.0
C2434 C 0.4304 0.92828 0.08377 0.0
C2435 C 0.39919 0.9253 0.07263 0.0
C2436 C 0.37848 0.8947 0.11471 0.0
C2437 C 0.40975 0.89838 0.12589 0.0
N2438 N 0.4659 0.92214 0.12445 0.0
N2439 N 0.34344 0.90724 0.07791 0.0
C2440 C 0.43584 0.91609 0.11133 0.0
C2441 C 0.37325 0.90935 0.08843 0.0
N2442 N 0.45485 0.94238 0.06773 0.0
N2443 N 0.35363 0.87554 0.12842 0.0
H2444 H 0.33721 0.91281 0.05675 0.0
H2445 H 0.32465 0.90084 0.09049 0.0
H2446 H 0.35649 0.86512 0.14816 0.0
H2447 H 0.32995 0.86812 0.11964 0.0
H2448 H 0.47634 0.93905 0.0712 0.0
H2449 H 0.45344 0.95659 0.05019 0.0
H2450 H 0.48627 0.93765 0.11658 0.0
H2451 H 0.47066 0.9134 0.14463 0.0
C2452 C 0.03288 0.5815 0.92103 0.0
C2453 C 0.9999 0.56217 0.91699 0.0
C2454 C 1.00391 0.54141 0.96522 0.0
C2455 C 0.03647 0.5625 0.97051 0.0
N2456 N 0.08132 0.60674 0.95601 0.0
N2457 N 0.95266 0.53021 0.93775 0.0
C2458 C 0.05089 0.58385 0.94915 0.0
C2459 C 0.98495 0.54461 0.94009 0.0
N2460 N 0.04689 0.5969 0.89783 0.0
N2461 N 0.99154 0.51645 0.98299 0.0
H2462 H 0.93765 0.53099 0.9192 0.0
H2463 H 0.94068 0.52029 0.95548 0.0
H2464 H 1.00527 0.51154 1.00036 0.0
H2465 H 0.96872 0.49803 0.97833 0.0
H2466 H 0.0713 0.60818 0.89816 0.0
H2467 H 0.03387 0.59697 0.87756 0.0
H2468 H 0.09213 0.62526 0.94248 0.0
H2469 H 0.09512 0.60876 0.97636 0.0
C2470 C 0.35533 0.31608 0.66558 0.0
C2471 C 0.32741 0.29941 0.64474 0.0
C2472 C 0.29783 0.28085 0.68793 0.0
C2473 C 0.32503 0.30018 0.70888 0.0
N2474 N 0.37854 0.34147 0.71673 0.0
N2475 N 0.27066 0.26952 0.63707 0.0
C2476 C 0.35353 0.31908 0.69739 0.0
C2477 C 0.29828 0.28311 0.65631 0.0
N2478 N 0.3838 0.32906 0.65503 0.0
N2479 N 0.27188 0.2585 0.69804 0.0
H2480 H 0.26966 0.2685 0.61386 0.0
H2481 H 0.2484 0.26131 0.64422 0.0
H2482 H 0.2708 0.25522 0.72061 0.0
H2483 H 0.25271 0.24066 0.68392 0.0
H2484 H 0.40545 0.33791 0.66877 0.0
H2485 H 0.38582 0.32881 0.63219 0.0
H2486 H 0.39874 0.35865 0.70981 0.0
H2487 H 0.37789 0.34522 0.7397 0.0
C2488 C 0.59222 0.49794 0.23431 0.0
C2489 C 0.5821 0.50041 0.26252 0.0
C2490 C 0.53818 0.51428 0.24038 0.0
C2491 C 0.555 0.52328 0.21566 0.0
N2492 N 0.59523 0.51928 0.18611 0.0
N2493 N 0.53906 0.4957 0.2902 0.0
C2494 C 0.58058 0.51264 0.21117 0.0
C2495 C 0.55212 0.50239 0.26436 0.0
N2496 N 0.61363 0.48294 0.23036 0.0
N2497 N 0.51044 0.51934 0.24149 0.0
H2498 H 0.55003 0.4872 0.30752 0.0
H2499 H 0.51766 0.49752 0.29421 0.0
H2500 H 0.50027 0.52799 0.22376 0.0
H2501 H 0.49704 0.51404 0.25913 0.0
H2502 H 0.62069 0.47858 0.20965 0.0
H2503 H 0.62138 0.47147 0.24747 0.0
H2504 H 0.61609 0.51546 0.18316 0.0
H2505 H 0.58698 0.52982 0.16859 0.0
C2506 C 0.29205 0.88353 0.91023 0.0
C2507 C 0.30719 0.87742 0.93657 0.0
C2508 C 0.30608 0.82343 0.91235 0.0
C2509 C 0.29767 0.8334 0.88466 0.0
N2510 N 0.26861 0.86205 0.85846 0.0
N2511 N 0.31403 0.83602 0.96672 0.0
C2512 C 0.28556 0.8598 0.88412 0.0
C2513 C 0.30828 0.84477 0.93896 0.0
N2514 N 0.28609 0.91283 0.90994 0.0
N2515 N 0.31456 0.79567 0.91296 0.0
H2516 H 0.31645 0.85256 0.98606 0.0
H2517 H 0.31372 0.81196 0.97054 0.0
H2518 H 0.31243 0.77925 0.89372 0.0
H2519 H 0.32433 0.78938 0.93231 0.0
H2520 H 0.27707 0.92027 0.89087 0.0
H2521 H 0.2901 0.92963 0.92943 0.0
H2522 H 0.25782 0.87977 0.85654 0.0
H2523 H 0.26303 0.8435 0.83996 0.0
C2524 C 0.95881 0.54163 0.73369 0.0
C2525 C 0.96822 0.56191 0.76185 0.0
C2526 C 1.02194 0.58903 0.75014 0.0
C2527 C 1.01347 0.56605 0.72332 0.0
N2528 N 0.97258 0.52952 0.68455 0.0
N2529 N 1.0036 0.61349 0.79162 0.0
C2530 C 0.98129 0.54551 0.71328 0.0
C2531 C 0.998 0.58899 0.76796 0.0
N2532 N 0.92904 0.51721 0.72761 0.0
N2533 N 0.05296 0.60882 0.75974 0.0
H2534 H 0.98608 0.61362 0.8048 0.0
H2535 H 0.02416 0.63532 0.79612 0.0
H2536 H 0.07131 0.60935 0.74748 0.0
H2537 H 0.06084 0.62311 0.78077 0.0
H2538 H 0.92159 0.49859 0.70909 0.0
H2539 H 0.91208 0.51525 0.74207 0.0
H2540 H 0.94917 0.51606 0.67522 0.0
H2541 H 0.98878 0.53231 0.66919 0.0
C2542 C 0.34892 0.3287 0.45311 0.0
C2543 C 0.34123 0.29619 0.46385 0.0
C2544 C 0.34674 0.27309 0.41283 0.0
C2545 C 0.34991 0.30433 0.40108 0.0
N2546 N 0.34668 0.35987 0.4106 0.0
N2547 N 0.32582 0.23543 0.44998 0.0
C2548 C 0.34921 0.33166 0.42147 0.0
C2549 C 0.33845 0.26789 0.44263 0.0
N2550 N 0.35689 0.35728 0.47321 0.0
N2551 N 0.35243 0.24832 0.39581 0.0
H2552 H 0.31744 0.22988 0.47036 0.0
H2553 H 0.32021 0.21379 0.43453 0.0
H2554 H 0.35952 0.25143 0.37459 0.0
H2555 H 0.35361 0.22644 0.40408 0.0
H2556 H 0.36573 0.38192 0.46718 0.0
H2557 H 0.35803 0.3565 0.4963 0.0
H2558 H 0.34271 0.3789 0.4238 0.0
H2559 H 0.34488 0.36244 0.38786 0.0
C2560 C 0.4122 0.64334 0.53672 0.0
C2561 C 0.37993 0.63142 0.54148 0.0
C2562 C 0.37644 0.57211 0.53178 0.0
C2563 C 0.40929 0.58408 0.52947 0.0
N2564 N 0.45982 0.63091 0.53501 0.0
N2565 N 0.33284 0.58483 0.54915 0.0
C2566 C 0.42759 0.61968 0.53347 0.0
C2567 C 0.36242 0.59587 0.54052 0.0
N2568 N 0.42778 0.67704 0.53391 0.0
N2569 N 0.35844 0.53812 0.5248 0.0
H2570 H 0.32199 0.60142 0.55623 0.0
H2571 H 0.32025 0.55953 0.55198 0.0
H2572 H 0.36792 0.51997 0.51846 0.0
H2573 H 0.33383 0.52828 0.52285 0.0
H2574 H 0.45014 0.68648 0.52709 0.0
H2575 H 0.41731 0.69517 0.53578 0.0
H2576 H 0.4747 0.65629 0.54137 0.0
H2577 H 0.47203 0.61449 0.53238 0.0
C2578 C 0.94211 0.98184 0.56912 0.0
C2579 C 0.93385 0.94896 0.553 0.0
C2580 C 0.98362 0.96907 0.53126 0.0
C2581 C 0.99089 1.00272 0.54544 0.0
N2582 N 0.97271 0.0425 0.57184 0.0
N2583 N 0.94211 0.91529 0.51112 0.0
C2584 C 0.9687 1.00952 0.56247 0.0
C2585 C 0.95313 0.94386 0.53165 0.0
N2586 N 0.92567 0.98643 0.59176 0.0
N2587 N 1.00627 0.96009 0.51931 0.0
H2588 H 0.91932 0.89689 0.50961 0.0
H2589 H 0.95425 0.91201 0.49343 0.0
H2590 H 0.02962 0.97671 0.52028 0.0
H2591 H 1.00271 0.93494 0.51153 0.0
H2592 H 0.93284 1.009 0.60633 0.0
H2593 H 0.90655 0.96672 0.59778 0.0
H2594 H 0.95591 0.04913 0.58208 0.0
H2595 H 0.99126 0.06336 0.56646 0.0
C2596 C 0.8777 0.0868 0.27273 0.0
C2597 C 0.90933 0.09932 0.28735 0.0
C2598 C 0.89726 0.13916 0.32203 0.0
C2599 C 0.86691 0.12954 0.30513 0.0
N2600 N 0.82819 0.09551 0.2637 0.0
N2601 N 0.95042 0.13887 0.32424 0.0
C2602 C 0.85709 0.10363 0.28031 0.0
C2603 C 0.91937 0.12567 0.31177 0.0
N2604 N 0.86696 0.0579 0.25252 0.0
N2605 N 0.90489 0.16108 0.34794 0.0
H2606 H 0.96723 0.12954 0.31732 0.0
H2607 H 0.96016 0.16067 0.33979 0.0
H2608 H 0.89007 0.17295 0.3554 0.0
H2609 H 0.92491 0.16565 0.36324 0.0
H2610 H 0.84329 0.04528 0.24363 0.0
H2611 H 0.88121 0.0447 0.24638 0.0
H2612 H 0.82132 0.08034 0.24305 0.0
H2613 H 0.81147 0.10539 0.26985 0.0
C2614 C 0.69399 0.09421 0.14954 0.0
C2615 C 0.71441 0.08716 0.13064 0.0
C2616 C 0.66968 0.04174 0.10121 0.0
C2617 C 0.64987 0.0575 0.11293 0.0
N2618 N 0.64016 0.0889 0.15541 0.0
N2619 N 0.72336 0.0426 0.10126 0.0
C2620 C 0.66084 0.07988 0.14009 0.0
C2621 C 0.70278 0.05659 0.11079 0.0
N2622 N 0.70689 0.11549 0.1756 0.0
N2623 N 0.65667 0.01416 0.07976 0.0
H2624 H 0.74716 0.05229 0.11042 0.0
H2625 H 0.71666 0.02017 0.08666 0.0
H2626 H 0.63217 1.00262 0.07382 0.0
H2627 H 0.66963 1.00271 0.06825 0.0
H2628 H 0.6938 0.12136 0.19131 0.0
H2629 H 0.73134 0.1253 0.18221 0.0
H2630 H 0.647 0.10808 0.17343 0.0
H2631 H 0.61576 0.07615 0.15059 0.0
C2632 C 0.27985 0.51693 0.26187 0.0
C2633 C 0.26055 0.52143 0.28341 0.0
C2634 C 0.29171 0.50559 0.3223 0.0
C2635 C 0.31109 0.50136 0.30082 0.0
N2636 N 0.32926 0.51114 0.25286 0.0
N2637 N 0.25331 0.52968 0.33534 0.0
C2638 C 0.30709 0.50999 0.27148 0.0
C2639 C 0.26811 0.51877 0.31407 0.0
N2640 N 0.27111 0.51707 0.23207 0.0
N2641 N 0.29483 0.49547 0.35005 0.0
H2642 H 0.23634 0.54022 0.33016 0.0
H2643 H 0.26005 0.53141 0.35828 0.0
H2644 H 0.31255 0.48668 0.35726 0.0
H2645 H 0.27871 0.49385 0.36525 0.0
H2646 H 0.28242 0.51024 0.21512 0.0
H2647 H 0.25085 0.52122 0.22392 0.0
H2648 H 0.32926 0.52026 0.2321 0.0
H2649 H 0.34944 0.50603 0.25951 0.0
C2650 C 0.27098 0.45225 0.0152 0.0
C2651 C 0.2866 0.45174 0.04382 0.0
C2652 C 0.26059 0.48702 0.06752 0.0
C2653 C 0.24479 0.48725 0.03894 0.0
N2654 N 0.23157 0.46749 0.98609 0.0
N2655 N 0.29445 0.46528 0.09759 0.0
C2656 C 0.24904 0.46909 0.01291 0.0
C2657 C 0.28072 0.46802 0.07013 0.0
N2658 N 0.27736 0.43677 0.99016 0.0
N2659 N 0.25685 0.50574 0.09201 0.0
H2660 H 0.31082 0.4535 0.10033 0.0
H2661 H 0.28868 0.47314 0.1179 0.0
H2662 H 0.24124 0.51863 0.09116 0.0
H2663 H 0.27009 0.51002 0.11298 0.0
H2664 H 0.27015 0.43962 0.96833 0.0
H2665 H 0.29103 0.42168 0.99104 0.0
H2666 H 0.23065 0.45179 0.96682 0.0
H2667 H 0.21632 0.48065 0.9833 0.0
C2668 C 0.90246 0.95303 0.29171 0.0
C2669 C 0.89312 0.95375 0.26097 0.0
C2670 C 0.8455 0.90341 0.26096 0.0
C2671 C 0.85828 0.89877 0.28944 0.0
N2672 N 0.89654 0.9196 0.33363 0.0
N2673 N 0.85566 0.93192 0.21626 0.0
C2674 C 0.88576 0.92417 0.30562 0.0
C2675 C 0.86421 0.92999 0.2457 0.0
N2676 N 0.92767 0.97964 0.3072 0.0
N2677 N 0.81578 0.88215 0.24851 0.0
H2678 H 0.86843 0.95213 0.20509 0.0
H2679 H 0.83686 0.91305 0.2026 0.0
H2680 H 0.80141 0.86297 0.25958 0.0
H2681 H 0.80419 0.88547 0.22873 0.0
H2682 H 0.93435 0.98207 0.33019 0.0
H2683 H 0.94077 1.0008 0.29728 0.0
H2684 H 0.91846 0.93487 0.34544 0.0
H2685 H 0.88355 0.89949 0.34481 0.0
C2686 C 0.76258 0.17066 0.71332 0.0
C2687 C 0.76713 0.15136 0.73635 0.0
C2688 C 0.82044 0.19356 0.75163 0.0
C2689 C 0.81121 0.21671 0.73625 0.0
N2690 N 0.77985 0.22653 0.69538 0.0
N2691 N 0.80212 0.14192 0.77538 0.0
C2692 C 0.78481 0.2044 0.71378 0.0
C2693 C 0.79705 0.16139 0.75425 0.0
N2694 N 0.73659 0.15701 0.69212 0.0
N2695 N 0.85088 0.2034 0.76495 0.0
H2696 H 0.78549 0.11826 0.7781 0.0
H2697 H 0.82225 0.14997 0.79121 0.0
H2698 H 0.86782 0.22699 0.76226 0.0
H2699 H 0.85982 0.18717 0.77552 0.0
H2700 H 0.73217 0.16922 0.67407 0.0
H2701 H 0.72037 0.13209 0.69164 0.0
H2702 H 0.7597 0.22085 0.67998 0.0
H2703 H 0.79655 0.25131 0.69623 0.0
loop_
_geom_bond_atom_site_label_1
_geom_bond_atom_site_label_2
_geom_bond_distance
_geom_bond_site_symmetry_2
_ccdc_geom_bond_type
Zn0 O3 2.031 . S
Zn0 O5 2.049 . S
Zn0 O10 2.067 1_455 S
Zn1 O2 1.962 . S
Zn1 O4 1.986 . S
Zn1 O6 1.996 . S
Zn1 O9 1.943 . S
O2 Zn1 1.962 . S
O2 C7 1.254 . S
O3 Zn0 2.031 . S
O3 C7 1.269 . S
O4 Zn1 1.986 . S
O4 C11 1.262 . S
O5 Zn0 2.049 . S
O5 C13 1.260 . S
O6 Zn1 1.996 . S
O6 C13 1.257 . S
C7 O2 1.254 . S
C7 O3 1.269 . S
C8 O9 1.249 . S
C8 O10 1.270 1_455 S
O9 Zn1 1.943 . S
O9 C8 1.249 . S
O10 Zn0 2.067 1_655 S
O10 C8 1.270 1_655 S
C11 O4 1.262 . S
C11 O12 1.232 . S
O12 C11 1.232 . S
C13 O5 1.260 . S
C13 O6 1.257 . S
Zn14 O17 2.031 . S
Zn14 O19 2.049 . S
Zn14 O24 2.067 . S
Zn15 O16 1.962 . S
Zn15 O18 1.986 . S
Zn15 O20 1.996 . S
Zn15 O23 1.943 . S
O16 Zn15 1.962 . S
O16 C21 1.254 . S
O17 Zn14 2.031 . S
O17 C21 1.269 . S
O18 Zn15 1.986 . S
O18 C25 1.262 . S
O19 Zn14 2.049 . S
O19 C27 1.260 . S
O20 Zn15 1.996 . S
O20 C27 1.257 . S
C21 O16 1.254 . S
C21 O17 1.269 . S
C22 O23 1.249 . S
C22 O24 1.270 . S
O23 Zn15 1.943 . S
O23 C22 1.249 . S
O24 Zn14 2.067 . S
O24 C22 1.270 . S
C25 O18 1.262 . S
C25 O26 1.232 . S
O26 C25 1.232 . S
C27 O19 1.260 . S
C27 O20 1.257 . S
Zn28 O31 2.031 . S
Zn28 O33 2.049 . S
Zn28 O38 2.067 . S
Zn29 O30 1.962 . S
Zn29 O32 1.986 . S
Zn29 O34 1.996 . S
Zn29 O37 1.943 . S
O30 Zn29 1.962 . S
O30 C35 1.254 . S
O31 Zn28 2.031 . S
O31 C35 1.269 . S
O32 Zn29 1.986 . S
O32 C39 1.262 . S
O33 Zn28 2.049 . S
O33 C41 1.260 . S
O34 Zn29 1.996 . S
O34 C41 1.257 . S
C35 O30 1.254 . S
C35 O31 1.269 . S
C36 O37 1.249 . S
C36 O38 1.270 . S
O37 Zn29 1.943 . S
O37 C36 1.249 . S
O38 Zn28 2.067 . S
O38 C36 1.270 . S
C39 O32 1.262 . S
C39 O40 1.232 . S
O40 C39 1.232 . S
C41 O33 1.260 . S
C41 O34 1.257 . S
Zn42 O45 2.031 . S
Zn42 O47 2.049 . S
Zn42 O52 2.067 . S
Zn43 O44 1.962 . S
Zn43 O46 1.986 . S
Zn43 O48 1.996 . S
Zn43 O51 1.943 . S
O44 Zn43 1.962 . S
O44 C49 1.254 . S
O45 Zn42 2.031 . S
O45 C49 1.269 . S
O46 Zn43 1.986 . S
O46 C53 1.262 . S
O47 Zn42 2.049 . S
O47 C55 1.260 . S
O48 Zn43 1.996 . S
O48 C55 1.257 . S
C49 O44 1.254 . S
C49 O45 1.269 . S
C50 O51 1.249 . S
C50 O52 1.270 . S
O51 Zn43 1.943 . S
O51 C50 1.249 . S
O52 Zn42 2.067 . S
O52 C50 1.270 . S
C53 O46 1.262 . S
C53 O54 1.232 . S
O54 C53 1.232 . S
C55 O47 1.260 . S
C55 O48 1.257 . S
Zn56 O59 2.031 . S
Zn56 O61 2.049 . S
Zn56 O66 2.067 . S
Zn57 O58 1.962 . S
Zn57 O60 1.986 . S
Zn57 O62 1.996 . S
Zn57 O65 1.943 . S
O58 Zn57 1.962 . S
O58 C63 1.254 . S
O59 Zn56 2.031 . S
O59 C63 1.269 . S
O60 Zn57 1.986 . S
O60 C67 1.262 . S
O61 Zn56 2.049 . S
O61 C69 1.260 . S
O62 Zn57 1.996 . S
O62 C69 1.257 . S
C63 O58 1.254 . S
C63 O59 1.269 . S
C64 O65 1.249 . S
C64 O66 1.270 . S
O65 Zn57 1.943 . S
O65 C64 1.249 . S
O66 Zn56 2.067 . S
O66 C64 1.270 . S
C67 O60 1.262 . S
C67 O68 1.232 . S
O68 C67 1.232 . S
C69 O61 1.260 . S
C69 O62 1.257 . S
Zn70 O73 2.031 . S
Zn70 O75 2.049 . S
Zn70 O80 2.067 . S
Zn71 O72 1.962 . S
Zn71 O74 1.986 . S
Zn71 O76 1.996 . S
Zn71 O79 1.943 . S
O72 Zn71 1.962 . S
O72 C77 1.254 . S
O73 Zn70 2.031 . S
O73 C77 1.269 . S
O74 Zn71 1.986 . S
O74 C81 1.262 . S
O75 Zn70 2.049 . S
O75 C83 1.260 . S
O76 Zn71 1.996 . S
O76 C83 1.257 . S
C77 O72 1.254 . S
C77 O73 1.269 . S
C78 O79 1.249 . S
C78 O80 1.270 . S
O79 Zn71 1.943 . S
O79 C78 1.249 . S
O80 Zn70 2.067 . S
O80 C78 1.270 . S
C81 O74 1.262 . S
C81 O82 1.232 . S
O82 C81 1.232 . S
C83 O75 1.260 . S
C83 O76 1.257 . S
Zn84 O87 2.031 . S
Zn84 O89 2.049 . S
Zn84 O94 2.067 . S
Zn85 O86 1.962 . S
Zn85 O88 1.986 . S
Zn85 O90 1.996 . S
Zn85 O93 1.943 . S
O86 Zn85 1.962 . S
O86 C91 1.254 . S
O87 Zn84 2.031 . S
O87 C91 1.269 . S
O88 Zn85 1.986 . S
O88 C95 1.262 . S
O89 Zn84 2.049 . S
O89 C97 1.260 . S
O90 Zn85 1.996 . S
O90 C97 1.257 . S
C91 O86 1.254 . S
C91 O87 1.269 . S
C92 O93 1.249 . S
C92 O94 1.270 . S
O93 Zn85 1.943 . S
O93 C92 1.249 . S
O94 Zn84 2.067 . S
O94 C92 1.270 . S
C95 O88 1.262 . S
C95 O96 1.232 . S
O96 C95 1.232 . S
C97 O89 1.260 . S
C97 O90 1.257 . S
Zn98 O101 2.031 . S
Zn98 O103 2.049 . S
Zn98 O108 2.067 . S
Zn99 O100 1.962 . S
Zn99 O102 1.986 . S
Zn99 O104 1.994 1_455 S
Zn99 O107 1.943 1_455 S
O100 Zn99 1.962 . S
O100 C105 1.254 . S
O101 Zn98 2.031 . S
O101 C105 1.269 1_655 S
O102 Zn99 1.986 . S
O102 C109 1.262 . S
O103 Zn98 2.049 . S
O103 C111 1.260 . S
O104 Zn99 1.994 1_655 S
O104 C111 1.263 . S
C105 O100 1.254 . S
C105 O101 1.269 1_455 S
C106 O107 1.249 . S
C106 O108 1.270 . S
O107 Zn99 1.943 1_655 S
O107 C106 1.249 . S
O108 Zn98 2.067 . S
O108 C106 1.270 . S
C109 O102 1.262 . S
C109 O110 1.232 . S
O110 C109 1.232 . S
C111 O103 1.260 . S
C111 O104 1.263 . S
Zn112 O115 2.031 1_565 S
Zn112 O117 2.049 1_565 S
Zn112 O122 2.067 . S
Zn113 O114 1.962 . S
Zn113 O116 1.986 . S
Zn113 O118 1.996 . S
Zn113 O121 1.943 . S
O114 Zn113 1.962 . S
O114 C119 1.254 . S
O115 Zn112 2.031 1_545 S
O115 C119 1.269 . S
O116 Zn113 1.986 . S
O116 C123 1.262 . S
O117 Zn112 2.049 1_545 S
O117 C125 1.260 . S
O118 Zn113 1.996 . S
O118 C125 1.257 . S
C119 O114 1.254 . S
C119 O115 1.269 . S
C120 O121 1.249 1_565 S
C120 O122 1.270 . S
O121 Zn113 1.943 . S
O121 C120 1.249 1_545 S
O122 Zn112 2.067 . S
O122 C120 1.270 . S
C123 O116 1.262 . S
C123 O124 1.232 . S
O124 C123 1.232 . S
C125 O117 1.260 . S
C125 O118 1.257 . S
Zn126 O129 2.031 . S
Zn126 O131 2.049 . S
Zn126 O136 2.067 . S
Zn127 O128 1.962 . S
Zn127 O130 1.986 . S
Zn127 O132 1.996 . S
Zn127 O135 1.943 . S
O128 Zn127 1.962 . S
O128 C133 1.254 . S
O129 Zn126 2.031 . S
O129 C133 1.269 . S
O130 Zn127 1.986 . S
O130 C137 1.262 . S
O131 Zn126 2.049 . S
O131 C139 1.260 . S
O132 Zn127 1.996 . S
O132 C139 1.257 . S
C133 O128 1.254 . S
C133 O129 1.269 . S
C134 O135 1.249 . S
C134 O136 1.270 . S
O135 Zn127 1.943 . S
O135 C134 1.249 . S
O136 Zn126 2.067 . S
O136 C134 1.270 . S
C137 O130 1.262 . S
C137 O138 1.232 . S
O138 C137 1.232 . S
C139 O131 1.260 . S
C139 O132 1.257 . S
Zn140 O143 2.031 . S
Zn140 O145 2.049 . S
Zn140 O150 2.067 . S
Zn141 O142 1.962 . S
Zn141 O144 1.986 . S
Zn141 O146 1.996 . S
Zn141 O149 1.943 . S
O142 Zn141 1.962 . S
O142 C147 1.254 . S
O143 Zn140 2.031 . S
O143 C147 1.269 . S
O144 Zn141 1.986 . S
O144 C151 1.262 . S
O145 Zn140 2.049 . S
O145 C153 1.260 . S
O146 Zn141 1.996 . S
O146 C153 1.257 . S
C147 O142 1.254 . S
C147 O143 1.269 . S
C148 O149 1.249 . S
C148 O150 1.270 . S
O149 Zn141 1.943 . S
O149 C148 1.249 . S
O150 Zn140 2.067 . S
O150 C148 1.270 . S
C151 O144 1.262 . S
C151 O152 1.232 . S
O152 C151 1.232 . S
C153 O145 1.260 . S
C153 O146 1.257 . S
Zn154 O157 2.031 1_554 S
Zn154 O159 2.049 . S
Zn154 O164 2.067 . S
Zn155 O156 1.962 . S
Zn155 O158 1.986 1_556 S
Zn155 O160 1.996 1_556 S
Zn155 O163 1.943 1_556 S
O156 Zn155 1.962 . S
O156 C161 1.254 . S
O157 Zn154 2.031 1_556 S
O157 C161 1.269 . S
O158 Zn155 1.986 1_554 S
O158 C165 1.262 1_554 S
O159 Zn154 2.049 . S
O159 C167 1.260 . S
O160 Zn155 1.996 1_554 S
O160 C167 1.257 . S
C161 O156 1.254 . S
C161 O157 1.269 . S
C162 O163 1.249 . S
C162 O164 1.270 . S
O163 Zn155 1.943 1_554 S
O163 C162 1.249 . S
O164 Zn154 2.067 . S
O164 C162 1.270 . S
C165 O158 1.262 1_556 S
C165 O166 1.232 . S
O166 C165 1.232 . S
C167 O159 1.260 . S
C167 O160 1.257 . S
Zn168 O171 2.031 . S
Zn168 O173 2.049 . S
Zn168 O178 2.067 . S
Zn169 O170 1.962 . S
Zn169 O172 1.986 . S
Zn169 O174 1.996 . S
Zn169 O177 1.943 . S
O170 Zn169 1.962 . S
O170 C175 1.254 1_554 S
O171 Zn168 2.031 . S
O171 C175 1.269 1_554 S
O172 Zn169 1.986 . S
O172 C179 1.262 . S
O173 Zn168 2.049 . S
O173 C181 1.260 . S
O174 Zn169 1.996 . S
O174 C181 1.257 . S
C175 O170 1.254 1_556 S
C175 O171 1.269 1_556 S
C176 O177 1.249 . S
C176 O178 1.270 . S
O177 Zn169 1.943 . S
O177 C176 1.249 . S
O178 Zn168 2.067 . S
O178 C176 1.270 . S
C179 O172 1.262 . S
C179 O180 1.232 . S
O180 C179 1.232 . S
C181 O173 1.260 . S
C181 O174 1.257 . S
Zn182 O185 2.031 . S
Zn182 O187 2.049 . S
Zn182 O192 2.067 . S
Zn183 O184 1.962 . S
Zn183 O186 1.986 . S
Zn183 O188 1.996 . S
Zn183 O191 1.943 . S
O184 Zn183 1.962 . S
O184 C189 1.254 . S
O185 Zn182 2.031 . S
O185 C189 1.269 . S
O186 Zn183 1.986 . S
O186 C193 1.262 . S
O187 Zn182 2.049 . S
O187 C195 1.260 . S
O188 Zn183 1.996 . S
O188 C195 1.257 . S
C189 O184 1.254 . S
C189 O185 1.269 . S
C190 O191 1.249 . S
C190 O192 1.270 . S
O191 Zn183 1.943 . S
O191 C190 1.249 . S
O192 Zn182 2.067 . S
O192 C190 1.270 . S
C193 O186 1.262 . S
C193 O194 1.232 . S
O194 C193 1.232 . S
C195 O187 1.260 . S
C195 O188 1.257 . S
Zn196 O199 2.031 . S
Zn196 O201 2.049 . S
Zn196 O206 2.067 . S
Zn197 O198 1.962 . S
Zn197 O200 1.986 . S
Zn197 O202 1.996 . S
Zn197 O205 1.943 . S
O198 Zn197 1.962 . S
O198 C203 1.254 . S
O199 Zn196 2.031 . S
O199 C203 1.269 . S
O200 Zn197 1.986 . S
O200 C207 1.262 . S
O201 Zn196 2.049 . S
O201 C209 1.260 . S
O202 Zn197 1.996 . S
O202 C209 1.257 . S
C203 O198 1.254 . S
C203 O199 1.269 . S
C204 O205 1.249 . S
C204 O206 1.270 . S
O205 Zn197 1.943 . S
O205 C204 1.249 . S
O206 Zn196 2.067 . S
O206 C204 1.270 . S
C207 O200 1.262 . S
C207 O208 1.232 . S
O208 C207 1.232 . S
C209 O201 1.260 . S
C209 O202 1.257 . S
Zn210 O213 2.031 . S
Zn210 O215 2.049 . S
Zn210 O220 2.067 . S
Zn211 O212 1.962 . S
Zn211 O214 1.986 . S
Zn211 O216 1.996 . S
Zn211 O219 1.943 . S
O212 Zn211 1.962 . S
O212 C217 1.254 . S
O213 Zn210 2.031 . S
O213 C217 1.269 . S
O214 Zn211 1.986 . S
O214 C221 1.262 . S
O215 Zn210 2.049 . S
O215 C223 1.260 . S
O216 Zn211 1.996 . S
O216 C223 1.257 . S
C217 O212 1.254 . S
C217 O213 1.269 . S
C218 O219 1.249 . S
C218 O220 1.270 . S
O219 Zn211 1.943 . S
O219 C218 1.249 . S
O220 Zn210 2.067 . S
O220 C218 1.270 . S
C221 O214 1.262 . S
C221 O222 1.232 . S
O222 C221 1.232 . S
C223 O215 1.260 . S
C223 O216 1.257 . S
Zn224 O227 2.031 . S
Zn224 O229 2.049 . S
Zn224 O234 2.067 . S
Zn225 O226 1.962 . S
Zn225 O228 1.986 . S
Zn225 O230 1.996 . S
Zn225 O233 1.943 1_545 S
O226 Zn225 1.962 . S
O226 C231 1.254 . S
O227 Zn224 2.031 . S
O227 C231 1.269 1_565 S
O228 Zn225 1.986 . S
O228 C235 1.262 . S
O229 Zn224 2.049 . S
O229 C237 1.260 . S
O230 Zn225 1.996 . S
O230 C237 1.257 1_545 S
C231 O226 1.254 . S
C231 O227 1.269 1_545 S
C232 O233 1.249 . S
C232 O234 1.270 . S
O233 Zn225 1.943 1_565 S
O233 C232 1.249 . S
O234 Zn224 2.067 . S
O234 C232 1.270 . S
C235 O228 1.262 . S
C235 O236 1.232 . S
O236 C235 1.232 . S
C237 O229 1.260 . S
C237 O230 1.257 1_565 S
Zn238 O241 2.031 . S
Zn238 O243 2.049 . S
Zn238 O248 2.067 . S
Zn239 O240 1.962 . S
Zn239 O242 1.986 . S
Zn239 O244 1.996 . S
Zn239 O247 1.943 . S
O240 Zn239 1.962 . S
O240 C245 1.254 . S
O241 Zn238 2.031 . S
O241 C245 1.269 . S
O242 Zn239 1.986 . S
O242 C249 1.262 . S
O243 Zn238 2.049 . S
O243 C251 1.260 . S
O244 Zn239 1.996 . S
O244 C251 1.257 . S
C245 O240 1.254 . S
C245 O241 1.269 . S
C246 O247 1.249 . S
C246 O248 1.270 . S
O247 Zn239 1.943 . S
O247 C246 1.249 . S
O248 Zn238 2.067 . S
O248 C246 1.270 . S
C249 O242 1.262 . S
C249 O250 1.232 . S
O250 C249 1.232 . S
C251 O243 1.260 . S
C251 O244 1.257 . S
Zn252 O255 2.031 . S
Zn252 O257 2.049 . S
Zn252 O262 2.067 . S
Zn253 O254 1.962 . S
Zn253 O256 1.986 . S
Zn253 O258 1.996 . S
Zn253 O261 1.943 . S
O254 Zn253 1.962 . S
O254 C259 1.254 . S
O255 Zn252 2.031 . S
O255 C259 1.269 . S
O256 Zn253 1.986 . S
O256 C263 1.262 . S
O257 Zn252 2.049 . S
O257 C265 1.260 . S
O258 Zn253 1.996 . S
O258 C265 1.257 . S
C259 O254 1.254 . S
C259 O255 1.269 . S
C260 O261 1.249 . S
C260 O262 1.270 . S
O261 Zn253 1.943 . S
O261 C260 1.249 . S
O262 Zn252 2.067 . S
O262 C260 1.270 . S
C263 O256 1.262 . S
C263 O264 1.232 . S
O264 C263 1.232 . S
C265 O257 1.260 . S
C265 O258 1.257 . S
Zn266 O269 2.031 . S
Zn266 O271 2.049 . S
Zn266 O276 2.067 . S
Zn267 O268 1.962 . S
Zn267 O270 1.986 . S
Zn267 O272 1.996 . S
Zn267 O275 1.943 . S
O268 Zn267 1.962 . S
O268 C273 1.254 . S
O269 Zn266 2.031 . S
O269 C273 1.269 . S
O270 Zn267 1.986 . S
O270 C277 1.262 . S
O271 Zn266 2.049 . S
O271 C279 1.260 . S
O272 Zn267 1.996 . S
O272 C279 1.257 . S
C273 O268 1.254 . S
C273 O269 1.269 . S
C274 O275 1.249 . S
C274 O276 1.270 . S
O275 Zn267 1.943 . S
O275 C274 1.249 . S
O276 Zn266 2.067 . S
O276 C274 1.270 . S
C277 O270 1.262 . S
C277 O278 1.232 . S
O278 C277 1.232 . S
C279 O271 1.260 . S
C279 O272 1.257 . S
Zn280 O283 2.031 . S
Zn280 O285 2.049 . S
Zn280 O290 2.067 . S
Zn281 O282 1.962 . S
Zn281 O284 1.986 . S
Zn281 O286 1.996 . S
Zn281 O289 1.943 . S
O282 Zn281 1.962 . S
O282 C287 1.254 1_554 S
O283 Zn280 2.031 . S
O283 C287 1.269 1_554 S
O284 Zn281 1.986 . S
O284 C291 1.262 . S
O285 Zn280 2.049 . S
O285 C293 1.260 . S
O286 Zn281 1.996 . S
O286 C293 1.257 . S
C287 O282 1.254 1_556 S
C287 O283 1.269 1_556 S
C288 O289 1.249 . S
C288 O290 1.270 . S
O289 Zn281 1.943 . S
O289 C288 1.249 . S
O290 Zn280 2.067 . S
O290 C288 1.270 . S
C291 O284 1.262 . S
C291 O292 1.232 . S
O292 C291 1.232 . S
C293 O285 1.260 . S
C293 O286 1.257 . S
Zn294 O297 2.031 . S
Zn294 O299 2.049 . S
Zn294 O304 2.067 . S
Zn295 O296 1.962 . S
Zn295 O298 1.986 . S
Zn295 O300 1.996 . S
Zn295 O303 1.943 . S
O296 Zn295 1.962 . S
O296 C301 1.254 . S
O297 Zn294 2.031 . S
O297 C301 1.269 . S
O298 Zn295 1.986 . S
O298 C305 1.262 . S
O299 Zn294 2.049 . S
O299 C307 1.260 . S
O300 Zn295 1.996 . S
O300 C307 1.257 . S
C301 O296 1.254 . S
C301 O297 1.269 . S
C302 O303 1.249 . S
C302 O304 1.270 . S
O303 Zn295 1.943 . S
O303 C302 1.249 . S
O304 Zn294 2.067 . S
O304 C302 1.270 . S
C305 O298 1.262 . S
C305 O306 1.232 . S
O306 C305 1.232 . S
C307 O299 1.260 . S
C307 O300 1.257 . S
Zn308 O311 2.031 . S
Zn308 O313 2.049 . S
Zn308 O318 2.067 . S
Zn309 O310 1.962 . S
Zn309 O312 1.986 . S
Zn309 O314 1.996 . S
Zn309 O317 1.943 . S
O310 Zn309 1.962 . S
O310 C315 1.254 . S
O311 Zn308 2.031 . S
O311 C315 1.269 . S
O312 Zn309 1.986 . S
O312 C319 1.262 . S
O313 Zn308 2.049 . S
O313 C321 1.260 . S
O314 Zn309 1.996 . S
O314 C321 1.257 . S
C315 O310 1.254 . S
C315 O311 1.269 . S
C316 O317 1.249 . S
C316 O318 1.270 . S
O317 Zn309 1.943 . S
O317 C316 1.249 . S
O318 Zn308 2.067 . S
O318 C316 1.270 . S
C319 O312 1.262 . S
C319 O320 1.232 . S
O320 C319 1.232 . S
C321 O313 1.260 . S
C321 O314 1.257 . S
Zn322 O325 2.031 . S
Zn322 O327 2.049 . S
Zn322 O332 2.067 . S
Zn323 O324 1.962 . S
Zn323 O326 1.986 . S
Zn323 O328 1.996 . S
Zn323 O331 1.943 . S
O324 Zn323 1.962 . S
O324 C329 1.254 . S
O325 Zn322 2.031 . S
O325 C329 1.269 . S
O326 Zn323 1.986 . S
O326 C333 1.262 . S
O327 Zn322 2.049 . S
O327 C335 1.260 . S
O328 Zn323 1.996 . S
O328 C335 1.257 . S
C329 O324 1.254 . S
C329 O325 1.269 . S
C330 O331 1.249 . S
C330 O332 1.270 . S
O331 Zn323 1.943 . S
O331 C330 1.249 . S
O332 Zn322 2.067 . S
O332 C330 1.270 . S
C333 O326 1.262 . S
C333 O334 1.232 . S
O334 C333 1.232 . S
C335 O327 1.260 . S
C335 O328 1.257 . S
Tb336 C345 2.764 . S
Tb336 O346 2.325 . S
Tb336 O349 2.303 . S
Tb336 O353 2.322 . S
Tb336 O354 2.349 . S
Tb336 O357 2.415 . S
Tb336 O358 2.399 . S
Tb337 O347 2.322 1_545 S
Tb337 O348 2.349 1_554 S
Tb337 O350 2.415 1_455 S
Tb337 O351 2.399 1_454 S
Tb337 O352 2.325 . S
Tb337 O355 2.303 . S
Tb337 C366 2.764 1_455 S
C338 O354 1.261 . S
C338 O355 1.257 . S
C339 C342 1.358 . S
C339 C343 1.332 . S
C339 C345 1.504 . S
C340 C341 1.373 . S
C340 C344 1.308 . S
C341 C340 1.373 . S
C341 C342 1.429 . S
C341 H368 0.932 . S
C342 C339 1.358 . S
C342 C341 1.429 . S
C342 H369 0.930 . S
C343 C339 1.332 . S
C343 C344 1.394 . S
C343 H370 0.932 . S
C344 C340 1.308 . S
C344 C343 1.394 . S
C344 H371 0.929 . S
C345 Tb336 2.764 . S
C345 C339 1.504 . S
C345 O357 1.239 . S
C345 O358 1.263 . S
O346 Tb336 2.325 . S
O346 C356 1.236 1_545 S
O347 Tb337 2.322 1_565 S
O347 C356 1.257 . S
O348 Tb337 2.349 1_556 S
O348 C359 1.261 . S
O349 Tb336 2.303 . S
O349 C359 1.257 1_554 S
O350 Tb337 2.415 1_655 S
O350 C366 1.239 . S
O351 Tb337 2.399 1_656 S
O351 C366 1.263 1_556 S
O352 Tb337 2.325 . S
O352 C367 1.236 . S
O353 Tb336 2.322 . S
O353 C367 1.257 . S
O354 Tb336 2.349 . S
O354 C338 1.261 . S
O355 Tb337 2.303 . S
O355 C338 1.257 . S
C356 O346 1.236 1_565 S
C356 O347 1.257 . S
O357 Tb336 2.415 . S
O357 C345 1.239 . S
O358 Tb336 2.399 . S
O358 C345 1.263 . S
C359 O348 1.261 . S
C359 O349 1.257 1_556 S
C360 C363 1.358 1_554 S
C360 C364 1.332 . S
C360 C366 1.504 . S
C361 C362 1.373 . S
C361 C365 1.308 1_556 S
C362 C361 1.373 . S
C362 C363 1.429 . S
C362 H372 0.932 . S
C363 C360 1.358 1_556 S
C363 C362 1.429 . S
C363 H373 0.930 . S
C364 C360 1.332 . S
C364 C365 1.394 . S
C364 H374 0.932 . S
C365 C361 1.308 1_554 S
C365 C364 1.394 . S
C365 H375 0.929 . S
C366 Tb337 2.764 1_655 S
C366 O350 1.239 . S
C366 O351 1.263 1_554 S
C366 C360 1.504 . S
C367 O352 1.236 . S
C367 O353 1.257 . S
H368 C341 0.932 . S
H369 C342 0.930 . S
H370 C343 0.932 . S
H371 C344 0.929 . S
H372 C362 0.932 . S
H373 C363 0.930 . S
H374 C364 0.932 . S
H375 C365 0.929 . S
Tb376 C385 2.764 . S
Tb376 O386 2.325 . S
Tb376 O389 2.303 . S
Tb376 O393 2.322 . S
Tb376 O394 2.349 . S
Tb376 O397 2.415 . S
Tb376 O398 2.399 . S
Tb377 O387 2.322 . S
Tb377 O388 2.349 . S
Tb377 O390 2.415 . S
Tb377 O391 2.399 . S
Tb377 O392 2.325 . S
Tb377 O395 2.303 . S
Tb377 C406 2.764 . S
C378 O394 1.261 . S
C378 O395 1.257 . S
C379 C382 1.358 . S
C379 C383 1.332 . S
C379 C385 1.504 . S
C380 C381 1.373 . S
C380 C384 1.308 . S
C381 C380 1.373 . S
C381 C382 1.429 . S
C381 H408 0.932 . S
C382 C379 1.358 . S
C382 C381 1.429 . S
C382 H409 0.930 . S
C383 C379 1.332 . S
C383 C384 1.394 . S
C383 H410 0.932 . S
C384 C380 1.308 . S
C384 C383 1.394 . S
C384 H411 0.929 . S
C385 Tb376 2.764 . S
C385 C379 1.504 . S
C385 O397 1.239 . S
C385 O398 1.263 . S
O386 Tb376 2.325 . S
O386 C396 1.236 . S
O387 Tb377 2.322 . S
O387 C396 1.257 . S
O388 Tb377 2.349 . S
O388 C399 1.261 . S
O389 Tb376 2.303 . S
O389 C399 1.257 . S
O390 Tb377 2.415 . S
O390 C406 1.239 . S
O391 Tb377 2.399 . S
O391 C406 1.263 . S
O392 Tb377 2.325 . S
O392 C407 1.236 . S
O393 Tb376 2.322 . S
O393 C407 1.257 . S
O394 Tb376 2.349 . S
O394 C378 1.261 . S
O395 Tb377 2.303 . S
O395 C378 1.257 . S
C396 O386 1.236 . S
C396 O387 1.257 . S
O397 Tb376 2.415 . S
O397 C385 1.239 . S
O398 Tb376 2.399 . S
O398 C385 1.263 . S
C399 O388 1.261 . S
C399 O389 1.257 . S
C400 C403 1.358 . S
C400 C404 1.332 . S
C400 C406 1.504 . S
C401 C402 1.373 . S
C401 C405 1.308 . S
C402 C401 1.373 . S
C402 C403 1.429 . S
C402 H412 0.932 . S
C403 C400 1.358 . S
C403 C402 1.429 . S
C403 H413 0.930 . S
C404 C400 1.332 . S
C404 C405 1.394 . S
C404 H414 0.932 . S
C405 C401 1.308 . S
C405 C404 1.394 . S
C405 H415 0.929 . S
C406 Tb377 2.764 . S
C406 O390 1.239 . S
C406 O391 1.263 . S
C406 C400 1.504 . S
C407 O392 1.236 . S
C407 O393 1.257 . S
H408 C381 0.932 . S
H409 C382 0.930 . S
H410 C383 0.932 . S
H411 C384 0.929 . S
H412 C402 0.932 . S
H413 C403 0.930 . S
H414 C404 0.932 . S
H415 C405 0.929 . S
Tb416 C425 2.764 . S
Tb416 O426 2.325 . S
Tb416 O429 2.303 . S
Tb416 O433 2.322 1_545 S
Tb416 O434 2.349 . S
Tb416 O437 2.415 . S
Tb416 O438 2.399 . S
Tb417 O427 2.322 . S
Tb417 O428 2.349 . S
Tb417 O430 2.415 . S
Tb417 O431 2.399 . S
Tb417 O432 2.325 1_545 S
Tb417 O435 2.303 . S
Tb417 C446 2.764 . S
C418 O434 1.261 . S
C418 O435 1.257 . S
C419 C422 1.358 . S
C419 C423 1.332 . S
C419 C425 1.504 . S
C420 C421 1.373 . S
C420 C424 1.308 . S
C421 C420 1.373 . S
C421 C422 1.429 . S
C421 H448 0.932 . S
C422 C419 1.358 . S
C422 C421 1.429 . S
C422 H449 0.930 . S
C423 C419 1.332 . S
C423 C424 1.394 . S
C423 H450 0.932 . S
C424 C420 1.308 . S
C424 C423 1.394 . S
C424 H451 0.929 . S
C425 Tb416 2.764 . S
C425 C419 1.504 . S
C425 O437 1.239 . S
C425 O438 1.263 . S
O426 Tb416 2.325 . S
O426 C436 1.236 . S
O427 Tb417 2.322 . S
O427 C436 1.257 . S
O428 Tb417 2.349 . S
O428 C439 1.261 . S
O429 Tb416 2.303 . S
O429 C439 1.257 . S
O430 Tb417 2.415 . S
O430 C446 1.239 . S
O431 Tb417 2.399 . S
O431 C446 1.263 . S
O432 Tb417 2.325 1_565 S
O432 C447 1.236 . S
O433 Tb416 2.322 1_565 S
O433 C447 1.257 . S
O434 Tb416 2.349 . S
O434 C418 1.261 . S
O435 Tb417 2.303 . S
O435 C418 1.257 . S
C436 O426 1.236 . S
C436 O427 1.257 . S
O437 Tb416 2.415 . S
O437 C425 1.239 . S
O438 Tb416 2.399 . S
O438 C425 1.263 . S
C439 O428 1.261 . S
C439 O429 1.257 . S
C440 C443 1.358 . S
C440 C444 1.332 1_545 S
C440 C446 1.504 . S
C441 C442 1.373 . S
C441 C445 1.308 . S
C442 C441 1.373 . S
C442 C443 1.429 1_565 S
C442 H452 0.932 . S
C443 C440 1.358 . S
C443 C442 1.429 1_545 S
C443 H453 0.930 . S
C444 C440 1.332 1_565 S
C444 C445 1.394 . S
C444 H454 0.932 . S
C445 C441 1.308 . S
C445 C444 1.394 . S
C445 H455 0.929 . S
C446 Tb417 2.764 . S
C446 O430 1.239 . S
C446 O431 1.263 . S
C446 C440 1.504 . S
C447 O432 1.236 . S
C447 O433 1.257 . S
H448 C421 0.932 . S
H449 C422 0.930 . S
H450 C423 0.932 . S
H451 C424 0.929 . S
H452 C442 0.932 . S
H453 C443 0.930 . S
H454 C444 0.932 . S
H455 C445 0.929 . S
Tb456 C465 2.764 . S
Tb456 O466 2.325 . S
Tb456 O469 2.303 . S
Tb456 O473 2.322 . S
Tb456 O474 2.349 . S
Tb456 O477 2.415 . S
Tb456 O478 2.399 . S
Tb457 O467 2.322 . S
Tb457 O468 2.349 . S
Tb457 O470 2.415 . S
Tb457 O471 2.399 . S
Tb457 O472 2.325 . S
Tb457 O475 2.303 . S
Tb457 C486 2.764 . S
C458 O474 1.261 . S
C458 O475 1.257 . S
C459 C462 1.358 . S
C459 C463 1.332 . S
C459 C465 1.504 . S
C460 C461 1.373 . S
C460 C464 1.308 . S
C461 C460 1.373 . S
C461 C462 1.429 . S
C461 H488 0.932 . S
C462 C459 1.358 . S
C462 C461 1.429 . S
C462 H489 0.930 . S
C463 C459 1.332 . S
C463 C464 1.394 . S
C463 H490 0.932 . S
C464 C460 1.308 . S
C464 C463 1.394 . S
C464 H491 0.929 . S
C465 Tb456 2.764 . S
C465 C459 1.504 . S
C465 O477 1.239 . S
C465 O478 1.263 . S
O466 Tb456 2.325 . S
O466 C476 1.236 . S
O467 Tb457 2.322 . S
O467 C476 1.257 . S
O468 Tb457 2.349 . S
O468 C479 1.261 . S
O469 Tb456 2.303 . S
O469 C479 1.257 . S
O470 Tb457 2.415 . S
O470 C486 1.239 . S
O471 Tb457 2.399 . S
O471 C486 1.263 . S
O472 Tb457 2.325 . S
O472 C487 1.236 . S
O473 Tb456 2.322 . S
O473 C487 1.257 . S
O474 Tb456 2.349 . S
O474 C458 1.261 . S
O475 Tb457 2.303 . S
O475 C458 1.257 . S
C476 O466 1.236 . S
C476 O467 1.257 . S
O477 Tb456 2.415 . S
O477 C465 1.239 . S
O478 Tb456 2.399 . S
O478 C465 1.263 . S
C479 O468 1.261 . S
C479 O469 1.257 . S
C480 C483 1.358 . S
C480 C484 1.332 . S
C480 C486 1.504 . S
C481 C482 1.373 . S
C481 C485 1.308 . S
C482 C481 1.373 . S
C482 C483 1.429 . S
C482 H492 0.932 . S
C483 C480 1.358 . S
C483 C482 1.429 . S
C483 H493 0.930 . S
C484 C480 1.332 . S
C484 C485 1.394 . S
C484 H494 0.932 . S
C485 C481 1.308 . S
C485 C484 1.394 . S
C485 H495 0.929 . S
C486 Tb457 2.764 . S
C486 O470 1.239 . S
C486 O471 1.263 . S
C486 C480 1.504 . S
C487 O472 1.236 . S
C487 O473 1.257 . S
H488 C461 0.932 . S
H489 C462 0.930 . S
H490 C463 0.932 . S
H491 C464 0.929 . S
H492 C482 0.932 . S
H493 C483 0.930 . S
H494 C484 0.932 . S
H495 C485 0.929 . S
Tb496 C505 2.764 . S
Tb496 O506 2.325 . S
Tb496 O509 2.303 . S
Tb496 O513 2.322 . S
Tb496 O514 2.349 . S
Tb496 O517 2.415 . S
Tb496 O518 2.399 . S
Tb497 O507 2.322 . S
Tb497 O508 2.349 . S
Tb497 O510 2.415 . S
Tb497 O511 2.399 . S
Tb497 O512 2.325 . S
Tb497 O515 2.303 . S
Tb497 C526 2.764 . S
C498 O514 1.261 1_655 S
C498 O515 1.257 1_655 S
C499 C502 1.358 . S
C499 C503 1.332 . S
C499 C505 1.504 . S
C500 C501 1.373 . S
C500 C504 1.308 . S
C501 C500 1.373 . S
C501 C502 1.429 . S
C501 H528 0.932 . S
C502 C499 1.358 . S
C502 C501 1.429 . S
C502 H529 0.930 . S
C503 C499 1.332 . S
C503 C504 1.394 . S
C503 H530 0.932 . S
C504 C500 1.308 . S
C504 C503 1.394 . S
C504 H531 0.929 . S
C505 Tb496 2.764 . S
C505 C499 1.504 . S
C505 O517 1.239 . S
C505 O518 1.263 . S
O506 Tb496 2.325 . S
O506 C516 1.236 . S
O507 Tb497 2.322 . S
O507 C516 1.257 . S
O508 Tb497 2.349 . S
O508 C519 1.261 . S
O509 Tb496 2.303 . S
O509 C519 1.257 . S
O510 Tb497 2.415 . S
O510 C526 1.239 . S
O511 Tb497 2.399 . S
O511 C526 1.263 . S
O512 Tb497 2.325 . S
O512 C527 1.236 . S
O513 Tb496 2.322 . S
O513 C527 1.257 . S
O514 Tb496 2.349 . S
O514 C498 1.261 1_455 S
O515 Tb497 2.303 . S
O515 C498 1.257 1_455 S
C516 O506 1.236 . S
C516 O507 1.257 . S
O517 Tb496 2.415 . S
O517 C505 1.239 . S
O518 Tb496 2.399 . S
O518 C505 1.263 . S
C519 O508 1.261 . S
C519 O509 1.257 . S
C520 C523 1.358 . S
C520 C524 1.332 1_455 S
C520 C526 1.504 . S
C521 C522 1.373 1_655 S
C521 C525 1.308 . S
C522 C521 1.373 1_455 S
C522 C523 1.429 . S
C522 H532 0.932 . S
C523 C520 1.358 . S
C523 C522 1.429 . S
C523 H533 0.930 . S
C524 C520 1.332 1_655 S
C524 C525 1.394 . S
C524 H534 0.932 . S
C525 C521 1.308 . S
C525 C524 1.394 . S
C525 H535 0.929 . S
C526 Tb497 2.764 . S
C526 O510 1.239 . S
C526 O511 1.263 . S
C526 C520 1.504 . S
C527 O512 1.236 . S
C527 O513 1.257 . S
H528 C501 0.932 . S
H529 C502 0.930 . S
H530 C503 0.932 . S
H531 C504 0.929 . S
H532 C522 0.932 . S
H533 C523 0.930 . S
H534 C524 0.932 . S
H535 C525 0.929 . S
Tb536 C545 2.764 . S
Tb536 O546 2.325 . S
Tb536 O549 2.303 . S
Tb536 O553 2.322 . S
Tb536 O554 2.349 . S
Tb536 O557 2.415 . S
Tb536 O558 2.399 . S
Tb537 O547 2.322 . S
Tb537 O548 2.349 . S
Tb537 O550 2.415 . S
Tb537 O551 2.399 . S
Tb537 O552 2.325 . S
Tb537 O555 2.303 . S
Tb537 C566 2.764 . S
C538 O554 1.261 . S
C538 O555 1.257 . S
C539 C542 1.358 . S
C539 C543 1.332 . S
C539 C545 1.504 . S
C540 C541 1.373 . S
C540 C544 1.308 . S
C541 C540 1.373 . S
C541 C542 1.429 . S
C541 H568 0.932 . S
C542 C539 1.358 . S
C542 C541 1.429 . S
C542 H569 0.930 . S
C543 C539 1.332 . S
C543 C544 1.394 . S
C543 H570 0.932 . S
C544 C540 1.308 . S
C544 C543 1.394 . S
C544 H571 0.929 . S
C545 Tb536 2.764 . S
C545 C539 1.504 . S
C545 O557 1.239 . S
C545 O558 1.263 . S
O546 Tb536 2.325 . S
O546 C556 1.236 . S
O547 Tb537 2.322 . S
O547 C556 1.257 . S
O548 Tb537 2.349 . S
O548 C559 1.261 . S
O549 Tb536 2.303 . S
O549 C559 1.257 . S
O550 Tb537 2.415 . S
O550 C566 1.239 . S
O551 Tb537 2.399 . S
O551 C566 1.263 . S
O552 Tb537 2.325 . S
O552 C567 1.236 . S
O553 Tb536 2.322 . S
O553 C567 1.257 . S
O554 Tb536 2.349 . S
O554 C538 1.261 . S
O555 Tb537 2.303 . S
O555 C538 1.257 . S
C556 O546 1.236 . S
C556 O547 1.257 . S
O557 Tb536 2.415 . S
O557 C545 1.239 . S
O558 Tb536 2.399 . S
O558 C545 1.263 . S
C559 O548 1.261 . S
C559 O549 1.257 . S
C560 C563 1.358 . S
C560 C564 1.332 . S
C560 C566 1.504 . S
C561 C562 1.373 . S
C561 C565 1.308 . S
C562 C561 1.373 . S
C562 C563 1.429 . S
C562 H572 0.932 . S
C563 C560 1.358 . S
C563 C562 1.429 . S
C563 H573 0.930 . S
C564 C560 1.332 . S
C564 C565 1.394 . S
C564 H574 0.932 . S
C565 C561 1.308 . S
C565 C564 1.394 . S
C565 H575 0.929 . S
C566 Tb537 2.764 . S
C566 O550 1.239 . S
C566 O551 1.263 . S
C566 C560 1.504 . S
C567 O552 1.236 . S
C567 O553 1.257 . S
H568 C541 0.932 . S
H569 C542 0.930 . S
H570 C543 0.932 . S
H571 C544 0.929 . S
H572 C562 0.932 . S
H573 C563 0.930 . S
H574 C564 0.932 . S
H575 C565 0.929 . S
Tb576 C585 2.764 . S
Tb576 O586 2.325 . S
Tb576 O589 2.303 . S
Tb576 O593 2.322 . S
Tb576 O594 2.349 . S
Tb576 O597 2.415 . S
Tb576 O598 2.399 . S
Tb577 O587 2.322 . S
Tb577 O588 2.349 1_554 S
Tb577 O590 2.415 1_554 S
Tb577 O591 2.399 1_554 S
Tb577 O592 2.325 1_554 S
Tb577 O595 2.303 . S
Tb577 C606 2.764 1_554 S
C578 O594 1.261 . S
C578 O595 1.257 . S
C579 C582 1.358 . S
C579 C583 1.332 . S
C579 C585 1.504 . S
C580 C581 1.373 . S
C580 C584 1.308 . S
C581 C580 1.373 . S
C581 C582 1.429 . S
C581 H608 0.932 . S
C582 C579 1.358 . S
C582 C581 1.429 . S
C582 H609 0.930 . S
C583 C579 1.332 . S
C583 C584 1.394 . S
C583 H610 0.932 . S
C584 C580 1.308 . S
C584 C583 1.394 . S
C584 H611 0.929 . S
C585 Tb576 2.764 . S
C585 C579 1.504 . S
C585 O597 1.239 . S
C585 O598 1.263 . S
O586 Tb576 2.325 . S
O586 C596 1.236 . S
O587 Tb577 2.322 . S
O587 C596 1.257 . S
O588 Tb577 2.349 1_556 S
O588 C599 1.261 1_556 S
O589 Tb576 2.303 . S
O589 C599 1.257 . S
O590 Tb577 2.415 1_556 S
O590 C606 1.239 . S
O591 Tb577 2.399 1_556 S
O591 C606 1.263 . S
O592 Tb577 2.325 1_556 S
O592 C607 1.236 1_556 S
O593 Tb576 2.322 . S
O593 C607 1.257 . S
O594 Tb576 2.349 . S
O594 C578 1.261 . S
O595 Tb577 2.303 . S
O595 C578 1.257 . S
C596 O586 1.236 . S
C596 O587 1.257 . S
O597 Tb576 2.415 . S
O597 C585 1.239 . S
O598 Tb576 2.399 . S
O598 C585 1.263 . S
C599 O588 1.261 1_554 S
C599 O589 1.257 . S
C600 C603 1.358 . S
C600 C604 1.332 . S
C600 C606 1.504 . S
C601 C602 1.373 . S
C601 C605 1.308 . S
C602 C601 1.373 . S
C602 C603 1.429 . S
C602 H612 0.932 . S
C603 C600 1.358 . S
C603 C602 1.429 . S
C603 H613 0.930 . S
C604 C600 1.332 . S
C604 C605 1.394 . S
C604 H614 0.932 . S
C605 C601 1.308 . S
C605 C604 1.394 . S
C605 H615 0.929 . S
C606 Tb577 2.764 1_556 S
C606 O590 1.239 . S
C606 O591 1.263 . S
C606 C600 1.504 . S
C607 O592 1.236 1_554 S
C607 O593 1.257 . S
H608 C581 0.932 . S
H609 C582 0.930 . S
H610 C583 0.932 . S
H611 C584 0.929 . S
H612 C602 0.932 . S
H613 C603 0.930 . S
H614 C604 0.932 . S
H615 C605 0.929 . S
Tb616 C625 2.764 . S
Tb616 O626 2.325 . S
Tb616 O629 2.303 . S
Tb616 O633 2.322 . S
Tb616 O634 2.349 . S
Tb616 O637 2.415 . S
Tb616 O638 2.399 . S
Tb617 O627 2.322 . S
Tb617 O628 2.349 . S
Tb617 O630 2.415 . S
Tb617 O631 2.399 . S
Tb617 O632 2.325 . S
Tb617 O635 2.303 . S
Tb617 C646 2.764 . S
C618 O634 1.261 . S
C618 O635 1.257 . S
C619 C622 1.358 . S
C619 C623 1.332 . S
C619 C625 1.504 . S
C620 C621 1.373 . S
C620 C624 1.308 . S
C621 C620 1.373 . S
C621 C622 1.429 . S
C621 H648 0.932 . S
C622 C619 1.358 . S
C622 C621 1.429 . S
C622 H649 0.930 . S
C623 C619 1.332 . S
C623 C624 1.394 . S
C623 H650 0.932 . S
C624 C620 1.308 . S
C624 C623 1.394 . S
C624 H651 0.929 . S
C625 Tb616 2.764 . S
C625 C619 1.504 . S
C625 O637 1.239 . S
C625 O638 1.263 . S
O626 Tb616 2.325 . S
O626 C636 1.236 . S
O627 Tb617 2.322 . S
O627 C636 1.257 . S
O628 Tb617 2.349 . S
O628 C639 1.261 . S
O629 Tb616 2.303 . S
O629 C639 1.257 . S
O630 Tb617 2.415 . S
O630 C646 1.239 . S
O631 Tb617 2.399 . S
O631 C646 1.263 . S
O632 Tb617 2.325 . S
O632 C647 1.236 . S
O633 Tb616 2.322 . S
O633 C647 1.257 . S
O634 Tb616 2.349 . S
O634 C618 1.261 . S
O635 Tb617 2.303 . S
O635 C618 1.257 . S
C636 O626 1.236 . S
C636 O627 1.257 . S
O637 Tb616 2.415 . S
O637 C625 1.239 . S
O638 Tb616 2.399 . S
O638 C625 1.263 . S
C639 O628 1.261 . S
C639 O629 1.257 . S
C640 C643 1.358 . S
C640 C644 1.332 . S
C640 C646 1.504 . S
C641 C642 1.373 . S
C641 C645 1.308 . S
C642 C641 1.373 . S
C642 C643 1.429 . S
C642 H652 0.932 . S
C643 C640 1.358 . S
C643 C642 1.429 . S
C643 H653 0.930 . S
C644 C640 1.332 . S
C644 C645 1.394 . S
C644 H654 0.932 . S
C645 C641 1.308 . S
C645 C644 1.394 . S
C645 H655 0.929 . S
C646 Tb617 2.764 . S
C646 O630 1.239 . S
C646 O631 1.263 . S
C646 C640 1.504 . S
C647 O632 1.236 . S
C647 O633 1.257 . S
H648 C621 0.932 . S
H649 C622 0.930 . S
H650 C623 0.932 . S
H651 C624 0.929 . S
H652 C642 0.932 . S
H653 C643 0.930 . S
H654 C644 0.932 . S
H655 C645 0.929 . S
Tb656 C665 2.764 . S
Tb656 O666 2.325 . S
Tb656 O669 2.303 . S
Tb656 O673 2.322 . S
Tb656 O674 2.349 . S
Tb656 O677 2.415 . S
Tb656 O678 2.399 . S
Tb657 O667 2.344 . S
Tb657 O668 2.350 . S
Tb657 O670 2.397 1_554 S
Tb657 O671 2.372 1_554 S
Tb657 O672 2.319 1_554 S
Tb657 O675 2.322 . S
Tb657 C686 2.739 1_554 S
C658 O674 1.261 . S
C658 O675 1.257 . S
C659 C662 1.358 . S
C659 C663 1.332 . S
C659 C665 1.504 . S
C660 C661 1.373 . S
C660 C664 1.308 . S
C661 C660 1.373 . S
C661 C662 1.429 . S
C661 H688 0.932 . S
C662 C659 1.358 . S
C662 C661 1.429 . S
C662 H689 0.930 . S
C663 C659 1.332 . S
C663 C664 1.394 . S
C663 H690 0.932 . S
C664 C660 1.308 . S
C664 C663 1.394 . S
C664 H691 0.929 . S
C665 Tb656 2.764 . S
C665 C659 1.504 . S
C665 O677 1.239 . S
C665 O678 1.263 . S
O666 Tb656 2.325 . S
O666 C676 1.236 . S
O667 Tb657 2.344 . S
O667 C676 1.257 . S
O668 Tb657 2.350 . S
O668 C679 1.261 . S
O669 Tb656 2.303 . S
O669 C679 1.257 . S
O670 Tb657 2.397 1_556 S
O670 C686 1.239 . S
O671 Tb657 2.372 1_556 S
O671 C686 1.263 . S
O672 Tb657 2.319 1_556 S
O672 C687 1.219 1_556 S
O673 Tb656 2.322 . S
O673 C687 1.257 . S
O674 Tb656 2.349 . S
O674 C658 1.261 . S
O675 Tb657 2.322 . S
O675 C658 1.257 . S
C676 O666 1.236 . S
C676 O667 1.257 . S
O677 Tb656 2.415 . S
O677 C665 1.239 . S
O678 Tb656 2.399 . S
O678 C665 1.263 . S
C679 O668 1.261 . S
C679 O669 1.257 . S
C680 C683 1.358 . S
C680 C684 1.332 . S
C680 C686 1.504 . S
C681 C682 1.373 . S
C681 C685 1.308 . S
C682 C681 1.373 . S
C682 C683 1.429 . S
C682 H692 0.932 . S
C683 C680 1.358 . S
C683 C682 1.429 . S
C683 H693 0.930 . S
C684 C680 1.332 . S
C684 C685 1.394 . S
C684 H694 0.932 . S
C685 C681 1.308 . S
C685 C684 1.394 . S
C685 H695 0.929 . S
C686 Tb657 2.739 1_556 S
C686 O670 1.239 . S
C686 O671 1.263 . S
C686 C680 1.504 . S
C687 O672 1.219 1_554 S
C687 O673 1.257 . S
H688 C661 0.932 . S
H689 C662 0.930 . S
H690 C663 0.932 . S
H691 C664 0.929 . S
H692 C682 0.932 . S
H693 C683 0.930 . S
H694 C684 0.932 . S
H695 C685 0.929 . S
Tb696 C705 2.764 . S
Tb696 O706 2.325 . S
Tb696 O709 2.303 . S
Tb696 O713 2.322 . S
Tb696 O714 2.349 . S
Tb696 O717 2.415 . S
Tb696 O718 2.399 . S
Tb697 O707 2.322 . S
Tb697 O708 2.349 . S
Tb697 O710 2.415 . S
Tb697 O711 2.399 . S
Tb697 O712 2.325 . S
Tb697 O715 2.303 . S
Tb697 C726 2.764 . S
C698 O714 1.261 . S
C698 O715 1.257 . S
C699 C702 1.358 . S
C699 C703 1.332 . S
C699 C705 1.504 . S
C700 C701 1.373 . S
C700 C704 1.308 . S
C701 C700 1.373 . S
C701 C702 1.429 . S
C701 H728 0.932 . S
C702 C699 1.358 . S
C702 C701 1.429 . S
C702 H729 0.930 . S
C703 C699 1.332 . S
C703 C704 1.394 . S
C703 H730 0.932 . S
C704 C700 1.308 . S
C704 C703 1.394 . S
C704 H731 0.929 . S
C705 Tb696 2.764 . S
C705 C699 1.504 . S
C705 O717 1.239 . S
C705 O718 1.263 . S
O706 Tb696 2.325 . S
O706 C716 1.236 . S
O707 Tb697 2.322 . S
O707 C716 1.257 . S
O708 Tb697 2.349 . S
O708 C719 1.261 . S
O709 Tb696 2.303 . S
O709 C719 1.257 . S
O710 Tb697 2.415 . S
O710 C726 1.239 . S
O711 Tb697 2.399 . S
O711 C726 1.263 . S
O712 Tb697 2.325 . S
O712 C727 1.236 . S
O713 Tb696 2.322 . S
O713 C727 1.257 . S
O714 Tb696 2.349 . S
O714 C698 1.261 . S
O715 Tb697 2.303 . S
O715 C698 1.257 . S
C716 O706 1.236 . S
C716 O707 1.257 . S
O717 Tb696 2.415 . S
O717 C705 1.239 . S
O718 Tb696 2.399 . S
O718 C705 1.263 . S
C719 O708 1.261 . S
C719 O709 1.257 . S
C720 C723 1.358 . S
C720 C724 1.332 . S
C720 C726 1.504 . S
C721 C722 1.373 . S
C721 C725 1.308 . S
C722 C721 1.373 . S
C722 C723 1.429 . S
C722 H732 0.932 . S
C723 C720 1.358 . S
C723 C722 1.429 . S
C723 H733 0.930 . S
C724 C720 1.332 . S
C724 C725 1.394 . S
C724 H734 0.932 . S
C725 C721 1.308 . S
C725 C724 1.394 . S
C725 H735 0.929 . S
C726 Tb697 2.764 . S
C726 O710 1.239 . S
C726 O711 1.263 . S
C726 C720 1.504 . S
C727 O712 1.236 . S
C727 O713 1.257 . S
H728 C701 0.932 . S
H729 C702 0.930 . S
H730 C703 0.932 . S
H731 C704 0.929 . S
H732 C722 0.932 . S
H733 C723 0.930 . S
H734 C724 0.932 . S
H735 C725 0.929 . S
Tb736 C745 2.764 . S
Tb736 O746 2.325 . S
Tb736 O749 2.303 . S
Tb736 O753 2.322 . S
Tb736 O754 2.349 . S
Tb736 O757 2.415 . S
Tb736 O758 2.399 . S
Tb737 O747 2.322 . S
Tb737 O748 2.349 . S
Tb737 O750 2.415 . S
Tb737 O751 2.399 . S
Tb737 O752 2.325 . S
Tb737 O755 2.303 . S
Tb737 C766 2.764 . S
C738 O754 1.261 . S
C738 O755 1.257 . S
C739 C742 1.358 . S
C739 C743 1.332 1_455 S
C739 C745 1.504 . S
C740 C741 1.373 . S
C740 C744 1.308 1_455 S
C741 C740 1.373 . S
C741 C742 1.429 . S
C741 H768 0.932 . S
C742 C739 1.358 . S
C742 C741 1.429 . S
C742 H769 0.930 . S
C743 C739 1.332 1_655 S
C743 C744 1.394 . S
C743 H770 0.932 . S
C744 C740 1.308 1_655 S
C744 C743 1.394 . S
C744 H771 0.929 . S
C745 Tb736 2.764 . S
C745 C739 1.504 . S
C745 O757 1.239 . S
C745 O758 1.263 . S
O746 Tb736 2.325 . S
O746 C756 1.236 . S
O747 Tb737 2.322 . S
O747 C756 1.257 . S
O748 Tb737 2.349 . S
O748 C759 1.261 1_455 S
O749 Tb736 2.303 . S
O749 C759 1.257 1_455 S
O750 Tb737 2.415 . S
O750 C766 1.239 . S
O751 Tb737 2.399 . S
O751 C766 1.263 . S
O752 Tb737 2.325 . S
O752 C767 1.236 . S
O753 Tb736 2.322 . S
O753 C767 1.257 . S
O754 Tb736 2.349 . S
O754 C738 1.261 . S
O755 Tb737 2.303 . S
O755 C738 1.257 . S
C756 O746 1.236 . S
C756 O747 1.257 . S
O757 Tb736 2.415 . S
O757 C745 1.239 . S
O758 Tb736 2.399 . S
O758 C745 1.263 . S
C759 O748 1.261 1_655 S
C759 O749 1.257 1_655 S
C760 C763 1.358 . S
C760 C764 1.332 . S
C760 C766 1.504 . S
C761 C762 1.373 . S
C761 C765 1.308 . S
C762 C761 1.373 . S
C762 C763 1.429 . S
C762 H772 0.932 . S
C763 C760 1.358 . S
C763 C762 1.429 . S
C763 H773 0.930 . S
C764 C760 1.332 . S
C764 C765 1.394 . S
C764 H774 0.932 . S
C765 C761 1.308 . S
C765 C764 1.394 . S
C765 H775 0.929 . S
C766 Tb737 2.764 . S
C766 O750 1.239 . S
C766 O751 1.263 . S
C766 C760 1.504 . S
C767 O752 1.236 . S
C767 O753 1.257 . S
H768 C741 0.932 . S
H769 C742 0.930 . S
H770 C743 0.932 . S
H771 C744 0.929 . S
H772 C762 0.932 . S
H773 C763 0.930 . S
H774 C764 0.932 . S
H775 C765 0.929 . S
Tb776 C785 2.764 . S
Tb776 O786 2.325 . S
Tb776 O789 2.303 . S
Tb776 O793 2.322 . S
Tb776 O794 2.349 . S
Tb776 O797 2.415 . S
Tb776 O798 2.399 . S
Tb777 O787 2.322 . S
Tb777 O788 2.349 . S
Tb777 O790 2.415 . S
Tb777 O791 2.399 . S
Tb777 O792 2.325 . S
Tb777 O795 2.303 . S
Tb777 C806 2.764 . S
C778 O794 1.261 . S
C778 O795 1.257 . S
C779 C782 1.358 . S
C779 C783 1.332 . S
C779 C785 1.504 . S
C780 C781 1.373 . S
C780 C784 1.308 . S
C781 C780 1.373 . S
C781 C782 1.429 . S
C781 H808 0.932 . S
C782 C779 1.358 . S
C782 C781 1.429 . S
C782 H809 0.930 . S
C783 C779 1.332 . S
C783 C784 1.394 . S
C783 H810 0.932 . S
C784 C780 1.308 . S
C784 C783 1.394 . S
C784 H811 0.929 . S
C785 Tb776 2.764 . S
C785 C779 1.504 . S
C785 O797 1.239 . S
C785 O798 1.263 . S
O786 Tb776 2.325 . S
O786 C796 1.236 . S
O787 Tb777 2.322 . S
O787 C796 1.257 . S
O788 Tb777 2.349 . S
O788 C799 1.261 . S
O789 Tb776 2.303 . S
O789 C799 1.257 . S
O790 Tb777 2.415 . S
O790 C806 1.239 . S
O791 Tb777 2.399 . S
O791 C806 1.263 . S
O792 Tb777 2.325 . S
O792 C807 1.236 . S
O793 Tb776 2.322 . S
O793 C807 1.257 . S
O794 Tb776 2.349 . S
O794 C778 1.261 . S
O795 Tb777 2.303 . S
O795 C778 1.257 . S
C796 O786 1.236 . S
C796 O787 1.257 . S
O797 Tb776 2.415 . S
O797 C785 1.239 . S
O798 Tb776 2.399 . S
O798 C785 1.263 . S
C799 O788 1.261 . S
C799 O789 1.257 . S
C800 C803 1.358 . S
C800 C804 1.332 . S
C800 C806 1.504 . S
C801 C802 1.373 . S
C801 C805 1.308 . S
C802 C801 1.373 . S
C802 C803 1.429 . S
C802 H812 0.932 . S
C803 C800 1.358 . S
C803 C802 1.429 . S
C803 H813 0.930 . S
C804 C800 1.332 . S
C804 C805 1.394 . S
C804 H814 0.932 . S
C805 C801 1.308 . S
C805 C804 1.394 . S
C805 H815 0.929 . S
C806 Tb777 2.764 . S
C806 O790 1.239 . S
C806 O791 1.263 . S
C806 C800 1.504 . S
C807 O792 1.236 . S
C807 O793 1.257 . S
H808 C781 0.932 . S
H809 C782 0.930 . S
H810 C783 0.932 . S
H811 C784 0.929 . S
H812 C802 0.932 . S
H813 C803 0.930 . S
H814 C804 0.932 . S
H815 C805 0.929 . S
Tb816 C825 2.764 . S
Tb816 O826 2.325 . S
Tb816 O829 2.303 . S
Tb816 O833 2.322 . S
Tb816 O834 2.349 . S
Tb816 O837 2.415 . S
Tb816 O838 2.399 . S
Tb817 O827 2.322 . S
Tb817 O828 2.349 . S
Tb817 O830 2.415 . S
Tb817 O831 2.399 . S
Tb817 O832 2.325 . S
Tb817 O835 2.303 . S
Tb817 C846 2.764 . S
C818 O834 1.261 . S
C818 O835 1.257 . S
C819 C822 1.358 . S
C819 C823 1.332 . S
C819 C825 1.504 . S
C820 C821 1.373 . S
C820 C824 1.308 . S
C821 C820 1.373 . S
C821 C822 1.429 . S
C821 H848 0.932 . S
C822 C819 1.358 . S
C822 C821 1.429 . S
C822 H849 0.930 . S
C823 C819 1.332 . S
C823 C824 1.394 . S
C823 H850 0.932 . S
C824 C820 1.308 . S
C824 C823 1.394 . S
C824 H851 0.929 . S
C825 Tb816 2.764 . S
C825 C819 1.504 . S
C825 O837 1.239 . S
C825 O838 1.263 . S
O826 Tb816 2.325 . S
O826 C836 1.236 . S
O827 Tb817 2.322 . S
O827 C836 1.257 . S
O828 Tb817 2.349 . S
O828 C839 1.261 . S
O829 Tb816 2.303 . S
O829 C839 1.257 . S
O830 Tb817 2.415 . S
O830 C846 1.239 . S
O831 Tb817 2.399 . S
O831 C846 1.263 . S
O832 Tb817 2.325 . S
O832 C847 1.236 . S
O833 Tb816 2.322 . S
O833 C847 1.257 . S
O834 Tb816 2.349 . S
O834 C818 1.261 . S
O835 Tb817 2.303 . S
O835 C818 1.257 . S
C836 O826 1.236 . S
C836 O827 1.257 . S
O837 Tb816 2.415 . S
O837 C825 1.239 . S
O838 Tb816 2.399 . S
O838 C825 1.263 . S
C839 O828 1.261 . S
C839 O829 1.257 . S
C840 C843 1.358 . S
C840 C844 1.332 . S
C840 C846 1.504 . S
C841 C842 1.373 . S
C841 C845 1.308 . S
C842 C841 1.373 . S
C842 C843 1.429 . S
C842 H852 0.932 . S
C843 C840 1.358 . S
C843 C842 1.429 . S
C843 H853 0.930 . S
C844 C840 1.332 . S
C844 C845 1.394 . S
C844 H854 0.932 . S
C845 C841 1.308 . S
C845 C844 1.394 . S
C845 H855 0.929 . S
C846 Tb817 2.764 . S
C846 O830 1.239 . S
C846 O831 1.263 . S
C846 C840 1.504 . S
C847 O832 1.236 . S
C847 O833 1.257 . S
H848 C821 0.932 . S
H849 C822 0.930 . S
H850 C823 0.932 . S
H851 C824 0.929 . S
H852 C842 0.932 . S
H853 C843 0.930 . S
H854 C844 0.932 . S
H855 C845 0.929 . S
Tb856 C865 2.764 . S
Tb856 O866 2.325 . S
Tb856 O869 2.303 . S
Tb856 O873 2.322 . S
Tb856 O874 2.349 . S
Tb856 O877 2.415 . S
Tb856 O878 2.399 . S
Tb857 O867 2.322 . S
Tb857 O868 2.349 . S
Tb857 O870 2.415 . S
Tb857 O871 2.399 . S
Tb857 O872 2.325 . S
Tb857 O875 2.303 . S
Tb857 C886 2.764 . S
C858 O874 1.261 . S
C858 O875 1.257 . S
C859 C862 1.358 . S
C859 C863 1.332 . S
C859 C865 1.504 . S
C860 C861 1.373 . S
C860 C864 1.308 . S
C861 C860 1.373 . S
C861 C862 1.429 . S
C861 H888 0.932 . S
C862 C859 1.358 . S
C862 C861 1.429 . S
C862 H889 0.930 . S
C863 C859 1.332 . S
C863 C864 1.394 . S
C863 H890 0.932 . S
C864 C860 1.308 . S
C864 C863 1.394 . S
C864 H891 0.929 . S
C865 Tb856 2.764 . S
C865 C859 1.504 . S
C865 O877 1.239 . S
C865 O878 1.263 . S
O866 Tb856 2.325 . S
O866 C876 1.236 . S
O867 Tb857 2.322 . S
O867 C876 1.257 . S
O868 Tb857 2.349 . S
O868 C879 1.261 . S
O869 Tb856 2.303 . S
O869 C879 1.257 . S
O870 Tb857 2.415 . S
O870 C886 1.239 . S
O871 Tb857 2.399 . S
O871 C886 1.263 . S
O872 Tb857 2.325 . S
O872 C887 1.236 . S
O873 Tb856 2.322 . S
O873 C887 1.257 . S
O874 Tb856 2.349 . S
O874 C858 1.261 . S
O875 Tb857 2.303 . S
O875 C858 1.257 . S
C876 O866 1.236 . S
C876 O867 1.257 . S
O877 Tb856 2.415 . S
O877 C865 1.239 . S
O878 Tb856 2.399 . S
O878 C865 1.263 . S
C879 O868 1.261 . S
C879 O869 1.257 . S
C880 C883 1.358 . S
C880 C884 1.332 . S
C880 C886 1.504 . S
C881 C882 1.373 . S
C881 C885 1.308 . S
C882 C881 1.373 . S
C882 C883 1.429 . S
C882 H892 0.932 . S
C883 C880 1.358 . S
C883 C882 1.429 . S
C883 H893 0.930 . S
C884 C880 1.332 . S
C884 C885 1.394 . S
C884 H894 0.932 . S
C885 C881 1.308 . S
C885 C884 1.394 . S
C885 H895 0.929 . S
C886 Tb857 2.764 . S
C886 O870 1.239 . S
C886 O871 1.263 . S
C886 C880 1.504 . S
C887 O872 1.236 . S
C887 O873 1.257 . S
H888 C861 0.932 . S
H889 C862 0.930 . S
H890 C863 0.932 . S
H891 C864 0.929 . S
H892 C882 0.932 . S
H893 C883 0.930 . S
H894 C884 0.932 . S
H895 C885 0.929 . S
Tb896 C905 2.764 . S
Tb896 O906 2.325 . S
Tb896 O909 2.303 . S
Tb896 O913 2.322 . S
Tb896 O914 2.349 . S
Tb896 O917 2.415 . S
Tb896 O918 2.399 . S
Tb897 O907 2.322 . S
Tb897 O908 2.349 . S
Tb897 O910 2.415 . S
Tb897 O911 2.399 . S
Tb897 O912 2.325 . S
Tb897 O915 2.303 . S
Tb897 C926 2.764 . S
C898 O914 1.261 . S
C898 O915 1.257 . S
C899 C902 1.358 . S
C899 C903 1.332 . S
C899 C905 1.504 . S
C900 C901 1.373 . S
C900 C904 1.308 . S
C901 C900 1.373 . S
C901 C902 1.429 . S
C901 H928 0.932 . S
C902 C899 1.358 . S
C902 C901 1.429 . S
C902 H929 0.930 . S
C903 C899 1.332 . S
C903 C904 1.394 . S
C903 H930 0.932 . S
C904 C900 1.308 . S
C904 C903 1.394 . S
C904 H931 0.929 . S
C905 Tb896 2.764 . S
C905 C899 1.504 . S
C905 O917 1.239 . S
C905 O918 1.263 . S
O906 Tb896 2.325 . S
O906 C916 1.236 . S
O907 Tb897 2.322 . S
O907 C916 1.257 . S
O908 Tb897 2.349 . S
O908 C919 1.261 . S
O909 Tb896 2.303 . S
O909 C919 1.257 . S
O910 Tb897 2.415 . S
O910 C926 1.239 . S
O911 Tb897 2.399 . S
O911 C926 1.263 . S
O912 Tb897 2.325 . S
O912 C927 1.236 . S
O913 Tb896 2.322 . S
O913 C927 1.257 . S
O914 Tb896 2.349 . S
O914 C898 1.261 . S
O915 Tb897 2.303 . S
O915 C898 1.257 . S
C916 O906 1.236 . S
C916 O907 1.257 . S
O917 Tb896 2.415 . S
O917 C905 1.239 . S
O918 Tb896 2.399 . S
O918 C905 1.263 . S
C919 O908 1.261 . S
C919 O909 1.257 . S
C920 C923 1.358 . S
C920 C924 1.332 . S
C920 C926 1.504 . S
C921 C922 1.373 . S
C921 C925 1.308 . S
C922 C921 1.373 . S
C922 C923 1.429 . S
C922 H932 0.932 . S
C923 C920 1.358 . S
C923 C922 1.429 . S
C923 H933 0.930 . S
C924 C920 1.332 . S
C924 C925 1.394 . S
C924 H934 0.932 . S
C925 C921 1.308 . S
C925 C924 1.394 . S
C925 H935 0.929 . S
C926 Tb897 2.764 . S
C926 O910 1.239 . S
C926 O911 1.263 . S
C926 C920 1.504 . S
C927 O912 1.236 . S
C927 O913 1.257 . S
H928 C901 0.932 . S
H929 C902 0.930 . S
H930 C903 0.932 . S
H931 C904 0.929 . S
H932 C922 0.932 . S
H933 C923 0.930 . S
H934 C924 0.932 . S
H935 C925 0.929 . S
Tb936 C945 2.764 1_455 S
Tb936 O946 2.325 . S
Tb936 O949 2.303 . S
Tb936 O953 2.322 . S
Tb936 O954 2.349 . S
Tb936 O957 2.415 1_455 S
Tb936 O958 2.399 1_455 S
Tb937 O947 2.322 . S
Tb937 O948 2.349 1_554 S
Tb937 O950 2.415 . S
Tb937 O951 2.399 . S
Tb937 O952 2.325 . S
Tb937 O955 2.303 . S
Tb937 C966 2.764 . S
C938 O954 1.261 . S
C938 O955 1.257 . S
C939 C942 1.358 . S
C939 C943 1.332 . S
C939 C945 1.504 . S
C940 C941 1.373 . S
C940 C944 1.308 . S
C941 C940 1.373 . S
C941 C942 1.429 . S
C941 H968 0.932 . S
C942 C939 1.358 . S
C942 C941 1.429 . S
C942 H969 0.930 . S
C943 C939 1.332 . S
C943 C944 1.394 . S
C943 H970 0.932 . S
C944 C940 1.308 . S
C944 C943 1.394 . S
C944 H971 0.929 . S
C945 Tb936 2.764 1_655 S
C945 C939 1.504 . S
C945 O957 1.239 . S
C945 O958 1.263 . S
O946 Tb936 2.325 . S
O946 C956 1.236 . S
O947 Tb937 2.322 . S
O947 C956 1.257 . S
O948 Tb937 2.349 1_556 S
O948 C959 1.261 . S
O949 Tb936 2.303 . S
O949 C959 1.257 1_554 S
O950 Tb937 2.415 . S
O950 C966 1.239 . S
O951 Tb937 2.399 . S
O951 C966 1.263 . S
O952 Tb937 2.325 . S
O952 C967 1.236 . S
O953 Tb936 2.322 . S
O953 C967 1.257 . S
O954 Tb936 2.349 . S
O954 C938 1.261 . S
O955 Tb937 2.303 . S
O955 C938 1.257 . S
C956 O946 1.236 . S
C956 O947 1.257 . S
O957 Tb936 2.415 1_655 S
O957 C945 1.239 . S
O958 Tb936 2.399 1_655 S
O958 C945 1.263 . S
C959 O948 1.261 . S
C959 O949 1.257 1_556 S
C960 C963 1.358 1_554 S
C960 C964 1.332 . S
C960 C966 1.504 . S
C961 C962 1.373 1_554 S
C961 C965 1.308 . S
C962 C961 1.373 1_556 S
C962 C963 1.429 . S
C962 H972 0.932 . S
C963 C960 1.358 1_556 S
C963 C962 1.429 . S
C963 H973 0.930 . S
C964 C960 1.332 . S
C964 C965 1.394 . S
C964 H974 0.932 . S
C965 C961 1.308 . S
C965 C964 1.394 . S
C965 H975 0.929 . S
C966 Tb937 2.764 . S
C966 O950 1.239 . S
C966 O951 1.263 . S
C966 C960 1.504 . S
C967 O952 1.236 . S
C967 O953 1.257 . S
H968 C941 0.932 . S
H969 C942 0.930 . S
H970 C943 0.932 . S
H971 C944 0.929 . S
H972 C962 0.932 . S
H973 C963 0.930 . S
H974 C964 0.932 . S
H975 C965 0.929 . S
C976 C977 1.363 1_655 S
C976 C982 1.379 1_656 S
C976 N984 1.356 . S
C977 C976 1.363 1_455 S
C977 C983 1.360 1_556 S
C978 C979 1.363 . S
C978 C983 1.379 . S
C978 N985 1.356 . S
C979 C978 1.363 . S
C979 C982 1.363 . S
N980 C982 1.356 . S
N980 H992 0.998 1_455 S
N980 H993 0.985 . S
N981 C983 1.356 . S
N981 H986 0.984 . S
N981 H987 0.985 . S
C982 C976 1.379 1_454 S
C982 C979 1.363 . S
C982 N980 1.356 . S
C983 C977 1.360 1_554 S
C983 C978 1.379 . S
C983 N981 1.356 . S
N984 C976 1.356 . S
N984 H990 0.984 . S
N984 H991 0.984 . S
N985 C978 1.356 . S
N985 H988 0.984 . S
N985 H989 0.985 . S
H986 N981 0.984 . S
H987 N981 0.985 . S
H988 N985 0.984 . S
H989 N985 0.985 . S
H990 N984 0.984 . S
H991 N984 0.984 . S
H992 N980 0.998 1_655 S
H993 N980 0.985 . S
C994 C995 1.363 . S
C994 C1000 1.379 . S
C994 N1002 1.356 . S
C995 C994 1.363 . S
C995 C1001 1.363 . S
C996 C997 1.363 . S
C996 C1001 1.379 . S
C996 N1003 1.356 . S
C997 C996 1.363 . S
C997 C1000 1.363 . S
N998 C1000 1.356 . S
N998 H1010 0.984 . S
N998 H1011 0.985 . S
N999 C1001 1.356 . S
N999 H1004 0.984 . S
N999 H1005 0.985 . S
C1000 C994 1.379 . S
C1000 C997 1.363 . S
C1000 N998 1.356 . S
C1001 C995 1.363 . S
C1001 C996 1.379 . S
C1001 N999 1.356 . S
N1002 C994 1.356 . S
N1002 H1008 0.984 . S
N1002 H1009 0.984 . S
N1003 C996 1.356 . S
N1003 H1006 0.984 . S
N1003 H1007 0.985 . S
H1004 N999 0.984 . S
H1005 N999 0.985 . S
H1006 N1003 0.984 . S
H1007 N1003 0.985 . S
H1008 N1002 0.984 . S
H1009 N1002 0.984 . S
H1010 N998 0.984 . S
H1011 N998 0.985 . S
C1012 C1013 1.363 . S
C1012 C1018 1.379 . S
C1012 N1020 1.356 . S
C1013 C1012 1.363 . S
C1013 C1019 1.363 . S
C1014 C1015 1.363 . S
C1014 C1019 1.379 . S
C1014 N1021 1.356 . S
C1015 C1014 1.363 . S
C1015 C1018 1.363 . S
N1016 C1018 1.356 . S
N1016 H1028 0.984 . S
N1016 H1029 0.985 . S
N1017 C1019 1.356 . S
N1017 H1022 0.984 . S
N1017 H1023 0.985 . S
C1018 C1012 1.379 . S
C1018 C1015 1.363 . S
C1018 N1016 1.356 . S
C1019 C1013 1.363 . S
C1019 C1014 1.379 . S
C1019 N1017 1.356 . S
N1020 C1012 1.356 . S
N1020 H1026 0.984 . S
N1020 H1027 0.984 . S
N1021 C1014 1.356 . S
N1021 H1024 0.984 . S
N1021 H1025 0.985 . S
H1022 N1017 0.984 . S
H1023 N1017 0.985 . S
H1024 N1021 0.984 . S
H1025 N1021 0.985 . S
H1026 N1020 0.984 . S
H1027 N1020 0.984 . S
H1028 N1016 0.984 . S
H1029 N1016 0.985 . S
C1030 C1031 1.363 . S
C1030 C1036 1.379 . S
C1030 N1038 1.356 . S
C1031 C1030 1.363 . S
C1031 C1037 1.363 . S
C1032 C1033 1.363 . S
C1032 C1037 1.379 . S
C1032 N1039 1.356 . S
C1033 C1032 1.363 . S
C1033 C1036 1.363 . S
N1034 C1036 1.356 . S
N1034 H1046 0.984 . S
N1034 H1047 0.985 . S
N1035 C1037 1.356 . S
N1035 H1040 0.984 . S
N1035 H1041 0.985 . S
C1036 C1030 1.379 . S
C1036 C1033 1.363 . S
C1036 N1034 1.356 . S
C1037 C1031 1.363 . S
C1037 C1032 1.379 . S
C1037 N1035 1.356 . S
N1038 C1030 1.356 . S
N1038 H1044 0.984 . S
N1038 H1045 0.984 . S
N1039 C1032 1.356 . S
N1039 H1042 0.984 . S
N1039 H1043 0.985 . S
H1040 N1035 0.984 . S
H1041 N1035 0.985 . S
H1042 N1039 0.984 . S
H1043 N1039 0.985 . S
H1044 N1038 0.984 . S
H1045 N1038 0.984 . S
H1046 N1034 0.984 . S
H1047 N1034 0.985 . S
C1048 C1049 1.363 . S
C1048 C1054 1.379 . S
C1048 N1056 1.356 . S
C1049 C1048 1.363 . S
C1049 C1055 1.363 . S
C1050 C1051 1.363 . S
C1050 C1055 1.379 . S
C1050 N1057 1.356 . S
C1051 C1050 1.363 . S
C1051 C1054 1.363 . S
N1052 C1054 1.356 . S
N1052 H1064 0.984 . S
N1052 H1065 0.985 . S
N1053 C1055 1.356 . S
N1053 H1058 0.984 . S
N1053 H1059 0.985 . S
C1054 C1048 1.379 . S
C1054 C1051 1.363 . S
C1054 N1052 1.356 . S
C1055 C1049 1.363 . S
C1055 C1050 1.379 . S
C1055 N1053 1.356 . S
N1056 C1048 1.356 . S
N1056 H1062 0.984 . S
N1056 H1063 0.984 . S
N1057 C1050 1.356 . S
N1057 H1060 0.984 . S
N1057 H1061 0.985 . S
H1058 N1053 0.984 . S
H1059 N1053 0.985 . S
H1060 N1057 0.984 . S
H1061 N1057 0.985 . S
H1062 N1056 0.984 . S
H1063 N1056 0.984 . S
H1064 N1052 0.984 . S
H1065 N1052 0.985 . S
C1066 C1067 1.363 . S
C1066 C1072 1.379 . S
C1066 N1074 1.356 . S
C1067 C1066 1.363 . S
C1067 C1073 1.363 . S
C1068 C1069 1.363 . S
C1068 C1073 1.379 . S
C1068 N1075 1.356 . S
C1069 C1068 1.363 . S
C1069 C1072 1.363 . S
N1070 C1072 1.356 . S
N1070 H1082 0.984 . S
N1070 H1083 0.985 . S
N1071 C1073 1.356 . S
N1071 H1076 0.984 . S
N1071 H1077 0.985 . S
C1072 C1066 1.379 . S
C1072 C1069 1.363 . S
C1072 N1070 1.356 . S
C1073 C1067 1.363 . S
C1073 C1068 1.379 . S
C1073 N1071 1.356 . S
N1074 C1066 1.356 . S
N1074 H1080 0.984 . S
N1074 H1081 0.984 . S
N1075 C1068 1.356 . S
N1075 H1078 0.984 . S
N1075 H1079 0.985 . S
H1076 N1071 0.984 . S
H1077 N1071 0.985 . S
H1078 N1075 0.984 . S
H1079 N1075 0.985 . S
H1080 N1074 0.984 . S
H1081 N1074 0.984 . S
H1082 N1070 0.984 . S
H1083 N1070 0.985 . S
C1084 C1085 1.363 . S
C1084 C1090 1.379 . S
C1084 N1092 1.356 . S
C1085 C1084 1.363 . S
C1085 C1091 1.363 . S
C1086 C1087 1.363 . S
C1086 C1091 1.379 . S
C1086 N1093 1.356 . S
C1087 C1086 1.363 . S
C1087 C1090 1.363 . S
N1088 C1090 1.356 . S
N1088 H1100 0.984 . S
N1088 H1101 0.985 . S
N1089 C1091 1.356 . S
N1089 H1094 0.984 . S
N1089 H1095 0.985 . S
C1090 C1084 1.379 . S
C1090 C1087 1.363 . S
C1090 N1088 1.356 . S
C1091 C1085 1.363 . S
C1091 C1086 1.379 . S
C1091 N1089 1.356 . S
N1092 C1084 1.356 . S
N1092 H1098 0.984 . S
N1092 H1099 0.984 . S
N1093 C1086 1.356 . S
N1093 H1096 0.984 . S
N1093 H1097 0.985 . S
H1094 N1089 0.984 . S
H1095 N1089 0.985 . S
H1096 N1093 0.984 . S
H1097 N1093 0.985 . S
H1098 N1092 0.984 . S
H1099 N1092 0.984 . S
H1100 N1088 0.984 . S
H1101 N1088 0.985 . S
C1102 C1103 1.363 . S
C1102 C1108 1.379 . S
C1102 N1110 1.356 . S
C1103 C1102 1.363 . S
C1103 C1109 1.363 . S
C1104 C1105 1.363 . S
C1104 C1109 1.379 . S
C1104 N1111 1.356 . S
C1105 C1104 1.363 . S
C1105 C1108 1.363 . S
N1106 C1108 1.356 . S
N1106 H1118 0.984 . S
N1106 H1119 0.985 . S
N1107 C1109 1.356 . S
N1107 H1112 0.984 . S
N1107 H1113 0.985 . S
C1108 C1102 1.379 . S
C1108 C1105 1.363 . S
C1108 N1106 1.356 . S
C1109 C1103 1.363 . S
C1109 C1104 1.379 . S
C1109 N1107 1.356 . S
N1110 C1102 1.356 . S
N1110 H1116 0.984 . S
N1110 H1117 0.984 . S
N1111 C1104 1.356 . S
N1111 H1114 0.984 . S
N1111 H1115 0.985 . S
H1112 N1107 0.984 . S
H1113 N1107 0.985 . S
H1114 N1111 0.984 . S
H1115 N1111 0.985 . S
H1116 N1110 0.984 . S
H1117 N1110 0.984 . S
H1118 N1106 0.984 . S
H1119 N1106 0.985 . S
C1120 C1121 1.390 . S
C1120 C1126 1.389 1_655 S
C1120 N1128 1.324 1_545 S
C1121 C1120 1.390 . S
C1121 C1127 1.363 . S
C1122 C1123 1.363 . S
C1122 C1127 1.379 1_455 S
C1122 N1129 1.356 . S
C1123 C1122 1.363 . S
C1123 C1126 1.363 . S
N1124 C1126 1.356 . S
N1124 H1136 0.984 1_545 S
N1124 H1137 0.985 . S
N1125 C1127 1.356 . S
N1125 H1130 0.984 . S
N1125 H1131 0.985 . S
C1126 C1120 1.389 1_455 S
C1126 C1123 1.363 . S
C1126 N1124 1.356 . S
C1127 C1121 1.363 . S
C1127 C1122 1.379 1_655 S
C1127 N1125 1.356 . S
N1128 C1120 1.324 1_565 S
N1128 H1134 0.984 . S
N1128 H1135 0.984 . S
N1129 C1122 1.356 . S
N1129 H1132 0.984 . S
N1129 H1133 0.985 . S
H1130 N1125 0.984 . S
H1131 N1125 0.985 . S
H1132 N1129 0.984 . S
H1133 N1129 0.985 . S
H1134 N1128 0.984 . S
H1135 N1128 0.984 . S
H1136 N1124 0.984 1_565 S
H1137 N1124 0.985 . S
C1138 C1139 1.363 . S
C1138 C1144 1.379 . S
C1138 N1146 1.356 . S
C1139 C1138 1.363 . S
C1139 C1145 1.363 . S
C1140 C1141 1.363 . S
C1140 C1145 1.379 . S
C1140 N1147 1.356 . S
C1141 C1140 1.363 . S
C1141 C1144 1.363 . S
N1142 C1144 1.356 . S
N1142 H1154 0.984 . S
N1142 H1155 0.985 . S
N1143 C1145 1.356 . S
N1143 H1148 0.984 . S
N1143 H1149 0.985 . S
C1144 C1138 1.379 . S
C1144 C1141 1.363 . S
C1144 N1142 1.356 . S
C1145 C1139 1.363 . S
C1145 C1140 1.379 . S
C1145 N1143 1.356 . S
N1146 C1138 1.356 . S
N1146 H1152 0.984 . S
N1146 H1153 0.984 . S
N1147 C1140 1.356 . S
N1147 H1150 0.984 . S
N1147 H1151 0.985 . S
H1148 N1143 0.984 . S
H1149 N1143 0.985 . S
H1150 N1147 0.984 . S
H1151 N1147 0.985 . S
H1152 N1146 0.984 . S
H1153 N1146 0.984 . S
H1154 N1142 0.984 . S
H1155 N1142 0.985 . S
C1156 C1157 1.363 . S
C1156 C1162 1.379 . S
C1156 N1164 1.356 . S
C1157 C1156 1.363 . S
C1157 C1163 1.363 . S
C1158 C1159 1.363 . S
C1158 C1163 1.379 . S
C1158 N1165 1.356 1_545 S
C1159 C1158 1.363 . S
C1159 C1162 1.363 . S
N1160 C1162 1.356 . S
N1160 H1172 0.984 . S
N1160 H1173 0.985 . S
N1161 C1163 1.356 . S
N1161 H1166 0.984 . S
N1161 H1167 0.966 1_545 S
C1162 C1156 1.379 . S
C1162 C1159 1.363 . S
C1162 N1160 1.356 . S
C1163 C1157 1.363 . S
C1163 C1158 1.379 . S
C1163 N1161 1.356 . S
N1164 C1156 1.356 . S
N1164 H1170 0.984 . S
N1164 H1171 0.984 . S
N1165 C1158 1.356 1_565 S
N1165 H1168 0.982 1_565 S
N1165 H1169 0.984 . S
H1166 N1161 0.984 . S
H1167 N1161 0.966 1_565 S
H1168 N1165 0.982 1_545 S
H1169 N1165 0.984 . S
H1170 N1164 0.984 . S
H1171 N1164 0.984 . S
H1172 N1160 0.984 . S
H1173 N1160 0.985 . S
C1174 C1175 1.363 . S
C1174 C1180 1.379 . S
C1174 N1182 1.356 . S
C1175 C1174 1.363 . S
C1175 C1181 1.363 . S
C1176 C1177 1.363 . S
C1176 C1181 1.379 . S
C1176 N1183 1.356 . S
C1177 C1176 1.363 . S
C1177 C1180 1.363 . S
N1178 C1180 1.356 . S
N1178 H1190 0.984 . S
N1178 H1191 0.985 . S
N1179 C1181 1.356 . S
N1179 H1184 0.984 . S
N1179 H1185 0.985 . S
C1180 C1174 1.379 . S
C1180 C1177 1.363 . S
C1180 N1178 1.356 . S
C1181 C1175 1.363 . S
C1181 C1176 1.379 . S
C1181 N1179 1.356 . S
N1182 C1174 1.356 . S
N1182 H1188 0.984 . S
N1182 H1189 0.984 . S
N1183 C1176 1.356 . S
N1183 H1186 0.984 . S
N1183 H1187 0.985 . S
H1184 N1179 0.984 . S
H1185 N1179 0.985 . S
H1186 N1183 0.984 . S
H1187 N1183 0.985 . S
H1188 N1182 0.984 . S
H1189 N1182 0.984 . S
H1190 N1178 0.984 . S
H1191 N1178 0.985 . S
C1192 C1193 1.363 1_565 S
C1192 C1198 1.379 . S
C1192 N1200 1.356 . S
C1193 C1192 1.363 1_545 S
C1193 C1199 1.363 . S
C1194 C1195 1.363 1_455 S
C1194 C1199 1.379 1_455 S
C1194 N1201 1.356 . S
C1195 C1194 1.363 1_655 S
C1195 C1198 1.363 1_545 S
N1196 C1198 1.356 . S
N1196 H1208 0.984 . S
N1196 H1209 0.985 . S
N1197 C1199 1.356 . S
N1197 H1202 0.984 . S
N1197 H1203 0.985 1_655 S
C1198 C1192 1.379 . S
C1198 C1195 1.363 1_565 S
C1198 N1196 1.356 . S
C1199 C1193 1.363 . S
C1199 C1194 1.379 1_655 S
C1199 N1197 1.356 . S
N1200 C1192 1.356 . S
N1200 H1206 0.984 . S
N1200 H1207 0.984 . S
N1201 C1194 1.356 . S
N1201 H1204 0.984 . S
N1201 H1205 0.985 . S
H1202 N1197 0.984 . S
H1203 N1197 0.985 1_455 S
H1204 N1201 0.984 . S
H1205 N1201 0.985 . S
H1206 N1200 0.984 . S
H1207 N1200 0.984 . S
H1208 N1196 0.984 . S
H1209 N1196 0.985 . S
C1210 C1211 1.363 . S
C1210 C1216 1.379 . S
C1210 N1218 1.356 . S
C1211 C1210 1.363 . S
C1211 C1217 1.363 . S
C1212 C1213 1.363 . S
C1212 C1217 1.379 . S
C1212 N1219 1.356 . S
C1213 C1212 1.363 . S
C1213 C1216 1.363 . S
N1214 C1216 1.356 . S
N1214 H1226 0.984 . S
N1214 H1227 0.985 . S
N1215 C1217 1.356 . S
N1215 H1220 0.984 . S
N1215 H1221 0.985 . S
C1216 C1210 1.379 . S
C1216 C1213 1.363 . S
C1216 N1214 1.356 . S
C1217 C1211 1.363 . S
C1217 C1212 1.379 . S
C1217 N1215 1.356 . S
N1218 C1210 1.356 . S
N1218 H1224 0.984 . S
N1218 H1225 0.984 . S
N1219 C1212 1.356 . S
N1219 H1222 0.984 . S
N1219 H1223 0.985 . S
H1220 N1215 0.984 . S
H1221 N1215 0.985 . S
H1222 N1219 0.984 . S
H1223 N1219 0.985 . S
H1224 N1218 0.984 . S
H1225 N1218 0.984 . S
H1226 N1214 0.984 . S
H1227 N1214 0.985 . S
C1228 C1229 1.363 . S
C1228 C1234 1.379 . S
C1228 N1236 1.356 . S
C1229 C1228 1.363 . S
C1229 C1235 1.363 . S
C1230 C1231 1.363 . S
C1230 C1235 1.379 . S
C1230 N1237 1.356 . S
C1231 C1230 1.363 . S
C1231 C1234 1.363 . S
N1232 C1234 1.356 . S
N1232 H1244 0.984 . S
N1232 H1245 0.985 . S
N1233 C1235 1.356 . S
N1233 H1238 0.984 . S
N1233 H1239 0.985 . S
C1234 C1228 1.379 . S
C1234 C1231 1.363 . S
C1234 N1232 1.356 . S
C1235 C1229 1.363 . S
C1235 C1230 1.379 . S
C1235 N1233 1.356 . S
N1236 C1228 1.356 . S
N1236 H1242 0.984 . S
N1236 H1243 0.984 . S
N1237 C1230 1.356 . S
N1237 H1240 0.984 . S
N1237 H1241 0.985 . S
H1238 N1233 0.984 . S
H1239 N1233 0.985 . S
H1240 N1237 0.984 . S
H1241 N1237 0.985 . S
H1242 N1236 0.984 . S
H1243 N1236 0.984 . S
H1244 N1232 0.984 . S
H1245 N1232 0.985 . S
C1246 C1247 1.363 . S
C1246 C1252 1.379 . S
C1246 N1254 1.356 . S
C1247 C1246 1.363 . S
C1247 C1253 1.363 . S
C1248 C1249 1.363 . S
C1248 C1253 1.379 . S
C1248 N1255 1.356 . S
C1249 C1248 1.363 . S
C1249 C1252 1.363 . S
N1250 C1252 1.356 . S
N1250 H1262 0.984 . S
N1250 H1263 0.985 . S
N1251 C1253 1.356 . S
N1251 H1256 0.984 . S
N1251 H1257 0.985 . S
C1252 C1246 1.379 . S
C1252 C1249 1.363 . S
C1252 N1250 1.356 . S
C1253 C1247 1.363 . S
C1253 C1248 1.379 . S
C1253 N1251 1.356 . S
N1254 C1246 1.356 . S
N1254 H1260 0.984 . S
N1254 H1261 0.984 . S
N1255 C1248 1.356 . S
N1255 H1258 0.984 . S
N1255 H1259 0.985 . S
H1256 N1251 0.984 . S
H1257 N1251 0.985 . S
H1258 N1255 0.984 . S
H1259 N1255 0.985 . S
H1260 N1254 0.984 . S
H1261 N1254 0.984 . S
H1262 N1250 0.984 . S
H1263 N1250 0.985 . S
C1264 C1265 1.363 1_565 S
C1264 C1270 1.379 1_565 S
C1264 N1272 1.356 . S
C1265 C1264 1.363 1_545 S
C1265 C1271 1.363 . S
C1266 C1267 1.363 . S
C1266 C1271 1.379 . S
C1266 N1273 1.356 . S
C1267 C1266 1.363 . S
C1267 C1270 1.363 . S
N1268 C1270 1.356 1_565 S
N1268 H1280 0.984 . S
N1268 H1281 0.985 1_565 S
N1269 C1271 1.356 . S
N1269 H1274 0.984 . S
N1269 H1275 0.985 . S
C1270 C1264 1.379 1_545 S
C1270 C1267 1.363 . S
C1270 N1268 1.356 1_545 S
C1271 C1265 1.363 . S
C1271 C1266 1.379 . S
C1271 N1269 1.356 . S
N1272 C1264 1.356 . S
N1272 H1278 0.984 . S
N1272 H1279 0.984 . S
N1273 C1266 1.356 . S
N1273 H1276 0.984 . S
N1273 H1277 0.985 . S
H1274 N1269 0.984 . S
H1275 N1269 0.985 . S
H1276 N1273 0.984 . S
H1277 N1273 0.985 . S
H1278 N1272 0.984 . S
H1279 N1272 0.984 . S
H1280 N1268 0.984 . S
H1281 N1268 0.985 1_545 S
C1282 C1283 1.363 . S
C1282 C1288 1.379 . S
C1282 N1290 1.356 . S
C1283 C1282 1.363 . S
C1283 C1289 1.363 . S
C1284 C1285 1.363 . S
C1284 C1289 1.379 . S
C1284 N1291 1.356 . S
C1285 C1284 1.363 . S
C1285 C1288 1.363 . S
N1286 C1288 1.356 . S
N1286 H1298 0.984 . S
N1286 H1299 0.985 . S
N1287 C1289 1.356 1_556 S
N1287 H1292 0.984 . S
N1287 H1293 0.985 . S
C1288 C1282 1.379 . S
C1288 C1285 1.363 . S
C1288 N1286 1.356 . S
C1289 C1283 1.363 . S
C1289 C1284 1.379 . S
C1289 N1287 1.356 1_554 S
N1290 C1282 1.356 . S
N1290 H1296 0.984 . S
N1290 H1297 0.984 . S
N1291 C1284 1.356 . S
N1291 H1294 0.984 . S
N1291 H1295 0.985 1_554 S
H1292 N1287 0.984 . S
H1293 N1287 0.985 . S
H1294 N1291 0.984 . S
H1295 N1291 0.985 1_556 S
H1296 N1290 0.984 . S
H1297 N1290 0.984 . S
H1298 N1286 0.984 . S
H1299 N1286 0.985 . S
C1300 C1301 1.363 . S
C1300 C1306 1.379 . S
C1300 N1308 1.356 . S
C1301 C1300 1.363 . S
C1301 C1307 1.363 . S
C1302 C1303 1.363 . S
C1302 C1307 1.379 . S
C1302 N1309 1.356 . S
C1303 C1302 1.363 . S
C1303 C1306 1.363 . S
N1304 C1306 1.356 . S
N1304 H1316 0.984 . S
N1304 H1317 0.985 . S
N1305 C1307 1.356 . S
N1305 H1310 0.984 . S
N1305 H1311 0.985 . S
C1306 C1300 1.379 . S
C1306 C1303 1.363 . S
C1306 N1304 1.356 . S
C1307 C1301 1.363 . S
C1307 C1302 1.379 . S
C1307 N1305 1.356 . S
N1308 C1300 1.356 . S
N1308 H1314 0.984 . S
N1308 H1315 0.984 . S
N1309 C1302 1.356 . S
N1309 H1312 0.984 . S
N1309 H1313 0.985 . S
H1310 N1305 0.984 . S
H1311 N1305 0.985 . S
H1312 N1309 0.984 . S
H1313 N1309 0.985 . S
H1314 N1308 0.984 . S
H1315 N1308 0.984 . S
H1316 N1304 0.984 . S
H1317 N1304 0.985 . S
C1318 C1319 1.363 . S
C1318 C1324 1.379 . S
C1318 N1326 1.356 . S
C1319 C1318 1.363 . S
C1319 C1325 1.363 . S
C1320 C1321 1.363 . S
C1320 C1325 1.379 . S
C1320 N1327 1.378 . S
C1321 C1320 1.363 . S
C1321 C1324 1.363 . S
N1322 C1324 1.356 . S
N1322 H1334 0.984 . S
N1322 H1335 0.985 1_655 S
N1323 C1325 1.356 . S
N1323 H1328 0.984 . S
N1323 H1329 0.985 . S
C1324 C1318 1.379 . S
C1324 C1321 1.363 . S
C1324 N1322 1.356 . S
C1325 C1319 1.363 . S
C1325 C1320 1.379 . S
C1325 N1323 1.356 . S
N1326 C1318 1.356 . S
N1326 H1332 0.984 . S
N1326 H1333 0.984 . S
N1327 C1320 1.378 . S
N1327 H1330 0.959 1_655 S
N1327 H1331 0.989 . S
H1328 N1323 0.984 . S
H1329 N1323 0.985 . S
H1330 N1327 0.959 1_455 S
H1331 N1327 0.989 . S
H1332 N1326 0.984 . S
H1333 N1326 0.984 . S
H1334 N1322 0.984 . S
H1335 N1322 0.985 1_455 S
C1336 C1337 1.363 . S
C1336 C1342 1.379 . S
C1336 N1344 1.356 . S
C1337 C1336 1.363 . S
C1337 C1343 1.363 . S
C1338 C1339 1.363 . S
C1338 C1343 1.379 . S
C1338 N1345 1.356 . S
C1339 C1338 1.363 . S
C1339 C1342 1.363 . S
N1340 C1342 1.356 . S
N1340 H1352 0.984 . S
N1340 H1353 0.985 . S
N1341 C1343 1.356 . S
N1341 H1346 0.984 . S
N1341 H1347 0.985 . S
C1342 C1336 1.379 . S
C1342 C1339 1.363 . S
C1342 N1340 1.356 . S
C1343 C1337 1.363 . S
C1343 C1338 1.379 . S
C1343 N1341 1.356 . S
N1344 C1336 1.356 . S
N1344 H1350 0.984 . S
N1344 H1351 0.984 . S
N1345 C1338 1.356 . S
N1345 H1348 0.984 . S
N1345 H1349 0.985 . S
H1346 N1341 0.984 . S
H1347 N1341 0.985 . S
H1348 N1345 0.984 . S
H1349 N1345 0.985 . S
H1350 N1344 0.984 . S
H1351 N1344 0.984 . S
H1352 N1340 0.984 . S
H1353 N1340 0.985 . S
C1354 C1355 1.363 . S
C1354 C1360 1.379 . S
C1354 N1362 1.356 . S
C1355 C1354 1.363 . S
C1355 C1361 1.363 . S
C1356 C1357 1.363 . S
C1356 C1361 1.379 . S
C1356 N1363 1.356 . S
C1357 C1356 1.363 . S
C1357 C1360 1.363 . S
N1358 C1360 1.356 . S
N1358 H1370 0.984 . S
N1358 H1371 0.985 . S
N1359 C1361 1.356 . S
N1359 H1364 0.984 . S
N1359 H1365 0.985 . S
C1360 C1354 1.379 . S
C1360 C1357 1.363 . S
C1360 N1358 1.356 . S
C1361 C1355 1.363 . S
C1361 C1356 1.379 . S
C1361 N1359 1.356 . S
N1362 C1354 1.356 . S
N1362 H1368 0.984 . S
N1362 H1369 0.984 . S
N1363 C1356 1.356 . S
N1363 H1366 0.984 . S
N1363 H1367 0.985 . S
H1364 N1359 0.984 . S
H1365 N1359 0.985 . S
H1366 N1363 0.984 . S
H1367 N1363 0.985 . S
H1368 N1362 0.984 . S
H1369 N1362 0.984 . S
H1370 N1358 0.984 . S
H1371 N1358 0.985 . S
C1372 C1373 1.363 . S
C1372 C1378 1.379 . S
C1372 N1380 1.356 . S
C1373 C1372 1.363 . S
C1373 C1379 1.363 . S
C1374 C1375 1.363 . S
C1374 C1379 1.379 . S
C1374 N1381 1.356 . S
C1375 C1374 1.363 . S
C1375 C1378 1.363 . S
N1376 C1378 1.356 . S
N1376 H1388 0.984 . S
N1376 H1389 0.985 . S
N1377 C1379 1.356 . S
N1377 H1382 0.984 . S
N1377 H1383 0.985 . S
C1378 C1372 1.379 . S
C1378 C1375 1.363 . S
C1378 N1376 1.356 . S
C1379 C1373 1.363 . S
C1379 C1374 1.379 . S
C1379 N1377 1.356 . S
N1380 C1372 1.356 . S
N1380 H1386 0.984 . S
N1380 H1387 0.984 . S
N1381 C1374 1.356 . S
N1381 H1384 0.984 . S
N1381 H1385 0.985 . S
H1382 N1377 0.984 . S
H1383 N1377 0.985 . S
H1384 N1381 0.984 . S
H1385 N1381 0.985 . S
H1386 N1380 0.984 . S
H1387 N1380 0.984 . S
H1388 N1376 0.984 . S
H1389 N1376 0.985 . S
C1390 C1391 1.363 . S
C1390 C1396 1.379 . S
C1390 N1398 1.356 . S
C1391 C1390 1.363 . S
C1391 C1397 1.363 . S
C1392 C1393 1.363 . S
C1392 C1397 1.379 . S
C1392 N1399 1.356 . S
C1393 C1392 1.363 . S
C1393 C1396 1.363 . S
N1394 C1396 1.356 . S
N1394 H1406 0.984 . S
N1394 H1407 0.985 . S
N1395 C1397 1.356 . S
N1395 H1400 0.984 . S
N1395 H1401 0.985 . S
C1396 C1390 1.379 . S
C1396 C1393 1.363 . S
C1396 N1394 1.356 . S
C1397 C1391 1.363 . S
C1397 C1392 1.379 . S
C1397 N1395 1.356 . S
N1398 C1390 1.356 . S
N1398 H1404 0.984 . S
N1398 H1405 0.984 . S
N1399 C1392 1.356 . S
N1399 H1402 0.984 . S
N1399 H1403 0.985 . S
H1400 N1395 0.984 . S
H1401 N1395 0.985 . S
H1402 N1399 0.984 . S
H1403 N1399 0.985 . S
H1404 N1398 0.984 . S
H1405 N1398 0.984 . S
H1406 N1394 0.984 . S
H1407 N1394 0.985 . S
C1408 C1409 1.363 . S
C1408 C1414 1.379 . S
C1408 N1416 1.356 . S
C1409 C1408 1.363 . S
C1409 C1415 1.363 . S
C1410 C1411 1.363 . S
C1410 C1415 1.379 . S
C1410 N1417 1.356 . S
C1411 C1410 1.363 . S
C1411 C1414 1.363 . S
N1412 C1414 1.356 . S
N1412 H1424 0.984 . S
N1412 H1425 0.985 . S
N1413 C1415 1.356 . S
N1413 H1418 0.984 . S
N1413 H1419 0.985 . S
C1414 C1408 1.379 . S
C1414 C1411 1.363 . S
C1414 N1412 1.356 . S
C1415 C1409 1.363 . S
C1415 C1410 1.379 . S
C1415 N1413 1.356 . S
N1416 C1408 1.356 . S
N1416 H1422 0.984 . S
N1416 H1423 0.984 . S
N1417 C1410 1.356 . S
N1417 H1420 0.984 . S
N1417 H1421 0.985 . S
H1418 N1413 0.984 . S
H1419 N1413 0.985 . S
H1420 N1417 0.984 . S
H1421 N1417 0.985 . S
H1422 N1416 0.984 . S
H1423 N1416 0.984 . S
H1424 N1412 0.984 . S
H1425 N1412 0.985 . S
C1426 C1427 1.363 . S
C1426 C1432 1.379 . S
C1426 N1434 1.356 . S
C1427 C1426 1.363 . S
C1427 C1433 1.363 . S
C1428 C1429 1.363 . S
C1428 C1433 1.379 . S
C1428 N1435 1.356 . S
C1429 C1428 1.363 . S
C1429 C1432 1.363 . S
N1430 C1432 1.356 . S
N1430 H1442 0.984 . S
N1430 H1443 0.985 . S
N1431 C1433 1.356 . S
N1431 H1436 0.984 . S
N1431 H1437 0.985 . S
C1432 C1426 1.379 . S
C1432 C1429 1.363 . S
C1432 N1430 1.356 . S
C1433 C1427 1.363 . S
C1433 C1428 1.379 . S
C1433 N1431 1.356 . S
N1434 C1426 1.356 . S
N1434 H1440 0.984 . S
N1434 H1441 0.984 . S
N1435 C1428 1.356 . S
N1435 H1438 0.984 . S
N1435 H1439 0.985 . S
H1436 N1431 0.984 . S
H1437 N1431 0.985 . S
H1438 N1435 0.984 . S
H1439 N1435 0.985 . S
H1440 N1434 0.984 . S
H1441 N1434 0.984 . S
H1442 N1430 0.984 . S
H1443 N1430 0.985 . S
C1444 C1445 1.363 . S
C1444 C1450 1.379 . S
C1444 N1452 1.356 . S
C1445 C1444 1.363 . S
C1445 C1451 1.363 . S
C1446 C1447 1.363 . S
C1446 C1451 1.379 . S
C1446 N1453 1.356 . S
C1447 C1446 1.363 . S
C1447 C1450 1.363 . S
N1448 C1450 1.356 . S
N1448 H1460 0.984 . S
N1448 H1461 0.985 . S
N1449 C1451 1.356 . S
N1449 H1454 0.984 . S
N1449 H1455 0.985 . S
C1450 C1444 1.379 . S
C1450 C1447 1.363 . S
C1450 N1448 1.356 . S
C1451 C1445 1.363 . S
C1451 C1446 1.379 . S
C1451 N1449 1.356 . S
N1452 C1444 1.356 . S
N1452 H1458 0.984 . S
N1452 H1459 0.984 . S
N1453 C1446 1.356 . S
N1453 H1456 0.984 . S
N1453 H1457 0.985 . S
H1454 N1449 0.984 . S
H1455 N1449 0.985 . S
H1456 N1453 0.984 . S
H1457 N1453 0.985 . S
H1458 N1452 0.984 . S
H1459 N1452 0.984 . S
H1460 N1448 0.984 . S
H1461 N1448 0.985 . S
C1462 C1463 1.363 . S
C1462 C1468 1.379 . S
C1462 N1470 1.356 . S
C1463 C1462 1.363 . S
C1463 C1469 1.363 . S
C1464 C1465 1.363 . S
C1464 C1469 1.379 . S
C1464 N1471 1.356 . S
C1465 C1464 1.363 . S
C1465 C1468 1.363 . S
N1466 C1468 1.356 . S
N1466 H1478 0.984 . S
N1466 H1479 0.985 . S
N1467 C1469 1.356 . S
N1467 H1472 0.984 . S
N1467 H1473 0.985 . S
C1468 C1462 1.379 . S
C1468 C1465 1.363 . S
C1468 N1466 1.356 . S
C1469 C1463 1.363 . S
C1469 C1464 1.379 . S
C1469 N1467 1.356 . S
N1470 C1462 1.356 . S
N1470 H1476 0.984 . S
N1470 H1477 0.984 . S
N1471 C1464 1.356 . S
N1471 H1474 0.984 . S
N1471 H1475 0.985 . S
H1472 N1467 0.984 . S
H1473 N1467 0.985 . S
H1474 N1471 0.984 . S
H1475 N1471 0.985 . S
H1476 N1470 0.984 . S
H1477 N1470 0.984 . S
H1478 N1466 0.984 . S
H1479 N1466 0.985 . S
C1480 C1481 1.363 . S
C1480 C1486 1.379 . S
C1480 N1488 1.378 . S
C1481 C1480 1.363 . S
C1481 C1487 1.363 . S
C1482 C1483 1.363 . S
C1482 C1487 1.379 . S
C1482 N1489 1.356 . S
C1483 C1482 1.363 . S
C1483 C1486 1.363 . S
N1484 C1486 1.353 1_655 S
N1484 H1496 0.996 . S
N1484 H1497 0.977 1_655 S
N1485 C1487 1.356 . S
N1485 H1490 0.984 . S
N1485 H1491 0.985 . S
C1486 C1480 1.379 . S
C1486 C1483 1.363 . S
C1486 N1484 1.353 1_455 S
C1487 C1481 1.363 . S
C1487 C1482 1.379 . S
C1487 N1485 1.356 . S
N1488 C1480 1.378 . S
N1488 H1494 0.966 1_455 S
N1488 H1495 0.983 . S
N1489 C1482 1.356 . S
N1489 H1492 0.984 . S
N1489 H1493 0.985 . S
H1490 N1485 0.984 . S
H1491 N1485 0.985 . S
H1492 N1489 0.984 . S
H1493 N1489 0.985 . S
H1494 N1488 0.966 1_655 S
H1495 N1488 0.983 . S
H1496 N1484 0.996 . S
H1497 N1484 0.977 1_455 S
C1498 C1499 1.363 . S
C1498 C1504 1.379 . S
C1498 N1506 1.356 . S
C1499 C1498 1.363 . S
C1499 C1505 1.363 . S
C1500 C1501 1.363 . S
C1500 C1505 1.379 . S
C1500 N1507 1.356 . S
C1501 C1500 1.363 . S
C1501 C1504 1.363 . S
N1502 C1504 1.356 . S
N1502 H1514 0.984 . S
N1502 H1515 0.985 . S
N1503 C1505 1.356 . S
N1503 H1508 0.984 . S
N1503 H1509 0.985 . S
C1504 C1498 1.379 . S
C1504 C1501 1.363 . S
C1504 N1502 1.356 . S
C1505 C1499 1.363 . S
C1505 C1500 1.379 . S
C1505 N1503 1.356 . S
N1506 C1498 1.356 . S
N1506 H1512 0.984 . S
N1506 H1513 0.984 . S
N1507 C1500 1.356 . S
N1507 H1510 0.984 . S
N1507 H1511 0.985 . S
H1508 N1503 0.984 . S
H1509 N1503 0.985 . S
H1510 N1507 0.984 . S
H1511 N1507 0.985 . S
H1512 N1506 0.984 . S
H1513 N1506 0.984 . S
H1514 N1502 0.984 . S
H1515 N1502 0.985 . S
C1516 C1517 1.363 . S
C1516 C1522 1.379 . S
C1516 N1524 1.356 . S
C1517 C1516 1.363 . S
C1517 C1523 1.363 . S
C1518 C1519 1.363 . S
C1518 C1523 1.379 . S
C1518 N1525 1.356 1_556 S
C1519 C1518 1.363 . S
C1519 C1522 1.363 . S
N1520 C1522 1.356 . S
N1520 H1532 0.985 1_565 S
N1520 H1533 0.985 1_565 S
N1521 C1523 1.356 . S
N1521 H1526 0.984 . S
N1521 H1527 1.017 . S
C1522 C1516 1.379 . S
C1522 C1519 1.363 . S
C1522 N1520 1.356 . S
C1523 C1517 1.363 . S
C1523 C1518 1.379 . S
C1523 N1521 1.356 . S
N1524 C1516 1.356 . S
N1524 H1530 0.984 . S
N1524 H1531 0.984 . S
N1525 C1518 1.356 1_554 S
N1525 H1528 0.984 . S
N1525 H1529 0.985 . S
H1526 N1521 0.984 . S
H1527 N1521 1.017 . S
H1528 N1525 0.984 . S
H1529 N1525 0.985 . S
H1530 N1524 0.984 . S
H1531 N1524 0.984 . S
H1532 N1520 0.985 1_545 S
H1533 N1520 0.985 1_545 S
C1534 C1535 1.363 . S
C1534 C1540 1.379 . S
C1534 N1542 1.356 . S
C1535 C1534 1.363 . S
C1535 C1541 1.363 . S
C1536 C1537 1.363 . S
C1536 C1541 1.379 . S
C1536 N1543 1.356 . S
C1537 C1536 1.363 . S
C1537 C1540 1.363 . S
N1538 C1540 1.356 . S
N1538 H1550 0.984 . S
N1538 H1551 0.985 . S
N1539 C1541 1.356 . S
N1539 H1544 0.984 . S
N1539 H1545 0.985 . S
C1540 C1534 1.379 . S
C1540 C1537 1.363 . S
C1540 N1538 1.356 . S
C1541 C1535 1.363 . S
C1541 C1536 1.379 . S
C1541 N1539 1.356 . S
N1542 C1534 1.356 . S
N1542 H1548 0.984 . S
N1542 H1549 0.984 . S
N1543 C1536 1.356 . S
N1543 H1546 0.984 . S
N1543 H1547 0.985 . S
H1544 N1539 0.984 . S
H1545 N1539 0.985 . S
H1546 N1543 0.984 . S
H1547 N1543 0.985 . S
H1548 N1542 0.984 . S
H1549 N1542 0.984 . S
H1550 N1538 0.984 . S
H1551 N1538 0.985 . S
C1552 C1553 1.363 . S
C1552 C1558 1.379 . S
C1552 N1560 1.356 . S
C1553 C1552 1.363 . S
C1553 C1559 1.363 . S
C1554 C1555 1.363 . S
C1554 C1559 1.379 . S
C1554 N1561 1.356 1_556 S
C1555 C1554 1.363 . S
C1555 C1558 1.363 . S
N1556 C1558 1.356 . S
N1556 H1568 0.966 1_545 S
N1556 H1569 0.985 . S
N1557 C1559 1.356 . S
N1557 H1562 0.984 . S
N1557 H1563 0.985 . S
C1558 C1552 1.379 . S
C1558 C1555 1.363 . S
C1558 N1556 1.356 . S
C1559 C1553 1.363 . S
C1559 C1554 1.379 . S
C1559 N1557 1.356 . S
N1560 C1552 1.356 . S
N1560 H1566 0.984 . S
N1560 H1567 0.984 . S
N1561 C1554 1.356 1_554 S
N1561 H1564 0.984 . S
N1561 H1565 0.985 . S
H1562 N1557 0.984 . S
H1563 N1557 0.985 . S
H1564 N1561 0.984 . S
H1565 N1561 0.985 . S
H1566 N1560 0.984 . S
H1567 N1560 0.984 . S
H1568 N1556 0.966 1_565 S
H1569 N1556 0.985 . S
C1570 C1571 1.363 . S
C1570 C1576 1.379 . S
C1570 N1578 1.356 . S
C1571 C1570 1.363 . S
C1571 C1577 1.363 . S
C1572 C1573 1.363 . S
C1572 C1577 1.379 . S
C1572 N1579 1.356 . S
C1573 C1572 1.363 . S
C1573 C1576 1.363 . S
N1574 C1576 1.356 . S
N1574 H1586 0.984 . S
N1574 H1587 0.985 . S
N1575 C1577 1.356 . S
N1575 H1580 0.984 . S
N1575 H1581 0.985 . S
C1576 C1570 1.379 . S
C1576 C1573 1.363 . S
C1576 N1574 1.356 . S
C1577 C1571 1.363 . S
C1577 C1572 1.379 . S
C1577 N1575 1.356 . S
N1578 C1570 1.356 . S
N1578 H1584 0.984 . S
N1578 H1585 0.984 . S
N1579 C1572 1.356 . S
N1579 H1582 0.984 . S
N1579 H1583 0.985 . S
H1580 N1575 0.984 . S
H1581 N1575 0.985 . S
H1582 N1579 0.984 . S
H1583 N1579 0.985 . S
H1584 N1578 0.984 . S
H1585 N1578 0.984 . S
H1586 N1574 0.984 . S
H1587 N1574 0.985 . S
C1588 C1589 1.363 . S
C1588 C1594 1.379 . S
C1588 N1596 1.356 1_545 S
C1589 C1588 1.363 . S
C1589 C1595 1.363 . S
C1590 C1591 1.363 . S
C1590 C1595 1.379 . S
C1590 N1597 1.356 . S
C1591 C1590 1.363 . S
C1591 C1594 1.363 . S
N1592 C1594 1.356 . S
N1592 H1604 0.984 1_545 S
N1592 H1605 0.985 . S
N1593 C1595 1.356 . S
N1593 H1598 0.984 . S
N1593 H1599 0.985 . S
C1594 C1588 1.379 . S
C1594 C1591 1.363 . S
C1594 N1592 1.356 . S
C1595 C1589 1.363 . S
C1595 C1590 1.379 . S
C1595 N1593 1.356 . S
N1596 C1588 1.356 1_565 S
N1596 H1602 0.984 . S
N1596 H1603 0.984 . S
N1597 C1590 1.356 . S
N1597 H1600 0.984 . S
N1597 H1601 0.985 . S
H1598 N1593 0.984 . S
H1599 N1593 0.985 . S
H1600 N1597 0.984 . S
H1601 N1597 0.985 . S
H1602 N1596 0.984 . S
H1603 N1596 0.984 . S
H1604 N1592 0.984 1_565 S
H1605 N1592 0.985 . S
C1606 C1607 1.363 . S
C1606 C1612 1.379 . S
C1606 N1614 1.356 . S
C1607 C1606 1.363 . S
C1607 C1613 1.363 . S
C1608 C1609 1.363 . S
C1608 C1613 1.379 . S
C1608 N1615 1.356 . S
C1609 C1608 1.363 . S
C1609 C1612 1.363 . S
N1610 C1612 1.356 . S
N1610 H1622 0.984 . S
N1610 H1623 0.985 . S
N1611 C1613 1.356 . S
N1611 H1616 0.984 . S
N1611 H1617 0.985 . S
C1612 C1606 1.379 . S
C1612 C1609 1.363 . S
C1612 N1610 1.356 . S
C1613 C1607 1.363 . S
C1613 C1608 1.379 . S
C1613 N1611 1.356 . S
N1614 C1606 1.356 . S
N1614 H1620 0.984 . S
N1614 H1621 0.984 . S
N1615 C1608 1.356 . S
N1615 H1618 0.984 . S
N1615 H1619 0.985 . S
H1616 N1611 0.984 . S
H1617 N1611 0.985 . S
H1618 N1615 0.984 . S
H1619 N1615 0.985 . S
H1620 N1614 0.984 . S
H1621 N1614 0.984 . S
H1622 N1610 0.984 . S
H1623 N1610 0.985 . S
C1624 C1625 1.363 . S
C1624 C1630 1.379 . S
C1624 N1632 1.356 . S
C1625 C1624 1.363 . S
C1625 C1631 1.363 . S
C1626 C1627 1.363 . S
C1626 C1631 1.379 . S
C1626 N1633 1.356 . S
C1627 C1626 1.363 . S
C1627 C1630 1.363 . S
N1628 C1630 1.356 . S
N1628 H1640 0.984 . S
N1628 H1641 0.985 . S
N1629 C1631 1.356 . S
N1629 H1634 0.984 . S
N1629 H1635 0.985 . S
C1630 C1624 1.379 . S
C1630 C1627 1.363 . S
C1630 N1628 1.356 . S
C1631 C1625 1.363 . S
C1631 C1626 1.379 . S
C1631 N1629 1.356 . S
N1632 C1624 1.356 . S
N1632 H1638 0.984 . S
N1632 H1639 0.984 . S
N1633 C1626 1.356 . S
N1633 H1636 0.984 . S
N1633 H1637 0.985 . S
H1634 N1629 0.984 . S
H1635 N1629 0.985 . S
H1636 N1633 0.984 . S
H1637 N1633 0.985 . S
H1638 N1632 0.984 . S
H1639 N1632 0.984 . S
H1640 N1628 0.984 . S
H1641 N1628 0.985 . S
C1642 C1643 1.363 . S
C1642 C1648 1.379 . S
C1642 N1650 1.356 . S
C1643 C1642 1.363 . S
C1643 C1649 1.363 . S
C1644 C1645 1.363 . S
C1644 C1649 1.379 . S
C1644 N1651 1.356 . S
C1645 C1644 1.363 . S
C1645 C1648 1.363 . S
N1646 C1648 1.356 . S
N1646 H1658 0.984 . S
N1646 H1659 0.985 . S
N1647 C1649 1.356 . S
N1647 H1652 0.984 . S
N1647 H1653 0.985 . S
C1648 C1642 1.379 . S
C1648 C1645 1.363 . S
C1648 N1646 1.356 . S
C1649 C1643 1.363 . S
C1649 C1644 1.379 . S
C1649 N1647 1.356 . S
N1650 C1642 1.356 . S
N1650 H1656 0.984 . S
N1650 H1657 0.984 . S
N1651 C1644 1.356 . S
N1651 H1654 0.984 . S
N1651 H1655 0.985 . S
H1652 N1647 0.984 . S
H1653 N1647 0.985 . S
H1654 N1651 0.984 . S
H1655 N1651 0.985 . S
H1656 N1650 0.984 . S
H1657 N1650 0.984 . S
H1658 N1646 0.984 . S
H1659 N1646 0.985 . S
C1660 C1661 1.363 . S
C1660 C1666 1.379 . S
C1660 N1668 1.356 1_545 S
C1661 C1660 1.363 . S
C1661 C1667 1.363 . S
C1662 C1663 1.363 . S
C1662 C1667 1.379 . S
C1662 N1669 1.356 . S
C1663 C1662 1.363 . S
C1663 C1666 1.363 . S
N1664 C1666 1.356 . S
N1664 H1676 0.984 1_545 S
N1664 H1677 0.985 . S
N1665 C1667 1.356 . S
N1665 H1670 0.984 . S
N1665 H1671 0.985 . S
C1666 C1660 1.379 . S
C1666 C1663 1.363 . S
C1666 N1664 1.356 . S
C1667 C1661 1.363 . S
C1667 C1662 1.379 . S
C1667 N1665 1.356 . S
N1668 C1660 1.356 1_565 S
N1668 H1674 0.984 . S
N1668 H1675 0.984 . S
N1669 C1662 1.356 . S
N1669 H1672 0.984 . S
N1669 H1673 0.985 . S
H1670 N1665 0.984 . S
H1671 N1665 0.985 . S
H1672 N1669 0.984 . S
H1673 N1669 0.985 . S
H1674 N1668 0.984 . S
H1675 N1668 0.984 . S
H1676 N1664 0.984 1_565 S
H1677 N1664 0.985 . S
C1678 C1679 1.363 . S
C1678 C1684 1.379 . S
C1678 N1686 1.356 . S
C1679 C1678 1.363 . S
C1679 C1685 1.363 . S
C1680 C1681 1.363 . S
C1680 C1685 1.379 . S
C1680 N1687 1.356 . S
C1681 C1680 1.363 . S
C1681 C1684 1.363 . S
N1682 C1684 1.356 . S
N1682 H1694 0.984 . S
N1682 H1695 0.985 . S
N1683 C1685 1.356 . S
N1683 H1688 0.984 . S
N1683 H1689 0.985 . S
C1684 C1678 1.379 . S
C1684 C1681 1.363 . S
C1684 N1682 1.356 . S
C1685 C1679 1.363 . S
C1685 C1680 1.379 . S
C1685 N1683 1.356 . S
N1686 C1678 1.356 . S
N1686 H1692 0.984 . S
N1686 H1693 0.984 . S
N1687 C1680 1.356 . S
N1687 H1690 0.984 . S
N1687 H1691 0.985 . S
H1688 N1683 0.984 . S
H1689 N1683 0.985 . S
H1690 N1687 0.984 . S
H1691 N1687 0.985 . S
H1692 N1686 0.984 . S
H1693 N1686 0.984 . S
H1694 N1682 0.984 . S
H1695 N1682 0.985 . S
C1696 C1697 1.363 . S
C1696 C1702 1.379 . S
C1696 N1704 1.356 . S
C1697 C1696 1.363 . S
C1697 C1703 1.363 . S
C1698 C1699 1.363 . S
C1698 C1703 1.379 . S
C1698 N1705 1.356 . S
C1699 C1698 1.363 . S
C1699 C1702 1.363 . S
N1700 C1702 1.356 1_556 S
N1700 H1712 0.984 . S
N1700 H1713 0.985 . S
N1701 C1703 1.356 . S
N1701 H1706 0.984 . S
N1701 H1707 0.985 . S
C1702 C1696 1.379 . S
C1702 C1699 1.363 . S
C1702 N1700 1.356 1_554 S
C1703 C1697 1.363 . S
C1703 C1698 1.379 . S
C1703 N1701 1.356 . S
N1704 C1696 1.356 . S
N1704 H1710 0.984 . S
N1704 H1711 0.984 . S
N1705 C1698 1.356 . S
N1705 H1708 0.984 . S
N1705 H1709 0.985 . S
H1706 N1701 0.984 . S
H1707 N1701 0.985 . S
H1708 N1705 0.984 . S
H1709 N1705 0.985 . S
H1710 N1704 0.984 . S
H1711 N1704 0.984 . S
H1712 N1700 0.984 . S
H1713 N1700 0.985 . S
C1714 C1715 1.363 . S
C1714 C1720 1.379 . S
C1714 N1722 1.356 . S
C1715 C1714 1.363 . S
C1715 C1721 1.363 . S
C1716 C1717 1.363 . S
C1716 C1721 1.379 . S
C1716 N1723 1.356 . S
C1717 C1716 1.363 . S
C1717 C1720 1.363 . S
N1718 C1720 1.356 . S
N1718 H1730 0.984 . S
N1718 H1731 0.985 . S
N1719 C1721 1.356 . S
N1719 H1724 0.984 . S
N1719 H1725 1.000 . S
C1720 C1714 1.379 . S
C1720 C1717 1.363 . S
C1720 N1718 1.356 . S
C1721 C1715 1.363 . S
C1721 C1716 1.379 . S
C1721 N1719 1.356 . S
N1722 C1714 1.356 . S
N1722 H1728 0.984 . S
N1722 H1729 0.984 . S
N1723 C1716 1.356 . S
N1723 H1726 0.984 . S
N1723 H1727 0.985 1_554 S
H1724 N1719 0.984 . S
H1725 N1719 1.000 . S
H1726 N1723 0.984 . S
H1727 N1723 0.985 1_556 S
H1728 N1722 0.984 . S
H1729 N1722 0.984 . S
H1730 N1718 0.984 . S
H1731 N1718 0.985 . S
C1732 C1733 1.363 . S
C1732 C1738 1.379 . S
C1732 N1740 1.356 . S
C1733 C1732 1.363 . S
C1733 C1739 1.363 . S
C1734 C1735 1.363 . S
C1734 C1739 1.379 . S
C1734 N1741 1.356 . S
C1735 C1734 1.363 . S
C1735 C1738 1.363 . S
N1736 C1738 1.356 . S
N1736 H1748 0.984 . S
N1736 H1749 0.985 . S
N1737 C1739 1.356 . S
N1737 H1742 0.984 . S
N1737 H1743 0.985 . S
C1738 C1732 1.379 . S
C1738 C1735 1.363 . S
C1738 N1736 1.356 . S
C1739 C1733 1.363 . S
C1739 C1734 1.379 . S
C1739 N1737 1.356 . S
N1740 C1732 1.356 . S
N1740 H1746 0.984 . S
N1740 H1747 0.984 . S
N1741 C1734 1.356 . S
N1741 H1744 0.984 . S
N1741 H1745 0.985 . S
H1742 N1737 0.984 . S
H1743 N1737 0.985 . S
H1744 N1741 0.984 . S
H1745 N1741 0.985 . S
H1746 N1740 0.984 . S
H1747 N1740 0.984 . S
H1748 N1736 0.984 . S
H1749 N1736 0.985 . S
C1750 C1751 1.363 . S
C1750 C1756 1.379 . S
C1750 N1758 1.356 . S
C1751 C1750 1.363 . S
C1751 C1757 1.363 . S
C1752 C1753 1.363 . S
C1752 C1757 1.379 . S
C1752 N1759 1.356 . S
C1753 C1752 1.363 . S
C1753 C1756 1.363 . S
N1754 C1756 1.356 . S
N1754 H1766 0.984 . S
N1754 H1767 0.985 . S
N1755 C1757 1.356 . S
N1755 H1760 0.984 . S
N1755 H1761 0.985 . S
C1756 C1750 1.379 . S
C1756 C1753 1.363 . S
C1756 N1754 1.356 . S
C1757 C1751 1.363 . S
C1757 C1752 1.379 . S
C1757 N1755 1.356 . S
N1758 C1750 1.356 . S
N1758 H1764 0.984 . S
N1758 H1765 0.984 . S
N1759 C1752 1.356 . S
N1759 H1762 0.984 . S
N1759 H1763 0.985 . S
H1760 N1755 0.984 . S
H1761 N1755 0.985 . S
H1762 N1759 0.984 . S
H1763 N1759 0.985 . S
H1764 N1758 0.984 . S
H1765 N1758 0.984 . S
H1766 N1754 0.984 . S
H1767 N1754 0.985 . S
C1768 C1769 1.363 1_565 S
C1768 C1774 1.379 . S
C1768 N1776 1.356 . S
C1769 C1768 1.363 1_545 S
C1769 C1775 1.363 . S
C1770 C1771 1.363 1_545 S
C1770 C1775 1.379 . S
C1770 N1777 1.356 . S
C1771 C1770 1.363 1_565 S
C1771 C1774 1.363 . S
N1772 C1774 1.356 . S
N1772 H1784 0.984 . S
N1772 H1785 0.985 . S
N1773 C1775 1.356 . S
N1773 H1778 0.984 . S
N1773 H1779 0.985 . S
C1774 C1768 1.379 . S
C1774 C1771 1.363 . S
C1774 N1772 1.356 . S
C1775 C1769 1.363 . S
C1775 C1770 1.379 . S
C1775 N1773 1.356 . S
N1776 C1768 1.356 . S
N1776 H1782 0.984 . S
N1776 H1783 0.984 . S
N1777 C1770 1.356 . S
N1777 H1780 0.984 . S
N1777 H1781 0.985 . S
H1778 N1773 0.984 . S
H1779 N1773 0.985 . S
H1780 N1777 0.984 . S
H1781 N1777 0.985 . S
H1782 N1776 0.984 . S
H1783 N1776 0.984 . S
H1784 N1772 0.984 . S
H1785 N1772 0.985 . S
C1786 C1787 1.363 . S
C1786 C1792 1.379 . S
C1786 N1794 1.356 . S
C1787 C1786 1.363 . S
C1787 C1793 1.363 . S
C1788 C1789 1.363 . S
C1788 C1793 1.379 . S
C1788 N1795 1.356 . S
C1789 C1788 1.363 . S
C1789 C1792 1.363 . S
N1790 C1792 1.356 . S
N1790 H1802 0.984 . S
N1790 H1803 0.985 . S
N1791 C1793 1.356 . S
N1791 H1796 0.984 . S
N1791 H1797 0.985 . S
C1792 C1786 1.379 . S
C1792 C1789 1.363 . S
C1792 N1790 1.356 . S
C1793 C1787 1.363 . S
C1793 C1788 1.379 . S
C1793 N1791 1.356 . S
N1794 C1786 1.356 . S
N1794 H1800 0.984 . S
N1794 H1801 0.984 . S
N1795 C1788 1.356 . S
N1795 H1798 0.984 . S
N1795 H1799 0.985 . S
H1796 N1791 0.984 . S
H1797 N1791 0.985 . S
H1798 N1795 0.984 . S
H1799 N1795 0.985 . S
H1800 N1794 0.984 . S
H1801 N1794 0.984 . S
H1802 N1790 0.984 . S
H1803 N1790 0.985 . S
C1804 C1805 1.363 . S
C1804 C1810 1.379 . S
C1804 N1812 1.356 . S
C1805 C1804 1.363 . S
C1805 C1811 1.363 . S
C1806 C1807 1.363 . S
C1806 C1811 1.379 . S
C1806 N1813 1.356 . S
C1807 C1806 1.363 . S
C1807 C1810 1.363 . S
N1808 C1810 1.356 . S
N1808 H1820 0.984 . S
N1808 H1821 0.985 . S
N1809 C1811 1.356 . S
N1809 H1814 0.984 . S
N1809 H1815 0.985 . S
C1810 C1804 1.379 . S
C1810 C1807 1.363 . S
C1810 N1808 1.356 . S
C1811 C1805 1.363 . S
C1811 C1806 1.379 . S
C1811 N1809 1.356 . S
N1812 C1804 1.356 . S
N1812 H1818 0.984 . S
N1812 H1819 0.984 . S
N1813 C1806 1.356 . S
N1813 H1816 0.984 . S
N1813 H1817 0.985 . S
H1814 N1809 0.984 . S
H1815 N1809 0.985 . S
H1816 N1813 0.984 . S
H1817 N1813 0.985 . S
H1818 N1812 0.984 . S
H1819 N1812 0.984 . S
H1820 N1808 0.984 . S
H1821 N1808 0.985 . S
C1822 C1823 1.363 . S
C1822 C1828 1.379 . S
C1822 N1830 1.356 . S
C1823 C1822 1.363 . S
C1823 C1829 1.363 . S
C1824 C1825 1.363 . S
C1824 C1829 1.379 . S
C1824 N1831 1.356 . S
C1825 C1824 1.363 . S
C1825 C1828 1.363 . S
N1826 C1828 1.356 . S
N1826 H1838 0.984 . S
N1826 H1839 0.985 . S
N1827 C1829 1.356 . S
N1827 H1832 0.984 . S
N1827 H1833 0.985 . S
C1828 C1822 1.379 . S
C1828 C1825 1.363 . S
C1828 N1826 1.356 . S
C1829 C1823 1.363 . S
C1829 C1824 1.379 . S
C1829 N1827 1.356 . S
N1830 C1822 1.356 . S
N1830 H1836 0.984 . S
N1830 H1837 0.984 . S
N1831 C1824 1.356 . S
N1831 H1834 0.984 . S
N1831 H1835 0.985 . S
H1832 N1827 0.984 . S
H1833 N1827 0.985 . S
H1834 N1831 0.984 . S
H1835 N1831 0.985 . S
H1836 N1830 0.984 . S
H1837 N1830 0.984 . S
H1838 N1826 0.984 . S
H1839 N1826 0.985 . S
C1840 C1841 1.363 . S
C1840 C1846 1.379 . S
C1840 N1848 1.356 . S
C1841 C1840 1.363 . S
C1841 C1847 1.363 . S
C1842 C1843 1.363 . S
C1842 C1847 1.379 . S
C1842 N1849 1.356 . S
C1843 C1842 1.363 . S
C1843 C1846 1.363 . S
N1844 C1846 1.356 . S
N1844 H1856 0.984 . S
N1844 H1857 0.985 . S
N1845 C1847 1.356 . S
N1845 H1850 0.984 . S
N1845 H1851 0.985 . S
C1846 C1840 1.379 . S
C1846 C1843 1.363 . S
C1846 N1844 1.356 . S
C1847 C1841 1.363 . S
C1847 C1842 1.379 . S
C1847 N1845 1.356 . S
N1848 C1840 1.356 . S
N1848 H1854 0.984 . S
N1848 H1855 0.984 . S
N1849 C1842 1.356 . S
N1849 H1852 0.984 . S
N1849 H1853 0.985 . S
H1850 N1845 0.984 . S
H1851 N1845 0.985 . S
H1852 N1849 0.984 . S
H1853 N1849 0.985 . S
H1854 N1848 0.984 . S
H1855 N1848 0.984 . S
H1856 N1844 0.984 . S
H1857 N1844 0.985 . S
C1858 C1859 1.363 . S
C1858 C1864 1.379 . S
C1858 N1866 1.356 . S
C1859 C1858 1.363 . S
C1859 C1865 1.363 . S
C1860 C1861 1.363 . S
C1860 C1865 1.379 . S
C1860 N1867 1.356 . S
C1861 C1860 1.363 . S
C1861 C1864 1.363 . S
N1862 C1864 1.356 . S
N1862 H1874 0.984 . S
N1862 H1875 0.985 . S
N1863 C1865 1.356 . S
N1863 H1868 0.984 . S
N1863 H1869 0.985 . S
C1864 C1858 1.379 . S
C1864 C1861 1.363 . S
C1864 N1862 1.356 . S
C1865 C1859 1.363 . S
C1865 C1860 1.379 . S
C1865 N1863 1.356 . S
N1866 C1858 1.356 . S
N1866 H1872 0.984 . S
N1866 H1873 0.984 . S
N1867 C1860 1.356 . S
N1867 H1870 0.984 . S
N1867 H1871 0.985 . S
H1868 N1863 0.984 . S
H1869 N1863 0.985 . S
H1870 N1867 0.984 . S
H1871 N1867 0.985 . S
H1872 N1866 0.984 . S
H1873 N1866 0.984 . S
H1874 N1862 0.984 . S
H1875 N1862 0.985 . S
C1876 C1877 1.363 1_554 S
C1876 C1882 1.379 . S
C1876 N1884 1.356 1_455 S
C1877 C1876 1.363 1_556 S
C1877 C1883 1.363 . S
C1878 C1879 1.362 1_556 S
C1878 C1883 1.379 . S
C1878 N1885 1.357 . S
C1879 C1878 1.362 1_554 S
C1879 C1882 1.363 . S
N1880 C1882 1.356 . S
N1880 H1892 0.984 1_455 S
N1880 H1893 0.985 . S
N1881 C1883 1.356 . S
N1881 H1886 0.984 . S
N1881 H1887 0.985 . S
C1882 C1876 1.379 . S
C1882 C1879 1.363 . S
C1882 N1880 1.356 . S
C1883 C1877 1.363 . S
C1883 C1878 1.379 . S
C1883 N1881 1.356 . S
N1884 C1876 1.356 1_655 S
N1884 H1890 0.984 . S
N1884 H1891 0.984 . S
N1885 C1878 1.357 . S
N1885 H1888 0.984 1_556 S
N1885 H1889 0.985 . S
H1886 N1881 0.984 . S
H1887 N1881 0.985 . S
H1888 N1885 0.984 1_554 S
H1889 N1885 0.985 . S
H1890 N1884 0.984 . S
H1891 N1884 0.984 . S
H1892 N1880 0.984 1_655 S
H1893 N1880 0.985 . S
C1894 C1895 1.363 . S
C1894 C1900 1.379 . S
C1894 N1902 1.356 . S
C1895 C1894 1.363 . S
C1895 C1901 1.363 . S
C1896 C1897 1.363 . S
C1896 C1901 1.379 1_655 S
C1896 N1903 1.356 . S
C1897 C1896 1.363 . S
C1897 C1900 1.363 1_655 S
N1898 C1900 1.356 . S
N1898 H1910 0.984 . S
N1898 H1911 0.985 1_455 S
N1899 C1901 1.356 . S
N1899 H1904 0.984 . S
N1899 H1905 0.985 . S
C1900 C1894 1.379 . S
C1900 C1897 1.363 1_455 S
C1900 N1898 1.356 . S
C1901 C1895 1.363 . S
C1901 C1896 1.379 1_455 S
C1901 N1899 1.356 . S
N1902 C1894 1.356 . S
N1902 H1908 0.984 . S
N1902 H1909 0.984 . S
N1903 C1896 1.356 . S
N1903 H1906 0.984 . S
N1903 H1907 0.985 . S
H1904 N1899 0.984 . S
H1905 N1899 0.985 . S
H1906 N1903 0.984 . S
H1907 N1903 0.985 . S
H1908 N1902 0.984 . S
H1909 N1902 0.984 . S
H1910 N1898 0.984 . S
H1911 N1898 0.985 1_655 S
C1912 C1913 1.363 . S
C1912 C1918 1.379 . S
C1912 N1920 1.356 . S
C1913 C1912 1.363 . S
C1913 C1919 1.363 . S
C1914 C1915 1.363 . S
C1914 C1919 1.379 . S
C1914 N1921 1.356 . S
C1915 C1914 1.363 . S
C1915 C1918 1.363 . S
N1916 C1918 1.356 . S
N1916 H1928 0.984 . S
N1916 H1929 0.985 . S
N1917 C1919 1.356 . S
N1917 H1922 0.984 . S
N1917 H1923 0.985 . S
C1918 C1912 1.379 . S
C1918 C1915 1.363 . S
C1918 N1916 1.356 . S
C1919 C1913 1.363 . S
C1919 C1914 1.379 . S
C1919 N1917 1.356 . S
N1920 C1912 1.356 . S
N1920 H1926 0.984 . S
N1920 H1927 0.984 . S
N1921 C1914 1.356 . S
N1921 H1924 0.984 . S
N1921 H1925 0.985 . S
H1922 N1917 0.984 . S
H1923 N1917 0.985 . S
H1924 N1921 0.984 . S
H1925 N1921 0.985 . S
H1926 N1920 0.984 . S
H1927 N1920 0.984 . S
H1928 N1916 0.984 . S
H1929 N1916 0.985 . S
C1930 C1931 1.363 . S
C1930 C1936 1.379 . S
C1930 N1938 1.356 . S
C1931 C1930 1.363 . S
C1931 C1937 1.363 . S
C1932 C1933 1.363 . S
C1932 C1937 1.379 . S
C1932 N1939 1.356 . S
C1933 C1932 1.363 . S
C1933 C1936 1.363 . S
N1934 C1936 1.356 . S
N1934 H1946 0.984 . S
N1934 H1947 0.985 . S
N1935 C1937 1.356 . S
N1935 H1940 0.984 . S
N1935 H1941 0.985 . S
C1936 C1930 1.379 . S
C1936 C1933 1.363 . S
C1936 N1934 1.356 . S
C1937 C1931 1.363 . S
C1937 C1932 1.379 . S
C1937 N1935 1.356 . S
N1938 C1930 1.356 . S
N1938 H1944 0.984 . S
N1938 H1945 0.984 . S
N1939 C1932 1.356 . S
N1939 H1942 0.984 . S
N1939 H1943 0.985 . S
H1940 N1935 0.984 . S
H1941 N1935 0.985 . S
H1942 N1939 0.984 . S
H1943 N1939 0.985 . S
H1944 N1938 0.984 . S
H1945 N1938 0.984 . S
H1946 N1934 0.984 . S
H1947 N1934 0.985 . S
C1948 C1949 1.363 . S
C1948 C1954 1.379 . S
C1948 N1956 1.356 . S
C1949 C1948 1.363 . S
C1949 C1955 1.363 . S
C1950 C1951 1.363 . S
C1950 C1955 1.379 . S
C1950 N1957 1.356 . S
C1951 C1950 1.363 . S
C1951 C1954 1.363 . S
N1952 C1954 1.356 . S
N1952 H1964 0.984 . S
N1952 H1965 0.985 . S
N1953 C1955 1.356 . S
N1953 H1958 0.984 . S
N1953 H1959 0.985 . S
C1954 C1948 1.379 . S
C1954 C1951 1.363 . S
C1954 N1952 1.356 . S
C1955 C1949 1.363 . S
C1955 C1950 1.379 . S
C1955 N1953 1.356 . S
N1956 C1948 1.356 . S
N1956 H1962 0.984 . S
N1956 H1963 0.984 . S
N1957 C1950 1.356 . S
N1957 H1960 0.984 . S
N1957 H1961 0.985 . S
H1958 N1953 0.984 . S
H1959 N1953 0.985 . S
H1960 N1957 0.984 . S
H1961 N1957 0.985 . S
H1962 N1956 0.984 . S
H1963 N1956 0.984 . S
H1964 N1952 0.984 . S
H1965 N1952 0.985 . S
C1966 C1967 1.363 . S
C1966 C1972 1.379 . S
C1966 N1974 1.356 . S
C1967 C1966 1.363 . S
C1967 C1973 1.363 . S
C1968 C1969 1.363 . S
C1968 C1973 1.379 . S
C1968 N1975 1.356 . S
C1969 C1968 1.363 . S
C1969 C1972 1.363 . S
N1970 C1972 1.356 . S
N1970 H1982 0.984 . S
N1970 H1983 0.985 . S
N1971 C1973 1.356 . S
N1971 H1976 0.984 . S
N1971 H1977 0.985 . S
C1972 C1966 1.379 . S
C1972 C1969 1.363 . S
C1972 N1970 1.356 . S
C1973 C1967 1.363 . S
C1973 C1968 1.379 . S
C1973 N1971 1.356 . S
N1974 C1966 1.356 . S
N1974 H1980 0.984 . S
N1974 H1981 0.984 . S
N1975 C1968 1.356 . S
N1975 H1978 0.984 . S
N1975 H1979 0.985 . S
H1976 N1971 0.984 . S
H1977 N1971 0.985 . S
H1978 N1975 0.984 . S
H1979 N1975 0.985 . S
H1980 N1974 0.984 . S
H1981 N1974 0.984 . S
H1982 N1970 0.984 . S
H1983 N1970 0.985 . S
C1984 C1985 1.363 . S
C1984 C1990 1.379 . S
C1984 N1992 1.356 . S
C1985 C1984 1.363 . S
C1985 C1991 1.363 . S
C1986 C1987 1.363 . S
C1986 C1991 1.379 . S
C1986 N1993 1.356 . S
C1987 C1986 1.363 . S
C1987 C1990 1.363 . S
N1988 C1990 1.356 . S
N1988 H2000 0.984 . S
N1988 H2001 0.985 . S
N1989 C1991 1.356 . S
N1989 H1994 0.984 . S
N1989 H1995 0.985 . S
C1990 C1984 1.379 . S
C1990 C1987 1.363 . S
C1990 N1988 1.356 . S
C1991 C1985 1.363 . S
C1991 C1986 1.379 . S
C1991 N1989 1.356 . S
N1992 C1984 1.356 . S
N1992 H1998 0.984 . S
N1992 H1999 0.984 . S
N1993 C1986 1.356 . S
N1993 H1996 0.984 . S
N1993 H1997 0.985 . S
H1994 N1989 0.984 . S
H1995 N1989 0.985 . S
H1996 N1993 0.984 . S
H1997 N1993 0.985 . S
H1998 N1992 0.984 . S
H1999 N1992 0.984 . S
H2000 N1988 0.984 . S
H2001 N1988 0.985 . S
C2002 C2003 1.363 . S
C2002 C2008 1.379 1_554 S
C2002 N2010 1.356 . S
C2003 C2002 1.363 . S
C2003 C2009 1.363 1_554 S
C2004 C2005 1.363 . S
C2004 C2009 1.379 . S
C2004 N2011 1.356 . S
C2005 C2004 1.363 . S
C2005 C2008 1.363 . S
N2006 C2008 1.356 . S
N2006 H2018 0.984 1_556 S
N2006 H2019 0.985 . S
N2007 C2009 1.356 1_554 S
N2007 H2012 0.984 . S
N2007 H2013 0.985 1_554 S
C2008 C2002 1.379 1_556 S
C2008 C2005 1.363 . S
C2008 N2006 1.356 . S
C2009 C2003 1.363 1_556 S
C2009 C2004 1.379 . S
C2009 N2007 1.356 1_556 S
N2010 C2002 1.356 . S
N2010 H2016 0.984 . S
N2010 H2017 0.984 . S
N2011 C2004 1.356 . S
N2011 H2014 0.984 . S
N2011 H2015 0.985 . S
H2012 N2007 0.984 . S
H2013 N2007 0.985 1_556 S
H2014 N2011 0.984 . S
H2015 N2011 0.985 . S
H2016 N2010 0.984 . S
H2017 N2010 0.984 . S
H2018 N2006 0.984 1_554 S
H2019 N2006 0.985 . S
C2020 C2021 1.363 . S
C2020 C2026 1.379 . S
C2020 N2028 1.356 . S
C2021 C2020 1.363 . S
C2021 C2027 1.363 . S
C2022 C2023 1.363 . S
C2022 C2027 1.379 . S
C2022 N2029 1.356 . S
C2023 C2022 1.363 . S
C2023 C2026 1.363 . S
N2024 C2026 1.356 . S
N2024 H2036 0.984 . S
N2024 H2037 0.985 . S
N2025 C2027 1.356 . S
N2025 H2030 0.984 . S
N2025 H2031 0.985 . S
C2026 C2020 1.379 . S
C2026 C2023 1.363 . S
C2026 N2024 1.356 . S
C2027 C2021 1.363 . S
C2027 C2022 1.379 . S
C2027 N2025 1.356 . S
N2028 C2020 1.356 . S
N2028 H2034 0.984 . S
N2028 H2035 0.984 . S
N2029 C2022 1.356 . S
N2029 H2032 0.984 . S
N2029 H2033 0.985 . S
H2030 N2025 0.984 . S
H2031 N2025 0.985 . S
H2032 N2029 0.984 . S
H2033 N2029 0.985 . S
H2034 N2028 0.984 . S
H2035 N2028 0.984 . S
H2036 N2024 0.984 . S
H2037 N2024 0.985 . S
C2038 C2039 1.363 . S
C2038 C2044 1.379 . S
C2038 N2046 1.356 . S
C2039 C2038 1.363 . S
C2039 C2045 1.363 . S
C2040 C2041 1.363 . S
C2040 C2045 1.379 . S
C2040 N2047 1.356 . S
C2041 C2040 1.363 . S
C2041 C2044 1.363 . S
N2042 C2044 1.356 . S
N2042 H2054 0.984 . S
N2042 H2055 0.985 . S
N2043 C2045 1.356 . S
N2043 H2048 0.984 . S
N2043 H2049 0.985 . S
C2044 C2038 1.379 . S
C2044 C2041 1.363 . S
C2044 N2042 1.356 . S
C2045 C2039 1.363 . S
C2045 C2040 1.379 . S
C2045 N2043 1.356 . S
N2046 C2038 1.356 . S
N2046 H2052 0.984 . S
N2046 H2053 0.984 . S
N2047 C2040 1.356 . S
N2047 H2050 0.984 . S
N2047 H2051 0.985 . S
H2048 N2043 0.984 . S
H2049 N2043 0.985 . S
H2050 N2047 0.984 . S
H2051 N2047 0.985 . S
H2052 N2046 0.984 . S
H2053 N2046 0.984 . S
H2054 N2042 0.984 . S
H2055 N2042 0.985 . S
C2056 C2057 1.363 . S
C2056 C2062 1.379 . S
C2056 N2064 1.356 . S
C2057 C2056 1.363 . S
C2057 C2063 1.363 . S
C2058 C2059 1.363 . S
C2058 C2063 1.379 . S
C2058 N2065 1.356 . S
C2059 C2058 1.363 . S
C2059 C2062 1.363 . S
N2060 C2062 1.356 . S
N2060 H2072 0.984 . S
N2060 H2073 0.985 . S
N2061 C2063 1.356 . S
N2061 H2066 0.984 . S
N2061 H2067 0.985 . S
C2062 C2056 1.379 . S
C2062 C2059 1.363 . S
C2062 N2060 1.356 . S
C2063 C2057 1.363 . S
C2063 C2058 1.379 . S
C2063 N2061 1.356 . S
N2064 C2056 1.356 . S
N2064 H2070 0.984 . S
N2064 H2071 0.984 . S
N2065 C2058 1.356 . S
N2065 H2068 0.984 . S
N2065 H2069 0.985 . S
H2066 N2061 0.984 . S
H2067 N2061 0.985 . S
H2068 N2065 0.984 . S
H2069 N2065 0.985 . S
H2070 N2064 0.984 . S
H2071 N2064 0.984 . S
H2072 N2060 0.984 . S
H2073 N2060 0.985 . S
C2074 C2075 1.363 . S
C2074 C2080 1.379 . S
C2074 N2082 1.356 . S
C2075 C2074 1.363 . S
C2075 C2081 1.363 . S
C2076 C2077 1.363 . S
C2076 C2081 1.379 . S
C2076 N2083 1.356 . S
C2077 C2076 1.363 . S
C2077 C2080 1.363 . S
N2078 C2080 1.356 . S
N2078 H2090 0.984 . S
N2078 H2091 0.985 . S
N2079 C2081 1.356 . S
N2079 H2084 0.984 . S
N2079 H2085 0.985 . S
C2080 C2074 1.379 . S
C2080 C2077 1.363 . S
C2080 N2078 1.356 . S
C2081 C2075 1.363 . S
C2081 C2076 1.379 . S
C2081 N2079 1.356 . S
N2082 C2074 1.356 . S
N2082 H2088 0.984 . S
N2082 H2089 0.984 . S
N2083 C2076 1.356 . S
N2083 H2086 0.984 . S
N2083 H2087 0.985 . S
H2084 N2079 0.984 . S
H2085 N2079 0.985 . S
H2086 N2083 0.984 . S
H2087 N2083 0.985 . S
H2088 N2082 0.984 . S
H2089 N2082 0.984 . S
H2090 N2078 0.984 . S
H2091 N2078 0.985 . S
C2092 C2093 1.363 . S
C2092 C2098 1.379 . S
C2092 N2100 1.356 . S
C2093 C2092 1.363 . S
C2093 C2099 1.363 . S
C2094 C2095 1.363 . S
C2094 C2099 1.379 . S
C2094 N2101 1.356 . S
C2095 C2094 1.363 . S
C2095 C2098 1.363 . S
N2096 C2098 1.356 . S
N2096 H2108 0.984 . S
N2096 H2109 0.985 . S
N2097 C2099 1.356 . S
N2097 H2102 0.984 . S
N2097 H2103 0.985 . S
C2098 C2092 1.379 . S
C2098 C2095 1.363 . S
C2098 N2096 1.356 . S
C2099 C2093 1.363 . S
C2099 C2094 1.379 . S
C2099 N2097 1.356 . S
N2100 C2092 1.356 . S
N2100 H2106 0.984 . S
N2100 H2107 0.984 . S
N2101 C2094 1.356 . S
N2101 H2104 0.984 . S
N2101 H2105 0.985 . S
H2102 N2097 0.984 . S
H2103 N2097 0.985 . S
H2104 N2101 0.984 . S
H2105 N2101 0.985 . S
H2106 N2100 0.984 . S
H2107 N2100 0.984 . S
H2108 N2096 0.984 . S
H2109 N2096 0.985 . S
C2110 C2111 1.363 . S
C2110 C2116 1.379 . S
C2110 N2118 1.356 . S
C2111 C2110 1.363 . S
C2111 C2117 1.363 . S
C2112 C2113 1.363 . S
C2112 C2117 1.379 . S
C2112 N2119 1.356 . S
C2113 C2112 1.363 . S
C2113 C2116 1.363 . S
N2114 C2116 1.356 . S
N2114 H2126 0.984 . S
N2114 H2127 0.985 . S
N2115 C2117 1.356 . S
N2115 H2120 0.984 . S
N2115 H2121 0.985 . S
C2116 C2110 1.379 . S
C2116 C2113 1.363 . S
C2116 N2114 1.356 . S
C2117 C2111 1.363 . S
C2117 C2112 1.379 . S
C2117 N2115 1.356 . S
N2118 C2110 1.356 . S
N2118 H2124 0.984 . S
N2118 H2125 0.984 . S
N2119 C2112 1.356 . S
N2119 H2122 0.984 . S
N2119 H2123 0.985 . S
H2120 N2115 0.984 . S
H2121 N2115 0.985 . S
H2122 N2119 0.984 . S
H2123 N2119 0.985 . S
H2124 N2118 0.984 . S
H2125 N2118 0.984 . S
H2126 N2114 0.984 . S
H2127 N2114 0.985 . S
C2128 C2129 1.363 . S
C2128 C2134 1.379 . S
C2128 N2136 1.356 . S
C2129 C2128 1.363 . S
C2129 C2135 1.363 . S
C2130 C2131 1.363 . S
C2130 C2135 1.379 . S
C2130 N2137 1.356 . S
C2131 C2130 1.363 . S
C2131 C2134 1.363 . S
N2132 C2134 1.356 . S
N2132 H2144 0.984 . S
N2132 H2145 0.985 . S
N2133 C2135 1.356 . S
N2133 H2138 0.984 . S
N2133 H2139 0.985 . S
C2134 C2128 1.379 . S
C2134 C2131 1.363 . S
C2134 N2132 1.356 . S
C2135 C2129 1.363 . S
C2135 C2130 1.379 . S
C2135 N2133 1.356 . S
N2136 C2128 1.356 . S
N2136 H2142 0.984 . S
N2136 H2143 0.984 . S
N2137 C2130 1.356 . S
N2137 H2140 0.984 . S
N2137 H2141 0.985 . S
H2138 N2133 0.984 . S
H2139 N2133 0.985 . S
H2140 N2137 0.984 . S
H2141 N2137 0.985 . S
H2142 N2136 0.984 . S
H2143 N2136 0.984 . S
H2144 N2132 0.984 . S
H2145 N2132 0.985 . S
C2146 C2147 1.363 . S
C2146 C2152 1.379 . S
C2146 N2154 1.356 . S
C2147 C2146 1.363 . S
C2147 C2153 1.363 . S
C2148 C2149 1.363 . S
C2148 C2153 1.379 . S
C2148 N2155 1.356 . S
C2149 C2148 1.363 . S
C2149 C2152 1.363 . S
N2150 C2152 1.356 . S
N2150 H2162 0.984 . S
N2150 H2163 0.985 . S
N2151 C2153 1.356 . S
N2151 H2156 0.984 . S
N2151 H2157 0.985 . S
C2152 C2146 1.379 . S
C2152 C2149 1.363 . S
C2152 N2150 1.356 . S
C2153 C2147 1.363 . S
C2153 C2148 1.379 . S
C2153 N2151 1.356 . S
N2154 C2146 1.356 . S
N2154 H2160 0.984 . S
N2154 H2161 0.984 . S
N2155 C2148 1.356 . S
N2155 H2158 0.984 . S
N2155 H2159 0.985 . S
H2156 N2151 0.984 . S
H2157 N2151 0.985 . S
H2158 N2155 0.984 . S
H2159 N2155 0.985 . S
H2160 N2154 0.984 . S
H2161 N2154 0.984 . S
H2162 N2150 0.984 . S
H2163 N2150 0.985 . S
C2164 C2165 1.363 . S
C2164 C2170 1.379 . S
C2164 N2172 1.356 . S
C2165 C2164 1.363 . S
C2165 C2171 1.363 . S
C2166 C2167 1.363 1_565 S
C2166 C2171 1.379 1_565 S
C2166 N2173 1.356 . S
C2167 C2166 1.363 1_545 S
C2167 C2170 1.363 . S
N2168 C2170 1.356 . S
N2168 H2180 0.984 . S
N2168 H2181 0.985 . S
N2169 C2171 1.357 . S
N2169 H2174 0.986 . S
N2169 H2175 0.982 1_545 S
C2170 C2164 1.379 . S
C2170 C2167 1.363 . S
C2170 N2168 1.356 . S
C2171 C2165 1.363 . S
C2171 C2166 1.379 1_545 S
C2171 N2169 1.357 . S
N2172 C2164 1.356 . S
N2172 H2178 0.984 . S
N2172 H2179 0.984 . S
N2173 C2166 1.356 . S
N2173 H2176 0.984 . S
N2173 H2177 0.985 . S
H2174 N2169 0.986 . S
H2175 N2169 0.982 1_565 S
H2176 N2173 0.984 . S
H2177 N2173 0.985 . S
H2178 N2172 0.984 . S
H2179 N2172 0.984 . S
H2180 N2168 0.984 . S
H2181 N2168 0.985 . S
C2182 C2183 1.367 1_545 S
C2182 C2188 1.379 . S
C2182 N2190 1.356 1_545 S
C2183 C2182 1.367 1_565 S
C2183 C2189 1.359 1_564 S
C2184 C2185 1.363 1_556 S
C2184 C2189 1.379 . S
C2184 N2191 1.356 . S
C2185 C2184 1.363 1_554 S
C2185 C2188 1.363 . S
N2186 C2188 1.356 . S
N2186 H2198 0.984 . S
N2186 H2199 0.985 . S
N2187 C2189 1.356 . S
N2187 H2192 0.984 1_545 S
N2187 H2193 0.985 . S
C2188 C2182 1.379 . S
C2188 C2185 1.363 . S
C2188 N2186 1.356 . S
C2189 C2183 1.359 1_546 S
C2189 C2184 1.379 . S
C2189 N2187 1.356 . S
N2190 C2182 1.356 1_565 S
N2190 H2196 0.984 . S
N2190 H2197 0.984 . S
N2191 C2184 1.356 . S
N2191 H2194 0.984 1_556 S
N2191 H2195 0.985 . S
H2192 N2187 0.984 1_565 S
H2193 N2187 0.985 . S
H2194 N2191 0.984 1_554 S
H2195 N2191 0.985 . S
H2196 N2190 0.984 . S
H2197 N2190 0.984 . S
H2198 N2186 0.984 . S
H2199 N2186 0.985 . S
C2200 C2201 1.363 . S
C2200 C2206 1.379 . S
C2200 N2208 1.356 . S
C2201 C2200 1.363 . S
C2201 C2207 1.363 . S
C2202 C2203 1.363 . S
C2202 C2207 1.379 . S
C2202 N2209 1.356 . S
C2203 C2202 1.363 . S
C2203 C2206 1.363 . S
N2204 C2206 1.356 . S
N2204 H2216 0.984 . S
N2204 H2217 0.985 . S
N2205 C2207 1.356 . S
N2205 H2210 0.984 . S
N2205 H2211 0.985 . S
C2206 C2200 1.379 . S
C2206 C2203 1.363 . S
C2206 N2204 1.356 . S
C2207 C2201 1.363 . S
C2207 C2202 1.379 . S
C2207 N2205 1.356 . S
N2208 C2200 1.356 . S
N2208 H2214 0.984 . S
N2208 H2215 0.984 . S
N2209 C2202 1.356 . S
N2209 H2212 0.984 . S
N2209 H2213 0.985 . S
H2210 N2205 0.984 . S
H2211 N2205 0.985 . S
H2212 N2209 0.984 . S
H2213 N2209 0.985 . S
H2214 N2208 0.984 . S
H2215 N2208 0.984 . S
H2216 N2204 0.984 . S
H2217 N2204 0.985 . S
C2218 C2219 1.363 . S
C2218 C2224 1.379 . S
C2218 N2226 1.356 . S
C2219 C2218 1.363 . S
C2219 C2225 1.363 . S
C2220 C2221 1.363 . S
C2220 C2225 1.379 . S
C2220 N2227 1.356 . S
C2221 C2220 1.363 . S
C2221 C2224 1.363 . S
N2222 C2224 1.356 . S
N2222 H2234 0.984 . S
N2222 H2235 0.985 . S
N2223 C2225 1.356 . S
N2223 H2228 0.984 . S
N2223 H2229 0.985 . S
C2224 C2218 1.379 . S
C2224 C2221 1.363 . S
C2224 N2222 1.356 . S
C2225 C2219 1.363 . S
C2225 C2220 1.379 . S
C2225 N2223 1.356 . S
N2226 C2218 1.356 . S
N2226 H2232 0.984 . S
N2226 H2233 0.984 . S
N2227 C2220 1.356 . S
N2227 H2230 0.984 . S
N2227 H2231 0.985 . S
H2228 N2223 0.984 . S
H2229 N2223 0.985 . S
H2230 N2227 0.984 . S
H2231 N2227 0.985 . S
H2232 N2226 0.984 . S
H2233 N2226 0.984 . S
H2234 N2222 0.984 . S
H2235 N2222 0.985 . S
C2236 C2237 1.363 . S
C2236 C2242 1.379 . S
C2236 N2244 1.356 . S
C2237 C2236 1.363 . S
C2237 C2243 1.363 . S
C2238 C2239 1.363 . S
C2238 C2243 1.379 . S
C2238 N2245 1.356 . S
C2239 C2238 1.363 . S
C2239 C2242 1.363 . S
N2240 C2242 1.356 . S
N2240 H2252 0.984 . S
N2240 H2253 0.985 . S
N2241 C2243 1.356 . S
N2241 H2246 0.984 . S
N2241 H2247 0.985 . S
C2242 C2236 1.379 . S
C2242 C2239 1.363 . S
C2242 N2240 1.356 . S
C2243 C2237 1.363 . S
C2243 C2238 1.379 . S
C2243 N2241 1.356 . S
N2244 C2236 1.356 . S
N2244 H2250 0.984 . S
N2244 H2251 0.984 . S
N2245 C2238 1.356 . S
N2245 H2248 0.984 . S
N2245 H2249 0.985 . S
H2246 N2241 0.984 . S
H2247 N2241 0.985 . S
H2248 N2245 0.984 . S
H2249 N2245 0.985 . S
H2250 N2244 0.984 . S
H2251 N2244 0.984 . S
H2252 N2240 0.984 . S
H2253 N2240 0.985 . S
C2254 C2255 1.363 . S
C2254 C2260 1.379 . S
C2254 N2262 1.356 . S
C2255 C2254 1.363 . S
C2255 C2261 1.363 . S
C2256 C2257 1.363 . S
C2256 C2261 1.379 . S
C2256 N2263 1.356 . S
C2257 C2256 1.363 . S
C2257 C2260 1.363 . S
N2258 C2260 1.356 . S
N2258 H2270 0.984 . S
N2258 H2271 0.985 . S
N2259 C2261 1.356 . S
N2259 H2264 0.984 1_565 S
N2259 H2265 1.009 . S
C2260 C2254 1.379 . S
C2260 C2257 1.363 . S
C2260 N2258 1.356 . S
C2261 C2255 1.363 . S
C2261 C2256 1.379 . S
C2261 N2259 1.356 . S
N2262 C2254 1.356 . S
N2262 H2268 0.984 . S
N2262 H2269 0.984 . S
N2263 C2256 1.356 . S
N2263 H2266 0.984 . S
N2263 H2267 0.985 . S
H2264 N2259 0.984 1_545 S
H2265 N2259 1.009 . S
H2266 N2263 0.984 . S
H2267 N2263 0.985 . S
H2268 N2262 0.984 . S
H2269 N2262 0.984 . S
H2270 N2258 0.984 . S
H2271 N2258 0.985 . S
C2272 C2273 1.363 . S
C2272 C2278 1.379 . S
C2272 N2280 1.356 . S
C2273 C2272 1.363 . S
C2273 C2279 1.363 . S
C2274 C2275 1.363 . S
C2274 C2279 1.379 . S
C2274 N2281 1.356 . S
C2275 C2274 1.363 . S
C2275 C2278 1.363 . S
N2276 C2278 1.356 . S
N2276 H2288 0.984 . S
N2276 H2289 0.985 . S
N2277 C2279 1.356 . S
N2277 H2282 0.984 . S
N2277 H2283 0.985 . S
C2278 C2272 1.379 . S
C2278 C2275 1.363 . S
C2278 N2276 1.356 . S
C2279 C2273 1.363 . S
C2279 C2274 1.379 . S
C2279 N2277 1.356 . S
N2280 C2272 1.356 . S
N2280 H2286 0.984 . S
N2280 H2287 0.984 . S
N2281 C2274 1.356 . S
N2281 H2284 0.984 . S
N2281 H2285 0.985 . S
H2282 N2277 0.984 . S
H2283 N2277 0.985 . S
H2284 N2281 0.984 . S
H2285 N2281 0.985 . S
H2286 N2280 0.984 . S
H2287 N2280 0.984 . S
H2288 N2276 0.984 . S
H2289 N2276 0.985 . S
C2290 C2291 1.363 . S
C2290 C2296 1.379 . S
C2290 N2298 1.356 . S
C2291 C2290 1.363 . S
C2291 C2297 1.363 . S
C2292 C2293 1.363 . S
C2292 C2297 1.379 . S
C2292 N2299 1.356 . S
C2293 C2292 1.363 . S
C2293 C2296 1.363 . S
N2294 C2296 1.356 . S
N2294 H2306 0.984 . S
N2294 H2307 0.985 . S
N2295 C2297 1.356 . S
N2295 H2300 0.984 . S
N2295 H2301 0.985 . S
C2296 C2290 1.379 . S
C2296 C2293 1.363 . S
C2296 N2294 1.356 . S
C2297 C2291 1.363 . S
C2297 C2292 1.379 . S
C2297 N2295 1.356 . S
N2298 C2290 1.356 . S
N2298 H2304 0.984 . S
N2298 H2305 0.984 . S
N2299 C2292 1.356 . S
N2299 H2302 0.984 . S
N2299 H2303 0.985 . S
H2300 N2295 0.984 . S
H2301 N2295 0.985 . S
H2302 N2299 0.984 . S
H2303 N2299 0.985 . S
H2304 N2298 0.984 . S
H2305 N2298 0.984 . S
H2306 N2294 0.984 . S
H2307 N2294 0.985 . S
C2308 C2309 1.363 . S
C2308 C2314 1.379 . S
C2308 N2316 1.356 . S
C2309 C2308 1.363 . S
C2309 C2315 1.363 . S
C2310 C2311 1.363 . S
C2310 C2315 1.379 . S
C2310 N2317 1.356 . S
C2311 C2310 1.363 . S
C2311 C2314 1.363 . S
N2312 C2314 1.356 . S
N2312 H2324 0.984 . S
N2312 H2325 0.985 . S
N2313 C2315 1.356 . S
N2313 H2318 0.984 . S
N2313 H2319 0.985 . S
C2314 C2308 1.379 . S
C2314 C2311 1.363 . S
C2314 N2312 1.356 . S
C2315 C2309 1.363 . S
C2315 C2310 1.379 . S
C2315 N2313 1.356 . S
N2316 C2308 1.356 . S
N2316 H2322 0.984 . S
N2316 H2323 0.984 . S
N2317 C2310 1.356 . S
N2317 H2320 0.984 . S
N2317 H2321 0.985 . S
H2318 N2313 0.984 . S
H2319 N2313 0.985 . S
H2320 N2317 0.984 . S
H2321 N2317 0.985 . S
H2322 N2316 0.984 . S
H2323 N2316 0.984 . S
H2324 N2312 0.984 . S
H2325 N2312 0.985 . S
C2326 C2327 1.363 . S
C2326 C2332 1.379 . S
C2326 N2334 1.356 . S
C2327 C2326 1.363 . S
C2327 C2333 1.363 . S
C2328 C2329 1.363 . S
C2328 C2333 1.379 . S
C2328 N2335 1.356 . S
C2329 C2328 1.363 . S
C2329 C2332 1.363 . S
N2330 C2332 1.356 . S
N2330 H2342 0.984 . S
N2330 H2343 0.985 . S
N2331 C2333 1.356 . S
N2331 H2336 0.984 . S
N2331 H2337 0.985 . S
C2332 C2326 1.379 . S
C2332 C2329 1.363 . S
C2332 N2330 1.356 . S
C2333 C2327 1.363 . S
C2333 C2328 1.379 . S
C2333 N2331 1.356 . S
N2334 C2326 1.356 . S
N2334 H2340 0.984 . S
N2334 H2341 0.984 . S
N2335 C2328 1.356 . S
N2335 H2338 0.984 . S
N2335 H2339 0.985 . S
H2336 N2331 0.984 . S
H2337 N2331 0.985 . S
H2338 N2335 0.984 . S
H2339 N2335 0.985 . S
H2340 N2334 0.984 . S
H2341 N2334 0.984 . S
H2342 N2330 0.984 . S
H2343 N2330 0.985 . S
C2344 C2345 1.363 . S
C2344 C2350 1.396 . S
C2344 N2352 1.356 . S
C2345 C2344 1.363 . S
C2345 C2351 1.363 . S
C2346 C2347 1.363 . S
C2346 C2351 1.379 . S
C2346 N2353 1.356 . S
C2347 C2346 1.363 . S
C2347 C2350 1.371 . S
N2348 C2350 1.330 1_554 S
N2348 H2360 0.984 . S
N2348 H2361 0.985 . S
N2349 C2351 1.356 . S
N2349 H2354 0.984 . S
N2349 H2355 0.985 . S
C2350 C2344 1.396 . S
C2350 C2347 1.371 . S
C2350 N2348 1.330 1_556 S
C2351 C2345 1.363 . S
C2351 C2346 1.379 . S
C2351 N2349 1.356 . S
N2352 C2344 1.356 . S
N2352 H2358 0.984 1_556 S
N2352 H2359 0.984 . S
N2353 C2346 1.356 . S
N2353 H2356 0.984 . S
N2353 H2357 0.985 . S
H2354 N2349 0.984 . S
H2355 N2349 0.985 . S
H2356 N2353 0.984 . S
H2357 N2353 0.985 . S
H2358 N2352 0.984 1_554 S
H2359 N2352 0.984 . S
H2360 N2348 0.984 . S
H2361 N2348 0.985 . S
C2362 C2363 1.363 . S
C2362 C2368 1.379 . S
C2362 N2370 1.356 . S
C2363 C2362 1.363 . S
C2363 C2369 1.363 . S
C2364 C2365 1.363 . S
C2364 C2369 1.379 . S
C2364 N2371 1.356 . S
C2365 C2364 1.363 . S
C2365 C2368 1.363 . S
N2366 C2368 1.356 . S
N2366 H2378 0.984 . S
N2366 H2379 0.985 . S
N2367 C2369 1.356 . S
N2367 H2372 0.984 . S
N2367 H2373 0.985 . S
C2368 C2362 1.379 . S
C2368 C2365 1.363 . S
C2368 N2366 1.356 . S
C2369 C2363 1.363 . S
C2369 C2364 1.379 . S
C2369 N2367 1.356 . S
N2370 C2362 1.356 . S
N2370 H2376 0.984 . S
N2370 H2377 0.984 . S
N2371 C2364 1.356 . S
N2371 H2374 0.984 . S
N2371 H2375 0.985 . S
H2372 N2367 0.984 . S
H2373 N2367 0.985 . S
H2374 N2371 0.984 . S
H2375 N2371 0.985 . S
H2376 N2370 0.984 . S
H2377 N2370 0.984 . S
H2378 N2366 0.984 . S
H2379 N2366 0.985 . S
C2380 C2381 1.363 . S
C2380 C2386 1.379 . S
C2380 N2388 1.356 . S
C2381 C2380 1.363 . S
C2381 C2387 1.363 . S
C2382 C2383 1.363 . S
C2382 C2387 1.379 . S
C2382 N2389 1.356 . S
C2383 C2382 1.363 . S
C2383 C2386 1.363 . S
N2384 C2386 1.356 . S
N2384 H2396 0.984 . S
N2384 H2397 0.985 . S
N2385 C2387 1.356 . S
N2385 H2390 0.984 . S
N2385 H2391 0.985 . S
C2386 C2380 1.379 . S
C2386 C2383 1.363 . S
C2386 N2384 1.356 . S
C2387 C2381 1.363 . S
C2387 C2382 1.379 . S
C2387 N2385 1.356 . S
N2388 C2380 1.356 . S
N2388 H2394 0.984 . S
N2388 H2395 0.984 . S
N2389 C2382 1.356 . S
N2389 H2392 0.984 . S
N2389 H2393 0.985 . S
H2390 N2385 0.984 . S
H2391 N2385 0.985 . S
H2392 N2389 0.984 . S
H2393 N2389 0.985 . S
H2394 N2388 0.984 . S
H2395 N2388 0.984 . S
H2396 N2384 0.984 . S
H2397 N2384 0.985 . S
C2398 C2399 1.363 . S
C2398 C2404 1.379 . S
C2398 N2406 1.356 . S
C2399 C2398 1.363 . S
C2399 C2405 1.363 . S
C2400 C2401 1.363 . S
C2400 C2405 1.379 . S
C2400 N2407 1.356 . S
C2401 C2400 1.363 . S
C2401 C2404 1.363 . S
N2402 C2404 1.356 . S
N2402 H2414 0.984 . S
N2402 H2415 0.985 . S
N2403 C2405 1.356 . S
N2403 H2408 0.984 . S
N2403 H2409 0.985 . S
C2404 C2398 1.379 . S
C2404 C2401 1.363 . S
C2404 N2402 1.356 . S
C2405 C2399 1.363 . S
C2405 C2400 1.379 . S
C2405 N2403 1.356 . S
N2406 C2398 1.356 . S
N2406 H2412 0.984 . S
N2406 H2413 0.984 . S
N2407 C2400 1.356 . S
N2407 H2410 0.984 . S
N2407 H2411 0.985 . S
H2408 N2403 0.984 . S
H2409 N2403 0.985 . S
H2410 N2407 0.984 . S
H2411 N2407 0.985 . S
H2412 N2406 0.984 . S
H2413 N2406 0.984 . S
H2414 N2402 0.984 . S
H2415 N2402 0.985 . S
C2416 C2417 1.363 . S
C2416 C2422 1.379 . S
C2416 N2424 1.356 . S
C2417 C2416 1.363 . S
C2417 C2423 1.363 . S
C2418 C2419 1.363 . S
C2418 C2423 1.379 . S
C2418 N2425 1.356 . S
C2419 C2418 1.363 . S
C2419 C2422 1.363 . S
N2420 C2422 1.356 . S
N2420 H2432 0.984 . S
N2420 H2433 0.985 . S
N2421 C2423 1.356 . S
N2421 H2426 0.984 . S
N2421 H2427 0.985 . S
C2422 C2416 1.379 . S
C2422 C2419 1.363 . S
C2422 N2420 1.356 . S
C2423 C2417 1.363 . S
C2423 C2418 1.379 . S
C2423 N2421 1.356 . S
N2424 C2416 1.356 . S
N2424 H2430 0.984 . S
N2424 H2431 0.984 . S
N2425 C2418 1.356 . S
N2425 H2428 0.984 . S
N2425 H2429 0.985 . S
H2426 N2421 0.984 . S
H2427 N2421 0.985 . S
H2428 N2425 0.984 . S
H2429 N2425 0.985 . S
H2430 N2424 0.984 . S
H2431 N2424 0.984 . S
H2432 N2420 0.984 . S
H2433 N2420 0.985 . S
C2434 C2435 1.363 . S
C2434 C2440 1.379 . S
C2434 N2442 1.356 . S
C2435 C2434 1.363 . S
C2435 C2441 1.363 . S
C2436 C2437 1.363 . S
C2436 C2441 1.379 . S
C2436 N2443 1.356 . S
C2437 C2436 1.363 . S
C2437 C2440 1.363 . S
N2438 C2440 1.356 . S
N2438 H2450 0.984 . S
N2438 H2451 0.985 . S
N2439 C2441 1.356 . S
N2439 H2444 0.984 . S
N2439 H2445 0.985 . S
C2440 C2434 1.379 . S
C2440 C2437 1.363 . S
C2440 N2438 1.356 . S
C2441 C2435 1.363 . S
C2441 C2436 1.379 . S
C2441 N2439 1.356 . S
N2442 C2434 1.356 . S
N2442 H2448 0.984 . S
N2442 H2449 0.984 . S
N2443 C2436 1.356 . S
N2443 H2446 0.984 . S
N2443 H2447 0.985 . S
H2444 N2439 0.984 . S
H2445 N2439 0.985 . S
H2446 N2443 0.984 . S
H2447 N2443 0.985 . S
H2448 N2442 0.984 . S
H2449 N2442 0.984 . S
H2450 N2438 0.984 . S
H2451 N2438 0.985 . S
C2452 C2453 1.363 1_455 S
C2452 C2458 1.379 . S
C2452 N2460 1.356 . S
C2453 C2452 1.363 1_655 S
C2453 C2459 1.363 . S
C2454 C2455 1.363 . S
C2454 C2459 1.379 1_455 S
C2454 N2461 1.356 . S
C2455 C2454 1.363 . S
C2455 C2458 1.363 . S
N2456 C2458 1.356 . S
N2456 H2468 0.984 . S
N2456 H2469 0.985 . S
N2457 C2459 1.356 . S
N2457 H2462 0.984 . S
N2457 H2463 0.985 . S
C2458 C2452 1.379 . S
C2458 C2455 1.363 . S
C2458 N2456 1.356 . S
C2459 C2453 1.363 . S
C2459 C2454 1.379 1_655 S
C2459 N2457 1.356 . S
N2460 C2452 1.356 . S
N2460 H2466 0.984 . S
N2460 H2467 0.984 . S
N2461 C2454 1.356 . S
N2461 H2464 0.990 1_556 S
N2461 H2465 0.980 1_455 S
H2462 N2457 0.984 . S
H2463 N2457 0.985 . S
H2464 N2461 0.990 1_554 S
H2465 N2461 0.980 1_655 S
H2466 N2460 0.984 . S
H2467 N2460 0.984 . S
H2468 N2456 0.984 . S
H2469 N2456 0.985 . S
C2470 C2471 1.363 . S
C2470 C2476 1.379 . S
C2470 N2478 1.356 . S
C2471 C2470 1.363 . S
C2471 C2477 1.363 . S
C2472 C2473 1.363 . S
C2472 C2477 1.379 . S
C2472 N2479 1.356 . S
C2473 C2472 1.363 . S
C2473 C2476 1.363 . S
N2474 C2476 1.356 . S
N2474 H2486 0.984 . S
N2474 H2487 0.985 . S
N2475 C2477 1.356 . S
N2475 H2480 0.984 . S
N2475 H2481 0.985 . S
C2476 C2470 1.379 . S
C2476 C2473 1.363 . S
C2476 N2474 1.356 . S
C2477 C2471 1.363 . S
C2477 C2472 1.379 . S
C2477 N2475 1.356 . S
N2478 C2470 1.356 . S
N2478 H2484 0.984 . S
N2478 H2485 0.984 . S
N2479 C2472 1.356 . S
N2479 H2482 0.984 . S
N2479 H2483 0.985 . S
H2480 N2475 0.984 . S
H2481 N2475 0.985 . S
H2482 N2479 0.984 . S
H2483 N2479 0.985 . S
H2484 N2478 0.984 . S
H2485 N2478 0.984 . S
H2486 N2474 0.984 . S
H2487 N2474 0.985 . S
C2488 C2489 1.363 . S
C2488 C2494 1.379 . S
C2488 N2496 1.356 . S
C2489 C2488 1.363 . S
C2489 C2495 1.363 . S
C2490 C2491 1.363 . S
C2490 C2495 1.379 . S
C2490 N2497 1.356 . S
C2491 C2490 1.363 . S
C2491 C2494 1.363 . S
N2492 C2494 1.356 . S
N2492 H2504 0.984 . S
N2492 H2505 0.985 . S
N2493 C2495 1.356 . S
N2493 H2498 0.984 . S
N2493 H2499 0.985 . S
C2494 C2488 1.379 . S
C2494 C2491 1.363 . S
C2494 N2492 1.356 . S
C2495 C2489 1.363 . S
C2495 C2490 1.379 . S
C2495 N2493 1.356 . S
N2496 C2488 1.356 . S
N2496 H2502 0.984 . S
N2496 H2503 0.984 . S
N2497 C2490 1.356 . S
N2497 H2500 0.984 . S
N2497 H2501 0.985 . S
H2498 N2493 0.984 . S
H2499 N2493 0.985 . S
H2500 N2497 0.984 . S
H2501 N2497 0.985 . S
H2502 N2496 0.984 . S
H2503 N2496 0.984 . S
H2504 N2492 0.984 . S
H2505 N2492 0.985 . S
C2506 C2507 1.363 . S
C2506 C2512 1.379 . S
C2506 N2514 1.356 . S
C2507 C2506 1.363 . S
C2507 C2513 1.363 . S
C2508 C2509 1.363 . S
C2508 C2513 1.379 . S
C2508 N2515 1.356 . S
C2509 C2508 1.363 . S
C2509 C2512 1.363 . S
N2510 C2512 1.356 . S
N2510 H2522 0.984 . S
N2510 H2523 0.985 . S
N2511 C2513 1.356 . S
N2511 H2516 0.984 . S
N2511 H2517 0.985 . S
C2512 C2506 1.379 . S
C2512 C2509 1.363 . S
C2512 N2510 1.356 . S
C2513 C2507 1.363 . S
C2513 C2508 1.379 . S
C2513 N2511 1.356 . S
N2514 C2506 1.356 . S
N2514 H2520 0.984 . S
N2514 H2521 0.984 . S
N2515 C2508 1.356 . S
N2515 H2518 0.984 . S
N2515 H2519 0.985 . S
H2516 N2511 0.984 . S
H2517 N2511 0.985 . S
H2518 N2515 0.984 . S
H2519 N2515 0.985 . S
H2520 N2514 0.984 . S
H2521 N2514 0.984 . S
H2522 N2510 0.984 . S
H2523 N2510 0.985 . S
C2524 C2525 1.363 . S
C2524 C2530 1.379 . S
C2524 N2532 1.356 . S
C2525 C2524 1.363 . S
C2525 C2531 1.360 . S
C2526 C2527 1.368 . S
C2526 C2531 1.380 1_455 S
C2526 N2533 1.356 . S
C2527 C2526 1.368 . S
C2527 C2530 1.356 1_455 S
N2528 C2530 1.356 . S
N2528 H2540 0.984 . S
N2528 H2541 0.985 . S
N2529 C2531 1.357 1_455 S
N2529 H2534 0.984 1_455 S
N2529 H2535 0.985 . S
C2530 C2524 1.379 . S
C2530 C2527 1.356 1_655 S
C2530 N2528 1.356 . S
C2531 C2525 1.360 . S
C2531 C2526 1.380 1_655 S
C2531 N2529 1.357 1_655 S
N2532 C2524 1.356 . S
N2532 H2538 0.984 . S
N2532 H2539 0.984 . S
N2533 C2526 1.356 . S
N2533 H2536 0.984 . S
N2533 H2537 0.985 . S
H2534 N2529 0.984 1_655 S
H2535 N2529 0.985 . S
H2536 N2533 0.984 . S
H2537 N2533 0.985 . S
H2538 N2532 0.984 . S
H2539 N2532 0.984 . S
H2540 N2528 0.984 . S
H2541 N2528 0.985 . S
C2542 C2543 1.363 . S
C2542 C2548 1.379 . S
C2542 N2550 1.356 . S
C2543 C2542 1.363 . S
C2543 C2549 1.363 . S
C2544 C2545 1.363 . S
C2544 C2549 1.379 . S
C2544 N2551 1.356 . S
C2545 C2544 1.363 . S
C2545 C2548 1.363 . S
N2546 C2548 1.356 . S
N2546 H2558 0.984 . S
N2546 H2559 0.985 . S
N2547 C2549 1.356 . S
N2547 H2552 0.984 . S
N2547 H2553 0.985 . S
C2548 C2542 1.379 . S
C2548 C2545 1.363 . S
C2548 N2546 1.356 . S
C2549 C2543 1.363 . S
C2549 C2544 1.379 . S
C2549 N2547 1.356 . S
N2550 C2542 1.356 . S
N2550 H2556 0.984 . S
N2550 H2557 0.984 . S
N2551 C2544 1.356 . S
N2551 H2554 0.984 . S
N2551 H2555 0.985 . S
H2552 N2547 0.984 . S
H2553 N2547 0.985 . S
H2554 N2551 0.984 . S
H2555 N2551 0.985 . S
H2556 N2550 0.984 . S
H2557 N2550 0.984 . S
H2558 N2546 0.984 . S
H2559 N2546 0.985 . S
C2560 C2561 1.363 . S
C2560 C2566 1.379 . S
C2560 N2568 1.356 . S
C2561 C2560 1.363 . S
C2561 C2567 1.363 . S
C2562 C2563 1.363 . S
C2562 C2567 1.379 . S
C2562 N2569 1.356 . S
C2563 C2562 1.363 . S
C2563 C2566 1.363 . S
N2564 C2566 1.356 . S
N2564 H2576 0.984 . S
N2564 H2577 0.985 . S
N2565 C2567 1.356 . S
N2565 H2570 0.984 . S
N2565 H2571 0.985 . S
C2566 C2560 1.379 . S
C2566 C2563 1.363 . S
C2566 N2564 1.356 . S
C2567 C2561 1.363 . S
C2567 C2562 1.379 . S
C2567 N2565 1.356 . S
N2568 C2560 1.356 . S
N2568 H2574 0.984 . S
N2568 H2575 0.984 . S
N2569 C2562 1.356 . S
N2569 H2572 0.984 . S
N2569 H2573 0.985 . S
H2570 N2565 0.984 . S
H2571 N2565 0.985 . S
H2572 N2569 0.984 . S
H2573 N2569 0.985 . S
H2574 N2568 0.984 . S
H2575 N2568 0.984 . S
H2576 N2564 0.984 . S
H2577 N2564 0.985 . S
C2578 C2579 1.363 . S
C2578 C2584 1.374 1_565 S
C2578 N2586 1.356 . S
C2579 C2578 1.363 . S
C2579 C2585 1.363 . S
C2580 C2581 1.363 . S
C2580 C2585 1.379 . S
C2580 N2587 1.356 . S
C2581 C2580 1.363 . S
C2581 C2584 1.359 1_565 S
N2582 C2584 1.365 . S
N2582 H2594 0.984 . S
N2582 H2595 0.985 . S
N2583 C2585 1.356 . S
N2583 H2588 0.984 . S
N2583 H2589 0.985 . S
C2584 C2578 1.374 1_545 S
C2584 C2581 1.359 1_545 S
C2584 N2582 1.365 . S
C2585 C2579 1.363 . S
C2585 C2580 1.379 . S
C2585 N2583 1.356 . S
N2586 C2578 1.356 . S
N2586 H2592 0.984 . S
N2586 H2593 0.984 . S
N2587 C2580 1.356 . S
N2587 H2590 0.984 . S
N2587 H2591 0.985 . S
H2588 N2583 0.984 . S
H2589 N2583 0.985 . S
H2590 N2587 0.984 . S
H2591 N2587 0.985 . S
H2592 N2586 0.984 . S
H2593 N2586 0.984 . S
H2594 N2582 0.984 . S
H2595 N2582 0.985 . S
C2596 C2597 1.363 . S
C2596 C2602 1.379 . S
C2596 N2604 1.356 . S
C2597 C2596 1.363 . S
C2597 C2603 1.363 . S
C2598 C2599 1.363 . S
C2598 C2603 1.379 . S
C2598 N2605 1.356 . S
C2599 C2598 1.363 . S
C2599 C2602 1.363 . S
N2600 C2602 1.356 . S
N2600 H2612 0.984 . S
N2600 H2613 0.985 . S
N2601 C2603 1.356 . S
N2601 H2606 0.984 . S
N2601 H2607 0.985 . S
C2602 C2596 1.379 . S
C2602 C2599 1.363 . S
C2602 N2600 1.356 . S
C2603 C2597 1.363 . S
C2603 C2598 1.379 . S
C2603 N2601 1.356 . S
N2604 C2596 1.356 . S
N2604 H2610 0.984 . S
N2604 H2611 0.984 . S
N2605 C2598 1.356 . S
N2605 H2608 0.984 . S
N2605 H2609 0.985 . S
H2606 N2601 0.984 . S
H2607 N2601 0.985 . S
H2608 N2605 0.984 . S
H2609 N2605 0.985 . S
H2610 N2604 0.984 . S
H2611 N2604 0.984 . S
H2612 N2600 0.984 . S
H2613 N2600 0.985 . S
C2614 C2615 1.363 . S
C2614 C2620 1.379 . S
C2614 N2622 1.356 . S
C2615 C2614 1.363 . S
C2615 C2621 1.363 . S
C2616 C2617 1.363 . S
C2616 C2621 1.379 . S
C2616 N2623 1.356 . S
C2617 C2616 1.363 . S
C2617 C2620 1.363 . S
N2618 C2620 1.356 . S
N2618 H2630 0.984 . S
N2618 H2631 0.985 . S
N2619 C2621 1.356 . S
N2619 H2624 0.984 . S
N2619 H2625 0.985 . S
C2620 C2614 1.379 . S
C2620 C2617 1.363 . S
C2620 N2618 1.356 . S
C2621 C2615 1.363 . S
C2621 C2616 1.379 . S
C2621 N2619 1.356 . S
N2622 C2614 1.356 . S
N2622 H2628 0.984 . S
N2622 H2629 0.984 . S
N2623 C2616 1.356 . S
N2623 H2626 0.984 . S
N2623 H2627 0.985 . S
H2624 N2619 0.984 . S
H2625 N2619 0.985 . S
H2626 N2623 0.984 . S
H2627 N2623 0.985 . S
H2628 N2622 0.984 . S
H2629 N2622 0.984 . S
H2630 N2618 0.984 . S
H2631 N2618 0.985 . S
C2632 C2633 1.363 . S
C2632 C2638 1.379 . S
C2632 N2640 1.356 . S
C2633 C2632 1.363 . S
C2633 C2639 1.363 . S
C2634 C2635 1.363 . S
C2634 C2639 1.379 . S
C2634 N2641 1.356 . S
C2635 C2634 1.363 . S
C2635 C2638 1.363 . S
N2636 C2638 1.356 . S
N2636 H2648 0.984 . S
N2636 H2649 0.985 . S
N2637 C2639 1.356 . S
N2637 H2642 0.984 . S
N2637 H2643 0.985 . S
C2638 C2632 1.379 . S
C2638 C2635 1.363 . S
C2638 N2636 1.356 . S
C2639 C2633 1.363 . S
C2639 C2634 1.379 . S
C2639 N2637 1.356 . S
N2640 C2632 1.356 . S
N2640 H2646 0.984 . S
N2640 H2647 0.984 . S
N2641 C2634 1.356 . S
N2641 H2644 0.984 . S
N2641 H2645 0.985 . S
H2642 N2637 0.984 . S
H2643 N2637 0.985 . S
H2644 N2641 0.984 . S
H2645 N2641 0.985 . S
H2646 N2640 0.984 . S
H2647 N2640 0.984 . S
H2648 N2636 0.984 . S
H2649 N2636 0.985 . S
C2650 C2651 1.363 . S
C2650 C2656 1.379 1_554 S
C2650 N2658 1.356 . S
C2651 C2650 1.363 . S
C2651 C2657 1.363 . S
C2652 C2653 1.363 . S
C2652 C2657 1.379 . S
C2652 N2659 1.356 . S
C2653 C2652 1.363 . S
C2653 C2656 1.363 1_554 S
N2654 C2656 1.356 . S
N2654 H2666 0.984 . S
N2654 H2667 0.985 . S
N2655 C2657 1.356 . S
N2655 H2660 0.984 . S
N2655 H2661 0.985 . S
C2656 C2650 1.379 1_556 S
C2656 C2653 1.363 1_556 S
C2656 N2654 1.356 . S
C2657 C2651 1.363 . S
C2657 C2652 1.379 . S
C2657 N2655 1.356 . S
N2658 C2650 1.356 . S
N2658 H2664 0.984 1_554 S
N2658 H2665 0.984 . S
N2659 C2652 1.356 . S
N2659 H2662 0.984 . S
N2659 H2663 0.985 . S
H2660 N2655 0.984 . S
H2661 N2655 0.985 . S
H2662 N2659 0.984 . S
H2663 N2659 0.985 . S
H2664 N2658 0.984 1_556 S
H2665 N2658 0.984 . S
H2666 N2654 0.984 . S
H2667 N2654 0.985 . S
C2668 C2669 1.363 . S
C2668 C2674 1.379 . S
C2668 N2676 1.356 . S
C2669 C2668 1.363 . S
C2669 C2675 1.363 . S
C2670 C2671 1.363 . S
C2670 C2675 1.379 . S
C2670 N2677 1.356 . S
C2671 C2670 1.363 . S
C2671 C2674 1.363 . S
N2672 C2674 1.356 . S
N2672 H2684 0.984 . S
N2672 H2685 0.985 . S
N2673 C2675 1.356 . S
N2673 H2678 0.984 . S
N2673 H2679 0.985 . S
C2674 C2668 1.379 . S
C2674 C2671 1.363 . S
C2674 N2672 1.356 . S
C2675 C2669 1.363 . S
C2675 C2670 1.379 . S
C2675 N2673 1.356 . S
N2676 C2668 1.356 . S
N2676 H2682 0.984 . S
N2676 H2683 0.984 . S
N2677 C2670 1.356 . S
N2677 H2680 0.984 . S
N2677 H2681 0.985 . S
H2678 N2673 0.984 . S
H2679 N2673 0.985 . S
H2680 N2677 0.984 . S
H2681 N2677 0.985 . S
H2682 N2676 0.984 . S
H2683 N2676 0.984 . S
H2684 N2672 0.984 . S
H2685 N2672 0.985 . S
C2686 C2687 1.363 . S
C2686 C2692 1.379 . S
C2686 N2694 1.356 . S
C2687 C2686 1.363 . S
C2687 C2693 1.363 . S
C2688 C2689 1.363 . S
C2688 C2693 1.379 . S
C2688 N2695 1.356 . S
C2689 C2688 1.363 . S
C2689 C2692 1.363 . S
N2690 C2692 1.356 . S
N2690 H2702 0.984 . S
N2690 H2703 0.985 . S
N2691 C2693 1.356 . S
N2691 H2696 0.984 . S
N2691 H2697 0.985 . S
C2692 C2686 1.379 . S
C2692 C2689 1.363 . S
C2692 N2690 1.356 . S
C2693 C2687 1.363 . S
C2693 C2688 1.379 . S
C2693 N2691 1.356 . S
N2694 C2686 1.356 . S
N2694 H2700 0.984 . S
N2694 H2701 0.984 . S
N2695 C2688 1.356 . S
N2695 H2698 0.984 . S
N2695 H2699 0.985 . S
H2696 N2691 0.984 . S
H2697 N2691 0.985 . S
H2698 N2695 0.984 . S
H2699 N2695 0.985 . S
H2700 N2694 0.984 . S
H2701 N2694 0.984 . S
H2702 N2690 0.984 . S
H2703 N2690 0.985 . S
C977 C111 2.416 1_455 S
C979 C367 2.374 . S
C995 C64 1.935 . S
C997 C378 2.044 . S
C1013 C77 1.757 . S
C1015 C447 1.721 . S
C1033 C460 1.040 . S
C1031 C95 1.065 . S
C1049 C25 2.362 . S
C1051 C516 2.339 1_565 S
C1069 C567 2.324 . S
C1067 C36 2.347 . S
C1087 C596 2.395 . S
C1085 C50 2.305 . S
C1103 C11 2.532 . S
C1105 C647 2.463 . S
C1123 C338 1.513 . S
C1121 C237 1.416 1_545 S
C1139 C245 1.175 . S
C1141 C380 1.106 . S
C1159 C418 0.964 . S
C1157 C279 0.929 . S
C1177 C487 1.825 . S
C1175 C175 1.798 . S
C1193 C231 0.659 . S
C1195 C521 0.664 . S
C1213 C538 1.350 . S
C1211 C251 1.255 . S
C1231 C601 0.507 . S
C1229 C273 0.501 . S
C1249 C618 2.121 . S
C1247 C181 2.149 . S
C1267 C340 2.030 . S
C1265 C165 2.295 1_544 S
C1283 C288 1.645 . S
C1285 C679 1.632 . S
C1303 C700 1.815 . S
C1301 C333 2.033 . S
C1321 C759 0.617 . S
C1319 C316 0.650 . S
C1337 C123 1.392 . S
C1339 C620 1.271 . S
C1355 C137 1.525 . S
C1357 C420 1.426 . S
C1373 C330 1.043 . S
C1375 C778 1.228 . S
C1393 C847 0.995 . S
C1391 C302 0.994 . S
C1411 C356 2.477 . S
C1409 C63 2.477 . S
C1429 C839 2.048 . S
C1427 C106 2.050 . S
C1445 C97 1.751 . S
C1447 C436 1.792 . S
C1463 C81 1.095 . S
C1465 C801 1.090 . S
C1483 C527 2.484 . S
C1481 C13 2.413 . S
C1499 C55 2.125 . S
C1501 C716 2.298 . S
C1519 C607 2.360 1_566 S
C1517 C35 2.349 . S
C1537 C876 2.620 . S
C1535 C21 2.684 1_655 S
C1555 C359 1.572 . S
C1553 C147 1.546 . S
C1573 C841 1.117 . S
C1571 C321 1.092 . S
C1589 C119 1.015 . S
C1591 C439 1.001 . S
C1607 C293 1.889 . S
C1609 C796 1.965 . S
C1625 C153 0.738 . S
C1627 C500 0.733 . S
C1645 C719 1.403 . S
C1643 C315 1.395 . S
C1661 C125 0.567 . S
C1663 C580 0.546 . S
C1679 C287 2.297 . S
C1681 C879 2.227 . S
C1697 C193 2.134 . S
C1699 C361 2.031 1_554 S
C1715 C176 1.684 . S
C1717 C658 1.626 . S
C1733 C263 1.844 . S
C1735 C561 1.801 . S
C1751 C246 0.754 . S
C1753 C738 0.754 . S
C1771 C881 1.250 . S
C1769 C277 1.260 . S
C1787 C221 1.435 . S
C1789 C441 1.409 . S
C1807 C479 1.251 . S
C1805 C260 1.231 . S
C1825 C396 1.038 . S
C1823 C204 1.075 . S
C1841 C83 2.414 . S
C1843 C927 2.377 . S
C1861 C818 2.044 . S
C1859 C92 1.935 . S
C1877 C105 1.756 . S
C1879 C967 1.722 . S
C1895 C67 1.066 . S
C1897 C780 1.040 . S
C1913 C53 2.362 . S
C1915 C676 2.339 . S
C1933 C727 2.324 . S
C1931 C8 2.347 1_655 S
C1951 C756 2.395 . S
C1949 C22 2.305 . S
C1969 C887 2.462 . S
C1967 C39 2.532 . S
C1987 C898 1.513 . S
C1985 C265 1.418 . S
C2003 C189 1.175 . S
C2005 C820 1.105 . S
C2023 C938 0.964 . S
C2021 C209 0.929 . S
C2041 C807 1.825 . S
C2039 C217 1.798 . S
C2059 C681 0.664 . S
C2057 C259 0.659 . S
C2075 C195 1.256 . S
C2077 C698 1.350 . S
C2095 C761 0.507 . S
C2093 C203 0.501 . S
C2111 C223 2.149 . S
C2113 C858 2.121 . S
C2131 C900 2.029 . S
C2129 C319 2.294 . S
C2147 C134 1.645 . S
C2149 C519 1.632 . S
C2167 C540 1.815 1_545 S
C2165 C151 2.033 . S
C2185 C599 0.617 . S
C2183 C162 0.667 . S
C2203 C860 1.271 . S
C2201 C305 1.392 . S
C2219 C291 1.526 . S
C2221 C940 1.426 . S
C2239 C458 1.228 . S
C2237 C148 1.043 . S
C2257 C407 0.995 . S
C2255 C120 0.994 . S
C2273 C91 2.477 . S
C2275 C916 2.477 . S
C2293 C399 2.047 . S
C2291 C78 2.046 . S
C2309 C69 1.751 . S
C2311 C956 1.792 . S
C2327 C109 1.094 . S
C2329 C481 1.086 . S
C2345 C41 2.413 . S
C2347 C687 2.484 1_556 S
C2365 C556 2.298 . S
C2363 C27 2.125 . S
C2381 C7 2.349 . S
C2383 C767 2.360 . S
C2399 C49 2.683 . S
C2401 C636 2.620 . S
C2419 C919 1.572 . S
C2417 C329 1.546 . S
C2435 C167 1.092 . S
C2437 C401 1.117 . S
C2455 C959 1.002 . S
C2453 C301 1.015 . S
C2471 C139 1.889 . S
C2473 C476 1.965 . S
C2489 C335 0.737 . S
C2491 C660 0.733 . S
C2509 C559 1.403 . S
C2507 C161 1.395 . S
C2525 C307 0.567 . S
C2527 C740 0.549 . S
C2545 C639 2.227 . S
C2543 C133 2.297 . S
C2563 C921 2.031 . S
C2561 C249 2.135 . S
C2581 C498 1.626 1_565 S
C2579 C218 1.684 . S
C2597 C235 1.843 . S
C2599 C721 1.798 . S
C2617 C578 0.754 . S
C2615 C190 0.754 . S
C2633 C207 1.260 . S
C2635 C641 1.250 . S
C2651 C179 1.435 . S
C2653 C961 1.409 . S
C2671 C799 1.252 . S
C2669 C232 1.234 . S
C2689 C836 1.038 . S
C2687 C274 1.076 . S
