# Generated by pormake.
# Topology gar, (4,6)-cn, num edge types: 1
# Building blocks:
#     Node 0, Type 0, BuildingBlock: GALJAG_clean_sbu_0, # of connection points: 4
#     Node 1, Type 0, BuildingBlock: GALJAG_clean_sbu_0, # of connection points: 4
#     Node 2, Type 0, BuildingBlock: GALJAG_clean_sbu_0, # of connection points: 4
#     Node 3, Type 0, BuildingBlock: GALJAG_clean_sbu_0, # of connection points: 4
#     Node 4, Type 0, BuildingBlock: GALJAG_clean_sbu_0, # of connection points: 4
#     Node 5, Type 0, BuildingBlock: GALJAG_clean_sbu_0, # of connection points: 4
#     Node 6, Type 0, BuildingBlock: GALJAG_clean_sbu_0, # of connection points: 4
#     Node 7, Type 0, BuildingBlock: GALJAG_clean_sbu_0, # of connection points: 4
#     Node 8, Type 0, BuildingBlock: GALJAG_clean_sbu_0, # of connection points: 4
#     Node 9, Type 0, BuildingBlock: GALJAG_clean_sbu_0, # of connection points: 4
#     Node 10, Type 0, BuildingBlock: GALJAG_clean_sbu_0, # of connection points: 4
#     Node 11, Type 0, BuildingBlock: GALJAG_clean_sbu_0, # of connection points: 4
#     Node 12, Type 0, BuildingBlock: GALJAG_clean_sbu_0, # of connection points: 4
#     Node 13, Type 0, BuildingBlock: GALJAG_clean_sbu_0, # of connection points: 4
#     Node 14, Type 0, BuildingBlock: GALJAG_clean_sbu_0, # of connection points: 4
#     Node 15, Type 0, BuildingBlock: GALJAG_clean_sbu_0, # of connection points: 4
#     Node 16, Type 0, BuildingBlock: GALJAG_clean_sbu_0, # of connection points: 4
#     Node 17, Type 0, BuildingBlock: GALJAG_clean_sbu_0, # of connection points: 4
#     Node 18, Type 0, BuildingBlock: GALJAG_clean_sbu_0, # of connection points: 4
#     Node 19, Type 0, BuildingBlock: GALJAG_clean_sbu_0, # of connection points: 4
#     Node 20, Type 0, BuildingBlock: GALJAG_clean_sbu_0, # of connection points: 4
#     Node 21, Type 0, BuildingBlock: GALJAG_clean_sbu_0, # of connection points: 4
#     Node 22, Type 0, BuildingBlock: GALJAG_clean_sbu_0, # of connection points: 4
#     Node 23, Type 0, BuildingBlock: GALJAG_clean_sbu_0, # of connection points: 4
#     Node 24, Type 1, BuildingBlock: KUMBOL_clean_sbu_0, # of connection points: 6
#     Node 25, Type 1, BuildingBlock: KUMBOL_clean_sbu_0, # of connection points: 6
#     Node 26, Type 1, BuildingBlock: KUMBOL_clean_sbu_0, # of connection points: 6
#     Node 27, Type 1, BuildingBlock: KUMBOL_clean_sbu_0, # of connection points: 6
#     Node 28, Type 1, BuildingBlock: KUMBOL_clean_sbu_0, # of connection points: 6
#     Node 29, Type 1, BuildingBlock: KUMBOL_clean_sbu_0, # of connection points: 6
#     Node 30, Type 1, BuildingBlock: KUMBOL_clean_sbu_0, # of connection points: 6
#     Node 31, Type 1, BuildingBlock: KUMBOL_clean_sbu_0, # of connection points: 6
#     Node 32, Type 1, BuildingBlock: KUMBOL_clean_sbu_0, # of connection points: 6
#     Node 33, Type 1, BuildingBlock: KUMBOL_clean_sbu_0, # of connection points: 6
#     Node 34, Type 1, BuildingBlock: KUMBOL_clean_sbu_0, # of connection points: 6
#     Node 35, Type 1, BuildingBlock: KUMBOL_clean_sbu_0, # of connection points: 6
#     Node 36, Type 1, BuildingBlock: KUMBOL_clean_sbu_0, # of connection points: 6
#     Node 37, Type 1, BuildingBlock: KUMBOL_clean_sbu_0, # of connection points: 6
#     Node 38, Type 1, BuildingBlock: KUMBOL_clean_sbu_0, # of connection points: 6
#     Node 39, Type 1, BuildingBlock: KUMBOL_clean_sbu_0, # of connection points: 6
#     Edge 40, Type (0, 1), BuildingBlock: EZIPEK_clean_linker_0, # of connection points: 2
#     Edge 41, Type (0, 1), BuildingBlock: EZIPEK_clean_linker_0, # of connection points: 2
#     Edge 42, Type (0, 1), BuildingBlock: EZIPEK_clean_linker_0, # of connection points: 2
#     Edge 43, Type (0, 1), BuildingBlock: EZIPEK_clean_linker_0, # of connection points: 2
#     Edge 44, Type (0, 1), BuildingBlock: EZIPEK_clean_linker_0, # of connection points: 2
#     Edge 45, Type (0, 1), BuildingBlock: EZIPEK_clean_linker_0, # of connection points: 2
#     Edge 46, Type (0, 1), BuildingBlock: EZIPEK_clean_linker_0, # of connection points: 2
#     Edge 47, Type (0, 1), BuildingBlock: EZIPEK_clean_linker_0, # of connection points: 2
#     Edge 48, Type (0, 1), BuildingBlock: EZIPEK_clean_linker_0, # of connection points: 2
#     Edge 49, Type (0, 1), BuildingBlock: EZIPEK_clean_linker_0, # of connection points: 2
#     Edge 50, Type (0, 1), BuildingBlock: EZIPEK_clean_linker_0, # of connection points: 2
#     Edge 51, Type (0, 1), BuildingBlock: EZIPEK_clean_linker_0, # of connection points: 2
#     Edge 52, Type (0, 1), BuildingBlock: EZIPEK_clean_linker_0, # of connection points: 2
#     Edge 53, Type (0, 1), BuildingBlock: EZIPEK_clean_linker_0, # of connection points: 2
#     Edge 54, Type (0, 1), BuildingBlock: EZIPEK_clean_linker_0, # of connection points: 2
#     Edge 55, Type (0, 1), BuildingBlock: EZIPEK_clean_linker_0, # of connection points: 2
#     Edge 56, Type (0, 1), BuildingBlock: EZIPEK_clean_linker_0, # of connection points: 2
#     Edge 57, Type (0, 1), BuildingBlock: EZIPEK_clean_linker_0, # of connection points: 2
#     Edge 58, Type (0, 1), BuildingBlock: EZIPEK_clean_linker_0, # of connection points: 2
#     Edge 59, Type (0, 1), BuildingBlock: EZIPEK_clean_linker_0, # of connection points: 2
#     Edge 60, Type (0, 1), BuildingBlock: EZIPEK_clean_linker_0, # of connection points: 2
#     Edge 61, Type (0, 1), BuildingBlock: EZIPEK_clean_linker_0, # of connection points: 2
#     Edge 62, Type (0, 1), BuildingBlock: EZIPEK_clean_linker_0, # of connection points: 2
#     Edge 63, Type (0, 1), BuildingBlock: EZIPEK_clean_linker_0, # of connection points: 2
#     Edge 64, Type (0, 1), BuildingBlock: EZIPEK_clean_linker_0, # of connection points: 2
#     Edge 65, Type (0, 1), BuildingBlock: EZIPEK_clean_linker_0, # of connection points: 2
#     Edge 66, Type (0, 1), BuildingBlock: EZIPEK_clean_linker_0, # of connection points: 2
#     Edge 67, Type (0, 1), BuildingBlock: EZIPEK_clean_linker_0, # of connection points: 2
#     Edge 68, Type (0, 1), BuildingBlock: EZIPEK_clean_linker_0, # of connection points: 2
#     Edge 69, Type (0, 1), BuildingBlock: EZIPEK_clean_linker_0, # of connection points: 2
#     Edge 70, Type (0, 1), BuildingBlock: EZIPEK_clean_linker_0, # of connection points: 2
#     Edge 71, Type (0, 1), BuildingBlock: EZIPEK_clean_linker_0, # of connection points: 2
#     Edge 72, Type (0, 1), BuildingBlock: EZIPEK_clean_linker_0, # of connection points: 2
#     Edge 73, Type (0, 1), BuildingBlock: EZIPEK_clean_linker_0, # of connection points: 2
#     Edge 74, Type (0, 1), BuildingBlock: EZIPEK_clean_linker_0, # of connection points: 2
#     Edge 75, Type (0, 1), BuildingBlock: EZIPEK_clean_linker_0, # of connection points: 2
#     Edge 76, Type (0, 1), BuildingBlock: EZIPEK_clean_linker_0, # of connection points: 2
#     Edge 77, Type (0, 1), BuildingBlock: EZIPEK_clean_linker_0, # of connection points: 2
#     Edge 78, Type (0, 1), BuildingBlock: EZIPEK_clean_linker_0, # of connection points: 2
#     Edge 79, Type (0, 1), BuildingBlock: EZIPEK_clean_linker_0, # of connection points: 2
#     Edge 80, Type (0, 1), BuildingBlock: EZIPEK_clean_linker_0, # of connection points: 2
#     Edge 81, Type (0, 1), BuildingBlock: EZIPEK_clean_linker_0, # of connection points: 2
#     Edge 82, Type (0, 1), BuildingBlock: EZIPEK_clean_linker_0, # of connection points: 2
#     Edge 83, Type (0, 1), BuildingBlock: EZIPEK_clean_linker_0, # of connection points: 2
#     Edge 84, Type (0, 1), BuildingBlock: EZIPEK_clean_linker_0, # of connection points: 2
#     Edge 85, Type (0, 1), BuildingBlock: EZIPEK_clean_linker_0, # of connection points: 2
#     Edge 86, Type (0, 1), BuildingBlock: EZIPEK_clean_linker_0, # of connection points: 2
#     Edge 87, Type (0, 1), BuildingBlock: EZIPEK_clean_linker_0, # of connection points: 2
#     Edge 88, Type (0, 1), BuildingBlock: EZIPEK_clean_linker_0, # of connection points: 2
#     Edge 89, Type (0, 1), BuildingBlock: EZIPEK_clean_linker_0, # of connection points: 2
#     Edge 90, Type (0, 1), BuildingBlock: EZIPEK_clean_linker_0, # of connection points: 2
#     Edge 91, Type (0, 1), BuildingBlock: EZIPEK_clean_linker_0, # of connection points: 2
#     Edge 92, Type (0, 1), BuildingBlock: EZIPEK_clean_linker_0, # of connection points: 2
#     Edge 93, Type (0, 1), BuildingBlock: EZIPEK_clean_linker_0, # of connection points: 2
#     Edge 94, Type (0, 1), BuildingBlock: EZIPEK_clean_linker_0, # of connection points: 2
#     Edge 95, Type (0, 1), BuildingBlock: EZIPEK_clean_linker_0, # of connection points: 2
#     Edge 96, Type (0, 1), BuildingBlock: EZIPEK_clean_linker_0, # of connection points: 2
#     Edge 97, Type (0, 1), BuildingBlock: EZIPEK_clean_linker_0, # of connection points: 2
#     Edge 98, Type (0, 1), BuildingBlock: EZIPEK_clean_linker_0, # of connection points: 2
#     Edge 99, Type (0, 1), BuildingBlock: EZIPEK_clean_linker_0, # of connection points: 2
#     Edge 100, Type (0, 1), BuildingBlock: EZIPEK_clean_linker_0, # of connection points: 2
#     Edge 101, Type (0, 1), BuildingBlock: EZIPEK_clean_linker_0, # of connection points: 2
#     Edge 102, Type (0, 1), BuildingBlock: EZIPEK_clean_linker_0, # of connection points: 2
#     Edge 103, Type (0, 1), BuildingBlock: EZIPEK_clean_linker_0, # of connection points: 2
#     Edge 104, Type (0, 1), BuildingBlock: EZIPEK_clean_linker_0, # of connection points: 2
#     Edge 105, Type (0, 1), BuildingBlock: EZIPEK_clean_linker_0, # of connection points: 2
#     Edge 106, Type (0, 1), BuildingBlock: EZIPEK_clean_linker_0, # of connection points: 2
#     Edge 107, Type (0, 1), BuildingBlock: EZIPEK_clean_linker_0, # of connection points: 2
#     Edge 108, Type (0, 1), BuildingBlock: EZIPEK_clean_linker_0, # of connection points: 2
#     Edge 109, Type (0, 1), BuildingBlock: EZIPEK_clean_linker_0, # of connection points: 2
#     Edge 110, Type (0, 1), BuildingBlock: EZIPEK_clean_linker_0, # of connection points: 2
#     Edge 111, Type (0, 1), BuildingBlock: EZIPEK_clean_linker_0, # of connection points: 2
#     Edge 112, Type (0, 1), BuildingBlock: EZIPEK_clean_linker_0, # of connection points: 2
#     Edge 113, Type (0, 1), BuildingBlock: EZIPEK_clean_linker_0, # of connection points: 2
#     Edge 114, Type (0, 1), BuildingBlock: EZIPEK_clean_linker_0, # of connection points: 2
#     Edge 115, Type (0, 1), BuildingBlock: EZIPEK_clean_linker_0, # of connection points: 2
#     Edge 116, Type (0, 1), BuildingBlock: EZIPEK_clean_linker_0, # of connection points: 2
#     Edge 117, Type (0, 1), BuildingBlock: EZIPEK_clean_linker_0, # of connection points: 2
#     Edge 118, Type (0, 1), BuildingBlock: EZIPEK_clean_linker_0, # of connection points: 2
#     Edge 119, Type (0, 1), BuildingBlock: EZIPEK_clean_linker_0, # of connection points: 2
#     Edge 120, Type (0, 1), BuildingBlock: EZIPEK_clean_linker_0, # of connection points: 2
#     Edge 121, Type (0, 1), BuildingBlock: EZIPEK_clean_linker_0, # of connection points: 2
#     Edge 122, Type (0, 1), BuildingBlock: EZIPEK_clean_linker_0, # of connection points: 2
#     Edge 123, Type (0, 1), BuildingBlock: EZIPEK_clean_linker_0, # of connection points: 2
#     Edge 124, Type (0, 1), BuildingBlock: EZIPEK_clean_linker_0, # of connection points: 2
#     Edge 125, Type (0, 1), BuildingBlock: EZIPEK_clean_linker_0, # of connection points: 2
#     Edge 126, Type (0, 1), BuildingBlock: EZIPEK_clean_linker_0, # of connection points: 2
#     Edge 127, Type (0, 1), BuildingBlock: EZIPEK_clean_linker_0, # of connection points: 2
#     Edge 128, Type (0, 1), BuildingBlock: EZIPEK_clean_linker_0, # of connection points: 2
#     Edge 129, Type (0, 1), BuildingBlock: EZIPEK_clean_linker_0, # of connection points: 2
#     Edge 130, Type (0, 1), BuildingBlock: EZIPEK_clean_linker_0, # of connection points: 2
#     Edge 131, Type (0, 1), BuildingBlock: EZIPEK_clean_linker_0, # of connection points: 2
#     Edge 132, Type (0, 1), BuildingBlock: EZIPEK_clean_linker_0, # of connection points: 2
#     Edge 133, Type (0, 1), BuildingBlock: EZIPEK_clean_linker_0, # of connection points: 2
#     Edge 134, Type (0, 1), BuildingBlock: EZIPEK_clean_linker_0, # of connection points: 2
#     Edge 135, Type (0, 1), BuildingBlock: EZIPEK_clean_linker_0, # of connection points: 2
# Relax obj value: 0.157
# Max RMSD: 0.347
# Mean RMSD: 0.173
data_MOF--net-gar--node1-GALJAG_clean_sbu_0--node2-KUMBOL_clean_sbu_0--edge1-EZIPEK_clean_linker_0
_symmetry_space_group_name_H-M    P1
_symmetry_Int_Tables_number       1
_symmetry_cell_setting            triclinic
loop_
_symmetry_equiv_pos_as_xyz
'x, y, z'
_cell_length_a     47.069683
_cell_length_b     41.511396
_cell_length_c     41.632519
_cell_angle_alpha  100.75649
_cell_angle_beta   94.272222
_cell_angle_gamma 101.72825
loop_
_atom_site_label
_atom_site_type_symbol
_atom_site_fract_x
_atom_site_fract_y
_atom_site_fract_z
_atom_type_partial_charge
In0 In 0.14589 0.33885 0.39346 0.0
O1 O 0.1609 0.32695 0.34302 0.0
O2 O 0.19324 0.34428 0.38446 0.0
C3 C 0.09873 0.34379 0.35703 0.0
C4 C 0.1455 0.28701 0.42447 0.0
C5 C 0.14427 0.39628 0.43551 0.0
O6 O 0.12293 0.36424 0.35989 0.0
O7 O 0.09813 0.31967 0.37179 0.0
O8 O 0.12821 0.36797 0.43544 0.0
O9 O 0.16309 0.39487 0.41556 0.0
C10 C 0.18763 0.33502 0.35355 0.0
O11 O 0.1604 0.31636 0.43615 0.0
O12 O 0.13049 0.28426 0.39722 0.0
In13 In 0.01439 0.76989 0.67388 0.0
O14 O 1.00415 0.78961 0.62802 0.0
O15 O 0.0371 0.8207 0.6654 0.0
C16 C 1.00735 0.70723 0.63778 0.0
C17 C 0.06739 0.7769 0.70568 0.0
C18 C 0.96981 0.77219 0.71052 0.0
O19 O 1.00715 0.73245 0.62517 0.0
O20 O 1.00785 0.71296 0.66857 0.0
O21 O 0.9895 0.75693 0.716 0.0
O22 O 0.97247 0.78666 0.68649 0.0
C23 C 0.02394 0.81614 0.63678 0.0
O24 O 0.0485 0.79107 0.7187 0.0
O25 O 0.06007 0.76103 0.67646 0.0
In26 In 0.64843 0.8487 0.88577 0.0
O27 O 0.67643 0.8265 0.84953 0.0
O28 O 0.69171 0.87731 0.87468 0.0
C29 C 0.59697 0.84114 0.85072 0.0
C30 C 0.64274 0.79862 0.91902 0.0
C31 C 0.64571 0.90739 0.92261 0.0
O32 O 0.62084 0.84972 0.83952 0.0
O33 O 0.5989 0.83378 0.87864 0.0
O34 O 0.65853 0.88737 0.93429 0.0
O35 O 0.63722 0.89915 0.89225 0.0
C36 C 0.69583 0.85315 0.85372 0.0
O37 O 0.64962 0.8292 0.93328 0.0
O38 O 0.64139 0.7933 0.88805 0.0
In39 In 0.51261 0.2675 0.1754 0.0
O40 O 0.49848 0.23383 0.12479 0.0
O41 O 0.50543 0.21067 0.16471 0.0
C42 C 0.52978 0.31916 0.14593 0.0
C43 C 0.46668 0.26857 0.21002 0.0
C44 C 0.56484 0.26612 0.20451 0.0
O45 O 0.51356 0.29161 0.13102 0.0
O46 O 0.53528 0.322 0.17664 0.0
O47 O 0.54748 0.28133 0.21954 0.0
O48 O 0.55638 0.25295 0.17468 0.0
C49 C 0.50007 0.20691 0.13395 0.0
O50 O 0.48778 0.25643 0.21825 0.0
O51 O 0.46886 0.28093 0.18461 0.0
In52 In 0.13151 0.8301 0.12584 0.0
O53 O 0.13267 0.78236 0.08347 0.0
O54 O 0.11487 0.77334 0.12656 0.0
C55 C 0.12571 0.88834 0.09979 0.0
C56 C 0.08178 0.82568 0.15527 0.0
C57 C 0.18433 0.83784 0.16551 0.0
O58 O 0.12271 0.85915 0.08199 0.0
O59 O 0.13382 0.88845 0.12947 0.0
O60 O 0.16076 0.8424 0.1762 0.0
O61 O 0.1823 0.83172 0.13428 0.0
C62 C 0.12106 0.76027 0.09893 0.0
O63 O 0.10689 0.83208 0.17116 0.0
O64 O 0.08173 0.82241 0.12449 0.0
In65 In 0.53228 0.78122 0.45136 0.0
O66 O 0.55505 0.77253 0.40433 0.0
O67 O 0.5811 0.8009 0.44835 0.0
C68 C 0.47719 0.77587 0.41807 0.0
C69 C 0.53792 0.72311 0.47741 0.0
C70 C 0.54223 0.84927 0.48147 0.0
O71 O 0.49948 0.7724 0.4038 0.0
O72 O 0.48181 0.77875 0.44893 0.0
O73 O 0.54508 0.82675 0.49763 0.0
O74 O 0.53424 0.83734 0.45134 0.0
C75 C 0.58005 0.78913 0.41788 0.0
O76 O 0.52584 0.74587 0.49138 0.0
O77 O 0.54629 0.72949 0.45075 0.0
In78 In 0.63286 0.33149 0.62526 0.0
O79 O 0.63394 0.28349 0.58336 0.0
O80 O 0.6178 0.27506 0.62747 0.0
C81 C 0.62816 0.38909 0.59767 0.0
C82 C 0.58325 0.3271 0.65544 0.0
C83 C 0.68599 0.33928 0.66402 0.0
O84 O 0.62203 0.35913 0.58099 0.0
O85 O 0.63848 0.38996 0.62683 0.0
O86 O 0.66273 0.34448 0.67518 0.0
O87 O 0.6834 0.33231 0.63278 0.0
C88 C 0.6233 0.26167 0.5996 0.0
O89 O 0.60854 0.33646 0.67109 0.0
O90 O 0.58287 0.32123 0.62452 0.0
In91 In 0.03288 0.27988 0.95071 0.0
O92 O 0.02648 0.24517 0.99131 0.0
O93 O 0.04535 0.22734 0.94983 0.0
C94 C 0.04298 0.34802 0.98084 0.0
C95 C 0.0811 0.28959 0.91766 0.0
C96 C 0.97813 0.27476 0.91648 0.0
O97 O 0.04751 0.32572 0.99657 0.0
O98 O 0.033 0.33572 0.95123 0.0
O99 O 0.99986 0.26746 0.90302 0.0
O100 O 0.98286 0.28124 0.9476 0.0
C101 C 0.03763 0.22171 0.97701 0.0
O102 O 0.05604 0.27404 0.90348 0.0
O103 O 0.08201 0.29933 0.94841 0.0
In104 In 0.43913 0.06073 0.33326 0.0
O105 O 0.47506 0.07259 0.30151 0.0
O106 O 0.44536 0.02461 0.28833 0.0
C107 C 0.47914 0.07765 0.38545 0.0
C108 C 0.40318 0.09793 0.31821 0.0
C109 C 0.40541 1.00096 0.33133 0.0
O110 O 0.48307 0.06232 0.35779 0.0
O111 O 0.45469 0.08561 0.38725 0.0
O112 O 0.40612 1.01535 0.30733 0.0
O113 O 0.42114 1.01725 0.35748 0.0
C114 C 0.46789 0.04379 0.28269 0.0
O115 O 0.39808 0.07918 0.33853 0.0
O116 O 0.42888 0.10298 0.31051 0.0
In117 In 0.30278 0.21527 0.52227 0.0
O118 O 0.30156 0.26133 0.56455 0.0
O119 O 0.31003 0.21705 0.5775 0.0
C120 C 0.31033 0.23482 0.46328 0.0
C121 C 0.34972 0.18868 0.52905 0.0
C122 C 0.24798 0.17646 0.51304 0.0
O123 O 0.31105 0.25597 0.48979 0.0
O124 O 0.3052 0.20477 0.46673 0.0
O125 O 0.27047 0.16471 0.50967 0.0
O126 O 0.25275 0.20818 0.52001 0.0
C127 C 0.30669 0.24639 0.5876 0.0
O128 O 0.32382 0.17187 0.52656 0.0
O129 O 0.35221 0.2192 0.52716 0.0
In130 In 0.204 0.02925 0.78207 0.0
O131 O 0.15987 1.02049 0.74144 0.0
O132 O 0.19886 0.03504 0.72374 0.0
C133 C 0.17402 0.03304 0.84424 0.0
C134 C 0.2372 0.97296 0.78028 0.0
C135 C 0.23837 0.09715 0.78799 0.0
O136 O 0.16282 1.01613 0.81572 0.0
O137 O 0.19998 0.04753 0.84151 0.0
O138 O 0.24875 0.07095 0.78461 0.0
O139 O 0.21108 0.0894 0.78919 0.0
C140 C 0.17133 0.02849 0.71642 0.0
O141 O 0.2468 1.00402 0.79288 0.0
O142 O 0.21084 0.96976 0.76807 0.0
In143 In 0.36171 0.9604 0.02987 0.0
O144 O 0.36799 0.92535 0.06327 0.0
O145 O 0.35966 0.97254 0.08532 0.0
C146 C 0.35691 0.91746 0.97339 0.0
C147 C 0.31315 0.9829 0.02799 0.0
C148 C 0.4146 0.99764 0.03043 0.0
O149 O 0.35083 0.90772 0.99946 0.0
O150 O 0.36433 0.94875 0.9755 0.0
O151 O 0.39199 1.00886 0.026 0.0
O152 O 0.41051 0.968 0.03511 0.0
C153 C 0.3648 0.94482 0.08918 0.0
O154 O 0.33816 1.00203 0.03209 0.0
O155 O 0.31229 0.95179 0.02318 0.0
In156 In 0.35713 0.40171 0.04785 0.0
O157 O 0.35337 0.35863 0.07766 0.0
O158 O 0.34394 0.40457 0.10028 0.0
C159 C 0.35195 0.36848 0.98324 0.0
C160 C 0.3124 0.43296 0.04084 0.0
C161 C 0.41421 0.43687 0.05792 0.0
O162 O 0.34166 0.35413 1.00546 0.0
O163 O 0.36565 0.39846 0.9939 0.0
O164 O 0.39288 0.45039 0.05383 0.0
O165 O 0.40684 0.40585 0.05819 0.0
C166 C 0.34502 0.375 0.10263 0.0
O167 O 0.33742 0.44857 0.05493 0.0
O168 O 0.3098 0.40176 0.03103 0.0
In169 In 0.81148 0.14753 0.05858 0.0
O170 O 0.83067 0.10195 0.04093 0.0
O171 O 0.85783 0.14372 0.0739 0.0
C172 C 0.75417 0.12232 0.05587 0.0
C173 C 0.81385 0.19712 0.1097 0.0
C174 C 0.80934 0.17896 1.00856 0.0
O175 O 0.77089 0.12668 0.08222 0.0
O176 O 0.76667 0.12654 0.03094 0.0
O177 O 0.82478 0.19259 0.03566 0.0
O178 O 0.79811 0.14811 1.00533 0.0
C179 C 0.8558 0.1155 0.05563 0.0
O180 O 0.81752 0.20172 0.08112 0.0
O181 O 0.8108 0.16699 0.11325 0.0
In182 In 0.24513 0.56298 0.23366 0.0
O183 O 0.2879 0.55016 0.21941 0.0
O184 O 0.25295 0.51103 0.22398 0.0
C185 C 0.26901 0.62822 0.24963 0.0
C186 C 0.20039 0.54612 0.18784 0.0
C187 C 0.22006 0.56529 0.28911 0.0
O188 O 0.27408 0.60791 0.26716 0.0
O189 O 0.25419 0.6152 0.22198 0.0
O190 O 0.20837 0.5702 0.26293 0.0
O191 O 0.24459 0.55755 0.28758 0.0
C192 C 0.2792 0.51927 0.21897 0.0
O193 O 0.20142 0.53168 0.21179 0.0
O194 O 0.22282 0.56803 0.18573 0.0
In195 In 0.85823 0.89548 0.54921 0.0
O196 O 0.85773 0.85129 0.57659 0.0
O197 O 0.843 0.89345 0.60041 0.0
C198 C 0.85283 0.86249 0.48447 0.0
C199 C 0.81511 0.92933 0.54549 0.0
C200 C 0.91426 0.93282 0.55819 0.0
O201 O 0.84008 0.84917 0.50604 0.0
O202 O 0.86896 0.89115 0.49583 0.0
O203 O 0.89242 0.94413 0.55036 0.0
O204 O 0.9079 0.90318 0.56313 0.0
C205 C 0.84748 0.86479 0.60166 0.0
O206 O 0.83827 0.94105 0.56508 0.0
O207 O 0.81332 0.9002 0.52877 0.0
In208 In 0.959 0.08511 0.28572 0.0
O209 O 1.00149 0.09428 0.25348 0.0
O210 O 0.96248 0.06945 0.22589 0.0
C211 C 0.99386 0.08199 0.34898 0.0
C212 C 0.92731 0.14313 0.28679 0.0
C213 C 0.92229 1.01867 0.2817 0.0
O214 O 1.00451 0.09251 0.32452 0.0
O215 O 0.9663 0.07485 0.3422 0.0
O216 O 0.91829 0.04571 0.29868 0.0
O217 O 0.94385 0.02485 0.26562 0.0
C218 C 0.98946 0.08056 0.22428 0.0
O219 O 0.91935 0.11356 0.2693 0.0
O220 O 0.95114 0.14408 0.30407 0.0
In221 In 0.30824 0.64625 0.55577 0.0
O222 O 0.3275 0.59938 0.55212 0.0
O223 O 0.35647 0.64664 0.55573 0.0
C224 C 0.25083 0.61951 0.55089 0.0
C225 C 0.31028 0.69606 0.60684 0.0
C226 C 0.30472 0.67297 0.50297 0.0
O227 O 0.26456 0.62146 0.52635 0.0
O228 O 0.26653 0.62685 0.57831 0.0
O229 O 0.31775 0.68993 0.53037 0.0
O230 O 0.29596 0.64186 0.50149 0.0
C231 C 0.3533 0.61532 0.5519 0.0
O232 O 0.30972 0.69978 0.57756 0.0
O233 O 0.31162 0.66696 0.61116 0.0
In234 In 0.45829 0.58771 0.78602 0.0
O235 O 0.41787 0.61543 0.7705 0.0
O236 O 0.45121 0.64729 0.80247 0.0
C237 C 0.42265 0.52067 0.77975 0.0
C238 C 0.48901 0.58403 0.7248 0.0
C239 C 0.49135 0.58327 0.85042 0.0
O240 O 0.41559 0.5473 0.79362 0.0
O241 O 0.44648 0.52776 0.76771 0.0
O242 O 0.50276 0.59124 0.82529 0.0
O243 O 0.46394 0.57983 0.84395 0.0
C244 C 0.4266 0.64564 0.78633 0.0
O245 O 0.50083 0.59794 0.75404 0.0
O246 O 0.46207 0.5725 0.72621 0.0
In247 In 0.74355 0.06207 0.73165 0.0
O248 O 0.78361 0.04308 0.71604 0.0
O249 O 0.75151 1.0121 0.73692 0.0
C250 C 0.77331 0.12516 0.74649 0.0
C251 C 0.70005 0.04338 0.68363 0.0
C252 C 0.71341 0.07412 0.78258 0.0
O253 O 0.77415 0.10508 0.76559 0.0
O254 O 0.76002 0.11248 0.71799 0.0
O255 O 0.70575 0.07809 0.75434 0.0
O256 O 0.73628 0.06296 0.78568 0.0
C257 C 0.77591 1.01607 0.72595 0.0
O258 O 0.70053 0.02967 0.70815 0.0
O259 O 0.72304 0.0644 0.68142 0.0
In260 In 0.80271 0.70936 0.02386 0.0
O261 O 0.82113 0.66378 0.02851 0.0
O262 O 0.85139 0.70961 0.02879 0.0
C263 C 0.74735 0.67159 0.01355 0.0
C264 C 0.80598 0.74069 0.08876 0.0
C265 C 0.81377 0.7337 0.96789 0.0
O266 O 0.76917 0.66027 1.00496 0.0
O267 O 0.75305 0.7027 0.02612 0.0
O268 O 0.8215 0.75153 0.99659 0.0
O269 O 0.79916 0.70461 0.96753 0.0
C270 C 0.84748 0.67922 0.03128 0.0
O271 O 0.79909 0.75459 0.06551 0.0
O272 O 0.81103 0.71204 0.07909 0.0
In273 In 0.93855 0.5605 0.82704 0.0
O274 O 0.89559 0.5713 0.83845 0.0
O275 O 0.91719 0.59591 0.80343 0.0
C276 C 0.90852 0.49962 0.82756 0.0
C277 C 0.96917 0.54887 0.77695 0.0
C278 C 0.9786 0.58111 0.87922 0.0
O279 O 0.91029 0.51154 0.802 0.0
O280 O 0.92218 0.51842 0.8539 0.0
O281 O 0.97604 0.55399 0.85869 0.0
O282 O 0.96055 0.59883 0.87374 0.0
C283 C 0.89387 0.58769 0.81612 0.0
O284 O 0.97644 0.57581 0.79854 0.0
O285 O 0.94535 0.52982 0.77915 0.0
In286 In 0.85368 0.45907 0.53266 0.0
O287 O 0.8382 0.42626 0.56803 0.0
O288 O 0.86677 0.4734 0.58783 0.0
C289 C 0.84921 0.4125 0.47879 0.0
C290 C 0.80852 0.48834 0.52973 0.0
C291 C 0.90875 0.48619 0.52768 0.0
O292 O 0.84814 0.40486 0.50672 0.0
O293 O 0.85132 0.44313 0.4781 0.0
O294 O 0.88829 0.50067 0.52205 0.0
O295 O 0.90153 0.45851 0.53652 0.0
C296 C 0.85178 0.4467 0.59349 0.0
O297 O 0.83405 0.50467 0.54105 0.0
O298 O 0.80599 0.45751 0.51814 0.0
In299 In 0.7047 0.52786 0.28406 0.0
O300 O 0.74743 0.50209 0.29386 0.0
O301 O 0.71049 0.46797 0.27139 0.0
C302 C 0.73925 0.59564 0.28966 0.0
C303 C 0.67251 0.52645 0.21787 0.0
C304 C 0.67523 0.53235 0.34658 0.0
O305 O 0.74916 0.56915 0.28405 0.0
O306 O 0.71243 0.58827 0.29349 0.0
O307 O 0.6633 0.51681 0.31785 0.0
O308 O 0.70165 0.54514 0.34389 0.0
C309 C 0.73715 0.47093 0.28231 0.0
O310 O 0.66065 0.51857 0.24272 0.0
O311 O 0.69996 0.53352 0.22589 0.0
Gd312 Gd 0.11364 0.08196 0.05644 0.0
Gd313 Gd 0.0503 0.02805 1.01327 0.0
C314 C 0.04158 0.92014 0.0298 0.0
C315 C 0.05209 0.891 0.97755 0.0
C316 C 0.05203 0.95076 0.98628 0.0
C317 C 0.04556 0.95064 0.0183 0.0
C318 C 0.05342 0.92031 0.96509 0.0
C319 C 0.0464 0.89099 1.00994 0.0
C320 C 0.03098 0.91905 0.06005 0.0
C321 C 0.02266 0.94705 0.07707 0.0
N322 N 0.04 0.97902 0.03678 0.0
C323 C 0.02669 0.97656 0.06481 0.0
H324 H 0.01822 0.99641 0.07827 0.0
C325 C 0.05043 0.97741 0.94106 0.0
N326 N 0.05308 0.97933 0.97453 0.0
C327 C 0.05113 0.94775 0.91922 0.0
C328 C 0.05376 0.91939 0.93141 0.0
H329 H 0.04859 0.99905 0.93079 0.0
H330 H 0.04393 0.8677 0.01873 0.0
H331 H 0.11438 0.11018 0.9834 0.0
H332 H 0.02765 0.89617 0.06961 0.0
H333 H 1.01291 0.94592 0.0997 0.0
H334 H 0.05375 0.86769 0.96177 0.0
H335 H 0.12049 0.10583 0.1395 0.0
H336 H 0.12925 0.21657 1.00545 0.0
H337 H 0.12337 0.16317 0.96532 0.0
H338 H 0.12782 0.24419 0.12164 0.0
H339 H 0.04995 0.94695 0.893 0.0
H340 H 0.05435 0.8964 0.91439 0.0
H341 H 0.13057 0.24631 0.06342 0.0
H342 H 0.11941 0.15567 0.18144 0.0
N343 N 0.1171 0.13175 0.0346 0.0
C344 C 0.12594 0.19306 0.0139 0.0
C345 C 0.12279 0.16305 0.99124 0.0
C346 C 0.12439 0.19239 0.04712 0.0
C347 C 0.1199 0.16103 0.05695 0.0
C348 C 0.11831 0.13268 1.00197 0.0
N349 N 0.11584 0.12976 0.09903 0.0
C350 C 0.11848 0.15991 0.08987 0.0
C351 C 0.11945 0.15741 0.15588 0.0
C352 C 0.12084 0.18822 0.14674 0.0
C353 C 0.11877 0.12885 0.13188 0.0
C354 C 0.1214 0.18998 0.1136 0.0
H355 H 0.12245 0.21062 0.16556 0.0
O356 O 0.15459 0.11076 0.08484 0.0
O357 O 0.09293 0.02644 0.03997 0.0
O358 O 0.03689 0.04571 0.06655 0.0
O359 O 0.07942 0.0798 0.09536 0.0
O360 O 0.11065 0.04242 0.0883 0.0
O361 O 0.15398 0.06532 0.04856 0.0
O362 O 0.02557 0.03354 0.96941 0.0
O363 O 0.07629 0.08131 0.01957 0.0
O364 O 0.12858 0.06594 1.00441 0.0
O365 O 0.08602 0.03288 0.97483 0.0
O366 O 0.03302 0.07581 0.02613 0.0
O367 O 1.00468 1.00266 1.00141 0.0
C368 C 0.09843 1.01577 0.06636 0.0
C369 C 0.12548 0.22095 0.10375 0.0
C370 C 0.12717 0.22216 0.07063 0.0
C371 C 0.16934 0.09033 0.07065 0.0
C372 C 0.20086 0.09525 0.07881 0.0
C373 C 0.21712 0.124 0.10107 0.0
C374 C 0.21479 0.07045 0.06467 0.0
C375 C 0.2446 0.07393 0.07283 0.0
C376 C 0.24715 0.1276 0.10901 0.0
C377 C 0.26093 0.10247 0.09507 0.0
C378 C 0.05134 0.06479 0.09517 0.0
C379 C 0.05624 0.09788 0.02472 0.0
C380 C 1.00143 1.01508 0.97515 0.0
C381 C 0.97506 0.02773 0.9698 0.0
C382 C 0.96308 0.02536 0.93735 0.0
C383 C 0.96179 0.04214 0.99625 0.0
C384 C 0.93655 0.05395 0.98999 0.0
C385 C 0.93796 0.03722 0.93123 0.0
C386 C 0.92471 0.05148 0.95744 0.0
C387 C 0.11461 0.0474 0.97562 0.0
H388 H 0.20669 0.14354 0.11234 0.0
H389 H 0.20247 0.048 0.04769 0.0
H390 H 0.25967 0.14972 0.12612 0.0
H391 H 0.28411 0.10512 0.10165 0.0
H392 H 0.9732 1.01435 0.91675 0.0
H393 H 0.97101 0.04438 0.02143 0.0
H394 H 0.92879 0.0354 0.90616 0.0
H395 H 0.90525 0.06075 0.95241 0.0
Gd396 Gd 0.31411 0.83353 0.33716 0.0
Gd397 Gd 0.34366 0.79511 0.26372 0.0
C398 C 0.29639 0.6949 0.19403 0.0
C399 C 0.33605 0.66616 0.18621 0.0
C400 C 0.34382 0.72002 0.22481 0.0
C401 C 0.31538 0.72183 0.21665 0.0
C402 C 0.35454 0.69221 0.20944 0.0
C403 C 0.30697 0.6674 0.17866 0.0
C404 C 0.2671 0.69586 0.18795 0.0
C405 C 0.25704 0.72239 0.20521 0.0
N406 N 0.30593 0.74903 0.23183 0.0
C407 C 0.27652 0.74825 0.22737 0.0
H408 H 0.26693 0.76612 0.24208 0.0
C409 C 0.38992 0.7449 0.25482 0.0
N410 N 0.36111 0.74538 0.24767 0.0
C411 C 0.40147 0.71805 0.24025 0.0
C412 C 0.38369 0.6915 0.2175 0.0
H413 H 0.40461 0.76544 0.2717 0.0
H414 H 0.29274 0.6468 0.16112 0.0
H415 H 0.38536 0.86237 0.37417 0.0
H416 H 0.25188 0.67563 0.17102 0.0
H417 H 0.23403 0.72257 0.20218 0.0
H418 H 0.34398 0.6448 0.17413 0.0
H419 H 0.25033 0.85583 0.31767 0.0
H420 H 0.39647 0.96462 0.42088 0.0
H421 H 0.41513 0.9128 0.40914 0.0
H422 H 0.30654 0.99251 0.38936 0.0
H423 H 0.42425 0.71811 0.24634 0.0
H424 H 0.39274 0.67078 0.20605 0.0
H425 H 0.3561 0.99394 0.41334 0.0
H426 H 0.23019 0.90616 0.32454 0.0
N427 N 0.34807 0.8832 0.36572 0.0
C428 C 0.38272 0.94202 0.40553 0.0
C429 C 0.39327 0.91285 0.39905 0.0
C430 C 0.35467 0.94181 0.39191 0.0
C431 C 0.33762 0.91173 0.37179 0.0
C432 C 0.37567 0.88367 0.37924 0.0
N433 N 0.29362 0.88177 0.33914 0.0
C434 C 0.3098 0.91108 0.35786 0.0
C435 C 0.2528 0.90814 0.33346 0.0
C436 C 0.26969 0.93866 0.35108 0.0
C437 C 0.26478 0.87974 0.32863 0.0
C438 C 0.29823 0.94028 0.36424 0.0
H439 H 0.26014 0.96051 0.35541 0.0
O440 O 0.28197 0.8409 0.37074 0.0
O441 O 0.31811 0.78607 0.30508 0.0
O442 O 0.30518 0.81259 0.24147 0.0
O443 O 0.28629 0.8358 0.28881 0.0
O444 O 0.27754 0.788 0.32013 0.0
O445 O 0.31503 0.81445 0.3822 0.0
O446 O 0.38982 0.81487 0.26316 0.0
O447 O 0.34772 0.83982 0.3045 0.0
O448 O 0.35309 0.81286 0.35542 0.0
O449 O 0.36959 0.78518 0.30903 0.0
O450 O 0.34728 0.84864 0.25722 0.0
O451 O 0.36116 0.7971 0.21717 0.0
C452 C 0.29248 0.76908 0.30421 0.0
C453 C 0.31513 0.97 0.38424 0.0
C454 C 0.3433 0.97079 0.39796 0.0
C455 C 0.2903 0.82185 0.3891 0.0
C456 C 0.26756 0.79423 0.39453 0.0
C457 C 0.23837 0.7883 0.38022 0.0
C458 C 0.27572 0.77221 0.41294 0.0
C459 C 0.25545 0.744 0.41647 0.0
C460 C 0.21792 0.76019 0.38417 0.0
C461 C 0.22642 0.73788 0.40221 0.0
C462 C 0.2854 0.82726 0.25593 0.0
C463 C 0.35 0.86235 0.28796 0.0
C464 C 0.38755 0.81169 0.23138 0.0
C465 C 0.4034 0.84032 0.21921 0.0
C466 C 0.43396 0.84634 0.22117 0.0
C467 C 0.38851 0.86053 0.20413 0.0
C468 C 0.40376 0.8846 0.18848 0.0
C469 C 0.44939 0.87155 0.20711 0.0
C470 C 0.43436 0.89032 0.19037 0.0
C471 C 0.37121 0.79473 0.34176 0.0
H472 H 0.23143 0.805 0.36569 0.0
H473 H 0.29808 0.77674 0.42432 0.0
H474 H 0.19552 0.75567 0.37319 0.0
H475 H 0.21045 0.71634 0.40548 0.0
H476 H 0.44582 0.83109 0.23301 0.0
H477 H 0.36489 0.85601 0.20229 0.0
H478 H 0.47295 0.87585 0.20833 0.0
H479 H 0.44651 0.9088 0.17834 0.0
Gd480 Gd 0.54428 0.0548 0.56274 0.0
Gd481 Gd 0.61507 0.05516 0.53203 0.0
C482 C 0.67335 0.16004 0.54363 0.0
C483 C 0.67 0.16893 0.48765 0.0
C484 C 0.64562 0.11556 0.49958 0.0
C485 C 0.65501 0.12767 0.53284 0.0
C486 C 0.65426 0.13562 0.47654 0.0
C487 C 0.67953 0.18114 0.52117 0.0
C488 C 0.68659 0.16946 0.57617 0.0
C489 C 0.68287 0.14614 0.59646 0.0
N490 N 0.64911 0.10652 0.55398 0.0
C491 C 0.6643 0.11451 0.58483 0.0
H492 H 0.66263 0.09679 0.60088 0.0
C493 C 0.62789 0.06792 0.45669 0.0
N494 N 0.63085 0.08306 0.48945 0.0
C495 C 0.63581 0.08684 0.43303 0.0
C496 C 0.64833 0.12108 0.44295 0.0
H497 H 0.61794 0.04142 0.44865 0.0
H498 H 0.69303 0.20629 0.5292 0.0
H499 H 0.51254 0.99353 0.49904 0.0
H500 H 0.70092 0.19398 0.58531 0.0
H501 H 0.69419 0.15254 0.62118 0.0
H502 H 0.67628 0.18487 0.47034 0.0
H503 H 0.54512 0.08694 0.64223 0.0
H504 H 0.45422 0.9175 0.53313 0.0
H505 H 0.47633 0.9396 0.48729 0.0
H506 H 0.46437 0.96024 0.64972 0.0
H507 H 0.63223 0.07498 0.40717 0.0
H508 H 0.65466 0.13565 0.42456 0.0
H509 H 0.45014 0.92526 0.59392 0.0
H510 H 0.52534 0.07021 0.69144 0.0
N511 N 0.51139 1.00191 0.55048 0.0
C512 C 0.47006 0.94127 0.53826 0.0
C513 C 0.48247 0.95365 0.51236 0.0
C514 C 0.47815 0.95988 0.57048 0.0
C515 C 0.499 0.9906 0.57577 0.0
C516 C 0.503 0.98427 0.519 0.0
N517 N 0.52684 0.03963 0.61065 0.0
C518 C 0.50739 1.00984 0.60702 0.0
C519 C 0.52051 0.05269 0.66795 0.0
C520 C 0.50197 1.02115 0.665 0.0
C521 C 0.53222 0.06185 0.64019 0.0
C522 C 0.49465 0.99954 0.63409 0.0
H523 H 0.49262 1.01426 0.68643 0.0
O524 O 0.52532 0.09772 0.57904 0.0
O525 O 0.58508 0.08795 0.5513 0.0
O526 O 0.61662 0.06217 0.58674 0.0
O527 O 0.57162 0.03537 0.59868 0.0
O528 O 0.56969 0.10435 0.59474 0.0
O529 O 0.50306 0.05857 0.53805 0.0
O530 O 0.63139 1.01788 0.49957 0.0
O531 O 0.56947 0.02277 0.53119 0.0
O532 O 0.53866 0.05291 0.50866 0.0
O533 O 0.58437 0.05944 0.48967 0.0
O534 O 0.6039 1.00194 0.54002 0.0
O535 O 0.65657 0.04342 0.5468 0.0
C536 C 0.58928 0.11266 0.57593 0.0
C537 C 0.47429 0.96868 0.62921 0.0
C538 C 0.46609 0.94885 0.59744 0.0
C539 C 0.50231 0.08672 0.55748 0.0
C540 C 0.47423 0.08973 0.56935 0.0
C541 C 0.46367 0.0735 0.59416 0.0
C542 C 0.45802 0.10995 0.55603 0.0
C543 C 0.43159 0.11424 0.56775 0.0
C544 C 0.43731 0.07768 0.60577 0.0
C545 C 0.42132 0.09807 0.59271 0.0
C546 C 0.60046 0.04386 0.60405 0.0
C547 C 0.57594 0.99545 0.53624 0.0
C548 C 0.65493 1.02108 0.51968 0.0
C549 C 0.68208 1.01792 0.50522 0.0
C550 C 0.68689 0.02569 0.47439 0.0
C551 C 0.70228 1.00368 0.52125 0.0
C552 C 0.72662 0.99644 0.50614 0.0
C553 C 0.7113 1.01904 0.45961 0.0
C554 C 0.73099 1.00431 0.47525 0.0
C555 C 0.55612 0.05802 0.486 0.0
H556 H 0.47575 0.05782 0.6047 0.0
H557 H 0.46601 0.12258 0.53683 0.0
H558 H 0.42932 0.06518 0.62499 0.0
H559 H 0.40092 0.10118 0.60195 0.0
H560 H 0.6716 0.03625 0.46137 0.0
H561 H 0.69866 0.99733 0.54496 0.0
H562 H 0.71476 0.02489 0.43574 0.0
H563 H 0.74965 0.99895 0.46324 0.0
Gd564 Gd 0.36586 0.29792 0.7868 0.0
Gd565 Gd 0.2945 0.31956 0.7846 0.0
C566 C 0.24494 0.28904 0.68056 0.0
C567 C 0.25239 0.34231 0.66301 0.0
C568 C 0.27106 0.33977 0.71841 0.0
C569 C 0.26099 0.30528 0.71141 0.0
C570 C 0.26492 0.35881 0.695 0.0
C571 C 0.24246 0.30735 0.65575 0.0
C572 C 0.22995 0.25559 0.67639 0.0
C573 C 0.22941 0.24 0.70326 0.0
N574 N 0.26328 0.28846 0.73622 0.0
C575 C 0.2456 0.25714 0.73331 0.0
H576 H 0.24312 0.24496 0.75395 0.0
C577 C 0.28329 0.38843 0.7606 0.0
N578 N 0.28254 0.35496 0.74969 0.0
C579 C 0.27694 0.40829 0.73853 0.0
C580 C 0.269 0.39365 0.70525 0.0
H581 H 0.28988 0.40034 0.78619 0.0
H582 H 0.23102 0.29506 0.63164 0.0
H583 H 0.38478 0.36729 0.8466 0.0
H584 H 0.21726 0.24231 0.6532 0.0
H585 H 0.21634 0.21483 0.70096 0.0
H586 H 0.24834 0.3565 0.64444 0.0
H587 H 0.37496 0.22047 0.76083 0.0
H588 H 0.42899 0.34463 0.93005 0.0
H589 H 0.41178 0.38595 0.90212 0.0
H590 H 0.42694 0.22725 0.89607 0.0
H591 H 0.2787 0.43497 0.74712 0.0
H592 H 0.26423 0.4091 0.68815 0.0
H593 H 0.4336 0.28504 0.92797 0.0
H594 H 0.39205 0.17566 0.7832 0.0
N595 N 0.38831 0.31655 0.84172 0.0
C596 C 0.41777 0.33653 0.90526 0.0
C597 C 0.40831 0.35994 0.88951 0.0
C598 C 0.41269 0.30292 0.88875 0.0
C599 C 0.39786 0.29368 0.85652 0.0
C600 C 0.39364 0.34945 0.8576 0.0
N601 N 0.38136 0.25424 0.80715 0.0
C602 C 0.39386 0.26128 0.83879 0.0
C603 C 0.39223 0.19942 0.79929 0.0
C604 C 0.40322 0.20547 0.83247 0.0
C605 C 0.38212 0.22458 0.78679 0.0
C606 C 0.4049 0.23704 0.85247 0.0
H607 H 0.4115 0.18617 0.842 0.0
O608 O 0.39118 0.28391 0.74658 0.0
O609 O 0.32885 0.30609 0.75422 0.0
O610 O 0.28788 0.26192 0.78391 0.0
O611 O 0.33366 0.24983 0.79446 0.0
O612 O 0.34535 0.26408 0.73843 0.0
O613 O 0.41014 0.3258 0.78597 0.0
O614 O 0.28124 0.35706 0.82063 0.0
O615 O 0.33604 0.32341 0.81679 0.0
O616 O 0.37475 0.35365 0.78317 0.0
O617 O 0.33018 0.36935 0.78405 0.0
O618 O 0.29731 0.30417 0.83331 0.0
O619 O 0.24938 0.31089 0.79727 0.0
C620 C 0.32666 0.2809 0.73064 0.0
C621 C 0.41853 0.2456 0.88504 0.0
C622 C 0.42243 0.27852 0.90315 0.0
C623 C 0.41432 0.30719 0.75879 0.0
C624 C 0.44277 0.29746 0.75802 0.0
C625 C 0.45176 0.27928 0.7806 0.0
C626 C 0.46147 0.30699 0.73484 0.0
C627 C 0.48881 0.29808 0.73423 0.0
C628 C 0.47867 0.27011 0.77974 0.0
C629 C 0.49709 0.27937 0.75667 0.0
C630 C 0.3044 0.24027 0.78951 0.0
C631 C 0.32501 0.31342 0.84129 0.0
C632 C 0.2548 0.3391 0.81893 0.0
C633 C 0.23255 0.35125 0.83882 0.0
C634 C 0.23809 0.38542 0.85416 0.0
C635 C 0.20681 0.32932 0.84438 0.0
C636 C 0.18729 0.34184 0.8653 0.0
C637 C 0.21877 0.3977 0.87446 0.0
C638 C 0.19366 0.37616 0.88005 0.0
C639 C 0.35941 0.3772 0.78324 0.0
H640 H 0.43817 0.27236 0.79904 0.0
H641 H 0.45493 0.32138 0.71751 0.0
H642 H 0.48536 0.25596 0.79718 0.0
H643 H 0.51798 0.27222 0.7565 0.0
H644 H 0.25756 0.40281 0.8506 0.0
H645 H 0.20222 0.30282 0.83308 0.0
H646 H 0.22339 0.4241 0.88609 0.0
H647 H 0.17909 0.38629 0.8961 0.0
Gd648 Gd 0.09113 1.01556 0.51156 0.0
Gd649 Gd 0.07349 0.08804 0.54979 0.0
C650 C 0.10571 0.12136 0.65963 0.0
C651 C 0.06031 0.1205 0.68371 0.0
C652 C 0.05942 0.10262 0.62432 0.0
C653 C 0.08987 0.10915 0.62792 0.0
C654 C 0.04454 0.10922 0.65228 0.0
C655 C 0.09077 0.12651 0.68737 0.0
C656 C 0.13623 0.12855 0.66266 0.0
C657 C 0.15039 0.12469 0.63452 0.0
N658 N 0.10405 0.10475 0.60063 0.0
C659 C 0.13397 0.11342 0.60367 0.0
H660 H 0.14567 0.11142 0.58263 0.0
C661 C 0.01503 0.09067 0.58922 0.0
N662 N 0.04443 0.09169 0.59363 0.0
C663 C 0.99953 0.09708 0.61615 0.0
C664 C 0.01425 0.10573 0.64786 0.0
H665 H 1.00326 0.08442 0.56475 0.0
H666 H 0.10263 0.13571 0.71178 0.0
H667 H 0.01713 0.99956 0.48529 0.0
H668 H 0.14905 0.13764 0.68656 0.0
H669 H 0.17402 0.13072 0.63651 0.0
H670 H 0.04915 0.12543 0.70535 0.0
H671 H 0.16012 0.02538 0.4864 0.0
H672 H 1.00484 0.9673 0.38146 0.0
H673 H 0.98463 0.97816 0.43436 0.0
H674 H 0.1013 0.9801 0.35105 0.0
H675 H 0.97623 0.09535 0.61238 0.0
H676 H 1.00217 0.11078 0.6687 0.0
H677 H 0.04815 0.96824 0.35091 0.0
H678 H 0.18199 1.01794 0.43511 0.0
N679 N 0.0566 0.99928 0.46328 0.0
C680 C 0.01952 0.97621 0.40415 0.0
C681 C 1.00804 0.98213 0.4339 0.0
C682 C 0.04977 0.98248 0.4039 0.0
C683 C 0.06813 0.99441 0.43415 0.0
C684 C 0.02684 0.99368 0.46316 0.0
N685 N 0.11583 1.014 0.46335 0.0
C686 C 0.09835 1.0019 0.4342 0.0
C687 C 0.15847 1.01382 0.4344 0.0
C688 C 0.14085 1.00299 0.40448 0.0
C689 C 0.14568 1.01856 0.46358 0.0
C690 C 0.11053 0.99652 0.40404 0.0
H691 H 0.15087 0.99901 0.38188 0.0
O692 O 0.12591 0.98898 0.5142 0.0
O693 O 0.10421 0.05347 0.56132 0.0
O694 O 0.11617 0.10811 0.53264 0.0
O695 O 0.12966 0.05861 0.51196 0.0
O696 O 0.09387 1.00402 0.56351 0.0
O697 O 0.08163 0.96092 0.4979 0.0
O698 O 0.04233 0.11799 0.53947 0.0
O699 O 0.06136 0.05072 0.50025 0.0
O700 O 0.05149 0.9952 0.53389 0.0
O701 O 0.03479 0.04322 0.55111 0.0
O702 O 0.07245 0.09995 0.49809 0.0
O703 O 0.0845 0.14203 0.56749 0.0
C704 C 0.10324 0.03329 0.58229 0.0
C705 C 0.09223 0.98434 0.37425 0.0
C706 C 0.06198 0.97744 0.37417 0.0
C707 C 0.10833 0.95948 0.50732 0.0
C708 C 0.11257 0.93745 0.53045 0.0
C709 C 0.14117 0.93668 0.54219 0.0
C710 C 0.08876 0.91856 0.5423 0.0
C711 C 0.09373 0.89975 0.56602 0.0
C712 C 0.14602 0.91796 0.56577 0.0
C713 C 0.12243 0.89958 0.57769 0.0
C714 C 0.13468 0.09169 0.51898 0.0
C715 C 0.06322 0.07075 0.47926 0.0
C716 C 0.05999 0.14626 0.55406 0.0
C717 C 0.06165 0.17461 0.53729 0.0
C718 C 0.03971 0.19295 0.54053 0.0
C719 C 0.08475 0.18421 0.51896 0.0
C720 C 0.0856 0.21204 0.50402 0.0
C721 C 0.04068 0.22061 0.52578 0.0
C722 C 0.06351 0.23016 0.50761 0.0
C723 C 0.03138 1.00984 0.54599 0.0
H724 H 0.15984 0.951 0.53345 0.0
H725 H 0.06651 0.9186 0.53349 0.0
H726 H 0.16812 0.91773 0.57486 0.0
H727 H 0.12651 0.885 0.59589 0.0
H728 H 0.02188 0.18594 0.55467 0.0
H729 H 0.10187 0.1703 0.51634 0.0
H730 H 0.02372 0.23471 0.52846 0.0
H731 H 0.06395 0.25169 0.49625 0.0
Gd732 Gd 0.30011 0.78347 0.7905 0.0
Gd733 Gd 0.36502 0.83339 0.77374 0.0
C734 C 0.36804 0.93484 0.74408 0.0
C735 C 0.3781 0.92307 0.68737 0.0
C736 C 0.37274 0.87877 0.71904 0.0
C737 C 0.36738 0.901 0.746 0.0
C738 C 0.38008 0.89042 0.69024 0.0
C739 C 0.37183 0.94517 0.71419 0.0
C740 C 0.36746 0.95811 0.77285 0.0
C741 C 0.36877 0.9482 0.80291 0.0
N742 N 0.36586 0.89101 0.77523 0.0
C743 C 0.36876 0.91474 0.80373 0.0
H744 H 0.37193 0.90874 0.8276 0.0
C745 C 0.38787 0.82826 0.70001 0.0
N746 N 0.37502 0.84742 0.72258 0.0
C747 C 0.39628 0.83926 0.67168 0.0
C748 C 0.39155 0.87002 0.66629 0.0
H749 H 0.39119 0.80413 0.70374 0.0
H750 H 0.37202 0.97089 0.71226 0.0
H751 H 0.30818 0.72868 0.72175 0.0
H752 H 0.36815 0.98428 0.77239 0.0
H753 H 0.37046 0.96648 0.82562 0.0
H754 H 0.38306 0.93212 0.66519 0.0
H755 H 0.2874 0.79298 0.87145 0.0
H756 H 0.31614 0.63684 0.74895 0.0
H757 H 0.31404 0.67091 0.70649 0.0
H758 H 0.30803 0.65678 0.86414 0.0
H759 H 0.40613 0.82385 0.65384 0.0
H760 H 0.39796 0.87838 0.64421 0.0
H761 H 0.31438 0.63207 0.80757 0.0
H762 H 0.28726 0.76098 0.91532 0.0
N763 N 0.30597 0.72813 0.77252 0.0
C764 C 0.31318 0.66234 0.75583 0.0
C765 C 0.31192 0.68142 0.7318 0.0
C766 C 0.31056 0.67629 0.78844 0.0
C767 C 0.30694 0.70975 0.7963 0.0
C768 C 0.30822 0.71431 0.74057 0.0
N769 N 0.30042 0.75626 0.83587 0.0
C770 C 0.30406 0.72409 0.82863 0.0
C771 C 0.29242 0.75046 0.89123 0.0
C772 C 0.29846 0.71858 0.88489 0.0
C773 C 0.29272 0.76862 0.86621 0.0
C774 C 0.30375 0.70471 0.85324 0.0
H775 H 0.29803 0.70444 0.90433 0.0
O776 O 0.26204 0.78758 0.81407 0.0
O777 O 0.31898 0.83715 0.78399 0.0
O778 O 0.35404 0.85258 0.82403 0.0
O779 O 0.33043 0.80387 0.83694 0.0
O780 O 0.27678 0.82761 0.79063 0.0
O781 O 0.25795 0.74993 0.76773 0.0
O782 O 0.40652 0.82087 0.76543 0.0
O783 O 0.34465 0.77725 0.77333 0.0
O784 O 0.29395 0.7815 0.73707 0.0
O785 O 0.33808 0.81004 0.72432 0.0
O786 O 0.38462 0.79618 0.79855 0.0
O787 O 0.40471 0.86597 0.80118 0.0
C788 C 0.29661 0.85174 0.78544 0.0
C789 C 0.30793 0.67177 0.84545 0.0
C790 C 0.31142 0.65766 0.81321 0.0
C791 C 0.24509 0.76414 0.79159 0.0
C792 C 0.21499 0.75234 0.79746 0.0
C793 C 0.209 0.74774 0.82903 0.0
C794 C 0.19242 0.75391 0.77436 0.0
C795 C 0.16445 0.75406 0.78376 0.0
C796 C 0.18082 0.74604 0.83785 0.0
C797 C 0.15874 0.7499 0.81559 0.0
C798 C 0.34524 0.83482 0.84566 0.0
C799 C 0.36582 0.76815 0.78921 0.0
C800 C 0.42114 0.84757 0.78625 0.0
C801 C 0.44825 0.86458 0.77644 0.0
C802 C 0.44949 0.88669 0.75462 0.0
C803 C 0.47373 0.85716 0.78907 0.0
C804 C 0.50063 0.87188 0.78055 0.0
C805 C 0.4765 0.90114 0.74558 0.0
C806 C 0.50219 0.89387 0.75864 0.0
C807 C 0.31079 0.79261 0.71596 0.0
H808 H 0.22639 0.74709 0.84732 0.0
H809 H 0.19715 0.75808 0.75016 0.0
H810 H 0.17635 0.74309 0.86239 0.0
H811 H 0.13724 0.74992 0.82323 0.0
H812 H 0.4299 0.89283 0.74475 0.0
H813 H 0.47277 0.84018 0.80612 0.0
H814 H 0.47753 0.9182 0.72876 0.0
H815 H 0.5231 0.90562 0.75216 0.0
Gd816 Gd 0.57655 0.08585 0.98981 0.0
Gd817 Gd 0.58535 0.04867 0.06226 0.0
C818 C 0.67651 0.07559 0.12071 0.0
C819 C 0.68991 1.02148 0.11327 0.0
C820 C 0.64286 0.02612 0.08824 0.0
C821 C 0.64957 0.06038 0.1011 0.0
C822 C 0.6627 1.0062 0.09495 0.0
C823 C 0.69681 0.05611 0.12609 0.0
C824 C 0.68207 0.10981 0.135 0.0
C825 C 0.66091 0.12796 0.13007 0.0
N826 N 0.62958 0.07868 0.09525 0.0
C827 C 0.63479 0.11204 0.11008 0.0
H828 H 0.61971 0.1274 0.1059 0.0
C829 C 0.60718 0.97767 0.06242 0.0
N830 N 0.6164 1.01198 0.07052 0.0
C831 C 0.62613 0.95695 0.06817 0.0
C832 C 0.65423 0.97131 0.08401 0.0
H833 H 0.58513 0.96619 0.05104 0.0
H834 H 0.71766 0.06747 0.14079 0.0
H835 H 0.53856 1.00256 0.96929 0.0
H836 H 0.70246 0.12236 0.15015 0.0
H837 H 0.66493 0.15448 0.14109 0.0
H838 H 0.70549 1.00661 0.11838 0.0
H839 H 0.56894 0.16425 0.99212 0.0
H840 H 0.47123 0.99349 0.89217 0.0
H841 H 0.4995 0.96761 0.92844 0.0
H842 H 0.47008 0.10742 0.88794 0.0
H843 H 0.61892 0.9299 0.06071 0.0
H844 H 0.66882 0.95519 0.08873 0.0
H845 H 0.46068 0.04569 0.87698 0.0
H846 H 0.53723 0.19459 0.96552 0.0
N847 N 0.53504 0.04894 0.95583 0.0
C848 C 0.48905 1.00922 0.90979 0.0
C849 C 0.5049 0.99455 0.93022 0.0
C850 C 0.49555 0.04414 0.91334 0.0
C851 C 0.51897 0.06353 0.93675 0.0
C852 C 0.52762 1.01478 0.95328 0.0
N853 N 0.54517 0.11586 0.96756 0.0
C854 C 0.52412 0.09819 0.94297 0.0
C855 C 0.53297 0.16742 0.95925 0.0
C856 C 0.51085 0.14951 0.93441 0.0
C857 C 0.5503 0.15013 0.97518 0.0
C858 C 0.50622 0.11448 0.92589 0.0
H859 H 0.49754 0.16294 0.92193 0.0
O860 O 0.60308 0.12619 0.97173 0.0
O861 O 0.608 0.07313 0.0258 0.0
O862 O 0.57502 0.10062 0.07749 0.0
O863 O 0.5624 0.1212 0.0312 0.0
O864 O 0.61846 0.12054 0.01632 0.0
O865 O 0.59586 0.07415 0.94479 0.0
O866 O 0.55829 1.01069 0.08292 0.0
O867 O 0.55433 0.06517 0.02935 0.0
O868 O 0.58756 0.03544 0.97249 0.0
O869 O 0.59132 1.01095 0.01846 0.0
O870 O 0.54078 1.01865 0.03907 0.0
O871 O 0.57751 0.06062 0.11294 0.0
C872 C 0.62782 0.09967 0.03152 0.0
C873 C 0.48386 0.09533 0.90149 0.0
C874 C 0.47855 0.06021 0.8952 0.0
C875 C 0.60798 0.10566 0.94605 0.0
C876 C 0.60884 0.11686 0.91488 0.0
C877 C 0.59054 0.13673 0.90458 0.0
C878 C 0.62971 0.10764 0.89528 0.0
C879 C 0.63251 0.11797 0.86552 0.0
C880 C 0.59336 0.14719 0.87469 0.0
C881 C 0.61438 0.13786 0.85507 0.0
C882 C 0.56589 0.12379 0.06378 0.0
C883 C 0.53209 0.04165 0.02649 0.0
C884 C 0.56202 0.03047 0.1118 0.0
C885 C 0.56604 1.01612 0.14049 0.0
C886 C 0.59285 1.01002 0.15187 0.0
C887 C 0.54318 1.01396 0.1597 0.0
C888 C 0.54787 1.00994 0.19195 0.0
C889 C 0.59673 1.00279 0.1832 0.0
C890 C 0.57447 1.00349 0.20362 0.0
C891 C 0.59315 1.01131 0.98701 0.0
H892 H 0.57431 0.14426 0.91937 0.0
H893 H 0.64391 0.09226 0.90315 0.0
H894 H 0.57924 0.1625 0.86675 0.0
H895 H 0.61641 0.14585 0.83187 0.0
H896 H 0.61088 1.01194 0.1373 0.0
H897 H 0.52265 1.01933 0.15102 0.0
H898 H 0.61746 0.99841 0.19227 0.0
H899 H 0.5783 1.0003 0.2287 0.0
Gd900 Gd 0.29719 0.25841 0.25618 0.0
Gd901 Gd 0.34933 0.33152 0.299 0.0
C902 C 0.44277 0.36205 0.2763 0.0
C903 C 0.46903 0.38042 0.33128 0.0
C904 C 0.41742 0.35259 0.32351 0.0
C905 C 0.41692 0.3502 0.28975 0.0
C906 C 0.44357 0.36783 0.34458 0.0
C907 C 0.46864 0.37749 0.29724 0.0
C908 C 0.44199 0.35785 0.24214 0.0
C909 C 0.41601 0.34188 0.22221 0.0
N910 N 0.39124 0.33632 0.27014 0.0
C911 C 0.39077 0.33142 0.23658 0.0
H912 H 0.37124 0.31898 0.2203 0.0
C913 C 0.39163 0.34613 0.36925 0.0
N914 N 0.39221 0.34112 0.33582 0.0
C915 C 0.41707 0.36024 0.39094 0.0
C916 C 0.4432 0.3711 0.37857 0.0
H917 H 0.37117 0.34083 0.37953 0.0
H918 H 0.48854 0.38711 0.28732 0.0
H919 H 0.27469 0.27525 0.33482 0.0
H920 H 0.46143 0.36634 0.2309 0.0
H921 H 0.41531 0.33789 0.19569 0.0
H922 H 0.48914 0.39257 0.34715 0.0
H923 H 0.27354 0.24678 0.17605 0.0
H924 H 0.19016 0.2116 0.32703 0.0
H925 H 0.23322 0.25061 0.36086 0.0
H926 H 0.1637 0.17361 0.21103 0.0
H927 H 0.41624 0.36388 0.41725 0.0
H928 H 0.46276 0.38288 0.3955 0.0
H929 H 0.16471 0.18231 0.27104 0.0
H930 H 0.22983 0.21529 0.13879 0.0
N931 N 0.25556 0.25187 0.28556 0.0
C932 C 0.20814 0.22309 0.31517 0.0
C933 C 0.23238 0.2451 0.3343 0.0
C934 C 0.20712 0.21678 0.28091 0.0
C935 C 0.23103 0.23256 0.26664 0.0
C936 C 0.25601 0.25916 0.31914 0.0
N937 N 0.25354 0.24367 0.21991 0.0
C938 C 0.22994 0.22846 0.23274 0.0
C939 C 0.22926 0.21944 0.16517 0.0
C940 C 0.205 0.20365 0.17808 0.0
C941 C 0.25364 0.23868 0.18647 0.0
C942 C 0.20525 0.20774 0.21221 0.0
H943 H 0.18658 0.18768 0.1615 0.0
O944 O 0.29808 0.21681 0.2156 0.0
O945 O 0.34479 0.2771 0.27627 0.0
O946 O 0.33511 0.34054 0.24798 0.0
O947 O 0.29884 0.2947 0.22036 0.0
O948 O 0.33419 0.25502 0.22658 0.0
O949 O 0.2849 0.20738 0.2628 0.0
O950 O 0.34865 0.37244 0.33999 0.0
O951 O 0.3019 0.31272 0.27779 0.0
O952 O 0.31051 0.25018 0.30771 0.0
O953 O 0.34714 0.29549 0.33445 0.0
O954 O 0.31097 0.33593 0.32686 0.0
O955 O 0.36682 0.38306 0.29587 0.0
C956 C 0.35505 0.26564 0.25029 0.0
C957 C 0.18215 0.19069 0.22633 0.0
C958 C 0.18294 0.19535 0.26056 0.0
C959 C 0.28609 0.19483 0.2319 0.0
C960 C 0.28776 0.1599 0.22276 0.0
C961 C 0.26654 0.13726 0.19925 0.0
C962 C 0.30845 0.14837 0.24013 0.0
C963 C 0.30749 0.11404 0.23535 0.0
C964 C 0.26588 0.10281 0.19384 0.0
C965 C 0.28607 0.09101 0.21231 0.0
C966 C 0.3163 0.32466 0.22144 0.0
C967 C 0.29055 0.32421 0.3027 0.0
C968 C 0.36217 0.39548 0.32574 0.0
C969 C 0.35416 0.42832 0.33189 0.0
C970 C 0.35189 0.44477 0.36403 0.0
C971 C 0.34776 0.44295 0.30556 0.0
C972 C 0.33649 0.4717 0.31032 0.0
C973 C 0.34206 0.47481 0.36915 0.0
C974 C 0.33381 0.48804 0.34223 0.0
C975 C 0.3294 0.26608 0.33396 0.0
H976 H 0.25007 0.14613 0.18589 0.0
H977 H 0.32476 0.16607 0.25834 0.0
H978 H 0.2494 0.08527 0.17588 0.0
H979 H 0.28518 0.06427 0.20861 0.0
H980 H 0.3572 0.43412 0.38496 0.0
H981 H 0.35032 0.43129 0.28097 0.0
H982 H 0.34003 0.48725 0.39387 0.0
H983 H 0.32481 0.5103 0.34614 0.0
Gd984 Gd 0.59151 0.5128 1.00994 0.0
Gd985 Gd 0.57633 0.58588 0.05408 0.0
C986 C 0.59961 0.62434 0.16525 0.0
C987 C 0.55247 0.6294 0.18287 0.0
C988 C 0.55619 0.60669 0.12536 0.0
C989 C 0.5862 0.61054 0.13263 0.0
C990 C 0.5392 0.61663 0.15042 0.0
C991 C 0.58258 0.63334 0.19023 0.0
C992 C 0.62989 0.62933 0.1719 0.0
C993 C 0.64622 0.62092 0.14646 0.0
N994 N 0.60237 0.60175 0.10792 0.0
C995 C 0.63224 0.60751 0.11461 0.0
H996 H 0.64615 0.60148 0.09617 0.0
C997 C 0.5154 0.5962 0.08487 0.0
N998 N 0.54398 0.59579 0.09346 0.0
C999 C 0.49764 0.60497 0.109 0.0
C1000 C 0.50952 0.61492 0.14194 0.0
H1001 H 0.50637 0.5896 0.05924 0.0
H1002 H 0.59259 0.6439 0.21529 0.0
H1003 H 0.5184 0.48688 0.98685 0.0
H1004 H 0.6409 0.63991 0.19655 0.0
H1005 H 0.66973 0.62485 0.1513 0.0
H1006 H 0.53974 0.63716 0.20235 0.0
H1007 H 0.65969 0.52301 0.98646 0.0
H1008 H 0.50588 0.43926 0.88562 0.0
H1009 H 0.48599 0.45432 0.93817 0.0
H1010 H 0.60205 0.45595 0.85359 0.0
H1011 H 0.47492 0.60451 0.10212 0.0
H1012 H 0.49582 0.62229 0.16053 0.0
H1013 H 0.54905 0.44028 0.85444 0.0
H1014 H 0.68248 0.50908 0.93583 0.0
N1015 N 0.55705 0.49155 0.96297 0.0
C1016 C 0.52039 0.45422 0.907 0.0
C1017 C 0.50909 0.46257 0.9366 0.0
C1018 C 0.55035 0.4646 0.90548 0.0
C1019 C 0.56849 0.48362 0.9342 0.0
C1020 C 0.52777 0.48125 0.96439 0.0
N1021 N 0.61606 0.5083 0.96226 0.0
C1022 C 0.59867 0.49239 0.93378 0.0
C1023 C 0.65893 0.50466 0.93479 0.0
C1024 C 0.64143 0.4894 0.90526 0.0
C1025 C 0.64591 0.513 0.9633 0.0
C1026 C 0.61102 0.48237 0.90459 0.0
H1027 H 0.65161 0.48204 0.88336 0.0
O1028 O 0.62174 0.47985 1.01134 0.0
O1029 O 0.59213 0.5391 0.06465 0.0
O1030 O 0.62398 0.59282 0.04489 0.0
O1031 O 0.62074 0.55696 0.99575 0.0
O1032 O 0.62767 0.52188 0.05258 0.0
O1033 O 0.57502 0.45877 1.00031 0.0
O1034 O 0.56831 0.63528 0.07099 0.0
O1035 O 0.56727 0.55363 1.00207 0.0
O1036 O 0.55163 0.496 0.03489 0.0
O1037 O 0.53683 0.54425 0.05732 0.0
O1038 O 0.54537 0.59073 1.01005 0.0
O1039 O 0.60097 0.62936 0.03789 0.0
C1040 C 0.61641 0.5341 0.07814 0.0
C1041 C 0.59286 0.46412 0.87601 0.0
C1042 C 0.56266 0.45517 0.87649 0.0
C1043 C 0.60109 0.45268 1.00367 0.0
C1044 C 0.60489 0.42433 0.01854 0.0
C1045 C 0.6223 0.40336 1.00391 0.0
C1046 C 0.59045 0.41662 0.04536 0.0
C1047 C 0.59197 0.38677 0.05599 0.0
C1048 C 0.62463 0.37434 0.01521 0.0
C1049 C 0.60925 0.3658 0.04085 0.0
C1050 C 0.63497 0.58331 0.01754 0.0
C1051 C 0.54994 0.56818 0.98627 0.0
C1052 C 0.58714 0.65005 0.05418 0.0
C1053 C 0.57884 0.67661 0.03887 0.0
C1054 C 0.55597 0.69144 0.04987 0.0
C1055 C 0.59582 0.69012 0.01616 0.0
C1056 C 0.59018 0.71831 1.00499 0.0
C1057 C 0.55027 0.71928 0.0385 0.0
C1058 C 0.56734 0.73278 0.01626 0.0
C1059 C 0.53283 0.51093 0.05041 0.0
H1060 H 0.63372 0.40917 0.98332 0.0
H1061 H 0.57753 0.4331 0.05729 0.0
H1062 H 0.63793 0.35812 1.00366 0.0
H1063 H 0.61069 0.34273 0.04883 0.0
H1064 H 0.54283 0.68204 0.06783 0.0
H1065 H 0.61371 0.67928 1.00762 0.0
H1066 H 0.53275 0.73063 0.04721 0.0
H1067 H 0.56271 0.75447 1.00768 0.0
Gd1068 Gd 0.80198 0.28307 0.29156 0.0
Gd1069 Gd 0.86585 0.33289 0.27981 0.0
C1070 C 0.87104 0.42333 0.23056 0.0
C1071 C 0.89167 0.40512 0.18034 0.0
C1072 C 0.88106 0.3676 0.2185 0.0
C1073 C 0.87061 0.39176 0.23884 0.0
C1074 C 0.89277 0.37453 0.18966 0.0
C1075 C 0.88064 0.42941 0.20067 0.0
C1076 C 0.8637 0.44862 0.25353 0.0
C1077 C 0.8583 0.4429 0.28468 0.0
N1078 N 0.86326 0.38584 0.26843 0.0
C1079 C 0.85904 0.41153 0.29195 0.0
H1080 H 0.85773 0.40843 0.31685 0.0
C1081 C 0.89602 0.31591 0.21162 0.0
N1082 N 0.88178 0.33822 0.22825 0.0
C1083 C 0.90802 0.32171 0.18292 0.0
C1084 C 0.90614 0.35098 0.17169 0.0
H1085 H 0.89819 0.29377 0.22076 0.0
H1086 H 0.88092 0.45339 0.19381 0.0
H1087 H 0.81081 0.22759 0.22243 0.0
H1088 H 0.86388 0.47322 0.24819 0.0
H1089 H 0.8545 0.46291 0.30345 0.0
H1090 H 0.90016 0.41069 0.15802 0.0
H1091 H 0.78394 0.29017 0.37055 0.0
H1092 H 0.81793 0.136 0.25035 0.0
H1093 H 0.8167 0.17004 0.20782 0.0
H1094 H 0.80601 0.15493 0.36446 0.0
H1095 H 0.91888 0.30371 0.16958 0.0
H1096 H 0.91551 0.35543 0.1495 0.0
H1097 H 0.81459 0.13094 0.30858 0.0
H1098 H 0.7818 0.25762 0.4139 0.0
N1099 N 0.80778 0.22746 0.27336 0.0
C1100 C 0.81492 0.16149 0.25706 0.0
C1101 C 0.81414 0.18056 0.23299 0.0
C1102 C 0.81154 0.17535 0.28943 0.0
C1103 C 0.80786 0.20882 0.29709 0.0
C1104 C 0.81044 0.21347 0.2415 0.0
N1105 N 0.79935 0.25464 0.33611 0.0
C1106 C 0.80359 0.22271 0.32909 0.0
C1107 C 0.7884 0.24767 0.39039 0.0
C1108 C 0.79511 0.21614 0.3845 0.0
C1109 C 0.78986 0.26621 0.36565 0.0
C1110 C 0.80214 0.20294 0.35345 0.0
H1111 H 0.79373 0.20167 0.40369 0.0
O1112 O 0.76349 0.2911 0.3139 0.0
O1113 O 0.82093 0.34037 0.29517 0.0
O1114 O 0.85397 0.35228 0.32981 0.0
O1115 O 0.83027 0.30262 0.34013 0.0
O1116 O 0.78067 0.32106 0.2703 0.0
O1117 O 0.75992 0.2486 0.27204 0.0
O1118 O 0.91001 0.32573 0.28637 0.0
O1119 O 0.84632 0.27592 0.27547 0.0
O1120 O 0.79799 0.27935 0.2382 0.0
O1121 O 0.84094 0.31263 0.22862 0.0
O1122 O 0.88575 0.29415 0.30197 0.0
O1123 O 0.90104 0.37424 0.3059 0.0
C1124 C 0.79925 0.34934 0.27993 0.0
C1125 C 0.80674 0.17018 0.34594 0.0
C1126 C 0.81151 0.15648 0.31408 0.0
C1127 C 0.74673 0.26567 0.29339 0.0
C1128 C 0.7164 0.25435 0.29855 0.0
C1129 C 0.70916 0.2451 0.32812 0.0
C1130 C 0.69446 0.25634 0.27493 0.0
C1131 C 0.66529 0.24992 0.28118 0.0
C1132 C 0.67993 0.23773 0.33393 0.0
C1133 C 0.65801 0.24026 0.3106 0.0
C1134 C 0.8453 0.33336 0.35066 0.0
C1135 C 0.86713 0.26619 0.29126 0.0
C1136 C 0.9209 0.35678 0.30092 0.0
C1137 C 0.94828 0.37235 0.29001 0.0
C1138 C 0.9496 0.3939 0.26761 0.0
C1139 C 0.97378 0.36395 0.30172 0.0
C1140 C 1.00049 0.37673 0.29125 0.0
C1141 C 0.97627 0.40625 0.25661 0.0
C1142 C 1.00177 0.39773 0.2684 0.0
C1143 C 0.81466 0.29321 0.21847 0.0
H1144 H 0.72605 0.24401 0.34676 0.0
H1145 H 0.7001 0.2643 0.25238 0.0
H1146 H 0.6743 0.2307 0.35679 0.0
H1147 H 0.63547 0.23529 0.31567 0.0
H1148 H 0.93029 0.40128 0.25875 0.0
H1149 H 0.97294 0.34756 0.31929 0.0
H1150 H 0.97721 0.42271 0.23919 0.0
H1151 H 0.02243 0.40788 0.26029 0.0
Gd1152 Gd 0.07193 0.58008 0.47961 0.0
Gd1153 Gd 0.08167 0.545 0.55269 0.0
C1154 C 0.17402 0.57652 0.60958 0.0
C1155 C 0.19005 0.52396 0.60124 0.0
C1156 C 0.14152 0.52585 0.57795 0.0
C1157 C 0.14705 0.55992 0.59061 0.0
C1158 C 0.16258 0.50725 0.58423 0.0
C1159 C 0.19579 0.5586 0.61383 0.0
C1160 C 0.17795 0.61033 0.62476 0.0
C1161 C 0.15492 0.62636 0.62198 0.0
N1162 N 0.12548 0.57646 0.58605 0.0
C1163 C 0.12872 0.6089 0.60288 0.0
H1164 H 0.1113 0.62174 0.6024 0.0
C1165 C 0.10651 0.47606 0.55477 0.0
N1166 N 0.11477 0.51046 0.56157 0.0
C1167 C 0.1265 0.45655 0.56074 0.0
C1168 C 0.15493 0.47223 0.57468 0.0
H1169 H 0.08437 0.46357 0.54447 0.0
H1170 H 0.21674 0.57106 0.62786 0.0
H1171 H 0.03749 0.49586 0.45129 0.0
H1172 H 0.19829 0.62394 0.63949 0.0
H1173 H 0.15728 0.65223 0.63455 0.0
H1174 H 0.20661 0.51014 0.60585 0.0
H1175 H 0.0558 0.65717 0.49154 0.0
H1176 H 0.97984 0.49003 0.36577 0.0
H1177 H 1.00429 0.46229 0.40369 0.0
H1178 H 0.9725 0.60383 0.37111 0.0
H1179 H 0.1199 0.42942 0.55503 0.0
H1180 H 0.17035 0.45704 0.57939 0.0
H1181 H 0.96833 0.54302 0.35367 0.0
H1182 H 0.0251 0.68702 0.46319 0.0
N1183 N 0.03498 0.54324 0.43968 0.0
C1184 C 0.99525 0.5052 0.38631 0.0
C1185 C 1.00898 0.48945 0.40765 0.0
C1186 C 0.99997 0.54026 0.39307 0.0
C1187 C 0.02015 0.55888 0.4203 0.0
C1188 C 0.02844 0.50886 0.43455 0.0
N1189 N 0.03885 0.60952 0.45921 0.0
C1190 C 0.02187 0.59308 0.43067 0.0
C1191 C 0.02369 0.6605 0.45399 0.0
C1192 C 1.00551 0.64365 0.42529 0.0
C1193 C 0.04061 0.64319 0.4704 0.0
C1194 C 1.0044 0.60959 0.41327 0.0
H1195 H 0.99241 0.65715 0.41263 0.0
O1196 O 0.09531 0.62556 0.46654 0.0
O1197 O 0.10428 0.56918 0.51614 0.0
O1198 O 0.07085 0.59716 0.56587 0.0
O1199 O 0.05041 0.60928 0.51817 0.0
O1200 O 0.11429 0.61551 0.50515 0.0
O1201 O 0.08996 0.5757 0.43315 0.0
O1202 O 0.05695 0.50724 0.5755 0.0
O1203 O 0.04859 0.55638 0.51741 0.0
O1204 O 0.08567 0.53075 0.46291 0.0
O1205 O 0.08822 0.50707 0.50956 0.0
O1206 O 0.04006 0.50944 0.5271 0.0
O1207 O 0.07092 0.55923 0.60214 0.0
C1208 C 0.12404 0.59573 0.52136 0.0
C1209 C 0.98589 0.5915 0.38487 0.0
C1210 C 0.98365 0.55691 0.37482 0.0
C1211 C 0.09955 0.6084 0.43836 0.0
C1212 C 0.11532 0.62449 0.41484 0.0
C1213 C 0.11039 0.65484 0.4079 0.0
C1214 C 0.13493 0.60857 0.39836 0.0
C1215 C 0.14904 0.62209 0.3741 0.0
C1216 C 0.12485 0.66874 0.38386 0.0
C1217 C 0.14411 0.65234 0.36681 0.0
C1218 C 0.05614 0.61519 0.55053 0.0
C1219 C 0.02872 0.52978 0.51299 0.0
C1220 C 0.05827 0.52848 0.60302 0.0
C1221 C 0.06436 0.5174 0.63327 0.0
C1222 C 0.09104 0.50968 0.64257 0.0
C1223 C 0.04342 0.5183 0.65491 0.0
C1224 C 0.04967 0.51429 0.6869 0.0
C1225 C 0.09667 0.50352 0.67409 0.0
C1226 C 0.07616 0.50631 0.69654 0.0
C1227 C 0.09042 0.50656 0.47799 0.0
H1228 H 0.09508 0.66736 0.42059 0.0
H1229 H 0.13897 0.58528 0.40401 0.0
H1230 H 0.12095 0.69201 0.37824 0.0
H1231 H 0.15509 0.66309 0.34803 0.0
H1232 H 0.10759 0.50915 0.62603 0.0
H1233 H 0.02298 0.52484 0.64777 0.0
H1234 H 0.11731 0.49782 0.68149 0.0
H1235 H 0.08119 0.50326 0.72145 0.0
Gd1236 Gd 0.86557 0.79801 0.28813 0.0
Gd1237 Gd 0.79329 0.81732 0.28458 0.0
C1238 C 0.74564 0.78294 0.17957 0.0
C1239 C 0.75663 0.83407 0.15833 0.0
C1240 C 0.77276 0.83445 0.21539 0.0
C1241 C 0.76135 0.80032 0.21027 0.0
C1242 C 0.76889 0.85202 0.18997 0.0
C1243 C 0.74493 0.79949 0.15314 0.0
C1244 C 0.72963 0.75011 0.17691 0.0
C1245 C 0.72813 0.73621 0.20489 0.0
N1246 N 0.76246 0.7851 0.23639 0.0
C1247 C 0.74416 0.7544 0.23468 0.0
H1248 H 0.74127 0.74356 0.25616 0.0
C1249 C 0.78544 0.88513 0.25484 0.0
N1250 N 0.78352 0.85108 0.24648 0.0
C1251 C 0.78226 0.90371 0.23057 0.0
C1252 C 0.77507 0.88715 0.19774 0.0
H1253 H 0.79053 0.8985 0.28018 0.0
H1254 H 0.73381 0.78623 0.12915 0.0
H1255 H 0.8926 0.86714 0.34521 0.0
H1256 H 0.71717 0.736 0.15387 0.0
H1257 H 0.71451 0.71152 0.20358 0.0
H1258 H 0.75423 0.84704 0.13832 0.0
H1259 H 0.87572 0.72096 0.26048 0.0
H1260 H 0.92741 0.8407 0.43188 0.0
H1261 H 0.9159 0.88404 0.40263 0.0
H1262 H 0.92099 0.72237 0.39699 0.0
H1263 H 0.78527 0.93076 0.23726 0.0
H1264 H 0.7723 0.90155 0.17899 0.0
H1265 H 0.92871 0.78 0.4297 0.0
H1266 H 0.89039 0.67455 0.2824 0.0
N1267 N 0.88846 0.81515 0.34279 0.0
C1268 C 0.91667 0.83328 0.40686 0.0
C1269 C 0.91017 0.85778 0.39048 0.0
C1270 C 0.91019 0.79961 0.39024 0.0
C1271 C 0.89606 0.79134 0.35772 0.0
C1272 C 0.89653 0.84819 0.35809 0.0
N1273 N 0.88045 0.75332 0.30745 0.0
C1274 C 0.89164 0.75916 0.33948 0.0
C1275 C 0.89036 0.69802 0.29889 0.0
C1276 C 0.89968 0.70276 0.33242 0.0
C1277 C 0.88161 0.72408 0.28661 0.0
C1278 C 0.9013 0.734 0.353 0.0
H1279 H 0.90692 0.68276 0.34181 0.0
O1280 O 0.89021 0.78703 0.24658 0.0
O1281 O 0.82818 0.80429 0.25464 0.0
O1282 O 0.78749 0.75992 0.28423 0.0
O1283 O 0.8337 0.74947 0.29605 0.0
O1284 O 0.84585 0.76274 0.24041 0.0
O1285 O 0.91037 0.82536 0.28862 0.0
O1286 O 0.77773 0.8561 0.31646 0.0
O1287 O 0.8349 0.82235 0.31757 0.0
O1288 O 0.8735 0.85488 0.28692 0.0
O1289 O 0.82779 0.86795 0.28701 0.0
O1290 O 0.7962 0.80289 0.33387 0.0
O1291 O 0.74844 0.80695 0.29802 0.0
C1292 C 0.82654 0.77844 0.23184 0.0
C1293 C 0.91373 0.74145 0.38602 0.0
C1294 C 0.91821 0.77426 0.40462 0.0
C1295 C 0.91393 0.80866 0.26014 0.0
C1296 C 0.94151 0.79722 0.25766 0.0
C1297 C 0.94939 0.77611 0.2778 0.0
C1298 C 0.9603 0.80757 0.23491 0.0
C1299 C 0.9865 0.79638 0.23212 0.0
C1300 C 0.97511 0.76459 0.27466 0.0
C1301 C 0.99355 0.77456 0.25189 0.0
C1302 C 0.80446 0.73905 0.29072 0.0
C1303 C 0.82389 0.81201 0.34191 0.0
C1304 C 0.75233 0.8367 0.31678 0.0
C1305 C 0.7294 0.84881 0.33536 0.0
C1306 C 0.7334 0.88346 0.34807 0.0
C1307 C 0.70465 0.82652 0.34249 0.0
C1308 C 0.68453 0.8392 0.36231 0.0
C1309 C 0.71348 0.89585 0.36736 0.0
C1310 C 0.6893 0.87396 0.37446 0.0
C1311 C 0.85676 0.87717 0.28657 0.0
H1312 H 0.93585 0.7687 0.29611 0.0
H1313 H 0.9547 0.82431 0.21958 0.0
H1314 H 0.9809 0.74811 0.29014 0.0
H1315 H 1.0136 0.76569 0.25001 0.0
H1316 H 0.75213 0.90115 0.34329 0.0
H1317 H 0.70127 0.79969 0.33324 0.0
H1318 H 0.71691 0.9226 0.37702 0.0
H1319 H 0.67418 0.8842 0.38962 0.0
Gd1320 Gd 0.81619 0.33235 0.83191 0.0
Gd1321 Gd 0.84607 0.29468 0.75821 0.0
C1322 C 0.79633 0.19443 0.69169 0.0
C1323 C 0.83477 0.16358 0.68535 0.0
C1324 C 0.8439 0.21829 0.72273 0.0
C1325 C 0.81588 0.22124 0.71379 0.0
C1326 C 0.85361 0.18929 0.70866 0.0
C1327 C 0.80614 0.16608 0.67699 0.0
C1328 C 0.76712 0.19607 0.68611 0.0
C1329 C 0.75762 0.22282 0.7039 0.0
N1330 N 0.80705 0.24894 0.72878 0.0
C1331 C 0.77768 0.24846 0.72568 0.0
H1332 H 0.76886 0.26665 0.74099 0.0
C1333 C 0.88917 0.24057 0.75559 0.0
N1334 N 0.86134 0.24315 0.74605 0.0
C1335 C 0.89961 0.21231 0.74251 0.0
C1336 C 0.88184 0.18662 0.71879 0.0
H1337 H 0.9043 0.26084 0.77214 0.0
H1338 H 0.79149 0.14552 0.65982 0.0
H1339 H 0.88673 0.36779 0.86902 0.0
H1340 H 0.75145 0.17593 0.66959 0.0
H1341 H 0.73466 0.22334 0.70158 0.0
H1342 H 0.84193 0.14127 0.67427 0.0
H1343 H 0.74923 0.34637 0.81639 0.0
H1344 H 0.89025 0.46798 0.91767 0.0
H1345 H 0.91356 0.41985 0.904 0.0
H1346 H 0.795 0.48503 0.88997 0.0
H1347 H 0.92169 0.21077 0.75021 0.0
H1348 H 0.89006 0.16482 0.70854 0.0
H1349 H 0.84617 0.49198 0.91223 0.0
H1350 H 0.72327 0.39211 0.82665 0.0
N1351 N 0.84665 0.38407 0.862 0.0
C1352 C 0.87786 0.44468 0.90213 0.0
C1353 C 0.89102 0.41757 0.89458 0.0
C1354 C 0.84894 0.44151 0.88937 0.0
C1355 C 0.83377 0.41065 0.86894 0.0
C1356 C 0.87513 0.38745 0.87462 0.0
N1357 N 0.7911 0.37697 0.83684 0.0
C1358 C 0.80523 0.40704 0.85581 0.0
C1359 C 0.74647 0.39696 0.83444 0.0
C1360 C 0.76124 0.42857 0.85198 0.0
C1361 C 0.76154 0.3712 0.82799 0.0
C1362 C 0.79076 0.43375 0.8636 0.0
H1363 H 0.7494 0.44837 0.85754 0.0
O1364 O 0.77662 0.31378 0.85094 0.0
O1365 O 0.82454 0.2853 0.80178 0.0
O1366 O 0.80684 0.31214 0.73736 0.0
O1367 O 0.79009 0.3392 0.78472 0.0
O1368 O 0.78285 0.2844 0.81367 0.0
O1369 O 0.81822 0.32692 0.88356 0.0
O1370 O 0.89179 0.31133 0.75226 0.0
O1371 O 0.84878 0.33926 0.79829 0.0
O1372 O 0.85763 0.31624 0.85101 0.0
O1373 O 0.87429 0.28928 0.80405 0.0
O1374 O 0.85156 0.34895 0.75213 0.0
O1375 O 0.85982 0.29131 0.70939 0.0
C1376 C 0.79993 0.26636 0.80124 0.0
C1377 C 0.80578 0.46436 0.88378 0.0
C1378 C 0.83484 0.46825 0.89658 0.0
C1379 C 0.78984 0.31596 0.87992 0.0
C1380 C 0.77265 0.30752 0.9059 0.0
C1381 C 0.74389 0.31221 0.90577 0.0
C1382 C 0.78207 0.28671 0.92488 0.0
C1383 C 0.76215 0.26779 0.94105 0.0
C1384 C 0.72437 0.29479 0.9236 0.0
C1385 C 0.73323 0.27188 0.94059 0.0
C1386 C 0.78814 0.3286 0.75199 0.0
C1387 C 0.85184 0.3624 0.78256 0.0
C1388 C 0.88709 0.30524 0.72036 0.0
C1389 C 0.90162 0.33153 0.70428 0.0
C1390 C 0.93077 0.33342 0.69828 0.0
C1391 C 0.88626 0.35373 0.69337 0.0
C1392 C 0.89919 0.37641 0.67493 0.0
C1393 C 0.94413 0.35678 0.68074 0.0
C1394 C 0.92834 0.378 0.66877 0.0
C1395 C 0.87712 0.30067 0.83661 0.0
H1396 H 0.73616 0.32793 0.89058 0.0
H1397 H 0.80408 0.28253 0.9244 0.0
H1398 H 0.70208 0.29792 0.92306 0.0
H1399 H 0.71766 0.25726 0.95316 0.0
H1400 H 0.94299 0.31648 0.70668 0.0
H1401 H 0.8636 0.35214 0.69724 0.0
H1402 H 0.96656 0.35802 0.67591 0.0
H1403 H 0.9387 0.39541 0.65448 0.0
Gd1404 Gd 0.80231 0.75934 0.7681 0.0
Gd1405 Gd 0.85747 0.83705 0.80194 0.0
C1406 C 0.94452 0.87657 0.76422 0.0
C1407 C 0.97997 0.87064 0.8067 0.0
C1408 C 0.92779 0.85254 0.81012 0.0
C1409 C 0.92147 0.8619 0.78055 0.0
C1410 C 0.9572 0.85872 0.82428 0.0
C1411 C 0.97363 0.87907 0.77647 0.0
C1412 C 0.93788 0.89153 0.73803 0.0
C1413 C 0.90949 0.89533 0.7313 0.0
N1414 N 0.89324 0.8619 0.77077 0.0
C1415 C 0.88778 0.88203 0.74929 0.0
H1416 H 0.8662 0.88685 0.74509 0.0
C1417 C 0.91124 0.84121 0.85979 0.0
N1418 N 0.90538 0.84184 0.82716 0.0
C1419 C 0.93986 0.84641 0.87451 0.0
C1420 C 0.96299 0.85448 0.85645 0.0
H1421 H 0.89416 0.83776 0.87534 0.0
H1422 H 0.99146 0.88989 0.764 0.0
H1423 H 0.76491 0.76951 0.83345 0.0
H1424 H 0.95492 0.90282 0.72481 0.0
H1425 H 0.90444 0.90922 0.71288 0.0
H1426 H 1.00257 0.87482 0.81698 0.0
H1427 H 0.79748 0.73065 0.68699 0.0
H1428 H 0.67484 0.75752 0.79992 0.0
H1429 H 0.71459 0.76828 0.84544 0.0
H1430 H 0.6715 0.72849 0.68272 0.0
H1431 H 0.94404 0.8451 0.90011 0.0
H1432 H 0.98521 0.85917 0.86814 0.0
H1433 H 0.65899 0.74296 0.73915 0.0
H1434 H 0.7602 0.71396 0.63843 0.0
N1435 N 0.75481 0.762 0.78146 0.0
C1436 C 0.69713 0.75868 0.79445 0.0
C1437 C 0.71947 0.7647 0.82018 0.0
C1438 C 0.70369 0.75307 0.76194 0.0
C1439 C 0.73312 0.75481 0.75617 0.0
C1440 C 0.74819 0.7657 0.81319 0.0
N1441 N 0.76828 0.74606 0.7203 0.0
C1442 C 0.7401 0.74666 0.72453 0.0
C1443 C 0.75428 0.72344 0.66244 0.0
C1444 C 0.72545 0.72549 0.66621 0.0
C1445 C 0.77534 0.73305 0.68998 0.0
C1446 C 0.71791 0.73651 0.69762 0.0
H1447 H 0.70904 0.71739 0.64495 0.0
O1448 O 0.81193 0.71117 0.74983 0.0
O1449 O 0.85089 0.78136 0.78333 0.0
O1450 O 0.84939 0.82844 0.74589 0.0
O1451 O 0.80481 0.7909 0.72823 0.0
O1452 O 0.83707 0.75044 0.73701 0.0
O1453 O 0.78247 0.71564 0.78724 0.0
O1454 O 0.84559 0.86329 0.8473 0.0
O1455 O 0.81105 0.81012 0.79852 0.0
O1456 O 0.81248 0.76336 0.82321 0.0
O1457 O 0.85716 0.80149 0.83842 0.0
O1458 O 0.81776 0.85678 0.78735 0.0
O1459 O 0.87468 0.8907 0.8199 0.0
C1460 C 0.85952 0.76584 0.75776 0.0
C1461 C 0.68878 0.73613 0.70307 0.0
C1462 C 0.68167 0.74438 0.73519 0.0
C1463 C 0.796 0.69628 0.76898 0.0
C1464 C 0.78281 0.66091 0.75729 0.0
C1465 C 0.75685 0.64793 0.73593 0.0
C1466 C 0.79904 0.63951 0.76713 0.0
C1467 C 0.78975 0.60488 0.75691 0.0
C1468 C 0.74721 0.61288 0.7254 0.0
C1469 C 0.76354 0.5912 0.73607 0.0
C1470 C 0.82745 0.8133 0.72264 0.0
C1471 C 0.79806 0.83223 0.79232 0.0
C1472 C 0.858 0.89276 0.84331 0.0
C1473 C 0.83909 0.91698 0.84352 0.0
C1474 C 0.82222 0.92316 0.86949 0.0
C1475 C 0.83554 0.93144 0.81602 0.0
C1476 C 0.81505 0.95114 0.81406 0.0
C1477 C 0.8018 0.94318 0.86764 0.0
C1478 C 0.79807 0.95704 0.8399 0.0
C1479 C 0.83572 0.77806 0.84478 0.0
H1480 H 0.74441 0.6646 0.72739 0.0
H1481 H 0.8196 0.65002 0.78292 0.0
H1482 H 0.72723 0.60256 0.70889 0.0
H1483 H 0.75609 0.56423 0.7279 0.0
H1484 H 0.82434 0.91183 0.89072 0.0
H1485 H 0.84793 0.92658 0.7954 0.0
H1486 H 0.78853 0.9475 0.88749 0.0
H1487 H 0.78188 0.97206 0.83843 0.0
Gd1488 Gd 0.61593 0.58769 0.55883 0.0
Gd1489 Gd 0.55206 0.52985 0.51625 0.0
C1490 C 0.54596 0.42126 0.52753 0.0
C1491 C 0.54876 0.39299 0.47179 0.0
C1492 C 0.55231 0.4536 0.48454 0.0
C1493 C 0.54959 0.4525 0.51751 0.0
C1494 C 0.55056 0.42342 0.46128 0.0
C1495 C 0.54658 0.39193 0.50482 0.0
C1496 C 0.54056 0.41991 0.55981 0.0
C1497 C 0.53823 0.44896 0.58121 0.0
N1498 N 0.5485 0.48117 0.53922 0.0
C1499 C 0.54236 0.4794 0.57064 0.0
H1500 H 0.54113 0.50101 0.58857 0.0
C1501 C 0.54928 0.48324 0.44156 0.0
N1502 N 0.55376 0.48325 0.47459 0.0
C1503 C 0.54726 0.45402 0.41785 0.0
C1504 C 0.54872 0.42416 0.42777 0.0
H1505 H 0.54776 0.50607 0.43325 0.0
H1506 H 0.54415 0.36798 0.51233 0.0
H1507 H 0.61737 0.60991 0.48365 0.0
H1508 H 0.53759 0.39643 0.56829 0.0
H1509 H 0.53378 0.44811 0.60622 0.0
H1510 H 0.54778 0.3698 0.45429 0.0
H1511 H 0.61653 0.61656 0.64173 0.0
H1512 H 0.62806 0.71578 0.49816 0.0
H1513 H 0.62522 0.66084 0.46163 0.0
H1514 H 0.6217 0.75028 0.61262 0.0
H1515 H 0.54458 0.4546 0.39193 0.0
H1516 H 0.54702 0.40147 0.40929 0.0
H1517 H 0.62651 0.74862 0.55415 0.0
H1518 H 0.61556 0.66866 0.67983 0.0
N1519 N 0.61726 0.63452 0.53334 0.0
C1520 C 0.62508 0.69325 0.50829 0.0
C1521 C 0.62361 0.66237 0.48765 0.0
C1522 C 0.62231 0.69469 0.54166 0.0
C1523 C 0.61827 0.66454 0.55373 0.0
C1524 C 0.61965 0.63328 0.50057 0.0
N1525 N 0.61225 0.63631 0.59816 0.0
C1526 C 0.61522 0.66538 0.58678 0.0
C1527 C 0.61473 0.66803 0.65366 0.0
C1528 C 0.61535 0.69731 0.6419 0.0
C1529 C 0.61436 0.63813 0.63165 0.0
C1530 C 0.61665 0.69655 0.6084 0.0
H1531 H 0.61628 0.72067 0.65912 0.0
O1532 O 0.6505 0.60234 0.59926 0.0
O1533 O 0.59331 0.53298 0.54741 0.0
O1534 O 0.53796 0.54748 0.56889 0.0
O1535 O 0.5803 0.58392 0.59658 0.0
O1536 O 0.63095 0.54436 0.57778 0.0
O1537 O 0.66054 0.60707 0.55011 0.0
O1538 O 0.52111 0.53271 0.47589 0.0
O1539 O 0.57743 0.5835 0.52151 0.0
O1540 O 0.63094 0.56582 0.50783 0.0
O1541 O 0.5876 0.53477 0.47765 0.0
O1542 O 0.53359 0.57692 0.52548 0.0
O1543 O 0.50786 0.50028 0.51028 0.0
C1544 C 0.61064 0.5192 0.56292 0.0
C1545 C 0.62051 0.7263 0.59632 0.0
C1546 C 0.62342 0.72538 0.56308 0.0
C1547 C 0.67062 0.61169 0.58109 0.0
C1548 C 0.69885 0.60404 0.58931 0.0
C1549 C 0.71548 0.62151 0.6192 0.0
C1550 C 0.70925 0.57961 0.56848 0.0
C1551 C 0.73611 0.57258 0.5778 0.0
C1552 C 0.74228 0.61444 0.62837 0.0
C1553 C 0.7526 0.58997 0.60775 0.0
C1554 C 0.55234 0.56805 0.59683 0.0
C1555 C 0.55677 0.59944 0.52521 0.0
C1556 C 0.50048 0.51022 0.48355 0.0
C1557 C 0.47016 0.51272 0.47733 0.0
C1558 C 0.45242 0.4893 0.45118 0.0
C1559 C 0.4582 0.53624 0.49761 0.0
C1560 C 0.42833 0.53579 0.49174 0.0
C1561 C 0.42284 0.48901 0.44531 0.0
C1562 C 0.41078 0.51208 0.46554 0.0
C1563 C 0.61657 0.54789 0.47878 0.0
H1564 H 0.70763 0.64051 0.6355 0.0
H1565 H 0.69653 0.56592 0.54541 0.0
H1566 H 0.75501 0.62788 0.65146 0.0
H1567 H 0.77344 0.5846 0.61506 0.0
H1568 H 0.46144 0.47092 0.43548 0.0
H1569 H 0.47185 0.5545 0.51775 0.0
H1570 H 0.40923 0.47085 0.42512 0.0
H1571 H 0.38777 0.51172 0.46059 0.0
Gd1572 Gd 0.04421 0.55214 0.06262 0.0
Gd1573 Gd 0.11207 0.55504 0.02475 0.0
C1574 C 0.16924 0.66075 0.03797 0.0
C1575 C 0.1622 0.67242 0.98333 0.0
C1576 C 0.13947 0.61785 0.99398 0.0
C1577 C 0.15084 0.62844 0.0269 0.0
C1578 C 0.14634 0.63926 0.97162 0.0
C1579 C 0.17357 0.68319 0.01649 0.0
C1580 C 0.18437 0.66885 0.0696 0.0
C1581 C 0.18252 0.64432 0.08851 0.0
N1582 N 0.14675 0.60598 0.04706 0.0
C1583 C 0.16394 0.61274 0.07665 0.0
H1584 H 0.16399 0.59414 0.09154 0.0
C1585 C 0.11932 0.57191 0.95001 0.0
N1586 N 0.12433 0.58558 0.98317 0.0
C1587 C 0.12564 0.59214 0.92703 0.0
C1588 C 0.13851 0.6262 0.93791 0.0
H1589 H 0.1088 0.54568 0.94119 0.0
H1590 H 0.18709 0.70829 0.02484 0.0
H1591 H 1.01261 0.48805 1.00176 0.0
H1592 H 0.19875 0.69331 0.07892 0.0
H1593 H 0.19536 0.64971 0.11234 0.0
H1594 H 0.16709 0.68939 0.96662 0.0
H1595 H 0.04649 0.58593 0.14219 0.0
H1596 H 0.96067 0.41066 0.04039 0.0
H1597 H 0.9785 0.43282 0.9926 0.0
H1598 H 0.97529 0.45607 0.15659 0.0
H1599 H 0.12042 0.58148 0.90095 0.0
H1600 H 0.14347 0.64183 0.92003 0.0
H1601 H 0.95996 0.41938 0.10175 0.0
H1602 H 0.03103 0.56935 0.19318 0.0
N1603 N 1.01384 0.49766 0.05332 0.0
C1604 C 0.97538 0.43514 0.0443 0.0
C1605 C 0.98528 0.44759 0.0173 0.0
C1606 C 0.98452 0.45457 0.07602 0.0
C1607 C 1.00386 0.4862 0.07968 0.0
C1608 C 1.00435 0.47914 0.02239 0.0
N1609 N 0.03029 0.53725 0.11224 0.0
C1610 C 1.01277 0.50648 0.11029 0.0
C1611 C 0.0262 0.55115 0.17013 0.0
C1612 C 1.00979 0.51879 0.1688 0.0
C1613 C 0.03562 0.56024 0.14131 0.0
C1614 C 1.00222 0.49623 0.13847 0.0
H1615 H 1.00209 0.51196 0.19103 0.0
O1616 O 0.02468 0.59424 0.08038 0.0
O1617 O 0.08292 0.58653 0.04839 0.0
O1618 O 0.11948 0.55768 0.07898 0.0
O1619 O 0.07506 0.5355 0.09686 0.0
O1620 O 0.07032 0.60192 0.09366 0.0
O1621 O 1.00103 0.55356 0.04141 0.0
O1622 O 0.12294 0.51817 0.98624 0.0
O1623 O 0.06805 0.52142 0.02798 0.0
O1624 O 0.03395 0.55026 1.00892 0.0
O1625 O 0.078 0.56283 0.98727 0.0
O1626 O 0.1042 0.50223 0.03365 0.0
O1627 O 0.15553 0.5441 0.02884 0.0
C1628 C 0.08841 0.61084 0.0735 0.0
C1629 C 0.98355 0.46445 0.13524 0.0
C1630 C 0.97473 0.44362 0.10402 0.0
C1631 C 1.00059 0.58188 0.06072 0.0
C1632 C 0.97331 0.58433 0.07472 0.0
C1633 C 0.96481 0.56863 0.10063 0.0
C1634 C 0.95557 0.60322 0.06184 0.0
C1635 C 0.92955 0.60669 0.0749 0.0
C1636 C 0.9389 0.57219 0.11378 0.0
C1637 C 0.9213 0.59126 0.10104 0.0
C1638 C 0.10394 0.54329 0.0996 0.0
C1639 C 0.07631 0.49484 0.03247 0.0
C1640 C 0.14904 0.52147 1.00138 0.0
C1641 C 0.16997 0.50206 0.98743 0.0
C1642 C 0.16444 0.4851 0.9543 0.0
C1643 C 0.19438 0.49839 1.00721 0.0
C1644 C 0.21271 0.47766 0.9938 0.0
C1645 C 0.18277 0.4649 0.94103 0.0
C1646 C 0.20671 0.46113 0.96062 0.0
C1647 C 0.04943 0.55958 0.98583 0.0
H1648 H 0.97806 0.55376 0.11072 0.0
H1649 H 0.962 0.61537 0.04177 0.0
H1650 H 0.93246 0.56019 0.13387 0.0
H1651 H 0.90126 0.59391 0.11143 0.0
H1652 H 0.14578 0.48727 0.93862 0.0
H1653 H 0.1988 0.51093 0.03292 0.0
H1654 H 0.17828 0.45193 0.91549 0.0
H1655 H 0.22058 0.44514 0.94992 0.0
C1656 C 0.03944 0.15858 0.96784 0.0
C1657 C 0.04169 0.18998 0.99014 0.0
C1658 C 0.05098 0.16002 0.03555 0.0
C1659 C 0.05325 0.13048 1.01288 0.0
N1660 N 0.05406 0.10514 0.956 0.0
N1661 N 0.05584 0.2207 0.04627 0.0
C1662 C 0.04889 0.13096 0.97866 0.0
C1663 C 0.04903 0.19063 0.02434 0.0
N1664 N 0.02634 0.15395 0.93642 0.0
N1665 N 0.05066 0.15905 0.06812 0.0
H1666 H 0.05652 0.24365 0.03933 0.0
H1667 H 0.06391 0.22322 0.0708 0.0
H1668 H 0.05287 0.13785 0.07732 0.0
H1669 H 0.04614 0.17835 0.08547 0.0
H1670 H 0.0214 0.13075 0.92008 0.0
H1671 H 0.01685 0.1719 0.92804 0.0
H1672 H 0.05434 0.10573 0.93111 0.0
H1673 H 0.0613 0.08493 0.9625 0.0
C1674 C 0.20672 0.81452 0.2116 0.0
C1675 C 0.21068 0.83553 0.18815 0.0
C1676 C 0.26397 0.84988 0.20744 0.0
C1677 C 0.2595 0.83188 0.23356 0.0
N1678 N 0.22409 0.8013 0.26258 0.0
N1679 N 0.24316 0.87751 0.16757 0.0
C1680 C 0.23011 0.8158 0.23634 0.0
C1681 C 0.23939 0.85426 0.18706 0.0
N1682 N 0.18098 0.7914 0.20908 0.0
N1683 N 0.29175 0.86283 0.20168 0.0
H1684 H 0.22595 0.88151 0.15267 0.0
H1685 H 0.26273 0.89485 0.16837 0.0
H1686 H 0.31024 0.86216 0.21658 0.0
H1687 H 0.29656 0.87232 0.18078 0.0
H1688 H 0.17795 0.77251 0.22263 0.0
H1689 H 0.16369 0.78842 0.19084 0.0
H1690 H 0.20294 0.79314 0.26815 0.0
H1691 H 0.24005 0.79982 0.28038 0.0
C1692 C 0.56485 0.90986 0.4781 0.0
C1693 C 0.54889 0.88702 0.49549 0.0
C1694 C 0.54738 0.93603 0.53913 0.0
C1695 C 0.56082 0.95913 0.52024 0.0
N1696 N 0.57651 0.96641 0.46782 0.0
N1697 N 0.51874 0.88026 0.53914 0.0
C1698 C 0.56735 0.94539 0.48837 0.0
C1699 C 0.53834 0.90068 0.52501 0.0
N1700 N 0.57958 0.89799 0.45301 0.0
N1701 N 0.5439 0.94749 0.5711 0.0
H1702 H 0.51105 0.85467 0.52931 0.0
H1703 H 0.50789 0.88939 0.5586 0.0
H1704 H 0.54912 0.97292 0.58192 0.0
H1705 H 0.5376 0.93169 0.58726 0.0
H1706 H 0.59401 0.91362 0.44173 0.0
H1707 H 0.5803 0.87274 0.44606 0.0
H1708 H 0.57883 0.95789 0.44318 0.0
H1709 H 0.57871 0.99231 0.47442 0.0
C1710 C 0.53584 0.28996 0.66428 0.0
C1711 C 0.55631 0.32152 0.67236 0.0
C1712 C 0.53013 0.33948 0.71913 0.0
C1713 C 0.50947 0.3083 0.71057 0.0
N1714 N 0.4883 0.25747 0.67081 0.0
N1715 N 0.56863 0.37908 0.70228 0.0
C1716 C 0.51088 0.28481 0.68163 0.0
C1717 C 0.55212 0.34714 0.69825 0.0
N1718 N 0.54115 0.26401 0.64174 0.0
N1719 N 0.52939 0.36131 0.74788 0.0
H1720 H 0.58454 0.38574 0.68713 0.0
H1721 H 0.56469 0.39961 0.71849 0.0
H1722 H 0.51298 0.35716 0.76312 0.0
H1723 H 0.54594 0.38246 0.75763 0.0
H1724 H 0.52882 0.23947 0.63775 0.0
H1725 H 0.55938 0.26595 0.62895 0.0
H1726 H 0.48655 0.24117 0.64812 0.0
H1727 H 0.46988 0.25289 0.68317 0.0
C1728 C 0.0498 0.82233 0.58718 0.0
C1729 C 0.03534 0.83661 0.61321 0.0
C1730 C 0.05422 0.89295 0.6034 0.0
C1731 C 0.06921 0.87859 0.57805 0.0
N1732 N 0.07385 0.83002 0.53881 0.0
N1733 N 0.01719 0.88337 0.64039 0.0
C1734 C 0.06429 0.84332 0.5675 0.0
C1735 C 0.03534 0.87132 0.61938 0.0
N1736 N 0.05181 0.78941 0.58282 0.0
N1737 N 0.05919 0.92711 0.61323 0.0
H1738 H 1.00311 0.8678 0.65218 0.0
H1739 H 0.01415 0.90787 0.64383 0.0
H1740 H 0.07235 0.94361 0.60151 0.0
H1741 H 0.05149 0.93914 0.63394 0.0
H1742 H 0.06516 0.779 0.56693 0.0
H1743 H 0.04213 0.77294 0.5969 0.0
H1744 H 0.06851 0.80446 0.52815 0.0
H1745 H 0.08464 0.84501 0.52395 0.0
C1746 C 0.55876 0.87425 0.84868 0.0
C1747 C 0.56975 0.8459 0.83483 0.0
C1748 C 0.53674 0.83607 0.78412 0.0
C1749 C 0.52687 0.86538 0.79725 0.0
N1750 N 0.52538 0.91074 0.84224 0.0
N1751 N 0.56993 0.79929 0.79091 0.0
C1752 C 0.53723 0.88421 0.82954 0.0
C1753 C 0.55879 0.82653 0.80299 0.0
N1754 N 0.56969 0.89229 0.87967 0.0
N1755 N 0.52411 0.81685 0.75413 0.0
H1756 H 0.58452 0.79037 0.80524 0.0
H1757 H 0.56536 0.78575 0.76677 0.0
H1758 H 0.50875 0.82396 0.73913 0.0
H1759 H 0.52786 0.79337 0.74433 0.0
H1760 H 0.5663 0.91595 0.8895 0.0
H1761 H 0.58259 0.88374 0.89611 0.0
H1762 H 0.52899 0.92319 0.86677 0.0
H1763 H 0.51078 0.91998 0.82828 0.0
C1764 C 0.51684 0.15338 0.12566 0.0
C1765 C 0.50733 0.1782 0.11141 0.0
C1766 C 0.54105 0.17232 0.0703 0.0
C1767 C 0.55129 0.14785 0.08459 0.0
N1768 N 0.55752 0.12833 0.13551 0.0
N1769 N 0.5008 0.19894 0.06183 0.0
C1770 C 0.54143 0.14154 0.11488 0.0
C1771 C 0.51624 0.18354 0.08088 0.0
N1772 N 0.50225 0.14126 0.14954 0.0
N1773 N 0.55734 0.18805 0.04975 0.0
H1774 H 0.48123 0.20508 0.06824 0.0
H1775 H 0.50546 0.20142 0.03819 0.0
H1776 H 0.57823 0.18413 0.04634 0.0
H1777 H 0.55207 0.20799 0.0404 0.0
H1778 H 0.50668 0.12106 0.15908 0.0
H1779 H 0.48347 0.14901 0.15666 0.0
H1780 H 0.55203 0.12513 0.15868 0.0
H1781 H 0.57876 0.12616 0.13215 0.0
C1782 C 0.21038 0.31423 0.30209 0.0
C1783 C 0.21094 0.33807 0.33171 0.0
C1784 C 0.26116 0.36446 0.32737 0.0
C1785 C 0.26241 0.33596 0.3034 0.0
N1786 N 0.23485 0.30373 0.25317 0.0
N1787 N 0.23112 0.39532 0.36024 0.0
C1788 C 0.23594 0.3167 0.28576 0.0
C1789 C 0.23465 0.36637 0.34067 0.0
N1790 N 0.18652 0.28879 0.29017 0.0
N1791 N 0.28519 0.38997 0.33615 0.0
H1792 H 0.21096 0.39815 0.36779 0.0
H1793 H 0.24707 0.41754 0.36626 0.0
H1794 H 0.30193 0.39126 0.3212 0.0
H1795 H 0.28777 0.40985 0.35625 0.0
H1796 H 0.18586 0.27086 0.26883 0.0
H1797 H 0.168 0.28427 0.30221 0.0
H1798 H 0.21531 0.29247 0.23812 0.0
H1799 H 0.25331 0.30847 0.24099 0.0
C1800 C 0.03277 0.06682 0.18952 0.0
C1801 C 1.00544 0.07705 0.19115 0.0
C1802 C 1.00705 0.07757 0.12976 0.0
C1803 C 0.03551 0.06951 0.12865 0.0
N1804 N 0.07682 0.06298 0.16319 0.0
N1805 N 0.96977 0.09782 0.16144 0.0
C1806 C 0.0486 0.06632 0.16027 0.0
C1807 C 0.9935 0.08357 0.16066 0.0
N1808 N 0.04326 0.05515 0.21554 0.0
N1809 N 0.99267 0.08036 0.10106 0.0
H1810 H 0.95987 0.10331 0.18276 0.0
H1811 H 0.96159 0.10724 0.14209 0.0
H1812 H 1.00244 0.08062 0.07947 0.0
H1813 H 0.97063 0.08096 0.09819 0.0
H1814 H 0.06058 0.04301 0.21489 0.0
H1815 H 0.03271 0.05423 0.2366 0.0
H1816 H 0.08919 0.06592 0.18578 0.0
H1817 H 0.08866 0.05951 0.14334 0.0
C1818 C 0.2688 0.70591 0.4898 0.0
C1819 C 0.29121 0.6893 0.47968 0.0
C1820 C 0.28521 0.70258 0.42533 0.0
C1821 C 0.26523 0.72229 0.43691 0.0
N1822 N 0.24254 0.74848 0.4819 0.0
N1823 N 0.32236 0.67289 0.4393 0.0
C1824 C 0.25813 0.72545 0.46956 0.0
C1825 C 0.2998 0.6877 0.44772 0.0
N1826 N 0.2569 0.70213 0.51823 0.0
N1827 N 0.28998 0.69815 0.39295 0.0
H1828 H 0.33314 0.66145 0.45524 0.0
H1829 H 0.33169 0.67366 0.41749 0.0
H1830 H 0.27935 0.70859 0.37594 0.0
H1831 H 0.30253 0.68209 0.38221 0.0
H1832 H 0.23835 0.71067 0.52468 0.0
H1833 H 0.26354 0.68754 0.53381 0.0
H1834 H 0.24023 0.75488 0.50684 0.0
H1835 H 0.23402 0.76343 0.4679 0.0
C1836 C 0.65862 1.01098 0.64211 0.0
C1837 C 0.67211 0.04115 0.66454 0.0
C1838 C 0.62822 0.06324 0.65825 0.0
C1839 C 0.61673 0.03601 0.63198 0.0
N1840 N 0.61686 0.98059 0.60283 0.0
N1841 N 0.67104 0.09737 0.69272 0.0
C1842 C 0.63061 1.00856 0.62545 0.0
C1843 C 0.65714 0.06754 0.67263 0.0
N1844 N 0.67313 0.98543 0.63611 0.0
N1845 N 0.61135 0.08526 0.66884 0.0
H1846 H 0.69256 0.10191 0.70296 0.0
H1847 H 0.66229 0.11869 0.69675 0.0
H1848 H 0.59029 0.08239 0.6576 0.0
H1849 H 0.61708 0.10413 0.69001 0.0
H1850 H 0.66476 0.96233 0.62033 0.0
H1851 H 0.69422 0.9873 0.64711 0.0
H1852 H 0.62542 0.95967 0.595 0.0
H1853 H 0.59569 0.97827 0.59258 0.0
C1854 C 0.34916 0.32075 0.9335 0.0
C1855 C 0.34542 0.35352 0.94696 0.0
C1856 C 0.33488 0.3621 0.89077 0.0
C1857 C 0.33534 0.32807 0.87725 0.0
N1858 N 0.33788 0.27323 0.88709 0.0
N1859 N 0.32583 0.40094 0.93776 0.0
C1860 C 0.3408 0.30681 0.89909 0.0
C1861 C 0.33586 0.37297 0.9254 0.0
N1862 N 0.36188 0.30343 0.95312 0.0
N1863 N 0.33399 0.38454 0.87082 0.0
H1864 H 0.32408 0.40871 0.96269 0.0
H1865 H 0.31577 0.41398 0.92288 0.0
H1866 H 0.33406 0.37827 0.84554 0.0
H1867 H 0.33666 0.41027 0.87979 0.0
H1868 H 0.36798 0.28101 0.94399 0.0
H1869 H 0.3689 0.31305 0.97806 0.0
H1870 H 0.33856 0.25591 0.90215 0.0
H1871 H 0.33308 0.26242 0.86207 0.0
C1872 C 1.00007 0.08109 0.41383 0.0
C1873 C 1.01151 0.07755 0.38233 0.0
C1874 C 0.05683 0.06882 0.41445 0.0
C1875 C 0.04407 0.06837 0.44481 0.0
N1876 N 0.99999 0.07001 0.46984 0.0
N1877 N 0.05019 0.05901 0.35429 0.0
C1878 C 0.0146 0.07309 0.4431 0.0
C1879 C 0.03975 0.06893 0.38335 0.0
N1880 N 0.97602 0.09454 0.41694 0.0
N1881 N 0.08605 0.07012 0.41511 0.0
H1882 H 0.0386 0.05724 0.3315 0.0
H1883 H 0.0687 0.04891 0.35283 0.0
H1884 H 0.09905 0.06981 0.43641 0.0
H1885 H 0.09765 0.07412 0.39532 0.0
H1886 H 0.9683 0.10149 0.43942 0.0
H1887 H 0.96581 0.10256 0.39781 0.0
H1888 H 0.97774 0.06933 0.46971 0.0
H1889 H 1.00956 0.06478 0.49113 0.0
C1890 C 0.32485 0.75636 0.63491 0.0
C1891 C 0.30702 0.72375 0.63295 0.0
C1892 C 0.2781 0.7481 0.67326 0.0
C1893 C 0.30051 0.77745 0.68077 0.0
N1894 N 0.32951 0.81621 0.6546 0.0
N1895 N 0.26487 0.68878 0.64949 0.0
C1896 C 0.3192 0.78385 0.65711 0.0
C1897 C 0.28278 0.71961 0.65156 0.0
N1898 N 0.34829 0.76078 0.61744 0.0
N1899 N 0.25235 0.7482 0.68625 0.0
H1900 H 0.2669 0.66709 0.63362 0.0
H1901 H 0.24902 0.68426 0.66525 0.0
H1902 H 0.24848 0.77011 0.70046 0.0
H1903 H 0.2341 0.72833 0.6799 0.0
H1904 H 0.36287 0.78386 0.61998 0.0
H1905 H 0.3547 0.74094 0.60265 0.0
H1906 H 0.33996 0.8225 0.6347 0.0
H1907 H 0.32416 0.83608 0.67061 0.0
C1908 C 0.70342 0.11592 0.82871 0.0
C1909 C 0.69634 0.08279 0.80948 0.0
C1910 C 0.64723 0.07343 0.82595 0.0
C1911 C 0.65424 0.10656 0.84531 0.0
N1912 N 0.68998 0.15713 0.87075 0.0
N1913 N 0.66508 0.02755 0.79501 0.0
C1914 C 0.6827 0.12719 0.84846 0.0
C1915 C 0.66932 0.0607 0.8099 0.0
N1916 N 0.72946 0.13691 0.82699 0.0
N1917 N 0.61925 0.05466 0.82218 0.0
H1918 H 0.68125 1.01773 0.78328 0.0
H1919 H 0.64685 1.00926 0.79677 0.0
H1920 H 0.60245 0.06318 0.83374 0.0
H1921 H 0.61204 0.03166 0.8058 0.0
H1922 H 0.73445 0.16263 0.83689 0.0
H1923 H 0.74582 0.12868 0.81436 0.0
H1924 H 0.71121 0.17158 0.87678 0.0
H1925 H 0.67503 0.16663 0.88496 0.0
C1926 C 0.31405 0.33205 0.13015 0.0
C1927 C 0.33667 0.36141 0.13264 0.0
C1928 C 0.33624 0.37237 0.19276 0.0
C1929 C 0.31776 0.3404 0.1909 0.0
N1930 N 0.27617 0.30301 0.1576 0.0
N1931 N 0.37207 0.40708 0.16786 0.0
C1932 C 0.30313 0.32329 0.15942 0.0
C1933 C 0.34841 0.38092 0.16439 0.0
N1934 N 0.30255 0.31267 0.09995 0.0
N1935 N 0.33884 0.3964 0.22059 0.0
H1936 H 0.38257 0.4135 0.148 0.0
H1937 H 0.38305 0.41995 0.19078 0.0
H1938 H 0.32553 0.39247 0.23908 0.0
H1939 H 0.34972 0.42132 0.22246 0.0
H1940 H 0.28878 0.28898 0.09688 0.0
H1941 H 0.30811 0.31921 0.07791 0.0
H1942 H 0.26298 0.29141 0.13562 0.0
H1943 H 0.26514 0.30263 0.17838 0.0
C1944 C 0.27747 0.99766 0.06561 0.0
C1945 C 0.28773 0.99711 0.03441 0.0
C1946 C 0.26679 0.0445 0.02668 0.0
C1947 C 0.25813 0.04645 0.05877 0.0
N1948 N 0.2475 1.02032 0.10496 0.0
N1949 N 0.28567 1.01215 0.98157 0.0
C1950 C 0.26087 1.0214 0.07698 0.0
C1951 C 0.28002 1.01794 0.01362 0.0
N1952 N 0.28529 0.97714 0.08524 0.0
N1953 N 0.2634 0.06873 1.00943 0.0
H1954 H 0.29515 0.99234 0.97182 0.0
H1955 H 0.27874 0.02469 0.96408 0.0
H1956 H 0.25344 0.08838 0.01819 0.0
H1957 H 0.27182 0.07057 0.98726 0.0
H1958 H 0.2821 0.97972 0.10998 0.0
H1959 H 0.29614 0.95815 0.0772 0.0
H1960 H 0.24607 1.00055 0.11733 0.0
H1961 H 0.23576 0.03795 0.11452 0.0
C1962 C 0.71717 0.62258 0.03169 0.0
C1963 C 0.71852 0.64874 0.01377 0.0
C1964 C 0.66669 0.62656 0.99214 0.0
C1965 C 0.66452 0.6025 1.01251 0.0
N1966 N 0.68809 0.57609 0.05022 0.0
N1967 N 0.69405 0.67817 0.97968 0.0
C1968 C 0.68998 0.60006 0.0317 0.0
C1969 C 0.69307 0.65158 0.99491 0.0
N1970 N 0.74201 0.61925 0.04887 0.0
N1971 N 0.644 0.62428 0.96887 0.0
H1972 H 0.71323 0.69592 0.97971 0.0
H1973 H 0.67553 0.68399 0.96896 0.0
H1974 H 0.62602 0.6041 0.96428 0.0
H1975 H 0.64448 0.63956 0.95165 0.0
H1976 H 0.74386 0.59796 0.05794 0.0
H1977 H 0.76143 0.63754 0.05362 0.0
H1978 H 0.70383 0.57579 0.069 0.0
H1979 H 0.67034 0.55604 0.04635 0.0
C1980 C 0.77333 0.43801 0.31011 0.0
C1981 C 0.75491 0.44095 0.28179 0.0
C1982 C 0.77025 0.38816 0.25242 0.0
C1983 C 0.7875 0.38398 0.28099 0.0
N1984 N 0.80671 0.40962 0.33689 0.0
N1985 N 0.73464 0.41398 0.22628 0.0
C1986 C 0.78928 0.41047 0.30965 0.0
C1987 C 0.75319 0.4145 0.25328 0.0
N1988 N 0.77417 0.46071 0.33874 0.0
N1989 N 0.77164 0.36782 0.22296 0.0
H1990 H 0.72427 0.43349 0.22413 0.0
H1991 H 0.72807 0.39336 0.20678 0.0
H1992 H 0.78428 0.34978 0.22061 0.0
H1993 H 0.76307 0.37104 0.20031 0.0
H1994 H 0.78469 0.46009 0.36135 0.0
H1995 H 0.76256 0.47968 0.34063 0.0
H1996 H 0.81211 0.42831 0.35811 0.0
H1997 H 0.81773 0.39049 0.33725 0.0
C1998 C 0.95977 0.51178 0.55317 0.0
C1999 C 0.93915 0.50101 0.52469 0.0
C2000 C 0.97561 0.52483 0.49219 0.0
C2001 C 0.99743 0.52972 0.51861 0.0
N2002 N 1.00612 0.54761 0.57712 0.0
N2003 N 0.92784 0.49483 0.46591 0.0
C2004 C 0.9885 0.52847 0.55018 0.0
C2005 C 0.94711 0.50685 0.49383 0.0
N2006 N 0.9521 0.50606 0.58299 0.0
N2007 N 0.98035 0.54382 0.46933 0.0
H2008 H 0.90668 0.48101 0.46586 0.0
H2009 H 0.934 0.49629 0.44257 0.0
H2010 H 0.99814 0.5641 0.47459 0.0
H2011 H 0.96442 0.54419 0.45067 0.0
H2012 H 0.96732 0.50955 0.60353 0.0
H2013 H 0.93077 0.49601 0.58686 0.0
H2014 H 1.00009 0.55104 0.60088 0.0
H2015 H 0.02498 0.56416 0.57439 0.0
C2016 C 0.37559 0.08716 0.2623 0.0
C2017 C 0.37865 0.10176 0.29657 0.0
C2018 C 0.32955 0.11177 0.29043 0.0
C2019 C 0.32921 0.10353 0.25577 0.0
N2020 N 0.35377 0.08767 0.20825 0.0
N2021 N 0.35951 0.13054 0.34307 0.0
C2022 C 0.35265 0.09225 0.24149 0.0
C2023 C 0.35579 0.11466 0.31069 0.0
N2024 N 0.39328 0.06678 0.24966 0.0
N2025 N 0.30475 0.11687 0.30375 0.0
H2026 H 0.37882 0.13363 0.35847 0.0
H2027 H 0.34456 0.14329 0.3538 0.0
H2028 H 0.28503 0.11431 0.28923 0.0
H2029 H 0.303 0.12032 0.32889 0.0
H2030 H 0.38944 0.05287 0.22556 0.0
H2031 H 0.40965 0.06045 0.26368 0.0
H2032 H 0.37226 0.08332 0.19738 0.0
H2033 H 0.3373 0.09081 0.19176 0.0
C2034 C 0.37488 0.1414 0.51527 0.0
C2035 C 0.37483 0.17321 0.53499 0.0
C2036 C 0.41792 0.16969 0.56989 0.0
C2037 C 0.41433 0.13562 0.55395 0.0
N2038 N 0.38898 0.088 0.51212 0.0
N2039 N 0.39491 0.21671 0.58334 0.0
C2040 C 0.39285 0.12122 0.52659 0.0
C2041 C 0.39632 0.18751 0.56259 0.0
N2042 N 0.35819 0.13089 0.48537 0.0
N2043 N 0.44192 0.18492 0.59212 0.0
H2044 H 0.37916 0.23043 0.57976 0.0
H2045 H 0.40796 0.226 0.60582 0.0
H2046 H 0.45787 0.17233 0.5985 0.0
H2047 H 0.44737 0.21069 0.60178 0.0
H2048 H 0.35918 0.10927 0.46857 0.0
H2049 H 0.34556 0.14568 0.4759 0.0
H2050 H 0.37136 0.07505 0.49473 0.0
H2051 H 0.40243 0.07273 0.51901 0.0
C2052 C 0.75488 0.66006 0.31591 0.0
C2053 C 0.75717 0.63222 0.29088 0.0
C2054 C 0.79395 0.67337 0.26908 0.0
C2055 C 0.78924 0.70184 0.29182 0.0
N2056 N 0.76202 0.72057 0.33569 0.0
N2057 N 0.77601 0.61522 0.23968 0.0
C2058 C 0.76862 0.6945 0.31464 0.0
C2059 C 0.77621 0.63974 0.26668 0.0
N2060 N 0.74093 0.65362 0.34241 0.0
N2061 N 0.81544 0.67818 0.24915 0.0
H2062 H 0.76292 0.59108 0.23601 0.0
H2063 H 0.78642 0.61968 0.21922 0.0
H2064 H 0.8269 0.70192 0.24772 0.0
H2065 H 0.82309 0.65862 0.23562 0.0
H2066 H 0.7411 0.67184 0.36337 0.0
H2067 H 0.73176 0.62936 0.34511 0.0
H2068 H 0.74441 0.71784 0.34945 0.0
H2069 H 0.77322 0.74535 0.33813 0.0
C2070 C 0.91015 0.44013 0.82257 0.0
C2071 C 0.89343 0.46488 0.82485 0.0
C2072 C 0.84994 0.42342 0.79763 0.0
C2073 C 0.86604 0.3979 0.7969 0.0
N2074 N 0.91082 0.38138 0.81156 0.0
N2075 N 0.84714 0.48053 0.82145 0.0
C2076 C 0.89598 0.40614 0.81024 0.0
C2077 C 0.86313 0.45653 0.81466 0.0
N2078 N 0.93983 0.44936 0.83048 0.0
N2079 N 0.82251 0.41635 0.78125 0.0
H2080 H 0.85653 0.50488 0.83451 0.0
H2081 H 0.82444 0.47557 0.81724 0.0
H2082 H 0.81259 0.39264 0.76773 0.0
H2083 H 0.81065 0.43447 0.77854 0.0
H2084 H 0.95384 0.43325 0.82468 0.0
H2085 H 0.95082 0.47386 0.8414 0.0
H2086 H 0.93126 0.38509 0.82484 0.0
H2087 H 0.90157 0.35646 0.80134 0.0
C2088 C 0.09884 0.9374 0.10712 0.0
C2089 C 0.11684 0.91911 0.08843 0.0
C2090 C 0.11714 0.95948 0.05 0.0
C2091 C 0.10224 0.98021 0.07119 0.0
N2092 N 0.08067 0.98817 0.12193 0.0
N2093 N 0.14517 0.91546 0.04271 0.0
C2094 C 0.09403 0.96893 0.10039 0.0
C2095 C 0.12616 0.93072 0.05978 0.0
N2096 N 0.08417 0.92336 0.13006 0.0
N2097 N 0.12293 0.9671 0.02034 0.0
H2098 H 0.15233 0.89506 0.04903 0.0
H2099 H 0.15574 0.92457 0.02407 0.0
H2100 H 0.11846 0.98831 1.013 0.0
H2101 H 0.13 0.95105 1.00187 0.0
H2102 H 0.06818 0.93317 0.142 0.0
H2103 H 0.08525 0.89969 0.13441 0.0
H2104 H 0.07861 0.98512 0.14599 0.0
H2105 H 0.07186 1.00744 0.11556 0.0
C2106 C 0.9563 0.30127 0.87287 0.0
C2107 C 0.95178 0.28151 0.8972 0.0
C2108 C 0.8984 0.27837 0.88579 0.0
C2109 C 0.90277 0.2939 0.8579 0.0
N2110 N 0.9382 0.31338 0.82208 0.0
N2111 N 0.91733 0.24738 0.92376 0.0
C2112 C 0.93231 0.30308 0.85057 0.0
C2113 C 0.92247 0.2692 0.90295 0.0
N2114 N 0.98349 0.32036 0.87205 0.0
N2115 N 0.87136 0.27204 0.8962 0.0
H2116 H 0.93407 0.23992 0.9363 0.0
H2117 H 0.89652 0.23429 0.92627 0.0
H2118 H 0.85272 0.27605 0.88401 0.0
H2119 H 0.8677 0.26486 0.91847 0.0
H2120 H 0.98739 0.33823 0.85738 0.0
H2121 H 1.00145 0.3217 0.88884 0.0
H2122 H 0.95883 0.31609 0.81398 0.0
H2123 H 0.92245 0.31597 0.80481 0.0
C2124 C 0.60065 0.20435 0.56001 0.0
C2125 C 0.6188 0.22329 0.58913 0.0
C2126 C 0.62053 0.16948 0.60664 0.0
C2127 C 0.60227 0.15016 0.57767 0.0
N2128 N 0.5692 0.15119 0.53102 0.0
N2129 N 0.65263 0.22237 0.63492 0.0
C2130 C 0.59129 0.16813 0.55509 0.0
C2131 C 0.63048 0.2053 0.61091 0.0
N2132 N 0.59215 0.22095 0.53688 0.0
N2133 N 0.62731 0.15379 0.63131 0.0
H2134 H 0.66145 0.24806 0.63782 0.0
H2135 H 0.66455 0.21062 0.64937 0.0
H2136 H 0.62207 0.12778 0.62881 0.0
H2137 H 0.63674 0.1666 0.65484 0.0
H2138 H 0.58218 0.2089 0.51335 0.0
H2139 H 0.59711 0.24706 0.54026 0.0
H2140 H 0.5572 0.16288 0.51664 0.0
H2141 H 0.56088 0.12539 0.52714 0.0
C2142 C 0.60471 0.81017 0.37118 0.0
C2143 C 0.60614 0.79566 0.3995 0.0
C2144 C 0.65942 0.80289 0.39909 0.0
C2145 C 0.65785 0.81738 0.37088 0.0
N2146 N 0.62852 0.82566 0.32471 0.0
N2147 N 0.63349 0.76985 0.43466 0.0
C2148 C 0.63022 0.81771 0.35508 0.0
C2149 C 0.63313 0.78939 0.41165 0.0
N2150 N 0.57973 0.81925 0.36102 0.0
N2151 N 0.68611 0.8033 0.41469 0.0
H2152 H 0.61458 0.75891 0.44369 0.0
H2153 H 0.65191 0.76176 0.44236 0.0
H2154 H 0.70563 0.81169 0.40538 0.0
H2155 H 0.68899 0.79698 0.43759 0.0
H2156 H 0.57854 0.83331 0.3429 0.0
H2157 H 0.56082 0.81559 0.37261 0.0
H2158 H 0.60883 0.82328 0.31035 0.0
H2159 H 0.64693 0.83132 0.31253 0.0
C2160 C 0.15037 0.26716 0.47805 0.0
C2161 C 0.14117 0.25976 0.4438 0.0
C2162 C 0.10521 0.21031 0.44962 0.0
C2163 C 0.10925 0.22284 0.48413 0.0
N2164 N 0.13796 0.25984 0.53223 0.0
N2165 N 0.12262 0.21518 0.39679 0.0
C2166 C 0.13305 0.24982 0.49874 0.0
C2167 C 0.12262 0.2282 0.42941 0.0
N2168 N 0.17613 0.28947 0.49031 0.0
N2169 N 0.08361 0.18262 0.43622 0.0
H2170 H 0.13718 0.22699 0.38261 0.0
H2171 H 0.11095 0.19133 0.38487 0.0
H2172 H 0.07139 0.16828 0.45061 0.0
H2173 H 0.07714 0.17446 0.41106 0.0
H2174 H 0.18499 0.29465 0.51486 0.0
H2175 H 0.1905 0.29941 0.47491 0.0
H2176 H 0.15263 0.28177 0.54443 0.0
H2177 H 0.12638 0.24655 0.54786 0.0
C2178 C 0.61328 0.29138 0.2379 0.0
C2179 C 0.59237 0.26235 0.22107 0.0
C2180 C 0.62402 0.22633 0.2365 0.0
C2181 C 0.64229 0.2548 0.25765 0.0
N2182 N 0.65503 0.31465 0.27934 0.0
N2183 N 0.57609 0.20166 0.20696 0.0
C2184 C 0.63735 0.2875 0.25831 0.0
C2185 C 0.59741 0.22963 0.2206 0.0
N2186 N 0.61047 0.32255 0.23377 0.0
N2187 N 0.6323 0.19623 0.23147 0.0
H2188 H 0.55573 0.2026 0.19605 0.0
H2189 H 0.57749 0.17743 0.20915 0.0
H2190 H 0.65172 0.19306 0.24298 0.0
H2191 H 0.62146 0.17541 0.21359 0.0
H2192 H 0.62674 0.34428 0.24212 0.0
H2193 H 0.59277 0.32649 0.21963 0.0
H2194 H 0.65061 0.33856 0.28376 0.0
H2195 H 0.6734 0.31297 0.294 0.0
C2196 C 0.61307 0.92737 0.96238 0.0
C2197 C 0.63598 0.93519 0.94289 0.0
C2198 C 0.63133 0.99374 0.9522 0.0
C2199 C 0.60614 0.98494 0.96856 0.0
N2200 N 0.56935 0.94168 0.98224 0.0
N2201 N 0.66486 0.97441 0.91566 0.0
C2202 C 0.59604 0.95127 0.97177 0.0
C2203 C 0.64437 0.96794 0.93661 0.0
N2204 N 0.60715 0.897 0.97161 0.0
N2205 N 0.64408 0.02666 0.95315 0.0
H2206 H 0.67677 0.95696 0.90605 0.0
H2207 H 0.66887 0.99635 0.90641 0.0
H2208 H 0.63666 0.04694 0.96544 0.0
H2209 H 0.66421 0.03425 0.94485 0.0
H2210 H 0.59298 0.89178 0.98897 0.0
H2211 H 0.61816 0.878 0.96443 0.0
H2212 H 0.55944 0.91672 0.98173 0.0
H2213 H 0.55567 0.9582 0.98822 0.0
C2214 C 0.91718 0.74596 0.70597 0.0
C2215 C 0.94252 0.76636 0.72572 0.0
C2216 C 0.91473 0.77195 0.77343 0.0
C2217 C 0.88901 0.75933 0.75133 0.0
N2218 N 0.87045 0.71052 0.70774 0.0
N2219 N 0.96788 0.79049 0.78012 0.0
C2220 C 0.89131 0.73901 0.72066 0.0
C2221 C 0.94221 0.77656 0.76031 0.0
N2222 N 0.91778 0.73229 0.67356 0.0
N2223 N 0.91287 0.77512 0.80627 0.0
H2224 H 0.98799 0.79526 0.77093 0.0
H2225 H 0.96947 0.7975 0.80557 0.0
H2226 H 0.89295 0.76776 0.81514 0.0
H2227 H 0.93083 0.78142 0.82414 0.0
H2228 H 0.89884 0.72066 0.65758 0.0
H2229 H 0.93688 0.73363 0.66221 0.0
H2230 H 0.87223 0.69342 0.68662 0.0
H2231 H 0.85419 0.701 0.72127 0.0
C2232 C 0.16368 0.06759 0.90171 0.0
C2233 C 0.15862 0.03637 0.87792 0.0
C2234 C 0.12734 1.01205 0.91935 0.0
C2235 C 0.13134 0.04361 0.94256 0.0
N2236 N 0.16565 0.09776 0.95814 0.0
N2237 N 0.13091 0.97906 0.86503 0.0
C2238 C 0.15293 0.07023 0.93426 0.0
C2239 C 0.13899 1.00892 0.88716 0.0
N2240 N 0.17738 0.09621 0.89257 0.0
N2241 N 0.11584 0.9836 0.93 0.0
H2242 H 0.1403 0.97413 0.84331 0.0
H2243 H 0.11353 0.95989 0.86726 0.0
H2244 H 0.11018 0.98427 0.9538 0.0
H2245 H 0.1155 0.95942 0.91722 0.0
H2246 H 0.17847 0.12026 0.90622 0.0
H2247 H 0.18445 0.09636 0.86948 0.0
H2248 H 0.18375 0.11562 0.95514 0.0
H2249 H 0.16142 0.10076 0.98242 0.0
C2250 C 0.8789 0.45277 0.64966 0.0
C2251 C 0.85498 0.43625 0.62553 0.0
C2252 C 0.8553 0.38266 0.64008 0.0
C2253 C 0.88179 0.3977 0.66112 0.0
N2254 N 0.91237 0.44819 0.69517 0.0
N2255 N 0.81128 0.39276 0.61365 0.0
C2256 C 0.89158 0.43331 0.66902 0.0
C2257 C 0.83984 0.4037 0.62669 0.0
N2258 N 0.88944 0.48658 0.65366 0.0
N2259 N 0.84619 0.34853 0.63034 0.0
H2260 H 0.79979 0.4088 0.60446 0.0
H2261 H 0.79856 0.36965 0.61555 0.0
H2262 H 0.85816 0.33168 0.63668 0.0
H2263 H 0.82817 0.33707 0.61294 0.0
H2264 H 0.9092 0.49952 0.66739 0.0
H2265 H 0.87771 0.50177 0.64349 0.0
H2266 H 0.91924 0.47408 0.70352 0.0
H2267 H 0.92111 0.43444 0.7104 0.0
C2268 C 0.49322 0.04653 0.42564 0.0
C2269 C 0.49847 0.07681 0.41411 0.0
C2270 C 0.54691 0.09364 0.44548 0.0
C2271 C 0.54189 0.06193 0.45484 0.0
N2272 N 0.51593 1.00421 0.44163 0.0
N2273 N 0.53189 0.12689 0.40781 0.0
C2274 C 0.51682 0.03703 0.44087 0.0
C2275 C 0.52594 0.09972 0.42229 0.0
N2276 N 0.46567 0.02702 0.42241 0.0
N2277 N 0.5709 0.11813 0.45941 0.0
H2278 H 0.51622 0.13274 0.39213 0.0
H2279 H 0.55261 0.14246 0.41005 0.0
H2280 H 0.58693 0.11424 0.47588 0.0
H2281 H 0.57406 0.14279 0.45604 0.0
H2282 H 0.46079 1.00551 0.43232 0.0
H2283 H 0.44743 0.03487 0.41379 0.0
H2284 H 0.49873 0.9846 0.42961 0.0
H2285 H 0.53402 0.99676 0.45127 0.0
C2286 C 0.79173 0.73364 0.14436 0.0
C2287 C 0.80659 0.75478 0.12496 0.0
C2288 C 0.82875 0.79607 0.17611 0.0
C2289 C 0.81622 0.77312 0.19554 0.0
N2290 N 0.78918 0.71756 0.19707 0.0
N2291 N 0.84093 0.80544 0.12215 0.0
C2292 C 0.79873 0.74123 0.17923 0.0
C2293 C 0.82506 0.78621 0.14076 0.0
N2294 N 0.76994 0.70664 0.12941 0.0
N2295 N 0.84551 0.82672 0.19138 0.0
H2296 H 0.83889 0.79916 0.09654 0.0
H2297 H 0.85747 0.82657 0.13182 0.0
H2298 H 0.85201 0.8332 0.21658 0.0
H2299 H 0.8521 0.84632 0.17935 0.0
H2300 H 0.75633 0.69195 0.1423 0.0
H2301 H 0.76326 0.70112 0.10415 0.0
H2302 H 0.78038 0.69234 0.18656 0.0
H2303 H 0.79102 0.72301 0.22263 0.0
C2304 C 0.16466 1.02162 0.65039 0.0
C2305 C 0.15433 0.0308 0.68192 0.0
C2306 C 0.11028 0.04 0.64812 0.0
C2307 C 0.1224 0.036 0.6172 0.0
N2308 N 0.16297 1.02078 0.59117 0.0
N2309 N 0.11765 0.05541 0.70824 0.0
C2310 C 0.15024 0.02645 0.61938 0.0
C2311 C 0.12725 0.04181 0.67979 0.0
N2312 N 0.18725 1.0055 0.64934 0.0
N2313 N 0.08137 0.04002 0.64738 0.0
H2314 H 0.12932 0.05876 0.73132 0.0
H2315 H 0.09974 0.06659 0.70864 0.0
H2316 H 0.0686 0.03804 0.62538 0.0
H2317 H 0.06986 0.03895 0.66773 0.0
H2318 H 0.19402 0.99425 0.62763 0.0
H2319 H 0.19734 1.00003 0.67015 0.0
H2320 H 0.18455 1.0185 0.59054 0.0
H2321 H 0.15224 1.02036 0.56833 0.0
C2322 C 0.87005 0.37212 0.44065 0.0
C2323 C 0.84639 0.38745 0.44837 0.0
C2324 C 0.81995 0.36155 0.39427 0.0
C2325 C 0.84496 0.34953 0.38503 0.0
N2326 N 0.89387 0.34296 0.39805 0.0
N2327 N 0.79944 0.39864 0.43316 0.0
C2328 C 0.86998 0.35439 0.40796 0.0
C2329 C 0.82138 0.3824 0.42547 0.0
N2330 N 0.89259 0.37498 0.46445 0.0
N2331 N 0.79472 0.35295 0.37321 0.0
H2332 H 0.79834 0.41189 0.45676 0.0
H2333 H 0.78301 0.40046 0.41585 0.0
H2334 H 0.79354 0.34031 0.34902 0.0
H2335 H 0.77465 0.35688 0.37999 0.0
H2336 H 0.90923 0.36197 0.46141 0.0
H2337 H 0.89382 0.38889 0.4883 0.0
H2338 H 0.91402 0.34862 0.41234 0.0
H2339 H 0.894 0.32882 0.37455 0.0
C2340 C 0.49301 1.00098 0.25323 0.0
C2341 C 0.48543 0.03289 0.25686 0.0
C2342 C 0.52009 0.05006 0.21975 0.0
C2343 C 0.5262 1.01744 0.21422 0.0
N2344 N 0.51205 0.95918 0.21793 0.0
N2345 N 0.48402 0.08225 0.23457 0.0
C2346 C 0.51054 0.99193 0.22841 0.0
C2347 C 0.4965 0.05573 0.23724 0.0
N2348 N 0.48532 0.98023 0.27457 0.0
N2349 N 0.53742 0.07598 0.20951 0.0
H2350 H 0.46559 0.08615 0.24588 0.0
H2351 H 0.4898 0.09785 0.21808 0.0
H2352 H 0.55608 0.07359 0.1981 0.0
H2353 H 0.53499 0.10073 0.21553 0.0
H2354 H 0.49271 0.95816 0.27431 0.0
H2355 H 0.47435 0.98651 0.29478 0.0
H2356 H 0.49861 0.93927 0.22523 0.0
H2357 H 0.52464 0.95168 0.19952 0.0
C2358 C 0.83173 0.72426 0.91113 0.0
C2359 C 0.82181 0.74548 0.93697 0.0
C2360 C 0.83199 0.79096 0.90652 0.0
C2361 C 0.83615 0.76825 0.87801 0.0
N2362 N 0.83881 0.71177 0.85322 0.0
N2363 N 0.80637 0.79735 0.9546 0.0
C2364 C 0.83552 0.73436 0.88033 0.0
C2365 C 0.82034 0.77839 0.93342 0.0
N2366 N 0.83915 0.69537 0.91645 0.0
N2367 N 0.83988 0.82474 0.90875 0.0
H2368 H 0.79588 0.78861 0.9735 0.0
H2369 H 0.80223 0.8202 0.95085 0.0
H2370 H 0.84984 0.83502 0.8906 0.0
H2371 H 0.83959 0.84221 0.9302 0.0
H2372 H 0.84917 0.68074 0.89969 0.0
H2373 H 0.83846 0.68802 0.93903 0.0
H2374 H 0.83504 0.68596 0.85222 0.0
H2375 H 0.84397 0.71878 0.83118 0.0
C2376 C 0.87995 0.06696 0.04763 0.0
C2377 C 0.88147 0.10147 0.04797 0.0
C2378 C 0.92795 0.10537 0.02472 0.0
C2379 C 0.92237 0.06998 0.01707 0.0
N2380 N 0.89476 1.01622 0.02273 0.0
N2381 N 0.9064 0.15363 0.03415 0.0
C2382 C 0.89916 0.05046 0.02955 0.0
C2383 C 0.90574 0.12109 0.03669 0.0
N2384 N 0.86018 0.0502 0.06461 0.0
N2385 N 0.9541 0.12377 0.01945 0.0
H2386 H 0.89015 0.16634 0.04073 0.0
H2387 H 0.922 0.1673 0.02247 0.0
H2388 H 0.97058 0.11251 1.0103 0.0
H2389 H 0.96051 0.14979 0.02738 0.0
H2390 H 0.8595 0.02568 0.06746 0.0
H2391 H 0.84627 0.06209 0.07855 0.0
H2392 H 0.87624 1.00031 0.02773 0.0
H2393 H 0.90931 1.00367 1.01071 0.0
C2394 C 0.45782 0.48538 0.08179 0.0
C2395 C 0.4454 0.45497 0.05855 0.0
C2396 C 0.49331 0.45576 0.03868 0.0
C2397 C 0.50469 0.48897 0.05761 0.0
N2398 N 0.50176 0.52653 0.10798 0.0
N2399 N 0.45047 0.41546 1.00993 0.0
C2400 C 0.48789 0.50164 0.08208 0.0
C2401 C 0.46291 0.44139 0.03567 0.0
N2402 N 0.44085 0.49891 0.10345 0.0
N2403 N 0.51154 0.43607 0.02645 0.0
H2404 H 0.42817 0.4046 1.00583 0.0
H2405 H 0.46184 0.40734 0.99054 0.0
H2406 H 0.53362 0.44155 0.03489 0.0
H2407 H 0.50415 0.4113 0.01362 0.0
H2408 H 0.44705 0.52308 0.1179 0.0
H2409 H 0.41977 0.48654 0.10589 0.0
H2410 H 0.49192 0.53534 0.12839 0.0
H2411 H 0.52433 0.53535 0.11107 0.0
C2412 C 0.406 0.69164 0.75816 0.0
C2413 C 0.40928 0.67597 0.78611 0.0
C2414 C 0.38233 0.71906 0.81483 0.0
C2415 C 0.37716 0.73326 0.78632 0.0
N2416 N 0.38375 0.72899 0.72927 0.0
N2417 N 0.39375 0.67292 0.83921 0.0
C2418 C 0.3889 0.71806 0.75764 0.0
C2419 C 0.39544 0.68939 0.81374 0.0
N2420 N 0.42056 0.68227 0.73208 0.0
N2421 N 0.37549 0.73475 0.84412 0.0
H2422 H 0.40304 0.65221 0.83973 0.0
H2423 H 0.38094 0.67774 0.85813 0.0
H2424 H 0.3656 0.75525 0.84618 0.0
H2425 H 0.38139 0.729 0.86663 0.0
H2426 H 0.42274 0.69446 0.71243 0.0
H2427 H 0.4325 0.66359 0.73136 0.0
H2428 H 0.38853 0.71773 0.70643 0.0
H2429 H 0.37243 0.74798 0.7282 0.0
C2430 C 0.20305 0.58139 0.52785 0.0
C2431 C 0.21858 0.61234 0.54704 0.0
C2432 C 0.17308 0.63296 0.54869 0.0
C2433 C 0.15657 0.60041 0.5323 0.0
N2434 N 0.15789 0.54177 0.51338 0.0
N2435 N 0.21879 0.6675 0.57825 0.0
C2436 C 0.17217 0.57426 0.52365 0.0
C2437 C 0.20369 0.63801 0.55836 0.0
N2438 N 0.21777 0.55829 0.51343 0.0
N2439 N 0.15973 0.65942 0.55487 0.0
H2440 H 0.24144 0.67359 0.5834 0.0
H2441 H 0.20879 0.68517 0.59129 0.0
H2442 H 0.13726 0.65684 0.5515 0.0
H2443 H 0.17104 0.6844 0.56203 0.0
H2444 H 0.20797 0.53789 0.49454 0.0
H2445 H 0.24019 0.56054 0.51861 0.0
H2446 H 0.16791 0.52139 0.51067 0.0
H2447 H 0.13597 0.53478 0.51317 0.0
C2448 C 0.7824 0.96067 0.73137 0.0
C2449 C 0.79581 0.99447 0.73275 0.0
C2450 C 0.82872 0.99535 0.78104 0.0
C2451 C 0.81079 0.96433 0.78393 0.0
N2452 N 0.77279 0.91518 0.7607 0.0
N2453 N 0.83901 0.03839 0.74826 0.0
C2454 C 0.78874 0.9458 0.75823 0.0
C2455 C 0.82175 1.00984 0.75395 0.0
N2456 N 0.76267 0.94393 0.70485 0.0
N2457 N 0.85129 1.01145 0.80493 0.0
H2458 H 0.83482 0.04755 0.72712 0.0
H2459 H 0.85866 0.05108 0.76229 0.0
H2460 H 0.85706 1.00115 0.82482 0.0
H2461 H 0.86387 0.03535 0.80585 0.0
H2462 H 0.75284 0.91847 0.70072 0.0
H2463 H 0.75811 0.95566 0.68552 0.0
H2464 H 0.75438 0.90208 0.74461 0.0
H2465 H 0.77734 0.90348 0.77994 0.0
C2466 C 0.79973 0.98223 0.53661 0.0
C2467 C 0.79215 0.9485 0.541 0.0
C2468 C 0.74048 0.94673 0.52527 0.0
C2469 C 0.74807 0.98084 0.52227 0.0
N2470 N 0.78334 0.03364 0.53515 0.0
N2471 N 0.75465 0.90262 0.54923 0.0
C2472 C 0.7772 0.99945 0.53143 0.0
C2473 C 0.76227 0.93198 0.53841 0.0
N2474 N 0.82809 0.99718 0.53478 0.0
N2475 N 0.71296 0.92788 0.51417 0.0
H2476 H 0.76997 0.89185 0.56026 0.0
H2477 H 0.73308 0.89107 0.55064 0.0
H2478 H 0.69637 0.93758 0.50418 0.0
H2479 H 0.70728 0.90196 0.51243 0.0
H2480 H 0.83407 1.02041 0.52814 0.0
H2481 H 0.8454 0.98523 0.53635 0.0
H2482 H 0.80378 0.0488 0.54486 0.0
H2483 H 0.76719 0.04702 0.53186 0.0
C2484 C 0.42064 0.46284 0.7961 0.0
C2485 C 0.40641 0.48414 0.78062 0.0
C2486 C 0.36448 0.4341 0.76197 0.0
C2487 C 0.37642 0.41403 0.78167 0.0
N2488 N 0.41899 0.41286 0.81812 0.0
N2489 N 0.36217 0.48941 0.75128 0.0
C2490 C 0.40535 0.42947 0.79871 0.0
C2491 C 0.37746 0.46959 0.76471 0.0
N2492 N 0.44963 0.47391 0.80776 0.0
N2493 N 0.34259 0.41847 0.73741 0.0
H2494 H 0.37109 0.51453 0.75118 0.0
H2495 H 0.34002 0.48146 0.74251 0.0
H2496 H 0.33453 0.39257 0.73237 0.0
H2497 H 0.33528 0.43039 0.71953 0.0
H2498 H 0.46269 0.45833 0.81474 0.0
H2499 H 0.46142 0.49818 0.80847 0.0
H2500 H 0.43559 0.42506 0.83706 0.0
H2501 H 0.41468 0.38706 0.81494 0.0
C2502 C 0.24957 0.67942 0.26878 0.0
C2503 C 0.27392 0.66418 0.26436 0.0
C2504 C 0.30488 0.71317 0.30067 0.0
C2505 C 0.28356 0.73174 0.29634 0.0
N2506 N 0.23199 0.73017 0.28543 0.0
N2507 N 0.32551 0.6672 0.2766 0.0
C2508 C 0.25461 0.71416 0.28346 0.0
C2509 C 0.30183 0.6812 0.28052 0.0
N2510 N 0.22173 0.66027 0.26141 0.0
N2511 N 0.32551 0.72384 0.32726 0.0
H2512 H 0.32442 0.64409 0.26095 0.0
H2513 H 0.34657 0.68024 0.28671 0.0
H2514 H 0.32558 0.74534 0.34487 0.0
H2515 H 0.3386 0.7083 0.33436 0.0
H2516 H 0.20312 0.66914 0.26676 0.0
H2517 H 0.21717 0.63439 0.25298 0.0
H2518 H 0.21174 0.72065 0.27142 0.0
H2519 H 0.2331 0.75271 0.30171 0.0
C2520 C 0.54768 0.69143 0.52472 0.0
C2521 C 0.54217 0.69132 0.49037 0.0
C2522 C 0.55045 0.63263 0.47912 0.0
C2523 C 0.5537 0.63195 0.51335 0.0
N2524 N 0.54748 0.65898 0.56794 0.0
N2525 N 0.52989 0.6561 0.4359 0.0
C2526 C 0.54964 0.66076 0.53577 0.0
C2527 C 0.54145 0.66036 0.4679 0.0
N2528 N 0.55271 0.72111 0.54712 0.0
N2529 N 0.55572 0.60654 0.45684 0.0
H2530 H 0.52046 0.67387 0.42712 0.0
H2531 H 0.52603 0.63325 0.41912 0.0
H2532 H 0.56111 0.58538 0.46351 0.0
H2533 H 0.55736 0.60732 0.43216 0.0
H2534 H 0.55922 0.7233 0.57204 0.0
H2535 H 0.55363 0.74423 0.54051 0.0
H2536 H 0.54146 0.67753 0.58485 0.0
H2537 H 0.54965 0.63776 0.57713 0.0
C2538 C 0.74117 0.35587 0.68455 0.0
C2539 C 0.71259 0.33709 0.68623 0.0
C2540 C 0.73293 0.31663 0.73346 0.0
C2541 C 0.76205 0.3331 0.73018 0.0
N2542 N 0.79374 0.36506 0.69878 0.0
N2543 N 0.68316 0.29319 0.70775 0.0
C2544 C 0.76606 0.3516 0.70448 0.0
C2545 C 0.70903 0.31595 0.70962 0.0
N2546 N 0.74448 0.37898 0.66488 0.0
N2547 N 0.72774 0.30101 0.75922 0.0
H2548 H 0.6654 0.29077 0.69028 0.0
H2549 H 0.68025 0.27413 0.72109 0.0
H2550 H 0.74419 0.29807 0.77574 0.0
H2551 H 0.70689 0.29292 0.7656 0.0
H2552 H 0.76394 0.39629 0.66512 0.0
H2553 H 0.72702 0.38282 0.65024 0.0
H2554 H 0.79842 0.37544 0.67837 0.0
H2555 H 0.81233 0.36397 0.71333 0.0
C2556 C 0.06164 0.40879 0.97486 0.0
C2557 C 0.04976 0.38588 0.99465 0.0
C2558 C 0.05233 0.4352 0.03966 0.0
C2559 C 0.06132 0.45804 0.01864 0.0
N2560 N 0.06651 0.46459 0.96302 0.0
N2561 N 0.02692 0.37921 0.04371 0.0
C2562 C 0.06316 0.44409 0.98519 0.0
C2563 C 0.04315 0.39965 0.02646 0.0
N2564 N 0.07355 0.3974 0.94717 0.0
N2565 N 0.05275 0.4472 0.07249 0.0
H2566 H 0.01886 0.35355 0.03463 0.0
H2567 H 0.01882 0.38836 0.06538 0.0
H2568 H 0.0576 0.47279 0.08274 0.0
H2569 H 0.04985 0.43178 0.08961 0.0
H2570 H 0.08498 0.41346 0.93371 0.0
H2571 H 0.07543 0.37256 0.94002 0.0
H2572 H 0.0656 0.45549 0.93779 0.0
H2573 H 0.06677 0.49015 0.96943 0.0
C2574 C 0.03123 0.79258 0.16018 0.0
C2575 C 0.05463 0.82119 0.1718 0.0
C2576 C 0.03105 0.83615 0.22145 0.0
C2577 C 1.00755 0.80802 0.2095 0.0
N2578 N 0.98122 0.76523 0.16396 0.0
N2579 N 0.07219 0.87519 0.2085 0.0
C2580 C 1.00626 0.78829 0.17756 0.0
C2581 C 0.05312 0.84453 0.20095 0.0
N2582 N 0.03362 0.76808 0.13421 0.0
N2583 N 0.03277 0.85428 0.25278 0.0
H2584 H 0.08781 0.88278 0.19332 0.0
H2585 H 0.07052 0.8944 0.22782 0.0
H2586 H 0.01636 0.84986 0.26798 0.0
H2587 H 0.05121 0.87232 0.26436 0.0
H2588 H 0.01856 0.74516 0.12714 0.0
H2589 H 0.0519 0.76889 0.12154 0.0
H2590 H 0.97782 0.75276 0.13938 0.0
H2591 H 0.96276 0.76113 0.17634 0.0
C2592 C 0.52935 0.35314 0.10236 0.0
C2593 C 0.54537 0.34297 0.12738 0.0
C2594 C 0.59091 0.37225 0.11134 0.0
C2595 C 0.57528 0.37647 0.08264 0.0
N2596 N 0.52929 0.36691 0.04843 0.0
N2597 N 0.59225 0.33638 0.15032 0.0
C2598 C 0.54431 0.36629 0.0776 0.0
C2599 C 0.57642 0.3512 0.13091 0.0
N2600 N 0.49988 0.35005 0.10218 0.0
N2601 N 0.61975 0.38774 0.11947 0.0
H2602 H 0.58276 0.31809 0.16264 0.0
H2603 H 0.61481 0.33921 0.15093 0.0
H2604 H 0.63091 0.40364 0.10563 0.0
H2605 H 0.6315 0.38755 0.14165 0.0
H2606 H 0.4875 0.35981 0.08619 0.0
H2607 H 0.48843 0.34077 0.12026 0.0
H2608 H 0.50704 0.35641 0.04228 0.0
H2609 H 0.53941 0.37526 0.02914 0.0
C2610 C 0.06184 0.3329 0.30783 0.0
C2611 C 0.07256 0.35031 0.34043 0.0
C2612 C 0.03953 0.3884 0.33804 0.0
C2613 C 0.02711 0.36939 0.30644 0.0
N2614 N 0.02347 0.32145 0.26231 0.0
N2615 N 0.06859 0.3903 0.38905 0.0
C2616 C 0.03746 0.34103 0.29153 0.0
C2617 C 0.06058 0.37691 0.35625 0.0
N2618 N 0.07549 0.30934 0.29225 0.0
N2619 N 0.03143 0.41769 0.3504 0.0
H2620 H 0.08343 0.38177 0.40334 0.0
H2621 H 0.0585 0.4074 0.40281 0.0
H2622 H 0.01572 0.42673 0.33787 0.0
H2623 H 0.04204 0.43454 0.37168 0.0
H2624 H 0.07085 0.29844 0.26728 0.0
H2625 H 0.09285 0.30211 0.30391 0.0
H2626 H 0.02782 0.29836 0.25202 0.0
H2627 H 1.00617 0.32738 0.24918 0.0
C2628 C 0.99883 0.65838 0.59022 0.0
C2629 C 0.0163 0.67783 0.61916 0.0
C2630 C 0.05941 0.66193 0.59836 0.0
C2631 C 0.04201 0.63912 0.5713 0.0
N2632 N 0.99338 0.61209 0.54385 0.0
N2633 N 0.06141 0.68798 0.65519 0.0
C2634 C 1.01112 0.63628 0.56774 0.0
C2635 C 0.04593 0.67615 0.62479 0.0
N2636 N 0.97062 0.66123 0.58419 0.0
N2637 N 0.08877 0.6718 0.59792 0.0
H2638 H 0.05174 0.69596 0.67597 0.0
H2639 H 0.08274 0.68533 0.66037 0.0
H2640 H 0.09876 0.664 0.57727 0.0
H2641 H 0.10216 0.69061 0.6161 0.0
H2642 H 0.95775 0.65079 0.56175 0.0
H2643 H 0.96059 0.67546 0.60139 0.0
H2644 H 0.97069 0.60631 0.54284 0.0
H2645 H 1.0013 0.59617 0.5263 0.0
C2646 C 0.72063 0.84524 0.80251 0.0
C2647 C 0.7225 0.85445 0.83733 0.0
C2648 C 0.77149 0.84524 0.84246 0.0
C2649 C 0.77145 0.83891 0.80758 0.0
N2650 N 0.74662 0.83731 0.75444 0.0
N2651 N 0.75311 0.87326 0.88958 0.0
C2652 C 0.74619 0.84052 0.78757 0.0
C2653 C 0.74918 0.8585 0.85684 0.0
N2654 N 0.69445 0.84085 0.78388 0.0
N2655 N 0.79067 0.83513 0.86223 0.0
H2656 H 0.73724 0.88244 0.9022 0.0
H2657 H 0.77352 0.87944 0.90358 0.0
H2658 H 0.80511 0.8213 0.85312 0.0
H2659 H 0.78877 0.83541 0.88706 0.0
H2660 H 0.69065 0.83014 0.75884 0.0
H2661 H 0.67602 0.8467 0.79395 0.0
H2662 H 0.72963 0.84019 0.73851 0.0
H2663 H 0.76532 0.83464 0.74341 0.0
C2664 C 0.4937 0.58701 0.66122 0.0
C2665 C 0.50527 0.5805 0.6919 0.0
C2666 C 0.54898 0.5703 0.66196 0.0
C2667 C 0.5363 0.5733 0.63012 0.0
N2668 N 0.4936 0.58353 0.60163 0.0
N2669 N 0.54254 0.55805 0.71662 0.0
C2670 C 0.50769 0.58105 0.63062 0.0
C2671 C 0.53257 0.57019 0.69068 0.0
N2672 N 0.46986 0.60105 0.66152 0.0
N2673 N 0.57745 0.56816 0.66571 0.0
H2674 H 0.53153 0.5567 0.73731 0.0
H2675 H 0.55983 0.54586 0.71607 0.0
H2676 H 0.59028 0.56777 0.64662 0.0
H2677 H 0.58921 0.57028 0.6885 0.0
H2678 H 0.46187 0.61038 0.642 0.0
H2679 H 0.4596 0.60635 0.68261 0.0
H2680 H 0.47158 0.5841 0.59841 0.0
H2681 H 0.50362 0.58352 0.58016 0.0
C2682 C 0.79714 0.19661 0.9557 0.0
C2683 C 0.79558 0.19943 0.98981 0.0
C2684 C 0.7722 0.24675 0.9918 0.0
C2685 C 0.77186 0.24284 0.95739 0.0
N2686 N 0.77713 0.20884 0.90516 0.0
N2687 N 0.76994 0.21712 0.03597 0.0
C2688 C 0.78224 0.21609 0.93876 0.0
C2689 C 0.77969 0.22154 1.0067 0.0
N2690 N 0.8132 0.17604 0.93977 0.0
N2691 N 0.76627 0.27482 1.01053 0.0
H2692 H 0.77158 0.19613 0.04555 0.0
H2693 H 0.75643 0.23132 0.04786 0.0
H2694 H 0.76144 0.2947 1.00075 0.0
H2695 H 0.76908 0.2797 0.0362 0.0
H2696 H 0.81747 0.17562 0.91552 0.0
H2697 H 0.824 0.16116 0.95166 0.0
H2698 H 0.78204 0.18787 0.89056 0.0
H2699 H 0.76535 0.22193 0.89205 0.0
C2700 C 0.16365 0.51456 0.14126 0.0
C2701 C 0.17276 0.54224 0.16788 0.0
C2702 C 0.12912 0.56325 0.15619 0.0
C2703 C 0.12134 0.53736 0.12774 0.0
N2704 N 0.12562 0.48336 0.09811 0.0
N2705 N 0.16493 0.59235 0.20264 0.0
C2706 C 0.13689 0.51134 0.12191 0.0
C2707 C 0.15539 0.56609 0.17634 0.0
N2708 N 0.18136 0.49251 0.13358 0.0
N2709 N 0.11135 0.58512 0.16352 0.0
H2710 H 0.1836 0.59447 0.21853 0.0
H2711 H 0.15524 0.61274 0.20841 0.0
H2712 H 0.09307 0.58449 0.14773 0.0
H2713 H 0.11378 0.6029 0.18529 0.0
H2714 H 0.17773 0.47398 0.11219 0.0
H2715 H 0.20097 0.49394 0.14779 0.0
H2716 H 0.13432 0.46203 0.09393 0.0
H2717 H 0.10559 0.48033 0.08461 0.0
C2718 C 0.84876 0.81614 0.43342 0.0
C2719 C 0.84573 0.84884 0.44804 0.0
C2720 C 0.83287 0.85889 0.39284 0.0
C2721 C 0.8345 0.82555 0.37803 0.0
N2722 N 0.8365 0.76989 0.38586 0.0
N2723 N 0.82673 0.8974 0.44194 0.0
C2724 C 0.84012 0.80339 0.39887 0.0
C2725 C 0.83565 0.86918 0.42779 0.0
N2726 N 0.8608 0.79759 0.45226 0.0
N2727 N 0.82814 0.88087 0.37356 0.0
H2728 H 0.82713 0.90525 0.46727 0.0
H2729 H 0.81579 0.91105 0.42869 0.0
H2730 H 0.82557 0.87446 0.34809 0.0
H2731 H 0.82983 0.90641 0.38256 0.0
H2732 H 0.86632 0.77501 0.44249 0.0
H2733 H 0.86754 0.8062 0.47739 0.0
H2734 H 0.8372 0.75192 0.40015 0.0
H2735 H 0.83091 0.75976 0.36079 0.0
C2736 C 0.5362 0.59754 0.89969 0.0
C2737 C 0.50791 0.57773 0.8842 0.0
C2738 C 0.50845 0.54959 0.9342 0.0
C2739 C 0.53755 0.56736 0.94859 0.0
N2740 N 0.57357 0.61716 0.94777 0.0
N2741 N 0.47159 0.5282 0.8863 0.0
C2742 C 0.54989 0.59341 0.93153 0.0
C2743 C 0.49556 0.55203 0.90155 0.0
N2744 N 0.55043 0.62117 0.88417 0.0
N2745 N 0.49122 0.53263 0.95331 0.0
H2746 H 0.46141 0.52826 0.86328 0.0
H2747 H 0.46377 0.50645 0.89496 0.0
H2748 H 0.4984 0.53213 0.97748 0.0
H2749 H 0.46901 0.52223 0.94656 0.0
H2750 H 0.57241 0.63299 0.89017 0.0
H2751 H 0.54066 0.62797 0.86397 0.0
H2752 H 0.58256 0.63898 0.93995 0.0
H2753 H 0.58287 0.61664 0.97109 0.0
C2754 C 0.83031 0.25722 0.13847 0.0
C2755 C 0.81089 0.22525 0.13557 0.0
C2756 C 0.78175 0.25161 0.17421 0.0
C2757 C 0.80523 0.27973 0.18291 0.0
N2758 N 0.83721 0.31739 0.15849 0.0
N2759 N 0.767 0.19234 0.15151 0.0
C2760 C 0.82518 0.28526 0.16035 0.0
C2761 C 0.78592 0.22247 0.15323 0.0
N2762 N 0.85471 0.26043 0.12244 0.0
N2763 N 0.75577 0.25323 0.18622 0.0
H2764 H 0.7685 0.16988 0.13663 0.0
H2765 H 0.75065 0.18911 0.16691 0.0
H2766 H 0.75281 0.27541 0.20083 0.0
H2767 H 0.73683 0.23441 0.17888 0.0
H2768 H 0.87007 0.28301 0.12544 0.0
H2769 H 0.86119 0.24004 0.10871 0.0
H2770 H 0.84916 0.32337 0.1395 0.0
H2771 H 0.83157 0.33759 0.17371 0.0
C2772 C 0.21808 0.60427 0.34123 0.0
C2773 C 0.2068 0.57293 0.31947 0.0
C2774 C 0.15805 0.57224 0.3355 0.0
C2775 C 0.16913 0.60416 0.35662 0.0
N2776 N 0.21058 0.64513 0.38757 0.0
N2777 N 0.16951 0.52238 0.30335 0.0
C2778 C 0.19949 0.61847 0.36209 0.0
C2779 C 0.1779 0.5552 0.31952 0.0
N2780 N 0.24585 0.62157 0.34034 0.0
N2781 N 0.1286 0.55925 0.32911 0.0
H2782 H 0.18416 0.50985 0.29145 0.0
H2783 H 0.14933 0.50698 0.30451 0.0
H2784 H 0.11317 0.57154 0.33941 0.0
H2785 H 0.11929 0.5376 0.31149 0.0
H2786 H 0.25331 0.64689 0.35125 0.0
H2787 H 0.26094 0.61095 0.32742 0.0
H2788 H 0.23288 0.65441 0.39448 0.0
H2789 H 0.19756 0.65574 0.40383 0.0
C2790 C 0.81245 0.84094 0.63939 0.0
C2791 C 0.84134 0.84871 0.63067 0.0
C2792 C 0.85856 0.8252 0.67643 0.0
C2793 C 0.83047 0.82097 0.68828 0.0
N2794 N 0.7798 0.824 0.67853 0.0
N2795 N 0.89234 0.84861 0.64176 0.0
C2796 C 0.80711 0.82831 0.66883 0.0
C2797 C 0.86433 0.84089 0.6494 0.0
N2798 N 0.78975 0.84394 0.61846 0.0
N2799 N 0.88069 0.81368 0.68989 0.0
H2800 H 0.89817 0.86102 0.62284 0.0
H2801 H 0.90999 0.84362 0.65522 0.0
H2802 H 0.87867 0.79981 0.70827 0.0
H2803 H 0.87867 0.79981 0.70827 0.0
H2804 H 0.76784 0.83523 0.62091 0.0
H2805 H 0.79272 0.85273 0.59679 0.0
H2806 H 0.76355 0.83492 0.66977 0.0
H2807 H 0.77311 0.80933 0.6953 0.0
C2808 C 0.76126 0.49306 0.55207 0.0
C2809 C 0.78343 0.50425 0.53271 0.0
C2810 C 0.76824 0.55732 0.53517 0.0
C2811 C 0.7476 0.54707 0.55635 0.0
N2812 N 0.71729 0.50229 0.57569 0.0
N2813 N 0.80191 0.54103 0.49711 0.0
C2814 C 0.74152 0.51374 0.56138 0.0
C2815 C 0.78476 0.53445 0.52122 0.0
N2816 N 0.76056 0.46441 0.56403 0.0
N2817 N 0.77293 0.58936 0.52977 0.0
H2818 H 0.81381 0.52411 0.48624 0.0
H2819 H 0.80222 0.56142 0.48579 0.0
H2820 H 0.76016 0.60617 0.53855 0.0
H2821 H 0.79009 0.59972 0.51782 0.0
H2822 H 0.74726 0.45762 0.58167 0.0
H2823 H 0.77453 0.44827 0.5582 0.0
H2824 H 0.7101 0.47719 0.57706 0.0
H2825 H 0.70275 0.5173 0.58328 0.0
C2826 C 0.1946 0.15469 0.49133 0.0
C2827 C 0.21895 0.1544 0.51344 0.0
C2828 C 0.18923 0.10913 0.53476 0.0
C2829 C 0.16401 0.11163 0.51515 0.0
N2830 N 0.14211 0.13817 0.47594 0.0
N2831 N 0.23818 0.13593 0.56054 0.0
C2832 C 0.16654 0.13492 0.49382 0.0
C2833 C 0.216 0.13265 0.53611 0.0
N2834 N 0.19858 0.17279 0.46711 0.0
N2835 N 0.18771 0.08452 0.55259 0.0
H2836 H 0.25802 0.15332 0.56323 0.0
H2837 H 0.23598 0.12378 0.58026 0.0
H2838 H 0.16818 0.06893 0.5551 0.0
H2839 H 0.20602 0.07832 0.56334 0.0
H2840 H 0.18251 0.17144 0.44802 0.0
H2841 H 0.21881 0.18733 0.46455 0.0
H2842 H 0.14175 0.15738 0.46314 0.0
H2843 H 0.12165 0.12254 0.47522 0.0
C2844 C 0.27437 0.94152 0.80851 0.0
C2845 C 0.25517 0.94327 0.78035 0.0
C2846 C 0.26745 0.88753 0.75368 0.0
C2847 C 0.28791 0.88665 0.78102 0.0
N2848 N 0.31112 0.91676 0.83426 0.0
N2849 N 0.2392 0.91829 0.7233 0.0
C2850 C 0.29139 0.91508 0.80806 0.0
C2851 C 0.25343 0.91619 0.75236 0.0
N2852 N 0.27498 0.96405 0.83715 0.0
N2853 N 0.26036 0.85989 0.72862 0.0
H2854 H 0.2294 0.93819 0.72082 0.0
H2855 H 0.23953 0.90223 0.70097 0.0
H2856 H 0.27109 0.8401 0.72719 0.0
H2857 H 0.24283 0.85563 0.71042 0.0
H2858 H 0.28531 0.96284 0.85972 0.0
H2859 H 0.26277 0.98245 0.83926 0.0
H2860 H 0.31836 0.93773 0.85325 0.0
H2861 H 0.32235 0.8978 0.83525 0.0
C2862 C 0.46287 0.02401 0.06253 0.0
C2863 C 0.44395 1.01848 0.03296 0.0
C2864 C 0.4825 0.05163 1.00948 0.0
C2865 C 0.50274 0.04766 0.03391 0.0
N2866 N 0.50952 0.05412 0.0922 0.0
N2867 N 0.43537 0.02917 0.97807 0.0
C2868 C 0.49226 0.04075 0.06329 0.0
C2869 C 0.45342 0.03327 1.00642 0.0
N2870 N 0.45299 1.01299 0.0895 0.0
N2871 N 0.48919 0.07842 0.99515 0.0
H2872 H 0.41384 1.01536 0.97438 0.0
H2873 H 0.44284 0.03783 0.95756 0.0
H2874 H 0.5086 0.0962 1.0036 0.0
H2875 H 0.47392 0.08525 0.97977 0.0
H2876 H 0.46681 1.01269 0.11014 0.0
H2877 H 0.43099 1.00316 0.09084 0.0
H2878 H 0.50257 0.05338 0.11526 0.0
H2879 H 0.52952 0.07026 0.09244 0.0
C2880 C 0.85783 0.57378 0.76537 0.0
C2881 C 0.86493 0.58726 0.79982 0.0
C2882 C 0.81394 0.58946 0.80374 0.0
C2883 C 0.80928 0.58515 0.76913 0.0
N2884 N 0.8267 0.57299 0.71625 0.0
N2885 N 0.84966 0.60983 0.85187 0.0
C2886 C 0.831 0.57656 0.74963 0.0
C2887 C 0.84281 0.5951 0.81923 0.0
N2888 N 0.8758 0.55702 0.74789 0.0
N2889 N 0.79085 0.59071 0.82153 0.0
H2890 H 0.87095 0.61607 0.86372 0.0
H2891 H 0.83472 0.61878 0.86641 0.0
H2892 H 0.76966 0.58733 0.81 0.0
H2893 H 0.79235 0.59182 0.84682 0.0
H2894 H 0.87001 0.54438 0.72345 0.0
H2895 H 0.89479 0.55215 0.75847 0.0
H2896 H 0.84334 0.57128 0.70127 0.0
H2897 H 0.80672 0.57336 0.70384 0.0
C2898 C 0.87292 0.63177 0.02034 0.0
C2899 C 0.87162 0.66328 0.03972 0.0
C2900 C 0.91298 0.66051 0.07769 0.0
C2901 C 0.91097 0.62687 0.06135 0.0
N2902 N 0.88826 0.57916 0.01822 0.0
N2903 N 0.88829 0.70628 0.08929 0.0
C2904 C 0.89085 0.61215 0.0328 0.0
C2905 C 0.89135 0.67762 0.06884 0.0
N2906 N 0.85761 0.6211 0.98965 0.0
N2907 N 0.93569 0.67615 0.10155 0.0
H2908 H 0.87244 0.71951 0.08451 0.0
H2909 H 0.8999 0.7155 0.1126 0.0
H2910 H 0.95174 0.66418 0.10899 0.0
H2911 H 0.94009 0.70178 0.11178 0.0
H2912 H 0.85979 0.59987 0.97306 0.0
H2913 H 0.84488 0.63537 0.97949 0.0
H2914 H 0.8717 0.56594 0.99965 0.0
H2915 H 0.90151 0.56422 0.02621 0.0
C2916 C 0.27625 0.14092 0.76597 0.0
C2917 C 0.25638 0.13377 0.78949 0.0
C2918 C 0.2686 0.19614 0.81378 0.0
C2919 C 0.28864 0.20318 0.7903 0.0
N2920 N 0.31492 0.17956 0.74777 0.0
N2921 N 0.23356 0.15603 0.83588 0.0
C2922 C 0.29345 0.17468 0.76774 0.0
C2923 C 0.2526 0.16196 0.8133 0.0
N2924 N 0.27708 0.11582 0.73985 0.0
N2925 N 0.26645 0.2221 0.83835 0.0
H2926 H 0.22449 0.13198 0.83916 0.0
H2927 H 0.22605 0.17456 0.85109 0.0
H2928 H 0.27847 0.24647 0.8404 0.0
H2929 H 0.25462 0.21969 0.85818 0.0
H2930 H 0.28788 0.11974 0.71951 0.0
H2931 H 0.26451 0.09147 0.73659 0.0
H2932 H 0.32302 0.16017 0.73463 0.0
H2933 H 0.32608 0.2033 0.74594 0.0
C2934 C 0.40763 0.94119 0.32595 0.0
C2935 C 0.39067 0.96574 0.32631 0.0
C2936 C 0.34813 0.92321 0.29836 0.0
C2937 C 0.36404 0.898 0.30091 0.0
N2938 N 0.40856 0.8826 0.31968 0.0
N2939 N 0.34441 0.98081 0.3179 0.0
C2940 C 0.39371 0.90686 0.31535 0.0
C2941 C 0.36077 0.95689 0.31398 0.0
N2942 N 0.4373 0.95066 0.33397 0.0
N2943 N 0.32104 0.91508 0.28099 0.0
H2944 H 0.35307 1.0056 0.33023 0.0
H2945 H 0.32185 0.97559 0.31198 0.0
H2946 H 0.31059 0.89055 0.27033 0.0
H2947 H 0.3097 0.93271 0.27524 0.0
H2948 H 0.4513 0.93433 0.32919 0.0
H2949 H 0.44855 0.97539 0.34323 0.0
H2950 H 0.42882 0.88758 0.33367 0.0
H2951 H 0.3996 0.85704 0.31264 0.0
C2952 C 0.62667 0.42848 0.5548 0.0
C2953 C 0.62081 0.42042 0.58607 0.0
C2954 C 0.60621 0.47551 0.60039 0.0
C2955 C 0.61003 0.48292 0.5686 0.0
N2956 N 0.62221 0.46397 0.51452 0.0
N2957 N 0.59581 0.43329 0.63366 0.0
C2958 C 0.61957 0.4584 0.5455 0.0
C2959 C 0.60817 0.44326 0.60743 0.0
N2960 N 0.64061 0.40861 0.53457 0.0
N2961 N 0.60026 0.49951 0.62437 0.0
H2962 H 0.59432 0.40922 0.63828 0.0
H2963 H 0.58365 0.44718 0.64828 0.0
H2964 H 0.59565 0.52151 0.61922 0.0
H2965 H 0.60118 0.49807 0.64914 0.0
H2966 H 0.6483 0.41435 0.51306 0.0
H2967 H 0.64655 0.38743 0.54056 0.0
H2968 H 0.6257 0.44616 0.49494 0.0
H2969 H 0.61852 0.48594 0.50799 0.0
C2970 C 0.43481 0.75393 0.37166 0.0
C2971 C 0.44852 0.77836 0.40006 0.0
C2972 C 0.40593 0.8047 0.39665 0.0
C2973 C 0.39525 0.78539 0.36411 0.0
N2974 N 0.39846 0.73607 0.32411 0.0
N2975 N 0.44861 0.83125 0.43596 0.0
C2976 C 0.40959 0.75857 0.35259 0.0
C2977 C 0.43452 0.80493 0.41141 0.0
N2978 N 0.44481 0.72502 0.36391 0.0
N2979 N 0.38819 0.82042 0.41537 0.0
H2980 H 0.46968 0.83322 0.447 0.0
H2981 H 0.44048 0.85281 0.44275 0.0
H2982 H 0.36574 0.8156 0.40935 0.0
H2983 H 0.39473 0.83308 0.43972 0.0
H2984 H 0.4342 0.70417 0.34601 0.0
H2985 H 0.4624 0.72031 0.37762 0.0
H2986 H 0.41006 0.71998 0.31142 0.0
H2987 H 0.37749 0.7334 0.31299 0.0
C2988 C 0.09756 0.7032 0.05951 0.0
C2989 C 0.11664 0.72191 0.08802 0.0
C2990 C 0.12027 0.66768 0.1037 0.0
C2991 C 0.10079 0.64861 0.07548 0.0
N2992 N 0.06505 0.65033 0.03163 0.0
N2993 N 0.15185 0.72089 0.13242 0.0
C2994 C 0.08831 0.66695 0.05434 0.0
C2995 C 0.12943 0.70372 0.10874 0.0
N2996 N 0.08803 0.72008 0.0372 0.0
N2997 N 0.12909 0.6514 0.12696 0.0
H2998 H 0.15983 0.74681 0.13606 0.0
H2999 H 0.16463 0.70927 0.14601 0.0
H3000 H 0.12502 0.62531 0.12327 0.0
H3001 H 0.13932 0.66358 0.15035 0.0
H3002 H 0.07714 0.70822 0.014 0.0
H3003 H 0.09314 0.74623 0.04081 0.0
H3004 H 0.0524 0.66226 0.01826 0.0
H3005 H 0.05652 0.6246 0.02806 0.0
C3006 C 0.1068 0.31511 0.87376 0.0
C3007 C 0.10742 0.29725 0.89978 0.0
C3008 C 0.16052 0.3026 0.89865 0.0
C3009 C 0.15977 0.32032 0.87263 0.0
N3010 N 0.1314 0.33522 0.82961 0.0
N3011 N 0.1333 0.26649 0.93088 0.0
C3012 C 0.13253 0.32363 0.8582 0.0
C3013 C 0.13384 0.28865 0.91031 0.0
N3014 N 0.08237 0.32619 0.86541 0.0
N3015 N 0.18683 0.30036 0.9132 0.0
H3016 H 0.11412 0.25533 0.93927 0.0
H3017 H 0.15115 0.25669 0.93707 0.0
H3018 H 0.20657 0.30909 0.90451 0.0
H3019 H 0.18925 0.29152 0.93484 0.0
H3020 H 0.08179 0.34257 0.84936 0.0
H3021 H 0.06331 0.32156 0.87662 0.0
H3022 H 0.11193 0.33525 0.81599 0.0
H3023 H 0.14993 0.34162 0.81783 0.0
C3024 C 0.60357 0.75123 0.92826 0.0
C3025 C 0.63223 0.77191 0.9372 0.0
C3026 C 0.6356 0.75284 0.98938 0.0
C3027 C 0.60705 0.73236 0.98022 0.0
N3028 N 0.56787 0.704 0.93758 0.0
N3029 N 0.67822 0.78552 0.97166 0.0
C3030 C 0.59254 0.72873 0.94837 0.0
C3031 C 0.64917 0.77039 0.96631 0.0
N3032 N 0.58571 0.75491 0.90236 0.0
N3033 N 0.64909 0.75689 0.02055 0.0
H3034 H 0.68873 0.79808 0.95484 0.0
H3035 H 0.69239 0.78286 0.99093 0.0
H3036 H 0.63998 0.74409 0.03793 0.0
H3037 H 0.66847 0.77443 0.02986 0.0
H3038 H 0.56352 0.74363 0.89785 0.0
H3039 H 0.59192 0.77135 0.88687 0.0
H3040 H 0.55805 0.69785 0.91331 0.0
H3041 H 0.55893 0.6874 0.95204 0.0
C3042 C 0.08937 0.74296 0.7393 0.0
C3043 C 0.09272 0.7718 0.72514 0.0
C3044 C 0.14378 0.78963 0.74882 0.0
C3045 C 0.14093 0.7593 0.76087 0.0
N3046 N 0.11351 0.70288 0.75845 0.0
N3047 N 0.12414 0.81851 0.70974 0.0
C3048 C 0.11446 0.73462 0.75327 0.0
C3049 C 0.12033 0.79381 0.72762 0.0
N3050 N 0.06219 0.72393 0.7402 0.0
N3051 N 0.16796 0.81517 0.75899 0.0
H3052 H 0.10709 0.82266 0.69465 0.0
H3053 H 0.14458 0.83295 0.70785 0.0
H3054 H 0.18509 0.814 0.77576 0.0
H3055 H 0.16979 0.8388 0.75318 0.0
H3056 H 0.05854 0.70464 0.75325 0.0
H3057 H 0.04305 0.72919 0.73032 0.0
H3058 H 0.09538 0.68308 0.75039 0.0
H3059 H 0.13191 0.69547 0.7675 0.0
C3060 C 0.14562 0.45901 0.44071 0.0
C3061 C 0.13572 0.42806 0.45086 0.0
C3062 C 0.09267 0.44691 0.46897 0.0
C3063 C 0.10287 0.47863 0.46112 0.0
N3064 N 0.14125 0.51642 0.44185 0.0
N3065 N 0.10731 0.40081 0.48799 0.0
C3066 C 0.12975 0.48506 0.4471 0.0
C3067 C 0.11156 0.42463 0.46917 0.0
N3068 N 0.17062 0.46407 0.4259 0.0
N3069 N 0.0648 0.43812 0.47657 0.0
H3070 H 0.1229 0.38687 0.49195 0.0
H3071 H 0.09062 0.39833 0.50307 0.0
H3072 H 0.05008 0.45377 0.47611 0.0
H3073 H 0.05559 0.41407 0.47987 0.0
H3074 H 0.17594 0.48253 0.41216 0.0
H3075 H 0.1866 0.45036 0.42829 0.0
H3076 H 0.16244 0.52389 0.43619 0.0
H3077 H 0.1306 0.53616 0.44497 0.0
C3078 C 0.41439 0.23978 0.20432 0.0
C3079 C 0.43898 0.26172 0.2243 0.0
C3080 C 0.40918 0.27013 0.26961 0.0
C3081 C 0.38412 0.25655 0.24659 0.0
N3082 N 0.3653 0.20789 0.20354 0.0
N3083 N 0.46163 0.29291 0.27813 0.0
C3084 C 0.38724 0.23509 0.21706 0.0
C3085 C 0.43714 0.27487 0.25795 0.0
N3086 N 0.41691 0.22326 0.17338 0.0
N3087 N 0.40625 0.27565 0.30226 0.0
H3088 H 0.48227 0.29724 0.2701 0.0
H3089 H 0.46129 0.30502 0.3023 0.0
H3090 H 0.38601 0.26833 0.31027 0.0
H3091 H 0.42378 0.2831 0.3208 0.0
H3092 H 0.39895 0.21043 0.15641 0.0
H3093 H 0.43693 0.22319 0.16421 0.0
H3094 H 0.36698 0.18949 0.18346 0.0
H3095 H 0.34726 0.20109 0.21584 0.0
C3096 C 0.63918 0.50926 0.38904 0.0
C3097 C 0.66011 0.53598 0.38047 0.0
C3098 C 0.65574 0.56952 0.43752 0.0
C3099 C 0.63314 0.54362 0.44546 0.0
N3100 N 0.61401 0.48406 0.43068 0.0
N3101 N 0.68161 0.59514 0.39644 0.0
C3102 C 0.62751 0.51246 0.42123 0.0
C3103 C 0.66654 0.5668 0.40495 0.0
N3104 N 0.62982 0.48002 0.36619 0.0
N3105 N 0.66911 0.59652 0.46166 0.0
H3106 H 0.68886 0.59527 0.37342 0.0
H3107 H 0.68376 0.61923 0.41053 0.0
H3108 H 0.66416 0.60008 0.48566 0.0
H3109 H 0.688 0.61347 0.45909 0.0
H3110 H 0.6115 0.46175 0.36779 0.0
H3111 H 0.63919 0.47482 0.3445 0.0
H3112 H 0.61239 0.45982 0.41724 0.0
H3113 H 0.60769 0.48448 0.45409 0.0
C3114 C 0.3532 0.90075 0.12078 0.0
C3115 C 0.3665 0.93443 0.12104 0.0
C3116 C 0.39461 0.93773 0.17367 0.0
C3117 C 0.38766 0.90205 0.16786 0.0
N3118 N 0.36208 0.84897 0.13244 0.0
N3119 N 0.39918 0.98664 0.14906 0.0
C3120 C 0.36685 0.88324 0.14094 0.0
C3121 C 0.38653 0.9538 0.14826 0.0
N3122 N 0.32823 0.88532 0.1002 0.0
N3123 N 0.40883 0.95602 0.2033 0.0
H3124 H 0.39301 0.9999 0.13184 0.0
H3125 H 0.41675 1.00036 0.16619 0.0
H3126 H 0.41439 0.94475 0.22257 0.0
H3127 H 0.41239 0.98213 0.20982 0.0
H3128 H 0.31636 0.86137 0.10083 0.0
H3129 H 0.31789 0.89818 0.08528 0.0
H3130 H 0.34892 0.83494 0.11116 0.0
H3131 H 0.37361 0.83471 0.14418 0.0
C3132 C 0.02551 0.60125 0.91653 0.0
C3133 C 0.99554 0.58525 0.91111 0.0
C3134 C 1.00373 0.54888 0.94785 0.0
C3135 C 0.03285 0.56736 0.95744 0.0
N3136 N 0.06843 0.61852 0.95631 0.0
N3137 N 0.95467 0.55201 0.93014 0.0
C3138 C 0.04313 0.5958 0.94338 0.0
C3139 C 0.98412 0.56254 0.93049 0.0
N3140 N 0.03722 0.62092 0.89588 0.0
N3141 N 0.99572 0.51663 0.9518 0.0
H3142 H 0.9398 0.56191 0.91724 0.0
H3143 H 0.94564 0.53632 0.94538 0.0
H3144 H 1.01169 0.50357 0.95662 0.0
H3145 H 0.97477 0.50173 0.94411 0.0
H3146 H 0.05966 0.63009 0.89675 0.0
H3147 H 0.02441 0.62625 0.87683 0.0
H3148 H 0.07527 0.64072 0.948 0.0
H3149 H 0.08077 0.61726 0.97755 0.0
C3150 C 0.29166 0.23837 0.64275 0.0
C3151 C 0.30685 0.25995 0.62393 0.0
C3152 C 0.32715 0.3009 0.67586 0.0
C3153 C 0.31571 0.27675 0.69464 0.0
N3154 N 0.28959 0.22034 0.69454 0.0
N3155 N 0.34125 0.31127 0.62297 0.0
C3156 C 0.29873 0.24491 0.67756 0.0
C3157 C 0.32473 0.29144 0.64055 0.0
N3158 N 0.26949 0.21203 0.62737 0.0
N3159 N 0.3412 0.33261 0.69161 0.0
H3160 H 0.34031 0.30532 0.59742 0.0
H3161 H 0.35751 0.33235 0.63375 0.0
H3162 H 0.34536 0.33989 0.71704 0.0
H3163 H 0.34679 0.35242 0.67954 0.0
H3164 H 0.25589 0.19699 0.63997 0.0
H3165 H 0.26242 0.20781 0.60228 0.0
H3166 H 0.28098 0.19528 0.6832 0.0
H3167 H 0.29145 0.22492 0.72011 0.0
C3168 C 0.63026 0.5397 0.17768 0.0
C3169 C 0.65624 0.52666 0.18224 0.0
C3170 C 0.6513 0.51221 0.1195 0.0
C3171 C 0.62767 0.52914 0.11471 0.0
N3172 N 0.58719 0.54228 0.14197 0.0
N3173 N 0.69194 0.50239 0.15352 0.0
C3174 C 0.61519 0.53833 0.14475 0.0
C3175 C 0.66686 0.51404 0.15194 0.0
N3176 N 0.6205 0.55554 0.20502 0.0
N3177 N 0.65609 0.48912 0.09365 0.0
H3178 H 0.70181 0.49809 0.17503 0.0
H3179 H 0.70373 0.49849 0.13346 0.0
H3180 H 0.64127 0.47979 0.0726 0.0
H3181 H 0.67091 0.47384 0.09537 0.0
H3182 H 0.60419 0.56904 0.20398 0.0
H3183 H 0.63063 0.5579 0.22872 0.0
H3184 H 0.57502 0.54518 0.1618 0.0
H3185 H 0.57519 0.53896 0.1191 0.0
C3186 C 0.37469 0.87534 0.93401 0.0
C3187 C 0.35321 0.89408 0.94193 0.0
C3188 C 0.32381 0.86742 0.8899 0.0
C3189 C 0.34694 0.85217 0.87993 0.0
N3190 N 0.3948 0.84167 0.89109 0.0
N3191 N 0.30919 0.91175 0.92659 0.0
C3192 C 0.37251 0.85594 0.90167 0.0
C3193 C 0.32829 0.89123 0.91967 0.0
N3194 N 0.39702 0.87619 0.95735 0.0
N3195 N 0.29727 0.85857 0.87129 0.0
H3196 H 0.31075 0.92853 0.949 0.0
H3197 H 0.29297 0.91388 0.90917 0.0
H3198 H 0.29329 0.84118 0.84924 0.0
H3199 H 0.27867 0.86618 0.879 0.0
H3200 H 0.41173 0.86055 0.95415 0.0
H3201 H 0.39976 0.89115 0.98096 0.0
H3202 H 0.41532 0.84644 0.90447 0.0
H3203 H 0.39324 0.82613 0.86793 0.0
C3204 C 0.99412 0.50603 0.74757 0.0
C3205 C 0.9883 0.53889 0.75253 0.0
C3206 C 0.02547 0.5561 0.718 0.0
C3207 C 0.02942 0.5226 0.71067 0.0
N3208 N 1.01194 0.46391 0.71123 0.0
N3209 N 0.99192 0.59133 0.73442 0.0
C3210 C 1.01199 0.49691 0.72315 0.0
C3211 C 1.00203 0.56284 0.73535 0.0
N3212 N 0.98423 0.48421 0.76725 0.0
N3213 N 0.04442 0.58157 0.70898 0.0
H3214 H 0.97371 0.59629 0.7456 0.0
H3215 H 0.99949 0.60798 0.71947 0.0
H3216 H 0.06255 0.5779 0.697 0.0
H3217 H 0.04379 0.60681 0.71633 0.0
H3218 H 0.99019 0.46121 0.76607 0.0
H3219 H 0.97284 0.49029 0.78719 0.0
H3220 H 0.99702 0.44411 0.71691 0.0
H3221 H 0.02495 0.45631 0.69333 0.0
C3222 C 0.34229 0.26475 0.42604 0.0
C3223 C 0.31569 0.24337 0.43028 0.0
C3224 C 0.30406 0.22722 0.36982 0.0
C3225 C 0.32812 0.25247 0.36571 0.0
N3226 N 0.37745 0.27905 0.38854 0.0
N3227 N 0.269 0.20805 0.40563 0.0
C3228 C 0.34929 0.26717 0.39355 0.0
C3229 C 0.29603 0.22562 0.40196 0.0
N3230 N 0.36113 0.28277 0.45289 0.0
N3231 N 0.29102 0.20212 0.3437 0.0
H3232 H 0.26175 0.20713 0.42859 0.0
H3233 H 0.25271 0.19759 0.38594 0.0
H3234 H 0.3002 0.19828 0.32169 0.0
H3235 H 0.27467 0.18176 0.3457 0.0
H3236 H 0.37868 0.30212 0.45152 0.0
H3237 H 0.35828 0.28007 0.47688 0.0
H3238 H 0.39484 0.28711 0.40724 0.0
H3239 H 0.38402 0.27635 0.36506 0.0
C3240 C 0.38928 0.57913 0.5581 0.0
C3241 C 0.37611 0.59844 0.53925 0.0
C3242 C 0.40595 0.58522 0.4951 0.0
C3243 C 0.41501 0.56126 0.51117 0.0
N3244 N 0.41584 0.53471 0.55795 0.0
N3245 N 0.36919 0.61693 0.48794 0.0
C3246 C 0.40722 0.55833 0.54297 0.0
C3247 C 0.38397 0.60111 0.5074 0.0
N3248 N 0.38489 0.58107 0.59041 0.0
N3249 N 0.41841 0.59266 0.46799 0.0
H3250 H 0.35237 0.62839 0.4954 0.0
H3251 H 0.37176 0.61607 0.46318 0.0
H3252 H 0.43483 0.58148 0.45857 0.0
H3253 H 0.41469 0.61226 0.45702 0.0
H3254 H 0.39616 0.57029 0.60646 0.0
H3255 H 0.37163 0.59594 0.60189 0.0
H3256 H 0.40832 0.52884 0.5795 0.0
H3257 H 0.42951 0.51964 0.54788 0.0
C3258 C 0.95728 0.98223 0.57815 0.0
C3259 C 0.94488 0.95102 0.5566 0.0
C3260 C 0.98995 0.9553 0.52937 0.0
C3261 C 1.00274 0.98718 0.55122 0.0
N3262 N 1.00169 1.02093 0.60458 0.0
N3263 N 0.95074 0.90528 0.51442 0.0
C3264 C 0.98714 0.99794 0.57776 0.0
C3265 C 0.96168 0.93685 0.53321 0.0
N3266 N 0.94071 0.99703 0.59945 0.0
N3267 N 1.00378 0.94235 0.50394 0.0
H3268 H 0.92913 0.89233 0.51293 0.0
H3269 H 0.96349 0.89091 0.50136 0.0
H3270 H 0.02602 0.948 0.50271 0.0
H3271 H 0.9927 0.92519 0.48306 0.0
H3272 H 0.94759 1.02166 0.61286 0.0
H3273 H 0.91938 0.98558 0.60209 0.0
H3274 H 0.99263 0.02681 0.62643 0.0
H3275 H 0.02391 0.03092 0.60628 0.0
C3276 C 0.90641 0.18918 0.25916 0.0
C3277 C 0.91007 0.17354 0.28703 0.0
C3278 C 0.8835 0.21674 0.31636 0.0
C3279 C 0.87819 0.23109 0.28797 0.0
N3280 N 0.88279 0.22545 0.23037 0.0
N3281 N 0.89513 0.17045 0.34039 0.0
C3282 C 0.88916 0.21545 0.25893 0.0
C3283 C 0.8966 0.18702 0.31497 0.0
N3284 N 0.92074 0.17998 0.23283 0.0
N3285 N 0.87652 0.23212 0.3457 0.0
H3286 H 0.90434 0.14964 0.34063 0.0
H3287 H 0.88257 0.17526 0.35954 0.0
H3288 H 0.86626 0.25234 0.34784 0.0
H3289 H 0.88249 0.22631 0.36816 0.0
H3290 H 0.92268 0.1924 0.21331 0.0
H3291 H 0.93286 0.16146 0.23187 0.0
H3292 H 0.8871 0.21382 0.20744 0.0
H3293 H 0.87045 0.2435 0.2293 0.0
C3294 C 0.70604 0.08403 0.03619 0.0
C3295 C 0.7221 0.11539 0.05383 0.0
C3296 C 0.67697 0.13644 0.05757 0.0
C3297 C 0.66016 0.10377 0.04215 0.0
N3298 N 0.6607 0.04461 0.02502 0.0
N3299 N 0.72376 0.17148 0.08352 0.0
C3300 C 0.67526 0.07714 0.03367 0.0
C3301 C 0.7078 0.14156 0.0653 0.0
N3302 N 0.72017 0.06055 0.02129 0.0
N3303 N 0.66354 0.16277 0.06501 0.0
H3304 H 0.74647 0.1771 0.08728 0.0
H3305 H 0.71462 0.19003 0.09648 0.0
H3306 H 0.64101 0.15986 0.06469 0.0
H3307 H 0.67471 0.18784 0.07107 0.0
H3308 H 0.70961 0.03946 1.00352 0.0
H3309 H 0.74278 0.06322 0.02468 0.0
H3310 H 0.6706 0.02413 0.02243 0.0
H3311 H 0.63884 0.03793 0.02555 0.0
C3312 C 0.28649 0.46757 0.23421 0.0
C3313 C 0.29946 0.49758 0.22509 0.0
C3314 C 0.34172 0.5045 0.26539 0.0
C3315 C 0.32419 0.48114 0.28082 0.0
N3316 N 0.27897 0.44085 0.28038 0.0
N3317 N 0.34356 0.53657 0.22169 0.0
C3318 C 0.29647 0.46218 0.26503 0.0
C3319 C 0.32885 0.51311 0.23704 0.0
N3320 N 0.2633 0.44609 0.21448 0.0
N3321 N 0.37015 0.51833 0.27804 0.0
H3322 H 0.33446 0.54059 0.19951 0.0
H3323 H 0.36439 0.55121 0.23011 0.0
H3324 H 0.37971 0.5128 0.29919 0.0
H3325 H 0.38458 0.53443 0.2673 0.0
H3326 H 0.2537 0.42269 0.21903 0.0
H3327 H 0.25588 0.4509 0.19193 0.0
H3328 H 0.25759 0.42859 0.27088 0.0
H3329 H 0.28479 0.43821 0.30421 0.0
C3330 C 0.29124 0.47517 0.01596 0.0
C3331 C 0.28799 0.44973 0.03486 0.0
C3332 C 0.23529 0.44758 0.03284 0.0
C3333 C 0.2386 0.47266 0.01359 0.0
N3334 N 0.27013 0.51707 0.99521 0.0
N3335 N 0.25888 0.4184 0.06872 0.0
C3336 C 0.26682 0.48879 1.00813 0.0
C3337 C 0.26057 0.43807 0.0457 0.0
N3338 N 0.31694 0.48463 1.00338 0.0
N3339 N 0.20794 0.43185 0.03759 0.0
H3340 H 0.2771 0.41154 0.07897 0.0
H3341 H 0.24016 0.41156 0.07993 0.0
H3342 H 0.1891 0.43905 0.02956 0.0
H3343 H 0.20376 0.41064 0.04795 0.0
H3344 H 0.31939 0.50009 0.98628 0.0
H3345 H 0.33527 0.47494 1.00777 0.0
H3346 H 0.29041 0.53197 0.99352 0.0
H3347 H 0.25252 0.52748 0.98925 0.0
C3348 C 0.88772 0.96042 0.25405 0.0
C3349 C 0.90463 0.98264 0.28268 0.0
C3350 C 0.88763 0.93765 0.31421 0.0
C3351 C 0.87179 0.91453 0.2855 0.0
N3352 N 0.853 0.90748 0.22887 0.0
N3353 N 0.92457 0.9884 0.33884 0.0
C3354 C 0.87101 0.92706 0.25562 0.0
C3355 C 0.9054 0.97007 0.31237 0.0
N3356 N 0.88796 0.97114 0.22495 0.0
N3357 N 0.8841 0.92968 0.34414 0.0
H3358 H 0.93789 1.01171 0.33874 0.0
H3359 H 0.9294 0.97919 0.35973 0.0
H3360 H 0.87018 0.90768 0.34642 0.0
H3361 H 0.89193 0.94625 0.36652 0.0
H3362 H 0.87904 0.95605 0.20217 0.0
H3363 H 0.89846 0.99534 0.22327 0.0
H3364 H 0.84893 0.91481 0.20675 0.0
H3365 H 0.84002 0.88425 0.22972 0.0
C3366 C 0.8092 0.1771 0.77446 0.0
C3367 C 0.78038 0.16139 0.76015 0.0
C3368 C 0.76304 0.21105 0.78471 0.0
C3369 C 0.79248 0.22885 0.79313 0.0
N3370 N 0.83979 0.2236 0.81378 0.0
N3371 N 0.72919 0.16285 0.75197 0.0
C3372 C 0.81477 0.21049 0.79292 0.0
C3373 C 0.75713 0.17825 0.76521 0.0
N3374 N 0.83121 0.16029 0.76986 0.0
N3375 N 0.74088 0.2236 0.79816 0.0
H3376 H 0.72296 0.13757 0.74109 0.0
H3377 H 0.71246 0.17571 0.7503 0.0
H3378 H 0.74431 0.24424 0.81756 0.0
H3379 H 0.71922 0.21032 0.79462 0.0
H3380 H 0.85315 0.17129 0.77753 0.0
H3381 H 0.82782 0.13592 0.75586 0.0
H3382 H 0.85679 0.2114 0.81649 0.0
H3383 H 0.84095 0.24455 0.83225 0.0
loop_
_geom_bond_atom_site_label_1
_geom_bond_atom_site_label_2
_geom_bond_distance
_geom_bond_site_symmetry_2
_ccdc_geom_bond_type
In0 O1 2.294 . S
In0 O2 2.326 . S
In0 O6 2.266 . S
In0 O7 2.326 . S
In0 O8 2.266 . S
In0 O9 2.326 . S
In0 O11 2.294 . S
In0 O12 2.326 . S
O1 In0 2.294 . S
O1 C10 1.240 . S
O2 In0 2.326 . S
O2 C10 1.252 . S
C3 O6 1.252 . S
C3 O7 1.260 . S
C4 O11 1.240 . S
C4 O12 1.252 . S
C5 O8 1.252 . S
C5 O9 1.260 . S
O6 In0 2.266 . S
O6 C3 1.252 . S
O7 In0 2.326 . S
O7 C3 1.260 . S
O8 In0 2.266 . S
O8 C5 1.252 . S
O9 In0 2.326 . S
O9 C5 1.260 . S
C10 O1 1.240 . S
C10 O2 1.252 . S
O11 In0 2.294 . S
O11 C4 1.240 . S
O12 In0 2.326 . S
O12 C4 1.252 . S
In13 O14 2.294 . S
In13 O15 2.326 . S
In13 O19 2.266 1_455 S
In13 O20 2.326 1_455 S
In13 O21 2.264 1_455 S
In13 O22 2.322 1_455 S
In13 O24 2.296 . S
In13 O25 2.330 . S
O14 In13 2.294 . S
O14 C23 1.240 . S
O15 In13 2.326 . S
O15 C23 1.252 . S
C16 O19 1.252 . S
C16 O20 1.260 . S
C17 O24 1.240 . S
C17 O25 1.252 . S
C18 O21 1.252 . S
C18 O22 1.260 . S
O19 In13 2.266 1_655 S
O19 C16 1.252 . S
O20 In13 2.326 1_655 S
O20 C16 1.260 . S
O21 In13 2.264 1_655 S
O21 C18 1.252 . S
O22 In13 2.322 1_655 S
O22 C18 1.260 . S
C23 O14 1.240 . S
C23 O15 1.252 . S
O24 In13 2.296 . S
O24 C17 1.240 . S
O25 In13 2.330 . S
O25 C17 1.252 . S
In26 O27 2.294 . S
In26 O28 2.326 . S
In26 O32 2.266 . S
In26 O33 2.326 . S
In26 O34 2.266 . S
In26 O35 2.326 . S
In26 O37 2.294 . S
In26 O38 2.326 . S
O27 In26 2.294 . S
O27 C36 1.240 . S
O28 In26 2.326 . S
O28 C36 1.252 . S
C29 O32 1.252 . S
C29 O33 1.260 . S
C30 O37 1.240 . S
C30 O38 1.252 . S
C31 O34 1.252 . S
C31 O35 1.260 . S
O32 In26 2.266 . S
O32 C29 1.252 . S
O33 In26 2.326 . S
O33 C29 1.260 . S
O34 In26 2.266 . S
O34 C31 1.252 . S
O35 In26 2.326 . S
O35 C31 1.260 . S
C36 O27 1.240 . S
C36 O28 1.252 . S
O37 In26 2.294 . S
O37 C30 1.240 . S
O38 In26 2.326 . S
O38 C30 1.252 . S
In39 O40 2.294 . S
In39 O41 2.326 . S
In39 O45 2.266 . S
In39 O46 2.326 . S
In39 O47 2.266 . S
In39 O48 2.326 . S
In39 O50 2.294 . S
In39 O51 2.326 . S
O40 In39 2.294 . S
O40 C49 1.240 . S
O41 In39 2.326 . S
O41 C49 1.252 . S
C42 O45 1.252 . S
C42 O46 1.260 . S
C43 O50 1.240 . S
C43 O51 1.252 . S
C44 O47 1.252 . S
C44 O48 1.260 . S
O45 In39 2.266 . S
O45 C42 1.252 . S
O46 In39 2.326 . S
O46 C42 1.260 . S
O47 In39 2.266 . S
O47 C44 1.252 . S
O48 In39 2.326 . S
O48 C44 1.260 . S
C49 O40 1.240 . S
C49 O41 1.252 . S
O50 In39 2.294 . S
O50 C43 1.240 . S
O51 In39 2.326 . S
O51 C43 1.252 . S
In52 O53 2.294 . S
In52 O54 2.326 . S
In52 O58 2.266 . S
In52 O59 2.326 . S
In52 O60 2.266 . S
In52 O61 2.326 . S
In52 O63 2.294 . S
In52 O64 2.326 . S
O53 In52 2.294 . S
O53 C62 1.240 . S
O54 In52 2.326 . S
O54 C62 1.252 . S
C55 O58 1.252 . S
C55 O59 1.260 . S
C56 O63 1.240 . S
C56 O64 1.252 . S
C57 O60 1.252 . S
C57 O61 1.260 . S
O58 In52 2.266 . S
O58 C55 1.252 . S
O59 In52 2.326 . S
O59 C55 1.260 . S
O60 In52 2.266 . S
O60 C57 1.252 . S
O61 In52 2.326 . S
O61 C57 1.260 . S
C62 O53 1.240 . S
C62 O54 1.252 . S
O63 In52 2.294 . S
O63 C56 1.240 . S
O64 In52 2.326 . S
O64 C56 1.252 . S
In65 O66 2.294 . S
In65 O67 2.326 . S
In65 O71 2.266 . S
In65 O72 2.326 . S
In65 O73 2.266 . S
In65 O74 2.326 . S
In65 O76 2.294 . S
In65 O77 2.326 . S
O66 In65 2.294 . S
O66 C75 1.240 . S
O67 In65 2.326 . S
O67 C75 1.252 . S
C68 O71 1.252 . S
C68 O72 1.260 . S
C69 O76 1.240 . S
C69 O77 1.252 . S
C70 O73 1.252 . S
C70 O74 1.260 . S
O71 In65 2.266 . S
O71 C68 1.252 . S
O72 In65 2.326 . S
O72 C68 1.260 . S
O73 In65 2.266 . S
O73 C70 1.252 . S
O74 In65 2.326 . S
O74 C70 1.260 . S
C75 O66 1.240 . S
C75 O67 1.252 . S
O76 In65 2.294 . S
O76 C69 1.240 . S
O77 In65 2.326 . S
O77 C69 1.252 . S
In78 O79 2.294 . S
In78 O80 2.326 . S
In78 O84 2.266 . S
In78 O85 2.326 . S
In78 O86 2.266 . S
In78 O87 2.326 . S
In78 O89 2.294 . S
In78 O90 2.326 . S
O79 In78 2.294 . S
O79 C88 1.240 . S
O80 In78 2.326 . S
O80 C88 1.252 . S
C81 O84 1.252 . S
C81 O85 1.260 . S
C82 O89 1.240 . S
C82 O90 1.252 . S
C83 O86 1.252 . S
C83 O87 1.260 . S
O84 In78 2.266 . S
O84 C81 1.252 . S
O85 In78 2.326 . S
O85 C81 1.260 . S
O86 In78 2.266 . S
O86 C83 1.252 . S
O87 In78 2.326 . S
O87 C83 1.260 . S
C88 O79 1.240 . S
C88 O80 1.252 . S
O89 In78 2.294 . S
O89 C82 1.240 . S
O90 In78 2.326 . S
O90 C82 1.252 . S
In91 O92 2.294 . S
In91 O93 2.326 . S
In91 O97 2.266 . S
In91 O98 2.326 . S
In91 O99 2.266 1_455 S
In91 O100 2.326 1_455 S
In91 O102 2.294 . S
In91 O103 2.326 . S
O92 In91 2.294 . S
O92 C101 1.240 . S
O93 In91 2.326 . S
O93 C101 1.252 . S
C94 O97 1.252 . S
C94 O98 1.260 . S
C95 O102 1.240 . S
C95 O103 1.252 . S
C96 O99 1.252 . S
C96 O100 1.260 . S
O97 In91 2.266 . S
O97 C94 1.252 . S
O98 In91 2.326 . S
O98 C94 1.260 . S
O99 In91 2.266 1_655 S
O99 C96 1.252 . S
O100 In91 2.326 1_655 S
O100 C96 1.260 . S
C101 O92 1.240 . S
C101 O93 1.252 . S
O102 In91 2.294 . S
O102 C95 1.240 . S
O103 In91 2.326 . S
O103 C95 1.252 . S
In104 O105 2.294 . S
In104 O106 2.326 1_545 S
In104 O110 2.266 . S
In104 O111 2.326 . S
In104 O112 2.266 1_545 S
In104 O113 2.326 1_545 S
In104 O115 2.294 . S
In104 O116 2.326 . S
O105 In104 2.294 . S
O105 C114 1.240 . S
O106 In104 2.326 1_565 S
O106 C114 1.252 1_565 S
C107 O110 1.252 . S
C107 O111 1.260 . S
C108 O115 1.240 . S
C108 O116 1.252 . S
C109 O112 1.252 . S
C109 O113 1.260 . S
O110 In104 2.266 . S
O110 C107 1.252 . S
O111 In104 2.326 . S
O111 C107 1.260 . S
O112 In104 2.266 1_565 S
O112 C109 1.252 . S
O113 In104 2.326 1_565 S
O113 C109 1.260 . S
C114 O105 1.240 . S
C114 O106 1.252 1_545 S
O115 In104 2.294 . S
O115 C108 1.240 . S
O116 In104 2.326 . S
O116 C108 1.252 . S
In117 O118 2.294 . S
In117 O119 2.326 . S
In117 O123 2.266 . S
In117 O124 2.326 . S
In117 O125 2.266 . S
In117 O126 2.326 . S
In117 O128 2.294 . S
In117 O129 2.326 . S
O118 In117 2.294 . S
O118 C127 1.240 . S
O119 In117 2.326 . S
O119 C127 1.252 . S
C120 O123 1.252 . S
C120 O124 1.260 . S
C121 O128 1.240 . S
C121 O129 1.252 . S
C122 O125 1.252 . S
C122 O126 1.260 . S
O123 In117 2.266 . S
O123 C120 1.252 . S
O124 In117 2.326 . S
O124 C120 1.260 . S
O125 In117 2.266 . S
O125 C122 1.252 . S
O126 In117 2.326 . S
O126 C122 1.260 . S
C127 O118 1.240 . S
C127 O119 1.252 . S
O128 In117 2.294 . S
O128 C121 1.240 . S
O129 In117 2.326 . S
O129 C121 1.252 . S
In130 O131 2.294 1_545 S
In130 O132 2.326 1_545 S
In130 O136 2.266 . S
In130 O137 2.326 . S
In130 O138 2.266 . S
In130 O139 2.326 . S
In130 O141 2.294 1_545 S
In130 O142 2.326 1_545 S
O131 In130 2.294 1_565 S
O131 C140 1.240 . S
O132 In130 2.326 1_565 S
O132 C140 1.252 . S
C133 O136 1.252 . S
C133 O137 1.260 . S
C134 O141 1.240 . S
C134 O142 1.252 . S
C135 O138 1.252 . S
C135 O139 1.260 . S
O136 In130 2.266 . S
O136 C133 1.252 . S
O137 In130 2.326 . S
O137 C133 1.260 . S
O138 In130 2.266 . S
O138 C135 1.252 . S
O139 In130 2.326 . S
O139 C135 1.260 . S
C140 O131 1.240 . S
C140 O132 1.252 . S
O141 In130 2.294 1_565 S
O141 C134 1.240 . S
O142 In130 2.326 1_565 S
O142 C134 1.252 . S
In143 O144 2.294 . S
In143 O145 2.326 . S
In143 O149 2.266 1_554 S
In143 O150 2.326 1_554 S
In143 O151 2.266 . S
In143 O152 2.326 . S
In143 O154 2.294 . S
In143 O155 2.326 . S
O144 In143 2.294 . S
O144 C153 1.240 . S
O145 In143 2.326 . S
O145 C153 1.252 . S
C146 O149 1.252 . S
C146 O150 1.260 . S
C147 O154 1.240 . S
C147 O155 1.252 . S
C148 O151 1.252 . S
C148 O152 1.260 . S
O149 In143 2.266 1_556 S
O149 C146 1.252 . S
O150 In143 2.326 1_556 S
O150 C146 1.260 . S
O151 In143 2.266 . S
O151 C148 1.252 . S
O152 In143 2.326 . S
O152 C148 1.260 . S
C153 O144 1.240 . S
C153 O145 1.252 . S
O154 In143 2.294 . S
O154 C147 1.240 . S
O155 In143 2.326 . S
O155 C147 1.252 . S
In156 O157 2.294 . S
In156 O158 2.326 . S
In156 O162 2.266 1_554 S
In156 O163 2.326 1_554 S
In156 O164 2.266 . S
In156 O165 2.326 . S
In156 O167 2.294 . S
In156 O168 2.326 . S
O157 In156 2.294 . S
O157 C166 1.240 . S
O158 In156 2.326 . S
O158 C166 1.252 . S
C159 O162 1.252 . S
C159 O163 1.260 . S
C160 O167 1.240 . S
C160 O168 1.252 . S
C161 O164 1.252 . S
C161 O165 1.260 . S
O162 In156 2.266 1_556 S
O162 C159 1.252 . S
O163 In156 2.326 1_556 S
O163 C159 1.260 . S
O164 In156 2.266 . S
O164 C161 1.252 . S
O165 In156 2.326 . S
O165 C161 1.260 . S
C166 O157 1.240 . S
C166 O158 1.252 . S
O167 In156 2.294 . S
O167 C160 1.240 . S
O168 In156 2.326 . S
O168 C160 1.252 . S
In169 O170 2.294 . S
In169 O171 2.326 . S
In169 O175 2.266 . S
In169 O176 2.326 . S
In169 O177 2.266 . S
In169 O178 2.326 1_554 S
In169 O180 2.294 . S
In169 O181 2.326 . S
O170 In169 2.294 . S
O170 C179 1.240 . S
O171 In169 2.326 . S
O171 C179 1.252 . S
C172 O175 1.252 . S
C172 O176 1.260 . S
C173 O180 1.240 . S
C173 O181 1.252 . S
C174 O177 1.252 1_556 S
C174 O178 1.260 . S
O175 In169 2.266 . S
O175 C172 1.252 . S
O176 In169 2.326 . S
O176 C172 1.260 . S
O177 In169 2.266 . S
O177 C174 1.252 1_554 S
O178 In169 2.326 1_556 S
O178 C174 1.260 . S
C179 O170 1.240 . S
C179 O171 1.252 . S
O180 In169 2.294 . S
O180 C173 1.240 . S
O181 In169 2.326 . S
O181 C173 1.252 . S
In182 O183 2.294 . S
In182 O184 2.326 . S
In182 O188 2.266 . S
In182 O189 2.326 . S
In182 O190 2.266 . S
In182 O191 2.326 . S
In182 O193 2.294 . S
In182 O194 2.326 . S
O183 In182 2.294 . S
O183 C192 1.240 . S
O184 In182 2.326 . S
O184 C192 1.252 . S
C185 O188 1.252 . S
C185 O189 1.260 . S
C186 O193 1.240 . S
C186 O194 1.252 . S
C187 O190 1.252 . S
C187 O191 1.260 . S
O188 In182 2.266 . S
O188 C185 1.252 . S
O189 In182 2.326 . S
O189 C185 1.260 . S
O190 In182 2.266 . S
O190 C187 1.252 . S
O191 In182 2.326 . S
O191 C187 1.260 . S
C192 O183 1.240 . S
C192 O184 1.252 . S
O193 In182 2.294 . S
O193 C186 1.240 . S
O194 In182 2.326 . S
O194 C186 1.252 . S
In195 O196 2.294 . S
In195 O197 2.326 . S
In195 O201 2.266 . S
In195 O202 2.326 . S
In195 O203 2.266 . S
In195 O204 2.326 . S
In195 O206 2.294 . S
In195 O207 2.326 . S
O196 In195 2.294 . S
O196 C205 1.240 . S
O197 In195 2.326 . S
O197 C205 1.252 . S
C198 O201 1.252 . S
C198 O202 1.260 . S
C199 O206 1.240 . S
C199 O207 1.252 . S
C200 O203 1.252 . S
C200 O204 1.260 . S
O201 In195 2.266 . S
O201 C198 1.252 . S
O202 In195 2.326 . S
O202 C198 1.260 . S
O203 In195 2.266 . S
O203 C200 1.252 . S
O204 In195 2.326 . S
O204 C200 1.260 . S
C205 O196 1.240 . S
C205 O197 1.252 . S
O206 In195 2.294 . S
O206 C199 1.240 . S
O207 In195 2.326 . S
O207 C199 1.252 . S
In208 O209 2.294 . S
In208 O210 2.326 . S
In208 O214 2.266 . S
In208 O215 2.326 . S
In208 O216 2.266 . S
In208 O217 2.326 . S
In208 O219 2.294 . S
In208 O220 2.326 . S
O209 In208 2.294 . S
O209 C218 1.240 . S
O210 In208 2.326 . S
O210 C218 1.252 . S
C211 O214 1.252 . S
C211 O215 1.260 . S
C212 O219 1.240 . S
C212 O220 1.252 . S
C213 O216 1.252 . S
C213 O217 1.260 . S
O214 In208 2.266 . S
O214 C211 1.252 . S
O215 In208 2.326 . S
O215 C211 1.260 . S
O216 In208 2.266 . S
O216 C213 1.252 . S
O217 In208 2.326 . S
O217 C213 1.260 . S
C218 O209 1.240 . S
C218 O210 1.252 . S
O219 In208 2.294 . S
O219 C212 1.240 . S
O220 In208 2.326 . S
O220 C212 1.252 . S
In221 O222 2.294 . S
In221 O223 2.326 . S
In221 O227 2.266 . S
In221 O228 2.326 . S
In221 O229 2.266 . S
In221 O230 2.326 . S
In221 O232 2.294 . S
In221 O233 2.326 . S
O222 In221 2.294 . S
O222 C231 1.240 . S
O223 In221 2.326 . S
O223 C231 1.252 . S
C224 O227 1.252 . S
C224 O228 1.260 . S
C225 O232 1.240 . S
C225 O233 1.252 . S
C226 O229 1.252 . S
C226 O230 1.260 . S
O227 In221 2.266 . S
O227 C224 1.252 . S
O228 In221 2.326 . S
O228 C224 1.260 . S
O229 In221 2.266 . S
O229 C226 1.252 . S
O230 In221 2.326 . S
O230 C226 1.260 . S
C231 O222 1.240 . S
C231 O223 1.252 . S
O232 In221 2.294 . S
O232 C225 1.240 . S
O233 In221 2.326 . S
O233 C225 1.252 . S
In234 O235 2.294 . S
In234 O236 2.326 . S
In234 O240 2.266 . S
In234 O241 2.326 . S
In234 O242 2.266 . S
In234 O243 2.326 . S
In234 O245 2.294 . S
In234 O246 2.326 . S
O235 In234 2.294 . S
O235 C244 1.240 . S
O236 In234 2.326 . S
O236 C244 1.252 . S
C237 O240 1.252 . S
C237 O241 1.260 . S
C238 O245 1.240 . S
C238 O246 1.252 . S
C239 O242 1.252 . S
C239 O243 1.260 . S
O240 In234 2.266 . S
O240 C237 1.252 . S
O241 In234 2.326 . S
O241 C237 1.260 . S
O242 In234 2.266 . S
O242 C239 1.252 . S
O243 In234 2.326 . S
O243 C239 1.260 . S
C244 O235 1.240 . S
C244 O236 1.252 . S
O245 In234 2.294 . S
O245 C238 1.240 . S
O246 In234 2.326 . S
O246 C238 1.252 . S
In247 O248 2.294 . S
In247 O249 2.326 . S
In247 O253 2.266 . S
In247 O254 2.326 . S
In247 O255 2.266 . S
In247 O256 2.326 . S
In247 O258 2.294 . S
In247 O259 2.326 . S
O248 In247 2.294 . S
O248 C257 1.240 . S
O249 In247 2.326 . S
O249 C257 1.252 . S
C250 O253 1.252 . S
C250 O254 1.260 . S
C251 O258 1.240 . S
C251 O259 1.252 . S
C252 O255 1.252 . S
C252 O256 1.260 . S
O253 In247 2.266 . S
O253 C250 1.252 . S
O254 In247 2.326 . S
O254 C250 1.260 . S
O255 In247 2.266 . S
O255 C252 1.252 . S
O256 In247 2.326 . S
O256 C252 1.260 . S
C257 O248 1.240 . S
C257 O249 1.252 . S
O258 In247 2.294 . S
O258 C251 1.240 . S
O259 In247 2.326 . S
O259 C251 1.252 . S
In260 O261 2.294 . S
In260 O262 2.326 . S
In260 O266 2.266 1_554 S
In260 O267 2.326 1_554 S
In260 O268 2.266 1_554 S
In260 O269 2.326 1_554 S
In260 O271 2.294 . S
In260 O272 2.326 . S
O261 In260 2.294 . S
O261 C270 1.240 . S
O262 In260 2.326 . S
O262 C270 1.252 . S
C263 O266 1.252 . S
C263 O267 1.260 . S
C264 O271 1.240 . S
C264 O272 1.252 . S
C265 O268 1.252 . S
C265 O269 1.260 . S
O266 In260 2.266 1_556 S
O266 C263 1.252 . S
O267 In260 2.326 1_556 S
O267 C263 1.260 . S
O268 In260 2.266 1_556 S
O268 C265 1.252 . S
O269 In260 2.326 1_556 S
O269 C265 1.260 . S
C270 O261 1.240 . S
C270 O262 1.252 . S
O271 In260 2.294 . S
O271 C264 1.240 . S
O272 In260 2.326 . S
O272 C264 1.252 . S
In273 O274 2.294 . S
In273 O275 2.326 . S
In273 O279 2.266 . S
In273 O280 2.326 . S
In273 O281 2.266 . S
In273 O282 2.326 . S
In273 O284 2.294 . S
In273 O285 2.326 . S
O274 In273 2.294 . S
O274 C283 1.240 . S
O275 In273 2.326 . S
O275 C283 1.252 . S
C276 O279 1.252 . S
C276 O280 1.260 . S
C277 O284 1.240 . S
C277 O285 1.252 . S
C278 O281 1.252 . S
C278 O282 1.260 . S
O279 In273 2.266 . S
O279 C276 1.252 . S
O280 In273 2.326 . S
O280 C276 1.260 . S
O281 In273 2.266 . S
O281 C278 1.252 . S
O282 In273 2.326 . S
O282 C278 1.260 . S
C283 O274 1.240 . S
C283 O275 1.252 . S
O284 In273 2.294 . S
O284 C277 1.240 . S
O285 In273 2.326 . S
O285 C277 1.252 . S
In286 O287 2.294 . S
In286 O288 2.326 . S
In286 O292 2.266 . S
In286 O293 2.326 . S
In286 O294 2.266 . S
In286 O295 2.326 . S
In286 O297 2.294 . S
In286 O298 2.326 . S
O287 In286 2.294 . S
O287 C296 1.240 . S
O288 In286 2.326 . S
O288 C296 1.252 . S
C289 O292 1.252 . S
C289 O293 1.260 . S
C290 O297 1.240 . S
C290 O298 1.252 . S
C291 O294 1.252 . S
C291 O295 1.260 . S
O292 In286 2.266 . S
O292 C289 1.252 . S
O293 In286 2.326 . S
O293 C289 1.260 . S
O294 In286 2.266 . S
O294 C291 1.252 . S
O295 In286 2.326 . S
O295 C291 1.260 . S
C296 O287 1.240 . S
C296 O288 1.252 . S
O297 In286 2.294 . S
O297 C290 1.240 . S
O298 In286 2.326 . S
O298 C290 1.252 . S
In299 O300 2.294 . S
In299 O301 2.326 . S
In299 O305 2.266 . S
In299 O306 2.326 . S
In299 O307 2.266 . S
In299 O308 2.326 . S
In299 O310 2.294 . S
In299 O311 2.326 . S
O300 In299 2.294 . S
O300 C309 1.240 . S
O301 In299 2.326 . S
O301 C309 1.252 . S
C302 O305 1.252 . S
C302 O306 1.260 . S
C303 O310 1.240 . S
C303 O311 1.252 . S
C304 O307 1.252 . S
C304 O308 1.260 . S
O305 In299 2.266 . S
O305 C302 1.252 . S
O306 In299 2.326 . S
O306 C302 1.260 . S
O307 In299 2.266 . S
O307 C304 1.252 . S
O308 In299 2.326 . S
O308 C304 1.260 . S
C309 O300 1.240 . S
C309 O301 1.252 . S
O310 In299 2.294 . S
O310 C303 1.240 . S
O311 In299 2.326 . S
O311 C303 1.252 . S
Gd312 N343 2.661 . S
Gd312 N349 2.601 . S
Gd312 O356 2.545 . S
Gd312 O357 2.606 . S
Gd312 O359 2.429 . S
Gd312 O360 2.545 . S
Gd312 O361 2.412 . S
Gd312 O363 2.362 . S
Gd312 O364 2.295 1_554 S
Gd312 C371 2.828 . S
Gd313 N322 2.661 1_545 S
Gd313 N326 2.601 1_544 S
Gd313 O357 2.362 . S
Gd313 O358 2.324 . S
Gd313 O362 2.545 1_454 S
Gd313 O363 2.606 . S
Gd313 O365 2.429 1_554 S
Gd313 O366 2.545 . S
Gd313 O367 2.412 1_455 S
Gd313 C380 2.828 1_454 S
C314 C317 1.417 1_655 S
C314 C319 1.431 . S
C314 C320 1.412 . S
C315 C318 1.437 . S
C315 C319 1.317 1_556 S
C315 H334 0.929 . S
C316 C317 1.426 1_556 S
C316 C318 1.413 1_455 S
C316 N326 1.359 . S
C317 C314 1.417 1_455 S
C317 C316 1.426 1_554 S
C317 N322 1.350 . S
C318 C315 1.437 . S
C318 C316 1.413 1_655 S
C318 C328 1.391 . S
C319 C314 1.431 . S
C319 C315 1.317 1_554 S
C319 H330 0.930 . S
C320 C314 1.412 . S
C320 C321 1.355 1_655 S
C320 H332 0.930 . S
C321 C320 1.355 1_455 S
C321 C323 1.402 . S
C321 H333 0.930 . S
N322 Gd313 2.661 1_565 S
N322 C317 1.350 . S
N322 C323 1.307 . S
C323 C321 1.402 . S
C323 N322 1.307 . S
C323 H324 0.930 . S
H324 C323 0.930 . S
C325 N326 1.334 . S
C325 C327 1.394 . S
C325 H329 0.930 . S
N326 Gd313 2.601 1_566 S
N326 C316 1.359 . S
N326 C325 1.334 . S
C327 C325 1.394 . S
C327 C328 1.359 1_455 S
C327 H339 0.930 1_455 S
C328 C318 1.391 . S
C328 C327 1.359 1_655 S
C328 H340 0.929 . S
H329 C325 0.930 . S
H330 C319 0.930 . S
H331 C348 0.930 1_556 S
H332 C320 0.930 . S
H333 C321 0.930 . S
H334 C315 0.929 . S
H335 C353 0.930 . S
H336 C344 0.950 . S
H337 C345 0.930 . S
H338 C369 0.929 . S
H339 C327 0.930 1_655 S
H340 C328 0.929 . S
H341 C370 0.930 . S
H342 C351 0.930 . S
N343 Gd312 2.661 . S
N343 C347 1.350 . S
N343 C348 1.307 . S
C344 H336 0.950 . S
C344 C345 1.355 1_554 S
C344 C346 1.412 . S
C345 H337 0.930 . S
C345 C344 1.355 1_556 S
C345 C348 1.402 1_556 S
C346 C344 1.412 . S
C346 C347 1.417 . S
C346 C370 1.431 . S
C347 N343 1.350 . S
C347 C346 1.417 . S
C347 C350 1.426 . S
C348 H331 0.930 1_554 S
C348 N343 1.307 . S
C348 C345 1.402 1_554 S
N349 Gd312 2.601 . S
N349 C350 1.359 . S
N349 C353 1.334 . S
C350 C347 1.426 . S
C350 N349 1.359 . S
C350 C354 1.413 . S
C351 H342 0.930 . S
C351 C352 1.359 . S
C351 C353 1.394 . S
C352 C351 1.359 . S
C352 C354 1.391 . S
C352 H355 0.929 . S
C353 H335 0.930 . S
C353 N349 1.334 . S
C353 C351 1.394 . S
C354 C350 1.413 . S
C354 C352 1.391 . S
C354 C369 1.437 . S
H355 C352 0.929 . S
O356 Gd312 2.545 . S
O356 C371 1.258 . S
O357 Gd312 2.606 . S
O357 Gd313 2.362 . S
O357 C368 1.284 1_545 S
O358 Gd313 2.324 . S
O358 C378 1.254 . S
O359 Gd312 2.429 . S
O359 C378 1.268 . S
O360 Gd312 2.545 . S
O360 C368 1.250 1_545 S
O361 Gd312 2.412 . S
O361 C371 1.252 . S
O362 Gd313 2.545 1_656 S
O362 C380 1.258 . S
O363 Gd312 2.362 . S
O363 Gd313 2.606 . S
O363 C379 1.284 . S
O364 Gd312 2.295 1_556 S
O364 C387 1.273 . S
O365 Gd313 2.429 1_556 S
O365 C387 1.268 . S
O366 Gd313 2.545 . S
O366 C379 1.250 . S
O367 Gd313 2.412 1_655 S
O367 C380 1.252 1_554 S
C368 O357 1.284 1_565 S
C368 O360 1.250 1_565 S
C369 H338 0.929 . S
C369 C354 1.437 . S
C369 C370 1.317 . S
C370 H341 0.930 . S
C370 C346 1.431 . S
C370 C369 1.317 . S
C371 Gd312 2.828 . S
C371 O356 1.258 . S
C371 O361 1.252 . S
C371 C372 1.497 . S
C372 C371 1.497 . S
C372 C373 1.395 . S
C372 C374 1.380 . S
C373 C372 1.395 . S
C373 C376 1.398 . S
C373 H388 0.930 . S
C374 C372 1.380 . S
C374 C375 1.391 . S
C374 H389 0.930 . S
C375 C374 1.391 . S
C375 C377 1.387 . S
C376 C373 1.398 . S
C376 C377 1.380 . S
C376 H390 0.930 . S
C377 C375 1.387 . S
C377 C376 1.380 . S
C377 H391 0.930 . S
C378 O358 1.254 . S
C378 O359 1.268 . S
C379 O363 1.284 . S
C379 O366 1.250 . S
C380 Gd313 2.828 1_656 S
C380 O362 1.258 . S
C380 O367 1.252 1_556 S
C380 C381 1.497 . S
C381 C380 1.497 . S
C381 C382 1.395 . S
C381 C383 1.380 1_556 S
C382 C381 1.395 . S
C382 C385 1.398 . S
C382 H392 0.930 . S
C383 C381 1.380 1_554 S
C383 C384 1.391 . S
C383 H393 0.930 . S
C384 C383 1.391 . S
C384 C386 1.387 1_554 S
C385 C382 1.398 . S
C385 C386 1.380 . S
C385 H394 0.930 . S
C386 C384 1.387 1_556 S
C386 C385 1.380 . S
C386 H395 0.930 . S
C387 O364 1.273 . S
C387 O365 1.268 . S
H388 C373 0.930 . S
H389 C374 0.930 . S
H390 C376 0.930 . S
H391 C377 0.930 . S
H392 C382 0.930 . S
H393 C383 0.930 . S
H394 C385 0.930 . S
H395 C386 0.930 . S
Gd396 N427 2.661 . S
Gd396 N433 2.601 . S
Gd396 O440 2.545 . S
Gd396 O441 2.606 . S
Gd396 O443 2.429 . S
Gd396 O444 2.545 . S
Gd396 O445 2.412 . S
Gd396 O447 2.362 . S
Gd396 O448 2.324 . S
Gd396 C455 2.828 . S
Gd397 N406 2.661 . S
Gd397 N410 2.601 . S
Gd397 O441 2.362 . S
Gd397 O442 2.324 . S
Gd397 O446 2.545 . S
Gd397 O447 2.606 . S
Gd397 O449 2.429 . S
Gd397 O450 2.545 . S
Gd397 O451 2.412 . S
Gd397 C464 2.828 . S
C398 C401 1.417 . S
C398 C403 1.431 . S
C398 C404 1.412 . S
C399 C402 1.437 . S
C399 C403 1.317 . S
C399 H418 0.929 . S
C400 C401 1.426 . S
C400 C402 1.413 . S
C400 N410 1.359 . S
C401 C398 1.417 . S
C401 C400 1.426 . S
C401 N406 1.350 . S
C402 C399 1.437 . S
C402 C400 1.413 . S
C402 C412 1.391 . S
C403 C398 1.431 . S
C403 C399 1.317 . S
C403 H414 0.930 . S
C404 C398 1.412 . S
C404 C405 1.355 . S
C404 H416 0.930 . S
C405 C404 1.355 . S
C405 C407 1.402 . S
C405 H417 0.930 . S
N406 Gd397 2.661 . S
N406 C401 1.350 . S
N406 C407 1.307 . S
C407 C405 1.402 . S
C407 N406 1.307 . S
C407 H408 0.930 . S
H408 C407 0.930 . S
C409 N410 1.334 . S
C409 C411 1.394 . S
C409 H413 0.930 . S
N410 Gd397 2.601 . S
N410 C400 1.359 . S
N410 C409 1.334 . S
C411 C409 1.394 . S
C411 C412 1.359 . S
C411 H423 0.930 . S
C412 C402 1.391 . S
C412 C411 1.359 . S
C412 H424 0.929 . S
H413 C409 0.930 . S
H414 C403 0.930 . S
H415 C432 0.930 . S
H416 C404 0.930 . S
H417 C405 0.930 . S
H418 C399 0.929 . S
H419 C437 0.930 . S
H420 C428 0.930 . S
H421 C429 0.930 . S
H422 C453 0.929 . S
H423 C411 0.930 . S
H424 C412 0.929 . S
H425 C454 0.930 . S
H426 C435 0.930 . S
N427 Gd396 2.661 . S
N427 C431 1.350 . S
N427 C432 1.307 . S
C428 H420 0.930 . S
C428 C429 1.355 . S
C428 C430 1.412 . S
C429 H421 0.930 . S
C429 C428 1.355 . S
C429 C432 1.402 . S
C430 C428 1.412 . S
C430 C431 1.417 . S
C430 C454 1.431 . S
C431 N427 1.350 . S
C431 C430 1.417 . S
C431 C434 1.426 . S
C432 H415 0.930 . S
C432 N427 1.307 . S
C432 C429 1.402 . S
N433 Gd396 2.601 . S
N433 C434 1.359 . S
N433 C437 1.334 . S
C434 C431 1.426 . S
C434 N433 1.359 . S
C434 C438 1.413 . S
C435 H426 0.930 . S
C435 C436 1.359 . S
C435 C437 1.394 . S
C436 C435 1.359 . S
C436 C438 1.391 . S
C436 H439 0.929 . S
C437 H419 0.930 . S
C437 N433 1.334 . S
C437 C435 1.394 . S
C438 C434 1.413 . S
C438 C436 1.391 . S
C438 C453 1.437 . S
H439 C436 0.929 . S
O440 Gd396 2.545 . S
O440 C455 1.258 . S
O441 Gd396 2.606 . S
O441 Gd397 2.362 . S
O441 C452 1.284 . S
O442 Gd397 2.324 . S
O442 C462 1.254 . S
O443 Gd396 2.429 . S
O443 C462 1.268 . S
O444 Gd396 2.545 . S
O444 C452 1.250 . S
O445 Gd396 2.412 . S
O445 C455 1.252 . S
O446 Gd397 2.545 . S
O446 C464 1.258 . S
O447 Gd396 2.362 . S
O447 Gd397 2.606 . S
O447 C463 1.284 . S
O448 Gd396 2.324 . S
O448 C471 1.254 . S
O449 Gd397 2.429 . S
O449 C471 1.268 . S
O450 Gd397 2.545 . S
O450 C463 1.250 . S
O451 Gd397 2.412 . S
O451 C464 1.252 . S
C452 O441 1.284 . S
C452 O444 1.250 . S
C453 H422 0.929 . S
C453 C438 1.437 . S
C453 C454 1.317 . S
C454 H425 0.930 . S
C454 C430 1.431 . S
C454 C453 1.317 . S
C455 Gd396 2.828 . S
C455 O440 1.258 . S
C455 O445 1.252 . S
C455 C456 1.497 . S
C456 C455 1.497 . S
C456 C457 1.395 . S
C456 C458 1.380 . S
C457 C456 1.395 . S
C457 C460 1.398 . S
C457 H472 0.930 . S
C458 C456 1.380 . S
C458 C459 1.391 . S
C458 H473 0.930 . S
C459 C458 1.391 . S
C459 C461 1.387 . S
C460 C457 1.398 . S
C460 C461 1.380 . S
C460 H474 0.930 . S
C461 C459 1.387 . S
C461 C460 1.380 . S
C461 H475 0.930 . S
C462 O442 1.254 . S
C462 O443 1.268 . S
C463 O447 1.284 . S
C463 O450 1.250 . S
C464 Gd397 2.828 . S
C464 O446 1.258 . S
C464 O451 1.252 . S
C464 C465 1.497 . S
C465 C464 1.497 . S
C465 C466 1.395 . S
C465 C467 1.380 . S
C466 C465 1.395 . S
C466 C469 1.398 . S
C466 H476 0.930 . S
C467 C465 1.380 . S
C467 C468 1.391 . S
C467 H477 0.930 . S
C468 C467 1.391 . S
C468 C470 1.387 . S
C469 C466 1.398 . S
C469 C470 1.380 . S
C469 H478 0.930 . S
C470 C468 1.387 . S
C470 C469 1.380 . S
C470 H479 0.930 . S
C471 O448 1.254 . S
C471 O449 1.268 . S
H472 C457 0.930 . S
H473 C458 0.930 . S
H474 C460 0.930 . S
H475 C461 0.930 . S
H476 C466 0.930 . S
H477 C467 0.930 . S
H478 C469 0.930 . S
H479 C470 0.930 . S
Gd480 N511 2.661 1_545 S
Gd480 N517 2.601 1_545 S
Gd480 O524 2.545 . S
Gd480 O525 2.606 . S
Gd480 O527 2.429 . S
Gd480 O528 2.545 . S
Gd480 O529 2.412 . S
Gd480 O531 2.362 1_545 S
Gd480 O532 2.324 . S
Gd480 C539 2.828 . S
Gd481 N490 2.661 . S
Gd481 N494 2.601 . S
Gd481 O525 2.362 . S
Gd481 O526 2.324 . S
Gd481 O530 2.545 1_545 S
Gd481 O531 2.606 1_545 S
Gd481 O533 2.429 . S
Gd481 O534 2.545 1_545 S
Gd481 O535 2.412 . S
Gd481 C548 2.810 1_545 S
C482 C485 1.417 . S
C482 C487 1.431 . S
C482 C488 1.412 . S
C483 C486 1.437 . S
C483 C487 1.317 . S
C483 H502 0.929 . S
C484 C485 1.426 . S
C484 C486 1.413 . S
C484 N494 1.359 . S
C485 C482 1.417 . S
C485 C484 1.426 . S
C485 N490 1.350 . S
C486 C483 1.437 . S
C486 C484 1.413 . S
C486 C496 1.391 . S
C487 C482 1.431 . S
C487 C483 1.317 . S
C487 H498 0.930 . S
C488 C482 1.412 . S
C488 C489 1.355 . S
C488 H500 0.930 . S
C489 C488 1.355 . S
C489 C491 1.402 . S
C489 H501 0.930 . S
N490 Gd481 2.661 . S
N490 C485 1.350 . S
N490 C491 1.307 . S
C491 C489 1.402 . S
C491 N490 1.307 . S
C491 H492 0.930 . S
H492 C491 0.930 . S
C493 N494 1.334 . S
C493 C495 1.394 . S
C493 H497 0.930 . S
N494 Gd481 2.601 . S
N494 C484 1.359 . S
N494 C493 1.334 . S
C495 C493 1.394 . S
C495 C496 1.359 . S
C495 H507 0.930 . S
C496 C486 1.391 . S
C496 C495 1.359 . S
C496 H508 0.929 . S
H497 C493 0.930 . S
H498 C487 0.930 . S
H499 C516 0.930 . S
H500 C488 0.930 . S
H501 C489 0.930 . S
H502 C483 0.929 . S
H503 C521 0.930 . S
H504 C512 0.930 . S
H505 C513 0.930 . S
H506 C537 0.929 . S
H507 C495 0.930 . S
H508 C496 0.929 . S
H509 C538 0.930 . S
H510 C519 0.930 . S
N511 Gd480 2.661 1_565 S
N511 C515 1.350 . S
N511 C516 1.307 . S
C512 H504 0.930 . S
C512 C513 1.355 . S
C512 C514 1.412 . S
C513 H505 0.930 . S
C513 C512 1.355 . S
C513 C516 1.402 . S
C514 C512 1.412 . S
C514 C515 1.417 . S
C514 C538 1.431 . S
C515 N511 1.350 . S
C515 C514 1.417 . S
C515 C518 1.426 . S
C516 H499 0.930 . S
C516 N511 1.307 . S
C516 C513 1.402 . S
N517 Gd480 2.601 1_565 S
N517 C518 1.359 . S
N517 C521 1.334 1_565 S
C518 C515 1.426 . S
C518 N517 1.359 . S
C518 C522 1.413 . S
C519 H510 0.930 . S
C519 C520 1.359 . S
C519 C521 1.394 1_565 S
C520 C519 1.359 . S
C520 C522 1.391 . S
C520 H523 0.929 . S
C521 H503 0.930 . S
C521 N517 1.334 1_545 S
C521 C519 1.394 1_545 S
C522 C518 1.413 . S
C522 C520 1.391 . S
C522 C537 1.437 . S
H523 C520 0.929 . S
O524 Gd480 2.545 . S
O524 C539 1.258 . S
O525 Gd480 2.606 . S
O525 Gd481 2.362 . S
O525 C536 1.284 . S
O526 Gd481 2.324 . S
O526 C546 1.254 . S
O527 Gd480 2.429 . S
O527 C546 1.268 . S
O528 Gd480 2.545 . S
O528 C536 1.250 . S
O529 Gd480 2.412 . S
O529 C539 1.252 . S
O530 Gd481 2.545 1_565 S
O530 C548 1.248 . S
O531 Gd480 2.362 1_565 S
O531 Gd481 2.606 1_565 S
O531 C547 1.284 . S
O532 Gd480 2.324 . S
O532 C555 1.254 . S
O533 Gd481 2.429 . S
O533 C555 1.268 . S
O534 Gd481 2.545 1_565 S
O534 C547 1.250 . S
O535 Gd481 2.412 . S
O535 C548 1.243 1_545 S
C536 O525 1.284 . S
C536 O528 1.250 . S
C537 H506 0.929 . S
C537 C522 1.437 . S
C537 C538 1.317 . S
C538 H509 0.930 . S
C538 C514 1.431 . S
C538 C537 1.317 . S
C539 Gd480 2.828 . S
C539 O524 1.258 . S
C539 O529 1.252 . S
C539 C540 1.497 . S
C540 C539 1.497 . S
C540 C541 1.395 . S
C540 C542 1.380 . S
C541 C540 1.395 . S
C541 C544 1.398 . S
C541 H556 0.930 . S
C542 C540 1.380 . S
C542 C543 1.391 . S
C542 H557 0.930 . S
C543 C542 1.391 . S
C543 C545 1.387 . S
C544 C541 1.398 . S
C544 C545 1.380 . S
C544 H558 0.930 . S
C545 C543 1.387 . S
C545 C544 1.380 . S
C545 H559 0.930 . S
C546 O526 1.254 . S
C546 O527 1.268 . S
C547 O531 1.284 . S
C547 O534 1.250 . S
C548 Gd481 2.810 1_565 S
C548 O530 1.248 . S
C548 O535 1.243 1_565 S
C548 C549 1.517 . S
C549 C548 1.517 . S
C549 C550 1.395 . S
C549 C551 1.380 . S
C550 C549 1.395 . S
C550 C553 1.398 . S
C550 H560 0.930 . S
C551 C549 1.380 . S
C551 C552 1.391 . S
C551 H561 0.930 . S
C552 C551 1.391 . S
C552 C554 1.387 . S
C553 C550 1.398 . S
C553 C554 1.380 . S
C553 H562 0.930 . S
C554 C552 1.387 . S
C554 C553 1.380 . S
C554 H563 0.930 . S
C555 O532 1.254 . S
C555 O533 1.268 . S
H556 C541 0.930 . S
H557 C542 0.930 . S
H558 C544 0.930 . S
H559 C545 0.930 . S
H560 C550 0.930 . S
H561 C551 0.930 . S
H562 C553 0.930 . S
H563 C554 0.930 . S
Gd564 N595 2.661 . S
Gd564 N601 2.601 . S
Gd564 O608 2.545 . S
Gd564 O609 2.606 . S
Gd564 O611 2.429 . S
Gd564 O612 2.545 . S
Gd564 O613 2.412 . S
Gd564 O615 2.362 . S
Gd564 O616 2.324 . S
Gd564 C623 2.828 . S
Gd565 N574 2.661 . S
Gd565 N578 2.601 . S
Gd565 O609 2.362 . S
Gd565 O610 2.324 . S
Gd565 O614 2.545 . S
Gd565 O615 2.606 . S
Gd565 O617 2.429 . S
Gd565 O618 2.545 . S
Gd565 O619 2.412 . S
Gd565 C632 2.828 . S
C566 C569 1.417 . S
C566 C571 1.431 . S
C566 C572 1.412 . S
C567 C570 1.437 . S
C567 C571 1.317 . S
C567 H586 0.929 . S
C568 C569 1.426 . S
C568 C570 1.413 . S
C568 N578 1.359 . S
C569 C566 1.417 . S
C569 C568 1.426 . S
C569 N574 1.350 . S
C570 C567 1.437 . S
C570 C568 1.413 . S
C570 C580 1.391 . S
C571 C566 1.431 . S
C571 C567 1.317 . S
C571 H582 0.930 . S
C572 C566 1.412 . S
C572 C573 1.355 . S
C572 H584 0.930 . S
C573 C572 1.355 . S
C573 C575 1.402 . S
C573 H585 0.930 . S
N574 Gd565 2.661 . S
N574 C569 1.350 . S
N574 C575 1.307 . S
C575 C573 1.402 . S
C575 N574 1.307 . S
C575 H576 0.930 . S
H576 C575 0.930 . S
C577 N578 1.334 . S
C577 C579 1.394 . S
C577 H581 0.930 . S
N578 Gd565 2.601 . S
N578 C568 1.359 . S
N578 C577 1.334 . S
C579 C577 1.394 . S
C579 C580 1.359 . S
C579 H591 0.930 . S
C580 C570 1.391 . S
C580 C579 1.359 . S
C580 H592 0.929 . S
H581 C577 0.930 . S
H582 C571 0.930 . S
H583 C600 0.930 . S
H584 C572 0.930 . S
H585 C573 0.930 . S
H586 C567 0.929 . S
H587 C605 0.930 . S
H588 C596 0.930 . S
H589 C597 0.930 . S
H590 C621 0.929 . S
H591 C579 0.930 . S
H592 C580 0.929 . S
H593 C622 0.930 . S
H594 C603 0.930 . S
N595 Gd564 2.661 . S
N595 C599 1.350 . S
N595 C600 1.307 . S
C596 H588 0.930 . S
C596 C597 1.355 . S
C596 C598 1.412 . S
C597 H589 0.930 . S
C597 C596 1.355 . S
C597 C600 1.402 . S
C598 C596 1.412 . S
C598 C599 1.417 . S
C598 C622 1.431 . S
C599 N595 1.350 . S
C599 C598 1.417 . S
C599 C602 1.426 . S
C600 H583 0.930 . S
C600 N595 1.307 . S
C600 C597 1.402 . S
N601 Gd564 2.601 . S
N601 C602 1.359 . S
N601 C605 1.334 . S
C602 C599 1.426 . S
C602 N601 1.359 . S
C602 C606 1.413 . S
C603 H594 0.930 . S
C603 C604 1.359 . S
C603 C605 1.394 . S
C604 C603 1.359 . S
C604 C606 1.391 . S
C604 H607 0.929 . S
C605 H587 0.930 . S
C605 N601 1.334 . S
C605 C603 1.394 . S
C606 C602 1.413 . S
C606 C604 1.391 . S
C606 C621 1.437 . S
H607 C604 0.929 . S
O608 Gd564 2.545 . S
O608 C623 1.258 . S
O609 Gd564 2.606 . S
O609 Gd565 2.362 . S
O609 C620 1.284 . S
O610 Gd565 2.324 . S
O610 C630 1.254 . S
O611 Gd564 2.429 . S
O611 C630 1.268 . S
O612 Gd564 2.545 . S
O612 C620 1.250 . S
O613 Gd564 2.412 . S
O613 C623 1.252 . S
O614 Gd565 2.545 . S
O614 C632 1.258 . S
O615 Gd564 2.362 . S
O615 Gd565 2.606 . S
O615 C631 1.284 . S
O616 Gd564 2.324 . S
O616 C639 1.254 . S
O617 Gd565 2.429 . S
O617 C639 1.268 . S
O618 Gd565 2.545 . S
O618 C631 1.250 . S
O619 Gd565 2.412 . S
O619 C632 1.252 . S
C620 O609 1.284 . S
C620 O612 1.250 . S
C621 H590 0.929 . S
C621 C606 1.437 . S
C621 C622 1.317 . S
C622 H593 0.930 . S
C622 C598 1.431 . S
C622 C621 1.317 . S
C623 Gd564 2.828 . S
C623 O608 1.258 . S
C623 O613 1.252 . S
C623 C624 1.497 . S
C624 C623 1.497 . S
C624 C625 1.395 . S
C624 C626 1.380 . S
C625 C624 1.395 . S
C625 C628 1.398 . S
C625 H640 0.930 . S
C626 C624 1.380 . S
C626 C627 1.391 . S
C626 H641 0.930 . S
C627 C626 1.391 . S
C627 C629 1.387 . S
C628 C625 1.398 . S
C628 C629 1.380 . S
C628 H642 0.930 . S
C629 C627 1.387 . S
C629 C628 1.380 . S
C629 H643 0.930 . S
C630 O610 1.254 . S
C630 O611 1.268 . S
C631 O615 1.284 . S
C631 O618 1.250 . S
C632 Gd565 2.828 . S
C632 O614 1.258 . S
C632 O619 1.252 . S
C632 C633 1.497 . S
C633 C632 1.497 . S
C633 C634 1.395 . S
C633 C635 1.380 . S
C634 C633 1.395 . S
C634 C637 1.398 . S
C634 H644 0.930 . S
C635 C633 1.380 . S
C635 C636 1.391 . S
C635 H645 0.930 . S
C636 C635 1.391 . S
C636 C638 1.387 . S
C637 C634 1.398 . S
C637 C638 1.380 . S
C637 H646 0.930 . S
C638 C636 1.387 . S
C638 C637 1.380 . S
C638 H647 0.930 . S
C639 O616 1.254 . S
C639 O617 1.268 . S
H640 C625 0.930 . S
H641 C626 0.930 . S
H642 C628 0.930 . S
H643 C629 0.930 . S
H644 C634 0.930 . S
H645 C635 0.930 . S
H646 C637 0.930 . S
H647 C638 0.930 . S
Gd648 N679 2.661 . S
Gd648 N685 2.601 . S
Gd648 O692 2.545 . S
Gd648 O693 2.606 1_565 S
Gd648 O695 2.429 1_565 S
Gd648 O696 2.545 . S
Gd648 O697 2.412 . S
Gd648 O699 2.362 1_565 S
Gd648 O700 2.324 . S
Gd648 C707 2.828 . S
Gd649 N658 2.661 . S
Gd649 N662 2.601 . S
Gd649 O693 2.362 . S
Gd649 O694 2.324 . S
Gd649 O698 2.545 . S
Gd649 O699 2.606 . S
Gd649 O701 2.429 . S
Gd649 O702 2.545 . S
Gd649 O703 2.412 . S
Gd649 C716 2.828 . S
C650 C653 1.417 . S
C650 C655 1.431 . S
C650 C656 1.412 . S
C651 C654 1.437 . S
C651 C655 1.317 . S
C651 H670 0.929 . S
C652 C653 1.426 . S
C652 C654 1.413 . S
C652 N662 1.359 . S
C653 C650 1.417 . S
C653 C652 1.426 . S
C653 N658 1.350 . S
C654 C651 1.437 . S
C654 C652 1.413 . S
C654 C664 1.391 . S
C655 C650 1.431 . S
C655 C651 1.317 . S
C655 H666 0.930 . S
C656 C650 1.412 . S
C656 C657 1.355 . S
C656 H668 0.930 . S
C657 C656 1.355 . S
C657 C659 1.402 . S
C657 H669 0.930 . S
N658 Gd649 2.661 . S
N658 C653 1.350 . S
N658 C659 1.307 . S
C659 C657 1.402 . S
C659 N658 1.307 . S
C659 H660 0.930 . S
H660 C659 0.930 . S
C661 N662 1.334 . S
C661 C663 1.394 . S
C661 H665 0.930 . S
N662 Gd649 2.601 . S
N662 C652 1.359 . S
N662 C661 1.334 . S
C663 C661 1.394 . S
C663 C664 1.359 . S
C663 H675 0.930 1_455 S
C664 C654 1.391 . S
C664 C663 1.359 . S
C664 H676 0.929 . S
H665 C661 0.930 . S
H666 C655 0.930 . S
H667 C684 0.930 . S
H668 C656 0.930 . S
H669 C657 0.930 . S
H670 C651 0.929 . S
H671 C689 0.930 . S
H672 C680 0.930 1_655 S
H673 C681 0.948 . S
H674 C705 0.929 . S
H675 C663 0.930 1_655 S
H676 C664 0.929 . S
H677 C706 0.930 . S
H678 C687 0.930 . S
N679 Gd648 2.661 . S
N679 C683 1.350 . S
N679 C684 1.307 . S
C680 H672 0.930 1_455 S
C680 C681 1.346 1_455 S
C680 C682 1.412 . S
C681 H673 0.948 . S
C681 C680 1.346 1_655 S
C681 C684 1.393 1_655 S
C682 C680 1.412 . S
C682 C683 1.417 . S
C682 C706 1.431 . S
C683 N679 1.350 . S
C683 C682 1.417 . S
C683 C686 1.426 . S
C684 H667 0.930 . S
C684 N679 1.307 . S
C684 C681 1.393 1_455 S
N685 Gd648 2.601 . S
N685 C686 1.359 . S
N685 C689 1.334 . S
C686 C683 1.426 . S
C686 N685 1.359 . S
C686 C690 1.413 . S
C687 H678 0.930 . S
C687 C688 1.359 . S
C687 C689 1.394 . S
C688 C687 1.359 . S
C688 C690 1.391 . S
C688 H691 0.929 . S
C689 H671 0.930 . S
C689 N685 1.334 . S
C689 C687 1.394 . S
C690 C686 1.413 . S
C690 C688 1.391 . S
C690 C705 1.437 . S
H691 C688 0.929 . S
O692 Gd648 2.545 . S
O692 C707 1.258 . S
O693 Gd648 2.606 1_545 S
O693 Gd649 2.362 . S
O693 C704 1.284 . S
O694 Gd649 2.324 . S
O694 C714 1.254 . S
O695 Gd648 2.429 1_545 S
O695 C714 1.268 . S
O696 Gd648 2.545 . S
O696 C704 1.250 1_565 S
O697 Gd648 2.412 . S
O697 C707 1.252 . S
O698 Gd649 2.545 . S
O698 C716 1.258 . S
O699 Gd648 2.362 1_545 S
O699 Gd649 2.606 . S
O699 C715 1.284 . S
O700 Gd648 2.324 . S
O700 C723 1.262 . S
O701 Gd649 2.429 . S
O701 C723 1.255 1_545 S
O702 Gd649 2.545 . S
O702 C715 1.250 . S
O703 Gd649 2.412 . S
O703 C716 1.252 . S
C704 O693 1.284 . S
C704 O696 1.250 1_545 S
C705 H674 0.929 . S
C705 C690 1.437 . S
C705 C706 1.317 . S
C706 H677 0.930 . S
C706 C682 1.431 . S
C706 C705 1.317 . S
C707 Gd648 2.828 . S
C707 O692 1.258 . S
C707 O697 1.252 . S
C707 C708 1.497 . S
C708 C707 1.497 . S
C708 C709 1.395 . S
C708 C710 1.380 . S
C709 C708 1.395 . S
C709 C712 1.398 . S
C709 H724 0.930 . S
C710 C708 1.380 . S
C710 C711 1.391 . S
C710 H725 0.930 . S
C711 C710 1.391 . S
C711 C713 1.387 . S
C712 C709 1.398 . S
C712 C713 1.380 . S
C712 H726 0.930 . S
C713 C711 1.387 . S
C713 C712 1.380 . S
C713 H727 0.930 . S
C714 O694 1.254 . S
C714 O695 1.268 . S
C715 O699 1.284 . S
C715 O702 1.250 . S
C716 Gd649 2.828 . S
C716 O698 1.258 . S
C716 O703 1.252 . S
C716 C717 1.497 . S
C717 C716 1.497 . S
C717 C718 1.395 . S
C717 C719 1.380 . S
C718 C717 1.395 . S
C718 C721 1.398 . S
C718 H728 0.930 . S
C719 C717 1.380 . S
C719 C720 1.391 . S
C719 H729 0.930 . S
C720 C719 1.391 . S
C720 C722 1.387 . S
C721 C718 1.398 . S
C721 C722 1.380 . S
C721 H730 0.930 . S
C722 C720 1.387 . S
C722 C721 1.380 . S
C722 H731 0.930 . S
C723 O700 1.262 . S
C723 O701 1.255 1_565 S
H724 C709 0.930 . S
H725 C710 0.930 . S
H726 C712 0.930 . S
H727 C713 0.930 . S
H728 C718 0.930 . S
H729 C719 0.930 . S
H730 C721 0.930 . S
H731 C722 0.930 . S
Gd732 N763 2.661 . S
Gd732 N769 2.601 . S
Gd732 O776 2.545 . S
Gd732 O777 2.606 . S
Gd732 O779 2.429 . S
Gd732 O780 2.545 . S
Gd732 O781 2.412 . S
Gd732 O783 2.362 . S
Gd732 O784 2.324 . S
Gd732 C791 2.828 . S
Gd733 N742 2.661 . S
Gd733 N746 2.601 . S
Gd733 O777 2.362 . S
Gd733 O778 2.324 . S
Gd733 O782 2.545 . S
Gd733 O783 2.606 . S
Gd733 O785 2.429 . S
Gd733 O786 2.545 . S
Gd733 O787 2.412 . S
Gd733 C800 2.828 . S
C734 C737 1.417 . S
C734 C739 1.431 . S
C734 C740 1.412 . S
C735 C738 1.437 . S
C735 C739 1.317 . S
C735 H754 0.929 . S
C736 C737 1.426 . S
C736 C738 1.413 . S
C736 N746 1.359 . S
C737 C734 1.417 . S
C737 C736 1.426 . S
C737 N742 1.350 . S
C738 C735 1.437 . S
C738 C736 1.413 . S
C738 C748 1.391 . S
C739 C734 1.431 . S
C739 C735 1.317 . S
C739 H750 0.930 . S
C740 C734 1.412 . S
C740 C741 1.355 . S
C740 H752 0.930 . S
C741 C740 1.355 . S
C741 C743 1.402 . S
C741 H753 0.930 . S
N742 Gd733 2.661 . S
N742 C737 1.350 . S
N742 C743 1.307 . S
C743 C741 1.402 . S
C743 N742 1.307 . S
C743 H744 0.930 . S
H744 C743 0.930 . S
C745 N746 1.334 . S
C745 C747 1.394 . S
C745 H749 0.930 . S
N746 Gd733 2.601 . S
N746 C736 1.359 . S
N746 C745 1.334 . S
C747 C745 1.394 . S
C747 C748 1.359 . S
C747 H759 0.930 . S
C748 C738 1.391 . S
C748 C747 1.359 . S
C748 H760 0.929 . S
H749 C745 0.930 . S
H750 C739 0.930 . S
H751 C768 0.930 . S
H752 C740 0.930 . S
H753 C741 0.930 . S
H754 C735 0.929 . S
H755 C773 0.930 . S
H756 C764 0.930 . S
H757 C765 0.930 . S
H758 C789 0.929 . S
H759 C747 0.930 . S
H760 C748 0.929 . S
H761 C790 0.930 . S
H762 C771 0.930 . S
N763 Gd732 2.661 . S
N763 C767 1.350 . S
N763 C768 1.307 . S
C764 H756 0.930 . S
C764 C765 1.355 . S
C764 C766 1.412 . S
C765 H757 0.930 . S
C765 C764 1.355 . S
C765 C768 1.402 . S
C766 C764 1.412 . S
C766 C767 1.417 . S
C766 C790 1.431 . S
C767 N763 1.350 . S
C767 C766 1.417 . S
C767 C770 1.426 . S
C768 H751 0.930 . S
C768 N763 1.307 . S
C768 C765 1.402 . S
N769 Gd732 2.601 . S
N769 C770 1.359 . S
N769 C773 1.334 . S
C770 C767 1.426 . S
C770 N769 1.359 . S
C770 C774 1.413 . S
C771 H762 0.930 . S
C771 C772 1.359 . S
C771 C773 1.394 . S
C772 C771 1.359 . S
C772 C774 1.391 . S
C772 H775 0.929 . S
C773 H755 0.930 . S
C773 N769 1.334 . S
C773 C771 1.394 . S
C774 C770 1.413 . S
C774 C772 1.391 . S
C774 C789 1.437 . S
H775 C772 0.929 . S
O776 Gd732 2.545 . S
O776 C791 1.258 . S
O777 Gd732 2.606 . S
O777 Gd733 2.362 . S
O777 C788 1.284 . S
O778 Gd733 2.324 . S
O778 C798 1.254 . S
O779 Gd732 2.429 . S
O779 C798 1.268 . S
O780 Gd732 2.545 . S
O780 C788 1.250 . S
O781 Gd732 2.412 . S
O781 C791 1.252 . S
O782 Gd733 2.545 . S
O782 C800 1.258 . S
O783 Gd732 2.362 . S
O783 Gd733 2.606 . S
O783 C799 1.284 . S
O784 Gd732 2.324 . S
O784 C807 1.254 . S
O785 Gd733 2.429 . S
O785 C807 1.268 . S
O786 Gd733 2.545 . S
O786 C799 1.250 . S
O787 Gd733 2.412 . S
O787 C800 1.252 . S
C788 O777 1.284 . S
C788 O780 1.250 . S
C789 H758 0.929 . S
C789 C774 1.437 . S
C789 C790 1.317 . S
C790 H761 0.930 . S
C790 C766 1.431 . S
C790 C789 1.317 . S
C791 Gd732 2.828 . S
C791 O776 1.258 . S
C791 O781 1.252 . S
C791 C792 1.497 . S
C792 C791 1.497 . S
C792 C793 1.395 . S
C792 C794 1.380 . S
C793 C792 1.395 . S
C793 C796 1.398 . S
C793 H808 0.930 . S
C794 C792 1.380 . S
C794 C795 1.391 . S
C794 H809 0.930 . S
C795 C794 1.391 . S
C795 C797 1.387 . S
C796 C793 1.398 . S
C796 C797 1.380 . S
C796 H810 0.930 . S
C797 C795 1.387 . S
C797 C796 1.380 . S
C797 H811 0.930 . S
C798 O778 1.254 . S
C798 O779 1.268 . S
C799 O783 1.284 . S
C799 O786 1.250 . S
C800 Gd733 2.828 . S
C800 O782 1.258 . S
C800 O787 1.252 . S
C800 C801 1.497 . S
C801 C800 1.497 . S
C801 C802 1.395 . S
C801 C803 1.380 . S
C802 C801 1.395 . S
C802 C805 1.398 . S
C802 H812 0.930 . S
C803 C801 1.380 . S
C803 C804 1.391 . S
C803 H813 0.930 . S
C804 C803 1.391 . S
C804 C806 1.387 . S
C805 C802 1.398 . S
C805 C806 1.380 . S
C805 H814 0.930 . S
C806 C804 1.387 . S
C806 C805 1.380 . S
C806 H815 0.930 . S
C807 O784 1.254 . S
C807 O785 1.268 . S
H808 C793 0.930 . S
H809 C794 0.930 . S
H810 C796 0.930 . S
H811 C797 0.930 . S
H812 C802 0.930 . S
H813 C803 0.930 . S
H814 C805 0.930 . S
H815 C806 0.930 . S
Gd816 N847 2.661 . S
Gd816 N853 2.601 . S
Gd816 O860 2.545 . S
Gd816 O861 2.606 1_556 S
Gd816 O863 2.429 1_556 S
Gd816 O864 2.545 . S
Gd816 O865 2.412 . S
Gd816 O867 2.362 1_556 S
Gd816 O868 2.324 . S
Gd816 C875 2.828 . S
Gd817 N826 2.661 . S
Gd817 N830 2.601 . S
Gd817 O861 2.362 . S
Gd817 O862 2.324 . S
Gd817 O866 2.545 1_545 S
Gd817 O867 2.606 . S
Gd817 O869 2.429 1_545 S
Gd817 O870 2.545 . S
Gd817 O871 2.412 . S
Gd817 C884 2.828 . S
C818 C821 1.417 . S
C818 C823 1.431 . S
C818 C824 1.412 . S
C819 C822 1.437 . S
C819 C823 1.317 . S
C819 H838 0.929 . S
C820 C821 1.426 . S
C820 C822 1.413 . S
C820 N830 1.359 . S
C821 C818 1.417 . S
C821 C820 1.426 . S
C821 N826 1.350 . S
C822 C819 1.437 . S
C822 C820 1.413 . S
C822 C832 1.391 1_545 S
C823 C818 1.431 . S
C823 C819 1.317 . S
C823 H834 0.930 . S
C824 C818 1.412 . S
C824 C825 1.355 . S
C824 H836 0.930 . S
C825 C824 1.355 . S
C825 C827 1.402 . S
C825 H837 0.930 . S
N826 Gd817 2.661 . S
N826 C821 1.350 . S
N826 C827 1.307 . S
C827 C825 1.402 . S
C827 N826 1.307 . S
C827 H828 0.930 . S
H828 C827 0.930 . S
C829 N830 1.334 1_565 S
C829 C831 1.394 . S
C829 H833 0.930 . S
N830 Gd817 2.601 . S
N830 C820 1.359 . S
N830 C829 1.334 1_545 S
C831 C829 1.394 . S
C831 C832 1.359 . S
C831 H843 0.930 . S
C832 C822 1.391 1_565 S
C832 C831 1.359 . S
C832 H844 0.929 . S
H833 C829 0.930 . S
H834 C823 0.930 . S
H835 C852 0.930 . S
H836 C824 0.930 . S
H837 C825 0.930 . S
H838 C819 0.929 . S
H839 C857 0.930 . S
H840 C848 0.930 . S
H841 C849 0.930 . S
H842 C873 0.929 . S
H843 C831 0.930 . S
H844 C832 0.929 . S
H845 C874 0.930 . S
H846 C855 0.930 . S
N847 Gd816 2.661 . S
N847 C851 1.350 . S
N847 C852 1.307 1_545 S
C848 H840 0.930 . S
C848 C849 1.355 . S
C848 C850 1.412 1_565 S
C849 H841 0.930 . S
C849 C848 1.355 . S
C849 C852 1.402 . S
C850 C848 1.412 1_545 S
C850 C851 1.417 . S
C850 C874 1.431 . S
C851 N847 1.350 . S
C851 C850 1.417 . S
C851 C854 1.426 . S
C852 H835 0.930 . S
C852 N847 1.307 1_565 S
C852 C849 1.402 . S
N853 Gd816 2.601 . S
N853 C854 1.359 . S
N853 C857 1.334 . S
C854 C851 1.426 . S
C854 N853 1.359 . S
C854 C858 1.413 . S
C855 H846 0.930 . S
C855 C856 1.359 . S
C855 C857 1.394 . S
C856 C855 1.359 . S
C856 C858 1.391 . S
C856 H859 0.929 . S
C857 H839 0.930 . S
C857 N853 1.334 . S
C857 C855 1.394 . S
C858 C854 1.413 . S
C858 C856 1.391 . S
C858 C873 1.437 . S
H859 C856 0.929 . S
O860 Gd816 2.545 . S
O860 C875 1.258 . S
O861 Gd816 2.606 1_554 S
O861 Gd817 2.362 . S
O861 C872 1.284 . S
O862 Gd817 2.324 . S
O862 C882 1.254 . S
O863 Gd816 2.429 1_554 S
O863 C882 1.268 . S
O864 Gd816 2.545 . S
O864 C872 1.250 1_556 S
O865 Gd816 2.412 . S
O865 C875 1.252 . S
O866 Gd817 2.545 1_565 S
O866 C884 1.258 1_565 S
O867 Gd816 2.362 1_554 S
O867 Gd817 2.606 . S
O867 C883 1.284 . S
O868 Gd816 2.324 . S
O868 C891 1.254 1_545 S
O869 Gd817 2.429 1_565 S
O869 C891 1.268 1_554 S
O870 Gd817 2.545 . S
O870 C883 1.250 . S
O871 Gd817 2.412 . S
O871 C884 1.252 . S
C872 O861 1.284 . S
C872 O864 1.250 1_554 S
C873 H842 0.929 . S
C873 C858 1.437 . S
C873 C874 1.317 . S
C874 H845 0.930 . S
C874 C850 1.431 . S
C874 C873 1.317 . S
C875 Gd816 2.828 . S
C875 O860 1.258 . S
C875 O865 1.252 . S
C875 C876 1.497 . S
C876 C875 1.497 . S
C876 C877 1.395 . S
C876 C878 1.380 . S
C877 C876 1.395 . S
C877 C880 1.398 . S
C877 H892 0.930 . S
C878 C876 1.380 . S
C878 C879 1.391 . S
C878 H893 0.930 . S
C879 C878 1.391 . S
C879 C881 1.387 . S
C880 C877 1.398 . S
C880 C881 1.380 . S
C880 H894 0.930 . S
C881 C879 1.387 . S
C881 C880 1.380 . S
C881 H895 0.930 . S
C882 O862 1.254 . S
C882 O863 1.268 . S
C883 O867 1.284 . S
C883 O870 1.250 . S
C884 Gd817 2.828 . S
C884 O866 1.258 1_545 S
C884 O871 1.252 . S
C884 C885 1.497 1_545 S
C885 C884 1.497 1_565 S
C885 C886 1.395 . S
C885 C887 1.380 1_565 S
C886 C885 1.395 . S
C886 C889 1.398 . S
C886 H896 0.930 . S
C887 C885 1.380 1_545 S
C887 C888 1.391 . S
C887 H897 0.930 . S
C888 C887 1.391 . S
C888 C890 1.387 1_545 S
C889 C886 1.398 . S
C889 C890 1.380 . S
C889 H898 0.930 . S
C890 C888 1.387 1_565 S
C890 C889 1.380 . S
C890 H899 0.930 . S
C891 O868 1.254 1_565 S
C891 O869 1.268 1_556 S
H892 C877 0.930 . S
H893 C878 0.930 . S
H894 C880 0.930 . S
H895 C881 0.930 . S
H896 C886 0.930 . S
H897 C887 0.930 . S
H898 C889 0.930 . S
H899 C890 0.930 . S
Gd900 N931 2.661 . S
Gd900 N937 2.601 . S
Gd900 O944 2.545 . S
Gd900 O945 2.606 . S
Gd900 O947 2.429 . S
Gd900 O948 2.545 . S
Gd900 O949 2.412 . S
Gd900 O951 2.362 . S
Gd900 O952 2.324 . S
Gd900 C959 2.828 . S
Gd901 N910 2.661 . S
Gd901 N914 2.601 . S
Gd901 O945 2.362 . S
Gd901 O946 2.324 . S
Gd901 O950 2.545 . S
Gd901 O951 2.606 . S
Gd901 O953 2.429 . S
Gd901 O954 2.545 . S
Gd901 O955 2.412 . S
Gd901 C968 2.828 . S
C902 C905 1.417 . S
C902 C907 1.431 . S
C902 C908 1.412 . S
C903 C906 1.437 . S
C903 C907 1.317 . S
C903 H922 0.929 . S
C904 C905 1.426 . S
C904 C906 1.413 . S
C904 N914 1.359 . S
C905 C902 1.417 . S
C905 C904 1.426 . S
C905 N910 1.350 . S
C906 C903 1.437 . S
C906 C904 1.413 . S
C906 C916 1.391 . S
C907 C902 1.431 . S
C907 C903 1.317 . S
C907 H918 0.930 . S
C908 C902 1.412 . S
C908 C909 1.355 . S
C908 H920 0.930 . S
C909 C908 1.355 . S
C909 C911 1.402 . S
C909 H921 0.930 . S
N910 Gd901 2.661 . S
N910 C905 1.350 . S
N910 C911 1.307 . S
C911 C909 1.402 . S
C911 N910 1.307 . S
C911 H912 0.930 . S
H912 C911 0.930 . S
C913 N914 1.334 . S
C913 C915 1.394 . S
C913 H917 0.930 . S
N914 Gd901 2.601 . S
N914 C904 1.359 . S
N914 C913 1.334 . S
C915 C913 1.394 . S
C915 C916 1.359 . S
C915 H927 0.930 . S
C916 C906 1.391 . S
C916 C915 1.359 . S
C916 H928 0.929 . S
H917 C913 0.930 . S
H918 C907 0.930 . S
H919 C936 0.930 . S
H920 C908 0.930 . S
H921 C909 0.930 . S
H922 C903 0.929 . S
H923 C941 0.930 . S
H924 C932 0.930 . S
H925 C933 0.930 . S
H926 C957 0.929 . S
H927 C915 0.930 . S
H928 C916 0.929 . S
H929 C958 0.930 . S
H930 C939 0.930 . S
N931 Gd900 2.661 . S
N931 C935 1.350 . S
N931 C936 1.307 . S
C932 H924 0.930 . S
C932 C933 1.355 . S
C932 C934 1.412 . S
C933 H925 0.930 . S
C933 C932 1.355 . S
C933 C936 1.402 . S
C934 C932 1.412 . S
C934 C935 1.417 . S
C934 C958 1.431 . S
C935 N931 1.350 . S
C935 C934 1.417 . S
C935 C938 1.426 . S
C936 H919 0.930 . S
C936 N931 1.307 . S
C936 C933 1.402 . S
N937 Gd900 2.601 . S
N937 C938 1.359 . S
N937 C941 1.334 . S
C938 C935 1.426 . S
C938 N937 1.359 . S
C938 C942 1.413 . S
C939 H930 0.930 . S
C939 C940 1.359 . S
C939 C941 1.394 . S
C940 C939 1.359 . S
C940 C942 1.391 . S
C940 H943 0.929 . S
C941 H923 0.930 . S
C941 N937 1.334 . S
C941 C939 1.394 . S
C942 C938 1.413 . S
C942 C940 1.391 . S
C942 C957 1.437 . S
H943 C940 0.929 . S
O944 Gd900 2.545 . S
O944 C959 1.258 . S
O945 Gd900 2.606 . S
O945 Gd901 2.362 . S
O945 C956 1.284 . S
O946 Gd901 2.324 . S
O946 C966 1.254 . S
O947 Gd900 2.429 . S
O947 C966 1.268 . S
O948 Gd900 2.545 . S
O948 C956 1.250 . S
O949 Gd900 2.412 . S
O949 C959 1.252 . S
O950 Gd901 2.545 . S
O950 C968 1.258 . S
O951 Gd900 2.362 . S
O951 Gd901 2.606 . S
O951 C967 1.284 . S
O952 Gd900 2.324 . S
O952 C975 1.254 . S
O953 Gd901 2.429 . S
O953 C975 1.268 . S
O954 Gd901 2.545 . S
O954 C967 1.250 . S
O955 Gd901 2.412 . S
O955 C968 1.252 . S
C956 O945 1.284 . S
C956 O948 1.250 . S
C957 H926 0.929 . S
C957 C942 1.437 . S
C957 C958 1.317 . S
C958 H929 0.930 . S
C958 C934 1.431 . S
C958 C957 1.317 . S
C959 Gd900 2.828 . S
C959 O944 1.258 . S
C959 O949 1.252 . S
C959 C960 1.497 . S
C960 C959 1.497 . S
C960 C961 1.395 . S
C960 C962 1.380 . S
C961 C960 1.395 . S
C961 C964 1.398 . S
C961 H976 0.930 . S
C962 C960 1.380 . S
C962 C963 1.391 . S
C962 H977 0.930 . S
C963 C962 1.391 . S
C963 C965 1.387 . S
C964 C961 1.398 . S
C964 C965 1.380 . S
C964 H978 0.930 . S
C965 C963 1.387 . S
C965 C964 1.380 . S
C965 H979 0.930 . S
C966 O946 1.254 . S
C966 O947 1.268 . S
C967 O951 1.284 . S
C967 O954 1.250 . S
C968 Gd901 2.828 . S
C968 O950 1.258 . S
C968 O955 1.252 . S
C968 C969 1.497 . S
C969 C968 1.497 . S
C969 C970 1.395 . S
C969 C971 1.380 . S
C970 C969 1.395 . S
C970 C973 1.398 . S
C970 H980 0.930 . S
C971 C969 1.380 . S
C971 C972 1.391 . S
C971 H981 0.930 . S
C972 C971 1.391 . S
C972 C974 1.387 . S
C973 C970 1.398 . S
C973 C974 1.380 . S
C973 H982 0.930 . S
C974 C972 1.387 . S
C974 C973 1.380 . S
C974 H983 0.930 . S
C975 O952 1.254 . S
C975 O953 1.268 . S
H976 C961 0.930 . S
H977 C962 0.930 . S
H978 C964 0.930 . S
H979 C965 0.930 . S
H980 C970 0.930 . S
H981 C971 0.930 . S
H982 C973 0.930 . S
H983 C974 0.930 . S
Gd984 N1015 2.661 . S
Gd984 N1021 2.601 . S
Gd984 O1028 2.545 1_556 S
Gd984 O1029 2.606 1_556 S
Gd984 O1031 2.424 . S
Gd984 O1032 2.545 1_556 S
Gd984 O1033 2.412 1_556 S
Gd984 O1035 2.362 . S
Gd984 O1036 2.324 1_556 S
Gd984 C1043 2.828 1_556 S
Gd985 N994 2.661 . S
Gd985 N998 2.601 . S
Gd985 O1029 2.362 . S
Gd985 O1030 2.324 . S
Gd985 O1034 2.545 . S
Gd985 O1035 2.606 1_554 S
Gd985 O1037 2.429 . S
Gd985 O1038 2.545 1_554 S
Gd985 O1039 2.412 . S
Gd985 C1052 2.828 . S
C986 C989 1.417 . S
C986 C991 1.431 . S
C986 C992 1.412 . S
C987 C990 1.437 . S
C987 C991 1.317 . S
C987 H1006 0.929 . S
C988 C989 1.426 . S
C988 C990 1.413 . S
C988 N998 1.359 . S
C989 C986 1.417 . S
C989 C988 1.426 . S
C989 N994 1.350 . S
C990 C987 1.437 . S
C990 C988 1.413 . S
C990 C1000 1.391 . S
C991 C986 1.431 . S
C991 C987 1.317 . S
C991 H1002 0.930 . S
C992 C986 1.412 . S
C992 C993 1.355 . S
C992 H1004 0.930 . S
C993 C992 1.355 . S
C993 C995 1.402 . S
C993 H1005 0.930 . S
N994 Gd985 2.661 . S
N994 C989 1.350 . S
N994 C995 1.307 . S
C995 C993 1.402 . S
C995 N994 1.307 . S
C995 H996 0.930 . S
H996 C995 0.930 . S
C997 N998 1.334 . S
C997 C999 1.394 . S
C997 H1001 0.930 . S
N998 Gd985 2.601 . S
N998 C988 1.359 . S
N998 C997 1.334 . S
C999 C997 1.394 . S
C999 C1000 1.359 . S
C999 H1011 0.930 . S
C1000 C990 1.391 . S
C1000 C999 1.359 . S
C1000 H1012 0.929 . S
H1001 C997 0.930 . S
H1002 C991 0.930 . S
H1003 C1020 0.930 . S
H1004 C992 0.930 . S
H1005 C993 0.930 . S
H1006 C987 0.929 . S
H1007 C1025 0.930 . S
H1008 C1016 0.930 . S
H1009 C1017 0.930 . S
H1010 C1041 0.929 . S
H1011 C999 0.930 . S
H1012 C1000 0.929 . S
H1013 C1042 0.930 . S
H1014 C1023 0.930 . S
N1015 Gd984 2.661 . S
N1015 C1019 1.350 . S
N1015 C1020 1.307 . S
C1016 H1008 0.930 . S
C1016 C1017 1.355 . S
C1016 C1018 1.412 . S
C1017 H1009 0.930 . S
C1017 C1016 1.355 . S
C1017 C1020 1.402 . S
C1018 C1016 1.412 . S
C1018 C1019 1.417 . S
C1018 C1042 1.431 . S
C1019 N1015 1.350 . S
C1019 C1018 1.417 . S
C1019 C1022 1.426 . S
C1020 H1003 0.930 . S
C1020 N1015 1.307 . S
C1020 C1017 1.402 . S
N1021 Gd984 2.601 . S
N1021 C1022 1.359 . S
N1021 C1025 1.334 . S
C1022 C1019 1.426 . S
C1022 N1021 1.359 . S
C1022 C1026 1.413 . S
C1023 H1014 0.930 . S
C1023 C1024 1.359 . S
C1023 C1025 1.394 . S
C1024 C1023 1.359 . S
C1024 C1026 1.391 . S
C1024 H1027 0.929 . S
C1025 H1007 0.930 . S
C1025 N1021 1.334 . S
C1025 C1023 1.394 . S
C1026 C1022 1.413 . S
C1026 C1024 1.391 . S
C1026 C1041 1.437 . S
H1027 C1024 0.929 . S
O1028 Gd984 2.545 1_554 S
O1028 C1043 1.258 . S
O1029 Gd984 2.606 1_554 S
O1029 Gd985 2.362 . S
O1029 C1040 1.284 . S
O1030 Gd985 2.324 . S
O1030 C1050 1.243 1_554 S
O1031 Gd984 2.424 . S
O1031 C1050 1.267 . S
O1032 Gd984 2.545 1_554 S
O1032 C1040 1.250 . S
O1033 Gd984 2.412 1_554 S
O1033 C1043 1.252 . S
O1034 Gd985 2.545 . S
O1034 C1052 1.258 . S
O1035 Gd984 2.362 . S
O1035 Gd985 2.606 1_556 S
O1035 C1051 1.284 . S
O1036 Gd984 2.324 1_554 S
O1036 C1059 1.254 . S
O1037 Gd985 2.429 . S
O1037 C1059 1.268 . S
O1038 Gd985 2.545 1_556 S
O1038 C1051 1.250 . S
O1039 Gd985 2.412 . S
O1039 C1052 1.252 . S
C1040 O1029 1.284 . S
C1040 O1032 1.250 . S
C1041 H1010 0.929 . S
C1041 C1026 1.437 . S
C1041 C1042 1.317 . S
C1042 H1013 0.930 . S
C1042 C1018 1.431 . S
C1042 C1041 1.317 . S
C1043 Gd984 2.828 1_554 S
C1043 O1028 1.258 . S
C1043 O1033 1.252 . S
C1043 C1044 1.497 . S
C1044 C1043 1.497 . S
C1044 C1045 1.395 . S
C1044 C1046 1.380 . S
C1045 C1044 1.395 . S
C1045 C1048 1.398 . S
C1045 H1060 0.930 1_554 S
C1046 C1044 1.380 . S
C1046 C1047 1.391 . S
C1046 H1061 0.930 . S
C1047 C1046 1.391 . S
C1047 C1049 1.387 . S
C1048 C1045 1.398 . S
C1048 C1049 1.380 . S
C1048 H1062 0.930 . S
C1049 C1047 1.387 . S
C1049 C1048 1.380 . S
C1049 H1063 0.930 . S
C1050 O1030 1.243 1_556 S
C1050 O1031 1.267 . S
C1051 O1035 1.284 . S
C1051 O1038 1.250 . S
C1052 Gd985 2.828 . S
C1052 O1034 1.258 . S
C1052 O1039 1.252 . S
C1052 C1053 1.497 . S
C1053 C1052 1.497 . S
C1053 C1054 1.395 . S
C1053 C1055 1.380 1_554 S
C1054 C1053 1.395 . S
C1054 C1057 1.398 . S
C1054 H1064 0.930 . S
C1055 C1053 1.380 1_556 S
C1055 C1056 1.391 . S
C1055 H1065 0.930 . S
C1056 C1055 1.391 . S
C1056 C1058 1.387 . S
C1057 C1054 1.398 . S
C1057 C1058 1.380 1_554 S
C1057 H1066 0.930 . S
C1058 C1056 1.387 . S
C1058 C1057 1.380 1_556 S
C1058 H1067 0.930 . S
C1059 O1036 1.254 . S
C1059 O1037 1.268 . S
H1060 C1045 0.930 1_556 S
H1061 C1046 0.930 . S
H1062 C1048 0.930 . S
H1063 C1049 0.930 . S
H1064 C1054 0.930 . S
H1065 C1055 0.930 . S
H1066 C1057 0.930 . S
H1067 C1058 0.930 . S
Gd1068 N1099 2.661 . S
Gd1068 N1105 2.601 . S
Gd1068 O1112 2.545 . S
Gd1068 O1113 2.606 . S
Gd1068 O1115 2.429 . S
Gd1068 O1116 2.545 . S
Gd1068 O1117 2.412 . S
Gd1068 O1119 2.362 . S
Gd1068 O1120 2.324 . S
Gd1068 C1127 2.828 . S
Gd1069 N1078 2.661 . S
Gd1069 N1082 2.601 . S
Gd1069 O1113 2.362 . S
Gd1069 O1114 2.324 . S
Gd1069 O1118 2.545 . S
Gd1069 O1119 2.606 . S
Gd1069 O1121 2.429 . S
Gd1069 O1122 2.545 . S
Gd1069 O1123 2.412 . S
Gd1069 C1136 2.828 . S
C1070 C1073 1.417 . S
C1070 C1075 1.431 . S
C1070 C1076 1.412 . S
C1071 C1074 1.437 . S
C1071 C1075 1.317 . S
C1071 H1090 0.929 . S
C1072 C1073 1.426 . S
C1072 C1074 1.413 . S
C1072 N1082 1.359 . S
C1073 C1070 1.417 . S
C1073 C1072 1.426 . S
C1073 N1078 1.350 . S
C1074 C1071 1.437 . S
C1074 C1072 1.413 . S
C1074 C1084 1.391 . S
C1075 C1070 1.431 . S
C1075 C1071 1.317 . S
C1075 H1086 0.930 . S
C1076 C1070 1.412 . S
C1076 C1077 1.355 . S
C1076 H1088 0.930 . S
C1077 C1076 1.355 . S
C1077 C1079 1.402 . S
C1077 H1089 0.930 . S
N1078 Gd1069 2.661 . S
N1078 C1073 1.350 . S
N1078 C1079 1.307 . S
C1079 C1077 1.402 . S
C1079 N1078 1.307 . S
C1079 H1080 0.930 . S
H1080 C1079 0.930 . S
C1081 N1082 1.334 . S
C1081 C1083 1.394 . S
C1081 H1085 0.930 . S
N1082 Gd1069 2.601 . S
N1082 C1072 1.359 . S
N1082 C1081 1.334 . S
C1083 C1081 1.394 . S
C1083 C1084 1.359 . S
C1083 H1095 0.930 . S
C1084 C1074 1.391 . S
C1084 C1083 1.359 . S
C1084 H1096 0.929 . S
H1085 C1081 0.930 . S
H1086 C1075 0.930 . S
H1087 C1104 0.930 . S
H1088 C1076 0.930 . S
H1089 C1077 0.930 . S
H1090 C1071 0.929 . S
H1091 C1109 0.930 . S
H1092 C1100 0.930 . S
H1093 C1101 0.930 . S
H1094 C1125 0.929 . S
H1095 C1083 0.930 . S
H1096 C1084 0.929 . S
H1097 C1126 0.930 . S
H1098 C1107 0.930 . S
N1099 Gd1068 2.661 . S
N1099 C1103 1.350 . S
N1099 C1104 1.307 . S
C1100 H1092 0.930 . S
C1100 C1101 1.355 . S
C1100 C1102 1.412 . S
C1101 H1093 0.930 . S
C1101 C1100 1.355 . S
C1101 C1104 1.402 . S
C1102 C1100 1.412 . S
C1102 C1103 1.417 . S
C1102 C1126 1.431 . S
C1103 N1099 1.350 . S
C1103 C1102 1.417 . S
C1103 C1106 1.426 . S
C1104 H1087 0.930 . S
C1104 N1099 1.307 . S
C1104 C1101 1.402 . S
N1105 Gd1068 2.601 . S
N1105 C1106 1.359 . S
N1105 C1109 1.334 . S
C1106 C1103 1.426 . S
C1106 N1105 1.359 . S
C1106 C1110 1.413 . S
C1107 H1098 0.930 . S
C1107 C1108 1.359 . S
C1107 C1109 1.394 . S
C1108 C1107 1.359 . S
C1108 C1110 1.391 . S
C1108 H1111 0.929 . S
C1109 H1091 0.930 . S
C1109 N1105 1.334 . S
C1109 C1107 1.394 . S
C1110 C1106 1.413 . S
C1110 C1108 1.391 . S
C1110 C1125 1.437 . S
H1111 C1108 0.929 . S
O1112 Gd1068 2.545 . S
O1112 C1127 1.258 . S
O1113 Gd1068 2.606 . S
O1113 Gd1069 2.362 . S
O1113 C1124 1.284 . S
O1114 Gd1069 2.324 . S
O1114 C1134 1.254 . S
O1115 Gd1068 2.429 . S
O1115 C1134 1.268 . S
O1116 Gd1068 2.545 . S
O1116 C1124 1.250 . S
O1117 Gd1068 2.412 . S
O1117 C1127 1.252 . S
O1118 Gd1069 2.545 . S
O1118 C1136 1.258 . S
O1119 Gd1068 2.362 . S
O1119 Gd1069 2.606 . S
O1119 C1135 1.284 . S
O1120 Gd1068 2.324 . S
O1120 C1143 1.254 . S
O1121 Gd1069 2.429 . S
O1121 C1143 1.268 . S
O1122 Gd1069 2.545 . S
O1122 C1135 1.250 . S
O1123 Gd1069 2.412 . S
O1123 C1136 1.252 . S
C1124 O1113 1.284 . S
C1124 O1116 1.250 . S
C1125 H1094 0.929 . S
C1125 C1110 1.437 . S
C1125 C1126 1.317 . S
C1126 H1097 0.930 . S
C1126 C1102 1.431 . S
C1126 C1125 1.317 . S
C1127 Gd1068 2.828 . S
C1127 O1112 1.258 . S
C1127 O1117 1.252 . S
C1127 C1128 1.497 . S
C1128 C1127 1.497 . S
C1128 C1129 1.395 . S
C1128 C1130 1.380 . S
C1129 C1128 1.395 . S
C1129 C1132 1.398 . S
C1129 H1144 0.930 . S
C1130 C1128 1.380 . S
C1130 C1131 1.391 . S
C1130 H1145 0.930 . S
C1131 C1130 1.391 . S
C1131 C1133 1.387 . S
C1132 C1129 1.398 . S
C1132 C1133 1.380 . S
C1132 H1146 0.930 . S
C1133 C1131 1.387 . S
C1133 C1132 1.380 . S
C1133 H1147 0.930 . S
C1134 O1114 1.254 . S
C1134 O1115 1.268 . S
C1135 O1119 1.284 . S
C1135 O1122 1.250 . S
C1136 Gd1069 2.828 . S
C1136 O1118 1.258 . S
C1136 O1123 1.252 . S
C1136 C1137 1.497 . S
C1137 C1136 1.497 . S
C1137 C1138 1.395 . S
C1137 C1139 1.380 . S
C1138 C1137 1.395 . S
C1138 C1141 1.398 1_655 S
C1138 H1148 0.930 . S
C1139 C1137 1.380 . S
C1139 C1140 1.391 1_655 S
C1139 H1149 0.930 . S
C1140 C1139 1.391 1_455 S
C1140 C1142 1.387 . S
C1141 C1138 1.398 1_455 S
C1141 C1142 1.380 . S
C1141 H1150 0.930 . S
C1142 C1140 1.387 . S
C1142 C1141 1.380 . S
C1142 H1151 0.930 . S
C1143 O1120 1.254 . S
C1143 O1121 1.268 . S
H1144 C1129 0.930 . S
H1145 C1130 0.930 . S
H1146 C1132 0.930 . S
H1147 C1133 0.930 . S
H1148 C1138 0.930 . S
H1149 C1139 0.930 . S
H1150 C1141 0.930 . S
H1151 C1142 0.930 . S
Gd1152 N1183 2.661 . S
Gd1152 N1189 2.601 . S
Gd1152 O1196 2.545 . S
Gd1152 O1197 2.606 . S
Gd1152 O1199 2.429 . S
Gd1152 O1200 2.545 . S
Gd1152 O1201 2.412 . S
Gd1152 O1203 2.362 . S
Gd1152 O1204 2.324 . S
Gd1152 C1211 2.828 . S
Gd1153 N1162 2.661 . S
Gd1153 N1166 2.601 . S
Gd1153 O1197 2.362 . S
Gd1153 O1198 2.324 . S
Gd1153 O1202 2.545 . S
Gd1153 O1203 2.606 . S
Gd1153 O1205 2.429 . S
Gd1153 O1206 2.545 . S
Gd1153 O1207 2.412 . S
Gd1153 C1220 2.828 . S
C1154 C1157 1.417 . S
C1154 C1159 1.431 . S
C1154 C1160 1.412 . S
C1155 C1158 1.437 . S
C1155 C1159 1.317 . S
C1155 H1174 0.929 . S
C1156 C1157 1.426 . S
C1156 C1158 1.413 . S
C1156 N1166 1.359 . S
C1157 C1154 1.417 . S
C1157 C1156 1.426 . S
C1157 N1162 1.350 . S
C1158 C1155 1.437 . S
C1158 C1156 1.413 . S
C1158 C1168 1.391 . S
C1159 C1154 1.431 . S
C1159 C1155 1.317 . S
C1159 H1170 0.930 . S
C1160 C1154 1.412 . S
C1160 C1161 1.355 . S
C1160 H1172 0.930 . S
C1161 C1160 1.355 . S
C1161 C1163 1.402 . S
C1161 H1173 0.930 . S
N1162 Gd1153 2.661 . S
N1162 C1157 1.350 . S
N1162 C1163 1.307 . S
C1163 C1161 1.402 . S
C1163 N1162 1.307 . S
C1163 H1164 0.930 . S
H1164 C1163 0.930 . S
C1165 N1166 1.334 . S
C1165 C1167 1.394 . S
C1165 H1169 0.930 . S
N1166 Gd1153 2.601 . S
N1166 C1156 1.359 . S
N1166 C1165 1.334 . S
C1167 C1165 1.394 . S
C1167 C1168 1.359 . S
C1167 H1179 0.930 . S
C1168 C1158 1.391 . S
C1168 C1167 1.359 . S
C1168 H1180 0.929 . S
H1169 C1165 0.930 . S
H1170 C1159 0.930 . S
H1171 C1188 0.930 . S
H1172 C1160 0.930 . S
H1173 C1161 0.930 . S
H1174 C1155 0.929 . S
H1175 C1193 0.930 . S
H1176 C1184 0.930 . S
H1177 C1185 0.930 . S
H1178 C1209 0.929 . S
H1179 C1167 0.930 . S
H1180 C1168 0.929 . S
H1181 C1210 0.930 . S
H1182 C1191 0.927 . S
N1183 Gd1152 2.661 . S
N1183 C1187 1.350 1_455 S
N1183 C1188 1.307 . S
C1184 H1176 0.930 . S
C1184 C1185 1.355 . S
C1184 C1186 1.412 . S
C1185 H1177 0.930 . S
C1185 C1184 1.355 . S
C1185 C1188 1.402 1_655 S
C1186 C1184 1.412 . S
C1186 C1187 1.417 . S
C1186 C1210 1.431 . S
C1187 N1183 1.350 1_655 S
C1187 C1186 1.417 . S
C1187 C1190 1.426 . S
C1188 H1171 0.930 . S
C1188 N1183 1.307 . S
C1188 C1185 1.402 1_455 S
N1189 Gd1152 2.601 . S
N1189 C1190 1.359 1_455 S
N1189 C1193 1.334 . S
C1190 C1187 1.426 . S
C1190 N1189 1.359 1_655 S
C1190 C1194 1.413 . S
C1191 H1182 0.927 . S
C1191 C1192 1.359 . S
C1191 C1193 1.394 1_655 S
C1192 C1191 1.359 . S
C1192 C1194 1.391 . S
C1192 H1195 0.929 . S
C1193 H1175 0.930 . S
C1193 N1189 1.334 . S
C1193 C1191 1.394 1_455 S
C1194 C1190 1.413 . S
C1194 C1192 1.391 . S
C1194 C1209 1.437 . S
H1195 C1192 0.929 . S
O1196 Gd1152 2.545 . S
O1196 C1211 1.258 . S
O1197 Gd1152 2.606 . S
O1197 Gd1153 2.362 . S
O1197 C1208 1.284 . S
O1198 Gd1153 2.324 . S
O1198 C1218 1.254 . S
O1199 Gd1152 2.429 . S
O1199 C1218 1.268 . S
O1200 Gd1152 2.545 . S
O1200 C1208 1.250 . S
O1201 Gd1152 2.412 . S
O1201 C1211 1.252 . S
O1202 Gd1153 2.545 . S
O1202 C1220 1.258 . S
O1203 Gd1152 2.362 . S
O1203 Gd1153 2.606 . S
O1203 C1219 1.284 . S
O1204 Gd1152 2.324 . S
O1204 C1227 1.254 . S
O1205 Gd1153 2.429 . S
O1205 C1227 1.268 . S
O1206 Gd1153 2.545 . S
O1206 C1219 1.250 . S
O1207 Gd1153 2.412 . S
O1207 C1220 1.252 . S
C1208 O1197 1.284 . S
C1208 O1200 1.250 . S
C1209 H1178 0.929 . S
C1209 C1194 1.437 . S
C1209 C1210 1.317 . S
C1210 H1181 0.930 . S
C1210 C1186 1.431 . S
C1210 C1209 1.317 . S
C1211 Gd1152 2.828 . S
C1211 O1196 1.258 . S
C1211 O1201 1.252 . S
C1211 C1212 1.497 . S
C1212 C1211 1.497 . S
C1212 C1213 1.395 . S
C1212 C1214 1.380 . S
C1213 C1212 1.395 . S
C1213 C1216 1.398 . S
C1213 H1228 0.930 . S
C1214 C1212 1.380 . S
C1214 C1215 1.391 . S
C1214 H1229 0.930 . S
C1215 C1214 1.391 . S
C1215 C1217 1.387 . S
C1216 C1213 1.398 . S
C1216 C1217 1.380 . S
C1216 H1230 0.930 . S
C1217 C1215 1.387 . S
C1217 C1216 1.380 . S
C1217 H1231 0.930 . S
C1218 O1198 1.254 . S
C1218 O1199 1.268 . S
C1219 O1203 1.284 . S
C1219 O1206 1.250 . S
C1220 Gd1153 2.828 . S
C1220 O1202 1.258 . S
C1220 O1207 1.252 . S
C1220 C1221 1.497 . S
C1221 C1220 1.497 . S
C1221 C1222 1.395 . S
C1221 C1223 1.380 . S
C1222 C1221 1.395 . S
C1222 C1225 1.398 . S
C1222 H1232 0.930 . S
C1223 C1221 1.380 . S
C1223 C1224 1.391 1_455 S
C1223 H1233 0.930 . S
C1224 C1223 1.391 1_655 S
C1224 C1226 1.387 . S
C1225 C1222 1.398 . S
C1225 C1226 1.380 1_455 S
C1225 H1234 0.930 . S
C1226 C1224 1.387 . S
C1226 C1225 1.380 1_655 S
C1226 H1235 0.930 . S
C1227 O1204 1.254 . S
C1227 O1205 1.268 . S
H1228 C1213 0.930 . S
H1229 C1214 0.930 . S
H1230 C1216 0.930 . S
H1231 C1217 0.930 . S
H1232 C1222 0.930 . S
H1233 C1223 0.930 . S
H1234 C1225 0.930 . S
H1235 C1226 0.930 . S
Gd1236 N1267 2.661 . S
Gd1236 N1273 2.601 . S
Gd1236 O1280 2.545 . S
Gd1236 O1281 2.606 . S
Gd1236 O1283 2.429 . S
Gd1236 O1284 2.545 . S
Gd1236 O1285 2.412 . S
Gd1236 O1287 2.362 . S
Gd1236 O1288 2.324 . S
Gd1236 C1295 2.828 . S
Gd1237 N1246 2.661 . S
Gd1237 N1250 2.601 . S
Gd1237 O1281 2.362 . S
Gd1237 O1282 2.324 . S
Gd1237 O1286 2.545 . S
Gd1237 O1287 2.606 . S
Gd1237 O1289 2.429 . S
Gd1237 O1290 2.545 . S
Gd1237 O1291 2.412 . S
Gd1237 C1304 2.828 . S
C1238 C1241 1.417 . S
C1238 C1243 1.431 . S
C1238 C1244 1.412 . S
C1239 C1242 1.437 . S
C1239 C1243 1.317 . S
C1239 H1258 0.929 . S
C1240 C1241 1.426 . S
C1240 C1242 1.413 . S
C1240 N1250 1.359 . S
C1241 C1238 1.417 . S
C1241 C1240 1.426 . S
C1241 N1246 1.350 . S
C1242 C1239 1.437 . S
C1242 C1240 1.413 . S
C1242 C1252 1.391 . S
C1243 C1238 1.431 . S
C1243 C1239 1.317 . S
C1243 H1254 0.930 . S
C1244 C1238 1.412 . S
C1244 C1245 1.355 . S
C1244 H1256 0.930 . S
C1245 C1244 1.355 . S
C1245 C1247 1.402 . S
C1245 H1257 0.930 . S
N1246 Gd1237 2.661 . S
N1246 C1241 1.350 . S
N1246 C1247 1.307 . S
C1247 C1245 1.402 . S
C1247 N1246 1.307 . S
C1247 H1248 0.930 . S
H1248 C1247 0.930 . S
C1249 N1250 1.334 . S
C1249 C1251 1.394 . S
C1249 H1253 0.930 . S
N1250 Gd1237 2.601 . S
N1250 C1240 1.359 . S
N1250 C1249 1.334 . S
C1251 C1249 1.394 . S
C1251 C1252 1.359 . S
C1251 H1263 0.930 . S
C1252 C1242 1.391 . S
C1252 C1251 1.359 . S
C1252 H1264 0.929 . S
H1253 C1249 0.930 . S
H1254 C1243 0.930 . S
H1255 C1272 0.930 . S
H1256 C1244 0.930 . S
H1257 C1245 0.930 . S
H1258 C1239 0.929 . S
H1259 C1277 0.930 . S
H1260 C1268 0.930 . S
H1261 C1269 0.930 . S
H1262 C1293 0.929 . S
H1263 C1251 0.930 . S
H1264 C1252 0.929 . S
H1265 C1294 0.930 . S
H1266 C1275 0.930 . S
N1267 Gd1236 2.661 . S
N1267 C1271 1.350 . S
N1267 C1272 1.307 . S
C1268 H1260 0.930 . S
C1268 C1269 1.355 . S
C1268 C1270 1.412 . S
C1269 H1261 0.930 . S
C1269 C1268 1.355 . S
C1269 C1272 1.402 . S
C1270 C1268 1.412 . S
C1270 C1271 1.417 . S
C1270 C1294 1.431 . S
C1271 N1267 1.350 . S
C1271 C1270 1.417 . S
C1271 C1274 1.426 . S
C1272 H1255 0.930 . S
C1272 N1267 1.307 . S
C1272 C1269 1.402 . S
N1273 Gd1236 2.601 . S
N1273 C1274 1.359 . S
N1273 C1277 1.334 . S
C1274 C1271 1.426 . S
C1274 N1273 1.359 . S
C1274 C1278 1.413 . S
C1275 H1266 0.930 . S
C1275 C1276 1.359 . S
C1275 C1277 1.394 . S
C1276 C1275 1.359 . S
C1276 C1278 1.391 . S
C1276 H1279 0.929 . S
C1277 H1259 0.930 . S
C1277 N1273 1.334 . S
C1277 C1275 1.394 . S
C1278 C1274 1.413 . S
C1278 C1276 1.391 . S
C1278 C1293 1.437 . S
H1279 C1276 0.929 . S
O1280 Gd1236 2.545 . S
O1280 C1295 1.258 . S
O1281 Gd1236 2.606 . S
O1281 Gd1237 2.362 . S
O1281 C1292 1.284 . S
O1282 Gd1237 2.324 . S
O1282 C1302 1.254 . S
O1283 Gd1236 2.429 . S
O1283 C1302 1.268 . S
O1284 Gd1236 2.545 . S
O1284 C1292 1.250 . S
O1285 Gd1236 2.412 . S
O1285 C1295 1.252 . S
O1286 Gd1237 2.545 . S
O1286 C1304 1.258 . S
O1287 Gd1236 2.362 . S
O1287 Gd1237 2.606 . S
O1287 C1303 1.284 . S
O1288 Gd1236 2.324 . S
O1288 C1311 1.254 . S
O1289 Gd1237 2.429 . S
O1289 C1311 1.268 . S
O1290 Gd1237 2.545 . S
O1290 C1303 1.250 . S
O1291 Gd1237 2.412 . S
O1291 C1304 1.252 . S
C1292 O1281 1.284 . S
C1292 O1284 1.250 . S
C1293 H1262 0.929 . S
C1293 C1278 1.437 . S
C1293 C1294 1.317 . S
C1294 H1265 0.930 . S
C1294 C1270 1.431 . S
C1294 C1293 1.317 . S
C1295 Gd1236 2.828 . S
C1295 O1280 1.258 . S
C1295 O1285 1.252 . S
C1295 C1296 1.497 . S
C1296 C1295 1.497 . S
C1296 C1297 1.395 . S
C1296 C1298 1.380 . S
C1297 C1296 1.395 . S
C1297 C1300 1.398 . S
C1297 H1312 0.930 . S
C1298 C1296 1.380 . S
C1298 C1299 1.391 . S
C1298 H1313 0.930 . S
C1299 C1298 1.391 . S
C1299 C1301 1.387 . S
C1300 C1297 1.398 . S
C1300 C1301 1.380 . S
C1300 H1314 0.930 . S
C1301 C1299 1.387 . S
C1301 C1300 1.380 . S
C1301 H1315 0.930 1_655 S
C1302 O1282 1.254 . S
C1302 O1283 1.268 . S
C1303 O1287 1.284 . S
C1303 O1290 1.250 . S
C1304 Gd1237 2.828 . S
C1304 O1286 1.258 . S
C1304 O1291 1.252 . S
C1304 C1305 1.497 . S
C1305 C1304 1.497 . S
C1305 C1306 1.395 . S
C1305 C1307 1.380 . S
C1306 C1305 1.395 . S
C1306 C1309 1.398 . S
C1306 H1316 0.930 . S
C1307 C1305 1.380 . S
C1307 C1308 1.391 . S
C1307 H1317 0.930 . S
C1308 C1307 1.391 . S
C1308 C1310 1.387 . S
C1309 C1306 1.398 . S
C1309 C1310 1.380 . S
C1309 H1318 0.930 . S
C1310 C1308 1.387 . S
C1310 C1309 1.380 . S
C1310 H1319 0.930 . S
C1311 O1288 1.254 . S
C1311 O1289 1.268 . S
H1312 C1297 0.930 . S
H1313 C1298 0.930 . S
H1314 C1300 0.930 . S
H1315 C1301 0.930 1_455 S
H1316 C1306 0.930 . S
H1317 C1307 0.930 . S
H1318 C1309 0.930 . S
H1319 C1310 0.930 . S
Gd1320 N1351 2.661 . S
Gd1320 N1357 2.601 . S
Gd1320 O1364 2.545 . S
Gd1320 O1365 2.606 . S
Gd1320 O1367 2.429 . S
Gd1320 O1368 2.545 . S
Gd1320 O1369 2.412 . S
Gd1320 O1371 2.362 . S
Gd1320 O1372 2.324 . S
Gd1320 C1379 2.828 . S
Gd1321 N1330 2.661 . S
Gd1321 N1334 2.601 . S
Gd1321 O1365 2.362 . S
Gd1321 O1366 2.324 . S
Gd1321 O1370 2.545 . S
Gd1321 O1371 2.606 . S
Gd1321 O1373 2.429 . S
Gd1321 O1374 2.545 . S
Gd1321 O1375 2.412 . S
Gd1321 C1388 2.828 . S
C1322 C1325 1.417 . S
C1322 C1327 1.431 . S
C1322 C1328 1.412 . S
C1323 C1326 1.437 . S
C1323 C1327 1.317 . S
C1323 H1342 0.929 . S
C1324 C1325 1.426 . S
C1324 C1326 1.413 . S
C1324 N1334 1.359 . S
C1325 C1322 1.417 . S
C1325 C1324 1.426 . S
C1325 N1330 1.350 . S
C1326 C1323 1.437 . S
C1326 C1324 1.413 . S
C1326 C1336 1.391 . S
C1327 C1322 1.431 . S
C1327 C1323 1.317 . S
C1327 H1338 0.930 . S
C1328 C1322 1.412 . S
C1328 C1329 1.355 . S
C1328 H1340 0.930 . S
C1329 C1328 1.355 . S
C1329 C1331 1.402 . S
C1329 H1341 0.930 . S
N1330 Gd1321 2.661 . S
N1330 C1325 1.350 . S
N1330 C1331 1.307 . S
C1331 C1329 1.402 . S
C1331 N1330 1.307 . S
C1331 H1332 0.930 . S
H1332 C1331 0.930 . S
C1333 N1334 1.334 . S
C1333 C1335 1.394 . S
C1333 H1337 0.930 . S
N1334 Gd1321 2.601 . S
N1334 C1324 1.359 . S
N1334 C1333 1.334 . S
C1335 C1333 1.394 . S
C1335 C1336 1.359 . S
C1335 H1347 0.930 . S
C1336 C1326 1.391 . S
C1336 C1335 1.359 . S
C1336 H1348 0.929 . S
H1337 C1333 0.930 . S
H1338 C1327 0.930 . S
H1339 C1356 0.930 . S
H1340 C1328 0.930 . S
H1341 C1329 0.930 . S
H1342 C1323 0.929 . S
H1343 C1361 0.930 . S
H1344 C1352 0.930 . S
H1345 C1353 0.930 . S
H1346 C1377 0.929 . S
H1347 C1335 0.930 . S
H1348 C1336 0.929 . S
H1349 C1378 0.930 . S
H1350 C1359 0.930 . S
N1351 Gd1320 2.661 . S
N1351 C1355 1.350 . S
N1351 C1356 1.307 . S
C1352 H1344 0.930 . S
C1352 C1353 1.355 . S
C1352 C1354 1.412 . S
C1353 H1345 0.930 . S
C1353 C1352 1.355 . S
C1353 C1356 1.402 . S
C1354 C1352 1.412 . S
C1354 C1355 1.417 . S
C1354 C1378 1.431 . S
C1355 N1351 1.350 . S
C1355 C1354 1.417 . S
C1355 C1358 1.426 . S
C1356 H1339 0.930 . S
C1356 N1351 1.307 . S
C1356 C1353 1.402 . S
N1357 Gd1320 2.601 . S
N1357 C1358 1.359 . S
N1357 C1361 1.334 . S
C1358 C1355 1.426 . S
C1358 N1357 1.359 . S
C1358 C1362 1.413 . S
C1359 H1350 0.930 . S
C1359 C1360 1.359 . S
C1359 C1361 1.394 . S
C1360 C1359 1.359 . S
C1360 C1362 1.391 . S
C1360 H1363 0.929 . S
C1361 H1343 0.930 . S
C1361 N1357 1.334 . S
C1361 C1359 1.394 . S
C1362 C1358 1.413 . S
C1362 C1360 1.391 . S
C1362 C1377 1.437 . S
H1363 C1360 0.929 . S
O1364 Gd1320 2.545 . S
O1364 C1379 1.258 . S
O1365 Gd1320 2.606 . S
O1365 Gd1321 2.362 . S
O1365 C1376 1.284 . S
O1366 Gd1321 2.324 . S
O1366 C1386 1.254 . S
O1367 Gd1320 2.429 . S
O1367 C1386 1.268 . S
O1368 Gd1320 2.545 . S
O1368 C1376 1.250 . S
O1369 Gd1320 2.412 . S
O1369 C1379 1.252 . S
O1370 Gd1321 2.545 . S
O1370 C1388 1.258 . S
O1371 Gd1320 2.362 . S
O1371 Gd1321 2.606 . S
O1371 C1387 1.284 . S
O1372 Gd1320 2.324 . S
O1372 C1395 1.254 . S
O1373 Gd1321 2.429 . S
O1373 C1395 1.268 . S
O1374 Gd1321 2.545 . S
O1374 C1387 1.250 . S
O1375 Gd1321 2.412 . S
O1375 C1388 1.252 . S
C1376 O1365 1.284 . S
C1376 O1368 1.250 . S
C1377 H1346 0.929 . S
C1377 C1362 1.437 . S
C1377 C1378 1.317 . S
C1378 H1349 0.930 . S
C1378 C1354 1.431 . S
C1378 C1377 1.317 . S
C1379 Gd1320 2.828 . S
C1379 O1364 1.258 . S
C1379 O1369 1.252 . S
C1379 C1380 1.497 . S
C1380 C1379 1.497 . S
C1380 C1381 1.395 . S
C1380 C1382 1.380 . S
C1381 C1380 1.395 . S
C1381 C1384 1.398 . S
C1381 H1396 0.930 . S
C1382 C1380 1.380 . S
C1382 C1383 1.391 . S
C1382 H1397 0.930 . S
C1383 C1382 1.391 . S
C1383 C1385 1.387 . S
C1384 C1381 1.398 . S
C1384 C1385 1.380 . S
C1384 H1398 0.930 . S
C1385 C1383 1.387 . S
C1385 C1384 1.380 . S
C1385 H1399 0.930 . S
C1386 O1366 1.254 . S
C1386 O1367 1.268 . S
C1387 O1371 1.284 . S
C1387 O1374 1.250 . S
C1388 Gd1321 2.828 . S
C1388 O1370 1.258 . S
C1388 O1375 1.252 . S
C1388 C1389 1.497 . S
C1389 C1388 1.497 . S
C1389 C1390 1.395 . S
C1389 C1391 1.380 . S
C1390 C1389 1.395 . S
C1390 C1393 1.398 . S
C1390 H1400 0.930 . S
C1391 C1389 1.380 . S
C1391 C1392 1.391 . S
C1391 H1401 0.930 . S
C1392 C1391 1.391 . S
C1392 C1394 1.387 . S
C1393 C1390 1.398 . S
C1393 C1394 1.380 . S
C1393 H1402 0.930 . S
C1394 C1392 1.387 . S
C1394 C1393 1.380 . S
C1394 H1403 0.930 . S
C1395 O1372 1.254 . S
C1395 O1373 1.268 . S
H1396 C1381 0.930 . S
H1397 C1382 0.930 . S
H1398 C1384 0.930 . S
H1399 C1385 0.930 . S
H1400 C1390 0.930 . S
H1401 C1391 0.930 . S
H1402 C1393 0.930 . S
H1403 C1394 0.930 . S
Gd1404 N1435 2.661 . S
Gd1404 N1441 2.601 . S
Gd1404 O1448 2.545 . S
Gd1404 O1449 2.606 . S
Gd1404 O1451 2.429 . S
Gd1404 O1452 2.545 . S
Gd1404 O1453 2.412 . S
Gd1404 O1455 2.362 . S
Gd1404 O1456 2.324 . S
Gd1404 C1463 2.828 . S
Gd1405 N1414 2.661 . S
Gd1405 N1418 2.601 . S
Gd1405 O1449 2.362 . S
Gd1405 O1450 2.324 . S
Gd1405 O1454 2.545 . S
Gd1405 O1455 2.606 . S
Gd1405 O1457 2.429 . S
Gd1405 O1458 2.545 . S
Gd1405 O1459 2.412 . S
Gd1405 C1472 2.828 . S
C1406 C1409 1.417 . S
C1406 C1411 1.431 . S
C1406 C1412 1.412 . S
C1407 C1410 1.437 . S
C1407 C1411 1.317 . S
C1407 H1426 0.929 . S
C1408 C1409 1.426 . S
C1408 C1410 1.413 . S
C1408 N1418 1.359 . S
C1409 C1406 1.417 . S
C1409 C1408 1.426 . S
C1409 N1414 1.350 . S
C1410 C1407 1.437 . S
C1410 C1408 1.413 . S
C1410 C1420 1.391 . S
C1411 C1406 1.431 . S
C1411 C1407 1.317 . S
C1411 H1422 0.930 . S
C1412 C1406 1.412 . S
C1412 C1413 1.355 . S
C1412 H1424 0.930 . S
C1413 C1412 1.355 . S
C1413 C1415 1.402 . S
C1413 H1425 0.930 . S
N1414 Gd1405 2.661 . S
N1414 C1409 1.350 . S
N1414 C1415 1.307 . S
C1415 C1413 1.402 . S
C1415 N1414 1.307 . S
C1415 H1416 0.930 . S
H1416 C1415 0.930 . S
C1417 N1418 1.334 . S
C1417 C1419 1.394 . S
C1417 H1421 0.930 . S
N1418 Gd1405 2.601 . S
N1418 C1408 1.359 . S
N1418 C1417 1.334 . S
C1419 C1417 1.394 . S
C1419 C1420 1.359 . S
C1419 H1431 0.930 . S
C1420 C1410 1.391 . S
C1420 C1419 1.359 . S
C1420 H1432 0.929 . S
H1421 C1417 0.930 . S
H1422 C1411 0.930 . S
H1423 C1440 0.930 . S
H1424 C1412 0.930 . S
H1425 C1413 0.930 . S
H1426 C1407 0.929 . S
H1427 C1445 0.930 . S
H1428 C1436 0.930 . S
H1429 C1437 0.930 . S
H1430 C1461 0.929 . S
H1431 C1419 0.930 . S
H1432 C1420 0.929 . S
H1433 C1462 0.930 . S
H1434 C1443 0.930 . S
N1435 Gd1404 2.661 . S
N1435 C1439 1.350 . S
N1435 C1440 1.307 . S
C1436 H1428 0.930 . S
C1436 C1437 1.355 . S
C1436 C1438 1.412 . S
C1437 H1429 0.930 . S
C1437 C1436 1.355 . S
C1437 C1440 1.402 . S
C1438 C1436 1.412 . S
C1438 C1439 1.417 . S
C1438 C1462 1.431 . S
C1439 N1435 1.350 . S
C1439 C1438 1.417 . S
C1439 C1442 1.426 . S
C1440 H1423 0.930 . S
C1440 N1435 1.307 . S
C1440 C1437 1.402 . S
N1441 Gd1404 2.601 . S
N1441 C1442 1.359 . S
N1441 C1445 1.334 . S
C1442 C1439 1.426 . S
C1442 N1441 1.359 . S
C1442 C1446 1.413 . S
C1443 H1434 0.930 . S
C1443 C1444 1.359 . S
C1443 C1445 1.394 . S
C1444 C1443 1.359 . S
C1444 C1446 1.391 . S
C1444 H1447 0.929 . S
C1445 H1427 0.930 . S
C1445 N1441 1.334 . S
C1445 C1443 1.394 . S
C1446 C1442 1.413 . S
C1446 C1444 1.391 . S
C1446 C1461 1.437 . S
H1447 C1444 0.929 . S
O1448 Gd1404 2.545 . S
O1448 C1463 1.258 . S
O1449 Gd1404 2.606 . S
O1449 Gd1405 2.362 . S
O1449 C1460 1.284 . S
O1450 Gd1405 2.324 . S
O1450 C1470 1.254 . S
O1451 Gd1404 2.429 . S
O1451 C1470 1.268 . S
O1452 Gd1404 2.545 . S
O1452 C1460 1.250 . S
O1453 Gd1404 2.412 . S
O1453 C1463 1.252 . S
O1454 Gd1405 2.545 . S
O1454 C1472 1.258 . S
O1455 Gd1404 2.362 . S
O1455 Gd1405 2.606 . S
O1455 C1471 1.284 . S
O1456 Gd1404 2.324 . S
O1456 C1479 1.254 . S
O1457 Gd1405 2.429 . S
O1457 C1479 1.268 . S
O1458 Gd1405 2.545 . S
O1458 C1471 1.250 . S
O1459 Gd1405 2.412 . S
O1459 C1472 1.252 . S
C1460 O1449 1.284 . S
C1460 O1452 1.250 . S
C1461 H1430 0.929 . S
C1461 C1446 1.437 . S
C1461 C1462 1.317 . S
C1462 H1433 0.930 . S
C1462 C1438 1.431 . S
C1462 C1461 1.317 . S
C1463 Gd1404 2.828 . S
C1463 O1448 1.258 . S
C1463 O1453 1.252 . S
C1463 C1464 1.497 . S
C1464 C1463 1.497 . S
C1464 C1465 1.395 . S
C1464 C1466 1.380 . S
C1465 C1464 1.395 . S
C1465 C1468 1.398 . S
C1465 H1480 0.930 . S
C1466 C1464 1.380 . S
C1466 C1467 1.391 . S
C1466 H1481 0.930 . S
C1467 C1466 1.391 . S
C1467 C1469 1.387 . S
C1468 C1465 1.398 . S
C1468 C1469 1.380 . S
C1468 H1482 0.930 . S
C1469 C1467 1.387 . S
C1469 C1468 1.380 . S
C1469 H1483 0.930 . S
C1470 O1450 1.254 . S
C1470 O1451 1.268 . S
C1471 O1455 1.284 . S
C1471 O1458 1.250 . S
C1472 Gd1405 2.828 . S
C1472 O1454 1.258 . S
C1472 O1459 1.252 . S
C1472 C1473 1.497 . S
C1473 C1472 1.497 . S
C1473 C1474 1.395 . S
C1473 C1475 1.380 . S
C1474 C1473 1.395 . S
C1474 C1477 1.398 . S
C1474 H1484 0.930 . S
C1475 C1473 1.380 . S
C1475 C1476 1.391 . S
C1475 H1485 0.930 . S
C1476 C1475 1.391 . S
C1476 C1478 1.387 . S
C1477 C1474 1.398 . S
C1477 C1478 1.380 . S
C1477 H1486 0.930 . S
C1478 C1476 1.387 . S
C1478 C1477 1.380 . S
C1478 H1487 0.930 . S
C1479 O1456 1.254 . S
C1479 O1457 1.268 . S
H1480 C1465 0.930 . S
H1481 C1466 0.930 . S
H1482 C1468 0.930 . S
H1483 C1469 0.930 . S
H1484 C1474 0.930 . S
H1485 C1475 0.930 . S
H1486 C1477 0.930 . S
H1487 C1478 0.930 . S
Gd1488 N1519 2.661 . S
Gd1488 N1525 2.601 . S
Gd1488 O1532 2.545 . S
Gd1488 O1533 2.606 . S
Gd1488 O1535 2.429 . S
Gd1488 O1536 2.545 . S
Gd1488 O1537 2.412 . S
Gd1488 O1539 2.362 . S
Gd1488 O1540 2.324 . S
Gd1488 C1547 2.828 . S
Gd1489 N1498 2.661 . S
Gd1489 N1502 2.601 . S
Gd1489 O1533 2.362 . S
Gd1489 O1534 2.324 . S
Gd1489 O1538 2.545 . S
Gd1489 O1539 2.606 . S
Gd1489 O1541 2.429 . S
Gd1489 O1542 2.545 . S
Gd1489 O1543 2.412 . S
Gd1489 C1556 2.828 . S
C1490 C1493 1.417 . S
C1490 C1495 1.431 . S
C1490 C1496 1.412 . S
C1491 C1494 1.437 . S
C1491 C1495 1.317 . S
C1491 H1510 0.929 . S
C1492 C1493 1.426 . S
C1492 C1494 1.413 . S
C1492 N1502 1.359 . S
C1493 C1490 1.417 . S
C1493 C1492 1.426 . S
C1493 N1498 1.350 . S
C1494 C1491 1.437 . S
C1494 C1492 1.413 . S
C1494 C1504 1.391 . S
C1495 C1490 1.431 . S
C1495 C1491 1.317 . S
C1495 H1506 0.930 . S
C1496 C1490 1.412 . S
C1496 C1497 1.355 . S
C1496 H1508 0.930 . S
C1497 C1496 1.355 . S
C1497 C1499 1.402 . S
C1497 H1509 0.930 . S
N1498 Gd1489 2.661 . S
N1498 C1493 1.350 . S
N1498 C1499 1.307 . S
C1499 C1497 1.402 . S
C1499 N1498 1.307 . S
C1499 H1500 0.930 . S
H1500 C1499 0.930 . S
C1501 N1502 1.334 . S
C1501 C1503 1.394 . S
C1501 H1505 0.930 . S
N1502 Gd1489 2.601 . S
N1502 C1492 1.359 . S
N1502 C1501 1.334 . S
C1503 C1501 1.394 . S
C1503 C1504 1.359 . S
C1503 H1515 0.930 . S
C1504 C1494 1.391 . S
C1504 C1503 1.359 . S
C1504 H1516 0.929 . S
H1505 C1501 0.930 . S
H1506 C1495 0.930 . S
H1507 C1524 0.930 . S
H1508 C1496 0.930 . S
H1509 C1497 0.930 . S
H1510 C1491 0.929 . S
H1511 C1529 0.930 . S
H1512 C1520 0.930 . S
H1513 C1521 0.930 . S
H1514 C1545 0.929 . S
H1515 C1503 0.930 . S
H1516 C1504 0.929 . S
H1517 C1546 0.930 . S
H1518 C1527 0.930 . S
N1519 Gd1488 2.661 . S
N1519 C1523 1.350 . S
N1519 C1524 1.307 . S
C1520 H1512 0.930 . S
C1520 C1521 1.355 . S
C1520 C1522 1.412 . S
C1521 H1513 0.930 . S
C1521 C1520 1.355 . S
C1521 C1524 1.402 . S
C1522 C1520 1.412 . S
C1522 C1523 1.417 . S
C1522 C1546 1.431 . S
C1523 N1519 1.350 . S
C1523 C1522 1.417 . S
C1523 C1526 1.426 . S
C1524 H1507 0.930 . S
C1524 N1519 1.307 . S
C1524 C1521 1.402 . S
N1525 Gd1488 2.601 . S
N1525 C1526 1.359 . S
N1525 C1529 1.334 . S
C1526 C1523 1.426 . S
C1526 N1525 1.359 . S
C1526 C1530 1.413 . S
C1527 H1518 0.930 . S
C1527 C1528 1.359 . S
C1527 C1529 1.394 . S
C1528 C1527 1.359 . S
C1528 C1530 1.391 . S
C1528 H1531 0.929 . S
C1529 H1511 0.930 . S
C1529 N1525 1.334 . S
C1529 C1527 1.394 . S
C1530 C1526 1.413 . S
C1530 C1528 1.391 . S
C1530 C1545 1.437 . S
H1531 C1528 0.929 . S
O1532 Gd1488 2.545 . S
O1532 C1547 1.258 . S
O1533 Gd1488 2.606 . S
O1533 Gd1489 2.362 . S
O1533 C1544 1.284 . S
O1534 Gd1489 2.324 . S
O1534 C1554 1.254 . S
O1535 Gd1488 2.429 . S
O1535 C1554 1.268 . S
O1536 Gd1488 2.545 . S
O1536 C1544 1.250 . S
O1537 Gd1488 2.412 . S
O1537 C1547 1.252 . S
O1538 Gd1489 2.545 . S
O1538 C1556 1.258 . S
O1539 Gd1488 2.362 . S
O1539 Gd1489 2.606 . S
O1539 C1555 1.284 . S
O1540 Gd1488 2.324 . S
O1540 C1563 1.254 . S
O1541 Gd1489 2.429 . S
O1541 C1563 1.268 . S
O1542 Gd1489 2.545 . S
O1542 C1555 1.250 . S
O1543 Gd1489 2.412 . S
O1543 C1556 1.252 . S
C1544 O1533 1.284 . S
C1544 O1536 1.250 . S
C1545 H1514 0.929 . S
C1545 C1530 1.437 . S
C1545 C1546 1.317 . S
C1546 H1517 0.930 . S
C1546 C1522 1.431 . S
C1546 C1545 1.317 . S
C1547 Gd1488 2.828 . S
C1547 O1532 1.258 . S
C1547 O1537 1.252 . S
C1547 C1548 1.497 . S
C1548 C1547 1.497 . S
C1548 C1549 1.395 . S
C1548 C1550 1.380 . S
C1549 C1548 1.395 . S
C1549 C1552 1.398 . S
C1549 H1564 0.930 . S
C1550 C1548 1.380 . S
C1550 C1551 1.391 . S
C1550 H1565 0.930 . S
C1551 C1550 1.391 . S
C1551 C1553 1.387 . S
C1552 C1549 1.398 . S
C1552 C1553 1.380 . S
C1552 H1566 0.930 . S
C1553 C1551 1.387 . S
C1553 C1552 1.380 . S
C1553 H1567 0.930 . S
C1554 O1534 1.254 . S
C1554 O1535 1.268 . S
C1555 O1539 1.284 . S
C1555 O1542 1.250 . S
C1556 Gd1489 2.828 . S
C1556 O1538 1.258 . S
C1556 O1543 1.252 . S
C1556 C1557 1.497 . S
C1557 C1556 1.497 . S
C1557 C1558 1.395 . S
C1557 C1559 1.380 . S
C1558 C1557 1.395 . S
C1558 C1561 1.398 . S
C1558 H1568 0.930 . S
C1559 C1557 1.380 . S
C1559 C1560 1.391 . S
C1559 H1569 0.930 . S
C1560 C1559 1.391 . S
C1560 C1562 1.387 . S
C1561 C1558 1.398 . S
C1561 C1562 1.380 . S
C1561 H1570 0.930 . S
C1562 C1560 1.387 . S
C1562 C1561 1.380 . S
C1562 H1571 0.930 . S
C1563 O1540 1.254 . S
C1563 O1541 1.268 . S
H1564 C1549 0.930 . S
H1565 C1550 0.930 . S
H1566 C1552 0.930 . S
H1567 C1553 0.930 . S
H1568 C1558 0.930 . S
H1569 C1559 0.930 . S
H1570 C1561 0.930 . S
H1571 C1562 0.930 . S
Gd1572 N1603 2.661 1_455 S
Gd1572 N1609 2.601 . S
Gd1572 O1616 2.545 1_455 S
Gd1572 O1617 2.606 . S
Gd1572 O1619 2.429 . S
Gd1572 O1620 2.545 . S
Gd1572 O1621 2.412 1_455 S
Gd1572 O1623 2.362 . S
Gd1572 O1624 2.346 . S
Gd1572 C1631 2.828 1_455 S
Gd1573 N1582 2.661 . S
Gd1573 N1586 2.601 1_554 S
Gd1573 O1617 2.362 . S
Gd1573 O1618 2.324 . S
Gd1573 O1622 2.545 1_554 S
Gd1573 O1623 2.606 . S
Gd1573 O1625 2.429 1_554 S
Gd1573 O1626 2.545 . S
Gd1573 O1627 2.412 . S
Gd1573 C1640 2.828 1_554 S
C1574 C1577 1.417 . S
C1574 C1579 1.431 . S
C1574 C1580 1.412 . S
C1575 C1578 1.437 . S
C1575 C1579 1.317 1_556 S
C1575 H1594 0.929 . S
C1576 C1577 1.426 1_556 S
C1576 C1578 1.413 . S
C1576 N1586 1.359 . S
C1577 C1574 1.417 . S
C1577 C1576 1.426 1_554 S
C1577 N1582 1.350 . S
C1578 C1575 1.437 . S
C1578 C1576 1.413 . S
C1578 C1588 1.391 . S
C1579 C1574 1.431 . S
C1579 C1575 1.317 1_554 S
C1579 H1590 0.930 . S
C1580 C1574 1.412 . S
C1580 C1581 1.355 . S
C1580 H1592 0.930 . S
C1581 C1580 1.355 . S
C1581 C1583 1.402 . S
C1581 H1593 0.930 . S
N1582 Gd1573 2.661 . S
N1582 C1577 1.350 . S
N1582 C1583 1.307 . S
C1583 C1581 1.402 . S
C1583 N1582 1.307 . S
C1583 H1584 0.930 . S
H1584 C1583 0.930 . S
C1585 N1586 1.334 . S
C1585 C1587 1.394 . S
C1585 H1589 0.930 . S
N1586 Gd1573 2.601 1_556 S
N1586 C1576 1.359 . S
N1586 C1585 1.334 . S
C1587 C1585 1.394 . S
C1587 C1588 1.359 . S
C1587 H1599 0.930 . S
C1588 C1578 1.391 . S
C1588 C1587 1.359 . S
C1588 H1600 0.929 . S
H1589 C1585 0.930 . S
H1590 C1579 0.930 . S
H1591 C1608 0.903 1_556 S
H1592 C1580 0.930 . S
H1593 C1581 0.930 . S
H1594 C1575 0.929 . S
H1595 C1613 0.930 . S
H1596 C1604 0.930 1_556 S
H1597 C1605 0.930 . S
H1598 C1629 0.929 . S
H1599 C1587 0.930 . S
H1600 C1588 0.929 . S
H1601 C1630 0.930 . S
H1602 C1611 0.930 1_455 S
N1603 Gd1572 2.661 1_655 S
N1603 C1607 1.350 . S
N1603 C1608 1.337 . S
C1604 H1596 0.930 1_554 S
C1604 C1605 1.355 1_554 S
C1604 C1606 1.412 . S
C1605 H1597 0.930 . S
C1605 C1604 1.355 1_556 S
C1605 C1608 1.397 1_556 S
C1606 C1604 1.412 . S
C1606 C1607 1.417 . S
C1606 C1630 1.431 . S
C1607 N1603 1.350 . S
C1607 C1606 1.417 . S
C1607 C1610 1.426 . S
C1608 H1591 0.903 1_554 S
C1608 N1603 1.337 . S
C1608 C1605 1.397 1_554 S
N1609 Gd1572 2.601 . S
N1609 C1610 1.359 1_455 S
N1609 C1613 1.334 . S
C1610 C1607 1.426 . S
C1610 N1609 1.359 1_655 S
C1610 C1614 1.413 . S
C1611 H1602 0.930 1_655 S
C1611 C1612 1.359 . S
C1611 C1613 1.394 1_655 S
C1612 C1611 1.359 . S
C1612 C1614 1.391 . S
C1612 H1615 0.929 . S
C1613 H1595 0.930 . S
C1613 N1609 1.334 . S
C1613 C1611 1.394 1_455 S
C1614 C1610 1.413 . S
C1614 C1612 1.391 . S
C1614 C1629 1.437 . S
H1615 C1612 0.929 . S
O1616 Gd1572 2.545 1_655 S
O1616 C1631 1.258 . S
O1617 Gd1572 2.606 . S
O1617 Gd1573 2.362 . S
O1617 C1628 1.284 . S
O1618 Gd1573 2.324 . S
O1618 C1638 1.254 . S
O1619 Gd1572 2.429 . S
O1619 C1638 1.268 . S
O1620 Gd1572 2.545 . S
O1620 C1628 1.250 . S
O1621 Gd1572 2.412 1_655 S
O1621 C1631 1.252 . S
O1622 Gd1573 2.545 1_556 S
O1622 C1640 1.258 . S
O1623 Gd1572 2.362 . S
O1623 Gd1573 2.606 . S
O1623 C1639 1.284 . S
O1624 Gd1572 2.346 . S
O1624 C1647 1.234 1_554 S
O1625 Gd1573 2.429 1_556 S
O1625 C1647 1.268 . S
O1626 Gd1573 2.545 . S
O1626 C1639 1.250 . S
O1627 Gd1573 2.412 . S
O1627 C1640 1.252 1_554 S
C1628 O1617 1.284 . S
C1628 O1620 1.250 . S
C1629 H1598 0.929 . S
C1629 C1614 1.437 . S
C1629 C1630 1.317 . S
C1630 H1601 0.930 . S
C1630 C1606 1.431 . S
C1630 C1629 1.317 . S
C1631 Gd1572 2.828 1_655 S
C1631 O1616 1.258 . S
C1631 O1621 1.252 . S
C1631 C1632 1.497 . S
C1632 C1631 1.497 . S
C1632 C1633 1.395 . S
C1632 C1634 1.380 . S
C1633 C1632 1.395 . S
C1633 C1636 1.398 . S
C1633 H1648 0.930 . S
C1634 C1632 1.380 . S
C1634 C1635 1.391 . S
C1634 H1649 0.930 . S
C1635 C1634 1.391 . S
C1635 C1637 1.387 . S
C1636 C1633 1.398 . S
C1636 C1637 1.380 . S
C1636 H1650 0.930 . S
C1637 C1635 1.387 . S
C1637 C1636 1.380 . S
C1637 H1651 0.930 . S
C1638 O1618 1.254 . S
C1638 O1619 1.268 . S
C1639 O1623 1.284 . S
C1639 O1626 1.250 . S
C1640 Gd1573 2.828 1_556 S
C1640 O1622 1.258 . S
C1640 O1627 1.252 1_556 S
C1640 C1641 1.497 . S
C1641 C1640 1.497 . S
C1641 C1642 1.395 . S
C1641 C1643 1.380 1_556 S
C1642 C1641 1.395 . S
C1642 C1645 1.398 . S
C1642 H1652 0.930 . S
C1643 C1641 1.380 1_554 S
C1643 C1644 1.391 . S
C1643 H1653 0.930 . S
C1644 C1643 1.391 . S
C1644 C1646 1.387 1_554 S
C1645 C1642 1.398 . S
C1645 C1646 1.380 . S
C1645 H1654 0.930 . S
C1646 C1644 1.387 1_556 S
C1646 C1645 1.380 . S
C1646 H1655 0.930 . S
C1647 O1624 1.234 1_556 S
C1647 O1625 1.268 . S
H1648 C1633 0.930 . S
H1649 C1634 0.930 . S
H1650 C1636 0.930 . S
H1651 C1637 0.930 . S
H1652 C1642 0.930 . S
H1653 C1643 0.930 . S
H1654 C1645 0.930 . S
H1655 C1646 0.930 . S
C1656 C1657 1.363 . S
C1656 C1662 1.379 . S
C1656 N1664 1.356 . S
C1657 C1656 1.363 . S
C1657 C1663 1.363 1_556 S
C1658 C1659 1.363 . S
C1658 C1663 1.379 . S
C1658 N1665 1.356 . S
C1659 C1658 1.363 . S
C1659 C1662 1.363 1_554 S
N1660 C1662 1.356 . S
N1660 H1672 0.984 . S
N1660 H1673 0.985 . S
N1661 C1663 1.356 . S
N1661 H1666 0.984 . S
N1661 H1667 0.985 . S
C1662 C1656 1.379 . S
C1662 C1659 1.363 1_556 S
C1662 N1660 1.356 . S
C1663 C1657 1.363 1_554 S
C1663 C1658 1.379 . S
C1663 N1661 1.356 . S
N1664 C1656 1.356 . S
N1664 H1670 0.984 . S
N1664 H1671 0.984 . S
N1665 C1658 1.356 . S
N1665 H1668 0.984 . S
N1665 H1669 0.985 . S
H1666 N1661 0.984 . S
H1667 N1661 0.985 . S
H1668 N1665 0.984 . S
H1669 N1665 0.985 . S
H1670 N1664 0.984 . S
H1671 N1664 0.984 . S
H1672 N1660 0.984 . S
H1673 N1660 0.985 . S
C1674 C1675 1.363 . S
C1674 C1680 1.379 . S
C1674 N1682 1.356 . S
C1675 C1674 1.363 . S
C1675 C1681 1.363 . S
C1676 C1677 1.363 . S
C1676 C1681 1.379 . S
C1676 N1683 1.356 . S
C1677 C1676 1.363 . S
C1677 C1680 1.363 . S
N1678 C1680 1.356 . S
N1678 H1690 0.984 . S
N1678 H1691 0.985 . S
N1679 C1681 1.356 . S
N1679 H1684 0.984 . S
N1679 H1685 0.985 . S
C1680 C1674 1.379 . S
C1680 C1677 1.363 . S
C1680 N1678 1.356 . S
C1681 C1675 1.363 . S
C1681 C1676 1.379 . S
C1681 N1679 1.356 . S
N1682 C1674 1.356 . S
N1682 H1688 0.984 . S
N1682 H1689 0.984 . S
N1683 C1676 1.356 . S
N1683 H1686 0.984 . S
N1683 H1687 0.985 . S
H1684 N1679 0.984 . S
H1685 N1679 0.985 . S
H1686 N1683 0.984 . S
H1687 N1683 0.985 . S
H1688 N1682 0.984 . S
H1689 N1682 0.984 . S
H1690 N1678 0.984 . S
H1691 N1678 0.985 . S
C1692 C1693 1.363 . S
C1692 C1698 1.379 . S
C1692 N1700 1.356 . S
C1693 C1692 1.363 . S
C1693 C1699 1.363 . S
C1694 C1695 1.363 . S
C1694 C1699 1.379 . S
C1694 N1701 1.356 . S
C1695 C1694 1.363 . S
C1695 C1698 1.363 . S
N1696 C1698 1.356 . S
N1696 H1708 0.984 . S
N1696 H1709 0.985 . S
N1697 C1699 1.356 . S
N1697 H1702 0.984 . S
N1697 H1703 0.985 . S
C1698 C1692 1.379 . S
C1698 C1695 1.363 . S
C1698 N1696 1.356 . S
C1699 C1693 1.363 . S
C1699 C1694 1.379 . S
C1699 N1697 1.356 . S
N1700 C1692 1.356 . S
N1700 H1706 0.984 . S
N1700 H1707 0.984 . S
N1701 C1694 1.356 . S
N1701 H1704 0.984 . S
N1701 H1705 0.985 . S
H1702 N1697 0.984 . S
H1703 N1697 0.985 . S
H1704 N1701 0.984 . S
H1705 N1701 0.985 . S
H1706 N1700 0.984 . S
H1707 N1700 0.984 . S
H1708 N1696 0.984 . S
H1709 N1696 0.985 . S
C1710 C1711 1.363 . S
C1710 C1716 1.379 . S
C1710 N1718 1.356 . S
C1711 C1710 1.363 . S
C1711 C1717 1.363 . S
C1712 C1713 1.363 . S
C1712 C1717 1.379 . S
C1712 N1719 1.356 . S
C1713 C1712 1.363 . S
C1713 C1716 1.363 . S
N1714 C1716 1.356 . S
N1714 H1726 0.984 . S
N1714 H1727 0.985 . S
N1715 C1717 1.356 . S
N1715 H1720 0.984 . S
N1715 H1721 0.985 . S
C1716 C1710 1.379 . S
C1716 C1713 1.363 . S
C1716 N1714 1.356 . S
C1717 C1711 1.363 . S
C1717 C1712 1.379 . S
C1717 N1715 1.356 . S
N1718 C1710 1.356 . S
N1718 H1724 0.984 . S
N1718 H1725 0.984 . S
N1719 C1712 1.356 . S
N1719 H1722 0.984 . S
N1719 H1723 0.985 . S
H1720 N1715 0.984 . S
H1721 N1715 0.985 . S
H1722 N1719 0.984 . S
H1723 N1719 0.985 . S
H1724 N1718 0.984 . S
H1725 N1718 0.984 . S
H1726 N1714 0.984 . S
H1727 N1714 0.985 . S
C1728 C1729 1.363 . S
C1728 C1734 1.379 . S
C1728 N1736 1.356 . S
C1729 C1728 1.363 . S
C1729 C1735 1.363 . S
C1730 C1731 1.363 . S
C1730 C1735 1.379 . S
C1730 N1737 1.356 . S
C1731 C1730 1.363 . S
C1731 C1734 1.363 . S
N1732 C1734 1.356 . S
N1732 H1744 0.984 . S
N1732 H1745 0.985 . S
N1733 C1735 1.356 1_655 S
N1733 H1738 0.984 . S
N1733 H1739 0.985 . S
C1734 C1728 1.379 . S
C1734 C1731 1.363 . S
C1734 N1732 1.356 . S
C1735 C1729 1.363 . S
C1735 C1730 1.379 . S
C1735 N1733 1.356 1_455 S
N1736 C1728 1.356 . S
N1736 H1742 0.984 . S
N1736 H1743 0.984 . S
N1737 C1730 1.356 . S
N1737 H1740 0.984 . S
N1737 H1741 0.985 . S
H1738 N1733 0.984 . S
H1739 N1733 0.985 . S
H1740 N1737 0.984 . S
H1741 N1737 0.985 . S
H1742 N1736 0.984 . S
H1743 N1736 0.984 . S
H1744 N1732 0.984 . S
H1745 N1732 0.985 . S
C1746 C1747 1.363 . S
C1746 C1752 1.379 . S
C1746 N1754 1.356 . S
C1747 C1746 1.363 . S
C1747 C1753 1.363 . S
C1748 C1749 1.363 . S
C1748 C1753 1.379 . S
C1748 N1755 1.356 . S
C1749 C1748 1.363 . S
C1749 C1752 1.363 . S
N1750 C1752 1.356 . S
N1750 H1762 0.984 . S
N1750 H1763 0.985 . S
N1751 C1753 1.356 . S
N1751 H1756 0.984 . S
N1751 H1757 0.985 . S
C1752 C1746 1.379 . S
C1752 C1749 1.363 . S
C1752 N1750 1.356 . S
C1753 C1747 1.363 . S
C1753 C1748 1.379 . S
C1753 N1751 1.356 . S
N1754 C1746 1.356 . S
N1754 H1760 0.984 . S
N1754 H1761 0.984 . S
N1755 C1748 1.356 . S
N1755 H1758 0.984 . S
N1755 H1759 0.985 . S
H1756 N1751 0.984 . S
H1757 N1751 0.985 . S
H1758 N1755 0.984 . S
H1759 N1755 0.985 . S
H1760 N1754 0.984 . S
H1761 N1754 0.984 . S
H1762 N1750 0.984 . S
H1763 N1750 0.985 . S
C1764 C1765 1.363 . S
C1764 C1770 1.379 . S
C1764 N1772 1.356 . S
C1765 C1764 1.363 . S
C1765 C1771 1.363 . S
C1766 C1767 1.363 . S
C1766 C1771 1.379 . S
C1766 N1773 1.356 . S
C1767 C1766 1.363 . S
C1767 C1770 1.363 . S
N1768 C1770 1.356 . S
N1768 H1780 0.984 . S
N1768 H1781 0.985 . S
N1769 C1771 1.356 . S
N1769 H1774 0.984 . S
N1769 H1775 0.985 . S
C1770 C1764 1.379 . S
C1770 C1767 1.363 . S
C1770 N1768 1.356 . S
C1771 C1765 1.363 . S
C1771 C1766 1.379 . S
C1771 N1769 1.356 . S
N1772 C1764 1.356 . S
N1772 H1778 0.984 . S
N1772 H1779 0.984 . S
N1773 C1766 1.356 . S
N1773 H1776 0.984 . S
N1773 H1777 0.985 . S
H1774 N1769 0.984 . S
H1775 N1769 0.985 . S
H1776 N1773 0.984 . S
H1777 N1773 0.985 . S
H1778 N1772 0.984 . S
H1779 N1772 0.984 . S
H1780 N1768 0.984 . S
H1781 N1768 0.985 . S
C1782 C1783 1.363 . S
C1782 C1788 1.379 . S
C1782 N1790 1.356 . S
C1783 C1782 1.363 . S
C1783 C1789 1.363 . S
C1784 C1785 1.363 . S
C1784 C1789 1.379 . S
C1784 N1791 1.356 . S
C1785 C1784 1.363 . S
C1785 C1788 1.363 . S
N1786 C1788 1.356 . S
N1786 H1798 0.984 . S
N1786 H1799 0.985 . S
N1787 C1789 1.356 . S
N1787 H1792 0.984 . S
N1787 H1793 0.985 . S
C1788 C1782 1.379 . S
C1788 C1785 1.363 . S
C1788 N1786 1.356 . S
C1789 C1783 1.363 . S
C1789 C1784 1.379 . S
C1789 N1787 1.356 . S
N1790 C1782 1.356 . S
N1790 H1796 0.984 . S
N1790 H1797 0.984 . S
N1791 C1784 1.356 . S
N1791 H1794 0.984 . S
N1791 H1795 0.985 . S
H1792 N1787 0.984 . S
H1793 N1787 0.985 . S
H1794 N1791 0.984 . S
H1795 N1791 0.985 . S
H1796 N1790 0.984 . S
H1797 N1790 0.984 . S
H1798 N1786 0.984 . S
H1799 N1786 0.985 . S
C1800 C1801 1.380 . S
C1800 C1806 1.379 . S
C1800 N1808 1.356 . S
C1801 C1800 1.380 . S
C1801 C1807 1.362 . S
C1802 C1803 1.363 . S
C1802 C1807 1.385 . S
C1802 N1809 1.356 . S
C1803 C1802 1.363 . S
C1803 C1806 1.363 . S
N1804 C1806 1.356 . S
N1804 H1816 0.984 . S
N1804 H1817 0.985 . S
N1805 C1807 1.348 1_655 S
N1805 H1810 0.984 . S
N1805 H1811 0.985 . S
C1806 C1800 1.379 . S
C1806 C1803 1.363 . S
C1806 N1804 1.356 . S
C1807 C1801 1.362 . S
C1807 C1802 1.385 . S
C1807 N1805 1.348 1_455 S
N1808 C1800 1.356 . S
N1808 H1814 0.984 . S
N1808 H1815 0.966 1_455 S
N1809 C1802 1.356 . S
N1809 H1812 0.984 . S
N1809 H1813 0.985 . S
H1810 N1805 0.984 . S
H1811 N1805 0.985 . S
H1812 N1809 0.984 . S
H1813 N1809 0.985 . S
H1814 N1808 0.984 . S
H1815 N1808 0.966 1_655 S
H1816 N1804 0.984 . S
H1817 N1804 0.985 . S
C1818 C1819 1.363 . S
C1818 C1824 1.379 . S
C1818 N1826 1.356 . S
C1819 C1818 1.363 . S
C1819 C1825 1.363 . S
C1820 C1821 1.363 . S
C1820 C1825 1.379 . S
C1820 N1827 1.356 . S
C1821 C1820 1.363 . S
C1821 C1824 1.363 . S
N1822 C1824 1.356 . S
N1822 H1834 0.984 . S
N1822 H1835 0.985 . S
N1823 C1825 1.356 . S
N1823 H1828 0.984 . S
N1823 H1829 0.985 . S
C1824 C1818 1.379 . S
C1824 C1821 1.363 . S
C1824 N1822 1.356 . S
C1825 C1819 1.363 . S
C1825 C1820 1.379 . S
C1825 N1823 1.356 . S
N1826 C1818 1.356 . S
N1826 H1832 0.984 . S
N1826 H1833 0.984 . S
N1827 C1820 1.356 . S
N1827 H1830 0.984 . S
N1827 H1831 0.985 . S
H1828 N1823 0.984 . S
H1829 N1823 0.985 . S
H1830 N1827 0.984 . S
H1831 N1827 0.985 . S
H1832 N1826 0.984 . S
H1833 N1826 0.984 . S
H1834 N1822 0.984 . S
H1835 N1822 0.985 . S
C1836 C1837 1.363 . S
C1836 C1842 1.379 . S
C1836 N1844 1.372 . S
C1837 C1836 1.363 . S
C1837 C1843 1.363 . S
C1838 C1839 1.363 . S
C1838 C1843 1.379 . S
C1838 N1845 1.356 . S
C1839 C1838 1.363 . S
C1839 C1842 1.363 . S
N1840 C1842 1.356 1_565 S
N1840 H1852 0.984 . S
N1840 H1853 0.985 . S
N1841 C1843 1.356 . S
N1841 H1846 0.984 . S
N1841 H1847 0.985 . S
C1842 C1836 1.379 . S
C1842 C1839 1.363 . S
C1842 N1840 1.356 1_545 S
C1843 C1837 1.363 . S
C1843 C1838 1.379 . S
C1843 N1841 1.356 . S
N1844 C1836 1.372 . S
N1844 H1850 0.965 1_545 S
N1844 H1851 0.989 . S
N1845 C1838 1.356 . S
N1845 H1848 0.984 . S
N1845 H1849 0.985 . S
H1846 N1841 0.984 . S
H1847 N1841 0.985 . S
H1848 N1845 0.984 . S
H1849 N1845 0.985 . S
H1850 N1844 0.965 1_565 S
H1851 N1844 0.989 . S
H1852 N1840 0.984 . S
H1853 N1840 0.985 . S
C1854 C1855 1.363 . S
C1854 C1860 1.379 . S
C1854 N1862 1.356 . S
C1855 C1854 1.363 . S
C1855 C1861 1.363 . S
C1856 C1857 1.363 . S
C1856 C1861 1.379 . S
C1856 N1863 1.356 . S
C1857 C1856 1.363 . S
C1857 C1860 1.363 . S
N1858 C1860 1.356 . S
N1858 H1870 0.984 . S
N1858 H1871 0.985 . S
N1859 C1861 1.356 . S
N1859 H1864 0.984 . S
N1859 H1865 0.985 . S
C1860 C1854 1.379 . S
C1860 C1857 1.363 . S
C1860 N1858 1.356 . S
C1861 C1855 1.363 . S
C1861 C1856 1.379 . S
C1861 N1859 1.356 . S
N1862 C1854 1.356 . S
N1862 H1868 0.984 . S
N1862 H1869 0.984 . S
N1863 C1856 1.356 . S
N1863 H1866 0.984 . S
N1863 H1867 0.985 . S
H1864 N1859 0.984 . S
H1865 N1859 0.985 . S
H1866 N1863 0.984 . S
H1867 N1863 0.985 . S
H1868 N1862 0.984 . S
H1869 N1862 0.984 . S
H1870 N1858 0.984 . S
H1871 N1858 0.985 . S
C1872 C1873 1.363 . S
C1872 C1878 1.379 . S
C1872 N1880 1.356 1_455 S
C1873 C1872 1.363 . S
C1873 C1879 1.363 . S
C1874 C1875 1.363 . S
C1874 C1879 1.379 . S
C1874 N1881 1.356 . S
C1875 C1874 1.363 . S
C1875 C1878 1.363 . S
N1876 C1878 1.356 . S
N1876 H1888 0.984 . S
N1876 H1889 0.985 . S
N1877 C1879 1.356 . S
N1877 H1882 0.984 1_455 S
N1877 H1883 0.985 . S
C1878 C1872 1.379 . S
C1878 C1875 1.363 . S
C1878 N1876 1.356 . S
C1879 C1873 1.363 . S
C1879 C1874 1.379 . S
C1879 N1877 1.356 . S
N1880 C1872 1.356 1_655 S
N1880 H1886 0.984 . S
N1880 H1887 0.984 . S
N1881 C1874 1.356 . S
N1881 H1884 0.984 . S
N1881 H1885 0.985 1_545 S
H1882 N1877 0.984 1_655 S
H1883 N1877 0.985 . S
H1884 N1881 0.984 . S
H1885 N1881 0.985 1_565 S
H1886 N1880 0.984 . S
H1887 N1880 0.984 . S
H1888 N1876 0.984 . S
H1889 N1876 0.985 . S
C1890 C1891 1.363 . S
C1890 C1896 1.379 . S
C1890 N1898 1.356 . S
C1891 C1890 1.363 . S
C1891 C1897 1.363 . S
C1892 C1893 1.363 . S
C1892 C1897 1.379 . S
C1892 N1899 1.356 . S
C1893 C1892 1.363 . S
C1893 C1896 1.363 . S
N1894 C1896 1.356 . S
N1894 H1906 0.984 . S
N1894 H1907 0.985 . S
N1895 C1897 1.356 . S
N1895 H1900 0.984 . S
N1895 H1901 0.985 . S
C1896 C1890 1.379 . S
C1896 C1893 1.363 . S
C1896 N1894 1.356 . S
C1897 C1891 1.363 . S
C1897 C1892 1.379 . S
C1897 N1895 1.356 . S
N1898 C1890 1.356 . S
N1898 H1904 0.984 . S
N1898 H1905 0.984 . S
N1899 C1892 1.356 . S
N1899 H1902 0.984 . S
N1899 H1903 0.985 . S
H1900 N1895 0.984 . S
H1901 N1895 0.985 . S
H1902 N1899 0.984 . S
H1903 N1899 0.985 . S
H1904 N1898 0.984 . S
H1905 N1898 0.984 . S
H1906 N1894 0.984 . S
H1907 N1894 0.985 . S
C1908 C1909 1.363 . S
C1908 C1914 1.379 . S
C1908 N1916 1.356 . S
C1909 C1908 1.363 . S
C1909 C1915 1.363 . S
C1910 C1911 1.363 . S
C1910 C1915 1.379 . S
C1910 N1917 1.356 . S
C1911 C1910 1.363 . S
C1911 C1914 1.363 . S
N1912 C1914 1.356 . S
N1912 H1924 0.984 . S
N1912 H1925 0.985 . S
N1913 C1915 1.356 . S
N1913 H1918 0.984 . S
N1913 H1919 0.985 . S
C1914 C1908 1.379 . S
C1914 C1911 1.363 . S
C1914 N1912 1.356 . S
C1915 C1909 1.363 . S
C1915 C1910 1.379 . S
C1915 N1913 1.356 . S
N1916 C1908 1.356 . S
N1916 H1922 0.984 . S
N1916 H1923 0.984 . S
N1917 C1910 1.356 . S
N1917 H1920 0.984 . S
N1917 H1921 0.985 . S
H1918 N1913 0.984 . S
H1919 N1913 0.985 . S
H1920 N1917 0.984 . S
H1921 N1917 0.985 . S
H1922 N1916 0.984 . S
H1923 N1916 0.984 . S
H1924 N1912 0.984 . S
H1925 N1912 0.985 . S
C1926 C1927 1.363 . S
C1926 C1932 1.379 . S
C1926 N1934 1.356 . S
C1927 C1926 1.363 . S
C1927 C1933 1.363 . S
C1928 C1929 1.363 . S
C1928 C1933 1.379 . S
C1928 N1935 1.356 . S
C1929 C1928 1.363 . S
C1929 C1932 1.363 . S
N1930 C1932 1.356 . S
N1930 H1942 0.984 . S
N1930 H1943 0.985 . S
N1931 C1933 1.356 . S
N1931 H1936 0.984 . S
N1931 H1937 0.985 . S
C1932 C1926 1.379 . S
C1932 C1929 1.363 . S
C1932 N1930 1.356 . S
C1933 C1927 1.363 . S
C1933 C1928 1.379 . S
C1933 N1931 1.356 . S
N1934 C1926 1.356 . S
N1934 H1940 0.984 . S
N1934 H1941 0.984 . S
N1935 C1928 1.356 . S
N1935 H1938 0.984 . S
N1935 H1939 0.985 . S
H1936 N1931 0.984 . S
H1937 N1931 0.985 . S
H1938 N1935 0.984 . S
H1939 N1935 0.985 . S
H1940 N1934 0.984 . S
H1941 N1934 0.984 . S
H1942 N1930 0.984 . S
H1943 N1930 0.985 . S
C1944 C1945 1.363 . S
C1944 C1950 1.379 1_565 S
C1944 N1952 1.356 . S
C1945 C1944 1.363 . S
C1945 C1951 1.363 1_554 S
C1946 C1947 1.363 . S
C1946 C1951 1.379 1_544 S
C1946 N1953 1.347 1_554 S
C1947 C1946 1.363 . S
C1947 C1950 1.363 . S
N1948 C1950 1.356 . S
N1948 H1960 0.984 . S
N1948 H1961 0.985 . S
N1949 C1951 1.356 . S
N1949 H1954 0.984 . S
N1949 H1955 0.985 . S
C1950 C1944 1.379 1_545 S
C1950 C1947 1.363 . S
C1950 N1948 1.356 . S
C1951 C1945 1.363 1_556 S
C1951 C1946 1.379 1_566 S
C1951 N1949 1.356 . S
N1952 C1944 1.356 . S
N1952 H1958 0.984 . S
N1952 H1959 0.984 . S
N1953 C1946 1.347 1_556 S
N1953 H1956 0.972 1_556 S
N1953 H1957 1.007 . S
H1954 N1949 0.984 . S
H1955 N1949 0.985 . S
H1956 N1953 0.972 1_554 S
H1957 N1953 1.007 . S
H1958 N1952 0.984 . S
H1959 N1952 0.984 . S
H1960 N1948 0.984 . S
H1961 N1948 0.985 . S
C1962 C1963 1.363 . S
C1962 C1968 1.379 . S
C1962 N1970 1.356 . S
C1963 C1962 1.363 . S
C1963 C1969 1.363 . S
C1964 C1965 1.363 . S
C1964 C1969 1.379 . S
C1964 N1971 1.356 . S
C1965 C1964 1.363 . S
C1965 C1968 1.363 . S
N1966 C1968 1.356 . S
N1966 H1978 0.990 . S
N1966 H1979 0.985 . S
N1967 C1969 1.356 . S
N1967 H1972 0.984 . S
N1967 H1973 0.985 . S
C1968 C1962 1.379 . S
C1968 C1965 1.363 . S
C1968 N1966 1.356 . S
C1969 C1963 1.363 . S
C1969 C1964 1.379 . S
C1969 N1967 1.356 . S
N1970 C1962 1.356 . S
N1970 H1976 0.984 . S
N1970 H1977 0.984 . S
N1971 C1964 1.356 . S
N1971 H1974 0.984 . S
N1971 H1975 0.985 . S
H1972 N1967 0.984 . S
H1973 N1967 0.985 . S
H1974 N1971 0.984 . S
H1975 N1971 0.985 . S
H1976 N1970 0.984 . S
H1977 N1970 0.984 . S
H1978 N1966 0.990 . S
H1979 N1966 0.985 . S
C1980 C1981 1.363 . S
C1980 C1986 1.379 . S
C1980 N1988 1.356 . S
C1981 C1980 1.363 . S
C1981 C1987 1.363 . S
C1982 C1983 1.363 . S
C1982 C1987 1.379 . S
C1982 N1989 1.356 . S
C1983 C1982 1.363 . S
C1983 C1986 1.363 . S
N1984 C1986 1.356 . S
N1984 H1996 0.984 . S
N1984 H1997 0.985 . S
N1985 C1987 1.356 . S
N1985 H1990 0.984 . S
N1985 H1991 0.985 . S
C1986 C1980 1.379 . S
C1986 C1983 1.363 . S
C1986 N1984 1.356 . S
C1987 C1981 1.363 . S
C1987 C1982 1.379 . S
C1987 N1985 1.356 . S
N1988 C1980 1.356 . S
N1988 H1994 0.984 . S
N1988 H1995 0.984 . S
N1989 C1982 1.356 . S
N1989 H1992 0.984 . S
N1989 H1993 0.985 . S
H1990 N1985 0.984 . S
H1991 N1985 0.985 . S
H1992 N1989 0.984 . S
H1993 N1989 0.985 . S
H1994 N1988 0.984 . S
H1995 N1988 0.984 . S
H1996 N1984 0.984 . S
H1997 N1984 0.985 . S
C1998 C1999 1.363 . S
C1998 C2004 1.379 . S
C1998 N2006 1.356 . S
C1999 C1998 1.363 . S
C1999 C2005 1.363 . S
C2000 C2001 1.363 . S
C2000 C2005 1.379 . S
C2000 N2007 1.356 . S
C2001 C2000 1.363 . S
C2001 C2004 1.363 . S
N2002 C2004 1.356 1_455 S
N2002 H2014 0.984 . S
N2002 H2015 0.985 . S
N2003 C2005 1.356 . S
N2003 H2008 0.984 . S
N2003 H2009 0.985 . S
C2004 C1998 1.379 . S
C2004 C2001 1.363 . S
C2004 N2002 1.356 1_655 S
C2005 C1999 1.363 . S
C2005 C2000 1.379 . S
C2005 N2003 1.356 . S
N2006 C1998 1.356 . S
N2006 H2012 0.984 . S
N2006 H2013 0.984 . S
N2007 C2000 1.356 . S
N2007 H2010 0.984 1_655 S
N2007 H2011 0.985 . S
H2008 N2003 0.984 . S
H2009 N2003 0.985 . S
H2010 N2007 0.984 1_455 S
H2011 N2007 0.985 . S
H2012 N2006 0.984 . S
H2013 N2006 0.984 . S
H2014 N2002 0.984 . S
H2015 N2002 0.985 . S
C2016 C2017 1.363 . S
C2016 C2022 1.379 . S
C2016 N2024 1.356 . S
C2017 C2016 1.363 . S
C2017 C2023 1.363 . S
C2018 C2019 1.363 . S
C2018 C2023 1.379 . S
C2018 N2025 1.356 . S
C2019 C2018 1.363 . S
C2019 C2022 1.363 . S
N2020 C2022 1.356 . S
N2020 H2032 0.984 . S
N2020 H2033 0.985 . S
N2021 C2023 1.356 . S
N2021 H2026 0.984 . S
N2021 H2027 0.985 . S
C2022 C2016 1.379 . S
C2022 C2019 1.363 . S
C2022 N2020 1.356 . S
C2023 C2017 1.363 . S
C2023 C2018 1.379 . S
C2023 N2021 1.356 . S
N2024 C2016 1.356 . S
N2024 H2030 0.984 . S
N2024 H2031 0.984 . S
N2025 C2018 1.356 . S
N2025 H2028 0.984 . S
N2025 H2029 0.985 . S
H2026 N2021 0.984 . S
H2027 N2021 0.985 . S
H2028 N2025 0.984 . S
H2029 N2025 0.985 . S
H2030 N2024 0.984 . S
H2031 N2024 0.984 . S
H2032 N2020 0.984 . S
H2033 N2020 0.985 . S
C2034 C2035 1.363 . S
C2034 C2040 1.379 . S
C2034 N2042 1.356 . S
C2035 C2034 1.363 . S
C2035 C2041 1.363 . S
C2036 C2037 1.363 . S
C2036 C2041 1.379 . S
C2036 N2043 1.356 . S
C2037 C2036 1.363 . S
C2037 C2040 1.363 . S
N2038 C2040 1.356 . S
N2038 H2050 0.984 . S
N2038 H2051 0.985 . S
N2039 C2041 1.356 . S
N2039 H2044 0.984 . S
N2039 H2045 0.985 . S
C2040 C2034 1.379 . S
C2040 C2037 1.363 . S
C2040 N2038 1.356 . S
C2041 C2035 1.363 . S
C2041 C2036 1.379 . S
C2041 N2039 1.356 . S
N2042 C2034 1.356 . S
N2042 H2048 0.984 . S
N2042 H2049 0.984 . S
N2043 C2036 1.356 . S
N2043 H2046 0.984 . S
N2043 H2047 0.985 . S
H2044 N2039 0.984 . S
H2045 N2039 0.985 . S
H2046 N2043 0.984 . S
H2047 N2043 0.985 . S
H2048 N2042 0.984 . S
H2049 N2042 0.984 . S
H2050 N2038 0.984 . S
H2051 N2038 0.985 . S
C2052 C2053 1.363 . S
C2052 C2058 1.379 . S
C2052 N2060 1.356 . S
C2053 C2052 1.363 . S
C2053 C2059 1.363 . S
C2054 C2055 1.363 . S
C2054 C2059 1.379 . S
C2054 N2061 1.356 . S
C2055 C2054 1.363 . S
C2055 C2058 1.363 . S
N2056 C2058 1.356 . S
N2056 H2068 0.984 . S
N2056 H2069 0.985 . S
N2057 C2059 1.356 . S
N2057 H2062 0.984 . S
N2057 H2063 0.985 . S
C2058 C2052 1.379 . S
C2058 C2055 1.363 . S
C2058 N2056 1.356 . S
C2059 C2053 1.363 . S
C2059 C2054 1.379 . S
C2059 N2057 1.356 . S
N2060 C2052 1.356 . S
N2060 H2066 0.984 . S
N2060 H2067 0.984 . S
N2061 C2054 1.356 . S
N2061 H2064 0.984 . S
N2061 H2065 0.985 . S
H2062 N2057 0.984 . S
H2063 N2057 0.985 . S
H2064 N2061 0.984 . S
H2065 N2061 0.985 . S
H2066 N2060 0.984 . S
H2067 N2060 0.984 . S
H2068 N2056 0.984 . S
H2069 N2056 0.985 . S
C2070 C2071 1.363 . S
C2070 C2076 1.379 . S
C2070 N2078 1.356 . S
C2071 C2070 1.363 . S
C2071 C2077 1.363 . S
C2072 C2073 1.363 . S
C2072 C2077 1.379 . S
C2072 N2079 1.356 . S
C2073 C2072 1.363 . S
C2073 C2076 1.363 . S
N2074 C2076 1.356 . S
N2074 H2086 0.984 . S
N2074 H2087 0.985 . S
N2075 C2077 1.356 . S
N2075 H2080 0.984 . S
N2075 H2081 0.985 . S
C2076 C2070 1.379 . S
C2076 C2073 1.363 . S
C2076 N2074 1.356 . S
C2077 C2071 1.363 . S
C2077 C2072 1.379 . S
C2077 N2075 1.356 . S
N2078 C2070 1.356 . S
N2078 H2084 0.984 . S
N2078 H2085 0.984 . S
N2079 C2072 1.356 . S
N2079 H2082 0.984 . S
N2079 H2083 0.985 . S
H2080 N2075 0.984 . S
H2081 N2075 0.985 . S
H2082 N2079 0.984 . S
H2083 N2079 0.985 . S
H2084 N2078 0.984 . S
H2085 N2078 0.984 . S
H2086 N2074 0.984 . S
H2087 N2074 0.985 . S
C2088 C2089 1.363 . S
C2088 C2094 1.379 . S
C2088 N2096 1.356 . S
C2089 C2088 1.363 . S
C2089 C2095 1.363 . S
C2090 C2091 1.363 . S
C2090 C2095 1.379 . S
C2090 N2097 1.356 . S
C2091 C2090 1.363 . S
C2091 C2094 1.363 . S
N2092 C2094 1.356 . S
N2092 H2104 0.984 . S
N2092 H2105 0.985 . S
N2093 C2095 1.356 . S
N2093 H2098 0.984 . S
N2093 H2099 0.985 . S
C2094 C2088 1.379 . S
C2094 C2091 1.363 . S
C2094 N2092 1.356 . S
C2095 C2089 1.363 . S
C2095 C2090 1.379 . S
C2095 N2093 1.356 . S
N2096 C2088 1.356 . S
N2096 H2102 0.984 . S
N2096 H2103 0.984 . S
N2097 C2090 1.356 . S
N2097 H2100 0.984 . S
N2097 H2101 0.985 . S
H2098 N2093 0.984 . S
H2099 N2093 0.985 . S
H2100 N2097 0.984 . S
H2101 N2097 0.985 . S
H2102 N2096 0.984 . S
H2103 N2096 0.984 . S
H2104 N2092 0.984 . S
H2105 N2092 0.985 . S
C2106 C2107 1.363 . S
C2106 C2112 1.379 . S
C2106 N2114 1.356 . S
C2107 C2106 1.363 . S
C2107 C2113 1.363 . S
C2108 C2109 1.363 . S
C2108 C2113 1.379 . S
C2108 N2115 1.356 . S
C2109 C2108 1.363 . S
C2109 C2112 1.363 . S
N2110 C2112 1.356 . S
N2110 H2122 0.984 . S
N2110 H2123 0.985 . S
N2111 C2113 1.356 . S
N2111 H2116 0.984 . S
N2111 H2117 0.985 . S
C2112 C2106 1.379 . S
C2112 C2109 1.363 . S
C2112 N2110 1.356 . S
C2113 C2107 1.363 . S
C2113 C2108 1.379 . S
C2113 N2111 1.356 . S
N2114 C2106 1.356 . S
N2114 H2120 0.984 . S
N2114 H2121 0.984 . S
N2115 C2108 1.356 . S
N2115 H2118 0.984 . S
N2115 H2119 0.985 . S
H2116 N2111 0.984 . S
H2117 N2111 0.985 . S
H2118 N2115 0.984 . S
H2119 N2115 0.985 . S
H2120 N2114 0.984 . S
H2121 N2114 0.984 . S
H2122 N2110 0.984 . S
H2123 N2110 0.985 . S
C2124 C2125 1.363 . S
C2124 C2130 1.379 . S
C2124 N2132 1.356 . S
C2125 C2124 1.363 . S
C2125 C2131 1.363 . S
C2126 C2127 1.363 . S
C2126 C2131 1.379 . S
C2126 N2133 1.356 . S
C2127 C2126 1.363 . S
C2127 C2130 1.363 . S
N2128 C2130 1.356 . S
N2128 H2140 0.984 . S
N2128 H2141 0.985 . S
N2129 C2131 1.356 . S
N2129 H2134 0.984 . S
N2129 H2135 0.985 . S
C2130 C2124 1.379 . S
C2130 C2127 1.363 . S
C2130 N2128 1.356 . S
C2131 C2125 1.363 . S
C2131 C2126 1.379 . S
C2131 N2129 1.356 . S
N2132 C2124 1.356 . S
N2132 H2138 0.984 . S
N2132 H2139 0.984 . S
N2133 C2126 1.356 . S
N2133 H2136 0.984 . S
N2133 H2137 0.985 . S
H2134 N2129 0.984 . S
H2135 N2129 0.985 . S
H2136 N2133 0.984 . S
H2137 N2133 0.985 . S
H2138 N2132 0.984 . S
H2139 N2132 0.984 . S
H2140 N2128 0.984 . S
H2141 N2128 0.985 . S
C2142 C2143 1.363 . S
C2142 C2148 1.379 . S
C2142 N2150 1.356 . S
C2143 C2142 1.363 . S
C2143 C2149 1.363 . S
C2144 C2145 1.363 . S
C2144 C2149 1.379 . S
C2144 N2151 1.356 . S
C2145 C2144 1.363 . S
C2145 C2148 1.363 . S
N2146 C2148 1.356 . S
N2146 H2158 0.984 . S
N2146 H2159 0.985 . S
N2147 C2149 1.356 . S
N2147 H2152 0.984 . S
N2147 H2153 0.985 . S
C2148 C2142 1.379 . S
C2148 C2145 1.363 . S
C2148 N2146 1.356 . S
C2149 C2143 1.363 . S
C2149 C2144 1.379 . S
C2149 N2147 1.356 . S
N2150 C2142 1.356 . S
N2150 H2156 0.984 . S
N2150 H2157 0.984 . S
N2151 C2144 1.356 . S
N2151 H2154 0.984 . S
N2151 H2155 0.985 . S
H2152 N2147 0.984 . S
H2153 N2147 0.985 . S
H2154 N2151 0.984 . S
H2155 N2151 0.985 . S
H2156 N2150 0.984 . S
H2157 N2150 0.984 . S
H2158 N2146 0.984 . S
H2159 N2146 0.985 . S
C2160 C2161 1.363 . S
C2160 C2166 1.379 . S
C2160 N2168 1.356 . S
C2161 C2160 1.363 . S
C2161 C2167 1.363 . S
C2162 C2163 1.363 . S
C2162 C2167 1.379 . S
C2162 N2169 1.356 . S
C2163 C2162 1.363 . S
C2163 C2166 1.363 . S
N2164 C2166 1.356 . S
N2164 H2176 0.984 . S
N2164 H2177 0.985 . S
N2165 C2167 1.356 . S
N2165 H2170 0.984 . S
N2165 H2171 0.985 . S
C2166 C2160 1.379 . S
C2166 C2163 1.363 . S
C2166 N2164 1.356 . S
C2167 C2161 1.363 . S
C2167 C2162 1.379 . S
C2167 N2165 1.356 . S
N2168 C2160 1.356 . S
N2168 H2174 0.984 . S
N2168 H2175 0.984 . S
N2169 C2162 1.356 . S
N2169 H2172 0.984 . S
N2169 H2173 0.985 . S
H2170 N2165 0.984 . S
H2171 N2165 0.985 . S
H2172 N2169 0.984 . S
H2173 N2169 0.985 . S
H2174 N2168 0.984 . S
H2175 N2168 0.984 . S
H2176 N2164 0.984 . S
H2177 N2164 0.985 . S
C2178 C2179 1.363 . S
C2178 C2184 1.379 . S
C2178 N2186 1.356 . S
C2179 C2178 1.363 . S
C2179 C2185 1.363 . S
C2180 C2181 1.363 . S
C2180 C2185 1.379 . S
C2180 N2187 1.356 . S
C2181 C2180 1.363 . S
C2181 C2184 1.363 . S
N2182 C2184 1.356 . S
N2182 H2194 0.984 . S
N2182 H2195 0.985 . S
N2183 C2185 1.356 . S
N2183 H2188 0.984 . S
N2183 H2189 0.985 . S
C2184 C2178 1.379 . S
C2184 C2181 1.363 . S
C2184 N2182 1.356 . S
C2185 C2179 1.363 . S
C2185 C2180 1.379 . S
C2185 N2183 1.356 . S
N2186 C2178 1.356 . S
N2186 H2192 0.984 . S
N2186 H2193 0.984 . S
N2187 C2180 1.356 . S
N2187 H2190 0.984 . S
N2187 H2191 0.985 . S
H2188 N2183 0.984 . S
H2189 N2183 0.985 . S
H2190 N2187 0.984 . S
H2191 N2187 0.985 . S
H2192 N2186 0.984 . S
H2193 N2186 0.984 . S
H2194 N2182 0.984 . S
H2195 N2182 0.985 . S
C2196 C2197 1.363 . S
C2196 C2202 1.379 . S
C2196 N2204 1.356 . S
C2197 C2196 1.363 . S
C2197 C2203 1.363 . S
C2198 C2199 1.363 . S
C2198 C2203 1.379 . S
C2198 N2205 1.356 1_565 S
C2199 C2198 1.363 . S
C2199 C2202 1.363 . S
N2200 C2202 1.356 . S
N2200 H2212 0.984 . S
N2200 H2213 0.985 . S
N2201 C2203 1.356 . S
N2201 H2206 0.984 . S
N2201 H2207 0.985 1_565 S
C2202 C2196 1.379 . S
C2202 C2199 1.363 . S
C2202 N2200 1.356 . S
C2203 C2197 1.363 . S
C2203 C2198 1.379 . S
C2203 N2201 1.356 . S
N2204 C2196 1.356 . S
N2204 H2210 0.984 . S
N2204 H2211 0.984 . S
N2205 C2198 1.356 1_545 S
N2205 H2208 0.984 . S
N2205 H2209 0.985 . S
H2206 N2201 0.984 . S
H2207 N2201 0.985 1_545 S
H2208 N2205 0.984 . S
H2209 N2205 0.985 . S
H2210 N2204 0.984 . S
H2211 N2204 0.984 . S
H2212 N2200 0.984 . S
H2213 N2200 0.985 . S
C2214 C2215 1.363 . S
C2214 C2220 1.379 . S
C2214 N2222 1.356 . S
C2215 C2214 1.363 . S
C2215 C2221 1.363 . S
C2216 C2217 1.363 . S
C2216 C2221 1.379 . S
C2216 N2223 1.356 . S
C2217 C2216 1.363 . S
C2217 C2220 1.363 . S
N2218 C2220 1.356 . S
N2218 H2230 0.984 . S
N2218 H2231 0.985 . S
N2219 C2221 1.356 . S
N2219 H2224 0.984 . S
N2219 H2225 0.985 . S
C2220 C2214 1.379 . S
C2220 C2217 1.363 . S
C2220 N2218 1.356 . S
C2221 C2215 1.363 . S
C2221 C2216 1.379 . S
C2221 N2219 1.356 . S
N2222 C2214 1.356 . S
N2222 H2228 0.984 . S
N2222 H2229 0.984 . S
N2223 C2216 1.356 . S
N2223 H2226 0.984 . S
N2223 H2227 0.985 . S
H2224 N2219 0.984 . S
H2225 N2219 0.985 . S
H2226 N2223 0.984 . S
H2227 N2223 0.985 . S
H2228 N2222 0.984 . S
H2229 N2222 0.984 . S
H2230 N2218 0.984 . S
H2231 N2218 0.985 . S
C2232 C2233 1.363 . S
C2232 C2238 1.379 . S
C2232 N2240 1.356 . S
C2233 C2232 1.363 . S
C2233 C2239 1.363 1_545 S
C2234 C2235 1.363 1_565 S
C2234 C2239 1.379 . S
C2234 N2241 1.356 . S
C2235 C2234 1.363 1_545 S
C2235 C2238 1.363 . S
N2236 C2238 1.356 . S
N2236 H2248 0.984 . S
N2236 H2249 0.985 . S
N2237 C2239 1.356 . S
N2237 H2242 0.984 . S
N2237 H2243 0.985 . S
C2238 C2232 1.379 . S
C2238 C2235 1.363 . S
C2238 N2236 1.356 . S
C2239 C2233 1.363 1_565 S
C2239 C2234 1.379 . S
C2239 N2237 1.356 . S
N2240 C2232 1.356 . S
N2240 H2246 0.984 . S
N2240 H2247 0.984 . S
N2241 C2234 1.356 . S
N2241 H2244 0.984 . S
N2241 H2245 0.985 . S
H2242 N2237 0.984 . S
H2243 N2237 0.985 . S
H2244 N2241 0.984 . S
H2245 N2241 0.985 . S
H2246 N2240 0.984 . S
H2247 N2240 0.984 . S
H2248 N2236 0.984 . S
H2249 N2236 0.985 . S
C2250 C2251 1.363 . S
C2250 C2256 1.379 . S
C2250 N2258 1.356 . S
C2251 C2250 1.363 . S
C2251 C2257 1.363 . S
C2252 C2253 1.363 . S
C2252 C2257 1.379 . S
C2252 N2259 1.356 . S
C2253 C2252 1.363 . S
C2253 C2256 1.363 . S
N2254 C2256 1.356 . S
N2254 H2266 0.984 . S
N2254 H2267 0.985 . S
N2255 C2257 1.356 . S
N2255 H2260 0.984 . S
N2255 H2261 0.985 . S
C2256 C2250 1.379 . S
C2256 C2253 1.363 . S
C2256 N2254 1.356 . S
C2257 C2251 1.363 . S
C2257 C2252 1.379 . S
C2257 N2255 1.356 . S
N2258 C2250 1.356 . S
N2258 H2264 0.984 . S
N2258 H2265 0.984 . S
N2259 C2252 1.356 . S
N2259 H2262 0.984 . S
N2259 H2263 0.985 . S
H2260 N2255 0.984 . S
H2261 N2255 0.985 . S
H2262 N2259 0.984 . S
H2263 N2259 0.985 . S
H2264 N2258 0.984 . S
H2265 N2258 0.984 . S
H2266 N2254 0.984 . S
H2267 N2254 0.985 . S
C2268 C2269 1.363 1_565 S
C2268 C2274 1.379 1_565 S
C2268 N2276 1.356 . S
C2269 C2268 1.363 1_545 S
C2269 C2275 1.363 . S
C2270 C2271 1.363 . S
C2270 C2275 1.379 . S
C2270 N2277 1.356 . S
C2271 C2270 1.363 . S
C2271 C2274 1.363 . S
N2272 C2274 1.356 1_565 S
N2272 H2284 0.984 . S
N2272 H2285 0.988 . S
N2273 C2275 1.356 . S
N2273 H2278 0.984 . S
N2273 H2279 0.985 . S
C2274 C2268 1.379 1_545 S
C2274 C2271 1.363 . S
C2274 N2272 1.356 1_545 S
C2275 C2269 1.363 . S
C2275 C2270 1.379 . S
C2275 N2273 1.356 . S
N2276 C2268 1.356 . S
N2276 H2282 0.984 . S
N2276 H2283 0.984 . S
N2277 C2270 1.356 . S
N2277 H2280 0.984 . S
N2277 H2281 0.985 . S
H2278 N2273 0.984 . S
H2279 N2273 0.985 . S
H2280 N2277 0.984 . S
H2281 N2277 0.985 . S
H2282 N2276 0.984 . S
H2283 N2276 0.984 . S
H2284 N2272 0.984 . S
H2285 N2272 0.988 . S
C2286 C2287 1.363 . S
C2286 C2292 1.379 . S
C2286 N2294 1.356 . S
C2287 C2286 1.363 . S
C2287 C2293 1.363 . S
C2288 C2289 1.363 . S
C2288 C2293 1.379 . S
C2288 N2295 1.356 . S
C2289 C2288 1.363 . S
C2289 C2292 1.363 . S
N2290 C2292 1.356 . S
N2290 H2302 0.984 . S
N2290 H2303 0.985 . S
N2291 C2293 1.356 . S
N2291 H2296 0.984 . S
N2291 H2297 0.985 . S
C2292 C2286 1.379 . S
C2292 C2289 1.363 . S
C2292 N2290 1.356 . S
C2293 C2287 1.363 . S
C2293 C2288 1.379 . S
C2293 N2291 1.356 . S
N2294 C2286 1.356 . S
N2294 H2300 0.984 . S
N2294 H2301 0.984 . S
N2295 C2288 1.356 . S
N2295 H2298 0.984 . S
N2295 H2299 0.985 . S
H2296 N2291 0.984 . S
H2297 N2291 0.985 . S
H2298 N2295 0.984 . S
H2299 N2295 0.985 . S
H2300 N2294 0.984 . S
H2301 N2294 0.984 . S
H2302 N2290 0.984 . S
H2303 N2290 0.985 . S
C2304 C2305 1.363 . S
C2304 C2310 1.379 . S
C2304 N2312 1.356 . S
C2305 C2304 1.363 . S
C2305 C2311 1.363 1_565 S
C2306 C2307 1.363 . S
C2306 C2311 1.379 . S
C2306 N2313 1.356 . S
C2307 C2306 1.363 . S
C2307 C2310 1.363 1_545 S
N2308 C2310 1.356 . S
N2308 H2320 0.984 . S
N2308 H2321 0.985 . S
N2309 C2311 1.356 . S
N2309 H2314 0.984 . S
N2309 H2315 0.985 . S
C2310 C2304 1.379 . S
C2310 C2307 1.363 1_565 S
C2310 N2308 1.356 . S
C2311 C2305 1.363 1_545 S
C2311 C2306 1.379 . S
C2311 N2309 1.356 . S
N2312 C2304 1.356 . S
N2312 H2318 0.984 . S
N2312 H2319 0.984 . S
N2313 C2306 1.356 . S
N2313 H2316 0.984 . S
N2313 H2317 0.985 . S
H2314 N2309 0.984 . S
H2315 N2309 0.985 . S
H2316 N2313 0.984 . S
H2317 N2313 0.985 . S
H2318 N2312 0.984 . S
H2319 N2312 0.984 . S
H2320 N2308 0.984 . S
H2321 N2308 0.985 . S
C2322 C2323 1.363 . S
C2322 C2328 1.379 . S
C2322 N2330 1.356 . S
C2323 C2322 1.363 . S
C2323 C2329 1.363 . S
C2324 C2325 1.363 . S
C2324 C2329 1.379 . S
C2324 N2331 1.356 . S
C2325 C2324 1.363 . S
C2325 C2328 1.363 . S
N2326 C2328 1.356 . S
N2326 H2338 0.984 . S
N2326 H2339 0.985 . S
N2327 C2329 1.356 . S
N2327 H2332 0.984 . S
N2327 H2333 0.985 . S
C2328 C2322 1.379 . S
C2328 C2325 1.363 . S
C2328 N2326 1.356 . S
C2329 C2323 1.363 . S
C2329 C2324 1.379 . S
C2329 N2327 1.356 . S
N2330 C2322 1.356 . S
N2330 H2336 0.984 . S
N2330 H2337 0.984 . S
N2331 C2324 1.356 . S
N2331 H2334 0.984 . S
N2331 H2335 0.985 . S
H2332 N2327 0.984 . S
H2333 N2327 0.985 . S
H2334 N2331 0.984 . S
H2335 N2331 0.985 . S
H2336 N2330 0.984 . S
H2337 N2330 0.984 . S
H2338 N2326 0.984 . S
H2339 N2326 0.985 . S
C2340 C2341 1.363 1_565 S
C2340 C2346 1.379 . S
C2340 N2348 1.356 . S
C2341 C2340 1.363 1_545 S
C2341 C2347 1.363 . S
C2342 C2343 1.363 . S
C2342 C2347 1.379 . S
C2342 N2349 1.356 . S
C2343 C2342 1.363 . S
C2343 C2346 1.363 1_545 S
N2344 C2346 1.356 . S
N2344 H2356 0.984 . S
N2344 H2357 0.985 . S
N2345 C2347 1.356 . S
N2345 H2350 0.984 . S
N2345 H2351 0.985 . S
C2346 C2340 1.379 . S
C2346 C2343 1.363 1_565 S
C2346 N2344 1.356 . S
C2347 C2341 1.363 . S
C2347 C2342 1.379 . S
C2347 N2345 1.356 . S
N2348 C2340 1.356 . S
N2348 H2354 0.984 . S
N2348 H2355 0.984 . S
N2349 C2342 1.356 . S
N2349 H2352 0.984 . S
N2349 H2353 0.985 . S
H2350 N2345 0.984 . S
H2351 N2345 0.985 . S
H2352 N2349 0.984 . S
H2353 N2349 0.985 . S
H2354 N2348 0.984 . S
H2355 N2348 0.984 . S
H2356 N2344 0.984 . S
H2357 N2344 0.985 . S
C2358 C2359 1.363 . S
C2358 C2364 1.379 . S
C2358 N2366 1.356 . S
C2359 C2358 1.363 . S
C2359 C2365 1.363 . S
C2360 C2361 1.363 . S
C2360 C2365 1.379 . S
C2360 N2367 1.356 . S
C2361 C2360 1.363 . S
C2361 C2364 1.363 . S
N2362 C2364 1.356 . S
N2362 H2374 0.984 . S
N2362 H2375 0.985 . S
N2363 C2365 1.356 . S
N2363 H2368 0.984 . S
N2363 H2369 0.985 . S
C2364 C2358 1.379 . S
C2364 C2361 1.363 . S
C2364 N2362 1.356 . S
C2365 C2359 1.363 . S
C2365 C2360 1.379 . S
C2365 N2363 1.356 . S
N2366 C2358 1.356 . S
N2366 H2372 0.984 . S
N2366 H2373 0.984 . S
N2367 C2360 1.356 . S
N2367 H2370 0.984 . S
N2367 H2371 0.985 . S
H2368 N2363 0.984 . S
H2369 N2363 0.985 . S
H2370 N2367 0.984 . S
H2371 N2367 0.985 . S
H2372 N2366 0.984 . S
H2373 N2366 0.984 . S
H2374 N2362 0.984 . S
H2375 N2362 0.985 . S
C2376 C2377 1.363 . S
C2376 C2382 1.379 . S
C2376 N2384 1.356 . S
C2377 C2376 1.363 . S
C2377 C2383 1.363 . S
C2378 C2379 1.363 . S
C2378 C2383 1.379 . S
C2378 N2385 1.356 . S
C2379 C2378 1.363 . S
C2379 C2382 1.363 . S
N2380 C2382 1.356 . S
N2380 H2392 0.984 . S
N2380 H2393 0.985 . S
N2381 C2383 1.356 . S
N2381 H2386 0.984 . S
N2381 H2387 0.985 . S
C2382 C2376 1.379 . S
C2382 C2379 1.363 . S
C2382 N2380 1.356 . S
C2383 C2377 1.363 . S
C2383 C2378 1.379 . S
C2383 N2381 1.356 . S
N2384 C2376 1.356 . S
N2384 H2390 0.984 . S
N2384 H2391 0.984 . S
N2385 C2378 1.356 . S
N2385 H2388 0.984 . S
N2385 H2389 0.985 . S
H2386 N2381 0.984 . S
H2387 N2381 0.985 . S
H2388 N2385 0.984 . S
H2389 N2385 0.985 . S
H2390 N2384 0.984 . S
H2391 N2384 0.984 . S
H2392 N2380 0.984 . S
H2393 N2380 0.985 . S
C2394 C2395 1.363 . S
C2394 C2400 1.379 . S
C2394 N2402 1.356 . S
C2395 C2394 1.363 . S
C2395 C2401 1.363 . S
C2396 C2397 1.363 . S
C2396 C2401 1.379 . S
C2396 N2403 1.356 1_554 S
C2397 C2396 1.363 . S
C2397 C2400 1.363 . S
N2398 C2400 1.356 . S
N2398 H2410 0.984 . S
N2398 H2411 0.985 . S
N2399 C2401 1.356 1_556 S
N2399 H2404 0.984 1_556 S
N2399 H2405 0.985 . S
C2400 C2394 1.379 . S
C2400 C2397 1.363 . S
C2400 N2398 1.356 . S
C2401 C2395 1.363 . S
C2401 C2396 1.379 . S
C2401 N2399 1.356 1_554 S
N2402 C2394 1.356 . S
N2402 H2408 0.984 . S
N2402 H2409 0.984 . S
N2403 C2396 1.356 1_556 S
N2403 H2406 0.984 1_556 S
N2403 H2407 0.985 . S
H2404 N2399 0.984 1_554 S
H2405 N2399 0.985 . S
H2406 N2403 0.984 1_554 S
H2407 N2403 0.985 . S
H2408 N2402 0.984 . S
H2409 N2402 0.984 . S
H2410 N2398 0.984 . S
H2411 N2398 0.985 . S
C2412 C2413 1.363 . S
C2412 C2418 1.379 . S
C2412 N2420 1.356 . S
C2413 C2412 1.363 . S
C2413 C2419 1.363 . S
C2414 C2415 1.363 . S
C2414 C2419 1.379 . S
C2414 N2421 1.356 . S
C2415 C2414 1.363 . S
C2415 C2418 1.363 . S
N2416 C2418 1.356 . S
N2416 H2428 0.984 . S
N2416 H2429 0.985 . S
N2417 C2419 1.356 . S
N2417 H2422 0.984 . S
N2417 H2423 0.985 . S
C2418 C2412 1.379 . S
C2418 C2415 1.363 . S
C2418 N2416 1.356 . S
C2419 C2413 1.363 . S
C2419 C2414 1.379 . S
C2419 N2417 1.356 . S
N2420 C2412 1.356 . S
N2420 H2426 0.984 . S
N2420 H2427 0.984 . S
N2421 C2414 1.356 . S
N2421 H2424 0.984 . S
N2421 H2425 0.985 . S
H2422 N2417 0.984 . S
H2423 N2417 0.985 . S
H2424 N2421 0.984 . S
H2425 N2421 0.985 . S
H2426 N2420 0.984 . S
H2427 N2420 0.984 . S
H2428 N2416 0.984 . S
H2429 N2416 0.985 . S
C2430 C2431 1.363 . S
C2430 C2436 1.379 . S
C2430 N2438 1.356 . S
C2431 C2430 1.363 . S
C2431 C2437 1.363 . S
C2432 C2433 1.363 . S
C2432 C2437 1.379 . S
C2432 N2439 1.356 . S
C2433 C2432 1.363 . S
C2433 C2436 1.363 . S
N2434 C2436 1.356 . S
N2434 H2446 0.984 . S
N2434 H2447 0.985 . S
N2435 C2437 1.356 . S
N2435 H2440 0.984 . S
N2435 H2441 0.985 . S
C2436 C2430 1.379 . S
C2436 C2433 1.363 . S
C2436 N2434 1.356 . S
C2437 C2431 1.363 . S
C2437 C2432 1.379 . S
C2437 N2435 1.356 . S
N2438 C2430 1.356 . S
N2438 H2444 0.984 . S
N2438 H2445 0.984 . S
N2439 C2432 1.356 . S
N2439 H2442 0.984 . S
N2439 H2443 0.985 . S
H2440 N2435 0.984 . S
H2441 N2435 0.985 . S
H2442 N2439 0.984 . S
H2443 N2439 0.985 . S
H2444 N2438 0.984 . S
H2445 N2438 0.984 . S
H2446 N2434 0.984 . S
H2447 N2434 0.985 . S
C2448 C2449 1.363 . S
C2448 C2454 1.379 . S
C2448 N2456 1.356 . S
C2449 C2448 1.363 . S
C2449 C2455 1.363 1_565 S
C2450 C2451 1.363 . S
C2450 C2455 1.379 1_565 S
C2450 N2457 1.356 1_565 S
C2451 C2450 1.363 . S
C2451 C2454 1.363 . S
N2452 C2454 1.356 . S
N2452 H2464 0.984 . S
N2452 H2465 0.985 . S
N2453 C2455 1.356 . S
N2453 H2458 0.984 . S
N2453 H2459 0.985 . S
C2454 C2448 1.379 . S
C2454 C2451 1.363 . S
C2454 N2452 1.356 . S
C2455 C2449 1.363 1_545 S
C2455 C2450 1.379 1_545 S
C2455 N2453 1.356 . S
N2456 C2448 1.356 . S
N2456 H2462 0.984 . S
N2456 H2463 0.984 . S
N2457 C2450 1.356 1_545 S
N2457 H2460 0.984 1_545 S
N2457 H2461 0.985 . S
H2458 N2453 0.984 . S
H2459 N2453 0.985 . S
H2460 N2457 0.984 1_565 S
H2461 N2457 0.985 . S
H2462 N2456 0.984 . S
H2463 N2456 0.984 . S
H2464 N2452 0.984 . S
H2465 N2452 0.985 . S
C2466 C2467 1.363 . S
C2466 C2472 1.379 . S
C2466 N2474 1.356 . S
C2467 C2466 1.363 . S
C2467 C2473 1.363 . S
C2468 C2469 1.363 . S
C2468 C2473 1.379 . S
C2468 N2475 1.356 . S
C2469 C2468 1.363 . S
C2469 C2472 1.363 . S
N2470 C2472 1.356 . S
N2470 H2482 0.996 . S
N2470 H2483 0.985 . S
N2471 C2473 1.356 . S
N2471 H2476 0.984 . S
N2471 H2477 0.985 . S
C2472 C2466 1.379 . S
C2472 C2469 1.363 . S
C2472 N2470 1.356 . S
C2473 C2467 1.363 . S
C2473 C2468 1.379 . S
C2473 N2471 1.356 . S
N2474 C2466 1.356 . S
N2474 H2480 0.984 . S
N2474 H2481 0.984 . S
N2475 C2468 1.356 . S
N2475 H2478 0.984 . S
N2475 H2479 0.985 . S
H2476 N2471 0.984 . S
H2477 N2471 0.985 . S
H2478 N2475 0.984 . S
H2479 N2475 0.985 . S
H2480 N2474 0.984 . S
H2481 N2474 0.984 . S
H2482 N2470 0.996 . S
H2483 N2470 0.985 . S
C2484 C2485 1.363 . S
C2484 C2490 1.379 . S
C2484 N2492 1.356 . S
C2485 C2484 1.363 . S
C2485 C2491 1.363 . S
C2486 C2487 1.363 . S
C2486 C2491 1.379 . S
C2486 N2493 1.356 . S
C2487 C2486 1.363 . S
C2487 C2490 1.363 . S
N2488 C2490 1.356 . S
N2488 H2500 0.984 . S
N2488 H2501 0.985 . S
N2489 C2491 1.356 . S
N2489 H2494 0.984 . S
N2489 H2495 0.985 . S
C2490 C2484 1.379 . S
C2490 C2487 1.363 . S
C2490 N2488 1.356 . S
C2491 C2485 1.363 . S
C2491 C2486 1.379 . S
C2491 N2489 1.356 . S
N2492 C2484 1.356 . S
N2492 H2498 0.984 . S
N2492 H2499 0.984 . S
N2493 C2486 1.356 . S
N2493 H2496 0.984 . S
N2493 H2497 0.985 . S
H2494 N2489 0.984 . S
H2495 N2489 0.985 . S
H2496 N2493 0.984 . S
H2497 N2493 0.985 . S
H2498 N2492 0.984 . S
H2499 N2492 0.984 . S
H2500 N2488 0.984 . S
H2501 N2488 0.985 . S
C2502 C2503 1.363 . S
C2502 C2508 1.379 . S
C2502 N2510 1.356 . S
C2503 C2502 1.363 . S
C2503 C2509 1.363 . S
C2504 C2505 1.363 . S
C2504 C2509 1.379 . S
C2504 N2511 1.356 . S
C2505 C2504 1.363 . S
C2505 C2508 1.363 . S
N2506 C2508 1.356 . S
N2506 H2518 0.984 . S
N2506 H2519 0.985 . S
N2507 C2509 1.356 . S
N2507 H2512 0.984 . S
N2507 H2513 0.985 . S
C2508 C2502 1.379 . S
C2508 C2505 1.363 . S
C2508 N2506 1.356 . S
C2509 C2503 1.363 . S
C2509 C2504 1.379 . S
C2509 N2507 1.356 . S
N2510 C2502 1.356 . S
N2510 H2516 0.984 . S
N2510 H2517 0.984 . S
N2511 C2504 1.356 . S
N2511 H2514 0.984 . S
N2511 H2515 0.985 . S
H2512 N2507 0.984 . S
H2513 N2507 0.985 . S
H2514 N2511 0.984 . S
H2515 N2511 0.985 . S
H2516 N2510 0.984 . S
H2517 N2510 0.984 . S
H2518 N2506 0.984 . S
H2519 N2506 0.985 . S
C2520 C2521 1.363 . S
C2520 C2526 1.379 . S
C2520 N2528 1.356 . S
C2521 C2520 1.363 . S
C2521 C2527 1.363 . S
C2522 C2523 1.363 . S
C2522 C2527 1.379 . S
C2522 N2529 1.356 . S
C2523 C2522 1.363 . S
C2523 C2526 1.363 . S
N2524 C2526 1.356 . S
N2524 H2536 0.984 . S
N2524 H2537 0.985 . S
N2525 C2527 1.356 . S
N2525 H2530 0.984 . S
N2525 H2531 0.985 . S
C2526 C2520 1.379 . S
C2526 C2523 1.363 . S
C2526 N2524 1.356 . S
C2527 C2521 1.363 . S
C2527 C2522 1.379 . S
C2527 N2525 1.356 . S
N2528 C2520 1.356 . S
N2528 H2534 0.984 . S
N2528 H2535 0.984 . S
N2529 C2522 1.356 . S
N2529 H2532 0.984 . S
N2529 H2533 0.985 . S
H2530 N2525 0.984 . S
H2531 N2525 0.985 . S
H2532 N2529 0.984 . S
H2533 N2529 0.985 . S
H2534 N2528 0.984 . S
H2535 N2528 0.984 . S
H2536 N2524 0.984 . S
H2537 N2524 0.985 . S
C2538 C2539 1.363 . S
C2538 C2544 1.379 . S
C2538 N2546 1.356 . S
C2539 C2538 1.363 . S
C2539 C2545 1.363 . S
C2540 C2541 1.363 . S
C2540 C2545 1.379 . S
C2540 N2547 1.356 . S
C2541 C2540 1.363 . S
C2541 C2544 1.363 . S
N2542 C2544 1.356 . S
N2542 H2554 0.984 . S
N2542 H2555 0.985 . S
N2543 C2545 1.356 . S
N2543 H2548 0.984 . S
N2543 H2549 0.985 . S
C2544 C2538 1.379 . S
C2544 C2541 1.363 . S
C2544 N2542 1.356 . S
C2545 C2539 1.363 . S
C2545 C2540 1.379 . S
C2545 N2543 1.356 . S
N2546 C2538 1.356 . S
N2546 H2552 0.984 . S
N2546 H2553 0.984 . S
N2547 C2540 1.356 . S
N2547 H2550 0.984 . S
N2547 H2551 0.985 . S
H2548 N2543 0.984 . S
H2549 N2543 0.985 . S
H2550 N2547 0.984 . S
H2551 N2547 0.985 . S
H2552 N2546 0.984 . S
H2553 N2546 0.984 . S
H2554 N2542 0.984 . S
H2555 N2542 0.985 . S
C2556 C2557 1.363 . S
C2556 C2562 1.379 . S
C2556 N2564 1.356 . S
C2557 C2556 1.363 . S
C2557 C2563 1.363 1_556 S
C2558 C2559 1.363 . S
C2558 C2563 1.379 . S
C2558 N2565 1.356 . S
C2559 C2558 1.363 . S
C2559 C2562 1.363 1_554 S
N2560 C2562 1.356 . S
N2560 H2572 0.984 . S
N2560 H2573 0.985 1_556 S
N2561 C2563 1.356 . S
N2561 H2566 0.984 . S
N2561 H2567 0.986 1_455 S
C2562 C2556 1.379 . S
C2562 C2559 1.363 1_556 S
C2562 N2560 1.356 . S
C2563 C2557 1.363 1_554 S
C2563 C2558 1.379 . S
C2563 N2561 1.356 . S
N2564 C2556 1.356 . S
N2564 H2570 0.984 . S
N2564 H2571 0.984 . S
N2565 C2558 1.356 . S
N2565 H2568 0.984 . S
N2565 H2569 0.985 . S
H2566 N2561 0.984 . S
H2567 N2561 0.986 1_655 S
H2568 N2565 0.984 . S
H2569 N2565 0.985 . S
H2570 N2564 0.984 . S
H2571 N2564 0.984 . S
H2572 N2560 0.984 . S
H2573 N2560 0.985 1_554 S
C2574 C2575 1.363 . S
C2574 C2580 1.379 1_455 S
C2574 N2582 1.356 . S
C2575 C2574 1.363 . S
C2575 C2581 1.363 . S
C2576 C2577 1.363 1_455 S
C2576 C2581 1.379 . S
C2576 N2583 1.356 . S
C2577 C2576 1.363 1_655 S
C2577 C2580 1.363 . S
N2578 C2580 1.356 . S
N2578 H2590 0.984 . S
N2578 H2591 0.985 . S
N2579 C2581 1.356 . S
N2579 H2584 0.984 . S
N2579 H2585 0.985 . S
C2580 C2574 1.379 1_655 S
C2580 C2577 1.363 . S
C2580 N2578 1.356 . S
C2581 C2575 1.363 . S
C2581 C2576 1.379 . S
C2581 N2579 1.356 . S
N2582 C2574 1.356 . S
N2582 H2588 0.984 1_455 S
N2582 H2589 0.984 . S
N2583 C2576 1.356 . S
N2583 H2586 0.985 1_455 S
N2583 H2587 0.985 . S
H2584 N2579 0.984 . S
H2585 N2579 0.985 . S
H2586 N2583 0.985 1_655 S
H2587 N2583 0.985 . S
H2588 N2582 0.984 1_655 S
H2589 N2582 0.984 . S
H2590 N2578 0.984 . S
H2591 N2578 0.985 . S
C2592 C2593 1.363 . S
C2592 C2598 1.379 . S
C2592 N2600 1.356 . S
C2593 C2592 1.363 . S
C2593 C2599 1.363 . S
C2594 C2595 1.363 . S
C2594 C2599 1.379 . S
C2594 N2601 1.356 . S
C2595 C2594 1.363 . S
C2595 C2598 1.363 . S
N2596 C2598 1.356 . S
N2596 H2608 0.984 . S
N2596 H2609 0.985 . S
N2597 C2599 1.356 . S
N2597 H2602 0.984 . S
N2597 H2603 0.985 . S
C2598 C2592 1.379 . S
C2598 C2595 1.363 . S
C2598 N2596 1.356 . S
C2599 C2593 1.363 . S
C2599 C2594 1.379 . S
C2599 N2597 1.356 . S
N2600 C2592 1.356 . S
N2600 H2606 0.984 . S
N2600 H2607 0.984 . S
N2601 C2594 1.356 . S
N2601 H2604 0.984 . S
N2601 H2605 0.985 . S
H2602 N2597 0.984 . S
H2603 N2597 0.985 . S
H2604 N2601 0.984 . S
H2605 N2601 0.985 . S
H2606 N2600 0.984 . S
H2607 N2600 0.984 . S
H2608 N2596 0.984 . S
H2609 N2596 0.985 . S
C2610 C2611 1.363 . S
C2610 C2616 1.379 . S
C2610 N2618 1.356 . S
C2611 C2610 1.363 . S
C2611 C2617 1.363 . S
C2612 C2613 1.363 . S
C2612 C2617 1.379 . S
C2612 N2619 1.367 . S
C2613 C2612 1.363 . S
C2613 C2616 1.363 . S
N2614 C2616 1.356 . S
N2614 H2626 0.984 . S
N2614 H2627 0.985 . S
N2615 C2617 1.356 . S
N2615 H2620 0.984 . S
N2615 H2621 0.985 . S
C2616 C2610 1.379 . S
C2616 C2613 1.363 . S
C2616 N2614 1.356 . S
C2617 C2611 1.363 . S
C2617 C2612 1.379 . S
C2617 N2615 1.356 . S
N2618 C2610 1.356 . S
N2618 H2624 0.984 . S
N2618 H2625 0.984 . S
N2619 C2612 1.367 . S
N2619 H2622 0.976 1_455 S
N2619 H2623 0.974 1_455 S
H2620 N2615 0.984 . S
H2621 N2615 0.985 . S
H2622 N2619 0.976 1_655 S
H2623 N2619 0.974 1_655 S
H2624 N2618 0.984 . S
H2625 N2618 0.984 . S
H2626 N2614 0.984 . S
H2627 N2614 0.985 . S
C2628 C2629 1.363 . S
C2628 C2634 1.379 . S
C2628 N2636 1.356 . S
C2629 C2628 1.363 . S
C2629 C2635 1.363 1_655 S
C2630 C2631 1.363 . S
C2630 C2635 1.379 . S
C2630 N2637 1.356 . S
C2631 C2630 1.363 . S
C2631 C2634 1.363 1_455 S
N2632 C2634 1.356 . S
N2632 H2644 0.984 . S
N2632 H2645 0.985 1_655 S
N2633 C2635 1.356 . S
N2633 H2638 0.984 . S
N2633 H2639 0.985 . S
C2634 C2628 1.379 . S
C2634 C2631 1.363 1_655 S
C2634 N2632 1.356 . S
C2635 C2629 1.363 1_455 S
C2635 C2630 1.379 . S
C2635 N2633 1.356 . S
N2636 C2628 1.356 . S
N2636 H2642 0.984 . S
N2636 H2643 0.984 . S
N2637 C2630 1.356 . S
N2637 H2640 0.984 . S
N2637 H2641 0.985 . S
H2638 N2633 0.984 . S
H2639 N2633 0.985 . S
H2640 N2637 0.984 . S
H2641 N2637 0.985 . S
H2642 N2636 0.984 . S
H2643 N2636 0.984 . S
H2644 N2632 0.984 . S
H2645 N2632 0.985 1_455 S
C2646 C2647 1.363 . S
C2646 C2652 1.379 . S
C2646 N2654 1.356 . S
C2647 C2646 1.363 . S
C2647 C2653 1.363 . S
C2648 C2649 1.363 . S
C2648 C2653 1.379 . S
C2648 N2655 1.356 . S
C2649 C2648 1.363 . S
C2649 C2652 1.363 . S
N2650 C2652 1.356 . S
N2650 H2662 0.984 . S
N2650 H2663 0.985 . S
N2651 C2653 1.356 . S
N2651 H2656 0.984 . S
N2651 H2657 0.985 . S
C2652 C2646 1.379 . S
C2652 C2649 1.363 . S
C2652 N2650 1.356 . S
C2653 C2647 1.363 . S
C2653 C2648 1.379 . S
C2653 N2651 1.356 . S
N2654 C2646 1.356 . S
N2654 H2660 0.984 . S
N2654 H2661 0.984 . S
N2655 C2648 1.356 . S
N2655 H2658 0.984 . S
N2655 H2659 0.985 . S
H2656 N2651 0.984 . S
H2657 N2651 0.985 . S
H2658 N2655 0.984 . S
H2659 N2655 0.985 . S
H2660 N2654 0.984 . S
H2661 N2654 0.984 . S
H2662 N2650 0.984 . S
H2663 N2650 0.985 . S
C2664 C2665 1.363 . S
C2664 C2670 1.379 . S
C2664 N2672 1.356 . S
C2665 C2664 1.363 . S
C2665 C2671 1.363 . S
C2666 C2667 1.363 . S
C2666 C2671 1.379 . S
C2666 N2673 1.356 . S
C2667 C2666 1.363 . S
C2667 C2670 1.363 . S
N2668 C2670 1.356 . S
N2668 H2680 0.984 . S
N2668 H2681 0.985 . S
N2669 C2671 1.356 . S
N2669 H2674 0.984 . S
N2669 H2675 0.985 . S
C2670 C2664 1.379 . S
C2670 C2667 1.363 . S
C2670 N2668 1.356 . S
C2671 C2665 1.363 . S
C2671 C2666 1.379 . S
C2671 N2669 1.356 . S
N2672 C2664 1.356 . S
N2672 H2678 0.984 . S
N2672 H2679 0.984 . S
N2673 C2666 1.356 . S
N2673 H2676 0.984 . S
N2673 H2677 0.985 . S
H2674 N2669 0.984 . S
H2675 N2669 0.985 . S
H2676 N2673 0.984 . S
H2677 N2673 0.985 . S
H2678 N2672 0.984 . S
H2679 N2672 0.984 . S
H2680 N2668 0.984 . S
H2681 N2668 0.985 . S
C2682 C2683 1.363 . S
C2682 C2688 1.379 . S
C2682 N2690 1.356 . S
C2683 C2682 1.363 . S
C2683 C2689 1.363 . S
C2684 C2685 1.363 . S
C2684 C2689 1.379 . S
C2684 N2691 1.356 . S
C2685 C2684 1.363 . S
C2685 C2688 1.363 . S
N2686 C2688 1.356 . S
N2686 H2698 0.984 . S
N2686 H2699 0.985 . S
N2687 C2689 1.356 1_554 S
N2687 H2692 0.984 . S
N2687 H2693 0.985 . S
C2688 C2682 1.379 . S
C2688 C2685 1.363 . S
C2688 N2686 1.356 . S
C2689 C2683 1.363 . S
C2689 C2684 1.379 . S
C2689 N2687 1.356 1_556 S
N2690 C2682 1.356 . S
N2690 H2696 0.984 . S
N2690 H2697 0.984 . S
N2691 C2684 1.356 . S
N2691 H2694 0.984 . S
N2691 H2695 0.985 1_556 S
H2692 N2687 0.984 . S
H2693 N2687 0.985 . S
H2694 N2691 0.984 . S
H2695 N2691 0.985 1_554 S
H2696 N2690 0.984 . S
H2697 N2690 0.984 . S
H2698 N2686 0.984 . S
H2699 N2686 0.985 . S
C2700 C2701 1.363 . S
C2700 C2706 1.379 . S
C2700 N2708 1.356 . S
C2701 C2700 1.363 . S
C2701 C2707 1.363 . S
C2702 C2703 1.363 . S
C2702 C2707 1.379 . S
C2702 N2709 1.356 . S
C2703 C2702 1.363 . S
C2703 C2706 1.363 . S
N2704 C2706 1.356 . S
N2704 H2716 0.984 . S
N2704 H2717 0.985 . S
N2705 C2707 1.356 . S
N2705 H2710 0.984 . S
N2705 H2711 0.985 . S
C2706 C2700 1.379 . S
C2706 C2703 1.363 . S
C2706 N2704 1.356 . S
C2707 C2701 1.363 . S
C2707 C2702 1.379 . S
C2707 N2705 1.356 . S
N2708 C2700 1.356 . S
N2708 H2714 0.984 . S
N2708 H2715 0.984 . S
N2709 C2702 1.356 . S
N2709 H2712 0.984 . S
N2709 H2713 0.985 . S
H2710 N2705 0.984 . S
H2711 N2705 0.985 . S
H2712 N2709 0.984 . S
H2713 N2709 0.985 . S
H2714 N2708 0.984 . S
H2715 N2708 0.984 . S
H2716 N2704 0.984 . S
H2717 N2704 0.985 . S
C2718 C2719 1.363 . S
C2718 C2724 1.379 . S
C2718 N2726 1.356 . S
C2719 C2718 1.363 . S
C2719 C2725 1.363 . S
C2720 C2721 1.363 . S
C2720 C2725 1.379 . S
C2720 N2727 1.356 . S
C2721 C2720 1.363 . S
C2721 C2724 1.363 . S
N2722 C2724 1.356 . S
N2722 H2734 0.984 . S
N2722 H2735 0.985 . S
N2723 C2725 1.356 . S
N2723 H2728 0.984 . S
N2723 H2729 0.985 . S
C2724 C2718 1.379 . S
C2724 C2721 1.363 . S
C2724 N2722 1.356 . S
C2725 C2719 1.363 . S
C2725 C2720 1.379 . S
C2725 N2723 1.356 . S
N2726 C2718 1.356 . S
N2726 H2732 0.984 . S
N2726 H2733 0.984 . S
N2727 C2720 1.356 . S
N2727 H2730 0.984 . S
N2727 H2731 0.985 . S
H2728 N2723 0.984 . S
H2729 N2723 0.985 . S
H2730 N2727 0.984 . S
H2731 N2727 0.985 . S
H2732 N2726 0.984 . S
H2733 N2726 0.984 . S
H2734 N2722 0.984 . S
H2735 N2722 0.985 . S
C2736 C2737 1.363 . S
C2736 C2742 1.379 . S
C2736 N2744 1.356 . S
C2737 C2736 1.363 . S
C2737 C2743 1.363 . S
C2738 C2739 1.363 . S
C2738 C2743 1.379 . S
C2738 N2745 1.356 . S
C2739 C2738 1.363 . S
C2739 C2742 1.363 . S
N2740 C2742 1.356 . S
N2740 H2752 0.984 . S
N2740 H2753 0.985 . S
N2741 C2743 1.356 . S
N2741 H2746 0.984 . S
N2741 H2747 0.985 . S
C2742 C2736 1.379 . S
C2742 C2739 1.363 . S
C2742 N2740 1.356 . S
C2743 C2737 1.363 . S
C2743 C2738 1.379 . S
C2743 N2741 1.356 . S
N2744 C2736 1.356 . S
N2744 H2750 0.984 . S
N2744 H2751 0.984 . S
N2745 C2738 1.356 . S
N2745 H2748 0.984 . S
N2745 H2749 0.985 . S
H2746 N2741 0.984 . S
H2747 N2741 0.985 . S
H2748 N2745 0.984 . S
H2749 N2745 0.985 . S
H2750 N2744 0.984 . S
H2751 N2744 0.984 . S
H2752 N2740 0.984 . S
H2753 N2740 0.985 . S
C2754 C2755 1.363 . S
C2754 C2760 1.379 . S
C2754 N2762 1.356 . S
C2755 C2754 1.363 . S
C2755 C2761 1.363 . S
C2756 C2757 1.363 . S
C2756 C2761 1.379 . S
C2756 N2763 1.356 . S
C2757 C2756 1.363 . S
C2757 C2760 1.363 . S
N2758 C2760 1.356 . S
N2758 H2770 0.984 . S
N2758 H2771 0.985 . S
N2759 C2761 1.356 . S
N2759 H2764 0.984 . S
N2759 H2765 0.985 . S
C2760 C2754 1.379 . S
C2760 C2757 1.363 . S
C2760 N2758 1.356 . S
C2761 C2755 1.363 . S
C2761 C2756 1.379 . S
C2761 N2759 1.356 . S
N2762 C2754 1.356 . S
N2762 H2768 0.984 . S
N2762 H2769 0.984 . S
N2763 C2756 1.356 . S
N2763 H2766 0.984 . S
N2763 H2767 0.985 . S
H2764 N2759 0.984 . S
H2765 N2759 0.985 . S
H2766 N2763 0.984 . S
H2767 N2763 0.985 . S
H2768 N2762 0.984 . S
H2769 N2762 0.984 . S
H2770 N2758 0.984 . S
H2771 N2758 0.985 . S
C2772 C2773 1.363 . S
C2772 C2778 1.379 . S
C2772 N2780 1.356 . S
C2773 C2772 1.363 . S
C2773 C2779 1.363 . S
C2774 C2775 1.363 . S
C2774 C2779 1.379 . S
C2774 N2781 1.356 . S
C2775 C2774 1.363 . S
C2775 C2778 1.363 . S
N2776 C2778 1.356 . S
N2776 H2788 0.984 . S
N2776 H2789 0.985 . S
N2777 C2779 1.356 . S
N2777 H2782 0.984 . S
N2777 H2783 0.985 . S
C2778 C2772 1.379 . S
C2778 C2775 1.363 . S
C2778 N2776 1.356 . S
C2779 C2773 1.363 . S
C2779 C2774 1.379 . S
C2779 N2777 1.356 . S
N2780 C2772 1.356 . S
N2780 H2786 0.984 . S
N2780 H2787 0.984 . S
N2781 C2774 1.356 . S
N2781 H2784 0.984 . S
N2781 H2785 0.985 . S
H2782 N2777 0.984 . S
H2783 N2777 0.985 . S
H2784 N2781 0.984 . S
H2785 N2781 0.985 . S
H2786 N2780 0.984 . S
H2787 N2780 0.984 . S
H2788 N2776 0.984 . S
H2789 N2776 0.985 . S
C2790 C2791 1.363 . S
C2790 C2796 1.379 . S
C2790 N2798 1.356 . S
C2791 C2790 1.363 . S
C2791 C2797 1.363 . S
C2792 C2793 1.363 . S
C2792 C2797 1.379 . S
C2792 N2799 1.356 . S
C2793 C2792 1.363 . S
C2793 C2796 1.363 . S
N2794 C2796 1.356 . S
N2794 H2806 0.984 . S
N2794 H2807 0.985 . S
N2795 C2797 1.356 . S
N2795 H2800 0.984 . S
N2795 H2801 0.985 . S
C2796 C2790 1.379 . S
C2796 C2793 1.363 . S
C2796 N2794 1.356 . S
C2797 C2791 1.363 . S
C2797 C2792 1.379 . S
C2797 N2795 1.356 . S
N2798 C2790 1.356 . S
N2798 H2804 0.984 . S
N2798 H2805 0.984 . S
N2799 C2792 1.356 . S
N2799 H2802 0.984 . S
N2799 H2803 0.985 . S
H2800 N2795 0.984 . S
H2801 N2795 0.985 . S
H2802 N2799 0.984 . S
H2803 N2799 0.985 . S
H2804 N2798 0.984 . S
H2805 N2798 0.984 . S
H2806 N2794 0.984 . S
H2807 N2794 0.985 . S
C2808 C2809 1.363 . S
C2808 C2814 1.379 . S
C2808 N2816 1.356 . S
C2809 C2808 1.363 . S
C2809 C2815 1.363 . S
C2810 C2811 1.363 . S
C2810 C2815 1.379 . S
C2810 N2817 1.356 . S
C2811 C2810 1.363 . S
C2811 C2814 1.363 . S
N2812 C2814 1.356 . S
N2812 H2824 0.984 . S
N2812 H2825 0.985 . S
N2813 C2815 1.356 . S
N2813 H2818 0.984 . S
N2813 H2819 0.985 . S
C2814 C2808 1.379 . S
C2814 C2811 1.363 . S
C2814 N2812 1.356 . S
C2815 C2809 1.363 . S
C2815 C2810 1.379 . S
C2815 N2813 1.356 . S
N2816 C2808 1.356 . S
N2816 H2822 0.984 . S
N2816 H2823 0.984 . S
N2817 C2810 1.356 . S
N2817 H2820 0.984 . S
N2817 H2821 0.985 . S
H2818 N2813 0.984 . S
H2819 N2813 0.985 . S
H2820 N2817 0.984 . S
H2821 N2817 0.985 . S
H2822 N2816 0.984 . S
H2823 N2816 0.984 . S
H2824 N2812 0.984 . S
H2825 N2812 0.985 . S
C2826 C2827 1.363 . S
C2826 C2832 1.379 . S
C2826 N2834 1.356 . S
C2827 C2826 1.363 . S
C2827 C2833 1.363 . S
C2828 C2829 1.363 . S
C2828 C2833 1.379 . S
C2828 N2835 1.356 . S
C2829 C2828 1.363 . S
C2829 C2832 1.363 . S
N2830 C2832 1.356 . S
N2830 H2842 0.984 . S
N2830 H2843 0.985 . S
N2831 C2833 1.356 . S
N2831 H2836 0.984 . S
N2831 H2837 0.985 . S
C2832 C2826 1.379 . S
C2832 C2829 1.363 . S
C2832 N2830 1.356 . S
C2833 C2827 1.363 . S
C2833 C2828 1.379 . S
C2833 N2831 1.356 . S
N2834 C2826 1.356 . S
N2834 H2840 0.984 . S
N2834 H2841 0.984 . S
N2835 C2828 1.356 . S
N2835 H2838 0.984 . S
N2835 H2839 0.985 . S
H2836 N2831 0.984 . S
H2837 N2831 0.985 . S
H2838 N2835 0.984 . S
H2839 N2835 0.985 . S
H2840 N2834 0.984 . S
H2841 N2834 0.984 . S
H2842 N2830 0.984 . S
H2843 N2830 0.985 . S
C2844 C2845 1.363 . S
C2844 C2850 1.379 . S
C2844 N2852 1.356 . S
C2845 C2844 1.363 . S
C2845 C2851 1.363 . S
C2846 C2847 1.363 . S
C2846 C2851 1.379 . S
C2846 N2853 1.356 . S
C2847 C2846 1.363 . S
C2847 C2850 1.363 . S
N2848 C2850 1.356 . S
N2848 H2860 0.984 . S
N2848 H2861 0.985 . S
N2849 C2851 1.356 . S
N2849 H2854 0.984 . S
N2849 H2855 0.985 . S
C2850 C2844 1.379 . S
C2850 C2847 1.363 . S
C2850 N2848 1.356 . S
C2851 C2845 1.363 . S
C2851 C2846 1.379 . S
C2851 N2849 1.356 . S
N2852 C2844 1.356 . S
N2852 H2858 0.984 . S
N2852 H2859 0.984 . S
N2853 C2846 1.356 . S
N2853 H2856 0.984 . S
N2853 H2857 0.985 . S
H2854 N2849 0.984 . S
H2855 N2849 0.985 . S
H2856 N2853 0.984 . S
H2857 N2853 0.985 . S
H2858 N2852 0.984 . S
H2859 N2852 0.984 . S
H2860 N2848 0.984 . S
H2861 N2848 0.985 . S
C2862 C2863 1.363 . S
C2862 C2868 1.379 1_565 S
C2862 N2870 1.356 . S
C2863 C2862 1.363 . S
C2863 C2869 1.363 1_554 S
C2864 C2865 1.363 1_556 S
C2864 C2869 1.379 1_545 S
C2864 N2871 1.356 . S
C2865 C2864 1.363 1_554 S
C2865 C2868 1.363 . S
N2866 C2868 1.356 . S
N2866 H2878 0.984 . S
N2866 H2879 0.985 . S
N2867 C2869 1.356 . S
N2867 H2872 0.984 . S
N2867 H2873 0.985 . S
C2868 C2862 1.379 1_545 S
C2868 C2865 1.363 . S
C2868 N2866 1.356 . S
C2869 C2863 1.363 1_556 S
C2869 C2864 1.379 1_565 S
C2869 N2867 1.356 . S
N2870 C2862 1.356 . S
N2870 H2876 0.984 . S
N2870 H2877 0.984 . S
N2871 C2864 1.356 . S
N2871 H2874 0.984 . S
N2871 H2875 0.985 . S
H2872 N2867 0.984 . S
H2873 N2867 0.985 . S
H2874 N2871 0.984 . S
H2875 N2871 0.985 . S
H2876 N2870 0.984 . S
H2877 N2870 0.984 . S
H2878 N2866 0.984 . S
H2879 N2866 0.985 . S
C2880 C2881 1.363 . S
C2880 C2886 1.379 . S
C2880 N2888 1.356 . S
C2881 C2880 1.363 . S
C2881 C2887 1.363 . S
C2882 C2883 1.363 . S
C2882 C2887 1.379 . S
C2882 N2889 1.356 . S
C2883 C2882 1.363 . S
C2883 C2886 1.363 . S
N2884 C2886 1.356 . S
N2884 H2896 0.984 . S
N2884 H2897 0.985 . S
N2885 C2887 1.356 . S
N2885 H2890 0.984 . S
N2885 H2891 0.985 . S
C2886 C2880 1.379 . S
C2886 C2883 1.363 . S
C2886 N2884 1.356 . S
C2887 C2881 1.363 . S
C2887 C2882 1.379 . S
C2887 N2885 1.356 . S
N2888 C2880 1.356 . S
N2888 H2894 0.984 . S
N2888 H2895 0.984 . S
N2889 C2882 1.356 . S
N2889 H2892 0.984 . S
N2889 H2893 0.985 . S
H2890 N2885 0.984 . S
H2891 N2885 0.985 . S
H2892 N2889 0.984 . S
H2893 N2889 0.985 . S
H2894 N2888 0.984 . S
H2895 N2888 0.984 . S
H2896 N2884 0.984 . S
H2897 N2884 0.985 . S
C2898 C2899 1.363 . S
C2898 C2904 1.379 . S
C2898 N2906 1.356 1_554 S
C2899 C2898 1.363 . S
C2899 C2905 1.363 . S
C2900 C2901 1.363 . S
C2900 C2905 1.379 . S
C2900 N2907 1.356 . S
C2901 C2900 1.363 . S
C2901 C2904 1.363 . S
N2902 C2904 1.356 . S
N2902 H2914 0.984 1_554 S
N2902 H2915 0.985 . S
N2903 C2905 1.356 . S
N2903 H2908 0.984 . S
N2903 H2909 0.985 . S
C2904 C2898 1.379 . S
C2904 C2901 1.363 . S
C2904 N2902 1.356 . S
C2905 C2899 1.363 . S
C2905 C2900 1.379 . S
C2905 N2903 1.356 . S
N2906 C2898 1.356 1_556 S
N2906 H2912 0.984 . S
N2906 H2913 0.984 . S
N2907 C2900 1.356 . S
N2907 H2910 0.984 . S
N2907 H2911 0.985 . S
H2908 N2903 0.984 . S
H2909 N2903 0.985 . S
H2910 N2907 0.984 . S
H2911 N2907 0.985 . S
H2912 N2906 0.984 . S
H2913 N2906 0.984 . S
H2914 N2902 0.984 1_556 S
H2915 N2902 0.985 . S
C2916 C2917 1.363 . S
C2916 C2922 1.379 . S
C2916 N2924 1.356 . S
C2917 C2916 1.363 . S
C2917 C2923 1.363 . S
C2918 C2919 1.363 . S
C2918 C2923 1.379 . S
C2918 N2925 1.356 . S
C2919 C2918 1.363 . S
C2919 C2922 1.363 . S
N2920 C2922 1.356 . S
N2920 H2932 0.984 . S
N2920 H2933 0.985 . S
N2921 C2923 1.356 . S
N2921 H2926 0.984 . S
N2921 H2927 0.985 . S
C2922 C2916 1.379 . S
C2922 C2919 1.363 . S
C2922 N2920 1.356 . S
C2923 C2917 1.363 . S
C2923 C2918 1.379 . S
C2923 N2921 1.356 . S
N2924 C2916 1.356 . S
N2924 H2930 0.984 . S
N2924 H2931 0.984 . S
N2925 C2918 1.356 . S
N2925 H2928 0.984 . S
N2925 H2929 0.985 . S
H2926 N2921 0.984 . S
H2927 N2921 0.985 . S
H2928 N2925 0.984 . S
H2929 N2925 0.985 . S
H2930 N2924 0.984 . S
H2931 N2924 0.984 . S
H2932 N2920 0.984 . S
H2933 N2920 0.985 . S
C2934 C2935 1.363 . S
C2934 C2940 1.379 . S
C2934 N2942 1.356 . S
C2935 C2934 1.363 . S
C2935 C2941 1.363 . S
C2936 C2937 1.363 . S
C2936 C2941 1.379 . S
C2936 N2943 1.356 . S
C2937 C2936 1.363 . S
C2937 C2940 1.363 . S
N2938 C2940 1.356 . S
N2938 H2950 0.984 . S
N2938 H2951 0.985 . S
N2939 C2941 1.356 . S
N2939 H2944 0.984 . S
N2939 H2945 0.985 . S
C2940 C2934 1.379 . S
C2940 C2937 1.363 . S
C2940 N2938 1.356 . S
C2941 C2935 1.363 . S
C2941 C2936 1.379 . S
C2941 N2939 1.356 . S
N2942 C2934 1.356 . S
N2942 H2948 0.984 . S
N2942 H2949 0.984 . S
N2943 C2936 1.356 . S
N2943 H2946 0.984 . S
N2943 H2947 0.985 . S
H2944 N2939 0.984 . S
H2945 N2939 0.985 . S
H2946 N2943 0.984 . S
H2947 N2943 0.985 . S
H2948 N2942 0.984 . S
H2949 N2942 0.984 . S
H2950 N2938 0.984 . S
H2951 N2938 0.985 . S
C2952 C2953 1.363 . S
C2952 C2958 1.379 . S
C2952 N2960 1.356 . S
C2953 C2952 1.363 . S
C2953 C2959 1.363 . S
C2954 C2955 1.363 . S
C2954 C2959 1.379 . S
C2954 N2961 1.356 . S
C2955 C2954 1.363 . S
C2955 C2958 1.363 . S
N2956 C2958 1.356 . S
N2956 H2968 0.984 . S
N2956 H2969 0.985 . S
N2957 C2959 1.356 . S
N2957 H2962 0.984 . S
N2957 H2963 0.985 . S
C2958 C2952 1.379 . S
C2958 C2955 1.363 . S
C2958 N2956 1.356 . S
C2959 C2953 1.363 . S
C2959 C2954 1.379 . S
C2959 N2957 1.356 . S
N2960 C2952 1.356 . S
N2960 H2966 0.984 . S
N2960 H2967 0.984 . S
N2961 C2954 1.356 . S
N2961 H2964 0.984 . S
N2961 H2965 0.985 . S
H2962 N2957 0.984 . S
H2963 N2957 0.985 . S
H2964 N2961 0.984 . S
H2965 N2961 0.985 . S
H2966 N2960 0.984 . S
H2967 N2960 0.984 . S
H2968 N2956 0.984 . S
H2969 N2956 0.985 . S
C2970 C2971 1.363 . S
C2970 C2976 1.379 . S
C2970 N2978 1.356 . S
C2971 C2970 1.363 . S
C2971 C2977 1.363 . S
C2972 C2973 1.363 . S
C2972 C2977 1.379 . S
C2972 N2979 1.356 . S
C2973 C2972 1.363 . S
C2973 C2976 1.363 . S
N2974 C2976 1.356 . S
N2974 H2986 0.984 . S
N2974 H2987 0.985 . S
N2975 C2977 1.356 . S
N2975 H2980 0.984 . S
N2975 H2981 0.985 . S
C2976 C2970 1.379 . S
C2976 C2973 1.363 . S
C2976 N2974 1.356 . S
C2977 C2971 1.363 . S
C2977 C2972 1.379 . S
C2977 N2975 1.356 . S
N2978 C2970 1.356 . S
N2978 H2984 0.984 . S
N2978 H2985 0.984 . S
N2979 C2972 1.356 . S
N2979 H2982 0.984 . S
N2979 H2983 0.985 . S
H2980 N2975 0.984 . S
H2981 N2975 0.985 . S
H2982 N2979 0.984 . S
H2983 N2979 0.985 . S
H2984 N2978 0.984 . S
H2985 N2978 0.984 . S
H2986 N2974 0.984 . S
H2987 N2974 0.985 . S
C2988 C2989 1.363 . S
C2988 C2994 1.379 . S
C2988 N2996 1.356 . S
C2989 C2988 1.363 . S
C2989 C2995 1.363 . S
C2990 C2991 1.363 . S
C2990 C2995 1.379 . S
C2990 N2997 1.356 . S
C2991 C2990 1.363 . S
C2991 C2994 1.363 . S
N2992 C2994 1.356 . S
N2992 H3004 0.984 1_554 S
N2992 H3005 0.985 . S
N2993 C2995 1.356 . S
N2993 H2998 0.984 . S
N2993 H2999 0.985 . S
C2994 C2988 1.379 . S
C2994 C2991 1.363 . S
C2994 N2992 1.356 . S
C2995 C2989 1.363 . S
C2995 C2990 1.379 . S
C2995 N2993 1.356 . S
N2996 C2988 1.356 . S
N2996 H3002 0.984 . S
N2996 H3003 0.984 . S
N2997 C2990 1.356 . S
N2997 H3000 0.984 . S
N2997 H3001 0.985 . S
H2998 N2993 0.984 . S
H2999 N2993 0.985 . S
H3000 N2997 0.984 . S
H3001 N2997 0.985 . S
H3002 N2996 0.984 . S
H3003 N2996 0.984 . S
H3004 N2992 0.984 1_556 S
H3005 N2992 0.985 . S
C3006 C3007 1.363 . S
C3006 C3012 1.379 . S
C3006 N3014 1.356 . S
C3007 C3006 1.363 . S
C3007 C3013 1.363 . S
C3008 C3009 1.363 . S
C3008 C3013 1.379 . S
C3008 N3015 1.356 . S
C3009 C3008 1.363 . S
C3009 C3012 1.363 . S
N3010 C3012 1.356 . S
N3010 H3022 0.984 . S
N3010 H3023 0.985 . S
N3011 C3013 1.356 . S
N3011 H3016 0.984 . S
N3011 H3017 0.985 . S
C3012 C3006 1.379 . S
C3012 C3009 1.363 . S
C3012 N3010 1.356 . S
C3013 C3007 1.363 . S
C3013 C3008 1.379 . S
C3013 N3011 1.356 . S
N3014 C3006 1.356 . S
N3014 H3020 0.984 . S
N3014 H3021 0.984 . S
N3015 C3008 1.356 . S
N3015 H3018 0.984 . S
N3015 H3019 0.985 . S
H3016 N3011 0.984 . S
H3017 N3011 0.985 . S
H3018 N3015 0.984 . S
H3019 N3015 0.985 . S
H3020 N3014 0.984 . S
H3021 N3014 0.984 . S
H3022 N3010 0.984 . S
H3023 N3010 0.985 . S
C3024 C3025 1.363 . S
C3024 C3030 1.379 . S
C3024 N3032 1.356 . S
C3025 C3024 1.363 . S
C3025 C3031 1.363 . S
C3026 C3027 1.363 . S
C3026 C3031 1.379 . S
C3026 N3033 1.356 1_556 S
C3027 C3026 1.363 . S
C3027 C3030 1.363 . S
N3028 C3030 1.356 . S
N3028 H3040 0.984 . S
N3028 H3041 0.985 . S
N3029 C3031 1.356 . S
N3029 H3034 0.984 . S
N3029 H3035 0.985 . S
C3030 C3024 1.379 . S
C3030 C3027 1.363 . S
C3030 N3028 1.356 . S
C3031 C3025 1.363 . S
C3031 C3026 1.379 . S
C3031 N3029 1.356 . S
N3032 C3024 1.356 . S
N3032 H3038 0.984 . S
N3032 H3039 0.984 . S
N3033 C3026 1.356 1_554 S
N3033 H3036 0.984 . S
N3033 H3037 0.985 . S
H3034 N3029 0.984 . S
H3035 N3029 0.985 . S
H3036 N3033 0.984 . S
H3037 N3033 0.985 . S
H3038 N3032 0.984 . S
H3039 N3032 0.984 . S
H3040 N3028 0.984 . S
H3041 N3028 0.985 . S
C3042 C3043 1.363 . S
C3042 C3048 1.379 . S
C3042 N3050 1.356 . S
C3043 C3042 1.363 . S
C3043 C3049 1.363 . S
C3044 C3045 1.363 . S
C3044 C3049 1.379 . S
C3044 N3051 1.356 . S
C3045 C3044 1.363 . S
C3045 C3048 1.363 . S
N3046 C3048 1.356 . S
N3046 H3058 0.984 . S
N3046 H3059 0.985 . S
N3047 C3049 1.356 . S
N3047 H3052 0.984 . S
N3047 H3053 0.985 . S
C3048 C3042 1.379 . S
C3048 C3045 1.363 . S
C3048 N3046 1.356 . S
C3049 C3043 1.363 . S
C3049 C3044 1.379 . S
C3049 N3047 1.356 . S
N3050 C3042 1.356 . S
N3050 H3056 0.984 . S
N3050 H3057 0.984 . S
N3051 C3044 1.356 . S
N3051 H3054 0.984 . S
N3051 H3055 0.985 . S
H3052 N3047 0.984 . S
H3053 N3047 0.985 . S
H3054 N3051 0.984 . S
H3055 N3051 0.985 . S
H3056 N3050 0.984 . S
H3057 N3050 0.984 . S
H3058 N3046 0.984 . S
H3059 N3046 0.985 . S
C3060 C3061 1.363 . S
C3060 C3066 1.379 . S
C3060 N3068 1.356 . S
C3061 C3060 1.363 . S
C3061 C3067 1.363 . S
C3062 C3063 1.363 . S
C3062 C3067 1.379 . S
C3062 N3069 1.356 . S
C3063 C3062 1.363 . S
C3063 C3066 1.363 . S
N3064 C3066 1.356 . S
N3064 H3076 0.984 . S
N3064 H3077 0.985 . S
N3065 C3067 1.356 . S
N3065 H3070 0.984 . S
N3065 H3071 0.985 . S
C3066 C3060 1.379 . S
C3066 C3063 1.363 . S
C3066 N3064 1.356 . S
C3067 C3061 1.363 . S
C3067 C3062 1.379 . S
C3067 N3065 1.356 . S
N3068 C3060 1.356 . S
N3068 H3074 0.984 . S
N3068 H3075 0.984 . S
N3069 C3062 1.356 . S
N3069 H3072 0.984 . S
N3069 H3073 0.985 . S
H3070 N3065 0.984 . S
H3071 N3065 0.985 . S
H3072 N3069 0.984 . S
H3073 N3069 0.985 . S
H3074 N3068 0.984 . S
H3075 N3068 0.984 . S
H3076 N3064 0.984 . S
H3077 N3064 0.985 . S
C3078 C3079 1.363 . S
C3078 C3084 1.379 . S
C3078 N3086 1.356 . S
C3079 C3078 1.363 . S
C3079 C3085 1.363 . S
C3080 C3081 1.363 . S
C3080 C3085 1.379 . S
C3080 N3087 1.356 . S
C3081 C3080 1.363 . S
C3081 C3084 1.363 . S
N3082 C3084 1.356 . S
N3082 H3094 0.984 . S
N3082 H3095 0.985 . S
N3083 C3085 1.356 . S
N3083 H3088 0.984 . S
N3083 H3089 0.985 . S
C3084 C3078 1.379 . S
C3084 C3081 1.363 . S
C3084 N3082 1.356 . S
C3085 C3079 1.363 . S
C3085 C3080 1.379 . S
C3085 N3083 1.356 . S
N3086 C3078 1.356 . S
N3086 H3092 0.984 . S
N3086 H3093 0.984 . S
N3087 C3080 1.356 . S
N3087 H3090 0.984 . S
N3087 H3091 0.985 . S
H3088 N3083 0.984 . S
H3089 N3083 0.985 . S
H3090 N3087 0.984 . S
H3091 N3087 0.985 . S
H3092 N3086 0.984 . S
H3093 N3086 0.984 . S
H3094 N3082 0.984 . S
H3095 N3082 0.985 . S
C3096 C3097 1.363 . S
C3096 C3102 1.379 . S
C3096 N3104 1.356 . S
C3097 C3096 1.363 . S
C3097 C3103 1.363 . S
C3098 C3099 1.363 . S
C3098 C3103 1.379 . S
C3098 N3105 1.356 . S
C3099 C3098 1.363 . S
C3099 C3102 1.363 . S
N3100 C3102 1.356 . S
N3100 H3112 0.984 . S
N3100 H3113 0.985 . S
N3101 C3103 1.356 . S
N3101 H3106 0.984 . S
N3101 H3107 0.985 . S
C3102 C3096 1.379 . S
C3102 C3099 1.363 . S
C3102 N3100 1.356 . S
C3103 C3097 1.363 . S
C3103 C3098 1.379 . S
C3103 N3101 1.356 . S
N3104 C3096 1.356 . S
N3104 H3110 0.984 . S
N3104 H3111 0.984 . S
N3105 C3098 1.356 . S
N3105 H3108 0.984 . S
N3105 H3109 0.985 . S
H3106 N3101 0.984 . S
H3107 N3101 0.985 . S
H3108 N3105 0.984 . S
H3109 N3105 0.985 . S
H3110 N3104 0.984 . S
H3111 N3104 0.984 . S
H3112 N3100 0.984 . S
H3113 N3100 0.985 . S
C3114 C3115 1.363 . S
C3114 C3120 1.379 . S
C3114 N3122 1.356 . S
C3115 C3114 1.363 . S
C3115 C3121 1.363 . S
C3116 C3117 1.363 . S
C3116 C3121 1.379 . S
C3116 N3123 1.356 . S
C3117 C3116 1.363 . S
C3117 C3120 1.363 . S
N3118 C3120 1.356 . S
N3118 H3130 0.984 . S
N3118 H3131 0.985 . S
N3119 C3121 1.356 . S
N3119 H3124 0.984 . S
N3119 H3125 0.985 . S
C3120 C3114 1.379 . S
C3120 C3117 1.363 . S
C3120 N3118 1.356 . S
C3121 C3115 1.363 . S
C3121 C3116 1.379 . S
C3121 N3119 1.356 . S
N3122 C3114 1.356 . S
N3122 H3128 0.984 . S
N3122 H3129 0.984 . S
N3123 C3116 1.356 . S
N3123 H3126 0.984 . S
N3123 H3127 0.985 . S
H3124 N3119 0.984 . S
H3125 N3119 0.985 . S
H3126 N3123 0.984 . S
H3127 N3123 0.985 . S
H3128 N3122 0.984 . S
H3129 N3122 0.984 . S
H3130 N3118 0.984 . S
H3131 N3118 0.985 . S
C3132 C3133 1.363 . S
C3132 C3138 1.379 1_655 S
C3132 N3140 1.356 . S
C3133 C3132 1.363 . S
C3133 C3139 1.363 . S
C3134 C3135 1.363 1_655 S
C3134 C3139 1.379 . S
C3134 N3141 1.356 . S
C3135 C3134 1.363 1_455 S
C3135 C3138 1.363 . S
N3136 C3138 1.356 . S
N3136 H3148 0.984 . S
N3136 H3149 0.985 . S
N3137 C3139 1.356 . S
N3137 H3142 0.984 . S
N3137 H3143 0.985 . S
C3138 C3132 1.379 1_455 S
C3138 C3135 1.363 . S
C3138 N3136 1.356 . S
C3139 C3133 1.363 . S
C3139 C3134 1.379 . S
C3139 N3137 1.356 . S
N3140 C3132 1.356 . S
N3140 H3146 0.992 . S
N3140 H3147 0.984 . S
N3141 C3134 1.356 . S
N3141 H3144 0.984 1_655 S
N3141 H3145 0.985 . S
H3142 N3137 0.984 . S
H3143 N3137 0.985 . S
H3144 N3141 0.984 1_455 S
H3145 N3141 0.985 . S
H3146 N3140 0.992 . S
H3147 N3140 0.984 . S
H3148 N3136 0.984 . S
H3149 N3136 0.985 . S
C3150 C3151 1.363 . S
C3150 C3156 1.379 . S
C3150 N3158 1.356 . S
C3151 C3150 1.363 . S
C3151 C3157 1.363 . S
C3152 C3153 1.363 . S
C3152 C3157 1.379 . S
C3152 N3159 1.356 . S
C3153 C3152 1.363 . S
C3153 C3156 1.363 . S
N3154 C3156 1.356 . S
N3154 H3166 0.984 . S
N3154 H3167 0.985 . S
N3155 C3157 1.356 . S
N3155 H3160 0.984 . S
N3155 H3161 0.985 . S
C3156 C3150 1.379 . S
C3156 C3153 1.363 . S
C3156 N3154 1.356 . S
C3157 C3151 1.363 . S
C3157 C3152 1.379 . S
C3157 N3155 1.356 . S
N3158 C3150 1.356 . S
N3158 H3164 0.984 . S
N3158 H3165 0.984 . S
N3159 C3152 1.356 . S
N3159 H3162 0.984 . S
N3159 H3163 0.985 . S
H3160 N3155 0.984 . S
H3161 N3155 0.985 . S
H3162 N3159 0.984 . S
H3163 N3159 0.985 . S
H3164 N3158 0.984 . S
H3165 N3158 0.984 . S
H3166 N3154 0.984 . S
H3167 N3154 0.985 . S
C3168 C3169 1.363 . S
C3168 C3174 1.379 . S
C3168 N3176 1.356 . S
C3169 C3168 1.363 . S
C3169 C3175 1.363 . S
C3170 C3171 1.363 . S
C3170 C3175 1.379 . S
C3170 N3177 1.356 . S
C3171 C3170 1.363 . S
C3171 C3174 1.363 . S
N3172 C3174 1.356 . S
N3172 H3184 0.984 . S
N3172 H3185 0.985 . S
N3173 C3175 1.356 . S
N3173 H3178 0.984 . S
N3173 H3179 0.985 . S
C3174 C3168 1.379 . S
C3174 C3171 1.363 . S
C3174 N3172 1.356 . S
C3175 C3169 1.363 . S
C3175 C3170 1.379 . S
C3175 N3173 1.356 . S
N3176 C3168 1.356 . S
N3176 H3182 0.984 . S
N3176 H3183 0.984 . S
N3177 C3170 1.356 . S
N3177 H3180 0.984 . S
N3177 H3181 0.985 . S
H3178 N3173 0.984 . S
H3179 N3173 0.985 . S
H3180 N3177 0.984 . S
H3181 N3177 0.985 . S
H3182 N3176 0.984 . S
H3183 N3176 0.984 . S
H3184 N3172 0.984 . S
H3185 N3172 0.985 . S
C3186 C3187 1.363 . S
C3186 C3192 1.379 . S
C3186 N3194 1.356 . S
C3187 C3186 1.363 . S
C3187 C3193 1.363 . S
C3188 C3189 1.363 . S
C3188 C3193 1.379 . S
C3188 N3195 1.356 . S
C3189 C3188 1.363 . S
C3189 C3192 1.363 . S
N3190 C3192 1.356 . S
N3190 H3202 0.984 . S
N3190 H3203 0.985 . S
N3191 C3193 1.356 . S
N3191 H3196 0.984 . S
N3191 H3197 0.985 . S
C3192 C3186 1.379 . S
C3192 C3189 1.363 . S
C3192 N3190 1.356 . S
C3193 C3187 1.363 . S
C3193 C3188 1.379 . S
C3193 N3191 1.356 . S
N3194 C3186 1.356 . S
N3194 H3200 0.984 . S
N3194 H3201 0.984 . S
N3195 C3188 1.356 . S
N3195 H3198 0.984 . S
N3195 H3199 0.985 . S
H3196 N3191 0.984 . S
H3197 N3191 0.985 . S
H3198 N3195 0.984 . S
H3199 N3195 0.985 . S
H3200 N3194 0.984 . S
H3201 N3194 0.984 . S
H3202 N3190 0.984 . S
H3203 N3190 0.985 . S
C3204 C3205 1.363 . S
C3204 C3210 1.379 . S
C3204 N3212 1.356 . S
C3205 C3204 1.363 . S
C3205 C3211 1.363 . S
C3206 C3207 1.363 . S
C3206 C3211 1.379 . S
C3206 N3213 1.356 . S
C3207 C3206 1.363 . S
C3207 C3210 1.363 . S
N3208 C3210 1.356 . S
N3208 H3220 0.984 1_655 S
N3208 H3221 0.985 1_655 S
N3209 C3211 1.356 . S
N3209 H3214 0.984 . S
N3209 H3215 0.985 . S
C3210 C3204 1.379 . S
C3210 C3207 1.363 . S
C3210 N3208 1.356 . S
C3211 C3205 1.363 . S
C3211 C3206 1.379 . S
C3211 N3209 1.356 . S
N3212 C3204 1.356 . S
N3212 H3218 0.984 . S
N3212 H3219 0.984 . S
N3213 C3206 1.356 . S
N3213 H3216 0.984 . S
N3213 H3217 0.985 . S
H3214 N3209 0.984 . S
H3215 N3209 0.985 . S
H3216 N3213 0.984 . S
H3217 N3213 0.985 . S
H3218 N3212 0.984 . S
H3219 N3212 0.984 . S
H3220 N3208 0.984 1_455 S
H3221 N3208 0.985 1_455 S
C3222 C3223 1.363 . S
C3222 C3228 1.379 . S
C3222 N3230 1.356 . S
C3223 C3222 1.363 . S
C3223 C3229 1.363 . S
C3224 C3225 1.363 . S
C3224 C3229 1.379 . S
C3224 N3231 1.356 . S
C3225 C3224 1.363 . S
C3225 C3228 1.363 . S
N3226 C3228 1.356 . S
N3226 H3238 0.984 . S
N3226 H3239 0.985 . S
N3227 C3229 1.356 . S
N3227 H3232 0.984 . S
N3227 H3233 0.985 . S
C3228 C3222 1.379 . S
C3228 C3225 1.363 . S
C3228 N3226 1.356 . S
C3229 C3223 1.363 . S
C3229 C3224 1.379 . S
C3229 N3227 1.356 . S
N3230 C3222 1.356 . S
N3230 H3236 0.984 . S
N3230 H3237 0.984 . S
N3231 C3224 1.356 . S
N3231 H3234 0.984 . S
N3231 H3235 0.985 . S
H3232 N3227 0.984 . S
H3233 N3227 0.985 . S
H3234 N3231 0.984 . S
H3235 N3231 0.985 . S
H3236 N3230 0.984 . S
H3237 N3230 0.984 . S
H3238 N3226 0.984 . S
H3239 N3226 0.985 . S
C3240 C3241 1.363 . S
C3240 C3246 1.379 . S
C3240 N3248 1.356 . S
C3241 C3240 1.363 . S
C3241 C3247 1.363 . S
C3242 C3243 1.363 . S
C3242 C3247 1.379 . S
C3242 N3249 1.356 . S
C3243 C3242 1.363 . S
C3243 C3246 1.363 . S
N3244 C3246 1.356 . S
N3244 H3256 0.984 . S
N3244 H3257 0.985 . S
N3245 C3247 1.356 . S
N3245 H3250 0.984 . S
N3245 H3251 0.985 . S
C3246 C3240 1.379 . S
C3246 C3243 1.363 . S
C3246 N3244 1.356 . S
C3247 C3241 1.363 . S
C3247 C3242 1.379 . S
C3247 N3245 1.356 . S
N3248 C3240 1.356 . S
N3248 H3254 0.984 . S
N3248 H3255 0.984 . S
N3249 C3242 1.356 . S
N3249 H3252 0.984 . S
N3249 H3253 0.985 . S
H3250 N3245 0.984 . S
H3251 N3245 0.985 . S
H3252 N3249 0.984 . S
H3253 N3249 0.985 . S
H3254 N3248 0.984 . S
H3255 N3248 0.984 . S
H3256 N3244 0.984 . S
H3257 N3244 0.985 . S
C3258 C3259 1.363 . S
C3258 C3264 1.379 . S
C3258 N3266 1.356 . S
C3259 C3258 1.363 . S
C3259 C3265 1.363 . S
C3260 C3261 1.363 . S
C3260 C3265 1.379 . S
C3260 N3267 1.356 1_655 S
C3261 C3260 1.363 . S
C3261 C3264 1.363 . S
N3262 C3264 1.356 1_545 S
N3262 H3274 0.984 . S
N3262 H3275 0.985 1_655 S
N3263 C3265 1.356 . S
N3263 H3268 0.984 . S
N3263 H3269 0.985 . S
C3264 C3258 1.379 . S
C3264 C3261 1.363 . S
C3264 N3262 1.356 1_565 S
C3265 C3259 1.363 . S
C3265 C3260 1.379 . S
C3265 N3263 1.356 . S
N3266 C3258 1.356 . S
N3266 H3272 0.984 . S
N3266 H3273 0.984 . S
N3267 C3260 1.356 1_455 S
N3267 H3270 0.984 . S
N3267 H3271 0.985 . S
H3268 N3263 0.984 . S
H3269 N3263 0.985 . S
H3270 N3267 0.984 . S
H3271 N3267 0.985 . S
H3272 N3266 0.984 . S
H3273 N3266 0.984 . S
H3274 N3262 0.984 . S
H3275 N3262 0.985 1_455 S
C3276 C3277 1.363 . S
C3276 C3282 1.379 . S
C3276 N3284 1.356 . S
C3277 C3276 1.363 . S
C3277 C3283 1.363 . S
C3278 C3279 1.363 . S
C3278 C3283 1.379 . S
C3278 N3285 1.356 . S
C3279 C3278 1.363 . S
C3279 C3282 1.363 . S
N3280 C3282 1.356 . S
N3280 H3292 0.984 . S
N3280 H3293 0.985 . S
N3281 C3283 1.356 . S
N3281 H3286 0.984 . S
N3281 H3287 0.985 . S
C3282 C3276 1.379 . S
C3282 C3279 1.363 . S
C3282 N3280 1.356 . S
C3283 C3277 1.363 . S
C3283 C3278 1.379 . S
C3283 N3281 1.356 . S
N3284 C3276 1.356 . S
N3284 H3290 0.984 . S
N3284 H3291 0.984 . S
N3285 C3278 1.356 . S
N3285 H3288 0.984 . S
N3285 H3289 0.985 . S
H3286 N3281 0.984 . S
H3287 N3281 0.985 . S
H3288 N3285 0.984 . S
H3289 N3285 0.985 . S
H3290 N3284 0.984 . S
H3291 N3284 0.984 . S
H3292 N3280 0.984 . S
H3293 N3280 0.985 . S
C3294 C3295 1.363 . S
C3294 C3300 1.379 . S
C3294 N3302 1.356 1_554 S
C3295 C3294 1.363 . S
C3295 C3301 1.363 . S
C3296 C3297 1.363 . S
C3296 C3301 1.379 . S
C3296 N3303 1.356 . S
C3297 C3296 1.363 . S
C3297 C3300 1.363 . S
N3298 C3300 1.356 1_556 S
N3298 H3310 0.984 . S
N3298 H3311 0.985 . S
N3299 C3301 1.356 . S
N3299 H3304 0.984 . S
N3299 H3305 0.985 . S
C3300 C3294 1.379 . S
C3300 C3297 1.363 . S
C3300 N3298 1.356 1_554 S
C3301 C3295 1.363 . S
C3301 C3296 1.379 . S
C3301 N3299 1.356 . S
N3302 C3294 1.356 1_556 S
N3302 H3308 0.984 . S
N3302 H3309 0.984 1_556 S
N3303 C3296 1.356 . S
N3303 H3306 0.984 . S
N3303 H3307 0.985 . S
H3304 N3299 0.984 . S
H3305 N3299 0.985 . S
H3306 N3303 0.984 . S
H3307 N3303 0.985 . S
H3308 N3302 0.984 . S
H3309 N3302 0.984 1_554 S
H3310 N3298 0.984 . S
H3311 N3298 0.985 . S
C3312 C3313 1.363 . S
C3312 C3318 1.379 . S
C3312 N3320 1.356 . S
C3313 C3312 1.363 . S
C3313 C3319 1.363 . S
C3314 C3315 1.363 . S
C3314 C3319 1.379 . S
C3314 N3321 1.356 . S
C3315 C3314 1.363 . S
C3315 C3318 1.363 . S
N3316 C3318 1.356 . S
N3316 H3328 0.984 . S
N3316 H3329 0.985 . S
N3317 C3319 1.356 . S
N3317 H3322 0.984 . S
N3317 H3323 0.985 . S
C3318 C3312 1.379 . S
C3318 C3315 1.363 . S
C3318 N3316 1.356 . S
C3319 C3313 1.363 . S
C3319 C3314 1.379 . S
C3319 N3317 1.356 . S
N3320 C3312 1.356 . S
N3320 H3326 0.984 . S
N3320 H3327 0.984 . S
N3321 C3314 1.356 . S
N3321 H3324 0.984 . S
N3321 H3325 0.985 . S
H3322 N3317 0.984 . S
H3323 N3317 0.985 . S
H3324 N3321 0.984 . S
H3325 N3321 0.985 . S
H3326 N3320 0.984 . S
H3327 N3320 0.984 . S
H3328 N3316 0.984 . S
H3329 N3316 0.985 . S
C3330 C3331 1.363 . S
C3330 C3336 1.379 . S
C3330 N3338 1.356 . S
C3331 C3330 1.363 . S
C3331 C3337 1.363 . S
C3332 C3333 1.363 . S
C3332 C3337 1.379 . S
C3332 N3339 1.356 . S
C3333 C3332 1.363 . S
C3333 C3336 1.363 . S
N3334 C3336 1.356 1_556 S
N3334 H3346 0.984 . S
N3334 H3347 0.985 . S
N3335 C3337 1.356 . S
N3335 H3340 0.984 . S
N3335 H3341 0.985 . S
C3336 C3330 1.379 . S
C3336 C3333 1.363 . S
C3336 N3334 1.356 1_554 S
C3337 C3331 1.363 . S
C3337 C3332 1.379 . S
C3337 N3335 1.356 . S
N3338 C3330 1.356 . S
N3338 H3344 0.984 1_554 S
N3338 H3345 0.984 . S
N3339 C3332 1.356 . S
N3339 H3342 0.984 . S
N3339 H3343 0.985 . S
H3340 N3335 0.984 . S
H3341 N3335 0.985 . S
H3342 N3339 0.984 . S
H3343 N3339 0.985 . S
H3344 N3338 0.984 1_556 S
H3345 N3338 0.984 . S
H3346 N3334 0.984 . S
H3347 N3334 0.985 . S
C3348 C3349 1.363 . S
C3348 C3354 1.379 . S
C3348 N3356 1.356 . S
C3349 C3348 1.363 . S
C3349 C3355 1.363 . S
C3350 C3351 1.363 . S
C3350 C3355 1.379 . S
C3350 N3357 1.356 . S
C3351 C3350 1.363 . S
C3351 C3354 1.363 . S
N3352 C3354 1.356 . S
N3352 H3364 0.984 . S
N3352 H3365 0.985 . S
N3353 C3355 1.356 . S
N3353 H3358 0.984 . S
N3353 H3359 0.985 . S
C3354 C3348 1.379 . S
C3354 C3351 1.363 . S
C3354 N3352 1.356 . S
C3355 C3349 1.363 . S
C3355 C3350 1.379 . S
C3355 N3353 1.356 . S
N3356 C3348 1.356 . S
N3356 H3362 0.984 . S
N3356 H3363 0.984 . S
N3357 C3350 1.356 . S
N3357 H3360 0.984 . S
N3357 H3361 0.985 . S
H3358 N3353 0.984 . S
H3359 N3353 0.985 . S
H3360 N3357 0.984 . S
H3361 N3357 0.985 . S
H3362 N3356 0.984 . S
H3363 N3356 0.984 . S
H3364 N3352 0.984 . S
H3365 N3352 0.985 . S
C3366 C3367 1.363 . S
C3366 C3372 1.379 . S
C3366 N3374 1.356 . S
C3367 C3366 1.363 . S
C3367 C3373 1.363 . S
C3368 C3369 1.363 . S
C3368 C3373 1.379 . S
C3368 N3375 1.356 . S
C3369 C3368 1.363 . S
C3369 C3372 1.363 . S
N3370 C3372 1.356 . S
N3370 H3382 0.984 . S
N3370 H3383 0.985 . S
N3371 C3373 1.356 . S
N3371 H3376 0.984 . S
N3371 H3377 0.985 . S
C3372 C3366 1.379 . S
C3372 C3369 1.363 . S
C3372 N3370 1.356 . S
C3373 C3367 1.363 . S
C3373 C3368 1.379 . S
C3373 N3371 1.356 . S
N3374 C3366 1.356 . S
N3374 H3380 0.984 . S
N3374 H3381 0.984 . S
N3375 C3368 1.356 . S
N3375 H3378 0.984 . S
N3375 H3379 0.985 . S
H3376 N3371 0.984 . S
H3377 N3371 0.985 . S
H3378 N3375 0.984 . S
H3379 N3375 0.985 . S
H3380 N3374 0.984 . S
H3381 N3374 0.984 . S
H3382 N3370 0.984 . S
H3383 N3370 0.985 . S
C1657 C101 1.973 . S
C1659 C379 1.773 . S
C1675 C57 2.223 . S
C1677 C462 2.210 . S
C1693 C70 1.577 . S
C1695 C547 1.460 . S
C1713 C627 1.374 . S
C1711 C82 1.447 . S
C1729 C23 1.677 . S
C1731 C711 1.772 . S
C1749 C804 1.018 . S
C1747 C29 1.050 . S
C1767 C882 1.282 . S
C1765 C49 1.135 . S
C1783 C10 1.889 . S
C1785 C967 1.571 . S
C1803 C378 2.052 . S
C1801 C218 2.136 1_455 S
C1819 C226 0.971 . S
C1821 C459 0.987 . S
C1839 C546 1.332 . S
C1837 C251 1.364 . S
C1857 C631 1.531 . S
C1855 C159 1.647 . S
C1873 C211 2.222 1_455 S
C1875 C715 1.986 . S
C1893 C807 1.258 . S
C1891 C225 1.403 . S
C1911 C879 0.917 . S
C1909 C252 0.920 . S
C1929 C966 1.674 . S
C1927 C166 1.882 . S
C1947 C375 1.498 . S
C1945 C147 1.506 . S
C1963 C263 1.878 . S
C1965 C1050 1.854 . S
C1983 C1124 2.243 . S
C1981 C309 2.477 . S
C2001 C1219 0.649 1_655 S
C1999 C291 0.560 . S
C2017 C108 1.581 . S
C2019 C963 1.792 . S
C2035 C121 1.587 . S
C2037 C543 1.653 . S
C2053 C302 2.123 . S
C2055 C1302 2.059 . S
C2073 C1387 0.825 . S
C2071 C276 0.892 . S
C2091 C368 1.962 . S
C2089 C55 2.088 . S
C2109 C1395 2.344 . S
C2107 C96 2.379 . S
C2125 C88 1.831 . S
C2127 C536 1.759 . S
C2143 C75 1.615 . S
C2145 C1308 1.501 . S
C2163 C720 1.695 . S
C2161 C4 1.648 . S
C2179 C44 1.183 . S
C2181 C1131 1.089 . S
C2199 C891 1.569 . S
C2197 C31 1.448 . S
C2217 C1460 1.641 . S
C2215 C18 1.816 . S
C2235 C387 2.227 . S
C2233 C133 2.338 . S
C2253 C1392 0.916 . S
C2251 C296 0.965 . S
C2269 C107 1.429 . S
C2271 C555 1.373 . S
C2287 C264 1.873 . S
C2289 C1292 1.778 . S
C2305 C140 2.328 . S
C2307 C704 2.164 . S
C2325 C1134 1.321 . S
C2323 C289 1.430 . S
C2341 C114 1.019 . S
C2343 C888 0.931 . S
C2359 C265 2.000 . S
C2361 C1479 1.837 . S
C2377 C179 1.537 . S
C2379 C384 1.491 . S
C2395 C161 2.053 . S
C2397 C1059 1.977 . S
C2413 C244 2.645 . S
C2415 C799 2.460 . S
C2431 C224 0.985 . S
C2433 C1208 0.974 . S
C2451 C1476 1.325 . S
C2449 C257 1.239 1_565 S
C2467 C199 1.582 . S
C2469 C552 1.571 . S
C2487 C639 2.219 . S
C2485 C237 2.320 . S
C2505 C452 0.976 . S
C2503 C185 1.016 . S
C2521 C69 1.973 . S
C2523 C1555 1.774 . S
C2541 C1386 2.209 . S
C2539 C83 2.222 . S
C2557 C94 1.578 . S
C2559 C1639 1.461 . S
C2575 C56 1.447 . S
C2577 C1299 1.374 . S
C2593 C42 1.696 . S
C2595 C1047 1.780 . S
C2613 C1140 1.021 . S
C2611 C3 1.053 . S
C2631 C1218 1.289 . S
C2629 C16 1.132 . S
C2649 C1471 1.570 . S
C2647 C36 1.889 . S
C2667 C1554 2.052 . S
C2665 C238 2.148 . S
C2683 C174 0.969 . S
C2685 C1383 0.986 . S
C2703 C1638 1.332 . S
C2701 C186 1.364 . S
C2721 C1303 1.531 . S
C2719 C198 1.646 . S
C2739 C1051 1.987 . S
C2737 C239 2.224 . S
C2755 C173 1.405 . S
C2757 C1143 1.259 . S
C2775 C1215 0.919 . S
C2773 C187 0.921 . S
C2791 C205 1.882 . S
C2793 C1470 1.674 . S
C2811 C1551 1.497 . S
C2809 C290 1.505 . S
C2827 C122 1.879 . S
C2829 C714 1.842 . S
C2847 C788 2.249 . S
C2845 C134 2.482 . S
C2865 C883 0.647 . S
C2863 C148 0.558 . S
C2883 C1467 1.791 . S
C2881 C283 1.580 . S
C2899 C270 1.585 . S
C2901 C1635 1.651 . S
C2919 C630 2.058 . S
C2917 C135 2.122 . S
C2937 C463 0.824 . S
C2935 C109 0.890 . S
C2953 C81 2.088 . S
C2955 C1544 1.962 . S
C2973 C471 2.343 . S
C2971 C68 2.378 . S
C2989 C62 1.831 . S
C2991 C1628 1.759 . S
C3007 C95 1.614 . S
C3009 C636 1.500 . S
C3025 C30 1.647 . S
C3027 C1056 1.694 . S
C3045 C795 1.083 . S
C3043 C17 1.175 . S
C3061 C5 1.449 . S
C3063 C1227 1.570 . S
C3079 C43 1.811 . S
C3081 C956 1.632 . S
C3099 C1563 2.227 . S
C3097 C304 2.338 . S
C3115 C153 0.964 . S
C3117 C468 0.915 . S
C3135 C1647 1.374 . S
C3133 C278 1.429 . S
C3151 C127 1.873 . S
C3153 C620 1.778 . S
C3169 C303 2.322 . S
C3171 C1040 2.158 . S
C3189 C798 1.320 . S
C3187 C146 1.430 . S
C3205 C277 1.018 . S
C3207 C1224 0.929 . S
C3225 C975 1.835 . S
C3223 C120 1.997 . S
C3243 C1560 1.491 . S
C3241 C231 1.538 . S
C3261 C723 1.982 1_655 S
C3259 C200 2.051 . S
C3277 C212 2.648 . S
C3279 C1135 2.463 . S
C3297 C872 0.973 . S
C3295 C172 0.984 . S
C3313 C192 1.239 . S
C3315 C972 1.325 . S
C3331 C160 1.583 . S
C3333 C1644 1.572 . S
C3351 C1311 2.221 . S
C3349 C213 2.321 1_565 S
C3369 C1376 0.977 . S
C3367 C250 1.017 . S
