# Generated by pormake.
# Topology ssa, (4,4)-cn, num edge types: 1
# Building blocks:
#     Node 0, Type 0, BuildingBlock: ESEHIV_clean_sbu_0, # of connection points: 4
#     Node 1, Type 0, BuildingBlock: ESEHIV_clean_sbu_0, # of connection points: 4
#     Node 2, Type 0, BuildingBlock: ESEHIV_clean_sbu_0, # of connection points: 4
#     Node 3, Type 0, BuildingBlock: ESEHIV_clean_sbu_0, # of connection points: 4
#     Node 4, Type 0, BuildingBlock: ESEHIV_clean_sbu_0, # of connection points: 4
#     Node 5, Type 0, BuildingBlock: ESEHIV_clean_sbu_0, # of connection points: 4
#     Node 6, Type 1, BuildingBlock: NAWXER_clean_sbu_0, # of connection points: 4
#     Node 7, Type 1, BuildingBlock: NAWXER_clean_sbu_0, # of connection points: 4
#     Node 8, Type 1, BuildingBlock: NAWXER_clean_sbu_0, # of connection points: 4
#     Node 9, Type 1, BuildingBlock: NAWXER_clean_sbu_0, # of connection points: 4
#     Node 10, Type 1, BuildingBlock: NAWXER_clean_sbu_0, # of connection points: 4
#     Node 11, Type 1, BuildingBlock: NAWXER_clean_sbu_0, # of connection points: 4
#     Edge 12, Type (0, 1), BuildingBlock: XUDNAN_clean_linker_2, # of connection points: 2
#     Edge 13, Type (0, 1), BuildingBlock: XUDNAN_clean_linker_2, # of connection points: 2
#     Edge 14, Type (0, 1), BuildingBlock: XUDNAN_clean_linker_2, # of connection points: 2
#     Edge 15, Type (0, 1), BuildingBlock: XUDNAN_clean_linker_2, # of connection points: 2
#     Edge 16, Type (0, 1), BuildingBlock: XUDNAN_clean_linker_2, # of connection points: 2
#     Edge 17, Type (0, 1), BuildingBlock: XUDNAN_clean_linker_2, # of connection points: 2
#     Edge 18, Type (0, 1), BuildingBlock: XUDNAN_clean_linker_2, # of connection points: 2
#     Edge 19, Type (0, 1), BuildingBlock: XUDNAN_clean_linker_2, # of connection points: 2
#     Edge 20, Type (0, 1), BuildingBlock: XUDNAN_clean_linker_2, # of connection points: 2
#     Edge 21, Type (0, 1), BuildingBlock: XUDNAN_clean_linker_2, # of connection points: 2
#     Edge 22, Type (0, 1), BuildingBlock: XUDNAN_clean_linker_2, # of connection points: 2
#     Edge 23, Type (0, 1), BuildingBlock: XUDNAN_clean_linker_2, # of connection points: 2
#     Edge 24, Type (0, 1), BuildingBlock: XUDNAN_clean_linker_2, # of connection points: 2
#     Edge 25, Type (0, 1), BuildingBlock: XUDNAN_clean_linker_2, # of connection points: 2
#     Edge 26, Type (0, 1), BuildingBlock: XUDNAN_clean_linker_2, # of connection points: 2
#     Edge 27, Type (0, 1), BuildingBlock: XUDNAN_clean_linker_2, # of connection points: 2
#     Edge 28, Type (0, 1), BuildingBlock: XUDNAN_clean_linker_2, # of connection points: 2
#     Edge 29, Type (0, 1), BuildingBlock: XUDNAN_clean_linker_2, # of connection points: 2
#     Edge 30, Type (0, 1), BuildingBlock: XUDNAN_clean_linker_2, # of connection points: 2
#     Edge 31, Type (0, 1), BuildingBlock: XUDNAN_clean_linker_2, # of connection points: 2
#     Edge 32, Type (0, 1), BuildingBlock: XUDNAN_clean_linker_2, # of connection points: 2
#     Edge 33, Type (0, 1), BuildingBlock: XUDNAN_clean_linker_2, # of connection points: 2
#     Edge 34, Type (0, 1), BuildingBlock: XUDNAN_clean_linker_2, # of connection points: 2
#     Edge 35, Type (0, 1), BuildingBlock: XUDNAN_clean_linker_2, # of connection points: 2
# Relax obj value: 0.016
# Max RMSD: 0.108
# Mean RMSD: 0.057
data_MOF--net-ssa--node1-ESEHIV_clean_sbu_0--node2-NAWXER_clean_sbu_0--edge1-XUDNAN_clean_linker_2
_symmetry_space_group_name_H-M    P1
_symmetry_Int_Tables_number       1
_symmetry_cell_setting            triclinic
loop_
_symmetry_equiv_pos_as_xyz
'x, y, z'
_cell_length_a     44.658874
_cell_length_b     48.48193
_cell_length_c     38.652824
_cell_angle_alpha  88.127544
_cell_angle_beta   91.104925
_cell_angle_gamma 122.23266
loop_
_atom_site_label
_atom_site_type_symbol
_atom_site_fract_x
_atom_site_fract_y
_atom_site_fract_z
_atom_type_partial_charge
Cu0 Cu 1.00939 0.52504 1.00374 0.0
N1 N 0.96919 0.48452 0.99279 0.0
N2 N 0.92647 0.44156 0.96449 0.0
C3 C 0.9541 0.47274 0.96175 0.0
C4 C 0.92463 0.43306 0.99827 0.0
C5 C 0.95107 0.45947 0.01555 0.0
O6 O 0.02843 0.55628 0.96477 0.0
C7 C 0.07609 0.5381 0.03146 0.0
O8 O 0.08545 0.56878 0.03058 0.0
H9 H 0.96388 0.48611 0.93746 0.0
H10 H 0.95726 0.46006 0.04279 0.0
N11 N 1.00079 0.5441 0.04061 0.0
N12 N 0.01504 0.57902 0.08337 0.0
C13 C 0.0231 0.57476 0.05136 0.0
C14 C 0.97745 0.52874 0.06663 0.0
C15 C 0.98645 0.55015 0.0932 0.0
C16 C 0.01755 0.56414 0.93761 0.0
O17 O 0.04168 0.58761 0.91748 0.0
H18 H 0.04666 0.59272 0.0374 0.0
H19 H 0.95708 0.50312 0.06758 0.0
O20 O 0.04559 0.51641 0.02013 0.0
H21 H 0.90553 0.40944 1.00965 0.0
H22 H 0.97458 0.54434 0.11867 0.0
Cu23 Cu 0.49433 0.01174 0.50946 0.0
N24 N 0.50668 0.00771 0.46465 0.0
N25 N 0.509 0.97989 0.42078 0.0
C26 C 0.49452 0.97814 0.45158 0.0
C27 C 0.53165 0.01202 0.41398 0.0
C28 C 0.52996 0.02924 0.44108 0.0
O29 O 0.45072 0.96985 0.51754 0.0
C30 C 0.56076 0.04773 0.53704 0.0
O31 O 0.56291 0.06634 0.51051 0.0
H32 H 0.47672 0.95549 0.46534 0.0
H33 H 0.54537 0.05541 0.44378 0.0
N34 N 0.48772 0.04643 0.5157 0.0
N35 N 0.49077 0.0876 0.54352 0.0
C36 C 0.49535 0.06232 0.54568 0.0
C37 C 0.47819 0.06251 0.49356 0.0
C38 C 0.48005 0.08804 0.51078 0.0
C39 C 0.42389 0.96465 0.49985 0.0
O40 O 0.42422 0.98986 0.48588 0.0
H41 H 0.50551 0.05627 0.56839 0.0
H42 H 0.47162 0.05684 0.46658 0.0
O43 O 0.53237 0.01988 0.54115 0.0
H44 H 0.54845 0.02223 0.39139 0.0
H45 H 0.47571 0.10642 0.49969 0.0
Cu46 Cu 0.54835 0.51989 0.02706 0.0
N47 N 0.55896 0.4874 0.03079 0.0
N48 N 0.57045 0.45159 1.00958 0.0
C49 C 0.55494 0.46874 1.00387 0.0
C50 C 0.58472 0.45963 0.04158 0.0
C51 C 0.57751 0.48172 0.05467 0.0
O52 O 0.56944 0.54122 0.98273 0.0
C53 C 0.47533 0.47134 0.03981 0.0
O54 O 0.48599 0.45086 0.0432 0.0
H55 H 0.54295 0.46953 0.97954 0.0
H56 H 0.5867 0.49392 0.07904 0.0
N57 N 0.5672 0.55038 0.06248 0.0
N58 N 0.56874 0.58564 0.09992 0.0
C59 C 0.55146 0.56578 0.07319 0.0
C60 C 0.59584 0.56098 0.08292 0.0
C61 C 0.59686 0.58271 0.10602 0.0
C62 C 0.6024 0.55212 0.98048 0.0
O63 O 0.61937 0.55137 1.00824 0.0
H64 H 0.52758 0.56222 0.0613 0.0
H65 H 0.61445 0.55326 0.08149 0.0
O66 O 0.49724 0.50073 0.02983 0.0
H67 H 0.60008 0.45089 0.0542 0.0
H68 H 0.61639 0.59472 0.12619 0.0
Cu69 Cu 0.01812 0.47321 0.51406 0.0
N70 N 0.01334 0.44999 0.47425 0.0
N71 N 0.03025 0.44015 0.42435 0.0
C72 C 0.03123 0.46294 0.44441 0.0
C73 C 1.00982 0.41155 0.44176 0.0
C74 C 0.99955 0.41769 0.47247 0.0
O75 O 0.06381 0.51447 0.51167 0.0
C76 C 0.97742 0.42218 0.55913 0.0
O77 O 0.95427 0.4193 0.53573 0.0
H78 H 0.04766 0.48895 0.43923 0.0
H79 H 0.98554 0.40009 0.49321 0.0
N80 N 0.98416 0.48465 0.5153 0.0
N81 N 0.95153 0.50202 0.53781 0.0
C82 C 0.9817 0.50203 0.54037 0.0
C83 C 0.95471 0.47361 0.49593 0.0
C84 C 0.93435 0.4841 0.50997 0.0
C85 C 0.09164 0.51877 0.49759 0.0
O86 O 0.09333 0.49332 0.49051 0.0
H87 H 1.00061 0.51276 0.56132 0.0
H88 H 0.94766 0.4576 0.47433 0.0
O89 O 1.00978 0.44503 0.55505 0.0
H90 H 1.00452 0.3881 0.43399 0.0
H91 H 0.90855 0.4783 0.50103 0.0
Cu92 Cu 0.52326 0.00812 0.04568 0.0
N93 N 0.50962 0.03855 0.04384 0.0
N94 N 0.49399 0.07201 0.02092 0.0
C95 C 0.5048 0.0515 0.01446 0.0
C96 C 0.4921 0.07221 0.05568 0.0
C97 C 0.50212 0.05179 0.06979 0.0
O98 O 0.54758 0.01374 1.00203 0.0
C99 C 0.46599 0.95908 0.0832 0.0
O100 O 0.47475 0.98437 0.10203 0.0
H101 H 0.5085 0.04548 0.9888 0.0
H102 H 0.50382 0.04702 0.09704 0.0
N103 N 0.55414 0.01511 0.08211 0.0
N104 N 0.58289 1.00173 0.12003 0.0
C105 C 0.56084 0.99231 0.09261 0.0
C106 C 0.5727 0.04021 0.10347 0.0
C107 C 0.59072 0.03201 0.12695 0.0
C108 C 0.5807 0.03497 0.9997 0.0
O109 O 0.59819 0.05045 0.0275 0.0
H110 H 0.54947 0.96907 0.08025 0.0
H111 H 0.57282 0.06259 0.10229 0.0
O112 O 0.48267 0.96372 0.05499 0.0
H113 H 0.4844 0.08637 0.06983 0.0
H114 H 0.60734 0.04672 0.148 0.0
Cu115 Cu 0.4976 0.49855 0.51857 0.0
N116 N 0.5041 0.53823 0.53083 0.0
N117 N 0.51627 0.58884 0.52161 0.0
C118 C 0.51043 0.56155 0.50709 0.0
C119 C 0.51356 0.58262 0.55607 0.0
C120 C 0.50559 0.55102 0.56172 0.0
O121 O 0.48043 0.49335 0.4706 0.0
C122 C 0.56618 0.51805 0.54543 0.0
O123 O 0.56728 0.54429 0.555 0.0
H124 H 0.51199 0.55894 0.47959 0.0
H125 H 0.50214 0.53864 0.58649 0.0
N126 N 0.46558 0.46419 0.54755 0.0
N127 N 0.44851 0.42009 0.58174 0.0
C128 C 0.46916 0.43886 0.55507 0.0
C129 C 0.44159 0.46157 0.57013 0.0
C130 C 0.43088 0.43424 0.59124 0.0
C131 C 0.44843 0.48505 0.46498 0.0
O132 O 0.42655 0.47518 0.49128 0.0
H133 H 0.48891 0.43599 0.54291 0.0
H134 H 0.43409 0.47927 0.57249 0.0
O135 O 0.54114 0.49819 0.52564 0.0
H136 H 0.51726 0.59966 0.57562 0.0
H137 H 0.41275 0.42635 0.61279 0.0
C138 C 0.31913 0.5095 0.26898 0.0
C139 C 0.24215 0.50722 0.17324 0.0
O140 O 0.29305 0.48091 0.26197 0.0
Zn141 Zn 0.2499 0.45827 0.22629 0.0
O142 O 0.32307 0.53399 0.2516 0.0
Zn143 Zn 0.28199 0.51071 0.22046 0.0
O144 O 0.23718 0.49212 0.25358 0.0
O145 O 0.20863 0.43836 0.25679 0.0
O146 O 0.2692 0.53291 0.18497 0.0
O147 O 0.23352 0.47932 0.1864 0.0
O148 O 0.26181 0.43204 0.19919 0.0
O149 O 0.29756 0.48495 0.18939 0.0
C150 C 0.21117 0.46476 0.26502 0.0
C151 C 0.28834 0.4556 0.18335 0.0
C152 C 0.83057 0.25231 0.73251 0.0
C153 C 0.73828 0.1733 0.81333 0.0
O154 O 0.80201 0.25244 0.73232 0.0
Zn155 Zn 0.75232 0.22948 0.75717 0.0
O156 O 0.83327 0.23267 0.75307 0.0
Zn157 Zn 0.78603 0.21276 0.77456 0.0
O158 O 0.74981 0.18563 0.73312 0.0
O159 O 0.72071 0.20963 0.71865 0.0
O160 O 0.76947 0.17888 0.81105 0.0
O161 O 0.72948 0.19045 0.79509 0.0
O162 O 0.75502 0.26601 0.77952 0.0
O163 O 0.79178 0.25294 0.80203 0.0
C164 C 0.72664 0.18706 0.71434 0.0
C165 C 0.77902 0.27118 0.80135 0.0
C166 C 0.5195 0.80433 0.31534 0.0
C167 C 0.53676 0.73176 0.24468 0.0
O168 O 0.55178 0.81191 0.31553 0.0
Zn169 Zn 0.58209 0.79315 0.29443 0.0
O170 O 0.49615 0.77884 0.29999 0.0
Zn171 Zn 0.52783 0.76696 0.28193 0.0
O172 O 0.54102 0.74867 0.32702 0.0
O173 O 0.59844 0.78127 0.33557 0.0
O174 O 0.50875 0.73149 0.25065 0.0
O175 O 0.56586 0.75319 0.25922 0.0
O176 O 0.61636 0.83129 0.26779 0.0
O177 O 0.56126 0.80907 0.24941 0.0
C178 C 0.56884 0.75661 0.34488 0.0
C179 C 0.59411 0.83174 0.24713 0.0
C180 C 0.80225 0.50386 0.80744 0.0
C181 C 0.72059 0.49701 0.71464 0.0
O182 O 0.77436 0.47799 0.79745 0.0
Zn183 Zn 0.7596 0.49849 0.76188 0.0
O184 O 0.81056 0.53145 0.79376 0.0
Zn185 Zn 0.79048 0.55052 0.75561 0.0
O186 O 0.77793 0.57639 0.78213 0.0
O187 O 0.74244 0.52359 0.79261 0.0
O188 O 0.74593 0.52602 0.72145 0.0
O189 O 0.71816 0.47299 0.73181 0.0
O190 O 0.80169 0.51752 0.72442 0.0
O191 O 0.82969 0.57128 0.7231 0.0
C192 C 0.75128 0.55298 0.79792 0.0
C193 C 0.82627 0.54528 0.71207 0.0
C194 C 0.30276 0.77576 0.23698 0.0
C195 C 0.22746 0.69903 0.33025 0.0
O196 O 0.28168 0.78291 0.25008 0.0
Zn197 Zn 0.24066 0.76342 0.28806 0.0
O198 O 0.30155 0.75014 0.24785 0.0
Zn199 Zn 0.2641 0.73562 0.2826 0.0
O200 O 0.21719 0.7198 0.2516 0.0
O201 O 0.19929 0.75336 0.26113 0.0
O202 O 0.24946 0.6968 0.31196 0.0
O203 O 0.22203 0.72213 0.32353 0.0
O204 O 0.25903 0.79856 0.31993 0.0
O205 O 0.28831 0.7735 0.32099 0.0
C206 C 0.19527 0.72887 0.24572 0.0
C207 C 0.28357 0.79543 0.33263 0.0
C208 C 0.54677 0.3046 0.8278 0.0
C209 C 0.52735 0.22786 0.73778 0.0
O210 O 0.56939 0.30198 0.81129 0.0
Zn211 Zn 0.53656 0.26508 0.78371 0.0
O212 O 0.51371 0.28473 0.82175 0.0
Zn213 Zn 0.48184 0.24378 0.78873 0.0
O214 O 0.45534 0.20833 0.82178 0.0
O215 O 0.51201 0.22557 0.82153 0.0
O216 O 0.49785 0.2228 0.74907 0.0
O217 O 0.55614 0.24969 0.75152 0.0
O218 O 0.51299 0.28421 0.74869 0.0
O219 O 0.45623 0.25901 0.76198 0.0
C220 C 0.48078 0.20624 0.83364 0.0
C221 C 0.48226 0.27978 0.74349 0.0
H222 H 0.13693 0.57612 0.06948 0.0
H223 H 0.06959 0.47868 0.02978 0.0
H224 H 0.10798 0.46222 0.05793 0.0
H225 H 0.22148 0.58023 0.06196 0.0
H226 H 0.23893 0.60193 0.10162 0.0
H227 H 0.20793 0.60703 0.07608 0.0
H228 H 0.16758 0.59066 0.12922 0.0
H229 H 0.19762 0.58473 0.15522 0.0
H230 H 0.15194 0.55201 0.15135 0.0
H231 H 0.1513 0.45528 0.09243 0.0
H232 H 0.19537 0.45726 0.13306 0.0
H233 H 0.23536 0.55906 0.15185 0.0
C234 C 0.13053 0.55144 0.06625 0.0
C235 C 0.10025 0.52873 0.04712 0.0
C236 C 0.09259 0.49655 0.04412 0.0
C237 C 0.11434 0.487 0.05995 0.0
C238 C 0.14375 0.50987 0.07876 0.0
C239 C 0.15194 0.54143 0.08205 0.0
C240 C 0.1841 0.56062 0.10531 0.0
C241 C 0.21494 0.58914 0.08502 0.0
C242 C 0.17472 0.57268 0.1372 0.0
C243 C 0.19218 0.53467 0.11525 0.0
C244 C 0.16876 0.50574 0.0992 0.0
C245 C 0.16989 0.47784 0.10497 0.0
C246 C 0.19509 0.47926 0.12821 0.0
C247 C 0.219 0.50833 0.14571 0.0
C248 C 0.21784 0.5366 0.13859 0.0
H249 H 0.6099 0.11195 0.54585 0.0
H250 H 0.57234 0.0158 0.59094 0.0
H251 H 0.61534 0.04119 0.63908 0.0
H252 H 0.70356 0.15125 0.57168 0.0
H253 H 0.70697 0.18909 0.58059 0.0
H254 H 0.67697 0.16305 0.54762 0.0
H255 H 0.62521 0.16192 0.57815 0.0
H256 H 0.65483 0.18771 0.61131 0.0
H257 H 0.61611 0.14879 0.62305 0.0
H258 H 0.66089 0.07791 0.68368 0.0
H259 H 0.70086 0.12223 0.72306 0.0
H260 H 0.70409 0.19363 0.6502 0.0
C261 C 0.61123 0.09607 0.56534 0.0
C262 C 0.58814 0.06183 0.56441 0.0
C263 C 0.59004 0.04206 0.59102 0.0
C264 C 0.61444 0.05628 0.61835 0.0
C265 C 0.63647 0.09023 0.61868 0.0
C266 C 0.6349 0.10982 0.59287 0.0
C267 C 0.65879 0.14563 0.60068 0.0
C268 C 0.68833 0.16329 0.57353 0.0
C269 C 0.63745 0.16197 0.60345 0.0
C270 C 0.67342 0.14329 0.63542 0.0
C271 C 0.66099 0.1112 0.64503 0.0
C272 C 0.67081 0.10307 0.67632 0.0
C273 C 0.69351 0.12835 0.69845 0.0
C274 C 0.70531 0.16118 0.68955 0.0
C275 C 0.69526 0.16868 0.65758 0.0
H276 H 0.60906 0.63604 0.14409 0.0
H277 H 0.50404 0.5788 0.09878 0.0
H278 H 0.48519 0.60969 0.13081 0.0
H279 H 0.58054 0.64235 0.22872 0.0
H280 H 0.61672 0.68378 0.23453 0.0
H281 H 0.62246 0.65705 0.20802 0.0
H282 H 0.64193 0.69871 0.15665 0.0
H283 H 0.63623 0.72555 0.18301 0.0
H284 H 0.61331 0.71248 0.1422 0.0
H285 H 0.47688 0.64614 0.16792 0.0
H286 H 0.48009 0.68668 0.20707 0.0
H287 H 0.59039 0.72158 0.22875 0.0
C288 C 0.58204 0.62977 0.14097 0.0
C289 C 0.55811 0.60451 0.11873 0.0
C290 C 0.52313 0.59779 0.11532 0.0
C291 C 0.51202 0.61527 0.13357 0.0
C292 C 0.53616 0.63977 0.15518 0.0
C293 C 0.57047 0.64718 0.15894 0.0
C294 C 0.59109 0.67503 0.18374 0.0
C295 C 0.60342 0.66387 0.21565 0.0
C296 C 0.6225 0.7047 0.16529 0.0
C297 C 0.56291 0.68196 0.19329 0.0
C298 C 0.53143 0.66122 0.17651 0.0
C299 C 0.50141 0.66258 0.18117 0.0
C300 C 0.50353 0.68575 0.20355 0.0
C301 C 0.53549 0.70748 0.22107 0.0
C302 C 0.56558 0.70545 0.21574 0.0
H303 H 0.88554 0.47219 0.56478 0.0
H304 H 0.98905 0.56125 0.5666 0.0
H305 H 0.96773 0.58366 0.60981 0.0
H306 H 0.83259 0.50774 0.57604 0.0
H307 H 0.80118 0.47499 0.60426 0.0
H308 H 0.82405 0.46721 0.57185 0.0
H309 H 0.84672 0.44361 0.61925 0.0
H310 H 0.82394 0.45132 0.65178 0.0
H311 H 0.87081 0.46804 0.65583 0.0
H312 H 0.93428 0.59621 0.65277 0.0
H313 H 0.89346 0.59598 0.6955 0.0
H314 H 0.81334 0.49697 0.66821 0.0
C315 C 0.90345 0.49659 0.57395 0.0
C316 C 0.93876 0.5153 0.56211 0.0
C317 C 0.96187 0.54674 0.57535 0.0
C318 C 0.94994 0.55962 0.59975 0.0
C319 C 0.91495 0.54049 0.61105 0.0
C320 C 0.89217 0.50948 0.59885 0.0
C321 C 0.8566 0.49306 0.61677 0.0
C322 C 0.82685 0.48531 0.59067 0.0
C323 C 0.84909 0.46219 0.63712 0.0
C324 C 0.86281 0.51966 0.64087 0.0
C325 C 0.89644 0.54702 0.63691 0.0
C326 C 0.90794 0.57485 0.65615 0.0
C327 C 0.88456 0.57456 0.68027 0.0
C328 C 0.85032 0.54644 0.68532 0.0
C329 C 0.83945 0.51877 0.66516 0.0
H330 H 0.41275 0.9427 0.12829 0.0
H331 H 0.4622 0.90125 0.07241 0.0
H332 H 0.42484 0.84859 0.10456 0.0
H333 H 0.4082 0.90609 0.20896 0.0
H334 H 0.36586 0.89937 0.22059 0.0
H335 H 0.3944 0.93249 0.19131 0.0
H336 H 0.34447 0.91048 0.14521 0.0
H337 H 0.31558 0.87748 0.17453 0.0
H338 H 0.32361 0.86885 0.13189 0.0
H339 H 0.38484 0.80157 0.14792 0.0
H340 H 0.34335 0.76428 0.1936 0.0
H341 H 0.32004 0.83745 0.21872 0.0
C342 C 0.41528 0.92236 0.12228 0.0
C343 C 0.44022 0.926 0.09767 0.0
C344 C 0.44287 0.89886 0.09075 0.0
C345 C 0.42193 0.86895 0.10911 0.0
C346 C 0.39815 0.86649 0.1339 0.0
C347 C 0.39442 0.89245 0.13997 0.0
C348 C 0.36774 0.8842 0.16828 0.0
C349 C 0.3851 0.90688 0.1991 0.0
C350 C 0.33596 0.88531 0.15412 0.0
C351 C 0.35729 0.84968 0.17776 0.0
C352 C 0.37508 0.83974 0.15786 0.0
C353 C 0.37051 0.80907 0.16328 0.0
C354 C 0.34699 0.78808 0.18939 0.0
C355 C 0.32816 0.79775 0.20966 0.0
C356 C 0.33362 0.82903 0.20353 0.0
H357 H 0.42965 0.3971 0.64871 0.0
H358 H 0.47124 0.38345 0.55447 0.0
H359 H 0.48269 0.3451 0.58565 0.0
H360 H 0.48914 0.3947 0.70685 0.0
H361 H 0.45739 0.37161 0.7406 0.0
H362 H 0.45029 0.39688 0.71076 0.0
H363 H 0.38902 0.34716 0.69414 0.0
H364 H 0.39572 0.32175 0.72427 0.0
H365 H 0.38583 0.31074 0.67953 0.0
H366 H 0.49665 0.31385 0.62796 0.0
H367 H 0.50472 0.28519 0.67785 0.0
H368 H 0.44876 0.31366 0.74374 0.0
C369 C 0.44038 0.38554 0.63434 0.0
C370 C 0.45014 0.39402 0.5991 0.0
C371 C 0.46438 0.37826 0.58159 0.0
C372 C 0.47079 0.35617 0.59903 0.0
C373 C 0.46208 0.34931 0.6339 0.0
C374 C 0.44644 0.36288 0.65127 0.0
C375 C 0.44008 0.35143 0.68897 0.0
C376 C 0.46044 0.38038 0.71321 0.0
C377 C 0.40029 0.33159 0.6972 0.0
C378 C 0.45535 0.32995 0.69011 0.0
C379 C 0.46816 0.32938 0.65805 0.0
C380 C 0.48604 0.31349 0.65302 0.0
C381 C 0.49069 0.29748 0.68146 0.0
C382 C 0.47695 0.29698 0.71428 0.0
C383 C 0.45885 0.31322 0.71864 0.0
H384 H 0.55829 0.97292 0.38898 0.0
H385 H 0.44623 0.924 0.41098 0.0
H386 H 0.43603 0.87387 0.38459 0.0
H387 H 0.54989 0.9331 0.30625 0.0
H388 H 0.58798 0.9303 0.31506 0.0
H389 H 0.58569 0.96318 0.33239 0.0
H390 H 0.59547 0.9469 0.39415 0.0
H391 H 0.59738 0.91378 0.37707 0.0
H392 H 0.56593 0.90583 0.41047 0.0
H393 H 0.43853 0.82833 0.35772 0.0
H394 H 0.45365 0.79067 0.33335 0.0
H395 H 0.56458 0.86847 0.33156 0.0
C396 C 0.53156 0.95188 0.38735 0.0
C397 C 0.50296 0.95234 0.40164 0.0
C398 C 0.46842 0.92406 0.40005 0.0
C399 C 0.4624 0.89554 0.38508 0.0
C400 C 0.49127 0.89558 0.37195 0.0
C401 C 0.52517 0.92301 0.37288 0.0
C402 C 0.55186 0.91594 0.35898 0.0
C403 C 0.56991 0.93687 0.32622 0.0
C404 C 0.57927 0.92091 0.38683 0.0
C405 C 0.52778 0.88021 0.35054 0.0
C406 C 0.49287 0.86902 0.35779 0.0
C407 C 0.4658 0.83684 0.35194 0.0
C408 C 0.47463 0.8156 0.33816 0.0
C409 C 0.51029 0.82647 0.33086 0.0
C410 C 0.5371 0.85924 0.33726 0.0
H411 H 0.61298 0.50889 0.94985 0.0
H412 H 0.63252 0.60623 0.93748 0.0
H413 H 0.67132 0.6167 0.8871 0.0
H414 H 0.6987 0.52939 0.9328 0.0
H415 H 0.68601 0.49282 0.91001 0.0
H416 H 0.65702 0.49221 0.94212 0.0
H417 H 0.60631 0.47076 0.89708 0.0
H418 H 0.63516 0.47121 0.86484 0.0
H419 H 0.61328 0.49308 0.85671 0.0
H420 H 0.71346 0.61821 0.84254 0.0
H421 H 0.75108 0.60924 0.80415 0.0
H422 H 0.7024 0.51017 0.8454 0.0
C423 C 0.62452 0.53199 0.9357 0.0
C424 C 0.6193 0.55658 0.94675 0.0
C425 C 0.63564 0.58693 0.92865 0.0
C426 C 0.65784 0.59308 0.90025 0.0
C427 C 0.66318 0.56852 0.89041 0.0
C428 C 0.64648 0.53837 0.90732 0.0
C429 C 0.6579 0.51665 0.89304 0.0
C430 C 0.67599 0.50724 0.92117 0.0
C431 C 0.62628 0.48614 0.87695 0.0
C432 C 0.68412 0.53943 0.86573 0.0
C433 C 0.68694 0.56926 0.86466 0.0
C434 C 0.71106 0.59478 0.84282 0.0
C435 C 0.7325 0.58955 0.82127 0.0
C436 C 0.72961 0.55898 0.82157 0.0
C437 C 0.70502 0.53372 0.8442 0.0
H438 H 0.13928 0.53314 0.44517 0.0
H439 H 0.10007 0.57732 0.51194 0.0
H440 H 0.13388 0.629 0.4783 0.0
H441 H 0.22908 0.60859 0.43019 0.0
H442 H 0.22993 0.59875 0.38579 0.0
H443 H 0.20652 0.56655 0.41787 0.0
H444 H 0.15011 0.54257 0.38056 0.0
H445 H 0.17254 0.57491 0.34858 0.0
H446 H 0.13253 0.56745 0.36832 0.0
H447 H 0.16538 0.67326 0.43397 0.0
H448 H 0.19644 0.70939 0.3838 0.0
H449 H 0.2169 0.63791 0.34502 0.0
C450 C 0.13875 0.554 0.45345 0.0
C451 C 0.11719 0.55119 0.4815 0.0
C452 C 0.11651 0.57887 0.49079 0.0
C453 C 0.13561 0.60835 0.47178 0.0
C454 C 0.15553 0.60995 0.44359 0.0
C455 C 0.15773 0.58373 0.43467 0.0
C456 C 0.17942 0.59151 0.40187 0.0
C457 C 0.21325 0.59135 0.40939 0.0
C458 C 0.15731 0.56771 0.37312 0.0
C459 C 0.18803 0.62578 0.39316 0.0
C460 C 0.17411 0.63589 0.4178 0.0
C461 C 0.17684 0.66582 0.41478 0.0
C462 C 0.19439 0.68611 0.38598 0.0
C463 C 0.20923 0.6766 0.36039 0.0
C464 C 0.20616 0.64603 0.36426 0.0
H465 H 0.52984 0.10305 0.96203 0.0
H466 H 0.43914 0.08067 0.02359 0.0
H467 H 0.42402 0.1104 0.98057 0.0
H468 H 0.55451 0.18465 0.93845 0.0
H469 H 0.56898 0.18365 0.89555 0.0
H470 H 0.57123 0.15892 0.93001 0.0
H471 H 0.53362 0.10735 0.89363 0.0
H472 H 0.53114 0.13192 0.85906 0.0
H473 H 0.49111 0.09773 0.87725 0.0
H474 H 0.41842 0.14187 0.93035 0.0
H475 H 0.42597 0.17752 0.87977 0.0
H476 H 0.52274 0.18263 0.85283 0.0
C477 C 0.50665 0.10423 0.96617 0.0
C478 C 0.48543 0.08943 0.9959 0.0
C479 C 0.45569 0.09196 1.00097 0.0
C480 C 0.44683 0.1086 0.97661 0.0
C481 C 0.4683 0.12297 0.94755 0.0
C482 C 0.49786 0.12133 0.94244 0.0
C483 C 0.51768 0.14052 0.91011 0.0
C484 C 0.55532 0.1686 0.91908 0.0
C485 C 0.51842 0.11803 0.88344 0.0
C486 C 0.49466 0.15322 0.89783 0.0
C487 C 0.46602 0.1424 0.91951 0.0
C488 C 0.44081 0.15059 0.91327 0.0
C489 C 0.44526 0.17075 0.8844 0.0
C490 C 0.47498 0.18295 0.86243 0.0
C491 C 0.49983 0.17383 0.86925 0.0
H492 H 0.38151 0.45365 0.43791 0.0
H493 H 0.48918 0.5325 0.416 0.0
H494 H 0.46811 0.54854 0.3639 0.0
H495 H 0.35555 0.43258 0.34747 0.0
H496 H 0.31107 0.42264 0.35474 0.0
H497 H 0.33526 0.41729 0.38934 0.0
H498 H 0.3247 0.45401 0.42795 0.0
H499 H 0.30098 0.4599 0.39329 0.0
H500 H 0.33857 0.49469 0.41285 0.0
H501 H 0.43338 0.55886 0.3167 0.0
H502 H 0.39007 0.55699 0.27406 0.0
H503 H 0.30626 0.46926 0.32542 0.0
C504 C 0.40075 0.474 0.42186 0.0
C505 C 0.43704 0.49171 0.43096 0.0
C506 C 0.46134 0.51827 0.40932 0.0
C507 C 0.44953 0.52777 0.37987 0.0
C508 C 0.41339 0.51022 0.37211 0.0
C509 C 0.38952 0.48342 0.39212 0.0
C510 C 0.3522 0.46818 0.37803 0.0
C511 C 0.33768 0.4331 0.36672 0.0
C512 C 0.32768 0.46928 0.40462 0.0
C513 C 0.35859 0.49076 0.34718 0.0
C514 C 0.39395 0.51516 0.34435 0.0
C515 C 0.40574 0.53957 0.31849 0.0
C516 C 0.38092 0.53849 0.29453 0.0
C517 C 0.34482 0.51292 0.29626 0.0
C518 C 0.33372 0.48898 0.32319 0.0
H519 H 0.89811 0.37676 0.95846 0.0
H520 H 0.90346 0.4606 0.90877 0.0
H521 H 0.86187 0.42525 0.86339 0.0
H522 H 0.8981 0.3397 0.88021 0.0
H523 H 0.86882 0.29866 0.8967 0.0
H524 H 0.89712 0.33055 0.92592 0.0
H525 H 0.8423 0.31699 0.96198 0.0
H526 H 0.81378 0.28525 0.93261 0.0
H527 H 0.80606 0.31731 0.94103 0.0
H528 H 0.81855 0.37958 0.82387 0.0
H529 H 0.78412 0.32966 0.78952 0.0
H530 H 0.81058 0.27697 0.86394 0.0
C531 C 0.89024 0.38758 0.93819 0.0
C532 C 0.90355 0.42131 0.93727 0.0
C533 C 0.89343 0.4348 0.90987 0.0
C534 C 0.86968 0.41485 0.88418 0.0
C535 C 0.85671 0.38152 0.88608 0.0
C536 C 0.86714 0.36813 0.91211 0.0
C537 C 0.85138 0.33211 0.90718 0.0
C538 C 0.8806 0.32484 0.90219 0.0
C539 C 0.82692 0.31172 0.9375 0.0
C540 C 0.8305 0.32723 0.87423 0.0
C541 C 0.83332 0.35582 0.86271 0.0
C542 C 0.81622 0.35709 0.83265 0.0
C543 C 0.79655 0.32861 0.81344 0.0
C544 C 0.79475 0.29954 0.82411 0.0
C545 C 0.81153 0.29887 0.85516 0.0
H546 H 0.99379 0.55492 0.87179 0.0
H547 H 0.9566 0.53817 0.97765 0.0
H548 H 0.89501 0.51508 0.95598 0.0
H549 H 0.94074 0.58278 0.83918 0.0
H550 H 0.93396 0.56443 0.79763 0.0
H551 H 0.97343 0.57589 0.82207 0.0
H552 H 0.95932 0.51673 0.81921 0.0
H553 H 0.91956 0.50497 0.79496 0.0
H554 H 0.91721 0.48326 0.8346 0.0
H555 H 0.83691 0.49585 0.92058 0.0
H556 H 0.79128 0.48743 0.87686 0.0
H557 H 0.86934 0.52045 0.79564 0.0
C558 C 0.97268 0.54606 0.89055 0.0
C559 C 0.97991 0.54778 0.92644 0.0
C560 C 0.95157 0.53643 0.95005 0.0
C561 C 0.91656 0.5234 0.9379 0.0
C562 C 0.91048 0.52221 0.90211 0.0
C563 C 0.93803 0.5334 0.87893 0.0
C564 C 0.92566 0.53163 0.84189 0.0
C565 C 0.94456 0.5657 0.82417 0.0
C566 C 0.93074 0.50772 0.82147 0.0
C567 C 0.88686 0.51844 0.84753 0.0
C568 C 0.87817 0.51234 0.8823 0.0
C569 C 0.8436 0.50044 0.89337 0.0
C570 C 0.81778 0.49552 0.86841 0.0
C571 C 0.82686 0.50297 0.83298 0.0
C572 C 0.8617 0.51419 0.82256 0.0
H573 H 0.36713 0.94686 0.45739 0.0
H574 H 0.42684 0.90942 0.50712 0.0
H575 H 0.3956 0.86064 0.47105 0.0
H576 H 0.28325 0.86699 0.44617 0.0
H577 H 0.27482 0.87971 0.40472 0.0
H578 H 0.29866 0.90931 0.43762 0.0
H579 H 0.35025 0.94333 0.39456 0.0
H580 H 0.32702 0.91358 0.36177 0.0
H581 H 0.37099 0.92458 0.37461 0.0
H582 H 0.36364 0.81973 0.42386 0.0
H583 H 0.32826 0.78662 0.37441 0.0
H584 H 0.28892 0.85067 0.35644 0.0
C585 C 0.37291 0.92797 0.46156 0.0
C586 C 0.39949 0.93205 0.48518 0.0
C587 C 0.40642 0.9068 0.48946 0.0
C588 C 0.38895 0.87907 0.46889 0.0
C589 C 0.36422 0.8767 0.4446 0.0
C590 C 0.35568 0.90017 0.44139 0.0
C591 C 0.32958 0.89282 0.41216 0.0
C592 C 0.29449 0.88684 0.42601 0.0
C593 C 0.34542 0.9202 0.38413 0.0
C594 C 0.32514 0.8618 0.39899 0.0
C595 C 0.34544 0.85294 0.41793 0.0
C596 C 0.34716 0.82613 0.40929 0.0
C597 C 0.32714 0.8076 0.38098 0.0
C598 C 0.30559 0.81589 0.36166 0.0
C599 C 0.30477 0.84344 0.3709 0.0
H600 H 0.52213 0.41338 0.9615 0.0
H601 H 0.62683 0.44538 1.00127 0.0
H602 H 0.63354 0.41307 0.95723 0.0
H603 H 0.49642 0.33155 0.9451 0.0
H604 H 0.47216 0.32873 0.90618 0.0
H605 H 0.47656 0.35548 0.93982 0.0
H606 H 0.5034 0.40417 0.89566 0.0
H607 H 0.49927 0.37761 0.86186 0.0
H608 H 0.54172 0.41364 0.87093 0.0
H609 H 0.62862 0.37729 0.90804 0.0
H610 H 0.61091 0.33797 0.86106 0.0
H611 H 0.50833 0.32773 0.85531 0.0
C612 C 0.54651 0.41367 0.96082 0.0
C613 C 0.57397 0.43185 0.98483 0.0
C614 C 0.60531 0.4313 0.98342 0.0
C615 C 0.60945 0.41325 0.9583 0.0
C616 C 0.58183 0.3956 0.93499 0.0
C617 C 0.55084 0.39546 0.93626 0.0
C618 C 0.52463 0.37356 0.90915 0.0
C619 C 0.49043 0.34568 0.92608 0.0
C620 C 0.5168 0.39343 0.88284 0.0
C621 C 0.54543 0.36097 0.89269 0.0
C622 C 0.57859 0.37436 0.90755 0.0
C623 C 0.60267 0.36661 0.89632 0.0
C624 C 0.59241 0.3443 0.86955 0.0
C625 C 0.55818 0.32961 0.8546 0.0
C626 C 0.53458 0.33833 0.86633 0.0
H627 H 0.05626 0.40333 0.4042 0.0
H628 H 0.057 0.4916 0.37884 0.0
H629 H 0.10159 0.50592 0.33362 0.0
H630 H 0.14703 0.43669 0.39537 0.0
H631 H 0.14321 0.4016 0.37606 0.0
H632 H 0.10903 0.3965 0.40446 0.0
H633 H 0.06196 0.36676 0.35662 0.0
H634 H 0.09594 0.3714 0.32814 0.0
H635 H 0.06809 0.38629 0.31459 0.0
H636 H 0.15043 0.51382 0.29625 0.0
H637 H 0.19641 0.51225 0.26402 0.0
H638 H 0.16286 0.4176 0.31126 0.0
C639 C 0.06504 0.42526 0.38863 0.0
C640 C 0.053 0.44637 0.39521 0.0
C641 C 0.06598 0.47521 0.37458 0.0
C642 C 0.09127 0.48351 0.34878 0.0
C643 C 0.10333 0.4627 0.3438 0.0
C644 C 0.09031 0.43393 0.36273 0.0
C645 C 0.1086 0.41642 0.35282 0.0
C646 C 0.12812 0.41259 0.38404 0.0
C647 C 0.08206 0.38325 0.3371 0.0
C648 C 0.13444 0.4402 0.32581 0.0
C649 C 0.13092 0.46676 0.32119 0.0
C650 C 0.15306 0.49293 0.29922 0.0
C651 C 0.1793 0.49187 0.28122 0.0
C652 C 0.18319 0.46474 0.28502 0.0
C653 C 0.16026 0.43847 0.30752 0.0
H654 H 0.65195 0.07081 0.98762 0.0
H655 H 0.55031 0.02579 0.93528 0.0
H656 H 0.58075 0.0525 0.88019 0.0
H657 H 0.6905 0.146 0.9464 0.0
H658 H 0.73429 0.15308 0.94314 0.0
H659 H 0.70522 0.12699 0.97729 0.0
H660 H 0.71192 0.07991 0.95792 0.0
H661 H 0.7414 0.106 0.92383 0.0
H662 H 0.70253 0.06715 0.91367 0.0
H663 H 0.6212 0.09047 0.83351 0.0
H664 H 0.66911 0.13355 0.797 0.0
H665 H 0.74528 0.15234 0.87851 0.0
C666 C 0.63612 0.06587 0.96438 0.0
C667 C 0.59872 0.04609 0.96571 0.0
C668 C 0.57896 0.0405 0.93482 0.0
C669 C 0.59605 0.05567 0.90343 0.0
C670 C 0.63291 0.07585 0.90329 0.0
C671 C 0.65278 0.08051 0.93283 0.0
C672 C 0.69185 0.1049 0.9262 0.0
C673 C 0.70629 0.13449 0.94965 0.0
C674 C 0.71319 0.08851 0.93067 0.0
C675 C 0.69077 0.11427 0.88862 0.0
C676 C 0.65648 0.09709 0.87592 0.0
C677 C 0.64821 0.1035 0.84293 0.0
C678 C 0.67556 0.12814 0.82248 0.0
C679 C 0.71087 0.14597 0.83487 0.0
C680 C 0.71864 0.13855 0.86817 0.0
H681 H 0.48902 0.5941 0.4608 0.0
H682 H 0.56553 0.65051 0.54021 0.0
H683 H 0.58716 0.7009 0.50405 0.0
H684 H 0.54329 0.63523 0.38894 0.0
H685 H 0.50847 0.63304 0.36241 0.0
H686 H 0.49804 0.60243 0.39573 0.0
H687 H 0.45373 0.61453 0.42279 0.0
H688 H 0.46408 0.64522 0.38953 0.0
H689 H 0.46866 0.65564 0.43448 0.0
H690 H 0.60433 0.74381 0.45579 0.0
H691 H 0.6108 0.77685 0.40287 0.0
H692 H 0.52064 0.69202 0.357 0.0
C693 C 0.51 0.61718 0.47072 0.0
C694 C 0.52573 0.61861 0.50316 0.0
C695 C 0.55299 0.64912 0.51552 0.0
C696 C 0.56553 0.67771 0.49507 0.0
C697 C 0.55005 0.67528 0.46267 0.0
C698 C 0.5224 0.64582 0.45091 0.0
C699 C 0.51049 0.64943 0.41508 0.0
C700 C 0.51539 0.62882 0.389 0.0
C701 C 0.47196 0.6407 0.41552 0.0
C702 C 0.53608 0.6855 0.40818 0.0
C703 C 0.55894 0.70001 0.43574 0.0
C704 C 0.5862 0.73282 0.43432 0.0
C705 C 0.58983 0.75132 0.40414 0.0
C706 C 0.56601 0.73701 0.37611 0.0
C707 C 0.53887 0.70371 0.37829 0.0
H708 H 0.44989 0.1009 0.58208 0.0
H709 H 0.5579 0.12941 0.56237 0.0
H710 H 0.57895 0.17011 0.60867 0.0
H711 H 0.46955 0.18246 0.60428 0.0
H712 H 0.43676 0.16691 0.63805 0.0
H713 H 0.43034 0.14218 0.60146 0.0
H714 H 0.42305 0.096 0.64303 0.0
H715 H 0.42971 0.12067 0.67971 0.0
H716 H 0.45751 0.10461 0.674 0.0
H717 H 0.58817 0.20395 0.6593 0.0
H718 H 0.58553 0.23252 0.7095 0.0
H719 H 0.47125 0.18179 0.69844 0.0
C720 C 0.47797 0.1161 0.58742 0.0
C721 C 0.50252 0.11253 0.5687 0.0
C722 C 0.53899 0.13216 0.57651 0.0
C723 C 0.55107 0.15504 0.60276 0.0
C724 C 0.52628 0.15753 0.62141 0.0
C725 C 0.49049 0.13878 0.61408 0.0
C726 C 0.46956 0.14578 0.639 0.0
C727 C 0.45042 0.16019 0.61953 0.0
C728 C 0.44342 0.11492 0.66019 0.0
C729 C 0.49916 0.17098 0.66167 0.0
C730 C 0.53164 0.17742 0.65087 0.0
C731 C 0.56292 0.19932 0.66787 0.0
C732 C 0.5611 0.21538 0.6965 0.0
C733 C 0.52821 0.2095 0.70808 0.0
C734 C 0.49682 0.18685 0.69035 0.0
H735 H 0.45532 0.51178 0.06363 0.0
H736 H 0.41747 0.40971 0.05051 0.0
H737 H 0.36289 0.39389 0.08253 0.0
H738 H 0.42664 0.50211 0.14969 0.0
H739 H 0.41554 0.5328 0.14581 0.0
H740 H 0.44912 0.53529 0.11861 0.0
H741 H 0.41502 0.53732 0.06432 0.0
H742 H 0.38113 0.53428 0.0917 0.0
H743 H 0.36944 0.5051 0.05826 0.0
H744 H 0.31469 0.38943 0.12117 0.0
H745 H 0.27724 0.39709 0.1614 0.0
H746 H 0.34791 0.50204 0.14916 0.0
C747 C 0.43509 0.48611 0.06652 0.0
C748 C 0.44044 0.46197 0.05409 0.0
C749 C 0.41379 0.42862 0.05952 0.0
C750 C 0.3827 0.4194 0.07771 0.0
C751 C 0.37871 0.44382 0.09049 0.0
C752 C 0.40418 0.4765 0.08498 0.0
C753 C 0.39502 0.49799 0.10368 0.0
C754 C 0.42324 0.51823 0.13108 0.0
C755 C 0.38983 0.51996 0.07794 0.0
C756 C 0.36049 0.4724 0.12055 0.0
C757 C 0.35137 0.44125 0.11275 0.0
C758 C 0.32141 0.41376 0.1271 0.0
C759 C 0.30034 0.41832 0.15001 0.0
C760 C 0.30944 0.45012 0.15839 0.0
C761 C 0.33986 0.47734 0.14315 0.0
H762 H 0.91045 0.38748 0.58297 0.0
H763 H 0.01467 0.40432 0.60324 0.0
H764 H 0.98921 0.36164 0.65034 0.0
H765 H 0.88183 0.37443 0.67162 0.0
H766 H 0.83676 0.3441 0.66053 0.0
H767 H 0.86424 0.37629 0.62986 0.0
H768 H 0.85176 0.33315 0.58439 0.0
H769 H 0.82459 0.30083 0.61503 0.0
H770 H 0.86143 0.30218 0.59489 0.0
H771 H 0.94915 0.31382 0.69457 0.0
H772 H 0.90128 0.27071 0.73214 0.0
H773 H 0.82574 0.28817 0.68009 0.0
C774 C 0.92814 0.38238 0.59727 0.0
C775 C 0.96451 0.39906 0.58929 0.0
C776 C 0.98669 0.39186 0.60902 0.0
C777 C 0.97239 0.36756 0.63566 0.0
C778 C 0.93602 0.35108 0.64232 0.0
C779 C 0.91448 0.35867 0.62373 0.0
C780 C 0.87645 0.33813 0.63531 0.0
C781 C 0.86411 0.35951 0.65022 0.0
C782 C 0.85215 0.31735 0.60564 0.0
C783 C 0.87949 0.31726 0.66317 0.0
C784 C 0.91385 0.32476 0.66713 0.0
C785 C 0.92224 0.30798 0.69162 0.0
C786 C 0.8949 0.28341 0.71273 0.0
C787 C 0.85972 0.27603 0.70919 0.0
C788 C 0.85228 0.29314 0.68376 0.0
H789 H 0.54483 0.93604 0.12722 0.0
H790 H 0.64417 0.02266 0.15596 0.0
H791 H 0.66164 0.98783 0.18732 0.0
H792 H 0.52995 0.89286 0.20591 0.0
H793 H 0.5104 0.85368 0.18622 0.0
H794 H 0.50753 0.88567 0.1648 0.0
H795 H 0.53647 0.88012 0.11013 0.0
H796 H 0.5398 0.84828 0.13154 0.0
H797 H 0.57881 0.88388 0.11373 0.0
H798 H 0.66646 0.94251 0.21751 0.0
H799 H 0.65604 0.89219 0.24746 0.0
H800 H 0.55392 0.83655 0.19651 0.0
C801 C 0.5706 0.94778 0.13946 0.0
C802 C 0.59338 0.98205 0.13876 0.0
C803 C 0.62633 0.99643 0.15624 0.0
C804 C 0.63655 0.97683 0.17381 0.0
C805 C 0.61349 0.943 0.17355 0.0
C806 C 0.5811 0.92873 0.15693 0.0
C807 C 0.55996 0.89211 0.16199 0.0
C808 C 0.52492 0.88042 0.18086 0.0
C809 C 0.55339 0.87511 0.12727 0.0
C810 C 0.58525 0.88782 0.18452 0.0
C811 C 0.61617 0.91731 0.19072 0.0
C812 C 0.6425 0.91929 0.21251 0.0
C813 C 0.63646 0.89055 0.22924 0.0
C814 C 0.60423 0.86041 0.22422 0.0
C815 C 0.57896 0.85912 0.20072 0.0
H816 H 0.62551 0.55705 0.58375 0.0
H817 H 0.55809 0.45748 0.55008 0.0
H818 H 0.59092 0.4407 0.58858 0.0
H819 H 0.7075 0.55694 0.59198 0.0
H820 H 0.72155 0.58187 0.62969 0.0
H821 H 0.69446 0.58591 0.59733 0.0
H822 H 0.6487 0.57499 0.64458 0.0
H823 H 0.67537 0.57047 0.67697 0.0
H824 H 0.62985 0.53817 0.67101 0.0
H825 H 0.62867 0.43432 0.63585 0.0
H826 H 0.6702 0.44009 0.68285 0.0
H827 H 0.71242 0.54402 0.68375 0.0
C828 C 0.61806 0.53181 0.58383 0.0
C829 C 0.58931 0.50867 0.56362 0.0
C830 C 0.58029 0.47582 0.5649 0.0
C831 C 0.59867 0.466 0.58692 0.0
C832 C 0.62625 0.48936 0.60727 0.0
C833 C 0.63617 0.5217 0.60544 0.0
C834 C 0.66584 0.54201 0.63059 0.0
C835 C 0.69932 0.56822 0.61124 0.0
C836 C 0.65423 0.5573 0.65736 0.0
C837 C 0.67093 0.5161 0.64724 0.0
C838 C 0.64788 0.4858 0.63367 0.0
C839 C 0.64707 0.45805 0.6463 0.0
C840 C 0.67065 0.4615 0.67312 0.0
C841 C 0.69481 0.49251 0.68693 0.0
C842 C 0.69465 0.51998 0.67363 0.0
H843 H 0.05484 0.57638 0.13486 0.0
H844 H 0.0283 0.64019 0.08112 0.0
H845 H 0.07006 0.68573 0.11885 0.0
H846 H 0.06674 0.60929 0.22105 0.0
H847 H 0.10382 0.60529 0.23128 0.0
H848 H 0.07004 0.57763 0.20182 0.0
H849 H 0.11762 0.59304 0.15522 0.0
H850 H 0.15163 0.62076 0.1844 0.0
H851 H 0.14696 0.63524 0.14233 0.0
H852 H 0.11453 0.72379 0.16328 0.0
H853 H 0.16185 0.75287 0.20686 0.0
H854 H 0.16242 0.66477 0.22827 0.0
C855 C 0.05765 0.59992 0.13155 0.0
C856 C 0.03823 0.60503 0.10576 0.0
C857 C 0.04288 0.63609 0.10116 0.0
C858 C 0.06641 0.66189 0.12245 0.0
C859 C 0.08532 0.65614 0.14777 0.0
C860 C 0.08142 0.62596 0.15216 0.0
C861 C 0.1063 0.62657 0.17975 0.0
C862 C 0.08547 0.60332 0.21028 0.0
C863 C 0.13218 0.61845 0.16451 0.0
C864 C 0.12509 0.66187 0.19009 0.0
C865 C 0.1122 0.6784 0.17181 0.0
C866 C 0.12493 0.71112 0.17758 0.0
C867 C 0.15171 0.7274 0.20244 0.0
C868 C 0.16594 0.71114 0.22073 0.0
C869 C 0.15231 0.67793 0.21441 0.0
loop_
_geom_bond_atom_site_label_1
_geom_bond_atom_site_label_2
_geom_bond_distance
_geom_bond_site_symmetry_2
_ccdc_geom_bond_type
Cu0 N1 1.998 1_554 S
Cu0 O6 1.996 1_554 S
Cu0 N11 1.984 1_655 S
Cu0 O20 1.937 1_655 S
N1 Cu0 1.998 1_556 S
N1 C3 1.263 . S
N1 C5 1.389 1_556 S
N2 C3 1.358 . S
N2 C4 1.400 . S
C3 N1 1.263 . S
C3 N2 1.358 . S
C3 H9 0.930 . S
C4 N2 1.400 . S
C4 C5 1.351 1_556 S
C4 H21 0.930 . S
C5 N1 1.389 1_554 S
C5 C4 1.351 1_554 S
C5 H10 0.930 . S
O6 Cu0 1.996 1_556 S
O6 C16 1.282 . S
C7 O8 1.261 . S
C7 O20 1.251 . S
O8 C7 1.261 . S
H9 C3 0.930 . S
H10 C5 0.930 . S
N11 Cu0 1.984 1_455 S
N11 C13 1.335 . S
N11 C14 1.390 . S
N12 C13 1.345 . S
N12 C15 1.336 . S
C13 N11 1.335 . S
C13 N12 1.345 . S
C13 H18 0.930 . S
C14 N11 1.390 . S
C14 C15 1.346 . S
C14 H19 0.930 1_554 S
C15 N12 1.336 . S
C15 C14 1.346 . S
C15 H22 0.929 . S
C16 O6 1.282 . S
C16 O17 1.216 1_655 S
O17 C16 1.216 1_455 S
H18 C13 0.930 . S
H19 C14 0.930 1_556 S
O20 Cu0 1.937 1_455 S
O20 C7 1.251 . S
H21 C4 0.930 . S
H22 C15 0.929 . S
Cu23 N24 1.999 . S
Cu23 O29 1.974 . S
Cu23 N34 1.985 1_565 S
Cu23 O43 1.959 1_565 S
N24 Cu23 1.999 . S
N24 C26 1.263 . S
N24 C28 1.389 . S
N25 C26 1.358 . S
N25 C27 1.400 . S
C26 N24 1.263 . S
C26 N25 1.358 . S
C26 H32 0.930 . S
C27 N25 1.400 . S
C27 C28 1.351 . S
C27 H44 0.930 . S
C28 N24 1.389 . S
C28 C27 1.351 . S
C28 H33 0.930 . S
O29 Cu23 1.974 . S
O29 C39 1.282 . S
C30 O31 1.261 . S
C30 O43 1.251 . S
O31 C30 1.261 . S
H32 C26 0.930 . S
H33 C28 0.930 . S
N34 Cu23 1.985 1_545 S
N34 C36 1.335 . S
N34 C37 1.390 . S
N35 C36 1.345 . S
N35 C38 1.336 . S
C36 N34 1.335 . S
C36 N35 1.345 . S
C36 H41 0.930 . S
C37 N34 1.390 . S
C37 C38 1.346 . S
C37 H42 0.930 . S
C38 N35 1.336 . S
C38 C37 1.346 . S
C38 H45 0.929 . S
C39 O29 1.282 . S
C39 O40 1.216 1_565 S
O40 C39 1.216 1_545 S
H41 C36 0.930 . S
H42 C37 0.930 . S
O43 Cu23 1.959 1_545 S
O43 C30 1.251 . S
H44 C27 0.930 . S
H45 C38 0.929 . S
Cu46 N47 1.999 1_554 S
Cu46 O52 1.974 1_554 S
Cu46 N57 1.985 . S
Cu46 O66 1.959 . S
N47 Cu46 1.999 1_556 S
N47 C49 1.263 . S
N47 C51 1.389 . S
N48 C49 1.358 . S
N48 C50 1.400 . S
C49 N47 1.263 . S
C49 N48 1.358 . S
C49 H55 0.930 . S
C50 N48 1.400 . S
C50 C51 1.351 . S
C50 H67 0.930 . S
C51 N47 1.389 . S
C51 C50 1.351 . S
C51 H56 0.930 . S
O52 Cu46 1.974 1_556 S
O52 C62 1.282 . S
C53 O54 1.261 . S
C53 O66 1.251 . S
O54 C53 1.261 . S
H55 C49 0.930 . S
H56 C51 0.930 . S
N57 Cu46 1.985 . S
N57 C59 1.335 . S
N57 C60 1.390 . S
N58 C59 1.345 . S
N58 C61 1.336 . S
C59 N57 1.335 . S
C59 N58 1.345 . S
C59 H64 0.930 . S
C60 N57 1.390 . S
C60 C61 1.346 . S
C60 H65 0.930 . S
C61 N58 1.336 . S
C61 C60 1.346 . S
C61 H68 0.929 . S
C62 O52 1.282 . S
C62 O63 1.216 1_556 S
O63 C62 1.216 1_554 S
H64 C59 0.930 . S
H65 C60 0.930 . S
O66 Cu46 1.959 . S
O66 C53 1.251 . S
H67 C50 0.930 . S
H68 C61 0.929 . S
Cu69 N70 1.999 1_655 S
Cu69 O75 1.974 1_655 S
Cu69 N80 1.985 . S
Cu69 O89 1.959 . S
N70 Cu69 1.999 1_455 S
N70 C72 1.263 . S
N70 C74 1.389 1_455 S
N71 C72 1.358 . S
N71 C73 1.400 . S
C72 N70 1.263 . S
C72 N71 1.358 . S
C72 H78 0.930 . S
C73 N71 1.400 . S
C73 C74 1.351 1_455 S
C73 H90 0.930 1_455 S
C74 N70 1.389 1_655 S
C74 C73 1.351 1_655 S
C74 H79 0.930 . S
O75 Cu69 1.974 1_455 S
O75 C85 1.282 . S
C76 O77 1.261 1_655 S
C76 O89 1.251 . S
O77 C76 1.261 1_455 S
H78 C72 0.930 . S
H79 C74 0.930 . S
N80 Cu69 1.985 . S
N80 C82 1.335 . S
N80 C83 1.390 . S
N81 C82 1.345 . S
N81 C84 1.336 . S
C82 N80 1.335 . S
C82 N81 1.345 . S
C82 H87 0.930 . S
C83 N80 1.390 . S
C83 C84 1.346 . S
C83 H88 0.930 1_655 S
C84 N81 1.336 . S
C84 C83 1.346 . S
C84 H91 0.929 . S
C85 O75 1.282 . S
C85 O86 1.216 . S
O86 C85 1.216 . S
H87 C82 0.930 . S
H88 C83 0.930 1_455 S
O89 Cu69 1.959 . S
O89 C76 1.251 . S
H90 C73 0.930 1_655 S
H91 C84 0.929 . S
Cu92 N93 1.998 . S
Cu92 O98 1.974 1_554 S
Cu92 N103 1.985 1_545 S
Cu92 O112 1.959 1_545 S
N93 Cu92 1.998 . S
N93 C95 1.265 1_554 S
N93 C97 1.388 . S
N94 C95 1.358 . S
N94 C96 1.400 . S
C95 N93 1.265 1_556 S
C95 N94 1.358 . S
C95 H101 0.930 . S
C96 N94 1.400 . S
C96 C97 1.351 1_556 S
C96 H113 0.930 . S
C97 N93 1.388 . S
C97 C96 1.351 1_554 S
C97 H102 0.930 . S
O98 Cu92 1.974 1_556 S
O98 C108 1.282 . S
C99 O100 1.261 . S
C99 O112 1.251 . S
O100 C99 1.261 . S
H101 C95 0.930 . S
H102 C97 0.930 . S
N103 Cu92 1.985 1_565 S
N103 C105 1.335 . S
N103 C106 1.390 . S
N104 C105 1.345 . S
N104 C107 1.336 . S
C105 N103 1.335 . S
C105 N104 1.345 . S
C105 H110 0.930 . S
C106 N103 1.390 . S
C106 C107 1.346 . S
C106 H111 0.930 . S
C107 N104 1.336 . S
C107 C106 1.346 . S
C107 H114 0.929 . S
C108 O98 1.282 . S
C108 O109 1.216 . S
O109 C108 1.216 . S
H110 C105 0.930 . S
H111 C106 0.930 . S
O112 Cu92 1.959 1_565 S
O112 C99 1.251 . S
H113 C96 0.930 . S
H114 C107 0.929 . S
Cu115 N116 1.999 . S
Cu115 O121 1.974 . S
Cu115 N126 1.985 . S
Cu115 O135 1.959 . S
N116 Cu115 1.999 . S
N116 C118 1.263 . S
N116 C120 1.389 . S
N117 C118 1.358 . S
N117 C119 1.400 . S
C118 N116 1.263 . S
C118 N117 1.358 . S
C118 H124 0.930 . S
C119 N117 1.400 . S
C119 C120 1.351 . S
C119 H136 0.930 . S
C120 N116 1.389 . S
C120 C119 1.351 . S
C120 H125 0.930 . S
O121 Cu115 1.974 . S
O121 C131 1.282 . S
C122 O123 1.261 . S
C122 O135 1.251 . S
O123 C122 1.261 . S
H124 C118 0.930 . S
H125 C120 0.930 . S
N126 Cu115 1.985 . S
N126 C128 1.335 . S
N126 C129 1.390 . S
N127 C128 1.345 . S
N127 C130 1.336 . S
C128 N126 1.335 . S
C128 N127 1.345 . S
C128 H133 0.930 . S
C129 N126 1.390 . S
C129 C130 1.346 . S
C129 H134 0.930 . S
C130 N127 1.336 . S
C130 C129 1.346 . S
C130 H137 0.929 . S
C131 O121 1.282 . S
C131 O132 1.216 . S
O132 C131 1.216 . S
H133 C128 0.930 . S
H134 C129 0.930 . S
O135 Cu115 1.959 . S
O135 C122 1.251 . S
H136 C119 0.930 . S
H137 C130 0.929 . S
C138 O140 1.247 . S
C138 O142 1.258 . S
C139 O146 1.247 . S
C139 O147 1.258 . S
O140 C138 1.247 . S
O140 Zn141 2.028 . S
Zn141 O140 2.028 . S
Zn141 O145 2.035 . S
Zn141 O147 2.035 . S
Zn141 O148 2.028 . S
O142 C138 1.258 . S
O142 Zn143 2.035 . S
Zn143 O142 2.035 . S
Zn143 O144 2.028 . S
Zn143 O146 2.028 . S
Zn143 O149 2.035 . S
O144 Zn143 2.028 . S
O144 C150 1.247 . S
O145 Zn141 2.035 . S
O145 C150 1.258 . S
O146 C139 1.247 . S
O146 Zn143 2.028 . S
O147 C139 1.258 . S
O147 Zn141 2.035 . S
O148 Zn141 2.028 . S
O148 C151 1.247 . S
O149 Zn143 2.035 . S
O149 C151 1.258 . S
C150 O144 1.247 . S
C150 O145 1.258 . S
C151 O148 1.247 . S
C151 O149 1.258 . S
C152 O154 1.247 . S
C152 O156 1.258 . S
C153 O160 1.247 . S
C153 O161 1.258 . S
O154 C152 1.247 . S
O154 Zn155 2.028 . S
Zn155 O154 2.028 . S
Zn155 O159 2.035 . S
Zn155 O161 2.035 . S
Zn155 O162 2.028 . S
O156 C152 1.258 . S
O156 Zn157 2.035 . S
Zn157 O156 2.035 . S
Zn157 O158 2.028 . S
Zn157 O160 2.028 . S
Zn157 O163 2.035 . S
O158 Zn157 2.028 . S
O158 C164 1.247 . S
O159 Zn155 2.035 . S
O159 C164 1.258 . S
O160 C153 1.247 . S
O160 Zn157 2.028 . S
O161 C153 1.258 . S
O161 Zn155 2.035 . S
O162 Zn155 2.028 . S
O162 C165 1.247 . S
O163 Zn157 2.035 . S
O163 C165 1.258 . S
C164 O158 1.247 . S
C164 O159 1.258 . S
C165 O162 1.247 . S
C165 O163 1.258 . S
C166 O168 1.247 . S
C166 O170 1.258 . S
C167 O174 1.247 . S
C167 O175 1.258 . S
O168 C166 1.247 . S
O168 Zn169 2.028 . S
Zn169 O168 2.028 . S
Zn169 O173 2.035 . S
Zn169 O175 2.035 . S
Zn169 O176 2.028 . S
O170 C166 1.258 . S
O170 Zn171 2.035 . S
Zn171 O170 2.035 . S
Zn171 O172 2.028 . S
Zn171 O174 2.028 . S
Zn171 O177 2.035 . S
O172 Zn171 2.028 . S
O172 C178 1.247 . S
O173 Zn169 2.035 . S
O173 C178 1.258 . S
O174 C167 1.247 . S
O174 Zn171 2.028 . S
O175 C167 1.258 . S
O175 Zn169 2.035 . S
O176 Zn169 2.028 . S
O176 C179 1.247 . S
O177 Zn171 2.035 . S
O177 C179 1.258 . S
C178 O172 1.247 . S
C178 O173 1.258 . S
C179 O176 1.247 . S
C179 O177 1.258 . S
C180 O182 1.247 . S
C180 O184 1.258 . S
C181 O188 1.247 . S
C181 O189 1.258 . S
O182 C180 1.247 . S
O182 Zn183 2.028 . S
Zn183 O182 2.028 . S
Zn183 O187 2.035 . S
Zn183 O189 2.035 . S
Zn183 O190 2.028 . S
O184 C180 1.258 . S
O184 Zn185 2.035 . S
Zn185 O184 2.035 . S
Zn185 O186 2.028 . S
Zn185 O188 2.028 . S
Zn185 O191 2.035 . S
O186 Zn185 2.028 . S
O186 C192 1.247 . S
O187 Zn183 2.035 . S
O187 C192 1.258 . S
O188 C181 1.247 . S
O188 Zn185 2.028 . S
O189 C181 1.258 . S
O189 Zn183 2.035 . S
O190 Zn183 2.028 . S
O190 C193 1.247 . S
O191 Zn185 2.035 . S
O191 C193 1.258 . S
C192 O186 1.247 . S
C192 O187 1.258 . S
C193 O190 1.247 . S
C193 O191 1.258 . S
C194 O196 1.247 . S
C194 O198 1.258 . S
C195 O202 1.247 . S
C195 O203 1.258 . S
O196 C194 1.247 . S
O196 Zn197 2.028 . S
Zn197 O196 2.028 . S
Zn197 O201 2.035 . S
Zn197 O203 2.035 . S
Zn197 O204 2.028 . S
O198 C194 1.258 . S
O198 Zn199 2.035 . S
Zn199 O198 2.035 . S
Zn199 O200 2.028 . S
Zn199 O202 2.028 . S
Zn199 O205 2.035 . S
O200 Zn199 2.028 . S
O200 C206 1.247 . S
O201 Zn197 2.035 . S
O201 C206 1.258 . S
O202 C195 1.247 . S
O202 Zn199 2.028 . S
O203 C195 1.258 . S
O203 Zn197 2.035 . S
O204 Zn197 2.028 . S
O204 C207 1.247 . S
O205 Zn199 2.035 . S
O205 C207 1.258 . S
C206 O200 1.247 . S
C206 O201 1.258 . S
C207 O204 1.247 . S
C207 O205 1.258 . S
C208 O210 1.247 . S
C208 O212 1.258 . S
C209 O216 1.247 . S
C209 O217 1.258 . S
O210 C208 1.247 . S
O210 Zn211 2.028 . S
Zn211 O210 2.028 . S
Zn211 O215 2.035 . S
Zn211 O217 2.035 . S
Zn211 O218 2.028 . S
O212 C208 1.258 . S
O212 Zn213 2.035 . S
Zn213 O212 2.035 . S
Zn213 O214 2.028 . S
Zn213 O216 2.028 . S
Zn213 O219 2.035 . S
O214 Zn213 2.028 . S
O214 C220 1.247 . S
O215 Zn211 2.035 . S
O215 C220 1.258 . S
O216 C209 1.247 . S
O216 Zn213 2.028 . S
O217 C209 1.258 . S
O217 Zn211 2.035 . S
O218 Zn211 2.028 . S
O218 C221 1.247 . S
O219 Zn213 2.035 . S
O219 C221 1.258 . S
C220 O214 1.247 . S
C220 O215 1.258 . S
C221 O218 1.247 . S
C221 O219 1.258 . S
H222 C234 0.930 . S
H223 C236 0.930 . S
H224 C237 0.930 . S
H225 C241 0.959 . S
H226 C241 0.959 . S
H227 C241 0.961 . S
H228 C242 0.960 . S
H229 C242 0.961 . S
H230 C242 0.959 . S
H231 C245 0.929 . S
H232 C246 0.931 . S
H233 C248 0.930 . S
C234 H222 0.930 . S
C234 C235 1.399 . S
C234 C239 1.399 . S
C235 C234 1.399 . S
C235 C236 1.376 . S
C236 H223 0.930 . S
C236 C235 1.376 . S
C236 C237 1.388 . S
C237 H224 0.930 . S
C237 C236 1.388 . S
C237 C238 1.390 . S
C238 C237 1.390 . S
C238 C239 1.394 . S
C238 C244 1.465 . S
C239 C234 1.399 . S
C239 C238 1.394 . S
C239 C240 1.516 . S
C240 C239 1.516 . S
C240 C241 1.502 . S
C240 C242 1.561 . S
C240 C243 1.526 . S
C241 H225 0.959 . S
C241 H226 0.959 . S
C241 H227 0.961 . S
C241 C240 1.502 . S
C242 H228 0.960 . S
C242 H229 0.961 . S
C242 H230 0.959 . S
C242 C240 1.561 . S
C243 C240 1.526 . S
C243 C244 1.396 . S
C243 C248 1.390 . S
C244 C238 1.465 . S
C244 C243 1.396 . S
C244 C245 1.399 . S
C245 H231 0.929 . S
C245 C244 1.399 . S
C245 C246 1.385 . S
C246 H232 0.931 . S
C246 C245 1.385 . S
C246 C247 1.389 . S
C247 C246 1.389 . S
C247 C248 1.387 . S
C248 H233 0.930 . S
C248 C243 1.390 . S
C248 C247 1.387 . S
H249 C261 0.930 . S
H250 C263 0.930 . S
H251 C264 0.930 . S
H252 C268 0.959 . S
H253 C268 0.959 . S
H254 C268 0.961 . S
H255 C269 0.960 . S
H256 C269 0.961 . S
H257 C269 0.959 . S
H258 C272 0.929 . S
H259 C273 0.931 . S
H260 C275 0.930 . S
C261 H249 0.930 . S
C261 C262 1.399 . S
C261 C266 1.399 . S
C262 C261 1.399 . S
C262 C263 1.376 . S
C263 H250 0.930 . S
C263 C262 1.376 . S
C263 C264 1.388 . S
C264 H251 0.930 . S
C264 C263 1.388 . S
C264 C265 1.390 . S
C265 C264 1.390 . S
C265 C266 1.394 . S
C265 C271 1.465 . S
C266 C261 1.399 . S
C266 C265 1.394 . S
C266 C267 1.516 . S
C267 C266 1.516 . S
C267 C268 1.502 . S
C267 C269 1.561 . S
C267 C270 1.526 . S
C268 H252 0.959 . S
C268 H253 0.959 . S
C268 H254 0.961 . S
C268 C267 1.502 . S
C269 H255 0.960 . S
C269 H256 0.961 . S
C269 H257 0.959 . S
C269 C267 1.561 . S
C270 C267 1.526 . S
C270 C271 1.396 . S
C270 C275 1.390 . S
C271 C265 1.465 . S
C271 C270 1.396 . S
C271 C272 1.399 . S
C272 H258 0.929 . S
C272 C271 1.399 . S
C272 C273 1.385 . S
C273 H259 0.931 . S
C273 C272 1.385 . S
C273 C274 1.389 . S
C274 C273 1.389 . S
C274 C275 1.387 . S
C275 H260 0.930 . S
C275 C270 1.390 . S
C275 C274 1.387 . S
H276 C288 0.930 . S
H277 C290 0.930 . S
H278 C291 0.930 . S
H279 C295 0.959 . S
H280 C295 0.959 . S
H281 C295 0.961 . S
H282 C296 0.960 . S
H283 C296 0.961 . S
H284 C296 0.959 . S
H285 C299 0.929 . S
H286 C300 0.931 . S
H287 C302 0.930 . S
C288 H276 0.930 . S
C288 C289 1.399 . S
C288 C293 1.399 . S
C289 C288 1.399 . S
C289 C290 1.376 . S
C290 H277 0.930 . S
C290 C289 1.376 . S
C290 C291 1.388 . S
C291 H278 0.930 . S
C291 C290 1.388 . S
C291 C292 1.390 . S
C292 C291 1.390 . S
C292 C293 1.394 . S
C292 C298 1.465 . S
C293 C288 1.399 . S
C293 C292 1.394 . S
C293 C294 1.516 . S
C294 C293 1.516 . S
C294 C295 1.502 . S
C294 C296 1.561 . S
C294 C297 1.526 . S
C295 H279 0.959 . S
C295 H280 0.959 . S
C295 H281 0.961 . S
C295 C294 1.502 . S
C296 H282 0.960 . S
C296 H283 0.961 . S
C296 H284 0.959 . S
C296 C294 1.561 . S
C297 C294 1.526 . S
C297 C298 1.396 . S
C297 C302 1.390 . S
C298 C292 1.465 . S
C298 C297 1.396 . S
C298 C299 1.399 . S
C299 H285 0.929 . S
C299 C298 1.399 . S
C299 C300 1.385 . S
C300 H286 0.931 . S
C300 C299 1.385 . S
C300 C301 1.389 . S
C301 C300 1.389 . S
C301 C302 1.387 . S
C302 H287 0.930 . S
C302 C297 1.390 . S
C302 C301 1.387 . S
H303 C315 0.930 . S
H304 C317 0.930 . S
H305 C318 0.930 . S
H306 C322 0.959 . S
H307 C322 0.959 . S
H308 C322 0.961 . S
H309 C323 0.960 . S
H310 C323 0.961 . S
H311 C323 0.959 . S
H312 C326 0.929 . S
H313 C327 0.931 . S
H314 C329 0.930 . S
C315 H303 0.930 . S
C315 C316 1.399 . S
C315 C320 1.399 . S
C316 C315 1.399 . S
C316 C317 1.376 . S
C317 H304 0.930 . S
C317 C316 1.376 . S
C317 C318 1.388 . S
C318 H305 0.930 . S
C318 C317 1.388 . S
C318 C319 1.390 . S
C319 C318 1.390 . S
C319 C320 1.394 . S
C319 C325 1.465 . S
C320 C315 1.399 . S
C320 C319 1.394 . S
C320 C321 1.516 . S
C321 C320 1.516 . S
C321 C322 1.502 . S
C321 C323 1.561 . S
C321 C324 1.526 . S
C322 H306 0.959 . S
C322 H307 0.959 . S
C322 H308 0.961 . S
C322 C321 1.502 . S
C323 H309 0.960 . S
C323 H310 0.961 . S
C323 H311 0.959 . S
C323 C321 1.561 . S
C324 C321 1.526 . S
C324 C325 1.396 . S
C324 C329 1.390 . S
C325 C319 1.465 . S
C325 C324 1.396 . S
C325 C326 1.399 . S
C326 H312 0.929 . S
C326 C325 1.399 . S
C326 C327 1.385 . S
C327 H313 0.931 . S
C327 C326 1.385 . S
C327 C328 1.389 . S
C328 C327 1.389 . S
C328 C329 1.387 . S
C329 H314 0.930 . S
C329 C324 1.390 . S
C329 C328 1.387 . S
H330 C342 0.930 . S
H331 C344 0.930 . S
H332 C345 0.930 . S
H333 C349 0.959 . S
H334 C349 0.959 . S
H335 C349 0.961 . S
H336 C350 0.960 . S
H337 C350 0.961 . S
H338 C350 0.959 . S
H339 C353 0.929 . S
H340 C354 0.931 . S
H341 C356 0.930 . S
C342 H330 0.930 . S
C342 C343 1.399 . S
C342 C347 1.399 . S
C343 C342 1.399 . S
C343 C344 1.376 . S
C344 H331 0.930 . S
C344 C343 1.376 . S
C344 C345 1.388 . S
C345 H332 0.930 . S
C345 C344 1.388 . S
C345 C346 1.390 . S
C346 C345 1.390 . S
C346 C347 1.394 . S
C346 C352 1.465 . S
C347 C342 1.399 . S
C347 C346 1.394 . S
C347 C348 1.516 . S
C348 C347 1.516 . S
C348 C349 1.502 . S
C348 C350 1.561 . S
C348 C351 1.526 . S
C349 H333 0.959 . S
C349 H334 0.959 . S
C349 H335 0.961 . S
C349 C348 1.502 . S
C350 H336 0.960 . S
C350 H337 0.961 . S
C350 H338 0.959 . S
C350 C348 1.561 . S
C351 C348 1.526 . S
C351 C352 1.396 . S
C351 C356 1.390 . S
C352 C346 1.465 . S
C352 C351 1.396 . S
C352 C353 1.399 . S
C353 H339 0.929 . S
C353 C352 1.399 . S
C353 C354 1.385 . S
C354 H340 0.931 . S
C354 C353 1.385 . S
C354 C355 1.389 . S
C355 C354 1.389 . S
C355 C356 1.387 . S
C356 H341 0.930 . S
C356 C351 1.390 . S
C356 C355 1.387 . S
H357 C369 0.930 . S
H358 C371 0.930 . S
H359 C372 0.930 . S
H360 C376 0.959 . S
H361 C376 0.959 . S
H362 C376 0.961 . S
H363 C377 0.960 . S
H364 C377 0.961 . S
H365 C377 0.959 . S
H366 C380 0.929 . S
H367 C381 0.931 . S
H368 C383 0.930 . S
C369 H357 0.930 . S
C369 C370 1.399 . S
C369 C374 1.399 . S
C370 C369 1.399 . S
C370 C371 1.376 . S
C371 H358 0.930 . S
C371 C370 1.376 . S
C371 C372 1.388 . S
C372 H359 0.930 . S
C372 C371 1.388 . S
C372 C373 1.390 . S
C373 C372 1.390 . S
C373 C374 1.394 . S
C373 C379 1.465 . S
C374 C369 1.399 . S
C374 C373 1.394 . S
C374 C375 1.516 . S
C375 C374 1.516 . S
C375 C376 1.502 . S
C375 C377 1.561 . S
C375 C378 1.526 . S
C376 H360 0.959 . S
C376 H361 0.959 . S
C376 H362 0.961 . S
C376 C375 1.502 . S
C377 H363 0.960 . S
C377 H364 0.961 . S
C377 H365 0.959 . S
C377 C375 1.561 . S
C378 C375 1.526 . S
C378 C379 1.396 . S
C378 C383 1.390 . S
C379 C373 1.465 . S
C379 C378 1.396 . S
C379 C380 1.399 . S
C380 H366 0.929 . S
C380 C379 1.399 . S
C380 C381 1.385 . S
C381 H367 0.931 . S
C381 C380 1.385 . S
C381 C382 1.389 . S
C382 C381 1.389 . S
C382 C383 1.387 . S
C383 H368 0.930 . S
C383 C378 1.390 . S
C383 C382 1.387 . S
H384 C396 0.930 . S
H385 C398 0.930 . S
H386 C399 0.930 . S
H387 C403 0.959 . S
H388 C403 0.959 . S
H389 C403 0.961 . S
H390 C404 0.960 . S
H391 C404 0.961 . S
H392 C404 0.959 . S
H393 C407 0.929 . S
H394 C408 0.931 . S
H395 C410 0.930 . S
C396 H384 0.930 . S
C396 C397 1.399 . S
C396 C401 1.399 . S
C397 C396 1.399 . S
C397 C398 1.376 . S
C398 H385 0.930 . S
C398 C397 1.376 . S
C398 C399 1.388 . S
C399 H386 0.930 . S
C399 C398 1.388 . S
C399 C400 1.390 . S
C400 C399 1.390 . S
C400 C401 1.394 . S
C400 C406 1.465 . S
C401 C396 1.399 . S
C401 C400 1.394 . S
C401 C402 1.516 . S
C402 C401 1.516 . S
C402 C403 1.502 . S
C402 C404 1.561 . S
C402 C405 1.526 . S
C403 H387 0.959 . S
C403 H388 0.959 . S
C403 H389 0.961 . S
C403 C402 1.502 . S
C404 H390 0.960 . S
C404 H391 0.961 . S
C404 H392 0.959 . S
C404 C402 1.561 . S
C405 C402 1.526 . S
C405 C406 1.396 . S
C405 C410 1.390 . S
C406 C400 1.465 . S
C406 C405 1.396 . S
C406 C407 1.399 . S
C407 H393 0.929 . S
C407 C406 1.399 . S
C407 C408 1.385 . S
C408 H394 0.931 . S
C408 C407 1.385 . S
C408 C409 1.389 . S
C409 C408 1.389 . S
C409 C410 1.387 . S
C410 H395 0.930 . S
C410 C405 1.390 . S
C410 C409 1.387 . S
H411 C423 0.930 . S
H412 C425 0.930 . S
H413 C426 0.930 . S
H414 C430 0.959 . S
H415 C430 0.959 . S
H416 C430 0.961 . S
H417 C431 0.960 . S
H418 C431 0.961 . S
H419 C431 0.959 . S
H420 C434 0.929 . S
H421 C435 0.931 . S
H422 C437 0.930 . S
C423 H411 0.930 . S
C423 C424 1.399 . S
C423 C428 1.399 . S
C424 C423 1.399 . S
C424 C425 1.376 . S
C425 H412 0.930 . S
C425 C424 1.376 . S
C425 C426 1.388 . S
C426 H413 0.930 . S
C426 C425 1.388 . S
C426 C427 1.390 . S
C427 C426 1.390 . S
C427 C428 1.394 . S
C427 C433 1.465 . S
C428 C423 1.399 . S
C428 C427 1.394 . S
C428 C429 1.516 . S
C429 C428 1.516 . S
C429 C430 1.502 . S
C429 C431 1.561 . S
C429 C432 1.526 . S
C430 H414 0.959 . S
C430 H415 0.959 . S
C430 H416 0.961 . S
C430 C429 1.502 . S
C431 H417 0.960 . S
C431 H418 0.961 . S
C431 H419 0.959 . S
C431 C429 1.561 . S
C432 C429 1.526 . S
C432 C433 1.396 . S
C432 C437 1.390 . S
C433 C427 1.465 . S
C433 C432 1.396 . S
C433 C434 1.399 . S
C434 H420 0.929 . S
C434 C433 1.399 . S
C434 C435 1.385 . S
C435 H421 0.931 . S
C435 C434 1.385 . S
C435 C436 1.389 . S
C436 C435 1.389 . S
C436 C437 1.387 . S
C437 H422 0.930 . S
C437 C432 1.390 . S
C437 C436 1.387 . S
H438 C450 0.930 . S
H439 C452 0.930 . S
H440 C453 0.930 . S
H441 C457 0.959 . S
H442 C457 0.959 . S
H443 C457 0.961 . S
H444 C458 0.960 . S
H445 C458 0.961 . S
H446 C458 0.959 . S
H447 C461 0.929 . S
H448 C462 0.931 . S
H449 C464 0.930 . S
C450 H438 0.930 . S
C450 C451 1.399 . S
C450 C455 1.399 . S
C451 C450 1.399 . S
C451 C452 1.376 . S
C452 H439 0.930 . S
C452 C451 1.376 . S
C452 C453 1.388 . S
C453 H440 0.930 . S
C453 C452 1.388 . S
C453 C454 1.390 . S
C454 C453 1.390 . S
C454 C455 1.394 . S
C454 C460 1.465 . S
C455 C450 1.399 . S
C455 C454 1.394 . S
C455 C456 1.516 . S
C456 C455 1.516 . S
C456 C457 1.502 . S
C456 C458 1.561 . S
C456 C459 1.526 . S
C457 H441 0.959 . S
C457 H442 0.959 . S
C457 H443 0.961 . S
C457 C456 1.502 . S
C458 H444 0.960 . S
C458 H445 0.961 . S
C458 H446 0.959 . S
C458 C456 1.561 . S
C459 C456 1.526 . S
C459 C460 1.396 . S
C459 C464 1.390 . S
C460 C454 1.465 . S
C460 C459 1.396 . S
C460 C461 1.399 . S
C461 H447 0.929 . S
C461 C460 1.399 . S
C461 C462 1.385 . S
C462 H448 0.931 . S
C462 C461 1.385 . S
C462 C463 1.389 . S
C463 C462 1.389 . S
C463 C464 1.387 . S
C464 H449 0.930 . S
C464 C459 1.390 . S
C464 C463 1.387 . S
H465 C477 0.930 . S
H466 C479 0.930 . S
H467 C480 0.930 . S
H468 C484 0.959 . S
H469 C484 0.959 . S
H470 C484 0.961 . S
H471 C485 0.960 . S
H472 C485 0.961 . S
H473 C485 0.959 . S
H474 C488 0.929 . S
H475 C489 0.931 . S
H476 C491 0.930 . S
C477 H465 0.930 . S
C477 C478 1.399 . S
C477 C482 1.399 . S
C478 C477 1.399 . S
C478 C479 1.376 . S
C479 H466 0.930 . S
C479 C478 1.376 . S
C479 C480 1.388 . S
C480 H467 0.930 . S
C480 C479 1.388 . S
C480 C481 1.390 . S
C481 C480 1.390 . S
C481 C482 1.394 . S
C481 C487 1.465 . S
C482 C477 1.399 . S
C482 C481 1.394 . S
C482 C483 1.516 . S
C483 C482 1.516 . S
C483 C484 1.502 . S
C483 C485 1.561 . S
C483 C486 1.526 . S
C484 H468 0.959 . S
C484 H469 0.959 . S
C484 H470 0.961 . S
C484 C483 1.502 . S
C485 H471 0.960 . S
C485 H472 0.961 . S
C485 H473 0.959 . S
C485 C483 1.561 . S
C486 C483 1.526 . S
C486 C487 1.396 . S
C486 C491 1.390 . S
C487 C481 1.465 . S
C487 C486 1.396 . S
C487 C488 1.399 . S
C488 H474 0.929 . S
C488 C487 1.399 . S
C488 C489 1.385 . S
C489 H475 0.931 . S
C489 C488 1.385 . S
C489 C490 1.389 . S
C490 C489 1.389 . S
C490 C491 1.387 . S
C491 H476 0.930 . S
C491 C486 1.390 . S
C491 C490 1.387 . S
H492 C504 0.930 . S
H493 C506 0.930 . S
H494 C507 0.930 . S
H495 C511 0.959 . S
H496 C511 0.959 . S
H497 C511 0.961 . S
H498 C512 0.960 . S
H499 C512 0.961 . S
H500 C512 0.959 . S
H501 C515 0.929 . S
H502 C516 0.931 . S
H503 C518 0.930 . S
C504 H492 0.930 . S
C504 C505 1.399 . S
C504 C509 1.399 . S
C505 C504 1.399 . S
C505 C506 1.376 . S
C506 H493 0.930 . S
C506 C505 1.376 . S
C506 C507 1.388 . S
C507 H494 0.930 . S
C507 C506 1.388 . S
C507 C508 1.390 . S
C508 C507 1.390 . S
C508 C509 1.394 . S
C508 C514 1.465 . S
C509 C504 1.399 . S
C509 C508 1.394 . S
C509 C510 1.516 . S
C510 C509 1.516 . S
C510 C511 1.502 . S
C510 C512 1.561 . S
C510 C513 1.526 . S
C511 H495 0.959 . S
C511 H496 0.959 . S
C511 H497 0.961 . S
C511 C510 1.502 . S
C512 H498 0.960 . S
C512 H499 0.961 . S
C512 H500 0.959 . S
C512 C510 1.561 . S
C513 C510 1.526 . S
C513 C514 1.396 . S
C513 C518 1.390 . S
C514 C508 1.465 . S
C514 C513 1.396 . S
C514 C515 1.399 . S
C515 H501 0.929 . S
C515 C514 1.399 . S
C515 C516 1.385 . S
C516 H502 0.931 . S
C516 C515 1.385 . S
C516 C517 1.389 . S
C517 C516 1.389 . S
C517 C518 1.387 . S
C518 H503 0.930 . S
C518 C513 1.390 . S
C518 C517 1.387 . S
H519 C531 0.930 . S
H520 C533 0.930 . S
H521 C534 0.930 . S
H522 C538 0.959 . S
H523 C538 0.959 . S
H524 C538 0.961 . S
H525 C539 0.960 . S
H526 C539 0.961 . S
H527 C539 0.959 . S
H528 C542 0.929 . S
H529 C543 0.931 . S
H530 C545 0.930 . S
C531 H519 0.930 . S
C531 C532 1.399 . S
C531 C536 1.399 . S
C532 C531 1.399 . S
C532 C533 1.376 . S
C533 H520 0.930 . S
C533 C532 1.376 . S
C533 C534 1.388 . S
C534 H521 0.930 . S
C534 C533 1.388 . S
C534 C535 1.390 . S
C535 C534 1.390 . S
C535 C536 1.394 . S
C535 C541 1.465 . S
C536 C531 1.399 . S
C536 C535 1.394 . S
C536 C537 1.516 . S
C537 C536 1.516 . S
C537 C538 1.502 . S
C537 C539 1.561 . S
C537 C540 1.526 . S
C538 H522 0.959 . S
C538 H523 0.959 . S
C538 H524 0.961 . S
C538 C537 1.502 . S
C539 H525 0.960 . S
C539 H526 0.961 . S
C539 H527 0.959 . S
C539 C537 1.561 . S
C540 C537 1.526 . S
C540 C541 1.396 . S
C540 C545 1.390 . S
C541 C535 1.465 . S
C541 C540 1.396 . S
C541 C542 1.399 . S
C542 H528 0.929 . S
C542 C541 1.399 . S
C542 C543 1.385 . S
C543 H529 0.931 . S
C543 C542 1.385 . S
C543 C544 1.389 . S
C544 C543 1.389 . S
C544 C545 1.387 . S
C545 H530 0.930 . S
C545 C540 1.390 . S
C545 C544 1.387 . S
H546 C558 0.930 . S
H547 C560 0.930 . S
H548 C561 0.930 . S
H549 C565 0.959 . S
H550 C565 0.959 . S
H551 C565 0.961 . S
H552 C566 0.960 . S
H553 C566 0.961 . S
H554 C566 0.959 . S
H555 C569 0.929 . S
H556 C570 0.931 . S
H557 C572 0.930 . S
C558 H546 0.930 . S
C558 C559 1.399 . S
C558 C563 1.399 . S
C559 C558 1.399 . S
C559 C560 1.376 . S
C560 H547 0.930 . S
C560 C559 1.376 . S
C560 C561 1.388 . S
C561 H548 0.930 . S
C561 C560 1.388 . S
C561 C562 1.390 . S
C562 C561 1.390 . S
C562 C563 1.394 . S
C562 C568 1.465 . S
C563 C558 1.399 . S
C563 C562 1.394 . S
C563 C564 1.516 . S
C564 C563 1.516 . S
C564 C565 1.502 . S
C564 C566 1.561 . S
C564 C567 1.526 . S
C565 H549 0.959 . S
C565 H550 0.959 . S
C565 H551 0.961 . S
C565 C564 1.502 . S
C566 H552 0.960 . S
C566 H553 0.961 . S
C566 H554 0.959 . S
C566 C564 1.561 . S
C567 C564 1.526 . S
C567 C568 1.396 . S
C567 C572 1.390 . S
C568 C562 1.465 . S
C568 C567 1.396 . S
C568 C569 1.399 . S
C569 H555 0.929 . S
C569 C568 1.399 . S
C569 C570 1.385 . S
C570 H556 0.931 . S
C570 C569 1.385 . S
C570 C571 1.389 . S
C571 C570 1.389 . S
C571 C572 1.387 . S
C572 H557 0.930 . S
C572 C567 1.390 . S
C572 C571 1.387 . S
H573 C585 0.930 . S
H574 C587 0.930 . S
H575 C588 0.930 . S
H576 C592 0.959 . S
H577 C592 0.959 . S
H578 C592 0.961 . S
H579 C593 0.960 . S
H580 C593 0.961 . S
H581 C593 0.959 . S
H582 C596 0.929 . S
H583 C597 0.931 . S
H584 C599 0.930 . S
C585 H573 0.930 . S
C585 C586 1.399 . S
C585 C590 1.399 . S
C586 C585 1.399 . S
C586 C587 1.376 . S
C587 H574 0.930 . S
C587 C586 1.376 . S
C587 C588 1.388 . S
C588 H575 0.930 . S
C588 C587 1.388 . S
C588 C589 1.390 . S
C589 C588 1.390 . S
C589 C590 1.394 . S
C589 C595 1.465 . S
C590 C585 1.399 . S
C590 C589 1.394 . S
C590 C591 1.516 . S
C591 C590 1.516 . S
C591 C592 1.502 . S
C591 C593 1.561 . S
C591 C594 1.526 . S
C592 H576 0.959 . S
C592 H577 0.959 . S
C592 H578 0.961 . S
C592 C591 1.502 . S
C593 H579 0.960 . S
C593 H580 0.961 . S
C593 H581 0.959 . S
C593 C591 1.561 . S
C594 C591 1.526 . S
C594 C595 1.396 . S
C594 C599 1.390 . S
C595 C589 1.465 . S
C595 C594 1.396 . S
C595 C596 1.399 . S
C596 H582 0.929 . S
C596 C595 1.399 . S
C596 C597 1.385 . S
C597 H583 0.931 . S
C597 C596 1.385 . S
C597 C598 1.389 . S
C598 C597 1.389 . S
C598 C599 1.387 . S
C599 H584 0.930 . S
C599 C594 1.390 . S
C599 C598 1.387 . S
H600 C612 0.930 . S
H601 C614 0.930 . S
H602 C615 0.930 . S
H603 C619 0.959 . S
H604 C619 0.959 . S
H605 C619 0.961 . S
H606 C620 0.960 . S
H607 C620 0.961 . S
H608 C620 0.959 . S
H609 C623 0.929 . S
H610 C624 0.931 . S
H611 C626 0.930 . S
C612 H600 0.930 . S
C612 C613 1.399 . S
C612 C617 1.399 . S
C613 C612 1.399 . S
C613 C614 1.376 . S
C614 H601 0.930 . S
C614 C613 1.376 . S
C614 C615 1.388 . S
C615 H602 0.930 . S
C615 C614 1.388 . S
C615 C616 1.390 . S
C616 C615 1.390 . S
C616 C617 1.394 . S
C616 C622 1.465 . S
C617 C612 1.399 . S
C617 C616 1.394 . S
C617 C618 1.516 . S
C618 C617 1.516 . S
C618 C619 1.502 . S
C618 C620 1.561 . S
C618 C621 1.526 . S
C619 H603 0.959 . S
C619 H604 0.959 . S
C619 H605 0.961 . S
C619 C618 1.502 . S
C620 H606 0.960 . S
C620 H607 0.961 . S
C620 H608 0.959 . S
C620 C618 1.561 . S
C621 C618 1.526 . S
C621 C622 1.396 . S
C621 C626 1.390 . S
C622 C616 1.465 . S
C622 C621 1.396 . S
C622 C623 1.399 . S
C623 H609 0.929 . S
C623 C622 1.399 . S
C623 C624 1.385 . S
C624 H610 0.931 . S
C624 C623 1.385 . S
C624 C625 1.389 . S
C625 C624 1.389 . S
C625 C626 1.387 . S
C626 H611 0.930 . S
C626 C621 1.390 . S
C626 C625 1.387 . S
H627 C639 0.930 . S
H628 C641 0.930 . S
H629 C642 0.930 . S
H630 C646 0.959 . S
H631 C646 0.959 . S
H632 C646 0.961 . S
H633 C647 0.960 . S
H634 C647 0.961 . S
H635 C647 0.959 . S
H636 C650 0.929 . S
H637 C651 0.931 . S
H638 C653 0.930 . S
C639 H627 0.930 . S
C639 C640 1.399 . S
C639 C644 1.399 . S
C640 C639 1.399 . S
C640 C641 1.376 . S
C641 H628 0.930 . S
C641 C640 1.376 . S
C641 C642 1.388 . S
C642 H629 0.930 . S
C642 C641 1.388 . S
C642 C643 1.390 . S
C643 C642 1.390 . S
C643 C644 1.394 . S
C643 C649 1.465 . S
C644 C639 1.399 . S
C644 C643 1.394 . S
C644 C645 1.516 . S
C645 C644 1.516 . S
C645 C646 1.502 . S
C645 C647 1.561 . S
C645 C648 1.526 . S
C646 H630 0.959 . S
C646 H631 0.959 . S
C646 H632 0.961 . S
C646 C645 1.502 . S
C647 H633 0.960 . S
C647 H634 0.961 . S
C647 H635 0.959 . S
C647 C645 1.561 . S
C648 C645 1.526 . S
C648 C649 1.396 . S
C648 C653 1.390 . S
C649 C643 1.465 . S
C649 C648 1.396 . S
C649 C650 1.399 . S
C650 H636 0.929 . S
C650 C649 1.399 . S
C650 C651 1.385 . S
C651 H637 0.931 . S
C651 C650 1.385 . S
C651 C652 1.389 . S
C652 C651 1.389 . S
C652 C653 1.387 . S
C653 H638 0.930 . S
C653 C648 1.390 . S
C653 C652 1.387 . S
H654 C666 0.930 . S
H655 C668 0.930 . S
H656 C669 0.930 . S
H657 C673 0.959 . S
H658 C673 0.959 . S
H659 C673 0.961 . S
H660 C674 0.960 . S
H661 C674 0.961 . S
H662 C674 0.959 . S
H663 C677 0.929 . S
H664 C678 0.931 . S
H665 C680 0.930 . S
C666 H654 0.930 . S
C666 C667 1.399 . S
C666 C671 1.399 . S
C667 C666 1.399 . S
C667 C668 1.376 . S
C668 H655 0.930 . S
C668 C667 1.376 . S
C668 C669 1.388 . S
C669 H656 0.930 . S
C669 C668 1.388 . S
C669 C670 1.390 . S
C670 C669 1.390 . S
C670 C671 1.394 . S
C670 C676 1.465 . S
C671 C666 1.399 . S
C671 C670 1.394 . S
C671 C672 1.516 . S
C672 C671 1.516 . S
C672 C673 1.502 . S
C672 C674 1.561 . S
C672 C675 1.526 . S
C673 H657 0.959 . S
C673 H658 0.959 . S
C673 H659 0.961 . S
C673 C672 1.502 . S
C674 H660 0.960 . S
C674 H661 0.961 . S
C674 H662 0.959 . S
C674 C672 1.561 . S
C675 C672 1.526 . S
C675 C676 1.396 . S
C675 C680 1.390 . S
C676 C670 1.465 . S
C676 C675 1.396 . S
C676 C677 1.399 . S
C677 H663 0.929 . S
C677 C676 1.399 . S
C677 C678 1.385 . S
C678 H664 0.931 . S
C678 C677 1.385 . S
C678 C679 1.389 . S
C679 C678 1.389 . S
C679 C680 1.387 . S
C680 H665 0.930 . S
C680 C675 1.390 . S
C680 C679 1.387 . S
H681 C693 0.930 . S
H682 C695 0.930 . S
H683 C696 0.930 . S
H684 C700 0.959 . S
H685 C700 0.959 . S
H686 C700 0.961 . S
H687 C701 0.960 . S
H688 C701 0.961 . S
H689 C701 0.959 . S
H690 C704 0.929 . S
H691 C705 0.931 . S
H692 C707 0.930 . S
C693 H681 0.930 . S
C693 C694 1.399 . S
C693 C698 1.399 . S
C694 C693 1.399 . S
C694 C695 1.376 . S
C695 H682 0.930 . S
C695 C694 1.376 . S
C695 C696 1.388 . S
C696 H683 0.930 . S
C696 C695 1.388 . S
C696 C697 1.390 . S
C697 C696 1.390 . S
C697 C698 1.394 . S
C697 C703 1.465 . S
C698 C693 1.399 . S
C698 C697 1.394 . S
C698 C699 1.516 . S
C699 C698 1.516 . S
C699 C700 1.502 . S
C699 C701 1.561 . S
C699 C702 1.526 . S
C700 H684 0.959 . S
C700 H685 0.959 . S
C700 H686 0.961 . S
C700 C699 1.502 . S
C701 H687 0.960 . S
C701 H688 0.961 . S
C701 H689 0.959 . S
C701 C699 1.561 . S
C702 C699 1.526 . S
C702 C703 1.396 . S
C702 C707 1.390 . S
C703 C697 1.465 . S
C703 C702 1.396 . S
C703 C704 1.399 . S
C704 H690 0.929 . S
C704 C703 1.399 . S
C704 C705 1.385 . S
C705 H691 0.931 . S
C705 C704 1.385 . S
C705 C706 1.389 . S
C706 C705 1.389 . S
C706 C707 1.387 . S
C707 H692 0.930 . S
C707 C702 1.390 . S
C707 C706 1.387 . S
H708 C720 0.930 . S
H709 C722 0.930 . S
H710 C723 0.930 . S
H711 C727 0.959 . S
H712 C727 0.959 . S
H713 C727 0.961 . S
H714 C728 0.960 . S
H715 C728 0.961 . S
H716 C728 0.959 . S
H717 C731 0.929 . S
H718 C732 0.931 . S
H719 C734 0.930 . S
C720 H708 0.930 . S
C720 C721 1.399 . S
C720 C725 1.399 . S
C721 C720 1.399 . S
C721 C722 1.376 . S
C722 H709 0.930 . S
C722 C721 1.376 . S
C722 C723 1.388 . S
C723 H710 0.930 . S
C723 C722 1.388 . S
C723 C724 1.390 . S
C724 C723 1.390 . S
C724 C725 1.394 . S
C724 C730 1.465 . S
C725 C720 1.399 . S
C725 C724 1.394 . S
C725 C726 1.516 . S
C726 C725 1.516 . S
C726 C727 1.502 . S
C726 C728 1.561 . S
C726 C729 1.526 . S
C727 H711 0.959 . S
C727 H712 0.959 . S
C727 H713 0.961 . S
C727 C726 1.502 . S
C728 H714 0.960 . S
C728 H715 0.961 . S
C728 H716 0.959 . S
C728 C726 1.561 . S
C729 C726 1.526 . S
C729 C730 1.396 . S
C729 C734 1.390 . S
C730 C724 1.465 . S
C730 C729 1.396 . S
C730 C731 1.399 . S
C731 H717 0.929 . S
C731 C730 1.399 . S
C731 C732 1.385 . S
C732 H718 0.931 . S
C732 C731 1.385 . S
C732 C733 1.389 . S
C733 C732 1.389 . S
C733 C734 1.387 . S
C734 H719 0.930 . S
C734 C729 1.390 . S
C734 C733 1.387 . S
H735 C747 0.930 . S
H736 C749 0.930 . S
H737 C750 0.930 . S
H738 C754 0.959 . S
H739 C754 0.959 . S
H740 C754 0.961 . S
H741 C755 0.960 . S
H742 C755 0.961 . S
H743 C755 0.959 . S
H744 C758 0.929 . S
H745 C759 0.931 . S
H746 C761 0.930 . S
C747 H735 0.930 . S
C747 C748 1.399 . S
C747 C752 1.399 . S
C748 C747 1.399 . S
C748 C749 1.376 . S
C749 H736 0.930 . S
C749 C748 1.376 . S
C749 C750 1.388 . S
C750 H737 0.930 . S
C750 C749 1.388 . S
C750 C751 1.390 . S
C751 C750 1.390 . S
C751 C752 1.394 . S
C751 C757 1.465 . S
C752 C747 1.399 . S
C752 C751 1.394 . S
C752 C753 1.516 . S
C753 C752 1.516 . S
C753 C754 1.502 . S
C753 C755 1.561 . S
C753 C756 1.526 . S
C754 H738 0.959 . S
C754 H739 0.959 . S
C754 H740 0.961 . S
C754 C753 1.502 . S
C755 H741 0.960 . S
C755 H742 0.961 . S
C755 H743 0.959 . S
C755 C753 1.561 . S
C756 C753 1.526 . S
C756 C757 1.396 . S
C756 C761 1.390 . S
C757 C751 1.465 . S
C757 C756 1.396 . S
C757 C758 1.399 . S
C758 H744 0.929 . S
C758 C757 1.399 . S
C758 C759 1.385 . S
C759 H745 0.931 . S
C759 C758 1.385 . S
C759 C760 1.389 . S
C760 C759 1.389 . S
C760 C761 1.387 . S
C761 H746 0.930 . S
C761 C756 1.390 . S
C761 C760 1.387 . S
H762 C774 0.930 . S
H763 C776 0.930 . S
H764 C777 0.930 . S
H765 C781 0.959 . S
H766 C781 0.959 . S
H767 C781 0.961 . S
H768 C782 0.960 . S
H769 C782 0.961 . S
H770 C782 0.959 . S
H771 C785 0.929 . S
H772 C786 0.931 . S
H773 C788 0.930 . S
C774 H762 0.930 . S
C774 C775 1.399 . S
C774 C779 1.399 . S
C775 C774 1.399 . S
C775 C776 1.376 . S
C776 H763 0.930 . S
C776 C775 1.376 . S
C776 C777 1.388 . S
C777 H764 0.930 . S
C777 C776 1.388 . S
C777 C778 1.390 . S
C778 C777 1.390 . S
C778 C779 1.394 . S
C778 C784 1.465 . S
C779 C774 1.399 . S
C779 C778 1.394 . S
C779 C780 1.516 . S
C780 C779 1.516 . S
C780 C781 1.502 . S
C780 C782 1.561 . S
C780 C783 1.526 . S
C781 H765 0.959 . S
C781 H766 0.959 . S
C781 H767 0.961 . S
C781 C780 1.502 . S
C782 H768 0.960 . S
C782 H769 0.961 . S
C782 H770 0.959 . S
C782 C780 1.561 . S
C783 C780 1.526 . S
C783 C784 1.396 . S
C783 C788 1.390 . S
C784 C778 1.465 . S
C784 C783 1.396 . S
C784 C785 1.399 . S
C785 H771 0.929 . S
C785 C784 1.399 . S
C785 C786 1.385 . S
C786 H772 0.931 . S
C786 C785 1.385 . S
C786 C787 1.389 . S
C787 C786 1.389 . S
C787 C788 1.387 . S
C788 H773 0.930 . S
C788 C783 1.390 . S
C788 C787 1.387 . S
H789 C801 0.930 . S
H790 C803 0.930 . S
H791 C804 0.930 . S
H792 C808 0.959 . S
H793 C808 0.959 . S
H794 C808 0.961 . S
H795 C809 0.960 . S
H796 C809 0.961 . S
H797 C809 0.959 . S
H798 C812 0.929 . S
H799 C813 0.931 . S
H800 C815 0.930 . S
C801 H789 0.930 . S
C801 C802 1.399 . S
C801 C806 1.399 . S
C802 C801 1.399 . S
C802 C803 1.376 . S
C803 H790 0.930 . S
C803 C802 1.376 . S
C803 C804 1.388 . S
C804 H791 0.930 . S
C804 C803 1.388 . S
C804 C805 1.390 . S
C805 C804 1.390 . S
C805 C806 1.394 . S
C805 C811 1.465 . S
C806 C801 1.399 . S
C806 C805 1.394 . S
C806 C807 1.516 . S
C807 C806 1.516 . S
C807 C808 1.502 . S
C807 C809 1.561 . S
C807 C810 1.526 . S
C808 H792 0.959 . S
C808 H793 0.959 . S
C808 H794 0.961 . S
C808 C807 1.502 . S
C809 H795 0.960 . S
C809 H796 0.961 . S
C809 H797 0.959 . S
C809 C807 1.561 . S
C810 C807 1.526 . S
C810 C811 1.396 . S
C810 C815 1.390 . S
C811 C805 1.465 . S
C811 C810 1.396 . S
C811 C812 1.399 . S
C812 H798 0.929 . S
C812 C811 1.399 . S
C812 C813 1.385 . S
C813 H799 0.931 . S
C813 C812 1.385 . S
C813 C814 1.389 . S
C814 C813 1.389 . S
C814 C815 1.387 . S
C815 H800 0.930 . S
C815 C810 1.390 . S
C815 C814 1.387 . S
H816 C828 0.930 . S
H817 C830 0.930 . S
H818 C831 0.930 . S
H819 C835 0.959 . S
H820 C835 0.959 . S
H821 C835 0.961 . S
H822 C836 0.960 . S
H823 C836 0.961 . S
H824 C836 0.959 . S
H825 C839 0.929 . S
H826 C840 0.931 . S
H827 C842 0.930 . S
C828 H816 0.930 . S
C828 C829 1.399 . S
C828 C833 1.399 . S
C829 C828 1.399 . S
C829 C830 1.376 . S
C830 H817 0.930 . S
C830 C829 1.376 . S
C830 C831 1.388 . S
C831 H818 0.930 . S
C831 C830 1.388 . S
C831 C832 1.390 . S
C832 C831 1.390 . S
C832 C833 1.394 . S
C832 C838 1.465 . S
C833 C828 1.399 . S
C833 C832 1.394 . S
C833 C834 1.516 . S
C834 C833 1.516 . S
C834 C835 1.502 . S
C834 C836 1.561 . S
C834 C837 1.526 . S
C835 H819 0.959 . S
C835 H820 0.959 . S
C835 H821 0.961 . S
C835 C834 1.502 . S
C836 H822 0.960 . S
C836 H823 0.961 . S
C836 H824 0.959 . S
C836 C834 1.561 . S
C837 C834 1.526 . S
C837 C838 1.396 . S
C837 C842 1.390 . S
C838 C832 1.465 . S
C838 C837 1.396 . S
C838 C839 1.399 . S
C839 H825 0.929 . S
C839 C838 1.399 . S
C839 C840 1.385 . S
C840 H826 0.931 . S
C840 C839 1.385 . S
C840 C841 1.389 . S
C841 C840 1.389 . S
C841 C842 1.387 . S
C842 H827 0.930 . S
C842 C837 1.390 . S
C842 C841 1.387 . S
H843 C855 0.930 . S
H844 C857 0.930 . S
H845 C858 0.930 . S
H846 C862 0.959 . S
H847 C862 0.959 . S
H848 C862 0.961 . S
H849 C863 0.960 . S
H850 C863 0.961 . S
H851 C863 0.959 . S
H852 C866 0.929 . S
H853 C867 0.931 . S
H854 C869 0.930 . S
C855 H843 0.930 . S
C855 C856 1.399 . S
C855 C860 1.399 . S
C856 C855 1.399 . S
C856 C857 1.376 . S
C857 H844 0.930 . S
C857 C856 1.376 . S
C857 C858 1.388 . S
C858 H845 0.930 . S
C858 C857 1.388 . S
C858 C859 1.390 . S
C859 C858 1.390 . S
C859 C860 1.394 . S
C859 C865 1.465 . S
C860 C855 1.399 . S
C860 C859 1.394 . S
C860 C861 1.516 . S
C861 C860 1.516 . S
C861 C862 1.502 . S
C861 C863 1.561 . S
C861 C864 1.526 . S
C862 H846 0.959 . S
C862 H847 0.959 . S
C862 H848 0.961 . S
C862 C861 1.502 . S
C863 H849 0.960 . S
C863 H850 0.961 . S
C863 H851 0.959 . S
C863 C861 1.561 . S
C864 C861 1.526 . S
C864 C865 1.396 . S
C864 C869 1.390 . S
C865 C859 1.465 . S
C865 C864 1.396 . S
C865 C866 1.399 . S
C866 H852 0.929 . S
C866 C865 1.399 . S
C866 C867 1.385 . S
C867 H853 0.931 . S
C867 C866 1.385 . S
C867 C868 1.389 . S
C868 C867 1.389 . S
C868 C869 1.387 . S
C869 H854 0.930 . S
C869 C864 1.390 . S
C869 C868 1.387 . S
C235 C7 1.794 . S
C247 C139 1.803 . S
C262 C30 1.590 . S
C274 C164 1.581 . S
C301 C167 1.628 . S
C289 N58 1.649 . S
C328 C193 1.465 . S
C316 N81 1.379 . S
C355 C194 1.722 . S
C343 C99 1.749 . S
C382 C221 1.412 . S
C370 N127 1.411 . S
C397 N25 1.604 . S
C409 C166 1.636 . S
C424 C62 1.583 . S
C436 C192 1.587 . S
C463 C195 1.752 . S
C451 C85 1.743 . S
C490 C220 1.441 . S
C478 N94 1.394 . S
C505 C131 1.765 . S
C517 C138 1.723 . S
C544 C165 1.434 . S
C532 N2 1.458 . S
C571 C180 1.729 . S
C559 C16 1.766 . S
C586 C39 1.567 . S
C598 C207 1.526 . S
C625 C208 1.619 . S
C613 N48 1.647 . S
C640 N71 1.424 . S
C652 C150 1.429 . S
C667 C108 1.743 . S
C679 C153 1.715 . S
C694 N117 1.425 . S
C706 C178 1.423 . S
C721 N35 1.643 . S
C733 C209 1.616 . S
C760 C151 1.588 . S
C748 C53 1.578 . S
C775 C76 1.777 . S
C787 C152 1.780 . S
C802 N104 1.384 . S
C814 C179 1.448 . S
C829 C122 1.745 . S
C841 C181 1.701 . S
C856 N12 1.409 . S
C868 C206 1.407 . S
