# Generated by pormake.
# Topology ocu, (6,8)-cn, num edge types: 1
# Building blocks:
#     Node 0, Type 0, BuildingBlock: PAMTOO_clean_sbu_0, # of connection points: 6
#     Node 1, Type 0, BuildingBlock: PAMTOO_clean_sbu_0, # of connection points: 6
#     Node 2, Type 0, BuildingBlock: PAMTOO_clean_sbu_0, # of connection points: 6
#     Node 3, Type 0, BuildingBlock: PAMTOO_clean_sbu_0, # of connection points: 6
#     Node 4, Type 0, BuildingBlock: PAMTOO_clean_sbu_0, # of connection points: 6
#     Node 5, Type 0, BuildingBlock: PAMTOO_clean_sbu_0, # of connection points: 6
#     Node 6, Type 0, BuildingBlock: PAMTOO_clean_sbu_0, # of connection points: 6
#     Node 7, Type 0, BuildingBlock: PAMTOO_clean_sbu_0, # of connection points: 6
#     Node 8, Type 1, BuildingBlock: VETTIZ_charged_sbu_0, # of connection points: 8
#     Node 9, Type 1, BuildingBlock: VETTIZ_charged_sbu_0, # of connection points: 8
#     Node 10, Type 1, BuildingBlock: VETTIZ_charged_sbu_0, # of connection points: 8
#     Node 11, Type 1, BuildingBlock: VETTIZ_charged_sbu_0, # of connection points: 8
#     Node 12, Type 1, BuildingBlock: VETTIZ_charged_sbu_0, # of connection points: 8
#     Node 13, Type 1, BuildingBlock: VETTIZ_charged_sbu_0, # of connection points: 8
#     Edge 14, Type (0, 1), BuildingBlock: XIVTED_clean_linker_0, # of connection points: 2
#     Edge 15, Type (0, 1), BuildingBlock: XIVTED_clean_linker_0, # of connection points: 2
#     Edge 16, Type (0, 1), BuildingBlock: XIVTED_clean_linker_0, # of connection points: 2
#     Edge 17, Type (0, 1), BuildingBlock: XIVTED_clean_linker_0, # of connection points: 2
#     Edge 18, Type (0, 1), BuildingBlock: XIVTED_clean_linker_0, # of connection points: 2
#     Edge 19, Type (0, 1), BuildingBlock: XIVTED_clean_linker_0, # of connection points: 2
#     Edge 20, Type (0, 1), BuildingBlock: XIVTED_clean_linker_0, # of connection points: 2
#     Edge 21, Type (0, 1), BuildingBlock: XIVTED_clean_linker_0, # of connection points: 2
#     Edge 22, Type (0, 1), BuildingBlock: XIVTED_clean_linker_0, # of connection points: 2
#     Edge 23, Type (0, 1), BuildingBlock: XIVTED_clean_linker_0, # of connection points: 2
#     Edge 24, Type (0, 1), BuildingBlock: XIVTED_clean_linker_0, # of connection points: 2
#     Edge 25, Type (0, 1), BuildingBlock: XIVTED_clean_linker_0, # of connection points: 2
#     Edge 26, Type (0, 1), BuildingBlock: XIVTED_clean_linker_0, # of connection points: 2
#     Edge 27, Type (0, 1), BuildingBlock: XIVTED_clean_linker_0, # of connection points: 2
#     Edge 28, Type (0, 1), BuildingBlock: XIVTED_clean_linker_0, # of connection points: 2
#     Edge 29, Type (0, 1), BuildingBlock: XIVTED_clean_linker_0, # of connection points: 2
#     Edge 30, Type (0, 1), BuildingBlock: XIVTED_clean_linker_0, # of connection points: 2
#     Edge 31, Type (0, 1), BuildingBlock: XIVTED_clean_linker_0, # of connection points: 2
#     Edge 32, Type (0, 1), BuildingBlock: XIVTED_clean_linker_0, # of connection points: 2
#     Edge 33, Type (0, 1), BuildingBlock: XIVTED_clean_linker_0, # of connection points: 2
#     Edge 34, Type (0, 1), BuildingBlock: XIVTED_clean_linker_0, # of connection points: 2
#     Edge 35, Type (0, 1), BuildingBlock: XIVTED_clean_linker_0, # of connection points: 2
#     Edge 36, Type (0, 1), BuildingBlock: XIVTED_clean_linker_0, # of connection points: 2
#     Edge 37, Type (0, 1), BuildingBlock: XIVTED_clean_linker_0, # of connection points: 2
#     Edge 38, Type (0, 1), BuildingBlock: XIVTED_clean_linker_0, # of connection points: 2
#     Edge 39, Type (0, 1), BuildingBlock: XIVTED_clean_linker_0, # of connection points: 2
#     Edge 40, Type (0, 1), BuildingBlock: XIVTED_clean_linker_0, # of connection points: 2
#     Edge 41, Type (0, 1), BuildingBlock: XIVTED_clean_linker_0, # of connection points: 2
#     Edge 42, Type (0, 1), BuildingBlock: XIVTED_clean_linker_0, # of connection points: 2
#     Edge 43, Type (0, 1), BuildingBlock: XIVTED_clean_linker_0, # of connection points: 2
#     Edge 44, Type (0, 1), BuildingBlock: XIVTED_clean_linker_0, # of connection points: 2
#     Edge 45, Type (0, 1), BuildingBlock: XIVTED_clean_linker_0, # of connection points: 2
#     Edge 46, Type (0, 1), BuildingBlock: XIVTED_clean_linker_0, # of connection points: 2
#     Edge 47, Type (0, 1), BuildingBlock: XIVTED_clean_linker_0, # of connection points: 2
#     Edge 48, Type (0, 1), BuildingBlock: XIVTED_clean_linker_0, # of connection points: 2
#     Edge 49, Type (0, 1), BuildingBlock: XIVTED_clean_linker_0, # of connection points: 2
#     Edge 50, Type (0, 1), BuildingBlock: XIVTED_clean_linker_0, # of connection points: 2
#     Edge 51, Type (0, 1), BuildingBlock: XIVTED_clean_linker_0, # of connection points: 2
#     Edge 52, Type (0, 1), BuildingBlock: XIVTED_clean_linker_0, # of connection points: 2
#     Edge 53, Type (0, 1), BuildingBlock: XIVTED_clean_linker_0, # of connection points: 2
#     Edge 54, Type (0, 1), BuildingBlock: XIVTED_clean_linker_0, # of connection points: 2
#     Edge 55, Type (0, 1), BuildingBlock: XIVTED_clean_linker_0, # of connection points: 2
#     Edge 56, Type (0, 1), BuildingBlock: XIVTED_clean_linker_0, # of connection points: 2
#     Edge 57, Type (0, 1), BuildingBlock: XIVTED_clean_linker_0, # of connection points: 2
#     Edge 58, Type (0, 1), BuildingBlock: XIVTED_clean_linker_0, # of connection points: 2
#     Edge 59, Type (0, 1), BuildingBlock: XIVTED_clean_linker_0, # of connection points: 2
#     Edge 60, Type (0, 1), BuildingBlock: XIVTED_clean_linker_0, # of connection points: 2
#     Edge 61, Type (0, 1), BuildingBlock: XIVTED_clean_linker_0, # of connection points: 2
# Relax obj value: 0.205
# Max RMSD: 0.260
# Mean RMSD: 0.143
data_MOF--net-ocu--node1-PAMTOO_clean_sbu_0--node2-VETTIZ_charged_sbu_0--edge1-XIVTED_clean_linker_0
_symmetry_space_group_name_H-M    P1
_symmetry_Int_Tables_number       1
_symmetry_cell_setting            triclinic
loop_
_symmetry_equiv_pos_as_xyz
'x, y, z'
_cell_length_a     38.152179
_cell_length_b     41.810817
_cell_length_c     39.268508
_cell_angle_alpha  91.599665
_cell_angle_beta   92.677456
_cell_angle_gamma 96.421828
loop_
_atom_site_label
_atom_site_type_symbol
_atom_site_fract_x
_atom_site_fract_y
_atom_site_fract_z
_atom_type_partial_charge
Dy0 Dy 0.33018 0.29667 0.32394 0.0
Dy1 Dy 0.26396 0.28598 0.27126 0.0
C2 C 0.33686 0.25336 0.2522 0.0
O3 O 0.34521 0.33378 0.28435 0.0
O4 O 0.2959 0.32863 0.2481 0.0
O5 O 0.37911 0.28137 0.34289 0.0
O6 O 0.36137 0.32441 0.36451 0.0
O7 O 0.24291 0.31512 0.3156 0.0
O8 O 0.29354 0.33002 0.34814 0.0
O9 O 0.25104 0.24577 0.30797 0.0
O10 O 0.29334 0.25947 0.35067 0.0
O11 O 0.2154 0.30121 0.25165 0.0
O12 O 0.23224 0.25672 0.23209 0.0
C13 C 0.32809 0.3424 0.25669 0.0
O14 O 0.34859 0.26106 0.28406 0.0
O15 O 0.30598 0.26232 0.24157 0.0
C16 C 0.39432 0.29285 0.40019 0.0
C17 C 0.41798 0.255 0.45257 0.0
C18 C 0.38158 0.25449 0.44434 0.0
C19 C 0.36983 0.27312 0.41804 0.0
C20 C 0.42995 0.29649 0.41111 0.0
C21 C 0.44175 0.27777 0.43714 0.0
C22 C 0.38473 0.30406 0.36646 0.0
C23 C 0.25927 0.33142 0.34241 0.0
C24 C 0.26387 0.24203 0.3392 0.0
C25 C 0.19919 0.28699 0.19491 0.0
C26 C 0.1691 0.31773 0.14004 0.0
C27 C 0.20361 0.32838 0.15292 0.0
C28 C 0.21859 0.31303 0.18016 0.0
C29 C 0.16655 0.27408 0.17979 0.0
C30 C 0.15167 0.2892 0.1523 0.0
C31 C 0.20926 0.27745 0.22922 0.0
H32 H 0.36248 0.23778 0.45623 0.0
H33 H 0.34211 0.27016 0.40987 0.0
H34 H 0.44915 0.3116 0.39746 0.0
H35 H 0.46997 0.27888 0.44244 0.0
H36 H 0.2178 0.3503 0.14426 0.0
H37 H 0.24393 0.32323 0.19156 0.0
H38 H 0.15137 0.25383 0.19083 0.0
H39 H 0.12542 0.27998 0.14236 0.0
Dy40 Dy 0.84069 0.292 0.27033 0.0
Dy41 Dy 0.78138 0.29261 0.32232 0.0
C42 C 0.85509 0.33989 0.33665 0.0
O43 O 0.86546 0.26889 0.31709 0.0
O44 O 0.81389 0.25099 0.33994 0.0
O45 O 0.8766 0.31149 0.23328 0.0
O46 O 0.8742 0.26115 0.24582 0.0
O47 O 0.75167 0.26666 0.27702 0.0
O48 O 0.79966 0.25065 0.25249 0.0
O49 O 0.7649 0.33154 0.28555 0.0
O50 O 0.80276 0.32454 0.24305 0.0
O51 O 0.7341 0.26983 0.34311 0.0
O52 O 0.76012 0.31401 0.3668 0.0
C53 C 0.84869 0.25007 0.33904 0.0
O54 O 0.86448 0.33311 0.30565 0.0
O55 O 0.82577 0.32571 0.34818 0.0
C56 C 0.88205 0.27411 0.18898 0.0
C57 C 0.87011 0.2739 0.11805 0.0
C58 C 0.90466 0.28069 0.13296 0.0
C59 C 0.91046 0.28107 0.16827 0.0
C60 C 0.84871 0.26252 0.17414 0.0
C61 C 0.8429 0.26187 0.13876 0.0
C62 C 0.88606 0.28327 0.22526 0.0
C63 C 0.76518 0.24877 0.25429 0.0
C64 C 0.77528 0.33826 0.2543 0.0
C65 C 0.74336 0.27011 0.40143 0.0
C66 C 0.75814 0.20977 0.42225 0.0
C67 C 0.7857 0.23468 0.42124 0.0
C68 C 0.77828 0.26507 0.41119 0.0
C69 C 0.71562 0.24731 0.4098 0.0
C70 C 0.72304 0.21699 0.41999 0.0
C71 C 0.73805 0.28832 0.37061 0.0
H72 H 0.92654 0.28986 0.11808 0.0
H73 H 0.93646 0.2896 0.17943 0.0
H74 H 0.82652 0.25663 0.18989 0.0
H75 H 0.81622 0.25574 0.12807 0.0
H76 H 0.81291 0.22967 0.42364 0.0
H77 H 0.80023 0.28253 0.40548 0.0
H78 H 0.68853 0.25074 0.40272 0.0
H79 H 0.7014 0.19795 0.42108 0.0
Dy80 Dy 0.78282 0.73522 0.36286 0.0
Dy81 Dy 0.80234 0.79095 0.30698 0.0
C82 C 0.84644 0.78974 0.37627 0.0
O83 O 0.74301 0.7699 0.36955 0.0
O84 O 0.77327 0.81413 0.34696 0.0
O85 O 0.79433 0.70898 0.40768 0.0
O86 O 0.74402 0.69795 0.37949 0.0
O87 O 0.75015 0.76468 0.28884 0.0
O88 O 0.76075 0.71703 0.31185 0.0
O89 O 0.83017 0.75023 0.28906 0.0
O90 O 0.82869 0.7184 0.33627 0.0
O91 O 0.80216 0.8085 0.25578 0.0
O92 O 0.82654 0.83882 0.29799 0.0
C93 C 0.74833 0.80111 0.36574 0.0
O94 O 0.81852 0.775 0.38983 0.0
O95 O 0.84883 0.78971 0.3431 0.0
C96 C 0.77207 0.65488 0.40025 0.0
C97 C 0.79768 0.59446 0.40395 0.0
C98 C 0.80823 0.61585 0.37824 0.0
C99 C 0.79527 0.64556 0.37632 0.0
C100 C 0.75806 0.63253 0.42323 0.0
C101 C 0.77022 0.60219 0.42459 0.0
C102 C 0.76575 0.68873 0.40287 0.0
C103 C 0.74348 0.73328 0.29003 0.0
C104 C 0.84017 0.7259 0.30604 0.0
C105 C 0.79551 0.8634 0.25525 0.0
C106 C 0.75398 0.91059 0.23219 0.0
C107 C 0.74505 0.89323 0.26127 0.0
C108 C 0.76561 0.86974 0.27265 0.0
C109 C 0.8051 0.88113 0.22682 0.0
C110 C 0.78448 0.90458 0.21533 0.0
C111 C 0.81572 0.8374 0.26596 0.0
H112 H 0.82896 0.61144 0.36146 0.0
H113 H 0.8055 0.66231 0.35777 0.0
H114 H 0.73923 0.63909 0.44127 0.0
H115 H 0.75984 0.58588 0.44352 0.0
H116 H 0.72193 0.89751 0.27496 0.0
H117 H 0.75786 0.85614 0.29469 0.0
H118 H 0.82804 0.87634 0.21308 0.0
H119 H 0.79173 0.91715 0.19251 0.0
Dy120 Dy 0.26615 0.81476 0.28627 0.0
Dy121 Dy 0.3229 0.76438 0.28621 0.0
C122 C 0.33928 0.83129 0.32742 0.0
O123 O 0.30916 0.83758 0.25239 0.0
O124 O 0.34067 0.79545 0.24125 0.0
O125 O 0.24582 0.85573 0.26275 0.0
O126 O 0.22332 0.8361 0.30827 0.0
O127 O 0.27634 0.73693 0.25761 0.0
O128 O 0.24136 0.7773 0.24751 0.0
O129 O 0.28924 0.7495 0.33162 0.0
O130 O 0.24123 0.7766 0.32118 0.0
O131 O 0.35047 0.72725 0.26439 0.0
O132 O 0.36312 0.74449 0.31684 0.0
C133 C 0.33429 0.82545 0.23563 0.0
O134 O 0.30514 0.83148 0.32957 0.0
O135 O 0.35142 0.8108 0.30661 0.0
C136 C 0.23195 0.89247 0.30532 0.0
C137 C 0.23621 0.95247 0.34075 0.0
C138 C 0.22568 0.94958 0.30578 0.0
C139 C 0.2232 0.91971 0.28833 0.0
C140 C 0.2459 0.89595 0.3391 0.0
C141 C 0.24773 0.92548 0.35669 0.0
C142 C 0.22614 0.86043 0.28821 0.0
C143 C 0.24788 0.74717 0.24356 0.0
C144 C 0.25648 0.75463 0.33825 0.0
C145 C 0.41062 0.73362 0.28384 0.0
C146 C 0.48245 0.73723 0.26876 0.0
C147 C 0.4568 0.7446 0.24407 0.0
C148 C 0.42138 0.74295 0.25157 0.0
C149 C 0.43629 0.72928 0.30952 0.0
C150 C 0.47197 0.73147 0.30218 0.0
C151 C 0.37286 0.72819 0.29078 0.0
H152 H 0.21765 0.96998 0.29226 0.0
H153 H 0.21335 0.91768 0.26194 0.0
H154 H 0.25386 0.87547 0.35259 0.0
H155 H 0.25578 0.92626 0.38352 0.0
H156 H 0.46326 0.74902 0.21795 0.0
H157 H 0.40229 0.74746 0.23148 0.0
H158 H 0.42862 0.72302 0.33492 0.0
H159 H 0.49098 0.72664 0.32218 0.0
Dy160 Dy 0.31954 0.78942 0.78688 0.0
Dy161 Dy 0.26276 0.79595 0.84115 0.0
C162 C 0.32982 0.84499 0.84288 0.0
O163 O 0.34286 0.76263 0.83191 0.0
O164 O 0.29651 0.75913 0.86729 0.0
O165 O 0.37445 0.79318 0.77546 0.0
O166 O 0.334 0.78058 0.73509 0.0
O167 O 0.23846 0.76273 0.79905 0.0
O168 O 0.28868 0.74154 0.78717 0.0
O169 O 0.24955 0.83311 0.80105 0.0
O170 O 0.27559 0.81241 0.75596 0.0
O171 O 0.22159 0.7769 0.8735 0.0
O172 O 0.23318 0.82857 0.86785 0.0
C173 C 0.32847 0.75125 0.86002 0.0
O174 O 0.33038 0.83894 0.81016 0.0
O175 O 0.31093 0.82553 0.86195 0.0
C176 C 0.37908 0.82244 0.72671 0.0
C177 C 0.40403 0.88769 0.72021 0.0
C178 C 0.42777 0.8642 0.72218 0.0
C179 C 0.41537 0.83183 0.72568 0.0
C180 C 0.35531 0.8455 0.72197 0.0
C181 C 0.36763 0.87781 0.71902 0.0
C182 C 0.36674 0.79234 0.74271 0.0
C183 C 0.25437 0.73939 0.78624 0.0
C184 C 0.25354 0.83214 0.76766 0.0
C185 C 0.20826 0.81163 0.91853 0.0
C186 C 0.19321 0.81653 0.98775 0.0
C187 C 0.22847 0.81768 0.97806 0.0
C188 C 0.23593 0.81497 0.94359 0.0
C189 C 0.17372 0.81381 0.92773 0.0
C190 C 0.1662 0.8163 0.96192 0.0
C191 C 0.21423 0.80563 0.88261 0.0
H192 H 0.456 0.87089 0.72194 0.0
H193 H 0.43413 0.81453 0.72986 0.0
H194 H 0.32716 0.83904 0.72311 0.0
H195 H 0.34859 0.89513 0.7175 0.0
H196 H 0.25004 0.81855 0.99709 0.0
H197 H 0.26297 0.81419 0.9366 0.0
H198 H 0.1522 0.81195 0.90849 0.0
H199 H 0.13866 0.81509 0.96779 0.0
Dy200 Dy 0.33034 0.3035 0.778 0.0
Dy201 Dy 0.27106 0.29891 0.83428 0.0
C202 C 0.26039 0.25667 0.76412 0.0
O203 O 0.28766 0.33143 0.75461 0.0
O204 O 0.25752 0.34104 0.80214 0.0
O205 O 0.34534 0.31084 0.72646 0.0
O206 O 0.38562 0.30701 0.76631 0.0
O207 O 0.32004 0.3255 0.85905 0.0
O208 O 0.33993 0.34826 0.81089 0.0
O209 O 0.30322 0.25848 0.85009 0.0
O210 O 0.35158 0.2702 0.81794 0.0
O211 O 0.24874 0.32055 0.87737 0.0
O212 O 0.22451 0.27462 0.85584 0.0
C213 C 0.26343 0.34619 0.76969 0.0
O214 O 0.29474 0.25929 0.76155 0.0
O215 O 0.24589 0.27368 0.787 0.0
C216 C 0.39615 0.28821 0.71085 0.0
C217 C 0.42985 0.25008 0.66519 0.0
C218 C 0.3944 0.24139 0.67265 0.0
C219 C 0.37774 0.26019 0.69542 0.0
C220 C 0.4314 0.29704 0.70348 0.0
C221 C 0.44818 0.27811 0.68091 0.0
C222 C 0.37868 0.30905 0.73369 0.0
C223 C 0.33981 0.34802 0.84418 0.0
C224 C 0.33592 0.25401 0.84278 0.0
C225 C 0.18749 0.3131 0.87275 0.0
C226 C 0.13286 0.35288 0.86963 0.0
C227 C 0.15084 0.3465 0.84028 0.0
C228 C 0.17777 0.3265 0.84177 0.0
C229 C 0.16817 0.3178 0.90154 0.0
C230 C 0.14078 0.33737 0.89993 0.0
C231 C 0.22102 0.29919 0.87618 0.0
H232 H 0.37939 0.22016 0.66072 0.0
H233 H 0.35043 0.25298 0.70075 0.0
H234 H 0.44596 0.3186 0.71521 0.0
H235 H 0.47567 0.28517 0.67625 0.0
H236 H 0.14511 0.3581 0.81665 0.0
H237 H 0.19236 0.32299 0.81923 0.0
H238 H 0.17555 0.30787 0.92569 0.0
H239 H 0.12752 0.34219 0.92301 0.0
Dy240 Dy 0.7646 0.32318 0.78124 0.0
Dy241 Dy 0.82618 0.28803 0.81749 0.0
C242 C 0.81406 0.35927 0.84195 0.0
O243 O 0.813 0.34477 0.75642 0.0
O244 O 0.85058 0.30692 0.76934 0.0
O245 O 0.73762 0.3645 0.76909 0.0
O246 O 0.71483 0.31672 0.75209 0.0
O247 O 0.79658 0.25137 0.78022 0.0
O248 O 0.77762 0.28685 0.74245 0.0
O249 O 0.78263 0.28692 0.85455 0.0
O250 O 0.73892 0.28458 0.81345 0.0
O251 O 0.8393 0.24817 0.84738 0.0
O252 O 0.88023 0.28529 0.8349 0.0
C253 C 0.8428 0.33226 0.75227 0.0
O254 O 0.78134 0.35351 0.82916 0.0
O255 O 0.83718 0.33917 0.83593 0.0
C256 C 0.67728 0.35047 0.77527 0.0
C257 C 0.61773 0.35958 0.81245 0.0
C258 C 0.64847 0.3504 0.82885 0.0
C259 C 0.67778 0.34579 0.81044 0.0
C260 C 0.64633 0.3579 0.75822 0.0
C261 C 0.61662 0.36235 0.77671 0.0
C262 C 0.70923 0.34657 0.75719 0.0
C263 C 0.78347 0.25748 0.74983 0.0
C264 C 0.74947 0.27865 0.84461 0.0
C265 C 0.89452 0.23165 0.8354 0.0
C266 C 0.92653 0.1834 0.80157 0.0
C267 C 0.94038 0.21587 0.7999 0.0
C268 C 0.92454 0.2398 0.81671 0.0
C269 C 0.88291 0.199 0.83985 0.0
C270 C 0.89868 0.17504 0.82288 0.0
C271 C 0.87319 0.25673 0.84709 0.0
H272 H 0.65094 0.34862 0.85628 0.0
H273 H 0.70138 0.33953 0.82391 0.0
H274 H 0.64538 0.36086 0.73089 0.0
H275 H 0.59326 0.36897 0.76318 0.0
H276 H 0.96176 0.22307 0.78353 0.0
H277 H 0.93456 0.26473 0.8133 0.0
H278 H 0.86031 0.19202 0.8548 0.0
H279 H 0.88794 0.15011 0.825 0.0
Dy280 Dy 0.84058 0.80478 0.83251 0.0
Dy281 Dy 0.78102 0.78779 0.77721 0.0
C282 C 0.857 0.75415 0.76698 0.0
O283 O 0.86275 0.83341 0.78875 0.0
O284 O 0.8134 0.83035 0.75355 0.0
O285 O 0.88178 0.79371 0.86808 0.0
O286 O 0.87113 0.84322 0.8625 0.0
O287 O 0.75097 0.8192 0.81481 0.0
O288 O 0.79745 0.83739 0.85103 0.0
O289 O 0.7655 0.7506 0.81694 0.0
O290 O 0.80587 0.76711 0.86027 0.0
O291 O 0.73791 0.80011 0.74463 0.0
O292 O 0.75308 0.75172 0.7424 0.0
C293 C 0.8466 0.84212 0.76083 0.0
O294 O 0.8662 0.76621 0.79866 0.0
O295 O 0.82624 0.76156 0.75358 0.0
C296 C 0.88526 0.82665 0.9175 0.0
C297 C 0.88867 0.81965 0.98844 0.0
C298 C 0.85854 0.80648 0.96845 0.0
C299 C 0.85687 0.81006 0.93332 0.0
C300 C 0.91274 0.84383 0.9375 0.0
C301 C 0.91405 0.84094 0.97292 0.0
C302 C 0.88753 0.82325 0.8805 0.0
C303 C 0.76319 0.83795 0.84196 0.0
C304 C 0.77775 0.74807 0.84865 0.0
C305 C 0.73806 0.77524 0.69098 0.0
C306 C 0.74248 0.79865 0.62489 0.0
C307 C 0.77341 0.79628 0.64509 0.0
C308 C 0.77119 0.78479 0.67805 0.0
C309 C 0.70764 0.77387 0.66959 0.0
C310 C 0.7098 0.7853 0.63665 0.0
C311 C 0.73484 0.77254 0.72776 0.0
H312 H 0.83793 0.7903 0.97885 0.0
H313 H 0.83478 0.79752 0.91824 0.0
H314 H 0.93429 0.85772 0.92564 0.0
H315 H 0.93673 0.85293 0.98758 0.0
H316 H 0.79894 0.80602 0.63666 0.0
H317 H 0.79503 0.78587 0.69433 0.0
H318 H 0.68192 0.76656 0.67926 0.0
H319 H 0.68532 0.78692 0.62204 0.0
Fe320 Fe 0.05707 0.07938 0.54355 0.0
O321 O 1.02669 0.03835 0.52703 0.0
Fe322 Fe 0.13968 0.0507 0.57044 0.0
Fe323 Fe 0.97344 0.03282 0.53178 0.0
O324 O 0.08656 0.04782 0.56817 0.0
O325 O 0.0851 0.04207 0.5709 0.0
O326 O 1.02476 0.03348 0.53197 0.0
Fe327 Fe 0.05115 1.0003 0.55672 0.0
C328 C 0.99586 0.07993 0.58983 0.0
O329 O 1.01942 0.10708 0.51421 0.0
O330 O 0.97518 0.06838 0.49379 0.0
O331 O 0.07538 0.99284 0.51179 0.0
O332 O 0.0979 0.03157 0.54354 0.0
O333 O 0.14384 0.08578 0.53237 0.0
O334 O 0.09168 0.08458 0.50243 0.0
O335 O 0.97574 0.99157 0.50204 0.0
O336 O 1.0131 0.96374 0.53563 0.0
C337 C 0.12539 0.09372 0.50616 0.0
O338 O 0.08872 0.97294 0.58611 0.0
O339 O 0.13542 1.01101 0.60494 0.0
O340 O 1.02841 0.07909 0.58587 0.0
O341 O 0.97258 0.07063 0.56643 0.0
C342 C 0.99044 0.09806 0.49449 0.0
C343 C 0.98935 0.96554 0.51081 0.0
C344 C 0.98748 0.99375 0.59867 0.0
O345 O 0.96911 1.00106 0.57247 0.0
O346 O 1.02121 1.00139 0.60055 0.0
C347 C 0.10015 1.01432 0.51623 0.0
O348 O 0.12768 0.08898 0.60103 0.0
O349 O 0.09031 0.11722 0.56856 0.0
C350 C 0.11828 0.98185 0.60519 0.0
C351 C 0.11327 0.11478 0.59374 0.0
Fe352 Fe 0.53961 1.01742 0.03124 0.0
O353 O 0.56566 0.05683 1.01127 0.0
Fe354 Fe 0.46071 0.05286 0.0531 0.0
Fe355 Fe 0.61787 0.06424 1.012 0.0
O356 O 0.51313 0.05284 0.05285 0.0
O357 O 0.51259 0.05805 0.05369 0.0
O358 O 0.56507 0.0627 1.0119 0.0
Fe359 Fe 0.54012 0.09761 0.03641 0.0
C360 C 0.60709 0.0229 0.07402 0.0
O361 O 0.57609 0.98642 1.00223 0.0
O362 O 0.61375 0.0241 0.97645 0.0
O363 O 0.50442 0.10117 0.99409 0.0
O364 O 0.45397 0.09052 1.0194 0.0
O365 O 0.45337 0.02069 1.01212 0.0
O366 O 0.50486 1.0125 0.98954 0.0
O367 O 0.61044 0.10203 0.98016 0.0
O368 O 0.57516 0.1327 1.0117 0.0
C369 C 0.47124 1.01079 0.98806 0.0
O370 O 0.50736 0.12727 0.06805 0.0
O371 O 0.46802 0.08925 0.09173 0.0
O372 O 0.57364 0.02117 0.07343 0.0
O373 O 0.62465 0.03075 0.04824 0.0
C374 C 0.60246 0.99381 0.981 0.0
C375 C 0.59763 0.12889 0.98775 0.0
C376 C 0.6098 0.10687 0.07721 0.0
O377 O 0.6258 0.09983 0.05065 0.0
O378 O 0.57635 0.09981 0.07858 0.0
C379 C 0.47144 0.10424 0.99575 0.0
O380 O 0.46521 1.01305 0.08364 0.0
O381 O 0.50454 0.98185 0.05921 0.0
C382 C 0.48236 0.11889 0.08986 0.0
C383 C 0.47896 0.98599 0.08043 0.0
Fe384 Fe 1.00137 0.5931 0.07836 0.0
O385 O 0.97142 0.55077 0.08215 0.0
Fe386 Fe 0.07055 0.57359 1.02887 0.0
Fe387 Fe 0.91898 0.54858 0.08538 0.0
O388 O 1.02063 0.57273 0.03773 0.0
O389 O 1.01956 0.5709 0.03558 0.0
O390 O 0.96991 0.54873 0.07933 0.0
Fe391 Fe 0.98854 0.52945 0.03769 0.0
C392 C 0.95422 0.59413 0.14159 0.0
O393 O 0.96336 0.60776 0.04616 0.0
O394 O 0.91599 0.59668 0.07546 0.0
O395 O 1.01129 0.51375 0.99421 0.0
O396 O 0.05328 0.55471 0.98047 0.0
O397 O 0.06609 0.62205 1.02265 0.0
O398 O 1.03423 0.63495 0.06899 0.0
O399 O 0.90359 0.53399 0.03532 0.0
O400 O 0.95084 0.54624 1.00583 0.0
C401 C 0.05642 0.6422 0.04544 0.0
O402 O 1.02577 0.51041 0.06779 0.0
O403 O 0.07457 0.52636 0.04081 0.0
O404 O 0.97658 0.60894 0.12145 0.0
O405 O 0.93502 0.56679 0.13406 0.0
C406 C 0.93499 0.61576 0.05742 0.0
C407 C 0.91829 0.5359 1.00689 0.0
C408 C 0.93211 0.47997 0.06778 0.0
O409 O 0.92143 0.4995 0.09061 0.0
O410 O 0.95432 0.48832 0.04469 0.0
C411 C 1.03324 0.52777 0.97351 0.0
O412 O 0.08724 0.58859 0.07803 0.0
O413 O 0.04145 0.58113 0.11153 0.0
C414 C 0.05691 0.50665 0.05946 0.0
C415 C 0.07441 0.58866 0.10741 0.0
Fe416 Fe 0.55348 0.57307 0.98173 0.0
O417 O 0.55909 0.56765 0.03185 0.0
Fe418 Fe 0.51144 0.54903 0.05585 0.0
Fe419 Fe 0.59678 0.54213 0.05375 0.0
O420 O 0.5536 0.56811 0.03124 0.0
O421 O 0.54887 0.52291 0.07715 0.0
O422 O 0.55443 0.52243 0.07771 0.0
Fe423 Fe 0.55472 0.51727 0.1272 0.0
C424 C 0.58145 0.50986 0.98487 0.0
O425 O 0.60033 0.60267 0.99077 0.0
O426 O 0.63477 0.56993 1.02146 0.0
O427 O 0.5245 0.55379 0.13694 0.0
O428 O 0.52455 0.58512 0.09243 0.0
O429 O 0.47816 0.58146 1.02609 0.0
O430 O 0.51778 0.60671 0.99035 0.0
O431 O 0.60818 0.57841 0.09063 0.0
O432 O 0.59958 0.5491 0.1366 0.0
C433 C 0.48649 0.60325 1.00256 0.0
O434 O 0.50723 0.48874 0.11849 0.0
O435 O 0.47329 0.52217 0.0884 0.0
O436 O 0.58528 0.53778 0.97281 0.0
O437 O 0.58505 0.50587 1.0168 0.0
C438 C 0.63083 0.59425 1.00086 0.0
C439 C 0.61201 0.57472 0.12259 0.0
C440 C 0.62122 0.48743 0.10741 0.0
O441 O 0.63001 0.50974 0.08439 0.0
O442 O 0.58925 0.48297 0.11794 0.0
C443 C 0.52862 0.58153 0.12436 0.0
O444 O 0.49851 0.51307 1.01941 0.0
O445 O 0.50957 0.53969 0.9719 0.0
C446 C 0.47691 0.49774 0.10881 0.0
C447 C 0.49502 0.51562 0.98728 0.0
Fe448 Fe 0.06907 0.49548 0.56117 0.0
O449 O 0.04787 0.53064 0.58847 0.0
Fe450 Fe 0.09149 0.53648 0.48798 0.0
Fe451 Fe 0.04661 0.5328 0.6391 0.0
O452 O 0.09223 0.53472 0.53853 0.0
O453 O 0.09121 0.54049 0.53898 0.0
O454 O 0.04764 0.53571 0.58924 0.0
Fe455 Fe 0.06619 0.57499 0.56381 0.0
C456 C 1.01403 0.46546 0.61306 0.0
O457 O 0.11173 0.49425 0.59741 0.0
O458 O 0.08367 0.49939 0.64549 0.0
O459 O 0.09271 0.61053 0.52897 0.0
O460 O 0.12442 0.57931 0.49489 0.0
O461 O 0.12847 0.50317 0.49343 0.0
O462 O 0.09786 0.46542 0.52607 0.0
O463 O 0.08698 0.56921 0.64729 0.0
O464 O 0.10867 0.585 0.59737 0.0
C465 C 0.12191 0.47361 0.50326 0.0
O466 O 1.0236 0.56495 0.53098 0.0
O467 O 0.05004 0.56434 0.48181 0.0
O468 O 0.03805 0.46105 0.59074 0.0
O469 O 1.0103 0.49268 0.62879 0.0
C470 C 0.10896 0.48924 0.62943 0.0
C471 C 0.11052 0.58408 0.62976 0.0
C472 C 1.01356 0.59873 0.62363 0.0
O473 O 1.01176 0.57012 0.63676 0.0
O474 O 1.03401 0.60552 0.59721 0.0
C475 C 0.11691 0.60718 0.50601 0.0
O476 O 0.05561 0.49617 0.47925 0.0
O477 O 1.02544 0.49081 0.52578 0.0
C478 C 1.02219 0.56233 0.49869 0.0
C479 C 1.02777 0.48582 0.49374 0.0
Fe480 Fe 0.55495 0.96506 0.54519 0.0
O481 O 0.56983 1.00943 0.53326 0.0
Fe482 Fe 0.59142 1.01819 0.48655 0.0
Fe483 Fe 0.60453 0.03902 0.5626 0.0
O484 O 0.56876 1.00864 0.53014 0.0
O485 O 0.62625 0.0481 0.51582 0.0
O486 O 0.62683 0.04936 0.51901 0.0
Fe487 Fe 0.6393 0.09332 0.50413 0.0
C488 C 0.54398 1.01039 0.60464 0.0
O489 O 0.59547 0.96541 0.58153 0.0
O490 O 0.63718 1.0033 0.56802 0.0
O491 O 0.66594 0.06967 0.46875 0.0
O492 O 0.62177 0.03187 0.44479 0.0
O493 O 0.62287 0.98214 0.49239 0.0
O494 O 0.58466 0.94268 0.51035 0.0
O495 O 0.6432 0.07242 0.588 0.0
O496 O 0.6759 0.09567 0.54546 0.0
C497 C 0.61286 0.95243 0.49563 0.0
O498 O 0.59987 0.09208 0.46638 0.0
O499 O 0.55924 0.05382 0.48056 0.0
O500 O 0.52985 0.98909 0.58175 0.0
O501 O 0.57588 0.02504 0.60475 0.0
C502 C 0.6276 0.97459 0.57634 0.0
C503 C 0.67002 0.09096 0.57743 0.0
C504 C 0.5789 0.10356 0.55101 0.0
O505 O 0.57183 0.07395 0.557 0.0
O506 O 0.60706 0.11463 0.53707 0.0
C507 C 0.65348 0.04743 0.44603 0.0
O508 O 0.5508 0.98568 0.46166 0.0
O509 O 0.51751 0.96526 0.50547 0.0
C510 C 0.5678 0.08212 0.47084 0.0
C511 C 0.52225 0.97042 0.47343 0.0
H512 H 0.19755 0.20697 0.32779 0.0
H513 H 0.19473 0.1213 0.51028 0.0
H514 H 0.28238 0.22291 0.40479 0.0
H515 H 0.10265 0.11457 0.44148 0.0
H516 H 0.22731 0.15548 0.47037 0.0
H517 H 0.16381 0.17125 0.36638 0.0
C518 C 0.20941 0.20293 0.35266 0.0
C519 C 0.24346 0.2184 0.36246 0.0
C520 C 0.20002 0.14663 0.46375 0.0
C521 C 0.20401 0.17666 0.40768 0.0
C522 C 0.18108 0.12677 0.48673 0.0
C523 C 0.14526 0.11447 0.47991 0.0
C524 C 0.18375 0.15478 0.43277 0.0
C525 C 0.12992 0.12315 0.44844 0.0
C526 C 0.18983 0.18242 0.37489 0.0
C527 C 0.25658 0.21184 0.39552 0.0
N528 N 0.14908 0.14249 0.42631 0.0
N529 N 0.23711 0.19171 0.41652 0.0
H530 H 0.82592 0.19192 0.37111 0.0
H531 H 1.01261 0.16258 0.47336 0.0
H532 H 0.92101 0.25559 0.36146 0.0
H533 H 0.9227 0.09055 0.4621 0.0
H534 H 0.97998 0.1983 0.43707 0.0
H535 H 0.85938 0.15741 0.40759 0.0
C536 C 0.85371 0.1991 0.37671 0.0
C537 C 0.86962 0.22774 0.36255 0.0
C538 C 0.96723 0.17467 0.44246 0.0
C539 C 0.90997 0.18672 0.40587 0.0
C540 C 0.98615 0.15391 0.46359 0.0
C541 C 0.97139 0.12241 0.4717 0.0
C542 C 0.93223 0.16495 0.42893 0.0
C543 C 0.93634 0.11396 0.45725 0.0
C544 C 0.87323 0.17895 0.39773 0.0
C545 C 0.90659 0.23428 0.37116 0.0
N546 N 0.91857 0.13457 0.4374 0.0
N547 N 0.92487 0.21456 0.39187 0.0
H548 H 0.85246 0.7964 0.44636 0.0
H549 H 0.97716 0.95866 0.44251 0.0
H550 H 0.90252 0.82928 0.35527 0.0
H551 H 0.96963 0.90561 0.53496 0.0
H552 H 0.948 0.91148 0.41042 0.0
H553 H 0.89351 0.83567 0.48027 0.0
C554 C 0.87232 0.8115 0.43354 0.0
C555 C 0.87374 0.8098 0.39786 0.0
C556 C 0.95312 0.90992 0.43765 0.0
C557 C 0.92027 0.85479 0.43635 0.0
C558 C 0.96964 0.93685 0.45593 0.0
C559 C 0.97568 0.93587 0.49131 0.0
C560 C 0.94168 0.88204 0.45498 0.0
C561 C 0.96554 0.9071 0.50761 0.0
C562 C 0.89576 0.83381 0.45291 0.0
C563 C 0.90015 0.82987 0.38264 0.0
N564 N 0.94839 0.88136 0.48935 0.0
N565 N 0.92196 0.85183 0.40189 0.0
H566 H 0.27161 0.97905 0.40014 0.0
H567 H 0.08846 0.02794 0.45111 0.0
H568 H 0.18285 0.99073 0.33089 0.0
H569 H 0.17229 1.01448 0.5248 0.0
H570 H 0.13063 0.03181 0.40646 0.0
H571 H 0.24451 1.00901 0.44421 0.0
C572 C 0.2469 0.98846 0.39381 0.0
C573 C 0.22861 0.98063 0.36216 0.0
C574 C 0.14016 0.02835 0.43235 0.0
C575 C 0.19804 1.01553 0.41223 0.0
C576 C 0.11602 0.02594 0.45773 0.0
C577 C 0.12708 0.02017 0.49119 0.0
C578 C 0.17538 0.02335 0.44019 0.0
C579 C 0.16296 1.01847 0.49897 0.0
C580 C 0.23158 1.00575 0.41901 0.0
C581 C 0.19779 0.99518 0.35495 0.0
N582 N 0.18589 0.01919 0.47335 0.0
N583 N 0.18312 1.01121 0.38005 0.0
H584 H 0.22485 0.89004 0.78183 0.0
H585 H 0.12024 0.91359 0.59929 0.0
H586 H 0.23358 0.82512 0.69661 0.0
H587 H 0.15763 0.99367 0.66744 0.0
H588 H 0.15221 0.87807 0.63637 0.0
H589 H 0.19269 0.92422 0.74395 0.0
C590 C 0.22009 0.88258 0.75524 0.0
C591 C 0.23293 0.85386 0.74333 0.0
C592 C 0.15334 0.90338 0.64348 0.0
C593 C 0.19372 0.89406 0.69828 0.0
C594 C 0.13457 0.92397 0.62213 0.0
C595 C 0.13526 0.95757 0.62941 0.0
C596 C 0.17293 0.91549 0.67371 0.0
C597 C 0.1555 0.96841 0.65988 0.0
C598 C 0.20144 0.9025 0.73328 0.0
C599 C 0.225 0.84666 0.70787 0.0
N600 N 0.17266 0.94791 0.68042 0.0
N601 N 0.20605 0.86598 0.68728 0.0
H602 H 0.19187 0.232 0.77086 0.0
H603 H 0.1604 0.16496 0.57779 0.0
H604 H 0.27477 0.23686 0.69946 0.0
H605 H 0.09944 0.12616 0.65971 0.0
H606 H 0.19575 0.20219 0.61912 0.0
H607 H 0.1517 0.20234 0.72759 0.0
C608 C 0.20168 0.22671 0.74611 0.0
C609 C 0.23685 0.23664 0.73887 0.0
C610 C 0.17403 0.18606 0.62785 0.0
C611 C 0.1907 0.20343 0.68899 0.0
C612 C 0.15353 0.1653 0.60425 0.0
C613 C 0.12644 0.14321 0.61536 0.0
C614 C 0.16714 0.18467 0.66266 0.0
C615 C 0.11943 0.14353 0.65008 0.0
C616 C 0.17869 0.20988 0.72143 0.0
C617 C 0.24802 0.22927 0.70628 0.0
N618 N 0.13969 0.16389 0.67254 0.0
N619 N 0.22495 0.21324 0.68245 0.0
H620 H 0.88403 0.13873 0.76231 0.0
H621 H 0.03929 0.1084 0.64132 0.0
H622 H 0.99352 0.17479 0.78392 0.0
H623 H 0.92938 0.07726 0.61495 0.0
H624 H 1.02347 0.12646 0.6971 0.0
H625 H 0.90097 0.10826 0.71303 0.0
C626 C 0.91177 0.13953 0.75724 0.0
C627 C 0.93744 0.15954 0.777 0.0
C628 C 1.00274 0.11559 0.67926 0.0
C629 C 0.95678 0.12551 0.72021 0.0
C630 C 1.01174 0.10534 0.64727 0.0
C631 C 0.98557 0.09154 0.62328 0.0
C632 C 0.96722 0.11216 0.68749 0.0
C633 C 0.95034 0.08813 0.63253 0.0
C634 C 0.92134 0.12243 0.72886 0.0
C635 C 0.97289 0.16002 0.769 0.0
N636 N 0.94213 0.09853 0.66397 0.0
N637 N 0.98148 0.14356 0.74094 0.0
H638 H 0.82391 0.8684 0.69988 0.0
H639 H 1.01315 0.96638 0.65873 0.0
H640 H 0.91674 0.86933 0.76686 0.0
H641 H 0.91632 0.97236 0.5994 0.0
H642 H 0.97967 0.93058 0.69793 0.0
H643 H 0.85791 0.90523 0.6625 0.0
C644 C 0.85135 0.87629 0.70697 0.0
C645 C 0.86694 0.86537 0.73717 0.0
C646 C 0.96571 0.93984 0.67637 0.0
C647 C 0.90696 0.90822 0.69347 0.0
C648 C 0.98497 0.96053 0.65387 0.0
C649 C 0.96804 0.97306 0.62523 0.0
C650 C 0.92894 0.93102 0.67049 0.0
C651 C 0.93113 0.96382 0.62081 0.0
C652 C 0.87095 0.8975 0.68541 0.0
C653 C 0.90305 0.87681 0.74421 0.0
N654 N 0.91326 0.94366 0.64274 0.0
N655 N 0.92153 0.89724 0.7228 0.0
H656 H 0.33231 0.24545 0.18027 0.0
H657 H 0.47928 0.11956 0.16067 0.0
H658 H 0.39413 0.21729 0.26642 0.0
H659 H 0.4451 0.17261 0.07553 0.0
H660 H 0.44602 0.15171 0.19865 0.0
H661 H 0.36874 0.21656 0.14199 0.0
C662 C 0.35331 0.23318 0.19152 0.0
C663 C 0.35927 0.23446 0.22757 0.0
C664 C 0.44599 0.15685 0.17179 0.0
C665 C 0.40229 0.19982 0.18227 0.0
C666 C 0.46554 0.13845 0.14976 0.0
C667 C 0.46688 0.14349 0.1142 0.0
C668 C 0.42559 0.18051 0.15888 0.0
C669 C 0.4466 0.16799 0.10251 0.0
C670 C 0.3745 0.21655 0.16924 0.0
C671 C 0.38771 0.21761 0.23931 0.0
N672 N 0.42703 0.18495 0.1243 0.0
N673 N 0.40739 0.20118 0.21723 0.0
H674 H 0.90738 0.2799 0.05917 0.0
H675 H 0.8683 0.45552 0.09096 0.0
H676 H 0.81296 0.30646 0.10343 0.0
H677 H 0.95622 0.42883 0.03535 0.0
H678 H 0.83957 0.40056 0.08249 0.0
H679 H 0.91434 0.33163 0.03175 0.0
C680 C 0.88721 0.29595 0.06194 0.0
C681 C 0.8614 0.29007 0.08604 0.0
C682 C 0.86499 0.40679 0.0718 0.0
C683 C 0.86932 0.34909 0.05539 0.0
C684 C 0.88168 0.43804 0.07724 0.0
C685 C 0.91513 0.44652 0.06473 0.0
C686 C 0.88213 0.38373 0.05423 0.0
C687 C 0.93069 0.42318 0.04603 0.0
C688 C 0.89141 0.32572 0.04657 0.0
C689 C 0.83474 0.31072 0.08684 0.0
N690 N 0.91431 0.39275 0.0418 0.0
N691 N 0.8403 0.34012 0.07317 0.0
H692 H 0.68171 0.90277 0.22653 0.0
H693 H 0.67565 0.04138 0.09388 0.0
H694 H 0.77213 0.96936 0.20476 0.0
H695 H 0.58263 0.98235 0.12357 0.0
H696 H 0.70985 0.02006 0.14017 0.0
H697 H 0.64358 0.93622 0.19549 0.0
C698 C 0.6935 0.92478 0.21582 0.0
C699 C 0.73026 0.93304 0.21779 0.0
C700 C 0.68189 1.01197 0.13687 0.0
C701 C 0.68679 0.97107 0.18164 0.0
C702 C 0.6624 0.02401 0.11033 0.0
C703 C 0.62649 1.01301 0.10449 0.0
C704 C 0.66547 0.98839 0.15743 0.0
C705 C 0.6104 0.99115 0.12702 0.0
C706 C 0.6717 0.94379 0.19792 0.0
C707 C 0.74403 0.96167 0.20314 0.0
N708 N 0.63018 0.9791 0.15222 0.0
N709 N 0.72233 0.97944 0.1853 0.0
H710 H 0.1784 0.75294 0.22397 0.0
H711 H 0.14414 0.58348 0.12184 0.0
H712 H 0.25668 0.68622 0.21975 0.0
H713 H 0.05896 0.63505 0.15351 0.0
H714 H 0.18593 0.62129 0.1564 0.0
H715 H 0.13491 0.7118 0.19559 0.0
C716 C 0.1866 0.72979 0.21688 0.0
C717 C 0.2215 0.72326 0.22426 0.0
C718 C 0.15805 0.62406 0.15639 0.0
C719 C 0.17151 0.67579 0.1918 0.0
C720 C 0.1341 0.60223 0.13691 0.0
C721 C 0.09784 0.60563 0.13525 0.0
C722 C 0.14597 0.65022 0.17379 0.0
C723 C 0.08652 0.63099 0.15466 0.0
C724 C 0.1616 0.70618 0.20093 0.0
C725 C 0.23023 0.69255 0.21466 0.0
N726 N 0.1105 0.65255 0.17267 0.0
N727 N 0.20559 0.67018 0.19886 0.0
H728 H 0.3117 0.879 0.89753 0.0
H729 H 0.49636 0.97561 0.93595 0.0
H730 H 0.39161 0.87762 0.82343 0.0
H731 H 0.40048 1.00722 0.97275 0.0
H732 H 0.46061 0.9401 0.89373 0.0
H733 H 0.34552 0.92577 0.92607 0.0
C734 C 0.33639 0.88871 0.88724 0.0
C735 C 0.34921 0.87441 0.85843 0.0
C736 C 0.44762 0.95535 0.91068 0.0
C737 C 0.38816 0.92765 0.89103 0.0
C738 C 0.46793 0.97555 0.93481 0.0
C739 C 0.45132 0.99377 0.95854 0.0
C740 C 0.41066 0.95326 0.91074 0.0
C741 C 0.41443 0.993 0.95561 0.0
C742 C 0.35553 0.91554 0.90333 0.0
C743 C 0.38107 0.88807 0.84576 0.0
N744 N 0.39533 0.97261 0.9326 0.0
N745 N 0.39995 0.91374 0.86259 0.0
H746 H 0.06648 0.35099 0.89353 0.0
H747 H 0.08971 0.53526 0.93212 0.0
H748 H 0.14736 0.41416 0.84837 0.0
H749 H 0.9915 0.47565 0.94484 0.0
H750 H 0.10731 0.49381 0.89346 0.0
H751 H 1.03452 0.39725 0.90541 0.0
C752 C 0.07706 0.37456 0.88549 0.0
C753 C 0.10967 0.37892 0.87033 0.0
C754 C 0.08151 0.49019 0.90402 0.0
C755 C 0.07387 0.43203 0.88444 0.0
C756 C 0.07137 0.51396 0.92604 0.0
C757 C 0.03955 0.50855 0.94261 0.0
C758 C 0.05983 0.4608 0.89899 0.0
C759 C 1.01675 0.48053 0.93343 0.0
C760 C 0.05883 0.40097 0.89215 0.0
C761 C 0.12225 0.40986 0.86018 0.0
N762 N 1.02771 0.45738 0.91293 0.0
N763 N 0.10473 0.43541 0.86813 0.0
H764 H 0.68336 0.24829 0.82713 0.0
H765 H 0.63984 0.18271 1.01278 0.0
H766 H 0.75736 0.26694 0.91373 0.0
H767 H 0.59285 0.1375 0.91922 0.0
H768 H 0.67567 0.22207 0.97924 0.0
H769 H 0.64321 0.21593 0.86273 0.0
C770 C 0.69119 0.24584 0.85371 0.0
C771 C 0.72415 0.26039 0.86722 0.0
C772 C 0.65703 0.2039 0.96609 0.0
C773 C 0.67755 0.22321 0.90856 0.0
C774 C 0.6362 0.18175 0.98523 0.0
C775 C 0.61275 0.15718 0.96879 0.0
C776 C 0.65414 0.20172 0.9302 0.0
C777 C 0.6101 0.15636 0.93295 0.0
C778 C 0.66814 0.22721 0.87405 0.0
C779 C 0.73243 0.25613 0.90202 0.0
N780 N 0.63036 0.17822 0.91496 0.0
N781 N 0.70935 0.23803 0.92144 0.0
H782 H 0.84458 0.79082 0.03639 0.0
H783 H 0.98121 0.66581 0.03908 0.0
H784 H 0.95493 0.81118 1.01551 0.0
H785 H 0.87677 0.64423 0.0764 0.0
H786 H 0.97416 0.72245 0.04162 0.0
H787 H 0.85827 0.74265 0.06559 0.0
C788 C 0.87181 0.78582 0.03859 0.0
C789 C 0.89803 0.80373 1.02066 0.0
C790 C 0.95273 0.70552 0.04954 0.0
C791 C 0.91389 0.74929 0.05479 0.0
C792 C 0.95662 0.67295 0.04771 0.0
C793 C 0.92931 0.65008 0.05701 0.0
C794 C 0.92082 0.71558 0.05974 0.0
C795 C 0.89827 0.66104 0.06844 0.0
C796 C 0.87957 0.75826 0.0554 0.0
C797 C 0.93316 0.79748 1.02705 0.0
N798 N 0.89459 0.69306 0.06891 0.0
N799 N 0.93985 0.77016 0.04257 0.0
H800 H 0.19255 0.35651 0.08819 0.0
H801 H 1.02569 0.45602 0.09422 0.0
H802 H 0.10076 0.32976 0.14593 0.0
H803 H 0.12173 0.48879 0.04527 0.0
H804 H 0.04993 0.40599 0.10721 0.0
H805 H 0.16334 0.40082 0.0647 0.0
C806 C 0.16607 0.35959 0.09548 0.0
C807 C 0.1493 0.33955 0.11937 0.0
C808 C 0.06569 0.42413 0.0936 0.0
C809 C 0.11589 0.3902 0.09282 0.0
C810 C 0.05195 0.45283 0.08637 0.0
C811 C 0.07185 0.47686 0.06897 0.0
C812 C 0.09958 0.41938 0.08339 0.0
C813 C 0.10554 0.47109 0.05902 0.0
C814 C 0.14945 0.3849 0.08213 0.0
C815 C 0.11473 0.34434 0.12744 0.0
N816 N 0.11838 0.44297 0.06647 0.0
N817 N 0.09939 0.3694 0.11453 0.0
H818 H 0.2271 0.7786 0.03178 0.0
H819 H 0.03631 0.70049 0.06683 0.0
H820 H 0.13633 0.83156 1.02465 0.0
H821 H 0.1262 0.65419 0.03701 0.0
H822 H 0.07516 0.75158 0.07587 0.0
H823 H 0.19452 0.7396 0.06588 0.0
C824 C 0.2008 0.78302 0.03837 0.0
C825 C 0.18331 0.80693 1.02258 0.0
C826 C 0.08624 0.73002 0.06781 0.0
C827 C 0.14555 0.76129 0.06031 0.0
C828 C 0.0641 0.70115 0.06209 0.0
C829 C 0.07789 0.6736 0.04965 0.0
C830 C 0.12239 0.73076 0.06205 0.0
C831 C 0.11421 0.67523 0.04514 0.0
C832 C 0.18196 0.76026 0.05765 0.0
C833 C 0.14981 0.81184 0.03394 0.0
N834 N 0.1351 0.70331 0.0512 0.0
N835 N 0.13107 0.78811 0.0506 0.0
H836 H 0.31256 0.21504 0.89556 0.0
H837 H 0.49737 0.14147 0.94149 0.0
H838 H 0.40598 0.23921 0.83992 0.0
H839 H 0.40127 0.11673 0.99291 0.0
H840 H 0.46566 0.17662 0.90423 0.0
H841 H 0.34495 0.17927 0.93062 0.0
C842 C 0.33985 0.21292 0.89041 0.0
C843 C 0.35597 0.2307 0.86407 0.0
C844 C 0.45141 0.16344 0.92358 0.0
C845 C 0.39432 0.18876 0.90542 0.0
C846 C 0.46965 0.1431 0.94504 0.0
C847 C 0.45244 0.12541 0.97091 0.0
C848 C 0.41528 0.1667 0.92756 0.0
C849 C 0.41623 0.12936 0.97366 0.0
C850 C 0.35855 0.19226 0.91073 0.0
C851 C 0.39183 0.2263 0.85951 0.0
N852 N 0.39928 0.14923 0.95269 0.0
N853 N 0.40949 0.20613 0.87971 0.0
H854 H 0.77497 0.39886 0.87919 0.0
H855 H 0.94641 0.51728 0.94709 0.0
H856 H 0.88157 0.38779 0.85289 0.0
H857 H 0.84855 0.51016 0.99867 0.0
H858 H 0.91926 0.47719 0.90444 0.0
H859 H 0.79807 0.44616 0.91587 0.0
C860 C 0.8031 0.40646 0.88088 0.0
C861 C 0.82633 0.38904 0.86311 0.0
C862 C 0.90355 0.4847 0.92485 0.0
C863 C 0.85286 0.44336 0.90457 0.0
C864 C 0.919 0.50787 0.94915 0.0
C865 C 0.89996 0.51715 0.97687 0.0
C866 C 0.86856 0.47076 0.92785 0.0
C867 C 0.86442 0.50378 0.97793 0.0
C868 C 0.81628 0.43339 0.90187 0.0
C869 C 0.86259 0.4001 0.86634 0.0
N870 N 0.84999 0.4812 0.954 0.0
N871 N 0.87462 0.4264 0.8865 0.0
H872 H 0.68721 0.83541 0.84463 0.0
H873 H 0.67326 1.00036 0.9621 0.0
H874 H 0.77904 0.89302 0.88898 0.0
H875 H 0.5852 0.92661 0.95259 0.0
H876 H 0.70921 0.96478 0.93141 0.0
H877 H 0.64944 0.86883 0.87704 0.0
C878 C 0.7001 0.855 0.86088 0.0
C879 C 0.738 0.85998 0.86274 0.0
C880 C 0.68209 0.95588 0.93575 0.0
C881 C 0.69205 0.90119 0.90183 0.0
C882 C 0.66076 0.97673 0.95382 0.0
C883 C 0.62459 0.96804 0.96159 0.0
C884 C 0.66851 0.92455 0.92297 0.0
C885 C 0.61226 0.93593 0.94867 0.0
C886 C 0.67782 0.87453 0.87996 0.0
C887 C 0.75078 0.88681 0.88546 0.0
N888 N 0.63339 0.91639 0.93041 0.0
N889 N 0.72866 0.90569 0.90297 0.0
H890 H 0.84748 0.66183 0.31467 0.0
H891 H 0.97856 0.65621 0.1621 0.0
H892 H 0.88802 0.74448 0.25922 0.0
H893 H 0.91207 0.57267 0.19326 0.0
H894 H 0.95754 0.6877 0.2085 0.0
H895 H 0.88252 0.62825 0.28067 0.0
C896 C 0.86418 0.67301 0.29582 0.0
C897 C 0.86449 0.7059 0.28945 0.0
C898 C 0.94791 0.66237 0.20542 0.0
C899 C 0.90466 0.66782 0.25075 0.0
C900 C 0.96001 0.64426 0.17898 0.0
C901 C 0.94661 0.61176 0.17325 0.0
C902 C 0.92235 0.64796 0.22648 0.0
C903 C 0.92276 0.59774 0.1963 0.0
C904 C 0.88403 0.65383 0.27634 0.0
C905 C 0.88658 0.71912 0.26462 0.0
N906 N 0.91109 0.616 0.22169 0.0
N907 N 0.90562 0.70003 0.2461 0.0
H908 H 0.33087 0.88981 0.22158 0.0
H909 H 0.48573 0.91782 0.08478 0.0
H910 H 0.39023 0.81224 0.19363 0.0
H911 H 0.43008 0.99162 0.1293 0.0
H912 H 0.45249 0.87797 0.12085 0.0
H913 H 0.36661 0.9254 0.18506 0.0
C914 C 0.35128 0.87991 0.20775 0.0
C915 C 0.35671 0.84724 0.21137 0.0
C916 C 0.44768 0.90297 0.12268 0.0
C917 C 0.39933 0.88942 0.16791 0.0
C918 C 0.46696 0.92602 0.10194 0.0
C919 C 0.4615 0.95908 0.10307 0.0
C920 C 0.42217 0.91248 0.14505 0.0
C921 C 0.43605 0.96704 0.12641 0.0
C922 C 0.37207 0.90062 0.18661 0.0
C923 C 0.38436 0.8369 0.19212 0.0
N924 N 0.41788 0.94448 0.14569 0.0
N925 N 0.40424 0.85759 0.17151 0.0
H926 H 0.69196 0.23852 0.24969 0.0
H927 H 0.68193 0.11538 0.08689 0.0
H928 H 0.78309 0.20771 0.20295 0.0
H929 H 0.58853 0.14153 0.13338 0.0
H930 H 0.71842 0.14827 0.13014 0.0
H931 H 0.65361 0.20322 0.20893 0.0
C932 C 0.70406 0.22432 0.231 0.0
C933 C 0.74118 0.22641 0.23008 0.0
C934 C 0.68998 0.14687 0.13114 0.0
C935 C 0.69683 0.18556 0.18274 0.0
C936 C 0.66888 0.12794 0.10625 0.0
C937 C 0.63169 0.12545 0.10599 0.0
C938 C 0.67429 0.16404 0.15648 0.0
C939 C 0.61692 0.14243 0.1323 0.0
C940 C 0.68198 0.20409 0.20762 0.0
C941 C 0.75485 0.20722 0.20495 0.0
N942 N 0.63815 0.16103 0.15621 0.0
N943 N 0.73286 0.18788 0.1825 0.0
H944 H 0.72397 0.69877 0.83216 0.0
H945 H 0.68751 0.64019 1.02397 0.0
H946 H 0.78776 0.74037 0.91911 0.0
H947 H 0.64014 0.59097 0.93272 0.0
H948 H 0.72496 0.67654 0.98809 0.0
H949 H 0.69323 0.66006 0.86954 0.0
C950 C 0.73173 0.69991 0.85908 0.0
C951 C 0.75899 0.72337 0.87192 0.0
C952 C 0.70687 0.65738 0.97589 0.0
C953 C 0.7228 0.67818 0.91602 0.0
C954 C 0.68575 0.63616 0.99655 0.0
C955 C 0.66106 0.61137 0.98175 0.0
C956 C 0.70305 0.65454 0.93983 0.0
C957 C 0.65921 0.6089 0.94569 0.0
C958 C 0.714 0.67753 0.88063 0.0
C959 C 0.76722 0.72297 0.90751 0.0
N960 N 0.67939 0.62995 0.92637 0.0
N961 N 0.74929 0.70114 0.92804 0.0
H962 H 0.30798 0.71396 0.91751 0.0
H963 H 0.50076 0.65047 0.95525 0.0
H964 H 0.39845 0.73624 0.85755 0.0
H965 H 0.41076 0.60893 1.00758 0.0
H966 H 0.46318 0.68362 0.92367 0.0
H967 H 0.34257 0.67892 0.95272 0.0
C968 C 0.33502 0.71183 0.91146 0.0
C969 C 0.34944 0.72902 0.88354 0.0
C970 C 0.45119 0.6675 0.94203 0.0
C971 C 0.39069 0.68763 0.92545 0.0
C972 C 0.47308 0.64802 0.96074 0.0
C973 C 0.46023 0.62569 0.98534 0.0
C974 C 0.41467 0.66614 0.9469 0.0
C975 C 0.42317 0.62523 0.98965 0.0
C976 C 0.35502 0.69141 0.93191 0.0
C977 C 0.38516 0.72417 0.87816 0.0
N978 N 0.40227 0.64478 0.97104 0.0
N979 N 0.40389 0.70464 0.89845 0.0
H980 H 0.38355 0.39889 0.82203 0.0
H981 H 0.45577 0.46177 1.00979 0.0
H982 H 0.34874 0.35359 0.91393 0.0
H983 H 0.48342 0.51086 0.9178 0.0
H984 H 0.41836 0.42062 0.97519 0.0
H985 H 0.42197 0.43897 0.85682 0.0
C986 C 0.38391 0.39737 0.84953 0.0
C987 C 0.36278 0.37283 0.86504 0.0
C988 C 0.43264 0.44041 0.96261 0.0
C989 C 0.40692 0.4187 0.90513 0.0
C990 C 0.45407 0.46392 0.98235 0.0
C991 C 0.47273 0.48999 0.96677 0.0
C992 C 0.4299 0.44286 0.92699 0.0
C993 C 0.46946 0.49136 0.93105 0.0
C994 C 0.40591 0.42029 0.86941 0.0
C995 C 0.36448 0.3721 0.90083 0.0
N996 N 0.44849 0.46818 0.91244 0.0
N997 N 0.38617 0.39468 0.91964 0.0
H998 H 0.57919 0.40997 0.79998 0.0
H999 H 0.58369 0.4452 0.99609 0.0
H1000 H 0.59355 0.33715 0.87366 0.0
H1001 H 0.55747 0.51142 0.91896 0.0
H1002 H 0.57315 0.40102 0.95308 0.0
H1003 H 0.55314 0.441 0.84294 0.0
C1004 C 0.57593 0.39986 0.82486 0.0
C1005 C 0.59033 0.37158 0.83359 0.0
C1006 C 0.56917 0.42518 0.94578 0.0
C1007 C 0.56214 0.4081 0.88363 0.0
C1008 C 0.57552 0.4504 0.97024 0.0
C1009 C 0.57288 0.48214 0.96073 0.0
C1010 C 0.5601 0.43197 0.91179 0.0
C1011 C 0.56123 0.48747 0.92716 0.0
C1012 C 0.56135 0.41793 0.8497 0.0
C1013 C 0.58462 0.35977 0.86631 0.0
N1014 N 0.55574 0.46276 0.90388 0.0
N1015 N 0.57219 0.37867 0.8906 0.0
H1016 H 0.7906 0.36478 0.1896 0.0
H1017 H 0.61046 0.45283 0.1659 0.0
H1018 H 0.71176 0.3657 0.26422 0.0
H1019 H 0.69346 0.47168 0.09604 0.0
H1020 H 0.64692 0.41947 0.19855 0.0
H1021 H 0.7573 0.40032 0.1539 0.0
C1022 C 0.76641 0.37224 0.19889 0.0
C1023 C 0.75494 0.36134 0.23108 0.0
C1024 C 0.6576 0.43062 0.17614 0.0
C1025 C 0.71497 0.40337 0.18843 0.0
C1026 C 0.63632 0.45017 0.15674 0.0
C1027 C 0.64749 0.4662 0.12679 0.0
C1028 C 0.69176 0.42543 0.16665 0.0
C1029 C 0.6824 0.46059 0.1183 0.0
C1030 C 0.74713 0.39293 0.17807 0.0
C1031 C 0.72273 0.37276 0.24028 0.0
N1032 N 0.70264 0.44096 0.13762 0.0
N1033 N 0.70448 0.39239 0.21955 0.0
H1034 H 0.70306 0.67813 0.30195 0.0
H1035 H 0.63292 0.63847 0.10831 0.0
H1036 H 0.72605 0.74581 0.22292 0.0
H1037 H 0.63277 0.57056 0.18922 0.0
H1038 H 0.66039 0.68098 0.14907 0.0
H1039 H 0.66803 0.64221 0.26067 0.0
C1040 C 0.70042 0.68554 0.27581 0.0
C1041 C 0.71778 0.71475 0.26571 0.0
C1042 C 0.65429 0.6567 0.15765 0.0
C1043 C 0.67824 0.67321 0.21776 0.0
C1044 C 0.63887 0.63242 0.13442 0.0
C1045 C 0.63064 0.6008 0.14525 0.0
C1046 C 0.66124 0.64917 0.19181 0.0
C1047 C 0.63855 0.59444 0.17949 0.0
C1048 C 0.68051 0.66494 0.25214 0.0
C1049 C 0.71305 0.72338 0.23162 0.0
N1050 N 0.65324 0.61831 0.20135 0.0
N1051 N 0.69405 0.70241 0.20859 0.0
H1052 H 0.52331 0.7618 0.21662 0.0
H1053 H 0.55195 0.58123 0.19092 0.0
H1054 H 0.52109 0.69063 0.29435 0.0
H1055 H 0.53265 0.64585 0.11002 0.0
H1056 H 0.56728 0.62732 0.22997 0.0
H1057 H 0.55551 0.72738 0.18119 0.0
C1058 C 0.53047 0.73949 0.22681 0.0
C1059 C 0.51667 0.72784 0.25728 0.0
C1060 C 0.56002 0.63149 0.20361 0.0
C1061 C 0.55409 0.68902 0.21739 0.0
C1062 C 0.5507 0.60515 0.18137 0.0
C1063 C 0.53936 0.60967 0.14751 0.0
C1064 C 0.55699 0.66261 0.19227 0.0
C1065 C 0.54 0.64126 0.13623 0.0
C1066 C 0.54898 0.71991 0.20654 0.0
C1067 C 0.52927 0.70007 0.27027 0.0
N1068 N 0.5478 0.66657 0.15881 0.0
N1069 N 0.54622 0.68101 0.24971 0.0
H1070 H 0.38819 0.38473 0.27205 0.0
H1071 H 0.41512 0.45785 0.08518 0.0
H1072 H 0.31108 0.35876 0.18944 0.0
H1073 H 0.47192 0.49611 0.1773 0.0
H1074 H 0.37653 0.42147 0.12018 0.0
H1075 H 0.4193 0.42414 0.23593 0.0
C1076 C 0.37755 0.38724 0.24634 0.0
C1077 C 0.34647 0.36797 0.23433 0.0
C1078 C 0.39704 0.43827 0.13277 0.0
C1079 C 0.38313 0.41389 0.1916 0.0
C1080 C 0.41887 0.45948 0.1127 0.0
C1081 C 0.44666 0.48101 0.12807 0.0
C1082 C 0.40326 0.43792 0.16862 0.0
C1083 C 0.45069 0.48059 0.16402 0.0
C1084 C 0.3955 0.41002 0.22551 0.0
C1085 C 0.33463 0.37292 0.20032 0.0
N1086 N 0.4298 0.45959 0.18264 0.0
N1087 N 0.35293 0.39498 0.18029 0.0
H1088 H 0.91179 0.71523 0.78815 0.0
H1089 H 0.97985 0.65535 0.60134 0.0
H1090 H 0.85989 0.73994 0.69476 0.0
H1091 H 0.99361 0.60245 0.69225 0.0
H1092 H 0.94376 0.6909 0.63354 0.0
H1093 H 0.94728 0.68052 0.75478 0.0
C1094 C 0.90751 0.71392 0.76069 0.0
C1095 C 0.88127 0.73186 0.74562 0.0
C1096 C 0.95468 0.67164 0.64681 0.0
C1097 C 0.92505 0.69028 0.70476 0.0
C1098 C 0.97599 0.65086 0.62798 0.0
C1099 C 0.99127 0.62435 0.64281 0.0
C1100 C 0.94809 0.66777 0.68219 0.0
C1101 C 0.98339 0.6216 0.67823 0.0
C1102 C 0.92833 0.69348 0.74115 0.0
C1103 C 0.87881 0.72743 0.70901 0.0
N1104 N 0.96356 0.64236 0.69586 0.0
N1105 N 0.89986 0.70812 0.6907 0.0
H1106 H 0.37538 0.93436 0.68366 0.0
H1107 H 0.56353 1.01183 0.67246 0.0
H1108 H 0.46214 0.92056 0.75434 0.0
H1109 H 0.47588 0.02255 0.60212 0.0
H1110 H 0.52224 1.00162 0.71778 0.0
H1111 H 0.40442 0.98708 0.67168 0.0
C1112 C 0.4002 0.94261 0.69729 0.0
C1113 C 0.41733 0.92222 0.71861 0.0
C1114 C 0.51206 1.00741 0.69276 0.0
C1115 C 0.45145 0.98211 0.70376 0.0
C1116 C 0.53566 1.01323 0.66697 0.0
C1117 C 0.52254 1.01628 0.63351 0.0
C1118 C 0.47552 1.00405 0.68437 0.0
C1119 C 0.48656 0.01873 0.62754 0.0
C1120 C 0.41686 0.97288 0.69041 0.0
C1121 C 0.44908 0.93471 0.73602 0.0
N1122 N 0.46407 1.01173 0.6526 0.0
N1123 N 0.46573 0.96348 0.7274 0.0
H1124 H 0.2099 0.38149 0.79075 0.0
H1125 H 0.16509 0.45686 0.60692 0.0
H1126 H 0.26627 0.36246 0.70121 0.0
H1127 H 0.11104 0.47539 0.6981 0.0
H1128 H 0.20269 0.42326 0.64014 0.0
H1129 H 0.17436 0.41604 0.75717 0.0
C1130 C 0.21507 0.3845 0.76408 0.0
C1131 C 0.24169 0.36859 0.74929 0.0
C1132 C 0.18268 0.43477 0.65294 0.0
C1133 C 0.2001 0.409 0.70977 0.0
C1134 C 0.1611 0.45421 0.63386 0.0
C1135 C 0.13439 0.46958 0.64926 0.0
C1136 C 0.17795 0.43021 0.68808 0.0
C1137 C 0.13096 0.46448 0.68455 0.0
C1138 C 0.19453 0.40443 0.74473 0.0
C1139 C 0.24641 0.37396 0.71423 0.0
N1140 N 0.1521 0.44553 0.70237 0.0
N1141 N 0.22608 0.39341 0.69596 0.0
H1142 H 0.77449 0.26178 0.68065 0.0
H1143 H 0.67403 0.08583 0.64757 0.0
H1144 H 0.76701 0.19269 0.76024 0.0
H1145 H 0.71798 0.14346 0.56703 0.0
H1146 H 0.70593 0.12432 0.68964 0.0
H1147 H 0.75166 0.21902 0.63904 0.0
C1148 C 0.76829 0.23754 0.68938 0.0
C1149 C 0.77272 0.23089 0.72408 0.0
C1150 C 0.7089 0.12825 0.66274 0.0
C1151 C 0.74586 0.18167 0.67639 0.0
C1152 C 0.6907 0.10625 0.63864 0.0
C1153 C 0.6931 0.11124 0.60347 0.0
C1154 C 0.72921 0.15584 0.65174 0.0
C1155 C 0.71519 0.13834 0.59369 0.0
C1156 C 0.7553 0.21308 0.66554 0.0
C1157 C 0.76422 0.19892 0.73376 0.0
N1158 N 0.7319 0.15971 0.61758 0.0
N1159 N 0.75078 0.17561 0.71016 0.0
H1160 H 0.84821 0.35373 0.40504 0.0
H1161 H 1.02268 0.48091 0.42423 0.0
H1162 H 0.91611 0.37889 0.32283 0.0
H1163 H 0.96689 0.44682 0.51161 0.0
H1164 H 0.98035 0.44716 0.38705 0.0
H1165 H 0.88757 0.39003 0.44376 0.0
C1166 C 0.87126 0.36697 0.39493 0.0
C1167 C 0.87857 0.36302 0.36024 0.0
C1168 C 0.97714 0.44692 0.4143 0.0
C1169 C 0.92411 0.40507 0.40505 0.0
C1170 C 1.00146 0.46636 0.43583 0.0
C1171 C 0.99898 0.46671 0.47157 0.0
C1172 C 0.94944 0.42728 0.42806 0.0
C1173 C 0.97021 0.44743 0.48441 0.0
C1174 C 0.89383 0.3877 0.41726 0.0
C1175 C 0.90912 0.38092 0.34913 0.0
N1176 N 0.94673 0.42844 0.46274 0.0
N1177 N 0.93053 0.40102 0.37131 0.0
H1178 H 0.75387 0.86676 0.36551 0.0
H1179 H 0.60113 0.88606 0.49465 0.0
H1180 H 0.6955 0.78507 0.40993 0.0
H1181 H 0.67287 0.96474 0.46069 0.0
H1182 H 0.63416 0.8482 0.46407 0.0
H1183 H 0.72221 0.90255 0.39921 0.0
C1184 C 0.73428 0.85625 0.38226 0.0
C1185 C 0.72742 0.82275 0.38484 0.0
C1186 C 0.64266 0.87376 0.4635 0.0
C1187 C 0.69096 0.86394 0.4239 0.0
C1188 C 0.62386 0.89539 0.48096 0.0
C1189 C 0.63395 0.92871 0.48 0.0
C1190 C 0.67151 0.88559 0.44472 0.0
C1191 C 0.66381 0.93935 0.46203 0.0
C1192 C 0.71627 0.87681 0.40169 0.0
C1193 C 0.70164 0.81073 0.40708 0.0
N1194 N 0.68128 0.91791 0.44496 0.0
N1195 N 0.6843 0.83133 0.42577 0.0
H1196 H 0.27796 0.70602 0.3793 0.0
H1197 H 0.09472 0.66366 0.47693 0.0
H1198 H 0.18763 0.75732 0.36042 0.0
H1199 H 0.18687 0.61392 0.49097 0.0
H1200 H 0.12767 0.70024 0.43773 0.0
H1201 H 0.24519 0.67437 0.42175 0.0
C1202 C 0.25128 0.7109 0.38393 0.0
C1203 C 0.23616 0.73496 0.36549 0.0
C1204 C 0.14092 0.68162 0.44979 0.0
C1205 C 0.19732 0.6977 0.41557 0.0
C1206 C 0.12209 0.66085 0.47282 0.0
C1207 C 0.13775 0.63547 0.4885 0.0
C1208 C 0.17605 0.67739 0.44178 0.0
C1209 C 0.17325 0.63302 0.48036 0.0
C1210 C 0.23234 0.69257 0.4085 0.0
C1211 C 0.20101 0.73936 0.37349 0.0
N1212 N 0.19068 0.65319 0.45802 0.0
N1213 N 0.18313 0.72119 0.39749 0.0
H1214 H 0.39125 0.19137 0.44856 0.0
H1215 H 0.49713 0.07013 0.48133 0.0
H1216 H 0.47743 0.25584 0.4957 0.0
H1217 H 0.57905 0.1475 0.46526 0.0
H1218 H 0.45563 0.10985 0.48951 0.0
H1219 H 0.42399 0.14627 0.46042 0.0
C1220 C 0.41644 0.1961 0.46269 0.0
C1221 C 0.43192 0.22776 0.47032 0.0
C1222 C 0.48258 0.11802 0.48377 0.0
C1223 C 0.47 0.17586 0.48327 0.0
C1224 C 0.50626 0.0954 0.47892 0.0
C1225 C 0.54148 0.10544 0.47182 0.0
C1226 C 0.49424 0.15089 0.48152 0.0
C1227 C 0.55202 0.13857 0.46992 0.0
C1228 C 0.43529 0.17011 0.4693 0.0
C1229 C 0.46493 0.23199 0.48828 0.0
N1230 N 0.52848 0.16009 0.47479 0.0
N1231 N 0.48338 0.20641 0.49319 0.0
H1232 H 0.70301 0.79397 0.564 0.0
H1233 H 0.70023 0.98325 0.57517 0.0
H1234 H 0.78098 0.85785 0.62332 0.0
H1235 H 0.61075 0.90989 0.56917 0.0
H1236 H 0.73949 0.94072 0.56872 0.0
H1237 H 0.68192 0.84078 0.53717 0.0
C1238 C 0.71668 0.81766 0.57036 0.0
C1239 C 0.74243 0.82214 0.59728 0.0
C1240 C 0.71117 0.93428 0.56823 0.0
C1241 C 0.71846 0.87534 0.56702 0.0
C1242 C 0.68887 0.95833 0.57241 0.0
C1243 C 0.65228 0.95 0.57367 0.0
C1244 C 0.69651 0.90199 0.56437 0.0
C1245 C 0.63883 0.91744 0.56931 0.0
C1246 C 0.70457 0.84433 0.55513 0.0
C1247 C 0.7602 0.85324 0.60351 0.0
N1248 N 0.66093 0.8947 0.56489 0.0
N1249 N 0.74702 0.87891 0.58939 0.0
H1250 H 0.77906 0.16387 0.46512 0.0
H1251 H 0.64665 0.06243 0.37924 0.0
H1252 H 0.75158 0.18088 0.36011 0.0
H1253 H 0.7163 0.02288 0.45183 0.0
H1254 H 0.69718 0.09335 0.35611 0.0
H1255 H 0.77213 0.10592 0.45168 0.0
C1256 C 0.77269 0.15529 0.43904 0.0
C1257 C 0.7646 0.17658 0.4139 0.0
C1258 C 0.70197 0.07678 0.37608 0.0
C1259 C 0.7557 0.11089 0.39831 0.0
C1260 C 0.67289 0.05863 0.38891 0.0
C1261 C 0.67743 0.04214 0.41895 0.0
C1262 C 0.73474 0.0789 0.39462 0.0
C1263 C 0.7119 0.03712 0.42973 0.0
C1264 C 0.76895 0.12226 0.43114 0.0
C1265 C 0.75689 0.1647 0.38032 0.0
N1266 N 0.73942 0.05705 0.419 0.0
N1267 N 0.75163 0.13252 0.37361 0.0
H1268 H 0.8079 0.56916 0.4675 0.0
H1269 H 1.00399 0.5621 0.4297 0.0
H1270 H 0.84111 0.5609 0.36404 0.0
H1271 H 0.96031 0.54399 0.52775 0.0
H1272 H 0.94408 0.55242 0.40304 0.0
H1273 H 0.85993 0.54678 0.48744 0.0
C1274 C 0.82538 0.56201 0.44853 0.0
C1275 C 0.82069 0.56921 0.41395 0.0
C1276 C 0.9478 0.55011 0.43033 0.0
C1277 C 0.88218 0.54484 0.43751 0.0
C1278 C 0.9819 0.55604 0.44556 0.0
C1279 C 0.98699 0.55525 0.48113 0.0
C1280 C 0.91884 0.5434 0.45092 0.0
C1281 C 0.9576 0.54621 0.50037 0.0
C1282 C 0.85574 0.54942 0.46024 0.0
C1283 C 0.84468 0.55826 0.39125 0.0
N1284 N 0.92486 0.54109 0.4851 0.0
N1285 N 0.87521 0.54791 0.40354 0.0
H1286 H 0.40962 0.84505 0.3177 0.0
H1287 H 0.45215 0.95687 0.48505 0.0
H1288 H 0.32799 0.87205 0.38161 0.0
H1289 H 0.52665 0.94967 0.40662 0.0
H1290 H 0.40639 0.92625 0.44796 0.0
H1291 H 0.45264 0.88274 0.35035 0.0
C1292 C 0.40065 0.8589 0.33866 0.0
C1293 C 0.36502 0.85505 0.34707 0.0
C1294 C 0.43261 0.93164 0.43866 0.0
C1295 C 0.41464 0.89854 0.3848 0.0
C1296 C 0.45885 0.94912 0.45985 0.0
C1297 C 0.49348 0.95575 0.44905 0.0
C1298 C 0.44101 0.92014 0.4065 0.0
C1299 C 0.50038 0.94524 0.41602 0.0
C1300 C 0.42533 0.88061 0.3572 0.0
C1301 C 0.35513 0.87404 0.37429 0.0
N1302 N 0.47453 0.92761 0.39612 0.0
N1303 N 0.37986 0.89472 0.39239 0.0
H1304 H 0.28478 0.3806 0.39037 0.0
H1305 H 0.09935 0.41032 0.47619 0.0
H1306 H 0.18592 0.32935 0.3527 0.0
H1307 H 0.19126 0.48023 0.48313 0.0
H1308 H 0.13093 0.37618 0.43801 0.0
H1309 H 0.25252 0.41233 0.42962 0.0
C1310 C 0.25629 0.37573 0.39012 0.0
C1311 C 0.23874 0.35172 0.36716 0.0
C1312 C 0.14446 0.39881 0.44817 0.0
C1313 C 0.20042 0.38875 0.41422 0.0
C1314 C 0.12638 0.41838 0.47062 0.0
C1315 C 0.14227 0.44865 0.48421 0.0
C1316 C 0.17949 0.40873 0.43898 0.0
C1317 C 0.17738 0.45731 0.47425 0.0
C1318 C 0.23765 0.39416 0.41289 0.0
C1319 C 0.20133 0.34738 0.36918 0.0
N1320 N 0.19439 0.43779 0.45301 0.0
N1321 N 0.18389 0.36518 0.39199 0.0
H1322 H 0.47815 0.26846 0.61748 0.0
H1323 H 0.51317 0.08744 0.5741 0.0
H1324 H 0.42325 0.18425 0.66055 0.0
H1325 H 0.58578 0.16984 0.55067 0.0
H1326 H 0.47299 0.12352 0.59546 0.0
H1327 H 0.51124 0.23332 0.58346 0.0
C1328 C 0.47298 0.24263 0.61976 0.0
C1329 C 0.44809 0.22932 0.64221 0.0
C1330 C 0.49765 0.13376 0.58555 0.0
C1331 C 0.48546 0.18915 0.60308 0.0
C1332 C 0.52072 0.11317 0.57339 0.0
C1333 C 0.55336 0.12563 0.56131 0.0
C1334 C 0.50721 0.16714 0.58583 0.0
C1335 C 0.56118 0.1592 0.5603 0.0
C1336 C 0.49173 0.22264 0.6002 0.0
C1337 C 0.44189 0.19566 0.64346 0.0
N1338 N 0.53838 0.17886 0.57278 0.0
N1339 N 0.4606 0.1768 0.62435 0.0
H1340 H 0.83044 0.37816 0.70621 0.0
H1341 H 1.02819 0.40851 0.64226 0.0
H1342 H 0.91218 0.32156 0.74084 0.0
H1343 H 0.94271 0.46184 0.6109 0.0
H1344 H 0.98627 0.37223 0.67349 0.0
H1345 H 0.87093 0.40515 0.66743 0.0
C1346 C 0.85693 0.37124 0.7057 0.0
C1347 C 0.86771 0.34749 0.72726 0.0
C1348 C 0.97656 0.39144 0.65914 0.0
C1349 C 0.91503 0.37892 0.68221 0.0
C1350 C 1.00042 0.41186 0.64088 0.0
C1351 C 0.98885 0.43798 0.62344 0.0
C1352 C 0.94091 0.39728 0.66005 0.0
C1353 C 0.95275 0.44183 0.6236 0.0
C1354 C 0.88019 0.38676 0.68332 0.0
C1355 C 0.90255 0.33969 0.72486 0.0
N1356 N 0.93032 0.422 0.64167 0.0
N1357 N 0.92499 0.35549 0.703 0.0
H1358 H 0.26794 0.67727 0.77764 0.0
H1359 H 0.13868 0.64412 0.61455 0.0
H1360 H 0.19709 0.74509 0.74456 0.0
H1361 H 0.14587 0.56999 0.68806 0.0
H1362 H 0.1773 0.68157 0.65271 0.0
H1363 H 0.23753 0.63701 0.73619 0.0
C1364 C 0.24585 0.68348 0.76179 0.0
C1365 C 0.23452 0.71415 0.76452 0.0
C1366 C 0.17083 0.6569 0.66003 0.0
C1367 C 0.20128 0.6694 0.71681 0.0
C1368 C 0.14922 0.63556 0.63828 0.0
C1369 C 0.13909 0.60424 0.64856 0.0
C1370 C 0.18276 0.64641 0.69165 0.0
C1371 C 0.15302 0.59419 0.67962 0.0
C1372 C 0.22879 0.66074 0.73825 0.0
C1373 C 0.20611 0.72144 0.74344 0.0
N1374 N 0.17423 0.61535 0.70031 0.0
N1375 N 0.1906 0.69924 0.72007 0.0
loop_
_geom_bond_atom_site_label_1
_geom_bond_atom_site_label_2
_geom_bond_distance
_geom_bond_site_symmetry_2
_ccdc_geom_bond_type
Dy0 O3 2.307 . S
Dy0 O5 2.395 . S
Dy0 O6 2.379 . S
Dy0 O8 2.339 . S
Dy0 O10 2.298 . S
Dy0 O14 2.275 . S
Dy0 C22 2.738 . S
Dy1 O4 2.298 . S
Dy1 O7 2.275 . S
Dy1 O9 2.307 . S
Dy1 O11 2.395 . S
Dy1 O12 2.379 . S
Dy1 O15 2.339 . S
Dy1 C31 2.738 . S
C2 O14 1.254 . S
C2 O15 1.257 . S
O3 Dy0 2.307 . S
O3 C13 1.266 . S
O4 Dy1 2.298 . S
O4 C13 1.236 . S
O5 Dy0 2.395 . S
O5 C22 1.255 . S
O6 Dy0 2.379 . S
O6 C22 1.249 . S
O7 Dy1 2.275 . S
O7 C23 1.254 . S
O8 Dy0 2.339 . S
O8 C23 1.257 . S
O9 Dy1 2.307 . S
O9 C24 1.266 . S
O10 Dy0 2.298 . S
O10 C24 1.236 . S
O11 Dy1 2.395 . S
O11 C31 1.255 . S
O12 Dy1 2.379 . S
O12 C31 1.249 . S
C13 O3 1.266 . S
C13 O4 1.236 . S
O14 Dy0 2.275 . S
O14 C2 1.254 . S
O15 Dy1 2.339 . S
O15 C2 1.257 . S
C16 C19 1.344 . S
C16 C20 1.328 . S
C16 C22 1.516 . S
C17 C18 1.304 . S
C17 C21 1.323 . S
C18 C17 1.304 . S
C18 C19 1.371 . S
C18 H32 0.930 . S
C19 C16 1.344 . S
C19 C18 1.371 . S
C19 H33 0.931 . S
C20 C16 1.328 . S
C20 C21 1.433 . S
C20 H34 0.931 . S
C21 C17 1.323 . S
C21 C20 1.433 . S
C21 H35 0.933 . S
C22 Dy0 2.738 . S
C22 O5 1.255 . S
C22 O6 1.249 . S
C22 C16 1.516 . S
C23 O7 1.254 . S
C23 O8 1.257 . S
C24 O9 1.266 . S
C24 O10 1.236 . S
C25 C28 1.344 . S
C25 C29 1.328 . S
C25 C31 1.516 . S
C26 C27 1.304 . S
C26 C30 1.323 . S
C27 C26 1.304 . S
C27 C28 1.371 . S
C27 H36 0.930 . S
C28 C25 1.344 . S
C28 C27 1.371 . S
C28 H37 0.931 . S
C29 C25 1.328 . S
C29 C30 1.433 . S
C29 H38 0.931 . S
C30 C26 1.323 . S
C30 C29 1.433 . S
C30 H39 0.933 . S
C31 Dy1 2.738 . S
C31 O11 1.255 . S
C31 O12 1.249 . S
C31 C25 1.516 . S
H32 C18 0.930 . S
H33 C19 0.931 . S
H34 C20 0.931 . S
H35 C21 0.933 . S
H36 C27 0.930 . S
H37 C28 0.931 . S
H38 C29 0.931 . S
H39 C30 0.933 . S
Dy40 O43 2.307 . S
Dy40 O45 2.395 . S
Dy40 O46 2.379 . S
Dy40 O48 2.339 . S
Dy40 O50 2.298 . S
Dy40 O54 2.275 . S
Dy40 C62 2.738 . S
Dy41 O44 2.298 . S
Dy41 O47 2.275 . S
Dy41 O49 2.307 . S
Dy41 O51 2.395 . S
Dy41 O52 2.379 . S
Dy41 O55 2.339 . S
Dy41 C71 2.738 . S
C42 O54 1.254 . S
C42 O55 1.257 . S
O43 Dy40 2.307 . S
O43 C53 1.266 . S
O44 Dy41 2.298 . S
O44 C53 1.236 . S
O45 Dy40 2.395 . S
O45 C62 1.255 . S
O46 Dy40 2.379 . S
O46 C62 1.249 . S
O47 Dy41 2.275 . S
O47 C63 1.254 . S
O48 Dy40 2.339 . S
O48 C63 1.257 . S
O49 Dy41 2.307 . S
O49 C64 1.266 . S
O50 Dy40 2.298 . S
O50 C64 1.236 . S
O51 Dy41 2.395 . S
O51 C71 1.255 . S
O52 Dy41 2.379 . S
O52 C71 1.249 . S
C53 O43 1.266 . S
C53 O44 1.236 . S
O54 Dy40 2.275 . S
O54 C42 1.254 . S
O55 Dy41 2.339 . S
O55 C42 1.257 . S
C56 C59 1.344 . S
C56 C60 1.328 . S
C56 C62 1.516 . S
C57 C58 1.304 . S
C57 C61 1.323 . S
C58 C57 1.304 . S
C58 C59 1.371 . S
C58 H72 0.930 . S
C59 C56 1.344 . S
C59 C58 1.371 . S
C59 H73 0.931 . S
C60 C56 1.328 . S
C60 C61 1.433 . S
C60 H74 0.931 . S
C61 C57 1.323 . S
C61 C60 1.433 . S
C61 H75 0.933 . S
C62 Dy40 2.738 . S
C62 O45 1.255 . S
C62 O46 1.249 . S
C62 C56 1.516 . S
C63 O47 1.254 . S
C63 O48 1.257 . S
C64 O49 1.266 . S
C64 O50 1.236 . S
C65 C68 1.344 . S
C65 C69 1.328 . S
C65 C71 1.516 . S
C66 C67 1.304 . S
C66 C70 1.323 . S
C67 C66 1.304 . S
C67 C68 1.371 . S
C67 H76 0.930 . S
C68 C65 1.344 . S
C68 C67 1.371 . S
C68 H77 0.931 . S
C69 C65 1.328 . S
C69 C70 1.433 . S
C69 H78 0.931 . S
C70 C66 1.323 . S
C70 C69 1.433 . S
C70 H79 0.933 . S
C71 Dy41 2.738 . S
C71 O51 1.255 . S
C71 O52 1.249 . S
C71 C65 1.516 . S
H72 C58 0.930 . S
H73 C59 0.931 . S
H74 C60 0.931 . S
H75 C61 0.933 . S
H76 C67 0.930 . S
H77 C68 0.931 . S
H78 C69 0.931 . S
H79 C70 0.933 . S
Dy80 O83 2.307 . S
Dy80 O85 2.395 . S
Dy80 O86 2.379 . S
Dy80 O88 2.339 . S
Dy80 O90 2.298 . S
Dy80 O94 2.275 . S
Dy80 C102 2.738 . S
Dy81 O84 2.298 . S
Dy81 O87 2.275 . S
Dy81 O89 2.307 . S
Dy81 O91 2.395 . S
Dy81 O92 2.379 . S
Dy81 O95 2.339 . S
Dy81 C111 2.738 . S
C82 O94 1.254 . S
C82 O95 1.257 . S
O83 Dy80 2.307 . S
O83 C93 1.266 . S
O84 Dy81 2.298 . S
O84 C93 1.236 . S
O85 Dy80 2.395 . S
O85 C102 1.255 . S
O86 Dy80 2.379 . S
O86 C102 1.249 . S
O87 Dy81 2.275 . S
O87 C103 1.254 . S
O88 Dy80 2.339 . S
O88 C103 1.257 . S
O89 Dy81 2.307 . S
O89 C104 1.266 . S
O90 Dy80 2.298 . S
O90 C104 1.236 . S
O91 Dy81 2.395 . S
O91 C111 1.255 . S
O92 Dy81 2.379 . S
O92 C111 1.249 . S
C93 O83 1.266 . S
C93 O84 1.236 . S
O94 Dy80 2.275 . S
O94 C82 1.254 . S
O95 Dy81 2.339 . S
O95 C82 1.257 . S
C96 C99 1.344 . S
C96 C100 1.328 . S
C96 C102 1.516 . S
C97 C98 1.304 . S
C97 C101 1.323 . S
C98 C97 1.304 . S
C98 C99 1.371 . S
C98 H112 0.930 . S
C99 C96 1.344 . S
C99 C98 1.371 . S
C99 H113 0.931 . S
C100 C96 1.328 . S
C100 C101 1.433 . S
C100 H114 0.931 . S
C101 C97 1.323 . S
C101 C100 1.433 . S
C101 H115 0.933 . S
C102 Dy80 2.738 . S
C102 O85 1.255 . S
C102 O86 1.249 . S
C102 C96 1.516 . S
C103 O87 1.254 . S
C103 O88 1.257 . S
C104 O89 1.266 . S
C104 O90 1.236 . S
C105 C108 1.344 . S
C105 C109 1.328 . S
C105 C111 1.516 . S
C106 C107 1.304 . S
C106 C110 1.323 . S
C107 C106 1.304 . S
C107 C108 1.371 . S
C107 H116 0.930 . S
C108 C105 1.344 . S
C108 C107 1.371 . S
C108 H117 0.931 . S
C109 C105 1.328 . S
C109 C110 1.433 . S
C109 H118 0.931 . S
C110 C106 1.323 . S
C110 C109 1.433 . S
C110 H119 0.933 . S
C111 Dy81 2.738 . S
C111 O91 1.255 . S
C111 O92 1.249 . S
C111 C105 1.516 . S
H112 C98 0.930 . S
H113 C99 0.931 . S
H114 C100 0.931 . S
H115 C101 0.933 . S
H116 C107 0.930 . S
H117 C108 0.931 . S
H118 C109 0.931 . S
H119 C110 0.933 . S
Dy120 O123 2.307 . S
Dy120 O125 2.395 . S
Dy120 O126 2.379 . S
Dy120 O128 2.339 . S
Dy120 O130 2.298 . S
Dy120 O134 2.275 . S
Dy120 C142 2.738 . S
Dy121 O124 2.298 . S
Dy121 O127 2.275 . S
Dy121 O129 2.307 . S
Dy121 O131 2.395 . S
Dy121 O132 2.379 . S
Dy121 O135 2.339 . S
Dy121 C151 2.738 . S
C122 O134 1.254 . S
C122 O135 1.257 . S
O123 Dy120 2.307 . S
O123 C133 1.266 . S
O124 Dy121 2.298 . S
O124 C133 1.236 . S
O125 Dy120 2.395 . S
O125 C142 1.255 . S
O126 Dy120 2.379 . S
O126 C142 1.249 . S
O127 Dy121 2.275 . S
O127 C143 1.254 . S
O128 Dy120 2.339 . S
O128 C143 1.257 . S
O129 Dy121 2.307 . S
O129 C144 1.266 . S
O130 Dy120 2.298 . S
O130 C144 1.236 . S
O131 Dy121 2.395 . S
O131 C151 1.255 . S
O132 Dy121 2.379 . S
O132 C151 1.249 . S
C133 O123 1.266 . S
C133 O124 1.236 . S
O134 Dy120 2.275 . S
O134 C122 1.254 . S
O135 Dy121 2.339 . S
O135 C122 1.257 . S
C136 C139 1.344 . S
C136 C140 1.328 . S
C136 C142 1.516 . S
C137 C138 1.304 . S
C137 C141 1.323 . S
C138 C137 1.304 . S
C138 C139 1.371 . S
C138 H152 0.930 . S
C139 C136 1.344 . S
C139 C138 1.371 . S
C139 H153 0.931 . S
C140 C136 1.328 . S
C140 C141 1.433 . S
C140 H154 0.931 . S
C141 C137 1.323 . S
C141 C140 1.433 . S
C141 H155 0.933 . S
C142 Dy120 2.738 . S
C142 O125 1.255 . S
C142 O126 1.249 . S
C142 C136 1.516 . S
C143 O127 1.254 . S
C143 O128 1.257 . S
C144 O129 1.266 . S
C144 O130 1.236 . S
C145 C148 1.344 . S
C145 C149 1.328 . S
C145 C151 1.516 . S
C146 C147 1.304 . S
C146 C150 1.323 . S
C147 C146 1.304 . S
C147 C148 1.371 . S
C147 H156 0.930 . S
C148 C145 1.344 . S
C148 C147 1.371 . S
C148 H157 0.931 . S
C149 C145 1.328 . S
C149 C150 1.433 . S
C149 H158 0.931 . S
C150 C146 1.323 . S
C150 C149 1.433 . S
C150 H159 0.933 . S
C151 Dy121 2.738 . S
C151 O131 1.255 . S
C151 O132 1.249 . S
C151 C145 1.516 . S
H152 C138 0.930 . S
H153 C139 0.931 . S
H154 C140 0.931 . S
H155 C141 0.933 . S
H156 C147 0.930 . S
H157 C148 0.931 . S
H158 C149 0.931 . S
H159 C150 0.933 . S
Dy160 O163 2.307 . S
Dy160 O165 2.395 . S
Dy160 O166 2.379 . S
Dy160 O168 2.339 . S
Dy160 O170 2.298 . S
Dy160 O174 2.275 . S
Dy160 C182 2.738 . S
Dy161 O164 2.298 . S
Dy161 O167 2.275 . S
Dy161 O169 2.307 . S
Dy161 O171 2.395 . S
Dy161 O172 2.379 . S
Dy161 O175 2.339 . S
Dy161 C191 2.738 . S
C162 O174 1.254 . S
C162 O175 1.257 . S
O163 Dy160 2.307 . S
O163 C173 1.266 . S
O164 Dy161 2.298 . S
O164 C173 1.236 . S
O165 Dy160 2.395 . S
O165 C182 1.255 . S
O166 Dy160 2.379 . S
O166 C182 1.249 . S
O167 Dy161 2.275 . S
O167 C183 1.254 . S
O168 Dy160 2.339 . S
O168 C183 1.257 . S
O169 Dy161 2.307 . S
O169 C184 1.266 . S
O170 Dy160 2.298 . S
O170 C184 1.236 . S
O171 Dy161 2.395 . S
O171 C191 1.255 . S
O172 Dy161 2.379 . S
O172 C191 1.249 . S
C173 O163 1.266 . S
C173 O164 1.236 . S
O174 Dy160 2.275 . S
O174 C162 1.254 . S
O175 Dy161 2.339 . S
O175 C162 1.257 . S
C176 C179 1.344 . S
C176 C180 1.328 . S
C176 C182 1.516 . S
C177 C178 1.304 . S
C177 C181 1.323 . S
C178 C177 1.304 . S
C178 C179 1.371 . S
C178 H192 0.930 . S
C179 C176 1.344 . S
C179 C178 1.371 . S
C179 H193 0.931 . S
C180 C176 1.328 . S
C180 C181 1.433 . S
C180 H194 0.931 . S
C181 C177 1.323 . S
C181 C180 1.433 . S
C181 H195 0.933 . S
C182 Dy160 2.738 . S
C182 O165 1.255 . S
C182 O166 1.249 . S
C182 C176 1.516 . S
C183 O167 1.254 . S
C183 O168 1.257 . S
C184 O169 1.266 . S
C184 O170 1.236 . S
C185 C188 1.344 . S
C185 C189 1.328 . S
C185 C191 1.516 . S
C186 C187 1.304 . S
C186 C190 1.323 . S
C187 C186 1.304 . S
C187 C188 1.371 . S
C187 H196 0.930 . S
C188 C185 1.344 . S
C188 C187 1.371 . S
C188 H197 0.931 . S
C189 C185 1.328 . S
C189 C190 1.433 . S
C189 H198 0.931 . S
C190 C186 1.323 . S
C190 C189 1.433 . S
C190 H199 0.933 . S
C191 Dy161 2.738 . S
C191 O171 1.255 . S
C191 O172 1.249 . S
C191 C185 1.516 . S
H192 C178 0.930 . S
H193 C179 0.931 . S
H194 C180 0.931 . S
H195 C181 0.933 . S
H196 C187 0.930 . S
H197 C188 0.931 . S
H198 C189 0.931 . S
H199 C190 0.933 . S
Dy200 O203 2.307 . S
Dy200 O205 2.395 . S
Dy200 O206 2.379 . S
Dy200 O208 2.339 . S
Dy200 O210 2.298 . S
Dy200 O214 2.275 . S
Dy200 C222 2.738 . S
Dy201 O204 2.298 . S
Dy201 O207 2.275 . S
Dy201 O209 2.307 . S
Dy201 O211 2.395 . S
Dy201 O212 2.379 . S
Dy201 O215 2.339 . S
Dy201 C231 2.738 . S
C202 O214 1.254 . S
C202 O215 1.257 . S
O203 Dy200 2.307 . S
O203 C213 1.266 . S
O204 Dy201 2.298 . S
O204 C213 1.236 . S
O205 Dy200 2.395 . S
O205 C222 1.255 . S
O206 Dy200 2.379 . S
O206 C222 1.249 . S
O207 Dy201 2.275 . S
O207 C223 1.254 . S
O208 Dy200 2.339 . S
O208 C223 1.257 . S
O209 Dy201 2.307 . S
O209 C224 1.266 . S
O210 Dy200 2.298 . S
O210 C224 1.236 . S
O211 Dy201 2.395 . S
O211 C231 1.255 . S
O212 Dy201 2.379 . S
O212 C231 1.249 . S
C213 O203 1.266 . S
C213 O204 1.236 . S
O214 Dy200 2.275 . S
O214 C202 1.254 . S
O215 Dy201 2.339 . S
O215 C202 1.257 . S
C216 C219 1.344 . S
C216 C220 1.328 . S
C216 C222 1.516 . S
C217 C218 1.304 . S
C217 C221 1.323 . S
C218 C217 1.304 . S
C218 C219 1.371 . S
C218 H232 0.930 . S
C219 C216 1.344 . S
C219 C218 1.371 . S
C219 H233 0.931 . S
C220 C216 1.328 . S
C220 C221 1.433 . S
C220 H234 0.931 . S
C221 C217 1.323 . S
C221 C220 1.433 . S
C221 H235 0.933 . S
C222 Dy200 2.738 . S
C222 O205 1.255 . S
C222 O206 1.249 . S
C222 C216 1.516 . S
C223 O207 1.254 . S
C223 O208 1.257 . S
C224 O209 1.266 . S
C224 O210 1.236 . S
C225 C228 1.344 . S
C225 C229 1.328 . S
C225 C231 1.516 . S
C226 C227 1.304 . S
C226 C230 1.323 . S
C227 C226 1.304 . S
C227 C228 1.371 . S
C227 H236 0.930 . S
C228 C225 1.344 . S
C228 C227 1.371 . S
C228 H237 0.931 . S
C229 C225 1.328 . S
C229 C230 1.433 . S
C229 H238 0.931 . S
C230 C226 1.323 . S
C230 C229 1.433 . S
C230 H239 0.933 . S
C231 Dy201 2.738 . S
C231 O211 1.255 . S
C231 O212 1.249 . S
C231 C225 1.516 . S
H232 C218 0.930 . S
H233 C219 0.931 . S
H234 C220 0.931 . S
H235 C221 0.933 . S
H236 C227 0.930 . S
H237 C228 0.931 . S
H238 C229 0.931 . S
H239 C230 0.933 . S
Dy240 O243 2.307 . S
Dy240 O245 2.395 . S
Dy240 O246 2.379 . S
Dy240 O248 2.339 . S
Dy240 O250 2.298 . S
Dy240 O254 2.275 . S
Dy240 C262 2.738 . S
Dy241 O244 2.298 . S
Dy241 O247 2.275 . S
Dy241 O249 2.307 . S
Dy241 O251 2.395 . S
Dy241 O252 2.379 . S
Dy241 O255 2.339 . S
Dy241 C271 2.738 . S
C242 O254 1.254 . S
C242 O255 1.257 . S
O243 Dy240 2.307 . S
O243 C253 1.266 . S
O244 Dy241 2.298 . S
O244 C253 1.236 . S
O245 Dy240 2.395 . S
O245 C262 1.255 . S
O246 Dy240 2.379 . S
O246 C262 1.249 . S
O247 Dy241 2.275 . S
O247 C263 1.254 . S
O248 Dy240 2.339 . S
O248 C263 1.257 . S
O249 Dy241 2.307 . S
O249 C264 1.266 . S
O250 Dy240 2.298 . S
O250 C264 1.236 . S
O251 Dy241 2.395 . S
O251 C271 1.255 . S
O252 Dy241 2.379 . S
O252 C271 1.249 . S
C253 O243 1.266 . S
C253 O244 1.236 . S
O254 Dy240 2.275 . S
O254 C242 1.254 . S
O255 Dy241 2.339 . S
O255 C242 1.257 . S
C256 C259 1.344 . S
C256 C260 1.328 . S
C256 C262 1.516 . S
C257 C258 1.304 . S
C257 C261 1.323 . S
C258 C257 1.304 . S
C258 C259 1.371 . S
C258 H272 0.930 . S
C259 C256 1.344 . S
C259 C258 1.371 . S
C259 H273 0.931 . S
C260 C256 1.328 . S
C260 C261 1.433 . S
C260 H274 0.931 . S
C261 C257 1.323 . S
C261 C260 1.433 . S
C261 H275 0.933 . S
C262 Dy240 2.738 . S
C262 O245 1.255 . S
C262 O246 1.249 . S
C262 C256 1.516 . S
C263 O247 1.254 . S
C263 O248 1.257 . S
C264 O249 1.266 . S
C264 O250 1.236 . S
C265 C268 1.344 . S
C265 C269 1.328 . S
C265 C271 1.516 . S
C266 C267 1.304 . S
C266 C270 1.323 . S
C267 C266 1.304 . S
C267 C268 1.371 . S
C267 H276 0.930 . S
C268 C265 1.344 . S
C268 C267 1.371 . S
C268 H277 0.931 . S
C269 C265 1.328 . S
C269 C270 1.433 . S
C269 H278 0.931 . S
C270 C266 1.323 . S
C270 C269 1.433 . S
C270 H279 0.933 . S
C271 Dy241 2.738 . S
C271 O251 1.255 . S
C271 O252 1.249 . S
C271 C265 1.516 . S
H272 C258 0.930 . S
H273 C259 0.931 . S
H274 C260 0.931 . S
H275 C261 0.933 . S
H276 C267 0.930 . S
H277 C268 0.931 . S
H278 C269 0.931 . S
H279 C270 0.933 . S
Dy280 O283 2.307 . S
Dy280 O285 2.395 . S
Dy280 O286 2.379 . S
Dy280 O288 2.339 . S
Dy280 O290 2.298 . S
Dy280 O294 2.275 . S
Dy280 C302 2.738 . S
Dy281 O284 2.298 . S
Dy281 O287 2.275 . S
Dy281 O289 2.307 . S
Dy281 O291 2.395 . S
Dy281 O292 2.379 . S
Dy281 O295 2.339 . S
Dy281 C311 2.738 . S
C282 O294 1.254 . S
C282 O295 1.257 . S
O283 Dy280 2.307 . S
O283 C293 1.266 . S
O284 Dy281 2.298 . S
O284 C293 1.236 . S
O285 Dy280 2.395 . S
O285 C302 1.255 . S
O286 Dy280 2.379 . S
O286 C302 1.249 . S
O287 Dy281 2.275 . S
O287 C303 1.254 . S
O288 Dy280 2.339 . S
O288 C303 1.257 . S
O289 Dy281 2.307 . S
O289 C304 1.266 . S
O290 Dy280 2.298 . S
O290 C304 1.236 . S
O291 Dy281 2.395 . S
O291 C311 1.255 . S
O292 Dy281 2.379 . S
O292 C311 1.249 . S
C293 O283 1.266 . S
C293 O284 1.236 . S
O294 Dy280 2.275 . S
O294 C282 1.254 . S
O295 Dy281 2.339 . S
O295 C282 1.257 . S
C296 C299 1.344 . S
C296 C300 1.328 . S
C296 C302 1.516 . S
C297 C298 1.304 . S
C297 C301 1.323 . S
C298 C297 1.304 . S
C298 C299 1.371 . S
C298 H312 0.930 . S
C299 C296 1.344 . S
C299 C298 1.371 . S
C299 H313 0.931 . S
C300 C296 1.328 . S
C300 C301 1.433 . S
C300 H314 0.931 . S
C301 C297 1.323 . S
C301 C300 1.433 . S
C301 H315 0.933 . S
C302 Dy280 2.738 . S
C302 O285 1.255 . S
C302 O286 1.249 . S
C302 C296 1.516 . S
C303 O287 1.254 . S
C303 O288 1.257 . S
C304 O289 1.266 . S
C304 O290 1.236 . S
C305 C308 1.344 . S
C305 C309 1.328 . S
C305 C311 1.516 . S
C306 C307 1.304 . S
C306 C310 1.323 . S
C307 C306 1.304 . S
C307 C308 1.371 . S
C307 H316 0.930 . S
C308 C305 1.344 . S
C308 C307 1.371 . S
C308 H317 0.931 . S
C309 C305 1.328 . S
C309 C310 1.433 . S
C309 H318 0.931 . S
C310 C306 1.323 . S
C310 C309 1.433 . S
C310 H319 0.933 . S
C311 Dy281 2.738 . S
C311 O291 1.255 . S
C311 O292 1.249 . S
C311 C305 1.516 . S
H312 C298 0.930 . S
H313 C299 0.931 . S
H314 C300 0.931 . S
H315 C301 0.933 . S
H316 C307 0.930 . S
H317 C308 0.931 . S
H318 C309 0.931 . S
H319 C310 0.933 . S
Fe320 O321 1.886 1_455 S
Fe320 O324 1.715 . S
Fe320 O329 2.077 1_455 S
Fe320 O334 1.935 . S
Fe320 O340 2.077 1_455 S
Fe320 O349 1.935 . S
O321 Fe320 1.886 1_655 S
O321 Fe323 1.715 . S
Fe322 O324 1.886 . S
Fe322 O325 1.715 1_545 S
Fe322 O332 1.935 . S
Fe322 O333 2.077 . S
Fe322 O339 1.935 . S
Fe322 O348 2.077 . S
Fe323 O321 1.715 . S
Fe323 O326 1.886 1_545 S
Fe323 O330 1.935 . S
Fe323 O335 2.077 1_545 S
Fe323 O341 1.935 . S
Fe323 O345 2.077 1_545 S
O324 Fe320 1.715 . S
O324 Fe322 1.886 . S
O325 Fe322 1.715 1_565 S
O325 Fe327 1.886 . S
O326 Fe323 1.886 1_565 S
O326 Fe327 1.715 1_655 S
Fe327 O325 1.886 . S
Fe327 O326 1.715 1_455 S
Fe327 O331 2.077 . S
Fe327 O336 1.935 1_455 S
Fe327 O338 2.077 . S
Fe327 O346 1.935 1_455 S
C328 O340 1.381 . S
C328 O341 1.421 . S
O329 Fe320 2.077 1_655 S
O329 C342 1.381 . S
O330 Fe323 1.935 . S
O330 C342 1.421 . S
O331 Fe327 2.077 . S
O331 C347 1.381 . S
O332 Fe322 1.935 . S
O332 C347 1.421 1_545 S
O333 Fe322 2.077 . S
O333 C337 1.381 . S
O334 Fe320 1.935 . S
O334 C337 1.421 . S
O335 Fe323 2.077 1_565 S
O335 C343 1.381 . S
O336 Fe327 1.935 1_655 S
O336 C343 1.421 . S
C337 O333 1.381 . S
C337 O334 1.421 . S
O338 Fe327 2.077 . S
O338 C350 1.381 . S
O339 Fe322 1.935 . S
O339 C350 1.421 1_545 S
O340 Fe320 2.077 1_655 S
O340 C328 1.381 . S
O341 Fe323 1.935 . S
O341 C328 1.421 . S
C342 O329 1.381 . S
C342 O330 1.421 . S
C343 O335 1.381 . S
C343 O336 1.421 . S
C344 O345 1.381 . S
C344 O346 1.421 . S
O345 Fe323 2.077 1_565 S
O345 C344 1.381 . S
O346 Fe327 1.935 1_655 S
O346 C344 1.421 . S
C347 O331 1.381 . S
C347 O332 1.421 1_565 S
O348 Fe322 2.077 . S
O348 C351 1.381 . S
O349 Fe320 1.935 . S
O349 C351 1.421 . S
C350 O338 1.381 . S
C350 O339 1.421 1_565 S
C351 O348 1.381 . S
C351 O349 1.421 . S
Fe352 O353 1.888 1_566 S
Fe352 O356 1.688 1_565 S
Fe352 O361 2.077 . S
Fe352 O366 1.935 . S
Fe352 O372 2.077 1_556 S
Fe352 O381 1.935 1_556 S
O353 Fe352 1.888 1_544 S
O353 Fe355 1.713 . S
Fe354 O356 1.916 . S
Fe354 O357 1.717 1_556 S
Fe354 O364 1.935 . S
Fe354 O365 2.077 1_545 S
Fe354 O371 1.935 1_556 S
Fe354 O380 2.064 1_546 S
Fe355 O353 1.713 . S
Fe355 O358 1.886 . S
Fe355 O362 1.935 1_554 S
Fe355 O367 2.077 1_554 S
Fe355 O373 1.935 . S
Fe355 O377 2.077 . S
O356 Fe352 1.688 1_545 S
O356 Fe354 1.916 . S
O357 Fe354 1.717 1_554 S
O357 Fe359 1.884 . S
O358 Fe355 1.886 . S
O358 Fe359 1.715 . S
Fe359 O357 1.884 . S
Fe359 O358 1.715 . S
Fe359 O363 2.077 1_554 S
Fe359 O368 1.935 1_554 S
Fe359 O370 2.077 . S
Fe359 O378 1.935 . S
C360 O372 1.381 . S
C360 O373 1.421 1_565 S
O361 Fe352 2.077 . S
O361 C374 1.381 . S
O362 Fe355 1.935 1_556 S
O362 C374 1.421 1_545 S
O363 Fe359 2.077 1_556 S
O363 C379 1.381 . S
O364 Fe354 1.935 . S
O364 C379 1.421 . S
O365 Fe354 2.077 1_565 S
O365 C369 1.381 . S
O366 Fe352 1.935 . S
O366 C369 1.421 . S
O367 Fe355 2.077 1_556 S
O367 C375 1.381 . S
O368 Fe359 1.935 1_556 S
O368 C375 1.421 . S
C369 O365 1.381 . S
C369 O366 1.421 . S
O370 Fe359 2.077 . S
O370 C382 1.381 . S
O371 Fe354 1.935 1_554 S
O371 C382 1.421 . S
O372 Fe352 2.077 1_554 S
O372 C360 1.381 . S
O373 Fe355 1.935 . S
O373 C360 1.421 1_545 S
C374 O361 1.381 . S
C374 O362 1.421 1_565 S
C375 O367 1.381 . S
C375 O368 1.421 . S
C376 O377 1.381 . S
C376 O378 1.421 . S
O377 Fe355 2.077 . S
O377 C376 1.381 . S
O378 Fe359 1.935 . S
O378 C376 1.421 . S
C379 O363 1.381 . S
C379 O364 1.421 . S
O380 Fe354 2.064 1_564 S
O380 C383 1.398 . S
O381 Fe352 1.935 1_554 S
O381 C383 1.421 . S
C382 O370 1.381 . S
C382 O371 1.421 . S
C383 O380 1.398 . S
C383 O381 1.421 . S
Fe384 O385 1.886 1_455 S
Fe384 O388 1.715 . S
Fe384 O393 2.077 1_455 S
Fe384 O398 1.935 . S
Fe384 O404 2.077 1_455 S
Fe384 O413 1.935 . S
O385 Fe384 1.886 1_655 S
O385 Fe387 1.715 . S
Fe386 O388 1.886 . S
Fe386 O389 1.715 . S
Fe386 O396 1.935 . S
Fe386 O397 2.077 . S
Fe386 O403 1.935 . S
Fe386 O412 2.077 . S
Fe387 O385 1.715 . S
Fe387 O390 1.886 . S
Fe387 O394 1.935 . S
Fe387 O399 2.077 . S
Fe387 O405 1.935 . S
Fe387 O409 2.077 . S
O388 Fe384 1.715 . S
O388 Fe386 1.886 . S
O389 Fe386 1.715 . S
O389 Fe391 1.886 1_455 S
O390 Fe387 1.886 . S
O390 Fe391 1.715 . S
Fe391 O389 1.886 1_655 S
Fe391 O390 1.715 . S
Fe391 O395 2.077 1_655 S
Fe391 O400 1.935 . S
Fe391 O402 2.077 1_655 S
Fe391 O410 1.935 . S
C392 O404 1.381 . S
C392 O405 1.421 . S
O393 Fe384 2.077 1_655 S
O393 C406 1.391 . S
O394 Fe387 1.935 . S
O394 C406 1.432 . S
O395 Fe391 2.077 1_455 S
O395 C411 1.394 . S
O396 Fe386 1.935 . S
O396 C411 1.426 . S
O397 Fe386 2.077 . S
O397 C401 1.381 . S
O398 Fe384 1.935 . S
O398 C401 1.421 . S
O399 Fe387 2.077 . S
O399 C407 1.381 1_554 S
O400 Fe391 1.935 . S
O400 C407 1.421 1_554 S
C401 O397 1.381 . S
C401 O398 1.421 . S
O402 Fe391 2.077 1_455 S
O402 C414 1.381 . S
O403 Fe386 1.935 . S
O403 C414 1.421 . S
O404 Fe384 2.077 1_655 S
O404 C392 1.381 . S
O405 Fe387 1.935 . S
O405 C392 1.421 . S
C406 O393 1.391 . S
C406 O394 1.432 . S
C407 O399 1.381 1_556 S
C407 O400 1.421 1_556 S
C408 O409 1.381 . S
C408 O410 1.421 . S
O409 Fe387 2.077 . S
O409 C408 1.381 . S
O410 Fe391 1.935 . S
O410 C408 1.421 . S
C411 O395 1.394 . S
C411 O396 1.426 . S
O412 Fe386 2.077 . S
O412 C415 1.381 . S
O413 Fe384 1.935 . S
O413 C415 1.421 . S
C414 O402 1.381 . S
C414 O403 1.421 . S
C415 O412 1.381 . S
C415 O413 1.421 . S
Fe416 O417 1.886 . S
Fe416 O420 1.715 . S
Fe416 O425 2.077 . S
Fe416 O430 1.935 . S
Fe416 O436 2.077 . S
Fe416 O445 1.935 . S
O417 Fe416 1.886 . S
O417 Fe419 1.715 1_556 S
Fe418 O420 1.886 1_554 S
Fe418 O421 1.715 . S
Fe418 O428 1.935 . S
Fe418 O429 2.077 1_554 S
Fe418 O435 1.935 . S
Fe418 O444 2.077 1_554 S
Fe419 O417 1.715 1_554 S
Fe419 O422 1.886 . S
Fe419 O426 1.935 . S
Fe419 O431 2.077 . S
Fe419 O437 1.935 1_554 S
Fe419 O441 2.077 . S
O420 Fe416 1.715 . S
O420 Fe418 1.886 1_556 S
O421 Fe418 1.715 . S
O421 Fe423 1.886 . S
O422 Fe419 1.886 . S
O422 Fe423 1.715 . S
Fe423 O421 1.886 . S
Fe423 O422 1.715 . S
Fe423 O427 2.077 . S
Fe423 O432 1.935 . S
Fe423 O434 2.077 . S
Fe423 O442 1.935 . S
C424 O436 1.381 . S
C424 O437 1.421 . S
O425 Fe416 2.077 . S
O425 C438 1.381 . S
O426 Fe419 1.935 . S
O426 C438 1.421 1_554 S
O427 Fe423 2.077 . S
O427 C443 1.381 . S
O428 Fe418 1.935 . S
O428 C443 1.421 . S
O429 Fe418 2.077 1_556 S
O429 C433 1.381 . S
O430 Fe416 1.935 . S
O430 C433 1.421 . S
O431 Fe419 2.077 . S
O431 C439 1.381 . S
O432 Fe423 1.935 . S
O432 C439 1.421 . S
C433 O429 1.381 . S
C433 O430 1.421 . S
O434 Fe423 2.077 . S
O434 C446 1.381 . S
O435 Fe418 1.935 . S
O435 C446 1.421 . S
O436 Fe416 2.077 . S
O436 C424 1.381 . S
O437 Fe419 1.935 1_556 S
O437 C424 1.421 . S
C438 O425 1.381 . S
C438 O426 1.421 1_556 S
C439 O431 1.381 . S
C439 O432 1.421 . S
C440 O441 1.381 . S
C440 O442 1.421 . S
O441 Fe419 2.077 . S
O441 C440 1.381 . S
O442 Fe423 1.935 . S
O442 C440 1.421 . S
C443 O427 1.381 . S
C443 O428 1.421 . S
O444 Fe418 2.077 1_556 S
O444 C447 1.381 . S
O445 Fe416 1.935 . S
O445 C447 1.421 . S
C446 O434 1.381 . S
C446 O435 1.421 . S
C447 O444 1.381 . S
C447 O445 1.421 . S
Fe448 O449 1.886 . S
Fe448 O452 1.715 . S
Fe448 O457 2.077 . S
Fe448 O462 1.935 . S
Fe448 O468 2.077 1_455 S
Fe448 O477 1.935 1_455 S
O449 Fe448 1.886 . S
O449 Fe451 1.715 . S
Fe450 O452 1.886 . S
Fe450 O453 1.715 . S
Fe450 O460 1.935 . S
Fe450 O461 2.077 . S
Fe450 O467 1.935 1_455 S
Fe450 O476 2.077 1_455 S
Fe451 O449 1.715 . S
Fe451 O454 1.886 . S
Fe451 O458 1.935 . S
Fe451 O463 2.077 . S
Fe451 O469 1.942 . S
Fe451 O473 2.077 . S
O452 Fe448 1.715 . S
O452 Fe450 1.886 . S
O453 Fe450 1.715 . S
O453 Fe455 1.886 . S
O454 Fe451 1.886 . S
O454 Fe455 1.715 . S
Fe455 O453 1.886 . S
Fe455 O454 1.715 . S
Fe455 O459 2.077 . S
Fe455 O464 1.935 . S
Fe455 O466 2.077 . S
Fe455 O474 1.935 . S
C456 O468 1.381 . S
C456 O469 1.419 1_655 S
O457 Fe448 2.077 . S
O457 C470 1.381 . S
O458 Fe451 1.935 . S
O458 C470 1.421 . S
O459 Fe455 2.077 . S
O459 C475 1.381 . S
O460 Fe450 1.935 . S
O460 C475 1.421 . S
O461 Fe450 2.077 . S
O461 C465 1.381 . S
O462 Fe448 1.935 . S
O462 C465 1.421 . S
O463 Fe451 2.077 . S
O463 C471 1.381 . S
O464 Fe455 1.935 . S
O464 C471 1.421 . S
C465 O461 1.381 . S
C465 O462 1.421 . S
O466 Fe455 2.077 . S
O466 C478 1.381 1_455 S
O467 Fe450 1.935 1_655 S
O467 C478 1.421 . S
O468 Fe448 2.077 1_655 S
O468 C456 1.381 . S
O469 Fe451 1.942 . S
O469 C456 1.419 1_455 S
C470 O457 1.381 . S
C470 O458 1.421 . S
C471 O463 1.381 . S
C471 O464 1.421 . S
C472 O473 1.381 1_655 S
C472 O474 1.421 1_655 S
O473 Fe451 2.077 . S
O473 C472 1.381 1_455 S
O474 Fe455 1.935 . S
O474 C472 1.421 1_455 S
C475 O459 1.381 . S
C475 O460 1.421 . S
O476 Fe450 2.077 1_655 S
O476 C479 1.381 . S
O477 Fe448 1.935 1_655 S
O477 C479 1.421 . S
C478 O466 1.381 1_655 S
C478 O467 1.421 . S
C479 O476 1.381 . S
C479 O477 1.421 . S
Fe480 O481 1.886 . S
Fe480 O484 1.715 . S
Fe480 O489 2.077 . S
Fe480 O494 1.935 . S
Fe480 O500 2.077 . S
Fe480 O509 1.935 . S
O481 Fe480 1.886 . S
O481 Fe483 1.715 1_565 S
Fe482 O484 1.886 . S
Fe482 O485 1.715 1_565 S
Fe482 O492 1.935 1_565 S
Fe482 O493 2.077 . S
Fe482 O499 1.935 1_565 S
Fe482 O508 2.077 . S
Fe483 O481 1.715 1_545 S
Fe483 O486 1.886 . S
Fe483 O490 1.935 1_545 S
Fe483 O495 2.077 . S
Fe483 O501 1.935 1_545 S
Fe483 O505 2.077 . S
O484 Fe480 1.715 . S
O484 Fe482 1.886 . S
O485 Fe482 1.715 1_545 S
O485 Fe487 1.886 . S
O486 Fe483 1.886 . S
O486 Fe487 1.715 . S
Fe487 O485 1.886 . S
Fe487 O486 1.715 . S
Fe487 O491 2.077 . S
Fe487 O496 1.935 . S
Fe487 O498 2.077 . S
Fe487 O506 1.935 . S
C488 O500 1.381 . S
C488 O501 1.421 . S
O489 Fe480 2.077 . S
O489 C502 1.381 . S
O490 Fe483 1.935 1_565 S
O490 C502 1.421 . S
O491 Fe487 2.077 . S
O491 C507 1.381 . S
O492 Fe482 1.935 1_545 S
O492 C507 1.421 . S
O493 Fe482 2.077 . S
O493 C497 1.381 . S
O494 Fe480 1.935 . S
O494 C497 1.421 . S
O495 Fe483 2.077 . S
O495 C503 1.381 . S
O496 Fe487 1.935 . S
O496 C503 1.421 . S
C497 O493 1.381 . S
C497 O494 1.421 . S
O498 Fe487 2.077 . S
O498 C510 1.381 . S
O499 Fe482 1.935 1_545 S
O499 C510 1.421 . S
O500 Fe480 2.077 . S
O500 C488 1.381 . S
O501 Fe483 1.935 1_565 S
O501 C488 1.421 . S
C502 O489 1.381 . S
C502 O490 1.421 . S
C503 O495 1.381 . S
C503 O496 1.421 . S
C504 O505 1.381 . S
C504 O506 1.421 . S
O505 Fe483 2.077 . S
O505 C504 1.381 . S
O506 Fe487 1.935 . S
O506 C504 1.421 . S
C507 O491 1.381 . S
C507 O492 1.421 . S
O508 Fe482 2.077 . S
O508 C511 1.381 . S
O509 Fe480 1.935 . S
O509 C511 1.421 . S
C510 O498 1.381 . S
C510 O499 1.421 . S
C511 O508 1.381 . S
C511 O509 1.421 . S
H512 C518 0.930 . S
H513 C522 0.930 . S
H514 C527 0.929 . S
H515 C525 0.929 . S
H516 C520 0.929 . S
H517 C526 0.929 . S
C518 H512 0.930 . S
C518 C519 1.367 . S
C518 C526 1.378 . S
C519 C518 1.367 . S
C519 C527 1.433 . S
C520 H516 0.929 . S
C520 C522 1.378 . S
C520 C524 1.350 . S
C521 C524 1.463 . S
C521 C526 1.350 . S
C521 N529 1.427 . S
C522 H513 0.930 . S
C522 C520 1.378 . S
C522 C523 1.367 . S
C523 C522 1.367 . S
C523 C525 1.433 . S
C524 C520 1.350 . S
C524 C521 1.463 . S
C524 N528 1.427 . S
C525 H515 0.929 . S
C525 C523 1.433 . S
C525 N528 1.384 . S
C526 H517 0.929 . S
C526 C518 1.378 . S
C526 C521 1.350 . S
C527 H514 0.929 . S
C527 C519 1.433 . S
C527 N529 1.384 . S
N528 C524 1.427 . S
N528 C525 1.384 . S
N529 C521 1.427 . S
N529 C527 1.384 . S
H530 C536 0.930 . S
H531 C540 0.930 . S
H532 C545 0.929 . S
H533 C543 0.929 . S
H534 C538 0.929 . S
H535 C544 0.929 . S
C536 H530 0.930 . S
C536 C537 1.367 . S
C536 C544 1.378 . S
C537 C536 1.367 . S
C537 C545 1.433 . S
C538 H534 0.929 . S
C538 C540 1.378 . S
C538 C542 1.350 . S
C539 C542 1.463 . S
C539 C544 1.350 . S
C539 N547 1.427 . S
C540 H531 0.930 . S
C540 C538 1.378 . S
C540 C541 1.367 . S
C541 C540 1.367 . S
C541 C543 1.433 . S
C542 C538 1.350 . S
C542 C539 1.463 . S
C542 N546 1.427 . S
C543 H533 0.929 . S
C543 C541 1.433 . S
C543 N546 1.384 . S
C544 H535 0.929 . S
C544 C536 1.378 . S
C544 C539 1.350 . S
C545 H532 0.929 . S
C545 C537 1.433 . S
C545 N547 1.384 . S
N546 C542 1.427 . S
N546 C543 1.384 . S
N547 C539 1.427 . S
N547 C545 1.384 . S
H548 C554 0.930 . S
H549 C558 0.930 . S
H550 C563 0.929 . S
H551 C561 0.929 . S
H552 C556 0.929 . S
H553 C562 0.929 . S
C554 H548 0.930 . S
C554 C555 1.367 . S
C554 C562 1.378 . S
C555 C554 1.367 . S
C555 C563 1.433 . S
C556 H552 0.929 . S
C556 C558 1.378 . S
C556 C560 1.350 . S
C557 C560 1.463 . S
C557 C562 1.350 . S
C557 N565 1.427 . S
C558 H549 0.930 . S
C558 C556 1.378 . S
C558 C559 1.367 . S
C559 C558 1.367 . S
C559 C561 1.433 . S
C560 C556 1.350 . S
C560 C557 1.463 . S
C560 N564 1.427 . S
C561 H551 0.929 . S
C561 C559 1.433 . S
C561 N564 1.384 . S
C562 H553 0.929 . S
C562 C554 1.378 . S
C562 C557 1.350 . S
C563 H550 0.929 . S
C563 C555 1.433 . S
C563 N565 1.384 . S
N564 C560 1.427 . S
N564 C561 1.384 . S
N565 C557 1.427 . S
N565 C563 1.384 . S
H566 C572 0.930 . S
H567 C576 0.930 . S
H568 C581 0.929 . S
H569 C579 0.929 . S
H570 C574 0.929 . S
H571 C580 0.929 . S
C572 H566 0.930 . S
C572 C573 1.367 . S
C572 C580 1.378 . S
C573 C572 1.367 . S
C573 C581 1.433 . S
C574 H570 0.929 . S
C574 C576 1.378 . S
C574 C578 1.350 . S
C575 C578 1.463 . S
C575 C580 1.350 . S
C575 N583 1.427 . S
C576 H567 0.930 . S
C576 C574 1.378 . S
C576 C577 1.367 . S
C577 C576 1.367 . S
C577 C579 1.433 . S
C578 C574 1.350 . S
C578 C575 1.463 . S
C578 N582 1.427 . S
C579 H569 0.929 . S
C579 C577 1.433 . S
C579 N582 1.384 . S
C580 H571 0.929 . S
C580 C572 1.378 . S
C580 C575 1.350 . S
C581 H568 0.929 . S
C581 C573 1.433 . S
C581 N583 1.384 . S
N582 C578 1.427 . S
N582 C579 1.384 . S
N583 C575 1.427 . S
N583 C581 1.384 . S
H584 C590 0.930 . S
H585 C594 0.930 . S
H586 C599 0.929 . S
H587 C597 0.929 . S
H588 C592 0.929 . S
H589 C598 0.929 . S
C590 H584 0.930 . S
C590 C591 1.367 . S
C590 C598 1.378 . S
C591 C590 1.367 . S
C591 C599 1.433 . S
C592 H588 0.929 . S
C592 C594 1.378 . S
C592 C596 1.350 . S
C593 C596 1.463 . S
C593 C598 1.350 . S
C593 N601 1.427 . S
C594 H585 0.930 . S
C594 C592 1.378 . S
C594 C595 1.367 . S
C595 C594 1.367 . S
C595 C597 1.433 . S
C596 C592 1.350 . S
C596 C593 1.463 . S
C596 N600 1.427 . S
C597 H587 0.929 . S
C597 C595 1.433 . S
C597 N600 1.384 . S
C598 H589 0.929 . S
C598 C590 1.378 . S
C598 C593 1.350 . S
C599 H586 0.929 . S
C599 C591 1.433 . S
C599 N601 1.384 . S
N600 C596 1.427 . S
N600 C597 1.384 . S
N601 C593 1.427 . S
N601 C599 1.384 . S
H602 C608 0.930 . S
H603 C612 0.930 . S
H604 C617 0.929 . S
H605 C615 0.929 . S
H606 C610 0.929 . S
H607 C616 0.929 . S
C608 H602 0.930 . S
C608 C609 1.367 . S
C608 C616 1.378 . S
C609 C608 1.367 . S
C609 C617 1.433 . S
C610 H606 0.929 . S
C610 C612 1.378 . S
C610 C614 1.350 . S
C611 C614 1.463 . S
C611 C616 1.350 . S
C611 N619 1.427 . S
C612 H603 0.930 . S
C612 C610 1.378 . S
C612 C613 1.367 . S
C613 C612 1.367 . S
C613 C615 1.433 . S
C614 C610 1.350 . S
C614 C611 1.463 . S
C614 N618 1.427 . S
C615 H605 0.929 . S
C615 C613 1.433 . S
C615 N618 1.384 . S
C616 H607 0.929 . S
C616 C608 1.378 . S
C616 C611 1.350 . S
C617 H604 0.929 . S
C617 C609 1.433 . S
C617 N619 1.384 . S
N618 C614 1.427 . S
N618 C615 1.384 . S
N619 C611 1.427 . S
N619 C617 1.384 . S
H620 C626 0.930 . S
H621 C630 0.930 . S
H622 C635 0.929 . S
H623 C633 0.929 . S
H624 C628 0.929 . S
H625 C634 0.929 . S
C626 H620 0.930 . S
C626 C627 1.367 . S
C626 C634 1.378 . S
C627 C626 1.367 . S
C627 C635 1.433 . S
C628 H624 0.929 . S
C628 C630 1.378 . S
C628 C632 1.350 . S
C629 C632 1.463 . S
C629 C634 1.350 . S
C629 N637 1.427 . S
C630 H621 0.930 . S
C630 C628 1.378 . S
C630 C631 1.367 . S
C631 C630 1.367 . S
C631 C633 1.433 . S
C632 C628 1.350 . S
C632 C629 1.463 . S
C632 N636 1.427 . S
C633 H623 0.929 . S
C633 C631 1.433 . S
C633 N636 1.384 . S
C634 H625 0.929 . S
C634 C626 1.378 . S
C634 C629 1.350 . S
C635 H622 0.929 . S
C635 C627 1.433 . S
C635 N637 1.384 . S
N636 C632 1.427 . S
N636 C633 1.384 . S
N637 C629 1.427 . S
N637 C635 1.384 . S
H638 C644 0.930 . S
H639 C648 0.930 . S
H640 C653 0.929 . S
H641 C651 0.929 . S
H642 C646 0.929 . S
H643 C652 0.929 . S
C644 H638 0.930 . S
C644 C645 1.367 . S
C644 C652 1.378 . S
C645 C644 1.367 . S
C645 C653 1.433 . S
C646 H642 0.929 . S
C646 C648 1.378 . S
C646 C650 1.350 . S
C647 C650 1.463 . S
C647 C652 1.350 . S
C647 N655 1.427 . S
C648 H639 0.930 . S
C648 C646 1.378 . S
C648 C649 1.367 . S
C649 C648 1.367 . S
C649 C651 1.433 . S
C650 C646 1.350 . S
C650 C647 1.463 . S
C650 N654 1.427 . S
C651 H641 0.929 . S
C651 C649 1.433 . S
C651 N654 1.384 . S
C652 H643 0.929 . S
C652 C644 1.378 . S
C652 C647 1.350 . S
C653 H640 0.929 . S
C653 C645 1.433 . S
C653 N655 1.384 . S
N654 C650 1.427 . S
N654 C651 1.384 . S
N655 C647 1.427 . S
N655 C653 1.384 . S
H656 C662 0.930 . S
H657 C666 0.930 . S
H658 C671 0.929 . S
H659 C669 0.929 . S
H660 C664 0.929 . S
H661 C670 0.929 . S
C662 H656 0.930 . S
C662 C663 1.367 . S
C662 C670 1.378 . S
C663 C662 1.367 . S
C663 C671 1.433 . S
C664 H660 0.929 . S
C664 C666 1.378 . S
C664 C668 1.350 . S
C665 C668 1.463 . S
C665 C670 1.350 . S
C665 N673 1.427 . S
C666 H657 0.930 . S
C666 C664 1.378 . S
C666 C667 1.367 . S
C667 C666 1.367 . S
C667 C669 1.433 . S
C668 C664 1.350 . S
C668 C665 1.463 . S
C668 N672 1.427 . S
C669 H659 0.929 . S
C669 C667 1.433 . S
C669 N672 1.384 . S
C670 H661 0.929 . S
C670 C662 1.378 . S
C670 C665 1.350 . S
C671 H658 0.929 . S
C671 C663 1.433 . S
C671 N673 1.384 . S
N672 C668 1.427 . S
N672 C669 1.384 . S
N673 C665 1.427 . S
N673 C671 1.384 . S
H674 C680 0.930 . S
H675 C684 0.930 . S
H676 C689 0.929 . S
H677 C687 0.929 . S
H678 C682 0.929 . S
H679 C688 0.929 . S
C680 H674 0.930 . S
C680 C681 1.367 . S
C680 C688 1.378 . S
C681 C680 1.367 . S
C681 C689 1.433 . S
C682 H678 0.929 . S
C682 C684 1.378 . S
C682 C686 1.350 . S
C683 C686 1.463 . S
C683 C688 1.350 . S
C683 N691 1.427 . S
C684 H675 0.930 . S
C684 C682 1.378 . S
C684 C685 1.367 . S
C685 C684 1.367 . S
C685 C687 1.433 . S
C686 C682 1.350 . S
C686 C683 1.463 . S
C686 N690 1.427 . S
C687 H677 0.929 . S
C687 C685 1.433 . S
C687 N690 1.384 . S
C688 H679 0.929 . S
C688 C680 1.378 . S
C688 C683 1.350 . S
C689 H676 0.929 . S
C689 C681 1.433 . S
C689 N691 1.384 . S
N690 C686 1.427 . S
N690 C687 1.384 . S
N691 C683 1.427 . S
N691 C689 1.384 . S
H692 C698 0.930 . S
H693 C702 0.930 . S
H694 C707 0.929 . S
H695 C705 0.929 . S
H696 C700 0.938 . S
H697 C706 0.929 . S
C698 H692 0.930 . S
C698 C699 1.367 . S
C698 C706 1.378 . S
C699 C698 1.367 . S
C699 C707 1.433 . S
C700 H696 0.938 . S
C700 C702 1.378 1_565 S
C700 C704 1.350 . S
C701 C704 1.463 . S
C701 C706 1.350 . S
C701 N709 1.427 . S
C702 H693 0.930 . S
C702 C700 1.378 1_545 S
C702 C703 1.367 1_545 S
C703 C702 1.367 1_565 S
C703 C705 1.433 . S
C704 C700 1.350 . S
C704 C701 1.463 . S
C704 N708 1.427 . S
C705 H695 0.929 . S
C705 C703 1.433 . S
C705 N708 1.384 . S
C706 H697 0.929 . S
C706 C698 1.378 . S
C706 C701 1.350 . S
C707 H694 0.929 . S
C707 C699 1.433 . S
C707 N709 1.384 . S
N708 C704 1.427 . S
N708 C705 1.384 . S
N709 C701 1.427 . S
N709 C707 1.384 . S
H710 C716 0.930 . S
H711 C720 0.930 . S
H712 C725 0.929 . S
H713 C723 0.929 . S
H714 C718 0.929 . S
H715 C724 0.929 . S
C716 H710 0.930 . S
C716 C717 1.367 . S
C716 C724 1.378 . S
C717 C716 1.367 . S
C717 C725 1.433 . S
C718 H714 0.929 . S
C718 C720 1.378 . S
C718 C722 1.350 . S
C719 C722 1.463 . S
C719 C724 1.350 . S
C719 N727 1.427 . S
C720 H711 0.930 . S
C720 C718 1.378 . S
C720 C721 1.367 . S
C721 C720 1.367 . S
C721 C723 1.433 . S
C722 C718 1.350 . S
C722 C719 1.463 . S
C722 N726 1.427 . S
C723 H713 0.929 . S
C723 C721 1.433 . S
C723 N726 1.384 . S
C724 H715 0.929 . S
C724 C716 1.378 . S
C724 C719 1.350 . S
C725 H712 0.929 . S
C725 C717 1.433 . S
C725 N727 1.384 . S
N726 C722 1.427 . S
N726 C723 1.384 . S
N727 C719 1.427 . S
N727 C725 1.384 . S
H728 C734 0.930 . S
H729 C738 0.930 . S
H730 C743 0.929 . S
H731 C741 0.929 . S
H732 C736 0.929 . S
H733 C742 0.929 . S
C734 H728 0.930 . S
C734 C735 1.367 . S
C734 C742 1.378 . S
C735 C734 1.367 . S
C735 C743 1.433 . S
C736 H732 0.929 . S
C736 C738 1.378 . S
C736 C740 1.350 . S
C737 C740 1.463 . S
C737 C742 1.350 . S
C737 N745 1.427 . S
C738 H729 0.930 . S
C738 C736 1.378 . S
C738 C739 1.367 . S
C739 C738 1.367 . S
C739 C741 1.433 . S
C740 C736 1.350 . S
C740 C737 1.463 . S
C740 N744 1.427 . S
C741 H731 0.929 . S
C741 C739 1.433 . S
C741 N744 1.384 . S
C742 H733 0.929 . S
C742 C734 1.378 . S
C742 C737 1.350 . S
C743 H730 0.929 . S
C743 C735 1.433 . S
C743 N745 1.384 . S
N744 C740 1.427 . S
N744 C741 1.384 . S
N745 C737 1.427 . S
N745 C743 1.384 . S
H746 C752 0.930 . S
H747 C756 0.930 1_554 S
H748 C761 0.929 . S
H749 C759 0.929 . S
H750 C754 0.929 . S
H751 C760 0.929 . S
C752 H746 0.930 . S
C752 C753 1.367 . S
C752 C760 1.378 . S
C753 C752 1.367 . S
C753 C761 1.433 . S
C754 H750 0.929 . S
C754 C756 1.378 . S
C754 C758 1.350 . S
C755 C758 1.463 . S
C755 C760 1.350 . S
C755 N763 1.427 . S
C756 H747 0.930 1_556 S
C756 C754 1.378 . S
C756 C757 1.367 . S
C757 C756 1.367 . S
C757 C759 1.433 . S
C758 C754 1.350 . S
C758 C755 1.463 . S
C758 N762 1.427 . S
C759 H749 0.929 . S
C759 C757 1.433 . S
C759 N762 1.384 . S
C760 H751 0.929 . S
C760 C752 1.378 . S
C760 C755 1.350 . S
C761 H748 0.929 . S
C761 C753 1.433 . S
C761 N763 1.384 . S
N762 C758 1.427 . S
N762 C759 1.384 . S
N763 C755 1.427 . S
N763 C761 1.384 . S
H764 C770 0.930 . S
H765 C774 0.930 . S
H766 C779 0.929 . S
H767 C777 0.929 . S
H768 C772 0.929 . S
H769 C778 0.929 . S
C770 H764 0.930 . S
C770 C771 1.367 . S
C770 C778 1.378 . S
C771 C770 1.367 . S
C771 C779 1.433 . S
C772 H768 0.929 . S
C772 C774 1.378 . S
C772 C776 1.350 . S
C773 C776 1.463 . S
C773 C778 1.350 . S
C773 N781 1.427 . S
C774 H765 0.930 . S
C774 C772 1.378 . S
C774 C775 1.367 . S
C775 C774 1.367 . S
C775 C777 1.433 . S
C776 C772 1.350 . S
C776 C773 1.463 . S
C776 N780 1.427 . S
C777 H767 0.929 . S
C777 C775 1.433 . S
C777 N780 1.384 . S
C778 H769 0.929 . S
C778 C770 1.378 . S
C778 C773 1.350 . S
C779 H766 0.929 . S
C779 C771 1.433 . S
C779 N781 1.384 . S
N780 C776 1.427 . S
N780 C777 1.384 . S
N781 C773 1.427 . S
N781 C779 1.384 . S
H782 C788 0.930 . S
H783 C792 0.930 . S
H784 C797 0.929 . S
H785 C795 0.929 . S
H786 C790 0.929 . S
H787 C796 0.929 . S
C788 H782 0.930 . S
C788 C789 1.367 . S
C788 C796 1.378 . S
C789 C788 1.367 . S
C789 C797 1.433 . S
C790 H786 0.929 . S
C790 C792 1.378 . S
C790 C794 1.350 . S
C791 C794 1.463 . S
C791 C796 1.350 . S
C791 N799 1.427 . S
C792 H783 0.930 . S
C792 C790 1.378 . S
C792 C793 1.367 . S
C793 C792 1.367 . S
C793 C795 1.433 1_556 S
C794 C790 1.350 . S
C794 C791 1.463 . S
C794 N798 1.427 . S
C795 H785 0.929 . S
C795 C793 1.433 1_554 S
C795 N798 1.384 1_554 S
C796 H787 0.929 . S
C796 C788 1.378 . S
C796 C791 1.350 . S
C797 H784 0.929 . S
C797 C789 1.433 . S
C797 N799 1.384 . S
N798 C794 1.427 . S
N798 C795 1.384 1_556 S
N799 C791 1.427 . S
N799 C797 1.384 . S
H800 C806 0.930 . S
H801 C810 0.930 . S
H802 C815 0.929 . S
H803 C813 0.929 . S
H804 C808 0.929 . S
H805 C814 0.929 . S
C806 H800 0.930 . S
C806 C807 1.367 . S
C806 C814 1.378 . S
C807 C806 1.367 . S
C807 C815 1.433 . S
C808 H804 0.929 . S
C808 C810 1.378 . S
C808 C812 1.350 . S
C809 C812 1.463 . S
C809 C814 1.350 . S
C809 N817 1.427 . S
C810 H801 0.930 . S
C810 C808 1.378 . S
C810 C811 1.367 . S
C811 C810 1.367 . S
C811 C813 1.433 . S
C812 C808 1.350 . S
C812 C809 1.463 . S
C812 N816 1.427 . S
C813 H803 0.929 . S
C813 C811 1.433 . S
C813 N816 1.384 . S
C814 H805 0.929 . S
C814 C806 1.378 . S
C814 C809 1.350 . S
C815 H802 0.929 . S
C815 C807 1.433 . S
C815 N817 1.384 . S
N816 C812 1.427 . S
N816 C813 1.384 . S
N817 C809 1.427 . S
N817 C815 1.384 . S
H818 C824 0.930 . S
H819 C828 0.930 . S
H820 C833 0.929 . S
H821 C831 0.929 1_554 S
H822 C826 0.929 . S
H823 C832 0.929 . S
C824 H818 0.930 . S
C824 C825 1.367 . S
C824 C832 1.378 . S
C825 C824 1.367 . S
C825 C833 1.433 . S
C826 H822 0.929 . S
C826 C828 1.378 . S
C826 C830 1.350 . S
C827 C830 1.463 . S
C827 C832 1.350 . S
C827 N835 1.427 . S
C828 H819 0.930 . S
C828 C826 1.378 . S
C828 C829 1.367 1_556 S
C829 C828 1.367 1_554 S
C829 C831 1.433 1_554 S
C830 C826 1.350 . S
C830 C827 1.463 . S
C830 N834 1.427 . S
C831 H821 0.929 1_556 S
C831 C829 1.433 1_556 S
C831 N834 1.384 . S
C832 H823 0.929 . S
C832 C824 1.378 . S
C832 C827 1.350 . S
C833 H820 0.929 . S
C833 C825 1.433 . S
C833 N835 1.384 . S
N834 C830 1.427 . S
N834 C831 1.384 . S
N835 C827 1.427 . S
N835 C833 1.384 . S
H836 C842 0.930 . S
H837 C846 0.930 . S
H838 C851 0.929 . S
H839 C849 0.929 . S
H840 C844 0.929 . S
H841 C850 0.929 . S
C842 H836 0.930 . S
C842 C843 1.367 . S
C842 C850 1.378 . S
C843 C842 1.367 . S
C843 C851 1.433 . S
C844 H840 0.929 . S
C844 C846 1.378 . S
C844 C848 1.350 . S
C845 C848 1.463 . S
C845 C850 1.350 . S
C845 N853 1.427 . S
C846 H837 0.930 . S
C846 C844 1.378 . S
C846 C847 1.367 . S
C847 C846 1.367 . S
C847 C849 1.433 . S
C848 C844 1.350 . S
C848 C845 1.463 . S
C848 N852 1.427 . S
C849 H839 0.929 . S
C849 C847 1.433 . S
C849 N852 1.384 . S
C850 H841 0.929 . S
C850 C842 1.378 . S
C850 C845 1.350 . S
C851 H838 0.929 . S
C851 C843 1.433 . S
C851 N853 1.384 . S
N852 C848 1.427 . S
N852 C849 1.384 . S
N853 C845 1.427 . S
N853 C851 1.384 . S
H854 C860 0.930 . S
H855 C864 0.930 . S
H856 C869 0.929 . S
H857 C867 0.929 . S
H858 C862 0.929 . S
H859 C868 0.929 . S
C860 H854 0.930 . S
C860 C861 1.367 . S
C860 C868 1.378 . S
C861 C860 1.367 . S
C861 C869 1.433 . S
C862 H858 0.929 . S
C862 C864 1.378 . S
C862 C866 1.350 . S
C863 C866 1.463 . S
C863 C868 1.350 . S
C863 N871 1.427 . S
C864 H855 0.930 . S
C864 C862 1.378 . S
C864 C865 1.367 . S
C865 C864 1.367 . S
C865 C867 1.433 . S
C866 C862 1.350 . S
C866 C863 1.463 . S
C866 N870 1.427 . S
C867 H857 0.929 . S
C867 C865 1.433 . S
C867 N870 1.384 . S
C868 H859 0.929 . S
C868 C860 1.378 . S
C868 C863 1.350 . S
C869 H856 0.929 . S
C869 C861 1.433 . S
C869 N871 1.384 . S
N870 C866 1.427 . S
N870 C867 1.384 . S
N871 C863 1.427 . S
N871 C869 1.384 . S
H872 C878 0.930 . S
H873 C882 0.930 . S
H874 C887 0.929 . S
H875 C885 0.929 . S
H876 C880 0.929 . S
H877 C886 0.929 . S
C878 H872 0.930 . S
C878 C879 1.367 . S
C878 C886 1.378 . S
C879 C878 1.367 . S
C879 C887 1.433 . S
C880 H876 0.929 . S
C880 C882 1.378 . S
C880 C884 1.350 . S
C881 C884 1.463 . S
C881 C886 1.350 . S
C881 N889 1.427 . S
C882 H873 0.930 . S
C882 C880 1.378 . S
C882 C883 1.367 . S
C883 C882 1.367 . S
C883 C885 1.433 . S
C884 C880 1.350 . S
C884 C881 1.463 . S
C884 N888 1.427 . S
C885 H875 0.929 . S
C885 C883 1.433 . S
C885 N888 1.384 . S
C886 H877 0.929 . S
C886 C878 1.378 . S
C886 C881 1.350 . S
C887 H874 0.929 . S
C887 C879 1.433 . S
C887 N889 1.384 . S
N888 C884 1.427 . S
N888 C885 1.384 . S
N889 C881 1.427 . S
N889 C887 1.384 . S
H890 C896 0.930 . S
H891 C900 0.930 . S
H892 C905 0.929 . S
H893 C903 0.929 . S
H894 C898 0.929 . S
H895 C904 0.929 . S
C896 H890 0.930 . S
C896 C897 1.367 . S
C896 C904 1.378 . S
C897 C896 1.367 . S
C897 C905 1.433 . S
C898 H894 0.929 . S
C898 C900 1.378 . S
C898 C902 1.350 . S
C899 C902 1.463 . S
C899 C904 1.350 . S
C899 N907 1.427 . S
C900 H891 0.930 . S
C900 C898 1.378 . S
C900 C901 1.367 . S
C901 C900 1.367 . S
C901 C903 1.433 . S
C902 C898 1.350 . S
C902 C899 1.463 . S
C902 N906 1.427 . S
C903 H893 0.929 . S
C903 C901 1.433 . S
C903 N906 1.384 . S
C904 H895 0.929 . S
C904 C896 1.378 . S
C904 C899 1.350 . S
C905 H892 0.929 . S
C905 C897 1.433 . S
C905 N907 1.384 . S
N906 C902 1.427 . S
N906 C903 1.384 . S
N907 C899 1.427 . S
N907 C905 1.384 . S
H908 C914 0.930 . S
H909 C918 0.930 . S
H910 C923 0.929 . S
H911 C921 0.929 . S
H912 C916 0.929 . S
H913 C922 0.929 . S
C914 H908 0.930 . S
C914 C915 1.367 . S
C914 C922 1.378 . S
C915 C914 1.367 . S
C915 C923 1.433 . S
C916 H912 0.929 . S
C916 C918 1.378 . S
C916 C920 1.350 . S
C917 C920 1.463 . S
C917 C922 1.350 . S
C917 N925 1.427 . S
C918 H909 0.930 . S
C918 C916 1.378 . S
C918 C919 1.367 . S
C919 C918 1.367 . S
C919 C921 1.433 . S
C920 C916 1.350 . S
C920 C917 1.463 . S
C920 N924 1.427 . S
C921 H911 0.929 . S
C921 C919 1.433 . S
C921 N924 1.384 . S
C922 H913 0.929 . S
C922 C914 1.378 . S
C922 C917 1.350 . S
C923 H910 0.929 . S
C923 C915 1.433 . S
C923 N925 1.384 . S
N924 C920 1.427 . S
N924 C921 1.384 . S
N925 C917 1.427 . S
N925 C923 1.384 . S
H926 C932 0.930 . S
H927 C936 0.930 . S
H928 C941 0.929 . S
H929 C939 0.929 . S
H930 C934 0.929 . S
H931 C940 0.929 . S
C932 H926 0.930 . S
C932 C933 1.367 . S
C932 C940 1.378 . S
C933 C932 1.367 . S
C933 C941 1.433 . S
C934 H930 0.929 . S
C934 C936 1.378 . S
C934 C938 1.350 . S
C935 C938 1.463 . S
C935 C940 1.350 . S
C935 N943 1.427 . S
C936 H927 0.930 . S
C936 C934 1.378 . S
C936 C937 1.367 . S
C937 C936 1.367 . S
C937 C939 1.433 . S
C938 C934 1.350 . S
C938 C935 1.463 . S
C938 N942 1.427 . S
C939 H929 0.929 . S
C939 C937 1.433 . S
C939 N942 1.384 . S
C940 H931 0.929 . S
C940 C932 1.378 . S
C940 C935 1.350 . S
C941 H928 0.929 . S
C941 C933 1.433 . S
C941 N943 1.384 . S
N942 C938 1.427 . S
N942 C939 1.384 . S
N943 C935 1.427 . S
N943 C941 1.384 . S
H944 C950 0.930 . S
H945 C954 0.930 . S
H946 C959 0.929 . S
H947 C957 0.929 . S
H948 C952 0.929 . S
H949 C958 0.929 . S
C950 H944 0.930 . S
C950 C951 1.367 . S
C950 C958 1.378 . S
C951 C950 1.367 . S
C951 C959 1.433 . S
C952 H948 0.929 . S
C952 C954 1.378 . S
C952 C956 1.350 . S
C953 C956 1.463 . S
C953 C958 1.350 . S
C953 N961 1.427 . S
C954 H945 0.930 . S
C954 C952 1.378 . S
C954 C955 1.367 . S
C955 C954 1.367 . S
C955 C957 1.433 . S
C956 C952 1.350 . S
C956 C953 1.463 . S
C956 N960 1.427 . S
C957 H947 0.929 . S
C957 C955 1.433 . S
C957 N960 1.384 . S
C958 H949 0.929 . S
C958 C950 1.378 . S
C958 C953 1.350 . S
C959 H946 0.929 . S
C959 C951 1.433 . S
C959 N961 1.384 . S
N960 C956 1.427 . S
N960 C957 1.384 . S
N961 C953 1.427 . S
N961 C959 1.384 . S
H962 C968 0.930 . S
H963 C972 0.930 . S
H964 C977 0.929 . S
H965 C975 0.929 . S
H966 C970 0.929 . S
H967 C976 0.929 . S
C968 H962 0.930 . S
C968 C969 1.367 . S
C968 C976 1.378 . S
C969 C968 1.367 . S
C969 C977 1.433 . S
C970 H966 0.929 . S
C970 C972 1.378 . S
C970 C974 1.350 . S
C971 C974 1.463 . S
C971 C976 1.350 . S
C971 N979 1.427 . S
C972 H963 0.930 . S
C972 C970 1.378 . S
C972 C973 1.367 . S
C973 C972 1.367 . S
C973 C975 1.433 . S
C974 C970 1.350 . S
C974 C971 1.463 . S
C974 N978 1.427 . S
C975 H965 0.929 . S
C975 C973 1.433 . S
C975 N978 1.384 . S
C976 H967 0.929 . S
C976 C968 1.378 . S
C976 C971 1.350 . S
C977 H964 0.929 . S
C977 C969 1.433 . S
C977 N979 1.384 . S
N978 C974 1.427 . S
N978 C975 1.384 . S
N979 C971 1.427 . S
N979 C977 1.384 . S
H980 C986 0.930 . S
H981 C990 0.930 . S
H982 C995 0.929 . S
H983 C993 0.929 . S
H984 C988 0.929 . S
H985 C994 0.929 . S
C986 H980 0.930 . S
C986 C987 1.367 . S
C986 C994 1.378 . S
C987 C986 1.367 . S
C987 C995 1.433 . S
C988 H984 0.929 . S
C988 C990 1.378 . S
C988 C992 1.350 . S
C989 C992 1.463 . S
C989 C994 1.350 . S
C989 N997 1.427 . S
C990 H981 0.930 . S
C990 C988 1.378 . S
C990 C991 1.367 . S
C991 C990 1.367 . S
C991 C993 1.433 . S
C992 C988 1.350 . S
C992 C989 1.463 . S
C992 N996 1.427 . S
C993 H983 0.929 . S
C993 C991 1.433 . S
C993 N996 1.384 . S
C994 H985 0.929 . S
C994 C986 1.378 . S
C994 C989 1.350 . S
C995 H982 0.929 . S
C995 C987 1.433 . S
C995 N997 1.384 . S
N996 C992 1.427 . S
N996 C993 1.384 . S
N997 C989 1.427 . S
N997 C995 1.384 . S
H998 C1004 0.930 . S
H999 C1008 0.930 . S
H1000 C1013 0.929 . S
H1001 C1011 0.929 . S
H1002 C1006 0.929 . S
H1003 C1012 0.929 . S
C1004 H998 0.930 . S
C1004 C1005 1.367 . S
C1004 C1012 1.378 . S
C1005 C1004 1.367 . S
C1005 C1013 1.433 . S
C1006 H1002 0.929 . S
C1006 C1008 1.378 . S
C1006 C1010 1.350 . S
C1007 C1010 1.463 . S
C1007 C1012 1.350 . S
C1007 N1015 1.427 . S
C1008 H999 0.930 . S
C1008 C1006 1.378 . S
C1008 C1009 1.367 . S
C1009 C1008 1.367 . S
C1009 C1011 1.433 . S
C1010 C1006 1.350 . S
C1010 C1007 1.463 . S
C1010 N1014 1.427 . S
C1011 H1001 0.929 . S
C1011 C1009 1.433 . S
C1011 N1014 1.384 . S
C1012 H1003 0.929 . S
C1012 C1004 1.378 . S
C1012 C1007 1.350 . S
C1013 H1000 0.929 . S
C1013 C1005 1.433 . S
C1013 N1015 1.384 . S
N1014 C1010 1.427 . S
N1014 C1011 1.384 . S
N1015 C1007 1.427 . S
N1015 C1013 1.384 . S
H1016 C1022 0.930 . S
H1017 C1026 0.930 . S
H1018 C1031 0.929 . S
H1019 C1029 0.929 . S
H1020 C1024 0.929 . S
H1021 C1030 0.929 . S
C1022 H1016 0.930 . S
C1022 C1023 1.367 . S
C1022 C1030 1.378 . S
C1023 C1022 1.367 . S
C1023 C1031 1.433 . S
C1024 H1020 0.929 . S
C1024 C1026 1.378 . S
C1024 C1028 1.350 . S
C1025 C1028 1.463 . S
C1025 C1030 1.350 . S
C1025 N1033 1.427 . S
C1026 H1017 0.930 . S
C1026 C1024 1.378 . S
C1026 C1027 1.367 . S
C1027 C1026 1.367 . S
C1027 C1029 1.433 . S
C1028 C1024 1.350 . S
C1028 C1025 1.463 . S
C1028 N1032 1.427 . S
C1029 H1019 0.929 . S
C1029 C1027 1.433 . S
C1029 N1032 1.384 . S
C1030 H1021 0.929 . S
C1030 C1022 1.378 . S
C1030 C1025 1.350 . S
C1031 H1018 0.929 . S
C1031 C1023 1.433 . S
C1031 N1033 1.384 . S
N1032 C1028 1.427 . S
N1032 C1029 1.384 . S
N1033 C1025 1.427 . S
N1033 C1031 1.384 . S
H1034 C1040 0.930 . S
H1035 C1044 0.930 . S
H1036 C1049 0.929 . S
H1037 C1047 0.929 . S
H1038 C1042 0.929 . S
H1039 C1048 0.929 . S
C1040 H1034 0.930 . S
C1040 C1041 1.367 . S
C1040 C1048 1.378 . S
C1041 C1040 1.367 . S
C1041 C1049 1.433 . S
C1042 H1038 0.929 . S
C1042 C1044 1.378 . S
C1042 C1046 1.350 . S
C1043 C1046 1.463 . S
C1043 C1048 1.350 . S
C1043 N1051 1.427 . S
C1044 H1035 0.930 . S
C1044 C1042 1.378 . S
C1044 C1045 1.367 . S
C1045 C1044 1.367 . S
C1045 C1047 1.433 . S
C1046 C1042 1.350 . S
C1046 C1043 1.463 . S
C1046 N1050 1.427 . S
C1047 H1037 0.929 . S
C1047 C1045 1.433 . S
C1047 N1050 1.384 . S
C1048 H1039 0.929 . S
C1048 C1040 1.378 . S
C1048 C1043 1.350 . S
C1049 H1036 0.929 . S
C1049 C1041 1.433 . S
C1049 N1051 1.384 . S
N1050 C1046 1.427 . S
N1050 C1047 1.384 . S
N1051 C1043 1.427 . S
N1051 C1049 1.384 . S
H1052 C1058 0.930 . S
H1053 C1062 0.930 . S
H1054 C1067 0.929 . S
H1055 C1065 0.929 . S
H1056 C1060 0.929 . S
H1057 C1066 0.929 . S
C1058 H1052 0.930 . S
C1058 C1059 1.367 . S
C1058 C1066 1.378 . S
C1059 C1058 1.367 . S
C1059 C1067 1.433 . S
C1060 H1056 0.929 . S
C1060 C1062 1.378 . S
C1060 C1064 1.350 . S
C1061 C1064 1.463 . S
C1061 C1066 1.350 . S
C1061 N1069 1.427 . S
C1062 H1053 0.930 . S
C1062 C1060 1.378 . S
C1062 C1063 1.367 . S
C1063 C1062 1.367 . S
C1063 C1065 1.433 . S
C1064 C1060 1.350 . S
C1064 C1061 1.463 . S
C1064 N1068 1.427 . S
C1065 H1055 0.929 . S
C1065 C1063 1.433 . S
C1065 N1068 1.384 . S
C1066 H1057 0.929 . S
C1066 C1058 1.378 . S
C1066 C1061 1.350 . S
C1067 H1054 0.929 . S
C1067 C1059 1.433 . S
C1067 N1069 1.384 . S
N1068 C1064 1.427 . S
N1068 C1065 1.384 . S
N1069 C1061 1.427 . S
N1069 C1067 1.384 . S
H1070 C1076 0.930 . S
H1071 C1080 0.930 . S
H1072 C1085 0.929 . S
H1073 C1083 0.929 . S
H1074 C1078 0.929 . S
H1075 C1084 0.929 . S
C1076 H1070 0.930 . S
C1076 C1077 1.367 . S
C1076 C1084 1.378 . S
C1077 C1076 1.367 . S
C1077 C1085 1.433 . S
C1078 H1074 0.929 . S
C1078 C1080 1.378 . S
C1078 C1082 1.350 . S
C1079 C1082 1.463 . S
C1079 C1084 1.350 . S
C1079 N1087 1.427 . S
C1080 H1071 0.930 . S
C1080 C1078 1.378 . S
C1080 C1081 1.367 . S
C1081 C1080 1.367 . S
C1081 C1083 1.433 . S
C1082 C1078 1.350 . S
C1082 C1079 1.463 . S
C1082 N1086 1.427 . S
C1083 H1073 0.929 . S
C1083 C1081 1.433 . S
C1083 N1086 1.384 . S
C1084 H1075 0.929 . S
C1084 C1076 1.378 . S
C1084 C1079 1.350 . S
C1085 H1072 0.929 . S
C1085 C1077 1.433 . S
C1085 N1087 1.384 . S
N1086 C1082 1.427 . S
N1086 C1083 1.384 . S
N1087 C1079 1.427 . S
N1087 C1085 1.384 . S
H1088 C1094 0.930 . S
H1089 C1098 0.930 . S
H1090 C1103 0.929 . S
H1091 C1101 0.929 . S
H1092 C1096 0.929 . S
H1093 C1102 0.929 . S
C1094 H1088 0.930 . S
C1094 C1095 1.367 . S
C1094 C1102 1.378 . S
C1095 C1094 1.367 . S
C1095 C1103 1.433 . S
C1096 H1092 0.929 . S
C1096 C1098 1.378 . S
C1096 C1100 1.350 . S
C1097 C1100 1.463 . S
C1097 C1102 1.350 . S
C1097 N1105 1.427 . S
C1098 H1089 0.930 . S
C1098 C1096 1.378 . S
C1098 C1099 1.367 . S
C1099 C1098 1.367 . S
C1099 C1101 1.433 . S
C1100 C1096 1.350 . S
C1100 C1097 1.463 . S
C1100 N1104 1.427 . S
C1101 H1091 0.929 . S
C1101 C1099 1.433 . S
C1101 N1104 1.384 . S
C1102 H1093 0.929 . S
C1102 C1094 1.378 . S
C1102 C1097 1.350 . S
C1103 H1090 0.929 . S
C1103 C1095 1.433 . S
C1103 N1105 1.384 . S
N1104 C1100 1.427 . S
N1104 C1101 1.384 . S
N1105 C1097 1.427 . S
N1105 C1103 1.384 . S
H1106 C1112 0.930 . S
H1107 C1116 0.930 . S
H1108 C1121 0.929 . S
H1109 C1119 0.929 . S
H1110 C1114 0.929 . S
H1111 C1120 0.929 . S
C1112 H1106 0.930 . S
C1112 C1113 1.367 . S
C1112 C1120 1.378 . S
C1113 C1112 1.367 . S
C1113 C1121 1.433 . S
C1114 H1110 0.929 . S
C1114 C1116 1.378 . S
C1114 C1118 1.350 . S
C1115 C1118 1.463 . S
C1115 C1120 1.350 . S
C1115 N1123 1.427 . S
C1116 H1107 0.930 . S
C1116 C1114 1.378 . S
C1116 C1117 1.367 . S
C1117 C1116 1.367 . S
C1117 C1119 1.433 . S
C1118 C1114 1.350 . S
C1118 C1115 1.463 . S
C1118 N1122 1.427 . S
C1119 H1109 0.929 . S
C1119 C1117 1.433 . S
C1119 N1122 1.384 . S
C1120 H1111 0.929 . S
C1120 C1112 1.378 . S
C1120 C1115 1.350 . S
C1121 H1108 0.929 . S
C1121 C1113 1.433 . S
C1121 N1123 1.384 . S
N1122 C1118 1.427 . S
N1122 C1119 1.384 . S
N1123 C1115 1.427 . S
N1123 C1121 1.384 . S
H1124 C1130 0.930 . S
H1125 C1134 0.930 . S
H1126 C1139 0.929 . S
H1127 C1137 0.929 . S
H1128 C1132 0.929 . S
H1129 C1138 0.929 . S
C1130 H1124 0.930 . S
C1130 C1131 1.367 . S
C1130 C1138 1.378 . S
C1131 C1130 1.367 . S
C1131 C1139 1.433 . S
C1132 H1128 0.929 . S
C1132 C1134 1.378 . S
C1132 C1136 1.350 . S
C1133 C1136 1.463 . S
C1133 C1138 1.350 . S
C1133 N1141 1.427 . S
C1134 H1125 0.930 . S
C1134 C1132 1.378 . S
C1134 C1135 1.367 . S
C1135 C1134 1.367 . S
C1135 C1137 1.433 . S
C1136 C1132 1.350 . S
C1136 C1133 1.463 . S
C1136 N1140 1.427 . S
C1137 H1127 0.929 . S
C1137 C1135 1.433 . S
C1137 N1140 1.384 . S
C1138 H1129 0.929 . S
C1138 C1130 1.378 . S
C1138 C1133 1.350 . S
C1139 H1126 0.929 . S
C1139 C1131 1.433 . S
C1139 N1141 1.384 . S
N1140 C1136 1.427 . S
N1140 C1137 1.384 . S
N1141 C1133 1.427 . S
N1141 C1139 1.384 . S
H1142 C1148 0.930 . S
H1143 C1152 0.930 . S
H1144 C1157 0.929 . S
H1145 C1155 0.929 . S
H1146 C1150 0.929 . S
H1147 C1156 0.929 . S
C1148 H1142 0.930 . S
C1148 C1149 1.367 . S
C1148 C1156 1.378 . S
C1149 C1148 1.367 . S
C1149 C1157 1.433 . S
C1150 H1146 0.929 . S
C1150 C1152 1.378 . S
C1150 C1154 1.350 . S
C1151 C1154 1.463 . S
C1151 C1156 1.350 . S
C1151 N1159 1.427 . S
C1152 H1143 0.930 . S
C1152 C1150 1.378 . S
C1152 C1153 1.367 . S
C1153 C1152 1.367 . S
C1153 C1155 1.433 . S
C1154 C1150 1.350 . S
C1154 C1151 1.463 . S
C1154 N1158 1.427 . S
C1155 H1145 0.929 . S
C1155 C1153 1.433 . S
C1155 N1158 1.384 . S
C1156 H1147 0.929 . S
C1156 C1148 1.378 . S
C1156 C1151 1.350 . S
C1157 H1144 0.929 . S
C1157 C1149 1.433 . S
C1157 N1159 1.384 . S
N1158 C1154 1.427 . S
N1158 C1155 1.384 . S
N1159 C1151 1.427 . S
N1159 C1157 1.384 . S
H1160 C1166 0.930 . S
H1161 C1170 0.930 . S
H1162 C1175 0.929 . S
H1163 C1173 0.929 . S
H1164 C1168 0.929 . S
H1165 C1174 0.929 . S
C1166 H1160 0.930 . S
C1166 C1167 1.367 . S
C1166 C1174 1.378 . S
C1167 C1166 1.367 . S
C1167 C1175 1.433 . S
C1168 H1164 0.929 . S
C1168 C1170 1.378 . S
C1168 C1172 1.350 . S
C1169 C1172 1.463 . S
C1169 C1174 1.350 . S
C1169 N1177 1.427 . S
C1170 H1161 0.930 . S
C1170 C1168 1.378 . S
C1170 C1171 1.367 . S
C1171 C1170 1.367 . S
C1171 C1173 1.433 . S
C1172 C1168 1.350 . S
C1172 C1169 1.463 . S
C1172 N1176 1.427 . S
C1173 H1163 0.929 . S
C1173 C1171 1.433 . S
C1173 N1176 1.384 . S
C1174 H1165 0.929 . S
C1174 C1166 1.378 . S
C1174 C1169 1.350 . S
C1175 H1162 0.929 . S
C1175 C1167 1.433 . S
C1175 N1177 1.384 . S
N1176 C1172 1.427 . S
N1176 C1173 1.384 . S
N1177 C1169 1.427 . S
N1177 C1175 1.384 . S
H1178 C1184 0.930 . S
H1179 C1188 0.930 . S
H1180 C1193 0.929 . S
H1181 C1191 0.929 . S
H1182 C1186 0.929 . S
H1183 C1192 0.929 . S
C1184 H1178 0.930 . S
C1184 C1185 1.367 . S
C1184 C1192 1.378 . S
C1185 C1184 1.367 . S
C1185 C1193 1.433 . S
C1186 H1182 0.929 . S
C1186 C1188 1.378 . S
C1186 C1190 1.350 . S
C1187 C1190 1.463 . S
C1187 C1192 1.350 . S
C1187 N1195 1.427 . S
C1188 H1179 0.930 . S
C1188 C1186 1.378 . S
C1188 C1189 1.367 . S
C1189 C1188 1.367 . S
C1189 C1191 1.433 . S
C1190 C1186 1.350 . S
C1190 C1187 1.463 . S
C1190 N1194 1.427 . S
C1191 H1181 0.929 . S
C1191 C1189 1.433 . S
C1191 N1194 1.384 . S
C1192 H1183 0.929 . S
C1192 C1184 1.378 . S
C1192 C1187 1.350 . S
C1193 H1180 0.929 . S
C1193 C1185 1.433 . S
C1193 N1195 1.384 . S
N1194 C1190 1.427 . S
N1194 C1191 1.384 . S
N1195 C1187 1.427 . S
N1195 C1193 1.384 . S
H1196 C1202 0.930 . S
H1197 C1206 0.930 . S
H1198 C1211 0.929 . S
H1199 C1209 0.929 . S
H1200 C1204 0.929 . S
H1201 C1210 0.929 . S
C1202 H1196 0.930 . S
C1202 C1203 1.367 . S
C1202 C1210 1.378 . S
C1203 C1202 1.367 . S
C1203 C1211 1.433 . S
C1204 H1200 0.929 . S
C1204 C1206 1.378 . S
C1204 C1208 1.350 . S
C1205 C1208 1.463 . S
C1205 C1210 1.350 . S
C1205 N1213 1.427 . S
C1206 H1197 0.930 . S
C1206 C1204 1.378 . S
C1206 C1207 1.367 . S
C1207 C1206 1.367 . S
C1207 C1209 1.433 . S
C1208 C1204 1.350 . S
C1208 C1205 1.463 . S
C1208 N1212 1.427 . S
C1209 H1199 0.929 . S
C1209 C1207 1.433 . S
C1209 N1212 1.384 . S
C1210 H1201 0.929 . S
C1210 C1202 1.378 . S
C1210 C1205 1.350 . S
C1211 H1198 0.929 . S
C1211 C1203 1.433 . S
C1211 N1213 1.384 . S
N1212 C1208 1.427 . S
N1212 C1209 1.384 . S
N1213 C1205 1.427 . S
N1213 C1211 1.384 . S
H1214 C1220 0.930 . S
H1215 C1224 0.930 . S
H1216 C1229 0.929 . S
H1217 C1227 0.929 . S
H1218 C1222 0.929 . S
H1219 C1228 0.929 . S
C1220 H1214 0.930 . S
C1220 C1221 1.367 . S
C1220 C1228 1.378 . S
C1221 C1220 1.367 . S
C1221 C1229 1.433 . S
C1222 H1218 0.929 . S
C1222 C1224 1.378 . S
C1222 C1226 1.350 . S
C1223 C1226 1.463 . S
C1223 C1228 1.350 . S
C1223 N1231 1.427 . S
C1224 H1215 0.930 . S
C1224 C1222 1.378 . S
C1224 C1225 1.367 . S
C1225 C1224 1.367 . S
C1225 C1227 1.433 . S
C1226 C1222 1.350 . S
C1226 C1223 1.463 . S
C1226 N1230 1.427 . S
C1227 H1217 0.929 . S
C1227 C1225 1.433 . S
C1227 N1230 1.384 . S
C1228 H1219 0.929 . S
C1228 C1220 1.378 . S
C1228 C1223 1.350 . S
C1229 H1216 0.929 . S
C1229 C1221 1.433 . S
C1229 N1231 1.384 . S
N1230 C1226 1.427 . S
N1230 C1227 1.384 . S
N1231 C1223 1.427 . S
N1231 C1229 1.384 . S
H1232 C1238 0.930 . S
H1233 C1242 0.930 . S
H1234 C1247 0.929 . S
H1235 C1245 0.929 . S
H1236 C1240 0.929 . S
H1237 C1246 0.929 . S
C1238 H1232 0.930 . S
C1238 C1239 1.367 . S
C1238 C1246 1.378 . S
C1239 C1238 1.367 . S
C1239 C1247 1.433 . S
C1240 H1236 0.929 . S
C1240 C1242 1.378 . S
C1240 C1244 1.350 . S
C1241 C1244 1.463 . S
C1241 C1246 1.350 . S
C1241 N1249 1.427 . S
C1242 H1233 0.930 . S
C1242 C1240 1.378 . S
C1242 C1243 1.367 . S
C1243 C1242 1.367 . S
C1243 C1245 1.433 . S
C1244 C1240 1.350 . S
C1244 C1241 1.463 . S
C1244 N1248 1.427 . S
C1245 H1235 0.929 . S
C1245 C1243 1.433 . S
C1245 N1248 1.384 . S
C1246 H1237 0.929 . S
C1246 C1238 1.378 . S
C1246 C1241 1.350 . S
C1247 H1234 0.929 . S
C1247 C1239 1.433 . S
C1247 N1249 1.384 . S
N1248 C1244 1.427 . S
N1248 C1245 1.384 . S
N1249 C1241 1.427 . S
N1249 C1247 1.384 . S
H1250 C1256 0.930 . S
H1251 C1260 0.930 . S
H1252 C1265 0.929 . S
H1253 C1263 0.929 . S
H1254 C1258 0.929 . S
H1255 C1264 0.929 . S
C1256 H1250 0.930 . S
C1256 C1257 1.367 . S
C1256 C1264 1.378 . S
C1257 C1256 1.367 . S
C1257 C1265 1.433 . S
C1258 H1254 0.929 . S
C1258 C1260 1.378 . S
C1258 C1262 1.350 . S
C1259 C1262 1.463 . S
C1259 C1264 1.350 . S
C1259 N1267 1.427 . S
C1260 H1251 0.930 . S
C1260 C1258 1.378 . S
C1260 C1261 1.367 . S
C1261 C1260 1.367 . S
C1261 C1263 1.433 . S
C1262 C1258 1.350 . S
C1262 C1259 1.463 . S
C1262 N1266 1.427 . S
C1263 H1253 0.929 . S
C1263 C1261 1.433 . S
C1263 N1266 1.384 . S
C1264 H1255 0.929 . S
C1264 C1256 1.378 . S
C1264 C1259 1.350 . S
C1265 H1252 0.929 . S
C1265 C1257 1.433 . S
C1265 N1267 1.384 . S
N1266 C1262 1.427 . S
N1266 C1263 1.384 . S
N1267 C1259 1.427 . S
N1267 C1265 1.384 . S
H1268 C1274 0.930 . S
H1269 C1278 0.930 1_455 S
H1270 C1283 0.929 . S
H1271 C1281 0.929 . S
H1272 C1276 0.929 . S
H1273 C1282 0.929 . S
C1274 H1268 0.930 . S
C1274 C1275 1.367 . S
C1274 C1282 1.378 . S
C1275 C1274 1.367 . S
C1275 C1283 1.433 . S
C1276 H1272 0.929 . S
C1276 C1278 1.378 . S
C1276 C1280 1.350 . S
C1277 C1280 1.463 . S
C1277 C1282 1.350 . S
C1277 N1285 1.427 . S
C1278 H1269 0.930 1_655 S
C1278 C1276 1.378 . S
C1278 C1279 1.367 . S
C1279 C1278 1.367 . S
C1279 C1281 1.433 . S
C1280 C1276 1.350 . S
C1280 C1277 1.463 . S
C1280 N1284 1.427 . S
C1281 H1271 0.929 . S
C1281 C1279 1.433 . S
C1281 N1284 1.384 . S
C1282 H1273 0.929 . S
C1282 C1274 1.378 . S
C1282 C1277 1.350 . S
C1283 H1270 0.929 . S
C1283 C1275 1.433 . S
C1283 N1285 1.384 . S
N1284 C1280 1.427 . S
N1284 C1281 1.384 . S
N1285 C1277 1.427 . S
N1285 C1283 1.384 . S
H1286 C1292 0.930 . S
H1287 C1296 0.930 . S
H1288 C1301 0.929 . S
H1289 C1299 0.929 . S
H1290 C1294 0.929 . S
H1291 C1300 0.929 . S
C1292 H1286 0.930 . S
C1292 C1293 1.367 . S
C1292 C1300 1.378 . S
C1293 C1292 1.367 . S
C1293 C1301 1.433 . S
C1294 H1290 0.929 . S
C1294 C1296 1.378 . S
C1294 C1298 1.350 . S
C1295 C1298 1.463 . S
C1295 C1300 1.350 . S
C1295 N1303 1.427 . S
C1296 H1287 0.930 . S
C1296 C1294 1.378 . S
C1296 C1297 1.367 . S
C1297 C1296 1.367 . S
C1297 C1299 1.433 . S
C1298 C1294 1.350 . S
C1298 C1295 1.463 . S
C1298 N1302 1.427 . S
C1299 H1289 0.929 . S
C1299 C1297 1.433 . S
C1299 N1302 1.384 . S
C1300 H1291 0.929 . S
C1300 C1292 1.378 . S
C1300 C1295 1.350 . S
C1301 H1288 0.929 . S
C1301 C1293 1.433 . S
C1301 N1303 1.384 . S
N1302 C1298 1.427 . S
N1302 C1299 1.384 . S
N1303 C1295 1.427 . S
N1303 C1301 1.384 . S
H1304 C1310 0.930 . S
H1305 C1314 0.930 . S
H1306 C1319 0.929 . S
H1307 C1317 0.929 . S
H1308 C1312 0.929 . S
H1309 C1318 0.929 . S
C1310 H1304 0.930 . S
C1310 C1311 1.367 . S
C1310 C1318 1.378 . S
C1311 C1310 1.367 . S
C1311 C1319 1.433 . S
C1312 H1308 0.929 . S
C1312 C1314 1.378 . S
C1312 C1316 1.350 . S
C1313 C1316 1.463 . S
C1313 C1318 1.350 . S
C1313 N1321 1.427 . S
C1314 H1305 0.930 . S
C1314 C1312 1.378 . S
C1314 C1315 1.367 . S
C1315 C1314 1.367 . S
C1315 C1317 1.433 . S
C1316 C1312 1.350 . S
C1316 C1313 1.463 . S
C1316 N1320 1.427 . S
C1317 H1307 0.929 . S
C1317 C1315 1.433 . S
C1317 N1320 1.384 . S
C1318 H1309 0.929 . S
C1318 C1310 1.378 . S
C1318 C1313 1.350 . S
C1319 H1306 0.929 . S
C1319 C1311 1.433 . S
C1319 N1321 1.384 . S
N1320 C1316 1.427 . S
N1320 C1317 1.384 . S
N1321 C1313 1.427 . S
N1321 C1319 1.384 . S
H1322 C1328 0.930 . S
H1323 C1332 0.930 . S
H1324 C1337 0.929 . S
H1325 C1335 0.929 . S
H1326 C1330 0.929 . S
H1327 C1336 0.929 . S
C1328 H1322 0.930 . S
C1328 C1329 1.367 . S
C1328 C1336 1.378 . S
C1329 C1328 1.367 . S
C1329 C1337 1.433 . S
C1330 H1326 0.929 . S
C1330 C1332 1.378 . S
C1330 C1334 1.350 . S
C1331 C1334 1.463 . S
C1331 C1336 1.350 . S
C1331 N1339 1.427 . S
C1332 H1323 0.930 . S
C1332 C1330 1.378 . S
C1332 C1333 1.367 . S
C1333 C1332 1.367 . S
C1333 C1335 1.433 . S
C1334 C1330 1.350 . S
C1334 C1331 1.463 . S
C1334 N1338 1.427 . S
C1335 H1325 0.929 . S
C1335 C1333 1.433 . S
C1335 N1338 1.384 . S
C1336 H1327 0.929 . S
C1336 C1328 1.378 . S
C1336 C1331 1.350 . S
C1337 H1324 0.929 . S
C1337 C1329 1.433 . S
C1337 N1339 1.384 . S
N1338 C1334 1.427 . S
N1338 C1335 1.384 . S
N1339 C1331 1.427 . S
N1339 C1337 1.384 . S
H1340 C1346 0.930 . S
H1341 C1350 0.930 . S
H1342 C1355 0.929 . S
H1343 C1353 0.929 . S
H1344 C1348 0.929 . S
H1345 C1354 0.929 . S
C1346 H1340 0.930 . S
C1346 C1347 1.367 . S
C1346 C1354 1.378 . S
C1347 C1346 1.367 . S
C1347 C1355 1.433 . S
C1348 H1344 0.929 . S
C1348 C1350 1.378 . S
C1348 C1352 1.350 . S
C1349 C1352 1.463 . S
C1349 C1354 1.350 . S
C1349 N1357 1.427 . S
C1350 H1341 0.930 . S
C1350 C1348 1.378 . S
C1350 C1351 1.367 . S
C1351 C1350 1.367 . S
C1351 C1353 1.433 . S
C1352 C1348 1.350 . S
C1352 C1349 1.463 . S
C1352 N1356 1.427 . S
C1353 H1343 0.929 . S
C1353 C1351 1.433 . S
C1353 N1356 1.384 . S
C1354 H1345 0.929 . S
C1354 C1346 1.378 . S
C1354 C1349 1.350 . S
C1355 H1342 0.929 . S
C1355 C1347 1.433 . S
C1355 N1357 1.384 . S
N1356 C1352 1.427 . S
N1356 C1353 1.384 . S
N1357 C1349 1.427 . S
N1357 C1355 1.384 . S
H1358 C1364 0.930 . S
H1359 C1368 0.930 . S
H1360 C1373 0.929 . S
H1361 C1371 0.929 . S
H1362 C1366 0.929 . S
H1363 C1372 0.929 . S
C1364 H1358 0.930 . S
C1364 C1365 1.367 . S
C1364 C1372 1.378 . S
C1365 C1364 1.367 . S
C1365 C1373 1.433 . S
C1366 H1362 0.929 . S
C1366 C1368 1.378 . S
C1366 C1370 1.350 . S
C1367 C1370 1.463 . S
C1367 C1372 1.350 . S
C1367 N1375 1.427 . S
C1368 H1359 0.930 . S
C1368 C1366 1.378 . S
C1368 C1369 1.367 . S
C1369 C1368 1.367 . S
C1369 C1371 1.433 . S
C1370 C1366 1.350 . S
C1370 C1367 1.463 . S
C1370 N1374 1.427 . S
C1371 H1361 0.929 . S
C1371 C1369 1.433 . S
C1371 N1374 1.384 . S
C1372 H1363 0.929 . S
C1372 C1364 1.378 . S
C1372 C1367 1.350 . S
C1373 H1360 0.929 . S
C1373 C1365 1.433 . S
C1373 N1375 1.384 . S
N1374 C1370 1.427 . S
N1374 C1371 1.384 . S
N1375 C1367 1.427 . S
N1375 C1373 1.384 . S
C523 C337 2.671 . S
C519 C24 2.640 . S
C541 C342 3.080 . S
C537 C53 3.097 . S
C559 C343 1.368 . S
C555 C82 1.365 . S
C573 C137 0.326 . S
C577 C347 0.500 . S
C591 C184 2.932 . S
C595 C350 2.881 . S
C613 C351 1.352 . S
C609 C202 1.367 . S
C627 C266 0.390 . S
C631 C328 0.292 . S
C645 C293 2.640 . S
C649 C344 2.674 . S
C667 C382 2.739 . S
C663 C2 2.756 . S
C681 C57 0.711 . S
C685 C408 0.923 . S
C703 C360 0.709 . S
C699 C106 0.689 . S
C721 C415 0.945 . S
C717 C143 0.963 . S
C735 C162 1.033 . S
C739 C369 1.034 . S
C757 C411 0.727 1_556 S
C753 C226 0.772 . S
C771 C264 2.420 . S
C775 C375 2.388 . S
C789 C297 0.475 . S
C793 C406 0.538 1_556 S
C807 C26 0.633 . S
C811 C414 0.667 . S
C825 C186 0.203 . S
C829 C401 0.364 . S
C847 C379 2.296 . S
C843 C224 2.330 . S
C865 C407 1.758 . S
C861 C242 1.810 . S
C879 C303 3.197 . S
C883 C374 3.107 . S
C897 C104 2.029 . S
C901 C392 2.012 . S
C919 C383 2.823 . S
C915 C133 2.847 . S
C933 C63 1.683 . S
C937 C376 1.685 . S
C951 C304 2.606 . S
C955 C438 2.572 . S
C969 C173 2.892 . S
C973 C433 2.860 . S
C991 C447 1.315 . S
C987 C223 1.340 . S
C1009 C424 0.273 . S
C1005 C257 0.427 . S
C1023 C64 3.061 . S
C1027 C440 3.047 . S
C1045 C439 1.333 . S
C1041 C103 1.329 . S
C1059 C146 0.364 . S
C1063 C443 0.281 . S
C1077 C13 2.605 . S
C1081 C446 2.584 . S
C1095 C282 3.212 . S
C1099 C472 3.206 . S
C1117 C488 0.416 . S
C1113 C177 0.197 . S
C1131 C213 2.345 . S
C1135 C470 2.310 . S
C1149 C263 1.821 . S
C1153 C503 1.739 . S
C1171 C479 1.698 . S
C1167 C42 1.683 . S
C1185 C93 2.068 . S
C1189 C497 2.044 . S
C1207 C475 2.758 . S
C1203 C144 2.843 . S
C1225 C510 0.657 . S
C1221 C17 0.649 . S
C1243 C502 0.464 . S
C1239 C306 0.427 . S
C1257 C66 0.699 . S
C1261 C507 0.787 . S
C1275 C97 0.709 . S
C1279 C478 0.697 . S
C1297 C511 1.006 . S
C1293 C122 0.984 . S
C1311 C23 2.770 . S
C1315 C465 2.762 . S
C1329 C217 0.774 . S
C1333 C504 0.768 . S
C1351 C456 2.409 . S
C1347 C253 2.420 . S
C1369 C471 1.014 . S
C1365 C183 1.046 . S
