# Generated by pormake.
# Topology pth, (4,4)-cn, num edge types: 1
# Building blocks:
#     Node 0, Type 0, BuildingBlock: QUQFOY_clean_sbu_1, # of connection points: 4
#     Node 1, Type 0, BuildingBlock: QUQFOY_clean_sbu_1, # of connection points: 4
#     Node 2, Type 0, BuildingBlock: QUQFOY_clean_sbu_1, # of connection points: 4
#     Node 3, Type 1, BuildingBlock: NAWXER_clean_sbu_0, # of connection points: 4
#     Node 4, Type 1, BuildingBlock: NAWXER_clean_sbu_0, # of connection points: 4
#     Node 5, Type 1, BuildingBlock: NAWXER_clean_sbu_0, # of connection points: 4
#     Edge 6, Type (0, 1), BuildingBlock: ZUJKAS_clean_linker_0, # of connection points: 2
#     Edge 7, Type (0, 1), BuildingBlock: ZUJKAS_clean_linker_0, # of connection points: 2
#     Edge 8, Type (0, 1), BuildingBlock: ZUJKAS_clean_linker_0, # of connection points: 2
#     Edge 9, Type (0, 1), BuildingBlock: ZUJKAS_clean_linker_0, # of connection points: 2
#     Edge 10, Type (0, 1), BuildingBlock: ZUJKAS_clean_linker_0, # of connection points: 2
#     Edge 11, Type (0, 1), BuildingBlock: ZUJKAS_clean_linker_0, # of connection points: 2
#     Edge 12, Type (0, 1), BuildingBlock: ZUJKAS_clean_linker_0, # of connection points: 2
#     Edge 13, Type (0, 1), BuildingBlock: ZUJKAS_clean_linker_0, # of connection points: 2
#     Edge 14, Type (0, 1), BuildingBlock: ZUJKAS_clean_linker_0, # of connection points: 2
#     Edge 15, Type (0, 1), BuildingBlock: ZUJKAS_clean_linker_0, # of connection points: 2
#     Edge 16, Type (0, 1), BuildingBlock: ZUJKAS_clean_linker_0, # of connection points: 2
#     Edge 17, Type (0, 1), BuildingBlock: ZUJKAS_clean_linker_0, # of connection points: 2
# Relax obj value: 0.022
# Max RMSD: 0.120
# Mean RMSD: 0.065
data_MOF--net-pth--node1-QUQFOY_clean_sbu_1--node2-NAWXER_clean_sbu_0--edge1-ZUJKAS_clean_linker_0
_symmetry_space_group_name_H-M    P1
_symmetry_Int_Tables_number       1
_symmetry_cell_setting            triclinic
loop_
_symmetry_equiv_pos_as_xyz
'x, y, z'
_cell_length_a     28.758389
_cell_length_b     30.975224
_cell_length_c     76.66064
_cell_angle_alpha  89.99073
_cell_angle_beta   90.060243
_cell_angle_gamma 120.17438
loop_
_atom_site_label
_atom_site_type_symbol
_atom_site_fract_x
_atom_site_fract_y
_atom_site_fract_z
_atom_type_partial_charge
O0 O 0.05516 0.08184 0.09282 0.0
Cd1 Cd 0.985 0.03995 0.10672 0.0
Cd2 Cd 0.02384 0.97299 0.1068 0.0
O3 O 0.08742 0.03054 0.09367 0.0
O4 O 0.95982 0.08775 0.11206 0.0
O5 O 0.98407 0.05261 0.13249 0.0
C6 C 0.9671 0.08278 0.12835 0.0
C7 C 0.04332 0.93166 0.1286 0.0
C8 C 0.09174 0.07181 0.08904 0.0
C9 C 0.91561 0.93986 0.08992 0.0
O10 O 0.95248 0.93009 0.09356 0.0
O11 O 0.92032 0.98142 0.09431 0.0
O12 O 0.04805 0.92456 0.1123 0.0
O13 O 0.02825 0.96328 0.13265 0.0
O14 O 0.95342 0.03317 0.45444 0.0
Cd15 Cd 0.02344 0.05873 0.44026 0.0
Cd16 Cd 0.98953 0.95685 0.44011 0.0
O17 O 0.92494 0.95247 0.45338 0.0
O18 O 0.04628 0.12963 0.43503 0.0
O19 O 0.02393 0.07244 0.4145 0.0
C20 C 0.03957 0.11813 0.41872 0.0
C21 C 0.97141 0.8978 0.41824 0.0
C22 C 0.91861 0.98839 0.45825 0.0
C23 C 0.096 0.02706 0.45727 0.0
O24 O 0.06082 0.98227 0.45359 0.0
O25 O 0.08921 0.06297 0.45273 0.0
O26 O 0.96609 0.88602 0.43452 0.0
O27 O 0.98679 0.94358 0.41424 0.0
O28 O 0.92571 0.97302 0.75861 0.0
Cd29 Cd 0.97151 0.9543 0.77414 0.0
Cd30 Cd 0.03756 0.05538 0.77523 0.0
O31 O 0.9736 0.05456 0.7626 0.0
O32 O 0.92294 0.88361 0.78112 0.0
O33 O 0.95905 0.94589 0.80007 0.0
C34 C 0.92844 0.8987 0.79706 0.0
C35 C 0.07862 0.11265 0.79795 0.0
C36 C 0.93297 0.01655 0.75612 0.0
C37 C 0.0791 0.99411 0.75754 0.0
O38 O 0.08654 0.03736 0.76089 0.0
O39 O 0.0364 0.9554 0.76253 0.0
O40 O 0.08512 0.12661 0.78187 0.0
O41 O 0.04814 0.06564 0.80124 0.0
C42 C 0.96742 0.5488 0.29433 0.0
C43 C 0.96828 0.43435 0.25053 0.0
O44 O 0.01479 0.55831 0.29016 0.0
Zn45 Zn 0.05203 0.52981 0.27321 0.0
O46 O 0.92678 0.51185 0.28734 0.0
Zn47 Zn 0.96622 0.49068 0.2724 0.0
O48 O 1.00081 0.46198 0.29054 0.0
O49 O 0.08916 0.50898 0.28926 0.0
O50 O 0.92739 0.43424 0.25689 0.0
O51 O 0.01556 0.46772 0.25547 0.0
O52 O 0.09323 0.58652 0.25801 0.0
O53 O 1.00542 0.55198 0.25454 0.0
C54 C 0.04756 0.47176 0.29569 0.0
C55 C 0.05341 0.58555 0.25039 0.0
C56 C 0.5937 0.05785 0.62906 0.0
C57 C 0.47493 0.05497 0.58312 0.0
O58 O 0.55617 0.01352 0.62533 0.0
Zn59 Zn 0.49115 0.97804 0.60703 0.0
O60 O 0.59816 0.09497 0.62057 0.0
Zn61 Zn 0.53578 0.05748 0.60583 0.0
O62 O 0.47039 0.02605 0.62424 0.0
O63 O 0.43037 0.94386 0.62247 0.0
O64 O 0.51474 0.09308 0.58992 0.0
O65 O 0.4627 0.01121 0.58839 0.0
O66 O 0.51166 0.93915 0.59245 0.0
O67 O 0.56226 0.02035 0.58843 0.0
C68 C 0.43362 0.98268 0.62932 0.0
C69 C 0.55013 0.97565 0.58453 0.0
C70 C 0.47221 0.43222 0.9721 0.0
C71 C 0.58505 0.55195 0.92753 0.0
O72 O 0.45595 0.4623 0.96757 0.0
Zn73 Zn 0.47847 0.52312 0.94974 0.0
O74 O 0.51362 0.43547 0.96485 0.0
Zn75 Zn 0.52864 0.49077 0.94958 0.0
O76 O 0.5511 0.55087 0.96777 0.0
O77 O 0.49334 0.57772 0.96533 0.0
O78 O 0.59041 0.51713 0.93422 0.0
O79 O 0.54547 0.55734 0.93221 0.0
O80 O 0.41685 0.49747 0.93431 0.0
O81 O 0.46185 0.45742 0.9319 0.0
C82 C 0.53476 0.58074 0.97251 0.0
C83 C 0.4223 0.46304 0.92733 0.0
H84 H 0.92093 0.14014 0.12357 0.0
H85 H 0.91294 0.19502 0.14469 0.0
H86 H 0.98584 0.1489 0.18417 0.0
H87 H 0.99313 0.09293 0.16314 0.0
H88 H 0.89852 0.15756 0.19653 0.0
H89 H 0.04442 0.32632 0.1598 0.0
H90 H 0.98784 0.28227 0.1471 0.0
H91 H 0.03489 0.26518 0.15539 0.0
C92 C 0.93496 0.14133 0.13678 0.0
C93 C 0.95825 0.11258 0.14164 0.0
C94 C 0.9305 0.17287 0.14881 0.0
C95 C 0.94979 0.17678 0.16588 0.0
C96 C 0.97099 0.14661 0.17102 0.0
H97 H 0.04794 0.42152 0.23695 0.0
H98 H 0.03948 0.35719 0.21682 0.0
C99 C 0.97519 0.11472 0.15899 0.0
C100 C 0.94989 0.21391 0.17811 0.0
H101 H 1.00074 0.33908 0.18367 0.0
C102 C 0.9208 0.19727 0.19375 0.0
C103 C 0.97952 0.26571 0.17452 0.0
C104 C 0.01387 0.28611 0.15838 0.0
C105 C 0.92041 0.23113 0.20588 0.0
C106 C 0.94921 0.28286 0.2021 0.0
C107 C 0.97825 0.29937 0.18646 0.0
C108 C 0.95288 0.32099 0.21462 0.0
C109 C 0.89049 0.2114 0.22283 0.0
C110 C 0.90693 0.32234 0.21999 0.0
C111 C 0.91158 0.35921 0.23163 0.0
C112 C 0.96235 0.39557 0.23794 0.0
C113 C 0.00819 0.39424 0.23235 0.0
C114 C 1.00347 0.35741 0.22083 0.0
H115 H 0.88112 0.17255 0.22544 0.0
H116 H 0.91419 0.23542 0.23395 0.0
H117 H 0.85194 0.21139 0.22219 0.0
H118 H 0.86758 0.2952 0.21507 0.0
H119 H 0.87553 0.35931 0.23563 0.0
H120 H 0.89273 0.05597 0.47112 0.0
H121 H 0.81929 0.04009 0.49087 0.0
H122 H 0.76444 0.88247 0.48988 0.0
H123 H 0.83827 0.89793 0.47022 0.0
H124 H 0.70622 0.9777 0.48682 0.0
H125 H 0.78635 0.91812 0.54226 0.0
H126 H 0.82666 0.95019 0.52344 0.0
H127 H 0.77626 0.88533 0.522 0.0
C128 C 0.86498 0.01785 0.47501 0.0
C129 C 0.87171 0.97827 0.46918 0.0
C130 C 0.82297 1.00886 0.48629 0.0
C131 C 0.78698 0.96023 0.49202 0.0
C132 C 0.7924 0.92038 0.48583 0.0
H133 H 0.54147 0.8872 0.57355 0.0
H134 H 0.59252 0.87588 0.55005 0.0
C135 C 0.83447 0.92931 0.47453 0.0
C136 C 0.74465 0.95195 0.50478 0.0
H137 H 0.70803 0.92209 0.5474 0.0
C138 C 0.70621 0.965 0.50001 0.0
C139 C 0.74458 0.93506 0.52194 0.0
C140 C 0.7858 0.92163 0.52785 0.0
C141 C 0.66871 0.96312 0.51211 0.0
C142 C 0.67031 0.94856 0.52948 0.0
C143 C 0.70701 0.93321 0.53405 0.0
C144 C 0.63837 0.95433 0.54345 0.0
C145 C 0.62833 0.97769 0.5063 0.0
C146 C 0.64806 1.00217 0.54765 0.0
C147 C 0.61945 1.00878 0.56102 0.0
C148 C 0.5805 0.96763 0.57055 0.0
C149 C 0.57107 0.91961 0.56642 0.0
C150 C 0.6001 0.91307 0.55302 0.0
H151 H 0.6215 0.97313 0.49198 0.0
H152 H 0.58922 0.95503 0.51306 0.0
H153 H 0.64385 0.01757 0.50951 0.0
H154 H 0.67824 0.03461 0.54066 0.0
H155 H 0.62794 0.04632 0.56384 0.0
H156 H 0.87021 0.7972 0.79475 0.0
H157 H 0.81709 0.7377 0.81754 0.0
H158 H 0.86606 0.85865 0.85417 0.0
H159 H 0.92038 0.91869 0.83144 0.0
H160 H 0.86656 0.77503 0.86831 0.0
H161 H 0.67416 0.72073 0.83443 0.0
H162 H 0.72164 0.71368 0.82133 0.0
H163 H 0.73691 0.77492 0.82825 0.0
C164 C 0.86996 0.81125 0.80767 0.0
C165 C 0.89909 0.86276 0.81125 0.0
C166 C 0.83939 0.77715 0.82066 0.0
C167 C 0.8368 0.79384 0.83744 0.0
C168 C 0.86731 0.84505 0.84126 0.0
H169 H 0.58848 0.63426 0.9135 0.0
H170 H 0.65213 0.69246 0.8923 0.0
C171 C 0.89822 0.87928 0.82826 0.0
C172 C 0.80094 0.75792 0.8508 0.0
H173 H 0.66938 0.67293 0.85917 0.0
C174 C 0.82343 0.7527 0.86636 0.0
C175 C 0.74463 0.72929 0.84828 0.0
C176 C 0.71773 0.73515 0.83225 0.0
C177 C 0.79106 0.71922 0.87943 0.0
C178 C 0.7349 0.68972 0.8767 0.0
C179 C 0.7125 0.69521 0.86117 0.0
C180 C 0.69794 0.65471 0.89008 0.0
C181 C 0.81704 0.71662 0.8962 0.0
C182 C 0.70235 0.61386 0.89586 0.0
C183 C 0.66593 0.58037 0.90811 0.0
C184 C 0.6242 0.58698 0.91464 0.0
C185 C 0.61998 0.62788 0.90874 0.0
C186 C 0.6564 0.6613 0.89661 0.0
H187 H 0.85775 0.7498 0.89793 0.0
H188 H 0.79194 0.71375 0.90763 0.0
H189 H 0.82127 0.68294 0.89599 0.0
H190 H 0.73344 0.60747 0.89073 0.0
H191 H 0.67015 0.54915 0.91233 0.0
H192 H 0.05735 0.85203 0.12347 0.0
H193 H 0.06757 0.80053 0.14545 0.0
H194 H 0.06365 0.89496 0.18609 0.0
H195 H 0.05133 0.94585 0.16409 0.0
H196 H 0.14171 0.81825 0.16963 0.0
H197 H 0.94609 0.7603 0.20184 0.0
H198 H 0.96488 0.79377 0.18145 0.0
H199 H 0.99126 0.82655 0.20169 0.0
C200 C 0.05874 0.862 0.13709 0.0
C201 C 0.05298 0.90276 0.14205 0.0
C202 C 0.06474 0.83253 0.14964 0.0
C203 C 0.06546 0.84328 0.16745 0.0
C204 C 0.06182 0.88515 0.17246 0.0
H205 H 0.14151 0.67889 0.2458 0.0
H206 H 0.14897 0.74469 0.22621 0.0
C207 C 0.05509 0.91437 0.15987 0.0
C208 C 0.06856 0.80955 0.1806 0.0
H209 H 1.00008 0.73116 0.2143 0.0
C210 C 0.11086 0.79932 0.17946 0.0
C211 C 0.02794 0.78442 0.19328 0.0
C212 C 0.9797 0.79135 0.19459 0.0
C213 C 0.11311 0.76397 0.19039 0.0
C214 C 0.07271 0.73918 0.20315 0.0
C215 C 0.03114 0.75031 0.20455 0.0
C216 C 0.0704 0.69923 0.21449 0.0
C217 C 0.15742 0.75206 0.18764 0.0
C218 C 0.02368 0.652 0.21458 0.0
C219 C 0.019 0.61484 0.22593 0.0
C220 C 0.06116 0.62387 0.23738 0.0
C221 C 0.10861 0.67069 0.23699 0.0
C222 C 0.11298 0.70826 0.22575 0.0
H223 H 0.17633 0.76433 0.17459 0.0
H224 H 0.18915 0.77188 0.19763 0.0
H225 H 0.14199 0.71138 0.18897 0.0
H226 H 0.99036 0.64405 0.20599 0.0
H227 H 0.98199 0.57911 0.22587 0.0
H228 H 0.17718 0.11751 0.46892 0.0
H229 H 0.25258 0.13309 0.48788 0.0
H230 H 0.19778 0.97545 0.48861 0.0
H231 H 0.12285 0.95951 0.46953 0.0
H232 H 0.24484 0.09567 0.52114 0.0
H233 H 0.35753 0.03638 0.47838 0.0
H234 H 0.30693 0.04929 0.47012 0.0
H235 H 0.28764 0.98992 0.48001 0.0
C236 C 0.18156 0.0862 0.47291 0.0
C237 C 0.14393 0.03722 0.46768 0.0
C238 C 0.22466 0.09521 0.48376 0.0
C239 C 0.23121 0.05554 0.48945 0.0
C240 C 0.1942 1.00676 0.48405 0.0
H241 H 0.39232 0.9802 0.56494 0.0
H242 H 0.33862 0.9875 0.54177 0.0
C243 C 0.15113 0.99769 0.47323 0.0
C244 C 0.27428 0.06432 0.50202 0.0
H245 H 0.37642 0.04047 0.50909 0.0
C246 C 0.2743 0.08449 0.51842 0.0
C247 C 0.31273 0.04984 0.4984 0.0
C248 C 0.31666 0.03063 0.4807 0.0
C249 C 0.30981 0.08791 0.53165 0.0
C250 C 0.34653 0.07125 0.52827 0.0
C251 C 0.34802 0.05303 0.51164 0.0
C252 C 0.38037 0.06821 0.54222 0.0
C253 C 0.306 0.10689 0.54941 0.0
C254 C 0.42195 0.11134 0.55008 0.0
C255 C 0.45296 0.10736 0.56341 0.0
C256 C 0.44275 0.06014 0.56904 0.0
C257 C 0.40123 0.01717 0.56099 0.0
C258 C 0.37053 0.0212 0.5477 0.0
H259 H 0.27006 0.11123 0.55062 0.0
H260 H 0.30435 0.08107 0.55976 0.0
H261 H 0.34235 0.14383 0.55174 0.0
H262 H 0.4305 0.14799 0.54586 0.0
H263 H 0.48476 0.14116 0.56929 0.0
H264 H 0.08746 0.09526 0.83256 0.0
H265 H 0.14017 0.15722 0.85498 0.0
H266 H 0.18536 0.27549 0.81745 0.0
H267 H 0.13402 0.21399 0.79496 0.0
H268 H 0.2711 0.28472 0.83449 0.0
H269 H 0.11292 0.25442 0.88223 0.0
H270 H 0.1139 0.19838 0.87705 0.0
H271 H 0.09751 0.22942 0.86037 0.0
C272 C 0.10811 0.13451 0.82916 0.0
C273 C 0.10669 0.1497 0.81198 0.0
C274 C 0.13793 0.16991 0.84201 0.0
C275 C 0.16618 0.22109 0.83796 0.0
C276 C 0.16378 0.23626 0.8209 0.0
H277 H 0.33568 0.46521 0.91304 0.0
H278 H 0.27257 0.40821 0.89105 0.0
C279 C 0.1344 0.20099 0.80805 0.0
C280 C 0.20156 0.2587 0.85104 0.0
H281 H 0.20404 0.30397 0.89189 0.0
C282 C 0.25629 0.28914 0.84698 0.0
C283 C 0.18215 0.26497 0.86724 0.0
C284 C 0.12331 0.23542 0.87195 0.0
C285 C 0.29235 0.32477 0.85883 0.0
C286 C 0.27346 0.32939 0.87535 0.0
C287 C 0.2185 0.29999 0.87927 0.0
C288 C 0.31067 0.36341 0.8889 0.0
C289 C 0.35035 0.35737 0.85346 0.0
C290 C 0.35235 0.35657 0.89516 0.0
C291 C 0.38845 0.38904 0.90758 0.0
C292 C 0.38338 0.42887 0.91418 0.0
C293 C 0.34087 0.43509 0.90816 0.0
C294 C 0.30473 0.40252 0.89564 0.0
H295 H 0.35481 0.35957 0.83904 0.0
H296 H 0.36739 0.3958 0.85872 0.0
H297 H 0.37434 0.34121 0.85866 0.0
H298 H 0.35696 0.32599 0.89042 0.0
H299 H 0.42032 0.38275 0.91203 0.0
H300 H 0.9079 0.0907 0.75751 0.0
H301 H 0.84713 0.10223 0.73814 0.0
H302 H 0.81735 0.97166 0.70889 0.0
H303 H 0.87503 0.95829 0.72884 0.0
H304 H 0.85065 0.12214 0.70569 0.0
H305 H 0.66762 0.93908 0.71524 0.0
H306 H 0.72642 0.95962 0.72871 0.0
H307 H 0.7214 0.93043 0.70787 0.0
C308 C 0.88765 0.06411 0.74708 0.0
C309 C 0.89548 0.0232 0.74481 0.0
C310 C 0.8531 0.07078 0.73599 0.0
C311 C 0.82651 0.03716 0.72225 0.0
C312 C 0.83553 0.99701 0.71976 0.0
H313 H 0.70246 0.09895 0.62815 0.0
H314 H 0.75987 0.09815 0.65168 0.0
C315 C 0.86885 0.98957 0.73111 0.0
C316 C 0.79102 0.04497 0.71011 0.0
H317 H 0.66982 0.9838 0.68936 0.0
C318 C 0.81075 0.09207 0.70231 0.0
C319 C 0.73844 1.00622 0.70593 0.0
C320 C 0.71209 0.95626 0.71506 0.0
C321 C 0.78011 0.10099 0.69008 0.0
C322 C 0.72925 0.06108 0.6849 0.0
C323 C 0.70902 0.01442 0.69308 0.0
C324 C 0.69615 0.06613 0.67097 0.0
C325 C 0.80239 0.15333 0.68316 0.0
C326 C 0.64097 0.04751 0.67375 0.0
C327 C 0.60803 0.04622 0.66014 0.0
C328 C 0.62986 0.06481 0.64364 0.0
C329 C 0.68519 0.0853 0.64092 0.0
C330 C 0.71797 0.08517 0.65441 0.0
H331 H 0.82999 0.1815 0.69275 0.0
H332 H 0.82596 0.15783 0.67116 0.0
H333 H 0.76987 0.16144 0.67999 0.0
H334 H 0.62299 0.03262 0.68635 0.0
H335 H 0.56527 0.03001 0.66243 0.0
H336 H 0.83135 0.94964 0.07799 0.0
H337 H 0.75448 0.88974 0.06048 0.0
H338 H 0.81519 0.7877 0.0616 0.0
H339 H 0.89158 0.84677 0.07918 0.0
H340 H 0.75846 0.85257 0.02774 0.0
H341 H 0.65782 0.69847 0.07538 0.0
H342 H 0.70773 0.76113 0.08173 0.0
H343 H 0.72802 0.71919 0.073 0.0
C344 C 0.82804 0.91422 0.07467 0.0
C345 C 0.86762 0.90299 0.08003 0.0
C346 C 0.7841 0.88008 0.06467 0.0
C347 C 0.7787 0.83399 0.05999 0.0
C348 C 0.81792 0.82258 0.0654 0.0
H349 H 0.61917 0.59049 0.99171 0.0
H350 H 0.67158 0.65374 0.0135 0.0
C351 C 0.86181 0.85661 0.07536 0.0
C352 C 0.7341 0.79882 0.04855 0.0
H353 H 0.6349 0.67683 0.0452 0.0
C354 C 0.73067 0.81439 0.03163 0.0
C355 C 0.69783 0.74915 0.05372 0.0
C356 C 0.69759 0.73109 0.07201 0.0
C357 C 0.6941 0.78067 0.01938 0.0
C358 C 0.65976 0.73037 0.02431 0.0
C359 C 0.66145 0.71543 0.04146 0.0
C360 C 0.6259 0.6916 0.01141 0.0
C361 C 0.6945 0.79832 1.00101 0.0
C362 C 0.58234 0.69164 1.00314 0.0
C363 C 0.55203 0.65531 0.99059 0.0
C364 C 0.56497 0.61851 0.98615 0.0
C365 C 0.60816 0.61835 0.99472 0.0
C366 C 0.63815 0.65441 0.00724 0.0
H367 H 0.72885 0.83654 0.99867 0.0
H368 H 0.69656 0.77243 0.99144 0.0
H369 H 0.65665 0.79868 0.99857 0.0
H370 H 0.57191 0.71976 0.00636 0.0
H371 H 0.51892 0.65635 0.98427 0.0
H372 H 0.92516 0.79728 0.42271 0.0
H373 H 0.91556 0.73514 0.40123 0.0
H374 H 0.98708 0.84994 0.36196 0.0
H375 H 0.9958 0.9125 0.38336 0.0
H376 H 0.89978 0.7609 0.34948 0.0
H377 H 0.04495 0.72521 0.3853 0.0
H378 H 0.98879 0.71622 0.39824 0.0
H379 H 0.036 0.77751 0.39022 0.0
C380 C 0.93857 0.80937 0.40947 0.0
C381 C 0.96185 0.85995 0.40478 0.0
C382 C 0.93319 0.77378 0.39723 0.0
C383 C 0.95164 0.78808 0.38011 0.0
C384 C 0.97286 0.83818 0.37515 0.0
H385 H 0.04708 0.63543 0.3082 0.0
H386 H 0.03886 0.69158 0.32847 0.0
C387 C 0.97789 0.87387 0.38739 0.0
C388 C 0.95091 0.75114 0.36763 0.0
H389 H 1.00002 0.67235 0.36137 0.0
C390 C 0.92164 0.74146 0.35204 0.0
C391 C 0.97998 0.72628 0.37095 0.0
C392 C 0.01464 0.73708 0.387 0.0
C393 C 0.92058 0.70743 0.33967 0.0
C394 C 0.94883 0.6819 0.34317 0.0
C395 C 0.97794 0.69157 0.35879 0.0
C396 C 0.95216 0.6476 0.33038 0.0
C397 C 0.89061 0.70024 0.32277 0.0
C398 C 0.90603 0.60387 0.32471 0.0
C399 C 0.91055 0.57149 0.31295 0.0
C400 C 0.96134 0.58214 0.30684 0.0
C401 C 0.0073 0.62585 0.31266 0.0
C402 C 1.00272 0.65814 0.32426 0.0
H403 H 0.88172 0.73076 0.32041 0.0
H404 H 0.91403 0.69848 0.31156 0.0
H405 H 0.85181 0.66449 0.3233 0.0
H406 H 0.86667 0.59447 0.32953 0.0
H407 H 0.87442 0.53805 0.30876 0.0
H408 H 0.17257 0.0682 0.74322 0.0
H409 H 0.23268 0.05862 0.7231 0.0
H410 H 0.13553 0.89846 0.72729 0.0
H411 H 0.07478 0.90749 0.74728 0.0
H412 H 0.29226 1.00812 0.72691 0.0
H413 H 0.13777 0.92551 0.67448 0.0
H414 H 0.13043 0.95722 0.69311 0.0
H415 H 0.11862 0.89476 0.6953 0.0
C416 C 0.16413 0.03091 0.73999 0.0
C417 C 0.11852 0.98861 0.74675 0.0
C418 C 0.19856 0.02553 0.72849 0.0
C419 C 0.18794 0.97785 0.7235 0.0
C420 C 0.14378 0.93557 0.73074 0.0
H421 H 0.34989 0.89767 0.64359 0.0
H422 H 0.29036 0.89252 0.66741 0.0
C423 C 0.10929 0.94087 0.74224 0.0
C424 C 0.2224 0.97262 0.71033 0.0
H425 H 0.22235 0.93399 0.66861 0.0
C426 C 0.27698 0.99171 0.71419 0.0
C427 C 0.20218 0.95096 0.69379 0.0
C428 C 0.14416 0.93124 0.68879 0.0
C429 C 0.31212 0.99019 0.70185 0.0
C430 C 0.29224 0.96985 0.68514 0.0
C431 C 0.23737 0.94949 0.68145 0.0
C432 C 0.32841 0.97249 0.67094 0.0
C433 C 0.37026 0.01043 0.70679 0.0
C434 C 0.3687 0.01911 0.66486 0.0
C435 C 0.4025 0.0222 0.6513 0.0
C436 C 0.39654 0.97866 0.64343 0.0
C437 C 0.35562 0.93189 0.64939 0.0
C438 C 0.32165 0.92886 0.663 0.0
H439 H 0.37544 0.01078 0.72116 0.0
H440 H 0.38642 0.98805 0.70078 0.0
H441 H 0.39448 0.04943 0.70205 0.0
H442 H 0.37377 0.05324 0.67055 0.0
H443 H 0.43339 0.05886 0.64701 0.0
H444 H 0.1756 0.06167 0.07696 0.0
H445 H 0.25228 0.12139 0.05939 0.0
H446 H 0.19137 0.22328 0.06029 0.0
H447 H 0.11516 0.1644 0.07792 0.0
H448 H 0.24859 0.15891 0.02655 0.0
H449 H 0.34867 0.31229 0.07454 0.0
H450 H 0.29878 0.2495 0.08074 0.0
H451 H 0.27846 0.29149 0.07205 0.0
C452 C 0.17877 0.09699 0.07355 0.0
C453 C 0.13924 0.10827 0.07889 0.0
C454 C 0.2226 0.13102 0.06351 0.0
C455 C 0.22794 0.17706 0.05879 0.0
C456 C 0.18867 0.18843 0.06413 0.0
H457 H 0.38756 0.42166 0.99126 0.0
H458 H 0.3352 0.35785 0.01285 0.0
C459 C 0.14488 0.15451 0.07411 0.0
C460 C 0.27271 0.21234 0.04746 0.0
H461 H 0.37194 0.33438 0.04443 0.0
C462 C 0.27634 0.19703 0.03053 0.0
C463 C 0.30895 0.26191 0.05275 0.0
C464 C 0.30896 0.27968 0.07108 0.0
C465 C 0.31303 0.23096 0.01837 0.0
C466 C 0.34729 0.28119 0.02341 0.0
C467 C 0.34545 0.29583 0.0406 0.0
C468 C 0.38109 0.32022 0.01061 0.0
C469 C 0.31284 0.21361 0.99997 0.0
C470 C 0.42474 0.3205 1.00231 0.0
C471 C 0.45502 0.35716 0.98987 0.0
C472 C 0.44197 0.39399 0.98558 0.0
C473 C 0.39866 0.3938 0.99417 0.0
C474 C 0.3687 0.35741 0.00657 0.0
H475 H 0.27859 0.17538 0.99754 0.0
H476 H 0.31073 0.23959 0.99044 0.0
H477 H 0.35077 0.21343 0.99755 0.0
H478 H 0.43528 0.29239 0.00544 0.0
H479 H 0.48823 0.35639 0.98353 0.0
H480 H 0.08444 0.21839 0.42363 0.0
H481 H 0.09301 0.28088 0.40249 0.0
H482 H 0.02185 0.16714 0.36281 0.0
H483 H 0.01411 0.10422 0.38388 0.0
H484 H 0.109 0.25624 0.35065 0.0
H485 H 0.96404 0.29165 0.3866 0.0
H486 H 0.02004 0.30021 0.39958 0.0
H487 H 0.97281 0.23915 0.39136 0.0
C488 C 0.07082 0.20659 0.41039 0.0
C489 C 0.04803 0.1562 0.40548 0.0
C490 C 0.07559 0.24239 0.39834 0.0
C491 C 0.05704 0.22849 0.38119 0.0
C492 C 0.03612 0.17858 0.37603 0.0
H493 H 0.96598 0.386 0.30944 0.0
H494 H 0.97205 0.32875 0.3298 0.0
C495 C 0.03166 0.14268 0.38808 0.0
C496 C 0.0579 0.26577 0.36885 0.0
H497 H 0.00973 0.34546 0.36293 0.0
C498 C 0.08732 0.27579 0.3533 0.0
C499 C 0.02906 0.29078 0.37226 0.0
C500 C 0.99427 0.27965 0.38826 0.0
C501 C 0.08887 0.31039 0.34109 0.0
C502 C 0.06099 0.33619 0.34472 0.0
C503 C 0.03156 0.32605 0.36026 0.0
C504 C 0.05873 0.37152 0.33213 0.0
C505 C 0.11903 0.31794 0.32423 0.0
C506 C 0.10552 0.41504 0.32676 0.0
C507 C 0.10225 0.44803 0.31498 0.0
C508 C 0.05204 0.43821 0.30852 0.0
C509 C 1.00534 0.39489 0.31414 0.0
C510 C 0.00869 0.36199 0.3258 0.0
H511 H 0.12724 0.28709 0.32168 0.0
H512 H 0.09611 0.32068 0.31303 0.0
H513 H 0.15818 0.3533 0.32497 0.0
H514 H 0.14448 0.42369 0.33178 0.0
H515 H 0.13893 0.48115 0.31096 0.0
loop_
_geom_bond_atom_site_label_1
_geom_bond_atom_site_label_2
_geom_bond_distance
_geom_bond_site_symmetry_2
_ccdc_geom_bond_type
O0 Cd1 2.223 1_455 S
O0 C8 1.315 . S
Cd1 O0 2.223 1_655 S
Cd1 O4 2.297 . S
Cd1 O5 2.439 . S
Cd1 O11 2.240 1_545 S
Cd2 O3 2.240 1_565 S
Cd2 O10 2.223 1_455 S
Cd2 O12 2.297 . S
Cd2 O13 2.439 . S
O3 Cd2 2.240 1_545 S
O3 C8 1.279 . S
O4 Cd1 2.297 . S
O4 C6 1.247 . S
O5 Cd1 2.439 . S
O5 C6 1.208 . S
C6 O4 1.247 . S
C6 O5 1.208 . S
C7 O12 1.247 . S
C7 O13 1.208 . S
C8 O0 1.315 . S
C8 O3 1.279 . S
C9 O10 1.315 . S
C9 O11 1.279 . S
O10 Cd2 2.223 1_655 S
O10 C9 1.315 . S
O11 Cd1 2.240 1_565 S
O11 C9 1.279 . S
O12 Cd2 2.297 . S
O12 C7 1.247 . S
O13 Cd2 2.439 . S
O13 C7 1.208 . S
O14 Cd15 2.223 1_655 S
O14 C22 1.315 . S
Cd15 O14 2.223 1_455 S
Cd15 O18 2.297 . S
Cd15 O19 2.439 . S
Cd15 O25 2.240 . S
Cd16 O17 2.240 . S
Cd16 O24 2.223 1_655 S
Cd16 O26 2.297 . S
Cd16 O27 2.439 . S
O17 Cd16 2.240 . S
O17 C22 1.279 1_565 S
O18 Cd15 2.297 . S
O18 C20 1.247 . S
O19 Cd15 2.439 . S
O19 C20 1.208 . S
C20 O18 1.247 . S
C20 O19 1.208 . S
C21 O26 1.247 . S
C21 O27 1.208 . S
C22 O14 1.315 . S
C22 O17 1.279 1_545 S
C23 O24 1.315 . S
C23 O25 1.279 1_565 S
O24 Cd16 2.223 1_455 S
O24 C23 1.315 . S
O25 Cd15 2.240 . S
O25 C23 1.279 1_545 S
O26 Cd16 2.297 . S
O26 C21 1.247 . S
O27 Cd16 2.439 . S
O27 C21 1.208 . S
O28 Cd29 2.223 . S
O28 C36 1.315 . S
Cd29 O28 2.223 . S
Cd29 O32 2.297 . S
Cd29 O33 2.439 . S
Cd29 O39 2.240 1_655 S
Cd30 O31 2.240 1_455 S
Cd30 O38 2.223 . S
Cd30 O40 2.297 . S
Cd30 O41 2.439 . S
O31 Cd30 2.240 1_655 S
O31 C36 1.279 1_545 S
O32 Cd29 2.297 . S
O32 C34 1.247 . S
O33 Cd29 2.439 . S
O33 C34 1.208 . S
C34 O32 1.247 . S
C34 O33 1.208 . S
C35 O40 1.247 . S
C35 O41 1.208 . S
C36 O28 1.315 . S
C36 O31 1.279 1_565 S
C37 O38 1.315 . S
C37 O39 1.279 1_545 S
O38 Cd30 2.223 . S
O38 C37 1.315 . S
O39 Cd29 2.240 1_455 S
O39 C37 1.279 1_565 S
O40 Cd30 2.297 . S
O40 C35 1.247 . S
O41 Cd30 2.439 . S
O41 C35 1.208 . S
C42 O44 1.252 . S
C42 O46 1.255 1_455 S
C43 O50 1.247 . S
C43 O51 1.258 1_655 S
O44 C42 1.252 . S
O44 Zn45 2.028 . S
Zn45 O44 2.028 . S
Zn45 O49 2.035 . S
Zn45 O51 2.035 . S
Zn45 O52 2.028 . S
O46 C42 1.255 1_655 S
O46 Zn47 2.035 . S
Zn47 O46 2.035 . S
Zn47 O48 2.028 . S
Zn47 O50 2.028 . S
Zn47 O53 2.035 . S
O48 Zn47 2.028 . S
O48 C54 1.247 . S
O49 Zn45 2.035 . S
O49 C54 1.258 1_455 S
O50 C43 1.247 . S
O50 Zn47 2.028 . S
O51 C43 1.258 1_455 S
O51 Zn45 2.035 . S
O52 Zn45 2.028 . S
O52 C55 1.252 . S
O53 Zn47 2.035 . S
O53 C55 1.255 1_655 S
C54 O48 1.247 . S
C54 O49 1.258 1_655 S
C55 O52 1.252 . S
C55 O53 1.255 1_455 S
C56 O58 1.246 . S
C56 O60 1.259 1_565 S
C57 O64 1.250 . S
C57 O65 1.253 1_545 S
O58 C56 1.246 . S
O58 Zn59 2.028 . S
Zn59 O58 2.028 . S
Zn59 O63 2.035 . S
Zn59 O65 2.035 . S
Zn59 O66 2.028 . S
O60 C56 1.259 1_545 S
O60 Zn61 2.035 . S
Zn61 O60 2.035 . S
Zn61 O62 2.028 . S
Zn61 O64 2.028 . S
Zn61 O67 2.035 . S
O62 Zn61 2.028 . S
O62 C68 1.250 . S
O63 Zn59 2.035 . S
O63 C68 1.253 1_565 S
O64 C57 1.250 . S
O64 Zn61 2.028 . S
O65 C57 1.253 1_565 S
O65 Zn59 2.035 . S
O66 Zn59 2.028 . S
O66 C69 1.246 . S
O67 Zn61 2.035 . S
O67 C69 1.259 1_545 S
C68 O62 1.250 . S
C68 O63 1.253 1_545 S
C69 O66 1.246 . S
C69 O67 1.259 1_565 S
C70 O72 1.247 . S
C70 O74 1.258 . S
C71 O78 1.247 . S
C71 O79 1.258 . S
O72 C70 1.247 . S
O72 Zn73 2.028 . S
Zn73 O72 2.028 . S
Zn73 O77 2.035 . S
Zn73 O79 2.035 . S
Zn73 O80 2.028 . S
O74 C70 1.258 . S
O74 Zn75 2.035 . S
Zn75 O74 2.035 . S
Zn75 O76 2.028 . S
Zn75 O78 2.028 . S
Zn75 O81 2.035 . S
O76 Zn75 2.028 . S
O76 C82 1.247 . S
O77 Zn73 2.035 . S
O77 C82 1.258 . S
O78 C71 1.247 . S
O78 Zn75 2.028 . S
O79 C71 1.258 . S
O79 Zn73 2.035 . S
O80 Zn73 2.028 . S
O80 C83 1.247 . S
O81 Zn75 2.035 . S
O81 C83 1.258 . S
C82 O76 1.247 . S
C82 O77 1.258 . S
C83 O80 1.247 . S
C83 O81 1.258 . S
H84 C92 0.929 . S
H85 C94 0.930 . S
H86 C96 0.930 . S
H87 C99 0.929 . S
H88 C102 0.930 . S
H89 C104 0.960 . S
H90 C104 0.960 . S
H91 C104 0.960 . S
C92 H84 0.929 . S
C92 C93 1.377 1_655 S
C92 C94 1.384 . S
C93 C92 1.377 1_455 S
C93 C99 1.390 . S
C94 H85 0.930 . S
C94 C92 1.384 . S
C94 C95 1.373 . S
C95 C94 1.373 . S
C95 C96 1.397 1_655 S
C95 C100 1.492 . S
C96 H86 0.930 . S
C96 C95 1.397 1_455 S
C96 C99 1.386 . S
H97 C113 0.930 . S
H98 C114 0.931 . S
C99 H87 0.929 . S
C99 C93 1.390 . S
C99 C96 1.386 . S
C100 C95 1.492 . S
C100 C102 1.395 . S
C100 C103 1.403 1_655 S
H101 C107 0.930 . S
C102 H88 0.930 . S
C102 C100 1.395 . S
C102 C105 1.403 . S
C103 C100 1.403 1_455 S
C103 C104 1.524 . S
C103 C107 1.400 . S
C104 H89 0.960 . S
C104 H90 0.960 . S
C104 H91 0.960 . S
C104 C103 1.524 . S
C105 C102 1.403 . S
C105 C106 1.392 . S
C105 C109 1.495 . S
C106 C105 1.392 . S
C106 C107 1.385 1_655 S
C106 C108 1.478 . S
C107 H101 0.930 . S
C107 C103 1.400 . S
C107 C106 1.385 1_455 S
C108 C106 1.478 . S
C108 C110 1.381 . S
C108 C114 1.383 1_655 S
C109 C105 1.495 . S
C109 H115 0.959 . S
C109 H116 0.961 . S
C109 H117 0.960 . S
C110 C108 1.381 . S
C110 C111 1.394 . S
C110 H118 0.930 . S
C111 C110 1.394 . S
C111 C112 1.383 . S
C111 H119 0.929 . S
C112 C111 1.383 . S
C112 C113 1.377 1_655 S
C113 H97 0.930 . S
C113 C112 1.377 1_455 S
C113 C114 1.379 . S
C114 H98 0.931 . S
C114 C108 1.383 1_455 S
C114 C113 1.379 . S
H115 C109 0.959 . S
H116 C109 0.961 . S
H117 C109 0.960 . S
H118 C110 0.930 . S
H119 C111 0.929 . S
H120 C128 0.929 . S
H121 C130 0.930 . S
H122 C132 0.930 . S
H123 C135 0.929 . S
H124 C138 0.930 . S
H125 C140 0.960 . S
H126 C140 0.960 . S
H127 C140 0.960 1_565 S
C128 H120 0.929 . S
C128 C129 1.377 . S
C128 C130 1.384 . S
C129 C128 1.377 . S
C129 C135 1.390 1_545 S
C130 H121 0.930 . S
C130 C128 1.384 . S
C130 C131 1.372 . S
C131 C130 1.372 . S
C131 C132 1.400 1_545 S
C131 C136 1.490 . S
C132 H122 0.930 . S
C132 C131 1.400 1_565 S
C132 C135 1.386 . S
H133 C149 0.930 . S
H134 C150 0.931 . S
C135 H123 0.929 . S
C135 C129 1.390 1_565 S
C135 C132 1.386 . S
C136 C131 1.490 . S
C136 C138 1.398 1_545 S
C136 C139 1.403 . S
H137 C143 0.930 . S
C138 H124 0.930 . S
C138 C136 1.398 1_565 S
C138 C141 1.400 . S
C139 C136 1.403 . S
C139 C140 1.524 . S
C139 C143 1.400 . S
C140 H125 0.960 . S
C140 H126 0.960 . S
C140 H127 0.960 1_545 S
C140 C139 1.524 . S
C141 C138 1.400 . S
C141 C142 1.392 1_565 S
C141 C145 1.495 . S
C142 C141 1.392 1_545 S
C142 C143 1.385 . S
C142 C144 1.477 . S
C143 H137 0.930 . S
C143 C139 1.400 . S
C143 C142 1.385 . S
C144 C142 1.477 . S
C144 C146 1.383 . S
C144 C150 1.382 1_545 S
C145 C141 1.495 . S
C145 H151 0.959 . S
C145 H152 0.961 . S
C145 H153 0.960 1_565 S
C146 C144 1.383 . S
C146 C147 1.394 . S
C146 H154 0.930 . S
C147 C146 1.394 . S
C147 C148 1.377 1_545 S
C147 H155 0.929 . S
C148 C147 1.377 1_565 S
C148 C149 1.387 . S
C149 H133 0.930 . S
C149 C148 1.387 . S
C149 C150 1.379 . S
C150 H134 0.931 . S
C150 C144 1.382 1_565 S
C150 C149 1.379 . S
H151 C145 0.959 . S
H152 C145 0.961 . S
H153 C145 0.960 1_545 S
H154 C146 0.930 . S
H155 C147 0.929 . S
H156 C164 0.929 . S
H157 C166 0.930 . S
H158 C168 0.930 . S
H159 C171 0.929 . S
H160 C174 0.930 . S
H161 C176 0.960 . S
H162 C176 0.960 . S
H163 C176 0.960 . S
C164 H156 0.929 . S
C164 C165 1.377 . S
C164 C166 1.384 . S
C165 C164 1.377 . S
C165 C171 1.390 . S
C166 H157 0.930 . S
C166 C164 1.384 . S
C166 C167 1.372 . S
C167 C166 1.372 . S
C167 C168 1.400 . S
C167 C172 1.490 . S
C168 H158 0.930 . S
C168 C167 1.400 . S
C168 C171 1.386 . S
H169 C185 0.930 . S
H170 C186 0.931 . S
C171 H159 0.929 . S
C171 C165 1.390 . S
C171 C168 1.386 . S
C172 C167 1.490 . S
C172 C174 1.395 . S
C172 C175 1.403 . S
H173 C179 0.930 . S
C174 H160 0.930 . S
C174 C172 1.395 . S
C174 C177 1.403 . S
C175 C172 1.403 . S
C175 C176 1.524 . S
C175 C179 1.400 . S
C176 H161 0.960 . S
C176 H162 0.960 . S
C176 H163 0.960 . S
C176 C175 1.524 . S
C177 C174 1.403 . S
C177 C178 1.392 . S
C177 C181 1.495 . S
C178 C177 1.392 . S
C178 C179 1.385 . S
C178 C180 1.478 . S
C179 H173 0.930 . S
C179 C175 1.400 . S
C179 C178 1.385 . S
C180 C178 1.478 . S
C180 C182 1.381 . S
C180 C186 1.383 . S
C181 C177 1.495 . S
C181 H187 0.959 . S
C181 H188 0.961 . S
C181 H189 0.960 . S
C182 C180 1.381 . S
C182 C183 1.394 . S
C182 H190 0.930 . S
C183 C182 1.394 . S
C183 C184 1.383 . S
C183 H191 0.929 . S
C184 C183 1.383 . S
C184 C185 1.377 . S
C185 H169 0.930 . S
C185 C184 1.377 . S
C185 C186 1.379 . S
C186 H170 0.931 . S
C186 C180 1.383 . S
C186 C185 1.379 . S
H187 C181 0.959 . S
H188 C181 0.961 . S
H189 C181 0.960 . S
H190 C182 0.930 . S
H191 C183 0.929 . S
H192 C200 0.929 . S
H193 C202 0.930 . S
H194 C204 0.930 . S
H195 C207 0.929 . S
H196 C210 0.930 . S
H197 C212 0.960 . S
H198 C212 0.960 . S
H199 C212 0.960 . S
C200 H192 0.929 . S
C200 C201 1.377 . S
C200 C202 1.384 . S
C201 C200 1.377 . S
C201 C207 1.390 1_655 S
C202 H193 0.930 . S
C202 C200 1.384 . S
C202 C203 1.372 . S
C203 C202 1.372 . S
C203 C204 1.400 1_655 S
C203 C208 1.490 . S
C204 H194 0.930 . S
C204 C203 1.400 1_455 S
C204 C207 1.386 . S
H205 C221 0.930 . S
H206 C222 0.931 . S
C207 H195 0.929 . S
C207 C201 1.390 1_455 S
C207 C204 1.386 . S
C208 C203 1.490 . S
C208 C210 1.395 1_655 S
C208 C211 1.403 . S
H209 C215 0.930 . S
C210 H196 0.930 . S
C210 C208 1.395 1_455 S
C210 C213 1.403 . S
C211 C208 1.403 . S
C211 C212 1.524 . S
C211 C215 1.400 . S
C212 H197 0.960 . S
C212 H198 0.960 . S
C212 H199 0.960 . S
C212 C211 1.524 . S
C213 C210 1.403 . S
C213 C214 1.392 . S
C213 C217 1.495 . S
C214 C213 1.392 . S
C214 C215 1.385 1_455 S
C214 C216 1.478 . S
C215 H209 0.930 . S
C215 C211 1.400 . S
C215 C214 1.385 1_655 S
C216 C214 1.478 . S
C216 C218 1.381 1_455 S
C216 C222 1.383 . S
C217 C213 1.495 . S
C217 H223 0.959 . S
C217 H224 0.961 . S
C217 H225 0.960 . S
C218 C216 1.381 1_655 S
C218 C219 1.394 . S
C218 H226 0.930 . S
C219 C218 1.394 . S
C219 C220 1.383 1_655 S
C219 H227 0.929 . S
C220 C219 1.383 1_455 S
C220 C221 1.377 . S
C221 H205 0.930 . S
C221 C220 1.377 . S
C221 C222 1.379 . S
C222 H206 0.931 . S
C222 C216 1.383 . S
C222 C221 1.379 . S
H223 C217 0.959 . S
H224 C217 0.961 . S
H225 C217 0.960 . S
H226 C218 0.930 . S
H227 C219 0.929 . S
H228 C236 0.929 . S
H229 C238 0.930 . S
H230 C240 0.930 . S
H231 C243 0.929 . S
H232 C246 0.930 . S
H233 C248 0.960 . S
H234 C248 0.960 . S
H235 C248 0.960 1_565 S
C236 H228 0.929 . S
C236 C237 1.377 1_545 S
C236 C238 1.384 . S
C237 C236 1.377 1_565 S
C237 C243 1.390 . S
C238 H229 0.930 . S
C238 C236 1.384 . S
C238 C239 1.371 1_545 S
C239 C238 1.371 1_565 S
C239 C240 1.401 . S
C239 C244 1.490 1_565 S
C240 H230 0.930 . S
C240 C239 1.401 . S
C240 C243 1.386 . S
H241 C257 0.930 . S
H242 C258 0.931 . S
C243 H231 0.929 . S
C243 C237 1.390 . S
C243 C240 1.386 . S
C244 C239 1.490 1_545 S
C244 C246 1.394 1_545 S
C244 C247 1.404 . S
H245 C251 0.930 . S
C246 H232 0.930 . S
C246 C244 1.394 1_565 S
C246 C249 1.403 . S
C247 C244 1.404 . S
C247 C248 1.524 . S
C247 C251 1.400 . S
C248 H233 0.960 . S
C248 H234 0.960 . S
C248 H235 0.960 1_545 S
C248 C247 1.524 . S
C249 C246 1.403 . S
C249 C250 1.392 . S
C249 C253 1.495 . S
C250 C249 1.392 . S
C250 C251 1.385 1_565 S
C250 C252 1.478 . S
C251 H245 0.930 . S
C251 C247 1.400 . S
C251 C250 1.385 1_545 S
C252 C250 1.478 . S
C252 C254 1.381 1_565 S
C252 C258 1.383 . S
C253 C249 1.495 . S
C253 H259 0.959 . S
C253 H260 0.961 . S
C253 H261 0.960 1_565 S
C254 C252 1.381 1_545 S
C254 C255 1.394 . S
C254 H262 0.930 . S
C255 C254 1.394 . S
C255 C256 1.383 1_545 S
C255 H263 0.929 . S
C256 C255 1.383 1_565 S
C256 C257 1.377 . S
C257 H241 0.930 . S
C257 C256 1.377 . S
C257 C258 1.379 . S
C258 H242 0.931 . S
C258 C252 1.383 . S
C258 C257 1.379 . S
H259 C253 0.959 . S
H260 C253 0.961 . S
H261 C253 0.960 1_545 S
H262 C254 0.930 . S
H263 C255 0.929 . S
H264 C272 0.929 . S
H265 C274 0.930 . S
H266 C276 0.930 . S
H267 C279 0.929 . S
H268 C282 0.930 . S
H269 C284 0.960 . S
H270 C284 0.960 . S
H271 C284 0.960 . S
C272 H264 0.929 . S
C272 C273 1.377 . S
C272 C274 1.384 . S
C273 C272 1.377 . S
C273 C279 1.390 . S
C274 H265 0.930 . S
C274 C272 1.384 . S
C274 C275 1.372 . S
C275 C274 1.372 . S
C275 C276 1.400 . S
C275 C280 1.490 . S
C276 H266 0.930 . S
C276 C275 1.400 . S
C276 C279 1.386 . S
H277 C293 0.930 . S
H278 C294 0.931 . S
C279 H267 0.929 . S
C279 C273 1.390 . S
C279 C276 1.386 . S
C280 C275 1.490 . S
C280 C282 1.395 . S
C280 C283 1.403 . S
H281 C287 0.930 . S
C282 H268 0.930 . S
C282 C280 1.395 . S
C282 C285 1.403 . S
C283 C280 1.403 . S
C283 C284 1.524 . S
C283 C287 1.400 . S
C284 H269 0.960 . S
C284 H270 0.960 . S
C284 H271 0.960 . S
C284 C283 1.524 . S
C285 C282 1.403 . S
C285 C286 1.392 . S
C285 C289 1.495 . S
C286 C285 1.392 . S
C286 C287 1.385 . S
C286 C288 1.478 . S
C287 H281 0.930 . S
C287 C283 1.400 . S
C287 C286 1.385 . S
C288 C286 1.478 . S
C288 C290 1.381 . S
C288 C294 1.383 . S
C289 C285 1.495 . S
C289 H295 0.959 . S
C289 H296 0.961 . S
C289 H297 0.960 . S
C290 C288 1.381 . S
C290 C291 1.394 . S
C290 H298 0.930 . S
C291 C290 1.394 . S
C291 C292 1.383 . S
C291 H299 0.929 . S
C292 C291 1.383 . S
C292 C293 1.377 . S
C293 H277 0.930 . S
C293 C292 1.377 . S
C293 C294 1.379 . S
C294 H278 0.931 . S
C294 C288 1.383 . S
C294 C293 1.379 . S
H295 C289 0.959 . S
H296 C289 0.961 . S
H297 C289 0.960 . S
H298 C290 0.930 . S
H299 C291 0.929 . S
H300 C308 0.929 . S
H301 C310 0.930 . S
H302 C312 0.930 . S
H303 C315 0.929 . S
H304 C318 0.930 . S
H305 C320 0.960 . S
H306 C320 0.960 . S
H307 C320 0.960 . S
C308 H300 0.929 . S
C308 C309 1.377 . S
C308 C310 1.384 . S
C309 C308 1.377 . S
C309 C315 1.390 . S
C310 H301 0.930 . S
C310 C308 1.384 . S
C310 C311 1.372 . S
C311 C310 1.372 . S
C311 C312 1.400 . S
C311 C316 1.490 . S
C312 H302 0.930 . S
C312 C311 1.400 . S
C312 C315 1.386 . S
H313 C329 0.930 . S
H314 C330 0.931 . S
C315 H303 0.929 . S
C315 C309 1.390 . S
C315 C312 1.386 . S
C316 C311 1.490 . S
C316 C318 1.395 1_565 S
C316 C319 1.403 . S
H317 C323 0.930 . S
C318 H304 0.930 . S
C318 C316 1.395 1_545 S
C318 C321 1.403 . S
C319 C316 1.403 . S
C319 C320 1.524 . S
C319 C323 1.400 . S
C320 H305 0.960 . S
C320 H306 0.960 . S
C320 H307 0.960 . S
C320 C319 1.524 . S
C321 C318 1.403 . S
C321 C322 1.392 . S
C321 C325 1.495 . S
C322 C321 1.392 . S
C322 C323 1.385 1_545 S
C322 C324 1.478 . S
C323 H317 0.930 . S
C323 C319 1.400 . S
C323 C322 1.385 1_565 S
C324 C322 1.478 . S
C324 C326 1.380 . S
C324 C330 1.383 . S
C325 C321 1.495 . S
C325 H331 0.959 . S
C325 H332 0.961 . S
C325 H333 0.960 . S
C326 C324 1.380 . S
C326 C327 1.395 1_545 S
C326 H334 0.930 1_545 S
C327 C326 1.395 1_565 S
C327 C328 1.383 1_565 S
C327 H335 0.929 . S
C328 C327 1.383 1_545 S
C328 C329 1.377 . S
C329 H313 0.930 . S
C329 C328 1.377 . S
C329 C330 1.379 . S
C330 H314 0.931 . S
C330 C324 1.383 . S
C330 C329 1.379 . S
H331 C325 0.959 . S
H332 C325 0.961 . S
H333 C325 0.960 . S
H334 C326 0.930 1_565 S
H335 C327 0.929 . S
H336 C344 0.929 . S
H337 C346 0.930 . S
H338 C348 0.930 . S
H339 C351 0.929 . S
H340 C354 0.930 . S
H341 C356 0.960 . S
H342 C356 0.960 . S
H343 C356 0.960 . S
C344 H336 0.929 . S
C344 C345 1.377 . S
C344 C346 1.384 . S
C345 C344 1.377 . S
C345 C351 1.390 . S
C346 H337 0.930 . S
C346 C344 1.384 . S
C346 C347 1.372 . S
C347 C346 1.372 . S
C347 C348 1.400 . S
C347 C352 1.490 . S
C348 H338 0.930 . S
C348 C347 1.400 . S
C348 C351 1.386 . S
H349 C365 0.930 . S
H350 C366 0.954 . S
C351 H339 0.929 . S
C351 C345 1.390 . S
C351 C348 1.386 . S
C352 C347 1.490 . S
C352 C354 1.395 . S
C352 C355 1.403 . S
H353 C359 0.930 . S
C354 H340 0.930 . S
C354 C352 1.395 . S
C354 C357 1.403 . S
C355 C352 1.403 . S
C355 C356 1.524 . S
C355 C359 1.400 . S
C356 H341 0.960 . S
C356 H342 0.960 . S
C356 H343 0.960 . S
C356 C355 1.524 . S
C357 C354 1.403 . S
C357 C358 1.392 . S
C357 C361 1.495 1_554 S
C358 C357 1.392 . S
C358 C359 1.385 . S
C358 C360 1.478 1_554 S
C359 H353 0.930 . S
C359 C355 1.400 . S
C359 C358 1.385 . S
C360 C358 1.478 1_556 S
C360 C362 1.381 . S
C360 C366 1.383 . S
C361 C357 1.495 1_556 S
C361 H367 0.959 . S
C361 H368 0.961 . S
C361 H369 0.960 . S
C362 C360 1.381 . S
C362 C363 1.394 . S
C362 H370 0.930 . S
C363 C362 1.394 . S
C363 C364 1.383 . S
C363 H371 0.929 . S
C364 C363 1.383 . S
C364 C365 1.377 . S
C365 H349 0.930 . S
C365 C364 1.377 . S
C365 C366 1.379 . S
C366 H350 0.954 . S
C366 C360 1.383 . S
C366 C365 1.379 . S
H367 C361 0.959 . S
H368 C361 0.961 . S
H369 C361 0.960 . S
H370 C362 0.930 . S
H371 C363 0.929 . S
H372 C380 0.929 . S
H373 C382 0.930 . S
H374 C384 0.930 . S
H375 C387 0.929 . S
H376 C390 0.930 . S
H377 C392 0.960 . S
H378 C392 0.960 . S
H379 C392 0.960 . S
C380 H372 0.929 . S
C380 C381 1.377 1_655 S
C380 C382 1.384 . S
C381 C380 1.377 1_455 S
C381 C387 1.390 . S
C382 H373 0.930 . S
C382 C380 1.384 . S
C382 C383 1.372 1_655 S
C383 C382 1.372 1_455 S
C383 C384 1.400 . S
C383 C388 1.495 1_455 S
C384 H374 0.930 . S
C384 C383 1.400 . S
C384 C387 1.386 . S
H385 C401 0.930 . S
H386 C402 0.931 . S
C387 H375 0.929 . S
C387 C381 1.390 . S
C387 C384 1.386 . S
C388 C383 1.495 1_655 S
C388 C390 1.404 . S
C388 C391 1.389 1_655 S
H389 C395 0.930 . S
C390 H376 0.930 . S
C390 C388 1.404 . S
C390 C393 1.403 . S
C391 C388 1.389 1_455 S
C391 C392 1.524 . S
C391 C395 1.400 . S
C392 H377 0.960 . S
C392 H378 0.960 . S
C392 H379 0.960 . S
C392 C391 1.524 . S
C393 C390 1.403 . S
C393 C394 1.392 . S
C393 C397 1.495 . S
C394 C393 1.392 . S
C394 C395 1.385 1_655 S
C394 C396 1.478 . S
C395 H389 0.930 . S
C395 C391 1.400 . S
C395 C394 1.385 1_455 S
C396 C394 1.478 . S
C396 C398 1.381 . S
C396 C402 1.383 1_655 S
C397 C393 1.495 . S
C397 H403 0.959 . S
C397 H404 0.961 . S
C397 H405 0.960 . S
C398 C396 1.381 . S
C398 C399 1.394 . S
C398 H406 0.930 . S
C399 C398 1.394 . S
C399 C400 1.383 . S
C399 H407 0.929 . S
C400 C399 1.383 . S
C400 C401 1.377 1_655 S
C401 H385 0.930 . S
C401 C400 1.377 1_455 S
C401 C402 1.379 . S
C402 H386 0.931 . S
C402 C396 1.383 1_455 S
C402 C401 1.379 . S
H403 C397 0.959 . S
H404 C397 0.961 . S
H405 C397 0.960 . S
H406 C398 0.930 . S
H407 C399 0.929 . S
H408 C416 0.929 . S
H409 C418 0.930 . S
H410 C420 0.930 . S
H411 C423 0.929 . S
H412 C426 0.930 . S
H413 C428 0.960 . S
H414 C428 0.960 . S
H415 C428 0.960 . S
C416 H408 0.929 . S
C416 C417 1.377 . S
C416 C418 1.384 . S
C417 C416 1.377 . S
C417 C423 1.390 1_545 S
C418 H409 0.930 . S
C418 C416 1.384 . S
C418 C419 1.372 . S
C419 C418 1.372 . S
C419 C420 1.400 1_545 S
C419 C424 1.490 . S
C420 H410 0.930 . S
C420 C419 1.400 1_565 S
C420 C423 1.386 . S
H421 C437 0.930 . S
H422 C438 0.931 . S
C423 H411 0.929 . S
C423 C417 1.390 1_565 S
C423 C420 1.386 . S
C424 C419 1.490 . S
C424 C426 1.395 1_545 S
C424 C427 1.403 . S
H425 C431 0.930 . S
C426 H412 0.930 . S
C426 C424 1.395 1_565 S
C426 C429 1.403 . S
C427 C424 1.403 . S
C427 C428 1.524 . S
C427 C431 1.400 . S
C428 H413 0.960 . S
C428 H414 0.960 . S
C428 H415 0.960 . S
C428 C427 1.524 . S
C429 C426 1.403 . S
C429 C430 1.392 1_565 S
C429 C433 1.495 . S
C430 C429 1.392 1_545 S
C430 C431 1.385 . S
C430 C432 1.474 1_545 S
C431 H425 0.930 . S
C431 C427 1.400 . S
C431 C430 1.385 . S
C432 C430 1.474 1_565 S
C432 C434 1.379 1_565 S
C432 C438 1.388 . S
C433 C429 1.495 . S
C433 H439 0.959 . S
C433 H440 0.961 . S
C433 H441 0.960 1_565 S
C434 C432 1.379 1_545 S
C434 C435 1.394 . S
C434 H442 0.930 . S
C435 C434 1.394 . S
C435 C436 1.372 1_545 S
C435 H443 0.929 . S
C436 C435 1.372 1_565 S
C436 C437 1.381 . S
C437 H421 0.930 . S
C437 C436 1.381 . S
C437 C438 1.379 . S
C438 H422 0.931 . S
C438 C432 1.388 . S
C438 C437 1.379 . S
H439 C433 0.959 . S
H440 C433 0.961 . S
H441 C433 0.960 1_545 S
H442 C434 0.930 . S
H443 C435 0.929 . S
H444 C452 0.929 . S
H445 C454 0.930 . S
H446 C456 0.930 . S
H447 C459 0.929 . S
H448 C462 0.930 . S
H449 C464 0.960 . S
H450 C464 0.960 . S
H451 C464 0.960 . S
C452 H444 0.929 . S
C452 C453 1.377 . S
C452 C454 1.384 . S
C453 C452 1.377 . S
C453 C459 1.390 . S
C454 H445 0.930 . S
C454 C452 1.384 . S
C454 C455 1.372 . S
C455 C454 1.372 . S
C455 C456 1.400 . S
C455 C460 1.490 . S
C456 H446 0.930 . S
C456 C455 1.400 . S
C456 C459 1.386 . S
H457 C473 0.930 . S
H458 C474 0.931 . S
C459 H447 0.929 . S
C459 C453 1.390 . S
C459 C456 1.386 . S
C460 C455 1.490 . S
C460 C462 1.395 . S
C460 C463 1.403 . S
H461 C467 0.930 . S
C462 H448 0.930 . S
C462 C460 1.395 . S
C462 C465 1.403 . S
C463 C460 1.403 . S
C463 C464 1.524 . S
C463 C467 1.400 . S
C464 H449 0.960 . S
C464 H450 0.960 . S
C464 H451 0.960 . S
C464 C463 1.524 . S
C465 C462 1.403 . S
C465 C466 1.392 . S
C465 C469 1.495 1_554 S
C466 C465 1.392 . S
C466 C467 1.385 . S
C466 C468 1.478 1_554 S
C467 H461 0.930 . S
C467 C463 1.400 . S
C467 C466 1.385 . S
C468 C466 1.478 1_556 S
C468 C470 1.381 . S
C468 C474 1.383 . S
C469 C465 1.495 1_556 S
C469 H475 0.959 . S
C469 H476 0.961 . S
C469 H477 0.960 . S
C470 C468 1.381 . S
C470 C471 1.394 . S
C470 H478 0.930 . S
C471 C470 1.394 . S
C471 C472 1.383 . S
C471 H479 0.929 . S
C472 C471 1.383 . S
C472 C473 1.377 . S
C473 H457 0.930 . S
C473 C472 1.377 . S
C473 C474 1.379 . S
C474 H458 0.931 . S
C474 C468 1.383 . S
C474 C473 1.379 . S
H475 C469 0.959 . S
H476 C469 0.961 . S
H477 C469 0.960 . S
H478 C470 0.930 . S
H479 C471 0.929 . S
H480 C488 0.929 . S
H481 C490 0.930 . S
H482 C492 0.930 . S
H483 C495 0.929 . S
H484 C498 0.930 . S
H485 C500 0.960 . S
H486 C500 0.960 . S
H487 C500 0.960 . S
C488 H480 0.929 . S
C488 C489 1.377 1_455 S
C488 C490 1.384 . S
C489 C488 1.377 1_655 S
C489 C495 1.390 . S
C490 H481 0.930 . S
C490 C488 1.384 . S
C490 C491 1.351 1_455 S
C491 C490 1.351 1_655 S
C491 C492 1.412 . S
C491 C496 1.499 1_655 S
C492 H482 0.930 . S
C492 C491 1.412 . S
C492 C495 1.386 . S
H493 C509 0.930 . S
H494 C510 0.931 . S
C495 H483 0.929 . S
C495 C489 1.390 . S
C495 C492 1.386 . S
C496 C491 1.499 1_455 S
C496 C498 1.395 . S
C496 C499 1.403 1_455 S
H497 C503 0.930 . S
C498 H484 0.930 . S
C498 C496 1.395 . S
C498 C501 1.403 . S
C499 C496 1.403 1_655 S
C499 C500 1.524 . S
C499 C503 1.400 . S
C500 H485 0.960 . S
C500 H486 0.960 . S
C500 H487 0.960 . S
C500 C499 1.524 . S
C501 C498 1.403 . S
C501 C502 1.392 . S
C501 C505 1.495 . S
C502 C501 1.392 . S
C502 C503 1.385 1_455 S
C502 C504 1.478 . S
C503 H497 0.930 . S
C503 C499 1.400 . S
C503 C502 1.385 1_655 S
C504 C502 1.478 . S
C504 C506 1.381 . S
C504 C510 1.383 1_455 S
C505 C501 1.495 . S
C505 H511 0.959 . S
C505 H512 0.961 . S
C505 H513 0.960 . S
C506 C504 1.381 . S
C506 C507 1.394 . S
C506 H514 0.930 . S
C507 C506 1.394 . S
C507 C508 1.383 . S
C507 H515 0.929 . S
C508 C507 1.383 . S
C508 C509 1.377 1_455 S
C509 H493 0.930 . S
C509 C508 1.377 1_655 S
C509 C510 1.379 . S
C510 H494 0.931 . S
C510 C504 1.383 1_655 S
C510 C509 1.379 . S
H511 C505 0.959 . S
H512 C505 0.961 . S
H513 C505 0.960 . S
H514 C506 0.930 . S
H515 C507 0.929 . S
C112 C43 1.460 . S
C93 C6 1.444 1_455 S
C129 C22 1.537 . S
C148 C69 1.551 . S
C165 C34 1.222 . S
C184 C71 1.248 . S
C201 C7 1.450 1_655 S
C220 C55 1.458 . S
C256 C57 1.564 1_565 S
C237 C23 1.540 . S
C273 C35 1.229 . S
C292 C83 1.231 . S
C328 C56 1.555 1_545 S
C309 C36 1.543 . S
C345 C9 1.766 . S
C364 C82 1.797 . S
C400 C42 1.458 1_655 S
C381 C21 1.441 1_455 S
C436 C68 1.561 1_565 S
C417 C37 1.539 . S
C472 C70 1.794 . S
C453 C8 1.762 . S
C489 C20 1.438 1_655 S
C508 C54 1.458 1_455 S
