# Generated by pormake.
# Topology gar, (4,6)-cn, num edge types: 1
# Building blocks:
#     Node 0, Type 0, BuildingBlock: QUQFOY_clean_sbu_3, # of connection points: 4
#     Node 1, Type 0, BuildingBlock: QUQFOY_clean_sbu_3, # of connection points: 4
#     Node 2, Type 0, BuildingBlock: QUQFOY_clean_sbu_3, # of connection points: 4
#     Node 3, Type 0, BuildingBlock: QUQFOY_clean_sbu_3, # of connection points: 4
#     Node 4, Type 0, BuildingBlock: QUQFOY_clean_sbu_3, # of connection points: 4
#     Node 5, Type 0, BuildingBlock: QUQFOY_clean_sbu_3, # of connection points: 4
#     Node 6, Type 0, BuildingBlock: QUQFOY_clean_sbu_3, # of connection points: 4
#     Node 7, Type 0, BuildingBlock: QUQFOY_clean_sbu_3, # of connection points: 4
#     Node 8, Type 0, BuildingBlock: QUQFOY_clean_sbu_3, # of connection points: 4
#     Node 9, Type 0, BuildingBlock: QUQFOY_clean_sbu_3, # of connection points: 4
#     Node 10, Type 0, BuildingBlock: QUQFOY_clean_sbu_3, # of connection points: 4
#     Node 11, Type 0, BuildingBlock: QUQFOY_clean_sbu_3, # of connection points: 4
#     Node 12, Type 0, BuildingBlock: QUQFOY_clean_sbu_3, # of connection points: 4
#     Node 13, Type 0, BuildingBlock: QUQFOY_clean_sbu_3, # of connection points: 4
#     Node 14, Type 0, BuildingBlock: QUQFOY_clean_sbu_3, # of connection points: 4
#     Node 15, Type 0, BuildingBlock: QUQFOY_clean_sbu_3, # of connection points: 4
#     Node 16, Type 0, BuildingBlock: QUQFOY_clean_sbu_3, # of connection points: 4
#     Node 17, Type 0, BuildingBlock: QUQFOY_clean_sbu_3, # of connection points: 4
#     Node 18, Type 0, BuildingBlock: QUQFOY_clean_sbu_3, # of connection points: 4
#     Node 19, Type 0, BuildingBlock: QUQFOY_clean_sbu_3, # of connection points: 4
#     Node 20, Type 0, BuildingBlock: QUQFOY_clean_sbu_3, # of connection points: 4
#     Node 21, Type 0, BuildingBlock: QUQFOY_clean_sbu_3, # of connection points: 4
#     Node 22, Type 0, BuildingBlock: QUQFOY_clean_sbu_3, # of connection points: 4
#     Node 23, Type 0, BuildingBlock: QUQFOY_clean_sbu_3, # of connection points: 4
#     Node 24, Type 1, BuildingBlock: MIFKUJ_clean_sbu_0, # of connection points: 6
#     Node 25, Type 1, BuildingBlock: MIFKUJ_clean_sbu_0, # of connection points: 6
#     Node 26, Type 1, BuildingBlock: MIFKUJ_clean_sbu_0, # of connection points: 6
#     Node 27, Type 1, BuildingBlock: MIFKUJ_clean_sbu_0, # of connection points: 6
#     Node 28, Type 1, BuildingBlock: MIFKUJ_clean_sbu_0, # of connection points: 6
#     Node 29, Type 1, BuildingBlock: MIFKUJ_clean_sbu_0, # of connection points: 6
#     Node 30, Type 1, BuildingBlock: MIFKUJ_clean_sbu_0, # of connection points: 6
#     Node 31, Type 1, BuildingBlock: MIFKUJ_clean_sbu_0, # of connection points: 6
#     Node 32, Type 1, BuildingBlock: MIFKUJ_clean_sbu_0, # of connection points: 6
#     Node 33, Type 1, BuildingBlock: MIFKUJ_clean_sbu_0, # of connection points: 6
#     Node 34, Type 1, BuildingBlock: MIFKUJ_clean_sbu_0, # of connection points: 6
#     Node 35, Type 1, BuildingBlock: MIFKUJ_clean_sbu_0, # of connection points: 6
#     Node 36, Type 1, BuildingBlock: MIFKUJ_clean_sbu_0, # of connection points: 6
#     Node 37, Type 1, BuildingBlock: MIFKUJ_clean_sbu_0, # of connection points: 6
#     Node 38, Type 1, BuildingBlock: MIFKUJ_clean_sbu_0, # of connection points: 6
#     Node 39, Type 1, BuildingBlock: MIFKUJ_clean_sbu_0, # of connection points: 6
#     Edge 40, Type (0, 1), None
#     Edge 41, Type (0, 1), None
#     Edge 42, Type (0, 1), None
#     Edge 43, Type (0, 1), None
#     Edge 44, Type (0, 1), None
#     Edge 45, Type (0, 1), None
#     Edge 46, Type (0, 1), None
#     Edge 47, Type (0, 1), None
#     Edge 48, Type (0, 1), None
#     Edge 49, Type (0, 1), None
#     Edge 50, Type (0, 1), None
#     Edge 51, Type (0, 1), None
#     Edge 52, Type (0, 1), None
#     Edge 53, Type (0, 1), None
#     Edge 54, Type (0, 1), None
#     Edge 55, Type (0, 1), None
#     Edge 56, Type (0, 1), None
#     Edge 57, Type (0, 1), None
#     Edge 58, Type (0, 1), None
#     Edge 59, Type (0, 1), None
#     Edge 60, Type (0, 1), None
#     Edge 61, Type (0, 1), None
#     Edge 62, Type (0, 1), None
#     Edge 63, Type (0, 1), None
#     Edge 64, Type (0, 1), None
#     Edge 65, Type (0, 1), None
#     Edge 66, Type (0, 1), None
#     Edge 67, Type (0, 1), None
#     Edge 68, Type (0, 1), None
#     Edge 69, Type (0, 1), None
#     Edge 70, Type (0, 1), None
#     Edge 71, Type (0, 1), None
#     Edge 72, Type (0, 1), None
#     Edge 73, Type (0, 1), None
#     Edge 74, Type (0, 1), None
#     Edge 75, Type (0, 1), None
#     Edge 76, Type (0, 1), None
#     Edge 77, Type (0, 1), None
#     Edge 78, Type (0, 1), None
#     Edge 79, Type (0, 1), None
#     Edge 80, Type (0, 1), None
#     Edge 81, Type (0, 1), None
#     Edge 82, Type (0, 1), None
#     Edge 83, Type (0, 1), None
#     Edge 84, Type (0, 1), None
#     Edge 85, Type (0, 1), None
#     Edge 86, Type (0, 1), None
#     Edge 87, Type (0, 1), None
#     Edge 88, Type (0, 1), None
#     Edge 89, Type (0, 1), None
#     Edge 90, Type (0, 1), None
#     Edge 91, Type (0, 1), None
#     Edge 92, Type (0, 1), None
#     Edge 93, Type (0, 1), None
#     Edge 94, Type (0, 1), None
#     Edge 95, Type (0, 1), None
#     Edge 96, Type (0, 1), None
#     Edge 97, Type (0, 1), None
#     Edge 98, Type (0, 1), None
#     Edge 99, Type (0, 1), None
#     Edge 100, Type (0, 1), None
#     Edge 101, Type (0, 1), None
#     Edge 102, Type (0, 1), None
#     Edge 103, Type (0, 1), None
#     Edge 104, Type (0, 1), None
#     Edge 105, Type (0, 1), None
#     Edge 106, Type (0, 1), None
#     Edge 107, Type (0, 1), None
#     Edge 108, Type (0, 1), None
#     Edge 109, Type (0, 1), None
#     Edge 110, Type (0, 1), None
#     Edge 111, Type (0, 1), None
#     Edge 112, Type (0, 1), None
#     Edge 113, Type (0, 1), None
#     Edge 114, Type (0, 1), None
#     Edge 115, Type (0, 1), None
#     Edge 116, Type (0, 1), None
#     Edge 117, Type (0, 1), None
#     Edge 118, Type (0, 1), None
#     Edge 119, Type (0, 1), None
#     Edge 120, Type (0, 1), None
#     Edge 121, Type (0, 1), None
#     Edge 122, Type (0, 1), None
#     Edge 123, Type (0, 1), None
#     Edge 124, Type (0, 1), None
#     Edge 125, Type (0, 1), None
#     Edge 126, Type (0, 1), None
#     Edge 127, Type (0, 1), None
#     Edge 128, Type (0, 1), None
#     Edge 129, Type (0, 1), None
#     Edge 130, Type (0, 1), None
#     Edge 131, Type (0, 1), None
#     Edge 132, Type (0, 1), None
#     Edge 133, Type (0, 1), None
#     Edge 134, Type (0, 1), None
#     Edge 135, Type (0, 1), None
# Relax obj value: 0.129
# Max RMSD: 0.367
# Mean RMSD: 0.144
data_MOF--net-gar--node1-QUQFOY_clean_sbu_3--node2-MIFKUJ_clean_sbu_0--edge1-none
_symmetry_space_group_name_H-M    P1
_symmetry_Int_Tables_number       1
_symmetry_cell_setting            triclinic
loop_
_symmetry_equiv_pos_as_xyz
'x, y, z'
_cell_length_a     28.129217
_cell_length_b     28.10141
_cell_length_c     26.267483
_cell_angle_alpha  95.170271
_cell_angle_beta   93.33525
_cell_angle_gamma 101.71296
loop_
_atom_site_label
_atom_site_type_symbol
_atom_site_fract_x
_atom_site_fract_y
_atom_site_fract_z
_atom_type_partial_charge
C0 C 0.93299 0.28493 0.33103 0.0
O1 O 0.94712 0.31338 0.29754 0.0
Cd2 Cd 0.03062 0.35052 0.3098 0.0
O3 O 0.96272 0.2769 0.36593 0.0
Cd4 Cd 0.04864 0.29332 0.3989 0.0
C5 C 0.03802 0.40507 0.4363 0.0
O6 O 0.0586 0.27448 0.30871 0.0
O7 O 0.12586 0.28986 0.35667 0.0
O8 O 0.00106 0.22362 0.43443 0.0
C9 C 0.10329 0.27325 0.31341 0.0
O10 O 0.02844 0.40412 0.38827 0.0
C11 C 0.03769 0.21138 0.45539 0.0
O12 O 0.05328 0.37005 0.45431 0.0
O13 O 0.07921 0.2382 0.45185 0.0
C14 C 0.92399 0.7279 0.71423 0.0
O15 O 0.95214 0.71384 0.74634 0.0
Cd16 Cd 0.02799 0.69794 0.71809 0.0
O17 O 0.93773 0.73867 0.6708 0.0
Cd18 Cd 0.01369 0.75615 0.62884 0.0
C19 C 0.00602 0.64141 0.59246 0.0
O20 O 0.0761 0.77336 0.7018 0.0
O21 O 0.09887 0.76071 0.62494 0.0
O22 O -0.00835 0.8332 0.63548 0.0
C23 C 0.11019 0.77326 0.67226 0.0
O24 O 0.01931 0.64148 0.63969 0.0
C25 C 0.00364 0.84459 0.5918 0.0
O26 O -0.00456 0.67909 0.5752 0.0
O27 O 0.01911 0.81344 0.56263 0.0
C28 C 0.43299 0.78493 0.83103 0.0
O29 O 0.44712 0.81338 0.79754 0.0
Cd30 Cd 0.53062 0.85052 0.8098 0.0
O31 O 0.46272 0.7769 0.86593 0.0
Cd32 Cd 0.54864 0.79332 0.8989 0.0
C33 C 0.53802 0.90507 0.9363 0.0
O34 O 0.5586 0.77448 0.80871 0.0
O35 O 0.62586 0.78986 0.85667 0.0
O36 O 0.50106 0.72362 0.93443 0.0
C37 C 0.60329 0.77325 0.81341 0.0
O38 O 0.52844 0.90412 0.88827 0.0
C39 C 0.53769 0.71138 0.95539 0.0
O40 O 0.55328 0.87005 0.95431 0.0
O41 O 0.57921 0.7382 0.95185 0.0
C42 C 0.42399 0.2279 0.21423 0.0
O43 O 0.45214 0.21384 0.24634 0.0
Cd44 Cd 0.52799 0.19794 0.21809 0.0
O45 O 0.43773 0.23867 0.1708 0.0
Cd46 Cd 0.51369 0.25615 0.12884 0.0
C47 C 0.50602 0.14141 0.09246 0.0
O48 O 0.5761 0.27336 0.2018 0.0
O49 O 0.59887 0.26071 0.12494 0.0
O50 O 0.49165 0.3332 0.13548 0.0
C51 C 0.61019 0.27326 0.17226 0.0
O52 O 0.51931 0.14148 0.13969 0.0
C53 C 0.50364 0.34459 0.0918 0.0
O54 O 0.49544 0.17909 0.07519 0.0
O55 O 0.51911 0.31344 0.06263 0.0
C56 C 0.95559 0.74663 0.25654 0.0
O57 O -0.02213 0.7265 0.28899 0.0
Cd58 Cd 0.05449 0.70938 0.26549 0.0
O59 O 0.976 0.76255 0.21782 0.0
Cd60 Cd 0.04864 0.77514 0.17103 0.0
C61 C 0.01099 0.65564 0.14213 0.0
O62 O 0.11021 0.78072 0.24311 0.0
O63 O 0.13136 0.76517 0.1663 0.0
O64 O 0.04957 0.86075 0.17278 0.0
C65 C 0.14335 0.77385 0.2141 0.0
O66 O 0.02186 0.65353 0.18944 0.0
C67 C 0.04237 0.86164 0.1248 0.0
O68 O 0.01761 0.69609 0.12272 0.0
O69 O 0.03865 0.8217 0.09653 0.0
C70 C 0.40373 0.74261 0.28658 0.0
O71 O 0.43421 0.75604 0.25436 0.0
Cd72 Cd 0.51719 0.79378 0.28322 0.0
O73 O 0.41785 0.74095 0.3333 0.0
Cd74 Cd 0.4946 0.74372 0.38742 0.0
C75 C 0.51398 0.8616 0.40259 0.0
O76 O 0.55579 0.73992 0.32428 0.0
O77 O 0.58083 0.76998 0.40262 0.0
O78 O 0.46752 0.65862 0.3924 0.0
C79 C 0.59075 0.76007 0.35705 0.0
O80 O 0.5233 0.85588 0.35576 0.0
C81 C 0.47354 0.65876 0.44062 0.0
O82 O 0.49555 0.82551 0.42629 0.0
O83 O 0.48951 0.6998 0.46679 0.0
C84 C 0.45559 0.24663 0.75654 0.0
O85 O 0.47787 0.2265 0.78899 0.0
Cd86 Cd 0.55449 0.20938 0.76549 0.0
O87 O 0.476 0.26255 0.71782 0.0
Cd88 Cd 0.54864 0.27514 0.67103 0.0
C89 C 0.51099 0.15564 0.64213 0.0
O90 O 0.61021 0.28072 0.74311 0.0
O91 O 0.63136 0.26517 0.6663 0.0
O92 O 0.54958 0.36075 0.67278 0.0
C93 C 0.64335 0.27385 0.7141 0.0
O94 O 0.52186 0.15353 0.68944 0.0
C95 C 0.54238 0.36164 0.6248 0.0
O96 O 0.51761 0.19609 0.62272 0.0
O97 O 0.53865 0.3217 0.59653 0.0
C98 C 0.90374 0.24261 0.78658 0.0
O99 O 0.93421 0.25604 0.75436 0.0
Cd100 Cd 0.01719 0.29379 0.78322 0.0
O101 O 0.91785 0.24095 0.8333 0.0
Cd102 Cd -0.0054 0.24372 0.88742 0.0
C103 C 0.01398 0.3616 0.90259 0.0
O104 O 0.05579 0.23992 0.82428 0.0
O105 O 0.08083 0.26998 0.90262 0.0
O106 O 0.96752 0.15862 0.8924 0.0
C107 C 0.09075 0.26007 0.85705 0.0
O108 O 0.0233 0.35588 0.85576 0.0
C109 C 0.97354 0.15876 0.94062 0.0
O110 O -0.00445 0.32551 0.92629 0.0
O111 O -0.01049 0.1998 0.96679 0.0
C112 C 0.49773 0.02058 0.3722 0.0
O113 O 0.52467 0.00518 0.34021 0.0
Cd114 Cd 0.49802 0.97521 0.25327 0.0
O115 O 0.45437 0.02444 0.35848 0.0
Cd116 Cd 0.3957 0.01751 0.28043 0.0
C117 C 0.38363 0.89811 0.26451 0.0
O118 O 0.45759 0.03138 0.22014 0.0
O119 O 0.38369 0.0005 0.18871 0.0
O120 O 0.38405 0.09828 0.30903 0.0
C121 C 0.42823 0.01357 0.18155 0.0
O122 O 0.42757 0.90877 0.25265 0.0
C123 C 0.33994 0.09252 0.29183 0.0
O124 O 0.36176 0.93064 0.28287 0.0
O125 O 0.31925 0.05022 0.27128 0.0
C126 C 0.32229 0.07474 0.51595 0.0
O127 O 0.29379 0.03981 0.53304 0.0
Cd128 Cd 0.21765 0.04764 0.56362 0.0
O129 O 0.30887 0.11452 0.50829 0.0
Cd130 Cd 0.23615 0.1545 0.51146 0.0
C131 C 0.2624 0.15849 0.6405 0.0
O132 O 0.17242 0.07792 0.49993 0.0
O133 O 0.15124 0.14196 0.53455 0.0
O134 O 0.25041 0.17269 0.42245 0.0
C135 C 0.13939 0.09675 0.5191 0.0
O136 O 0.24619 0.11246 0.63315 0.0
C137 C 0.245 0.21663 0.4259 0.0
O138 O 0.265 0.1851 0.60321 0.0
O139 O 0.23512 0.23364 0.4697 0.0
C140 C 0.04213 0.02391 0.88732 0.0
O141 O 0.02349 0.05126 0.85981 0.0
Cd142 Cd 0.0646 0.0822 0.78715 0.0
O143 O 0.08283 0.01314 0.87654 0.0
Cd144 Cd 0.13848 0.02517 0.80125 0.0
C145 C 0.1851 0.14416 0.81053 0.0
O146 O 0.07138 0.01336 0.73054 0.0
O147 O 0.14527 0.03653 0.71086 0.0
O148 O 0.14329 0.94119 0.81097 0.0
C149 C 0.10083 0.02126 0.69609 0.0
O150 O 0.14139 0.14405 0.79467 0.0
C151 C 0.18605 0.94368 0.79712 0.0
O152 O 0.19598 0.10537 0.82486 0.0
O153 O 0.2091 0.98521 0.78798 0.0
C154 C 0.36035 0.94514 -0.01898 0.0
O155 O 0.34342 0.97823 0.96117 0.0
Cd156 Cd 0.26013 0.94564 0.93106 0.0
O157 O 0.33207 0.9065 -0.00941 0.0
Cd158 Cd 0.24619 0.87552 -0.00397 0.0
C159 C 0.25168 0.82277 0.88641 0.0
O160 O 0.20998 0.94873 0.00354 0.0
O161 O 0.16156 0.87807 -0.01705 0.0
O162 O 0.26372 0.88576 0.08629 0.0
C163 C 0.16706 0.92301 -0.00105 0.0
O164 O 0.26155 0.86787 0.87951 0.0
C165 C 0.25981 0.84056 0.08973 0.0
O166 O 0.23923 0.81001 0.92932 0.0
O167 O 0.24585 0.81095 0.04988 0.0
C168 C 0.36952 0.48755 0.05338 0.0
O169 O 0.34106 0.51416 0.03855 0.0
Cd170 Cd 0.25647 0.48783 0.01365 0.0
O171 O 0.35302 0.44423 0.06559 0.0
Cd172 Cd 0.27104 0.38541 0.07694 0.0
C173 C 0.26254 0.37437 0.946 0.0
O174 O 0.21948 0.44677 0.07811 0.0
O175 O 0.18178 0.37209 0.05938 0.0
O176 O 0.28279 0.37435 0.17098 0.0
C177 C 0.17989 0.41693 0.0634 0.0
O178 O 0.2566 0.41827 0.95193 0.0
C179 C 0.27525 0.32787 0.16687 0.0
O180 O 0.27082 0.35129 -0.01554 0.0
O181 O 0.26788 0.30714 0.12111 0.0
C182 C 0.82815 0.07185 0.05847 0.0
O183 O 0.79916 0.05226 0.08934 0.0
Cd184 Cd 0.73048 0.08821 0.10572 0.0
O185 O 0.82167 0.10992 0.03899 0.0
Cd186 Cd 0.75878 0.15861 0.03651 0.0
C187 C 0.7704 0.21063 0.15095 0.0
O188 O 0.68548 0.09297 0.02676 0.0
O189 O 0.67644 0.16798 0.04002 0.0
O190 O 0.77773 0.1481 0.95 0.0
C191 C 0.65816 0.12371 0.02499 0.0
O192 O 0.74994 0.16697 0.157 0.0
C193 C 0.77045 0.18927 0.93988 0.0
O194 O 0.78519 0.22127 0.10797 0.0
O195 O 0.76153 0.21831 0.9761 0.0
C196 C 0.04079 0.54213 0.31748 0.0
O197 O 0.00805 0.55659 0.29148 0.0
Cd198 Cd 0.02486 0.5602 0.20513 0.0
O199 O 0.07278 0.52296 0.29623 0.0
Cd200 Cd 0.11141 0.49435 0.22312 0.0
C201 C 0.14886 0.6142 0.24183 0.0
O202 O 0.03333 0.4806 0.17362 0.0
O203 O 0.09602 0.48544 0.13035 0.0
O204 O 0.1179 0.42471 0.2724 0.0
C205 C 0.05013 0.48 0.13008 0.0
O206 O 0.104 0.61369 0.23136 0.0
C207 C 0.1549 0.41608 0.25078 0.0
O208 O 0.16513 0.57505 0.23863 0.0
O209 O 0.17055 0.44277 0.2163 0.0
C210 C 0.86952 0.98755 0.55338 0.0
O211 O 0.84106 0.01416 0.53855 0.0
Cd212 Cd 0.75647 0.98783 0.51365 0.0
O213 O 0.85302 0.94423 0.56559 0.0
Cd214 Cd 0.77104 0.88541 0.57694 0.0
C215 C 0.76254 0.87437 0.446 0.0
O216 O 0.71948 0.94677 0.57811 0.0
O217 O 0.68178 0.87209 0.55938 0.0
O218 O 0.78279 0.87435 0.67098 0.0
C219 C 0.67989 0.91693 0.5634 0.0
O220 O 0.7566 0.91827 0.45193 0.0
C221 C 0.77525 0.82787 0.66687 0.0
O222 O 0.77082 0.85129 0.48446 0.0
O223 O 0.76788 0.80714 0.62111 0.0
C224 C 0.95857 0.0185 0.36246 0.0
O225 O -0.01231 0.99183 0.34832 0.0
Cd226 Cd 0.96828 0.9525 0.26182 0.0
O227 O 0.92573 0.02591 0.33066 0.0
Cd228 Cd 0.89253 0.00865 0.24017 0.0
C229 C 0.84854 0.89071 0.26328 0.0
O230 O 0.97339 0.01331 0.19923 0.0
O231 O 0.90716 0.9901 0.14966 0.0
O232 O 0.89355 0.09563 0.24034 0.0
C233 C 0.95338 0.00327 0.15376 0.0
O234 O 0.89374 0.89035 0.26815 0.0
C235 C 0.84825 0.09313 0.24223 0.0
O236 O 0.83495 0.92906 0.25112 0.0
O237 O 0.82155 0.05066 0.24014 0.0
C238 C 0.32815 0.57185 0.55847 0.0
O239 O 0.29916 0.55226 0.58934 0.0
Cd240 Cd 0.23048 0.58821 0.60572 0.0
O241 O 0.32167 0.60992 0.53899 0.0
Cd242 Cd 0.25878 0.65861 0.53651 0.0
C243 C 0.2704 0.71062 0.65095 0.0
O244 O 0.18548 0.59297 0.52676 0.0
O245 O 0.17644 0.66798 0.54003 0.0
O246 O 0.27773 0.6481 0.45 0.0
C247 C 0.15816 0.6237 0.52499 0.0
O248 O 0.24994 0.66697 0.657 0.0
C249 C 0.27045 0.68927 0.43988 0.0
O250 O 0.28519 0.72127 0.60797 0.0
O251 O 0.26152 0.71831 0.4761 0.0
C252 C 0.45857 0.5185 0.86246 0.0
O253 O 0.48769 0.49183 0.84832 0.0
Cd254 Cd 0.46828 0.4525 0.76182 0.0
O255 O 0.42573 0.52591 0.83066 0.0
Cd256 Cd 0.39253 0.50865 0.74017 0.0
C257 C 0.34854 0.39071 0.76328 0.0
O258 O 0.47339 0.51331 0.69923 0.0
O259 O 0.40716 0.4901 0.64966 0.0
O260 O 0.39355 0.59563 0.74034 0.0
C261 C 0.45338 0.50327 0.65376 0.0
O262 O 0.39375 0.39035 0.76815 0.0
C263 C 0.34825 0.59313 0.74223 0.0
O264 O 0.33495 0.42906 0.75112 0.0
O265 O 0.32155 0.55066 0.74014 0.0
C266 C 0.54079 0.04213 0.81748 0.0
O267 O 0.50805 0.05659 0.79148 0.0
Cd268 Cd 0.52486 0.0602 0.70513 0.0
O269 O 0.57278 0.02296 0.79623 0.0
Cd270 Cd 0.61141 0.99435 0.72312 0.0
C271 C 0.64886 0.1142 0.74183 0.0
O272 O 0.53333 0.9806 0.67362 0.0
O273 O 0.59602 0.98544 0.63035 0.0
O274 O 0.6179 0.92471 0.7724 0.0
C275 C 0.55013 0.98 0.63008 0.0
O276 O 0.604 0.11369 0.73136 0.0
C277 C 0.6549 0.91608 0.75078 0.0
O278 O 0.66513 0.07505 0.73863 0.0
O279 O 0.67055 0.94277 0.7163 0.0
C280 C 0.82229 0.57474 0.01595 0.0
O281 O 0.79379 0.53981 0.03304 0.0
Cd282 Cd 0.71765 0.54764 0.06362 0.0
O283 O 0.80887 0.61452 0.00829 0.0
Cd284 Cd 0.73615 0.6545 0.01146 0.0
C285 C 0.7624 0.65849 0.1405 0.0
O286 O 0.67242 0.57792 -7e-05 0.0
O287 O 0.65124 0.64196 0.03455 0.0
O288 O 0.75041 0.67269 0.92245 0.0
C289 C 0.63939 0.59675 0.0191 0.0
O290 O 0.74619 0.61246 0.13315 0.0
C291 C 0.745 0.71663 0.9259 0.0
O292 O 0.765 0.6851 0.10321 0.0
O293 O 0.73512 0.73364 0.9697 0.0
C294 C -0.00227 0.52058 0.8722 0.0
O295 O 0.02467 0.50518 0.84021 0.0
Cd296 Cd -0.00198 0.47521 0.75327 0.0
O297 O 0.95437 0.52444 0.85848 0.0
Cd298 Cd 0.8957 0.51751 0.78043 0.0
C299 C 0.88363 0.39811 0.76451 0.0
O300 O 0.95759 0.53138 0.72014 0.0
O301 O 0.88369 0.5005 0.68871 0.0
O302 O 0.88405 0.59828 0.80903 0.0
C303 C 0.92823 0.51357 0.68155 0.0
O304 O 0.92757 0.40877 0.75265 0.0
C305 C 0.83994 0.59252 0.79183 0.0
O306 O 0.86176 0.43064 0.78287 0.0
O307 O 0.81925 0.55022 0.77128 0.0
C308 C 0.86035 0.44514 0.48102 0.0
O309 O 0.84342 0.47824 0.46117 0.0
Cd310 Cd 0.76013 0.44564 0.43106 0.0
O311 O 0.83207 0.4065 0.49059 0.0
Cd312 Cd 0.74619 0.37552 0.49603 0.0
C313 C 0.75168 0.32277 0.38641 0.0
O314 O 0.70998 0.44873 0.50354 0.0
O315 O 0.66156 0.37807 0.48295 0.0
O316 O 0.76372 0.38576 0.58629 0.0
C317 C 0.66706 0.42301 0.49895 0.0
O318 O 0.76155 0.36787 0.37951 0.0
C319 C 0.75981 0.34056 0.58973 0.0
O320 O 0.73923 0.31001 0.42932 0.0
O321 O 0.74585 0.31095 0.54988 0.0
C322 C 0.54213 0.52391 0.38732 0.0
O323 O 0.52349 0.55126 0.35981 0.0
Cd324 Cd 0.5646 0.5822 0.28715 0.0
O325 O 0.58283 0.51314 0.37654 0.0
Cd326 Cd 0.63848 0.52517 0.30125 0.0
C327 C 0.6851 0.64416 0.31053 0.0
O328 O 0.57138 0.51336 0.23054 0.0
O329 O 0.64527 0.53653 0.21086 0.0
O330 O 0.64329 0.44119 0.31097 0.0
C331 C 0.60083 0.52126 0.19609 0.0
O332 O 0.64139 0.64405 0.29467 0.0
C333 C 0.68605 0.44368 0.29712 0.0
O334 O 0.69598 0.60537 0.32486 0.0
O335 O 0.7091 0.48521 0.28798 0.0
Zn336 Zn 0.05308 0.98297 0.04598 0.0
Zn337 Zn 0.94939 0.02951 0.0045 0.0
C338 C 0.04486 0.90854 0.10406 0.0
O339 O 0.07006 0.9477 0.13179 0.0
C340 C 0.95849 0.11271 0.96297 0.0
O341 O 0.92627 0.07855 0.93506 0.0
O342 O 0.12408 0.97756 0.0444 0.0
O343 O 0.045 0.00272 0.97296 0.0
O344 O 0.97273 0.00515 0.93694 0.0
C345 C 0.12436 0.94375 0.00828 0.0
O346 O 0.08343 0.92259 -0.01839 0.0
O347 O 0.02694 0.91247 0.05923 0.0
C348 C 0.87279 0.05496 0.05006 0.0
O349 O 0.91062 0.07224 0.08289 0.0
O350 O 0.87849 0.03205 0.00743 0.0
O351 O 0.95755 0.98967 0.06414 0.0
O352 O 0.02723 0.02053 0.10756 0.0
O353 O -0.02173 0.10245 0.00463 0.0
C354 C 0.01837 0.00834 0.93414 0.0
C355 C -0.01905 0.00697 0.10665 0.0
Zn356 Zn 0.25302 0.73913 0.30155 0.0
Zn357 Zn 0.28714 0.7689 0.21175 0.0
C358 C 0.17886 0.65966 0.26738 0.0
O359 O 0.15746 0.68916 0.29511 0.0
C360 C 0.35658 0.84885 0.24683 0.0
O361 O 0.37597 0.82266 0.21311 0.0
O362 O 0.24623 0.73259 0.37417 0.0
O363 O 0.3264 0.75546 0.30424 0.0
O364 O 0.33408 0.72535 0.22623 0.0
C365 C 0.26947 0.70105 0.38773 0.0
O366 O 0.28874 0.67551 0.35331 0.0
O367 O 0.2246 0.67128 0.26435 0.0
C368 C 0.26902 0.82349 0.13845 0.0
O369 O 0.2541 0.84461 0.17931 0.0
O370 O 0.29038 0.78805 0.14187 0.0
O371 O 0.21524 0.74438 0.2062 0.0
O372 O 0.20949 0.78493 0.27926 0.0
O373 O 0.31274 0.83334 0.25664 0.0
C374 C 0.35161 0.73734 0.27233 0.0
C375 C 0.1916 0.76862 0.23412 0.0
Zn376 Zn 0.46099 0.03678 0.5319 0.0
Zn377 Zn 0.56966 0.98644 0.50046 0.0
C378 C 0.48751 0.11051 0.61098 0.0
O379 O 0.46043 0.07547 0.6327 0.0
C380 C 0.53496 0.90907 0.43071 0.0
O381 O 0.57029 0.93747 0.41044 0.0
O382 O 0.38892 0.03579 0.52781 0.0
O383 O 0.48182 0.02835 0.45892 0.0
O384 O 0.55792 0.0241 0.44072 0.0
C385 C 0.37297 0.07079 0.51009 0.0
O386 O 0.40344 0.10643 0.49274 0.0
O387 O 0.49344 0.10407 0.56357 0.0
C388 C 0.63552 0.93226 0.54409 0.0
O389 O 0.59335 0.90252 0.54615 0.0
O390 O 0.63685 0.97214 0.52355 0.0
O391 O 0.54795 0.02212 0.55782 0.0
O392 O 0.47801 0.99029 0.58278 0.0
O393 O 0.52546 0.92091 0.47631 0.0
C394 C 0.51418 0.02689 0.42693 0.0
C395 C 0.52377 0.99462 0.58645 0.0
Zn396 Zn 0.31183 0.24166 0.78455 0.0
Zn397 Zn 0.22814 0.2901 0.80542 0.0
C398 C 0.28068 0.1789 0.69335 0.0
O399 O 0.28896 0.14883 0.72671 0.0
C400 C 0.25494 0.35097 0.89282 0.0
O401 O 0.23948 0.37562 0.85738 0.0
O402 O 0.37822 0.22618 0.79077 0.0
O403 O 0.32965 0.31603 0.8004 0.0
O404 O 0.26785 0.33896 0.76199 0.0
C405 C 0.40528 0.25095 0.76133 0.0
O406 O 0.38641 0.27817 0.73106 0.0
O407 O 0.28764 0.22425 0.7083 0.0
C408 C 0.14123 0.26709 0.84521 0.0
O409 O 0.17049 0.24717 0.87311 0.0
O410 O 0.1583 0.29472 0.81169 0.0
O411 O 0.21232 0.21944 0.77765 0.0
O412 O 0.26596 0.19599 0.82684 0.0
O413 O 0.25778 0.3069 0.88018 0.0
C414 C 0.31332 0.3466 0.77503 0.0
C415 C 0.22282 0.18859 0.8062 0.0
Zn416 Zn 0.0231 0.98384 0.55005 0.0
Zn417 Zn -0.0024 0.07837 0.51664 0.0
C418 C 0.08531 0.00992 0.64148 0.0
O419 O 0.11687 0.00032 0.60919 0.0
C420 C 0.9624 0.04229 0.4151 0.0
O421 O 0.93232 0.07078 0.42759 0.0
O422 O 0.02877 0.91379 0.54641 0.0
O423 O 0.94917 0.9768 0.53729 0.0
O424 O 0.93883 0.05205 0.5538 0.0
C425 C 0.00122 0.89302 0.57815 0.0
O426 O 0.97549 0.9184 0.60541 0.0
O427 O 0.04137 0.00735 0.62514 0.0
C428 C 0.03324 0.16459 0.47587 0.0
O429 O 0.06646 0.13919 0.46636 0.0
O430 O -0.00451 0.14555 0.49708 0.0
O431 O 0.0632 0.08823 0.55469 0.0
O432 O 0.07628 0.02338 0.5101 0.0
O433 O -0.00508 0.03701 0.44853 0.0
C434 C 0.92227 0.00622 0.55074 0.0
C435 C 0.09161 0.06748 0.52934 0.0
Zn436 Zn 0.24583 0.82401 0.74791 0.0
Zn437 Zn 0.28854 0.71598 0.78903 0.0
C438 C 0.1605 0.79294 0.69033 0.0
O439 O 0.18965 0.8168 0.65963 0.0
C440 C 0.38276 0.75826 0.82813 0.0
O441 O 0.36732 0.73164 0.86486 0.0
O442 O 0.23987 0.89546 0.76064 0.0
O443 O 0.28035 0.80286 0.80725 0.0
O444 O 0.26235 0.74301 0.85433 0.0
C445 C 0.20562 0.89921 0.7898 0.0
O446 O 0.1824 0.86012 0.8086 0.0
O447 O 0.17631 0.78883 0.7356 0.0
C448 C 0.32906 0.63821 0.74657 0.0
O449 O 0.35146 0.67547 0.72428 0.0
O450 O 0.29713 0.64473 0.77772 0.0
O451 O 0.24846 0.73365 0.73163 0.0
O452 O 0.27507 0.7937 0.68625 0.0
O453 O 0.35478 0.75764 0.78852 0.0
C454 C 0.26135 0.78698 0.84646 0.0
C455 C 0.26928 0.74835 0.69274 0.0
Zn456 Zn 0.51845 0.04749 0.96722 0.0
Zn457 Zn 0.49993 -0.00017 0.05064 0.0
C458 C 0.60835 0.10948 0.0028 0.0
O459 O 0.58381 0.14295 -0.00768 0.0
C460 C 0.41104 0.95281 0.00055 0.0
O461 O 0.42648 0.91753 0.02174 0.0
O462 O 0.51396 0.06693 0.89741 0.0
O463 O 0.50347 0.97405 0.94944 0.0
O464 O 0.53984 0.9537 0.01765 0.0
C465 C 0.54237 0.04561 0.87262 0.0
O466 O 0.57283 0.02419 0.89703 0.0
O467 O 0.58847 0.06468 -0.00633 0.0
C468 C 0.4442 0.00956 0.13046 0.0
O469 O 0.42537 0.03288 0.09612 0.0
O470 O 0.4767 0.98554 0.11906 0.0
O471 O 0.53245 0.06856 0.07179 0.0
O472 O 0.48372 0.08909 0.01395 0.0
O473 O 0.43791 0.99512 0.00541 0.0
C474 C 0.52755 0.94613 0.96976 0.0
C475 C 0.50697 0.09803 0.05781 0.0
Zn476 Zn 0.2886 0.21697 0.26891 0.0
Zn477 Zn 0.2196 0.30623 0.30561 0.0
C478 C 0.37344 0.22687 0.22417 0.0
O479 O 0.33959 0.20965 0.18679 0.0
C480 C 0.12403 0.24457 0.27386 0.0
O481 O 0.09448 0.21041 0.24306 0.0
O482 O 0.28842 0.14349 0.25888 0.0
O483 O 0.26568 0.22598 0.34061 0.0
O484 O 0.23282 0.2836 0.37723 0.0
C485 C 0.31577 0.13428 0.29591 0.0
O486 O 0.33239 0.16878 0.33349 0.0
O487 O 0.36115 0.23895 0.2686 0.0
C488 C 0.17621 0.37422 0.2608 0.0
O489 O 0.18646 0.34697 0.2215 0.0
O490 O 0.18676 0.36464 0.30612 0.0
O491 O 0.27555 0.32346 0.25792 0.0
O492 O 0.26334 0.25314 0.20937 0.0
O493 O 0.16945 0.2519 0.26823 0.0
C494 C 0.24865 0.24436 0.37972 0.0
C495 C 0.27256 0.29997 0.21345 0.0
Zn496 Zn 0.5231 0.48384 0.05005 0.0
Zn497 Zn 0.4976 0.57837 0.01664 0.0
C498 C 0.58531 0.50992 0.14148 0.0
O499 O 0.61687 0.50032 0.10919 0.0
C500 C 0.4624 0.54229 0.9151 0.0
O501 O 0.43232 0.57078 0.92759 0.0
O502 O 0.52877 0.41379 0.04641 0.0
O503 O 0.44917 0.4768 0.03729 0.0
O504 O 0.43883 0.55205 0.0538 0.0
C505 C 0.50122 0.39302 0.07814 0.0
O506 O 0.47549 0.4184 0.10541 0.0
O507 O 0.54137 0.50735 0.12514 0.0
C508 C 0.53324 0.66459 0.97587 0.0
O509 O 0.56646 0.63919 0.96636 0.0
O510 O 0.49549 0.64555 -0.00292 0.0
O511 O 0.5632 0.58823 0.05469 0.0
O512 O 0.57628 0.52338 0.0101 0.0
O513 O 0.49492 0.53701 0.94853 0.0
C514 C 0.42227 0.50622 0.05074 0.0
C515 C 0.59161 0.56748 0.02934 0.0
Zn516 Zn 0.74583 0.32401 0.24791 0.0
Zn517 Zn 0.78854 0.21598 0.28902 0.0
C518 C 0.6605 0.29294 0.19033 0.0
O519 O 0.68965 0.3168 0.15963 0.0
C520 C 0.88276 0.25826 0.32813 0.0
O521 O 0.86732 0.23164 0.36486 0.0
O522 O 0.73986 0.39546 0.26064 0.0
O523 O 0.78035 0.30286 0.30725 0.0
O524 O 0.76235 0.24301 0.35433 0.0
C525 C 0.70562 0.39921 0.2898 0.0
O526 O 0.6824 0.36012 0.3086 0.0
O527 O 0.67631 0.28883 0.2356 0.0
C528 C 0.82906 0.13821 0.24656 0.0
O529 O 0.85146 0.17547 0.22428 0.0
O530 O 0.79713 0.14473 0.27772 0.0
O531 O 0.74846 0.23365 0.23163 0.0
O532 O 0.77507 0.2937 0.18625 0.0
O533 O 0.85478 0.25764 0.28852 0.0
C534 C 0.76135 0.28698 0.34646 0.0
C535 C 0.76928 0.24835 0.19274 0.0
Zn536 Zn 0.01845 0.54749 0.46722 0.0
Zn537 Zn -7e-05 0.49983 0.55064 0.0
C538 C 0.10835 0.60948 0.5028 0.0
O539 O 0.08381 0.64295 0.49232 0.0
C540 C 0.91104 0.45281 0.50055 0.0
O541 O 0.92648 0.41753 0.52174 0.0
O542 O 0.01396 0.56693 0.39741 0.0
O543 O 0.00347 0.47405 0.44944 0.0
O544 O 0.03984 0.4537 0.51765 0.0
C545 C 0.04237 0.54561 0.37262 0.0
O546 O 0.07283 0.52419 0.39703 0.0
O547 O 0.08847 0.56468 0.49367 0.0
C548 C 0.9442 0.50956 0.63046 0.0
O549 O 0.92537 0.53288 0.59612 0.0
O550 O 0.9767 0.48554 0.61906 0.0
O551 O 0.03245 0.56856 0.57179 0.0
O552 O -0.01628 0.58909 0.51395 0.0
O553 O 0.93791 0.49512 0.50541 0.0
C554 C 0.02755 0.44613 0.46976 0.0
C555 C 0.00697 0.59803 0.55781 0.0
Zn556 Zn 0.81183 0.74166 0.28455 0.0
Zn557 Zn 0.72814 0.7901 0.30542 0.0
C558 C 0.78068 0.6789 0.19335 0.0
O559 O 0.78896 0.64883 0.22671 0.0
C560 C 0.75494 0.85097 0.39282 0.0
O561 O 0.73948 0.87562 0.35738 0.0
O562 O 0.87822 0.72618 0.29077 0.0
O563 O 0.82965 0.81603 0.3004 0.0
O564 O 0.76785 0.83896 0.26199 0.0
C565 C 0.90528 0.75095 0.26133 0.0
O566 O 0.88641 0.77817 0.23106 0.0
O567 O 0.78764 0.72425 0.2083 0.0
C568 C 0.64122 0.76709 0.34521 0.0
O569 O 0.67049 0.74717 0.37311 0.0
O570 O 0.65829 0.79472 0.31169 0.0
O571 O 0.71232 0.71944 0.27765 0.0
O572 O 0.76595 0.69599 0.32685 0.0
O573 O 0.75778 0.8069 0.38018 0.0
C574 C 0.81332 0.8466 0.27503 0.0
C575 C 0.72282 0.68859 0.3062 0.0
Zn576 Zn 0.75302 0.23913 0.80155 0.0
Zn577 Zn 0.78714 0.2689 0.71175 0.0
C578 C 0.67886 0.15966 0.76738 0.0
O579 O 0.65746 0.18916 0.79511 0.0
C580 C 0.85658 0.34885 0.74683 0.0
O581 O 0.87597 0.32266 0.71311 0.0
O582 O 0.74623 0.23259 0.87417 0.0
O583 O 0.8264 0.25546 0.80424 0.0
O584 O 0.83408 0.22535 0.72622 0.0
C585 C 0.76947 0.20105 0.88773 0.0
O586 O 0.78874 0.17551 0.85331 0.0
O587 O 0.7246 0.17128 0.76435 0.0
C588 C 0.76902 0.32349 0.63845 0.0
O589 O 0.7541 0.34461 0.67931 0.0
O590 O 0.79038 0.28805 0.64187 0.0
O591 O 0.71524 0.24438 0.7062 0.0
O592 O 0.70949 0.28493 0.77926 0.0
O593 O 0.81274 0.33334 0.75664 0.0
C594 C 0.85161 0.23734 0.77233 0.0
C595 C 0.6916 0.26862 0.73411 0.0
Zn596 Zn 0.7886 0.71697 0.76891 0.0
Zn597 Zn 0.7196 0.80623 0.80561 0.0
C598 C 0.87344 0.72687 0.72417 0.0
O599 O 0.83959 0.70965 0.68679 0.0
C600 C 0.62403 0.74456 0.77386 0.0
O601 O 0.59448 0.71041 0.74306 0.0
O602 O 0.78842 0.64349 0.75888 0.0
O603 O 0.76568 0.72598 0.84061 0.0
O604 O 0.73282 0.7836 0.87723 0.0
C605 C 0.81577 0.63428 0.79591 0.0
O606 O 0.83239 0.66878 0.83349 0.0
O607 O 0.86115 0.73895 0.7686 0.0
C608 C 0.67621 0.87422 0.7608 0.0
O609 O 0.68646 0.84697 0.7215 0.0
O610 O 0.68676 0.86464 0.80612 0.0
O611 O 0.77555 0.82346 0.75792 0.0
O612 O 0.76334 0.75314 0.70938 0.0
O613 O 0.66945 0.7519 0.76823 0.0
C614 C 0.74865 0.74436 0.87972 0.0
C615 C 0.77256 0.79997 0.71345 0.0
Zn616 Zn 0.55308 0.48297 0.54598 0.0
Zn617 Zn 0.44939 0.52951 0.5045 0.0
C618 C 0.54486 0.40854 0.60406 0.0
O619 O 0.57006 0.4477 0.63179 0.0
C620 C 0.45849 0.61271 0.46298 0.0
O621 O 0.42627 0.57855 0.43506 0.0
O622 O 0.62408 0.47756 0.5444 0.0
O623 O 0.545 0.50272 0.47296 0.0
O624 O 0.47273 0.50515 0.43694 0.0
C625 C 0.62436 0.44375 0.50828 0.0
O626 O 0.58343 0.42259 0.48161 0.0
O627 O 0.52694 0.41247 0.55923 0.0
C628 C 0.37279 0.55496 0.55006 0.0
O629 O 0.41062 0.57224 0.58289 0.0
O630 O 0.37849 0.53205 0.50743 0.0
O631 O 0.45755 0.48967 0.56414 0.0
O632 O 0.52723 0.52053 0.60756 0.0
O633 O 0.47826 0.60245 0.50463 0.0
C634 C 0.51837 0.50834 0.43414 0.0
C635 C 0.48095 0.50697 0.60665 0.0
Zn636 Zn 0.96099 0.53678 0.0319 0.0
Zn637 Zn 0.06966 0.48644 0.00046 0.0
C638 C -0.01249 0.61051 0.11098 0.0
O639 O 0.96043 0.57547 0.1327 0.0
C640 C 0.03496 0.40907 0.93071 0.0
O641 O 0.07029 0.43747 0.91044 0.0
O642 O 0.88892 0.53579 0.02781 0.0
O643 O -0.01818 0.52835 0.95892 0.0
O644 O 0.05792 0.5241 0.94072 0.0
C645 C 0.87297 0.57079 0.01009 0.0
O646 O 0.90344 0.60643 -0.00726 0.0
O647 O -0.00656 0.60407 0.06357 0.0
C648 C 0.13552 0.43226 0.04409 0.0
O649 O 0.09335 0.40252 0.04615 0.0
O650 O 0.13685 0.47214 0.02355 0.0
O651 O 0.04795 0.52212 0.05782 0.0
O652 O -0.02199 0.49029 0.08278 0.0
O653 O 0.02546 0.42091 0.97631 0.0
C654 C 0.01418 0.52689 0.92693 0.0
C655 C 0.02377 0.49462 0.08645 0.0
loop_
_geom_bond_atom_site_label_1
_geom_bond_atom_site_label_2
_geom_bond_distance
_geom_bond_site_symmetry_2
_ccdc_geom_bond_type
C0 O1 1.306 . S
C0 O3 1.160 . S
O1 C0 1.306 . S
O1 Cd2 2.228 1_655 S
Cd2 O1 2.228 1_455 S
Cd2 O6 2.273 . S
Cd2 O10 2.277 . S
O3 C0 1.160 . S
O3 Cd4 2.203 1_655 S
Cd4 O3 2.203 1_455 S
Cd4 O6 2.411 . S
Cd4 O7 2.333 . S
Cd4 O8 2.352 . S
Cd4 O12 2.277 . S
Cd4 O13 2.356 . S
C5 O10 1.209 . S
C5 O12 1.226 . S
O6 Cd2 2.273 . S
O6 Cd4 2.411 . S
O6 C9 1.320 . S
O7 Cd4 2.333 . S
O7 C9 1.214 . S
O8 Cd4 2.352 . S
O8 C11 1.258 . S
C9 O6 1.320 . S
C9 O7 1.214 . S
O10 Cd2 2.277 . S
O10 C5 1.209 . S
C11 O8 1.258 . S
C11 O13 1.282 . S
O12 Cd4 2.277 . S
O12 C5 1.226 . S
O13 Cd4 2.356 . S
O13 C11 1.282 . S
C14 O15 1.306 . S
C14 O17 1.160 . S
O15 C14 1.306 . S
O15 Cd16 2.228 1_655 S
Cd16 O15 2.228 1_455 S
Cd16 O20 2.273 . S
Cd16 O24 2.277 . S
O17 C14 1.160 . S
O17 Cd18 2.203 1_655 S
Cd18 O17 2.203 1_455 S
Cd18 O20 2.411 . S
Cd18 O21 2.333 . S
Cd18 O22 2.352 . S
Cd18 O26 2.277 . S
Cd18 O27 2.356 . S
C19 O24 1.209 . S
C19 O26 1.226 . S
O20 Cd16 2.273 . S
O20 Cd18 2.411 . S
O20 C23 1.320 . S
O21 Cd18 2.333 . S
O21 C23 1.214 . S
O22 Cd18 2.352 . S
O22 C25 1.258 . S
C23 O20 1.320 . S
C23 O21 1.214 . S
O24 Cd16 2.277 . S
O24 C19 1.209 . S
C25 O22 1.258 . S
C25 O27 1.282 . S
O26 Cd18 2.277 . S
O26 C19 1.226 . S
O27 Cd18 2.356 . S
O27 C25 1.282 . S
C28 O29 1.306 . S
C28 O31 1.160 . S
O29 C28 1.306 . S
O29 Cd30 2.228 . S
Cd30 O29 2.228 . S
Cd30 O34 2.273 . S
Cd30 O38 2.277 . S
O31 C28 1.160 . S
O31 Cd32 2.203 . S
Cd32 O31 2.203 . S
Cd32 O34 2.411 . S
Cd32 O35 2.333 . S
Cd32 O36 2.352 . S
Cd32 O40 2.277 1_556 S
Cd32 O41 2.356 1_556 S
C33 O38 1.209 . S
C33 O40 1.226 1_556 S
O34 Cd30 2.273 . S
O34 Cd32 2.411 . S
O34 C37 1.320 . S
O35 Cd32 2.333 . S
O35 C37 1.214 . S
O36 Cd32 2.352 . S
O36 C39 1.258 . S
C37 O34 1.320 . S
C37 O35 1.214 . S
O38 Cd30 2.277 . S
O38 C33 1.209 . S
C39 O36 1.258 . S
C39 O41 1.282 1_556 S
O40 Cd32 2.277 1_554 S
O40 C33 1.226 1_554 S
O41 Cd32 2.356 1_554 S
O41 C39 1.282 1_554 S
C42 O43 1.306 . S
C42 O45 1.160 . S
O43 C42 1.306 . S
O43 Cd44 2.228 . S
Cd44 O43 2.228 . S
Cd44 O48 2.273 . S
Cd44 O52 2.277 . S
O45 C42 1.160 . S
O45 Cd46 2.203 . S
Cd46 O45 2.203 . S
Cd46 O48 2.411 . S
Cd46 O49 2.333 . S
Cd46 O50 2.352 . S
Cd46 O54 2.277 . S
Cd46 O55 2.356 . S
C47 O52 1.209 . S
C47 O54 1.226 . S
O48 Cd44 2.273 . S
O48 Cd46 2.411 . S
O48 C51 1.320 . S
O49 Cd46 2.333 . S
O49 C51 1.214 . S
O50 Cd46 2.352 . S
O50 C53 1.258 . S
C51 O48 1.320 . S
C51 O49 1.214 . S
O52 Cd44 2.277 . S
O52 C47 1.209 . S
C53 O50 1.258 . S
C53 O55 1.282 . S
O54 Cd46 2.277 . S
O54 C47 1.226 . S
O55 Cd46 2.356 . S
O55 C53 1.282 . S
C56 O57 1.306 1_655 S
C56 O59 1.160 . S
O57 C56 1.306 1_455 S
O57 Cd58 2.228 . S
Cd58 O57 2.228 . S
Cd58 O62 2.273 . S
Cd58 O66 2.277 . S
O59 C56 1.160 . S
O59 Cd60 2.203 1_655 S
Cd60 O59 2.203 1_455 S
Cd60 O62 2.411 . S
Cd60 O63 2.333 . S
Cd60 O64 2.352 . S
Cd60 O68 2.277 . S
Cd60 O69 2.356 . S
C61 O66 1.209 . S
C61 O68 1.226 . S
O62 Cd58 2.273 . S
O62 Cd60 2.411 . S
O62 C65 1.320 . S
O63 Cd60 2.333 . S
O63 C65 1.214 . S
O64 Cd60 2.352 . S
O64 C67 1.258 . S
C65 O62 1.320 . S
C65 O63 1.214 . S
O66 Cd58 2.277 . S
O66 C61 1.209 . S
C67 O64 1.258 . S
C67 O69 1.282 . S
O68 Cd60 2.277 . S
O68 C61 1.226 . S
O69 Cd60 2.356 . S
O69 C67 1.282 . S
C70 O71 1.306 . S
C70 O73 1.160 . S
O71 C70 1.306 . S
O71 Cd72 2.228 . S
Cd72 O71 2.228 . S
Cd72 O76 2.273 . S
Cd72 O80 2.277 . S
O73 C70 1.160 . S
O73 Cd74 2.203 . S
Cd74 O73 2.203 . S
Cd74 O76 2.411 . S
Cd74 O77 2.333 . S
Cd74 O78 2.352 . S
Cd74 O82 2.277 . S
Cd74 O83 2.356 . S
C75 O80 1.209 . S
C75 O82 1.226 . S
O76 Cd72 2.273 . S
O76 Cd74 2.411 . S
O76 C79 1.320 . S
O77 Cd74 2.333 . S
O77 C79 1.214 . S
O78 Cd74 2.352 . S
O78 C81 1.258 . S
C79 O76 1.320 . S
C79 O77 1.214 . S
O80 Cd72 2.277 . S
O80 C75 1.209 . S
C81 O78 1.258 . S
C81 O83 1.282 . S
O82 Cd74 2.277 . S
O82 C75 1.226 . S
O83 Cd74 2.356 . S
O83 C81 1.282 . S
C84 O85 1.306 . S
C84 O87 1.160 . S
O85 C84 1.306 . S
O85 Cd86 2.228 . S
Cd86 O85 2.228 . S
Cd86 O90 2.273 . S
Cd86 O94 2.277 . S
O87 C84 1.160 . S
O87 Cd88 2.203 . S
Cd88 O87 2.203 . S
Cd88 O90 2.411 . S
Cd88 O91 2.333 . S
Cd88 O92 2.352 . S
Cd88 O96 2.277 . S
Cd88 O97 2.356 . S
C89 O94 1.209 . S
C89 O96 1.226 . S
O90 Cd86 2.273 . S
O90 Cd88 2.411 . S
O90 C93 1.320 . S
O91 Cd88 2.333 . S
O91 C93 1.214 . S
O92 Cd88 2.352 . S
O92 C95 1.258 . S
C93 O90 1.320 . S
C93 O91 1.214 . S
O94 Cd86 2.277 . S
O94 C89 1.209 . S
C95 O92 1.258 . S
C95 O97 1.282 . S
O96 Cd88 2.277 . S
O96 C89 1.226 . S
O97 Cd88 2.356 . S
O97 C95 1.282 . S
C98 O99 1.306 . S
C98 O101 1.160 . S
O99 C98 1.306 . S
O99 Cd100 2.228 1_655 S
Cd100 O99 2.228 1_455 S
Cd100 O104 2.273 . S
Cd100 O108 2.277 . S
O101 C98 1.160 . S
O101 Cd102 2.203 1_655 S
Cd102 O101 2.203 1_455 S
Cd102 O104 2.411 . S
Cd102 O105 2.333 . S
Cd102 O106 2.352 1_455 S
Cd102 O110 2.277 . S
Cd102 O111 2.356 . S
C103 O108 1.209 . S
C103 O110 1.226 . S
O104 Cd100 2.273 . S
O104 Cd102 2.411 . S
O104 C107 1.320 . S
O105 Cd102 2.333 . S
O105 C107 1.214 . S
O106 Cd102 2.352 1_655 S
O106 C109 1.258 . S
C107 O104 1.320 . S
C107 O105 1.214 . S
O108 Cd100 2.277 . S
O108 C103 1.209 . S
C109 O106 1.258 . S
C109 O111 1.282 1_655 S
O110 Cd102 2.277 . S
O110 C103 1.226 . S
O111 Cd102 2.356 . S
O111 C109 1.282 1_455 S
C112 O113 1.306 . S
C112 O115 1.160 . S
O113 C112 1.306 . S
O113 Cd114 2.228 1_545 S
Cd114 O113 2.228 1_565 S
Cd114 O118 2.273 1_565 S
Cd114 O122 2.277 . S
O115 C112 1.160 . S
O115 Cd116 2.203 . S
Cd116 O115 2.203 . S
Cd116 O118 2.411 . S
Cd116 O119 2.333 . S
Cd116 O120 2.352 . S
Cd116 O124 2.277 1_545 S
Cd116 O125 2.356 . S
C117 O122 1.209 . S
C117 O124 1.226 . S
O118 Cd114 2.273 1_545 S
O118 Cd116 2.411 . S
O118 C121 1.320 . S
O119 Cd116 2.333 . S
O119 C121 1.214 . S
O120 Cd116 2.352 . S
O120 C123 1.258 . S
C121 O118 1.320 . S
C121 O119 1.214 . S
O122 Cd114 2.277 . S
O122 C117 1.209 . S
C123 O120 1.258 . S
C123 O125 1.282 . S
O124 Cd116 2.277 1_565 S
O124 C117 1.226 . S
O125 Cd116 2.356 . S
O125 C123 1.282 . S
C126 O127 1.306 . S
C126 O129 1.160 . S
O127 C126 1.306 . S
O127 Cd128 2.228 . S
Cd128 O127 2.228 . S
Cd128 O132 2.273 . S
Cd128 O136 2.277 . S
O129 C126 1.160 . S
O129 Cd130 2.203 . S
Cd130 O129 2.203 . S
Cd130 O132 2.411 . S
Cd130 O133 2.333 . S
Cd130 O134 2.352 . S
Cd130 O138 2.277 . S
Cd130 O139 2.356 . S
C131 O136 1.209 . S
C131 O138 1.226 . S
O132 Cd128 2.273 . S
O132 Cd130 2.411 . S
O132 C135 1.320 . S
O133 Cd130 2.333 . S
O133 C135 1.214 . S
O134 Cd130 2.352 . S
O134 C137 1.258 . S
C135 O132 1.320 . S
C135 O133 1.214 . S
O136 Cd128 2.277 . S
O136 C131 1.209 . S
C137 O134 1.258 . S
C137 O139 1.282 . S
O138 Cd130 2.277 . S
O138 C131 1.226 . S
O139 Cd130 2.356 . S
O139 C137 1.282 . S
C140 O141 1.306 . S
C140 O143 1.160 . S
O141 C140 1.306 . S
O141 Cd142 2.228 . S
Cd142 O141 2.228 . S
Cd142 O146 2.273 . S
Cd142 O150 2.277 . S
O143 C140 1.160 . S
O143 Cd144 2.203 . S
Cd144 O143 2.203 . S
Cd144 O146 2.411 . S
Cd144 O147 2.333 . S
Cd144 O148 2.352 1_545 S
Cd144 O152 2.277 . S
Cd144 O153 2.356 1_545 S
C145 O150 1.209 . S
C145 O152 1.226 . S
O146 Cd142 2.273 . S
O146 Cd144 2.411 . S
O146 C149 1.320 . S
O147 Cd144 2.333 . S
O147 C149 1.214 . S
O148 Cd144 2.352 1_565 S
O148 C151 1.258 . S
C149 O146 1.320 . S
C149 O147 1.214 . S
O150 Cd142 2.277 . S
O150 C145 1.209 . S
C151 O148 1.258 . S
C151 O153 1.282 . S
O152 Cd144 2.277 . S
O152 C145 1.226 . S
O153 Cd144 2.356 1_565 S
O153 C151 1.282 . S
C154 O155 1.306 1_554 S
C154 O157 1.160 . S
O155 C154 1.306 1_556 S
O155 Cd156 2.228 . S
Cd156 O155 2.228 . S
Cd156 O160 2.273 1_556 S
Cd156 O164 2.277 . S
O157 C154 1.160 . S
O157 Cd158 2.203 . S
Cd158 O157 2.203 . S
Cd158 O160 2.411 . S
Cd158 O161 2.333 . S
Cd158 O162 2.352 . S
Cd158 O166 2.277 1_554 S
Cd158 O167 2.356 . S
C159 O164 1.209 . S
C159 O166 1.226 . S
O160 Cd156 2.273 1_554 S
O160 Cd158 2.411 . S
O160 C163 1.320 . S
O161 Cd158 2.333 . S
O161 C163 1.214 . S
O162 Cd158 2.352 . S
O162 C165 1.258 . S
C163 O160 1.320 . S
C163 O161 1.214 . S
O164 Cd156 2.277 . S
O164 C159 1.209 . S
C165 O162 1.258 . S
C165 O167 1.282 . S
O166 Cd158 2.277 1_556 S
O166 C159 1.226 . S
O167 Cd158 2.356 . S
O167 C165 1.282 . S
C168 O169 1.306 . S
C168 O171 1.160 . S
O169 C168 1.306 . S
O169 Cd170 2.228 . S
Cd170 O169 2.228 . S
Cd170 O174 2.273 . S
Cd170 O178 2.277 1_554 S
O171 C168 1.160 . S
O171 Cd172 2.203 . S
Cd172 O171 2.203 . S
Cd172 O174 2.411 . S
Cd172 O175 2.333 . S
Cd172 O176 2.352 . S
Cd172 O180 2.277 . S
Cd172 O181 2.356 . S
C173 O178 1.209 . S
C173 O180 1.226 1_556 S
O174 Cd170 2.273 . S
O174 Cd172 2.411 . S
O174 C177 1.320 . S
O175 Cd172 2.333 . S
O175 C177 1.214 . S
O176 Cd172 2.352 . S
O176 C179 1.258 . S
C177 O174 1.320 . S
C177 O175 1.214 . S
O178 Cd170 2.277 1_556 S
O178 C173 1.209 . S
C179 O176 1.258 . S
C179 O181 1.282 . S
O180 Cd172 2.277 . S
O180 C173 1.226 1_554 S
O181 Cd172 2.356 . S
O181 C179 1.282 . S
C182 O183 1.306 . S
C182 O185 1.160 . S
O183 C182 1.306 . S
O183 Cd184 2.228 . S
Cd184 O183 2.228 . S
Cd184 O188 2.273 . S
Cd184 O192 2.277 . S
O185 C182 1.160 . S
O185 Cd186 2.203 . S
Cd186 O185 2.203 . S
Cd186 O188 2.411 . S
Cd186 O189 2.333 . S
Cd186 O190 2.352 1_554 S
Cd186 O194 2.277 . S
Cd186 O195 2.356 . S
C187 O192 1.209 . S
C187 O194 1.226 . S
O188 Cd184 2.273 . S
O188 Cd186 2.411 . S
O188 C191 1.320 . S
O189 Cd186 2.333 . S
O189 C191 1.214 . S
O190 Cd186 2.352 1_556 S
O190 C193 1.258 . S
C191 O188 1.320 . S
C191 O189 1.214 . S
O192 Cd184 2.277 . S
O192 C187 1.209 . S
C193 O190 1.258 . S
C193 O195 1.282 1_556 S
O194 Cd186 2.277 . S
O194 C187 1.226 . S
O195 Cd186 2.356 . S
O195 C193 1.282 1_554 S
C196 O197 1.306 . S
C196 O199 1.160 . S
O197 C196 1.306 . S
O197 Cd198 2.228 . S
Cd198 O197 2.228 . S
Cd198 O202 2.273 . S
Cd198 O206 2.277 . S
O199 C196 1.160 . S
O199 Cd200 2.203 . S
Cd200 O199 2.203 . S
Cd200 O202 2.411 . S
Cd200 O203 2.333 . S
Cd200 O204 2.352 . S
Cd200 O208 2.277 . S
Cd200 O209 2.356 . S
C201 O206 1.209 . S
C201 O208 1.226 . S
O202 Cd198 2.273 . S
O202 Cd200 2.411 . S
O202 C205 1.320 . S
O203 Cd200 2.333 . S
O203 C205 1.214 . S
O204 Cd200 2.352 . S
O204 C207 1.258 . S
C205 O202 1.320 . S
C205 O203 1.214 . S
O206 Cd198 2.277 . S
O206 C201 1.209 . S
C207 O204 1.258 . S
C207 O209 1.282 . S
O208 Cd200 2.277 . S
O208 C201 1.226 . S
O209 Cd200 2.356 . S
O209 C207 1.282 . S
C210 O211 1.306 . S
C210 O213 1.160 . S
O211 C210 1.306 . S
O211 Cd212 2.228 . S
Cd212 O211 2.228 . S
Cd212 O216 2.273 . S
Cd212 O220 2.277 . S
O213 C210 1.160 . S
O213 Cd214 2.203 . S
Cd214 O213 2.203 . S
Cd214 O216 2.411 . S
Cd214 O217 2.333 . S
Cd214 O218 2.352 . S
Cd214 O222 2.277 . S
Cd214 O223 2.356 . S
C215 O220 1.209 . S
C215 O222 1.226 . S
O216 Cd212 2.273 . S
O216 Cd214 2.411 . S
O216 C219 1.320 . S
O217 Cd214 2.333 . S
O217 C219 1.214 . S
O218 Cd214 2.352 . S
O218 C221 1.258 . S
C219 O216 1.320 . S
C219 O217 1.214 . S
O220 Cd212 2.277 . S
O220 C215 1.209 . S
C221 O218 1.258 . S
C221 O223 1.282 . S
O222 Cd214 2.277 . S
O222 C215 1.226 . S
O223 Cd214 2.356 . S
O223 C221 1.282 . S
C224 O225 1.306 1_545 S
C224 O227 1.160 . S
O225 C224 1.306 1_565 S
O225 Cd226 2.228 . S
Cd226 O225 2.228 . S
Cd226 O230 2.273 1_565 S
Cd226 O234 2.277 . S
O227 C224 1.160 . S
O227 Cd228 2.203 . S
Cd228 O227 2.203 . S
Cd228 O230 2.411 . S
Cd228 O231 2.333 1_545 S
Cd228 O232 2.352 . S
Cd228 O236 2.277 1_545 S
Cd228 O237 2.356 . S
C229 O234 1.209 . S
C229 O236 1.226 . S
O230 Cd226 2.273 1_545 S
O230 Cd228 2.411 . S
O230 C233 1.320 1_545 S
O231 Cd228 2.333 1_565 S
O231 C233 1.213 . S
O232 Cd228 2.352 . S
O232 C235 1.258 . S
C233 O230 1.320 1_565 S
C233 O231 1.213 . S
O234 Cd226 2.277 . S
O234 C229 1.209 . S
C235 O232 1.258 . S
C235 O237 1.282 . S
O236 Cd228 2.277 1_565 S
O236 C229 1.226 . S
O237 Cd228 2.356 . S
O237 C235 1.282 . S
C238 O239 1.306 . S
C238 O241 1.160 . S
O239 C238 1.306 . S
O239 Cd240 2.228 . S
Cd240 O239 2.228 . S
Cd240 O244 2.273 . S
Cd240 O248 2.277 . S
O241 C238 1.160 . S
O241 Cd242 2.203 . S
Cd242 O241 2.203 . S
Cd242 O244 2.411 . S
Cd242 O245 2.333 . S
Cd242 O246 2.352 . S
Cd242 O250 2.277 . S
Cd242 O251 2.356 . S
C243 O248 1.209 . S
C243 O250 1.226 . S
O244 Cd240 2.273 . S
O244 Cd242 2.411 . S
O244 C247 1.320 . S
O245 Cd242 2.333 . S
O245 C247 1.214 . S
O246 Cd242 2.352 . S
O246 C249 1.258 . S
C247 O244 1.320 . S
C247 O245 1.214 . S
O248 Cd240 2.277 . S
O248 C243 1.209 . S
C249 O246 1.258 . S
C249 O251 1.282 . S
O250 Cd242 2.277 . S
O250 C243 1.226 . S
O251 Cd242 2.356 . S
O251 C249 1.282 . S
C252 O253 1.306 . S
C252 O255 1.160 . S
O253 C252 1.306 . S
O253 Cd254 2.228 . S
Cd254 O253 2.228 . S
Cd254 O258 2.273 . S
Cd254 O262 2.277 . S
O255 C252 1.160 . S
O255 Cd256 2.203 . S
Cd256 O255 2.203 . S
Cd256 O258 2.411 . S
Cd256 O259 2.333 . S
Cd256 O260 2.352 . S
Cd256 O264 2.277 . S
Cd256 O265 2.356 . S
C257 O262 1.209 . S
C257 O264 1.226 . S
O258 Cd254 2.273 . S
O258 Cd256 2.411 . S
O258 C261 1.320 . S
O259 Cd256 2.333 . S
O259 C261 1.214 . S
O260 Cd256 2.352 . S
O260 C263 1.258 . S
C261 O258 1.320 . S
C261 O259 1.214 . S
O262 Cd254 2.277 . S
O262 C257 1.209 . S
C263 O260 1.258 . S
C263 O265 1.282 . S
O264 Cd256 2.277 . S
O264 C257 1.226 . S
O265 Cd256 2.356 . S
O265 C263 1.282 . S
C266 O267 1.306 . S
C266 O269 1.160 . S
O267 C266 1.306 . S
O267 Cd268 2.228 . S
Cd268 O267 2.228 . S
Cd268 O272 2.273 1_545 S
Cd268 O276 2.277 . S
O269 C266 1.160 . S
O269 Cd270 2.203 1_545 S
Cd270 O269 2.203 1_565 S
Cd270 O272 2.411 . S
Cd270 O273 2.333 . S
Cd270 O274 2.352 . S
Cd270 O278 2.277 1_565 S
Cd270 O279 2.356 . S
C271 O276 1.209 . S
C271 O278 1.226 . S
O272 Cd268 2.273 1_565 S
O272 Cd270 2.411 . S
O272 C275 1.320 . S
O273 Cd270 2.333 . S
O273 C275 1.214 . S
O274 Cd270 2.352 . S
O274 C277 1.258 . S
C275 O272 1.320 . S
C275 O273 1.214 . S
O276 Cd268 2.277 . S
O276 C271 1.209 . S
C277 O274 1.258 . S
C277 O279 1.282 . S
O278 Cd270 2.277 1_545 S
O278 C271 1.226 . S
O279 Cd270 2.356 . S
O279 C277 1.282 . S
C280 O281 1.306 . S
C280 O283 1.155 1_554 S
O281 C280 1.306 . S
O281 Cd282 2.228 . S
Cd282 O281 2.228 . S
Cd282 O286 2.273 1_554 S
Cd282 O290 2.277 . S
O283 C280 1.155 1_556 S
O283 Cd284 2.203 . S
Cd284 O283 2.203 . S
Cd284 O286 2.411 . S
Cd284 O287 2.333 . S
Cd284 O288 2.352 . S
Cd284 O292 2.277 1_556 S
Cd284 O293 2.356 . S
C285 O290 1.209 . S
C285 O292 1.226 . S
O286 Cd282 2.273 1_556 S
O286 Cd284 2.411 . S
O286 C289 1.320 . S
O287 Cd284 2.333 . S
O287 C289 1.214 . S
O288 Cd284 2.352 . S
O288 C291 1.258 . S
C289 O286 1.320 . S
C289 O287 1.214 . S
O290 Cd282 2.277 . S
O290 C285 1.209 . S
C291 O288 1.258 . S
C291 O293 1.282 . S
O292 Cd284 2.277 1_554 S
O292 C285 1.226 . S
O293 Cd284 2.356 . S
O293 C291 1.282 . S
C294 O295 1.306 1_655 S
C294 O297 1.160 . S
O295 C294 1.306 1_455 S
O295 Cd296 2.228 . S
Cd296 O295 2.228 . S
Cd296 O300 2.273 1_455 S
Cd296 O304 2.277 1_455 S
O297 C294 1.160 . S
O297 Cd298 2.203 . S
Cd298 O297 2.203 . S
Cd298 O300 2.411 . S
Cd298 O301 2.333 . S
Cd298 O302 2.352 . S
Cd298 O306 2.277 . S
Cd298 O307 2.356 . S
C299 O304 1.209 . S
C299 O306 1.226 . S
O300 Cd296 2.273 1_655 S
O300 Cd298 2.411 . S
O300 C303 1.320 . S
O301 Cd298 2.333 . S
O301 C303 1.214 . S
O302 Cd298 2.352 . S
O302 C305 1.258 . S
C303 O300 1.320 . S
C303 O301 1.214 . S
O304 Cd296 2.277 1_655 S
O304 C299 1.209 . S
C305 O302 1.258 . S
C305 O307 1.282 . S
O306 Cd298 2.277 . S
O306 C299 1.226 . S
O307 Cd298 2.356 . S
O307 C305 1.282 . S
C308 O309 1.306 . S
C308 O311 1.160 . S
O309 C308 1.306 . S
O309 Cd310 2.228 . S
Cd310 O309 2.228 . S
Cd310 O314 2.273 . S
Cd310 O318 2.277 . S
O311 C308 1.160 . S
O311 Cd312 2.203 . S
Cd312 O311 2.203 . S
Cd312 O314 2.411 . S
Cd312 O315 2.333 . S
Cd312 O316 2.352 . S
Cd312 O320 2.277 . S
Cd312 O321 2.356 . S
C313 O318 1.209 . S
C313 O320 1.226 . S
O314 Cd310 2.273 . S
O314 Cd312 2.411 . S
O314 C317 1.320 . S
O315 Cd312 2.333 . S
O315 C317 1.214 . S
O316 Cd312 2.352 . S
O316 C319 1.258 . S
C317 O314 1.320 . S
C317 O315 1.214 . S
O318 Cd310 2.277 . S
O318 C313 1.209 . S
C319 O316 1.258 . S
C319 O321 1.282 . S
O320 Cd312 2.277 . S
O320 C313 1.226 . S
O321 Cd312 2.356 . S
O321 C319 1.282 . S
C322 O323 1.306 . S
C322 O325 1.160 . S
O323 C322 1.306 . S
O323 Cd324 2.228 . S
Cd324 O323 2.228 . S
Cd324 O328 2.273 . S
Cd324 O332 2.277 . S
O325 C322 1.160 . S
O325 Cd326 2.203 . S
Cd326 O325 2.203 . S
Cd326 O328 2.411 . S
Cd326 O329 2.333 . S
Cd326 O330 2.352 . S
Cd326 O334 2.277 . S
Cd326 O335 2.356 . S
C327 O332 1.209 . S
C327 O334 1.226 . S
O328 Cd324 2.273 . S
O328 Cd326 2.411 . S
O328 C331 1.320 . S
O329 Cd326 2.333 . S
O329 C331 1.214 . S
O330 Cd326 2.352 . S
O330 C333 1.258 . S
C331 O328 1.320 . S
C331 O329 1.214 . S
O332 Cd324 2.277 . S
O332 C327 1.209 . S
C333 O330 1.258 . S
C333 O335 1.282 . S
O334 Cd326 2.277 . S
O334 C327 1.226 . S
O335 Cd326 2.356 . S
O335 C333 1.282 . S
Zn336 O342 1.969 . S
Zn336 O343 1.965 1_565 S
Zn336 O347 2.024 . S
Zn336 O352 1.960 1_565 S
Zn337 O344 1.969 1_654 S
Zn337 O350 1.969 1_554 S
Zn337 O351 1.965 . S
Zn337 O353 2.024 1_655 S
C338 O339 1.229 . S
C338 O347 1.058 . S
O339 C338 1.229 . S
C340 O341 1.229 1_454 S
C340 O353 1.058 . S
O341 C340 1.229 1_656 S
O342 Zn336 1.969 . S
O342 C345 1.267 . S
O343 Zn336 1.965 1_545 S
O343 C354 1.260 1_554 S
O344 Zn337 1.969 1_456 S
O344 C354 1.258 . S
C345 O342 1.267 . S
C345 O346 1.228 . S
O346 C345 1.228 . S
O347 Zn336 2.024 . S
O347 C338 1.058 . S
C348 O349 1.228 . S
C348 O350 1.267 1_554 S
O349 C348 1.228 . S
O350 Zn337 1.969 1_556 S
O350 C348 1.267 1_556 S
O351 Zn337 1.965 . S
O351 C355 1.260 1_655 S
O352 Zn336 1.960 1_545 S
O352 C355 1.274 . S
O353 Zn337 2.024 1_455 S
O353 C340 1.058 . S
C354 O343 1.260 1_556 S
C354 O344 1.258 . S
C355 O351 1.260 1_455 S
C355 O352 1.274 . S
Zn356 O362 1.969 . S
Zn356 O363 1.965 . S
Zn356 O367 2.024 . S
Zn356 O372 1.969 . S
Zn357 O364 1.969 . S
Zn357 O370 1.969 . S
Zn357 O371 1.965 . S
Zn357 O373 2.024 . S
C358 O359 1.229 . S
C358 O367 1.058 . S
O359 C358 1.229 . S
C360 O361 1.229 . S
C360 O373 1.058 . S
O361 C360 1.229 . S
O362 Zn356 1.969 . S
O362 C365 1.267 . S
O363 Zn356 1.965 . S
O363 C374 1.260 . S
O364 Zn357 1.969 . S
O364 C374 1.258 . S
C365 O362 1.267 . S
C365 O366 1.228 . S
O366 C365 1.228 . S
O367 Zn356 2.024 . S
O367 C358 1.058 . S
C368 O369 1.228 . S
C368 O370 1.267 . S
O369 C368 1.228 . S
O370 Zn357 1.969 . S
O370 C368 1.267 . S
O371 Zn357 1.965 . S
O371 C375 1.260 . S
O372 Zn356 1.969 . S
O372 C375 1.258 . S
O373 Zn357 2.024 . S
O373 C360 1.058 . S
C374 O363 1.260 . S
C374 O364 1.258 . S
C375 O371 1.260 . S
C375 O372 1.258 . S
Zn376 O382 1.969 . S
Zn376 O383 1.965 . S
Zn376 O387 2.024 . S
Zn376 O392 1.969 . S
Zn377 O384 1.969 . S
Zn377 O390 1.969 . S
Zn377 O391 1.965 1_565 S
Zn377 O393 2.024 . S
C378 O379 1.229 . S
C378 O387 1.058 . S
O379 C378 1.229 . S
C380 O381 1.229 . S
C380 O393 1.058 . S
O381 C380 1.229 . S
O382 Zn376 1.969 . S
O382 C385 1.267 . S
O383 Zn376 1.965 . S
O383 C394 1.260 . S
O384 Zn377 1.969 . S
O384 C394 1.258 1_565 S
C385 O382 1.267 . S
C385 O386 1.228 . S
O386 C385 1.228 . S
O387 Zn376 2.024 . S
O387 C378 1.058 . S
C388 O389 1.228 . S
C388 O390 1.267 . S
O389 C388 1.228 . S
O390 Zn377 1.969 . S
O390 C388 1.267 . S
O391 Zn377 1.965 1_545 S
O391 C395 1.260 . S
O392 Zn376 1.969 . S
O392 C395 1.258 . S
O393 Zn377 2.024 . S
O393 C380 1.058 . S
C394 O383 1.260 . S
C394 O384 1.258 1_545 S
C395 O391 1.260 . S
C395 O392 1.258 . S
Zn396 O402 1.969 . S
Zn396 O403 1.965 . S
Zn396 O407 2.024 . S
Zn396 O412 1.969 . S
Zn397 O404 1.969 . S
Zn397 O410 1.969 . S
Zn397 O411 1.965 . S
Zn397 O413 2.024 . S
C398 O399 1.229 . S
C398 O407 1.058 . S
O399 C398 1.229 . S
C400 O401 1.229 . S
C400 O413 1.058 . S
O401 C400 1.229 . S
O402 Zn396 1.969 . S
O402 C405 1.267 . S
O403 Zn396 1.965 . S
O403 C414 1.260 . S
O404 Zn397 1.969 . S
O404 C414 1.258 . S
C405 O402 1.267 . S
C405 O406 1.228 . S
O406 C405 1.228 . S
O407 Zn396 2.024 . S
O407 C398 1.058 . S
C408 O409 1.228 . S
C408 O410 1.267 . S
O409 C408 1.228 . S
O410 Zn397 1.969 . S
O410 C408 1.267 . S
O411 Zn397 1.965 . S
O411 C415 1.260 . S
O412 Zn396 1.969 . S
O412 C415 1.258 . S
O413 Zn397 2.024 . S
O413 C400 1.058 . S
C414 O403 1.260 . S
C414 O404 1.258 . S
C415 O411 1.260 . S
C415 O412 1.258 . S
Zn416 O422 1.969 . S
Zn416 O423 1.965 1_455 S
Zn416 O427 2.024 1_565 S
Zn416 O432 1.969 1_565 S
Zn417 O424 1.969 1_455 S
Zn417 O430 1.969 1_455 S
Zn417 O431 1.965 . S
Zn417 O433 2.024 . S
C418 O419 1.229 1_545 S
C418 O427 1.058 . S
O419 C418 1.229 1_565 S
C420 O421 1.229 . S
C420 O433 1.058 1_655 S
O421 C420 1.229 . S
O422 Zn416 1.969 . S
O422 C425 1.267 . S
O423 Zn416 1.965 1_655 S
O423 C434 1.260 . S
O424 Zn417 1.969 1_655 S
O424 C434 1.258 1_545 S
C425 O422 1.267 . S
C425 O426 1.228 . S
O426 C425 1.228 . S
O427 Zn416 2.024 1_545 S
O427 C418 1.058 . S
C428 O429 1.228 . S
C428 O430 1.267 1_455 S
O429 C428 1.228 . S
O430 Zn417 1.969 1_655 S
O430 C428 1.267 1_655 S
O431 Zn417 1.965 . S
O431 C435 1.260 . S
O432 Zn416 1.969 1_545 S
O432 C435 1.258 . S
O433 Zn417 2.024 . S
O433 C420 1.058 1_455 S
C434 O423 1.260 . S
C434 O424 1.258 1_565 S
C435 O431 1.260 . S
C435 O432 1.258 . S
Zn436 O442 1.969 . S
Zn436 O443 1.965 . S
Zn436 O447 2.024 . S
Zn436 O452 1.969 . S
Zn437 O444 1.969 . S
Zn437 O450 1.969 . S
Zn437 O451 1.965 . S
Zn437 O453 2.024 . S
C438 O439 1.229 . S
C438 O447 1.058 . S
O439 C438 1.229 . S
C440 O441 1.229 . S
C440 O453 1.058 . S
O441 C440 1.229 . S
O442 Zn436 1.969 . S
O442 C445 1.267 . S
O443 Zn436 1.965 . S
O443 C454 1.260 . S
O444 Zn437 1.969 . S
O444 C454 1.258 . S
C445 O442 1.267 . S
C445 O446 1.228 . S
O446 C445 1.228 . S
O447 Zn436 2.024 . S
O447 C438 1.058 . S
C448 O449 1.228 . S
C448 O450 1.267 . S
O449 C448 1.228 . S
O450 Zn437 1.969 . S
O450 C448 1.267 . S
O451 Zn437 1.965 . S
O451 C455 1.260 . S
O452 Zn436 1.969 . S
O452 C455 1.258 . S
O453 Zn437 2.024 . S
O453 C440 1.058 . S
C454 O443 1.260 . S
C454 O444 1.258 . S
C455 O451 1.260 . S
C455 O452 1.258 . S
Zn456 O462 1.969 . S
Zn456 O463 1.965 1_545 S
Zn456 O467 2.024 1_556 S
Zn456 O472 1.969 1_556 S
Zn457 O464 1.969 . S
Zn457 O470 1.969 . S
Zn457 O471 1.965 1_565 S
Zn457 O473 2.024 . S
C458 O459 1.229 . S
C458 O467 1.058 . S
O459 C458 1.229 . S
C460 O461 1.229 . S
C460 O473 1.058 . S
O461 C460 1.229 . S
O462 Zn456 1.969 . S
O462 C465 1.267 . S
O463 Zn456 1.965 1_565 S
O463 C474 1.260 1_556 S
O464 Zn457 1.969 . S
O464 C474 1.258 . S
C465 O462 1.267 . S
C465 O466 1.228 . S
O466 C465 1.228 . S
O467 Zn456 2.024 1_554 S
O467 C458 1.058 . S
C468 O469 1.228 . S
C468 O470 1.267 1_545 S
O469 C468 1.228 . S
O470 Zn457 1.969 . S
O470 C468 1.267 1_565 S
O471 Zn457 1.965 1_545 S
O471 C475 1.260 . S
O472 Zn456 1.969 1_554 S
O472 C475 1.258 . S
O473 Zn457 2.024 . S
O473 C460 1.058 . S
C474 O463 1.260 1_554 S
C474 O464 1.258 . S
C475 O471 1.260 . S
C475 O472 1.258 . S
Zn476 O482 1.969 . S
Zn476 O483 1.965 . S
Zn476 O487 2.024 . S
Zn476 O492 1.969 . S
Zn477 O484 1.969 . S
Zn477 O490 1.969 . S
Zn477 O491 1.965 . S
Zn477 O493 2.024 . S
C478 O479 1.229 . S
C478 O487 1.058 . S
O479 C478 1.229 . S
C480 O481 1.229 . S
C480 O493 1.058 . S
O481 C480 1.229 . S
O482 Zn476 1.969 . S
O482 C485 1.267 . S
O483 Zn476 1.965 . S
O483 C494 1.260 . S
O484 Zn477 1.969 . S
O484 C494 1.258 . S
C485 O482 1.267 . S
C485 O486 1.228 . S
O486 C485 1.228 . S
O487 Zn476 2.024 . S
O487 C478 1.058 . S
C488 O489 1.228 . S
C488 O490 1.267 . S
O489 C488 1.228 . S
O490 Zn477 1.969 . S
O490 C488 1.267 . S
O491 Zn477 1.965 . S
O491 C495 1.260 . S
O492 Zn476 1.969 . S
O492 C495 1.258 . S
O493 Zn477 2.024 . S
O493 C480 1.058 . S
C494 O483 1.260 . S
C494 O484 1.258 . S
C495 O491 1.260 . S
C495 O492 1.258 . S
Zn496 O502 1.969 . S
Zn496 O503 1.965 . S
Zn496 O507 2.024 . S
Zn496 O512 1.969 . S
Zn497 O504 1.969 1_556 S
Zn497 O510 1.969 1_556 S
Zn497 O511 1.965 1_556 S
Zn497 O513 2.024 . S
C498 O499 1.229 . S
C498 O507 1.058 . S
O499 C498 1.229 . S
C500 O501 1.229 . S
C500 O513 1.058 . S
O501 C500 1.229 . S
O502 Zn496 1.969 . S
O502 C505 1.267 . S
O503 Zn496 1.965 . S
O503 C514 1.260 . S
O504 Zn497 1.969 1_554 S
O504 C514 1.258 . S
C505 O502 1.267 . S
C505 O506 1.228 . S
O506 C505 1.228 . S
O507 Zn496 2.024 . S
O507 C498 1.058 . S
C508 O509 1.228 . S
C508 O510 1.267 1_556 S
O509 C508 1.228 . S
O510 Zn497 1.969 1_554 S
O510 C508 1.267 1_554 S
O511 Zn497 1.965 1_554 S
O511 C515 1.260 . S
O512 Zn496 1.969 . S
O512 C515 1.258 . S
O513 Zn497 2.024 . S
O513 C500 1.058 . S
C514 O503 1.260 . S
C514 O504 1.258 . S
C515 O511 1.260 . S
C515 O512 1.258 . S
Zn516 O522 1.969 . S
Zn516 O523 1.965 . S
Zn516 O527 2.024 . S
Zn516 O532 1.969 . S
Zn517 O524 1.969 . S
Zn517 O530 1.969 . S
Zn517 O531 1.965 . S
Zn517 O533 2.024 . S
C518 O519 1.229 . S
C518 O527 1.058 . S
O519 C518 1.229 . S
C520 O521 1.229 . S
C520 O533 1.058 . S
O521 C520 1.229 . S
O522 Zn516 1.969 . S
O522 C525 1.267 . S
O523 Zn516 1.965 . S
O523 C534 1.260 . S
O524 Zn517 1.969 . S
O524 C534 1.258 . S
C525 O522 1.267 . S
C525 O526 1.228 . S
O526 C525 1.228 . S
O527 Zn516 2.024 . S
O527 C518 1.058 . S
C528 O529 1.228 . S
C528 O530 1.267 . S
O529 C528 1.228 . S
O530 Zn517 1.969 . S
O530 C528 1.267 . S
O531 Zn517 1.965 . S
O531 C535 1.260 . S
O532 Zn516 1.969 . S
O532 C535 1.258 . S
O533 Zn517 2.024 . S
O533 C520 1.058 . S
C534 O523 1.260 . S
C534 O524 1.258 . S
C535 O531 1.260 . S
C535 O532 1.258 . S
Zn536 O542 1.969 . S
Zn536 O543 1.965 . S
Zn536 O547 2.024 . S
Zn536 O552 1.969 . S
Zn537 O544 1.969 1_655 S
Zn537 O550 1.969 . S
Zn537 O551 1.965 1_655 S
Zn537 O553 2.024 . S
C538 O539 1.229 . S
C538 O547 1.058 . S
O539 C538 1.229 . S
C540 O541 1.229 . S
C540 O553 1.058 . S
O541 C540 1.229 . S
O542 Zn536 1.969 . S
O542 C545 1.267 . S
O543 Zn536 1.965 . S
O543 C554 1.260 . S
O544 Zn537 1.969 1_455 S
O544 C554 1.258 . S
C545 O542 1.267 . S
C545 O546 1.228 . S
O546 C545 1.228 . S
O547 Zn536 2.024 . S
O547 C538 1.058 . S
C548 O549 1.228 . S
C548 O550 1.267 . S
O549 C548 1.228 . S
O550 Zn537 1.969 . S
O550 C548 1.267 . S
O551 Zn537 1.965 1_455 S
O551 C555 1.260 . S
O552 Zn536 1.969 . S
O552 C555 1.258 . S
O553 Zn537 2.024 . S
O553 C540 1.058 . S
C554 O543 1.260 . S
C554 O544 1.258 . S
C555 O551 1.260 . S
C555 O552 1.258 . S
Zn556 O562 1.969 . S
Zn556 O563 1.965 . S
Zn556 O567 2.024 . S
Zn556 O572 1.969 . S
Zn557 O564 1.969 . S
Zn557 O570 1.969 . S
Zn557 O571 1.965 . S
Zn557 O573 2.024 . S
C558 O559 1.229 . S
C558 O567 1.058 . S
O559 C558 1.229 . S
C560 O561 1.229 . S
C560 O573 1.058 . S
O561 C560 1.229 . S
O562 Zn556 1.969 . S
O562 C565 1.267 . S
O563 Zn556 1.965 . S
O563 C574 1.260 . S
O564 Zn557 1.969 . S
O564 C574 1.258 . S
C565 O562 1.267 . S
C565 O566 1.228 . S
O566 C565 1.228 . S
O567 Zn556 2.024 . S
O567 C558 1.058 . S
C568 O569 1.228 . S
C568 O570 1.267 . S
O569 C568 1.228 . S
O570 Zn557 1.969 . S
O570 C568 1.267 . S
O571 Zn557 1.965 . S
O571 C575 1.260 . S
O572 Zn556 1.969 . S
O572 C575 1.258 . S
O573 Zn557 2.024 . S
O573 C560 1.058 . S
C574 O563 1.260 . S
C574 O564 1.258 . S
C575 O571 1.260 . S
C575 O572 1.258 . S
Zn576 O582 1.969 . S
Zn576 O583 1.965 . S
Zn576 O587 2.024 . S
Zn576 O592 1.969 . S
Zn577 O584 1.969 . S
Zn577 O590 1.969 . S
Zn577 O591 1.965 . S
Zn577 O593 2.024 . S
C578 O579 1.229 . S
C578 O587 1.058 . S
O579 C578 1.229 . S
C580 O581 1.229 . S
C580 O593 1.058 . S
O581 C580 1.229 . S
O582 Zn576 1.969 . S
O582 C585 1.267 . S
O583 Zn576 1.965 . S
O583 C594 1.260 . S
O584 Zn577 1.969 . S
O584 C594 1.258 . S
C585 O582 1.267 . S
C585 O586 1.228 . S
O586 C585 1.228 . S
O587 Zn576 2.024 . S
O587 C578 1.058 . S
C588 O589 1.228 . S
C588 O590 1.267 . S
O589 C588 1.228 . S
O590 Zn577 1.969 . S
O590 C588 1.267 . S
O591 Zn577 1.965 . S
O591 C595 1.260 . S
O592 Zn576 1.969 . S
O592 C595 1.258 . S
O593 Zn577 2.024 . S
O593 C580 1.058 . S
C594 O583 1.260 . S
C594 O584 1.258 . S
C595 O591 1.260 . S
C595 O592 1.258 . S
Zn596 O602 1.969 . S
Zn596 O603 1.965 . S
Zn596 O607 2.024 . S
Zn596 O612 1.969 . S
Zn597 O604 1.969 . S
Zn597 O610 1.969 . S
Zn597 O611 1.965 . S
Zn597 O613 2.024 . S
C598 O599 1.229 . S
C598 O607 1.058 . S
O599 C598 1.229 . S
C600 O601 1.229 . S
C600 O613 1.058 . S
O601 C600 1.229 . S
O602 Zn596 1.969 . S
O602 C605 1.267 . S
O603 Zn596 1.965 . S
O603 C614 1.260 . S
O604 Zn597 1.969 . S
O604 C614 1.258 . S
C605 O602 1.267 . S
C605 O606 1.228 . S
O606 C605 1.228 . S
O607 Zn596 2.024 . S
O607 C598 1.058 . S
C608 O609 1.228 . S
C608 O610 1.267 . S
O609 C608 1.228 . S
O610 Zn597 1.969 . S
O610 C608 1.267 . S
O611 Zn597 1.965 . S
O611 C615 1.260 . S
O612 Zn596 1.969 . S
O612 C615 1.258 . S
O613 Zn597 2.024 . S
O613 C600 1.058 . S
C614 O603 1.260 . S
C614 O604 1.258 . S
C615 O611 1.260 . S
C615 O612 1.258 . S
Zn616 O622 1.969 . S
Zn616 O623 1.965 . S
Zn616 O627 2.024 . S
Zn616 O632 1.969 . S
Zn617 O624 1.969 . S
Zn617 O630 1.969 . S
Zn617 O631 1.965 . S
Zn617 O633 2.024 . S
C618 O619 1.229 . S
C618 O627 1.058 . S
O619 C618 1.229 . S
C620 O621 1.229 . S
C620 O633 1.058 . S
O621 C620 1.229 . S
O622 Zn616 1.969 . S
O622 C625 1.267 . S
O623 Zn616 1.965 . S
O623 C634 1.260 . S
O624 Zn617 1.969 . S
O624 C634 1.258 . S
C625 O622 1.267 . S
C625 O626 1.228 . S
O626 C625 1.228 . S
O627 Zn616 2.024 . S
O627 C618 1.058 . S
C628 O629 1.228 . S
C628 O630 1.267 . S
O629 C628 1.228 . S
O630 Zn617 1.969 . S
O630 C628 1.267 . S
O631 Zn617 1.965 . S
O631 C635 1.260 . S
O632 Zn616 1.969 . S
O632 C635 1.258 . S
O633 Zn617 2.024 . S
O633 C620 1.058 . S
C634 O623 1.260 . S
C634 O624 1.258 . S
C635 O631 1.260 . S
C635 O632 1.258 . S
Zn636 O642 1.969 . S
Zn636 O643 1.965 . S
Zn636 O647 2.024 1_655 S
Zn636 O652 1.969 1_655 S
Zn637 O644 1.969 1_554 S
Zn637 O650 1.969 . S
Zn637 O651 1.965 . S
Zn637 O653 2.024 . S
C638 O639 1.229 . S
C638 O647 1.058 . S
O639 C638 1.229 . S
C640 O641 1.229 . S
C640 O653 1.058 1_556 S
O641 C640 1.229 . S
O642 Zn636 1.969 . S
O642 C645 1.267 . S
O643 Zn636 1.965 . S
O643 C654 1.260 1_654 S
O644 Zn637 1.969 1_556 S
O644 C654 1.258 . S
C645 O642 1.267 . S
C645 O646 1.228 . S
O646 C645 1.228 . S
O647 Zn636 2.024 1_455 S
O647 C638 1.058 . S
C648 O649 1.228 . S
C648 O650 1.267 . S
O649 C648 1.228 . S
O650 Zn637 1.969 . S
O650 C648 1.267 . S
O651 Zn637 1.965 . S
O651 C655 1.260 . S
O652 Zn636 1.969 1_455 S
O652 C655 1.258 . S
O653 Zn637 2.024 . S
O653 C640 1.058 1_554 S
C654 O643 1.260 1_456 S
C654 O644 1.258 . S
C655 O651 1.260 . S
C655 O652 1.258 . S
C109 C340 1.946 1_656 S
C65 C375 1.812 . S
C75 C380 1.156 . S
C405 C84 1.405 . S
C25 C425 1.418 . S
C440 C28 1.126 . S
C475 C47 1.840 . S
C9 C480 2.053 . S
C355 C233 2.407 1_445 S
C249 C365 1.149 . S
C395 C275 1.667 1_545 S
C400 C173 1.140 . S
C224 C420 1.202 . S
C455 C243 1.634 . S
C465 C266 1.102 . S
C495 C179 2.232 . S
C345 C163 2.354 . S
C289 C515 2.294 1_556 S
C525 C333 1.836 . S
C540 C308 1.188 . S
C123 C485 2.277 . S
C126 C385 1.820 . S
C327 C575 2.335 . S
C580 C299 1.188 . S
C338 C67 1.896 . S
C594 C98 1.721 . S
C89 C378 1.131 . S
C79 C568 1.461 . S
C428 C11 1.484 . S
C51 C518 1.123 . S
C474 C33 1.903 1_554 S
C598 C14 1.862 . S
C354 C140 2.280 . S
C588 C319 1.269 . S
C112 C394 1.548 . S
C285 C558 1.133 . S
C149 C418 1.183 . S
C534 C313 1.670 . S
C121 C468 1.184 . S
C291 C614 2.212 . S
C182 C348 2.282 . S
C168 C514 2.172 . S
C263 C448 1.941 . S
C247 C538 1.144 . S
C608 C277 2.291 . S
C219 C388 1.976 . S
C414 C257 2.393 . S
C358 C201 1.137 . S
C81 C620 1.946 . S
C595 C93 1.812 . S
C103 C640 1.156 . S
C56 C565 1.405 . S
C53 C505 1.418 . S
C520 C0 1.126 . S
C555 C19 1.841 . S
C600 C37 2.053 . S
C635 C261 2.407 . S
C193 C585 1.149 . S
C655 C205 1.667 . S
C560 C215 1.140 . S
C500 C252 1.203 . S
C187 C535 1.634 . S
C545 C196 1.102 . S
C221 C615 2.232 . S
C625 C317 2.354 . S
C135 C435 2.295 . S
C445 C151 1.836 . S
C460 C154 1.188 . S
C605 C305 2.277 . S
C280 C645 1.819 . S
C415 C145 2.335 . S
C360 C117 1.188 . S
C95 C618 1.896 . S
C374 C70 1.719 . S
C61 C638 1.130 . S
C107 C408 1.460 . S
C39 C508 1.484 . S
C438 C23 1.123 . S
C5 C554 1.903 . S
C42 C478 1.862 . S
C634 C322 2.280 . S
C165 C368 1.269 . S
C654 C294 1.548 1_455 S
C131 C398 1.135 . S
C331 C498 1.183 . S
C454 C159 1.670 . S
C303 C548 1.183 . S
C494 C137 2.211 . S
C628 C238 2.282 . S
C434 C210 2.172 . S
C235 C528 1.940 . S
C458 C191 1.143 . S
C207 C488 2.291 . S
C177 C648 1.977 . S
C574 C229 2.394 . S
C578 C271 1.137 . S
