# Generated by pormake.
# Topology ssb, (4,4)-cn, num edge types: 1
# Building blocks:
#     Node 0, Type 0, BuildingBlock: ESEHIV_clean_sbu_0, # of connection points: 4
#     Node 1, Type 0, BuildingBlock: ESEHIV_clean_sbu_0, # of connection points: 4
#     Node 2, Type 0, BuildingBlock: ESEHIV_clean_sbu_0, # of connection points: 4
#     Node 3, Type 0, BuildingBlock: ESEHIV_clean_sbu_0, # of connection points: 4
#     Node 4, Type 0, BuildingBlock: ESEHIV_clean_sbu_0, # of connection points: 4
#     Node 5, Type 0, BuildingBlock: ESEHIV_clean_sbu_0, # of connection points: 4
#     Node 6, Type 0, BuildingBlock: ESEHIV_clean_sbu_0, # of connection points: 4
#     Node 7, Type 0, BuildingBlock: ESEHIV_clean_sbu_0, # of connection points: 4
#     Node 8, Type 1, BuildingBlock: NAWXER_clean_sbu_0, # of connection points: 4
#     Node 9, Type 1, BuildingBlock: NAWXER_clean_sbu_0, # of connection points: 4
#     Node 10, Type 1, BuildingBlock: NAWXER_clean_sbu_0, # of connection points: 4
#     Node 11, Type 1, BuildingBlock: NAWXER_clean_sbu_0, # of connection points: 4
#     Node 12, Type 1, BuildingBlock: NAWXER_clean_sbu_0, # of connection points: 4
#     Node 13, Type 1, BuildingBlock: NAWXER_clean_sbu_0, # of connection points: 4
#     Node 14, Type 1, BuildingBlock: NAWXER_clean_sbu_0, # of connection points: 4
#     Node 15, Type 1, BuildingBlock: NAWXER_clean_sbu_0, # of connection points: 4
#     Edge 16, Type (0, 1), BuildingBlock: OJICUG_clean_linker_0, # of connection points: 2
#     Edge 17, Type (0, 1), BuildingBlock: OJICUG_clean_linker_0, # of connection points: 2
#     Edge 18, Type (0, 1), BuildingBlock: OJICUG_clean_linker_0, # of connection points: 2
#     Edge 19, Type (0, 1), BuildingBlock: OJICUG_clean_linker_0, # of connection points: 2
#     Edge 20, Type (0, 1), BuildingBlock: OJICUG_clean_linker_0, # of connection points: 2
#     Edge 21, Type (0, 1), BuildingBlock: OJICUG_clean_linker_0, # of connection points: 2
#     Edge 22, Type (0, 1), BuildingBlock: OJICUG_clean_linker_0, # of connection points: 2
#     Edge 23, Type (0, 1), BuildingBlock: OJICUG_clean_linker_0, # of connection points: 2
#     Edge 24, Type (0, 1), BuildingBlock: OJICUG_clean_linker_0, # of connection points: 2
#     Edge 25, Type (0, 1), BuildingBlock: OJICUG_clean_linker_0, # of connection points: 2
#     Edge 26, Type (0, 1), BuildingBlock: OJICUG_clean_linker_0, # of connection points: 2
#     Edge 27, Type (0, 1), BuildingBlock: OJICUG_clean_linker_0, # of connection points: 2
#     Edge 28, Type (0, 1), BuildingBlock: OJICUG_clean_linker_0, # of connection points: 2
#     Edge 29, Type (0, 1), BuildingBlock: OJICUG_clean_linker_0, # of connection points: 2
#     Edge 30, Type (0, 1), BuildingBlock: OJICUG_clean_linker_0, # of connection points: 2
#     Edge 31, Type (0, 1), BuildingBlock: OJICUG_clean_linker_0, # of connection points: 2
#     Edge 32, Type (0, 1), BuildingBlock: OJICUG_clean_linker_0, # of connection points: 2
#     Edge 33, Type (0, 1), BuildingBlock: OJICUG_clean_linker_0, # of connection points: 2
#     Edge 34, Type (0, 1), BuildingBlock: OJICUG_clean_linker_0, # of connection points: 2
#     Edge 35, Type (0, 1), BuildingBlock: OJICUG_clean_linker_0, # of connection points: 2
#     Edge 36, Type (0, 1), BuildingBlock: OJICUG_clean_linker_0, # of connection points: 2
#     Edge 37, Type (0, 1), BuildingBlock: OJICUG_clean_linker_0, # of connection points: 2
#     Edge 38, Type (0, 1), BuildingBlock: OJICUG_clean_linker_0, # of connection points: 2
#     Edge 39, Type (0, 1), BuildingBlock: OJICUG_clean_linker_0, # of connection points: 2
#     Edge 40, Type (0, 1), BuildingBlock: OJICUG_clean_linker_0, # of connection points: 2
#     Edge 41, Type (0, 1), BuildingBlock: OJICUG_clean_linker_0, # of connection points: 2
#     Edge 42, Type (0, 1), BuildingBlock: OJICUG_clean_linker_0, # of connection points: 2
#     Edge 43, Type (0, 1), BuildingBlock: OJICUG_clean_linker_0, # of connection points: 2
#     Edge 44, Type (0, 1), BuildingBlock: OJICUG_clean_linker_0, # of connection points: 2
#     Edge 45, Type (0, 1), BuildingBlock: OJICUG_clean_linker_0, # of connection points: 2
#     Edge 46, Type (0, 1), BuildingBlock: OJICUG_clean_linker_0, # of connection points: 2
#     Edge 47, Type (0, 1), BuildingBlock: OJICUG_clean_linker_0, # of connection points: 2
# Relax obj value: 0.004
# Max RMSD: 0.103
# Mean RMSD: 0.052
data_MOF--net-ssb--node1-ESEHIV_clean_sbu_0--node2-NAWXER_clean_sbu_0--edge1-OJICUG_clean_linker_0
_symmetry_space_group_name_H-M    P1
_symmetry_Int_Tables_number       1
_symmetry_cell_setting            triclinic
loop_
_symmetry_equiv_pos_as_xyz
'x, y, z'
_cell_length_a     33.535338
_cell_length_b     33.714872
_cell_length_c     28.393304
_cell_angle_alpha  90.34142
_cell_angle_beta   90.211735
_cell_angle_gamma 90.557319
loop_
_atom_site_label
_atom_site_type_symbol
_atom_site_fract_x
_atom_site_fract_y
_atom_site_fract_z
_atom_type_partial_charge
Cu0 Cu 0.33737 0.25217 0.28855 0.0
N1 N 0.33163 0.19677 0.28665 0.0
N2 N 0.3169 0.13701 0.31567 0.0
C3 C 0.32763 0.17468 0.32572 0.0
C4 C 0.31474 0.13476 0.26832 0.0
C5 C 0.32337 0.17196 0.25042 0.0
O6 O 0.31008 0.26768 0.34694 0.0
C7 C 0.41378 0.25018 0.24952 0.0
O8 O 0.39961 0.21628 0.23344 0.0
H9 H 0.33067 0.1865 0.3611 0.0
H10 H 0.32192 0.18071 0.21387 0.0
N11 N 0.3114 0.27676 0.23894 0.0
N12 N 0.29786 0.3251 0.18822 0.0
C13 C 0.32235 0.3126 0.22259 0.0
C14 C 0.279 0.26584 0.21383 0.0
C15 C 0.27042 0.29582 0.18255 0.0
C16 C 0.27501 0.25278 0.35143 0.0
O17 O 0.25977 0.23214 0.31623 0.0
H18 H 0.34702 0.32982 0.23692 0.0
H19 H 0.26244 0.23846 0.21847 0.0
O20 O 0.39313 0.26952 0.27942 0.0
H21 H 0.30554 0.10875 0.24839 0.0
H22 H 0.24576 0.2962 0.15786 0.0
Cu23 Cu 0.87003 0.30041 0.27133 0.0
N24 N 0.84467 0.27382 0.22111 0.0
N25 N 0.79497 0.26016 0.17006 0.0
C26 C 0.80922 0.28524 0.20362 0.0
C27 C 0.82284 0.23158 0.16649 0.0
C28 C 0.85341 0.24005 0.19807 0.0
O29 O 0.86279 0.35696 0.25994 0.0
C30 C 0.86508 0.24541 0.34238 0.0
O31 O 0.89149 0.22915 0.31442 0.0
H32 H 0.79363 0.31096 0.21672 0.0
H33 H 0.87962 0.2224 0.20442 0.0
N34 N 0.92544 0.29639 0.27554 0.0
N35 N 0.98531 0.31235 0.30522 0.0
C36 C 0.94569 0.31785 0.30784 0.0
C37 C 0.9531 0.2764 0.25105 0.0
C38 C 0.99023 0.28598 0.26966 0.0
C39 C 0.88455 0.36944 0.22613 0.0
O40 O 0.90575 0.34367 0.20234 0.0
H41 H 0.93121 0.3364 0.33376 0.0
H42 H 0.94681 0.25636 0.22204 0.0
O43 O 0.84957 0.27835 0.33032 0.0
H44 H 0.82132 0.20626 0.14294 0.0
H45 H 1.0185 0.27424 0.25813 0.0
Cu46 Cu 0.78576 0.82305 0.30821 0.0
N47 N 0.80948 0.80076 0.25503 0.0
N48 N 0.81313 0.75568 0.19692 0.0
C49 C 0.80068 0.7634 0.24112 0.0
C50 C 0.8313 0.78964 0.1829 0.0
C51 C 0.82883 0.81743 0.21874 0.0
O52 O 0.73287 0.79824 0.30712 0.0
C53 C 0.84935 0.84194 0.36669 0.0
O54 O 0.85457 0.86718 0.33214 0.0
H55 H 0.78374 0.74298 0.26261 0.0
H56 H 0.83845 0.84809 0.21733 0.0
N57 N 0.77553 0.87739 0.3052 0.0
N58 N 0.75732 0.9356 0.33573 0.0
C59 C 0.76136 0.89644 0.34306 0.0
C60 C 0.78013 0.90534 0.27188 0.0
C61 C 0.76883 0.9415 0.29078 0.0
C62 C 0.71537 0.80789 0.26886 0.0
O63 O 0.73351 0.83214 0.2398 0.0
H64 H 0.75507 0.88165 0.37598 0.0
H65 H 0.79158 0.90009 0.23689 0.0
O66 O 0.82058 0.81677 0.36361 0.0
H67 H 0.84387 0.79491 0.14845 0.0
H68 H 0.77077 0.97003 0.27361 0.0
Cu69 Cu 0.28069 0.78503 0.27749 0.0
N70 N 0.30077 0.82261 0.23568 0.0
N71 N 0.34974 0.85029 0.19351 0.0
C72 C 0.33169 0.81612 0.20681 0.0
C73 C 0.32808 0.87948 0.21331 0.0
C74 C 0.29805 0.86229 0.23956 0.0
O75 O 0.27944 0.73245 0.24746 0.0
C76 C 0.34629 0.80694 0.33833 0.0
O77 O 0.36748 0.81211 0.30005 0.0
H78 H 0.34312 0.78676 0.20003 0.0
H79 H 0.27853 0.87749 0.26379 0.0
N80 N 0.22929 0.79836 0.29579 0.0
N81 N 0.17563 0.80418 0.34142 0.0
C82 C 0.21173 0.78744 0.33631 0.0
C83 C 0.20348 0.82268 0.27435 0.0
C84 C 0.1703 0.82634 0.30246 0.0
C85 C 0.24968 0.72293 0.22135 0.0
O86 O 0.22083 0.74856 0.21583 0.0
H87 H 0.22597 0.76906 0.36245 0.0
H88 H 0.20881 0.83731 0.24113 0.0
O89 O 0.31222 0.78984 0.33532 0.0
H90 H 0.33582 0.91071 0.21298 0.0
H91 H 0.14453 0.8444 0.29512 0.0
Cu92 Cu 0.28714 0.78761 0.80534 0.0
N93 N 0.32944 0.81514 0.83375 0.0
N94 N 0.38848 0.82711 0.86805 0.0
C95 C 0.36476 0.79982 0.84673 0.0
C96 C 0.36735 0.86105 0.86776 0.0
C97 C 0.33097 0.85356 0.84654 0.0
O98 O 0.28591 0.73369 0.83074 0.0
C99 C 0.27003 0.78832 0.70717 0.0
O100 O 0.23529 0.77245 0.71782 0.0
H101 H 0.3725 0.76902 0.84145 0.0
H102 H 0.30698 0.87437 0.8417 0.0
N103 N 0.23877 0.81414 0.81501 0.0
N104 N 0.18197 0.84297 0.79158 0.0
C105 C 0.22145 0.83873 0.7838 0.0
C106 C 0.20986 0.80434 0.84552 0.0
C107 C 0.17496 0.82213 0.83137 0.0
C108 C 0.29502 0.72863 0.87396 0.0
O109 O 0.3017 0.75973 0.90102 0.0
H110 H 0.23651 0.84964 0.75289 0.0
H111 H 0.21297 0.78275 0.87329 0.0
O112 O 0.29748 0.78939 0.7383 0.0
H113 H 0.37679 0.88894 0.88347 0.0
H114 H 0.146 0.8171 0.84702 0.0
Cu115 Cu 0.31915 0.26107 0.80143 0.0
N116 N 0.28599 0.27988 0.84988 0.0
N117 N 0.25512 0.3268 0.8923 0.0
C118 C 0.27453 0.31803 0.85208 0.0
C119 C 0.25365 0.29227 0.91624 0.0
C120 C 0.27281 0.26337 0.89001 0.0
O121 O 0.37406 0.26667 0.82423 0.0
C122 C 0.26599 0.29159 0.74041 0.0
O123 O 0.24462 0.26657 0.76539 0.0
H124 H 0.28199 0.33941 0.82518 0.0
H125 H 0.27836 0.23313 0.9005 0.0
N126 N 0.31239 0.2069 0.78707 0.0
N127 N 0.31839 0.15014 0.74617 0.0
C128 C 0.31315 0.18984 0.74384 0.0
C129 C 0.31713 0.17688 0.81756 0.0
C130 C 0.32083 0.14192 0.7925 0.0
C131 C 0.38578 0.29601 0.84927 0.0
O132 O 0.36266 0.32704 0.85317 0.0
H133 H 0.31294 0.20649 0.71135 0.0
H134 H 0.32051 0.18054 0.85524 0.0
O135 O 0.30364 0.29288 0.74705 0.0
H136 H 0.24186 0.28866 0.9514 0.0
H137 H 0.32634 0.11288 0.8071 0.0
Cu138 Cu 0.80087 0.34485 0.775 0.0
N139 N 0.84205 0.36132 0.7339 0.0
N140 N 0.89803 0.36145 0.69027 0.0
C141 C 0.87577 0.34162 0.72246 0.0
C142 C 0.87714 0.39461 0.68104 0.0
C143 C 0.84283 0.39434 0.70762 0.0
O144 O 0.78168 0.2934 0.75342 0.0
C145 C 0.83877 0.37285 0.85527 0.0
O146 O 0.85858 0.39419 0.82453 0.0
H147 H 0.88379 0.31338 0.73754 0.0
H148 H 0.81969 0.41642 0.70709 0.0
N149 N 0.75807 0.37982 0.77989 0.0
N150 N 0.70621 0.39844 0.82445 0.0
C151 C 0.72487 0.36811 0.80269 0.0
C152 C 0.76029 0.41934 0.78696 0.0
C153 C 0.72826 0.43092 0.81419 0.0
C154 C 0.75486 0.29081 0.72162 0.0
O155 O 0.73884 0.32341 0.70536 0.0
H156 H 0.7183 0.33718 0.80954 0.0
H157 H 0.78611 0.43751 0.77905 0.0
O158 O 0.81709 0.34425 0.84053 0.0
H159 H 0.88551 0.4172 0.65592 0.0
H160 H 0.72392 0.46017 0.8291 0.0
Cu161 Cu 0.7934 0.82358 0.82033 0.0
N162 N 0.7813 0.77004 0.82919 0.0
N163 N 0.79414 0.70874 0.85493 0.0
C164 C 0.80761 0.74637 0.8508 0.0
C165 C 0.75737 0.70903 0.83493 0.0
C166 C 0.74955 0.74692 0.81904 0.0
O167 O 0.78077 0.84788 0.88094 0.0
C168 C 0.85304 0.79851 0.76544 0.0
O169 O 0.82144 0.78044 0.74772 0.0
H170 H 0.83622 0.75715 0.86325 0.0
H171 H 0.72259 0.75686 0.802 0.0
N172 N 0.76656 0.84919 0.77141 0.0
N173 N 0.7566 0.89635 0.71738 0.0
C174 C 0.78221 0.88074 0.74887 0.0
C175 C 0.72966 0.84426 0.75352 0.0
C176 C 0.72343 0.87332 0.72014 0.0
C177 C 0.75691 0.87683 0.8858 0.0
O178 O 0.74848 0.89884 0.84916 0.0
H179 H 0.8114 0.89292 0.75709 0.0
H180 H 0.70849 0.82187 0.76469 0.0
O181 O 0.84861 0.82229 0.80022 0.0
H182 H 0.73691 0.68409 0.83285 0.0
H183 H 0.69639 0.87727 0.69987 0.0
C184 C 0.04575 0.32078 0.59625 0.0
C185 C 0.16486 0.28162 0.50231 0.0
O186 O 0.06666 0.34946 0.57958 0.0
Zn187 Zn 0.11867 0.35955 0.53796 0.0
O188 O 0.05686 0.2853 0.58838 0.0
Zn189 Zn 0.10533 0.29669 0.55057 0.0
O190 O 0.14541 0.3234 0.59881 0.0
O191 O 0.15662 0.38637 0.58092 0.0
O192 O 0.14086 0.25696 0.52162 0.0
O193 O 0.15885 0.31882 0.50677 0.0
O194 O 0.09645 0.38322 0.48007 0.0
O195 O 0.08216 0.31945 0.48771 0.0
C196 C 0.16336 0.35639 0.6068 0.0
C197 C 0.08074 0.35135 0.4638 0.0
C198 C 0.74044 0.15106 0.6069 0.0
C199 C 0.74095 0.05463 0.47747 0.0
O200 O 0.7742 0.13462 0.60015 0.0
Zn201 Zn 0.80052 0.09272 0.55421 0.0
O202 O 0.71091 0.14181 0.58063 0.0
Zn203 Zn 0.73828 0.1034 0.54108 0.0
O204 O 0.75081 0.05502 0.58851 0.0
O205 O 0.8161 0.05044 0.59658 0.0
O206 O 0.71109 0.07551 0.48915 0.0
O207 O 0.7742 0.05889 0.49918 0.0
O208 O 0.83977 0.12439 0.52001 0.0
O209 O 0.77807 0.14085 0.5025 0.0
C210 C 0.78123 0.03763 0.60627 0.0
C211 C 0.81564 0.146 0.4971 0.0
C212 C 0.9831 0.7939 0.63825 0.0
C213 C 0.07649 0.80121 0.50608 0.0
O214 O 0.99082 0.82889 0.62348 0.0
Zn215 Zn 0.02528 0.85849 0.57188 0.0
O216 O 0.99802 0.76382 0.61755 0.0
Zn217 Zn 0.02945 0.79405 0.57237 0.0
O218 O 0.06784 0.82429 0.62062 0.0
O219 O 0.06182 0.88918 0.61368 0.0
O220 O 0.0658 0.76957 0.52698 0.0
O221 O 0.06339 0.83463 0.5205 0.0
O222 O 0.98328 0.88134 0.53191 0.0
O223 O 0.98305 0.81599 0.52856 0.0
C224 C 0.07742 0.85942 0.63397 0.0
C225 C 0.96819 0.84908 0.51583 0.0
C226 C 0.33465 0.03425 0.59756 0.0
C227 C 0.35346 0.92587 0.48139 0.0
O228 O 0.36756 1.01888 0.58525 0.0
Zn229 Zn 0.34758 0.98081 0.53765 0.0
O230 O 0.3022 0.02162 0.57859 0.0
Zn231 Zn 0.28349 0.97837 0.52793 0.0
O232 O 0.25221 0.93994 0.56454 0.0
O233 O 0.31692 0.93781 0.57858 0.0
O234 O 0.31742 0.93668 0.48803 0.0
O235 O 0.38204 0.94441 0.50196 0.0
O236 O 0.32574 1.01611 0.4815 0.0
O237 O 0.26 1.01069 0.4784 0.0
C238 C 0.28175 0.92392 0.58517 0.0
C239 C 0.29243 0.02493 0.46226 0.0
C240 C 0.50426 0.86023 0.10815 0.0
C241 C 0.63044 0.86656 1.0212 0.0
O242 O 0.52321 0.89199 0.09802 0.0
Zn243 Zn 0.56699 0.86556 0.06562 0.0
O244 O 0.51795 0.82655 0.09524 0.0
Zn245 Zn 0.56668 0.80194 0.05716 0.0
O246 O 0.591 0.7689 0.10538 0.0
O247 O 0.59327 0.83298 0.1223 0.0
O248 O 0.61685 0.83118 1.02627 0.0
O249 O 0.61105 0.89557 0.03802 0.0
O250 O 0.53518 0.84402 1.0058 0.0
O251 O 0.53766 0.77871 1.00356 0.0
C252 C 0.60019 0.79693 0.13376 0.0
C253 C 0.5253 0.81109 0.98615 0.0
C254 C 0.24596 0.58308 0.10168 0.0
C255 C 0.23737 0.47822 0.97948 0.0
O256 O 0.27965 0.57054 0.08713 0.0
Zn257 Zn 0.30274 0.53014 0.03679 0.0
O258 O 0.21403 0.56873 0.0837 0.0
Zn259 Zn 0.23818 0.5318 0.03861 0.0
O260 O 0.2649 0.48915 0.08262 0.0
O261 O 0.3304 0.49123 0.07629 0.0
O262 O 0.20741 0.49445 0.99899 0.0
O263 O 0.2727 0.49012 0.98994 0.0
O264 O 0.33021 0.56637 0.99417 0.0
O265 O 0.2647 0.57113 0.989 0.0
C266 C 0.29906 0.47534 0.09352 0.0
C267 C 0.29955 0.5821 0.97574 0.0
C268 C 0.60941 0.35773 0.98257 0.0
C269 C 0.5321 0.30836 0.11945 0.0
O270 O 0.59609 0.37973 1.01556 0.0
Zn271 Zn 0.57221 0.33623 0.053 0.0
O272 O 0.60499 0.32005 0.98513 0.0
Zn273 Zn 0.5795 0.27559 1.02894 0.0
O274 O 0.54048 0.25311 0.98401 0.0
O275 O 0.52832 0.31521 1.00363 0.0
O276 O 0.5453 0.28145 0.09166 0.0
O277 O 0.54013 0.34458 0.1107 0.0
O278 O 0.62495 0.30791 0.078 0.0
O279 O 0.62707 0.24687 0.05006 0.0
C280 C 0.51937 0.28413 0.97946 0.0
C281 C 0.64292 0.27462 0.07458 0.0
C282 C 0.80242 0.60639 0.09898 0.0
C283 C 0.81437 0.48108 1.0068 0.0
O284 O 0.83702 0.59611 0.08546 0.0
Zn285 Zn 0.86752 0.55215 0.0495 0.0
O286 O 0.77255 0.58344 0.09111 0.0
Zn287 Zn 0.80202 0.5417 0.05549 0.0
O288 O 0.83636 0.5157 0.10877 0.0
O289 O 0.9005 0.5282 0.09869 0.0
O290 O 0.78095 0.49323 1.02259 0.0
O291 O 0.84593 0.50135 1.01535 0.0
O292 O 0.88603 0.58406 0.99581 0.0
O293 O 0.82061 0.57486 0.99676 0.0
C294 C 0.87252 0.51181 0.12216 0.0
C295 C 0.85173 0.58939 0.97729 0.0
C296 C 0.21971 0.22979 0.40399 0.0
C297 C 0.2511 0.2569 0.39508 0.0
H298 H 0.16834 0.21557 0.44584 0.0
C299 C 0.25708 0.28875 0.42631 0.0
H300 H 0.21462 0.20454 0.3809 0.0
C301 C 0.23036 0.29506 0.4634 0.0
C302 C 0.19754 0.26929 0.47053 0.0
H303 H 0.28103 0.30996 0.42061 0.0
H304 H 0.2344 0.3212 0.48537 0.0
C305 C 0.19338 0.23574 0.44152 0.0
C306 C 0.81594 0.22854 0.40632 0.0
C307 C 0.8537 0.22412 0.38596 0.0
H308 H 0.7742 0.20705 0.45743 0.0
C309 C 0.88011 0.19635 0.4054 0.0
H310 H 0.79497 0.24961 0.39211 0.0
C311 C 0.86854 0.17237 0.44308 0.0
C312 C 0.82999 0.1751 0.46176 0.0
H313 H 0.9096 0.19247 0.39073 0.0
H314 H 0.88922 0.15051 0.45617 0.0
C315 C 0.80408 0.20401 0.4436 0.0
C316 C 0.88349 0.81151 0.43703 0.0
C317 C 0.87678 0.8443 0.40798 0.0
H318 H 0.91778 0.78732 0.4937 0.0
C319 C 0.89832 0.87969 0.41707 0.0
H320 H 0.86743 0.7839 0.43105 0.0
C321 C 0.92674 0.88194 0.45333 0.0
C322 C 0.93485 0.84863 0.48098 0.0
H323 H 0.89361 0.90571 0.39563 0.0
H324 H 0.94335 0.90934 0.45854 0.0
C325 C 0.91246 0.81354 0.47283 0.0
C326 C 0.33006 0.82961 0.41991 0.0
C327 C 0.35578 0.83099 0.38105 0.0
H328 H 0.3098 0.85867 0.48234 0.0
C329 C 0.38612 0.86034 0.38034 0.0
H330 H 0.30664 0.80734 0.42201 0.0
C331 C 0.38807 0.88989 0.41543 0.0
C332 C 0.35959 0.89049 0.45145 0.0
H333 H 0.40655 0.86223 0.35097 0.0
H334 H 0.40969 0.9138 0.4123 0.0
C335 C 0.33182 0.85912 0.45449 0.0
C336 C 0.16296 0.8801 0.71909 0.0
C337 C 0.15277 0.85435 0.7564 0.0
H338 H 0.1468 0.90268 0.6507 0.0
C339 C 0.11512 0.83562 0.75509 0.0
H340 H 0.19149 0.89538 0.71905 0.0
C341 C 0.08998 0.83979 0.71626 0.0
C342 C 0.10129 0.86318 0.67772 0.0
H343 H 0.1059 0.81543 0.78248 0.0
H344 H 0.0622 0.82307 0.71537 0.0
C345 C 0.13735 0.88458 0.68007 0.0
C346 C 0.3545 0.09416 0.70939 0.0
C347 C 0.32414 0.12268 0.70758 0.0
H348 H 0.38248 0.04457 0.67539 0.0
C349 C 0.2988 0.12316 0.66815 0.0
H350 H 0.37463 0.09336 0.73926 0.0
C351 C 0.30267 0.09473 0.63222 0.0
C352 C 0.33278 0.06594 0.63417 0.0
H353 H 0.27517 0.14474 0.66596 0.0
H354 H 0.28191 0.09515 0.6029 0.0
C355 C 0.35916 0.06645 0.67274 0.0
C356 C 0.96206 0.37988 0.65252 0.0
C357 C 0.93587 0.3504 0.66929 0.0
H358 H 1.01647 0.39387 0.61727 0.0
C359 C 0.94698 0.31039 0.66361 0.0
H360 H 0.95514 0.41096 0.65692 0.0
C361 C 0.98278 0.30035 0.64056 0.0
C362 C 1.00843 0.33009 0.62294 0.0
H363 H 0.92755 0.28684 0.67585 0.0
H364 H 0.99004 0.26935 0.63598 0.0
C365 C 0.9976 0.36996 0.62986 0.0
C366 C 0.80169 0.9453 0.67887 0.0
C367 C 0.76286 0.93161 0.68927 0.0
H368 H 0.83805 0.98928 0.64497 0.0
C369 C 0.73035 0.95354 0.67249 0.0
H370 H 0.82753 0.92905 0.69054 0.0
C371 C 0.73644 0.98806 0.64619 0.0
C372 C 0.77522 1.00173 0.63584 0.0
H373 H 0.70007 0.9444 0.68017 0.0
H374 H 0.71057 1.00402 0.63388 0.0
C375 C 0.80779 0.97989 0.65256 0.0
C376 C 0.89691 0.75972 0.71228 0.0
C377 C 0.89141 0.79324 0.74135 0.0
H378 H 0.93109 0.73317 0.65693 0.0
C379 C 0.92029 0.82346 0.74178 0.0
H380 H 0.87523 0.73568 0.71183 0.0
C381 C 0.95203 0.82201 0.71019 0.0
C382 C 0.95554 0.79014 0.67817 0.0
H383 H 0.91684 0.84946 0.76395 0.0
H384 H 0.97267 0.84692 0.70907 0.0
C385 C 0.92893 0.75806 0.68106 0.0
C386 C 0.30978 0.83523 0.65858 0.0
C387 C 0.27269 0.81787 0.66883 0.0
H388 H 0.34147 0.88218 0.6254 0.0
C389 C 0.23808 0.83424 0.64873 0.0
H390 H 0.33702 0.82341 0.67332 0.0
C391 C 0.2405 0.86873 0.62132 0.0
C392 C 0.27759 0.88726 0.61347 0.0
H393 H 0.20894 0.82171 0.65619 0.0
H394 H 0.2134 0.88127 0.6072 0.0
C395 C 0.31219 0.8694 0.63146 0.0
C396 C 0.20637 0.33173 0.72261 0.0
C397 C 0.24473 0.3195 0.7094 0.0
H398 H 0.15051 0.35528 0.69998 0.0
C399 C 0.25912 0.32977 0.6647 0.0
H400 H 0.19471 0.32471 0.75716 0.0
C401 C 0.23365 0.34788 0.63196 0.0
C402 C 0.19391 0.35634 0.64398 0.0
H403 H 0.28853 0.32061 0.65367 0.0
H404 H 0.24367 0.35146 0.59599 0.0
C405 C 0.18121 0.34991 0.69022 0.0
C406 C 0.71553 0.24909 0.66417 0.0
C407 C 0.74602 0.25233 0.69827 0.0
H408 H 0.68921 0.21387 0.60881 0.0
C409 C 0.77051 0.21953 0.70641 0.0
H410 H 0.6959 0.27375 0.65738 0.0
C411 C 0.76677 0.18549 0.67849 0.0
C412 C 0.73817 0.1833 0.64221 0.0
H413 H 0.79407 0.22088 0.73259 0.0
H414 H 0.78753 0.16151 0.68397 0.0
C415 C 0.71149 0.21474 0.63653 0.0
C416 C 1.00796 0.36294 0.36357 0.0
C417 C 1.01456 0.32736 0.33839 0.0
H418 H 0.02459 0.39934 0.4232 0.0
C419 C 0.04771 0.30441 0.35022 0.0
H420 H 0.98307 0.38171 0.35466 0.0
C421 C 0.07134 0.31465 0.38903 0.0
C422 C 0.06269 0.3483 0.41654 0.0
H423 H 0.05369 0.27694 0.33177 0.0
H424 H 0.09504 0.29481 0.39934 0.0
C425 C 0.03195 0.37341 0.40237 0.0
C426 C 0.76087 0.95782 0.41815 0.0
C427 C 0.74906 0.96485 0.37146 0.0
H428 H 0.76665 0.98072 0.48802 0.0
C429 C 0.73052 1.00097 0.36056 0.0
H430 H 0.77584 0.93074 0.42775 0.0
C431 C 0.7249 0.02987 0.39576 0.0
C432 C 0.73837 0.02297 0.44185 0.0
H433 H 0.72098 1.007 0.32488 0.0
H434 H 0.71201 0.05813 0.38654 0.0
C435 C 0.7557 0.98652 0.45276 0.0
C436 C 0.14849 0.76825 0.41048 0.0
C437 C 0.15028 0.80242 0.38222 0.0
H438 H 0.12332 0.74062 0.47182 0.0
C439 C 0.12767 0.83548 0.39504 0.0
H440 H 0.1655 0.74224 0.40122 0.0
C441 C 0.10408 0.8347 0.43527 0.0
C442 C 0.10208 0.80068 0.46367 0.0
H443 H 0.12882 0.86239 0.37448 0.0
H444 H 0.08722 0.86098 0.44395 0.0
C445 C 0.1243 0.76726 0.45071 0.0
C446 C 0.32345 0.06927 0.34641 0.0
C447 C 0.30648 0.10701 0.34929 0.0
H448 H 0.33246 1.0136 0.38093 0.0
C449 C 0.2813 0.11606 0.38732 0.0
H450 H 0.34306 0.06187 0.31751 0.0
C451 C 0.27419 0.08816 0.42274 0.0
C452 C 0.29305 0.05127 0.42115 0.0
H453 H 0.26784 0.14505 0.39001 0.0
H454 H 0.25583 0.0962 0.45256 0.0
C455 C 0.31734 0.04184 0.38251 0.0
C456 C 0.72626 0.8448 0.95654 0.0
C457 C 0.73033 0.87827 0.92755 0.0
H458 H 0.6913 0.81489 1.00859 0.0
C459 C 0.70421 0.91024 0.93433 0.0
H460 H 0.7457 0.81957 0.95235 0.0
C461 C 0.67315 0.90769 0.96719 0.0
C462 C 0.6672 0.87283 0.99322 0.0
H463 H 0.70655 0.93647 0.91263 0.0
H464 H 0.65237 0.93198 0.97002 0.0
C465 C 0.69484 0.84198 0.98862 0.0
C466 C 0.27227 0.65807 0.88372 0.0
C467 C 0.29959 0.68864 0.89418 0.0
H468 H 0.25071 0.60003 0.90201 0.0
C469 C 0.32993 0.68185 0.92744 0.0
H470 H 0.24859 0.66263 0.85832 0.0
C471 C 0.33196 0.64572 0.95129 0.0
C472 C 0.30295 0.61615 0.94333 0.0
H473 H 0.35154 0.70495 0.93588 0.0
H474 H 0.35465 0.64195 0.97811 0.0
C475 C 0.27354 0.62234 0.90868 0.0
C476 C 0.4334 0.32529 0.90822 0.0
C477 C 0.42192 0.293 0.87963 0.0
H478 H 0.47232 0.34765 0.96184 0.0
C479 C 0.44325 0.25733 0.88357 0.0
H480 H 0.41773 0.35319 0.90638 0.0
C481 C 0.47488 0.25399 0.91596 0.0
C482 C 0.48577 0.28624 0.9451 0.0
H483 H 0.43504 0.23173 0.8623 0.0
H484 H 0.49057 0.22615 0.91836 0.0
C485 C 0.46474 0.32197 0.9404 0.0
C486 C 0.864 0.40711 0.92668 0.0
C487 C 0.83172 0.39056 0.9021 0.0
H488 H 0.88366 0.44709 0.98018 0.0
C489 C 0.79267 0.399 0.91724 0.0
H490 H 0.89428 0.40119 0.91564 0.0
C491 C 0.78621 0.42668 0.95366 0.0
C492 C 0.81879 0.44575 0.97566 0.0
H493 H 0.76721 0.38673 0.89847 0.0
H494 H 0.756 0.43487 0.96251 0.0
C495 C 0.85766 0.43382 0.96343 0.0
C496 C 0.73899 0.22996 0.1233 0.0
C497 C 0.75736 0.26327 0.14488 0.0
H498 H 0.68852 0.2071 0.08432 0.0
C499 C 0.73784 0.29993 0.14213 0.0
H500 H 0.75283 0.20115 0.12483 0.0
C501 C 0.70097 0.30318 0.11949 0.0
C502 C 0.68233 0.26997 0.09838 0.0
H503 H 0.75111 0.3265 0.15719 0.0
H504 H 0.68717 0.33208 0.11839 0.0
C505 C 0.70194 0.23329 0.10025 0.0
C506 C 0.8301 0.71177 0.13004 0.0
C507 C 0.80689 0.71943 0.17001 0.0
H508 H 0.84586 0.67068 0.07609 0.0
C509 C 0.77835 0.69051 0.18364 0.0
H510 H 0.85237 0.73284 0.11823 0.0
C511 C 0.77453 0.6543 0.15907 0.0
C512 C 0.7994 0.64628 0.12072 0.0
H513 H 0.75937 0.69532 0.21375 0.0
H514 H 0.75362 0.63202 0.1714 0.0
C515 C 0.8264 0.67585 0.10586 0.0
C516 C 0.40099 0.88908 0.14988 0.0
C517 C 0.38897 0.85416 0.17317 0.0
H518 H 0.44745 0.91888 0.11122 0.0
C519 C 0.41651 0.82327 0.17774 0.0
H520 H 0.38056 0.9135 0.14598 0.0
C521 C 0.45426 0.82634 0.15802 0.0
C522 C 0.46591 0.86052 0.13348 0.0
H523 H 0.40922 0.79655 0.19685 0.0
H524 H 0.47434 0.80154 0.16168 0.0
C525 C 0.43927 0.89229 0.13026 0.0
C526 C 0.33534 0.38278 0.15632 0.0
C527 C 0.29889 0.36322 0.1656 0.0
H528 H 0.36435 0.43373 0.12599 0.0
C529 C 0.26322 0.38178 0.15332 0.0
H530 H 0.36333 0.369 0.16543 0.0
C531 C 0.26375 0.41876 0.13175 0.0
C532 C 0.30005 0.43811 0.12114 0.0
H533 H 0.23475 0.36782 0.16079 0.0
H534 H 0.23538 0.43173 0.12248 0.0
C535 C 0.33594 0.4198 0.1339 0.0
C536 C 0.47664 0.24179 0.20452 0.0
C537 C 0.44918 0.26758 0.22548 0.0
H538 H 0.52426 0.23444 0.15575 0.0
C539 C 0.45229 0.30842 0.21565 0.0
H540 H 0.47517 0.21022 0.21133 0.0
C541 C 0.48063 0.32255 0.18298 0.0
C542 C 0.50625 0.29603 0.15966 0.0
H543 H 0.4312 0.329 0.23071 0.0
H544 H 0.48099 0.35375 0.17416 0.0
C545 C 0.50473 0.25576 0.17229 0.0
C546 C 0.85149 0.43513 0.21494 0.0
C547 C 0.88507 0.41109 0.21028 0.0
H548 H 0.82157 0.48702 0.19086 0.0
C549 C 0.9179 0.42515 0.18418 0.0
H550 H 0.82591 0.42514 0.23498 0.0
C551 C 0.91569 0.46068 0.15925 0.0
C552 C 0.88039 0.48253 0.15959 0.0
H553 H 0.94452 0.40743 0.18065 0.0
H554 H 0.94024 0.46907 0.13658 0.0
C555 C 0.84911 0.47053 0.1896 0.0
C556 C 0.64474 0.81777 0.2529 0.0
C557 C 0.67696 0.79164 0.25288 0.0
H558 H 0.59483 0.83991 0.21441 0.0
C559 C 0.67768 0.76083 0.2193 0.0
H560 H 0.644 0.84229 0.27775 0.0
C561 C 0.64969 0.75959 0.18248 0.0
C562 C 0.62102 0.78949 0.17881 0.0
H563 H 0.70284 0.74099 0.21786 0.0
H564 H 0.65331 0.73807 0.15438 0.0
C565 C 0.6171 0.81688 0.216 0.0
C566 C 0.28182 0.66112 0.18968 0.0
C567 C 0.24788 0.68475 0.19491 0.0
H568 H 0.30773 0.61049 0.15635 0.0
C569 C 0.21226 0.67271 0.17223 0.0
H570 H 0.30967 0.66945 0.20664 0.0
C571 C 0.21096 0.63869 0.14365 0.0
C572 C 0.24539 0.61609 0.13667 0.0
H573 H 0.18541 0.69007 0.17575 0.0
H574 H 0.18339 0.63098 0.12568 0.0
C575 C 0.28063 0.62733 0.16073 0.0
C576 C 0.43556 0.78371 0.91098 0.0
C577 C 0.4263 0.82073 0.89113 0.0
H578 H 0.47471 0.75125 0.95636 0.0
C579 C 0.45335 0.85238 0.89724 0.0
H580 H 0.4153 0.75871 0.90709 0.0
C581 C 0.48728 0.84806 0.92526 0.0
C582 C 0.49507 0.81197 0.94797 0.0
H583 H 0.44761 0.88096 0.88157 0.0
H584 H 0.50646 0.87371 0.93091 0.0
C585 C 0.46968 0.77935 0.93914 0.0
C586 C 0.21621 0.37184 0.94435 0.0
C587 C 0.2452 0.36611 0.9092 0.0
H588 H 0.18974 0.41271 0.99339 0.0
C589 C 0.26647 0.39948 0.89282 0.0
H590 H 0.19905 0.34693 0.95745 0.0
C591 C 0.26094 0.43682 0.91305 0.0
C592 C 0.23373 0.44213 0.94988 0.0
H593 H 0.28934 0.39657 0.86634 0.0
H594 H 0.27975 0.46125 0.90167 0.0
C595 C 0.21036 0.4096 0.96435 0.0
C596 C 0.6775 0.41768 0.90219 0.0
C597 C 0.67674 0.39381 0.86115 0.0
H598 H 0.65659 0.42519 0.97339 0.0
C599 C 0.64972 0.36184 0.85895 0.0
H600 H 0.698 0.44254 0.90512 0.0
C601 C 0.62648 0.35188 0.89781 0.0
C602 C 0.62926 0.37379 0.94002 0.0
H603 H 0.64781 0.34338 0.82767 0.0
H604 H 0.60723 0.32594 0.89528 0.0
C605 C 0.65385 0.40776 0.94136 0.0
C606 C 0.79761 0.63784 0.87766 0.0
C607 C 0.81373 0.67648 0.87917 0.0
H608 H 0.79804 0.5795 0.9069 0.0
C609 C 0.84812 0.68336 0.90721 0.0
H610 H 0.77206 0.63069 0.85581 0.0
C611 C 0.86367 0.65344 0.93577 0.0
C612 C 0.84507 0.61614 0.93716 0.0
H613 H 0.86201 0.71232 0.90951 0.0
H614 H 0.88809 0.66053 0.95956 0.0
C615 C 0.81293 0.60818 0.9065 0.0
loop_
_geom_bond_atom_site_label_1
_geom_bond_atom_site_label_2
_geom_bond_distance
_geom_bond_site_symmetry_2
_ccdc_geom_bond_type
Cu0 N1 1.999 . S
Cu0 O6 1.974 . S
Cu0 N11 1.985 . S
Cu0 O20 1.959 . S
N1 Cu0 1.999 . S
N1 C3 1.263 . S
N1 C5 1.389 . S
N2 C3 1.358 . S
N2 C4 1.400 . S
C3 N1 1.263 . S
C3 N2 1.358 . S
C3 H9 0.930 . S
C4 N2 1.400 . S
C4 C5 1.351 . S
C4 H21 0.930 . S
C5 N1 1.389 . S
C5 C4 1.351 . S
C5 H10 0.930 . S
O6 Cu0 1.974 . S
O6 C16 1.282 . S
C7 O8 1.261 . S
C7 O20 1.251 . S
O8 C7 1.261 . S
H9 C3 0.930 . S
H10 C5 0.930 . S
N11 Cu0 1.985 . S
N11 C13 1.335 . S
N11 C14 1.390 . S
N12 C13 1.345 . S
N12 C15 1.336 . S
C13 N11 1.335 . S
C13 N12 1.345 . S
C13 H18 0.930 . S
C14 N11 1.390 . S
C14 C15 1.346 . S
C14 H19 0.930 . S
C15 N12 1.336 . S
C15 C14 1.346 . S
C15 H22 0.929 . S
C16 O6 1.282 . S
C16 O17 1.216 . S
O17 C16 1.216 . S
H18 C13 0.930 . S
H19 C14 0.930 . S
O20 Cu0 1.959 . S
O20 C7 1.251 . S
H21 C4 0.930 . S
H22 C15 0.929 . S
Cu23 N24 1.999 . S
Cu23 O29 1.974 . S
Cu23 N34 1.985 . S
Cu23 O43 1.959 . S
N24 Cu23 1.999 . S
N24 C26 1.263 . S
N24 C28 1.389 . S
N25 C26 1.358 . S
N25 C27 1.400 . S
C26 N24 1.263 . S
C26 N25 1.358 . S
C26 H32 0.930 . S
C27 N25 1.400 . S
C27 C28 1.351 . S
C27 H44 0.930 . S
C28 N24 1.389 . S
C28 C27 1.351 . S
C28 H33 0.930 . S
O29 Cu23 1.974 . S
O29 C39 1.282 . S
C30 O31 1.261 . S
C30 O43 1.251 . S
O31 C30 1.261 . S
H32 C26 0.930 . S
H33 C28 0.930 . S
N34 Cu23 1.985 . S
N34 C36 1.335 . S
N34 C37 1.390 . S
N35 C36 1.345 . S
N35 C38 1.336 . S
C36 N34 1.335 . S
C36 N35 1.345 . S
C36 H41 0.930 . S
C37 N34 1.390 . S
C37 C38 1.346 . S
C37 H42 0.930 . S
C38 N35 1.336 . S
C38 C37 1.346 . S
C38 H45 0.929 . S
C39 O29 1.282 . S
C39 O40 1.216 . S
O40 C39 1.216 . S
H41 C36 0.930 . S
H42 C37 0.930 . S
O43 Cu23 1.959 . S
O43 C30 1.251 . S
H44 C27 0.930 . S
H45 C38 0.929 . S
Cu46 N47 1.999 . S
Cu46 O52 1.974 . S
Cu46 N57 1.985 . S
Cu46 O66 1.959 . S
N47 Cu46 1.999 . S
N47 C49 1.263 . S
N47 C51 1.389 . S
N48 C49 1.358 . S
N48 C50 1.400 . S
C49 N47 1.263 . S
C49 N48 1.358 . S
C49 H55 0.930 . S
C50 N48 1.400 . S
C50 C51 1.351 . S
C50 H67 0.930 . S
C51 N47 1.389 . S
C51 C50 1.351 . S
C51 H56 0.930 . S
O52 Cu46 1.974 . S
O52 C62 1.282 . S
C53 O54 1.261 . S
C53 O66 1.251 . S
O54 C53 1.261 . S
H55 C49 0.930 . S
H56 C51 0.930 . S
N57 Cu46 1.985 . S
N57 C59 1.335 . S
N57 C60 1.390 . S
N58 C59 1.345 . S
N58 C61 1.336 . S
C59 N57 1.335 . S
C59 N58 1.345 . S
C59 H64 0.930 . S
C60 N57 1.390 . S
C60 C61 1.346 . S
C60 H65 0.930 . S
C61 N58 1.336 . S
C61 C60 1.346 . S
C61 H68 0.929 . S
C62 O52 1.282 . S
C62 O63 1.216 . S
O63 C62 1.216 . S
H64 C59 0.930 . S
H65 C60 0.930 . S
O66 Cu46 1.959 . S
O66 C53 1.251 . S
H67 C50 0.930 . S
H68 C61 0.929 . S
Cu69 N70 1.999 . S
Cu69 O75 1.974 . S
Cu69 N80 1.985 . S
Cu69 O89 1.959 . S
N70 Cu69 1.999 . S
N70 C72 1.263 . S
N70 C74 1.389 . S
N71 C72 1.358 . S
N71 C73 1.400 . S
C72 N70 1.263 . S
C72 N71 1.358 . S
C72 H78 0.930 . S
C73 N71 1.400 . S
C73 C74 1.351 . S
C73 H90 0.930 . S
C74 N70 1.389 . S
C74 C73 1.351 . S
C74 H79 0.930 . S
O75 Cu69 1.974 . S
O75 C85 1.282 . S
C76 O77 1.261 . S
C76 O89 1.251 . S
O77 C76 1.261 . S
H78 C72 0.930 . S
H79 C74 0.930 . S
N80 Cu69 1.985 . S
N80 C82 1.335 . S
N80 C83 1.390 . S
N81 C82 1.345 . S
N81 C84 1.336 . S
C82 N80 1.335 . S
C82 N81 1.345 . S
C82 H87 0.930 . S
C83 N80 1.390 . S
C83 C84 1.346 . S
C83 H88 0.930 . S
C84 N81 1.336 . S
C84 C83 1.346 . S
C84 H91 0.929 . S
C85 O75 1.282 . S
C85 O86 1.216 . S
O86 C85 1.216 . S
H87 C82 0.930 . S
H88 C83 0.930 . S
O89 Cu69 1.959 . S
O89 C76 1.251 . S
H90 C73 0.930 . S
H91 C84 0.929 . S
Cu92 N93 1.999 . S
Cu92 O98 1.974 . S
Cu92 N103 1.985 . S
Cu92 O112 1.959 . S
N93 Cu92 1.999 . S
N93 C95 1.263 . S
N93 C97 1.389 . S
N94 C95 1.358 . S
N94 C96 1.400 . S
C95 N93 1.263 . S
C95 N94 1.358 . S
C95 H101 0.930 . S
C96 N94 1.400 . S
C96 C97 1.351 . S
C96 H113 0.930 . S
C97 N93 1.389 . S
C97 C96 1.351 . S
C97 H102 0.930 . S
O98 Cu92 1.974 . S
O98 C108 1.282 . S
C99 O100 1.261 . S
C99 O112 1.251 . S
O100 C99 1.261 . S
H101 C95 0.930 . S
H102 C97 0.930 . S
N103 Cu92 1.985 . S
N103 C105 1.335 . S
N103 C106 1.390 . S
N104 C105 1.345 . S
N104 C107 1.336 . S
C105 N103 1.335 . S
C105 N104 1.345 . S
C105 H110 0.930 . S
C106 N103 1.390 . S
C106 C107 1.346 . S
C106 H111 0.930 . S
C107 N104 1.336 . S
C107 C106 1.346 . S
C107 H114 0.929 . S
C108 O98 1.282 . S
C108 O109 1.216 . S
O109 C108 1.216 . S
H110 C105 0.930 . S
H111 C106 0.930 . S
O112 Cu92 1.959 . S
O112 C99 1.251 . S
H113 C96 0.930 . S
H114 C107 0.929 . S
Cu115 N116 1.999 . S
Cu115 O121 1.974 . S
Cu115 N126 1.985 . S
Cu115 O135 1.959 . S
N116 Cu115 1.999 . S
N116 C118 1.263 . S
N116 C120 1.389 . S
N117 C118 1.358 . S
N117 C119 1.400 . S
C118 N116 1.263 . S
C118 N117 1.358 . S
C118 H124 0.930 . S
C119 N117 1.400 . S
C119 C120 1.351 . S
C119 H136 0.930 . S
C120 N116 1.389 . S
C120 C119 1.351 . S
C120 H125 0.930 . S
O121 Cu115 1.974 . S
O121 C131 1.282 . S
C122 O123 1.261 . S
C122 O135 1.251 . S
O123 C122 1.261 . S
H124 C118 0.930 . S
H125 C120 0.930 . S
N126 Cu115 1.985 . S
N126 C128 1.335 . S
N126 C129 1.390 . S
N127 C128 1.345 . S
N127 C130 1.336 . S
C128 N126 1.335 . S
C128 N127 1.345 . S
C128 H133 0.930 . S
C129 N126 1.390 . S
C129 C130 1.346 . S
C129 H134 0.930 . S
C130 N127 1.336 . S
C130 C129 1.346 . S
C130 H137 0.929 . S
C131 O121 1.282 . S
C131 O132 1.216 . S
O132 C131 1.216 . S
H133 C128 0.930 . S
H134 C129 0.930 . S
O135 Cu115 1.959 . S
O135 C122 1.251 . S
H136 C119 0.930 . S
H137 C130 0.929 . S
Cu138 N139 1.999 . S
Cu138 O144 1.974 . S
Cu138 N149 1.985 . S
Cu138 O158 1.959 . S
N139 Cu138 1.999 . S
N139 C141 1.263 . S
N139 C143 1.389 . S
N140 C141 1.358 . S
N140 C142 1.400 . S
C141 N139 1.263 . S
C141 N140 1.358 . S
C141 H147 0.930 . S
C142 N140 1.400 . S
C142 C143 1.351 . S
C142 H159 0.930 . S
C143 N139 1.389 . S
C143 C142 1.351 . S
C143 H148 0.930 . S
O144 Cu138 1.974 . S
O144 C154 1.282 . S
C145 O146 1.261 . S
C145 O158 1.251 . S
O146 C145 1.261 . S
H147 C141 0.930 . S
H148 C143 0.930 . S
N149 Cu138 1.985 . S
N149 C151 1.335 . S
N149 C152 1.390 . S
N150 C151 1.345 . S
N150 C153 1.336 . S
C151 N149 1.335 . S
C151 N150 1.345 . S
C151 H156 0.930 . S
C152 N149 1.390 . S
C152 C153 1.346 . S
C152 H157 0.930 . S
C153 N150 1.336 . S
C153 C152 1.346 . S
C153 H160 0.929 . S
C154 O144 1.282 . S
C154 O155 1.216 . S
O155 C154 1.216 . S
H156 C151 0.930 . S
H157 C152 0.930 . S
O158 Cu138 1.959 . S
O158 C145 1.251 . S
H159 C142 0.930 . S
H160 C153 0.929 . S
Cu161 N162 1.999 . S
Cu161 O167 1.974 . S
Cu161 N172 1.985 . S
Cu161 O181 1.959 . S
N162 Cu161 1.999 . S
N162 C164 1.263 . S
N162 C166 1.389 . S
N163 C164 1.358 . S
N163 C165 1.400 . S
C164 N162 1.263 . S
C164 N163 1.358 . S
C164 H170 0.930 . S
C165 N163 1.400 . S
C165 C166 1.351 . S
C165 H182 0.930 . S
C166 N162 1.389 . S
C166 C165 1.351 . S
C166 H171 0.930 . S
O167 Cu161 1.974 . S
O167 C177 1.282 . S
C168 O169 1.261 . S
C168 O181 1.251 . S
O169 C168 1.261 . S
H170 C164 0.930 . S
H171 C166 0.930 . S
N172 Cu161 1.985 . S
N172 C174 1.335 . S
N172 C175 1.390 . S
N173 C174 1.345 . S
N173 C176 1.336 . S
C174 N172 1.335 . S
C174 N173 1.345 . S
C174 H179 0.930 . S
C175 N172 1.390 . S
C175 C176 1.346 . S
C175 H180 0.930 . S
C176 N173 1.336 . S
C176 C175 1.346 . S
C176 H183 0.929 . S
C177 O167 1.282 . S
C177 O178 1.216 . S
O178 C177 1.216 . S
H179 C174 0.930 . S
H180 C175 0.930 . S
O181 Cu161 1.959 . S
O181 C168 1.251 . S
H182 C165 0.930 . S
H183 C176 0.929 . S
C184 O186 1.247 . S
C184 O188 1.258 . S
C185 O192 1.247 . S
C185 O193 1.258 . S
O186 C184 1.247 . S
O186 Zn187 2.028 . S
Zn187 O186 2.028 . S
Zn187 O191 2.035 . S
Zn187 O193 2.035 . S
Zn187 O194 2.028 . S
O188 C184 1.258 . S
O188 Zn189 2.035 . S
Zn189 O188 2.035 . S
Zn189 O190 2.028 . S
Zn189 O192 2.028 . S
Zn189 O195 2.035 . S
O190 Zn189 2.028 . S
O190 C196 1.247 . S
O191 Zn187 2.035 . S
O191 C196 1.258 . S
O192 C185 1.247 . S
O192 Zn189 2.028 . S
O193 C185 1.258 . S
O193 Zn187 2.035 . S
O194 Zn187 2.028 . S
O194 C197 1.247 . S
O195 Zn189 2.035 . S
O195 C197 1.258 . S
C196 O190 1.247 . S
C196 O191 1.258 . S
C197 O194 1.247 . S
C197 O195 1.258 . S
C198 O200 1.247 . S
C198 O202 1.258 . S
C199 O206 1.247 . S
C199 O207 1.258 . S
O200 C198 1.247 . S
O200 Zn201 2.028 . S
Zn201 O200 2.028 . S
Zn201 O205 2.035 . S
Zn201 O207 2.035 . S
Zn201 O208 2.028 . S
O202 C198 1.258 . S
O202 Zn203 2.035 . S
Zn203 O202 2.035 . S
Zn203 O204 2.028 . S
Zn203 O206 2.028 . S
Zn203 O209 2.035 . S
O204 Zn203 2.028 . S
O204 C210 1.247 . S
O205 Zn201 2.035 . S
O205 C210 1.258 . S
O206 C199 1.247 . S
O206 Zn203 2.028 . S
O207 C199 1.258 . S
O207 Zn201 2.035 . S
O208 Zn201 2.028 . S
O208 C211 1.247 . S
O209 Zn203 2.035 . S
O209 C211 1.258 . S
C210 O204 1.247 . S
C210 O205 1.258 . S
C211 O208 1.247 . S
C211 O209 1.258 . S
C212 O214 1.247 . S
C212 O216 1.258 . S
C213 O220 1.247 . S
C213 O221 1.258 . S
O214 C212 1.247 . S
O214 Zn215 2.028 1_655 S
Zn215 O214 2.028 1_455 S
Zn215 O219 2.035 . S
Zn215 O221 2.035 . S
Zn215 O222 2.028 1_455 S
O216 C212 1.258 . S
O216 Zn217 2.035 1_655 S
Zn217 O216 2.035 1_455 S
Zn217 O218 2.028 . S
Zn217 O220 2.028 . S
Zn217 O223 2.035 1_455 S
O218 Zn217 2.028 . S
O218 C224 1.247 . S
O219 Zn215 2.035 . S
O219 C224 1.258 . S
O220 C213 1.247 . S
O220 Zn217 2.028 . S
O221 C213 1.258 . S
O221 Zn215 2.035 . S
O222 Zn215 2.028 1_655 S
O222 C225 1.247 . S
O223 Zn217 2.035 1_655 S
O223 C225 1.258 . S
C224 O218 1.247 . S
C224 O219 1.258 . S
C225 O222 1.247 . S
C225 O223 1.258 . S
C226 O228 1.247 . S
C226 O230 1.258 . S
C227 O234 1.247 . S
C227 O235 1.258 . S
O228 C226 1.247 . S
O228 Zn229 2.028 . S
Zn229 O228 2.028 . S
Zn229 O233 2.035 1_545 S
Zn229 O235 2.035 1_545 S
Zn229 O236 2.028 . S
O230 C226 1.258 . S
O230 Zn231 2.035 . S
Zn231 O230 2.035 . S
Zn231 O232 2.028 1_545 S
Zn231 O234 2.028 1_545 S
Zn231 O237 2.035 . S
O232 Zn231 2.028 1_565 S
O232 C238 1.247 . S
O233 Zn229 2.035 1_565 S
O233 C238 1.258 . S
O234 C227 1.247 . S
O234 Zn231 2.028 1_565 S
O235 C227 1.258 . S
O235 Zn229 2.035 1_565 S
O236 Zn229 2.028 . S
O236 C239 1.247 . S
O237 Zn231 2.035 . S
O237 C239 1.258 . S
C238 O232 1.247 . S
C238 O233 1.258 . S
C239 O236 1.247 . S
C239 O237 1.258 . S
C240 O242 1.247 . S
C240 O244 1.258 . S
C241 O248 1.247 . S
C241 O249 1.258 . S
O242 C240 1.247 . S
O242 Zn243 2.029 . S
Zn243 O242 2.029 . S
Zn243 O247 2.036 . S
Zn243 O249 2.034 1_554 S
Zn243 O250 2.027 1_554 S
O244 C240 1.258 . S
O244 Zn245 2.052 . S
Zn245 O244 2.052 . S
Zn245 O246 2.045 . S
Zn245 O248 2.011 1_554 S
Zn245 O251 2.018 1_554 S
O246 Zn245 2.045 . S
O246 C252 1.247 . S
O247 Zn243 2.036 . S
O247 C252 1.258 . S
O248 C241 1.247 . S
O248 Zn245 2.011 1_556 S
O249 C241 1.258 . S
O249 Zn243 2.034 1_556 S
O250 Zn243 2.027 1_556 S
O250 C253 1.247 . S
O251 Zn245 2.018 1_556 S
O251 C253 1.258 . S
C252 O246 1.247 . S
C252 O247 1.258 . S
C253 O250 1.247 . S
C253 O251 1.258 . S
C254 O256 1.247 . S
C254 O258 1.258 . S
C255 O262 1.247 . S
C255 O263 1.258 . S
O256 C254 1.247 . S
O256 Zn257 2.028 . S
Zn257 O256 2.028 . S
Zn257 O261 2.035 . S
Zn257 O263 2.035 1_554 S
Zn257 O264 2.028 1_554 S
O258 C254 1.258 . S
O258 Zn259 2.035 . S
Zn259 O258 2.035 . S
Zn259 O260 2.028 . S
Zn259 O262 2.028 1_554 S
Zn259 O265 2.035 1_554 S
O260 Zn259 2.028 . S
O260 C266 1.247 . S
O261 Zn257 2.035 . S
O261 C266 1.258 . S
O262 C255 1.247 . S
O262 Zn259 2.028 1_556 S
O263 C255 1.258 . S
O263 Zn257 2.035 1_556 S
O264 Zn257 2.028 1_556 S
O264 C267 1.247 . S
O265 Zn259 2.035 1_556 S
O265 C267 1.258 . S
C266 O260 1.247 . S
C266 O261 1.258 . S
C267 O264 1.247 . S
C267 O265 1.258 . S
C268 O270 1.247 . S
C268 O272 1.258 . S
C269 O276 1.247 . S
C269 O277 1.258 . S
O270 C268 1.247 . S
O270 Zn271 2.028 1_556 S
Zn271 O270 2.028 1_554 S
Zn271 O275 2.035 1_554 S
Zn271 O277 2.035 . S
Zn271 O278 2.028 . S
O272 C268 1.258 . S
O272 Zn273 2.035 1_556 S
Zn273 O272 2.035 1_554 S
Zn273 O274 2.028 1_554 S
Zn273 O276 2.028 . S
Zn273 O279 2.035 . S
O274 Zn273 2.028 1_556 S
O274 C280 1.247 . S
O275 Zn271 2.035 1_556 S
O275 C280 1.258 . S
O276 C269 1.247 . S
O276 Zn273 2.028 . S
O277 C269 1.258 . S
O277 Zn271 2.035 . S
O278 Zn271 2.028 . S
O278 C281 1.247 . S
O279 Zn273 2.035 . S
O279 C281 1.258 . S
C280 O274 1.247 . S
C280 O275 1.258 . S
C281 O278 1.247 . S
C281 O279 1.258 . S
C282 O284 1.247 . S
C282 O286 1.258 . S
C283 O290 1.247 . S
C283 O291 1.258 . S
O284 C282 1.247 . S
O284 Zn285 2.028 . S
Zn285 O284 2.028 . S
Zn285 O289 2.035 . S
Zn285 O291 2.035 1_554 S
Zn285 O292 2.028 1_554 S
O286 C282 1.258 . S
O286 Zn287 2.035 . S
Zn287 O286 2.035 . S
Zn287 O288 2.028 . S
Zn287 O290 2.028 1_554 S
Zn287 O293 2.035 1_554 S
O288 Zn287 2.028 . S
O288 C294 1.247 . S
O289 Zn285 2.035 . S
O289 C294 1.258 . S
O290 C283 1.247 . S
O290 Zn287 2.028 1_556 S
O291 C283 1.258 . S
O291 Zn285 2.035 1_556 S
O292 Zn285 2.028 1_556 S
O292 C295 1.247 . S
O293 Zn287 2.035 1_556 S
O293 C295 1.258 . S
C294 O288 1.247 . S
C294 O289 1.258 . S
C295 O292 1.247 . S
C295 O293 1.258 . S
C296 C297 1.387 . S
C296 H300 0.950 . S
C296 C305 1.390 . S
C297 C296 1.387 . S
C297 C299 1.387 . S
H298 C305 0.950 . S
C299 C297 1.387 . S
C299 C301 1.390 . S
C299 H303 0.950 . S
H300 C296 0.950 . S
C301 C299 1.390 . S
C301 C302 1.387 . S
C301 H304 0.950 . S
C302 C301 1.387 . S
C302 C305 1.387 . S
H303 C299 0.950 . S
H304 C301 0.950 . S
C305 C296 1.390 . S
C305 H298 0.950 . S
C305 C302 1.387 . S
C306 C307 1.387 . S
C306 H310 0.950 . S
C306 C315 1.390 . S
C307 C306 1.387 . S
C307 C309 1.387 . S
H308 C315 0.950 . S
C309 C307 1.387 . S
C309 C311 1.390 . S
C309 H313 0.950 . S
H310 C306 0.950 . S
C311 C309 1.390 . S
C311 C312 1.387 . S
C311 H314 0.950 . S
C312 C311 1.387 . S
C312 C315 1.387 . S
H313 C309 0.950 . S
H314 C311 0.950 . S
C315 C306 1.390 . S
C315 H308 0.950 . S
C315 C312 1.387 . S
C316 C317 1.387 . S
C316 H320 0.950 . S
C316 C325 1.390 . S
C317 C316 1.387 . S
C317 C319 1.387 . S
H318 C325 0.950 . S
C319 C317 1.387 . S
C319 C321 1.390 . S
C319 H323 0.950 . S
H320 C316 0.950 . S
C321 C319 1.390 . S
C321 C322 1.387 . S
C321 H324 0.950 . S
C322 C321 1.387 . S
C322 C325 1.387 . S
H323 C319 0.950 . S
H324 C321 0.950 . S
C325 C316 1.390 . S
C325 H318 0.950 . S
C325 C322 1.387 . S
C326 C327 1.387 . S
C326 H330 0.950 . S
C326 C335 1.390 . S
C327 C326 1.387 . S
C327 C329 1.387 . S
H328 C335 0.950 . S
C329 C327 1.387 . S
C329 C331 1.390 . S
C329 H333 0.950 . S
H330 C326 0.950 . S
C331 C329 1.390 . S
C331 C332 1.387 . S
C331 H334 0.950 . S
C332 C331 1.387 . S
C332 C335 1.387 . S
H333 C329 0.950 . S
H334 C331 0.950 . S
C335 C326 1.390 . S
C335 H328 0.950 . S
C335 C332 1.387 . S
C336 C337 1.387 . S
C336 H340 0.950 . S
C336 C345 1.390 . S
C337 C336 1.387 . S
C337 C339 1.387 . S
H338 C345 0.950 . S
C339 C337 1.387 . S
C339 C341 1.390 . S
C339 H343 0.950 . S
H340 C336 0.950 . S
C341 C339 1.390 . S
C341 C342 1.387 . S
C341 H344 0.950 . S
C342 C341 1.387 . S
C342 C345 1.387 . S
H343 C339 0.950 . S
H344 C341 0.950 . S
C345 C336 1.390 . S
C345 H338 0.950 . S
C345 C342 1.387 . S
C346 C347 1.387 . S
C346 H350 0.950 . S
C346 C355 1.390 . S
C347 C346 1.387 . S
C347 C349 1.387 . S
H348 C355 0.950 . S
C349 C347 1.387 . S
C349 C351 1.390 . S
C349 H353 0.950 . S
H350 C346 0.950 . S
C351 C349 1.390 . S
C351 C352 1.387 . S
C351 H354 0.950 . S
C352 C351 1.387 . S
C352 C355 1.387 . S
H353 C349 0.950 . S
H354 C351 0.950 . S
C355 C346 1.390 . S
C355 H348 0.950 . S
C355 C352 1.387 . S
C356 C357 1.387 . S
C356 H360 0.950 . S
C356 C365 1.390 . S
C357 C356 1.387 . S
C357 C359 1.387 . S
H358 C365 0.950 . S
C359 C357 1.387 . S
C359 C361 1.390 . S
C359 H363 0.950 . S
H360 C356 0.950 . S
C361 C359 1.390 . S
C361 C362 1.387 . S
C361 H364 0.950 . S
C362 C361 1.387 . S
C362 C365 1.387 . S
H363 C359 0.950 . S
H364 C361 0.950 . S
C365 C356 1.390 . S
C365 H358 0.950 . S
C365 C362 1.387 . S
C366 C367 1.387 . S
C366 H370 0.950 . S
C366 C375 1.390 . S
C367 C366 1.387 . S
C367 C369 1.387 . S
H368 C375 0.950 . S
C369 C367 1.387 . S
C369 C371 1.390 . S
C369 H373 0.950 . S
H370 C366 0.950 . S
C371 C369 1.390 . S
C371 C372 1.387 . S
C371 H374 0.950 . S
C372 C371 1.387 . S
C372 C375 1.387 . S
H373 C369 0.950 . S
H374 C371 0.950 . S
C375 C366 1.390 . S
C375 H368 0.950 . S
C375 C372 1.387 . S
C376 C377 1.387 . S
C376 H380 0.950 . S
C376 C385 1.390 . S
C377 C376 1.387 . S
C377 C379 1.387 . S
H378 C385 0.950 . S
C379 C377 1.387 . S
C379 C381 1.390 . S
C379 H383 0.950 . S
H380 C376 0.950 . S
C381 C379 1.390 . S
C381 C382 1.387 . S
C381 H384 0.950 . S
C382 C381 1.387 . S
C382 C385 1.387 . S
H383 C379 0.950 . S
H384 C381 0.950 . S
C385 C376 1.390 . S
C385 H378 0.950 . S
C385 C382 1.387 . S
C386 C387 1.387 . S
C386 H390 0.950 . S
C386 C395 1.390 . S
C387 C386 1.387 . S
C387 C389 1.387 . S
H388 C395 0.950 . S
C389 C387 1.387 . S
C389 C391 1.390 . S
C389 H393 0.950 . S
H390 C386 0.950 . S
C391 C389 1.390 . S
C391 C392 1.387 . S
C391 H394 0.950 . S
C392 C391 1.387 . S
C392 C395 1.387 . S
H393 C389 0.950 . S
H394 C391 0.950 . S
C395 C386 1.390 . S
C395 H388 0.950 . S
C395 C392 1.387 . S
C396 C397 1.387 . S
C396 H400 0.950 . S
C396 C405 1.390 . S
C397 C396 1.387 . S
C397 C399 1.387 . S
H398 C405 0.950 . S
C399 C397 1.387 . S
C399 C401 1.390 . S
C399 H403 0.950 . S
H400 C396 0.950 . S
C401 C399 1.390 . S
C401 C402 1.387 . S
C401 H404 0.950 . S
C402 C401 1.387 . S
C402 C405 1.387 . S
H403 C399 0.950 . S
H404 C401 0.950 . S
C405 C396 1.390 . S
C405 H398 0.950 . S
C405 C402 1.387 . S
C406 C407 1.387 . S
C406 H410 0.950 . S
C406 C415 1.390 . S
C407 C406 1.387 . S
C407 C409 1.387 . S
H408 C415 0.950 . S
C409 C407 1.387 . S
C409 C411 1.390 . S
C409 H413 0.950 . S
H410 C406 0.950 . S
C411 C409 1.390 . S
C411 C412 1.387 . S
C411 H414 0.950 . S
C412 C411 1.387 . S
C412 C415 1.387 . S
H413 C409 0.950 . S
H414 C411 0.950 . S
C415 C406 1.390 . S
C415 H408 0.950 . S
C415 C412 1.387 . S
C416 C417 1.387 . S
C416 H420 0.950 . S
C416 C425 1.390 . S
C417 C416 1.387 . S
C417 C419 1.387 . S
H418 C425 0.950 . S
C419 C417 1.387 . S
C419 C421 1.390 . S
C419 H423 0.950 . S
H420 C416 0.950 . S
C421 C419 1.390 . S
C421 C422 1.387 . S
C421 H424 0.950 . S
C422 C421 1.387 . S
C422 C425 1.387 . S
H423 C419 0.950 . S
H424 C421 0.950 . S
C425 C416 1.390 . S
C425 H418 0.950 . S
C425 C422 1.387 . S
C426 C427 1.387 . S
C426 H430 0.950 . S
C426 C435 1.390 . S
C427 C426 1.387 . S
C427 C429 1.387 . S
H428 C435 0.950 . S
C429 C427 1.387 . S
C429 C431 1.390 . S
C429 H433 0.950 . S
H430 C426 0.950 . S
C431 C429 1.390 . S
C431 C432 1.387 . S
C431 H434 0.950 . S
C432 C431 1.387 . S
C432 C435 1.387 . S
H433 C429 0.950 . S
H434 C431 0.950 . S
C435 C426 1.390 . S
C435 H428 0.950 . S
C435 C432 1.387 . S
C436 C437 1.387 . S
C436 H440 0.950 . S
C436 C445 1.390 . S
C437 C436 1.387 . S
C437 C439 1.387 . S
H438 C445 0.950 . S
C439 C437 1.387 . S
C439 C441 1.390 . S
C439 H443 0.950 . S
H440 C436 0.950 . S
C441 C439 1.390 . S
C441 C442 1.387 . S
C441 H444 0.950 . S
C442 C441 1.387 . S
C442 C445 1.387 . S
H443 C439 0.950 . S
H444 C441 0.950 . S
C445 C436 1.390 . S
C445 H438 0.950 . S
C445 C442 1.387 . S
C446 C447 1.387 . S
C446 H450 0.950 . S
C446 C455 1.390 . S
C447 C446 1.387 . S
C447 C449 1.387 . S
H448 C455 0.950 . S
C449 C447 1.387 . S
C449 C451 1.390 . S
C449 H453 0.950 . S
H450 C446 0.950 . S
C451 C449 1.390 . S
C451 C452 1.387 . S
C451 H454 0.950 . S
C452 C451 1.387 . S
C452 C455 1.387 . S
H453 C449 0.950 . S
H454 C451 0.950 . S
C455 C446 1.390 . S
C455 H448 0.950 . S
C455 C452 1.387 . S
C456 C457 1.387 . S
C456 H460 0.950 . S
C456 C465 1.390 . S
C457 C456 1.387 . S
C457 C459 1.387 . S
H458 C465 0.950 . S
C459 C457 1.387 . S
C459 C461 1.390 . S
C459 H463 0.950 . S
H460 C456 0.950 . S
C461 C459 1.390 . S
C461 C462 1.387 . S
C461 H464 0.950 . S
C462 C461 1.387 . S
C462 C465 1.387 . S
H463 C459 0.950 . S
H464 C461 0.950 . S
C465 C456 1.390 . S
C465 H458 0.950 . S
C465 C462 1.387 . S
C466 C467 1.387 . S
C466 H470 0.950 . S
C466 C475 1.390 . S
C467 C466 1.387 . S
C467 C469 1.387 . S
H468 C475 0.950 . S
C469 C467 1.387 . S
C469 C471 1.390 . S
C469 H473 0.950 . S
H470 C466 0.950 . S
C471 C469 1.390 . S
C471 C472 1.387 . S
C471 H474 0.950 . S
C472 C471 1.387 . S
C472 C475 1.387 . S
H473 C469 0.950 . S
H474 C471 0.950 . S
C475 C466 1.390 . S
C475 H468 0.950 . S
C475 C472 1.387 . S
C476 C477 1.387 . S
C476 H480 0.950 . S
C476 C485 1.390 . S
C477 C476 1.387 . S
C477 C479 1.387 . S
H478 C485 0.950 . S
C479 C477 1.387 . S
C479 C481 1.390 . S
C479 H483 0.950 . S
H480 C476 0.950 . S
C481 C479 1.390 . S
C481 C482 1.387 . S
C481 H484 0.950 . S
C482 C481 1.387 . S
C482 C485 1.387 . S
H483 C479 0.950 . S
H484 C481 0.950 . S
C485 C476 1.390 . S
C485 H478 0.950 . S
C485 C482 1.387 . S
C486 C487 1.387 . S
C486 H490 0.950 . S
C486 C495 1.390 . S
C487 C486 1.387 . S
C487 C489 1.387 . S
H488 C495 0.950 . S
C489 C487 1.387 . S
C489 C491 1.390 . S
C489 H493 0.950 . S
H490 C486 0.950 . S
C491 C489 1.390 . S
C491 C492 1.387 . S
C491 H494 0.950 . S
C492 C491 1.387 . S
C492 C495 1.387 . S
H493 C489 0.950 . S
H494 C491 0.950 . S
C495 C486 1.390 . S
C495 H488 0.950 . S
C495 C492 1.387 . S
C496 C497 1.387 . S
C496 H500 0.950 . S
C496 C505 1.390 . S
C497 C496 1.387 . S
C497 C499 1.387 . S
H498 C505 0.950 . S
C499 C497 1.387 . S
C499 C501 1.390 . S
C499 H503 0.950 . S
H500 C496 0.950 . S
C501 C499 1.390 . S
C501 C502 1.387 . S
C501 H504 0.950 . S
C502 C501 1.387 . S
C502 C505 1.387 . S
H503 C499 0.950 . S
H504 C501 0.950 . S
C505 C496 1.390 . S
C505 H498 0.950 . S
C505 C502 1.387 . S
C506 C507 1.387 . S
C506 H510 0.950 . S
C506 C515 1.390 . S
C507 C506 1.387 . S
C507 C509 1.387 . S
H508 C515 0.950 . S
C509 C507 1.387 . S
C509 C511 1.390 . S
C509 H513 0.950 . S
H510 C506 0.950 . S
C511 C509 1.390 . S
C511 C512 1.387 . S
C511 H514 0.950 . S
C512 C511 1.387 . S
C512 C515 1.387 . S
H513 C509 0.950 . S
H514 C511 0.950 . S
C515 C506 1.390 . S
C515 H508 0.950 . S
C515 C512 1.387 . S
C516 C517 1.387 . S
C516 H520 0.950 . S
C516 C525 1.390 . S
C517 C516 1.387 . S
C517 C519 1.387 . S
H518 C525 0.950 . S
C519 C517 1.387 . S
C519 C521 1.390 . S
C519 H523 0.950 . S
H520 C516 0.950 . S
C521 C519 1.390 . S
C521 C522 1.387 . S
C521 H524 0.950 . S
C522 C521 1.387 . S
C522 C525 1.387 . S
H523 C519 0.950 . S
H524 C521 0.950 . S
C525 C516 1.390 . S
C525 H518 0.950 . S
C525 C522 1.387 . S
C526 C527 1.387 . S
C526 H530 0.950 . S
C526 C535 1.390 . S
C527 C526 1.387 . S
C527 C529 1.387 . S
H528 C535 0.950 . S
C529 C527 1.387 . S
C529 C531 1.390 . S
C529 H533 0.950 . S
H530 C526 0.950 . S
C531 C529 1.390 . S
C531 C532 1.387 . S
C531 H534 0.950 . S
C532 C531 1.387 . S
C532 C535 1.387 . S
H533 C529 0.950 . S
H534 C531 0.950 . S
C535 C526 1.390 . S
C535 H528 0.950 . S
C535 C532 1.387 . S
C536 C537 1.387 . S
C536 H540 0.950 . S
C536 C545 1.390 . S
C537 C536 1.387 . S
C537 C539 1.387 . S
H538 C545 0.950 . S
C539 C537 1.387 . S
C539 C541 1.390 . S
C539 H543 0.950 . S
H540 C536 0.950 . S
C541 C539 1.390 . S
C541 C542 1.387 . S
C541 H544 0.950 . S
C542 C541 1.387 . S
C542 C545 1.387 . S
H543 C539 0.950 . S
H544 C541 0.950 . S
C545 C536 1.390 . S
C545 H538 0.950 . S
C545 C542 1.387 . S
C546 C547 1.387 . S
C546 H550 0.950 . S
C546 C555 1.390 . S
C547 C546 1.387 . S
C547 C549 1.387 . S
H548 C555 0.950 . S
C549 C547 1.387 . S
C549 C551 1.390 . S
C549 H553 0.950 . S
H550 C546 0.950 . S
C551 C549 1.390 . S
C551 C552 1.387 . S
C551 H554 0.950 . S
C552 C551 1.387 . S
C552 C555 1.387 . S
H553 C549 0.950 . S
H554 C551 0.950 . S
C555 C546 1.390 . S
C555 H548 0.950 . S
C555 C552 1.387 . S
C556 C557 1.387 . S
C556 H560 0.950 . S
C556 C565 1.390 . S
C557 C556 1.387 . S
C557 C559 1.387 . S
H558 C565 0.950 . S
C559 C557 1.387 . S
C559 C561 1.390 . S
C559 H563 0.950 . S
H560 C556 0.950 . S
C561 C559 1.390 . S
C561 C562 1.387 . S
C561 H564 0.950 . S
C562 C561 1.387 . S
C562 C565 1.387 . S
H563 C559 0.950 . S
H564 C561 0.950 . S
C565 C556 1.390 . S
C565 H558 0.950 . S
C565 C562 1.387 . S
C566 C567 1.387 . S
C566 H570 0.950 . S
C566 C575 1.390 . S
C567 C566 1.387 . S
C567 C569 1.387 . S
H568 C575 0.950 . S
C569 C567 1.387 . S
C569 C571 1.390 . S
C569 H573 0.950 . S
H570 C566 0.950 . S
C571 C569 1.390 . S
C571 C572 1.387 . S
C571 H574 0.950 . S
C572 C571 1.387 . S
C572 C575 1.387 . S
H573 C569 0.950 . S
H574 C571 0.950 . S
C575 C566 1.390 . S
C575 H568 0.950 . S
C575 C572 1.387 . S
C576 C577 1.387 . S
C576 H580 0.950 . S
C576 C585 1.390 . S
C577 C576 1.387 . S
C577 C579 1.387 . S
H578 C585 0.950 . S
C579 C577 1.387 . S
C579 C581 1.390 . S
C579 H583 0.950 . S
H580 C576 0.950 . S
C581 C579 1.390 . S
C581 C582 1.387 . S
C581 H584 0.950 . S
C582 C581 1.387 . S
C582 C585 1.387 . S
H583 C579 0.950 . S
H584 C581 0.950 . S
C585 C576 1.390 . S
C585 H578 0.950 . S
C585 C582 1.387 . S
C586 C587 1.387 . S
C586 H590 0.950 . S
C586 C595 1.390 . S
C587 C586 1.387 . S
C587 C589 1.387 . S
H588 C595 0.950 . S
C589 C587 1.387 . S
C589 C591 1.390 . S
C589 H593 0.950 . S
H590 C586 0.950 . S
C591 C589 1.390 . S
C591 C592 1.387 . S
C591 H594 0.950 . S
C592 C591 1.387 . S
C592 C595 1.387 . S
H593 C589 0.950 . S
H594 C591 0.950 . S
C595 C586 1.390 . S
C595 H588 0.950 . S
C595 C592 1.387 . S
C596 C597 1.387 . S
C596 H600 0.950 . S
C596 C605 1.390 . S
C597 C596 1.387 . S
C597 C599 1.387 . S
H598 C605 0.950 . S
C599 C597 1.387 . S
C599 C601 1.390 . S
C599 H603 0.950 . S
H600 C596 0.950 . S
C601 C599 1.390 . S
C601 C602 1.387 . S
C601 H604 0.950 . S
C602 C601 1.387 . S
C602 C605 1.387 . S
H603 C599 0.950 . S
H604 C601 0.950 . S
C605 C596 1.390 . S
C605 H598 0.950 . S
C605 C602 1.387 . S
C606 C607 1.387 . S
C606 H610 0.950 . S
C606 C615 1.390 . S
C607 C606 1.387 . S
C607 C609 1.387 . S
H608 C615 0.950 . S
C609 C607 1.387 . S
C609 C611 1.390 . S
C609 H613 0.950 . S
H610 C606 0.950 . S
C611 C609 1.390 . S
C611 C612 1.387 . S
C611 H614 0.950 . S
C612 C611 1.387 . S
C612 C615 1.387 . S
H613 C609 0.950 . S
H614 C611 0.950 . S
C615 C606 1.390 . S
C615 H608 0.950 . S
C615 C612 1.387 . S
C302 C185 1.578 . S
C297 C16 1.594 . S
C312 C211 1.587 . S
C307 C30 1.603 . S
C322 C225 1.587 . S
C317 C53 1.603 . S
C332 C227 1.623 . S
C327 C76 1.640 . S
C337 N104 1.423 . S
C342 C224 1.467 . S
C352 C226 1.503 . S
C347 N127 1.457 . S
C362 C184 1.469 1_655 S
C357 N140 1.439 . S
C372 C210 1.472 1_565 S
C367 N173 1.428 . S
C382 C212 1.585 . S
C377 C168 1.591 . S
C392 C238 1.591 . S
C387 C99 1.593 . S
C402 C196 1.578 . S
C397 C122 1.583 . S
C412 C198 1.565 . S
C407 C154 1.562 . S
C422 C197 1.479 1_655 S
C417 N35 1.436 . S
C432 C199 1.476 1_565 S
C427 N58 1.426 . S
C442 C213 1.475 . S
C437 N81 1.429 . S
C452 C239 1.496 . S
C447 N2 1.463 . S
C462 C241 1.572 . S
C457 C177 1.586 . S
C467 C108 1.608 . S
C472 C267 1.586 . S
C477 C131 1.594 . S
C482 C280 1.581 . S
C487 C145 1.621 . S
C492 C283 1.604 . S
C497 N25 1.443 . S
C502 C281 1.472 . S
C507 N48 1.481 . S
C512 C282 1.501 . S
C517 N71 1.447 . S
C522 C240 1.475 . S
C532 C266 1.493 . S
C527 N12 1.445 . S
C542 C269 1.584 . S
C537 C7 1.588 . S
C547 C39 1.582 . S
C552 C294 1.584 . S
C557 C62 1.572 . S
C562 C252 1.575 . S
C567 C85 1.570 . S
C572 C254 1.572 . S
C582 C253 1.478 . S
C577 N94 1.434 . S
C592 C255 1.479 . S
C587 N117 1.446 . S
C597 N150 1.432 . S
C602 C268 1.476 . S
C612 C295 1.487 . S
C607 N163 1.449 . S
