# Generated by pormake.
# Topology wbl, (4,4)-cn, num edge types: 1
# Building blocks:
#     Node 0, Type 0, BuildingBlock: MUDLON_clean_sbu_0, # of connection points: 4
#     Node 1, Type 0, BuildingBlock: MUDLON_clean_sbu_0, # of connection points: 4
#     Node 2, Type 0, BuildingBlock: MUDLON_clean_sbu_0, # of connection points: 4
#     Node 3, Type 0, BuildingBlock: MUDLON_clean_sbu_0, # of connection points: 4
#     Node 4, Type 0, BuildingBlock: MUDLON_clean_sbu_0, # of connection points: 4
#     Node 5, Type 0, BuildingBlock: MUDLON_clean_sbu_0, # of connection points: 4
#     Node 6, Type 0, BuildingBlock: MUDLON_clean_sbu_0, # of connection points: 4
#     Node 7, Type 0, BuildingBlock: MUDLON_clean_sbu_0, # of connection points: 4
#     Node 8, Type 1, BuildingBlock: QUQFOY_clean_sbu_1, # of connection points: 4
#     Node 9, Type 1, BuildingBlock: QUQFOY_clean_sbu_1, # of connection points: 4
#     Node 10, Type 1, BuildingBlock: QUQFOY_clean_sbu_1, # of connection points: 4
#     Node 11, Type 1, BuildingBlock: QUQFOY_clean_sbu_1, # of connection points: 4
#     Node 12, Type 1, BuildingBlock: QUQFOY_clean_sbu_1, # of connection points: 4
#     Node 13, Type 1, BuildingBlock: QUQFOY_clean_sbu_1, # of connection points: 4
#     Node 14, Type 1, BuildingBlock: QUQFOY_clean_sbu_1, # of connection points: 4
#     Node 15, Type 1, BuildingBlock: QUQFOY_clean_sbu_1, # of connection points: 4
#     Edge 16, Type (0, 1), BuildingBlock: OJICUG_clean_linker_0, # of connection points: 2
#     Edge 17, Type (0, 1), BuildingBlock: OJICUG_clean_linker_0, # of connection points: 2
#     Edge 18, Type (0, 1), BuildingBlock: OJICUG_clean_linker_0, # of connection points: 2
#     Edge 19, Type (0, 1), BuildingBlock: OJICUG_clean_linker_0, # of connection points: 2
#     Edge 20, Type (0, 1), BuildingBlock: OJICUG_clean_linker_0, # of connection points: 2
#     Edge 21, Type (0, 1), BuildingBlock: OJICUG_clean_linker_0, # of connection points: 2
#     Edge 22, Type (0, 1), BuildingBlock: OJICUG_clean_linker_0, # of connection points: 2
#     Edge 23, Type (0, 1), BuildingBlock: OJICUG_clean_linker_0, # of connection points: 2
#     Edge 24, Type (0, 1), BuildingBlock: OJICUG_clean_linker_0, # of connection points: 2
#     Edge 25, Type (0, 1), BuildingBlock: OJICUG_clean_linker_0, # of connection points: 2
#     Edge 26, Type (0, 1), BuildingBlock: OJICUG_clean_linker_0, # of connection points: 2
#     Edge 27, Type (0, 1), BuildingBlock: OJICUG_clean_linker_0, # of connection points: 2
#     Edge 28, Type (0, 1), BuildingBlock: OJICUG_clean_linker_0, # of connection points: 2
#     Edge 29, Type (0, 1), BuildingBlock: OJICUG_clean_linker_0, # of connection points: 2
#     Edge 30, Type (0, 1), BuildingBlock: OJICUG_clean_linker_0, # of connection points: 2
#     Edge 31, Type (0, 1), BuildingBlock: OJICUG_clean_linker_0, # of connection points: 2
#     Edge 32, Type (0, 1), BuildingBlock: OJICUG_clean_linker_0, # of connection points: 2
#     Edge 33, Type (0, 1), BuildingBlock: OJICUG_clean_linker_0, # of connection points: 2
#     Edge 34, Type (0, 1), BuildingBlock: OJICUG_clean_linker_0, # of connection points: 2
#     Edge 35, Type (0, 1), BuildingBlock: OJICUG_clean_linker_0, # of connection points: 2
#     Edge 36, Type (0, 1), BuildingBlock: OJICUG_clean_linker_0, # of connection points: 2
#     Edge 37, Type (0, 1), BuildingBlock: OJICUG_clean_linker_0, # of connection points: 2
#     Edge 38, Type (0, 1), BuildingBlock: OJICUG_clean_linker_0, # of connection points: 2
#     Edge 39, Type (0, 1), BuildingBlock: OJICUG_clean_linker_0, # of connection points: 2
#     Edge 40, Type (0, 1), BuildingBlock: OJICUG_clean_linker_0, # of connection points: 2
#     Edge 41, Type (0, 1), BuildingBlock: OJICUG_clean_linker_0, # of connection points: 2
#     Edge 42, Type (0, 1), BuildingBlock: OJICUG_clean_linker_0, # of connection points: 2
#     Edge 43, Type (0, 1), BuildingBlock: OJICUG_clean_linker_0, # of connection points: 2
#     Edge 44, Type (0, 1), BuildingBlock: OJICUG_clean_linker_0, # of connection points: 2
#     Edge 45, Type (0, 1), BuildingBlock: OJICUG_clean_linker_0, # of connection points: 2
#     Edge 46, Type (0, 1), BuildingBlock: OJICUG_clean_linker_0, # of connection points: 2
#     Edge 47, Type (0, 1), BuildingBlock: OJICUG_clean_linker_0, # of connection points: 2
# Relax obj value: 0.236
# Max RMSD: 0.253
# Mean RMSD: 0.184
data_MOF--net-wbl--node1-MUDLON_clean_sbu_0--node2-QUQFOY_clean_sbu_1--edge1-OJICUG_clean_linker_0
_symmetry_space_group_name_H-M    P1
_symmetry_Int_Tables_number       1
_symmetry_cell_setting            triclinic
loop_
_symmetry_equiv_pos_as_xyz
'x, y, z'
_cell_length_a     25.960591
_cell_length_b     25.915325
_cell_length_c     56.978347
_cell_angle_alpha  92.846673
_cell_angle_beta   92.76373
_cell_angle_gamma 90.804347
loop_
_atom_site_label
_atom_site_type_symbol
_atom_site_fract_x
_atom_site_fract_y
_atom_site_fract_z
_atom_type_partial_charge
Mg0 Mg 0.1468 0.18796 0.37896 0.0
C1 C 0.17517 0.09343 0.40351 0.0
O2 O 0.21762 0.10163 0.39251 0.0
C3 C 0.05934 0.24884 0.35535 0.0
O4 O 0.09577 0.28262 0.35145 0.0
C5 C 0.1851 0.12727 0.33864 0.0
O6 O 0.14004 0.10566 0.34185 0.0
O7 O 0.19906 0.16701 0.35151 0.0
O8 O 0.13606 0.12067 0.39895 0.0
O9 O 0.17574 0.23793 0.40844 0.0
C10 C 0.14324 0.26595 0.41888 0.0
O11 O 0.10258 0.28113 0.40663 0.0
O12 O 0.07088 0.20803 0.36573 0.0
Mg13 Mg 0.04714 0.66501 0.62437 0.0
C14 C 0.11167 0.61781 0.66217 0.0
O15 O 0.06933 0.58985 0.66322 0.0
C16 C 0.05427 0.56846 0.59251 0.0
O17 O 0.10329 0.58202 0.59331 0.0
C18 C 0.11371 0.73106 0.59776 0.0
O19 O 0.14238 0.69064 0.60151 0.0
O20 O 0.06801 0.73136 0.60489 0.0
O21 O 0.11534 0.64833 0.64554 0.0
O22 O 0.99443 0.67916 0.65228 0.0
C23 C 0.96276 0.64334 0.65656 0.0
O24 O 0.95016 0.60837 0.6397 0.0
O25 O 0.02251 0.59726 0.60296 0.0
Mg26 Mg 0.60792 0.51931 0.87291 0.0
C27 C 0.6588 0.58906 0.91117 0.0
O28 O 0.68531 0.54719 0.91486 0.0
C29 C 0.68501 0.50195 0.83431 0.0
O30 O 0.65992 0.53972 0.8246 0.0
C31 C 0.54294 0.58385 0.84282 0.0
O32 O 0.58562 0.61162 0.84618 0.0
O33 O 0.54102 0.5394 0.85127 0.0
O34 O 0.62996 0.59045 0.89255 0.0
O35 O 0.5886 0.47386 0.90222 0.0
C36 C 0.62235 0.44416 0.91079 0.0
O37 O 0.65928 0.42812 0.89737 0.0
O38 O 0.67104 0.48619 0.85383 0.0
Mg39 Mg 0.66207 0.12195 0.12663 0.0
C40 C 0.70857 0.09591 0.17249 0.0
O41 O 0.66948 0.06298 0.17025 0.0
C42 C 0.62227 0.04135 0.09052 0.0
O43 O 0.59869 0.08218 0.08278 0.0
C44 C 0.73163 0.19009 0.10124 0.0
O45 O 0.76471 0.15949 0.11152 0.0
O46 O 0.68368 0.18277 0.10379 0.0
O47 O 0.72039 0.12041 0.15468 0.0
O48 O 0.59742 0.14052 0.14828 0.0
C49 C 0.56113 0.10826 0.15101 0.0
O50 O 0.55476 0.06834 0.13598 0.0
O51 O 0.65249 0.04663 0.10869 0.0
Mg52 Mg 0.11288 0.68571 0.95559 0.0
C53 C 0.14951 0.76602 0.92362 0.0
O54 O 0.19245 0.76149 0.93642 0.0
C55 C 0.04941 0.62764 0.98603 0.0
O56 O 0.09023 0.59906 0.98305 0.0
C57 C 0.20035 0.73029 0.98627 0.0
O58 O 0.16867 0.7694 0.98635 0.0
O59 O 0.18628 0.68813 0.97535 0.0
O60 O 0.10791 0.74769 0.93105 0.0
O61 O 0.10693 0.62208 0.9297 0.0
C62 C 0.06656 0.62782 0.91662 0.0
O63 O 0.03535 0.66565 0.92198 0.0
O64 O 0.04803 0.67171 0.97714 0.0
Mg65 Mg 0.56155 0.59783 0.19399 0.0
C66 C 0.47592 0.59922 0.15788 0.0
O67 O 0.45895 0.6388 0.17039 0.0
C68 C 0.58391 0.52475 0.23577 0.0
O69 O 0.53887 0.537 0.24381 0.0
C70 C 0.49967 0.67911 0.22139 0.0
O71 O 0.46484 0.64208 0.2223 0.0
O72 O 0.54157 0.66987 0.21149 0.0
O73 O 0.50343 0.56652 0.16844 0.0
O74 O 0.61916 0.61639 0.16962 0.0
C75 C 0.66529 0.60115 0.17182 0.0
O76 O 0.68079 0.57958 0.19125 0.0
O77 O 0.5982 0.54324 0.21685 0.0
Mg78 Mg 0.62353 0.09435 0.45628 0.0
C79 C 0.62489 0.19804 0.43462 0.0
O80 O 0.66708 0.2057 0.44806 0.0
C81 C 0.54572 0.0866 0.49524 0.0
O82 O 0.55105 0.13713 0.49724 0.0
C83 C 0.70638 0.14071 0.48893 0.0
O84 O 0.66559 0.16399 0.49686 0.0
O85 O 0.70053 0.10776 0.47173 0.0
O86 O 0.59427 0.16148 0.43904 0.0
O87 O 0.62362 0.04369 0.42506 0.0
C88 C 0.58076 0.02105 0.41947 0.0
O89 O 0.5446 0.02207 0.43483 0.0
O90 O 0.57167 0.06116 0.48043 0.0
Mg91 Mg 0.19601 0.12434 0.70943 0.0
C92 C 0.2326 0.1753 0.66886 0.0
O93 O 0.19177 0.20222 0.67399 0.0
C94 C 0.18163 0.2343 0.73123 0.0
O95 O 0.22153 0.24665 0.71921 0.0
C96 C 0.26401 0.0401 0.72828 0.0
O97 O 0.29708 0.06163 0.71486 0.0
O98 O 0.21917 0.0588 0.72956 0.0
O99 O 0.25148 0.14623 0.68435 0.0
O100 O 0.13498 0.10185 0.68346 0.0
C101 C 0.09567 0.13021 0.68151 0.0
O102 O 0.08653 0.16363 0.69884 0.0
O103 O 0.16687 0.18735 0.73125 0.0
O104 O 0.55157 0.7366 0.98827 0.0
Cd105 Cd 0.50673 0.76957 0.01363 0.0
Cd106 Cd 0.57426 0.72362 0.04315 0.0
O107 O 0.60265 0.69343 0.01208 0.0
O108 O 0.44199 0.79275 0.99733 0.0
O109 O 0.4438 0.7306 0.02261 0.0
C110 C 0.41756 0.7588 0.00852 0.0
C111 C 0.53871 0.67138 0.07053 0.0
C112 C 0.58853 0.70561 0.99141 0.0
C113 C 0.57161 0.83851 0.04798 0.0
O114 O 0.59502 0.79849 0.05453 0.0
O115 O 0.5346 0.83443 0.03256 0.0
O116 O 0.58809 0.67542 0.06902 0.0
O117 O 0.50961 0.69584 0.05598 0.0
O118 O 0.46223 0.96252 0.3194 0.0
Cd119 Cd 0.41621 0.963 0.28912 0.0
Cd120 Cd 0.50143 0.99443 0.27212 0.0
O121 O 0.52389 0.01188 0.30699 0.0
O122 O 0.34446 0.96382 0.29977 0.0
O123 O 0.38071 0.02993 0.28322 0.0
C124 C 0.34195 0.0109 0.2935 0.0
C125 C 0.50859 0.05067 0.24179 0.0
C126 C 0.50365 0.98873 0.32352 0.0
C127 C 0.46552 0.88659 0.25857 0.0
O128 O 0.50393 0.91767 0.26115 0.0
O129 O 0.4221 0.89986 0.26608 0.0
O130 O 0.5489 0.03204 0.25222 0.0
O131 O 0.46393 0.0399 0.24955 0.0
O132 O 0.24219 0.97478 0.49723 0.0
Cd133 Cd 0.2807 0.96104 0.52853 0.0
Cd134 Cd 0.20825 0.02049 0.54625 0.0
O135 O 0.19554 0.0383 0.51155 0.0
O136 O 0.35252 0.94353 0.52021 0.0
O137 O 0.33231 0.01585 0.53968 0.0
C138 C 0.36647 0.98851 0.52931 0.0
C139 C 0.22774 0.08249 0.57651 0.0
C140 C 0.21103 0.01139 0.49407 0.0
C141 C 0.20462 0.90937 0.55739 0.0
O142 O 0.1794 0.95096 0.55629 0.0
O143 O 0.24943 0.90656 0.54929 0.0
O144 O 0.18154 0.07723 0.56715 0.0
O145 O 0.26326 0.05379 0.56804 0.0
O146 O 0.27182 0.70756 0.74492 0.0
Cd147 Cd 0.30788 0.75289 0.77163 0.0
Cd148 Cd 0.24831 0.69788 0.79796 0.0
O149 O 0.21176 0.67495 0.76612 0.0
O150 O 0.33794 0.81227 0.7557 0.0
O151 O 0.27463 0.82031 0.78021 0.0
C152 C 0.30451 0.84117 0.76572 0.0
C153 C 0.20384 0.73388 0.82918 0.0
C154 C 0.23102 0.68049 0.7463 0.0
C155 C 0.36152 0.68057 0.80327 0.0
O156 O 0.31688 0.6626 0.8068 0.0
O157 O 0.36649 0.72029 0.79127 0.0
O158 O 0.19931 0.68538 0.82301 0.0
O159 O 0.23241 0.76264 0.81703 0.0
O160 O 0.9981 0.22833 0.58833 0.0
Cd161 Cd 0.97767 0.27019 0.55978 0.0
Cd162 Cd 0.02242 0.19064 0.5372 0.0
O163 O 0.04531 0.16937 0.57072 0.0
O164 O 0.95644 0.33841 0.57365 0.0
O165 O 0.0237 0.32912 0.55161 0.0
C166 C 0.99525 0.35892 0.56411 0.0
C167 C 0.07747 0.21988 0.50946 0.0
C168 C 0.0271 0.18935 0.58936 0.0
C169 C 0.90948 0.20113 0.52749 0.0
O170 O 0.94779 0.17153 0.52517 0.0
O171 O 0.91467 0.24394 0.53929 0.0
O172 O 0.07287 0.17111 0.51287 0.0
O173 O 0.05274 0.25187 0.52267 0.0
O174 O 0.01211 0.46559 0.82892 0.0
Cd175 Cd 0.97102 0.43044 0.80083 0.0
Cd176 Cd 0.01346 0.50198 0.77617 0.0
O177 O 0.02181 0.53641 0.80967 0.0
O178 O 0.90693 0.40127 0.81308 0.0
O179 O 0.9081 0.46726 0.78973 0.0
C180 C 0.88244 0.43747 0.80267 0.0
C181 C 0.98582 0.55348 0.74557 0.0
C182 C 0.02459 0.513 0.82875 0.0
C183 C 0.04882 0.39187 0.76923 0.0
O184 O 0.05925 0.43953 0.76712 0.0
O185 O 0.00973 0.37854 0.78024 0.0
O186 O 0.03176 0.55805 0.75515 0.0
O187 O 0.95498 0.51965 0.75349 0.0
O188 O 0.79903 0.5146 0.0864 0.0
Cd189 Cd 0.82072 0.46691 0.05888 0.0
Cd190 Cd 0.75893 0.52618 0.03397 0.0
O191 O 0.73425 0.54919 0.06668 0.0
O192 O 0.84381 0.40128 0.0729 0.0
O193 O 0.77247 0.4071 0.05041 0.0
C194 C 0.80188 0.37987 0.06367 0.0
C195 C 0.70326 0.49125 0.0038 0.0
C196 C 0.75959 0.54304 0.08597 0.0
C197 C 0.87138 0.53625 0.02641 0.0
O198 O 0.82764 0.55742 0.02414 0.0
O199 O 0.87622 0.49536 0.03778 0.0
O200 O 0.70357 0.54006 0.0096 0.0
O201 O 0.73349 0.46203 0.01568 0.0
O202 O 0.7694 0.24988 0.26144 0.0
Cd203 Cd 0.76985 0.30707 0.28772 0.0
Cd204 Cd 0.74032 0.23104 0.31218 0.0
O205 O 0.72396 0.19358 0.27978 0.0
O206 O 0.76521 0.3721 0.27085 0.0
O207 O 0.70376 0.34468 0.29305 0.0
C208 C 0.71981 0.37793 0.27876 0.0
C209 C 0.68307 0.23045 0.34237 0.0
C210 C 0.7453 0.20692 0.26136 0.0
C211 C 0.84818 0.27316 0.3218 0.0
O212 O 0.81701 0.23539 0.32351 0.0
O213 O 0.83481 0.31131 0.30987 0.0
O214 O 0.70556 0.18898 0.33518 0.0
O215 O 0.69123 0.2724 0.3317 0.0
C216 C 0.21303 0.04828 0.31613 0.0
C217 C 0.22196 0.10042 0.3234 0.0
H218 H 0.24422 0.97905 0.3009 0.0
C219 C 0.26826 0.12459 0.31776 0.0
H220 H 0.17774 0.02847 0.32013 0.0
C221 C 0.30602 0.09633 0.30622 0.0
C222 C 0.29844 0.04325 0.30059 0.0
H223 H 0.2761 0.16479 0.32301 0.0
H224 H 0.34236 0.11522 0.3031 0.0
C225 C 0.25109 0.01988 0.30509 0.0
C226 C 0.18639 0.77459 0.57886 0.0
C227 C 0.13597 0.77637 0.58682 0.0
H228 H 0.24762 0.81498 0.56345 0.0
C229 C 0.10818 0.82221 0.58496 0.0
H230 H 0.20893 0.73988 0.58005 0.0
C231 C 0.13055 0.86549 0.57551 0.0
C232 C 0.18113 0.86376 0.56766 0.0
H233 H 0.06934 0.82488 0.591 0.0
H234 H 0.10813 0.90028 0.57437 0.0
C235 C 0.20869 0.81774 0.56938 0.0
C236 C 0.44782 0.58314 0.83258 0.0
C237 C 0.49673 0.60654 0.83146 0.0
H238 H 0.36661 0.5884 0.82478 0.0
C239 C 0.50088 0.6538 0.82057 0.0
H240 H 0.44335 0.54683 0.84095 0.0
C241 C 0.45704 0.67757 0.8113 0.0
C242 C 0.40796 0.65482 0.81284 0.0
H243 H 0.53801 0.67283 0.81939 0.0
H244 H 0.46165 0.71415 0.80317 0.0
C245 C 0.40384 0.60715 0.82345 0.0
C246 C 0.63584 0.94552 0.08746 0.0
C247 C 0.61134 0.98957 0.07909 0.0
H248 H 0.64271 0.86318 0.08419 0.0
C249 C 0.57498 0.98356 0.06006 0.0
H250 H 0.6641 0.94887 0.10209 0.0
C251 C 0.56266 0.93459 0.04989 0.0
C252 C 0.58651 0.89038 0.05843 0.0
H253 H 0.55543 0.01663 0.05316 0.0
H254 H 0.53405 0.93146 0.03539 0.0
C255 C 0.62361 0.89641 0.0772 0.0
C256 C 0.28481 0.6965 0.00139 0.0
C257 C 0.2547 0.73828 0.9945 0.0
H258 H 0.36026 0.67064 0.01182 0.0
C259 C 0.27803 0.7873 0.99359 0.0
H260 H 0.26766 0.65832 0.0022 0.0
C261 C 0.33098 0.79399 -0.00158 0.0
C262 C 0.36128 0.75209 0.00489 0.0
H263 H 0.25581 0.82009 0.98814 0.0
H264 H 0.34831 0.83188 0.9969 0.0
C265 C 0.33762 0.70355 0.00689 0.0
C266 C 0.44227 0.74527 0.23987 0.0
C267 C 0.48994 0.73211 0.23074 0.0
H268 H 0.39679 0.80474 0.25565 0.0
C269 C 0.52855 0.77051 0.23015 0.0
H270 H 0.41167 0.71659 0.24044 0.0
C271 C 0.52005 0.82076 0.23875 0.0
C272 C 0.47267 0.83397 0.24812 0.0
H273 H 0.56568 0.76181 0.22315 0.0
H274 H 0.55094 0.84916 0.23821 0.0
C275 C 0.43367 0.79581 0.24845 0.0
C276 C 0.47169 0.08783 0.52201 0.0
C277 C 0.50501 0.05982 0.50762 0.0
H278 H 0.40201 0.08692 0.54061 0.0
C279 C 0.49626 0.00637 0.50348 0.0
H280 H 0.4776 0.12893 0.52574 0.0
C281 C 0.453 0.98227 0.51201 0.0
C282 C 0.41761 0.01104 0.52493 0.0
H283 H 0.52148 0.98345 0.49267 0.0
H284 H 0.44596 0.94163 0.50743 0.0
C285 C 0.42844 0.06365 0.53062 0.0
C286 C 0.24307 0.97029 0.7555 0.0
C287 C 0.27722 0.9921 0.74016 0.0
H288 H 0.22533 0.90578 0.77597 0.0
C289 C 0.3229 0.96608 0.73527 0.0
H290 H 0.20771 0.98954 0.75978 0.0
C291 C 0.33288 0.91803 0.74447 0.0
C292 C 0.29762 0.89514 0.75895 0.0
H293 H 0.35018 0.98189 0.72363 0.0
H294 H 0.36752 0.89813 0.73965 0.0
C295 C 0.25328 0.92239 0.76488 0.0
C296 C 0.75464 0.50557 0.80533 0.0
C297 C 0.73199 0.48102 0.82383 0.0
H298 H 0.81995 0.51077 0.78393 0.0
C299 C 0.75651 0.43813 0.83326 0.0
H300 H 0.7366 0.53854 0.79758 0.0
C301 C 0.80398 0.42192 0.82528 0.0
C302 C 0.82821 0.44846 0.80781 0.0
H303 H 0.73984 0.418 0.84736 0.0
H304 H 0.82275 0.39003 0.83361 0.0
C305 C 0.80238 0.48957 0.79746 0.0
C306 C 0.71624 0.26588 0.07608 0.0
C307 C 0.75048 0.23539 0.08905 0.0
H308 H 0.70593 0.33503 0.0574 0.0
C309 C 0.80286 0.25031 0.09148 0.0
H310 H 0.67574 0.25527 0.07375 0.0
C311 C 0.82006 0.29616 0.0823 0.0
C312 C 0.78544 0.32776 0.07019 0.0
H313 H 0.83035 0.22764 0.10129 0.0
H314 H 0.86023 0.30759 0.08531 0.0
C315 C 0.73362 0.31144 0.06661 0.0
C316 C 0.96653 0.22194 0.35333 0.0
C317 C 0.00495 0.25758 0.34791 0.0
H318 H 0.88712 0.19932 0.34967 0.0
C319 C 0.99079 0.30061 0.33514 0.0
H320 H 0.97596 0.18858 0.36333 0.0
C321 C 0.93942 0.30689 0.32731 0.0
C322 C 0.90137 0.27021 0.33211 0.0
H323 H 0.01947 0.3289 0.3308 0.0
H324 H 0.92984 0.3397 0.31697 0.0
C325 C 0.91542 0.22818 0.34555 0.0
C326 C 0.98752 0.49806 0.58644 0.0
C327 C 0.03718 0.51701 0.58246 0.0
H328 H 0.93541 0.4332 0.58376 0.0
C329 C 0.07138 0.48481 0.57046 0.0
H330 H 0.96015 0.52188 0.59559 0.0
C331 C 0.05695 0.43393 0.5635 0.0
C332 C 0.00828 0.41426 0.56864 0.0
H333 H 0.1098 0.49839 0.56702 0.0
H334 H 0.08466 0.40948 0.55493 0.0
C335 C 0.97334 0.44714 0.57972 0.0
C336 C 0.76519 0.19844 0.51465 0.0
C337 C 0.75847 0.15532 0.49885 0.0
H338 H 0.81795 0.2469 0.53583 0.0
C339 C 0.80196 0.12725 0.49233 0.0
H340 H 0.73254 0.22102 0.51996 0.0
C341 C 0.8512 0.14199 0.50156 0.0
C342 C 0.85786 0.18536 0.51728 0.0
H343 H 0.79797 0.09382 0.48016 0.0
H344 H 0.884 0.11956 0.49631 0.0
C345 C 0.81429 0.21343 0.52367 0.0
C346 C 0.10532 0.26129 0.75377 0.0
C347 C 0.14963 0.27496 0.7421 0.0
H348 H 0.03873 0.28718 0.77126 0.0
C349 C 0.16085 0.32755 0.73959 0.0
H350 H 0.09538 0.22114 0.75596 0.0
C351 C 0.12805 0.36559 0.74829 0.0
C352 C 0.08337 0.3518 0.75969 0.0
H353 H 0.19454 0.33939 0.73059 0.0
H354 H 0.13766 0.40577 0.74598 0.0
C355 C 0.07261 0.29922 0.76245 0.0
C356 C 0.00809 0.55843 0.00812 0.0
C357 C 0.00434 0.60607 0.99741 0.0
H358 H 0.96933 0.49903 0.02556 0.0
C359 C 0.95659 0.63092 0.99654 0.0
H360 H 0.04431 0.53821 0.00908 0.0
C361 C 0.91336 0.60815 0.00585 0.0
C362 C 0.91703 0.5602 0.01635 0.0
H363 H 0.95236 0.6675 0.98831 0.0
H364 H 0.87704 0.62816 0.00478 0.0
C365 C 0.96502 0.53583 0.01752 0.0
C366 C 0.60183 0.4594 0.26639 0.0
C367 C 0.61896 0.4897 0.24841 0.0
H368 H 0.62039 0.40004 0.29025 0.0
C369 C 0.67039 0.48555 0.24198 0.0
H370 H 0.56248 0.46187 0.2718 0.0
C371 C 0.70346 0.45085 0.25264 0.0
C372 C 0.68598 0.41898 0.26992 0.0
H373 H 0.68515 0.5087 0.22841 0.0
H374 H 0.74244 0.44805 0.24677 0.0
C375 C 0.63502 0.42412 0.27699 0.0
C376 C 0.14425 0.07574 0.44319 0.0
C377 C 0.17761 0.06397 0.42501 0.0
H378 H 0.12909 0.06874 0.47952 0.0
C379 C 0.21813 0.02974 0.42902 0.0
H380 H 0.11273 0.10217 0.44067 0.0
C381 C 0.22713 0.0102 0.45121 0.0
C382 C 0.1963 0.0253 0.46989 0.0
H383 H 0.24432 0.01991 0.41531 0.0
H384 H 0.26003 0.98561 0.45402 0.0
C385 C 0.15383 0.05697 0.46551 0.0
C386 C 0.13342 0.60813 0.70493 0.0
C387 C 0.14761 0.6248 0.68301 0.0
H388 H 0.14826 0.61321 0.74227 0.0
C389 C 0.19269 0.65499 0.6819 0.0
H390 H 0.099 0.58461 0.70636 0.0
C391 C 0.22104 0.67113 0.70244 0.0
C392 C 0.20467 0.65777 0.72453 0.0
H393 H 0.2048 0.66818 0.66525 0.0
H394 H 0.25449 0.69602 0.701 0.0
C395 C 0.16147 0.62478 0.72554 0.0
C396 C 0.61416 0.66605 0.92826 0.0
C397 C 0.64979 0.62622 0.9311 0.0
H398 H 0.5669 0.72224 0.94502 0.0
C399 C 0.67006 0.61729 0.95385 0.0
H400 H 0.59802 0.67427 0.91099 0.0
C401 C 0.65181 0.64461 0.97347 0.0
C402 C 0.61318 0.68162 0.97071 0.0
H403 H 0.69779 0.5871 0.95667 0.0
H404 H 0.6664 0.63511 0.99083 0.0
C405 C 0.59605 0.69339 0.94784 0.0
C406 C 0.56874 0.12452 0.19464 0.0
C407 C 0.53942 0.10568 0.17451 0.0
H408 H 0.58224 0.12092 0.23195 0.0
C409 C 0.49448 0.07631 0.17745 0.0
H410 H 0.60367 0.14715 0.19302 0.0
C411 C 0.48131 0.06281 0.19993 0.0
C412 C 0.51377 0.07713 0.21969 0.0
H413 H 0.47122 0.06126 0.16228 0.0
H414 H 0.44831 0.03742 0.20157 0.0
C415 C 0.55659 0.1095 0.21697 0.0
C416 C 0.12205 0.74112 0.88199 0.0
C417 C 0.15386 0.77152 0.89805 0.0
H418 H 0.11368 0.7044 0.84744 0.0
C419 C 0.19677 0.7974 0.88973 0.0
H420 H 0.08874 0.72078 0.88782 0.0
C421 C 0.21024 0.78918 0.86635 0.0
C422 C 0.18181 0.75384 0.85117 0.0
H423 H 0.22198 0.82103 0.90171 0.0
H424 H 0.24546 0.8068 0.86083 0.0
C425 C 0.13644 0.73156 0.85887 0.0
C426 C 0.52882 0.58719 0.12239 0.0
C427 C 0.48462 0.60705 0.13277 0.0
H428 H 0.58068 0.59225 0.0944 0.0
C429 C 0.45408 0.64194 0.12035 0.0
H430 H 0.55327 0.56019 0.13141 0.0
C431 C 0.4697 0.65989 0.09901 0.0
C432 C 0.51659 0.64394 0.08992 0.0
H433 H 0.41972 0.65771 0.12782 0.0
H434 H 0.44693 0.68903 0.09054 0.0
C435 C 0.54487 0.60586 0.10128 0.0
C436 C 0.59338 0.02651 0.37633 0.0
C437 C 0.56672 0.00568 0.39468 0.0
H438 H 0.59398 0.03821 0.33936 0.0
C439 C 0.52175 0.97601 0.38918 0.0
H440 H 0.62796 0.04995 0.38005 0.0
C441 C 0.50231 0.96938 0.36598 0.0
C442 C 0.5272 0.99261 0.34773 0.0
H443 H 0.50045 0.95942 0.40294 0.0
H444 H 0.46676 0.94735 0.36252 0.0
C445 C 0.57364 0.02023 0.35305 0.0
C446 C 0.27883 0.12643 0.63734 0.0
C447 C 0.2418 0.16292 0.64375 0.0
H448 H 0.30381 0.07267 0.61063 0.0
C449 C 0.20668 0.17977 0.62625 0.0
H450 H 0.30668 0.11294 0.65033 0.0
C451 C 0.20448 0.15604 0.60367 0.0
C452 C 0.23802 0.11586 0.59802 0.0
H453 H 0.17788 0.20818 0.63044 0.0
H454 H 0.17455 0.1671 0.59107 0.0
C455 C 0.27714 0.10331 0.61459 0.0
C456 C 0.6708 0.41544 0.94673 0.0
C457 C 0.63206 0.4459 0.93667 0.0
H458 H 0.72329 0.40553 0.97628 0.0
C459 C 0.61051 0.48541 0.95076 0.0
H460 H 0.68797 0.38459 0.9364 0.0
C461 C 0.63145 0.49804 0.9734 0.0
C462 C 0.6735 0.47073 0.98255 0.0
H463 H 0.58056 0.50968 0.94364 0.0
H464 H 0.61668 0.53108 0.98319 0.0
C465 C 0.69108 0.42751 0.96957 0.0
C466 C 0.76145 0.15856 0.19854 0.0
C467 C 0.7263 0.11673 0.19617 0.0
H468 H 0.79474 0.21992 0.22091 0.0
C469 C 0.70189 0.10101 0.21621 0.0
H470 H 0.7812 0.17147 0.18351 0.0
C471 C 0.70934 0.12917 0.23771 0.0
C472 C 0.74149 0.1734 0.23956 0.0
H473 H 0.67465 0.06883 0.21502 0.0
H474 H 0.68821 0.11756 0.25257 0.0
C475 C 0.76887 0.18665 0.21997 0.0
C476 C 0.15731 0.21814 0.4557 0.0
C477 C 0.13885 0.26202 0.44456 0.0
H478 H 0.1519 0.17006 0.48508 0.0
C479 C 0.10719 0.29621 0.45694 0.0
H480 H 0.18167 0.19086 0.44664 0.0
C481 C 0.09079 0.28459 0.47913 0.0
C482 C 0.10484 0.23796 0.48912 0.0
H483 H 0.09243 0.33029 0.44882 0.0
H484 H 0.06391 0.3102 0.48759 0.0
C485 C 0.13995 0.20592 0.47766 0.0
C486 C 0.92665 0.58715 0.68654 0.0
C487 C 0.95777 0.62956 0.68131 0.0
H488 H 0.91069 0.52998 0.71127 0.0
C489 C 0.99181 0.65176 0.6991 0.0
H490 H 0.89987 0.56931 0.67327 0.0
C491 C 0.99867 0.62862 0.72063 0.0
C492 C 0.97092 0.5835 0.72501 0.0
H493 H 0.01639 0.68445 0.69578 0.0
H494 H 0.02775 0.64451 0.73335 0.0
C495 C 0.93292 0.56452 0.70828 0.0
C496 C 0.60904 0.17988 0.39151 0.0
C497 C 0.62537 0.21478 0.4102 0.0
H498 H 0.61549 0.15734 0.35509 0.0
C499 C 0.65205 0.26016 0.40517 0.0
H500 H 0.58871 0.14436 0.39479 0.0
C501 C 0.66596 0.26828 0.38218 0.0
C502 C 0.65473 0.23036 0.36412 0.0
H503 H 0.66524 0.28753 0.41924 0.0
H504 H 0.68972 0.3017 0.37902 0.0
C505 C 0.62445 0.18715 0.36875 0.0
C506 C 0.03296 0.17448 0.65513 0.0
C507 C 0.07123 0.13725 0.65788 0.0
H508 H 0.98938 0.2202 0.6315 0.0
C509 C 0.09118 0.11315 0.63764 0.0
H510 H 0.01655 0.19364 0.67029 0.0
C511 C 0.07557 0.12853 0.61521 0.0
C512 C 0.04 0.16848 0.61263 0.0
H513 H 0.12084 0.08435 0.63911 0.0
H514 H 0.09289 0.11058 0.6 0.0
C515 C 0.01764 0.18999 0.63281 0.0
C516 C 0.03094 0.62063 0.87545 0.0
C517 C 0.05748 0.59775 0.89421 0.0
H518 H 0.0013 0.61206 0.83983 0.0
C519 C 0.0747 0.54688 0.89116 0.0
H520 H 0.01726 0.65985 0.8773 0.0
C521 C 0.06412 0.51888 0.86978 0.0
C522 C 0.03786 0.54218 0.85103 0.0
H523 H 0.09519 0.52849 0.90542 0.0
H524 H 0.07664 0.47927 0.86784 0.0
C525 C 0.02201 0.59344 0.85396 0.0
C526 C 0.74081 0.56628 0.15096 0.0
C527 C 0.69593 0.59591 0.15068 0.0
H528 H 0.79627 0.52636 0.13066 0.0
C529 C 0.67654 0.61403 0.12919 0.0
H530 H 0.75697 0.55204 0.16724 0.0
C531 C 0.69873 0.59886 0.10816 0.0
C532 C 0.74106 0.56571 0.10826 0.0
H533 H 0.64253 0.63773 0.12845 0.0
H534 H 0.68137 0.61141 0.09178 0.0
C535 C 0.7632 0.55136 0.12995 0.0
loop_
_geom_bond_atom_site_label_1
_geom_bond_atom_site_label_2
_geom_bond_distance
_geom_bond_site_symmetry_2
_ccdc_geom_bond_type
Mg0 O7 2.141 . S
Mg0 O8 2.048 . S
Mg0 O9 2.048 . S
Mg0 O12 2.141 . S
C1 O2 1.313 . S
C1 O8 1.195 . S
O2 C1 1.313 . S
C3 O4 1.245 . S
C3 O12 1.289 . S
O4 C3 1.245 . S
C5 O6 1.245 . S
C5 O7 1.289 . S
O6 C5 1.245 . S
O7 Mg0 2.141 . S
O7 C5 1.289 . S
O8 Mg0 2.048 . S
O8 C1 1.195 . S
O9 Mg0 2.048 . S
O9 C10 1.195 . S
C10 O9 1.195 . S
C10 O11 1.313 . S
O11 C10 1.313 . S
O12 Mg0 2.141 . S
O12 C3 1.289 . S
Mg13 O20 2.141 . S
Mg13 O21 2.048 . S
Mg13 O22 2.038 1_455 S
Mg13 O25 2.141 . S
C14 O15 1.313 . S
C14 O21 1.195 . S
O15 C14 1.313 . S
C16 O17 1.245 . S
C16 O25 1.289 . S
O17 C16 1.245 . S
C18 O19 1.245 . S
C18 O20 1.289 . S
O19 C18 1.245 . S
O20 Mg13 2.141 . S
O20 C18 1.289 . S
O21 Mg13 2.048 . S
O21 C14 1.195 . S
O22 Mg13 2.038 1_655 S
O22 C23 1.193 1_655 S
C23 O22 1.193 1_455 S
C23 O24 1.313 . S
O24 C23 1.313 . S
O25 Mg13 2.141 . S
O25 C16 1.289 . S
Mg26 O33 2.141 . S
Mg26 O34 2.048 . S
Mg26 O35 2.048 . S
Mg26 O38 2.141 . S
C27 O28 1.313 . S
C27 O34 1.195 . S
O28 C27 1.313 . S
C29 O30 1.245 . S
C29 O38 1.289 . S
O30 C29 1.245 . S
C31 O32 1.245 . S
C31 O33 1.289 . S
O32 C31 1.245 . S
O33 Mg26 2.141 . S
O33 C31 1.289 . S
O34 Mg26 2.048 . S
O34 C27 1.195 . S
O35 Mg26 2.048 . S
O35 C36 1.195 . S
C36 O35 1.195 . S
C36 O37 1.313 . S
O37 C36 1.313 . S
O38 Mg26 2.141 . S
O38 C29 1.289 . S
Mg39 O46 2.141 . S
Mg39 O47 2.048 . S
Mg39 O48 2.048 1_545 S
Mg39 O51 2.141 1_545 S
C40 O41 1.313 . S
C40 O47 1.195 . S
O41 C40 1.313 . S
C42 O43 1.245 . S
C42 O51 1.289 . S
O43 C42 1.245 . S
C44 O45 1.245 . S
C44 O46 1.289 . S
O45 C44 1.245 . S
O46 Mg39 2.141 . S
O46 C44 1.289 . S
O47 Mg39 2.048 . S
O47 C40 1.195 . S
O48 Mg39 2.048 1_565 S
O48 C49 1.195 . S
C49 O48 1.195 . S
C49 O50 1.313 . S
O50 C49 1.313 . S
O51 Mg39 2.141 1_565 S
O51 C42 1.289 . S
Mg52 O59 2.141 . S
Mg52 O60 2.048 . S
Mg52 O61 2.048 1_455 S
Mg52 O64 2.141 1_455 S
C53 O54 1.313 . S
C53 O60 1.195 . S
O54 C53 1.313 . S
C55 O56 1.245 . S
C55 O64 1.289 . S
O56 C55 1.245 . S
C57 O58 1.245 . S
C57 O59 1.289 . S
O58 C57 1.245 . S
O59 Mg52 2.141 . S
O59 C57 1.289 . S
O60 Mg52 2.048 . S
O60 C53 1.195 . S
O61 Mg52 2.048 1_655 S
O61 C62 1.195 . S
C62 O61 1.195 . S
C62 O63 1.313 . S
O63 C62 1.313 . S
O64 Mg52 2.141 1_655 S
O64 C55 1.289 . S
Mg65 O72 2.141 . S
Mg65 O73 2.048 . S
Mg65 O74 2.048 . S
Mg65 O77 2.141 . S
C66 O67 1.313 . S
C66 O73 1.195 . S
O67 C66 1.313 . S
C68 O69 1.245 . S
C68 O77 1.289 . S
O69 C68 1.245 . S
C70 O71 1.245 . S
C70 O72 1.289 . S
O71 C70 1.245 . S
O72 Mg65 2.141 . S
O72 C70 1.289 . S
O73 Mg65 2.048 . S
O73 C66 1.195 . S
O74 Mg65 2.048 . S
O74 C75 1.195 . S
C75 O74 1.195 . S
C75 O76 1.313 . S
O76 C75 1.313 . S
O77 Mg65 2.141 . S
O77 C68 1.289 . S
Mg78 O85 2.141 . S
Mg78 O86 2.048 . S
Mg78 O87 2.048 1_545 S
Mg78 O90 2.141 1_545 S
C79 O80 1.313 . S
C79 O86 1.195 . S
O80 C79 1.313 . S
C81 O82 1.245 . S
C81 O90 1.289 1_545 S
O82 C81 1.245 . S
C83 O84 1.245 . S
C83 O85 1.289 . S
O84 C83 1.245 . S
O85 Mg78 2.141 . S
O85 C83 1.289 . S
O86 Mg78 2.048 . S
O86 C79 1.195 . S
O87 Mg78 2.048 1_565 S
O87 C88 1.195 . S
C88 O87 1.195 . S
C88 O89 1.313 1_565 S
O89 C88 1.313 1_545 S
O90 Mg78 2.141 1_565 S
O90 C81 1.289 1_565 S
Mg91 O98 2.141 . S
Mg91 O99 2.048 . S
Mg91 O100 2.048 . S
Mg91 O103 2.141 . S
C92 O93 1.313 . S
C92 O99 1.195 . S
O93 C92 1.313 . S
C94 O95 1.245 . S
C94 O103 1.289 . S
O95 C94 1.245 . S
C96 O97 1.245 . S
C96 O98 1.289 . S
O97 C96 1.245 . S
O98 Mg91 2.141 . S
O98 C96 1.289 . S
O99 Mg91 2.048 . S
O99 C92 1.195 . S
O100 Mg91 2.048 . S
O100 C101 1.195 . S
C101 O100 1.195 . S
C101 O102 1.313 . S
O102 C101 1.313 . S
O103 Mg91 2.141 . S
O103 C94 1.289 . S
O104 Cd105 2.223 . S
O104 C112 1.315 . S
Cd105 O104 2.223 . S
Cd105 O108 2.297 . S
Cd105 O109 2.439 . S
Cd105 O115 2.240 . S
Cd106 O107 2.240 . S
Cd106 O114 2.223 . S
Cd106 O116 2.297 . S
Cd106 O117 2.439 . S
O107 Cd106 2.240 . S
O107 C112 1.279 . S
O108 Cd105 2.297 . S
O108 C110 1.247 . S
O109 Cd105 2.439 . S
O109 C110 1.208 . S
C110 O108 1.247 . S
C110 O109 1.208 . S
C111 O116 1.247 . S
C111 O117 1.208 . S
C112 O104 1.315 . S
C112 O107 1.279 . S
C113 O114 1.315 . S
C113 O115 1.279 . S
O114 Cd106 2.223 . S
O114 C113 1.315 . S
O115 Cd105 2.240 . S
O115 C113 1.279 . S
O116 Cd106 2.297 . S
O116 C111 1.247 . S
O117 Cd106 2.439 . S
O117 C111 1.208 . S
O118 Cd119 2.223 . S
O118 C126 1.315 . S
Cd119 O118 2.223 . S
Cd119 O122 2.297 . S
Cd119 O123 2.439 . S
Cd119 O129 2.240 . S
Cd120 O121 2.240 . S
Cd120 O128 2.223 . S
Cd120 O130 2.297 . S
Cd120 O131 2.439 . S
O121 Cd120 2.240 . S
O121 C126 1.279 . S
O122 Cd119 2.297 . S
O122 C124 1.247 . S
O123 Cd119 2.439 . S
O123 C124 1.208 . S
C124 O122 1.247 . S
C124 O123 1.208 . S
C125 O130 1.247 . S
C125 O131 1.208 . S
C126 O118 1.315 . S
C126 O121 1.279 . S
C127 O128 1.315 . S
C127 O129 1.279 . S
O128 Cd120 2.223 . S
O128 C127 1.315 . S
O129 Cd119 2.240 . S
O129 C127 1.279 . S
O130 Cd120 2.297 . S
O130 C125 1.247 . S
O131 Cd120 2.439 . S
O131 C125 1.208 . S
O132 Cd133 2.223 . S
O132 C140 1.315 . S
Cd133 O132 2.223 . S
Cd133 O136 2.297 . S
Cd133 O137 2.439 1_565 S
Cd133 O143 2.240 . S
Cd134 O135 2.240 . S
Cd134 O142 2.223 1_545 S
Cd134 O144 2.297 . S
Cd134 O145 2.439 . S
O135 Cd134 2.240 . S
O135 C140 1.279 1_545 S
O136 Cd133 2.297 . S
O136 C138 1.247 . S
O137 Cd133 2.439 1_545 S
O137 C138 1.208 1_545 S
C138 O136 1.247 . S
C138 O137 1.208 1_565 S
C139 O144 1.247 . S
C139 O145 1.208 . S
C140 O132 1.315 . S
C140 O135 1.279 1_565 S
C141 O142 1.315 . S
C141 O143 1.279 . S
O142 Cd134 2.223 1_565 S
O142 C141 1.315 . S
O143 Cd133 2.240 . S
O143 C141 1.279 . S
O144 Cd134 2.297 . S
O144 C139 1.247 . S
O145 Cd134 2.439 . S
O145 C139 1.208 . S
O146 Cd147 2.223 . S
O146 C154 1.315 . S
Cd147 O146 2.223 . S
Cd147 O150 2.297 1_565 S
Cd147 O151 2.439 . S
Cd147 O157 2.240 . S
Cd148 O149 2.240 . S
Cd148 O156 2.223 . S
Cd148 O158 2.297 . S
Cd148 O159 2.439 . S
O149 Cd148 2.240 . S
O149 C154 1.279 . S
O150 Cd147 2.297 1_545 S
O150 C152 1.247 . S
O151 Cd147 2.439 . S
O151 C152 1.208 1_565 S
C152 O150 1.247 . S
C152 O151 1.208 1_545 S
C153 O158 1.247 . S
C153 O159 1.208 . S
C154 O146 1.315 . S
C154 O149 1.279 . S
C155 O156 1.315 . S
C155 O157 1.279 . S
O156 Cd148 2.223 . S
O156 C155 1.315 . S
O157 Cd147 2.240 . S
O157 C155 1.279 . S
O158 Cd148 2.297 . S
O158 C153 1.247 . S
O159 Cd148 2.439 . S
O159 C153 1.208 . S
O160 Cd161 2.223 . S
O160 C168 1.315 . S
Cd161 O160 2.223 . S
Cd161 O164 2.297 . S
Cd161 O165 2.439 1_655 S
Cd161 O171 2.240 . S
Cd162 O163 2.240 . S
Cd162 O170 2.223 1_455 S
Cd162 O172 2.297 . S
Cd162 O173 2.439 . S
O163 Cd162 2.240 . S
O163 C168 1.279 1_455 S
O164 Cd161 2.297 . S
O164 C166 1.247 . S
O165 Cd161 2.439 1_455 S
O165 C166 1.208 1_455 S
C166 O164 1.247 . S
C166 O165 1.208 1_655 S
C167 O172 1.247 . S
C167 O173 1.208 . S
C168 O160 1.315 . S
C168 O163 1.279 1_655 S
C169 O170 1.315 . S
C169 O171 1.279 . S
O170 Cd162 2.223 1_655 S
O170 C169 1.315 . S
O171 Cd161 2.240 . S
O171 C169 1.279 . S
O172 Cd162 2.297 . S
O172 C167 1.247 . S
O173 Cd162 2.439 . S
O173 C167 1.208 . S
O174 Cd175 2.223 . S
O174 C182 1.315 . S
Cd175 O174 2.223 . S
Cd175 O178 2.297 . S
Cd175 O179 2.439 . S
Cd175 O185 2.240 . S
Cd176 O177 2.240 . S
Cd176 O184 2.223 . S
Cd176 O186 2.297 . S
Cd176 O187 2.439 . S
O177 Cd176 2.240 . S
O177 C182 1.279 . S
O178 Cd175 2.297 . S
O178 C180 1.247 . S
O179 Cd175 2.439 . S
O179 C180 1.208 . S
C180 O178 1.247 . S
C180 O179 1.208 . S
C181 O186 1.247 . S
C181 O187 1.208 . S
C182 O174 1.315 . S
C182 O177 1.279 . S
C183 O184 1.315 . S
C183 O185 1.279 . S
O184 Cd176 2.223 . S
O184 C183 1.315 . S
O185 Cd175 2.240 . S
O185 C183 1.279 . S
O186 Cd176 2.297 . S
O186 C181 1.247 . S
O187 Cd176 2.439 . S
O187 C181 1.208 . S
O188 Cd189 2.223 . S
O188 C196 1.315 . S
Cd189 O188 2.223 . S
Cd189 O192 2.297 . S
Cd189 O193 2.439 . S
Cd189 O199 2.240 . S
Cd190 O191 2.240 . S
Cd190 O198 2.223 . S
Cd190 O200 2.297 1_554 S
Cd190 O201 2.439 1_554 S
O191 Cd190 2.240 . S
O191 C196 1.279 . S
O192 Cd189 2.297 . S
O192 C194 1.247 . S
O193 Cd189 2.439 . S
O193 C194 1.208 . S
C194 O192 1.247 . S
C194 O193 1.208 . S
C195 O200 1.247 . S
C195 O201 1.208 . S
C196 O188 1.315 . S
C196 O191 1.279 . S
C197 O198 1.315 . S
C197 O199 1.279 . S
O198 Cd190 2.223 . S
O198 C197 1.315 . S
O199 Cd189 2.240 . S
O199 C197 1.279 . S
O200 Cd190 2.297 1_556 S
O200 C195 1.247 . S
O201 Cd190 2.439 1_556 S
O201 C195 1.208 . S
O202 Cd203 2.223 . S
O202 C210 1.315 . S
Cd203 O202 2.223 . S
Cd203 O206 2.297 . S
Cd203 O207 2.439 . S
Cd203 O213 2.240 . S
Cd204 O205 2.240 . S
Cd204 O212 2.223 . S
Cd204 O214 2.297 . S
Cd204 O215 2.439 . S
O205 Cd204 2.240 . S
O205 C210 1.279 . S
O206 Cd203 2.297 . S
O206 C208 1.247 . S
O207 Cd203 2.439 . S
O207 C208 1.208 . S
C208 O206 1.247 . S
C208 O207 1.208 . S
C209 O214 1.247 . S
C209 O215 1.208 . S
C210 O202 1.315 . S
C210 O205 1.279 . S
C211 O212 1.315 . S
C211 O213 1.279 . S
O212 Cd204 2.223 . S
O212 C211 1.315 . S
O213 Cd203 2.240 . S
O213 C211 1.279 . S
O214 Cd204 2.297 . S
O214 C209 1.247 . S
O215 Cd204 2.439 . S
O215 C209 1.208 . S
C216 C217 1.387 1_565 S
C216 H220 0.950 . S
C216 C225 1.390 . S
C217 C216 1.387 1_545 S
C217 C219 1.387 . S
H218 C225 0.950 . S
C219 C217 1.387 . S
C219 C221 1.390 1_545 S
C219 H223 0.950 . S
H220 C216 0.950 . S
C221 C219 1.390 1_565 S
C221 C222 1.387 . S
C221 H224 0.950 . S
C222 C221 1.387 . S
C222 C225 1.387 . S
H223 C219 0.950 . S
H224 C221 0.950 . S
C225 C216 1.390 . S
C225 H218 0.950 . S
C225 C222 1.387 . S
C226 C227 1.387 . S
C226 H230 0.950 . S
C226 C235 1.390 . S
C227 C226 1.387 . S
C227 C229 1.387 . S
H228 C235 0.950 . S
C229 C227 1.387 . S
C229 C231 1.390 . S
C229 H233 0.950 . S
H230 C226 0.950 . S
C231 C229 1.390 . S
C231 C232 1.387 . S
C231 H234 0.950 . S
C232 C231 1.387 . S
C232 C235 1.387 . S
H233 C229 0.950 . S
H234 C231 0.950 . S
C235 C226 1.390 . S
C235 H228 0.950 . S
C235 C232 1.387 . S
C236 C237 1.387 . S
C236 H240 0.950 . S
C236 C245 1.390 . S
C237 C236 1.387 . S
C237 C239 1.387 . S
H238 C245 0.950 . S
C239 C237 1.387 . S
C239 C241 1.390 . S
C239 H243 0.950 . S
H240 C236 0.950 . S
C241 C239 1.390 . S
C241 C242 1.387 . S
C241 H244 0.950 . S
C242 C241 1.387 . S
C242 C245 1.387 . S
H243 C239 0.950 . S
H244 C241 0.950 . S
C245 C236 1.390 . S
C245 H238 0.950 . S
C245 C242 1.387 . S
C246 C247 1.387 . S
C246 H250 0.950 . S
C246 C255 1.390 . S
C247 C246 1.387 . S
C247 C249 1.387 . S
H248 C255 0.950 . S
C249 C247 1.387 . S
C249 C251 1.390 . S
C249 H253 0.950 . S
H250 C246 0.950 . S
C251 C249 1.390 . S
C251 C252 1.387 . S
C251 H254 0.950 . S
C252 C251 1.387 . S
C252 C255 1.387 . S
H253 C249 0.950 . S
H254 C251 0.950 . S
C255 C246 1.390 . S
C255 H248 0.950 . S
C255 C252 1.387 . S
C256 C257 1.387 . S
C256 H260 0.950 . S
C256 C265 1.390 . S
C257 C256 1.387 . S
C257 C259 1.387 . S
H258 C265 0.950 . S
C259 C257 1.387 . S
C259 C261 1.390 . S
C259 H263 0.950 . S
H260 C256 0.950 . S
C261 C259 1.390 . S
C261 C262 1.387 . S
C261 H264 0.950 . S
C262 C261 1.387 . S
C262 C265 1.387 . S
H263 C259 0.950 . S
H264 C261 0.950 . S
C265 C256 1.390 . S
C265 H258 0.950 . S
C265 C262 1.387 . S
C266 C267 1.387 . S
C266 H270 0.950 . S
C266 C275 1.390 . S
C267 C266 1.387 . S
C267 C269 1.387 . S
H268 C275 0.950 . S
C269 C267 1.387 . S
C269 C271 1.390 . S
C269 H273 0.950 . S
H270 C266 0.950 . S
C271 C269 1.390 . S
C271 C272 1.387 . S
C271 H274 0.950 . S
C272 C271 1.387 . S
C272 C275 1.387 . S
H273 C269 0.950 . S
H274 C271 0.950 . S
C275 C266 1.390 . S
C275 H268 0.950 . S
C275 C272 1.387 . S
C276 C277 1.387 . S
C276 H280 0.950 . S
C276 C285 1.390 . S
C277 C276 1.387 . S
C277 C279 1.387 1_545 S
H278 C285 0.950 . S
C279 C277 1.387 1_565 S
C279 C281 1.390 . S
C279 H283 0.950 . S
H280 C276 0.950 . S
C281 C279 1.390 . S
C281 C282 1.387 1_565 S
C281 H284 0.950 . S
C282 C281 1.387 1_545 S
C282 C285 1.387 . S
H283 C279 0.950 . S
H284 C281 0.950 . S
C285 C276 1.390 . S
C285 H278 0.950 . S
C285 C282 1.387 . S
C286 C287 1.387 . S
C286 H290 0.950 . S
C286 C295 1.390 . S
C287 C286 1.387 . S
C287 C289 1.387 . S
H288 C295 0.950 . S
C289 C287 1.387 . S
C289 C291 1.390 . S
C289 H293 0.950 . S
H290 C286 0.950 . S
C291 C289 1.390 . S
C291 C292 1.387 . S
C291 H294 0.950 . S
C292 C291 1.387 . S
C292 C295 1.387 . S
H293 C289 0.950 . S
H294 C291 0.950 . S
C295 C286 1.390 . S
C295 H288 0.950 . S
C295 C292 1.387 . S
C296 C297 1.387 . S
C296 H300 0.950 . S
C296 C305 1.390 . S
C297 C296 1.387 . S
C297 C299 1.387 . S
H298 C305 0.950 . S
C299 C297 1.387 . S
C299 C301 1.390 . S
C299 H303 0.950 . S
H300 C296 0.950 . S
C301 C299 1.390 . S
C301 C302 1.387 . S
C301 H304 0.950 . S
C302 C301 1.387 . S
C302 C305 1.387 . S
H303 C299 0.950 . S
H304 C301 0.950 . S
C305 C296 1.390 . S
C305 H298 0.950 . S
C305 C302 1.387 . S
C306 C307 1.387 . S
C306 H310 0.950 . S
C306 C315 1.390 . S
C307 C306 1.387 . S
C307 C309 1.387 . S
H308 C315 0.950 . S
C309 C307 1.387 . S
C309 C311 1.390 . S
C309 H313 0.950 . S
H310 C306 0.950 . S
C311 C309 1.390 . S
C311 C312 1.387 . S
C311 H314 0.950 . S
C312 C311 1.387 . S
C312 C315 1.387 . S
H313 C309 0.950 . S
H314 C311 0.950 . S
C315 C306 1.390 . S
C315 H308 0.950 . S
C315 C312 1.387 . S
C316 C317 1.387 . S
C316 H320 0.950 . S
C316 C325 1.390 . S
C317 C316 1.387 . S
C317 C319 1.387 . S
H318 C325 0.950 . S
C319 C317 1.387 . S
C319 C321 1.390 . S
C319 H323 0.950 . S
H320 C316 0.950 . S
C321 C319 1.390 . S
C321 C322 1.387 . S
C321 H324 0.950 . S
C322 C321 1.387 . S
C322 C325 1.387 . S
H323 C319 0.950 . S
H324 C321 0.950 . S
C325 C316 1.390 . S
C325 H318 0.950 . S
C325 C322 1.387 . S
C326 C327 1.387 1_655 S
C326 H330 0.950 . S
C326 C335 1.390 . S
C327 C326 1.387 1_455 S
C327 C329 1.387 . S
H328 C335 0.950 . S
C329 C327 1.387 . S
C329 C331 1.390 . S
C329 H333 0.950 . S
H330 C326 0.950 . S
C331 C329 1.390 . S
C331 C332 1.387 . S
C331 H334 0.950 . S
C332 C331 1.387 . S
C332 C335 1.387 1_455 S
H333 C329 0.950 . S
H334 C331 0.950 . S
C335 C326 1.390 . S
C335 H328 0.950 . S
C335 C332 1.387 1_655 S
C336 C337 1.387 . S
C336 H340 0.950 . S
C336 C345 1.390 . S
C337 C336 1.387 . S
C337 C339 1.387 . S
H338 C345 0.950 . S
C339 C337 1.387 . S
C339 C341 1.390 . S
C339 H343 0.950 . S
H340 C336 0.950 . S
C341 C339 1.390 . S
C341 C342 1.387 . S
C341 H344 0.950 . S
C342 C341 1.387 . S
C342 C345 1.387 . S
H343 C339 0.950 . S
H344 C341 0.950 . S
C345 C336 1.390 . S
C345 H338 0.950 . S
C345 C342 1.387 . S
C346 C347 1.387 . S
C346 H350 0.950 . S
C346 C355 1.390 1_455 S
C347 C346 1.387 . S
C347 C349 1.387 . S
H348 C355 0.950 . S
C349 C347 1.387 . S
C349 C351 1.390 1_455 S
C349 H353 0.950 . S
H350 C346 0.950 . S
C351 C349 1.390 1_655 S
C351 C352 1.387 . S
C351 H354 0.950 . S
C352 C351 1.387 . S
C352 C355 1.387 . S
H353 C349 0.950 . S
H354 C351 0.950 . S
C355 C346 1.390 1_655 S
C355 H348 0.950 . S
C355 C352 1.387 . S
C356 C357 1.387 1_554 S
C356 H360 0.950 . S
C356 C365 1.390 . S
C357 C356 1.387 1_556 S
C357 C359 1.387 . S
H358 C365 0.950 . S
C359 C357 1.387 . S
C359 C361 1.390 . S
C359 H363 0.950 . S
H360 C356 0.950 . S
C361 C359 1.390 . S
C361 C362 1.387 1_556 S
C361 H364 0.950 . S
C362 C361 1.387 1_554 S
C362 C365 1.387 . S
H363 C359 0.950 . S
H364 C361 0.950 . S
C365 C356 1.390 . S
C365 H358 0.950 . S
C365 C362 1.387 . S
C366 C367 1.387 . S
C366 H370 0.950 . S
C366 C375 1.390 . S
C367 C366 1.387 . S
C367 C369 1.387 . S
H368 C375 0.950 . S
C369 C367 1.387 . S
C369 C371 1.390 . S
C369 H373 0.950 . S
H370 C366 0.950 . S
C371 C369 1.390 . S
C371 C372 1.387 . S
C371 H374 0.950 . S
C372 C371 1.387 . S
C372 C375 1.387 . S
H373 C369 0.950 . S
H374 C371 0.950 . S
C375 C366 1.390 . S
C375 H368 0.950 . S
C375 C372 1.387 . S
C376 C377 1.387 . S
C376 H380 0.950 . S
C376 C385 1.390 . S
C377 C376 1.387 . S
C377 C379 1.387 . S
H378 C385 0.950 . S
C379 C377 1.387 . S
C379 C381 1.390 1_545 S
C379 H383 0.950 1_545 S
H380 C376 0.950 . S
C381 C379 1.390 1_565 S
C381 C382 1.387 1_565 S
C381 H384 0.950 . S
C382 C381 1.387 1_545 S
C382 C385 1.387 . S
H383 C379 0.950 1_565 S
H384 C381 0.950 . S
C385 C376 1.390 . S
C385 H378 0.950 . S
C385 C382 1.387 . S
C386 C387 1.387 . S
C386 H390 0.950 . S
C386 C395 1.390 . S
C387 C386 1.387 . S
C387 C389 1.387 . S
H388 C395 0.950 . S
C389 C387 1.387 . S
C389 C391 1.390 . S
C389 H393 0.950 . S
H390 C386 0.950 . S
C391 C389 1.390 . S
C391 C392 1.387 . S
C391 H394 0.950 . S
C392 C391 1.387 . S
C392 C395 1.387 . S
H393 C389 0.950 . S
H394 C391 0.950 . S
C395 C386 1.390 . S
C395 H388 0.950 . S
C395 C392 1.387 . S
C396 C397 1.387 . S
C396 H400 0.950 . S
C396 C405 1.390 . S
C397 C396 1.387 . S
C397 C399 1.387 . S
H398 C405 0.950 . S
C399 C397 1.387 . S
C399 C401 1.390 . S
C399 H403 0.950 . S
H400 C396 0.950 . S
C401 C399 1.390 . S
C401 C402 1.387 . S
C401 H404 0.950 . S
C402 C401 1.387 . S
C402 C405 1.387 . S
H403 C399 0.950 . S
H404 C401 0.950 . S
C405 C396 1.390 . S
C405 H398 0.950 . S
C405 C402 1.387 . S
C406 C407 1.387 . S
C406 H410 0.960 . S
C406 C415 1.390 . S
C407 C406 1.387 . S
C407 C409 1.387 . S
H408 C415 0.950 . S
C409 C407 1.387 . S
C409 C411 1.390 . S
C409 H413 0.950 . S
H410 C406 0.960 . S
C411 C409 1.390 . S
C411 C412 1.387 . S
C411 H414 0.950 . S
C412 C411 1.387 . S
C412 C415 1.387 . S
H413 C409 0.950 . S
H414 C411 0.950 . S
C415 C406 1.390 . S
C415 H408 0.950 . S
C415 C412 1.387 . S
C416 C417 1.387 . S
C416 H420 0.950 . S
C416 C425 1.390 . S
C417 C416 1.387 . S
C417 C419 1.387 . S
H418 C425 0.950 . S
C419 C417 1.387 . S
C419 C421 1.390 . S
C419 H423 0.950 . S
H420 C416 0.950 . S
C421 C419 1.390 . S
C421 C422 1.387 . S
C421 H424 0.950 . S
C422 C421 1.387 . S
C422 C425 1.387 . S
H423 C419 0.950 . S
H424 C421 0.950 . S
C425 C416 1.390 . S
C425 H418 0.950 . S
C425 C422 1.387 . S
C426 C427 1.387 . S
C426 H430 0.950 . S
C426 C435 1.390 . S
C427 C426 1.387 . S
C427 C429 1.387 . S
H428 C435 0.950 . S
C429 C427 1.387 . S
C429 C431 1.390 . S
C429 H433 0.950 . S
H430 C426 0.950 . S
C431 C429 1.390 . S
C431 C432 1.387 . S
C431 H434 0.950 . S
C432 C431 1.387 . S
C432 C435 1.387 . S
H433 C429 0.950 . S
H434 C431 0.950 . S
C435 C426 1.390 . S
C435 H428 0.950 . S
C435 C432 1.387 . S
C436 C437 1.387 . S
C436 H440 0.950 . S
C436 C445 1.390 . S
C437 C436 1.387 . S
C437 C439 1.387 . S
H438 C445 0.950 . S
C439 C437 1.387 . S
C439 C441 1.390 . S
C439 H443 0.950 . S
H440 C436 0.950 . S
C441 C439 1.390 . S
C441 C442 1.387 . S
C441 H444 0.950 . S
C442 C441 1.387 . S
C442 C445 1.387 . S
H443 C439 0.950 . S
H444 C441 0.950 . S
C445 C436 1.390 . S
C445 H438 0.950 . S
C445 C442 1.387 . S
C446 C447 1.387 . S
C446 H450 0.950 . S
C446 C455 1.390 . S
C447 C446 1.387 . S
C447 C449 1.387 . S
H448 C455 0.950 . S
C449 C447 1.387 . S
C449 C451 1.390 . S
C449 H453 0.950 . S
H450 C446 0.950 . S
C451 C449 1.390 . S
C451 C452 1.387 . S
C451 H454 0.950 . S
C452 C451 1.387 . S
C452 C455 1.387 . S
H453 C449 0.950 . S
H454 C451 0.950 . S
C455 C446 1.390 . S
C455 H448 0.950 . S
C455 C452 1.387 . S
C456 C457 1.387 . S
C456 H460 0.950 . S
C456 C465 1.390 . S
C457 C456 1.387 . S
C457 C459 1.387 . S
H458 C465 0.950 . S
C459 C457 1.387 . S
C459 C461 1.390 . S
C459 H463 0.950 . S
H460 C456 0.950 . S
C461 C459 1.390 . S
C461 C462 1.387 . S
C461 H464 0.950 . S
C462 C461 1.387 . S
C462 C465 1.387 . S
H463 C459 0.950 . S
H464 C461 0.950 . S
C465 C456 1.390 . S
C465 H458 0.950 . S
C465 C462 1.387 . S
C466 C467 1.387 . S
C466 H470 0.950 . S
C466 C475 1.390 . S
C467 C466 1.387 . S
C467 C469 1.387 . S
H468 C475 0.950 . S
C469 C467 1.387 . S
C469 C471 1.390 . S
C469 H473 0.950 . S
H470 C466 0.950 . S
C471 C469 1.390 . S
C471 C472 1.387 . S
C471 H474 0.950 . S
C472 C471 1.387 . S
C472 C475 1.387 . S
H473 C469 0.950 . S
H474 C471 0.950 . S
C475 C466 1.390 . S
C475 H468 0.950 . S
C475 C472 1.387 . S
C476 C477 1.387 . S
C476 H480 0.950 . S
C476 C485 1.390 . S
C477 C476 1.387 . S
C477 C479 1.387 . S
H478 C485 0.950 . S
C479 C477 1.387 . S
C479 C481 1.390 . S
C479 H483 0.950 . S
H480 C476 0.950 . S
C481 C479 1.390 . S
C481 C482 1.387 . S
C481 H484 0.950 . S
C482 C481 1.387 . S
C482 C485 1.387 . S
H483 C479 0.950 . S
H484 C481 0.950 . S
C485 C476 1.390 . S
C485 H478 0.950 . S
C485 C482 1.387 . S
C486 C487 1.387 . S
C486 H490 0.950 . S
C486 C495 1.390 . S
C487 C486 1.387 . S
C487 C489 1.387 . S
H488 C495 0.950 . S
C489 C487 1.387 . S
C489 C491 1.390 . S
C489 H493 0.950 . S
H490 C486 0.950 . S
C491 C489 1.390 . S
C491 C492 1.387 . S
C491 H494 0.950 . S
C492 C491 1.387 . S
C492 C495 1.387 . S
H493 C489 0.950 . S
H494 C491 0.950 . S
C495 C486 1.390 . S
C495 H488 0.950 . S
C495 C492 1.387 . S
C496 C497 1.387 . S
C496 H500 0.950 . S
C496 C505 1.390 . S
C497 C496 1.387 . S
C497 C499 1.387 . S
H498 C505 0.950 . S
C499 C497 1.387 . S
C499 C501 1.390 . S
C499 H503 0.950 . S
H500 C496 0.950 . S
C501 C499 1.390 . S
C501 C502 1.387 . S
C501 H504 0.950 . S
C502 C501 1.387 . S
C502 C505 1.387 . S
H503 C499 0.950 . S
H504 C501 0.950 . S
C505 C496 1.390 . S
C505 H498 0.950 . S
C505 C502 1.387 . S
C506 C507 1.387 . S
C506 H510 0.950 . S
C506 C515 1.390 . S
C507 C506 1.387 . S
C507 C509 1.387 . S
H508 C515 0.950 . S
C509 C507 1.387 . S
C509 C511 1.390 . S
C509 H513 0.950 . S
H510 C506 0.950 . S
C511 C509 1.390 . S
C511 C512 1.387 . S
C511 H514 0.950 . S
C512 C511 1.387 . S
C512 C515 1.387 . S
H513 C509 0.950 . S
H514 C511 0.950 . S
C515 C506 1.390 . S
C515 H508 0.950 . S
C515 C512 1.387 . S
C516 C517 1.387 . S
C516 H520 0.950 . S
C516 C525 1.390 . S
C517 C516 1.387 . S
C517 C519 1.387 . S
H518 C525 0.950 . S
C519 C517 1.387 . S
C519 C521 1.390 . S
C519 H523 0.950 . S
H520 C516 0.950 . S
C521 C519 1.390 . S
C521 C522 1.387 . S
C521 H524 0.950 . S
C522 C521 1.387 . S
C522 C525 1.387 . S
H523 C519 0.950 . S
H524 C521 0.950 . S
C525 C516 1.390 . S
C525 H518 0.950 . S
C525 C522 1.387 . S
C526 C527 1.387 . S
C526 H530 0.950 . S
C526 C535 1.390 . S
C527 C526 1.387 . S
C527 C529 1.387 . S
H528 C535 0.950 . S
C529 C527 1.387 . S
C529 C531 1.390 . S
C529 H533 0.950 . S
H530 C526 0.950 . S
C531 C529 1.390 . S
C531 C532 1.387 . S
C531 H534 0.950 . S
C532 C531 1.387 . S
C532 C535 1.387 . S
H533 C529 0.950 . S
H534 C531 0.950 . S
C535 C526 1.390 . S
C535 H528 0.950 . S
C535 C532 1.387 . S
C222 C124 1.403 . S
C217 C5 1.384 . S
C232 C141 1.452 . S
C227 C18 1.490 . S
C242 C155 1.561 . S
C237 C31 1.585 . S
C247 C42 1.477 . S
C252 C113 1.397 . S
C257 C57 1.284 1_554 S
C262 C110 1.254 . S
C267 C70 1.233 . S
C272 C127 1.156 . S
C282 C138 1.501 1_545 S
C277 C81 1.477 . S
C292 C152 1.321 . S
C287 C96 1.367 . S
C297 C29 1.307 . S
C302 C180 1.320 . S
C312 C194 1.501 . S
C307 C44 1.555 . S
C317 C3 1.212 . S
C322 C211 1.151 1_455 S
C332 C166 1.256 1_455 S
C327 C16 1.224 . S
C337 C83 1.417 . S
C342 C169 1.394 . S
C347 C94 1.636 . S
C352 C183 1.562 . S
C362 C197 1.450 . S
C357 C55 1.530 . S
C367 C68 1.385 . S
C372 C208 1.404 . S
C382 C140 1.719 1_545 S
C377 C1 1.699 . S
C392 C154 1.860 . S
C387 C14 1.787 . S
C397 C27 1.752 . S
C402 C112 1.821 1_556 S
C407 C49 1.731 . S
C412 C125 1.606 . S
C417 C53 1.480 . S
C422 C153 1.321 . S
C432 C111 1.307 . S
C427 C66 1.451 . S
C442 C126 1.615 . S
C437 C88 1.660 . S
C452 C139 1.397 . S
C447 C92 1.549 . S
C462 C195 1.399 . S
C457 C36 1.553 . S
C472 C210 1.613 . S
C467 C40 1.661 . S
C477 C10 1.494 . S
C482 C167 1.308 . S
C492 C181 1.318 . S
C487 C23 1.489 1_655 S
C502 C209 1.605 . S
C497 C79 1.637 . S
C507 C101 1.856 . S
C512 C168 1.821 1_455 S
C522 C182 1.859 . S
C517 C62 1.889 . S
C532 C196 1.717 . S
C527 C75 1.756 . S
